data_functionalizedCrystal
_audit_creation_method	'EQeq! by Chris Wilmer'
_symmetry_space_group_name_H-M	'P1'
_symmetry_Int_Tables_number	1
_symmetry_cell_setting	triclinic
loop_
_symmetry_equiv_pos_as_xyz
  x,y,z
_cell_length_a	11.321
_cell_length_b	11.321
_cell_length_c	19.872
_cell_angle_alpha	90
_cell_angle_beta	90
_cell_angle_gamma	120
loop_
_atom_site_label
_atom_site_type_symbol
_atom_site_fract_x
_atom_site_fract_y
_atom_site_fract_z
_atom_site_charge
Mof_Zn	Zn	0.11015	0.40838	0.77826	1.201
Mof_Zn	Zn	0.29823	0.88985	0.11159	1.213
Mof_Zn	Zn	0.59162	0.70177	0.44493	1.208
Mof_Zn	Zn	0.70177	0.59162	0.22174	1.207
Mof_Zn	Zn	0.40838	0.11015	0.88841	1.2
Mof_Zn	Zn	0.88985	0.29823	0.55507	1.212
Mof_Zn	Zn	0.62177	0	0.5	1.216
Mof_Zn	Zn	0.37823	0.37823	0.83333	1.229
Mof_Zn	Zn	-3.58282e-17	0.62177	0.16667	1.216
Mof_H 	H 	0.1575	0.71	0.7645	0.022
Mof_H 	H 	0.203	0.8375	0.6611	0.071
Mof_H 	H 	0.0869	0.1791	0.5317	-0.002
Mof_H 	H 	0.3184	0.2739	0.5717	0.043
Mof_H 	H 	0.4678	0.4749	0.6578	0.15
Mof_H 	H 	0.4223	0.5833	0.6685	0.149
Mof_H 	H 	0.15	0.7203	0.5308	0.106
Mof_H 	H 	0.2092	0.624	0.5228	0.1
Mof_H 	H 	0.5525	0.8425	0.09783	0.027
Mof_H 	H 	0.6345	0.797	0.99443	0.07
Mof_H 	H 	0.0922	0.9131	0.86503	0.002
Mof_H 	H 	0.9555	0.6816	0.90503	0.111
Mof_H 	H 	0.0071	0.5322	0.99113	0.138
Mof_H 	H 	0.161	0.5777	0.00183	0.143
Mof_H 	H 	0.5703	0.85	0.86413	0.127
Mof_H 	H 	0.4148	0.7908	0.85613	0.115
Mof_H 	H 	0.29	0.4475	0.43117	0.019
Mof_H 	H 	0.1625	0.3655	0.32777	0.049
Mof_H 	H 	0.8209	0.9078	0.19837	0.054
Mof_H 	H 	0.7261	0.0445	0.23837	-0.015
Mof_H 	H 	0.5251	0.9929	0.32447	0.163
Mof_H 	H 	0.4167	0.839	0.33517	0.147
Mof_H 	H 	0.2797	0.4297	0.19747	0.111
Mof_H 	H 	0.376	0.5852	0.18947	0.109
Mof_H 	H 	0.4475	0.29	0.2355	0.019
Mof_H 	H 	0.3655	0.1625	0.3389	0.049
Mof_H 	H 	0.9078	0.8209	0.4683	0.055
Mof_H 	H 	0.0445	0.7261	0.4283	-0.018
Mof_H 	H 	0.9929	0.5251	0.3422	0.164
Mof_H 	H 	0.839	0.4167	0.3315	0.147
Mof_H 	H 	0.4297	0.2797	0.4692	0.111
Mof_H 	H 	0.5852	0.376	0.4772	0.109
Mof_H 	H 	0.71	0.1575	0.90217	0.022
Mof_H 	H 	0.8375	0.203	0.00557	0.07
Mof_H 	H 	0.1791	0.0869	0.13497	-0.001
Mof_H 	H 	0.2739	0.3184	0.09497	0.043
Mof_H 	H 	0.4749	0.4678	0.00887	0.149
Mof_H 	H 	0.5833	0.4223	0.99817	0.148
Mof_H 	H 	0.7203	0.15	0.13587	0.106
Mof_H 	H 	0.624	0.2092	0.14387	0.1
Mof_H 	H 	0.8425	0.5525	0.56883	0.027
Mof_H 	H 	0.797	0.6345	0.67223	0.071
Mof_H 	H 	0.9131	0.0922	0.80163	-0.001
Mof_H 	H 	0.6816	0.9555	0.76163	0.116
Mof_H 	H 	0.5322	0.0071	0.67553	0.138
Mof_H 	H 	0.5777	0.161	0.66483	0.146
Mof_H 	H 	0.85	0.5703	0.80253	0.127
Mof_H 	H 	0.7908	0.4148	0.81053	0.115
Mof_C 	C 	0.168	0.6805	0.7224	0.027
Mof_C 	C 	0.1923	0.7509	0.6657	-0.026
Mof_C 	C 	0.18	0.5555	0.6449	0.049
Mof_C 	C 	0.1867	0.4465	0.61	0.037
Mof_C 	C 	0.1346	0.2593	0.5564	0.001
Mof_C 	C 	0.2625	0.3114	0.578	-0.017
Mof_C 	C 	0.4306	0.5251	0.6353	-0.313
Mof_C 	C 	0.5299	0.614	0.5818	0.425
Mof_C 	C 	0.2241	0.7065	0.5451	-0.228
Mof_C 	C 	0.3788	0.8041	0.5356	0.332
Mof_C 	C 	0.5125	0.832	0.05573	0.032
Mof_C 	C 	0.5586	0.8077	0.99903	-0.017
Mof_C 	C 	0.3755	0.82	0.97823	0.063
Mof_C 	C 	0.2598	0.8133	0.94333	0.043
Mof_C 	C 	0.1247	0.8654	0.88973	0.057
Mof_C 	C 	0.0489	0.7375	0.91133	-0.108
Mof_C 	C 	0.0945	0.5694	0.96863	-0.312
Mof_C 	C 	0.0841	0.4701	0.91513	0.424
Mof_C 	C 	0.4824	0.7759	0.87843	-0.245
Mof_C 	C 	0.4253	0.6212	0.86893	0.34
Mof_C 	C 	0.3195	0.4875	0.38907	0.024
Mof_C 	C 	0.2491	0.4414	0.33237	-0.024
Mof_C 	C 	0.4445	0.6245	0.31157	0.054
Mof_C 	C 	0.5535	0.7402	0.27667	0.043
Mof_C 	C 	0.7407	0.8753	0.22307	-0.045
Mof_C 	C 	0.6886	0.9511	0.24467	0.095
Mof_C 	C 	0.4749	0.9055	0.30197	-0.308
Mof_C 	C 	0.386	0.9159	0.24847	0.429
Mof_C 	C 	0.2935	0.5176	0.21177	-0.243
Mof_C 	C 	0.1959	0.5747	0.20227	0.336
Mof_C 	C 	0.4875	0.3195	0.2776	0.024
Mof_C 	C 	0.4414	0.2491	0.3343	-0.024
Mof_C 	C 	0.6245	0.4445	0.3551	0.054
Mof_C 	C 	0.7402	0.5535	0.39	0.043
Mof_C 	C 	0.8753	0.7407	0.4436	-0.047
Mof_C 	C 	0.9511	0.6886	0.422	0.099
Mof_C 	C 	0.9055	0.4749	0.3647	-0.308
Mof_C 	C 	0.9159	0.386	0.4182	0.429
Mof_C 	C 	0.5176	0.2935	0.4549	-0.243
Mof_C 	C 	0.5747	0.1959	0.4644	0.336
Mof_C 	C 	0.6805	0.168	0.94427	0.022
Mof_C 	C 	0.7509	0.1923	0.00097	-0.022
Mof_C 	C 	0.5555	0.18	0.02177	0.05
Mof_C 	C 	0.4465	0.1867	0.05667	0.037
Mof_C 	C 	0.2593	0.1346	0.11027	0.001
Mof_C 	C 	0.3114	0.2625	0.08867	-0.016
Mof_C 	C 	0.5251	0.4306	0.03137	-0.311
Mof_C 	C 	0.614	0.5299	0.08487	0.424
Mof_C 	C 	0.7065	0.2241	0.12157	-0.228
Mof_C 	C 	0.8041	0.3788	0.13107	0.332
Mof_C 	C 	0.832	0.5125	0.61093	0.035
Mof_C 	C 	0.8077	0.5586	0.66763	-0.02
Mof_C 	C 	0.82	0.3755	0.68843	0.061
Mof_C 	C 	0.8133	0.2598	0.72333	0.043
Mof_C 	C 	0.8654	0.1247	0.77693	0.06
Mof_C 	C 	0.7375	0.0489	0.75533	-0.117
Mof_C 	C 	0.5694	0.0945	0.69803	-0.318
Mof_C 	C 	0.4701	0.0841	0.75153	0.425
Mof_C 	C 	0.7759	0.4824	0.78823	-0.245
Mof_C 	C 	0.6212	0.4253	0.79773	0.34
Mof_N 	N 	0.1608	0.5596	0.71	-0.259
Mof_N 	N 	0.1985	0.6709	0.6147	-0.079
Mof_N 	N 	0.083	0.3425	0.5763	-0.27
Mof_N 	N 	0.2965	0.4293	0.6107	-0.062
Mof_N 	N 	0.3988	0.8392	0.04333	-0.253
Mof_N 	N 	0.4724	0.8015	0.94803	-0.074
Mof_N 	N 	0.2595	0.917	0.90963	-0.252
Mof_N 	N 	0.1328	0.7035	0.94403	-0.049
Mof_N 	N 	0.4404	0.6012	0.37667	-0.255
Mof_N 	N 	0.3291	0.5276	0.28137	-0.078
Mof_N 	N 	0.6575	0.7405	0.24297	-0.248
Mof_N 	N 	0.5707	0.8672	0.27737	-0.078
Mof_N 	N 	0.6012	0.4404	0.29	-0.255
Mof_N 	N 	0.5276	0.3291	0.3853	-0.078
Mof_N 	N 	0.7405	0.6575	0.4237	-0.247
Mof_N 	N 	0.8672	0.5707	0.3893	-0.078
Mof_N 	N 	0.5596	0.1608	0.95667	-0.26
Mof_N 	N 	0.6709	0.1985	0.05197	-0.08
Mof_N 	N 	0.3425	0.083	0.09037	-0.27
Mof_N 	N 	0.4293	0.2965	0.05597	-0.063
Mof_N 	N 	0.8392	0.3988	0.62333	-0.252
Mof_N 	N 	0.8015	0.4724	0.71863	-0.073
Mof_N 	N 	0.917	0.2595	0.75703	-0.253
Mof_N 	N 	0.7035	0.1328	0.72263	-0.047
Mof_O 	O 	0.4831	0.5947	0.522	-0.479
Mof_O 	O 	0.6455	0.6979	0.5992	-0.323
Mof_O 	O 	0.6731	0.8932	0.4429	-0.54
Mof_O 	O 	0.4633	0.841	0.5846	-0.322
Mof_O 	O 	0.4216	0.8541	0.4775	-0.418
Mof_O 	O 	0.1116	0.5169	0.85533	-0.488
Mof_O 	O 	0.0524	0.3545	0.93253	-0.352
Mof_O 	O 	0.2201	0.3269	0.77623	-0.573
Mof_O 	O 	0.3777	0.5367	0.91793	-0.342
Mof_O 	O 	0.4325	0.5784	0.81083	-0.43
Mof_O 	O 	0.4053	0.8884	0.18867	-0.473
Mof_O 	O 	0.3021	0.9476	0.26587	-0.324
Mof_O 	O 	0.1068	0.7799	0.10957	-0.567
Mof_O 	O 	0.159	0.6223	0.25127	-0.354
Mof_O 	O 	0.1459	0.5675	0.14417	-0.442
Mof_O 	O 	0.8884	0.4053	0.478	-0.473
Mof_O 	O 	0.9476	0.3021	0.4008	-0.324
Mof_O 	O 	0.7799	0.1068	0.5571	-0.566
Mof_O 	O 	0.6223	0.159	0.4154	-0.353
Mof_O 	O 	0.5675	0.1459	0.5225	-0.441
Mof_O 	O 	0.5947	0.4831	0.14467	-0.479
Mof_O 	O 	0.6979	0.6455	0.06747	-0.323
Mof_O 	O 	0.8932	0.6731	0.22377	-0.54
Mof_O 	O 	0.841	0.4633	0.08207	-0.321
Mof_O 	O 	0.8541	0.4216	0.18917	-0.417
Mof_O 	O 	0.5169	0.1116	0.81133	-0.489
Mof_O 	O 	0.3545	0.0524	0.73413	-0.353
Mof_O 	O 	0.3269	0.2201	0.89043	-0.573
Mof_O 	O 	0.5367	0.3777	0.74873	-0.342
Mof_O 	O 	0.5784	0.4325	0.85583	-0.43
_end
