data_functionalizedCrystal
_audit_creation_method	'EQeq! by Chris Wilmer'
_symmetry_space_group_name_H-M	'P1'
_symmetry_Int_Tables_number	1
_symmetry_cell_setting	triclinic
loop_
_symmetry_equiv_pos_as_xyz
  x,y,z
_cell_length_a	17.133
_cell_length_b	17.133
_cell_length_c	17.133
_cell_angle_alpha	90
_cell_angle_beta	90
_cell_angle_gamma	90
loop_
_atom_site_label
_atom_site_type_symbol
_atom_site_fract_x
_atom_site_fract_y
_atom_site_fract_z
_atom_site_charge
Mof_N 	N 	0.03314	0.68114	0.41128	-0.398
Mof_C 	C 	0.10931	0.6661	0.3901	-0.031
Mof_H 	H 	0.1542	0.6908	0.4112	-0.007
Mof_H 	H 	0.8859	0.6387	0.4273	0.204
Mof_N 	N 	0.53314	0.18114	0.91128	-0.286
Mof_C 	C 	0.60931	0.1661	0.8901	-0.014
Mof_H 	H 	0.6542	0.1908	0.9112	0.009
Mof_H 	H 	0.3859	0.1387	0.9273	0.16
Mof_N 	N 	0.96686	0.31886	0.41128	-0.21
Mof_C 	C 	0.89069	0.3339	0.3901	-0.013
Mof_H 	H 	0.8458	0.3092	0.4112	-0.007
Mof_H 	H 	0.1141	0.3613	0.4273	0.09
Mof_N 	N 	0.46686	0.81886	0.91128	-0.29
Mof_C 	C 	0.39069	0.8339	0.8901	-0.006
Mof_H 	H 	0.3458	0.8092	0.9112	0.013
Mof_H 	H 	0.6141	0.8613	0.9273	0.22
Mof_N 	N 	0.96686	0.68114	0.58872	-0.209
Mof_C 	C 	0.89069	0.6661	0.6099	-0.01
Mof_H 	H 	0.8458	0.6908	0.5888	-0.007
Mof_H 	H 	0.1141	0.6387	0.5727	0.091
Mof_N 	N 	0.46686	0.18114	0.08872	-0.318
Mof_C 	C 	0.39069	0.1661	0.1099	-0.037
Mof_H 	H 	0.3458	0.1908	0.0888	-0.032
Mof_H 	H 	0.6141	0.1387	0.0727	0.086
Mof_N 	N 	0.03314	0.31886	0.58872	-0.397
Mof_C 	C 	0.10931	0.3339	0.6099	-0.03
Mof_H 	H 	0.1542	0.3092	0.5888	-0.005
Mof_H 	H 	0.8859	0.3613	0.5727	0.205
Mof_N 	N 	0.53314	0.81886	0.08872	-0.319
Mof_C 	C 	0.60931	0.8339	0.1099	-0.025
Mof_H 	H 	0.6542	0.8092	0.0888	-0.015
Mof_H 	H 	0.3859	0.8613	0.0727	0.127
Mof_N 	N 	0.41128	0.03314	0.68114	-0.397
Mof_C 	C 	0.3901	0.10931	0.6661	-0.03
Mof_H 	H 	0.4112	0.1542	0.6908	-0.006
Mof_H 	H 	0.4273	0.8859	0.6387	0.205
Mof_N 	N 	0.91128	0.53314	0.18114	-0.285
Mof_C 	C 	0.8901	0.60931	0.1661	-0.013
Mof_H 	H 	0.9112	0.6542	0.1908	0.01
Mof_H 	H 	0.9273	0.3859	0.1387	0.161
Mof_N 	N 	0.41128	0.96686	0.31886	-0.209
Mof_C 	C 	0.3901	0.89069	0.3339	-0.012
Mof_H 	H 	0.4112	0.8458	0.3092	-0.006
Mof_H 	H 	0.4273	0.1141	0.3613	0.091
Mof_N 	N 	0.91128	0.46686	0.81886	-0.289
Mof_C 	C 	0.8901	0.39069	0.8339	-0.005
Mof_H 	H 	0.9112	0.3458	0.8092	0.014
Mof_H 	H 	0.9273	0.6141	0.8613	0.221
Mof_N 	N 	0.58872	0.96686	0.68114	-0.208
Mof_C 	C 	0.6099	0.89069	0.6661	-0.009
Mof_H 	H 	0.5888	0.8458	0.6908	-0.006
Mof_H 	H 	0.5727	0.1141	0.6387	0.092
Mof_N 	N 	0.08872	0.46686	0.18114	-0.317
Mof_C 	C 	0.1099	0.39069	0.1661	-0.037
Mof_H 	H 	0.0888	0.3458	0.1908	-0.032
Mof_H 	H 	0.0727	0.6141	0.1387	0.086
Mof_N 	N 	0.58872	0.03314	0.31886	-0.397
Mof_C 	C 	0.6099	0.10931	0.3339	-0.03
Mof_H 	H 	0.5888	0.1542	0.3092	-0.005
Mof_H 	H 	0.5727	0.8859	0.3613	0.205
Mof_N 	N 	0.08872	0.53314	0.81886	-0.319
Mof_C 	C 	0.1099	0.60931	0.8339	-0.025
Mof_H 	H 	0.0888	0.6542	0.8092	-0.015
Mof_H 	H 	0.0727	0.3859	0.8613	0.127
Mof_N 	N 	0.68114	0.41128	0.03314	-0.397
Mof_C 	C 	0.6661	0.3901	0.10931	-0.03
Mof_H 	H 	0.6908	0.4112	0.1542	-0.006
Mof_H 	H 	0.6387	0.4273	0.8859	0.205
Mof_N 	N 	0.18114	0.91128	0.53314	-0.285
Mof_C 	C 	0.1661	0.8901	0.60931	-0.013
Mof_H 	H 	0.1908	0.9112	0.6542	0.01
Mof_H 	H 	0.1387	0.9273	0.3859	0.161
Mof_N 	N 	0.31886	0.41128	0.96686	-0.209
Mof_C 	C 	0.3339	0.3901	0.89069	-0.012
Mof_H 	H 	0.3092	0.4112	0.8458	-0.006
Mof_H 	H 	0.3613	0.4273	0.1141	0.091
Mof_N 	N 	0.81886	0.91128	0.46686	-0.289
Mof_C 	C 	0.8339	0.8901	0.39069	-0.005
Mof_H 	H 	0.8092	0.9112	0.3458	0.014
Mof_H 	H 	0.8613	0.9273	0.6141	0.221
Mof_N 	N 	0.68114	0.58872	0.96686	-0.208
Mof_C 	C 	0.6661	0.6099	0.89069	-0.009
Mof_H 	H 	0.6908	0.5888	0.8458	-0.006
Mof_H 	H 	0.6387	0.5727	0.1141	0.092
Mof_N 	N 	0.18114	0.08872	0.46686	-0.317
Mof_C 	C 	0.1661	0.1099	0.39069	-0.037
Mof_H 	H 	0.1908	0.0888	0.3458	-0.032
Mof_H 	H 	0.1387	0.0727	0.6141	0.086
Mof_N 	N 	0.31886	0.58872	0.03314	-0.397
Mof_C 	C 	0.3339	0.6099	0.10931	-0.03
Mof_H 	H 	0.3092	0.5888	0.1542	-0.005
Mof_H 	H 	0.3613	0.5727	0.8859	0.205
Mof_N 	N 	0.81886	0.08872	0.53314	-0.319
Mof_C 	C 	0.8339	0.1099	0.60931	-0.025
Mof_H 	H 	0.8092	0.0888	0.6542	-0.015
Mof_H 	H 	0.8613	0.0727	0.3859	0.127
Mof_N 	N 	0.68114	0.03314	0.41128	-0.397
Mof_C 	C 	0.6661	0.10931	0.3901	-0.03
Mof_H 	H 	0.6908	0.1542	0.4112	-0.006
Mof_H 	H 	0.6387	0.8859	0.4273	0.205
Mof_N 	N 	0.18114	0.53314	0.91128	-0.285
Mof_C 	C 	0.1661	0.60931	0.8901	-0.013
Mof_H 	H 	0.1908	0.6542	0.9112	0.01
Mof_H 	H 	0.1387	0.3859	0.9273	0.161
Mof_N 	N 	0.31886	0.96686	0.41128	-0.209
Mof_C 	C 	0.3339	0.89069	0.3901	-0.012
Mof_H 	H 	0.3092	0.8458	0.4112	-0.006
Mof_H 	H 	0.3613	0.1141	0.4273	0.091
Mof_N 	N 	0.81886	0.46686	0.91128	-0.289
Mof_C 	C 	0.8339	0.39069	0.8901	-0.005
Mof_H 	H 	0.8092	0.3458	0.9112	0.014
Mof_H 	H 	0.8613	0.6141	0.9273	0.221
Mof_N 	N 	0.68114	0.96686	0.58872	-0.208
Mof_C 	C 	0.6661	0.89069	0.6099	-0.009
Mof_H 	H 	0.6908	0.8458	0.5888	-0.006
Mof_H 	H 	0.6387	0.1141	0.5727	0.092
Mof_N 	N 	0.18114	0.46686	0.08872	-0.317
Mof_C 	C 	0.1661	0.39069	0.1099	-0.037
Mof_H 	H 	0.1908	0.3458	0.0888	-0.032
Mof_H 	H 	0.1387	0.6141	0.0727	0.086
Mof_N 	N 	0.31886	0.03314	0.58872	-0.397
Mof_C 	C 	0.3339	0.10931	0.6099	-0.03
Mof_H 	H 	0.3092	0.1542	0.5888	-0.005
Mof_H 	H 	0.3613	0.8859	0.5727	0.205
Mof_N 	N 	0.81886	0.53314	0.08872	-0.319
Mof_C 	C 	0.8339	0.60931	0.1099	-0.025
Mof_H 	H 	0.8092	0.6542	0.0888	-0.015
Mof_H 	H 	0.8613	0.3859	0.0727	0.127
Mof_N 	N 	0.03314	0.41128	0.68114	-0.397
Mof_C 	C 	0.10931	0.3901	0.6661	-0.03
Mof_H 	H 	0.1542	0.4112	0.6908	-0.006
Mof_H 	H 	0.8859	0.4273	0.6387	0.205
Mof_N 	N 	0.53314	0.91128	0.18114	-0.285
Mof_C 	C 	0.60931	0.8901	0.1661	-0.013
Mof_H 	H 	0.6542	0.9112	0.1908	0.01
Mof_H 	H 	0.3859	0.9273	0.1387	0.161
Mof_N 	N 	0.96686	0.41128	0.31886	-0.209
Mof_C 	C 	0.89069	0.3901	0.3339	-0.012
Mof_H 	H 	0.8458	0.4112	0.3092	-0.006
Mof_H 	H 	0.1141	0.4273	0.3613	0.091
Mof_N 	N 	0.46686	0.91128	0.81886	-0.289
Mof_C 	C 	0.39069	0.8901	0.8339	-0.005
Mof_H 	H 	0.3458	0.9112	0.8092	0.014
Mof_H 	H 	0.6141	0.9273	0.8613	0.221
Mof_N 	N 	0.96686	0.58872	0.68114	-0.208
Mof_C 	C 	0.89069	0.6099	0.6661	-0.009
Mof_H 	H 	0.8458	0.5888	0.6908	-0.006
Mof_H 	H 	0.1141	0.5727	0.6387	0.092
Mof_N 	N 	0.46686	0.08872	0.18114	-0.317
Mof_C 	C 	0.39069	0.1099	0.1661	-0.037
Mof_H 	H 	0.3458	0.0888	0.1908	-0.032
Mof_H 	H 	0.6141	0.0727	0.1387	0.086
Mof_N 	N 	0.03314	0.58872	0.31886	-0.397
Mof_C 	C 	0.10931	0.6099	0.3339	-0.03
Mof_H 	H 	0.1542	0.5888	0.3092	-0.005
Mof_H 	H 	0.8859	0.5727	0.3613	0.205
Mof_N 	N 	0.53314	0.08872	0.81886	-0.319
Mof_C 	C 	0.60931	0.1099	0.8339	-0.025
Mof_H 	H 	0.6542	0.0888	0.8092	-0.015
Mof_H 	H 	0.3859	0.0727	0.8613	0.127
Mof_N 	N 	0.41128	0.68114	0.03314	-0.397
Mof_C 	C 	0.3901	0.6661	0.10931	-0.03
Mof_H 	H 	0.4112	0.6908	0.1542	-0.006
Mof_H 	H 	0.4273	0.6387	0.8859	0.205
Mof_N 	N 	0.91128	0.18114	0.53314	-0.285
Mof_C 	C 	0.8901	0.1661	0.60931	-0.013
Mof_H 	H 	0.9112	0.1908	0.6542	0.01
Mof_H 	H 	0.9273	0.1387	0.3859	0.161
Mof_N 	N 	0.41128	0.31886	0.96686	-0.209
Mof_C 	C 	0.3901	0.3339	0.89069	-0.012
Mof_H 	H 	0.4112	0.3092	0.8458	-0.006
Mof_H 	H 	0.4273	0.3613	0.1141	0.091
Mof_N 	N 	0.91128	0.81886	0.46686	-0.289
Mof_C 	C 	0.8901	0.8339	0.39069	-0.005
Mof_H 	H 	0.9112	0.8092	0.3458	0.014
Mof_H 	H 	0.9273	0.8613	0.6141	0.221
Mof_N 	N 	0.58872	0.68114	0.96686	-0.208
Mof_C 	C 	0.6099	0.6661	0.89069	-0.009
Mof_H 	H 	0.5888	0.6908	0.8458	-0.006
Mof_H 	H 	0.5727	0.6387	0.1141	0.092
Mof_N 	N 	0.08872	0.18114	0.46686	-0.317
Mof_C 	C 	0.1099	0.1661	0.39069	-0.037
Mof_H 	H 	0.0888	0.1908	0.3458	-0.032
Mof_H 	H 	0.0727	0.1387	0.6141	0.086
Mof_N 	N 	0.58872	0.31886	0.03314	-0.397
Mof_C 	C 	0.6099	0.3339	0.10931	-0.03
Mof_H 	H 	0.5888	0.3092	0.1542	-0.005
Mof_H 	H 	0.5727	0.3613	0.8859	0.205
Mof_N 	N 	0.08872	0.81886	0.53314	-0.319
Mof_C 	C 	0.1099	0.8339	0.60931	-0.025
Mof_H 	H 	0.0888	0.8092	0.6542	-0.015
Mof_H 	H 	0.0727	0.8613	0.3859	0.127
Mof_Zn	Zn	-1.31834e-32	0.75	0.5	1.135
Mof_Zn	Zn	1.8747e-33	0.25	0.5	1.133
Mof_Zn	Zn	0.5	0	0.75	1.135
Mof_Zn	Zn	0.5	0	0.25	1.133
Mof_Zn	Zn	0.75	0.5	-0	1.135
Mof_Zn	Zn	0.25	0.5	-0	1.133
Mof_Zn	Zn	0.75	0	0.5	1.135
Mof_Zn	Zn	0.25	0	0.5	1.133
Mof_Zn	Zn	-7.22671e-33	0.5	0.75	1.135
Mof_Zn	Zn	3.44704e-33	0.5	0.25	1.133
Mof_Zn	Zn	0.5	0.75	-0	1.135
Mof_Zn	Zn	0.5	0.25	-0	1.133
Mof_C 	C 	0.99	0.63219	0.36781	0.418
Mof_C 	C 	0.9022	0.626	0.374	-0.739
Mof_H 	H 	0.8779	0.6626	0.3374	0.219
Mof_C 	C 	0.49	0.13219	0.86781	0.2
Mof_C 	C 	0.4022	0.126	0.874	-0.567
Mof_H 	H 	0.3779	0.1626	0.8374	0.162
Mof_C 	C 	0.01	0.36781	0.36781	-0.016
Mof_C 	C 	0.0978	0.374	0.374	-0.407
Mof_H 	H 	0.1221	0.3374	0.3374	0.111
Mof_C 	C 	0.51	0.86781	0.86781	0.251
Mof_C 	C 	0.5978	0.874	0.874	-0.674
Mof_H 	H 	0.6221	0.8374	0.8374	0.208
Mof_C 	C 	0.01	0.63219	0.63219	-0.011
Mof_C 	C 	0.0978	0.626	0.626	-0.412
Mof_H 	H 	0.1221	0.6626	0.6626	0.116
Mof_C 	C 	0.51	0.13219	0.13219	0.156
Mof_C 	C 	0.5978	0.126	0.126	-0.49
Mof_H 	H 	0.6221	0.1626	0.1626	0.133
Mof_C 	C 	0.99	0.36781	0.63219	0.418
Mof_C 	C 	0.9022	0.374	0.626	-0.739
Mof_H 	H 	0.8779	0.3374	0.6626	0.219
Mof_C 	C 	0.49	0.86781	0.13219	0.2
Mof_C 	C 	0.4022	0.874	0.126	-0.567
Mof_H 	H 	0.3779	0.8374	0.1626	0.162
Mof_C 	C 	0.36781	0.99	0.63219	0.418
Mof_C 	C 	0.374	0.9022	0.626	-0.739
Mof_H 	H 	0.3374	0.8779	0.6626	0.219
Mof_C 	C 	0.86781	0.49	0.13219	0.2
Mof_C 	C 	0.874	0.4022	0.126	-0.567
Mof_H 	H 	0.8374	0.3779	0.1626	0.162
Mof_C 	C 	0.36781	0.01	0.36781	-0.016
Mof_C 	C 	0.374	0.0978	0.374	-0.407
Mof_H 	H 	0.3374	0.1221	0.3374	0.111
Mof_C 	C 	0.86781	0.51	0.86781	0.251
Mof_C 	C 	0.874	0.5978	0.874	-0.674
Mof_H 	H 	0.8374	0.6221	0.8374	0.208
Mof_C 	C 	0.63219	0.01	0.63219	-0.011
Mof_C 	C 	0.626	0.0978	0.626	-0.412
Mof_H 	H 	0.6626	0.1221	0.6626	0.116
Mof_C 	C 	0.13219	0.51	0.13219	0.156
Mof_C 	C 	0.126	0.5978	0.126	-0.49
Mof_H 	H 	0.1626	0.6221	0.1626	0.133
Mof_C 	C 	0.63219	0.99	0.36781	0.418
Mof_C 	C 	0.626	0.9022	0.374	-0.739
Mof_H 	H 	0.6626	0.8779	0.3374	0.219
Mof_C 	C 	0.13219	0.49	0.86781	0.2
Mof_C 	C 	0.126	0.4022	0.874	-0.567
Mof_H 	H 	0.1626	0.3779	0.8374	0.162
Mof_C 	C 	0.63219	0.36781	0.99	0.418
Mof_C 	C 	0.626	0.374	0.9022	-0.739
Mof_H 	H 	0.6626	0.3374	0.8779	0.219
Mof_C 	C 	0.13219	0.86781	0.49	0.2
Mof_C 	C 	0.126	0.874	0.4022	-0.567
Mof_H 	H 	0.1626	0.8374	0.3779	0.162
Mof_C 	C 	0.36781	0.36781	0.01	-0.016
Mof_C 	C 	0.374	0.374	0.0978	-0.407
Mof_H 	H 	0.3374	0.3374	0.1221	0.111
Mof_C 	C 	0.86781	0.86781	0.51	0.251
Mof_C 	C 	0.874	0.874	0.5978	-0.674
Mof_H 	H 	0.8374	0.8374	0.6221	0.208
Mof_C 	C 	0.63219	0.63219	0.01	-0.011
Mof_C 	C 	0.626	0.626	0.0978	-0.412
Mof_H 	H 	0.6626	0.6626	0.1221	0.116
Mof_C 	C 	0.13219	0.13219	0.51	0.156
Mof_C 	C 	0.126	0.126	0.5978	-0.49
Mof_H 	H 	0.1626	0.1626	0.6221	0.133
Mof_C 	C 	0.36781	0.63219	0.99	0.418
Mof_C 	C 	0.374	0.626	0.9022	-0.739
Mof_H 	H 	0.3374	0.6626	0.8779	0.219
Mof_C 	C 	0.86781	0.13219	0.49	0.2
Mof_C 	C 	0.874	0.126	0.4022	-0.567
Mof_H 	H 	0.8374	0.1626	0.3779	0.162
_end
