data_functionalizedCrystal
_audit_creation_method	'EQeq! by Chris Wilmer'
_symmetry_space_group_name_H-M	'P1'
_symmetry_Int_Tables_number	1
_symmetry_cell_setting	triclinic
loop_
_symmetry_equiv_pos_as_xyz
  x,y,z
_cell_length_a	8.8147
_cell_length_b	8.8147
_cell_length_c	13.735
_cell_angle_alpha	94.5895
_cell_angle_beta	94.5895
_cell_angle_gamma	100.254
loop_
_atom_site_label
_atom_site_type_symbol
_atom_site_fract_x
_atom_site_fract_y
_atom_site_fract_z
_atom_site_charge
Mof_Ca	Ca	0.8759	0.5743	0.604	1.138
Mof_Ca	Ca	0.4257	0.1241	0.896	1.084
Mof_Ca	Ca	0.1241	0.4257	0.396	1.064
Mof_Ca	Ca	0.5743	0.8759	0.104	1.109
Mof_Fe	Fe	0.5	0	0.5	0.578
Mof_Fe	Fe	-0	0.5	-0	0.522
Mof_H 	H 	0.4819	0.4591	0.5538	-0.007
Mof_H 	H 	0.4486	0.6274	0.6206	0.021
Mof_H 	H 	0.5803	0.7281	0.7078	0.021
Mof_H 	H 	0.7439	0.7405	0.7928	-0.01
Mof_H 	H 	0.2516	0.6376	0.7878	-0.004
Mof_H 	H 	0.6996	0.4138	0.8081	0.007
Mof_H 	H 	0.9628	0.689	0.4079	0.163
Mof_H 	H 	0.8361	0.5331	0.3921	0.198
Mof_H 	H 	0.5409	0.5181	0.9462	0.007
Mof_H 	H 	0.3726	0.5514	0.8794	0.027
Mof_H 	H 	0.2719	0.4197	0.7922	0.013
Mof_H 	H 	0.2595	0.2561	0.7072	-0.027
Mof_H 	H 	0.3624	0.7484	0.7122	0.003
Mof_H 	H 	0.5862	0.3004	0.6919	0.006
Mof_H 	H 	0.311	0.0372	0.0921	0.136
Mof_H 	H 	0.4669	0.1639	0.1079	0.194
Mof_H 	H 	0.5181	0.5409	0.4462	-0.007
Mof_H 	H 	0.5514	0.3726	0.3794	0.02
Mof_H 	H 	0.4197	0.2719	0.2922	0.012
Mof_H 	H 	0.2561	0.2595	0.2072	-0.03
Mof_H 	H 	0.7484	0.3624	0.2122	-0.003
Mof_H 	H 	0.3004	0.5862	0.1919	0.006
Mof_H 	H 	0.0372	0.311	0.5921	0.14
Mof_H 	H 	0.1639	0.4669	0.6079	0.196
Mof_H 	H 	0.4591	0.4819	0.0538	-0.021
Mof_H 	H 	0.6274	0.4486	0.1206	0.014
Mof_H 	H 	0.7281	0.5803	0.2078	0.02
Mof_H 	H 	0.7405	0.7439	0.2928	-0.014
Mof_H 	H 	0.6376	0.2516	0.2878	-0.01
Mof_H 	H 	0.4138	0.6996	0.3081	0.007
Mof_H 	H 	0.689	0.9628	0.9079	0.167
Mof_H 	H 	0.5331	0.8361	0.8921	0.201
Mof_C 	C 	0.6487	0.1901	0.5215	-0.12
Mof_C 	C 	0.4664	0.0174	0.6382	-0.122
Mof_C 	C 	0.6538	0.874	0.5296	-0.076
Mof_C 	C 	0.4809	0.5157	0.6264	0.017
Mof_C 	C 	0.6341	0.6701	0.7637	0.013
Mof_C 	C 	0.8099	0.3513	0.9785	-0.065
Mof_C 	C 	0.9826	0.5336	0.8618	-0.05
Mof_C 	C 	0.126	0.3462	0.9704	-0.083
Mof_C 	C 	0.4843	0.5191	0.8736	0.016
Mof_C 	C 	0.3299	0.3659	0.7363	0.016
Mof_C 	C 	0.3513	0.8099	0.4785	-0.093
Mof_C 	C 	0.5336	0.9826	0.3618	-0.071
Mof_C 	C 	0.3462	0.126	0.4704	-0.122
Mof_C 	C 	0.5191	0.4843	0.3736	0.018
Mof_C 	C 	0.3659	0.3299	0.2363	0.016
Mof_C 	C 	0.1901	0.6487	0.0215	-0.126
Mof_C 	C 	0.0174	0.4664	0.1382	-0.118
Mof_C 	C 	0.874	0.6538	0.0296	-0.09
Mof_C 	C 	0.5157	0.4809	0.1264	0.02
Mof_C 	C 	0.6701	0.6341	0.2637	0.013
Mof_C 	C 	0.3571	0.6429	0.75	0.015
Mof_C 	C 	0.6074	0.3926	0.75	0.013
Mof_C 	C 	0.6429	0.3571	0.25	0.018
Mof_C 	C 	0.3926	0.6074	0.25	0.013
Mof_N 	N 	0.7338	0.3094	0.5339	-0.179
Mof_N 	N 	0.4472	0.0304	0.7209	-0.198
Mof_N 	N 	0.7387	0.7913	0.5495	-0.184
Mof_N 	N 	0.6237	0.5313	0.6936	-0.18
Mof_N 	N 	0.3405	0.5031	0.6802	-0.145
Mof_N 	N 	0.6906	0.2662	0.9661	-0.187
Mof_N 	N 	0.9696	0.5528	0.7791	-0.193
Mof_N 	N 	0.2087	0.2613	0.9505	-0.186
Mof_N 	N 	0.4687	0.3763	0.8064	-0.178
Mof_N 	N 	0.4969	0.6595	0.8198	-0.14
Mof_N 	N 	0.2662	0.6906	0.4661	-0.186
Mof_N 	N 	0.5528	0.9696	0.2791	-0.186
Mof_N 	N 	0.2613	0.2087	0.4505	-0.185
Mof_N 	N 	0.3763	0.4687	0.3064	-0.178
Mof_N 	N 	0.6595	0.4969	0.3198	-0.143
Mof_N 	N 	0.3094	0.7338	0.0339	-0.186
Mof_N 	N 	0.0304	0.4472	0.2209	-0.197
Mof_N 	N 	0.7913	0.7387	0.0495	-0.19
Mof_N 	N 	0.5313	0.6237	0.1936	-0.18
Mof_N 	N 	0.5031	0.3405	0.1802	-0.148
Mof_O 	O 	0.9281	0.5829	0.43	-0.602
Mof_O 	O 	0.4171	0.0719	0.07	-0.636
Mof_O 	O 	0.0719	0.4171	0.57	-0.622
Mof_O 	O 	0.5829	0.9281	0.93	-0.584
_end
