data_functionalizedCrystal
_audit_creation_method	'EQeq! by Chris Wilmer'
_symmetry_space_group_name_H-M	'P1'
_symmetry_Int_Tables_number	1
_symmetry_cell_setting	triclinic
loop_
_symmetry_equiv_pos_as_xyz
  x,y,z
_cell_length_a	18.5614
_cell_length_b	18.5614
_cell_length_c	18.5614
_cell_angle_alpha	60
_cell_angle_beta	60
_cell_angle_gamma	60
loop_
_atom_site_label
_atom_site_type_symbol
_atom_site_fract_x
_atom_site_fract_y
_atom_site_fract_z
_atom_site_charge
Mof_Cu	Cu	2.51416e-17	2.51416e-17	0.43104	0.681
Mof_Cu	Cu	0.43104	0	-0	0.681
Mof_Cu	Cu	0.56896	0	-0	0.693
Mof_Cu	Cu	-0	0.43104	0.56896	0.799
Mof_Cu	Cu	-0	0	0.56896	0.694
Mof_Cu	Cu	-0	0.56896	0.43104	0.799
Mof_Cu	Cu	0.56896	0.43104	-0	0.799
Mof_Cu	Cu	-0	0.43104	-0	0.682
Mof_Cu	Cu	0.56896	2.51416e-17	0.43104	0.799
Mof_Cu	Cu	0.43104	0.56896	-0	0.799
Mof_Cu	Cu	-5.02832e-17	0.56896	-0	0.694
Mof_Cu	Cu	0.43104	0	0.56896	0.799
Mof_H 	H 	0.2732	0.4888	0.2732	0.005
Mof_H 	H 	0.7268	0.0352	0.5112	0.029
Mof_H 	H 	0.4888	0.9648	0.2732	0.076
Mof_H 	H 	0.9648	0.2732	0.4888	0.076
Mof_H 	H 	0.2732	0.9648	0.4888	0.076
Mof_H 	H 	0.2732	0.2732	0.9648	0.053
Mof_H 	H 	0.9648	0.4888	0.2732	0.076
Mof_H 	H 	0.9648	0.2732	0.2732	0.053
Mof_H 	H 	0.4888	0.2732	0.2732	0.005
Mof_H 	H 	0.0352	0.7268	0.5112	0.029
Mof_H 	H 	0.2732	0.4888	0.9648	0.076
Mof_H 	H 	0.0352	0.5112	0.7268	0.029
Mof_H 	H 	0.7268	0.5112	0.0352	0.029
Mof_H 	H 	0.7268	0.0352	0.7268	0.055
Mof_H 	H 	0.7268	0.5112	0.7268	0.094
Mof_H 	H 	0.5112	0.0352	0.7268	0.029
Mof_H 	H 	0.5112	0.7268	0.7268	0.094
Mof_H 	H 	0.2732	0.2732	0.4888	0.005
Mof_H 	H 	0.4888	0.2732	0.9648	0.076
Mof_H 	H 	0.7268	0.7268	0.0352	0.055
Mof_H 	H 	0.2732	0.9648	0.2732	0.053
Mof_H 	H 	0.7268	0.7268	0.5112	0.094
Mof_H 	H 	0.0352	0.7268	0.7268	0.055
Mof_H 	H 	0.5112	0.7268	0.0352	0.029
Mof_C 	C 	0.3018	0.43058	0.3018	0.088
Mof_C 	C 	0.6982	0.56942	0.03418	0.061
Mof_C 	C 	0.02576	0.5685	0.5685	0.369
Mof_C 	C 	0.25825	0.38753	0.38753	-0.178
Mof_C 	C 	0.4315	0.4315	0.97424	0.342
Mof_C 	C 	0.74175	0.03331	0.61247	-0.115
Mof_C 	C 	0.4315	0.97424	0.16276	0.344
Mof_C 	C 	0.43058	0.3018	0.96582	0.035
Mof_C 	C 	0.03331	0.74175	0.61247	-0.115
Mof_C 	C 	0.6982	0.6982	0.56942	0.02
Mof_C 	C 	0.61247	0.74175	0.03331	-0.115
Mof_C 	C 	0.61247	0.61247	0.74175	-0.035
Mof_C 	C 	0.6982	0.56942	0.6982	0.02
Mof_C 	C 	0.56942	0.6982	0.03418	0.061
Mof_C 	C 	0.6982	0.03418	0.56942	0.061
Mof_C 	C 	0.56942	0.03418	0.6982	0.061
Mof_C 	C 	0.96582	0.3018	0.3018	0.039
Mof_C 	C 	0.03331	0.61247	0.61247	-0.14
Mof_C 	C 	0.96582	0.43058	0.3018	0.035
Mof_C 	C 	0.38753	0.25825	0.96669	-0.08
Mof_C 	C 	0.25825	0.96669	0.38753	-0.08
Mof_C 	C 	0.74175	0.61247	0.61247	-0.035
Mof_C 	C 	0.61247	0.61247	0.03331	-0.14
Mof_C 	C 	0.38753	0.38753	0.25825	-0.178
Mof_C 	C 	0.43058	0.3018	0.3018	0.088
Mof_C 	C 	0.38753	0.38753	0.96669	-0.062
Mof_C 	C 	0.96669	0.25825	0.38753	-0.08
Mof_C 	C 	0.03331	0.61247	0.74175	-0.115
Mof_C 	C 	0.3018	0.3018	0.43058	0.088
Mof_C 	C 	0.83724	0.02576	0.5685	0.349
Mof_C 	C 	0.56942	0.6982	0.6982	0.02
Mof_C 	C 	0.96582	0.3018	0.43058	0.035
Mof_C 	C 	0.38753	0.96669	0.38753	-0.062
Mof_C 	C 	0.97424	0.4315	0.16276	0.344
Mof_C 	C 	0.83724	0.5685	0.5685	0.338
Mof_C 	C 	0.25825	0.38753	0.96669	-0.08
Mof_C 	C 	0.97424	0.16276	0.4315	0.344
Mof_C 	C 	0.16276	0.97424	0.4315	0.344
Mof_C 	C 	0.4315	0.16276	0.97424	0.344
Mof_C 	C 	0.02576	0.5685	0.83724	0.349
Mof_C 	C 	0.6982	0.03418	0.6982	0.055
Mof_C 	C 	0.74175	0.61247	0.03331	-0.115
Mof_C 	C 	0.5685	0.83724	0.5685	0.338
Mof_C 	C 	0.5685	0.83724	0.02576	0.349
Mof_C 	C 	0.3018	0.96582	0.3018	0.039
Mof_C 	C 	0.38753	0.25825	0.38753	-0.178
Mof_C 	C 	0.38753	0.96669	0.25825	-0.08
Mof_C 	C 	0.5685	0.5685	0.83724	0.338
Mof_C 	C 	0.96669	0.38753	0.25825	-0.08
Mof_C 	C 	0.03418	0.6982	0.6982	0.055
Mof_C 	C 	0.61247	0.03331	0.74175	-0.115
Mof_C 	C 	0.03418	0.56942	0.6982	0.061
Mof_C 	C 	0.97424	0.4315	0.4315	0.342
Mof_C 	C 	0.3018	0.96582	0.43058	0.035
Mof_C 	C 	0.43058	0.96582	0.3018	0.035
Mof_C 	C 	0.4315	0.4315	0.16276	0.376
Mof_C 	C 	0.4315	0.16276	0.4315	0.376
Mof_C 	C 	0.6982	0.6982	0.03418	0.055
Mof_C 	C 	0.61247	0.03331	0.61247	-0.14
Mof_C 	C 	0.4315	0.97424	0.4315	0.342
Mof_C 	C 	0.5685	0.5685	0.02576	0.369
Mof_C 	C 	0.3018	0.3018	0.96582	0.039
Mof_C 	C 	0.3018	0.43058	0.96582	0.035
Mof_C 	C 	0.83724	0.5685	0.02576	0.349
Mof_C 	C 	0.03418	0.6982	0.56942	0.061
Mof_C 	C 	0.16276	0.4315	0.97424	0.344
Mof_C 	C 	0.5685	0.02576	0.5685	0.369
Mof_C 	C 	0.61247	0.74175	0.61247	-0.035
Mof_C 	C 	0.5685	0.02576	0.83724	0.349
Mof_C 	C 	0.96669	0.38753	0.38753	-0.062
Mof_C 	C 	0.16276	0.4315	0.4315	0.376
Mof_C 	C 	0.02576	0.83724	0.5685	0.349
Mof_O 	O 	0.49206	0.87432	0.02096	-0.364
Mof_O 	O 	0.87432	0.61266	0.49206	-0.28
Mof_O 	O 	0.12568	0.38734	0.97904	-0.351
Mof_O 	O 	0.38734	0.50794	0.12568	-0.474
Mof_O 	O 	0.61266	0.87432	0.02096	-0.344
Mof_O 	O 	0.61266	0.02096	0.49206	-0.462
Mof_O 	O 	0.87432	0.61266	0.02096	-0.344
Mof_O 	O 	0.97904	0.50794	0.38734	-0.289
Mof_O 	O 	0.38734	0.12568	0.50794	-0.474
Mof_O 	O 	0.12568	0.97904	0.50794	-0.331
Mof_O 	O 	0.61266	0.87432	0.49206	-0.28
Mof_O 	O 	0.50794	0.38734	0.12568	-0.474
Mof_O 	O 	0.38734	0.50794	0.97904	-0.289
Mof_O 	O 	0.50794	0.97904	0.12568	-0.331
Mof_O 	O 	0.49206	0.61266	0.87432	-0.28
Mof_O 	O 	0.38734	0.97904	0.50794	-0.289
Mof_O 	O 	0.87432	0.49206	0.02096	-0.364
Mof_O 	O 	0.97904	0.38734	0.12568	-0.351
Mof_O 	O 	0.87432	0.02096	0.61266	-0.344
Mof_O 	O 	0.49206	0.87432	0.61266	-0.28
Mof_O 	O 	0.02096	0.87432	0.49206	-0.364
Mof_O 	O 	0.12568	0.50794	0.38734	-0.474
Mof_O 	O 	0.87432	0.49206	0.61266	-0.28
Mof_O 	O 	0.50794	0.12568	0.97904	-0.331
Mof_O 	O 	0.87432	0.02096	0.49206	-0.364
Mof_O 	O 	0.49206	0.61266	0.02096	-0.462
Mof_O 	O 	0.02096	0.61266	0.49206	-0.462
Mof_O 	O 	0.38734	0.97904	0.12568	-0.351
Mof_O 	O 	0.02096	0.61266	0.87432	-0.344
Mof_O 	O 	0.50794	0.38734	0.97904	-0.289
Mof_O 	O 	0.02096	0.49206	0.87432	-0.364
Mof_O 	O 	0.61266	0.49206	0.87432	-0.28
Mof_O 	O 	0.49206	0.02096	0.87432	-0.364
Mof_O 	O 	0.97904	0.12568	0.50794	-0.331
Mof_O 	O 	0.12568	0.50794	0.97904	-0.331
Mof_O 	O 	0.49206	0.02096	0.61266	-0.462
Mof_O 	O 	0.61266	0.02096	0.87432	-0.344
Mof_O 	O 	0.97904	0.12568	0.38734	-0.351
Mof_O 	O 	0.50794	0.97904	0.38734	-0.289
Mof_O 	O 	0.02096	0.87432	0.61266	-0.344
Mof_O 	O 	0.02096	0.49206	0.61266	-0.462
Mof_O 	O 	0.12568	0.38734	0.50794	-0.474
Mof_O 	O 	0.97904	0.38734	0.50794	-0.289
Mof_O 	O 	0.61266	0.49206	0.02096	-0.462
Mof_O 	O 	0.97904	0.50794	0.12568	-0.331
Mof_O 	O 	0.12568	0.97904	0.38734	-0.351
Mof_O 	O 	0.50794	0.12568	0.38734	-0.474
Mof_O 	O 	0.38734	0.12568	0.97904	-0.351
_end
