data_functionalizedCrystal
_audit_creation_method	'EQeq! by Chris Wilmer'
_symmetry_space_group_name_H-M	'P1'
_symmetry_Int_Tables_number	1
_symmetry_cell_setting	triclinic
loop_
_symmetry_equiv_pos_as_xyz
  x,y,z
_cell_length_a	14.733
_cell_length_b	13.079
_cell_length_c	15.21
_cell_angle_alpha	90
_cell_angle_beta	110.99
_cell_angle_gamma	90
loop_
_atom_site_label
_atom_site_type_symbol
_atom_site_fract_x
_atom_site_fract_y
_atom_site_fract_z
_atom_site_charge
Mof_Al	Al	0.87515	0.80948	0.12389	4.766
Mof_Zn	Zn	0.08313	0.10676	0.16279	1.272
Mof_Al	Al	0.58313	0.60676	0.16279	5.743
Mof_Zn	Zn	0.24894	0.87388	0.08201	1.265
Mof_Al	Al	0.75106	0.87388	0.41799	4.364
Mof_P 	P 	0.37567	0.68606	0.12772	1.119
Mof_P 	P 	0.74608	0.61273	0.07913	1.275
Mof_P 	P 	0.90915	0.86754	0.32988	1.129
Mof_O 	O 	0.4721	0.6735	0.1133	-1.681
Mof_O 	O 	0.3609	0.8007	0.1364	-0.621
Mof_O 	O 	0.3762	0.628	0.2145	-1.75
Mof_O 	O 	0.8346	0.6805	0.1104	-1.446
Mof_O 	O 	0.8595	0.8696	0.2231	-1.426
Mof_O 	O 	0.6723	0.6525	0.1205	-1.764
Mof_O 	O 	0.7005	0.6137	0.9728	-1.542
Mof_O 	O 	0.8411	0.8238	0.3741	-1.317
Mof_O 	O 	0.2915	0.6426	0.0457	-0.612
Mof_O 	O 	0.7788	0.506	0.1127	-0.678
Mof_O 	O 	0.9376	0.9758	0.3635	-0.762
Mof_O 	O 	0.9998	0.7989	0.3599	-1.495
Mof_Al	Al	0.37515	0.30948	0.12389	5.106
Mof_Zn	Zn	0.74894	0.37388	0.08201	1.259
Mof_Al	Al	0.25106	0.37388	0.41799	4.523
Mof_P 	P 	0.87567	0.18606	0.12772	0.61
Mof_P 	P 	0.24608	0.11273	0.07913	1.047
Mof_P 	P 	0.40915	0.36754	0.32988	1.427
Mof_O 	O 	0.9721	0.1735	0.1133	-0.541
Mof_O 	O 	0.8609	0.3007	0.1364	-0.495
Mof_O 	O 	0.8762	0.128	0.2145	-0.539
Mof_O 	O 	0.3346	0.1805	0.1104	-1.488
Mof_O 	O 	0.3595	0.3696	0.2231	-1.617
Mof_O 	O 	0.1723	0.1525	0.1205	-0.69
Mof_O 	O 	0.2005	0.1137	0.9728	-1.393
Mof_O 	O 	0.3411	0.3238	0.3741	-1.419
Mof_O 	O 	0.7915	0.1426	0.0457	-0.509
Mof_O 	O 	0.2788	0.006	0.1127	-0.583
Mof_O 	O 	0.4376	0.4758	0.3635	-1.946
Mof_O 	O 	0.4998	0.2989	0.3599	-1.656
Mof_Al	Al	0.12485	0.80948	0.37611	4.927
Mof_Zn	Zn	0.91687	0.10676	0.33721	1.265
Mof_Al	Al	0.41687	0.60676	0.33721	5.888
Mof_P 	P 	0.62433	0.68606	0.37228	1.409
Mof_P 	P 	0.25392	0.61273	0.42087	1.477
Mof_P 	P 	0.09085	0.86754	0.17012	0.97
Mof_O 	O 	0.5279	0.6735	0.3867	-1.81
Mof_O 	O 	0.6391	0.8007	0.3636	-1.353
Mof_O 	O 	0.6238	0.628	0.2855	-1.774
Mof_O 	O 	0.1654	0.6805	0.3896	-1.516
Mof_O 	O 	0.1405	0.8696	0.2769	-1.42
Mof_O 	O 	0.3277	0.6525	0.3795	-1.851
Mof_O 	O 	0.2995	0.6137	0.5272	-1.662
Mof_O 	O 	0.1589	0.8238	0.1259	-0.576
Mof_O 	O 	0.7085	0.6426	0.4543	-1.445
Mof_O 	O 	0.2212	0.506	0.3873	-1.456
Mof_O 	O 	0.0624	0.9758	0.1365	-0.659
Mof_O 	O 	0.0002	0.7989	0.1401	-1.419
Mof_Al	Al	0.62485	0.30948	0.37611	5.237
Mof_P 	P 	0.12433	0.18606	0.37228	0.899
Mof_P 	P 	0.75392	0.11273	0.42087	1.228
Mof_P 	P 	0.59085	0.36754	0.17012	1.254
Mof_O 	O 	0.0279	0.1735	0.3867	-0.634
Mof_O 	O 	0.1391	0.3007	0.3636	-1.261
Mof_O 	O 	0.1238	0.128	0.2855	-0.598
Mof_O 	O 	0.6654	0.1805	0.3896	-1.552
Mof_O 	O 	0.6405	0.3696	0.2769	-1.603
Mof_O 	O 	0.8277	0.1525	0.3795	-0.738
Mof_O 	O 	0.7995	0.1137	0.5272	-1.505
Mof_O 	O 	0.6589	0.3238	0.1259	-0.637
Mof_O 	O 	0.2085	0.1426	0.4543	-1.31
Mof_O 	O 	0.7212	0.006	0.3873	-1.319
Mof_O 	O 	0.5624	0.4758	0.1365	-1.807
Mof_O 	O 	0.5002	0.2989	0.1401	-1.586
Mof_Al	Al	0.12485	0.19052	0.87611	4.767
Mof_Zn	Zn	0.91687	0.89324	0.83721	1.273
Mof_Al	Al	0.41687	0.39324	0.83721	5.744
Mof_Zn	Zn	0.75106	0.12612	0.91799	1.266
Mof_Al	Al	0.24894	0.12612	0.58201	4.364
Mof_P 	P 	0.62433	0.31394	0.87228	1.119
Mof_P 	P 	0.25392	0.38727	0.92087	1.275
Mof_P 	P 	0.09085	0.13246	0.67012	1.129
Mof_O 	O 	0.5279	0.3265	0.8867	-1.681
Mof_O 	O 	0.6391	0.1993	0.8636	-0.621
Mof_O 	O 	0.6238	0.372	0.7855	-1.75
Mof_O 	O 	0.1654	0.3195	0.8896	-1.446
Mof_O 	O 	0.1405	0.1304	0.7769	-1.426
Mof_O 	O 	0.3277	0.3475	0.8795	-1.764
Mof_O 	O 	0.2995	0.3863	0.0272	-1.542
Mof_O 	O 	0.1589	0.1762	0.6259	-1.317
Mof_O 	O 	0.7085	0.3574	0.9543	-0.612
Mof_O 	O 	0.2212	0.494	0.8873	-0.678
Mof_O 	O 	0.0624	0.0242	0.6365	-0.762
Mof_O 	O 	0.0002	0.2011	0.6401	-1.495
Mof_Al	Al	0.62485	0.69052	0.87611	5.106
Mof_Zn	Zn	0.25106	0.62612	0.91799	1.259
Mof_Al	Al	0.74894	0.62612	0.58201	4.523
Mof_P 	P 	0.12433	0.81394	0.87228	0.61
Mof_P 	P 	0.75392	0.88727	0.92087	1.047
Mof_P 	P 	0.59085	0.63246	0.67012	1.427
Mof_O 	O 	0.0279	0.8265	0.8867	-0.541
Mof_O 	O 	0.1391	0.6993	0.8636	-0.495
Mof_O 	O 	0.1238	0.872	0.7855	-0.539
Mof_O 	O 	0.6654	0.8195	0.8896	-1.488
Mof_O 	O 	0.6405	0.6304	0.7769	-1.617
Mof_O 	O 	0.8277	0.8475	0.8795	-0.69
Mof_O 	O 	0.7995	0.8863	0.0272	-1.393
Mof_O 	O 	0.6589	0.6762	0.6259	-1.419
Mof_O 	O 	0.2085	0.8574	0.9543	-0.509
Mof_O 	O 	0.7212	0.994	0.8873	-0.583
Mof_O 	O 	0.5624	0.5242	0.6365	-1.946
Mof_O 	O 	0.5002	0.7011	0.6401	-1.656
Mof_Al	Al	0.87515	0.19052	0.62389	4.927
Mof_Zn	Zn	0.08313	0.89324	0.66279	1.265
Mof_Al	Al	0.58313	0.39324	0.66279	5.888
Mof_P 	P 	0.37567	0.31394	0.62772	1.409
Mof_P 	P 	0.74608	0.38727	0.57913	1.477
Mof_P 	P 	0.90915	0.13246	0.82988	0.97
Mof_O 	O 	0.4721	0.3265	0.6133	-1.81
Mof_O 	O 	0.3609	0.1993	0.6364	-1.353
Mof_O 	O 	0.3762	0.372	0.7145	-1.774
Mof_O 	O 	0.8346	0.3195	0.6104	-1.516
Mof_O 	O 	0.8595	0.1304	0.7231	-1.42
Mof_O 	O 	0.6723	0.3475	0.6205	-1.851
Mof_O 	O 	0.7005	0.3863	0.4728	-1.662
Mof_O 	O 	0.8411	0.1762	0.8741	-0.576
Mof_O 	O 	0.2915	0.3574	0.5457	-1.445
Mof_O 	O 	0.7788	0.494	0.6127	-1.456
Mof_O 	O 	0.9376	0.0242	0.8635	-0.659
Mof_O 	O 	0.9998	0.2011	0.8599	-1.419
Mof_Al	Al	0.37515	0.69052	0.62389	5.237
Mof_P 	P 	0.87567	0.81394	0.62772	0.899
Mof_P 	P 	0.24608	0.88727	0.57913	1.228
Mof_P 	P 	0.40915	0.63246	0.82988	1.254
Mof_O 	O 	0.9721	0.8265	0.6133	-0.634
Mof_O 	O 	0.8609	0.6993	0.6364	-1.261
Mof_O 	O 	0.8762	0.872	0.7145	-0.598
Mof_O 	O 	0.3346	0.8195	0.6104	-1.552
Mof_O 	O 	0.3595	0.6304	0.7231	-1.603
Mof_O 	O 	0.1723	0.8475	0.6205	-0.738
Mof_O 	O 	0.2005	0.8863	0.4728	-1.505
Mof_O 	O 	0.3411	0.6762	0.8741	-0.637
Mof_O 	O 	0.7915	0.8574	0.5457	-1.31
Mof_O 	O 	0.2788	0.994	0.6127	-1.319
Mof_O 	O 	0.4376	0.5242	0.8635	-1.807
Mof_O 	O 	0.4998	0.7011	0.8599	-1.586
_end
