data_functionalizedCrystal
_audit_creation_method	'EQeq! by Chris Wilmer'
_symmetry_space_group_name_H-M	'P1'
_symmetry_Int_Tables_number	1
_symmetry_cell_setting	triclinic
loop_
_symmetry_equiv_pos_as_xyz
  x,y,z
_cell_length_a	14.615
_cell_length_b	16.585
_cell_length_c	20.559
_cell_angle_alpha	99.33
_cell_angle_beta	107.46
_cell_angle_gamma	100.74
loop_
_atom_site_label
_atom_site_type_symbol
_atom_site_fract_x
_atom_site_fract_y
_atom_site_fract_z
_atom_site_charge
Mof_Mn	Mn	0.06038	0.22073	0.23775	0.969
Mof_Mn	Mn	0.14861	0.06266	0.18266	0.852
Mof_Mn	Mn	0.00992	0.39337	0.3437	0.774
Mof_O 	O 	0.9841	0.2464	0.3106	-0.398
Mof_O 	O 	0.9485	0.1037	0.1787	-0.392
Mof_O 	O 	0.2399	0.0388	0.126	-0.392
Mof_O 	O 	0.1456	0.137	0.28454	-0.428
Mof_O 	O 	0.9221	0.8668	0.9611	-0.38
Mof_O 	O 	0.9841	0.2921	0.177	-0.386
Mof_O 	O 	0.1299	0.9554	0.0262	-0.382
Mof_O 	O 	0.8694	0.8187	0.8468	-0.437
Mof_O 	O 	0.8365	0.5948	0.6256	-0.378
Mof_O 	O 	0.9939	0.0115	0.11237	-0.423
Mof_O 	O 	0.8076	0.6792	0.7085	-0.386
Mof_O 	O 	0.9951	0.3087	0.4163	-0.327
Mof_O 	O 	0.2908	0.1298	0.2789	-0.32
Mof_O 	O 	0.5951	0.0762	0.152	-0.187
Mof_C 	C 	0.6267	0.8931	0.0449	-0.005
Mof_O 	O 	0.5022	0.7756	0.9721	-0.17
Mof_C 	C 	0.3811	0.2562	0.408	0.019
Mof_H 	H 	0.4221	0.2478	0.3807	0.059
Mof_C 	C 	0.2978	0.9514	0.0531	-0.081
Mof_C 	C 	0.8247	0.9858	0.1039	-0.076
Mof_C 	C 	0.6514	0.9723	0.0929	0.003
Mof_C 	C 	0.4194	0.3144	0.4727	-0.042
Mof_C 	C 	0.9837	0.2425	0.3727	0.316
Mof_O 	O 	0.0073	0.4215	0.2443	-0.393
Mof_C 	C 	0.6817	0.5573	0.639	-0.119
Mof_C 	C 	0.3943	0.9935	0.0883	0.017
Mof_H 	H 	0.4102	0.0452	0.1219	0.054
Mof_C 	C 	0.9729	0.1588	0.3909	-0.032
Mof_C 	C 	0.8882	0.8086	0.9085	0.43
Mof_C 	C 	0.8014	0.9088	0.0608	0.007
Mof_H 	H 	0.8516	0.8862	0.05	0.045
Mof_C 	C 	0.9298	0.0401	0.1354	0.386
Mof_C 	C 	0.471	0.9601	0.0746	-0.013
Mof_C 	C 	0.7492	0.018	0.1211	-0.034
Mof_H 	H 	0.7662	0.0715	0.1525	0.07
Mof_C 	C 	0.555	0.4363	0.5598	-0.056
Mof_C 	C 	0.2172	0.985	0.0691	0.38
Mof_C 	C 	0.5743	0.0088	0.1093	0.111
Mof_C 	C 	0.444	0.8825	0.0278	-0.019
Mof_C 	C 	0.3476	0.8387	0.9931	-0.004
Mof_H 	H 	0.3312	0.7855	0.9613	0.061
Mof_C 	C 	0.7015	0.8623	0.032	-0.052
Mof_H 	H 	0.6857	0.8076	0.0025	0.071
Mof_C 	C 	0.5249	0.8453	0.0143	0.114
Mof_O 	O 	0.5755	0.3537	0.4632	-0.2
Mof_C 	C 	0.2822	0.2102	0.3837	-0.109
Mof_C 	C 	0.6501	0.4891	0.5796	0.028
Mof_H 	H 	0.6926	0.4795	0.5536	0.052
Mof_C 	C 	0.7823	0.6142	0.6599	0.39
Mof_C 	C 	0.9002	0.7007	0.9805	0.059
Mof_H 	H 	0.9366	0.7438	0.0216	0.033
Mof_C 	C 	0.9086	0.503	0.055	-0.046
Mof_C 	C 	0.2735	0.8756	0.0064	-0.045
Mof_H 	H 	0.2058	0.8473	0.9824	0.071
Mof_C 	C 	0.2269	0.2207	0.4231	0.039
Mof_H 	H 	0.1597	0.1891	0.4052	0.026
Mof_C 	C 	0.3603	0.326	0.5133	0.019
Mof_C 	C 	0.2407	0.1562	0.3128	0.342
Mof_C 	C 	0.5232	0.3682	0.4981	0.157
Mof_C 	C 	0.943	0.3977	0.1208	-0.095
Mof_C 	C 	0.8121	0.6567	0.8586	0.058
Mof_H 	H 	0.7868	0.6709	0.8149	0.03
Mof_C 	C 	0.8655	0.7206	0.9166	-0.146
Mof_C 	C 	0.9445	0.0858	0.3385	-0.024
Mof_H 	H 	0.9274	0.0882	0.2906	0.056
Mof_C 	C 	0.8291	0.551	0.9255	0.033
Mof_C 	C 	0.9838	0.3687	0.1869	0.393
Mof_C 	C 	0.4975	0.445	0.6013	0.029
Mof_C 	C 	0.8803	0.6137	0.9838	-0.051
Mof_C 	C 	0.8955	0.3349	0.0577	0.009
Mof_H 	H 	0.8938	0.2773	0.0574	0.046
Mof_C 	C 	0.8583	0.4398	0.9946	0.026
Mof_C 	C 	0.7932	0.5725	0.8606	-0.093
Mof_H 	H 	0.7567	0.53	0.8191	0.086
Mof_C 	C 	0.0007	0.1559	0.4617	-0.094
Mof_H 	H 	0.0217	0.2067	0.497	0.086
Mof_C 	C 	0.397	0.3903	0.5799	0.106
Mof_C 	C 	0.9512	0.4808	0.1196	0.018
Mof_H 	H 	0.9849	0.5234	0.1615	0.061
Mof_O 	O 	0.347	0.3969	0.619	-0.183
Mof_C 	C 	0.6216	0.5661	0.6775	0.045
Mof_H 	H 	0.6437	0.6112	0.718	0.033
Mof_C 	C 	0.9682	0.0049	0.4271	-0.044
Mof_C 	C 	0.5297	0.512	0.6599	-0.084
Mof_H 	H 	0.4889	0.5203	0.6874	0.086
Mof_C 	C 	0.9164	0.5938	0.0524	0.147
Mof_C 	C 	0.9975	0.0798	0.4801	0.056
Mof_O 	O 	0.9559	0.6486	0.1076	-0.192
Mof_C 	C 	0.9418	0.0085	0.3578	-0.032
Mof_H 	H 	0.9213	0.9578	0.3225	0.071
Mof_C 	C 	0.2609	0.2763	0.4906	-0.078
Mof_H 	H 	0.2201	0.28	0.5187	0.081
Mof_O 	O 	0.9416	0.8569	0.399	-0.194
Mof_C 	C 	0.8525	0.3576	0.998	-0.058
Mof_H 	H 	0.8168	0.3147	0.9566	0.077
Mof_C 	C 	0.9669	0.9228	0.4463	0.169
Mof_O 	O 	0.7642	0.4059	0.8737	-0.179
Mof_C 	C 	0.8169	0.4611	0.9271	0.106
Mof_Mn	Mn	0.93962	0.77927	0.76225	1.012
Mof_Mn	Mn	0.85139	0.93734	0.81734	0.883
Mof_Mn	Mn	0.99008	0.60663	0.6563	0.809
Mof_O 	O 	0.0159	0.7536	0.6894	-0.423
Mof_O 	O 	0.0515	0.8963	0.8213	-0.421
Mof_O 	O 	0.7601	0.9612	0.874	-0.371
Mof_O 	O 	0.8544	0.863	0.71546	-0.424
Mof_O 	O 	0.0779	0.1332	0.0389	-0.401
Mof_O 	O 	0.0159	0.7079	0.823	-0.396
Mof_O 	O 	0.8701	0.0446	0.9738	-0.369
Mof_O 	O 	0.1306	0.1813	0.1532	-0.436
Mof_O 	O 	0.1635	0.4052	0.3744	-0.378
Mof_O 	O 	0.0061	0.9885	0.88763	-0.44
Mof_O 	O 	0.1924	0.3208	0.2915	-0.384
Mof_O 	O 	0.0049	0.6913	0.5837	-0.353
Mof_O 	O 	0.7092	0.8702	0.7211	-0.317
Mof_O 	O 	0.4049	0.9238	0.848	-0.206
Mof_C 	C 	0.3733	0.1069	0.9551	0.065
Mof_O 	O 	0.4978	0.2244	0.0279	-0.185
Mof_C 	C 	0.6189	0.7438	0.592	0.018
Mof_H 	H 	0.5779	0.7522	0.6193	0.061
Mof_C 	C 	0.7022	0.0486	0.9469	-0.131
Mof_C 	C 	0.1753	0.0142	0.8961	-0.195
Mof_C 	C 	0.3486	0.0277	0.9071	-0.122
Mof_C 	C 	0.5806	0.6856	0.5273	-0.041
Mof_C 	C 	0.0163	0.7575	0.6273	0.346
Mof_O 	O 	0.9927	0.5785	0.7557	-0.367
Mof_C 	C 	0.3183	0.4427	0.361	-0.118
Mof_C 	C 	0.6057	0.0065	0.9117	0.034
Mof_H 	H 	0.5898	0.9548	0.8781	0.065
Mof_C 	C 	0.0271	0.8412	0.6091	-0.12
Mof_C 	C 	0.1118	0.1914	0.0915	0.421
Mof_C 	C 	0.1986	0.0912	0.9392	0.091
Mof_H 	H 	0.1484	0.1138	0.95	0.017
Mof_C 	C 	0.0702	0.9599	0.8646	0.447
Mof_C 	C 	0.529	0.0399	0.9254	-0.092
Mof_C 	C 	0.2508	0.982	0.8789	0.113
Mof_H 	H 	0.2338	0.9285	0.8475	0.026
Mof_C 	C 	0.445	0.5637	0.4402	-0.056
Mof_C 	C 	0.7828	0.015	0.9309	0.367
Mof_C 	C 	0.4257	0.9912	0.8907	0.211
Mof_C 	C 	0.556	0.1175	0.9722	0.078
Mof_C 	C 	0.6524	0.1613	0.0069	-0.15
Mof_H 	H 	0.6688	0.2145	0.0387	0.103
Mof_C 	C 	0.2985	0.1377	0.968	-0.123
Mof_H 	H 	0.3143	0.1924	0.9975	0.102
Mof_C 	C 	0.4751	0.1547	0.9857	0.089
Mof_O 	O 	0.4245	0.6463	0.5368	-0.2
Mof_C 	C 	0.7178	0.7898	0.6163	-0.104
Mof_C 	C 	0.3499	0.5109	0.4204	0.028
Mof_H 	H 	0.3074	0.5205	0.4464	0.051
Mof_C 	C 	0.2177	0.3858	0.3401	0.388
Mof_C 	C 	0.0998	0.2993	0.0195	0.011
Mof_H 	H 	0.0634	0.2562	0.9784	0.059
Mof_C 	C 	0.0914	0.497	0.945	-0.034
Mof_C 	C 	0.7265	0.1244	0.9936	0.096
Mof_H 	H 	0.7942	0.1527	0.0176	0.009
Mof_C 	C 	0.7731	0.7793	0.5769	0.037
Mof_H 	H 	0.8403	0.8109	0.5948	0.033
Mof_C 	C 	0.6397	0.674	0.4867	0.019
Mof_C 	C 	0.7593	0.8438	0.6872	0.341
Mof_C 	C 	0.4768	0.6318	0.5019	0.157
Mof_C 	C 	0.057	0.6023	0.8792	-0.106
Mof_C 	C 	0.1879	0.3433	0.1414	0.045
Mof_H 	H 	0.2132	0.3291	0.1851	0.033
Mof_C 	C 	0.1345	0.2794	0.0834	-0.134
Mof_C 	C 	0.0555	0.9142	0.6615	0.025
Mof_H 	H 	0.0726	0.9118	0.7094	0.041
Mof_C 	C 	0.1709	0.449	0.0745	0.027
Mof_C 	C 	0.0162	0.6313	0.8131	0.366
Mof_C 	C 	0.5025	0.555	0.3987	0.03
Mof_C 	C 	0.1197	0.3863	0.0162	-0.065
Mof_C 	C 	0.1045	0.6651	0.9423	0.052
Mof_H 	H 	0.1062	0.7227	0.9426	0.031
Mof_C 	C 	0.1417	0.5602	0.0054	0.013
Mof_C 	C 	0.2068	0.4275	0.1394	-0.09
Mof_H 	H 	0.2433	0.47	0.1809	0.083
Mof_C 	C 	0.9993	0.8441	0.5383	0.051
Mof_H 	H 	0.9783	0.7933	0.503	0.048
Mof_C 	C 	0.603	0.6097	0.4201	0.107
Mof_C 	C 	0.0488	0.5192	0.8804	0.018
Mof_H 	H 	0.0151	0.4766	0.8385	0.053
Mof_O 	O 	0.653	0.6031	0.381	-0.18
Mof_C 	C 	0.3784	0.4339	0.3225	0.044
Mof_H 	H 	0.3563	0.3888	0.282	0.033
Mof_C 	C 	0.0318	0.9951	0.5729	0.048
Mof_C 	C 	0.4703	0.488	0.3401	-0.084
Mof_H 	H 	0.5111	0.4797	0.3126	0.086
Mof_C 	C 	0.0836	0.4062	0.9476	0.163
Mof_C 	C 	0.0025	0.9202	0.5199	-0.079
Mof_O 	O 	0.0441	0.3514	0.8924	-0.203
Mof_C 	C 	0.0582	0.9915	0.6422	-0.06
Mof_H 	H 	0.0787	0.0422	0.6775	0.06
Mof_C 	C 	0.7391	0.7237	0.5094	-0.074
Mof_H 	H 	0.7799	0.72	0.4813	0.084
Mof_O 	O 	0.0584	0.1431	0.601	-0.178
Mof_C 	C 	0.1475	0.6424	0.002	-0.105
Mof_H 	H 	0.1832	0.6853	0.0434	0.085
Mof_C 	C 	0.0331	0.0772	0.5537	0.059
Mof_O 	O 	0.2358	0.5941	0.1263	-0.182
Mof_C 	C 	0.1831	0.5389	0.0729	0.102
Mof_Mn	Mn	-0	0	-0	0.92
_end
