data_functionalizedCrystal
_audit_creation_method	'EQeq! by Chris Wilmer'
_symmetry_space_group_name_H-M	'P1'
_symmetry_Int_Tables_number	1
_symmetry_cell_setting	triclinic
loop_
_symmetry_equiv_pos_as_xyz
  x,y,z
_cell_length_a	11.9887
_cell_length_b	18.6365
_cell_length_c	17.9807
_cell_angle_alpha	90
_cell_angle_beta	90
_cell_angle_gamma	90
loop_
_atom_site_label
_atom_site_type_symbol
_atom_site_fract_x
_atom_site_fract_y
_atom_site_fract_z
_atom_site_charge
Mof_Zn	Zn	0.61039	0.99103	0.69758	1.207
Mof_H 	H 	0.126	0.2073	0.2433	0.103
Mof_H 	H 	0.4495	0.0774	0.5103	0.015
Mof_H 	H 	0.1166	0.7646	0.3296	0.002
Mof_H 	H 	0.3509	0.1384	0.4203	0.093
Mof_H 	H 	0.1139	0.6415	0.3307	0.092
Mof_H 	H 	0.1453	0.4099	0.3038	0.094
Mof_H 	H 	0.1035	0.1736	0.5651	0.095
Mof_H 	H 	0.2042	0.1153	0.6552	0
Mof_H 	H 	0.2097	0.1431	0.337	0.001
Mof_H 	H 	0.1419	0.5324	0.3055	0.005
Mof_H 	H 	0.9914	0.3391	0.3936	0.109
Mof_H 	H 	0.0745	0.2738	0.4885	0.008
Mof_C 	C 	0.4015	0.0524	0.6507	0.437
Mof_C 	C 	0.3373	0.09	0.5923	-0.18
Mof_C 	C 	0.1163	0.2214	0.2925	-0.185
Mof_C 	C 	0.0519	0.2804	0.3085	0.162
Mof_C 	C 	0.3803	0.0971	0.5217	0.105
Mof_C 	C 	0.0691	0.7401	0.2975	0.106
Mof_C 	C 	0.3205	0.1336	0.4676	-0.189
Mof_C 	C 	0.2164	0.1633	0.4823	0.13
Mof_C 	C 	0.155	0.2022	0.4233	-0.094
Mof_C 	C 	0.0679	0.6659	0.2977	-0.182
Mof_C 	C 	0.0858	0.4341	0.2821	-0.178
Mof_C 	C 	0.1734	0.155	0.5537	-0.184
Mof_C 	C 	0.2337	0.1196	0.6075	0.114
Mof_C 	C 	0.1667	0.183	0.349	0.056
Mof_C 	C 	0.0838	0.5079	0.2824	0.058
Mof_C 	C 	0.036	0.2998	0.3821	-0.195
Mof_C 	C 	0.0866	0.2607	0.4392	0.057
Mof_O 	O 	0.4948	0.02658	0.63231	-0.488
Mof_O 	O 	0.0777	0.8895	0.28368	-0.528
Mof_O 	O 	0.3598	0.049	0.71458	-0.512
Mof_H 	H 	0.25	-1.25672e-32	0.90882	0.197
Mof_Zn	Zn	0.88961	0.00897	0.69758	1.245
Mof_H 	H 	0.374	0.7927	0.2433	0.103
Mof_H 	H 	0.0505	0.9226	0.5103	-0.011
Mof_H 	H 	0.3834	0.2354	0.3296	0.003
Mof_H 	H 	0.1491	0.8616	0.4203	0.093
Mof_H 	H 	0.3861	0.3585	0.3307	0.092
Mof_H 	H 	0.3547	0.5901	0.3038	0.095
Mof_H 	H 	0.3965	0.8264	0.5651	0.1
Mof_H 	H 	0.2958	0.8847	0.6552	-0.013
Mof_H 	H 	0.2903	0.8569	0.337	-0.006
Mof_H 	H 	0.3581	0.4676	0.3055	0.005
Mof_H 	H 	0.5086	0.6609	0.3936	0.094
Mof_H 	H 	0.4255	0.7262	0.4885	0.013
Mof_C 	C 	0.0985	0.9476	0.6507	0.446
Mof_C 	C 	0.1627	0.91	0.5923	-0.211
Mof_C 	C 	0.3837	0.7786	0.2925	-0.183
Mof_C 	C 	0.4481	0.7196	0.3085	0.157
Mof_C 	C 	0.1197	0.9029	0.5217	0.116
Mof_C 	C 	0.4309	0.2599	0.2975	0.105
Mof_C 	C 	0.1795	0.8664	0.4676	-0.212
Mof_C 	C 	0.2836	0.8367	0.4823	0.136
Mof_C 	C 	0.345	0.7978	0.4233	-0.095
Mof_C 	C 	0.4321	0.3341	0.2977	-0.181
Mof_C 	C 	0.4142	0.5659	0.2821	-0.181
Mof_C 	C 	0.3266	0.845	0.5537	-0.202
Mof_C 	C 	0.2663	0.8804	0.6075	0.123
Mof_C 	C 	0.3333	0.817	0.349	0.057
Mof_C 	C 	0.4162	0.4921	0.2824	0.06
Mof_C 	C 	0.464	0.7002	0.3821	-0.172
Mof_C 	C 	0.4134	0.7393	0.4392	0.049
Mof_O 	O 	0.0052	0.97342	0.63231	-0.546
Mof_O 	O 	0.4223	0.1105	0.28368	-0.508
Mof_O 	O 	0.1402	0.951	0.71458	-0.557
Mof_Zn	Zn	0.38961	0.99103	0.80242	1.207
Mof_H 	H 	0.874	0.2073	0.2567	0.1
Mof_H 	H 	0.5505	0.0774	0.9897	0.016
Mof_H 	H 	0.8834	0.7646	0.1704	0.001
Mof_H 	H 	0.6491	0.1384	0.0797	0.091
Mof_H 	H 	0.8861	0.6415	0.1693	0.092
Mof_H 	H 	0.8547	0.4099	0.1962	0.093
Mof_H 	H 	0.8965	0.1736	0.9349	0.097
Mof_H 	H 	0.7958	0.1153	0.8448	0.003
Mof_H 	H 	0.7903	0.1431	0.163	0.007
Mof_H 	H 	0.8581	0.5324	0.1945	0.004
Mof_H 	H 	0.0086	0.3391	0.1064	0.078
Mof_H 	H 	0.9255	0.2738	0.0115	0.022
Mof_C 	C 	0.5985	0.0524	0.8493	0.436
Mof_C 	C 	0.6627	0.09	0.9077	-0.177
Mof_C 	C 	0.8837	0.2214	0.2075	-0.17
Mof_C 	C 	0.9481	0.2804	0.1915	0.151
Mof_C 	C 	0.6197	0.0971	0.9783	0.101
Mof_C 	C 	0.9309	0.7401	0.2025	0.115
Mof_C 	C 	0.6795	0.1336	0.0324	-0.184
Mof_C 	C 	0.7836	0.1633	0.0177	0.122
Mof_C 	C 	0.845	0.2022	0.0767	-0.076
Mof_C 	C 	0.9321	0.6659	0.2023	-0.173
Mof_C 	C 	0.9142	0.4341	0.2179	-0.169
Mof_C 	C 	0.8266	0.155	0.9463	-0.177
Mof_C 	C 	0.7663	0.1196	0.8925	0.111
Mof_C 	C 	0.8333	0.183	0.151	0.043
Mof_C 	C 	0.9162	0.5079	0.2176	0.066
Mof_C 	C 	0.964	0.2998	0.1179	-0.144
Mof_C 	C 	0.9134	0.2607	0.0608	0.029
Mof_O 	O 	0.5052	0.02658	0.86769	-0.488
Mof_O 	O 	0.9223	0.8895	0.21632	-0.52
Mof_O 	O 	0.6402	0.049	0.78542	-0.512
Mof_H 	H 	0.75	0	0.59118	0.198
Mof_Zn	Zn	0.11039	0.00897	0.80242	1.242
Mof_H 	H 	0.626	0.7927	0.2567	0.103
Mof_H 	H 	0.9495	0.9226	0.9897	-0.004
Mof_H 	H 	0.6166	0.2354	0.1704	0.003
Mof_H 	H 	0.8509	0.8616	0.0797	0.094
Mof_H 	H 	0.6139	0.3585	0.1693	0.093
Mof_H 	H 	0.6453	0.5901	0.1962	0.096
Mof_H 	H 	0.6035	0.8264	0.9349	0.099
Mof_H 	H 	0.7042	0.8847	0.8448	-0.012
Mof_H 	H 	0.7097	0.8569	0.163	-0.005
Mof_H 	H 	0.6419	0.4676	0.1945	0.005
Mof_H 	H 	0.4914	0.6609	0.1064	0.094
Mof_H 	H 	0.5745	0.7262	0.0115	0.014
Mof_C 	C 	0.9015	0.9476	0.8493	0.445
Mof_C 	C 	0.8373	0.91	0.9077	-0.206
Mof_C 	C 	0.6163	0.7786	0.2075	-0.182
Mof_C 	C 	0.5519	0.7196	0.1915	0.157
Mof_C 	C 	0.8803	0.9029	0.9783	0.115
Mof_C 	C 	0.5691	0.2599	0.2025	0.105
Mof_C 	C 	0.8205	0.8664	0.0324	-0.208
Mof_C 	C 	0.7164	0.8367	0.0177	0.135
Mof_C 	C 	0.655	0.7978	0.0767	-0.094
Mof_C 	C 	0.5679	0.3341	0.2023	-0.181
Mof_C 	C 	0.5858	0.5659	0.2179	-0.181
Mof_C 	C 	0.6734	0.845	0.9463	-0.199
Mof_C 	C 	0.7337	0.8804	0.8925	0.121
Mof_C 	C 	0.6667	0.817	0.151	0.057
Mof_C 	C 	0.5838	0.4921	0.2176	0.06
Mof_C 	C 	0.536	0.7002	0.1179	-0.171
Mof_C 	C 	0.5866	0.7393	0.0608	0.048
Mof_O 	O 	0.9948	0.97342	0.86769	-0.534
Mof_O 	O 	0.5777	0.1105	0.21632	-0.508
Mof_O 	O 	0.8598	0.951	0.78542	-0.553
Mof_Zn	Zn	0.38961	0.00897	0.30242	1.244
Mof_H 	H 	0.874	0.7927	0.7567	0.103
Mof_H 	H 	0.5505	0.9226	0.4897	-0.007
Mof_H 	H 	0.8834	0.2354	0.6704	0.002
Mof_H 	H 	0.6491	0.8616	0.5797	0.092
Mof_H 	H 	0.8861	0.3585	0.6693	0.091
Mof_H 	H 	0.8547	0.5901	0.6962	0.093
Mof_H 	H 	0.8965	0.8264	0.4349	0.101
Mof_H 	H 	0.7958	0.8847	0.3448	-0.011
Mof_H 	H 	0.7903	0.8569	0.663	-0.004
Mof_H 	H 	0.8581	0.4676	0.6945	0.004
Mof_H 	H 	0.0086	0.6609	0.6064	0.079
Mof_H 	H 	0.9255	0.7262	0.5115	0.02
Mof_C 	C 	0.5985	0.9476	0.3493	0.445
Mof_C 	C 	0.6627	0.91	0.4077	-0.208
Mof_C 	C 	0.8837	0.7786	0.7075	-0.177
Mof_C 	C 	0.9481	0.7196	0.6915	0.155
Mof_C 	C 	0.6197	0.9029	0.4783	0.114
Mof_C 	C 	0.9309	0.2599	0.7025	0.113
Mof_C 	C 	0.6795	0.8664	0.5324	-0.207
Mof_C 	C 	0.7836	0.8367	0.5177	0.133
Mof_C 	C 	0.845	0.7978	0.5767	-0.087
Mof_C 	C 	0.9321	0.3341	0.7023	-0.171
Mof_C 	C 	0.9142	0.5659	0.7179	-0.169
Mof_C 	C 	0.8266	0.845	0.4463	-0.198
Mof_C 	C 	0.7663	0.8804	0.3925	0.121
Mof_C 	C 	0.8333	0.817	0.651	0.052
Mof_C 	C 	0.9162	0.4921	0.7176	0.067
Mof_C 	C 	0.964	0.7002	0.6179	-0.148
Mof_C 	C 	0.9134	0.7393	0.5608	0.036
Mof_O 	O 	0.5052	0.97342	0.36769	-0.54
Mof_O 	O 	0.9223	0.1105	0.71632	-0.499
Mof_O 	O 	0.6402	0.951	0.28542	-0.555
Mof_H 	H 	0.75	-7.85448e-34	0.09118	0.198
Mof_Zn	Zn	0.11039	0.99103	0.30242	1.205
Mof_H 	H 	0.626	0.2073	0.7567	0.1
Mof_H 	H 	0.9495	0.0774	0.4897	0.019
Mof_H 	H 	0.6166	0.7646	0.6704	0.002
Mof_H 	H 	0.8509	0.1384	0.5797	0.093
Mof_H 	H 	0.6139	0.6415	0.6693	0.093
Mof_H 	H 	0.6453	0.4099	0.6962	0.096
Mof_H 	H 	0.6035	0.1736	0.4349	0.096
Mof_H 	H 	0.7042	0.1153	0.3448	0.002
Mof_H 	H 	0.7097	0.1431	0.663	0.005
Mof_H 	H 	0.6419	0.5324	0.6945	0.005
Mof_H 	H 	0.4914	0.3391	0.6064	0.092
Mof_H 	H 	0.5745	0.2738	0.5115	0.016
Mof_C 	C 	0.9015	0.0524	0.3493	0.436
Mof_C 	C 	0.8373	0.09	0.4077	-0.176
Mof_C 	C 	0.6163	0.2214	0.7075	-0.174
Mof_C 	C 	0.5519	0.2804	0.6915	0.152
Mof_C 	C 	0.8803	0.0971	0.4783	0.102
Mof_C 	C 	0.5691	0.7401	0.7025	0.107
Mof_C 	C 	0.8205	0.1336	0.5324	-0.184
Mof_C 	C 	0.7164	0.1633	0.5177	0.125
Mof_C 	C 	0.655	0.2022	0.5767	-0.083
Mof_C 	C 	0.5679	0.6659	0.7023	-0.182
Mof_C 	C 	0.5858	0.4341	0.7179	-0.181
Mof_C 	C 	0.6734	0.155	0.4463	-0.179
Mof_C 	C 	0.7337	0.1196	0.3925	0.111
Mof_C 	C 	0.6667	0.183	0.651	0.047
Mof_C 	C 	0.5838	0.5079	0.7176	0.06
Mof_C 	C 	0.536	0.2998	0.6179	-0.166
Mof_C 	C 	0.5866	0.2607	0.5608	0.04
Mof_O 	O 	0.9948	0.02658	0.36769	-0.483
Mof_O 	O 	0.5777	0.8895	0.71632	-0.529
Mof_O 	O 	0.8598	0.049	0.28542	-0.511
Mof_Zn	Zn	0.61039	0.00897	0.19758	1.244
Mof_H 	H 	0.126	0.7927	0.7433	0.105
Mof_H 	H 	0.4495	0.9226	0.0103	-0.008
Mof_H 	H 	0.1166	0.2354	0.8296	0.003
Mof_H 	H 	0.3509	0.8616	0.9203	0.095
Mof_H 	H 	0.1139	0.3585	0.8307	0.091
Mof_H 	H 	0.1453	0.5901	0.8038	0.094
Mof_H 	H 	0.1035	0.8264	0.0651	0.099
Mof_H 	H 	0.2042	0.8847	0.1552	-0.013
Mof_H 	H 	0.2097	0.8569	0.837	-0.009
Mof_H 	H 	0.1419	0.4676	0.8055	0.005
Mof_H 	H 	0.9914	0.6609	0.8936	0.112
Mof_H 	H 	0.0745	0.7262	0.9885	0.005
Mof_C 	C 	0.4015	0.9476	0.1507	0.446
Mof_C 	C 	0.3373	0.91	0.0923	-0.21
Mof_C 	C 	0.1163	0.7786	0.7925	-0.193
Mof_C 	C 	0.0519	0.7196	0.8085	0.167
Mof_C 	C 	0.3803	0.9029	0.0217	0.118
Mof_C 	C 	0.0691	0.2599	0.7975	0.104
Mof_C 	C 	0.3205	0.8664	0.9676	-0.213
Mof_C 	C 	0.2164	0.8367	0.9823	0.139
Mof_C 	C 	0.155	0.7978	0.9233	-0.105
Mof_C 	C 	0.0679	0.3341	0.7977	-0.18
Mof_C 	C 	0.0858	0.5659	0.7821	-0.178
Mof_C 	C 	0.1734	0.845	0.0537	-0.204
Mof_C 	C 	0.2337	0.8804	0.1075	0.123
Mof_C 	C 	0.1667	0.817	0.849	0.066
Mof_C 	C 	0.0838	0.4921	0.7824	0.058
Mof_C 	C 	0.036	0.7002	0.8821	-0.202
Mof_C 	C 	0.0866	0.7393	0.9392	0.065
Mof_O 	O 	0.4948	0.97342	0.13231	-0.54
Mof_O 	O 	0.0777	0.1105	0.78368	-0.507
Mof_O 	O 	0.3598	0.951	0.21458	-0.555
Mof_H 	H 	0.25	0	0.40882	0.197
Mof_Zn	Zn	0.88961	0.99103	0.19758	1.208
Mof_H 	H 	0.374	0.2073	0.7433	0.1
Mof_H 	H 	0.0505	0.0774	0.0103	0.012
Mof_H 	H 	0.3834	0.7646	0.8296	0.002
Mof_H 	H 	0.1491	0.1384	0.9203	0.092
Mof_H 	H 	0.3861	0.6415	0.8307	0.093
Mof_H 	H 	0.3547	0.4099	0.8038	0.095
Mof_H 	H 	0.3965	0.1736	0.0651	0.096
Mof_H 	H 	0.2958	0.1153	0.1552	0.001
Mof_H 	H 	0.2903	0.1431	0.837	0.005
Mof_H 	H 	0.3581	0.5324	0.8055	0.005
Mof_H 	H 	0.5086	0.3391	0.8936	0.092
Mof_H 	H 	0.4255	0.2738	0.9885	0.015
Mof_C 	C 	0.0985	0.0524	0.1507	0.437
Mof_C 	C 	0.1627	0.09	0.0923	-0.181
Mof_C 	C 	0.3837	0.2214	0.7925	-0.175
Mof_C 	C 	0.4481	0.2804	0.8085	0.152
Mof_C 	C 	0.1197	0.0971	0.0217	0.105
Mof_C 	C 	0.4309	0.7401	0.7975	0.107
Mof_C 	C 	0.1795	0.1336	0.9676	-0.189
Mof_C 	C 	0.2836	0.1633	0.9823	0.126
Mof_C 	C 	0.345	0.2022	0.9233	-0.084
Mof_C 	C 	0.4321	0.6659	0.7977	-0.182
Mof_C 	C 	0.4142	0.4341	0.7821	-0.181
Mof_C 	C 	0.3266	0.155	0.0537	-0.182
Mof_C 	C 	0.2663	0.1196	0.1075	0.114
Mof_C 	C 	0.3333	0.183	0.849	0.048
Mof_C 	C 	0.4162	0.5079	0.7824	0.06
Mof_C 	C 	0.464	0.2998	0.8821	-0.167
Mof_C 	C 	0.4134	0.2607	0.9392	0.041
Mof_O 	O 	0.0052	0.02658	0.13231	-0.494
Mof_O 	O 	0.4223	0.8895	0.78368	-0.529
Mof_O 	O 	0.1402	0.049	0.21458	-0.514
Mof_C 	C 	7.68942e-33	0.3958	0.25	0.148
Mof_C 	C 	-1.11613e-32	0.6268	0.25	0.121
Mof_C 	C 	1.40584e-33	0.8587	0.25	0.433
Mof_C 	C 	1.3973e-32	0.5471	0.25	-0.103
Mof_C 	C 	1.3973e-32	0.7782	0.25	-0.193
Mof_N 	N 	1.40584e-33	0.3196	0.25	-0.187
Mof_C 	C 	0.5	0.6042	0.25	0.16
Mof_C 	C 	0.5	0.3732	0.25	0.128
Mof_C 	C 	0.5	0.1413	0.25	0.439
Mof_C 	C 	0.5	0.4529	0.25	-0.096
Mof_C 	C 	0.5	0.2218	0.25	-0.182
Mof_N 	N 	0.5	0.6804	0.25	-0.185
Mof_C 	C 	1.67847e-32	0.6042	0.75	0.148
Mof_C 	C 	4.21752e-33	0.3732	0.75	0.119
Mof_C 	C 	1.67847e-32	0.1413	0.75	0.429
Mof_C 	C 	2.93519e-32	0.4529	0.75	-0.103
Mof_C 	C 	4.21752e-33	0.2218	0.75	-0.191
Mof_N 	N 	1.67847e-32	0.6804	0.75	-0.188
Mof_C 	C 	0.5	0.3958	0.75	0.16
Mof_C 	C 	0.5	0.6268	0.75	0.129
Mof_C 	C 	0.5	0.8587	0.75	0.442
Mof_C 	C 	0.5	0.5471	0.75	-0.096
Mof_C 	C 	0.5	0.7782	0.75	-0.186
Mof_N 	N 	0.5	0.3196	0.75	-0.183
Mof_O 	O 	0.75	-6.28358e-33	0.6468	-0.633
Mof_O 	O 	0.25	0	0.8532	-0.634
Mof_O 	O 	0.25	-3.14179e-33	0.3532	-0.634
Mof_O 	O 	0.75	0	0.1468	-0.633
_end
