data_functionalizedCrystal
_audit_creation_method	'EQeq! by Chris Wilmer'
_symmetry_space_group_name_H-M	'P1'
_symmetry_Int_Tables_number	1
_symmetry_cell_setting	triclinic
loop_
_symmetry_equiv_pos_as_xyz
  x,y,z
_cell_length_a	12.695
_cell_length_b	22.6904
_cell_length_c	22.6904
_cell_angle_alpha	90
_cell_angle_beta	90
_cell_angle_gamma	90
loop_
_atom_site_label
_atom_site_type_symbol
_atom_site_fract_x
_atom_site_fract_y
_atom_site_fract_z
_atom_site_charge
Mof_Co	Co	0.74665	0.76792	0.75914	1.155
Mof_Co	Co	0.74665	0.23208	0.24086	1.155
Mof_Co	Co	0.25335	0.73208	0.25914	1.155
Mof_Co	Co	0.25335	0.26792	0.74086	1.155
Mof_H 	H 	0.4613	0.2136	0.7084	0.001
Mof_H 	H 	0.5606	0.1275	0.7225	0.09
Mof_H 	H 	0.3344	0.0706	0.8345	0.074
Mof_H 	H 	0.2387	0.1554	0.8127	-0
Mof_H 	H 	0.6636	0.067	0.7754	0.064
Mof_H 	H 	0.7512	0.978	0.7753	0.045
Mof_H 	H 	0.4817	0.8921	0.8076	0.052
Mof_H 	H 	0.3897	0.9825	0.8088	0.051
Mof_H 	H 	0.3073	0.7494	0.3896	-0.01
Mof_H 	H 	0.223	0.7595	0.4787	0.077
Mof_H 	H 	0.9488	0.7759	0.3925	0.089
Mof_H 	H 	0.0407	0.7653	0.3036	0.013
Mof_H 	H 	0.1127	0.7189	0.5498	0.054
Mof_H 	H 	0.02	0.7228	0.638	0.048
Mof_H 	H 	0.8045	0.8294	0.5607	0.042
Mof_H 	H 	0.8996	0.825	0.4718	0.059
Mof_H 	H 	0.4613	0.7864	0.2916	0.001
Mof_H 	H 	0.5606	0.8725	0.2775	0.09
Mof_H 	H 	0.3344	0.9294	0.1655	0.074
Mof_H 	H 	0.2387	0.8446	0.1873	-0
Mof_H 	H 	0.6636	0.933	0.2246	0.064
Mof_H 	H 	0.7512	0.022	0.2247	0.045
Mof_H 	H 	0.4817	0.1079	0.1924	0.052
Mof_H 	H 	0.3897	0.0175	0.1912	0.051
Mof_H 	H 	0.3073	0.2506	0.6104	-0.01
Mof_H 	H 	0.223	0.2405	0.5213	0.077
Mof_H 	H 	0.9488	0.2241	0.6075	0.089
Mof_H 	H 	0.0407	0.2347	0.6964	0.013
Mof_H 	H 	0.1127	0.2811	0.4502	0.054
Mof_H 	H 	0.02	0.2772	0.362	0.048
Mof_H 	H 	0.8045	0.1706	0.4393	0.042
Mof_H 	H 	0.8996	0.175	0.5282	0.059
Mof_H 	H 	0.5387	0.2864	0.2084	0.001
Mof_H 	H 	0.4394	0.3725	0.2225	0.09
Mof_H 	H 	0.6656	0.4294	0.3345	0.074
Mof_H 	H 	0.7613	0.3446	0.3127	-0
Mof_H 	H 	0.3364	0.433	0.2754	0.064
Mof_H 	H 	0.2488	0.522	0.2753	0.045
Mof_H 	H 	0.5183	0.6079	0.3076	0.053
Mof_H 	H 	0.6103	0.5175	0.3088	0.051
Mof_H 	H 	0.6927	0.7506	0.8896	-0.01
Mof_H 	H 	0.777	0.7405	0.9787	0.077
Mof_H 	H 	0.0512	0.7241	0.8925	0.089
Mof_H 	H 	0.9593	0.7347	0.8036	0.013
Mof_H 	H 	0.8873	0.7811	0.0498	0.054
Mof_H 	H 	0.98	0.7772	0.138	0.048
Mof_H 	H 	0.1955	0.6706	0.0607	0.042
Mof_H 	H 	0.1004	0.675	0.9718	0.059
Mof_H 	H 	0.5387	0.7136	0.7916	0.001
Mof_H 	H 	0.4394	0.6275	0.7775	0.09
Mof_H 	H 	0.6656	0.5706	0.6655	0.074
Mof_H 	H 	0.7613	0.6554	0.6873	-0
Mof_H 	H 	0.3364	0.567	0.7246	0.064
Mof_H 	H 	0.2488	0.478	0.7247	0.045
Mof_H 	H 	0.5183	0.3921	0.6924	0.053
Mof_H 	H 	0.6103	0.4825	0.6912	0.051
Mof_H 	H 	0.6927	0.2494	0.1104	-0.01
Mof_H 	H 	0.777	0.2595	0.0213	0.077
Mof_H 	H 	0.0512	0.2759	0.1075	0.089
Mof_H 	H 	0.9593	0.2653	0.1964	0.013
Mof_H 	H 	0.8873	0.2189	0.9502	0.054
Mof_H 	H 	0.98	0.2228	0.862	0.048
Mof_H 	H 	0.1955	0.3294	0.9393	0.042
Mof_H 	H 	0.1004	0.325	0.0282	0.059
Mof_C 	C 	0.4332	0.1835	0.7329	0.08
Mof_C 	C 	0.495	0.1325	0.7421	-0.141
Mof_C 	C 	0.457	0.0902	0.7805	0.076
Mof_C 	C 	0.3615	0.0988	0.8074	-0.134
Mof_C 	C 	0.3051	0.1497	0.7941	0.066
Mof_C 	C 	0.5162	0.0339	0.7874	0.012
Mof_C 	C 	0.625	0.0315	0.7807	-0.074
Mof_C 	C 	0.6773	0.9788	0.7816	0.006
Mof_C 	C 	0.6239	0.9272	0.7916	-0.068
Mof_C 	C 	0.5184	0.9279	0.8008	-0.003
Mof_C 	C 	0.463	0.9817	0.8003	-0.069
Mof_C 	C 	0.6802	0.8673	0.7855	0.301
Mof_C 	C 	0.233	0.754	0.39	0.084
Mof_C 	C 	0.1831	0.7601	0.4433	-0.141
Mof_C 	C 	0.0752	0.767	0.4457	0.077
Mof_C 	C 	0.0228	0.7697	0.3931	-0.132
Mof_C 	C 	0.0782	0.7632	0.3398	0.072
Mof_C 	C 	0.0156	0.7724	0.5017	0.014
Mof_C 	C 	0.0499	0.7415	0.552	-0.073
Mof_C 	C 	0.9946	0.7434	0.6044	0.004
Mof_C 	C 	0.9019	0.7753	0.6076	-0.081
Mof_C 	C 	0.867	0.8065	0.5584	0.005
Mof_C 	C 	0.9245	0.8042	0.5054	-0.074
Mof_C 	C 	0.8378	0.7747	0.6628	0.303
Mof_C 	C 	0.4332	0.8165	0.2671	0.08
Mof_C 	C 	0.495	0.8675	0.2579	-0.141
Mof_C 	C 	0.457	0.9098	0.2195	0.076
Mof_C 	C 	0.3615	0.9012	0.1926	-0.134
Mof_C 	C 	0.3051	0.8503	0.2059	0.066
Mof_C 	C 	0.5162	0.9661	0.2126	0.012
Mof_C 	C 	0.625	0.9685	0.2193	-0.074
Mof_C 	C 	0.6773	0.0212	0.2184	0.006
Mof_C 	C 	0.6239	0.0728	0.2084	-0.068
Mof_C 	C 	0.5184	0.0721	0.1992	-0.003
Mof_C 	C 	0.463	0.0183	0.1997	-0.069
Mof_C 	C 	0.6802	0.1327	0.2145	0.301
Mof_C 	C 	0.233	0.246	0.61	0.084
Mof_C 	C 	0.1831	0.2399	0.5567	-0.141
Mof_C 	C 	0.0752	0.233	0.5543	0.077
Mof_C 	C 	0.0228	0.2303	0.6069	-0.132
Mof_C 	C 	0.0782	0.2368	0.6602	0.072
Mof_C 	C 	0.0156	0.2276	0.4983	0.014
Mof_C 	C 	0.0499	0.2585	0.448	-0.073
Mof_C 	C 	0.9946	0.2566	0.3956	0.004
Mof_C 	C 	0.9019	0.2247	0.3924	-0.081
Mof_C 	C 	0.867	0.1935	0.4416	0.005
Mof_C 	C 	0.9245	0.1958	0.4946	-0.074
Mof_C 	C 	0.8378	0.2253	0.3372	0.303
Mof_C 	C 	0.5668	0.3165	0.2329	0.08
Mof_C 	C 	0.505	0.3675	0.2421	-0.141
Mof_C 	C 	0.543	0.4098	0.2805	0.076
Mof_C 	C 	0.6385	0.4012	0.3074	-0.134
Mof_C 	C 	0.6949	0.3503	0.2941	0.066
Mof_C 	C 	0.4838	0.4661	0.2874	0.012
Mof_C 	C 	0.375	0.4685	0.2807	-0.075
Mof_C 	C 	0.3227	0.5212	0.2816	0.006
Mof_C 	C 	0.3761	0.5728	0.2916	-0.068
Mof_C 	C 	0.4816	0.5721	0.3008	-0.003
Mof_C 	C 	0.537	0.5183	0.3003	-0.068
Mof_C 	C 	0.3198	0.6327	0.2855	0.301
Mof_C 	C 	0.767	0.746	0.89	0.084
Mof_C 	C 	0.8169	0.7399	0.9433	-0.141
Mof_C 	C 	0.9248	0.733	0.9457	0.077
Mof_C 	C 	0.9772	0.7303	0.8931	-0.132
Mof_C 	C 	0.9218	0.7368	0.8398	0.072
Mof_C 	C 	0.9844	0.7276	0.0017	0.014
Mof_C 	C 	0.9501	0.7585	0.052	-0.073
Mof_C 	C 	0.0054	0.7566	0.1044	0.004
Mof_C 	C 	0.0981	0.7247	0.1076	-0.081
Mof_C 	C 	0.133	0.6935	0.0584	0.005
Mof_C 	C 	0.0755	0.6958	0.0054	-0.074
Mof_C 	C 	0.1622	0.7253	0.1628	0.303
Mof_C 	C 	0.5668	0.6835	0.7671	0.08
Mof_C 	C 	0.505	0.6325	0.7579	-0.141
Mof_C 	C 	0.543	0.5902	0.7195	0.076
Mof_C 	C 	0.6385	0.5988	0.6926	-0.134
Mof_C 	C 	0.6949	0.6497	0.7059	0.066
Mof_C 	C 	0.4838	0.5339	0.7126	0.012
Mof_C 	C 	0.375	0.5315	0.7193	-0.075
Mof_C 	C 	0.3227	0.4788	0.7184	0.006
Mof_C 	C 	0.3761	0.4272	0.7084	-0.068
Mof_C 	C 	0.4816	0.4279	0.6992	-0.003
Mof_C 	C 	0.537	0.4817	0.6997	-0.068
Mof_C 	C 	0.3198	0.3673	0.7145	0.301
Mof_C 	C 	0.767	0.254	0.11	0.084
Mof_C 	C 	0.8169	0.2601	0.0567	-0.141
Mof_C 	C 	0.9248	0.267	0.0543	0.077
Mof_C 	C 	0.9772	0.2697	0.1069	-0.132
Mof_C 	C 	0.9218	0.2632	0.1602	0.072
Mof_C 	C 	0.9844	0.2724	0.9983	0.014
Mof_C 	C 	0.9501	0.2415	0.948	-0.073
Mof_C 	C 	0.0054	0.2434	0.8956	0.004
Mof_C 	C 	0.0981	0.2753	0.8924	-0.081
Mof_C 	C 	0.133	0.3065	0.9416	0.005
Mof_C 	C 	0.0755	0.3042	0.9946	-0.074
Mof_C 	C 	0.1622	0.2747	0.8372	0.303
Mof_N 	N 	0.3399	0.192	0.7559	-0.247
Mof_N 	N 	0.1813	0.7543	0.3387	-0.245
Mof_N 	N 	0.3399	0.808	0.2441	-0.247
Mof_N 	N 	0.1813	0.2457	0.6613	-0.245
Mof_N 	N 	0.6601	0.308	0.2559	-0.247
Mof_N 	N 	0.8187	0.7457	0.8387	-0.245
Mof_N 	N 	0.6601	0.692	0.7441	-0.247
Mof_N 	N 	0.8187	0.2543	0.1613	-0.245
Mof_O 	O 	0.6251	0.82138	0.78596	-0.402
Mof_O 	O 	0.7773	0.86665	0.7788	-0.354
Mof_O 	O 	0.7468	0.79381	0.66346	-0.37
Mof_O 	O 	0.877	0.74942	0.70794	-0.397
Mof_O 	O 	0.6251	0.17862	0.21404	-0.402
Mof_O 	O 	0.7773	0.13335	0.2212	-0.354
Mof_O 	O 	0.7468	0.20619	0.33654	-0.37
Mof_O 	O 	0.877	0.25058	0.29206	-0.397
Mof_O 	O 	0.3749	0.67862	0.28596	-0.402
Mof_O 	O 	0.2227	0.63335	0.2788	-0.354
Mof_O 	O 	0.2532	0.70619	0.16346	-0.37
Mof_O 	O 	0.123	0.75058	0.20794	-0.397
Mof_O 	O 	0.3749	0.32138	0.71404	-0.402
Mof_O 	O 	0.2227	0.36665	0.7212	-0.354
Mof_O 	O 	0.2532	0.29381	0.83654	-0.37
Mof_O 	O 	0.123	0.24942	0.79206	-0.397
Mof_Co	Co	0.74665	0.74086	0.26792	1.156
Mof_Co	Co	0.74665	0.25914	0.73208	1.156
Mof_Co	Co	0.25335	0.75914	0.76792	1.156
Mof_Co	Co	0.25335	0.24086	0.23208	1.156
Mof_H 	H 	0.4613	0.7916	0.7136	0.001
Mof_H 	H 	0.5606	0.7775	0.6275	0.09
Mof_H 	H 	0.3344	0.6655	0.5706	0.074
Mof_H 	H 	0.2387	0.6873	0.6554	-0
Mof_H 	H 	0.6636	0.7246	0.567	0.064
Mof_H 	H 	0.7512	0.7247	0.478	0.045
Mof_H 	H 	0.4817	0.6924	0.3921	0.053
Mof_H 	H 	0.3897	0.6912	0.4825	0.051
Mof_H 	H 	0.3073	0.1104	0.2494	-0.01
Mof_H 	H 	0.223	0.0213	0.2595	0.077
Mof_H 	H 	0.9488	0.1075	0.2759	0.089
Mof_H 	H 	0.0407	0.1964	0.2653	0.013
Mof_H 	H 	0.1127	0.9502	0.2189	0.054
Mof_H 	H 	0.02	0.862	0.2228	0.048
Mof_H 	H 	0.8045	0.9393	0.3294	0.042
Mof_H 	H 	0.8996	0.0282	0.325	0.059
Mof_H 	H 	0.4613	0.2084	0.2864	0.001
Mof_H 	H 	0.5606	0.2225	0.3725	0.09
Mof_H 	H 	0.3344	0.3345	0.4294	0.074
Mof_H 	H 	0.2387	0.3127	0.3446	-0
Mof_H 	H 	0.6636	0.2754	0.433	0.064
Mof_H 	H 	0.7512	0.2753	0.522	0.045
Mof_H 	H 	0.4817	0.3076	0.6079	0.053
Mof_H 	H 	0.3897	0.3088	0.5175	0.051
Mof_H 	H 	0.3073	0.8896	0.7506	-0.01
Mof_H 	H 	0.223	0.9787	0.7405	0.077
Mof_H 	H 	0.9488	0.8925	0.7241	0.089
Mof_H 	H 	0.0407	0.8036	0.7347	0.013
Mof_H 	H 	0.1127	0.0498	0.7811	0.054
Mof_H 	H 	0.02	0.138	0.7772	0.048
Mof_H 	H 	0.8045	0.0607	0.6706	0.042
Mof_H 	H 	0.8996	0.9718	0.675	0.059
Mof_H 	H 	0.5387	0.7084	0.2136	0.001
Mof_H 	H 	0.4394	0.7225	0.1275	0.09
Mof_H 	H 	0.6656	0.8345	0.0706	0.074
Mof_H 	H 	0.7613	0.8127	0.1554	-0
Mof_H 	H 	0.3364	0.7754	0.067	0.064
Mof_H 	H 	0.2488	0.7753	0.978	0.045
Mof_H 	H 	0.5183	0.8076	0.8921	0.052
Mof_H 	H 	0.6103	0.8088	0.9825	0.051
Mof_H 	H 	0.6927	0.3896	0.7494	-0.01
Mof_H 	H 	0.777	0.4787	0.7595	0.077
Mof_H 	H 	0.0512	0.3925	0.7759	0.089
Mof_H 	H 	0.9593	0.3036	0.7653	0.013
Mof_H 	H 	0.8873	0.5498	0.7189	0.054
Mof_H 	H 	0.98	0.638	0.7228	0.048
Mof_H 	H 	0.1955	0.5607	0.8294	0.042
Mof_H 	H 	0.1004	0.4718	0.825	0.059
Mof_H 	H 	0.5387	0.2916	0.7864	0.001
Mof_H 	H 	0.4394	0.2775	0.8725	0.09
Mof_H 	H 	0.6656	0.1655	0.9294	0.074
Mof_H 	H 	0.7613	0.1873	0.8446	-0
Mof_H 	H 	0.3364	0.2246	0.933	0.064
Mof_H 	H 	0.2488	0.2247	0.022	0.045
Mof_H 	H 	0.5183	0.1924	0.1079	0.052
Mof_H 	H 	0.6103	0.1912	0.0175	0.051
Mof_H 	H 	0.6927	0.6104	0.2506	-0.01
Mof_H 	H 	0.777	0.5213	0.2405	0.077
Mof_H 	H 	0.0512	0.6075	0.2241	0.089
Mof_H 	H 	0.9593	0.6964	0.2347	0.013
Mof_H 	H 	0.8873	0.4502	0.2811	0.054
Mof_H 	H 	0.98	0.362	0.2772	0.048
Mof_H 	H 	0.1955	0.4393	0.1706	0.042
Mof_H 	H 	0.1004	0.5282	0.175	0.059
Mof_C 	C 	0.4332	0.7671	0.6835	0.08
Mof_C 	C 	0.495	0.7579	0.6325	-0.141
Mof_C 	C 	0.457	0.7195	0.5902	0.076
Mof_C 	C 	0.3615	0.6926	0.5988	-0.134
Mof_C 	C 	0.3051	0.7059	0.6497	0.066
Mof_C 	C 	0.5162	0.7126	0.5339	0.012
Mof_C 	C 	0.625	0.7193	0.5315	-0.075
Mof_C 	C 	0.6773	0.7184	0.4788	0.006
Mof_C 	C 	0.6239	0.7084	0.4272	-0.068
Mof_C 	C 	0.5184	0.6992	0.4279	-0.003
Mof_C 	C 	0.463	0.6997	0.4817	-0.068
Mof_C 	C 	0.6802	0.7145	0.3673	0.301
Mof_C 	C 	0.233	0.11	0.254	0.084
Mof_C 	C 	0.1831	0.0567	0.2601	-0.141
Mof_C 	C 	0.0752	0.0543	0.267	0.077
Mof_C 	C 	0.0228	0.1069	0.2697	-0.132
Mof_C 	C 	0.0782	0.1602	0.2632	0.072
Mof_C 	C 	0.0156	0.9983	0.2724	0.014
Mof_C 	C 	0.0499	0.948	0.2415	-0.073
Mof_C 	C 	0.9946	0.8956	0.2434	0.004
Mof_C 	C 	0.9019	0.8924	0.2753	-0.081
Mof_C 	C 	0.867	0.9416	0.3065	0.005
Mof_C 	C 	0.9245	0.9946	0.3042	-0.074
Mof_C 	C 	0.8378	0.8372	0.2747	0.303
Mof_C 	C 	0.4332	0.2329	0.3165	0.08
Mof_C 	C 	0.495	0.2421	0.3675	-0.141
Mof_C 	C 	0.457	0.2805	0.4098	0.076
Mof_C 	C 	0.3615	0.3074	0.4012	-0.134
Mof_C 	C 	0.3051	0.2941	0.3503	0.066
Mof_C 	C 	0.5162	0.2874	0.4661	0.012
Mof_C 	C 	0.625	0.2807	0.4685	-0.075
Mof_C 	C 	0.6773	0.2816	0.5212	0.006
Mof_C 	C 	0.6239	0.2916	0.5728	-0.068
Mof_C 	C 	0.5184	0.3008	0.5721	-0.003
Mof_C 	C 	0.463	0.3003	0.5183	-0.068
Mof_C 	C 	0.6802	0.2855	0.6327	0.301
Mof_C 	C 	0.233	0.89	0.746	0.084
Mof_C 	C 	0.1831	0.9433	0.7399	-0.141
Mof_C 	C 	0.0752	0.9457	0.733	0.077
Mof_C 	C 	0.0228	0.8931	0.7303	-0.132
Mof_C 	C 	0.0782	0.8398	0.7368	0.072
Mof_C 	C 	0.0156	0.0017	0.7276	0.014
Mof_C 	C 	0.0499	0.052	0.7585	-0.073
Mof_C 	C 	0.9946	0.1044	0.7566	0.004
Mof_C 	C 	0.9019	0.1076	0.7247	-0.081
Mof_C 	C 	0.867	0.0584	0.6935	0.005
Mof_C 	C 	0.9245	0.0054	0.6958	-0.074
Mof_C 	C 	0.8378	0.1628	0.7253	0.303
Mof_C 	C 	0.5668	0.7329	0.1835	0.08
Mof_C 	C 	0.505	0.7421	0.1325	-0.141
Mof_C 	C 	0.543	0.7805	0.0902	0.076
Mof_C 	C 	0.6385	0.8074	0.0988	-0.134
Mof_C 	C 	0.6949	0.7941	0.1497	0.066
Mof_C 	C 	0.4838	0.7874	0.0339	0.012
Mof_C 	C 	0.375	0.7807	0.0315	-0.074
Mof_C 	C 	0.3227	0.7816	0.9788	0.006
Mof_C 	C 	0.3761	0.7916	0.9272	-0.068
Mof_C 	C 	0.4816	0.8008	0.9279	-0.003
Mof_C 	C 	0.537	0.8003	0.9817	-0.069
Mof_C 	C 	0.3198	0.7855	0.8673	0.301
Mof_C 	C 	0.767	0.39	0.754	0.084
Mof_C 	C 	0.8169	0.4433	0.7601	-0.141
Mof_C 	C 	0.9248	0.4457	0.767	0.077
Mof_C 	C 	0.9772	0.3931	0.7697	-0.132
Mof_C 	C 	0.9218	0.3398	0.7632	0.072
Mof_C 	C 	0.9844	0.5017	0.7724	0.014
Mof_C 	C 	0.9501	0.552	0.7415	-0.073
Mof_C 	C 	0.0054	0.6044	0.7434	0.004
Mof_C 	C 	0.0981	0.6076	0.7753	-0.081
Mof_C 	C 	0.133	0.5584	0.8065	0.005
Mof_C 	C 	0.0755	0.5054	0.8042	-0.074
Mof_C 	C 	0.1622	0.6628	0.7747	0.303
Mof_C 	C 	0.5668	0.2671	0.8165	0.08
Mof_C 	C 	0.505	0.2579	0.8675	-0.141
Mof_C 	C 	0.543	0.2195	0.9098	0.076
Mof_C 	C 	0.6385	0.1926	0.9012	-0.134
Mof_C 	C 	0.6949	0.2059	0.8503	0.066
Mof_C 	C 	0.4838	0.2126	0.9661	0.012
Mof_C 	C 	0.375	0.2193	0.9685	-0.074
Mof_C 	C 	0.3227	0.2184	0.0212	0.006
Mof_C 	C 	0.3761	0.2084	0.0728	-0.068
Mof_C 	C 	0.4816	0.1992	0.0721	-0.003
Mof_C 	C 	0.537	0.1997	0.0183	-0.069
Mof_C 	C 	0.3198	0.2145	0.1327	0.301
Mof_C 	C 	0.767	0.61	0.246	0.084
Mof_C 	C 	0.8169	0.5567	0.2399	-0.141
Mof_C 	C 	0.9248	0.5543	0.233	0.077
Mof_C 	C 	0.9772	0.6069	0.2303	-0.132
Mof_C 	C 	0.9218	0.6602	0.2368	0.072
Mof_C 	C 	0.9844	0.4983	0.2276	0.014
Mof_C 	C 	0.9501	0.448	0.2585	-0.073
Mof_C 	C 	0.0054	0.3956	0.2566	0.004
Mof_C 	C 	0.0981	0.3924	0.2247	-0.081
Mof_C 	C 	0.133	0.4416	0.1935	0.005
Mof_C 	C 	0.0755	0.4946	0.1958	-0.074
Mof_C 	C 	0.1622	0.3372	0.2253	0.303
Mof_N 	N 	0.3399	0.7441	0.692	-0.247
Mof_N 	N 	0.1813	0.1613	0.2543	-0.245
Mof_N 	N 	0.3399	0.2559	0.308	-0.247
Mof_N 	N 	0.1813	0.8387	0.7457	-0.245
Mof_N 	N 	0.6601	0.7559	0.192	-0.247
Mof_N 	N 	0.8187	0.3387	0.7543	-0.245
Mof_N 	N 	0.6601	0.2441	0.808	-0.247
Mof_N 	N 	0.8187	0.6613	0.2457	-0.245
Mof_O 	O 	0.6251	0.71404	0.32138	-0.402
Mof_O 	O 	0.7773	0.7212	0.36665	-0.354
Mof_O 	O 	0.7468	0.83654	0.29381	-0.37
Mof_O 	O 	0.877	0.79206	0.24942	-0.397
Mof_O 	O 	0.6251	0.28596	0.67862	-0.402
Mof_O 	O 	0.7773	0.2788	0.63335	-0.354
Mof_O 	O 	0.7468	0.16346	0.70619	-0.37
Mof_O 	O 	0.877	0.20794	0.75058	-0.397
Mof_O 	O 	0.3749	0.78596	0.82138	-0.402
Mof_O 	O 	0.2227	0.7788	0.86665	-0.354
Mof_O 	O 	0.2532	0.66346	0.79381	-0.37
Mof_O 	O 	0.123	0.70794	0.74942	-0.397
Mof_O 	O 	0.3749	0.21404	0.17862	-0.402
Mof_O 	O 	0.2227	0.2212	0.13335	-0.354
Mof_O 	O 	0.2532	0.33654	0.20619	-0.37
Mof_O 	O 	0.123	0.29206	0.25058	-0.397
_end
