data_functionalizedCrystal
_audit_creation_method	'EQeq! by Chris Wilmer'
_symmetry_space_group_name_H-M	'P1'
_symmetry_Int_Tables_number	1
_symmetry_cell_setting	triclinic
loop_
_symmetry_equiv_pos_as_xyz
  x,y,z
_cell_length_a	7.2127
_cell_length_b	23.7652
_cell_length_c	30.732
_cell_angle_alpha	90
_cell_angle_beta	90
_cell_angle_gamma	90
loop_
_atom_site_label
_atom_site_type_symbol
_atom_site_fract_x
_atom_site_fract_y
_atom_site_fract_z
_atom_site_charge
Mof_Ag	Ag	0.19524	0.77001	0.29069	0.557
Mof_Ag	Ag	0.52785	0.44257	0.48416	0.571
Mof_O 	O 	0.3436	0.69592	0.31402	-0.38
Mof_O 	O 	0.4527	0.66747	0.24954	-0.396
Mof_O 	O 	0.4794	0.58787	0.44635	-0.371
Mof_O 	O 	0.6583	0.51167	0.44176	-0.403
Mof_N 	N 	0.1086	0.81264	0.35754	-0.154
Mof_N 	N 	0.0191	0.87421	0.43152	-0.162
Mof_C 	C 	0.0009	0.85818	0.35563	0.012
Mof_H 	H 	0.9539	0.8699	0.3286	0.033
Mof_C 	C 	0.9571	0.88841	0.39255	0.011
Mof_H 	H 	0.8806	0.9202	0.3899	0.028
Mof_C 	C 	0.1246	0.82818	0.43338	0.014
Mof_H 	H 	0.1695	0.8161	0.4605	0.015
Mof_C 	C 	0.1696	0.79793	0.39675	0.01
Mof_H 	H 	0.2455	0.766	0.3995	0.03
Mof_C 	C 	0.4334	0.66338	0.28997	0.342
Mof_C 	C 	0.5288	0.61452	0.31183	-0.136
Mof_C 	C 	0.6368	0.57723	0.28805	0.046
Mof_H 	H 	0.6474	0.5814	0.2577	0.022
Mof_C 	C 	0.7289	0.53392	0.30888	-0.119
Mof_H 	H 	0.8032	0.509	0.2927	0.071
Mof_C 	C 	0.7123	0.52716	0.35301	0.047
Mof_H 	H 	0.7765	0.4978	0.3669	0.022
Mof_C 	C 	0.6014	0.56326	0.37751	-0.129
Mof_C 	C 	0.5113	0.60719	0.35654	0.058
Mof_H 	H 	0.4377	0.6322	0.3727	0.03
Mof_C 	C 	0.5783	0.55376	0.42535	0.347
Mof_Ag	Ag	0.69524	0.27001	0.79069	0.556
Mof_Ag	Ag	0.02785	0.94257	0.98416	0.57
Mof_O 	O 	0.8436	0.19592	0.81402	-0.381
Mof_O 	O 	0.9527	0.16747	0.74954	-0.397
Mof_O 	O 	0.9794	0.08787	0.94635	-0.371
Mof_O 	O 	0.1583	0.01167	0.94176	-0.404
Mof_N 	N 	0.6086	0.31264	0.85754	-0.155
Mof_N 	N 	0.5191	0.37421	0.93152	-0.164
Mof_C 	C 	0.5009	0.35818	0.85563	0.009
Mof_H 	H 	0.4539	0.3699	0.8286	0.033
Mof_C 	C 	0.4571	0.38841	0.89255	0.012
Mof_H 	H 	0.3806	0.4202	0.8899	0.026
Mof_C 	C 	0.6246	0.32818	0.93338	0.013
Mof_H 	H 	0.6695	0.3161	0.9605	0.014
Mof_C 	C 	0.6696	0.29793	0.89675	0.008
Mof_H 	H 	0.7455	0.266	0.8995	0.029
Mof_C 	C 	0.9334	0.16338	0.78997	0.343
Mof_C 	C 	0.0288	0.11452	0.81183	-0.136
Mof_C 	C 	0.1368	0.07723	0.78805	0.046
Mof_H 	H 	0.1474	0.0814	0.7577	0.022
Mof_C 	C 	0.2289	0.03392	0.80888	-0.119
Mof_H 	H 	0.3032	0.009	0.7927	0.071
Mof_C 	C 	0.2123	0.02716	0.85301	0.046
Mof_H 	H 	0.2765	0.9978	0.8669	0.022
Mof_C 	C 	0.1014	0.06326	0.87751	-0.129
Mof_C 	C 	0.0113	0.10719	0.85654	0.056
Mof_H 	H 	0.9377	0.1322	0.8727	0.031
Mof_C 	C 	0.0783	0.05376	0.92535	0.347
Mof_Ag	Ag	0.30476	0.22999	0.79069	0.556
Mof_Ag	Ag	0.97215	0.55743	0.98416	0.57
Mof_O 	O 	0.1564	0.30408	0.81402	-0.381
Mof_O 	O 	0.0473	0.33253	0.74954	-0.397
Mof_O 	O 	0.0206	0.41213	0.94635	-0.371
Mof_O 	O 	0.8417	0.48833	0.94176	-0.404
Mof_N 	N 	0.3914	0.18736	0.85754	-0.155
Mof_N 	N 	0.4809	0.12579	0.93152	-0.164
Mof_C 	C 	0.4991	0.14182	0.85563	0.009
Mof_H 	H 	0.5461	0.1301	0.8286	0.033
Mof_C 	C 	0.5429	0.11159	0.89255	0.012
Mof_H 	H 	0.6194	0.0798	0.8899	0.026
Mof_C 	C 	0.3754	0.17182	0.93338	0.013
Mof_H 	H 	0.3305	0.1839	0.9605	0.014
Mof_C 	C 	0.3304	0.20207	0.89675	0.008
Mof_H 	H 	0.2545	0.234	0.8995	0.029
Mof_C 	C 	0.0666	0.33662	0.78997	0.343
Mof_C 	C 	0.9712	0.38548	0.81183	-0.136
Mof_C 	C 	0.8632	0.42277	0.78805	0.046
Mof_H 	H 	0.8526	0.4186	0.7577	0.022
Mof_C 	C 	0.7711	0.46608	0.80888	-0.119
Mof_H 	H 	0.6968	0.491	0.7927	0.071
Mof_C 	C 	0.7877	0.47284	0.85301	0.046
Mof_H 	H 	0.7235	0.5022	0.8669	0.022
Mof_C 	C 	0.8986	0.43674	0.87751	-0.129
Mof_C 	C 	0.9887	0.39281	0.85654	0.056
Mof_H 	H 	0.0623	0.3678	0.8727	0.031
Mof_C 	C 	0.9217	0.44624	0.92535	0.347
Mof_Ag	Ag	0.80476	0.72999	0.29069	0.556
Mof_Ag	Ag	0.47215	0.05743	0.48416	0.57
Mof_O 	O 	0.6564	0.80408	0.31402	-0.381
Mof_O 	O 	0.5473	0.83253	0.24954	-0.397
Mof_O 	O 	0.5206	0.91213	0.44635	-0.372
Mof_O 	O 	0.3417	0.98833	0.44176	-0.404
Mof_N 	N 	0.8914	0.68736	0.35754	-0.155
Mof_N 	N 	0.9809	0.62579	0.43152	-0.163
Mof_C 	C 	0.9991	0.64182	0.35563	0.011
Mof_H 	H 	0.0461	0.6301	0.3286	0.032
Mof_C 	C 	0.0429	0.61159	0.39255	0.01
Mof_H 	H 	0.1194	0.5798	0.3899	0.027
Mof_C 	C 	0.8754	0.67182	0.43338	0.013
Mof_H 	H 	0.8305	0.6839	0.4605	0.014
Mof_C 	C 	0.8304	0.70207	0.39675	0.009
Mof_H 	H 	0.7545	0.734	0.3995	0.029
Mof_C 	C 	0.5666	0.83662	0.28997	0.342
Mof_C 	C 	0.4712	0.88548	0.31183	-0.136
Mof_C 	C 	0.3632	0.92277	0.28805	0.046
Mof_H 	H 	0.3526	0.9186	0.2577	0.022
Mof_C 	C 	0.2711	0.96608	0.30888	-0.119
Mof_H 	H 	0.1968	0.991	0.2927	0.071
Mof_C 	C 	0.2877	0.97284	0.35301	0.047
Mof_H 	H 	0.2235	0.0022	0.3669	0.022
Mof_C 	C 	0.3986	0.93674	0.37751	-0.129
Mof_C 	C 	0.4887	0.89281	0.35654	0.058
Mof_H 	H 	0.5623	0.8678	0.3727	0.03
Mof_C 	C 	0.4217	0.94624	0.42535	0.347
Mof_Ag	Ag	0.80476	0.27001	0.20931	0.556
Mof_Ag	Ag	0.47215	0.94257	0.01584	0.57
Mof_O 	O 	0.6564	0.19592	0.18598	-0.381
Mof_O 	O 	0.5473	0.16747	0.25046	-0.397
Mof_O 	O 	0.5206	0.08787	0.05365	-0.372
Mof_O 	O 	0.3417	0.01167	0.05824	-0.404
Mof_N 	N 	0.8914	0.31264	0.14246	-0.155
Mof_N 	N 	0.9809	0.37421	0.06848	-0.163
Mof_C 	C 	0.9991	0.35818	0.14437	0.011
Mof_H 	H 	0.0461	0.3699	0.1714	0.032
Mof_C 	C 	0.0429	0.38841	0.10745	0.01
Mof_H 	H 	0.1194	0.4202	0.1101	0.027
Mof_C 	C 	0.8754	0.32818	0.06662	0.013
Mof_H 	H 	0.8305	0.3161	0.0395	0.014
Mof_C 	C 	0.8304	0.29793	0.10325	0.009
Mof_H 	H 	0.7545	0.266	0.1005	0.029
Mof_C 	C 	0.5666	0.16338	0.21003	0.342
Mof_C 	C 	0.4712	0.11452	0.18817	-0.136
Mof_C 	C 	0.3632	0.07723	0.21195	0.046
Mof_H 	H 	0.3526	0.0814	0.2423	0.022
Mof_C 	C 	0.2711	0.03392	0.19112	-0.119
Mof_H 	H 	0.1968	0.009	0.2073	0.071
Mof_C 	C 	0.2877	0.02716	0.14699	0.047
Mof_H 	H 	0.2235	0.9978	0.1331	0.022
Mof_C 	C 	0.3986	0.06326	0.12249	-0.129
Mof_C 	C 	0.4887	0.10719	0.14346	0.058
Mof_H 	H 	0.5623	0.1322	0.1273	0.03
Mof_C 	C 	0.4217	0.05376	0.07465	0.347
Mof_Ag	Ag	0.30476	0.77001	0.70931	0.556
Mof_Ag	Ag	0.97215	0.44257	0.51584	0.57
Mof_O 	O 	0.1564	0.69592	0.68598	-0.381
Mof_O 	O 	0.0473	0.66747	0.75046	-0.397
Mof_O 	O 	0.0206	0.58787	0.55365	-0.371
Mof_O 	O 	0.8417	0.51167	0.55824	-0.404
Mof_N 	N 	0.3914	0.81264	0.64246	-0.155
Mof_N 	N 	0.4809	0.87421	0.56848	-0.164
Mof_C 	C 	0.4991	0.85818	0.64437	0.009
Mof_H 	H 	0.5461	0.8699	0.6714	0.033
Mof_C 	C 	0.5429	0.88841	0.60745	0.012
Mof_H 	H 	0.6194	0.9202	0.6101	0.026
Mof_C 	C 	0.3754	0.82818	0.56662	0.013
Mof_H 	H 	0.3305	0.8161	0.5395	0.014
Mof_C 	C 	0.3304	0.79793	0.60325	0.008
Mof_H 	H 	0.2545	0.766	0.6005	0.029
Mof_C 	C 	0.0666	0.66338	0.71003	0.343
Mof_C 	C 	0.9712	0.61452	0.68817	-0.136
Mof_C 	C 	0.8632	0.57723	0.71195	0.046
Mof_H 	H 	0.8526	0.5814	0.7423	0.022
Mof_C 	C 	0.7711	0.53392	0.69112	-0.119
Mof_H 	H 	0.6968	0.509	0.7073	0.071
Mof_C 	C 	0.7877	0.52716	0.64699	0.046
Mof_H 	H 	0.7235	0.4978	0.6331	0.022
Mof_C 	C 	0.8986	0.56326	0.62249	-0.129
Mof_C 	C 	0.9887	0.60719	0.64346	0.056
Mof_H 	H 	0.0623	0.6322	0.6273	0.031
Mof_C 	C 	0.9217	0.55376	0.57465	0.347
Mof_Ag	Ag	0.69524	0.72999	0.70931	0.556
Mof_Ag	Ag	0.02785	0.05743	0.51584	0.57
Mof_O 	O 	0.8436	0.80408	0.68598	-0.381
Mof_O 	O 	0.9527	0.83253	0.75046	-0.397
Mof_O 	O 	0.9794	0.91213	0.55365	-0.371
Mof_O 	O 	0.1583	0.98833	0.55824	-0.404
Mof_N 	N 	0.6086	0.68736	0.64246	-0.155
Mof_N 	N 	0.5191	0.62579	0.56848	-0.164
Mof_C 	C 	0.5009	0.64182	0.64437	0.009
Mof_H 	H 	0.4539	0.6301	0.6714	0.033
Mof_C 	C 	0.4571	0.61159	0.60745	0.012
Mof_H 	H 	0.3806	0.5798	0.6101	0.026
Mof_C 	C 	0.6246	0.67182	0.56662	0.013
Mof_H 	H 	0.6695	0.6839	0.5395	0.014
Mof_C 	C 	0.6696	0.70207	0.60325	0.008
Mof_H 	H 	0.7455	0.734	0.6005	0.029
Mof_C 	C 	0.9334	0.83662	0.71003	0.343
Mof_C 	C 	0.0288	0.88548	0.68817	-0.136
Mof_C 	C 	0.1368	0.92277	0.71195	0.046
Mof_H 	H 	0.1474	0.9186	0.7423	0.022
Mof_C 	C 	0.2289	0.96608	0.69112	-0.119
Mof_H 	H 	0.3032	0.991	0.7073	0.071
Mof_C 	C 	0.2123	0.97284	0.64699	0.046
Mof_H 	H 	0.2765	0.0022	0.6331	0.022
Mof_C 	C 	0.1014	0.93674	0.62249	-0.129
Mof_C 	C 	0.0113	0.89281	0.64346	0.056
Mof_H 	H 	0.9377	0.8678	0.6273	0.031
Mof_C 	C 	0.0783	0.94624	0.57465	0.347
Mof_Ag	Ag	0.19524	0.22999	0.20931	0.556
Mof_Ag	Ag	0.52785	0.55743	0.01584	0.57
Mof_O 	O 	0.3436	0.30408	0.18598	-0.381
Mof_O 	O 	0.4527	0.33253	0.25046	-0.397
Mof_O 	O 	0.4794	0.41213	0.05365	-0.372
Mof_O 	O 	0.6583	0.48833	0.05824	-0.404
Mof_N 	N 	0.1086	0.18736	0.14246	-0.155
Mof_N 	N 	0.0191	0.12579	0.06848	-0.163
Mof_C 	C 	0.0009	0.14182	0.14437	0.011
Mof_H 	H 	0.9539	0.1301	0.1714	0.032
Mof_C 	C 	0.9571	0.11159	0.10745	0.01
Mof_H 	H 	0.8806	0.0798	0.1101	0.027
Mof_C 	C 	0.1246	0.17182	0.06662	0.013
Mof_H 	H 	0.1695	0.1839	0.0395	0.014
Mof_C 	C 	0.1696	0.20207	0.10325	0.009
Mof_H 	H 	0.2455	0.234	0.1005	0.029
Mof_C 	C 	0.4334	0.33662	0.21003	0.342
Mof_C 	C 	0.5288	0.38548	0.18817	-0.136
Mof_C 	C 	0.6368	0.42277	0.21195	0.046
Mof_H 	H 	0.6474	0.4186	0.2423	0.022
Mof_C 	C 	0.7289	0.46608	0.19112	-0.119
Mof_H 	H 	0.8032	0.491	0.2073	0.071
Mof_C 	C 	0.7123	0.47284	0.14699	0.047
Mof_H 	H 	0.7765	0.5022	0.1331	0.022
Mof_C 	C 	0.6014	0.43674	0.12249	-0.129
Mof_C 	C 	0.5113	0.39281	0.14346	0.058
Mof_H 	H 	0.4377	0.3678	0.1273	0.03
Mof_C 	C 	0.5783	0.44624	0.07465	0.347
Mof_Ag	Ag	0.80476	0.22999	0.70931	0.556
Mof_Ag	Ag	0.47215	0.55743	0.51584	0.57
Mof_O 	O 	0.6564	0.30408	0.68598	-0.381
Mof_O 	O 	0.5473	0.33253	0.75046	-0.397
Mof_O 	O 	0.5206	0.41213	0.55365	-0.372
Mof_O 	O 	0.3417	0.48833	0.55824	-0.404
Mof_N 	N 	0.8914	0.18736	0.64246	-0.155
Mof_N 	N 	0.9809	0.12579	0.56848	-0.163
Mof_C 	C 	0.9991	0.14182	0.64437	0.011
Mof_H 	H 	0.0461	0.1301	0.6714	0.032
Mof_C 	C 	0.0429	0.11159	0.60745	0.01
Mof_H 	H 	0.1194	0.0798	0.6101	0.027
Mof_C 	C 	0.8754	0.17182	0.56662	0.013
Mof_H 	H 	0.8305	0.1839	0.5395	0.014
Mof_C 	C 	0.8304	0.20207	0.60325	0.009
Mof_H 	H 	0.7545	0.234	0.6005	0.029
Mof_C 	C 	0.5666	0.33662	0.71003	0.342
Mof_C 	C 	0.4712	0.38548	0.68817	-0.136
Mof_C 	C 	0.3632	0.42277	0.71195	0.046
Mof_H 	H 	0.3526	0.4186	0.7423	0.022
Mof_C 	C 	0.2711	0.46608	0.69112	-0.119
Mof_H 	H 	0.1968	0.491	0.7073	0.071
Mof_C 	C 	0.2877	0.47284	0.64699	0.047
Mof_H 	H 	0.2235	0.5022	0.6331	0.022
Mof_C 	C 	0.3986	0.43674	0.62249	-0.129
Mof_C 	C 	0.4887	0.39281	0.64346	0.058
Mof_H 	H 	0.5623	0.3678	0.6273	0.03
Mof_C 	C 	0.4217	0.44624	0.57465	0.347
Mof_Ag	Ag	0.30476	0.72999	0.20931	0.556
Mof_Ag	Ag	0.97215	0.05743	0.01584	0.57
Mof_O 	O 	0.1564	0.80408	0.18598	-0.381
Mof_O 	O 	0.0473	0.83253	0.25046	-0.397
Mof_O 	O 	0.0206	0.91213	0.05365	-0.371
Mof_O 	O 	0.8417	0.98833	0.05824	-0.404
Mof_N 	N 	0.3914	0.68736	0.14246	-0.155
Mof_N 	N 	0.4809	0.62579	0.06848	-0.164
Mof_C 	C 	0.4991	0.64182	0.14437	0.009
Mof_H 	H 	0.5461	0.6301	0.1714	0.033
Mof_C 	C 	0.5429	0.61159	0.10745	0.012
Mof_H 	H 	0.6194	0.5798	0.1101	0.026
Mof_C 	C 	0.3754	0.67182	0.06662	0.013
Mof_H 	H 	0.3305	0.6839	0.0395	0.014
Mof_C 	C 	0.3304	0.70207	0.10325	0.008
Mof_H 	H 	0.2545	0.734	0.1005	0.029
Mof_C 	C 	0.0666	0.83662	0.21003	0.343
Mof_C 	C 	0.9712	0.88548	0.18817	-0.136
Mof_C 	C 	0.8632	0.92277	0.21195	0.046
Mof_H 	H 	0.8526	0.9186	0.2423	0.022
Mof_C 	C 	0.7711	0.96608	0.19112	-0.119
Mof_H 	H 	0.6968	0.991	0.2073	0.071
Mof_C 	C 	0.7877	0.97284	0.14699	0.046
Mof_H 	H 	0.7235	0.0022	0.1331	0.022
Mof_C 	C 	0.8986	0.93674	0.12249	-0.129
Mof_C 	C 	0.9887	0.89281	0.14346	0.056
Mof_H 	H 	0.0623	0.8678	0.1273	0.031
Mof_C 	C 	0.9217	0.94624	0.07465	0.347
Mof_Ag	Ag	0.69524	0.77001	0.20931	0.556
Mof_Ag	Ag	0.02785	0.44257	0.01584	0.57
Mof_O 	O 	0.8436	0.69592	0.18598	-0.381
Mof_O 	O 	0.9527	0.66747	0.25046	-0.397
Mof_O 	O 	0.9794	0.58787	0.05365	-0.371
Mof_O 	O 	0.1583	0.51167	0.05824	-0.404
Mof_N 	N 	0.6086	0.81264	0.14246	-0.155
Mof_N 	N 	0.5191	0.87421	0.06848	-0.164
Mof_C 	C 	0.5009	0.85818	0.14437	0.009
Mof_H 	H 	0.4539	0.8699	0.1714	0.033
Mof_C 	C 	0.4571	0.88841	0.10745	0.012
Mof_H 	H 	0.3806	0.9202	0.1101	0.026
Mof_C 	C 	0.6246	0.82818	0.06662	0.013
Mof_H 	H 	0.6695	0.8161	0.0395	0.014
Mof_C 	C 	0.6696	0.79793	0.10325	0.008
Mof_H 	H 	0.7455	0.766	0.1005	0.029
Mof_C 	C 	0.9334	0.66338	0.21003	0.343
Mof_C 	C 	0.0288	0.61452	0.18817	-0.136
Mof_C 	C 	0.1368	0.57723	0.21195	0.046
Mof_H 	H 	0.1474	0.5814	0.2423	0.022
Mof_C 	C 	0.2289	0.53392	0.19112	-0.119
Mof_H 	H 	0.3032	0.509	0.2073	0.071
Mof_C 	C 	0.2123	0.52716	0.14699	0.046
Mof_H 	H 	0.2765	0.4978	0.1331	0.022
Mof_C 	C 	0.1014	0.56326	0.12249	-0.129
Mof_C 	C 	0.0113	0.60719	0.14346	0.056
Mof_H 	H 	0.9377	0.6322	0.1273	0.031
Mof_C 	C 	0.0783	0.55376	0.07465	0.347
Mof_Ag	Ag	0.19524	0.27001	0.70931	0.556
Mof_Ag	Ag	0.52785	0.94257	0.51584	0.57
Mof_O 	O 	0.3436	0.19592	0.68598	-0.381
Mof_O 	O 	0.4527	0.16747	0.75046	-0.397
Mof_O 	O 	0.4794	0.08787	0.55365	-0.372
Mof_O 	O 	0.6583	0.01167	0.55824	-0.404
Mof_N 	N 	0.1086	0.31264	0.64246	-0.155
Mof_N 	N 	0.0191	0.37421	0.56848	-0.163
Mof_C 	C 	0.0009	0.35818	0.64437	0.011
Mof_H 	H 	0.9539	0.3699	0.6714	0.032
Mof_C 	C 	0.9571	0.38841	0.60745	0.01
Mof_H 	H 	0.8806	0.4202	0.6101	0.027
Mof_C 	C 	0.1246	0.32818	0.56662	0.013
Mof_H 	H 	0.1695	0.3161	0.5395	0.014
Mof_C 	C 	0.1696	0.29793	0.60325	0.009
Mof_H 	H 	0.2455	0.266	0.6005	0.029
Mof_C 	C 	0.4334	0.16338	0.71003	0.342
Mof_C 	C 	0.5288	0.11452	0.68817	-0.136
Mof_C 	C 	0.6368	0.07723	0.71195	0.046
Mof_H 	H 	0.6474	0.0814	0.7423	0.022
Mof_C 	C 	0.7289	0.03392	0.69112	-0.119
Mof_H 	H 	0.8032	0.009	0.7073	0.071
Mof_C 	C 	0.7123	0.02716	0.64699	0.047
Mof_H 	H 	0.7765	0.9978	0.6331	0.022
Mof_C 	C 	0.6014	0.06326	0.62249	-0.129
Mof_C 	C 	0.5113	0.10719	0.64346	0.058
Mof_H 	H 	0.4377	0.1322	0.6273	0.03
Mof_C 	C 	0.5783	0.05376	0.57465	0.347
Mof_Ag	Ag	0.19524	0.72999	0.79069	0.556
Mof_Ag	Ag	0.52785	0.05743	0.98416	0.57
Mof_O 	O 	0.3436	0.80408	0.81402	-0.381
Mof_O 	O 	0.4527	0.83253	0.74954	-0.397
Mof_O 	O 	0.4794	0.91213	0.94635	-0.372
Mof_O 	O 	0.6583	0.98833	0.94176	-0.404
Mof_N 	N 	0.1086	0.68736	0.85754	-0.155
Mof_N 	N 	0.0191	0.62579	0.93152	-0.163
Mof_C 	C 	0.0009	0.64182	0.85563	0.011
Mof_H 	H 	0.9539	0.6301	0.8286	0.032
Mof_C 	C 	0.9571	0.61159	0.89255	0.01
Mof_H 	H 	0.8806	0.5798	0.8899	0.027
Mof_C 	C 	0.1246	0.67182	0.93338	0.013
Mof_H 	H 	0.1695	0.6839	0.9605	0.014
Mof_C 	C 	0.1696	0.70207	0.89675	0.009
Mof_H 	H 	0.2455	0.734	0.8995	0.029
Mof_C 	C 	0.4334	0.83662	0.78997	0.342
Mof_C 	C 	0.5288	0.88548	0.81183	-0.136
Mof_C 	C 	0.6368	0.92277	0.78805	0.046
Mof_H 	H 	0.6474	0.9186	0.7577	0.022
Mof_C 	C 	0.7289	0.96608	0.80888	-0.119
Mof_H 	H 	0.8032	0.991	0.7927	0.071
Mof_C 	C 	0.7123	0.97284	0.85301	0.047
Mof_H 	H 	0.7765	0.0022	0.8669	0.022
Mof_C 	C 	0.6014	0.93674	0.87751	-0.129
Mof_C 	C 	0.5113	0.89281	0.85654	0.058
Mof_H 	H 	0.4377	0.8678	0.8727	0.03
Mof_C 	C 	0.5783	0.94624	0.92535	0.347
Mof_Ag	Ag	0.69524	0.22999	0.29069	0.556
Mof_Ag	Ag	0.02785	0.55743	0.48416	0.57
Mof_O 	O 	0.8436	0.30408	0.31402	-0.381
Mof_O 	O 	0.9527	0.33253	0.24954	-0.397
Mof_O 	O 	0.9794	0.41213	0.44635	-0.371
Mof_O 	O 	0.1583	0.48833	0.44176	-0.404
Mof_N 	N 	0.6086	0.18736	0.35754	-0.155
Mof_N 	N 	0.5191	0.12579	0.43152	-0.164
Mof_C 	C 	0.5009	0.14182	0.35563	0.009
Mof_H 	H 	0.4539	0.1301	0.3286	0.033
Mof_C 	C 	0.4571	0.11159	0.39255	0.012
Mof_H 	H 	0.3806	0.0798	0.3899	0.026
Mof_C 	C 	0.6246	0.17182	0.43338	0.013
Mof_H 	H 	0.6695	0.1839	0.4605	0.014
Mof_C 	C 	0.6696	0.20207	0.39675	0.008
Mof_H 	H 	0.7455	0.234	0.3995	0.029
Mof_C 	C 	0.9334	0.33662	0.28997	0.343
Mof_C 	C 	0.0288	0.38548	0.31183	-0.136
Mof_C 	C 	0.1368	0.42277	0.28805	0.046
Mof_H 	H 	0.1474	0.4186	0.2577	0.022
Mof_C 	C 	0.2289	0.46608	0.30888	-0.119
Mof_H 	H 	0.3032	0.491	0.2927	0.071
Mof_C 	C 	0.2123	0.47284	0.35301	0.046
Mof_H 	H 	0.2765	0.5022	0.3669	0.022
Mof_C 	C 	0.1014	0.43674	0.37751	-0.129
Mof_C 	C 	0.0113	0.39281	0.35654	0.056
Mof_H 	H 	0.9377	0.3678	0.3727	0.031
Mof_C 	C 	0.0783	0.44624	0.42535	0.347
Mof_Ag	Ag	0.30476	0.27001	0.29069	0.556
Mof_Ag	Ag	0.97215	0.94257	0.48416	0.57
Mof_O 	O 	0.1564	0.19592	0.31402	-0.381
Mof_O 	O 	0.0473	0.16747	0.24954	-0.397
Mof_O 	O 	0.0206	0.08787	0.44635	-0.371
Mof_O 	O 	0.8417	0.01167	0.44176	-0.404
Mof_N 	N 	0.3914	0.31264	0.35754	-0.155
Mof_N 	N 	0.4809	0.37421	0.43152	-0.164
Mof_C 	C 	0.4991	0.35818	0.35563	0.009
Mof_H 	H 	0.5461	0.3699	0.3286	0.033
Mof_C 	C 	0.5429	0.38841	0.39255	0.012
Mof_H 	H 	0.6194	0.4202	0.3899	0.026
Mof_C 	C 	0.3754	0.32818	0.43338	0.013
Mof_H 	H 	0.3305	0.3161	0.4605	0.014
Mof_C 	C 	0.3304	0.29793	0.39675	0.008
Mof_H 	H 	0.2545	0.266	0.3995	0.029
Mof_C 	C 	0.0666	0.16338	0.28997	0.343
Mof_C 	C 	0.9712	0.11452	0.31183	-0.136
Mof_C 	C 	0.8632	0.07723	0.28805	0.046
Mof_H 	H 	0.8526	0.0814	0.2577	0.022
Mof_C 	C 	0.7711	0.03392	0.30888	-0.119
Mof_H 	H 	0.6968	0.009	0.2927	0.071
Mof_C 	C 	0.7877	0.02716	0.35301	0.046
Mof_H 	H 	0.7235	0.9978	0.3669	0.022
Mof_C 	C 	0.8986	0.06326	0.37751	-0.129
Mof_C 	C 	0.9887	0.10719	0.35654	0.056
Mof_H 	H 	0.0623	0.1322	0.3727	0.031
Mof_C 	C 	0.9217	0.05376	0.42535	0.347
Mof_Ag	Ag	0.80476	0.77001	0.79069	0.556
Mof_Ag	Ag	0.47215	0.44257	0.98416	0.57
Mof_O 	O 	0.6564	0.69592	0.81402	-0.381
Mof_O 	O 	0.5473	0.66747	0.74954	-0.397
Mof_O 	O 	0.5206	0.58787	0.94635	-0.372
Mof_O 	O 	0.3417	0.51167	0.94176	-0.404
Mof_N 	N 	0.8914	0.81264	0.85754	-0.155
Mof_N 	N 	0.9809	0.87421	0.93152	-0.163
Mof_C 	C 	0.9991	0.85818	0.85563	0.011
Mof_H 	H 	0.0461	0.8699	0.8286	0.032
Mof_C 	C 	0.0429	0.88841	0.89255	0.01
Mof_H 	H 	0.1194	0.9202	0.8899	0.027
Mof_C 	C 	0.8754	0.82818	0.93338	0.013
Mof_H 	H 	0.8305	0.8161	0.9605	0.014
Mof_C 	C 	0.8304	0.79793	0.89675	0.009
Mof_H 	H 	0.7545	0.766	0.8995	0.029
Mof_C 	C 	0.5666	0.66338	0.78997	0.342
Mof_C 	C 	0.4712	0.61452	0.81183	-0.136
Mof_C 	C 	0.3632	0.57723	0.78805	0.046
Mof_H 	H 	0.3526	0.5814	0.7577	0.022
Mof_C 	C 	0.2711	0.53392	0.80888	-0.119
Mof_H 	H 	0.1968	0.509	0.7927	0.071
Mof_C 	C 	0.2877	0.52716	0.85301	0.047
Mof_H 	H 	0.2235	0.4978	0.8669	0.022
Mof_C 	C 	0.3986	0.56326	0.87751	-0.129
Mof_C 	C 	0.4887	0.60719	0.85654	0.058
Mof_H 	H 	0.5623	0.6322	0.8727	0.03
Mof_C 	C 	0.4217	0.55376	0.92535	0.347
_end
