data_functionalizedCrystal
_audit_creation_method	'EQeq! by Chris Wilmer'
_symmetry_space_group_name_H-M	'P1'
_symmetry_Int_Tables_number	1
_symmetry_cell_setting	triclinic
loop_
_symmetry_equiv_pos_as_xyz
  x,y,z
_cell_length_a	10.298
_cell_length_b	31.3511
_cell_length_c	31.469
_cell_angle_alpha	90
_cell_angle_beta	90
_cell_angle_gamma	91.6159
loop_
_atom_site_label
_atom_site_type_symbol
_atom_site_fract_x
_atom_site_fract_y
_atom_site_fract_z
_atom_site_charge
Mof_Zn	Zn	0.47435	0.18284	0.89374	1.209
Mof_Zn	Zn	0.03022	0.38843	0.32115	1.221
Mof_Zn	Zn	0.02565	0.31716	0.39374	1.209
Mof_Zn	Zn	0.62376	0.2013	0.80904	1.214
Mof_Zn	Zn	0.6692	0.80157	0.19427	1.215
Mof_Zn	Zn	0.53022	0.88843	0.17885	1.222
Mof_Zn	Zn	0.97435	0.68284	0.60626	1.209
Mof_Zn	Zn	0.8308	0.69843	0.69427	1.215
Mof_Zn	Zn	0.52565	0.81716	0.10626	1.209
Mof_Zn	Zn	0.3308	0.19843	0.80573	1.215
Mof_Zn	Zn	0.46978	0.11157	0.82115	1.222
Mof_Zn	Zn	0.37624	0.7987	0.19096	1.214
Mof_Zn	Zn	0.1692	0.30157	0.30573	1.216
Mof_Zn	Zn	0.12376	0.7013	0.69096	1.215
Mof_Zn	Zn	0.87624	0.2987	0.30904	1.215
Mof_Zn	Zn	0.96978	0.61157	0.67885	1.222
Mof_H 	H 	0.5331	0.0195	0.8942	0.055
Mof_H 	H 	0.3407	0.4695	0.2709	0.095
Mof_H 	H 	0.4484	0.25	0.5359	0.138
Mof_H 	H 	0.1865	0.8957	0.7024	0.078
Mof_H 	H 	0.2792	0.3349	0.768	0.036
Mof_H 	H 	0.8181	0.9078	0.7421	0.057
Mof_H 	H 	0.1593	0.0305	0.7709	0.095
Mof_H 	H 	0.3135	0.6043	0.2024	0.077
Mof_H 	H 	0.8527	0.1765	0.3086	0.045
Mof_H 	H 	0.6748	0.733	0.5236	0.08
Mof_H 	H 	0.1103	0.2774	0.0956	0.041
Mof_H 	H 	0.8407	0.9695	0.2291	0.095
Mof_H 	H 	0.7792	0.8349	0.732	0.035
Mof_H 	H 	0.9669	0.4805	0.3942	0.055
Mof_H 	H 	0.0516	0.25	0.0359	0.137
Mof_H 	H 	0.4309	0.0427	0.0671	0.063
Mof_H 	H 	0.231	0.97	0.2308	0.079
Mof_H 	H 	0.8135	0.1043	0.2976	0.078
Mof_H 	H 	0.4669	0.9805	0.1058	0.055
Mof_H 	H 	0.3562	0.2067	0.6659	0.058
Mof_H 	H 	0.8965	0.9667	0.7672	0.128
Mof_H 	H 	0.1438	0.2933	0.1659	0.058
Mof_H 	H 	0.7413	0.2264	0.6836	0.057
Mof_H 	H 	0.7208	0.6651	0.232	0.036
Mof_H 	H 	0.6438	0.7933	0.3341	0.058
Mof_H 	H 	0.2413	0.7264	0.8164	0.057
Mof_H 	H 	0.4857	0.719	0.6336	0.057
Mof_H 	H 	0.1819	0.0922	0.2579	0.057
Mof_H 	H 	0.4699	0.6391	0.7084	0.058
Mof_H 	H 	0.3965	0.4667	0.7328	0.128
Mof_H 	H 	0.6103	0.7774	0.4044	0.041
Mof_H 	H 	0.9857	0.219	0.8664	0.057
Mof_H 	H 	0.3181	0.4078	0.7579	0.055
Mof_H 	H 	0.5301	0.3609	0.2916	0.058
Mof_H 	H 	0.3897	0.2226	0.5956	0.041
Mof_H 	H 	0.5691	0.9573	0.9329	0.063
Mof_H 	H 	0.731	0.47	0.2692	0.079
Mof_H 	H 	0.1473	0.8235	0.6914	0.045
Mof_H 	H 	0.9309	0.5427	0.4329	0.064
Mof_H 	H 	0.7712	0.2442	0.6122	0.07
Mof_H 	H 	0.7288	0.2558	0.1122	0.07
Mof_H 	H 	0.769	0.03	0.7692	0.079
Mof_H 	H 	0.9451	0.5798	0.4968	0.058
Mof_H 	H 	0.9484	0.75	0.9641	0.137
Mof_H 	H 	0.8252	0.767	0.0236	0.08
Mof_H 	H 	0.7587	0.2736	0.1836	0.057
Mof_H 	H 	0.8562	0.7067	0.8341	0.058
Mof_H 	H 	0.6819	0.5922	0.2421	0.055
Mof_H 	H 	0.0691	0.4573	0.5671	0.064
Mof_H 	H 	0.5143	0.281	0.3664	0.057
Mof_H 	H 	0.1748	0.233	0.9764	0.08
Mof_H 	H 	0.4451	0.0798	0.0032	0.058
Mof_H 	H 	0.269	0.53	0.7308	0.079
Mof_H 	H 	0.2208	0.1651	0.268	0.035
Mof_H 	H 	0.7826	0.2366	0.9738	0.1
Mof_H 	H 	0.0549	0.4202	0.5032	0.058
Mof_H 	H 	0.0301	0.8609	0.2084	0.058
Mof_H 	H 	0.1035	0.0333	0.2328	0.128
Mof_H 	H 	0.8897	0.7226	0.9044	0.041
Mof_H 	H 	0.5516	0.75	0.4641	0.138
Mof_H 	H 	0.2288	0.7558	0.3878	0.07
Mof_H 	H 	0.0331	0.5195	0.6058	0.055
Mof_H 	H 	0.0143	0.781	0.1336	0.057
Mof_H 	H 	0.7174	0.2634	0.4738	0.101
Mof_H 	H 	0.6865	0.3957	0.7976	0.077
Mof_H 	H 	0.6593	0.5305	0.7291	0.095
Mof_H 	H 	0.2174	0.7634	0.0262	0.1
Mof_H 	H 	0.3252	0.267	0.4764	0.08
Mof_H 	H 	0.6473	0.3235	0.8086	0.047
Mof_H 	H 	0.2712	0.7442	0.8878	0.07
Mof_H 	H 	0.2826	0.7366	0.5262	0.101
Mof_H 	H 	0.3527	0.6765	0.1914	0.047
Mof_H 	H 	0.2587	0.7736	0.3164	0.057
Mof_H 	H 	0.5549	0.9202	0.9968	0.058
Mof_H 	H 	0.9699	0.1391	0.7916	0.058
Mof_H 	H 	0.6035	0.5333	0.2672	0.128
Mof_C 	C 	0.97539	0.51879	0.49025	0.032
Mof_C 	C 	0.04579	0.71609	0.81976	-0.07
Mof_C 	C 	0.97876	0.23676	0.98265	0.139
Mof_C 	C 	0.03607	0.97667	0.23205	0.13
Mof_C 	C 	0.51556	0.94406	0.05474	-0.074
Mof_C 	C 	0.02367	0.40887	0.4127	0.371
Mof_C 	C 	0.49358	0.59058	0.22276	-0.011
Mof_C 	C 	0.6359	0.2749	0.41722	-0.087
Mof_C 	C 	0.92186	0.26426	0.09575	-0.041
Mof_C 	C 	0.48444	0.05594	0.94526	-0.074
Mof_C 	C 	0.41797	0.45497	0.27304	-0.081
Mof_C 	C 	0.50642	0.40942	0.77724	-0.011
Mof_C 	C 	0.43829	0.21409	0.65543	-0.013
Mof_C 	C 	0.71964	0.71464	0.60473	0.392
Mof_C 	C 	0.0401	0.178	0.28911	-0.14
Mof_C 	C 	0.06171	0.28591	0.15543	-0.014
Mof_C 	C 	0.35121	0.58801	0.71923	-0.07
Mof_C 	C 	0.59646	0.72276	0.58141	-0.068
Mof_C 	C 	0.17086	0.72646	0.83481	-0.003
Mof_C 	C 	0.5429	0.9818	0.94682	-0.082
Mof_C 	C 	0.11364	0.74674	0.94967	0.252
Mof_C 	C 	0.54822	0.71802	0.2009	0.342
Mof_C 	C 	0.21067	0.11297	0.78915	0.421
Mof_C 	C 	0.28036	0.28536	0.39527	0.392
Mof_C 	C 	0.86141	0.23331	0.95995	-0.077
Mof_C 	C 	0.40354	0.27724	0.41859	-0.068
Mof_C 	C 	0.88636	0.25326	0.05033	0.252
Mof_C 	C 	0.21964	0.21464	0.89527	0.392
Mof_C 	C 	0.57814	0.23574	0.59575	-0.043
Mof_C 	C 	0.3108	0.7632	0.37732	-0.039
Mof_C 	C 	0.95421	0.28391	0.18024	-0.07
Mof_C 	C 	0.0968	0.2311	0.96154	-0.091
Mof_C 	C 	0.47876	0.73676	0.51735	0.139
Mof_C 	C 	0.11594	0.10914	0.26804	-0.078
Mof_C 	C 	0.97633	0.59113	0.5873	0.371
Mof_C 	C 	0.46107	0.22397	0.61367	-0.029
Mof_C 	C 	0.0221	0.5191	0.57648	-0.001
Mof_C 	C 	0.8641	0.2251	0.91722	-0.087
Mof_C 	C 	0.36141	0.73331	0.54005	-0.077
Mof_C 	C 	0.15189	0.95529	0.22782	-0.086
Mof_C 	C 	0.00642	0.90942	0.72276	-0.007
Mof_C 	C 	0.24661	0.71741	0.60624	0.418
Mof_C 	C 	0.46135	0.54435	0.23132	0.229
Mof_C 	C 	0.52675	0.20565	0.72426	0.343
Mof_C 	C 	0.38406	0.39086	0.76804	-0.073
Mof_C 	C 	0.9686	0.11	0.78556	0.01
Mof_C 	C 	0.96393	0.02333	0.76795	0.13
Mof_C 	C 	0.5968	0.7311	0.53846	-0.091
Mof_C 	C 	0.25339	0.78259	0.10624	0.418
Mof_C 	C 	0.98444	0.55594	0.55474	-0.075
Mof_C 	C 	0.47633	0.09113	0.9127	0.37
Mof_C 	C 	0.02461	0.48121	0.50975	0.032
Mof_C 	C 	0.07814	0.73574	0.90425	-0.041
Mof_C 	C 	0.76925	0.38885	0.29287	0.408
Mof_C 	C 	0.54579	0.21609	0.68024	-0.071
Mof_C 	C 	0.46393	0.52333	0.73205	0.132
Mof_C 	C 	0.41855	0.65965	0.20177	0.035
Mof_C 	C 	0.01629	0.77819	0.10414	0.016
Mof_C 	C 	0.52367	0.90887	0.0873	0.37
Mof_C 	C 	0.01556	0.44406	0.44526	-0.075
Mof_C 	C 	0.97325	0.29435	0.22426	0.345
Mof_C 	C 	0.4686	0.61	0.71444	0.01
Mof_C 	C 	0.4571	0.0182	0.05318	-0.082
Mof_C 	C 	0.88406	0.89086	0.73196	-0.078
Mof_C 	C 	0.53865	0.45565	0.76868	0.229
Mof_C 	C 	0.96519	0.55499	0.51124	-0.04
Mof_C 	C 	0.98371	0.22181	0.89586	0.016
Mof_C 	C 	0.08203	0.04503	0.77304	-0.079
Mof_C 	C 	0.26925	0.88885	0.20713	0.408
Mof_C 	C 	0.52124	0.26324	0.48265	0.139
Mof_C 	C 	0.63859	0.26669	0.45995	-0.077
Mof_C 	C 	0.90354	0.77724	0.08141	-0.068
Mof_C 	C 	0.61594	0.60914	0.23196	-0.073
Mof_C 	C 	0.41532	0.41112	0.28145	-0.07
Mof_C 	C 	0.6892	0.2368	0.62268	-0.039
Mof_C 	C 	0.9571	0.5182	0.44682	-0.082
Mof_C 	C 	0.02675	0.70565	0.77574	0.345
Mof_C 	C 	0.13947	0.15287	0.27402	0.043
Mof_C 	C 	0.58203	0.54503	0.72696	-0.081
Mof_C 	C 	0.39538	0.61628	0.20808	-0.067
Mof_C 	C 	0.9599	0.822	0.71089	-0.14
Mof_C 	C 	0.14879	0.91199	0.21923	-0.07
Mof_C 	C 	0.96135	0.04435	0.26868	0.229
Mof_C 	C 	0.82914	0.27354	0.16519	-0.003
Mof_C 	C 	0.04822	0.21802	0.2991	0.341
Mof_C 	C 	0.95178	0.78198	0.7009	0.341
Mof_C 	C 	0.58468	0.58888	0.71855	-0.07
Mof_C 	C 	0.42186	0.76426	0.40425	-0.043
Mof_C 	C 	0.3641	0.7251	0.58278	-0.087
Mof_C 	C 	0.10462	0.88372	0.70808	-0.071
Mof_C 	C 	0.4779	0.9809	0.07648	-0.002
Mof_C 	C 	0.60462	0.38372	0.79192	-0.067
Mof_C 	C 	0.89538	0.11628	0.29192	-0.071
Mof_C 	C 	0.28933	0.38703	0.28915	0.421
Mof_C 	C 	0.5314	0.39	0.28556	0.01
Mof_C 	C 	0.93829	0.71409	0.84457	-0.014
Mof_C 	C 	0.47325	0.79435	0.27574	0.343
Mof_C 	C 	0.02124	0.76324	0.01735	0.139
Mof_C 	C 	0.36053	0.34713	0.77402	0.039
Mof_C 	C 	0.0429	0.4818	0.55318	-0.082
Mof_C 	C 	0.0314	0.89	0.21444	0.01
Mof_C 	C 	0.4599	0.322	0.78911	-0.136
Mof_C 	C 	0.32914	0.77354	0.33481	-0.003
Mof_C 	C 	0.53481	0.94501	0.01124	-0.041
Mof_C 	C 	0.45178	0.28198	0.7991	0.342
Mof_C 	C 	0.84811	0.04471	0.77218	-0.086
Mof_C 	C 	0.64879	0.41199	0.28077	-0.07
Mof_C 	C 	0.67086	0.22646	0.66519	-0.003
Mof_C 	C 	0.1359	0.7749	0.08278	-0.087
Mof_C 	C 	0.71067	0.61297	0.71085	0.421
Mof_C 	C 	0.75339	0.28259	0.39376	0.418
Mof_C 	C 	0.85121	0.08801	0.78077	-0.07
Mof_C 	C 	0.08468	0.08888	0.78145	-0.07
Mof_C 	C 	0.58145	0.34035	0.79823	0.035
Mof_C 	C 	0.51629	0.27819	0.39586	0.016
Mof_C 	C 	0.53607	0.47667	0.26795	0.132
Mof_C 	C 	0.91797	0.95497	0.22696	-0.079
Mof_C 	C 	0.48371	0.72181	0.60414	0.016
Mof_C 	C 	0.4032	0.2689	0.46154	-0.091
Mof_C 	C 	0.78036	0.78536	0.10473	0.392
Mof_C 	C 	0.8108	0.2632	0.12268	-0.04
Mof_C 	C 	0.96107	0.72397	0.88633	-0.031
Mof_C 	C 	0.47539	0.01879	0.00975	0.031
Mof_C 	C 	0.9779	0.4809	0.42352	-0.001
Mof_C 	C 	0.53893	0.77603	0.38633	-0.029
Mof_C 	C 	0.99358	0.09058	0.27724	-0.007
Mof_C 	C 	0.38636	0.75326	0.44967	0.253
Mof_C 	C 	0.61364	0.24674	0.55033	0.253
Mof_C 	C 	0.5401	0.678	0.21089	-0.136
Mof_C 	C 	0.78933	0.88703	0.21085	0.421
Mof_C 	C 	0.65189	0.45529	0.27218	-0.087
Mof_C 	C 	0.91532	0.91112	0.21855	-0.07
Mof_C 	C 	0.03865	0.95565	0.73132	0.229
Mof_C 	C 	0.73075	0.11115	0.79287	0.408
Mof_C 	C 	0.1892	0.7368	0.87732	-0.04
Mof_C 	C 	0.52461	0.98121	0.99025	0.031
Mof_C 	C 	0.86053	0.84713	0.72598	0.043
Mof_C 	C 	0.46519	0.05499	0.98876	-0.041
Mof_C 	C 	0.08145	0.84035	0.70177	0.04
Mof_C 	C 	0.9032	0.7689	0.03846	-0.091
Mof_C 	C 	0.23075	0.61115	0.70713	0.408
Mof_C 	C 	0.34811	0.54471	0.72782	-0.087
Mof_C 	C 	0.56171	0.78591	0.34457	-0.013
Mof_C 	C 	0.03481	0.44501	0.48876	-0.04
Mof_C 	C 	0.03893	0.27603	0.11367	-0.031
Mof_C 	C 	0.91855	0.15965	0.29823	0.04
Mof_C 	C 	0.09646	0.22276	0.91859	-0.068
Mof_C 	C 	0.63947	0.65287	0.22598	0.039
Mof_C 	C 	0.5221	0.0191	0.92352	-0.002
Mof_C 	C 	0.74661	0.21741	0.89376	0.418
Mof_C 	C 	0.13859	0.76669	0.04005	-0.077
Mof_C 	C 	0.45421	0.78391	0.31976	-0.071
Mof_N 	N 	0.96127	0.98086	0.75634	-0.238
Mof_N 	N 	0.9756	0.2471	0.02475	-0.266
Mof_N 	N 	0.4756	0.7471	0.47525	-0.267
Mof_N 	N 	0.46127	0.48086	0.74366	-0.238
Mof_N 	N 	0.03873	0.01914	0.24366	-0.238
Mof_N 	N 	0.53873	0.51914	0.25634	-0.238
Mof_N 	N 	0.0244	0.7529	0.97525	-0.266
Mof_N 	N 	0.5244	0.2529	0.52475	-0.267
Mof_O 	O 	0.82019	0.70904	0.58202	-0.479
Mof_O 	O 	0.78557	0.79155	0.14285	-0.488
Mof_O 	O 	0.17981	0.29096	0.41798	-0.479
Mof_O 	O 	0.16707	0.24336	0.28845	-0.43
Mof_O 	O 	0.76867	0.25128	0.04347	-0.235
Mof_O 	O 	0.45651	0.73413	0.18432	-0.451
Mof_O 	O 	0.98085	0.62889	0.57559	-0.489
Mof_O 	O 	0.37258	0.78404	0.25415	-0.436
Mof_O 	O 	0.52553	0.92127	0.12673	-0.48
Mof_O 	O 	0.25104	0.71933	0.64519	-0.477
Mof_O 	O 	0.4749	0.17038	0.83316	-0.95
Mof_O 	O 	0.42166	0.1886	0.73423	-0.397
Mof_O 	O 	0.74896	0.28067	0.35481	-0.477
Mof_O 	O 	0.33293	0.25664	0.78845	-0.429
Mof_O 	O 	0.02553	0.42127	0.37327	-0.48
Mof_O 	O 	0.70655	0.65174	0.71172	-0.492
Mof_O 	O 	0.26867	0.75128	0.45653	-0.235
Mof_O 	O 	0.28557	0.29155	0.35715	-0.488
Mof_O 	O 	0.26245	0.85119	0.20009	-0.49
Mof_O 	O 	0.73755	0.14881	0.79991	-0.49
Mof_O 	O 	0.87508	0.41049	0.29341	-0.477
Mof_O 	O 	0.12492	0.58951	0.70659	-0.477
Mof_O 	O 	0.47447	0.07873	0.87327	-0.48
Mof_O 	O 	0.20655	0.15174	0.78828	-0.491
Mof_O 	O 	0.66707	0.74336	0.21155	-0.429
Mof_O 	O 	0.63199	0.46874	0.78503	-0.232
Mof_O 	O 	0.69254	0.90878	0.20549	-0.496
Mof_O 	O 	0.62492	0.08951	0.79341	-0.477
Mof_O 	O 	0.30746	0.09122	0.79451	-0.496
Mof_O 	O 	0.86801	0.03126	0.28503	-0.232
Mof_O 	O 	0.97447	0.57873	0.62673	-0.48
Mof_O 	O 	0.12742	0.71596	0.75415	-0.436
Mof_O 	O 	0.23755	0.64881	0.70009	-0.489
Mof_O 	O 	0.9749	0.67038	0.66684	-0.95
Mof_O 	O 	0.79345	0.84826	0.21172	-0.491
Mof_O 	O 	0.19254	0.40878	0.29451	-0.496
Mof_O 	O 	0.76245	0.35119	0.29991	-0.489
Mof_O 	O 	0.71443	0.70845	0.64285	-0.488
Mof_O 	O 	0.32019	0.20904	0.91798	-0.479
Mof_O 	O 	0.04349	0.76587	0.68432	-0.45
Mof_O 	O 	0.37508	0.91049	0.20659	-0.477
Mof_O 	O 	0.36801	0.53126	0.21497	-0.232
Mof_O 	O 	0.83293	0.75664	0.71155	-0.43
Mof_O 	O 	0.80746	0.59122	0.70549	-0.496
Mof_O 	O 	0.95651	0.23413	0.31568	-0.45
Mof_O 	O 	0.29345	0.34826	0.28828	-0.492
Mof_O 	O 	0.62742	0.21596	0.74585	-0.436
Mof_O 	O 	0.73133	0.24872	0.54347	-0.235
Mof_O 	O 	0.48085	0.12889	0.92441	-0.489
Mof_O 	O 	0.0251	0.32962	0.33316	-0.95
Mof_O 	O 	0.67981	0.79096	0.08202	-0.479
Mof_O 	O 	0.35524	0.78892	0.08563	-0.475
Mof_O 	O 	0.54349	0.26587	0.81568	-0.451
Mof_O 	O 	0.13199	0.96874	0.71497	-0.232
Mof_O 	O 	0.51915	0.87111	0.07559	-0.489
Mof_O 	O 	0.64476	0.21108	0.91437	-0.475
Mof_O 	O 	0.07834	0.3114	0.23423	-0.399
Mof_O 	O 	0.85524	0.28892	0.41437	-0.474
Mof_O 	O 	0.57834	0.8114	0.26577	-0.397
Mof_O 	O 	0.75104	0.21933	0.85481	-0.478
Mof_O 	O 	0.92166	0.6886	0.76577	-0.399
Mof_O 	O 	0.24896	0.78067	0.14519	-0.478
Mof_O 	O 	0.87258	0.28404	0.24585	-0.436
Mof_O 	O 	0.01915	0.37111	0.42441	-0.489
Mof_O 	O 	0.14476	0.71108	0.58563	-0.474
Mof_O 	O 	0.5251	0.82962	0.16684	-0.95
Mof_O 	O 	0.21443	0.20845	0.85715	-0.488
Mof_O 	O 	0.23133	0.74872	0.95653	-0.235
_end
