data_functionalizedCrystal
_audit_creation_method	'EQeq! by Chris Wilmer'
_symmetry_space_group_name_H-M	'P1'
_symmetry_Int_Tables_number	1
_symmetry_cell_setting	triclinic
loop_
_symmetry_equiv_pos_as_xyz
  x,y,z
_cell_length_a	11.933
_cell_length_b	11.933
_cell_length_c	8.5486
_cell_angle_alpha	90
_cell_angle_beta	90
_cell_angle_gamma	90
loop_
_atom_site_label
_atom_site_type_symbol
_atom_site_fract_x
_atom_site_fract_y
_atom_site_fract_z
_atom_site_charge
Mof_Ag	Ag	0.5	0.5	0.25	0.612
Mof_Ag	Ag	0.5	0.5	0.75	0.613
Mof_Ag	Ag	5.18437e-33	0.5	-0	0.462
Mof_Ag	Ag	0.5	0	0.5	0.463
Mof_C 	C 	0.2416	0.5	0.1234	0.113
Mof_C 	C 	0.2041	0.5	0.2906	-0.121
Mof_N 	N 	0.349	0.5	0.0815	-0.171
Mof_C 	C 	0.7584	0.5	0.1234	0.118
Mof_C 	C 	0.7959	0.5	0.2906	-0.09
Mof_N 	N 	0.651	0.5	0.0815	-0.169
Mof_C 	C 	0.5	0.2416	0.6234	0.113
Mof_C 	C 	0.5	0.2041	0.7906	-0.121
Mof_N 	N 	0.5	0.349	0.5815	-0.17
Mof_C 	C 	0.5	0.7584	0.6234	0.118
Mof_C 	C 	0.5	0.7959	0.7906	-0.089
Mof_N 	N 	0.5	0.651	0.5815	-0.168
Mof_C 	C 	0.7584	0.5	0.8766	0.118
Mof_C 	C 	0.7959	0.5	0.7094	-0.09
Mof_N 	N 	0.651	0.5	0.9185	-0.168
Mof_C 	C 	0.2416	0.5	0.8766	0.116
Mof_C 	C 	0.2041	0.5	0.7094	-0.121
Mof_N 	N 	0.349	0.5	0.9185	-0.169
Mof_C 	C 	0.5	0.2416	0.3766	0.114
Mof_C 	C 	0.5	0.2041	0.2094	-0.122
Mof_N 	N 	0.5	0.349	0.4185	-0.17
Mof_C 	C 	0.5	0.7584	0.3766	0.118
Mof_C 	C 	0.5	0.7959	0.2094	-0.091
Mof_N 	N 	0.5	0.651	0.4185	-0.168
Mof_N 	N 	0.1724	0.5	-0	-0.23
Mof_N 	N 	0.8276	0.5	-0	-0.211
Mof_N 	N 	0.5	0.1724	0.5	-0.229
Mof_N 	N 	0.5	0.8276	0.5	-0.21
_end
