data_functionalizedCrystal
_audit_creation_method	'EQeq! by Chris Wilmer'
_symmetry_space_group_name_H-M	'P1'
_symmetry_Int_Tables_number	1
_symmetry_cell_setting	triclinic
loop_
_symmetry_equiv_pos_as_xyz
  x,y,z
_cell_length_a	7.3695
_cell_length_b	13.099
_cell_length_c	13.448
_cell_angle_alpha	80.353
_cell_angle_beta	84.93
_cell_angle_gamma	82.795
loop_
_atom_site_label
_atom_site_type_symbol
_atom_site_fract_x
_atom_site_fract_y
_atom_site_fract_z
_atom_site_charge
Mof_Cu	Cu	0.79566	0.30929	0.79313	0.849
Mof_N 	N 	0.9865	0.3845	0.7013	-0.25
Mof_C 	C 	0.1329	0.327	0.665	0.089
Mof_H 	H 	0.1386	0.2533	0.6821	-0.021
Mof_C 	C 	0.2751	0.3674	0.6047	-0.169
Mof_H 	H 	0.3742	0.3222	0.5806	0.086
Mof_C 	C 	0.2733	0.4751	0.579	0.109
Mof_C 	C 	0.12	0.5349	0.6144	-0.168
Mof_H 	H 	0.1106	0.6087	0.5981	0.08
Mof_C 	C 	0.9819	0.4879	0.6729	0.089
Mof_H 	H 	0.8774	0.531	0.6944	-0.024
Mof_C 	C 	0.4255	0.5245	0.5206	-0.092
Mof_H 	H 	0.4166	0.5984	0.5115	0.054
Mof_N 	N 	0.6819	0.2222	0.7043	-0.238
Mof_C 	C 	0.5451	0.1656	0.7434	0.082
Mof_H 	H 	0.4943	0.1723	0.8098	-0.014
Mof_C 	C 	0.4751	0.0986	0.6924	-0.163
Mof_H 	H 	0.3792	0.0598	0.7241	0.081
Mof_C 	C 	0.5432	0.0871	0.5952	0.105
Mof_C 	C 	0.6837	0.1464	0.5535	-0.16
Mof_H 	H 	0.7347	0.1421	0.4867	0.077
Mof_C 	C 	0.7486	0.2115	0.6098	0.076
Mof_H 	H 	0.8453	0.2506	0.5803	-0.016
Mof_C 	C 	0.4673	0.0135	0.5439	-0.085
Mof_H 	H 	0.3629	0.9828	0.5762	0.052
Mof_N 	N 	0.5885	0.3812	0.87116	-0.25
Mof_C 	C 	0.5515	0.3501	0.9701	0.082
Mof_H 	H 	0.6413	0.3043	0.007	-0.021
Mof_C 	C 	0.3878	0.3818	0.0212	-0.158
Mof_H 	H 	0.3683	0.3584	0.0917	0.075
Mof_C 	C 	0.2521	0.4478	0.9696	0.101
Mof_C 	C 	0.2946	0.4836	0.8673	-0.158
Mof_H 	H 	0.2094	0.5316	0.8292	0.078
Mof_C 	C 	0.4609	0.4487	0.8221	0.08
Mof_H 	H 	0.4868	0.4738	0.7524	-0.02
Mof_C 	C 	0.0746	0.4764	0.022	-0.092
Mof_H 	H 	0.0656	0.4598	0.0936	0.047
Mof_N 	N 	0.9533	0.1899	0.8845	-0.232
Mof_C 	C 	0.9955	0.0951	0.8571	0.074
Mof_H 	H 	0.919	0.0743	0.8126	-0.009
Mof_C 	C 	0.1439	0.0264	0.89	-0.152
Mof_H 	H 	0.1658	0.9598	0.8693	0.074
Mof_C 	C 	0.2612	0.0547	0.9535	0.101
Mof_C 	C 	0.2124	0.1508	0.9863	-0.154
Mof_H 	H 	0.2836	0.1724	0.0329	0.077
Mof_C 	C 	0.0608	0.214	0.9507	0.077
Mof_H 	H 	0.0302	0.2787	0.9745	-0.015
Mof_C 	C 	0.4287	0.9861	0.9803	-0.086
Mof_H 	H 	0.4362	0.9162	0.9685	0.051
Mof_Cu	Cu	0.20434	0.69071	0.20687	0.85
Mof_N 	N 	0.0135	0.6155	0.2987	-0.249
Mof_C 	C 	0.8671	0.673	0.335	0.089
Mof_H 	H 	0.8614	0.7467	0.3179	-0.021
Mof_C 	C 	0.7249	0.6326	0.3953	-0.169
Mof_H 	H 	0.6258	0.6778	0.4194	0.086
Mof_C 	C 	0.7267	0.5249	0.421	0.109
Mof_C 	C 	0.88	0.4651	0.3856	-0.168
Mof_H 	H 	0.8894	0.3913	0.4019	0.08
Mof_C 	C 	0.0181	0.5121	0.3271	0.089
Mof_H 	H 	0.1226	0.469	0.3056	-0.024
Mof_C 	C 	0.5745	0.4755	0.4794	-0.092
Mof_H 	H 	0.5834	0.4016	0.4885	0.054
Mof_N 	N 	0.3181	0.7778	0.2957	-0.238
Mof_C 	C 	0.4549	0.8344	0.2566	0.082
Mof_H 	H 	0.5057	0.8277	0.1902	-0.014
Mof_C 	C 	0.5249	0.9014	0.3076	-0.163
Mof_H 	H 	0.6208	0.9402	0.2759	0.081
Mof_C 	C 	0.4568	0.9129	0.4048	0.105
Mof_C 	C 	0.3163	0.8536	0.4465	-0.16
Mof_H 	H 	0.2653	0.8579	0.5133	0.077
Mof_C 	C 	0.2514	0.7885	0.3902	0.076
Mof_H 	H 	0.1547	0.7494	0.4197	-0.016
Mof_C 	C 	0.5327	0.9865	0.4561	-0.085
Mof_H 	H 	0.6371	0.0172	0.4238	0.052
Mof_N 	N 	0.4115	0.6188	0.12884	-0.25
Mof_C 	C 	0.4485	0.6499	0.0299	0.082
Mof_H 	H 	0.3587	0.6957	0.993	-0.021
Mof_C 	C 	0.6122	0.6182	0.9788	-0.158
Mof_H 	H 	0.6317	0.6416	0.9083	0.075
Mof_C 	C 	0.7479	0.5522	0.0304	0.101
Mof_C 	C 	0.7054	0.5164	0.1327	-0.158
Mof_H 	H 	0.7906	0.4684	0.1708	0.078
Mof_C 	C 	0.5391	0.5513	0.1779	0.08
Mof_H 	H 	0.5132	0.5262	0.2476	-0.02
Mof_C 	C 	0.9254	0.5236	0.978	-0.092
Mof_H 	H 	0.9344	0.5402	0.9064	0.047
Mof_N 	N 	0.0467	0.8101	0.1155	-0.232
Mof_C 	C 	0.0045	0.9049	0.1429	0.074
Mof_H 	H 	0.081	0.9257	0.1874	-0.009
Mof_C 	C 	0.8561	0.9736	0.11	-0.152
Mof_H 	H 	0.8342	0.0402	0.1307	0.074
Mof_C 	C 	0.7388	0.9453	0.0465	0.101
Mof_C 	C 	0.7876	0.8492	0.0137	-0.154
Mof_H 	H 	0.7164	0.8276	0.9671	0.077
Mof_C 	C 	0.9392	0.786	0.0493	0.077
Mof_H 	H 	0.9698	0.7213	0.0255	-0.015
Mof_C 	C 	0.5713	0.0139	0.0197	-0.086
Mof_H 	H 	0.5638	0.0838	0.0315	0.051
_end
