data_functionalizedCrystal
_audit_creation_method	'EQeq! by Chris Wilmer'
_symmetry_space_group_name_H-M	'P1'
_symmetry_Int_Tables_number	1
_symmetry_cell_setting	triclinic
loop_
_symmetry_equiv_pos_as_xyz
  x,y,z
_cell_length_a	10.0957
_cell_length_b	12.9606
_cell_length_c	14.3518
_cell_angle_alpha	90
_cell_angle_beta	90
_cell_angle_gamma	105.77
loop_
_atom_site_label
_atom_site_type_symbol
_atom_site_fract_x
_atom_site_fract_y
_atom_site_fract_z
_atom_site_charge
Mof_Cd	Cd	0.90877	0.06047	0.93377	0.494
Mof_Cd	Cd	0.59123	0.43953	0.43377	0.498
Mof_Cd	Cd	0.09123	0.93953	0.06623	0.495
Mof_Cd	Cd	0.40877	0.56047	0.56623	0.499
Mof_H 	H 	0.6558	0.2435	0.6881	0.03
Mof_H 	H 	0.2681	0.2473	0.7432	0.034
Mof_H 	H 	0.4533	0.0734	0.9017	0.038
Mof_H 	H 	0.8442	0.2565	0.1881	0.03
Mof_H 	H 	0.2319	0.2527	0.2432	0.034
Mof_H 	H 	0.0467	0.4266	0.4017	0.039
Mof_H 	H 	0.3442	0.7565	0.3119	0.03
Mof_H 	H 	0.7319	0.7527	0.2568	0.034
Mof_H 	H 	0.5467	0.9266	0.0983	0.038
Mof_H 	H 	0.1558	0.7435	0.8119	0.03
Mof_H 	H 	0.7681	0.7473	0.7568	0.034
Mof_H 	H 	0.9533	0.5734	0.5983	0.039
Mof_C 	C 	0.7043	0.126	0.83	0.327
Mof_C 	C 	0.4699	0.3373	0.6258	0.33
Mof_C 	C 	0.2107	0.1129	0.8879	0.328
Mof_C 	C 	0.5754	0.1553	0.8005	-0.114
Mof_C 	C 	0.5772	0.2222	0.7248	0.048
Mof_C 	C 	0.4626	0.2577	0.7032	-0.106
Mof_C 	C 	0.3446	0.223	0.7569	0.047
Mof_C 	C 	0.339	0.1529	0.83054	-0.105
Mof_C 	C 	0.4558	0.1199	0.85201	0.035
Mof_C 	C 	0.7957	0.374	0.33	0.327
Mof_C 	C 	0.0301	0.1627	0.1258	0.327
Mof_C 	C 	0.2893	0.3871	0.3879	0.328
Mof_C 	C 	0.9246	0.3447	0.3005	-0.113
Mof_C 	C 	0.9228	0.2778	0.2248	0.049
Mof_C 	C 	0.0374	0.2423	0.2032	-0.107
Mof_C 	C 	0.1554	0.277	0.2569	0.047
Mof_C 	C 	0.161	0.3471	0.33054	-0.105
Mof_C 	C 	0.0442	0.3801	0.35201	0.034
Mof_C 	C 	0.2957	0.874	0.17	0.327
Mof_C 	C 	0.5301	0.6627	0.3742	0.33
Mof_C 	C 	0.7893	0.8871	0.1121	0.328
Mof_C 	C 	0.4246	0.8447	0.1995	-0.114
Mof_C 	C 	0.4228	0.7778	0.2752	0.048
Mof_C 	C 	0.5374	0.7423	0.2968	-0.106
Mof_C 	C 	0.6554	0.777	0.2431	0.047
Mof_C 	C 	0.661	0.8471	0.16946	-0.105
Mof_C 	C 	0.5442	0.8801	0.14799	0.035
Mof_C 	C 	0.2043	0.626	0.67	0.327
Mof_C 	C 	0.9699	0.8373	0.8742	0.327
Mof_C 	C 	0.7107	0.6129	0.6121	0.328
Mof_C 	C 	0.0754	0.6553	0.6995	-0.113
Mof_C 	C 	0.0772	0.7222	0.7752	0.049
Mof_C 	C 	0.9626	0.7577	0.7968	-0.107
Mof_C 	C 	0.8446	0.723	0.7431	0.047
Mof_C 	C 	0.839	0.6529	0.66946	-0.105
Mof_C 	C 	0.9558	0.6199	0.64799	0.034
Mof_O 	O 	0.6961	0.0686	0.90148	-0.295
Mof_O 	O 	0.8105	0.1585	0.7868	-0.282
Mof_O 	O 	0.547	0.3325	0.55832	-0.288
Mof_O 	O 	0.3994	0.40284	0.63665	-0.289
Mof_O 	O 	0.1043	0.13797	0.86183	-0.286
Mof_O 	O 	0.2189	0.057	0.95689	-0.284
Mof_O 	O 	0.8039	0.4314	0.40148	-0.294
Mof_O 	O 	0.6895	0.3415	0.2868	-0.281
Mof_O 	O 	0.953	0.1675	0.05832	-0.285
Mof_O 	O 	0.1006	0.09716	0.13665	-0.287
Mof_O 	O 	0.3957	0.36203	0.36183	-0.288
Mof_O 	O 	0.2811	0.443	0.45689	-0.286
Mof_O 	O 	0.3039	0.9314	0.09852	-0.295
Mof_O 	O 	0.1895	0.8415	0.2132	-0.282
Mof_O 	O 	0.453	0.6675	0.44168	-0.288
Mof_O 	O 	0.6006	0.59716	0.36335	-0.289
Mof_O 	O 	0.8957	0.86203	0.13817	-0.286
Mof_O 	O 	0.7811	0.943	0.04311	-0.284
Mof_O 	O 	0.1961	0.5686	0.59852	-0.294
Mof_O 	O 	0.3105	0.6585	0.7132	-0.281
Mof_O 	O 	0.047	0.8325	0.94168	-0.285
Mof_O 	O 	0.8994	0.90284	0.86335	-0.287
Mof_O 	O 	0.6043	0.63797	0.63817	-0.288
Mof_O 	O 	0.7189	0.557	0.54311	-0.286
Mof_H 	H 	0.1008	0.2937	0.5958	0.111
Mof_H 	H 	0.1047	0.4064	0.5932	0.132
Mof_H 	H 	0.0141	0.4049	0.7367	0.168
Mof_H 	H 	0.1625	0.3888	0.7357	0.172
Mof_H 	H 	0.034	0.2899	0.7489	0.186
Mof_H 	H 	0.8666	0.2443	0.6118	0.169
Mof_H 	H 	0.9153	0.3004	0.5162	0.163
Mof_H 	H 	0.8716	0.3652	0.5974	0.17
Mof_C 	C 	0.0682	0.3578	0.7183	-0.408
Mof_C 	C 	0.9156	0.3102	0.5825	-0.396
Mof_N 	N 	0.0588	0.3422	0.6166	-0.132
Mof_H 	H 	0.3992	0.2063	0.0958	0.111
Mof_H 	H 	0.3953	0.0936	0.0932	0.133
Mof_H 	H 	0.4859	0.0951	0.2367	0.167
Mof_H 	H 	0.3375	0.1112	0.2357	0.171
Mof_H 	H 	0.466	0.2101	0.2489	0.185
Mof_H 	H 	0.6334	0.2557	0.1118	0.169
Mof_H 	H 	0.5847	0.1996	0.0162	0.164
Mof_H 	H 	0.6284	0.1348	0.0974	0.17
Mof_C 	C 	0.4318	0.1422	0.2183	-0.407
Mof_C 	C 	0.5844	0.1898	0.0825	-0.395
Mof_N 	N 	0.4412	0.1578	0.1166	-0.133
Mof_H 	H 	0.8992	0.7063	0.4042	0.111
Mof_H 	H 	0.8953	0.5936	0.4068	0.132
Mof_H 	H 	0.9859	0.5951	0.2633	0.168
Mof_H 	H 	0.8375	0.6112	0.2643	0.172
Mof_H 	H 	0.966	0.7101	0.2511	0.186
Mof_H 	H 	0.1334	0.7557	0.3882	0.169
Mof_H 	H 	0.0847	0.6996	0.4838	0.163
Mof_H 	H 	0.1284	0.6348	0.4026	0.17
Mof_C 	C 	0.9318	0.6422	0.2817	-0.408
Mof_C 	C 	0.0844	0.6898	0.4175	-0.396
Mof_N 	N 	0.9412	0.6578	0.3834	-0.132
Mof_H 	H 	0.6008	0.7937	0.9042	0.111
Mof_H 	H 	0.6047	0.9064	0.9068	0.133
Mof_H 	H 	0.5141	0.9049	0.7633	0.167
Mof_H 	H 	0.6625	0.8888	0.7643	0.171
Mof_H 	H 	0.534	0.7899	0.7511	0.185
Mof_H 	H 	0.3666	0.7443	0.8882	0.169
Mof_H 	H 	0.4153	0.8004	0.9838	0.164
Mof_H 	H 	0.3716	0.8652	0.9026	0.17
Mof_C 	C 	0.5682	0.8578	0.7817	-0.407
Mof_C 	C 	0.4156	0.8102	0.9175	-0.395
Mof_N 	N 	0.5588	0.8422	0.8834	-0.133
_end
