data_functionalizedCrystal
_audit_creation_method	'EQeq! by Chris Wilmer'
_symmetry_space_group_name_H-M	'P1'
_symmetry_Int_Tables_number	1
_symmetry_cell_setting	triclinic
loop_
_symmetry_equiv_pos_as_xyz
  x,y,z
_cell_length_a	12.5087
_cell_length_b	32.165
_cell_length_c	7.6022
_cell_angle_alpha	90
_cell_angle_beta	98.833
_cell_angle_gamma	90
loop_
_atom_site_label
_atom_site_type_symbol
_atom_site_fract_x
_atom_site_fract_y
_atom_site_fract_z
_atom_site_charge
Mof_Dy	Dy	0.97101	0.61496	0.19016	1.645
Mof_O 	O 	0.1329	0.5913	0.0988	-0.417
Mof_O 	O 	0.816	0.58418	0.2756	-0.463
Mof_Cd	Cd	0.47282	0.5507	0.18975	0.488
Mof_N 	N 	0.549	0.6019	0.0358	-0.141
Mof_Cd	Cd	0.07617	0.76236	0.44249	0.484
Mof_N 	N 	0.5768	0.66849	0.9817	-0.129
Mof_Cl	Cl	0.97405	0.73334	0.6636	-0.418
Mof_C 	C 	0.2967	0.6198	0.2526	-0.034
Mof_C 	C 	0.6514	0.6118	0.1133	-0.038
Mof_C 	C 	0.273	0.6588	0.2965	-0.019
Mof_C 	C 	0.712	0.6168	0.6707	0.071
Mof_H 	H 	0.7469	0.5933	0.7227	0.016
Mof_C 	C 	0.6685	0.6542	0.0795	-0.055
Mof_C 	C 	0.445	0.644	0.4003	0.112
Mof_C 	C 	0.2439	0.6074	0.6869	0.088
Mof_H 	H 	0.2134	0.5844	0.6238	0.011
Mof_C 	C 	0.5072	0.6376	0.9572	0.113
Mof_C 	C 	0.7613	0.6832	0.138	0.372
Mof_C 	C 	0.7158	0.5805	0.2287	0.336
Mof_N 	N 	0.7657	0.6541	0.6835	-0.134
Mof_N 	N 	0.1822	0.6415	0.6928	-0.131
Mof_C 	C 	0.2325	0.5863	0.1485	0.337
Mof_C 	C 	0.7168	0.6859	0.6016	0.077
Mof_H 	H 	0.7545	0.7109	0.6062	0.046
Mof_C 	C 	0.3965	0.6395	0.8657	0.044
Mof_C 	C 	0.5563	0.6484	0.496	0.047
Mof_C 	C 	0.2287	0.6749	0.7795	0.073
Mof_H 	H 	0.1877	0.699	0.7802	0.052
Mof_O 	O 	0.6619	0.54928	0.2732	-0.264
Mof_C 	C 	0.6118	0.6853	0.5073	-0.129
Mof_H 	H 	0.5804	0.7093	0.4536	0.099
Mof_C 	C 	0.3498	0.6046	0.7694	-0.117
Mof_H 	H 	0.3896	0.5804	0.7621	0.107
Mof_O 	O 	0.7408	0.72135	0.1268	-0.286
Mof_C 	C 	0.3346	0.6755	0.8683	-0.111
Mof_H 	H 	0.3632	0.6992	0.9278	0.092
Mof_C 	C 	0.6066	0.6133	0.5814	-0.12
Mof_H 	H 	0.57	0.588	0.5784	0.103
Mof_O 	O 	0.9042	0.56201	0.9854	-0.553
Mof_H 	H 	0.885	0.5359	0.0233	0.188
Mof_H 	H 	0.8382	0.5719	0.0075	0.14
Mof_N 	N 	0.3701	0.6749	0.3914	-0.192
Mof_H 	H 	0.3799	0.6995	0.4352	0.152
Mof_N 	N 	0.4036	0.6101	0.3172	-0.128
Mof_C 	C 	0.1786	0.6871	0.2754	0.355
Mof_Cl	Cl	0.45875	0.48745	0.9886	-0.34
Mof_O 	O 	0.1961	0.72295	0.3343	-0.287
Mof_O 	O 	0.8529	0.6685	0.1945	-0.477
Mof_O 	O 	0.0876	0.67335	0.208	-0.414
Mof_O 	O 	0.283	0.554	0.1124	-0.256
Mof_Dy	Dy	0.47101	0.11496	0.19016	1.766
Mof_O 	O 	0.6329	0.0913	0.0988	-0.458
Mof_O 	O 	0.316	0.08418	0.2756	-0.47
Mof_Cd	Cd	0.97282	0.0507	0.18975	0.449
Mof_N 	N 	0.049	0.1019	0.0358	-0.13
Mof_Cd	Cd	0.57617	0.26236	0.44249	0.443
Mof_N 	N 	0.0768	0.16849	0.9817	-0.135
Mof_Cl	Cl	0.47405	0.23334	0.6636	-0.37
Mof_C 	C 	0.7967	0.1198	0.2526	-0.039
Mof_C 	C 	0.1514	0.1118	0.1133	-0.034
Mof_C 	C 	0.773	0.1588	0.2965	-0.027
Mof_C 	C 	0.212	0.1168	0.6707	0.1
Mof_H 	H 	0.2469	0.0933	0.7227	0.01
Mof_C 	C 	0.1685	0.1542	0.0795	-0.053
Mof_C 	C 	0.945	0.144	0.4003	0.036
Mof_C 	C 	0.7439	0.1074	0.6869	0.068
Mof_H 	H 	0.7134	0.0844	0.6238	0.007
Mof_C 	C 	0.0072	0.1376	0.9572	0.182
Mof_C 	C 	0.2613	0.1832	0.138	0.376
Mof_C 	C 	0.2158	0.0805	0.2287	0.338
Mof_N 	N 	0.2657	0.1541	0.6835	-0.144
Mof_N 	N 	0.6822	0.1415	0.6928	-0.136
Mof_C 	C 	0.7325	0.0863	0.1485	0.344
Mof_C 	C 	0.2168	0.1859	0.6016	0.109
Mof_H 	H 	0.2545	0.2109	0.6062	0.037
Mof_C 	C 	0.8965	0.1395	0.8657	-0.034
Mof_C 	C 	0.0563	0.1484	0.496	0.143
Mof_C 	C 	0.7287	0.1749	0.7795	0.051
Mof_H 	H 	0.6877	0.199	0.7802	0.049
Mof_O 	O 	0.1619	0.04928	0.2732	-0.242
Mof_C 	C 	0.1118	0.1853	0.5073	-0.184
Mof_H 	H 	0.0804	0.2093	0.4536	0.135
Mof_C 	C 	0.8498	0.1046	0.7694	-0.081
Mof_H 	H 	0.8896	0.0804	0.7621	0.084
Mof_O 	O 	0.2408	0.22135	0.1268	-0.28
Mof_C 	C 	0.8346	0.1755	0.8683	-0.073
Mof_H 	H 	0.8632	0.1992	0.9278	0.069
Mof_C 	C 	0.1066	0.1133	0.5814	-0.171
Mof_H 	H 	0.07	0.088	0.5784	0.141
Mof_O 	O 	0.4042	0.06201	0.9854	-0.557
Mof_H 	H 	0.385	0.0359	0.0233	0.198
Mof_H 	H 	0.3382	0.0719	0.0075	0.14
Mof_N 	N 	0.8701	0.1749	0.3914	-0.178
Mof_H 	H 	0.8799	0.1995	0.4352	0.136
Mof_N 	N 	0.9036	0.1101	0.3172	-0.124
Mof_C 	C 	0.6786	0.1871	0.2754	0.363
Mof_Cl	Cl	0.95875	0.98745	0.9886	-0.363
Mof_O 	O 	0.6961	0.22295	0.3343	-0.295
Mof_O 	O 	0.3529	0.1685	0.1945	-0.48
Mof_O 	O 	0.5876	0.17335	0.208	-0.457
Mof_O 	O 	0.783	0.054	0.1124	-0.266
Mof_Dy	Dy	0.97101	0.38504	0.69016	1.679
Mof_O 	O 	0.1329	0.4087	0.5988	-0.414
Mof_O 	O 	0.816	0.41582	0.7756	-0.462
Mof_Cd	Cd	0.47282	0.4493	0.68975	0.497
Mof_N 	N 	0.549	0.3981	0.5358	-0.129
Mof_Cd	Cd	0.07617	0.23764	0.94249	0.497
Mof_N 	N 	0.5768	0.33151	0.4817	-0.138
Mof_Cl	Cl	0.97405	0.26666	0.1636	-0.433
Mof_C 	C 	0.2967	0.3802	0.7526	-0.03
Mof_C 	C 	0.6514	0.3882	0.6133	-0.039
Mof_C 	C 	0.273	0.3412	0.7965	-0.015
Mof_C 	C 	0.712	0.3832	0.1707	0.098
Mof_H 	H 	0.7469	0.4067	0.2227	0
Mof_C 	C 	0.6685	0.3458	0.5795	-0.038
Mof_C 	C 	0.445	0.356	0.9003	0.093
Mof_C 	C 	0.2439	0.3926	0.1869	0.085
Mof_H 	H 	0.2134	0.4156	0.1238	0.006
Mof_C 	C 	0.5072	0.3624	0.4572	0.097
Mof_C 	C 	0.7613	0.3168	0.638	0.371
Mof_C 	C 	0.7158	0.4195	0.7287	0.339
Mof_N 	N 	0.7657	0.3459	0.1835	-0.154
Mof_N 	N 	0.1822	0.3585	0.1928	-0.135
Mof_C 	C 	0.2325	0.4137	0.6485	0.339
Mof_C 	C 	0.7168	0.3141	0.1016	0.123
Mof_H 	H 	0.7545	0.2891	0.1062	0.025
Mof_C 	C 	0.3965	0.3605	0.3657	0.044
Mof_C 	C 	0.5563	0.3516	0.996	0.127
Mof_C 	C 	0.2287	0.3251	0.2795	0.069
Mof_H 	H 	0.1877	0.301	0.2802	0.049
Mof_O 	O 	0.6619	0.45072	0.7732	-0.259
Mof_C 	C 	0.6118	0.3147	0.0073	-0.232
Mof_H 	H 	0.5804	0.2907	0.9536	0.145
Mof_C 	C 	0.3498	0.3954	0.2694	-0.123
Mof_H 	H 	0.3896	0.4196	0.2621	0.103
Mof_O 	O 	0.7408	0.27865	0.6268	-0.276
Mof_C 	C 	0.3346	0.3245	0.3683	-0.116
Mof_H 	H 	0.3632	0.3008	0.4278	0.089
Mof_C 	C 	0.6066	0.3867	0.0814	-0.185
Mof_H 	H 	0.57	0.412	0.0784	0.117
Mof_O 	O 	0.9042	0.43799	0.4854	-0.605
Mof_H 	H 	0.885	0.4641	0.5233	0.214
Mof_H 	H 	0.8382	0.4281	0.5075	0.163
Mof_N 	N 	0.3701	0.3251	0.8914	-0.187
Mof_H 	H 	0.3799	0.3005	0.9352	0.154
Mof_N 	N 	0.4036	0.3899	0.8172	-0.123
Mof_C 	C 	0.1786	0.3129	0.7754	0.358
Mof_Cl	Cl	0.45875	0.51255	0.4886	-0.355
Mof_O 	O 	0.1961	0.27705	0.8343	-0.284
Mof_O 	O 	0.8529	0.3315	0.6945	-0.475
Mof_O 	O 	0.0876	0.32665	0.708	-0.415
Mof_O 	O 	0.283	0.446	0.6124	-0.25
Mof_Dy	Dy	0.47101	0.88504	0.69016	1.792
Mof_O 	O 	0.6329	0.9087	0.5988	-0.454
Mof_O 	O 	0.316	0.91582	0.7756	-0.469
Mof_Cd	Cd	0.97282	0.9493	0.68975	0.46
Mof_N 	N 	0.049	0.8981	0.5358	-0.121
Mof_Cd	Cd	0.57617	0.73763	0.94249	0.457
Mof_N 	N 	0.0768	0.83151	0.4817	-0.143
Mof_Cl	Cl	0.47405	0.76666	0.1636	-0.384
Mof_C 	C 	0.7967	0.8802	0.7526	-0.035
Mof_C 	C 	0.1514	0.8882	0.6133	-0.036
Mof_C 	C 	0.773	0.8412	0.7965	-0.023
Mof_C 	C 	0.212	0.8832	0.1707	0.12
Mof_H 	H 	0.2469	0.9067	0.2227	-0.003
Mof_C 	C 	0.1685	0.8458	0.5795	-0.038
Mof_C 	C 	0.945	0.856	0.9003	0.026
Mof_C 	C 	0.7439	0.8926	0.1869	0.062
Mof_H 	H 	0.7134	0.9156	0.1238	0.002
Mof_C 	C 	0.0072	0.8624	0.4572	0.172
Mof_C 	C 	0.2613	0.8168	0.638	0.375
Mof_C 	C 	0.2158	0.9195	0.7287	0.341
Mof_N 	N 	0.2657	0.8459	0.1835	-0.16
Mof_N 	N 	0.6822	0.8585	0.1928	-0.14
Mof_C 	C 	0.7325	0.9137	0.6485	0.346
Mof_C 	C 	0.2168	0.8141	0.1016	0.145
Mof_H 	H 	0.2545	0.7891	0.1062	0.02
Mof_C 	C 	0.8965	0.8605	0.3657	-0.04
Mof_C 	C 	0.0563	0.8516	0.996	0.203
Mof_C 	C 	0.7287	0.8251	0.2795	0.045
Mof_H 	H 	0.6877	0.801	0.2802	0.046
Mof_O 	O 	0.1619	0.95072	0.7732	-0.238
Mof_C 	C 	0.1118	0.8147	0.0073	-0.265
Mof_H 	H 	0.0804	0.7907	0.9536	0.172
Mof_C 	C 	0.8498	0.8954	0.2694	-0.084
Mof_H 	H 	0.8896	0.9196	0.2621	0.078
Mof_O 	O 	0.2408	0.77865	0.6268	-0.271
Mof_C 	C 	0.8346	0.8245	0.3683	-0.075
Mof_H 	H 	0.8632	0.8008	0.4278	0.063
Mof_C 	C 	0.1066	0.8867	0.0814	-0.22
Mof_H 	H 	0.07	0.912	0.0784	0.151
Mof_O 	O 	0.4042	0.93799	0.4854	-0.601
Mof_H 	H 	0.385	0.9641	0.5233	0.22
Mof_H 	H 	0.3382	0.9281	0.5075	0.161
Mof_N 	N 	0.8701	0.8251	0.8914	-0.175
Mof_H 	H 	0.8799	0.8005	0.9352	0.139
Mof_N 	N 	0.9036	0.8899	0.8172	-0.12
Mof_C 	C 	0.6786	0.8129	0.7754	0.366
Mof_Cl	Cl	0.95875	0.01255	0.4886	-0.38
Mof_O 	O 	0.6961	0.77705	0.8343	-0.291
Mof_O 	O 	0.3529	0.8315	0.6945	-0.478
Mof_O 	O 	0.5876	0.82665	0.708	-0.456
Mof_O 	O 	0.783	0.946	0.6124	-0.259
_end
