data_functionalizedCrystal
_audit_creation_method	'EQeq! by Chris Wilmer'
_symmetry_space_group_name_H-M	'P1'
_symmetry_Int_Tables_number	1
_symmetry_cell_setting	triclinic
loop_
_symmetry_equiv_pos_as_xyz
  x,y,z
_cell_length_a	4.88
_cell_length_b	13.11
_cell_length_c	13.2899
_cell_angle_alpha	90
_cell_angle_beta	100.579
_cell_angle_gamma	90
loop_
_atom_site_label
_atom_site_type_symbol
_atom_site_fract_x
_atom_site_fract_y
_atom_site_fract_z
_atom_site_charge
Mof_Ce	Ce	0.97778	0.7588	0.2123	2.597
Mof_Ce	Ce	0.02222	0.2588	0.7877	2.604
Mof_H 	H 	0.9387	0.4963	0.6606	0.315
Mof_H 	H 	0.0995	0.7943	0.8697	0.052
Mof_H 	H 	0.6926	0.5788	0.9494	0.011
Mof_H 	H 	0.4743	0.6613	0.6551	0.072
Mof_H 	H 	0.969	0.8434	0.6913	0.116
Mof_H 	H 	0.0028	0.7532	0.6163	0.132
Mof_H 	H 	0.4055	0.9724	0.7282	0.075
Mof_H 	H 	0.278	0.7853	0.4864	0.072
Mof_H 	H 	0.8224	0.0178	0.4976	0.086
Mof_H 	H 	0.0613	0.9963	0.3394	0.307
Mof_H 	H 	0.9005	0.2943	0.1303	0.051
Mof_H 	H 	0.3074	0.0788	0.0506	0.011
Mof_H 	H 	0.5257	0.1613	0.3449	0.072
Mof_H 	H 	0.031	0.3434	0.3087	0.115
Mof_H 	H 	0.9972	0.2532	0.3837	0.129
Mof_H 	H 	0.5945	0.4724	0.2718	0.062
Mof_H 	H 	0.722	0.2853	0.5136	0.061
Mof_H 	H 	0.1776	0.5178	0.5024	0.053
Mof_C 	C 	0.2356	0.7487	0.8508	-0.063
Mof_C 	C 	0.3974	0.6868	0.9263	-0.106
Mof_C 	C 	0.5845	0.6185	0.8993	0.046
Mof_C 	C 	0.6135	0.6084	0.7979	-0.131
Mof_C 	C 	0.458	0.67	0.7232	-0.05
Mof_C 	C 	0.2739	0.7463	0.7489	0.096
Mof_C 	C 	0.1032	0.8007	0.6656	-0.283
Mof_C 	C 	0.3099	0.8693	0.6133	0.112
Mof_C 	C 	0.4443	0.9532	0.6649	-0.127
Mof_C 	C 	0.6327	0.007	0.6222	0.007
Mof_C 	C 	0.3643	0.8419	0.5206	-0.096
Mof_C 	C 	0.5552	0.9011	0.4765	-0.052
Mof_C 	C 	0.6926	0.9811	0.5261	-0.067
Mof_C 	C 	0.6119	0.8644	0.3774	0.36
Mof_C 	C 	0.7821	0.0948	0.6832	0.314
Mof_C 	C 	0.802	0.5355	0.7666	0.421
Mof_C 	C 	0.3809	0.6994	0.0353	0.342
Mof_C 	C 	0.7644	0.2487	0.1492	-0.06
Mof_C 	C 	0.6026	0.1868	0.0737	-0.106
Mof_C 	C 	0.4155	0.1185	0.1007	0.049
Mof_C 	C 	0.3865	0.1084	0.2021	-0.133
Mof_C 	C 	0.542	0.17	0.2768	-0.046
Mof_C 	C 	0.7261	0.2463	0.2511	0.092
Mof_C 	C 	0.8968	0.3007	0.3344	-0.273
Mof_C 	C 	0.6901	0.3693	0.3867	0.085
Mof_C 	C 	0.5557	0.4532	0.3351	-0.079
Mof_C 	C 	0.3673	0.507	0.3778	-0.049
Mof_C 	C 	0.6357	0.3419	0.4794	-0.065
Mof_C 	C 	0.4448	0.4011	0.5235	-0.088
Mof_C 	C 	0.3074	0.4811	0.4739	0.007
Mof_C 	C 	0.3881	0.3644	0.6226	0.375
Mof_C 	C 	0.2179	0.5948	0.3168	0.331
Mof_C 	C 	0.198	0.0355	0.2334	0.427
Mof_C 	C 	0.6191	0.1994	0.9647	0.343
Mof_O 	O 	0.6027	0.6687	0.1084	-0.563
Mof_O 	O 	0.1609	0.7539	0.0547	-0.547
Mof_O 	O 	0.8479	0.5452	0.6747	-0.53
Mof_O 	O 	0.913	0.4606	0.824	-0.484
Mof_O 	O 	0.7397	0.1148	0.7703	-0.552
Mof_O 	O 	0.9444	0.1485	0.6422	-0.514
Mof_O 	O 	0.4434	0.8081	0.3205	-0.576
Mof_O 	O 	0.8695	0.887	0.3533	-0.49
Mof_O 	O 	0.3973	0.1687	0.8916	-0.564
Mof_O 	O 	0.8391	0.2539	0.9453	-0.547
Mof_O 	O 	0.1521	0.0452	0.3253	-0.523
Mof_O 	O 	0.087	0.9606	0.176	-0.489
Mof_O 	O 	0.2603	0.6148	0.2297	-0.558
Mof_O 	O 	0.0556	0.6485	0.3578	-0.519
Mof_O 	O 	0.5566	0.3081	0.6795	-0.58
Mof_O 	O 	0.1305	0.387	0.6467	-0.49
_end
