data_functionalizedCrystal
_audit_creation_method	'EQeq! by Chris Wilmer'
_symmetry_space_group_name_H-M	'P1'
_symmetry_Int_Tables_number	1
_symmetry_cell_setting	triclinic
loop_
_symmetry_equiv_pos_as_xyz
  x,y,z
_cell_length_a	12.6308
_cell_length_b	12.6308
_cell_length_c	12.6308
_cell_angle_alpha	90
_cell_angle_beta	90
_cell_angle_gamma	90
loop_
_atom_site_label
_atom_site_type_symbol
_atom_site_fract_x
_atom_site_fract_y
_atom_site_fract_z
_atom_site_charge
Mof_Cd	Cd	0.625	0.125	0.125	0.292
Mof_Cd	Cd	0.125	0.625	0.125	0.292
Mof_Cd	Cd	0.125	0.125	0.625	0.292
Mof_Cd	Cd	0.625	0.625	0.625	0.292
Mof_Cd	Cd	0.875	0.875	0.375	0.292
Mof_Cd	Cd	0.875	0.375	0.875	0.292
Mof_Cd	Cd	0.375	0.875	0.875	0.292
Mof_Cd	Cd	0.375	0.375	0.375	0.292
Mof_C 	C 	0.7236	0.2236	0.0264	-0.073
Mof_C 	C 	0.0264	0.0264	0.5264	-0.073
Mof_C 	C 	0.5264	0.5264	0.5264	-0.073
Mof_C 	C 	0.5264	0.7236	0.7236	-0.073
Mof_C 	C 	0.2236	0.5264	0.2236	-0.073
Mof_C 	C 	0.0264	0.7236	0.2236	-0.073
Mof_C 	C 	0.5264	0.0264	0.0264	-0.073
Mof_C 	C 	0.7236	0.5264	0.7236	-0.073
Mof_C 	C 	0.2236	0.2236	0.5264	-0.073
Mof_C 	C 	0.2236	0.0264	0.7236	-0.073
Mof_C 	C 	0.0264	0.5264	0.0264	-0.073
Mof_C 	C 	0.7236	0.7236	0.5264	-0.073
Mof_C 	C 	0.5264	0.2236	0.2236	-0.073
Mof_C 	C 	0.9736	0.9736	0.4736	-0.073
Mof_C 	C 	0.7764	0.2764	0.9736	-0.073
Mof_C 	C 	0.4736	0.7764	0.7764	-0.073
Mof_C 	C 	0.2764	0.4736	0.2764	-0.073
Mof_C 	C 	0.4736	0.2764	0.2764	-0.073
Mof_C 	C 	0.7764	0.7764	0.4736	-0.073
Mof_C 	C 	0.2764	0.9736	0.7764	-0.073
Mof_C 	C 	0.9736	0.4736	0.9736	-0.073
Mof_C 	C 	0.7764	0.4736	0.7764	-0.073
Mof_C 	C 	0.2764	0.2764	0.4736	-0.073
Mof_C 	C 	0.4736	0.9736	0.9736	-0.073
Mof_C 	C 	0.4736	0.4736	0.4736	-0.073
Mof_C 	C 	0.9736	0.7764	0.2764	-0.073
Mof_C 	C 	0.2764	0.7764	0.9736	-0.073
Mof_C 	C 	0.9736	0.2764	0.7764	-0.073
Mof_C 	C 	0.7764	0.9736	0.2764	-0.073
Mof_C 	C 	0.2236	0.7236	0.0264	-0.073
Mof_C 	C 	0.7236	0.0264	0.2236	-0.073
Mof_C 	C 	0.0264	0.2236	0.7236	-0.073
_end
