data_functionalizedCrystal
_audit_creation_method	'EQeq! by Chris Wilmer'
_symmetry_space_group_name_H-M	'P1'
_symmetry_Int_Tables_number	1
_symmetry_cell_setting	triclinic
loop_
_symmetry_equiv_pos_as_xyz
  x,y,z
_cell_length_a	11.248
_cell_length_b	20.8734
_cell_length_c	14.6641
_cell_angle_alpha	90
_cell_angle_beta	105.318
_cell_angle_gamma	90
loop_
_atom_site_label
_atom_site_type_symbol
_atom_site_fract_x
_atom_site_fract_y
_atom_site_fract_z
_atom_site_charge
Mof_U 	U 	0.77722	0.22522	0.55879	0.055
Mof_U 	U 	0.87467	0.01483	0.37284	0.017
Mof_U 	U 	0.92344	0.41889	0.53633	0.05
Mof_P 	P 	0.60186	0.11596	0.38537	0.378
Mof_P 	P 	0.20442	0.44694	0.62824	0.376
Mof_P 	P 	0.12637	0.9463	0.3764	0.38
Mof_P 	P 	0.61711	0.36435	0.42487	0.385
Mof_F 	F 	0.8665	0.32695	0.5944	-0.295
Mof_O 	O 	0.6191	0.16124	0.4683	-0.163
Mof_O 	O 	0.706	0.06967	0.3892	-0.163
Mof_O 	O 	0.5805	0.15786	0.2928	-0.114
Mof_O 	O 	0.2662	0.48246	0.717	-0.156
Mof_O 	O 	0.1269	0.38875	0.6431	-0.126
Mof_O 	O 	0.1078	0.4878	0.5574	-0.141
Mof_O 	O 	0.0156	0.96208	0.2914	-0.159
Mof_O 	O 	0.079	0.96948	0.4606	-0.141
Mof_O 	O 	0.1645	0.87749	0.3799	-0.158
Mof_O 	O 	0.5574	0.36661	0.3152	-0.141
Mof_O 	O 	0.6551	0.29606	0.449	-0.128
Mof_O 	O 	0.7207	0.41297	0.4541	-0.148
Mof_C 	C 	0.4651	0.0698	0.3766	-0.013
Mof_C 	C 	0.3568	0.0976	0.3818	-0.018
Mof_H 	H 	0.3523	0.1429	0.3866	0.077
Mof_C 	C 	0.2537	0.061	0.3804	-0.024
Mof_H 	H 	0.1798	0.0815	0.3844	0.077
Mof_C 	C 	0.2574	0.9948	0.3732	-0.018
Mof_C 	C 	0.3651	0.9668	0.3687	-0.025
Mof_H 	H 	0.3698	0.9214	0.3647	0.077
Mof_C 	C 	0.4686	0.004	0.3701	-0.025
Mof_H 	H 	0.5427	0.9836	0.3664	0.079
Mof_C 	C 	0.3192	0.4228	0.5706	-0.004
Mof_C 	C 	0.2875	0.3921	0.4846	-0.026
Mof_H 	H 	0.2033	0.3827	0.4558	0.082
Mof_C 	C 	0.3768	0.3745	0.439	-0.02
Mof_H 	H 	0.3529	0.3535	0.3794	0.076
Mof_C 	C 	0.4996	0.3873	0.4799	-0.017
Mof_C 	C 	0.5322	0.4188	0.5656	-0.018
Mof_H 	H 	0.6164	0.4286	0.5938	0.079
Mof_C 	C 	0.4433	0.4365	0.6116	-0.031
Mof_H 	H 	0.4672	0.4579	0.6708	0.086
Mof_U 	U 	0.72278	0.72522	0.94121	0.054
Mof_U 	U 	0.62533	0.51483	0.12716	0.016
Mof_U 	U 	0.57656	0.91889	0.96367	0.049
Mof_P 	P 	0.89814	0.61596	0.11463	0.377
Mof_P 	P 	0.29558	0.94694	0.87176	0.376
Mof_P 	P 	0.37363	0.4463	0.1236	0.38
Mof_P 	P 	0.88289	0.86435	0.07513	0.385
Mof_F 	F 	0.6335	0.82695	0.9056	-0.295
Mof_O 	O 	0.8809	0.66124	0.0317	-0.163
Mof_O 	O 	0.794	0.56967	0.1108	-0.163
Mof_O 	O 	0.9195	0.65786	0.2072	-0.114
Mof_O 	O 	0.2338	0.98246	0.783	-0.156
Mof_O 	O 	0.3731	0.88875	0.8569	-0.125
Mof_O 	O 	0.3922	0.9878	0.9426	-0.141
Mof_O 	O 	0.4844	0.46208	0.2086	-0.159
Mof_O 	O 	0.421	0.46948	0.0394	-0.141
Mof_O 	O 	0.3355	0.37749	0.1201	-0.158
Mof_O 	O 	0.9426	0.86661	0.1848	-0.141
Mof_O 	O 	0.8449	0.79606	0.051	-0.128
Mof_O 	O 	0.7793	0.91297	0.0459	-0.148
Mof_C 	C 	0.0349	0.5698	0.1234	-0.013
Mof_C 	C 	0.1432	0.5976	0.1182	-0.018
Mof_H 	H 	0.1477	0.6429	0.1134	0.077
Mof_C 	C 	0.2463	0.561	0.1196	-0.023
Mof_H 	H 	0.3202	0.5815	0.1156	0.077
Mof_C 	C 	0.2426	0.4948	0.1268	-0.018
Mof_C 	C 	0.1349	0.4668	0.1313	-0.025
Mof_H 	H 	0.1302	0.4214	0.1353	0.077
Mof_C 	C 	0.0314	0.504	0.1299	-0.025
Mof_H 	H 	0.9573	0.4836	0.1336	0.079
Mof_C 	C 	0.1808	0.9228	0.9294	-0.004
Mof_C 	C 	0.2125	0.8921	0.0154	-0.026
Mof_H 	H 	0.2967	0.8827	0.0442	0.082
Mof_C 	C 	0.1232	0.8745	0.061	-0.02
Mof_H 	H 	0.1471	0.8535	0.1206	0.076
Mof_C 	C 	0.0004	0.8873	0.0201	-0.016
Mof_C 	C 	0.9678	0.9188	0.9344	-0.019
Mof_H 	H 	0.8836	0.9286	0.9062	0.079
Mof_C 	C 	0.0567	0.9365	0.8884	-0.031
Mof_H 	H 	0.0328	0.9579	0.8292	0.086
Mof_U 	U 	0.22278	0.77478	0.44121	0.054
Mof_U 	U 	0.12533	0.98517	0.62716	0.016
Mof_U 	U 	0.07656	0.58111	0.46367	0.049
Mof_P 	P 	0.39814	0.88404	0.61463	0.377
Mof_P 	P 	0.79558	0.55306	0.37176	0.376
Mof_P 	P 	0.87363	0.0537	0.6236	0.38
Mof_P 	P 	0.38289	0.63565	0.57513	0.385
Mof_F 	F 	0.1335	0.67305	0.4056	-0.295
Mof_O 	O 	0.3809	0.83876	0.5317	-0.163
Mof_O 	O 	0.294	0.93033	0.6108	-0.163
Mof_O 	O 	0.4195	0.84214	0.7072	-0.114
Mof_O 	O 	0.7338	0.51754	0.283	-0.156
Mof_O 	O 	0.8731	0.61125	0.3569	-0.126
Mof_O 	O 	0.8922	0.5122	0.4426	-0.141
Mof_O 	O 	0.9844	0.03792	0.7086	-0.159
Mof_O 	O 	0.921	0.03052	0.5394	-0.141
Mof_O 	O 	0.8355	0.12251	0.6201	-0.158
Mof_O 	O 	0.4426	0.63339	0.6848	-0.141
Mof_O 	O 	0.3449	0.70394	0.551	-0.128
Mof_O 	O 	0.2793	0.58703	0.5459	-0.148
Mof_C 	C 	0.5349	0.9302	0.6234	-0.013
Mof_C 	C 	0.6432	0.9024	0.6182	-0.018
Mof_H 	H 	0.6477	0.8571	0.6134	0.077
Mof_C 	C 	0.7463	0.939	0.6196	-0.024
Mof_H 	H 	0.8202	0.9185	0.6156	0.077
Mof_C 	C 	0.7426	0.0052	0.6268	-0.018
Mof_C 	C 	0.6349	0.0332	0.6313	-0.025
Mof_H 	H 	0.6302	0.0786	0.6353	0.077
Mof_C 	C 	0.5314	0.996	0.6299	-0.025
Mof_H 	H 	0.4573	0.0164	0.6336	0.079
Mof_C 	C 	0.6808	0.5772	0.4294	-0.004
Mof_C 	C 	0.7125	0.6079	0.5154	-0.026
Mof_H 	H 	0.7967	0.6173	0.5442	0.082
Mof_C 	C 	0.6232	0.6255	0.561	-0.02
Mof_H 	H 	0.6471	0.6465	0.6206	0.076
Mof_C 	C 	0.5004	0.6127	0.5201	-0.017
Mof_C 	C 	0.4678	0.5812	0.4344	-0.018
Mof_H 	H 	0.3836	0.5714	0.4062	0.079
Mof_C 	C 	0.5567	0.5635	0.3884	-0.031
Mof_H 	H 	0.5328	0.5421	0.3292	0.086
Mof_U 	U 	0.27722	0.27478	0.05879	0.054
Mof_U 	U 	0.37467	0.48517	0.87284	0.016
Mof_U 	U 	0.42344	0.08111	0.03633	0.049
Mof_P 	P 	0.10186	0.38404	0.88537	0.377
Mof_P 	P 	0.70442	0.05306	0.12824	0.376
Mof_P 	P 	0.62637	0.5537	0.8764	0.38
Mof_P 	P 	0.11711	0.13565	0.92487	0.385
Mof_F 	F 	0.3665	0.17305	0.0944	-0.295
Mof_O 	O 	0.1191	0.33876	0.9683	-0.163
Mof_O 	O 	0.206	0.43033	0.8892	-0.163
Mof_O 	O 	0.0805	0.34214	0.7928	-0.114
Mof_O 	O 	0.7662	0.01754	0.217	-0.156
Mof_O 	O 	0.6269	0.11125	0.1431	-0.125
Mof_O 	O 	0.6078	0.0122	0.0574	-0.141
Mof_O 	O 	0.5156	0.53792	0.7914	-0.159
Mof_O 	O 	0.579	0.53052	0.9606	-0.141
Mof_O 	O 	0.6645	0.62251	0.8799	-0.158
Mof_O 	O 	0.0574	0.13339	0.8152	-0.141
Mof_O 	O 	0.1551	0.20394	0.949	-0.128
Mof_O 	O 	0.2207	0.08703	0.9541	-0.148
Mof_C 	C 	0.9651	0.4302	0.8766	-0.013
Mof_C 	C 	0.8568	0.4024	0.8818	-0.018
Mof_H 	H 	0.8523	0.3571	0.8866	0.077
Mof_C 	C 	0.7537	0.439	0.8804	-0.023
Mof_H 	H 	0.6798	0.4185	0.8844	0.077
Mof_C 	C 	0.7574	0.5052	0.8732	-0.018
Mof_C 	C 	0.8651	0.5332	0.8687	-0.025
Mof_H 	H 	0.8698	0.5786	0.8647	0.077
Mof_C 	C 	0.9686	0.496	0.8701	-0.025
Mof_H 	H 	0.0427	0.5164	0.8664	0.079
Mof_C 	C 	0.8192	0.0772	0.0706	-0.004
Mof_C 	C 	0.7875	0.1079	0.9846	-0.026
Mof_H 	H 	0.7033	0.1173	0.9558	0.082
Mof_C 	C 	0.8768	0.1255	0.939	-0.02
Mof_H 	H 	0.8529	0.1465	0.8794	0.076
Mof_C 	C 	0.9996	0.1127	0.9799	-0.016
Mof_C 	C 	0.0322	0.0812	0.0656	-0.019
Mof_H 	H 	0.1164	0.0714	0.0938	0.079
Mof_C 	C 	0.9433	0.0635	0.1116	-0.031
Mof_H 	H 	0.9672	0.0421	0.1708	0.086
_end
