data_functionalizedCrystal
_audit_creation_method	'EQeq! by Chris Wilmer'
_symmetry_space_group_name_H-M	'P1'
_symmetry_Int_Tables_number	1
_symmetry_cell_setting	triclinic
loop_
_symmetry_equiv_pos_as_xyz
  x,y,z
_cell_length_a	10.5617
_cell_length_b	17.691
_cell_length_c	17.691
_cell_angle_alpha	120
_cell_angle_beta	90
_cell_angle_gamma	90
loop_
_atom_site_label
_atom_site_type_symbol
_atom_site_fract_x
_atom_site_fract_y
_atom_site_fract_z
_atom_site_charge
Mof_Zn	Zn	0.88236	0.54039	0.071	1.209
Mof_Zn	Zn	0.54903	0.53061	0.45961	1.215
Mof_Zn	Zn	0.21569	0.929	0.46939	1.215
Mof_Zn	Zn	0.38236	0.45961	0.929	1.214
Mof_Zn	Zn	0.04903	0.46939	0.54039	1.221
Mof_Zn	Zn	0.71569	0.071	0.53061	1.214
Mof_H 	H 	0.974	0.4689	0.9188	0.059
Mof_H 	H 	0.1674	0.4679	0.6922	0.014
Mof_H 	H 	0.8497	0.5725	0.6773	-0.013
Mof_H 	H 	0.7995	0.6145	0.8186	0.056
Mof_H 	H 	0.1261	0.5072	0.8345	0.083
Mof_H 	H 	0.9908	0.6171	0.9735	0.044
Mof_H 	H 	0.8466	0.6184	0.9535	0.055
Mof_H 	H 	0.7731	0.4706	0.8456	0.177
Mof_H 	H 	0.7398	0.3244	0.8054	-0.227
Mof_H 	H 	0.8845	0.2542	0.8511	0.464
Mof_H 	H 	0.7924	0.3176	0.9254	0.471
Mof_H 	H 	0.9323	0.3462	0.9234	0.439
Mof_H 	H 	0.9972	0.3524	0.7834	0.41
Mof_H 	H 	0.8879	0.3539	0.7241	0.419
Mof_H 	H 	0.921	0.267	0.7231	0.432
Mof_H 	H 	0.64067	0.4499	0.5311	0.066
Mof_H 	H 	0.83407	0.2243	0.5321	-0.011
Mof_H 	H 	0.51637	0.1048	0.4275	-0.038
Mof_H 	H 	0.46617	0.2041	0.3855	0.087
Mof_H 	H 	0.79277	0.3273	0.4928	0.106
Mof_H 	H 	0.65747	0.3564	0.3829	0.076
Mof_H 	H 	0.51327	0.3351	0.3816	0.075
Mof_H 	H 	0.43977	0.375	0.5294	0.185
Mof_H 	H 	0.40647	0.481	0.6756	-0.247
Mof_H 	H 	0.55117	0.5969	0.7458	0.498
Mof_H 	H 	0.45907	0.6078	0.6824	0.5
Mof_H 	H 	0.59897	0.5772	0.6538	0.473
Mof_H 	H 	0.66387	0.431	0.6476	0.454
Mof_H 	H 	0.55457	0.3702	0.6461	0.455
Mof_H 	H 	0.58767	0.4561	0.733	0.471
Mof_H 	H 	0.30733	0.0812	0.5501	0.066
Mof_H 	H 	0.50073	0.3078	0.7757	-0.006
Mof_H 	H 	0.18303	0.3227	0.8952	-0.028
Mof_H 	H 	0.13283	0.1814	0.7959	0.098
Mof_H 	H 	0.45943	0.1655	0.6727	0.114
Mof_H 	H 	0.32413	0.0265	0.6436	0.077
Mof_H 	H 	0.17993	0.0465	0.6649	0.079
Mof_H 	H 	0.10643	0.1544	0.625	0.202
Mof_H 	H 	0.07313	0.1946	0.519	-0.245
Mof_H 	H 	0.21783	0.1489	0.4031	0.514
Mof_H 	H 	0.12573	0.0746	0.3922	0.52
Mof_H 	H 	0.26563	0.0766	0.4228	0.487
Mof_H 	H 	0.33053	0.2166	0.569	0.466
Mof_H 	H 	0.22123	0.2759	0.6298	0.47
Mof_H 	H 	0.25433	0.2769	0.5439	0.483
Mof_H 	H 	0.474	0.5311	0.0812	0.066
Mof_H 	H 	0.6674	0.5321	0.3078	-0.01
Mof_H 	H 	0.3497	0.4275	0.3227	-0.03
Mof_H 	H 	0.2995	0.3855	0.1814	0.097
Mof_H 	H 	0.6261	0.4928	0.1655	0.114
Mof_H 	H 	0.4908	0.3829	0.0265	0.076
Mof_H 	H 	0.3466	0.3816	0.0465	0.078
Mof_H 	H 	0.2731	0.5294	0.1544	0.192
Mof_H 	H 	0.2398	0.6756	0.1946	-0.247
Mof_H 	H 	0.3845	0.7458	0.1489	0.506
Mof_H 	H 	0.2924	0.6824	0.0746	0.511
Mof_H 	H 	0.4323	0.6538	0.0766	0.481
Mof_H 	H 	0.4972	0.6476	0.2166	0.461
Mof_H 	H 	0.3879	0.6461	0.2759	0.463
Mof_H 	H 	0.421	0.733	0.2769	0.477
Mof_H 	H 	0.14067	0.5501	0.4689	0.085
Mof_H 	H 	0.33407	0.7757	0.4679	0.003
Mof_H 	H 	0.01637	0.8952	0.5725	0
Mof_H 	H 	0.96617	0.7959	0.6145	0.005
Mof_H 	H 	0.29277	0.6727	0.5072	0.102
Mof_H 	H 	0.15747	0.6436	0.6171	0.067
Mof_H 	H 	0.01327	0.6649	0.6184	0.08
Mof_H 	H 	0.93977	0.625	0.4706	0.131
Mof_H 	H 	0.90647	0.519	0.3244	-0.115
Mof_H 	H 	0.05117	0.4031	0.2542	0.303
Mof_H 	H 	0.95907	0.3922	0.3176	0.259
Mof_H 	H 	0.09897	0.4228	0.3462	0.273
Mof_H 	H 	0.16387	0.569	0.3524	0.311
Mof_H 	H 	0.05457	0.6298	0.3539	0.322
Mof_H 	H 	0.08767	0.5439	0.267	0.332
Mof_H 	H 	0.80733	0.9188	0.4499	0.061
Mof_H 	H 	0.00073	0.6922	0.2243	0.072
Mof_H 	H 	0.68303	0.6773	0.1048	-0.032
Mof_H 	H 	0.63283	0.8186	0.2041	0.075
Mof_H 	H 	0.95943	0.8345	0.3273	0.071
Mof_H 	H 	0.82413	0.9735	0.3564	0.06
Mof_H 	H 	0.67993	0.9535	0.3351	0.066
Mof_H 	H 	0.60643	0.8456	0.375	0.182
Mof_H 	H 	0.57313	0.8054	0.481	-0.239
Mof_H 	H 	0.71783	0.8511	0.5969	0.483
Mof_H 	H 	0.62573	0.9254	0.6078	0.487
Mof_H 	H 	0.76563	0.9234	0.5772	0.455
Mof_H 	H 	0.83053	0.7834	0.431	0.438
Mof_H 	H 	0.72123	0.7241	0.3702	0.443
Mof_H 	H 	0.75433	0.7231	0.4561	0.458
Mof_C 	C 	0.0925	0.4971	0.7178	0.049
Mof_C 	C 	0.9054	0.5587	0.7093	0.008
Mof_C 	C 	0.8743	0.5842	0.7943	-0.146
Mof_C 	C 	0.9554	0.5644	0.8435	0.056
Mof_C 	C 	0.068	0.5205	0.8034	-0.093
Mof_C 	C 	0.923	0.5833	0.9342	-0.155
Mof_C 	C 	0.6769	0.4681	0.9459	0.468
Mof_C 	C 	0.7938	0.45051	0.88661	-0.504
Mof_C 	C 	0.82	0.3526	0.833	0.91
Mof_C 	C 	0.861	0.3142	0.8883	-1.454
Mof_C 	C 	0.9155	0.3293	0.759	-1.363
Mof_C 	C 	0.75917	0.2207	0.5029	0.093
Mof_C 	C 	0.57207	0.1506	0.4413	0.102
Mof_C 	C 	0.54097	0.2101	0.4158	-0.229
Mof_C 	C 	0.62207	0.2791	0.4356	0.164
Mof_C 	C 	0.73467	0.2829	0.4795	-0.216
Mof_C 	C 	0.58967	0.3509	0.4167	-0.213
Mof_C 	C 	0.34357	0.4778	0.5319	0.473
Mof_C 	C 	0.46047	0.4361	0.54949	-0.528
Mof_C 	C 	0.48667	0.4804	0.6474	0.975
Mof_C 	C 	0.52767	0.5741	0.6858	-1.542
Mof_C 	C 	0.58217	0.4297	0.6707	-1.459
Mof_C 	C 	0.42583	0.2822	0.7793	0.098
Mof_C 	C 	0.23873	0.2907	0.8494	0.108
Mof_C 	C 	0.20763	0.2057	0.7899	-0.228
Mof_C 	C 	0.28873	0.1565	0.7209	0.169
Mof_C 	C 	0.40133	0.1966	0.7171	-0.217
Mof_C 	C 	0.25633	0.0658	0.6491	-0.216
Mof_C 	C 	0.01023	0.0541	0.5222	0.528
Mof_C 	C 	0.12713	0.11339	0.5639	-0.553
Mof_C 	C 	0.15333	0.167	0.5196	1.007
Mof_C 	C 	0.19433	0.1117	0.4259	-1.585
Mof_C 	C 	0.24883	0.241	0.5703	-1.495
Mof_C 	C 	0.5925	0.5029	0.2822	0.099
Mof_C 	C 	0.4054	0.4413	0.2907	0.108
Mof_C 	C 	0.3743	0.4158	0.2057	-0.23
Mof_C 	C 	0.4554	0.4356	0.1565	0.169
Mof_C 	C 	0.568	0.4795	0.1966	-0.219
Mof_C 	C 	0.423	0.4167	0.0658	-0.216
Mof_C 	C 	0.1769	0.5319	0.0541	0.473
Mof_C 	C 	0.2938	0.54949	0.11339	-0.533
Mof_C 	C 	0.32	0.6474	0.167	0.989
Mof_C 	C 	0.361	0.6858	0.1117	-1.564
Mof_C 	C 	0.4155	0.6707	0.241	-1.477
Mof_C 	C 	0.25917	0.7793	0.4971	0.077
Mof_C 	C 	0.07207	0.8494	0.5587	0.041
Mof_C 	C 	0.04097	0.7899	0.5842	-0.084
Mof_C 	C 	0.12207	0.7209	0.5644	0.112
Mof_C 	C 	0.23467	0.7171	0.5205	-0.172
Mof_C 	C 	0.08967	0.6491	0.5833	-0.174
Mof_C 	C 	0.84357	0.5222	0.4681	0.431
Mof_C 	C 	0.96047	0.5639	0.45051	-0.396
Mof_C 	C 	0.98667	0.5196	0.3526	0.515
Mof_C 	C 	0.02767	0.4259	0.3142	-0.835
Mof_C 	C 	0.08217	0.5703	0.3293	-0.961
Mof_C 	C 	0.92583	0.7178	0.2207	-0.026
Mof_C 	C 	0.73873	0.7093	0.1506	0.083
Mof_C 	C 	0.70763	0.7943	0.2101	-0.199
Mof_C 	C 	0.78873	0.8435	0.2791	0.122
Mof_C 	C 	0.90133	0.8034	0.2829	-0.142
Mof_C 	C 	0.75633	0.9342	0.3509	-0.187
Mof_C 	C 	0.51023	0.9459	0.4778	0.471
Mof_C 	C 	0.62713	0.88661	0.4361	-0.519
Mof_C 	C 	0.65333	0.833	0.4804	0.949
Mof_C 	C 	0.69433	0.8883	0.5741	-1.503
Mof_C 	C 	0.74883	0.759	0.4297	-1.425
Mof_N 	N 	0.0109	0.5152	0.6701	-0.225
Mof_N 	N 	0.9032	0.50247	0.93933	-0.189
Mof_N 	N 	0.67757	0.1549	0.4848	-0.273
Mof_N 	N 	0.56987	0.43686	0.49753	-0.177
Mof_N 	N 	0.34423	0.3299	0.8451	-0.272
Mof_N 	N 	0.23653	0.06067	0.56314	-0.174
Mof_N 	N 	0.5109	0.4848	0.3299	-0.273
Mof_N 	N 	0.4032	0.49753	0.06067	-0.176
Mof_N 	N 	0.17757	0.8451	0.5152	-0.254
Mof_N 	N 	0.06987	0.56314	0.50247	-0.187
Mof_N 	N 	0.84423	0.6701	0.1549	-0.254
Mof_N 	N 	0.73653	0.93933	0.43686	-0.181
Mof_Cl	Cl	0.88118	0.45509	0.13107	-0.606
Mof_Cl	Cl	0.54785	0.67598	0.54491	-0.589
Mof_Cl	Cl	0.21451	0.86893	0.32402	-0.573
Mof_Cl	Cl	0.38118	0.54491	0.86893	-0.584
Mof_Cl	Cl	0.04785	0.32402	0.45509	-0.551
Mof_Cl	Cl	0.71451	0.13107	0.67598	-0.595
Mof_O 	O 	0.688	0.51491	0.02642	-0.484
Mof_O 	O 	0.5765	0.43361	0.90608	-0.476
Mof_O 	O 	0.35467	0.51151	0.48509	-0.478
Mof_O 	O 	0.24317	0.47247	0.56639	-0.475
Mof_O 	O 	0.02133	0.97358	0.48849	-0.476
Mof_O 	O 	0.90983	0.09392	0.52753	-0.522
Mof_O 	O 	0.188	0.48509	0.97358	-0.469
Mof_O 	O 	0.0765	0.56639	0.09392	-0.452
Mof_O 	O 	0.85467	0.48849	0.51491	-0.487
Mof_O 	O 	0.74317	0.52753	0.43361	-0.467
Mof_O 	O 	0.52133	0.02642	0.51151	-0.484
Mof_O 	O 	0.40983	0.90608	0.47247	-0.477
_end
