data_functionalizedCrystal
_audit_creation_method	'EQeq! by Chris Wilmer'
_symmetry_space_group_name_H-M	'P1'
_symmetry_Int_Tables_number	1
_symmetry_cell_setting	triclinic
loop_
_symmetry_equiv_pos_as_xyz
  x,y,z
_cell_length_a	10.7531
_cell_length_b	13.5032
_cell_length_c	14.4102
_cell_angle_alpha	76.6377
_cell_angle_beta	68.0927
_cell_angle_gamma	66.5362
loop_
_atom_site_label
_atom_site_type_symbol
_atom_site_fract_x
_atom_site_fract_y
_atom_site_fract_z
_atom_site_charge
Mof_Mn	Mn	0.85832	0.03879	0.11004	0.857
Mof_Mn	Mn	0.50715	0.46121	0.38996	0.873
Mof_Mn	Mn	0.14168	0.96121	0.88996	0.857
Mof_Mn	Mn	0.49285	0.53879	0.61004	0.873
Mof_Mn	Mn	0.78346	0.25	0.25	0.99
Mof_Mn	Mn	0.21654	0.75	0.75	0.99
Mof_H 	H 	0.2016	0.1808	0.8468	0.054
Mof_H 	H 	0.2965	0.313	0.7528	0.05
Mof_H 	H 	0.9553	0.5412	0.9078	0.051
Mof_H 	H 	0.8655	0.4083	0.0091	0.047
Mof_H 	H 	0.5467	0.1608	0.4494	0.044
Mof_H 	H 	0.5782	0.8768	0.3844	0.049
Mof_H 	H 	0.7292	0.3192	0.6532	0.046
Mof_H 	H 	0.8623	0.187	0.7472	0.054
Mof_H 	H 	0.9043	0.9588	0.5922	0.054
Mof_H 	H 	0.7829	0.0917	0.4909	0.041
Mof_H 	H 	0.6569	0.3392	0.0506	0.044
Mof_H 	H 	0.3394	0.6232	0.1156	0.049
Mof_H 	H 	0.7984	0.8192	0.1532	0.053
Mof_H 	H 	0.7035	0.687	0.2472	0.049
Mof_H 	H 	0.0447	0.4588	0.0922	0.05
Mof_H 	H 	0.1345	0.5917	0.9909	0.046
Mof_H 	H 	0.4533	0.8392	0.5506	0.044
Mof_H 	H 	0.4218	0.1232	0.6156	0.049
Mof_H 	H 	0.2708	0.6808	0.3468	0.046
Mof_H 	H 	0.1377	0.813	0.2528	0.054
Mof_H 	H 	0.0957	0.0412	0.4078	0.054
Mof_H 	H 	0.2171	0.9083	0.5091	0.041
Mof_H 	H 	0.3431	0.6608	0.9494	0.044
Mof_H 	H 	0.6606	0.3768	0.8844	0.049
Mof_C 	C 	0.96875	0.19517	0.00393	0.352
Mof_C 	C 	0.02559	0.28098	0.93904	-0.083
Mof_C 	C 	0.15341	0.25283	0.86075	-0.021
Mof_C 	C 	0.2089	0.33248	0.80332	-0.012
Mof_C 	C 	0.13534	0.44042	0.8205	-0.085
Mof_C 	C 	0.00615	0.46864	0.89666	-0.014
Mof_C 	C 	0.95139	0.38903	0.95699	-0.018
Mof_C 	C 	0.20016	0.52513	0.75995	0.376
Mof_C 	C 	0.66223	0.04425	0.29449	0.342
Mof_C 	C 	0.57684	0.02183	0.40069	-0.08
Mof_C 	C 	0.52839	0.09604	0.46978	-0.021
Mof_C 	C 	0.54732	0.92614	0.43082	-0.018
Mof_C 	C 	0.66785	0.30483	0.49607	0.372
Mof_C 	C 	0.74561	0.21902	0.56096	-0.102
Mof_C 	C 	0.76699	0.24717	0.63925	-0.006
Mof_C 	C 	0.8447	0.16752	0.69668	-0.028
Mof_C 	C 	0.89626	0.05958	0.6795	-0.068
Mof_C 	C 	0.87145	0.03136	0.60334	-0.028
Mof_C 	C 	0.79741	0.11097	0.54301	-0.003
Mof_C 	C 	0.98524	0.97487	0.74005	0.358
Mof_C 	C 	0.50097	0.45575	0.20551	0.349
Mof_C 	C 	0.49936	0.47817	0.09931	-0.08
Mof_C 	C 	0.59421	0.40396	0.03022	-0.022
Mof_C 	C 	0.40428	0.57386	0.06918	-0.017
Mof_C 	C 	0.03125	0.80483	0.99607	0.352
Mof_C 	C 	0.97441	0.71902	0.06096	-0.083
Mof_C 	C 	0.84659	0.74717	0.13925	-0.021
Mof_C 	C 	0.7911	0.66752	0.19668	-0.012
Mof_C 	C 	0.86466	0.55958	0.1795	-0.085
Mof_C 	C 	0.99385	0.53136	0.10334	-0.014
Mof_C 	C 	0.04861	0.61097	0.04301	-0.018
Mof_C 	C 	0.79984	0.47487	0.24005	0.376
Mof_C 	C 	0.33777	0.95575	0.70551	0.342
Mof_C 	C 	0.42316	0.97817	0.59931	-0.08
Mof_C 	C 	0.47161	0.90396	0.53022	-0.021
Mof_C 	C 	0.45268	0.07386	0.56918	-0.018
Mof_C 	C 	0.33215	0.69517	0.50393	0.372
Mof_C 	C 	0.25439	0.78098	0.43904	-0.102
Mof_C 	C 	0.23301	0.75283	0.36075	-0.006
Mof_C 	C 	0.1553	0.83248	0.30332	-0.028
Mof_C 	C 	0.10374	0.94042	0.3205	-0.068
Mof_C 	C 	0.12855	0.96864	0.39666	-0.028
Mof_C 	C 	0.20259	0.88903	0.45699	-0.003
Mof_C 	C 	0.01476	0.02513	0.25995	0.358
Mof_C 	C 	0.49903	0.54425	0.79449	0.349
Mof_C 	C 	0.50064	0.52183	0.90069	-0.08
Mof_C 	C 	0.40579	0.59604	0.96978	-0.022
Mof_C 	C 	0.59572	0.42614	0.93082	-0.017
Mof_O 	O 	0.01821	0.10117	0.97581	-0.422
Mof_O 	O 	0.86954	0.21632	0.08628	-0.413
Mof_O 	O 	0.13668	0.62112	0.78312	-0.384
Mof_O 	O 	0.31611	0.49145	0.69173	-0.388
Mof_O 	O 	0.68243	0.13353	0.26661	-0.404
Mof_O 	O 	0.71172	0.97275	0.23541	-0.355
Mof_O 	O 	0.59519	0.39883	0.52419	-0.436
Mof_O 	O 	0.67214	0.28368	0.41372	-0.418
Mof_O 	O 	0.04092	0.87888	0.71688	-0.379
Mof_O 	O 	0.99929	0.00855	0.80827	-0.377
Mof_O 	O 	0.58257	0.36647	0.23339	-0.406
Mof_O 	O 	0.41988	0.52725	0.26459	-0.362
Mof_O 	O 	0.98179	0.89883	0.02419	-0.422
Mof_O 	O 	0.13046	0.78368	0.91372	-0.413
Mof_O 	O 	0.86332	0.37888	0.21688	-0.384
Mof_O 	O 	0.68389	0.50855	0.30827	-0.388
Mof_O 	O 	0.31757	0.86647	0.73339	-0.404
Mof_O 	O 	0.28828	0.02725	0.76459	-0.355
Mof_O 	O 	0.40481	0.60117	0.47581	-0.436
Mof_O 	O 	0.32786	0.71632	0.58628	-0.418
Mof_O 	O 	0.95908	0.12112	0.28312	-0.379
Mof_O 	O 	0.00071	0.99145	0.19173	-0.377
Mof_O 	O 	0.41743	0.63353	0.76661	-0.406
Mof_O 	O 	0.58012	0.47275	0.73541	-0.362
_end
