data_functionalizedCrystal
_audit_creation_method	'EQeq! by Chris Wilmer'
_symmetry_space_group_name_H-M	'P1'
_symmetry_Int_Tables_number	1
_symmetry_cell_setting	triclinic
loop_
_symmetry_equiv_pos_as_xyz
  x,y,z
_cell_length_a	26.4135
_cell_length_b	26.4135
_cell_length_c	26.4135
_cell_angle_alpha	109.471
_cell_angle_beta	109.471
_cell_angle_gamma	109.471
loop_
_atom_site_label
_atom_site_type_symbol
_atom_site_fract_x
_atom_site_fract_y
_atom_site_fract_z
_atom_site_charge
Mof_Cd	Cd	0.64518	0.14518	0.29036	0.439
Mof_Cd	Cd	0.85482	0.35482	0.70964	0.44
Mof_Cd	Cd	0.14518	0.85482	0.5	0.44
Mof_Cd	Cd	0.35482	0.64518	0.5	0.439
Mof_Cd	Cd	0.5	0.14518	0.85482	0.439
Mof_Cd	Cd	0.5	0.35482	0.64518	0.439
Mof_Cd	Cd	0.29036	0.64518	0.14518	0.438
Mof_Cd	Cd	0.70964	0.85482	0.35482	0.439
Mof_Cd	Cd	0.35482	0.70964	0.85482	0.439
Mof_Cd	Cd	0.14518	0.29036	0.64518	0.438
Mof_Cd	Cd	0.64518	0.5	0.35482	0.439
Mof_Cd	Cd	0.85482	0.5	0.14518	0.439
Mof_Cd	Cd	0.35482	0.85482	0.70964	0.439
Mof_Cd	Cd	0.14518	0.64518	0.29036	0.438
Mof_Cd	Cd	0.85482	0.14518	0.5	0.439
Mof_Cd	Cd	0.64518	0.35482	0.5	0.439
Mof_Cd	Cd	0.5	0.85482	0.14518	0.439
Mof_Cd	Cd	0.5	0.64518	0.35482	0.439
Mof_Cd	Cd	0.70964	0.35482	0.85482	0.439
Mof_Cd	Cd	0.29036	0.14518	0.64518	0.438
Mof_Cd	Cd	0.64518	0.29036	0.14518	0.438
Mof_Cd	Cd	0.85482	0.70964	0.35482	0.439
Mof_Cd	Cd	0.35482	0.5	0.64518	0.439
Mof_Cd	Cd	0.14518	0.5	0.85482	0.439
Mof_H 	H 	0.8025	0.2432	0.3571	0.042
Mof_H 	H 	0.7426	0.1678	0.2252	0.045
Mof_H 	H 	0.8861	0.4454	0.6429	0.043
Mof_H 	H 	0.9426	0.5174	0.7748	0.043
Mof_H 	H 	0.1139	0.7568	0.5593	0.041
Mof_H 	H 	0.0574	0.8322	0.5748	0.049
Mof_H 	H 	0.1975	0.5546	0.4407	0.041
Mof_H 	H 	0.2574	0.4826	0.4252	0.045
Mof_H 	H 	0.5593	0.1139	0.7568	0.041
Mof_H 	H 	0.5748	0.0574	0.8322	0.049
Mof_H 	H 	0.4407	0.1975	0.5546	0.041
Mof_H 	H 	0.4252	0.2574	0.4826	0.045
Mof_H 	H 	0.3571	0.8025	0.2432	0.042
Mof_H 	H 	0.2252	0.7426	0.1678	0.045
Mof_H 	H 	0.6429	0.8861	0.4454	0.043
Mof_H 	H 	0.7748	0.9426	0.5174	0.043
Mof_H 	H 	0.4454	0.6429	0.8861	0.043
Mof_H 	H 	0.5174	0.7748	0.9426	0.043
Mof_H 	H 	0.2432	0.3571	0.8025	0.042
Mof_H 	H 	0.1678	0.2252	0.7426	0.045
Mof_H 	H 	0.5546	0.4407	0.1975	0.041
Mof_H 	H 	0.4826	0.4252	0.2574	0.045
Mof_H 	H 	0.7568	0.5593	0.1139	0.041
Mof_H 	H 	0.8322	0.5748	0.0574	0.049
Mof_H 	H 	0.7568	0.1975	0.6429	0.041
Mof_H 	H 	0.8322	0.2574	0.7748	0.046
Mof_H 	H 	0.5546	0.1139	0.3571	0.041
Mof_H 	H 	0.4826	0.0574	0.2252	0.048
Mof_H 	H 	0.2432	0.8861	0.4407	0.043
Mof_H 	H 	0.1678	0.9426	0.4252	0.042
Mof_H 	H 	0.4454	0.8025	0.5593	0.042
Mof_H 	H 	0.5174	0.7426	0.5748	0.046
Mof_H 	H 	0.8861	0.4407	0.2432	0.043
Mof_H 	H 	0.9426	0.4252	0.1678	0.042
Mof_H 	H 	0.8025	0.5593	0.4454	0.042
Mof_H 	H 	0.7426	0.5748	0.5174	0.046
Mof_H 	H 	0.1975	0.6429	0.7568	0.041
Mof_H 	H 	0.2574	0.7748	0.8322	0.046
Mof_H 	H 	0.1139	0.3571	0.5546	0.041
Mof_H 	H 	0.0574	0.2252	0.4826	0.048
Mof_H 	H 	0.3571	0.5546	0.1139	0.041
Mof_H 	H 	0.2252	0.4826	0.0574	0.048
Mof_H 	H 	0.6429	0.7568	0.1975	0.041
Mof_H 	H 	0.7748	0.8322	0.2574	0.046
Mof_H 	H 	0.5593	0.4454	0.8025	0.042
Mof_H 	H 	0.5748	0.5174	0.7426	0.046
Mof_H 	H 	0.4407	0.2432	0.8861	0.043
Mof_H 	H 	0.4252	0.1678	0.9426	0.042
Mof_H 	H 	0.1975	0.7568	0.6429	0.041
Mof_H 	H 	0.2574	0.8322	0.7748	0.046
Mof_H 	H 	0.1139	0.5546	0.3571	0.041
Mof_H 	H 	0.0574	0.4826	0.2252	0.048
Mof_H 	H 	0.8861	0.2432	0.4407	0.043
Mof_H 	H 	0.9426	0.1678	0.4252	0.042
Mof_H 	H 	0.8025	0.4454	0.5593	0.042
Mof_H 	H 	0.7426	0.5174	0.5748	0.046
Mof_H 	H 	0.4407	0.8861	0.2432	0.043
Mof_H 	H 	0.4252	0.9426	0.1678	0.042
Mof_H 	H 	0.5593	0.8025	0.4454	0.042
Mof_H 	H 	0.5748	0.7426	0.5174	0.046
Mof_H 	H 	0.6429	0.1975	0.7568	0.041
Mof_H 	H 	0.7748	0.2574	0.8322	0.046
Mof_H 	H 	0.3571	0.1139	0.5546	0.041
Mof_H 	H 	0.2252	0.0574	0.4826	0.048
Mof_H 	H 	0.5546	0.3571	0.1139	0.041
Mof_H 	H 	0.4826	0.2252	0.0574	0.048
Mof_H 	H 	0.7568	0.6429	0.1975	0.041
Mof_H 	H 	0.8322	0.7748	0.2574	0.046
Mof_H 	H 	0.4454	0.5593	0.8025	0.042
Mof_H 	H 	0.5174	0.5748	0.7426	0.046
Mof_H 	H 	0.2432	0.4407	0.8861	0.043
Mof_H 	H 	0.1678	0.4252	0.9426	0.042
Mof_H 	H 	0.2432	0.8025	0.3571	0.042
Mof_H 	H 	0.1678	0.7426	0.2252	0.045
Mof_H 	H 	0.4454	0.8861	0.6429	0.043
Mof_H 	H 	0.5174	0.9426	0.7748	0.043
Mof_H 	H 	0.7568	0.1139	0.5593	0.041
Mof_H 	H 	0.8322	0.0574	0.5748	0.049
Mof_H 	H 	0.5546	0.1975	0.4407	0.041
Mof_H 	H 	0.4826	0.2574	0.4252	0.045
Mof_H 	H 	0.1139	0.5593	0.7568	0.041
Mof_H 	H 	0.0574	0.5748	0.8322	0.049
Mof_H 	H 	0.1975	0.4407	0.5546	0.041
Mof_H 	H 	0.2574	0.4252	0.4826	0.045
Mof_H 	H 	0.8025	0.3571	0.2432	0.042
Mof_H 	H 	0.7426	0.2252	0.1678	0.045
Mof_H 	H 	0.8861	0.6429	0.4454	0.043
Mof_H 	H 	0.9426	0.7748	0.5174	0.043
Mof_H 	H 	0.6429	0.4454	0.8861	0.043
Mof_H 	H 	0.7748	0.5174	0.9426	0.043
Mof_H 	H 	0.3571	0.2432	0.8025	0.042
Mof_H 	H 	0.2252	0.1678	0.7426	0.045
Mof_H 	H 	0.4407	0.5546	0.1975	0.041
Mof_H 	H 	0.4252	0.4826	0.2574	0.045
Mof_H 	H 	0.5593	0.7568	0.1139	0.041
Mof_H 	H 	0.5748	0.8322	0.0574	0.049
Mof_C 	C 	0.7957	0.2167	0.3732	0.026
Mof_C 	C 	0.7153	0.1822	0.2145	0.015
Mof_C 	C 	0.8435	0.4225	0.6268	0.026
Mof_C 	C 	0.9677	0.5008	0.7855	0.028
Mof_C 	C 	0.1565	0.7833	0.579	0.026
Mof_C 	C 	0.0323	0.8178	0.5331	0.004
Mof_C 	C 	0.2043	0.5775	0.421	0.025
Mof_C 	C 	0.2847	0.4992	0.4669	0.016
Mof_C 	C 	0.579	0.1565	0.7833	0.026
Mof_C 	C 	0.5331	0.0323	0.8178	0.004
Mof_C 	C 	0.421	0.2043	0.5775	0.025
Mof_C 	C 	0.4669	0.2847	0.4992	0.016
Mof_C 	C 	0.3732	0.7957	0.2167	0.026
Mof_C 	C 	0.2145	0.7153	0.1822	0.015
Mof_C 	C 	0.6268	0.8435	0.4225	0.026
Mof_C 	C 	0.7855	0.9677	0.5008	0.028
Mof_C 	C 	0.4225	0.6268	0.8435	0.026
Mof_C 	C 	0.5008	0.7855	0.9677	0.028
Mof_C 	C 	0.2167	0.3732	0.7957	0.026
Mof_C 	C 	0.1822	0.2145	0.7153	0.015
Mof_C 	C 	0.5775	0.421	0.2043	0.025
Mof_C 	C 	0.4992	0.4669	0.2847	0.016
Mof_C 	C 	0.7833	0.579	0.1565	0.026
Mof_C 	C 	0.8178	0.5331	0.0323	0.004
Mof_C 	C 	0.7833	0.2043	0.6268	0.026
Mof_C 	C 	0.8178	0.2847	0.7855	0.016
Mof_C 	C 	0.5775	0.1565	0.3732	0.026
Mof_C 	C 	0.4992	0.0323	0.2145	0.004
Mof_C 	C 	0.2167	0.8435	0.421	0.026
Mof_C 	C 	0.1822	0.9677	0.4669	0.028
Mof_C 	C 	0.4225	0.7957	0.579	0.026
Mof_C 	C 	0.5008	0.7153	0.5331	0.016
Mof_C 	C 	0.8435	0.421	0.2167	0.026
Mof_C 	C 	0.9677	0.4669	0.1822	0.028
Mof_C 	C 	0.7957	0.579	0.4225	0.026
Mof_C 	C 	0.7153	0.5331	0.5008	0.016
Mof_C 	C 	0.2043	0.6268	0.7833	0.026
Mof_C 	C 	0.2847	0.7855	0.8178	0.016
Mof_C 	C 	0.1565	0.3732	0.5775	0.026
Mof_C 	C 	0.0323	0.2145	0.4992	0.004
Mof_C 	C 	0.3732	0.5775	0.1565	0.026
Mof_C 	C 	0.2145	0.4992	0.0323	0.004
Mof_C 	C 	0.6268	0.7833	0.2043	0.026
Mof_C 	C 	0.7855	0.8178	0.2847	0.016
Mof_C 	C 	0.579	0.4225	0.7957	0.026
Mof_C 	C 	0.5331	0.5008	0.7153	0.016
Mof_C 	C 	0.421	0.2167	0.8435	0.026
Mof_C 	C 	0.4669	0.1822	0.9677	0.028
Mof_C 	C 	0.2043	0.7833	0.6268	0.026
Mof_C 	C 	0.2847	0.8178	0.7855	0.016
Mof_C 	C 	0.1565	0.5775	0.3732	0.026
Mof_C 	C 	0.0323	0.4992	0.2145	0.004
Mof_C 	C 	0.8435	0.2167	0.421	0.026
Mof_C 	C 	0.9677	0.1822	0.4669	0.028
Mof_C 	C 	0.7957	0.4225	0.579	0.026
Mof_C 	C 	0.7153	0.5008	0.5331	0.016
Mof_C 	C 	0.421	0.8435	0.2167	0.026
Mof_C 	C 	0.4669	0.9677	0.1822	0.028
Mof_C 	C 	0.579	0.7957	0.4225	0.026
Mof_C 	C 	0.5331	0.7153	0.5008	0.016
Mof_C 	C 	0.6268	0.2043	0.7833	0.026
Mof_C 	C 	0.7855	0.2847	0.8178	0.016
Mof_C 	C 	0.3732	0.1565	0.5775	0.026
Mof_C 	C 	0.2145	0.0323	0.4992	0.004
Mof_C 	C 	0.5775	0.3732	0.1565	0.026
Mof_C 	C 	0.4992	0.2145	0.0323	0.004
Mof_C 	C 	0.7833	0.6268	0.2043	0.026
Mof_C 	C 	0.8178	0.7855	0.2847	0.016
Mof_C 	C 	0.4225	0.579	0.7957	0.026
Mof_C 	C 	0.5008	0.5331	0.7153	0.016
Mof_C 	C 	0.2167	0.421	0.8435	0.026
Mof_C 	C 	0.1822	0.4669	0.9677	0.028
Mof_C 	C 	0.2167	0.7957	0.3732	0.026
Mof_C 	C 	0.1822	0.7153	0.2145	0.015
Mof_C 	C 	0.4225	0.8435	0.6268	0.026
Mof_C 	C 	0.5008	0.9677	0.7855	0.028
Mof_C 	C 	0.7833	0.1565	0.579	0.026
Mof_C 	C 	0.8178	0.0323	0.5331	0.004
Mof_C 	C 	0.5775	0.2043	0.421	0.025
Mof_C 	C 	0.4992	0.2847	0.4669	0.016
Mof_C 	C 	0.1565	0.579	0.7833	0.026
Mof_C 	C 	0.0323	0.5331	0.8178	0.004
Mof_C 	C 	0.2043	0.421	0.5775	0.025
Mof_C 	C 	0.2847	0.4669	0.4992	0.016
Mof_C 	C 	0.7957	0.3732	0.2167	0.026
Mof_C 	C 	0.7153	0.2145	0.1822	0.015
Mof_C 	C 	0.8435	0.6268	0.4225	0.026
Mof_C 	C 	0.9677	0.7855	0.5008	0.028
Mof_C 	C 	0.6268	0.4225	0.8435	0.026
Mof_C 	C 	0.7855	0.5008	0.9677	0.028
Mof_C 	C 	0.3732	0.2167	0.7957	0.026
Mof_C 	C 	0.2145	0.1822	0.7153	0.015
Mof_C 	C 	0.421	0.5775	0.2043	0.025
Mof_C 	C 	0.4669	0.4992	0.2847	0.016
Mof_C 	C 	0.579	0.7833	0.1565	0.026
Mof_C 	C 	0.5331	0.8178	0.0323	0.004
Mof_C 	C 	0.7547	0.1476	0.3929	0.174
Mof_C 	C 	0.7547	0.3618	0.6071	0.174
Mof_C 	C 	0.2453	0.8524	0.6071	0.175
Mof_C 	C 	0.2453	0.6382	0.3929	0.174
Mof_C 	C 	0.6071	0.2453	0.8524	0.175
Mof_C 	C 	0.3929	0.2453	0.6382	0.174
Mof_C 	C 	0.3929	0.7547	0.1476	0.174
Mof_C 	C 	0.6071	0.7547	0.3618	0.174
Mof_C 	C 	0.3618	0.6071	0.7547	0.174
Mof_C 	C 	0.1476	0.3929	0.7547	0.174
Mof_C 	C 	0.6382	0.3929	0.2453	0.174
Mof_C 	C 	0.8524	0.6071	0.2453	0.175
Mof_C 	C 	0.8524	0.2453	0.6071	0.175
Mof_C 	C 	0.6382	0.2453	0.3929	0.174
Mof_C 	C 	0.1476	0.7547	0.3929	0.174
Mof_C 	C 	0.3618	0.7547	0.6071	0.174
Mof_C 	C 	0.7547	0.3929	0.1476	0.174
Mof_C 	C 	0.7547	0.6071	0.3618	0.174
Mof_C 	C 	0.2453	0.6071	0.8524	0.175
Mof_C 	C 	0.2453	0.3929	0.6382	0.174
Mof_C 	C 	0.3929	0.6382	0.2453	0.174
Mof_C 	C 	0.6071	0.8524	0.2453	0.175
Mof_C 	C 	0.6071	0.3618	0.7547	0.174
Mof_C 	C 	0.3929	0.1476	0.7547	0.174
Mof_C 	C 	0.6426	0.2038	0.2038	0.178
Mof_C 	C 	9.61683e-17	0.4388	0.7962	0.172
Mof_C 	C 	1.12196e-16	0.7962	0.4388	0.172
Mof_C 	C 	0.3574	0.5612	0.5612	0.178
Mof_C 	C 	0.4388	6.41122e-17	0.7962	0.172
Mof_C 	C 	0.5612	0.3574	0.5612	0.178
Mof_C 	C 	0.2038	0.6426	0.2038	0.178
Mof_C 	C 	0.7962	3.20561e-17	0.4388	0.172
Mof_C 	C 	0.4388	0.7962	-0	0.172
Mof_C 	C 	0.2038	0.2038	0.6426	0.178
Mof_C 	C 	0.5612	0.5612	0.3574	0.178
Mof_C 	C 	0.7962	0.4388	-0	0.172
Mof_C 	C 	0.7962	0.3574	0.7962	0.179
Mof_C 	C 	0.5612	1.6028e-17	0.2038	0.172
Mof_C 	C 	0.2038	3.20561e-17	0.5612	0.172
Mof_C 	C 	0.4388	0.6426	0.4388	0.178
Mof_C 	C 	-2.80491e-17	0.5612	0.2038	0.172
Mof_C 	C 	0.6426	0.4388	0.4388	0.178
Mof_C 	C 	0.3574	0.7962	0.7962	0.179
Mof_C 	C 	-0	0.2038	0.5612	0.172
Mof_C 	C 	0.2038	0.5612	-0	0.172
Mof_C 	C 	0.7962	0.7962	0.3574	0.179
Mof_C 	C 	0.4388	0.4388	0.6426	0.178
Mof_C 	C 	0.5612	0.2038	-0	0.172
Mof_N 	N 	0.7429	0.1742	0.3573	-0.143
Mof_N 	N 	0.6693	0.1754	0.2277	-0.142
Mof_N 	N 	0.8169	0.3856	0.6427	-0.143
Mof_N 	N 	0.9477	0.4416	0.7723	-0.141
Mof_N 	N 	0.1831	0.8258	0.5687	-0.143
Mof_N 	N 	0.0523	0.8246	0.4939	-0.14
Mof_N 	N 	0.2571	0.6144	0.4313	-0.143
Mof_N 	N 	0.3307	0.5584	0.5061	-0.142
Mof_N 	N 	0.5687	0.1831	0.8258	-0.143
Mof_N 	N 	0.4939	0.0523	0.8246	-0.14
Mof_N 	N 	0.4313	0.2571	0.6144	-0.143
Mof_N 	N 	0.5061	0.3307	0.5584	-0.142
Mof_N 	N 	0.3573	0.7429	0.1742	-0.143
Mof_N 	N 	0.2277	0.6693	0.1754	-0.142
Mof_N 	N 	0.6427	0.8169	0.3856	-0.143
Mof_N 	N 	0.7723	0.9477	0.4416	-0.141
Mof_N 	N 	0.3856	0.6427	0.8169	-0.143
Mof_N 	N 	0.4416	0.7723	0.9477	-0.141
Mof_N 	N 	0.1742	0.3573	0.7429	-0.143
Mof_N 	N 	0.1754	0.2277	0.6693	-0.142
Mof_N 	N 	0.6144	0.4313	0.2571	-0.143
Mof_N 	N 	0.5584	0.5061	0.3307	-0.142
Mof_N 	N 	0.8258	0.5687	0.1831	-0.143
Mof_N 	N 	0.8246	0.4939	0.0523	-0.14
Mof_N 	N 	0.8258	0.2571	0.6427	-0.143
Mof_N 	N 	0.8246	0.3307	0.7723	-0.142
Mof_N 	N 	0.6144	0.1831	0.3573	-0.143
Mof_N 	N 	0.5584	0.0523	0.2277	-0.14
Mof_N 	N 	0.1742	0.8169	0.4313	-0.143
Mof_N 	N 	0.1754	0.9477	0.5061	-0.141
Mof_N 	N 	0.3856	0.7429	0.5687	-0.143
Mof_N 	N 	0.4416	0.6693	0.4939	-0.142
Mof_N 	N 	0.8169	0.4313	0.1742	-0.143
Mof_N 	N 	0.9477	0.5061	0.1754	-0.141
Mof_N 	N 	0.7429	0.5687	0.3856	-0.143
Mof_N 	N 	0.6693	0.4939	0.4416	-0.142
Mof_N 	N 	0.2571	0.6427	0.8258	-0.143
Mof_N 	N 	0.3307	0.7723	0.8246	-0.142
Mof_N 	N 	0.1831	0.3573	0.6144	-0.143
Mof_N 	N 	0.0523	0.2277	0.5584	-0.14
Mof_N 	N 	0.3573	0.6144	0.1831	-0.143
Mof_N 	N 	0.2277	0.5584	0.0523	-0.14
Mof_N 	N 	0.6427	0.8258	0.2571	-0.143
Mof_N 	N 	0.7723	0.8246	0.3307	-0.142
Mof_N 	N 	0.5687	0.3856	0.7429	-0.143
Mof_N 	N 	0.4939	0.4416	0.6693	-0.142
Mof_N 	N 	0.4313	0.1742	0.8169	-0.143
Mof_N 	N 	0.5061	0.1754	0.9477	-0.141
Mof_N 	N 	0.2571	0.8258	0.6427	-0.143
Mof_N 	N 	0.3307	0.8246	0.7723	-0.142
Mof_N 	N 	0.1831	0.6144	0.3573	-0.143
Mof_N 	N 	0.0523	0.5584	0.2277	-0.14
Mof_N 	N 	0.8169	0.1742	0.4313	-0.143
Mof_N 	N 	0.9477	0.1754	0.5061	-0.141
Mof_N 	N 	0.7429	0.3856	0.5687	-0.143
Mof_N 	N 	0.6693	0.4416	0.4939	-0.142
Mof_N 	N 	0.4313	0.8169	0.1742	-0.143
Mof_N 	N 	0.5061	0.9477	0.1754	-0.141
Mof_N 	N 	0.5687	0.7429	0.3856	-0.143
Mof_N 	N 	0.4939	0.6693	0.4416	-0.142
Mof_N 	N 	0.6427	0.2571	0.8258	-0.143
Mof_N 	N 	0.7723	0.3307	0.8246	-0.142
Mof_N 	N 	0.3573	0.1831	0.6144	-0.143
Mof_N 	N 	0.2277	0.0523	0.5584	-0.14
Mof_N 	N 	0.6144	0.3573	0.1831	-0.143
Mof_N 	N 	0.5584	0.2277	0.0523	-0.14
Mof_N 	N 	0.8258	0.6427	0.2571	-0.143
Mof_N 	N 	0.8246	0.7723	0.3307	-0.142
Mof_N 	N 	0.3856	0.5687	0.7429	-0.143
Mof_N 	N 	0.4416	0.4939	0.6693	-0.142
Mof_N 	N 	0.1742	0.4313	0.8169	-0.143
Mof_N 	N 	0.1754	0.5061	0.9477	-0.141
Mof_N 	N 	0.1742	0.7429	0.3573	-0.143
Mof_N 	N 	0.1754	0.6693	0.2277	-0.142
Mof_N 	N 	0.3856	0.8169	0.6427	-0.143
Mof_N 	N 	0.4416	0.9477	0.7723	-0.141
Mof_N 	N 	0.8258	0.1831	0.5687	-0.143
Mof_N 	N 	0.8246	0.0523	0.4939	-0.14
Mof_N 	N 	0.6144	0.2571	0.4313	-0.143
Mof_N 	N 	0.5584	0.3307	0.5061	-0.142
Mof_N 	N 	0.1831	0.5687	0.8258	-0.143
Mof_N 	N 	0.0523	0.4939	0.8246	-0.14
Mof_N 	N 	0.2571	0.4313	0.6144	-0.143
Mof_N 	N 	0.3307	0.5061	0.5584	-0.142
Mof_N 	N 	0.7429	0.3573	0.1742	-0.143
Mof_N 	N 	0.6693	0.2277	0.1754	-0.142
Mof_N 	N 	0.8169	0.6427	0.3856	-0.143
Mof_N 	N 	0.9477	0.7723	0.4416	-0.141
Mof_N 	N 	0.6427	0.3856	0.8169	-0.143
Mof_N 	N 	0.7723	0.4416	0.9477	-0.141
Mof_N 	N 	0.3573	0.1742	0.7429	-0.143
Mof_N 	N 	0.2277	0.1754	0.6693	-0.142
Mof_N 	N 	0.4313	0.6144	0.2571	-0.143
Mof_N 	N 	0.5061	0.5584	0.3307	-0.142
Mof_N 	N 	0.5687	0.8258	0.1831	-0.143
Mof_N 	N 	0.4939	0.8246	0.0523	-0.14
Mof_N 	N 	0.7091	0.0998	0.3907	-0.021
Mof_N 	N 	0.7091	0.3184	0.6093	-0.021
Mof_N 	N 	0.2909	0.9002	0.6093	-0.021
Mof_N 	N 	0.2909	0.6816	0.3907	-0.021
Mof_N 	N 	0.6093	0.2909	0.9002	-0.021
Mof_N 	N 	0.3907	0.2909	0.6816	-0.021
Mof_N 	N 	0.3907	0.7091	0.0998	-0.021
Mof_N 	N 	0.6093	0.7091	0.3184	-0.021
Mof_N 	N 	0.3184	0.6093	0.7091	-0.021
Mof_N 	N 	0.0998	0.3907	0.7091	-0.021
Mof_N 	N 	0.6816	0.3907	0.2909	-0.021
Mof_N 	N 	0.9002	0.6093	0.2909	-0.021
Mof_N 	N 	0.9002	0.2909	0.6093	-0.021
Mof_N 	N 	0.6816	0.2909	0.3907	-0.021
Mof_N 	N 	0.0998	0.7091	0.3907	-0.021
Mof_N 	N 	0.3184	0.7091	0.6093	-0.021
Mof_N 	N 	0.7091	0.3907	0.0998	-0.021
Mof_N 	N 	0.7091	0.6093	0.3184	-0.021
Mof_N 	N 	0.2909	0.6093	0.9002	-0.021
Mof_N 	N 	0.2909	0.3907	0.6816	-0.021
Mof_N 	N 	0.3907	0.6816	0.2909	-0.021
Mof_N 	N 	0.6093	0.9002	0.2909	-0.021
Mof_N 	N 	0.6093	0.3184	0.7091	-0.021
Mof_N 	N 	0.3907	0.0998	0.7091	-0.021
Mof_N 	N 	0.5916	0.2063	0.2063	-0.023
Mof_N 	N 	1.6028e-17	0.3853	0.7937	-0.026
Mof_N 	N 	3.20561e-17	0.7937	0.3853	-0.026
Mof_N 	N 	0.4084	0.6147	0.6147	-0.023
Mof_N 	N 	0.3853	0	0.7937	-0.026
Mof_N 	N 	0.6147	0.4084	0.6147	-0.023
Mof_N 	N 	0.2063	0.5916	0.2063	-0.023
Mof_N 	N 	0.7937	3.20561e-17	0.3853	-0.026
Mof_N 	N 	0.3853	0.7937	-0	-0.026
Mof_N 	N 	0.2063	0.2063	0.5916	-0.023
Mof_N 	N 	0.6147	0.6147	0.4084	-0.023
Mof_N 	N 	0.7937	0.3853	-0	-0.026
Mof_N 	N 	0.7937	0.4084	0.7937	-0.023
Mof_N 	N 	0.6147	0	0.2063	-0.026
Mof_N 	N 	0.2063	0	0.6147	-0.026
Mof_N 	N 	0.3853	0.5916	0.3853	-0.023
Mof_N 	N 	-4.00701e-18	0.6147	0.2063	-0.026
Mof_N 	N 	0.5916	0.3853	0.3853	-0.023
Mof_N 	N 	0.4084	0.7937	0.7937	-0.023
Mof_N 	N 	-3.20561e-17	0.2063	0.6147	-0.026
Mof_N 	N 	0.2063	0.6147	-0	-0.026
Mof_N 	N 	0.7937	0.7937	0.4084	-0.023
Mof_N 	N 	0.3853	0.3853	0.5916	-0.023
Mof_N 	N 	0.6147	0.2063	-0	-0.026
Mof_O 	O 	0.7256	0.0803	0.4249	-0.108
Mof_O 	O 	0.5698	0.2319	0.1819	-0.111
Mof_O 	O 	0.6554	0.3007	0.5751	-0.107
Mof_O 	O 	0.05	0.3879	0.8181	-0.111
Mof_O 	O 	0.3446	0.9197	0.6453	-0.105
Mof_O 	O 	0.95	0.7681	0.3379	-0.105
Mof_O 	O 	0.2744	0.6993	0.3547	-0.107
Mof_O 	O 	0.4302	0.6121	0.6621	-0.11
Mof_O 	O 	0.6453	0.3446	0.9197	-0.105
Mof_O 	O 	0.3379	0.95	0.7681	-0.105
Mof_O 	O 	0.3547	0.2744	0.6993	-0.107
Mof_O 	O 	0.6621	0.4302	0.6121	-0.11
Mof_O 	O 	0.4249	0.7256	0.0803	-0.108
Mof_O 	O 	0.1819	0.5698	0.2319	-0.111
Mof_O 	O 	0.5751	0.6554	0.3007	-0.107
Mof_O 	O 	0.8181	0.05	0.3879	-0.111
Mof_O 	O 	0.3007	0.5751	0.6554	-0.107
Mof_O 	O 	0.3879	0.8181	0.05	-0.111
Mof_O 	O 	0.0803	0.4249	0.7256	-0.108
Mof_O 	O 	0.2319	0.1819	0.5698	-0.111
Mof_O 	O 	0.6993	0.3547	0.2744	-0.107
Mof_O 	O 	0.6121	0.6621	0.4302	-0.11
Mof_O 	O 	0.9197	0.6453	0.3446	-0.105
Mof_O 	O 	0.7681	0.3379	0.95	-0.105
Mof_O 	O 	0.9197	0.2744	0.5751	-0.105
Mof_O 	O 	0.7681	0.4302	0.8181	-0.109
Mof_O 	O 	0.6993	0.3446	0.4249	-0.107
Mof_O 	O 	0.6121	0.95	0.1819	-0.106
Mof_O 	O 	0.0803	0.6554	0.3547	-0.108
Mof_O 	O 	0.2319	0.05	0.6621	-0.112
Mof_O 	O 	0.3007	0.7256	0.6453	-0.107
Mof_O 	O 	0.3879	0.5698	0.3379	-0.111
Mof_O 	O 	0.6554	0.3547	0.0803	-0.108
Mof_O 	O 	0.05	0.6621	0.2319	-0.112
Mof_O 	O 	0.7256	0.6453	0.3007	-0.107
Mof_O 	O 	0.5698	0.3379	0.3879	-0.111
Mof_O 	O 	0.2744	0.5751	0.9197	-0.105
Mof_O 	O 	0.4302	0.8181	0.7681	-0.109
Mof_O 	O 	0.3446	0.4249	0.6993	-0.107
Mof_O 	O 	0.95	0.1819	0.6121	-0.106
Mof_O 	O 	0.4249	0.6993	0.3446	-0.107
Mof_O 	O 	0.1819	0.6121	0.95	-0.106
Mof_O 	O 	0.5751	0.9197	0.2744	-0.105
Mof_O 	O 	0.8181	0.7681	0.4302	-0.109
Mof_O 	O 	0.6453	0.3007	0.7256	-0.107
Mof_O 	O 	0.3379	0.3879	0.5698	-0.111
Mof_O 	O 	0.3547	0.0803	0.6554	-0.108
Mof_O 	O 	0.6621	0.2319	0.05	-0.112
Mof_O 	O 	0.2744	0.9197	0.5751	-0.105
Mof_O 	O 	0.4302	0.7681	0.8181	-0.109
Mof_O 	O 	0.3446	0.6993	0.4249	-0.107
Mof_O 	O 	0.95	0.6121	0.1819	-0.106
Mof_O 	O 	0.6554	0.0803	0.3547	-0.108
Mof_O 	O 	0.05	0.2319	0.6621	-0.112
Mof_O 	O 	0.7256	0.3007	0.6453	-0.107
Mof_O 	O 	0.5698	0.3879	0.3379	-0.111
Mof_O 	O 	0.3547	0.6554	0.0803	-0.108
Mof_O 	O 	0.6621	0.05	0.2319	-0.112
Mof_O 	O 	0.6453	0.7256	0.3007	-0.107
Mof_O 	O 	0.3379	0.5698	0.3879	-0.111
Mof_O 	O 	0.5751	0.2744	0.9197	-0.105
Mof_O 	O 	0.8181	0.4302	0.7681	-0.109
Mof_O 	O 	0.4249	0.3446	0.6993	-0.107
Mof_O 	O 	0.1819	0.95	0.6121	-0.106
Mof_O 	O 	0.6993	0.4249	0.3446	-0.107
Mof_O 	O 	0.6121	0.1819	0.95	-0.106
Mof_O 	O 	0.9197	0.5751	0.2744	-0.105
Mof_O 	O 	0.7681	0.8181	0.4302	-0.109
Mof_O 	O 	0.3007	0.6453	0.7256	-0.107
Mof_O 	O 	0.3879	0.3379	0.5698	-0.111
Mof_O 	O 	0.0803	0.3547	0.6554	-0.108
Mof_O 	O 	0.2319	0.6621	0.05	-0.112
Mof_O 	O 	0.0803	0.7256	0.4249	-0.108
Mof_O 	O 	0.2319	0.5698	0.1819	-0.111
Mof_O 	O 	0.3007	0.6554	0.5751	-0.107
Mof_O 	O 	0.3879	0.05	0.8181	-0.111
Mof_O 	O 	0.9197	0.3446	0.6453	-0.105
Mof_O 	O 	0.7681	0.95	0.3379	-0.105
Mof_O 	O 	0.6993	0.2744	0.3547	-0.107
Mof_O 	O 	0.6121	0.4302	0.6621	-0.11
Mof_O 	O 	0.3446	0.6453	0.9197	-0.105
Mof_O 	O 	0.95	0.3379	0.7681	-0.105
Mof_O 	O 	0.2744	0.3547	0.6993	-0.107
Mof_O 	O 	0.4302	0.6621	0.6121	-0.11
Mof_O 	O 	0.7256	0.4249	0.0803	-0.108
Mof_O 	O 	0.5698	0.1819	0.2319	-0.111
Mof_O 	O 	0.6554	0.5751	0.3007	-0.107
Mof_O 	O 	0.05	0.8181	0.3879	-0.111
Mof_O 	O 	0.5751	0.3007	0.6554	-0.107
Mof_O 	O 	0.8181	0.3879	0.05	-0.111
Mof_O 	O 	0.4249	0.0803	0.7256	-0.108
Mof_O 	O 	0.1819	0.2319	0.5698	-0.111
Mof_O 	O 	0.3547	0.6993	0.2744	-0.107
Mof_O 	O 	0.6621	0.6121	0.4302	-0.11
Mof_O 	O 	0.6453	0.9197	0.3446	-0.105
Mof_O 	O 	0.3379	0.7681	0.95	-0.105
_end
