data_functionalizedCrystal
_audit_creation_method	'EQeq! by Chris Wilmer'
_symmetry_space_group_name_H-M	'P1'
_symmetry_Int_Tables_number	1
_symmetry_cell_setting	triclinic
loop_
_symmetry_equiv_pos_as_xyz
  x,y,z
_cell_length_a	15.439
_cell_length_b	10.758
_cell_length_c	28.81
_cell_angle_alpha	90
_cell_angle_beta	90.73
_cell_angle_gamma	90
loop_
_atom_site_label
_atom_site_type_symbol
_atom_site_fract_x
_atom_site_fract_y
_atom_site_fract_z
_atom_site_charge
Mof_C 	C 	0.5028	0.272	0.4715	0.103
Mof_H 	H 	0.4671	0.3414	0.4692	-0.019
Mof_C 	C 	0.4686	0.1661	0.4876	-0.147
Mof_H 	H 	0.411	0.1642	0.4968	0.092
Mof_C 	C 	0.5185	0.0598	0.4907	0.073
Mof_C 	C 	0.6028	0.0703	0.4772	-0.13
Mof_H 	H 	0.6391	0.0013	0.4787	0.094
Mof_C 	C 	0.6339	0.1798	0.4619	0.102
Mof_H 	H 	0.6916	0.1838	0.4531	0.001
Mof_C 	C 	0.5245	0.6367	0.4202	0.375
Mof_C 	C 	0.5	0.7598	0.4	-0.134
Mof_C 	C 	0.5585	0.8279	0.3747	0.061
Mof_H 	H 	0.6131	0.7951	0.369	0.003
Mof_C 	C 	0.5373	0.9436	0.3577	0.045
Mof_C 	C 	0.4576	0.9939	0.3673	0.096
Mof_H 	H 	0.444	0.0738	0.3572	0.079
Mof_C 	C 	0.3973	0.9256	0.3919	-0.137
Mof_C 	C 	0.4182	0.8068	0.4074	0.083
Mof_H 	H 	0.3771	0.7591	0.4226	0.047
Mof_C 	C 	0.6737	0.032	0.3365	3.238
Mof_C 	C 	0.7193	0.1063	0.3017	0.579
Mof_C 	C 	0.794	0.166	0.3174	3.295
Mof_H 	H 	0.8115	0.1584	0.3483	-1.142
Mof_C 	C 	0.8424	0.237	0.2869	-0.007
Mof_H 	H 	0.8924	0.277	0.2974	0.288
Mof_C 	C 	0.8162	0.248	0.2408	0.183
Mof_H 	H 	0.8487	0.2959	0.2204	2.547
Mof_C 	C 	0.7416	0.1887	0.2251	-0.505
Mof_H 	H 	0.724	0.1962	0.1942	0.148
Mof_C 	C 	0.6931	0.1176	0.2556	-0.69
Mof_H 	H 	0.6432	0.0776	0.2451	-0.463
Mof_N 	N 	0.5854	0.2835	0.4586	-0.279
Mof_N 	N 	0.5983	0.0124	0.3313	0.939
Mof_C 	C 	0.3103	0.9793	0.4044	0.401
Mof_O 	O 	0.2575	0.9061	0.42009	-0.493
Mof_O 	O 	0.605	0.6159	0.4226	-0.48
Mof_O 	O 	0.4703	0.5647	0.433	-0.349
Mof_O 	O 	0.7117	0.9867	0.3696	-0.737
Mof_O 	O 	0.2994	0.0918	0.3965	-0.317
Mof_Zn	Zn	0.63857	0.44552	0.43449	1.194
Mof_O 	O 	0.5345	0.0551	0.2683	-0.588
Mof_C 	C 	0.601	0.0579	0.2918	4.253
Mof_C 	C 	0.681	0.1216	0.2743	-0.572
Mof_C 	C 	0.6909	0.1329	0.2266	2.004
Mof_H 	H 	0.6497	0.0991	0.2064	-0.592
Mof_C 	C 	0.7624	0.195	0.209	-0.725
Mof_H 	H 	0.769	0.2022	0.1771	0.17
Mof_C 	C 	0.824	0.245	0.2391	0.083
Mof_H 	H 	0.8719	0.2865	0.2274	-2.616
Mof_C 	C 	0.8141	0.234	0.2868	-0.498
Mof_H 	H 	0.8554	0.2677	0.307	-0.211
Mof_C 	C 	0.7426	0.1721	0.3044	-2.961
Mof_H 	H 	0.736	0.1646	0.3363	0.108
Mof_H 	H 	0.5764	0.0472	0.3062	-3.197
Mof_H 	H 	0.6449	0.0283	0.3466	-2.696
Mof_C 	C 	0.0028	0.772	0.4715	0.13
Mof_H 	H 	0.9671	0.8414	0.4692	-0.031
Mof_C 	C 	0.9686	0.6661	0.4876	-0.182
Mof_H 	H 	0.911	0.6642	0.4968	0.104
Mof_C 	C 	0.0185	0.5598	0.4907	0.104
Mof_C 	C 	0.1028	0.5703	0.4772	-0.15
Mof_H 	H 	0.1391	0.5013	0.4787	0.101
Mof_C 	C 	0.1339	0.6798	0.4619	0.114
Mof_H 	H 	0.1916	0.6838	0.4531	-0.003
Mof_C 	C 	0.0245	0.1367	0.4202	0.377
Mof_C 	C 	2.97003e-18	0.2598	0.4	-0.126
Mof_C 	C 	0.0585	0.3279	0.3747	0.054
Mof_H 	H 	0.1131	0.2951	0.369	0.005
Mof_C 	C 	0.0373	0.4436	0.3577	0.053
Mof_C 	C 	0.9576	0.4939	0.3673	0.08
Mof_H 	H 	0.944	0.5738	0.3572	0.085
Mof_C 	C 	0.8973	0.4256	0.3919	-0.129
Mof_C 	C 	0.9182	0.3068	0.4074	0.071
Mof_H 	H 	0.8771	0.2591	0.4226	0.05
Mof_C 	C 	0.1737	0.532	0.3365	3.237
Mof_C 	C 	0.2193	0.6063	0.3017	0.581
Mof_C 	C 	0.294	0.666	0.3174	3.291
Mof_H 	H 	0.3115	0.6584	0.3483	-1.14
Mof_C 	C 	0.3424	0.737	0.2869	-0.005
Mof_H 	H 	0.3924	0.777	0.2974	0.291
Mof_C 	C 	0.3162	0.748	0.2408	0.182
Mof_H 	H 	0.3487	0.7959	0.2204	2.561
Mof_C 	C 	0.2416	0.6887	0.2251	-0.505
Mof_H 	H 	0.224	0.6962	0.1942	0.147
Mof_C 	C 	0.1931	0.6176	0.2556	-0.691
Mof_H 	H 	0.1432	0.5776	0.2451	-0.462
Mof_N 	N 	0.0854	0.7835	0.4586	-0.285
Mof_N 	N 	0.0983	0.5124	0.3313	0.938
Mof_C 	C 	0.8103	0.4793	0.4044	0.396
Mof_O 	O 	0.7575	0.4061	0.42009	-0.492
Mof_O 	O 	0.105	0.1159	0.4226	-0.481
Mof_O 	O 	0.9703	0.0647	0.433	-0.353
Mof_O 	O 	0.2117	0.4867	0.3696	-0.739
Mof_O 	O 	0.7994	0.5918	0.3965	-0.315
Mof_Zn	Zn	0.13857	0.94552	0.43449	1.195
Mof_O 	O 	0.0345	0.5551	0.2683	-0.587
Mof_C 	C 	0.101	0.5579	0.2918	4.257
Mof_C 	C 	0.181	0.6216	0.2743	-0.573
Mof_C 	C 	0.1909	0.6329	0.2266	2.007
Mof_H 	H 	0.1497	0.5991	0.2064	-0.592
Mof_C 	C 	0.2624	0.695	0.209	-0.725
Mof_H 	H 	0.269	0.7022	0.1771	0.17
Mof_C 	C 	0.324	0.745	0.2391	0.081
Mof_H 	H 	0.3719	0.7865	0.2274	-2.628
Mof_C 	C 	0.3141	0.734	0.2868	-0.495
Mof_H 	H 	0.3554	0.7677	0.307	-0.214
Mof_C 	C 	0.2426	0.6721	0.3044	-2.96
Mof_H 	H 	0.236	0.6646	0.3363	0.109
Mof_H 	H 	0.0764	0.5472	0.3062	-3.199
Mof_H 	H 	0.1449	0.5283	0.3466	-2.695
Mof_C 	C 	0.4972	0.272	0.0285	0.103
Mof_H 	H 	0.5329	0.3414	0.0308	-0.019
Mof_C 	C 	0.5314	0.1661	0.0124	-0.147
Mof_H 	H 	0.589	0.1642	0.0032	0.092
Mof_C 	C 	0.4815	0.0598	0.0093	0.074
Mof_C 	C 	0.3972	0.0703	0.0228	-0.13
Mof_H 	H 	0.3609	0.0013	0.0213	0.094
Mof_C 	C 	0.3661	0.1798	0.0381	0.102
Mof_H 	H 	0.3084	0.1838	0.0469	0.001
Mof_C 	C 	0.4755	0.6367	0.0798	0.375
Mof_C 	C 	0.5	0.7598	0.1	-0.134
Mof_C 	C 	0.4415	0.8279	0.1253	0.061
Mof_H 	H 	0.3869	0.7951	0.131	0.003
Mof_C 	C 	0.4627	0.9436	0.1423	0.045
Mof_C 	C 	0.5424	0.9939	0.1327	0.097
Mof_H 	H 	0.556	0.0738	0.1428	0.079
Mof_C 	C 	0.6027	0.9256	0.1081	-0.138
Mof_C 	C 	0.5818	0.8068	0.0926	0.083
Mof_H 	H 	0.6229	0.7591	0.0774	0.047
Mof_C 	C 	0.3263	0.032	0.1635	3.238
Mof_C 	C 	0.2807	0.1063	0.1983	0.579
Mof_C 	C 	0.206	0.166	0.1826	3.29
Mof_H 	H 	0.1885	0.1584	0.1517	-1.14
Mof_C 	C 	0.1576	0.237	0.2131	-0.005
Mof_H 	H 	0.1076	0.277	0.2026	0.292
Mof_C 	C 	0.1838	0.248	0.2592	0.182
Mof_H 	H 	0.1513	0.2959	0.2796	2.569
Mof_C 	C 	0.2584	0.1887	0.2749	-0.504
Mof_H 	H 	0.276	0.1962	0.3058	0.147
Mof_C 	C 	0.3069	0.1176	0.2444	-0.69
Mof_H 	H 	0.3568	0.0776	0.2549	-0.462
Mof_N 	N 	0.4146	0.2835	0.0414	-0.279
Mof_N 	N 	0.4017	0.0124	0.1687	0.939
Mof_C 	C 	0.6897	0.9793	0.0956	0.402
Mof_O 	O 	0.7425	0.9061	0.07991	-0.494
Mof_O 	O 	0.395	0.6159	0.0774	-0.48
Mof_O 	O 	0.5297	0.5647	0.067	-0.349
Mof_O 	O 	0.2883	0.9867	0.1304	-0.737
Mof_O 	O 	0.7006	0.0918	0.1035	-0.318
Mof_Zn	Zn	0.36143	0.44552	0.06551	1.194
Mof_O 	O 	0.4655	0.0551	0.2317	-0.588
Mof_C 	C 	0.399	0.0579	0.2082	4.253
Mof_C 	C 	0.319	0.1216	0.2257	-0.572
Mof_C 	C 	0.3091	0.1329	0.2734	2.004
Mof_H 	H 	0.3503	0.0991	0.2936	-0.592
Mof_C 	C 	0.2376	0.195	0.291	-0.724
Mof_H 	H 	0.231	0.2022	0.3229	0.17
Mof_C 	C 	0.176	0.245	0.2609	0.079
Mof_H 	H 	0.1281	0.2865	0.2726	-2.636
Mof_C 	C 	0.1859	0.234	0.2132	-0.493
Mof_H 	H 	0.1446	0.2677	0.193	-0.215
Mof_C 	C 	0.2574	0.1721	0.1956	-2.959
Mof_H 	H 	0.264	0.1646	0.1637	0.109
Mof_H 	H 	0.4236	0.0472	0.1938	-3.197
Mof_H 	H 	0.3551	0.0283	0.1534	-2.696
Mof_C 	C 	0.9972	0.772	0.0285	0.069
Mof_H 	H 	0.0329	0.8414	0.0308	-0.005
Mof_C 	C 	0.0314	0.6661	0.0124	-0.107
Mof_H 	H 	0.089	0.6642	0.0032	0.078
Mof_C 	C 	0.9815	0.5598	0.0093	0.04
Mof_C 	C 	0.8972	0.5703	0.0228	-0.107
Mof_H 	H 	0.8609	0.5013	0.0213	0.085
Mof_C 	C 	0.8661	0.6798	0.0381	0.088
Mof_H 	H 	0.8084	0.6838	0.0469	0.006
Mof_C 	C 	0.9755	0.1367	0.0798	0.362
Mof_C 	C 	7.42509e-19	0.2598	0.1	-0.12
Mof_C 	C 	0.9415	0.3279	0.1253	0.049
Mof_H 	H 	0.8869	0.2951	0.131	0.007
Mof_C 	C 	0.9627	0.4436	0.1423	0.044
Mof_C 	C 	0.0424	0.4939	0.1327	0.093
Mof_H 	H 	0.056	0.5738	0.1428	0.082
Mof_C 	C 	0.1027	0.4256	0.1081	-0.132
Mof_C 	C 	0.0818	0.3068	0.0926	0.075
Mof_H 	H 	0.1229	0.2591	0.0774	0.05
Mof_C 	C 	0.8263	0.532	0.1635	3.22
Mof_C 	C 	0.7807	0.6063	0.1983	0.577
Mof_C 	C 	0.706	0.666	0.1826	3.271
Mof_H 	H 	0.6885	0.6584	0.1517	-1.133
Mof_C 	C 	0.6576	0.737	0.2131	-0.004
Mof_H 	H 	0.6076	0.777	0.2026	0.29
Mof_C 	C 	0.6838	0.748	0.2592	0.18
Mof_H 	H 	0.6513	0.7959	0.2796	2.557
Mof_C 	C 	0.7584	0.6887	0.2749	-0.502
Mof_H 	H 	0.776	0.6962	0.3058	0.146
Mof_C 	C 	0.8069	0.6176	0.2444	-0.688
Mof_H 	H 	0.8568	0.5776	0.2549	-0.459
Mof_N 	N 	0.9146	0.7835	0.0414	-0.271
Mof_N 	N 	0.9017	0.5124	0.1687	0.932
Mof_C 	C 	0.1897	0.4793	0.0956	0.397
Mof_O 	O 	0.2425	0.4061	0.07991	-0.492
Mof_O 	O 	0.895	0.1159	0.0774	-0.478
Mof_O 	O 	0.0297	0.0647	0.067	-0.343
Mof_O 	O 	0.7883	0.4867	0.1304	-0.736
Mof_O 	O 	0.2006	0.5918	0.1035	-0.315
Mof_Zn	Zn	0.86143	0.94552	0.06551	1.194
Mof_O 	O 	0.9655	0.5551	0.2317	-0.588
Mof_C 	C 	0.899	0.5579	0.2082	4.231
Mof_C 	C 	0.819	0.6216	0.2257	-0.57
Mof_C 	C 	0.8091	0.6329	0.2734	1.995
Mof_H 	H 	0.8503	0.5991	0.2936	-0.589
Mof_C 	C 	0.7376	0.695	0.291	-0.72
Mof_H 	H 	0.731	0.7022	0.3229	0.169
Mof_C 	C 	0.676	0.745	0.2609	0.078
Mof_H 	H 	0.6281	0.7865	0.2726	-2.623
Mof_C 	C 	0.6859	0.734	0.2132	-0.491
Mof_H 	H 	0.6446	0.7677	0.193	-0.214
Mof_C 	C 	0.7574	0.6721	0.1956	-2.943
Mof_H 	H 	0.764	0.6646	0.1637	0.108
Mof_H 	H 	0.9236	0.5472	0.1938	-3.179
Mof_H 	H 	0.8551	0.5283	0.1534	-2.68
Mof_C 	C 	0.4972	0.728	0.5285	0.103
Mof_H 	H 	0.5329	0.6586	0.5308	-0.019
Mof_C 	C 	0.5314	0.8339	0.5124	-0.147
Mof_H 	H 	0.589	0.8358	0.5032	0.091
Mof_C 	C 	0.4815	0.9402	0.5093	0.073
Mof_C 	C 	0.3972	0.9297	0.5228	-0.13
Mof_H 	H 	0.3609	0.9987	0.5213	0.094
Mof_C 	C 	0.3661	0.8202	0.5381	0.102
Mof_H 	H 	0.3084	0.8162	0.5469	0.001
Mof_C 	C 	0.4755	0.3633	0.5798	0.375
Mof_C 	C 	0.5	0.2402	0.6	-0.134
Mof_C 	C 	0.4415	0.1721	0.6253	0.061
Mof_H 	H 	0.3869	0.2049	0.631	0.003
Mof_C 	C 	0.4627	0.0564	0.6423	0.045
Mof_C 	C 	0.5424	0.0061	0.6327	0.096
Mof_H 	H 	0.556	0.9262	0.6428	0.079
Mof_C 	C 	0.6027	0.0744	0.6081	-0.137
Mof_C 	C 	0.5818	0.1932	0.5926	0.083
Mof_H 	H 	0.6229	0.2409	0.5774	0.047
Mof_C 	C 	0.3263	0.968	0.6635	3.237
Mof_C 	C 	0.2807	0.8937	0.6983	0.579
Mof_C 	C 	0.206	0.834	0.6826	3.29
Mof_H 	H 	0.1885	0.8416	0.6517	-1.14
Mof_C 	C 	0.1576	0.763	0.7131	-0.005
Mof_H 	H 	0.1076	0.723	0.7026	0.291
Mof_C 	C 	0.1838	0.752	0.7592	0.182
Mof_H 	H 	0.1513	0.7041	0.7796	2.567
Mof_C 	C 	0.2584	0.8113	0.7749	-0.504
Mof_H 	H 	0.276	0.8038	0.8058	0.147
Mof_C 	C 	0.3069	0.8824	0.7444	-0.69
Mof_H 	H 	0.3568	0.9224	0.7549	-0.462
Mof_N 	N 	0.4146	0.7165	0.5414	-0.279
Mof_N 	N 	0.4017	0.9876	0.6687	0.939
Mof_C 	C 	0.6897	0.0207	0.5956	0.401
Mof_O 	O 	0.7425	0.0939	0.57991	-0.493
Mof_O 	O 	0.395	0.3841	0.5774	-0.48
Mof_O 	O 	0.5297	0.4353	0.567	-0.349
Mof_O 	O 	0.2883	0.0133	0.6304	-0.737
Mof_O 	O 	0.7006	0.9082	0.6035	-0.318
Mof_Zn	Zn	0.36143	0.55448	0.56551	1.194
Mof_O 	O 	0.4655	0.9449	0.7317	-0.588
Mof_C 	C 	0.399	0.9421	0.7082	4.252
Mof_C 	C 	0.319	0.8784	0.7257	-0.572
Mof_C 	C 	0.3091	0.8671	0.7734	2.004
Mof_H 	H 	0.3503	0.9009	0.7936	-0.592
Mof_C 	C 	0.2376	0.805	0.791	-0.724
Mof_H 	H 	0.231	0.7978	0.8229	0.17
Mof_C 	C 	0.176	0.755	0.7609	0.079
Mof_H 	H 	0.1281	0.7135	0.7726	-2.633
Mof_C 	C 	0.1859	0.766	0.7132	-0.494
Mof_H 	H 	0.1446	0.7323	0.693	-0.215
Mof_C 	C 	0.2574	0.8279	0.6956	-2.959
Mof_H 	H 	0.264	0.8354	0.6637	0.109
Mof_H 	H 	0.4236	0.9528	0.6938	-3.196
Mof_H 	H 	0.3551	0.9717	0.6534	-2.696
Mof_C 	C 	0.9972	0.228	0.5285	0.072
Mof_H 	H 	0.0329	0.1586	0.5308	-0.006
Mof_C 	C 	0.0314	0.3339	0.5124	-0.111
Mof_H 	H 	0.089	0.3358	0.5032	0.079
Mof_C 	C 	0.9815	0.4402	0.5093	0.041
Mof_C 	C 	0.8972	0.4297	0.5228	-0.108
Mof_H 	H 	0.8609	0.4987	0.5213	0.085
Mof_C 	C 	0.8661	0.3202	0.5381	0.088
Mof_H 	H 	0.8084	0.3162	0.5469	0.006
Mof_C 	C 	0.9755	0.8633	0.5798	0.364
Mof_C 	C 	2.97003e-18	0.7402	0.6	-0.122
Mof_C 	C 	0.9415	0.6721	0.6253	0.051
Mof_H 	H 	0.8869	0.7049	0.631	0.006
Mof_C 	C 	0.9627	0.5564	0.6423	0.044
Mof_C 	C 	0.0424	0.5061	0.6327	0.092
Mof_H 	H 	0.056	0.4262	0.6428	0.082
Mof_C 	C 	0.1027	0.5744	0.6081	-0.133
Mof_C 	C 	0.0818	0.6932	0.5926	0.076
Mof_H 	H 	0.1229	0.7409	0.5774	0.049
Mof_C 	C 	0.8263	0.468	0.6635	3.222
Mof_C 	C 	0.7807	0.3937	0.6983	0.577
Mof_C 	C 	0.706	0.334	0.6826	3.272
Mof_H 	H 	0.6885	0.3416	0.6517	-1.134
Mof_C 	C 	0.6576	0.263	0.7131	-0.004
Mof_H 	H 	0.6076	0.223	0.7026	0.29
Mof_C 	C 	0.6838	0.252	0.7592	0.181
Mof_H 	H 	0.6513	0.2041	0.7796	2.557
Mof_C 	C 	0.7584	0.3113	0.7749	-0.502
Mof_H 	H 	0.776	0.3038	0.8058	0.146
Mof_C 	C 	0.8069	0.3824	0.7444	-0.688
Mof_H 	H 	0.8568	0.4224	0.7549	-0.459
Mof_N 	N 	0.9146	0.2165	0.5414	-0.271
Mof_N 	N 	0.9017	0.4876	0.6687	0.933
Mof_C 	C 	0.1897	0.5207	0.5956	0.397
Mof_O 	O 	0.2425	0.5939	0.57991	-0.492
Mof_O 	O 	0.895	0.8841	0.5774	-0.478
Mof_O 	O 	0.0297	0.9353	0.567	-0.344
Mof_O 	O 	0.7883	0.5133	0.6304	-0.736
Mof_O 	O 	0.2006	0.4082	0.6035	-0.316
Mof_Zn	Zn	0.86143	0.05448	0.56551	1.194
Mof_O 	O 	0.9655	0.4449	0.7317	-0.588
Mof_C 	C 	0.899	0.4421	0.7082	4.233
Mof_C 	C 	0.819	0.3784	0.7257	-0.57
Mof_C 	C 	0.8091	0.3671	0.7734	1.996
Mof_H 	H 	0.8503	0.4009	0.7936	-0.589
Mof_C 	C 	0.7376	0.305	0.791	-0.72
Mof_H 	H 	0.731	0.2978	0.8229	0.169
Mof_C 	C 	0.676	0.255	0.7609	0.079
Mof_H 	H 	0.6281	0.2135	0.7726	-2.623
Mof_C 	C 	0.6859	0.266	0.7132	-0.491
Mof_H 	H 	0.6446	0.2323	0.693	-0.214
Mof_C 	C 	0.7574	0.3279	0.6956	-2.944
Mof_H 	H 	0.764	0.3354	0.6637	0.108
Mof_H 	H 	0.9236	0.4528	0.6938	-3.18
Mof_H 	H 	0.8551	0.4717	0.6534	-2.681
Mof_C 	C 	0.5028	0.728	0.9715	0.102
Mof_H 	H 	0.4671	0.6586	0.9692	-0.019
Mof_C 	C 	0.4686	0.8339	0.9876	-0.146
Mof_H 	H 	0.411	0.8358	0.9968	0.091
Mof_C 	C 	0.5185	0.9402	0.9907	0.072
Mof_C 	C 	0.6028	0.9297	0.9772	-0.129
Mof_H 	H 	0.6391	0.9987	0.9787	0.093
Mof_C 	C 	0.6339	0.8202	0.9619	0.101
Mof_H 	H 	0.6916	0.8162	0.9531	0.002
Mof_C 	C 	0.5245	0.3633	0.9202	0.375
Mof_C 	C 	0.5	0.2402	0.9	-0.134
Mof_C 	C 	0.5585	0.1721	0.8747	0.061
Mof_H 	H 	0.6131	0.2049	0.869	0.003
Mof_C 	C 	0.5373	0.0564	0.8577	0.045
Mof_C 	C 	0.4576	0.0061	0.8673	0.096
Mof_H 	H 	0.444	0.9262	0.8572	0.079
Mof_C 	C 	0.3973	0.0744	0.8919	-0.137
Mof_C 	C 	0.4182	0.1932	0.9074	0.083
Mof_H 	H 	0.3771	0.2409	0.9226	0.047
Mof_C 	C 	0.6737	0.968	0.8365	3.237
Mof_C 	C 	0.7193	0.8937	0.8017	0.579
Mof_C 	C 	0.794	0.834	0.8174	3.294
Mof_H 	H 	0.8115	0.8416	0.8483	-1.142
Mof_C 	C 	0.8424	0.763	0.7869	-0.007
Mof_H 	H 	0.8924	0.723	0.7974	0.288
Mof_C 	C 	0.8162	0.752	0.7408	0.183
Mof_H 	H 	0.8487	0.7041	0.7204	2.549
Mof_C 	C 	0.7416	0.8113	0.7251	-0.505
Mof_H 	H 	0.724	0.8038	0.6942	0.148
Mof_C 	C 	0.6931	0.8824	0.7556	-0.69
Mof_H 	H 	0.6432	0.9224	0.7451	-0.463
Mof_N 	N 	0.5854	0.7165	0.9586	-0.279
Mof_N 	N 	0.5983	0.9876	0.8313	0.939
Mof_C 	C 	0.3103	0.0207	0.9044	0.401
Mof_O 	O 	0.2575	0.0939	0.92009	-0.493
Mof_O 	O 	0.605	0.3841	0.9226	-0.48
Mof_O 	O 	0.4703	0.4353	0.933	-0.349
Mof_O 	O 	0.7117	0.0133	0.8696	-0.737
Mof_O 	O 	0.2994	0.9082	0.8965	-0.317
Mof_Zn	Zn	0.63857	0.55448	0.93449	1.194
Mof_O 	O 	0.5345	0.9449	0.7683	-0.588
Mof_C 	C 	0.601	0.9421	0.7918	4.253
Mof_C 	C 	0.681	0.8784	0.7743	-0.572
Mof_C 	C 	0.6909	0.8671	0.7266	2.004
Mof_H 	H 	0.6497	0.9009	0.7064	-0.592
Mof_C 	C 	0.7624	0.805	0.709	-0.724
Mof_H 	H 	0.769	0.7978	0.6771	0.17
Mof_C 	C 	0.824	0.755	0.7391	0.083
Mof_H 	H 	0.8719	0.7135	0.7274	-2.617
Mof_C 	C 	0.8141	0.766	0.7868	-0.498
Mof_H 	H 	0.8554	0.7323	0.807	-0.211
Mof_C 	C 	0.7426	0.8279	0.8044	-2.961
Mof_H 	H 	0.736	0.8354	0.8363	0.108
Mof_H 	H 	0.5764	0.9528	0.8062	-3.196
Mof_H 	H 	0.6449	0.9717	0.8466	-2.696
Mof_C 	C 	0.0028	0.228	0.9715	0.125
Mof_H 	H 	0.9671	0.1586	0.9692	-0.029
Mof_C 	C 	0.9686	0.3339	0.9876	-0.177
Mof_H 	H 	0.911	0.3358	0.9968	0.102
Mof_C 	C 	0.0185	0.4402	0.9907	0.101
Mof_C 	C 	0.1028	0.4297	0.9772	-0.149
Mof_H 	H 	0.1391	0.4987	0.9787	0.1
Mof_C 	C 	0.1339	0.3202	0.9619	0.113
Mof_H 	H 	0.1916	0.3162	0.9531	-0.002
Mof_C 	C 	0.0245	0.8633	0.9202	0.377
Mof_C 	C 	2.97003e-18	0.7402	0.9	-0.128
Mof_C 	C 	0.0585	0.6721	0.8747	0.055
Mof_H 	H 	0.1131	0.7049	0.869	0.005
Mof_C 	C 	0.0373	0.5564	0.8577	0.052
Mof_C 	C 	0.9576	0.5061	0.8673	0.082
Mof_H 	H 	0.944	0.4262	0.8572	0.084
Mof_C 	C 	0.8973	0.5744	0.8919	-0.13
Mof_C 	C 	0.9182	0.6932	0.9074	0.073
Mof_H 	H 	0.8771	0.7409	0.9226	0.05
Mof_C 	C 	0.1737	0.468	0.8365	3.235
Mof_C 	C 	0.2193	0.3937	0.8017	0.58
Mof_C 	C 	0.294	0.334	0.8174	3.289
Mof_H 	H 	0.3115	0.3416	0.8483	-1.14
Mof_C 	C 	0.3424	0.263	0.7869	-0.005
Mof_H 	H 	0.3924	0.223	0.7974	0.291
Mof_C 	C 	0.3162	0.252	0.7408	0.182
Mof_H 	H 	0.3487	0.2041	0.7204	2.561
Mof_C 	C 	0.2416	0.3113	0.7251	-0.504
Mof_H 	H 	0.224	0.3038	0.6942	0.147
Mof_C 	C 	0.1931	0.3824	0.7556	-0.691
Mof_H 	H 	0.1432	0.4224	0.7451	-0.462
Mof_N 	N 	0.0854	0.2165	0.9586	-0.284
Mof_N 	N 	0.0983	0.4876	0.8313	0.938
Mof_C 	C 	0.8103	0.5207	0.9044	0.396
Mof_O 	O 	0.7575	0.5939	0.92009	-0.492
Mof_O 	O 	0.105	0.8841	0.9226	-0.481
Mof_O 	O 	0.9703	0.9353	0.933	-0.352
Mof_O 	O 	0.2117	0.5133	0.8696	-0.739
Mof_O 	O 	0.7994	0.4082	0.8965	-0.315
Mof_Zn	Zn	0.13857	0.05448	0.93449	1.195
Mof_O 	O 	0.0345	0.4449	0.7683	-0.587
Mof_C 	C 	0.101	0.4421	0.7918	4.254
Mof_C 	C 	0.181	0.3784	0.7743	-0.573
Mof_C 	C 	0.1909	0.3671	0.7266	2.006
Mof_H 	H 	0.1497	0.4009	0.7064	-0.592
Mof_C 	C 	0.2624	0.305	0.709	-0.724
Mof_H 	H 	0.269	0.2978	0.6771	0.17
Mof_C 	C 	0.324	0.255	0.7391	0.081
Mof_H 	H 	0.3719	0.2135	0.7274	-2.627
Mof_C 	C 	0.3141	0.266	0.7868	-0.495
Mof_H 	H 	0.3554	0.2323	0.807	-0.214
Mof_C 	C 	0.2426	0.3279	0.8044	-2.958
Mof_H 	H 	0.236	0.3354	0.8363	0.109
Mof_H 	H 	0.0764	0.4528	0.8062	-3.196
Mof_H 	H 	0.1449	0.4717	0.8466	-2.693
_end
