data_functionalizedCrystal
_audit_creation_method	'EQeq! by Chris Wilmer'
_symmetry_space_group_name_H-M	'P1'
_symmetry_Int_Tables_number	1
_symmetry_cell_setting	triclinic
loop_
_symmetry_equiv_pos_as_xyz
  x,y,z
_cell_length_a	25.361
_cell_length_b	26.6184
_cell_length_c	14.5318
_cell_angle_alpha	90
_cell_angle_beta	90
_cell_angle_gamma	90
loop_
_atom_site_label
_atom_site_type_symbol
_atom_site_fract_x
_atom_site_fract_y
_atom_site_fract_z
_atom_site_charge
Mof_Gd	Gd	0.39778	0.81534	0.14684	1.754
Mof_Cl	Cl	0.57644	0.68503	0.22612	-0.219
Mof_Cl	Cl	0.65531	0.63395	0.09695	-0.185
Mof_Cl	Cl	0.50447	0.62798	0.83274	-0.2
Mof_Cl	Cl	0.42558	0.67298	0.97068	-0.226
Mof_Cl	Cl	0.54282	0.43303	0.87966	-0.214
Mof_Cl	Cl	0.57769	0.52128	0.00158	-0.174
Mof_Cl	Cl	0.63603	0.62256	0.69455	-0.188
Mof_Cl	Cl	0.61286	0.52691	0.57972	-0.214
Mof_Cl	Cl	0.71593	0.54972	0.9187	-0.174
Mof_Cl	Cl	0.8227	0.60138	0.88873	-0.211
Mof_Cl	Cl	0.72411	0.7792	0.85672	-0.238
Mof_Cl	Cl	0.61697	0.72787	0.87215	-0.188
Mof_O 	O 	0.45178	0.74559	0.1367	-0.489
Mof_O 	O 	0.45282	0.67671	0.2234	-0.442
Mof_O 	O 	0.5219	0.4409	0.6386	-0.21
Mof_O 	O 	0.59764	0.40359	0.6769	-0.4
Mof_O 	O 	0.84124	0.69524	0.7718	-0.457
Mof_O 	O 	0.83716	0.74719	0.8943	-0.416
Mof_C 	C 	0.4662	0.7021	0.1565	0.568
Mof_C 	C 	0.5649	0.4391	0.6771	0.439
Mof_C 	C 	0.821	0.7122	0.8445	0.52
Mof_C 	C 	0.5053	0.6785	0.0908	-0.185
Mof_C 	C 	0.5574	0.6691	0.1173	0.212
Mof_C 	C 	0.5924	0.6471	0.0561	0.118
Mof_C 	C 	0.5784	0.6343	0.9666	-0.013
Mof_C 	C 	0.5258	0.6427	0.9415	0.129
Mof_C 	C 	0.4906	0.6642	0.0037	0.209
Mof_C 	C 	0.6182	0.6144	0.9012	0.133
Mof_C 	C 	0.5797	0.4845	0.7367	-0.13
Mof_C 	C 	0.5713	0.4849	0.8306	0.197
Mof_C 	C 	0.585	0.5259	0.8856	0.137
Mof_C 	C 	0.6063	0.5696	0.8447	-0.018
Mof_C 	C 	0.6144	0.5688	0.7503	0.125
Mof_C 	C 	0.602	0.5271	0.6971	0.184
Mof_C 	C 	0.6691	0.6398	0.8922	-0.014
Mof_C 	C 	0.7173	0.6128	0.8951	0.12
Mof_C 	C 	0.7652	0.6358	0.8834	0.197
Mof_C 	C 	0.7688	0.6874	0.8693	-0.168
Mof_C 	C 	0.7223	0.7145	0.8722	0.2
Mof_C 	C 	0.6734	0.6918	0.882	0.127
Mof_Gd	Gd	0.10222	0.18466	0.14684	1.754
Mof_Cl	Cl	0.92356	0.31497	0.22612	-0.217
Mof_Cl	Cl	0.84469	0.36605	0.09695	-0.184
Mof_Cl	Cl	0.99553	0.37202	0.83274	-0.2
Mof_Cl	Cl	0.07442	0.32702	0.97068	-0.223
Mof_Cl	Cl	0.95718	0.56697	0.87966	-0.214
Mof_Cl	Cl	0.92231	0.47872	0.00158	-0.173
Mof_Cl	Cl	0.86397	0.37744	0.69455	-0.188
Mof_Cl	Cl	0.88714	0.47309	0.57972	-0.214
Mof_Cl	Cl	0.78407	0.45028	0.9187	-0.174
Mof_Cl	Cl	0.6773	0.39862	0.88873	-0.211
Mof_Cl	Cl	0.77589	0.2208	0.85672	-0.238
Mof_Cl	Cl	0.88303	0.27213	0.87215	-0.188
Mof_O 	O 	0.04822	0.25441	0.1367	-0.489
Mof_O 	O 	0.04718	0.32329	0.2234	-0.442
Mof_O 	O 	0.9781	0.5591	0.6386	-0.21
Mof_O 	O 	0.90236	0.59641	0.6769	-0.4
Mof_O 	O 	0.65876	0.30476	0.7718	-0.457
Mof_O 	O 	0.66284	0.25281	0.8943	-0.416
Mof_C 	C 	0.0338	0.2979	0.1565	0.565
Mof_C 	C 	0.9351	0.5609	0.6771	0.439
Mof_C 	C 	0.679	0.2878	0.8445	0.52
Mof_C 	C 	0.9947	0.3215	0.0908	-0.18
Mof_C 	C 	0.9426	0.3309	0.1173	0.21
Mof_C 	C 	0.9076	0.3529	0.0561	0.121
Mof_C 	C 	0.9216	0.3657	0.9666	-0.015
Mof_C 	C 	0.9742	0.3573	0.9415	0.131
Mof_C 	C 	0.0094	0.3358	0.0037	0.204
Mof_C 	C 	0.8818	0.3856	0.9012	0.133
Mof_C 	C 	0.9203	0.5155	0.7367	-0.13
Mof_C 	C 	0.9287	0.5151	0.8306	0.197
Mof_C 	C 	0.915	0.4741	0.8856	0.136
Mof_C 	C 	0.8937	0.4304	0.8447	-0.018
Mof_C 	C 	0.8856	0.4312	0.7503	0.125
Mof_C 	C 	0.898	0.4729	0.6971	0.184
Mof_C 	C 	0.8309	0.3602	0.8922	-0.014
Mof_C 	C 	0.7827	0.3872	0.8951	0.12
Mof_C 	C 	0.7348	0.3642	0.8834	0.197
Mof_C 	C 	0.7312	0.3126	0.8693	-0.168
Mof_C 	C 	0.7777	0.2855	0.8722	0.2
Mof_C 	C 	0.8266	0.3082	0.882	0.127
Mof_Gd	Gd	0.10222	0.31534	0.35316	1.755
Mof_Cl	Cl	0.92356	0.18503	0.27388	-0.217
Mof_Cl	Cl	0.84469	0.13395	0.40305	-0.184
Mof_Cl	Cl	0.99553	0.12798	0.66726	-0.199
Mof_Cl	Cl	0.07442	0.17298	0.52932	-0.225
Mof_Cl	Cl	0.95718	0.93303	0.62034	-0.213
Mof_Cl	Cl	0.92231	0.02128	0.49842	-0.174
Mof_Cl	Cl	0.86397	0.12256	0.80545	-0.188
Mof_Cl	Cl	0.88714	0.02691	0.92028	-0.215
Mof_Cl	Cl	0.78407	0.04972	0.5813	-0.174
Mof_Cl	Cl	0.6773	0.10138	0.61127	-0.211
Mof_Cl	Cl	0.77589	0.2792	0.64328	-0.238
Mof_Cl	Cl	0.88303	0.22787	0.62785	-0.188
Mof_O 	O 	0.04822	0.24559	0.3633	-0.489
Mof_O 	O 	0.04718	0.17671	0.2766	-0.442
Mof_O 	O 	0.9781	0.9409	0.8614	-0.211
Mof_O 	O 	0.90236	0.90359	0.8231	-0.4
Mof_O 	O 	0.65876	0.19524	0.7282	-0.457
Mof_O 	O 	0.66284	0.24719	0.6057	-0.416
Mof_C 	C 	0.0338	0.2021	0.3435	0.566
Mof_C 	C 	0.9351	0.9391	0.8229	0.439
Mof_C 	C 	0.679	0.2122	0.6555	0.52
Mof_C 	C 	0.9947	0.1785	0.4092	-0.183
Mof_C 	C 	0.9426	0.1691	0.3827	0.212
Mof_C 	C 	0.9076	0.1471	0.4439	0.118
Mof_C 	C 	0.9216	0.1343	0.5334	-0.013
Mof_C 	C 	0.9742	0.1427	0.5585	0.13
Mof_C 	C 	0.0094	0.1642	0.4963	0.208
Mof_C 	C 	0.8818	0.1144	0.5988	0.133
Mof_C 	C 	0.9203	0.9845	0.7633	-0.131
Mof_C 	C 	0.9287	0.9849	0.6694	0.196
Mof_C 	C 	0.915	0.0259	0.6144	0.137
Mof_C 	C 	0.8937	0.0696	0.6553	-0.018
Mof_C 	C 	0.8856	0.0688	0.7497	0.125
Mof_C 	C 	0.898	0.0271	0.8029	0.185
Mof_C 	C 	0.8309	0.1398	0.6078	-0.014
Mof_C 	C 	0.7827	0.1128	0.6049	0.12
Mof_C 	C 	0.7348	0.1358	0.6166	0.197
Mof_C 	C 	0.7312	0.1874	0.6307	-0.168
Mof_C 	C 	0.7777	0.2145	0.6278	0.2
Mof_C 	C 	0.8266	0.1918	0.618	0.127
Mof_Gd	Gd	0.39778	0.68466	0.35316	1.755
Mof_Cl	Cl	0.57644	0.81497	0.27388	-0.218
Mof_Cl	Cl	0.65531	0.86605	0.40305	-0.184
Mof_Cl	Cl	0.50447	0.87202	0.66726	-0.199
Mof_Cl	Cl	0.42558	0.82702	0.52932	-0.225
Mof_Cl	Cl	0.54282	0.06697	0.62034	-0.213
Mof_Cl	Cl	0.57769	0.97872	0.49842	-0.175
Mof_Cl	Cl	0.63603	0.87744	0.80545	-0.188
Mof_Cl	Cl	0.61286	0.97309	0.92028	-0.215
Mof_Cl	Cl	0.71593	0.95028	0.5813	-0.174
Mof_Cl	Cl	0.8227	0.89862	0.61127	-0.211
Mof_Cl	Cl	0.72411	0.7208	0.64328	-0.238
Mof_Cl	Cl	0.61697	0.77213	0.62785	-0.188
Mof_O 	O 	0.45178	0.75441	0.3633	-0.489
Mof_O 	O 	0.45282	0.82329	0.2766	-0.442
Mof_O 	O 	0.5219	0.0591	0.8614	-0.21
Mof_O 	O 	0.59764	0.09641	0.8231	-0.4
Mof_O 	O 	0.84124	0.80476	0.7282	-0.457
Mof_O 	O 	0.83716	0.75281	0.6057	-0.416
Mof_C 	C 	0.4662	0.7979	0.3435	0.568
Mof_C 	C 	0.5649	0.0609	0.8229	0.439
Mof_C 	C 	0.821	0.7878	0.6555	0.52
Mof_C 	C 	0.5053	0.8215	0.4092	-0.185
Mof_C 	C 	0.5574	0.8309	0.3827	0.212
Mof_C 	C 	0.5924	0.8529	0.4439	0.118
Mof_C 	C 	0.5784	0.8657	0.5334	-0.012
Mof_C 	C 	0.5258	0.8573	0.5585	0.129
Mof_C 	C 	0.4906	0.8358	0.4963	0.209
Mof_C 	C 	0.6182	0.8856	0.5988	0.133
Mof_C 	C 	0.5797	0.0155	0.7633	-0.13
Mof_C 	C 	0.5713	0.0151	0.6694	0.197
Mof_C 	C 	0.585	0.9741	0.6144	0.137
Mof_C 	C 	0.6063	0.9304	0.6553	-0.018
Mof_C 	C 	0.6144	0.9312	0.7497	0.125
Mof_C 	C 	0.602	0.9729	0.8029	0.184
Mof_C 	C 	0.6691	0.8602	0.6078	-0.014
Mof_C 	C 	0.7173	0.8872	0.6049	0.12
Mof_C 	C 	0.7652	0.8642	0.6166	0.197
Mof_C 	C 	0.7688	0.8126	0.6307	-0.168
Mof_C 	C 	0.7223	0.7855	0.6278	0.2
Mof_C 	C 	0.6734	0.8082	0.618	0.127
Mof_Gd	Gd	0.60222	0.18466	0.85316	1.755
Mof_Cl	Cl	0.42356	0.31497	0.77388	-0.218
Mof_Cl	Cl	0.34469	0.36605	0.90305	-0.184
Mof_Cl	Cl	0.49553	0.37202	0.16726	-0.199
Mof_Cl	Cl	0.57442	0.32702	0.02932	-0.225
Mof_Cl	Cl	0.45718	0.56697	0.12034	-0.213
Mof_Cl	Cl	0.42231	0.47872	0.99842	-0.174
Mof_Cl	Cl	0.36397	0.37744	0.30545	-0.188
Mof_Cl	Cl	0.38714	0.47309	0.42028	-0.214
Mof_Cl	Cl	0.28407	0.45028	0.0813	-0.174
Mof_Cl	Cl	0.1773	0.39862	0.11127	-0.211
Mof_Cl	Cl	0.27589	0.2208	0.14328	-0.238
Mof_Cl	Cl	0.38303	0.27213	0.12785	-0.188
Mof_O 	O 	0.54822	0.25441	0.8633	-0.489
Mof_O 	O 	0.54718	0.32329	0.7766	-0.442
Mof_O 	O 	0.4781	0.5591	0.3614	-0.21
Mof_O 	O 	0.40236	0.59641	0.3231	-0.4
Mof_O 	O 	0.15876	0.30476	0.2282	-0.457
Mof_O 	O 	0.16284	0.25281	0.1057	-0.416
Mof_C 	C 	0.5338	0.2979	0.8435	0.568
Mof_C 	C 	0.4351	0.5609	0.3229	0.439
Mof_C 	C 	0.179	0.2878	0.1555	0.52
Mof_C 	C 	0.4947	0.3215	0.9092	-0.185
Mof_C 	C 	0.4426	0.3309	0.8827	0.212
Mof_C 	C 	0.4076	0.3529	0.9439	0.118
Mof_C 	C 	0.4216	0.3657	0.0334	-0.013
Mof_C 	C 	0.4742	0.3573	0.0585	0.129
Mof_C 	C 	0.5094	0.3358	0.9963	0.209
Mof_C 	C 	0.3818	0.3856	0.0988	0.133
Mof_C 	C 	0.4203	0.5155	0.2633	-0.13
Mof_C 	C 	0.4287	0.5151	0.1694	0.197
Mof_C 	C 	0.415	0.4741	0.1144	0.137
Mof_C 	C 	0.3937	0.4304	0.1553	-0.018
Mof_C 	C 	0.3856	0.4312	0.2497	0.125
Mof_C 	C 	0.398	0.4729	0.3029	0.184
Mof_C 	C 	0.3309	0.3602	0.1078	-0.014
Mof_C 	C 	0.2827	0.3872	0.1049	0.12
Mof_C 	C 	0.2348	0.3642	0.1166	0.197
Mof_C 	C 	0.2312	0.3126	0.1307	-0.168
Mof_C 	C 	0.2777	0.2855	0.1278	0.2
Mof_C 	C 	0.3266	0.3082	0.118	0.127
Mof_Gd	Gd	0.89778	0.81534	0.85316	1.754
Mof_Cl	Cl	0.07644	0.68503	0.77388	-0.217
Mof_Cl	Cl	0.15531	0.63395	0.90305	-0.184
Mof_Cl	Cl	0.00447	0.62798	0.16726	-0.2
Mof_Cl	Cl	0.92558	0.67298	0.02932	-0.223
Mof_Cl	Cl	0.04282	0.43303	0.12034	-0.214
Mof_Cl	Cl	0.07769	0.52128	0.99842	-0.173
Mof_Cl	Cl	0.13603	0.62256	0.30545	-0.188
Mof_Cl	Cl	0.11286	0.52691	0.42028	-0.214
Mof_Cl	Cl	0.21593	0.54972	0.0813	-0.174
Mof_Cl	Cl	0.3227	0.60138	0.11127	-0.211
Mof_Cl	Cl	0.22411	0.7792	0.14328	-0.238
Mof_Cl	Cl	0.11697	0.72787	0.12785	-0.188
Mof_O 	O 	0.95178	0.74559	0.8633	-0.489
Mof_O 	O 	0.95282	0.67671	0.7766	-0.442
Mof_O 	O 	0.0219	0.4409	0.3614	-0.21
Mof_O 	O 	0.09764	0.40359	0.3231	-0.4
Mof_O 	O 	0.34124	0.69524	0.2282	-0.457
Mof_O 	O 	0.33716	0.74719	0.1057	-0.416
Mof_C 	C 	0.9662	0.7021	0.8435	0.565
Mof_C 	C 	0.0649	0.4391	0.3229	0.439
Mof_C 	C 	0.321	0.7122	0.1555	0.52
Mof_C 	C 	0.0053	0.6785	0.9092	-0.18
Mof_C 	C 	0.0574	0.6691	0.8827	0.21
Mof_C 	C 	0.0924	0.6471	0.9439	0.121
Mof_C 	C 	0.0784	0.6343	0.0334	-0.015
Mof_C 	C 	0.0258	0.6427	0.0585	0.131
Mof_C 	C 	0.9906	0.6642	0.9963	0.204
Mof_C 	C 	0.1182	0.6144	0.0988	0.133
Mof_C 	C 	0.0797	0.4845	0.2633	-0.13
Mof_C 	C 	0.0713	0.4849	0.1694	0.197
Mof_C 	C 	0.085	0.5259	0.1144	0.136
Mof_C 	C 	0.1063	0.5696	0.1553	-0.018
Mof_C 	C 	0.1144	0.5688	0.2497	0.125
Mof_C 	C 	0.102	0.5271	0.3029	0.184
Mof_C 	C 	0.1691	0.6398	0.1078	-0.014
Mof_C 	C 	0.2173	0.6128	0.1049	0.12
Mof_C 	C 	0.2652	0.6358	0.1166	0.197
Mof_C 	C 	0.2688	0.6874	0.1307	-0.168
Mof_C 	C 	0.2223	0.7145	0.1278	0.2
Mof_C 	C 	0.1734	0.6918	0.118	0.127
Mof_Gd	Gd	0.89778	0.68466	0.64684	1.755
Mof_Cl	Cl	0.07644	0.81497	0.72612	-0.217
Mof_Cl	Cl	0.15531	0.86605	0.59695	-0.184
Mof_Cl	Cl	0.00447	0.87202	0.33274	-0.199
Mof_Cl	Cl	0.92558	0.82702	0.47068	-0.225
Mof_Cl	Cl	0.04282	0.06697	0.37966	-0.213
Mof_Cl	Cl	0.07769	0.97872	0.50158	-0.174
Mof_Cl	Cl	0.13603	0.87744	0.19455	-0.188
Mof_Cl	Cl	0.11286	0.97309	0.07972	-0.215
Mof_Cl	Cl	0.21593	0.95028	0.4187	-0.174
Mof_Cl	Cl	0.3227	0.89862	0.38873	-0.211
Mof_Cl	Cl	0.22411	0.7208	0.35672	-0.238
Mof_Cl	Cl	0.11697	0.77213	0.37215	-0.188
Mof_O 	O 	0.95178	0.75441	0.6367	-0.489
Mof_O 	O 	0.95282	0.82329	0.7234	-0.442
Mof_O 	O 	0.0219	0.0591	0.1386	-0.211
Mof_O 	O 	0.09764	0.09641	0.1769	-0.4
Mof_O 	O 	0.34124	0.80476	0.2718	-0.457
Mof_O 	O 	0.33716	0.75281	0.3943	-0.416
Mof_C 	C 	0.9662	0.7979	0.6565	0.566
Mof_C 	C 	0.0649	0.0609	0.1771	0.439
Mof_C 	C 	0.321	0.7878	0.3445	0.52
Mof_C 	C 	0.0053	0.8215	0.5908	-0.183
Mof_C 	C 	0.0574	0.8309	0.6173	0.212
Mof_C 	C 	0.0924	0.8529	0.5561	0.118
Mof_C 	C 	0.0784	0.8657	0.4666	-0.013
Mof_C 	C 	0.0258	0.8573	0.4415	0.13
Mof_C 	C 	0.9906	0.8358	0.5037	0.208
Mof_C 	C 	0.1182	0.8856	0.4012	0.133
Mof_C 	C 	0.0797	0.0155	0.2367	-0.131
Mof_C 	C 	0.0713	0.0151	0.3306	0.196
Mof_C 	C 	0.085	0.9741	0.3856	0.137
Mof_C 	C 	0.1063	0.9304	0.3447	-0.018
Mof_C 	C 	0.1144	0.9312	0.2503	0.125
Mof_C 	C 	0.102	0.9729	0.1971	0.185
Mof_C 	C 	0.1691	0.8602	0.3922	-0.014
Mof_C 	C 	0.2173	0.8872	0.3951	0.12
Mof_C 	C 	0.2652	0.8642	0.3834	0.197
Mof_C 	C 	0.2688	0.8126	0.3693	-0.168
Mof_C 	C 	0.2223	0.7855	0.3722	0.2
Mof_C 	C 	0.1734	0.8082	0.382	0.127
Mof_Gd	Gd	0.60222	0.31534	0.64684	1.755
Mof_Cl	Cl	0.42356	0.18503	0.72612	-0.218
Mof_Cl	Cl	0.34469	0.13395	0.59695	-0.184
Mof_Cl	Cl	0.49553	0.12798	0.33274	-0.199
Mof_Cl	Cl	0.57442	0.17298	0.47068	-0.225
Mof_Cl	Cl	0.45718	0.93303	0.37966	-0.213
Mof_Cl	Cl	0.42231	0.02128	0.50158	-0.175
Mof_Cl	Cl	0.36397	0.12256	0.19455	-0.188
Mof_Cl	Cl	0.38714	0.02691	0.07972	-0.215
Mof_Cl	Cl	0.28407	0.04972	0.4187	-0.174
Mof_Cl	Cl	0.1773	0.10138	0.38873	-0.211
Mof_Cl	Cl	0.27589	0.2792	0.35672	-0.238
Mof_Cl	Cl	0.38303	0.22787	0.37215	-0.188
Mof_O 	O 	0.54822	0.24559	0.6367	-0.489
Mof_O 	O 	0.54718	0.17671	0.7234	-0.442
Mof_O 	O 	0.4781	0.9409	0.1386	-0.21
Mof_O 	O 	0.40236	0.90359	0.1769	-0.4
Mof_O 	O 	0.15876	0.19524	0.2718	-0.457
Mof_O 	O 	0.16284	0.24719	0.3943	-0.416
Mof_C 	C 	0.5338	0.2021	0.6565	0.568
Mof_C 	C 	0.4351	0.9391	0.1771	0.439
Mof_C 	C 	0.179	0.2122	0.3445	0.52
Mof_C 	C 	0.4947	0.1785	0.5908	-0.185
Mof_C 	C 	0.4426	0.1691	0.6173	0.212
Mof_C 	C 	0.4076	0.1471	0.5561	0.118
Mof_C 	C 	0.4216	0.1343	0.4666	-0.012
Mof_C 	C 	0.4742	0.1427	0.4415	0.129
Mof_C 	C 	0.5094	0.1642	0.5037	0.209
Mof_C 	C 	0.3818	0.1144	0.4012	0.133
Mof_C 	C 	0.4203	0.9845	0.2367	-0.13
Mof_C 	C 	0.4287	0.9849	0.3306	0.197
Mof_C 	C 	0.415	0.0259	0.3856	0.137
Mof_C 	C 	0.3937	0.0696	0.3447	-0.018
Mof_C 	C 	0.3856	0.0688	0.2503	0.125
Mof_C 	C 	0.398	0.0271	0.1971	0.184
Mof_C 	C 	0.3309	0.1398	0.3922	-0.014
Mof_C 	C 	0.2827	0.1128	0.3951	0.12
Mof_C 	C 	0.2348	0.1358	0.3834	0.197
Mof_C 	C 	0.2312	0.1874	0.3693	-0.168
Mof_C 	C 	0.2777	0.2145	0.3722	0.2
Mof_C 	C 	0.3266	0.1918	0.382	0.127
_end
