data_functionalizedCrystal
_audit_creation_method	'EQeq! by Chris Wilmer'
_symmetry_space_group_name_H-M	'P1'
_symmetry_Int_Tables_number	1
_symmetry_cell_setting	triclinic
loop_
_symmetry_equiv_pos_as_xyz
  x,y,z
_cell_length_a	18.6238
_cell_length_b	18.6238
_cell_length_c	18.6238
_cell_angle_alpha	60
_cell_angle_beta	60
_cell_angle_gamma	60
loop_
_atom_site_label
_atom_site_type_symbol
_atom_site_fract_x
_atom_site_fract_y
_atom_site_fract_z
_atom_site_charge
Mof_Cu	Cu	0.5	0.07021	0.5	0.906
Mof_Cu	Cu	0.07021	0.5	0.92979	0.905
Mof_Cu	Cu	0.5	0.92979	0.5	0.905
Mof_Cu	Cu	0.92979	0.5	0.07021	0.904
Mof_Cu	Cu	0.5	0.5	0.92979	0.905
Mof_Cu	Cu	0.07021	0.92979	0.5	0.904
Mof_Cu	Cu	0.5	0.5	0.07021	0.905
Mof_Cu	Cu	0.92979	0.07021	0.5	0.904
Mof_Cu	Cu	0.5	0.92979	0.07021	0.904
Mof_Cu	Cu	0.07021	0.5	0.5	0.905
Mof_Cu	Cu	0.5	0.07021	0.92979	0.904
Mof_Cu	Cu	0.92979	0.5	0.5	0.905
Mof_C 	C 	0.5337	0.1995	0.1995	0.067
Mof_C 	C 	0.1995	0.5337	0.0673	0.062
Mof_C 	C 	0.1995	0.0673	0.5337	0.062
Mof_C 	C 	0.0673	0.1995	0.1995	0.05
Mof_C 	C 	0.5337	0.1995	0.0673	0.062
Mof_C 	C 	0.1995	0.0673	0.1995	0.05
Mof_C 	C 	0.1995	0.5337	0.1995	0.067
Mof_C 	C 	0.0673	0.1995	0.5337	0.062
Mof_C 	C 	0.5337	0.0673	0.1995	0.062
Mof_C 	C 	0.1995	0.1995	0.5337	0.067
Mof_C 	C 	0.1995	0.1995	0.0673	0.05
Mof_C 	C 	0.0673	0.5337	0.1995	0.062
Mof_C 	C 	0.8005	0.4663	0.8005	0.067
Mof_C 	C 	0.4663	0.8005	0.9327	0.062
Mof_C 	C 	0.9327	0.8005	0.4663	0.062
Mof_C 	C 	0.8005	0.9327	0.8005	0.05
Mof_C 	C 	0.8005	0.4663	0.9327	0.062
Mof_C 	C 	0.9327	0.8005	0.8005	0.05
Mof_C 	C 	0.4663	0.8005	0.8005	0.067
Mof_C 	C 	0.8005	0.9327	0.4663	0.062
Mof_C 	C 	0.9327	0.4663	0.8005	0.062
Mof_C 	C 	0.8005	0.8005	0.4663	0.067
Mof_C 	C 	0.8005	0.8005	0.9327	0.05
Mof_C 	C 	0.4663	0.9327	0.8005	0.062
Mof_C 	C 	0.5249	0.0689	0.3373	0.361
Mof_C 	C 	0.533	0.1124	0.2422	-0.117
Mof_C 	C 	0.0689	0.5249	0.0689	0.35
Mof_C 	C 	0.1124	0.533	0.1124	-0.114
Mof_C 	C 	0.3373	0.0689	0.5249	0.361
Mof_C 	C 	0.2422	0.1124	0.533	-0.117
Mof_C 	C 	0.0689	0.3373	0.0689	0.341
Mof_C 	C 	0.1124	0.2422	0.1124	-0.106
Mof_C 	C 	0.5249	0.3373	0.0689	0.361
Mof_C 	C 	0.533	0.2422	0.1124	-0.117
Mof_C 	C 	0.0689	0.0689	0.3373	0.341
Mof_C 	C 	0.1124	0.1124	0.2422	-0.106
Mof_C 	C 	0.3373	0.5249	0.0689	0.361
Mof_C 	C 	0.2422	0.533	0.1124	-0.117
Mof_C 	C 	0.0689	0.0689	0.5249	0.35
Mof_C 	C 	0.1124	0.1124	0.533	-0.114
Mof_C 	C 	0.5249	0.0689	0.0689	0.35
Mof_C 	C 	0.533	0.1124	0.1124	-0.113
Mof_C 	C 	0.0689	0.3373	0.5249	0.361
Mof_C 	C 	0.1124	0.2422	0.533	-0.116
Mof_C 	C 	0.3373	0.0689	0.0689	0.341
Mof_C 	C 	0.2422	0.1124	0.1124	-0.106
Mof_C 	C 	0.0689	0.5249	0.3373	0.361
Mof_C 	C 	0.1124	0.533	0.2422	-0.116
Mof_C 	C 	0.9311	0.4751	0.6627	0.361
Mof_C 	C 	0.8876	0.467	0.7578	-0.117
Mof_C 	C 	0.4751	0.9311	0.9311	0.35
Mof_C 	C 	0.467	0.8876	0.8876	-0.114
Mof_C 	C 	0.9311	0.6627	0.4751	0.361
Mof_C 	C 	0.8876	0.7578	0.467	-0.117
Mof_C 	C 	0.6627	0.9311	0.9311	0.341
Mof_C 	C 	0.7578	0.8876	0.8876	-0.106
Mof_C 	C 	0.6627	0.4751	0.9311	0.361
Mof_C 	C 	0.7578	0.467	0.8876	-0.117
Mof_C 	C 	0.9311	0.9311	0.6627	0.341
Mof_C 	C 	0.8876	0.8876	0.7578	-0.106
Mof_C 	C 	0.4751	0.6627	0.9311	0.361
Mof_C 	C 	0.467	0.7578	0.8876	-0.117
Mof_C 	C 	0.9311	0.9311	0.4751	0.35
Mof_C 	C 	0.8876	0.8876	0.467	-0.114
Mof_C 	C 	0.9311	0.4751	0.9311	0.35
Mof_C 	C 	0.8876	0.467	0.8876	-0.113
Mof_C 	C 	0.6627	0.9311	0.4751	0.361
Mof_C 	C 	0.7578	0.8876	0.467	-0.116
Mof_C 	C 	0.9311	0.6627	0.9311	0.341
Mof_C 	C 	0.8876	0.7578	0.8876	-0.106
Mof_C 	C 	0.4751	0.9311	0.6627	0.361
Mof_C 	C 	0.467	0.8876	0.7578	-0.116
Mof_O 	O 	0.5212	0.1128	0.374	-0.405
Mof_O 	O 	0.1128	0.5212	0.992	-0.399
Mof_O 	O 	0.374	0.992	0.5212	-0.404
Mof_O 	O 	0.992	0.374	0.1128	-0.396
Mof_O 	O 	0.5212	0.374	0.992	-0.404
Mof_O 	O 	0.1128	0.992	0.374	-0.396
Mof_O 	O 	0.374	0.5212	0.1128	-0.405
Mof_O 	O 	0.992	0.1128	0.5212	-0.399
Mof_O 	O 	0.5212	0.992	0.1128	-0.399
Mof_O 	O 	0.1128	0.374	0.5212	-0.405
Mof_O 	O 	0.374	0.1128	0.992	-0.395
Mof_O 	O 	0.992	0.5212	0.374	-0.404
Mof_O 	O 	0.8872	0.4788	0.626	-0.405
Mof_O 	O 	0.4788	0.8872	0.008	-0.399
Mof_O 	O 	0.008	0.626	0.4788	-0.404
Mof_O 	O 	0.626	0.008	0.8872	-0.396
Mof_O 	O 	0.626	0.4788	0.008	-0.404
Mof_O 	O 	0.008	0.8872	0.626	-0.396
Mof_O 	O 	0.4788	0.626	0.8872	-0.405
Mof_O 	O 	0.8872	0.008	0.4788	-0.399
Mof_O 	O 	0.008	0.4788	0.8872	-0.399
Mof_O 	O 	0.626	0.8872	0.4788	-0.405
Mof_O 	O 	0.8872	0.626	0.008	-0.395
Mof_O 	O 	0.4788	0.008	0.626	-0.404
Mof_O 	O 	0.4788	0.8872	0.626	-0.405
Mof_O 	O 	0.8872	0.4788	0.008	-0.399
Mof_O 	O 	0.626	0.008	0.4788	-0.404
Mof_O 	O 	0.008	0.626	0.8872	-0.395
Mof_O 	O 	0.4788	0.626	0.008	-0.404
Mof_O 	O 	0.8872	0.008	0.626	-0.396
Mof_O 	O 	0.626	0.4788	0.8872	-0.405
Mof_O 	O 	0.008	0.8872	0.4788	-0.399
Mof_O 	O 	0.4788	0.008	0.8872	-0.399
Mof_O 	O 	0.8872	0.626	0.4788	-0.405
Mof_O 	O 	0.626	0.8872	0.008	-0.396
Mof_O 	O 	0.008	0.4788	0.626	-0.404
Mof_O 	O 	0.1128	0.5212	0.374	-0.405
Mof_O 	O 	0.5212	0.1128	0.992	-0.399
Mof_O 	O 	0.992	0.374	0.5212	-0.404
Mof_O 	O 	0.374	0.992	0.1128	-0.395
Mof_O 	O 	0.374	0.5212	0.992	-0.404
Mof_O 	O 	0.992	0.1128	0.374	-0.396
Mof_O 	O 	0.5212	0.374	0.1128	-0.405
Mof_O 	O 	0.1128	0.992	0.5212	-0.399
Mof_O 	O 	0.992	0.5212	0.1128	-0.399
Mof_O 	O 	0.374	0.1128	0.5212	-0.405
Mof_O 	O 	0.1128	0.374	0.992	-0.396
Mof_O 	O 	0.5212	0.992	0.374	-0.404
Mof_H 	H 	0.5348	0.23349	0.23544	0.046
Mof_H 	H 	0.23349	0.5348	0.99627	0.049
Mof_H 	H 	0.23544	0.99627	0.5348	0.049
Mof_H 	H 	0.99627	0.23544	0.23349	0.053
Mof_H 	H 	0.5348	0.23544	0.99627	0.049
Mof_H 	H 	0.23349	0.99627	0.23544	0.053
Mof_H 	H 	0.23544	0.5348	0.23349	0.046
Mof_H 	H 	0.99627	0.23349	0.5348	0.049
Mof_H 	H 	0.5348	0.99627	0.23544	0.049
Mof_H 	H 	0.23544	0.23349	0.5348	0.046
Mof_H 	H 	0.23349	0.23544	0.99627	0.053
Mof_H 	H 	0.99627	0.5348	0.23349	0.049
Mof_H 	H 	0.76651	0.4652	0.76456	0.046
Mof_H 	H 	0.4652	0.76651	0.00373	0.049
Mof_H 	H 	0.00373	0.76456	0.4652	0.049
Mof_H 	H 	0.76456	0.00373	0.76651	0.053
Mof_H 	H 	0.76456	0.4652	0.00373	0.049
Mof_H 	H 	0.00373	0.76651	0.76456	0.053
Mof_H 	H 	0.4652	0.76456	0.76651	0.046
Mof_H 	H 	0.76651	0.00373	0.4652	0.049
Mof_H 	H 	0.00373	0.4652	0.76456	0.049
Mof_H 	H 	0.76651	0.76456	0.4652	0.046
Mof_H 	H 	0.76456	0.76651	0.00373	0.053
Mof_H 	H 	0.4652	0.00373	0.76651	0.049
_end
