data_functionalizedCrystal
_audit_creation_method	'EQeq! by Chris Wilmer'
_symmetry_space_group_name_H-M	'P1'
_symmetry_Int_Tables_number	1
_symmetry_cell_setting	triclinic
loop_
_symmetry_equiv_pos_as_xyz
  x,y,z
_cell_length_a	11.0106
_cell_length_b	11.0106
_cell_length_c	24.062
_cell_angle_alpha	92.3646
_cell_angle_beta	92.3646
_cell_angle_gamma	101.204
loop_
_atom_site_label
_atom_site_type_symbol
_atom_site_fract_x
_atom_site_fract_y
_atom_site_fract_z
_atom_site_charge
Mof_Cd	Cd	0.94429	0.05571	0.75	0.428
Mof_Cd	Cd	0.5	0.5	-0	0.407
Mof_Cd	Cd	0.5	0.5	0.5	0.414
Mof_Cd	Cd	0.05571	0.94429	0.25	0.426
Mof_H 	H 	0.3097	0.7015	0.5527	0.35
Mof_H 	H 	0.1716	0.0362	0.4371	0.054
Mof_H 	H 	0.9836	0.9094	0.4088	0.063
Mof_H 	H 	0.7253	0.8419	0.8705	0.052
Mof_H 	H 	0.1122	0.7054	0.3224	0.028
Mof_H 	H 	0.7881	0.4259	0.9584	0.073
Mof_H 	H 	0.7928	0.3504	0.4064	0.337
Mof_H 	H 	0.7031	0.6279	0.2829	0.045
Mof_H 	H 	0.2733	0.3697	0.8132	0.061
Mof_H 	H 	0.6926	0.2926	0.8826	0.051
Mof_H 	H 	0.3074	0.7074	0.1174	0.051
Mof_H 	H 	0.5621	0.6327	0.2744	0.043
Mof_H 	H 	0.6303	0.7267	0.6868	0.061
Mof_H 	H 	0.0362	0.1716	0.9371	0.044
Mof_H 	H 	0.057	0.5392	0.8535	0.032
Mof_H 	H 	0.0164	0.0906	0.5912	0.065
Mof_H 	H 	0.943	0.4608	0.1465	0.027
Mof_H 	H 	0.3222	0.0352	0.3336	0.003
Mof_H 	H 	0.4725	0.6385	0.1775	0.067
Mof_H 	H 	0.4722	0.165	0.8572	0.052
Mof_H 	H 	0.0352	0.3222	0.8336	0.001
Mof_H 	H 	0.7921	0.1031	0.1482	0.337
Mof_H 	H 	0.3615	0.5275	0.3225	0.067
Mof_H 	H 	0.6608	0.2834	0.3828	0.344
Mof_H 	H 	0.5943	0.6403	0.8782	0.022
Mof_H 	H 	0.6496	0.2072	0.0936	0.335
Mof_H 	H 	0.2834	0.6608	0.8828	0.345
Mof_H 	H 	0.4259	0.7881	0.4584	0.064
Mof_H 	H 	0.2969	0.3721	0.7171	0.044
Mof_H 	H 	0.7053	0.0039	0.0428	0.041
Mof_H 	H 	0.8292	0.6688	0.65	0.063
Mof_H 	H 	0.6197	0.9443	0.2258	0.032
Mof_H 	H 	0.7866	0.6636	0.5289	0.004
Mof_H 	H 	0.2134	0.3364	0.4711	0.004
Mof_H 	H 	0.9356	0.1374	0.1416	0.344
Mof_H 	H 	0.6778	0.9648	0.6664	-0.001
Mof_H 	H 	0.3805	0.4805	0.801	0.039
Mof_H 	H 	0.5082	0.8386	0.2383	0.042
Mof_H 	H 	0.8284	0.9638	0.5629	0.049
Mof_H 	H 	0.8419	0.7253	0.3705	0.052
Mof_H 	H 	0.4805	0.3805	0.301	0.039
Mof_H 	H 	0.8686	0.2286	0.1747	0.33
Mof_H 	H 	0.2747	0.1581	0.1295	0.053
Mof_H 	H 	0.165	0.4722	0.3572	0.051
Mof_H 	H 	0.3697	0.2733	0.3132	0.061
Mof_H 	H 	0.5275	0.3615	0.8225	0.067
Mof_H 	H 	0.1708	0.3312	0.35	0.063
Mof_H 	H 	0.3364	0.2134	0.9711	0.015
Mof_H 	H 	0.1031	0.7921	0.6482	0.337
Mof_H 	H 	0.6588	0.8268	0.3023	0.068
Mof_H 	H 	0.0557	0.3803	0.2742	0.032
Mof_H 	H 	0.3803	0.0557	0.7742	0.032
Mof_H 	H 	0.6636	0.7866	0.0289	-0.006
Mof_H 	H 	0.6903	0.2985	0.4473	0.351
Mof_H 	H 	0.6073	0.8489	0.5129	0.059
Mof_H 	H 	0.9443	0.6197	0.7258	0.032
Mof_H 	H 	0.2119	0.5741	0.0416	0.056
Mof_H 	H 	0.8268	0.6588	0.8023	0.069
Mof_H 	H 	0.6195	0.5195	0.199	0.039
Mof_H 	H 	0.0906	0.0164	0.0912	0.06
Mof_H 	H 	0.6279	0.7031	0.7829	0.045
Mof_H 	H 	0.1511	0.3927	0.9871	0.076
Mof_H 	H 	0.1314	0.7714	0.8253	0.331
Mof_H 	H 	0.7267	0.6303	0.1868	0.061
Mof_H 	H 	0.8489	0.6073	0.0129	0.043
Mof_H 	H 	0.835	0.5278	0.6428	0.051
Mof_H 	H 	0.0644	0.8626	0.8584	0.345
Mof_H 	H 	0.4379	0.3673	0.7256	0.043
Mof_H 	H 	0.6385	0.4725	0.6775	0.067
Mof_H 	H 	0.8969	0.2079	0.3518	0.337
Mof_H 	H 	0.1374	0.9356	0.6416	0.344
Mof_H 	H 	0.1732	0.3412	0.1977	0.069
Mof_H 	H 	0.0039	0.7053	0.5428	0.035
Mof_H 	H 	0.6688	0.8292	0.15	0.063
Mof_H 	H 	0.5392	0.057	0.3535	0.029
Mof_H 	H 	0.3673	0.4379	0.2256	0.043
Mof_H 	H 	0.6327	0.5621	0.7744	0.043
Mof_H 	H 	0.7054	0.1122	0.8224	0.029
Mof_H 	H 	0.2985	0.6903	0.9473	0.355
Mof_H 	H 	0.2079	0.8969	0.8518	0.338
Mof_H 	H 	0.2947	0.9961	0.9572	0.03
Mof_H 	H 	0.4918	0.1614	0.7617	0.042
Mof_H 	H 	0.7714	0.1314	0.3253	0.331
Mof_H 	H 	0.3504	0.7928	0.9064	0.339
Mof_H 	H 	0.4057	0.3597	0.1218	0.022
Mof_H 	H 	0.3312	0.1708	0.85	0.064
Mof_H 	H 	0.3927	0.1511	0.4871	0.06
Mof_H 	H 	0.3721	0.2969	0.2171	0.045
Mof_H 	H 	0.8878	0.2946	0.6776	0.028
Mof_H 	H 	0.9638	0.8284	0.0629	0.059
Mof_H 	H 	0.8626	0.0644	0.3584	0.345
Mof_H 	H 	0.9094	0.9836	0.9088	0.067
Mof_H 	H 	0.5278	0.835	0.1428	0.05
Mof_H 	H 	0.5195	0.6195	0.699	0.039
Mof_H 	H 	0.1614	0.4918	0.2617	0.042
Mof_H 	H 	0.8386	0.5082	0.7383	0.042
Mof_H 	H 	0.7015	0.3097	0.0527	0.348
Mof_H 	H 	0.9961	0.2947	0.4572	0.036
Mof_H 	H 	0.3392	0.7166	0.6172	0.344
Mof_H 	H 	0.4608	0.943	0.6465	0.03
Mof_H 	H 	0.2946	0.8878	0.1776	0.028
Mof_H 	H 	0.2286	0.8686	0.6747	0.33
Mof_H 	H 	0.7166	0.3392	0.1172	0.342
Mof_H 	H 	0.6403	0.5943	0.3782	0.022
Mof_H 	H 	0.2926	0.6926	0.3826	0.051
Mof_H 	H 	0.1581	0.2747	0.6295	0.052
Mof_H 	H 	0.3597	0.4057	0.6218	0.022
Mof_H 	H 	0.2072	0.6496	0.5936	0.337
Mof_H 	H 	0.3412	0.1732	0.6977	0.069
Mof_H 	H 	0.7074	0.3074	0.6174	0.051
Mof_H 	H 	0.9648	0.6778	0.1664	0.001
Mof_H 	H 	0.5741	0.2119	0.5416	0.064
Mof_C 	C 	0.6251	0.6957	0.90801	0.013
Mof_C 	C 	0.65991	0.05429	0.41881	-0.156
Mof_C 	C 	0.6436	0.609	0.20013	-0.077
Mof_C 	C 	0.8482	0.8138	0.75686	0.329
Mof_C 	C 	0.9627	0.2281	0.47805	-0.038
Mof_C 	C 	0.3396	0.3566	0.23994	-0.061
Mof_C 	C 	0.44741	0.98319	0.61426	-0.029
Mof_C 	C 	0.5884	0.8028	0.16528	-0.089
Mof_C 	C 	0.00888	0.32032	0.03339	0.064
Mof_C 	C 	0.3375	0.2251	0.00968	0.076
Mof_C 	C 	0.39041	0.45501	0.39694	0.301
Mof_C 	C 	0.08204	0.53456	0.09829	0.061
Mof_C 	C 	0.391	0.3564	0.29987	-0.077
Mof_C 	C 	0.32032	0.00888	0.53339	0.049
Mof_C 	C 	0.7749	0.6625	0.49032	0.093
Mof_C 	C 	0.3027	0.1933	0.0968	-0.023
Mof_C 	C 	0.3564	0.391	0.79987	-0.078
Mof_C 	C 	0.5917	0.8551	0.22512	-0.048
Mof_C 	C 	0.2764	0.7152	0.58815	-1.047
Mof_C 	C 	0.8222	0.2292	0.66784	0.016
Mof_C 	C 	0.7229	0.2373	0.63445	-0.014
Mof_C 	C 	0.6615	0.5549	0.66265	-0.11
Mof_C 	C 	0.97432	0.10508	0.55858	-0.082
Mof_C 	C 	0.13802	0.97018	0.45819	-0.048
Mof_C 	C 	0.6434	0.6604	0.26006	-0.061
Mof_C 	C 	0.45501	0.39041	0.89694	0.3
Mof_C 	C 	0.6755	0.8009	0.26434	-0.133
Mof_C 	C 	0.55259	0.01681	0.38574	-0.025
Mof_C 	C 	0.1391	0.8303	0.8564	-1.031
Mof_C 	C 	0.8067	0.6973	0.4032	-0.023
Mof_C 	C 	0.1991	0.3245	0.23566	-0.133
Mof_C 	C 	0.6604	0.6434	0.76006	-0.061
Mof_C 	C 	0.2281	0.9627	0.97805	-0.018
Mof_C 	C 	0.8303	0.1391	0.3564	-1.029
Mof_C 	C 	0.01681	0.55259	0.88574	-0.035
Mof_C 	C 	0.2373	0.7229	0.13445	-0.016
Mof_C 	C 	0.4116	0.1972	0.83472	-0.091
Mof_C 	C 	0.8009	0.6755	0.76434	-0.134
Mof_C 	C 	0.40683	0.10877	0.51864	-0.057
Mof_C 	C 	0.8028	0.5884	0.66528	-0.09
Mof_C 	C 	0.2251	0.3375	0.50968	0.093
Mof_C 	C 	0.97018	0.13802	0.95819	-0.019
Mof_C 	C 	0.99112	0.67968	0.96661	0.03
Mof_C 	C 	0.89123	0.59317	0.98136	-0.025
Mof_C 	C 	0.89492	0.02568	0.94142	-0.092
Mof_C 	C 	0.83873	0.23387	0.08958	0.509
Mof_C 	C 	0.16127	0.76613	0.91042	0.515
Mof_C 	C 	0.1449	0.4083	0.27488	-0.048
Mof_C 	C 	0.04857	0.70783	0.16195	0.093
Mof_C 	C 	0.98319	0.44741	0.11426	-0.019
Mof_C 	C 	0.51458	0.14502	0.55121	-0.07
Mof_C 	C 	0.3043	0.3749	0.59199	0.014
Mof_C 	C 	0.05429	0.65991	0.91881	-0.15
Mof_C 	C 	0.1972	0.4116	0.33472	-0.09
Mof_C 	C 	0.8551	0.5917	0.72512	-0.047
Mof_C 	C 	0.7152	0.2764	0.08815	-1.043
Mof_C 	C 	0.10877	0.40683	0.01864	-0.089
Mof_C 	C 	0.67968	0.99112	0.46661	0.044
Mof_C 	C 	0.2001	0.9469	0.50643	0.033
Mof_C 	C 	0.8138	0.8482	0.25686	0.329
Mof_C 	C 	0.48542	0.85498	0.44879	-0.069
Mof_C 	C 	0.02568	0.89492	0.44142	-0.078
Mof_C 	C 	0.23387	0.83873	0.58958	0.512
Mof_C 	C 	0.1933	0.3027	0.5968	-0.022
Mof_C 	C 	0.2771	0.7627	0.36555	-0.015
Mof_C 	C 	0.95143	0.29217	0.83805	0.094
Mof_C 	C 	0.7627	0.2771	0.86555	-0.014
Mof_C 	C 	0.20223	0.02377	0.02641	0.063
Mof_C 	C 	0.76613	0.16127	0.41042	0.512
Mof_C 	C 	0.3749	0.3043	0.09199	0.014
Mof_C 	C 	0.97623	0.79777	0.47359	0.077
Mof_C 	C 	0.53456	0.08204	0.59829	0.072
Mof_C 	C 	0.14502	0.51458	0.05121	-0.051
Mof_C 	C 	0.85058	0.15182	0.46173	-0.146
Mof_C 	C 	0.7999	0.0531	0.49357	0.034
Mof_C 	C 	0.60959	0.54499	0.60306	0.301
Mof_C 	C 	0.7719	0.0373	0.02195	-0.057
Mof_C 	C 	0.1518	0.1862	0.24314	0.329
Mof_C 	C 	0.2292	0.8222	0.16784	0.016
Mof_C 	C 	0.7236	0.2848	0.41185	-1.047
Mof_C 	C 	0.91796	0.46544	0.90171	0.08
Mof_C 	C 	0.85498	0.48542	0.94879	-0.088
Mof_C 	C 	0.02982	0.86198	0.04181	-0.069
Mof_C 	C 	0.10508	0.97432	0.05858	-0.067
Mof_C 	C 	0.59317	0.89123	0.48136	-0.056
Mof_C 	C 	0.94571	0.34009	0.08119	-0.166
Mof_C 	C 	0.4083	0.1449	0.77488	-0.047
Mof_C 	C 	0.84818	0.14942	0.03827	-0.134
Mof_C 	C 	0.1778	0.7708	0.33216	0.016
Mof_C 	C 	0.2848	0.7236	0.91185	-1.053
Mof_C 	C 	0.9469	0.2001	0.00643	0.009
Mof_C 	C 	0.3385	0.4451	0.33735	-0.11
Mof_C 	C 	0.5549	0.6615	0.16265	-0.11
Mof_C 	C 	0.609	0.6436	0.70013	-0.077
Mof_C 	C 	0.86198	0.02982	0.54181	-0.041
Mof_C 	C 	0.6973	0.8067	0.9032	-0.021
Mof_C 	C 	0.6957	0.6251	0.40801	0.014
Mof_C 	C 	0.14942	0.84818	0.53827	-0.146
Mof_C 	C 	0.6625	0.7749	0.99032	0.109
Mof_C 	C 	0.4451	0.3385	0.83735	-0.109
Mof_C 	C 	0.0531	0.7999	0.99357	0.056
Mof_C 	C 	0.02377	0.20223	0.52641	0.08
Mof_C 	C 	0.8609	0.1697	0.1436	-1.026
Mof_C 	C 	0.70783	0.04857	0.66195	0.096
Mof_C 	C 	0.34009	0.94571	0.58119	-0.159
Mof_C 	C 	0.1862	0.1518	0.74314	0.329
Mof_C 	C 	0.1697	0.8609	0.6436	-1.027
Mof_C 	C 	0.46544	0.91796	0.40171	0.068
Mof_C 	C 	0.7708	0.1778	0.83216	0.016
Mof_C 	C 	0.54499	0.60959	0.10306	0.301
Mof_C 	C 	0.29217	0.95143	0.33805	0.09
Mof_C 	C 	0.0373	0.7719	0.52195	-0.036
Mof_C 	C 	0.79777	0.97623	0.97359	0.094
Mof_C 	C 	0.3245	0.1991	0.73566	-0.134
Mof_C 	C 	0.15182	0.85058	0.96173	-0.158
Mof_C 	C 	0.3566	0.3396	0.73994	-0.061
Mof_N 	N 	0.81275	0.11123	0.68539	-0.146
Mof_N 	N 	0.67416	0.60242	0.46237	-0.147
Mof_N 	N 	0.87952	0.35068	0.86935	-0.133
Mof_N 	N 	0.18725	0.88877	0.31461	-0.146
Mof_N 	N 	0.32584	0.39758	0.53763	-0.147
Mof_N 	N 	0.27812	0.14144	0.04331	-0.129
Mof_N 	N 	0.39758	0.32584	0.03763	-0.145
Mof_N 	N 	0.88877	0.18725	0.81461	-0.146
Mof_N 	N 	0.12048	0.64932	0.13065	-0.13
Mof_N 	N 	0.64932	0.12048	0.63065	-0.132
Mof_N 	N 	0.14144	0.27812	0.54331	-0.133
Mof_N 	N 	0.85856	0.72188	0.45669	-0.133
Mof_N 	N 	0.60242	0.67416	0.96237	-0.147
Mof_N 	N 	0.11123	0.81275	0.18539	-0.146
Mof_N 	N 	0.72188	0.85856	0.95669	-0.138
Mof_N 	N 	0.35068	0.87952	0.36935	-0.131
Mof_O 	O 	0.8085	0.8901	0.78743	-0.305
Mof_O 	O 	0.6206	0.45072	0.5734	-0.296
Mof_O 	O 	0.54928	0.3794	0.9266	-0.293
Mof_O 	O 	0.07713	0.15097	0.27764	-0.318
Mof_O 	O 	0.8901	0.8085	0.28743	-0.304
Mof_O 	O 	0.3794	0.54928	0.4266	-0.296
Mof_O 	O 	0.62735	0.55835	0.08455	-0.299
Mof_O 	O 	0.15097	0.07713	0.77764	-0.318
Mof_O 	O 	0.84903	0.92287	0.22236	-0.319
Mof_O 	O 	0.44165	0.37265	0.41545	-0.298
Mof_O 	O 	0.55835	0.62735	0.58455	-0.298
Mof_O 	O 	0.45072	0.6206	0.0734	-0.297
Mof_O 	O 	0.1099	0.1915	0.71257	-0.304
Mof_O 	O 	0.1915	0.1099	0.21257	-0.303
Mof_O 	O 	0.37265	0.44165	0.91545	-0.296
Mof_O 	O 	0.92287	0.84903	0.72236	-0.32
_end
