data_functionalizedCrystal
_audit_creation_method	'EQeq! by Chris Wilmer'
_symmetry_space_group_name_H-M	'P1'
_symmetry_Int_Tables_number	1
_symmetry_cell_setting	triclinic
loop_
_symmetry_equiv_pos_as_xyz
  x,y,z
_cell_length_a	13.7883
_cell_length_b	13.7883
_cell_length_c	9.345
_cell_angle_alpha	90
_cell_angle_beta	90
_cell_angle_gamma	120
loop_
_atom_site_label
_atom_site_type_symbol
_atom_site_fract_x
_atom_site_fract_y
_atom_site_fract_z
_atom_site_charge
Mof_O 	O 	0.9293	0.0755	0.6288	-0.549
Mof_O 	O 	0.8314	0.3851	0.0857	-0.781
Mof_O 	O 	0.7128	0.1446	0.9982	-0.756
Mof_O 	O 	0.9995	0.4329	0.8444	-0.612
Mof_O 	O 	0.7599	0.3126	0.7606	-0.736
Mof_O 	O 	0.0279	0.1405	0.8721	-0.697
Mof_O 	O 	0.8763	0.1811	0.7915	-0.725
Mof_In	In	0.8538	0.293	0.92422	3.018
Mof_P 	P 	0.87616	0.50638	0.1185	0.721
Mof_P 	P 	0.97197	0.16373	0.74659	0.773
Mof_H 	H 	0.821	0.516	0.235	-0.085
Mof_H 	H 	0.062	0.268	0.706	-0.179
Mof_O 	O 	0.9245	0.8538	0.6288	-0.413
Mof_O 	O 	0.6149	0.4463	0.0857	-0.783
Mof_O 	O 	0.8554	0.5682	0.9982	-0.719
Mof_O 	O 	0.5671	0.5666	0.8444	-0.723
Mof_O 	O 	0.6874	0.4473	0.7606	-0.724
Mof_O 	O 	0.8595	0.8874	0.8721	-0.448
Mof_O 	O 	0.8189	0.6952	0.7915	-0.669
Mof_In	In	0.707	0.5608	0.92422	2.948
Mof_P 	P 	0.49362	0.36978	0.1185	0.596
Mof_P 	P 	0.83627	0.80824	0.74659	0.57
Mof_H 	H 	0.484	0.305	0.235	-0.096
Mof_H 	H 	0.732	0.794	0.706	-0.066
Mof_O 	O 	0.1462	0.0707	0.6288	-0.577
Mof_O 	O 	0.5537	0.1686	0.0857	-0.776
Mof_O 	O 	0.4318	0.2872	0.9982	-0.717
Mof_O 	O 	0.4334	0.0005	0.8444	-0.843
Mof_O 	O 	0.5527	0.2401	0.7606	-0.724
Mof_O 	O 	0.1126	0.9721	0.8721	-0.419
Mof_O 	O 	0.3048	0.1237	0.7915	-0.669
Mof_In	In	0.4392	0.1462	0.92422	2.813
Mof_P 	P 	0.63022	0.12384	0.1185	0.498
Mof_P 	P 	0.19176	0.02803	0.74659	0.341
Mof_H 	H 	0.695	0.179	0.235	-0.087
Mof_H 	H 	0.206	0.938	0.706	0.01
Mof_O 	O 	0.0707	0.9245	0.3712	-0.468
Mof_O 	O 	0.1686	0.6149	0.9143	-0.695
Mof_O 	O 	0.2872	0.8554	0.0018	-0.775
Mof_O 	O 	0.0005	0.5671	0.1556	-0.831
Mof_O 	O 	0.2401	0.6874	0.2394	-0.693
Mof_O 	O 	0.9721	0.8595	0.1279	-0.398
Mof_O 	O 	0.1237	0.8189	0.2085	-0.633
Mof_In	In	0.1462	0.707	0.07578	2.606
Mof_P 	P 	0.12384	0.49362	0.8815	0.576
Mof_P 	P 	0.02803	0.83627	0.25341	0.353
Mof_H 	H 	0.179	0.484	0.765	-0.092
Mof_H 	H 	0.938	0.732	0.294	0.011
Mof_O 	O 	0.0755	0.1462	0.3712	-0.622
Mof_O 	O 	0.3851	0.5537	0.9143	-0.701
Mof_O 	O 	0.1446	0.4318	0.0018	-0.818
Mof_O 	O 	0.4329	0.4334	0.1556	-0.706
Mof_O 	O 	0.3126	0.5527	0.2394	-0.707
Mof_O 	O 	0.1405	0.1126	0.1279	-0.661
Mof_O 	O 	0.1811	0.3048	0.2085	-0.694
Mof_In	In	0.293	0.4392	0.07578	2.694
Mof_P 	P 	0.50638	0.63022	0.8815	0.677
Mof_P 	P 	0.16373	0.19176	0.25341	0.559
Mof_H 	H 	0.516	0.695	0.765	-0.081
Mof_H 	H 	0.268	0.206	0.294	-0.104
Mof_O 	O 	0.8538	0.9293	0.3712	-0.45
Mof_O 	O 	0.4463	0.8314	0.9143	-0.711
Mof_O 	O 	0.5682	0.7128	0.0018	-0.804
Mof_O 	O 	0.5666	0.9995	0.1556	-0.597
Mof_O 	O 	0.4473	0.7599	0.2394	-0.707
Mof_O 	O 	0.8874	0.0279	0.1279	-0.643
Mof_O 	O 	0.6952	0.8763	0.2085	-0.688
Mof_In	In	0.5608	0.8538	0.07578	2.831
Mof_P 	P 	0.36978	0.87616	0.8815	0.795
Mof_P 	P 	0.80824	0.97197	0.25341	0.762
Mof_H 	H 	0.305	0.821	0.765	-0.088
Mof_H 	H 	0.794	0.062	0.294	-0.166
Mof_In	In	-4.10165e-33	0	0.5	1.914
Mof_In	In	-0	0	-0	1.753
Mof_P 	P 	0.66667	0.33333	0.72	0.714
Mof_H 	H 	0.66667	0.33333	0.572	-0.06
Mof_P 	P 	0.33333	0.66667	0.28	0.687
Mof_H 	H 	0.33333	0.66667	0.428	-0.054
_end
