data_functionalizedCrystal
_audit_creation_method	'EQeq! by Chris Wilmer'
_symmetry_space_group_name_H-M	'P1'
_symmetry_Int_Tables_number	1
_symmetry_cell_setting	triclinic
loop_
_symmetry_equiv_pos_as_xyz
  x,y,z
_cell_length_a	11.583
_cell_length_b	11.74
_cell_length_c	13.638
_cell_angle_alpha	76.28
_cell_angle_beta	75.52
_cell_angle_gamma	65.567
loop_
_atom_site_label
_atom_site_type_symbol
_atom_site_fract_x
_atom_site_fract_y
_atom_site_fract_z
_atom_site_charge
Mof_O 	O 	0.3688	0.4089	0.5374	-0.407
Mof_C 	C 	0.2512	0.4832	0.5386	0.312
Mof_O 	O 	0.9291	0.6819	0.5307	-0.383
Mof_C 	C 	0.9773	0.7599	0.5302	0.423
Mof_O 	O 	0.9058	0.8749	0.5383	-0.382
Mof_O 	O 	0.1609	0.4452	0.5622	-0.42
Mof_N 	N 	0.3321	0.6528	0.4868	-0.284
Mof_N 	N 	0.1547	0.8298	0.4862	-0.265
Mof_C 	C 	0.2266	0.621	0.5108	-0.036
Mof_C 	C 	0.1162	0.7304	0.5106	-0.15
Mof_N 	N 	0.8992	0.4531	0.6487	-0.258
Mof_N 	N 	0.531	0.4864	0.3344	-0.264
Mof_N 	N 	0.9819	0.0137	0.3433	-0.217
Mof_C 	C 	0.4891	0.5874	0.2693	0.17
Mof_H 	H 	0.4327	0.6613	0.2951	-0.045
Mof_C 	C 	0.601	0.4881	0.125	0.205
Mof_C 	C 	0.5215	0.5937	0.1655	-0.258
Mof_H 	H 	0.489	0.6701	0.1231	0.119
Mof_C 	C 	0.6456	0.4987	0.0134	-0.131
Mof_H 	H 	0.6061	0.5756	0.9739	0.078
Mof_C 	C 	0.2829	0.7815	0.4703	0.385
Mof_C 	C 	0.9493	0.3511	0.7134	0.342
Mof_H 	H 	0.0255	0.2885	0.6886	-0.149
Mof_C 	C 	0.8968	0.33	0.8157	-0.318
Mof_H 	H 	0.9349	0.2541	0.8569	0.16
Mof_C 	C 	0.7886	0.5411	0.688	0.13
Mof_H 	H 	0.7501	0.6141	0.6441	-0.002
Mof_C 	C 	0.6045	0.3839	0.2941	0.174
Mof_H 	H 	0.6316	0.3077	0.3379	-0.047
Mof_C 	C 	0.7297	0.5303	0.7878	-0.218
Mof_H 	H 	0.6523	0.593	0.8106	0.11
Mof_C 	C 	0.7884	0.4224	0.8552	0.19
Mof_C 	C 	0.7366	0.4084	0.9649	-0.084
Mof_H 	H 	0.7709	0.3293	0.0034	0.057
Mof_C 	C 	0.3656	0.8555	0.4374	-1.027
Mof_H 	H 	0.4288	0.8254	0.4812	0.339
Mof_H 	H 	0.3139	0.9432	0.4415	0.35
Mof_H 	H 	0.4081	0.8462	0.368	0.341
Mof_C 	C 	0.6431	0.3827	0.1927	-0.266
Mof_H 	H 	0.6999	0.3075	0.1689	0.123
Mof_C 	C 	0.9538	0.0107	0.039	-0.209
Mof_H 	H 	0.873	0.0255	0.0268	0.095
Mof_C 	C 	0.8703	0.0235	0.3161	0.195
Mof_H 	H 	0.7986	0.0294	0.3671	-0.056
Mof_C 	C 	0.8607	0.0249	0.2199	-0.34
Mof_H 	H 	0.7827	0.0332	0.2062	0.134
Mof_C 	C 	0.9599	0.0146	0.1437	0.34
Mof_C 	C 	0.0801	0.0039	0.1686	-0.461
Mof_H 	H 	0.1533	0.9945	0.1186	0.212
Mof_C 	C 	0.0817	0.008	0.2674	0.131
Mof_H 	H 	0.1561	0.0068	0.2826	-0.06
Mof_O 	O 	0.6312	0.5911	0.4626	-0.403
Mof_C 	C 	0.7488	0.5168	0.4614	0.334
Mof_O 	O 	0.0709	0.3181	0.4693	-0.397
Mof_C 	C 	0.0227	0.2401	0.4698	0.229
Mof_O 	O 	0.0942	0.1251	0.4617	-0.427
Mof_O 	O 	0.8391	0.5548	0.4378	-0.367
Mof_N 	N 	0.6679	0.3472	0.5132	-0.272
Mof_N 	N 	0.8453	0.1702	0.5138	-0.272
Mof_C 	C 	0.7734	0.379	0.4892	-0.077
Mof_C 	C 	0.8838	0.2696	0.4894	0.035
Mof_N 	N 	0.1008	0.5469	0.3513	-0.201
Mof_N 	N 	0.469	0.5136	0.6656	-0.265
Mof_N 	N 	0.0181	0.9863	0.6567	-0.247
Mof_C 	C 	0.5109	0.4126	0.7307	0.164
Mof_H 	H 	0.5673	0.3387	0.7049	-0.05
Mof_C 	C 	0.399	0.5119	0.875	0.202
Mof_C 	C 	0.4785	0.4063	0.8345	-0.264
Mof_H 	H 	0.511	0.3299	0.8769	0.11
Mof_C 	C 	0.3544	0.5013	0.9866	-0.145
Mof_H 	H 	0.3939	0.4244	0.0261	0.07
Mof_C 	C 	0.7171	0.2185	0.5297	0.35
Mof_C 	C 	0.0507	0.6489	0.2866	-0.111
Mof_H 	H 	0.9745	0.7115	0.3114	0.139
Mof_C 	C 	0.1032	0.67	0.1843	-0.056
Mof_H 	H 	0.0651	0.7459	0.1431	0.035
Mof_C 	C 	0.2114	0.4589	0.312	0.06
Mof_H 	H 	0.2499	0.3859	0.3559	0.009
Mof_C 	C 	0.3955	0.6161	0.7059	0.169
Mof_H 	H 	0.3684	0.6923	0.6621	-0.047
Mof_C 	C 	0.2703	0.4697	0.2122	-0.124
Mof_H 	H 	0.3477	0.407	0.1894	0.068
Mof_C 	C 	0.2116	0.5776	0.1448	0.05
Mof_C 	C 	0.2634	0.5916	0.0351	-0.047
Mof_H 	H 	0.2291	0.6707	0.9966	0.041
Mof_C 	C 	0.6344	0.1445	0.5626	-0.929
Mof_H 	H 	0.5712	0.1746	0.5188	0.298
Mof_H 	H 	0.6861	0.0568	0.5585	0.294
Mof_H 	H 	0.5919	0.1538	0.632	0.293
Mof_C 	C 	0.3569	0.6173	0.8073	-0.271
Mof_H 	H 	0.3001	0.6925	0.8311	0.119
Mof_C 	C 	0.0462	0.9893	0.961	0.016
Mof_H 	H 	0.127	0.9745	0.9732	0.018
Mof_C 	C 	0.1297	0.9765	0.6839	0.03
Mof_H 	H 	0.2014	0.9706	0.6329	0.016
Mof_C 	C 	0.1393	0.9751	0.7801	-0.071
Mof_H 	H 	0.2173	0.9668	0.7938	0.055
Mof_C 	C 	0.0401	0.9854	0.8563	-0.077
Mof_C 	C 	0.9199	0.9961	0.8314	0.09
Mof_H 	H 	0.8467	0.0055	0.8814	-0.031
Mof_C 	C 	0.9183	0.992	0.7326	0.074
Mof_H 	H 	0.8439	0.9932	0.7174	0.017
Mof_Co	Co	-1.75887e-17	0	0.5	1.09
Mof_Co	Co	-3.51773e-17	0.5	0.5	1.149
Mof_Co	Co	0.5	0.5	0.5	1.149
_end
