data_functionalizedCrystal
_audit_creation_method	'EQeq! by Chris Wilmer'
_symmetry_space_group_name_H-M	'P1'
_symmetry_Int_Tables_number	1
_symmetry_cell_setting	triclinic
loop_
_symmetry_equiv_pos_as_xyz
  x,y,z
_cell_length_a	13.2776
_cell_length_b	22.1202
_cell_length_c	14.269
_cell_angle_alpha	90
_cell_angle_beta	112.54
_cell_angle_gamma	90
loop_
_atom_site_label
_atom_site_type_symbol
_atom_site_fract_x
_atom_site_fract_y
_atom_site_fract_z
_atom_site_charge
Mof_O 	O 	0.6083	0.71337	0.6448	-0.269
Mof_O 	O 	0.5956	0.78519	0.9826	-0.203
Mof_O 	O 	0.8984	0.93611	0.8691	-0.41
Mof_C 	C 	0.6471	0.7995	0.9185	0.198
Mof_O 	O 	0.8757	0.93652	0.0151	-0.422
Mof_C 	C 	0.7603	0.8368	0.8022	-0.035
Mof_H 	H 	0.7976	0.8496	0.7623	0.075
Mof_C 	C 	0.7176	0.8478	0.9495	-0.126
Mof_H 	H 	0.7269	0.8677	0.0096	0.111
Mof_C 	C 	0.775	0.8669	0.891	-0.024
Mof_C 	C 	0.6337	0.7682	0.8304	-0.135
Mof_H 	H 	0.5878	0.7348	0.811	0.1
Mof_O 	O 	0.7332	0.7759	0.6287	-0.401
Mof_C 	C 	0.5241	0.7353	0.96	0.01
Mof_H 	H 	0.5635	0.698	0.9625	0.04
Mof_H 	H 	0.4673	0.7395	0.8929	0.055
Mof_C 	C 	0.6901	0.7877	0.7717	-0.007
Mof_C 	C 	0.6759	0.7562	0.6739	0.319
Mof_C 	C 	0.855	0.9173	0.9278	0.354
Mof_N 	N 	0.6671	0.8189	0.4079	-0.294
Mof_N 	N 	0.642	0.822	0.4401	-0.025
Mof_N 	N 	0.5638	0.9	0.3456	-0.2
Mof_C 	C 	0.6263	0.8523	0.3562	0.503
Mof_C 	C 	0.6577	0.8734	0.4366	-0.1
Mof_C 	C 	0.6086	0.8159	0.311	-0.187
Mof_C 	C 	0.5665	0.845	0.4786	-0.009
Mof_C 	C 	0.56	0.8699	0.2755	-0.055
Mof_C 	C 	0.5067	0.8912	0.4132	0.056
Mof_C 	C 	0.5528	0.9655	0.3568	0.109
Mof_C 	C 	0.5071	0.9342	0.2529	0.1
Mof_O 	O 	0.1083	0.21337	0.6448	-0.273
Mof_O 	O 	0.0956	0.28519	0.9826	-0.206
Mof_O 	O 	0.3984	0.43611	0.8691	-0.437
Mof_C 	C 	0.1471	0.2995	0.9185	0.194
Mof_O 	O 	0.3757	0.43652	0.0151	-0.446
Mof_C 	C 	0.2603	0.3368	0.8022	-0.031
Mof_H 	H 	0.2976	0.3496	0.7623	0.069
Mof_C 	C 	0.2176	0.3478	0.9495	-0.127
Mof_H 	H 	0.2269	0.3677	0.0096	0.106
Mof_C 	C 	0.275	0.3669	0.891	-0.033
Mof_C 	C 	0.1337	0.2682	0.8304	-0.132
Mof_H 	H 	0.0878	0.2348	0.811	0.098
Mof_O 	O 	0.2332	0.2759	0.6287	-0.404
Mof_C 	C 	0.0241	0.2353	0.96	0.009
Mof_H 	H 	0.0635	0.198	0.9625	0.04
Mof_H 	H 	0.9673	0.2395	0.8929	0.056
Mof_C 	C 	0.1901	0.2877	0.7717	-0.011
Mof_C 	C 	0.1759	0.2562	0.6739	0.321
Mof_C 	C 	0.355	0.4173	0.9278	0.358
Mof_N 	N 	0.1671	0.3189	0.4079	-0.296
Mof_N 	N 	0.142	0.322	0.4401	-0.022
Mof_N 	N 	0.0638	0.4	0.3456	-0.187
Mof_C 	C 	0.1263	0.3523	0.3562	0.503
Mof_C 	C 	0.1577	0.3734	0.4366	-0.113
Mof_C 	C 	0.1086	0.3159	0.311	-0.187
Mof_C 	C 	0.0665	0.345	0.4786	-0.01
Mof_C 	C 	0.06	0.3699	0.2755	-0.061
Mof_C 	C 	0.0067	0.3912	0.4132	0.054
Mof_C 	C 	0.0528	0.4655	0.3568	0.035
Mof_C 	C 	0.0071	0.4342	0.2529	0.069
Mof_O 	O 	0.3917	0.71337	0.3552	-0.27
Mof_O 	O 	0.4044	0.78519	0.0174	-0.204
Mof_O 	O 	0.1016	0.93611	0.1309	-0.411
Mof_C 	C 	0.3529	0.7995	0.0815	0.197
Mof_O 	O 	0.1243	0.93652	0.9849	-0.423
Mof_C 	C 	0.2397	0.8368	0.1978	-0.036
Mof_H 	H 	0.2024	0.8496	0.2377	0.074
Mof_C 	C 	0.2824	0.8478	0.0505	-0.127
Mof_H 	H 	0.2731	0.8677	0.9904	0.111
Mof_C 	C 	0.225	0.8669	0.109	-0.024
Mof_C 	C 	0.3663	0.7682	0.1696	-0.135
Mof_H 	H 	0.4122	0.7348	0.189	0.1
Mof_O 	O 	0.2668	0.7759	0.3713	-0.401
Mof_C 	C 	0.4759	0.7353	0.04	0.01
Mof_H 	H 	0.4365	0.698	0.0375	0.04
Mof_H 	H 	0.5327	0.7395	0.1071	0.055
Mof_C 	C 	0.3099	0.7877	0.2283	-0.007
Mof_C 	C 	0.3241	0.7562	0.3261	0.319
Mof_C 	C 	0.145	0.9173	0.0722	0.354
Mof_N 	N 	0.3329	0.8189	0.5921	-0.294
Mof_N 	N 	0.358	0.822	0.5599	-0.025
Mof_N 	N 	0.4362	0.9	0.6544	-0.2
Mof_C 	C 	0.3737	0.8523	0.6438	0.503
Mof_C 	C 	0.3423	0.8734	0.5634	-0.1
Mof_C 	C 	0.3914	0.8159	0.689	-0.187
Mof_C 	C 	0.4335	0.845	0.5214	-0.009
Mof_C 	C 	0.44	0.8699	0.7245	-0.055
Mof_C 	C 	0.4933	0.8912	0.5868	0.056
Mof_C 	C 	0.4472	0.9655	0.6432	0.109
Mof_C 	C 	0.4929	0.9342	0.7471	0.1
Mof_O 	O 	0.8917	0.21337	0.3552	-0.273
Mof_O 	O 	0.9044	0.28519	0.0174	-0.206
Mof_O 	O 	0.6016	0.43611	0.1309	-0.437
Mof_C 	C 	0.8529	0.2995	0.0815	0.194
Mof_O 	O 	0.6243	0.43652	0.9849	-0.446
Mof_C 	C 	0.7397	0.3368	0.1978	-0.031
Mof_H 	H 	0.7024	0.3496	0.2377	0.069
Mof_C 	C 	0.7824	0.3478	0.0505	-0.127
Mof_H 	H 	0.7731	0.3677	0.9904	0.106
Mof_C 	C 	0.725	0.3669	0.109	-0.033
Mof_C 	C 	0.8663	0.2682	0.1696	-0.132
Mof_H 	H 	0.9122	0.2348	0.189	0.098
Mof_O 	O 	0.7668	0.2759	0.3713	-0.404
Mof_C 	C 	0.9759	0.2353	0.04	0.009
Mof_H 	H 	0.9365	0.198	0.0375	0.04
Mof_H 	H 	0.0327	0.2395	0.1071	0.056
Mof_C 	C 	0.8099	0.2877	0.2283	-0.011
Mof_C 	C 	0.8241	0.2562	0.3261	0.321
Mof_C 	C 	0.645	0.4173	0.0722	0.358
Mof_N 	N 	0.8329	0.3189	0.5921	-0.296
Mof_N 	N 	0.858	0.322	0.5599	-0.022
Mof_N 	N 	0.9362	0.4	0.6544	-0.187
Mof_C 	C 	0.8737	0.3523	0.6438	0.503
Mof_C 	C 	0.8423	0.3734	0.5634	-0.113
Mof_C 	C 	0.8914	0.3159	0.689	-0.187
Mof_C 	C 	0.9335	0.345	0.5214	-0.01
Mof_C 	C 	0.94	0.3699	0.7245	-0.061
Mof_C 	C 	0.9933	0.3912	0.5868	0.054
Mof_C 	C 	0.9472	0.4655	0.6432	0.035
Mof_C 	C 	0.9929	0.4342	0.7471	0.069
Mof_O 	O 	0.3917	0.28663	0.3552	-0.27
Mof_O 	O 	0.4044	0.21481	0.0174	-0.206
Mof_O 	O 	0.1016	0.06389	0.1309	-0.45
Mof_C 	C 	0.3529	0.2005	0.0815	0.19
Mof_O 	O 	0.1243	0.06348	0.9849	-0.461
Mof_C 	C 	0.2397	0.1632	0.1978	-0.027
Mof_H 	H 	0.2024	0.1504	0.2377	0.065
Mof_C 	C 	0.2824	0.1522	0.0505	-0.12
Mof_H 	H 	0.2731	0.1323	0.9904	0.099
Mof_C 	C 	0.225	0.1331	0.109	-0.042
Mof_C 	C 	0.3663	0.2318	0.1696	-0.129
Mof_H 	H 	0.4122	0.2652	0.189	0.099
Mof_O 	O 	0.2668	0.2241	0.3713	-0.405
Mof_C 	C 	0.4759	0.2647	0.04	0.01
Mof_H 	H 	0.4365	0.302	0.0375	0.04
Mof_H 	H 	0.5327	0.2605	0.1071	0.054
Mof_C 	C 	0.3099	0.2123	0.2283	-0.014
Mof_C 	C 	0.3241	0.2438	0.3261	0.321
Mof_C 	C 	0.145	0.0827	0.0722	0.361
Mof_N 	N 	0.3329	0.1811	0.5921	-0.303
Mof_N 	N 	0.358	0.178	0.5599	-0.016
Mof_N 	N 	0.4362	0.1	0.6544	-0.182
Mof_C 	C 	0.3737	0.1477	0.6438	0.52
Mof_C 	C 	0.3423	0.1266	0.5634	-0.129
Mof_C 	C 	0.3914	0.1841	0.689	-0.192
Mof_C 	C 	0.4335	0.155	0.5214	-0.01
Mof_C 	C 	0.44	0.1301	0.7245	-0.074
Mof_C 	C 	0.4933	0.1088	0.5868	0.046
Mof_C 	C 	0.4472	0.0345	0.6432	-0.005
Mof_C 	C 	0.4929	0.0658	0.7471	0.078
Mof_O 	O 	0.8917	0.78663	0.3552	-0.265
Mof_O 	O 	0.9044	0.71481	0.0174	-0.206
Mof_O 	O 	0.6016	0.56389	0.1309	-0.437
Mof_C 	C 	0.8529	0.7005	0.0815	0.195
Mof_O 	O 	0.6243	0.56348	0.9849	-0.446
Mof_C 	C 	0.7397	0.6632	0.1978	-0.033
Mof_H 	H 	0.7024	0.6504	0.2377	0.07
Mof_C 	C 	0.7824	0.6522	0.0505	-0.128
Mof_H 	H 	0.7731	0.6323	0.9904	0.107
Mof_C 	C 	0.725	0.6331	0.109	-0.032
Mof_C 	C 	0.8663	0.7318	0.1696	-0.134
Mof_H 	H 	0.9122	0.7652	0.189	0.101
Mof_O 	O 	0.7668	0.7241	0.3713	-0.403
Mof_C 	C 	0.9759	0.7647	0.04	0.008
Mof_H 	H 	0.9365	0.802	0.0375	0.04
Mof_H 	H 	0.0327	0.7605	0.1071	0.056
Mof_C 	C 	0.8099	0.7123	0.2283	-0.009
Mof_C 	C 	0.8241	0.7438	0.3261	0.319
Mof_C 	C 	0.645	0.5827	0.0722	0.357
Mof_N 	N 	0.8329	0.6811	0.5921	-0.296
Mof_N 	N 	0.858	0.678	0.5599	-0.022
Mof_N 	N 	0.9362	0.6	0.6544	-0.187
Mof_C 	C 	0.8737	0.6477	0.6438	0.501
Mof_C 	C 	0.8423	0.6266	0.5634	-0.112
Mof_C 	C 	0.8914	0.6841	0.689	-0.186
Mof_C 	C 	0.9335	0.655	0.5214	-0.01
Mof_C 	C 	0.94	0.6301	0.7245	-0.061
Mof_C 	C 	0.9933	0.6088	0.5868	0.054
Mof_C 	C 	0.9472	0.5345	0.6432	0.035
Mof_C 	C 	0.9929	0.5658	0.7471	0.069
Mof_O 	O 	0.6083	0.28663	0.6448	-0.27
Mof_O 	O 	0.5956	0.21481	0.9826	-0.206
Mof_O 	O 	0.8984	0.06389	0.8691	-0.45
Mof_C 	C 	0.6471	0.2005	0.9185	0.19
Mof_O 	O 	0.8757	0.06348	0.0151	-0.461
Mof_C 	C 	0.7603	0.1632	0.8022	-0.027
Mof_H 	H 	0.7976	0.1504	0.7623	0.065
Mof_C 	C 	0.7176	0.1522	0.9495	-0.12
Mof_H 	H 	0.7269	0.1323	0.0096	0.099
Mof_C 	C 	0.775	0.1331	0.891	-0.042
Mof_C 	C 	0.6337	0.2318	0.8304	-0.129
Mof_H 	H 	0.5878	0.2652	0.811	0.099
Mof_O 	O 	0.7332	0.2241	0.6287	-0.405
Mof_C 	C 	0.5241	0.2647	0.96	0.01
Mof_H 	H 	0.5635	0.302	0.9625	0.04
Mof_H 	H 	0.4673	0.2605	0.8929	0.054
Mof_C 	C 	0.6901	0.2123	0.7717	-0.014
Mof_C 	C 	0.6759	0.2438	0.6739	0.321
Mof_C 	C 	0.855	0.0827	0.9278	0.361
Mof_N 	N 	0.6671	0.1811	0.4079	-0.303
Mof_N 	N 	0.642	0.178	0.4401	-0.016
Mof_N 	N 	0.5638	0.1	0.3456	-0.182
Mof_C 	C 	0.6263	0.1477	0.3562	0.52
Mof_C 	C 	0.6577	0.1266	0.4366	-0.129
Mof_C 	C 	0.6086	0.1841	0.311	-0.192
Mof_C 	C 	0.5665	0.155	0.4786	-0.01
Mof_C 	C 	0.56	0.1301	0.2755	-0.074
Mof_C 	C 	0.5067	0.1088	0.4132	0.046
Mof_C 	C 	0.5528	0.0345	0.3568	-0.005
Mof_C 	C 	0.5071	0.0658	0.2529	0.078
Mof_O 	O 	0.1083	0.78663	0.6448	-0.265
Mof_O 	O 	0.0956	0.71481	0.9826	-0.206
Mof_O 	O 	0.3984	0.56389	0.8691	-0.437
Mof_C 	C 	0.1471	0.7005	0.9185	0.195
Mof_O 	O 	0.3757	0.56348	0.0151	-0.446
Mof_C 	C 	0.2603	0.6632	0.8022	-0.033
Mof_H 	H 	0.2976	0.6504	0.7623	0.07
Mof_C 	C 	0.2176	0.6522	0.9495	-0.128
Mof_H 	H 	0.2269	0.6323	0.0096	0.107
Mof_C 	C 	0.275	0.6331	0.891	-0.032
Mof_C 	C 	0.1337	0.7318	0.8304	-0.134
Mof_H 	H 	0.0878	0.7652	0.811	0.101
Mof_O 	O 	0.2332	0.7241	0.6287	-0.403
Mof_C 	C 	0.0241	0.7647	0.96	0.008
Mof_H 	H 	0.0635	0.802	0.9625	0.04
Mof_H 	H 	0.9673	0.7605	0.8929	0.056
Mof_C 	C 	0.1901	0.7123	0.7717	-0.009
Mof_C 	C 	0.1759	0.7438	0.6739	0.319
Mof_C 	C 	0.355	0.5827	0.9278	0.357
Mof_N 	N 	0.1671	0.6811	0.4079	-0.296
Mof_N 	N 	0.142	0.678	0.4401	-0.022
Mof_N 	N 	0.0638	0.6	0.3456	-0.187
Mof_C 	C 	0.1263	0.6477	0.3562	0.501
Mof_C 	C 	0.1577	0.6266	0.4366	-0.112
Mof_C 	C 	0.1086	0.6841	0.311	-0.186
Mof_C 	C 	0.0665	0.655	0.4786	-0.01
Mof_C 	C 	0.06	0.6301	0.2755	-0.061
Mof_C 	C 	0.0067	0.6088	0.4132	0.054
Mof_C 	C 	0.0528	0.5345	0.3568	0.035
Mof_C 	C 	0.0071	0.5658	0.2529	0.069
Mof_Ni	Ni	0.75	0.75	0.5	1.093
Mof_Ni	Ni	0.25	0.75	0.5	1.093
Mof_Ni	Ni	0.25	0.25	0.5	1.092
Mof_Ni	Ni	0.75	0.25	0.5	1.092
Mof_Ni	Ni	0.01481	0	0.91185	1.047
Mof_C 	C 	0.5691	0	0.2735	-0.112
Mof_Ni	Ni	0.51481	0.5	0.91185	1.07
Mof_C 	C 	0.0691	0.5	0.2735	-0.043
Mof_Ni	Ni	0.98519	8.15208e-34	0.08815	1.047
Mof_C 	C 	0.4309	1.30433e-32	0.7265	-0.112
Mof_Ni	Ni	0.48519	0.5	0.08815	1.07
Mof_C 	C 	0.9309	0.5	0.7265	-0.043
_end
