data_functionalizedCrystal
_audit_creation_method	'EQeq! by Chris Wilmer'
_symmetry_space_group_name_H-M	'P1'
_symmetry_Int_Tables_number	1
_symmetry_cell_setting	triclinic
loop_
_symmetry_equiv_pos_as_xyz
  x,y,z
_cell_length_a	13.0699
_cell_length_b	13.7592
_cell_length_c	13.8964
_cell_angle_alpha	113.728
_cell_angle_beta	111.883
_cell_angle_gamma	101.365
loop_
_atom_site_label
_atom_site_type_symbol
_atom_site_fract_x
_atom_site_fract_y
_atom_site_fract_z
_atom_site_charge
Mof_Mn	Mn	0.48667	0.73029	0.86876	0.613
Mof_Mn	Mn	0.87749	0.44833	0.6452	0.626
Mof_Mn	Mn	0.12251	0.55167	0.3548	0.626
Mof_Mn	Mn	0.51333	0.26971	0.13124	0.613
Mof_Mn	Mn	0.88209	0.13847	0.86876	0.605
Mof_Mn	Mn	0.26771	0.19687	0.6452	0.63
Mof_Mn	Mn	0.73229	0.80313	0.3548	0.63
Mof_Mn	Mn	0.11791	0.86153	0.13124	0.605
Mof_Mo	Mo	0.12071	0.87071	0.74142	0.992
Mof_Mo	Mo	0.73083	0.48083	0.96166	0.996
Mof_Mo	Mo	0.87929	0.12929	0.25858	0.992
Mof_Mo	Mo	0.26917	0.51917	0.03834	0.996
Mof_C 	C 	0.7596	0.4497	0.8118	-0.129
Mof_C 	C 	0.0293	0.9751	0.8	-0.128
Mof_C 	C 	0.87387	0.12967	0.10154	-0.118
Mof_C 	C 	0.1196	0.3699	0.9796	-0.121
Mof_C 	C 	0.8804	0.6301	0.0204	-0.121
Mof_C 	C 	0.1173	0.4951	0.8842	-0.119
Mof_C 	C 	0.2435	0.6782	0.102	-0.127
Mof_C 	C 	0.8247	0.0133	0.314	-0.136
Mof_C 	C 	0.7331	0.6109	0.1158	-0.121
Mof_C 	C 	0.0107	0.6993	0.686	-0.13
Mof_C 	C 	0.9893	0.3007	0.314	-0.13
Mof_C 	C 	0.27233	0.02813	0.89846	-0.113
Mof_C 	C 	0.72767	0.97187	0.10154	-0.113
Mof_C 	C 	0.5522	0.3621	0.8118	-0.126
Mof_C 	C 	0.2707	0.8249	0.8	-0.132
Mof_C 	C 	0.04405	0.17555	0.4169	-0.124
Mof_C 	C 	0.12715	0.75865	0.5831	-0.125
Mof_C 	C 	0.64	0.3903	0.0204	-0.123
Mof_C 	C 	0.8827	0.5049	0.1158	-0.119
Mof_C 	C 	0.3585	0.4238	0.102	-0.126
Mof_C 	C 	0.12613	0.87033	0.89846	-0.118
Mof_C 	C 	0.9707	0.0249	0.2	-0.128
Mof_C 	C 	0.87285	0.24135	0.4169	-0.125
Mof_C 	C 	0.7565	0.3218	0.898	-0.127
Mof_C 	C 	0.2404	0.5503	0.1882	-0.129
Mof_C 	C 	0.2669	0.3891	0.8842	-0.121
Mof_C 	C 	0.1753	0.9867	0.686	-0.136
Mof_C 	C 	0.7293	0.1751	0.2	-0.132
Mof_C 	C 	0.6415	0.5762	0.898	-0.126
Mof_C 	C 	0.95595	0.82445	0.5831	-0.124
Mof_C 	C 	0.4478	0.6379	0.1882	-0.126
Mof_C 	C 	0.36	0.6097	0.9796	-0.123
Mof_N 	N 	0.95552	0.60693	0.6593	-0.162
Mof_N 	N 	0.35575	0.10993	0.9794	-0.149
Mof_N 	N 	0.87192	0.80462	0.49924	-0.163
Mof_N 	N 	0.04208	0.29065	0.9536	-0.143
Mof_N 	N 	0.22907	0.76231	0.13496	-0.154
Mof_N 	N 	0.64786	0.1975	0.17038	-0.153
Mof_N 	N 	0.95792	0.70935	0.0464	-0.143
Mof_N 	N 	0.77093	0.23769	0.86504	-0.154
Mof_N 	N 	0.79622	0.94763	0.3407	-0.157
Mof_N 	N 	0.2209	0.5656	0.265	-0.162
Mof_N 	N 	0.4559	0.3006	0.735	-0.161
Mof_N 	N 	0.12732	0.69462	0.49924	-0.163
Mof_N 	N 	0.40589	0.37265	0.13496	-0.154
Mof_N 	N 	0.04448	0.39307	0.3407	-0.162
Mof_N 	N 	0.5441	0.6994	0.265	-0.161
Mof_N 	N 	0.12365	0.86947	0.9794	-0.146
Mof_N 	N 	0.64425	0.89007	0.0206	-0.149
Mof_N 	N 	0.73866	0.67984	0.20234	-0.146
Mof_N 	N 	0.20378	0.05237	0.6593	-0.157
Mof_N 	N 	0.26134	0.32016	0.79766	-0.146
Mof_N 	N 	0.41152	0.66295	0.9536	-0.148
Mof_N 	N 	0.02252	0.97288	0.17038	-0.158
Mof_N 	N 	0.97748	0.02712	0.82962	-0.158
Mof_N 	N 	0.7791	0.4344	0.735	-0.162
Mof_N 	N 	0.12808	0.19538	0.50076	-0.163
Mof_N 	N 	0.58848	0.33705	0.0464	-0.148
Mof_N 	N 	0.59411	0.62735	0.86504	-0.154
Mof_N 	N 	0.35214	0.8025	0.82962	-0.153
Mof_N 	N 	0.96368	0.5225	0.20234	-0.145
Mof_N 	N 	0.87268	0.30538	0.50076	-0.163
Mof_N 	N 	0.87635	0.13053	0.0206	-0.146
Mof_N 	N 	0.03632	0.4775	0.79766	-0.145
_end
