data_functionalizedCrystal
_audit_creation_method	'EQeq! by Chris Wilmer'
_symmetry_space_group_name_H-M	'P1'
_symmetry_Int_Tables_number	1
_symmetry_cell_setting	triclinic
loop_
_symmetry_equiv_pos_as_xyz
  x,y,z
_cell_length_a	16.19
_cell_length_b	16.4876
_cell_length_c	16.4876
_cell_angle_alpha	76.0511
_cell_angle_beta	60.5953
_cell_angle_gamma	60.5953
loop_
_atom_site_label
_atom_site_type_symbol
_atom_site_fract_x
_atom_site_fract_y
_atom_site_fract_z
_atom_site_charge
Mof_Eu	Eu	0.6166	0.12156	0.96842	1.945
Mof_Eu	Eu	0.14929	0.38627	0.97671	2.091
Mof_Eu	Eu	0.20658	0.37844	0.53157	1.961
Mof_Eu	Eu	0.01227	0.11373	0.52329	2.084
Mof_Eu	Eu	0.58502	0.03157	0.62157	1.959
Mof_Eu	Eu	0.126	0.02329	0.88627	2.051
Mof_Eu	Eu	0.73815	0.46843	0.87844	1.965
Mof_Eu	Eu	0.53556	0.47671	0.61373	2.136
Mof_Eu	Eu	0.3834	0.87844	0.03158	1.946
Mof_Eu	Eu	0.85071	0.61373	0.02329	2.092
Mof_Eu	Eu	0.79342	0.62156	0.46843	1.962
Mof_Eu	Eu	0.98773	0.88627	0.47671	2.085
Mof_Eu	Eu	0.41498	0.96843	0.37843	1.96
Mof_Eu	Eu	0.874	0.97671	0.11373	2.052
Mof_Eu	Eu	0.26185	0.53157	0.12156	1.965
Mof_Eu	Eu	0.46444	0.52329	0.38627	2.136
Mof_H 	H 	0.3095	0.2492	0.7484	-0.064
Mof_H 	H 	0.7653	0.0993	0.7183	-0.076
Mof_H 	H 	0.8071	0.2508	0.7516	-0.064
Mof_H 	H 	0.0829	0.4007	0.7817	-0.081
Mof_H 	H 	0.0579	0.2516	0.7492	-0.069
Mof_H 	H 	0.4836	0.2817	0.5993	-0.078
Mof_H 	H 	0.5587	0.2484	0.7508	-0.064
Mof_H 	H 	0.8646	0.2183	0.9007	-0.076
Mof_H 	H 	0.6905	0.7508	0.2516	-0.064
Mof_H 	H 	0.2347	0.9007	0.2817	-0.076
Mof_H 	H 	0.1929	0.7492	0.2484	-0.064
Mof_H 	H 	0.9171	0.5993	0.2183	-0.081
Mof_H 	H 	0.9421	0.7484	0.2508	-0.069
Mof_H 	H 	0.5164	0.7183	0.4007	-0.078
Mof_H 	H 	0.4413	0.7516	0.2492	-0.064
Mof_H 	H 	0.1354	0.7817	0.0993	-0.076
Mof_C 	C 	0.3464	0.2231	0.7843	0.158
Mof_C 	C 	0.3885	0.2028	0.8948	-0.071
Mof_C 	C 	0.4661	0.1307	0.8307	-0.113
Mof_C 	C 	0.3703	0.2242	0.9852	0.381
Mof_C 	C 	0.5658	0.0517	0.8225	0.416
Mof_C 	C 	0.8129	0.0857	0.7413	0.163
Mof_C 	C 	0.956	0.0495	0.7463	-0.066
Mof_C 	C 	0.8781	0.0577	0.8365	-0.062
Mof_C 	C 	0.0683	0.0309	0.7063	0.403
Mof_C 	C 	0.872	0.0471	0.9305	0.375
Mof_C 	C 	0.8538	0.2769	0.7157	0.16
Mof_C 	C 	0.9861	0.2972	0.6052	-0.066
Mof_C 	C 	0.9275	0.3693	0.6693	-0.113
Mof_C 	C 	0.0797	0.2758	0.5148	0.401
Mof_C 	C 	0.94	0.4483	0.6775	0.431
Mof_C 	C 	0.1399	0.4143	0.7587	0.163
Mof_C 	C 	0.2518	0.4505	0.7537	-0.092
Mof_C 	C 	0.2723	0.4423	0.6635	-0.06
Mof_C 	C 	0.3055	0.4691	0.7937	0.433
Mof_C 	C 	0.3496	0.4529	0.5695	0.374
Mof_C 	C 	0.1307	0.2157	0.7231	0.158
Mof_C 	C 	0.2833	0.1052	0.7028	-0.07
Mof_C 	C 	0.2968	0.1693	0.6307	-0.113
Mof_C 	C 	0.3555	0.0148	0.7242	0.384
Mof_C 	C 	0.3883	0.1775	0.5517	0.422
Mof_C 	C 	0.5542	0.2587	0.5857	0.163
Mof_C 	C 	0.7023	0.2537	0.5495	-0.091
Mof_C 	C 	0.7146	0.1635	0.5577	-0.058
Mof_C 	C 	0.7746	0.2937	0.5309	0.43
Mof_C 	C 	0.8025	0.0695	0.5471	0.372
Mof_C 	C 	0.5695	0.2843	0.7769	0.159
Mof_C 	C 	0.5913	0.3948	0.7972	-0.08
Mof_C 	C 	0.5968	0.3307	0.8693	-0.109
Mof_C 	C 	0.5945	0.4852	0.7758	0.413
Mof_C 	C 	0.6175	0.3225	0.9483	0.416
Mof_C 	C 	0.8986	0.2413	0.9143	0.165
Mof_C 	C 	0.0055	0.2463	0.9505	-0.139
Mof_C 	C 	0.9358	0.3365	0.9423	-0.024
Mof_C 	C 	0.0992	0.2063	0.9691	0.442
Mof_C 	C 	0.9191	0.4305	0.9529	0.363
Mof_C 	C 	0.6536	0.7769	0.2157	0.158
Mof_C 	C 	0.6115	0.7972	0.1052	-0.071
Mof_C 	C 	0.5339	0.8693	0.1693	-0.113
Mof_C 	C 	0.6297	0.7758	0.0148	0.381
Mof_C 	C 	0.4342	0.9483	0.1775	0.416
Mof_C 	C 	0.1871	0.9143	0.2587	0.163
Mof_C 	C 	0.044	0.9505	0.2537	-0.066
Mof_C 	C 	0.1219	0.9423	0.1635	-0.062
Mof_C 	C 	0.9317	0.9691	0.2937	0.403
Mof_C 	C 	0.128	0.9529	0.0695	0.375
Mof_C 	C 	0.1462	0.7231	0.2843	0.16
Mof_C 	C 	0.0139	0.7028	0.3948	-0.066
Mof_C 	C 	0.0725	0.6307	0.3307	-0.113
Mof_C 	C 	0.9203	0.7242	0.4852	0.401
Mof_C 	C 	0.06	0.5517	0.3225	0.431
Mof_C 	C 	0.8601	0.5857	0.2413	0.163
Mof_C 	C 	0.7482	0.5495	0.2463	-0.092
Mof_C 	C 	0.7277	0.5577	0.3365	-0.06
Mof_C 	C 	0.6945	0.5309	0.2063	0.433
Mof_C 	C 	0.6504	0.5471	0.4305	0.374
Mof_C 	C 	0.8693	0.7843	0.2769	0.158
Mof_C 	C 	0.7167	0.8948	0.2972	-0.07
Mof_C 	C 	0.7032	0.8307	0.3693	-0.113
Mof_C 	C 	0.6445	0.9852	0.2758	0.384
Mof_C 	C 	0.6117	0.8225	0.4483	0.422
Mof_C 	C 	0.4458	0.7413	0.4143	0.163
Mof_C 	C 	0.2977	0.7463	0.4505	-0.091
Mof_C 	C 	0.2854	0.8365	0.4423	-0.058
Mof_C 	C 	0.2254	0.7063	0.4691	0.43
Mof_C 	C 	0.1975	0.9305	0.4529	0.372
Mof_C 	C 	0.4305	0.7157	0.2231	0.159
Mof_C 	C 	0.4087	0.6052	0.2028	-0.08
Mof_C 	C 	0.4032	0.6693	0.1307	-0.109
Mof_C 	C 	0.4055	0.5148	0.2242	0.413
Mof_C 	C 	0.3825	0.6775	0.0517	0.416
Mof_C 	C 	0.1014	0.7587	0.0857	0.165
Mof_C 	C 	0.9945	0.7537	0.0495	-0.139
Mof_C 	C 	0.0642	0.6635	0.0577	-0.024
Mof_C 	C 	0.9008	0.7937	0.0309	0.442
Mof_C 	C 	0.0809	0.5695	0.0471	0.363
Mof_N 	N 	0.4375	0.145	0.7596	-0.245
Mof_N 	N 	0.3132	0.2601	0.8645	-0.254
Mof_N 	N 	0.7855	0.0825	0.8321	-0.283
Mof_N 	N 	0.9132	0.0679	0.6865	-0.272
Mof_N 	N 	0.8421	0.355	0.7404	-0.244
Mof_N 	N 	0.9378	0.2399	0.6355	-0.25
Mof_N 	N 	0.2001	0.4175	0.6679	-0.286
Mof_N 	N 	0.1676	0.4321	0.8135	-0.275
Mof_N 	N 	0.1971	0.2404	0.645	-0.245
Mof_N 	N 	0.1777	0.1355	0.7601	-0.253
Mof_N 	N 	0.6176	0.1679	0.5825	-0.285
Mof_N 	N 	0.5997	0.3135	0.5679	-0.276
Mof_N 	N 	0.5825	0.2596	0.855	-0.245
Mof_N 	N 	0.5733	0.3645	0.7399	-0.254
Mof_N 	N 	0.868	0.3321	0.9175	-0.289
Mof_N 	N 	0.9811	0.1865	0.9321	-0.249
Mof_N 	N 	0.5625	0.855	0.2404	-0.245
Mof_N 	N 	0.6868	0.7399	0.1355	-0.254
Mof_N 	N 	0.2145	0.9175	0.1679	-0.283
Mof_N 	N 	0.0868	0.9321	0.3135	-0.272
Mof_N 	N 	0.1579	0.645	0.2596	-0.244
Mof_N 	N 	0.0622	0.7601	0.3645	-0.25
Mof_N 	N 	0.7999	0.5825	0.3321	-0.286
Mof_N 	N 	0.8324	0.5679	0.1865	-0.275
Mof_N 	N 	0.8029	0.7596	0.355	-0.245
Mof_N 	N 	0.8223	0.8645	0.2399	-0.253
Mof_N 	N 	0.3824	0.8321	0.4175	-0.285
Mof_N 	N 	0.4003	0.6865	0.4321	-0.276
Mof_N 	N 	0.4175	0.7404	0.145	-0.245
Mof_N 	N 	0.4267	0.6355	0.2601	-0.254
Mof_N 	N 	0.132	0.6679	0.0825	-0.289
Mof_N 	N 	0.0189	0.8135	0.0679	-0.249
Mof_O 	O 	0.6057	0.0458	0.8728	-0.555
Mof_O 	O 	0.6088	0.9908	0.7608	-0.528
Mof_O 	O 	0.4359	0.1792	0.0186	-0.541
Mof_O 	O 	0.2822	0.292	0.0298	-0.521
Mof_O 	O 	0.1111	0.0425	0.6177	-0.507
Mof_O 	O 	0.1142	0.0056	0.7558	-0.567
Mof_O 	O 	0.7812	0.0689	0.9989	-0.562
Mof_O 	O 	0.9542	0.0146	0.944	-0.628
Mof_O 	O 	0.0243	0.4542	0.6272	-0.565
Mof_O 	O 	0.8604	0.5092	0.7392	-0.535
Mof_O 	O 	0.1337	0.3208	0.4814	-0.558
Mof_O 	O 	0.104	0.208	0.4702	-0.539
Mof_O 	O 	0.2713	0.4575	0.8823	-0.512
Mof_O 	O 	0.3756	0.4944	0.7442	-0.575
Mof_O 	O 	0.349	0.4311	0.5011	-0.572
Mof_O 	O 	0.4128	0.4854	0.556	-0.656
Mof_O 	O 	0.4785	0.1272	0.5458	-0.557
Mof_O 	O 	0.3696	0.2392	0.4908	-0.534
Mof_O 	O 	0.4545	0.9814	0.6792	-0.545
Mof_O 	O 	0.312	0.9702	0.792	-0.514
Mof_O 	O 	0.7288	0.3823	0.5425	-0.511
Mof_O 	O 	0.87	0.2442	0.5056	-0.565
Mof_O 	O 	0.7801	0.0011	0.5689	-0.562
Mof_O 	O 	0.8982	0.056	0.5146	-0.639
Mof_O 	O 	0.6515	0.3728	0.9542	-0.557
Mof_O 	O 	0.5996	0.2608	0.0092	-0.529
Mof_O 	O 	0.6151	0.5186	0.8208	-0.561
Mof_O 	O 	0.5742	0.5298	0.708	-0.545
Mof_O 	O 	0.1536	0.1177	0.9575	-0.518
Mof_O 	O 	0.1198	0.2558	0.9944	-0.581
Mof_O 	O 	0.8501	0.4989	0.9311	-0.563
Mof_O 	O 	0.9688	0.444	0.9854	-0.634
Mof_O 	O 	0.3943	0.9542	0.1272	-0.555
Mof_O 	O 	0.3912	0.0092	0.2392	-0.528
Mof_O 	O 	0.5641	0.8208	0.9814	-0.541
Mof_O 	O 	0.7178	0.708	0.9702	-0.521
Mof_O 	O 	0.8889	0.9575	0.3823	-0.507
Mof_O 	O 	0.8858	0.9944	0.2442	-0.567
Mof_O 	O 	0.2188	0.9311	0.0011	-0.562
Mof_O 	O 	0.0458	0.9854	0.056	-0.628
Mof_O 	O 	0.9757	0.5458	0.3728	-0.565
Mof_O 	O 	0.1396	0.4908	0.2608	-0.535
Mof_O 	O 	0.8663	0.6792	0.5186	-0.558
Mof_O 	O 	0.896	0.792	0.5298	-0.539
Mof_O 	O 	0.7287	0.5425	0.1177	-0.512
Mof_O 	O 	0.6244	0.5056	0.2558	-0.575
Mof_O 	O 	0.651	0.5689	0.4989	-0.572
Mof_O 	O 	0.5872	0.5146	0.444	-0.656
Mof_O 	O 	0.5215	0.8728	0.4542	-0.557
Mof_O 	O 	0.6304	0.7608	0.5092	-0.534
Mof_O 	O 	0.5455	0.0186	0.3208	-0.545
Mof_O 	O 	0.688	0.0298	0.208	-0.514
Mof_O 	O 	0.2712	0.6177	0.4575	-0.511
Mof_O 	O 	0.13	0.7558	0.4944	-0.565
Mof_O 	O 	0.2199	0.9989	0.4311	-0.562
Mof_O 	O 	0.1018	0.944	0.4854	-0.639
Mof_O 	O 	0.3485	0.6272	0.0458	-0.557
Mof_O 	O 	0.4004	0.7392	0.9908	-0.529
Mof_O 	O 	0.3849	0.4814	0.1792	-0.561
Mof_O 	O 	0.4258	0.4702	0.292	-0.545
Mof_O 	O 	0.8464	0.8823	0.0425	-0.518
Mof_O 	O 	0.8802	0.7442	0.0056	-0.581
Mof_O 	O 	0.1499	0.5011	0.0689	-0.563
Mof_O 	O 	0.0312	0.556	0.0146	-0.634
_end
