data_functionalizedCrystal
_audit_creation_method	'EQeq! by Chris Wilmer'
_symmetry_space_group_name_H-M	'P1'
_symmetry_Int_Tables_number	1
_symmetry_cell_setting	triclinic
loop_
_symmetry_equiv_pos_as_xyz
  x,y,z
_cell_length_a	7.077
_cell_length_b	20.943
_cell_length_c	27.809
_cell_angle_alpha	107.309
_cell_angle_beta	90
_cell_angle_gamma	90
loop_
_atom_site_label
_atom_site_type_symbol
_atom_site_fract_x
_atom_site_fract_y
_atom_site_fract_z
_atom_site_charge
Mof_Eu	Eu	0.87283	0.91084	0.66223	2.401
Mof_Eu	Eu	0.08672	0.748	0.20815	2.349
Mof_Eu	Eu	0.37283	0.08916	0.83777	2.409
Mof_Eu	Eu	0.58672	0.252	0.29185	2.362
Mof_Eu	Eu	0.12717	0.08916	0.33777	2.4
Mof_Eu	Eu	0.91328	0.252	0.79185	2.349
Mof_Eu	Eu	0.62717	0.91084	0.16224	2.409
Mof_Eu	Eu	0.41328	0.748	0.70815	2.362
Mof_P 	P 	0.95947	0.91817	0.27312	0.62
Mof_P 	P 	0.91352	0.75199	0.68109	0.535
Mof_P 	P 	0.3776	0.8635	0.62721	0.582
Mof_P 	P 	0.45947	0.08183	0.22688	0.611
Mof_P 	P 	0.41352	0.24801	0.81891	0.538
Mof_P 	P 	0.8776	0.1365	0.87279	0.578
Mof_P 	P 	0.04053	0.08183	0.72688	0.62
Mof_P 	P 	0.08648	0.24801	0.31891	0.535
Mof_P 	P 	0.6224	0.1365	0.37279	0.582
Mof_P 	P 	0.54053	0.91817	0.77312	0.611
Mof_P 	P 	0.58648	0.75199	0.18109	0.538
Mof_P 	P 	0.1224	0.8635	0.12721	0.578
Mof_H 	H 	0.6506	0.9878	0.3235	0.101
Mof_H 	H 	0.81	0.6221	0.6873	0.133
Mof_H 	H 	0.0153	0.6202	0.6893	0.142
Mof_H 	H 	0.0732	0.7945	0.5511	0.129
Mof_H 	H 	0.1611	0.7656	0.5868	0.099
Mof_H 	H 	0.8836	0.9039	0.3506	0.118
Mof_H 	H 	0.7516	0.859	0.3086	0.102
Mof_H 	H 	0.4323	0.9818	0.383	0.083
Mof_H 	H 	0.4425	0.9044	0.3572	0.08
Mof_H 	H 	0.5492	0.8375	0.4056	0.107
Mof_H 	H 	0.6791	0.8242	0.4785	0.003
Mof_H 	H 	0.82	0.0171	0.5236	0.018
Mof_H 	H 	0.7005	0.0303	0.45	0.097
Mof_H 	H 	0.824	0.6579	0.6163	0.048
Mof_H 	H 	0.0444	0.6596	0.6218	0.045
Mof_H 	H 	0.0251	0.5371	0.6123	0.055
Mof_H 	H 	0.8032	0.538	0.6121	0.05
Mof_H 	H 	0.6308	0.4928	0.6726	0.076
Mof_H 	H 	0.6302	0.4286	0.7278	0.027
Mof_H 	H 	0.1926	0.4085	0.7118	0.026
Mof_H 	H 	0.1905	0.4732	0.6576	0.073
Mof_H 	H 	0.9903	0.7672	0.3827	0.006
Mof_H 	H 	0.9505	0.7493	0.4609	0.104
Mof_H 	H 	0.294	0.6819	0.5245	0.049
Mof_H 	H 	0.074	0.682	0.5177	0.056
Mof_H 	H 	0.4546	0.7924	0.5472	0.09
Mof_H 	H 	0.3195	0.8496	0.5417	0.097
Mof_H 	H 	0.4801	0.6816	0.455	0.09
Mof_H 	H 	0.5187	0.6955	0.3756	0.003
Mof_H 	H 	0.4523	0.7504	0.278	0.314
Mof_H 	H 	0.1506	0.0122	0.1765	0.098
Mof_H 	H 	0.31	0.3779	0.8127	0.134
Mof_H 	H 	0.5153	0.3798	0.8107	0.138
Mof_H 	H 	0.5732	0.2055	0.9489	0.127
Mof_H 	H 	0.6611	0.2344	0.9132	0.098
Mof_H 	H 	0.3836	0.0961	0.1494	0.116
Mof_H 	H 	0.2516	0.141	0.1914	0.1
Mof_H 	H 	0.9323	0.0182	0.117	0.095
Mof_H 	H 	0.9425	0.0956	0.1428	0.092
Mof_H 	H 	0.0492	0.1625	0.0944	0.109
Mof_H 	H 	0.1791	0.1758	0.0215	0.001
Mof_H 	H 	0.32	0.9829	0.9764	0.016
Mof_H 	H 	0.2005	0.9697	0.05	0.099
Mof_H 	H 	0.324	0.3421	0.8837	0.046
Mof_H 	H 	0.5444	0.3404	0.8782	0.04
Mof_H 	H 	0.5251	0.4629	0.8877	0.051
Mof_H 	H 	0.3032	0.462	0.8879	0.049
Mof_H 	H 	0.1308	0.5072	0.8274	0.077
Mof_H 	H 	0.1302	0.5714	0.7722	0.029
Mof_H 	H 	0.6926	0.5915	0.7882	0.027
Mof_H 	H 	0.6905	0.5268	0.8424	0.073
Mof_H 	H 	0.4903	0.2328	0.1173	-0.003
Mof_H 	H 	0.4505	0.2507	0.0391	0.106
Mof_H 	H 	0.794	0.3181	0.9755	0.05
Mof_H 	H 	0.574	0.318	0.9823	0.058
Mof_H 	H 	0.9546	0.2076	0.9528	0.089
Mof_H 	H 	0.8195	0.1504	0.9583	0.097
Mof_H 	H 	0.9801	0.3184	0.045	0.094
Mof_H 	H 	0.0187	0.3045	0.1244	-0.006
Mof_H 	H 	0.9523	0.2496	0.222	0.315
Mof_H 	H 	0.3494	0.0122	0.6765	0.101
Mof_H 	H 	0.19	0.3779	0.3127	0.133
Mof_H 	H 	0.9847	0.3798	0.3107	0.142
Mof_H 	H 	0.9268	0.2055	0.4489	0.129
Mof_H 	H 	0.8389	0.2344	0.4132	0.099
Mof_H 	H 	0.1164	0.0961	0.6494	0.118
Mof_H 	H 	0.2484	0.141	0.6914	0.102
Mof_H 	H 	0.5677	0.0182	0.617	0.083
Mof_H 	H 	0.5575	0.0956	0.6428	0.08
Mof_H 	H 	0.4508	0.1625	0.5944	0.107
Mof_H 	H 	0.3209	0.1758	0.5215	0.003
Mof_H 	H 	0.18	0.9829	0.4764	0.018
Mof_H 	H 	0.2995	0.9697	0.55	0.097
Mof_H 	H 	0.176	0.3421	0.3837	0.048
Mof_H 	H 	0.9556	0.3404	0.3782	0.045
Mof_H 	H 	0.9749	0.4629	0.3877	0.055
Mof_H 	H 	0.1968	0.462	0.3879	0.05
Mof_H 	H 	0.3692	0.5072	0.3274	0.076
Mof_H 	H 	0.3698	0.5714	0.2722	0.027
Mof_H 	H 	0.8074	0.5915	0.2882	0.026
Mof_H 	H 	0.8095	0.5268	0.3424	0.073
Mof_H 	H 	0.0097	0.2328	0.6173	0.006
Mof_H 	H 	0.0495	0.2507	0.5391	0.104
Mof_H 	H 	0.706	0.3181	0.4755	0.049
Mof_H 	H 	0.926	0.318	0.4823	0.056
Mof_H 	H 	0.5454	0.2076	0.4528	0.09
Mof_H 	H 	0.6805	0.1504	0.4583	0.097
Mof_H 	H 	0.5199	0.3184	0.545	0.09
Mof_H 	H 	0.4813	0.3045	0.6244	0.003
Mof_H 	H 	0.5477	0.2496	0.722	0.314
Mof_H 	H 	0.8494	0.9878	0.8235	0.098
Mof_H 	H 	0.69	0.6221	0.1873	0.134
Mof_H 	H 	0.4847	0.6202	0.1893	0.138
Mof_H 	H 	0.4268	0.7945	0.0511	0.127
Mof_H 	H 	0.3389	0.7656	0.0868	0.098
Mof_H 	H 	0.6164	0.9039	0.8506	0.116
Mof_H 	H 	0.7484	0.859	0.8086	0.1
Mof_H 	H 	0.0677	0.9818	0.883	0.095
Mof_H 	H 	0.0575	0.9044	0.8572	0.092
Mof_H 	H 	0.9508	0.8375	0.9056	0.109
Mof_H 	H 	0.8209	0.8242	0.9785	0.001
Mof_H 	H 	0.68	0.0171	0.0236	0.016
Mof_H 	H 	0.7995	0.0303	0.95	0.099
Mof_H 	H 	0.676	0.6579	0.1163	0.046
Mof_H 	H 	0.4556	0.6596	0.1218	0.04
Mof_H 	H 	0.4749	0.5371	0.1123	0.051
Mof_H 	H 	0.6968	0.538	0.1121	0.049
Mof_H 	H 	0.8692	0.4928	0.1726	0.077
Mof_H 	H 	0.8698	0.4286	0.2278	0.029
Mof_H 	H 	0.3074	0.4085	0.2118	0.027
Mof_H 	H 	0.3095	0.4732	0.1576	0.073
Mof_H 	H 	0.5097	0.7672	0.8827	-0.003
Mof_H 	H 	0.5495	0.7493	0.9609	0.106
Mof_H 	H 	0.206	0.6819	0.0245	0.05
Mof_H 	H 	0.426	0.682	0.0177	0.058
Mof_H 	H 	0.0454	0.7924	0.0472	0.089
Mof_H 	H 	0.1805	0.8496	0.0417	0.097
Mof_H 	H 	0.0199	0.6816	0.955	0.094
Mof_H 	H 	0.9813	0.6955	0.8756	-0.006
Mof_H 	H 	0.0477	0.7504	0.778	0.315
Mof_C 	C 	0.8085	0.903	0.3212	-0.244
Mof_C 	C 	0.5174	0.9438	0.37321	-0.154
Mof_C 	C 	0.6089	0.935	0.41976	0.145
Mof_C 	C 	0.6048	0.874	0.429	-0.189
Mof_C 	C 	0.6828	0.8659	0.4731	0.087
Mof_C 	C 	0.7647	0.9188	0.5082	-0.139
Mof_C 	C 	0.7676	0.9806	0.4996	0.08
Mof_C 	C 	0.6937	0.9887	0.4557	-0.168
Mof_C 	C 	0.843	0.9111	0.5567	0.337
Mof_C 	C 	0.9266	0.6657	0.64045	-0.193
Mof_C 	C 	0.9138	0.5445	0.6336	-0.125
Mof_C 	C 	0.9112	0.4951	0.6635	0.096
Mof_C 	C 	0.7448	0.4779	0.682	-0.142
Mof_C 	C 	0.7436	0.4386	0.7147	0.052
Mof_C 	C 	0.9139	0.4144	0.7274	-0.119
Mof_C 	C 	0.0795	0.4268	0.7051	0.061
Mof_C 	C 	0.0789	0.4661	0.673	-0.139
Mof_C 	C 	0.9164	0.3761	0.7649	0.318
Mof_C 	C 	0.2784	0.7454	0.3219	0.49
Mof_C 	C 	0.2598	0.7338	0.3721	-0.203
Mof_C 	C 	0.0887	0.7498	0.3971	0.114
Mof_C 	C 	0.0655	0.7396	0.4441	-0.2
Mof_C 	C 	0.2143	0.7151	0.4656	0.149
Mof_C 	C 	0.1887	0.7072	0.5172	-0.145
Mof_C 	C 	0.3427	0.8183	0.56072	-0.22
Mof_C 	C 	0.3816	0.6987	0.4404	-0.206
Mof_C 	C 	0.4055	0.7074	0.3929	0.122
Mof_C 	C 	0.3085	0.097	0.1788	-0.244
Mof_C 	C 	0.0174	0.0562	0.12679	-0.182
Mof_C 	C 	0.1089	0.065	0.08024	0.155
Mof_C 	C 	0.1048	0.126	0.071	-0.196
Mof_C 	C 	0.1828	0.1341	0.0269	0.091
Mof_C 	C 	0.2647	0.0812	0.9918	-0.142
Mof_C 	C 	0.2676	0.0194	0.0004	0.084
Mof_C 	C 	0.1937	0.0113	0.0443	-0.176
Mof_C 	C 	0.343	0.0889	0.9433	0.338
Mof_C 	C 	0.4266	0.3343	0.85955	-0.185
Mof_C 	C 	0.4138	0.4555	0.8664	-0.119
Mof_C 	C 	0.4112	0.5049	0.8365	0.1
Mof_C 	C 	0.2448	0.5221	0.818	-0.141
Mof_C 	C 	0.2436	0.5614	0.7853	0.051
Mof_C 	C 	0.4139	0.5856	0.7726	-0.113
Mof_C 	C 	0.5795	0.5732	0.7949	0.053
Mof_C 	C 	0.5789	0.5339	0.827	-0.143
Mof_C 	C 	0.4164	0.6239	0.7351	0.325
Mof_C 	C 	0.7784	0.2546	0.1781	0.494
Mof_C 	C 	0.7598	0.2662	0.1279	-0.215
Mof_C 	C 	0.5887	0.2502	0.1029	0.131
Mof_C 	C 	0.5655	0.2604	0.0559	-0.21
Mof_C 	C 	0.7143	0.2849	0.0344	0.158
Mof_C 	C 	0.6887	0.2928	0.9828	-0.15
Mof_C 	C 	0.8427	0.1817	0.93928	-0.22
Mof_C 	C 	0.8816	0.3013	0.0596	-0.218
Mof_C 	C 	0.9055	0.2926	0.1071	0.139
Mof_C 	C 	0.1915	0.097	0.6788	-0.244
Mof_C 	C 	0.4826	0.0562	0.62679	-0.154
Mof_C 	C 	0.3911	0.065	0.58024	0.145
Mof_C 	C 	0.3952	0.126	0.571	-0.189
Mof_C 	C 	0.3172	0.1341	0.5269	0.087
Mof_C 	C 	0.2353	0.0812	0.4918	-0.139
Mof_C 	C 	0.2324	0.0194	0.5004	0.08
Mof_C 	C 	0.3063	0.0113	0.5443	-0.168
Mof_C 	C 	0.157	0.0889	0.4433	0.337
Mof_C 	C 	0.0734	0.3343	0.35955	-0.193
Mof_C 	C 	0.0862	0.4555	0.3664	-0.125
Mof_C 	C 	0.0888	0.5049	0.3365	0.096
Mof_C 	C 	0.2552	0.5221	0.318	-0.142
Mof_C 	C 	0.2564	0.5614	0.2853	0.052
Mof_C 	C 	0.0861	0.5856	0.2726	-0.119
Mof_C 	C 	0.9205	0.5732	0.2949	0.061
Mof_C 	C 	0.9211	0.5339	0.327	-0.139
Mof_C 	C 	0.0836	0.6239	0.2351	0.318
Mof_C 	C 	0.7216	0.2546	0.6781	0.49
Mof_C 	C 	0.7402	0.2662	0.6279	-0.203
Mof_C 	C 	0.9113	0.2502	0.6029	0.114
Mof_C 	C 	0.9345	0.2604	0.5559	-0.2
Mof_C 	C 	0.7857	0.2849	0.5344	0.149
Mof_C 	C 	0.8113	0.2928	0.4828	-0.145
Mof_C 	C 	0.6573	0.1817	0.43928	-0.22
Mof_C 	C 	0.6184	0.3013	0.5596	-0.206
Mof_C 	C 	0.5945	0.2926	0.6071	0.122
Mof_C 	C 	0.6915	0.903	0.8212	-0.244
Mof_C 	C 	0.9826	0.9438	0.87321	-0.182
Mof_C 	C 	0.8911	0.935	0.91976	0.155
Mof_C 	C 	0.8952	0.874	0.929	-0.196
Mof_C 	C 	0.8172	0.8659	0.9731	0.092
Mof_C 	C 	0.7353	0.9188	0.0082	-0.142
Mof_C 	C 	0.7324	0.9806	0.9996	0.084
Mof_C 	C 	0.8063	0.9887	0.9557	-0.176
Mof_C 	C 	0.657	0.9111	0.0567	0.338
Mof_C 	C 	0.5734	0.6657	0.14045	-0.185
Mof_C 	C 	0.5862	0.5445	0.1336	-0.119
Mof_C 	C 	0.5888	0.4951	0.1635	0.1
Mof_C 	C 	0.7552	0.4779	0.182	-0.141
Mof_C 	C 	0.7564	0.4386	0.2147	0.051
Mof_C 	C 	0.5861	0.4144	0.2274	-0.113
Mof_C 	C 	0.4205	0.4268	0.2051	0.053
Mof_C 	C 	0.4211	0.4661	0.173	-0.143
Mof_C 	C 	0.5836	0.3761	0.2649	0.325
Mof_C 	C 	0.2216	0.7454	0.8219	0.494
Mof_C 	C 	0.2402	0.7338	0.8721	-0.215
Mof_C 	C 	0.4113	0.7498	0.8971	0.131
Mof_C 	C 	0.4345	0.7396	0.9441	-0.21
Mof_C 	C 	0.2857	0.7151	0.9656	0.158
Mof_C 	C 	0.3113	0.7072	0.0172	-0.15
Mof_C 	C 	0.1573	0.8183	0.06072	-0.22
Mof_C 	C 	0.1184	0.6987	0.9404	-0.218
Mof_C 	C 	0.0945	0.7074	0.8929	0.139
Mof_N 	N 	0.6574	0.9546	0.33565	-0.134
Mof_N 	N 	0.9156	0.615	0.66843	-0.227
Mof_N 	N 	0.1769	0.7731	0.55687	-0.2
Mof_N 	N 	0.1574	0.0454	0.16435	-0.131
Mof_N 	N 	0.4156	0.385	0.83157	-0.225
Mof_N 	N 	0.6769	0.2269	0.94313	-0.199
Mof_N 	N 	0.3426	0.0454	0.66435	-0.134
Mof_N 	N 	0.0844	0.385	0.33157	-0.227
Mof_N 	N 	0.8231	0.2269	0.44313	-0.2
Mof_N 	N 	0.8426	0.9546	0.83565	-0.131
Mof_N 	N 	0.5844	0.615	0.16843	-0.225
Mof_N 	N 	0.3231	0.7731	0.05687	-0.199
Mof_O 	O 	0.8744	0.9622	0.59296	-0.458
Mof_O 	O 	0.8677	0.8524	0.55983	-0.402
Mof_O 	O 	0.0728	0.9802	0.29843	-0.58
Mof_O 	O 	0.0876	0.85723	0.25671	-0.553
Mof_O 	O 	0.8285	0.9292	0.23348	-0.56
Mof_O 	O 	0.9271	0.79474	0.64596	-0.572
Mof_O 	O 	0.7318	0.76037	0.7103	-0.585
Mof_O 	O 	0.0819	0.76038	0.71663	-0.545
Mof_O 	O 	0.7644	0.36163	0.78262	-0.442
Mof_O 	O 	0.0716	0.3544	0.77606	-0.435
Mof_O 	O 	0.4524	0.7459	0.30628	-0.543
Mof_O 	O 	0.1395	0.7533	0.29794	-0.509
Mof_O 	O 	0.5602	0.9018	0.63088	-0.532
Mof_O 	O 	0.2073	0.90947	0.64263	-0.507
Mof_O 	O 	0.3809	0.80634	0.65022	-0.597
Mof_O 	O 	0.3744	0.0378	0.90704	-0.458
Mof_O 	O 	0.3677	0.1476	0.94017	-0.402
Mof_O 	O 	0.5728	0.0198	0.20157	-0.575
Mof_O 	O 	0.5876	0.14277	0.24329	-0.549
Mof_O 	O 	0.3285	0.0708	0.26652	-0.56
Mof_O 	O 	0.4271	0.20526	0.85404	-0.57
Mof_O 	O 	0.2318	0.23963	0.7897	-0.581
Mof_O 	O 	0.5819	0.23962	0.78337	-0.547
Mof_O 	O 	0.2644	0.63837	0.71738	-0.444
Mof_O 	O 	0.5716	0.6456	0.72394	-0.443
Mof_O 	O 	0.9524	0.2541	0.19372	-0.542
Mof_O 	O 	0.6395	0.2467	0.20206	-0.509
Mof_O 	O 	0.0602	0.0982	0.86912	-0.528
Mof_O 	O 	0.7073	0.09053	0.85737	-0.51
Mof_O 	O 	0.8809	0.19366	0.84978	-0.597
Mof_O 	O 	0.1256	0.0378	0.40704	-0.458
Mof_O 	O 	0.1323	0.1476	0.44017	-0.402
Mof_O 	O 	0.9272	0.0198	0.70157	-0.58
Mof_O 	O 	0.9124	0.14277	0.74329	-0.553
Mof_O 	O 	0.1715	0.0708	0.76652	-0.56
Mof_O 	O 	0.0729	0.20526	0.35404	-0.572
Mof_O 	O 	0.2682	0.23963	0.2897	-0.585
Mof_O 	O 	0.9181	0.23962	0.28337	-0.545
Mof_O 	O 	0.2356	0.63837	0.21738	-0.442
Mof_O 	O 	0.9284	0.6456	0.22394	-0.435
Mof_O 	O 	0.5476	0.2541	0.69372	-0.543
Mof_O 	O 	0.8605	0.2467	0.70206	-0.509
Mof_O 	O 	0.4398	0.0982	0.36912	-0.532
Mof_O 	O 	0.7927	0.09053	0.35737	-0.507
Mof_O 	O 	0.6191	0.19366	0.34978	-0.597
Mof_O 	O 	0.6256	0.9622	0.09296	-0.458
Mof_O 	O 	0.6323	0.8524	0.05983	-0.402
Mof_O 	O 	0.4272	0.9802	0.79843	-0.575
Mof_O 	O 	0.4124	0.85723	0.75671	-0.549
Mof_O 	O 	0.6715	0.9292	0.73348	-0.56
Mof_O 	O 	0.5729	0.79474	0.14596	-0.57
Mof_O 	O 	0.7682	0.76037	0.2103	-0.581
Mof_O 	O 	0.4181	0.76038	0.21663	-0.547
Mof_O 	O 	0.7356	0.36163	0.28262	-0.444
Mof_O 	O 	0.4284	0.3544	0.27606	-0.443
Mof_O 	O 	0.0476	0.7459	0.80628	-0.542
Mof_O 	O 	0.3605	0.7533	0.79794	-0.509
Mof_O 	O 	0.9398	0.9018	0.13088	-0.528
Mof_O 	O 	0.2927	0.90947	0.14263	-0.51
Mof_O 	O 	0.1191	0.80634	0.15022	-0.597
_end
