data_functionalizedCrystal
_audit_creation_method	'EQeq! by Chris Wilmer'
_symmetry_space_group_name_H-M	'P1'
_symmetry_Int_Tables_number	1
_symmetry_cell_setting	triclinic
loop_
_symmetry_equiv_pos_as_xyz
  x,y,z
_cell_length_a	9.3124
_cell_length_b	19.1575
_cell_length_c	19.1575
_cell_angle_alpha	62.573
_cell_angle_beta	80.6751
_cell_angle_gamma	99.3249
loop_
_atom_site_label
_atom_site_type_symbol
_atom_site_fract_x
_atom_site_fract_y
_atom_site_fract_z
_atom_site_charge
Mof_Co	Co	-0	-3.94453e-17	0.5	1.116
Mof_H 	H 	0.5254	0.7794	0.5739	0.066
Mof_H 	H 	0.4388	0.8549	0.6383	0.064
Mof_H 	H 	0.2998	0.8866	0.3475	0.061
Mof_H 	H 	0.0427	0.7964	0.4013	0.081
Mof_H 	H 	0.6044	0.986	0.4211	0.067
Mof_H 	H 	0.8162	0.9887	0.3407	0.056
Mof_H 	H 	0.6532	0.056	0.1554	0.008
Mof_H 	H 	0.4264	0.0535	0.2288	0.079
Mof_H 	H 	0.8408	0.683	0.5759	0.112
Mof_H 	H 	0.7382	0.5671	0.5728	-0.016
Mof_H 	H 	0.5637	0.6905	0.3998	-0.022
Mof_H 	H 	0.658	0.8095	0.3985	0.117
Mof_H 	H 	0.4746	0.2206	0.4261	0.061
Mof_H 	H 	0.5612	0.1451	0.3617	0.06
Mof_H 	H 	0.7002	0.1134	0.6525	0.065
Mof_H 	H 	0.9573	0.2036	0.5987	0.057
Mof_H 	H 	0.3956	0.014	0.5789	0.143
Mof_H 	H 	0.1838	0.0113	0.6593	-0.072
Mof_H 	H 	0.3468	0.944	0.8446	-0.002
Mof_H 	H 	0.5736	0.9465	0.7712	0.121
Mof_H 	H 	0.1592	0.317	0.4241	0.092
Mof_H 	H 	0.2618	0.4329	0.4272	-0.018
Mof_H 	H 	0.4363	0.3095	0.6002	-0.02
Mof_H 	H 	0.342	0.1905	0.6015	0.102
Mof_C 	C 	0.2605	0.1359	0.4705	0.098
Mof_C 	C 	0.5833	0.8252	0.5714	-0.093
Mof_C 	C 	0.5355	0.8667	0.6063	-0.083
Mof_C 	C 	0.6628	0.9336	0.5847	0.113
Mof_C 	C 	0.6597	0.9892	0.6127	-0.152
Mof_C 	C 	0.7858	0.0481	0.5972	0.098
Mof_C 	C 	0.2164	0.8908	0.3778	-0.062
Mof_C 	C 	0.0752	0.8416	0.4069	-0.139
Mof_C 	C 	0.9834	0.8725	0.4486	0.169
Mof_C 	C 	0.1701	0.1638	0.5116	-0.138
Mof_C 	C 	0.4859	0.0167	0.3357	0.081
Mof_C 	C 	0.6092	0.9995	0.3674	-0.077
Mof_C 	C 	0.7372	0.0027	0.3178	-0.007
Mof_C 	C 	0.6417	0.0415	0.2099	0.071
Mof_C 	C 	0.5034	0.0399	0.2536	-0.155
Mof_C 	C 	0.2389	0.2403	0.5122	0.146
Mof_C 	C 	0.2162	0.3141	0.4606	-0.201
Mof_C 	C 	0.2776	0.3835	0.4628	0.102
Mof_C 	C 	0.6203	0.6889	0.436	0.131
Mof_C 	C 	0.6767	0.7612	0.4345	-0.221
Mof_C 	C 	0.7395	0.8641	0.5295	0.123
Mof_C 	C 	0.4167	0.1748	0.4286	-0.085
Mof_C 	C 	0.4645	0.1333	0.3937	-0.087
Mof_C 	C 	0.3372	0.0664	0.4153	0.101
Mof_C 	C 	0.3403	0.0108	0.3873	-0.159
Mof_C 	C 	0.2142	0.9519	0.4028	0.122
Mof_C 	C 	0.7836	0.1092	0.6222	-0.102
Mof_C 	C 	0.9248	0.1584	0.5931	-0.026
Mof_C 	C 	0.0166	0.1275	0.5514	0.045
Mof_C 	C 	0.8299	0.8362	0.4884	-0.178
Mof_C 	C 	0.5141	0.9833	0.6643	0.222
Mof_C 	C 	0.3908	0.0005	0.6326	-0.34
Mof_C 	C 	0.2628	0.9973	0.6822	0.245
Mof_C 	C 	0.3583	0.9585	0.7901	0.133
Mof_C 	C 	0.4966	0.9601	0.7464	-0.237
Mof_C 	C 	0.7611	0.7597	0.4878	0.179
Mof_C 	C 	0.7838	0.6859	0.5394	-0.215
Mof_C 	C 	0.7224	0.6165	0.5372	0.117
Mof_C 	C 	0.3797	0.3111	0.564	0.115
Mof_C 	C 	0.3233	0.2388	0.5655	-0.203
Mof_N 	N 	0.2132	0.0683	0.4635	-0.273
Mof_N 	N 	0.9312	0.0596	0.555	-0.246
Mof_N 	N 	0.7561	0.0243	0.2404	-0.12
Mof_N 	N 	0.3591	0.3819	0.5149	-0.236
Mof_N 	N 	0.7868	0.9317	0.5365	-0.261
Mof_N 	N 	0.0688	0.9404	0.445	-0.286
Mof_N 	N 	0.2439	0.9757	0.7596	-0.173
Mof_N 	N 	0.6409	0.6181	0.4851	-0.239
Mof_Co	Co	0.5	0.5	0.5	1.139
Mof_H 	H 	0.0993	0.5739	0.6467	0.055
Mof_H 	H 	0.0771	0.6383	0.5068	0.059
Mof_H 	H 	0.6473	0.3475	0.7659	0.062
Mof_H 	H 	0.444	0.4013	0.8023	0.07
Mof_H 	H 	0.0255	0.4211	0.5929	0.023
Mof_H 	H 	0.1569	0.3407	0.6706	0.04
Mof_H 	H 	0.8086	0.1554	0.7886	0.015
Mof_H 	H 	0.6552	0.2288	0.7177	0.079
Mof_H 	H 	0.4167	0.5759	0.7411	0.098
Mof_H 	H 	0.311	0.5728	0.8601	-0.011
Mof_H 	H 	0.9635	0.3998	0.9097	0.028
Mof_H 	H 	0.0565	0.3985	0.792	0.088
Mof_H 	H 	0.9007	0.4261	0.3533	0.071
Mof_H 	H 	0.9229	0.3617	0.4932	0.064
Mof_H 	H 	0.3527	0.6525	0.2341	0.061
Mof_H 	H 	0.556	0.5987	0.1977	0.069
Mof_H 	H 	0.9745	0.5789	0.4071	0.181
Mof_H 	H 	0.8431	0.6593	0.3294	-0.051
Mof_H 	H 	0.1914	0.8446	0.2114	-0.009
Mof_H 	H 	0.3448	0.7712	0.2823	0.119
Mof_H 	H 	0.5833	0.4241	0.2589	0.107
Mof_H 	H 	0.689	0.4272	0.1399	-0.022
Mof_H 	H 	0.0365	0.6002	0.0903	-0.071
Mof_H 	H 	0.9435	0.6015	0.208	0.132
Mof_C 	C 	0.731	0.4705	0.3936	0.117
Mof_C 	C 	0.1547	0.5714	0.6034	-0.084
Mof_C 	C 	0.1418	0.6063	0.527	-0.095
Mof_C 	C 	0.2475	0.5847	0.4817	0.117
Mof_C 	C 	0.2724	0.6127	0.3981	-0.185
Mof_C 	C 	0.383	0.5972	0.3547	0.118
Mof_C 	C 	0.5942	0.3778	0.7314	-0.072
Mof_C 	C 	0.4821	0.4069	0.7515	-0.089
Mof_C 	C 	0.432	0.4486	0.6789	0.108
Mof_C 	C 	0.6817	0.5116	0.3246	-0.167
Mof_C 	C 	0.8216	0.3357	0.6476	0.075
Mof_C 	C 	0.9766	0.3674	0.6331	-0.028
Mof_C 	C 	0.055	0.3178	0.6795	-0.032
Mof_C 	C 	0.8516	0.2099	0.7486	0.07
Mof_C 	C 	0.757	0.2536	0.7065	-0.14
Mof_C 	C 	0.7511	0.5122	0.2475	0.186
Mof_C 	C 	0.6768	0.4606	0.2253	-0.225
Mof_C 	C 	0.7404	0.4628	0.1537	0.121
Mof_C 	C 	0.0563	0.436	0.8751	0.052
Mof_C 	C 	0.1112	0.4345	0.8043	-0.172
Mof_C 	C 	0.269	0.5295	0.6064	0.106
Mof_C 	C 	0.8453	0.4286	0.3966	-0.096
Mof_C 	C 	0.8582	0.3937	0.473	-0.072
Mof_C 	C 	0.7525	0.4153	0.5183	0.094
Mof_C 	C 	0.7276	0.3873	0.6019	-0.121
Mof_C 	C 	0.617	0.4028	0.6453	0.096
Mof_C 	C 	0.4058	0.6222	0.2686	-0.086
Mof_C 	C 	0.5179	0.5931	0.2485	-0.086
Mof_C 	C 	0.568	0.5514	0.3211	0.114
Mof_C 	C 	0.3183	0.4884	0.6754	-0.153
Mof_C 	C 	0.1784	0.6643	0.3524	0.22
Mof_C 	C 	0.0234	0.6326	0.3669	-0.374
Mof_C 	C 	0.945	0.6822	0.3205	0.255
Mof_C 	C 	0.1484	0.7901	0.2514	0.131
Mof_C 	C 	0.243	0.7464	0.2935	-0.247
Mof_C 	C 	0.2489	0.4878	0.7525	0.143
Mof_C 	C 	0.3232	0.5394	0.7747	-0.192
Mof_C 	C 	0.2596	0.5372	0.8463	0.099
Mof_C 	C 	0.9437	0.564	0.1249	0.198
Mof_C 	C 	0.8888	0.5655	0.1957	-0.255
Mof_N 	N 	0.6767	0.4635	0.4682	-0.268
Mof_N 	N 	0.4862	0.555	0.3854	-0.272
Mof_N 	N 	0.9965	0.2404	0.7353	-0.098
Mof_N 	N 	0.874	0.5149	0.1032	-0.25
Mof_N 	N 	0.3233	0.5365	0.5318	-0.271
Mof_N 	N 	0.5138	0.445	0.6146	-0.269
Mof_N 	N 	0.0035	0.7596	0.2647	-0.193
Mof_N 	N 	0.126	0.4851	0.8968	-0.221
Mof_Co	Co	-0	0.5	-0	1.116
Mof_H 	H 	0.746	0.6467	0.7794	0.059
Mof_H 	H 	0.5839	0.5068	0.8549	0.068
Mof_H 	H 	0.4132	0.7659	0.8866	0.077
Mof_H 	H 	0.2463	0.8023	0.7964	0.056
Mof_H 	H 	0.6184	0.5929	0.986	0.064
Mof_H 	H 	0.8275	0.6706	0.9887	0.06
Mof_H 	H 	0.5972	0.7886	0.056	0.013
Mof_H 	H 	0.3729	0.7177	0.0535	0.08
Mof_H 	H 	0.1578	0.7411	0.683	0.082
Mof_H 	H 	0.1711	0.8601	0.5671	-0.006
Mof_H 	H 	0.8732	0.9097	0.6905	-0.01
Mof_H 	H 	0.8485	0.792	0.8095	0.091
Mof_H 	H 	0.254	0.3533	0.2206	0.068
Mof_H 	H 	0.4161	0.4932	0.1451	0.054
Mof_H 	H 	0.5868	0.2341	0.1134	0.046
Mof_H 	H 	0.7537	0.1977	0.2036	0.085
Mof_H 	H 	0.3816	0.4071	0.014	0.144
Mof_H 	H 	0.1725	0.3294	0.0113	-0.075
Mof_H 	H 	0.4028	0.2114	0.944	-0.008
Mof_H 	H 	0.6271	0.2823	0.9465	0.12
Mof_H 	H 	0.8422	0.2589	0.317	0.126
Mof_H 	H 	0.8289	0.1399	0.4329	-0.028
Mof_H 	H 	0.1268	0.0903	0.3095	-0.032
Mof_H 	H 	0.1515	0.208	0.1905	0.13
Mof_C 	C 	0.1246	0.3936	0.1359	0.14
Mof_C 	C 	0.7581	0.6034	0.8252	-0.066
Mof_C 	C 	0.6688	0.527	0.8667	-0.094
Mof_C 	C 	0.7292	0.4817	0.9336	0.115
Mof_C 	C 	0.6705	0.3981	0.9892	-0.144
Mof_C 	C 	0.7377	0.3547	0.0481	0.078
Mof_C 	C 	0.3256	0.7314	0.8908	-0.104
Mof_C 	C 	0.2336	0.7515	0.8416	-0.052
Mof_C 	C 	0.1109	0.6789	0.8725	0.055
Mof_C 	C 	0.0063	0.3246	0.1638	-0.256
Mof_C 	C 	0.4692	0.6476	0.0167	0.078
Mof_C 	C 	0.6097	0.6331	0.9995	-0.069
Mof_C 	C 	0.7345	0.6795	0.0027	-0.015
Mof_C 	C 	0.6002	0.7486	0.0415	0.07
Mof_C 	C 	0.4635	0.7065	0.0399	-0.152
Mof_C 	C 	0.9986	0.2475	0.2403	0.271
Mof_C 	C 	0.9021	0.2253	0.3141	-0.264
Mof_C 	C 	0.8941	0.1537	0.3835	0.145
Mof_C 	C 	0.9314	0.8751	0.6889	0.122
Mof_C 	C 	0.9155	0.8043	0.7612	-0.139
Mof_C 	C 	0.8754	0.6064	0.8641	0.086
Mof_C 	C 	0.2419	0.3966	0.1748	-0.117
Mof_C 	C 	0.3312	0.473	0.1333	-0.073
Mof_C 	C 	0.2708	0.5183	0.0664	0.096
Mof_C 	C 	0.3295	0.6019	0.0108	-0.162
Mof_C 	C 	0.2623	0.6453	0.9519	0.138
Mof_C 	C 	0.6744	0.2686	0.1092	-0.053
Mof_C 	C 	0.7664	0.2485	0.1584	-0.126
Mof_C 	C 	0.8891	0.3211	0.1275	0.174
Mof_C 	C 	0.9937	0.6754	0.8362	-0.072
Mof_C 	C 	0.5308	0.3524	0.9833	0.222
Mof_C 	C 	0.3903	0.3669	0.0005	-0.343
Mof_C 	C 	0.2655	0.3205	0.9973	0.248
Mof_C 	C 	0.3998	0.2514	0.9585	0.133
Mof_C 	C 	0.5365	0.2935	0.9601	-0.237
Mof_C 	C 	0.0014	0.7525	0.7597	0.07
Mof_C 	C 	0.0979	0.7747	0.6859	-0.159
Mof_C 	C 	0.1059	0.8463	0.6165	0.079
Mof_C 	C 	0.0686	0.1249	0.3111	0.124
Mof_C 	C 	0.0845	0.1957	0.2388	-0.295
Mof_N 	N 	0.1449	0.4682	0.0683	-0.282
Mof_N 	N 	0.8716	0.3854	0.0596	-0.271
Mof_N 	N 	0.7318	0.7353	0.0243	-0.117
Mof_N 	N 	0.9772	0.1032	0.3819	-0.231
Mof_N 	N 	0.8551	0.5318	0.9317	-0.252
Mof_N 	N 	0.1284	0.6146	0.9404	-0.263
Mof_N 	N 	0.2682	0.2647	0.9757	-0.176
Mof_N 	N 	0.0228	0.8968	0.6181	-0.238
_end
