data_functionalizedCrystal
_audit_creation_method	'EQeq! by Chris Wilmer'
_symmetry_space_group_name_H-M	'P1'
_symmetry_Int_Tables_number	1
_symmetry_cell_setting	triclinic
loop_
_symmetry_equiv_pos_as_xyz
  x,y,z
_cell_length_a	20.07
_cell_length_b	20.07
_cell_length_c	12.733
_cell_angle_alpha	90
_cell_angle_beta	90
_cell_angle_gamma	90
loop_
_atom_site_label
_atom_site_type_symbol
_atom_site_fract_x
_atom_site_fract_y
_atom_site_fract_z
_atom_site_charge
Mof_Cd	Cd	0.10384	0.06904	0.40667	0.308
Mof_N 	N 	0.1411	0.9867	0.298	-0.142
Mof_N 	N 	0.0687	0.1373	0.2816	-0.147
Mof_C 	C 	0.1921	0.0942	0.4982	-0.014
Mof_C 	C 	0.0464	0.1747	0.2256	-0.016
Mof_C 	C 	0.0219	0.0137	0.4798	-0.091
Mof_Cd	Cd	0.60384	0.56904	0.90667	0.31
Mof_N 	N 	0.6411	0.4867	0.798	-0.14
Mof_N 	N 	0.5687	0.6373	0.7816	-0.145
Mof_C 	C 	0.6921	0.5942	0.9982	-0.011
Mof_C 	C 	0.5464	0.6747	0.7256	-0.011
Mof_C 	C 	0.5219	0.5137	0.9798	-0.067
Mof_Cd	Cd	0.39616	0.93096	0.90667	0.309
Mof_N 	N 	0.3589	0.0133	0.798	-0.139
Mof_N 	N 	0.4313	0.8627	0.7816	-0.146
Mof_C 	C 	0.3079	0.9058	0.9982	-0.013
Mof_C 	C 	0.4536	0.8253	0.7256	-0.011
Mof_C 	C 	0.4781	0.9863	0.9798	-0.07
Mof_Cd	Cd	0.89616	0.43096	0.40667	0.311
Mof_N 	N 	0.8589	0.5133	0.298	-0.14
Mof_N 	N 	0.9313	0.3627	0.2816	-0.146
Mof_C 	C 	0.8079	0.4058	0.4982	-0.01
Mof_C 	C 	0.9536	0.3253	0.2256	0
Mof_C 	C 	0.9781	0.4863	0.4798	-0.041
Mof_Cd	Cd	0.68096	0.35384	0.65667	0.31
Mof_N 	N 	0.7633	0.3911	0.548	-0.14
Mof_N 	N 	0.6127	0.3187	0.5316	-0.145
Mof_C 	C 	0.6558	0.4421	0.7482	-0.011
Mof_C 	C 	0.5753	0.2964	0.4756	-0.011
Mof_C 	C 	0.7363	0.2719	0.7298	-0.067
Mof_Cd	Cd	0.18096	0.85384	0.15667	0.308
Mof_N 	N 	0.2633	0.8911	0.048	-0.14
Mof_N 	N 	0.1127	0.8187	0.0316	-0.146
Mof_C 	C 	0.1558	0.9421	0.2482	-0.014
Mof_C 	C 	0.0753	0.7964	0.9756	-0.016
Mof_C 	C 	0.2363	0.7719	0.2298	-0.068
Mof_Cd	Cd	0.81904	0.64616	0.15667	0.312
Mof_N 	N 	0.7367	0.6089	0.048	-0.14
Mof_N 	N 	0.8873	0.6813	0.0316	-0.146
Mof_C 	C 	0.8442	0.5579	0.2482	-0.009
Mof_C 	C 	0.9247	0.7036	0.9756	-0.001
Mof_C 	C 	0.7637	0.7281	0.2298	-0.067
Mof_Cd	Cd	0.31904	0.14616	0.65667	0.309
Mof_N 	N 	0.2367	0.1089	0.548	-0.14
Mof_N 	N 	0.3873	0.1813	0.5316	-0.145
Mof_C 	C 	0.3442	0.0579	0.7482	-0.011
Mof_C 	C 	0.4247	0.2036	0.4756	-0.011
Mof_C 	C 	0.2637	0.2281	0.7298	-0.068
Mof_Cd	Cd	0.89616	0.93096	0.59333	0.31
Mof_N 	N 	0.8589	0.0133	0.702	-0.139
Mof_N 	N 	0.9313	0.8627	0.7184	-0.146
Mof_C 	C 	0.8079	0.9058	0.5018	-0.01
Mof_C 	C 	0.9536	0.8253	0.7744	-0
Mof_C 	C 	0.9781	0.9863	0.5202	-0.044
Mof_Cd	Cd	0.39616	0.43096	0.09333	0.309
Mof_N 	N 	0.3589	0.5133	0.202	-0.14
Mof_N 	N 	0.4313	0.3627	0.2184	-0.145
Mof_C 	C 	0.3079	0.4058	0.0018	-0.012
Mof_C 	C 	0.4536	0.3253	0.2744	-0.011
Mof_C 	C 	0.4781	0.4863	0.0202	-0.068
Mof_Cd	Cd	0.60384	0.06904	0.09333	0.31
Mof_N 	N 	0.6411	0.9867	0.202	-0.14
Mof_N 	N 	0.5687	0.1373	0.2184	-0.145
Mof_C 	C 	0.6921	0.0942	0.0018	-0.012
Mof_C 	C 	0.5464	0.1747	0.2744	-0.011
Mof_C 	C 	0.5219	0.0137	0.0202	-0.066
Mof_Cd	Cd	0.10384	0.56904	0.59333	0.309
Mof_N 	N 	0.1411	0.4867	0.702	-0.141
Mof_N 	N 	0.0687	0.6373	0.7184	-0.146
Mof_C 	C 	0.1921	0.5942	0.5018	-0.013
Mof_C 	C 	0.0464	0.6747	0.7744	-0.015
Mof_C 	C 	0.0219	0.5137	0.5202	-0.093
Mof_Cd	Cd	0.31904	0.64616	0.34333	0.309
Mof_N 	N 	0.2367	0.6089	0.452	-0.14
Mof_N 	N 	0.3873	0.6813	0.4684	-0.145
Mof_C 	C 	0.3442	0.5579	0.2518	-0.012
Mof_C 	C 	0.4247	0.7036	0.5244	-0.011
Mof_C 	C 	0.2637	0.7281	0.2702	-0.068
Mof_Cd	Cd	0.81904	0.14616	0.84333	0.312
Mof_N 	N 	0.7367	0.1089	0.952	-0.139
Mof_N 	N 	0.8873	0.1813	0.9684	-0.145
Mof_C 	C 	0.8442	0.0579	0.7518	-0.009
Mof_C 	C 	0.9247	0.2036	0.0244	-0.001
Mof_C 	C 	0.7637	0.2281	0.7702	-0.067
Mof_Cd	Cd	0.18096	0.35384	0.84333	0.308
Mof_N 	N 	0.2633	0.3911	0.952	-0.14
Mof_N 	N 	0.1127	0.3187	0.9684	-0.146
Mof_C 	C 	0.1558	0.4421	0.7518	-0.013
Mof_C 	C 	0.0753	0.2964	0.0244	-0.015
Mof_C 	C 	0.2363	0.2719	0.7702	-0.068
Mof_Cd	Cd	0.68096	0.85384	0.34333	0.31
Mof_N 	N 	0.7633	0.8911	0.452	-0.14
Mof_N 	N 	0.6127	0.8187	0.4684	-0.145
Mof_C 	C 	0.6558	0.9421	0.2518	-0.011
Mof_C 	C 	0.5753	0.7964	0.5244	-0.011
Mof_C 	C 	0.7363	0.7719	0.2702	-0.067
Mof_Cd	Cd	2.97341e-34	0.25	0.125	0.251
Mof_Cd	Cd	0.5	0.75	0.625	0.265
Mof_Cd	Cd	0.5	0.25	0.375	0.265
Mof_Cd	Cd	2.08139e-33	0.75	0.875	0.251
_end
