data_functionalizedCrystal
_audit_creation_method	'EQeq! by Chris Wilmer'
_symmetry_space_group_name_H-M	'P1'
_symmetry_Int_Tables_number	1
_symmetry_cell_setting	triclinic
loop_
_symmetry_equiv_pos_as_xyz
  x,y,z
_cell_length_a	18.7262
_cell_length_b	34.1911
_cell_length_c	19.0465
_cell_angle_alpha	90
_cell_angle_beta	107.821
_cell_angle_gamma	90
loop_
_atom_site_label
_atom_site_type_symbol
_atom_site_fract_x
_atom_site_fract_y
_atom_site_fract_z
_atom_site_charge
Mof_Ag	Ag	0.57454	0.53664	0.61073	0.568
Mof_Ag	Ag	0.6616	0.63113	0.83765	0.584
Mof_Mo	Mo	0.35105	0.58764	0.46001	1.899
Mof_Mo	Mo	0.46812	0.59979	0.38221	0.759
Mof_Mo	Mo	0.78086	0.62273	0.65981	0.806
Mof_Mo	Mo	0.82146	0.55183	0.75987	0.784
Mof_P 	P 	0.47956	0.56311	0.49957	-0.252
Mof_P 	P 	0.41417	0.53676	0.40222	-0.212
Mof_P 	P 	0.69682	0.56945	0.66614	-0.206
Mof_P 	P 	0.72981	0.60233	0.76292	-0.22
Mof_C 	C 	0.2757	0.5782	0.3599	-0.264
Mof_C 	C 	0.5691	0.5741	0.4009	-0.108
Mof_C 	C 	0.5192	0.6365	0.4622	-0.127
Mof_C 	C 	0.7024	0.6623	0.6534	-0.131
Mof_C 	C 	0.8419	0.6522	0.7481	-0.142
Mof_C 	C 	0.7525	0.5109	0.778	-0.114
Mof_C 	C 	0.8225	0.5213	0.6701	-0.129
Mof_O 	O 	0.2315	0.5742	0.3051	-0.051
Mof_O 	O 	0.6265	0.5611	0.4105	-0.136
Mof_O 	O 	0.5502	0.6575	0.5083	-0.145
Mof_O 	O 	0.6594	0.6866	0.6498	-0.13
Mof_O 	O 	0.8804	0.6674	0.802	-0.09
Mof_O 	O 	0.715	0.4877	0.79	-0.15
Mof_O 	O 	0.8255	0.5031	0.6215	-0.138
Mof_C 	C 	0.3194	0.5376	0.4913	-0.869
Mof_O 	O 	0.2991	0.5094	0.5111	0.175
Mof_C 	C 	0.3443	0.6117	0.5673	0.626
Mof_H 	H 	0.3489	0.5972	0.6141	1.752
Mof_C 	C 	0.399	0.6344	0.5497	-1.062
Mof_H 	H 	0.4528	0.6358	0.5806	0.332
Mof_C 	C 	0.3685	0.6556	0.4854	1.137
Mof_H 	H 	0.3957	0.6744	0.4624	-0.201
Mof_C 	C 	0.2907	0.6458	0.459	0.871
Mof_H 	H 	0.2526	0.6578	0.4156	-0.143
Mof_C 	C 	0.2763	0.6213	0.5085	-1.112
Mof_H 	H 	0.2249	0.6127	0.5072	0.8
Mof_C 	C 	0.4953	0.6358	0.2927	-0.103
Mof_H 	H 	0.5455	0.6473	0.2966	0.06
Mof_C 	C 	0.4378	0.6552	0.3091	-0.084
Mof_H 	H 	0.4399	0.6827	0.3275	0.065
Mof_C 	C 	0.3729	0.6311	0.288	-0.089
Mof_H 	H 	0.322	0.6384	0.2904	0.084
Mof_C 	C 	0.3917	0.5963	0.2591	-0.105
Mof_H 	H 	0.3562	0.5746	0.237	0.067
Mof_C 	C 	0.4689	0.5986	0.2608	-0.098
Mof_H 	H 	0.4963	0.5797	0.2383	0.059
Mof_C 	C 	0.7857	0.5947	0.5483	-0.109
Mof_H 	H 	0.7601	0.5701	0.5257	0.065
Mof_C 	C 	0.8618	0.5977	0.5961	-0.099
Mof_H 	H 	0.8981	0.5756	0.6125	0.042
Mof_C 	C 	0.8765	0.6363	0.6106	-0.106
Mof_H 	H 	0.9266	0.6472	0.6391	0.051
Mof_C 	C 	0.8117	0.6595	0.5735	-0.108
Mof_H 	H 	0.8095	0.6887	0.5691	0.064
Mof_C 	C 	0.7555	0.6325	0.5347	-0.098
Mof_H 	H 	0.7055	0.6395	0.4993	0.063
Mof_C 	C 	0.9405	0.5797	0.8131	-0.115
Mof_H 	H 	0.9617	0.6032	0.7952	0.049
Mof_C 	C 	0.8875	0.5409	0.8803	-0.121
Mof_H 	H 	0.8653	0.532	0.9191	0.057
Mof_C 	C 	0.9492	0.5404	0.7958	-0.104
Mof_H 	H 	0.9776	0.5314	0.7621	0.051
Mof_C 	C 	0.9185	0.5157	0.8371	-0.086
Mof_H 	H 	0.9226	0.4865	0.8404	0.058
Mof_C 	C 	0.9025	0.5789	0.8677	-0.09
Mof_H 	H 	0.8914	0.6021	0.8944	0.043
Mof_N 	N 	0.4854	0.4683	0.2968	-0.196
Mof_N 	N 	0.621	0.59491	0.92	-0.202
Mof_N 	N 	0.2168	0.8158	0.4135	-0.197
Mof_N 	N 	0.5591	0.6715	0.7813	-0.199
Mof_C 	C 	0.4436	0.471	0.2269	0.079
Mof_H 	H 	0.3927	0.4628	0.2135	-0.022
Mof_C 	C 	0.4717	0.4855	0.1732	-0.157
Mof_H 	H 	0.4401	0.4871	0.1236	0.085
Mof_C 	C 	0.5455	0.4979	0.1905	0.088
Mof_C 	C 	0.5892	0.4945	0.2635	-0.126
Mof_H 	H 	0.6407	0.5016	0.2783	0.08
Mof_C 	C 	0.5557	0.4803	0.3151	0.003
Mof_H 	H 	0.5851	0.4792	0.3655	0.068
Mof_C 	C 	0.5784	0.5151	0.1367	-0.075
Mof_H 	H 	0.6312	0.5137	0.1462	0.051
Mof_C 	C 	0.5372	0.5326	0.0751	-0.088
Mof_H 	H 	0.4842	0.5322	0.0644	0.06
Mof_C 	C 	0.5689	0.5529	0.0218	0.11
Mof_C 	C 	0.5223	0.5779	0.9707	-0.168
Mof_H 	H 	0.4714	0.5812	0.9689	0.083
Mof_C 	C 	0.551	0.5982	0.9222	0.092
Mof_H 	H 	0.5183	0.6155	0.8883	-0.017
Mof_C 	C 	0.6426	0.5488	0.0202	-0.164
Mof_H 	H 	0.6761	0.5315	0.0534	0.082
Mof_C 	C 	0.6663	0.5701	0.9699	0.085
Mof_H 	H 	0.7169	0.5673	0.9701	-0.017
Mof_C 	C 	0.1855	0.798	0.4584	0.1
Mof_H 	H 	0.1356	0.805	0.4553	-0.011
Mof_C 	C 	0.2208	0.7697	0.5099	-0.174
Mof_H 	H 	0.1938	0.7557	0.5367	0.084
Mof_C 	C 	0.2955	0.7625	0.5208	0.113
Mof_C 	C 	0.3287	0.78	0.4745	-0.171
Mof_H 	H 	0.3794	0.7744	0.4782	0.09
Mof_C 	C 	0.2875	0.8063	0.4218	0.092
Mof_H 	H 	0.3115	0.8182	0.3899	-0.002
Mof_C 	C 	0.3384	0.737	0.5823	-0.09
Mof_H 	H 	0.3135	0.7152	0.5954	0.053
Mof_C 	C 	0.4078	0.7429	0.6187	-0.087
Mof_H 	H 	0.43	0.7656	0.6056	0.061
Mof_C 	C 	0.4569	0.719	0.678	0.119
Mof_C 	C 	0.4377	0.6835	0.6994	-0.19
Mof_H 	H 	0.3879	0.674	0.6792	0.07
Mof_C 	C 	0.4909	0.661	0.7511	0.1
Mof_H 	H 	0.4755	0.6364	0.7648	-0.048
Mof_C 	C 	0.5314	0.7314	0.7126	-0.156
Mof_H 	H 	0.5479	0.7561	0.7004	0.088
Mof_C 	C 	0.5799	0.7079	0.7638	0.085
Mof_H 	H 	0.6293	0.717	0.7878	0.001
Mof_O 	O 	0.8586	0.6836	0.7754	-0.067
Mof_C 	C 	0.245	0.6098	0.5044	-0.415
Mof_H 	H 	0.2064	0.6296	0.4796	-0.088
Mof_C 	C 	0.2358	0.5686	0.4978	-0.805
Mof_H 	H 	0.1904	0.5546	0.466	0.288
Mof_C 	C 	0.2971	0.5509	0.5516	2.251
Mof_H 	H 	0.3029	0.5223	0.5633	-0.627
Mof_C 	C 	0.3443	0.5811	0.5915	-4.1
Mof_H 	H 	0.3881	0.5775	0.6369	0.766
Mof_C 	C 	0.3121	0.6175	0.5623	0.759
Mof_H 	H 	0.3282	0.6437	0.5849	-0.35
Mof_C 	C 	0.34	0.6456	0.437	-1.613
Mof_O 	O 	0.337	0.6755	0.424	0.21
Mof_Ag	Ag	0.92546	0.03664	0.88927	0.569
Mof_Ag	Ag	0.8384	0.13113	0.66235	0.585
Mof_Mo	Mo	0.14895	0.08764	0.03999	1.895
Mof_Mo	Mo	0.03188	0.09979	0.11779	0.755
Mof_Mo	Mo	0.71914	0.12273	0.84019	0.806
Mof_Mo	Mo	0.67854	0.05183	0.74013	0.783
Mof_P 	P 	0.02044	0.06311	0.00043	-0.253
Mof_P 	P 	0.08583	0.03676	0.09778	-0.212
Mof_P 	P 	0.80318	0.06945	0.83386	-0.206
Mof_P 	P 	0.77019	0.10233	0.73708	-0.22
Mof_C 	C 	0.2243	0.0782	0.1401	-0.264
Mof_C 	C 	0.9309	0.0741	0.0991	-0.106
Mof_C 	C 	0.9808	0.1365	0.0378	-0.123
Mof_C 	C 	0.7976	0.1623	0.8466	-0.131
Mof_C 	C 	0.6581	0.1522	0.7519	-0.142
Mof_C 	C 	0.7475	0.0109	0.722	-0.114
Mof_C 	C 	0.6775	0.0213	0.8299	-0.129
Mof_O 	O 	0.2685	0.0742	0.1949	-0.051
Mof_O 	O 	0.8735	0.0611	0.0895	-0.136
Mof_O 	O 	0.9498	0.1575	0.9917	-0.147
Mof_O 	O 	0.8406	0.1866	0.8502	-0.13
Mof_O 	O 	0.6196	0.1674	0.698	-0.09
Mof_O 	O 	0.785	0.9877	0.71	-0.15
Mof_O 	O 	0.6745	0.0031	0.8785	-0.138
Mof_C 	C 	0.1806	0.0376	0.0087	-0.87
Mof_O 	O 	0.2009	0.0094	0.9889	0.176
Mof_C 	C 	0.1557	0.1117	0.9327	0.622
Mof_H 	H 	0.1511	0.0972	0.8859	1.752
Mof_C 	C 	0.101	0.1344	0.9503	-1.055
Mof_H 	H 	0.0472	0.1358	0.9194	0.33
Mof_C 	C 	0.1315	0.1556	0.0146	1.126
Mof_H 	H 	0.1043	0.1744	0.0376	-0.198
Mof_C 	C 	0.2093	0.1458	0.041	0.864
Mof_H 	H 	0.2474	0.1578	0.0844	-0.141
Mof_C 	C 	0.2237	0.1213	0.9915	-1.106
Mof_H 	H 	0.2751	0.1127	0.9928	0.798
Mof_C 	C 	0.0047	0.1358	0.2073	-0.106
Mof_H 	H 	0.9545	0.1473	0.2034	0.061
Mof_C 	C 	0.0622	0.1552	0.1909	-0.083
Mof_H 	H 	0.0601	0.1827	0.1725	0.065
Mof_C 	C 	0.1271	0.1311	0.212	-0.089
Mof_H 	H 	0.178	0.1384	0.2096	0.084
Mof_C 	C 	0.1083	0.0963	0.2409	-0.105
Mof_H 	H 	0.1438	0.0746	0.263	0.067
Mof_C 	C 	0.0311	0.0986	0.2392	-0.097
Mof_H 	H 	0.0037	0.0797	0.2617	0.059
Mof_C 	C 	0.7143	0.0947	0.9517	-0.108
Mof_H 	H 	0.7399	0.0701	0.9743	0.065
Mof_C 	C 	0.6382	0.0977	0.9039	-0.1
Mof_H 	H 	0.6019	0.0756	0.8875	0.042
Mof_C 	C 	0.6235	0.1363	0.8894	-0.106
Mof_H 	H 	0.5734	0.1472	0.8609	0.051
Mof_C 	C 	0.6883	0.1595	0.9265	-0.107
Mof_H 	H 	0.6905	0.1887	0.9309	0.064
Mof_C 	C 	0.7445	0.1325	0.9653	-0.1
Mof_H 	H 	0.7945	0.1395	0.0007	0.064
Mof_C 	C 	0.5595	0.0797	0.6869	-0.115
Mof_H 	H 	0.5383	0.1032	0.7048	0.049
Mof_C 	C 	0.6125	0.0409	0.6197	-0.12
Mof_H 	H 	0.6347	0.032	0.5809	0.057
Mof_C 	C 	0.5508	0.0404	0.7042	-0.104
Mof_H 	H 	0.5224	0.0314	0.7379	0.051
Mof_C 	C 	0.5815	0.0157	0.6629	-0.086
Mof_H 	H 	0.5774	0.9865	0.6596	0.058
Mof_C 	C 	0.5975	0.0789	0.6323	-0.09
Mof_H 	H 	0.6086	0.1021	0.6056	0.043
Mof_N 	N 	0.0146	0.9683	0.2032	-0.197
Mof_N 	N 	0.879	0.09491	0.58	-0.202
Mof_N 	N 	0.2832	0.3158	0.0865	-0.197
Mof_N 	N 	0.9409	0.1715	0.7187	-0.2
Mof_C 	C 	0.0564	0.971	0.2731	0.08
Mof_H 	H 	0.1073	0.9628	0.2865	-0.022
Mof_C 	C 	0.0283	0.9855	0.3268	-0.159
Mof_H 	H 	0.0599	0.9871	0.3764	0.085
Mof_C 	C 	0.9545	0.9979	0.3095	0.089
Mof_C 	C 	0.9108	0.9945	0.2365	-0.127
Mof_H 	H 	0.8593	0.0016	0.2217	0.081
Mof_C 	C 	0.9443	0.9803	0.1849	0.005
Mof_H 	H 	0.9149	0.9792	0.1345	0.068
Mof_C 	C 	0.9216	0.0151	0.3633	-0.076
Mof_H 	H 	0.8688	0.0137	0.3538	0.051
Mof_C 	C 	0.9628	0.0326	0.4249	-0.087
Mof_H 	H 	0.0158	0.0322	0.4356	0.059
Mof_C 	C 	0.9311	0.0529	0.4782	0.11
Mof_C 	C 	0.9777	0.0779	0.5293	-0.167
Mof_H 	H 	0.0286	0.0812	0.5311	0.082
Mof_C 	C 	0.949	0.0982	0.5778	0.092
Mof_H 	H 	0.9817	0.1155	0.6117	-0.017
Mof_C 	C 	0.8574	0.0488	0.4798	-0.165
Mof_H 	H 	0.8239	0.0315	0.4466	0.082
Mof_C 	C 	0.8337	0.0701	0.5301	0.085
Mof_H 	H 	0.7831	0.0673	0.5299	-0.017
Mof_C 	C 	0.3145	0.298	0.0416	0.099
Mof_H 	H 	0.3644	0.305	0.0447	-0.01
Mof_C 	C 	0.2792	0.2697	0.9901	-0.173
Mof_H 	H 	0.3062	0.2557	0.9633	0.084
Mof_C 	C 	0.2045	0.2625	0.9792	0.115
Mof_C 	C 	0.1713	0.28	0.0255	-0.173
Mof_H 	H 	0.1206	0.2744	0.0218	0.09
Mof_C 	C 	0.2125	0.3063	0.0782	0.093
Mof_H 	H 	0.1885	0.3182	0.1101	-0.002
Mof_C 	C 	0.1616	0.237	0.9177	-0.09
Mof_H 	H 	0.1865	0.2152	0.9046	0.053
Mof_C 	C 	0.0922	0.2429	0.8813	-0.087
Mof_H 	H 	0.07	0.2656	0.8944	0.061
Mof_C 	C 	0.0431	0.219	0.822	0.121
Mof_C 	C 	0.0623	0.1835	0.8006	-0.191
Mof_H 	H 	0.1121	0.174	0.8208	0.07
Mof_C 	C 	0.0091	0.161	0.7489	0.102
Mof_H 	H 	0.0245	0.1364	0.7352	-0.049
Mof_C 	C 	0.9686	0.2314	0.7874	-0.158
Mof_H 	H 	0.9521	0.2561	0.7996	0.088
Mof_C 	C 	0.9201	0.2079	0.7362	0.086
Mof_H 	H 	0.8707	0.217	0.7122	0.001
Mof_O 	O 	0.6414	0.1836	0.7246	-0.067
Mof_C 	C 	0.255	0.1098	0.9956	-0.413
Mof_H 	H 	0.2936	0.1296	0.0204	-0.088
Mof_C 	C 	0.2642	0.0686	0.0022	-0.807
Mof_H 	H 	0.3096	0.0546	0.034	0.289
Mof_C 	C 	0.2029	0.0509	0.9484	2.252
Mof_H 	H 	0.1971	0.0223	0.9367	-0.627
Mof_C 	C 	0.1557	0.0811	0.9085	-4.096
Mof_H 	H 	0.1119	0.0775	0.8631	0.765
Mof_C 	C 	0.1879	0.1175	0.9377	0.758
Mof_H 	H 	0.1718	0.1437	0.9151	-0.349
Mof_C 	C 	0.16	0.1456	0.063	-1.602
Mof_O 	O 	0.163	0.1755	0.076	0.207
Mof_Ag	Ag	0.42546	0.46336	0.38927	0.569
Mof_Ag	Ag	0.3384	0.36887	0.16235	0.585
Mof_Mo	Mo	0.64895	0.41236	0.53999	1.899
Mof_Mo	Mo	0.53188	0.40021	0.61779	0.759
Mof_Mo	Mo	0.21914	0.37727	0.34019	0.806
Mof_Mo	Mo	0.17854	0.44817	0.24013	0.784
Mof_P 	P 	0.52044	0.43689	0.50043	-0.252
Mof_P 	P 	0.58583	0.46324	0.59778	-0.212
Mof_P 	P 	0.30318	0.43055	0.33386	-0.206
Mof_P 	P 	0.27019	0.39767	0.23708	-0.22
Mof_C 	C 	0.7243	0.4218	0.6401	-0.264
Mof_C 	C 	0.4309	0.4259	0.5991	-0.108
Mof_C 	C 	0.4808	0.3635	0.5378	-0.127
Mof_C 	C 	0.2976	0.3377	0.3466	-0.131
Mof_C 	C 	0.1581	0.3478	0.2519	-0.142
Mof_C 	C 	0.2475	0.4891	0.222	-0.114
Mof_C 	C 	0.1775	0.4787	0.3299	-0.129
Mof_O 	O 	0.7685	0.4258	0.6949	-0.051
Mof_O 	O 	0.3735	0.4389	0.5895	-0.136
Mof_O 	O 	0.4498	0.3425	0.4917	-0.145
Mof_O 	O 	0.3406	0.3134	0.3502	-0.13
Mof_O 	O 	0.1196	0.3326	0.198	-0.09
Mof_O 	O 	0.285	0.5123	0.21	-0.15
Mof_O 	O 	0.1745	0.4969	0.3785	-0.138
Mof_C 	C 	0.6806	0.4624	0.5087	-0.869
Mof_O 	O 	0.7009	0.4906	0.4889	0.175
Mof_C 	C 	0.6557	0.3883	0.4327	0.626
Mof_H 	H 	0.6511	0.4028	0.3859	1.752
Mof_C 	C 	0.601	0.3656	0.4503	-1.062
Mof_H 	H 	0.5472	0.3642	0.4194	0.332
Mof_C 	C 	0.6315	0.3444	0.5146	1.137
Mof_H 	H 	0.6043	0.3256	0.5376	-0.201
Mof_C 	C 	0.7093	0.3542	0.541	0.871
Mof_H 	H 	0.7474	0.3422	0.5844	-0.143
Mof_C 	C 	0.7237	0.3787	0.4915	-1.112
Mof_H 	H 	0.7751	0.3873	0.4928	0.8
Mof_C 	C 	0.5047	0.3642	0.7073	-0.103
Mof_H 	H 	0.4545	0.3527	0.7034	0.06
Mof_C 	C 	0.5622	0.3448	0.6909	-0.084
Mof_H 	H 	0.5601	0.3173	0.6725	0.065
Mof_C 	C 	0.6271	0.3689	0.712	-0.089
Mof_H 	H 	0.678	0.3616	0.7096	0.084
Mof_C 	C 	0.6083	0.4037	0.7409	-0.105
Mof_H 	H 	0.6438	0.4254	0.763	0.067
Mof_C 	C 	0.5311	0.4014	0.7392	-0.098
Mof_H 	H 	0.5037	0.4203	0.7617	0.059
Mof_C 	C 	0.2143	0.4053	0.4517	-0.109
Mof_H 	H 	0.2399	0.4299	0.4743	0.065
Mof_C 	C 	0.1382	0.4023	0.4039	-0.099
Mof_H 	H 	0.1019	0.4244	0.3875	0.042
Mof_C 	C 	0.1235	0.3637	0.3894	-0.106
Mof_H 	H 	0.0734	0.3528	0.3609	0.051
Mof_C 	C 	0.1883	0.3405	0.4265	-0.108
Mof_H 	H 	0.1905	0.3113	0.4309	0.064
Mof_C 	C 	0.2445	0.3675	0.4653	-0.098
Mof_H 	H 	0.2945	0.3605	0.5007	0.063
Mof_C 	C 	0.0595	0.4203	0.1869	-0.115
Mof_H 	H 	0.0383	0.3968	0.2048	0.049
Mof_C 	C 	0.1125	0.4591	0.1197	-0.121
Mof_H 	H 	0.1347	0.468	0.0809	0.057
Mof_C 	C 	0.0508	0.4596	0.2042	-0.104
Mof_H 	H 	0.0224	0.4686	0.2379	0.051
Mof_C 	C 	0.0815	0.4843	0.1629	-0.086
Mof_H 	H 	0.0774	0.5135	0.1596	0.058
Mof_C 	C 	0.0975	0.4211	0.1323	-0.09
Mof_H 	H 	0.1086	0.3979	0.1056	0.043
Mof_N 	N 	0.5146	0.5317	0.7032	-0.196
Mof_N 	N 	0.379	0.40509	0.08	-0.202
Mof_N 	N 	0.7832	0.1842	0.5865	-0.197
Mof_N 	N 	0.4409	0.3285	0.2187	-0.199
Mof_C 	C 	0.5564	0.529	0.7731	0.079
Mof_H 	H 	0.6073	0.5372	0.7865	-0.022
Mof_C 	C 	0.5283	0.5145	0.8268	-0.157
Mof_H 	H 	0.5599	0.5129	0.8764	0.085
Mof_C 	C 	0.4545	0.5021	0.8095	0.088
Mof_C 	C 	0.4108	0.5055	0.7365	-0.126
Mof_H 	H 	0.3593	0.4984	0.7217	0.08
Mof_C 	C 	0.4443	0.5197	0.6849	0.003
Mof_H 	H 	0.4149	0.5208	0.6345	0.068
Mof_C 	C 	0.4216	0.4849	0.8633	-0.075
Mof_H 	H 	0.3688	0.4863	0.8538	0.051
Mof_C 	C 	0.4628	0.4674	0.9249	-0.088
Mof_H 	H 	0.5158	0.4678	0.9356	0.06
Mof_C 	C 	0.4311	0.4471	0.9782	0.11
Mof_C 	C 	0.4777	0.4221	0.0293	-0.168
Mof_H 	H 	0.5286	0.4188	0.0311	0.083
Mof_C 	C 	0.449	0.4018	0.0778	0.092
Mof_H 	H 	0.4817	0.3845	0.1117	-0.017
Mof_C 	C 	0.3574	0.4512	0.9798	-0.164
Mof_H 	H 	0.3239	0.4685	0.9466	0.082
Mof_C 	C 	0.3337	0.4299	0.0301	0.085
Mof_H 	H 	0.2831	0.4327	0.0299	-0.017
Mof_C 	C 	0.8145	0.202	0.5416	0.1
Mof_H 	H 	0.8644	0.195	0.5447	-0.011
Mof_C 	C 	0.7792	0.2303	0.4901	-0.174
Mof_H 	H 	0.8062	0.2443	0.4633	0.084
Mof_C 	C 	0.7045	0.2375	0.4792	0.113
Mof_C 	C 	0.6713	0.22	0.5255	-0.171
Mof_H 	H 	0.6206	0.2256	0.5218	0.09
Mof_C 	C 	0.7125	0.1937	0.5782	0.092
Mof_H 	H 	0.6885	0.1818	0.6101	-0.002
Mof_C 	C 	0.6616	0.263	0.4177	-0.09
Mof_H 	H 	0.6865	0.2848	0.4046	0.053
Mof_C 	C 	0.5922	0.2571	0.3813	-0.087
Mof_H 	H 	0.57	0.2344	0.3944	0.061
Mof_C 	C 	0.5431	0.281	0.322	0.119
Mof_C 	C 	0.5623	0.3165	0.3006	-0.19
Mof_H 	H 	0.6121	0.326	0.3208	0.07
Mof_C 	C 	0.5091	0.339	0.2489	0.1
Mof_H 	H 	0.5245	0.3636	0.2352	-0.048
Mof_C 	C 	0.4686	0.2686	0.2874	-0.156
Mof_H 	H 	0.4521	0.2439	0.2996	0.088
Mof_C 	C 	0.4201	0.2921	0.2362	0.085
Mof_H 	H 	0.3707	0.283	0.2122	0.001
Mof_O 	O 	0.1414	0.3164	0.2246	-0.067
Mof_C 	C 	0.755	0.3902	0.4956	-0.415
Mof_H 	H 	0.7936	0.3704	0.5204	-0.088
Mof_C 	C 	0.7642	0.4314	0.5022	-0.805
Mof_H 	H 	0.8096	0.4454	0.534	0.288
Mof_C 	C 	0.7029	0.4491	0.4484	2.251
Mof_H 	H 	0.6971	0.4777	0.4367	-0.627
Mof_C 	C 	0.6557	0.4189	0.4085	-4.1
Mof_H 	H 	0.6119	0.4225	0.3631	0.766
Mof_C 	C 	0.6879	0.3825	0.4377	0.759
Mof_H 	H 	0.6718	0.3563	0.4151	-0.35
Mof_C 	C 	0.66	0.3544	0.563	-1.613
Mof_O 	O 	0.663	0.3245	0.576	0.21
Mof_Ag	Ag	0.07454	0.96336	0.11073	0.569
Mof_Ag	Ag	0.1616	0.86887	0.33765	0.585
Mof_Mo	Mo	0.85105	0.91236	0.96001	1.895
Mof_Mo	Mo	0.96812	0.90021	0.88221	0.755
Mof_Mo	Mo	0.28086	0.87727	0.15981	0.806
Mof_Mo	Mo	0.32146	0.94817	0.25987	0.783
Mof_P 	P 	0.97956	0.93689	0.99957	-0.253
Mof_P 	P 	0.91417	0.96324	0.90222	-0.212
Mof_P 	P 	0.19682	0.93055	0.16614	-0.206
Mof_P 	P 	0.22981	0.89767	0.26292	-0.22
Mof_C 	C 	0.7757	0.9218	0.8599	-0.264
Mof_C 	C 	0.0691	0.9259	0.9009	-0.106
Mof_C 	C 	0.0192	0.8635	0.9622	-0.123
Mof_C 	C 	0.2024	0.8377	0.1534	-0.131
Mof_C 	C 	0.3419	0.8478	0.2481	-0.142
Mof_C 	C 	0.2525	0.9891	0.278	-0.114
Mof_C 	C 	0.3225	0.9787	0.1701	-0.129
Mof_O 	O 	0.7315	0.9258	0.8051	-0.051
Mof_O 	O 	0.1265	0.9389	0.9105	-0.136
Mof_O 	O 	0.0502	0.8425	0.0083	-0.147
Mof_O 	O 	0.1594	0.8134	0.1498	-0.13
Mof_O 	O 	0.3804	0.8326	0.302	-0.09
Mof_O 	O 	0.215	0.0123	0.29	-0.15
Mof_O 	O 	0.3255	0.9969	0.1215	-0.138
Mof_C 	C 	0.8194	0.9624	0.9913	-0.87
Mof_O 	O 	0.7991	0.9906	0.0111	0.176
Mof_C 	C 	0.8443	0.8883	0.0673	0.622
Mof_H 	H 	0.8489	0.9028	0.1141	1.752
Mof_C 	C 	0.899	0.8656	0.0497	-1.055
Mof_H 	H 	0.9528	0.8642	0.0806	0.33
Mof_C 	C 	0.8685	0.8444	0.9854	1.126
Mof_H 	H 	0.8957	0.8256	0.9624	-0.198
Mof_C 	C 	0.7907	0.8542	0.959	0.864
Mof_H 	H 	0.7526	0.8422	0.9156	-0.141
Mof_C 	C 	0.7763	0.8787	0.0085	-1.106
Mof_H 	H 	0.7249	0.8873	0.0072	0.798
Mof_C 	C 	0.9953	0.8642	0.7927	-0.106
Mof_H 	H 	0.0455	0.8527	0.7966	0.061
Mof_C 	C 	0.9378	0.8448	0.8091	-0.083
Mof_H 	H 	0.9399	0.8173	0.8275	0.065
Mof_C 	C 	0.8729	0.8689	0.788	-0.089
Mof_H 	H 	0.822	0.8616	0.7904	0.084
Mof_C 	C 	0.8917	0.9037	0.7591	-0.105
Mof_H 	H 	0.8562	0.9254	0.737	0.067
Mof_C 	C 	0.9689	0.9014	0.7608	-0.097
Mof_H 	H 	0.9963	0.9203	0.7383	0.059
Mof_C 	C 	0.2857	0.9053	0.0483	-0.108
Mof_H 	H 	0.2601	0.9299	0.0257	0.065
Mof_C 	C 	0.3618	0.9023	0.0961	-0.1
Mof_H 	H 	0.3981	0.9244	0.1125	0.042
Mof_C 	C 	0.3765	0.8637	0.1106	-0.106
Mof_H 	H 	0.4266	0.8528	0.1391	0.051
Mof_C 	C 	0.3117	0.8405	0.0735	-0.107
Mof_H 	H 	0.3095	0.8113	0.0691	0.064
Mof_C 	C 	0.2555	0.8675	0.0347	-0.1
Mof_H 	H 	0.2055	0.8605	0.9993	0.064
Mof_C 	C 	0.4405	0.9203	0.3131	-0.115
Mof_H 	H 	0.4617	0.8968	0.2952	0.049
Mof_C 	C 	0.3875	0.9591	0.3803	-0.12
Mof_H 	H 	0.3653	0.968	0.4191	0.057
Mof_C 	C 	0.4492	0.9596	0.2958	-0.104
Mof_H 	H 	0.4776	0.9686	0.2621	0.051
Mof_C 	C 	0.4185	0.9843	0.3371	-0.086
Mof_H 	H 	0.4226	0.0135	0.3404	0.058
Mof_C 	C 	0.4025	0.9211	0.3677	-0.09
Mof_H 	H 	0.3914	0.8979	0.3944	0.043
Mof_N 	N 	0.9854	0.0317	0.7968	-0.197
Mof_N 	N 	0.121	0.90509	0.42	-0.202
Mof_N 	N 	0.7168	0.6842	0.9135	-0.197
Mof_N 	N 	0.0591	0.8285	0.2813	-0.2
Mof_C 	C 	0.9436	0.029	0.7269	0.08
Mof_H 	H 	0.8927	0.0372	0.7135	-0.022
Mof_C 	C 	0.9717	0.0145	0.6732	-0.159
Mof_H 	H 	0.9401	0.0129	0.6236	0.085
Mof_C 	C 	0.0455	0.0021	0.6905	0.089
Mof_C 	C 	0.0892	0.0055	0.7635	-0.127
Mof_H 	H 	0.1407	0.9984	0.7783	0.081
Mof_C 	C 	0.0557	0.0197	0.8151	0.005
Mof_H 	H 	0.0851	0.0208	0.8655	0.068
Mof_C 	C 	0.0784	0.9849	0.6367	-0.076
Mof_H 	H 	0.1312	0.9863	0.6462	0.051
Mof_C 	C 	0.0372	0.9674	0.5751	-0.087
Mof_H 	H 	0.9842	0.9678	0.5644	0.059
Mof_C 	C 	0.0689	0.9471	0.5218	0.11
Mof_C 	C 	0.0223	0.9221	0.4707	-0.167
Mof_H 	H 	0.9714	0.9188	0.4689	0.082
Mof_C 	C 	0.051	0.9018	0.4222	0.092
Mof_H 	H 	0.0183	0.8845	0.3883	-0.017
Mof_C 	C 	0.1426	0.9512	0.5202	-0.165
Mof_H 	H 	0.1761	0.9685	0.5534	0.082
Mof_C 	C 	0.1663	0.9299	0.4699	0.085
Mof_H 	H 	0.2169	0.9327	0.4701	-0.017
Mof_C 	C 	0.6855	0.702	0.9584	0.099
Mof_H 	H 	0.6356	0.695	0.9553	-0.01
Mof_C 	C 	0.7208	0.7303	0.0099	-0.173
Mof_H 	H 	0.6938	0.7443	0.0367	0.084
Mof_C 	C 	0.7955	0.7375	0.0208	0.115
Mof_C 	C 	0.8287	0.72	0.9745	-0.173
Mof_H 	H 	0.8794	0.7256	0.9782	0.09
Mof_C 	C 	0.7875	0.6937	0.9218	0.093
Mof_H 	H 	0.8115	0.6818	0.8899	-0.002
Mof_C 	C 	0.8384	0.763	0.0823	-0.09
Mof_H 	H 	0.8135	0.7848	0.0954	0.053
Mof_C 	C 	0.9078	0.7571	0.1187	-0.087
Mof_H 	H 	0.93	0.7344	0.1056	0.061
Mof_C 	C 	0.9569	0.781	0.178	0.121
Mof_C 	C 	0.9377	0.8165	0.1994	-0.191
Mof_H 	H 	0.8879	0.826	0.1792	0.07
Mof_C 	C 	0.9909	0.839	0.2511	0.102
Mof_H 	H 	0.9755	0.8636	0.2648	-0.049
Mof_C 	C 	0.0314	0.7686	0.2126	-0.158
Mof_H 	H 	0.0479	0.7439	0.2004	0.088
Mof_C 	C 	0.0799	0.7921	0.2638	0.086
Mof_H 	H 	0.1293	0.783	0.2878	0.001
Mof_O 	O 	0.3586	0.8164	0.2754	-0.067
Mof_C 	C 	0.745	0.8902	0.0044	-0.413
Mof_H 	H 	0.7064	0.8704	0.9796	-0.088
Mof_C 	C 	0.7358	0.9314	0.9978	-0.807
Mof_H 	H 	0.6904	0.9454	0.966	0.289
Mof_C 	C 	0.7971	0.9491	0.0516	2.252
Mof_H 	H 	0.8029	0.9777	0.0633	-0.627
Mof_C 	C 	0.8443	0.9189	0.0915	-4.096
Mof_H 	H 	0.8881	0.9225	0.1369	0.765
Mof_C 	C 	0.8121	0.8825	0.0623	0.758
Mof_H 	H 	0.8282	0.8563	0.0849	-0.349
Mof_C 	C 	0.84	0.8544	0.937	-1.602
Mof_O 	O 	0.837	0.8245	0.924	0.207
_end
