data_functionalizedCrystal
_audit_creation_method	'EQeq! by Chris Wilmer'
_symmetry_space_group_name_H-M	'P1'
_symmetry_Int_Tables_number	1
_symmetry_cell_setting	triclinic
loop_
_symmetry_equiv_pos_as_xyz
  x,y,z
_cell_length_a	10.9111
_cell_length_b	17.8204
_cell_length_c	16.8813
_cell_angle_alpha	89.762
_cell_angle_beta	90
_cell_angle_gamma	90
loop_
_atom_site_label
_atom_site_type_symbol
_atom_site_fract_x
_atom_site_fract_y
_atom_site_fract_z
_atom_site_charge
Mof_Sm	Sm	0.41117	0.83105	0.90837	2.214
Mof_Sm	Sm	0.58883	0.83105	0.40837	2.453
Mof_Sm	Sm	0.39357	0.82912	0.62427	2.424
Mof_Sm	Sm	0.04165	0.33276	0.97366	2.029
Mof_Sm	Sm	0.60643	0.82912	0.12427	2.434
Mof_Sm	Sm	0.95835	0.33276	0.47366	2.247
Mof_Sm	Sm	0.14039	0.32519	0.26074	2.423
Mof_Sm	Sm	0.85961	0.32519	0.76074	2.393
Mof_H 	H 	0.6063	0.0249	0.7145	0.046
Mof_H 	H 	0.5699	0.7873	0.7673	0.213
Mof_H 	H 	0.8354	0.1368	0.0546	0.005
Mof_H 	H 	0.5689	0.8744	0.7663	0.207
Mof_H 	H 	0.2657	0.0146	0.5743	0.028
Mof_H 	H 	0.2839	0.5111	0.3012	0.014
Mof_H 	H 	0.7731	0.6679	0.4771	-0.012
Mof_H 	H 	0.4301	0.7873	0.2673	0.218
Mof_H 	H 	0.2269	0.6679	0.9771	-0.134
Mof_H 	H 	0.1646	0.1368	0.5546	0.027
Mof_H 	H 	0.0928	0.5153	0.6547	0.04
Mof_H 	H 	0.3089	0.1512	0.2261	0.007
Mof_H 	H 	0.218	0.1648	0.9124	-0.022
Mof_H 	H 	0.4311	0.8744	0.2663	0.213
Mof_H 	H 	0.6911	0.1512	0.7261	0.003
Mof_H 	H 	0.8672	0.5438	0.4886	0.027
Mof_H 	H 	0.782	0.1648	0.4124	0.005
Mof_H 	H 	0.1328	0.5438	0.9886	-0.095
Mof_H 	H 	0.9072	0.5153	0.1547	0.058
Mof_H 	H 	0.6195	0.6359	0.8162	0.043
Mof_H 	H 	0.3461	0.0495	0.8907	0.022
Mof_H 	H 	0.8077	0.6364	0.1408	0.032
Mof_H 	H 	0.3937	0.0249	0.2145	0.047
Mof_H 	H 	0.1923	0.6364	0.6408	0.013
Mof_H 	H 	0.7343	0.0146	0.0743	0.001
Mof_H 	H 	0.6539	0.0495	0.3907	0.039
Mof_H 	H 	0.3805	0.6359	0.3162	0.032
Mof_H 	H 	0.7161	0.5111	0.8012	0.008
Mof_C 	C 	0.2694	0.0413	0.5269	-0.003
Mof_C 	C 	0.5885	0.7159	0.5827	0.52
Mof_C 	C 	0.6717	0.017	0.9653	-0.237
Mof_C 	C 	0.255	0.0336	0.7865	-0.119
Mof_C 	C 	0.2423	0.6345	0.7551	-0.177
Mof_C 	C 	0.745	0.0336	0.2865	-0.122
Mof_C 	C 	0.7679	0.1391	0.9427	-0.318
Mof_C 	C 	0.8553	0.4507	0.9267	0.491
Mof_C 	C 	0.2774	0.5406	0.3463	0.013
Mof_C 	C 	0.4115	0.7159	0.0827	0.531
Mof_C 	C 	0.3483	0.719	0.4574	0.505
Mof_C 	C 	0.397	0.9465	0.4528	0.442
Mof_C 	C 	0.7226	0.5406	0.8463	0.019
Mof_C 	C 	0.1884	0.5635	0.0247	0.165
Mof_C 	C 	0.3005	0.7088	0.7695	0.534
Mof_C 	C 	0.696	0.9557	0.2648	0.508
Mof_C 	C 	0.1905	0.6095	0.6881	0.03
Mof_C 	C 	0.3283	0.017	0.4653	-0.127
Mof_C 	C 	0.6995	0.7088	0.2695	0.544
Mof_C 	C 	0.1851	0.4514	0.1167	0.578
Mof_C 	C 	0.3098	0.6436	0.4276	-0.159
Mof_C 	C 	0.8551	0.5109	0.2695	-0.147
Mof_C 	C 	0.2337	0.1399	0.1148	-0.176
Mof_C 	C 	0.7838	0.1359	0.3667	0.014
Mof_C 	C 	0.2108	0.1125	0.5162	0.023
Mof_C 	C 	0.7863	0.5206	0.9121	-0.162
Mof_C 	C 	0.7892	0.1125	0.0162	0.154
Mof_C 	C 	0.304	0.9557	0.7648	0.493
Mof_C 	C 	0.1859	0.2116	0.4137	0.549
Mof_C 	C 	0.2137	0.5206	0.4121	-0.166
Mof_C 	C 	0.603	0.9465	0.9528	0.329
Mof_C 	C 	0.9023	0.4387	0.3	0.486
Mof_C 	C 	0.0645	0.2183	0.792	0.43
Mof_C 	C 	0.0977	0.4387	0.8	0.477
Mof_C 	C 	0.682	0.0119	0.6078	-0.123
Mof_C 	C 	0.298	0.1204	0.1823	0.034
Mof_C 	C 	0.3289	0.6489	0.074	-0.209
Mof_C 	C 	0.2872	0.0675	0.8556	-0.026
Mof_C 	C 	0.7744	0.5291	0.5905	-0.174
Mof_C 	C 	0.8095	0.6095	0.1881	0.036
Mof_C 	C 	0.8141	0.2116	0.9137	0.577
Mof_C 	C 	0.7306	0.0413	0.0269	0.112
Mof_C 	C 	0.702	0.1204	0.6823	0.031
Mof_C 	C 	0.1336	0.5394	0.6957	-0.012
Mof_C 	C 	0.7577	0.6345	0.2551	-0.179
Mof_C 	C 	0.2455	0.6342	0.0176	0.182
Mof_C 	C 	0.8664	0.5394	0.1957	-0.005
Mof_C 	C 	0.8259	0.2138	0.5976	0.552
Mof_C 	C 	0.1447	0.4507	0.4267	0.495
Mof_C 	C 	0.6517	0.719	0.9574	0.335
Mof_C 	C 	0.7128	0.0675	0.3556	-0.011
Mof_C 	C 	0.6711	0.6489	0.574	-0.177
Mof_C 	C 	0.8149	0.4514	0.6167	0.567
Mof_C 	C 	0.346	0.0471	0.1751	-0.009
Mof_C 	C 	0.8522	0.1522	0.3029	-0.146
Mof_C 	C 	0.1478	0.1522	0.8029	-0.149
Mof_C 	C 	0.8116	0.5635	0.5247	0.002
Mof_C 	C 	0.1741	0.2138	0.0976	0.543
Mof_C 	C 	0.2256	0.5291	0.0905	-0.216
Mof_C 	C 	0.1449	0.5109	0.7695	-0.145
Mof_C 	C 	0.6665	0.6128	0.8552	-0.037
Mof_C 	C 	0.6363	0.9382	0.5792	0.484
Mof_C 	C 	0.6902	0.6436	0.9276	-0.111
Mof_C 	C 	0.2321	0.1391	0.4427	-0.182
Mof_C 	C 	0.3637	0.9382	0.0792	0.479
Mof_C 	C 	0.654	0.0471	0.6751	-0.016
Mof_C 	C 	0.318	0.0119	0.1078	-0.121
Mof_C 	C 	0.2162	0.1359	0.8667	0.009
Mof_C 	C 	0.3335	0.6128	0.3552	0.002
Mof_C 	C 	0.9355	0.2183	0.292	0.441
Mof_C 	C 	0.7545	0.6342	0.5176	0.028
Mof_C 	C 	0.7663	0.1399	0.6148	-0.182
Mof_S 	S 	0.2294	0.06841	0.0493	0.152
Mof_S 	S 	0.8395	0.08532	0.23	0.078
Mof_S 	S 	0.78	0.58798	0.9846	-0.021
Mof_S 	S 	0.2271	0.56979	0.8294	0.043
Mof_S 	S 	0.6674	0.57816	0.6431	0.074
Mof_S 	S 	0.3326	0.57816	0.1431	0.112
Mof_S 	S 	0.6797	0.08123	0.8892	0.113
Mof_S 	S 	0.1605	0.08532	0.73	0.064
Mof_S 	S 	0.3203	0.08123	0.3892	0.09
Mof_S 	S 	0.7706	0.06841	0.5493	0.084
Mof_S 	S 	0.7729	0.56979	0.3294	0.071
Mof_S 	S 	0.22	0.58798	0.4846	0.076
Mof_O 	O 	0.9866	0.2284	0.2271	-0.508
Mof_O 	O 	0.95	0.2635	0.3497	-0.626
Mof_O 	O 	0.5986	0.8995	0.0071	-0.56
Mof_O 	O 	0.1309	0.4128	0.0679	-0.554
Mof_O 	O 	0.8691	0.4128	0.5679	-0.633
Mof_O 	O 	0.5486	0.9368	0.8868	-0.501
Mof_O 	O 	0.6716	0.9426	0.1949	-0.58
Mof_O 	O 	0.4672	0.7232	0.147	-0.534
Mof_O 	O 	0.2041	0.4327	0.1864	-0.601
Mof_O 	O 	0.2897	0.7563	0.7155	-0.637
Mof_O 	O 	0.35	0.7203	0.8356	-0.569
Mof_O 	O 	0.1303	0.2525	0.4627	-0.592
Mof_O 	O 	0.5328	0.7232	0.647	-0.537
Mof_O 	O 	0.1476	0.4004	0.3735	-0.673
Mof_O 	O 	0.5798	0.8997	0.6277	-0.581
Mof_O 	O 	0.8524	0.4004	0.8735	-0.667
Mof_O 	O 	0.8697	0.2525	0.9627	-0.617
Mof_O 	O 	0.1106	0.4253	0.8712	-0.532
Mof_O 	O 	0.7911	0.2273	0.8443	-0.633
Mof_O 	O 	0.4202	0.8997	0.1277	-0.571
Mof_O 	O 	0.3284	0.9426	0.6949	-0.582
Mof_O 	O 	0.7958	0.2648	0.646	-0.644
Mof_O 	O 	0.65	0.7203	0.3356	-0.582
Mof_O 	O 	0.9591	0.3975	0.2496	-0.561
Mof_O 	O 	0.0134	0.2284	0.7271	-0.508
Mof_O 	O 	0.4045	0.7602	0.4068	-0.57
Mof_O 	O 	0.1095	0.219	0.0408	-0.51
Mof_O 	O 	0.2042	0.2648	0.146	-0.624
Mof_O 	O 	0.2089	0.2273	0.3443	-0.623
Mof_O 	O 	0.4839	0.8306	0.2678	-0.671
Mof_O 	O 	0.415	0.761	0.029	-0.616
Mof_O 	O 	0.6743	0.7368	0.026	-0.449
Mof_O 	O 	0.7103	0.7563	0.2155	-0.638
Mof_O 	O 	0.7959	0.4327	0.6864	-0.605
Mof_O 	O 	0.8894	0.4253	0.3712	-0.541
Mof_O 	O 	0.4514	0.9368	0.3868	-0.531
Mof_O 	O 	0.5955	0.7602	0.9068	-0.533
Mof_O 	O 	0.585	0.761	0.529	-0.688
Mof_O 	O 	0.6915	0.9102	0.3212	-0.633
Mof_O 	O 	0.9096	0.4437	0.9896	-0.545
Mof_O 	O 	0.3257	0.7368	0.526	-0.575
Mof_O 	O 	0.3085	0.9102	0.8212	-0.618
Mof_O 	O 	0.5161	0.8306	0.7678	-0.654
Mof_O 	O 	0.4014	0.8995	0.5071	-0.677
Mof_O 	O 	0.0409	0.3975	0.7496	-0.562
Mof_O 	O 	0.3409	0.9215	0.009	-0.492
Mof_O 	O 	0.0904	0.4437	0.4896	-0.526
Mof_O 	O 	0.8905	0.219	0.5408	-0.593
Mof_O 	O 	0.05	0.2635	0.8497	-0.61
Mof_O 	O 	0.6591	0.9215	0.509	-0.572
_end
