data_functionalizedCrystal
_audit_creation_method	'EQeq! by Chris Wilmer'
_symmetry_space_group_name_H-M	'P1'
_symmetry_Int_Tables_number	1
_symmetry_cell_setting	triclinic
loop_
_symmetry_equiv_pos_as_xyz
  x,y,z
_cell_length_a	14.87
_cell_length_b	10.245
_cell_length_c	18.868
_cell_angle_alpha	90
_cell_angle_beta	99.5
_cell_angle_gamma	90
loop_
_atom_site_label
_atom_site_type_symbol
_atom_site_fract_x
_atom_site_fract_y
_atom_site_fract_z
_atom_site_charge
Mof_V 	V 	0.1593	0.1211	0.5894	1.703
Mof_V 	V 	0.7683	0.0599	0.7162	1.71
Mof_P 	P 	0.2864	0.3796	0.5742	0.471
Mof_P 	P 	0.6606	0.3375	0.67	0.541
Mof_O 	O 	0.1979	0.3043	0.5757	-0.557
Mof_O 	O 	0.2963	0.4231	0.499	-0.525
Mof_O 	O 	0.6708	0.4316	0.6084	-0.562
Mof_O 	O 	0.7352	0.2359	0.6737	-0.542
Mof_O 	O 	0.6597	0.4078	0.7407	-0.58
Mof_O 	O 	0.2897	0.5035	0.6195	-0.513
Mof_O 	O 	0.2067	0.1521	0.6895	-0.665
Mof_C 	C 	0.3824	0.2745	0.6085	-0.001
Mof_C 	C 	0.4713	0.3505	0.6247	-0.98
Mof_C 	C 	0.5527	0.2549	0.6469	-0.714
Mof_H 	H 	0.1671	0.1644	0.7243	-0.045
Mof_H 	H 	0.2632	0.1145	0.7124	-0.085
Mof_H 	H 	0.3882	0.2088	0.5732	-0.032
Mof_H 	H 	0.371	0.2335	0.6519	-0.018
Mof_H 	H 	0.4993	0.3744	0.6725	0.313
Mof_H 	H 	0.5166	0.3497	0.5938	0.322
Mof_H 	H 	0.0647	0.663	0.6445	0.176
Mof_H 	H 	0.9881	0.7698	0.6363	0.577
Mof_V 	V 	0.6593	0.6211	0.5894	1.704
Mof_V 	V 	0.2683	0.5599	0.7162	1.712
Mof_P 	P 	0.7864	0.8796	0.5742	0.473
Mof_P 	P 	0.1606	0.8375	0.67	0.542
Mof_O 	O 	0.6979	0.8043	0.5757	-0.556
Mof_O 	O 	0.7963	0.9231	0.499	-0.525
Mof_O 	O 	0.1708	0.9316	0.6084	-0.561
Mof_O 	O 	0.2352	0.7359	0.6737	-0.542
Mof_O 	O 	0.1597	0.9078	0.7407	-0.579
Mof_O 	O 	0.7897	0.0035	0.6195	-0.514
Mof_O 	O 	0.7067	0.6521	0.6895	-0.665
Mof_C 	C 	0.8824	0.7745	0.6085	-0.001
Mof_C 	C 	0.9713	0.8505	0.6247	-0.98
Mof_C 	C 	0.0527	0.7549	0.6469	-0.713
Mof_H 	H 	0.6671	0.6644	0.7243	-0.045
Mof_H 	H 	0.7632	0.6145	0.7124	-0.084
Mof_H 	H 	0.8882	0.7088	0.5732	-0.032
Mof_H 	H 	0.871	0.7335	0.6519	-0.018
Mof_H 	H 	0.9993	0.8744	0.6725	0.313
Mof_H 	H 	0.0166	0.8497	0.5938	0.322
Mof_H 	H 	0.5647	0.163	0.6445	0.176
Mof_H 	H 	0.4881	0.2698	0.6363	0.578
Mof_V 	V 	0.8407	0.1211	0.9106	1.703
Mof_V 	V 	0.2317	0.0599	0.7838	1.711
Mof_P 	P 	0.7136	0.3796	0.9258	0.471
Mof_P 	P 	0.3394	0.3375	0.83	0.542
Mof_O 	O 	0.8021	0.3043	0.9243	-0.557
Mof_O 	O 	0.7037	0.4231	0.001	-0.525
Mof_O 	O 	0.3292	0.4316	0.8916	-0.562
Mof_O 	O 	0.2648	0.2359	0.8263	-0.542
Mof_O 	O 	0.3403	0.4078	0.7593	-0.58
Mof_O 	O 	0.7103	0.5035	0.8805	-0.513
Mof_O 	O 	0.7933	0.1521	0.8105	-0.665
Mof_C 	C 	0.6176	0.2745	0.8915	-0
Mof_C 	C 	0.5287	0.3505	0.8753	-0.981
Mof_C 	C 	0.4473	0.2549	0.8531	-0.714
Mof_H 	H 	0.8329	0.1644	0.7757	-0.045
Mof_H 	H 	0.7368	0.1145	0.7876	-0.085
Mof_H 	H 	0.6118	0.2088	0.9268	-0.033
Mof_H 	H 	0.629	0.2335	0.8481	-0.019
Mof_H 	H 	0.5007	0.3744	0.8275	0.313
Mof_H 	H 	0.4834	0.3497	0.9062	0.321
Mof_H 	H 	0.9353	0.663	0.8555	0.176
Mof_H 	H 	0.0119	0.7698	0.8637	0.575
Mof_V 	V 	0.3407	0.6211	0.9106	1.704
Mof_V 	V 	0.7317	0.5599	0.7838	1.712
Mof_P 	P 	0.2136	0.8796	0.9258	0.479
Mof_P 	P 	0.8394	0.8375	0.83	0.542
Mof_O 	O 	0.3021	0.8043	0.9243	-0.556
Mof_O 	O 	0.2037	0.9231	0.001	-0.53
Mof_O 	O 	0.8292	0.9316	0.8916	-0.56
Mof_O 	O 	0.7648	0.7359	0.8263	-0.542
Mof_O 	O 	0.8403	0.9078	0.7593	-0.579
Mof_O 	O 	0.2103	0.0035	0.8805	-0.517
Mof_O 	O 	0.2933	0.6521	0.8105	-0.665
Mof_C 	C 	0.1176	0.7745	0.8915	-0.006
Mof_C 	C 	0.0287	0.8505	0.8753	-0.97
Mof_C 	C 	0.9473	0.7549	0.8531	-0.712
Mof_H 	H 	0.3329	0.6644	0.7757	-0.045
Mof_H 	H 	0.2368	0.6145	0.7876	-0.084
Mof_H 	H 	0.1118	0.7088	0.9268	-0.03
Mof_H 	H 	0.129	0.7335	0.8481	-0.016
Mof_H 	H 	0.0007	0.8744	0.8275	0.31
Mof_H 	H 	0.9834	0.8497	0.9062	0.319
Mof_H 	H 	0.4353	0.163	0.8555	0.176
Mof_H 	H 	0.5119	0.2698	0.8637	0.578
Mof_V 	V 	0.8407	0.8789	0.4106	1.704
Mof_V 	V 	0.2317	0.9401	0.2838	1.711
Mof_P 	P 	0.7136	0.6204	0.4258	0.472
Mof_P 	P 	0.3394	0.6625	0.33	0.542
Mof_O 	O 	0.8021	0.6957	0.4243	-0.557
Mof_O 	O 	0.7037	0.5769	0.501	-0.525
Mof_O 	O 	0.3292	0.5684	0.3916	-0.562
Mof_O 	O 	0.2648	0.7641	0.3263	-0.542
Mof_O 	O 	0.3403	0.5922	0.2593	-0.58
Mof_O 	O 	0.7103	0.4965	0.3805	-0.513
Mof_O 	O 	0.7933	0.8479	0.3105	-0.665
Mof_C 	C 	0.6176	0.7255	0.3915	-0.001
Mof_C 	C 	0.5287	0.6495	0.3753	-0.98
Mof_C 	C 	0.4473	0.7451	0.3531	-0.714
Mof_H 	H 	0.8329	0.8356	0.2757	-0.045
Mof_H 	H 	0.7368	0.8855	0.2876	-0.085
Mof_H 	H 	0.6118	0.7912	0.4268	-0.032
Mof_H 	H 	0.629	0.7665	0.3481	-0.018
Mof_H 	H 	0.5007	0.6256	0.3275	0.313
Mof_H 	H 	0.4834	0.6503	0.4062	0.322
Mof_H 	H 	0.9353	0.337	0.3555	0.176
Mof_H 	H 	0.0119	0.2302	0.3637	0.577
Mof_V 	V 	0.3407	0.3789	0.4106	1.704
Mof_V 	V 	0.7317	0.4401	0.2838	1.712
Mof_P 	P 	0.2136	0.1204	0.4258	0.473
Mof_P 	P 	0.8394	0.1625	0.33	0.542
Mof_O 	O 	0.3021	0.1957	0.4243	-0.556
Mof_O 	O 	0.2037	0.0769	0.501	-0.525
Mof_O 	O 	0.8292	0.0684	0.3916	-0.561
Mof_O 	O 	0.7648	0.2641	0.3263	-0.542
Mof_O 	O 	0.8403	0.0922	0.2593	-0.579
Mof_O 	O 	0.2103	0.9965	0.3805	-0.514
Mof_O 	O 	0.2933	0.3479	0.3105	-0.665
Mof_C 	C 	0.1176	0.2255	0.3915	-0.001
Mof_C 	C 	0.0287	0.1495	0.3753	-0.98
Mof_C 	C 	0.9473	0.2451	0.3531	-0.713
Mof_H 	H 	0.3329	0.3356	0.2757	-0.045
Mof_H 	H 	0.2368	0.3855	0.2876	-0.084
Mof_H 	H 	0.1118	0.2912	0.4268	-0.032
Mof_H 	H 	0.129	0.2665	0.3481	-0.018
Mof_H 	H 	0.0007	0.1256	0.3275	0.313
Mof_H 	H 	0.9834	0.1503	0.4062	0.322
Mof_H 	H 	0.4353	0.837	0.3555	0.176
Mof_H 	H 	0.5119	0.7302	0.3637	0.578
Mof_V 	V 	0.1593	0.8789	0.0894	1.703
Mof_V 	V 	0.7683	0.9401	0.2162	1.711
Mof_P 	P 	0.2864	0.6204	0.0742	0.471
Mof_P 	P 	0.6606	0.6625	0.17	0.542
Mof_O 	O 	0.1979	0.6957	0.0757	-0.557
Mof_O 	O 	0.2963	0.5769	0.999	-0.525
Mof_O 	O 	0.6708	0.5684	0.1084	-0.562
Mof_O 	O 	0.7352	0.7641	0.1737	-0.542
Mof_O 	O 	0.6597	0.5922	0.2407	-0.58
Mof_O 	O 	0.2897	0.4965	0.1195	-0.513
Mof_O 	O 	0.2067	0.8479	0.1895	-0.665
Mof_C 	C 	0.3824	0.7255	0.1085	-0
Mof_C 	C 	0.4713	0.6495	0.1247	-0.981
Mof_C 	C 	0.5527	0.7451	0.1469	-0.714
Mof_H 	H 	0.1671	0.8356	0.2243	-0.045
Mof_H 	H 	0.2632	0.8855	0.2124	-0.085
Mof_H 	H 	0.3882	0.7912	0.0732	-0.033
Mof_H 	H 	0.371	0.7665	0.1519	-0.019
Mof_H 	H 	0.4993	0.6256	0.1725	0.313
Mof_H 	H 	0.5166	0.6503	0.0938	0.321
Mof_H 	H 	0.0647	0.337	0.1445	0.176
Mof_H 	H 	0.9881	0.2302	0.1363	0.575
Mof_V 	V 	0.6593	0.3789	0.0894	1.704
Mof_V 	V 	0.2683	0.4401	0.2162	1.712
Mof_P 	P 	0.7864	0.1204	0.0742	0.479
Mof_P 	P 	0.1606	0.1625	0.17	0.542
Mof_O 	O 	0.6979	0.1957	0.0757	-0.556
Mof_O 	O 	0.7963	0.0769	0.999	-0.53
Mof_O 	O 	0.1708	0.0684	0.1084	-0.56
Mof_O 	O 	0.2352	0.2641	0.1737	-0.542
Mof_O 	O 	0.1597	0.0922	0.2407	-0.579
Mof_O 	O 	0.7897	0.9965	0.1195	-0.517
Mof_O 	O 	0.7067	0.3479	0.1895	-0.665
Mof_C 	C 	0.8824	0.2255	0.1085	-0.006
Mof_C 	C 	0.9713	0.1495	0.1247	-0.97
Mof_C 	C 	0.0527	0.2451	0.1469	-0.712
Mof_H 	H 	0.6671	0.3356	0.2243	-0.045
Mof_H 	H 	0.7632	0.3855	0.2124	-0.084
Mof_H 	H 	0.8882	0.2912	0.0732	-0.03
Mof_H 	H 	0.871	0.2665	0.1519	-0.016
Mof_H 	H 	0.9993	0.1256	0.1725	0.31
Mof_H 	H 	0.0166	0.1503	0.0938	0.319
Mof_H 	H 	0.5647	0.837	0.1445	0.176
Mof_H 	H 	0.4881	0.7302	0.1363	0.578
_end
