data_functionalizedCrystal
_audit_creation_method	'EQeq! by Chris Wilmer'
_symmetry_space_group_name_H-M	'P1'
_symmetry_Int_Tables_number	1
_symmetry_cell_setting	triclinic
loop_
_symmetry_equiv_pos_as_xyz
  x,y,z
_cell_length_a	11.7766
_cell_length_b	16.8551
_cell_length_c	16.8551
_cell_angle_alpha	65.2514
_cell_angle_beta	76.5322
_cell_angle_gamma	103.468
loop_
_atom_site_label
_atom_site_type_symbol
_atom_site_fract_x
_atom_site_fract_y
_atom_site_fract_z
_atom_site_charge
Mof_Ag	Ag	0.12586	0.34335	0.54531	0.63
Mof_Ag	Ag	0.67117	0.54531	0.11134	0.628
Mof_Ag	Ag	0.78251	0.11134	0.34335	0.629
Mof_Ag	Ag	0.87414	0.65665	0.45469	0.63
Mof_Ag	Ag	0.32883	0.45469	0.88866	0.628
Mof_Ag	Ag	0.21749	0.88866	0.65665	0.629
Mof_H 	H 	0.9858	0.386	0.3965	0.033
Mof_H 	H 	0.828	0.0661	0.5416	0.069
Mof_H 	H 	0.0123	0.9787	0.6606	0.051
Mof_H 	H 	0.3486	0.251	0.5279	0.044
Mof_H 	H 	0.9304	0.1524	0.6786	0.096
Mof_H 	H 	0.8743	0.0571	0.6769	0.123
Mof_H 	H 	0.3805	0.108	0.5628	0.027
Mof_H 	H 	0.8932	0.3127	0.3289	0.047
Mof_H 	H 	0.3823	0.3965	0.2175	0.033
Mof_H 	H 	0.3696	0.5416	0.3923	0.068
Mof_H 	H 	0.6729	0.6606	0.3607	0.054
Mof_H 	H 	0.8765	0.5279	0.2211	0.044
Mof_H 	H 	0.609	0.6786	0.169	0.095
Mof_H 	H 	0.5512	0.6769	0.266	0.123
Mof_H 	H 	0.9433	0.5628	0.3292	0.027
Mof_H 	H 	0.2221	0.3289	0.3584	0.047
Mof_H 	H 	0.5998	0.2175	0.386	0.033
Mof_H 	H 	0.7619	0.3923	0.0661	0.067
Mof_H 	H 	0.0336	0.3607	0.9787	0.048
Mof_H 	H 	0.0976	0.2211	0.251	0.044
Mof_H 	H 	0.778	0.169	0.1524	0.094
Mof_H 	H 	0.8172	0.266	0.0571	0.121
Mof_H 	H 	0.2725	0.3292	0.108	0.027
Mof_H 	H 	0.5805	0.3584	0.3127	0.047
Mof_H 	H 	0.0142	0.614	0.6035	0.032
Mof_H 	H 	0.172	0.9339	0.4584	0.068
Mof_H 	H 	0.9877	0.0213	0.3394	0.051
Mof_H 	H 	0.6514	0.749	0.4721	0.044
Mof_H 	H 	0.0696	0.8476	0.3214	0.096
Mof_H 	H 	0.1257	0.9429	0.3231	0.123
Mof_H 	H 	0.6195	0.892	0.4372	0.027
Mof_H 	H 	0.1068	0.6873	0.6711	0.047
Mof_H 	H 	0.6177	0.6035	0.7825	0.033
Mof_H 	H 	0.6304	0.4584	0.6077	0.068
Mof_H 	H 	0.3271	0.3394	0.6393	0.054
Mof_H 	H 	0.1235	0.4721	0.7789	0.044
Mof_H 	H 	0.391	0.3214	0.831	0.095
Mof_H 	H 	0.4488	0.3231	0.734	0.123
Mof_H 	H 	0.0567	0.4372	0.6708	0.027
Mof_H 	H 	0.7779	0.6711	0.6416	0.047
Mof_H 	H 	0.4002	0.7825	0.614	0.033
Mof_H 	H 	0.2381	0.6077	0.9339	0.067
Mof_H 	H 	0.9664	0.6393	0.0213	0.048
Mof_H 	H 	0.9024	0.7789	0.749	0.044
Mof_H 	H 	0.222	0.831	0.8476	0.094
Mof_H 	H 	0.1828	0.734	0.9429	0.121
Mof_H 	H 	0.7275	0.6708	0.892	0.027
Mof_H 	H 	0.4195	0.6416	0.6873	0.047
Mof_C 	C 	0.9553	0.3192	0.4272	0.03
Mof_C 	C 	0.8627	0.133	0.5101	-0.056
Mof_C 	C 	0.0723	0.1157	0.6182	0.138
Mof_C 	C 	0.0848	0.0335	0.6362	-0.052
Mof_C 	C 	0.2775	0.194	0.5579	0.025
Mof_C 	C 	0.9223	0.1758	0.5511	0.143
Mof_C 	C 	0.9397	0.1215	0.6402	-0.285
Mof_C 	C 	0.2978	0.1083	0.5784	0.012
Mof_C 	C 	0.8991	0.2755	0.3874	0.01
Mof_C 	C 	0.3825	0.4272	0.2536	0.03
Mof_C 	C 	0.3728	0.5101	0.3569	-0.055
Mof_C 	C 	0.6905	0.6182	0.2661	0.139
Mof_C 	C 	0.721	0.6362	0.3303	-0.055
Mof_C 	C 	0.8354	0.5579	0.2481	0.025
Mof_C 	C 	0.4734	0.5511	0.2731	0.143
Mof_C 	C 	0.5799	0.6402	0.2383	-0.286
Mof_C 	C 	0.8762	0.5784	0.3133	0.012
Mof_C 	C 	0.2865	0.3874	0.3371	0.01
Mof_C 	C 	0.6361	0.2536	0.3192	0.03
Mof_C 	C 	0.7297	0.3569	0.133	-0.055
Mof_C 	C 	0.9566	0.2661	0.1157	0.13
Mof_C 	C 	0.0513	0.3303	0.0335	-0.042
Mof_C 	C 	0.0835	0.2481	0.194	0.028
Mof_C 	C 	0.7465	0.2731	0.1758	0.141
Mof_C 	C 	0.8182	0.2383	0.1215	-0.281
Mof_C 	C 	0.1895	0.3133	0.1083	0.012
Mof_C 	C 	0.6236	0.3371	0.2755	0.01
Mof_C 	C 	0.0447	0.6808	0.5728	0.03
Mof_C 	C 	0.1373	0.867	0.4899	-0.056
Mof_C 	C 	0.9277	0.8843	0.3818	0.138
Mof_C 	C 	0.9152	0.9665	0.3638	-0.052
Mof_C 	C 	0.7225	0.806	0.4421	0.025
Mof_C 	C 	0.0777	0.8242	0.4489	0.143
Mof_C 	C 	0.0603	0.8785	0.3598	-0.285
Mof_C 	C 	0.7022	0.8917	0.4216	0.012
Mof_C 	C 	0.1009	0.7245	0.6126	0.01
Mof_C 	C 	0.6175	0.5728	0.7464	0.03
Mof_C 	C 	0.6272	0.4899	0.6431	-0.055
Mof_C 	C 	0.3095	0.3818	0.7339	0.139
Mof_C 	C 	0.279	0.3638	0.6697	-0.055
Mof_C 	C 	0.1646	0.4421	0.7519	0.025
Mof_C 	C 	0.5266	0.4489	0.7269	0.143
Mof_C 	C 	0.4201	0.3598	0.7617	-0.286
Mof_C 	C 	0.1238	0.4216	0.6867	0.012
Mof_C 	C 	0.7135	0.6126	0.6629	0.01
Mof_C 	C 	0.3639	0.7464	0.6808	0.03
Mof_C 	C 	0.2703	0.6431	0.867	-0.055
Mof_C 	C 	0.0434	0.7339	0.8843	0.13
Mof_C 	C 	0.9487	0.6697	0.9665	-0.042
Mof_C 	C 	0.9165	0.7519	0.806	0.028
Mof_C 	C 	0.2535	0.7269	0.8242	0.141
Mof_C 	C 	0.1818	0.7617	0.8785	-0.281
Mof_C 	C 	0.8105	0.6867	0.8917	0.012
Mof_C 	C 	0.3764	0.6629	0.7245	0.01
Mof_N 	N 	0.9695	0.2716	0.5089	-0.185
Mof_N 	N 	0.1648	0.197	0.5789	-0.176
Mof_N 	N 	0.8517	0.1815	0.4275	-0.143
Mof_N 	N 	0.1965	0.0283	0.6202	-0.157
Mof_N 	N 	0.4784	0.5089	0.2195	-0.185
Mof_N 	N 	0.7437	0.5789	0.2241	-0.177
Mof_N 	N 	0.2792	0.4275	0.391	-0.142
Mof_N 	N 	0.8167	0.6202	0.3515	-0.157
Mof_N 	N 	0.6979	0.2195	0.2716	-0.185
Mof_N 	N 	0.9678	0.2241	0.197	-0.177
Mof_N 	N 	0.6702	0.391	0.1815	-0.143
Mof_N 	N 	0.1682	0.3515	0.0283	-0.158
Mof_N 	N 	0.0305	0.7284	0.4911	-0.185
Mof_N 	N 	0.8352	0.803	0.4211	-0.176
Mof_N 	N 	0.1483	0.8185	0.5725	-0.143
Mof_N 	N 	0.8035	0.9717	0.3798	-0.157
Mof_N 	N 	0.5216	0.4911	0.7805	-0.185
Mof_N 	N 	0.2563	0.4211	0.7759	-0.177
Mof_N 	N 	0.7208	0.5725	0.609	-0.142
Mof_N 	N 	0.1833	0.3798	0.6485	-0.157
Mof_N 	N 	0.3021	0.7805	0.7284	-0.185
Mof_N 	N 	0.0322	0.7759	0.803	-0.177
Mof_N 	N 	0.3298	0.609	0.8185	-0.143
Mof_N 	N 	0.8318	0.6485	0.9717	-0.158
Mof_Cl	Cl	0.38906	0.66668	0.4846	-0.21
Mof_O 	O 	0.4623	0.6921	0.3956	-0.054
Mof_O 	O 	0.391	0.7451	0.4933	-0.047
Mof_O 	O 	0.4329	0.6099	0.5519	-0.051
Mof_O 	O 	0.2633	0.6094	0.5007	-0.061
Mof_Cl	Cl	0.87366	0.4846	0.84872	-0.211
Mof_O 	O 	0.8579	0.3956	0.9123	-0.052
Mof_O 	O 	0.8843	0.4933	0.7616	-0.046
Mof_O 	O 	0.9848	0.5519	0.8382	-0.049
Mof_O 	O 	0.764	0.5007	0.8899	-0.061
Mof_Cl	Cl	0.72238	0.84872	0.66668	-0.21
Mof_O 	O 	0.7702	0.9123	0.6921	-0.053
Mof_O 	O 	0.6459	0.7616	0.7451	-0.047
Mof_O 	O 	0.823	0.8382	0.6099	-0.051
Mof_O 	O 	0.6539	0.8899	0.6094	-0.061
Mof_Cl	Cl	0.61094	0.33332	0.5154	-0.21
Mof_O 	O 	0.5377	0.3079	0.6044	-0.054
Mof_O 	O 	0.609	0.2549	0.5067	-0.047
Mof_O 	O 	0.5671	0.3901	0.4481	-0.051
Mof_O 	O 	0.7367	0.3906	0.4993	-0.061
Mof_Cl	Cl	0.12634	0.5154	0.15128	-0.211
Mof_O 	O 	0.1421	0.6044	0.0877	-0.052
Mof_O 	O 	0.1157	0.5067	0.2384	-0.046
Mof_O 	O 	0.0152	0.4481	0.1618	-0.049
Mof_O 	O 	0.236	0.4993	0.1101	-0.061
Mof_Cl	Cl	0.27762	0.15128	0.33332	-0.21
Mof_O 	O 	0.2298	0.0877	0.3079	-0.053
Mof_O 	O 	0.3541	0.2384	0.2549	-0.047
Mof_O 	O 	0.177	0.1618	0.3901	-0.051
Mof_O 	O 	0.3461	0.1101	0.3906	-0.061
_end
