data_functionalizedCrystal
_audit_creation_method	'EQeq! by Chris Wilmer'
_symmetry_space_group_name_H-M	'P1'
_symmetry_Int_Tables_number	1
_symmetry_cell_setting	triclinic
loop_
_symmetry_equiv_pos_as_xyz
  x,y,z
_cell_length_a	7.741
_cell_length_b	15.5967
_cell_length_c	15.5967
_cell_angle_alpha	62.681
_cell_angle_beta	80.4772
_cell_angle_gamma	99.5228
loop_
_atom_site_label
_atom_site_type_symbol
_atom_site_fract_x
_atom_site_fract_y
_atom_site_fract_z
_atom_site_charge
Mof_Cu	Cu	0.5	0	0.5	0.927
Mof_H 	H 	0.138	0.9562	0.3213	0.385
Mof_H 	H 	0.2212	0.8801	0.3007	0.354
Mof_H 	H 	0.3176	0.9956	0.235	0.369
Mof_H 	H 	0.3919	0.8006	0.3973	0.221
Mof_H 	H 	0.8599	0.816	0.5198	0.089
Mof_H 	H 	0.0161	0.7014	0.5315	-0.019
Mof_H 	H 	0.6437	0.5593	0.4692	0.018
Mof_H 	H 	0.473	0.6678	0.4571	0.067
Mof_H 	H 	0.862	0.0438	0.6787	0.314
Mof_H 	H 	0.7788	0.1199	0.6993	0.304
Mof_H 	H 	0.6824	0.0044	0.765	0.285
Mof_H 	H 	0.6081	0.1994	0.6027	0.195
Mof_H 	H 	0.1401	0.184	0.4802	0.043
Mof_H 	H 	0.9839	0.2986	0.4685	0.065
Mof_H 	H 	0.3563	0.4407	0.5308	0.021
Mof_H 	H 	0.527	0.3322	0.5429	0.062
Mof_C 	C 	0.2492	0.9423	0.3011	-1.186
Mof_C 	C 	0.3599	0.93379	0.37389	0.685
Mof_C 	C 	0.43063	0.85091	0.41182	-0.584
Mof_C 	C 	0.55406	0.83754	0.46916	0.343
Mof_C 	C 	0.64822	0.7575	0.48404	-0.037
Mof_C 	C 	0.81315	0.76452	0.50837	-0.107
Mof_C 	C 	0.9062	0.6951	0.5153	0.107
Mof_C 	C 	0.6882	0.61215	0.47915	0.044
Mof_C 	C 	0.5845	0.67733	0.47113	-0.092
Mof_C 	C 	0.7508	0.0577	0.6989	-0.984
Mof_C 	C 	0.6401	0.06621	0.62611	0.492
Mof_C 	C 	0.56937	0.14909	0.58818	-0.501
Mof_C 	C 	0.44594	0.16246	0.53084	0.312
Mof_C 	C 	0.35178	0.2425	0.51596	-0.064
Mof_C 	C 	0.18685	0.23548	0.49163	-0.036
Mof_C 	C 	0.0938	0.3049	0.4847	-0.031
Mof_C 	C 	0.3118	0.38785	0.52085	0.029
Mof_C 	C 	0.4155	0.32267	0.52887	-0.074
Mof_N 	N 	0.84831	0.61929	0.50006	-0.173
Mof_N 	N 	0.15169	0.38071	0.49994	-0.159
Mof_O 	O 	0.38194	0.00248	0.39536	-0.534
Mof_O 	O 	0.60265	0.89139	0.50654	-0.369
Mof_O 	O 	0.61806	0.99752	0.60464	-0.391
Mof_O 	O 	0.39735	0.10861	0.49346	-0.39
Mof_Cu	Cu	3.58377e-17	0.5	0.5	0.936
Mof_H 	H 	0.4593	0.3213	0.7225	0.343
Mof_H 	H 	0.5219	0.3007	0.8192	0.329
Mof_H 	H 	0.5526	0.235	0.7694	0.323
Mof_H 	H 	0.7892	0.3973	0.8021	0.196
Mof_H 	H 	0.3797	0.5198	0.6642	0.077
Mof_H 	H 	0.5476	0.5315	0.7671	0.019
Mof_H 	H 	0.1129	0.4692	0.9715	0.017
Mof_H 	H 	0.9301	0.4571	0.8751	0.122
Mof_H 	H 	0.5407	0.6787	0.2775	0.357
Mof_H 	H 	0.4781	0.6993	0.1808	0.33
Mof_H 	H 	0.4474	0.765	0.2306	0.331
Mof_H 	H 	0.2108	0.6027	0.1979	0.221
Mof_H 	H 	0.6203	0.4802	0.3358	0.055
Mof_H 	H 	0.4524	0.4685	0.2329	0.029
Mof_H 	H 	0.8871	0.5308	0.0285	0.021
Mof_H 	H 	0.0699	0.5429	0.1249	0.011
Mof_C 	C 	0.5503	0.3011	0.7566	-1.065
Mof_C 	C 	0.73379	0.37389	0.69232	0.567
Mof_C 	C 	0.84245	0.41182	0.73727	-0.479
Mof_C 	C 	0.02322	0.46916	0.6933	0.267
Mof_C 	C 	0.13226	0.48404	0.75846	-0
Mof_C 	C 	0.32152	0.50837	0.72711	-0.103
Mof_C 	C 	0.4215	0.5153	0.7896	0.056
Mof_C 	C 	0.16735	0.47915	0.9087	0.085
Mof_C 	C 	0.05563	0.47113	0.85154	-0.174
Mof_C 	C 	0.4497	0.6989	0.2434	-1.109
Mof_C 	C 	0.26621	0.62611	0.30768	0.612
Mof_C 	C 	0.15755	0.58818	0.26273	-0.607
Mof_C 	C 	0.97678	0.53084	0.3067	0.388
Mof_C 	C 	0.86774	0.51596	0.24154	-0.1
Mof_C 	C 	0.67848	0.49163	0.27289	-0.04
Mof_C 	C 	0.5785	0.4847	0.2104	0.017
Mof_C 	C 	0.83265	0.52085	0.0913	-0.009
Mof_C 	C 	0.94437	0.52887	0.14846	0.003
Mof_N 	N 	0.34837	0.50006	0.88065	-0.169
Mof_N 	N 	0.65163	0.49994	0.11935	-0.161
Mof_O 	O 	0.7773	0.39536	0.60216	-0.45
Mof_O 	O 	0.10919	0.50654	0.60207	-0.374
Mof_O 	O 	0.2227	0.60464	0.39784	-0.48
Mof_O 	O 	0.89081	0.49346	0.39793	-0.389
Mof_Cu	Cu	0.5	0.5	-0	0.925
Mof_H 	H 	0.1818	0.7225	0.9562	0.407
Mof_H 	H 	0.3411	0.8192	0.8801	0.386
Mof_H 	H 	0.322	0.7694	0.9956	0.395
Mof_H 	H 	0.5913	0.8021	0.8006	0.235
Mof_H 	H 	0.0439	0.6642	0.816	0.071
Mof_H 	H 	0.3147	0.7671	0.7014	0.021
Mof_H 	H 	0.0844	0.9715	0.5593	0.051
Mof_H 	H 	0.8052	0.8751	0.6678	0.055
Mof_H 	H 	0.8182	0.2775	0.0438	0.291
Mof_H 	H 	0.6589	0.1808	0.1199	0.272
Mof_H 	H 	0.678	0.2306	0.0044	0.258
Mof_H 	H 	0.4087	0.1979	0.1994	0.181
Mof_H 	H 	0.9561	0.3358	0.184	0.06
Mof_H 	H 	0.6853	0.2329	0.2986	0.026
Mof_H 	H 	0.9156	0.0285	0.4407	-0.01
Mof_H 	H 	0.1948	0.1249	0.3322	0.074
Mof_C 	C 	0.3069	0.7566	0.9423	-1.243
Mof_C 	C 	0.42611	0.69232	0.93379	0.714
Mof_C 	C 	0.57972	0.73727	0.85091	-0.6
Mof_C 	C 	0.71652	0.6933	0.83754	0.357
Mof_C 	C 	0.89072	0.75846	0.7575	-0.039
Mof_C 	C 	0.04863	0.72711	0.76452	-0.102
Mof_C 	C 	0.2111	0.7896	0.6951	0.044
Mof_C 	C 	0.07605	0.9087	0.61215	-0.013
Mof_C 	C 	0.90717	0.85154	0.67733	-0.025
Mof_C 	C 	0.6931	0.2434	0.0577	-0.927
Mof_C 	C 	0.57389	0.30768	0.06621	0.462
Mof_C 	C 	0.42028	0.26273	0.14909	-0.484
Mof_C 	C 	0.28348	0.3067	0.16246	0.298
Mof_C 	C 	0.10928	0.24154	0.2425	-0.061
Mof_C 	C 	0.95137	0.27289	0.23548	-0.044
Mof_C 	C 	0.7889	0.2104	0.3049	0.029
Mof_C 	C 	0.92395	0.0913	0.38785	0.081
Mof_C 	C 	0.09283	0.14846	0.32267	-0.136
Mof_N 	N 	0.22902	0.88065	0.61929	-0.151
Mof_N 	N 	0.77098	0.11935	0.38071	-0.178
Mof_O 	O 	0.37946	0.60216	0.00248	-0.544
Mof_O 	O 	0.71126	0.60207	0.89139	-0.367
Mof_O 	O 	0.62054	0.39784	0.99752	-0.382
Mof_O 	O 	0.28874	0.39793	0.10861	-0.39
_end
