data_functionalizedCrystal
_audit_creation_method	'EQeq! by Chris Wilmer'
_symmetry_space_group_name_H-M	'P1'
_symmetry_Int_Tables_number	1
_symmetry_cell_setting	triclinic
loop_
_symmetry_equiv_pos_as_xyz
  x,y,z
_cell_length_a	10.7882
_cell_length_b	12.3072
_cell_length_c	14.2893
_cell_angle_alpha	83.183
_cell_angle_beta	69.59
_cell_angle_gamma	65.174
loop_
_atom_site_label
_atom_site_type_symbol
_atom_site_fract_x
_atom_site_fract_y
_atom_site_fract_z
_atom_site_charge
Mof_Zn	Zn	0.24843	0.44568	0.9618	1.24
Mof_Zn	Zn	0.21081	0.20392	0.09321	1.192
Mof_Zn	Zn	0.75157	0.55432	0.0382	1.201
Mof_Zn	Zn	0.78919	0.79608	0.90679	1.205
Mof_Zn	Zn	0.5	0.5	-0	1.204
Mof_H 	H 	0.5019	0.6814	0.0223	0.289
Mof_H 	H 	0.074	0.3552	0.0031	0.296
Mof_H 	H 	0.454	0.2847	0.3297	0.138
Mof_H 	H 	0.4931	0.3136	0.162	-0.027
Mof_H 	H 	0.3282	0.6586	0.1997	-0.031
Mof_H 	H 	0.3809	0.3131	0.6173	0.136
Mof_H 	H 	0.8605	0.7738	0.1274	-0.003
Mof_H 	H 	0.202	0.8575	0.0582	0.016
Mof_H 	H 	0.2242	0.6398	0.812	-0.008
Mof_H 	H 	0.284	0.6392	0.3679	0.127
Mof_H 	H 	0.1255	0.2264	0.4555	0.141
Mof_H 	H 	0.0128	0.5426	0.3258	0.139
Mof_H 	H 	0.7924	0.1005	0.1944	0.022
Mof_H 	H 	0.1976	0.1363	0.307	-0.041
Mof_H 	H 	0.3492	0.2969	0.785	-0.018
Mof_H 	H 	0.2498	0.6668	0.6473	0.13
Mof_H 	H 	0.0917	0.4429	0.1775	-0.07
Mof_H 	H 	0.4981	0.3186	0.9777	0.295
Mof_H 	H 	0.926	0.6448	0.9969	0.331
Mof_H 	H 	0.546	0.7153	0.6703	0.137
Mof_H 	H 	0.5069	0.6864	0.838	0.003
Mof_H 	H 	0.6718	0.3414	0.8003	-0.027
Mof_H 	H 	0.6191	0.6869	0.3827	0.138
Mof_H 	H 	0.1395	0.2262	0.8726	0.018
Mof_H 	H 	0.798	0.1425	0.9418	0.038
Mof_H 	H 	0.7758	0.3602	0.188	-0.027
Mof_H 	H 	0.716	0.3608	0.6321	0.125
Mof_H 	H 	0.8745	0.7736	0.5445	0.14
Mof_H 	H 	0.9872	0.4574	0.6742	0.137
Mof_H 	H 	0.2076	0.8995	0.8056	0.03
Mof_H 	H 	0.8024	0.8637	0.693	-0.04
Mof_H 	H 	0.6508	0.7031	0.215	-0.028
Mof_H 	H 	0.7502	0.3332	0.3527	0.131
Mof_H 	H 	0.9083	0.5571	0.8225	-0.06
Mof_C 	C 	0.1575	0.6742	0.0361	0.394
Mof_C 	C 	0.429	0.3614	0.3046	-0.239
Mof_C 	C 	0.4514	0.3805	0.2045	0.133
Mof_C 	C 	0.0478	0.7964	0.0855	-0.154
Mof_C 	C 	0.3549	0.5825	0.2258	0.128
Mof_C 	C 	0.3477	0.3808	0.6569	-0.226
Mof_C 	C 	0.8973	0.8298	0.1276	0.067
Mof_C 	C 	0.103	0.8774	0.085	0.073
Mof_C 	C 	0.0049	0.9929	0.1266	-0.134
Mof_C 	C 	0.2543	0.5735	0.7715	0.135
Mof_C 	C 	0.8018	0.9435	0.1694	-0.154
Mof_C 	C 	0.0607	0.3947	0.4069	0.24
Mof_C 	C 	0.3287	0.5714	0.3261	-0.232
Mof_C 	C 	0.1173	0.272	0.3995	-0.275
Mof_C 	C 	0.0621	0.0822	0.123	0.336
Mof_C 	C 	0.0509	0.4594	0.3227	-0.258
Mof_C 	C 	0.3172	0.4936	0.6156	0.208
Mof_C 	C 	0.8547	0.0236	0.168	0.074
Mof_C 	C 	0.1602	0.2195	0.3113	0.181
Mof_C 	C 	0.3279	0.3718	0.7567	0.133
Mof_C 	C 	0.3686	0.4597	0.3646	0.213
Mof_C 	C 	0.2703	0.5908	0.6736	-0.235
Mof_C 	C 	0.0978	0.3995	0.2348	0.159
Mof_C 	C 	0.8425	0.3258	0.9639	0.391
Mof_C 	C 	0.571	0.6386	0.6954	-0.232
Mof_C 	C 	0.5486	0.6195	0.7955	0.132
Mof_C 	C 	0.9522	0.2036	0.9145	-0.125
Mof_C 	C 	0.6451	0.4175	0.7742	0.125
Mof_C 	C 	0.6523	0.6192	0.3431	-0.23
Mof_C 	C 	0.1027	0.1702	0.8724	0.07
Mof_C 	C 	0.897	0.1226	0.915	0.071
Mof_C 	C 	0.9951	0.0071	0.8734	-0.115
Mof_C 	C 	0.7457	0.4265	0.2285	0.138
Mof_C 	C 	0.1982	0.0565	0.8306	-0.136
Mof_C 	C 	0.9393	0.6053	0.5931	0.238
Mof_C 	C 	0.6713	0.4286	0.6739	-0.228
Mof_C 	C 	0.8827	0.728	0.6005	-0.274
Mof_C 	C 	0.9379	0.9178	0.877	0.334
Mof_C 	C 	0.9491	0.5406	0.6773	-0.256
Mof_C 	C 	0.6828	0.5064	0.3844	0.21
Mof_C 	C 	0.1453	0.9764	0.832	0.084
Mof_C 	C 	0.8398	0.7805	0.6887	0.18
Mof_C 	C 	0.6721	0.6282	0.2433	0.135
Mof_C 	C 	0.6314	0.5403	0.6354	0.209
Mof_C 	C 	0.7297	0.4092	0.3264	-0.24
Mof_C 	C 	0.9022	0.6005	0.7652	0.158
Mof_S 	S 	0.6039	0.9857	0.2234	0.629
Mof_S 	S 	0.3961	0.0143	0.7766	0.619
Mof_N 	N 	0.4182	0.4868	0.1641	-0.266
Mof_N 	N 	0.2791	0.4674	0.8134	-0.291
Mof_N 	N 	0.1523	0.2806	0.2283	-0.311
Mof_N 	N 	0.3325	0.5184	0.5116	-0.097
Mof_N 	N 	0.352	0.4357	0.4693	-0.097
Mof_N 	N 	0.0166	0.4456	0.5002	-0.109
Mof_N 	N 	0.5818	0.5132	0.8359	-0.246
Mof_N 	N 	0.7209	0.5326	0.1866	-0.306
Mof_N 	N 	0.8477	0.7194	0.7717	-0.306
Mof_N 	N 	0.6675	0.4816	0.4884	-0.098
Mof_N 	N 	0.648	0.5643	0.5307	-0.097
Mof_N 	N 	0.9834	0.5544	0.4998	-0.111
Mof_O 	O 	0.5788	0.9104	0.1745	-0.345
Mof_O 	O 	0.5723	0.9541	0.3205	-0.3
Mof_O 	O 	0.5356	0.1019	0.1932	-0.341
Mof_O 	O 	0.1025	0.6043	0.0311	-0.537
Mof_O 	O 	0.2912	0.6495	0.0041	-0.491
Mof_O 	O 	0.5755	0.6148	0.01	-0.835
Mof_O 	O 	0.1555	0.3373	0.0099	-0.847
Mof_O 	O 	0.1997	0.0494	0.0957	-0.479
Mof_O 	O 	0.9783	0.1876	0.1437	-0.379
Mof_O 	O 	0.4212	0.0896	0.8255	-0.319
Mof_O 	O 	0.4277	0.0459	0.6795	-0.299
Mof_O 	O 	0.4644	0.8981	0.8068	-0.315
Mof_O 	O 	0.8975	0.3957	0.9689	-0.47
Mof_O 	O 	0.7088	0.3505	0.9959	-0.429
Mof_O 	O 	0.4245	0.3852	0.99	-0.766
Mof_O 	O 	0.8445	0.6627	0.9901	-0.788
Mof_O 	O 	0.8003	0.9506	0.9043	-0.447
Mof_O 	O 	0.0217	0.8124	0.8563	-0.351
_end
