data_functionalizedCrystal
_audit_creation_method	'EQeq! by Chris Wilmer'
_symmetry_space_group_name_H-M	'P1'
_symmetry_Int_Tables_number	1
_symmetry_cell_setting	triclinic
loop_
_symmetry_equiv_pos_as_xyz
  x,y,z
_cell_length_a	27.5984
_cell_length_b	27.5984
_cell_length_c	27.5984
_cell_angle_alpha	60
_cell_angle_beta	60
_cell_angle_gamma	60
loop_
_atom_site_label
_atom_site_type_symbol
_atom_site_fract_x
_atom_site_fract_y
_atom_site_fract_z
_atom_site_charge
Mof_Zr	Zr	0.45466	0.45466	0.98127	3.198
Mof_Zr	Zr	0.45466	0.45466	0.10941	3.175
Mof_Zr	Zr	0.98127	0.10941	0.45466	3.198
Mof_Zr	Zr	0.10941	0.98127	0.45466	3.198
Mof_Zr	Zr	0.45466	0.98127	0.10941	3.198
Mof_Zr	Zr	0.45466	0.10941	0.98127	3.198
Mof_Zr	Zr	0.98127	0.45466	0.45466	3.198
Mof_Zr	Zr	0.10941	0.45466	0.45466	3.175
Mof_Zr	Zr	0.45466	0.10941	0.45466	3.175
Mof_Zr	Zr	0.45466	0.98127	0.45466	3.198
Mof_Zr	Zr	0.98127	0.45466	0.10941	3.198
Mof_Zr	Zr	0.10941	0.45466	0.98127	3.198
Mof_Zr	Zr	0.54534	0.54534	0.01873	3.154
Mof_Zr	Zr	0.54534	0.54534	0.89059	3.178
Mof_Zr	Zr	0.89059	0.01873	0.54534	3.155
Mof_Zr	Zr	0.01873	0.89059	0.54534	3.155
Mof_Zr	Zr	0.01873	0.54534	0.89059	3.155
Mof_Zr	Zr	0.89059	0.54534	0.01873	3.155
Mof_Zr	Zr	0.54534	0.01873	0.54534	3.155
Mof_Zr	Zr	0.54534	0.89059	0.54534	3.179
Mof_Zr	Zr	0.89059	0.54534	0.54534	3.179
Mof_Zr	Zr	0.01873	0.54534	0.54534	3.155
Mof_Zr	Zr	0.54534	0.01873	0.89059	3.156
Mof_Zr	Zr	0.54534	0.89059	0.01873	3.156
Mof_Zr	Zr	0.58893	0.41107	-0	3.181
Mof_Zr	Zr	0.41107	0.58893	-0	3.181
Mof_Zr	Zr	-3.05938e-17	0	0.58893	3.146
Mof_Zr	Zr	-4.58907e-17	0	0.41107	3.146
Mof_Zr	Zr	0.58893	0	-0	3.146
Mof_Zr	Zr	0.41107	0	-0	3.146
Mof_Zr	Zr	-4.58907e-17	0.58893	0.41107	3.181
Mof_Zr	Zr	-3.05938e-17	0.41107	0.58893	3.181
Mof_Zr	Zr	0.58893	0	0.41107	3.181
Mof_Zr	Zr	0.41107	0	0.58893	3.181
Mof_Zr	Zr	-3.05938e-17	0.41107	-0	3.146
Mof_Zr	Zr	-0	0.58893	-0	3.146
Mof_H 	H 	0.6541	0.2185	0.1307	-0.017
Mof_H 	H 	0.2185	0.6541	0.9967	0.088
Mof_H 	H 	0.1307	0.9967	0.6541	0.051
Mof_H 	H 	0.9967	0.1307	0.2185	0.031
Mof_H 	H 	0.6541	0.1307	0.9967	0.051
Mof_H 	H 	0.2185	0.9967	0.1307	0.031
Mof_H 	H 	0.1307	0.6541	0.2185	-0.017
Mof_H 	H 	0.9967	0.2185	0.6541	0.088
Mof_H 	H 	0.6541	0.9967	0.2185	0.088
Mof_H 	H 	0.2185	0.1307	0.6541	-0.017
Mof_H 	H 	0.1307	0.2185	0.9967	0.031
Mof_H 	H 	0.9967	0.6541	0.1307	0.051
Mof_H 	H 	0.7815	0.3459	0.8693	0.09
Mof_H 	H 	0.3459	0.7815	0.0033	-0.014
Mof_H 	H 	0.0033	0.8693	0.3459	0.024
Mof_H 	H 	0.8693	0.0033	0.7815	0.044
Mof_H 	H 	0.8693	0.3459	0.0033	0.024
Mof_H 	H 	0.0033	0.7815	0.8693	0.044
Mof_H 	H 	0.3459	0.8693	0.7815	0.09
Mof_H 	H 	0.7815	0.0033	0.3459	-0.014
Mof_H 	H 	0.0033	0.3459	0.7815	-0.014
Mof_H 	H 	0.8693	0.7815	0.3459	0.09
Mof_H 	H 	0.7815	0.8693	0.0033	0.044
Mof_H 	H 	0.3459	0.0033	0.8693	0.024
Mof_H 	H 	0.3459	0.7815	0.8693	0.09
Mof_H 	H 	0.7815	0.3459	0.0033	-0.014
Mof_H 	H 	0.8693	0.0033	0.3459	0.024
Mof_H 	H 	0.0033	0.8693	0.7815	0.044
Mof_H 	H 	0.3459	0.8693	0.0033	0.024
Mof_H 	H 	0.7815	0.0033	0.8693	0.044
Mof_H 	H 	0.8693	0.3459	0.7815	0.09
Mof_H 	H 	0.0033	0.7815	0.3459	-0.014
Mof_H 	H 	0.3459	0.0033	0.7815	-0.014
Mof_H 	H 	0.7815	0.8693	0.3459	0.09
Mof_H 	H 	0.8693	0.7815	0.0033	0.044
Mof_H 	H 	0.0033	0.3459	0.8693	0.024
Mof_H 	H 	0.2185	0.6541	0.1307	-0.017
Mof_H 	H 	0.6541	0.2185	0.9967	0.088
Mof_H 	H 	0.9967	0.1307	0.6541	0.051
Mof_H 	H 	0.1307	0.9967	0.2185	0.031
Mof_H 	H 	0.1307	0.6541	0.9967	0.051
Mof_H 	H 	0.9967	0.2185	0.1307	0.031
Mof_H 	H 	0.6541	0.1307	0.2185	-0.017
Mof_H 	H 	0.2185	0.9967	0.6541	0.088
Mof_H 	H 	0.9967	0.6541	0.2185	0.088
Mof_H 	H 	0.1307	0.2185	0.6541	-0.017
Mof_H 	H 	0.2185	0.1307	0.9967	0.031
Mof_H 	H 	0.6541	0.9967	0.1307	0.051
Mof_C 	C 	0.55945	0.32579	0.13433	0.535
Mof_C 	C 	0.57504	0.26512	0.17694	-0.184
Mof_C 	C 	0.6239	0.2175	0.1671	-0.012
Mof_C 	C 	0.32579	0.55945	0.98043	0.528
Mof_C 	C 	0.26512	0.57504	0.9829	-0.12
Mof_C 	C 	0.2175	0.6239	0.9915	0.003
Mof_C 	C 	0.13433	0.98043	0.55945	0.54
Mof_C 	C 	0.17694	0.9829	0.57504	-0.15
Mof_C 	C 	0.1671	0.9915	0.6239	0.031
Mof_C 	C 	0.98043	0.13433	0.32579	0.536
Mof_C 	C 	0.9829	0.17694	0.26512	-0.152
Mof_C 	C 	0.9915	0.1671	0.2175	0.007
Mof_C 	C 	0.55945	0.13433	0.98043	0.54
Mof_C 	C 	0.57504	0.17694	0.9829	-0.15
Mof_C 	C 	0.6239	0.1671	0.9915	0.031
Mof_C 	C 	0.32579	0.98043	0.13433	0.536
Mof_C 	C 	0.26512	0.9829	0.17694	-0.152
Mof_C 	C 	0.2175	0.9915	0.1671	0.007
Mof_C 	C 	0.13433	0.55945	0.32579	0.535
Mof_C 	C 	0.17694	0.57504	0.26512	-0.184
Mof_C 	C 	0.1671	0.6239	0.2175	-0.012
Mof_C 	C 	0.98043	0.32579	0.55945	0.528
Mof_C 	C 	0.9829	0.26512	0.57504	-0.12
Mof_C 	C 	0.9915	0.2175	0.6239	0.003
Mof_C 	C 	0.55945	0.98043	0.32579	0.528
Mof_C 	C 	0.57504	0.9829	0.26512	-0.12
Mof_C 	C 	0.6239	0.9915	0.2175	0.003
Mof_C 	C 	0.32579	0.13433	0.55945	0.535
Mof_C 	C 	0.26512	0.17694	0.57504	-0.184
Mof_C 	C 	0.2175	0.1671	0.6239	-0.012
Mof_C 	C 	0.13433	0.32579	0.98043	0.536
Mof_C 	C 	0.17694	0.26512	0.9829	-0.152
Mof_C 	C 	0.1671	0.2175	0.9915	0.007
Mof_C 	C 	0.98043	0.55945	0.13433	0.54
Mof_C 	C 	0.9829	0.57504	0.17694	-0.15
Mof_C 	C 	0.9915	0.6239	0.1671	0.031
Mof_C 	C 	0.67421	0.44055	0.86567	0.527
Mof_C 	C 	0.73488	0.42496	0.82306	-0.124
Mof_C 	C 	0.7825	0.3761	0.8329	0.022
Mof_C 	C 	0.44055	0.67421	0.01957	0.534
Mof_C 	C 	0.42496	0.73488	0.0171	-0.188
Mof_C 	C 	0.3761	0.7825	0.0085	0.009
Mof_C 	C 	0.01957	0.86567	0.44055	0.519
Mof_C 	C 	0.0171	0.82306	0.42496	-0.156
Mof_C 	C 	0.0085	0.8329	0.3761	-0.021
Mof_C 	C 	0.86567	0.01957	0.67421	0.523
Mof_C 	C 	0.82306	0.0171	0.73488	-0.154
Mof_C 	C 	0.8329	0.0085	0.7825	0.003
Mof_C 	C 	0.86567	0.44055	0.01957	0.519
Mof_C 	C 	0.82306	0.42496	0.0171	-0.156
Mof_C 	C 	0.8329	0.3761	0.0085	-0.021
Mof_C 	C 	0.01957	0.67421	0.86567	0.523
Mof_C 	C 	0.0171	0.73488	0.82306	-0.154
Mof_C 	C 	0.0085	0.7825	0.8329	0.003
Mof_C 	C 	0.44055	0.86567	0.67421	0.527
Mof_C 	C 	0.42496	0.82306	0.73488	-0.124
Mof_C 	C 	0.3761	0.8329	0.7825	0.022
Mof_C 	C 	0.67421	0.01957	0.44055	0.534
Mof_C 	C 	0.73488	0.0171	0.42496	-0.188
Mof_C 	C 	0.7825	0.0085	0.3761	0.009
Mof_C 	C 	0.01957	0.44055	0.67421	0.534
Mof_C 	C 	0.0171	0.42496	0.73488	-0.188
Mof_C 	C 	0.0085	0.3761	0.7825	0.009
Mof_C 	C 	0.86567	0.67421	0.44055	0.527
Mof_C 	C 	0.82306	0.73488	0.42496	-0.124
Mof_C 	C 	0.8329	0.7825	0.3761	0.022
Mof_C 	C 	0.67421	0.86567	0.01957	0.523
Mof_C 	C 	0.73488	0.82306	0.0171	-0.154
Mof_C 	C 	0.7825	0.8329	0.0085	0.003
Mof_C 	C 	0.44055	0.01957	0.86567	0.519
Mof_C 	C 	0.42496	0.0171	0.82306	-0.156
Mof_C 	C 	0.3761	0.0085	0.8329	-0.021
Mof_C 	C 	0.44055	0.67421	0.86567	0.527
Mof_C 	C 	0.42496	0.73488	0.82306	-0.124
Mof_C 	C 	0.3761	0.7825	0.8329	0.022
Mof_C 	C 	0.67421	0.44055	0.01957	0.534
Mof_C 	C 	0.73488	0.42496	0.0171	-0.188
Mof_C 	C 	0.7825	0.3761	0.0085	0.009
Mof_C 	C 	0.86567	0.01957	0.44055	0.519
Mof_C 	C 	0.82306	0.0171	0.42496	-0.156
Mof_C 	C 	0.8329	0.0085	0.3761	-0.021
Mof_C 	C 	0.01957	0.86567	0.67421	0.523
Mof_C 	C 	0.0171	0.82306	0.73488	-0.154
Mof_C 	C 	0.0085	0.8329	0.7825	0.003
Mof_C 	C 	0.44055	0.86567	0.01957	0.519
Mof_C 	C 	0.42496	0.82306	0.0171	-0.156
Mof_C 	C 	0.3761	0.8329	0.0085	-0.021
Mof_C 	C 	0.67421	0.01957	0.86567	0.523
Mof_C 	C 	0.73488	0.0171	0.82306	-0.154
Mof_C 	C 	0.7825	0.0085	0.8329	0.003
Mof_C 	C 	0.86567	0.44055	0.67421	0.527
Mof_C 	C 	0.82306	0.42496	0.73488	-0.124
Mof_C 	C 	0.8329	0.3761	0.7825	0.022
Mof_C 	C 	0.01957	0.67421	0.44055	0.534
Mof_C 	C 	0.0171	0.73488	0.42496	-0.188
Mof_C 	C 	0.0085	0.7825	0.3761	0.009
Mof_C 	C 	0.44055	0.01957	0.67421	0.534
Mof_C 	C 	0.42496	0.0171	0.73488	-0.188
Mof_C 	C 	0.3761	0.0085	0.7825	0.009
Mof_C 	C 	0.67421	0.86567	0.44055	0.527
Mof_C 	C 	0.73488	0.82306	0.42496	-0.124
Mof_C 	C 	0.7825	0.8329	0.3761	0.022
Mof_C 	C 	0.86567	0.67421	0.01957	0.523
Mof_C 	C 	0.82306	0.73488	0.0171	-0.154
Mof_C 	C 	0.8329	0.7825	0.0085	0.003
Mof_C 	C 	0.01957	0.44055	0.86567	0.519
Mof_C 	C 	0.0171	0.42496	0.82306	-0.156
Mof_C 	C 	0.0085	0.3761	0.8329	-0.021
Mof_C 	C 	0.32579	0.55945	0.13433	0.535
Mof_C 	C 	0.26512	0.57504	0.17694	-0.184
Mof_C 	C 	0.2175	0.6239	0.1671	-0.012
Mof_C 	C 	0.55945	0.32579	0.98043	0.528
Mof_C 	C 	0.57504	0.26512	0.9829	-0.12
Mof_C 	C 	0.6239	0.2175	0.9915	0.003
Mof_C 	C 	0.98043	0.13433	0.55945	0.54
Mof_C 	C 	0.9829	0.17694	0.57504	-0.15
Mof_C 	C 	0.9915	0.1671	0.6239	0.031
Mof_C 	C 	0.13433	0.98043	0.32579	0.536
Mof_C 	C 	0.17694	0.9829	0.26512	-0.152
Mof_C 	C 	0.1671	0.9915	0.2175	0.007
Mof_C 	C 	0.13433	0.55945	0.98043	0.54
Mof_C 	C 	0.17694	0.57504	0.9829	-0.15
Mof_C 	C 	0.1671	0.6239	0.9915	0.031
Mof_C 	C 	0.98043	0.32579	0.13433	0.536
Mof_C 	C 	0.9829	0.26512	0.17694	-0.152
Mof_C 	C 	0.9915	0.2175	0.1671	0.007
Mof_C 	C 	0.55945	0.13433	0.32579	0.535
Mof_C 	C 	0.57504	0.17694	0.26512	-0.184
Mof_C 	C 	0.6239	0.1671	0.2175	-0.012
Mof_C 	C 	0.32579	0.98043	0.55945	0.528
Mof_C 	C 	0.26512	0.9829	0.57504	-0.12
Mof_C 	C 	0.2175	0.9915	0.6239	0.003
Mof_C 	C 	0.98043	0.55945	0.32579	0.528
Mof_C 	C 	0.9829	0.57504	0.26512	-0.12
Mof_C 	C 	0.9915	0.6239	0.2175	0.003
Mof_C 	C 	0.13433	0.32579	0.55945	0.535
Mof_C 	C 	0.17694	0.26512	0.57504	-0.184
Mof_C 	C 	0.1671	0.2175	0.6239	-0.012
Mof_C 	C 	0.32579	0.13433	0.98043	0.536
Mof_C 	C 	0.26512	0.17694	0.9829	-0.152
Mof_C 	C 	0.2175	0.1671	0.9915	0.007
Mof_C 	C 	0.55945	0.98043	0.13433	0.54
Mof_C 	C 	0.57504	0.9829	0.17694	-0.15
Mof_C 	C 	0.6239	0.9915	0.1671	0.031
Mof_S 	S 	0.52925	0.24891	0.24891	-0.076
Mof_S 	S 	0.24891	0.52925	0.97293	0
Mof_S 	S 	0.24891	0.97293	0.52925	0
Mof_S 	S 	0.97293	0.24891	0.24891	-0.011
Mof_S 	S 	0.52925	0.24891	0.97293	0
Mof_S 	S 	0.24891	0.97293	0.24891	-0.011
Mof_S 	S 	0.24891	0.52925	0.24891	-0.076
Mof_S 	S 	0.97293	0.24891	0.52925	0
Mof_S 	S 	0.52925	0.97293	0.24891	0
Mof_S 	S 	0.24891	0.24891	0.52925	-0.076
Mof_S 	S 	0.24891	0.24891	0.97293	-0.011
Mof_S 	S 	0.97293	0.52925	0.24891	0
Mof_S 	S 	0.75109	0.47075	0.75109	0.004
Mof_S 	S 	0.47075	0.75109	0.02707	-0.071
Mof_S 	S 	0.02707	0.75109	0.47075	-0.071
Mof_S 	S 	0.75109	0.02707	0.75109	-0.06
Mof_S 	S 	0.75109	0.47075	0.02707	-0.071
Mof_S 	S 	0.02707	0.75109	0.75109	-0.06
Mof_S 	S 	0.47075	0.75109	0.75109	0.004
Mof_S 	S 	0.75109	0.02707	0.47075	-0.071
Mof_S 	S 	0.02707	0.47075	0.75109	-0.071
Mof_S 	S 	0.75109	0.75109	0.47075	0.004
Mof_S 	S 	0.75109	0.75109	0.02707	-0.06
Mof_S 	S 	0.47075	0.02707	0.75109	-0.071
Mof_O 	O 	0.59625	0.33541	0.08233	-0.741
Mof_O 	O 	0.50996	0.36238	0.15278	-0.815
Mof_O 	O 	0.33541	0.59625	0.98601	-0.554
Mof_O 	O 	0.36238	0.50996	0.97488	-0.727
Mof_O 	O 	0.08233	0.98601	0.59625	-0.626
Mof_O 	O 	0.15278	0.97488	0.50996	-0.741
Mof_O 	O 	0.98601	0.08233	0.33541	-0.633
Mof_O 	O 	0.97488	0.15278	0.36238	-0.743
Mof_O 	O 	0.59625	0.08233	0.98601	-0.626
Mof_O 	O 	0.50996	0.15278	0.97488	-0.741
Mof_O 	O 	0.33541	0.98601	0.08233	-0.633
Mof_O 	O 	0.36238	0.97488	0.15278	-0.743
Mof_O 	O 	0.08233	0.59625	0.33541	-0.741
Mof_O 	O 	0.15278	0.50996	0.36238	-0.815
Mof_O 	O 	0.98601	0.33541	0.59625	-0.554
Mof_O 	O 	0.97488	0.36238	0.50996	-0.727
Mof_O 	O 	0.59625	0.98601	0.33541	-0.554
Mof_O 	O 	0.50996	0.97488	0.36238	-0.727
Mof_O 	O 	0.33541	0.08233	0.59625	-0.741
Mof_O 	O 	0.36238	0.15278	0.50996	-0.815
Mof_O 	O 	0.08233	0.33541	0.98601	-0.633
Mof_O 	O 	0.15278	0.36238	0.97488	-0.743
Mof_O 	O 	0.98601	0.59625	0.08233	-0.626
Mof_O 	O 	0.97488	0.50996	0.15278	-0.741
Mof_O 	O 	0.66459	0.40375	0.91767	-0.576
Mof_O 	O 	0.63762	0.49004	0.84722	-0.763
Mof_O 	O 	0.40375	0.66459	0.01399	-0.762
Mof_O 	O 	0.49004	0.63762	0.02512	-0.85
Mof_O 	O 	0.01399	0.91767	0.40375	-0.68
Mof_O 	O 	0.02512	0.84722	0.49004	-0.834
Mof_O 	O 	0.91767	0.01399	0.66459	-0.673
Mof_O 	O 	0.84722	0.02512	0.63762	-0.832
Mof_O 	O 	0.91767	0.40375	0.01399	-0.68
Mof_O 	O 	0.84722	0.49004	0.02512	-0.834
Mof_O 	O 	0.01399	0.66459	0.91767	-0.673
Mof_O 	O 	0.02512	0.63762	0.84722	-0.832
Mof_O 	O 	0.40375	0.91767	0.66459	-0.576
Mof_O 	O 	0.49004	0.84722	0.63762	-0.763
Mof_O 	O 	0.66459	0.01399	0.40375	-0.762
Mof_O 	O 	0.63762	0.02512	0.49004	-0.85
Mof_O 	O 	0.01399	0.40375	0.66459	-0.762
Mof_O 	O 	0.02512	0.49004	0.63762	-0.85
Mof_O 	O 	0.91767	0.66459	0.40375	-0.576
Mof_O 	O 	0.84722	0.63762	0.49004	-0.763
Mof_O 	O 	0.66459	0.91767	0.01399	-0.673
Mof_O 	O 	0.63762	0.84722	0.02512	-0.832
Mof_O 	O 	0.40375	0.01399	0.91767	-0.68
Mof_O 	O 	0.49004	0.02512	0.84722	-0.834
Mof_O 	O 	0.40375	0.66459	0.91767	-0.576
Mof_O 	O 	0.49004	0.63762	0.84722	-0.763
Mof_O 	O 	0.66459	0.40375	0.01399	-0.762
Mof_O 	O 	0.63762	0.49004	0.02512	-0.85
Mof_O 	O 	0.91767	0.01399	0.40375	-0.68
Mof_O 	O 	0.84722	0.02512	0.49004	-0.834
Mof_O 	O 	0.01399	0.91767	0.66459	-0.673
Mof_O 	O 	0.02512	0.84722	0.63762	-0.832
Mof_O 	O 	0.40375	0.91767	0.01399	-0.68
Mof_O 	O 	0.49004	0.84722	0.02512	-0.834
Mof_O 	O 	0.66459	0.01399	0.91767	-0.673
Mof_O 	O 	0.63762	0.02512	0.84722	-0.832
Mof_O 	O 	0.91767	0.40375	0.66459	-0.576
Mof_O 	O 	0.84722	0.49004	0.63762	-0.763
Mof_O 	O 	0.01399	0.66459	0.40375	-0.762
Mof_O 	O 	0.02512	0.63762	0.49004	-0.85
Mof_O 	O 	0.40375	0.01399	0.66459	-0.762
Mof_O 	O 	0.49004	0.02512	0.63762	-0.85
Mof_O 	O 	0.66459	0.91767	0.40375	-0.576
Mof_O 	O 	0.63762	0.84722	0.49004	-0.763
Mof_O 	O 	0.91767	0.66459	0.01399	-0.673
Mof_O 	O 	0.84722	0.63762	0.02512	-0.832
Mof_O 	O 	0.01399	0.40375	0.91767	-0.68
Mof_O 	O 	0.02512	0.49004	0.84722	-0.834
Mof_O 	O 	0.33541	0.59625	0.08233	-0.741
Mof_O 	O 	0.36238	0.50996	0.15278	-0.815
Mof_O 	O 	0.59625	0.33541	0.98601	-0.554
Mof_O 	O 	0.50996	0.36238	0.97488	-0.727
Mof_O 	O 	0.98601	0.08233	0.59625	-0.626
Mof_O 	O 	0.97488	0.15278	0.50996	-0.741
Mof_O 	O 	0.08233	0.98601	0.33541	-0.633
Mof_O 	O 	0.15278	0.97488	0.36238	-0.743
Mof_O 	O 	0.08233	0.59625	0.98601	-0.626
Mof_O 	O 	0.15278	0.50996	0.97488	-0.741
Mof_O 	O 	0.98601	0.33541	0.08233	-0.633
Mof_O 	O 	0.97488	0.36238	0.15278	-0.743
Mof_O 	O 	0.59625	0.08233	0.33541	-0.741
Mof_O 	O 	0.50996	0.15278	0.36238	-0.815
Mof_O 	O 	0.33541	0.98601	0.59625	-0.554
Mof_O 	O 	0.36238	0.97488	0.50996	-0.727
Mof_O 	O 	0.98601	0.59625	0.33541	-0.554
Mof_O 	O 	0.97488	0.50996	0.36238	-0.727
Mof_O 	O 	0.08233	0.33541	0.59625	-0.741
Mof_O 	O 	0.15278	0.36238	0.50996	-0.815
Mof_O 	O 	0.33541	0.08233	0.98601	-0.633
Mof_O 	O 	0.36238	0.15278	0.97488	-0.743
Mof_O 	O 	0.59625	0.98601	0.08233	-0.626
Mof_O 	O 	0.50996	0.97488	0.15278	-0.741
Mof_O 	O 	0.49828	0.41292	0.0444	-1.5
Mof_O 	O 	0.41292	0.49828	0.0444	-1.5
Mof_O 	O 	0.0444	0.0444	0.49828	-1.638
Mof_O 	O 	0.0444	0.0444	0.41292	-1.639
Mof_O 	O 	0.49828	0.0444	0.0444	-1.638
Mof_O 	O 	0.41292	0.0444	0.0444	-1.639
Mof_O 	O 	0.0444	0.49828	0.41292	-1.5
Mof_O 	O 	0.0444	0.41292	0.49828	-1.5
Mof_O 	O 	0.49828	0.0444	0.41292	-1.5
Mof_O 	O 	0.41292	0.0444	0.49828	-1.5
Mof_O 	O 	0.0444	0.41292	0.0444	-1.639
Mof_O 	O 	0.0444	0.49828	0.0444	-1.638
Mof_O 	O 	0.58708	0.50172	0.9556	-1.187
Mof_O 	O 	0.50172	0.58708	0.9556	-1.187
Mof_O 	O 	0.9556	0.9556	0.50172	-1.04
Mof_O 	O 	0.9556	0.9556	0.58708	-1.039
Mof_O 	O 	0.9556	0.50172	0.9556	-1.04
Mof_O 	O 	0.9556	0.58708	0.9556	-1.039
Mof_O 	O 	0.50172	0.9556	0.58708	-1.187
Mof_O 	O 	0.58708	0.9556	0.50172	-1.187
Mof_O 	O 	0.9556	0.50172	0.58708	-1.187
Mof_O 	O 	0.9556	0.58708	0.50172	-1.187
Mof_O 	O 	0.58708	0.9556	0.9556	-1.039
Mof_O 	O 	0.50172	0.9556	0.9556	-1.04
Mof_O 	O 	0.45672	0.54328	0.93688	-1.273
Mof_O 	O 	0.54328	0.45672	0.06312	-1.396
Mof_O 	O 	0.93688	0.06312	0.45672	-1.33
Mof_O 	O 	0.06312	0.93688	0.54328	-1.33
Mof_O 	O 	0.45672	0.93688	0.06312	-1.33
Mof_O 	O 	0.54328	0.06312	0.93688	-1.33
Mof_O 	O 	0.93688	0.45672	0.54328	-1.273
Mof_O 	O 	0.06312	0.54328	0.45672	-1.396
Mof_O 	O 	0.45672	0.06312	0.54328	-1.396
Mof_O 	O 	0.54328	0.93688	0.45672	-1.273
Mof_O 	O 	0.93688	0.54328	0.06312	-1.33
Mof_O 	O 	0.06312	0.45672	0.93688	-1.33
Mof_O 	O 	0.45672	0.54328	0.06312	-1.396
Mof_O 	O 	0.54328	0.45672	0.93688	-1.273
Mof_O 	O 	0.93688	0.06312	0.54328	-1.33
Mof_O 	O 	0.06312	0.93688	0.45672	-1.33
Mof_O 	O 	0.06312	0.54328	0.93688	-1.33
Mof_O 	O 	0.93688	0.45672	0.06312	-1.33
Mof_O 	O 	0.54328	0.06312	0.45672	-1.396
Mof_O 	O 	0.45672	0.93688	0.54328	-1.273
Mof_O 	O 	0.93688	0.54328	0.45672	-1.273
Mof_O 	O 	0.06312	0.45672	0.54328	-1.396
Mof_O 	O 	0.45672	0.06312	0.93688	-1.33
Mof_O 	O 	0.54328	0.93688	0.06312	-1.33
_end
