data_functionalizedCrystal
_audit_creation_method	'EQeq! by Chris Wilmer'
_symmetry_space_group_name_H-M	'P1'
_symmetry_Int_Tables_number	1
_symmetry_cell_setting	triclinic
loop_
_symmetry_equiv_pos_as_xyz
  x,y,z
_cell_length_a	17.11
_cell_length_b	17.11
_cell_length_c	10.74
_cell_angle_alpha	90
_cell_angle_beta	90
_cell_angle_gamma	90
loop_
_atom_site_label
_atom_site_type_symbol
_atom_site_fract_x
_atom_site_fract_y
_atom_site_fract_z
_atom_site_charge
Mof_Mo	Mo	0.66072	0.94074	0.19236	2.303
Mof_P 	P 	0.63582	0.83224	0.44687	0.601
Mof_O 	O 	0.5732	0.9299	0.1093	-0.677
Mof_O 	O 	0.7502	0.9648	0.3346	-0.685
Mof_O 	O 	0.7066	0.8504	0.1682	-0.701
Mof_O 	O 	0.608	0.8942	0.352	-0.46
Mof_O 	O 	0.5679	0.8192	0.5344	-0.391
Mof_O 	O 	0.6611	0.7571	0.3815	-0.378
Mof_O 	O 	0.7046	0.8667	0.5229	-0.433
Mof_Mo	Mo	0.16072	0.44074	0.69236	2.248
Mof_P 	P 	0.13582	0.33224	0.94687	0.684
Mof_O 	O 	0.0732	0.4299	0.6093	-0.73
Mof_O 	O 	0.2502	0.4648	0.8346	-0.72
Mof_O 	O 	0.2066	0.3504	0.6682	-0.696
Mof_O 	O 	0.108	0.3942	0.852	-0.499
Mof_O 	O 	0.0679	0.3192	0.0344	-0.508
Mof_O 	O 	0.1611	0.2571	0.8815	-0.396
Mof_O 	O 	0.2046	0.3667	0.0229	-0.526
Mof_Mo	Mo	0.83928	0.05926	0.69236	2.185
Mof_P 	P 	0.86418	0.16776	0.94687	0.677
Mof_O 	O 	0.9268	0.0701	0.6093	-0.611
Mof_O 	O 	0.7498	0.0352	0.8346	-0.733
Mof_O 	O 	0.7934	0.1496	0.6682	-0.668
Mof_O 	O 	0.892	0.1058	0.852	-0.441
Mof_O 	O 	0.9321	0.1808	0.0344	-0.365
Mof_O 	O 	0.8389	0.2429	0.8815	-0.347
Mof_O 	O 	0.7954	0.1333	0.0229	-0.511
Mof_Mo	Mo	0.33928	0.55926	0.19236	2.239
Mof_P 	P 	0.36418	0.66776	0.44687	0.601
Mof_O 	O 	0.4268	0.5701	0.1093	-0.695
Mof_O 	O 	0.2498	0.5352	0.3346	-0.717
Mof_O 	O 	0.2934	0.6496	0.1682	-0.7
Mof_O 	O 	0.392	0.6058	0.352	-0.469
Mof_O 	O 	0.4321	0.6808	0.5344	-0.399
Mof_O 	O 	0.3389	0.7429	0.3815	-0.376
Mof_O 	O 	0.2954	0.6333	0.5229	-0.444
Mof_Mo	Mo	0.80926	0.91072	0.44236	2.29
Mof_P 	P 	0.91776	0.88582	0.69687	0.599
Mof_O 	O 	0.8201	0.8232	0.3593	-0.667
Mof_O 	O 	0.7852	0.0002	0.5846	-0.75
Mof_O 	O 	0.8996	0.9566	0.4182	-0.587
Mof_O 	O 	0.8558	0.858	0.602	-0.445
Mof_O 	O 	0.9308	0.8179	0.7844	-0.311
Mof_O 	O 	0.9929	0.9111	0.6315	-0.239
Mof_O 	O 	0.8833	0.9546	0.7729	-0.361
Mof_Mo	Mo	0.30926	0.41072	0.94236	2.375
Mof_P 	P 	0.41776	0.38582	0.19687	0.604
Mof_O 	O 	0.3201	0.3232	0.8593	-0.688
Mof_O 	O 	0.2852	0.5002	0.0846	-0.751
Mof_O 	O 	0.3996	0.4566	0.9182	-0.678
Mof_O 	O 	0.3558	0.358	0.102	-0.509
Mof_O 	O 	0.4308	0.3179	0.2844	-0.407
Mof_O 	O 	0.4929	0.4111	0.1315	-0.394
Mof_O 	O 	0.3833	0.4546	0.2729	-0.449
Mof_Mo	Mo	0.69074	0.08928	0.94236	2.319
Mof_P 	P 	0.58224	0.11418	0.19687	0.604
Mof_O 	O 	0.6799	0.1768	0.8593	-0.679
Mof_O 	O 	0.7148	0.9998	0.0846	-0.694
Mof_O 	O 	0.6004	0.0434	0.9182	-0.699
Mof_O 	O 	0.6442	0.142	0.102	-0.507
Mof_O 	O 	0.5692	0.1821	0.2844	-0.408
Mof_O 	O 	0.5071	0.0889	0.1315	-0.411
Mof_O 	O 	0.6167	0.0454	0.2729	-0.496
Mof_Mo	Mo	0.19074	0.58928	0.44236	2.236
Mof_P 	P 	0.08224	0.61418	0.69687	0.6
Mof_O 	O 	0.1799	0.6768	0.3593	-0.699
Mof_O 	O 	0.2148	0.4998	0.5846	-0.71
Mof_O 	O 	0.1004	0.5434	0.4182	-0.732
Mof_O 	O 	0.1442	0.642	0.602	-0.477
Mof_O 	O 	0.0692	0.6821	0.7844	-0.437
Mof_O 	O 	0.0071	0.5889	0.6315	-0.455
Mof_O 	O 	0.1167	0.5454	0.7729	-0.456
Mof_Mo	Mo	0.33928	0.05926	0.80764	2.168
Mof_P 	P 	0.36418	0.16776	0.55313	0.6
Mof_O 	O 	0.4268	0.0701	0.8907	-0.663
Mof_O 	O 	0.2498	0.0352	0.6654	-0.73
Mof_O 	O 	0.2934	0.1496	0.8318	-0.666
Mof_O 	O 	0.392	0.1058	0.648	-0.476
Mof_O 	O 	0.4321	0.1808	0.4656	-0.41
Mof_O 	O 	0.3389	0.2429	0.6185	-0.376
Mof_O 	O 	0.2954	0.1333	0.4771	-0.458
Mof_Mo	Mo	0.83928	0.55926	0.30764	2.228
Mof_P 	P 	0.86418	0.66776	0.05313	0.51
Mof_O 	O 	0.9268	0.5701	0.3907	-0.599
Mof_O 	O 	0.7498	0.5352	0.1654	-0.694
Mof_O 	O 	0.7934	0.6496	0.3318	-0.671
Mof_O 	O 	0.892	0.6058	0.148	-0.434
Mof_O 	O 	0.9321	0.6808	0.9656	-0.256
Mof_O 	O 	0.8389	0.7429	0.1185	-0.355
Mof_O 	O 	0.7954	0.6333	0.9771	-0.36
Mof_Mo	Mo	0.16072	0.94074	0.30764	2.285
Mof_P 	P 	0.13582	0.83224	0.05313	0.511
Mof_O 	O 	0.0732	0.9299	0.3907	-0.708
Mof_O 	O 	0.2502	0.9648	0.1654	-0.681
Mof_O 	O 	0.2066	0.8504	0.3318	-0.698
Mof_O 	O 	0.108	0.8942	0.148	-0.493
Mof_O 	O 	0.0679	0.8192	0.9656	-0.396
Mof_O 	O 	0.1611	0.7571	0.1185	-0.403
Mof_O 	O 	0.2046	0.8667	0.9771	-0.368
Mof_Mo	Mo	0.66072	0.44074	0.80764	2.239
Mof_P 	P 	0.63582	0.33224	0.55313	0.601
Mof_O 	O 	0.5732	0.4299	0.8907	-0.653
Mof_O 	O 	0.7502	0.4648	0.6654	-0.697
Mof_O 	O 	0.7066	0.3504	0.8318	-0.669
Mof_O 	O 	0.608	0.3942	0.648	-0.468
Mof_O 	O 	0.5679	0.3192	0.4656	-0.402
Mof_O 	O 	0.6611	0.2571	0.6185	-0.378
Mof_O 	O 	0.7046	0.3667	0.4771	-0.448
Mof_Mo	Mo	0.19074	0.08928	0.55764	2.183
Mof_P 	P 	0.08224	0.11418	0.30313	0.598
Mof_O 	O 	0.1799	0.1768	0.6407	-0.687
Mof_O 	O 	0.2148	0.9998	0.4154	-0.661
Mof_O 	O 	0.1004	0.0434	0.5818	-0.745
Mof_O 	O 	0.1442	0.142	0.398	-0.485
Mof_O 	O 	0.0692	0.1821	0.2156	-0.456
Mof_O 	O 	0.0071	0.0889	0.3685	-0.476
Mof_O 	O 	0.1167	0.0454	0.2271	-0.522
Mof_Mo	Mo	0.69074	0.58928	0.05764	2.099
Mof_P 	P 	0.58224	0.61418	0.80313	0.598
Mof_O 	O 	0.6799	0.6768	0.1407	-0.667
Mof_O 	O 	0.7148	0.4998	0.9154	-0.663
Mof_O 	O 	0.6004	0.5434	0.0818	-0.681
Mof_O 	O 	0.6442	0.642	0.898	-0.423
Mof_O 	O 	0.5692	0.6821	0.7156	-0.393
Mof_O 	O 	0.5071	0.5889	0.8685	-0.351
Mof_O 	O 	0.6167	0.5454	0.7271	-0.442
Mof_Mo	Mo	0.30926	0.91072	0.05764	2.144
Mof_P 	P 	0.41776	0.88582	0.80313	0.598
Mof_O 	O 	0.3201	0.8232	0.1407	-0.675
Mof_O 	O 	0.2852	0.0002	0.9154	-0.722
Mof_O 	O 	0.3996	0.9566	0.0818	-0.652
Mof_O 	O 	0.3558	0.858	0.898	-0.421
Mof_O 	O 	0.4308	0.8179	0.7156	-0.392
Mof_O 	O 	0.4929	0.9111	0.8685	-0.32
Mof_O 	O 	0.3833	0.9546	0.7271	-0.391
Mof_Mo	Mo	0.80926	0.41072	0.55764	2.239
Mof_P 	P 	0.91776	0.38582	0.30313	0.598
Mof_O 	O 	0.8201	0.3232	0.6407	-0.654
Mof_O 	O 	0.7852	0.5002	0.4154	-0.703
Mof_O 	O 	0.8996	0.4566	0.5818	-0.609
Mof_O 	O 	0.8558	0.358	0.398	-0.454
Mof_O 	O 	0.9308	0.3179	0.2156	-0.33
Mof_O 	O 	0.9929	0.4111	0.3685	-0.269
Mof_O 	O 	0.8833	0.4546	0.2271	-0.432
Mof_Co	Co	0.75	0.75	0.25	1.236
Mof_Co	Co	0.75	0.25	0.75	1.239
Mof_Co	Co	5.19111e-33	4.01436e-33	0.5	1.12
Mof_Co	Co	0.5	0.5	-0	1.209
Mof_Co	Co	0.5	0	-0	1.177
Mof_Co	Co	1.17675e-33	0.5	0.5	1.153
Mof_Co	Co	0.25	0.25	0.75	1.236
Mof_Co	Co	0.25	0.75	0.25	1.233
Mof_Co	Co	0.5	0.75	0.625	1.216
Mof_Co	Co	2.30137e-33	0.25	0.125	1.128
Mof_Co	Co	2.05932e-33	0.75	0.875	1.136
Mof_Co	Co	0.5	0.25	0.375	1.211
_end
