data_functionalizedCrystal
_audit_creation_method	'EQeq! by Chris Wilmer'
_symmetry_space_group_name_H-M	'P1'
_symmetry_Int_Tables_number	1
_symmetry_cell_setting	triclinic
loop_
_symmetry_equiv_pos_as_xyz
  x,y,z
_cell_length_a	18.837
_cell_length_b	15.021
_cell_length_c	14.95
_cell_angle_alpha	90
_cell_angle_beta	109.52
_cell_angle_gamma	90
loop_
_atom_site_label
_atom_site_type_symbol
_atom_site_fract_x
_atom_site_fract_y
_atom_site_fract_z
_atom_site_charge
Mof_Ru	Ru	0.74738	0.98933	0.2529	1.156
Mof_Ag	Ag	0.87054	0.88098	0.53916	0.644
Mof_Ag	Ag	0.62555	0.16217	0.99419	0.638
Mof_Cl	Cl	0.73163	0.081	0.1167	-0.598
Mof_Cl	Cl	0.76564	0.8896	0.3842	-0.607
Mof_C 	C 	0.6183	0.8597	0.1858	0.019
Mof_H 	H 	0.6551	0.8169	0.2114	0.025
Mof_C 	C 	0.8502	0.8463	0.2296	0.032
Mof_H 	H 	0.8795	0.8632	0.2907	0.004
Mof_C 	C 	0.8835	0.0609	0.4011	0.014
Mof_H 	H 	0.854	0.0541	0.4396	-0.005
Mof_C 	C 	0.5443	0.8326	0.1392	-0.005
Mof_H 	H 	0.5332	0.7721	0.1334	0.006
Mof_C 	C 	0.7734	0.791	0.0563	-0.007
Mof_H 	H 	0.7447	0.773	0.9954	0.038
Mof_C 	C 	0.7486	0.8622	0.0964	0.024
Mof_H 	H 	0.7051	0.8921	0.0607	0.015
Mof_C 	C 	0.7295	0.1743	0.3182	0.004
Mof_H 	H 	0.7566	0.1902	0.2788	0.024
Mof_C 	C 	0.9012	0.049	0.2587	0.015
Mof_H 	H 	0.884	0.0339	0.1946	0.032
Mof_C 	C 	0.5801	0.0038	0.1582	0.035
Mof_H 	H 	0.5899	0.0646	0.1634	-0.008
Mof_C 	C 	0.6719	0.073	0.3812	0.009
Mof_H 	H 	0.6582	0.0146	0.3883	0.026
Mof_C 	C 	0.5094	0.9757	0.1146	-0.023
Mof_H 	H 	0.472	0.0183	0.0911	0.019
Mof_C 	C 	0.8748	0.7767	0.1864	-0.012
Mof_H 	H 	0.9203	0.7491	0.2189	0.012
Mof_C 	C 	0.9549	0.0944	0.4391	-0.006
Mof_H 	H 	0.9716	0.112	0.5024	0.006
Mof_C 	C 	0.9722	0.0818	0.2978	0.005
Mof_H 	H 	0.0013	0.0897	0.2589	0.003
Mof_C 	C 	0.6506	0.1399	0.431	0.004
Mof_H 	H 	0.6218	0.1253	0.4687	0.002
Mof_C 	C 	0.7093	0.2371	0.369	0.007
Mof_H 	H 	0.7242	0.2953	0.3634	0.009
Mof_N 	N 	0.4897	0.8909	0.1031	-0.173
Mof_N 	N 	0.6376	0.946	0.1948	-0.22
Mof_N 	N 	0.7859	0.89	0.1867	-0.216
Mof_N 	N 	0.8351	0.7482	0.0997	-0.163
Mof_N 	N 	0.8553	0.0378	0.3093	-0.216
Mof_N 	N 	0.0019	0.1031	0.3892	-0.181
Mof_N 	N 	0.711	0.0891	0.3238	-0.212
Mof_N 	N 	0.67	0.2231	0.4265	-0.176
Mof_Ru	Ru	0.25262	0.48933	0.2471	1.166
Mof_Ag	Ag	0.12946	0.38098	0.96084	0.644
Mof_Ag	Ag	0.37445	0.66217	0.50581	0.642
Mof_Cl	Cl	0.26837	0.581	0.3833	-0.604
Mof_Cl	Cl	0.23436	0.3896	0.1158	-0.606
Mof_C 	C 	0.3817	0.3597	0.3142	0.017
Mof_H 	H 	0.3449	0.3169	0.2886	0.025
Mof_C 	C 	0.1498	0.3463	0.2704	0.032
Mof_H 	H 	0.1205	0.3632	0.2093	0.005
Mof_C 	C 	0.1165	0.5609	0.0989	0.016
Mof_H 	H 	0.146	0.5541	0.0604	-0.006
Mof_C 	C 	0.4557	0.3326	0.3608	-0.003
Mof_H 	H 	0.4668	0.2721	0.3666	0.005
Mof_C 	C 	0.2266	0.291	0.4437	0
Mof_H 	H 	0.2553	0.273	0.5046	0.033
Mof_C 	C 	0.2514	0.3622	0.4036	0.021
Mof_H 	H 	0.2949	0.3921	0.4393	0.018
Mof_C 	C 	0.2705	0.6743	0.1818	0.004
Mof_H 	H 	0.2434	0.6902	0.2212	0.023
Mof_C 	C 	0.0988	0.549	0.2413	0.017
Mof_H 	H 	0.116	0.5339	0.3054	0.029
Mof_C 	C 	0.4199	0.5038	0.3418	0.017
Mof_H 	H 	0.4101	0.5646	0.3366	-0.002
Mof_C 	C 	0.3281	0.573	0.1188	0.009
Mof_H 	H 	0.3418	0.5146	0.1117	0.025
Mof_C 	C 	0.4906	0.4757	0.3854	-0.003
Mof_H 	H 	0.528	0.5183	0.4089	0.009
Mof_C 	C 	0.1252	0.2767	0.3136	-0.012
Mof_H 	H 	0.0797	0.2491	0.2811	0.013
Mof_C 	C 	0.0451	0.5944	0.0609	-0.008
Mof_H 	H 	0.0284	0.612	0.9976	0.007
Mof_C 	C 	0.0278	0.5818	0.2022	0
Mof_H 	H 	0.9987	0.5897	0.2411	0.005
Mof_C 	C 	0.3494	0.6399	0.069	0.004
Mof_H 	H 	0.3782	0.6253	0.0313	0.002
Mof_C 	C 	0.2907	0.7371	0.131	0.006
Mof_H 	H 	0.2758	0.7953	0.1366	0.009
Mof_N 	N 	0.5103	0.3909	0.3969	-0.176
Mof_N 	N 	0.3624	0.446	0.3052	-0.216
Mof_N 	N 	0.2141	0.39	0.3133	-0.215
Mof_N 	N 	0.1649	0.2482	0.4003	-0.164
Mof_N 	N 	0.1447	0.5378	0.1907	-0.219
Mof_N 	N 	0.9981	0.6031	0.1108	-0.179
Mof_N 	N 	0.289	0.5891	0.1762	-0.214
Mof_N 	N 	0.33	0.7231	0.0735	-0.176
Mof_Ru	Ru	0.25262	0.01067	0.7471	1.157
Mof_Ag	Ag	0.12946	0.11902	0.46084	0.645
Mof_Ag	Ag	0.37445	0.83783	0.00581	0.638
Mof_Cl	Cl	0.26837	0.919	0.8833	-0.598
Mof_Cl	Cl	0.23436	0.1104	0.6158	-0.607
Mof_C 	C 	0.3817	0.1403	0.8142	0.019
Mof_H 	H 	0.3449	0.1831	0.7886	0.025
Mof_C 	C 	0.1498	0.1537	0.7704	0.032
Mof_H 	H 	0.1205	0.1368	0.7093	0.004
Mof_C 	C 	0.1165	0.9391	0.5989	0.014
Mof_H 	H 	0.146	0.9459	0.5604	-0.005
Mof_C 	C 	0.4557	0.1674	0.8608	-0.005
Mof_H 	H 	0.4668	0.2279	0.8666	0.006
Mof_C 	C 	0.2266	0.209	0.9437	-0.007
Mof_H 	H 	0.2553	0.227	0.0046	0.038
Mof_C 	C 	0.2514	0.1378	0.9036	0.024
Mof_H 	H 	0.2949	0.1079	0.9393	0.015
Mof_C 	C 	0.2705	0.8257	0.6818	0.004
Mof_H 	H 	0.2434	0.8098	0.7212	0.024
Mof_C 	C 	0.0988	0.951	0.7413	0.015
Mof_H 	H 	0.116	0.9661	0.8054	0.032
Mof_C 	C 	0.4199	0.9962	0.8418	0.035
Mof_H 	H 	0.4101	0.9354	0.8366	-0.008
Mof_C 	C 	0.3281	0.927	0.6188	0.009
Mof_H 	H 	0.3418	0.9854	0.6117	0.026
Mof_C 	C 	0.4906	0.0243	0.8854	-0.023
Mof_H 	H 	0.528	0.9817	0.9089	0.019
Mof_C 	C 	0.1252	0.2233	0.8136	-0.012
Mof_H 	H 	0.0797	0.2509	0.7811	0.012
Mof_C 	C 	0.0451	0.9056	0.5609	-0.006
Mof_H 	H 	0.0284	0.888	0.4976	0.006
Mof_C 	C 	0.0278	0.9182	0.7022	0.005
Mof_H 	H 	0.9987	0.9103	0.7411	0.003
Mof_C 	C 	0.3494	0.8601	0.569	0.004
Mof_H 	H 	0.3782	0.8747	0.5313	0.002
Mof_C 	C 	0.2907	0.7629	0.631	0.007
Mof_H 	H 	0.2758	0.7047	0.6366	0.009
Mof_N 	N 	0.5103	0.1091	0.8969	-0.173
Mof_N 	N 	0.3624	0.054	0.8052	-0.22
Mof_N 	N 	0.2141	0.11	0.8133	-0.216
Mof_N 	N 	0.1649	0.2518	0.9003	-0.163
Mof_N 	N 	0.1447	0.9622	0.6907	-0.216
Mof_N 	N 	0.9981	0.8969	0.6108	-0.181
Mof_N 	N 	0.289	0.9109	0.6762	-0.212
Mof_N 	N 	0.33	0.7769	0.5735	-0.176
Mof_Ru	Ru	0.74738	0.51067	0.7529	1.166
Mof_Ag	Ag	0.87054	0.61902	0.03916	0.644
Mof_Ag	Ag	0.62555	0.33783	0.49419	0.642
Mof_Cl	Cl	0.73163	0.419	0.6167	-0.604
Mof_Cl	Cl	0.76564	0.6104	0.8842	-0.606
Mof_C 	C 	0.6183	0.6403	0.6858	0.017
Mof_H 	H 	0.6551	0.6831	0.7114	0.025
Mof_C 	C 	0.8502	0.6537	0.7296	0.032
Mof_H 	H 	0.8795	0.6368	0.7907	0.005
Mof_C 	C 	0.8835	0.4391	0.9011	0.016
Mof_H 	H 	0.854	0.4459	0.9396	-0.006
Mof_C 	C 	0.5443	0.6674	0.6392	-0.003
Mof_H 	H 	0.5332	0.7279	0.6334	0.005
Mof_C 	C 	0.7734	0.709	0.5563	0
Mof_H 	H 	0.7447	0.727	0.4954	0.033
Mof_C 	C 	0.7486	0.6378	0.5964	0.021
Mof_H 	H 	0.7051	0.6079	0.5607	0.018
Mof_C 	C 	0.7295	0.3257	0.8182	0.004
Mof_H 	H 	0.7566	0.3098	0.7788	0.023
Mof_C 	C 	0.9012	0.451	0.7587	0.017
Mof_H 	H 	0.884	0.4661	0.6946	0.029
Mof_C 	C 	0.5801	0.4962	0.6582	0.017
Mof_H 	H 	0.5899	0.4354	0.6634	-0.002
Mof_C 	C 	0.6719	0.427	0.8812	0.009
Mof_H 	H 	0.6582	0.4854	0.8883	0.025
Mof_C 	C 	0.5094	0.5243	0.6146	-0.003
Mof_H 	H 	0.472	0.4817	0.5911	0.009
Mof_C 	C 	0.8748	0.7233	0.6864	-0.012
Mof_H 	H 	0.9203	0.7509	0.7189	0.013
Mof_C 	C 	0.9549	0.4056	0.9391	-0.008
Mof_H 	H 	0.9716	0.388	0.0024	0.007
Mof_C 	C 	0.9722	0.4182	0.7978	0
Mof_H 	H 	0.0013	0.4103	0.7589	0.005
Mof_C 	C 	0.6506	0.3601	0.931	0.004
Mof_H 	H 	0.6218	0.3747	0.9687	0.002
Mof_C 	C 	0.7093	0.2629	0.869	0.006
Mof_H 	H 	0.7242	0.2047	0.8634	0.009
Mof_N 	N 	0.4897	0.6091	0.6031	-0.176
Mof_N 	N 	0.6376	0.554	0.6948	-0.216
Mof_N 	N 	0.7859	0.61	0.6867	-0.215
Mof_N 	N 	0.8351	0.7518	0.5997	-0.164
Mof_N 	N 	0.8553	0.4622	0.8093	-0.219
Mof_N 	N 	0.0019	0.3969	0.8892	-0.179
Mof_N 	N 	0.711	0.4109	0.8238	-0.214
Mof_N 	N 	0.67	0.2769	0.9265	-0.176
_end
