data_functionalizedCrystal
_audit_creation_method	'EQeq! by Chris Wilmer'
_symmetry_space_group_name_H-M	'P1'
_symmetry_Int_Tables_number	1
_symmetry_cell_setting	triclinic
loop_
_symmetry_equiv_pos_as_xyz
  x,y,z
_cell_length_a	26.6396
_cell_length_b	12.9853
_cell_length_c	23.2326
_cell_angle_alpha	90
_cell_angle_beta	108.696
_cell_angle_gamma	90
loop_
_atom_site_label
_atom_site_type_symbol
_atom_site_fract_x
_atom_site_fract_y
_atom_site_fract_z
_atom_site_charge
Mof_C 	C 	0.60244	0.3586	0.60941	0.311
Mof_C 	C 	0.57244	0.286	0.56016	-0.088
Mof_C 	C 	0.59484	0.1928	0.55209	0.013
Mof_H 	H 	0.6298	0.1761	0.5769	0.039
Mof_C 	C 	0.56647	0.1237	0.508	-0.077
Mof_H 	H 	0.5823	0.0604	0.5027	0.066
Mof_C 	C 	0.51525	0.1466	0.47165	0.022
Mof_C 	C 	0.49341	0.2411	0.47997	-0.079
Mof_H 	H 	0.4584	0.258	0.4553	0.054
Mof_C 	C 	0.52148	0.3096	0.52296	0.014
Mof_H 	H 	0.506	0.3738	0.5274	0.041
Mof_C 	C 	0.48572	0.0733	0.42392	0.082
Mof_C 	C 	0.43125	0.0773	0.39712	-0.126
Mof_H 	H 	0.4112	0.1278	0.4096	0.067
Mof_C 	C 	0.40595	0.007	0.35177	0.049
Mof_C 	C 	0.43732	0.9327	0.33699	-0.125
Mof_H 	H 	0.4216	0.8824	0.3069	0.076
Mof_C 	C 	0.49143	0.9321	0.36618	0.083
Mof_C 	C 	0.52608	0.8565	0.34994	0.029
Mof_C 	C 	0.57489	0.8871	0.34588	-0.09
Mof_H 	H 	0.5876	0.9547	0.3578	0.068
Mof_C 	C 	0.60491	0.8199	0.32468	0.025
Mof_H 	H 	0.638	0.842	0.3216	0.032
Mof_C 	C 	0.58758	0.7211	0.30785	-0.103
Mof_C 	C 	0.54046	0.6888	0.31473	0.029
Mof_H 	H 	0.5291	0.6197	0.3052	0.042
Mof_C 	C 	0.50987	0.7553	0.33512	-0.089
Mof_H 	H 	0.4773	0.7321	0.3392	0.071
Mof_C 	C 	0.6166	0.6535	0.27726	0.329
Mof_C 	C 	0.34825	0.0117	0.32027	0.054
Mof_C 	C 	0.31961	0.9247	0.29198	-0.137
Mof_H 	H 	0.3368	0.86	0.2943	0.093
Mof_C 	C 	0.2663	0.9343	0.26079	0.084
Mof_H 	H 	0.2475	0.8748	0.2418	-0.014
Mof_C 	C 	0.26692	0.1056	0.28296	0.076
Mof_H 	H 	0.2486	0.1691	0.2799	0.014
Mof_C 	C 	0.32012	0.1033	0.31498	-0.128
Mof_H 	H 	0.3377	0.1643	0.3335	0.065
Mof_N 	N 	0.51581	0.0015	0.40859	-0.133
Mof_N 	N 	0.23962	0.0226	0.25578	-0.199
Mof_O 	O 	0.58121	0.44425	0.61444	-0.315
Mof_O 	O 	0.64591	0.333	0.644	-0.335
Mof_O 	O 	0.5949	0.5725	0.2519	-0.34
Mof_O 	O 	0.65938	0.682	0.27336	-0.312
Mof_Mn	Mn	0.15272	0.03181	0.20581	0.744
Mof_C 	C 	0.10244	0.8586	0.60941	0.312
Mof_C 	C 	0.07244	0.786	0.56016	-0.087
Mof_C 	C 	0.09484	0.6928	0.55209	0.014
Mof_H 	H 	0.1298	0.6761	0.5769	0.04
Mof_C 	C 	0.06647	0.6237	0.508	-0.076
Mof_H 	H 	0.0823	0.5604	0.5027	0.067
Mof_C 	C 	0.01525	0.6466	0.47165	0.023
Mof_C 	C 	0.99341	0.7411	0.47997	-0.078
Mof_H 	H 	0.9584	0.758	0.4553	0.055
Mof_C 	C 	0.02148	0.8096	0.52296	0.015
Mof_H 	H 	0.006	0.8738	0.5274	0.042
Mof_C 	C 	0.98572	0.5733	0.42392	0.083
Mof_C 	C 	0.93125	0.5773	0.39712	-0.125
Mof_H 	H 	0.9112	0.6278	0.4096	0.068
Mof_C 	C 	0.90595	0.507	0.35177	0.05
Mof_C 	C 	0.93732	0.4327	0.33699	-0.124
Mof_H 	H 	0.9216	0.3824	0.3069	0.077
Mof_C 	C 	0.99143	0.4321	0.36618	0.084
Mof_C 	C 	0.02608	0.3565	0.34994	0.03
Mof_C 	C 	0.07489	0.3871	0.34588	-0.089
Mof_H 	H 	0.0876	0.4547	0.3578	0.068
Mof_C 	C 	0.10491	0.3199	0.32468	0.025
Mof_H 	H 	0.138	0.342	0.3216	0.032
Mof_C 	C 	0.08758	0.2211	0.30785	-0.103
Mof_C 	C 	0.04046	0.1888	0.31473	0.029
Mof_H 	H 	0.0291	0.1197	0.3052	0.042
Mof_C 	C 	0.00987	0.2553	0.33512	-0.089
Mof_H 	H 	0.9773	0.2321	0.3392	0.071
Mof_C 	C 	0.1166	0.1535	0.27726	0.329
Mof_C 	C 	0.84825	0.5117	0.32027	0.054
Mof_C 	C 	0.81961	0.4247	0.29198	-0.137
Mof_H 	H 	0.8368	0.36	0.2943	0.093
Mof_C 	C 	0.7663	0.4343	0.26079	0.084
Mof_H 	H 	0.7475	0.3748	0.2418	-0.014
Mof_C 	C 	0.76692	0.6056	0.28296	0.076
Mof_H 	H 	0.7486	0.6691	0.2799	0.014
Mof_C 	C 	0.82012	0.6033	0.31498	-0.128
Mof_H 	H 	0.8377	0.6643	0.3335	0.065
Mof_N 	N 	0.01581	0.5015	0.40859	-0.133
Mof_N 	N 	0.73962	0.5226	0.25578	-0.199
Mof_O 	O 	0.08121	0.94425	0.61444	-0.314
Mof_O 	O 	0.14591	0.833	0.644	-0.335
Mof_O 	O 	0.0949	0.0725	0.2519	-0.34
Mof_O 	O 	0.15938	0.182	0.27336	-0.312
Mof_Mn	Mn	0.65272	0.53181	0.20581	0.744
Mof_C 	C 	0.60244	0.6414	0.10941	0.312
Mof_C 	C 	0.57244	0.714	0.06016	-0.087
Mof_C 	C 	0.59484	0.8072	0.05209	0.014
Mof_H 	H 	0.6298	0.8239	0.0769	0.04
Mof_C 	C 	0.56647	0.8763	0.008	-0.076
Mof_H 	H 	0.5823	0.9396	0.0027	0.067
Mof_C 	C 	0.51525	0.8534	0.97165	0.023
Mof_C 	C 	0.49341	0.7589	0.97997	-0.078
Mof_H 	H 	0.4584	0.742	0.9553	0.055
Mof_C 	C 	0.52148	0.6904	0.02296	0.015
Mof_H 	H 	0.506	0.6262	0.0274	0.042
Mof_C 	C 	0.48572	0.9267	0.92392	0.083
Mof_C 	C 	0.43125	0.9227	0.89712	-0.125
Mof_H 	H 	0.4112	0.8722	0.9096	0.068
Mof_C 	C 	0.40595	0.993	0.85177	0.05
Mof_C 	C 	0.43732	0.0673	0.83699	-0.124
Mof_H 	H 	0.4216	0.1176	0.8069	0.077
Mof_C 	C 	0.49143	0.0679	0.86618	0.084
Mof_C 	C 	0.52608	0.1435	0.84994	0.03
Mof_C 	C 	0.57489	0.1129	0.84588	-0.089
Mof_H 	H 	0.5876	0.0453	0.8578	0.068
Mof_C 	C 	0.60491	0.1801	0.82468	0.025
Mof_H 	H 	0.638	0.158	0.8216	0.032
Mof_C 	C 	0.58758	0.2789	0.80785	-0.103
Mof_C 	C 	0.54046	0.3112	0.81473	0.029
Mof_H 	H 	0.5291	0.3803	0.8052	0.042
Mof_C 	C 	0.50987	0.2447	0.83512	-0.089
Mof_H 	H 	0.4773	0.2679	0.8392	0.071
Mof_C 	C 	0.6166	0.3465	0.77726	0.329
Mof_C 	C 	0.34825	0.9883	0.82027	0.054
Mof_C 	C 	0.31961	0.0753	0.79198	-0.137
Mof_H 	H 	0.3368	0.14	0.7943	0.093
Mof_C 	C 	0.2663	0.0657	0.76079	0.084
Mof_H 	H 	0.2475	0.1252	0.7418	-0.014
Mof_C 	C 	0.26692	0.8944	0.78296	0.076
Mof_H 	H 	0.2486	0.8309	0.7799	0.014
Mof_C 	C 	0.32012	0.8967	0.81498	-0.128
Mof_H 	H 	0.3377	0.8357	0.8335	0.065
Mof_N 	N 	0.51581	0.9985	0.90859	-0.133
Mof_N 	N 	0.23962	0.9774	0.75578	-0.199
Mof_O 	O 	0.58121	0.55575	0.11444	-0.315
Mof_O 	O 	0.64591	0.667	0.144	-0.335
Mof_O 	O 	0.5949	0.4275	0.7519	-0.34
Mof_O 	O 	0.65938	0.318	0.77336	-0.312
Mof_Mn	Mn	0.15272	0.96819	0.70581	0.744
Mof_C 	C 	0.10244	0.1414	0.10941	0.312
Mof_C 	C 	0.07244	0.214	0.06016	-0.087
Mof_C 	C 	0.09484	0.3072	0.05209	0.014
Mof_H 	H 	0.1298	0.3239	0.0769	0.04
Mof_C 	C 	0.06647	0.3763	0.008	-0.076
Mof_H 	H 	0.0823	0.4396	0.0027	0.067
Mof_C 	C 	0.01525	0.3534	0.97165	0.024
Mof_C 	C 	0.99341	0.2589	0.97997	-0.079
Mof_H 	H 	0.9584	0.242	0.9553	0.055
Mof_C 	C 	0.02148	0.1904	0.02296	0.015
Mof_H 	H 	0.006	0.1262	0.0274	0.042
Mof_C 	C 	0.98572	0.4267	0.92392	0.082
Mof_C 	C 	0.93125	0.4227	0.89712	-0.124
Mof_H 	H 	0.9112	0.3722	0.9096	0.068
Mof_C 	C 	0.90595	0.493	0.85177	0.05
Mof_C 	C 	0.93732	0.5673	0.83699	-0.123
Mof_H 	H 	0.9216	0.6176	0.8069	0.077
Mof_C 	C 	0.99143	0.5679	0.86618	0.083
Mof_C 	C 	0.02608	0.6435	0.84994	0.03
Mof_C 	C 	0.07489	0.6129	0.84588	-0.089
Mof_H 	H 	0.0876	0.5453	0.8578	0.068
Mof_C 	C 	0.10491	0.6801	0.82468	0.025
Mof_H 	H 	0.138	0.658	0.8216	0.032
Mof_C 	C 	0.08758	0.7789	0.80785	-0.103
Mof_C 	C 	0.04046	0.8112	0.81473	0.029
Mof_H 	H 	0.0291	0.8803	0.8052	0.042
Mof_C 	C 	0.00987	0.7447	0.83512	-0.089
Mof_H 	H 	0.9773	0.7679	0.8392	0.071
Mof_C 	C 	0.1166	0.8465	0.77726	0.329
Mof_C 	C 	0.84825	0.4883	0.82027	0.054
Mof_C 	C 	0.81961	0.5753	0.79198	-0.137
Mof_H 	H 	0.8368	0.64	0.7943	0.093
Mof_C 	C 	0.7663	0.5657	0.76079	0.084
Mof_H 	H 	0.7475	0.6252	0.7418	-0.014
Mof_C 	C 	0.76692	0.3944	0.78296	0.076
Mof_H 	H 	0.7486	0.3309	0.7799	0.014
Mof_C 	C 	0.82012	0.3967	0.81498	-0.128
Mof_H 	H 	0.8377	0.3357	0.8335	0.065
Mof_N 	N 	0.01581	0.4985	0.90859	-0.132
Mof_N 	N 	0.73962	0.4774	0.75578	-0.199
Mof_O 	O 	0.08121	0.05575	0.11444	-0.315
Mof_O 	O 	0.14591	0.167	0.144	-0.335
Mof_O 	O 	0.0949	0.9275	0.7519	-0.34
Mof_O 	O 	0.15938	0.818	0.77336	-0.312
Mof_Mn	Mn	0.65272	0.46819	0.70581	0.744
Mof_C 	C 	0.39756	0.3586	0.89059	0.312
Mof_C 	C 	0.42756	0.286	0.93984	-0.087
Mof_C 	C 	0.40516	0.1928	0.94791	0.014
Mof_H 	H 	0.3702	0.1761	0.9231	0.04
Mof_C 	C 	0.43353	0.1237	0.992	-0.076
Mof_H 	H 	0.4177	0.0604	0.9973	0.067
Mof_C 	C 	0.48475	0.1466	0.02835	0.023
Mof_C 	C 	0.50659	0.2411	0.02003	-0.078
Mof_H 	H 	0.5416	0.258	0.0447	0.055
Mof_C 	C 	0.47852	0.3096	0.97704	0.015
Mof_H 	H 	0.494	0.3738	0.9726	0.042
Mof_C 	C 	0.51428	0.0733	0.07608	0.083
Mof_C 	C 	0.56875	0.0773	0.10288	-0.125
Mof_H 	H 	0.5888	0.1278	0.0904	0.068
Mof_C 	C 	0.59405	0.007	0.14823	0.05
Mof_C 	C 	0.56268	0.9327	0.16301	-0.124
Mof_H 	H 	0.5784	0.8824	0.1931	0.077
Mof_C 	C 	0.50857	0.9321	0.13382	0.084
Mof_C 	C 	0.47392	0.8565	0.15006	0.03
Mof_C 	C 	0.42511	0.8871	0.15412	-0.089
Mof_H 	H 	0.4124	0.9547	0.1422	0.068
Mof_C 	C 	0.39509	0.8199	0.17532	0.025
Mof_H 	H 	0.362	0.842	0.1784	0.032
Mof_C 	C 	0.41242	0.7211	0.19215	-0.103
Mof_C 	C 	0.45954	0.6888	0.18527	0.029
Mof_H 	H 	0.4709	0.6197	0.1948	0.042
Mof_C 	C 	0.49013	0.7553	0.16488	-0.089
Mof_H 	H 	0.5227	0.7321	0.1608	0.071
Mof_C 	C 	0.3834	0.6535	0.22274	0.329
Mof_C 	C 	0.65175	0.0117	0.17973	0.054
Mof_C 	C 	0.68039	0.9247	0.20802	-0.137
Mof_H 	H 	0.6632	0.86	0.2057	0.093
Mof_C 	C 	0.7337	0.9343	0.23921	0.084
Mof_H 	H 	0.7525	0.8748	0.2582	-0.014
Mof_C 	C 	0.73308	0.1056	0.21704	0.076
Mof_H 	H 	0.7514	0.1691	0.2201	0.014
Mof_C 	C 	0.67988	0.1033	0.18502	-0.128
Mof_H 	H 	0.6623	0.1643	0.1665	0.065
Mof_N 	N 	0.48419	0.0015	0.09141	-0.133
Mof_N 	N 	0.76038	0.0226	0.24422	-0.199
Mof_O 	O 	0.41879	0.44425	0.88556	-0.315
Mof_O 	O 	0.35409	0.333	0.856	-0.335
Mof_O 	O 	0.4051	0.5725	0.2481	-0.34
Mof_O 	O 	0.34062	0.682	0.22664	-0.312
Mof_Mn	Mn	0.84728	0.03181	0.29419	0.744
Mof_C 	C 	0.89756	0.8586	0.89059	0.312
Mof_C 	C 	0.92756	0.786	0.93984	-0.087
Mof_C 	C 	0.90516	0.6928	0.94791	0.014
Mof_H 	H 	0.8702	0.6761	0.9231	0.04
Mof_C 	C 	0.93353	0.6237	0.992	-0.076
Mof_H 	H 	0.9177	0.5604	0.9973	0.067
Mof_C 	C 	0.98475	0.6466	0.02835	0.024
Mof_C 	C 	0.00659	0.7411	0.02003	-0.079
Mof_H 	H 	0.0416	0.758	0.0447	0.055
Mof_C 	C 	0.97852	0.8096	0.97704	0.015
Mof_H 	H 	0.994	0.8738	0.9726	0.042
Mof_C 	C 	0.01428	0.5733	0.07608	0.082
Mof_C 	C 	0.06875	0.5773	0.10288	-0.124
Mof_H 	H 	0.0888	0.6278	0.0904	0.068
Mof_C 	C 	0.09405	0.507	0.14823	0.05
Mof_C 	C 	0.06268	0.4327	0.16301	-0.123
Mof_H 	H 	0.0784	0.3824	0.1931	0.077
Mof_C 	C 	0.00857	0.4321	0.13382	0.083
Mof_C 	C 	0.97392	0.3565	0.15006	0.03
Mof_C 	C 	0.92511	0.3871	0.15412	-0.089
Mof_H 	H 	0.9124	0.4547	0.1422	0.068
Mof_C 	C 	0.89509	0.3199	0.17532	0.025
Mof_H 	H 	0.862	0.342	0.1784	0.032
Mof_C 	C 	0.91242	0.2211	0.19215	-0.103
Mof_C 	C 	0.95954	0.1888	0.18527	0.029
Mof_H 	H 	0.9709	0.1197	0.1948	0.042
Mof_C 	C 	0.99013	0.2553	0.16488	-0.089
Mof_H 	H 	0.0227	0.2321	0.1608	0.071
Mof_C 	C 	0.8834	0.1535	0.22274	0.329
Mof_C 	C 	0.15175	0.5117	0.17973	0.054
Mof_C 	C 	0.18039	0.4247	0.20802	-0.137
Mof_H 	H 	0.1632	0.36	0.2057	0.093
Mof_C 	C 	0.2337	0.4343	0.23921	0.084
Mof_H 	H 	0.2525	0.3748	0.2582	-0.014
Mof_C 	C 	0.23308	0.6056	0.21704	0.076
Mof_H 	H 	0.2514	0.6691	0.2201	0.014
Mof_C 	C 	0.17988	0.6033	0.18502	-0.128
Mof_H 	H 	0.1623	0.6643	0.1665	0.065
Mof_N 	N 	0.98419	0.5015	0.09141	-0.132
Mof_N 	N 	0.26038	0.5226	0.24422	-0.199
Mof_O 	O 	0.91879	0.94425	0.88556	-0.315
Mof_O 	O 	0.85409	0.833	0.856	-0.335
Mof_O 	O 	0.9051	0.0725	0.2481	-0.34
Mof_O 	O 	0.84062	0.182	0.22664	-0.312
Mof_Mn	Mn	0.34728	0.53181	0.29419	0.744
Mof_C 	C 	0.39756	0.6414	0.39059	0.312
Mof_C 	C 	0.42756	0.714	0.43984	-0.087
Mof_C 	C 	0.40516	0.8072	0.44791	0.014
Mof_H 	H 	0.3702	0.8239	0.4231	0.04
Mof_C 	C 	0.43353	0.8763	0.492	-0.076
Mof_H 	H 	0.4177	0.9396	0.4973	0.067
Mof_C 	C 	0.48475	0.8534	0.52835	0.023
Mof_C 	C 	0.50659	0.7589	0.52003	-0.078
Mof_H 	H 	0.5416	0.742	0.5447	0.055
Mof_C 	C 	0.47852	0.6904	0.47704	0.015
Mof_H 	H 	0.494	0.6262	0.4726	0.042
Mof_C 	C 	0.51428	0.9267	0.57608	0.083
Mof_C 	C 	0.56875	0.9227	0.60288	-0.125
Mof_H 	H 	0.5888	0.8722	0.5904	0.068
Mof_C 	C 	0.59405	0.993	0.64823	0.05
Mof_C 	C 	0.56268	0.0673	0.66301	-0.124
Mof_H 	H 	0.5784	0.1176	0.6931	0.077
Mof_C 	C 	0.50857	0.0679	0.63382	0.084
Mof_C 	C 	0.47392	0.1435	0.65006	0.03
Mof_C 	C 	0.42511	0.1129	0.65412	-0.089
Mof_H 	H 	0.4124	0.0453	0.6422	0.068
Mof_C 	C 	0.39509	0.1801	0.67532	0.025
Mof_H 	H 	0.362	0.158	0.6784	0.032
Mof_C 	C 	0.41242	0.2789	0.69215	-0.103
Mof_C 	C 	0.45954	0.3112	0.68527	0.029
Mof_H 	H 	0.4709	0.3803	0.6948	0.042
Mof_C 	C 	0.49013	0.2447	0.66488	-0.089
Mof_H 	H 	0.5227	0.2679	0.6608	0.071
Mof_C 	C 	0.3834	0.3465	0.72274	0.329
Mof_C 	C 	0.65175	0.9883	0.67973	0.054
Mof_C 	C 	0.68039	0.0753	0.70802	-0.137
Mof_H 	H 	0.6632	0.14	0.7057	0.093
Mof_C 	C 	0.7337	0.0657	0.73921	0.084
Mof_H 	H 	0.7525	0.1252	0.7582	-0.014
Mof_C 	C 	0.73308	0.8944	0.71704	0.076
Mof_H 	H 	0.7514	0.8309	0.7201	0.014
Mof_C 	C 	0.67988	0.8967	0.68502	-0.128
Mof_H 	H 	0.6623	0.8357	0.6665	0.065
Mof_N 	N 	0.48419	0.9985	0.59141	-0.133
Mof_N 	N 	0.76038	0.9774	0.74422	-0.199
Mof_O 	O 	0.41879	0.55575	0.38556	-0.315
Mof_O 	O 	0.35409	0.667	0.356	-0.335
Mof_O 	O 	0.4051	0.4275	0.7481	-0.34
Mof_O 	O 	0.34062	0.318	0.72664	-0.312
Mof_Mn	Mn	0.84728	0.96819	0.79419	0.744
Mof_C 	C 	0.89756	0.1414	0.39059	0.312
Mof_C 	C 	0.92756	0.214	0.43984	-0.087
Mof_C 	C 	0.90516	0.3072	0.44791	0.014
Mof_H 	H 	0.8702	0.3239	0.4231	0.04
Mof_C 	C 	0.93353	0.3763	0.492	-0.076
Mof_H 	H 	0.9177	0.4396	0.4973	0.067
Mof_C 	C 	0.98475	0.3534	0.52835	0.023
Mof_C 	C 	0.00659	0.2589	0.52003	-0.078
Mof_H 	H 	0.0416	0.242	0.5447	0.055
Mof_C 	C 	0.97852	0.1904	0.47704	0.015
Mof_H 	H 	0.994	0.1262	0.4726	0.042
Mof_C 	C 	0.01428	0.4267	0.57608	0.083
Mof_C 	C 	0.06875	0.4227	0.60288	-0.125
Mof_H 	H 	0.0888	0.3722	0.5904	0.068
Mof_C 	C 	0.09405	0.493	0.64823	0.05
Mof_C 	C 	0.06268	0.5673	0.66301	-0.124
Mof_H 	H 	0.0784	0.6176	0.6931	0.077
Mof_C 	C 	0.00857	0.5679	0.63382	0.084
Mof_C 	C 	0.97392	0.6435	0.65006	0.03
Mof_C 	C 	0.92511	0.6129	0.65412	-0.089
Mof_H 	H 	0.9124	0.5453	0.6422	0.068
Mof_C 	C 	0.89509	0.6801	0.67532	0.025
Mof_H 	H 	0.862	0.658	0.6784	0.032
Mof_C 	C 	0.91242	0.7789	0.69215	-0.103
Mof_C 	C 	0.95954	0.8112	0.68527	0.029
Mof_H 	H 	0.9709	0.8803	0.6948	0.042
Mof_C 	C 	0.99013	0.7447	0.66488	-0.089
Mof_H 	H 	0.0227	0.7679	0.6608	0.071
Mof_C 	C 	0.8834	0.8465	0.72274	0.329
Mof_C 	C 	0.15175	0.4883	0.67973	0.054
Mof_C 	C 	0.18039	0.5753	0.70802	-0.137
Mof_H 	H 	0.1632	0.64	0.7057	0.093
Mof_C 	C 	0.2337	0.5657	0.73921	0.084
Mof_H 	H 	0.2525	0.6252	0.7582	-0.014
Mof_C 	C 	0.23308	0.3944	0.71704	0.076
Mof_H 	H 	0.2514	0.3309	0.7201	0.014
Mof_C 	C 	0.17988	0.3967	0.68502	-0.128
Mof_H 	H 	0.1623	0.3357	0.6665	0.065
Mof_N 	N 	0.98419	0.4985	0.59141	-0.133
Mof_N 	N 	0.26038	0.4774	0.74422	-0.199
Mof_O 	O 	0.91879	0.05575	0.38556	-0.314
Mof_O 	O 	0.85409	0.167	0.356	-0.335
Mof_O 	O 	0.9051	0.9275	0.7481	-0.34
Mof_O 	O 	0.84062	0.818	0.72664	-0.312
Mof_Mn	Mn	0.34728	0.46819	0.79419	0.744
_end
