data_functionalizedCrystal
_audit_creation_method	'EQeq! by Chris Wilmer'
_symmetry_space_group_name_H-M	'P1'
_symmetry_Int_Tables_number	1
_symmetry_cell_setting	triclinic
loop_
_symmetry_equiv_pos_as_xyz
  x,y,z
_cell_length_a	6.533
_cell_length_b	10.453
_cell_length_c	19.293
_cell_angle_alpha	90
_cell_angle_beta	90
_cell_angle_gamma	90
loop_
_atom_site_label
_atom_site_type_symbol
_atom_site_fract_x
_atom_site_fract_y
_atom_site_fract_z
_atom_site_charge
Mof_N 	N 	0.3116	0.7972	0.8064	-0.16
Mof_C 	C 	0.3161	0.9099	0.759	0.025
Mof_C 	C 	0.3161	0.8439	0.8793	0.022
Mof_H 	H 	0.6202	0.0862	0.8525	-0.002
Mof_H 	H 	0.3147	0.8805	0.7113	-0.011
Mof_H 	H 	0.1944	0.9613	0.7665	-0.006
Mof_H 	H 	0.1938	0.8937	0.8885	-0.012
Mof_H 	H 	0.3167	0.7713	0.9106	-0.014
Mof_N 	N 	0.3116	0.2028	0.1936	-0.164
Mof_C 	C 	0.3161	0.0901	0.241	0.031
Mof_C 	C 	0.3161	0.1561	0.1207	0.03
Mof_H 	H 	0.6202	0.9138	0.1475	-0.018
Mof_H 	H 	0.3147	0.1195	0.2887	-0.019
Mof_H 	H 	0.1944	0.0387	0.2335	-0.02
Mof_H 	H 	0.1938	0.1063	0.1115	-0.027
Mof_H 	H 	0.3167	0.2287	0.0894	-0.026
Mof_N 	N 	0.1884	0.7028	0.3064	-0.162
Mof_C 	C 	0.1839	0.5901	0.259	0.024
Mof_C 	C 	0.1839	0.6561	0.3793	0.022
Mof_H 	H 	0.8798	0.4138	0.3525	0.018
Mof_H 	H 	0.1853	0.6195	0.2113	-0.016
Mof_H 	H 	0.3056	0.5387	0.2665	-0.007
Mof_H 	H 	0.3062	0.6063	0.3885	-0.015
Mof_H 	H 	0.1833	0.7287	0.4106	-0.022
Mof_N 	N 	0.1884	0.2972	0.6936	-0.162
Mof_C 	C 	0.1839	0.4099	0.741	0.023
Mof_C 	C 	0.1839	0.3439	0.6207	0.024
Mof_H 	H 	0.8798	0.5862	0.6475	0.02
Mof_H 	H 	0.1853	0.3805	0.7887	-0.013
Mof_H 	H 	0.3056	0.4613	0.7335	-0.005
Mof_H 	H 	0.3062	0.3937	0.6115	-0.015
Mof_H 	H 	0.1833	0.2713	0.5894	-0.025
Mof_N 	N 	0.6884	0.2028	0.1936	-0.156
Mof_C 	C 	0.6839	0.0901	0.241	0.023
Mof_C 	C 	0.6839	0.1561	0.1207	0.022
Mof_H 	H 	0.3798	0.9138	0.1475	-0.023
Mof_H 	H 	0.6853	0.1195	0.2887	-0.01
Mof_H 	H 	0.8056	0.0387	0.2335	-0.004
Mof_H 	H 	0.8062	0.1063	0.1115	-0.011
Mof_H 	H 	0.6833	0.2287	0.0894	-0.017
Mof_N 	N 	0.6884	0.7972	0.8064	-0.153
Mof_C 	C 	0.6839	0.9099	0.759	0.017
Mof_C 	C 	0.6839	0.8439	0.8793	0.014
Mof_H 	H 	0.3798	0.0862	0.8525	-0.007
Mof_H 	H 	0.6853	0.8805	0.7113	-0.003
Mof_H 	H 	0.8056	0.9613	0.7665	0.009
Mof_H 	H 	0.8062	0.8937	0.8885	0.004
Mof_H 	H 	0.6833	0.7713	0.9106	-0.005
Mof_N 	N 	0.8116	0.2972	0.6936	-0.156
Mof_C 	C 	0.8161	0.4099	0.741	0.05
Mof_C 	C 	0.8161	0.3439	0.6207	0.05
Mof_H 	H 	0.1202	0.5862	0.6475	-0.001
Mof_H 	H 	0.8147	0.3805	0.7887	-0.009
Mof_H 	H 	0.6944	0.4613	0.7335	-0.011
Mof_H 	H 	0.6938	0.3937	0.6115	-0.021
Mof_H 	H 	0.8167	0.2713	0.5894	-0.021
Mof_N 	N 	0.8116	0.7028	0.3064	-0.156
Mof_C 	C 	0.8161	0.5901	0.259	0.051
Mof_C 	C 	0.8161	0.6561	0.3793	0.049
Mof_H 	H 	0.1202	0.4138	0.3525	-0.002
Mof_H 	H 	0.8147	0.6195	0.2113	-0.012
Mof_H 	H 	0.6944	0.5387	0.2665	-0.013
Mof_H 	H 	0.6938	0.6063	0.3885	-0.021
Mof_H 	H 	0.8167	0.7287	0.4106	-0.018
Mof_Ag	Ag	0.5	0.17763	0.70343	0.465
Mof_N 	N 	0.5	0.9897	0.7707	-0.15
Mof_N 	N 	0.5	0.9241	0.8924	-0.149
Mof_C 	C 	0.5	0.0339	0.8441	-0.015
Mof_C 	C 	0.5	0.7208	0.7941	0.023
Mof_H 	H 	0.5	0.6898	0.7467	-0.001
Mof_H 	H 	0.5	0.6471	0.8247	-0.007
Mof_Ag	Ag	0.5	0.82237	0.29657	0.498
Mof_N 	N 	0.5	0.0103	0.2293	-0.179
Mof_N 	N 	0.5	0.0759	0.1076	-0.179
Mof_C 	C 	0.5	0.9661	0.1559	0.057
Mof_C 	C 	0.5	0.2792	0.2059	0.024
Mof_H 	H 	0.5	0.3102	0.2533	-0.003
Mof_H 	H 	0.5	0.3529	0.1753	-0.01
Mof_Ag	Ag	2.25249e-33	0.32237	0.20343	0.435
Mof_N 	N 	2.21574e-32	0.5103	0.2707	-0.17
Mof_N 	N 	-5.23515e-33	0.5759	0.3924	-0.177
Mof_C 	C 	-1.535e-32	0.4661	0.3441	-0.032
Mof_C 	C 	-6.32359e-33	0.7792	0.2941	0.004
Mof_H 	H 	1.23116e-32	0.8102	0.2467	-0.004
Mof_H 	H 	2.27553e-32	0.8529	0.3247	-0.011
Mof_Ag	Ag	-1.034e-32	0.67763	0.79657	0.444
Mof_N 	N 	8.07523e-33	0.4897	0.7293	-0.169
Mof_N 	N 	-1.24324e-32	0.4241	0.6076	-0.177
Mof_C 	C 	7.26251e-33	0.5339	0.6559	-0.033
Mof_C 	C 	-3.0504e-32	0.2208	0.7059	0.008
Mof_H 	H 	8.34097e-33	0.1898	0.7533	-0.011
Mof_H 	H 	7.47731e-33	0.1471	0.6753	-0.02
Mof_Ag	Ag	0.5	0	-0	0.366
Mof_Ag	Ag	5.53629e-33	0.5	0.5	0.396
_end
