data_functionalizedCrystal
_audit_creation_method	'EQeq! by Chris Wilmer'
_symmetry_space_group_name_H-M	'P1'
_symmetry_Int_Tables_number	1
_symmetry_cell_setting	triclinic
loop_
_symmetry_equiv_pos_as_xyz
  x,y,z
_cell_length_a	16.4276
_cell_length_b	13.6108
_cell_length_c	6.863
_cell_angle_alpha	90
_cell_angle_beta	90
_cell_angle_gamma	90
loop_
_atom_site_label
_atom_site_type_symbol
_atom_site_fract_x
_atom_site_fract_y
_atom_site_fract_z
_atom_site_charge
Mof_O 	O 	0.16479	0.83993	0.12879	-0.978
Mof_C 	C 	0.03733	0.97102	0.8224	0.079
Mof_H 	H 	0.06342	0.93404	0.68297	-0.016
Mof_O 	O 	0.66479	0.33993	0.62879	-0.977
Mof_C 	C 	0.53733	0.47102	0.3224	0.086
Mof_H 	H 	0.56342	0.43404	0.18297	-0.015
Mof_O 	O 	0.33521	0.83993	0.87121	-0.985
Mof_C 	C 	0.46267	0.97102	0.1776	0.085
Mof_H 	H 	0.43658	0.93404	0.31703	-0.017
Mof_O 	O 	0.83521	0.33993	0.37121	-0.976
Mof_C 	C 	0.96267	0.47102	0.6776	0.085
Mof_H 	H 	0.93658	0.43404	0.81703	-0.019
Mof_O 	O 	0.66479	0.16007	0.87121	-0.985
Mof_C 	C 	0.53733	0.02898	0.1776	0.085
Mof_H 	H 	0.56342	0.06596	0.31703	-0.017
Mof_O 	O 	0.16479	0.66007	0.37121	-0.976
Mof_C 	C 	0.03733	0.52898	0.6776	0.085
Mof_H 	H 	0.06342	0.56596	0.81703	-0.019
Mof_O 	O 	0.83521	0.16007	0.12879	-0.978
Mof_C 	C 	0.96267	0.02898	0.8224	0.079
Mof_H 	H 	0.93658	0.06596	0.68297	-0.016
Mof_O 	O 	0.33521	0.66007	0.62879	-0.977
Mof_C 	C 	0.46267	0.52898	0.3224	0.086
Mof_H 	H 	0.43658	0.56596	0.18297	-0.015
Mof_O 	O 	0.83521	0.16007	0.87121	-0.984
Mof_C 	C 	0.96267	0.02898	0.1776	0.085
Mof_H 	H 	0.93658	0.06596	0.31703	-0.017
Mof_O 	O 	0.33521	0.66007	0.37121	-0.976
Mof_C 	C 	0.46267	0.52898	0.6776	0.085
Mof_H 	H 	0.43658	0.56596	0.81703	-0.019
Mof_O 	O 	0.66479	0.16007	0.12879	-0.978
Mof_C 	C 	0.53733	0.02898	0.8224	0.079
Mof_H 	H 	0.56342	0.06596	0.68297	-0.016
Mof_O 	O 	0.16479	0.66007	0.62879	-0.977
Mof_C 	C 	0.03733	0.52898	0.3224	0.086
Mof_H 	H 	0.06342	0.56596	0.18297	-0.015
Mof_O 	O 	0.33521	0.83993	0.12879	-0.978
Mof_C 	C 	0.46267	0.97102	0.8224	0.079
Mof_H 	H 	0.43658	0.93404	0.68297	-0.016
Mof_O 	O 	0.83521	0.33993	0.62879	-0.977
Mof_C 	C 	0.96267	0.47102	0.3224	0.086
Mof_H 	H 	0.93658	0.43404	0.18297	-0.015
Mof_O 	O 	0.16479	0.83993	0.87121	-0.984
Mof_C 	C 	0.03733	0.97102	0.1776	0.085
Mof_H 	H 	0.06342	0.93404	0.31703	-0.017
Mof_O 	O 	0.66479	0.33993	0.37121	-0.976
Mof_C 	C 	0.53733	0.47102	0.6776	0.085
Mof_H 	H 	0.56342	0.43404	0.81703	-0.019
Mof_C 	C 	0.06831	0.94703	-0	-0.444
Mof_C 	C 	0.1276	0.86979	-0	1.168
Mof_C 	C 	0.56831	0.44703	0.5	-0.449
Mof_C 	C 	0.6276	0.36979	0.5	1.158
Mof_C 	C 	0.43169	0.94703	-0	-0.444
Mof_C 	C 	0.3724	0.86979	-0	1.168
Mof_C 	C 	0.93169	0.44703	0.5	-0.449
Mof_C 	C 	0.8724	0.36979	0.5	1.158
Mof_C 	C 	0.56831	0.05297	-0	-0.444
Mof_C 	C 	0.6276	0.13021	-0	1.168
Mof_C 	C 	0.06831	0.55297	0.5	-0.449
Mof_C 	C 	0.1276	0.63021	0.5	1.158
Mof_C 	C 	0.93169	0.05297	-0	-0.444
Mof_C 	C 	0.8724	0.13021	-0	1.168
Mof_C 	C 	0.43169	0.55297	0.5	-0.449
Mof_C 	C 	0.3724	0.63021	0.5	1.158
Mof_Cr	Cr	0.25	0.75	0.25	3.738
Mof_Cr	Cr	0.25	0.75	0.75	3.73
Mof_Cr	Cr	0.75	0.25	0.75	3.73
Mof_Cr	Cr	0.75	0.25	0.25	3.738
Mof_O 	O 	0.25	0.72457	-0	-1.517
Mof_O 	O 	0.75	0.22457	0.5	-1.522
Mof_O 	O 	0.75	0.27543	-0	-1.517
Mof_O 	O 	0.25	0.77543	0.5	-1.522
_end
