data_functionalizedCrystal
_audit_creation_method	'EQeq! by Chris Wilmer'
_symmetry_space_group_name_H-M	'P1'
_symmetry_Int_Tables_number	1
_symmetry_cell_setting	triclinic
loop_
_symmetry_equiv_pos_as_xyz
  x,y,z
_cell_length_a	13.3088
_cell_length_b	13.3088
_cell_length_c	20.4387
_cell_angle_alpha	90
_cell_angle_beta	90
_cell_angle_gamma	90
loop_
_atom_site_label
_atom_site_type_symbol
_atom_site_fract_x
_atom_site_fract_y
_atom_site_fract_z
_atom_site_charge
Mof_N 	N 	0.1304	0.1744	0.4351	-0.21
Mof_N 	N 	0.1929	0.0928	0.4336	-0.131
Mof_C 	C 	0.251	0.2164	0.281	0.12
Mof_C 	C 	0.2334	0.3162	0.2595	-0.142
Mof_H 	H 	0.2198	0.3832	0.246	0.075
Mof_C 	C 	0.2465	0.1029	0.3787	-0.192
Mof_H 	H 	0.3	0.0592	0.3668	0.115
Mof_C 	C 	0.143	0.229	0.3801	-0.135
Mof_H 	H 	0.1079	0.289	0.3697	0.086
Mof_N 	N 	0.216	0.1832	0.3411	0.003
Mof_C 	C 	0.2727	0.1243	0.3	0.074
Mof_C 	C 	0.3482	0.1953	0.2619	-0.116
Mof_H 	H 	0.3937	0.1607	0.2897	0.064
Mof_H 	H 	0.2871	0.0576	0.3136	-0.006
Mof_C 	C 	0.2042	0.2815	0.3202	0.064
Mof_H 	H 	0.1693	0.327	0.3479	-0.007
Mof_C 	C 	0.1845	0.148	0.4055	0.689
Mof_O 	O 	0.1129	0.1992	0.4274	-0.195
Mof_O 	O 	0.2211	0.0741	0.4268	-0.304
Mof_C 	C 	0.2216	0.1853	0.3443	-0.198
Mof_N 	N 	0.8696	0.8256	0.4351	-0.22
Mof_N 	N 	0.8071	0.9072	0.4336	-0.147
Mof_C 	C 	0.749	0.7836	0.281	0.127
Mof_C 	C 	0.7666	0.6838	0.2595	-0.109
Mof_H 	H 	0.7802	0.6168	0.246	0.062
Mof_C 	C 	0.7535	0.8971	0.3787	-0.208
Mof_H 	H 	0.7	0.9408	0.3668	0.109
Mof_C 	C 	0.857	0.771	0.3801	-0.147
Mof_H 	H 	0.8921	0.711	0.3697	0.078
Mof_N 	N 	0.784	0.8168	0.3411	0.003
Mof_C 	C 	0.7273	0.8757	0.3	0.066
Mof_C 	C 	0.6518	0.8047	0.2619	-0.116
Mof_H 	H 	0.6063	0.8393	0.2897	0.059
Mof_H 	H 	0.7129	0.9424	0.3136	-0.016
Mof_C 	C 	0.7958	0.7185	0.3202	0.049
Mof_H 	H 	0.8307	0.673	0.3479	-0.005
Mof_C 	C 	0.8155	0.852	0.4055	0.708
Mof_O 	O 	0.8871	0.8008	0.4274	-0.199
Mof_O 	O 	0.7789	0.9259	0.4268	-0.309
Mof_C 	C 	0.7784	0.8147	0.3443	-0.198
Mof_N 	N 	0.8256	0.1304	0.4351	-0.206
Mof_N 	N 	0.9072	0.1929	0.4336	-0.152
Mof_C 	C 	0.7836	0.251	0.281	0.124
Mof_C 	C 	0.6838	0.2334	0.2595	-0.119
Mof_H 	H 	0.6168	0.2198	0.246	0.068
Mof_C 	C 	0.8971	0.2465	0.3787	-0.207
Mof_H 	H 	0.9408	0.3	0.3668	0.108
Mof_C 	C 	0.771	0.143	0.3801	-0.138
Mof_H 	H 	0.711	0.1079	0.3697	0.087
Mof_N 	N 	0.8168	0.216	0.3411	0.003
Mof_C 	C 	0.8757	0.2727	0.3	0.071
Mof_C 	C 	0.8047	0.3482	0.2619	-0.116
Mof_H 	H 	0.8393	0.3937	0.2897	0.059
Mof_H 	H 	0.9424	0.2871	0.3136	-0.017
Mof_C 	C 	0.7185	0.2042	0.3202	0.054
Mof_H 	H 	0.673	0.1693	0.3479	-0.004
Mof_C 	C 	0.852	0.1845	0.4055	0.704
Mof_O 	O 	0.8008	0.1129	0.4274	-0.206
Mof_O 	O 	0.9259	0.2211	0.4268	-0.301
Mof_C 	C 	0.8147	0.2216	0.3443	-0.198
Mof_N 	N 	0.1744	0.8696	0.4351	-0.224
Mof_N 	N 	0.0928	0.8071	0.4336	-0.127
Mof_C 	C 	0.2164	0.749	0.281	0.123
Mof_C 	C 	0.3162	0.7666	0.2595	-0.13
Mof_H 	H 	0.3832	0.7802	0.246	0.069
Mof_C 	C 	0.1029	0.7535	0.3787	-0.194
Mof_H 	H 	0.0592	0.7	0.3668	0.115
Mof_C 	C 	0.229	0.857	0.3801	-0.144
Mof_H 	H 	0.289	0.8921	0.3697	0.077
Mof_N 	N 	0.1832	0.784	0.3411	0.003
Mof_C 	C 	0.1243	0.7273	0.3	0.068
Mof_C 	C 	0.1953	0.6518	0.2619	-0.117
Mof_H 	H 	0.1607	0.6063	0.2897	0.065
Mof_H 	H 	0.0576	0.7129	0.3136	-0.006
Mof_C 	C 	0.2815	0.7958	0.3202	0.058
Mof_H 	H 	0.327	0.8307	0.3479	-0.007
Mof_C 	C 	0.148	0.8155	0.4055	0.694
Mof_O 	O 	0.1992	0.8871	0.4274	-0.188
Mof_O 	O 	0.0741	0.7789	0.4268	-0.312
Mof_C 	C 	0.1853	0.7784	0.3443	-0.198
Mof_N 	N 	0.3696	0.6744	0.0649	-0.224
Mof_N 	N 	0.3071	0.5928	0.0664	-0.152
Mof_C 	C 	0.249	0.7164	0.219	0.128
Mof_C 	C 	0.2666	0.8162	0.2405	-0.131
Mof_H 	H 	0.2802	0.8832	0.254	0.063
Mof_C 	C 	0.2535	0.6029	0.1213	-0.21
Mof_H 	H 	0.2	0.5592	0.1332	0.109
Mof_C 	C 	0.357	0.729	0.1199	-0.147
Mof_H 	H 	0.3921	0.789	0.1303	0.077
Mof_N 	N 	0.284	0.6832	0.1589	0.002
Mof_C 	C 	0.2273	0.6243	0.2	0.062
Mof_C 	C 	0.1518	0.6953	0.2381	-0.145
Mof_H 	H 	0.1063	0.6607	0.2103	0.07
Mof_H 	H 	0.2129	0.5576	0.1864	-0.007
Mof_C 	C 	0.2958	0.7815	0.1798	0.053
Mof_H 	H 	0.3307	0.827	0.1521	-0.014
Mof_C 	C 	0.3155	0.648	0.0945	0.708
Mof_O 	O 	0.3871	0.6992	0.0726	-0.204
Mof_O 	O 	0.2789	0.5741	0.0732	-0.308
Mof_C 	C 	0.2784	0.6853	0.1557	-0.196
Mof_N 	N 	0.6304	0.3256	0.0649	-0.219
Mof_N 	N 	0.6929	0.4072	0.0664	-0.156
Mof_C 	C 	0.751	0.2836	0.219	0.125
Mof_C 	C 	0.7334	0.1838	0.2405	-0.143
Mof_H 	H 	0.7198	0.1168	0.254	0.076
Mof_C 	C 	0.7465	0.3971	0.1213	-0.212
Mof_H 	H 	0.8	0.4408	0.1332	0.106
Mof_C 	C 	0.643	0.271	0.1199	-0.148
Mof_H 	H 	0.6079	0.211	0.1303	0.08
Mof_N 	N 	0.716	0.3168	0.1589	0.001
Mof_C 	C 	0.7727	0.3757	0.2	0.062
Mof_C 	C 	0.8482	0.3047	0.2381	-0.147
Mof_H 	H 	0.8937	0.3393	0.2103	0.062
Mof_H 	H 	0.7871	0.4424	0.1864	-0.009
Mof_C 	C 	0.7042	0.2185	0.1798	0.057
Mof_H 	H 	0.6693	0.173	0.1521	-0.011
Mof_C 	C 	0.6845	0.352	0.0945	0.709
Mof_O 	O 	0.6129	0.3008	0.0726	-0.208
Mof_O 	O 	0.7211	0.4259	0.0732	-0.305
Mof_C 	C 	0.7216	0.3147	0.1557	-0.196
Mof_N 	N 	0.6744	0.6304	0.0649	-0.222
Mof_N 	N 	0.5928	0.6929	0.0664	-0.155
Mof_C 	C 	0.7164	0.751	0.219	0.119
Mof_C 	C 	0.8162	0.7334	0.2405	-0.151
Mof_H 	H 	0.8832	0.7198	0.254	0.068
Mof_C 	C 	0.6029	0.7465	0.1213	-0.214
Mof_H 	H 	0.5592	0.8	0.1332	0.106
Mof_C 	C 	0.729	0.643	0.1199	-0.15
Mof_H 	H 	0.789	0.6079	0.1303	0.079
Mof_N 	N 	0.6832	0.716	0.1589	-0
Mof_C 	C 	0.6243	0.7727	0.2	0.065
Mof_C 	C 	0.6953	0.8482	0.2381	-0.146
Mof_H 	H 	0.6607	0.8937	0.2103	0.06
Mof_H 	H 	0.5576	0.7871	0.1864	-0.01
Mof_C 	C 	0.7815	0.7042	0.1798	0.06
Mof_H 	H 	0.827	0.6693	0.1521	-0.019
Mof_C 	C 	0.648	0.6845	0.0945	0.71
Mof_O 	O 	0.6992	0.6129	0.0726	-0.208
Mof_O 	O 	0.5741	0.7211	0.0732	-0.307
Mof_C 	C 	0.6853	0.7216	0.1557	-0.195
Mof_N 	N 	0.3256	0.3696	0.0649	-0.222
Mof_N 	N 	0.4072	0.3071	0.0664	-0.153
Mof_C 	C 	0.2836	0.249	0.219	0.135
Mof_C 	C 	0.1838	0.2666	0.2405	-0.121
Mof_H 	H 	0.1168	0.2802	0.254	0.072
Mof_C 	C 	0.3971	0.2535	0.1213	-0.208
Mof_H 	H 	0.4408	0.2	0.1332	0.109
Mof_C 	C 	0.271	0.357	0.1199	-0.144
Mof_H 	H 	0.211	0.3921	0.1303	0.079
Mof_N 	N 	0.3168	0.284	0.1589	0.002
Mof_C 	C 	0.3757	0.2273	0.2	0.059
Mof_C 	C 	0.3047	0.1518	0.2381	-0.147
Mof_H 	H 	0.3393	0.1063	0.2103	0.073
Mof_H 	H 	0.4424	0.2129	0.1864	-0.006
Mof_C 	C 	0.2185	0.2958	0.1798	0.049
Mof_H 	H 	0.173	0.3307	0.1521	-0.006
Mof_C 	C 	0.352	0.3155	0.0945	0.707
Mof_O 	O 	0.3008	0.3871	0.0726	-0.205
Mof_O 	O 	0.4259	0.2789	0.0732	-0.306
Mof_C 	C 	0.3147	0.2784	0.1557	-0.196
Mof_N 	N 	0.8696	0.8256	0.5649	-0.22
Mof_N 	N 	0.8071	0.9072	0.5664	-0.149
Mof_C 	C 	0.749	0.7836	0.719	0.133
Mof_C 	C 	0.7666	0.6838	0.7405	-0.12
Mof_H 	H 	0.7802	0.6168	0.754	0.066
Mof_C 	C 	0.7535	0.8971	0.6213	-0.206
Mof_H 	H 	0.7	0.9408	0.6332	0.108
Mof_C 	C 	0.857	0.771	0.6199	-0.146
Mof_H 	H 	0.8921	0.711	0.6303	0.078
Mof_N 	N 	0.784	0.8168	0.6589	0.004
Mof_C 	C 	0.7273	0.8757	0.7	0.06
Mof_C 	C 	0.6518	0.8047	0.7381	-0.146
Mof_H 	H 	0.6063	0.8393	0.7103	0.07
Mof_H 	H 	0.7129	0.9424	0.6864	-0.012
Mof_C 	C 	0.7958	0.7185	0.6798	0.05
Mof_H 	H 	0.8307	0.673	0.6521	-0.004
Mof_C 	C 	0.8155	0.852	0.5945	0.708
Mof_O 	O 	0.8871	0.8008	0.5726	-0.199
Mof_O 	O 	0.7789	0.9259	0.5732	-0.307
Mof_C 	C 	0.7784	0.8147	0.6557	-0.198
Mof_N 	N 	0.1304	0.1744	0.5649	-0.209
Mof_N 	N 	0.1929	0.0928	0.5664	-0.133
Mof_C 	C 	0.251	0.2164	0.719	0.126
Mof_C 	C 	0.2334	0.3162	0.7405	-0.152
Mof_H 	H 	0.2198	0.3832	0.754	0.08
Mof_C 	C 	0.2465	0.1029	0.6213	-0.19
Mof_H 	H 	0.3	0.0592	0.6332	0.114
Mof_C 	C 	0.143	0.229	0.6199	-0.134
Mof_H 	H 	0.1079	0.289	0.6303	0.086
Mof_N 	N 	0.216	0.1832	0.6589	0.003
Mof_C 	C 	0.2727	0.1243	0.7	0.067
Mof_C 	C 	0.3482	0.1953	0.7381	-0.146
Mof_H 	H 	0.3937	0.1607	0.7103	0.075
Mof_H 	H 	0.2871	0.0576	0.6864	-0.002
Mof_C 	C 	0.2042	0.2815	0.6798	0.064
Mof_H 	H 	0.1693	0.327	0.6521	-0.006
Mof_C 	C 	0.1845	0.148	0.5945	0.689
Mof_O 	O 	0.1129	0.1992	0.5726	-0.194
Mof_O 	O 	0.2211	0.0741	0.5732	-0.302
Mof_C 	C 	0.2216	0.1853	0.6557	-0.198
Mof_N 	N 	0.1744	0.8696	0.5649	-0.224
Mof_N 	N 	0.0928	0.8071	0.5664	-0.129
Mof_C 	C 	0.2164	0.749	0.719	0.129
Mof_C 	C 	0.3162	0.7666	0.7405	-0.141
Mof_H 	H 	0.3832	0.7802	0.754	0.073
Mof_C 	C 	0.1029	0.7535	0.6213	-0.192
Mof_H 	H 	0.0592	0.7	0.6332	0.115
Mof_C 	C 	0.229	0.857	0.6199	-0.143
Mof_H 	H 	0.289	0.8921	0.6303	0.077
Mof_N 	N 	0.1832	0.784	0.6589	0.004
Mof_C 	C 	0.1243	0.7273	0.7	0.062
Mof_C 	C 	0.1953	0.6518	0.7381	-0.147
Mof_H 	H 	0.1607	0.6063	0.7103	0.075
Mof_H 	H 	0.0576	0.7129	0.6864	-0.002
Mof_C 	C 	0.2815	0.7958	0.6798	0.059
Mof_H 	H 	0.327	0.8307	0.6521	-0.007
Mof_C 	C 	0.148	0.8155	0.5945	0.694
Mof_O 	O 	0.1992	0.8871	0.5726	-0.188
Mof_O 	O 	0.0741	0.7789	0.5732	-0.31
Mof_C 	C 	0.1853	0.7784	0.6557	-0.198
Mof_N 	N 	0.8256	0.1304	0.5649	-0.206
Mof_N 	N 	0.9072	0.1929	0.5664	-0.154
Mof_C 	C 	0.7836	0.251	0.719	0.131
Mof_C 	C 	0.6838	0.2334	0.7405	-0.13
Mof_H 	H 	0.6168	0.2198	0.754	0.072
Mof_C 	C 	0.8971	0.2465	0.6213	-0.205
Mof_H 	H 	0.9408	0.3	0.6332	0.107
Mof_C 	C 	0.771	0.143	0.6199	-0.138
Mof_H 	H 	0.711	0.1079	0.6303	0.087
Mof_N 	N 	0.8168	0.216	0.6589	0.003
Mof_C 	C 	0.8757	0.2727	0.7	0.064
Mof_C 	C 	0.8047	0.3482	0.7381	-0.145
Mof_H 	H 	0.8393	0.3937	0.7103	0.07
Mof_H 	H 	0.9424	0.2871	0.6864	-0.013
Mof_C 	C 	0.7185	0.2042	0.6798	0.055
Mof_H 	H 	0.673	0.1693	0.6521	-0.003
Mof_C 	C 	0.852	0.1845	0.5945	0.704
Mof_O 	O 	0.8008	0.1129	0.5726	-0.206
Mof_O 	O 	0.9259	0.2211	0.5732	-0.299
Mof_C 	C 	0.8147	0.2216	0.6557	-0.198
Mof_N 	N 	0.6304	0.3256	0.9351	-0.188
Mof_N 	N 	0.6929	0.4072	0.9336	-0.12
Mof_C 	C 	0.751	0.2836	0.781	0.124
Mof_C 	C 	0.7334	0.1838	0.7595	-0.131
Mof_H 	H 	0.7198	0.1168	0.746	0.078
Mof_C 	C 	0.7465	0.3971	0.8787	-0.191
Mof_H 	H 	0.8	0.4408	0.8668	0.116
Mof_C 	C 	0.643	0.271	0.8801	-0.132
Mof_H 	H 	0.6079	0.211	0.8697	0.089
Mof_N 	N 	0.716	0.3168	0.8411	0.01
Mof_C 	C 	0.7727	0.3757	0.8	0.073
Mof_C 	C 	0.8482	0.3047	0.7619	-0.118
Mof_H 	H 	0.8937	0.3393	0.7897	0.064
Mof_H 	H 	0.7871	0.4424	0.8136	-0.011
Mof_C 	C 	0.7042	0.2185	0.8202	0.061
Mof_H 	H 	0.6693	0.173	0.8479	0.004
Mof_C 	C 	0.6845	0.352	0.9055	0.676
Mof_O 	O 	0.6129	0.3008	0.9274	-0.174
Mof_O 	O 	0.7211	0.4259	0.9268	-0.277
Mof_C 	C 	0.7216	0.3147	0.8443	-0.201
Mof_N 	N 	0.3696	0.6744	0.9351	-0.193
Mof_N 	N 	0.3071	0.5928	0.9336	-0.115
Mof_C 	C 	0.249	0.7164	0.781	0.127
Mof_C 	C 	0.2666	0.8162	0.7595	-0.119
Mof_H 	H 	0.2802	0.8832	0.746	0.065
Mof_C 	C 	0.2535	0.6029	0.8787	-0.189
Mof_H 	H 	0.2	0.5592	0.8668	0.12
Mof_C 	C 	0.357	0.729	0.8801	-0.132
Mof_H 	H 	0.3921	0.789	0.8697	0.085
Mof_N 	N 	0.284	0.6832	0.8411	0.011
Mof_C 	C 	0.2273	0.6243	0.8	0.072
Mof_C 	C 	0.1518	0.6953	0.7619	-0.116
Mof_H 	H 	0.1063	0.6607	0.7897	0.072
Mof_H 	H 	0.2129	0.5576	0.8136	-0.009
Mof_C 	C 	0.2958	0.7815	0.8202	0.056
Mof_H 	H 	0.3307	0.827	0.8479	0.001
Mof_C 	C 	0.3155	0.648	0.9055	0.675
Mof_O 	O 	0.3871	0.6992	0.9274	-0.17
Mof_O 	O 	0.2789	0.5741	0.9268	-0.28
Mof_C 	C 	0.2784	0.6853	0.8443	-0.201
Mof_N 	N 	0.3256	0.3696	0.9351	-0.19
Mof_N 	N 	0.4072	0.3071	0.9336	-0.116
Mof_C 	C 	0.2836	0.249	0.781	0.133
Mof_C 	C 	0.1838	0.2666	0.7595	-0.109
Mof_H 	H 	0.1168	0.2802	0.746	0.073
Mof_C 	C 	0.3971	0.2535	0.8787	-0.187
Mof_H 	H 	0.4408	0.2	0.8668	0.119
Mof_C 	C 	0.271	0.357	0.8801	-0.129
Mof_H 	H 	0.211	0.3921	0.8697	0.087
Mof_N 	N 	0.3168	0.284	0.8411	0.012
Mof_C 	C 	0.3757	0.2273	0.8	0.069
Mof_C 	C 	0.3047	0.1518	0.7619	-0.118
Mof_H 	H 	0.3393	0.1063	0.7897	0.075
Mof_H 	H 	0.4424	0.2129	0.8136	-0.008
Mof_C 	C 	0.2185	0.2958	0.8202	0.053
Mof_H 	H 	0.173	0.3307	0.8479	0.008
Mof_C 	C 	0.352	0.3155	0.9055	0.674
Mof_O 	O 	0.3008	0.3871	0.9274	-0.171
Mof_O 	O 	0.4259	0.2789	0.9268	-0.278
Mof_C 	C 	0.3147	0.2784	0.8443	-0.202
Mof_N 	N 	0.6744	0.6304	0.9351	-0.19
Mof_N 	N 	0.5928	0.6929	0.9336	-0.118
Mof_C 	C 	0.7164	0.751	0.781	0.118
Mof_C 	C 	0.8162	0.7334	0.7595	-0.139
Mof_H 	H 	0.8832	0.7198	0.746	0.069
Mof_C 	C 	0.6029	0.7465	0.8787	-0.193
Mof_H 	H 	0.5592	0.8	0.8668	0.116
Mof_C 	C 	0.729	0.643	0.8801	-0.135
Mof_H 	H 	0.789	0.6079	0.8697	0.087
Mof_N 	N 	0.6832	0.716	0.8411	0.009
Mof_C 	C 	0.6243	0.7727	0.8	0.075
Mof_C 	C 	0.6953	0.8482	0.7619	-0.117
Mof_H 	H 	0.6607	0.8937	0.7897	0.062
Mof_H 	H 	0.5576	0.7871	0.8136	-0.012
Mof_C 	C 	0.7815	0.7042	0.8202	0.064
Mof_H 	H 	0.827	0.6693	0.8479	-0.004
Mof_C 	C 	0.648	0.6845	0.9055	0.677
Mof_O 	O 	0.6992	0.6129	0.9274	-0.174
Mof_O 	O 	0.5741	0.7211	0.9268	-0.278
Mof_C 	C 	0.6853	0.7216	0.8443	-0.2
Mof_Cu	Cu	0.01707	0.1918	0.5	0.945
Mof_Cu	Cu	0.98293	0.8082	0.5	0.921
Mof_Cu	Cu	0.8082	0.01707	0.5	0.942
Mof_Cu	Cu	0.1918	0.98293	0.5	0.923
Mof_Cu	Cu	0.48293	0.6918	-0	0.891
Mof_Cu	Cu	0.51707	0.3082	-0	0.893
Mof_Cu	Cu	0.6918	0.51707	-0	0.891
Mof_Cu	Cu	0.3082	0.48293	-0	0.893
Mof_Cl	Cl	-4.09397e-33	-6.97299e-33	0.5	-0.61
Mof_Cl	Cl	0.5	0.5	-0	-0.723
_end
