data_functionalizedCrystal
_audit_creation_method	'EQeq! by Chris Wilmer'
_symmetry_space_group_name_H-M	'P1'
_symmetry_Int_Tables_number	1
_symmetry_cell_setting	triclinic
loop_
_symmetry_equiv_pos_as_xyz
  x,y,z
_cell_length_a	9.238
_cell_length_b	12.268
_cell_length_c	18.098
_cell_angle_alpha	90
_cell_angle_beta	91.41
_cell_angle_gamma	90
loop_
_atom_site_label
_atom_site_type_symbol
_atom_site_fract_x
_atom_site_fract_y
_atom_site_fract_z
_atom_site_charge
Mof_Ag	Ag	0.62558	0.43759	0.50856	0.47
Mof_Ag	Ag	0.8597	0.37105	0.25409	0.35
Mof_Ag	Ag	0.9163	0.41383	0.76005	0.368
Mof_Cu	Cu	0.1487	0.2121	0.51504	0.86
Mof_C 	C 	0.4408	0.3508	0.5059	-0.163
Mof_N 	N 	0.3434	0.2928	0.506	-0.195
Mof_C 	C 	0.9643	0.1681	0.6583	-0.124
Mof_N 	N 	0.0246	0.1864	0.6061	-0.208
Mof_C 	C 	0.805	0.4212	0.3585	-0.126
Mof_N 	N 	0.7644	0.4408	0.4162	-0.177
Mof_C 	C 	0.0063	0.135	0.3609	-0.106
Mof_N 	N 	0.0601	0.1601	0.4144	-0.205
Mof_C 	C 	0.8213	0.4518	0.6609	-0.133
Mof_N 	N 	0.7668	0.4607	0.603	-0.176
Mof_N 	N 	0.0526	0.3547	0.5015	-0.43
Mof_H 	H 	0.9764	0.3473	0.4708	0.115
Mof_H 	H 	0.1147	0.402	0.4826	0.112
Mof_H 	H 	0.0234	0.3791	0.545	0.112
Mof_N 	N 	0.2495	0.0703	0.5346	-0.275
Mof_C 	C 	0.2459	0.9843	0.493	0.148
Mof_H 	H 	0.192	0.988	0.449	-0.052
Mof_C 	C 	0.3148	0.8897	0.5089	-0.259
Mof_H 	H 	0.3074	0.8314	0.4762	0.089
Mof_C 	C 	0.3901	0.8802	0.5688	0.155
Mof_H 	H 	0.4426	0.8169	0.5786	-0.053
Mof_C 	C 	0.3924	0.9671	0.6199	-0.242
Mof_H 	H 	0.4375	0.962	0.6663	0.074
Mof_C 	C 	0.3224	0.0601	0.5957	0.135
Mof_H 	H 	0.3285	0.121	0.6262	-0.065
Mof_Ag	Ag	0.37442	0.93759	0.99144	0.47
Mof_Ag	Ag	0.1403	0.87105	0.24591	0.351
Mof_Ag	Ag	0.0837	0.91383	0.73995	0.364
Mof_Cu	Cu	0.8513	0.7121	0.98496	0.86
Mof_C 	C 	0.5592	0.8508	0.9941	-0.162
Mof_N 	N 	0.6566	0.7928	0.994	-0.195
Mof_C 	C 	0.0357	0.6681	0.8417	-0.123
Mof_N 	N 	0.9754	0.6864	0.8939	-0.208
Mof_C 	C 	0.195	0.9212	0.1415	-0.126
Mof_N 	N 	0.2356	0.9408	0.0838	-0.177
Mof_C 	C 	0.9937	0.635	0.1391	-0.108
Mof_N 	N 	0.9399	0.6601	0.0856	-0.205
Mof_C 	C 	0.1787	0.9518	0.8391	-0.134
Mof_N 	N 	0.2332	0.9607	0.897	-0.176
Mof_N 	N 	0.9474	0.8547	0.9985	-0.431
Mof_H 	H 	0.0236	0.8473	0.0292	0.115
Mof_H 	H 	0.8853	0.902	0.0174	0.114
Mof_H 	H 	0.9766	0.8791	0.955	0.113
Mof_N 	N 	0.7505	0.5703	0.9654	-0.274
Mof_C 	C 	0.7541	0.4843	0.007	0.148
Mof_H 	H 	0.808	0.488	0.051	-0.051
Mof_C 	C 	0.6852	0.3897	0.9911	-0.255
Mof_H 	H 	0.6926	0.3314	0.0238	0.088
Mof_C 	C 	0.6099	0.3802	0.9312	0.151
Mof_H 	H 	0.5574	0.3169	0.9214	-0.051
Mof_C 	C 	0.6076	0.4671	0.8801	-0.238
Mof_H 	H 	0.5625	0.462	0.8337	0.072
Mof_C 	C 	0.6776	0.5601	0.9043	0.132
Mof_H 	H 	0.6715	0.621	0.8738	-0.064
Mof_Ag	Ag	0.37442	0.56241	0.49144	0.471
Mof_Ag	Ag	0.1403	0.62895	0.74591	0.351
Mof_Ag	Ag	0.0837	0.58617	0.23995	0.368
Mof_Cu	Cu	0.8513	0.7879	0.48496	0.86
Mof_C 	C 	0.5592	0.6492	0.4941	-0.163
Mof_N 	N 	0.6566	0.7072	0.494	-0.195
Mof_C 	C 	0.0357	0.8319	0.3417	-0.124
Mof_N 	N 	0.9754	0.8136	0.3939	-0.208
Mof_C 	C 	0.195	0.5788	0.6415	-0.126
Mof_N 	N 	0.2356	0.5592	0.5838	-0.177
Mof_C 	C 	0.9937	0.865	0.6391	-0.106
Mof_N 	N 	0.9399	0.8399	0.5856	-0.205
Mof_C 	C 	0.1787	0.5482	0.3391	-0.133
Mof_N 	N 	0.2332	0.5393	0.397	-0.176
Mof_N 	N 	0.9474	0.6453	0.4985	-0.43
Mof_H 	H 	0.0236	0.6527	0.5292	0.115
Mof_H 	H 	0.8853	0.598	0.5174	0.112
Mof_H 	H 	0.9766	0.6209	0.455	0.112
Mof_N 	N 	0.7505	0.9297	0.4654	-0.275
Mof_C 	C 	0.7541	0.0157	0.507	0.148
Mof_H 	H 	0.808	0.012	0.551	-0.052
Mof_C 	C 	0.6852	0.1103	0.4911	-0.259
Mof_H 	H 	0.6926	0.1686	0.5238	0.089
Mof_C 	C 	0.6099	0.1198	0.4312	0.155
Mof_H 	H 	0.5574	0.1831	0.4214	-0.053
Mof_C 	C 	0.6076	0.0329	0.3801	-0.242
Mof_H 	H 	0.5625	0.038	0.3337	0.074
Mof_C 	C 	0.6776	0.9399	0.4043	0.135
Mof_H 	H 	0.6715	0.879	0.3738	-0.065
Mof_Ag	Ag	0.62558	0.06241	0.00856	0.47
Mof_Ag	Ag	0.8597	0.12895	0.75409	0.351
Mof_Ag	Ag	0.9163	0.08617	0.26005	0.364
Mof_Cu	Cu	0.1487	0.2879	0.01504	0.86
Mof_C 	C 	0.4408	0.1492	0.0059	-0.162
Mof_N 	N 	0.3434	0.2072	0.006	-0.195
Mof_C 	C 	0.9643	0.3319	0.1583	-0.123
Mof_N 	N 	0.0246	0.3136	0.1061	-0.208
Mof_C 	C 	0.805	0.0788	0.8585	-0.126
Mof_N 	N 	0.7644	0.0592	0.9162	-0.177
Mof_C 	C 	0.0063	0.365	0.8609	-0.108
Mof_N 	N 	0.0601	0.3399	0.9144	-0.205
Mof_C 	C 	0.8213	0.0482	0.1609	-0.134
Mof_N 	N 	0.7668	0.0393	0.103	-0.176
Mof_N 	N 	0.0526	0.1453	0.0015	-0.431
Mof_H 	H 	0.9764	0.1527	0.9708	0.115
Mof_H 	H 	0.1147	0.098	0.9826	0.114
Mof_H 	H 	0.0234	0.1209	0.045	0.113
Mof_N 	N 	0.2495	0.4297	0.0346	-0.274
Mof_C 	C 	0.2459	0.5157	0.993	0.148
Mof_H 	H 	0.192	0.512	0.949	-0.051
Mof_C 	C 	0.3148	0.6103	0.0089	-0.255
Mof_H 	H 	0.3074	0.6686	0.9762	0.088
Mof_C 	C 	0.3901	0.6198	0.0688	0.151
Mof_H 	H 	0.4426	0.6831	0.0786	-0.051
Mof_C 	C 	0.3924	0.5329	0.1199	-0.238
Mof_H 	H 	0.4375	0.538	0.1663	0.072
Mof_C 	C 	0.3224	0.4399	0.0957	0.132
Mof_H 	H 	0.3285	0.379	0.1262	-0.064
_end
