data_functionalizedCrystal
_audit_creation_method	'EQeq! by Chris Wilmer'
_symmetry_space_group_name_H-M	'P1'
_symmetry_Int_Tables_number	1
_symmetry_cell_setting	triclinic
loop_
_symmetry_equiv_pos_as_xyz
  x,y,z
_cell_length_a	15.7072
_cell_length_b	10.713
_cell_length_c	24.4618
_cell_angle_alpha	90
_cell_angle_beta	94.28
_cell_angle_gamma	90
loop_
_atom_site_label
_atom_site_type_symbol
_atom_site_fract_x
_atom_site_fract_y
_atom_site_fract_z
_atom_site_charge
Mof_Zn	Zn	0.14165	0.4092	0.06848	1.224
Mof_O 	O 	0.5487	0.0008	0.0966	-0.467
Mof_O 	O 	0.2202	0.3284	0.1219	-0.453
Mof_N 	N 	0.1757	0.4652	0.5108	-0.245
Mof_N 	N 	0.2489	0.0493	0.2964	-0.111
Mof_C 	C 	0.3122	0.0145	0.2069	0.067
Mof_O 	O 	0.3078	0.2987	0.058	-0.301
Mof_C 	C 	0.2602	0.395	0.4398	-0.109
Mof_H 	H 	0.30963	0.40479	0.42011	0.066
Mof_C 	C 	0.3969	0.1135	0.122	-0.003
Mof_H 	H 	0.42626	0.14789	0.09292	0.062
Mof_C 	C 	0.3201	0.1663	0.1354	-0.057
Mof_C 	C 	0.2192	0.2127	0.3814	0.037
Mof_C 	C 	0.388	0.963	0.1931	-0.07
Mof_H 	H 	0.4111	0.8933	0.21318	0.076
Mof_C 	C 	0.2769	0.1168	0.1777	-0.065
Mof_H 	H 	0.22409	0.1516	0.18676	0.071
Mof_C 	C 	0.1562	0.1269	0.361	-0.112
Mof_H 	H 	0.10239	0.124	0.37627	0.072
Mof_C 	C 	0.1202	0.369	0.4979	0.046
Mof_H 	H 	0.07182	0.35913	0.5186	0.013
Mof_C 	C 	0.2027	0.2993	0.4254	0.049
Mof_C 	C 	0.2633	0.9558	0.2528	-0.124
Mof_H 	H 	0.20758	0.92378	0.23715	0.072
Mof_H 	H 	0.29629	0.88449	0.26912	0.086
Mof_C 	C 	0.31	0.1305	0.3142	0.048
Mof_H 	H 	0.36285	0.13245	0.29776	0.025
Mof_C 	C 	0.5124	0.9513	0.135	0.358
Mof_C 	C 	0.2806	0.2717	0.1021	0.331
Mof_C 	C 	0.4308	0.011	0.1507	-0.057
Mof_C 	C 	0.1732	0.0475	0.319	0.057
Mof_H 	H 	0.13057	0.99011	0.3055	0.019
Mof_C 	C 	0.1321	0.2859	0.456	-0.103
Mof_H 	H 	0.0924	0.22027	0.44809	0.064
Mof_C 	C 	0.296	0.2093	0.3556	-0.12
Mof_H 	H 	0.34034	0.26522	0.36792	0.069
Mof_O 	O 	0.5366	0.858	0.1577	-0.32
Mof_C 	C 	0.2465	0.4748	0.4818	0.06
Mof_H 	H 	0.28713	0.53852	0.49104	0.014
Mof_O 	O 	0.0914	0.2758	0.0182	-0.392
Mof_H 	H 	0.072	0.187	0.034	0.13
Mof_Zn	Zn	0.64165	0.9092	0.06848	1.222
Mof_O 	O 	0.0487	0.5008	0.0966	-0.472
Mof_O 	O 	0.7202	0.8284	0.1219	-0.455
Mof_N 	N 	0.6757	0.9652	0.5108	-0.245
Mof_N 	N 	0.7489	0.5493	0.2964	-0.112
Mof_C 	C 	0.8122	0.5145	0.2069	0.056
Mof_O 	O 	0.8078	0.7987	0.058	-0.304
Mof_C 	C 	0.7602	0.895	0.4398	-0.109
Mof_H 	H 	0.80963	0.90479	0.42011	0.066
Mof_C 	C 	0.8969	0.6135	0.122	0.004
Mof_H 	H 	0.92626	0.64789	0.09292	0.059
Mof_C 	C 	0.8201	0.6663	0.1354	-0.063
Mof_C 	C 	0.7192	0.7127	0.3814	0.036
Mof_C 	C 	0.888	0.463	0.1931	-0.056
Mof_H 	H 	0.9111	0.3933	0.21318	0.071
Mof_C 	C 	0.7769	0.6168	0.1777	-0.058
Mof_H 	H 	0.72409	0.6516	0.18676	0.069
Mof_C 	C 	0.6562	0.6269	0.361	-0.11
Mof_H 	H 	0.60239	0.624	0.37627	0.071
Mof_C 	C 	0.6202	0.869	0.4979	0.046
Mof_H 	H 	0.57182	0.85913	0.5186	0.013
Mof_C 	C 	0.7027	0.7993	0.4254	0.049
Mof_C 	C 	0.7633	0.4558	0.2528	-0.116
Mof_H 	H 	0.70758	0.42378	0.23715	0.071
Mof_H 	H 	0.79629	0.38449	0.26912	0.085
Mof_C 	C 	0.81	0.6305	0.3142	0.048
Mof_H 	H 	0.86285	0.63245	0.29776	0.024
Mof_C 	C 	0.0124	0.4513	0.135	0.366
Mof_C 	C 	0.7806	0.7717	0.1021	0.333
Mof_C 	C 	0.9308	0.511	0.1507	-0.069
Mof_C 	C 	0.6732	0.5475	0.319	0.054
Mof_H 	H 	0.63057	0.49011	0.3055	0.021
Mof_C 	C 	0.6321	0.7859	0.456	-0.103
Mof_H 	H 	0.5924	0.72027	0.44809	0.064
Mof_C 	C 	0.796	0.7093	0.3556	-0.12
Mof_H 	H 	0.84034	0.76522	0.36792	0.068
Mof_O 	O 	0.0366	0.358	0.1577	-0.322
Mof_C 	C 	0.7465	0.9748	0.4818	0.06
Mof_H 	H 	0.78713	0.03852	0.49104	0.014
Mof_O 	O 	0.5914	0.7758	0.0182	-0.393
Mof_H 	H 	0.572	0.687	0.034	0.13
Mof_Zn	Zn	0.14165	0.5908	0.56848	1.223
Mof_O 	O 	0.5487	0.9992	0.5966	-0.47
Mof_O 	O 	0.2202	0.6716	0.6219	-0.454
Mof_N 	N 	0.1757	0.5348	0.0108	-0.245
Mof_N 	N 	0.2489	0.9507	0.7964	-0.111
Mof_C 	C 	0.3122	0.9855	0.7069	0.065
Mof_O 	O 	0.3078	0.7013	0.558	-0.302
Mof_C 	C 	0.2602	0.605	0.9398	-0.11
Mof_H 	H 	0.30963	0.59521	0.92011	0.066
Mof_C 	C 	0.3969	0.8865	0.622	-0.001
Mof_H 	H 	0.42626	0.85211	0.59292	0.061
Mof_C 	C 	0.3201	0.8337	0.6354	-0.059
Mof_C 	C 	0.2192	0.7873	0.8814	0.037
Mof_C 	C 	0.388	0.037	0.6931	-0.066
Mof_H 	H 	0.4111	0.1067	0.71318	0.074
Mof_C 	C 	0.2769	0.8832	0.6777	-0.063
Mof_H 	H 	0.22409	0.8484	0.68676	0.071
Mof_C 	C 	0.1562	0.8731	0.861	-0.112
Mof_H 	H 	0.10239	0.876	0.87627	0.072
Mof_C 	C 	0.1202	0.631	0.9979	0.048
Mof_H 	H 	0.07182	0.64087	0.0186	0.012
Mof_C 	C 	0.2027	0.7007	0.9254	0.049
Mof_C 	C 	0.2633	0.0442	0.7528	-0.123
Mof_H 	H 	0.20758	0.07622	0.73715	0.072
Mof_H 	H 	0.29629	0.11551	0.76912	0.086
Mof_C 	C 	0.31	0.8695	0.8142	0.048
Mof_H 	H 	0.36285	0.86755	0.79776	0.025
Mof_C 	C 	0.5124	0.0487	0.635	0.361
Mof_C 	C 	0.2806	0.7283	0.6021	0.331
Mof_C 	C 	0.4308	0.989	0.6507	-0.061
Mof_C 	C 	0.1732	0.9525	0.819	0.059
Mof_H 	H 	0.13057	0.00989	0.8055	0.018
Mof_C 	C 	0.1321	0.7141	0.956	-0.104
Mof_H 	H 	0.0924	0.77973	0.94809	0.065
Mof_C 	C 	0.296	0.7907	0.8556	-0.121
Mof_H 	H 	0.34034	0.73478	0.86792	0.069
Mof_O 	O 	0.5366	0.142	0.6577	-0.321
Mof_C 	C 	0.2465	0.5252	0.9818	0.061
Mof_H 	H 	0.28713	0.46148	0.99104	0.014
Mof_O 	O 	0.0914	0.7242	0.5182	-0.392
Mof_H 	H 	0.072	0.813	0.534	0.13
Mof_Zn	Zn	0.64165	0.0908	0.56848	1.223
Mof_O 	O 	0.0487	0.4992	0.5966	-0.472
Mof_O 	O 	0.7202	0.1716	0.6219	-0.454
Mof_N 	N 	0.6757	0.0348	0.0108	-0.24
Mof_N 	N 	0.7489	0.4507	0.7964	-0.112
Mof_C 	C 	0.8122	0.4855	0.7069	0.056
Mof_O 	O 	0.8078	0.2013	0.558	-0.303
Mof_C 	C 	0.7602	0.105	0.9398	-0.104
Mof_H 	H 	0.80963	0.09521	0.92011	0.064
Mof_C 	C 	0.8969	0.3865	0.622	0.004
Mof_H 	H 	0.92626	0.35211	0.59292	0.06
Mof_C 	C 	0.8201	0.3337	0.6354	-0.063
Mof_C 	C 	0.7192	0.2873	0.8814	0.038
Mof_C 	C 	0.888	0.537	0.6931	-0.056
Mof_H 	H 	0.9111	0.6067	0.71318	0.071
Mof_C 	C 	0.7769	0.3832	0.6777	-0.058
Mof_H 	H 	0.72409	0.3484	0.68676	0.069
Mof_C 	C 	0.6562	0.3731	0.861	-0.111
Mof_H 	H 	0.60239	0.376	0.87627	0.071
Mof_C 	C 	0.6202	0.131	0.9979	0.038
Mof_H 	H 	0.57182	0.14087	0.0186	0.017
Mof_C 	C 	0.7027	0.2007	0.9254	0.045
Mof_C 	C 	0.7633	0.5442	0.7528	-0.116
Mof_H 	H 	0.70758	0.57622	0.73715	0.071
Mof_H 	H 	0.79629	0.61551	0.76912	0.085
Mof_C 	C 	0.81	0.3695	0.8142	0.048
Mof_H 	H 	0.86285	0.36755	0.79776	0.024
Mof_C 	C 	0.0124	0.5487	0.635	0.366
Mof_C 	C 	0.7806	0.2283	0.6021	0.333
Mof_C 	C 	0.9308	0.489	0.6507	-0.069
Mof_C 	C 	0.6732	0.4525	0.819	0.055
Mof_H 	H 	0.63057	0.50989	0.8055	0.021
Mof_C 	C 	0.6321	0.2141	0.956	-0.098
Mof_H 	H 	0.5924	0.27973	0.94809	0.062
Mof_C 	C 	0.796	0.2907	0.8556	-0.121
Mof_H 	H 	0.84034	0.23478	0.86792	0.069
Mof_O 	O 	0.0366	0.642	0.6577	-0.322
Mof_C 	C 	0.7465	0.0252	0.9818	0.051
Mof_H 	H 	0.78713	0.96148	0.99104	0.019
Mof_O 	O 	0.5914	0.2242	0.5182	-0.392
Mof_H 	H 	0.572	0.313	0.534	0.13
Mof_Zn	Zn	0.85835	0.4092	0.43152	1.223
Mof_O 	O 	0.4513	0.0008	0.4034	-0.47
Mof_O 	O 	0.7798	0.3284	0.3781	-0.454
Mof_N 	N 	0.8243	0.4652	0.9892	-0.245
Mof_N 	N 	0.7511	0.0493	0.2036	-0.111
Mof_C 	C 	0.6878	0.0145	0.2931	0.065
Mof_O 	O 	0.6922	0.2987	0.442	-0.302
Mof_C 	C 	0.7398	0.395	0.0602	-0.11
Mof_H 	H 	0.69037	0.40479	0.07989	0.066
Mof_C 	C 	0.6031	0.1135	0.378	-0.001
Mof_H 	H 	0.57374	0.14789	0.40708	0.061
Mof_C 	C 	0.6799	0.1663	0.3646	-0.059
Mof_C 	C 	0.7808	0.2127	0.1186	0.037
Mof_C 	C 	0.612	0.963	0.3069	-0.066
Mof_H 	H 	0.5889	0.8933	0.28682	0.074
Mof_C 	C 	0.7231	0.1168	0.3223	-0.063
Mof_H 	H 	0.77591	0.1516	0.31324	0.071
Mof_C 	C 	0.8438	0.1269	0.139	-0.112
Mof_H 	H 	0.89761	0.124	0.12373	0.072
Mof_C 	C 	0.8798	0.369	0.0021	0.048
Mof_H 	H 	0.92818	0.35913	0.9814	0.012
Mof_C 	C 	0.7973	0.2993	0.0746	0.049
Mof_C 	C 	0.7367	0.9558	0.2472	-0.123
Mof_H 	H 	0.79242	0.92378	0.26285	0.072
Mof_H 	H 	0.70371	0.88449	0.23088	0.086
Mof_C 	C 	0.69	0.1305	0.1858	0.048
Mof_H 	H 	0.63715	0.13245	0.20224	0.025
Mof_C 	C 	0.4876	0.9513	0.365	0.361
Mof_C 	C 	0.7194	0.2717	0.3979	0.331
Mof_C 	C 	0.5692	0.011	0.3493	-0.061
Mof_C 	C 	0.8268	0.0475	0.181	0.059
Mof_H 	H 	0.86943	0.99011	0.1945	0.018
Mof_C 	C 	0.8679	0.2859	0.044	-0.104
Mof_H 	H 	0.9076	0.22027	0.05191	0.065
Mof_C 	C 	0.704	0.2093	0.1444	-0.121
Mof_H 	H 	0.65966	0.26522	0.13208	0.069
Mof_O 	O 	0.4634	0.858	0.3423	-0.321
Mof_C 	C 	0.7535	0.4748	0.0182	0.061
Mof_H 	H 	0.71287	0.53852	0.00896	0.014
Mof_O 	O 	0.9086	0.2758	0.4818	-0.392
Mof_H 	H 	0.928	0.187	0.466	0.13
Mof_Zn	Zn	0.35835	0.9092	0.43152	1.223
Mof_O 	O 	0.9513	0.5008	0.4034	-0.472
Mof_O 	O 	0.2798	0.8284	0.3781	-0.454
Mof_N 	N 	0.3243	0.9652	0.9892	-0.24
Mof_N 	N 	0.2511	0.5493	0.2036	-0.112
Mof_C 	C 	0.1878	0.5145	0.2931	0.056
Mof_O 	O 	0.1922	0.7987	0.442	-0.303
Mof_C 	C 	0.2398	0.895	0.0602	-0.104
Mof_H 	H 	0.19037	0.90479	0.07989	0.064
Mof_C 	C 	0.1031	0.6135	0.378	0.004
Mof_H 	H 	0.07374	0.64789	0.40708	0.06
Mof_C 	C 	0.1799	0.6663	0.3646	-0.063
Mof_C 	C 	0.2808	0.7127	0.1186	0.038
Mof_C 	C 	0.112	0.463	0.3069	-0.056
Mof_H 	H 	0.0889	0.3933	0.28682	0.071
Mof_C 	C 	0.2231	0.6168	0.3223	-0.058
Mof_H 	H 	0.27591	0.6516	0.31324	0.069
Mof_C 	C 	0.3438	0.6269	0.139	-0.111
Mof_H 	H 	0.39761	0.624	0.12373	0.071
Mof_C 	C 	0.3798	0.869	0.0021	0.038
Mof_H 	H 	0.42818	0.85913	0.9814	0.017
Mof_C 	C 	0.2973	0.7993	0.0746	0.045
Mof_C 	C 	0.2367	0.4558	0.2472	-0.116
Mof_H 	H 	0.29242	0.42378	0.26285	0.071
Mof_H 	H 	0.20371	0.38449	0.23088	0.085
Mof_C 	C 	0.19	0.6305	0.1858	0.048
Mof_H 	H 	0.13715	0.63245	0.20224	0.024
Mof_C 	C 	0.9876	0.4513	0.365	0.366
Mof_C 	C 	0.2194	0.7717	0.3979	0.333
Mof_C 	C 	0.0692	0.511	0.3493	-0.069
Mof_C 	C 	0.3268	0.5475	0.181	0.055
Mof_H 	H 	0.36943	0.49011	0.1945	0.021
Mof_C 	C 	0.3679	0.7859	0.044	-0.098
Mof_H 	H 	0.4076	0.72027	0.05191	0.062
Mof_C 	C 	0.204	0.7093	0.1444	-0.121
Mof_H 	H 	0.15966	0.76522	0.13208	0.069
Mof_O 	O 	0.9634	0.358	0.3423	-0.322
Mof_C 	C 	0.2535	0.9748	0.0182	0.051
Mof_H 	H 	0.21287	0.03852	0.00896	0.019
Mof_O 	O 	0.4086	0.7758	0.4818	-0.392
Mof_H 	H 	0.428	0.687	0.466	0.13
Mof_Zn	Zn	0.85835	0.5908	0.93152	1.223
Mof_O 	O 	0.4513	0.9992	0.9034	-0.468
Mof_O 	O 	0.7798	0.6716	0.8781	-0.453
Mof_N 	N 	0.8243	0.5348	0.4892	-0.245
Mof_N 	N 	0.7511	0.9507	0.7036	-0.111
Mof_C 	C 	0.6878	0.9855	0.7931	0.067
Mof_O 	O 	0.6922	0.7013	0.942	-0.301
Mof_C 	C 	0.7398	0.605	0.5602	-0.109
Mof_H 	H 	0.69037	0.59521	0.57989	0.066
Mof_C 	C 	0.6031	0.8865	0.878	-0.003
Mof_H 	H 	0.57374	0.85211	0.90708	0.062
Mof_C 	C 	0.6799	0.8337	0.8646	-0.057
Mof_C 	C 	0.7808	0.7873	0.6186	0.037
Mof_C 	C 	0.612	0.037	0.8069	-0.07
Mof_H 	H 	0.5889	0.1067	0.78682	0.076
Mof_C 	C 	0.7231	0.8832	0.8223	-0.065
Mof_H 	H 	0.77591	0.8484	0.81324	0.071
Mof_C 	C 	0.8438	0.8731	0.639	-0.112
Mof_H 	H 	0.89761	0.876	0.62373	0.072
Mof_C 	C 	0.8798	0.631	0.5021	0.046
Mof_H 	H 	0.92818	0.64087	0.4814	0.013
Mof_C 	C 	0.7973	0.7007	0.5746	0.049
Mof_C 	C 	0.7367	0.0442	0.7472	-0.124
Mof_H 	H 	0.79242	0.07622	0.76285	0.072
Mof_H 	H 	0.70371	0.11551	0.73088	0.086
Mof_C 	C 	0.69	0.8695	0.6858	0.048
Mof_H 	H 	0.63715	0.86755	0.70224	0.025
Mof_C 	C 	0.4876	0.0487	0.865	0.358
Mof_C 	C 	0.7194	0.7283	0.8979	0.331
Mof_C 	C 	0.5692	0.989	0.8493	-0.057
Mof_C 	C 	0.8268	0.9525	0.681	0.057
Mof_H 	H 	0.86943	0.00989	0.6945	0.019
Mof_C 	C 	0.8679	0.7141	0.544	-0.103
Mof_H 	H 	0.9076	0.77973	0.55191	0.064
Mof_C 	C 	0.704	0.7907	0.6444	-0.12
Mof_H 	H 	0.65966	0.73478	0.63208	0.069
Mof_O 	O 	0.4634	0.142	0.8423	-0.32
Mof_C 	C 	0.7535	0.5252	0.5182	0.06
Mof_H 	H 	0.71287	0.46148	0.50896	0.014
Mof_O 	O 	0.9086	0.7242	0.9818	-0.392
Mof_H 	H 	0.928	0.813	0.966	0.13
Mof_Zn	Zn	0.35835	0.0908	0.93152	1.222
Mof_O 	O 	0.9513	0.4992	0.9034	-0.472
Mof_O 	O 	0.2798	0.1716	0.8781	-0.455
Mof_N 	N 	0.3243	0.0348	0.4892	-0.245
Mof_N 	N 	0.2511	0.4507	0.7036	-0.112
Mof_C 	C 	0.1878	0.4855	0.7931	0.056
Mof_O 	O 	0.1922	0.2013	0.942	-0.304
Mof_C 	C 	0.2398	0.105	0.5602	-0.109
Mof_H 	H 	0.19037	0.09521	0.57989	0.066
Mof_C 	C 	0.1031	0.3865	0.878	0.004
Mof_H 	H 	0.07374	0.35211	0.90708	0.059
Mof_C 	C 	0.1799	0.3337	0.8646	-0.063
Mof_C 	C 	0.2808	0.2873	0.6186	0.036
Mof_C 	C 	0.112	0.537	0.8069	-0.056
Mof_H 	H 	0.0889	0.6067	0.78682	0.071
Mof_C 	C 	0.2231	0.3832	0.8223	-0.058
Mof_H 	H 	0.27591	0.3484	0.81324	0.069
Mof_C 	C 	0.3438	0.3731	0.639	-0.11
Mof_H 	H 	0.39761	0.376	0.62373	0.071
Mof_C 	C 	0.3798	0.131	0.5021	0.046
Mof_H 	H 	0.42818	0.14087	0.4814	0.013
Mof_C 	C 	0.2973	0.2007	0.5746	0.049
Mof_C 	C 	0.2367	0.5442	0.7472	-0.116
Mof_H 	H 	0.29242	0.57622	0.76285	0.071
Mof_H 	H 	0.20371	0.61551	0.73088	0.085
Mof_C 	C 	0.19	0.3695	0.6858	0.048
Mof_H 	H 	0.13715	0.36755	0.70224	0.024
Mof_C 	C 	0.9876	0.5487	0.865	0.366
Mof_C 	C 	0.2194	0.2283	0.8979	0.333
Mof_C 	C 	0.0692	0.489	0.8493	-0.069
Mof_C 	C 	0.3268	0.4525	0.681	0.054
Mof_H 	H 	0.36943	0.50989	0.6945	0.021
Mof_C 	C 	0.3679	0.2141	0.544	-0.103
Mof_H 	H 	0.4076	0.27973	0.55191	0.064
Mof_C 	C 	0.204	0.2907	0.6444	-0.12
Mof_H 	H 	0.15966	0.23478	0.63208	0.068
Mof_O 	O 	0.9634	0.642	0.8423	-0.322
Mof_C 	C 	0.2535	0.0252	0.5182	0.06
Mof_H 	H 	0.21287	0.96148	0.50896	0.014
Mof_O 	O 	0.4086	0.2242	0.9818	-0.393
Mof_H 	H 	0.428	0.313	0.966	0.13
_end
