data_functionalizedCrystal
_audit_creation_method	'EQeq! by Chris Wilmer'
_symmetry_space_group_name_H-M	'P1'
_symmetry_Int_Tables_number	1
_symmetry_cell_setting	triclinic
loop_
_symmetry_equiv_pos_as_xyz
  x,y,z
_cell_length_a	10.4307
_cell_length_b	19.6228
_cell_length_c	12.7867
_cell_angle_alpha	90
_cell_angle_beta	90
_cell_angle_gamma	90
loop_
_atom_site_label
_atom_site_type_symbol
_atom_site_fract_x
_atom_site_fract_y
_atom_site_fract_z
_atom_site_charge
Mof_Ag	Ag	0.14245	0.46479	0.67302	0.413
Mof_Ag	Ag	0.85755	0.03521	0.67302	0.434
Mof_Ag	Ag	0.64245	0.03521	0.82698	0.42
Mof_Ag	Ag	0.35755	0.46479	0.82698	0.426
Mof_Ag	Ag	0.25	0.33366	0.25	0.413
Mof_Ag	Ag	0.75	0.16634	0.25	0.434
Mof_Ag	Ag	3.81298e-33	0.75	0.82958	0.374
Mof_Ag	Ag	0.5	0.75	0.67042	0.412
Mof_H 	H 	0.2172	0.3002	0.6478	-0.005
Mof_H 	H 	0.2496	0.2449	0.4763	-0.011
Mof_H 	H 	0.1913	0.4613	0.3342	0.119
Mof_H 	H 	0.2527	0.4972	0.4347	0.131
Mof_H 	H 	0.1009	0.4866	0.4275	0.104
Mof_H 	H 	0.9885	0.6126	0.9786	0.035
Mof_H 	H 	0.0411	0.4969	0.9158	-0.013
Mof_H 	H 	0.103	0.6867	0.6453	0.119
Mof_H 	H 	0.0609	0.6168	0.5908	0.129
Mof_H 	H 	0.2054	0.6268	0.6301	0.141
Mof_H 	H 	0.7828	0.1998	0.6478	-0.002
Mof_H 	H 	0.7504	0.2551	0.4763	-0.01
Mof_H 	H 	0.8087	0.0387	0.3342	0.133
Mof_H 	H 	0.7473	0.0028	0.4347	0.139
Mof_H 	H 	0.8991	0.0134	0.4275	0.124
Mof_H 	H 	0.0115	0.8874	0.9786	-0.026
Mof_H 	H 	0.9589	0.0031	0.9158	0.005
Mof_H 	H 	0.897	0.8133	0.6453	0.135
Mof_H 	H 	0.9391	0.8832	0.5908	0.15
Mof_H 	H 	0.7946	0.8732	0.6301	0.149
Mof_H 	H 	0.7172	0.1998	0.8522	-0.002
Mof_H 	H 	0.7496	0.2551	0.0237	-0.008
Mof_H 	H 	0.6913	0.0387	0.1658	0.128
Mof_H 	H 	0.7527	0.0028	0.0653	0.139
Mof_H 	H 	0.6009	0.0134	0.0725	0.116
Mof_H 	H 	0.4885	0.8874	0.5214	0.004
Mof_H 	H 	0.5411	0.0031	0.5842	-0.004
Mof_H 	H 	0.603	0.8133	0.8547	0.126
Mof_H 	H 	0.5609	0.8832	0.9092	0.14
Mof_H 	H 	0.7054	0.8732	0.8699	0.146
Mof_H 	H 	0.2828	0.3002	0.8522	-0.005
Mof_H 	H 	0.2504	0.2449	0.0237	-0.01
Mof_H 	H 	0.3087	0.4613	0.1658	0.124
Mof_H 	H 	0.2473	0.4972	0.0653	0.131
Mof_H 	H 	0.3991	0.4866	0.0725	0.113
Mof_H 	H 	0.5115	0.6126	0.5214	0.002
Mof_H 	H 	0.4589	0.4969	0.5842	-0
Mof_H 	H 	0.397	0.6867	0.8547	0.125
Mof_H 	H 	0.4391	0.6168	0.9092	0.138
Mof_H 	H 	0.2946	0.6268	0.8699	0.145
Mof_C 	C 	0.1977	0.39925	0.4618	0.187
Mof_C 	C 	0.2146	0.32227	0.5817	-0.016
Mof_C 	C 	0.2326	0.29186	0.4874	-0.02
Mof_C 	C 	0.1845	0.46685	0.4101	-0.481
Mof_C 	C 	0.0797	0.60866	0.74923	0.184
Mof_C 	C 	0.0183	0.60121	0.9106	-0.066
Mof_C 	C 	0.0468	0.53768	0.8759	-0.006
Mof_C 	C 	0.1153	0.63716	0.6449	-0.501
Mof_C 	C 	0.8023	0.10075	0.4618	0.202
Mof_C 	C 	0.7854	0.17773	0.5817	-0.012
Mof_C 	C 	0.7674	0.20814	0.4874	-0.016
Mof_C 	C 	0.8155	0.03315	0.4101	-0.504
Mof_C 	C 	0.9203	0.89134	0.74923	0.199
Mof_C 	C 	0.9817	0.89879	0.9106	0.03
Mof_C 	C 	0.9532	0.96232	0.8759	-0.034
Mof_C 	C 	0.8847	0.86284	0.6449	-0.525
Mof_C 	C 	0.6977	0.10075	0.0382	0.198
Mof_C 	C 	0.7146	0.17773	0.9183	-0.015
Mof_C 	C 	0.7326	0.20814	0.0126	-0.015
Mof_C 	C 	0.6845	0.03315	0.0899	-0.497
Mof_C 	C 	0.5797	0.89134	0.75077	0.191
Mof_C 	C 	0.5183	0.89879	0.5894	-0.018
Mof_C 	C 	0.5468	0.96232	0.6241	-0.02
Mof_C 	C 	0.6153	0.86284	0.8551	-0.512
Mof_C 	C 	0.3023	0.39925	0.0382	0.193
Mof_C 	C 	0.2854	0.32227	0.9183	-0.015
Mof_C 	C 	0.2674	0.29186	0.0126	-0.018
Mof_C 	C 	0.3155	0.46685	0.0899	-0.49
Mof_C 	C 	0.4203	0.60866	0.75077	0.19
Mof_C 	C 	0.4817	0.60121	0.5894	-0.016
Mof_C 	C 	0.4532	0.53768	0.6241	-0.026
Mof_C 	C 	0.3847	0.63716	0.8551	-0.511
Mof_N 	N 	0.2219	0.34073	0.4108	-0.227
Mof_N 	N 	0.192	0.39046	0.56543	-0.227
Mof_N 	N 	0.0856	0.54228	0.7732	-0.234
Mof_N 	N 	0.0399	0.64661	0.82979	-0.225
Mof_N 	N 	0.7781	0.15927	0.4108	-0.228
Mof_N 	N 	0.808	0.10954	0.56543	-0.228
Mof_N 	N 	0.9144	0.95772	0.7732	-0.228
Mof_N 	N 	0.9601	0.85339	0.82979	-0.231
Mof_N 	N 	0.7219	0.15927	0.0892	-0.227
Mof_N 	N 	0.692	0.10954	0.93457	-0.228
Mof_N 	N 	0.5856	0.95772	0.7268	-0.231
Mof_N 	N 	0.5399	0.85339	0.67021	-0.234
Mof_N 	N 	0.2781	0.34073	0.0892	-0.227
Mof_N 	N 	0.308	0.39046	0.93457	-0.227
Mof_N 	N 	0.4144	0.54228	0.7268	-0.231
Mof_N 	N 	0.4601	0.64661	0.67021	-0.234
Mof_Ag	Ag	0.85755	0.53521	0.32698	0.438
Mof_Ag	Ag	0.14245	0.96479	0.32698	0.413
Mof_Ag	Ag	0.35755	0.96479	0.17302	0.427
Mof_Ag	Ag	0.64245	0.53521	0.17302	0.424
Mof_Ag	Ag	0.75	0.66634	0.75	0.435
Mof_Ag	Ag	0.25	0.83366	0.75	0.413
Mof_Ag	Ag	-1.62804e-33	0.25	0.17042	0.377
Mof_Ag	Ag	0.5	0.25	0.32958	0.412
Mof_H 	H 	0.7828	0.6998	0.3522	-0.002
Mof_H 	H 	0.7504	0.7551	0.5237	-0.009
Mof_H 	H 	0.8087	0.5387	0.6658	0.134
Mof_H 	H 	0.7473	0.5028	0.5653	0.14
Mof_H 	H 	0.8991	0.5134	0.5725	0.125
Mof_H 	H 	0.0115	0.3874	0.0214	-0.026
Mof_H 	H 	0.9589	0.5031	0.0842	0.012
Mof_H 	H 	0.897	0.3133	0.3547	0.134
Mof_H 	H 	0.9391	0.3832	0.4092	0.148
Mof_H 	H 	0.7946	0.3732	0.3699	0.148
Mof_H 	H 	0.2172	0.8002	0.3522	-0.005
Mof_H 	H 	0.2496	0.7449	0.5237	-0.011
Mof_H 	H 	0.1913	0.9613	0.6658	0.12
Mof_H 	H 	0.2527	0.9972	0.5653	0.132
Mof_H 	H 	0.1009	0.9866	0.5725	0.105
Mof_H 	H 	0.9885	0.1126	0.0214	0.033
Mof_H 	H 	0.0411	0.9969	0.0842	-0.014
Mof_H 	H 	0.103	0.1867	0.3547	0.12
Mof_H 	H 	0.0609	0.1168	0.4092	0.13
Mof_H 	H 	0.2054	0.1268	0.3699	0.141
Mof_H 	H 	0.2828	0.8002	0.1478	-0.004
Mof_H 	H 	0.2504	0.7449	0.9763	-0.011
Mof_H 	H 	0.3087	0.9613	0.8342	0.125
Mof_H 	H 	0.2473	0.9972	0.9347	0.133
Mof_H 	H 	0.3991	0.9866	0.9275	0.115
Mof_H 	H 	0.5115	0.1126	0.4786	0.002
Mof_H 	H 	0.4589	0.9969	0.4158	0.002
Mof_H 	H 	0.397	0.1867	0.1453	0.125
Mof_H 	H 	0.4391	0.1168	0.0908	0.138
Mof_H 	H 	0.2946	0.1268	0.1301	0.144
Mof_H 	H 	0.7172	0.6998	0.1478	-0.002
Mof_H 	H 	0.7496	0.7551	0.9763	-0.007
Mof_H 	H 	0.6913	0.5387	0.8342	0.129
Mof_H 	H 	0.7527	0.5028	0.9347	0.14
Mof_H 	H 	0.6009	0.5134	0.9275	0.116
Mof_H 	H 	0.4885	0.3874	0.4786	0.003
Mof_H 	H 	0.5411	0.5031	0.4158	-0.001
Mof_H 	H 	0.603	0.3133	0.1453	0.125
Mof_H 	H 	0.5609	0.3832	0.0908	0.139
Mof_H 	H 	0.7054	0.3732	0.1301	0.145
Mof_C 	C 	0.8023	0.60075	0.5382	0.203
Mof_C 	C 	0.7854	0.67773	0.4183	-0.012
Mof_C 	C 	0.7674	0.70814	0.5126	-0.016
Mof_C 	C 	0.8155	0.53315	0.5899	-0.506
Mof_C 	C 	0.9203	0.39134	0.25077	0.198
Mof_C 	C 	0.9817	0.39879	0.0894	0.032
Mof_C 	C 	0.9532	0.46232	0.1241	-0.044
Mof_C 	C 	0.8847	0.36284	0.3551	-0.523
Mof_C 	C 	0.1977	0.89925	0.5382	0.188
Mof_C 	C 	0.2146	0.82227	0.4183	-0.016
Mof_C 	C 	0.2326	0.79186	0.5126	-0.02
Mof_C 	C 	0.1845	0.96685	0.5899	-0.482
Mof_C 	C 	0.0797	0.10866	0.25077	0.184
Mof_C 	C 	0.0183	0.10121	0.0894	-0.063
Mof_C 	C 	0.0468	0.03768	0.1241	-0.006
Mof_C 	C 	0.1153	0.13716	0.3551	-0.501
Mof_C 	C 	0.3023	0.89925	0.9618	0.194
Mof_C 	C 	0.2854	0.82227	0.0817	-0.016
Mof_C 	C 	0.2674	0.79186	0.9874	-0.018
Mof_C 	C 	0.3155	0.96685	0.9101	-0.493
Mof_C 	C 	0.4203	0.10866	0.24923	0.19
Mof_C 	C 	0.4817	0.10121	0.4106	-0.014
Mof_C 	C 	0.4532	0.03768	0.3759	-0.029
Mof_C 	C 	0.3847	0.13716	0.1449	-0.511
Mof_C 	C 	0.6977	0.60075	0.9618	0.197
Mof_C 	C 	0.7146	0.67773	0.0817	-0.014
Mof_C 	C 	0.7326	0.70814	0.9874	-0.015
Mof_C 	C 	0.6845	0.53315	0.9101	-0.497
Mof_C 	C 	0.5797	0.39134	0.24923	0.191
Mof_C 	C 	0.5183	0.39879	0.4106	-0.016
Mof_C 	C 	0.5468	0.46232	0.3759	-0.026
Mof_C 	C 	0.6153	0.36284	0.1449	-0.512
Mof_N 	N 	0.7781	0.65927	0.5892	-0.228
Mof_N 	N 	0.808	0.60954	0.43457	-0.228
Mof_N 	N 	0.9144	0.45772	0.2268	-0.228
Mof_N 	N 	0.9601	0.35339	0.17021	-0.232
Mof_N 	N 	0.2219	0.84073	0.5892	-0.227
Mof_N 	N 	0.192	0.89046	0.43457	-0.227
Mof_N 	N 	0.0856	0.04228	0.2268	-0.234
Mof_N 	N 	0.0399	0.14661	0.17021	-0.226
Mof_N 	N 	0.2781	0.84073	0.9108	-0.227
Mof_N 	N 	0.308	0.89046	0.06543	-0.228
Mof_N 	N 	0.4144	0.04228	0.2732	-0.231
Mof_N 	N 	0.4601	0.14661	0.32979	-0.234
Mof_N 	N 	0.7219	0.65927	0.9108	-0.227
Mof_N 	N 	0.692	0.60954	0.06543	-0.228
Mof_N 	N 	0.5856	0.45772	0.2732	-0.231
Mof_N 	N 	0.5399	0.35339	0.32979	-0.234
_end
