data_functionalizedCrystal
_audit_creation_method	'EQeq! by Chris Wilmer'
_symmetry_space_group_name_H-M	'P1'
_symmetry_Int_Tables_number	1
_symmetry_cell_setting	triclinic
loop_
_symmetry_equiv_pos_as_xyz
  x,y,z
_cell_length_a	9.81
_cell_length_b	18.571
_cell_length_c	20.2309
_cell_angle_alpha	80.7648
_cell_angle_beta	75.9687
_cell_angle_gamma	74.6852
loop_
_atom_site_label
_atom_site_type_symbol
_atom_site_fract_x
_atom_site_fract_y
_atom_site_fract_z
_atom_site_charge
Mof_Zn	Zn	0.66214	0.59989	0.82101	1.191
Mof_Zn	Zn	0.08304	0.90011	0.67899	1.191
Mof_Zn	Zn	0.33786	0.40011	0.17899	1.191
Mof_Zn	Zn	0.91696	0.09989	0.32101	1.191
Mof_Zn	Zn	0.00889	0.75	0.25	1.209
Mof_Zn	Zn	0.99111	0.25	0.75	1.209
Mof_H 	H 	0.1666	0.237	0.8882	0.14
Mof_H 	H 	0.9006	0.5491	0.1993	0.088
Mof_H 	H 	0.8927	0.4216	0.2074	0.053
Mof_H 	H 	0.7414	0.4728	0.236	0.048
Mof_H 	H 	0.7871	0.3637	0.3131	0.058
Mof_H 	H 	0.9298	0.3823	0.3201	0.066
Mof_H 	H 	0.7476	0.419	0.4142	0.051
Mof_H 	H 	0.649	0.4697	0.3657	0.051
Mof_H 	H 	0.909	0.4963	0.3831	0.075
Mof_H 	H 	0.7541	0.5468	0.407	0.063
Mof_H 	H 	0.7311	0.5832	0.2946	0.065
Mof_H 	H 	0.4264	0.5584	0.9366	-0.018
Mof_H 	H 	0.2832	0.4755	0.9675	0.082
Mof_H 	H 	0.4871	0.3811	0.7951	0.081
Mof_H 	H 	0.6296	0.4643	0.7709	-0.012
Mof_H 	H 	0.0185	0.1834	0.9766	0.096
Mof_H 	H 	0.8428	0.1469	0.0635	0.009
Mof_H 	H 	0.7825	0.3246	0.1536	0.001
Mof_H 	H 	0.9577	0.3672	0.0712	0.081
Mof_H 	H 	0.1348	0.6517	0.1403	0.001
Mof_H 	H 	0.3043	0.6393	0.0407	0.079
Mof_H 	H 	0.438	0.8118	0.0784	0.086
Mof_H 	H 	0.2581	0.8221	0.1757	-0.02
Mof_H 	H 	0.7621	0.8519	0.9067	0.073
Mof_H 	H 	0.9191	0.9101	0.8289	0.005
Mof_H 	H 	0.9953	0.7575	0.7039	-0.007
Mof_H 	H 	0.836	0.6963	0.7791	0.025
Mof_H 	H 	0.2918	0.263	0.6118	0.141
Mof_H 	H 	0.649	0.9509	0.3007	0.087
Mof_H 	H 	0.5217	0.0784	0.2926	0.055
Mof_H 	H 	0.4502	0.0272	0.264	0.051
Mof_H 	H 	0.4639	0.1363	0.1869	0.057
Mof_H 	H 	0.6322	0.1177	0.1799	0.065
Mof_H 	H 	0.5808	0.081	0.0858	0.053
Mof_H 	H 	0.4844	0.0303	0.1343	0.053
Mof_H 	H 	0.7884	0.0037	0.1169	0.071
Mof_H 	H 	0.7079	0.9532	0.093	0.06
Mof_H 	H 	0.6089	0.9168	0.2054	0.066
Mof_H 	H 	0.9214	0.9416	0.5634	-0.018
Mof_H 	H 	0.7262	0.0245	0.5325	0.083
Mof_H 	H 	0.6633	0.1189	0.7049	0.081
Mof_H 	H 	0.8648	0.0357	0.7291	-0.012
Mof_H 	H 	0.1785	0.3166	0.5234	0.093
Mof_H 	H 	0.0532	0.3531	0.4365	0.01
Mof_H 	H 	0.2607	0.1754	0.3464	0.001
Mof_H 	H 	0.3961	0.1328	0.4288	0.081
Mof_H 	H 	0.9268	0.8483	0.3597	0.004
Mof_H 	H 	0.9843	0.8607	0.4593	0.083
Mof_H 	H 	0.3282	0.6882	0.4216	0.086
Mof_H 	H 	0.2559	0.6779	0.3243	-0.02
Mof_H 	H 	0.5207	0.6481	0.5933	0.073
Mof_H 	H 	0.6581	0.5899	0.6711	0.004
Mof_H 	H 	0.4567	0.7425	0.7961	-0.007
Mof_H 	H 	0.3114	0.8037	0.7209	0.025
Mof_H 	H 	0.8334	0.763	0.1118	0.141
Mof_H 	H 	0.0994	0.4509	0.8007	0.089
Mof_H 	H 	0.1073	0.5784	0.7926	0.054
Mof_H 	H 	0.2586	0.5272	0.764	0.049
Mof_H 	H 	0.2129	0.6363	0.6869	0.059
Mof_H 	H 	0.0702	0.6177	0.6799	0.067
Mof_H 	H 	0.2524	0.581	0.5858	0.051
Mof_H 	H 	0.351	0.5303	0.6343	0.051
Mof_H 	H 	0.091	0.5037	0.6169	0.075
Mof_H 	H 	0.2459	0.4532	0.593	0.063
Mof_H 	H 	0.2689	0.4168	0.7054	0.065
Mof_H 	H 	0.5736	0.4416	0.0634	-0.018
Mof_H 	H 	0.7168	0.5245	0.0325	0.082
Mof_H 	H 	0.5129	0.6189	0.2049	0.081
Mof_H 	H 	0.3704	0.5357	0.2291	-0.012
Mof_H 	H 	0.9815	0.8166	0.0234	0.096
Mof_H 	H 	0.1572	0.8531	0.9365	0.009
Mof_H 	H 	0.2175	0.6754	0.8464	0.001
Mof_H 	H 	0.0423	0.6328	0.9288	0.081
Mof_H 	H 	0.8652	0.3483	0.8597	0.001
Mof_H 	H 	0.6957	0.3607	0.9593	0.079
Mof_H 	H 	0.562	0.1882	0.9216	0.086
Mof_H 	H 	0.7419	0.1779	0.8243	-0.02
Mof_H 	H 	0.2379	0.1481	0.0933	0.073
Mof_H 	H 	0.0809	0.0899	0.1711	0.005
Mof_H 	H 	0.0047	0.2425	0.2961	-0.007
Mof_H 	H 	0.164	0.3037	0.2209	0.025
Mof_H 	H 	0.7082	0.737	0.3882	0.141
Mof_H 	H 	0.351	0.0491	0.6993	0.087
Mof_H 	H 	0.4783	0.9216	0.7074	0.055
Mof_H 	H 	0.5498	0.9728	0.736	0.051
Mof_H 	H 	0.5361	0.8637	0.8131	0.057
Mof_H 	H 	0.3678	0.8823	0.8201	0.065
Mof_H 	H 	0.4192	0.919	0.9142	0.053
Mof_H 	H 	0.5156	0.9697	0.8657	0.053
Mof_H 	H 	0.2116	0.9963	0.8831	0.071
Mof_H 	H 	0.2921	0.0468	0.907	0.06
Mof_H 	H 	0.3911	0.0832	0.7946	0.066
Mof_H 	H 	0.0786	0.0584	0.4366	-0.018
Mof_H 	H 	0.2738	0.9755	0.4675	0.083
Mof_H 	H 	0.3367	0.8811	0.2951	0.081
Mof_H 	H 	0.1352	0.9643	0.2709	-0.012
Mof_H 	H 	0.8215	0.6834	0.4766	0.093
Mof_H 	H 	0.9468	0.6469	0.5635	0.01
Mof_H 	H 	0.7393	0.8246	0.6536	0.001
Mof_H 	H 	0.6039	0.8672	0.5712	0.081
Mof_H 	H 	0.0732	0.1517	0.6403	0.004
Mof_H 	H 	0.0157	0.1393	0.5407	0.083
Mof_H 	H 	0.6718	0.3118	0.5784	0.086
Mof_H 	H 	0.7441	0.3221	0.6757	-0.02
Mof_H 	H 	0.4793	0.3519	0.4067	0.073
Mof_H 	H 	0.3419	0.4101	0.3289	0.004
Mof_H 	H 	0.5433	0.2575	0.2039	-0.007
Mof_H 	H 	0.6886	0.1963	0.2791	0.025
Mof_C 	C 	0.0693	0.4869	0.2411	0.361
Mof_C 	C 	0.91	0.5166	0.242	-0.121
Mof_C 	C 	0.8385	0.4526	0.2438	-0.059
Mof_C 	C 	0.8324	0.4042	0.3132	-0.105
Mof_C 	C 	0.7482	0.4505	0.3709	-0.074
Mof_C 	C 	0.8146	0.5156	0.3718	-0.092
Mof_C 	C 	0.8301	0.5639	0.3019	-0.091
Mof_C 	C 	0.8824	0.6315	0.3023	0.325
Mof_C 	C 	0.4383	0.522	0.9078	0.081
Mof_C 	C 	0.3516	0.4724	0.9266	-0.14
Mof_C 	C 	0.3656	0.4174	0.8846	0.062
Mof_C 	C 	0.4728	0.4166	0.8252	-0.137
Mof_C 	C 	0.557	0.4672	0.8104	0.074
Mof_C 	C 	0.2755	0.3641	0.9041	0.087
Mof_C 	C 	0.1213	0.3069	0.9601	0.112
Mof_C 	C 	0.0081	0.2802	0.0142	0.051
Mof_C 	C 	0.9727	0.213	0.0122	-0.138
Mof_C 	C 	0.8666	0.1918	0.065	0.08
Mof_C 	C 	0.8315	0.2955	0.1179	0.073
Mof_C 	C 	0.9362	0.3222	0.0682	-0.129
Mof_C 	C 	0.1954	0.6848	0.1274	0.07
Mof_C 	C 	0.2973	0.6769	0.0675	-0.125
Mof_C 	C 	0.3894	0.725	0.0468	0.061
Mof_C 	C 	0.3761	0.7794	0.0894	-0.134
Mof_C 	C 	0.2686	0.7844	0.1484	0.085
Mof_C 	C 	0.5002	0.7185	0.9829	0.094
Mof_C 	C 	0.6661	0.7348	0.8992	0.099
Mof_C 	C 	0.7761	0.7681	0.8515	0.012
Mof_C 	C 	0.8068	0.8321	0.8653	-0.102
Mof_C 	C 	0.9022	0.8667	0.8185	0.056
Mof_C 	C 	0.9468	0.7773	0.7449	0.045
Mof_C 	C 	0.8505	0.7401	0.7901	-0.091
Mof_C 	C 	0.7973	0.0131	0.2589	0.36
Mof_C 	C 	0.6686	0.9834	0.258	-0.117
Mof_C 	C 	0.5349	0.0474	0.2562	-0.065
Mof_C 	C 	0.5498	0.0958	0.1868	-0.099
Mof_C 	C 	0.5696	0.0495	0.1291	-0.082
Mof_C 	C 	0.702	0.9844	0.1282	-0.083
Mof_C 	C 	0.6959	0.9361	0.1981	-0.095
Mof_C 	C 	0.8162	0.8685	0.1977	0.327
Mof_C 	C 	0.8681	0.978	0.5922	0.084
Mof_C 	C 	0.7506	0.0276	0.5734	-0.145
Mof_C 	C 	0.6676	0.0826	0.6154	0.062
Mof_C 	C 	0.7146	0.0834	0.6748	-0.137
Mof_C 	C 	0.8346	0.0328	0.6896	0.071
Mof_C 	C 	0.5437	0.1359	0.5959	0.086
Mof_C 	C 	0.3883	0.1931	0.5399	0.112
Mof_C 	C 	0.3025	0.2198	0.4858	0.05
Mof_C 	C 	0.1979	0.287	0.4878	-0.133
Mof_C 	C 	0.1234	0.3082	0.435	0.078
Mof_C 	C 	0.2449	0.2045	0.3821	0.073
Mof_C 	C 	0.3266	0.1778	0.4318	-0.128
Mof_C 	C 	0.0076	0.8152	0.3726	0.068
Mof_C 	C 	0.0417	0.8231	0.4325	-0.129
Mof_C 	C 	0.1612	0.775	0.4532	0.062
Mof_C 	C 	0.2449	0.7206	0.4106	-0.135
Mof_C 	C 	0.2014	0.7156	0.3516	0.086
Mof_C 	C 	0.2016	0.7815	0.5171	0.093
Mof_C 	C 	0.3001	0.7652	0.6008	0.099
Mof_C 	C 	0.3957	0.7319	0.6485	0.012
Mof_C 	C 	0.5042	0.6679	0.6347	-0.103
Mof_C 	C 	0.5874	0.6333	0.6815	0.056
Mof_C 	C 	0.469	0.7227	0.7551	0.045
Mof_C 	C 	0.3807	0.7599	0.7099	-0.091
Mof_C 	C 	0.9307	0.5131	0.7589	0.361
Mof_C 	C 	0.09	0.4834	0.758	-0.121
Mof_C 	C 	0.1615	0.5474	0.7562	-0.059
Mof_C 	C 	0.1676	0.5958	0.6868	-0.105
Mof_C 	C 	0.2518	0.5495	0.6291	-0.074
Mof_C 	C 	0.1854	0.4844	0.6282	-0.092
Mof_C 	C 	0.1699	0.4361	0.6981	-0.091
Mof_C 	C 	0.1176	0.3685	0.6977	0.325
Mof_C 	C 	0.5617	0.478	0.0922	0.081
Mof_C 	C 	0.6484	0.5276	0.0734	-0.14
Mof_C 	C 	0.6344	0.5826	0.1154	0.062
Mof_C 	C 	0.5272	0.5834	0.1748	-0.137
Mof_C 	C 	0.443	0.5328	0.1896	0.074
Mof_C 	C 	0.7245	0.6359	0.0959	0.087
Mof_C 	C 	0.8787	0.6931	0.0399	0.112
Mof_C 	C 	0.9919	0.7198	0.9858	0.051
Mof_C 	C 	0.0273	0.787	0.9878	-0.138
Mof_C 	C 	0.1334	0.8082	0.935	0.08
Mof_C 	C 	0.1685	0.7045	0.8821	0.073
Mof_C 	C 	0.0638	0.6778	0.9318	-0.129
Mof_C 	C 	0.8046	0.3152	0.8726	0.07
Mof_C 	C 	0.7027	0.3231	0.9325	-0.125
Mof_C 	C 	0.6106	0.275	0.9532	0.061
Mof_C 	C 	0.6239	0.2206	0.9106	-0.134
Mof_C 	C 	0.7314	0.2156	0.8516	0.085
Mof_C 	C 	0.4998	0.2815	0.0171	0.094
Mof_C 	C 	0.3339	0.2652	0.1008	0.099
Mof_C 	C 	0.2239	0.2319	0.1485	0.012
Mof_C 	C 	0.1932	0.1679	0.1347	-0.102
Mof_C 	C 	0.0978	0.1333	0.1815	0.056
Mof_C 	C 	0.0532	0.2227	0.2551	0.045
Mof_C 	C 	0.1495	0.2599	0.2099	-0.091
Mof_C 	C 	0.2027	0.9869	0.7411	0.36
Mof_C 	C 	0.3314	0.0166	0.742	-0.117
Mof_C 	C 	0.4651	0.9526	0.7438	-0.065
Mof_C 	C 	0.4502	0.9042	0.8132	-0.099
Mof_C 	C 	0.4304	0.9505	0.8709	-0.082
Mof_C 	C 	0.298	0.0156	0.8718	-0.083
Mof_C 	C 	0.3041	0.0639	0.8019	-0.095
Mof_C 	C 	0.1838	0.1315	0.8023	0.327
Mof_C 	C 	0.1319	0.022	0.4078	0.084
Mof_C 	C 	0.2494	0.9724	0.4266	-0.145
Mof_C 	C 	0.3324	0.9174	0.3846	0.062
Mof_C 	C 	0.2854	0.9166	0.3252	-0.137
Mof_C 	C 	0.1654	0.9672	0.3104	0.071
Mof_C 	C 	0.4563	0.8641	0.4041	0.086
Mof_C 	C 	0.6117	0.8069	0.4601	0.112
Mof_C 	C 	0.6975	0.7802	0.5142	0.05
Mof_C 	C 	0.8021	0.713	0.5122	-0.133
Mof_C 	C 	0.8766	0.6918	0.565	0.078
Mof_C 	C 	0.7551	0.7955	0.6179	0.073
Mof_C 	C 	0.6734	0.8222	0.5682	-0.128
Mof_C 	C 	0.9924	0.1848	0.6274	0.068
Mof_C 	C 	0.9583	0.1769	0.5675	-0.129
Mof_C 	C 	0.8388	0.225	0.5468	0.062
Mof_C 	C 	0.7551	0.2794	0.5894	-0.135
Mof_C 	C 	0.7986	0.2844	0.6484	0.086
Mof_C 	C 	0.7984	0.2185	0.4829	0.093
Mof_C 	C 	0.6999	0.2348	0.3992	0.099
Mof_C 	C 	0.6043	0.2681	0.3515	0.012
Mof_C 	C 	0.4958	0.3321	0.3653	-0.103
Mof_C 	C 	0.4126	0.3667	0.3185	0.056
Mof_C 	C 	0.531	0.2773	0.2449	0.045
Mof_C 	C 	0.6193	0.2401	0.2901	-0.091
Mof_N 	N 	0.5388	0.5208	0.8506	-0.272
Mof_N 	N 	0.1722	0.3651	0.9629	-0.134
Mof_N 	N 	0.1883	0.2737	0.9039	-0.17
Mof_N 	N 	0.2882	0.3098	0.8666	-0.086
Mof_N 	N 	0.7964	0.231	0.1178	-0.14
Mof_N 	N 	0.1792	0.7381	0.1685	-0.266
Mof_N 	N 	0.5901	0.7644	0.9578	-0.133
Mof_N 	N 	0.5147	0.6627	0.9447	-0.121
Mof_N 	N 	0.6237	0.6744	0.8894	-0.241
Mof_N 	N 	0.973	0.8401	0.7579	-0.264
Mof_N 	N 	0.9102	0.9792	0.6494	-0.271
Mof_N 	N 	0.5002	0.1349	0.5371	-0.134
Mof_N 	N 	0.3659	0.2263	0.5961	-0.17
Mof_N 	N 	0.4646	0.1902	0.6334	-0.086
Mof_N 	N 	0.1452	0.269	0.3822	-0.139
Mof_N 	N 	0.0858	0.7619	0.3315	-0.266
Mof_N 	N 	0.3123	0.7356	0.5422	-0.133
Mof_N 	N 	0.1221	0.8373	0.5553	-0.122
Mof_N 	N 	0.1875	0.8256	0.6106	-0.241
Mof_N 	N 	0.571	0.6599	0.7421	-0.265
Mof_N 	N 	0.4612	0.4792	0.1494	-0.272
Mof_N 	N 	0.8278	0.6349	0.0371	-0.134
Mof_N 	N 	0.8117	0.7263	0.0961	-0.17
Mof_N 	N 	0.7118	0.6902	0.1334	-0.086
Mof_N 	N 	0.2036	0.769	0.8822	-0.14
Mof_N 	N 	0.8208	0.2619	0.8315	-0.266
Mof_N 	N 	0.4099	0.2356	0.0422	-0.133
Mof_N 	N 	0.4853	0.3373	0.0553	-0.121
Mof_N 	N 	0.3763	0.3256	0.1106	-0.241
Mof_N 	N 	0.027	0.1599	0.2421	-0.264
Mof_N 	N 	0.0898	0.0208	0.3506	-0.271
Mof_N 	N 	0.4998	0.8651	0.4629	-0.134
Mof_N 	N 	0.6341	0.7737	0.4039	-0.17
Mof_N 	N 	0.5354	0.8098	0.3666	-0.086
Mof_N 	N 	0.8548	0.731	0.6178	-0.139
Mof_N 	N 	0.9142	0.2381	0.6685	-0.266
Mof_N 	N 	0.6877	0.2644	0.4578	-0.133
Mof_N 	N 	0.8779	0.1627	0.4447	-0.122
Mof_N 	N 	0.8125	0.1744	0.3894	-0.241
Mof_N 	N 	0.429	0.3401	0.2579	-0.265
Mof_O 	O 	0.1364	0.4478	0.1906	-0.485
Mof_O 	O 	0.1312	0.4973	0.2825	-0.323
Mof_O 	O 	0.95083	0.65884	0.2449	-0.443
Mof_O 	O 	0.8593	0.6623	0.3557	-0.327
Mof_O 	O 	0.7748	0.0522	0.3094	-0.485
Mof_O 	O 	0.911	0.0027	0.2175	-0.324
Mof_O 	O 	0.85457	0.84116	0.2551	-0.444
Mof_O 	O 	0.8773	0.8377	0.1443	-0.327
Mof_O 	O 	0.8636	0.5522	0.8094	-0.485
Mof_O 	O 	0.8688	0.5027	0.7175	-0.323
Mof_O 	O 	0.04917	0.34116	0.7551	-0.443
Mof_O 	O 	0.1407	0.3377	0.6443	-0.327
Mof_O 	O 	0.2252	0.9478	0.6906	-0.485
Mof_O 	O 	0.089	0.9973	0.7825	-0.324
Mof_O 	O 	0.14543	0.15884	0.7449	-0.444
Mof_O 	O 	0.1227	0.1623	0.8557	-0.327
_end
