data_functionalizedCrystal
_audit_creation_method	'EQeq! by Chris Wilmer'
_symmetry_space_group_name_H-M	'P1'
_symmetry_Int_Tables_number	1
_symmetry_cell_setting	triclinic
loop_
_symmetry_equiv_pos_as_xyz
  x,y,z
_cell_length_a	14.323
_cell_length_b	16.34
_cell_length_c	8.751
_cell_angle_alpha	90
_cell_angle_beta	90
_cell_angle_gamma	90
loop_
_atom_site_label
_atom_site_type_symbol
_atom_site_fract_x
_atom_site_fract_y
_atom_site_fract_z
_atom_site_charge
Mof_Ga	Ga	0.13618	0.03473	0.57256	3.473
Mof_Ga	Ga	0.04135	0.27178	0.6329	4.023
Mof_Ga	Ga	0.52614	0.12637	0.41143	3.784
Mof_Ga	Ga	0.36622	0.16095	0.81415	3.729
Mof_P 	P 	0.1474	0.15203	0.8489	1.124
Mof_P 	P 	0.64008	0.96898	0.4467	1.034
Mof_P 	P 	0.4731	0.21915	0.1112	1.05
Mof_P 	P 	0.97074	0.13215	0.415	1.092
Mof_O 	O 	0.4479	0.1637	0.9779	-1.165
Mof_O 	O 	0.5364	0.1713	0.2198	-1.144
Mof_O 	O 	0.9646	0.1968	0.5407	-1.248
Mof_O 	O 	0.6305	0.0624	0.4402	-1.137
Mof_O 	O 	0.9621	0.3273	0.7575	-1.214
Mof_O 	O 	0.2494	0.1483	0.8961	-1.207
Mof_O 	O 	0.1352	0.2253	0.7441	-1.376
Mof_O 	O 	0.0884	0.1586	0.9918	-1.229
Mof_O 	O 	0.1171	0.0738	0.7693	-1.155
Mof_O 	O 	0.3842	0.2524	0.6912	-1.26
Mof_O 	O 	0.4198	0.0642	0.4228	-1.215
Mof_O 	O 	0.0626	0.0863	0.4234	-1.239
Mof_O 	O 	0.2596	0.053	0.5172	-1.148
Mof_O 	O 	0.3932	0.0658	0.7063	-1.229
Mof_O 	O 	0.5308	0.2929	0.0581	-1.212
Mof_O 	O 	0.1129	0.9228	0.5662	-1.071
Mof_Ga	Ga	0.86382	0.53473	0.92744	3.457
Mof_Ga	Ga	0.95865	0.77178	0.8671	3.851
Mof_Ga	Ga	0.47386	0.62637	0.08857	3.782
Mof_Ga	Ga	0.63378	0.66095	0.68585	3.724
Mof_P 	P 	0.8526	0.65203	0.6511	1.124
Mof_P 	P 	0.35992	0.46898	0.0533	1.034
Mof_P 	P 	0.5269	0.71915	0.3888	1.054
Mof_P 	P 	0.02926	0.63215	0.085	1.043
Mof_O 	O 	0.5521	0.6637	0.5221	-1.166
Mof_O 	O 	0.4636	0.6713	0.2802	-1.145
Mof_O 	O 	0.0354	0.6968	0.9593	-1.19
Mof_O 	O 	0.3695	0.5624	0.0598	-1.142
Mof_O 	O 	0.0379	0.8273	0.7425	-1.172
Mof_O 	O 	0.7506	0.6483	0.6039	-1.209
Mof_O 	O 	0.8648	0.7253	0.7559	-1.353
Mof_O 	O 	0.9116	0.6586	0.5082	-1.27
Mof_O 	O 	0.8829	0.5738	0.7307	-1.15
Mof_O 	O 	0.6158	0.7524	0.8088	-1.263
Mof_O 	O 	0.5802	0.5642	0.0772	-1.209
Mof_O 	O 	0.9374	0.5863	0.0766	-1.194
Mof_O 	O 	0.7404	0.553	0.9828	-1.147
Mof_O 	O 	0.6068	0.5658	0.7937	-1.228
Mof_O 	O 	0.4692	0.7929	0.4419	-1.214
Mof_O 	O 	0.8871	0.4228	0.9338	-1.077
Mof_Ga	Ga	0.86382	0.96527	0.42744	3.473
Mof_Ga	Ga	0.95865	0.72822	0.3671	4.023
Mof_Ga	Ga	0.47386	0.87363	0.58857	3.784
Mof_Ga	Ga	0.63378	0.83905	0.18585	3.729
Mof_P 	P 	0.8526	0.84797	0.1511	1.124
Mof_P 	P 	0.35992	0.03102	0.5533	1.034
Mof_P 	P 	0.5269	0.78085	0.8888	1.05
Mof_P 	P 	0.02926	0.86785	0.585	1.092
Mof_O 	O 	0.5521	0.8363	0.0221	-1.165
Mof_O 	O 	0.4636	0.8287	0.7802	-1.144
Mof_O 	O 	0.0354	0.8032	0.4593	-1.248
Mof_O 	O 	0.3695	0.9376	0.5598	-1.137
Mof_O 	O 	0.0379	0.6727	0.2425	-1.214
Mof_O 	O 	0.7506	0.8517	0.1039	-1.207
Mof_O 	O 	0.8648	0.7747	0.2559	-1.376
Mof_O 	O 	0.9116	0.8414	0.0082	-1.229
Mof_O 	O 	0.8829	0.9262	0.2307	-1.155
Mof_O 	O 	0.6158	0.7476	0.3088	-1.26
Mof_O 	O 	0.5802	0.9358	0.5772	-1.215
Mof_O 	O 	0.9374	0.9137	0.5766	-1.239
Mof_O 	O 	0.7404	0.947	0.4828	-1.148
Mof_O 	O 	0.6068	0.9342	0.2937	-1.229
Mof_O 	O 	0.4692	0.7071	0.9419	-1.212
Mof_O 	O 	0.8871	0.0772	0.4338	-1.071
Mof_Ga	Ga	0.13618	0.46527	0.07256	3.457
Mof_Ga	Ga	0.04135	0.22822	0.1329	3.851
Mof_Ga	Ga	0.52614	0.37363	0.91143	3.782
Mof_Ga	Ga	0.36622	0.33905	0.31415	3.724
Mof_P 	P 	0.1474	0.34797	0.3489	1.124
Mof_P 	P 	0.64008	0.53102	0.9467	1.034
Mof_P 	P 	0.4731	0.28085	0.6112	1.054
Mof_P 	P 	0.97074	0.36785	0.915	1.043
Mof_O 	O 	0.4479	0.3363	0.4779	-1.166
Mof_O 	O 	0.5364	0.3287	0.7198	-1.145
Mof_O 	O 	0.9646	0.3032	0.0407	-1.19
Mof_O 	O 	0.6305	0.4376	0.9402	-1.142
Mof_O 	O 	0.9621	0.1727	0.2575	-1.172
Mof_O 	O 	0.2494	0.3517	0.3961	-1.209
Mof_O 	O 	0.1352	0.2747	0.2441	-1.353
Mof_O 	O 	0.0884	0.3414	0.4918	-1.27
Mof_O 	O 	0.1171	0.4262	0.2693	-1.15
Mof_O 	O 	0.3842	0.2476	0.1912	-1.263
Mof_O 	O 	0.4198	0.4358	0.9228	-1.209
Mof_O 	O 	0.0626	0.4137	0.9234	-1.194
Mof_O 	O 	0.2596	0.447	0.0172	-1.147
Mof_O 	O 	0.3932	0.4342	0.2063	-1.228
Mof_O 	O 	0.5308	0.2071	0.5581	-1.214
Mof_O 	O 	0.1129	0.5772	0.0662	-1.077
_end
