data_functionalizedCrystal
_audit_creation_method	'EQeq! by Chris Wilmer'
_symmetry_space_group_name_H-M	'P1'
_symmetry_Int_Tables_number	1
_symmetry_cell_setting	triclinic
loop_
_symmetry_equiv_pos_as_xyz
  x,y,z
_cell_length_a	10.9051
_cell_length_b	10.9051
_cell_length_c	19.698
_cell_angle_alpha	75.6385
_cell_angle_beta	75.6385
_cell_angle_gamma	64.5543
loop_
_atom_site_label
_atom_site_type_symbol
_atom_site_fract_x
_atom_site_fract_y
_atom_site_fract_z
_atom_site_charge
Mof_Ho	Ho	0.25461	0.59547	0.08316	1.735
Mof_Ho	Ho	0.40453	0.74539	0.41684	1.735
Mof_Ho	Ho	0.74539	0.40453	0.91684	1.736
Mof_Ho	Ho	0.59547	0.25461	0.58316	1.736
Mof_H 	H 	0.4808	0.6574	0.1731	0.013
Mof_H 	H 	0.7963	0.6911	0.2238	0.033
Mof_H 	H 	0.8316	0.5996	0.0329	0.022
Mof_H 	H 	0.3426	0.5192	0.3269	0.013
Mof_H 	H 	0.3089	0.2037	0.2762	0.033
Mof_H 	H 	0.4004	0.1684	0.4671	0.022
Mof_H 	H 	0.5192	0.3426	0.8269	0.013
Mof_H 	H 	0.2037	0.3089	0.7762	0.033
Mof_H 	H 	0.1684	0.4004	0.9671	0.022
Mof_H 	H 	0.6574	0.4808	0.6731	0.013
Mof_H 	H 	0.6911	0.7963	0.7238	0.033
Mof_H 	H 	0.5996	0.8316	0.5329	0.022
Mof_C 	C 	0.9825	0.6339	0.1083	0.344
Mof_C 	C 	0.5456	0.703	0.2825	0.347
Mof_C 	C 	0.586	0.594	0.0438	0.486
Mof_C 	C 	0.645	0.6224	0.0945	-0.21
Mof_C 	C 	0.5704	0.6534	0.161	0.096
Mof_C 	C 	0.6271	0.6783	0.2101	-0.138
Mof_C 	C 	0.7581	0.6741	0.1917	0.067
Mof_C 	C 	0.8351	0.6449	0.1256	-0.139
Mof_C 	C 	0.7799	0.6191	0.077	0.088
Mof_C 	C 	0.3661	0.0175	0.3917	0.349
Mof_C 	C 	0.297	0.4544	0.2175	0.348
Mof_C 	C 	0.406	0.414	0.4562	0.487
Mof_C 	C 	0.3776	0.355	0.4055	-0.211
Mof_C 	C 	0.3466	0.4296	0.339	0.096
Mof_C 	C 	0.3217	0.3729	0.2899	-0.139
Mof_C 	C 	0.3259	0.2419	0.3083	0.068
Mof_C 	C 	0.3551	0.1649	0.3744	-0.14
Mof_C 	C 	0.3809	0.2201	0.423	0.089
Mof_C 	C 	0.0175	0.3661	0.8917	0.344
Mof_C 	C 	0.4544	0.297	0.7175	0.347
Mof_C 	C 	0.414	0.406	0.9562	0.486
Mof_C 	C 	0.355	0.3776	0.9055	-0.21
Mof_C 	C 	0.4296	0.3466	0.839	0.096
Mof_C 	C 	0.3729	0.3217	0.7899	-0.138
Mof_C 	C 	0.2419	0.3259	0.8083	0.067
Mof_C 	C 	0.1649	0.3551	0.8744	-0.139
Mof_C 	C 	0.2201	0.3809	0.923	0.088
Mof_C 	C 	0.6339	0.9825	0.6083	0.349
Mof_C 	C 	0.703	0.5456	0.7825	0.348
Mof_C 	C 	0.594	0.586	0.5438	0.487
Mof_C 	C 	0.6224	0.645	0.5945	-0.211
Mof_C 	C 	0.6534	0.5704	0.661	0.096
Mof_C 	C 	0.6783	0.6271	0.7101	-0.139
Mof_C 	C 	0.6741	0.7581	0.6917	0.068
Mof_C 	C 	0.6449	0.8351	0.6256	-0.14
Mof_C 	C 	0.6191	0.7799	0.577	0.089
Mof_O 	O 	0.0561	0.5943	0.0526	-0.44
Mof_O 	O 	0.0268	0.6656	0.1508	-0.435
Mof_O 	O 	0.6044	0.7062	0.3292	-0.409
Mof_O 	O 	0.4228	0.7178	0.2965	-0.414
Mof_O 	O 	0.4731	0.5803	0.0663	-0.547
Mof_O 	O 	0.6494	0.5828	0.9818	-0.499
Mof_O 	O 	0.4057	0.9439	0.4474	-0.443
Mof_O 	O 	0.3344	0.9732	0.3492	-0.438
Mof_O 	O 	0.2938	0.3956	0.1708	-0.409
Mof_O 	O 	0.2822	0.5772	0.2035	-0.414
Mof_O 	O 	0.4197	0.5269	0.4337	-0.547
Mof_O 	O 	0.4172	0.3506	0.5182	-0.5
Mof_O 	O 	0.9439	0.4057	0.9474	-0.44
Mof_O 	O 	0.9732	0.3344	0.8492	-0.435
Mof_O 	O 	0.3956	0.2938	0.6708	-0.409
Mof_O 	O 	0.5772	0.2822	0.7035	-0.414
Mof_O 	O 	0.5269	0.4197	0.9337	-0.547
Mof_O 	O 	0.3506	0.4172	0.0182	-0.499
Mof_O 	O 	0.5943	0.0561	0.5526	-0.443
Mof_O 	O 	0.6656	0.0268	0.6508	-0.438
Mof_O 	O 	0.7062	0.6044	0.8292	-0.409
Mof_O 	O 	0.7178	0.4228	0.7965	-0.414
Mof_O 	O 	0.5803	0.4731	0.5663	-0.547
Mof_O 	O 	0.5828	0.6494	0.4818	-0.5
_end
