data_functionalizedCrystal
_audit_creation_method	'EQeq! by Chris Wilmer'
_symmetry_space_group_name_H-M	'P1'
_symmetry_Int_Tables_number	1
_symmetry_cell_setting	triclinic
loop_
_symmetry_equiv_pos_as_xyz
  x,y,z
_cell_length_a	8.4413
_cell_length_b	8.4413
_cell_length_c	16.688
_cell_angle_alpha	90
_cell_angle_beta	90
_cell_angle_gamma	90.7823
loop_
_atom_site_label
_atom_site_type_symbol
_atom_site_fract_x
_atom_site_fract_y
_atom_site_fract_z
_atom_site_charge
Mof_Cd	Cd	0.93855	0.06145	0.32061	0.401
Mof_Cd	Cd	0.30719	0.69281	0.1798	0.466
Mof_Cd	Cd	0.62063	0.37937	0.28458	0.453
Mof_Cd	Cd	0.06145	0.93855	0.82061	0.399
Mof_Cd	Cd	0.69281	0.30719	0.6798	0.465
Mof_Cd	Cd	0.37937	0.62063	0.78458	0.453
Mof_H 	H 	0.6698	0.776	0.2581	0.02
Mof_H 	H 	0.3628	0.0938	0.1999	0.031
Mof_H 	H 	0.3302	0.224	0.7581	0.02
Mof_H 	H 	0.6372	0.9062	0.6999	0.031
Mof_H 	H 	0.776	0.6698	0.7581	0.02
Mof_H 	H 	0.0938	0.3628	0.6999	0.031
Mof_H 	H 	0.224	0.3302	0.2581	0.02
Mof_H 	H 	0.9062	0.6372	0.1999	0.031
Mof_H 	H 	0.5758	0.4242	0.4891	0.053
Mof_H 	H 	0.8949	0.1051	0.5291	0.029
Mof_H 	H 	0.4242	0.5758	0.9891	0.053
Mof_H 	H 	0.1051	0.8949	0.0291	0.027
Mof_C 	C 	0.6215	0.8731	0.25	0.12
Mof_C 	C 	0.4546	0.046	0.2181	0.109
Mof_C 	C 	0.3785	0.1269	0.75	0.119
Mof_C 	C 	0.5454	0.954	0.7181	0.109
Mof_C 	C 	0.8731	0.6215	0.75	0.119
Mof_C 	C 	0.046	0.4546	0.7181	0.109
Mof_C 	C 	0.1269	0.3785	0.25	0.12
Mof_C 	C 	0.954	0.5454	0.2181	0.109
Mof_C 	C 	0.6526	0.3474	0.4825	0.096
Mof_C 	C 	0.8256	0.1744	0.5044	0.109
Mof_C 	C 	0.3474	0.6526	0.9825	0.089
Mof_C 	C 	0.1744	0.8256	0.0044	0.118
Mof_N 	N 	0.6882	0.0114	0.2692	-0.112
Mof_N 	N 	0.5786	0.126	0.2473	-0.11
Mof_N 	N 	0.4764	0.8884	0.2177	-0.142
Mof_N 	N 	0.3118	0.9886	0.7692	-0.112
Mof_N 	N 	0.4214	0.874	0.7473	-0.111
Mof_N 	N 	0.5236	0.1116	0.7177	-0.142
Mof_N 	N 	0.0114	0.6882	0.7692	-0.112
Mof_N 	N 	0.126	0.5786	0.7473	-0.111
Mof_N 	N 	0.8884	0.4764	0.7177	-0.142
Mof_N 	N 	0.9886	0.3118	0.2692	-0.112
Mof_N 	N 	0.874	0.4214	0.2473	-0.11
Mof_N 	N 	0.1116	0.5236	0.2177	-0.142
Mof_N 	N 	0.7018	0.2982	0.4133	-0.107
Mof_N 	N 	0.8128	0.1872	0.4284	-0.118
Mof_N 	N 	0.728	0.272	0.5455	-0.138
Mof_N 	N 	0.2982	0.7018	0.9133	-0.106
Mof_N 	N 	0.1872	0.8128	0.9284	-0.123
Mof_N 	N 	0.272	0.728	0.0455	-0.135
Mof_Cl	Cl	0.0761	0.9239	0.2006	-0.37
Mof_Cl	Cl	0.4312	0.5688	0.3437	-0.348
Mof_Cl	Cl	0.52	0.48	0.1428	-0.352
Mof_Cl	Cl	0.9239	0.0761	0.7006	-0.371
Mof_Cl	Cl	0.5688	0.4312	0.8437	-0.349
Mof_Cl	Cl	0.48	0.52	0.6428	-0.354
_end
