data_functionalizedCrystal
_audit_creation_method	'EQeq! by Chris Wilmer'
_symmetry_space_group_name_H-M	'P1'
_symmetry_Int_Tables_number	1
_symmetry_cell_setting	triclinic
loop_
_symmetry_equiv_pos_as_xyz
  x,y,z
_cell_length_a	20.8225
_cell_length_b	23.1463
_cell_length_c	23.1463
_cell_angle_alpha	68.5851
_cell_angle_beta	72.5503
_cell_angle_gamma	107.45
loop_
_atom_site_label
_atom_site_type_symbol
_atom_site_fract_x
_atom_site_fract_y
_atom_site_fract_z
_atom_site_charge
Mof_Fe	Fe	0.91013	0.50788	0.12606	0.989
Mof_Fe	Fe	0.96728	0.42461	0.03852	0.961
Mof_Fe	Fe	0.03619	0.12606	0.36606	0.988
Mof_Fe	Fe	0.0058	0.03852	0.53687	0.959
Mof_Fe	Fe	0.40225	0.36606	0.50788	0.989
Mof_Fe	Fe	0.54267	0.53687	0.42461	0.961
Mof_Fe	Fe	0.08987	0.49212	0.87394	0.99
Mof_Fe	Fe	0.03272	0.57539	0.96148	0.962
Mof_Fe	Fe	0.96381	0.87394	0.63394	0.989
Mof_Fe	Fe	0.9942	0.96148	0.46313	0.96
Mof_Fe	Fe	0.59775	0.63394	0.49212	0.989
Mof_Fe	Fe	0.45733	0.46313	0.57539	0.961
Mof_H 	H 	0.6097	0.0229	0.3707	0.067
Mof_H 	H 	0.3841	0.9203	0.4892	0.072
Mof_H 	H 	0.4923	0.1299	0.3913	0.07
Mof_H 	H 	0.6059	0.2077	0.3716	0.08
Mof_H 	H 	0.7135	0.3149	0.2922	0.025
Mof_H 	H 	0.7954	0.229	0.1892	0.023
Mof_H 	H 	0.6864	0.1242	0.2632	0.077
Mof_H 	H 	0.5965	0.9145	0.4507	0.073
Mof_H 	H 	0.5889	0.805	0.4813	0.031
Mof_H 	H 	0.3918	0.7395	0.4731	0.03
Mof_H 	H 	0.3979	0.8486	0.4448	0.07
Mof_H 	H 	0.3059	0.9364	0.5704	0.071
Mof_H 	H 	0.186	0.9267	0.6141	0.03
Mof_H 	H 	0.2487	0.0986	0.4386	0.044
Mof_H 	H 	0.3697	0.1096	0.3932	0.072
Mof_H 	H 	0.2016	0.9898	0.9015	0.056
Mof_H 	H 	0.1824	0.8892	0.9176	0.083
Mof_H 	H 	0.1306	0.7843	0.9246	0.015
Mof_H 	H 	0.9789	0.7053	0.1198	0.016
Mof_H 	H 	0.0358	0.8125	0.1124	0.083
Mof_H 	H 	0.9804	0.3707	0.6064	0.067
Mof_H 	H 	0.8733	0.4892	0.5905	0.072
Mof_H 	H 	0.8836	0.3913	0.4788	0.07
Mof_H 	H 	0.9775	0.3716	0.4207	0.08
Mof_H 	H 	0.0057	0.2922	0.3929	0.024
Mof_H 	H 	0.9846	0.1892	0.5818	0.023
Mof_H 	H 	0.9496	0.2632	0.6126	0.077
Mof_H 	H 	0.0472	0.4507	0.6348	0.073
Mof_H 	H 	0.0702	0.4813	0.7137	0.031
Mof_H 	H 	0.8649	0.4731	0.7874	0.03
Mof_H 	H 	0.8427	0.4448	0.7066	0.07
Mof_H 	H 	0.8763	0.5704	0.4932	0.07
Mof_H 	H 	0.8001	0.6141	0.4592	0.031
Mof_H 	H 	0.6873	0.4386	0.4628	0.045
Mof_H 	H 	0.7629	0.3932	0.4972	0.071
Mof_H 	H 	0.1031	0.9015	0.1087	0.056
Mof_H 	H 	0.1	0.9176	0.1932	0.082
Mof_H 	H 	0.0552	0.9246	0.2911	0.015
Mof_H 	H 	0.0987	0.1198	0.1749	0.017
Mof_H 	H 	0.1482	0.1124	0.0751	0.082
Mof_H 	H 	0.5868	0.6064	0.0229	0.067
Mof_H 	H 	0.4638	0.5905	0.9203	0.072
Mof_H 	H 	0.3624	0.4788	0.1299	0.07
Mof_H 	H 	0.3982	0.4207	0.2077	0.08
Mof_H 	H 	0.3986	0.3929	0.3149	0.025
Mof_H 	H 	0.5664	0.5818	0.229	0.023
Mof_H 	H 	0.5622	0.6126	0.1242	0.077
Mof_H 	H 	0.682	0.6348	0.9145	0.073
Mof_H 	H 	0.7839	0.7137	0.805	0.031
Mof_H 	H 	0.6523	0.7874	0.7395	0.03
Mof_H 	H 	0.5493	0.7066	0.8486	0.07
Mof_H 	H 	0.3695	0.4932	0.9364	0.071
Mof_H 	H 	0.2593	0.4592	0.9267	0.031
Mof_H 	H 	0.1501	0.4628	0.0986	0.045
Mof_H 	H 	0.2601	0.4972	0.1096	0.071
Mof_H 	H 	0.2118	0.1087	0.9898	0.056
Mof_H 	H 	0.2932	0.1932	0.8892	0.083
Mof_H 	H 	0.3463	0.2911	0.7843	0.015
Mof_H 	H 	0.2736	0.1749	0.7053	0.017
Mof_H 	H 	0.2233	0.0751	0.8125	0.082
Mof_H 	H 	0.3903	0.9771	0.6293	0.067
Mof_H 	H 	0.6159	0.0797	0.5108	0.072
Mof_H 	H 	0.5077	0.8701	0.6087	0.07
Mof_H 	H 	0.3941	0.7923	0.6284	0.08
Mof_H 	H 	0.2865	0.6851	0.7078	0.025
Mof_H 	H 	0.2046	0.771	0.8108	0.023
Mof_H 	H 	0.3136	0.8758	0.7368	0.077
Mof_H 	H 	0.4035	0.0855	0.5493	0.073
Mof_H 	H 	0.4111	0.195	0.5187	0.031
Mof_H 	H 	0.6082	0.2605	0.5269	0.03
Mof_H 	H 	0.6021	0.1514	0.5552	0.07
Mof_H 	H 	0.6941	0.0636	0.4296	0.071
Mof_H 	H 	0.814	0.0733	0.3859	0.03
Mof_H 	H 	0.7513	0.9014	0.5614	0.044
Mof_H 	H 	0.6303	0.8904	0.6068	0.072
Mof_H 	H 	0.7984	0.0102	0.0985	0.056
Mof_H 	H 	0.8176	0.1108	0.0824	0.083
Mof_H 	H 	0.8694	0.2157	0.0754	0.015
Mof_H 	H 	0.0211	0.2947	0.8802	0.016
Mof_H 	H 	0.9642	0.1875	0.8876	0.083
Mof_H 	H 	0.0196	0.6293	0.3936	0.067
Mof_H 	H 	0.1267	0.5108	0.4095	0.072
Mof_H 	H 	0.1164	0.6087	0.5212	0.07
Mof_H 	H 	0.0225	0.6284	0.5793	0.08
Mof_H 	H 	0.9943	0.7078	0.6071	0.024
Mof_H 	H 	0.0154	0.8108	0.4182	0.023
Mof_H 	H 	0.0504	0.7368	0.3874	0.077
Mof_H 	H 	0.9528	0.5493	0.3652	0.073
Mof_H 	H 	0.9298	0.5187	0.2863	0.031
Mof_H 	H 	0.1351	0.5269	0.2126	0.03
Mof_H 	H 	0.1573	0.5552	0.2934	0.07
Mof_H 	H 	0.1237	0.4296	0.5068	0.07
Mof_H 	H 	0.1999	0.3859	0.5408	0.031
Mof_H 	H 	0.3127	0.5614	0.5372	0.045
Mof_H 	H 	0.2371	0.6068	0.5028	0.071
Mof_H 	H 	0.8969	0.0985	0.8913	0.056
Mof_H 	H 	0.9	0.0824	0.8068	0.082
Mof_H 	H 	0.9448	0.0754	0.7089	0.015
Mof_H 	H 	0.9013	0.8802	0.8251	0.017
Mof_H 	H 	0.8518	0.8876	0.9249	0.082
Mof_H 	H 	0.4132	0.3936	0.9771	0.067
Mof_H 	H 	0.5362	0.4095	0.0797	0.072
Mof_H 	H 	0.6376	0.5212	0.8701	0.07
Mof_H 	H 	0.6018	0.5793	0.7923	0.08
Mof_H 	H 	0.6014	0.6071	0.6851	0.025
Mof_H 	H 	0.4336	0.4182	0.771	0.023
Mof_H 	H 	0.4378	0.3874	0.8758	0.077
Mof_H 	H 	0.318	0.3652	0.0855	0.073
Mof_H 	H 	0.2161	0.2863	0.195	0.031
Mof_H 	H 	0.3477	0.2126	0.2605	0.03
Mof_H 	H 	0.4507	0.2934	0.1514	0.07
Mof_H 	H 	0.6305	0.5068	0.0636	0.071
Mof_H 	H 	0.7407	0.5408	0.0733	0.031
Mof_H 	H 	0.8499	0.5372	0.9014	0.045
Mof_H 	H 	0.7399	0.5028	0.8904	0.071
Mof_H 	H 	0.7882	0.8913	0.0102	0.056
Mof_H 	H 	0.7068	0.8068	0.1108	0.083
Mof_H 	H 	0.6537	0.7089	0.2157	0.015
Mof_H 	H 	0.7264	0.8251	0.2947	0.017
Mof_H 	H 	0.7767	0.9249	0.1875	0.082
Mof_C 	C 	0.56179	0.08779	0.37352	0.037
Mof_C 	C 	0.56373	0.02339	0.3894	-0.106
Mof_C 	C 	0.49605	0.96039	0.43344	0.046
Mof_C 	C 	0.42877	0.96206	0.46055	-0.111
Mof_C 	C 	0.42566	0.0248	0.44622	0.043
Mof_C 	C 	0.49362	0.08764	0.40178	-0.107
Mof_C 	C 	0.6335	0.15474	0.32584	0.061
Mof_C 	C 	0.64321	0.21172	0.33389	-0.13
Mof_C 	C 	0.70856	0.27633	0.28645	0.064
Mof_C 	C 	0.76514	0.28275	0.23143	-0.145
Mof_C 	C 	0.75642	0.22562	0.22506	0.069
Mof_C 	C 	0.69124	0.16197	0.27025	-0.132
Mof_C 	C 	0.8324	0.35192	0.18042	0.392
Mof_C 	C 	0.49648	0.89184	0.4476	0.043
Mof_C 	C 	0.55488	0.87932	0.45608	-0.111
Mof_C 	C 	0.55109	0.81409	0.47272	0.038
Mof_C 	C 	0.49188	0.762	0.47676	-0.106
Mof_C 	C 	0.43305	0.77462	0.46817	0.036
Mof_C 	C 	0.43624	0.83968	0.45226	-0.108
Mof_C 	C 	0.49301	0.69404	0.48851	0.353
Mof_C 	C 	0.35093	0.02379	0.4753	0.041
Mof_C 	C 	0.29441	0.96866	0.54323	-0.112
Mof_C 	C 	0.22245	0.96246	0.56931	0.045
Mof_C 	C 	0.20418	0.00979	0.52865	-0.122
Mof_C 	C 	0.25982	0.06511	0.46445	0.041
Mof_C 	C 	0.3329	0.0721	0.4373	-0.107
Mof_C 	C 	0.12309	0.99617	0.5549	0.379
Mof_C 	C 	0.18786	0.99404	0.94126	-0.079
Mof_C 	C 	0.14488	0.93403	0.00629	0.015
Mof_C 	C 	0.11577	0.86256	0.01375	0.086
Mof_C 	C 	0.14165	0.85165	0.9597	-0.153
Mof_C 	C 	0.11146	0.78881	0.96373	0.089
Mof_C 	C 	0.05262	0.73178	0.02532	-0.157
Mof_C 	C 	0.02209	0.74184	0.07927	0.084
Mof_C 	C 	0.05536	0.80706	0.07408	-0.147
Mof_C 	C 	0.01951	0.66155	0.03132	0.411
Mof_C 	C 	0.93531	0.37352	0.53869	0.037
Mof_C 	C 	0.95313	0.3894	0.58721	-0.106
Mof_C 	C 	0.92949	0.43344	0.60617	0.046
Mof_C 	C 	0.88932	0.46055	0.57739	-0.112
Mof_C 	C 	0.87188	0.44622	0.52898	0.044
Mof_C 	C 	0.8954	0.40178	0.51058	-0.108
Mof_C 	C 	0.95934	0.32584	0.51942	0.061
Mof_C 	C 	0.9771	0.33389	0.45439	-0.131
Mof_C 	C 	0.99501	0.28645	0.43722	0.066
Mof_C 	C 	0.99657	0.23143	0.48582	-0.144
Mof_C 	C 	0.98148	0.22506	0.54932	0.069
Mof_C 	C 	0.96149	0.27025	0.56778	-0.132
Mof_C 	C 	0.01282	0.18042	0.46766	0.391
Mof_C 	C 	0.94408	0.4476	0.66056	0.043
Mof_C 	C 	0.01096	0.45608	0.6646	-0.111
Mof_C 	C 	0.02381	0.47272	0.71319	0.039
Mof_C 	C 	0.96864	0.47676	0.76124	-0.106
Mof_C 	C 	0.90122	0.46817	0.75721	0.036
Mof_C 	C 	0.8885	0.45226	0.70806	-0.108
Mof_C 	C 	0.98152	0.48851	0.81745	0.353
Mof_C 	C 	0.82623	0.4753	0.50091	0.04
Mof_C 	C 	0.83764	0.54323	0.48811	-0.111
Mof_C 	C 	0.79176	0.56931	0.46823	0.042
Mof_C 	C 	0.73283	0.52865	0.46156	-0.118
Mof_C 	C 	0.72427	0.46445	0.47044	0.038
Mof_C 	C 	0.7702	0.4373	0.4906	-0.105
Mof_C 	C 	0.67799	0.5549	0.44893	0.376
Mof_C 	C 	0.12912	0.94126	0.0647	-0.079
Mof_C 	C 	0.15117	0.00629	0.05968	0.014
Mof_C 	C 	0.12952	0.01375	0.12369	0.083
Mof_C 	C 	0.10135	0.9597	0.18865	-0.151
Mof_C 	C 	0.07519	0.96373	0.24746	0.089
Mof_C 	C 	0.07794	0.02532	0.2429	-0.157
Mof_C 	C 	0.10136	0.07927	0.17889	0.082
Mof_C 	C 	0.12944	0.07408	0.11886	-0.146
Mof_C 	C 	0.05083	0.03132	0.30713	0.409
Mof_C 	C 	0.474	0.53869	0.08779	0.037
Mof_C 	C 	0.54034	0.58721	0.02339	-0.106
Mof_C 	C 	0.53566	0.60617	0.96039	0.046
Mof_C 	C 	0.46671	0.57739	0.96206	-0.111
Mof_C 	C 	0.40086	0.52898	0.0248	0.044
Mof_C 	C 	0.40598	0.51058	0.08764	-0.108
Mof_C 	C 	0.47876	0.51942	0.15474	0.06
Mof_C 	C 	0.43149	0.45439	0.21172	-0.13
Mof_C 	C 	0.43223	0.43722	0.27633	0.064
Mof_C 	C 	0.48239	0.48582	0.28275	-0.145
Mof_C 	C 	0.5308	0.54932	0.22562	0.069
Mof_C 	C 	0.52927	0.56778	0.16197	-0.132
Mof_C 	C 	0.48048	0.46766	0.35192	0.392
Mof_C 	C 	0.60464	0.66056	0.89184	0.043
Mof_C 	C 	0.67556	0.6646	0.87932	-0.111
Mof_C 	C 	0.737	0.71319	0.81409	0.038
Mof_C 	C 	0.72988	0.76124	0.762	-0.106
Mof_C 	C 	0.65843	0.75721	0.77462	0.036
Mof_C 	C 	0.59656	0.70806	0.83968	-0.108
Mof_C 	C 	0.79897	0.81745	0.69404	0.353
Mof_C 	C 	0.32714	0.50091	0.02379	0.04
Mof_C 	C 	0.32575	0.48811	0.96866	-0.111
Mof_C 	C 	0.25999	0.46823	0.96246	0.043
Mof_C 	C 	0.19439	0.46156	0.00979	-0.119
Mof_C 	C 	0.19471	0.47044	0.06511	0.039
Mof_C 	C 	0.2608	0.4906	0.0721	-0.105
Mof_C 	C 	0.12692	0.44893	0.99617	0.377
Mof_C 	C 	0.19382	0.0647	0.99404	-0.08
Mof_C 	C 	0.21085	0.05968	0.93403	0.014
Mof_C 	C 	0.25321	0.12369	0.86256	0.085
Mof_C 	C 	0.29	0.18865	0.85165	-0.153
Mof_C 	C 	0.32265	0.24746	0.78881	0.088
Mof_C 	C 	0.32084	0.2429	0.73178	-0.156
Mof_C 	C 	0.28025	0.17889	0.74184	0.083
Mof_C 	C 	0.2483	0.11886	0.80706	-0.146
Mof_C 	C 	0.35796	0.30713	0.66155	0.411
Mof_C 	C 	0.43821	0.91221	0.62648	0.037
Mof_C 	C 	0.43627	0.97661	0.6106	-0.106
Mof_C 	C 	0.50395	0.03961	0.56656	0.046
Mof_C 	C 	0.57123	0.03794	0.53945	-0.111
Mof_C 	C 	0.57434	0.9752	0.55378	0.043
Mof_C 	C 	0.50638	0.91236	0.59822	-0.107
Mof_C 	C 	0.3665	0.84526	0.67416	0.061
Mof_C 	C 	0.35679	0.78828	0.66611	-0.13
Mof_C 	C 	0.29144	0.72367	0.71355	0.064
Mof_C 	C 	0.23486	0.71725	0.76857	-0.145
Mof_C 	C 	0.24358	0.77438	0.77494	0.069
Mof_C 	C 	0.30876	0.83803	0.72975	-0.132
Mof_C 	C 	0.1676	0.64808	0.81958	0.392
Mof_C 	C 	0.50352	0.10816	0.5524	0.043
Mof_C 	C 	0.44512	0.12068	0.54392	-0.111
Mof_C 	C 	0.44891	0.18591	0.52728	0.038
Mof_C 	C 	0.50812	0.238	0.52324	-0.106
Mof_C 	C 	0.56695	0.22538	0.53183	0.036
Mof_C 	C 	0.56376	0.16032	0.54774	-0.108
Mof_C 	C 	0.50699	0.30596	0.51149	0.353
Mof_C 	C 	0.64907	0.97621	0.5247	0.041
Mof_C 	C 	0.70559	0.03134	0.45677	-0.112
Mof_C 	C 	0.77755	0.03754	0.43069	0.045
Mof_C 	C 	0.79582	0.99021	0.47135	-0.122
Mof_C 	C 	0.74018	0.93489	0.53555	0.041
Mof_C 	C 	0.6671	0.9279	0.5627	-0.107
Mof_C 	C 	0.87691	0.00383	0.4451	0.379
Mof_C 	C 	0.81214	0.00596	0.05874	-0.079
Mof_C 	C 	0.85512	0.06597	0.99371	0.015
Mof_C 	C 	0.88423	0.13744	0.98625	0.086
Mof_C 	C 	0.85835	0.14835	0.0403	-0.153
Mof_C 	C 	0.88854	0.21119	0.03627	0.089
Mof_C 	C 	0.94738	0.26822	0.97468	-0.157
Mof_C 	C 	0.97791	0.25816	0.92073	0.084
Mof_C 	C 	0.94464	0.19294	0.92592	-0.147
Mof_C 	C 	0.98049	0.33845	0.96868	0.411
Mof_C 	C 	0.06469	0.62648	0.46131	0.037
Mof_C 	C 	0.04687	0.6106	0.41279	-0.106
Mof_C 	C 	0.07051	0.56656	0.39383	0.046
Mof_C 	C 	0.11068	0.53945	0.42261	-0.112
Mof_C 	C 	0.12812	0.55378	0.47102	0.044
Mof_C 	C 	0.1046	0.59822	0.48942	-0.108
Mof_C 	C 	0.04066	0.67416	0.48058	0.061
Mof_C 	C 	0.0229	0.66611	0.54561	-0.131
Mof_C 	C 	0.00499	0.71355	0.56278	0.066
Mof_C 	C 	0.00343	0.76857	0.51418	-0.144
Mof_C 	C 	0.01852	0.77494	0.45068	0.069
Mof_C 	C 	0.03851	0.72975	0.43222	-0.132
Mof_C 	C 	0.98718	0.81958	0.53234	0.391
Mof_C 	C 	0.05592	0.5524	0.33944	0.043
Mof_C 	C 	0.98904	0.54392	0.3354	-0.111
Mof_C 	C 	0.97619	0.52728	0.28681	0.039
Mof_C 	C 	0.03136	0.52324	0.23876	-0.106
Mof_C 	C 	0.09878	0.53183	0.24279	0.036
Mof_C 	C 	0.1115	0.54774	0.29194	-0.108
Mof_C 	C 	0.01848	0.51149	0.18255	0.353
Mof_C 	C 	0.17377	0.5247	0.49909	0.04
Mof_C 	C 	0.16236	0.45677	0.51189	-0.111
Mof_C 	C 	0.20824	0.43069	0.53177	0.042
Mof_C 	C 	0.26717	0.47135	0.53844	-0.118
Mof_C 	C 	0.27573	0.53555	0.52956	0.038
Mof_C 	C 	0.2298	0.5627	0.5094	-0.105
Mof_C 	C 	0.32201	0.4451	0.55107	0.376
Mof_C 	C 	0.87088	0.05874	0.9353	-0.079
Mof_C 	C 	0.84883	0.99371	0.94032	0.014
Mof_C 	C 	0.87048	0.98625	0.87631	0.083
Mof_C 	C 	0.89865	0.0403	0.81135	-0.151
Mof_C 	C 	0.92481	0.03627	0.75254	0.089
Mof_C 	C 	0.92206	0.97468	0.7571	-0.157
Mof_C 	C 	0.89864	0.92073	0.82111	0.082
Mof_C 	C 	0.87056	0.92592	0.88114	-0.146
Mof_C 	C 	0.94917	0.96868	0.69287	0.409
Mof_C 	C 	0.526	0.46131	0.91221	0.037
Mof_C 	C 	0.45966	0.41279	0.97661	-0.106
Mof_C 	C 	0.46434	0.39383	0.03961	0.046
Mof_C 	C 	0.53329	0.42261	0.03794	-0.111
Mof_C 	C 	0.59914	0.47102	0.9752	0.044
Mof_C 	C 	0.59402	0.48942	0.91236	-0.108
Mof_C 	C 	0.52124	0.48058	0.84526	0.06
Mof_C 	C 	0.56851	0.54561	0.78828	-0.13
Mof_C 	C 	0.56777	0.56278	0.72367	0.064
Mof_C 	C 	0.51761	0.51418	0.71725	-0.145
Mof_C 	C 	0.4692	0.45068	0.77438	0.069
Mof_C 	C 	0.47073	0.43222	0.83803	-0.132
Mof_C 	C 	0.51952	0.53234	0.64808	0.392
Mof_C 	C 	0.39536	0.33944	0.10816	0.043
Mof_C 	C 	0.32444	0.3354	0.12068	-0.111
Mof_C 	C 	0.263	0.28681	0.18591	0.038
Mof_C 	C 	0.27012	0.23876	0.238	-0.106
Mof_C 	C 	0.34157	0.24279	0.22538	0.036
Mof_C 	C 	0.40344	0.29194	0.16032	-0.108
Mof_C 	C 	0.20103	0.18255	0.30596	0.353
Mof_C 	C 	0.67286	0.49909	0.97621	0.04
Mof_C 	C 	0.67425	0.51189	0.03134	-0.111
Mof_C 	C 	0.74001	0.53177	0.03754	0.043
Mof_C 	C 	0.80561	0.53844	0.99021	-0.119
Mof_C 	C 	0.80529	0.52956	0.93489	0.039
Mof_C 	C 	0.7392	0.5094	0.9279	-0.105
Mof_C 	C 	0.87308	0.55107	0.00383	0.377
Mof_C 	C 	0.80618	0.9353	0.00596	-0.08
Mof_C 	C 	0.78915	0.94032	0.06597	0.014
Mof_C 	C 	0.74679	0.87631	0.13744	0.085
Mof_C 	C 	0.71	0.81135	0.14835	-0.153
Mof_C 	C 	0.67735	0.75254	0.21119	0.088
Mof_C 	C 	0.67916	0.7571	0.26822	-0.156
Mof_C 	C 	0.71975	0.82111	0.25816	0.083
Mof_C 	C 	0.7517	0.88114	0.19294	-0.146
Mof_C 	C 	0.64204	0.69287	0.33845	0.411
Mof_O 	O 	0.82917	0.40562	0.17973	-0.387
Mof_O 	O 	0.88947	0.35263	0.13895	-0.374
Mof_O 	O 	0.53602	0.67952	0.51398	-0.375
Mof_O 	O 	0.4554	0.65868	0.46917	-0.262
Mof_O 	O 	0.0747	0.9365	0.60422	-0.389
Mof_O 	O 	0.10889	0.0471	0.52624	-0.36
Mof_O 	O 	0.04122	0.65788	0.97677	-0.387
Mof_O 	O 	0.97552	0.6104	0.09249	-0.389
Mof_O 	O 	0.97306	0.5004	0.05719	-0.551
Mof_O 	O 	0.0089	0.17973	0.41465	-0.387
Mof_O 	O 	0.02842	0.13895	0.50842	-0.375
Mof_O 	O 	0.05	0.51398	0.8065	-0.375
Mof_O 	O 	0.92457	0.46917	0.87215	-0.262
Mof_O 	O 	0.67892	0.60422	0.45928	-0.389
Mof_O 	O 	0.63513	0.52624	0.42666	-0.359
Mof_O 	O 	0.01799	0.97677	0.36535	-0.385
Mof_O 	O 	0.06801	0.09249	0.29711	-0.389
Mof_O 	O 	0.03025	0.05719	0.44241	-0.551
Mof_O 	O 	0.42355	0.41465	0.40562	-0.387
Mof_O 	O 	0.53684	0.50842	0.35263	-0.374
Mof_O 	O 	0.8565	0.8065	0.67952	-0.375
Mof_O 	O 	0.79672	0.87215	0.65868	-0.262
Mof_O 	O 	0.1382	0.45928	0.9365	-0.389
Mof_O 	O 	0.06179	0.42666	0.0471	-0.36
Mof_O 	O 	0.38334	0.36535	0.65788	-0.387
Mof_O 	O 	0.36512	0.29711	0.6104	-0.389
Mof_O 	O 	0.47266	0.44241	0.5004	-0.551
Mof_O 	O 	0.17083	0.59438	0.82027	-0.387
Mof_O 	O 	0.11053	0.64737	0.86105	-0.374
Mof_O 	O 	0.46398	0.32048	0.48602	-0.375
Mof_O 	O 	0.5446	0.34132	0.53083	-0.262
Mof_O 	O 	0.9253	0.0635	0.39578	-0.389
Mof_O 	O 	0.89111	0.9529	0.47376	-0.36
Mof_O 	O 	0.95878	0.34212	0.02323	-0.387
Mof_O 	O 	0.02448	0.3896	0.90751	-0.389
Mof_O 	O 	0.02694	0.4996	0.94281	-0.551
Mof_O 	O 	0.9911	0.82027	0.58535	-0.387
Mof_O 	O 	0.97158	0.86105	0.49158	-0.375
Mof_O 	O 	0.95	0.48602	0.1935	-0.375
Mof_O 	O 	0.07543	0.53083	0.12785	-0.262
Mof_O 	O 	0.32108	0.39578	0.54072	-0.389
Mof_O 	O 	0.36487	0.47376	0.57334	-0.359
Mof_O 	O 	0.98201	0.02323	0.63465	-0.385
Mof_O 	O 	0.93199	0.90751	0.70289	-0.389
Mof_O 	O 	0.96975	0.94281	0.55759	-0.551
Mof_O 	O 	0.57645	0.58535	0.59438	-0.387
Mof_O 	O 	0.46316	0.49158	0.64737	-0.374
Mof_O 	O 	0.1435	0.1935	0.32048	-0.375
Mof_O 	O 	0.20328	0.12785	0.34132	-0.262
Mof_O 	O 	0.8618	0.54072	0.0635	-0.389
Mof_O 	O 	0.93821	0.57334	0.9529	-0.36
Mof_O 	O 	0.61666	0.63465	0.34212	-0.387
Mof_O 	O 	0.63488	0.70289	0.3896	-0.389
Mof_O 	O 	0.52734	0.55759	0.4996	-0.551
_end
