data_functionalizedCrystal
_audit_creation_method	'EQeq! by Chris Wilmer'
_symmetry_space_group_name_H-M	'P1'
_symmetry_Int_Tables_number	1
_symmetry_cell_setting	triclinic
loop_
_symmetry_equiv_pos_as_xyz
  x,y,z
_cell_length_a	11.0749
_cell_length_b	12.2094
_cell_length_c	19.5074
_cell_angle_alpha	92.4596
_cell_angle_beta	90
_cell_angle_gamma	116.971
loop_
_atom_site_label
_atom_site_type_symbol
_atom_site_fract_x
_atom_site_fract_y
_atom_site_fract_z
_atom_site_charge
Mof_Cu	Cu	0.54585	0.03826	0.43765	0.902
Mof_Cu	Cu	0.18698	0.24372	0.8503	0.901
Mof_Cu	Cu	0.50759	0.96174	0.56235	0.901
Mof_Cu	Cu	0.09681	0.39584	0.80516	0.903
Mof_Cu	Cu	0.94326	0.75628	0.1497	0.903
Mof_Cu	Cu	0.70097	0.60416	0.19484	0.904
Mof_H 	H 	0.0085	0.17	0.4462	0.054
Mof_H 	H 	0.1563	0.4232	0.4787	0.071
Mof_H 	H 	0.6849	0.7504	0.7425	0.044
Mof_H 	H 	0.7331	0.5768	0.5213	0.066
Mof_H 	H 	0.4985	0.529	0.9928	0.044
Mof_H 	H 	0.7801	0.9426	0.6502	0.054
Mof_H 	H 	0.4929	0.722	0.8317	0.04
Mof_H 	H 	0.8375	0.0574	0.3498	0.048
Mof_H 	H 	0.9025	0.2878	0.6009	0.083
Mof_H 	H 	0.7709	0.278	0.1683	0.04
Mof_H 	H 	0.8983	0.9646	0.3341	0.045
Mof_H 	H 	0.7991	0.7736	0.798	0.048
Mof_H 	H 	0.074	0.239	0.5859	0.067
Mof_H 	H 	0.1457	0.8106	0.3475	0.051
Mof_H 	H 	0.6929	0.9516	0.2626	0.08
Mof_H 	H 	0.6147	0.7122	0.3991	0.086
Mof_H 	H 	0.9337	0.0354	0.6659	0.052
Mof_H 	H 	0.7902	0.876	0.9744	0.052
Mof_H 	H 	0.8385	0.83	0.5538	0.065
Mof_H 	H 	0.9664	0.8988	0.7305	0.079
Mof_H 	H 	0.3351	0.1894	0.6525	0.046
Mof_H 	H 	0.8262	0.4872	0.3815	0.049
Mof_H 	H 	0.7413	0.0484	0.7374	0.079
Mof_H 	H 	0.1389	0.6284	0.5168	0.053
Mof_H 	H 	0.0676	0.1012	0.2695	0.086
Mof_H 	H 	0.0567	0.1914	0.3268	0.069
Mof_H 	H 	0.8445	0.8862	0.4452	0.047
Mof_H 	H 	0.9159	0.7612	0.52	0.066
Mof_H 	H 	0.0255	0.2264	0.202	0.032
Mof_H 	H 	0.6918	0.6402	0.5829	0.052
Mof_H 	H 	0.835	0.761	0.4141	0.058
Mof_H 	H 	0.1547	0.2388	0.48	0.055
Mof_H 	H 	0.9142	0.124	0.0256	0.053
Mof_H 	H 	0.0516	0.3598	0.4171	0.055
Mof_H 	H 	0.9583	0.1138	0.5548	0.061
Mof_H 	H 	0.339	0.5128	0.6185	0.044
Mof_H 	H 	0.5105	0.3716	0.4832	0.048
Mof_H 	H 	0.9345	0.2496	0.2575	0.035
Mof_H 	H 	0.9695	0.471	0.0072	0.046
Mof_H 	H 	0.8653	0.8086	0.6732	0.06
Mof_C 	C 	0.9025	0.191	0.0424	0.026
Mof_C 	C 	0.6524	0.7022	0.9944	-0.095
Mof_C 	C 	0.1611	0.7376	0.4372	-0.085
Mof_C 	C 	0.4637	0.3662	0.5235	0.019
Mof_C 	C 	0.8033	0.866	0.2188	0.362
Mof_C 	C 	0.9349	0.3992	0.0312	0.045
Mof_C 	C 	0.0082	0.132	0.2896	-0.15
Mof_C 	C 	0.0643	0.2328	0.4803	-0.079
Mof_C 	C 	0.9583	0.1886	0.2367	0.008
Mof_C 	C 	0.7147	0.9298	0.8565	0.206
Mof_C 	C 	0.9041	0.2564	0.554	-0.07
Mof_C 	C 	0.0044	0.202	0.5501	-0.095
Mof_C 	C 	0.9116	0.5488	0.3947	0.005
Mof_C 	C 	0.4751	0.6064	0.9079	-0.104
Mof_C 	C 	0.9373	0.134	0.7812	0.368
Mof_C 	C 	0.3579	0.2562	0.6252	0.034
Mof_C 	C 	0.8111	0.0236	0.7491	-0.075
Mof_C 	C 	0.4526	0.1588	0.5387	0.367
Mof_C 	C 	0.8687	0.3936	0.0921	-0.102
Mof_C 	C 	0.7697	0.8114	0.7633	-0.027
Mof_C 	C 	0.8762	0.868	0.7104	-0.113
Mof_C 	C 	0.5357	0.6008	0.9688	0.048
Mof_C 	C 	0.6477	0.7436	0.446	-0.087
Mof_C 	C 	0.0975	0.6338	0.4765	-0.001
Mof_C 	C 	0.7626	0.1594	0.5316	0.362
Mof_C 	C 	0.9125	0.6574	0.2878	0.344
Mof_C 	C 	0.6529	0.8152	0.8963	-0.061
Mof_C 	C 	0.7171	0.6942	0.0609	0.374
Mof_C 	C 	0.9769	0.649	0.3543	-0.081
Mof_C 	C 	0.8315	0.7672	0.5197	-0.105
Mof_C 	C 	0.1017	0.7438	0.3748	0.014
Mof_C 	C 	0.2551	0.3426	0.7122	0.348
Mof_C 	C 	0.8793	0.0274	0.315	-0.039
Mof_C 	C 	0.4235	0.2624	0.5628	-0.097
Mof_C 	C 	0.3628	0.4512	0.6053	0.018
Mof_C 	C 	0.0691	0.3558	0.4654	-0.057
Mof_C 	C 	0.2938	0.8412	0.4613	0.362
Mof_C 	C 	0.7115	0.809	0.9576	0.028
Mof_C 	C 	0.8505	0.4996	0.1217	0.373
Mof_C 	C 	0.5341	0.7162	0.872	0.022
Mof_C 	C 	0.4339	0.4606	0.5445	-0.067
Mof_C 	C 	0.6032	0.8406	0.4684	0.367
Mof_C 	C 	0.8377	0.1848	0.1037	-0.06
Mof_C 	C 	0.9502	0.2978	0.0056	-0.088
Mof_C 	C 	0.7849	0.0702	0.1435	0.207
Mof_C 	C 	0.9034	0.433	0.4999	0.202
Mof_C 	C 	0.0229	0.3058	0.9391	0.368
Mof_C 	C 	0.3509	0.5004	0.8783	0.374
Mof_C 	C 	0.8519	0.9726	0.685	-0.061
Mof_C 	C 	0.4704	0.567	0.5001	0.206
Mof_C 	C 	0.8179	0.2838	0.128	0.022
Mof_C 	C 	0.3279	0.351	0.6457	-0.099
Mof_C 	C 	0.8024	0.798	0.4499	-0.057
Mof_C 	C 	0.9733	0.5394	0.4555	-0.049
Mof_C 	C 	0.7133	0.6442	0.5346	-0.038
Mof_C 	C 	0.7875	0.9764	0.2509	-0.08
Mof_N 	N 	0.9611	0.3588	0.5075	-0.11
Mof_N 	N 	0.6023	0.6412	0.4925	-0.114
Mof_N 	N 	0.83678	0.08056	0.2072	-0.122
Mof_N 	N 	0.75622	0.91944	0.7928	-0.119
Mof_O 	O 	0.843	0.7632	0.06787	-0.395
Mof_O 	O 	0.02088	0.37796	0.897	-0.414
Mof_O 	O 	0.3348	0.3956	0.8906	-0.411
Mof_O 	O 	0.38366	0.58372	0.4696	-0.221
Mof_O 	O 	0.73089	0.14738	0.46864	-0.401
Mof_O 	O 	0.64292	0.62204	0.103	-0.412
Mof_O 	O 	0.58351	0.85262	0.53136	-0.404
Mof_O 	O 	0.27241	0.52482	0.84284	-0.405
Mof_O 	O 	0.2701	0.2782	0.75717	-0.403
Mof_O 	O 	0.35728	0.91936	0.4181	-0.406
Mof_O 	O 	0.91391	0.89042	0.19065	-0.398
Mof_O 	O 	0.78545	0.5983	0.28185	-0.398
Mof_O 	O 	0.18715	0.4017	0.71815	-0.402
Mof_O 	O 	0.33192	0.84064	0.52159	-0.407
Mof_O 	O 	0.79994	0.41628	0.5304	-0.218
Mof_O 	O 	0.74759	0.47518	0.15716	-0.404
Mof_O 	O 	0.70652	0.76184	0.22733	-0.404
Mof_O 	O 	0.49128	0.15936	0.47841	-0.407
Mof_O 	O 	0.72713	0.02786	0.8808	-0.206
Mof_O 	O 	0.9392	0.6044	0.1094	-0.41
Mof_O 	O 	0.59425	0.9029	0.42163	-0.413
Mof_O 	O 	0.43792	0.08064	0.5819	-0.407
Mof_O 	O 	0.69135	0.0971	0.57837	-0.411
Mof_O 	O 	0.69927	0.97214	0.1192	-0.208
Mof_O 	O 	0.0798	0.2368	0.93213	-0.397
Mof_O 	O 	0.02349	0.10958	0.80935	-0.406
Mof_O 	O 	0.94468	0.23816	0.77267	-0.402
Mof_O 	O 	0.9919	0.7218	0.24283	-0.399
_end
