data_functionalizedCrystal
_audit_creation_method	'EQeq! by Chris Wilmer'
_symmetry_space_group_name_H-M	'P1'
_symmetry_Int_Tables_number	1
_symmetry_cell_setting	triclinic
loop_
_symmetry_equiv_pos_as_xyz
  x,y,z
_cell_length_a	11.791
_cell_length_b	22.691
_cell_length_c	11.922
_cell_angle_alpha	102.046
_cell_angle_beta	90
_cell_angle_gamma	90
loop_
_atom_site_label
_atom_site_type_symbol
_atom_site_fract_x
_atom_site_fract_y
_atom_site_fract_z
_atom_site_charge
Mof_Ag	Ag	0.73955	0.29921	0.56326	0.304
Mof_Ag	Ag	0.67597	0.15927	0.54659	0.422
Mof_Ag	Ag	0.23969	0.61062	0.22534	0.445
Mof_Ag	Ag	0.76045	0.29921	0.06326	0.308
Mof_Ag	Ag	0.68042	0.27963	0.80976	0.193
Mof_Ag	Ag	0.96414	0.34244	0.87943	0.443
Mof_Ag	Ag	0.26031	0.61062	0.72534	0.445
Mof_Ag	Ag	0.82403	0.15927	0.04659	0.424
Mof_Ag	Ag	0.17597	0.84073	0.95341	0.424
Mof_Ag	Ag	0.31958	0.72037	0.19024	0.193
Mof_Ag	Ag	0.3489	0.79788	0.65839	0.397
Mof_Ag	Ag	0.76031	0.38938	0.77466	0.444
Mof_Ag	Ag	0.46414	0.65756	0.62057	0.45
Mof_Ag	Ag	0.33135	0.90092	0.14883	0.664
Mof_Ag	Ag	0.8489	0.20212	0.84161	0.391
Mof_Ag	Ag	0.18042	0.72037	0.69024	0.193
Mof_Ag	Ag	0.83135	0.09908	0.35117	0.665
Mof_Ag	Ag	0.1511	0.79788	0.15839	0.391
Mof_Ag	Ag	0.66865	0.09908	0.85117	0.664
Mof_Ag	Ag	0.26045	0.70079	0.43674	0.303
Mof_Ag	Ag	0.32403	0.84073	0.45341	0.421
Mof_Ag	Ag	0.23955	0.70079	0.93674	0.307
Mof_Ag	Ag	0.73969	0.38938	0.27466	0.445
Mof_Ag	Ag	0.81958	0.27963	0.30976	0.193
Mof_Ag	Ag	0.53586	0.34244	0.37943	0.45
Mof_Ag	Ag	0.6511	0.20212	0.34161	0.397
Mof_Ag	Ag	0.03586	0.65756	0.12057	0.443
Mof_Ag	Ag	0.16865	0.90092	0.64883	0.665
Mof_H 	H 	0.1146	0.4822	0.2381	0.027
Mof_H 	H 	0.3427	0.0024	0.5596	0.076
Mof_H 	H 	0.6573	0.9976	0.4404	0.076
Mof_H 	H 	0.4068	0.2402	0.1742	0.06
Mof_H 	H 	0.5658	0.8131	0.0209	0.142
Mof_H 	H 	0.4833	0.0693	0.6242	0.031
Mof_H 	H 	0.1573	0.0024	0.0596	0.075
Mof_H 	H 	0.3854	0.4822	0.7381	0.028
Mof_H 	H 	0.0481	0.3944	0.1311	-0.015
Mof_H 	H 	0.0658	0.1869	0.4791	0.141
Mof_H 	H 	0.4519	0.3944	0.6311	-0.017
Mof_H 	H 	0.003	0.1601	0.5729	0.125
Mof_H 	H 	0.4342	0.1869	0.9791	0.142
Mof_H 	H 	0.9833	0.9307	0.8758	0.03
Mof_H 	H 	0.3724	0.4492	0.3528	0.001
Mof_H 	H 	0.503	0.8399	0.9271	0.124
Mof_H 	H 	0.5642	0.7197	0.9142	0.034
Mof_H 	H 	0.0642	0.2803	0.5858	0.033
Mof_H 	H 	0.5167	0.9307	0.3758	0.031
Mof_H 	H 	0.9358	0.7197	0.4142	0.033
Mof_H 	H 	0.497	0.1601	0.0729	0.124
Mof_H 	H 	0.4866	0.0159	0.9124	0.043
Mof_H 	H 	0.0167	0.0693	0.1242	0.03
Mof_H 	H 	0.1276	0.4492	0.8528	0.002
Mof_H 	H 	0.997	0.8399	0.4271	0.125
Mof_H 	H 	0.5481	0.6056	0.3689	-0.017
Mof_H 	H 	0.9342	0.8131	0.5209	0.141
Mof_H 	H 	0.9068	0.7598	0.3258	0.06
Mof_H 	H 	0.8854	0.5178	0.7619	0.027
Mof_H 	H 	0.6146	0.5178	0.2619	0.028
Mof_H 	H 	0.9519	0.6056	0.8689	-0.015
Mof_H 	H 	0.4358	0.2803	0.0858	0.034
Mof_H 	H 	0.9866	0.9841	0.5876	0.043
Mof_H 	H 	0.8427	0.9976	0.9404	0.075
Mof_H 	H 	0.8724	0.5508	0.1472	0.002
Mof_H 	H 	0.6276	0.5508	0.6472	0.001
Mof_H 	H 	0.0134	0.0159	0.4124	0.043
Mof_H 	H 	0.0932	0.2402	0.6742	0.06
Mof_H 	H 	0.5932	0.7598	0.8258	0.06
Mof_H 	H 	0.5134	0.9841	0.0876	0.043
Mof_C 	C 	0.1274	0.9722	0.3004	-0.022
Mof_C 	C 	0.676	0.0656	0.1227	0.372
Mof_C 	C 	0.6274	0.0278	0.1996	-0.018
Mof_C 	C 	0.6208	0.5439	0.5678	0.056
Mof_C 	C 	0.168	0.107	0.8497	1.076
Mof_C 	C 	0.8419	0.4896	0.0034	-0.072
Mof_C 	C 	0.0621	0.7248	0.3058	0.009
Mof_C 	C 	0.153	0.7042	0.2658	-0.385
Mof_C 	C 	0.3057	0.794	0.0628	-0.452
Mof_C 	C 	0.6581	0.4896	0.5034	-0.076
Mof_C 	C 	0.8843	0.5234	0.8414	-0.012
Mof_C 	C 	0.9379	0.2752	0.6942	0.009
Mof_C 	C 	0.3843	0.4766	0.6586	-0.014
Mof_C 	C 	0.6986	0.4406	0.5608	0.352
Mof_C 	C 	0.1208	0.4561	0.9322	0.055
Mof_C 	C 	0.324	0.9344	0.8773	0.372
Mof_C 	C 	0.5342	0.75	0.8756	-0.09
Mof_C 	C 	0.5508	0.8665	0.621	0.038
Mof_C 	C 	0.0433	0.0444	0.1713	0.075
Mof_C 	C 	0.6286	0.9958	0.3672	0.043
Mof_C 	C 	0.8965	0.198	0.4765	0.099
Mof_C 	C 	0.9243	0.5763	0.9057	0.017
Mof_C 	C 	0.8726	0.0278	0.6996	-0.022
Mof_C 	C 	0.0056	0.1943	0.5358	-0.263
Mof_C 	C 	0.1943	0.794	0.5628	-0.451
Mof_C 	C 	0.6943	0.206	0.9372	-0.452
Mof_C 	C 	0.4379	0.7248	0.8058	0.012
Mof_C 	C 	0.0414	0.0133	0.3385	0.109
Mof_C 	C 	0.3014	0.5594	0.4392	0.352
Mof_C 	C 	0.0508	0.1335	0.879	0.037
Mof_C 	C 	0.653	0.2958	0.2342	-0.388
Mof_C 	C 	0.0342	0.25	0.6244	-0.085
Mof_C 	C 	0.0757	0.4237	0.0943	0.017
Mof_C 	C 	0.4567	0.0444	0.6713	0.074
Mof_C 	C 	0.9492	0.8665	0.121	0.037
Mof_C 	C 	0.6035	0.198	0.9765	0.101
Mof_C 	C 	0.3714	0.0042	0.6328	0.043
Mof_C 	C 	0.3419	0.5104	0.4966	-0.076
Mof_C 	C 	0.4492	0.1335	0.379	0.038
Mof_C 	C 	0.8792	0.5439	0.0678	0.055
Mof_C 	C 	0.5414	0.9867	0.1615	0.106
Mof_C 	C 	0.5056	0.8057	0.9642	-0.264
Mof_C 	C 	0.8057	0.206	0.4372	-0.451
Mof_C 	C 	0.9658	0.75	0.3756	-0.085
Mof_C 	C 	0.8714	0.9958	0.8672	0.043
Mof_C 	C 	0.847	0.2958	0.7342	-0.385
Mof_C 	C 	0.8014	0.4406	0.0608	0.351
Mof_C 	C 	0.5433	0.9556	0.3287	0.074
Mof_C 	C 	0.1035	0.802	0.5235	0.099
Mof_C 	C 	0.1286	0.0042	0.1328	0.043
Mof_C 	C 	0.1581	0.5104	0.9966	-0.072
Mof_C 	C 	0.332	0.107	0.3497	1.076
Mof_C 	C 	0.4586	0.0133	0.8385	0.106
Mof_C 	C 	0.347	0.7042	0.7658	-0.388
Mof_C 	C 	0.4658	0.25	0.1244	-0.09
Mof_C 	C 	0.4944	0.1943	0.0358	-0.264
Mof_C 	C 	0.3792	0.4561	0.4322	0.056
Mof_C 	C 	0.5757	0.5763	0.4057	0.022
Mof_C 	C 	0.6157	0.5234	0.3414	-0.014
Mof_C 	C 	0.3726	0.9722	0.8004	-0.018
Mof_C 	C 	0.4243	0.4237	0.5943	0.022
Mof_C 	C 	0.176	0.9344	0.3773	0.373
Mof_C 	C 	0.1986	0.5594	0.9392	0.351
Mof_C 	C 	0.1157	0.4766	0.1586	-0.012
Mof_C 	C 	0.9944	0.8057	0.4642	-0.263
Mof_C 	C 	0.9567	0.9556	0.8287	0.075
Mof_C 	C 	0.824	0.0656	0.6227	0.373
Mof_C 	C 	0.3965	0.802	0.0235	0.101
Mof_C 	C 	0.9586	0.9867	0.6615	0.109
Mof_C 	C 	0.668	0.893	0.6503	1.076
Mof_C 	C 	0.832	0.893	0.1503	1.076
Mof_C 	C 	0.5621	0.2752	0.1942	0.012
Mof_N 	N 	0.4976	0.9516	0.2244	-0.156
Mof_N 	N 	0.6721	0.0324	0.3048	-0.125
Mof_N 	N 	0.1721	0.9676	0.1952	-0.126
Mof_N 	N 	0.4245	0.4133	0.4795	-0.183
Mof_N 	N 	0.6559	0.4796	0.389	-0.133
Mof_N 	N 	0.1559	0.5204	0.111	-0.135
Mof_N 	N 	0.3441	0.5204	0.611	-0.133
Mof_N 	N 	0.5024	0.0484	0.7756	-0.156
Mof_N 	N 	0.9245	0.5867	0.0205	-0.179
Mof_N 	N 	0.8279	0.0324	0.8048	-0.126
Mof_N 	N 	0.9976	0.0484	0.2756	-0.157
Mof_N 	N 	0.8441	0.4796	0.889	-0.135
Mof_N 	N 	0.0755	0.4133	0.9795	-0.179
Mof_N 	N 	0.3279	0.9676	0.6952	-0.125
Mof_N 	N 	0.0024	0.9516	0.7244	-0.157
Mof_N 	N 	0.5755	0.5867	0.5205	-0.183
Mof_O 	O 	0.1996	0.6118	0.9975	-0.443
Mof_O 	O 	0.0047	0.1248	0.9639	-0.231
Mof_O 	O 	0.7491	0.1043	0.1646	-0.43
Mof_O 	O 	0.7509	0.1043	0.6646	-0.43
Mof_O 	O 	0.5047	0.8752	0.5361	-0.234
Mof_O 	O 	0.6405	0.0555	0.0234	-0.329
Mof_O 	O 	0.2509	0.8957	0.8354	-0.43
Mof_O 	O 	0.5159	0.8366	0.6926	-0.245
Mof_O 	O 	0.9953	0.8752	0.0361	-0.231
Mof_O 	O 	0.9841	0.8366	0.1926	-0.242
Mof_O 	O 	0.1405	0.9445	0.4766	-0.33
Mof_O 	O 	0.0159	0.1634	0.8074	-0.242
Mof_O 	O 	0.7221	0.4571	0.663	-0.368
Mof_O 	O 	0.2491	0.8957	0.3354	-0.43
Mof_O 	O 	0.2221	0.5429	0.837	-0.368
Mof_O 	O 	0.3004	0.6118	0.4975	-0.445
Mof_O 	O 	0.8595	0.0555	0.5234	-0.33
Mof_O 	O 	0.2779	0.5429	0.337	-0.368
Mof_O 	O 	0.8004	0.3882	0.0025	-0.443
Mof_O 	O 	0.4841	0.1634	0.3074	-0.245
Mof_O 	O 	0.4953	0.1248	0.4639	-0.234
Mof_O 	O 	0.6996	0.3882	0.5025	-0.445
Mof_O 	O 	0.3595	0.9445	0.9766	-0.329
Mof_O 	O 	0.7779	0.4571	0.163	-0.368
Mof_F 	F 	0.3236	0.0798	0.2427	-0.52
Mof_F 	F 	0.8236	0.9202	0.2573	-0.52
Mof_F 	F 	0.1874	0.0636	0.8943	-0.576
Mof_F 	F 	0.6874	0.9364	0.6057	-0.576
Mof_F 	F 	0.6764	0.9202	0.7573	-0.52
Mof_F 	F 	0.1764	0.0798	0.7427	-0.52
Mof_F 	F 	0.3126	0.0636	0.3943	-0.576
Mof_F 	F 	0.7448	0.8572	0.6422	-0.604
Mof_F 	F 	0.2448	0.1428	0.8578	-0.604
Mof_F 	F 	0.8126	0.9364	0.1057	-0.576
Mof_F 	F 	0.7552	0.8572	0.1422	-0.604
Mof_F 	F 	0.2552	0.1428	0.3578	-0.604
_end
