data_functionalizedCrystal
_audit_creation_method	'EQeq! by Chris Wilmer'
_symmetry_space_group_name_H-M	'P1'
_symmetry_Int_Tables_number	1
_symmetry_cell_setting	triclinic
loop_
_symmetry_equiv_pos_as_xyz
  x,y,z
_cell_length_a	19.6786
_cell_length_b	22.7703
_cell_length_c	14.8344
_cell_angle_alpha	90
_cell_angle_beta	104.147
_cell_angle_gamma	90
loop_
_atom_site_label
_atom_site_type_symbol
_atom_site_fract_x
_atom_site_fract_y
_atom_site_fract_z
_atom_site_charge
Mof_Mn	Mn	0.03055	0.56962	0.53378	0.928
Mof_Mn	Mn	0.05714	0.56069	0.78814	0.792
Mof_O 	O 	0.03715	0.47835	0.5864	-0.447
Mof_O 	O 	0.09472	0.48328	0.7361	-0.383
Mof_O 	O 	0.17863	0.39166	0.7226	-0.259
Mof_O 	O 	0.87964	0.45045	0.5164	-0.384
Mof_O 	O 	0.8917	0.393	0.6413	-0.28
Mof_O 	O 	0.78568	0.4509	0.6907	-0.276
Mof_O 	O 	0.93947	0.909	0.0817	-0.413
Mof_O 	O 	0.9524	0.9356	0.2273	-0.435
Mof_O 	O 	0.0951	0.89191	0.1597	-0.423
Mof_O 	O 	0.1579	0.8933	0.3032	-0.384
Mof_O 	O 	0.19978	0.83328	0.1058	-0.278
Mof_O 	O 	0.80262	0.89089	0.0637	-0.257
Mof_C 	C 	0.0822	0.4597	0.6582	0.405
Mof_C 	C 	0.1223	0.4054	0.6429	-0.189
Mof_H 	H 	0.0903	0.3723	0.6297	0.09
Mof_H 	H 	0.1415	0.4114	0.5893	0.101
Mof_C 	C 	0.2367	0.4261	0.7374	0.477
Mof_C 	C 	0.2908	0.4105	0.8133	-0.585
Mof_H 	H 	0.285	0.3788	0.8503	0.223
Mof_C 	C 	0.3532	0.4418	0.8344	0.542
Mof_C 	C 	0.3611	0.48931	0.7777	-0.477
Mof_C 	C 	0.3071	0.5042	0.7022	0.57
Mof_C 	C 	0.2446	0.4734	0.6815	-0.597
Mof_H 	H 	0.2084	0.4841	0.6311	0.245
Mof_C 	C 	0.3156	0.5536	0.6372	-1.108
Mof_H 	H 	0.2702	0.5665	0.6027	0.366
Mof_H 	H 	0.3419	0.5398	0.5948	0.34
Mof_H 	H 	0.3399	0.5858	0.6728	0.36
Mof_C 	C 	0.4116	0.4227	0.9142	-1.077
Mof_H 	H 	0.4331	0.4565	0.948	0.333
Mof_H 	H 	0.4459	0.4014	0.891	0.321
Mof_H 	H 	0.3932	0.3977	0.9548	0.334
Mof_C 	C 	0.4262	0.52635	0.7996	0.217
Mof_C 	C 	0.4857	0.5082	0.7746	-0.323
Mof_H 	H 	0.4851	0.472	0.7455	0.116
Mof_C 	C 	0.5467	0.5412	0.7904	0.22
Mof_C 	C 	0.5483	0.5967	0.8332	-0.111
Mof_C 	C 	0.4881	0.6163	0.8612	0.023
Mof_C 	C 	0.4266	0.58052	0.8442	-0.109
Mof_C 	C 	0.3669	0.6016	0.8744	-0.047
Mof_H 	H 	0.3265	0.5787	0.8635	0.04
Mof_C 	C 	0.3679	0.6541	0.9186	-0.044
Mof_H 	H 	0.3284	0.6663	0.9374	0.034
Mof_C 	C 	0.4288	0.69103	0.9367	-0.112
Mof_C 	C 	0.4887	0.6716	0.9081	0.018
Mof_C 	C 	0.5506	0.7069	0.9257	-0.109
Mof_C 	C 	0.6097	0.686	0.8952	-0.052
Mof_H 	H 	0.6502	0.7087	0.9061	0.032
Mof_C 	C 	0.6083	0.6339	0.8507	-0.047
Mof_H 	H 	0.6475	0.6221	0.831	0.033
Mof_C 	C 	0.5515	0.7604	0.9743	0.211
Mof_C 	C 	0.492	0.778	0.0009	-0.323
Mof_H 	H 	0.4931	0.8136	0.0318	0.118
Mof_C 	C 	0.4306	0.7449	0.984	0.218
Mof_C 	C 	0.3117	0.8052	0.8563	-1.13
Mof_H 	H 	0.2653	0.8163	0.8231	0.364
Mof_H 	H 	0.3251	0.7698	0.8302	0.348
Mof_H 	H 	0.344	0.8361	0.8515	0.347
Mof_C 	C 	0.3694	0.7671	0.0176	-0.49
Mof_C 	C 	0.3695	0.7611	0.1099	0.557
Mof_C 	C 	0.4298	0.7319	0.177	-1.05
Mof_H 	H 	0.4233	0.7349	0.239	0.315
Mof_H 	H 	0.4728	0.7508	0.1742	0.319
Mof_H 	H 	0.4317	0.6912	0.1607	0.313
Mof_C 	C 	0.3134	0.7833	0.142	-0.595
Mof_H 	H 	0.3139	0.7808	0.2047	0.21
Mof_C 	C 	0.257	0.8092	0.0801	0.492
Mof_C 	C 	0.2575	0.8153	0.9896	-0.64
Mof_H 	H 	0.2198	0.8333	0.9488	0.263
Mof_C 	C 	0.3131	0.7952	0.957	0.6
Mof_C 	C 	0.205	0.8375	0.2015	-0.144
Mof_H 	H 	0.2507	0.8528	0.2325	0.066
Mof_H 	H 	0.2002	0.7988	0.2265	0.068
Mof_C 	C 	0.1482	0.8779	0.2202	0.381
Mof_C 	C 	0.6165	0.796	0.0001	-0.454
Mof_C 	C 	0.6349	0.8343	0.9359	0.541
Mof_C 	C 	0.6971	0.8655	0.961	-0.578
Mof_H 	H 	0.7095	0.8906	0.9182	0.231
Mof_C 	C 	0.7413	0.8598	0.0495	0.459
Mof_C 	C 	0.7227	0.8235	0.1139	-0.562
Mof_H 	H 	0.7518	0.8204	0.1734	0.217
Mof_C 	C 	0.6605	0.7912	0.0902	0.527
Mof_C 	C 	0.6418	0.7522	0.1624	-1.051
Mof_H 	H 	0.683	0.7447	0.211	0.329
Mof_H 	H 	0.6233	0.7158	0.1343	0.323
Mof_H 	H 	0.6073	0.7714	0.1879	0.313
Mof_C 	C 	0.5871	0.8428	0.8415	-1.064
Mof_H 	H 	0.6049	0.8737	0.8097	0.325
Mof_H 	H 	0.5411	0.8531	0.8477	0.318
Mof_H 	H 	0.5846	0.8071	0.8065	0.321
Mof_C 	C 	0.846	0.8926	0.1545	-0.177
Mof_H 	H 	0.8489	0.8537	0.1819	0.077
Mof_H 	H 	0.8259	0.9189	0.1925	0.094
Mof_C 	C 	0.9197	0.914	0.1527	0.45
Mof_C 	C 	0.6094	0.5182	0.7618	-0.483
Mof_C 	C 	0.6194	0.5307	0.6738	0.576
Mof_C 	C 	0.6783	0.5082	0.648	-0.606
Mof_H 	H 	0.6852	0.5166	0.5896	0.226
Mof_C 	C 	0.726	0.4736	0.7089	0.495
Mof_C 	C 	0.7154	0.4612	0.7947	-0.617
Mof_H 	H 	0.7474	0.4374	0.835	0.236
Mof_C 	C 	0.6581	0.4831	0.823	0.578
Mof_C 	C 	0.6485	0.4685	0.9176	-1.118
Mof_H 	H 	0.6881	0.4464	0.9514	0.35
Mof_H 	H 	0.6066	0.4457	0.9114	0.342
Mof_H 	H 	0.6446	0.5042	0.9505	0.349
Mof_C 	C 	0.5676	0.5671	0.6071	-1.112
Mof_H 	H 	0.582	0.5709	0.5501	0.341
Mof_H 	H 	0.5649	0.6054	0.6333	0.346
Mof_H 	H 	0.5224	0.5487	0.595	0.336
Mof_C 	C 	0.7959	0.4618	0.601	-0.131
Mof_H 	H 	0.7983	0.5038	0.5918	0.086
Mof_H 	H 	0.756	0.4467	0.5547	0.053
Mof_C 	C 	0.8628	0.4331	0.5873	0.356
Mof_Mn	Mn	0.96945	0.06962	0.96622	0.917
Mof_Mn	Mn	0.94286	0.06069	0.71186	0.783
Mof_O 	O 	0.96285	0.97835	0.9136	-0.444
Mof_O 	O 	0.90528	0.98328	0.7639	-0.381
Mof_O 	O 	0.82137	0.89166	0.7774	-0.257
Mof_O 	O 	0.12036	0.95045	0.9836	-0.382
Mof_O 	O 	0.1083	0.893	0.8587	-0.28
Mof_O 	O 	0.21432	0.9509	0.8093	-0.276
Mof_O 	O 	0.06053	0.409	0.4183	-0.416
Mof_O 	O 	0.0476	0.4356	0.2727	-0.439
Mof_O 	O 	0.9049	0.39191	0.3403	-0.423
Mof_O 	O 	0.8421	0.3933	0.1968	-0.384
Mof_O 	O 	0.80022	0.33328	0.3942	-0.278
Mof_O 	O 	0.19738	0.39089	0.4363	-0.257
Mof_C 	C 	0.9178	0.9597	0.8418	0.404
Mof_C 	C 	0.8777	0.9054	0.8571	-0.189
Mof_H 	H 	0.9097	0.8723	0.8703	0.09
Mof_H 	H 	0.8585	0.9114	0.9107	0.102
Mof_C 	C 	0.7633	0.9261	0.7626	0.471
Mof_C 	C 	0.7092	0.9105	0.6867	-0.578
Mof_H 	H 	0.715	0.8788	0.6497	0.221
Mof_C 	C 	0.6468	0.9418	0.6656	0.535
Mof_C 	C 	0.6389	0.98931	0.7223	-0.466
Mof_C 	C 	0.6929	0.0042	0.7978	0.555
Mof_C 	C 	0.7554	0.9734	0.8185	-0.584
Mof_H 	H 	0.7916	0.9841	0.8689	0.242
Mof_C 	C 	0.6844	0.0536	0.8628	-1.091
Mof_H 	H 	0.7298	0.0665	0.8973	0.36
Mof_H 	H 	0.6581	0.0398	0.9052	0.334
Mof_H 	H 	0.6601	0.0858	0.8272	0.355
Mof_C 	C 	0.5884	0.9227	0.5858	-1.069
Mof_H 	H 	0.5669	0.9565	0.552	0.33
Mof_H 	H 	0.5541	0.9014	0.609	0.319
Mof_H 	H 	0.6068	0.8977	0.5452	0.331
Mof_C 	C 	0.5738	0.02635	0.7004	0.212
Mof_C 	C 	0.5143	0.0082	0.7254	-0.322
Mof_H 	H 	0.5149	0.972	0.7545	0.117
Mof_C 	C 	0.4533	0.0412	0.7096	0.22
Mof_C 	C 	0.4517	0.0967	0.6668	-0.111
Mof_C 	C 	0.5119	0.1163	0.6388	0.023
Mof_C 	C 	0.5734	0.08052	0.6558	-0.107
Mof_C 	C 	0.6331	0.1016	0.6256	-0.048
Mof_H 	H 	0.6735	0.0787	0.6365	0.039
Mof_C 	C 	0.6321	0.1541	0.5814	-0.045
Mof_H 	H 	0.6716	0.1663	0.5626	0.033
Mof_C 	C 	0.5712	0.19103	0.5633	-0.11
Mof_C 	C 	0.5113	0.1716	0.5919	0.017
Mof_C 	C 	0.4494	0.2069	0.5743	-0.108
Mof_C 	C 	0.3903	0.186	0.6048	-0.053
Mof_H 	H 	0.3498	0.2087	0.5939	0.033
Mof_C 	C 	0.3917	0.1339	0.6493	-0.047
Mof_H 	H 	0.3525	0.1221	0.669	0.033
Mof_C 	C 	0.4485	0.2604	0.5257	0.207
Mof_C 	C 	0.508	0.278	0.4991	-0.317
Mof_H 	H 	0.5069	0.3136	0.4682	0.116
Mof_C 	C 	0.5694	0.2449	0.516	0.213
Mof_C 	C 	0.6883	0.3052	0.6437	-1.127
Mof_H 	H 	0.7347	0.3163	0.6769	0.363
Mof_H 	H 	0.6749	0.2698	0.6698	0.347
Mof_H 	H 	0.656	0.3361	0.6485	0.346
Mof_C 	C 	0.6306	0.2671	0.4824	-0.486
Mof_C 	C 	0.6305	0.2611	0.3901	0.555
Mof_C 	C 	0.5702	0.2319	0.323	-1.048
Mof_H 	H 	0.5767	0.2349	0.261	0.315
Mof_H 	H 	0.5272	0.2508	0.3258	0.318
Mof_H 	H 	0.5683	0.1912	0.3393	0.313
Mof_C 	C 	0.6866	0.2833	0.358	-0.595
Mof_H 	H 	0.6861	0.2808	0.2953	0.21
Mof_C 	C 	0.743	0.3092	0.4199	0.494
Mof_C 	C 	0.7425	0.3153	0.5104	-0.642
Mof_H 	H 	0.7802	0.3333	0.5512	0.263
Mof_C 	C 	0.6869	0.2952	0.543	0.597
Mof_C 	C 	0.795	0.3375	0.2985	-0.144
Mof_H 	H 	0.7493	0.3528	0.2675	0.066
Mof_H 	H 	0.7998	0.2988	0.2735	0.069
Mof_C 	C 	0.8518	0.3779	0.2798	0.381
Mof_C 	C 	0.3835	0.296	0.4999	-0.451
Mof_C 	C 	0.3651	0.3343	0.5641	0.538
Mof_C 	C 	0.3029	0.3655	0.539	-0.576
Mof_H 	H 	0.2905	0.3906	0.5818	0.23
Mof_C 	C 	0.2587	0.3598	0.4505	0.458
Mof_C 	C 	0.2773	0.3235	0.3861	-0.561
Mof_H 	H 	0.2482	0.3204	0.3266	0.216
Mof_C 	C 	0.3395	0.2912	0.4098	0.525
Mof_C 	C 	0.3582	0.2522	0.3376	-1.049
Mof_H 	H 	0.317	0.2447	0.289	0.328
Mof_H 	H 	0.3767	0.2158	0.3657	0.322
Mof_H 	H 	0.3927	0.2714	0.3121	0.312
Mof_C 	C 	0.4129	0.3428	0.6585	-1.061
Mof_H 	H 	0.3951	0.3737	0.6903	0.324
Mof_H 	H 	0.4589	0.3531	0.6523	0.317
Mof_H 	H 	0.4154	0.3071	0.6935	0.32
Mof_C 	C 	0.154	0.3926	0.3455	-0.178
Mof_H 	H 	0.1511	0.3537	0.3181	0.077
Mof_H 	H 	0.1741	0.4189	0.3075	0.094
Mof_C 	C 	0.0803	0.414	0.3473	0.451
Mof_C 	C 	0.3906	0.0182	0.7382	-0.482
Mof_C 	C 	0.3806	0.0307	0.8262	0.575
Mof_C 	C 	0.3217	0.0082	0.852	-0.604
Mof_H 	H 	0.3148	0.0166	0.9104	0.226
Mof_C 	C 	0.274	0.9736	0.7911	0.494
Mof_C 	C 	0.2846	0.9612	0.7053	-0.617
Mof_H 	H 	0.2526	0.9374	0.665	0.237
Mof_C 	C 	0.3419	0.9831	0.677	0.579
Mof_C 	C 	0.3515	0.9685	0.5824	-1.124
Mof_H 	H 	0.3119	0.9464	0.5486	0.352
Mof_H 	H 	0.3934	0.9457	0.5886	0.344
Mof_H 	H 	0.3554	0.0042	0.5495	0.352
Mof_C 	C 	0.4324	0.0671	0.8929	-1.11
Mof_H 	H 	0.418	0.0709	0.9499	0.34
Mof_H 	H 	0.4351	0.1054	0.8667	0.346
Mof_H 	H 	0.4776	0.0487	0.905	0.335
Mof_C 	C 	0.2041	0.9618	0.899	-0.135
Mof_H 	H 	0.2017	0.0038	0.9082	0.088
Mof_H 	H 	0.244	0.9467	0.9453	0.055
Mof_C 	C 	0.1372	0.9331	0.9127	0.356
Mof_Mn	Mn	0.96945	0.43038	0.46622	0.927
Mof_Mn	Mn	0.94286	0.43931	0.21186	0.791
Mof_O 	O 	0.96285	0.52165	0.4136	-0.448
Mof_O 	O 	0.90528	0.51672	0.2639	-0.384
Mof_O 	O 	0.82137	0.60834	0.2774	-0.259
Mof_O 	O 	0.12036	0.54955	0.4836	-0.384
Mof_O 	O 	0.1083	0.607	0.3587	-0.28
Mof_O 	O 	0.21432	0.5491	0.3093	-0.276
Mof_O 	O 	0.06053	0.091	0.9183	-0.413
Mof_O 	O 	0.0476	0.0644	0.7727	-0.435
Mof_O 	O 	0.9049	0.10809	0.8403	-0.423
Mof_O 	O 	0.8421	0.1067	0.6968	-0.384
Mof_O 	O 	0.80022	0.16672	0.8942	-0.278
Mof_O 	O 	0.19738	0.10911	0.9363	-0.257
Mof_C 	C 	0.9178	0.5403	0.3418	0.405
Mof_C 	C 	0.8777	0.5946	0.3571	-0.189
Mof_H 	H 	0.9097	0.6277	0.3703	0.09
Mof_H 	H 	0.8585	0.5886	0.4107	0.101
Mof_C 	C 	0.7633	0.5739	0.2626	0.477
Mof_C 	C 	0.7092	0.5895	0.1867	-0.585
Mof_H 	H 	0.715	0.6212	0.1497	0.223
Mof_C 	C 	0.6468	0.5582	0.1656	0.542
Mof_C 	C 	0.6389	0.51069	0.2223	-0.477
Mof_C 	C 	0.6929	0.4958	0.2978	0.57
Mof_C 	C 	0.7554	0.5266	0.3185	-0.597
Mof_H 	H 	0.7916	0.5159	0.3689	0.245
Mof_C 	C 	0.6844	0.4464	0.3628	-1.108
Mof_H 	H 	0.7298	0.4335	0.3973	0.366
Mof_H 	H 	0.6581	0.4602	0.4052	0.34
Mof_H 	H 	0.6601	0.4142	0.3272	0.36
Mof_C 	C 	0.5884	0.5773	0.0858	-1.077
Mof_H 	H 	0.5669	0.5435	0.052	0.333
Mof_H 	H 	0.5541	0.5986	0.109	0.321
Mof_H 	H 	0.6068	0.6023	0.0452	0.334
Mof_C 	C 	0.5738	0.47365	0.2004	0.217
Mof_C 	C 	0.5143	0.4918	0.2254	-0.323
Mof_H 	H 	0.5149	0.528	0.2545	0.116
Mof_C 	C 	0.4533	0.4588	0.2096	0.22
Mof_C 	C 	0.4517	0.4033	0.1668	-0.111
Mof_C 	C 	0.5119	0.3837	0.1388	0.023
Mof_C 	C 	0.5734	0.41948	0.1558	-0.109
Mof_C 	C 	0.6331	0.3984	0.1256	-0.047
Mof_H 	H 	0.6735	0.4213	0.1365	0.04
Mof_C 	C 	0.6321	0.3459	0.0814	-0.044
Mof_H 	H 	0.6716	0.3337	0.0626	0.034
Mof_C 	C 	0.5712	0.30897	0.0633	-0.112
Mof_C 	C 	0.5113	0.3284	0.0919	0.018
Mof_C 	C 	0.4494	0.2931	0.0743	-0.109
Mof_C 	C 	0.3903	0.314	0.1048	-0.052
Mof_H 	H 	0.3498	0.2913	0.0939	0.032
Mof_C 	C 	0.3917	0.3661	0.1493	-0.047
Mof_H 	H 	0.3525	0.3779	0.169	0.033
Mof_C 	C 	0.4485	0.2396	0.0257	0.211
Mof_C 	C 	0.508	0.222	0.9991	-0.323
Mof_H 	H 	0.5069	0.1864	0.9682	0.118
Mof_C 	C 	0.5694	0.2551	0.016	0.218
Mof_C 	C 	0.6883	0.1948	0.1437	-1.13
Mof_H 	H 	0.7347	0.1837	0.1769	0.364
Mof_H 	H 	0.6749	0.2302	0.1698	0.348
Mof_H 	H 	0.656	0.1639	0.1485	0.347
Mof_C 	C 	0.6306	0.2329	0.9824	-0.49
Mof_C 	C 	0.6305	0.2389	0.8901	0.557
Mof_C 	C 	0.5702	0.2681	0.823	-1.05
Mof_H 	H 	0.5767	0.2651	0.761	0.315
Mof_H 	H 	0.5272	0.2492	0.8258	0.319
Mof_H 	H 	0.5683	0.3088	0.8393	0.313
Mof_C 	C 	0.6866	0.2167	0.858	-0.595
Mof_H 	H 	0.6861	0.2192	0.7953	0.21
Mof_C 	C 	0.743	0.1908	0.9199	0.492
Mof_C 	C 	0.7425	0.1847	0.0104	-0.64
Mof_H 	H 	0.7802	0.1667	0.0512	0.263
Mof_C 	C 	0.6869	0.2048	0.043	0.6
Mof_C 	C 	0.795	0.1625	0.7985	-0.144
Mof_H 	H 	0.7493	0.1472	0.7675	0.066
Mof_H 	H 	0.7998	0.2012	0.7735	0.068
Mof_C 	C 	0.8518	0.1221	0.7798	0.381
Mof_C 	C 	0.3835	0.204	0.9999	-0.454
Mof_C 	C 	0.3651	0.1657	0.0641	0.541
Mof_C 	C 	0.3029	0.1345	0.039	-0.578
Mof_H 	H 	0.2905	0.1094	0.0818	0.231
Mof_C 	C 	0.2587	0.1402	0.9505	0.459
Mof_C 	C 	0.2773	0.1765	0.8861	-0.562
Mof_H 	H 	0.2482	0.1796	0.8266	0.217
Mof_C 	C 	0.3395	0.2088	0.9098	0.527
Mof_C 	C 	0.3582	0.2478	0.8376	-1.051
Mof_H 	H 	0.317	0.2553	0.789	0.329
Mof_H 	H 	0.3767	0.2842	0.8657	0.323
Mof_H 	H 	0.3927	0.2286	0.8121	0.313
Mof_C 	C 	0.4129	0.1572	0.1585	-1.064
Mof_H 	H 	0.3951	0.1263	0.1903	0.325
Mof_H 	H 	0.4589	0.1469	0.1523	0.318
Mof_H 	H 	0.4154	0.1929	0.1935	0.321
Mof_C 	C 	0.154	0.1074	0.8455	-0.177
Mof_H 	H 	0.1511	0.1463	0.8181	0.077
Mof_H 	H 	0.1741	0.0811	0.8075	0.094
Mof_C 	C 	0.0803	0.086	0.8473	0.45
Mof_C 	C 	0.3906	0.4818	0.2382	-0.483
Mof_C 	C 	0.3806	0.4693	0.3262	0.576
Mof_C 	C 	0.3217	0.4918	0.352	-0.606
Mof_H 	H 	0.3148	0.4834	0.4104	0.226
Mof_C 	C 	0.274	0.5264	0.2911	0.495
Mof_C 	C 	0.2846	0.5388	0.2053	-0.617
Mof_H 	H 	0.2526	0.5626	0.165	0.236
Mof_C 	C 	0.3419	0.5169	0.177	0.578
Mof_C 	C 	0.3515	0.5315	0.0824	-1.118
Mof_H 	H 	0.3119	0.5536	0.0486	0.35
Mof_H 	H 	0.3934	0.5543	0.0886	0.342
Mof_H 	H 	0.3554	0.4958	0.0495	0.349
Mof_C 	C 	0.4324	0.4329	0.3929	-1.112
Mof_H 	H 	0.418	0.4291	0.4499	0.341
Mof_H 	H 	0.4351	0.3946	0.3667	0.346
Mof_H 	H 	0.4776	0.4513	0.405	0.336
Mof_C 	C 	0.2041	0.5382	0.399	-0.131
Mof_H 	H 	0.2017	0.4962	0.4082	0.086
Mof_H 	H 	0.244	0.5533	0.4453	0.053
Mof_C 	C 	0.1372	0.5669	0.4127	0.356
Mof_Mn	Mn	0.03055	0.93038	0.03378	0.917
Mof_Mn	Mn	0.05714	0.93931	0.28814	0.783
Mof_O 	O 	0.03715	0.02165	0.0864	-0.444
Mof_O 	O 	0.09472	0.01672	0.2361	-0.381
Mof_O 	O 	0.17863	0.10834	0.2226	-0.257
Mof_O 	O 	0.87964	0.04955	0.0164	-0.382
Mof_O 	O 	0.8917	0.107	0.1413	-0.28
Mof_O 	O 	0.78568	0.0491	0.1907	-0.276
Mof_O 	O 	0.93947	0.591	0.5817	-0.416
Mof_O 	O 	0.9524	0.5644	0.7273	-0.439
Mof_O 	O 	0.0951	0.60809	0.6597	-0.423
Mof_O 	O 	0.1579	0.6067	0.8032	-0.384
Mof_O 	O 	0.19978	0.66672	0.6058	-0.278
Mof_O 	O 	0.80262	0.60911	0.5637	-0.257
Mof_C 	C 	0.0822	0.0403	0.1582	0.404
Mof_C 	C 	0.1223	0.0946	0.1429	-0.189
Mof_H 	H 	0.0903	0.1277	0.1297	0.09
Mof_H 	H 	0.1415	0.0886	0.0893	0.102
Mof_C 	C 	0.2367	0.0739	0.2374	0.471
Mof_C 	C 	0.2908	0.0895	0.3133	-0.578
Mof_H 	H 	0.285	0.1212	0.3503	0.221
Mof_C 	C 	0.3532	0.0582	0.3344	0.535
Mof_C 	C 	0.3611	0.01069	0.2777	-0.466
Mof_C 	C 	0.3071	0.9958	0.2022	0.555
Mof_C 	C 	0.2446	0.0266	0.1815	-0.584
Mof_H 	H 	0.2084	0.0159	0.1311	0.242
Mof_C 	C 	0.3156	0.9464	0.1372	-1.091
Mof_H 	H 	0.2702	0.9335	0.1027	0.36
Mof_H 	H 	0.3419	0.9602	0.0948	0.334
Mof_H 	H 	0.3399	0.9142	0.1728	0.355
Mof_C 	C 	0.4116	0.0773	0.4142	-1.069
Mof_H 	H 	0.4331	0.0435	0.448	0.33
Mof_H 	H 	0.4459	0.0986	0.391	0.319
Mof_H 	H 	0.3932	0.1023	0.4548	0.331
Mof_C 	C 	0.4262	0.97365	0.2996	0.212
Mof_C 	C 	0.4857	0.9918	0.2746	-0.322
Mof_H 	H 	0.4851	0.028	0.2455	0.117
Mof_C 	C 	0.5467	0.9588	0.2904	0.22
Mof_C 	C 	0.5483	0.9033	0.3332	-0.111
Mof_C 	C 	0.4881	0.8837	0.3612	0.023
Mof_C 	C 	0.4266	0.91948	0.3442	-0.107
Mof_C 	C 	0.3669	0.8984	0.3744	-0.048
Mof_H 	H 	0.3265	0.9213	0.3635	0.039
Mof_C 	C 	0.3679	0.8459	0.4186	-0.045
Mof_H 	H 	0.3284	0.8337	0.4374	0.033
Mof_C 	C 	0.4288	0.80897	0.4367	-0.11
Mof_C 	C 	0.4887	0.8284	0.4081	0.017
Mof_C 	C 	0.5506	0.7931	0.4257	-0.108
Mof_C 	C 	0.6097	0.814	0.3952	-0.053
Mof_H 	H 	0.6502	0.7913	0.4061	0.033
Mof_C 	C 	0.6083	0.8661	0.3507	-0.047
Mof_H 	H 	0.6475	0.8779	0.331	0.033
Mof_C 	C 	0.5515	0.7396	0.4743	0.207
Mof_C 	C 	0.492	0.722	0.5009	-0.317
Mof_H 	H 	0.4931	0.6864	0.5318	0.116
Mof_C 	C 	0.4306	0.7551	0.484	0.213
Mof_C 	C 	0.3117	0.6948	0.3563	-1.127
Mof_H 	H 	0.2653	0.6837	0.3231	0.363
Mof_H 	H 	0.3251	0.7302	0.3302	0.347
Mof_H 	H 	0.344	0.6639	0.3515	0.346
Mof_C 	C 	0.3694	0.7329	0.5176	-0.486
Mof_C 	C 	0.3695	0.7389	0.6099	0.555
Mof_C 	C 	0.4298	0.7681	0.677	-1.048
Mof_H 	H 	0.4233	0.7651	0.739	0.315
Mof_H 	H 	0.4728	0.7492	0.6742	0.318
Mof_H 	H 	0.4317	0.8088	0.6607	0.313
Mof_C 	C 	0.3134	0.7167	0.642	-0.595
Mof_H 	H 	0.3139	0.7192	0.7047	0.21
Mof_C 	C 	0.257	0.6908	0.5801	0.494
Mof_C 	C 	0.2575	0.6847	0.4896	-0.642
Mof_H 	H 	0.2198	0.6667	0.4488	0.263
Mof_C 	C 	0.3131	0.7048	0.457	0.597
Mof_C 	C 	0.205	0.6625	0.7015	-0.144
Mof_H 	H 	0.2507	0.6472	0.7325	0.066
Mof_H 	H 	0.2002	0.7012	0.7265	0.069
Mof_C 	C 	0.1482	0.6221	0.7202	0.381
Mof_C 	C 	0.6165	0.704	0.5001	-0.451
Mof_C 	C 	0.6349	0.6657	0.4359	0.538
Mof_C 	C 	0.6971	0.6345	0.461	-0.576
Mof_H 	H 	0.7095	0.6094	0.4182	0.23
Mof_C 	C 	0.7413	0.6402	0.5495	0.458
Mof_C 	C 	0.7227	0.6765	0.6139	-0.561
Mof_H 	H 	0.7518	0.6796	0.6734	0.216
Mof_C 	C 	0.6605	0.7088	0.5902	0.525
Mof_C 	C 	0.6418	0.7478	0.6624	-1.049
Mof_H 	H 	0.683	0.7553	0.711	0.328
Mof_H 	H 	0.6233	0.7842	0.6343	0.322
Mof_H 	H 	0.6073	0.7286	0.6879	0.312
Mof_C 	C 	0.5871	0.6572	0.3415	-1.061
Mof_H 	H 	0.6049	0.6263	0.3097	0.324
Mof_H 	H 	0.5411	0.6469	0.3477	0.317
Mof_H 	H 	0.5846	0.6929	0.3065	0.32
Mof_C 	C 	0.846	0.6074	0.6545	-0.178
Mof_H 	H 	0.8489	0.6463	0.6819	0.077
Mof_H 	H 	0.8259	0.5811	0.6925	0.094
Mof_C 	C 	0.9197	0.586	0.6527	0.451
Mof_C 	C 	0.6094	0.9818	0.2618	-0.482
Mof_C 	C 	0.6194	0.9693	0.1738	0.575
Mof_C 	C 	0.6783	0.9918	0.148	-0.604
Mof_H 	H 	0.6852	0.9834	0.0896	0.226
Mof_C 	C 	0.726	0.0264	0.2089	0.494
Mof_C 	C 	0.7154	0.0388	0.2947	-0.617
Mof_H 	H 	0.7474	0.0626	0.335	0.237
Mof_C 	C 	0.6581	0.0169	0.323	0.579
Mof_C 	C 	0.6485	0.0315	0.4176	-1.124
Mof_H 	H 	0.6881	0.0536	0.4514	0.352
Mof_H 	H 	0.6066	0.0543	0.4114	0.344
Mof_H 	H 	0.6446	0.9958	0.4505	0.352
Mof_C 	C 	0.5676	0.9329	0.1071	-1.11
Mof_H 	H 	0.582	0.9291	0.0501	0.34
Mof_H 	H 	0.5649	0.8946	0.1333	0.346
Mof_H 	H 	0.5224	0.9513	0.095	0.335
Mof_C 	C 	0.7959	0.0382	0.101	-0.135
Mof_H 	H 	0.7983	0.9962	0.0918	0.088
Mof_H 	H 	0.756	0.0533	0.0547	0.055
Mof_C 	C 	0.8628	0.0669	0.0873	0.356
_end
