data_functionalizedCrystal
_audit_creation_method	'EQeq! by Chris Wilmer'
_symmetry_space_group_name_H-M	'P1'
_symmetry_Int_Tables_number	1
_symmetry_cell_setting	triclinic
loop_
_symmetry_equiv_pos_as_xyz
  x,y,z
_cell_length_a	22.3235
_cell_length_b	22.3235
_cell_length_c	22.3235
_cell_angle_alpha	107.742
_cell_angle_beta	107.742
_cell_angle_gamma	107.742
loop_
_atom_site_label
_atom_site_type_symbol
_atom_site_fract_x
_atom_site_fract_y
_atom_site_fract_z
_atom_site_charge
Mof_Zn	Zn	0.03207	0.96751	0.54362	1.227
Mof_Zn	Zn	0.12924	0.62085	0.02954	1.246
Mof_Zn	Zn	0.54362	0.03207	0.96751	1.227
Mof_Zn	Zn	0.02954	0.12924	0.62085	1.246
Mof_Zn	Zn	0.96751	0.54362	0.03207	1.227
Mof_Zn	Zn	0.62085	0.02954	0.12924	1.246
Mof_Zn	Zn	0.96793	0.03249	0.45638	1.227
Mof_Zn	Zn	0.87076	0.37915	0.97046	1.246
Mof_Zn	Zn	0.45638	0.96793	0.03249	1.227
Mof_Zn	Zn	0.97046	0.87076	0.37915	1.246
Mof_Zn	Zn	0.03249	0.45638	0.96793	1.227
Mof_Zn	Zn	0.37915	0.97046	0.87076	1.246
Mof_H 	H 	0.9719	0.7188	0.3749	0.305
Mof_H 	H 	0.7517	0.1531	0.2917	0.317
Mof_H 	H 	0.0405	0.6261	0.8781	0.302
Mof_H 	H 	0.9784	0.0682	0.8695	0.125
Mof_H 	H 	0.0068	0.5996	0.6203	0.031
Mof_H 	H 	0.0086	0.7892	0.5969	-0.014
Mof_H 	H 	0.9657	0.8774	0.773	0.173
Mof_H 	H 	0.9796	0.6859	0.6065	0.14
Mof_H 	H 	0.99	0.6013	0.7161	0.171
Mof_H 	H 	0.9471	0.5859	0.4117	0.182
Mof_H 	H 	0.8887	0.3929	0.538	0.035
Mof_H 	H 	0.9582	0.3993	0.6376	0.136
Mof_H 	H 	0.8804	0.4958	0.4173	0.031
Mof_H 	H 	0.1893	0.6621	0.9159	-0.021
Mof_H 	H 	0.9956	0.41	0.7497	-0.018
Mof_H 	H 	0.7596	0.4061	0.3638	0.123
Mof_H 	H 	0.672	0.3027	0.2554	-0.025
Mof_H 	H 	0.3048	0.8067	0.9171	0.164
Mof_H 	H 	0.2245	0.7579	0.8716	0.167
Mof_H 	H 	0.2778	0.7254	0.8805	0.167
Mof_H 	H 	0.8621	0.3047	0.4257	0.167
Mof_H 	H 	0.0072	0.9077	0.652	0.308
Mof_H 	H 	0.3264	0.8582	0.0285	0.163
Mof_H 	H 	0.3134	0.8154	0.0711	0.189
Mof_H 	H 	0.256	0.8361	0.0352	0.178
Mof_H 	H 	0.3749	0.9719	0.7188	0.305
Mof_H 	H 	0.2917	0.7517	0.1531	0.317
Mof_H 	H 	0.8781	0.0405	0.6261	0.302
Mof_H 	H 	0.8695	0.9784	0.0682	0.125
Mof_H 	H 	0.6203	0.0068	0.5996	0.031
Mof_H 	H 	0.5969	0.0086	0.7892	-0.014
Mof_H 	H 	0.773	0.9657	0.8774	0.173
Mof_H 	H 	0.6065	0.9796	0.6859	0.14
Mof_H 	H 	0.7161	0.99	0.6013	0.171
Mof_H 	H 	0.4117	0.9471	0.5859	0.182
Mof_H 	H 	0.538	0.8887	0.3929	0.035
Mof_H 	H 	0.6376	0.9582	0.3993	0.136
Mof_H 	H 	0.4173	0.8804	0.4958	0.031
Mof_H 	H 	0.9159	0.1893	0.6621	-0.021
Mof_H 	H 	0.7497	0.9956	0.41	-0.018
Mof_H 	H 	0.3638	0.7596	0.4061	0.123
Mof_H 	H 	0.2554	0.672	0.3027	-0.025
Mof_H 	H 	0.9171	0.3048	0.8067	0.164
Mof_H 	H 	0.8716	0.2245	0.7579	0.167
Mof_H 	H 	0.8805	0.2778	0.7254	0.167
Mof_H 	H 	0.4257	0.8621	0.3047	0.167
Mof_H 	H 	0.652	0.0072	0.9077	0.308
Mof_H 	H 	0.0285	0.3264	0.8582	0.163
Mof_H 	H 	0.0711	0.3134	0.8154	0.189
Mof_H 	H 	0.0352	0.256	0.8361	0.178
Mof_H 	H 	0.7188	0.3749	0.9719	0.305
Mof_H 	H 	0.1531	0.2917	0.7517	0.317
Mof_H 	H 	0.6261	0.8781	0.0405	0.302
Mof_H 	H 	0.0682	0.8695	0.9784	0.125
Mof_H 	H 	0.5996	0.6203	0.0068	0.031
Mof_H 	H 	0.7892	0.5969	0.0086	-0.014
Mof_H 	H 	0.8774	0.773	0.9657	0.173
Mof_H 	H 	0.6859	0.6065	0.9796	0.14
Mof_H 	H 	0.6013	0.7161	0.99	0.171
Mof_H 	H 	0.5859	0.4117	0.9471	0.182
Mof_H 	H 	0.3929	0.538	0.8887	0.035
Mof_H 	H 	0.3993	0.6376	0.9582	0.136
Mof_H 	H 	0.4958	0.4173	0.8804	0.031
Mof_H 	H 	0.6621	0.9159	0.1893	-0.021
Mof_H 	H 	0.41	0.7497	0.9956	-0.018
Mof_H 	H 	0.4061	0.3638	0.7596	0.123
Mof_H 	H 	0.3027	0.2554	0.672	-0.025
Mof_H 	H 	0.8067	0.9171	0.3048	0.164
Mof_H 	H 	0.7579	0.8716	0.2245	0.167
Mof_H 	H 	0.7254	0.8805	0.2778	0.167
Mof_H 	H 	0.3047	0.4257	0.8621	0.167
Mof_H 	H 	0.9077	0.652	0.0072	0.308
Mof_H 	H 	0.8582	0.0285	0.3264	0.163
Mof_H 	H 	0.8154	0.0711	0.3134	0.189
Mof_H 	H 	0.8361	0.0352	0.256	0.178
Mof_H 	H 	0.0281	0.2812	0.6251	0.305
Mof_H 	H 	0.2483	0.8469	0.7083	0.317
Mof_H 	H 	0.9595	0.3739	0.1219	0.302
Mof_H 	H 	0.0216	0.9318	0.1305	0.125
Mof_H 	H 	0.9932	0.4004	0.3797	0.031
Mof_H 	H 	0.9914	0.2108	0.4031	-0.014
Mof_H 	H 	0.0343	0.1226	0.227	0.173
Mof_H 	H 	0.0204	0.3141	0.3935	0.14
Mof_H 	H 	0.01	0.3987	0.2839	0.171
Mof_H 	H 	0.0529	0.4141	0.5883	0.182
Mof_H 	H 	0.1113	0.6071	0.462	0.035
Mof_H 	H 	0.0418	0.6007	0.3624	0.136
Mof_H 	H 	0.1196	0.5042	0.5827	0.031
Mof_H 	H 	0.8107	0.3379	0.0841	-0.021
Mof_H 	H 	0.0044	0.59	0.2503	-0.018
Mof_H 	H 	0.2404	0.5939	0.6362	0.123
Mof_H 	H 	0.328	0.6973	0.7446	-0.025
Mof_H 	H 	0.6952	0.1933	0.0829	0.164
Mof_H 	H 	0.7755	0.2421	0.1284	0.167
Mof_H 	H 	0.7222	0.2746	0.1195	0.167
Mof_H 	H 	0.1379	0.6953	0.5743	0.167
Mof_H 	H 	0.9928	0.0923	0.348	0.308
Mof_H 	H 	0.6736	0.1418	0.9715	0.163
Mof_H 	H 	0.6866	0.1846	0.9289	0.189
Mof_H 	H 	0.744	0.1639	0.9648	0.178
Mof_H 	H 	0.6251	0.0281	0.2812	0.305
Mof_H 	H 	0.7083	0.2483	0.8469	0.317
Mof_H 	H 	0.1219	0.9595	0.3739	0.302
Mof_H 	H 	0.1305	0.0216	0.9318	0.125
Mof_H 	H 	0.3797	0.9932	0.4004	0.031
Mof_H 	H 	0.4031	0.9914	0.2108	-0.014
Mof_H 	H 	0.227	0.0343	0.1226	0.173
Mof_H 	H 	0.3935	0.0204	0.3141	0.14
Mof_H 	H 	0.2839	0.01	0.3987	0.171
Mof_H 	H 	0.5883	0.0529	0.4141	0.182
Mof_H 	H 	0.462	0.1113	0.6071	0.035
Mof_H 	H 	0.3624	0.0418	0.6007	0.136
Mof_H 	H 	0.5827	0.1196	0.5042	0.031
Mof_H 	H 	0.0841	0.8107	0.3379	-0.021
Mof_H 	H 	0.2503	0.0044	0.59	-0.018
Mof_H 	H 	0.6362	0.2404	0.5939	0.123
Mof_H 	H 	0.7446	0.328	0.6973	-0.025
Mof_H 	H 	0.0829	0.6952	0.1933	0.164
Mof_H 	H 	0.1284	0.7755	0.2421	0.167
Mof_H 	H 	0.1195	0.7222	0.2746	0.167
Mof_H 	H 	0.5743	0.1379	0.6953	0.167
Mof_H 	H 	0.348	0.9928	0.0923	0.308
Mof_H 	H 	0.9715	0.6736	0.1418	0.163
Mof_H 	H 	0.9289	0.6866	0.1846	0.189
Mof_H 	H 	0.9648	0.744	0.1639	0.178
Mof_H 	H 	0.2812	0.6251	0.0281	0.305
Mof_H 	H 	0.8469	0.7083	0.2483	0.317
Mof_H 	H 	0.3739	0.1219	0.9595	0.302
Mof_H 	H 	0.9318	0.1305	0.0216	0.125
Mof_H 	H 	0.4004	0.3797	0.9932	0.031
Mof_H 	H 	0.2108	0.4031	0.9914	-0.014
Mof_H 	H 	0.1226	0.227	0.0343	0.173
Mof_H 	H 	0.3141	0.3935	0.0204	0.14
Mof_H 	H 	0.3987	0.2839	0.01	0.171
Mof_H 	H 	0.4141	0.5883	0.0529	0.182
Mof_H 	H 	0.6071	0.462	0.1113	0.035
Mof_H 	H 	0.6007	0.3624	0.0418	0.136
Mof_H 	H 	0.5042	0.5827	0.1196	0.031
Mof_H 	H 	0.3379	0.0841	0.8107	-0.021
Mof_H 	H 	0.59	0.2503	0.0044	-0.018
Mof_H 	H 	0.5939	0.6362	0.2404	0.123
Mof_H 	H 	0.6973	0.7446	0.328	-0.025
Mof_H 	H 	0.1933	0.0829	0.6952	0.164
Mof_H 	H 	0.2421	0.1284	0.7755	0.167
Mof_H 	H 	0.2746	0.1195	0.7222	0.167
Mof_H 	H 	0.6953	0.5743	0.1379	0.167
Mof_H 	H 	0.0923	0.348	0.9928	0.308
Mof_H 	H 	0.1418	0.9715	0.6736	0.163
Mof_H 	H 	0.1846	0.9289	0.6866	0.189
Mof_H 	H 	0.1639	0.9648	0.744	0.178
Mof_C 	C 	0.9818	0.0357	0.8344	-0.254
Mof_C 	C 	0.0049	0.0071	0.7334	-0.307
Mof_C 	C 	0.9923	0.9407	0.7296	0.382
Mof_C 	C 	0.9713	0.5581	0.5827	-0.004
Mof_C 	C 	0.9887	0.7488	0.494	-0.328
Mof_C 	C 	0.022	0.0266	0.6809	0.475
Mof_C 	C 	0.9997	0.0542	0.7863	0.189
Mof_C 	C 	0.9943	0.7478	0.5584	0.226
Mof_C 	C 	0.012	0.5655	0.7869	0.384
Mof_C 	C 	0.9465	0.9473	0.8792	-0.102
Mof_C 	C 	0.9689	0.9695	0.831	0.209
Mof_C 	C 	0.9744	0.9222	0.7768	-0.339
Mof_C 	C 	0.0321	0.5126	0.8707	0.471
Mof_C 	C 	0.903	0.9698	0.9026	0.049
Mof_C 	C 	0.9972	0.8125	0.4848	0.465
Mof_C 	C 	0.9787	0.686	0.5647	-0.289
Mof_C 	C 	0.0113	0.5069	0.7979	-0.316
Mof_C 	C 	0.972	0.6865	0.4407	0.416
Mof_C 	C 	0.8742	0.4325	0.4664	-0.064
Mof_C 	C 	0.9905	0.5619	0.7217	-0.342
Mof_C 	C 	0.9692	0.5012	0.6633	0.196
Mof_C 	C 	0.962	0.6252	0.5108	0.234
Mof_C 	C 	0.9474	0.4967	0.5927	-0.068
Mof_C 	C 	0.942	0.5568	0.517	-0.075
Mof_C 	C 	0.9588	0.627	0.4492	-0.383
Mof_C 	C 	0.9016	0.4345	0.5336	-0.006
Mof_C 	C 	0.9713	0.4413	0.6749	-0.26
Mof_C 	C 	0.8971	0.4962	0.4611	0.001
Mof_C 	C 	0.2128	0.7014	0.9587	0.197
Mof_C 	C 	0.6631	0.1766	0.2188	0.459
Mof_C 	C 	0.9932	0.4481	0.7422	0.229
Mof_C 	C 	0.7717	0.2419	0.3296	0.425
Mof_C 	C 	0.718	0.2452	0.2849	-0.332
Mof_C 	C 	0.7631	0.3641	0.3555	-0.256
Mof_C 	C 	0.7081	0.3019	0.2891	0.207
Mof_C 	C 	0.2676	0.7623	0.9033	-0.413
Mof_C 	C 	0.8244	0.3051	0.3934	-0.319
Mof_C 	C 	0.8154	0.3655	0.4032	0.205
Mof_C 	C 	0.2918	0.8222	0.031	-0.412
Mof_C 	C 	0.8344	0.9818	0.0357	-0.254
Mof_C 	C 	0.7334	0.0049	0.0071	-0.307
Mof_C 	C 	0.7296	0.9923	0.9407	0.382
Mof_C 	C 	0.5827	0.9713	0.5581	-0.004
Mof_C 	C 	0.494	0.9887	0.7488	-0.328
Mof_C 	C 	0.6809	0.022	0.0266	0.475
Mof_C 	C 	0.7863	0.9997	0.0542	0.189
Mof_C 	C 	0.5584	0.9943	0.7478	0.226
Mof_C 	C 	0.7869	0.012	0.5655	0.384
Mof_C 	C 	0.8792	0.9465	0.9473	-0.102
Mof_C 	C 	0.831	0.9689	0.9695	0.209
Mof_C 	C 	0.7768	0.9744	0.9222	-0.339
Mof_C 	C 	0.8707	0.0321	0.5126	0.471
Mof_C 	C 	0.9026	0.903	0.9698	0.049
Mof_C 	C 	0.4848	0.9972	0.8125	0.465
Mof_C 	C 	0.5647	0.9787	0.686	-0.289
Mof_C 	C 	0.7979	0.0113	0.5069	-0.316
Mof_C 	C 	0.4407	0.972	0.6865	0.416
Mof_C 	C 	0.4664	0.8742	0.4325	-0.064
Mof_C 	C 	0.7217	0.9905	0.5619	-0.342
Mof_C 	C 	0.6633	0.9692	0.5012	0.196
Mof_C 	C 	0.5108	0.962	0.6252	0.234
Mof_C 	C 	0.5927	0.9474	0.4967	-0.068
Mof_C 	C 	0.517	0.942	0.5568	-0.075
Mof_C 	C 	0.4492	0.9588	0.627	-0.383
Mof_C 	C 	0.5336	0.9016	0.4345	-0.006
Mof_C 	C 	0.6749	0.9713	0.4413	-0.26
Mof_C 	C 	0.4611	0.8971	0.4962	0.001
Mof_C 	C 	0.9587	0.2128	0.7014	0.197
Mof_C 	C 	0.2188	0.6631	0.1766	0.459
Mof_C 	C 	0.7422	0.9932	0.4481	0.229
Mof_C 	C 	0.3296	0.7717	0.2419	0.425
Mof_C 	C 	0.2849	0.718	0.2452	-0.332
Mof_C 	C 	0.3555	0.7631	0.3641	-0.256
Mof_C 	C 	0.2891	0.7081	0.3019	0.207
Mof_C 	C 	0.9033	0.2676	0.7623	-0.413
Mof_C 	C 	0.3934	0.8244	0.3051	-0.319
Mof_C 	C 	0.4032	0.8154	0.3655	0.205
Mof_C 	C 	0.031	0.2918	0.8222	-0.412
Mof_C 	C 	0.0357	0.8344	0.9818	-0.254
Mof_C 	C 	0.0071	0.7334	0.0049	-0.307
Mof_C 	C 	0.9407	0.7296	0.9923	0.382
Mof_C 	C 	0.5581	0.5827	0.9713	-0.004
Mof_C 	C 	0.7488	0.494	0.9887	-0.328
Mof_C 	C 	0.0266	0.6809	0.022	0.475
Mof_C 	C 	0.0542	0.7863	0.9997	0.189
Mof_C 	C 	0.7478	0.5584	0.9943	0.226
Mof_C 	C 	0.5655	0.7869	0.012	0.384
Mof_C 	C 	0.9473	0.8792	0.9465	-0.102
Mof_C 	C 	0.9695	0.831	0.9689	0.209
Mof_C 	C 	0.9222	0.7768	0.9744	-0.339
Mof_C 	C 	0.5126	0.8707	0.0321	0.471
Mof_C 	C 	0.9698	0.9026	0.903	0.049
Mof_C 	C 	0.8125	0.4848	0.9972	0.465
Mof_C 	C 	0.686	0.5647	0.9787	-0.289
Mof_C 	C 	0.5069	0.7979	0.0113	-0.316
Mof_C 	C 	0.6865	0.4407	0.972	0.416
Mof_C 	C 	0.4325	0.4664	0.8742	-0.064
Mof_C 	C 	0.5619	0.7217	0.9905	-0.342
Mof_C 	C 	0.5012	0.6633	0.9692	0.196
Mof_C 	C 	0.6252	0.5108	0.962	0.234
Mof_C 	C 	0.4967	0.5927	0.9474	-0.068
Mof_C 	C 	0.5568	0.517	0.942	-0.075
Mof_C 	C 	0.627	0.4492	0.9588	-0.383
Mof_C 	C 	0.4345	0.5336	0.9016	-0.006
Mof_C 	C 	0.4413	0.6749	0.9713	-0.26
Mof_C 	C 	0.4962	0.4611	0.8971	0.001
Mof_C 	C 	0.7014	0.9587	0.2128	0.197
Mof_C 	C 	0.1766	0.2188	0.6631	0.459
Mof_C 	C 	0.4481	0.7422	0.9932	0.229
Mof_C 	C 	0.2419	0.3296	0.7717	0.425
Mof_C 	C 	0.2452	0.2849	0.718	-0.332
Mof_C 	C 	0.3641	0.3555	0.7631	-0.256
Mof_C 	C 	0.3019	0.2891	0.7081	0.207
Mof_C 	C 	0.7623	0.9033	0.2676	-0.413
Mof_C 	C 	0.3051	0.3934	0.8244	-0.319
Mof_C 	C 	0.3655	0.4032	0.8154	0.205
Mof_C 	C 	0.8222	0.031	0.2918	-0.412
Mof_C 	C 	0.0182	0.9643	0.1656	-0.254
Mof_C 	C 	0.9951	0.9929	0.2666	-0.307
Mof_C 	C 	0.0077	0.0593	0.2704	0.382
Mof_C 	C 	0.0287	0.4419	0.4173	-0.004
Mof_C 	C 	0.0113	0.2512	0.506	-0.328
Mof_C 	C 	0.978	0.9734	0.3191	0.475
Mof_C 	C 	0.0003	0.9458	0.2137	0.189
Mof_C 	C 	0.0057	0.2522	0.4416	0.226
Mof_C 	C 	0.988	0.4345	0.2131	0.384
Mof_C 	C 	0.0535	0.0527	0.1208	-0.102
Mof_C 	C 	0.0311	0.0305	0.169	0.209
Mof_C 	C 	0.0256	0.0778	0.2232	-0.339
Mof_C 	C 	0.9679	0.4874	0.1293	0.471
Mof_C 	C 	0.097	0.0302	0.0974	0.049
Mof_C 	C 	0.0028	0.1875	0.5152	0.465
Mof_C 	C 	0.0213	0.314	0.4353	-0.289
Mof_C 	C 	0.9887	0.4931	0.2021	-0.316
Mof_C 	C 	0.028	0.3135	0.5593	0.416
Mof_C 	C 	0.1258	0.5675	0.5336	-0.064
Mof_C 	C 	0.0095	0.4381	0.2783	-0.342
Mof_C 	C 	0.0308	0.4988	0.3367	0.196
Mof_C 	C 	0.038	0.3748	0.4892	0.234
Mof_C 	C 	0.0526	0.5033	0.4073	-0.068
Mof_C 	C 	0.058	0.4432	0.483	-0.075
Mof_C 	C 	0.0412	0.373	0.5508	-0.383
Mof_C 	C 	0.0984	0.5655	0.4664	-0.006
Mof_C 	C 	0.0287	0.5587	0.3251	-0.26
Mof_C 	C 	0.1029	0.5038	0.5389	0.001
Mof_C 	C 	0.7872	0.2986	0.0413	0.197
Mof_C 	C 	0.3369	0.8234	0.7812	0.459
Mof_C 	C 	0.0068	0.5519	0.2578	0.229
Mof_C 	C 	0.2283	0.7581	0.6704	0.425
Mof_C 	C 	0.282	0.7548	0.7151	-0.332
Mof_C 	C 	0.2369	0.6359	0.6445	-0.256
Mof_C 	C 	0.2919	0.6981	0.7109	0.207
Mof_C 	C 	0.7324	0.2377	0.0967	-0.413
Mof_C 	C 	0.1756	0.6949	0.6066	-0.319
Mof_C 	C 	0.1846	0.6345	0.5968	0.205
Mof_C 	C 	0.7082	0.1778	0.969	-0.412
Mof_C 	C 	0.1656	0.0182	0.9643	-0.254
Mof_C 	C 	0.2666	0.9951	0.9929	-0.307
Mof_C 	C 	0.2704	0.0077	0.0593	0.382
Mof_C 	C 	0.4173	0.0287	0.4419	-0.004
Mof_C 	C 	0.506	0.0113	0.2512	-0.328
Mof_C 	C 	0.3191	0.978	0.9734	0.475
Mof_C 	C 	0.2137	0.0003	0.9458	0.189
Mof_C 	C 	0.4416	0.0057	0.2522	0.226
Mof_C 	C 	0.2131	0.988	0.4345	0.384
Mof_C 	C 	0.1208	0.0535	0.0527	-0.102
Mof_C 	C 	0.169	0.0311	0.0305	0.209
Mof_C 	C 	0.2232	0.0256	0.0778	-0.339
Mof_C 	C 	0.1293	0.9679	0.4874	0.471
Mof_C 	C 	0.0974	0.097	0.0302	0.049
Mof_C 	C 	0.5152	0.0028	0.1875	0.465
Mof_C 	C 	0.4353	0.0213	0.314	-0.289
Mof_C 	C 	0.2021	0.9887	0.4931	-0.316
Mof_C 	C 	0.5593	0.028	0.3135	0.416
Mof_C 	C 	0.5336	0.1258	0.5675	-0.064
Mof_C 	C 	0.2783	0.0095	0.4381	-0.342
Mof_C 	C 	0.3367	0.0308	0.4988	0.196
Mof_C 	C 	0.4892	0.038	0.3748	0.234
Mof_C 	C 	0.4073	0.0526	0.5033	-0.068
Mof_C 	C 	0.483	0.058	0.4432	-0.075
Mof_C 	C 	0.5508	0.0412	0.373	-0.383
Mof_C 	C 	0.4664	0.0984	0.5655	-0.006
Mof_C 	C 	0.3251	0.0287	0.5587	-0.26
Mof_C 	C 	0.5389	0.1029	0.5038	0.001
Mof_C 	C 	0.0413	0.7872	0.2986	0.197
Mof_C 	C 	0.7812	0.3369	0.8234	0.459
Mof_C 	C 	0.2578	0.0068	0.5519	0.229
Mof_C 	C 	0.6704	0.2283	0.7581	0.425
Mof_C 	C 	0.7151	0.282	0.7548	-0.332
Mof_C 	C 	0.6445	0.2369	0.6359	-0.256
Mof_C 	C 	0.7109	0.2919	0.6981	0.207
Mof_C 	C 	0.0967	0.7324	0.2377	-0.413
Mof_C 	C 	0.6066	0.1756	0.6949	-0.319
Mof_C 	C 	0.5968	0.1846	0.6345	0.205
Mof_C 	C 	0.969	0.7082	0.1778	-0.412
Mof_C 	C 	0.9643	0.1656	0.0182	-0.254
Mof_C 	C 	0.9929	0.2666	0.9951	-0.307
Mof_C 	C 	0.0593	0.2704	0.0077	0.382
Mof_C 	C 	0.4419	0.4173	0.0287	-0.004
Mof_C 	C 	0.2512	0.506	0.0113	-0.328
Mof_C 	C 	0.9734	0.3191	0.978	0.475
Mof_C 	C 	0.9458	0.2137	0.0003	0.189
Mof_C 	C 	0.2522	0.4416	0.0057	0.226
Mof_C 	C 	0.4345	0.2131	0.988	0.384
Mof_C 	C 	0.0527	0.1208	0.0535	-0.102
Mof_C 	C 	0.0305	0.169	0.0311	0.209
Mof_C 	C 	0.0778	0.2232	0.0256	-0.339
Mof_C 	C 	0.4874	0.1293	0.9679	0.471
Mof_C 	C 	0.0302	0.0974	0.097	0.049
Mof_C 	C 	0.1875	0.5152	0.0028	0.465
Mof_C 	C 	0.314	0.4353	0.0213	-0.289
Mof_C 	C 	0.4931	0.2021	0.9887	-0.316
Mof_C 	C 	0.3135	0.5593	0.028	0.416
Mof_C 	C 	0.5675	0.5336	0.1258	-0.064
Mof_C 	C 	0.4381	0.2783	0.0095	-0.342
Mof_C 	C 	0.4988	0.3367	0.0308	0.196
Mof_C 	C 	0.3748	0.4892	0.038	0.234
Mof_C 	C 	0.5033	0.4073	0.0526	-0.068
Mof_C 	C 	0.4432	0.483	0.058	-0.075
Mof_C 	C 	0.373	0.5508	0.0412	-0.383
Mof_C 	C 	0.5655	0.4664	0.0984	-0.006
Mof_C 	C 	0.5587	0.3251	0.0287	-0.26
Mof_C 	C 	0.5038	0.5389	0.1029	0.001
Mof_C 	C 	0.2986	0.0413	0.7872	0.197
Mof_C 	C 	0.8234	0.7812	0.3369	0.459
Mof_C 	C 	0.5519	0.2578	0.0068	0.229
Mof_C 	C 	0.7581	0.6704	0.2283	0.425
Mof_C 	C 	0.7548	0.7151	0.282	-0.332
Mof_C 	C 	0.6359	0.6445	0.2369	-0.256
Mof_C 	C 	0.6981	0.7109	0.2919	0.207
Mof_C 	C 	0.2377	0.0967	0.7324	-0.413
Mof_C 	C 	0.6949	0.6066	0.1756	-0.319
Mof_C 	C 	0.6345	0.5968	0.1846	0.205
Mof_C 	C 	0.1778	0.969	0.7082	-0.412
Mof_N 	N 	0.2609	0.7576	0.9681	-0.043
Mof_N 	N 	0.9681	0.2609	0.7576	-0.043
Mof_N 	N 	0.7576	0.9681	0.2609	-0.043
Mof_N 	N 	0.7391	0.2424	0.0319	-0.043
Mof_N 	N 	0.0319	0.7391	0.2424	-0.043
Mof_N 	N 	0.2424	0.0319	0.7391	-0.043
Mof_O 	O 	0.0528	0.5699	0.9202	-0.494
Mof_O 	O 	0.02047	0.98061	0.63032	-0.516
Mof_O 	O 	0.0053	0.865	0.5346	-0.44
Mof_O 	O 	0.95143	0.93465	0.45072	-0.622
Mof_O 	O 	0.9976	0.8123	0.4279	-0.477
Mof_O 	O 	0.0395	0.08945	0.69115	-0.455
Mof_O 	O 	0.0244	0.4565	0.8763	-0.474
Mof_O 	O 	0.6783	0.1298	0.2057	-0.48
Mof_O 	O 	0.1977	0.7005	0.0098	-0.311
Mof_O 	O 	0.6082	0.1755	0.1785	-0.289
Mof_O 	O 	0.9641	0.6804	0.3752	-0.48
Mof_O 	O 	0.7829	0.1879	0.3271	-0.509
Mof_O 	O 	0.0272	0.6283	0.8406	-0.463
Mof_O 	O 	0.9952	0.8906	0.6766	-0.466
Mof_O 	O 	0.9202	0.0528	0.5699	-0.494
Mof_O 	O 	0.63032	0.02047	0.98061	-0.516
Mof_O 	O 	0.5346	0.0053	0.865	-0.44
Mof_O 	O 	0.45072	0.95143	0.93465	-0.622
Mof_O 	O 	0.4279	0.9976	0.8123	-0.477
Mof_O 	O 	0.69115	0.0395	0.08945	-0.455
Mof_O 	O 	0.8763	0.0244	0.4565	-0.474
Mof_O 	O 	0.2057	0.6783	0.1298	-0.48
Mof_O 	O 	0.0098	0.1977	0.7005	-0.311
Mof_O 	O 	0.1785	0.6082	0.1755	-0.289
Mof_O 	O 	0.3752	0.9641	0.6804	-0.48
Mof_O 	O 	0.3271	0.7829	0.1879	-0.509
Mof_O 	O 	0.8406	0.0272	0.6283	-0.463
Mof_O 	O 	0.6766	0.9952	0.8906	-0.466
Mof_O 	O 	0.5699	0.9202	0.0528	-0.494
Mof_O 	O 	0.98061	0.63032	0.02047	-0.516
Mof_O 	O 	0.865	0.5346	0.0053	-0.44
Mof_O 	O 	0.93465	0.45072	0.95143	-0.622
Mof_O 	O 	0.8123	0.4279	0.9976	-0.477
Mof_O 	O 	0.08945	0.69115	0.0395	-0.455
Mof_O 	O 	0.4565	0.8763	0.0244	-0.474
Mof_O 	O 	0.1298	0.2057	0.6783	-0.48
Mof_O 	O 	0.7005	0.0098	0.1977	-0.311
Mof_O 	O 	0.1755	0.1785	0.6082	-0.289
Mof_O 	O 	0.6804	0.3752	0.9641	-0.48
Mof_O 	O 	0.1879	0.3271	0.7829	-0.509
Mof_O 	O 	0.6283	0.8406	0.0272	-0.463
Mof_O 	O 	0.8906	0.6766	0.9952	-0.466
Mof_O 	O 	0.9472	0.4301	0.0798	-0.494
Mof_O 	O 	0.97953	0.01939	0.36968	-0.516
Mof_O 	O 	0.9947	0.135	0.4654	-0.44
Mof_O 	O 	0.04857	0.06535	0.54928	-0.622
Mof_O 	O 	0.0024	0.1877	0.5721	-0.477
Mof_O 	O 	0.9605	0.91055	0.30885	-0.455
Mof_O 	O 	0.9756	0.5435	0.1237	-0.474
Mof_O 	O 	0.3217	0.8702	0.7943	-0.48
Mof_O 	O 	0.8023	0.2995	0.9902	-0.311
Mof_O 	O 	0.3918	0.8245	0.8215	-0.289
Mof_O 	O 	0.0359	0.3196	0.6248	-0.48
Mof_O 	O 	0.2171	0.8121	0.6729	-0.509
Mof_O 	O 	0.9728	0.3717	0.1594	-0.463
Mof_O 	O 	0.0048	0.1094	0.3234	-0.466
Mof_O 	O 	0.0798	0.9472	0.4301	-0.494
Mof_O 	O 	0.36968	0.97953	0.01939	-0.516
Mof_O 	O 	0.4654	0.9947	0.135	-0.44
Mof_O 	O 	0.54928	0.04857	0.06535	-0.622
Mof_O 	O 	0.5721	0.0024	0.1877	-0.477
Mof_O 	O 	0.30885	0.9605	0.91055	-0.455
Mof_O 	O 	0.1237	0.9756	0.5435	-0.474
Mof_O 	O 	0.7943	0.3217	0.8702	-0.48
Mof_O 	O 	0.9902	0.8023	0.2995	-0.311
Mof_O 	O 	0.8215	0.3918	0.8245	-0.289
Mof_O 	O 	0.6248	0.0359	0.3196	-0.48
Mof_O 	O 	0.6729	0.2171	0.8121	-0.509
Mof_O 	O 	0.1594	0.9728	0.3717	-0.463
Mof_O 	O 	0.3234	0.0048	0.1094	-0.466
Mof_O 	O 	0.4301	0.0798	0.9472	-0.494
Mof_O 	O 	0.01939	0.36968	0.97953	-0.516
Mof_O 	O 	0.135	0.4654	0.9947	-0.44
Mof_O 	O 	0.06535	0.54928	0.04857	-0.622
Mof_O 	O 	0.1877	0.5721	0.0024	-0.477
Mof_O 	O 	0.91055	0.30885	0.9605	-0.455
Mof_O 	O 	0.5435	0.1237	0.9756	-0.474
Mof_O 	O 	0.8702	0.7943	0.3217	-0.48
Mof_O 	O 	0.2995	0.9902	0.8023	-0.311
Mof_O 	O 	0.8245	0.8215	0.3918	-0.289
Mof_O 	O 	0.3196	0.6248	0.0359	-0.48
Mof_O 	O 	0.8121	0.6729	0.2171	-0.509
Mof_O 	O 	0.3717	0.1594	0.9728	-0.463
Mof_O 	O 	0.1094	0.3234	0.0048	-0.466
_end
