data_functionalizedCrystal
_audit_creation_method	'EQeq! by Chris Wilmer'
_symmetry_space_group_name_H-M	'P1'
_symmetry_Int_Tables_number	1
_symmetry_cell_setting	triclinic
loop_
_symmetry_equiv_pos_as_xyz
  x,y,z
_cell_length_a	12.1491
_cell_length_b	12.284
_cell_length_c	12.216
_cell_angle_alpha	90
_cell_angle_beta	90
_cell_angle_gamma	90
loop_
_atom_site_label
_atom_site_type_symbol
_atom_site_fract_x
_atom_site_fract_y
_atom_site_fract_z
_atom_site_charge
Mof_N 	N 	0.3185	0.3175	0.186	-0.124
Mof_N 	N 	0.8185	0.8175	0.186	-0.092
Mof_N 	N 	0.6815	0.1825	0.686	-0.114
Mof_N 	N 	0.1815	0.6825	0.686	-0.122
Mof_N 	N 	0.6815	0.8175	0.314	-0.114
Mof_N 	N 	0.1815	0.3175	0.314	-0.122
Mof_N 	N 	0.3185	0.6825	0.814	-0.124
Mof_N 	N 	0.8185	0.1825	0.814	-0.092
Mof_N 	N 	0.6815	0.6825	0.814	-0.113
Mof_N 	N 	0.1815	0.1825	0.814	-0.121
Mof_N 	N 	0.3185	0.8175	0.314	-0.123
Mof_N 	N 	0.8185	0.3175	0.314	-0.09
Mof_N 	N 	0.3185	0.1825	0.686	-0.123
Mof_N 	N 	0.8185	0.6825	0.686	-0.09
Mof_N 	N 	0.6815	0.3175	0.186	-0.113
Mof_N 	N 	0.1815	0.8175	0.186	-0.121
Mof_Mn	Mn	0.5	0.30794	0.19456	0.803
Mof_N 	N 	0.5	0.3291	0.3752	-0.117
Mof_N 	N 	0.5	0.2654	0.4455	-0.019
Mof_N 	N 	0.5	0.201	0.5147	-0.12
Mof_N 	N 	0.5	0.4867	0.1701	-0.118
Mof_N 	N 	0.5	0.5593	0.2302	-0.015
Mof_N 	N 	0.5	0.6309	0.2895	-0.124
Mof_Mn	Mn	2.4643e-33	0.80794	0.19456	0.762
Mof_N 	N 	-5.50869e-33	0.8291	0.3752	-0.127
Mof_N 	N 	-1.78205e-33	0.7654	0.4455	-0.027
Mof_N 	N 	-1.1906e-32	0.701	0.5147	-0.13
Mof_N 	N 	-1.32051e-32	0.9867	0.1701	-0.128
Mof_N 	N 	-4.32454e-33	0.0593	0.2302	-0.023
Mof_N 	N 	-5.83178e-33	0.1309	0.2895	-0.134
Mof_Mn	Mn	0.5	0.19206	0.69456	0.803
Mof_N 	N 	0.5	0.1709	0.8752	-0.117
Mof_N 	N 	0.5	0.2346	0.9455	-0.019
Mof_N 	N 	0.5	0.299	0.0147	-0.12
Mof_N 	N 	0.5	0.0133	0.6701	-0.119
Mof_N 	N 	0.5	0.9407	0.7302	-0.015
Mof_N 	N 	0.5	0.8691	0.7895	-0.124
Mof_Mn	Mn	-1.12279e-32	0.69206	0.69456	0.762
Mof_N 	N 	-3.62367e-33	0.6709	0.8752	-0.127
Mof_N 	N 	3.56458e-33	0.7346	0.9455	-0.027
Mof_N 	N 	-1.07621e-32	0.799	0.0147	-0.13
Mof_N 	N 	-1.13201e-32	0.5133	0.6701	-0.128
Mof_N 	N 	2.75289e-33	0.4407	0.7302	-0.023
Mof_N 	N 	-1.087e-32	0.3691	0.7895	-0.134
Mof_Mn	Mn	0.5	0.80794	0.30544	0.803
Mof_N 	N 	0.5	0.8291	0.1248	-0.117
Mof_N 	N 	0.5	0.7654	0.0545	-0.019
Mof_N 	N 	0.5	0.701	0.9853	-0.12
Mof_N 	N 	0.5	0.9867	0.3299	-0.119
Mof_N 	N 	0.5	0.0593	0.2698	-0.015
Mof_N 	N 	0.5	0.1309	0.2105	-0.124
Mof_Mn	Mn	-9.23329e-33	0.30794	0.30544	0.762
Mof_N 	N 	-1.2603e-33	0.3291	0.1248	-0.127
Mof_N 	N 	-6.59934e-34	0.2654	0.0545	-0.027
Mof_N 	N 	-1.01318e-32	0.201	0.9853	-0.13
Mof_N 	N 	-2.21787e-33	0.4867	0.3299	-0.128
Mof_N 	N 	-5.90605e-33	0.5593	0.2698	-0.023
Mof_N 	N 	-9.59122e-33	0.6309	0.2105	-0.134
Mof_Mn	Mn	0.5	0.69206	0.80544	0.803
Mof_N 	N 	0.5	0.6709	0.6248	-0.117
Mof_N 	N 	0.5	0.7346	0.5545	-0.019
Mof_N 	N 	0.5	0.799	0.4853	-0.12
Mof_N 	N 	0.5	0.5133	0.8299	-0.118
Mof_N 	N 	0.5	0.4407	0.7698	-0.015
Mof_N 	N 	0.5	0.3691	0.7105	-0.124
Mof_Mn	Mn	-3.88666e-33	0.19206	0.80544	0.762
Mof_N 	N 	-4.56768e-33	0.1709	0.6248	-0.127
Mof_N 	N 	-1.17559e-32	0.2346	0.5545	-0.027
Mof_N 	N 	-1.54784e-32	0.299	0.4853	-0.13
Mof_N 	N 	-3.79445e-33	0.0133	0.8299	-0.128
Mof_N 	N 	-4.02103e-33	0.9407	0.7698	-0.023
Mof_N 	N 	-1.11678e-32	0.8691	0.7105	-0.134
Mof_N 	N 	0.25	0.3165	0.25	-0.021
Mof_N 	N 	0.75	0.1835	0.75	-0.012
Mof_N 	N 	0.75	0.8165	0.25	-0.012
Mof_N 	N 	0.25	0.6835	0.75	-0.021
Mof_N 	N 	0.75	0.6835	0.75	-0.012
Mof_N 	N 	0.25	0.8165	0.25	-0.021
Mof_N 	N 	0.25	0.1835	0.75	-0.021
Mof_N 	N 	0.75	0.3165	0.25	-0.012
_end
