data_functionalizedCrystal
_audit_creation_method	'EQeq! by Chris Wilmer'
_symmetry_space_group_name_H-M	'P1'
_symmetry_Int_Tables_number	1
_symmetry_cell_setting	triclinic
loop_
_symmetry_equiv_pos_as_xyz
  x,y,z
_cell_length_a	20.3157
_cell_length_b	20.3157
_cell_length_c	19.918
_cell_angle_alpha	90
_cell_angle_beta	90
_cell_angle_gamma	90
loop_
_atom_site_label
_atom_site_type_symbol
_atom_site_fract_x
_atom_site_fract_y
_atom_site_fract_z
_atom_site_charge
Mof_N 	N 	0.05469	0.17932	0.12765	-0.108
Mof_N 	N 	0.03192	0.14304	0.07726	-0.115
Mof_C 	C 	0.9412	0.3087	0.2992	-0.137
Mof_H 	H 	0.9015	0.3226	0.3175	0.09
Mof_C 	C 	0.9429	0.2647	0.2445	0.039
Mof_H 	H 	0.9033	0.2497	0.2266	0.026
Mof_N 	N 	0.94531	0.82068	0.12765	-0.101
Mof_N 	N 	0.96808	0.85696	0.07726	-0.103
Mof_C 	C 	0.0588	0.6913	0.2992	-0.146
Mof_H 	H 	0.0985	0.6774	0.3175	0.092
Mof_C 	C 	0.0571	0.7353	0.2445	0.03
Mof_H 	H 	0.0967	0.7503	0.2266	0.029
Mof_N 	N 	0.82068	0.05469	0.12765	-0.106
Mof_N 	N 	0.85696	0.03192	0.07726	-0.113
Mof_C 	C 	0.6913	0.9412	0.2992	-0.135
Mof_H 	H 	0.6774	0.9015	0.3175	0.091
Mof_C 	C 	0.7353	0.9429	0.2445	0.041
Mof_H 	H 	0.7503	0.9033	0.2266	0.028
Mof_N 	N 	0.17932	0.94531	0.12765	-0.101
Mof_N 	N 	0.14304	0.96808	0.07726	-0.104
Mof_C 	C 	0.3087	0.0588	0.2992	-0.147
Mof_H 	H 	0.3226	0.0985	0.3175	0.091
Mof_C 	C 	0.2647	0.0571	0.2445	0.029
Mof_H 	H 	0.2497	0.0967	0.2266	0.028
Mof_N 	N 	0.94531	0.17932	0.87235	-0.091
Mof_N 	N 	0.96808	0.14304	0.92274	-0.082
Mof_C 	C 	0.0588	0.3087	0.7008	-0.141
Mof_H 	H 	0.0985	0.3226	0.6825	0.093
Mof_C 	C 	0.0571	0.2647	0.7555	0.028
Mof_H 	H 	0.0967	0.2497	0.7734	0.036
Mof_N 	N 	0.05469	0.82068	0.87235	-0.096
Mof_N 	N 	0.03192	0.85696	0.92274	-0.092
Mof_C 	C 	0.9412	0.6913	0.7008	-0.129
Mof_H 	H 	0.9015	0.6774	0.6825	0.094
Mof_C 	C 	0.9429	0.7353	0.7555	0.041
Mof_H 	H 	0.9033	0.7503	0.7734	0.036
Mof_N 	N 	0.17932	0.05469	0.87235	-0.097
Mof_N 	N 	0.14304	0.03192	0.92274	-0.093
Mof_C 	C 	0.3087	0.9412	0.7008	-0.13
Mof_H 	H 	0.3226	0.9015	0.6825	0.093
Mof_C 	C 	0.2647	0.9429	0.7555	0.04
Mof_H 	H 	0.2497	0.9033	0.7734	0.035
Mof_N 	N 	0.82068	0.94531	0.87235	-0.09
Mof_N 	N 	0.85696	0.96808	0.92274	-0.08
Mof_C 	C 	0.6913	0.0588	0.7008	-0.141
Mof_H 	H 	0.6774	0.0985	0.6825	0.094
Mof_C 	C 	0.7353	0.0571	0.7555	0.029
Mof_H 	H 	0.7503	0.0967	0.7734	0.037
Mof_N 	N 	0.94531	0.82068	0.87235	-0.09
Mof_N 	N 	0.96808	0.85696	0.92274	-0.08
Mof_C 	C 	0.0588	0.6913	0.7008	-0.141
Mof_H 	H 	0.0985	0.6774	0.6825	0.094
Mof_C 	C 	0.0571	0.7353	0.7555	0.029
Mof_H 	H 	0.0967	0.7503	0.7734	0.037
Mof_N 	N 	0.05469	0.17932	0.87235	-0.097
Mof_N 	N 	0.03192	0.14304	0.92274	-0.093
Mof_C 	C 	0.9412	0.3087	0.7008	-0.13
Mof_H 	H 	0.9015	0.3226	0.6825	0.093
Mof_C 	C 	0.9429	0.2647	0.7555	0.04
Mof_H 	H 	0.9033	0.2497	0.7734	0.035
Mof_N 	N 	0.17932	0.94531	0.87235	-0.091
Mof_N 	N 	0.14304	0.96808	0.92274	-0.082
Mof_C 	C 	0.3087	0.0588	0.7008	-0.141
Mof_H 	H 	0.3226	0.0985	0.6825	0.093
Mof_C 	C 	0.2647	0.0571	0.7555	0.028
Mof_H 	H 	0.2497	0.0967	0.7734	0.036
Mof_N 	N 	0.82068	0.05469	0.87235	-0.096
Mof_N 	N 	0.85696	0.03192	0.92274	-0.092
Mof_C 	C 	0.6913	0.9412	0.7008	-0.129
Mof_H 	H 	0.6774	0.9015	0.6825	0.094
Mof_C 	C 	0.7353	0.9429	0.7555	0.041
Mof_H 	H 	0.7503	0.9033	0.7734	0.036
Mof_N 	N 	0.05469	0.82068	0.12765	-0.106
Mof_N 	N 	0.03192	0.85696	0.07726	-0.113
Mof_C 	C 	0.9412	0.6913	0.2992	-0.135
Mof_H 	H 	0.9015	0.6774	0.3175	0.091
Mof_C 	C 	0.9429	0.7353	0.2445	0.041
Mof_H 	H 	0.9033	0.7503	0.2266	0.028
Mof_N 	N 	0.94531	0.17932	0.12765	-0.101
Mof_N 	N 	0.96808	0.14304	0.07726	-0.104
Mof_C 	C 	0.0588	0.3087	0.2992	-0.147
Mof_H 	H 	0.0985	0.3226	0.3175	0.091
Mof_C 	C 	0.0571	0.2647	0.2445	0.029
Mof_H 	H 	0.0967	0.2497	0.2266	0.028
Mof_N 	N 	0.82068	0.94531	0.12765	-0.1
Mof_N 	N 	0.85696	0.96808	0.07726	-0.103
Mof_C 	C 	0.6913	0.0588	0.2992	-0.146
Mof_H 	H 	0.6774	0.0985	0.3175	0.092
Mof_C 	C 	0.7353	0.0571	0.2445	0.03
Mof_H 	H 	0.7503	0.0967	0.2266	0.029
Mof_N 	N 	0.17932	0.05469	0.12765	-0.107
Mof_N 	N 	0.14304	0.03192	0.07726	-0.114
Mof_C 	C 	0.3087	0.9412	0.2992	-0.136
Mof_H 	H 	0.3226	0.9015	0.3175	0.091
Mof_C 	C 	0.2647	0.9429	0.2445	0.04
Mof_H 	H 	0.2497	0.9033	0.2266	0.027
Mof_Mn	Mn	1.838e-33	0.5	0.5	0.942
Mof_Mn	Mn	0.5	0	0.5	0.942
Mof_Mn	Mn	0.09427	0.09427	-0	0.661
Mof_Mn	Mn	0.90573	0.90573	-0	0.676
Mof_Mn	Mn	0.90573	0.09427	-0	0.668
Mof_Mn	Mn	0.09427	0.90573	-0	0.668
Mof_Cl	Cl	-0	0	-0	-0.596
Mof_N 	N 	-4.30345e-33	0.4016	0.5	-0.221
Mof_N 	N 	1.41209e-32	0.5984	0.5	-0.221
Mof_N 	N 	0.5984	0	0.5	-0.221
Mof_N 	N 	0.4016	0	0.5	-0.221
Mof_N 	N 	4.54186e-33	0.5	0.4002	-0.226
Mof_N 	N 	0.5	-3.07073e-33	0.4002	-0.226
Mof_N 	N 	8.34632e-33	0.5	0.5998	-0.226
Mof_N 	N 	0.5	0	0.5998	-0.226
Mof_C 	C 	7.77617e-33	0.3602	0.4447	0.131
Mof_C 	C 	4.46577e-33	0.3797	0.3795	-0.133
Mof_C 	C 	4.38747e-33	0.4474	0.3582	0.13
Mof_C 	C 	-4.42402e-33	0.293	0.4672	-0.083
Mof_H 	H 	-4.52475e-33	0.2559	0.4398	0.066
Mof_C 	C 	-5.07394e-33	0.4678	0.2904	-0.086
Mof_H 	H 	4.00002e-33	0.4406	0.2528	0.063
Mof_C 	C 	-1.87713e-33	0.3304	0.3247	0.11
Mof_C 	C 	7.9806e-34	0.2434	0.2171	-0.074
Mof_C 	C 	5.79338e-34	0.2001	0.1576	0.127
Mof_C 	C 	4.70544e-33	0.6398	0.4447	0.131
Mof_C 	C 	7.53649e-33	0.6203	0.3795	-0.132
Mof_C 	C 	4.38747e-33	0.5526	0.3582	0.129
Mof_C 	C 	1.71743e-33	0.707	0.4672	-0.082
Mof_H 	H 	-7.59547e-33	0.7441	0.4398	0.067
Mof_C 	C 	1.06751e-33	0.5322	0.2904	-0.086
Mof_H 	H 	4.00002e-33	0.5594	0.2528	0.063
Mof_C 	C 	-1.87713e-33	0.6696	0.3247	0.11
Mof_C 	C 	6.93951e-33	0.7566	0.2171	-0.074
Mof_C 	C 	3.65006e-33	0.7999	0.1576	0.127
Mof_C 	C 	0.6398	0	0.4447	0.131
Mof_C 	C 	0.6203	3.07073e-33	0.3795	-0.132
Mof_C 	C 	0.5526	0	0.3582	0.129
Mof_C 	C 	0.707	0	0.4672	-0.082
Mof_H 	H 	0.7441	-6.14145e-33	0.4398	0.067
Mof_C 	C 	0.5322	-3.07073e-33	0.2904	-0.086
Mof_H 	H 	0.5594	3.07073e-33	0.2528	0.063
Mof_C 	C 	0.6696	0	0.3247	0.11
Mof_C 	C 	0.7566	1.53536e-33	0.2171	-0.074
Mof_C 	C 	0.7999	-1.53536e-33	0.1576	0.127
Mof_C 	C 	0.3602	0	0.4447	0.131
Mof_C 	C 	0.3797	3.07073e-33	0.3795	-0.133
Mof_C 	C 	0.4474	0	0.3582	0.13
Mof_C 	C 	0.293	0	0.4672	-0.083
Mof_H 	H 	0.2559	-6.14145e-33	0.4398	0.066
Mof_C 	C 	0.4678	-3.07073e-33	0.2904	-0.086
Mof_H 	H 	0.4406	3.07073e-33	0.2528	0.063
Mof_C 	C 	0.3304	0	0.3247	0.11
Mof_C 	C 	0.2434	1.53536e-33	0.2171	-0.074
Mof_C 	C 	0.2001	-1.53536e-33	0.1576	0.127
Mof_C 	C 	2.04128e-33	0.3602	0.5553	0.13
Mof_C 	C 	-1.00019e-32	0.3797	0.6205	-0.131
Mof_C 	C 	2.35926e-33	0.4474	0.6418	0.131
Mof_C 	C 	-4.18288e-33	0.293	0.5328	-0.082
Mof_H 	H 	-4.08216e-33	0.2559	0.5602	0.066
Mof_C 	C 	-3.53296e-33	0.4678	0.7096	-0.083
Mof_H 	H 	-3.39474e-33	0.4406	0.7472	0.072
Mof_C 	C 	2.4824e-33	0.3304	0.6753	0.109
Mof_C 	C 	-3.26351e-33	0.2434	0.7829	-0.067
Mof_C 	C 	3.09666e-33	0.2001	0.8424	0.132
Mof_C 	C 	2.04128e-33	0.6398	0.5553	0.131
Mof_C 	C 	8.42241e-33	0.6203	0.6205	-0.13
Mof_C 	C 	-3.78219e-33	0.5526	0.6418	0.131
Mof_C 	C 	-1.03243e-32	0.707	0.5328	-0.082
Mof_H 	H 	-4.08216e-33	0.7441	0.5602	0.067
Mof_C 	C 	2.60849e-33	0.5322	0.7096	-0.083
Mof_H 	H 	-9.5362e-33	0.5594	0.7472	0.072
Mof_C 	C 	8.62386e-33	0.6696	0.6753	0.108
Mof_C 	C 	2.87794e-33	0.7566	0.7829	-0.066
Mof_C 	C 	9.23812e-33	0.7999	0.8424	0.132
Mof_C 	C 	0.3602	0	0.5553	0.13
Mof_C 	C 	0.3797	0	0.6205	-0.131
Mof_C 	C 	0.4474	0	0.6418	0.131
Mof_C 	C 	0.293	0	0.5328	-0.082
Mof_H 	H 	0.2559	0	0.5602	0.066
Mof_C 	C 	0.4678	0	0.7096	-0.083
Mof_H 	H 	0.4406	-6.14145e-33	0.7472	0.072
Mof_C 	C 	0.3304	6.14145e-33	0.6753	0.109
Mof_C 	C 	0.2434	0	0.7829	-0.067
Mof_C 	C 	0.2001	-6.14145e-33	0.8424	0.132
Mof_C 	C 	0.6398	0	0.5553	0.131
Mof_C 	C 	0.6203	0	0.6205	-0.13
Mof_C 	C 	0.5526	0	0.6418	0.131
Mof_C 	C 	0.707	0	0.5328	-0.082
Mof_H 	H 	0.7441	0	0.5602	0.067
Mof_C 	C 	0.5322	0	0.7096	-0.083
Mof_H 	H 	0.5594	-6.14145e-33	0.7472	0.072
Mof_C 	C 	0.6696	6.14145e-33	0.6753	0.108
Mof_C 	C 	0.7566	0	0.7829	-0.066
Mof_C 	C 	0.7999	-6.14145e-33	0.8424	0.132
Mof_Cl	Cl	0.1258	0.5	0.5	-0.377
Mof_Cl	Cl	0.8742	0.5	0.5	-0.366
Mof_Cl	Cl	0.5	0.1258	0.5	-0.377
Mof_Cl	Cl	0.5	0.8742	0.5	-0.366
_end
