data_functionalizedCrystal
_audit_creation_method	'EQeq! by Chris Wilmer'
_symmetry_space_group_name_H-M	'P1'
_symmetry_Int_Tables_number	1
_symmetry_cell_setting	triclinic
loop_
_symmetry_equiv_pos_as_xyz
  x,y,z
_cell_length_a	18.1652
_cell_length_b	17.2466
_cell_length_c	13.4921
_cell_angle_alpha	90
_cell_angle_beta	129.4
_cell_angle_gamma	90
loop_
_atom_site_label
_atom_site_type_symbol
_atom_site_fract_x
_atom_site_fract_y
_atom_site_fract_z
_atom_site_charge
Mof_O 	O 	0.09932	0.27847	0.88938	-0.447
Mof_O 	O 	0.08878	0.11102	0.879	-0.536
Mof_O 	O 	0.07547	0.80089	0.18685	-0.516
Mof_O 	O 	0.23074	0.81091	0.35221	-0.464
Mof_O 	O 	0.23126	0.14687	0.05926	-0.508
Mof_N 	N 	0.07298	0.33949	0.9217	-0.079
Mof_C 	C 	0.15659	0.8302	0.2435	0.393
Mof_C 	C 	0.01517	0.46611	0.9831	0.147
Mof_C 	C 	0.1622	0.10074	0.9926	0.487
Mof_C 	C 	0.0593	0.47491	0.9289	-0.186
Mof_C 	C 	0.0883	0.41116	0.9002	0.069
Mof_C 	C 	0.16612	0.02641	0.055	-0.19
Mof_C 	C 	0.2425	0.94219	0.2376	-0.052
Mof_C 	C 	0.16271	0.89534	0.1741	-0.062
Mof_C 	C 	0.0856	0.91295	0.0479	-0.09
Mof_C 	C 	0.0877	0.97742	0.9891	0.087
Mof_C 	C 	0.2437	0.00742	0.1789	0.045
Mof_C 	C 	0.0315	0.32834	0.9751	0.149
Mof_C 	C 	0.0021	0.39055	0.0055	-0.339
Mof_H 	H 	0.075	0.523	0.917	0.089
Mof_H 	H 	0.974	0.381	0.046	0.184
Mof_H 	H 	0.034	0.992	0.903	0.002
Mof_H 	H 	0.119	0.4168	0.869	0.019
Mof_H 	H 	0.022	0.276	0.986	-0.016
Mof_H 	H 	0.029	0.877	0.008	0.042
Mof_H 	H 	0.298	0.041	0.224	0.03
Mof_H 	H 	0.301	0.929	0.328	0.063
Mof_O 	O 	0.59932	0.77847	0.88938	-0.433
Mof_O 	O 	0.58878	0.61102	0.879	-0.513
Mof_O 	O 	0.57547	0.30089	0.18685	-0.485
Mof_O 	O 	0.73074	0.31091	0.35221	-0.458
Mof_O 	O 	0.73126	0.64687	0.05926	-0.505
Mof_N 	N 	0.57298	0.83949	0.9217	-0.065
Mof_C 	C 	0.65659	0.3302	0.2435	0.39
Mof_C 	C 	0.51517	0.96611	0.9831	0.161
Mof_C 	C 	0.6622	0.60074	0.9926	0.49
Mof_C 	C 	0.5593	0.97491	0.9289	-0.173
Mof_C 	C 	0.5883	0.91116	0.9002	0.075
Mof_C 	C 	0.66612	0.52641	0.055	-0.184
Mof_C 	C 	0.7425	0.44219	0.2376	-0.042
Mof_C 	C 	0.66271	0.39534	0.1741	-0.054
Mof_C 	C 	0.5856	0.41295	0.0479	-0.083
Mof_C 	C 	0.5877	0.47742	0.9891	0.098
Mof_C 	C 	0.7437	0.50742	0.1789	0.043
Mof_C 	C 	0.5315	0.82834	0.9751	0.104
Mof_C 	C 	0.5021	0.89055	0.0055	-0.207
Mof_H 	H 	0.575	0.023	0.917	0.099
Mof_H 	H 	0.474	0.881	0.046	0.093
Mof_H 	H 	0.534	0.492	0.903	0.022
Mof_H 	H 	0.619	0.9168	0.869	0.027
Mof_H 	H 	0.522	0.776	0.986	0.027
Mof_H 	H 	0.529	0.377	0.008	0.063
Mof_H 	H 	0.798	0.541	0.224	0.041
Mof_H 	H 	0.801	0.429	0.328	0.064
Mof_O 	O 	0.90068	0.27847	0.61062	-0.424
Mof_O 	O 	0.91122	0.11102	0.621	-0.469
Mof_O 	O 	0.92453	0.80089	0.31315	-0.453
Mof_O 	O 	0.76926	0.81091	0.14779	-0.467
Mof_O 	O 	0.76874	0.14687	0.44074	-0.469
Mof_N 	N 	0.92702	0.33949	0.5783	-0.024
Mof_C 	C 	0.84341	0.8302	0.2565	0.401
Mof_C 	C 	0.98483	0.46611	0.5169	0.031
Mof_C 	C 	0.8378	0.10074	0.5074	0.414
Mof_C 	C 	0.9407	0.47491	0.5711	-0.067
Mof_C 	C 	0.9117	0.41116	0.5998	0.015
Mof_C 	C 	0.83388	0.02641	0.445	-0.074
Mof_C 	C 	0.7575	0.94219	0.2624	-0.001
Mof_C 	C 	0.83729	0.89534	0.3259	-0.089
Mof_C 	C 	0.9144	0.91295	0.4521	0.009
Mof_C 	C 	0.9123	0.97742	0.5109	-0.016
Mof_C 	C 	0.7563	0.00742	0.3211	-0.016
Mof_C 	C 	0.9685	0.32834	0.5249	-0.042
Mof_C 	C 	0.9979	0.39055	0.4945	0.079
Mof_H 	H 	0.925	0.523	0.583	0.069
Mof_H 	H 	0.026	0.381	0.454	-0.041
Mof_H 	H 	0.966	0.992	0.597	0.079
Mof_H 	H 	0.881	0.4168	0.631	0.059
Mof_H 	H 	0.978	0.276	0.514	0.097
Mof_H 	H 	0.971	0.877	0.492	0.067
Mof_H 	H 	0.702	0.041	0.276	0.052
Mof_H 	H 	0.699	0.929	0.172	0.045
Mof_O 	O 	0.40068	0.77847	0.61062	-0.441
Mof_O 	O 	0.41122	0.61102	0.621	-0.497
Mof_O 	O 	0.42453	0.30089	0.31315	-0.487
Mof_O 	O 	0.26926	0.31091	0.14779	-0.472
Mof_O 	O 	0.26874	0.64687	0.44074	-0.477
Mof_N 	N 	0.42702	0.83949	0.5783	-0.041
Mof_C 	C 	0.34341	0.3302	0.2565	0.405
Mof_C 	C 	0.48483	0.96611	0.5169	0.028
Mof_C 	C 	0.3378	0.60074	0.5074	0.418
Mof_C 	C 	0.4407	0.97491	0.5711	-0.092
Mof_C 	C 	0.4117	0.91116	0.5998	0.016
Mof_C 	C 	0.33388	0.52641	0.445	-0.09
Mof_C 	C 	0.2575	0.44219	0.2624	-0.006
Mof_C 	C 	0.33729	0.39534	0.3259	-0.096
Mof_C 	C 	0.4144	0.41295	0.4521	-0.002
Mof_C 	C 	0.4123	0.47742	0.5109	-0.017
Mof_C 	C 	0.2563	0.50742	0.3211	-0.015
Mof_C 	C 	0.4685	0.82834	0.5249	0.015
Mof_C 	C 	0.4979	0.89055	0.4945	-0.074
Mof_H 	H 	0.425	0.023	0.583	0.064
Mof_H 	H 	0.526	0.881	0.454	0.056
Mof_H 	H 	0.466	0.492	0.597	0.056
Mof_H 	H 	0.381	0.9168	0.631	0.048
Mof_H 	H 	0.478	0.776	0.514	0.05
Mof_H 	H 	0.471	0.377	0.492	0.046
Mof_H 	H 	0.202	0.541	0.276	0.04
Mof_H 	H 	0.199	0.429	0.172	0.044
Mof_O 	O 	0.90068	0.72153	0.11062	-0.431
Mof_O 	O 	0.91122	0.88898	0.121	-0.457
Mof_O 	O 	0.92453	0.19911	0.81315	-0.453
Mof_O 	O 	0.76926	0.18909	0.64779	-0.462
Mof_O 	O 	0.76874	0.85313	0.94074	-0.433
Mof_N 	N 	0.92702	0.66051	0.0783	-0.001
Mof_C 	C 	0.84341	0.1698	0.7565	0.416
Mof_C 	C 	0.98483	0.53389	0.0169	-0.095
Mof_C 	C 	0.8378	0.89926	0.0074	0.338
Mof_C 	C 	0.9407	0.52509	0.0711	0.013
Mof_C 	C 	0.9117	0.58884	0.0998	-0.04
Mof_C 	C 	0.83388	0.97359	0.945	0.023
Mof_C 	C 	0.7575	0.05781	0.7624	0.051
Mof_C 	C 	0.83729	0.10466	0.8259	-0.128
Mof_C 	C 	0.9144	0.08705	0.9521	0.088
Mof_C 	C 	0.9123	0.02258	0.0109	-0.125
Mof_C 	C 	0.7563	0.99258	0.8211	-0.081
Mof_C 	C 	0.9685	0.67166	0.0249	-0.127
Mof_C 	C 	0.9979	0.60945	0.9945	0.207
Mof_H 	H 	0.925	0.477	0.083	0.035
Mof_H 	H 	0.026	0.619	0.954	-0.076
Mof_H 	H 	0.966	0.008	0.097	0.109
Mof_H 	H 	0.881	0.5832	0.131	0.079
Mof_H 	H 	0.978	0.724	0.014	0.119
Mof_H 	H 	0.971	0.123	0.992	0.05
Mof_H 	H 	0.702	0.959	0.776	0.076
Mof_H 	H 	0.699	0.071	0.672	0.037
Mof_O 	O 	0.40068	0.22153	0.11062	-0.447
Mof_O 	O 	0.41122	0.38898	0.121	-0.484
Mof_O 	O 	0.42453	0.69911	0.81315	-0.488
Mof_O 	O 	0.26926	0.68909	0.64779	-0.467
Mof_O 	O 	0.26874	0.35313	0.94074	-0.443
Mof_N 	N 	0.42702	0.16051	0.0783	-0.017
Mof_C 	C 	0.34341	0.6698	0.7565	0.419
Mof_C 	C 	0.48483	0.03389	0.0169	-0.1
Mof_C 	C 	0.3378	0.39926	0.0074	0.348
Mof_C 	C 	0.4407	0.02509	0.0711	-0
Mof_C 	C 	0.4117	0.08884	0.0998	-0.043
Mof_C 	C 	0.33388	0.47359	0.945	0.007
Mof_C 	C 	0.2575	0.55781	0.7624	0.04
Mof_C 	C 	0.33729	0.60466	0.8259	-0.135
Mof_C 	C 	0.4144	0.58705	0.9521	0.078
Mof_C 	C 	0.4123	0.52258	0.0109	-0.13
Mof_C 	C 	0.2563	0.49258	0.8211	-0.074
Mof_C 	C 	0.4685	0.17166	0.0249	-0.067
Mof_C 	C 	0.4979	0.10945	0.9945	0.053
Mof_H 	H 	0.425	0.977	0.083	0.024
Mof_H 	H 	0.526	0.119	0.954	0.021
Mof_H 	H 	0.466	0.508	0.097	0.086
Mof_H 	H 	0.381	0.0832	0.131	0.07
Mof_H 	H 	0.478	0.224	0.014	0.072
Mof_H 	H 	0.471	0.623	0.992	0.029
Mof_H 	H 	0.202	0.459	0.776	0.063
Mof_H 	H 	0.199	0.571	0.672	0.037
Mof_O 	O 	0.09932	0.72153	0.38938	-0.454
Mof_O 	O 	0.08878	0.88898	0.379	-0.524
Mof_O 	O 	0.07547	0.19911	0.68685	-0.518
Mof_O 	O 	0.23074	0.18909	0.85221	-0.459
Mof_O 	O 	0.23126	0.85313	0.55926	-0.477
Mof_N 	N 	0.07298	0.66051	0.4217	-0.058
Mof_C 	C 	0.15659	0.1698	0.7435	0.407
Mof_C 	C 	0.01517	0.53389	0.4831	0.027
Mof_C 	C 	0.1622	0.89926	0.4926	0.42
Mof_C 	C 	0.0593	0.52509	0.4289	-0.11
Mof_C 	C 	0.0883	0.58884	0.4002	0.018
Mof_C 	C 	0.16612	0.97359	0.555	-0.099
Mof_C 	C 	0.2425	0.05781	0.7376	-0.003
Mof_C 	C 	0.16271	0.10466	0.6741	-0.1
Mof_C 	C 	0.0856	0.08705	0.5479	-0.012
Mof_C 	C 	0.0877	0.02258	0.4891	-0.02
Mof_C 	C 	0.2437	0.99258	0.6789	-0.015
Mof_C 	C 	0.0315	0.67166	0.4751	0.074
Mof_C 	C 	0.0021	0.60945	0.5055	-0.224
Mof_H 	H 	0.075	0.477	0.417	0.057
Mof_H 	H 	0.974	0.619	0.546	0.153
Mof_H 	H 	0.034	0.008	0.403	0.032
Mof_H 	H 	0.119	0.5832	0.369	0.038
Mof_H 	H 	0.022	0.724	0.486	0.005
Mof_H 	H 	0.029	0.123	0.508	0.024
Mof_H 	H 	0.298	0.959	0.724	0.053
Mof_H 	H 	0.301	0.071	0.828	0.055
Mof_O 	O 	0.59932	0.22153	0.38938	-0.44
Mof_O 	O 	0.58878	0.38898	0.379	-0.499
Mof_O 	O 	0.57547	0.69911	0.68685	-0.485
Mof_O 	O 	0.73074	0.68909	0.85221	-0.453
Mof_O 	O 	0.73126	0.35313	0.55926	-0.469
Mof_N 	N 	0.57298	0.16051	0.4217	-0.04
Mof_C 	C 	0.65659	0.6698	0.7435	0.404
Mof_C 	C 	0.51517	0.03389	0.4831	0.029
Mof_C 	C 	0.6622	0.39926	0.4926	0.417
Mof_C 	C 	0.5593	0.02509	0.4289	-0.084
Mof_C 	C 	0.5883	0.08884	0.4002	0.015
Mof_C 	C 	0.66612	0.47359	0.555	-0.084
Mof_C 	C 	0.7425	0.55781	0.7376	0.005
Mof_C 	C 	0.66271	0.60466	0.6741	-0.093
Mof_C 	C 	0.5856	0.58705	0.5479	-0.001
Mof_C 	C 	0.5877	0.52258	0.4891	-0.018
Mof_C 	C 	0.7437	0.49258	0.6789	-0.018
Mof_C 	C 	0.5315	0.17166	0.4751	0.016
Mof_C 	C 	0.5021	0.10945	0.5055	-0.072
Mof_H 	H 	0.575	0.977	0.417	0.06
Mof_H 	H 	0.474	0.119	0.546	0.056
Mof_H 	H 	0.534	0.508	0.403	0.053
Mof_H 	H 	0.619	0.0832	0.369	0.049
Mof_H 	H 	0.522	0.224	0.486	0.051
Mof_H 	H 	0.529	0.623	0.508	0.044
Mof_H 	H 	0.798	0.459	0.724	0.065
Mof_H 	H 	0.801	0.571	0.828	0.057
Mof_Mg	Mg	3.41435e-33	0.19347	0.75	1.472
Mof_Mg	Mg	0.5	0.69347	0.75	1.479
Mof_Mg	Mg	1.74031e-17	0.80653	0.25	1.472
Mof_Mg	Mg	0.5	0.30653	0.25	1.478
Mof_Mg	Mg	0.25	0.25	-0	1.474
Mof_Mg	Mg	0.75	0.25	0.5	1.476
Mof_Mg	Mg	0.75	0.75	-0	1.474
Mof_Mg	Mg	0.25	0.75	0.5	1.476
_end
