data_functionalizedCrystal
_audit_creation_method	'EQeq! by Chris Wilmer'
_symmetry_space_group_name_H-M	'P1'
_symmetry_Int_Tables_number	1
_symmetry_cell_setting	triclinic
loop_
_symmetry_equiv_pos_as_xyz
  x,y,z
_cell_length_a	6.7567
_cell_length_b	16.231
_cell_length_c	16.3562
_cell_angle_alpha	90
_cell_angle_beta	97.495
_cell_angle_gamma	90
loop_
_atom_site_label
_atom_site_type_symbol
_atom_site_fract_x
_atom_site_fract_y
_atom_site_fract_z
_atom_site_charge
Mof_Mg	Mg	0.44386	0.5257	0.41191	1.462
Mof_O 	O 	0.3355	0.41165	0.37594	-0.541
Mof_O 	O 	0.0237	0.41292	0.4075	-0.532
Mof_O 	O 	0.0456	0.10304	0.07986	-0.592
Mof_O 	O 	0.7997	0.07903	0.15441	-0.578
Mof_O 	O 	0.69046	0.47426	0.48059	-1.001
Mof_H 	H 	0.6856	0.4258	0.4664	0.335
Mof_N 	N 	0.5617	0.5271	0.28728	-0.267
Mof_C 	C 	0.158	0.38733	0.36852	0.447
Mof_C 	C 	0.1032	0.31961	0.30642	-0.157
Mof_C 	C 	0.068	0.24208	0.3331	0.046
Mof_H 	H 	0.0771	0.2317	0.3894	-0
Mof_C 	C 	0.0184	0.17793	0.27709	-0.099
Mof_H 	H 	0.9925	0.1258	0.2967	0.099
Mof_C 	C 	0.0073	0.19055	0.19415	-0.162
Mof_C 	C 	0.0395	0.27082	0.16334	0.04
Mof_C 	C 	0.0155	0.2897	0.07798	-0.128
Mof_H 	H 	0.9831	0.2479	0.0396	0.093
Mof_C 	C 	0.039	0.36823	0.05132	-0.149
Mof_H 	H 	0.0216	0.3794	0.9951	0.096
Mof_C 	C 	0.0893	0.43243	0.10779	0.037
Mof_H 	H 	0.106	0.4857	0.0888	-0.005
Mof_C 	C 	0.1136	0.41694	0.19018	-0.134
Mof_H 	H 	0.1467	0.4599	0.2271	0.082
Mof_C 	C 	0.0891	0.33625	0.22066	0.069
Mof_C 	C 	0.9467	0.11889	0.1383	0.513
Mof_C 	C 	0.6218	0.4584	0.25405	0.151
Mof_H 	H 	0.6668	0.4154	0.2892	-0.014
Mof_C 	C 	0.6213	0.447	0.17118	-0.241
Mof_H 	H 	0.6654	0.3973	0.1517	0.126
Mof_C 	C 	0.5573	0.5074	0.11753	0.203
Mof_C 	C 	0.5051	0.5819	0.151	-0.222
Mof_H 	H 	0.4685	0.6267	0.1169	0.096
Mof_C 	C 	0.5083	0.5887	0.23553	0.129
Mof_H 	H 	0.4715	0.6386	0.2571	-0.035
Mof_C 	C 	0.5473	0.4778	0.0297	-0.138
Mof_H 	H 	0.6076	0.4285	0.0179	0.019
Mof_C 	C 	0.5088	0.5327	0.0246	-0.131
Mof_H 	H 	0.4941	0.5869	0.0061	0.011
Mof_Mg	Mg	0.55614	0.0257	0.08809	1.459
Mof_O 	O 	0.6645	0.91165	0.12406	-0.535
Mof_O 	O 	0.9763	0.91292	0.0925	-0.486
Mof_O 	O 	0.9544	0.60304	0.42014	-0.435
Mof_O 	O 	0.2003	0.57903	0.34559	-0.523
Mof_O 	O 	0.30954	0.97426	0.01941	-1.011
Mof_H 	H 	0.3144	0.9258	0.0336	0.313
Mof_N 	N 	0.4383	0.0271	0.21272	-0.265
Mof_C 	C 	0.842	0.88733	0.13148	0.435
Mof_C 	C 	0.8968	0.81961	0.19358	-0.13
Mof_C 	C 	0.932	0.74208	0.1669	-0.02
Mof_H 	H 	0.9229	0.7317	0.1106	0.037
Mof_C 	C 	0.9816	0.67793	0.22291	0.058
Mof_H 	H 	0.0075	0.6258	0.2033	-0.019
Mof_C 	C 	0.9927	0.69055	0.30585	-0.057
Mof_C 	C 	0.9605	0.77082	0.33666	-0.044
Mof_C 	C 	0.9845	0.7897	0.42202	0.106
Mof_H 	H 	0.0169	0.7479	0.4604	-0.052
Mof_C 	C 	0.961	0.86823	0.44868	-0.159
Mof_H 	H 	0.9784	0.8794	0.5049	0.099
Mof_C 	C 	0.9107	0.93243	0.39221	0.081
Mof_H 	H 	0.894	0.9857	0.4112	0.025
Mof_C 	C 	0.8864	0.91694	0.30982	-0.153
Mof_H 	H 	0.8533	0.9599	0.2729	0.11
Mof_C 	C 	0.9109	0.83625	0.27934	0.107
Mof_C 	C 	0.0533	0.61889	0.3617	0.306
Mof_C 	C 	0.3782	0.9584	0.24595	0.095
Mof_H 	H 	0.3332	0.9154	0.2108	-0.015
Mof_C 	C 	0.3787	0.947	0.32882	-0.08
Mof_H 	H 	0.3346	0.8973	0.3483	0.05
Mof_C 	C 	0.4427	0.0074	0.38247	-0.038
Mof_C 	C 	0.4949	0.0819	0.349	-0.083
Mof_H 	H 	0.5315	0.1267	0.3831	0.056
Mof_C 	C 	0.4917	0.0887	0.26447	0.045
Mof_H 	H 	0.5285	0.1386	0.2429	0.002
Mof_C 	C 	0.4527	0.9778	0.4703	0.246
Mof_H 	H 	0.3924	0.9285	0.4821	-0.078
Mof_C 	C 	0.4912	0.0327	0.4754	-0.157
Mof_H 	H 	0.5059	0.0869	0.4939	0.062
Mof_Mg	Mg	0.55614	0.4743	0.58809	1.464
Mof_O 	O 	0.6645	0.58835	0.62406	-0.534
Mof_O 	O 	0.9763	0.58708	0.5925	-0.482
Mof_O 	O 	0.9544	0.89696	0.92014	-0.419
Mof_O 	O 	0.2003	0.92097	0.84559	-0.512
Mof_O 	O 	0.30954	0.52574	0.51941	-1.012
Mof_H 	H 	0.3144	0.5742	0.5336	0.321
Mof_N 	N 	0.4383	0.4729	0.71272	-0.248
Mof_C 	C 	0.842	0.61267	0.63148	0.425
Mof_C 	C 	0.8968	0.68039	0.69358	-0.096
Mof_C 	C 	0.932	0.75792	0.6669	-0.051
Mof_H 	H 	0.9229	0.7683	0.6106	0.055
Mof_C 	C 	0.9816	0.82207	0.72291	0.089
Mof_H 	H 	0.0075	0.8742	0.7033	-0.026
Mof_C 	C 	0.9927	0.80945	0.80585	-0.088
Mof_C 	C 	0.9605	0.72918	0.83666	0.026
Mof_C 	C 	0.9845	0.7103	0.92202	-0.022
Mof_H 	H 	0.0169	0.7521	0.9604	0.007
Mof_C 	C 	0.961	0.63177	0.94868	0.043
Mof_H 	H 	0.9784	0.6206	0.0049	-0.007
Mof_C 	C 	0.9107	0.56757	0.89221	-0.055
Mof_H 	H 	0.894	0.5143	0.9112	0.069
Mof_C 	C 	0.8864	0.58306	0.80982	-0.06
Mof_H 	H 	0.8533	0.5401	0.7729	0.067
Mof_C 	C 	0.9109	0.66375	0.77934	0.044
Mof_C 	C 	0.0533	0.88111	0.8617	0.317
Mof_C 	C 	0.3782	0.5416	0.74595	0.082
Mof_H 	H 	0.3332	0.5846	0.7108	-0.013
Mof_C 	C 	0.3787	0.553	0.82882	-0.137
Mof_H 	H 	0.3346	0.6027	0.8483	0.069
Mof_C 	C 	0.4427	0.4926	0.88247	0.04
Mof_C 	C 	0.4949	0.4181	0.849	-0.13
Mof_H 	H 	0.5315	0.3733	0.8831	0.079
Mof_C 	C 	0.4917	0.4113	0.76447	0.078
Mof_H 	H 	0.5285	0.3614	0.7429	-0.005
Mof_C 	C 	0.4527	0.5222	0.9703	0.07
Mof_H 	H 	0.3924	0.5715	0.9821	0.035
Mof_C 	C 	0.4912	0.4673	0.9754	0.034
Mof_H 	H 	0.5059	0.4131	0.9939	0.052
Mof_Mg	Mg	0.44386	0.9743	0.91191	1.466
Mof_O 	O 	0.3355	0.08835	0.87594	-0.532
Mof_O 	O 	0.0237	0.08708	0.9075	-0.514
Mof_O 	O 	0.0456	0.39696	0.57986	-0.569
Mof_O 	O 	0.7997	0.42097	0.65441	-0.56
Mof_O 	O 	0.69046	0.02574	0.98059	-0.985
Mof_H 	H 	0.6856	0.0742	0.9664	0.342
Mof_N 	N 	0.5617	0.9729	0.78728	-0.26
Mof_C 	C 	0.158	0.11267	0.86852	0.435
Mof_C 	C 	0.1032	0.18039	0.80642	-0.116
Mof_C 	C 	0.068	0.25792	0.8331	0.011
Mof_H 	H 	0.0771	0.2683	0.8894	0.022
Mof_C 	C 	0.0184	0.32207	0.77709	-0.065
Mof_H 	H 	0.9925	0.3742	0.7967	0.094
Mof_C 	C 	0.0073	0.30945	0.69415	-0.197
Mof_C 	C 	0.0395	0.22918	0.66334	0.121
Mof_C 	C 	0.0155	0.2103	0.57798	-0.272
Mof_H 	H 	0.9831	0.2521	0.5396	0.162
Mof_C 	C 	0.039	0.13177	0.55132	0.083
Mof_H 	H 	0.0216	0.1206	0.4951	-0.025
Mof_C 	C 	0.0893	0.06757	0.60779	-0.117
Mof_H 	H 	0.106	0.0143	0.5888	0.048
Mof_C 	C 	0.1136	0.08306	0.69018	-0.027
Mof_H 	H 	0.1467	0.0401	0.7271	0.04
Mof_C 	C 	0.0891	0.16375	0.72066	-0.001
Mof_C 	C 	0.9467	0.38111	0.6383	0.526
Mof_C 	C 	0.6218	0.0416	0.75405	0.152
Mof_H 	H 	0.6668	0.0846	0.7892	-0.016
Mof_C 	C 	0.6213	0.053	0.67118	-0.293
Mof_H 	H 	0.6654	0.1027	0.6517	0.144
Mof_C 	C 	0.5573	0.9926	0.61753	0.273
Mof_C 	C 	0.5051	0.9181	0.651	-0.269
Mof_H 	H 	0.4685	0.8733	0.6169	0.117
Mof_C 	C 	0.5083	0.9113	0.73553	0.161
Mof_H 	H 	0.4715	0.8614	0.7571	-0.043
Mof_C 	C 	0.5473	0.0222	0.5297	-0.319
Mof_H 	H 	0.6076	0.0715	0.5179	0.138
Mof_C 	C 	0.5088	0.9673	0.5246	0.067
Mof_H 	H 	0.4941	0.9131	0.5061	-0.006
Mof_Mg	Mg	3.19628e-17	0.5	0.5	1.472
Mof_Mg	Mg	-0	0	-0	1.463
_end
