data_functionalizedCrystal
_audit_creation_method	'EQeq! by Chris Wilmer'
_symmetry_space_group_name_H-M	'P1'
_symmetry_Int_Tables_number	1
_symmetry_cell_setting	triclinic
loop_
_symmetry_equiv_pos_as_xyz
  x,y,z
_cell_length_a	5.1812
_cell_length_b	10.742
_cell_length_c	15.1224
_cell_angle_alpha	82.466
_cell_angle_beta	84.928
_cell_angle_gamma	82.691
loop_
_atom_site_label
_atom_site_type_symbol
_atom_site_fract_x
_atom_site_fract_y
_atom_site_fract_z
_atom_site_charge
Mof_C 	C 	0.9842	0.6297	0.48541	0.011
Mof_H 	H 	0.9718	0.7193	0.4755	0.049
Mof_C 	C 	0.0857	0.5673	0.56424	-0.078
Mof_C 	C 	0.0997	0.4348	0.57933	0.008
Mof_C 	C 	0.1897	0.3598	0.66371	0.087
Mof_C 	C 	0.416	0.2736	0.66223	-0.149
Mof_H 	H 	0.5085	0.2589	0.6068	0.075
Mof_C 	C 	0.506	0.2093	0.74146	0.068
Mof_H 	H 	0.6636	0.1535	0.7402	0.005
Mof_C 	C 	0.1337	0.3083	0.82434	0.1
Mof_H 	H 	0.0337	0.3178	0.8793	0.015
Mof_C 	C 	0.0496	0.3758	0.74507	-0.211
Mof_H 	H 	0.8946	0.4335	0.7465	0.138
Mof_C 	C 	0.366	0.2264	0.82281	-0.159
Mof_C 	C 	0.4674	0.1601	0.90891	0.382
Mof_C 	C 	0.1734	0.6431	0.6303	0.103
Mof_C 	C 	0.4016	0.6035	0.6728	-0.136
Mof_H 	H 	0.5134	0.5321	0.6558	0.088
Mof_C 	C 	0.4676	0.6677	0.74	0.063
Mof_H 	H 	0.623	0.6395	0.7694	0.047
Mof_C 	C 	0.3054	0.7738	0.76433	-0.118
Mof_C 	C 	0.0828	0.8175	0.71869	0.031
Mof_H 	H 	0.9745	0.891	0.7338	0.086
Mof_C 	C 	0.0198	0.7534	0.65131	-0.178
Mof_H 	H 	0.871	0.7847	0.6191	0.125
Mof_C 	C 	0.3591	0.8354	0.84231	0.437
Mof_O 	O 	0.3005	0.14812	0.97672	-0.357
Mof_O 	O 	0.7037	0.1233	0.91043	-0.369
Mof_O 	O 	0.1984	0.9143	0.87453	-0.351
Mof_O 	O 	0.5872	0.7974	0.87251	-0.477
Mof_H 	H 	0.6054	0.8356	0.9162	0.34
Mof_C 	C 	0.0158	0.3703	0.51459	-0.134
Mof_H 	H 	0.0282	0.2807	0.5245	0.051
Mof_C 	C 	0.9143	0.4327	0.43576	0.052
Mof_C 	C 	0.9003	0.5652	0.42067	-0.03
Mof_C 	C 	0.8103	0.6402	0.33629	0.039
Mof_C 	C 	0.584	0.7264	0.33777	-0.093
Mof_H 	H 	0.4915	0.7411	0.3932	0.069
Mof_C 	C 	0.494	0.7907	0.25854	0.033
Mof_H 	H 	0.3364	0.8465	0.2598	0.047
Mof_C 	C 	0.8663	0.6917	0.17566	0.006
Mof_H 	H 	0.9663	0.6822	0.1207	0.048
Mof_C 	C 	0.9504	0.6242	0.25493	-0.013
Mof_H 	H 	0.1054	0.5665	0.2535	0.01
Mof_C 	C 	0.634	0.7736	0.17719	-0.098
Mof_C 	C 	0.5326	0.8399	0.09109	0.386
Mof_C 	C 	0.8266	0.3569	0.3697	0.043
Mof_C 	C 	0.5984	0.3965	0.3272	-0.122
Mof_H 	H 	0.4866	0.4679	0.3442	0.071
Mof_C 	C 	0.5324	0.3323	0.26	0.068
Mof_H 	H 	0.377	0.3605	0.2306	0.017
Mof_C 	C 	0.6946	0.2262	0.23567	-0.178
Mof_C 	C 	0.9172	0.1825	0.28131	0.126
Mof_H 	H 	0.0255	0.109	0.2662	-0.049
Mof_C 	C 	0.9802	0.2466	0.34869	-0.077
Mof_H 	H 	0.129	0.2153	0.3809	0.022
Mof_C 	C 	0.6409	0.1646	0.15769	0.439
Mof_O 	O 	0.6995	0.85188	0.02328	-0.408
Mof_O 	O 	0.2963	0.8767	0.08957	-0.386
Mof_O 	O 	0.8016	0.0857	0.12547	-0.447
Mof_O 	O 	0.4128	0.2026	0.12749	-0.507
Mof_H 	H 	0.3946	0.1644	0.0838	0.253
Mof_Ca	Ca	-0	0	-0	1.087
_end
