data_functionalizedCrystal
_audit_creation_method	'EQeq! by Chris Wilmer'
_symmetry_space_group_name_H-M	'P1'
_symmetry_Int_Tables_number	1
_symmetry_cell_setting	triclinic
loop_
_symmetry_equiv_pos_as_xyz
  x,y,z
_cell_length_a	18.4394
_cell_length_b	13.7828
_cell_length_c	8.116
_cell_angle_alpha	90
_cell_angle_beta	92.319
_cell_angle_gamma	90
loop_
_atom_site_label
_atom_site_type_symbol
_atom_site_fract_x
_atom_site_fract_y
_atom_site_fract_z
_atom_site_charge
Mof_C 	C 	0.63	0.5571	0.4824	0.333
Mof_La	La	0.50125	0.51709	0.25533	2.048
Mof_O 	O 	0.5901	0.4829	0.5137	-0.534
Mof_C 	C 	0.6985	0.5724	0.5863	-0.07
Mof_O 	O 	0.6136	0.6134	0.3671	-0.409
Mof_C 	C 	0.7356	0.493	0.6502	-0.044
Mof_H 	H 	0.7172	0.4311	0.6298	0.055
Mof_O 	O 	0.9427	0.0895	0.9624	-0.521
Mof_C 	C 	0.8009	0.5038	0.7458	0.029
Mof_O 	O 	0.9924	0.1877	0.1499	-0.386
Mof_C 	C 	0.8412	0.4202	0.8083	-0.024
Mof_O 	O 	0.0419	0.8334	0.208	-0.437
Mof_C 	C 	0.821	0.3254	0.7693	-0.054
Mof_H 	H 	0.781	0.3164	0.6972	0.051
Mof_O 	O 	0.963	0.893	0.0206	-0.499
Mof_C 	C 	0.856	0.2445	0.8302	-0.009
Mof_H 	H 	0.8408	0.1825	0.7998	0.017
Mof_C 	C 	0.9163	0.2589	0.941	-0.062
Mof_C 	C 	0.9528	0.1737	0.0208	0.356
Mof_C 	C 	0.9388	0.3505	0.9802	-0.081
Mof_H 	H 	0.9785	0.3586	0.0535	0.102
Mof_C 	C 	0.9039	0.4334	0.9131	0.1
Mof_C 	C 	0.9313	0.5315	0.9492	-0.211
Mof_C 	C 	0.9938	0.5482	0.0495	0.46
Mof_H 	H 	0.0206	0.4953	0.0887	-0.185
Mof_C 	C 	0.0165	0.639	0.0911	-0.502
Mof_H 	H 	0.0581	0.6473	0.1582	0.195
Mof_C 	C 	0.9773	0.7203	0.0333	0.194
Mof_C 	C 	0.996	0.8204	0.0914	0.336
Mof_C 	C 	0.9177	0.7075	0.9299	-0.202
Mof_H 	H 	0.893	0.7614	0.8876	0.089
Mof_C 	C 	0.8932	0.613	0.8865	0.139
Mof_C 	C 	0.8273	0.6016	0.7812	-0.046
Mof_C 	C 	0.7892	0.6789	0.7094	-0.035
Mof_H 	H 	0.8068	0.7415	0.726	0.03
Mof_C 	C 	0.7254	0.6658	0.6131	-0.019
Mof_H 	H 	0.701	0.7191	0.5674	0.045
Mof_C 	C 	0.13	0.0571	0.4824	0.343
Mof_La	La	0.00125	0.01709	0.25533	1.806
Mof_O 	O 	0.0901	0.9829	0.5137	-0.519
Mof_C 	C 	0.1985	0.0724	0.5863	-0.103
Mof_O 	O 	0.1136	0.1134	0.3671	-0.413
Mof_C 	C 	0.2356	0.993	0.6502	0.004
Mof_H 	H 	0.2172	0.9311	0.6298	0.036
Mof_O 	O 	0.4427	0.5895	0.9624	-0.606
Mof_C 	C 	0.3009	0.0038	0.7458	-0.04
Mof_O 	O 	0.4924	0.6877	0.1499	-0.455
Mof_C 	C 	0.3412	0.9202	0.8083	0.065
Mof_O 	O 	0.5419	0.3334	0.208	-0.408
Mof_C 	C 	0.321	0.8254	0.7693	-0.134
Mof_H 	H 	0.281	0.8164	0.6972	0.076
Mof_O 	O 	0.463	0.393	0.0206	-0.57
Mof_C 	C 	0.356	0.7445	0.8302	0.066
Mof_H 	H 	0.3408	0.6825	0.7998	-0.017
Mof_C 	C 	0.4163	0.7589	0.941	-0.149
Mof_C 	C 	0.4528	0.6737	0.0208	0.405
Mof_C 	C 	0.4388	0.8505	0.9802	0.014
Mof_H 	H 	0.4785	0.8586	0.0535	0.046
Mof_C 	C 	0.4039	0.9334	0.9131	-0.052
Mof_C 	C 	0.4313	0.0315	0.9492	0.061
Mof_C 	C 	0.4938	0.0482	0.0495	-0.125
Mof_H 	H 	0.5206	0.9953	0.0887	0.08
Mof_C 	C 	0.5165	0.139	0.0911	0.051
Mof_H 	H 	0.5581	0.1473	0.1582	0.022
Mof_C 	C 	0.4773	0.2203	0.0333	-0.114
Mof_C 	C 	0.496	0.3204	0.0914	0.355
Mof_C 	C 	0.4177	0.2075	0.9299	0.025
Mof_H 	H 	0.393	0.2614	0.8876	0.007
Mof_C 	C 	0.3932	0.113	0.8865	-0.052
Mof_C 	C 	0.3273	0.1016	0.7812	0.049
Mof_C 	C 	0.2892	0.1789	0.7094	-0.104
Mof_H 	H 	0.3068	0.2415	0.726	0.052
Mof_C 	C 	0.2254	0.1658	0.6131	0.028
Mof_H 	H 	0.201	0.2191	0.5674	0.022
Mof_C 	C 	0.63	0.4429	0.9824	0.316
Mof_La	La	0.50125	0.48291	0.75533	2.034
Mof_O 	O 	0.5901	0.5171	0.0137	-0.525
Mof_C 	C 	0.6985	0.4276	0.0863	-0.058
Mof_O 	O 	0.6136	0.3866	0.8671	-0.407
Mof_C 	C 	0.7356	0.507	0.1502	-0.049
Mof_H 	H 	0.7172	0.5689	0.1298	0.058
Mof_O 	O 	0.9427	0.9105	0.4624	-0.518
Mof_C 	C 	0.8009	0.4962	0.2458	0.032
Mof_O 	O 	0.9924	0.8123	0.6499	-0.385
Mof_C 	C 	0.8412	0.5798	0.3083	-0.023
Mof_O 	O 	0.0419	0.1666	0.708	-0.442
Mof_C 	C 	0.821	0.6746	0.2693	-0.054
Mof_H 	H 	0.781	0.6836	0.1972	0.053
Mof_O 	O 	0.963	0.107	0.5206	-0.504
Mof_C 	C 	0.856	0.7555	0.3302	-0.008
Mof_H 	H 	0.8408	0.8175	0.2998	0.018
Mof_C 	C 	0.9163	0.7411	0.441	-0.062
Mof_C 	C 	0.9528	0.8263	0.5208	0.353
Mof_C 	C 	0.9388	0.6495	0.4802	-0.073
Mof_H 	H 	0.9785	0.6414	0.5535	0.098
Mof_C 	C 	0.9039	0.5666	0.4131	0.099
Mof_C 	C 	0.9313	0.4685	0.4492	-0.208
Mof_C 	C 	0.9938	0.4518	0.5495	0.468
Mof_H 	H 	0.0206	0.5047	0.5887	-0.192
Mof_C 	C 	0.0165	0.361	0.5911	-0.513
Mof_H 	H 	0.0581	0.3527	0.6582	0.197
Mof_C 	C 	0.9773	0.2797	0.5333	0.191
Mof_C 	C 	0.996	0.1796	0.5914	0.341
Mof_C 	C 	0.9177	0.2925	0.4299	-0.193
Mof_H 	H 	0.893	0.2386	0.3876	0.088
Mof_C 	C 	0.8932	0.387	0.3865	0.139
Mof_C 	C 	0.8273	0.3984	0.2812	-0.046
Mof_C 	C 	0.7892	0.3211	0.2094	-0.031
Mof_H 	H 	0.8068	0.2585	0.226	0.029
Mof_C 	C 	0.7254	0.3342	0.1131	-0.025
Mof_H 	H 	0.701	0.2809	0.0674	0.049
Mof_C 	C 	0.13	0.9429	0.9824	0.316
Mof_La	La	0.00125	0.98291	0.75533	1.787
Mof_O 	O 	0.0901	0.0171	0.0137	-0.508
Mof_C 	C 	0.1985	0.9276	0.0863	-0.077
Mof_O 	O 	0.1136	0.8866	0.8671	-0.409
Mof_C 	C 	0.2356	0.007	0.1502	-0.015
Mof_H 	H 	0.2172	0.0689	0.1298	0.044
Mof_O 	O 	0.4427	0.4105	0.4624	-0.595
Mof_C 	C 	0.3009	0.9962	0.2458	-0.029
Mof_O 	O 	0.4924	0.3123	0.6499	-0.452
Mof_C 	C 	0.3412	0.0798	0.3083	0.063
Mof_O 	O 	0.5419	0.6666	0.708	-0.41
Mof_C 	C 	0.321	0.1746	0.2693	-0.13
Mof_H 	H 	0.281	0.1836	0.1972	0.076
Mof_O 	O 	0.463	0.607	0.5206	-0.575
Mof_C 	C 	0.356	0.2555	0.3302	0.063
Mof_H 	H 	0.3408	0.3175	0.2998	-0.014
Mof_C 	C 	0.4163	0.2411	0.441	-0.142
Mof_C 	C 	0.4528	0.3263	0.5208	0.387
Mof_C 	C 	0.4388	0.1495	0.4802	0.031
Mof_H 	H 	0.4785	0.1414	0.5535	0.034
Mof_C 	C 	0.4039	0.0666	0.4131	-0.054
Mof_C 	C 	0.4313	0.9685	0.4492	0.068
Mof_C 	C 	0.4938	0.9518	0.5495	-0.13
Mof_H 	H 	0.5206	0.0047	0.5887	0.078
Mof_C 	C 	0.5165	0.861	0.5911	0.057
Mof_H 	H 	0.5581	0.8527	0.6582	0.019
Mof_C 	C 	0.4773	0.7797	0.5333	-0.125
Mof_C 	C 	0.496	0.6796	0.5914	0.359
Mof_C 	C 	0.4177	0.7925	0.4299	0.038
Mof_H 	H 	0.393	0.7386	0.3876	0.005
Mof_C 	C 	0.3932	0.887	0.3865	-0.054
Mof_C 	C 	0.3273	0.8984	0.2812	0.045
Mof_C 	C 	0.2892	0.8211	0.2094	-0.093
Mof_H 	H 	0.3068	0.7585	0.226	0.05
Mof_C 	C 	0.2254	0.8342	0.1131	0.014
Mof_H 	H 	0.201	0.7809	0.0674	0.03
_end
