data_functionalizedCrystal
_audit_creation_method	'EQeq! by Chris Wilmer'
_symmetry_space_group_name_H-M	'P1'
_symmetry_Int_Tables_number	1
_symmetry_cell_setting	triclinic
loop_
_symmetry_equiv_pos_as_xyz
  x,y,z
_cell_length_a	6.746
_cell_length_b	22.334
_cell_length_c	7.597
_cell_angle_alpha	90
_cell_angle_beta	90
_cell_angle_gamma	90
loop_
_atom_site_label
_atom_site_type_symbol
_atom_site_fract_x
_atom_site_fract_y
_atom_site_fract_z
_atom_site_charge
Mof_Co	Co	0.46466	0.2891	0.24849	1.198
Mof_Co	Co	0.53534	0.7109	0.24849	1.198
Mof_Co	Co	0.96466	0.2109	0.75151	1.194
Mof_Co	Co	0.03534	0.7891	0.75151	1.194
Mof_H 	H 	0.3725	0.1148	0.3687	0.159
Mof_H 	H 	0.18	0.1215	0.2487	0.159
Mof_H 	H 	0.477	0.1286	0.0843	0.01
Mof_H 	H 	0.7142	0.1852	0.2438	0.192
Mof_H 	H 	0.0457	0.3332	0.3363	0.014
Mof_H 	H 	0.8474	0.4182	0.319	0.083
Mof_H 	H 	0.3048	0.5044	0.0907	0.072
Mof_H 	H 	0.4788	0.4151	0.0889	0.002
Mof_H 	H 	0.6275	0.8852	0.3687	0.159
Mof_H 	H 	0.82	0.8785	0.2487	0.159
Mof_H 	H 	0.523	0.8714	0.0843	0.01
Mof_H 	H 	0.2858	0.8148	0.2438	0.192
Mof_H 	H 	0.9543	0.6668	0.3363	0.014
Mof_H 	H 	0.1526	0.5818	0.319	0.083
Mof_H 	H 	0.6952	0.4956	0.0907	0.072
Mof_H 	H 	0.5212	0.5849	0.0889	0.002
Mof_H 	H 	0.8725	0.3852	0.6313	0.157
Mof_H 	H 	0.68	0.3785	0.7513	0.157
Mof_H 	H 	0.977	0.3714	0.9157	0.012
Mof_H 	H 	0.2142	0.3148	0.7562	0.192
Mof_H 	H 	0.5457	0.1668	0.6637	0.014
Mof_H 	H 	0.3474	0.0818	0.681	0.08
Mof_H 	H 	0.8048	0.9956	0.9093	0.073
Mof_H 	H 	0.9788	0.0849	0.9111	0.001
Mof_H 	H 	0.1275	0.6148	0.6313	0.157
Mof_H 	H 	0.32	0.6215	0.7513	0.157
Mof_H 	H 	0.023	0.6286	0.9157	0.012
Mof_H 	H 	0.7858	0.6852	0.7562	0.192
Mof_H 	H 	0.4543	0.8332	0.6637	0.014
Mof_H 	H 	0.6526	0.9182	0.681	0.08
Mof_H 	H 	0.1952	0.0044	0.9093	0.073
Mof_H 	H 	0.0212	0.9151	0.9111	0.001
Mof_C 	C 	0.2141	0.19139	0.4227	0.468
Mof_C 	C 	0.2943	0.14362	0.2982	-0.421
Mof_C 	C 	0.4223	0.16448	0.1463	0.119
Mof_C 	C 	0.3004	0.20122	0.0154	0.272
Mof_C 	C 	0.0991	0.3686	0.2859	0.079
Mof_C 	C 	0.9803	0.4195	0.2778	-0.137
Mof_C 	C 	0.0585	0.4722	0.2088	0.057
Mof_C 	C 	0.2469	0.4696	0.1409	-0.13
Mof_C 	C 	0.3532	0.4165	0.1453	0.076
Mof_C 	C 	0.7859	0.80861	0.4227	0.468
Mof_C 	C 	0.7057	0.85638	0.2982	-0.421
Mof_C 	C 	0.5777	0.83552	0.1463	0.119
Mof_C 	C 	0.6996	0.79878	0.0154	0.272
Mof_C 	C 	0.9009	0.6314	0.2859	0.079
Mof_C 	C 	0.0197	0.5805	0.2778	-0.137
Mof_C 	C 	0.9415	0.5278	0.2088	0.057
Mof_C 	C 	0.7531	0.5304	0.1409	-0.13
Mof_C 	C 	0.6468	0.5835	0.1453	0.076
Mof_C 	C 	0.7141	0.30861	0.5773	0.466
Mof_C 	C 	0.7943	0.35638	0.7018	-0.417
Mof_C 	C 	0.9223	0.33552	0.8537	0.107
Mof_C 	C 	0.8004	0.29878	0.9846	0.277
Mof_C 	C 	0.5991	0.1314	0.7141	0.068
Mof_C 	C 	0.4803	0.0805	0.7222	-0.123
Mof_C 	C 	0.5585	0.0278	0.7912	0.051
Mof_C 	C 	0.7469	0.0304	0.8591	-0.129
Mof_C 	C 	0.8532	0.0835	0.8547	0.074
Mof_C 	C 	0.2859	0.69139	0.5773	0.466
Mof_C 	C 	0.2057	0.64362	0.7018	-0.417
Mof_C 	C 	0.0777	0.66448	0.8537	0.107
Mof_C 	C 	0.1996	0.70122	0.9846	0.277
Mof_C 	C 	0.4009	0.8686	0.7141	0.068
Mof_C 	C 	0.5197	0.9195	0.7222	-0.123
Mof_C 	C 	0.4415	0.9722	0.7912	0.051
Mof_C 	C 	0.2531	0.9696	0.8591	-0.129
Mof_C 	C 	0.1468	0.9165	0.8547	0.074
Mof_N 	N 	0.287	0.36748	0.225	-0.219
Mof_N 	N 	0.713	0.63252	0.225	-0.219
Mof_N 	N 	0.787	0.13252	0.775	-0.218
Mof_N 	N 	0.213	0.86748	0.775	-0.218
Mof_O 	O 	0.2533	0.24597	0.4002	-0.446
Mof_O 	O 	0.1078	0.17148	0.5446	-0.445
Mof_O 	O 	0.5842	0.19879	0.2169	-0.414
Mof_O 	O 	0.3245	0.25767	0.0185	-0.366
Mof_O 	O 	0.1824	0.17374	0.9184	-0.37
Mof_O 	O 	0.7467	0.75403	0.4002	-0.446
Mof_O 	O 	0.8922	0.82852	0.5446	-0.445
Mof_O 	O 	0.4158	0.80121	0.2169	-0.414
Mof_O 	O 	0.6755	0.74233	0.0185	-0.366
Mof_O 	O 	0.8176	0.82626	0.9184	-0.37
Mof_O 	O 	0.7533	0.25403	0.5998	-0.449
Mof_O 	O 	0.6078	0.32852	0.4554	-0.449
Mof_O 	O 	0.0842	0.30121	0.7831	-0.403
Mof_O 	O 	0.8245	0.24233	0.9815	-0.37
Mof_O 	O 	0.6824	0.32626	0.0816	-0.377
Mof_O 	O 	0.2467	0.74597	0.5998	-0.449
Mof_O 	O 	0.3922	0.67148	0.4554	-0.449
Mof_O 	O 	0.9158	0.69879	0.7831	-0.403
Mof_O 	O 	0.1755	0.75767	0.9815	-0.37
Mof_O 	O 	0.3176	0.67374	0.0816	-0.377
_end
