data_functionalizedCrystal
_audit_creation_method	'EQeq! by Chris Wilmer'
_symmetry_space_group_name_H-M	'P1'
_symmetry_Int_Tables_number	1
_symmetry_cell_setting	triclinic
loop_
_symmetry_equiv_pos_as_xyz
  x,y,z
_cell_length_a	10.575
_cell_length_b	10.894
_cell_length_c	13.87
_cell_angle_alpha	87.233
_cell_angle_beta	72.403
_cell_angle_gamma	66.408
loop_
_atom_site_label
_atom_site_type_symbol
_atom_site_fract_x
_atom_site_fract_y
_atom_site_fract_z
_atom_site_charge
Mof_Zn	Zn	0.00224	0.81777	0.66416	1.127
Mof_Zn	Zn	0.99776	0.18223	0.33584	1.127
Mof_Mo	Mo	0.78084	0.9845	0.48644	1.314
Mof_Mo	Mo	0.47275	0.00117	0.63356	1.423
Mof_Mo	Mo	0.17573	0.29117	0.62648	1.012
Mof_Mo	Mo	0.49051	0.26909	0.47985	0.873
Mof_Mo	Mo	0.21916	0.0155	0.51356	1.314
Mof_Mo	Mo	0.52725	0.99883	0.36644	1.423
Mof_Mo	Mo	0.82427	0.70883	0.37352	1.012
Mof_Mo	Mo	0.50949	0.73091	0.52015	0.873
Mof_H 	H 	0.4931	0.7272	0.8277	0.031
Mof_H 	H 	0.3536	0.8046	0.9187	0.053
Mof_H 	H 	0.1743	0.8892	0.8083	-0.026
Mof_H 	H 	0.2413	0.5424	0.6972	-0.049
Mof_H 	H 	0.145	0.6777	0.1137	0.054
Mof_H 	H 	0.179	0.7528	0.0162	0.066
Mof_H 	H 	0.0006	0.9089	0.2298	-0.015
Mof_H 	H 	0.2395	0.5925	0.2265	0.023
Mof_H 	H 	0.3695	0.4737	0.2493	0.014
Mof_H 	H 	0.1876	0.3576	0.349	-0.096
Mof_H 	H 	0.0971	0.279	0.1157	-0.013
Mof_H 	H 	0.5069	0.2728	0.1723	0.031
Mof_H 	H 	0.6464	0.1954	0.0813	0.053
Mof_H 	H 	0.8257	0.1108	0.1917	-0.026
Mof_H 	H 	0.7587	0.4576	0.3028	-0.049
Mof_H 	H 	0.855	0.3223	0.8863	0.054
Mof_H 	H 	0.821	0.2472	0.9838	0.066
Mof_H 	H 	0.9994	0.0911	0.7702	-0.015
Mof_H 	H 	0.7605	0.4075	0.7735	0.023
Mof_H 	H 	0.6305	0.5263	0.7507	0.014
Mof_H 	H 	0.8124	0.6424	0.651	-0.096
Mof_H 	H 	0.9029	0.721	0.8843	-0.013
Mof_C 	C 	0.4543	0.6056	0.9402	0.014
Mof_C 	C 	0.363	0.606	0.0364	0.017
Mof_C 	C 	0.4087	0.5011	0.0974	0.006
Mof_C 	C 	0.4077	0.7212	0.8755	-0.077
Mof_C 	C 	0.2108	0.7974	0.791	0.083
Mof_C 	C 	0.2498	0.6085	0.7316	0.054
Mof_C 	C 	0.2108	0.7161	0.074	-0.093
Mof_C 	C 	0.0913	0.9121	0.207	0.07
Mof_C 	C 	0.2657	0.9701	0.1815	0.033
Mof_C 	C 	0.3118	0.5018	0.2033	-0.063
Mof_C 	C 	0.1814	0.3533	0.2838	0.064
Mof_C 	C 	0.133	0.313	0.1566	0.082
Mof_C 	C 	0.5457	0.3944	0.0598	0.014
Mof_C 	C 	0.637	0.394	0.9636	0.017
Mof_C 	C 	0.5913	0.4989	0.9026	0.006
Mof_C 	C 	0.5923	0.2788	0.1245	-0.077
Mof_C 	C 	0.7892	0.2026	0.209	0.083
Mof_C 	C 	0.7502	0.3915	0.2684	0.054
Mof_C 	C 	0.7892	0.2839	0.926	-0.093
Mof_C 	C 	0.9087	0.0879	0.793	0.07
Mof_C 	C 	0.7343	0.0299	0.8185	0.033
Mof_C 	C 	0.6882	0.4982	0.7967	-0.063
Mof_C 	C 	0.8186	0.6467	0.7162	0.064
Mof_C 	C 	0.867	0.687	0.8434	0.082
Mof_N 	N 	0.1645	0.7411	0.7348	-0.314
Mof_N 	N 	0.317	0.7043	0.8192	-0.106
Mof_N 	N 	0.3448	0.5808	0.7805	-0.113
Mof_N 	N 	0.1228	0.0027	0.2404	-0.276
Mof_N 	N 	0.2041	0.8254	0.1368	-0.09
Mof_N 	N 	0.318	0.843	0.1374	-0.092
Mof_N 	N 	0.1147	0.2892	0.2541	-0.295
Mof_N 	N 	0.2384	0.4108	0.2052	-0.112
Mof_N 	N 	0.2054	0.3878	0.1228	-0.102
Mof_N 	N 	0.8355	0.2589	0.2652	-0.314
Mof_N 	N 	0.683	0.2957	0.1808	-0.106
Mof_N 	N 	0.6552	0.4192	0.2195	-0.113
Mof_N 	N 	0.8772	0.9973	0.7596	-0.276
Mof_N 	N 	0.7959	0.1746	0.8632	-0.09
Mof_N 	N 	0.682	0.157	0.8626	-0.092
Mof_N 	N 	0.8853	0.7108	0.7459	-0.295
Mof_N 	N 	0.7616	0.5892	0.7948	-0.112
Mof_N 	N 	0.7946	0.6122	0.8772	-0.102
Mof_O 	O 	0.8517	0.894	0.576	-0.735
Mof_O 	O 	0.8776	0.8586	0.3731	-0.63
Mof_O 	O 	0.63	0.1016	0.392	-0.679
Mof_O 	O 	0.5926	0.1036	0.5821	-0.669
Mof_O 	O 	0.3209	0.1352	0.7073	-0.547
Mof_O 	O 	0.377	0.1157	0.5039	-0.644
Mof_O 	O 	0.3349	0.3418	0.6012	-0.577
Mof_O 	O 	0.1483	0.106	0.424	-0.735
Mof_O 	O 	0.1224	0.1414	0.6269	-0.63
Mof_O 	O 	0.37	0.8984	0.608	-0.679
Mof_O 	O 	0.4074	0.8964	0.4179	-0.669
Mof_O 	O 	0.6791	0.8648	0.2927	-0.547
Mof_O 	O 	0.623	0.8843	0.4961	-0.644
Mof_O 	O 	0.6651	0.6582	0.3988	-0.577
_end
