data_functionalizedCrystal
_audit_creation_method	'EQeq! by Chris Wilmer'
_symmetry_space_group_name_H-M	'P1'
_symmetry_Int_Tables_number	1
_symmetry_cell_setting	triclinic
loop_
_symmetry_equiv_pos_as_xyz
  x,y,z
_cell_length_a	6.8181
_cell_length_b	38.4122
_cell_length_c	38.4122
_cell_angle_alpha	60.3468
_cell_angle_beta	86.608
_cell_angle_gamma	93.392
loop_
_atom_site_label
_atom_site_type_symbol
_atom_site_fract_x
_atom_site_fract_y
_atom_site_fract_z
_atom_site_charge
Mof_Mg	Mg	0.1658	0.36339	0.32828	1.48
Mof_Mg	Mg	0.83765	0.63724	0.67185	1.485
Mof_Mg	Mg	0.49408	0.32828	0.30833	1.482
Mof_Mg	Mg	0.5095	0.67185	0.69091	1.485
Mof_Mg	Mg	0.80241	0.30833	0.36339	1.482
Mof_Mg	Mg	0.20041	0.69091	0.63724	1.485
Mof_H 	H 	0.01897	0.45087	0.52076	0.073
Mof_H 	H 	0.11557	0.43462	0.56733	0.066
Mof_H 	H 	0.01776	0.4814	0.54202	0.072
Mof_H 	H 	0.37232	0.53854	0.37704	0.061
Mof_H 	H 	0.12699	0.54429	0.39188	0.055
Mof_H 	H 	0.32566	0.54385	0.41949	0.066
Mof_H 	H 	0.14134	0.34658	0.47731	0.076
Mof_H 	H 	0.12321	0.34841	0.52183	0.071
Mof_H 	H 	0.90927	0.35472	0.49556	0.081
Mof_H 	H 	0.6455	0.5019	0.44219	0.047
Mof_H 	H 	0.28968	0.40588	0.51315	0.054
Mof_H 	H 	0.06135	0.48569	0.38176	0.026
Mof_H 	H 	0.32187	0.56023	0.58464	0.09
Mof_H 	H 	0.53835	0.58697	0.61393	-0.027
Mof_H 	H 	0.85048	0.62108	0.59806	0.131
Mof_H 	H 	0.15075	0.37653	0.40754	0.117
Mof_H 	H 	0.46996	0.41382	0.38582	-0.013
Mof_H 	H 	0.68128	0.44049	0.416	0.085
Mof_H 	H 	0.93957	0.51308	0.62236	0.03
Mof_H 	H 	0.70278	0.5927	0.49174	0.053
Mof_H 	H 	0.34972	0.49661	0.56266	0.045
Mof_H 	H 	0.08432	0.64426	0.50829	0.069
Mof_H 	H 	0.86656	0.65041	0.48306	0.068
Mof_H 	H 	0.85457	0.65188	0.52779	0.073
Mof_H 	H 	0.66967	0.45477	0.58541	0.067
Mof_H 	H 	0.8703	0.45437	0.61261	0.059
Mof_H 	H 	0.62605	0.46019	0.62785	0.061
Mof_H 	H 	0.97743	0.51723	0.46268	0.077
Mof_H 	H 	0.87919	0.56398	0.43749	0.069
Mof_H 	H 	0.97611	0.5477	0.48403	0.077
Mof_H 	H 	0.53973	0.52076	0.02837	0.073
Mof_H 	H 	0.6829	0.56733	0.99805	0.066
Mof_H 	H 	0.55978	0.54202	0.97658	0.072
Mof_H 	H 	0.74936	0.37704	0.08442	0.064
Mof_H 	H 	0.51887	0.39188	0.06383	0.058
Mof_H 	H 	0.74515	0.41949	0.03666	0.069
Mof_H 	H 	0.61865	0.47731	0.17611	0.074
Mof_H 	H 	0.64504	0.52183	0.12976	0.068
Mof_H 	H 	0.40483	0.49556	0.14972	0.069
Mof_H 	H 	0.08769	0.44219	0.05591	0.048
Mof_H 	H 	0.80283	0.51315	0.08097	0.052
Mof_H 	H 	0.44311	0.38176	0.13255	0.033
Mof_H 	H 	0.90651	0.58464	0.85513	0.091
Mof_H 	H 	0.15228	0.61393	0.7991	-0.026
Mof_H 	H 	0.44854	0.59806	0.78086	0.132
Mof_H 	H 	0.55829	0.40754	0.21593	0.107
Mof_H 	H 	0.85578	0.38582	0.20036	0.001
Mof_H 	H 	0.09728	0.416	0.14351	0.073
Mof_H 	H 	0.56193	0.62236	0.86456	0.029
Mof_H 	H 	0.19452	0.49174	0.91556	0.053
Mof_H 	H 	0.91238	0.56266	0.94073	0.043
Mof_H 	H 	0.59261	0.50829	0.84745	0.072
Mof_H 	H 	0.34962	0.48306	0.86653	0.068
Mof_H 	H 	0.38236	0.52779	0.82033	0.074
Mof_H 	H 	0.25508	0.58541	0.95982	0.065
Mof_H 	H 	0.48291	0.61261	0.93302	0.057
Mof_H 	H 	0.2539	0.62785	0.91196	0.059
Mof_H 	H 	0.44011	0.46268	0.02009	0.076
Mof_H 	H 	0.31668	0.43749	0.99853	0.068
Mof_H 	H 	0.46014	0.48403	0.96827	0.077
Mof_H 	H 	0.5681	0.02837	0.45087	0.074
Mof_H 	H 	0.68095	0.99805	0.43462	0.066
Mof_H 	H 	0.53636	0.97658	0.4814	0.072
Mof_H 	H 	0.83378	0.08442	0.53854	0.064
Mof_H 	H 	0.5827	0.06383	0.54429	0.058
Mof_H 	H 	0.78181	0.03666	0.54385	0.069
Mof_H 	H 	0.79476	0.17611	0.34658	0.075
Mof_H 	H 	0.7748	0.12976	0.34841	0.069
Mof_H 	H 	0.55455	0.14972	0.35472	0.07
Mof_H 	H 	0.1436	0.05591	0.5019	0.047
Mof_H 	H 	0.8838	0.08097	0.40588	0.052
Mof_H 	H 	0.57566	0.13255	0.48569	0.033
Mof_H 	H 	0.76164	0.85513	0.56023	0.092
Mof_H 	H 	0.95138	0.7991	0.58697	-0.027
Mof_H 	H 	0.2294	0.78086	0.62108	0.132
Mof_H 	H 	0.77422	0.21593	0.37653	0.109
Mof_H 	H 	0.05614	0.20036	0.41382	-0.013
Mof_H 	H 	0.24079	0.14351	0.44049	0.075
Mof_H 	H 	0.42649	0.86456	0.51308	0.029
Mof_H 	H 	0.11008	0.91556	0.5927	0.053
Mof_H 	H 	0.85311	0.94073	0.49661	0.043
Mof_H 	H 	0.44006	0.84745	0.64426	0.071
Mof_H 	H 	0.21615	0.86653	0.65041	0.069
Mof_H 	H 	0.20269	0.82033	0.65188	0.074
Mof_H 	H 	0.2149	0.95982	0.45477	0.065
Mof_H 	H 	0.41593	0.93302	0.45437	0.057
Mof_H 	H 	0.16586	0.91196	0.46019	0.06
Mof_H 	H 	0.4602	0.02009	0.51723	0.075
Mof_H 	H 	0.31521	0.99853	0.56398	0.068
Mof_H 	H 	0.42841	0.96827	0.5477	0.076
Mof_C 	C 	0.10364	0.46045	0.53814	-0.216
Mof_C 	C 	0.26523	0.53077	0.40266	-0.19
Mof_C 	C 	0.07219	0.36117	0.49211	-0.246
Mof_C 	C 	0.6884	0.5184	0.48587	0.06
Mof_C 	C 	0.58059	0.50086	0.46845	-0.081
Mof_C 	C 	0.39027	0.48198	0.48434	-0.022
Mof_C 	C 	0.11144	0.46827	0.41048	-0.027
Mof_C 	C 	0.22214	0.48684	0.42656	0.024
Mof_C 	C 	0.2835	0.46408	0.46446	0.012
Mof_C 	C 	0.23982	0.42323	0.48439	-0.116
Mof_C 	C 	0.12694	0.40476	0.46844	0.113
Mof_C 	C 	0.06034	0.42769	0.43119	-0.119
Mof_C 	C 	0.38985	0.5956	0.6105	0.23
Mof_C 	C 	0.26545	0.57965	0.59407	-0.244
Mof_C 	C 	0.06979	0.58844	0.58999	0.207
Mof_C 	C 	0.99964	0.61332	0.60251	-0.359
Mof_C 	C 	0.88396	0.36879	0.3848	0.343
Mof_C 	C 	0.68557	0.37862	0.37864	-0.383
Mof_C 	C 	0.54855	0.36536	0.35824	0.573
Mof_C 	C 	0.44945	0.63299	0.64351	0.644
Mof_C 	C 	0.32222	0.62082	0.62354	-0.487
Mof_C 	C 	0.1224	0.62996	0.61876	0.485
Mof_C 	C 	0.00226	0.38469	0.40232	-0.31
Mof_C 	C 	0.9314	0.4104	0.41369	0.199
Mof_C 	C 	0.73845	0.42043	0.40752	-0.216
Mof_C 	C 	0.61742	0.40472	0.3904	0.181
Mof_C 	C 	0.93804	0.57104	0.57301	-0.11
Mof_C 	C 	0.86852	0.59392	0.53607	0.106
Mof_C 	C 	0.75432	0.5754	0.52034	-0.112
Mof_C 	C 	0.71165	0.53452	0.5403	0.01
Mof_C 	C 	0.77484	0.51183	0.57803	0.028
Mof_C 	C 	0.88745	0.53046	0.59381	-0.03
Mof_C 	C 	0.60489	0.51654	0.52049	-0.022
Mof_C 	C 	0.41463	0.49766	0.53638	-0.081
Mof_C 	C 	0.30677	0.48012	0.51896	0.058
Mof_C 	C 	0.9214	0.63759	0.51245	-0.227
Mof_C 	C 	0.73178	0.46791	0.60206	-0.192
Mof_C 	C 	0.89141	0.53812	0.46665	-0.218
Mof_C 	C 	0.64178	0.53814	0.00141	-0.209
Mof_C 	C 	0.66789	0.40266	0.06657	-0.197
Mof_C 	C 	0.5643	0.49211	0.14672	-0.224
Mof_C 	C 	0.17427	0.48587	0.99573	0.068
Mof_C 	C 	0.04904	0.46845	0.03069	-0.099
Mof_C 	C 	0.87461	0.48434	0.03368	-0.004
Mof_C 	C 	0.52192	0.41048	0.12125	-0.044
Mof_C 	C 	0.6487	0.42656	0.0866	0.038
Mof_C 	C 	0.74796	0.46446	0.07146	-0
Mof_C 	C 	0.72421	0.48439	0.09238	-0.102
Mof_C 	C 	0.59538	0.46844	0.1268	0.095
Mof_C 	C 	0.49153	0.43119	0.14112	-0.086
Mof_C 	C 	0.00035	0.6105	0.7939	0.226
Mof_C 	C 	0.85952	0.59407	0.82628	-0.242
Mof_C 	C 	0.65978	0.58999	0.82157	0.211
Mof_C 	C 	0.60215	0.60251	0.78417	-0.362
Mof_C 	C 	0.26876	0.3848	0.24641	0.317
Mof_C 	C 	0.06421	0.37864	0.24274	-0.378
Mof_C 	C 	0.90679	0.35824	0.2764	0.58
Mof_C 	C 	0.09296	0.64351	0.7235	0.642
Mof_C 	C 	0.94576	0.62354	0.75564	-0.485
Mof_C 	C 	0.74116	0.61876	0.75128	0.486
Mof_C 	C 	0.40458	0.40232	0.21299	-0.264
Mof_C 	C 	0.34509	0.41369	0.17591	0.153
Mof_C 	C 	0.14597	0.40752	0.17205	-0.19
Mof_C 	C 	0.00782	0.3904	0.20488	0.149
Mof_C 	C 	0.51105	0.57301	0.85595	-0.114
Mof_C 	C 	0.40459	0.53607	0.87001	0.109
Mof_C 	C 	0.27466	0.52034	0.90426	-0.116
Mof_C 	C 	0.25195	0.5403	0.92518	0.015
Mof_C 	C 	0.35287	0.57803	0.91014	0.023
Mof_C 	C 	0.48126	0.59381	0.87573	-0.027
Mof_C 	C 	0.12538	0.52049	0.96297	-0.036
Mof_C 	C 	0.95101	0.53638	0.96596	-0.066
Mof_C 	C 	0.82573	0.51896	0.00092	0.049
Mof_C 	C 	0.43385	0.51245	0.84996	-0.231
Mof_C 	C 	0.33384	0.60206	0.93003	-0.189
Mof_C 	C 	0.35806	0.46665	0.99523	-0.223
Mof_C 	C 	0.64319	0.00141	0.46045	-0.211
Mof_C 	C 	0.73446	0.06657	0.53077	-0.196
Mof_C 	C 	0.71102	0.14672	0.36117	-0.225
Mof_C 	C 	0.17	0.99573	0.5184	0.065
Mof_C 	C 	0.07973	0.03069	0.50086	-0.094
Mof_C 	C 	0.90829	0.03368	0.48198	-0.008
Mof_C 	C 	0.64317	0.12125	0.46827	-0.043
Mof_C 	C 	0.7353	0.0866	0.48684	0.037
Mof_C 	C 	0.81942	0.07146	0.46408	0.001
Mof_C 	C 	0.81659	0.09238	0.42323	-0.103
Mof_C 	C 	0.72218	0.1268	0.40476	0.096
Mof_C 	C 	0.63265	0.14112	0.42769	-0.087
Mof_C 	C 	0.79425	0.7939	0.5956	0.232
Mof_C 	C 	0.6858	0.82628	0.57965	-0.246
Mof_C 	C 	0.48135	0.82157	0.58844	0.213
Mof_C 	C 	0.38632	0.78417	0.61332	-0.363
Mof_C 	C 	0.51517	0.24641	0.36879	0.314
Mof_C 	C 	0.30695	0.24274	0.37862	-0.365
Mof_C 	C 	0.18319	0.2764	0.36536	0.551
Mof_C 	C 	0.81646	0.7235	0.63299	0.643
Mof_C 	C 	0.7014	0.75564	0.62082	-0.488
Mof_C 	C 	0.49244	0.75128	0.62996	0.488
Mof_C 	C 	0.61757	0.21299	0.38469	-0.264
Mof_C 	C 	0.521	0.17591	0.4104	0.155
Mof_C 	C 	0.31802	0.17205	0.42043	-0.194
Mof_C 	C 	0.2127	0.20488	0.40472	0.162
Mof_C 	C 	0.367	0.85595	0.57104	-0.115
Mof_C 	C 	0.2746	0.87001	0.59392	0.109
Mof_C 	C 	0.17892	0.90426	0.5754	-0.115
Mof_C 	C 	0.17713	0.92518	0.53452	0.014
Mof_C 	C 	0.26301	0.91014	0.51183	0.024
Mof_C 	C 	0.35699	0.87573	0.53046	-0.027
Mof_C 	C 	0.08835	0.96297	0.51654	-0.032
Mof_C 	C 	0.91697	0.96596	0.49766	-0.071
Mof_C 	C 	0.82665	0.00092	0.48012	0.052
Mof_C 	C 	0.28381	0.84996	0.63759	-0.231
Mof_C 	C 	0.26387	0.93003	0.46791	-0.189
Mof_C 	C 	0.35329	0.99523	0.53812	-0.221
Mof_O 	O 	0.96864	0.34214	0.37627	-0.654
Mof_O 	O 	0.60211	0.34327	0.34512	-0.787
Mof_O 	O 	0.37513	0.37671	0.35393	-0.561
Mof_O 	O 	0.62549	0.62305	0.64713	-0.576
Mof_O 	O 	0.38965	0.65334	0.65822	-0.79
Mof_O 	O 	0.04985	0.65351	0.62827	-0.743
Mof_O 	O 	0.34491	0.37627	0.28159	-0.657
Mof_O 	O 	0.94723	0.34512	0.31161	-0.783
Mof_O 	O 	0.72906	0.35393	0.26936	-0.559
Mof_O 	O 	0.27262	0.64713	0.72982	-0.575
Mof_O 	O 	0.04787	0.65822	0.68844	-0.789
Mof_O 	O 	0.67812	0.62827	0.71822	-0.743
Mof_O 	O 	0.6265	0.28159	0.34214	-0.653
Mof_O 	O 	0.25884	0.31161	0.34327	-0.784
Mof_O 	O 	0.99842	0.26936	0.37671	-0.544
Mof_O 	O 	0.00244	0.72982	0.62305	-0.575
Mof_O 	O 	0.73631	0.68844	0.65334	-0.79
Mof_O 	O 	0.39634	0.71822	0.65351	-0.743
_end
