data_functionalizedCrystal
_audit_creation_method	'EQeq! by Chris Wilmer'
_symmetry_space_group_name_H-M	'P1'
_symmetry_Int_Tables_number	1
_symmetry_cell_setting	triclinic
loop_
_symmetry_equiv_pos_as_xyz
  x,y,z
_cell_length_a	10.8968
_cell_length_b	23.0553
_cell_length_c	23.287
_cell_angle_alpha	90
_cell_angle_beta	90
_cell_angle_gamma	90
loop_
_atom_site_label
_atom_site_type_symbol
_atom_site_fract_x
_atom_site_fract_y
_atom_site_fract_z
_atom_site_charge
Mof_S 	S 	0.25869	0.93033	0.4298	-0.505
Mof_N 	N 	0.2741	0.82293	0.54209	-0.21
Mof_C 	C 	0.2259	0.07293	0.29209	-0.205
Mof_C 	C 	0.2768	0.04291	0.32269	-0.204
Mof_S 	S 	0.25869	0.43033	0.9298	-0.504
Mof_N 	N 	0.2741	0.32293	0.04209	-0.21
Mof_C 	C 	0.2259	0.57293	0.79209	-0.205
Mof_C 	C 	0.2768	0.54291	0.82269	-0.204
Mof_S 	S 	0.75869	0.93033	0.9298	-0.505
Mof_N 	N 	0.7741	0.82293	0.04209	-0.209
Mof_C 	C 	0.7259	0.07293	0.79209	-0.205
Mof_C 	C 	0.7768	0.04291	0.82269	-0.202
Mof_S 	S 	0.75869	0.43033	0.4298	-0.504
Mof_N 	N 	0.7741	0.32293	0.54209	-0.209
Mof_C 	C 	0.7259	0.57293	0.29209	-0.204
Mof_C 	C 	0.7768	0.54291	0.32269	-0.203
Mof_S 	S 	0.49131	0.81967	0.4298	-0.503
Mof_N 	N 	0.4759	0.92707	0.54209	-0.209
Mof_C 	C 	0.5241	0.67707	0.29209	-0.204
Mof_C 	C 	0.4732	0.70709	0.32269	-0.203
Mof_S 	S 	0.49131	0.31967	0.9298	-0.503
Mof_N 	N 	0.4759	0.42707	0.04209	-0.209
Mof_C 	C 	0.5241	0.17707	0.79209	-0.203
Mof_C 	C 	0.4732	0.20709	0.82269	-0.203
Mof_S 	S 	0.99131	0.81967	0.9298	-0.504
Mof_N 	N 	0.9759	0.92707	0.04209	-0.208
Mof_C 	C 	0.0241	0.67707	0.79209	-0.204
Mof_C 	C 	0.9732	0.70709	0.82269	-0.203
Mof_S 	S 	0.99131	0.31967	0.4298	-0.503
Mof_N 	N 	0.9759	0.42707	0.54209	-0.208
Mof_C 	C 	0.0241	0.17707	0.29209	-0.206
Mof_C 	C 	0.9732	0.20709	0.32269	-0.201
Mof_S 	S 	0.49131	0.93033	0.3202	-0.503
Mof_N 	N 	0.4759	0.82293	0.20791	-0.209
Mof_C 	C 	0.5241	0.07293	0.45791	-0.203
Mof_C 	C 	0.4732	0.04291	0.42731	-0.203
Mof_S 	S 	0.49131	0.43033	0.8202	-0.503
Mof_N 	N 	0.4759	0.32293	0.70791	-0.209
Mof_C 	C 	0.5241	0.57293	0.95791	-0.204
Mof_C 	C 	0.4732	0.54291	0.92731	-0.203
Mof_S 	S 	0.99131	0.93033	0.8202	-0.505
Mof_N 	N 	0.9759	0.82293	0.70791	-0.209
Mof_C 	C 	0.0241	0.07293	0.95791	-0.204
Mof_C 	C 	0.9732	0.04291	0.92731	-0.2
Mof_S 	S 	0.99131	0.43033	0.3202	-0.503
Mof_N 	N 	0.9759	0.32293	0.20791	-0.208
Mof_C 	C 	0.0241	0.57293	0.45791	-0.205
Mof_C 	C 	0.9732	0.54291	0.42731	-0.202
Mof_S 	S 	0.25869	0.81967	0.3202	-0.504
Mof_N 	N 	0.2741	0.92707	0.20791	-0.209
Mof_C 	C 	0.2259	0.67707	0.45791	-0.204
Mof_C 	C 	0.2768	0.70709	0.42731	-0.203
Mof_S 	S 	0.25869	0.31967	0.8202	-0.504
Mof_N 	N 	0.2741	0.42707	0.70791	-0.209
Mof_C 	C 	0.2259	0.17707	0.95791	-0.202
Mof_C 	C 	0.2768	0.20709	0.92731	-0.203
Mof_S 	S 	0.75869	0.81967	0.8202	-0.504
Mof_N 	N 	0.7741	0.92707	0.70791	-0.209
Mof_C 	C 	0.7259	0.67707	0.95791	-0.204
Mof_C 	C 	0.7768	0.70709	0.92731	-0.203
Mof_S 	S 	0.75869	0.31967	0.3202	-0.503
Mof_N 	N 	0.7741	0.42707	0.20791	-0.209
Mof_C 	C 	0.7259	0.17707	0.45791	-0.203
Mof_C 	C 	0.7768	0.20709	0.42731	-0.203
Mof_S 	S 	0.74131	0.06967	0.5702	-0.504
Mof_C 	C 	0.7232	0.95709	0.67731	-0.196
Mof_S 	S 	0.74131	0.56967	0.0702	-0.504
Mof_C 	C 	0.7232	0.45709	0.17731	-0.195
Mof_S 	S 	0.24131	0.06967	0.0702	-0.505
Mof_C 	C 	0.2232	0.95709	0.17731	-0.194
Mof_S 	S 	0.24131	0.56967	0.5702	-0.505
Mof_C 	C 	0.2232	0.45709	0.67731	-0.195
Mof_S 	S 	0.50869	0.18033	0.5702	-0.505
Mof_C 	C 	0.5268	0.29291	0.67731	-0.195
Mof_S 	S 	0.50869	0.68033	0.0702	-0.505
Mof_C 	C 	0.5268	0.79291	0.17731	-0.195
Mof_S 	S 	0.00869	0.18033	0.0702	-0.506
Mof_C 	C 	0.0268	0.29291	0.17731	-0.197
Mof_S 	S 	0.00869	0.68033	0.5702	-0.506
Mof_C 	C 	0.0268	0.79291	0.67731	-0.196
Mof_S 	S 	0.50869	0.06967	0.6798	-0.504
Mof_C 	C 	0.5268	0.95709	0.57269	-0.196
Mof_S 	S 	0.50869	0.56967	0.1798	-0.505
Mof_C 	C 	0.5268	0.45709	0.07269	-0.195
Mof_S 	S 	0.00869	0.06967	0.1798	-0.506
Mof_C 	C 	0.0268	0.95709	0.07269	-0.195
Mof_S 	S 	0.00869	0.56967	0.6798	-0.506
Mof_C 	C 	0.0268	0.45709	0.57269	-0.196
Mof_S 	S 	0.74131	0.18033	0.6798	-0.505
Mof_C 	C 	0.7232	0.29291	0.57269	-0.195
Mof_S 	S 	0.74131	0.68033	0.1798	-0.505
Mof_C 	C 	0.7232	0.79291	0.07269	-0.195
Mof_S 	S 	0.24131	0.18033	0.1798	-0.505
Mof_C 	C 	0.2232	0.29291	0.07269	-0.195
Mof_S 	S 	0.24131	0.68033	0.6798	-0.505
Mof_C 	C 	0.2232	0.79291	0.57269	-0.195
Mof_W 	W 	0.375	0.875	0.375	0.334
Mof_W 	W 	0.375	0.375	0.875	0.334
Mof_W 	W 	0.875	0.875	0.875	0.334
Mof_W 	W 	0.875	0.375	0.375	0.334
Mof_W 	W 	0.625	0.125	0.625	0.334
Mof_W 	W 	0.625	0.625	0.125	0.334
Mof_W 	W 	0.125	0.125	0.125	0.334
Mof_W 	W 	0.125	0.625	0.625	0.334
Mof_Cu	Cu	0.375	0.875	0.49492	0.828
Mof_Cu	Cu	0.375	0.375	0.99492	0.828
Mof_Cu	Cu	0.875	0.875	0.99492	0.827
Mof_Cu	Cu	0.875	0.375	0.49492	0.828
Mof_Cu	Cu	0.375	0.875	0.25508	0.828
Mof_Cu	Cu	0.375	0.375	0.75508	0.828
Mof_Cu	Cu	0.875	0.875	0.75508	0.828
Mof_Cu	Cu	0.875	0.375	0.25508	0.828
Mof_Cu	Cu	0.625	0.125	0.50508	0.826
Mof_Cu	Cu	0.625	0.625	0.00508	0.826
Mof_Cu	Cu	0.125	0.125	0.00508	0.825
Mof_Cu	Cu	0.125	0.625	0.50508	0.826
Mof_Cu	Cu	0.625	0.125	0.74492	0.826
Mof_Cu	Cu	0.625	0.625	0.24492	0.826
Mof_Cu	Cu	0.125	0.125	0.24492	0.826
Mof_Cu	Cu	0.125	0.625	0.74492	0.826
Mof_Cu	Cu	0.375	0.99487	0.375	0.827
Mof_Cu	Cu	0.375	0.49487	0.875	0.827
Mof_Cu	Cu	0.875	0.99487	0.875	0.826
Mof_Cu	Cu	0.875	0.49487	0.375	0.827
Mof_Cu	Cu	0.375	0.75513	0.375	0.827
Mof_Cu	Cu	0.375	0.25513	0.875	0.827
Mof_Cu	Cu	0.875	0.75513	0.875	0.827
Mof_Cu	Cu	0.875	0.25513	0.375	0.826
Mof_Cu	Cu	0.625	0.00513	0.625	0.826
Mof_Cu	Cu	0.625	0.50513	0.125	0.825
Mof_Cu	Cu	0.125	0.00513	0.125	0.825
Mof_Cu	Cu	0.125	0.50513	0.625	0.825
Mof_Cu	Cu	0.625	0.24487	0.625	0.825
Mof_Cu	Cu	0.625	0.74487	0.125	0.825
Mof_Cu	Cu	0.125	0.24487	0.125	0.825
Mof_Cu	Cu	0.125	0.74487	0.625	0.825
_end
