data_functionalizedCrystal
_audit_creation_method	'EQeq! by Chris Wilmer'
_symmetry_space_group_name_H-M	'P1'
_symmetry_Int_Tables_number	1
_symmetry_cell_setting	triclinic
loop_
_symmetry_equiv_pos_as_xyz
  x,y,z
_cell_length_a	9.2762
_cell_length_b	14.823
_cell_length_c	27.4058
_cell_angle_alpha	90
_cell_angle_beta	90
_cell_angle_gamma	90
loop_
_atom_site_label
_atom_site_type_symbol
_atom_site_fract_x
_atom_site_fract_y
_atom_site_fract_z
_atom_site_charge
Mof_Cu	Cu	0.10961	0.03071	0.43664	0.936
Mof_Cu	Cu	0.10961	0.96929	0.56336	0.938
Mof_Cu	Cu	0.89039	0.53071	0.06336	0.935
Mof_Cu	Cu	0.61287	0.05394	0.43951	0.912
Mof_Cu	Cu	0.38713	0.44606	0.93951	0.913
Mof_Cu	Cu	0.89039	0.46929	0.93664	0.936
Mof_Cu	Cu	0.38713	0.55394	0.06049	0.913
Mof_Cu	Cu	0.61287	0.94606	0.56049	0.914
Mof_H 	H 	0.0859	0.4722	0.32	0.124
Mof_H 	H 	0.3113	0.7089	0.2207	0.124
Mof_H 	H 	0.4742	0.4621	0.219	-0.004
Mof_H 	H 	0.0921	0.161	0.5287	0.001
Mof_H 	H 	0.5165	0.7378	0.3867	0.117
Mof_H 	H 	0.9412	0.0669	0.1114	-0.02
Mof_H 	H 	0.1754	0.318	0.9816	-0.002
Mof_H 	H 	0.1404	0.5781	0.6318	0.136
Mof_H 	H 	0.883	0.1941	0.0608	0.092
Mof_H 	H 	0.4708	0.8747	0.425	-0.015
Mof_H 	H 	0.2216	0.8049	0.3091	0.097
Mof_H 	H 	0.4889	0.2713	0.7172	0.184
Mof_H 	H 	0.403	0.1996	0.4647	-0.004
Mof_H 	H 	0.227	0.559	0.4002	-0.019
Mof_H 	H 	0.3506	0.0896	0.384	-0.04
Mof_H 	H 	0.0588	0.5669	0.3886	-0.022
Mof_H 	H 	0.4021	0.3421	0.4992	0.099
Mof_H 	H 	0.1754	0.682	0.0184	-0.001
Mof_H 	H 	0.5979	0.1579	0.9992	0.096
Mof_H 	H 	0.227	0.441	0.5998	-0.019
Mof_H 	H 	0.3586	0.1008	0.8433	0.001
Mof_H 	H 	0.5111	0.2287	0.2172	0.185
Mof_H 	H 	0.2528	0.5106	0.7475	0.104
Mof_H 	H 	0.4714	0.0362	0.0494	0.115
Mof_H 	H 	0.8324	0.3214	0.5193	0.098
Mof_H 	H 	0.2806	0.3641	0.6697	0.116
Mof_H 	H 	0.3968	0.1098	0.1986	-0.089
Mof_H 	H 	0.4714	0.9638	0.9506	0.117
Mof_H 	H 	0.5819	0.9156	0.1178	0.098
Mof_H 	H 	0.5292	0.3747	0.075	-0.016
Mof_H 	H 	0.2761	0.1445	0.3094	0.148
Mof_H 	H 	0.5979	0.8421	0.0008	0.097
Mof_H 	H 	0.8246	0.818	0.5184	-0.002
Mof_H 	H 	0.2584	0.9588	0.0179	-0.012
Mof_H 	H 	0.1148	0.3423	0.1664	0.118
Mof_H 	H 	0.3735	0.2728	0.2424	0.194
Mof_H 	H 	0.2528	0.4894	0.2525	0.104
Mof_H 	H 	0.773	0.941	0.9002	-0.019
Mof_H 	H 	0.1684	0.477	0.1279	-0.019
Mof_H 	H 	0.7416	0.4588	0.4821	-0.026
Mof_H 	H 	0.8246	0.182	0.4816	-0.003
Mof_H 	H 	0.5819	0.0844	0.8822	0.098
Mof_H 	H 	0.3968	0.8902	0.8014	-0.086
Mof_H 	H 	0.8065	0.5555	0.8433	-0.008
Mof_H 	H 	0.3113	0.2911	0.7793	0.124
Mof_H 	H 	0.8324	0.6786	0.4807	0.098
Mof_H 	H 	0.4742	0.5379	0.781	-0.004
Mof_H 	H 	0.7556	0.8492	0.6456	-0.018
Mof_H 	H 	0.8065	0.4445	0.1567	-0.008
Mof_H 	H 	0.2645	0.1357	0.232	-0.09
Mof_H 	H 	0.5292	0.6253	0.925	-0.015
Mof_H 	H 	0.0921	0.839	0.4713	0.001
Mof_H 	H 	0.9079	0.661	0.9713	0.002
Mof_H 	H 	0.7341	0.3647	0.6419	0.172
Mof_H 	H 	0.8852	0.8423	0.3336	0.118
Mof_H 	H 	0.883	0.8059	0.9392	0.094
Mof_H 	H 	0.117	0.3059	0.5608	0.094
Mof_H 	H 	0.7239	0.3555	0.8094	0.148
Mof_H 	H 	0.5258	0.0379	0.719	-0.004
Mof_H 	H 	0.9079	0.339	0.0287	0
Mof_H 	H 	0.2444	0.3492	0.8544	-0.018
Mof_H 	H 	0.9141	0.0278	0.82	0.125
Mof_H 	H 	0.4708	0.1253	0.575	-0.016
Mof_H 	H 	0.0588	0.4331	0.6114	-0.022
Mof_H 	H 	0.5286	0.4638	0.5494	0.125
Mof_H 	H 	0.7472	0.0106	0.7525	0.104
Mof_H 	H 	0.8852	0.1577	0.6664	0.117
Mof_H 	H 	0.403	0.8004	0.5353	-0.004
Mof_H 	H 	0.2761	0.8555	0.6906	0.148
Mof_H 	H 	0.3079	0.9427	0.9341	0.115
Mof_H 	H 	0.2659	0.1353	0.1419	0.172
Mof_H 	H 	0.9412	0.9331	0.8886	-0.022
Mof_H 	H 	0.4835	0.7622	0.8867	0.117
Mof_H 	H 	0.2444	0.6508	0.1456	-0.018
Mof_H 	H 	0.4181	0.5844	0.6178	0.098
Mof_H 	H 	0.3735	0.7272	0.7576	0.193
Mof_H 	H 	0.114	0.3591	0.6834	0.111
Mof_H 	H 	0.1935	0.9445	0.3433	-0.007
Mof_H 	H 	0.7416	0.5412	0.5179	-0.026
Mof_H 	H 	0.6921	0.5573	0.4341	0.124
Mof_H 	H 	0.8596	0.9219	0.1318	0.135
Mof_H 	H 	0.7472	0.9894	0.2475	0.105
Mof_H 	H 	0.8501	0.3149	0.6754	0.173
Mof_H 	H 	0.6887	0.7911	0.7207	0.124
Mof_H 	H 	0.597	0.6996	0.0353	-0.003
Mof_H 	H 	0.6494	0.4104	0.884	-0.04
Mof_H 	H 	0.7239	0.6445	0.1906	0.148
Mof_H 	H 	0.4835	0.2378	0.1133	0.117
Mof_H 	H 	0.8316	0.977	0.3721	-0.018
Mof_H 	H 	0.6032	0.3902	0.6986	-0.087
Mof_H 	H 	0.7784	0.3049	0.1909	0.096
Mof_H 	H 	0.1935	0.0555	0.6567	-0.009
Mof_H 	H 	0.1499	0.1851	0.1754	0.173
Mof_H 	H 	0.597	0.3004	0.9647	-0.002
Mof_H 	H 	0.3586	0.8992	0.1567	0.002
Mof_H 	H 	0.117	0.6941	0.4392	0.093
Mof_H 	H 	0.1684	0.523	0.8721	-0.019
Mof_H 	H 	0.8596	0.0781	0.8682	0.137
Mof_H 	H 	0.7341	0.6353	0.3581	0.172
Mof_H 	H 	0.3506	0.9104	0.616	-0.04
Mof_H 	H 	0.6494	0.5896	0.116	-0.04
Mof_H 	H 	0.2216	0.1951	0.6909	0.097
Mof_H 	H 	0.1676	0.8214	0.9807	0.096
Mof_H 	H 	0.4181	0.4156	0.3822	0.098
Mof_H 	H 	0.7194	0.8641	0.8303	0.117
Mof_H 	H 	0.7784	0.6951	0.8091	0.097
Mof_H 	H 	0.8501	0.6851	0.3246	0.173
Mof_H 	H 	0.1148	0.6577	0.8336	0.118
Mof_H 	H 	0.7556	0.1508	0.3544	-0.018
Mof_H 	H 	0.9141	0.9722	0.18	0.123
Mof_H 	H 	0.3079	0.0573	0.0659	0.114
Mof_H 	H 	0.6414	0.6008	0.6567	0.002
Mof_H 	H 	0.2806	0.6359	0.3303	0.116
Mof_H 	H 	0.1676	0.1786	0.0193	0.096
Mof_H 	H 	0.2584	0.0412	0.9821	-0.012
Mof_H 	H 	0.7355	0.6357	0.268	-0.089
Mof_H 	H 	0.886	0.8591	0.8166	0.112
Mof_H 	H 	0.0859	0.5278	0.68	0.124
Mof_H 	H 	0.6265	0.2272	0.7424	0.193
Mof_H 	H 	0.773	0.059	0.0998	-0.017
Mof_H 	H 	0.4021	0.6579	0.5008	0.099
Mof_H 	H 	0.2645	0.8643	0.768	-0.088
Mof_H 	H 	0.114	0.6409	0.3166	0.111
Mof_H 	H 	0.5258	0.9621	0.281	-0.003
Mof_H 	H 	0.886	0.1409	0.1834	0.109
Mof_H 	H 	0.6265	0.7728	0.2576	0.193
Mof_H 	H 	0.7355	0.3643	0.732	-0.089
Mof_H 	H 	0.8316	0.023	0.6279	-0.021
Mof_H 	H 	0.6921	0.4427	0.5659	0.124
Mof_H 	H 	0.5165	0.2622	0.6133	0.117
Mof_H 	H 	0.5286	0.5362	0.4506	0.125
Mof_H 	H 	0.1404	0.4219	0.3682	0.136
Mof_H 	H 	0.5111	0.7713	0.7828	0.184
Mof_H 	H 	0.6887	0.2089	0.2793	0.124
Mof_H 	H 	0.2659	0.8647	0.8581	0.172
Mof_H 	H 	0.6032	0.6098	0.3014	-0.087
Mof_H 	H 	0.6414	0.3992	0.3433	0.002
Mof_H 	H 	0.4889	0.7287	0.2828	0.184
Mof_H 	H 	0.7194	0.1359	0.1697	0.114
Mof_H 	H 	0.1499	0.8149	0.8246	0.173
Mof_C 	C 	0.2626	0.2854	0.986	0.113
Mof_C 	C 	0.1691	0.5	-0	0.509
Mof_C 	C 	0.1616	0.5279	0.6545	-0.335
Mof_C 	C 	0.8447	0.9388	0.8735	0.146
Mof_C 	C 	0.4157	0.7144	0.8841	-0.264
Mof_C 	C 	0.6177	0.8165	0.69985	-0.286
Mof_C 	C 	0.7469	0.6839	0.3337	-0.522
Mof_C 	C 	0.6246	0.646	0.18223	-0.297
Mof_C 	C 	0.1716	0.7342	0.3693	0.176
Mof_C 	C 	0.1767	0.8928	0.36293	0.112
Mof_C 	C 	0.3429	0.351	0.84494	0.15
Mof_C 	C 	0.5257	0.3187	0.7855	0.317
Mof_C 	C 	0.8284	0.7658	0.8693	0.177
Mof_C 	C 	0.5569	0.1323	0.59337	0.142
Mof_C 	C 	0.3845	0.1518	0.0125	0.172
Mof_C 	C 	0.8829	0.6684	0.938	0.099
Mof_C 	C 	0.5097	0.81	0.0037	-0.209
Mof_C 	C 	0.8384	0.9721	0.1545	-0.327
Mof_C 	C 	0.8061	0.6902	0.8423	-0.223
Mof_C 	C 	0.574	0.9272	0.1518	-0.206
Mof_C 	C 	0.1996	0.653	0.85287	-0.263
Mof_C 	C 	0.4157	0.2856	0.1159	-0.265
Mof_C 	C 	0.7434	0.298	0.5077	-0.201
Mof_C 	C 	0.6645	0.3389	0.7088	0.414
Mof_C 	C 	0.5088	0.7251	0.02434	0.108
Mof_C 	C 	0.6947	0.9556	0.1782	0.199
Mof_C 	C 	0.8233	0.3928	0.13707	0.111
Mof_C 	C 	0.232	0.4272	0.12428	0.133
Mof_C 	C 	0.7374	0.2146	0.486	0.112
Mof_C 	C 	0.2531	0.8161	0.8337	-0.522
Mof_C 	C 	0.0661	0.1683	0.39355	0.439
Mof_C 	C 	0.44	0.0843	0.8243	0.102
Mof_C 	C 	0.768	0.0728	0.62428	0.133
Mof_C 	C 	0.8284	0.2342	0.1307	0.173
Mof_C 	C 	0.8447	0.0612	0.1265	0.132
Mof_C 	C 	0.5843	0.2144	0.6159	-0.264
Mof_C 	C 	0.1939	0.8098	0.3423	-0.222
Mof_C 	C 	0.2626	0.7146	0.014	0.106
Mof_C 	C 	0.1996	0.347	0.14713	-0.263
Mof_C 	C 	0.464	0.547	0.7469	0.119
Mof_C 	C 	0.7374	0.7854	0.514	0.112
Mof_C 	C 	0.1553	0.5612	0.3735	0.14
Mof_C 	C 	0.4743	0.8187	0.7145	0.317
Mof_C 	C 	0.7469	0.3161	0.6663	-0.522
Mof_C 	C 	0.1616	0.4721	0.3455	-0.335
Mof_C 	C 	0.3823	0.6835	0.19985	-0.287
Mof_C 	C 	0.1325	0.7453	0.419	-0.193
Mof_C 	C 	0.2566	0.202	0.0077	-0.198
Mof_C 	C 	0.3053	0.4556	0.3218	0.2
Mof_C 	C 	0.8233	0.6072	0.86293	0.113
Mof_C 	C 	0.4912	0.7749	0.52434	0.111
Mof_C 	C 	0.1171	0.8316	0.438	0.099
Mof_C 	C 	0.8004	0.847	0.35287	-0.262
Mof_C 	C 	0.4903	0.31	0.4963	-0.213
Mof_C 	C 	0.6177	0.1835	0.30015	-0.287
Mof_C 	C 	0.6709	0.9691	0.2272	-0.229
Mof_C 	C 	0.4431	0.6323	0.90663	0.143
Mof_C 	C 	0.5795	0.387	0.8621	0.167
Mof_C 	C 	0.2566	0.798	0.9923	-0.192
Mof_C 	C 	0.426	0.4272	0.3482	-0.208
Mof_C 	C 	0.2899	0.7269	0.8578	0.269
Mof_C 	C 	0.1939	0.1902	0.6577	-0.222
Mof_C 	C 	0.2531	0.1839	0.1663	-0.523
Mof_C 	C 	0.6709	0.0309	0.7728	-0.232
Mof_C 	C 	0.375	0.9437	0.9621	-0.326
Mof_C 	C 	0.4205	0.887	0.6379	0.167
Mof_C 	C 	0.1325	0.2547	0.581	-0.193
Mof_C 	C 	0.5843	0.7856	0.3841	-0.264
Mof_C 	C 	0.1171	0.1684	0.562	0.099
Mof_C 	C 	0.6571	0.149	0.34494	0.149
Mof_C 	C 	0.4243	0.215	0.2369	-0.564
Mof_C 	C 	0.8829	0.3316	0.062	0.098
Mof_C 	C 	0.44	0.9157	0.1757	0.102
Mof_C 	C 	0.8675	0.7547	0.919	-0.194
Mof_C 	C 	0.4743	0.1813	0.2855	0.317
Mof_C 	C 	0.324	0	-0	0.154
Mof_C 	C 	0.625	0.4437	0.5379	-0.358
Mof_C 	C 	0.3355	0.1611	0.2088	0.416
Mof_C 	C 	0.4431	0.3677	0.09337	0.142
Mof_C 	C 	0.8004	0.153	0.64713	-0.263
Mof_C 	C 	0.4912	0.2251	0.47566	0.111
Mof_C 	C 	0.7101	0.2269	0.6422	0.268
Mof_C 	C 	0.1825	0.3586	0.6558	-0.318
Mof_C 	C 	0.9339	0.3317	0.89355	0.439
Mof_C 	C 	0.232	0.5728	0.87572	0.134
Mof_C 	C 	0.56	0.4157	0.3243	0.102
Mof_C 	C 	0.8175	0.1414	0.1558	-0.313
Mof_C 	C 	0.375	0.0563	0.0379	-0.328
Mof_C 	C 	0.768	0.9272	0.37572	0.133
Mof_C 	C 	0.6645	0.6611	0.2912	0.414
Mof_C 	C 	0.5257	0.6813	0.2145	0.317
Mof_C 	C 	0.8675	0.2453	0.081	-0.192
Mof_C 	C 	0.9339	0.6683	0.10645	0.439
Mof_C 	C 	0.3754	0.146	0.31777	-0.297
Mof_C 	C 	0.4903	0.69	0.5037	-0.213
Mof_C 	C 	0.7434	0.702	0.4923	-0.201
Mof_C 	C 	0.4205	0.113	0.3621	0.166
Mof_C 	C 	0.3429	0.649	0.15506	0.15
Mof_C 	C 	0.8061	0.3098	0.1577	-0.22
Mof_C 	C 	0.464	0.453	0.2531	0.119
Mof_C 	C 	0.5795	0.613	0.1379	0.167
Mof_C 	C 	0.3754	0.854	0.68223	-0.296
Mof_C 	C 	0.5088	0.2749	0.97566	0.107
Mof_C 	C 	0.6947	0.0444	0.8218	0.202
Mof_C 	C 	0.4243	0.785	0.7631	-0.561
Mof_C 	C 	0.3823	0.3165	0.80015	-0.287
Mof_C 	C 	0.7101	0.7731	0.3578	0.268
Mof_C 	C 	0.6155	0.3482	0.5125	0.185
Mof_C 	C 	0.5097	0.19	0.9963	-0.203
Mof_C 	C 	0.6246	0.354	0.81777	-0.297
Mof_C 	C 	0.8309	0	0.5	0.508
Mof_C 	C 	0.3291	0.4691	0.2728	-0.231
Mof_C 	C 	0.3845	0.8482	0.9875	0.177
Mof_C 	C 	0.8384	0.0279	0.8455	-0.34
Mof_C 	C 	0.3355	0.8389	0.7912	0.413
Mof_C 	C 	0.56	0.5843	0.6757	0.102
Mof_C 	C 	0.8175	0.8586	0.8442	-0.322
Mof_C 	C 	0.1716	0.2658	0.6307	0.176
Mof_C 	C 	0.3291	0.5309	0.7272	-0.231
Mof_C 	C 	0.6155	0.6518	0.4875	0.185
Mof_C 	C 	0.0661	0.8317	0.60645	0.439
Mof_C 	C 	0.676	0.5	0.5	0.199
Mof_C 	C 	0.3326	0	0.5	0.52
Mof_C 	C 	0.1825	0.6414	0.3442	-0.318
Mof_C 	C 	0.1553	0.4388	0.6265	0.14
Mof_C 	C 	0.6571	0.851	0.65506	0.15
Mof_C 	C 	0.625	0.5563	0.4621	-0.358
Mof_C 	C 	0.574	0.0728	0.8482	-0.209
Mof_C 	C 	0.536	0.047	0.7531	0.119
Mof_C 	C 	0.5569	0.8677	0.40663	0.143
Mof_C 	C 	0.3053	0.5444	0.6782	0.2
Mof_C 	C 	0.536	0.953	0.2469	0.119
Mof_C 	C 	0.1767	0.1072	0.63707	0.112
Mof_C 	C 	0.2899	0.2731	0.1422	0.269
Mof_C 	C 	0.426	0.5728	0.6518	-0.208
Mof_C 	C 	0.5757	0.285	0.7369	-0.562
Mof_C 	C 	0.5757	0.715	0.2631	-0.562
Mof_C 	C 	0.6674	0.5	-0	0.521
Mof_N 	N 	0.6478	0.0633	0.59679	-0.24
Mof_N 	N 	0.863	0.4054	0.09013	-0.227
Mof_N 	N 	0.6141	0.8226	0.52924	-0.231
Mof_N 	N 	0.6478	0.9367	0.40321	-0.238
Mof_N 	N 	0.3859	0.6774	0.02924	-0.23
Mof_N 	N 	0.3522	0.4367	0.09679	-0.239
Mof_N 	N 	0.137	0.9054	0.40987	-0.226
Mof_N 	N 	0.56	0.1128	0.37555	-0.255
Mof_N 	N 	0.4219	0.9268	0.2233	-0.153
Mof_N 	N 	0.6141	0.1774	0.47076	-0.231
Mof_N 	N 	0.3859	0.3226	0.97076	-0.23
Mof_N 	N 	0.863	0.5946	0.90987	-0.227
Mof_N 	N 	0.5781	0.5732	0.7233	-0.153
Mof_N 	N 	0.4219	0.0732	0.7767	-0.154
Mof_N 	N 	0.137	0.0946	0.59013	-0.228
Mof_N 	N 	0.3522	0.5633	0.90321	-0.239
Mof_N 	N 	0.56	0.8872	0.62445	-0.254
Mof_N 	N 	0.44	0.6128	0.12445	-0.254
Mof_N 	N 	0.5781	0.4268	0.2767	-0.153
Mof_N 	N 	0.44	0.3872	0.87555	-0.254
Mof_O 	O 	0.1894	0	0.5	-0.536
Mof_O 	O 	0.0578	0.0871	0.37473	-0.394
Mof_O 	O 	0.8106	0.5	-0	-0.536
Mof_O 	O 	0.3927	0.98052	0.54007	-0.446
Mof_O 	O 	0.0281	0.7628	0.62946	-0.281
Mof_O 	O 	0.1155	0.16884	0.4374	-0.375
Mof_O 	O 	0.6867	0	0.5	-0.525
Mof_O 	O 	0.6073	0.51948	0.04007	-0.449
Mof_O 	O 	0.6073	0.48052	0.95993	-0.447
Mof_O 	O 	0.109	0.53129	0.03764	-0.45
Mof_O 	O 	0.1155	0.83116	0.5626	-0.374
Mof_O 	O 	0.9719	0.7372	0.12946	-0.281
Mof_O 	O 	0.3133	0.5	-0	-0.524
Mof_O 	O 	0.0578	0.9129	0.62527	-0.392
Mof_O 	O 	0.8845	0.66884	0.0626	-0.375
Mof_O 	O 	0.9422	0.5871	0.12527	-0.393
Mof_O 	O 	0.9719	0.2628	0.87054	-0.281
Mof_O 	O 	0.109	0.46871	0.96236	-0.448
Mof_O 	O 	0.8845	0.33116	0.9374	-0.374
Mof_O 	O 	0.9422	0.4129	0.87473	-0.394
Mof_O 	O 	0.891	0.03129	0.46236	-0.451
Mof_O 	O 	0.3927	0.01948	0.45993	-0.449
Mof_O 	O 	0.891	0.96871	0.53764	-0.447
Mof_O 	O 	0.0281	0.2372	0.37054	-0.281
_end
