data_functionalizedCrystal
_audit_creation_method	'EQeq! by Chris Wilmer'
_symmetry_space_group_name_H-M	'P1'
_symmetry_Int_Tables_number	1
_symmetry_cell_setting	triclinic
loop_
_symmetry_equiv_pos_as_xyz
  x,y,z
_cell_length_a	19.4253
_cell_length_b	19.4253
_cell_length_c	21.705
_cell_angle_alpha	64.1789
_cell_angle_beta	64.1789
_cell_angle_gamma	60.6199
loop_
_atom_site_label
_atom_site_type_symbol
_atom_site_fract_x
_atom_site_fract_y
_atom_site_fract_z
_atom_site_charge
Mof_Zn	Zn	0.30204	0.18801	0.3126	1.198
Mof_Zn	Zn	0.26091	0.27532	0.17311	1.198
Mof_Zn	Zn	0.82041	0.26986	0.18076	1.198
Mof_Zn	Zn	0.81199	0.69796	0.1874	1.197
Mof_Zn	Zn	0.72468	0.73909	0.32689	1.197
Mof_Zn	Zn	0.73014	0.17959	0.31924	1.198
Mof_Zn	Zn	0.69796	0.81199	0.6874	1.197
Mof_Zn	Zn	0.73909	0.72468	0.82689	1.197
Mof_Zn	Zn	0.17959	0.73014	0.81924	1.198
Mof_Zn	Zn	0.18801	0.30204	0.8126	1.197
Mof_Zn	Zn	0.27532	0.26091	0.67311	1.197
Mof_Zn	Zn	0.26986	0.82041	0.68076	1.198
Mof_H 	H 	0.1329	0.3783	0.4085	0.06
Mof_H 	H 	0.0397	0.4857	0.2401	0.044
Mof_H 	H 	0.9202	0.579	0.4099	0.065
Mof_H 	H 	0.4141	0.4143	0.0855	0.067
Mof_H 	H 	0.6257	0.4061	0.0891	0.061
Mof_H 	H 	0.5152	0.2514	0.2487	0.045
Mof_H 	H 	0.1362	0.072	0.4014	0.06
Mof_H 	H 	0.9247	0.0741	0.4067	0.065
Mof_H 	H 	0.0466	0.206	0.2303	0.044
Mof_H 	H 	0.6217	0.8671	0.0915	0.06
Mof_H 	H 	0.5143	0.9603	0.2599	0.044
Mof_H 	H 	0.421	0.0798	0.0901	0.065
Mof_H 	H 	0.5857	0.5859	0.4145	0.067
Mof_H 	H 	0.5939	0.3743	0.4109	0.061
Mof_H 	H 	0.7486	0.4848	0.2513	0.045
Mof_H 	H 	0.928	0.8638	0.0986	0.06
Mof_H 	H 	0.9259	0.0753	0.0933	0.065
Mof_H 	H 	0.794	0.9534	0.2697	0.044
Mof_H 	H 	0.8671	0.6217	0.5915	0.06
Mof_H 	H 	0.9603	0.5143	0.7599	0.044
Mof_H 	H 	0.0798	0.421	0.5901	0.065
Mof_H 	H 	0.5859	0.5857	0.9145	0.067
Mof_H 	H 	0.3743	0.5939	0.9109	0.061
Mof_H 	H 	0.4848	0.7486	0.7513	0.045
Mof_H 	H 	0.8638	0.928	0.5986	0.06
Mof_H 	H 	0.0753	0.9259	0.5933	0.065
Mof_H 	H 	0.9534	0.794	0.7697	0.044
Mof_H 	H 	0.3783	0.1329	0.9085	0.06
Mof_H 	H 	0.4857	0.0397	0.7401	0.044
Mof_H 	H 	0.579	0.9202	0.9099	0.065
Mof_H 	H 	0.4143	0.4141	0.5855	0.067
Mof_H 	H 	0.4061	0.6257	0.5891	0.061
Mof_H 	H 	0.2514	0.5152	0.7487	0.045
Mof_H 	H 	0.072	0.1362	0.9014	0.06
Mof_H 	H 	0.0741	0.9247	0.9067	0.065
Mof_H 	H 	0.206	0.0466	0.7303	0.044
Mof_C 	C 	0.1658	0.35658	0.28566	0.39
Mof_C 	C 	0.09561	0.42249	0.31958	-0.086
Mof_C 	C 	0.09144	0.42002	0.3858	-0.043
Mof_C 	C 	0.03562	0.48316	0.28619	0.028
Mof_C 	C 	0.02608	0.47912	0.4191	0.073
Mof_C 	C 	0.96472	0.53916	0.3868	-0.041
Mof_C 	C 	0.96827	0.54123	0.32113	-0.086
Mof_C 	C 	0.90077	0.60537	0.28805	0.385
Mof_C 	C 	0.39031	0.29149	0.20124	0.379
Mof_C 	C 	0.45643	0.32587	0.17049	-0.081
Mof_C 	C 	0.45651	0.39071	0.1077	-0.045
Mof_C 	C 	0.51995	0.42015	0.0785	0.074
Mof_C 	C 	0.5824	0.3858	0.1102	-0.044
Mof_C 	C 	0.58176	0.32188	0.17251	-0.085
Mof_C 	C 	0.51751	0.29299	0.20436	0.024
Mof_C 	C 	0.65068	0.283	0.20563	0.39
Mof_C 	C 	0.16922	0.1774	0.27622	0.382
Mof_C 	C 	0.10081	0.14679	0.31051	-0.088
Mof_C 	C 	0.09488	0.09128	0.3792	-0.044
Mof_C 	C 	0.02985	0.06425	0.415	0.074
Mof_C 	C 	0.96993	0.09173	0.38201	-0.042
Mof_C 	C 	0.97579	0.14411	0.31387	-0.084
Mof_C 	C 	0.04189	0.17089	0.27781	0.03
Mof_C 	C 	0.90818	0.17556	0.2812	0.382
Mof_C 	C 	0.64342	0.8342	0.21434	0.39
Mof_C 	C 	0.57751	0.90439	0.18042	-0.086
Mof_C 	C 	0.57998	0.90856	0.1142	-0.043
Mof_C 	C 	0.51684	0.96438	0.21381	0.028
Mof_C 	C 	0.52088	0.97392	0.0809	0.073
Mof_C 	C 	0.46084	0.03528	0.1132	-0.041
Mof_C 	C 	0.45877	0.03173	0.17887	-0.086
Mof_C 	C 	0.39463	0.09923	0.21195	0.385
Mof_C 	C 	0.70851	0.60969	0.29876	0.379
Mof_C 	C 	0.67413	0.54357	0.32951	-0.081
Mof_C 	C 	0.60929	0.54349	0.3923	-0.045
Mof_C 	C 	0.57985	0.48005	0.4215	0.074
Mof_C 	C 	0.6142	0.4176	0.3898	-0.044
Mof_C 	C 	0.67812	0.41824	0.32749	-0.085
Mof_C 	C 	0.70701	0.48249	0.29564	0.024
Mof_C 	C 	0.717	0.34932	0.29437	0.39
Mof_C 	C 	0.8226	0.83078	0.22378	0.382
Mof_C 	C 	0.85321	0.89919	0.18949	-0.088
Mof_C 	C 	0.90872	0.90512	0.1208	-0.044
Mof_C 	C 	0.93575	0.97015	0.085	0.075
Mof_C 	C 	0.90827	0.03007	0.11799	-0.042
Mof_C 	C 	0.85589	0.02421	0.18613	-0.084
Mof_C 	C 	0.82911	0.95811	0.22219	0.03
Mof_C 	C 	0.82444	0.09182	0.2188	0.382
Mof_C 	C 	0.8342	0.64342	0.71434	0.39
Mof_C 	C 	0.90439	0.57751	0.68042	-0.086
Mof_C 	C 	0.90856	0.57998	0.6142	-0.043
Mof_C 	C 	0.96438	0.51684	0.71381	0.028
Mof_C 	C 	0.97392	0.52088	0.5809	0.073
Mof_C 	C 	0.03528	0.46084	0.6132	-0.041
Mof_C 	C 	0.03173	0.45877	0.67887	-0.086
Mof_C 	C 	0.09923	0.39463	0.71195	0.385
Mof_C 	C 	0.60969	0.70851	0.79876	0.379
Mof_C 	C 	0.54357	0.67413	0.82951	-0.081
Mof_C 	C 	0.54349	0.60929	0.8923	-0.045
Mof_C 	C 	0.48005	0.57985	0.9215	0.074
Mof_C 	C 	0.4176	0.6142	0.8898	-0.044
Mof_C 	C 	0.41824	0.67812	0.82749	-0.085
Mof_C 	C 	0.48249	0.70701	0.79564	0.024
Mof_C 	C 	0.34932	0.717	0.79437	0.39
Mof_C 	C 	0.83078	0.8226	0.72378	0.382
Mof_C 	C 	0.89919	0.85321	0.68949	-0.088
Mof_C 	C 	0.90512	0.90872	0.6208	-0.044
Mof_C 	C 	0.97015	0.93575	0.585	0.074
Mof_C 	C 	0.03007	0.90827	0.61799	-0.042
Mof_C 	C 	0.02421	0.85589	0.68613	-0.084
Mof_C 	C 	0.95811	0.82911	0.72219	0.03
Mof_C 	C 	0.09182	0.82444	0.7188	0.382
Mof_C 	C 	0.35658	0.1658	0.78566	0.39
Mof_C 	C 	0.42249	0.09561	0.81958	-0.086
Mof_C 	C 	0.42002	0.09144	0.8858	-0.043
Mof_C 	C 	0.48316	0.03562	0.78619	0.028
Mof_C 	C 	0.47912	0.02608	0.9191	0.073
Mof_C 	C 	0.53916	0.96472	0.8868	-0.041
Mof_C 	C 	0.54123	0.96827	0.82113	-0.086
Mof_C 	C 	0.60537	0.90077	0.78805	0.385
Mof_C 	C 	0.29149	0.39031	0.70124	0.379
Mof_C 	C 	0.32587	0.45643	0.67049	-0.081
Mof_C 	C 	0.39071	0.45651	0.6077	-0.045
Mof_C 	C 	0.42015	0.51995	0.5785	0.074
Mof_C 	C 	0.3858	0.5824	0.6102	-0.044
Mof_C 	C 	0.32188	0.58176	0.67251	-0.085
Mof_C 	C 	0.29299	0.51751	0.70436	0.024
Mof_C 	C 	0.283	0.65068	0.70563	0.39
Mof_C 	C 	0.1774	0.16922	0.77622	0.382
Mof_C 	C 	0.14679	0.10081	0.81051	-0.088
Mof_C 	C 	0.09128	0.09488	0.8792	-0.044
Mof_C 	C 	0.06425	0.02985	0.915	0.075
Mof_C 	C 	0.09173	0.96993	0.88201	-0.042
Mof_C 	C 	0.14411	0.97579	0.81387	-0.084
Mof_C 	C 	0.17089	0.04189	0.77781	0.03
Mof_C 	C 	0.17556	0.90818	0.7812	0.382
Mof_N 	N 	0.02841	0.47321	0.4863	-0.086
Mof_N 	N 	0.52597	0.48697	0.0144	-0.085
Mof_N 	N 	0.02991	0.00951	0.48479	-0.087
Mof_N 	N 	0.52679	0.97159	0.0137	-0.086
Mof_N 	N 	0.51303	0.47403	0.4856	-0.085
Mof_N 	N 	0.99049	0.97009	0.01521	-0.086
Mof_N 	N 	0.97159	0.52679	0.5137	-0.086
Mof_N 	N 	0.47403	0.51303	0.9856	-0.085
Mof_N 	N 	0.97009	0.99049	0.51521	-0.087
Mof_N 	N 	0.47321	0.02841	0.9863	-0.086
Mof_N 	N 	0.48697	0.52597	0.5144	-0.085
Mof_N 	N 	0.00951	0.02991	0.98479	-0.086
Mof_O 	O 	0.21384	0.30038	0.32225	-0.483
Mof_O 	O 	0.17008	0.36142	0.22461	-0.466
Mof_O 	O 	0.91083	0.61267	0.22442	-0.461
Mof_O 	O 	0.83751	0.64577	0.32779	-0.488
Mof_O 	O 	0.38769	0.23879	0.26237	-0.469
Mof_O 	O 	0.34375	0.31701	0.16359	-0.479
Mof_O 	O 	0.21094	0.1609	0.3151	-0.486
Mof_O 	O 	0.17786	0.2212	0.21148	-0.458
Mof_O 	O 	0.70829	0.30947	0.1707	-0.49
Mof_O 	O 	0.64636	0.22726	0.26408	-0.464
Mof_O 	O 	0.91975	0.21669	0.21621	-0.466
Mof_O 	O 	0.84467	0.15943	0.32134	-0.479
Mof_O 	O 	0.69962	0.78616	0.17775	-0.483
Mof_O 	O 	0.63858	0.82992	0.27539	-0.466
Mof_O 	O 	0.38733	0.08917	0.27558	-0.461
Mof_O 	O 	0.35423	0.16249	0.17221	-0.488
Mof_O 	O 	0.76121	0.61231	0.23763	-0.469
Mof_O 	O 	0.68299	0.65625	0.33641	-0.479
Mof_O 	O 	0.8391	0.78906	0.1849	-0.485
Mof_O 	O 	0.7788	0.82214	0.28852	-0.458
Mof_O 	O 	0.69053	0.29171	0.3293	-0.49
Mof_O 	O 	0.77274	0.35364	0.23592	-0.464
Mof_O 	O 	0.78331	0.08025	0.28379	-0.466
Mof_O 	O 	0.84057	0.15533	0.17866	-0.479
Mof_O 	O 	0.78616	0.69962	0.67775	-0.483
Mof_O 	O 	0.82992	0.63858	0.77539	-0.466
Mof_O 	O 	0.08917	0.38733	0.77558	-0.461
Mof_O 	O 	0.16249	0.35423	0.67221	-0.488
Mof_O 	O 	0.61231	0.76121	0.73763	-0.469
Mof_O 	O 	0.65625	0.68299	0.83641	-0.479
Mof_O 	O 	0.78906	0.8391	0.6849	-0.486
Mof_O 	O 	0.82214	0.7788	0.78852	-0.458
Mof_O 	O 	0.29171	0.69053	0.8293	-0.49
Mof_O 	O 	0.35364	0.77274	0.73592	-0.464
Mof_O 	O 	0.08025	0.78331	0.78379	-0.466
Mof_O 	O 	0.15533	0.84057	0.67866	-0.479
Mof_O 	O 	0.30038	0.21384	0.82225	-0.483
Mof_O 	O 	0.36142	0.17008	0.72461	-0.466
Mof_O 	O 	0.61267	0.91083	0.72442	-0.461
Mof_O 	O 	0.64577	0.83751	0.82779	-0.488
Mof_O 	O 	0.23879	0.38769	0.76237	-0.469
Mof_O 	O 	0.31701	0.34375	0.66359	-0.479
Mof_O 	O 	0.1609	0.21094	0.8151	-0.485
Mof_O 	O 	0.2212	0.17786	0.71148	-0.458
Mof_O 	O 	0.30947	0.70829	0.6707	-0.49
Mof_O 	O 	0.22726	0.64636	0.76408	-0.464
Mof_O 	O 	0.21669	0.91975	0.71621	-0.466
Mof_O 	O 	0.15943	0.84467	0.82134	-0.479
_end
