data_functionalizedCrystal
_audit_creation_method	'EQeq! by Chris Wilmer'
_symmetry_space_group_name_H-M	'P1'
_symmetry_Int_Tables_number	1
_symmetry_cell_setting	triclinic
loop_
_symmetry_equiv_pos_as_xyz
  x,y,z
_cell_length_a	9.9144
_cell_length_b	14.4414
_cell_length_c	14.9785
_cell_angle_alpha	90
_cell_angle_beta	98.887
_cell_angle_gamma	90
loop_
_atom_site_label
_atom_site_type_symbol
_atom_site_fract_x
_atom_site_fract_y
_atom_site_fract_z
_atom_site_charge
Mof_Zn	Zn	0.34068	0.74059	0.99796	1.236
Mof_Zn	Zn	0.31511	0.62062	0.37396	1.231
Mof_Zn	Zn	0.20854	0.41675	0.18358	1.234
Mof_P 	P 	0.2529	0.91561	0.09966	0.439
Mof_H 	H 	0.144	0.858	0.1055	-0.052
Mof_P 	P 	0.29	0.6229	0.16588	0.451
Mof_H 	H 	0.21	0.689	0.1771	-0.079
Mof_P 	P 	0.0233	0.71399	0.94175	0.469
Mof_H 	H 	0.038	0.677	0.027	-0.039
Mof_P 	P 	0.6008	0.72572	0.88969	0.442
Mof_H 	H 	0.688	0.7081	0.973	-0.059
Mof_O 	O 	0.34	0.869	0.0372	-0.415
Mof_O 	O 	0.1662	0.7252	0.9182	-0.417
Mof_O 	O 	0.3776	0.6559	0.0971	-0.441
Mof_O 	O 	0.4556	0.7195	0.9084	-0.418
Mof_O 	O 	0.3796	0.6061	0.2571	-0.445
Mof_O 	O 	0.1957	0.0063	0.0604	-0.428
Mof_O 	O 	0.6332	0.8224	0.8591	-0.435
Mof_O 	O 	0.9503	0.8045	0.9452	-0.458
Mof_O 	O 	0.2024	0.5413	0.1342	-0.448
Mof_O 	O 	0.6256	0.65	0.8243	-0.446
Mof_O 	O 	0.3319	0.9262	0.1946	-0.458
Mof_O 	O 	0.9472	0.6447	0.8803	-0.459
Mof_Zn	Zn	0.15932	0.24059	0.50204	1.235
Mof_Zn	Zn	0.18489	0.12062	0.12604	1.23
Mof_Zn	Zn	0.29146	0.91675	0.31642	1.234
Mof_P 	P 	0.2471	0.41561	0.40034	0.439
Mof_H 	H 	0.356	0.358	0.3945	-0.053
Mof_P 	P 	0.21	0.1229	0.33412	0.451
Mof_H 	H 	0.29	0.189	0.3229	-0.079
Mof_P 	P 	0.4767	0.21399	0.55825	0.481
Mof_H 	H 	0.462	0.177	0.473	-0.043
Mof_P 	P 	0.8992	0.22572	0.61031	0.44
Mof_H 	H 	0.812	0.2081	0.527	-0.061
Mof_O 	O 	0.16	0.369	0.4628	-0.416
Mof_O 	O 	0.3338	0.2252	0.5818	-0.417
Mof_O 	O 	0.1224	0.1559	0.4029	-0.441
Mof_O 	O 	0.0444	0.2195	0.5916	-0.416
Mof_O 	O 	0.1204	0.1061	0.2429	-0.444
Mof_O 	O 	0.3043	0.5063	0.4396	-0.429
Mof_O 	O 	0.8668	0.3224	0.6409	-0.435
Mof_O 	O 	0.5497	0.3045	0.5548	-0.463
Mof_O 	O 	0.2976	0.0413	0.3658	-0.449
Mof_O 	O 	0.8744	0.15	0.6757	-0.446
Mof_O 	O 	0.1681	0.4262	0.3054	-0.458
Mof_O 	O 	0.5528	0.1447	0.6197	-0.464
Mof_Zn	Zn	0.65932	0.25941	0.00204	1.235
Mof_Zn	Zn	0.68489	0.37938	0.62604	1.23
Mof_Zn	Zn	0.79146	0.58325	0.81642	1.234
Mof_P 	P 	0.7471	0.08439	0.90034	0.439
Mof_H 	H 	0.856	0.142	0.8945	-0.052
Mof_P 	P 	0.71	0.3771	0.83412	0.451
Mof_H 	H 	0.79	0.311	0.8229	-0.079
Mof_P 	P 	0.9767	0.28601	0.05825	0.469
Mof_H 	H 	0.962	0.323	0.973	-0.039
Mof_P 	P 	0.3992	0.27428	0.11031	0.442
Mof_H 	H 	0.312	0.2919	0.027	-0.059
Mof_O 	O 	0.66	0.131	0.9628	-0.415
Mof_O 	O 	0.8338	0.2748	0.0818	-0.417
Mof_O 	O 	0.6224	0.3441	0.9029	-0.441
Mof_O 	O 	0.5444	0.2805	0.0916	-0.418
Mof_O 	O 	0.6204	0.3939	0.7429	-0.445
Mof_O 	O 	0.8043	0.9937	0.9396	-0.428
Mof_O 	O 	0.3668	0.1776	0.1409	-0.435
Mof_O 	O 	0.0497	0.1955	0.0548	-0.458
Mof_O 	O 	0.7976	0.4587	0.8658	-0.448
Mof_O 	O 	0.3744	0.35	0.1757	-0.446
Mof_O 	O 	0.6681	0.0738	0.8054	-0.458
Mof_O 	O 	0.0528	0.3553	0.1197	-0.459
Mof_Zn	Zn	0.84068	0.75941	0.49796	1.235
Mof_Zn	Zn	0.81511	0.87938	0.87396	1.23
Mof_Zn	Zn	0.70854	0.08325	0.68358	1.234
Mof_P 	P 	0.7529	0.58439	0.59966	0.439
Mof_H 	H 	0.644	0.642	0.6055	-0.053
Mof_P 	P 	0.79	0.8771	0.66588	0.451
Mof_H 	H 	0.71	0.811	0.6771	-0.079
Mof_P 	P 	0.5233	0.78601	0.44175	0.481
Mof_H 	H 	0.538	0.823	0.527	-0.043
Mof_P 	P 	0.1008	0.77428	0.38969	0.44
Mof_H 	H 	0.188	0.7919	0.473	-0.061
Mof_O 	O 	0.84	0.631	0.5372	-0.416
Mof_O 	O 	0.6662	0.7748	0.4182	-0.417
Mof_O 	O 	0.8776	0.8441	0.5971	-0.441
Mof_O 	O 	0.9556	0.7805	0.4084	-0.416
Mof_O 	O 	0.8796	0.8939	0.7571	-0.444
Mof_O 	O 	0.6957	0.4937	0.5604	-0.429
Mof_O 	O 	0.1332	0.6776	0.3591	-0.435
Mof_O 	O 	0.4503	0.6955	0.4452	-0.463
Mof_O 	O 	0.7024	0.9587	0.6342	-0.449
Mof_O 	O 	0.1256	0.85	0.3243	-0.446
Mof_O 	O 	0.8319	0.5738	0.6946	-0.458
Mof_O 	O 	0.4472	0.8553	0.3803	-0.464
_end
