data_functionalizedCrystal
_audit_creation_method	'EQeq! by Chris Wilmer'
_symmetry_space_group_name_H-M	'P1'
_symmetry_Int_Tables_number	1
_symmetry_cell_setting	triclinic
loop_
_symmetry_equiv_pos_as_xyz
  x,y,z
_cell_length_a	23.5849
_cell_length_b	15.7031
_cell_length_c	16.1371
_cell_angle_alpha	90
_cell_angle_beta	124.274
_cell_angle_gamma	90
loop_
_atom_site_label
_atom_site_type_symbol
_atom_site_fract_x
_atom_site_fract_y
_atom_site_fract_z
_atom_site_charge
Mof_Eu	Eu	0.81039	0.32798	0.6219	2.106
Mof_C 	C 	0.1301	0.9619	0.3249	-0.183
Mof_C 	C 	0.1418	0.0444	0.3614	0.043
Mof_H 	H 	0.1787	0.0556	0.4286	0.038
Mof_C 	C 	0.1002	0.1108	0.3008	-0.019
Mof_C 	C 	0.046	0.0948	0.2019	0.188
Mof_C 	C 	0.0329	0.0124	0.1668	-0.201
Mof_H 	H 	0.9949	0.0009	0.1004	0.108
Mof_C 	C 	0.0741	0.9466	0.2266	0.114
Mof_H 	H 	0.0646	0.8902	0.2009	0.004
Mof_C 	C 	0.0188	0.1911	0.0737	0.179
Mof_C 	C 	0.9659	0.2279	0.9861	-0.121
Mof_H 	H 	0.921	0.2302	0.972	0.111
Mof_C 	C 	0.9788	0.2616	0.9184	-0.033
Mof_C 	C 	0.0448	0.2587	0.9394	0.003
Mof_H 	H 	0.0535	0.2803	0.8926	0.016
Mof_C 	C 	0.0977	0.2237	0.0297	-0.093
Mof_C 	C 	0.0845	0.1888	0.0959	-0.099
Mof_H 	H 	0.1206	0.1633	0.1565	0.089
Mof_C 	C 	0.1773	0.8908	0.3885	0.5
Mof_C 	C 	0.9203	0.2974	0.8207	0.297
Mof_C 	C 	0.1707	0.223	0.0592	0.437
Mof_N 	N 	0.1166	0.1961	0.3438	0.013
Mof_O 	O 	0.1692	0.8217	0.3446	-0.52
Mof_O 	O 	0.2214	0.9068	0.4795	-0.555
Mof_O 	O 	0.1522	0.2022	0.4352	-0.115
Mof_O 	O 	0.094	0.2571	0.2878	-0.109
Mof_O 	O 	0.21398	0.1823	0.1357	-0.494
Mof_O 	O 	0.18614	0.2619	0.0062	-0.619
Mof_O 	O 	0.93167	0.3224	0.7567	-0.466
Mof_O 	O 	0.86179	0.3002	0.8043	-0.411
Mof_O 	O 	0.00255	0.1583	0.1378	-0.224
Mof_Eu	Eu	0.31039	0.82798	0.6219	2.106
Mof_C 	C 	0.6301	0.4619	0.3249	-0.183
Mof_C 	C 	0.6418	0.5444	0.3614	0.045
Mof_H 	H 	0.6787	0.5556	0.4286	0.038
Mof_C 	C 	0.6002	0.6108	0.3008	-0.019
Mof_C 	C 	0.546	0.5948	0.2019	0.19
Mof_C 	C 	0.5329	0.5124	0.1668	-0.203
Mof_H 	H 	0.4949	0.5009	0.1004	0.112
Mof_C 	C 	0.5741	0.4466	0.2266	0.115
Mof_H 	H 	0.5646	0.3902	0.2009	0.005
Mof_C 	C 	0.5188	0.6911	0.0737	0.184
Mof_C 	C 	0.4659	0.7279	0.9861	-0.125
Mof_H 	H 	0.421	0.7302	0.972	0.112
Mof_C 	C 	0.4788	0.7616	0.9184	-0.031
Mof_C 	C 	0.5448	0.7587	0.9394	0.001
Mof_H 	H 	0.5535	0.7803	0.8926	0.018
Mof_C 	C 	0.5977	0.7237	0.0297	-0.089
Mof_C 	C 	0.5845	0.6888	0.0959	-0.1
Mof_H 	H 	0.6206	0.6633	0.1565	0.091
Mof_C 	C 	0.6773	0.3908	0.3885	0.502
Mof_C 	C 	0.4203	0.7974	0.8207	0.296
Mof_C 	C 	0.6707	0.723	0.0592	0.436
Mof_N 	N 	0.6166	0.6961	0.3438	0.014
Mof_O 	O 	0.6692	0.3217	0.3446	-0.52
Mof_O 	O 	0.7214	0.4068	0.4795	-0.555
Mof_O 	O 	0.6522	0.7022	0.4352	-0.115
Mof_O 	O 	0.594	0.7571	0.2878	-0.109
Mof_O 	O 	0.71398	0.6823	0.1357	-0.494
Mof_O 	O 	0.68614	0.7619	0.0062	-0.617
Mof_O 	O 	0.43167	0.8224	0.7567	-0.466
Mof_O 	O 	0.36179	0.8002	0.8043	-0.411
Mof_O 	O 	0.50255	0.6583	0.1378	-0.225
Mof_Eu	Eu	0.18961	0.32798	0.8781	2.106
Mof_C 	C 	0.8699	0.9619	0.1751	-0.181
Mof_C 	C 	0.8582	0.0444	0.1386	0.042
Mof_H 	H 	0.8213	0.0556	0.0714	0.038
Mof_C 	C 	0.8998	0.1108	0.1992	-0.019
Mof_C 	C 	0.954	0.0948	0.2981	0.191
Mof_C 	C 	0.9671	0.0124	0.3332	-0.207
Mof_H 	H 	0.0051	0.0009	0.3996	0.114
Mof_C 	C 	0.9259	0.9466	0.2734	0.118
Mof_H 	H 	0.9354	0.8902	0.2991	0.004
Mof_C 	C 	0.9812	0.1911	0.4263	0.181
Mof_C 	C 	0.0341	0.2279	0.5139	-0.121
Mof_H 	H 	0.079	0.2302	0.528	0.112
Mof_C 	C 	0.0212	0.2616	0.5816	-0.033
Mof_C 	C 	0.9552	0.2587	0.5606	0.004
Mof_H 	H 	0.9465	0.2803	0.6074	0.017
Mof_C 	C 	0.9023	0.2237	0.4703	-0.092
Mof_C 	C 	0.9155	0.1888	0.4041	-0.098
Mof_H 	H 	0.8794	0.1633	0.3435	0.09
Mof_C 	C 	0.8227	0.8908	0.1115	0.501
Mof_C 	C 	0.0797	0.2974	0.6793	0.297
Mof_C 	C 	0.8293	0.223	0.4408	0.437
Mof_N 	N 	0.8834	0.1961	0.1562	0.014
Mof_O 	O 	0.8308	0.8217	0.1554	-0.52
Mof_O 	O 	0.7786	0.9068	0.0205	-0.554
Mof_O 	O 	0.8478	0.2022	0.0648	-0.117
Mof_O 	O 	0.906	0.2571	0.2122	-0.11
Mof_O 	O 	0.78602	0.1823	0.3643	-0.495
Mof_O 	O 	0.81386	0.2619	0.4938	-0.618
Mof_O 	O 	0.06833	0.3224	0.7433	-0.467
Mof_O 	O 	0.13821	0.3002	0.6957	-0.411
Mof_O 	O 	0.99745	0.1583	0.3622	-0.225
Mof_Eu	Eu	0.68961	0.82798	0.8781	2.104
Mof_C 	C 	0.3699	0.4619	0.1751	-0.183
Mof_C 	C 	0.3582	0.5444	0.1386	0.045
Mof_H 	H 	0.3213	0.5556	0.0714	0.039
Mof_C 	C 	0.3998	0.6108	0.1992	-0.018
Mof_C 	C 	0.454	0.5948	0.2981	0.19
Mof_C 	C 	0.4671	0.5124	0.3332	-0.203
Mof_H 	H 	0.5051	0.5009	0.3996	0.112
Mof_C 	C 	0.4259	0.4466	0.2734	0.115
Mof_H 	H 	0.4354	0.3902	0.2991	0.005
Mof_C 	C 	0.4812	0.6911	0.4263	0.181
Mof_C 	C 	0.5341	0.7279	0.5139	-0.122
Mof_H 	H 	0.579	0.7302	0.528	0.112
Mof_C 	C 	0.5212	0.7616	0.5816	-0.033
Mof_C 	C 	0.4552	0.7587	0.5606	0.004
Mof_H 	H 	0.4465	0.7803	0.6074	0.017
Mof_C 	C 	0.4023	0.7237	0.4703	-0.091
Mof_C 	C 	0.4155	0.6888	0.4041	-0.098
Mof_H 	H 	0.3794	0.6633	0.3435	0.091
Mof_C 	C 	0.3227	0.3908	0.1115	0.502
Mof_C 	C 	0.5797	0.7974	0.6793	0.297
Mof_C 	C 	0.3293	0.723	0.4408	0.437
Mof_N 	N 	0.3834	0.6961	0.1562	0.014
Mof_O 	O 	0.3308	0.3217	0.1554	-0.52
Mof_O 	O 	0.2786	0.4068	0.0205	-0.555
Mof_O 	O 	0.3478	0.7022	0.0648	-0.115
Mof_O 	O 	0.406	0.7571	0.2122	-0.109
Mof_O 	O 	0.28602	0.6823	0.3643	-0.494
Mof_O 	O 	0.31386	0.7619	0.4938	-0.618
Mof_O 	O 	0.56833	0.8224	0.7433	-0.466
Mof_O 	O 	0.63821	0.8002	0.6957	-0.411
Mof_O 	O 	0.49745	0.6583	0.3622	-0.224
Mof_Eu	Eu	0.18961	0.67202	0.3781	2.107
Mof_C 	C 	0.8699	0.0381	0.6751	-0.182
Mof_C 	C 	0.8582	0.9556	0.6386	0.044
Mof_H 	H 	0.8213	0.9444	0.5714	0.039
Mof_C 	C 	0.8998	0.8892	0.6992	-0.018
Mof_C 	C 	0.954	0.9052	0.7981	0.189
Mof_C 	C 	0.9671	0.9876	0.8332	-0.2
Mof_H 	H 	0.0051	0.9991	0.8996	0.109
Mof_C 	C 	0.9259	0.0534	0.7734	0.115
Mof_H 	H 	0.9354	0.1098	0.7991	0.005
Mof_C 	C 	0.9812	0.8089	0.9263	0.18
Mof_C 	C 	0.0341	0.7721	0.0139	-0.12
Mof_H 	H 	0.079	0.7698	0.028	0.112
Mof_C 	C 	0.0212	0.7384	0.0816	-0.032
Mof_C 	C 	0.9552	0.7413	0.0606	0.004
Mof_H 	H 	0.9465	0.7197	0.1074	0.017
Mof_C 	C 	0.9023	0.7763	0.9703	-0.092
Mof_C 	C 	0.9155	0.8112	0.9041	-0.098
Mof_H 	H 	0.8794	0.8367	0.8435	0.09
Mof_C 	C 	0.8227	0.1092	0.6115	0.501
Mof_C 	C 	0.0797	0.7026	0.1793	0.297
Mof_C 	C 	0.8293	0.777	0.9408	0.437
Mof_N 	N 	0.8834	0.8039	0.6562	0.013
Mof_O 	O 	0.8308	0.1783	0.6554	-0.52
Mof_O 	O 	0.7786	0.0932	0.5205	-0.555
Mof_O 	O 	0.8478	0.7978	0.5648	-0.115
Mof_O 	O 	0.906	0.7429	0.7122	-0.109
Mof_O 	O 	0.78602	0.8177	0.8643	-0.494
Mof_O 	O 	0.81386	0.7381	0.9938	-0.619
Mof_O 	O 	0.06833	0.6776	0.2433	-0.466
Mof_O 	O 	0.13821	0.6998	0.1957	-0.411
Mof_O 	O 	0.99745	0.8417	0.8622	-0.224
Mof_Eu	Eu	0.68961	0.17202	0.3781	2.106
Mof_C 	C 	0.3699	0.5381	0.6751	-0.183
Mof_C 	C 	0.3582	0.4556	0.6386	0.045
Mof_H 	H 	0.3213	0.4444	0.5714	0.038
Mof_C 	C 	0.3998	0.3892	0.6992	-0.019
Mof_C 	C 	0.454	0.4052	0.7981	0.19
Mof_C 	C 	0.4671	0.4876	0.8332	-0.203
Mof_H 	H 	0.5051	0.4991	0.8996	0.112
Mof_C 	C 	0.4259	0.5534	0.7734	0.115
Mof_H 	H 	0.4354	0.6098	0.7991	0.005
Mof_C 	C 	0.4812	0.3089	0.9263	0.184
Mof_C 	C 	0.5341	0.2721	0.0139	-0.125
Mof_H 	H 	0.579	0.2698	0.028	0.112
Mof_C 	C 	0.5212	0.2384	0.0816	-0.031
Mof_C 	C 	0.4552	0.2413	0.0606	0.001
Mof_H 	H 	0.4465	0.2197	0.1074	0.018
Mof_C 	C 	0.4023	0.2763	0.9703	-0.089
Mof_C 	C 	0.4155	0.3112	0.9041	-0.1
Mof_H 	H 	0.3794	0.3367	0.8435	0.091
Mof_C 	C 	0.3227	0.6092	0.6115	0.502
Mof_C 	C 	0.5797	0.2026	0.1793	0.296
Mof_C 	C 	0.3293	0.277	0.9408	0.436
Mof_N 	N 	0.3834	0.3039	0.6562	0.014
Mof_O 	O 	0.3308	0.6783	0.6554	-0.52
Mof_O 	O 	0.2786	0.5932	0.5205	-0.555
Mof_O 	O 	0.3478	0.2978	0.5648	-0.115
Mof_O 	O 	0.406	0.2429	0.7122	-0.109
Mof_O 	O 	0.28602	0.3177	0.8643	-0.494
Mof_O 	O 	0.31386	0.2381	0.9938	-0.617
Mof_O 	O 	0.56833	0.1776	0.2433	-0.466
Mof_O 	O 	0.63821	0.1998	0.1957	-0.411
Mof_O 	O 	0.49745	0.3417	0.8622	-0.225
Mof_Eu	Eu	0.81039	0.67202	0.1219	2.106
Mof_C 	C 	0.1301	0.0381	0.8249	-0.181
Mof_C 	C 	0.1418	0.9556	0.8614	0.042
Mof_H 	H 	0.1787	0.9444	0.9286	0.038
Mof_C 	C 	0.1002	0.8892	0.8008	-0.019
Mof_C 	C 	0.046	0.9052	0.7019	0.191
Mof_C 	C 	0.0329	0.9876	0.6668	-0.207
Mof_H 	H 	0.9949	0.9991	0.6004	0.114
Mof_C 	C 	0.0741	0.0534	0.7266	0.118
Mof_H 	H 	0.0646	0.1098	0.7009	0.004
Mof_C 	C 	0.0188	0.8089	0.5737	0.181
Mof_C 	C 	0.9659	0.7721	0.4861	-0.121
Mof_H 	H 	0.921	0.7698	0.472	0.112
Mof_C 	C 	0.9788	0.7384	0.4184	-0.033
Mof_C 	C 	0.0448	0.7413	0.4394	0.004
Mof_H 	H 	0.0535	0.7197	0.3926	0.017
Mof_C 	C 	0.0977	0.7763	0.5297	-0.092
Mof_C 	C 	0.0845	0.8112	0.5959	-0.098
Mof_H 	H 	0.1206	0.8367	0.6565	0.09
Mof_C 	C 	0.1773	0.1092	0.8885	0.501
Mof_C 	C 	0.9203	0.7026	0.3207	0.297
Mof_C 	C 	0.1707	0.777	0.5592	0.437
Mof_N 	N 	0.1166	0.8039	0.8438	0.014
Mof_O 	O 	0.1692	0.1783	0.8446	-0.52
Mof_O 	O 	0.2214	0.0932	0.9795	-0.554
Mof_O 	O 	0.1522	0.7978	0.9352	-0.117
Mof_O 	O 	0.094	0.7429	0.7878	-0.11
Mof_O 	O 	0.21398	0.8177	0.6357	-0.495
Mof_O 	O 	0.18614	0.7381	0.5062	-0.618
Mof_O 	O 	0.93167	0.6776	0.2567	-0.467
Mof_O 	O 	0.86179	0.6998	0.3043	-0.411
Mof_O 	O 	0.00255	0.8417	0.6378	-0.225
Mof_Eu	Eu	0.31039	0.17202	0.1219	2.104
Mof_C 	C 	0.6301	0.5381	0.8249	-0.183
Mof_C 	C 	0.6418	0.4556	0.8614	0.045
Mof_H 	H 	0.6787	0.4444	0.9286	0.039
Mof_C 	C 	0.6002	0.3892	0.8008	-0.018
Mof_C 	C 	0.546	0.4052	0.7019	0.19
Mof_C 	C 	0.5329	0.4876	0.6668	-0.203
Mof_H 	H 	0.4949	0.4991	0.6004	0.112
Mof_C 	C 	0.5741	0.5534	0.7266	0.115
Mof_H 	H 	0.5646	0.6098	0.7009	0.005
Mof_C 	C 	0.5188	0.3089	0.5737	0.181
Mof_C 	C 	0.4659	0.2721	0.4861	-0.122
Mof_H 	H 	0.421	0.2698	0.472	0.112
Mof_C 	C 	0.4788	0.2384	0.4184	-0.033
Mof_C 	C 	0.5448	0.2413	0.4394	0.004
Mof_H 	H 	0.5535	0.2197	0.3926	0.017
Mof_C 	C 	0.5977	0.2763	0.5297	-0.091
Mof_C 	C 	0.5845	0.3112	0.5959	-0.098
Mof_H 	H 	0.6206	0.3367	0.6565	0.091
Mof_C 	C 	0.6773	0.6092	0.8885	0.502
Mof_C 	C 	0.4203	0.2026	0.3207	0.297
Mof_C 	C 	0.6707	0.277	0.5592	0.437
Mof_N 	N 	0.6166	0.3039	0.8438	0.014
Mof_O 	O 	0.6692	0.6783	0.8446	-0.52
Mof_O 	O 	0.7214	0.5932	0.9795	-0.555
Mof_O 	O 	0.6522	0.2978	0.9352	-0.115
Mof_O 	O 	0.594	0.2429	0.7878	-0.109
Mof_O 	O 	0.71398	0.3177	0.6357	-0.494
Mof_O 	O 	0.68614	0.2381	0.5062	-0.618
Mof_O 	O 	0.43167	0.1776	0.2567	-0.466
Mof_O 	O 	0.36179	0.1998	0.3043	-0.411
Mof_O 	O 	0.50255	0.3417	0.6378	-0.224
_end
