data_functionalizedCrystal
_audit_creation_method	'EQeq! by Chris Wilmer'
_symmetry_space_group_name_H-M	'P1'
_symmetry_Int_Tables_number	1
_symmetry_cell_setting	triclinic
loop_
_symmetry_equiv_pos_as_xyz
  x,y,z
_cell_length_a	10.59
_cell_length_b	22.787
_cell_length_c	27.675
_cell_angle_alpha	107.79
_cell_angle_beta	90
_cell_angle_gamma	90
loop_
_atom_site_label
_atom_site_type_symbol
_atom_site_fract_x
_atom_site_fract_y
_atom_site_fract_z
_atom_site_charge
Mof_Co	Co	0.80335	0.85206	0.1488	1.185
Mof_Co	Co	0.19665	0.14794	0.8512	1.185
Mof_Co	Co	0.40889	0.22256	0.93438	1.171
Mof_Co	Co	0.66076	0.64747	0.26855	1.18
Mof_Co	Co	0.58475	0.71125	0.83288	1.185
Mof_Co	Co	0.59111	0.77744	0.06562	1.171
Mof_Co	Co	0.69665	0.85206	0.6488	1.185
Mof_Co	Co	0.69044	0.69886	0.14175	1.191
Mof_Co	Co	0.29164	0.21948	0.24343	1.18
Mof_Co	Co	0.20836	0.21948	0.74343	1.18
Mof_Co	Co	0.79164	0.78052	0.25657	1.18
Mof_Co	Co	0.91525	0.71125	0.33288	1.185
Mof_Co	Co	0.83924	0.64747	0.76855	1.181
Mof_Co	Co	0.19044	0.30114	0.35825	1.192
Mof_Co	Co	0.33924	0.35253	0.73145	1.181
Mof_Co	Co	0.90889	0.77744	0.56562	1.172
Mof_Co	Co	0.80956	0.69886	0.64175	1.192
Mof_Co	Co	0.09111	0.22256	0.43438	1.172
Mof_Co	Co	0.30956	0.30114	0.85825	1.192
Mof_Co	Co	0.41525	0.28875	0.16712	1.186
Mof_Co	Co	0.30335	0.14794	0.3512	1.186
Mof_Co	Co	0.70836	0.78052	0.75657	1.181
Mof_Co	Co	0.08475	0.28875	0.66712	1.186
Mof_Co	Co	0.16076	0.35253	0.23145	1.181
Mof_H 	H 	0.8308	0.4104	0.3924	0.024
Mof_H 	H 	0.6196	0.0587	0.9273	0.028
Mof_H 	H 	0.578	0.47	0.1724	0.048
Mof_H 	H 	0.9347	0.4673	0.0404	0.081
Mof_H 	H 	0.5347	0.8879	0.3809	0.029
Mof_H 	H 	0.508	0.0686	0.4682	0.022
Mof_H 	H 	0.235	0.018	0.0896	0.08
Mof_H 	H 	0.9311	0.0571	0.0451	0.081
Mof_H 	H 	0.7081	0.2653	0.7205	0.028
Mof_H 	H 	0.922	0.47	0.6724	0.048
Mof_H 	H 	0.4653	0.1121	0.6191	0.029
Mof_H 	H 	0.008	0.9314	0.0318	0.023
Mof_H 	H 	0.782	0.9159	0.8303	0.027
Mof_H 	H 	0.886	0.802	0.6553	0.257
Mof_H 	H 	0.8804	0.0587	0.4273	0.029
Mof_H 	H 	0.3308	0.5896	0.1076	0.024
Mof_H 	H 	0.386	0.198	0.8447	0.257
Mof_H 	H 	0.9572	0.3727	0.5271	0.036
Mof_H 	H 	0.4311	0.9429	0.4549	0.082
Mof_H 	H 	0.078	0.53	0.3276	0.048
Mof_H 	H 	0.265	0.018	0.5896	0.08
Mof_H 	H 	0.4347	0.5327	0.4596	0.082
Mof_H 	H 	0.5428	0.3727	0.0271	0.036
Mof_H 	H 	0.5634	0.585	0.5267	0.024
Mof_H 	H 	0.9897	0.1535	0.2789	-0.005
Mof_H 	H 	0.0046	0.0002	0.2837	0.042
Mof_H 	H 	0.865	0.677	0.2413	0.274
Mof_H 	H 	0.4954	0.0002	0.7837	0.042
Mof_H 	H 	0.0347	0.1121	0.1191	0.03
Mof_H 	H 	0.9653	0.8879	0.8809	0.03
Mof_H 	H 	0.7432	0.8042	0.4616	0.024
Mof_H 	H 	0.7919	0.2653	0.2205	0.029
Mof_H 	H 	0.492	0.9314	0.5318	0.022
Mof_H 	H 	0.2081	0.7347	0.7795	0.029
Mof_H 	H 	0.3804	0.9413	0.0727	0.028
Mof_H 	H 	0.635	0.677	0.7413	0.274
Mof_H 	H 	0.6692	0.4104	0.8924	0.024
Mof_H 	H 	0.135	0.323	0.7587	0.274
Mof_H 	H 	0.9366	0.585	0.0267	0.025
Mof_H 	H 	0.7379	0.6695	0.4377	0.026
Mof_H 	H 	0.0103	0.8465	0.7211	-0.005
Mof_H 	H 	0.9954	0.9998	0.7163	0.042
Mof_H 	H 	0.5653	0.4673	0.5404	0.082
Mof_H 	H 	0.5435	0.4494	0.6178	0.027
Mof_H 	H 	0.1692	0.5896	0.6076	0.024
Mof_H 	H 	0.3684	0.5564	0.6211	0.079
Mof_H 	H 	0.8684	0.4436	0.8789	0.079
Mof_H 	H 	0.626	0.1228	0.248	0.022
Mof_H 	H 	0.5325	0.6247	0.6445	0.022
Mof_H 	H 	0.3039	0.7604	0.6332	0.036
Mof_H 	H 	0.4366	0.415	0.4733	0.024
Mof_H 	H 	0.8225	0.5458	0.5646	0.027
Mof_H 	H 	0.614	0.802	0.1553	0.257
Mof_H 	H 	0.7621	0.6695	0.9377	0.026
Mof_H 	H 	0.6151	0.4556	0.0035	0.072
Mof_H 	H 	0.1316	0.5564	0.1211	0.079
Mof_H 	H 	0.312	0.9022	0.2206	0.103
Mof_H 	H 	0.6775	0.5458	0.0646	0.027
Mof_H 	H 	0.1775	0.4542	0.4354	0.027
Mof_H 	H 	0.6316	0.4436	0.3789	0.079
Mof_H 	H 	0.8849	0.4556	0.5035	0.072
Mof_H 	H 	0.422	0.53	0.8276	0.048
Mof_H 	H 	0.3225	0.4542	0.9354	0.027
Mof_H 	H 	0.5103	0.1535	0.7789	-0.006
Mof_H 	H 	0.688	0.0978	0.7794	0.103
Mof_H 	H 	0.4565	0.5506	0.3822	0.027
Mof_H 	H 	0.4675	0.3753	0.3555	0.022
Mof_H 	H 	0.218	0.0841	0.1697	0.027
Mof_H 	H 	0.3849	0.5444	0.9965	0.072
Mof_H 	H 	0.365	0.323	0.2587	0.274
Mof_H 	H 	0.114	0.198	0.3447	0.257
Mof_H 	H 	0.1961	0.7604	0.1332	0.036
Mof_H 	H 	0.735	0.982	0.4104	0.08
Mof_H 	H 	0.765	0.982	0.9104	0.08
Mof_H 	H 	0.874	0.1228	0.748	0.022
Mof_H 	H 	0.812	0.0978	0.2794	0.103
Mof_H 	H 	0.0653	0.5327	0.9596	0.081
Mof_H 	H 	0.992	0.0686	0.9682	0.023
Mof_H 	H 	0.9565	0.4494	0.1178	0.028
Mof_H 	H 	0.4897	0.8465	0.2211	-0.006
Mof_H 	H 	0.126	0.8772	0.252	0.022
Mof_H 	H 	0.1196	0.9413	0.5727	0.029
Mof_H 	H 	0.5689	0.0571	0.5451	0.082
Mof_H 	H 	0.2919	0.7347	0.2795	0.028
Mof_H 	H 	0.4572	0.6273	0.9729	0.036
Mof_H 	H 	0.2379	0.3305	0.0623	0.026
Mof_H 	H 	0.0325	0.3753	0.8555	0.022
Mof_H 	H 	0.7568	0.8042	0.9616	0.025
Mof_H 	H 	0.374	0.8772	0.752	0.022
Mof_H 	H 	0.5046	0.9998	0.2163	0.042
Mof_H 	H 	0.0435	0.5506	0.8822	0.028
Mof_H 	H 	0.6961	0.2396	0.3668	0.036
Mof_H 	H 	0.9675	0.6247	0.1445	0.022
Mof_H 	H 	0.8039	0.2396	0.8668	0.036
Mof_H 	H 	0.0689	0.9429	0.9549	0.081
Mof_H 	H 	0.188	0.9022	0.7206	0.103
Mof_H 	H 	0.282	0.0841	0.6697	0.028
Mof_H 	H 	0.1151	0.5444	0.4965	0.072
Mof_H 	H 	0.2568	0.1958	0.5384	0.024
Mof_H 	H 	0.718	0.9159	0.3303	0.028
Mof_H 	H 	0.0634	0.415	0.9733	0.025
Mof_H 	H 	0.2621	0.3305	0.5623	0.026
Mof_H 	H 	0.0428	0.6273	0.4729	0.036
Mof_H 	H 	0.2432	0.1958	0.0384	0.025
Mof_C 	C 	0.2045	0.7686	0.7675	0.114
Mof_C 	C 	0.167	0.3694	0.0118	-0.136
Mof_C 	C 	0.7852	0.3217	0.3822	-0.128
Mof_C 	C 	0.4265	0.4091	0.5049	0.066
Mof_C 	C 	0.4465	0.5889	0.8976	-0.112
Mof_C 	C 	0.6781	0.6416	0.442	0.083
Mof_C 	C 	0.355	0.4873	0.9263	0.038
Mof_C 	C 	0.1581	0.1444	0.9471	0.397
Mof_C 	C 	0.0575	0.1171	0.0882	0.055
Mof_C 	C 	0.5661	0.3007	0.3582	-0.126
Mof_C 	C 	0.9265	0.5909	0.9951	0.063
Mof_C 	C 	0.5431	0.7445	0.6565	0.37
Mof_C 	C 	0.9339	0.3007	0.8582	-0.126
Mof_C 	C 	0.3553	0.5978	0.6244	-0.121
Mof_C 	C 	0.4425	0.1171	0.5882	0.058
Mof_C 	C 	0.1608	0.4245	0.334	0.387
Mof_C 	C 	0.6534	0.8427	0.4143	-0.126
Mof_C 	C 	0.8466	0.8427	0.9143	-0.125
Mof_C 	C 	0.5864	0.4666	0.1382	0.06
Mof_C 	C 	0.127	0.372	0.1468	0.438
Mof_C 	C 	0.3024	0.8533	0.7514	0.096
Mof_C 	C 	0.009	0.4293	0.0909	0.07
Mof_C 	C 	0.5669	0.2157	0.2124	0.389
Mof_C 	C 	0.8751	0.0311	0.3947	0.057
Mof_C 	C 	0.6976	0.1467	0.2486	0.096
Mof_C 	C 	0.855	0.5127	0.5737	0.038
Mof_C 	C 	0.4069	0.7824	0.2488	-0.179
Mof_C 	C 	0.518	0.7429	0.2452	0.405
Mof_C 	C 	0.5466	0.3618	0.3621	0.054
Mof_C 	C 	0.3392	0.4245	0.834	0.387
Mof_C 	C 	0.6641	0.9091	0.7458	0.341
Mof_C 	C 	0.1781	0.3584	0.058	0.081
Mof_C 	C 	0.7707	0.808	0.8673	0.383
Mof_C 	C 	0.7461	0.6659	0.5333	0.402
Mof_C 	C 	0.491	0.4293	0.5909	0.072
Mof_C 	C 	0.9331	0.2157	0.7124	0.39
Mof_C 	C 	0.9569	0.7445	0.1565	0.37
Mof_C 	C 	0.8172	0.8334	0.9604	0.079
Mof_C 	C 	0.667	0.6306	0.4882	-0.137
Mof_C 	C 	0.9425	0.8829	0.9118	0.055
Mof_C 	C 	0.7539	0.6659	0.0333	0.401
Mof_C 	C 	0.1296	0.4843	0.3742	-0.123
Mof_C 	C 	0.4959	0.9158	0.4561	-0.129
Mof_C 	C 	0.5046	0.4399	0.5447	-0.134
Mof_C 	C 	0.4469	0.0909	0.8698	0.376
Mof_C 	C 	0.0466	0.6382	0.1379	0.054
Mof_C 	C 	0.2214	0.0531	0.663	0.056
Mof_C 	C 	0.4569	0.2555	0.3435	0.37
Mof_C 	C 	0.482	0.2571	0.7548	0.405
Mof_C 	C 	0.1641	0.0909	0.7542	0.341
Mof_C 	C 	0.7357	0.3825	0.8847	0.057
Mof_C 	C 	0.018	0.2571	0.2548	0.404
Mof_C 	C 	0.9954	0.4399	0.0447	-0.132
Mof_C 	C 	0.8024	0.1467	0.7486	0.097
Mof_C 	C 	0.0508	0.0029	0.6911	0.053
Mof_C 	C 	0.7293	0.808	0.3673	0.384
Mof_C 	C 	0.0071	0.6399	0.3785	0.353
Mof_C 	C 	0.7148	0.3217	0.8822	-0.128
Mof_C 	C 	0.1828	0.1666	0.0396	0.079
Mof_C 	C 	0.5535	0.4111	0.1024	-0.112
Mof_C 	C 	0.1095	0.5411	0.4622	-0.106
Mof_C 	C 	0.5312	0.9082	0.502	0.07
Mof_C 	C 	0.8704	0.5157	0.6258	-0.123
Mof_C 	C 	0.873	0.628	0.8532	0.438
Mof_C 	C 	0.8392	0.5755	0.666	0.387
Mof_C 	C 	0.6844	0.2807	0.3687	0.068
Mof_C 	C 	0.7643	0.3825	0.3847	0.057
Mof_C 	C 	0.0531	0.0909	0.3698	0.375
Mof_C 	C 	0.3466	0.1573	0.5857	-0.126
Mof_C 	C 	0.8359	0.9091	0.2458	0.341
Mof_C 	C 	0.2461	0.3341	0.9667	0.401
Mof_C 	C 	0.9465	0.4111	0.6024	-0.112
Mof_C 	C 	0.5508	0.9971	0.8089	0.054
Mof_C 	C 	0.809	0.1315	0.2672	-0.166
Mof_C 	C 	0.9929	0.3601	0.6215	0.353
Mof_C 	C 	0.6581	0.8556	0.5529	0.398
Mof_C 	C 	0.4331	0.7843	0.7876	0.389
Mof_C 	C 	0.2357	0.6175	0.6153	0.057
Mof_C 	C 	0.0046	0.5601	0.9553	-0.132
Mof_C 	C 	0.4492	0.0029	0.1911	0.054
Mof_C 	C 	0.3764	0.1333	0.4962	-0.148
Mof_C 	C 	0.4135	0.8351	0.2323	0.107
Mof_C 	C 	0.1447	0.5978	0.1244	-0.121
Mof_C 	C 	0.9959	0.0842	0.0439	-0.125
Mof_C 	C 	0.0431	0.2555	0.8435	0.37
Mof_C 	C 	0.4348	0.5913	0.9478	0.043
Mof_C 	C 	0.5735	0.5909	0.4951	0.066
Mof_C 	C 	0.0041	0.9158	0.9561	-0.125
Mof_C 	C 	0.691	0.1315	0.7672	-0.167
Mof_C 	C 	0.0535	0.5889	0.3976	-0.112
Mof_C 	C 	0.0864	0.5334	0.3618	0.06
Mof_C 	C 	0.6249	0.0311	0.8947	0.057
Mof_C 	C 	0.6454	0.9511	0.7984	-0.119
Mof_C 	C 	0.6095	0.4589	0.0378	-0.106
Mof_C 	C 	0.0735	0.4091	0.0049	0.063
Mof_C 	C 	0.8553	0.4022	0.8756	-0.121
Mof_C 	C 	0.6828	0.8334	0.4604	0.081
Mof_C 	C 	0.4688	0.0918	0.498	0.07
Mof_C 	C 	0.2707	0.192	0.6327	0.384
Mof_C 	C 	0.2643	0.6175	0.1153	0.057
Mof_C 	C 	0.288	0.0139	0.1152	-0.12
Mof_C 	C 	0.2955	0.7686	0.2675	0.115
Mof_C 	C 	0.1902	0.8027	0.2693	-0.159
Mof_C 	C 	0.145	0.4873	0.4263	0.038
Mof_C 	C 	0.3989	0.3885	0.5975	-0.15
Mof_C 	C 	0.2786	0.0531	0.163	0.056
Mof_C 	C 	0.509	0.5707	0.4091	0.072
Mof_C 	C 	0.991	0.5707	0.9091	0.07
Mof_C 	C 	0.7045	0.2314	0.7325	0.115
Mof_C 	C 	0.8764	0.8667	0.0038	-0.146
Mof_C 	C 	0.9135	0.1649	0.2677	0.106
Mof_C 	C 	0.0669	0.7843	0.2876	0.39
Mof_C 	C 	0.4136	0.5334	0.8618	0.06
Mof_C 	C 	0.1236	0.1333	0.9962	-0.146
Mof_C 	C 	0.0312	0.0918	0.998	0.067
Mof_C 	C 	0.3751	0.9689	0.1053	0.057
Mof_C 	C 	0.0931	0.7824	0.7488	-0.178
Mof_C 	C 	0.4954	0.5601	0.4553	-0.134
Mof_C 	C 	0.373	0.372	0.6468	0.438
Mof_C 	C 	0.5931	0.2176	0.7512	-0.179
Mof_C 	C 	0.9069	0.2176	0.2512	-0.178
Mof_C 	C 	0.0652	0.5913	0.4478	0.043
Mof_C 	C 	0.3098	0.8027	0.7693	-0.158
Mof_C 	C 	0.9348	0.4087	0.5522	0.043
Mof_C 	C 	0.6447	0.4022	0.3756	-0.121
Mof_C 	C 	0.9573	0.0375	0.3576	-0.112
Mof_C 	C 	0.1011	0.3885	0.0975	-0.148
Mof_C 	C 	0.5865	0.1649	0.7677	0.107
Mof_C 	C 	0.5575	0.8829	0.4118	0.058
Mof_C 	C 	0.333	0.3694	0.5118	-0.137
Mof_C 	C 	0.9492	0.9971	0.3089	0.053
Mof_C 	C 	0.3546	0.0489	0.2016	-0.119
Mof_C 	C 	0.2293	0.192	0.1327	0.383
Mof_C 	C 	0.0661	0.6993	0.1418	-0.126
Mof_C 	C 	0.0427	0.9625	0.6424	-0.112
Mof_C 	C 	0.3704	0.4843	0.8742	-0.123
Mof_C 	C 	0.7214	0.9469	0.837	0.056
Mof_C 	C 	0.8219	0.6416	0.942	0.081
Mof_C 	C 	0.8098	0.1973	0.7307	-0.159
Mof_C 	C 	0.4534	0.6382	0.6379	0.054
Mof_C 	C 	0.1844	0.7193	0.1313	0.068
Mof_C 	C 	0.2539	0.3341	0.4667	0.402
Mof_C 	C 	0.9469	0.9091	0.6302	0.375
Mof_C 	C 	0.2148	0.6783	0.6178	-0.128
Mof_C 	C 	0.4573	0.9625	0.1424	-0.113
Mof_C 	C 	0.212	0.0139	0.6152	-0.12
Mof_C 	C 	0.627	0.628	0.3532	0.438
Mof_C 	C 	0.3359	0.0909	0.2542	0.341
Mof_C 	C 	0.8419	0.8556	0.0529	0.397
Mof_C 	C 	0.788	0.9861	0.3848	-0.12
Mof_C 	C 	0.982	0.7429	0.7452	0.404
Mof_C 	C 	0.309	0.8685	0.2328	-0.167
Mof_C 	C 	0.5427	0.0375	0.8576	-0.113
Mof_C 	C 	0.3905	0.5411	0.9622	-0.106
Mof_C 	C 	0.5531	0.9091	0.1302	0.376
Mof_C 	C 	0.9136	0.4666	0.6382	0.06
Mof_C 	C 	0.3219	0.3584	0.558	0.083
Mof_C 	C 	0.8156	0.2807	0.8687	0.068
Mof_C 	C 	0.1249	0.9689	0.6053	0.057
Mof_C 	C 	0.9155	0.3002	0.3909	0.388
Mof_C 	C 	0.6236	0.8667	0.5038	-0.148
Mof_C 	C 	0.0865	0.8351	0.7323	0.106
Mof_C 	C 	0.5071	0.3601	0.1215	0.353
Mof_C 	C 	0.1454	0.0489	0.7016	-0.119
Mof_C 	C 	0.6011	0.6115	0.4025	-0.15
Mof_C 	C 	0.5041	0.0842	0.5439	-0.129
Mof_C 	C 	0.8905	0.4589	0.5378	-0.106
Mof_C 	C 	0.8989	0.6115	0.9025	-0.148
Mof_C 	C 	0.2852	0.6783	0.1178	-0.128
Mof_C 	C 	0.1534	0.1573	0.0857	-0.125
Mof_C 	C 	0.6608	0.5755	0.166	0.387
Mof_C 	C 	0.8546	0.9511	0.2984	-0.119
Mof_C 	C 	0.3419	0.1444	0.4471	0.398
Mof_C 	C 	0.1976	0.8533	0.2514	0.097
Mof_C 	C 	0.5845	0.3002	0.8909	0.388
Mof_C 	C 	0.5652	0.4087	0.0522	0.043
Mof_C 	C 	0.4155	0.6998	0.1091	0.388
Mof_C 	C 	0.7955	0.2314	0.2325	0.114
Mof_C 	C 	0.3172	0.1666	0.5396	0.081
Mof_C 	C 	0.6902	0.1973	0.2307	-0.158
Mof_C 	C 	0.0845	0.6998	0.6091	0.388
Mof_C 	C 	0.9688	0.9082	0.002	0.067
Mof_C 	C 	0.833	0.6306	0.9882	-0.136
Mof_C 	C 	0.7786	0.9469	0.337	0.056
Mof_C 	C 	0.9534	0.3618	0.8621	0.054
Mof_C 	C 	0.191	0.8685	0.7328	-0.166
Mof_C 	C 	0.6296	0.5157	0.1258	-0.123
Mof_C 	C 	0.645	0.5127	0.0737	0.038
Mof_C 	C 	0.712	0.9861	0.8848	-0.12
Mof_C 	C 	0.4339	0.6993	0.6418	-0.126
Mof_C 	C 	0.3156	0.7193	0.6313	0.068
Mof_C 	C 	0.4929	0.6399	0.8785	0.353
Mof_O 	O 	0.6927	0.8096	0.3253	-0.434
Mof_O 	O 	0.1105	0.0788	0.7913	-0.363
Mof_O 	O 	0.1346	0.4254	0.2888	-0.443
Mof_O 	O 	0.9601	0.7926	0.1431	-0.402
Mof_O 	O 	0.1927	0.1904	0.1747	-0.434
Mof_O 	O 	0.2314	0.1394	0.7631	-0.471
Mof_O 	O 	0.5066	0.3068	0.0921	-0.338
Mof_O 	O 	0.9254	0.2551	0.6892	-0.432
Mof_O 	O 	0.7686	0.8606	0.2369	-0.471
Mof_O 	O 	0.2686	0.1394	0.2631	-0.471
Mof_O 	O 	0.8546	0.915	0.6586	-0.407
Mof_O 	O 	0.9774	0.8643	0.5923	-0.445
Mof_O 	O 	0.4936	0.3253	0.8771	-0.443
Mof_O 	O 	0.6454	0.915	0.1586	-0.408
Mof_O 	O 	0.0399	0.2074	0.8569	-0.402
Mof_O 	O 	0.6176	0.751	0.2216	-0.536
Mof_O 	O 	0.1172	0.1122	0.9058	-0.399
Mof_O 	O 	0.9934	0.3068	0.5921	-0.338
Mof_O 	O 	0.4735	0.3721	0.1661	-0.426
Mof_O 	O 	0.8828	0.8878	0.0942	-0.399
Mof_O 	O 	0.3895	0.0788	0.2913	-0.363
Mof_O 	O 	0.7721	0.8109	0.0506	-0.461
Mof_O 	O 	0.8895	0.9212	0.2087	-0.363
Mof_O 	O 	0.1804	0.3066	0.7326	-0.813
Mof_O 	O 	0.6606	0.694	0.0234	-0.443
Mof_O 	O 	0.5265	0.6279	0.8339	-0.426
Mof_O 	O 	0.7314	0.8606	0.7369	-0.471
Mof_O 	O 	0.8394	0.694	0.5234	-0.444
Mof_O 	O 	0.9676	0.8105	0.2799	-0.45
Mof_O 	O 	0.8824	0.751	0.7216	-0.536
Mof_O 	O 	0.9735	0.6279	0.3339	-0.426
Mof_O 	O 	0.6346	0.5746	0.2112	-0.442
Mof_O 	O 	0.6713	0.782	0.8769	-0.454
Mof_O 	O 	0.4934	0.6932	0.9079	-0.338
Mof_O 	O 	0.9218	0.2596	0.4134	-0.415
Mof_O 	O 	0.3287	0.2162	0.8656	-0.783
Mof_O 	O 	0.0064	0.3253	0.3771	-0.443
Mof_O 	O 	0.0265	0.3721	0.6661	-0.426
Mof_O 	O 	0.1176	0.249	0.2784	-0.536
Mof_O 	O 	0.9936	0.6747	0.6229	-0.443
Mof_O 	O 	0.7183	0.618	0.1571	-0.462
Mof_O 	O 	0.0431	0.4065	0.1832	-0.32
Mof_O 	O 	0.7279	0.8109	0.5506	-0.461
Mof_O 	O 	0.4569	0.4065	0.6832	-0.32
Mof_O 	O 	0.5064	0.6747	0.1229	-0.443
Mof_O 	O 	0.9867	0.7017	0.7671	-0.436
Mof_O 	O 	0.4601	0.2074	0.3569	-0.401
Mof_O 	O 	0.6804	0.6934	0.7674	-0.813
Mof_O 	O 	0.5399	0.7926	0.6431	-0.401
Mof_O 	O 	0.0746	0.7449	0.3108	-0.432
Mof_O 	O 	0.2858	0.3367	0.4244	-0.437
Mof_O 	O 	0.9569	0.5935	0.8168	-0.32
Mof_O 	O 	0.8287	0.782	0.3769	-0.454
Mof_O 	O 	0.4676	0.1895	0.2201	-0.45
Mof_O 	O 	0.2142	0.3367	0.9244	-0.437
Mof_O 	O 	0.3394	0.306	0.9766	-0.443
Mof_O 	O 	0.5746	0.2551	0.1892	-0.432
Mof_O 	O 	0.2721	0.1891	0.4494	-0.461
Mof_O 	O 	0.4867	0.2983	0.7329	-0.436
Mof_O 	O 	0.8287	0.7838	0.6344	-0.783
Mof_O 	O 	0.1713	0.218	0.6231	-0.454
Mof_O 	O 	0.1335	0.2702	0.8188	-0.524
Mof_O 	O 	0.3546	0.085	0.8414	-0.408
Mof_O 	O 	0.4254	0.7449	0.8108	-0.432
Mof_O 	O 	0.2279	0.1891	0.9494	-0.461
Mof_O 	O 	0.5226	0.8643	0.0923	-0.445
Mof_O 	O 	0.4218	0.7404	0.0866	-0.415
Mof_O 	O 	0.7858	0.6633	0.0756	-0.437
Mof_O 	O 	0.6105	0.9212	0.7087	-0.363
Mof_O 	O 	0.3196	0.3066	0.2326	-0.813
Mof_O 	O 	0.6335	0.7298	0.6812	-0.524
Mof_O 	O 	0.3654	0.4254	0.7888	-0.442
Mof_O 	O 	0.4774	0.1357	0.9077	-0.445
Mof_O 	O 	0.8073	0.8096	0.8253	-0.434
Mof_O 	O 	0.0782	0.7404	0.5866	-0.415
Mof_O 	O 	0.3073	0.1904	0.6747	-0.434
Mof_O 	O 	0.3665	0.2702	0.3188	-0.524
Mof_O 	O 	0.2817	0.382	0.8429	-0.462
Mof_O 	O 	0.0066	0.6932	0.4079	-0.338
Mof_O 	O 	0.5324	0.8105	0.7799	-0.45
Mof_O 	O 	0.5431	0.5935	0.3168	-0.32
Mof_O 	O 	0.5133	0.7017	0.2671	-0.436
Mof_O 	O 	0.3287	0.218	0.1231	-0.454
Mof_O 	O 	0.8099	0.6599	0.8449	-0.543
Mof_O 	O 	0.8665	0.7298	0.1812	-0.524
Mof_O 	O 	0.1454	0.085	0.3414	-0.407
Mof_O 	O 	0.7817	0.618	0.6571	-0.462
Mof_O 	O 	0.2183	0.382	0.3429	-0.462
Mof_O 	O 	0.1606	0.306	0.4766	-0.444
Mof_O 	O 	0.6901	0.6599	0.3449	-0.543
Mof_O 	O 	0.8196	0.6934	0.2674	-0.813
Mof_O 	O 	0.7142	0.6633	0.5756	-0.437
Mof_O 	O 	0.6713	0.7838	0.1344	-0.783
Mof_O 	O 	0.5782	0.2596	0.9134	-0.415
Mof_O 	O 	0.3099	0.3401	0.6551	-0.543
Mof_O 	O 	0.3824	0.249	0.7784	-0.536
Mof_O 	O 	0.0226	0.1357	0.4077	-0.445
Mof_O 	O 	0.1713	0.2162	0.3656	-0.783
Mof_O 	O 	0.0324	0.1895	0.7201	-0.45
Mof_O 	O 	0.1901	0.3401	0.1551	-0.543
Mof_O 	O 	0.8654	0.5746	0.7112	-0.443
Mof_O 	O 	0.6172	0.8878	0.5942	-0.399
Mof_O 	O 	0.3828	0.1122	0.4058	-0.399
Mof_O 	O 	0.0133	0.2983	0.2329	-0.436
_end
