data_functionalizedCrystal
_audit_creation_method	'EQeq! by Chris Wilmer'
_symmetry_space_group_name_H-M	'P1'
_symmetry_Int_Tables_number	1
_symmetry_cell_setting	triclinic
loop_
_symmetry_equiv_pos_as_xyz
  x,y,z
_cell_length_a	11.797
_cell_length_b	17.876
_cell_length_c	18.848
_cell_angle_alpha	116.35
_cell_angle_beta	90
_cell_angle_gamma	90
loop_
_atom_site_label
_atom_site_type_symbol
_atom_site_fract_x
_atom_site_fract_y
_atom_site_fract_z
_atom_site_charge
Mof_Mn	Mn	0.4208	0.78545	0.524	0.975
Mof_Mn	Mn	0.17511	0.66668	0.37672	0.812
Mof_Mn	Mn	0.55231	0.7875	0.69929	0.858
Mof_Mn	Mn	0.9208	0.21455	0.976	0.973
Mof_Mn	Mn	0.67511	0.33332	0.12328	0.812
Mof_Mn	Mn	0.05231	0.2125	0.80071	0.856
Mof_Mn	Mn	0.5792	0.21455	0.476	0.974
Mof_Mn	Mn	0.82489	0.33332	0.62328	0.811
Mof_Mn	Mn	0.44769	0.2125	0.30071	0.857
Mof_Mn	Mn	0.0792	0.78545	0.024	0.972
Mof_Mn	Mn	0.32489	0.66668	0.87672	0.812
Mof_Mn	Mn	0.94769	0.7875	0.19929	0.856
Mof_H 	H 	0.3433	0.6724	0.6159	0.018
Mof_H 	H 	0.4519	0.467	0.631	0.026
Mof_H 	H 	0.3179	0.4486	0.428	0.033
Mof_H 	H 	0.2081	0.9996	0.7414	0.016
Mof_H 	H 	0.1026	0.9728	0.9309	0.027
Mof_H 	H 	0.3059	0.8006	0.7709	0.006
Mof_H 	H 	0.8433	0.3276	0.8841	0.018
Mof_H 	H 	0.9519	0.533	0.869	0.027
Mof_H 	H 	0.8179	0.5514	0.072	0.033
Mof_H 	H 	0.7081	0.0004	0.7586	0.018
Mof_H 	H 	0.6026	0.0272	0.5691	0.029
Mof_H 	H 	0.8059	0.1994	0.7291	0.007
Mof_H 	H 	0.6567	0.3276	0.3841	0.018
Mof_H 	H 	0.5481	0.533	0.369	0.026
Mof_H 	H 	0.6821	0.5514	0.572	0.033
Mof_H 	H 	0.7919	0.0004	0.2586	0.016
Mof_H 	H 	0.8974	0.0272	0.0691	0.027
Mof_H 	H 	0.6941	0.1994	0.2291	0.006
Mof_H 	H 	0.1567	0.6724	0.1159	0.018
Mof_H 	H 	0.0481	0.467	0.131	0.027
Mof_H 	H 	0.1821	0.4486	0.928	0.033
Mof_H 	H 	0.2919	0.9996	0.2414	0.018
Mof_H 	H 	0.3974	0.9728	0.4309	0.029
Mof_H 	H 	0.1941	0.8006	0.2709	0.007
Mof_C 	C 	0.2743	0.6069	0.466	0.336
Mof_C 	C 	0.3221	0.5668	0.5146	-0.131
Mof_C 	C 	0.3538	0.6149	0.5929	0.067
Mof_C 	C 	0.4009	0.578	0.6374	-0.143
Mof_C 	C 	0.4331	0.6318	0.7231	0.372
Mof_C 	C 	0.4197	0.4921	0.6019	0.074
Mof_C 	C 	0.3904	0.4435	0.5228	-0.138
Mof_C 	C 	0.4217	0.3516	0.4795	0.396
Mof_C 	C 	0.34	0.4811	0.4801	0.068
Mof_C 	C 	0.3163	0.8571	0.6621	0.354
Mof_C 	C 	0.2622	0.8933	0.7421	-0.158
Mof_C 	C 	0.2076	0.9695	0.7709	0.092
Mof_C 	C 	0.1519	0.0016	0.8434	-0.161
Mof_C 	C 	0.1023	0.0877	0.8742	0.4
Mof_C 	C 	0.1458	0.9542	0.885	0.095
Mof_C 	C 	0.2037	0.8793	0.8582	-0.155
Mof_C 	C 	0.206	0.8277	0.9036	0.398
Mof_C 	C 	0.2641	0.8496	0.7877	0.082
Mof_C 	C 	0.7743	0.3931	0.034	0.335
Mof_C 	C 	0.8221	0.4332	0.9854	-0.13
Mof_C 	C 	0.8538	0.3851	0.9071	0.066
Mof_C 	C 	0.9009	0.422	0.8626	-0.142
Mof_C 	C 	0.9331	0.3682	0.7769	0.372
Mof_C 	C 	0.9197	0.5079	0.8981	0.073
Mof_C 	C 	0.8904	0.5565	0.9772	-0.135
Mof_C 	C 	0.9217	0.6484	0.0205	0.393
Mof_C 	C 	0.84	0.5189	0.0199	0.066
Mof_C 	C 	0.8163	0.1429	0.8379	0.353
Mof_C 	C 	0.7622	0.1067	0.7579	-0.154
Mof_C 	C 	0.7076	0.0305	0.7291	0.085
Mof_C 	C 	0.6519	0.9984	0.6566	-0.152
Mof_C 	C 	0.6023	0.9123	0.6258	0.398
Mof_C 	C 	0.6458	0.0458	0.615	0.088
Mof_C 	C 	0.7037	0.1207	0.6418	-0.151
Mof_C 	C 	0.706	0.1723	0.5964	0.397
Mof_C 	C 	0.7641	0.1504	0.7123	0.078
Mof_C 	C 	0.7257	0.3931	0.534	0.336
Mof_C 	C 	0.6779	0.4332	0.4854	-0.131
Mof_C 	C 	0.6462	0.3851	0.4071	0.067
Mof_C 	C 	0.5991	0.422	0.3626	-0.143
Mof_C 	C 	0.5669	0.3682	0.2769	0.372
Mof_C 	C 	0.5803	0.5079	0.3981	0.074
Mof_C 	C 	0.6096	0.5565	0.4772	-0.138
Mof_C 	C 	0.5783	0.6484	0.5205	0.396
Mof_C 	C 	0.66	0.5189	0.5199	0.068
Mof_C 	C 	0.6837	0.1429	0.3379	0.354
Mof_C 	C 	0.7378	0.1067	0.2579	-0.158
Mof_C 	C 	0.7924	0.0305	0.2291	0.092
Mof_C 	C 	0.8481	0.9984	0.1566	-0.161
Mof_C 	C 	0.8977	0.9123	0.1258	0.4
Mof_C 	C 	0.8542	0.0458	0.115	0.095
Mof_C 	C 	0.7963	0.1207	0.1418	-0.155
Mof_C 	C 	0.794	0.1723	0.0964	0.398
Mof_C 	C 	0.7359	0.1504	0.2123	0.082
Mof_C 	C 	0.2257	0.6069	0.966	0.335
Mof_C 	C 	0.1779	0.5668	0.0146	-0.13
Mof_C 	C 	0.1462	0.6149	0.0929	0.066
Mof_C 	C 	0.0991	0.578	0.1374	-0.142
Mof_C 	C 	0.0669	0.6318	0.2231	0.372
Mof_C 	C 	0.0803	0.4921	0.1019	0.073
Mof_C 	C 	0.1096	0.4435	0.0228	-0.135
Mof_C 	C 	0.0783	0.3516	0.9795	0.393
Mof_C 	C 	0.16	0.4811	0.9801	0.066
Mof_C 	C 	0.1837	0.8571	0.1621	0.353
Mof_C 	C 	0.2378	0.8933	0.2421	-0.154
Mof_C 	C 	0.2924	0.9695	0.2709	0.085
Mof_C 	C 	0.3481	0.0016	0.3434	-0.152
Mof_C 	C 	0.3977	0.0877	0.3742	0.398
Mof_C 	C 	0.3542	0.9542	0.385	0.088
Mof_C 	C 	0.2963	0.8793	0.3582	-0.151
Mof_C 	C 	0.294	0.8277	0.4036	0.397
Mof_C 	C 	0.2359	0.8496	0.2877	0.078
Mof_O 	O 	0.2831	0.68515	0.49014	-0.401
Mof_O 	O 	0.2257	0.56153	0.40127	-0.347
Mof_O 	O 	0.4697	0.70391	0.74193	-0.381
Mof_O 	O 	0.4182	0.60051	0.77079	-0.375
Mof_O 	O 	0.4688	0.31916	0.51943	-0.39
Mof_O 	O 	0.4005	0.31655	0.40719	-0.39
Mof_O 	O 	0.3979	0.80504	0.64852	-0.442
Mof_O 	O 	0.2811	0.87535	0.60964	-0.326
Mof_O 	O 	0.1285	0.12755	0.83591	-0.401
Mof_O 	O 	0.0411	0.11351	0.93475	-0.372
Mof_O 	O 	0.1165	0.8253	0.93806	-0.392
Mof_O 	O 	0.2978	0.79182	0.90297	-0.4
Mof_O 	O 	0.7831	0.31485	0.00986	-0.4
Mof_O 	O 	0.7257	0.43847	0.09873	-0.347
Mof_O 	O 	0.9697	0.29609	0.75807	-0.381
Mof_O 	O 	0.9182	0.39949	0.72921	-0.375
Mof_O 	O 	0.9688	0.68084	0.98057	-0.388
Mof_O 	O 	0.9005	0.68345	0.09281	-0.39
Mof_O 	O 	0.8979	0.19496	0.85148	-0.442
Mof_O 	O 	0.7811	0.12465	0.89036	-0.326
Mof_O 	O 	0.6285	0.87245	0.66409	-0.4
Mof_O 	O 	0.5411	0.88649	0.56525	-0.371
Mof_O 	O 	0.6165	0.1747	0.56194	-0.393
Mof_O 	O 	0.7978	0.20818	0.59703	-0.4
Mof_O 	O 	0.7169	0.31485	0.50986	-0.401
Mof_O 	O 	0.7743	0.43847	0.59873	-0.347
Mof_O 	O 	0.5303	0.29609	0.25807	-0.381
Mof_O 	O 	0.5818	0.39949	0.22921	-0.375
Mof_O 	O 	0.5312	0.68084	0.48057	-0.39
Mof_O 	O 	0.5995	0.68345	0.59281	-0.39
Mof_O 	O 	0.6021	0.19496	0.35148	-0.442
Mof_O 	O 	0.7189	0.12465	0.39036	-0.326
Mof_O 	O 	0.8715	0.87245	0.16409	-0.401
Mof_O 	O 	0.9589	0.88649	0.06525	-0.372
Mof_O 	O 	0.8835	0.1747	0.06194	-0.392
Mof_O 	O 	0.7022	0.20818	0.09703	-0.4
Mof_O 	O 	0.2169	0.68515	0.99014	-0.4
Mof_O 	O 	0.2743	0.56153	0.90127	-0.347
Mof_O 	O 	0.0303	0.70391	0.24193	-0.381
Mof_O 	O 	0.0818	0.60051	0.27079	-0.375
Mof_O 	O 	0.0312	0.31916	0.01943	-0.388
Mof_O 	O 	0.0995	0.31655	0.90719	-0.39
Mof_O 	O 	0.1021	0.80504	0.14852	-0.442
Mof_O 	O 	0.2189	0.87535	0.10964	-0.326
Mof_O 	O 	0.3715	0.12755	0.33591	-0.4
Mof_O 	O 	0.4589	0.11351	0.43475	-0.371
Mof_O 	O 	0.3835	0.8253	0.43806	-0.393
Mof_O 	O 	0.2022	0.79182	0.40297	-0.4
_end
