data_functionalizedCrystal
_audit_creation_method	'EQeq! by Chris Wilmer'
_symmetry_space_group_name_H-M	'P1'
_symmetry_Int_Tables_number	1
_symmetry_cell_setting	triclinic
loop_
_symmetry_equiv_pos_as_xyz
  x,y,z
_cell_length_a	31.35
_cell_length_b	31.35
_cell_length_c	16.9103
_cell_angle_alpha	90
_cell_angle_beta	90
_cell_angle_gamma	120
loop_
_atom_site_label
_atom_site_type_symbol
_atom_site_fract_x
_atom_site_fract_y
_atom_site_fract_z
_atom_site_charge
Mof_O 	O 	0.2503	0.6605	0.4153	-0.41
Mof_C 	C 	0.1459	0.5353	0.2362	-0.236
Mof_H 	H 	0.1344	0.5038	0.2158	0.105
Mof_C 	C 	0.1807	0.5525	0.2949	0.144
Mof_H 	H 	0.1925	0.5327	0.3149	-0.011
Mof_O 	O 	0.3395	0.5898	0.4153	-0.409
Mof_C 	C 	0.4647	0.6106	0.2362	-0.235
Mof_H 	H 	0.4962	0.6306	0.2158	0.107
Mof_C 	C 	0.4475	0.6282	0.2949	0.144
Mof_H 	H 	0.4673	0.6598	0.3149	-0.009
Mof_O 	O 	0.4102	0.7497	0.4153	-0.408
Mof_C 	C 	0.3894	0.8541	0.2362	-0.235
Mof_H 	H 	0.3694	0.8656	0.2158	0.107
Mof_C 	C 	0.3718	0.8193	0.2949	0.145
Mof_H 	H 	0.3402	0.8075	0.3149	-0.009
Mof_O 	O 	0.7497	0.3395	0.4153	-0.408
Mof_C 	C 	0.8541	0.4647	0.2362	-0.235
Mof_H 	H 	0.8656	0.4962	0.2158	0.107
Mof_C 	C 	0.8193	0.4475	0.2949	0.145
Mof_H 	H 	0.8075	0.4673	0.3149	-0.009
Mof_O 	O 	0.6605	0.4102	0.4153	-0.408
Mof_C 	C 	0.5353	0.3894	0.2362	-0.235
Mof_H 	H 	0.5038	0.3694	0.2158	0.106
Mof_C 	C 	0.5525	0.3718	0.2949	0.144
Mof_H 	H 	0.5327	0.3402	0.3149	-0.01
Mof_O 	O 	0.5898	0.2503	0.4153	-0.409
Mof_C 	C 	0.6106	0.1459	0.2362	-0.235
Mof_H 	H 	0.6306	0.1344	0.2158	0.107
Mof_C 	C 	0.6282	0.1807	0.2949	0.145
Mof_H 	H 	0.6598	0.1925	0.3149	-0.01
Mof_O 	O 	0.6605	0.2503	0.5847	-0.408
Mof_C 	C 	0.5353	0.1459	0.7638	-0.233
Mof_H 	H 	0.5038	0.1344	0.7842	0.11
Mof_C 	C 	0.5525	0.1807	0.7051	0.145
Mof_H 	H 	0.5327	0.1925	0.6851	-0.008
Mof_O 	O 	0.5898	0.3395	0.5847	-0.408
Mof_C 	C 	0.6106	0.4647	0.7638	-0.232
Mof_H 	H 	0.6306	0.4962	0.7842	0.11
Mof_C 	C 	0.6282	0.4475	0.7051	0.145
Mof_H 	H 	0.6598	0.4673	0.6851	-0.007
Mof_O 	O 	0.7497	0.4102	0.5847	-0.407
Mof_C 	C 	0.8541	0.3894	0.7638	-0.232
Mof_H 	H 	0.8656	0.3694	0.7842	0.11
Mof_C 	C 	0.8193	0.3718	0.7051	0.145
Mof_H 	H 	0.8075	0.3402	0.6851	-0.008
Mof_O 	O 	0.3395	0.7497	0.5847	-0.407
Mof_C 	C 	0.4647	0.8541	0.7638	-0.232
Mof_H 	H 	0.4962	0.8656	0.7842	0.11
Mof_C 	C 	0.4475	0.8193	0.7051	0.145
Mof_H 	H 	0.4673	0.8075	0.6851	-0.007
Mof_O 	O 	0.4102	0.6605	0.5847	-0.407
Mof_C 	C 	0.3894	0.5353	0.7638	-0.232
Mof_H 	H 	0.3694	0.5038	0.7842	0.11
Mof_C 	C 	0.3718	0.5525	0.7051	0.145
Mof_H 	H 	0.3402	0.5327	0.6851	-0.008
Mof_O 	O 	0.2503	0.5898	0.5847	-0.408
Mof_C 	C 	0.1459	0.6106	0.7638	-0.233
Mof_H 	H 	0.1344	0.6306	0.7842	0.11
Mof_C 	C 	0.1807	0.6282	0.7051	0.145
Mof_H 	H 	0.1925	0.6598	0.6851	-0.008
Mof_O 	O 	0.7497	0.3395	0.5847	-0.407
Mof_C 	C 	0.8541	0.4647	0.7638	-0.232
Mof_H 	H 	0.8656	0.4962	0.7842	0.11
Mof_C 	C 	0.8193	0.4475	0.7051	0.145
Mof_H 	H 	0.8075	0.4673	0.6851	-0.007
Mof_O 	O 	0.6605	0.4102	0.5847	-0.407
Mof_C 	C 	0.5353	0.3894	0.7638	-0.232
Mof_H 	H 	0.5038	0.3694	0.7842	0.11
Mof_C 	C 	0.5525	0.3718	0.7051	0.145
Mof_H 	H 	0.5327	0.3402	0.6851	-0.008
Mof_O 	O 	0.5898	0.2503	0.5847	-0.408
Mof_C 	C 	0.6106	0.1459	0.7638	-0.233
Mof_H 	H 	0.6306	0.1344	0.7842	0.11
Mof_C 	C 	0.6282	0.1807	0.7051	0.145
Mof_H 	H 	0.6598	0.1925	0.6851	-0.008
Mof_O 	O 	0.2503	0.6605	0.5847	-0.408
Mof_C 	C 	0.1459	0.5353	0.7638	-0.233
Mof_H 	H 	0.1344	0.5038	0.7842	0.11
Mof_C 	C 	0.1807	0.5525	0.7051	0.145
Mof_H 	H 	0.1925	0.5327	0.6851	-0.008
Mof_O 	O 	0.3395	0.5898	0.5847	-0.408
Mof_C 	C 	0.4647	0.6106	0.7638	-0.232
Mof_H 	H 	0.4962	0.6306	0.7842	0.11
Mof_C 	C 	0.4475	0.6282	0.7051	0.145
Mof_H 	H 	0.4673	0.6598	0.6851	-0.007
Mof_O 	O 	0.4102	0.7497	0.5847	-0.407
Mof_C 	C 	0.3894	0.8541	0.7638	-0.232
Mof_H 	H 	0.3694	0.8656	0.7842	0.11
Mof_C 	C 	0.3718	0.8193	0.7051	0.145
Mof_H 	H 	0.3402	0.8075	0.6851	-0.008
Mof_O 	O 	0.3395	0.7497	0.4153	-0.408
Mof_C 	C 	0.4647	0.8541	0.2362	-0.235
Mof_H 	H 	0.4962	0.8656	0.2158	0.107
Mof_C 	C 	0.4475	0.8193	0.2949	0.145
Mof_H 	H 	0.4673	0.8075	0.3149	-0.009
Mof_O 	O 	0.4102	0.6605	0.4153	-0.408
Mof_C 	C 	0.3894	0.5353	0.2362	-0.235
Mof_H 	H 	0.3694	0.5038	0.2158	0.106
Mof_C 	C 	0.3718	0.5525	0.2949	0.144
Mof_H 	H 	0.3402	0.5327	0.3149	-0.01
Mof_O 	O 	0.2503	0.5898	0.4153	-0.409
Mof_C 	C 	0.1459	0.6106	0.2362	-0.235
Mof_H 	H 	0.1344	0.6306	0.2158	0.107
Mof_C 	C 	0.1807	0.6282	0.2949	0.145
Mof_H 	H 	0.1925	0.6598	0.3149	-0.01
Mof_O 	O 	0.6605	0.2503	0.4153	-0.409
Mof_C 	C 	0.5353	0.1459	0.2362	-0.235
Mof_H 	H 	0.5038	0.1344	0.2158	0.106
Mof_C 	C 	0.5525	0.1807	0.2949	0.145
Mof_H 	H 	0.5327	0.1925	0.3149	-0.01
Mof_O 	O 	0.5898	0.3395	0.4153	-0.409
Mof_C 	C 	0.6106	0.4647	0.2362	-0.235
Mof_H 	H 	0.6306	0.4962	0.2158	0.107
Mof_C 	C 	0.6282	0.4475	0.2949	0.144
Mof_H 	H 	0.6598	0.4673	0.3149	-0.009
Mof_O 	O 	0.7497	0.4102	0.4153	-0.408
Mof_C 	C 	0.8541	0.3894	0.2362	-0.235
Mof_H 	H 	0.8656	0.3694	0.2158	0.107
Mof_C 	C 	0.8193	0.3718	0.2949	0.145
Mof_H 	H 	0.8075	0.3402	0.3149	-0.009
Mof_Fe	Fe	0.29796	0.70204	0.5	0.98
Mof_Fe	Fe	0.29796	0.59592	0.5	0.979
Mof_Fe	Fe	0.40408	0.70204	0.5	0.98
Mof_Fe	Fe	0.70204	0.29796	0.5	0.98
Mof_Fe	Fe	0.70204	0.40408	0.5	0.98
Mof_Fe	Fe	0.59592	0.29796	0.5	0.979
Mof_Co	Co	-0	0.4923	-0	0.57
Mof_Co	Co	0.5077	0.5077	-0	0.572
Mof_Co	Co	0.4923	0	-0	0.57
Mof_Co	Co	-0	0.5077	-0	0.571
Mof_Co	Co	0.4923	0.4923	-0	0.571
Mof_Co	Co	0.5077	0	-0	0.571
Mof_O 	O 	0.33333	0.66667	0.5	-0.528
Mof_O 	O 	0.66667	0.33333	0.5	-0.528
Mof_C 	C 	0.04	0.52	0.1656	0.116
Mof_C 	C 	0.1027	0.55135	0.0646	0.126
Mof_C 	C 	0.0884	0.5442	0.1424	-0.191
Mof_C 	C 	0.0244	0.5122	0.2457	-0.106
Mof_H 	H 	0.0447	0.52235	0.29	0.067
Mof_C 	C 	0.1535	0.57675	0.0391	-0.142
Mof_H 	H 	0.1811	0.59055	0.0717	0.077
Mof_C 	C 	0.1277	0.56385	0.2073	0.183
Mof_C 	C 	0.1979	0.59895	0.3239	-0.208
Mof_C 	C 	0.2359	0.61795	0.3897	0.439
Mof_C 	C 	0.48	0.52	0.1656	0.112
Mof_C 	C 	0.44865	0.55135	0.0646	0.125
Mof_C 	C 	0.4558	0.5442	0.1424	-0.189
Mof_C 	C 	0.4878	0.5122	0.2457	-0.093
Mof_H 	H 	0.47765	0.52235	0.29	0.064
Mof_C 	C 	0.42325	0.57675	0.0391	-0.142
Mof_H 	H 	0.40945	0.59055	0.0717	0.077
Mof_C 	C 	0.43615	0.56385	0.2073	0.182
Mof_C 	C 	0.40105	0.59895	0.3239	-0.207
Mof_C 	C 	0.38205	0.61795	0.3897	0.439
Mof_C 	C 	0.48	0.96	0.1656	0.114
Mof_C 	C 	0.44865	0.8973	0.0646	0.126
Mof_C 	C 	0.4558	0.9116	0.1424	-0.189
Mof_C 	C 	0.4878	0.9756	0.2457	-0.08
Mof_H 	H 	0.47765	0.9553	0.29	0.061
Mof_C 	C 	0.42325	0.8465	0.0391	-0.141
Mof_H 	H 	0.40945	0.8189	0.0717	0.077
Mof_C 	C 	0.43615	0.8723	0.2073	0.182
Mof_C 	C 	0.40105	0.8021	0.3239	-0.207
Mof_C 	C 	0.38205	0.7641	0.3897	0.439
Mof_C 	C 	0.96	0.48	0.1656	0.114
Mof_C 	C 	0.8973	0.44865	0.0646	0.126
Mof_C 	C 	0.9116	0.4558	0.1424	-0.189
Mof_C 	C 	0.9756	0.4878	0.2457	-0.08
Mof_H 	H 	0.9553	0.47765	0.29	0.061
Mof_C 	C 	0.8465	0.42325	0.0391	-0.141
Mof_H 	H 	0.8189	0.40945	0.0717	0.077
Mof_C 	C 	0.8723	0.43615	0.2073	0.182
Mof_C 	C 	0.8021	0.40105	0.3239	-0.207
Mof_C 	C 	0.7641	0.38205	0.3897	0.439
Mof_C 	C 	0.52	0.48	0.1656	0.112
Mof_C 	C 	0.55135	0.44865	0.0646	0.125
Mof_C 	C 	0.5442	0.4558	0.1424	-0.189
Mof_C 	C 	0.5122	0.4878	0.2457	-0.093
Mof_H 	H 	0.52235	0.47765	0.29	0.064
Mof_C 	C 	0.57675	0.42325	0.0391	-0.142
Mof_H 	H 	0.59055	0.40945	0.0717	0.077
Mof_C 	C 	0.56385	0.43615	0.2073	0.182
Mof_C 	C 	0.59895	0.40105	0.3239	-0.207
Mof_C 	C 	0.61795	0.38205	0.3897	0.439
Mof_C 	C 	0.52	0.04	0.1656	0.116
Mof_C 	C 	0.55135	0.1027	0.0646	0.126
Mof_C 	C 	0.5442	0.0884	0.1424	-0.191
Mof_C 	C 	0.5122	0.0244	0.2457	-0.106
Mof_H 	H 	0.52235	0.0447	0.29	0.067
Mof_C 	C 	0.57675	0.1535	0.0391	-0.142
Mof_H 	H 	0.59055	0.1811	0.0717	0.077
Mof_C 	C 	0.56385	0.1277	0.2073	0.183
Mof_C 	C 	0.59895	0.1979	0.3239	-0.208
Mof_C 	C 	0.61795	0.2359	0.3897	0.439
Mof_C 	C 	0.52	0.04	0.8344	0.117
Mof_C 	C 	0.55135	0.1027	0.9354	0.121
Mof_C 	C 	0.5442	0.0884	0.8576	-0.182
Mof_C 	C 	0.5122	0.0244	0.7543	-0.103
Mof_H 	H 	0.52235	0.0447	0.71	0.068
Mof_C 	C 	0.57675	0.1535	0.9609	-0.041
Mof_H 	H 	0.59055	0.1811	0.9283	0.052
Mof_C 	C 	0.56385	0.1277	0.7927	0.182
Mof_C 	C 	0.59895	0.1979	0.6761	-0.206
Mof_C 	C 	0.61795	0.2359	0.6103	0.439
Mof_C 	C 	0.52	0.48	0.8344	0.114
Mof_C 	C 	0.55135	0.44865	0.9354	0.12
Mof_C 	C 	0.5442	0.4558	0.8576	-0.18
Mof_C 	C 	0.5122	0.4878	0.7543	-0.091
Mof_H 	H 	0.52235	0.47765	0.71	0.064
Mof_C 	C 	0.57675	0.42325	0.9609	-0.041
Mof_H 	H 	0.59055	0.40945	0.9283	0.052
Mof_C 	C 	0.56385	0.43615	0.7927	0.181
Mof_C 	C 	0.59895	0.40105	0.6761	-0.206
Mof_C 	C 	0.61795	0.38205	0.6103	0.439
Mof_C 	C 	0.96	0.48	0.8344	0.116
Mof_C 	C 	0.8973	0.44865	0.9354	0.121
Mof_C 	C 	0.9116	0.4558	0.8576	-0.18
Mof_C 	C 	0.9756	0.4878	0.7543	-0.08
Mof_H 	H 	0.9553	0.47765	0.71	0.062
Mof_C 	C 	0.8465	0.42325	0.9609	-0.042
Mof_H 	H 	0.8189	0.40945	0.9283	0.052
Mof_C 	C 	0.8723	0.43615	0.7927	0.181
Mof_C 	C 	0.8021	0.40105	0.6761	-0.205
Mof_C 	C 	0.7641	0.38205	0.6103	0.439
Mof_C 	C 	0.48	0.96	0.8344	0.116
Mof_C 	C 	0.44865	0.8973	0.9354	0.121
Mof_C 	C 	0.4558	0.9116	0.8576	-0.18
Mof_C 	C 	0.4878	0.9756	0.7543	-0.08
Mof_H 	H 	0.47765	0.9553	0.71	0.062
Mof_C 	C 	0.42325	0.8465	0.9609	-0.042
Mof_H 	H 	0.40945	0.8189	0.9283	0.052
Mof_C 	C 	0.43615	0.8723	0.7927	0.181
Mof_C 	C 	0.40105	0.8021	0.6761	-0.205
Mof_C 	C 	0.38205	0.7641	0.6103	0.439
Mof_C 	C 	0.48	0.52	0.8344	0.114
Mof_C 	C 	0.44865	0.55135	0.9354	0.12
Mof_C 	C 	0.4558	0.5442	0.8576	-0.18
Mof_C 	C 	0.4878	0.5122	0.7543	-0.091
Mof_H 	H 	0.47765	0.52235	0.71	0.064
Mof_C 	C 	0.42325	0.57675	0.9609	-0.041
Mof_H 	H 	0.40945	0.59055	0.9283	0.052
Mof_C 	C 	0.43615	0.56385	0.7927	0.181
Mof_C 	C 	0.40105	0.59895	0.6761	-0.206
Mof_C 	C 	0.38205	0.61795	0.6103	0.439
Mof_C 	C 	0.04	0.52	0.8344	0.117
Mof_C 	C 	0.1027	0.55135	0.9354	0.121
Mof_C 	C 	0.0884	0.5442	0.8576	-0.182
Mof_C 	C 	0.0244	0.5122	0.7543	-0.103
Mof_H 	H 	0.0447	0.52235	0.71	0.068
Mof_C 	C 	0.1535	0.57675	0.9609	-0.041
Mof_H 	H 	0.1811	0.59055	0.9283	0.052
Mof_C 	C 	0.1277	0.56385	0.7927	0.182
Mof_C 	C 	0.1979	0.59895	0.6761	-0.206
Mof_C 	C 	0.2359	0.61795	0.6103	0.439
Mof_N 	N 	2.38923e-17	0.5	0.1166	-0.306
Mof_N 	N 	0.5	0.5	0.1166	-0.302
Mof_N 	N 	0.5	8.76927e-34	0.1166	-0.306
Mof_N 	N 	0.5	7.01542e-33	0.8834	-0.297
Mof_N 	N 	0.5	0.5	0.8834	-0.294
Mof_N 	N 	3.64283e-17	0.5	0.8834	-0.297
Mof_N 	N 	0.0741	0.53705	-0	-0.311
Mof_N 	N 	0.46295	0.53705	-0	-0.31
Mof_N 	N 	0.46295	0.9259	-0	-0.308
Mof_N 	N 	0.9259	0.46295	-0	-0.308
Mof_N 	N 	0.53705	0.46295	-0	-0.31
Mof_N 	N 	0.53705	0.0741	-0	-0.311
_end
