data_functionalizedCrystal
_audit_creation_method	'EQeq! by Chris Wilmer'
_symmetry_space_group_name_H-M	'P1'
_symmetry_Int_Tables_number	1
_symmetry_cell_setting	triclinic
loop_
_symmetry_equiv_pos_as_xyz
  x,y,z
_cell_length_a	9.3939
_cell_length_b	11.5186
_cell_length_c	17.5535
_cell_angle_alpha	105.289
_cell_angle_beta	90
_cell_angle_gamma	114.065
loop_
_atom_site_label
_atom_site_type_symbol
_atom_site_fract_x
_atom_site_fract_y
_atom_site_fract_z
_atom_site_charge
Mof_La	La	0.66858	0.97134	0.92668	2.261
Mof_La	La	0.69724	0.02866	0.57332	2.289
Mof_La	La	0.33142	0.02866	0.07332	2.261
Mof_La	La	0.30276	0.97134	0.42668	2.289
Mof_Cu	Cu	0.09512	0.33006	0.13784	0.841
Mof_Cu	Cu	0.76506	0.66994	0.36216	0.843
Mof_Cu	Cu	0.90488	0.66994	0.86216	0.841
Mof_Cu	Cu	0.23494	0.33006	0.63784	0.843
Mof_H 	H 	0.5571	0.1952	0.7785	0.044
Mof_H 	H 	0.4981	0.293	0.6923	-0.017
Mof_H 	H 	0.0929	0.2316	0.7682	0.007
Mof_H 	H 	0.143	0.1366	0.8589	0.045
Mof_H 	H 	0.1782	0.7152	0.0515	0.023
Mof_H 	H 	0.0827	0.5652	0.123	-0.005
Mof_H 	H 	0.2793	0.3496	0.0023	0.005
Mof_H 	H 	0.3871	0.498	0.9299	0.047
Mof_H 	H 	0.3619	0.8048	0.7215	0.041
Mof_H 	H 	0.2051	0.707	0.8077	-0.015
Mof_H 	H 	0.8613	0.7684	0.7318	0.015
Mof_H 	H 	0.0064	0.8634	0.6411	0.039
Mof_H 	H 	0.463	0.2848	0.4485	0.021
Mof_H 	H 	0.5175	0.4348	0.377	-0.004
Mof_H 	H 	0.9297	0.6504	0.4977	0.004
Mof_H 	H 	0.8891	0.502	0.5701	0.047
Mof_H 	H 	0.4429	0.8048	0.2215	0.044
Mof_H 	H 	0.5019	0.707	0.3077	-0.017
Mof_H 	H 	0.9071	0.7684	0.2318	0.007
Mof_H 	H 	0.857	0.8634	0.1411	0.045
Mof_H 	H 	0.8218	0.2848	0.9485	0.023
Mof_H 	H 	0.9173	0.4348	0.877	-0.005
Mof_H 	H 	0.7207	0.6504	0.9977	0.005
Mof_H 	H 	0.6129	0.502	0.0701	0.047
Mof_H 	H 	0.6381	0.1952	0.2785	0.041
Mof_H 	H 	0.7949	0.293	0.1923	-0.015
Mof_H 	H 	0.1387	0.2316	0.2682	0.015
Mof_H 	H 	0.9936	0.1366	0.3589	0.039
Mof_H 	H 	0.537	0.7152	0.5515	0.021
Mof_H 	H 	0.4825	0.5652	0.623	-0.004
Mof_H 	H 	0.0703	0.3496	0.5023	0.004
Mof_H 	H 	0.1109	0.498	0.4299	0.047
Mof_C 	C 	0.38939	0.08558	0.88368	0.462
Mof_C 	C 	0.35456	0.15212	0.82739	-0.101
Mof_C 	C 	0.4612	0.201	0.7773	-0.03
Mof_C 	C 	0.4243	0.2586	0.7252	0.024
Mof_C 	C 	0.1872	0.2234	0.7699	0.02
Mof_C 	C 	0.2161	0.1656	0.8246	-0.027
Mof_C 	C 	0.39009	0.73778	0.94854	0.375
Mof_C 	C 	0.30368	0.62896	0.98639	-0.095
Mof_C 	C 	0.20511	0.64382	0.0422	-0.025
Mof_C 	C 	0.1463	0.552	0.0841	0.017
Mof_C 	C 	0.2621	0.426	0.0139	0.029
Mof_C 	C 	0.32759	0.51518	0.9701	-0.043
Mof_C 	C 	0.98029	0.92698	0.97621	0.26
Mof_C 	C 	0.706	0.924	0.73177	0.255
Mof_C 	C 	0.30381	0.91442	0.61632	0.468
Mof_C 	C 	0.20244	0.84788	0.67261	-0.111
Mof_C 	C 	0.2602	0.799	0.7227	-0.021
Mof_C 	C 	0.1657	0.7414	0.7748	0.019
Mof_C 	C 	0.9638	0.7766	0.7301	-0.003
Mof_C 	C 	0.0505	0.8344	0.6754	-0.007
Mof_C 	C 	0.65231	0.26222	0.55146	0.377
Mof_C 	C 	0.67472	0.37104	0.51361	-0.096
Mof_C 	C 	0.56129	0.35618	0.4578	-0.024
Mof_C 	C 	0.5943	0.448	0.4159	0.017
Mof_C 	C 	0.8361	0.574	0.4861	0.033
Mof_C 	C 	0.81241	0.48482	0.5299	-0.046
Mof_C 	C 	0.05331	0.07302	0.52379	0.266
Mof_C 	C 	0.782	0.076	0.76823	0.266
Mof_C 	C 	0.61061	0.91442	0.11632	0.462
Mof_C 	C 	0.64544	0.84788	0.17261	-0.101
Mof_C 	C 	0.5388	0.799	0.2227	-0.03
Mof_C 	C 	0.5757	0.7414	0.2748	0.024
Mof_C 	C 	0.8128	0.7766	0.2301	0.02
Mof_C 	C 	0.7839	0.8344	0.1754	-0.027
Mof_C 	C 	0.60991	0.26222	0.05146	0.375
Mof_C 	C 	0.69632	0.37104	0.01361	-0.095
Mof_C 	C 	0.79489	0.35618	0.9578	-0.025
Mof_C 	C 	0.8537	0.448	0.9159	0.017
Mof_C 	C 	0.7379	0.574	0.9861	0.029
Mof_C 	C 	0.67241	0.48482	0.0299	-0.043
Mof_C 	C 	0.01971	0.07302	0.02379	0.26
Mof_C 	C 	0.294	0.076	0.26823	0.255
Mof_C 	C 	0.69619	0.08558	0.38368	0.468
Mof_C 	C 	0.79756	0.15212	0.32739	-0.111
Mof_C 	C 	0.7398	0.201	0.2773	-0.021
Mof_C 	C 	0.8343	0.2586	0.2252	0.019
Mof_C 	C 	0.0362	0.2234	0.2699	-0.003
Mof_C 	C 	0.9495	0.1656	0.3246	-0.007
Mof_C 	C 	0.34769	0.73778	0.44854	0.377
Mof_C 	C 	0.32528	0.62896	0.48639	-0.096
Mof_C 	C 	0.43871	0.64382	0.5422	-0.024
Mof_C 	C 	0.4057	0.552	0.5841	0.017
Mof_C 	C 	0.1639	0.426	0.5139	0.033
Mof_C 	C 	0.18759	0.51518	0.4701	-0.046
Mof_C 	C 	0.94669	0.92698	0.47621	0.266
Mof_C 	C 	0.218	0.924	0.23177	0.266
Mof_N 	N 	0.28773	0.26746	0.71982	-0.245
Mof_N 	N 	0.17592	0.44524	0.07185	-0.243
Mof_N 	N 	0.02027	0.73254	0.78018	-0.236
Mof_N 	N 	0.73068	0.55476	0.42815	-0.243
Mof_N 	N 	0.71227	0.73254	0.28018	-0.245
Mof_N 	N 	0.82408	0.55476	0.92815	-0.243
Mof_N 	N 	0.97973	0.26746	0.21982	-0.236
Mof_N 	N 	0.26932	0.44524	0.57185	-0.243
Mof_O 	O 	0.48925	0.0397	0.86598	-0.522
Mof_O 	O 	0.31772	0.08264	0.94366	-0.505
Mof_O 	O 	0.48219	0.72158	0.89999	-0.46
Mof_O 	O 	0.37424	0.84548	0.97092	-0.582
Mof_O 	O 	0.8653	0.8696	0.92299	-0.502
Mof_O 	O 	0.06556	0.87692	0.99512	-0.471
Mof_O 	O 	0.65377	0.85574	0.77914	-0.431
Mof_O 	O 	0.70607	0.88174	0.65847	-0.425
Mof_O 	O 	0.44955	0.9603	0.63402	-0.529
Mof_O 	O 	0.23508	0.91736	0.55634	-0.51
Mof_O 	O 	0.76061	0.27842	0.60001	-0.462
Mof_O 	O 	0.52876	0.15452	0.52908	-0.586
Mof_O 	O 	0.9957	0.1304	0.57701	-0.499
Mof_O 	O 	0.18864	0.12308	0.50488	-0.483
Mof_O 	O 	0.79803	0.14426	0.72086	-0.434
Mof_O 	O 	0.82433	0.11826	0.84153	-0.422
Mof_O 	O 	0.51075	0.9603	0.13402	-0.522
Mof_O 	O 	0.68228	0.91736	0.05634	-0.505
Mof_O 	O 	0.51781	0.27842	0.10001	-0.46
Mof_O 	O 	0.62576	0.15452	0.02908	-0.582
Mof_O 	O 	0.1347	0.1304	0.07701	-0.502
Mof_O 	O 	0.93444	0.12308	0.00488	-0.471
Mof_O 	O 	0.34623	0.14426	0.22086	-0.431
Mof_O 	O 	0.29393	0.11826	0.34153	-0.425
Mof_O 	O 	0.55045	0.0397	0.36598	-0.529
Mof_O 	O 	0.76492	0.08264	0.44366	-0.51
Mof_O 	O 	0.23939	0.72158	0.39999	-0.462
Mof_O 	O 	0.47124	0.84548	0.47092	-0.586
Mof_O 	O 	0.0043	0.8696	0.42299	-0.499
Mof_O 	O 	0.81136	0.87692	0.49512	-0.483
Mof_O 	O 	0.20197	0.85574	0.27914	-0.434
Mof_O 	O 	0.17567	0.88174	0.15847	-0.422
_end
