data_functionalizedCrystal
_audit_creation_method	'EQeq! by Chris Wilmer'
_symmetry_space_group_name_H-M	'P1'
_symmetry_Int_Tables_number	1
_symmetry_cell_setting	triclinic
loop_
_symmetry_equiv_pos_as_xyz
  x,y,z
_cell_length_a	15.75
_cell_length_b	14.501
_cell_length_c	19.363
_cell_angle_alpha	90
_cell_angle_beta	113.67
_cell_angle_gamma	90
loop_
_atom_site_label
_atom_site_type_symbol
_atom_site_fract_x
_atom_site_fract_y
_atom_site_fract_z
_atom_site_charge
Mof_Cd	Cd	0.20624	0.85687	0.46326	0.518
Mof_Cd	Cd	0.65509	0.3005	0.34824	0.49
Mof_Cd	Cd	0.76699	0.41976	0.2152	0.491
Mof_O 	O 	0.0909	0.9533	0.38517	-0.267
Mof_O 	O 	0.8834	0.2265	0.10632	-0.251
Mof_O 	O 	0.7899	0.2983	0.14822	-0.29
Mof_O 	O 	0.3047	0.9732	0.50186	-0.277
Mof_O 	O 	0.6675	0.2466	0.47698	-0.271
Mof_O 	O 	0.8684	0.1274	0.46074	-0.255
Mof_O 	O 	0.7371	0.1667	0.3644	-0.268
Mof_O 	O 	0.7778	0.3828	0.41488	-0.272
Mof_O 	O 	0.6501	0.1715	0.72833	-0.293
Mof_O 	O 	0.5079	0.1934	0.72032	-0.238
Mof_O 	O 	0.5417	0.2263	0.37277	-0.25
Mof_O 	O 	0.8475	0.3714	0.33493	-0.276
Mof_O 	O 	0.1039	0.991	0.27738	-0.277
Mof_O 	O 	0.3149	0.9961	0.39092	-0.289
Mof_C 	C 	0.0683	0.9965	0.3251	0.356
Mof_C 	C 	0.9873	0.0623	0.3054	-0.143
Mof_C 	C 	0.8508	0.2358	0.1546	0.332
Mof_C 	C 	0.8814	0.1749	0.2229	-0.14
Mof_C 	C 	0.9565	0.1146	0.2396	0.125
Mof_C 	C 	0.585	0.2181	0.4432	0.323
Mof_C 	C 	0.5362	0.1764	0.4879	-0.138
Mof_C 	C 	0.5709	0.1925	0.5655	0.116
Mof_C 	C 	0.5253	0.1547	0.6074	-0.14
Mof_C 	C 	0.3382	0.0114	0.4602	0.349
Mof_C 	C 	0.4152	0.0801	0.4958	-0.145
Mof_C 	C 	0.4583	0.1202	0.4534	0.123
Mof_C 	C 	0.821	0.1432	0.3916	0.341
Mof_C 	C 	0.8683	0.1303	0.3384	-0.136
Mof_C 	C 	0.9445	0.0723	0.3557	0.133
Mof_C 	C 	0.8344	0.1804	0.2703	0.125
Mof_C 	C 	0.8443	0.3973	0.3954	0.329
Mof_C 	C 	0.9252	0.4503	0.4496	-0.086
Mof_C 	C 	0.9856	0.4944	0.4239	0.043
Mof_C 	C 	0.9392	0.4564	0.526	0.054
Mof_C 	C 	0.5622	0.1743	0.6903	0.325
Mof_C 	C 	0.4475	0.0994	0.5731	0.125
Mof_Cd	Cd	0.79376	0.35687	0.03674	0.518
Mof_Cd	Cd	0.34491	0.8005	0.15176	0.491
Mof_Cd	Cd	0.23301	0.91976	0.2848	0.491
Mof_O 	O 	0.9091	0.4533	0.11483	-0.267
Mof_O 	O 	0.1166	0.7265	0.39368	-0.25
Mof_O 	O 	0.2101	0.7983	0.35178	-0.29
Mof_O 	O 	0.6953	0.4732	0.99814	-0.276
Mof_O 	O 	0.3325	0.7466	0.02302	-0.271
Mof_O 	O 	0.1316	0.6274	0.03926	-0.254
Mof_O 	O 	0.2629	0.6667	0.1356	-0.267
Mof_O 	O 	0.2222	0.8828	0.08512	-0.271
Mof_O 	O 	0.3499	0.6715	0.77167	-0.293
Mof_O 	O 	0.4921	0.6934	0.77968	-0.238
Mof_O 	O 	0.4583	0.7263	0.12723	-0.25
Mof_O 	O 	0.1525	0.8714	0.16507	-0.276
Mof_O 	O 	0.8961	0.491	0.22262	-0.277
Mof_O 	O 	0.6851	0.4961	0.10908	-0.289
Mof_C 	C 	0.9317	0.4965	0.1749	0.353
Mof_C 	C 	0.0127	0.5623	0.1946	-0.14
Mof_C 	C 	0.1492	0.7358	0.3454	0.332
Mof_C 	C 	0.1186	0.6749	0.2771	-0.14
Mof_C 	C 	0.0435	0.6146	0.2604	0.125
Mof_C 	C 	0.415	0.7181	0.0568	0.323
Mof_C 	C 	0.4638	0.6764	0.0121	-0.137
Mof_C 	C 	0.4291	0.6925	0.9345	0.116
Mof_C 	C 	0.4747	0.6547	0.8926	-0.14
Mof_C 	C 	0.6618	0.5114	0.0398	0.349
Mof_C 	C 	0.5848	0.5801	0.0042	-0.145
Mof_C 	C 	0.5417	0.6202	0.0466	0.123
Mof_C 	C 	0.179	0.6432	0.1084	0.341
Mof_C 	C 	0.1317	0.6303	0.1616	-0.136
Mof_C 	C 	0.0555	0.5723	0.1443	0.133
Mof_C 	C 	0.1656	0.6804	0.2297	0.125
Mof_C 	C 	0.1557	0.8973	0.1046	0.328
Mof_C 	C 	0.0748	0.9503	0.0504	-0.083
Mof_C 	C 	0.0144	0.9944	0.0761	0.047
Mof_C 	C 	0.0608	0.9564	0.974	0.048
Mof_C 	C 	0.4378	0.6743	0.8097	0.325
Mof_C 	C 	0.5525	0.5994	0.9269	0.125
Mof_Cd	Cd	0.79376	0.14313	0.53674	0.519
Mof_Cd	Cd	0.34491	0.6995	0.65176	0.491
Mof_Cd	Cd	0.23301	0.58024	0.7848	0.491
Mof_O 	O 	0.9091	0.0467	0.61483	-0.267
Mof_O 	O 	0.1166	0.7735	0.89368	-0.251
Mof_O 	O 	0.2101	0.7017	0.85178	-0.29
Mof_O 	O 	0.6953	0.0268	0.49814	-0.277
Mof_O 	O 	0.3325	0.7534	0.52302	-0.271
Mof_O 	O 	0.1316	0.8726	0.53926	-0.255
Mof_O 	O 	0.2629	0.8333	0.6356	-0.268
Mof_O 	O 	0.2222	0.6172	0.58512	-0.272
Mof_O 	O 	0.3499	0.8285	0.27167	-0.293
Mof_O 	O 	0.4921	0.8066	0.27968	-0.238
Mof_O 	O 	0.4583	0.7737	0.62723	-0.25
Mof_O 	O 	0.1525	0.6286	0.66507	-0.276
Mof_O 	O 	0.8961	0.009	0.72262	-0.277
Mof_O 	O 	0.6851	0.0039	0.60908	-0.289
Mof_C 	C 	0.9317	0.0035	0.6749	0.356
Mof_C 	C 	0.0127	0.9377	0.6946	-0.143
Mof_C 	C 	0.1492	0.7642	0.8454	0.332
Mof_C 	C 	0.1186	0.8251	0.7771	-0.14
Mof_C 	C 	0.0435	0.8854	0.7604	0.125
Mof_C 	C 	0.415	0.7819	0.5568	0.323
Mof_C 	C 	0.4638	0.8236	0.5121	-0.138
Mof_C 	C 	0.4291	0.8075	0.4345	0.116
Mof_C 	C 	0.4747	0.8453	0.3926	-0.14
Mof_C 	C 	0.6618	0.9886	0.5398	0.349
Mof_C 	C 	0.5848	0.9199	0.5042	-0.145
Mof_C 	C 	0.5417	0.8798	0.5466	0.123
Mof_C 	C 	0.179	0.8568	0.6084	0.341
Mof_C 	C 	0.1317	0.8697	0.6616	-0.136
Mof_C 	C 	0.0555	0.9277	0.6443	0.133
Mof_C 	C 	0.1656	0.8196	0.7297	0.125
Mof_C 	C 	0.1557	0.6027	0.6046	0.329
Mof_C 	C 	0.0748	0.5497	0.5504	-0.086
Mof_C 	C 	0.0144	0.5056	0.5761	0.043
Mof_C 	C 	0.0608	0.5436	0.474	0.054
Mof_C 	C 	0.4378	0.8257	0.3097	0.325
Mof_C 	C 	0.5525	0.9006	0.4269	0.125
Mof_Cd	Cd	0.20624	0.64313	0.96326	0.518
Mof_Cd	Cd	0.65509	0.1995	0.84824	0.491
Mof_Cd	Cd	0.76699	0.08024	0.7152	0.491
Mof_O 	O 	0.0909	0.5467	0.88517	-0.267
Mof_O 	O 	0.8834	0.2735	0.60632	-0.25
Mof_O 	O 	0.7899	0.2017	0.64822	-0.29
Mof_O 	O 	0.3047	0.5268	0.00186	-0.276
Mof_O 	O 	0.6675	0.2534	0.97698	-0.271
Mof_O 	O 	0.8684	0.3726	0.96074	-0.254
Mof_O 	O 	0.7371	0.3333	0.8644	-0.267
Mof_O 	O 	0.7778	0.1172	0.91488	-0.271
Mof_O 	O 	0.6501	0.3285	0.22833	-0.293
Mof_O 	O 	0.5079	0.3066	0.22032	-0.238
Mof_O 	O 	0.5417	0.2737	0.87277	-0.25
Mof_O 	O 	0.8475	0.1286	0.83493	-0.276
Mof_O 	O 	0.1039	0.509	0.77738	-0.277
Mof_O 	O 	0.3149	0.5039	0.89092	-0.289
Mof_C 	C 	0.0683	0.5035	0.8251	0.353
Mof_C 	C 	0.9873	0.4377	0.8054	-0.14
Mof_C 	C 	0.8508	0.2642	0.6546	0.332
Mof_C 	C 	0.8814	0.3251	0.7229	-0.14
Mof_C 	C 	0.9565	0.3854	0.7396	0.125
Mof_C 	C 	0.585	0.2819	0.9432	0.323
Mof_C 	C 	0.5362	0.3236	0.9879	-0.137
Mof_C 	C 	0.5709	0.3075	0.0655	0.116
Mof_C 	C 	0.5253	0.3453	0.1074	-0.14
Mof_C 	C 	0.3382	0.4886	0.9602	0.349
Mof_C 	C 	0.4152	0.4199	0.9958	-0.145
Mof_C 	C 	0.4583	0.3798	0.9534	0.123
Mof_C 	C 	0.821	0.3568	0.8916	0.341
Mof_C 	C 	0.8683	0.3697	0.8384	-0.136
Mof_C 	C 	0.9445	0.4277	0.8557	0.133
Mof_C 	C 	0.8344	0.3196	0.7703	0.125
Mof_C 	C 	0.8443	0.1027	0.8954	0.328
Mof_C 	C 	0.9252	0.0497	0.9496	-0.083
Mof_C 	C 	0.9856	0.0056	0.9239	0.047
Mof_C 	C 	0.9392	0.0436	0.026	0.048
Mof_C 	C 	0.5622	0.3257	0.1903	0.325
Mof_C 	C 	0.4475	0.4006	0.0731	0.125
_end
