data_functionalizedCrystal
_audit_creation_method	'EQeq! by Chris Wilmer'
_symmetry_space_group_name_H-M	'P1'
_symmetry_Int_Tables_number	1
_symmetry_cell_setting	triclinic
loop_
_symmetry_equiv_pos_as_xyz
  x,y,z
_cell_length_a	13.3294
_cell_length_b	16.202
_cell_length_c	20.283
_cell_angle_alpha	90
_cell_angle_beta	99.496
_cell_angle_gamma	90
loop_
_atom_site_label
_atom_site_type_symbol
_atom_site_fract_x
_atom_site_fract_y
_atom_site_fract_z
_atom_site_charge
Mof_Cd	Cd	0.32432	0.49806	0.35787	0.446
Mof_Cd	Cd	0.67568	0.99806	0.14213	0.445
Mof_Cd	Cd	0.32432	0.00194	0.85787	0.445
Mof_Cd	Cd	0.03022	0.19844	0.23516	0.419
Mof_Cd	Cd	0.67568	0.50194	0.64213	0.445
Mof_Cd	Cd	0.03022	0.30156	0.73516	0.419
Mof_Cd	Cd	0.96978	0.80156	0.76484	0.418
Mof_Cd	Cd	0.96978	0.69844	0.26484	0.419
Mof_H 	H 	0.0399	0.9166	0.1485	0.065
Mof_H 	H 	0.8506	0.3483	0.5138	0.063
Mof_H 	H 	0.5559	0.8765	0.6801	0.143
Mof_H 	H 	0.4458	0.6158	0.48	0.021
Mof_H 	H 	0.8559	0.5883	0.4721	0.06
Mof_H 	H 	0.7735	0.3057	0.6578	0.056
Mof_H 	H 	0.2981	0.5677	0.568	0.081
Mof_H 	H 	0.5542	0.3842	0.52	0.021
Mof_H 	H 	0.2993	0.822	0.5529	0.148
Mof_H 	H 	0.6885	0.2444	0.7513	0.037
Mof_H 	H 	0.5421	0.3149	0.2748	0.07
Mof_H 	H 	0.2725	0.8089	0.4189	0.038
Mof_H 	H 	0.6885	0.2556	0.2513	0.037
Mof_H 	H 	0.432	0.2324	0.9812	0.15
Mof_H 	H 	0.5542	0.1158	0.02	0.021
Mof_H 	H 	0.284	0.3296	0.7839	-0.004
Mof_H 	H 	0.4441	0.3765	0.8199	0.143
Mof_H 	H 	0.4579	0.6851	0.7252	0.07
Mof_H 	H 	0.9601	0.4166	0.3515	0.066
Mof_H 	H 	0.2633	0.266	0.9663	0.032
Mof_H 	H 	0.2287	0.9313	0.6005	0.033
Mof_H 	H 	0.5559	0.6235	0.1801	0.143
Mof_H 	H 	0.4458	0.8842	0.98	0.021
Mof_H 	H 	0.7007	0.178	0.4471	0.148
Mof_H 	H 	0.7275	0.1911	0.5811	0.038
Mof_H 	H 	0.7367	0.766	0.5337	0.032
Mof_H 	H 	0.0936	0.2667	0.8984	0.058
Mof_H 	H 	0.1494	0.6517	0.4862	0.063
Mof_H 	H 	0.1494	0.8483	0.9862	0.063
Mof_H 	H 	0.2265	0.8057	0.8422	0.057
Mof_H 	H 	0.8241	0.4922	0.8025	0.048
Mof_H 	H 	0.432	0.2676	0.4812	0.15
Mof_H 	H 	0.0399	0.5834	0.6485	0.066
Mof_H 	H 	0.9064	0.7333	0.1016	0.058
Mof_H 	H 	0.2993	0.678	0.0529	0.148
Mof_H 	H 	0.3115	0.7444	0.7487	0.037
Mof_H 	H 	0.5421	0.1851	0.7748	0.07
Mof_H 	H 	0.2265	0.6943	0.3422	0.056
Mof_H 	H 	0.716	0.6704	0.2161	-0.004
Mof_H 	H 	0.5539	0.3999	0.7465	-0.004
Mof_H 	H 	0.568	0.7676	0.0188	0.15
Mof_H 	H 	0.2981	0.9323	0.068	0.081
Mof_H 	H 	0.8559	0.9117	0.9721	0.059
Mof_H 	H 	0.7367	0.734	0.0337	0.032
Mof_H 	H 	0.8241	0.0078	0.3025	0.049
Mof_H 	H 	0.4441	0.1235	0.3199	0.143
Mof_H 	H 	0.4461	0.8999	0.7535	-0.004
Mof_H 	H 	0.9601	0.0834	0.8515	0.065
Mof_H 	H 	0.7275	0.3089	0.0811	0.038
Mof_H 	H 	0.7019	0.0677	0.932	0.081
Mof_H 	H 	0.7735	0.1943	0.1578	0.057
Mof_H 	H 	0.284	0.1704	0.2839	-0.004
Mof_H 	H 	0.568	0.7324	0.5188	0.15
Mof_H 	H 	0.2287	0.5687	0.1005	0.032
Mof_H 	H 	0.5539	0.1001	0.2465	-0.004
Mof_H 	H 	0.1441	0.0883	0.0279	0.059
Mof_H 	H 	0.1441	0.4117	0.5279	0.06
Mof_H 	H 	0.7019	0.4323	0.432	0.081
Mof_H 	H 	0.1759	0.9922	0.6975	0.049
Mof_H 	H 	0.2633	0.234	0.4663	0.032
Mof_H 	H 	0.716	0.8296	0.7161	-0.004
Mof_H 	H 	0.0936	0.2333	0.3984	0.057
Mof_H 	H 	0.7007	0.322	0.9471	0.148
Mof_H 	H 	0.7713	0.0687	0.3995	0.033
Mof_H 	H 	0.4461	0.6001	0.2535	-0.004
Mof_H 	H 	0.2725	0.6911	0.9189	0.038
Mof_H 	H 	0.3115	0.7556	0.2487	0.037
Mof_H 	H 	0.7713	0.4313	0.8995	0.032
Mof_H 	H 	0.9064	0.7667	0.6016	0.057
Mof_H 	H 	0.4579	0.8149	0.2252	0.07
Mof_H 	H 	0.8506	0.1517	0.0138	0.063
Mof_H 	H 	0.1759	0.5078	0.1975	0.048
Mof_C 	C 	0.3011	0.7436	0.9218	0.017
Mof_C 	C 	0.8461	0.7791	0.6169	-0
Mof_C 	C 	0.6065	0.379	0.3556	-0.017
Mof_C 	C 	0.3935	0.879	0.1444	-0.017
Mof_C 	C 	0.0014	0.1246	0.0334	-0.063
Mof_C 	C 	0.2664	0.933	0.6433	0.025
Mof_C 	C 	0.0297	0.5942	0.6029	-0.032
Mof_C 	C 	0.875	0.2593	0.3121	0.32
Mof_C 	C 	0.5083	0.0813	0.8666	0.281
Mof_C 	C 	0.2571	0.3124	0.8211	0.127
Mof_C 	C 	0.2157	0.8058	0.1712	-0.092
Mof_C 	C 	0.9986	0.6246	0.4666	-0.062
Mof_C 	C 	0.6031	0.1492	0.0448	0.106
Mof_C 	C 	0.6039	0.1737	0.8019	-0.06
Mof_C 	C 	0.4218	0.1959	0.3976	0.246
Mof_C 	C 	0.5813	0.3562	0.878	0.243
Mof_C 	C 	0.3694	0.6825	0.0657	-0.295
Mof_C 	C 	0.0655	0.0822	0.9343	-0.058
Mof_C 	C 	0.0197	0.3517	0.6055	0.315
Mof_C 	C 	0.4765	0.3502	0.8583	-0.293
Mof_C 	C 	0.3087	0.7904	0.2119	0.015
Mof_C 	C 	0.4765	0.1498	0.3583	-0.293
Mof_C 	C 	0.4187	0.6438	0.122	0.243
Mof_C 	C 	0.9703	0.4058	0.3971	-0.032
Mof_C 	C 	0.5813	0.1438	0.378	0.243
Mof_C 	C 	0.7843	0.3058	0.3288	-0.092
Mof_C 	C 	0.4276	0.7286	0.0284	0.241
Mof_C 	C 	0.6039	0.3263	0.3019	-0.06
Mof_C 	C 	0.8469	0.5549	0.5984	0.289
Mof_C 	C 	0.3852	0.5835	0.2277	0.115
Mof_C 	C 	0.6065	0.121	0.8556	-0.017
Mof_C 	C 	0.4917	0.5813	0.6334	0.281
Mof_C 	C 	0.8895	0.3783	0.426	0.008
Mof_C 	C 	0.6913	0.2096	0.7881	0.015
Mof_C 	C 	0.1531	0.0549	0.9016	0.289
Mof_C 	C 	0.9703	0.0942	0.8971	-0.028
Mof_C 	C 	0.0197	0.1483	0.1055	0.314
Mof_C 	C 	0.5724	0.2714	0.9716	0.241
Mof_C 	C 	0.6996	0.1038	0.8961	-0.078
Mof_C 	C 	0.2115	0.8599	0.117	0.055
Mof_C 	C 	0.905	0.1352	0.9936	-0.029
Mof_C 	C 	0.9198	0.903	0.9975	0.001
Mof_C 	C 	0.3969	0.6492	0.4552	0.106
Mof_C 	C 	0.8895	0.1217	0.926	0.007
Mof_C 	C 	0.723	0.1931	0.1202	0.005
Mof_C 	C 	0.6148	0.0835	0.2723	0.115
Mof_C 	C 	0.6306	0.1825	0.4343	-0.295
Mof_C 	C 	0.3004	0.8962	0.1039	-0.078
Mof_C 	C 	0.7843	0.1942	0.8288	-0.092
Mof_C 	C 	0.9986	0.8754	0.9666	-0.063
Mof_C 	C 	0.5309	0.7365	0.0448	-0.293
Mof_C 	C 	0.7429	0.8124	0.6789	0.127
Mof_C 	C 	0.7522	0.7221	0.0791	0.026
Mof_C 	C 	0.723	0.3069	0.6202	0.005
Mof_C 	C 	0.3935	0.621	0.6444	-0.017
Mof_C 	C 	0.095	0.8648	0.0064	-0.029
Mof_C 	C 	0.6989	0.2564	0.0782	0.017
Mof_C 	C 	0.125	0.7407	0.6879	0.32
Mof_C 	C 	0.2115	0.6401	0.617	0.055
Mof_C 	C 	0.2571	0.1876	0.3211	0.127
Mof_C 	C 	0.6913	0.2904	0.2881	0.015
Mof_C 	C 	0.7885	0.1401	0.883	0.055
Mof_C 	C 	0.4917	0.9187	0.1334	0.281
Mof_C 	C 	0.8461	0.7209	0.1169	0
Mof_C 	C 	0.9803	0.6483	0.3945	0.315
Mof_C 	C 	0.9345	0.5822	0.5657	-0.055
Mof_C 	C 	0.0297	0.9058	0.1029	-0.028
Mof_C 	C 	0.7885	0.3599	0.383	0.055
Mof_C 	C 	0.9803	0.8517	0.8945	0.314
Mof_C 	C 	0.7621	0.0338	0.3032	0.001
Mof_C 	C 	0.2379	0.5338	0.1968	0.001
Mof_C 	C 	0.1539	0.2209	0.3831	-0
Mof_C 	C 	0.4276	0.7714	0.5284	0.241
Mof_C 	C 	0.5782	0.8041	0.6024	0.246
Mof_C 	C 	0.4691	0.2365	0.4552	-0.293
Mof_C 	C 	0.0014	0.3754	0.5334	-0.062
Mof_C 	C 	0.6306	0.3175	0.9343	-0.295
Mof_C 	C 	0.3694	0.8175	0.5657	-0.295
Mof_C 	C 	0.7336	0.433	0.8567	0.025
Mof_C 	C 	0.7522	0.7779	0.5791	0.026
Mof_C 	C 	0.0802	0.403	0.5025	0
Mof_C 	C 	0.5782	0.6959	0.1024	0.246
Mof_C 	C 	0.7429	0.6876	0.1789	0.127
Mof_C 	C 	0.3961	0.8263	0.1981	-0.06
Mof_C 	C 	0.7621	0.4662	0.8032	0.001
Mof_C 	C 	0.5235	0.6498	0.1417	-0.293
Mof_C 	C 	0.0655	0.4178	0.4343	-0.055
Mof_C 	C 	0.5724	0.2286	0.4716	0.241
Mof_C 	C 	0.6996	0.3962	0.3961	-0.078
Mof_C 	C 	0.2478	0.2779	0.9209	0.026
Mof_C 	C 	0.2379	0.9662	0.6968	0.001
Mof_C 	C 	0.1105	0.8783	0.074	0.007
Mof_C 	C 	0.125	0.7593	0.1879	0.32
Mof_C 	C 	0.9198	0.597	0.4975	0
Mof_C 	C 	0.8469	0.9451	0.0984	0.289
Mof_C 	C 	0.5235	0.8502	0.6417	-0.293
Mof_C 	C 	0.875	0.2407	0.8121	0.32
Mof_C 	C 	0.1539	0.2791	0.8831	0
Mof_C 	C 	0.7336	0.067	0.3567	0.025
Mof_C 	C 	0.3961	0.6737	0.6981	-0.06
Mof_C 	C 	0.2664	0.567	0.1433	0.025
Mof_C 	C 	0.6989	0.2436	0.5782	0.017
Mof_C 	C 	0.2478	0.2221	0.4209	0.026
Mof_C 	C 	0.5083	0.4187	0.3666	0.281
Mof_C 	C 	0.6031	0.3508	0.5448	0.106
Mof_C 	C 	0.3969	0.8508	0.9552	0.106
Mof_C 	C 	0.3004	0.6038	0.6039	-0.078
Mof_C 	C 	0.5309	0.7635	0.5448	-0.293
Mof_C 	C 	0.1531	0.4451	0.4016	0.289
Mof_C 	C 	0.095	0.6352	0.5064	-0.03
Mof_C 	C 	0.277	0.8069	0.8798	0.005
Mof_C 	C 	0.4218	0.3041	0.8976	0.246
Mof_C 	C 	0.6148	0.4165	0.7723	0.115
Mof_C 	C 	0.0802	0.097	0.0025	0.001
Mof_C 	C 	0.905	0.3648	0.4936	-0.03
Mof_C 	C 	0.4691	0.2635	0.9552	-0.293
Mof_C 	C 	0.277	0.6931	0.3798	0.005
Mof_C 	C 	0.9345	0.9178	0.0657	-0.058
Mof_C 	C 	0.4187	0.8562	0.622	0.243
Mof_C 	C 	0.3011	0.7564	0.4218	0.017
Mof_C 	C 	0.1105	0.6217	0.574	0.008
Mof_C 	C 	0.3087	0.7096	0.7119	0.015
Mof_C 	C 	0.3852	0.9165	0.7277	0.115
Mof_C 	C 	0.2157	0.6942	0.6712	-0.092
Mof_N 	N 	0.3138	0.5431	0.2517	-0.144
Mof_N 	N 	0.6852	0.7025	0.1204	-0.167
Mof_N 	N 	0.839	0.8011	0.6803	-0.152
Mof_N 	N 	0.839	0.6989	0.1803	-0.151
Mof_N 	N 	0.6391	0.4018	0.8372	-0.167
Mof_N 	N 	0.3368	0.6266	0.3999	-0.142
Mof_N 	N 	0.3138	0.9569	0.7517	-0.143
Mof_N 	N 	0.3609	0.9018	0.6628	-0.167
Mof_N 	N 	0.6632	0.3734	0.6001	-0.142
Mof_N 	N 	0.6391	0.0982	0.3372	-0.167
Mof_N 	N 	0.3609	0.5982	0.1628	-0.167
Mof_N 	N 	0.6862	0.4569	0.7483	-0.144
Mof_N 	N 	0.3148	0.2025	0.3796	-0.167
Mof_N 	N 	0.3774	0.7269	0.4703	-0.16
Mof_N 	N 	0.3368	0.8734	0.8999	-0.142
Mof_N 	N 	0.161	0.1989	0.3197	-0.152
Mof_N 	N 	0.6852	0.7975	0.6204	-0.167
Mof_N 	N 	0.6632	0.1266	0.1001	-0.142
Mof_N 	N 	0.6862	0.0431	0.2483	-0.143
Mof_N 	N 	0.3774	0.7731	0.9703	-0.16
Mof_N 	N 	0.3148	0.2975	0.8796	-0.167
Mof_N 	N 	0.6226	0.2269	0.0297	-0.16
Mof_N 	N 	0.161	0.3011	0.8197	-0.151
Mof_N 	N 	0.6226	0.2731	0.5297	-0.16
Mof_O 	O 	0.8957	0.2686	0.2555	-0.288
Mof_O 	O 	0.1043	0.7314	0.7445	-0.288
Mof_O 	O 	0.899	0.8641	0.859	-0.279
Mof_O 	O 	0.0491	0.813	0.8726	-0.274
Mof_O 	O 	0.7589	0.9479	0.0618	-0.265
Mof_O 	O 	0.9509	0.313	0.6274	-0.276
Mof_O 	O 	0.491	0.9752	0.0917	-0.254
Mof_O 	O 	0.899	0.6359	0.359	-0.279
Mof_O 	O 	0.7589	0.5521	0.5618	-0.265
Mof_O 	O 	0.8957	0.2314	0.7555	-0.288
Mof_O 	O 	0.101	0.3641	0.641	-0.279
Mof_O 	O 	0.509	0.4752	0.4083	-0.254
Mof_O 	O 	0.491	0.5248	0.5917	-0.254
Mof_O 	O 	0.9234	0.2146	0.3564	-0.26
Mof_O 	O 	0.5732	0.8937	0.1668	-0.268
Mof_O 	O 	0.509	0.0248	0.9083	-0.254
Mof_O 	O 	0.8574	0.5362	0.6581	-0.266
Mof_O 	O 	0.2411	0.0521	0.9382	-0.265
Mof_O 	O 	0.101	0.1359	0.141	-0.279
Mof_O 	O 	0.4268	0.3937	0.3332	-0.268
Mof_O 	O 	0.1426	0.0362	0.8419	-0.267
Mof_O 	O 	0.9509	0.187	0.1274	-0.274
Mof_O 	O 	0.9234	0.2854	0.8564	-0.261
Mof_O 	O 	0.5732	0.6063	0.6668	-0.268
Mof_O 	O 	0.0766	0.7854	0.6436	-0.26
Mof_O 	O 	0.4268	0.1063	0.8332	-0.268
Mof_O 	O 	0.2411	0.4479	0.4382	-0.265
Mof_O 	O 	0.0766	0.7146	0.1436	-0.261
Mof_O 	O 	0.8574	0.9638	0.1581	-0.267
Mof_O 	O 	0.1426	0.4638	0.3419	-0.266
Mof_O 	O 	0.0491	0.687	0.3726	-0.276
Mof_O 	O 	0.1043	0.7686	0.2445	-0.288
_end
