data_functionalizedCrystal
_audit_creation_method	'EQeq! by Chris Wilmer'
_symmetry_space_group_name_H-M	'P1'
_symmetry_Int_Tables_number	1
_symmetry_cell_setting	triclinic
loop_
_symmetry_equiv_pos_as_xyz
  x,y,z
_cell_length_a	17.98
_cell_length_b	11.711
_cell_length_c	19.921
_cell_angle_alpha	90
_cell_angle_beta	110.97
_cell_angle_gamma	90
loop_
_atom_site_label
_atom_site_type_symbol
_atom_site_fract_x
_atom_site_fract_y
_atom_site_fract_z
_atom_site_charge
Mof_C 	C 	0.0274	0.2193	0.2487	-0.007
Mof_C 	C 	0.0323	0.288	0.1921	-0.014
Mof_H 	H 	0.989	0.3337	0.1668	0.031
Mof_C 	C 	0.9549	0.3844	0.4366	-0.006
Mof_C 	C 	0.9426	0.2994	0.4801	-0.006
Mof_H 	H 	0.9829	0.2465	0.5006	0.031
Mof_O 	O 	0.4836	0.2192	0.4572	-0.403
Mof_O 	O 	0.5084	0.3333	0.2059	-0.448
Mof_C 	C 	0.4906	0.1303	0.0999	0.512
Mof_H 	H 	0.4933	0.2089	0.0943	-0.127
Mof_C 	C 	0.4836	0.1872	0.4003	0.347
Mof_H 	H 	0.4802	0.109	0.3914	-0.06
Mof_C 	C 	0.504	0.4229	0.2306	0.471
Mof_H 	H 	0.4792	0.4261	0.2642	-0.141
Mof_C 	C 	0.3206	0.3888	0.4244	0.108
Mof_H 	H 	0.3316	0.3601	0.4705	-0.007
Mof_C 	C 	0.3354	0.4503	0.3285	0.007
Mof_H 	H 	0.3589	0.4714	0.2956	0.029
Mof_C 	C 	0.2554	0.456	0.3169	0.005
Mof_H 	H 	0.2152	0.4821	0.2757	0.037
Mof_C 	C 	0.1735	0.4087	0.3937	0.121
Mof_C 	C 	0.1638	0.3234	0.4373	-0.119
Mof_H 	H 	0.2039	0.2699	0.457	0.074
Mof_C 	C 	0.0928	0.3172	0.4522	-0.016
Mof_H 	H 	0.0875	0.2611	0.4832	0.033
Mof_C 	C 	0.0303	0.3938	0.421	0.002
Mof_C 	C 	0.0416	0.4767	0.3764	-0.017
Mof_H 	H 	0.0011	0.5292	0.3553	0.041
Mof_C 	C 	0.1128	0.4845	0.3617	-0.116
Mof_H 	H 	0.1184	0.5403	0.3306	0.079
Mof_C 	C 	0.8916	0.462	0.4083	-0.009
Mof_H 	H 	0.8964	0.5202	0.3784	0.038
Mof_C 	C 	0.6679	0.3952	0.4492	0.11
Mof_H 	H 	0.6543	0.4356	0.4063	-0.008
Mof_C 	C 	0.6605	0.3077	0.5412	0.002
Mof_H 	H 	0.6404	0.2757	0.5739	0.032
Mof_C 	C 	0.737	0.3022	0.5455	0.008
Mof_H 	H 	0.7789	0.2675	0.5818	0.029
Mof_C 	C 	0.8133	0.3676	0.4671	0.121
Mof_C 	C 	0.8732	0.2898	0.4944	-0.122
Mof_H 	H 	0.8671	0.2301	0.5227	0.073
Mof_C 	C 	0.8221	0.4547	0.4233	-0.118
Mof_H 	H 	0.7817	0.5079	0.4041	0.081
Mof_C 	C 	0.3103	0.1873	0.2333	0.092
Mof_H 	H 	0.3212	0.1465	0.2758	0.002
Mof_C 	C 	0.3243	0.2734	0.1423	0.001
Mof_H 	H 	0.347	0.3024	0.1107	0.032
Mof_C 	C 	0.2465	0.2847	0.135	0.002
Mof_H 	H 	0.2072	0.3225	0.098	0.025
Mof_C 	C 	0.1664	0.2242	0.2109	0.111
Mof_C 	C 	0.0993	0.2898	0.1729	-0.115
Mof_H 	H 	0.0996	0.3348	0.1345	0.068
Mof_C 	C 	0.1631	0.1564	0.267	-0.118
Mof_H 	H 	0.2069	0.1123	0.2933	0.075
Mof_C 	C 	0.6651	0.2058	0.2705	0.095
Mof_H 	H 	0.654	0.2504	0.2295	0.006
Mof_C 	C 	0.6527	0.1072	0.3575	0
Mof_H 	H 	0.6302	0.0721	0.3875	0.033
Mof_C 	C 	0.731	0.1078	0.3686	0.005
Mof_H 	H 	0.7712	0.0722	0.4058	0.027
Mof_C 	C 	0.8125	0.1896	0.2989	0.109
Mof_C 	C 	0.8181	0.2745	0.2513	-0.114
Mof_H 	H 	0.7755	0.3234	0.2295	0.074
Mof_C 	C 	0.8882	0.2849	0.2369	-0.02
Mof_H 	H 	0.8914	0.3415	0.2053	0.034
Mof_C 	C 	0.9539	0.2138	0.2681	-0.005
Mof_C 	C 	0.9467	0.1315	0.3163	-0.02
Mof_H 	H 	0.9895	0.0832	0.3386	0.034
Mof_C 	C 	0.8777	0.1193	0.3321	-0.113
Mof_H 	H 	0.8752	0.0641	0.3648	0.068
Mof_C 	C 	0.0949	0.1544	0.2837	-0.012
Mof_H 	H 	0.0941	0.1067	0.3207	0.033
Mof_N 	N 	0.3751	0.4083	0.3963	-0.225
Mof_N 	N 	0.2465	0.4153	0.3787	-0.14
Mof_N 	N 	0.6167	0.3689	0.4802	-0.227
Mof_N 	N 	0.7416	0.3578	0.4857	-0.141
Mof_N 	N 	0.3643	0.2122	0.2039	-0.21
Mof_N 	N 	0.2365	0.2295	0.1929	-0.139
Mof_N 	N 	0.6098	0.1663	0.2948	-0.211
Mof_N 	N 	0.7398	0.1728	0.313	-0.137
Mof_Ni	Ni	0.48692	0.184	0.24903	1.115
Mof_Ni	Ni	0.49615	0.39063	0.44726	1.1
Mof_O 	O 	0.4922	0.0689	0.0488	-0.564
Mof_O 	O 	0.4859	0.0962	0.1569	-0.462
Mof_O 	O 	0.5319	0.5208	0.2143	-0.389
Mof_O 	O 	0.4884	0.257	0.3481	-0.441
Mof_C 	C 	0.9726	0.7193	0.2513	-0.009
Mof_C 	C 	0.9677	0.788	0.3079	-0.016
Mof_H 	H 	0.011	0.8337	0.3332	0.031
Mof_C 	C 	0.0451	0.8844	0.0634	-0.005
Mof_C 	C 	0.0574	0.7994	0.0199	-0.008
Mof_H 	H 	0.0171	0.7465	0.9994	0.03
Mof_O 	O 	0.5164	0.7192	0.0428	-0.405
Mof_O 	O 	0.4916	0.8333	0.2941	-0.448
Mof_C 	C 	0.5094	0.6303	0.4001	0.511
Mof_H 	H 	0.5067	0.7089	0.4057	-0.129
Mof_C 	C 	0.5164	0.6872	0.0997	0.346
Mof_H 	H 	0.5198	0.609	0.1086	-0.061
Mof_C 	C 	0.496	0.9229	0.2694	0.469
Mof_H 	H 	0.5208	0.9261	0.2358	-0.142
Mof_C 	C 	0.6794	0.8888	0.0756	0.107
Mof_H 	H 	0.6684	0.8601	0.0295	-0.009
Mof_C 	C 	0.6646	0.9503	0.1715	0.007
Mof_H 	H 	0.6411	0.9714	0.2044	0.029
Mof_C 	C 	0.7446	0.956	0.1831	0.005
Mof_H 	H 	0.7848	0.9821	0.2243	0.037
Mof_C 	C 	0.8265	0.9087	0.1063	0.122
Mof_C 	C 	0.8362	0.8234	0.0627	-0.12
Mof_H 	H 	0.7961	0.7699	0.043	0.074
Mof_C 	C 	0.9072	0.8172	0.0478	-0.015
Mof_H 	H 	0.9125	0.7611	0.0168	0.032
Mof_C 	C 	0.9697	0.8938	0.079	-0
Mof_C 	C 	0.9584	0.9767	0.1236	-0.016
Mof_H 	H 	0.9989	0.0292	0.1447	0.041
Mof_C 	C 	0.8872	0.9845	0.1383	-0.118
Mof_H 	H 	0.8816	0.0403	0.1694	0.08
Mof_C 	C 	0.1084	0.962	0.0917	-0.011
Mof_H 	H 	0.1036	0.0202	0.1216	0.04
Mof_C 	C 	0.3321	0.8952	0.0508	0.11
Mof_H 	H 	0.3457	0.9356	0.0937	-0.008
Mof_C 	C 	0.3395	0.8077	0.9588	0.002
Mof_H 	H 	0.3596	0.7757	0.9261	0.032
Mof_C 	C 	0.263	0.8022	0.9545	0.008
Mof_H 	H 	0.2211	0.7675	0.9182	0.029
Mof_C 	C 	0.1867	0.8676	0.0329	0.121
Mof_C 	C 	0.1268	0.7898	0.0056	-0.122
Mof_H 	H 	0.1329	0.7301	0.9773	0.073
Mof_C 	C 	0.1779	0.9547	0.0767	-0.119
Mof_H 	H 	0.2183	0.0079	0.0959	0.083
Mof_C 	C 	0.6897	0.6873	0.2667	0.092
Mof_H 	H 	0.6788	0.6465	0.2242	0.002
Mof_C 	C 	0.6757	0.7734	0.3577	0.001
Mof_H 	H 	0.653	0.8024	0.3893	0.032
Mof_C 	C 	0.7535	0.7847	0.365	0.002
Mof_H 	H 	0.7928	0.8225	0.402	0.025
Mof_C 	C 	0.8336	0.7242	0.2891	0.111
Mof_C 	C 	0.9007	0.7898	0.3271	-0.115
Mof_H 	H 	0.9004	0.8348	0.3655	0.067
Mof_C 	C 	0.8369	0.6564	0.233	-0.118
Mof_H 	H 	0.7931	0.6123	0.2067	0.075
Mof_C 	C 	0.3349	0.7058	0.2295	0.094
Mof_H 	H 	0.346	0.7504	0.2705	0.006
Mof_C 	C 	0.3473	0.6072	0.1425	0
Mof_H 	H 	0.3698	0.5721	0.1125	0.033
Mof_C 	C 	0.269	0.6078	0.1314	0.005
Mof_H 	H 	0.2288	0.5722	0.0942	0.027
Mof_C 	C 	0.1875	0.6896	0.2011	0.108
Mof_C 	C 	0.1819	0.7745	0.2487	-0.113
Mof_H 	H 	0.2245	0.8234	0.2705	0.074
Mof_C 	C 	0.1118	0.7849	0.2631	-0.02
Mof_H 	H 	0.1086	0.8415	0.2947	0.034
Mof_C 	C 	0.0461	0.7138	0.2319	-0.003
Mof_C 	C 	0.0533	0.6315	0.1837	-0.021
Mof_H 	H 	0.0105	0.5832	0.1614	0.034
Mof_C 	C 	0.1223	0.6193	0.1679	-0.112
Mof_H 	H 	0.1248	0.5641	0.1352	0.068
Mof_C 	C 	0.9051	0.6544	0.2163	-0.012
Mof_H 	H 	0.9059	0.6067	0.1793	0.032
Mof_N 	N 	0.6249	0.9083	0.1037	-0.225
Mof_N 	N 	0.7535	0.9153	0.1213	-0.14
Mof_N 	N 	0.3833	0.8689	0.0198	-0.227
Mof_N 	N 	0.2584	0.8578	0.0143	-0.142
Mof_N 	N 	0.6357	0.7122	0.2961	-0.21
Mof_N 	N 	0.7635	0.7295	0.3071	-0.139
Mof_N 	N 	0.3902	0.6663	0.2052	-0.211
Mof_N 	N 	0.2602	0.6728	0.187	-0.137
Mof_Ni	Ni	0.51308	0.684	0.25097	1.115
Mof_Ni	Ni	0.50385	0.89063	0.05274	1.1
Mof_O 	O 	0.5078	0.5689	0.4512	-0.565
Mof_O 	O 	0.5141	0.5962	0.3431	-0.462
Mof_O 	O 	0.4681	0.0208	0.2857	-0.389
Mof_O 	O 	0.5116	0.757	0.1519	-0.442
Mof_C 	C 	0.9726	0.7807	0.7513	-0.008
Mof_C 	C 	0.9677	0.712	0.8079	-0.015
Mof_H 	H 	0.011	0.6663	0.8332	0.03
Mof_C 	C 	0.0451	0.6156	0.5634	-0.007
Mof_C 	C 	0.0574	0.7006	0.5199	-0.007
Mof_H 	H 	0.0171	0.7535	0.4994	0.03
Mof_O 	O 	0.5164	0.7808	0.5428	-0.404
Mof_O 	O 	0.4916	0.6667	0.7941	-0.449
Mof_C 	C 	0.5094	0.8697	0.9001	0.511
Mof_H 	H 	0.5067	0.7911	0.9057	-0.128
Mof_C 	C 	0.5164	0.8128	0.5997	0.346
Mof_H 	H 	0.5198	0.891	0.6086	-0.061
Mof_C 	C 	0.496	0.5771	0.7694	0.47
Mof_H 	H 	0.5208	0.5739	0.7358	-0.142
Mof_C 	C 	0.6794	0.6112	0.5756	0.107
Mof_H 	H 	0.6684	0.6399	0.5295	-0.008
Mof_C 	C 	0.6646	0.5497	0.6715	0.007
Mof_H 	H 	0.6411	0.5286	0.7044	0.029
Mof_C 	C 	0.7446	0.544	0.6831	0.005
Mof_H 	H 	0.7848	0.5179	0.7243	0.037
Mof_C 	C 	0.8265	0.5913	0.6063	0.121
Mof_C 	C 	0.8362	0.6766	0.5627	-0.119
Mof_H 	H 	0.7961	0.7301	0.543	0.074
Mof_C 	C 	0.9072	0.6828	0.5478	-0.016
Mof_H 	H 	0.9125	0.7389	0.5168	0.033
Mof_C 	C 	0.9697	0.6062	0.579	0.002
Mof_C 	C 	0.9584	0.5233	0.6236	-0.017
Mof_H 	H 	0.9989	0.4708	0.6447	0.041
Mof_C 	C 	0.8872	0.5155	0.6383	-0.116
Mof_H 	H 	0.8816	0.4597	0.6694	0.079
Mof_C 	C 	0.1084	0.538	0.5917	-0.009
Mof_H 	H 	0.1036	0.4798	0.6216	0.038
Mof_C 	C 	0.3321	0.6048	0.5508	0.11
Mof_H 	H 	0.3457	0.5644	0.5937	-0.008
Mof_C 	C 	0.3395	0.6923	0.4588	0.002
Mof_H 	H 	0.3596	0.7243	0.4261	0.032
Mof_C 	C 	0.263	0.6978	0.4545	0.008
Mof_H 	H 	0.2211	0.7325	0.4182	0.029
Mof_C 	C 	0.1867	0.6324	0.5329	0.121
Mof_C 	C 	0.1268	0.7102	0.5056	-0.122
Mof_H 	H 	0.1329	0.7699	0.4773	0.073
Mof_C 	C 	0.1779	0.5453	0.5767	-0.118
Mof_H 	H 	0.2183	0.4921	0.5959	0.081
Mof_C 	C 	0.6897	0.8127	0.7667	0.092
Mof_H 	H 	0.6788	0.8535	0.7242	0.002
Mof_C 	C 	0.6757	0.7266	0.8577	0.001
Mof_H 	H 	0.653	0.6976	0.8893	0.032
Mof_C 	C 	0.7535	0.7153	0.865	0.002
Mof_H 	H 	0.7928	0.6775	0.902	0.025
Mof_C 	C 	0.8336	0.7758	0.7891	0.111
Mof_C 	C 	0.9007	0.7102	0.8271	-0.115
Mof_H 	H 	0.9004	0.6652	0.8655	0.068
Mof_C 	C 	0.8369	0.8436	0.733	-0.118
Mof_H 	H 	0.7931	0.8877	0.7067	0.075
Mof_C 	C 	0.3349	0.7942	0.7295	0.095
Mof_H 	H 	0.346	0.7496	0.7705	0.006
Mof_C 	C 	0.3473	0.8928	0.6425	0
Mof_H 	H 	0.3698	0.9279	0.6125	0.033
Mof_C 	C 	0.269	0.8922	0.6314	0.005
Mof_H 	H 	0.2288	0.9278	0.5942	0.027
Mof_C 	C 	0.1875	0.8104	0.7011	0.109
Mof_C 	C 	0.1819	0.7255	0.7487	-0.114
Mof_H 	H 	0.2245	0.6766	0.7705	0.074
Mof_C 	C 	0.1118	0.7151	0.7631	-0.02
Mof_H 	H 	0.1086	0.6585	0.7947	0.034
Mof_C 	C 	0.0461	0.7862	0.7319	-0.005
Mof_C 	C 	0.0533	0.8685	0.6837	-0.02
Mof_H 	H 	0.0105	0.9168	0.6614	0.034
Mof_C 	C 	0.1223	0.8807	0.6679	-0.113
Mof_H 	H 	0.1248	0.9359	0.6352	0.068
Mof_C 	C 	0.9051	0.8456	0.7163	-0.012
Mof_H 	H 	0.9059	0.8933	0.6793	0.033
Mof_N 	N 	0.6249	0.5917	0.6037	-0.225
Mof_N 	N 	0.7535	0.5847	0.6213	-0.14
Mof_N 	N 	0.3833	0.6311	0.5198	-0.227
Mof_N 	N 	0.2584	0.6422	0.5143	-0.141
Mof_N 	N 	0.6357	0.7878	0.7961	-0.21
Mof_N 	N 	0.7635	0.7705	0.8071	-0.139
Mof_N 	N 	0.3902	0.8337	0.7052	-0.211
Mof_N 	N 	0.2602	0.8272	0.687	-0.137
Mof_Ni	Ni	0.51308	0.816	0.75097	1.115
Mof_Ni	Ni	0.50385	0.60937	0.55274	1.1
Mof_O 	O 	0.5078	0.9311	0.9512	-0.564
Mof_O 	O 	0.5141	0.9038	0.8431	-0.462
Mof_O 	O 	0.4681	0.4792	0.7857	-0.389
Mof_O 	O 	0.5116	0.743	0.6519	-0.441
Mof_C 	C 	0.0274	0.2807	0.7487	-0.009
Mof_C 	C 	0.0323	0.212	0.6921	-0.016
Mof_H 	H 	0.989	0.1663	0.6668	0.031
Mof_C 	C 	0.9549	0.1156	0.9366	-0.005
Mof_C 	C 	0.9426	0.2006	0.9801	-0.008
Mof_H 	H 	0.9829	0.2535	0.0006	0.03
Mof_O 	O 	0.4836	0.2808	0.9572	-0.405
Mof_O 	O 	0.5084	0.1667	0.7059	-0.448
Mof_C 	C 	0.4906	0.3697	0.5999	0.511
Mof_H 	H 	0.4933	0.2911	0.5943	-0.129
Mof_C 	C 	0.4836	0.3128	0.9003	0.346
Mof_H 	H 	0.4802	0.391	0.8914	-0.061
Mof_C 	C 	0.504	0.0771	0.7306	0.469
Mof_H 	H 	0.4792	0.0739	0.7642	-0.142
Mof_C 	C 	0.3206	0.1112	0.9244	0.107
Mof_H 	H 	0.3316	0.1399	0.9705	-0.009
Mof_C 	C 	0.3354	0.0497	0.8285	0.007
Mof_H 	H 	0.3589	0.0286	0.7956	0.029
Mof_C 	C 	0.2554	0.044	0.8169	0.005
Mof_H 	H 	0.2152	0.0179	0.7757	0.037
Mof_C 	C 	0.1735	0.0913	0.8937	0.122
Mof_C 	C 	0.1638	0.1766	0.9373	-0.12
Mof_H 	H 	0.2039	0.2301	0.957	0.074
Mof_C 	C 	0.0928	0.1828	0.9522	-0.015
Mof_H 	H 	0.0875	0.2389	0.9832	0.032
Mof_C 	C 	0.0303	0.1062	0.921	-0
Mof_C 	C 	0.0416	0.0233	0.8764	-0.016
Mof_H 	H 	0.0011	0.9708	0.8553	0.041
Mof_C 	C 	0.1128	0.0155	0.8617	-0.118
Mof_H 	H 	0.1184	0.9597	0.8306	0.08
Mof_C 	C 	0.8916	0.038	0.9083	-0.011
Mof_H 	H 	0.8964	0.9798	0.8784	0.04
Mof_C 	C 	0.6679	0.1048	0.9492	0.11
Mof_H 	H 	0.6543	0.0644	0.9063	-0.008
Mof_C 	C 	0.6605	0.1923	0.0412	0.002
Mof_H 	H 	0.6404	0.2243	0.0739	0.032
Mof_C 	C 	0.737	0.1978	0.0455	0.008
Mof_H 	H 	0.7789	0.2325	0.0818	0.029
Mof_C 	C 	0.8133	0.1324	0.9671	0.121
Mof_C 	C 	0.8732	0.2102	0.9944	-0.122
Mof_H 	H 	0.8671	0.2699	0.0227	0.073
Mof_C 	C 	0.8221	0.0453	0.9233	-0.119
Mof_H 	H 	0.7817	0.9921	0.9041	0.083
Mof_C 	C 	0.3103	0.3127	0.7333	0.092
Mof_H 	H 	0.3212	0.3535	0.7758	0.002
Mof_C 	C 	0.3243	0.2266	0.6423	0.001
Mof_H 	H 	0.347	0.1976	0.6107	0.032
Mof_C 	C 	0.2465	0.2153	0.635	0.002
Mof_H 	H 	0.2072	0.1775	0.598	0.025
Mof_C 	C 	0.1664	0.2758	0.7109	0.111
Mof_C 	C 	0.0993	0.2102	0.6729	-0.115
Mof_H 	H 	0.0996	0.1652	0.6345	0.067
Mof_C 	C 	0.1631	0.3436	0.767	-0.118
Mof_H 	H 	0.2069	0.3877	0.7933	0.075
Mof_C 	C 	0.6651	0.2942	0.7705	0.094
Mof_H 	H 	0.654	0.2496	0.7295	0.006
Mof_C 	C 	0.6527	0.3928	0.8575	0
Mof_H 	H 	0.6302	0.4279	0.8875	0.033
Mof_C 	C 	0.731	0.3922	0.8686	0.005
Mof_H 	H 	0.7712	0.4278	0.9058	0.027
Mof_C 	C 	0.8125	0.3104	0.7989	0.108
Mof_C 	C 	0.8181	0.2255	0.7513	-0.113
Mof_H 	H 	0.7755	0.1766	0.7295	0.074
Mof_C 	C 	0.8882	0.2151	0.7369	-0.02
Mof_H 	H 	0.8914	0.1585	0.7053	0.034
Mof_C 	C 	0.9539	0.2862	0.7681	-0.003
Mof_C 	C 	0.9467	0.3685	0.8163	-0.021
Mof_H 	H 	0.9895	0.4168	0.8386	0.034
Mof_C 	C 	0.8777	0.3807	0.8321	-0.112
Mof_H 	H 	0.8752	0.4359	0.8648	0.068
Mof_C 	C 	0.0949	0.3456	0.7837	-0.012
Mof_H 	H 	0.0941	0.3933	0.8207	0.032
Mof_N 	N 	0.3751	0.0917	0.8963	-0.225
Mof_N 	N 	0.2465	0.0847	0.8787	-0.14
Mof_N 	N 	0.6167	0.1311	0.9802	-0.227
Mof_N 	N 	0.7416	0.1422	0.9857	-0.142
Mof_N 	N 	0.3643	0.2878	0.7039	-0.21
Mof_N 	N 	0.2365	0.2705	0.6929	-0.139
Mof_N 	N 	0.6098	0.3337	0.7948	-0.211
Mof_N 	N 	0.7398	0.3272	0.813	-0.137
Mof_Ni	Ni	0.48692	0.316	0.74903	1.115
Mof_Ni	Ni	0.49615	0.10937	0.94726	1.1
Mof_O 	O 	0.4922	0.4311	0.5488	-0.565
Mof_O 	O 	0.4859	0.4038	0.6569	-0.462
Mof_O 	O 	0.5319	0.9792	0.7143	-0.389
Mof_O 	O 	0.4884	0.243	0.8481	-0.442
_end
