data_functionalizedCrystal
_audit_creation_method	'EQeq! by Chris Wilmer'
_symmetry_space_group_name_H-M	'P1'
_symmetry_Int_Tables_number	1
_symmetry_cell_setting	triclinic
loop_
_symmetry_equiv_pos_as_xyz
  x,y,z
_cell_length_a	42.142
_cell_length_b	14.065
_cell_length_c	13.87
_cell_angle_alpha	90
_cell_angle_beta	101.996
_cell_angle_gamma	90
loop_
_atom_site_label
_atom_site_type_symbol
_atom_site_fract_x
_atom_site_fract_y
_atom_site_fract_z
_atom_site_charge
Mof_C 	C 	0.2528	0.4212	0.5771	0.495
Mof_C 	C 	0.2724	0.4923	0.6358	-0.23
Mof_C 	C 	0.3047	0.5031	0.6303	0.065
Mof_H 	H 	0.3135	0.464	0.5885	-0.002
Mof_C 	C 	0.3243	0.5722	0.687	-0.081
Mof_C 	C 	0.3113	0.6258	0.7515	0.061
Mof_H 	H 	0.3242	0.6713	0.7895	0.021
Mof_C 	C 	0.2798	0.6147	0.7623	-0.191
Mof_C 	C 	0.2596	0.551	0.6996	0.126
Mof_H 	H 	0.2376	0.5479	0.7005	-0.007
Mof_C 	C 	0.2655	0.6763	0.8372	0.54
Mof_C 	C 	0.3588	0.5869	0.6764	0.056
Mof_C 	C 	0.3783	0.5145	0.6555	-0.087
Mof_H 	H 	0.37	0.453	0.6515	0.06
Mof_C 	C 	0.4098	0.5272	0.6399	-0.032
Mof_H 	H 	0.4217	0.4755	0.6254	0.039
Mof_C 	C 	0.4231	0.6198	0.6464	-0.01
Mof_C 	C 	0.4034	0.6973	0.6713	-0.03
Mof_H 	H 	0.4121	0.7582	0.68	0.036
Mof_C 	C 	0.3715	0.6819	0.6823	-0.084
Mof_H 	H 	0.3586	0.7328	0.6934	0.059
Mof_C 	C 	0.4571	0.638	0.635	0.035
Mof_C 	C 	0.4759	0.5628	0.6138	-0.076
Mof_H 	H 	0.4681	0.5009	0.6123	0.055
Mof_C 	C 	0.5065	0.5801	0.5947	-0.032
Mof_H 	H 	0.5191	0.5298	0.5805	0.039
Mof_C 	C 	0.5183	0.6726	0.5969	-0.015
Mof_C 	C 	0.4994	0.7478	0.6181	-0.032
Mof_H 	H 	0.5073	0.8097	0.6196	0.034
Mof_C 	C 	0.4689	0.7305	0.6372	-0.074
Mof_H 	H 	0.4562	0.7808	0.6514	0.051
Mof_C 	C 	0.6441	0.749	0.4995	0.367
Mof_C 	C 	0.55246	0.6921	0.5788	0.066
Mof_C 	C 	0.5734	0.6176	0.5702	-0.124
Mof_H 	H 	0.5673	0.5553	0.58	0.072
Mof_C 	C 	0.60329	0.6362	0.5469	0.041
Mof_H 	H 	0.6173	0.5863	0.5411	0.026
Mof_C 	C 	0.61231	0.7293	0.5322	-0.116
Mof_C 	C 	0.5914	0.8038	0.5408	0.041
Mof_H 	H 	0.5974	0.866	0.531	0.02
Mof_C 	C 	0.5615	0.7852	0.5641	-0.127
Mof_H 	H 	0.5475	0.835	0.5699	0.067
Mof_Eu	Eu	0.20411	0.29234	0.45204	2.102
Mof_O 	O 	0.22275	0.4327	0.5508	-0.505
Mof_O 	O 	0.26449	0.346	0.5486	-0.643
Mof_O 	O 	0.23786	0.6624	0.8401	-0.601
Mof_O 	O 	0.2839	0.7399	0.881	-0.53
Mof_O 	O 	0.6536	0.8324	0.5058	-0.476
Mof_O 	O 	0.6595	0.684	0.4747	-0.474
Mof_C 	C 	0.7528	0.9212	0.5771	0.495
Mof_C 	C 	0.7724	0.9923	0.6358	-0.226
Mof_C 	C 	0.8047	0.0031	0.6303	0.064
Mof_H 	H 	0.8135	0.964	0.5885	0.001
Mof_C 	C 	0.8243	0.0722	0.687	-0.08
Mof_C 	C 	0.8113	0.1258	0.7515	0.061
Mof_H 	H 	0.8242	0.1713	0.7895	0.021
Mof_C 	C 	0.7798	0.1147	0.7623	-0.19
Mof_C 	C 	0.7596	0.051	0.6996	0.124
Mof_H 	H 	0.7376	0.0479	0.7005	-0.007
Mof_C 	C 	0.7655	0.1763	0.8372	0.54
Mof_C 	C 	0.8588	0.0869	0.6764	0.055
Mof_C 	C 	0.8783	0.0145	0.6555	-0.087
Mof_H 	H 	0.87	0.953	0.6515	0.06
Mof_C 	C 	0.9098	0.0272	0.6399	-0.033
Mof_H 	H 	0.9217	0.9755	0.6254	0.039
Mof_C 	C 	0.9231	0.1198	0.6464	-0.009
Mof_C 	C 	0.9034	0.1973	0.6713	-0.03
Mof_H 	H 	0.9121	0.2582	0.68	0.037
Mof_C 	C 	0.8715	0.1819	0.6823	-0.084
Mof_H 	H 	0.8586	0.2328	0.6934	0.059
Mof_C 	C 	0.9571	0.138	0.635	0.034
Mof_C 	C 	0.9759	0.0628	0.6138	-0.076
Mof_H 	H 	0.9681	0.0009	0.6123	0.054
Mof_C 	C 	0.0065	0.0801	0.5947	-0.032
Mof_H 	H 	0.0191	0.0298	0.5805	0.039
Mof_C 	C 	0.0183	0.1726	0.5969	-0.014
Mof_C 	C 	0.9994	0.2478	0.6181	-0.032
Mof_H 	H 	0.0073	0.3097	0.6196	0.034
Mof_C 	C 	0.9689	0.2305	0.6372	-0.073
Mof_H 	H 	0.9562	0.2808	0.6514	0.051
Mof_C 	C 	0.1441	0.249	0.4995	0.367
Mof_C 	C 	0.05246	0.1921	0.5788	0.066
Mof_C 	C 	0.0734	0.1176	0.5702	-0.124
Mof_H 	H 	0.0673	0.0553	0.58	0.072
Mof_C 	C 	0.10329	0.1362	0.5469	0.041
Mof_H 	H 	0.1173	0.0863	0.5411	0.026
Mof_C 	C 	0.11231	0.2293	0.5322	-0.116
Mof_C 	C 	0.0914	0.3038	0.5408	0.041
Mof_H 	H 	0.0974	0.366	0.531	0.02
Mof_C 	C 	0.0615	0.2852	0.5641	-0.127
Mof_H 	H 	0.0475	0.335	0.5699	0.068
Mof_Eu	Eu	0.70411	0.79234	0.45204	2.101
Mof_O 	O 	0.72275	0.9327	0.5508	-0.505
Mof_O 	O 	0.76449	0.846	0.5486	-0.643
Mof_O 	O 	0.73786	0.1624	0.8401	-0.601
Mof_O 	O 	0.7839	0.2399	0.881	-0.531
Mof_O 	O 	0.1536	0.3324	0.5058	-0.476
Mof_O 	O 	0.1595	0.184	0.4747	-0.474
Mof_C 	C 	0.7472	0.4212	0.9229	0.496
Mof_C 	C 	0.7276	0.4923	0.8642	-0.229
Mof_C 	C 	0.6953	0.5031	0.8697	0.067
Mof_H 	H 	0.6865	0.464	0.9115	-0
Mof_C 	C 	0.6757	0.5722	0.813	-0.081
Mof_C 	C 	0.6887	0.6258	0.7485	0.062
Mof_H 	H 	0.6758	0.6713	0.7105	0.021
Mof_C 	C 	0.7202	0.6147	0.7377	-0.191
Mof_C 	C 	0.7404	0.551	0.8004	0.126
Mof_H 	H 	0.7624	0.5479	0.7995	-0.007
Mof_C 	C 	0.7345	0.6763	0.6628	0.541
Mof_C 	C 	0.6412	0.5869	0.8236	0.056
Mof_C 	C 	0.6217	0.5145	0.8445	-0.087
Mof_H 	H 	0.63	0.453	0.8485	0.06
Mof_C 	C 	0.5902	0.5272	0.8601	-0.032
Mof_H 	H 	0.5783	0.4755	0.8746	0.039
Mof_C 	C 	0.5769	0.6198	0.8536	-0.009
Mof_C 	C 	0.5966	0.6973	0.8287	-0.03
Mof_H 	H 	0.5879	0.7582	0.82	0.037
Mof_C 	C 	0.6285	0.6819	0.8177	-0.084
Mof_H 	H 	0.6414	0.7328	0.8066	0.059
Mof_C 	C 	0.5429	0.638	0.865	0.034
Mof_C 	C 	0.5241	0.5628	0.8862	-0.076
Mof_H 	H 	0.5319	0.5009	0.8877	0.054
Mof_C 	C 	0.4935	0.5801	0.9053	-0.033
Mof_H 	H 	0.4809	0.5298	0.9195	0.039
Mof_C 	C 	0.4817	0.6726	0.9031	-0.014
Mof_C 	C 	0.5006	0.7478	0.8819	-0.032
Mof_H 	H 	0.4927	0.8097	0.8804	0.034
Mof_C 	C 	0.5311	0.7305	0.8628	-0.073
Mof_H 	H 	0.5438	0.7808	0.8486	0.051
Mof_C 	C 	0.3559	0.749	0.0005	0.364
Mof_C 	C 	0.44754	0.6921	0.9212	0.065
Mof_C 	C 	0.4266	0.6176	0.9298	-0.123
Mof_H 	H 	0.4327	0.5553	0.92	0.071
Mof_C 	C 	0.39671	0.6362	0.9531	0.04
Mof_H 	H 	0.3827	0.5863	0.9589	0.027
Mof_C 	C 	0.38769	0.7293	0.9678	-0.114
Mof_C 	C 	0.4086	0.8038	0.9592	0.039
Mof_H 	H 	0.4026	0.866	0.969	0.021
Mof_C 	C 	0.4385	0.7852	0.9359	-0.126
Mof_H 	H 	0.4525	0.835	0.9301	0.067
Mof_Eu	Eu	0.79589	0.29234	0.04796	2.103
Mof_O 	O 	0.77725	0.4327	0.9492	-0.505
Mof_O 	O 	0.73551	0.346	0.9514	-0.643
Mof_O 	O 	0.76214	0.6624	0.6599	-0.601
Mof_O 	O 	0.7161	0.7399	0.619	-0.53
Mof_O 	O 	0.3464	0.8324	0.9942	-0.474
Mof_O 	O 	0.3405	0.684	0.0253	-0.473
Mof_C 	C 	0.2472	0.9212	0.9229	0.494
Mof_C 	C 	0.2276	0.9923	0.8642	-0.222
Mof_C 	C 	0.1953	0.0031	0.8697	0.057
Mof_H 	H 	0.1865	0.964	0.9115	0.004
Mof_C 	C 	0.1757	0.0722	0.813	-0.077
Mof_C 	C 	0.1887	0.1258	0.7485	0.058
Mof_H 	H 	0.1758	0.1713	0.7105	0.022
Mof_C 	C 	0.2202	0.1147	0.7377	-0.188
Mof_C 	C 	0.2404	0.051	0.8004	0.12
Mof_H 	H 	0.2624	0.0479	0.7995	-0.006
Mof_C 	C 	0.2345	0.1763	0.6628	0.539
Mof_C 	C 	0.1412	0.0869	0.8236	0.054
Mof_C 	C 	0.1217	0.0145	0.8445	-0.087
Mof_H 	H 	0.13	0.953	0.8485	0.06
Mof_C 	C 	0.0902	0.0272	0.8601	-0.036
Mof_H 	H 	0.0783	0.9755	0.8746	0.041
Mof_C 	C 	0.0769	0.1198	0.8536	-0.008
Mof_C 	C 	0.0966	0.1973	0.8287	-0.031
Mof_H 	H 	0.0879	0.2582	0.82	0.037
Mof_C 	C 	0.1285	0.1819	0.8177	-0.083
Mof_H 	H 	0.1414	0.2328	0.8066	0.058
Mof_C 	C 	0.0429	0.138	0.865	0.034
Mof_C 	C 	0.0241	0.0628	0.8862	-0.075
Mof_H 	H 	0.0319	0.0009	0.8877	0.054
Mof_C 	C 	0.9935	0.0801	0.9053	-0.033
Mof_H 	H 	0.9809	0.0298	0.9195	0.039
Mof_C 	C 	0.9817	0.1726	0.9031	-0.014
Mof_C 	C 	0.0006	0.2478	0.8819	-0.032
Mof_H 	H 	0.9927	0.3097	0.8804	0.034
Mof_C 	C 	0.0311	0.2305	0.8628	-0.073
Mof_H 	H 	0.0438	0.2808	0.8486	0.051
Mof_C 	C 	0.8559	0.249	0.0005	0.369
Mof_C 	C 	0.94754	0.1921	0.9212	0.066
Mof_C 	C 	0.9266	0.1176	0.9298	-0.125
Mof_H 	H 	0.9327	0.0553	0.92	0.072
Mof_C 	C 	0.89671	0.1362	0.9531	0.042
Mof_H 	H 	0.8827	0.0863	0.9589	0.025
Mof_C 	C 	0.88769	0.2293	0.9678	-0.117
Mof_C 	C 	0.9086	0.3038	0.9592	0.042
Mof_H 	H 	0.9026	0.366	0.969	0.02
Mof_C 	C 	0.9385	0.2852	0.9359	-0.127
Mof_H 	H 	0.9525	0.335	0.9301	0.068
Mof_Eu	Eu	0.29589	0.79234	0.04796	2.099
Mof_O 	O 	0.27725	0.9327	0.9492	-0.504
Mof_O 	O 	0.23551	0.846	0.9514	-0.642
Mof_O 	O 	0.26214	0.1624	0.6599	-0.601
Mof_O 	O 	0.2161	0.2399	0.619	-0.53
Mof_O 	O 	0.8464	0.3324	0.9942	-0.477
Mof_O 	O 	0.8405	0.184	0.0253	-0.474
Mof_C 	C 	0.7472	0.5788	0.4229	0.496
Mof_C 	C 	0.7276	0.5077	0.3642	-0.229
Mof_C 	C 	0.6953	0.4969	0.3697	0.066
Mof_H 	H 	0.6865	0.536	0.4115	-0.001
Mof_C 	C 	0.6757	0.4278	0.313	-0.081
Mof_C 	C 	0.6887	0.3742	0.2485	0.061
Mof_H 	H 	0.6758	0.3287	0.2105	0.021
Mof_C 	C 	0.7202	0.3853	0.2377	-0.191
Mof_C 	C 	0.7404	0.449	0.3004	0.126
Mof_H 	H 	0.7624	0.4521	0.2995	-0.007
Mof_C 	C 	0.7345	0.3237	0.1628	0.54
Mof_C 	C 	0.6412	0.4131	0.3236	0.056
Mof_C 	C 	0.6217	0.4855	0.3445	-0.087
Mof_H 	H 	0.63	0.547	0.3485	0.06
Mof_C 	C 	0.5902	0.4728	0.3601	-0.032
Mof_H 	H 	0.5783	0.5245	0.3746	0.039
Mof_C 	C 	0.5769	0.3802	0.3536	-0.01
Mof_C 	C 	0.5966	0.3027	0.3287	-0.03
Mof_H 	H 	0.5879	0.2418	0.32	0.036
Mof_C 	C 	0.6285	0.3181	0.3177	-0.084
Mof_H 	H 	0.6414	0.2672	0.3066	0.059
Mof_C 	C 	0.5429	0.362	0.365	0.035
Mof_C 	C 	0.5241	0.4372	0.3862	-0.076
Mof_H 	H 	0.5319	0.4991	0.3877	0.055
Mof_C 	C 	0.4935	0.4199	0.4053	-0.032
Mof_H 	H 	0.4809	0.4702	0.4195	0.039
Mof_C 	C 	0.4817	0.3274	0.4031	-0.015
Mof_C 	C 	0.5006	0.2522	0.3819	-0.032
Mof_H 	H 	0.4927	0.1903	0.3804	0.034
Mof_C 	C 	0.5311	0.2695	0.3628	-0.074
Mof_H 	H 	0.5438	0.2192	0.3486	0.051
Mof_C 	C 	0.3559	0.251	0.5005	0.367
Mof_C 	C 	0.44754	0.3079	0.4212	0.066
Mof_C 	C 	0.4266	0.3824	0.4298	-0.124
Mof_H 	H 	0.4327	0.4447	0.42	0.072
Mof_C 	C 	0.39671	0.3638	0.4531	0.041
Mof_H 	H 	0.3827	0.4137	0.4589	0.026
Mof_C 	C 	0.38769	0.2707	0.4678	-0.116
Mof_C 	C 	0.4086	0.1962	0.4592	0.041
Mof_H 	H 	0.4026	0.134	0.469	0.02
Mof_C 	C 	0.4385	0.2148	0.4359	-0.127
Mof_H 	H 	0.4525	0.165	0.4301	0.067
Mof_Eu	Eu	0.79589	0.70766	0.54796	2.102
Mof_O 	O 	0.77725	0.5673	0.4492	-0.505
Mof_O 	O 	0.73551	0.654	0.4514	-0.643
Mof_O 	O 	0.76214	0.3376	0.1599	-0.601
Mof_O 	O 	0.7161	0.2601	0.119	-0.53
Mof_O 	O 	0.3464	0.1676	0.4942	-0.476
Mof_O 	O 	0.3405	0.316	0.5253	-0.474
Mof_C 	C 	0.2472	0.0788	0.4229	0.495
Mof_C 	C 	0.2276	0.0077	0.3642	-0.226
Mof_C 	C 	0.1953	0.9969	0.3697	0.064
Mof_H 	H 	0.1865	0.036	0.4115	0.001
Mof_C 	C 	0.1757	0.9278	0.313	-0.08
Mof_C 	C 	0.1887	0.8742	0.2485	0.061
Mof_H 	H 	0.1758	0.8287	0.2105	0.021
Mof_C 	C 	0.2202	0.8853	0.2377	-0.19
Mof_C 	C 	0.2404	0.949	0.3004	0.124
Mof_H 	H 	0.2624	0.9521	0.2995	-0.007
Mof_C 	C 	0.2345	0.8237	0.1628	0.54
Mof_C 	C 	0.1412	0.9131	0.3236	0.055
Mof_C 	C 	0.1217	0.9855	0.3445	-0.087
Mof_H 	H 	0.13	0.047	0.3485	0.06
Mof_C 	C 	0.0902	0.9728	0.3601	-0.033
Mof_H 	H 	0.0783	0.0245	0.3746	0.039
Mof_C 	C 	0.0769	0.8802	0.3536	-0.009
Mof_C 	C 	0.0966	0.8027	0.3287	-0.03
Mof_H 	H 	0.0879	0.7418	0.32	0.037
Mof_C 	C 	0.1285	0.8181	0.3177	-0.084
Mof_H 	H 	0.1414	0.7672	0.3066	0.059
Mof_C 	C 	0.0429	0.862	0.365	0.034
Mof_C 	C 	0.0241	0.9372	0.3862	-0.076
Mof_H 	H 	0.0319	0.9991	0.3877	0.054
Mof_C 	C 	0.9935	0.9199	0.4053	-0.032
Mof_H 	H 	0.9809	0.9702	0.4195	0.039
Mof_C 	C 	0.9817	0.8274	0.4031	-0.014
Mof_C 	C 	0.0006	0.7522	0.3819	-0.032
Mof_H 	H 	0.9927	0.6903	0.3804	0.034
Mof_C 	C 	0.0311	0.7695	0.3628	-0.073
Mof_H 	H 	0.0438	0.7192	0.3486	0.051
Mof_C 	C 	0.8559	0.751	0.5005	0.367
Mof_C 	C 	0.94754	0.8079	0.4212	0.066
Mof_C 	C 	0.9266	0.8824	0.4298	-0.124
Mof_H 	H 	0.9327	0.9447	0.42	0.072
Mof_C 	C 	0.89671	0.8638	0.4531	0.041
Mof_H 	H 	0.8827	0.9137	0.4589	0.026
Mof_C 	C 	0.88769	0.7707	0.4678	-0.116
Mof_C 	C 	0.9086	0.6962	0.4592	0.041
Mof_H 	H 	0.9026	0.634	0.469	0.02
Mof_C 	C 	0.9385	0.7148	0.4359	-0.127
Mof_H 	H 	0.9525	0.665	0.4301	0.068
Mof_Eu	Eu	0.29589	0.20766	0.54796	2.101
Mof_O 	O 	0.27725	0.0673	0.4492	-0.505
Mof_O 	O 	0.23551	0.154	0.4514	-0.643
Mof_O 	O 	0.26214	0.8376	0.1599	-0.601
Mof_O 	O 	0.2161	0.7601	0.119	-0.531
Mof_O 	O 	0.8464	0.6676	0.4942	-0.476
Mof_O 	O 	0.8405	0.816	0.5253	-0.474
Mof_C 	C 	0.2528	0.5788	0.0771	0.496
Mof_C 	C 	0.2724	0.5077	0.1358	-0.229
Mof_C 	C 	0.3047	0.4969	0.1303	0.067
Mof_H 	H 	0.3135	0.536	0.0885	-0
Mof_C 	C 	0.3243	0.4278	0.187	-0.081
Mof_C 	C 	0.3113	0.3742	0.2515	0.062
Mof_H 	H 	0.3242	0.3287	0.2895	0.021
Mof_C 	C 	0.2798	0.3853	0.2623	-0.191
Mof_C 	C 	0.2596	0.449	0.1996	0.126
Mof_H 	H 	0.2376	0.4521	0.2005	-0.007
Mof_C 	C 	0.2655	0.3237	0.3372	0.541
Mof_C 	C 	0.3588	0.4131	0.1764	0.056
Mof_C 	C 	0.3783	0.4855	0.1555	-0.087
Mof_H 	H 	0.37	0.547	0.1515	0.06
Mof_C 	C 	0.4098	0.4728	0.1399	-0.032
Mof_H 	H 	0.4217	0.5245	0.1254	0.039
Mof_C 	C 	0.4231	0.3802	0.1464	-0.009
Mof_C 	C 	0.4034	0.3027	0.1713	-0.03
Mof_H 	H 	0.4121	0.2418	0.18	0.037
Mof_C 	C 	0.3715	0.3181	0.1823	-0.084
Mof_H 	H 	0.3586	0.2672	0.1934	0.059
Mof_C 	C 	0.4571	0.362	0.135	0.034
Mof_C 	C 	0.4759	0.4372	0.1138	-0.076
Mof_H 	H 	0.4681	0.4991	0.1123	0.054
Mof_C 	C 	0.5065	0.4199	0.0947	-0.033
Mof_H 	H 	0.5191	0.4702	0.0805	0.039
Mof_C 	C 	0.5183	0.3274	0.0969	-0.014
Mof_C 	C 	0.4994	0.2522	0.1181	-0.032
Mof_H 	H 	0.5073	0.1903	0.1196	0.034
Mof_C 	C 	0.4689	0.2695	0.1372	-0.073
Mof_H 	H 	0.4562	0.2192	0.1514	0.051
Mof_C 	C 	0.6441	0.251	0.9995	0.364
Mof_C 	C 	0.55246	0.3079	0.0788	0.065
Mof_C 	C 	0.5734	0.3824	0.0702	-0.123
Mof_H 	H 	0.5673	0.4447	0.08	0.071
Mof_C 	C 	0.60329	0.3638	0.0469	0.04
Mof_H 	H 	0.6173	0.4137	0.0411	0.027
Mof_C 	C 	0.61231	0.2707	0.0322	-0.114
Mof_C 	C 	0.5914	0.1962	0.0408	0.039
Mof_H 	H 	0.5974	0.134	0.031	0.021
Mof_C 	C 	0.5615	0.2148	0.0641	-0.126
Mof_H 	H 	0.5475	0.165	0.0699	0.067
Mof_Eu	Eu	0.20411	0.70766	0.95204	2.103
Mof_O 	O 	0.22275	0.5673	0.0508	-0.505
Mof_O 	O 	0.26449	0.654	0.0486	-0.643
Mof_O 	O 	0.23786	0.3376	0.3401	-0.601
Mof_O 	O 	0.2839	0.2601	0.381	-0.53
Mof_O 	O 	0.6536	0.1676	0.0058	-0.474
Mof_O 	O 	0.6595	0.316	0.9747	-0.473
Mof_C 	C 	0.7528	0.0788	0.0771	0.494
Mof_C 	C 	0.7724	0.0077	0.1358	-0.222
Mof_C 	C 	0.8047	0.9969	0.1303	0.057
Mof_H 	H 	0.8135	0.036	0.0885	0.004
Mof_C 	C 	0.8243	0.9278	0.187	-0.077
Mof_C 	C 	0.8113	0.8742	0.2515	0.058
Mof_H 	H 	0.8242	0.8287	0.2895	0.022
Mof_C 	C 	0.7798	0.8853	0.2623	-0.188
Mof_C 	C 	0.7596	0.949	0.1996	0.12
Mof_H 	H 	0.7376	0.9521	0.2005	-0.006
Mof_C 	C 	0.7655	0.8237	0.3372	0.539
Mof_C 	C 	0.8588	0.9131	0.1764	0.054
Mof_C 	C 	0.8783	0.9855	0.1555	-0.087
Mof_H 	H 	0.87	0.047	0.1515	0.06
Mof_C 	C 	0.9098	0.9728	0.1399	-0.036
Mof_H 	H 	0.9217	0.0245	0.1254	0.041
Mof_C 	C 	0.9231	0.8802	0.1464	-0.008
Mof_C 	C 	0.9034	0.8027	0.1713	-0.031
Mof_H 	H 	0.9121	0.7418	0.18	0.037
Mof_C 	C 	0.8715	0.8181	0.1823	-0.083
Mof_H 	H 	0.8586	0.7672	0.1934	0.058
Mof_C 	C 	0.9571	0.862	0.135	0.034
Mof_C 	C 	0.9759	0.9372	0.1138	-0.075
Mof_H 	H 	0.9681	0.9991	0.1123	0.054
Mof_C 	C 	0.0065	0.9199	0.0947	-0.033
Mof_H 	H 	0.0191	0.9702	0.0805	0.039
Mof_C 	C 	0.0183	0.8274	0.0969	-0.014
Mof_C 	C 	0.9994	0.7522	0.1181	-0.032
Mof_H 	H 	0.0073	0.6903	0.1196	0.034
Mof_C 	C 	0.9689	0.7695	0.1372	-0.073
Mof_H 	H 	0.9562	0.7192	0.1514	0.051
Mof_C 	C 	0.1441	0.751	0.9995	0.369
Mof_C 	C 	0.05246	0.8079	0.0788	0.066
Mof_C 	C 	0.0734	0.8824	0.0702	-0.125
Mof_H 	H 	0.0673	0.9447	0.08	0.072
Mof_C 	C 	0.10329	0.8638	0.0469	0.042
Mof_H 	H 	0.1173	0.9137	0.0411	0.025
Mof_C 	C 	0.11231	0.7707	0.0322	-0.117
Mof_C 	C 	0.0914	0.6962	0.0408	0.042
Mof_H 	H 	0.0974	0.634	0.031	0.02
Mof_C 	C 	0.0615	0.7148	0.0641	-0.127
Mof_H 	H 	0.0475	0.665	0.0699	0.068
Mof_Eu	Eu	0.70411	0.20766	0.95204	2.099
Mof_O 	O 	0.72275	0.0673	0.0508	-0.504
Mof_O 	O 	0.76449	0.154	0.0486	-0.642
Mof_O 	O 	0.73786	0.8376	0.3401	-0.601
Mof_O 	O 	0.7839	0.7601	0.381	-0.53
Mof_O 	O 	0.1536	0.6676	0.0058	-0.477
Mof_O 	O 	0.1595	0.816	0.9747	-0.474
_end
