data_functionalizedCrystal
_audit_creation_method	'EQeq! by Chris Wilmer'
_symmetry_space_group_name_H-M	'P1'
_symmetry_Int_Tables_number	1
_symmetry_cell_setting	triclinic
loop_
_symmetry_equiv_pos_as_xyz
  x,y,z
_cell_length_a	24.789
_cell_length_b	26.0192
_cell_length_c	26.0192
_cell_angle_alpha	96.0428
_cell_angle_beta	116.159
_cell_angle_gamma	116.159
loop_
_atom_site_label
_atom_site_type_symbol
_atom_site_fract_x
_atom_site_fract_y
_atom_site_fract_z
_atom_site_charge
Mof_Zn	Zn	0.664	0.5685	0.9507	1.14
Mof_Zn	Zn	0.5553	0.4045	0.8971	1.19
Mof_Zn	Zn	0.782	0.6271	0.1151	1.184
Mof_Zn	Zn	0.7647	0.6138	0.8818	1.194
Mof_Zn	Zn	0.5513	0.6268	0.9092	1.181
Mof_H 	H 	0.2361	0.828	0.7686	0.031
Mof_H 	H 	0.2685	0.8526	0.7298	0.022
Mof_H 	H 	0.1234	0.7677	0.6025	0.019
Mof_H 	H 	0.1832	0.8352	0.6172	0.022
Mof_H 	H 	0.2129	0.91	0.7618	0.027
Mof_H 	H 	0.1541	0.9049	0.6993	0.036
Mof_H 	H 	0.5502	0.7621	0.0987	0.203
Mof_H 	H 	0.5658	0.7472	0.1586	0.188
Mof_H 	H 	0.6226	0.8092	0.1618	0.202
Mof_H 	H 	0.374	0.6383	0.7655	0.046
Mof_H 	H 	0.3248	0.8153	0.8037	0.118
Mof_H 	H 	0.3742	0.5202	0.8258	0.109
Mof_H 	H 	0.3799	0.3416	0.8232	0.088
Mof_H 	H 	0.6787	0.779	0.2484	0.174
Mof_H 	H 	0.695	0.728	0.2596	0.186
Mof_H 	H 	0.7547	0.7921	0.2689	0.178
Mof_H 	H 	0.2587	0.6304	0.6794	0.007
Mof_H 	H 	0.4312	0.8219	0.8915	0.074
Mof_H 	H 	0.5115	0.779	0.9258	0.036
Mof_H 	H 	0.181	0.6637	0.6457	0.106
Mof_H 	H 	0.253	0.0048	0.7886	0.108
Mof_H 	H 	0.0959	0.7992	0.4192	-0.011
Mof_H 	H 	0.449	0.2075	0.7925	0.034
Mof_H 	H 	0.6361	0.3134	0.1472	0.235
Mof_H 	H 	0.5619	0.2961	0.0919	0.224
Mof_H 	H 	0.6109	0.2816	0.0794	0.237
Mof_H 	H 	0.9888	0.7267	0.6887	0.147
Mof_H 	H 	0.9666	0.7535	0.5109	0.152
Mof_H 	H 	0.149	0.8414	0.5242	0.124
Mof_H 	H 	0.3285	0.9995	0.6787	0.12
Mof_H 	H 	0.0842	0.7486	0.6802	0.011
Mof_H 	H 	0.0631	0.7974	0.6728	0.008
Mof_H 	H 	0.2923	0.1119	0.8513	0.068
Mof_H 	H 	0.4032	0.1043	0.7191	0.012
Mof_H 	H 	0.3778	0.2247	0.8997	0.036
Mof_H 	H 	0.7719	0.4591	0.2469	0.211
Mof_H 	H 	0.6951	0.403	0.2232	0.209
Mof_H 	H 	0.7486	0.3921	0.2149	0.217
Mof_H 	H 	0.1987	0.3089	0.7335	0.172
Mof_H 	H 	0.237	0.2779	0.7239	0.181
Mof_H 	H 	0.2353	0.2862	0.7836	0.193
Mof_H 	H 	0.1496	0.8322	0.8536	0.129
Mof_H 	H 	0.2023	0.371	0.7412	0.193
Mof_H 	H 	0.231	0.4346	0.787	0.215
Mof_H 	H 	0.2309	0.4307	0.7265	0.21
Mof_H 	H 	0.076	0.7971	0.9011	0.002
Mof_H 	H 	0.6708	0.3416	0.6906	0.163
Mof_H 	H 	0.6811	0.4004	0.6748	0.176
Mof_H 	H 	0.7455	0.4044	0.7308	0.176
Mof_H 	H 	0.5751	0.2598	0.7354	0.26
Mof_H 	H 	0.576	0.2811	0.6815	0.228
Mof_H 	H 	0.6448	0.2877	0.7343	0.243
Mof_H 	H 	0.6782	0.79	0.7208	0.221
Mof_H 	H 	0.7521	0.7995	0.7671	0.227
Mof_H 	H 	0.6954	0.7415	0.7055	0.223
Mof_H 	H 	0.5983	0.7933	0.7273	0.172
Mof_H 	H 	0.5306	0.7466	0.7264	0.174
Mof_H 	H 	0.5945	0.8062	0.7854	0.173
Mof_H 	H 	0.1242	0.8016	0.1066	0.157
Mof_H 	H 	0.0842	0.7523	0.0411	0.17
Mof_H 	H 	0.0723	0.8064	0.0478	0.169
Mof_H 	H 	0.1252	0.7981	0.2009	0.197
Mof_H 	H 	0.0756	0.8068	0.2178	0.22
Mof_H 	H 	0.0784	0.7478	0.2174	0.217
Mof_H 	H 	0.5826	0.3335	0.8101	0.124
Mof_H 	H 	0.7256	0.4954	0.7758	0.081
Mof_H 	H 	0.5644	0.7109	0.8195	0.084
Mof_H 	H 	0.7332	0.7004	0.7936	0.1
Mof_H 	H 	0.9599	0.7212	0.1678	0.101
Mof_H 	H 	0.9424	0.6954	0.9806	0.084
Mof_H 	H 	0.5649	0.7051	0.0305	0.092
Mof_H 	H 	0.7488	0.7098	0.197	0.087
Mof_H 	H 	0.7927	0.6523	0.3001	0.013
Mof_H 	H 	0.8521	0.6917	0.4067	0.091
Mof_H 	H 	0.9821	0.7316	0.3148	0.034
Mof_H 	H 	0.9638	0.7259	0.8797	0.026
Mof_H 	H 	0.8601	0.6516	0.6682	0.086
Mof_H 	H 	0.7907	0.6126	0.7088	0.018
Mof_H 	H 	0.7708	0.5185	0.1839	0.083
Mof_H 	H 	0.579	0.3432	0.0092	0.114
Mof_C 	C 	0.164	0.83	0.69	-0.035
Mof_C 	C 	0.379	0.123	0.781	-0.061
Mof_C 	C 	0.226	0.823	0.727	0.051
Mof_C 	C 	0.142	0.811	0.619	0.071
Mof_C 	C 	0.192	0.898	0.718	0.047
Mof_C 	C 	0.444	0.702	0.852	-0.098
Mof_C 	C 	0.436	0.432	0.848	0.087
Mof_C 	C 	0.587	0.767	0.137	-0.605
Mof_C 	C 	0.384	0.673	0.791	-0.008
Mof_C 	C 	0.313	0.778	0.78	-0.26
Mof_C 	C 	0.373	0.484	0.824	-0.228
Mof_C 	C 	0.377	0.376	0.82	-0.213
Mof_C 	C 	0.434	0.481	0.851	0.069
Mof_C 	C 	0.704	0.761	0.245	-0.542
Mof_C 	C 	0.271	0.666	0.706	0.048
Mof_C 	C 	0.357	0.753	0.805	0.119
Mof_C 	C 	0.419	0.786	0.866	-0.143
Mof_C 	C 	0.468	0.758	0.888	0.017
Mof_C 	C 	0.255	0.745	0.725	0.231
Mof_C 	C 	0.225	0.685	0.683	-0.207
Mof_C 	C 	0.291	0.995	0.733	0.256
Mof_C 	C 	0.327	0.095	0.797	0.099
Mof_C 	C 	0.283	0.026	0.776	-0.225
Mof_C 	C 	0.059	0.799	0.525	0.315
Mof_C 	C 	0.068	0.79	0.436	0.101
Mof_C 	C 	0.419	0.188	0.806	-0.009
Mof_C 	C 	0.42	0.223	0.847	-0.071
Mof_C 	C 	0.611	0.31	0.106	-0.689
Mof_C 	C 	0.006	0.74	0.73	-0.336
Mof_C 	C 	0.992	0.762	0.492	-0.335
Mof_C 	C 	0.073	0.78	0.768	0.348
Mof_C 	C 	0.099	0.814	0.498	-0.268
Mof_C 	C 	0.333	0.695	0.763	-0.072
Mof_C 	C 	0.842	0.658	0.224	0.356
Mof_C 	C 	0.331	0.023	0.711	-0.245
Mof_C 	C 	0.102	0.792	0.696	0.103
Mof_C 	C 	0.82	0.637	0.825	0.425
Mof_C 	C 	0.312	0.427	0.793	0.155
Mof_C 	C 	0.325	0.131	0.841	-0.125
Mof_C 	C 	0.375	0.086	0.734	0.058
Mof_C 	C 	0.376	0.2	0.87	-0.003
Mof_C 	C 	0.732	0.419	0.215	-0.636
Mof_C 	C 	0.238	0.304	0.754	-0.577
Mof_C 	C 	0.309	0.367	0.787	0.108
Mof_C 	C 	0.101	0.802	0.828	-0.258
Mof_C 	C 	0.237	0.415	0.759	-0.644
Mof_C 	C 	0.057	0.781	0.859	0.051
Mof_C 	C 	0.695	0.386	0.708	-0.524
Mof_C 	C 	0.604	0.289	0.725	-0.746
Mof_C 	C 	0.702	0.77	0.738	-0.689
Mof_C 	C 	0.582	0.775	0.751	-0.519
Mof_C 	C 	0.08	0.778	0.066	-0.489
Mof_C 	C 	0.08	0.778	0.198	-0.637
Mof_C 	C 	0.679	0.474	0.824	0.057
Mof_C 	C 	0.636	0.426	0.834	0.151
Mof_C 	C 	0.611	0.3663	0.8037	-0.29
Mof_C 	C 	0.629	0.354	0.762	0.197
Mof_C 	C 	0.672	0.403	0.751	0.067
Mof_C 	C 	0.697	0.463	0.783	-0.171
Mof_C 	C 	0.628	0.677	0.843	0.062
Mof_C 	C 	0.598	0.709	0.815	-0.161
Mof_C 	C 	0.619	0.737	0.779	0.051
Mof_C 	C 	0.67	0.734	0.77	0.181
Mof_C 	C 	0.699	0.703	0.799	-0.228
Mof_C 	C 	0.679	0.675	0.835	0.09
Mof_C 	C 	0.889	0.681	0.075	0.088
Mof_C 	C 	0.956	0.716	0.13	-0.211
Mof_C 	C 	0.018	0.743	0.129	0.153
Mof_C 	C 	0.013	0.735	0.073	0.051
Mof_C 	C 	0.946	0.7	0.018	-0.157
Mof_C 	C 	0.884	0.673	0.019	0.082
Mof_C 	C 	0.467	0.294	0.872	0.259
Mof_C 	C 	0.691	0.681	0.103	0.071
Mof_C 	C 	0.636	0.68	0.054	0.085
Mof_C 	C 	0.602	0.706	0.064	-0.202
Mof_C 	C 	0.623	0.734	0.124	0.121
Mof_C 	C 	0.678	0.735	0.173	0.081
Mof_C 	C 	0.712	0.7086	0.1634	-0.181
Mof_C 	C 	0.881	0.688	0.296	-0.124
Mof_C 	C 	0.843	0.676	0.324	0.072
Mof_C 	C 	0.878	0.7	0.388	-0.198
Mof_C 	C 	0.953	0.735	0.425	0.18
Mof_C 	C 	0.992	0.747	0.397	-0.109
Mof_C 	C 	0.956	0.723	0.333	0.027
Mof_C 	C 	0.87	0.666	0.798	-0.119
Mof_C 	C 	0.943	0.711	0.837	0.024
Mof_C 	C 	0.985	0.735	0.813	-0.088
Mof_C 	C 	0.954	0.712	0.75	0.162
Mof_C 	C 	0.881	0.667	0.711	-0.183
Mof_C 	C 	0.839	0.643	0.735	0.061
Mof_C 	C 	0.48	0.667	0.875	0.417
Mof_C 	C 	0.703	0.4883	0.0917	0.02
Mof_C 	C 	0.732	0.483	0.149	-0.173
Mof_C 	C 	0.704	0.4261	0.1539	0.124
Mof_C 	C 	0.647	0.374	0.102	0.153
Mof_C 	C 	0.617	0.378	0.044	-0.236
Mof_C 	C 	0.646	0.4352	0.0388	0.126
Mof_N 	N 	0.657	0.623	0.893	-0.21
Mof_N 	N 	0.666	0.63	0.016	-0.202
Mof_N 	N 	0.709	0.65	0.078	-0.252
Mof_N 	N 	0.823	0.647	0.067	-0.272
Mof_N 	N 	0.783	0.625	0.005	-0.196
Mof_N 	N 	0.668	0.508	0.006	-0.186
Mof_N 	N 	0.623	0.446	0.984	-0.276
Mof_N 	N 	0.621	0.445	0.867	-0.267
Mof_N 	N 	0.662	0.508	0.89	-0.227
Mof_N 	N 	0.506	0.448	0.878	-0.262
Mof_N 	N 	0.544	0.509	0.899	-0.196
Mof_N 	N 	0.621	0.647	0.999	-0.254
Mof_N 	N 	0.699	0.525	0.861	-0.257
Mof_N 	N 	0.696	0.638	0.866	-0.259
Mof_N 	N 	0.619	0.649	0.883	-0.254
Mof_N 	N 	0.506	0.535	0.883	-0.249
Mof_N 	N 	0.816	0.64	0.972	-0.269
Mof_N 	N 	0.716	0.53	0.06	-0.213
Mof_O 	O 	0.091	0.823	0.589	-0.265
Mof_O 	O 	0.245	0.932	0.706	-0.249
Mof_O 	O 	0.206	0.764	0.698	-0.247
Mof_O 	O 	0.458	0.624	0.84	-0.5
Mof_O 	O 	0.778	0.628	0.2	-0.426
Mof_O 	O 	0.876	0.671	0.201	-0.481
Mof_O 	O 	0.841	0.657	0.871	-0.597
Mof_O 	O 	0.75	0.6	0.774	-0.353
Mof_O 	O 	0.123	0.809	0.755	-0.297
Mof_O 	O 	0.536	0.705	0.923	-0.452
Mof_O 	O 	0.463	0.324	0.91	-0.347
Mof_O 	O 	0.514	0.316	0.858	-0.463
Mof_Zn	Zn	0.336	0.0493	0.4315	1.139
Mof_Zn	Zn	0.4447	0.1029	0.5955	1.189
Mof_Zn	Zn	0.218	0.8849	0.3729	1.183
Mof_Zn	Zn	0.2353	0.1182	0.3862	1.193
Mof_Zn	Zn	0.4487	0.0908	0.3732	1.18
Mof_H 	H 	0.7639	0.2314	0.172	0.03
Mof_H 	H 	0.7315	0.2702	0.1474	0.021
Mof_H 	H 	0.8766	0.3975	0.2323	0.018
Mof_H 	H 	0.8168	0.3828	0.1648	0.022
Mof_H 	H 	0.7871	0.2382	0.09	0.027
Mof_H 	H 	0.8459	0.3007	0.0951	0.036
Mof_H 	H 	0.4498	0.9013	0.2379	0.203
Mof_H 	H 	0.4342	0.8414	0.2528	0.188
Mof_H 	H 	0.3774	0.8382	0.1908	0.202
Mof_H 	H 	0.626	0.2345	0.3617	0.046
Mof_H 	H 	0.6752	0.1963	0.1847	0.118
Mof_H 	H 	0.6258	0.1742	0.4798	0.109
Mof_H 	H 	0.6201	0.1768	0.6584	0.088
Mof_H 	H 	0.3213	0.7516	0.221	0.174
Mof_H 	H 	0.305	0.7404	0.272	0.186
Mof_H 	H 	0.2453	0.7311	0.2079	0.178
Mof_H 	H 	0.7413	0.3206	0.3696	0.007
Mof_H 	H 	0.5688	0.1085	0.1781	0.074
Mof_H 	H 	0.4885	0.0742	0.221	0.036
Mof_H 	H 	0.819	0.3543	0.3363	0.106
Mof_H 	H 	0.747	0.2114	0.9952	0.108
Mof_H 	H 	0.9041	0.5808	0.2008	-0.011
Mof_H 	H 	0.551	0.2075	0.7925	0.034
Mof_H 	H 	0.3639	0.8528	0.6866	0.235
Mof_H 	H 	0.4381	0.9081	0.7039	0.224
Mof_H 	H 	0.3891	0.9206	0.7184	0.237
Mof_H 	H 	0.0112	0.3113	0.2733	0.147
Mof_H 	H 	0.0334	0.4891	0.2465	0.152
Mof_H 	H 	0.851	0.4758	0.1586	0.124
Mof_H 	H 	0.6715	0.3213	0.0005	0.12
Mof_H 	H 	0.9158	0.3198	0.2514	0.011
Mof_H 	H 	0.9369	0.3272	0.2026	0.008
Mof_H 	H 	0.7077	0.1487	0.8881	0.068
Mof_H 	H 	0.5968	0.2809	0.8957	0.012
Mof_H 	H 	0.6222	0.1003	0.7753	0.036
Mof_H 	H 	0.2281	0.7531	0.5409	0.211
Mof_H 	H 	0.3049	0.7768	0.597	0.209
Mof_H 	H 	0.2514	0.7851	0.6079	0.217
Mof_H 	H 	0.8013	0.2665	0.6911	0.172
Mof_H 	H 	0.763	0.2761	0.7221	0.181
Mof_H 	H 	0.7647	0.2164	0.7138	0.193
Mof_H 	H 	0.8504	0.1464	0.1678	0.129
Mof_H 	H 	0.7977	0.2588	0.629	0.193
Mof_H 	H 	0.769	0.213	0.5654	0.215
Mof_H 	H 	0.7691	0.2735	0.5693	0.21
Mof_H 	H 	0.924	0.0989	0.2029	0.002
Mof_H 	H 	0.3292	0.3094	0.6584	0.163
Mof_H 	H 	0.3189	0.3252	0.5996	0.176
Mof_H 	H 	0.2545	0.2692	0.5956	0.176
Mof_H 	H 	0.4249	0.2646	0.7402	0.26
Mof_H 	H 	0.424	0.3185	0.7189	0.228
Mof_H 	H 	0.3552	0.2657	0.7123	0.243
Mof_H 	H 	0.3218	0.2792	0.21	0.221
Mof_H 	H 	0.2479	0.2329	0.2005	0.227
Mof_H 	H 	0.3046	0.2945	0.2585	0.223
Mof_H 	H 	0.4017	0.2727	0.2067	0.172
Mof_H 	H 	0.4694	0.2736	0.2534	0.174
Mof_H 	H 	0.4055	0.2146	0.1938	0.173
Mof_H 	H 	0.8758	0.8934	0.1984	0.157
Mof_H 	H 	0.9158	0.9589	0.2477	0.17
Mof_H 	H 	0.9277	0.9522	0.1936	0.169
Mof_H 	H 	0.8748	0.7991	0.2019	0.197
Mof_H 	H 	0.9244	0.7822	0.1932	0.22
Mof_H 	H 	0.9216	0.7826	0.2522	0.217
Mof_H 	H 	0.4174	0.1899	0.6665	0.124
Mof_H 	H 	0.2744	0.2242	0.5046	0.081
Mof_H 	H 	0.4356	0.1805	0.2891	0.084
Mof_H 	H 	0.2668	0.2064	0.2996	0.1
Mof_H 	H 	0.0401	0.8322	0.2788	0.101
Mof_H 	H 	0.0576	0.0194	0.3046	0.084
Mof_H 	H 	0.4351	0.9695	0.2949	0.092
Mof_H 	H 	0.2512	0.803	0.2902	0.087
Mof_H 	H 	0.2073	0.6999	0.3477	0.013
Mof_H 	H 	0.1479	0.5933	0.3083	0.091
Mof_H 	H 	0.0179	0.6852	0.2684	0.034
Mof_H 	H 	0.0362	0.1203	0.2741	0.026
Mof_H 	H 	0.1399	0.3318	0.3484	0.086
Mof_H 	H 	0.2093	0.2912	0.3874	0.018
Mof_H 	H 	0.2292	0.8161	0.4815	0.083
Mof_H 	H 	0.421	0.9908	0.6568	0.114
Mof_C 	C 	0.836	0.31	0.17	-0.035
Mof_C 	C 	0.621	0.219	0.877	-0.061
Mof_C 	C 	0.774	0.273	0.177	0.051
Mof_C 	C 	0.858	0.381	0.189	0.071
Mof_C 	C 	0.808	0.282	0.102	0.047
Mof_C 	C 	0.556	0.148	0.298	-0.098
Mof_C 	C 	0.564	0.152	0.568	0.087
Mof_C 	C 	0.413	0.863	0.233	-0.605
Mof_C 	C 	0.616	0.209	0.327	-0.008
Mof_C 	C 	0.687	0.22	0.222	-0.26
Mof_C 	C 	0.627	0.176	0.516	-0.228
Mof_C 	C 	0.623	0.18	0.624	-0.213
Mof_C 	C 	0.566	0.149	0.519	0.069
Mof_C 	C 	0.296	0.755	0.239	-0.542
Mof_C 	C 	0.729	0.294	0.334	0.048
Mof_C 	C 	0.643	0.195	0.247	0.119
Mof_C 	C 	0.581	0.134	0.214	-0.143
Mof_C 	C 	0.532	0.112	0.242	0.017
Mof_C 	C 	0.745	0.275	0.255	0.231
Mof_C 	C 	0.775	0.317	0.315	-0.207
Mof_C 	C 	0.709	0.267	0.005	0.256
Mof_C 	C 	0.673	0.203	0.905	0.099
Mof_C 	C 	0.717	0.224	0.974	-0.225
Mof_C 	C 	0.941	0.475	0.201	0.315
Mof_C 	C 	0.932	0.564	0.21	0.101
Mof_C 	C 	0.581	0.194	0.812	-0.009
Mof_C 	C 	0.58	0.153	0.777	-0.071
Mof_C 	C 	0.389	0.894	0.69	-0.689
Mof_C 	C 	0.994	0.27	0.26	-0.336
Mof_C 	C 	0.008	0.508	0.238	-0.335
Mof_C 	C 	0.927	0.232	0.22	0.348
Mof_C 	C 	0.901	0.502	0.186	-0.268
Mof_C 	C 	0.667	0.237	0.305	-0.072
Mof_C 	C 	0.158	0.776	0.342	0.356
Mof_C 	C 	0.669	0.289	0.977	-0.245
Mof_C 	C 	0.898	0.304	0.208	0.103
Mof_C 	C 	0.18	0.175	0.363	0.425
Mof_C 	C 	0.688	0.207	0.573	0.155
Mof_C 	C 	0.675	0.159	0.869	-0.125
Mof_C 	C 	0.625	0.266	0.914	0.058
Mof_C 	C 	0.624	0.13	0.8	-0.003
Mof_C 	C 	0.268	0.785	0.581	-0.636
Mof_C 	C 	0.762	0.246	0.696	-0.577
Mof_C 	C 	0.691	0.213	0.633	0.108
Mof_C 	C 	0.899	0.172	0.198	-0.258
Mof_C 	C 	0.763	0.241	0.585	-0.644
Mof_C 	C 	0.943	0.141	0.219	0.051
Mof_C 	C 	0.305	0.292	0.614	-0.524
Mof_C 	C 	0.396	0.275	0.711	-0.746
Mof_C 	C 	0.298	0.262	0.23	-0.689
Mof_C 	C 	0.418	0.249	0.225	-0.519
Mof_C 	C 	0.92	0.934	0.222	-0.489
Mof_C 	C 	0.92	0.802	0.222	-0.637
Mof_C 	C 	0.321	0.176	0.526	0.057
Mof_C 	C 	0.364	0.166	0.574	0.151
Mof_C 	C 	0.389	0.1963	0.6337	-0.29
Mof_C 	C 	0.371	0.238	0.646	0.197
Mof_C 	C 	0.328	0.249	0.597	0.067
Mof_C 	C 	0.303	0.217	0.537	-0.171
Mof_C 	C 	0.372	0.157	0.323	0.062
Mof_C 	C 	0.402	0.185	0.291	-0.161
Mof_C 	C 	0.381	0.221	0.263	0.051
Mof_C 	C 	0.33	0.23	0.266	0.181
Mof_C 	C 	0.301	0.201	0.297	-0.228
Mof_C 	C 	0.321	0.165	0.325	0.09
Mof_C 	C 	0.111	0.925	0.319	0.088
Mof_C 	C 	0.044	0.87	0.284	-0.211
Mof_C 	C 	0.982	0.871	0.257	0.153
Mof_C 	C 	0.987	0.927	0.265	0.051
Mof_C 	C 	0.054	0.982	0.3	-0.157
Mof_C 	C 	0.116	0.981	0.327	0.082
Mof_C 	C 	0.533	0.128	0.706	0.259
Mof_C 	C 	0.309	0.897	0.319	0.071
Mof_C 	C 	0.364	0.946	0.32	0.085
Mof_C 	C 	0.398	0.936	0.294	-0.202
Mof_C 	C 	0.377	0.876	0.266	0.121
Mof_C 	C 	0.322	0.827	0.265	0.081
Mof_C 	C 	0.288	0.8366	0.2914	-0.181
Mof_C 	C 	0.119	0.704	0.312	-0.124
Mof_C 	C 	0.157	0.676	0.324	0.072
Mof_C 	C 	0.122	0.612	0.3	-0.198
Mof_C 	C 	0.047	0.575	0.265	0.18
Mof_C 	C 	0.008	0.603	0.253	-0.109
Mof_C 	C 	0.044	0.667	0.277	0.027
Mof_C 	C 	0.13	0.202	0.334	-0.119
Mof_C 	C 	0.057	0.163	0.289	0.024
Mof_C 	C 	0.015	0.187	0.265	-0.088
Mof_C 	C 	0.046	0.25	0.288	0.162
Mof_C 	C 	0.119	0.289	0.333	-0.183
Mof_C 	C 	0.161	0.265	0.357	0.061
Mof_C 	C 	0.52	0.125	0.333	0.417
Mof_C 	C 	0.297	0.9083	0.5117	0.02
Mof_C 	C 	0.268	0.851	0.517	-0.173
Mof_C 	C 	0.296	0.8461	0.5739	0.124
Mof_C 	C 	0.353	0.898	0.626	0.153
Mof_C 	C 	0.383	0.956	0.622	-0.236
Mof_C 	C 	0.354	0.9612	0.5648	0.126
Mof_N 	N 	0.343	0.107	0.377	-0.21
Mof_N 	N 	0.334	0.984	0.37	-0.202
Mof_N 	N 	0.291	0.922	0.35	-0.252
Mof_N 	N 	0.177	0.933	0.353	-0.272
Mof_N 	N 	0.217	0.995	0.375	-0.196
Mof_N 	N 	0.332	0.994	0.492	-0.186
Mof_N 	N 	0.377	0.016	0.554	-0.276
Mof_N 	N 	0.379	0.133	0.555	-0.267
Mof_N 	N 	0.338	0.11	0.492	-0.227
Mof_N 	N 	0.494	0.122	0.552	-0.262
Mof_N 	N 	0.456	0.101	0.491	-0.196
Mof_N 	N 	0.379	0.001	0.353	-0.254
Mof_N 	N 	0.301	0.139	0.475	-0.257
Mof_N 	N 	0.304	0.134	0.362	-0.259
Mof_N 	N 	0.381	0.117	0.351	-0.254
Mof_N 	N 	0.494	0.117	0.465	-0.249
Mof_N 	N 	0.184	0.028	0.36	-0.269
Mof_N 	N 	0.284	0.94	0.47	-0.213
Mof_O 	O 	0.909	0.411	0.177	-0.265
Mof_O 	O 	0.755	0.294	0.068	-0.249
Mof_O 	O 	0.794	0.302	0.236	-0.247
Mof_O 	O 	0.542	0.16	0.376	-0.5
Mof_O 	O 	0.222	0.8	0.372	-0.426
Mof_O 	O 	0.124	0.799	0.329	-0.481
Mof_O 	O 	0.159	0.129	0.343	-0.597
Mof_O 	O 	0.25	0.226	0.4	-0.353
Mof_O 	O 	0.877	0.245	0.191	-0.297
Mof_O 	O 	0.464	0.077	0.295	-0.452
Mof_O 	O 	0.537	0.09	0.676	-0.347
Mof_O 	O 	0.486	0.142	0.684	-0.463
_end
