data_functionalizedCrystal
_audit_creation_method	'EQeq! by Chris Wilmer'
_symmetry_space_group_name_H-M	'P1'
_symmetry_Int_Tables_number	1
_symmetry_cell_setting	triclinic
loop_
_symmetry_equiv_pos_as_xyz
  x,y,z
_cell_length_a	6.6169
_cell_length_b	9.43
_cell_length_c	9.4642
_cell_angle_alpha	107.577
_cell_angle_beta	107.725
_cell_angle_gamma	93.2088
loop_
_atom_site_label
_atom_site_type_symbol
_atom_site_fract_x
_atom_site_fract_y
_atom_site_fract_z
_atom_site_charge
Mof_O 	O 	0.2533	0.9329	0.017	-0.637
Mof_O 	O 	0.4947	0.1784	0.1736	-0.688
Mof_O 	O 	0.1796	0.1704	0.1664	-0.713
Mof_O 	O 	0.9625	0.9115	0.167	-0.361
Mof_O 	O 	0.6383	0.8956	0.1547	-0.47
Mof_C 	C 	0.3638	0.232	0.2307	0.62
Mof_C 	C 	0.4431	0.347	0.3933	-0.162
Mof_C 	C 	0.6503	0.4367	0.3913	0.008
Mof_C 	C 	0.2794	0.4388	0.4467	-0.005
Mof_C 	C 	0.827	0.8904	0.23126	0.48
Mof_C 	C 	0.8808	0.8467	0.3747	-0.172
Mof_C 	C 	0.7486	0.9511	0.4497	0.316
Mof_C 	C 	0.8818	0.0929	0.5525	-0.158
Mof_O 	O 	0.7467	0.0671	0.983	-0.459
Mof_O 	O 	0.5053	0.8216	0.8264	-0.328
Mof_O 	O 	0.8204	0.8296	0.8336	-0.274
Mof_O 	O 	0.0375	0.0885	0.833	-0.387
Mof_O 	O 	0.3617	0.1044	0.8453	-0.371
Mof_C 	C 	0.6362	0.768	0.7693	0.521
Mof_C 	C 	0.5569	0.653	0.6067	-0.113
Mof_C 	C 	0.3497	0.5633	0.6087	0.076
Mof_C 	C 	0.7206	0.5612	0.5533	0.102
Mof_C 	C 	0.173	0.1096	0.76874	0.399
Mof_C 	C 	0.1192	0.1533	0.6253	-0.046
Mof_C 	C 	0.2514	0.0489	0.5503	-0.244
Mof_C 	C 	0.1182	0.9071	0.4475	0.233
Mof_Al	Al	-0	0	-0	1.286
Mof_Al	Al	0.5	0	-0	1.547
_end
