data_functionalizedCrystal
_audit_creation_method	'EQeq! by Chris Wilmer'
_symmetry_space_group_name_H-M	'P1'
_symmetry_Int_Tables_number	1
_symmetry_cell_setting	triclinic
loop_
_symmetry_equiv_pos_as_xyz
  x,y,z
_cell_length_a	16.9839
_cell_length_b	16.9839
_cell_length_c	16.9839
_cell_angle_alpha	90
_cell_angle_beta	90
_cell_angle_gamma	90
loop_
_atom_site_label
_atom_site_type_symbol
_atom_site_fract_x
_atom_site_fract_y
_atom_site_fract_z
_atom_site_charge
Mof_Mn	Mn	0.60214	0.89786	0.10214	0.544
Mof_Mn	Mn	0.89786	0.10214	0.60214	0.544
Mof_Mn	Mn	0.39786	0.39786	0.39786	0.545
Mof_Mn	Mn	0.10214	0.60214	0.89786	0.544
Mof_Mn	Mn	0.39786	0.10214	0.89786	0.544
Mof_Mn	Mn	0.10214	0.89786	0.39786	0.544
Mof_Mn	Mn	0.60214	0.60214	0.60214	0.546
Mof_Mn	Mn	0.89786	0.39786	0.10214	0.545
Mof_Re	Re	0.54032	0.97159	0.402	0.284
Mof_Re	Re	0.95968	0.02841	0.902	0.284
Mof_Re	Re	0.45968	0.47159	0.098	0.284
Mof_Re	Re	0.04032	0.52841	0.598	0.284
Mof_Re	Re	0.402	0.54032	0.97159	0.284
Mof_Re	Re	0.902	0.95968	0.02841	0.284
Mof_Re	Re	0.098	0.45968	0.47159	0.284
Mof_Re	Re	0.598	0.04032	0.52841	0.284
Mof_Re	Re	0.97159	0.402	0.54032	0.284
Mof_Re	Re	0.02841	0.902	0.95968	0.284
Mof_Re	Re	0.47159	0.098	0.45968	0.284
Mof_Re	Re	0.52841	0.598	0.04032	0.284
Mof_Re	Re	0.45968	0.02841	0.598	0.284
Mof_Re	Re	0.04032	0.97159	0.098	0.284
Mof_Re	Re	0.54032	0.52841	0.902	0.284
Mof_Re	Re	0.95968	0.47159	0.402	0.284
Mof_Re	Re	0.598	0.45968	0.02841	0.284
Mof_Re	Re	0.098	0.04032	0.97159	0.284
Mof_Re	Re	0.902	0.54032	0.52841	0.284
Mof_Re	Re	0.402	0.95968	0.47159	0.284
Mof_Re	Re	0.02841	0.598	0.45968	0.284
Mof_Re	Re	0.97159	0.098	0.04032	0.284
Mof_Re	Re	0.52841	0.902	0.54032	0.284
Mof_Re	Re	0.47159	0.402	0.95968	0.284
Mof_C 	C 	0.5865	0.939	0.29	-0.036
Mof_C 	C 	0.9135	0.061	0.79	-0.036
Mof_C 	C 	0.4135	0.439	0.21	-0.036
Mof_C 	C 	0.0865	0.561	0.71	-0.036
Mof_C 	C 	0.29	0.5865	0.939	-0.036
Mof_C 	C 	0.79	0.9135	0.061	-0.036
Mof_C 	C 	0.21	0.4135	0.439	-0.036
Mof_C 	C 	0.71	0.0865	0.561	-0.036
Mof_C 	C 	0.939	0.29	0.5865	-0.036
Mof_C 	C 	0.061	0.79	0.9135	-0.036
Mof_C 	C 	0.439	0.21	0.4135	-0.036
Mof_C 	C 	0.561	0.71	0.0865	-0.036
Mof_C 	C 	0.4135	0.061	0.71	-0.036
Mof_C 	C 	0.0865	0.939	0.21	-0.036
Mof_C 	C 	0.5865	0.561	0.79	-0.036
Mof_C 	C 	0.9135	0.439	0.29	-0.036
Mof_C 	C 	0.71	0.4135	0.061	-0.036
Mof_C 	C 	0.21	0.0865	0.939	-0.036
Mof_C 	C 	0.79	0.5865	0.561	-0.036
Mof_C 	C 	0.29	0.9135	0.439	-0.036
Mof_C 	C 	0.061	0.71	0.4135	-0.036
Mof_C 	C 	0.939	0.21	0.0865	-0.036
Mof_C 	C 	0.561	0.79	0.5865	-0.036
Mof_C 	C 	0.439	0.29	0.9135	-0.036
Mof_Se	Se	0.4171	0.02765	0.34108	-0.194
Mof_Se	Se	0.0829	0.97235	0.84108	-0.195
Mof_Se	Se	0.5829	0.52765	0.15892	-0.195
Mof_Se	Se	0.9171	0.47235	0.65892	-0.194
Mof_Se	Se	0.34108	0.4171	0.02765	-0.194
Mof_Se	Se	0.84108	0.0829	0.97235	-0.195
Mof_Se	Se	0.15892	0.5829	0.52765	-0.195
Mof_Se	Se	0.65892	0.9171	0.47235	-0.194
Mof_Se	Se	0.02765	0.34108	0.4171	-0.194
Mof_Se	Se	0.97235	0.84108	0.0829	-0.195
Mof_Se	Se	0.52765	0.15892	0.5829	-0.195
Mof_Se	Se	0.47235	0.65892	0.9171	-0.194
Mof_Se	Se	0.5829	0.97235	0.65892	-0.194
Mof_Se	Se	0.9171	0.02765	0.15892	-0.195
Mof_Se	Se	0.4171	0.47235	0.84108	-0.195
Mof_Se	Se	0.0829	0.52765	0.34108	-0.194
Mof_Se	Se	0.65892	0.5829	0.97235	-0.194
Mof_Se	Se	0.15892	0.9171	0.02765	-0.195
Mof_Se	Se	0.84108	0.4171	0.47235	-0.195
Mof_Se	Se	0.34108	0.0829	0.52765	-0.194
Mof_Se	Se	0.97235	0.65892	0.5829	-0.194
Mof_Se	Se	0.02765	0.15892	0.9171	-0.195
Mof_Se	Se	0.47235	0.84108	0.4171	-0.195
Mof_Se	Se	0.52765	0.34108	0.0829	-0.194
Mof_Se	Se	0.60519	0.10519	0.39481	-0.19
Mof_Se	Se	0.89481	0.89481	0.89481	-0.186
Mof_Se	Se	0.39481	0.60519	0.10519	-0.19
Mof_Se	Se	0.10519	0.39481	0.60519	-0.19
Mof_Se	Se	0.39481	0.89481	0.60519	-0.19
Mof_Se	Se	0.10519	0.10519	0.10519	-0.186
Mof_Se	Se	0.60519	0.39481	0.89481	-0.19
Mof_Se	Se	0.89481	0.60519	0.39481	-0.19
Mof_N 	N 	0.6091	0.9198	0.2307	-0.172
Mof_N 	N 	0.8909	0.0802	0.7307	-0.172
Mof_N 	N 	0.3909	0.4198	0.2693	-0.172
Mof_N 	N 	0.1091	0.5802	0.7693	-0.172
Mof_N 	N 	0.2307	0.6091	0.9198	-0.172
Mof_N 	N 	0.7307	0.8909	0.0802	-0.172
Mof_N 	N 	0.2693	0.3909	0.4198	-0.172
Mof_N 	N 	0.7693	0.1091	0.5802	-0.172
Mof_N 	N 	0.9198	0.2307	0.6091	-0.172
Mof_N 	N 	0.0802	0.7307	0.8909	-0.172
Mof_N 	N 	0.4198	0.2693	0.3909	-0.172
Mof_N 	N 	0.5802	0.7693	0.1091	-0.172
Mof_N 	N 	0.3909	0.0802	0.7693	-0.172
Mof_N 	N 	0.1091	0.9198	0.2693	-0.172
Mof_N 	N 	0.6091	0.5802	0.7307	-0.172
Mof_N 	N 	0.8909	0.4198	0.2307	-0.172
Mof_N 	N 	0.7693	0.3909	0.0802	-0.172
Mof_N 	N 	0.2693	0.1091	0.9198	-0.172
Mof_N 	N 	0.7307	0.6091	0.5802	-0.172
Mof_N 	N 	0.2307	0.8909	0.4198	-0.172
Mof_N 	N 	0.0802	0.7693	0.3909	-0.172
Mof_N 	N 	0.9198	0.2693	0.1091	-0.172
Mof_N 	N 	0.5802	0.7307	0.6091	-0.172
Mof_N 	N 	0.4198	0.2307	0.8909	-0.172
_end
