data_functionalizedCrystal
_audit_creation_method	'EQeq! by Chris Wilmer'
_symmetry_space_group_name_H-M	'P1'
_symmetry_Int_Tables_number	1
_symmetry_cell_setting	triclinic
loop_
_symmetry_equiv_pos_as_xyz
  x,y,z
_cell_length_a	9.628
_cell_length_b	21.337
_cell_length_c	13.208
_cell_angle_alpha	90
_cell_angle_beta	91.953
_cell_angle_gamma	90
loop_
_atom_site_label
_atom_site_type_symbol
_atom_site_fract_x
_atom_site_fract_y
_atom_site_fract_z
_atom_site_charge
Mof_Cd	Cd	0.40554	0.90841	0.72577	0.432
Mof_C 	C 	0.4751	0.73295	0.2905	0.065
Mof_H 	H 	0.5156	0.7316	0.2276	0.031
Mof_C 	C 	0.4804	0.78823	0.3449	-0.083
Mof_H 	H 	0.5247	0.8232	0.319	0.086
Mof_C 	C 	0.4197	0.79123	0.4377	-0.004
Mof_C 	C 	0.3582	0.73803	0.4721	-0.085
Mof_H 	H 	0.3178	0.738	0.5351	0.077
Mof_C 	C 	0.3557	0.68462	0.4142	0.061
Mof_H 	H 	0.3114	0.6492	0.4384	0.012
Mof_C 	C 	0.42	0.85098	0.4992	0.308
Mof_C 	C 	0.0988	0.91779	0.619	0.068
Mof_H 	H 	0.1572	0.9217	0.5648	0.032
Mof_C 	C 	0.9585	0.92595	0.6015	-0.083
Mof_H 	H 	0.9239	0.9365	0.5372	0.089
Mof_C 	C 	0.87	0.91847	0.6799	-0.003
Mof_C 	C 	0.9281	0.9029	0.7728	-0.084
Mof_H 	H 	0.8716	0.8963	0.8275	0.083
Mof_C 	C 	0.0698	0.897	0.7849	0.069
Mof_H 	H 	0.1071	0.8874	0.8488	0.016
Mof_C 	C 	0.7161	0.9291	0.664	0.313
Mof_N 	N 	0.4144	0.68174	0.3245	-0.142
Mof_N 	N 	0.1553	0.90453	0.71	-0.141
Mof_N 	N 	0.3774	0.00025	0.6419	-0.12
Mof_N 	N 	0.2989	0.04101	0.6587	-0.032
Mof_N 	N 	0.2234	0.0806	0.6754	-0.063
Mof_O 	O 	0.4303	0.90074	0.4515	-0.265
Mof_O 	O 	0.4058	0.84411	0.59144	-0.285
Mof_O 	O 	0.6801	0.95362	0.583	-0.271
Mof_O 	O 	0.6402	0.91237	0.7339	-0.278
Mof_Cd	Cd	0.59446	0.40841	0.77423	0.422
Mof_C 	C 	0.5249	0.23295	0.2095	0.074
Mof_H 	H 	0.4844	0.2316	0.2724	0.028
Mof_C 	C 	0.5196	0.28823	0.1551	-0.103
Mof_H 	H 	0.4753	0.3232	0.181	0.09
Mof_C 	C 	0.5803	0.29123	0.0623	0.021
Mof_C 	C 	0.6418	0.23803	0.0279	-0.139
Mof_H 	H 	0.6822	0.238	0.9649	0.106
Mof_C 	C 	0.6443	0.18462	0.0858	0.086
Mof_H 	H 	0.6886	0.1492	0.0616	-0.003
Mof_C 	C 	0.58	0.35098	0.0008	0.278
Mof_C 	C 	0.9012	0.41779	0.881	0.066
Mof_H 	H 	0.8428	0.4217	0.9352	0.033
Mof_C 	C 	0.0415	0.42595	0.8985	-0.083
Mof_H 	H 	0.0761	0.4365	0.9628	0.091
Mof_C 	C 	0.13	0.41847	0.8201	-0.004
Mof_C 	C 	0.0719	0.4029	0.7272	-0.085
Mof_H 	H 	0.1284	0.3963	0.6725	0.079
Mof_C 	C 	0.9302	0.397	0.7151	0.066
Mof_H 	H 	0.8929	0.3874	0.6512	0.013
Mof_C 	C 	0.2839	0.4291	0.836	0.312
Mof_N 	N 	0.5856	0.18174	0.1755	-0.149
Mof_N 	N 	0.8447	0.40453	0.79	-0.142
Mof_N 	N 	0.6226	0.50025	0.8581	-0.109
Mof_N 	N 	0.7011	0.54101	0.8413	-0.029
Mof_N 	N 	0.7766	0.5806	0.8246	-0.059
Mof_O 	O 	0.5697	0.40074	0.0485	-0.268
Mof_O 	O 	0.5942	0.34411	0.90856	-0.268
Mof_O 	O 	0.3199	0.45362	0.917	-0.272
Mof_O 	O 	0.3598	0.41237	0.7661	-0.282
Mof_Cd	Cd	0.59446	0.09159	0.27423	0.412
Mof_C 	C 	0.5249	0.26705	0.7095	0.063
Mof_H 	H 	0.4844	0.2684	0.7724	0.033
Mof_C 	C 	0.5196	0.21177	0.6551	-0.082
Mof_H 	H 	0.4753	0.1768	0.681	0.084
Mof_C 	C 	0.5803	0.20877	0.5623	-0.007
Mof_C 	C 	0.6418	0.26197	0.5279	-0.083
Mof_H 	H 	0.6822	0.262	0.4649	0.077
Mof_C 	C 	0.6443	0.31538	0.5858	0.06
Mof_H 	H 	0.6886	0.3508	0.5616	0.012
Mof_C 	C 	0.58	0.14902	0.5008	0.31
Mof_C 	C 	0.9012	0.08221	0.381	0.06
Mof_H 	H 	0.8428	0.0783	0.4352	0.027
Mof_C 	C 	0.0415	0.07405	0.3985	-0.081
Mof_H 	H 	0.0761	0.0635	0.4628	0.082
Mof_C 	C 	0.13	0.08153	0.3201	-0.012
Mof_C 	C 	0.0719	0.0971	0.2272	-0.083
Mof_H 	H 	0.1284	0.1037	0.1725	0.074
Mof_C 	C 	0.9302	0.103	0.2151	0.061
Mof_H 	H 	0.8929	0.1126	0.1512	0.011
Mof_C 	C 	0.2839	0.0709	0.336	0.313
Mof_N 	N 	0.5856	0.31826	0.6755	-0.142
Mof_N 	N 	0.8447	0.09547	0.29	-0.143
Mof_N 	N 	0.6226	0.99975	0.3581	-0.102
Mof_N 	N 	0.7011	0.95899	0.3413	-0.028
Mof_N 	N 	0.7766	0.9194	0.3246	-0.059
Mof_O 	O 	0.5697	0.09926	0.5485	-0.274
Mof_O 	O 	0.5942	0.15589	0.40856	-0.286
Mof_O 	O 	0.3199	0.04638	0.417	-0.284
Mof_O 	O 	0.3598	0.08763	0.2661	-0.287
Mof_Cd	Cd	0.40554	0.59159	0.22577	0.421
Mof_C 	C 	0.4751	0.76705	0.7905	0.054
Mof_H 	H 	0.5156	0.7684	0.7276	0.035
Mof_C 	C 	0.4804	0.71177	0.8449	-0.063
Mof_H 	H 	0.5247	0.6768	0.819	0.078
Mof_C 	C 	0.4197	0.70877	0.9377	-0.032
Mof_C 	C 	0.3582	0.76197	0.9721	-0.03
Mof_H 	H 	0.3178	0.762	0.0351	0.049
Mof_C 	C 	0.3557	0.81538	0.9142	0.035
Mof_H 	H 	0.3114	0.8508	0.9384	0.027
Mof_C 	C 	0.42	0.64902	0.9992	0.34
Mof_C 	C 	0.0988	0.58221	0.119	0.064
Mof_H 	H 	0.1572	0.5783	0.0648	0.025
Mof_C 	C 	0.9585	0.57405	0.1015	-0.083
Mof_H 	H 	0.9239	0.5635	0.0372	0.081
Mof_C 	C 	0.87	0.58153	0.1799	-0.009
Mof_C 	C 	0.9281	0.5971	0.2728	-0.084
Mof_H 	H 	0.8716	0.6037	0.3275	0.078
Mof_C 	C 	0.0698	0.603	0.2849	0.065
Mof_H 	H 	0.1071	0.6126	0.3488	0.013
Mof_C 	C 	0.7161	0.5709	0.164	0.314
Mof_N 	N 	0.4144	0.81826	0.8245	-0.135
Mof_N 	N 	0.1553	0.59547	0.21	-0.142
Mof_N 	N 	0.3774	0.49975	0.1419	-0.114
Mof_N 	N 	0.2989	0.45899	0.1587	-0.032
Mof_N 	N 	0.2234	0.4194	0.1754	-0.064
Mof_O 	O 	0.4303	0.59926	0.9515	-0.272
Mof_O 	O 	0.4058	0.65589	0.09144	-0.302
Mof_O 	O 	0.6801	0.54638	0.083	-0.284
Mof_O 	O 	0.6402	0.58763	0.2339	-0.284
Mof_Cd	Cd	0.5	2.32721e-33	0.5	0.474
Mof_Cd	Cd	0.5	0.5	-0	0.478
_end
