data_functionalizedCrystal
_audit_creation_method	'EQeq! by Chris Wilmer'
_symmetry_space_group_name_H-M	'P1'
_symmetry_Int_Tables_number	1
_symmetry_cell_setting	triclinic
loop_
_symmetry_equiv_pos_as_xyz
  x,y,z
_cell_length_a	7.162
_cell_length_b	23.7651
_cell_length_c	30.7049
_cell_angle_alpha	90
_cell_angle_beta	90
_cell_angle_gamma	90
loop_
_atom_site_label
_atom_site_type_symbol
_atom_site_fract_x
_atom_site_fract_y
_atom_site_fract_z
_atom_site_charge
Mof_Ag	Ag	0.19536	0.77004	0.29075	0.554
Mof_Ag	Ag	0.53163	0.44291	0.4842	0.57
Mof_O 	O 	0.3451	0.69591	0.3141	-0.38
Mof_O 	O 	0.4533	0.66706	0.24915	-0.392
Mof_O 	O 	0.4822	0.58797	0.44675	-0.368
Mof_O 	O 	0.6604	0.51114	0.44156	-0.402
Mof_N 	N 	0.1075	0.81238	0.35755	-0.153
Mof_N 	N 	0.0168	0.8742	0.43163	-0.163
Mof_C 	C 	0.9989	0.8582	0.3554	0.007
Mof_H 	H 	0.9514	0.8702	0.3281	0.035
Mof_C 	C 	0.955	0.8883	0.3927	0.016
Mof_H 	H 	0.877	0.9204	0.3901	0.027
Mof_C 	C 	0.1228	0.8282	0.43352	0.016
Mof_H 	H 	0.1684	0.8161	0.461	0.015
Mof_C 	C 	0.1685	0.7976	0.39699	0.007
Mof_H 	H 	0.2453	0.7652	0.3999	0.029
Mof_C 	C 	0.4347	0.6637	0.29	0.335
Mof_C 	C 	0.5307	0.6144	0.31172	-0.129
Mof_C 	C 	0.6402	0.577	0.2878	0.04
Mof_H 	H 	0.6515	0.5812	0.2571	0.025
Mof_C 	C 	0.7324	0.5336	0.3088	-0.113
Mof_H 	H 	0.8077	0.5082	0.2926	0.069
Mof_C 	C 	0.7152	0.5272	0.3527	0.044
Mof_H 	H 	0.7802	0.4975	0.3668	0.024
Mof_C 	C 	0.6049	0.5632	0.3775	-0.127
Mof_C 	C 	0.5142	0.6074	0.35658	0.053
Mof_H 	H 	0.4406	0.633	0.373	0.032
Mof_C 	C 	0.5823	0.5539	0.4252	0.342
Mof_Ag	Ag	0.69536	0.27004	0.79075	0.553
Mof_Ag	Ag	0.03163	0.94291	0.9842	0.569
Mof_O 	O 	0.8451	0.19591	0.8141	-0.381
Mof_O 	O 	0.9533	0.16706	0.74915	-0.393
Mof_O 	O 	0.9822	0.08797	0.94675	-0.369
Mof_O 	O 	0.1604	0.01114	0.94156	-0.403
Mof_N 	N 	0.6075	0.31238	0.85755	-0.154
Mof_N 	N 	0.5168	0.3742	0.93163	-0.164
Mof_C 	C 	0.4989	0.3582	0.8554	0.007
Mof_H 	H 	0.4514	0.3702	0.8281	0.035
Mof_C 	C 	0.455	0.3883	0.8927	0.015
Mof_H 	H 	0.377	0.4204	0.8901	0.026
Mof_C 	C 	0.6228	0.3282	0.93352	0.015
Mof_H 	H 	0.6684	0.3161	0.961	0.014
Mof_C 	C 	0.6685	0.2976	0.89699	0.007
Mof_H 	H 	0.7453	0.2652	0.8999	0.029
Mof_C 	C 	0.9347	0.1637	0.79	0.336
Mof_C 	C 	0.0307	0.1144	0.81172	-0.129
Mof_C 	C 	0.1402	0.077	0.7878	0.04
Mof_H 	H 	0.1515	0.0812	0.7571	0.024
Mof_C 	C 	0.2324	0.0336	0.8088	-0.113
Mof_H 	H 	0.3077	0.0082	0.7926	0.068
Mof_C 	C 	0.2152	0.0272	0.8527	0.044
Mof_H 	H 	0.2802	0.9975	0.8668	0.023
Mof_C 	C 	0.1049	0.0632	0.8775	-0.126
Mof_C 	C 	0.0142	0.1074	0.85658	0.052
Mof_H 	H 	0.9406	0.133	0.873	0.033
Mof_C 	C 	0.0823	0.0539	0.9252	0.341
Mof_Ag	Ag	0.30464	0.22996	0.79075	0.553
Mof_Ag	Ag	0.96837	0.55709	0.9842	0.569
Mof_O 	O 	0.1549	0.30409	0.8141	-0.381
Mof_O 	O 	0.0467	0.33294	0.74915	-0.393
Mof_O 	O 	0.0178	0.41203	0.94675	-0.369
Mof_O 	O 	0.8396	0.48886	0.94156	-0.402
Mof_N 	N 	0.3925	0.18762	0.85755	-0.154
Mof_N 	N 	0.4832	0.1258	0.93163	-0.164
Mof_C 	C 	0.5011	0.1418	0.8554	0.007
Mof_H 	H 	0.5486	0.1298	0.8281	0.035
Mof_C 	C 	0.545	0.1117	0.8927	0.015
Mof_H 	H 	0.623	0.0796	0.8901	0.026
Mof_C 	C 	0.3772	0.1718	0.93352	0.015
Mof_H 	H 	0.3316	0.1839	0.961	0.014
Mof_C 	C 	0.3315	0.2024	0.89699	0.007
Mof_H 	H 	0.2547	0.2348	0.8999	0.029
Mof_C 	C 	0.0653	0.3363	0.79	0.336
Mof_C 	C 	0.9693	0.3856	0.81172	-0.129
Mof_C 	C 	0.8598	0.423	0.7878	0.04
Mof_H 	H 	0.8485	0.4188	0.7571	0.024
Mof_C 	C 	0.7676	0.4664	0.8088	-0.113
Mof_H 	H 	0.6923	0.4918	0.7926	0.068
Mof_C 	C 	0.7848	0.4728	0.8527	0.044
Mof_H 	H 	0.7198	0.5025	0.8668	0.023
Mof_C 	C 	0.8951	0.4368	0.8775	-0.126
Mof_C 	C 	0.9858	0.3926	0.85658	0.052
Mof_H 	H 	0.0594	0.367	0.873	0.033
Mof_C 	C 	0.9177	0.4461	0.9252	0.341
Mof_Ag	Ag	0.80464	0.72996	0.29075	0.553
Mof_Ag	Ag	0.46837	0.05709	0.4842	0.569
Mof_O 	O 	0.6549	0.80409	0.3141	-0.381
Mof_O 	O 	0.5467	0.83294	0.24915	-0.393
Mof_O 	O 	0.5178	0.91203	0.44675	-0.369
Mof_O 	O 	0.3396	0.98886	0.44156	-0.403
Mof_N 	N 	0.8925	0.68762	0.35755	-0.154
Mof_N 	N 	0.9832	0.6258	0.43163	-0.164
Mof_C 	C 	0.0011	0.6418	0.3554	0.006
Mof_H 	H 	0.0486	0.6298	0.3281	0.034
Mof_C 	C 	0.045	0.6117	0.3927	0.015
Mof_H 	H 	0.123	0.5796	0.3901	0.026
Mof_C 	C 	0.8772	0.6718	0.43352	0.015
Mof_H 	H 	0.8316	0.6839	0.461	0.014
Mof_C 	C 	0.8315	0.7024	0.39699	0.007
Mof_H 	H 	0.7547	0.7348	0.3999	0.029
Mof_C 	C 	0.5653	0.8363	0.29	0.335
Mof_C 	C 	0.4693	0.8856	0.31172	-0.129
Mof_C 	C 	0.3598	0.923	0.2878	0.04
Mof_H 	H 	0.3485	0.9188	0.2571	0.025
Mof_C 	C 	0.2676	0.9664	0.3088	-0.113
Mof_H 	H 	0.1923	0.9918	0.2926	0.069
Mof_C 	C 	0.2848	0.9728	0.3527	0.044
Mof_H 	H 	0.2198	0.0025	0.3668	0.023
Mof_C 	C 	0.3951	0.9368	0.3775	-0.127
Mof_C 	C 	0.4858	0.8926	0.35658	0.053
Mof_H 	H 	0.5594	0.867	0.373	0.032
Mof_C 	C 	0.4177	0.9461	0.4252	0.342
Mof_Ag	Ag	0.80464	0.27004	0.20925	0.553
Mof_Ag	Ag	0.46837	0.94291	0.0158	0.569
Mof_O 	O 	0.6549	0.19591	0.1859	-0.381
Mof_O 	O 	0.5467	0.16706	0.25085	-0.393
Mof_O 	O 	0.5178	0.08797	0.05325	-0.369
Mof_O 	O 	0.3396	0.01114	0.05844	-0.403
Mof_N 	N 	0.8925	0.31238	0.14245	-0.154
Mof_N 	N 	0.9832	0.3742	0.06837	-0.164
Mof_C 	C 	0.0011	0.3582	0.1446	0.006
Mof_H 	H 	0.0486	0.3702	0.1719	0.034
Mof_C 	C 	0.045	0.3883	0.1073	0.015
Mof_H 	H 	0.123	0.4204	0.1099	0.026
Mof_C 	C 	0.8772	0.3282	0.06648	0.015
Mof_H 	H 	0.8316	0.3161	0.039	0.014
Mof_C 	C 	0.8315	0.2976	0.10301	0.007
Mof_H 	H 	0.7547	0.2652	0.1001	0.029
Mof_C 	C 	0.5653	0.1637	0.21	0.335
Mof_C 	C 	0.4693	0.1144	0.18828	-0.129
Mof_C 	C 	0.3598	0.077	0.2122	0.04
Mof_H 	H 	0.3485	0.0812	0.2429	0.025
Mof_C 	C 	0.2676	0.0336	0.1912	-0.113
Mof_H 	H 	0.1923	0.0082	0.2074	0.069
Mof_C 	C 	0.2848	0.0272	0.1473	0.044
Mof_H 	H 	0.2198	0.9975	0.1332	0.023
Mof_C 	C 	0.3951	0.0632	0.1225	-0.127
Mof_C 	C 	0.4858	0.1074	0.14342	0.053
Mof_H 	H 	0.5594	0.133	0.127	0.032
Mof_C 	C 	0.4177	0.0539	0.0748	0.342
Mof_Ag	Ag	0.30464	0.77004	0.70925	0.553
Mof_Ag	Ag	0.96837	0.44291	0.5158	0.569
Mof_O 	O 	0.1549	0.69591	0.6859	-0.381
Mof_O 	O 	0.0467	0.66706	0.75085	-0.393
Mof_O 	O 	0.0178	0.58797	0.55325	-0.369
Mof_O 	O 	0.8396	0.51114	0.55844	-0.402
Mof_N 	N 	0.3925	0.81238	0.64245	-0.154
Mof_N 	N 	0.4832	0.8742	0.56837	-0.164
Mof_C 	C 	0.5011	0.8582	0.6446	0.007
Mof_H 	H 	0.5486	0.8702	0.6719	0.035
Mof_C 	C 	0.545	0.8883	0.6073	0.015
Mof_H 	H 	0.623	0.9204	0.6099	0.026
Mof_C 	C 	0.3772	0.8282	0.56648	0.015
Mof_H 	H 	0.3316	0.8161	0.539	0.014
Mof_C 	C 	0.3315	0.7976	0.60301	0.007
Mof_H 	H 	0.2547	0.7652	0.6001	0.029
Mof_C 	C 	0.0653	0.6637	0.71	0.336
Mof_C 	C 	0.9693	0.6144	0.68828	-0.129
Mof_C 	C 	0.8598	0.577	0.7122	0.04
Mof_H 	H 	0.8485	0.5812	0.7429	0.024
Mof_C 	C 	0.7676	0.5336	0.6912	-0.113
Mof_H 	H 	0.6923	0.5082	0.7074	0.068
Mof_C 	C 	0.7848	0.5272	0.6473	0.044
Mof_H 	H 	0.7198	0.4975	0.6332	0.023
Mof_C 	C 	0.8951	0.5632	0.6225	-0.126
Mof_C 	C 	0.9858	0.6074	0.64342	0.052
Mof_H 	H 	0.0594	0.633	0.627	0.033
Mof_C 	C 	0.9177	0.5539	0.5748	0.341
Mof_Ag	Ag	0.69536	0.72996	0.70925	0.553
Mof_Ag	Ag	0.03163	0.05709	0.5158	0.569
Mof_O 	O 	0.8451	0.80409	0.6859	-0.381
Mof_O 	O 	0.9533	0.83294	0.75085	-0.393
Mof_O 	O 	0.9822	0.91203	0.55325	-0.369
Mof_O 	O 	0.1604	0.98886	0.55844	-0.402
Mof_N 	N 	0.6075	0.68762	0.64245	-0.154
Mof_N 	N 	0.5168	0.6258	0.56837	-0.164
Mof_C 	C 	0.4989	0.6418	0.6446	0.007
Mof_H 	H 	0.4514	0.6298	0.6719	0.035
Mof_C 	C 	0.455	0.6117	0.6073	0.015
Mof_H 	H 	0.377	0.5796	0.6099	0.026
Mof_C 	C 	0.6228	0.6718	0.56648	0.015
Mof_H 	H 	0.6684	0.6839	0.539	0.014
Mof_C 	C 	0.6685	0.7024	0.60301	0.007
Mof_H 	H 	0.7453	0.7348	0.6001	0.029
Mof_C 	C 	0.9347	0.8363	0.71	0.336
Mof_C 	C 	0.0307	0.8856	0.68828	-0.129
Mof_C 	C 	0.1402	0.923	0.7122	0.04
Mof_H 	H 	0.1515	0.9188	0.7429	0.024
Mof_C 	C 	0.2324	0.9664	0.6912	-0.113
Mof_H 	H 	0.3077	0.9918	0.7074	0.068
Mof_C 	C 	0.2152	0.9728	0.6473	0.044
Mof_H 	H 	0.2802	0.0025	0.6332	0.023
Mof_C 	C 	0.1049	0.9368	0.6225	-0.126
Mof_C 	C 	0.0142	0.8926	0.64342	0.052
Mof_H 	H 	0.9406	0.867	0.627	0.033
Mof_C 	C 	0.0823	0.9461	0.5748	0.341
Mof_Ag	Ag	0.19536	0.22996	0.20925	0.553
Mof_Ag	Ag	0.53163	0.55709	0.0158	0.569
Mof_O 	O 	0.3451	0.30409	0.1859	-0.381
Mof_O 	O 	0.4533	0.33294	0.25085	-0.393
Mof_O 	O 	0.4822	0.41203	0.05325	-0.369
Mof_O 	O 	0.6604	0.48886	0.05844	-0.403
Mof_N 	N 	0.1075	0.18762	0.14245	-0.154
Mof_N 	N 	0.0168	0.1258	0.06837	-0.164
Mof_C 	C 	0.9989	0.1418	0.1446	0.006
Mof_H 	H 	0.9514	0.1298	0.1719	0.034
Mof_C 	C 	0.955	0.1117	0.1073	0.015
Mof_H 	H 	0.877	0.0796	0.1099	0.026
Mof_C 	C 	0.1228	0.1718	0.06648	0.015
Mof_H 	H 	0.1684	0.1839	0.039	0.014
Mof_C 	C 	0.1685	0.2024	0.10301	0.007
Mof_H 	H 	0.2453	0.2348	0.1001	0.029
Mof_C 	C 	0.4347	0.3363	0.21	0.335
Mof_C 	C 	0.5307	0.3856	0.18828	-0.129
Mof_C 	C 	0.6402	0.423	0.2122	0.04
Mof_H 	H 	0.6515	0.4188	0.2429	0.025
Mof_C 	C 	0.7324	0.4664	0.1912	-0.113
Mof_H 	H 	0.8077	0.4918	0.2074	0.069
Mof_C 	C 	0.7152	0.4728	0.1473	0.044
Mof_H 	H 	0.7802	0.5025	0.1332	0.024
Mof_C 	C 	0.6049	0.4368	0.1225	-0.127
Mof_C 	C 	0.5142	0.3926	0.14342	0.053
Mof_H 	H 	0.4406	0.367	0.127	0.032
Mof_C 	C 	0.5823	0.4461	0.0748	0.342
Mof_Ag	Ag	0.80464	0.22996	0.70925	0.553
Mof_Ag	Ag	0.46837	0.55709	0.5158	0.569
Mof_O 	O 	0.6549	0.30409	0.6859	-0.381
Mof_O 	O 	0.5467	0.33294	0.75085	-0.393
Mof_O 	O 	0.5178	0.41203	0.55325	-0.369
Mof_O 	O 	0.3396	0.48886	0.55844	-0.403
Mof_N 	N 	0.8925	0.18762	0.64245	-0.154
Mof_N 	N 	0.9832	0.1258	0.56837	-0.164
Mof_C 	C 	0.0011	0.1418	0.6446	0.006
Mof_H 	H 	0.0486	0.1298	0.6719	0.034
Mof_C 	C 	0.045	0.1117	0.6073	0.015
Mof_H 	H 	0.123	0.0796	0.6099	0.026
Mof_C 	C 	0.8772	0.1718	0.56648	0.015
Mof_H 	H 	0.8316	0.1839	0.539	0.014
Mof_C 	C 	0.8315	0.2024	0.60301	0.007
Mof_H 	H 	0.7547	0.2348	0.6001	0.029
Mof_C 	C 	0.5653	0.3363	0.71	0.335
Mof_C 	C 	0.4693	0.3856	0.68828	-0.129
Mof_C 	C 	0.3598	0.423	0.7122	0.04
Mof_H 	H 	0.3485	0.4188	0.7429	0.025
Mof_C 	C 	0.2676	0.4664	0.6912	-0.113
Mof_H 	H 	0.1923	0.4918	0.7074	0.069
Mof_C 	C 	0.2848	0.4728	0.6473	0.044
Mof_H 	H 	0.2198	0.5025	0.6332	0.024
Mof_C 	C 	0.3951	0.4368	0.6225	-0.127
Mof_C 	C 	0.4858	0.3926	0.64342	0.053
Mof_H 	H 	0.5594	0.367	0.627	0.032
Mof_C 	C 	0.4177	0.4461	0.5748	0.342
Mof_Ag	Ag	0.30464	0.72996	0.20925	0.553
Mof_Ag	Ag	0.96837	0.05709	0.0158	0.569
Mof_O 	O 	0.1549	0.80409	0.1859	-0.381
Mof_O 	O 	0.0467	0.83294	0.25085	-0.393
Mof_O 	O 	0.0178	0.91203	0.05325	-0.369
Mof_O 	O 	0.8396	0.98886	0.05844	-0.403
Mof_N 	N 	0.3925	0.68762	0.14245	-0.154
Mof_N 	N 	0.4832	0.6258	0.06837	-0.164
Mof_C 	C 	0.5011	0.6418	0.1446	0.007
Mof_H 	H 	0.5486	0.6298	0.1719	0.035
Mof_C 	C 	0.545	0.6117	0.1073	0.015
Mof_H 	H 	0.623	0.5796	0.1099	0.026
Mof_C 	C 	0.3772	0.6718	0.06648	0.015
Mof_H 	H 	0.3316	0.6839	0.039	0.014
Mof_C 	C 	0.3315	0.7024	0.10301	0.007
Mof_H 	H 	0.2547	0.7348	0.1001	0.029
Mof_C 	C 	0.0653	0.8363	0.21	0.336
Mof_C 	C 	0.9693	0.8856	0.18828	-0.129
Mof_C 	C 	0.8598	0.923	0.2122	0.04
Mof_H 	H 	0.8485	0.9188	0.2429	0.024
Mof_C 	C 	0.7676	0.9664	0.1912	-0.113
Mof_H 	H 	0.6923	0.9918	0.2074	0.068
Mof_C 	C 	0.7848	0.9728	0.1473	0.044
Mof_H 	H 	0.7198	0.0025	0.1332	0.023
Mof_C 	C 	0.8951	0.9368	0.1225	-0.126
Mof_C 	C 	0.9858	0.8926	0.14342	0.052
Mof_H 	H 	0.0594	0.867	0.127	0.033
Mof_C 	C 	0.9177	0.9461	0.0748	0.341
Mof_Ag	Ag	0.69536	0.77004	0.20925	0.553
Mof_Ag	Ag	0.03163	0.44291	0.0158	0.569
Mof_O 	O 	0.8451	0.69591	0.1859	-0.381
Mof_O 	O 	0.9533	0.66706	0.25085	-0.393
Mof_O 	O 	0.9822	0.58797	0.05325	-0.369
Mof_O 	O 	0.1604	0.51114	0.05844	-0.402
Mof_N 	N 	0.6075	0.81238	0.14245	-0.154
Mof_N 	N 	0.5168	0.8742	0.06837	-0.164
Mof_C 	C 	0.4989	0.8582	0.1446	0.007
Mof_H 	H 	0.4514	0.8702	0.1719	0.035
Mof_C 	C 	0.455	0.8883	0.1073	0.015
Mof_H 	H 	0.377	0.9204	0.1099	0.026
Mof_C 	C 	0.6228	0.8282	0.06648	0.015
Mof_H 	H 	0.6684	0.8161	0.039	0.014
Mof_C 	C 	0.6685	0.7976	0.10301	0.007
Mof_H 	H 	0.7453	0.7652	0.1001	0.029
Mof_C 	C 	0.9347	0.6637	0.21	0.336
Mof_C 	C 	0.0307	0.6144	0.18828	-0.129
Mof_C 	C 	0.1402	0.577	0.2122	0.04
Mof_H 	H 	0.1515	0.5812	0.2429	0.024
Mof_C 	C 	0.2324	0.5336	0.1912	-0.113
Mof_H 	H 	0.3077	0.5082	0.2074	0.068
Mof_C 	C 	0.2152	0.5272	0.1473	0.044
Mof_H 	H 	0.2802	0.4975	0.1332	0.023
Mof_C 	C 	0.1049	0.5632	0.1225	-0.126
Mof_C 	C 	0.0142	0.6074	0.14342	0.052
Mof_H 	H 	0.9406	0.633	0.127	0.033
Mof_C 	C 	0.0823	0.5539	0.0748	0.341
Mof_Ag	Ag	0.19536	0.27004	0.70925	0.553
Mof_Ag	Ag	0.53163	0.94291	0.5158	0.569
Mof_O 	O 	0.3451	0.19591	0.6859	-0.381
Mof_O 	O 	0.4533	0.16706	0.75085	-0.393
Mof_O 	O 	0.4822	0.08797	0.55325	-0.369
Mof_O 	O 	0.6604	0.01114	0.55844	-0.403
Mof_N 	N 	0.1075	0.31238	0.64245	-0.154
Mof_N 	N 	0.0168	0.3742	0.56837	-0.164
Mof_C 	C 	0.9989	0.3582	0.6446	0.006
Mof_H 	H 	0.9514	0.3702	0.6719	0.034
Mof_C 	C 	0.955	0.3883	0.6073	0.015
Mof_H 	H 	0.877	0.4204	0.6099	0.026
Mof_C 	C 	0.1228	0.3282	0.56648	0.015
Mof_H 	H 	0.1684	0.3161	0.539	0.014
Mof_C 	C 	0.1685	0.2976	0.60301	0.007
Mof_H 	H 	0.2453	0.2652	0.6001	0.029
Mof_C 	C 	0.4347	0.1637	0.71	0.335
Mof_C 	C 	0.5307	0.1144	0.68828	-0.129
Mof_C 	C 	0.6402	0.077	0.7122	0.04
Mof_H 	H 	0.6515	0.0812	0.7429	0.025
Mof_C 	C 	0.7324	0.0336	0.6912	-0.113
Mof_H 	H 	0.8077	0.0082	0.7074	0.069
Mof_C 	C 	0.7152	0.0272	0.6473	0.044
Mof_H 	H 	0.7802	0.9975	0.6332	0.023
Mof_C 	C 	0.6049	0.0632	0.6225	-0.127
Mof_C 	C 	0.5142	0.1074	0.64342	0.053
Mof_H 	H 	0.4406	0.133	0.627	0.032
Mof_C 	C 	0.5823	0.0539	0.5748	0.342
Mof_Ag	Ag	0.19536	0.72996	0.79075	0.553
Mof_Ag	Ag	0.53163	0.05709	0.9842	0.569
Mof_O 	O 	0.3451	0.80409	0.8141	-0.381
Mof_O 	O 	0.4533	0.83294	0.74915	-0.393
Mof_O 	O 	0.4822	0.91203	0.94675	-0.369
Mof_O 	O 	0.6604	0.98886	0.94156	-0.403
Mof_N 	N 	0.1075	0.68762	0.85755	-0.154
Mof_N 	N 	0.0168	0.6258	0.93163	-0.164
Mof_C 	C 	0.9989	0.6418	0.8554	0.006
Mof_H 	H 	0.9514	0.6298	0.8281	0.034
Mof_C 	C 	0.955	0.6117	0.8927	0.015
Mof_H 	H 	0.877	0.5796	0.8901	0.026
Mof_C 	C 	0.1228	0.6718	0.93352	0.015
Mof_H 	H 	0.1684	0.6839	0.961	0.014
Mof_C 	C 	0.1685	0.7024	0.89699	0.007
Mof_H 	H 	0.2453	0.7348	0.8999	0.029
Mof_C 	C 	0.4347	0.8363	0.79	0.335
Mof_C 	C 	0.5307	0.8856	0.81172	-0.129
Mof_C 	C 	0.6402	0.923	0.7878	0.04
Mof_H 	H 	0.6515	0.9188	0.7571	0.025
Mof_C 	C 	0.7324	0.9664	0.8088	-0.113
Mof_H 	H 	0.8077	0.9918	0.7926	0.069
Mof_C 	C 	0.7152	0.9728	0.8527	0.044
Mof_H 	H 	0.7802	0.0025	0.8668	0.023
Mof_C 	C 	0.6049	0.9368	0.8775	-0.127
Mof_C 	C 	0.5142	0.8926	0.85658	0.053
Mof_H 	H 	0.4406	0.867	0.873	0.032
Mof_C 	C 	0.5823	0.9461	0.9252	0.342
Mof_Ag	Ag	0.69536	0.22996	0.29075	0.553
Mof_Ag	Ag	0.03163	0.55709	0.4842	0.569
Mof_O 	O 	0.8451	0.30409	0.3141	-0.381
Mof_O 	O 	0.9533	0.33294	0.24915	-0.393
Mof_O 	O 	0.9822	0.41203	0.44675	-0.369
Mof_O 	O 	0.1604	0.48886	0.44156	-0.402
Mof_N 	N 	0.6075	0.18762	0.35755	-0.154
Mof_N 	N 	0.5168	0.1258	0.43163	-0.164
Mof_C 	C 	0.4989	0.1418	0.3554	0.007
Mof_H 	H 	0.4514	0.1298	0.3281	0.035
Mof_C 	C 	0.455	0.1117	0.3927	0.015
Mof_H 	H 	0.377	0.0796	0.3901	0.026
Mof_C 	C 	0.6228	0.1718	0.43352	0.015
Mof_H 	H 	0.6684	0.1839	0.461	0.014
Mof_C 	C 	0.6685	0.2024	0.39699	0.007
Mof_H 	H 	0.7453	0.2348	0.3999	0.029
Mof_C 	C 	0.9347	0.3363	0.29	0.336
Mof_C 	C 	0.0307	0.3856	0.31172	-0.129
Mof_C 	C 	0.1402	0.423	0.2878	0.04
Mof_H 	H 	0.1515	0.4188	0.2571	0.024
Mof_C 	C 	0.2324	0.4664	0.3088	-0.113
Mof_H 	H 	0.3077	0.4918	0.2926	0.068
Mof_C 	C 	0.2152	0.4728	0.3527	0.044
Mof_H 	H 	0.2802	0.5025	0.3668	0.023
Mof_C 	C 	0.1049	0.4368	0.3775	-0.126
Mof_C 	C 	0.0142	0.3926	0.35658	0.052
Mof_H 	H 	0.9406	0.367	0.373	0.033
Mof_C 	C 	0.0823	0.4461	0.4252	0.341
Mof_Ag	Ag	0.30464	0.27004	0.29075	0.553
Mof_Ag	Ag	0.96837	0.94291	0.4842	0.569
Mof_O 	O 	0.1549	0.19591	0.3141	-0.381
Mof_O 	O 	0.0467	0.16706	0.24915	-0.393
Mof_O 	O 	0.0178	0.08797	0.44675	-0.369
Mof_O 	O 	0.8396	0.01114	0.44156	-0.402
Mof_N 	N 	0.3925	0.31238	0.35755	-0.154
Mof_N 	N 	0.4832	0.3742	0.43163	-0.164
Mof_C 	C 	0.5011	0.3582	0.3554	0.007
Mof_H 	H 	0.5486	0.3702	0.3281	0.035
Mof_C 	C 	0.545	0.3883	0.3927	0.015
Mof_H 	H 	0.623	0.4204	0.3901	0.026
Mof_C 	C 	0.3772	0.3282	0.43352	0.015
Mof_H 	H 	0.3316	0.3161	0.461	0.014
Mof_C 	C 	0.3315	0.2976	0.39699	0.007
Mof_H 	H 	0.2547	0.2652	0.3999	0.029
Mof_C 	C 	0.0653	0.1637	0.29	0.336
Mof_C 	C 	0.9693	0.1144	0.31172	-0.129
Mof_C 	C 	0.8598	0.077	0.2878	0.04
Mof_H 	H 	0.8485	0.0812	0.2571	0.024
Mof_C 	C 	0.7676	0.0336	0.3088	-0.113
Mof_H 	H 	0.6923	0.0082	0.2926	0.068
Mof_C 	C 	0.7848	0.0272	0.3527	0.044
Mof_H 	H 	0.7198	0.9975	0.3668	0.023
Mof_C 	C 	0.8951	0.0632	0.3775	-0.126
Mof_C 	C 	0.9858	0.1074	0.35658	0.052
Mof_H 	H 	0.0594	0.133	0.373	0.033
Mof_C 	C 	0.9177	0.0539	0.4252	0.341
Mof_Ag	Ag	0.80464	0.77004	0.79075	0.553
Mof_Ag	Ag	0.46837	0.44291	0.9842	0.569
Mof_O 	O 	0.6549	0.69591	0.8141	-0.381
Mof_O 	O 	0.5467	0.66706	0.74915	-0.393
Mof_O 	O 	0.5178	0.58797	0.94675	-0.369
Mof_O 	O 	0.3396	0.51114	0.94156	-0.403
Mof_N 	N 	0.8925	0.81238	0.85755	-0.154
Mof_N 	N 	0.9832	0.8742	0.93163	-0.164
Mof_C 	C 	0.0011	0.8582	0.8554	0.006
Mof_H 	H 	0.0486	0.8702	0.8281	0.034
Mof_C 	C 	0.045	0.8883	0.8927	0.015
Mof_H 	H 	0.123	0.9204	0.8901	0.026
Mof_C 	C 	0.8772	0.8282	0.93352	0.015
Mof_H 	H 	0.8316	0.8161	0.961	0.014
Mof_C 	C 	0.8315	0.7976	0.89699	0.007
Mof_H 	H 	0.7547	0.7652	0.8999	0.029
Mof_C 	C 	0.5653	0.6637	0.79	0.335
Mof_C 	C 	0.4693	0.6144	0.81172	-0.129
Mof_C 	C 	0.3598	0.577	0.7878	0.04
Mof_H 	H 	0.3485	0.5812	0.7571	0.025
Mof_C 	C 	0.2676	0.5336	0.8088	-0.113
Mof_H 	H 	0.1923	0.5082	0.7926	0.069
Mof_C 	C 	0.2848	0.5272	0.8527	0.044
Mof_H 	H 	0.2198	0.4975	0.8668	0.024
Mof_C 	C 	0.3951	0.5632	0.8775	-0.127
Mof_C 	C 	0.4858	0.6074	0.85658	0.053
Mof_H 	H 	0.5594	0.633	0.873	0.032
Mof_C 	C 	0.4177	0.5539	0.9252	0.342
_end
