data_functionalizedCrystal
_audit_creation_method	'EQeq! by Chris Wilmer'
_symmetry_space_group_name_H-M	'P1'
_symmetry_Int_Tables_number	1
_symmetry_cell_setting	triclinic
loop_
_symmetry_equiv_pos_as_xyz
  x,y,z
_cell_length_a	12.889
_cell_length_b	15.266
_cell_length_c	10.389
_cell_angle_alpha	90
_cell_angle_beta	118.06
_cell_angle_gamma	90
loop_
_atom_site_label
_atom_site_type_symbol
_atom_site_fract_x
_atom_site_fract_y
_atom_site_fract_z
_atom_site_charge
Mof_O 	O 	0.6669	0.6317	0.3192	-0.444
Mof_Ag	Ag	0.57313	0.68062	0.42641	0.537
Mof_Ag	Ag	0.86091	0.35059	0.14104	0.545
Mof_N 	N 	0.8345	0.4995	0.1284	-0.2
Mof_C 	C 	0.7834	0.5427	0.1951	0.105
Mof_H 	H 	0.7463	0.5111	0.2384	-0.011
Mof_C 	C 	0.784	0.6333	0.2016	-0.168
Mof_C 	C 	0.7255	0.6793	0.2801	0.387
Mof_C 	C 	0.8398	0.6802	0.1401	0.103
Mof_H 	H 	0.843	0.741	0.1463	0.021
Mof_C 	C 	0.8916	0.636	0.0681	-0.158
Mof_C 	C 	0.8847	0.5455	0.0642	0.101
Mof_H 	H 	0.9169	0.5152	0.0139	0.005
Mof_C 	C 	0.9584	0.6815	0.0007	0.378
Mof_O 	O 	0.7417	0.7591	0.2973	-0.428
Mof_O 	O 	0.9703	0.762	0.0203	-0.373
Mof_O 	O 	0.997	0.6351	0.9341	-0.409
Mof_O 	O 	0.8331	0.1317	0.1808	-0.443
Mof_Ag	Ag	0.92687	0.18062	0.07359	0.531
Mof_Ag	Ag	0.63909	0.85059	0.35896	0.549
Mof_N 	N 	0.6655	0.9995	0.3716	-0.198
Mof_C 	C 	0.7166	0.0427	0.3049	0.105
Mof_H 	H 	0.7537	0.0111	0.2616	-0.012
Mof_C 	C 	0.716	0.1333	0.2984	-0.168
Mof_C 	C 	0.7745	0.1793	0.2199	0.387
Mof_C 	C 	0.6602	0.1802	0.3599	0.104
Mof_H 	H 	0.657	0.241	0.3537	0.021
Mof_C 	C 	0.6084	0.136	0.4319	-0.159
Mof_C 	C 	0.6153	0.0455	0.4358	0.101
Mof_H 	H 	0.5831	0.0152	0.4861	0.006
Mof_C 	C 	0.5416	0.1815	0.4993	0.384
Mof_O 	O 	0.7583	0.2591	0.2027	-0.428
Mof_O 	O 	0.5297	0.262	0.4797	-0.374
Mof_O 	O 	0.503	0.1351	0.5659	-0.414
Mof_O 	O 	0.3331	0.3683	0.6808	-0.443
Mof_Ag	Ag	0.42687	0.31938	0.57359	0.538
Mof_Ag	Ag	0.13909	0.64941	0.85896	0.546
Mof_N 	N 	0.1655	0.5005	0.8716	-0.199
Mof_C 	C 	0.2166	0.4573	0.8049	0.105
Mof_H 	H 	0.2537	0.4889	0.7616	-0.011
Mof_C 	C 	0.216	0.3667	0.7984	-0.168
Mof_C 	C 	0.2745	0.3207	0.7199	0.387
Mof_C 	C 	0.1602	0.3198	0.8599	0.103
Mof_H 	H 	0.157	0.259	0.8537	0.021
Mof_C 	C 	0.1084	0.364	0.9319	-0.158
Mof_C 	C 	0.1153	0.4545	0.9358	0.101
Mof_H 	H 	0.0831	0.4848	0.9861	0.005
Mof_C 	C 	0.0416	0.3185	0.9993	0.378
Mof_O 	O 	0.2583	0.2409	0.7027	-0.428
Mof_O 	O 	0.0297	0.238	0.9797	-0.373
Mof_O 	O 	0.003	0.3649	0.0659	-0.409
Mof_O 	O 	0.1669	0.8683	0.8192	-0.443
Mof_Ag	Ag	0.07313	0.81938	0.92641	0.531
Mof_Ag	Ag	0.36091	0.14941	0.64104	0.549
Mof_N 	N 	0.3345	0.0005	0.6284	-0.198
Mof_C 	C 	0.2834	0.9573	0.6951	0.105
Mof_H 	H 	0.2463	0.9889	0.7384	-0.012
Mof_C 	C 	0.284	0.8667	0.7016	-0.168
Mof_C 	C 	0.2255	0.8207	0.7801	0.387
Mof_C 	C 	0.3398	0.8198	0.6401	0.104
Mof_H 	H 	0.343	0.759	0.6463	0.021
Mof_C 	C 	0.3916	0.864	0.5681	-0.159
Mof_C 	C 	0.3847	0.9545	0.5642	0.101
Mof_H 	H 	0.4169	0.9848	0.5139	0.006
Mof_C 	C 	0.4584	0.8185	0.5007	0.384
Mof_O 	O 	0.2417	0.7409	0.7973	-0.428
Mof_O 	O 	0.4703	0.738	0.5203	-0.374
Mof_O 	O 	0.497	0.8649	0.4341	-0.414
Mof_O 	O 	0.1669	0.1317	0.3192	-0.443
Mof_Ag	Ag	0.07313	0.18062	0.42641	0.541
Mof_Ag	Ag	0.36091	0.85059	0.14104	0.553
Mof_N 	N 	0.3345	0.9995	0.1284	-0.197
Mof_C 	C 	0.2834	0.0427	0.1951	0.104
Mof_H 	H 	0.2463	0.0111	0.2384	-0.011
Mof_C 	C 	0.284	0.1333	0.2016	-0.167
Mof_C 	C 	0.2255	0.1793	0.2801	0.387
Mof_C 	C 	0.3398	0.1802	0.1401	0.103
Mof_H 	H 	0.343	0.241	0.1463	0.021
Mof_C 	C 	0.3916	0.136	0.0681	-0.158
Mof_C 	C 	0.3847	0.0455	0.0642	0.1
Mof_H 	H 	0.4169	0.0152	0.0139	0.006
Mof_C 	C 	0.4584	0.1815	0.0007	0.382
Mof_O 	O 	0.2417	0.2591	0.2973	-0.427
Mof_O 	O 	0.4703	0.262	0.0203	-0.374
Mof_O 	O 	0.497	0.1351	0.9341	-0.413
Mof_O 	O 	0.3331	0.6317	0.1808	-0.443
Mof_Ag	Ag	0.42687	0.68062	0.07359	0.541
Mof_Ag	Ag	0.13909	0.35059	0.35896	0.552
Mof_N 	N 	0.1655	0.4995	0.3716	-0.199
Mof_C 	C 	0.2166	0.5427	0.3049	0.106
Mof_H 	H 	0.2537	0.5111	0.2616	-0.011
Mof_C 	C 	0.216	0.6333	0.2984	-0.168
Mof_C 	C 	0.2745	0.6793	0.2199	0.387
Mof_C 	C 	0.1602	0.6802	0.3599	0.104
Mof_H 	H 	0.157	0.741	0.3537	0.021
Mof_C 	C 	0.1084	0.636	0.4319	-0.159
Mof_C 	C 	0.1153	0.5455	0.4358	0.102
Mof_H 	H 	0.0831	0.5152	0.4861	0.006
Mof_C 	C 	0.0416	0.6815	0.4993	0.385
Mof_O 	O 	0.2583	0.7591	0.2027	-0.427
Mof_O 	O 	0.0297	0.762	0.4797	-0.374
Mof_O 	O 	0.003	0.6351	0.5659	-0.415
Mof_O 	O 	0.8331	0.8683	0.6808	-0.443
Mof_Ag	Ag	0.92687	0.81938	0.57359	0.541
Mof_Ag	Ag	0.63909	0.14941	0.85896	0.553
Mof_N 	N 	0.6655	0.0005	0.8716	-0.197
Mof_C 	C 	0.7166	0.9573	0.8049	0.104
Mof_H 	H 	0.7537	0.9889	0.7616	-0.011
Mof_C 	C 	0.716	0.8667	0.7984	-0.167
Mof_C 	C 	0.7745	0.8207	0.7199	0.387
Mof_C 	C 	0.6602	0.8198	0.8599	0.103
Mof_H 	H 	0.657	0.759	0.8537	0.021
Mof_C 	C 	0.6084	0.864	0.9319	-0.158
Mof_C 	C 	0.6153	0.9545	0.9358	0.1
Mof_H 	H 	0.5831	0.9848	0.9861	0.006
Mof_C 	C 	0.5416	0.8185	0.9993	0.382
Mof_O 	O 	0.7583	0.7409	0.7027	-0.427
Mof_O 	O 	0.5297	0.738	0.9797	-0.374
Mof_O 	O 	0.503	0.8649	0.0659	-0.413
Mof_O 	O 	0.6669	0.3683	0.8192	-0.443
Mof_Ag	Ag	0.57313	0.31938	0.92641	0.541
Mof_Ag	Ag	0.86091	0.64941	0.64104	0.552
Mof_N 	N 	0.8345	0.5005	0.6284	-0.199
Mof_C 	C 	0.7834	0.4573	0.6951	0.106
Mof_H 	H 	0.7463	0.4889	0.7384	-0.011
Mof_C 	C 	0.784	0.3667	0.7016	-0.168
Mof_C 	C 	0.7255	0.3207	0.7801	0.387
Mof_C 	C 	0.8398	0.3198	0.6401	0.104
Mof_H 	H 	0.843	0.259	0.6463	0.021
Mof_C 	C 	0.8916	0.364	0.5681	-0.159
Mof_C 	C 	0.8847	0.4545	0.5642	0.102
Mof_H 	H 	0.9169	0.4848	0.5139	0.006
Mof_C 	C 	0.9584	0.3185	0.5007	0.385
Mof_O 	O 	0.7417	0.2409	0.7973	-0.427
Mof_O 	O 	0.9703	0.238	0.5203	-0.374
Mof_O 	O 	0.997	0.3649	0.4341	-0.415
_end
