data_functionalizedCrystal
_audit_creation_method	'EQeq! by Chris Wilmer'
_symmetry_space_group_name_H-M	'P1'
_symmetry_Int_Tables_number	1
_symmetry_cell_setting	triclinic
loop_
_symmetry_equiv_pos_as_xyz
  x,y,z
_cell_length_a	9.6217
_cell_length_b	28.6285
_cell_length_c	10.4801
_cell_angle_alpha	90
_cell_angle_beta	111.376
_cell_angle_gamma	90
loop_
_atom_site_label
_atom_site_type_symbol
_atom_site_fract_x
_atom_site_fract_y
_atom_site_fract_z
_atom_site_charge
Mof_Zn	Zn	0.58331	0.53974	0.89008	1.219
Mof_N 	N 	0.7623	0.53558	0.0836	-0.243
Mof_N 	N 	0.3976	0.54047	0.6995	-0.236
Mof_C 	C 	0.7674	0.56226	0.1893	0.074
Mof_H 	H 	0.6836	0.5814	0.1803	0.004
Mof_C 	C 	0.8875	0.56351	0.3107	-0.123
Mof_H 	H 	0.8852	0.5831	0.3831	0.073
Mof_C 	C 	0.0131	0.53612	0.328	0.055
Mof_C 	C 	0.006	0.50792	0.218	-0.136
Mof_H 	H 	0.087	0.4879	0.2245	0.093
Mof_C 	C 	0.8815	0.50898	0.0995	0.083
Mof_H 	H 	0.8802	0.4898	0.0251	-0
Mof_C 	C 	0.1474	0.5376	0.4559	0.062
Mof_C 	C 	0.1629	0.5704	0.5557	-0.126
Mof_H 	H 	0.0873	0.5933	0.5426	0.073
Mof_C 	C 	0.2868	0.57047	0.6745	0.084
Mof_H 	H 	0.2929	0.5933	0.7422	0.009
Mof_C 	C 	0.3843	0.50933	0.6027	0.083
Mof_H 	H 	0.4626	0.4873	0.6181	0.008
Mof_C 	C 	0.2641	0.50679	0.4808	-0.134
Mof_H 	H 	0.2617	0.4839	0.4144	0.089
Mof_O 	O 	0.8081	0.22318	0.8735	-0.254
Mof_O 	O 	0.3604	0.11666	0.618	-0.359
Mof_O 	O 	0.2651	0.06332	0.7104	-0.394
Mof_O 	O 	0.5621	0.43703	0.0232	-0.484
Mof_O 	O 	0.6163	0.4713	0.8558	-0.467
Mof_C 	C 	0.2761	0.1052	0.6807	0.325
Mof_C 	C 	0.1908	0.14215	0.7205	-0.133
Mof_C 	C 	0.2175	0.18851	0.7071	0.083
Mof_H 	H 	0.291	0.1973	0.6709	0.027
Mof_C 	C 	0.1393	0.2226	0.7455	-0.161
Mof_H 	H 	0.1588	0.2545	0.7347	0.103
Mof_C 	C 	0.0322	0.2107	0.7998	0.155
Mof_C 	C 	0.0014	0.1648	0.8063	-0.175
Mof_H 	H 	0.924	0.1559	0.8375	0.108
Mof_C 	C 	0.0799	0.1308	0.7685	0.086
Mof_H 	H 	0.057	0.0989	0.7758	0.013
Mof_C 	C 	0.8463	0.3144	0.8842	0.08
Mof_C 	C 	0.8683	0.3558	0.8335	-0.117
Mof_H 	H 	0.9365	0.3578	0.7871	0.088
Mof_C 	C 	0.7939	0.3952	0.8477	0.068
Mof_H 	H 	0.8094	0.4239	0.809	0.024
Mof_C 	C 	0.697	0.39387	0.9175	-0.15
Mof_C 	C 	0.6774	0.35212	0.9734	0.075
Mof_H 	H 	0.6131	0.3505	0.0238	0.029
Mof_C 	C 	0.7509	0.31245	0.9565	-0.135
Mof_H 	H 	0.736	0.2836	0.9946	0.095
Mof_C 	C 	0.6186	0.43747	0.9332	0.421
Mof_C 	C 	0.915	0.2368	0.841	-0.029
Mof_N 	N 	0.9547	0.2837	0.8579	-0.154
Mof_N 	N 	0.9925	0.2588	0.838	-0.079
Mof_C 	C 	0.8753	0.2586	0.87	0.299
Mof_Zn	Zn	0.41669	0.46026	0.10992	1.219
Mof_N 	N 	0.2377	0.46442	0.9164	-0.243
Mof_N 	N 	0.6024	0.45953	0.3005	-0.236
Mof_C 	C 	0.2326	0.43774	0.8107	0.074
Mof_H 	H 	0.3164	0.4186	0.8197	0.004
Mof_C 	C 	0.1125	0.43649	0.6893	-0.123
Mof_H 	H 	0.1148	0.4169	0.6169	0.073
Mof_C 	C 	0.9869	0.46388	0.672	0.055
Mof_C 	C 	0.994	0.49208	0.782	-0.136
Mof_H 	H 	0.913	0.5121	0.7755	0.093
Mof_C 	C 	0.1185	0.49102	0.9005	0.083
Mof_H 	H 	0.1198	0.5102	0.9749	-0
Mof_C 	C 	0.8526	0.4624	0.5441	0.062
Mof_C 	C 	0.8371	0.4296	0.4443	-0.126
Mof_H 	H 	0.9127	0.4067	0.4574	0.073
Mof_C 	C 	0.7132	0.42953	0.3255	0.084
Mof_H 	H 	0.7071	0.4067	0.2578	0.009
Mof_C 	C 	0.6157	0.49067	0.3973	0.083
Mof_H 	H 	0.5374	0.5127	0.3819	0.008
Mof_C 	C 	0.7359	0.49321	0.5192	-0.134
Mof_H 	H 	0.7383	0.5161	0.5856	0.089
Mof_O 	O 	0.1919	0.77682	0.1265	-0.254
Mof_O 	O 	0.6396	0.88334	0.382	-0.359
Mof_O 	O 	0.7349	0.93668	0.2896	-0.394
Mof_O 	O 	0.4379	0.56297	0.9768	-0.484
Mof_O 	O 	0.3837	0.5287	0.1442	-0.467
Mof_C 	C 	0.7239	0.8948	0.3193	0.325
Mof_C 	C 	0.8092	0.85785	0.2795	-0.133
Mof_C 	C 	0.7825	0.81149	0.2929	0.083
Mof_H 	H 	0.709	0.8027	0.3291	0.027
Mof_C 	C 	0.8607	0.7774	0.2545	-0.161
Mof_H 	H 	0.8412	0.7455	0.2653	0.103
Mof_C 	C 	0.9678	0.7893	0.2002	0.155
Mof_C 	C 	0.9986	0.8352	0.1937	-0.175
Mof_H 	H 	0.076	0.8441	0.1625	0.108
Mof_C 	C 	0.9201	0.8692	0.2315	0.086
Mof_H 	H 	0.943	0.9011	0.2242	0.013
Mof_C 	C 	0.1537	0.6856	0.1158	0.08
Mof_C 	C 	0.1317	0.6442	0.1665	-0.117
Mof_H 	H 	0.0635	0.6422	0.2129	0.088
Mof_C 	C 	0.2061	0.6048	0.1523	0.068
Mof_H 	H 	0.1906	0.5761	0.191	0.024
Mof_C 	C 	0.303	0.60613	0.0825	-0.15
Mof_C 	C 	0.3226	0.64788	0.0266	0.075
Mof_H 	H 	0.3869	0.6495	0.9762	0.029
Mof_C 	C 	0.2491	0.68755	0.0435	-0.135
Mof_H 	H 	0.264	0.7164	0.0054	0.095
Mof_C 	C 	0.3814	0.56253	0.0668	0.421
Mof_C 	C 	0.085	0.7632	0.159	-0.029
Mof_N 	N 	0.0453	0.7163	0.1421	-0.154
Mof_N 	N 	0.0075	0.7412	0.162	-0.079
Mof_C 	C 	0.1247	0.7414	0.13	0.299
Mof_O 	O 	0.1919	0.72318	0.6265	-0.254
Mof_O 	O 	0.6396	0.61666	0.882	-0.359
Mof_O 	O 	0.7349	0.56332	0.7896	-0.394
Mof_O 	O 	0.4379	0.93703	0.4768	-0.485
Mof_O 	O 	0.3837	0.9713	0.6442	-0.467
Mof_C 	C 	0.7239	0.6052	0.8193	0.327
Mof_C 	C 	0.8092	0.64215	0.7795	-0.137
Mof_C 	C 	0.7825	0.68851	0.7929	0.089
Mof_H 	H 	0.709	0.6973	0.8291	0.025
Mof_C 	C 	0.8607	0.7226	0.7545	-0.168
Mof_H 	H 	0.8412	0.7545	0.7653	0.106
Mof_C 	C 	0.9678	0.7107	0.7002	0.165
Mof_C 	C 	0.9986	0.6648	0.6937	-0.182
Mof_H 	H 	0.076	0.6559	0.6625	0.111
Mof_C 	C 	0.9201	0.6308	0.7315	0.091
Mof_H 	H 	0.943	0.5989	0.7242	0.011
Mof_C 	C 	0.1537	0.8144	0.6158	0.074
Mof_C 	C 	0.1317	0.8558	0.6665	-0.112
Mof_H 	H 	0.0635	0.8578	0.7129	0.087
Mof_C 	C 	0.2061	0.8952	0.6523	0.065
Mof_H 	H 	0.1906	0.9239	0.691	0.025
Mof_C 	C 	0.303	0.89387	0.5825	-0.149
Mof_C 	C 	0.3226	0.85212	0.5266	0.074
Mof_H 	H 	0.3869	0.8505	0.4762	0.029
Mof_C 	C 	0.2491	0.81245	0.5435	-0.133
Mof_H 	H 	0.264	0.7836	0.5054	0.094
Mof_C 	C 	0.3814	0.93747	0.5668	0.421
Mof_C 	C 	0.085	0.7368	0.659	-0.055
Mof_N 	N 	0.0453	0.7837	0.6421	-0.161
Mof_N 	N 	0.0075	0.7588	0.662	-0.071
Mof_C 	C 	0.1247	0.7586	0.63	0.323
Mof_Zn	Zn	0.41669	0.03974	0.60992	1.219
Mof_N 	N 	0.2377	0.03558	0.4164	-0.243
Mof_N 	N 	0.6024	0.04047	0.8005	-0.235
Mof_C 	C 	0.2326	0.06226	0.3107	0.075
Mof_H 	H 	0.3164	0.0814	0.3197	0.004
Mof_C 	C 	0.1125	0.06351	0.1893	-0.124
Mof_H 	H 	0.1148	0.0831	0.1169	0.074
Mof_C 	C 	0.9869	0.03612	0.172	0.055
Mof_C 	C 	0.994	0.00792	0.282	-0.132
Mof_H 	H 	0.913	0.9879	0.2755	0.091
Mof_C 	C 	0.1185	0.00898	0.4005	0.079
Mof_H 	H 	0.1198	0.9898	0.4749	0.001
Mof_C 	C 	0.8526	0.0376	0.0441	0.062
Mof_C 	C 	0.8371	0.0704	0.9443	-0.127
Mof_H 	H 	0.9127	0.0933	0.9574	0.073
Mof_C 	C 	0.7132	0.07047	0.8255	0.084
Mof_H 	H 	0.7071	0.0933	0.7578	0.009
Mof_C 	C 	0.6157	0.00933	0.8973	0.08
Mof_H 	H 	0.5374	0.9873	0.8819	0.01
Mof_C 	C 	0.7359	0.00679	0.0192	-0.131
Mof_H 	H 	0.7383	0.9839	0.0856	0.087
Mof_O 	O 	0.8081	0.27682	0.3735	-0.254
Mof_O 	O 	0.3604	0.38334	0.118	-0.359
Mof_O 	O 	0.2651	0.43668	0.2104	-0.394
Mof_O 	O 	0.5621	0.06297	0.5232	-0.485
Mof_O 	O 	0.6163	0.0287	0.3558	-0.467
Mof_C 	C 	0.2761	0.3948	0.1807	0.327
Mof_C 	C 	0.1908	0.35785	0.2205	-0.137
Mof_C 	C 	0.2175	0.31149	0.2071	0.089
Mof_H 	H 	0.291	0.3027	0.1709	0.025
Mof_C 	C 	0.1393	0.2774	0.2455	-0.168
Mof_H 	H 	0.1588	0.2455	0.2347	0.106
Mof_C 	C 	0.0322	0.2893	0.2998	0.165
Mof_C 	C 	0.0014	0.3352	0.3063	-0.182
Mof_H 	H 	0.924	0.3441	0.3375	0.111
Mof_C 	C 	0.0799	0.3692	0.2685	0.091
Mof_H 	H 	0.057	0.4011	0.2758	0.011
Mof_C 	C 	0.8463	0.1856	0.3842	0.074
Mof_C 	C 	0.8683	0.1442	0.3335	-0.112
Mof_H 	H 	0.9365	0.1422	0.2871	0.087
Mof_C 	C 	0.7939	0.1048	0.3477	0.065
Mof_H 	H 	0.8094	0.0761	0.309	0.025
Mof_C 	C 	0.697	0.10613	0.4175	-0.149
Mof_C 	C 	0.6774	0.14788	0.4734	0.074
Mof_H 	H 	0.6131	0.1495	0.5238	0.029
Mof_C 	C 	0.7509	0.18755	0.4565	-0.133
Mof_H 	H 	0.736	0.2164	0.4946	0.094
Mof_C 	C 	0.6186	0.06253	0.4332	0.421
Mof_C 	C 	0.915	0.2632	0.341	-0.055
Mof_N 	N 	0.9547	0.2163	0.3579	-0.161
Mof_N 	N 	0.9925	0.2412	0.338	-0.071
Mof_C 	C 	0.8753	0.2414	0.37	0.323
Mof_Zn	Zn	0.58331	0.96026	0.39008	1.219
Mof_N 	N 	0.7623	0.96442	0.5836	-0.243
Mof_N 	N 	0.3976	0.95953	0.1995	-0.235
Mof_C 	C 	0.7674	0.93774	0.6893	0.075
Mof_H 	H 	0.6836	0.9186	0.6803	0.004
Mof_C 	C 	0.8875	0.93649	0.8107	-0.124
Mof_H 	H 	0.8852	0.9169	0.8831	0.074
Mof_C 	C 	0.0131	0.96388	0.828	0.055
Mof_C 	C 	0.006	0.99208	0.718	-0.132
Mof_H 	H 	0.087	0.0121	0.7245	0.091
Mof_C 	C 	0.8815	0.99102	0.5995	0.079
Mof_H 	H 	0.8802	0.0102	0.5251	0.001
Mof_C 	C 	0.1474	0.9624	0.9559	0.062
Mof_C 	C 	0.1629	0.9296	0.0557	-0.127
Mof_H 	H 	0.0873	0.9067	0.0426	0.073
Mof_C 	C 	0.2868	0.92953	0.1745	0.084
Mof_H 	H 	0.2929	0.9067	0.2422	0.009
Mof_C 	C 	0.3843	0.99067	0.1027	0.08
Mof_H 	H 	0.4626	0.0127	0.1181	0.01
Mof_C 	C 	0.2641	0.99321	0.9808	-0.131
Mof_H 	H 	0.2617	0.0161	0.9144	0.087
_end
