data_functionalizedCrystal
_audit_creation_method	'EQeq! by Chris Wilmer'
_symmetry_space_group_name_H-M	'P1'
_symmetry_Int_Tables_number	1
_symmetry_cell_setting	triclinic
loop_
_symmetry_equiv_pos_as_xyz
  x,y,z
_cell_length_a	10.243
_cell_length_b	17.971
_cell_length_c	36.485
_cell_angle_alpha	90
_cell_angle_beta	90
_cell_angle_gamma	99.753
loop_
_atom_site_label
_atom_site_type_symbol
_atom_site_fract_x
_atom_site_fract_y
_atom_site_fract_z
_atom_site_charge
Mof_Cd	Cd	0.3745	0.5527	0.96939	0.5
Mof_Cd	Cd	0.15781	0.00419	0.9952	0.454
Mof_Cd	Cd	0.47508	0.15301	0.79692	0.53
Mof_Cd	Cd	0.6255	0.9473	0.46939	0.499
Mof_Cd	Cd	0.84219	0.49581	0.4952	0.453
Mof_Cd	Cd	0.52492	0.34699	0.29692	0.53
Mof_Cd	Cd	0.6255	0.4473	0.03061	0.499
Mof_Cd	Cd	0.84219	0.99581	0.0048	0.453
Mof_Cd	Cd	0.52492	0.84699	0.20308	0.53
Mof_Cd	Cd	0.3745	0.0527	0.53061	0.499
Mof_Cd	Cd	0.15781	0.50419	0.5048	0.453
Mof_Cd	Cd	0.47508	0.65301	0.70308	0.53
Mof_H 	H 	0.2628	0.2582	0.0117	0.044
Mof_H 	H 	0.8697	0.2449	0.0169	0.049
Mof_H 	H 	0.1064	0.4456	0.0218	0.168
Mof_H 	H 	0.4213	0.3785	0.8749	0.068
Mof_H 	H 	0.4842	0.4162	0.7678	0.077
Mof_H 	H 	0.4238	0.5847	0.8341	0.065
Mof_H 	H 	0.7545	0.0677	0.8874	0.056
Mof_H 	H 	0.1445	0.0648	0.8821	0.056
Mof_H 	H 	0.9698	0.1499	0.7985	0.079
Mof_H 	H 	0.7372	0.2418	0.5117	0.044
Mof_H 	H 	0.1303	0.2551	0.5169	0.049
Mof_H 	H 	0.8936	0.0544	0.5218	0.168
Mof_H 	H 	0.5787	0.1215	0.3749	0.069
Mof_H 	H 	0.5158	0.0838	0.2678	0.077
Mof_H 	H 	0.5762	0.9153	0.3341	0.065
Mof_H 	H 	0.2455	0.4323	0.3874	0.056
Mof_H 	H 	0.8555	0.4352	0.3821	0.056
Mof_H 	H 	0.0302	0.3501	0.2985	0.079
Mof_H 	H 	0.7372	0.7418	0.9883	0.044
Mof_H 	H 	0.1303	0.7551	0.9831	0.049
Mof_H 	H 	0.8936	0.5544	0.9782	0.168
Mof_H 	H 	0.5787	0.6215	0.1251	0.068
Mof_H 	H 	0.5158	0.5838	0.2322	0.077
Mof_H 	H 	0.5762	0.4153	0.1659	0.065
Mof_H 	H 	0.2455	0.9323	0.1126	0.056
Mof_H 	H 	0.8555	0.9352	0.1179	0.056
Mof_H 	H 	0.0302	0.8501	0.2015	0.079
Mof_H 	H 	0.2628	0.7582	0.4883	0.044
Mof_H 	H 	0.8697	0.7449	0.4831	0.049
Mof_H 	H 	0.1064	0.9456	0.4782	0.168
Mof_H 	H 	0.4213	0.8785	0.6251	0.069
Mof_H 	H 	0.4842	0.9162	0.7322	0.077
Mof_H 	H 	0.4238	0.0847	0.6659	0.065
Mof_H 	H 	0.7545	0.5677	0.6126	0.056
Mof_H 	H 	0.1445	0.5648	0.6179	0.056
Mof_H 	H 	0.9698	0.6499	0.7015	0.079
Mof_C 	C 	0.3423	0.4045	0.01746	0.288
Mof_C 	C 	0.2049	0.3587	0.0169	-0.031
Mof_C 	C 	0.1885	0.2814	0.01342	0.017
Mof_C 	C 	0.0647	0.238	0.01242	-0.07
Mof_C 	C 	0.0474	0.1532	0.00957	0.34
Mof_C 	C 	0.9542	0.2737	0.0164	0.06
Mof_C 	C 	0.9693	0.3505	0.01962	-0.036
Mof_C 	C 	0.8493	0.3874	0.02384	0.41
Mof_C 	C 	0.0958	0.3933	0.01976	0.024
Mof_C 	C 	0.4019	0.5133	0.8981	0.417
Mof_C 	C 	0.4214	0.4851	0.8608	-0.097
Mof_C 	C 	0.4317	0.4115	0.85502	0.192
Mof_C 	C 	0.4572	0.3834	0.82052	-0.026
Mof_C 	C 	0.4738	0.3032	0.81548	0.357
Mof_C 	C 	0.4671	0.4333	0.79104	0.046
Mof_C 	C 	0.4518	0.5086	0.79572	-0.057
Mof_C 	C 	0.4592	0.5596	0.7633	0.306
Mof_C 	C 	0.4312	0.5343	0.83057	0.078
Mof_C 	C 	0.7176	0.1284	0.8227	0.314
Mof_C 	C 	0.8402	0.1092	0.84021	-0.051
Mof_C 	C 	0.8347	0.0777	0.87484	0.029
Mof_C 	C 	0.9484	0.0611	0.8907	-0.066
Mof_C 	C 	0.9428	0.0305	0.9294	0.316
Mof_C 	C 	0.0679	0.0762	0.8714	0.027
Mof_C 	C 	0.0742	0.1067	0.8379	-0.073
Mof_C 	C 	0.2095	0.1218	0.8195	0.342
Mof_C 	C 	0.9639	0.1263	0.8213	0.033
Mof_C 	C 	0.6577	0.0955	0.51746	0.288
Mof_C 	C 	0.7951	0.1413	0.5169	-0.031
Mof_C 	C 	0.8115	0.2186	0.51342	0.017
Mof_C 	C 	0.9353	0.262	0.51242	-0.071
Mof_C 	C 	0.9526	0.3468	0.50957	0.339
Mof_C 	C 	0.0458	0.2263	0.5164	0.061
Mof_C 	C 	0.0307	0.1495	0.51962	-0.036
Mof_C 	C 	0.1507	0.1126	0.52384	0.41
Mof_C 	C 	0.9042	0.1067	0.51976	0.023
Mof_C 	C 	0.5981	0.9867	0.3981	0.417
Mof_C 	C 	0.5786	0.0149	0.3608	-0.096
Mof_C 	C 	0.5683	0.0885	0.35502	0.192
Mof_C 	C 	0.5428	0.1166	0.32052	-0.026
Mof_C 	C 	0.5262	0.1968	0.31548	0.357
Mof_C 	C 	0.5329	0.0667	0.29104	0.046
Mof_C 	C 	0.5482	0.9914	0.29572	-0.057
Mof_C 	C 	0.5408	0.9404	0.2633	0.306
Mof_C 	C 	0.5688	0.9657	0.33057	0.077
Mof_C 	C 	0.2824	0.3716	0.3227	0.314
Mof_C 	C 	0.1598	0.3908	0.34021	-0.051
Mof_C 	C 	0.1653	0.4223	0.37484	0.029
Mof_C 	C 	0.0516	0.4389	0.3907	-0.066
Mof_C 	C 	0.0572	0.4695	0.4294	0.317
Mof_C 	C 	0.9321	0.4238	0.3714	0.027
Mof_C 	C 	0.9258	0.3933	0.3379	-0.073
Mof_C 	C 	0.7905	0.3782	0.3195	0.342
Mof_C 	C 	0.0361	0.3737	0.3213	0.034
Mof_C 	C 	0.6577	0.5955	0.98254	0.288
Mof_C 	C 	0.7951	0.6413	0.9831	-0.031
Mof_C 	C 	0.8115	0.7186	0.98658	0.017
Mof_C 	C 	0.9353	0.762	0.98758	-0.07
Mof_C 	C 	0.9526	0.8468	0.99043	0.34
Mof_C 	C 	0.0458	0.7263	0.9836	0.06
Mof_C 	C 	0.0307	0.6495	0.98038	-0.036
Mof_C 	C 	0.1507	0.6126	0.97616	0.41
Mof_C 	C 	0.9042	0.6067	0.98024	0.024
Mof_C 	C 	0.5981	0.4867	0.1019	0.417
Mof_C 	C 	0.5786	0.5149	0.1392	-0.097
Mof_C 	C 	0.5683	0.5885	0.14498	0.192
Mof_C 	C 	0.5428	0.6166	0.17948	-0.026
Mof_C 	C 	0.5262	0.6968	0.18452	0.357
Mof_C 	C 	0.5329	0.5667	0.20896	0.046
Mof_C 	C 	0.5482	0.4914	0.20428	-0.057
Mof_C 	C 	0.5408	0.4404	0.2367	0.306
Mof_C 	C 	0.5688	0.4657	0.16943	0.078
Mof_C 	C 	0.2824	0.8716	0.1773	0.314
Mof_C 	C 	0.1598	0.8908	0.15979	-0.051
Mof_C 	C 	0.1653	0.9223	0.12516	0.029
Mof_C 	C 	0.0516	0.9389	0.1093	-0.066
Mof_C 	C 	0.0572	0.9695	0.0706	0.316
Mof_C 	C 	0.9321	0.9238	0.1286	0.027
Mof_C 	C 	0.9258	0.8933	0.1621	-0.073
Mof_C 	C 	0.7905	0.8782	0.1805	0.342
Mof_C 	C 	0.0361	0.8737	0.1787	0.033
Mof_C 	C 	0.3423	0.9045	0.48254	0.288
Mof_C 	C 	0.2049	0.8587	0.4831	-0.031
Mof_C 	C 	0.1885	0.7814	0.48658	0.017
Mof_C 	C 	0.0647	0.738	0.48758	-0.071
Mof_C 	C 	0.0474	0.6532	0.49043	0.339
Mof_C 	C 	0.9542	0.7737	0.4836	0.061
Mof_C 	C 	0.9693	0.8505	0.48038	-0.036
Mof_C 	C 	0.8493	0.8874	0.47616	0.41
Mof_C 	C 	0.0958	0.8933	0.48024	0.023
Mof_C 	C 	0.4019	0.0133	0.6019	0.417
Mof_C 	C 	0.4214	0.9851	0.6392	-0.096
Mof_C 	C 	0.4317	0.9115	0.64498	0.192
Mof_C 	C 	0.4572	0.8834	0.67948	-0.026
Mof_C 	C 	0.4738	0.8032	0.68452	0.357
Mof_C 	C 	0.4671	0.9333	0.70896	0.046
Mof_C 	C 	0.4518	0.0086	0.70428	-0.057
Mof_C 	C 	0.4592	0.0596	0.7367	0.306
Mof_C 	C 	0.4312	0.0343	0.66943	0.077
Mof_C 	C 	0.7176	0.6284	0.6773	0.314
Mof_C 	C 	0.8402	0.6092	0.65979	-0.051
Mof_C 	C 	0.8347	0.5777	0.62516	0.029
Mof_C 	C 	0.9484	0.5611	0.6093	-0.066
Mof_C 	C 	0.9428	0.5305	0.5706	0.317
Mof_C 	C 	0.0679	0.5762	0.6286	0.027
Mof_C 	C 	0.0742	0.6067	0.6621	-0.073
Mof_C 	C 	0.2095	0.6218	0.6805	0.342
Mof_C 	C 	0.9639	0.6263	0.6787	0.034
Mof_O 	O 	0.3562	0.47493	0.01815	-0.1
Mof_O 	O 	0.4378	0.3693	0.0187	-0.374
Mof_O 	O 	0.3867	0.4663	0.92438	-0.404
Mof_O 	O 	0.4	0.5811	0.90401	-0.245
Mof_O 	O 	0.1507	0.1257	0.0046	-0.292
Mof_O 	O 	0.9317	0.1179	0.01094	-0.287
Mof_O 	O 	0.4807	0.278	0.78404	-0.238
Mof_O 	O 	0.4806	0.2634	0.84302	-0.166
Mof_O 	O 	0.723	0.1644	0.79424	-0.213
Mof_O 	O 	0.609	0.1053	0.83937	-0.248
Mof_O 	O 	0.4677	0.6299	0.76794	-0.216
Mof_O 	O 	0.4593	0.5312	0.73215	-0.229
Mof_O 	O 	0.8616	0.454	0.03435	-0.205
Mof_O 	O 	0.7382	0.3501	0.01616	-0.369
Mof_O 	O 	0.2182	0.1543	0.7895	-0.232
Mof_O 	O 	0.3017	0.1014	0.8335	-0.279
Mof_O 	O 	0.0542	0.021	0.94211	-0.279
Mof_O 	O 	0.8323	0.0192	0.94593	-0.279
Mof_O 	O 	0.6438	0.02507	0.51815	-0.1
Mof_O 	O 	0.5622	0.1307	0.5187	-0.374
Mof_O 	O 	0.6133	0.0337	0.42438	-0.404
Mof_O 	O 	0.6	0.9189	0.40401	-0.245
Mof_O 	O 	0.8493	0.3743	0.5046	-0.292
Mof_O 	O 	0.0683	0.3821	0.51094	-0.286
Mof_O 	O 	0.5193	0.222	0.28404	-0.237
Mof_O 	O 	0.5194	0.2366	0.34302	-0.166
Mof_O 	O 	0.277	0.3356	0.29424	-0.213
Mof_O 	O 	0.391	0.3947	0.33937	-0.248
Mof_O 	O 	0.5323	0.8701	0.26794	-0.216
Mof_O 	O 	0.5407	0.9688	0.23215	-0.229
Mof_O 	O 	0.1384	0.046	0.53435	-0.205
Mof_O 	O 	0.2618	0.1499	0.51616	-0.369
Mof_O 	O 	0.7818	0.3457	0.2895	-0.232
Mof_O 	O 	0.6983	0.3986	0.3335	-0.279
Mof_O 	O 	0.9458	0.479	0.44211	-0.28
Mof_O 	O 	0.1677	0.4808	0.44593	-0.279
Mof_O 	O 	0.6438	0.52507	0.98185	-0.1
Mof_O 	O 	0.5622	0.6307	0.9813	-0.374
Mof_O 	O 	0.6133	0.5337	0.07562	-0.404
Mof_O 	O 	0.6	0.4189	0.09599	-0.245
Mof_O 	O 	0.8493	0.8743	0.9954	-0.292
Mof_O 	O 	0.0683	0.8821	0.98906	-0.287
Mof_O 	O 	0.5193	0.722	0.21596	-0.238
Mof_O 	O 	0.5194	0.7366	0.15698	-0.166
Mof_O 	O 	0.277	0.8356	0.20576	-0.213
Mof_O 	O 	0.391	0.8947	0.16063	-0.248
Mof_O 	O 	0.5323	0.3701	0.23206	-0.216
Mof_O 	O 	0.5407	0.4688	0.26785	-0.229
Mof_O 	O 	0.1384	0.546	0.96565	-0.205
Mof_O 	O 	0.2618	0.6499	0.98384	-0.369
Mof_O 	O 	0.7818	0.8457	0.2105	-0.232
Mof_O 	O 	0.6983	0.8986	0.1665	-0.279
Mof_O 	O 	0.9458	0.979	0.05789	-0.279
Mof_O 	O 	0.1677	0.9808	0.05407	-0.279
Mof_O 	O 	0.3562	0.97493	0.48185	-0.1
Mof_O 	O 	0.4378	0.8693	0.4813	-0.374
Mof_O 	O 	0.3867	0.9663	0.57562	-0.404
Mof_O 	O 	0.4	0.0811	0.59599	-0.245
Mof_O 	O 	0.1507	0.6257	0.4954	-0.292
Mof_O 	O 	0.9317	0.6179	0.48906	-0.286
Mof_O 	O 	0.4807	0.778	0.71596	-0.237
Mof_O 	O 	0.4806	0.7634	0.65698	-0.166
Mof_O 	O 	0.723	0.6644	0.70576	-0.213
Mof_O 	O 	0.609	0.6053	0.66063	-0.248
Mof_O 	O 	0.4677	0.1299	0.73206	-0.216
Mof_O 	O 	0.4593	0.0312	0.76785	-0.229
Mof_O 	O 	0.8616	0.954	0.46565	-0.205
Mof_O 	O 	0.7382	0.8501	0.48384	-0.369
Mof_O 	O 	0.2182	0.6543	0.7105	-0.232
Mof_O 	O 	0.3017	0.6014	0.6665	-0.279
Mof_O 	O 	0.0542	0.521	0.55789	-0.28
Mof_O 	O 	0.8323	0.5192	0.55407	-0.279
Mof_H 	H 	0.496	0.3576	0.9364	3.832
Mof_H 	H 	0.5857	0.319	0.9624	3.836
Mof_H 	H 	0.6924	0.4189	0.9384	-5.37
Mof_H 	H 	0.6589	0.3861	0.899	-5.198
Mof_H 	H 	0.7489	0.3476	0.9252	-5.213
Mof_H 	H 	0.7025	0.2355	0.9025	0.449
Mof_H 	H 	0.5943	0.1624	0.9006	0.162
Mof_H 	H 	0.7317	0.1525	0.9535	0.095
Mof_H 	H 	0.5891	0.1581	0.9676	0.049
Mof_H 	H 	0.7011	0.2293	0.9688	0.108
Mof_H 	H 	0.3811	0.1572	0.9193	0.142
Mof_H 	H 	0.3924	0.2032	0.9557	0.175
Mof_H 	H 	0.1807	0.2021	0.929	0.143
Mof_H 	H 	0.2464	0.2415	0.8936	0.155
Mof_H 	H 	0.2554	0.2857	0.9308	0.117
Mof_C 	C 	0.5692	0.3298	0.937	-12.314
Mof_C 	C 	0.6744	0.3735	0.924	17.98
Mof_C 	C 	0.6254	0.2077	0.9148	-0.379
Mof_C 	C 	0.6659	0.1846	0.9552	-0.067
Mof_C 	C 	0.3886	0.2078	0.9292	-0.311
Mof_C 	C 	0.255	0.2372	0.9197	-0.272
Mof_N 	N 	0.5249	0.2526	0.9165	1.3
Mof_H 	H 	0.504	0.1424	0.4364	3.836
Mof_H 	H 	0.4143	0.181	0.4624	3.84
Mof_H 	H 	0.3076	0.0811	0.4384	-5.375
Mof_H 	H 	0.3411	0.1139	0.399	-5.203
Mof_H 	H 	0.2511	0.1524	0.4252	-5.218
Mof_H 	H 	0.2975	0.2645	0.4025	0.45
Mof_H 	H 	0.4057	0.3376	0.4006	0.163
Mof_H 	H 	0.2683	0.3475	0.4535	0.095
Mof_H 	H 	0.4109	0.3419	0.4676	0.049
Mof_H 	H 	0.2989	0.2707	0.4688	0.108
Mof_H 	H 	0.6189	0.3428	0.4193	0.142
Mof_H 	H 	0.6076	0.2968	0.4557	0.176
Mof_H 	H 	0.8193	0.2979	0.429	0.143
Mof_H 	H 	0.7536	0.2585	0.3936	0.154
Mof_H 	H 	0.7446	0.2143	0.4308	0.117
Mof_C 	C 	0.4308	0.1702	0.437	-12.325
Mof_C 	C 	0.3256	0.1265	0.424	17.997
Mof_C 	C 	0.3746	0.2923	0.4148	-0.38
Mof_C 	C 	0.3341	0.3154	0.4552	-0.066
Mof_C 	C 	0.6114	0.2922	0.4292	-0.312
Mof_C 	C 	0.745	0.2628	0.4197	-0.271
Mof_N 	N 	0.4751	0.2474	0.4165	1.302
Mof_H 	H 	0.504	0.6424	0.0636	3.832
Mof_H 	H 	0.4143	0.681	0.0376	3.836
Mof_H 	H 	0.3076	0.5811	0.0616	-5.37
Mof_H 	H 	0.3411	0.6139	0.101	-5.198
Mof_H 	H 	0.2511	0.6524	0.0748	-5.213
Mof_H 	H 	0.2975	0.7645	0.0975	0.449
Mof_H 	H 	0.4057	0.8376	0.0994	0.162
Mof_H 	H 	0.2683	0.8475	0.0465	0.095
Mof_H 	H 	0.4109	0.8419	0.0324	0.049
Mof_H 	H 	0.2989	0.7707	0.0312	0.108
Mof_H 	H 	0.6189	0.8428	0.0807	0.142
Mof_H 	H 	0.6076	0.7968	0.0443	0.175
Mof_H 	H 	0.8193	0.7979	0.071	0.143
Mof_H 	H 	0.7536	0.7585	0.1064	0.155
Mof_H 	H 	0.7446	0.7143	0.0692	0.117
Mof_C 	C 	0.4308	0.6702	0.063	-12.314
Mof_C 	C 	0.3256	0.6265	0.076	17.98
Mof_C 	C 	0.3746	0.7923	0.0852	-0.379
Mof_C 	C 	0.3341	0.8154	0.0448	-0.067
Mof_C 	C 	0.6114	0.7922	0.0708	-0.311
Mof_C 	C 	0.745	0.7628	0.0803	-0.272
Mof_N 	N 	0.4751	0.7474	0.0835	1.3
Mof_H 	H 	0.496	0.8576	0.5636	3.836
Mof_H 	H 	0.5857	0.819	0.5376	3.84
Mof_H 	H 	0.6924	0.9189	0.5616	-5.375
Mof_H 	H 	0.6589	0.8861	0.601	-5.203
Mof_H 	H 	0.7489	0.8476	0.5748	-5.218
Mof_H 	H 	0.7025	0.7355	0.5975	0.45
Mof_H 	H 	0.5943	0.6624	0.5994	0.163
Mof_H 	H 	0.7317	0.6525	0.5465	0.095
Mof_H 	H 	0.5891	0.6581	0.5324	0.049
Mof_H 	H 	0.7011	0.7293	0.5312	0.108
Mof_H 	H 	0.3811	0.6572	0.5807	0.142
Mof_H 	H 	0.3924	0.7032	0.5443	0.176
Mof_H 	H 	0.1807	0.7021	0.571	0.143
Mof_H 	H 	0.2464	0.7415	0.6064	0.154
Mof_H 	H 	0.2554	0.7857	0.5692	0.117
Mof_C 	C 	0.5692	0.8298	0.563	-12.325
Mof_C 	C 	0.6744	0.8735	0.576	17.997
Mof_C 	C 	0.6254	0.7077	0.5852	-0.38
Mof_C 	C 	0.6659	0.6846	0.5448	-0.066
Mof_C 	C 	0.3886	0.7078	0.5708	-0.312
Mof_C 	C 	0.255	0.7372	0.5803	-0.271
Mof_N 	N 	0.5249	0.7526	0.5835	1.302
_end
