data_functionalizedCrystal
_audit_creation_method	'EQeq! by Chris Wilmer'
_symmetry_space_group_name_H-M	'P1'
_symmetry_Int_Tables_number	1
_symmetry_cell_setting	triclinic
loop_
_symmetry_equiv_pos_as_xyz
  x,y,z
_cell_length_a	9.14
_cell_length_b	11.1538
_cell_length_c	11.2716
_cell_angle_alpha	77.261
_cell_angle_beta	68.453
_cell_angle_gamma	78.843
loop_
_atom_site_label
_atom_site_type_symbol
_atom_site_fract_x
_atom_site_fract_y
_atom_site_fract_z
_atom_site_charge
Mof_Nd	Nd	0.73063	0.01791	0.01935	2.127
Mof_S 	S 	0.69499	0.11981	0.49523	0.031
Mof_O 	O 	0.4287	0.072	0.7528	-0.524
Mof_C 	C 	0.5575	0.0729	0.7665	0.492
Mof_S 	S 	0.91645	0.7361	0.43742	0.048
Mof_O 	O 	0.5703	0.0464	0.8781	-0.633
Mof_C 	C 	0.7062	0.1012	0.6534	-0.402
Mof_H 	H 	0.7902	0.035	0.6604	0.14
Mof_H 	H 	0.7371	0.1767	0.6615	0.146
Mof_S 	S 	0.8486	0.55392	0.8754	0.02
Mof_O 	O 	0.9416	0.896	0.094	-0.608
Mof_C 	C 	0.7114	0.9588	0.4816	-0.115
Mof_H 	H 	0.6461	0.9148	0.5622	0.049
Mof_H 	H 	0.6729	0.953	0.4138	0.06
Mof_O 	O 	0.1443	0.817	0.1578	-0.543
Mof_C 	C 	0.8828	0.8985	0.4506	-0.143
Mof_H 	H 	0.9208	0.908	0.5175	0.061
Mof_H 	H 	0.9463	0.9433	0.3697	0.074
Mof_O 	O 	0.9149	0.9036	0.8345	-0.466
Mof_C 	C 	0.8944	0.7422	0.2834	-0.419
Mof_H 	H 	0.916	0.6587	0.2641	0.143
Mof_H 	H 	0.7851	0.7725	0.2907	0.155
Mof_O 	O 	0.7335	0.7958	0.9845	-0.456
Mof_C 	C 	0.0009	0.823	0.1718	0.515
Mof_C 	C 	0.9127	0.5136	0.0179	-0.122
Mof_H 	H 	0.8755	0.5818	0.0664	0.064
Mof_H 	H 	0.8646	0.4417	0.0734	0.04
Mof_C 	C 	0.9166	0.6992	0.8028	-0.315
Mof_H 	H 	0.0308	0.688	0.7807	0.103
Mof_H 	H 	0.8945	0.7246	0.7224	0.111
Mof_C 	C 	0.8488	0.8054	0.8805	0.369
Mof_Nd	Nd	0.26937	0.98209	0.98065	2.126
Mof_S 	S 	0.30501	0.88019	0.50477	0.03
Mof_O 	O 	0.5713	0.928	0.2472	-0.525
Mof_C 	C 	0.4425	0.9271	0.2335	0.491
Mof_S 	S 	0.08355	0.2639	0.56258	0.048
Mof_O 	O 	0.4297	0.9536	0.1219	-0.633
Mof_C 	C 	0.2938	0.8988	0.3466	-0.402
Mof_H 	H 	0.2098	0.965	0.3396	0.14
Mof_H 	H 	0.2629	0.8233	0.3385	0.146
Mof_S 	S 	0.1514	0.44608	0.1246	0.02
Mof_O 	O 	0.0584	0.104	0.906	-0.608
Mof_C 	C 	0.2886	0.0412	0.5184	-0.115
Mof_H 	H 	0.3539	0.0852	0.4378	0.049
Mof_H 	H 	0.3271	0.047	0.5862	0.06
Mof_O 	O 	0.8557	0.183	0.8422	-0.543
Mof_C 	C 	0.1172	0.1015	0.5494	-0.143
Mof_H 	H 	0.0792	0.092	0.4825	0.061
Mof_H 	H 	0.0537	0.0567	0.6303	0.074
Mof_O 	O 	0.0851	0.0964	0.1655	-0.466
Mof_C 	C 	0.1056	0.2578	0.7166	-0.419
Mof_H 	H 	0.084	0.3413	0.7359	0.143
Mof_H 	H 	0.2149	0.2275	0.7093	0.155
Mof_O 	O 	0.2665	0.2042	0.0155	-0.456
Mof_C 	C 	0.9991	0.177	0.8282	0.515
Mof_C 	C 	0.0873	0.4864	0.9821	-0.122
Mof_H 	H 	0.1245	0.4182	0.9336	0.064
Mof_H 	H 	0.1354	0.5583	0.9266	0.04
Mof_C 	C 	0.0834	0.3008	0.1972	-0.315
Mof_H 	H 	0.9692	0.312	0.2193	0.103
Mof_H 	H 	0.1055	0.2754	0.2776	0.111
Mof_C 	C 	0.1512	0.1946	0.1195	0.369
_end
