data_functionalizedCrystal
_audit_creation_method	'EQeq! by Chris Wilmer'
_symmetry_space_group_name_H-M	'P1'
_symmetry_Int_Tables_number	1
_symmetry_cell_setting	triclinic
loop_
_symmetry_equiv_pos_as_xyz
  x,y,z
_cell_length_a	16.954
_cell_length_b	16.954
_cell_length_c	16.954
_cell_angle_alpha	90
_cell_angle_beta	90
_cell_angle_gamma	90
loop_
_atom_site_label
_atom_site_type_symbol
_atom_site_fract_x
_atom_site_fract_y
_atom_site_fract_z
_atom_site_charge
Mof_Mn	Mn	0.893	0.107	0.607	0.582
Mof_Mn	Mn	0.607	0.893	0.107	0.582
Mof_Mn	Mn	0.107	0.607	0.893	0.582
Mof_Mn	Mn	0.393	0.393	0.393	0.582
Mof_Mn	Mn	0.107	0.893	0.393	0.582
Mof_Mn	Mn	0.393	0.107	0.893	0.582
Mof_Mn	Mn	0.893	0.393	0.107	0.582
Mof_Mn	Mn	0.607	0.607	0.607	0.582
Mof_Re	Re	0.97026	0.40497	0.54334	0.335
Mof_Re	Re	0.52974	0.59503	0.04334	0.335
Mof_Re	Re	0.02974	0.90497	0.95666	0.333
Mof_Re	Re	0.47026	0.09503	0.45666	0.335
Mof_Re	Re	0.54334	0.97026	0.40497	0.334
Mof_Re	Re	0.04334	0.52974	0.59503	0.334
Mof_Re	Re	0.95666	0.02974	0.90497	0.333
Mof_Re	Re	0.45666	0.47026	0.09503	0.335
Mof_Re	Re	0.40497	0.54334	0.97026	0.334
Mof_Re	Re	0.59503	0.04334	0.52974	0.334
Mof_Re	Re	0.90497	0.95666	0.02974	0.333
Mof_Re	Re	0.09503	0.45666	0.47026	0.335
Mof_Re	Re	0.02974	0.59503	0.45666	0.334
Mof_Re	Re	0.47026	0.40497	0.95666	0.334
Mof_Re	Re	0.97026	0.09503	0.04334	0.333
Mof_Re	Re	0.52974	0.90497	0.54334	0.335
Mof_Re	Re	0.45666	0.02974	0.59503	0.334
Mof_Re	Re	0.95666	0.47026	0.40497	0.334
Mof_Re	Re	0.04334	0.97026	0.09503	0.333
Mof_Re	Re	0.54334	0.52974	0.90497	0.335
Mof_Re	Re	0.59503	0.45666	0.02974	0.334
Mof_Re	Re	0.40497	0.95666	0.47026	0.334
Mof_Re	Re	0.09503	0.04334	0.97026	0.333
Mof_Re	Re	0.90497	0.54334	0.52974	0.335
Mof_C 	C 	0.933	0.292	0.591	-0.015
Mof_C 	C 	0.567	0.708	0.091	-0.015
Mof_C 	C 	0.067	0.792	0.909	-0.016
Mof_C 	C 	0.433	0.208	0.409	-0.015
Mof_C 	C 	0.591	0.933	0.292	-0.015
Mof_C 	C 	0.091	0.567	0.708	-0.015
Mof_C 	C 	0.909	0.067	0.792	-0.016
Mof_C 	C 	0.409	0.433	0.208	-0.015
Mof_C 	C 	0.292	0.591	0.933	-0.015
Mof_C 	C 	0.708	0.091	0.567	-0.015
Mof_C 	C 	0.792	0.909	0.067	-0.016
Mof_C 	C 	0.208	0.409	0.433	-0.015
Mof_C 	C 	0.067	0.708	0.409	-0.015
Mof_C 	C 	0.433	0.292	0.909	-0.015
Mof_C 	C 	0.933	0.208	0.091	-0.016
Mof_C 	C 	0.567	0.792	0.591	-0.015
Mof_C 	C 	0.409	0.067	0.708	-0.015
Mof_C 	C 	0.909	0.433	0.292	-0.015
Mof_C 	C 	0.091	0.933	0.208	-0.016
Mof_C 	C 	0.591	0.567	0.792	-0.015
Mof_C 	C 	0.708	0.409	0.067	-0.015
Mof_C 	C 	0.292	0.909	0.433	-0.015
Mof_C 	C 	0.208	0.091	0.933	-0.016
Mof_C 	C 	0.792	0.591	0.567	-0.015
Mof_S 	S 	0.9249	0.4793	0.6555	-0.252
Mof_S 	S 	0.5751	0.5207	0.1555	-0.253
Mof_S 	S 	0.0751	0.9793	0.8445	-0.253
Mof_S 	S 	0.4249	0.0207	0.3445	-0.251
Mof_S 	S 	0.6555	0.9249	0.4793	-0.252
Mof_S 	S 	0.1555	0.5751	0.5207	-0.253
Mof_S 	S 	0.8445	0.0751	0.9793	-0.253
Mof_S 	S 	0.3445	0.4249	0.0207	-0.251
Mof_S 	S 	0.4793	0.6555	0.9249	-0.252
Mof_S 	S 	0.5207	0.1555	0.5751	-0.253
Mof_S 	S 	0.9793	0.8445	0.0751	-0.253
Mof_S 	S 	0.0207	0.3445	0.4249	-0.251
Mof_S 	S 	0.0751	0.5207	0.3445	-0.252
Mof_S 	S 	0.4249	0.4793	0.8445	-0.253
Mof_S 	S 	0.9249	0.0207	0.1555	-0.253
Mof_S 	S 	0.5751	0.9793	0.6555	-0.251
Mof_S 	S 	0.3445	0.0751	0.5207	-0.252
Mof_S 	S 	0.8445	0.4249	0.4793	-0.253
Mof_S 	S 	0.1555	0.9249	0.0207	-0.253
Mof_S 	S 	0.6555	0.5751	0.9793	-0.251
Mof_S 	S 	0.5207	0.3445	0.0751	-0.252
Mof_S 	S 	0.4793	0.8445	0.4249	-0.253
Mof_S 	S 	0.0207	0.1555	0.9249	-0.253
Mof_S 	S 	0.9793	0.6555	0.5751	-0.251
Mof_S 	S 	0.1004	0.3996	0.6004	-0.249
Mof_S 	S 	0.3996	0.6004	0.1004	-0.249
Mof_S 	S 	0.8996	0.8996	0.8996	-0.244
Mof_S 	S 	0.6004	0.1004	0.3996	-0.249
Mof_S 	S 	0.8996	0.6004	0.3996	-0.249
Mof_S 	S 	0.6004	0.3996	0.8996	-0.249
Mof_S 	S 	0.1004	0.1004	0.1004	-0.244
Mof_S 	S 	0.3996	0.8996	0.6004	-0.249
Mof_N 	N 	0.915	0.232	0.614	-0.178
Mof_N 	N 	0.585	0.768	0.114	-0.178
Mof_N 	N 	0.085	0.732	0.886	-0.178
Mof_N 	N 	0.415	0.268	0.386	-0.178
Mof_N 	N 	0.614	0.915	0.232	-0.178
Mof_N 	N 	0.114	0.585	0.768	-0.178
Mof_N 	N 	0.886	0.085	0.732	-0.178
Mof_N 	N 	0.386	0.415	0.268	-0.178
Mof_N 	N 	0.232	0.614	0.915	-0.178
Mof_N 	N 	0.768	0.114	0.585	-0.178
Mof_N 	N 	0.732	0.886	0.085	-0.178
Mof_N 	N 	0.268	0.386	0.415	-0.178
Mof_N 	N 	0.085	0.768	0.386	-0.178
Mof_N 	N 	0.415	0.232	0.886	-0.178
Mof_N 	N 	0.915	0.268	0.114	-0.178
Mof_N 	N 	0.585	0.732	0.614	-0.178
Mof_N 	N 	0.386	0.085	0.768	-0.178
Mof_N 	N 	0.886	0.415	0.232	-0.178
Mof_N 	N 	0.114	0.915	0.268	-0.178
Mof_N 	N 	0.614	0.585	0.732	-0.178
Mof_N 	N 	0.768	0.386	0.085	-0.178
Mof_N 	N 	0.232	0.886	0.415	-0.178
Mof_N 	N 	0.268	0.114	0.915	-0.178
Mof_N 	N 	0.732	0.614	0.585	-0.178
_end
