data_functionalizedCrystal
_audit_creation_method	'EQeq! by Chris Wilmer'
_symmetry_space_group_name_H-M	'P1'
_symmetry_Int_Tables_number	1
_symmetry_cell_setting	triclinic
loop_
_symmetry_equiv_pos_as_xyz
  x,y,z
_cell_length_a	10.1318
_cell_length_b	16.1752
_cell_length_c	23.1015
_cell_angle_alpha	90
_cell_angle_beta	93.411
_cell_angle_gamma	90
loop_
_atom_site_label
_atom_site_type_symbol
_atom_site_fract_x
_atom_site_fract_y
_atom_site_fract_z
_atom_site_charge
Mof_Cd	Cd	0.68919	0.07902	0.73986	0.434
Mof_Cd	Cd	0.33278	0.99523	0.77087	0.433
Mof_N 	N 	0.3703	0.858	0.78506	-0.147
Mof_N 	N 	0.1153	0.0193	0.77397	-0.148
Mof_C 	C 	0.9938	0.9722	0.683	-0.096
Mof_O 	O 	0.6994	0.857	0.73471	-0.215
Mof_N 	N 	0.3501	0.7207	0.77365	-0.143
Mof_N 	N 	0.6735	0.0569	0.63949	-0.152
Mof_C 	C 	0.0795	0.0572	0.8239	-0.007
Mof_N 	N 	0.67	0.0121	0.3326	-0.152
Mof_O 	O 	0.2975	0.0494	0.8647	-0.24
Mof_C 	C 	0.0026	0.0113	0.7406	0.139
Mof_O 	O 	0.5344	0.6077	0.73982	-0.274
Mof_N 	N 	0.8968	0.0432	0.76611	-0.141
Mof_C 	C 	0.2915	0.791	0.7896	0.137
Mof_C 	C 	0.485	0.8282	0.7653	-0.005
Mof_C 	C 	0.9801	0.8879	0.6769	0.08
Mof_H 	H 	0.9764	0.8552	0.7099	0.025
Mof_O 	O 	0.737	0.1183	0.84217	-0.257
Mof_C 	C 	0.5935	0.8855	0.7534	0.284
Mof_C 	C 	0.1817	0.0721	0.8708	0.276
Mof_C 	C 	0.6727	0.0278	0.4541	0.062
Mof_C 	C 	0.6724	0.0372	0.5178	0.052
Mof_C 	C 	0.6667	0.982	0.6145	0.075
Mof_H 	H 	0.663	0.9358	0.6383	0.029
Mof_C 	C 	0.9998	0.0201	0.6335	0.073
Mof_H 	H 	0.0086	0.0771	0.637	0.014
Mof_C 	C 	0.9785	0.8995	0.5739	0.225
Mof_C 	C 	0.6674	0.9466	0.3673	0.085
Mof_H 	H 	0.6653	0.8945	0.3503	0.016
Mof_C 	C 	0.6648	0.9698	0.5555	-0.119
Mof_H 	H 	0.6585	0.9165	0.5405	0.08
Mof_C 	C 	0.1598	0.7943	0.8132	-0.111
Mof_C 	C 	0.0596	0.7391	0.7935	0.091
Mof_H 	H 	0.0773	0.6995	0.7658	0.004
Mof_C 	C 	0.9358	0.7433	0.8146	-0.224
Mof_H 	H 	0.8706	0.7061	0.8016	0.14
Mof_C 	C 	0.993	0.9845	0.5792	-0.2
Mof_H 	H 	0.998	0.0172	0.5463	0.124
Mof_C 	C 	0.9715	0.8505	0.6227	-0.207
Mof_H 	H 	0.9613	0.7936	0.6193	0.12
Mof_C 	C 	0.6675	0.9513	0.4268	-0.13
Mof_H 	H 	0.6641	0.9032	0.4487	0.084
Mof_C 	C 	0.1291	0.852	0.8539	0.091
Mof_H 	H 	0.194	0.8889	0.8676	0.012
Mof_C 	C 	0.6774	0.0865	0.3586	0.081
Mof_H 	H 	0.6824	0.1334	0.3355	0.016
Mof_C 	C 	0.9084	0.8017	0.8546	0.242
Mof_C 	C 	0.6778	0.0965	0.4175	-0.13
Mof_H 	H 	0.6816	0.1494	0.4333	0.086
Mof_C 	C 	0.68	0.1218	0.6037	0.076
Mof_H 	H 	0.6855	0.1743	0.62	0.012
Mof_C 	C 	0.0044	0.8567	0.8751	-0.227
Mof_H 	H 	0.9856	0.8962	0.9027	0.123
Mof_O 	O 	0.7803	0.8005	0.8719	-0.183
Mof_C 	C 	0.6792	0.1151	0.5447	-0.127
Mof_H 	H 	0.6831	0.1625	0.5222	0.08
Mof_O 	O 	0.6817	0.7058	0.72554	-0.216
Mof_C 	C 	0.4729	0.7436	0.758	-0.004
Mof_C 	C 	0.5692	0.6827	0.7393	0.285
Mof_C 	C 	0.946	0.072	0.8185	-0.048
Mof_O 	O 	0.1452	0.1084	0.91644	-0.256
Mof_C 	C 	0.9639	0.7862	0.5077	-0.231
Mof_H 	H 	0.0467	0.761	0.5199	0.124
Mof_H 	H 	0.9457	0.7766	0.467	0.118
Mof_H 	H 	0.8946	0.7625	0.5289	0.119
Mof_O 	O 	0.9038	0.134	0.90818	-0.434
Mof_O 	O 	0.9706	0.8713	0.51819	-0.193
Mof_C 	C 	0.8545	0.1107	0.8581	0.336
Mof_C 	C 	0.7376	0.8663	0.9053	-0.233
Mof_H 	H 	0.7897	0.8683	0.9414	0.116
Mof_H 	H 	0.6463	0.8586	0.9128	0.125
Mof_H 	H 	0.7477	0.9172	0.8847	0.125
Mof_O 	O 	0.5748	0.9604	0.76162	-0.275
Mof_H 	H 	0.987	0.132	0.905	0.265
Mof_Cd	Cd	0.31081	0.57902	0.76014	0.435
Mof_Cd	Cd	0.66722	0.49523	0.72913	0.436
Mof_N 	N 	0.6297	0.358	0.71494	-0.145
Mof_N 	N 	0.8847	0.5193	0.72603	-0.147
Mof_C 	C 	0.0062	0.4722	0.817	-0.103
Mof_O 	O 	0.3006	0.357	0.76529	-0.214
Mof_N 	N 	0.6499	0.2207	0.72635	-0.142
Mof_N 	N 	0.3265	0.5569	0.86051	-0.151
Mof_C 	C 	0.9205	0.5572	0.6761	-0.009
Mof_N 	N 	0.33	0.5121	0.1674	-0.15
Mof_O 	O 	0.7025	0.5494	0.6353	-0.24
Mof_C 	C 	0.9974	0.5113	0.7594	0.139
Mof_O 	O 	0.4656	0.1077	0.76018	-0.272
Mof_N 	N 	0.1032	0.5432	0.73389	-0.139
Mof_C 	C 	0.7085	0.291	0.7104	0.137
Mof_C 	C 	0.515	0.3282	0.7347	-0.005
Mof_C 	C 	0.0199	0.3879	0.8231	0.089
Mof_H 	H 	0.0236	0.3552	0.7901	0.023
Mof_O 	O 	0.263	0.6183	0.65783	-0.257
Mof_C 	C 	0.4065	0.3855	0.7466	0.284
Mof_C 	C 	0.8183	0.5721	0.6292	0.277
Mof_C 	C 	0.3273	0.5278	0.0459	0.062
Mof_C 	C 	0.3276	0.5372	0.9822	0.053
Mof_C 	C 	0.3333	0.482	0.8855	0.075
Mof_H 	H 	0.337	0.4358	0.8617	0.029
Mof_C 	C 	0.0002	0.5201	0.8665	0.092
Mof_H 	H 	0.9914	0.5771	0.863	0.005
Mof_C 	C 	0.0215	0.3995	0.9261	0.235
Mof_C 	C 	0.3326	0.4466	0.1327	0.084
Mof_H 	H 	0.3347	0.3945	0.1497	0.016
Mof_C 	C 	0.3352	0.4698	0.9445	-0.12
Mof_H 	H 	0.3415	0.4165	0.9595	0.081
Mof_C 	C 	0.8402	0.2943	0.6868	-0.11
Mof_C 	C 	0.9404	0.2391	0.7065	0.089
Mof_H 	H 	0.9227	0.1995	0.7342	0.004
Mof_C 	C 	0.0642	0.2433	0.6854	-0.222
Mof_H 	H 	0.1294	0.2061	0.6984	0.139
Mof_C 	C 	0.007	0.4845	0.9208	-0.217
Mof_H 	H 	0.002	0.5172	0.9537	0.131
Mof_C 	C 	0.0285	0.3505	0.8773	-0.215
Mof_H 	H 	0.0387	0.2936	0.8807	0.124
Mof_C 	C 	0.3325	0.4513	0.0732	-0.131
Mof_H 	H 	0.3359	0.4032	0.0513	0.084
Mof_C 	C 	0.8709	0.352	0.6461	0.091
Mof_H 	H 	0.806	0.3889	0.6324	0.013
Mof_C 	C 	0.3226	0.5865	0.1414	0.081
Mof_H 	H 	0.3176	0.6334	0.1645	0.016
Mof_C 	C 	0.0916	0.3017	0.6454	0.241
Mof_C 	C 	0.3222	0.5965	0.0825	-0.13
Mof_H 	H 	0.3184	0.6494	0.0667	0.086
Mof_C 	C 	0.32	0.6218	0.8963	0.076
Mof_H 	H 	0.3145	0.6743	0.88	0.012
Mof_C 	C 	0.9956	0.3567	0.6249	-0.227
Mof_H 	H 	0.0144	0.3962	0.5973	0.123
Mof_O 	O 	0.2197	0.3005	0.6281	-0.183
Mof_C 	C 	0.3208	0.6151	0.9553	-0.127
Mof_H 	H 	0.3169	0.6625	0.9778	0.081
Mof_O 	O 	0.3183	0.2058	0.77446	-0.216
Mof_C 	C 	0.5271	0.2436	0.742	-0.004
Mof_C 	C 	0.4308	0.1827	0.7607	0.285
Mof_C 	C 	0.054	0.572	0.6815	-0.045
Mof_O 	O 	0.8548	0.6084	0.58356	-0.257
Mof_C 	C 	0.0361	0.2862	0.9923	-0.215
Mof_H 	H 	0.9533	0.261	0.9801	0.118
Mof_H 	H 	0.0543	0.2766	0.033	0.112
Mof_H 	H 	0.1054	0.2625	0.9711	0.114
Mof_O 	O 	0.0962	0.634	0.59182	-0.434
Mof_O 	O 	0.0294	0.3713	0.98181	-0.199
Mof_C 	C 	0.1455	0.6107	0.6419	0.335
Mof_C 	C 	0.2624	0.3663	0.5947	-0.234
Mof_H 	H 	0.2103	0.3683	0.5586	0.116
Mof_H 	H 	0.3537	0.3586	0.5872	0.125
Mof_H 	H 	0.2523	0.4172	0.6153	0.125
Mof_O 	O 	0.4252	0.4604	0.73838	-0.275
Mof_H 	H 	0.013	0.632	0.595	0.266
Mof_Cd	Cd	0.31081	0.92098	0.26014	0.435
Mof_Cd	Cd	0.66722	0.00477	0.22913	0.434
Mof_N 	N 	0.6297	0.142	0.21494	-0.146
Mof_N 	N 	0.8847	0.9807	0.22603	-0.147
Mof_C 	C 	0.0062	0.0278	0.317	-0.095
Mof_O 	O 	0.3006	0.143	0.26529	-0.214
Mof_N 	N 	0.6499	0.2793	0.22635	-0.142
Mof_N 	N 	0.3265	0.9431	0.36051	-0.151
Mof_C 	C 	0.9205	0.9428	0.1761	-0.006
Mof_N 	N 	0.33	0.9879	0.6674	-0.151
Mof_O 	O 	0.7025	0.9506	0.1353	-0.239
Mof_C 	C 	0.9974	0.9887	0.2594	0.14
Mof_O 	O 	0.4656	0.3923	0.26018	-0.273
Mof_N 	N 	0.1032	0.9568	0.23389	-0.14
Mof_C 	C 	0.7085	0.209	0.2104	0.137
Mof_C 	C 	0.515	0.1718	0.2347	-0.005
Mof_C 	C 	0.0199	0.1121	0.3231	0.08
Mof_H 	H 	0.0236	0.1448	0.2901	0.025
Mof_O 	O 	0.263	0.8817	0.15783	-0.257
Mof_C 	C 	0.4065	0.1145	0.2466	0.284
Mof_C 	C 	0.8183	0.9279	0.1292	0.276
Mof_C 	C 	0.3273	0.9722	0.5459	0.062
Mof_C 	C 	0.3276	0.9628	0.4822	0.052
Mof_C 	C 	0.3333	0.018	0.3855	0.075
Mof_H 	H 	0.337	0.0642	0.3617	0.029
Mof_C 	C 	0.0002	0.9799	0.3665	0.073
Mof_H 	H 	0.9914	0.9229	0.363	0.014
Mof_C 	C 	0.0215	0.1005	0.4261	0.225
Mof_C 	C 	0.3326	0.0534	0.6327	0.085
Mof_H 	H 	0.3347	0.1055	0.6497	0.016
Mof_C 	C 	0.3352	0.0302	0.4445	-0.119
Mof_H 	H 	0.3415	0.0835	0.4595	0.08
Mof_C 	C 	0.8402	0.2057	0.1868	-0.111
Mof_C 	C 	0.9404	0.2609	0.2065	0.091
Mof_H 	H 	0.9227	0.3005	0.2342	0.004
Mof_C 	C 	0.0642	0.2567	0.1854	-0.224
Mof_H 	H 	0.1294	0.2939	0.1984	0.14
Mof_C 	C 	0.007	0.0155	0.4208	-0.2
Mof_H 	H 	0.002	0.9828	0.4537	0.124
Mof_C 	C 	0.0285	0.1495	0.3773	-0.207
Mof_H 	H 	0.0387	0.2064	0.3807	0.12
Mof_C 	C 	0.3325	0.0487	0.5732	-0.13
Mof_H 	H 	0.3359	0.0968	0.5513	0.084
Mof_C 	C 	0.8709	0.148	0.1461	0.091
Mof_H 	H 	0.806	0.1111	0.1324	0.012
Mof_C 	C 	0.3226	0.9135	0.6414	0.081
Mof_H 	H 	0.3176	0.8666	0.6645	0.016
Mof_C 	C 	0.0916	0.1983	0.1454	0.242
Mof_C 	C 	0.3222	0.9035	0.5825	-0.13
Mof_H 	H 	0.3184	0.8506	0.5667	0.086
Mof_C 	C 	0.32	0.8782	0.3963	0.076
Mof_H 	H 	0.3145	0.8257	0.38	0.012
Mof_C 	C 	0.9956	0.1433	0.1249	-0.227
Mof_H 	H 	0.0144	0.1038	0.0973	0.123
Mof_O 	O 	0.2197	0.1995	0.1281	-0.183
Mof_C 	C 	0.3208	0.8849	0.4553	-0.127
Mof_H 	H 	0.3169	0.8375	0.4778	0.08
Mof_O 	O 	0.3183	0.2942	0.27446	-0.216
Mof_C 	C 	0.5271	0.2564	0.242	-0.004
Mof_C 	C 	0.4308	0.3173	0.2607	0.285
Mof_C 	C 	0.054	0.928	0.1815	-0.048
Mof_O 	O 	0.8548	0.8916	0.08356	-0.256
Mof_C 	C 	0.0361	0.2138	0.4923	-0.231
Mof_H 	H 	0.9533	0.239	0.4801	0.124
Mof_H 	H 	0.0543	0.2234	0.533	0.118
Mof_H 	H 	0.1054	0.2375	0.4711	0.119
Mof_O 	O 	0.0962	0.866	0.09182	-0.434
Mof_O 	O 	0.0294	0.1287	0.48181	-0.193
Mof_C 	C 	0.1455	0.8893	0.1419	0.336
Mof_C 	C 	0.2624	0.1337	0.0947	-0.233
Mof_H 	H 	0.2103	0.1317	0.0586	0.116
Mof_H 	H 	0.3537	0.1414	0.0872	0.125
Mof_H 	H 	0.2523	0.0828	0.1153	0.125
Mof_O 	O 	0.4252	0.0396	0.23838	-0.275
Mof_H 	H 	0.013	0.868	0.095	0.265
Mof_Cd	Cd	0.68919	0.42098	0.23986	0.435
Mof_Cd	Cd	0.33278	0.50477	0.27087	0.436
Mof_N 	N 	0.3703	0.642	0.28506	-0.145
Mof_N 	N 	0.1153	0.4807	0.27397	-0.147
Mof_C 	C 	0.9938	0.5278	0.183	-0.103
Mof_O 	O 	0.6994	0.643	0.23471	-0.214
Mof_N 	N 	0.3501	0.7793	0.27365	-0.142
Mof_N 	N 	0.6735	0.4431	0.13949	-0.151
Mof_C 	C 	0.0795	0.4428	0.3239	-0.009
Mof_N 	N 	0.67	0.4879	0.8326	-0.15
Mof_O 	O 	0.2975	0.4506	0.3647	-0.24
Mof_C 	C 	0.0026	0.4887	0.2406	0.139
Mof_O 	O 	0.5344	0.8923	0.23982	-0.272
Mof_N 	N 	0.8968	0.4568	0.26611	-0.139
Mof_C 	C 	0.2915	0.709	0.2896	0.137
Mof_C 	C 	0.485	0.6718	0.2653	-0.005
Mof_C 	C 	0.9801	0.6121	0.1769	0.089
Mof_H 	H 	0.9764	0.6448	0.2099	0.023
Mof_O 	O 	0.737	0.3817	0.34217	-0.257
Mof_C 	C 	0.5935	0.6145	0.2534	0.284
Mof_C 	C 	0.1817	0.4279	0.3708	0.277
Mof_C 	C 	0.6727	0.4722	0.9541	0.062
Mof_C 	C 	0.6724	0.4628	0.0178	0.053
Mof_C 	C 	0.6667	0.518	0.1145	0.075
Mof_H 	H 	0.663	0.5642	0.1383	0.029
Mof_C 	C 	0.9998	0.4799	0.1335	0.092
Mof_H 	H 	0.0086	0.4229	0.137	0.005
Mof_C 	C 	0.9785	0.6005	0.0739	0.235
Mof_C 	C 	0.6674	0.5534	0.8673	0.084
Mof_H 	H 	0.6653	0.6055	0.8503	0.016
Mof_C 	C 	0.6648	0.5302	0.0555	-0.12
Mof_H 	H 	0.6585	0.5835	0.0405	0.081
Mof_C 	C 	0.1598	0.7057	0.3132	-0.11
Mof_C 	C 	0.0596	0.7609	0.2935	0.089
Mof_H 	H 	0.0773	0.8005	0.2658	0.004
Mof_C 	C 	0.9358	0.7567	0.3146	-0.222
Mof_H 	H 	0.8706	0.7939	0.3016	0.139
Mof_C 	C 	0.993	0.5155	0.0792	-0.217
Mof_H 	H 	0.998	0.4828	0.0463	0.131
Mof_C 	C 	0.9715	0.6495	0.1227	-0.215
Mof_H 	H 	0.9613	0.7064	0.1193	0.124
Mof_C 	C 	0.6675	0.5487	0.9268	-0.131
Mof_H 	H 	0.6641	0.5968	0.9487	0.084
Mof_C 	C 	0.1291	0.648	0.3539	0.091
Mof_H 	H 	0.194	0.6111	0.3676	0.013
Mof_C 	C 	0.6774	0.4135	0.8586	0.081
Mof_H 	H 	0.6824	0.3666	0.8355	0.016
Mof_C 	C 	0.9084	0.6983	0.3546	0.241
Mof_C 	C 	0.6778	0.4035	0.9175	-0.13
Mof_H 	H 	0.6816	0.3506	0.9333	0.086
Mof_C 	C 	0.68	0.3782	0.1037	0.076
Mof_H 	H 	0.6855	0.3257	0.12	0.012
Mof_C 	C 	0.0044	0.6433	0.3751	-0.227
Mof_H 	H 	0.9856	0.6038	0.4027	0.123
Mof_O 	O 	0.7803	0.6995	0.3719	-0.183
Mof_C 	C 	0.6792	0.3849	0.0447	-0.127
Mof_H 	H 	0.6831	0.3375	0.0222	0.081
Mof_O 	O 	0.6817	0.7942	0.22554	-0.216
Mof_C 	C 	0.4729	0.7564	0.258	-0.004
Mof_C 	C 	0.5692	0.8173	0.2393	0.285
Mof_C 	C 	0.946	0.428	0.3185	-0.045
Mof_O 	O 	0.1452	0.3916	0.41644	-0.257
Mof_C 	C 	0.9639	0.7138	0.0077	-0.215
Mof_H 	H 	0.0467	0.739	0.0199	0.118
Mof_H 	H 	0.9457	0.7234	0.967	0.112
Mof_H 	H 	0.8946	0.7375	0.0289	0.114
Mof_O 	O 	0.9038	0.366	0.40818	-0.434
Mof_O 	O 	0.9706	0.6287	0.01819	-0.199
Mof_C 	C 	0.8545	0.3893	0.3581	0.335
Mof_C 	C 	0.7376	0.6337	0.4053	-0.234
Mof_H 	H 	0.7897	0.6317	0.4414	0.116
Mof_H 	H 	0.6463	0.6414	0.4128	0.125
Mof_H 	H 	0.7477	0.5828	0.3847	0.125
Mof_O 	O 	0.5748	0.5396	0.26162	-0.275
Mof_H 	H 	0.987	0.368	0.405	0.266
_end
