data_functionalizedCrystal
_audit_creation_method	'EQeq! by Chris Wilmer'
_symmetry_space_group_name_H-M	'P1'
_symmetry_Int_Tables_number	1
_symmetry_cell_setting	triclinic
loop_
_symmetry_equiv_pos_as_xyz
  x,y,z
_cell_length_a	11.97
_cell_length_b	16.341
_cell_length_c	16.436
_cell_angle_alpha	107.913
_cell_angle_beta	103.4
_cell_angle_gamma	100.533
loop_
_atom_site_label
_atom_site_type_symbol
_atom_site_fract_x
_atom_site_fract_y
_atom_site_fract_z
_atom_site_charge
Mof_Cd	Cd	0.19441	0.88805	0.39255	0.607
Mof_N 	N 	0.06706	0.14812	0.47181	-0.212
Mof_C 	C 	0.46137	0.34234	0.05829	-0.045
Mof_O 	O 	0.48813	0.87959	0.4105	-0.302
Mof_C 	C 	0.41457	0.41898	0.10263	0.124
Mof_H 	H 	0.31922	0.40889	0.08763	0.001
Mof_O 	O 	0.29308	0.813	0.34809	-0.308
Mof_O 	O 	0.67932	0.41267	0.13734	-0.21
Mof_O 	O 	0.03195	0.82515	0.29475	-0.284
Mof_O 	O 	0.09287	0.77594	0.39778	-0.279
Mof_C 	C 	0.42126	0.72934	0.30241	-0.124
Mof_O 	O 	0.41758	0.2102	0.9242	-0.213
Mof_C 	C 	0.32444	0.65832	0.23768	0.059
Mof_H 	H 	0.23388	0.66432	0.2247	0.032
Mof_O 	O 	0.33362	0.94217	0.51098	-0.295
Mof_C 	C 	0.34273	0.57781	0.18878	-0.135
Mof_H 	H 	0.26565	0.52619	0.1394	0.067
Mof_O 	O 	0.16295	0.97265	0.49922	-0.31
Mof_C 	C 	0.4005	0.81263	0.3564	0.351
Mof_O 	O 	0.35543	0.23805	0.1165	-0.212
Mof_C 	C 	0.58766	0.38309	0.05192	0.048
Mof_H 	H 	0.61244	0.33171	0.00262	0.041
Mof_H 	H 	0.58162	0.43759	0.02551	0.029
Mof_O 	O 	0.22476	0.97264	0.32752	-0.315
Mof_C 	C 	0.75485	0.50143	0.179	0.169
Mof_O 	O 	0.41867	0.03877	0.40214	-0.286
Mof_C 	C 	0.78782	0.55692	0.13253	-0.118
Mof_H 	H 	0.7568	0.53307	0.05993	0.062
Mof_C 	C 	0.86763	0.64327	0.17992	0.034
Mof_H 	H 	0.89357	0.68327	0.14224	0.029
Mof_C 	C 	0.91864	0.67543	0.27426	-0.096
Mof_C 	C 	0.88707	0.61884	0.31952	0.036
Mof_H 	H 	0.92543	0.64019	0.39157	0.031
Mof_C 	C 	0.80708	0.53333	0.27245	-0.116
Mof_H 	H 	0.7853	0.49096	0.30908	0.074
Mof_C 	C 	0.01536	0.76189	0.3241	0.285
Mof_C 	C 	0.37539	0.28535	0.96158	0.044
Mof_H 	H 	0.37346	0.32716	0.91938	0.025
Mof_H 	H 	0.28316	0.26131	0.96342	0.037
Mof_C 	C 	0.37268	0.15863	0.83158	0.165
Mof_C 	C 	0.44139	0.10516	0.79654	-0.111
Mof_H 	H 	0.52475	0.10566	0.84004	0.08
Mof_C 	C 	0.40454	0.05105	0.70603	0.038
Mof_H 	H 	0.45976	0.01113	0.68228	0.052
Mof_C 	C 	0.29817	0.04835	0.64703	-0.077
Mof_C 	C 	0.22645	0.1008	0.68192	0.033
Mof_H 	H 	0.14161	0.0984	0.63876	0.041
Mof_C 	C 	0.26318	0.15546	0.77373	-0.115
Mof_H 	H 	0.20533	0.19315	0.7993	0.074
Mof_C 	C 	0.26211	0.98904	0.55072	0.268
Mof_C 	C 	0.47103	0.28315	0.11684	0.049
Mof_H 	H 	0.5178	0.23267	0.09098	0.044
Mof_H 	H 	0.52512	0.32689	0.18701	0.042
Mof_C 	C 	0.35039	0.1858	0.17124	0.165
Mof_C 	C 	0.23771	0.14115	0.17089	-0.115
Mof_H 	H 	0.15749	0.14603	0.12771	0.074
Mof_C 	C 	0.22731	0.09009	0.22552	0.048
Mof_H 	H 	0.13879	0.05674	0.22303	0.033
Mof_C 	C 	0.32992	0.08341	0.28295	-0.111
Mof_C 	C 	0.44212	0.12872	0.28339	0.049
Mof_H 	H 	0.52308	0.12629	0.3267	0.037
Mof_C 	C 	0.45264	0.17731	0.22758	-0.12
Mof_H 	H 	0.54184	0.20797	0.22977	0.068
Mof_C 	C 	0.32329	0.02909	0.34128	0.347
Mof_C 	C 	0.01008	0.12352	0.37557	-0.088
Mof_O 	O 	0.49096	0.49066	0.15933	-0.246
Mof_C 	C 	0.45908	0.56668	0.20478	0.182
Mof_C 	C 	0.53598	0.71792	0.31724	0.06
Mof_H 	H 	0.61154	0.77048	0.36717	0.027
Mof_C 	C 	0.55404	0.63778	0.26897	-0.131
Mof_H 	H 	0.64356	0.6308	0.28191	0.078
Mof_Cd	Cd	0.80594	0.11109	0.60924	0.608
Mof_N 	N 	0.91033	0.8491	0.52921	-0.212
Mof_C 	C 	0.53878	0.65747	0.94217	-0.044
Mof_O 	O 	0.50954	0.12169	0.58756	-0.289
Mof_C 	C 	0.58533	0.58064	0.89753	0.125
Mof_H 	H 	0.68061	0.59053	0.91238	0.002
Mof_O 	O 	0.70459	0.18323	0.65618	-0.3
Mof_O 	O 	0.3209	0.58712	0.86308	-0.212
Mof_O 	O 	0.9729	0.1724	0.70212	-0.277
Mof_O 	O 	0.89762	0.22859	0.609	-0.281
Mof_C 	C 	0.57765	0.2702	0.69825	-0.121
Mof_O 	O 	0.58272	0.78976	0.07652	-0.217
Mof_C 	C 	0.6746	0.34111	0.76248	0.06
Mof_H 	H 	0.76472	0.33425	0.77495	0.035
Mof_O 	O 	0.66878	0.05786	0.49007	-0.289
Mof_C 	C 	0.65664	0.42178	0.81092	-0.135
Mof_H 	H 	0.73393	0.47311	0.85978	0.069
Mof_O 	O 	0.83813	0.02387	0.50314	-0.298
Mof_C 	C 	0.59736	0.18658	0.64448	0.347
Mof_O 	O 	0.64411	0.76133	0.88338	-0.214
Mof_C 	C 	0.41248	0.61679	0.94855	0.048
Mof_H 	H 	0.38779	0.66838	0.99768	0.04
Mof_H 	H 	0.41853	0.5624	0.97511	0.03
Mof_O 	O 	0.77629	0.02926	0.67653	-0.269
Mof_C 	C 	0.24487	0.49853	0.8216	0.17
Mof_O 	O 	0.58332	0.96038	0.60012	-0.294
Mof_C 	C 	0.21198	0.44319	0.86824	-0.122
Mof_H 	H 	0.2437	0.46696	0.94083	0.063
Mof_C 	C 	0.13139	0.35713	0.82101	0.038
Mof_H 	H 	0.10559	0.31715	0.85877	0.026
Mof_C 	C 	0.07927	0.32535	0.72685	-0.11
Mof_C 	C 	0.11092	0.38166	0.68137	0.04
Mof_H 	H 	0.07218	0.36017	0.60936	0.026
Mof_C 	C 	0.19205	0.46675	0.72821	-0.119
Mof_H 	H 	0.21425	0.50885	0.69146	0.073
Mof_C 	C 	0.98208	0.23927	0.67757	0.298
Mof_C 	C 	0.62501	0.71461	0.03884	0.041
Mof_H 	H 	0.71699	0.73888	0.03679	0.035
Mof_H 	H 	0.62741	0.67289	0.08108	0.025
Mof_C 	C 	0.62885	0.84181	0.16902	0.17
Mof_C 	C 	0.5608	0.89558	0.20462	-0.126
Mof_H 	H 	0.47687	0.89504	0.16156	0.074
Mof_C 	C 	0.59823	0.94938	0.29528	0.053
Mof_H 	H 	0.54302	0.98912	0.31935	0.03
Mof_C 	C 	0.70428	0.95106	0.35417	-0.127
Mof_C 	C 	0.77651	0.89999	0.31833	0.048
Mof_H 	H 	0.86161	0.90257	0.3612	0.03
Mof_C 	C 	0.73899	0.84528	0.22638	-0.128
Mof_H 	H 	0.79644	0.80743	0.20068	0.076
Mof_C 	C 	0.73961	0.0094	0.45095	0.312
Mof_C 	C 	0.52881	0.71649	0.88348	0.05
Mof_H 	H 	0.47442	0.67267	0.81342	0.042
Mof_H 	H 	0.4823	0.76706	0.90952	0.041
Mof_C 	C 	0.64911	0.81407	0.82927	0.164
Mof_C 	C 	0.76183	0.8596	0.83116	-0.118
Mof_H 	H 	0.8416	0.85444	0.87384	0.072
Mof_C 	C 	0.77305	0.91211	0.77848	0.04
Mof_H 	H 	0.86106	0.94792	0.78323	0.027
Mof_C 	C 	0.67109	0.9173	0.71961	-0.105
Mof_C 	C 	0.55813	0.87141	0.71738	0.042
Mof_H 	H 	0.47709	0.87356	0.67311	0.033
Mof_C 	C 	0.54699	0.82231	0.77258	-0.122
Mof_H 	H 	0.45794	0.79072	0.7695	0.066
Mof_C 	C 	0.67877	0.97171	0.66205	0.293
Mof_C 	C 	0.98955	0.87614	0.62079	-0.064
Mof_O 	O 	0.50884	0.50919	0.84054	-0.246
Mof_C 	C 	0.54034	0.43307	0.79502	0.182
Mof_C 	C 	0.46299	0.28194	0.68278	0.059
Mof_H 	H 	0.38708	0.22942	0.63291	0.029
Mof_C 	C 	0.44514	0.36219	0.73073	-0.13
Mof_H 	H 	0.35551	0.36925	0.71749	0.078
Mof_Cd	Cd	0.50022	0.99957	0.50054	0.588
Mof_H 	H 	0.10082	0.09694	0.48292	0.111
Mof_H 	H 	0.00455	0.15782	0.50603	0.102
Mof_H 	H 	0.00796	0.05347	0.33787	0.066
Mof_H 	H 	0.06028	0.16876	0.34977	0.051
Mof_H 	H 	0.91666	0.12878	0.36251	0.063
Mof_H 	H 	0.95629	0.87386	0.49118	0.106
Mof_H 	H 	0.8363	0.8744	0.5302	0.095
Mof_H 	H 	0.06474	0.93525	0.63621	0.049
Mof_H 	H 	0.02674	0.82069	0.62941	0.043
Mof_H 	H 	0.93988	0.89421	0.66973	0.048
Mof_H 	H 	0.88056	0.77934	0.4996	0.087
Mof_H 	H 	0.13728	0.20663	0.49726	0.085
_end
