data_functionalizedCrystal
_audit_creation_method	'EQeq! by Chris Wilmer'
_symmetry_space_group_name_H-M	'P1'
_symmetry_Int_Tables_number	1
_symmetry_cell_setting	triclinic
loop_
_symmetry_equiv_pos_as_xyz
  x,y,z
_cell_length_a	34.638
_cell_length_b	34.638
_cell_length_c	8.3954
_cell_angle_alpha	90
_cell_angle_beta	90
_cell_angle_gamma	120
loop_
_atom_site_label
_atom_site_type_symbol
_atom_site_fract_x
_atom_site_fract_y
_atom_site_fract_z
_atom_site_charge
Mof_Ag	Ag	0.85684	0.68245	0.4903	0.448
Mof_O 	O 	0.6645	0.6646	0.2858	-0.216
Mof_N 	N 	0.7965	0.6614	0.345	-0.196
Mof_N 	N 	0.7218	0.7991	0.398	-0.197
Mof_C 	C 	0.7827	0.6261	0.249	0.055
Mof_H 	H 	0.8002	0.612	0.2417	-0.019
Mof_C 	C 	0.7441	0.6094	0.1597	-0.125
Mof_H 	H 	0.7355	0.5846	0.0915	0.051
Mof_C 	C 	0.7183	0.629	0.1704	0.019
Mof_H 	H 	0.6912	0.6175	0.1129	0.039
Mof_C 	C 	0.7328	0.6662	0.2674	-0.074
Mof_C 	C 	0.772	0.6812	0.3509	0.049
Mof_H 	H 	0.7821	0.7069	0.416	-0.005
Mof_C 	C 	0.7047	0.6875	0.2863	0.181
Mof_C 	C 	0.7267	0.7367	0.2989	-0.074
Mof_C 	C 	0.7657	0.7651	0.2187	0.02
Mof_H 	H 	0.7814	0.7539	0.1595	0.015
Mof_C 	C 	0.781	0.8102	0.2274	-0.116
Mof_H 	H 	0.8067	0.8304	0.1685	0.056
Mof_C 	C 	0.7597	0.8262	0.3199	0.06
Mof_H 	H 	0.772	0.8575	0.3292	-0.021
Mof_C 	C 	0.7059	0.7557	0.3866	0.055
Mof_H 	H 	0.679	0.7363	0.4408	0.016
Mof_Ag	Ag	0.31755	0.17439	0.4903	0.448
Mof_O 	O 	0.3354	0.9999	0.2858	-0.216
Mof_N 	N 	0.3386	0.1351	0.345	-0.196
Mof_N 	N 	0.2009	0.9227	0.398	-0.197
Mof_C 	C 	0.3739	0.1566	0.249	0.055
Mof_H 	H 	0.388	0.1882	0.2417	-0.02
Mof_C 	C 	0.3906	0.1347	0.1597	-0.126
Mof_H 	H 	0.4154	0.1509	0.0915	0.05
Mof_C 	C 	0.371	0.0893	0.1704	0.018
Mof_H 	H 	0.3825	0.0737	0.1129	0.038
Mof_C 	C 	0.3338	0.0666	0.2674	-0.075
Mof_C 	C 	0.3188	0.0908	0.3509	0.049
Mof_H 	H 	0.2931	0.0752	0.416	-0.006
Mof_C 	C 	0.3125	0.0172	0.2863	0.18
Mof_C 	C 	0.2633	0.99	0.2989	-0.075
Mof_C 	C 	0.2349	0.0006	0.2187	0.019
Mof_H 	H 	0.2461	0.0275	0.1595	0.014
Mof_C 	C 	0.1898	0.9708	0.2274	-0.117
Mof_H 	H 	0.1696	0.9763	0.1685	0.055
Mof_C 	C 	0.1738	0.9335	0.3199	0.059
Mof_H 	H 	0.1425	0.9145	0.3292	-0.022
Mof_C 	C 	0.2443	0.9502	0.3866	0.054
Mof_H 	H 	0.2637	0.9427	0.4408	0.015
Mof_Ag	Ag	0.82561	0.14316	0.4903	0.447
Mof_O 	O 	0.0001	0.3355	0.2858	-0.217
Mof_N 	N 	0.8649	0.2035	0.345	-0.197
Mof_N 	N 	0.0773	0.2782	0.398	-0.198
Mof_C 	C 	0.8434	0.2173	0.249	0.054
Mof_H 	H 	0.8118	0.1998	0.2417	-0.02
Mof_C 	C 	0.8653	0.2559	0.1597	-0.126
Mof_H 	H 	0.8491	0.2645	0.0915	0.05
Mof_C 	C 	0.9107	0.2817	0.1704	0.018
Mof_H 	H 	0.9263	0.3088	0.1129	0.038
Mof_C 	C 	0.9334	0.2672	0.2674	-0.075
Mof_C 	C 	0.9092	0.228	0.3509	0.048
Mof_H 	H 	0.9248	0.2179	0.416	-0.006
Mof_C 	C 	0.9828	0.2953	0.2863	0.18
Mof_C 	C 	0.01	0.2733	0.2989	-0.075
Mof_C 	C 	0.9994	0.2343	0.2187	0.019
Mof_H 	H 	0.9725	0.2186	0.1595	0.014
Mof_C 	C 	0.0292	0.219	0.2274	-0.117
Mof_H 	H 	0.0237	0.1933	0.1685	0.055
Mof_C 	C 	0.0665	0.2403	0.3199	0.059
Mof_H 	H 	0.0855	0.228	0.3292	-0.022
Mof_C 	C 	0.0498	0.2941	0.3866	0.053
Mof_H 	H 	0.0573	0.321	0.4408	0.016
Mof_Ag	Ag	0.14316	0.31755	0.5097	0.447
Mof_O 	O 	0.3355	0.3354	0.7142	-0.217
Mof_N 	N 	0.2035	0.3386	0.655	-0.197
Mof_N 	N 	0.2782	0.2009	0.602	-0.198
Mof_C 	C 	0.2173	0.3739	0.751	0.054
Mof_H 	H 	0.1998	0.388	0.7583	-0.02
Mof_C 	C 	0.2559	0.3906	0.8403	-0.126
Mof_H 	H 	0.2645	0.4154	0.9085	0.05
Mof_C 	C 	0.2817	0.371	0.8296	0.018
Mof_H 	H 	0.3088	0.3825	0.8871	0.038
Mof_C 	C 	0.2672	0.3338	0.7326	-0.075
Mof_C 	C 	0.228	0.3188	0.6491	0.048
Mof_H 	H 	0.2179	0.2931	0.584	-0.006
Mof_C 	C 	0.2953	0.3125	0.7137	0.18
Mof_C 	C 	0.2733	0.2633	0.7011	-0.075
Mof_C 	C 	0.2343	0.2349	0.7813	0.019
Mof_H 	H 	0.2186	0.2461	0.8405	0.014
Mof_C 	C 	0.219	0.1898	0.7726	-0.117
Mof_H 	H 	0.1933	0.1696	0.8315	0.055
Mof_C 	C 	0.2403	0.1738	0.6801	0.059
Mof_H 	H 	0.228	0.1425	0.6708	-0.022
Mof_C 	C 	0.2941	0.2443	0.6134	0.054
Mof_H 	H 	0.321	0.2637	0.5592	0.015
Mof_Ag	Ag	0.68245	0.82561	0.5097	0.447
Mof_O 	O 	0.6646	0.0001	0.7142	-0.217
Mof_N 	N 	0.6614	0.8649	0.655	-0.197
Mof_N 	N 	0.7991	0.0773	0.602	-0.198
Mof_C 	C 	0.6261	0.8434	0.751	0.054
Mof_H 	H 	0.612	0.8118	0.7583	-0.02
Mof_C 	C 	0.6094	0.8653	0.8403	-0.126
Mof_H 	H 	0.5846	0.8491	0.9085	0.05
Mof_C 	C 	0.629	0.9107	0.8296	0.018
Mof_H 	H 	0.6175	0.9263	0.8871	0.038
Mof_C 	C 	0.6662	0.9334	0.7326	-0.075
Mof_C 	C 	0.6812	0.9092	0.6491	0.049
Mof_H 	H 	0.7069	0.9248	0.584	-0.006
Mof_C 	C 	0.6875	0.9828	0.7137	0.18
Mof_C 	C 	0.7367	0.01	0.7011	-0.075
Mof_C 	C 	0.7651	0.9994	0.7813	0.019
Mof_H 	H 	0.7539	0.9725	0.8405	0.014
Mof_C 	C 	0.8102	0.0292	0.7726	-0.117
Mof_H 	H 	0.8304	0.0237	0.8315	0.055
Mof_C 	C 	0.8262	0.0665	0.6801	0.059
Mof_H 	H 	0.8575	0.0855	0.6708	-0.022
Mof_C 	C 	0.7557	0.0498	0.6134	0.054
Mof_H 	H 	0.7363	0.0573	0.5592	0.015
Mof_Ag	Ag	0.17439	0.85684	0.5097	0.447
Mof_O 	O 	0.9999	0.6645	0.7142	-0.217
Mof_N 	N 	0.1351	0.7965	0.655	-0.197
Mof_N 	N 	0.9227	0.7218	0.602	-0.198
Mof_C 	C 	0.1566	0.7827	0.751	0.054
Mof_H 	H 	0.1882	0.8002	0.7583	-0.02
Mof_C 	C 	0.1347	0.7441	0.8403	-0.126
Mof_H 	H 	0.1509	0.7355	0.9085	0.05
Mof_C 	C 	0.0893	0.7183	0.8296	0.018
Mof_H 	H 	0.0737	0.6912	0.8871	0.038
Mof_C 	C 	0.0666	0.7328	0.7326	-0.075
Mof_C 	C 	0.0908	0.772	0.6491	0.048
Mof_H 	H 	0.0752	0.7821	0.584	-0.006
Mof_C 	C 	0.0172	0.7047	0.7137	0.18
Mof_C 	C 	0.99	0.7267	0.7011	-0.075
Mof_C 	C 	0.0006	0.7657	0.7813	0.019
Mof_H 	H 	0.0275	0.7814	0.8405	0.014
Mof_C 	C 	0.9708	0.781	0.7726	-0.117
Mof_H 	H 	0.9763	0.8067	0.8315	0.055
Mof_C 	C 	0.9335	0.7597	0.6801	0.059
Mof_H 	H 	0.9145	0.772	0.6708	-0.022
Mof_C 	C 	0.9502	0.7059	0.6134	0.053
Mof_H 	H 	0.9427	0.679	0.5592	0.016
Mof_Ag	Ag	0.52351	0.01578	0.82363	0.447
Mof_O 	O 	0.33117	0.99793	0.61913	-0.217
Mof_N 	N 	0.46317	0.99473	0.67833	-0.197
Mof_N 	N 	0.38847	0.13243	0.73133	-0.198
Mof_C 	C 	0.44937	0.95943	0.58233	0.054
Mof_H 	H 	0.46687	0.94533	0.57503	-0.02
Mof_C 	C 	0.41077	0.94273	0.49303	-0.126
Mof_H 	H 	0.40217	0.91793	0.42483	0.05
Mof_C 	C 	0.38497	0.96233	0.50373	0.018
Mof_H 	H 	0.35787	0.95083	0.44623	0.038
Mof_C 	C 	0.39947	0.99953	0.60073	-0.075
Mof_C 	C 	0.43867	0.01453	0.68423	0.049
Mof_H 	H 	0.44877	0.04023	0.74933	-0.007
Mof_C 	C 	0.37137	0.02083	0.61963	0.18
Mof_C 	C 	0.39337	0.07003	0.63223	-0.075
Mof_C 	C 	0.43237	0.09843	0.55203	0.019
Mof_H 	H 	0.44807	0.08723	0.49283	0.014
Mof_C 	C 	0.44767	0.14353	0.56073	-0.117
Mof_H 	H 	0.47337	0.16373	0.50183	0.055
Mof_C 	C 	0.42637	0.15953	0.65323	0.059
Mof_H 	H 	0.43867	0.19083	0.66253	-0.022
Mof_C 	C 	0.37257	0.08903	0.71993	0.054
Mof_H 	H 	0.34567	0.06963	0.77413	0.015
Mof_Ag	Ag	0.98422	0.50772	0.82363	0.447
Mof_O 	O 	0.00207	0.33323	0.61913	-0.217
Mof_N 	N 	0.00527	0.46843	0.67833	-0.197
Mof_N 	N 	0.86757	0.25603	0.73133	-0.198
Mof_C 	C 	0.04057	0.48993	0.58233	0.054
Mof_H 	H 	0.05467	0.52153	0.57503	-0.02
Mof_C 	C 	0.05727	0.46803	0.49303	-0.126
Mof_H 	H 	0.08207	0.48423	0.42483	0.05
Mof_C 	C 	0.03767	0.42263	0.50373	0.018
Mof_H 	H 	0.04917	0.40703	0.44623	0.038
Mof_C 	C 	0.00047	0.39993	0.60073	-0.075
Mof_C 	C 	0.98547	0.42413	0.68423	0.048
Mof_H 	H 	0.95977	0.40853	0.74933	-0.006
Mof_C 	C 	0.97917	0.35053	0.61963	0.18
Mof_C 	C 	0.92997	0.32333	0.63223	-0.075
Mof_C 	C 	0.90157	0.33393	0.55203	0.019
Mof_H 	H 	0.91277	0.36083	0.49283	0.014
Mof_C 	C 	0.85647	0.30413	0.56073	-0.117
Mof_H 	H 	0.83627	0.30963	0.50183	0.055
Mof_C 	C 	0.84047	0.26683	0.65323	0.059
Mof_H 	H 	0.80917	0.24783	0.66253	-0.022
Mof_C 	C 	0.91097	0.28353	0.71993	0.054
Mof_H 	H 	0.93037	0.27603	0.77413	0.015
Mof_Ag	Ag	0.49228	0.47649	0.82363	0.447
Mof_O 	O 	0.66677	0.66883	0.61913	-0.217
Mof_N 	N 	0.53157	0.53683	0.67833	-0.197
Mof_N 	N 	0.74397	0.61153	0.73133	-0.198
Mof_C 	C 	0.51007	0.55063	0.58233	0.054
Mof_H 	H 	0.47847	0.53313	0.57503	-0.02
Mof_C 	C 	0.53197	0.58923	0.49303	-0.126
Mof_H 	H 	0.51577	0.59783	0.42483	0.05
Mof_C 	C 	0.57737	0.61503	0.50373	0.018
Mof_H 	H 	0.59297	0.64213	0.44623	0.038
Mof_C 	C 	0.60007	0.60053	0.60073	-0.075
Mof_C 	C 	0.57587	0.56133	0.68423	0.048
Mof_H 	H 	0.59147	0.55123	0.74933	-0.006
Mof_C 	C 	0.64947	0.62863	0.61963	0.18
Mof_C 	C 	0.67667	0.60663	0.63223	-0.075
Mof_C 	C 	0.66607	0.56763	0.55203	0.019
Mof_H 	H 	0.63917	0.55193	0.49283	0.014
Mof_C 	C 	0.69587	0.55233	0.56073	-0.117
Mof_H 	H 	0.69037	0.52663	0.50183	0.055
Mof_C 	C 	0.73317	0.57363	0.65323	0.059
Mof_H 	H 	0.75217	0.56133	0.66253	-0.022
Mof_C 	C 	0.71647	0.62743	0.71993	0.054
Mof_H 	H 	0.72397	0.65433	0.77413	0.015
Mof_Ag	Ag	0.80983	0.65088	0.84303	0.447
Mof_O 	O 	0.00217	0.66873	0.04753	-0.217
Mof_N 	N 	0.87017	0.67193	0.98833	-0.197
Mof_N 	N 	0.94487	0.53423	0.93533	-0.198
Mof_C 	C 	0.88397	0.70723	0.08433	0.054
Mof_H 	H 	0.86647	0.72133	0.09163	-0.02
Mof_C 	C 	0.92257	0.72393	0.17363	-0.126
Mof_H 	H 	0.93117	0.74873	0.24183	0.05
Mof_C 	C 	0.94837	0.70433	0.16293	0.018
Mof_H 	H 	0.97547	0.71583	0.22043	0.038
Mof_C 	C 	0.93387	0.66713	0.06593	-0.075
Mof_C 	C 	0.89467	0.65213	0.98243	0.048
Mof_H 	H 	0.88457	0.62643	0.91733	-0.006
Mof_C 	C 	0.96197	0.64583	0.04703	0.18
Mof_C 	C 	0.93997	0.59663	0.03443	-0.075
Mof_C 	C 	0.90097	0.56823	0.11463	0.019
Mof_H 	H 	0.88527	0.57943	0.17383	0.014
Mof_C 	C 	0.88567	0.52313	0.10593	-0.117
Mof_H 	H 	0.85997	0.50293	0.16483	0.055
Mof_C 	C 	0.90697	0.50713	0.01343	0.06
Mof_H 	H 	0.89467	0.47583	0.00413	-0.022
Mof_C 	C 	0.96077	0.57763	0.94673	0.053
Mof_H 	H 	0.98767	0.59703	0.89253	0.016
Mof_Ag	Ag	0.34912	0.15894	0.84303	0.447
Mof_O 	O 	0.33127	0.33343	0.04753	-0.217
Mof_N 	N 	0.32807	0.19823	0.98833	-0.197
Mof_N 	N 	0.46577	0.41063	0.93533	-0.198
Mof_C 	C 	0.29277	0.17673	0.08433	0.054
Mof_H 	H 	0.27867	0.14513	0.09163	-0.02
Mof_C 	C 	0.27607	0.19863	0.17363	-0.126
Mof_H 	H 	0.25127	0.18243	0.24183	0.05
Mof_C 	C 	0.29567	0.24403	0.16293	0.018
Mof_H 	H 	0.28417	0.25963	0.22043	0.038
Mof_C 	C 	0.33287	0.26673	0.06593	-0.075
Mof_C 	C 	0.34787	0.24253	0.98243	0.048
Mof_H 	H 	0.37357	0.25813	0.91733	-0.006
Mof_C 	C 	0.35417	0.31613	0.04703	0.18
Mof_C 	C 	0.40337	0.34333	0.03443	-0.075
Mof_C 	C 	0.43177	0.33273	0.11463	0.019
Mof_H 	H 	0.42057	0.30583	0.17383	0.014
Mof_C 	C 	0.47687	0.36253	0.10593	-0.117
Mof_H 	H 	0.49707	0.35703	0.16483	0.055
Mof_C 	C 	0.49287	0.39983	0.01343	0.06
Mof_H 	H 	0.52417	0.41883	0.00413	-0.022
Mof_C 	C 	0.42237	0.38313	0.94673	0.053
Mof_H 	H 	0.40297	0.39063	0.89253	0.016
Mof_Ag	Ag	0.84106	0.19017	0.84303	0.447
Mof_O 	O 	0.66657	0.99783	0.04753	-0.217
Mof_N 	N 	0.80177	0.12983	0.98833	-0.197
Mof_N 	N 	0.58937	0.05513	0.93533	-0.198
Mof_C 	C 	0.82327	0.11603	0.08433	0.054
Mof_H 	H 	0.85487	0.13353	0.09163	-0.02
Mof_C 	C 	0.80137	0.07743	0.17363	-0.126
Mof_H 	H 	0.81757	0.06883	0.24183	0.05
Mof_C 	C 	0.75597	0.05163	0.16293	0.018
Mof_H 	H 	0.74037	0.02453	0.22043	0.038
Mof_C 	C 	0.73327	0.06613	0.06593	-0.075
Mof_C 	C 	0.75747	0.10533	0.98243	0.048
Mof_H 	H 	0.74187	0.11543	0.91733	-0.006
Mof_C 	C 	0.68387	0.03803	0.04703	0.18
Mof_C 	C 	0.65667	0.06003	0.03443	-0.075
Mof_C 	C 	0.66727	0.09903	0.11463	0.019
Mof_H 	H 	0.69417	0.11473	0.17383	0.014
Mof_C 	C 	0.63747	0.11433	0.10593	-0.117
Mof_H 	H 	0.64297	0.14003	0.16483	0.055
Mof_C 	C 	0.60017	0.09303	0.01343	0.06
Mof_H 	H 	0.58117	0.10533	0.00413	-0.022
Mof_C 	C 	0.61687	0.03923	0.94673	0.053
Mof_H 	H 	0.60937	0.01233	0.89253	0.016
Mof_Ag	Ag	0.19017	0.34912	0.15697	0.447
Mof_O 	O 	0.99783	0.33127	0.95247	-0.217
Mof_N 	N 	0.12983	0.32807	0.01167	-0.197
Mof_N 	N 	0.05513	0.46577	0.06467	-0.198
Mof_C 	C 	0.11603	0.29277	0.91567	0.054
Mof_H 	H 	0.13353	0.27867	0.90837	-0.02
Mof_C 	C 	0.07743	0.27607	0.82637	-0.126
Mof_H 	H 	0.06883	0.25127	0.75817	0.05
Mof_C 	C 	0.05163	0.29567	0.83707	0.018
Mof_H 	H 	0.02453	0.28417	0.77957	0.038
Mof_C 	C 	0.06613	0.33287	0.93407	-0.075
Mof_C 	C 	0.10533	0.34787	0.01757	0.048
Mof_H 	H 	0.11543	0.37357	0.08267	-0.006
Mof_C 	C 	0.03803	0.35417	0.95297	0.18
Mof_C 	C 	0.06003	0.40337	0.96557	-0.075
Mof_C 	C 	0.09903	0.43177	0.88537	0.019
Mof_H 	H 	0.11473	0.42057	0.82617	0.014
Mof_C 	C 	0.11433	0.47687	0.89407	-0.117
Mof_H 	H 	0.14003	0.49707	0.83517	0.055
Mof_C 	C 	0.09303	0.49287	0.98657	0.06
Mof_H 	H 	0.10533	0.52417	0.99587	-0.022
Mof_C 	C 	0.03923	0.42237	0.05327	0.053
Mof_H 	H 	0.01233	0.40297	0.10747	0.016
Mof_Ag	Ag	0.65088	0.84106	0.15697	0.447
Mof_O 	O 	0.66873	0.66657	0.95247	-0.217
Mof_N 	N 	0.67193	0.80177	0.01167	-0.197
Mof_N 	N 	0.53423	0.58937	0.06467	-0.198
Mof_C 	C 	0.70723	0.82327	0.91567	0.054
Mof_H 	H 	0.72133	0.85487	0.90837	-0.02
Mof_C 	C 	0.72393	0.80137	0.82637	-0.126
Mof_H 	H 	0.74873	0.81757	0.75817	0.05
Mof_C 	C 	0.70433	0.75597	0.83707	0.018
Mof_H 	H 	0.71583	0.74037	0.77957	0.038
Mof_C 	C 	0.66713	0.73327	0.93407	-0.075
Mof_C 	C 	0.65213	0.75747	0.01757	0.048
Mof_H 	H 	0.62643	0.74187	0.08267	-0.006
Mof_C 	C 	0.64583	0.68387	0.95297	0.18
Mof_C 	C 	0.59663	0.65667	0.96557	-0.075
Mof_C 	C 	0.56823	0.66727	0.88537	0.019
Mof_H 	H 	0.57943	0.69417	0.82617	0.014
Mof_C 	C 	0.52313	0.63747	0.89407	-0.117
Mof_H 	H 	0.50293	0.64297	0.83517	0.055
Mof_C 	C 	0.50713	0.60017	0.98657	0.06
Mof_H 	H 	0.47583	0.58117	0.99587	-0.022
Mof_C 	C 	0.57763	0.61687	0.05327	0.053
Mof_H 	H 	0.59703	0.60937	0.10747	0.016
Mof_Ag	Ag	0.15894	0.80983	0.15697	0.447
Mof_O 	O 	0.33343	0.00217	0.95247	-0.217
Mof_N 	N 	0.19823	0.87017	0.01167	-0.197
Mof_N 	N 	0.41063	0.94487	0.06467	-0.198
Mof_C 	C 	0.17673	0.88397	0.91567	0.054
Mof_H 	H 	0.14513	0.86647	0.90837	-0.02
Mof_C 	C 	0.19863	0.92257	0.82637	-0.126
Mof_H 	H 	0.18243	0.93117	0.75817	0.05
Mof_C 	C 	0.24403	0.94837	0.83707	0.018
Mof_H 	H 	0.25963	0.97547	0.77957	0.038
Mof_C 	C 	0.26673	0.93387	0.93407	-0.075
Mof_C 	C 	0.24253	0.89467	0.01757	0.048
Mof_H 	H 	0.25813	0.88457	0.08267	-0.006
Mof_C 	C 	0.31613	0.96197	0.95297	0.18
Mof_C 	C 	0.34333	0.93997	0.96557	-0.075
Mof_C 	C 	0.33273	0.90097	0.88537	0.019
Mof_H 	H 	0.30583	0.88527	0.82617	0.014
Mof_C 	C 	0.36253	0.88567	0.89407	-0.117
Mof_H 	H 	0.35703	0.85997	0.83517	0.055
Mof_C 	C 	0.39983	0.90697	0.98657	0.06
Mof_H 	H 	0.41883	0.89467	0.99587	-0.022
Mof_C 	C 	0.38313	0.96077	0.05327	0.053
Mof_H 	H 	0.39063	0.98767	0.10747	0.016
Mof_Ag	Ag	0.47649	0.98422	0.17637	0.447
Mof_O 	O 	0.66883	0.00207	0.38087	-0.217
Mof_N 	N 	0.53683	0.00527	0.32167	-0.197
Mof_N 	N 	0.61153	0.86757	0.26867	-0.198
Mof_C 	C 	0.55063	0.04057	0.41767	0.054
Mof_H 	H 	0.53313	0.05467	0.42497	-0.02
Mof_C 	C 	0.58923	0.05727	0.50697	-0.126
Mof_H 	H 	0.59783	0.08207	0.57517	0.05
Mof_C 	C 	0.61503	0.03767	0.49627	0.018
Mof_H 	H 	0.64213	0.04917	0.55377	0.038
Mof_C 	C 	0.60053	0.00047	0.39927	-0.075
Mof_C 	C 	0.56133	0.98547	0.31577	0.049
Mof_H 	H 	0.55123	0.95977	0.25067	-0.007
Mof_C 	C 	0.62863	0.97917	0.38037	0.18
Mof_C 	C 	0.60663	0.92997	0.36777	-0.075
Mof_C 	C 	0.56763	0.90157	0.44797	0.019
Mof_H 	H 	0.55193	0.91277	0.50717	0.014
Mof_C 	C 	0.55233	0.85647	0.43927	-0.117
Mof_H 	H 	0.52663	0.83627	0.49817	0.055
Mof_C 	C 	0.57363	0.84047	0.34677	0.059
Mof_H 	H 	0.56133	0.80917	0.33747	-0.022
Mof_C 	C 	0.62743	0.91097	0.28007	0.054
Mof_H 	H 	0.65433	0.93037	0.22587	0.015
Mof_Ag	Ag	0.01578	0.49228	0.17637	0.447
Mof_O 	O 	0.99793	0.66677	0.38087	-0.217
Mof_N 	N 	0.99473	0.53157	0.32167	-0.197
Mof_N 	N 	0.13243	0.74397	0.26867	-0.198
Mof_C 	C 	0.95943	0.51007	0.41767	0.054
Mof_H 	H 	0.94533	0.47847	0.42497	-0.02
Mof_C 	C 	0.94273	0.53197	0.50697	-0.126
Mof_H 	H 	0.91793	0.51577	0.57517	0.05
Mof_C 	C 	0.96233	0.57737	0.49627	0.018
Mof_H 	H 	0.95083	0.59297	0.55377	0.038
Mof_C 	C 	0.99953	0.60007	0.39927	-0.075
Mof_C 	C 	0.01453	0.57587	0.31577	0.048
Mof_H 	H 	0.04023	0.59147	0.25067	-0.006
Mof_C 	C 	0.02083	0.64947	0.38037	0.18
Mof_C 	C 	0.07003	0.67667	0.36777	-0.075
Mof_C 	C 	0.09843	0.66607	0.44797	0.019
Mof_H 	H 	0.08723	0.63917	0.50717	0.014
Mof_C 	C 	0.14353	0.69587	0.43927	-0.117
Mof_H 	H 	0.16373	0.69037	0.49817	0.055
Mof_C 	C 	0.15953	0.73317	0.34677	0.059
Mof_H 	H 	0.19083	0.75217	0.33747	-0.022
Mof_C 	C 	0.08903	0.71647	0.28007	0.054
Mof_H 	H 	0.06963	0.72397	0.22587	0.015
Mof_Ag	Ag	0.50772	0.52351	0.17637	0.447
Mof_O 	O 	0.33323	0.33117	0.38087	-0.217
Mof_N 	N 	0.46843	0.46317	0.32167	-0.197
Mof_N 	N 	0.25603	0.38847	0.26867	-0.198
Mof_C 	C 	0.48993	0.44937	0.41767	0.054
Mof_H 	H 	0.52153	0.46687	0.42497	-0.02
Mof_C 	C 	0.46803	0.41077	0.50697	-0.126
Mof_H 	H 	0.48423	0.40217	0.57517	0.05
Mof_C 	C 	0.42263	0.38497	0.49627	0.018
Mof_H 	H 	0.40703	0.35787	0.55377	0.038
Mof_C 	C 	0.39993	0.39947	0.39927	-0.075
Mof_C 	C 	0.42413	0.43867	0.31577	0.048
Mof_H 	H 	0.40853	0.44877	0.25067	-0.006
Mof_C 	C 	0.35053	0.37137	0.38037	0.18
Mof_C 	C 	0.32333	0.39337	0.36777	-0.075
Mof_C 	C 	0.33393	0.43237	0.44797	0.019
Mof_H 	H 	0.36083	0.44807	0.50717	0.014
Mof_C 	C 	0.30413	0.44767	0.43927	-0.117
Mof_H 	H 	0.30963	0.47337	0.49817	0.055
Mof_C 	C 	0.26683	0.42637	0.34677	0.059
Mof_H 	H 	0.24783	0.43867	0.33747	-0.022
Mof_C 	C 	0.28353	0.37257	0.28007	0.054
Mof_H 	H 	0.27603	0.34567	0.22587	0.015
_end
