data_functionalizedCrystal
_audit_creation_method	'EQeq! by Chris Wilmer'
_symmetry_space_group_name_H-M	'P1'
_symmetry_Int_Tables_number	1
_symmetry_cell_setting	triclinic
loop_
_symmetry_equiv_pos_as_xyz
  x,y,z
_cell_length_a	10.1719
_cell_length_b	11.5557
_cell_length_c	15.2081
_cell_angle_alpha	106.021
_cell_angle_beta	109.251
_cell_angle_gamma	90.597
loop_
_atom_site_label
_atom_site_type_symbol
_atom_site_fract_x
_atom_site_fract_y
_atom_site_fract_z
_atom_site_charge
Mof_Ba	Ba	0.59341	0.75256	0.34017	1.8
Mof_Ba	Ba	0.88854	0.3283	0.88423	1.714
Mof_Ba	Ba	0.4066	0.24744	0.65983	1.801
Mof_Ba	Ba	0.11146	0.6717	0.11577	1.715
Mof_Ce	Ce	0.63582	0.79084	0.77042	2.723
Mof_Ce	Ce	0.36418	0.20916	0.22958	2.723
Mof_H 	H 	0.6061	0.9025	0.1375	-0.008
Mof_H 	H 	0.8782	0.4235	0.1998	0.016
Mof_H 	H 	0.0995	0.8751	0.8754	0.016
Mof_H 	H 	0.591	0.209	0.879	0.419
Mof_H 	H 	0.7703	0.5067	0.5513	0.019
Mof_H 	H 	0.667	0.439	0.712	0.351
Mof_H 	H 	0.0102	0.7185	0.5763	0.037
Mof_H 	H 	0.7921	0.0563	0.2172	0.066
Mof_H 	H 	0.412	0.879	0.197	0.387
Mof_H 	H 	0.9005	0.1249	0.1246	0.016
Mof_H 	H 	0.2079	0.9437	0.7828	0.066
Mof_H 	H 	0.8429	0.1569	0.5089	0.019
Mof_H 	H 	0.8359	0.3861	0.3316	0.052
Mof_H 	H 	0.409	0.791	0.121	0.419
Mof_H 	H 	0.9898	0.2815	0.4237	0.037
Mof_H 	H 	0.3939	0.0975	0.8625	-0.008
Mof_H 	H 	0.1218	0.5765	0.8002	0.016
Mof_H 	H 	0.2297	0.4933	0.4487	0.019
Mof_H 	H 	0.275	0.654	0.326	0.34
Mof_H 	H 	0.333	0.561	0.288	0.351
Mof_H 	H 	0.0924	0.6389	0.3982	0.082
Mof_H 	H 	0.9076	0.3611	0.6018	0.082
Mof_H 	H 	0.725	0.346	0.674	0.34
Mof_H 	H 	0.588	0.121	0.803	0.387
Mof_H 	H 	0.1571	0.8431	0.4911	0.019
Mof_H 	H 	0.1641	0.6139	0.6684	0.052
Mof_C 	C 	0.2294	0.1928	0.40331	0.388
Mof_C 	C 	0.6526	0.9298	0.1024	0.036
Mof_C 	C 	0.3238	0.8106	0.5957	-0.088
Mof_C 	C 	0.7917	0.2172	0.4894	0.005
Mof_C 	C 	0.2187	0.9926	0.0048	-0.098
Mof_C 	C 	0.9428	0.6565	0.7811	-0.092
Mof_C 	C 	0.7813	0.0074	0.9952	-0.098
Mof_C 	C 	0.8456	0.0458	0.92968	0.386
Mof_C 	C 	0.3719	0.9387	0.66282	0.379
Mof_C 	C 	0.1544	0.9542	0.07032	0.386
Mof_C 	C 	0.829	0.3388	0.5452	-0.127
Mof_C 	C 	0.4636	0.5226	0.60662	0.388
Mof_C 	C 	0.0861	0.6402	0.6838	-0.076
Mof_C 	C 	0.6322	0.3886	0.43036	-0.085
Mof_C 	C 	0.5002	0.2279	0.0545	0.369
Mof_C 	C 	0.0054	0.2976	0.3711	0.002
Mof_C 	C 	0.9946	0.7024	0.6289	0.002
Mof_C 	C 	0.171	0.6612	0.4548	-0.127
Mof_C 	C 	0.6762	0.1894	0.4043	-0.088
Mof_C 	C 	0.4998	0.7721	0.9455	0.369
Mof_C 	C 	0.1725	0.9376	0.9049	0.036
Mof_C 	C 	0.7706	0.8072	0.59669	0.388
Mof_C 	C 	0.2374	0.9778	0.8501	-0.113
Mof_C 	C 	0.2523	0.5746	0.4848	0.018
Mof_C 	C 	0.8791	0.7406	0.65362	-0.067
Mof_C 	C 	0.0572	0.3435	0.2189	-0.092
Mof_C 	C 	0.0609	0.6173	0.7618	0.019
Mof_C 	C 	0.3871	0.1212	0.99708	-0.091
Mof_C 	C 	0.6129	0.8788	0.00292	-0.091
Mof_C 	C 	0.3678	0.6114	0.56964	-0.085
Mof_C 	C 	0.9025	0.6351	0.86349	0.416
Mof_C 	C 	0.6281	0.0613	0.33718	0.379
Mof_C 	C 	0.3474	0.0702	0.8976	0.036
Mof_C 	C 	0.2083	0.7828	0.5106	0.005
Mof_C 	C 	0.5364	0.4774	0.39338	0.388
Mof_C 	C 	0.1209	0.2594	0.34638	-0.067
Mof_C 	C 	0.9391	0.3827	0.2382	0.019
Mof_C 	C 	0.0975	0.3649	0.13651	0.416
Mof_C 	C 	0.9139	0.3598	0.3162	-0.076
Mof_C 	C 	0.7626	0.0222	0.1499	-0.113
Mof_C 	C 	0.7477	0.4254	0.5152	0.018
Mof_C 	C 	0.8275	0.0624	0.0951	0.036
Mof_N 	N 	0.5981	0.2735	0.37548	-0.233
Mof_N 	N 	0.6771	0.917	0.94999	-0.225
Mof_N 	N 	0.8546	0.71782	0.72887	-0.227
Mof_N 	N 	0.3229	0.083	0.05001	-0.225
Mof_N 	N 	0.4019	0.7265	0.62452	-0.233
Mof_N 	N 	0.136	0.3101	0.7282	0.069
Mof_N 	N 	0.864	0.6899	0.2718	0.069
Mof_N 	N 	0.1454	0.28218	0.27113	-0.227
Mof_O 	O 	0.811	0.97497	0.84312	-0.563
Mof_O 	O 	0.7781	0.75227	0.22986	-0.286
Mof_O 	O 	0.607	0.19471	0.82852	-1.039
Mof_O 	O 	0.3036	0.62761	0.28023	-0.949
Mof_O 	O 	0.924	0.14214	0.96319	-0.456
Mof_O 	O 	0.393	0.80529	0.17148	-1.039
Mof_O 	O 	0.027	0.42897	0.08844	-0.573
Mof_O 	O 	0.4876	0.72517	0.85665	-0.537
Mof_O 	O 	0.973	0.57103	0.91156	-0.573
Mof_O 	O 	0.3001	0.0205	0.64337	-0.437
Mof_O 	O 	0.5759	0.5691	0.67785	-0.592
Mof_O 	O 	0.569	0.26211	0.01073	-0.363
Mof_O 	O 	0.4241	0.4309	0.32215	-0.592
Mof_O 	O 	0.211	0.17026	0.47412	-0.427
Mof_O 	O 	0.79711	0.68414	0.87636	-0.592
Mof_O 	O 	0.51553	0.04739	0.26494	-0.6
Mof_O 	O 	0.189	0.02503	0.15688	-0.563
Mof_O 	O 	0.6964	0.37239	0.71977	-0.949
Mof_O 	O 	0.8446	0.656	0.33823	-0.278
Mof_O 	O 	0.6999	0.9795	0.35663	-0.437
Mof_O 	O 	0.076	0.85786	0.03681	-0.456
Mof_O 	O 	0.9679	0.66159	0.24701	-0.297
Mof_O 	O 	0.1554	0.344	0.66177	-0.278
Mof_O 	O 	0.3302	0.16596	0.37363	-0.572
Mof_O 	O 	0.5124	0.27483	0.14335	-0.537
Mof_O 	O 	0.48447	0.95261	0.73506	-0.6
Mof_O 	O 	0.431	0.73789	0.98927	-0.363
Mof_O 	O 	0.20289	0.31586	0.12364	-0.592
Mof_O 	O 	0.4257	0.41292	0.56598	-0.462
Mof_O 	O 	0.2219	0.24773	0.77014	-0.286
Mof_O 	O 	0.0321	0.33841	0.75299	-0.297
Mof_O 	O 	0.789	0.82974	0.52588	-0.427
Mof_O 	O 	0.6698	0.83404	0.62637	-0.572
Mof_O 	O 	0.5743	0.58708	0.43402	-0.462
_end
