data_functionalizedCrystal
_audit_creation_method	'EQeq! by Chris Wilmer'
_symmetry_space_group_name_H-M	'P1'
_symmetry_Int_Tables_number	1
_symmetry_cell_setting	triclinic
loop_
_symmetry_equiv_pos_as_xyz
  x,y,z
_cell_length_a	26.421
_cell_length_b	26.421
_cell_length_c	4.7117
_cell_angle_alpha	90
_cell_angle_beta	90
_cell_angle_gamma	90
loop_
_atom_site_label
_atom_site_type_symbol
_atom_site_fract_x
_atom_site_fract_y
_atom_site_fract_z
_atom_site_charge
Mof_Zn	Zn	0.26939	0.21578	0.9146	1.22
Mof_O 	O 	0.2291	0.2737	0.008	-0.769
Mof_H 	H 	0.2074	0.2852	0.8912	0.265
Mof_N 	N 	0.2422	0.1484	0.977	-0.302
Mof_C 	C 	0.2553	0.1099	0.134	0.152
Mof_H 	H 	0.2802	0.1132	0.2726	-0.022
Mof_N 	N 	0.2316	0.065	0.0894	-0.173
Mof_C 	C 	0.2027	0.1259	0.7962	0.035
Mof_O 	O 	0.2703	0.8384	0.463	-0.54
Mof_C 	C 	0.1737	0.1473	0.584	-0.13
Mof_H 	H 	0.1775	0.1812	0.5345	0.06
Mof_O 	O 	0.342	0.8623	0.459	-0.292
Mof_C 	C 	0.1385	0.1167	0.4451	0.052
Mof_C 	C 	0.1092	0.1372	0.231	-0.092
Mof_H 	H 	0.1136	0.1711	0.1831	0.066
Mof_C 	C 	0.0734	0.1087	0.085	-0.012
Mof_H 	H 	0.0538	0.1228	0.9416	0.024
Mof_C 	C 	0.0684	0.0582	0.1631	-0.033
Mof_H 	H 	0.045	0.038	0.0692	0.035
Mof_C 	C 	0.0976	0.0371	0.378	-0.087
Mof_H 	H 	0.0932	0.0033	0.4258	0.059
Mof_C 	C 	0.1334	0.066	0.5238	0.041
Mof_C 	C 	0.1628	0.0441	0.737	-0.125
Mof_H 	H 	0.1594	0.0102	0.7858	0.072
Mof_C 	C 	0.1973	0.0754	0.874	0.065
Mof_C 	C 	0.2459	0.0179	0.196	0.21
Mof_C 	C 	0.2746	0.927	0.416	-0.227
Mof_C 	C 	0.2954	0.0113	0.276	-0.183
Mof_H 	H 	0.3185	0.0377	0.2553	0.107
Mof_C 	C 	0.3114	0.9651	0.39	0.12
Mof_H 	H 	0.3448	0.9598	0.4448	0.008
Mof_C 	C 	0.2236	0.9311	0.338	0.085
Mof_H 	H 	0.2003	0.905	0.3571	0.002
Mof_C 	C 	0.2119	0.9787	0.228	-0.16
Mof_H 	H 	0.1786	0.9845	0.1714	0.084
Mof_C 	C 	0.2951	0.8759	0.506	0.599
Mof_C 	C 	0.2649	0.0146	0.469	-0.07
Mof_H 	H 	0.2678	0.0439	0.5774	0.059
Mof_C 	C 	0.2794	0.9691	0.584	0.009
Mof_H 	H 	0.292	0.9669	0.768	0.038
Mof_C 	C 	0.2557	0.9278	0.144	0.041
Mof_H 	H 	0.2526	0.8984	0.037	0.037
Mof_C 	C 	0.2416	0.9743	0.037	-0.084
Mof_H 	H 	0.2288	0.9763	0.8533	0.059
Mof_O 	O 	0.3037	0.8707	0.771	-0.305
Mof_Zn	Zn	0.76939	0.71578	0.4146	1.229
Mof_O 	O 	0.7291	0.7737	0.508	-0.804
Mof_H 	H 	0.7074	0.7852	0.3912	0.288
Mof_N 	N 	0.7422	0.6484	0.477	-0.281
Mof_C 	C 	0.7553	0.6099	0.634	0.118
Mof_H 	H 	0.7802	0.6132	0.7726	-0.012
Mof_N 	N 	0.7316	0.565	0.5894	-0.175
Mof_C 	C 	0.7027	0.6259	0.2962	0.011
Mof_O 	O 	0.7703	0.3384	0.963	-0.487
Mof_C 	C 	0.6737	0.6473	0.084	-0.081
Mof_H 	H 	0.6775	0.6812	0.0345	0.043
Mof_O 	O 	0.842	0.3623	0.959	-0.255
Mof_C 	C 	0.6385	0.6167	0.9451	-0.021
Mof_C 	C 	0.6092	0.6372	0.731	-0.041
Mof_H 	H 	0.6136	0.6711	0.6831	0.04
Mof_C 	C 	0.5734	0.6087	0.585	-0.076
Mof_H 	H 	0.5538	0.6228	0.4416	0.055
Mof_C 	C 	0.5684	0.5582	0.6631	0.02
Mof_H 	H 	0.545	0.538	0.5692	0.018
Mof_C 	C 	0.5976	0.5371	0.878	-0.14
Mof_H 	H 	0.5932	0.5033	0.9258	0.08
Mof_C 	C 	0.6334	0.566	0.0238	0.101
Mof_C 	C 	0.6628	0.5441	0.237	-0.17
Mof_H 	H 	0.6594	0.5102	0.2858	0.087
Mof_C 	C 	0.6973	0.5754	0.374	0.099
Mof_C 	C 	0.7459	0.5179	0.696	0.178
Mof_C 	C 	0.7746	0.427	0.916	-0.139
Mof_C 	C 	0.7954	0.5113	0.776	0.031
Mof_H 	H 	0.8185	0.5377	0.7553	0.034
Mof_C 	C 	0.8114	0.4651	0.89	-0.062
Mof_H 	H 	0.8448	0.4598	0.9448	0.078
Mof_C 	C 	0.7236	0.4311	0.838	-0.285
Mof_H 	H 	0.7003	0.405	0.8571	0.139
Mof_C 	C 	0.7119	0.4787	0.728	0.236
Mof_H 	H 	0.6786	0.4845	0.6714	-0.053
Mof_C 	C 	0.7951	0.3759	0.006	0.483
Mof_C 	C 	0.7649	0.5146	0.969	-0.226
Mof_H 	H 	0.7678	0.5439	0.0774	0.112
Mof_C 	C 	0.7794	0.4691	0.084	0.1
Mof_H 	H 	0.792	0.4669	0.268	0.014
Mof_C 	C 	0.7557	0.4278	0.644	0.352
Mof_H 	H 	0.7526	0.3984	0.537	-0.068
Mof_C 	C 	0.7416	0.4743	0.537	-0.455
Mof_H 	H 	0.7288	0.4763	0.3533	0.189
Mof_O 	O 	0.8037	0.3707	0.271	-0.29
Mof_Zn	Zn	0.73061	0.78422	0.9146	1.219
Mof_O 	O 	0.7709	0.7263	0.008	-0.77
Mof_H 	H 	0.7926	0.7148	0.8912	0.264
Mof_N 	N 	0.7578	0.8516	0.977	-0.303
Mof_C 	C 	0.7447	0.8901	0.134	0.151
Mof_H 	H 	0.7198	0.8868	0.2726	-0.023
Mof_N 	N 	0.7684	0.935	0.0894	-0.174
Mof_C 	C 	0.7973	0.8741	0.7962	0.034
Mof_O 	O 	0.7297	0.1616	0.463	-0.541
Mof_C 	C 	0.8263	0.8527	0.584	-0.131
Mof_H 	H 	0.8225	0.8188	0.5345	0.059
Mof_O 	O 	0.658	0.1377	0.459	-0.293
Mof_C 	C 	0.8615	0.8833	0.4451	0.051
Mof_C 	C 	0.8908	0.8628	0.231	-0.093
Mof_H 	H 	0.8864	0.8289	0.1831	0.065
Mof_C 	C 	0.9266	0.8913	0.085	-0.013
Mof_H 	H 	0.9462	0.8772	0.9416	0.024
Mof_C 	C 	0.9316	0.9418	0.1631	-0.033
Mof_H 	H 	0.955	0.962	0.0692	0.035
Mof_C 	C 	0.9024	0.9629	0.378	-0.087
Mof_H 	H 	0.9068	0.9967	0.4258	0.059
Mof_C 	C 	0.8666	0.934	0.5238	0.041
Mof_C 	C 	0.8372	0.9559	0.737	-0.125
Mof_H 	H 	0.8406	0.9898	0.7858	0.072
Mof_C 	C 	0.8027	0.9246	0.874	0.065
Mof_C 	C 	0.7541	0.9821	0.196	0.21
Mof_C 	C 	0.7254	0.073	0.416	-0.227
Mof_C 	C 	0.7046	0.9887	0.276	-0.183
Mof_H 	H 	0.6815	0.9623	0.2553	0.107
Mof_C 	C 	0.6886	0.0349	0.39	0.12
Mof_H 	H 	0.6552	0.0402	0.4448	0.008
Mof_C 	C 	0.7764	0.0689	0.338	0.085
Mof_H 	H 	0.7997	0.095	0.3571	0.002
Mof_C 	C 	0.7881	0.0213	0.228	-0.16
Mof_H 	H 	0.8214	0.0155	0.1714	0.084
Mof_C 	C 	0.7049	0.1241	0.506	0.599
Mof_C 	C 	0.7351	0.9854	0.469	-0.07
Mof_H 	H 	0.7322	0.9561	0.5774	0.059
Mof_C 	C 	0.7206	0.0309	0.584	0.009
Mof_H 	H 	0.708	0.0331	0.768	0.038
Mof_C 	C 	0.7443	0.0722	0.144	0.041
Mof_H 	H 	0.7474	0.1016	0.037	0.037
Mof_C 	C 	0.7584	0.0257	0.037	-0.084
Mof_H 	H 	0.7712	0.0237	0.8533	0.059
Mof_O 	O 	0.6963	0.1293	0.771	-0.305
Mof_Zn	Zn	0.23061	0.28422	0.4146	1.229
Mof_O 	O 	0.2709	0.2263	0.508	-0.804
Mof_H 	H 	0.2926	0.2148	0.3912	0.288
Mof_N 	N 	0.2578	0.3516	0.477	-0.281
Mof_C 	C 	0.2447	0.3901	0.634	0.118
Mof_H 	H 	0.2198	0.3868	0.7726	-0.012
Mof_N 	N 	0.2684	0.435	0.5894	-0.175
Mof_C 	C 	0.2973	0.3741	0.2962	0.011
Mof_O 	O 	0.2297	0.6616	0.963	-0.487
Mof_C 	C 	0.3263	0.3527	0.084	-0.081
Mof_H 	H 	0.3225	0.3188	0.0345	0.043
Mof_O 	O 	0.158	0.6377	0.959	-0.255
Mof_C 	C 	0.3615	0.3833	0.9451	-0.021
Mof_C 	C 	0.3908	0.3628	0.731	-0.041
Mof_H 	H 	0.3864	0.3289	0.6831	0.04
Mof_C 	C 	0.4266	0.3913	0.585	-0.076
Mof_H 	H 	0.4462	0.3772	0.4416	0.055
Mof_C 	C 	0.4316	0.4418	0.6631	0.02
Mof_H 	H 	0.455	0.462	0.5692	0.018
Mof_C 	C 	0.4024	0.4629	0.878	-0.14
Mof_H 	H 	0.4068	0.4967	0.9258	0.08
Mof_C 	C 	0.3666	0.434	0.0238	0.101
Mof_C 	C 	0.3372	0.4559	0.237	-0.17
Mof_H 	H 	0.3406	0.4898	0.2858	0.087
Mof_C 	C 	0.3027	0.4246	0.374	0.099
Mof_C 	C 	0.2541	0.4821	0.696	0.178
Mof_C 	C 	0.2254	0.573	0.916	-0.139
Mof_C 	C 	0.2046	0.4887	0.776	0.031
Mof_H 	H 	0.1815	0.4623	0.7553	0.034
Mof_C 	C 	0.1886	0.5349	0.89	-0.062
Mof_H 	H 	0.1552	0.5402	0.9448	0.078
Mof_C 	C 	0.2764	0.5689	0.838	-0.285
Mof_H 	H 	0.2997	0.595	0.8571	0.139
Mof_C 	C 	0.2881	0.5213	0.728	0.236
Mof_H 	H 	0.3214	0.5155	0.6714	-0.053
Mof_C 	C 	0.2049	0.6241	0.006	0.483
Mof_C 	C 	0.2351	0.4854	0.969	-0.226
Mof_H 	H 	0.2322	0.4561	0.0774	0.112
Mof_C 	C 	0.2206	0.5309	0.084	0.1
Mof_H 	H 	0.208	0.5331	0.268	0.014
Mof_C 	C 	0.2443	0.5722	0.644	0.352
Mof_H 	H 	0.2474	0.6016	0.537	-0.068
Mof_C 	C 	0.2584	0.5257	0.537	-0.455
Mof_H 	H 	0.2712	0.5237	0.3533	0.189
Mof_O 	O 	0.1963	0.6293	0.271	-0.29
Mof_Zn	Zn	0.21578	0.73061	0.0854	1.219
Mof_O 	O 	0.2737	0.7709	0.992	-0.77
Mof_H 	H 	0.2852	0.7926	0.1088	0.264
Mof_N 	N 	0.1484	0.7578	0.023	-0.303
Mof_C 	C 	0.1099	0.7447	0.866	0.151
Mof_H 	H 	0.1132	0.7198	0.7274	-0.023
Mof_N 	N 	0.065	0.7684	0.9106	-0.174
Mof_C 	C 	0.1259	0.7973	0.2038	0.034
Mof_O 	O 	0.8384	0.7297	0.537	-0.541
Mof_C 	C 	0.1473	0.8263	0.416	-0.131
Mof_H 	H 	0.1812	0.8225	0.4655	0.059
Mof_O 	O 	0.8623	0.658	0.541	-0.293
Mof_C 	C 	0.1167	0.8615	0.5549	0.051
Mof_C 	C 	0.1372	0.8908	0.769	-0.093
Mof_H 	H 	0.1711	0.8864	0.8169	0.065
Mof_C 	C 	0.1087	0.9266	0.915	-0.013
Mof_H 	H 	0.1228	0.9462	0.0584	0.024
Mof_C 	C 	0.0582	0.9316	0.8369	-0.033
Mof_H 	H 	0.038	0.955	0.9308	0.035
Mof_C 	C 	0.0371	0.9024	0.622	-0.087
Mof_H 	H 	0.0033	0.9068	0.5742	0.059
Mof_C 	C 	0.066	0.8666	0.4762	0.041
Mof_C 	C 	0.0441	0.8372	0.263	-0.125
Mof_H 	H 	0.0102	0.8406	0.2142	0.072
Mof_C 	C 	0.0754	0.8027	0.126	0.065
Mof_C 	C 	0.0179	0.7541	0.804	0.21
Mof_C 	C 	0.927	0.7254	0.584	-0.227
Mof_C 	C 	0.0113	0.7046	0.724	-0.183
Mof_H 	H 	0.0377	0.6815	0.7447	0.107
Mof_C 	C 	0.9651	0.6886	0.61	0.12
Mof_H 	H 	0.9598	0.6552	0.5552	0.008
Mof_C 	C 	0.9311	0.7764	0.662	0.085
Mof_H 	H 	0.905	0.7997	0.6429	0.002
Mof_C 	C 	0.9787	0.7881	0.772	-0.16
Mof_H 	H 	0.9845	0.8214	0.8286	0.084
Mof_C 	C 	0.8759	0.7049	0.494	0.599
Mof_C 	C 	0.0146	0.7351	0.531	-0.07
Mof_H 	H 	0.0439	0.7322	0.4226	0.059
Mof_C 	C 	0.9691	0.7206	0.416	0.009
Mof_H 	H 	0.9669	0.708	0.232	0.038
Mof_C 	C 	0.9278	0.7443	0.856	0.041
Mof_H 	H 	0.8984	0.7474	0.963	0.037
Mof_C 	C 	0.9743	0.7584	0.963	-0.084
Mof_H 	H 	0.9763	0.7712	0.1467	0.059
Mof_O 	O 	0.8707	0.6963	0.229	-0.305
Mof_Zn	Zn	0.71578	0.23061	0.5854	1.229
Mof_O 	O 	0.7737	0.2709	0.492	-0.804
Mof_H 	H 	0.7852	0.2926	0.6088	0.288
Mof_N 	N 	0.6484	0.2578	0.523	-0.281
Mof_C 	C 	0.6099	0.2447	0.366	0.118
Mof_H 	H 	0.6132	0.2198	0.2274	-0.012
Mof_N 	N 	0.565	0.2684	0.4106	-0.175
Mof_C 	C 	0.6259	0.2973	0.7038	0.011
Mof_O 	O 	0.3384	0.2297	0.037	-0.487
Mof_C 	C 	0.6473	0.3263	0.916	-0.081
Mof_H 	H 	0.6812	0.3225	0.9655	0.043
Mof_O 	O 	0.3623	0.158	0.041	-0.255
Mof_C 	C 	0.6167	0.3615	0.0549	-0.021
Mof_C 	C 	0.6372	0.3908	0.269	-0.041
Mof_H 	H 	0.6711	0.3864	0.3169	0.04
Mof_C 	C 	0.6087	0.4266	0.415	-0.076
Mof_H 	H 	0.6228	0.4462	0.5584	0.055
Mof_C 	C 	0.5582	0.4316	0.3369	0.02
Mof_H 	H 	0.538	0.455	0.4308	0.018
Mof_C 	C 	0.5371	0.4024	0.122	-0.14
Mof_H 	H 	0.5033	0.4068	0.0742	0.08
Mof_C 	C 	0.566	0.3666	0.9762	0.101
Mof_C 	C 	0.5441	0.3372	0.763	-0.17
Mof_H 	H 	0.5102	0.3406	0.7142	0.087
Mof_C 	C 	0.5754	0.3027	0.626	0.099
Mof_C 	C 	0.5179	0.2541	0.304	0.178
Mof_C 	C 	0.427	0.2254	0.084	-0.139
Mof_C 	C 	0.5113	0.2046	0.224	0.031
Mof_H 	H 	0.5377	0.1815	0.2447	0.034
Mof_C 	C 	0.4651	0.1886	0.11	-0.062
Mof_H 	H 	0.4598	0.1552	0.0552	0.078
Mof_C 	C 	0.4311	0.2764	0.162	-0.285
Mof_H 	H 	0.405	0.2997	0.1429	0.139
Mof_C 	C 	0.4787	0.2881	0.272	0.236
Mof_H 	H 	0.4845	0.3214	0.3286	-0.053
Mof_C 	C 	0.3759	0.2049	0.994	0.483
Mof_C 	C 	0.5146	0.2351	0.031	-0.226
Mof_H 	H 	0.5439	0.2322	0.9226	0.112
Mof_C 	C 	0.4691	0.2206	0.916	0.1
Mof_H 	H 	0.4669	0.208	0.732	0.014
Mof_C 	C 	0.4278	0.2443	0.356	0.352
Mof_H 	H 	0.3984	0.2474	0.463	-0.068
Mof_C 	C 	0.4743	0.2584	0.463	-0.455
Mof_H 	H 	0.4763	0.2712	0.6467	0.189
Mof_O 	O 	0.3707	0.1963	0.729	-0.29
Mof_Zn	Zn	0.78422	0.26939	0.0854	1.219
Mof_O 	O 	0.7263	0.2291	0.992	-0.77
Mof_H 	H 	0.7148	0.2074	0.1088	0.264
Mof_N 	N 	0.8516	0.2422	0.023	-0.303
Mof_C 	C 	0.8901	0.2553	0.866	0.151
Mof_H 	H 	0.8868	0.2802	0.7274	-0.023
Mof_N 	N 	0.935	0.2316	0.9106	-0.174
Mof_C 	C 	0.8741	0.2027	0.2038	0.034
Mof_O 	O 	0.1616	0.2703	0.537	-0.541
Mof_C 	C 	0.8527	0.1737	0.416	-0.131
Mof_H 	H 	0.8188	0.1775	0.4655	0.059
Mof_O 	O 	0.1377	0.342	0.541	-0.293
Mof_C 	C 	0.8833	0.1385	0.5549	0.051
Mof_C 	C 	0.8628	0.1092	0.769	-0.093
Mof_H 	H 	0.8289	0.1136	0.8169	0.065
Mof_C 	C 	0.8913	0.0734	0.915	-0.013
Mof_H 	H 	0.8772	0.0538	0.0584	0.024
Mof_C 	C 	0.9418	0.0684	0.8369	-0.033
Mof_H 	H 	0.962	0.045	0.9308	0.035
Mof_C 	C 	0.9629	0.0976	0.622	-0.087
Mof_H 	H 	0.9967	0.0932	0.5742	0.059
Mof_C 	C 	0.934	0.1334	0.4762	0.041
Mof_C 	C 	0.9559	0.1628	0.263	-0.125
Mof_H 	H 	0.9898	0.1594	0.2142	0.072
Mof_C 	C 	0.9246	0.1973	0.126	0.065
Mof_C 	C 	0.9821	0.2459	0.804	0.21
Mof_C 	C 	0.073	0.2746	0.584	-0.227
Mof_C 	C 	0.9887	0.2954	0.724	-0.183
Mof_H 	H 	0.9623	0.3185	0.7447	0.107
Mof_C 	C 	0.0349	0.3114	0.61	0.12
Mof_H 	H 	0.0402	0.3448	0.5552	0.008
Mof_C 	C 	0.0689	0.2236	0.662	0.085
Mof_H 	H 	0.095	0.2003	0.6429	0.002
Mof_C 	C 	0.0213	0.2119	0.772	-0.16
Mof_H 	H 	0.0155	0.1786	0.8286	0.084
Mof_C 	C 	0.1241	0.2951	0.494	0.599
Mof_C 	C 	0.9854	0.2649	0.531	-0.07
Mof_H 	H 	0.9561	0.2678	0.4226	0.059
Mof_C 	C 	0.0309	0.2794	0.416	0.009
Mof_H 	H 	0.0331	0.292	0.232	0.038
Mof_C 	C 	0.0722	0.2557	0.856	0.041
Mof_H 	H 	0.1016	0.2526	0.963	0.037
Mof_C 	C 	0.0257	0.2416	0.963	-0.084
Mof_H 	H 	0.0237	0.2288	0.1467	0.059
Mof_O 	O 	0.1293	0.3037	0.229	-0.305
Mof_Zn	Zn	0.28422	0.76939	0.5854	1.229
Mof_O 	O 	0.2263	0.7291	0.492	-0.804
Mof_H 	H 	0.2148	0.7074	0.6088	0.288
Mof_N 	N 	0.3516	0.7422	0.523	-0.281
Mof_C 	C 	0.3901	0.7553	0.366	0.118
Mof_H 	H 	0.3868	0.7802	0.2274	-0.012
Mof_N 	N 	0.435	0.7316	0.4106	-0.175
Mof_C 	C 	0.3741	0.7027	0.7038	0.011
Mof_O 	O 	0.6616	0.7703	0.037	-0.487
Mof_C 	C 	0.3527	0.6737	0.916	-0.081
Mof_H 	H 	0.3188	0.6775	0.9655	0.043
Mof_O 	O 	0.6377	0.842	0.041	-0.255
Mof_C 	C 	0.3833	0.6385	0.0549	-0.021
Mof_C 	C 	0.3628	0.6092	0.269	-0.041
Mof_H 	H 	0.3289	0.6136	0.3169	0.04
Mof_C 	C 	0.3913	0.5734	0.415	-0.076
Mof_H 	H 	0.3772	0.5538	0.5584	0.055
Mof_C 	C 	0.4418	0.5684	0.3369	0.02
Mof_H 	H 	0.462	0.545	0.4308	0.018
Mof_C 	C 	0.4629	0.5976	0.122	-0.14
Mof_H 	H 	0.4967	0.5932	0.0742	0.08
Mof_C 	C 	0.434	0.6334	0.9762	0.101
Mof_C 	C 	0.4559	0.6628	0.763	-0.17
Mof_H 	H 	0.4898	0.6594	0.7142	0.087
Mof_C 	C 	0.4246	0.6973	0.626	0.099
Mof_C 	C 	0.4821	0.7459	0.304	0.178
Mof_C 	C 	0.573	0.7746	0.084	-0.139
Mof_C 	C 	0.4887	0.7954	0.224	0.031
Mof_H 	H 	0.4623	0.8185	0.2447	0.034
Mof_C 	C 	0.5349	0.8114	0.11	-0.062
Mof_H 	H 	0.5402	0.8448	0.0552	0.078
Mof_C 	C 	0.5689	0.7236	0.162	-0.285
Mof_H 	H 	0.595	0.7003	0.1429	0.139
Mof_C 	C 	0.5213	0.7119	0.272	0.236
Mof_H 	H 	0.5155	0.6786	0.3286	-0.053
Mof_C 	C 	0.6241	0.7951	0.994	0.483
Mof_C 	C 	0.4854	0.7649	0.031	-0.226
Mof_H 	H 	0.4561	0.7678	0.9226	0.112
Mof_C 	C 	0.5309	0.7794	0.916	0.1
Mof_H 	H 	0.5331	0.792	0.732	0.014
Mof_C 	C 	0.5722	0.7557	0.356	0.352
Mof_H 	H 	0.6016	0.7526	0.463	-0.068
Mof_C 	C 	0.5257	0.7416	0.463	-0.455
Mof_H 	H 	0.5237	0.7288	0.6467	0.189
Mof_O 	O 	0.6293	0.8037	0.729	-0.29
_end
