data_functionalizedCrystal
_audit_creation_method	'EQeq! by Chris Wilmer'
_symmetry_space_group_name_H-M	'P1'
_symmetry_Int_Tables_number	1
_symmetry_cell_setting	triclinic
loop_
_symmetry_equiv_pos_as_xyz
  x,y,z
_cell_length_a	25.16
_cell_length_b	22.2
_cell_length_c	13.623
_cell_angle_alpha	90
_cell_angle_beta	90
_cell_angle_gamma	90
loop_
_atom_site_label
_atom_site_type_symbol
_atom_site_fract_x
_atom_site_fract_y
_atom_site_fract_z
_atom_site_charge
Mof_Eu	Eu	0.96695	0.17145	0.48257	1.567
Mof_Ru	Ru	0.64885	0.30141	0.25917	1.011
Mof_Ru	Ru	0.87055	0.34885	0.2609	1.004
Mof_C 	C 	0.7578	0.3381	0.3119	0.08
Mof_C 	C 	0.7968	0.3905	0.4355	0.122
Mof_H 	H 	0.8268	0.4063	0.4661	-0.028
Mof_C 	C 	0.7478	0.3986	0.478	-0.195
Mof_H 	H 	0.7444	0.4198	0.5365	0.1
Mof_C 	C 	0.7037	0.3746	0.4324	0.121
Mof_H 	H 	0.6703	0.3801	0.4603	-0.021
Mof_C 	C 	0.7635	0.3043	0.2192	0.064
Mof_C 	C 	0.8169	0.2682	0.0979	-0.012
Mof_H 	H 	0.8504	0.2632	0.0703	0.045
Mof_C 	C 	0.7735	0.2427	0.0523	0.121
Mof_H 	H 	0.7774	0.2207	0.9946	-0.091
Mof_C 	C 	0.7238	0.2507	0.0949	-0.013
Mof_H 	H 	0.6939	0.2344	0.0648	0.04
Mof_C 	C 	0.6553	0.2206	0.332	-0.188
Mof_C 	C 	0.898	0.2602	0.6649	-0.197
Mof_C 	C 	0.0864	0.1773	0.3412	-0.196
Mof_C 	C 	0.6411	0.3804	0.1863	-0.179
Mof_C 	C 	0.8963	0.2738	0.3296	-0.181
Mof_C 	C 	0.93	0.3363	0.1682	-0.167
Mof_C 	C 	0.9166	0.397	0.3486	-0.194
Mof_C 	C 	0.849	0.4246	0.1858	-0.158
Mof_N 	N 	0.80229	0.3603	0.3505	-0.241
Mof_N 	N 	0.70818	0.343	0.3475	-0.236
Mof_N 	N 	0.81222	0.2997	0.1804	-0.206
Mof_N 	N 	0.71834	0.2819	0.1797	-0.207
Mof_N 	N 	0.6585	0.1756	0.3709	-0.088
Mof_N 	N 	0.9236	0.2322	0.6092	-0.216
Mof_N 	N 	0.0497	0.1663	0.3884	-0.222
Mof_N 	N 	0.6363	0.4262	0.1451	-0.069
Mof_N 	N 	0.9139	0.231	0.3663	-0.232
Mof_N 	N 	0.965	0.3288	0.1166	-0.124
Mof_N 	N 	0.9421	0.4255	0.4014	-0.181
Mof_N 	N 	0.837	0.4675	0.1449	-0.051
Mof_O 	O 	0.9989	0.0683	0.509	-0.237
Mof_O 	O 	0.0469	0.4184	0.0755	-0.229
Mof_Eu	Eu	0.96695	0.67145	0.98257	1.293
Mof_Ru	Ru	0.64885	0.80141	0.75917	1.003
Mof_Ru	Ru	0.87055	0.84885	0.7609	1
Mof_C 	C 	0.7578	0.8381	0.8119	0.083
Mof_C 	C 	0.7968	0.8905	0.9355	0.268
Mof_H 	H 	0.8268	0.9063	0.9661	-0.104
Mof_C 	C 	0.7478	0.8986	0.978	-0.527
Mof_H 	H 	0.7444	0.9198	0.0365	0.29
Mof_C 	C 	0.7037	0.8746	0.9324	0.263
Mof_H 	H 	0.6703	0.8801	0.9603	-0.104
Mof_C 	C 	0.7635	0.8043	0.7192	0.067
Mof_C 	C 	0.8169	0.7682	0.5979	0.132
Mof_H 	H 	0.8504	0.7632	0.5703	-0.041
Mof_C 	C 	0.7735	0.7427	0.5523	-0.21
Mof_H 	H 	0.7774	0.7207	0.4946	0.097
Mof_C 	C 	0.7238	0.7507	0.5949	0.126
Mof_H 	H 	0.6939	0.7344	0.5648	-0.042
Mof_C 	C 	0.6553	0.7206	0.832	-0.201
Mof_C 	C 	0.898	0.7602	0.1649	-0.182
Mof_C 	C 	0.0864	0.6773	0.8412	-0.218
Mof_C 	C 	0.6411	0.8804	0.6863	-0.2
Mof_C 	C 	0.8963	0.7738	0.8296	-0.201
Mof_C 	C 	0.93	0.8363	0.6682	-0.172
Mof_C 	C 	0.9166	0.897	0.8486	-0.2
Mof_C 	C 	0.849	0.9246	0.6858	-0.167
Mof_N 	N 	0.80229	0.8603	0.8505	-0.273
Mof_N 	N 	0.70818	0.843	0.8475	-0.268
Mof_N 	N 	0.81222	0.7997	0.6804	-0.241
Mof_N 	N 	0.71834	0.7819	0.6797	-0.239
Mof_N 	N 	0.6585	0.6756	0.8709	-0.097
Mof_N 	N 	0.9236	0.7322	0.1092	-0.163
Mof_N 	N 	0.0497	0.6663	0.8884	-0.221
Mof_N 	N 	0.6363	0.9262	0.6451	-0.093
Mof_N 	N 	0.9139	0.731	0.8663	-0.224
Mof_N 	N 	0.965	0.8288	0.6166	-0.169
Mof_N 	N 	0.9421	0.9255	0.9014	-0.165
Mof_N 	N 	0.837	0.9675	0.6449	-0.058
Mof_O 	O 	0.9989	0.5683	0.009	-0.163
Mof_O 	O 	0.0469	0.9184	0.5755	-0.271
Mof_Eu	Eu	0.03305	0.82855	0.48257	1.499
Mof_Ru	Ru	0.35115	0.69859	0.25917	1.013
Mof_Ru	Ru	0.12945	0.65115	0.2609	1.002
Mof_C 	C 	0.2422	0.6619	0.3119	0.08
Mof_C 	C 	0.2032	0.6095	0.4355	0.122
Mof_H 	H 	0.1732	0.5937	0.4661	-0.03
Mof_C 	C 	0.2522	0.6014	0.478	-0.196
Mof_H 	H 	0.2556	0.5802	0.5365	0.1
Mof_C 	C 	0.2963	0.6254	0.4324	0.121
Mof_H 	H 	0.3297	0.6199	0.4603	-0.022
Mof_C 	C 	0.2365	0.6957	0.2192	0.065
Mof_C 	C 	0.1831	0.7318	0.0979	-0.008
Mof_H 	H 	0.1496	0.7368	0.0703	0.042
Mof_C 	C 	0.2265	0.7573	0.0523	0.121
Mof_H 	H 	0.2226	0.7793	0.9946	-0.085
Mof_C 	C 	0.2762	0.7493	0.0949	-0.009
Mof_H 	H 	0.3061	0.7656	0.0648	0.042
Mof_C 	C 	0.3447	0.7794	0.332	-0.184
Mof_C 	C 	0.102	0.7398	0.6649	-0.204
Mof_C 	C 	0.9136	0.8227	0.3412	-0.183
Mof_C 	C 	0.3589	0.6196	0.1863	-0.18
Mof_C 	C 	0.1037	0.7262	0.3296	-0.185
Mof_C 	C 	0.07	0.6637	0.1682	-0.174
Mof_C 	C 	0.0834	0.603	0.3486	-0.202
Mof_C 	C 	0.151	0.5754	0.1858	-0.162
Mof_N 	N 	0.19771	0.6397	0.3505	-0.241
Mof_N 	N 	0.29182	0.657	0.3475	-0.236
Mof_N 	N 	0.18778	0.7003	0.1804	-0.206
Mof_N 	N 	0.28166	0.7181	0.1797	-0.207
Mof_N 	N 	0.3415	0.8244	0.3709	-0.076
Mof_N 	N 	0.0764	0.7678	0.6092	-0.216
Mof_N 	N 	0.9503	0.8337	0.3884	-0.195
Mof_N 	N 	0.3637	0.5738	0.1451	-0.069
Mof_N 	N 	0.0861	0.769	0.3663	-0.228
Mof_N 	N 	0.035	0.6712	0.1166	-0.151
Mof_N 	N 	0.0579	0.5745	0.4014	-0.193
Mof_N 	N 	0.163	0.5325	0.1449	-0.053
Mof_O 	O 	0.0011	0.9317	0.509	-0.241
Mof_O 	O 	0.9531	0.5816	0.0755	-0.225
Mof_Eu	Eu	0.03305	0.32855	0.98257	1.195
Mof_Ru	Ru	0.35115	0.19859	0.75917	1.001
Mof_Ru	Ru	0.12945	0.15115	0.7609	0.993
Mof_C 	C 	0.2422	0.1619	0.8119	0.081
Mof_C 	C 	0.2032	0.1095	0.9355	0.266
Mof_H 	H 	0.1732	0.0937	0.9661	-0.111
Mof_C 	C 	0.2522	0.1014	0.978	-0.534
Mof_H 	H 	0.2556	0.0802	0.0365	0.286
Mof_C 	C 	0.2963	0.1254	0.9324	0.261
Mof_H 	H 	0.3297	0.1199	0.9603	-0.108
Mof_C 	C 	0.2365	0.1957	0.7192	0.066
Mof_C 	C 	0.1831	0.2318	0.5979	0.132
Mof_H 	H 	0.1496	0.2368	0.5703	-0.045
Mof_C 	C 	0.2265	0.2573	0.5523	-0.211
Mof_H 	H 	0.2226	0.2793	0.4946	0.097
Mof_C 	C 	0.2762	0.2493	0.5949	0.126
Mof_H 	H 	0.3061	0.2656	0.5648	-0.042
Mof_C 	C 	0.3447	0.2794	0.832	-0.2
Mof_C 	C 	0.102	0.2398	0.1649	-0.192
Mof_C 	C 	0.9136	0.3227	0.8412	-0.21
Mof_C 	C 	0.3589	0.1196	0.6863	-0.206
Mof_C 	C 	0.1037	0.2262	0.8296	-0.208
Mof_C 	C 	0.07	0.1637	0.6682	-0.185
Mof_C 	C 	0.0834	0.103	0.8486	-0.216
Mof_C 	C 	0.151	0.0754	0.6858	-0.18
Mof_N 	N 	0.19771	0.1397	0.8505	-0.274
Mof_N 	N 	0.29182	0.157	0.8475	-0.269
Mof_N 	N 	0.18778	0.2003	0.6804	-0.241
Mof_N 	N 	0.28166	0.2181	0.6797	-0.239
Mof_N 	N 	0.3415	0.3244	0.8709	-0.097
Mof_N 	N 	0.0764	0.2678	0.1092	-0.163
Mof_N 	N 	0.9503	0.3337	0.8884	-0.195
Mof_N 	N 	0.3637	0.0738	0.6451	-0.106
Mof_N 	N 	0.0861	0.269	0.8663	-0.222
Mof_N 	N 	0.035	0.1712	0.6166	-0.196
Mof_N 	N 	0.0579	0.0745	0.9014	-0.192
Mof_N 	N 	0.163	0.0325	0.6449	-0.078
Mof_O 	O 	0.0011	0.4317	0.009	-0.187
Mof_O 	O 	0.9531	0.0816	0.5755	-0.287
Mof_Eu	Eu	0.46695	0.32855	0.48257	1.528
Mof_Ru	Ru	0.14885	0.19859	0.25917	1.01
Mof_Ru	Ru	0.37055	0.15115	0.2609	1.001
Mof_C 	C 	0.2578	0.1619	0.3119	0.079
Mof_C 	C 	0.2968	0.1095	0.4355	0.12
Mof_H 	H 	0.3268	0.0937	0.4661	-0.031
Mof_C 	C 	0.2478	0.1014	0.478	-0.197
Mof_H 	H 	0.2444	0.0802	0.5365	0.097
Mof_C 	C 	0.2037	0.1254	0.4324	0.119
Mof_H 	H 	0.1703	0.1199	0.4603	-0.024
Mof_C 	C 	0.2635	0.1957	0.2192	0.064
Mof_C 	C 	0.3169	0.2318	0.0979	-0.012
Mof_H 	H 	0.3504	0.2368	0.0703	0.044
Mof_C 	C 	0.2735	0.2573	0.0523	0.124
Mof_H 	H 	0.2774	0.2793	0.9946	-0.09
Mof_C 	C 	0.2238	0.2493	0.0949	-0.013
Mof_H 	H 	0.1939	0.2656	0.0648	0.042
Mof_C 	C 	0.1553	0.2794	0.332	-0.188
Mof_C 	C 	0.398	0.2398	0.6649	-0.202
Mof_C 	C 	0.5864	0.3227	0.3412	-0.191
Mof_C 	C 	0.1411	0.1196	0.1863	-0.183
Mof_C 	C 	0.3963	0.2262	0.3296	-0.183
Mof_C 	C 	0.43	0.1637	0.1682	-0.173
Mof_C 	C 	0.4166	0.103	0.3486	-0.202
Mof_C 	C 	0.349	0.0754	0.1858	-0.164
Mof_N 	N 	0.30229	0.1397	0.3505	-0.241
Mof_N 	N 	0.20818	0.157	0.3475	-0.237
Mof_N 	N 	0.31222	0.2003	0.1804	-0.206
Mof_N 	N 	0.21834	0.2181	0.1797	-0.206
Mof_N 	N 	0.1585	0.3244	0.3709	-0.085
Mof_N 	N 	0.4236	0.2678	0.6092	-0.217
Mof_N 	N 	0.5497	0.3337	0.3884	-0.209
Mof_N 	N 	0.1363	0.0738	0.1451	-0.074
Mof_N 	N 	0.4139	0.269	0.3663	-0.23
Mof_N 	N 	0.465	0.1712	0.1166	-0.137
Mof_N 	N 	0.4421	0.0745	0.4014	-0.192
Mof_N 	N 	0.337	0.0325	0.1449	-0.06
Mof_O 	O 	0.4989	0.4317	0.509	-0.241
Mof_O 	O 	0.5469	0.0816	0.0755	-0.236
Mof_Eu	Eu	0.46695	0.82855	0.98257	1.252
Mof_Ru	Ru	0.14885	0.69859	0.75917	1.002
Mof_Ru	Ru	0.37055	0.65115	0.7609	0.996
Mof_C 	C 	0.2578	0.6619	0.8119	0.082
Mof_C 	C 	0.2968	0.6095	0.9355	0.269
Mof_H 	H 	0.3268	0.5937	0.9661	-0.111
Mof_C 	C 	0.2478	0.6014	0.978	-0.535
Mof_H 	H 	0.2444	0.5802	0.0365	0.289
Mof_C 	C 	0.2037	0.6254	0.9324	0.264
Mof_H 	H 	0.1703	0.6199	0.9603	-0.108
Mof_C 	C 	0.2635	0.6957	0.7192	0.068
Mof_C 	C 	0.3169	0.7318	0.5979	0.133
Mof_H 	H 	0.3504	0.7368	0.5703	-0.042
Mof_C 	C 	0.2735	0.7573	0.5523	-0.21
Mof_H 	H 	0.2774	0.7793	0.4946	0.1
Mof_C 	C 	0.2238	0.7493	0.5949	0.127
Mof_H 	H 	0.1939	0.7656	0.5648	-0.04
Mof_C 	C 	0.1553	0.7794	0.832	-0.199
Mof_C 	C 	0.398	0.7398	0.1649	-0.187
Mof_C 	C 	0.5864	0.8227	0.8412	-0.212
Mof_C 	C 	0.1411	0.6196	0.6863	-0.206
Mof_C 	C 	0.3963	0.7262	0.8296	-0.204
Mof_C 	C 	0.43	0.6637	0.6682	-0.179
Mof_C 	C 	0.4166	0.603	0.8486	-0.209
Mof_C 	C 	0.349	0.5754	0.6858	-0.175
Mof_N 	N 	0.30229	0.6397	0.8505	-0.274
Mof_N 	N 	0.20818	0.657	0.8475	-0.269
Mof_N 	N 	0.31222	0.7003	0.6804	-0.241
Mof_N 	N 	0.21834	0.7181	0.6797	-0.238
Mof_N 	N 	0.1585	0.8244	0.8709	-0.091
Mof_N 	N 	0.4236	0.7678	0.1092	-0.163
Mof_N 	N 	0.5497	0.8337	0.8884	-0.207
Mof_N 	N 	0.1363	0.5738	0.6451	-0.103
Mof_N 	N 	0.4139	0.769	0.8663	-0.222
Mof_N 	N 	0.465	0.6712	0.6166	-0.183
Mof_N 	N 	0.4421	0.5745	0.9014	-0.196
Mof_N 	N 	0.337	0.5325	0.6449	-0.069
Mof_O 	O 	0.4989	0.9317	0.009	-0.165
Mof_O 	O 	0.5469	0.5816	0.5755	-0.281
Mof_Eu	Eu	0.53305	0.67145	0.48257	1.532
Mof_Ru	Ru	0.85115	0.80141	0.25917	1.015
Mof_Ru	Ru	0.62945	0.84885	0.2609	1.005
Mof_C 	C 	0.7422	0.8381	0.3119	0.081
Mof_C 	C 	0.7032	0.8905	0.4355	0.124
Mof_H 	H 	0.6732	0.9063	0.4661	-0.026
Mof_C 	C 	0.7522	0.8986	0.478	-0.194
Mof_H 	H 	0.7556	0.9198	0.5365	0.104
Mof_C 	C 	0.7963	0.8746	0.4324	0.123
Mof_H 	H 	0.8297	0.8801	0.4603	-0.018
Mof_C 	C 	0.7365	0.8043	0.2192	0.064
Mof_C 	C 	0.6831	0.7682	0.0979	-0.01
Mof_H 	H 	0.6496	0.7632	0.0703	0.043
Mof_C 	C 	0.7265	0.7427	0.0523	0.119
Mof_H 	H 	0.7226	0.7207	0.9946	-0.088
Mof_C 	C 	0.7762	0.7507	0.0949	-0.011
Mof_H 	H 	0.8061	0.7344	0.0648	0.04
Mof_C 	C 	0.8447	0.7206	0.332	-0.185
Mof_C 	C 	0.602	0.7602	0.6649	-0.2
Mof_C 	C 	0.4136	0.6773	0.3412	-0.191
Mof_C 	C 	0.8589	0.8804	0.1863	-0.173
Mof_C 	C 	0.6037	0.7738	0.3296	-0.183
Mof_C 	C 	0.57	0.8363	0.1682	-0.169
Mof_C 	C 	0.5834	0.897	0.3486	-0.194
Mof_C 	C 	0.651	0.9246	0.1858	-0.155
Mof_N 	N 	0.69771	0.8603	0.3505	-0.241
Mof_N 	N 	0.79182	0.843	0.3475	-0.236
Mof_N 	N 	0.68778	0.7997	0.1804	-0.207
Mof_N 	N 	0.78166	0.7819	0.1797	-0.207
Mof_N 	N 	0.8415	0.6756	0.3709	-0.081
Mof_N 	N 	0.5764	0.7322	0.6092	-0.216
Mof_N 	N 	0.4503	0.6663	0.3884	-0.209
Mof_N 	N 	0.8637	0.9262	0.1451	-0.057
Mof_N 	N 	0.5861	0.731	0.3663	-0.23
Mof_N 	N 	0.535	0.8288	0.1166	-0.138
Mof_N 	N 	0.5579	0.9255	0.4014	-0.177
Mof_N 	N 	0.663	0.9675	0.1449	-0.043
Mof_O 	O 	0.5011	0.5683	0.509	-0.241
Mof_O 	O 	0.4531	0.9184	0.0755	-0.217
Mof_Eu	Eu	0.53305	0.17145	0.98257	1.228
Mof_Ru	Ru	0.85115	0.30141	0.75917	1.003
Mof_Ru	Ru	0.62945	0.34885	0.7609	0.995
Mof_C 	C 	0.7422	0.3381	0.8119	0.082
Mof_C 	C 	0.7032	0.3905	0.9355	0.268
Mof_H 	H 	0.6732	0.4063	0.9661	-0.11
Mof_C 	C 	0.7522	0.3986	0.978	-0.533
Mof_H 	H 	0.7556	0.4198	0.0365	0.289
Mof_C 	C 	0.7963	0.3746	0.9324	0.263
Mof_H 	H 	0.8297	0.3801	0.9603	-0.105
Mof_C 	C 	0.7365	0.3043	0.7192	0.066
Mof_C 	C 	0.6831	0.2682	0.5979	0.131
Mof_H 	H 	0.6496	0.2632	0.5703	-0.044
Mof_C 	C 	0.7265	0.2427	0.5523	-0.212
Mof_H 	H 	0.7226	0.2207	0.4946	0.095
Mof_C 	C 	0.7762	0.2507	0.5949	0.125
Mof_H 	H 	0.8061	0.2344	0.5648	-0.044
Mof_C 	C 	0.8447	0.2206	0.832	-0.2
Mof_C 	C 	0.602	0.2602	0.1649	-0.189
Mof_C 	C 	0.4136	0.1773	0.8412	-0.217
Mof_C 	C 	0.8589	0.3804	0.6863	-0.201
Mof_C 	C 	0.6037	0.2738	0.8296	-0.207
Mof_C 	C 	0.57	0.3363	0.6682	-0.18
Mof_C 	C 	0.5834	0.397	0.8486	-0.209
Mof_C 	C 	0.651	0.4246	0.6858	-0.175
Mof_N 	N 	0.69771	0.3603	0.8505	-0.274
Mof_N 	N 	0.79182	0.343	0.8475	-0.268
Mof_N 	N 	0.68778	0.2997	0.6804	-0.241
Mof_N 	N 	0.78166	0.2819	0.6797	-0.239
Mof_N 	N 	0.8415	0.1756	0.8709	-0.099
Mof_N 	N 	0.5764	0.2322	0.1092	-0.163
Mof_N 	N 	0.4503	0.1663	0.8884	-0.209
Mof_N 	N 	0.8637	0.4262	0.6451	-0.098
Mof_N 	N 	0.5861	0.231	0.8663	-0.224
Mof_N 	N 	0.535	0.3288	0.6166	-0.183
Mof_N 	N 	0.5579	0.4255	0.9014	-0.196
Mof_N 	N 	0.663	0.4675	0.6449	-0.069
Mof_O 	O 	0.5011	0.0683	0.009	-0.185
Mof_O 	O 	0.4531	0.4184	0.5755	-0.281
Mof_Eu	Eu	-2.33516e-33	0.5	0.48389	0.947
Mof_Eu	Eu	1.99742e-33	6.63505e-33	0.98389	0.761
Mof_Eu	Eu	0.5	3.31752e-33	0.48389	0.928
Mof_Eu	Eu	0.5	0.5	0.98389	0.874
_end
