data_functionalizedCrystal
_audit_creation_method	'EQeq! by Chris Wilmer'
_symmetry_space_group_name_H-M	'P1'
_symmetry_Int_Tables_number	1
_symmetry_cell_setting	triclinic
loop_
_symmetry_equiv_pos_as_xyz
  x,y,z
_cell_length_a	15.122
_cell_length_b	15.167
_cell_length_c	15.242
_cell_angle_alpha	106.199
_cell_angle_beta	103.35
_cell_angle_gamma	116.99
loop_
_atom_site_label
_atom_site_type_symbol
_atom_site_fract_x
_atom_site_fract_y
_atom_site_fract_z
_atom_site_charge
Mof_Pr	Pr	0.81893	0.11428	0.68211	2.768
Mof_Pr	Pr	0.55711	0.86584	0.69764	2.721
Mof_Pr	Pr	0.41521	0.06337	0.64476	2.627
Mof_Pr	Pr	0.18107	0.88572	0.31789	2.768
Mof_Pr	Pr	0.44289	0.13416	0.30236	2.721
Mof_Pr	Pr	0.58479	0.93663	0.35524	2.627
Mof_P 	P 	0.6167	0.1424	0.5236	0.593
Mof_P 	P 	0.6949	0.1742	0.8037	0.522
Mof_P 	P 	0.6253	0.8084	0.5185	0.537
Mof_P 	P 	0.3833	0.8576	0.4764	0.593
Mof_P 	P 	0.3051	0.8258	0.1963	0.522
Mof_P 	P 	0.3747	0.1916	0.4815	0.537
Mof_H 	H 	0.7991	0.6269	0.0653	0.257
Mof_H 	H 	0.7513	0.3191	0.7111	0.123
Mof_H 	H 	0.6583	0.0967	0.9392	0.112
Mof_H 	H 	0.8394	0.8918	0.5558	0.109
Mof_H 	H 	0.6731	0.3145	0.5284	0.087
Mof_H 	H 	0.7734	0.3043	0.5569	0.095
Mof_H 	H 	0.8461	0.5124	0.6941	0.04
Mof_H 	H 	0.9063	0.4529	0.7091	0.043
Mof_H 	H 	0.9657	0.5949	0.8654	0.058
Mof_H 	H 	0.9041	0.4799	0.8668	0.079
Mof_H 	H 	0.8048	0.5973	0.8401	0.079
Mof_H 	H 	0.6412	0.4515	0.8169	0.052
Mof_H 	H 	0.694	0.3861	0.8349	0.055
Mof_H 	H 	0.5892	0.3147	0.6599	0.021
Mof_H 	H 	0.6622	0.4323	0.6667	0.044
Mof_H 	H 	0.8374	0.2217	0.9479	0.103
Mof_H 	H 	0.8018	0.3036	0.9727	0.101
Mof_H 	H 	0.718	0.2932	0.0809	0.061
Mof_H 	H 	0.6139	0.223	0.9787	0.047
Mof_H 	H 	0.5657	0.1935	0.1074	0.018
Mof_H 	H 	0.5298	0.0827	0.0244	0.032
Mof_H 	H 	0.7141	0.2063	0.2062	0.102
Mof_H 	H 	0.7662	0.0882	0.1632	0.026
Mof_H 	H 	0.6628	0.0127	0.0607	0.036
Mof_H 	H 	0.8099	0.1163	0.0322	0.068
Mof_H 	H 	0.8375	0.225	0.1119	0.058
Mof_H 	H 	0.6703	0.6807	0.4864	0.1
Mof_H 	H 	0.7189	0.7471	0.6025	0.097
Mof_H 	H 	0.8876	0.7546	0.6002	0.054
Mof_H 	H 	0.9046	0.8544	0.6832	0.059
Mof_H 	H 	0.0714	0.8976	0.6719	0.032
Mof_H 	H 	0.0362	0.9717	0.6418	0.045
Mof_H 	H 	0.0055	0.7859	0.5049	0.097
Mof_H 	H 	0.9235	0.8115	0.3738	0.017
Mof_H 	H 	0.942	0.9172	0.4497	0.034
Mof_H 	H 	0.7623	0.7731	0.3902	0.044
Mof_H 	H 	0.8007	0.703	0.4243	0.058
Mof_H 	H 	0.0002	0.1655	0.0291	0.044
Mof_H 	H 	0.1288	0.175	0.1578	0.038
Mof_H 	H 	0.2406	0.0697	0.9616	0.039
Mof_H 	H 	0.0618	0.0052	0.8782	0.046
Mof_H 	H 	0.0119	0.4106	0.5831	0.039
Mof_H 	H 	0.1577	0.5502	0.5725	0.042
Mof_H 	H 	0.3694	0.5784	0.8179	0.044
Mof_H 	H 	0.2169	0.444	0.8289	0.04
Mof_H 	H 	0.2009	0.3731	0.9347	0.258
Mof_H 	H 	0.2487	0.6809	0.2889	0.124
Mof_H 	H 	0.3417	0.9033	0.0608	0.113
Mof_H 	H 	0.1606	0.1082	0.4442	0.11
Mof_H 	H 	0.3269	0.6855	0.4716	0.088
Mof_H 	H 	0.2266	0.6957	0.4431	0.096
Mof_H 	H 	0.1539	0.4876	0.3059	0.041
Mof_H 	H 	0.0937	0.5471	0.2909	0.044
Mof_H 	H 	0.0343	0.4051	0.1346	0.058
Mof_H 	H 	0.0959	0.5201	0.1332	0.079
Mof_H 	H 	0.1952	0.4027	0.1599	0.079
Mof_H 	H 	0.3588	0.5485	0.1831	0.052
Mof_H 	H 	0.306	0.6139	0.1651	0.055
Mof_H 	H 	0.4108	0.6853	0.3401	0.021
Mof_H 	H 	0.3378	0.5677	0.3333	0.044
Mof_H 	H 	0.1626	0.7783	0.0521	0.103
Mof_H 	H 	0.1982	0.6964	0.0273	0.101
Mof_H 	H 	0.282	0.7068	0.9191	0.061
Mof_H 	H 	0.3861	0.777	0.0213	0.047
Mof_H 	H 	0.4343	0.8065	0.8926	0.018
Mof_H 	H 	0.4702	0.9173	0.9756	0.032
Mof_H 	H 	0.2859	0.7937	0.7938	0.102
Mof_H 	H 	0.2338	0.9118	0.8368	0.026
Mof_H 	H 	0.3372	0.9873	0.9393	0.036
Mof_H 	H 	0.1901	0.8837	0.9678	0.068
Mof_H 	H 	0.1625	0.775	0.8881	0.058
Mof_H 	H 	0.3297	0.3193	0.5136	0.1
Mof_H 	H 	0.2811	0.2529	0.3975	0.097
Mof_H 	H 	0.1124	0.2454	0.3998	0.054
Mof_H 	H 	0.0954	0.1456	0.3168	0.059
Mof_H 	H 	0.9286	0.1024	0.3281	0.032
Mof_H 	H 	0.9638	0.0283	0.3582	0.045
Mof_H 	H 	0.9945	0.2141	0.4951	0.097
Mof_H 	H 	0.0765	0.1885	0.6262	0.017
Mof_H 	H 	0.058	0.0828	0.5503	0.034
Mof_H 	H 	0.2377	0.2269	0.6098	0.044
Mof_H 	H 	0.1993	0.297	0.5757	0.058
Mof_H 	H 	0.9998	0.8345	0.9709	0.044
Mof_H 	H 	0.8712	0.825	0.8422	0.038
Mof_H 	H 	0.7594	0.9303	0.0384	0.039
Mof_H 	H 	0.9382	0.9948	0.1218	0.046
Mof_H 	H 	0.9881	0.5894	0.4169	0.039
Mof_H 	H 	0.8423	0.4498	0.4275	0.042
Mof_H 	H 	0.6306	0.4216	0.1821	0.044
Mof_H 	H 	0.7831	0.556	0.1711	0.04
Mof_C 	C 	0.7085	0.2898	0.5678	-0.227
Mof_C 	C 	0.8532	0.4656	0.7238	-0.036
Mof_C 	C 	0.8953	0.5259	0.8369	-0.099
Mof_C 	C 	0.807	0.5443	0.8629	-0.125
Mof_C 	C 	0.6944	0.4362	0.8066	-0.082
Mof_C 	C 	0.662	0.3817	0.6943	-0.026
Mof_C 	C 	0.842	0.589	0.976	0.376
Mof_C 	C 	0.7747	0.227	0.9392	-0.216
Mof_C 	C 	0.6605	0.2191	0.0313	-0.085
Mof_C 	C 	0.5927	0.1533	0.0758	0.008
Mof_C 	C 	0.6579	0.1347	0.1518	-0.237
Mof_C 	C 	0.7165	0.0881	0.1096	0.002
Mof_C 	C 	0.7782	0.1519	0.0617	-0.088
Mof_C 	C 	0.5913	0.0676	0.1953	0.49
Mof_C 	C 	0.7094	0.7536	0.5399	-0.228
Mof_C 	C 	0.905	0.8284	0.6183	-0.081
Mof_C 	C 	0.0174	0.8973	0.6223	-0.013
Mof_C 	C 	0.0197	0.8584	0.5205	-0.221
Mof_C 	C 	0.9263	0.8449	0.4387	-0.004
Mof_C 	C 	0.819	0.7768	0.44	-0.082
Mof_C 	C 	0.1303	0.9326	0.5228	0.495
Mof_C 	C 	0.9549	0.0971	0.8339	0.342
Mof_C 	C 	0.0411	0.1088	0.9202	-0.061
Mof_C 	C 	0.0477	0.1426	0.0162	-0.024
Mof_C 	C 	0.125	0.1515	0.0908	-0.013
Mof_C 	C 	0.1965	0.1204	0.0715	-0.075
Mof_C 	C 	0.1912	0.0899	0.9742	-0.022
Mof_C 	C 	0.1122	0.0808	0.8939	-0.03
Mof_C 	C 	0.2771	0.1231	0.1489	0.342
Mof_C 	C 	0.0085	0.3229	0.7078	0.309
Mof_C 	C 	0.1028	0.4157	0.7049	-0.07
Mof_C 	C 	0.0858	0.4476	0.6331	-0.021
Mof_C 	C 	0.1693	0.5271	0.6251	-0.029
Mof_C 	C 	0.2767	0.5802	0.6957	-0.069
Mof_C 	C 	0.2957	0.5442	0.7688	-0.028
Mof_C 	C 	0.2066	0.4631	0.7733	-0.022
Mof_C 	C 	0.3703	0.6685	0.6894	0.318
Mof_C 	C 	0.2915	0.7102	0.4322	-0.227
Mof_C 	C 	0.1468	0.5344	0.2762	-0.036
Mof_C 	C 	0.1047	0.4741	0.1631	-0.099
Mof_C 	C 	0.193	0.4557	0.1371	-0.125
Mof_C 	C 	0.3056	0.5638	0.1934	-0.082
Mof_C 	C 	0.338	0.6183	0.3057	-0.026
Mof_C 	C 	0.158	0.411	0.024	0.376
Mof_C 	C 	0.2253	0.773	0.0608	-0.216
Mof_C 	C 	0.3395	0.7809	0.9687	-0.085
Mof_C 	C 	0.4073	0.8467	0.9242	0.008
Mof_C 	C 	0.3421	0.8653	0.8482	-0.237
Mof_C 	C 	0.2835	0.9119	0.8904	0.002
Mof_C 	C 	0.2218	0.8481	0.9383	-0.088
Mof_C 	C 	0.4087	0.9324	0.8047	0.49
Mof_C 	C 	0.2906	0.2464	0.4601	-0.228
Mof_C 	C 	0.095	0.1716	0.3817	-0.081
Mof_C 	C 	0.9826	0.1027	0.3777	-0.013
Mof_C 	C 	0.9803	0.1416	0.4795	-0.221
Mof_C 	C 	0.0737	0.1551	0.5613	-0.004
Mof_C 	C 	0.181	0.2232	0.56	-0.082
Mof_C 	C 	0.8697	0.0674	0.4772	0.495
Mof_C 	C 	0.0451	0.9029	0.1661	0.342
Mof_C 	C 	0.9589	0.8912	0.0798	-0.061
Mof_C 	C 	0.9523	0.8574	0.9838	-0.024
Mof_C 	C 	0.875	0.8485	0.9092	-0.013
Mof_C 	C 	0.8035	0.8796	0.9285	-0.075
Mof_C 	C 	0.8088	0.9101	0.0258	-0.022
Mof_C 	C 	0.8878	0.9192	0.1061	-0.03
Mof_C 	C 	0.7229	0.8769	0.8511	0.342
Mof_C 	C 	0.9915	0.6771	0.2922	0.309
Mof_C 	C 	0.8972	0.5843	0.2951	-0.07
Mof_C 	C 	0.9142	0.5524	0.3669	-0.021
Mof_C 	C 	0.8307	0.4729	0.3749	-0.029
Mof_C 	C 	0.7233	0.4198	0.3043	-0.069
Mof_C 	C 	0.7043	0.4558	0.2312	-0.028
Mof_C 	C 	0.7934	0.5369	0.2267	-0.022
Mof_C 	C 	0.6297	0.3315	0.3106	0.318
Mof_N 	N 	0.7453	0.3586	0.6773	-0.145
Mof_N 	N 	0.7127	0.1654	0.9868	-0.127
Mof_N 	N 	0.8221	0.8225	0.5409	-0.126
Mof_N 	N 	0.2547	0.6414	0.3227	-0.145
Mof_N 	N 	0.2873	0.8346	0.0132	-0.127
Mof_N 	N 	0.1779	0.1775	0.4591	-0.126
Mof_O 	O 	0.5582	0.0983	0.4113	-0.733
Mof_O 	O 	0.5452	0.1263	0.5798	-0.621
Mof_O 	O 	0.6825	0.0914	0.5375	-0.741
Mof_O 	O 	0.9266	0.6076	0.0338	-0.28
Mof_O 	O 	0.774	0.603	0.0014	-0.467
Mof_O 	O 	0.7793	0.2485	0.774	-0.505
Mof_O 	O 	0.6715	0.0579	0.7521	-0.759
Mof_O 	O 	0.5925	0.1743	0.7866	-0.561
Mof_O 	O 	0.498	0.05	0.1811	-0.573
Mof_O 	O 	0.6282	0.0264	0.2436	-0.577
Mof_O 	O 	0.6134	0.8163	0.4213	-0.561
Mof_O 	O 	0.6879	0.9223	0.6101	-0.768
Mof_O 	O 	0.5236	0.7358	0.5298	-0.513
Mof_O 	O 	0.2135	0.9619	0.5971	-0.575
Mof_O 	O 	0.1357	0.9604	0.4544	-0.595
Mof_O 	O 	0.9142	0.2746	0.6377	-0.477
Mof_O 	O 	0.0213	0.2908	0.7744	-0.433
Mof_O 	O 	0.3512	0.7176	0.6415	-0.474
Mof_O 	O 	0.4647	0.6943	0.7357	-0.449
Mof_O 	O 	0.9418	0.0532	0.7447	-0.479
Mof_O 	O 	0.9021	0.1358	0.8543	-0.51
Mof_O 	O 	0.3012	0.1794	0.2411	-0.471
Mof_O 	O 	0.3183	0.0725	0.126	-0.495
Mof_O 	O 	0.4418	0.9017	0.5887	-0.733
Mof_O 	O 	0.4548	0.8737	0.4202	-0.621
Mof_O 	O 	0.3175	0.9086	0.4625	-0.741
Mof_O 	O 	0.0734	0.3924	0.9662	-0.28
Mof_O 	O 	0.226	0.397	0.9986	-0.467
Mof_O 	O 	0.2207	0.7515	0.226	-0.505
Mof_O 	O 	0.3285	0.9421	0.2479	-0.759
Mof_O 	O 	0.4075	0.8257	0.2134	-0.561
Mof_O 	O 	0.502	0.95	0.8189	-0.573
Mof_O 	O 	0.3718	0.9736	0.7564	-0.577
Mof_O 	O 	0.3866	0.1837	0.5787	-0.561
Mof_O 	O 	0.3121	0.0777	0.3899	-0.768
Mof_O 	O 	0.4764	0.2642	0.4702	-0.513
Mof_O 	O 	0.7865	0.0381	0.4029	-0.575
Mof_O 	O 	0.8643	0.0396	0.5456	-0.595
Mof_O 	O 	0.0858	0.7254	0.3623	-0.477
Mof_O 	O 	0.9787	0.7092	0.2256	-0.433
Mof_O 	O 	0.6488	0.2824	0.3585	-0.474
Mof_O 	O 	0.5353	0.3057	0.2643	-0.449
Mof_O 	O 	0.0582	0.9468	0.2553	-0.479
Mof_O 	O 	0.0979	0.8642	0.1457	-0.51
Mof_O 	O 	0.6988	0.8206	0.7589	-0.471
Mof_O 	O 	0.6817	0.9275	0.874	-0.495
_end
