data_functionalizedCrystal
_audit_creation_method	'EQeq! by Chris Wilmer'
_symmetry_space_group_name_H-M	'P1'
_symmetry_Int_Tables_number	1
_symmetry_cell_setting	triclinic
loop_
_symmetry_equiv_pos_as_xyz
  x,y,z
_cell_length_a	14.5665
_cell_length_b	14.5665
_cell_length_c	31.6835
_cell_angle_alpha	90
_cell_angle_beta	90
_cell_angle_gamma	120
loop_
_atom_site_label
_atom_site_type_symbol
_atom_site_fract_x
_atom_site_fract_y
_atom_site_fract_z
_atom_site_charge
Mof_Ga	Ga	0.92568	0.07432	0.25	3.157
Mof_Ga	Ga	0.14864	0.07432	0.25	3.051
Mof_Ga	Ga	0.92568	0.85136	0.25	3.384
Mof_Ga	Ga	0.07432	0.92568	0.75	3.159
Mof_Ga	Ga	0.85136	0.92568	0.75	3.385
Mof_Ga	Ga	0.07432	0.14864	0.75	3.058
Mof_Ga	Ga	0.58325	0.1665	0.41509	3.455
Mof_Ga	Ga	0.58325	0.41674	0.41509	3.448
Mof_Ga	Ga	0.83349	0.41674	0.41509	3.437
Mof_Ga	Ga	0.41675	0.8335	0.91509	3.405
Mof_Ga	Ga	0.41675	0.58326	0.91509	3.416
Mof_Ga	Ga	0.16651	0.58326	0.91509	3.423
Mof_Ga	Ga	0.41675	0.8335	0.58491	3.435
Mof_Ga	Ga	0.16651	0.58326	0.58491	3.453
Mof_Ga	Ga	0.41675	0.58326	0.58491	3.447
Mof_Ga	Ga	0.58325	0.1665	0.08491	3.418
Mof_Ga	Ga	0.83349	0.41674	0.08491	3.401
Mof_Ga	Ga	0.58325	0.41674	0.08491	3.411
Mof_Ga	Ga	0.5	0	0.5	4.181
Mof_Ga	Ga	0.5	0.5	0.5	4.358
Mof_Ga	Ga	-1.60239e-17	0.5	0.5	4.19
Mof_Ga	Ga	0.5	0	-0	3.562
Mof_Ga	Ga	0.5	0.5	-0	3.74
Mof_Ga	Ga	-0	0.5	-0	3.59
Mof_H 	H 	0.7234	0	0.3552	-0.203
Mof_H 	H 	0.2766	0.2766	0.3552	-0.128
Mof_H 	H 	-1.65073e-17	0.7234	0.3552	-0.145
Mof_H 	H 	0.2766	0	0.8552	-0.121
Mof_H 	H 	0.7234	0.7234	0.8552	-0.124
Mof_H 	H 	2.60498e-17	0.2766	0.8552	-0.179
Mof_H 	H 	0.7234	0	0.6448	-0.146
Mof_H 	H 	-9.36487e-17	0.7234	0.6448	-0.2
Mof_H 	H 	0.2766	0.2766	0.6448	-0.128
Mof_H 	H 	0.2766	-4.33587e-33	0.1448	-0.197
Mof_H 	H 	2.00104e-17	0.2766	0.1448	-0.132
Mof_H 	H 	0.7234	0.7234	0.1448	-0.136
Mof_H 	H 	0.2766	0	0.6448	-0.135
Mof_H 	H 	0.7234	0.7234	0.6448	-0.137
Mof_H 	H 	2.35135e-17	0.2766	0.6448	-0.193
Mof_H 	H 	0.7234	-4.33587e-33	0.1448	-0.202
Mof_H 	H 	0.2766	0.2766	0.1448	-0.126
Mof_H 	H 	-3.85707e-17	0.7234	0.1448	-0.143
Mof_H 	H 	0.2766	0	0.3552	-0.197
Mof_H 	H 	4.20738e-17	0.2766	0.3552	-0.134
Mof_H 	H 	0.7234	0.7234	0.3552	-0.137
Mof_H 	H 	0.7234	0	0.8552	-0.132
Mof_H 	H 	6.52279e-18	0.7234	0.8552	-0.187
Mof_H 	H 	0.2766	0.2766	0.8552	-0.115
Mof_H 	H 	0.5749	0.78745	0.4477	-0.111
Mof_H 	H 	0.21255	0.4251	0.4477	-0.095
Mof_H 	H 	0.21255	0.78745	0.4477	-0.107
Mof_H 	H 	0.4251	0.21255	0.9477	-0.054
Mof_H 	H 	0.78745	0.5749	0.9477	-0.069
Mof_H 	H 	0.78745	0.21255	0.9477	-0.065
Mof_H 	H 	0.78745	0.21255	0.5523	-0.107
Mof_H 	H 	0.78745	0.5749	0.5523	-0.11
Mof_H 	H 	0.4251	0.21255	0.5523	-0.095
Mof_H 	H 	0.21255	0.78745	0.0523	-0.123
Mof_H 	H 	0.21255	0.4251	0.0523	-0.111
Mof_H 	H 	0.5749	0.78745	0.0523	-0.127
Mof_C 	C 	0.6105	0.9752	0.425	0.975
Mof_C 	C 	0.7044	0.9351	0.3678	0.539
Mof_C 	C 	0.646	0.9057	0.4051	-0.583
Mof_C 	C 	0.3647	0.3895	0.425	0.907
Mof_C 	C 	0.2307	0.2956	0.3678	0.4
Mof_C 	C 	0.2597	0.354	0.4051	-0.522
Mof_C 	C 	0.0248	0.6353	0.425	0.864
Mof_C 	C 	0.0649	0.7693	0.3678	0.433
Mof_C 	C 	0.0943	0.7403	0.4051	-0.537
Mof_C 	C 	0.3895	0.0248	0.925	0.794
Mof_C 	C 	0.2956	0.0649	0.8678	0.364
Mof_C 	C 	0.354	0.0943	0.9051	-0.456
Mof_C 	C 	0.6353	0.6105	0.925	0.86
Mof_C 	C 	0.7693	0.7044	0.8678	0.417
Mof_C 	C 	0.7403	0.646	0.9051	-0.495
Mof_C 	C 	0.9752	0.3647	0.925	0.904
Mof_C 	C 	0.9351	0.2307	0.8678	0.484
Mof_C 	C 	0.9057	0.2597	0.9051	-0.518
Mof_C 	C 	0.6353	0.0248	0.575	0.861
Mof_C 	C 	0.7693	0.0649	0.6322	0.431
Mof_C 	C 	0.7403	0.0943	0.5949	-0.535
Mof_C 	C 	0.9752	0.6105	0.575	0.972
Mof_C 	C 	0.9351	0.7044	0.6322	0.534
Mof_C 	C 	0.9057	0.646	0.5949	-0.581
Mof_C 	C 	0.3895	0.3647	0.575	0.907
Mof_C 	C 	0.2956	0.2307	0.6322	0.4
Mof_C 	C 	0.354	0.2597	0.5949	-0.522
Mof_C 	C 	0.3647	0.9752	0.075	0.932
Mof_C 	C 	0.2307	0.9351	0.1322	0.516
Mof_C 	C 	0.2597	0.9057	0.0949	-0.571
Mof_C 	C 	0.0248	0.3895	0.075	0.82
Mof_C 	C 	0.0649	0.2956	0.1322	0.385
Mof_C 	C 	0.0943	0.354	0.0949	-0.506
Mof_C 	C 	0.6105	0.6353	0.075	0.883
Mof_C 	C 	0.7044	0.7693	0.1322	0.44
Mof_C 	C 	0.646	0.7403	0.0949	-0.545
Mof_C 	C 	0.3895	0.0248	0.575	0.853
Mof_C 	C 	0.2956	0.0649	0.6322	0.394
Mof_C 	C 	0.354	0.0943	0.5949	-0.512
Mof_C 	C 	0.6353	0.6105	0.575	0.922
Mof_C 	C 	0.7693	0.7044	0.6322	0.447
Mof_C 	C 	0.7403	0.646	0.5949	-0.551
Mof_C 	C 	0.9752	0.3647	0.575	0.964
Mof_C 	C 	0.9351	0.2307	0.6322	0.515
Mof_C 	C 	0.9057	0.2597	0.5949	-0.573
Mof_C 	C 	0.6105	0.9752	0.075	0.938
Mof_C 	C 	0.7044	0.9351	0.1322	0.531
Mof_C 	C 	0.646	0.9057	0.0949	-0.577
Mof_C 	C 	0.3647	0.3895	0.075	0.868
Mof_C 	C 	0.2307	0.2956	0.1322	0.391
Mof_C 	C 	0.2597	0.354	0.0949	-0.516
Mof_C 	C 	0.0248	0.6353	0.075	0.829
Mof_C 	C 	0.0649	0.7693	0.1322	0.425
Mof_C 	C 	0.0943	0.7403	0.0949	-0.532
Mof_C 	C 	0.3647	0.9752	0.425	0.968
Mof_C 	C 	0.2307	0.9351	0.3678	0.522
Mof_C 	C 	0.2597	0.9057	0.4051	-0.576
Mof_C 	C 	0.0248	0.3895	0.425	0.855
Mof_C 	C 	0.0649	0.2956	0.3678	0.394
Mof_C 	C 	0.0943	0.354	0.4051	-0.512
Mof_C 	C 	0.6105	0.6353	0.425	0.922
Mof_C 	C 	0.7044	0.7693	0.3678	0.449
Mof_C 	C 	0.646	0.7403	0.4051	-0.552
Mof_C 	C 	0.6353	0.0248	0.925	0.802
Mof_C 	C 	0.7693	0.0649	0.8678	0.4
Mof_C 	C 	0.7403	0.0943	0.9051	-0.48
Mof_C 	C 	0.9752	0.6105	0.925	0.912
Mof_C 	C 	0.9351	0.7044	0.8678	0.504
Mof_C 	C 	0.9057	0.646	0.9051	-0.526
Mof_C 	C 	0.3895	0.3647	0.925	0.846
Mof_C 	C 	0.2956	0.2307	0.8678	0.37
Mof_C 	C 	0.354	0.2597	0.9051	-0.466
Mof_C 	C 	0.7995	0.89975	0.3095	0.839
Mof_C 	C 	0.7344	0.8672	0.3493	-0.538
Mof_C 	C 	0.6156	0.8078	0.4233	0.479
Mof_C 	C 	0.10025	0.2005	0.3095	0.797
Mof_C 	C 	0.1328	0.2656	0.3493	-0.487
Mof_C 	C 	0.1922	0.3844	0.4233	0.422
Mof_C 	C 	0.10025	0.89975	0.3095	0.83
Mof_C 	C 	0.1328	0.8672	0.3493	-0.535
Mof_C 	C 	0.1922	0.8078	0.4233	0.463
Mof_C 	C 	0.2005	0.10025	0.8095	0.791
Mof_C 	C 	0.2656	0.1328	0.8493	-0.461
Mof_C 	C 	0.3844	0.1922	0.9233	0.375
Mof_C 	C 	0.89975	0.7995	0.8095	0.83
Mof_C 	C 	0.8672	0.7344	0.8493	-0.51
Mof_C 	C 	0.8078	0.6156	0.9233	0.431
Mof_C 	C 	0.89975	0.10025	0.8095	0.822
Mof_C 	C 	0.8672	0.1328	0.8493	-0.506
Mof_C 	C 	0.8078	0.1922	0.9233	0.413
Mof_C 	C 	0.89975	0.10025	0.6905	0.83
Mof_C 	C 	0.8672	0.1328	0.6507	-0.533
Mof_C 	C 	0.8078	0.1922	0.5767	0.46
Mof_C 	C 	0.89975	0.7995	0.6905	0.838
Mof_C 	C 	0.8672	0.7344	0.6507	-0.536
Mof_C 	C 	0.8078	0.6156	0.5767	0.477
Mof_C 	C 	0.2005	0.10025	0.6905	0.798
Mof_C 	C 	0.2656	0.1328	0.6507	-0.488
Mof_C 	C 	0.3844	0.1922	0.5767	0.421
Mof_C 	C 	0.10025	0.89975	0.1905	0.828
Mof_C 	C 	0.1328	0.8672	0.1507	-0.533
Mof_C 	C 	0.1922	0.8078	0.0767	0.449
Mof_C 	C 	0.10025	0.2005	0.1905	0.795
Mof_C 	C 	0.1328	0.2656	0.1507	-0.485
Mof_C 	C 	0.1922	0.3844	0.0767	0.407
Mof_C 	C 	0.7995	0.89975	0.1905	0.836
Mof_C 	C 	0.7344	0.8672	0.1507	-0.535
Mof_C 	C 	0.6156	0.8078	0.0767	0.464
Mof_O 	O 	0.8247	0.9895	0.29512	-0.934
Mof_O 	O 	0.6233	0.055	0.40455	-1.059
Mof_O 	O 	0.5708	0.9489	0.4611	-1.063
Mof_O 	O 	0.1648	0.1753	0.29512	-0.948
Mof_O 	O 	0.4317	0.3767	0.40455	-1.018
Mof_O 	O 	0.3781	0.4292	0.4611	-1.093
Mof_O 	O 	0.0105	0.8352	0.29512	-1.009
Mof_O 	O 	0.945	0.5683	0.40455	-0.975
Mof_O 	O 	0.0511	0.6219	0.4611	-1.064
Mof_O 	O 	0.1753	0.0105	0.79512	-0.973
Mof_O 	O 	0.3767	0.945	0.90455	-0.942
Mof_O 	O 	0.4292	0.0511	0.9611	-0.895
Mof_O 	O 	0.8352	0.8247	0.79512	-0.987
Mof_O 	O 	0.5683	0.6233	0.90455	-0.983
Mof_O 	O 	0.6219	0.5708	0.9611	-0.925
Mof_O 	O 	0.9895	0.1648	0.79512	-0.928
Mof_O 	O 	0.055	0.4317	0.90455	-1.021
Mof_O 	O 	0.9489	0.3781	0.9611	-0.902
Mof_O 	O 	0.8352	0.0105	0.70488	-1.011
Mof_O 	O 	0.5683	0.945	0.59545	-0.973
Mof_O 	O 	0.6219	0.0511	0.5389	-1.062
Mof_O 	O 	0.9895	0.8247	0.70488	-0.936
Mof_O 	O 	0.055	0.6233	0.59545	-1.057
Mof_O 	O 	0.9489	0.5708	0.5389	-1.064
Mof_O 	O 	0.1753	0.1648	0.70488	-0.95
Mof_O 	O 	0.3767	0.4317	0.59545	-1.018
Mof_O 	O 	0.4292	0.3781	0.5389	-1.093
Mof_O 	O 	0.1648	0.9895	0.20488	-0.927
Mof_O 	O 	0.4317	0.055	0.09545	-1.04
Mof_O 	O 	0.3781	0.9489	0.0389	-0.998
Mof_O 	O 	0.0105	0.1753	0.20488	-0.975
Mof_O 	O 	0.945	0.3767	0.09545	-0.959
Mof_O 	O 	0.0511	0.4292	0.0389	-1.001
Mof_O 	O 	0.8247	0.8352	0.20488	-0.99
Mof_O 	O 	0.6233	0.5683	0.09545	-0.999
Mof_O 	O 	0.5708	0.6219	0.0389	-1.026
Mof_O 	O 	0.1753	0.0105	0.70488	-0.976
Mof_O 	O 	0.3767	0.945	0.59545	-0.974
Mof_O 	O 	0.4292	0.0511	0.5389	-1.062
Mof_O 	O 	0.8352	0.8247	0.70488	-0.99
Mof_O 	O 	0.5683	0.6233	0.59545	-1.018
Mof_O 	O 	0.6219	0.5708	0.5389	-1.092
Mof_O 	O 	0.9895	0.1648	0.70488	-0.931
Mof_O 	O 	0.055	0.4317	0.59545	-1.055
Mof_O 	O 	0.9489	0.3781	0.5389	-1.065
Mof_O 	O 	0.8247	0.9895	0.20488	-0.934
Mof_O 	O 	0.6233	0.055	0.09545	-1.041
Mof_O 	O 	0.5708	0.9489	0.0389	-0.996
Mof_O 	O 	0.1648	0.1753	0.20488	-0.949
Mof_O 	O 	0.4317	0.3767	0.09545	-0.999
Mof_O 	O 	0.3781	0.4292	0.0389	-1.028
Mof_O 	O 	0.0105	0.8352	0.20488	-1.009
Mof_O 	O 	0.945	0.5683	0.09545	-0.958
Mof_O 	O 	0.0511	0.6219	0.0389	-1.001
Mof_O 	O 	0.1648	0.9895	0.29512	-0.927
Mof_O 	O 	0.4317	0.055	0.40455	-1.057
Mof_O 	O 	0.3781	0.9489	0.4611	-1.064
Mof_O 	O 	0.0105	0.1753	0.29512	-0.974
Mof_O 	O 	0.945	0.3767	0.40455	-0.976
Mof_O 	O 	0.0511	0.4292	0.4611	-1.063
Mof_O 	O 	0.8247	0.8352	0.29512	-0.989
Mof_O 	O 	0.6233	0.5683	0.40455	-1.018
Mof_O 	O 	0.5708	0.6219	0.4611	-1.092
Mof_O 	O 	0.8352	0.0105	0.79512	-1.008
Mof_O 	O 	0.5683	0.945	0.90455	-0.94
Mof_O 	O 	0.6219	0.0511	0.9611	-0.895
Mof_O 	O 	0.9895	0.8247	0.79512	-0.933
Mof_O 	O 	0.055	0.6233	0.90455	-1.023
Mof_O 	O 	0.9489	0.5708	0.9611	-0.901
Mof_O 	O 	0.1753	0.1648	0.79512	-0.947
Mof_O 	O 	0.3767	0.4317	0.90455	-0.983
Mof_O 	O 	0.4292	0.3781	0.9611	-0.926
Mof_O 	O 	0.5686	0.1372	0.4745	-1.362
Mof_O 	O 	0.5686	0.4314	0.4745	-1.381
Mof_O 	O 	0.8628	0.4314	0.4745	-1.341
Mof_O 	O 	0.4314	0.8628	0.9745	-1.171
Mof_O 	O 	0.4314	0.5686	0.9745	-1.212
Mof_O 	O 	0.1372	0.5686	0.9745	-1.197
Mof_O 	O 	0.4314	0.8628	0.5255	-1.338
Mof_O 	O 	0.1372	0.5686	0.5255	-1.362
Mof_O 	O 	0.4314	0.5686	0.5255	-1.381
Mof_O 	O 	0.5686	0.1372	0.0255	-1.306
Mof_O 	O 	0.8628	0.4314	0.0255	-1.288
Mof_O 	O 	0.5686	0.4314	0.0255	-1.325
Mof_O 	O 	-4.33587e-33	0	0.25	-1.894
Mof_O 	O 	-0	0	0.75	-1.894
Mof_O 	O 	0.536	0.268	0.4186	-1.369
Mof_O 	O 	0.732	0.464	0.4186	-1.361
Mof_O 	O 	0.732	0.268	0.4186	-1.365
Mof_O 	O 	0.464	0.732	0.9186	-1.34
Mof_O 	O 	0.268	0.536	0.9186	-1.348
Mof_O 	O 	0.268	0.732	0.9186	-1.344
Mof_O 	O 	0.268	0.732	0.5814	-1.364
Mof_O 	O 	0.268	0.536	0.5814	-1.369
Mof_O 	O 	0.464	0.732	0.5814	-1.361
Mof_O 	O 	0.732	0.268	0.0814	-1.365
Mof_O 	O 	0.732	0.464	0.0814	-1.361
Mof_O 	O 	0.536	0.268	0.0814	-1.369
_end
