data_functionalizedCrystal
_audit_creation_method	'EQeq! by Chris Wilmer'
_symmetry_space_group_name_H-M	'P1'
_symmetry_Int_Tables_number	1
_symmetry_cell_setting	triclinic
loop_
_symmetry_equiv_pos_as_xyz
  x,y,z
_cell_length_a	29.524
_cell_length_b	11.342
_cell_length_c	23.007
_cell_angle_alpha	90
_cell_angle_beta	90
_cell_angle_gamma	90
loop_
_atom_site_label
_atom_site_type_symbol
_atom_site_fract_x
_atom_site_fract_y
_atom_site_fract_z
_atom_site_charge
Mof_Cd	Cd	0.11325	0.55651	0.3105	0.514
Mof_Cd	Cd	0.06162	0.73467	0.90868	0.463
Mof_C 	C 	0.04402	0.5377	0.7176	-0.006
Mof_H 	H 	0.0223	0.5285	0.7466	0.041
Mof_C 	C 	0.08295	0.6061	0.7284	-0.063
Mof_C 	C 	0.11621	0.6178	0.6859	-0.034
Mof_H 	H 	0.1417	0.6639	0.6928	0.063
Mof_C 	C 	0.11102	0.5596	0.6325	-0.01
Mof_C 	C 	0.07166	0.4941	0.6223	-0.029
Mof_H 	H 	0.068	0.4563	0.5868	0.05
Mof_C 	C 	0.03784	0.4842	0.6643	-0.076
Mof_C 	C 	0.14537	0.5661	0.5856	0.056
Mof_C 	C 	0.19148	0.5746	0.5986	-0.114
Mof_H 	H 	0.2002	0.5786	0.6374	0.08
Mof_C 	C 	0.22503	0.5773	0.5558	0.055
Mof_C 	C 	0.27411	0.5844	0.5705	0.001
Mof_C 	C 	0.3514	0.6258	0.5413	-0.052
Mof_C 	C 	0.30601	0.6145	0.5282	-0.034
Mof_H 	H 	0.2964	0.6272	0.4903	0.064
Mof_C 	C 	0.352	0.5525	0.7016	0.29
Mof_C 	C 	0.16418	0.5698	0.4837	-0.012
Mof_C 	C 	0.21093	0.5728	0.4972	-0.078
Mof_H 	H 	0.2323	0.5718	0.4675	0.08
Mof_C 	C 	0.13249	0.5651	0.5271	-0.078
Mof_H 	H 	0.1019	0.5613	0.5175	0.069
Mof_C 	C 	0.14964	0.5699	0.4213	0.284
Mof_C 	C 	0.38455	0.6619	0.4946	0.295
Mof_C 	C 	0.0882	0.666	0.787	0.31
Mof_C 	C 	0.99581	0.4157	0.6522	0.306
Mof_O 	O 	0.32381	0.5459	0.74203	-0.245
Mof_O 	O 	0.39376	0.5462	0.71041	-0.276
Mof_O 	O 	0.17691	0.5531	0.38148	-0.237
Mof_O 	O 	0.10774	0.5887	0.41046	-0.281
Mof_O 	O 	0.37193	0.6529	0.44283	-0.261
Mof_O 	O 	0.42285	0.6981	0.50845	-0.288
Mof_O 	O 	0.994	0.3594	0.60484	-0.296
Mof_O 	O 	0.96448	0.4191	0.68914	-0.285
Mof_O 	O 	0.11996	0.7397	0.79324	-0.26
Mof_O 	O 	0.05938	0.6407	0.82444	-0.294
Mof_O 	O 	0.1087	0.3506	0.3211	0.072
Mof_C 	C 	0.28994	0.564	0.6269	-0.035
Mof_H 	H 	0.2694	0.5439	0.6559	0.062
Mof_C 	C 	0.36678	0.6061	0.5979	-0.006
Mof_H 	H 	0.3973	0.6148	0.6068	0.05
Mof_C 	C 	0.33601	0.5733	0.6406	-0.053
Mof_N 	N 	0.029	0.3008	0.381	-0.063
Mof_C 	C 	0.9901	0.2171	0.3765	-0.419
Mof_H 	H 	0.963	0.255	0.3902	0.177
Mof_H 	H 	0.9961	0.1486	0.3998	0.17
Mof_H 	H 	0.9861	0.1941	0.3367	0.158
Mof_C 	C 	0.0382	0.3603	0.4366	-0.416
Mof_H 	H 	0.0602	0.3158	0.4582	0.17
Mof_H 	H 	0.0107	0.366	0.4586	0.17
Mof_H 	H 	0.0498	0.4379	0.4292	0.186
Mof_O 	O 	0.0928	0.3775	0.339	-0.379
Mof_C 	C 	0.0602	0.3126	0.3313	0.418
Mof_C 	C 	0.0535	0.2687	0.2692	-0.944
Mof_H 	H 	0.0432	0.3327	0.2452	0.328
Mof_H 	H 	0.0313	0.2069	0.2689	0.316
Mof_H 	H 	0.0816	0.2391	0.2543	0.326
Mof_Cd	Cd	0.38675	0.94349	0.3105	0.513
Mof_Cd	Cd	0.43838	0.76533	0.90868	0.462
Mof_C 	C 	0.45598	0.9623	0.7176	-0.006
Mof_H 	H 	0.4777	0.9715	0.7466	0.041
Mof_C 	C 	0.41705	0.8939	0.7284	-0.062
Mof_C 	C 	0.38379	0.8822	0.6859	-0.034
Mof_H 	H 	0.3583	0.8361	0.6928	0.063
Mof_C 	C 	0.38898	0.9404	0.6325	-0.01
Mof_C 	C 	0.42834	0.0059	0.6223	-0.029
Mof_H 	H 	0.432	0.0437	0.5868	0.05
Mof_C 	C 	0.46216	0.0158	0.6643	-0.075
Mof_C 	C 	0.35463	0.9339	0.5856	0.055
Mof_C 	C 	0.30852	0.9254	0.5986	-0.114
Mof_H 	H 	0.2998	0.9214	0.6374	0.08
Mof_C 	C 	0.27497	0.9227	0.5558	0.055
Mof_C 	C 	0.22589	0.9156	0.5705	0.001
Mof_C 	C 	0.1486	0.8742	0.5413	-0.052
Mof_C 	C 	0.19399	0.8855	0.5282	-0.034
Mof_H 	H 	0.2036	0.8728	0.4903	0.064
Mof_C 	C 	0.148	0.9475	0.7016	0.29
Mof_C 	C 	0.33582	0.9302	0.4837	-0.012
Mof_C 	C 	0.28907	0.9272	0.4972	-0.078
Mof_H 	H 	0.2677	0.9282	0.4675	0.08
Mof_C 	C 	0.36751	0.9349	0.5271	-0.078
Mof_H 	H 	0.3981	0.9387	0.5175	0.069
Mof_C 	C 	0.35036	0.9301	0.4213	0.284
Mof_C 	C 	0.11545	0.8381	0.4946	0.295
Mof_C 	C 	0.4118	0.834	0.787	0.31
Mof_C 	C 	0.50419	0.0843	0.6522	0.305
Mof_O 	O 	0.17619	0.9541	0.74203	-0.245
Mof_O 	O 	0.10624	0.9538	0.71041	-0.276
Mof_O 	O 	0.32309	0.9469	0.38148	-0.237
Mof_O 	O 	0.39226	0.9113	0.41046	-0.281
Mof_O 	O 	0.12807	0.8471	0.44283	-0.261
Mof_O 	O 	0.07715	0.8019	0.50845	-0.288
Mof_O 	O 	0.506	0.1406	0.60484	-0.296
Mof_O 	O 	0.53552	0.0809	0.68914	-0.285
Mof_O 	O 	0.38004	0.7603	0.79324	-0.26
Mof_O 	O 	0.44062	0.8593	0.82444	-0.294
Mof_O 	O 	0.3913	0.1494	0.3211	0.072
Mof_C 	C 	0.21006	0.936	0.6269	-0.035
Mof_H 	H 	0.2306	0.9561	0.6559	0.062
Mof_C 	C 	0.13322	0.8939	0.5979	-0.006
Mof_H 	H 	0.1027	0.8852	0.6068	0.05
Mof_C 	C 	0.16399	0.9267	0.6406	-0.053
Mof_N 	N 	0.471	0.1992	0.381	-0.063
Mof_C 	C 	0.5099	0.2829	0.3765	-0.419
Mof_H 	H 	0.537	0.245	0.3902	0.177
Mof_H 	H 	0.5039	0.3514	0.3998	0.17
Mof_H 	H 	0.5139	0.3059	0.3367	0.158
Mof_C 	C 	0.4618	0.1397	0.4366	-0.416
Mof_H 	H 	0.4398	0.1842	0.4582	0.17
Mof_H 	H 	0.4893	0.134	0.4586	0.17
Mof_H 	H 	0.4502	0.0621	0.4292	0.186
Mof_O 	O 	0.4072	0.1225	0.339	-0.379
Mof_C 	C 	0.4398	0.1874	0.3313	0.418
Mof_C 	C 	0.4465	0.2313	0.2692	-0.944
Mof_H 	H 	0.4568	0.1673	0.2452	0.328
Mof_H 	H 	0.4687	0.2931	0.2689	0.316
Mof_H 	H 	0.4184	0.2609	0.2543	0.326
Mof_Cd	Cd	0.88675	0.05651	0.1895	0.513
Mof_Cd	Cd	0.93838	0.23467	0.59132	0.462
Mof_C 	C 	0.95598	0.0377	0.7824	-0.005
Mof_H 	H 	0.9777	0.0285	0.7534	0.042
Mof_C 	C 	0.91705	0.1061	0.7716	-0.062
Mof_C 	C 	0.88379	0.1178	0.8141	-0.034
Mof_H 	H 	0.8583	0.1639	0.8072	0.063
Mof_C 	C 	0.88898	0.0596	0.8675	-0.009
Mof_C 	C 	0.92834	0.9941	0.8777	-0.03
Mof_H 	H 	0.932	0.9563	0.9132	0.051
Mof_C 	C 	0.96216	0.9842	0.8357	-0.075
Mof_C 	C 	0.85463	0.0661	0.9144	0.055
Mof_C 	C 	0.80852	0.0746	0.9014	-0.114
Mof_H 	H 	0.7998	0.0786	0.8626	0.08
Mof_C 	C 	0.77497	0.0773	0.9442	0.056
Mof_C 	C 	0.72589	0.0844	0.9295	0
Mof_C 	C 	0.6486	0.1258	0.9587	-0.052
Mof_C 	C 	0.69399	0.1145	0.9718	-0.033
Mof_H 	H 	0.7036	0.1272	0.0097	0.064
Mof_C 	C 	0.648	0.0525	0.7984	0.29
Mof_C 	C 	0.83582	0.0698	0.0163	-0.013
Mof_C 	C 	0.78907	0.0728	0.0028	-0.079
Mof_H 	H 	0.7677	0.0718	0.0325	0.081
Mof_C 	C 	0.86751	0.0651	0.9729	-0.077
Mof_H 	H 	0.8981	0.0613	0.9825	0.069
Mof_C 	C 	0.85036	0.0699	0.0787	0.285
Mof_C 	C 	0.61545	0.1619	0.0054	0.294
Mof_C 	C 	0.9118	0.166	0.713	0.31
Mof_C 	C 	0.00419	0.9157	0.8478	0.305
Mof_O 	O 	0.67619	0.0459	0.75797	-0.245
Mof_O 	O 	0.60624	0.0462	0.78959	-0.276
Mof_O 	O 	0.82309	0.0531	0.11852	-0.237
Mof_O 	O 	0.89226	0.0887	0.08954	-0.281
Mof_O 	O 	0.62807	0.1529	0.05717	-0.261
Mof_O 	O 	0.57715	0.1981	0.99155	-0.287
Mof_O 	O 	0.006	0.8594	0.89516	-0.296
Mof_O 	O 	0.03552	0.9191	0.81086	-0.285
Mof_O 	O 	0.88004	0.2397	0.70676	-0.26
Mof_O 	O 	0.94062	0.1407	0.67556	-0.294
Mof_O 	O 	0.8913	0.8506	0.1789	0.072
Mof_C 	C 	0.71006	0.064	0.8731	-0.034
Mof_H 	H 	0.7306	0.0439	0.8441	0.062
Mof_C 	C 	0.63322	0.1061	0.9021	-0.006
Mof_H 	H 	0.6027	0.1148	0.8932	0.05
Mof_C 	C 	0.66399	0.0733	0.8594	-0.053
Mof_N 	N 	0.971	0.8008	0.119	-0.063
Mof_C 	C 	0.0099	0.7171	0.1235	-0.418
Mof_H 	H 	0.037	0.755	0.1098	0.177
Mof_H 	H 	0.0039	0.6486	0.1002	0.17
Mof_H 	H 	0.0139	0.6941	0.1633	0.158
Mof_C 	C 	0.9618	0.8603	0.0634	-0.416
Mof_H 	H 	0.9398	0.8158	0.0418	0.17
Mof_H 	H 	0.9893	0.866	0.0414	0.17
Mof_H 	H 	0.9502	0.9379	0.0708	0.186
Mof_O 	O 	0.9072	0.8775	0.161	-0.378
Mof_C 	C 	0.9398	0.8126	0.1687	0.418
Mof_C 	C 	0.9465	0.7687	0.2308	-0.944
Mof_H 	H 	0.9568	0.8327	0.2548	0.328
Mof_H 	H 	0.9687	0.7069	0.2311	0.316
Mof_H 	H 	0.9184	0.7391	0.2457	0.326
Mof_Cd	Cd	0.61325	0.44349	0.1895	0.513
Mof_Cd	Cd	0.56162	0.26533	0.59132	0.462
Mof_C 	C 	0.54402	0.4623	0.7824	-0.006
Mof_H 	H 	0.5223	0.4715	0.7534	0.041
Mof_C 	C 	0.58295	0.3939	0.7716	-0.062
Mof_C 	C 	0.61621	0.3822	0.8141	-0.034
Mof_H 	H 	0.6417	0.3361	0.8072	0.063
Mof_C 	C 	0.61102	0.4404	0.8675	-0.01
Mof_C 	C 	0.57166	0.5059	0.8777	-0.029
Mof_H 	H 	0.568	0.5437	0.9132	0.05
Mof_C 	C 	0.53784	0.5158	0.8357	-0.075
Mof_C 	C 	0.64537	0.4339	0.9144	0.055
Mof_C 	C 	0.69148	0.4254	0.9014	-0.115
Mof_H 	H 	0.7002	0.4214	0.8626	0.08
Mof_C 	C 	0.72503	0.4227	0.9442	0.055
Mof_C 	C 	0.77411	0.4156	0.9295	0.001
Mof_C 	C 	0.8514	0.3742	0.9587	-0.052
Mof_C 	C 	0.80601	0.3855	0.9718	-0.034
Mof_H 	H 	0.7964	0.3728	0.0097	0.064
Mof_C 	C 	0.852	0.4475	0.7984	0.29
Mof_C 	C 	0.66418	0.4302	0.0163	-0.012
Mof_C 	C 	0.71093	0.4272	0.0028	-0.079
Mof_H 	H 	0.7323	0.4282	0.0325	0.081
Mof_C 	C 	0.63249	0.4349	0.9729	-0.078
Mof_H 	H 	0.6019	0.4387	0.9825	0.069
Mof_C 	C 	0.64964	0.4301	0.0787	0.284
Mof_C 	C 	0.88455	0.3381	0.0054	0.294
Mof_C 	C 	0.5882	0.334	0.713	0.31
Mof_C 	C 	0.49581	0.5843	0.8478	0.305
Mof_O 	O 	0.82381	0.4541	0.75797	-0.245
Mof_O 	O 	0.89376	0.4538	0.78959	-0.276
Mof_O 	O 	0.67691	0.4469	0.11852	-0.237
Mof_O 	O 	0.60774	0.4113	0.08954	-0.281
Mof_O 	O 	0.87193	0.3471	0.05717	-0.261
Mof_O 	O 	0.92285	0.3019	0.99155	-0.287
Mof_O 	O 	0.494	0.6406	0.89516	-0.296
Mof_O 	O 	0.46448	0.5809	0.81086	-0.285
Mof_O 	O 	0.61996	0.2603	0.70676	-0.26
Mof_O 	O 	0.55938	0.3593	0.67556	-0.294
Mof_O 	O 	0.6087	0.6494	0.1789	0.072
Mof_C 	C 	0.78994	0.436	0.8731	-0.035
Mof_H 	H 	0.7694	0.4561	0.8441	0.062
Mof_C 	C 	0.86678	0.3939	0.9021	-0.006
Mof_H 	H 	0.8973	0.3852	0.8932	0.05
Mof_C 	C 	0.83601	0.4267	0.8594	-0.053
Mof_N 	N 	0.529	0.6992	0.119	-0.063
Mof_C 	C 	0.4901	0.7829	0.1235	-0.419
Mof_H 	H 	0.463	0.745	0.1098	0.177
Mof_H 	H 	0.4961	0.8514	0.1002	0.17
Mof_H 	H 	0.4861	0.8059	0.1633	0.158
Mof_C 	C 	0.5382	0.6397	0.0634	-0.416
Mof_H 	H 	0.5602	0.6842	0.0418	0.17
Mof_H 	H 	0.5107	0.634	0.0414	0.17
Mof_H 	H 	0.5498	0.5621	0.0708	0.186
Mof_O 	O 	0.5928	0.6225	0.161	-0.379
Mof_C 	C 	0.5602	0.6874	0.1687	0.418
Mof_C 	C 	0.5535	0.7313	0.2308	-0.944
Mof_H 	H 	0.5432	0.6673	0.2548	0.328
Mof_H 	H 	0.5313	0.7931	0.2311	0.316
Mof_H 	H 	0.5816	0.7609	0.2457	0.326
Mof_Cd	Cd	0.88675	0.44349	0.6895	0.513
Mof_Cd	Cd	0.93838	0.26533	0.09132	0.462
Mof_C 	C 	0.95598	0.4623	0.2824	-0.006
Mof_H 	H 	0.9777	0.4715	0.2534	0.041
Mof_C 	C 	0.91705	0.3939	0.2716	-0.063
Mof_C 	C 	0.88379	0.3822	0.3141	-0.034
Mof_H 	H 	0.8583	0.3361	0.3072	0.063
Mof_C 	C 	0.88898	0.4404	0.3675	-0.01
Mof_C 	C 	0.92834	0.5059	0.3777	-0.029
Mof_H 	H 	0.932	0.5437	0.4132	0.05
Mof_C 	C 	0.96216	0.5158	0.3357	-0.076
Mof_C 	C 	0.85463	0.4339	0.4144	0.056
Mof_C 	C 	0.80852	0.4254	0.4014	-0.114
Mof_H 	H 	0.7998	0.4214	0.3626	0.08
Mof_C 	C 	0.77497	0.4227	0.4442	0.055
Mof_C 	C 	0.72589	0.4156	0.4295	0.001
Mof_C 	C 	0.6486	0.3742	0.4587	-0.052
Mof_C 	C 	0.69399	0.3855	0.4718	-0.034
Mof_H 	H 	0.7036	0.3728	0.5097	0.064
Mof_C 	C 	0.648	0.4475	0.2984	0.29
Mof_C 	C 	0.83582	0.4302	0.5163	-0.012
Mof_C 	C 	0.78907	0.4272	0.5028	-0.078
Mof_H 	H 	0.7677	0.4282	0.5325	0.08
Mof_C 	C 	0.86751	0.4349	0.4729	-0.078
Mof_H 	H 	0.8981	0.4387	0.4825	0.069
Mof_C 	C 	0.85036	0.4301	0.5787	0.284
Mof_C 	C 	0.61545	0.3381	0.5054	0.295
Mof_C 	C 	0.9118	0.334	0.213	0.31
Mof_C 	C 	0.00419	0.5843	0.3478	0.306
Mof_O 	O 	0.67619	0.4541	0.25797	-0.245
Mof_O 	O 	0.60624	0.4538	0.28959	-0.276
Mof_O 	O 	0.82309	0.4469	0.61852	-0.237
Mof_O 	O 	0.89226	0.4113	0.58954	-0.281
Mof_O 	O 	0.62807	0.3471	0.55717	-0.261
Mof_O 	O 	0.57715	0.3019	0.49155	-0.288
Mof_O 	O 	0.006	0.6406	0.39516	-0.296
Mof_O 	O 	0.03552	0.5809	0.31086	-0.285
Mof_O 	O 	0.88004	0.2603	0.20676	-0.26
Mof_O 	O 	0.94062	0.3593	0.17556	-0.294
Mof_O 	O 	0.8913	0.6494	0.6789	0.072
Mof_C 	C 	0.71006	0.436	0.3731	-0.035
Mof_H 	H 	0.7306	0.4561	0.3441	0.062
Mof_C 	C 	0.63322	0.3939	0.4021	-0.006
Mof_H 	H 	0.6027	0.3852	0.3932	0.05
Mof_C 	C 	0.66399	0.4267	0.3594	-0.053
Mof_N 	N 	0.971	0.6992	0.619	-0.063
Mof_C 	C 	0.0099	0.7829	0.6235	-0.419
Mof_H 	H 	0.037	0.745	0.6098	0.177
Mof_H 	H 	0.0039	0.8514	0.6002	0.17
Mof_H 	H 	0.0139	0.8059	0.6633	0.158
Mof_C 	C 	0.9618	0.6397	0.5634	-0.416
Mof_H 	H 	0.9398	0.6842	0.5418	0.17
Mof_H 	H 	0.9893	0.634	0.5414	0.17
Mof_H 	H 	0.9502	0.5621	0.5708	0.186
Mof_O 	O 	0.9072	0.6225	0.661	-0.379
Mof_C 	C 	0.9398	0.6874	0.6687	0.418
Mof_C 	C 	0.9465	0.7313	0.7308	-0.944
Mof_H 	H 	0.9568	0.6673	0.7548	0.328
Mof_H 	H 	0.9687	0.7931	0.7311	0.316
Mof_H 	H 	0.9184	0.7609	0.7457	0.326
Mof_Cd	Cd	0.61325	0.05651	0.6895	0.513
Mof_Cd	Cd	0.56162	0.23467	0.09132	0.462
Mof_C 	C 	0.54402	0.0377	0.2824	-0.006
Mof_H 	H 	0.5223	0.0285	0.2534	0.041
Mof_C 	C 	0.58295	0.1061	0.2716	-0.062
Mof_C 	C 	0.61621	0.1178	0.3141	-0.034
Mof_H 	H 	0.6417	0.1639	0.3072	0.063
Mof_C 	C 	0.61102	0.0596	0.3675	-0.01
Mof_C 	C 	0.57166	0.9941	0.3777	-0.029
Mof_H 	H 	0.568	0.9563	0.4132	0.05
Mof_C 	C 	0.53784	0.9842	0.3357	-0.075
Mof_C 	C 	0.64537	0.0661	0.4144	0.055
Mof_C 	C 	0.69148	0.0746	0.4014	-0.114
Mof_H 	H 	0.7002	0.0786	0.3626	0.08
Mof_C 	C 	0.72503	0.0773	0.4442	0.055
Mof_C 	C 	0.77411	0.0844	0.4295	0.001
Mof_C 	C 	0.8514	0.1258	0.4587	-0.052
Mof_C 	C 	0.80601	0.1145	0.4718	-0.034
Mof_H 	H 	0.7964	0.1272	0.5097	0.064
Mof_C 	C 	0.852	0.0525	0.2984	0.29
Mof_C 	C 	0.66418	0.0698	0.5163	-0.012
Mof_C 	C 	0.71093	0.0728	0.5028	-0.078
Mof_H 	H 	0.7323	0.0718	0.5325	0.08
Mof_C 	C 	0.63249	0.0651	0.4729	-0.078
Mof_H 	H 	0.6019	0.0613	0.4825	0.069
Mof_C 	C 	0.64964	0.0699	0.5787	0.284
Mof_C 	C 	0.88455	0.1619	0.5054	0.295
Mof_C 	C 	0.5882	0.166	0.213	0.31
Mof_C 	C 	0.49581	0.9157	0.3478	0.305
Mof_O 	O 	0.82381	0.0459	0.25797	-0.245
Mof_O 	O 	0.89376	0.0462	0.28959	-0.276
Mof_O 	O 	0.67691	0.0531	0.61852	-0.237
Mof_O 	O 	0.60774	0.0887	0.58954	-0.281
Mof_O 	O 	0.87193	0.1529	0.55717	-0.261
Mof_O 	O 	0.92285	0.1981	0.49155	-0.288
Mof_O 	O 	0.494	0.8594	0.39516	-0.296
Mof_O 	O 	0.46448	0.9191	0.31086	-0.285
Mof_O 	O 	0.61996	0.2397	0.20676	-0.26
Mof_O 	O 	0.55938	0.1407	0.17556	-0.294
Mof_O 	O 	0.6087	0.8506	0.6789	0.072
Mof_C 	C 	0.78994	0.064	0.3731	-0.035
Mof_H 	H 	0.7694	0.0439	0.3441	0.062
Mof_C 	C 	0.86678	0.1061	0.4021	-0.006
Mof_H 	H 	0.8973	0.1148	0.3932	0.05
Mof_C 	C 	0.83601	0.0733	0.3594	-0.053
Mof_N 	N 	0.529	0.8008	0.619	-0.063
Mof_C 	C 	0.4901	0.7171	0.6235	-0.419
Mof_H 	H 	0.463	0.755	0.6098	0.177
Mof_H 	H 	0.4961	0.6486	0.6002	0.17
Mof_H 	H 	0.4861	0.6941	0.6633	0.158
Mof_C 	C 	0.5382	0.8603	0.5634	-0.416
Mof_H 	H 	0.5602	0.8158	0.5418	0.17
Mof_H 	H 	0.5107	0.866	0.5414	0.17
Mof_H 	H 	0.5498	0.9379	0.5708	0.186
Mof_O 	O 	0.5928	0.8775	0.661	-0.379
Mof_C 	C 	0.5602	0.8126	0.6687	0.418
Mof_C 	C 	0.5535	0.7687	0.7308	-0.944
Mof_H 	H 	0.5432	0.8327	0.7548	0.328
Mof_H 	H 	0.5313	0.7069	0.7311	0.316
Mof_H 	H 	0.5816	0.7391	0.7457	0.326
Mof_Cd	Cd	0.11325	0.94349	0.8105	0.513
Mof_Cd	Cd	0.06162	0.76533	0.40868	0.462
Mof_C 	C 	0.04402	0.9623	0.2176	-0.005
Mof_H 	H 	0.0223	0.9715	0.2466	0.042
Mof_C 	C 	0.08295	0.8939	0.2284	-0.062
Mof_C 	C 	0.11621	0.8822	0.1859	-0.034
Mof_H 	H 	0.1417	0.8361	0.1928	0.063
Mof_C 	C 	0.11102	0.9404	0.1325	-0.009
Mof_C 	C 	0.07166	0.0059	0.1223	-0.03
Mof_H 	H 	0.068	0.0437	0.0868	0.051
Mof_C 	C 	0.03784	0.0158	0.1643	-0.075
Mof_C 	C 	0.14537	0.9339	0.0856	0.055
Mof_C 	C 	0.19148	0.9254	0.0986	-0.114
Mof_H 	H 	0.2002	0.9214	0.1374	0.08
Mof_C 	C 	0.22503	0.9227	0.0558	0.056
Mof_C 	C 	0.27411	0.9156	0.0705	0
Mof_C 	C 	0.3514	0.8742	0.0413	-0.052
Mof_C 	C 	0.30601	0.8855	0.0282	-0.033
Mof_H 	H 	0.2964	0.8728	0.9903	0.064
Mof_C 	C 	0.352	0.9475	0.2016	0.29
Mof_C 	C 	0.16418	0.9302	0.9837	-0.013
Mof_C 	C 	0.21093	0.9272	0.9972	-0.079
Mof_H 	H 	0.2323	0.9282	0.9675	0.081
Mof_C 	C 	0.13249	0.9349	0.0271	-0.077
Mof_H 	H 	0.1019	0.9387	0.0175	0.069
Mof_C 	C 	0.14964	0.9301	0.9213	0.285
Mof_C 	C 	0.38455	0.8381	0.9946	0.294
Mof_C 	C 	0.0882	0.834	0.287	0.31
Mof_C 	C 	0.99581	0.0843	0.1522	0.305
Mof_O 	O 	0.32381	0.9541	0.24203	-0.245
Mof_O 	O 	0.39376	0.9538	0.21041	-0.276
Mof_O 	O 	0.17691	0.9469	0.88148	-0.237
Mof_O 	O 	0.10774	0.9113	0.91046	-0.281
Mof_O 	O 	0.37193	0.8471	0.94283	-0.261
Mof_O 	O 	0.42285	0.8019	0.00845	-0.287
Mof_O 	O 	0.994	0.1406	0.10484	-0.296
Mof_O 	O 	0.96448	0.0809	0.18914	-0.285
Mof_O 	O 	0.11996	0.7603	0.29324	-0.26
Mof_O 	O 	0.05938	0.8593	0.32444	-0.294
Mof_O 	O 	0.1087	0.1494	0.8211	0.072
Mof_C 	C 	0.28994	0.936	0.1269	-0.034
Mof_H 	H 	0.2694	0.9561	0.1559	0.062
Mof_C 	C 	0.36678	0.8939	0.0979	-0.006
Mof_H 	H 	0.3973	0.8852	0.1068	0.05
Mof_C 	C 	0.33601	0.9267	0.1406	-0.053
Mof_N 	N 	0.029	0.1992	0.881	-0.063
Mof_C 	C 	0.9901	0.2829	0.8765	-0.418
Mof_H 	H 	0.963	0.245	0.8902	0.177
Mof_H 	H 	0.9961	0.3514	0.8998	0.17
Mof_H 	H 	0.9861	0.3059	0.8367	0.158
Mof_C 	C 	0.0382	0.1397	0.9366	-0.416
Mof_H 	H 	0.0602	0.1842	0.9582	0.17
Mof_H 	H 	0.0107	0.134	0.9586	0.17
Mof_H 	H 	0.0498	0.0621	0.9292	0.186
Mof_O 	O 	0.0928	0.1225	0.839	-0.378
Mof_C 	C 	0.0602	0.1874	0.8313	0.418
Mof_C 	C 	0.0535	0.2313	0.7692	-0.944
Mof_H 	H 	0.0432	0.1673	0.7452	0.328
Mof_H 	H 	0.0313	0.2931	0.7689	0.316
Mof_H 	H 	0.0816	0.2609	0.7543	0.326
Mof_Cd	Cd	0.38675	0.55651	0.8105	0.513
Mof_Cd	Cd	0.43838	0.73467	0.40868	0.462
Mof_C 	C 	0.45598	0.5377	0.2176	-0.006
Mof_H 	H 	0.4777	0.5285	0.2466	0.041
Mof_C 	C 	0.41705	0.6061	0.2284	-0.062
Mof_C 	C 	0.38379	0.6178	0.1859	-0.034
Mof_H 	H 	0.3583	0.6639	0.1928	0.063
Mof_C 	C 	0.38898	0.5596	0.1325	-0.01
Mof_C 	C 	0.42834	0.4941	0.1223	-0.029
Mof_H 	H 	0.432	0.4563	0.0868	0.05
Mof_C 	C 	0.46216	0.4842	0.1643	-0.075
Mof_C 	C 	0.35463	0.5661	0.0856	0.055
Mof_C 	C 	0.30852	0.5746	0.0986	-0.115
Mof_H 	H 	0.2998	0.5786	0.1374	0.08
Mof_C 	C 	0.27497	0.5773	0.0558	0.055
Mof_C 	C 	0.22589	0.5844	0.0705	0.001
Mof_C 	C 	0.1486	0.6258	0.0413	-0.052
Mof_C 	C 	0.19399	0.6145	0.0282	-0.034
Mof_H 	H 	0.2036	0.6272	0.9903	0.064
Mof_C 	C 	0.148	0.5525	0.2016	0.29
Mof_C 	C 	0.33582	0.5698	0.9837	-0.012
Mof_C 	C 	0.28907	0.5728	0.9972	-0.079
Mof_H 	H 	0.2677	0.5718	0.9675	0.081
Mof_C 	C 	0.36751	0.5651	0.0271	-0.078
Mof_H 	H 	0.3981	0.5613	0.0175	0.069
Mof_C 	C 	0.35036	0.5699	0.9213	0.284
Mof_C 	C 	0.11545	0.6619	0.9946	0.294
Mof_C 	C 	0.4118	0.666	0.287	0.31
Mof_C 	C 	0.50419	0.4157	0.1522	0.305
Mof_O 	O 	0.17619	0.5459	0.24203	-0.245
Mof_O 	O 	0.10624	0.5462	0.21041	-0.276
Mof_O 	O 	0.32309	0.5531	0.88148	-0.237
Mof_O 	O 	0.39226	0.5887	0.91046	-0.281
Mof_O 	O 	0.12807	0.6529	0.94283	-0.261
Mof_O 	O 	0.07715	0.6981	0.00845	-0.287
Mof_O 	O 	0.506	0.3594	0.10484	-0.296
Mof_O 	O 	0.53552	0.4191	0.18914	-0.285
Mof_O 	O 	0.38004	0.7397	0.29324	-0.26
Mof_O 	O 	0.44062	0.6407	0.32444	-0.294
Mof_O 	O 	0.3913	0.3506	0.8211	0.072
Mof_C 	C 	0.21006	0.564	0.1269	-0.035
Mof_H 	H 	0.2306	0.5439	0.1559	0.062
Mof_C 	C 	0.13322	0.6061	0.0979	-0.006
Mof_H 	H 	0.1027	0.6148	0.1068	0.05
Mof_C 	C 	0.16399	0.5733	0.1406	-0.053
Mof_N 	N 	0.471	0.3008	0.881	-0.063
Mof_C 	C 	0.5099	0.2171	0.8765	-0.419
Mof_H 	H 	0.537	0.255	0.8902	0.177
Mof_H 	H 	0.5039	0.1486	0.8998	0.17
Mof_H 	H 	0.5139	0.1941	0.8367	0.158
Mof_C 	C 	0.4618	0.3603	0.9366	-0.416
Mof_H 	H 	0.4398	0.3158	0.9582	0.17
Mof_H 	H 	0.4893	0.366	0.9586	0.17
Mof_H 	H 	0.4502	0.4379	0.9292	0.186
Mof_O 	O 	0.4072	0.3775	0.839	-0.379
Mof_C 	C 	0.4398	0.3126	0.8313	0.418
Mof_C 	C 	0.4465	0.2687	0.7692	-0.944
Mof_H 	H 	0.4568	0.3327	0.7452	0.328
Mof_H 	H 	0.4687	0.2069	0.7689	0.316
Mof_H 	H 	0.4184	0.2391	0.7543	0.326
_end
