data_functionalizedCrystal
_audit_creation_method	'EQeq! by Chris Wilmer'
_symmetry_space_group_name_H-M	'P1'
_symmetry_Int_Tables_number	1
_symmetry_cell_setting	triclinic
loop_
_symmetry_equiv_pos_as_xyz
  x,y,z
_cell_length_a	12.249
_cell_length_b	21.739
_cell_length_c	22.722
_cell_angle_alpha	90
_cell_angle_beta	91.67
_cell_angle_gamma	90
loop_
_atom_site_label
_atom_site_type_symbol
_atom_site_fract_x
_atom_site_fract_y
_atom_site_fract_z
_atom_site_charge
Mof_Nd	Nd	0.13255	0.71081	0.58648	2.75
Mof_Nd	Nd	0.64758	0.61566	0.58435	2.881
Mof_Nd	Nd	0.86745	0.21081	0.91352	2.751
Mof_Nd	Nd	0.35242	0.11566	0.91565	2.882
Mof_Nd	Nd	0.86745	0.28919	0.41352	2.751
Mof_Nd	Nd	0.35242	0.38434	0.41565	2.882
Mof_Nd	Nd	0.13255	0.78919	0.08648	2.751
Mof_Nd	Nd	0.64758	0.88434	0.08435	2.882
Mof_H 	H 	0.4864	0.6662	0.7383	0.016
Mof_H 	H 	0.2251	0.712	0.8314	0.08
Mof_H 	H 	0.1295	0.7292	0.7466	0.036
Mof_H 	H 	0.9562	0.6559	0.7591	0.026
Mof_H 	H 	0.702	0.5784	0.8313	0.079
Mof_H 	H 	0.6125	0.5753	0.74	0.014
Mof_H 	H 	0.5136	0.1662	0.7617	0.016
Mof_H 	H 	0.7749	0.212	0.6686	0.08
Mof_H 	H 	0.8705	0.2292	0.7534	0.036
Mof_H 	H 	0.0438	0.1559	0.7409	0.026
Mof_H 	H 	0.298	0.0784	0.6687	0.079
Mof_H 	H 	0.3875	0.0753	0.76	0.014
Mof_H 	H 	0.5136	0.3338	0.2617	0.016
Mof_H 	H 	0.7749	0.288	0.1686	0.08
Mof_H 	H 	0.8705	0.2708	0.2534	0.036
Mof_H 	H 	0.0438	0.3441	0.2409	0.026
Mof_H 	H 	0.298	0.4216	0.1687	0.079
Mof_H 	H 	0.3875	0.4247	0.26	0.014
Mof_H 	H 	0.4864	0.8338	0.2383	0.016
Mof_H 	H 	0.2251	0.788	0.3314	0.08
Mof_H 	H 	0.1295	0.7708	0.2466	0.036
Mof_H 	H 	0.9562	0.8441	0.2591	0.026
Mof_H 	H 	0.702	0.9216	0.3313	0.079
Mof_H 	H 	0.6125	0.9247	0.24	0.014
Mof_W 	W 	0.81691	0.03463	0.85203	1.439
Mof_W 	W 	0.67295	0.77251	0.82525	1.334
Mof_W 	W 	0.49457	0.85701	0.7449	1.329
Mof_W 	W 	0.03554	0.95378	0.78151	1.349
Mof_W 	W 	0.77891	0.92126	0.60917	1.377
Mof_W 	W 	0.84446	0.04462	0.6937	1.34
Mof_W 	W 	0.9545	0.82024	0.84242	1.344
Mof_W 	W 	0.581	0.99919	0.67832	1.356
Mof_W 	W 	0.97483	0.83279	0.69919	1.447
Mof_W 	W 	0.73913	0.90848	0.91374	1.387
Mof_W 	W 	0.69218	0.78032	0.68215	1.418
Mof_W 	W 	0.5623	0.98957	0.83902	1.396
Mof_W 	W 	0.18309	0.53463	0.64797	1.436
Mof_W 	W 	0.32705	0.27251	0.67475	1.334
Mof_W 	W 	0.50543	0.35701	0.7551	1.329
Mof_W 	W 	0.96446	0.45378	0.71849	1.346
Mof_W 	W 	0.22109	0.42126	0.89083	1.377
Mof_W 	W 	0.15554	0.54462	0.8063	1.338
Mof_W 	W 	0.0455	0.32024	0.65758	1.347
Mof_W 	W 	0.419	0.49919	0.82168	1.357
Mof_W 	W 	0.02517	0.33279	0.80081	1.45
Mof_W 	W 	0.26087	0.40848	0.58626	1.387
Mof_W 	W 	0.30782	0.28032	0.81785	1.418
Mof_W 	W 	0.4377	0.48957	0.66098	1.397
Mof_W 	W 	0.18309	0.96537	0.14797	1.439
Mof_W 	W 	0.32705	0.22749	0.17475	1.334
Mof_W 	W 	0.50543	0.14299	0.2551	1.329
Mof_W 	W 	0.96446	0.04622	0.21849	1.349
Mof_W 	W 	0.22109	0.07874	0.39083	1.377
Mof_W 	W 	0.15554	0.95538	0.3063	1.34
Mof_W 	W 	0.0455	0.17976	0.15758	1.344
Mof_W 	W 	0.419	0.00081	0.32168	1.356
Mof_W 	W 	0.02517	0.16721	0.30081	1.447
Mof_W 	W 	0.26087	0.09152	0.08626	1.387
Mof_W 	W 	0.30782	0.21968	0.31785	1.418
Mof_W 	W 	0.4377	0.01043	0.16098	1.396
Mof_W 	W 	0.81691	0.46537	0.35203	1.436
Mof_W 	W 	0.67295	0.72749	0.32525	1.334
Mof_W 	W 	0.49457	0.64299	0.2449	1.329
Mof_W 	W 	0.03554	0.54622	0.28151	1.346
Mof_W 	W 	0.77891	0.57874	0.10917	1.377
Mof_W 	W 	0.84446	0.45538	0.1937	1.338
Mof_W 	W 	0.9545	0.67976	0.34242	1.347
Mof_W 	W 	0.581	0.50081	0.17832	1.357
Mof_W 	W 	0.97483	0.66721	0.19919	1.45
Mof_W 	W 	0.73913	0.59152	0.41374	1.387
Mof_W 	W 	0.69218	0.71968	0.18215	1.418
Mof_W 	W 	0.5623	0.51043	0.33902	1.397
Mof_C 	C 	0.392	0.6723	0.628	0.57
Mof_C 	C 	0.35	0.6864	0.6885	-0.109
Mof_C 	C 	0.412	0.6792	0.7404	0.119
Mof_C 	C 	0.26	0.7085	0.7942	0.018
Mof_C 	C 	0.202	0.7135	0.743	0.059
Mof_C 	C 	0.8955	0.649	0.6449	0.472
Mof_C 	C 	0.8367	0.6306	0.7004	-0.087
Mof_C 	C 	0.885	0.6375	0.7562	0.104
Mof_C 	C 	0.736	0.5954	0.7973	0.004
Mof_C 	C 	0.6866	0.5896	0.7428	0.082
Mof_C 	C 	0.608	0.1723	0.872	0.57
Mof_C 	C 	0.65	0.1864	0.8115	-0.109
Mof_C 	C 	0.588	0.1792	0.7596	0.119
Mof_C 	C 	0.74	0.2085	0.7058	0.018
Mof_C 	C 	0.798	0.2135	0.757	0.059
Mof_C 	C 	0.1045	0.149	0.8551	0.472
Mof_C 	C 	0.1633	0.1306	0.7996	-0.087
Mof_C 	C 	0.115	0.1375	0.7438	0.104
Mof_C 	C 	0.264	0.0954	0.7027	0.004
Mof_C 	C 	0.3134	0.0896	0.7572	0.082
Mof_C 	C 	0.608	0.3277	0.372	0.57
Mof_C 	C 	0.65	0.3136	0.3115	-0.109
Mof_C 	C 	0.588	0.3208	0.2596	0.119
Mof_C 	C 	0.74	0.2915	0.2058	0.018
Mof_C 	C 	0.798	0.2865	0.257	0.059
Mof_C 	C 	0.1045	0.351	0.3551	0.472
Mof_C 	C 	0.1633	0.3694	0.2996	-0.087
Mof_C 	C 	0.115	0.3625	0.2438	0.104
Mof_C 	C 	0.264	0.4046	0.2027	0.004
Mof_C 	C 	0.3134	0.4104	0.2572	0.082
Mof_C 	C 	0.392	0.8277	0.128	0.57
Mof_C 	C 	0.35	0.8136	0.1885	-0.109
Mof_C 	C 	0.412	0.8208	0.2404	0.119
Mof_C 	C 	0.26	0.7915	0.2942	0.018
Mof_C 	C 	0.202	0.7865	0.243	0.059
Mof_C 	C 	0.8955	0.851	0.1449	0.472
Mof_C 	C 	0.8367	0.8694	0.2004	-0.087
Mof_C 	C 	0.885	0.8625	0.2562	0.104
Mof_C 	C 	0.736	0.9046	0.2973	0.004
Mof_C 	C 	0.6866	0.9104	0.2428	0.082
Mof_N 	N 	0.7349	0.608	0.6932	-0.219
Mof_N 	N 	0.8369	0.6213	0.8025	-0.121
Mof_N 	N 	0.2428	0.702	0.6896	-0.211
Mof_N 	N 	0.3672	0.6909	0.7914	-0.093
Mof_N 	N 	0.2651	0.108	0.8068	-0.219
Mof_N 	N 	0.1631	0.1213	0.6975	-0.121
Mof_N 	N 	0.7572	0.202	0.8104	-0.211
Mof_N 	N 	0.6328	0.1909	0.7086	-0.093
Mof_N 	N 	0.2651	0.392	0.3068	-0.219
Mof_N 	N 	0.1631	0.3787	0.1975	-0.121
Mof_N 	N 	0.7572	0.298	0.3104	-0.211
Mof_N 	N 	0.6328	0.3091	0.2086	-0.093
Mof_N 	N 	0.7349	0.892	0.1932	-0.219
Mof_N 	N 	0.8369	0.8787	0.3025	-0.121
Mof_N 	N 	0.2428	0.798	0.1896	-0.211
Mof_N 	N 	0.3672	0.8091	0.2914	-0.093
Mof_O 	O 	0.0733	0.8961	0.7218	-0.473
Mof_O 	O 	0.7972	0.9149	0.5372	-0.384
Mof_O 	O 	0.0622	0.7918	0.655	-0.599
Mof_O 	O 	0.3586	0.8443	0.7366	-0.354
Mof_O 	O 	0.4511	0.0289	0.8616	-0.599
Mof_O 	O 	0.732	0.8909	0.9867	-0.614
Mof_O 	O 	0.1626	0.9851	0.791	-0.363
Mof_O 	O 	0.4791	0.0395	0.6433	-0.353
Mof_O 	O 	0.6805	0.7194	0.6314	-0.596
Mof_O 	O 	0.6698	0.8351	0.8833	-0.483
Mof_O 	O 	0.9509	0.9969	0.8362	-0.519
Mof_O 	O 	0.6771	0.8429	0.755	-0.429
Mof_O 	O 	0.8458	0.7844	0.6937	-0.528
Mof_O 	O 	0.0312	0.777	0.8889	-0.368
Mof_O 	O 	0.8125	0.0607	0.7739	-0.525
Mof_O 	O 	0.8532	0.9991	0.6226	-0.458
Mof_O 	O 	0.7281	0.9524	0.8316	-0.494
Mof_O 	O 	0.8768	0.8706	0.896	-0.473
Mof_O 	O 	0.969	0.002	0.7229	-0.507
Mof_O 	O 	0.7448	0.956	0.704	-0.371
Mof_O 	O 	0.9087	0.885	0.6439	-0.51
Mof_O 	O 	0.5931	0.9477	0.9117	-0.47
Mof_O 	O 	0.56	0.0187	0.7576	-0.498
Mof_O 	O 	0.7064	0.8475	0.6291	-0.495
Mof_O 	O 	0.5251	0.7924	0.8052	-0.434
Mof_O 	O 	0.0068	0.7898	0.7707	-0.498
Mof_O 	O 	0.6816	0.7297	0.75	-0.481
Mof_O 	O 	0.8251	0.7726	0.8324	-0.508
Mof_O 	O 	0.6441	0.9627	0.6097	-0.457
Mof_O 	O 	0.061	0.8887	0.8406	-0.413
Mof_O 	O 	0.8526	0.1004	0.8894	-0.636
Mof_O 	O 	0.8988	0.8828	0.7721	-0.42
Mof_O 	O 	0.8083	0.9875	0.9259	-0.473
Mof_O 	O 	0.5411	0.8004	0.6857	-0.472
Mof_O 	O 	0.5198	0.9218	0.6919	-0.493
Mof_O 	O 	0.4995	0.9162	0.807	-0.486
Mof_O 	O 	0.6637	0.0547	0.8579	-0.509
Mof_O 	O 	0.693	0.0612	0.6746	-0.451
Mof_O 	O 	0.898	0.114	0.6719	-0.374
Mof_O 	O 	0.6432	0.7078	0.8653	-0.345
Mof_O 	O 	0.01	0.7826	0.532	-0.36
Mof_O 	O 	0.1987	0.7072	0.4838	-0.33
Mof_O 	O 	0.0019	0.6503	0.5193	-0.305
Mof_O 	O 	0.2492	0.8046	0.5798	-0.327
Mof_O 	O 	0.987	0.6724	0.65	-0.539
Mof_O 	O 	0.3302	0.6807	0.5848	-0.555
Mof_O 	O 	0.4883	0.6558	0.6282	-0.611
Mof_O 	O 	0.8443	0.6376	0.596	-0.529
Mof_O 	O 	0.5104	0.5694	0.5165	-0.392
Mof_O 	O 	0.5873	0.7044	0.5167	-0.311
Mof_O 	O 	0.7405	0.5154	0.5785	-0.369
Mof_O 	O 	0.9267	0.3961	0.7782	-0.473
Mof_O 	O 	0.2028	0.4149	0.9628	-0.384
Mof_O 	O 	0.9378	0.2918	0.845	-0.6
Mof_O 	O 	0.6414	0.3443	0.7634	-0.354
Mof_O 	O 	0.5489	0.5289	0.6384	-0.599
Mof_O 	O 	0.268	0.3909	0.5133	-0.614
Mof_O 	O 	0.8374	0.4851	0.709	-0.363
Mof_O 	O 	0.5209	0.5395	0.8567	-0.353
Mof_O 	O 	0.3195	0.2194	0.8686	-0.596
Mof_O 	O 	0.3302	0.3351	0.6167	-0.483
Mof_O 	O 	0.0491	0.4969	0.6638	-0.516
Mof_O 	O 	0.3229	0.3429	0.745	-0.429
Mof_O 	O 	0.1542	0.2844	0.8063	-0.529
Mof_O 	O 	0.9688	0.277	0.6111	-0.369
Mof_O 	O 	0.1875	0.5607	0.7261	-0.525
Mof_O 	O 	0.1468	0.4991	0.8774	-0.457
Mof_O 	O 	0.2719	0.4524	0.6684	-0.494
Mof_O 	O 	0.1232	0.3706	0.604	-0.473
Mof_O 	O 	0.031	0.502	0.7771	-0.507
Mof_O 	O 	0.2552	0.456	0.796	-0.371
Mof_O 	O 	0.0913	0.385	0.8561	-0.51
Mof_O 	O 	0.4069	0.4477	0.5883	-0.47
Mof_O 	O 	0.44	0.5187	0.7424	-0.499
Mof_O 	O 	0.2936	0.3475	0.8709	-0.495
Mof_O 	O 	0.4749	0.2924	0.6948	-0.434
Mof_O 	O 	0.9932	0.2898	0.7293	-0.5
Mof_O 	O 	0.3184	0.2297	0.75	-0.481
Mof_O 	O 	0.1749	0.2726	0.6676	-0.508
Mof_O 	O 	0.3559	0.4627	0.8903	-0.457
Mof_O 	O 	0.939	0.3887	0.6594	-0.414
Mof_O 	O 	0.1474	0.6004	0.6106	-0.635
Mof_O 	O 	0.1012	0.3828	0.7279	-0.42
Mof_O 	O 	0.1917	0.4875	0.5741	-0.472
Mof_O 	O 	0.4589	0.3004	0.8143	-0.472
Mof_O 	O 	0.4802	0.4218	0.8081	-0.493
Mof_O 	O 	0.5005	0.4162	0.693	-0.486
Mof_O 	O 	0.3363	0.5547	0.6421	-0.509
Mof_O 	O 	0.307	0.5612	0.8254	-0.451
Mof_O 	O 	0.102	0.614	0.8281	-0.374
Mof_O 	O 	0.3568	0.2078	0.6347	-0.345
Mof_O 	O 	0.99	0.2826	0.968	-0.361
Mof_O 	O 	0.8013	0.2072	0.0162	-0.33
Mof_O 	O 	0.9981	0.1503	0.9807	-0.306
Mof_O 	O 	0.7508	0.3046	0.9202	-0.328
Mof_O 	O 	0.013	0.1724	0.85	-0.539
Mof_O 	O 	0.6698	0.1807	0.9152	-0.555
Mof_O 	O 	0.5117	0.1558	0.8718	-0.611
Mof_O 	O 	0.1557	0.1376	0.904	-0.528
Mof_O 	O 	0.4896	0.0694	0.9835	-0.393
Mof_O 	O 	0.4127	0.2044	0.9833	-0.311
Mof_O 	O 	0.2595	0.0154	0.9215	-0.369
Mof_O 	O 	0.9267	0.1039	0.2782	-0.473
Mof_O 	O 	0.2028	0.0851	0.4628	-0.384
Mof_O 	O 	0.9378	0.2082	0.345	-0.599
Mof_O 	O 	0.6414	0.1557	0.2634	-0.354
Mof_O 	O 	0.5489	0.9711	0.1384	-0.599
Mof_O 	O 	0.268	0.1091	0.0133	-0.614
Mof_O 	O 	0.8374	0.0149	0.209	-0.363
Mof_O 	O 	0.5209	0.9605	0.3567	-0.353
Mof_O 	O 	0.3195	0.2806	0.3686	-0.596
Mof_O 	O 	0.3302	0.1649	0.1167	-0.483
Mof_O 	O 	0.0491	0.0031	0.1638	-0.519
Mof_O 	O 	0.3229	0.1571	0.245	-0.429
Mof_O 	O 	0.1542	0.2156	0.3063	-0.528
Mof_O 	O 	0.9688	0.223	0.1111	-0.368
Mof_O 	O 	0.1875	0.9393	0.2261	-0.525
Mof_O 	O 	0.1468	0.0009	0.3774	-0.458
Mof_O 	O 	0.2719	0.0476	0.1684	-0.494
Mof_O 	O 	0.1232	0.1294	0.104	-0.473
Mof_O 	O 	0.031	0.998	0.2771	-0.507
Mof_O 	O 	0.2552	0.044	0.296	-0.371
Mof_O 	O 	0.0913	0.115	0.3561	-0.51
Mof_O 	O 	0.4069	0.0523	0.0883	-0.47
Mof_O 	O 	0.44	0.9813	0.2424	-0.498
Mof_O 	O 	0.2936	0.1525	0.3709	-0.495
Mof_O 	O 	0.4749	0.2076	0.1948	-0.434
Mof_O 	O 	0.9932	0.2102	0.2293	-0.498
Mof_O 	O 	0.3184	0.2703	0.25	-0.481
Mof_O 	O 	0.1749	0.2274	0.1676	-0.508
Mof_O 	O 	0.3559	0.0373	0.3903	-0.457
Mof_O 	O 	0.939	0.1113	0.1594	-0.413
Mof_O 	O 	0.1474	0.8996	0.1106	-0.636
Mof_O 	O 	0.1012	0.1172	0.2279	-0.42
Mof_O 	O 	0.1917	0.0125	0.0741	-0.473
Mof_O 	O 	0.4589	0.1996	0.3143	-0.472
Mof_O 	O 	0.4802	0.0782	0.3081	-0.493
Mof_O 	O 	0.5005	0.0838	0.193	-0.486
Mof_O 	O 	0.3363	0.9453	0.1421	-0.509
Mof_O 	O 	0.307	0.9388	0.3254	-0.451
Mof_O 	O 	0.102	0.886	0.3281	-0.374
Mof_O 	O 	0.3568	0.2922	0.1347	-0.345
Mof_O 	O 	0.99	0.2174	0.468	-0.36
Mof_O 	O 	0.8013	0.2928	0.5162	-0.33
Mof_O 	O 	0.9981	0.3497	0.4807	-0.305
Mof_O 	O 	0.7508	0.1954	0.4202	-0.327
Mof_O 	O 	0.013	0.3276	0.35	-0.539
Mof_O 	O 	0.6698	0.3193	0.4152	-0.555
Mof_O 	O 	0.5117	0.3442	0.3718	-0.611
Mof_O 	O 	0.1557	0.3624	0.404	-0.529
Mof_O 	O 	0.4896	0.4306	0.4835	-0.392
Mof_O 	O 	0.4127	0.2956	0.4833	-0.311
Mof_O 	O 	0.2595	0.4846	0.4215	-0.369
Mof_O 	O 	0.0733	0.6039	0.2218	-0.473
Mof_O 	O 	0.7972	0.5851	0.0372	-0.384
Mof_O 	O 	0.0622	0.7082	0.155	-0.6
Mof_O 	O 	0.3586	0.6557	0.2366	-0.354
Mof_O 	O 	0.4511	0.4711	0.3616	-0.599
Mof_O 	O 	0.732	0.6091	0.4867	-0.614
Mof_O 	O 	0.1626	0.5149	0.291	-0.363
Mof_O 	O 	0.4791	0.4605	0.1433	-0.353
Mof_O 	O 	0.6805	0.7806	0.1314	-0.596
Mof_O 	O 	0.6698	0.6649	0.3833	-0.483
Mof_O 	O 	0.9509	0.5031	0.3362	-0.516
Mof_O 	O 	0.6771	0.6571	0.255	-0.429
Mof_O 	O 	0.8458	0.7156	0.1937	-0.529
Mof_O 	O 	0.0312	0.723	0.3889	-0.369
Mof_O 	O 	0.8125	0.4393	0.2739	-0.525
Mof_O 	O 	0.8532	0.5009	0.1226	-0.457
Mof_O 	O 	0.7281	0.5476	0.3316	-0.494
Mof_O 	O 	0.8768	0.6294	0.396	-0.473
Mof_O 	O 	0.969	0.498	0.2229	-0.507
Mof_O 	O 	0.7448	0.544	0.204	-0.371
Mof_O 	O 	0.9087	0.615	0.1439	-0.51
Mof_O 	O 	0.5931	0.5523	0.4117	-0.47
Mof_O 	O 	0.56	0.4813	0.2576	-0.499
Mof_O 	O 	0.7064	0.6525	0.1291	-0.495
Mof_O 	O 	0.5251	0.7076	0.3052	-0.434
Mof_O 	O 	0.0068	0.7102	0.2707	-0.5
Mof_O 	O 	0.6816	0.7703	0.25	-0.481
Mof_O 	O 	0.8251	0.7274	0.3324	-0.508
Mof_O 	O 	0.6441	0.5373	0.1097	-0.457
Mof_O 	O 	0.061	0.6113	0.3406	-0.414
Mof_O 	O 	0.8526	0.3996	0.3894	-0.635
Mof_O 	O 	0.8988	0.6172	0.2721	-0.42
Mof_O 	O 	0.8083	0.5125	0.4259	-0.472
Mof_O 	O 	0.5411	0.6996	0.1857	-0.472
Mof_O 	O 	0.5198	0.5782	0.1919	-0.493
Mof_O 	O 	0.4995	0.5838	0.307	-0.486
Mof_O 	O 	0.6637	0.4453	0.3579	-0.509
Mof_O 	O 	0.693	0.4388	0.1746	-0.451
Mof_O 	O 	0.898	0.386	0.1719	-0.374
Mof_O 	O 	0.6432	0.7922	0.3653	-0.345
Mof_O 	O 	0.01	0.7174	0.032	-0.361
Mof_O 	O 	0.1987	0.7928	0.9838	-0.33
Mof_O 	O 	0.0019	0.8497	0.0193	-0.306
Mof_O 	O 	0.2492	0.6954	0.0798	-0.328
Mof_O 	O 	0.987	0.8276	0.15	-0.539
Mof_O 	O 	0.3302	0.8193	0.0848	-0.555
Mof_O 	O 	0.4883	0.8442	0.1282	-0.611
Mof_O 	O 	0.8443	0.8624	0.096	-0.528
Mof_O 	O 	0.5104	0.9306	0.0165	-0.393
Mof_O 	O 	0.5873	0.7956	0.0167	-0.311
Mof_O 	O 	0.7405	0.9846	0.0785	-0.369
Mof_H 	H 	0.8327	0.6664	0.9094	0.166
Mof_H 	H 	0.9586	0.6693	0.9234	0.176
Mof_H 	H 	0.9123	0.6227	0.8763	0.17
Mof_H 	H 	0.8907	0.6122	0.9432	0.176
Mof_N 	N 	0.899	0.6426	0.9131	-0.39
Mof_H 	H 	0.2731	0.6073	0.5304	0.128
Mof_H 	H 	0.378	0.5889	0.4967	0.18
Mof_H 	H 	0.2623	0.5702	0.4714	0.171
Mof_H 	H 	0.3101	0.5383	0.5284	0.155
Mof_N 	N 	0.306	0.576	0.5067	-0.376
Mof_H 	H 	0.1673	0.1664	0.5906	0.166
Mof_H 	H 	0.0414	0.1693	0.5766	0.176
Mof_H 	H 	0.0877	0.1227	0.6237	0.17
Mof_H 	H 	0.1093	0.1122	0.5568	0.176
Mof_N 	N 	0.101	0.1426	0.5869	-0.39
Mof_H 	H 	0.7269	0.1073	0.9696	0.128
Mof_H 	H 	0.622	0.0889	0.0033	0.18
Mof_H 	H 	0.7377	0.0702	0.0286	0.171
Mof_H 	H 	0.6899	0.0383	0.9716	0.155
Mof_N 	N 	0.694	0.076	0.9933	-0.377
Mof_H 	H 	0.1673	0.3336	0.0906	0.166
Mof_H 	H 	0.0414	0.3307	0.0766	0.176
Mof_H 	H 	0.0877	0.3773	0.1237	0.17
Mof_H 	H 	0.1093	0.3878	0.0568	0.176
Mof_N 	N 	0.101	0.3574	0.0869	-0.39
Mof_H 	H 	0.7269	0.3927	0.4696	0.128
Mof_H 	H 	0.622	0.4111	0.5033	0.18
Mof_H 	H 	0.7377	0.4298	0.5286	0.171
Mof_H 	H 	0.6899	0.4617	0.4716	0.155
Mof_N 	N 	0.694	0.424	0.4933	-0.376
Mof_H 	H 	0.8327	0.8336	0.4094	0.166
Mof_H 	H 	0.9586	0.8307	0.4234	0.176
Mof_H 	H 	0.9123	0.8773	0.3763	0.17
Mof_H 	H 	0.8907	0.8878	0.4432	0.176
Mof_N 	N 	0.899	0.8574	0.4131	-0.39
Mof_H 	H 	0.2731	0.8927	0.0304	0.128
Mof_H 	H 	0.378	0.9111	0.9967	0.18
Mof_H 	H 	0.2623	0.9298	0.9714	0.171
Mof_H 	H 	0.3101	0.9617	0.0284	0.155
Mof_N 	N 	0.306	0.924	0.0067	-0.377
_end
