data_functionalizedCrystal
_audit_creation_method	'EQeq! by Chris Wilmer'
_symmetry_space_group_name_H-M	'P1'
_symmetry_Int_Tables_number	1
_symmetry_cell_setting	triclinic
loop_
_symmetry_equiv_pos_as_xyz
  x,y,z
_cell_length_a	8.7595
_cell_length_b	33.9181
_cell_length_c	8.7069
_cell_angle_alpha	90
_cell_angle_beta	107.797
_cell_angle_gamma	90
loop_
_atom_site_label
_atom_site_type_symbol
_atom_site_fract_x
_atom_site_fract_y
_atom_site_fract_z
_atom_site_charge
Mof_Cu	Cu	0.7507	0.20365	0.48696	0.948
Mof_Cu	Cu	0.74064	0.04578	0.49983	0.947
Mof_O 	O 	0.89358	0.15458	0.61545	-0.259
Mof_O 	O 	0.8548	0.0903	0.62915	-0.29
Mof_O 	O 	0.62199	0.15987	0.36456	-0.289
Mof_O 	O 	0.61443	0.09458	0.34734	-0.255
Mof_O 	O 	0.62426	0.20703	0.65006	-0.271
Mof_O 	O 	0.5964	0.24928	0.8341	-0.251
Mof_O 	O 	0.87783	0.24607	0.62425	-0.293
Mof_O 	O 	0.86467	0.28772	0.81699	-0.285
Mof_O 	O 	0.90925	0.04029	0.38151	-0.273
Mof_O 	O 	0.091	0.9986	0.34773	-0.253
Mof_O 	O 	0.57204	0.04137	0.61768	-0.28
Mof_O 	O 	0.38073	0.9991	0.62738	-0.29
Mof_C 	C 	0.8201	0.12364	0.5659	0.229
Mof_C 	C 	0.6716	0.126	0.4119	0.232
Mof_C 	C 	0.8164	0.25897	0.727	0.241
Mof_C 	C 	0.6657	0.23688	0.7407	0.217
Mof_C 	C 	0.0016	0.01092	0.4214	0.233
Mof_C 	C 	0.4862	0.01178	0.571	0.228
Mof_Cu	Cu	0.2493	0.70365	0.01304	0.942
Mof_Cu	Cu	0.25936	0.54578	0.00017	0.946
Mof_O 	O 	0.10642	0.65458	0.88455	-0.255
Mof_O 	O 	0.1452	0.5903	0.87085	-0.289
Mof_O 	O 	0.37801	0.65987	0.13544	-0.291
Mof_O 	O 	0.38557	0.59458	0.15266	-0.256
Mof_O 	O 	0.37574	0.70703	0.84994	-0.264
Mof_O 	O 	0.4036	0.74928	0.6659	-0.246
Mof_O 	O 	0.12217	0.74607	0.87575	-0.284
Mof_O 	O 	0.13533	0.78772	0.68301	-0.28
Mof_O 	O 	0.09075	0.54029	0.11849	-0.278
Mof_O 	O 	0.909	0.4986	0.15227	-0.252
Mof_O 	O 	0.42796	0.54137	0.88232	-0.277
Mof_O 	O 	0.61927	0.4991	0.87262	-0.29
Mof_C 	C 	0.1799	0.62364	0.9341	0.241
Mof_C 	C 	0.3284	0.626	0.0881	0.221
Mof_C 	C 	0.1836	0.75897	0.773	0.242
Mof_C 	C 	0.3343	0.73688	0.7593	0.218
Mof_C 	C 	0.9984	0.51092	0.0786	0.237
Mof_C 	C 	0.5138	0.51178	0.929	0.228
Mof_Cu	Cu	0.2493	0.79635	0.51304	0.949
Mof_Cu	Cu	0.25936	0.95422	0.50017	0.948
Mof_O 	O 	0.10642	0.84542	0.38455	-0.259
Mof_O 	O 	0.1452	0.9097	0.37085	-0.29
Mof_O 	O 	0.37801	0.84013	0.63544	-0.289
Mof_O 	O 	0.38557	0.90542	0.65266	-0.255
Mof_O 	O 	0.37574	0.79297	0.34994	-0.271
Mof_O 	O 	0.4036	0.75072	0.1659	-0.251
Mof_O 	O 	0.12217	0.75393	0.37575	-0.293
Mof_O 	O 	0.13533	0.71228	0.18301	-0.285
Mof_O 	O 	0.09075	0.95971	0.61849	-0.273
Mof_O 	O 	0.909	0.0014	0.65227	-0.253
Mof_O 	O 	0.42796	0.95863	0.38232	-0.28
Mof_O 	O 	0.61927	0.0009	0.37262	-0.29
Mof_C 	C 	0.1799	0.87636	0.4341	0.229
Mof_C 	C 	0.3284	0.874	0.5881	0.232
Mof_C 	C 	0.1836	0.74103	0.273	0.241
Mof_C 	C 	0.3343	0.76312	0.2593	0.217
Mof_C 	C 	0.9984	0.98908	0.5786	0.233
Mof_C 	C 	0.5138	0.98822	0.429	0.228
Mof_Cu	Cu	0.7507	0.29635	0.98696	0.942
Mof_Cu	Cu	0.74064	0.45422	0.99983	0.946
Mof_O 	O 	0.89358	0.34542	0.11545	-0.255
Mof_O 	O 	0.8548	0.4097	0.12915	-0.289
Mof_O 	O 	0.62199	0.34013	0.86456	-0.291
Mof_O 	O 	0.61443	0.40542	0.84734	-0.256
Mof_O 	O 	0.62426	0.29297	0.15006	-0.264
Mof_O 	O 	0.5964	0.25072	0.3341	-0.246
Mof_O 	O 	0.87783	0.25393	0.12425	-0.284
Mof_O 	O 	0.86467	0.21228	0.31699	-0.28
Mof_O 	O 	0.90925	0.45971	0.88151	-0.278
Mof_O 	O 	0.091	0.5014	0.84773	-0.252
Mof_O 	O 	0.57204	0.45863	0.11768	-0.277
Mof_O 	O 	0.38073	0.5009	0.12738	-0.29
Mof_C 	C 	0.8201	0.37636	0.0659	0.241
Mof_C 	C 	0.6716	0.374	0.9119	0.221
Mof_C 	C 	0.8164	0.24103	0.227	0.242
Mof_C 	C 	0.6657	0.26312	0.2407	0.218
Mof_C 	C 	0.0016	0.48908	0.9214	0.237
Mof_C 	C 	0.4862	0.48822	0.071	0.228
_end
