data_functionalizedCrystal
_audit_creation_method	'EQeq! by Chris Wilmer'
_symmetry_space_group_name_H-M	'P1'
_symmetry_Int_Tables_number	1
_symmetry_cell_setting	triclinic
loop_
_symmetry_equiv_pos_as_xyz
  x,y,z
_cell_length_a	13.4985
_cell_length_b	13.4985
_cell_length_c	18.12
_cell_angle_alpha	90
_cell_angle_beta	90
_cell_angle_gamma	120
loop_
_atom_site_label
_atom_site_type_symbol
_atom_site_fract_x
_atom_site_fract_y
_atom_site_fract_z
_atom_site_charge
Mof_H 	H 	0.25	0.259	0.002	0.106
Mof_H 	H 	0.254	0.38	0.038	-0.047
Mof_V 	V 	0.29214	0.43297	0.95846	1.809
Mof_P 	P 	0.16065	0.18634	0.87084	0.595
Mof_H 	H 	0.229	0.193	0.8471	-0.13
Mof_P 	P 	0.50385	0.63115	0.05342	0.591
Mof_O 	O 	0.1347	0.1083	0.93808	-0.512
Mof_O 	O 	0.0664	0.1408	0.81289	-0.539
Mof_O 	O 	0.3803	0.5468	0.03508	-0.493
Mof_O 	O 	0.189	0.3069	0.89239	-0.47
Mof_O 	O 	0.3268	0.5517	0.88225	-0.457
Mof_O 	O 	0.5711	0.5734	0.07552	-0.476
Mof_O 	O 	0.565	0.7171	0.99164	-0.436
Mof_O 	O 	0.256	0.3109	0.04097	-0.35
Mof_O 	O 	0.5008	0.6974	0.1215	-0.439
Mof_H 	H 	0.4428	0.657	0.1455	0.296
Mof_H 	H 	0.741	0.991	0.002	0.164
Mof_H 	H 	0.62	0.874	0.038	-0.04
Mof_V 	V 	0.56703	0.85917	0.95846	1.828
Mof_P 	P 	0.81366	0.97431	0.87084	0.881
Mof_H 	H 	0.807	0.036	0.8471	-0.266
Mof_P 	P 	0.36885	0.8727	0.05342	0.604
Mof_O 	O 	0.8917	0.0264	0.93808	-0.524
Mof_O 	O 	0.8592	0.9256	0.81289	-0.398
Mof_O 	O 	0.4532	0.8335	0.03508	-0.471
Mof_O 	O 	0.6931	0.8821	0.89239	-0.461
Mof_O 	O 	0.4483	0.7751	0.88225	-0.426
Mof_O 	O 	0.4266	0.9977	0.07552	-0.377
Mof_O 	O 	0.2829	0.8479	0.99164	-0.409
Mof_O 	O 	0.6891	0.9451	0.04097	-0.313
Mof_O 	O 	0.3026	0.8034	0.1215	-0.447
Mof_H 	H 	0.343	0.7858	0.1455	0.304
Mof_H 	H 	0.009	0.75	0.002	0.065
Mof_H 	H 	0.126	0.746	0.038	-0.042
Mof_V 	V 	0.14083	0.70786	0.95846	1.787
Mof_P 	P 	0.02569	0.83935	0.87084	0.272
Mof_H 	H 	0.964	0.771	0.8471	0.065
Mof_P 	P 	0.1273	0.49615	0.05342	0.589
Mof_O 	O 	0.9736	0.8653	0.93808	-0.259
Mof_O 	O 	0.0744	0.9336	0.81289	-0.361
Mof_O 	O 	0.1665	0.6197	0.03508	-0.511
Mof_O 	O 	0.1179	0.811	0.89239	-0.407
Mof_O 	O 	0.2249	0.6732	0.88225	-0.47
Mof_O 	O 	0.0023	0.4289	0.07552	-0.566
Mof_O 	O 	0.1521	0.435	0.99164	-0.474
Mof_O 	O 	0.0549	0.744	0.04097	-0.376
Mof_O 	O 	0.1966	0.4992	0.1215	-0.454
Mof_H 	H 	0.2142	0.5572	0.1455	0.292
Mof_H 	H 	0.259	0.25	0.498	0.129
Mof_H 	H 	0.38	0.254	0.462	-0.03
Mof_V 	V 	0.43297	0.29214	0.54154	1.797
Mof_P 	P 	0.18634	0.16065	0.62916	0.596
Mof_H 	H 	0.193	0.229	0.6529	-0.131
Mof_P 	P 	0.63115	0.50385	0.44658	0.622
Mof_O 	O 	0.1083	0.1347	0.56192	-0.534
Mof_O 	O 	0.1408	0.0664	0.68711	-0.538
Mof_O 	O 	0.5468	0.3803	0.46492	-0.478
Mof_O 	O 	0.3069	0.189	0.60761	-0.477
Mof_O 	O 	0.5517	0.3268	0.61775	-0.461
Mof_O 	O 	0.5734	0.5711	0.42448	-0.468
Mof_O 	O 	0.7171	0.565	0.50836	-0.47
Mof_O 	O 	0.3109	0.256	0.45903	-0.352
Mof_O 	O 	0.6974	0.5008	0.3785	-0.442
Mof_H 	H 	0.657	0.4428	0.3545	0.297
Mof_H 	H 	0.991	0.741	0.498	0.181
Mof_H 	H 	0.874	0.62	0.462	-0.025
Mof_V 	V 	0.85917	0.56703	0.54154	1.819
Mof_P 	P 	0.97431	0.81366	0.62916	0.898
Mof_H 	H 	0.036	0.807	0.6529	-0.277
Mof_P 	P 	0.8727	0.36885	0.44658	0.628
Mof_O 	O 	0.0264	0.8917	0.56192	-0.554
Mof_O 	O 	0.9256	0.8592	0.68711	-0.4
Mof_O 	O 	0.8335	0.4532	0.46492	-0.459
Mof_O 	O 	0.8821	0.6931	0.60761	-0.468
Mof_O 	O 	0.7751	0.4483	0.61775	-0.428
Mof_O 	O 	0.9977	0.4266	0.42448	-0.377
Mof_O 	O 	0.8479	0.2829	0.50836	-0.436
Mof_O 	O 	0.9451	0.6891	0.45903	-0.319
Mof_O 	O 	0.8034	0.3026	0.3785	-0.45
Mof_H 	H 	0.7858	0.343	0.3545	0.304
Mof_H 	H 	0.75	0.009	0.498	0.077
Mof_H 	H 	0.746	0.126	0.462	-0.03
Mof_V 	V 	0.70786	0.14083	0.54154	1.777
Mof_P 	P 	0.83935	0.02569	0.62916	0.28
Mof_H 	H 	0.771	0.964	0.6529	0.059
Mof_P 	P 	0.49615	0.1273	0.44658	0.619
Mof_O 	O 	0.8653	0.9736	0.56192	-0.277
Mof_O 	O 	0.9336	0.0744	0.68711	-0.358
Mof_O 	O 	0.6197	0.1665	0.46492	-0.5
Mof_O 	O 	0.811	0.1179	0.60761	-0.411
Mof_O 	O 	0.6732	0.2249	0.61775	-0.473
Mof_O 	O 	0.4289	0.0023	0.42448	-0.565
Mof_O 	O 	0.435	0.1521	0.50836	-0.508
Mof_O 	O 	0.744	0.0549	0.45903	-0.38
Mof_O 	O 	0.4992	0.1966	0.3785	-0.457
Mof_H 	H 	0.5572	0.2142	0.3545	0.292
Mof_H 	H 	0.75	0.741	0.998	0.15
Mof_H 	H 	0.746	0.62	0.962	-0.009
Mof_V 	V 	0.70786	0.56703	0.04154	1.785
Mof_P 	P 	0.83935	0.81366	0.12916	0.587
Mof_H 	H 	0.771	0.807	0.1529	-0.103
Mof_P 	P 	0.49615	0.36885	0.94658	0.66
Mof_O 	O 	0.8653	0.8917	0.06192	-0.399
Mof_O 	O 	0.9336	0.8592	0.18711	-0.336
Mof_O 	O 	0.6197	0.4532	0.96492	-0.463
Mof_O 	O 	0.811	0.6931	0.10761	-0.437
Mof_O 	O 	0.6732	0.4483	0.11775	-0.453
Mof_O 	O 	0.4289	0.4266	0.92448	-0.462
Mof_O 	O 	0.435	0.2829	0.00836	-0.513
Mof_O 	O 	0.744	0.6891	0.95903	-0.349
Mof_O 	O 	0.4992	0.3026	0.8785	-0.46
Mof_H 	H 	0.5572	0.343	0.8545	0.299
Mof_H 	H 	0.259	0.009	0.998	0.095
Mof_H 	H 	0.38	0.126	0.962	-0.013
Mof_V 	V 	0.43297	0.14083	0.04154	1.759
Mof_P 	P 	0.18634	0.02569	0.12916	0.216
Mof_H 	H 	0.193	0.964	0.1529	0.083
Mof_P 	P 	0.63115	0.1273	0.94658	0.657
Mof_O 	O 	0.1083	0.9736	0.06192	-0.328
Mof_O 	O 	0.1408	0.0744	0.18711	-0.464
Mof_O 	O 	0.5468	0.1665	0.96492	-0.482
Mof_O 	O 	0.3069	0.1179	0.10761	-0.438
Mof_O 	O 	0.5517	0.2249	0.11775	-0.488
Mof_O 	O 	0.5734	0.0023	0.92448	-0.549
Mof_O 	O 	0.7171	0.1521	0.00836	-0.552
Mof_O 	O 	0.3109	0.0549	0.95903	-0.384
Mof_O 	O 	0.6974	0.1966	0.8785	-0.45
Mof_H 	H 	0.657	0.2142	0.8545	0.292
Mof_H 	H 	0.991	0.25	0.998	0.212
Mof_H 	H 	0.874	0.254	0.962	-0.006
Mof_V 	V 	0.85917	0.29214	0.04154	1.802
Mof_P 	P 	0.97431	0.16065	0.12916	0.928
Mof_H 	H 	0.036	0.229	0.1529	-0.307
Mof_P 	P 	0.8727	0.50385	0.94658	0.662
Mof_O 	O 	0.0264	0.1347	0.06192	-0.664
Mof_O 	O 	0.9256	0.0664	0.18711	-0.5
Mof_O 	O 	0.8335	0.3803	0.96492	-0.44
Mof_O 	O 	0.8821	0.189	0.10761	-0.504
Mof_O 	O 	0.7751	0.3268	0.11775	-0.442
Mof_O 	O 	0.9977	0.5711	0.92448	-0.37
Mof_O 	O 	0.8479	0.565	0.00836	-0.478
Mof_O 	O 	0.9451	0.256	0.95903	-0.32
Mof_O 	O 	0.8034	0.5008	0.8785	-0.445
Mof_H 	H 	0.7858	0.4428	0.8545	0.304
Mof_H 	H 	0.741	0.75	0.502	0.131
Mof_H 	H 	0.62	0.746	0.538	-0.026
Mof_V 	V 	0.56703	0.70786	0.45846	1.798
Mof_P 	P 	0.81366	0.83935	0.37084	0.588
Mof_H 	H 	0.807	0.771	0.3471	-0.103
Mof_P 	P 	0.36885	0.49615	0.55342	0.625
Mof_O 	O 	0.8917	0.8653	0.43808	-0.384
Mof_O 	O 	0.8592	0.9336	0.31289	-0.333
Mof_O 	O 	0.4532	0.6197	0.53508	-0.48
Mof_O 	O 	0.6931	0.811	0.39239	-0.428
Mof_O 	O 	0.4483	0.6732	0.38225	-0.447
Mof_O 	O 	0.4266	0.4289	0.57552	-0.469
Mof_O 	O 	0.2829	0.435	0.49164	-0.473
Mof_O 	O 	0.6891	0.744	0.54097	-0.347
Mof_O 	O 	0.3026	0.4992	0.6215	-0.457
Mof_H 	H 	0.343	0.5572	0.6455	0.298
Mof_H 	H 	0.009	0.259	0.502	0.073
Mof_H 	H 	0.126	0.38	0.538	-0.032
Mof_V 	V 	0.14083	0.43297	0.45846	1.776
Mof_P 	P 	0.02569	0.18634	0.37084	0.251
Mof_H 	H 	0.964	0.193	0.3471	0.064
Mof_P 	P 	0.1273	0.63115	0.55342	0.618
Mof_O 	O 	0.9736	0.1083	0.43808	-0.333
Mof_O 	O 	0.0744	0.1408	0.31289	-0.468
Mof_O 	O 	0.1665	0.5468	0.53508	-0.499
Mof_O 	O 	0.1179	0.3069	0.39239	-0.433
Mof_O 	O 	0.2249	0.5517	0.38225	-0.48
Mof_O 	O 	0.0023	0.5734	0.57552	-0.559
Mof_O 	O 	0.1521	0.7171	0.49164	-0.503
Mof_O 	O 	0.0549	0.3109	0.54097	-0.384
Mof_O 	O 	0.1966	0.6974	0.6215	-0.448
Mof_H 	H 	0.2142	0.657	0.6455	0.291
Mof_H 	H 	0.25	0.991	0.502	0.189
Mof_H 	H 	0.254	0.874	0.538	-0.026
Mof_V 	V 	0.29214	0.85917	0.45846	1.82
Mof_P 	P 	0.16065	0.97431	0.37084	0.96
Mof_H 	H 	0.229	0.036	0.3471	-0.323
Mof_P 	P 	0.50385	0.8727	0.55342	0.627
Mof_O 	O 	0.1347	0.0264	0.43808	-0.658
Mof_O 	O 	0.0664	0.9256	0.31289	-0.494
Mof_O 	O 	0.3803	0.8335	0.53508	-0.457
Mof_O 	O 	0.189	0.8821	0.39239	-0.495
Mof_O 	O 	0.3268	0.7751	0.38225	-0.433
Mof_O 	O 	0.5711	0.9977	0.57552	-0.377
Mof_O 	O 	0.565	0.8479	0.49164	-0.436
Mof_O 	O 	0.256	0.9451	0.54097	-0.318
Mof_O 	O 	0.5008	0.8034	0.6215	-0.443
Mof_H 	H 	0.4428	0.7858	0.6455	0.303
Mof_V 	V 	-0	0	-0	1.657
Mof_V 	V 	-8.82857e-33	1.76571e-32	0.5	1.677
Mof_V 	V 	-0	1.76571e-32	0.75	1.677
Mof_V 	V 	-4.41429e-33	8.82857e-33	0.25	1.675
Mof_P 	P 	0.33333	0.66667	0.86158	0.573
Mof_H 	H 	0.33333	0.66667	0.8075	-0.102
Mof_P 	P 	0.66667	0.33333	0.63842	0.569
Mof_H 	H 	0.66667	0.33333	0.6925	-0.1
Mof_P 	P 	0.66667	0.33333	0.13842	0.565
Mof_H 	H 	0.66667	0.33333	0.1925	-0.099
Mof_P 	P 	0.33333	0.66667	0.36158	0.569
Mof_H 	H 	0.33333	0.66667	0.3075	-0.099
_end
