data_functionalizedCrystal
_audit_creation_method	'EQeq! by Chris Wilmer'
_symmetry_space_group_name_H-M	'P1'
_symmetry_Int_Tables_number	1
_symmetry_cell_setting	triclinic
loop_
_symmetry_equiv_pos_as_xyz
  x,y,z
_cell_length_a	26.1317
_cell_length_b	26.1317
_cell_length_c	6.722
_cell_angle_alpha	90
_cell_angle_beta	90
_cell_angle_gamma	120
loop_
_atom_site_label
_atom_site_type_symbol
_atom_site_fract_x
_atom_site_fract_y
_atom_site_fract_z
_atom_site_charge
Mof_Co	Co	0.38496	0.34926	0.15008	1.148
Mof_C 	C 	0.32926	0.20814	0.2854	-0.215
Mof_C 	C 	0.34415	0.22015	0.0852	0.175
Mof_C 	C 	0.34822	0.17867	0.96654	-0.049
Mof_H 	H 	0.3598	0.188	0.8111	0.056
Mof_C 	C 	0.31392	0.24562	0.423	0.524
Mof_O 	O 	0.32382	0.29195	0.3584	-0.617
Mof_O 	O 	0.29972	0.22892	0.5902	-0.509
Mof_O 	O 	0.35535	0.27214	0.9957	-0.514
Mof_Co	Co	0.05163	0.68259	0.48341	1.149
Mof_C 	C 	0.99593	0.54147	0.61873	-0.217
Mof_C 	C 	0.01082	0.55348	0.41853	0.183
Mof_C 	C 	0.01489	0.512	0.29987	-0.056
Mof_H 	H 	0.02647	0.52133	0.14443	0.058
Mof_C 	C 	0.98059	0.57895	0.75633	0.525
Mof_O 	O 	0.99049	0.62528	0.69173	-0.617
Mof_O 	O 	0.96639	0.56225	0.92353	-0.508
Mof_O 	O 	0.02202	0.60547	0.32903	-0.516
Mof_Co	Co	0.71829	0.01593	0.81675	1.149
Mof_C 	C 	0.66259	0.87481	0.95207	-0.223
Mof_C 	C 	0.67748	0.88682	0.75187	0.186
Mof_C 	C 	0.68155	0.84534	0.63321	-0.058
Mof_H 	H 	0.69313	0.85467	0.47777	0.059
Mof_C 	C 	0.64725	0.91229	0.08967	0.529
Mof_O 	O 	0.65715	0.95862	0.02507	-0.618
Mof_O 	O 	0.63305	0.89559	0.25687	-0.51
Mof_O 	O 	0.68868	0.93881	0.66237	-0.517
Mof_Co	Co	0.65074	0.0357	0.15008	1.148
Mof_C 	C 	0.79186	0.12112	0.2854	-0.213
Mof_C 	C 	0.77985	0.124	0.0852	0.173
Mof_C 	C 	0.82133	0.16955	0.96654	-0.045
Mof_H 	H 	0.812	0.1718	0.8111	0.055
Mof_C 	C 	0.75438	0.0683	0.423	0.524
Mof_O 	O 	0.70805	0.03187	0.3584	-0.617
Mof_O 	O 	0.77108	0.0708	0.5902	-0.508
Mof_O 	O 	0.72786	0.08321	0.9957	-0.512
Mof_Co	Co	0.31741	0.36903	0.48341	1.149
Mof_C 	C 	0.45853	0.45445	0.61873	-0.217
Mof_C 	C 	0.44652	0.45733	0.41853	0.183
Mof_C 	C 	0.488	0.50288	0.29987	-0.056
Mof_H 	H 	0.47867	0.50513	0.14443	0.058
Mof_C 	C 	0.42105	0.40163	0.75633	0.525
Mof_O 	O 	0.37472	0.3652	0.69173	-0.617
Mof_O 	O 	0.43775	0.40413	0.92353	-0.509
Mof_O 	O 	0.39453	0.41654	0.32903	-0.516
Mof_Co	Co	0.98407	0.70237	0.81675	1.149
Mof_C 	C 	0.12519	0.78779	0.95207	-0.226
Mof_C 	C 	0.11318	0.79067	0.75187	0.187
Mof_C 	C 	0.15466	0.83622	0.63321	-0.06
Mof_H 	H 	0.14533	0.83847	0.47777	0.059
Mof_C 	C 	0.08771	0.73497	0.08967	0.531
Mof_O 	O 	0.04138	0.69854	0.02507	-0.618
Mof_O 	O 	0.10441	0.73747	0.25687	-0.51
Mof_O 	O 	0.06119	0.74988	0.66237	-0.517
Mof_Co	Co	0.9643	0.61504	0.15008	1.148
Mof_C 	C 	0.87888	0.67074	0.2854	-0.214
Mof_C 	C 	0.876	0.65585	0.0852	0.176
Mof_C 	C 	0.83045	0.65178	0.96654	-0.048
Mof_H 	H 	0.8282	0.6402	0.8111	0.056
Mof_C 	C 	0.9317	0.68608	0.423	0.524
Mof_O 	O 	0.96813	0.67618	0.3584	-0.617
Mof_O 	O 	0.9292	0.70028	0.5902	-0.509
Mof_O 	O 	0.91679	0.64465	0.9957	-0.513
Mof_Co	Co	0.63097	0.94837	0.48341	1.149
Mof_C 	C 	0.54555	0.00407	0.61873	-0.217
Mof_C 	C 	0.54267	0.98918	0.41853	0.183
Mof_C 	C 	0.49712	0.98511	0.29987	-0.056
Mof_H 	H 	0.49487	0.97353	0.14443	0.058
Mof_C 	C 	0.59837	0.01941	0.75633	0.525
Mof_O 	O 	0.6348	0.00951	0.69173	-0.617
Mof_O 	O 	0.59587	0.03361	0.92353	-0.508
Mof_O 	O 	0.58346	0.97798	0.32903	-0.516
Mof_Co	Co	0.29763	0.28171	0.81675	1.149
Mof_C 	C 	0.21221	0.33741	0.95207	-0.223
Mof_C 	C 	0.20933	0.32252	0.75187	0.186
Mof_C 	C 	0.16378	0.31845	0.63321	-0.058
Mof_H 	H 	0.16153	0.30687	0.47777	0.059
Mof_C 	C 	0.26503	0.35275	0.08967	0.529
Mof_O 	O 	0.30146	0.34285	0.02507	-0.618
Mof_O 	O 	0.26253	0.36695	0.25687	-0.51
Mof_O 	O 	0.25012	0.31132	0.66237	-0.517
Mof_Co	Co	0.61504	0.65074	0.84992	1.149
Mof_C 	C 	0.67074	0.79186	0.7146	-0.214
Mof_C 	C 	0.65585	0.77985	0.9148	0.176
Mof_C 	C 	0.65178	0.82133	0.03346	-0.048
Mof_H 	H 	0.6402	0.812	0.1889	0.056
Mof_C 	C 	0.68608	0.75438	0.577	0.524
Mof_O 	O 	0.67618	0.70805	0.6416	-0.617
Mof_O 	O 	0.70028	0.77108	0.4098	-0.509
Mof_O 	O 	0.64465	0.72786	0.0043	-0.514
Mof_Co	Co	0.28171	0.98407	0.18325	1.149
Mof_C 	C 	0.33741	0.12519	0.04793	-0.223
Mof_C 	C 	0.32252	0.11318	0.24813	0.186
Mof_C 	C 	0.31845	0.15466	0.36679	-0.058
Mof_H 	H 	0.30687	0.14533	0.52223	0.059
Mof_C 	C 	0.35275	0.08771	0.91033	0.529
Mof_O 	O 	0.34285	0.04138	0.97493	-0.618
Mof_O 	O 	0.36695	0.10441	0.74313	-0.51
Mof_O 	O 	0.31132	0.06119	0.33763	-0.517
Mof_Co	Co	0.94837	0.31741	0.51659	1.149
Mof_C 	C 	0.00407	0.45853	0.38127	-0.217
Mof_C 	C 	0.98918	0.44652	0.58147	0.183
Mof_C 	C 	0.98511	0.488	0.70013	-0.056
Mof_H 	H 	0.97353	0.47867	0.85557	0.058
Mof_C 	C 	0.01941	0.42105	0.24367	0.525
Mof_O 	O 	0.00951	0.37472	0.30827	-0.617
Mof_O 	O 	0.03361	0.43775	0.07647	-0.508
Mof_O 	O 	0.97798	0.39453	0.67097	-0.516
Mof_Co	Co	0.34926	0.9643	0.84992	1.148
Mof_C 	C 	0.20814	0.87888	0.7146	-0.213
Mof_C 	C 	0.22015	0.876	0.9148	0.173
Mof_C 	C 	0.17867	0.83045	0.03346	-0.045
Mof_H 	H 	0.188	0.8282	0.1889	0.055
Mof_C 	C 	0.24562	0.9317	0.577	0.524
Mof_O 	O 	0.29195	0.96813	0.6416	-0.617
Mof_O 	O 	0.22892	0.9292	0.4098	-0.508
Mof_O 	O 	0.27214	0.91679	0.0043	-0.512
Mof_Co	Co	0.01593	0.29763	0.18325	1.149
Mof_C 	C 	0.87481	0.21221	0.04793	-0.226
Mof_C 	C 	0.88682	0.20933	0.24813	0.187
Mof_C 	C 	0.84534	0.16378	0.36679	-0.06
Mof_H 	H 	0.85467	0.16153	0.52223	0.059
Mof_C 	C 	0.91229	0.26503	0.91033	0.531
Mof_O 	O 	0.95862	0.30146	0.97493	-0.618
Mof_O 	O 	0.89559	0.26253	0.74313	-0.51
Mof_O 	O 	0.93881	0.25012	0.33763	-0.517
Mof_Co	Co	0.68259	0.63097	0.51659	1.149
Mof_C 	C 	0.54147	0.54555	0.38127	-0.217
Mof_C 	C 	0.55348	0.54267	0.58147	0.183
Mof_C 	C 	0.512	0.49712	0.70013	-0.056
Mof_H 	H 	0.52133	0.49487	0.85557	0.058
Mof_C 	C 	0.57895	0.59837	0.24367	0.525
Mof_O 	O 	0.62528	0.6348	0.30827	-0.617
Mof_O 	O 	0.56225	0.59587	0.07647	-0.509
Mof_O 	O 	0.60547	0.58346	0.67097	-0.516
Mof_Co	Co	0.0357	0.38496	0.84992	1.148
Mof_C 	C 	0.12112	0.32926	0.7146	-0.214
Mof_C 	C 	0.124	0.34415	0.9148	0.176
Mof_C 	C 	0.16955	0.34822	0.03346	-0.048
Mof_H 	H 	0.1718	0.3598	0.1889	0.056
Mof_C 	C 	0.0683	0.31392	0.577	0.524
Mof_O 	O 	0.03187	0.32382	0.6416	-0.617
Mof_O 	O 	0.0708	0.29972	0.4098	-0.509
Mof_O 	O 	0.08321	0.35535	0.0043	-0.513
Mof_Co	Co	0.70237	0.71829	0.18325	1.149
Mof_C 	C 	0.78779	0.66259	0.04793	-0.223
Mof_C 	C 	0.79067	0.67748	0.24813	0.186
Mof_C 	C 	0.83622	0.68155	0.36679	-0.058
Mof_H 	H 	0.83847	0.69313	0.52223	0.059
Mof_C 	C 	0.73497	0.64725	0.91033	0.529
Mof_O 	O 	0.69854	0.65715	0.97493	-0.618
Mof_O 	O 	0.73747	0.63305	0.74313	-0.51
Mof_O 	O 	0.74988	0.68868	0.33763	-0.517
Mof_Co	Co	0.36903	0.05163	0.51659	1.149
Mof_C 	C 	0.45445	0.99593	0.38127	-0.217
Mof_C 	C 	0.45733	0.01082	0.58147	0.183
Mof_C 	C 	0.50288	0.01489	0.70013	-0.056
Mof_H 	H 	0.50513	0.02647	0.85557	0.058
Mof_C 	C 	0.40163	0.98059	0.24367	0.525
Mof_O 	O 	0.3652	0.99049	0.30827	-0.617
Mof_O 	O 	0.40413	0.96639	0.07647	-0.508
Mof_O 	O 	0.41654	0.02202	0.67097	-0.516
_end
