data_functionalizedCrystal
_audit_creation_method	'EQeq! by Chris Wilmer'
_symmetry_space_group_name_H-M	'P1'
_symmetry_Int_Tables_number	1
_symmetry_cell_setting	triclinic
loop_
_symmetry_equiv_pos_as_xyz
  x,y,z
_cell_length_a	15.6209
_cell_length_b	15.6209
_cell_length_c	19.8944
_cell_angle_alpha	73.1029
_cell_angle_beta	73.1033
_cell_angle_gamma	105.05
loop_
_atom_site_label
_atom_site_type_symbol
_atom_site_fract_x
_atom_site_fract_y
_atom_site_fract_z
_atom_site_charge
Mof_Ag	Ag	0.42649	0.67649	0.14702	0.591
Mof_Ag	Ag	0.32352	0.57351	0.35297	0.591
Mof_Ag	Ag	0.57351	0.32351	0.85298	0.591
Mof_Ag	Ag	0.67649	0.42649	0.64702	0.591
Mof_H 	H 	0.4023	0.5365	0.0698	0.074
Mof_H 	H 	0.4242	0.5402	0.9496	0.056
Mof_H 	H 	0.2937	0.4853	0.9202	0.172
Mof_H 	H 	0.1155	0.4235	0.133	0.096
Mof_H 	H 	0.0112	0.373	0.873	0.078
Mof_H 	H 	0.8689	0.3155	0.8586	0.103
Mof_H 	H 	0.7204	0.284	0.071	0.06
Mof_H 	H 	0.8626	0.3404	0.0846	0.074
Mof_H 	H 	0.5279	0.8937	0.0698	0.068
Mof_H 	H 	0.6262	0.0102	0.9496	0.063
Mof_H 	H 	0.7861	0.0945	0.9202	0.166
Mof_H 	H 	0.7515	0.9435	0.133	0.093
Mof_H 	H 	0.1158	0.254	0.873	0.076
Mof_H 	H 	0.2725	0.3259	0.8586	0.102
Mof_H 	H 	0.2086	0.145	0.071	0.061
Mof_H 	H 	0.0528	0.075	0.0846	0.072
Mof_H 	H 	0.4635	0.5977	0.4302	0.073
Mof_H 	H 	0.4598	0.5758	0.5504	0.055
Mof_H 	H 	0.5147	0.7063	0.5798	0.171
Mof_H 	H 	0.5765	0.8845	0.367	0.096
Mof_H 	H 	0.627	0.9888	0.627	0.076
Mof_H 	H 	0.6845	0.1311	0.6414	0.102
Mof_H 	H 	0.716	0.2796	0.429	0.06
Mof_H 	H 	0.6596	0.1374	0.4154	0.073
Mof_H 	H 	0.1063	0.4721	0.4302	0.073
Mof_H 	H 	0.9898	0.3738	0.5504	0.056
Mof_H 	H 	0.9055	0.2139	0.5798	0.171
Mof_H 	H 	0.0565	0.2485	0.367	0.096
Mof_H 	H 	0.746	0.8842	0.627	0.077
Mof_H 	H 	0.6741	0.7275	0.6414	0.102
Mof_H 	H 	0.855	0.7914	0.429	0.06
Mof_H 	H 	0.925	0.9472	0.4154	0.072
Mof_H 	H 	0.5977	0.4635	0.9302	0.073
Mof_H 	H 	0.5758	0.4598	0.0504	0.055
Mof_H 	H 	0.7063	0.5147	0.0798	0.171
Mof_H 	H 	0.8845	0.5765	0.867	0.095
Mof_H 	H 	0.9888	0.627	0.127	0.077
Mof_H 	H 	0.1311	0.6845	0.1414	0.102
Mof_H 	H 	0.2796	0.716	0.929	0.06
Mof_H 	H 	0.1374	0.6596	0.9154	0.074
Mof_H 	H 	0.4721	0.1063	0.9302	0.068
Mof_H 	H 	0.3738	0.9898	0.0504	0.063
Mof_H 	H 	0.2139	0.9055	0.0798	0.166
Mof_H 	H 	0.2485	0.0565	0.867	0.093
Mof_H 	H 	0.8842	0.746	0.127	0.076
Mof_H 	H 	0.7275	0.6741	0.1414	0.102
Mof_H 	H 	0.7914	0.855	0.929	0.061
Mof_H 	H 	0.9472	0.925	0.9154	0.072
Mof_H 	H 	0.5365	0.4023	0.5698	0.073
Mof_H 	H 	0.5402	0.4242	0.4496	0.055
Mof_H 	H 	0.4853	0.2937	0.4202	0.171
Mof_H 	H 	0.4235	0.1155	0.633	0.096
Mof_H 	H 	0.373	0.0112	0.373	0.076
Mof_H 	H 	0.3155	0.8689	0.3586	0.102
Mof_H 	H 	0.284	0.7204	0.571	0.06
Mof_H 	H 	0.3404	0.8626	0.5846	0.073
Mof_H 	H 	0.8937	0.5279	0.5698	0.073
Mof_H 	H 	0.0102	0.6262	0.4496	0.056
Mof_H 	H 	0.0945	0.7861	0.4202	0.171
Mof_H 	H 	0.9435	0.7515	0.633	0.096
Mof_H 	H 	0.254	0.1158	0.373	0.077
Mof_H 	H 	0.3259	0.2725	0.3586	0.102
Mof_H 	H 	0.145	0.2086	0.571	0.06
Mof_H 	H 	0.075	0.0528	0.5846	0.072
Mof_C 	C 	0.24118	0.47908	0.18954	0.18
Mof_C 	C 	0.25695	0.47971	0.11334	0.025
Mof_C 	C 	0.3492	0.5146	0.0584	-0.099
Mof_C 	C 	0.36201	0.51661	0.98678	0.067
Mof_C 	C 	0.28361	0.48401	0.96898	-0.158
Mof_C 	C 	0.19134	0.44974	0.02272	0.107
Mof_C 	C 	0.17766	0.4471	0.09584	-0.118
Mof_C 	C 	0.10857	0.41917	0.00486	-0.03
Mof_C 	C 	0.03832	0.39432	0.99296	-0.003
Mof_C 	C 	0.9503	0.3603	0.982	0.048
Mof_C 	C 	0.9524	0.3542	0.913	-0.062
Mof_C 	C 	0.8674	0.3204	0.9044	-0.037
Mof_C 	C 	0.7807	0.2939	0.9632	-0.01
Mof_C 	C 	0.69212	0.26232	0.95296	0.099
Mof_C 	C 	0.7789	0.3015	0.031	-0.024
Mof_C 	C 	0.8642	0.335	0.039	-0.077
Mof_C 	C 	0.56928	0.83138	0.18954	0.183
Mof_C 	C 	0.62971	0.90695	0.11334	0.018
Mof_C 	C 	0.5924	0.927	0.0584	-0.086
Mof_C 	C 	0.65121	0.99661	0.98678	0.049
Mof_C 	C 	0.74741	0.04701	0.96898	-0.142
Mof_C 	C 	0.78594	0.02754	0.02272	0.099
Mof_C 	C 	0.7265	0.95706	0.09584	-0.111
Mof_C 	C 	0.88657	0.07597	0.00486	-0.033
Mof_C 	C 	0.96872	0.11272	0.99296	0.005
Mof_C 	C 	0.0677	0.1577	0.982	0.041
Mof_C 	C 	0.1346	0.2328	0.913	-0.06
Mof_C 	C 	0.2282	0.2752	0.9044	-0.039
Mof_C 	C 	0.2561	0.2429	0.9632	-0.009
Mof_C 	C 	0.35492	0.28472	0.95296	0.098
Mof_C 	C 	0.1901	0.1675	0.031	-0.026
Mof_C 	C 	0.0968	0.126	0.039	-0.072
Mof_C 	C 	0.52092	0.75882	0.31046	0.18
Mof_C 	C 	0.52029	0.74305	0.38666	0.026
Mof_C 	C 	0.4854	0.6508	0.4416	-0.1
Mof_C 	C 	0.48339	0.63799	0.51322	0.068
Mof_C 	C 	0.51599	0.71639	0.53102	-0.158
Mof_C 	C 	0.55026	0.80866	0.47728	0.108
Mof_C 	C 	0.5529	0.82234	0.40416	-0.119
Mof_C 	C 	0.58083	0.89143	0.49514	-0.032
Mof_C 	C 	0.60568	0.96168	0.50704	0
Mof_C 	C 	0.6397	0.0497	0.518	0.044
Mof_C 	C 	0.6458	0.0476	0.587	-0.061
Mof_C 	C 	0.6796	0.1326	0.5956	-0.038
Mof_C 	C 	0.7061	0.2193	0.5368	-0.011
Mof_C 	C 	0.73768	0.30788	0.54704	0.099
Mof_C 	C 	0.6985	0.2211	0.469	-0.024
Mof_C 	C 	0.665	0.1358	0.461	-0.074
Mof_C 	C 	0.16862	0.43072	0.31046	0.18
Mof_C 	C 	0.09305	0.37029	0.38666	0.026
Mof_C 	C 	0.073	0.4076	0.4416	-0.099
Mof_C 	C 	0.00339	0.34879	0.51322	0.066
Mof_C 	C 	0.95299	0.25259	0.53102	-0.157
Mof_C 	C 	0.97246	0.21406	0.47728	0.108
Mof_C 	C 	0.04294	0.2735	0.40416	-0.12
Mof_C 	C 	0.92403	0.11343	0.49514	-0.033
Mof_C 	C 	0.88728	0.03128	0.50704	0.002
Mof_C 	C 	0.8423	0.9323	0.518	0.043
Mof_C 	C 	0.7672	0.8654	0.587	-0.062
Mof_C 	C 	0.7248	0.7718	0.5956	-0.038
Mof_C 	C 	0.7571	0.7439	0.5368	-0.011
Mof_C 	C 	0.71528	0.64508	0.54704	0.099
Mof_C 	C 	0.8325	0.8099	0.469	-0.024
Mof_C 	C 	0.874	0.9032	0.461	-0.073
Mof_C 	C 	0.75882	0.52092	0.81046	0.18
Mof_C 	C 	0.74305	0.52029	0.88666	0.025
Mof_C 	C 	0.6508	0.4854	0.9416	-0.099
Mof_C 	C 	0.63799	0.48339	0.01322	0.067
Mof_C 	C 	0.71639	0.51599	0.03102	-0.158
Mof_C 	C 	0.80866	0.55026	0.97728	0.107
Mof_C 	C 	0.82234	0.5529	0.90416	-0.118
Mof_C 	C 	0.89143	0.58083	0.99514	-0.03
Mof_C 	C 	0.96168	0.60568	0.00704	-0.003
Mof_C 	C 	0.0497	0.6397	0.018	0.048
Mof_C 	C 	0.0476	0.6458	0.087	-0.062
Mof_C 	C 	0.1326	0.6796	0.0956	-0.037
Mof_C 	C 	0.2193	0.7061	0.0368	-0.01
Mof_C 	C 	0.30788	0.73768	0.04704	0.099
Mof_C 	C 	0.2211	0.6985	0.969	-0.024
Mof_C 	C 	0.1358	0.665	0.961	-0.077
Mof_C 	C 	0.43072	0.16862	0.81046	0.183
Mof_C 	C 	0.37029	0.09305	0.88666	0.018
Mof_C 	C 	0.4076	0.073	0.9416	-0.086
Mof_C 	C 	0.34879	0.00339	0.01322	0.049
Mof_C 	C 	0.25259	0.95299	0.03102	-0.142
Mof_C 	C 	0.21406	0.97246	0.97728	0.099
Mof_C 	C 	0.2735	0.04294	0.90416	-0.111
Mof_C 	C 	0.11343	0.92403	0.99514	-0.033
Mof_C 	C 	0.03128	0.88728	0.00704	0.005
Mof_C 	C 	0.9323	0.8423	0.018	0.041
Mof_C 	C 	0.8654	0.7672	0.087	-0.06
Mof_C 	C 	0.7718	0.7248	0.0956	-0.039
Mof_C 	C 	0.7439	0.7571	0.0368	-0.009
Mof_C 	C 	0.64508	0.71528	0.04704	0.098
Mof_C 	C 	0.8099	0.8325	0.969	-0.026
Mof_C 	C 	0.9032	0.874	0.961	-0.072
Mof_C 	C 	0.47908	0.24118	0.68954	0.18
Mof_C 	C 	0.47971	0.25695	0.61334	0.026
Mof_C 	C 	0.5146	0.3492	0.5584	-0.1
Mof_C 	C 	0.51661	0.36201	0.48678	0.068
Mof_C 	C 	0.48401	0.28361	0.46898	-0.158
Mof_C 	C 	0.44974	0.19134	0.52272	0.108
Mof_C 	C 	0.4471	0.17766	0.59584	-0.119
Mof_C 	C 	0.41917	0.10857	0.50486	-0.032
Mof_C 	C 	0.39432	0.03832	0.49296	0
Mof_C 	C 	0.3603	0.9503	0.482	0.044
Mof_C 	C 	0.3542	0.9524	0.413	-0.061
Mof_C 	C 	0.3204	0.8674	0.4044	-0.038
Mof_C 	C 	0.2939	0.7807	0.4632	-0.011
Mof_C 	C 	0.26232	0.69212	0.45296	0.099
Mof_C 	C 	0.3015	0.7789	0.531	-0.024
Mof_C 	C 	0.335	0.8642	0.539	-0.074
Mof_C 	C 	0.83138	0.56928	0.68954	0.18
Mof_C 	C 	0.90695	0.62971	0.61334	0.026
Mof_C 	C 	0.927	0.5924	0.5584	-0.099
Mof_C 	C 	0.99661	0.65121	0.48678	0.066
Mof_C 	C 	0.04701	0.74741	0.46898	-0.157
Mof_C 	C 	0.02754	0.78594	0.52272	0.108
Mof_C 	C 	0.95706	0.7265	0.59584	-0.12
Mof_C 	C 	0.07597	0.88657	0.50486	-0.033
Mof_C 	C 	0.11272	0.96872	0.49296	0.002
Mof_C 	C 	0.1577	0.0677	0.482	0.043
Mof_C 	C 	0.2328	0.1346	0.413	-0.062
Mof_C 	C 	0.2752	0.2282	0.4044	-0.038
Mof_C 	C 	0.2429	0.2561	0.4632	-0.011
Mof_C 	C 	0.28472	0.35492	0.45296	0.099
Mof_C 	C 	0.1675	0.1901	0.531	-0.024
Mof_C 	C 	0.126	0.0968	0.539	-0.073
Mof_N 	N 	0.2932	0.53604	0.21024	-0.188
Mof_N 	N 	0.62274	0.23874	0.94492	-0.183
Mof_N 	N 	0.49656	0.75372	0.21024	-0.189
Mof_N 	N 	0.43234	0.31634	0.94492	-0.183
Mof_N 	N 	0.46396	0.7068	0.28976	-0.188
Mof_N 	N 	0.76126	0.37726	0.55508	-0.183
Mof_N 	N 	0.24628	0.50344	0.28976	-0.188
Mof_N 	N 	0.68366	0.56766	0.55508	-0.183
Mof_N 	N 	0.7068	0.46396	0.78976	-0.188
Mof_N 	N 	0.37726	0.76126	0.05508	-0.183
Mof_N 	N 	0.50344	0.24628	0.78976	-0.189
Mof_N 	N 	0.56766	0.68366	0.05508	-0.183
Mof_N 	N 	0.53604	0.2932	0.71024	-0.188
Mof_N 	N 	0.23874	0.62274	0.44492	-0.183
Mof_N 	N 	0.75372	0.49656	0.71024	-0.188
Mof_N 	N 	0.31634	0.43234	0.44492	-0.183
Mof_O 	O 	0.1604	0.4104	0.25	-0.237
Mof_O 	O 	0.5896	0.8396	0.25	-0.238
Mof_O 	O 	0.8396	0.5896	0.75	-0.237
Mof_O 	O 	0.4104	0.1604	0.75	-0.238
Mof_B 	B 	0.2314	0.7686	0.25	2.894
Mof_F 	F 	0.1488	0.6662	0.2878	-0.792
Mof_F 	F 	0.1974	0.7944	0.3036	-1.076
Mof_F 	F 	0.3338	0.8512	0.2122	-0.792
Mof_F 	F 	0.2056	0.8026	0.1964	-1.076
Mof_B 	B 	0.5186	0.4814	0.25	2.894
Mof_F 	F 	0.5634	0.546	0.2878	-0.792
Mof_F 	F 	0.499	0.402	0.3036	-1.076
Mof_F 	F 	0.454	0.4366	0.2122	-0.792
Mof_F 	F 	0.598	0.501	0.1964	-1.076
Mof_B 	B 	0.7686	0.2314	0.75	2.894
Mof_F 	F 	0.8512	0.3338	0.7122	-0.792
Mof_F 	F 	0.8026	0.2056	0.6964	-1.076
Mof_F 	F 	0.6662	0.1488	0.7878	-0.792
Mof_F 	F 	0.7944	0.1974	0.8036	-1.076
Mof_B 	B 	0.4814	0.5186	0.75	2.894
Mof_F 	F 	0.4366	0.454	0.7122	-0.792
Mof_F 	F 	0.501	0.598	0.6964	-1.076
Mof_F 	F 	0.546	0.5634	0.7878	-0.792
Mof_F 	F 	0.402	0.499	0.8036	-1.076
_end
