data_functionalizedCrystal
_audit_creation_method	'EQeq! by Chris Wilmer'
_symmetry_space_group_name_H-M	'P1'
_symmetry_Int_Tables_number	1
_symmetry_cell_setting	triclinic
loop_
_symmetry_equiv_pos_as_xyz
  x,y,z
_cell_length_a	31.7864
_cell_length_b	33.3395
_cell_length_c	11.6773
_cell_angle_alpha	90
_cell_angle_beta	90
_cell_angle_gamma	90
loop_
_atom_site_label
_atom_site_type_symbol
_atom_site_fract_x
_atom_site_fract_y
_atom_site_fract_z
_atom_site_charge
Mof_O 	O 	0.73437	0.29062	0.8985	-0.405
Mof_O 	O 	0.69471	0.29096	0.7389	-0.416
Mof_N 	N 	0.54408	0.46181	0.05458	-0.249
Mof_N 	N 	0.59209	0.41449	0.0442	-0.172
Mof_C 	C 	0.56608	0.4392	0.9867	0.137
Mof_H 	H 	0.5641	0.44	0.9056	-0.037
Mof_C 	C 	0.67462	0.33171	0.8951	-0.133
Mof_C 	C 	0.70343	0.30216	0.8387	0.372
Mof_C 	C 	0.61994	0.38632	0.9938	0.191
Mof_C 	C 	0.68147	0.34504	0.0048	0.079
Mof_H 	H 	0.7049	0.3352	0.0468	0.015
Mof_C 	C 	0.61208	0.37251	0.8857	-0.189
Mof_H 	H 	0.5881	0.3818	0.8448	0.094
Mof_C 	C 	0.63917	0.3449	0.8356	0.088
Mof_H 	H 	0.6335	0.335	0.7608	0.015
Mof_C 	C 	0.65454	0.3726	0.0549	-0.2
Mof_H 	H 	0.6597	0.382	0.1304	0.098
Mof_C 	C 	0.58527	0.42195	0.1565	0.006
Mof_H 	H 	0.5985	0.409	0.2195	0.025
Mof_C 	C 	0.556	0.45132	0.1617	0.006
Mof_H 	H 	0.5454	0.4629	0.2303	0.009
Mof_O 	O 	0.23437	0.79062	0.3985	-0.409
Mof_O 	O 	0.19471	0.79096	0.2389	-0.418
Mof_N 	N 	0.04408	0.96181	0.55458	-0.235
Mof_N 	N 	0.09209	0.91449	0.5442	-0.152
Mof_C 	C 	0.06608	0.9392	0.4867	0.105
Mof_H 	H 	0.0641	0.94	0.4056	-0.029
Mof_C 	C 	0.17462	0.83171	0.3951	-0.145
Mof_C 	C 	0.20343	0.80216	0.3387	0.375
Mof_C 	C 	0.11994	0.88632	0.4938	0.16
Mof_C 	C 	0.18147	0.84504	0.5048	0.089
Mof_H 	H 	0.2049	0.8352	0.5468	0.017
Mof_C 	C 	0.11208	0.87251	0.3857	-0.177
Mof_H 	H 	0.0881	0.8818	0.3448	0.087
Mof_C 	C 	0.13917	0.8449	0.3356	0.083
Mof_H 	H 	0.1335	0.835	0.2608	0.014
Mof_C 	C 	0.15454	0.8726	0.5549	-0.177
Mof_H 	H 	0.1597	0.882	0.6304	0.094
Mof_C 	C 	0.08527	0.92195	0.6565	0.006
Mof_H 	H 	0.0985	0.909	0.7195	0.028
Mof_C 	C 	0.056	0.95132	0.6617	0.009
Mof_H 	H 	0.0454	0.9629	0.7303	0.01
Mof_O 	O 	0.26563	0.20938	0.8985	-0.405
Mof_O 	O 	0.30529	0.20904	0.7389	-0.415
Mof_N 	N 	0.45592	0.03819	0.05458	-0.249
Mof_N 	N 	0.40791	0.08551	0.0442	-0.172
Mof_C 	C 	0.43392	0.0608	0.9867	0.135
Mof_H 	H 	0.4359	0.06	0.9056	-0.038
Mof_C 	C 	0.32538	0.16829	0.8951	-0.134
Mof_C 	C 	0.29657	0.19784	0.8387	0.372
Mof_C 	C 	0.38006	0.11368	0.9938	0.19
Mof_C 	C 	0.31853	0.15496	0.0048	0.079
Mof_H 	H 	0.2951	0.1648	0.0468	0.014
Mof_C 	C 	0.38792	0.12749	0.8857	-0.189
Mof_H 	H 	0.4119	0.1182	0.8448	0.093
Mof_C 	C 	0.36083	0.1551	0.8356	0.087
Mof_H 	H 	0.3665	0.165	0.7608	0.015
Mof_C 	C 	0.34546	0.1274	0.0549	-0.2
Mof_H 	H 	0.3403	0.118	0.1304	0.097
Mof_C 	C 	0.41473	0.07805	0.1565	0.005
Mof_H 	H 	0.4015	0.091	0.2195	0.024
Mof_C 	C 	0.444	0.04868	0.1617	0.005
Mof_H 	H 	0.4546	0.0371	0.2303	0.007
Mof_O 	O 	0.76563	0.70938	0.3985	-0.409
Mof_O 	O 	0.80529	0.70904	0.2389	-0.417
Mof_N 	N 	0.95592	0.53819	0.55458	-0.233
Mof_N 	N 	0.90791	0.58551	0.5442	-0.152
Mof_C 	C 	0.93392	0.5608	0.4867	0.106
Mof_H 	H 	0.9359	0.56	0.4056	-0.028
Mof_C 	C 	0.82538	0.66829	0.3951	-0.145
Mof_C 	C 	0.79657	0.69784	0.3387	0.375
Mof_C 	C 	0.88006	0.61368	0.4938	0.161
Mof_C 	C 	0.81853	0.65496	0.5048	0.089
Mof_H 	H 	0.7951	0.6648	0.5468	0.017
Mof_C 	C 	0.88792	0.62749	0.3857	-0.177
Mof_H 	H 	0.9119	0.6182	0.3448	0.089
Mof_C 	C 	0.86083	0.6551	0.3356	0.084
Mof_H 	H 	0.8665	0.665	0.2608	0.016
Mof_C 	C 	0.84546	0.6274	0.5549	-0.177
Mof_H 	H 	0.8403	0.618	0.6304	0.094
Mof_C 	C 	0.91473	0.57805	0.6565	0.007
Mof_H 	H 	0.9015	0.591	0.7195	0.029
Mof_C 	C 	0.944	0.54868	0.6617	0.01
Mof_H 	H 	0.9546	0.5371	0.7303	0.013
Mof_O 	O 	0.26563	0.79062	0.1015	-0.414
Mof_O 	O 	0.30529	0.79096	0.2611	-0.417
Mof_N 	N 	0.45592	0.96181	0.94542	-0.22
Mof_N 	N 	0.40791	0.91449	0.9558	-0.131
Mof_C 	C 	0.43392	0.9392	0.0133	0.073
Mof_H 	H 	0.4359	0.94	0.0944	-0.017
Mof_C 	C 	0.32538	0.83171	0.1049	-0.157
Mof_C 	C 	0.29657	0.80216	0.1613	0.377
Mof_C 	C 	0.38006	0.88632	0.0062	0.127
Mof_C 	C 	0.31853	0.84504	0.9952	0.099
Mof_H 	H 	0.2951	0.8352	0.9532	0.018
Mof_C 	C 	0.38792	0.87251	0.1143	-0.164
Mof_H 	H 	0.4119	0.8818	0.1552	0.083
Mof_C 	C 	0.36083	0.8449	0.1644	0.079
Mof_H 	H 	0.3665	0.835	0.2392	0.018
Mof_C 	C 	0.34546	0.8726	0.9451	-0.151
Mof_H 	H 	0.3403	0.882	0.8696	0.087
Mof_C 	C 	0.41473	0.92195	0.8435	0.006
Mof_H 	H 	0.4015	0.909	0.7805	0.03
Mof_C 	C 	0.444	0.95132	0.8383	0.012
Mof_H 	H 	0.4546	0.9629	0.7697	0.011
Mof_O 	O 	0.76563	0.29062	0.6015	-0.409
Mof_O 	O 	0.80529	0.29096	0.7611	-0.414
Mof_N 	N 	0.95592	0.46181	0.44542	-0.233
Mof_N 	N 	0.90791	0.41449	0.4558	-0.152
Mof_C 	C 	0.93392	0.4392	0.5133	0.106
Mof_H 	H 	0.9359	0.44	0.5944	-0.026
Mof_C 	C 	0.82538	0.33171	0.6049	-0.144
Mof_C 	C 	0.79657	0.30216	0.6613	0.374
Mof_C 	C 	0.88006	0.38632	0.5062	0.16
Mof_C 	C 	0.81853	0.34504	0.4952	0.088
Mof_H 	H 	0.7951	0.3352	0.4532	0.015
Mof_C 	C 	0.88792	0.37251	0.6143	-0.176
Mof_H 	H 	0.9119	0.3818	0.6552	0.091
Mof_C 	C 	0.86083	0.3449	0.6644	0.084
Mof_H 	H 	0.8665	0.335	0.7392	0.019
Mof_C 	C 	0.84546	0.3726	0.4451	-0.176
Mof_H 	H 	0.8403	0.382	0.3696	0.091
Mof_C 	C 	0.91473	0.42195	0.3435	0.006
Mof_H 	H 	0.9015	0.409	0.2805	0.026
Mof_C 	C 	0.944	0.45132	0.3383	0.009
Mof_H 	H 	0.9546	0.4629	0.2697	0.01
Mof_O 	O 	0.73437	0.70938	0.1015	-0.414
Mof_O 	O 	0.69471	0.70904	0.2611	-0.417
Mof_N 	N 	0.54408	0.53819	0.94542	-0.222
Mof_N 	N 	0.59209	0.58551	0.9558	-0.131
Mof_C 	C 	0.56608	0.5608	0.0133	0.072
Mof_H 	H 	0.5641	0.56	0.0944	-0.019
Mof_C 	C 	0.67462	0.66829	0.1049	-0.157
Mof_C 	C 	0.70343	0.69784	0.1613	0.377
Mof_C 	C 	0.61994	0.61368	0.0062	0.126
Mof_C 	C 	0.68147	0.65496	0.9952	0.099
Mof_H 	H 	0.7049	0.6648	0.9532	0.018
Mof_C 	C 	0.61208	0.62749	0.1143	-0.164
Mof_H 	H 	0.5881	0.6182	0.1552	0.083
Mof_C 	C 	0.63917	0.6551	0.1644	0.079
Mof_H 	H 	0.6335	0.665	0.2392	0.018
Mof_C 	C 	0.65454	0.6274	0.9451	-0.151
Mof_H 	H 	0.6597	0.618	0.8696	0.086
Mof_C 	C 	0.58527	0.57805	0.8435	0.005
Mof_H 	H 	0.5985	0.591	0.7805	0.029
Mof_C 	C 	0.556	0.54868	0.8383	0.011
Mof_H 	H 	0.5454	0.5371	0.7697	0.009
Mof_O 	O 	0.23437	0.20938	0.6015	-0.41
Mof_O 	O 	0.19471	0.20904	0.7611	-0.415
Mof_N 	N 	0.04408	0.03819	0.44542	-0.239
Mof_N 	N 	0.09209	0.08551	0.4558	-0.152
Mof_C 	C 	0.06608	0.0608	0.5133	0.103
Mof_H 	H 	0.0641	0.06	0.5944	-0.03
Mof_C 	C 	0.17462	0.16829	0.6049	-0.144
Mof_C 	C 	0.20343	0.19784	0.6613	0.374
Mof_C 	C 	0.11994	0.11368	0.5062	0.157
Mof_C 	C 	0.18147	0.15496	0.4952	0.087
Mof_H 	H 	0.2049	0.1648	0.4532	0.015
Mof_C 	C 	0.11208	0.12749	0.6143	-0.176
Mof_H 	H 	0.0881	0.1182	0.6552	0.087
Mof_C 	C 	0.13917	0.1551	0.6644	0.082
Mof_H 	H 	0.1335	0.165	0.7392	0.017
Mof_C 	C 	0.15454	0.1274	0.4451	-0.176
Mof_H 	H 	0.1597	0.118	0.3696	0.09
Mof_C 	C 	0.08527	0.07805	0.3435	0.003
Mof_H 	H 	0.0985	0.091	0.2805	0.024
Mof_C 	C 	0.056	0.04868	0.3383	0.006
Mof_H 	H 	0.0454	0.0371	0.2697	0.003
Mof_O 	O 	0.26563	0.70938	0.1015	-0.414
Mof_O 	O 	0.30529	0.70904	0.2611	-0.417
Mof_N 	N 	0.45592	0.53819	0.94542	-0.222
Mof_N 	N 	0.40791	0.58551	0.9558	-0.131
Mof_C 	C 	0.43392	0.5608	0.0133	0.072
Mof_H 	H 	0.4359	0.56	0.0944	-0.019
Mof_C 	C 	0.32538	0.66829	0.1049	-0.157
Mof_C 	C 	0.29657	0.69784	0.1613	0.377
Mof_C 	C 	0.38006	0.61368	0.0062	0.126
Mof_C 	C 	0.31853	0.65496	0.9952	0.099
Mof_H 	H 	0.2951	0.6648	0.9532	0.017
Mof_C 	C 	0.38792	0.62749	0.1143	-0.164
Mof_H 	H 	0.4119	0.6182	0.1552	0.083
Mof_C 	C 	0.36083	0.6551	0.1644	0.079
Mof_H 	H 	0.3665	0.665	0.2392	0.018
Mof_C 	C 	0.34546	0.6274	0.9451	-0.151
Mof_H 	H 	0.3403	0.618	0.8696	0.086
Mof_C 	C 	0.41473	0.57805	0.8435	0.005
Mof_H 	H 	0.4015	0.591	0.7805	0.029
Mof_C 	C 	0.444	0.54868	0.8383	0.011
Mof_H 	H 	0.4546	0.5371	0.7697	0.009
Mof_O 	O 	0.76563	0.20938	0.6015	-0.41
Mof_O 	O 	0.80529	0.20904	0.7611	-0.414
Mof_N 	N 	0.95592	0.03819	0.44542	-0.235
Mof_N 	N 	0.90791	0.08551	0.4558	-0.152
Mof_C 	C 	0.93392	0.0608	0.5133	0.105
Mof_H 	H 	0.9359	0.06	0.5944	-0.027
Mof_C 	C 	0.82538	0.16829	0.6049	-0.144
Mof_C 	C 	0.79657	0.19784	0.6613	0.374
Mof_C 	C 	0.88006	0.11368	0.5062	0.159
Mof_C 	C 	0.81853	0.15496	0.4952	0.088
Mof_H 	H 	0.7951	0.1648	0.4532	0.015
Mof_C 	C 	0.88792	0.12749	0.6143	-0.176
Mof_H 	H 	0.9119	0.1182	0.6552	0.09
Mof_C 	C 	0.86083	0.1551	0.6644	0.083
Mof_H 	H 	0.8665	0.165	0.7392	0.019
Mof_C 	C 	0.84546	0.1274	0.4451	-0.176
Mof_H 	H 	0.8403	0.118	0.3696	0.091
Mof_C 	C 	0.91473	0.07805	0.3435	0.005
Mof_H 	H 	0.9015	0.091	0.2805	0.025
Mof_C 	C 	0.944	0.04868	0.3383	0.008
Mof_H 	H 	0.9546	0.0371	0.2697	0.008
Mof_O 	O 	0.73437	0.79062	0.1015	-0.414
Mof_O 	O 	0.69471	0.79096	0.2611	-0.417
Mof_N 	N 	0.54408	0.96181	0.94542	-0.22
Mof_N 	N 	0.59209	0.91449	0.9558	-0.131
Mof_C 	C 	0.56608	0.9392	0.0133	0.073
Mof_H 	H 	0.5641	0.94	0.0944	-0.017
Mof_C 	C 	0.67462	0.83171	0.1049	-0.157
Mof_C 	C 	0.70343	0.80216	0.1613	0.377
Mof_C 	C 	0.61994	0.88632	0.0062	0.127
Mof_C 	C 	0.68147	0.84504	0.9952	0.099
Mof_H 	H 	0.7049	0.8352	0.9532	0.018
Mof_C 	C 	0.61208	0.87251	0.1143	-0.164
Mof_H 	H 	0.5881	0.8818	0.1552	0.083
Mof_C 	C 	0.63917	0.8449	0.1644	0.079
Mof_H 	H 	0.6335	0.835	0.2392	0.018
Mof_C 	C 	0.65454	0.8726	0.9451	-0.151
Mof_H 	H 	0.6597	0.882	0.8696	0.087
Mof_C 	C 	0.58527	0.92195	0.8435	0.006
Mof_H 	H 	0.5985	0.909	0.7805	0.03
Mof_C 	C 	0.556	0.95132	0.8383	0.012
Mof_H 	H 	0.5454	0.9629	0.7697	0.011
Mof_O 	O 	0.23437	0.29062	0.6015	-0.41
Mof_O 	O 	0.19471	0.29096	0.7611	-0.415
Mof_N 	N 	0.04408	0.46181	0.44542	-0.238
Mof_N 	N 	0.09209	0.41449	0.4558	-0.152
Mof_C 	C 	0.06608	0.4392	0.5133	0.104
Mof_H 	H 	0.0641	0.44	0.5944	-0.029
Mof_C 	C 	0.17462	0.33171	0.6049	-0.144
Mof_C 	C 	0.20343	0.30216	0.6613	0.374
Mof_C 	C 	0.11994	0.38632	0.5062	0.158
Mof_C 	C 	0.18147	0.34504	0.4952	0.087
Mof_H 	H 	0.2049	0.3352	0.4532	0.015
Mof_C 	C 	0.11208	0.37251	0.6143	-0.176
Mof_H 	H 	0.0881	0.3818	0.6552	0.087
Mof_C 	C 	0.13917	0.3449	0.6644	0.082
Mof_H 	H 	0.1335	0.335	0.7392	0.017
Mof_C 	C 	0.15454	0.3726	0.4451	-0.176
Mof_H 	H 	0.1597	0.382	0.3696	0.091
Mof_C 	C 	0.08527	0.42195	0.3435	0.004
Mof_H 	H 	0.0985	0.409	0.2805	0.024
Mof_C 	C 	0.056	0.45132	0.3383	0.007
Mof_H 	H 	0.0454	0.4629	0.2697	0.004
Mof_O 	O 	0.73437	0.20938	0.8985	-0.405
Mof_O 	O 	0.69471	0.20904	0.7389	-0.415
Mof_N 	N 	0.54408	0.03819	0.05458	-0.249
Mof_N 	N 	0.59209	0.08551	0.0442	-0.172
Mof_C 	C 	0.56608	0.0608	0.9867	0.135
Mof_H 	H 	0.5641	0.06	0.9056	-0.038
Mof_C 	C 	0.67462	0.16829	0.8951	-0.133
Mof_C 	C 	0.70343	0.19784	0.8387	0.372
Mof_C 	C 	0.61994	0.11368	0.9938	0.19
Mof_C 	C 	0.68147	0.15496	0.0048	0.079
Mof_H 	H 	0.7049	0.1648	0.0468	0.014
Mof_C 	C 	0.61208	0.12749	0.8857	-0.189
Mof_H 	H 	0.5881	0.1182	0.8448	0.093
Mof_C 	C 	0.63917	0.1551	0.8356	0.087
Mof_H 	H 	0.6335	0.165	0.7608	0.015
Mof_C 	C 	0.65454	0.1274	0.0549	-0.2
Mof_H 	H 	0.6597	0.118	0.1304	0.097
Mof_C 	C 	0.58527	0.07805	0.1565	0.005
Mof_H 	H 	0.5985	0.091	0.2195	0.024
Mof_C 	C 	0.556	0.04868	0.1617	0.005
Mof_H 	H 	0.5454	0.0371	0.2303	0.007
Mof_O 	O 	0.23437	0.70938	0.3985	-0.409
Mof_O 	O 	0.19471	0.70904	0.2389	-0.418
Mof_N 	N 	0.04408	0.53819	0.55458	-0.238
Mof_N 	N 	0.09209	0.58551	0.5442	-0.152
Mof_C 	C 	0.06608	0.5608	0.4867	0.104
Mof_H 	H 	0.0641	0.56	0.4056	-0.031
Mof_C 	C 	0.17462	0.66829	0.3951	-0.145
Mof_C 	C 	0.20343	0.69784	0.3387	0.375
Mof_C 	C 	0.11994	0.61368	0.4938	0.159
Mof_C 	C 	0.18147	0.65496	0.5048	0.088
Mof_H 	H 	0.2049	0.6648	0.5468	0.017
Mof_C 	C 	0.11208	0.62749	0.3857	-0.177
Mof_H 	H 	0.0881	0.6182	0.3448	0.086
Mof_C 	C 	0.13917	0.6551	0.3356	0.083
Mof_H 	H 	0.1335	0.665	0.2608	0.014
Mof_C 	C 	0.15454	0.6274	0.5549	-0.176
Mof_H 	H 	0.1597	0.618	0.6304	0.093
Mof_C 	C 	0.08527	0.57805	0.6565	0.005
Mof_H 	H 	0.0985	0.591	0.7195	0.028
Mof_C 	C 	0.056	0.54868	0.6617	0.008
Mof_H 	H 	0.0454	0.5371	0.7303	0.008
Mof_O 	O 	0.26563	0.29062	0.8985	-0.405
Mof_O 	O 	0.30529	0.29096	0.7389	-0.415
Mof_N 	N 	0.45592	0.46181	0.05458	-0.248
Mof_N 	N 	0.40791	0.41449	0.0442	-0.172
Mof_C 	C 	0.43392	0.4392	0.9867	0.137
Mof_H 	H 	0.4359	0.44	0.9056	-0.037
Mof_C 	C 	0.32538	0.33171	0.8951	-0.134
Mof_C 	C 	0.29657	0.30216	0.8387	0.372
Mof_C 	C 	0.38006	0.38632	0.9938	0.191
Mof_C 	C 	0.31853	0.34504	0.0048	0.079
Mof_H 	H 	0.2951	0.3352	0.0468	0.014
Mof_C 	C 	0.38792	0.37251	0.8857	-0.189
Mof_H 	H 	0.4119	0.3818	0.8448	0.094
Mof_C 	C 	0.36083	0.3449	0.8356	0.088
Mof_H 	H 	0.3665	0.335	0.7608	0.015
Mof_C 	C 	0.34546	0.3726	0.0549	-0.201
Mof_H 	H 	0.3403	0.382	0.1304	0.098
Mof_C 	C 	0.41473	0.42195	0.1565	0.006
Mof_H 	H 	0.4015	0.409	0.2195	0.025
Mof_C 	C 	0.444	0.45132	0.1617	0.006
Mof_H 	H 	0.4546	0.4629	0.2303	0.009
Mof_O 	O 	0.76563	0.79062	0.3985	-0.408
Mof_O 	O 	0.80529	0.79096	0.2389	-0.417
Mof_N 	N 	0.95592	0.96181	0.55458	-0.231
Mof_N 	N 	0.90791	0.91449	0.5442	-0.152
Mof_C 	C 	0.93392	0.9392	0.4867	0.107
Mof_H 	H 	0.9359	0.94	0.4056	-0.026
Mof_C 	C 	0.82538	0.83171	0.3951	-0.145
Mof_C 	C 	0.79657	0.80216	0.3387	0.375
Mof_C 	C 	0.88006	0.88632	0.4938	0.162
Mof_C 	C 	0.81853	0.84504	0.5048	0.09
Mof_H 	H 	0.7951	0.8352	0.5468	0.017
Mof_C 	C 	0.88792	0.87251	0.3857	-0.177
Mof_H 	H 	0.9119	0.8818	0.3448	0.09
Mof_C 	C 	0.86083	0.8449	0.3356	0.085
Mof_H 	H 	0.8665	0.835	0.2608	0.016
Mof_C 	C 	0.84546	0.8726	0.5549	-0.177
Mof_H 	H 	0.8403	0.882	0.6304	0.095
Mof_C 	C 	0.91473	0.92195	0.6565	0.008
Mof_H 	H 	0.9015	0.909	0.7195	0.03
Mof_C 	C 	0.944	0.95132	0.6617	0.011
Mof_H 	H 	0.9546	0.9629	0.7303	0.015
Mof_Cu	Cu	0.5	0.5	-0	0.848
Mof_Cu	Cu	6.88704e-34	-2.03989e-33	0.5	0.845
Mof_Cu	Cu	0.5	0	-0	0.844
Mof_Cu	Cu	-1.35119e-33	0.5	0.5	0.849
Mof_Cu	Cu	0.77376	0.25	0.84324	0.907
Mof_Cu	Cu	0.27376	0.75	0.34324	0.907
Mof_Cu	Cu	0.22624	0.25	0.84324	0.907
Mof_Cu	Cu	0.72624	0.75	0.34324	0.907
Mof_Cu	Cu	0.22624	0.75	0.15676	0.905
Mof_Cu	Cu	0.72624	0.25	0.65676	0.906
Mof_Cu	Cu	0.77376	0.75	0.15676	0.906
Mof_Cu	Cu	0.27376	0.25	0.65676	0.906
_end
