data_functionalizedCrystal
_audit_creation_method	'EQeq! by Chris Wilmer'
_symmetry_space_group_name_H-M	'P1'
_symmetry_Int_Tables_number	1
_symmetry_cell_setting	triclinic
loop_
_symmetry_equiv_pos_as_xyz
  x,y,z
_cell_length_a	7.9332
_cell_length_b	9.901
_cell_length_c	17.2163
_cell_angle_alpha	104.07
_cell_angle_beta	90
_cell_angle_gamma	113.617
loop_
_atom_site_label
_atom_site_type_symbol
_atom_site_fract_x
_atom_site_fract_y
_atom_site_fract_z
_atom_site_charge
Mof_Zn	Zn	0.18685	0.83268	0.75572	1.192
Mof_Zn	Zn	0.33371	0.50092	0.7566	1.209
Mof_Zn	Zn	0.35417	0.16732	0.24428	1.191
Mof_Zn	Zn	0.83279	0.49908	0.2434	1.208
Mof_H 	H 	0.8767	0.7862	0.6063	0.058
Mof_H 	H 	0.8249	0.685	0.4674	0.028
Mof_H 	H 	0.4779	0.2822	0.495	0.029
Mof_H 	H 	0.5425	0.3728	0.6335	0.044
Mof_H 	H 	0.1465	0.0666	0.8972	0.052
Mof_H 	H 	0.2464	0.1448	0.0325	0.008
Mof_H 	H 	0.6878	0.4964	0.9982	0.027
Mof_H 	H 	0.5824	0.422	0.8639	0.049
Mof_H 	H 	0.0905	0.2138	0.3937	0.06
Mof_H 	H 	0.1399	0.315	0.5326	0.033
Mof_H 	H 	0.1957	0.7178	0.505	0.032
Mof_H 	H 	0.1697	0.6272	0.3665	0.044
Mof_H 	H 	0.0799	0.9334	0.1028	0.052
Mof_H 	H 	0.1016	0.8552	0.9675	0.01
Mof_H 	H 	0.1914	0.5036	0.0018	0.03
Mof_H 	H 	0.1604	0.578	0.1361	0.051
Mof_C 	C 	0.741	0.6592	0.7216	0.105
Mof_C 	C 	0.7145	0.5922	0.6345	-0.019
Mof_C 	C 	0.7988	0.6838	0.5844	-0.089
Mof_C 	C 	0.7676	0.6232	0.5011	0.043
Mof_C 	C 	0.6521	0.472	0.4688	-0.141
Mof_C 	C 	0.5629	0.3822	0.5178	0.047
Mof_C 	C 	0.5966	0.4372	0.6006	-0.097
Mof_C 	C 	0.6072	0.4064	0.3766	0.468
Mof_C 	C 	0.2837	0.1874	0.7794	0.103
Mof_C 	C 	0.3531	0.2422	0.8673	-0.005
Mof_C 	C 	0.254	0.1546	0.9177	-0.121
Mof_C 	C 	0.317	0.1996	0.9983	0.076
Mof_C 	C 	0.4774	0.3202	0.0289	-0.168
Mof_C 	C 	0.5791	0.4096	0.9778	0.056
Mof_C 	C 	0.5143	0.3658	0.898	-0.104
Mof_C 	C 	0.5541	0.3618	0.1169	0.489
Mof_C 	C 	0.0818	0.3408	0.2784	0.116
Mof_C 	C 	0.1223	0.4078	0.3655	-0.022
Mof_C 	C 	0.115	0.3162	0.4156	-0.083
Mof_C 	C 	0.1444	0.3768	0.4989	0.041
Mof_C 	C 	0.1801	0.528	0.5312	-0.136
Mof_C 	C 	0.1807	0.6178	0.4822	0.045
Mof_C 	C 	0.1594	0.5628	0.3994	-0.091
Mof_C 	C 	0.2008	0.5936	0.6234	0.468
Mof_C 	C 	0.0963	0.8126	0.2206	0.104
Mof_C 	C 	0.1109	0.7578	0.1327	-0.005
Mof_C 	C 	0.0994	0.8454	0.0823	-0.119
Mof_C 	C 	0.1174	0.8004	0.0017	0.075
Mof_C 	C 	0.1572	0.6798	0.9711	-0.164
Mof_C 	C 	0.1695	0.5904	0.0222	0.055
Mof_C 	C 	0.1485	0.6342	0.102	-0.101
Mof_C 	C 	0.1923	0.6382	0.8831	0.488
Mof_N 	N 	0.6046	0.6344	0.7694	-0.25
Mof_N 	N 	0.6811	0.724	0.8443	-0.073
Mof_N 	N 	0.8575	0.8	0.8422	-0.071
Mof_N 	N 	0.8975	0.7596	0.7651	-0.216
Mof_N 	N 	0.2829	0.2774	0.7344	-0.233
Mof_N 	N 	0.1994	0.1794	0.6604	-0.06
Mof_N 	N 	0.1529	0.0406	0.6621	-0.063
Mof_N 	N 	0.2086	0.04	0.7384	-0.232
Mof_N 	N 	0.9702	0.3656	0.2306	-0.258
Mof_N 	N 	0.9571	0.276	0.1557	-0.079
Mof_N 	N 	0.0575	0.2	0.1578	-0.063
Mof_N 	N 	0.1379	0.2404	0.2349	-0.214
Mof_N 	N 	0.0055	0.7226	0.2656	-0.23
Mof_N 	N 	0.02	0.8206	0.3396	-0.058
Mof_N 	N 	0.1123	0.9594	0.3379	-0.063
Mof_N 	N 	0.1686	0.96	0.2616	-0.232
Mof_O 	O 	0.4907	0.2808	0.3516	-0.549
Mof_O 	O 	0.7008	0.4972	0.3362	-0.541
Mof_O 	O 	0.4645	0.2722	0.1547	-0.549
Mof_O 	O 	0.7023	0.4692	0.1411	-0.532
Mof_O 	O 	0.2099	0.7192	0.6484	-0.545
Mof_O 	O 	0.2036	0.5028	0.6638	-0.537
Mof_O 	O 	0.1923	0.7278	0.8453	-0.546
Mof_O 	O 	0.2331	0.5308	0.8589	-0.527
_end
