data_functionalizedCrystal
_audit_creation_method	'EQeq! by Chris Wilmer'
_symmetry_space_group_name_H-M	'P1'
_symmetry_Int_Tables_number	1
_symmetry_cell_setting	triclinic
loop_
_symmetry_equiv_pos_as_xyz
  x,y,z
_cell_length_a	18.7318
_cell_length_b	18.7318
_cell_length_c	18.7318
_cell_angle_alpha	60
_cell_angle_beta	60
_cell_angle_gamma	60
loop_
_atom_site_label
_atom_site_type_symbol
_atom_site_fract_x
_atom_site_fract_y
_atom_site_fract_z
_atom_site_charge
Mof_Ni	Ni	0.84004	0.05332	0.05332	0.781
Mof_Ni	Ni	0.05332	0.84004	0.05332	0.781
Mof_Ni	Ni	0.05332	0.05332	0.84004	0.781
Mof_Ni	Ni	0.05332	0.05332	0.05332	0.784
Mof_Ni	Ni	0.94668	0.15996	0.94668	0.776
Mof_Ni	Ni	0.15996	0.94668	0.94668	0.776
Mof_Ni	Ni	0.94668	0.94668	0.15996	0.776
Mof_Ni	Ni	0.94668	0.94668	0.94668	0.773
Mof_H 	H 	0.6294	0.07564	0.07564	0.013
Mof_H 	H 	0.07564	0.6294	0.21932	0.011
Mof_H 	H 	0.07564	0.21932	0.6294	0.011
Mof_H 	H 	0.21932	0.07564	0.07564	0.013
Mof_H 	H 	0.6294	0.07564	0.21932	0.011
Mof_H 	H 	0.07564	0.21932	0.07564	0.013
Mof_H 	H 	0.07564	0.6294	0.07564	0.013
Mof_H 	H 	0.21932	0.07564	0.6294	0.011
Mof_H 	H 	0.6294	0.21932	0.07564	0.011
Mof_H 	H 	0.07564	0.07564	0.6294	0.013
Mof_H 	H 	0.07564	0.07564	0.21932	0.013
Mof_H 	H 	0.21932	0.6294	0.07564	0.011
Mof_H 	H 	0.92436	0.3706	0.92436	0.014
Mof_H 	H 	0.3706	0.92436	0.78068	0.011
Mof_H 	H 	0.78068	0.92436	0.3706	0.011
Mof_H 	H 	0.92436	0.78068	0.92436	0.013
Mof_H 	H 	0.92436	0.3706	0.78068	0.011
Mof_H 	H 	0.78068	0.92436	0.92436	0.013
Mof_H 	H 	0.3706	0.92436	0.92436	0.014
Mof_H 	H 	0.92436	0.78068	0.3706	0.011
Mof_H 	H 	0.78068	0.3706	0.92436	0.011
Mof_H 	H 	0.92436	0.92436	0.3706	0.014
Mof_H 	H 	0.92436	0.92436	0.78068	0.013
Mof_H 	H 	0.3706	0.78068	0.92436	0.011
Mof_C 	C 	0.5371	0	-0	-0.011
Mof_C 	C 	0.60384	0	-0	-0.014
Mof_C 	C 	0.67804	0	-0	-0.011
Mof_C 	C 	-0	0.5371	0.4629	-0.013
Mof_C 	C 	-1.22309e-17	0.60384	0.39616	-0.012
Mof_C 	C 	-7.33851e-17	0.67804	0.32196	-0.021
Mof_C 	C 	2.44617e-17	0.4629	0.5371	-0.013
Mof_C 	C 	7.33851e-17	0.39616	0.60384	-0.012
Mof_C 	C 	-2.44617e-17	0.32196	0.67804	-0.021
Mof_C 	C 	0.4629	0	-0	-0.01
Mof_C 	C 	0.39616	0	-0	-0.014
Mof_C 	C 	0.32196	0	-0	-0.01
Mof_C 	C 	0.5371	2.44617e-17	0.4629	-0.013
Mof_C 	C 	0.60384	0	0.39616	-0.012
Mof_C 	C 	0.67804	1.22309e-17	0.32196	-0.021
Mof_C 	C 	-0	0.4629	-0	-0.01
Mof_C 	C 	2.44617e-17	0.39616	-0	-0.014
Mof_C 	C 	-2.44617e-17	0.32196	-0	-0.01
Mof_C 	C 	-0	0.5371	-0	-0.011
Mof_C 	C 	-0	0.60384	-0	-0.014
Mof_C 	C 	-0	0.67804	-0	-0.011
Mof_C 	C 	0.4629	0	0.5371	-0.013
Mof_C 	C 	0.39616	2.44617e-17	0.60384	-0.012
Mof_C 	C 	0.32196	0	0.67804	-0.021
Mof_C 	C 	0.5371	0.4629	-0	-0.013
Mof_C 	C 	0.60384	0.39616	-0	-0.012
Mof_C 	C 	0.67804	0.32196	-0	-0.021
Mof_C 	C 	-2.44617e-17	0	0.5371	-0.011
Mof_C 	C 	2.44617e-17	2.44617e-17	0.60384	-0.014
Mof_C 	C 	-2.44617e-17	0	0.67804	-0.011
Mof_C 	C 	-0	2.44617e-17	0.4629	-0.01
Mof_C 	C 	-1.22309e-17	0	0.39616	-0.014
Mof_C 	C 	-0	1.22309e-17	0.32196	-0.01
Mof_C 	C 	0.4629	0.5371	-0	-0.013
Mof_C 	C 	0.39616	0.60384	-0	-0.012
Mof_C 	C 	0.32196	0.67804	-0	-0.021
Mof_C 	C 	0.67919	0.04153	0.04153	0.019
Mof_C 	C 	0.04153	0.67919	0.23775	0.022
Mof_C 	C 	0.04153	0.23775	0.67919	0.022
Mof_C 	C 	0.23775	0.04153	0.04153	0.019
Mof_C 	C 	0.67919	0.04153	0.23775	0.022
Mof_C 	C 	0.04153	0.23775	0.04153	0.019
Mof_C 	C 	0.04153	0.67919	0.04153	0.019
Mof_C 	C 	0.23775	0.04153	0.67919	0.022
Mof_C 	C 	0.67919	0.23775	0.04153	0.022
Mof_C 	C 	0.04153	0.04153	0.67919	0.019
Mof_C 	C 	0.04153	0.04153	0.23775	0.019
Mof_C 	C 	0.23775	0.67919	0.04153	0.022
Mof_C 	C 	0.95847	0.32081	0.95847	0.003
Mof_C 	C 	0.32081	0.95847	0.76225	0.014
Mof_C 	C 	0.76225	0.95847	0.32081	0.014
Mof_C 	C 	0.95847	0.76225	0.95847	0.003
Mof_C 	C 	0.95847	0.32081	0.76225	0.014
Mof_C 	C 	0.76225	0.95847	0.95847	0.003
Mof_C 	C 	0.32081	0.95847	0.95847	0.003
Mof_C 	C 	0.95847	0.76225	0.32081	0.014
Mof_C 	C 	0.76225	0.32081	0.95847	0.014
Mof_C 	C 	0.95847	0.95847	0.32081	0.003
Mof_C 	C 	0.95847	0.95847	0.76225	0.003
Mof_C 	C 	0.32081	0.76225	0.95847	0.014
Mof_N 	N 	0.76409	0.02567	0.02567	-0.261
Mof_N 	N 	0.02567	0.76409	0.18457	-0.264
Mof_N 	N 	0.02567	0.18457	0.76409	-0.264
Mof_N 	N 	0.18457	0.02567	0.02567	-0.26
Mof_N 	N 	0.76409	0.02567	0.18457	-0.264
Mof_N 	N 	0.02567	0.18457	0.02567	-0.26
Mof_N 	N 	0.02567	0.76409	0.02567	-0.261
Mof_N 	N 	0.18457	0.02567	0.76409	-0.264
Mof_N 	N 	0.76409	0.18457	0.02567	-0.264
Mof_N 	N 	0.02567	0.02567	0.76409	-0.261
Mof_N 	N 	0.02567	0.02567	0.18457	-0.26
Mof_N 	N 	0.18457	0.76409	0.02567	-0.264
Mof_N 	N 	0.97433	0.23591	0.97433	-0.27
Mof_N 	N 	0.23591	0.97433	0.81543	-0.269
Mof_N 	N 	0.81543	0.97433	0.23591	-0.269
Mof_N 	N 	0.97433	0.81543	0.97433	-0.27
Mof_N 	N 	0.97433	0.23591	0.81543	-0.269
Mof_N 	N 	0.81543	0.97433	0.97433	-0.27
Mof_N 	N 	0.23591	0.97433	0.97433	-0.27
Mof_N 	N 	0.97433	0.81543	0.23591	-0.269
Mof_N 	N 	0.81543	0.23591	0.97433	-0.269
Mof_N 	N 	0.97433	0.97433	0.23591	-0.27
Mof_N 	N 	0.97433	0.97433	0.81543	-0.27
Mof_N 	N 	0.23591	0.81543	0.97433	-0.269
_end
