data_functionalizedCrystal
_audit_creation_method	'EQeq! by Chris Wilmer'
_symmetry_space_group_name_H-M	'P1'
_symmetry_Int_Tables_number	1
_symmetry_cell_setting	triclinic
loop_
_symmetry_equiv_pos_as_xyz
  x,y,z
_cell_length_a	7.808
_cell_length_b	17.456
_cell_length_c	18.3125
_cell_angle_alpha	90
_cell_angle_beta	97.7212
_cell_angle_gamma	90
loop_
_atom_site_label
_atom_site_type_symbol
_atom_site_fract_x
_atom_site_fract_y
_atom_site_fract_z
_atom_site_charge
Mof_Zn	Zn	0.84572	0.37996	0.38647	1.184
Mof_Zn	Zn	0.34572	0.12004	0.88647	1.184
Mof_Zn	Zn	0.98933	0.20199	0.78017	1.236
Mof_Zn	Zn	0.15428	0.62004	0.61353	1.184
Mof_Zn	Zn	0.01067	0.79801	0.21983	1.236
Mof_Zn	Zn	0.51067	0.70199	0.71983	1.237
Mof_Zn	Zn	0.48933	0.29801	0.28017	1.237
Mof_Zn	Zn	0.65428	0.87996	0.11353	1.184
Mof_H 	H 	0.5936	0.54	0.9725	0.193
Mof_H 	H 	0.4552	0.9649	0.5286	0.294
Mof_H 	H 	0.266	0.3986	0.7243	0.059
Mof_H 	H 	0.9552	0.5351	0.0286	0.282
Mof_H 	H 	0.1731	0.51	0.9295	0.296
Mof_H 	H 	0.9483	0.1948	0.4865	-0.063
Mof_H 	H 	0.903	0.5074	0.8702	-0.159
Mof_H 	H 	0.6942	0.6076	0.9398	0.207
Mof_H 	H 	0.766	0.1014	0.2243	0.058
Mof_H 	H 	0.714	0.5955	0.1003	-0.134
Mof_H 	H 	0.276	0.7394	0.0355	0.08
Mof_H 	H 	0.2962	0.7226	0.4306	0.061
Mof_H 	H 	0.724	0.2606	0.9645	0.08
Mof_H 	H 	0.5394	0.0245	0.3227	-0.15
Mof_H 	H 	0.211	0.9871	0.2825	0.102
Mof_H 	H 	0.8293	0.7931	0.6595	0.106
Mof_H 	H 	0.224	0.2394	0.4645	0.083
Mof_H 	H 	0.403	0.9926	0.3702	-0.17
Mof_H 	H 	0.1942	0.8924	0.4398	0.21
Mof_H 	H 	0.8653	0.3435	0.168	0.094
Mof_H 	H 	0.1561	0.3586	0.9407	-0.132
Mof_H 	H 	0.711	0.5129	0.7825	0.104
Mof_H 	H 	0.4064	0.46	0.0275	0.192
Mof_H 	H 	0.3653	0.1565	0.668	0.095
Mof_H 	H 	0.5517	0.6948	0.0135	-0.063
Mof_H 	H 	0.3058	0.3924	0.0602	0.207
Mof_H 	H 	0.9606	0.5245	0.1773	-0.138
Mof_H 	H 	0.7962	0.7774	0.9306	0.061
Mof_H 	H 	0.6707	0.2931	0.8405	0.106
Mof_H 	H 	0.786	0.0955	0.3997	-0.144
Mof_H 	H 	0.289	0.4871	0.2175	0.104
Mof_H 	H 	0.8269	0.49	0.0705	0.296
Mof_H 	H 	0.3293	0.7069	0.1595	0.106
Mof_H 	H 	0.789	0.0129	0.7175	0.102
Mof_H 	H 	0.597	0.0074	0.6298	-0.17
Mof_H 	H 	0.1707	0.2069	0.3405	0.106
Mof_H 	H 	0.6731	0.99	0.4295	0.309
Mof_H 	H 	0.776	0.7606	0.5355	0.083
Mof_H 	H 	0.9382	0.8742	0.5346	-0.059
Mof_H 	H 	0.3439	0.8586	0.5593	-0.142
Mof_H 	H 	0.4483	0.3052	0.9865	-0.063
Mof_H 	H 	0.734	0.6014	0.2757	0.059
Mof_H 	H 	0.4606	0.9755	0.6773	-0.15
Mof_H 	H 	0.5448	0.0351	0.4714	0.293
Mof_H 	H 	0.6347	0.8435	0.332	0.095
Mof_H 	H 	0.0936	0.96	0.4725	0.194
Mof_H 	H 	0.7038	0.2774	0.5694	0.061
Mof_H 	H 	0.0394	0.4755	0.8227	-0.138
Mof_H 	H 	0.1347	0.6565	0.832	0.094
Mof_H 	H 	0.0448	0.4649	0.9714	0.282
Mof_H 	H 	0.3269	0.01	0.5705	0.309
Mof_H 	H 	0.097	0.4926	0.1298	-0.159
Mof_H 	H 	0.9064	0.04	0.5275	0.194
Mof_H 	H 	0.2038	0.2226	0.0694	0.061
Mof_H 	H 	0.5618	0.3742	0.9654	-0.061
Mof_H 	H 	0.6561	0.1414	0.4407	-0.142
Mof_H 	H 	0.4382	0.6258	0.0346	-0.061
Mof_H 	H 	0.8058	0.1076	0.5602	0.21
Mof_H 	H 	0.286	0.4045	0.8997	-0.134
Mof_H 	H 	0.0618	0.1258	0.4654	-0.059
Mof_H 	H 	0.214	0.9045	0.6003	-0.144
Mof_H 	H 	0.234	0.8986	0.7757	0.058
Mof_H 	H 	0.8439	0.6414	0.0593	-0.132
Mof_H 	H 	0.0517	0.8052	0.5135	-0.063
Mof_C 	C 	0.4494	0.3357	0.7864	-0.03
Mof_C 	C 	0.4991	0.3539	0.0034	0.307
Mof_C 	C 	0.1468	0.0321	0.2822	-0.16
Mof_C 	C 	0.9051	0.7556	0.9316	-0.031
Mof_C 	C 	0.0188	0.5348	0.1348	0.6
Mof_C 	C 	0.8073	0.2672	0.0053	-0.13
Mof_C 	C 	0.4724	0.6996	0.5614	0.393
Mof_C 	C 	0.0009	0.8539	0.4966	0.305
Mof_C 	C 	0.9991	0.1461	0.5034	0.305
Mof_C 	C 	0.6205	0.337	0.818	-0.15
Mof_C 	C 	0.0551	0.2852	0.1293	-0.018
Mof_C 	C 	0.8787	0.1001	0.2485	-0.016
Mof_C 	C 	0.1626	0.7683	0.7014	0.379
Mof_C 	C 	0.8795	0.837	0.682	-0.149
Mof_C 	C 	0.7693	0.3079	0.0661	0.193
Mof_C 	C 	0.6073	0.8163	0.3726	-0.145
Mof_C 	C 	0.8989	0.9627	0.2128	0.385
Mof_C 	C 	0.1073	0.6837	0.8726	-0.142
Mof_C 	C 	0.6399	0.5912	0.9818	-0.548
Mof_C 	C 	0.6927	0.7672	0.4947	-0.135
Mof_C 	C 	0.0272	0.7639	0.9938	-0.052
Mof_C 	C 	0.3989	0.5373	0.7128	0.383
Mof_C 	C 	0.5009	0.6461	0.9966	0.307
Mof_C 	C 	0.3795	0.663	0.182	-0.15
Mof_C 	C 	0.4051	0.7444	0.4316	-0.034
Mof_C 	C 	0.6071	0.0371	0.4291	-0.949
Mof_C 	C 	0.6468	0.4679	0.7822	-0.164
Mof_C 	C 	0.6626	0.7317	0.2014	0.379
Mof_C 	C 	0.477	0.4652	0.7469	-0.039
Mof_C 	C 	0.5276	0.3004	0.4386	0.393
Mof_C 	C 	0.2307	0.6921	0.9339	0.193
Mof_C 	C 	0.5551	0.2148	0.6293	-0.016
Mof_C 	C 	0.0276	0.1996	0.9386	0.399
Mof_C 	C 	0.9728	0.2361	0.0062	-0.052
Mof_C 	C 	0.3374	0.2683	0.7986	0.379
Mof_C 	C 	0.7175	0.4031	0.8165	0.238
Mof_C 	C 	0.7307	0.8079	0.4339	0.195
Mof_C 	C 	0.6935	0.201	0.6931	0.29
Mof_C 	C 	0.0506	0.8357	0.7136	-0.031
Mof_C 	C 	0.1213	0.8999	0.7515	-0.016
Mof_C 	C 	0.1935	0.299	0.1931	0.29
Mof_C 	C 	0.8374	0.2317	0.2986	0.379
Mof_C 	C 	0.9724	0.8004	0.0614	0.399
Mof_C 	C 	0.523	0.5348	0.2531	-0.039
Mof_C 	C 	0.4812	0.0348	0.3652	0.636
Mof_C 	C 	0.4728	0.2639	0.5062	-0.047
Mof_C 	C 	0.78	0.5938	0.059	0.59
Mof_C 	C 	0.1011	0.0373	0.7872	0.385
Mof_C 	C 	0.1205	0.163	0.318	-0.149
Mof_C 	C 	0.8532	0.9679	0.7178	-0.16
Mof_C 	C 	0.3601	0.4088	0.0182	-0.548
Mof_C 	C 	0.5506	0.6643	0.2136	-0.03
Mof_C 	C 	0.5188	0.9652	0.6348	0.636
Mof_C 	C 	0.72	0.0938	0.441	0.622
Mof_C 	C 	0.8929	0.5371	0.0709	-0.905
Mof_C 	C 	0.9449	0.7148	0.8707	-0.018
Mof_C 	C 	0.6213	0.6001	0.2515	-0.018
Mof_C 	C 	0.023	0.9652	0.7531	-0.041
Mof_C 	C 	0.1399	0.9088	0.4818	-0.558
Mof_C 	C 	0.0949	0.2444	0.0684	-0.031
Mof_C 	C 	0.977	0.0348	0.2469	-0.041
Mof_C 	C 	0.6011	0.4627	0.2872	0.383
Mof_C 	C 	0.7825	0.9031	0.6835	0.239
Mof_C 	C 	0.8065	0.701	0.8069	0.29
Mof_C 	C 	0.1071	0.4629	0.9291	-0.905
Mof_C 	C 	0.22	0.4062	0.941	0.59
Mof_C 	C 	0.8927	0.3163	0.1274	-0.142
Mof_C 	C 	0.4449	0.7852	0.3707	-0.016
Mof_C 	C 	0.5949	0.2556	0.5684	-0.034
Mof_C 	C 	0.3927	0.1837	0.6274	-0.145
Mof_C 	C 	0.3073	0.2328	0.5053	-0.135
Mof_C 	C 	0.1927	0.7328	0.9947	-0.13
Mof_C 	C 	0.3929	0.9629	0.5709	-0.949
Mof_C 	C 	0.2693	0.1921	0.5661	0.195
Mof_C 	C 	0.3532	0.5321	0.2178	-0.164
Mof_C 	C 	0.2825	0.5969	0.1835	0.238
Mof_C 	C 	0.2175	0.0969	0.3165	0.239
Mof_C 	C 	0.8601	0.0912	0.5182	-0.558
Mof_C 	C 	0.9812	0.4652	0.8652	0.6
Mof_C 	C 	0.28	0.9062	0.559	0.622
Mof_C 	C 	0.5272	0.7361	0.4938	-0.047
Mof_C 	C 	0.3787	0.3999	0.7485	-0.018
Mof_C 	C 	0.3065	0.799	0.3069	0.29
Mof_C 	C 	0.9494	0.1643	0.2864	-0.031
Mof_O 	O 	0.4387	0.5988	0.743	-0.508
Mof_O 	O 	0.9387	0.9012	0.243	-0.507
Mof_O 	O 	0.3272	0.2559	0.1991	-0.414
Mof_O 	O 	0.7917	0.9694	0.1539	-0.502
Mof_O 	O 	0.8184	0.7294	0.231	-0.464
Mof_O 	O 	0.1694	0.1668	0.9457	-0.506
Mof_O 	O 	0.3233	0.8515	0.263	-0.329
Mof_O 	O 	0.887	0.8434	0.4303	-0.292
Mof_O 	O 	0.6816	0.2294	0.269	-0.466
Mof_O 	O 	0.5934	0.7847	0.16	-0.507
Mof_O 	O 	0.8836	0.3978	0.8519	-0.354
Mof_O 	O 	0.0751	0.794	0.1207	-0.489
Mof_O 	O 	0.113	0.1566	0.5697	-0.292
Mof_O 	O 	0.4066	0.2153	0.84	-0.507
Mof_O 	O 	0.387	0.6566	0.9303	-0.293
Mof_O 	O 	0.8306	0.8332	0.0543	-0.506
Mof_O 	O 	0.0613	0.0988	0.757	-0.507
Mof_O 	O 	0.1767	0.3515	0.237	-0.329
Mof_O 	O 	0.1164	0.6022	0.1481	-0.354
Mof_O 	O 	0.0934	0.7153	0.66	-0.507
Mof_O 	O 	0.4249	0.294	0.3793	-0.485
Mof_O 	O 	0.3836	0.1022	0.3519	-0.36
Mof_O 	O 	0.2917	0.5306	0.6539	-0.502
Mof_O 	O 	0.8233	0.6485	0.763	-0.329
Mof_O 	O 	0.1728	0.7559	0.3009	-0.415
Mof_O 	O 	0.6728	0.7441	0.8009	-0.414
Mof_O 	O 	0.9249	0.206	0.8793	-0.489
Mof_O 	O 	0.5613	0.4012	0.257	-0.508
Mof_O 	O 	0.8272	0.2441	0.6991	-0.415
Mof_O 	O 	0.3184	0.7706	0.731	-0.466
Mof_O 	O 	0.5751	0.706	0.6207	-0.485
Mof_O 	O 	0.613	0.3434	0.0697	-0.293
Mof_O 	O 	0.6767	0.1485	0.737	-0.329
Mof_O 	O 	0.3306	0.6668	0.5543	-0.505
Mof_O 	O 	0.7083	0.4694	0.3461	-0.502
Mof_O 	O 	0.1816	0.2706	0.769	-0.464
Mof_O 	O 	0.6694	0.3332	0.4457	-0.505
Mof_O 	O 	0.9066	0.2847	0.34	-0.507
Mof_O 	O 	0.6164	0.8978	0.6481	-0.36
Mof_O 	O 	0.2083	0.0306	0.8461	-0.502
_end
