data_functionalizedCrystal
_audit_creation_method	'EQeq! by Chris Wilmer'
_symmetry_space_group_name_H-M	'P1'
_symmetry_Int_Tables_number	1
_symmetry_cell_setting	triclinic
loop_
_symmetry_equiv_pos_as_xyz
  x,y,z
_cell_length_a	6.6291
_cell_length_b	16.7457
_cell_length_c	12.8099
_cell_angle_alpha	90
_cell_angle_beta	90
_cell_angle_gamma	90
loop_
_atom_site_label
_atom_site_type_symbol
_atom_site_fract_x
_atom_site_fract_y
_atom_site_fract_z
_atom_site_charge
Mof_O 	O 	0.16623	0.16774	0.84358	-1.446
Mof_C 	C 	0.8085	0.03516	0.967	0.034
Mof_O 	O 	0.66623	0.66774	0.34358	-1.44
Mof_C 	C 	0.3085	0.53516	0.467	0.069
Mof_O 	O 	0.83377	0.33226	0.84358	-1.464
Mof_C 	C 	0.1915	0.46484	0.967	0.058
Mof_O 	O 	0.33377	0.83226	0.34358	-1.439
Mof_C 	C 	0.6915	0.96484	0.467	0.052
Mof_O 	O 	0.83377	0.66774	0.15642	-1.464
Mof_C 	C 	0.1915	0.53516	0.033	0.058
Mof_O 	O 	0.33377	0.16774	0.65642	-1.439
Mof_C 	C 	0.6915	0.03516	0.533	0.052
Mof_O 	O 	0.16623	0.83226	0.15642	-1.447
Mof_C 	C 	0.8085	0.96484	0.033	0.033
Mof_O 	O 	0.66623	0.33226	0.65642	-1.44
Mof_C 	C 	0.3085	0.46484	0.533	0.069
Mof_O 	O 	0.83377	0.83226	0.15642	-1.464
Mof_C 	C 	0.1915	0.96484	0.033	0.058
Mof_O 	O 	0.33377	0.33226	0.65642	-1.439
Mof_C 	C 	0.6915	0.46484	0.533	0.052
Mof_O 	O 	0.16623	0.66774	0.15642	-1.447
Mof_C 	C 	0.8085	0.53516	0.033	0.033
Mof_O 	O 	0.66623	0.16774	0.65642	-1.44
Mof_C 	C 	0.3085	0.03516	0.533	0.068
Mof_O 	O 	0.16623	0.33226	0.84358	-1.447
Mof_C 	C 	0.8085	0.46484	0.967	0.033
Mof_O 	O 	0.66623	0.83226	0.34358	-1.44
Mof_C 	C 	0.3085	0.96484	0.467	0.068
Mof_O 	O 	0.83377	0.16774	0.84358	-1.464
Mof_C 	C 	0.1915	0.03516	0.967	0.058
Mof_O 	O 	0.33377	0.66774	0.34358	-1.439
Mof_C 	C 	0.6915	0.53516	0.467	0.052
Mof_Al	Al	0.25	0.25	0.75	5.997
Mof_Al	Al	0.75	0.25	0.75	5.928
Mof_Al	Al	0.75	0.75	0.25	5.928
Mof_Al	Al	0.25	0.75	0.25	5.997
Mof_O 	O 	4.96009e-33	0.25	0.6846	-2.081
Mof_O 	O 	0.5	0.75	0.1846	-2.102
Mof_O 	O 	2.28515e-33	0.75	0.3154	-2.081
Mof_O 	O 	0.5	0.25	0.8154	-2.102
Mof_C 	C 	6.85183e-33	0.0619	0.9457	-0.232
Mof_C 	C 	-1.14428e-32	0.1385	0.8708	1.119
Mof_C 	C 	0.5	0.5619	0.4457	-0.263
Mof_C 	C 	0.5	0.6385	0.3708	1.083
Mof_C 	C 	-2.86521e-32	0.4381	0.9457	-0.232
Mof_C 	C 	6.30916e-33	0.3615	0.8708	1.119
Mof_C 	C 	0.5	0.9381	0.4457	-0.263
Mof_C 	C 	0.5	0.8615	0.3708	1.083
Mof_C 	C 	-7.16082e-34	0.5619	0.0543	-0.232
Mof_C 	C 	-1.68159e-32	0.6385	0.1292	1.119
Mof_C 	C 	0.5	0.0619	0.5543	-0.263
Mof_C 	C 	0.5	0.1385	0.6292	1.083
Mof_C 	C 	-7.16082e-34	0.9381	0.0543	-0.232
Mof_C 	C 	9.36085e-34	0.8615	0.1292	1.119
Mof_C 	C 	0.5	0.4381	0.5543	-0.263
Mof_C 	C 	0.5	0.3615	0.6292	1.083
_end
