data_functionalizedCrystal
_audit_creation_method	'EQeq! by Chris Wilmer'
_symmetry_space_group_name_H-M	'P1'
_symmetry_Int_Tables_number	1
_symmetry_cell_setting	triclinic
loop_
_symmetry_equiv_pos_as_xyz
  x,y,z
_cell_length_a	10.652
_cell_length_b	15.4
_cell_length_c	10.924
_cell_angle_alpha	90
_cell_angle_beta	92.14
_cell_angle_gamma	90
loop_
_atom_site_label
_atom_site_type_symbol
_atom_site_fract_x
_atom_site_fract_y
_atom_site_fract_z
_atom_site_charge
Mof_Ag	Ag	0.2332	0.7326	0.2393	0.645
Mof_N 	N 	0.804	0.9182	0.8086	-0.112
Mof_C 	C 	0.9062	0.9137	0.9038	-0.067
Mof_C 	C 	0.9668	0.8244	0.9113	-0.058
Mof_N 	N 	0.8758	0.7533	0.9279	-0.117
Mof_C 	C 	0.8048	0.7606	0.0413	-0.061
Mof_C 	C 	0.6636	0.7514	0.019	-0.069
Mof_N 	N 	0.6114	0.8102	0.9246	-0.112
Mof_C 	C 	0.6286	0.9038	0.9532	-0.059
Mof_C 	C 	0.6855	0.9556	0.8502	-0.071
Mof_C 	C 	0.8445	0.9603	0.6973	-0.14
Mof_C 	C 	0.8671	0.0554	0.7176	0.091
Mof_N 	N 	0.8796	0.1272	0.7395	-0.192
Mof_C 	C 	0.934	0.6683	0.9154	-0.144
Mof_C 	C 	0.0303	0.6539	0.0156	0.097
Mof_N 	N 	0.1001	0.6515	0.0966	-0.198
Mof_C 	C 	0.4812	0.7891	0.891	-0.152
Mof_C 	C 	0.4003	0.7928	0.9985	0.105
Mof_N 	N 	0.3465	0.7941	0.0853	-0.21
Mof_H 	H 	0.9711	0.9574	0.8856	0.043
Mof_H 	H 	0.872	0.9284	0.9843	0.045
Mof_H 	H 	0.0294	0.8237	0.9806	0.037
Mof_H 	H 	0.0122	0.8138	0.8353	0.028
Mof_H 	H 	0.8343	0.7151	0.0995	0.038
Mof_H 	H 	0.8228	0.8177	0.0797	0.041
Mof_H 	H 	0.6216	0.7627	0.0967	0.041
Mof_H 	H 	0.6445	0.6908	0.9944	0.038
Mof_H 	H 	0.546	0.9293	0.9715	0.04
Mof_H 	H 	0.6837	0.9094	0.0278	0.041
Mof_H 	H 	0.7013	0.0158	0.8788	0.045
Mof_H 	H 	0.6241	0.9583	0.78	0.041
Mof_H 	H 	0.9228	0.9326	0.6707	0.054
Mof_H 	H 	0.7793	0.9525	0.6313	0.056
Mof_H 	H 	0.8688	0.6226	0.9184	0.056
Mof_H 	H 	0.9739	0.6644	0.8352	0.053
Mof_H 	H 	0.4492	0.8306	0.828	0.06
Mof_H 	H 	0.4772	0.7301	0.8551	0.06
Mof_N 	N 	0.304	0.5818	0.3086	-0.112
Mof_C 	C 	0.4062	0.5863	0.4038	-0.063
Mof_C 	C 	0.4668	0.6756	0.4113	-0.064
Mof_N 	N 	0.3758	0.7467	0.4279	-0.115
Mof_C 	C 	0.3048	0.7394	0.5413	-0.06
Mof_C 	C 	0.1636	0.7486	0.519	-0.067
Mof_N 	N 	0.1114	0.6898	0.4246	-0.111
Mof_C 	C 	0.1286	0.5962	0.4532	-0.059
Mof_C 	C 	0.1855	0.5444	0.3502	-0.071
Mof_C 	C 	0.3445	0.5397	0.1973	-0.141
Mof_C 	C 	0.3671	0.4446	0.2176	0.092
Mof_N 	N 	0.3796	0.3728	0.2395	-0.192
Mof_C 	C 	0.434	0.8317	0.4154	-0.144
Mof_C 	C 	0.5303	0.8461	0.5156	0.097
Mof_N 	N 	0.6001	0.8485	0.5966	-0.198
Mof_C 	C 	0.9812	0.7109	0.391	-0.152
Mof_C 	C 	0.9003	0.7072	0.4985	0.105
Mof_N 	N 	0.8465	0.7059	0.5853	-0.21
Mof_H 	H 	0.4711	0.5426	0.3856	0.042
Mof_H 	H 	0.372	0.5716	0.4843	0.044
Mof_H 	H 	0.5294	0.6763	0.4806	0.04
Mof_H 	H 	0.5122	0.6862	0.3353	0.031
Mof_H 	H 	0.3343	0.7849	0.5995	0.038
Mof_H 	H 	0.3228	0.6823	0.5797	0.042
Mof_H 	H 	0.1216	0.7373	0.5967	0.04
Mof_H 	H 	0.1445	0.8092	0.4944	0.037
Mof_H 	H 	0.046	0.5707	0.4715	0.04
Mof_H 	H 	0.1837	0.5906	0.5278	0.042
Mof_H 	H 	0.2013	0.4842	0.3788	0.046
Mof_H 	H 	0.1241	0.5417	0.28	0.041
Mof_H 	H 	0.4228	0.5674	0.1707	0.053
Mof_H 	H 	0.2793	0.5475	0.1313	0.056
Mof_H 	H 	0.3688	0.8774	0.4184	0.056
Mof_H 	H 	0.4739	0.8356	0.3352	0.053
Mof_H 	H 	0.9492	0.6694	0.328	0.06
Mof_H 	H 	0.9772	0.7699	0.3551	0.06
Mof_Ag	Ag	0.7332	0.7674	0.7393	0.646
Mof_Ag	Ag	0.2668	0.2326	0.2607	0.646
Mof_N 	N 	0.696	0.4182	0.6914	-0.112
Mof_C 	C 	0.5938	0.4137	0.5962	-0.063
Mof_C 	C 	0.5332	0.3244	0.5887	-0.064
Mof_N 	N 	0.6242	0.2533	0.5721	-0.115
Mof_C 	C 	0.6952	0.2606	0.4587	-0.06
Mof_C 	C 	0.8364	0.2514	0.481	-0.067
Mof_N 	N 	0.8886	0.3102	0.5754	-0.111
Mof_C 	C 	0.8714	0.4038	0.5468	-0.059
Mof_C 	C 	0.8145	0.4556	0.6498	-0.071
Mof_C 	C 	0.6555	0.4603	0.8027	-0.141
Mof_C 	C 	0.6329	0.5554	0.7824	0.092
Mof_N 	N 	0.6204	0.6272	0.7605	-0.192
Mof_C 	C 	0.566	0.1683	0.5846	-0.144
Mof_C 	C 	0.4697	0.1539	0.4844	0.097
Mof_N 	N 	0.3999	0.1515	0.4034	-0.198
Mof_C 	C 	0.0188	0.2891	0.609	-0.152
Mof_C 	C 	0.0997	0.2928	0.5015	0.105
Mof_N 	N 	0.1535	0.2941	0.4147	-0.21
Mof_H 	H 	0.5289	0.4574	0.6144	0.042
Mof_H 	H 	0.628	0.4284	0.5157	0.044
Mof_H 	H 	0.4706	0.3237	0.5194	0.04
Mof_H 	H 	0.4878	0.3138	0.6647	0.031
Mof_H 	H 	0.6657	0.2151	0.4005	0.038
Mof_H 	H 	0.6772	0.3177	0.4203	0.042
Mof_H 	H 	0.8784	0.2627	0.4033	0.04
Mof_H 	H 	0.8555	0.1908	0.5056	0.037
Mof_H 	H 	0.954	0.4293	0.5285	0.04
Mof_H 	H 	0.8163	0.4094	0.4722	0.042
Mof_H 	H 	0.7987	0.5158	0.6212	0.046
Mof_H 	H 	0.8759	0.4583	0.72	0.041
Mof_H 	H 	0.5772	0.4326	0.8293	0.053
Mof_H 	H 	0.7207	0.4525	0.8687	0.056
Mof_H 	H 	0.6312	0.1226	0.5816	0.056
Mof_H 	H 	0.5261	0.1644	0.6648	0.053
Mof_H 	H 	0.0508	0.3306	0.672	0.06
Mof_H 	H 	0.0228	0.2301	0.6449	0.06
Mof_N 	N 	0.196	0.0818	0.1914	-0.111
Mof_C 	C 	0.0938	0.0863	0.0962	-0.066
Mof_C 	C 	0.0332	0.1756	0.0887	-0.057
Mof_N 	N 	0.1242	0.2467	0.0721	-0.116
Mof_C 	C 	0.1952	0.2394	0.9587	-0.06
Mof_C 	C 	0.3364	0.2486	0.981	-0.068
Mof_N 	N 	0.3886	0.1898	0.0754	-0.111
Mof_C 	C 	0.3714	0.0962	0.0468	-0.058
Mof_C 	C 	0.3145	0.0444	0.1498	-0.07
Mof_C 	C 	0.1555	0.0397	0.3027	-0.14
Mof_C 	C 	0.1329	0.9446	0.2824	0.091
Mof_N 	N 	0.1204	0.8728	0.2605	-0.192
Mof_C 	C 	0.066	0.3317	0.0846	-0.144
Mof_C 	C 	0.9697	0.3461	0.9844	0.097
Mof_N 	N 	0.8999	0.3485	0.9034	-0.198
Mof_C 	C 	0.5188	0.2109	0.109	-0.152
Mof_C 	C 	0.5997	0.2072	0.0015	0.105
Mof_N 	N 	0.6535	0.2059	0.9147	-0.21
Mof_H 	H 	0.0289	0.0426	0.1144	0.043
Mof_H 	H 	0.128	0.0716	0.0157	0.045
Mof_H 	H 	0.9706	0.1763	0.0194	0.037
Mof_H 	H 	0.9878	0.1862	0.1647	0.028
Mof_H 	H 	0.1657	0.2849	0.9005	0.038
Mof_H 	H 	0.1772	0.1823	0.9203	0.041
Mof_H 	H 	0.3784	0.2373	0.9033	0.041
Mof_H 	H 	0.3555	0.3092	0.0056	0.038
Mof_H 	H 	0.454	0.0707	0.0285	0.04
Mof_H 	H 	0.3163	0.0906	0.9722	0.041
Mof_H 	H 	0.2987	0.9842	0.1212	0.045
Mof_H 	H 	0.3759	0.0417	0.22	0.041
Mof_H 	H 	0.0772	0.0674	0.3293	0.054
Mof_H 	H 	0.2207	0.0475	0.3687	0.056
Mof_H 	H 	0.1312	0.3774	0.0816	0.056
Mof_H 	H 	0.0261	0.3356	0.1648	0.053
Mof_H 	H 	0.5508	0.1694	0.172	0.06
Mof_H 	H 	0.5228	0.2699	0.1449	0.06
Mof_Ag	Ag	0.7668	0.2674	0.7607	0.646
_end
