data_functionalizedCrystal
_audit_creation_method	'EQeq! by Chris Wilmer'
_symmetry_space_group_name_H-M	'P1'
_symmetry_Int_Tables_number	1
_symmetry_cell_setting	triclinic
loop_
_symmetry_equiv_pos_as_xyz
  x,y,z
_cell_length_a	10.013
_cell_length_b	13.138
_cell_length_c	33.947
_cell_angle_alpha	90
_cell_angle_beta	90
_cell_angle_gamma	90
loop_
_atom_site_label
_atom_site_type_symbol
_atom_site_fract_x
_atom_site_fract_y
_atom_site_fract_z
_atom_site_charge
Mof_Er	Er	0.46809	0.75	0.75	1.933
Mof_Er	Er	0.53191	0.25	0.25	1.933
Mof_Er	Er	0.03191	0.25	0.25	1.907
Mof_Er	Er	0.96809	0.75	0.75	1.907
Mof_H 	H 	0.4896	0.6497	0.5804	0.123
Mof_H 	H 	0.9472	0.5866	0.4227	0.044
Mof_H 	H 	0.7601	0.6117	0.6493	0.004
Mof_H 	H 	0.9786	0.6066	0.49	0.039
Mof_H 	H 	0.6389	0.719	0.1083	0.098
Mof_H 	H 	0.1781	0.9472	0.5895	0.098
Mof_H 	H 	0.0071	0.1033	0.5921	0.124
Mof_H 	H 	0.5214	0.1066	0.51	0.04
Mof_H 	H 	0.4786	0.6066	0.01	0.04
Mof_H 	H 	0.5528	0.0866	0.5773	0.042
Mof_H 	H 	0.9472	0.9134	0.0773	0.044
Mof_H 	H 	0.5486	0.8283	0.625	-0.014
Mof_H 	H 	0.0486	0.8283	0.875	-0.01
Mof_H 	H 	0.5542	0.8432	0.3327	0.019
Mof_H 	H 	0.4929	0.6033	0.4079	0.122
Mof_H 	H 	0.0214	0.1066	0.99	0.038
Mof_H 	H 	0.7315	0.9159	0.1037	0.068
Mof_H 	H 	0.5486	0.6717	0.875	-0.014
Mof_H 	H 	0.5536	0.3348	0.3522	-0.026
Mof_H 	H 	0.2556	0.3715	0.0057	0.131
Mof_H 	H 	0.3219	0.0528	0.0895	0.096
Mof_H 	H 	0.9464	0.6652	0.8522	-0.029
Mof_H 	H 	0.4071	0.1552	0.4417	0.113
Mof_H 	H 	0.4896	0.8503	0.9196	0.123
Mof_H 	H 	0.2024	0.1312	0.0318	0.061
Mof_H 	H 	0.7024	0.3688	0.0318	0.061
Mof_H 	H 	0.0542	0.8432	0.1673	0.02
Mof_H 	H 	0.5542	0.6568	0.1673	0.018
Mof_H 	H 	0.5536	0.1652	0.1478	-0.026
Mof_H 	H 	0.0542	0.6568	0.3327	0.017
Mof_H 	H 	0.9071	0.1552	0.0583	0.115
Mof_H 	H 	0.2399	0.1117	0.1493	0.007
Mof_H 	H 	0.7601	0.8883	0.8507	0.007
Mof_H 	H 	0.2685	0.4159	0.6037	0.068
Mof_H 	H 	0.2601	0.6117	0.8507	0.004
Mof_H 	H 	0.1389	0.781	0.1083	0.095
Mof_H 	H 	0.5929	0.6552	0.9417	0.114
Mof_H 	H 	0.0929	0.6552	0.5583	0.114
Mof_H 	H 	0.9786	0.8934	0.01	0.038
Mof_H 	H 	0.0929	0.8448	0.9417	0.115
Mof_H 	H 	0.5104	0.3503	0.4196	0.123
Mof_H 	H 	0.9071	0.3448	0.4417	0.114
Mof_H 	H 	0.5104	0.1497	0.0804	0.123
Mof_H 	H 	0.7556	0.3715	0.4943	0.131
Mof_H 	H 	0.3611	0.281	0.8917	0.098
Mof_H 	H 	0.2444	0.8715	0.9943	0.131
Mof_H 	H 	0.4472	0.9134	0.4227	0.042
Mof_H 	H 	0.1781	0.5528	0.9105	0.098
Mof_H 	H 	0.2976	0.6312	0.9682	0.061
Mof_H 	H 	0.4929	0.8967	0.0921	0.122
Mof_H 	H 	0.4786	0.8934	0.49	0.04
Mof_H 	H 	0.5214	0.3934	0.99	0.04
Mof_H 	H 	0.0071	0.3967	0.9079	0.127
Mof_H 	H 	0.2444	0.6285	0.5057	0.131
Mof_H 	H 	0.0486	0.6717	0.625	-0.01
Mof_H 	H 	0.9514	0.1717	0.125	-0.01
Mof_H 	H 	0.0104	0.3503	0.0804	0.121
Mof_H 	H 	0.7444	0.8715	0.5057	0.131
Mof_H 	H 	0.4472	0.5866	0.0773	0.042
Mof_H 	H 	0.9514	0.3283	0.375	-0.01
Mof_H 	H 	0.7685	0.4159	0.8963	0.068
Mof_H 	H 	0.9458	0.1568	0.8327	0.02
Mof_H 	H 	0.5071	0.1033	0.9079	0.122
Mof_H 	H 	0.9464	0.8348	0.6478	-0.03
Mof_H 	H 	0.2601	0.8883	0.6493	0.005
Mof_H 	H 	0.5929	0.8448	0.5583	0.113
Mof_H 	H 	0.0214	0.3934	0.51	0.039
Mof_H 	H 	0.3219	0.4472	0.4105	0.097
Mof_H 	H 	0.9896	0.8503	0.5804	0.12
Mof_H 	H 	0.8611	0.219	0.8917	0.095
Mof_H 	H 	0.5071	0.3967	0.5921	0.122
Mof_H 	H 	0.1389	0.719	0.3917	0.096
Mof_H 	H 	0.7976	0.8688	0.9682	0.061
Mof_H 	H 	0.2685	0.0841	0.8963	0.068
Mof_H 	H 	0.2976	0.8688	0.5318	0.061
Mof_H 	H 	0.2556	0.1285	0.4943	0.131
Mof_H 	H 	0.2399	0.3883	0.3507	0.004
Mof_H 	H 	0.7976	0.6312	0.5318	0.061
Mof_H 	H 	0.9929	0.6033	0.0921	0.127
Mof_H 	H 	0.8219	0.0528	0.4105	0.098
Mof_H 	H 	0.7399	0.3883	0.1493	0.004
Mof_H 	H 	0.8611	0.281	0.6083	0.096
Mof_H 	H 	0.4464	0.8348	0.8522	-0.026
Mof_H 	H 	0.7556	0.1285	0.0057	0.131
Mof_H 	H 	0.7444	0.6285	0.9943	0.131
Mof_H 	H 	0.4514	0.3283	0.125	-0.014
Mof_H 	H 	0.4464	0.6652	0.6478	-0.026
Mof_H 	H 	0.2024	0.3688	0.4682	0.061
Mof_H 	H 	0.2315	0.9159	0.3963	0.068
Mof_H 	H 	0.0536	0.3348	0.1478	-0.029
Mof_H 	H 	0.2315	0.5841	0.1037	0.068
Mof_H 	H 	0.9896	0.6497	0.9196	0.121
Mof_H 	H 	0.4458	0.3432	0.8327	0.018
Mof_H 	H 	0.0528	0.4134	0.5773	0.044
Mof_H 	H 	0.4071	0.3448	0.0583	0.114
Mof_H 	H 	0.6781	0.9472	0.9105	0.096
Mof_H 	H 	0.4514	0.1717	0.375	-0.014
Mof_H 	H 	0.6389	0.781	0.3917	0.097
Mof_H 	H 	0.6781	0.5528	0.5895	0.097
Mof_H 	H 	0.0536	0.1652	0.3522	-0.03
Mof_H 	H 	0.8219	0.4472	0.0895	0.098
Mof_H 	H 	0.9929	0.8967	0.4079	0.124
Mof_H 	H 	0.7685	0.0841	0.6037	0.068
Mof_H 	H 	0.7315	0.5841	0.3963	0.068
Mof_H 	H 	0.3611	0.219	0.6083	0.097
Mof_H 	H 	0.0104	0.1497	0.4196	0.12
Mof_H 	H 	0.5528	0.4134	0.9227	0.042
Mof_H 	H 	0.9458	0.3432	0.6673	0.017
Mof_H 	H 	0.7399	0.1117	0.3507	0.005
Mof_H 	H 	0.4458	0.1568	0.6673	0.019
Mof_H 	H 	0.7024	0.1312	0.4682	0.061
Mof_H 	H 	0.0528	0.0866	0.9227	0.044
Mof_C 	C 	0.3617	0.1674	0.38392	0.159
Mof_C 	C 	0.1258	0.3362	0.1296	0.168
Mof_C 	C 	0.6648	0.6575	0.92346	-0.242
Mof_C 	C 	0.6581	0.6512	0.11623	-0.183
Mof_C 	C 	0.3997	0.8801	0.04264	0.09
Mof_C 	C 	0.1356	0.6081	0.05144	0.073
Mof_C 	C 	0.7186	0.4553	0.14082	0.096
Mof_C 	C 	0.3617	0.3326	0.11608	0.16
Mof_C 	C 	0.6003	0.3801	0.54264	0.09
Mof_C 	C 	0.1525	0.8788	0.48896	0.049
Mof_C 	C 	0.6258	0.3362	0.3704	0.167
Mof_C 	C 	0.9189	0.9779	0.79779	0.354
Mof_C 	C 	0.2558	0.3287	0.14331	-0.255
Mof_C 	C 	0.8997	0.6199	0.04264	0.094
Mof_C 	C 	0.3644	0.1081	0.94856	0.071
Mof_C 	C 	0.8605	0.0167	0.83563	-0.137
Mof_C 	C 	0.2834	0.6215	0.9956	-0.069
Mof_C 	C 	0.8906	0.3856	0.65148	0.086
Mof_C 	C 	0.5811	0.0221	0.29779	0.375
Mof_C 	C 	0.8617	0.3326	0.38392	0.158
Mof_C 	C 	0.3644	0.3919	0.55144	0.072
Mof_C 	C 	0.2442	0.8287	0.85669	-0.252
Mof_C 	C 	0.1093	0.3925	0.5205	-0.03
Mof_C 	C 	0.7329	0.9901	0.8948	-0.183
Mof_C 	C 	0.7639	0.4119	0.59217	0.162
Mof_C 	C 	0.7814	0.9553	0.85918	0.081
Mof_C 	C 	0.7959	0.8493	0.56282	0.218
Mof_C 	C 	0.8721	0.9052	0.0605	-0.017
Mof_C 	C 	0.2814	0.5447	0.85918	0.096
Mof_C 	C 	0.4275	0.8685	6e-05	0.109
Mof_C 	C 	0.7186	0.0447	0.35918	0.092
Mof_C 	C 	0.1395	0.9833	0.16437	-0.137
Mof_C 	C 	0.0725	0.3685	0.99994	0.107
Mof_C 	C 	0.3907	0.6075	0.0205	-0.032
Mof_C 	C 	0.3907	0.8925	0.4795	-0.031
Mof_C 	C 	0.3352	0.3425	0.07654	-0.242
Mof_C 	C 	0.2849	0.3103	0.18595	0.551
Mof_C 	C 	0.6395	0.5167	0.16437	-0.155
Mof_C 	C 	0.6094	0.6144	0.15148	0.091
Mof_C 	C 	0.1648	0.6575	0.57654	-0.241
Mof_C 	C 	0.2671	0.4901	0.3948	-0.184
Mof_C 	C 	0.3742	0.8362	0.8704	0.168
Mof_C 	C 	0.8475	0.3788	0.98896	0.048
Mof_C 	C 	0.2558	0.1713	0.35669	-0.255
Mof_C 	C 	0.2555	0.0941	0.9237	-0.094
Mof_C 	C 	0.6356	0.6081	0.44856	0.072
Mof_C 	C 	0.1648	0.8425	0.92346	-0.241
Mof_C 	C 	0.8419	0.3488	0.61623	-0.181
Mof_C 	C 	0.7166	0.1215	0.4956	-0.07
Mof_C 	C 	0.7041	0.1507	0.06282	0.219
Mof_C 	C 	0.4275	0.6315	0.49994	0.109
Mof_C 	C 	0.4001	0.846	0.91055	-0.246
Mof_C 	C 	0.0811	0.0221	0.20221	0.354
Mof_C 	C 	0.2361	0.5881	0.40783	0.162
Mof_C 	C 	0.7849	0.3103	0.31405	0.55
Mof_C 	C 	0.0999	0.346	0.08945	-0.247
Mof_C 	C 	0.5999	0.346	0.41055	-0.245
Mof_C 	C 	0.7558	0.1713	0.14331	-0.252
Mof_C 	C 	0.7814	0.5447	0.64082	0.091
Mof_C 	C 	0.8742	0.6638	0.8704	0.168
Mof_C 	C 	0.7849	0.1897	0.18595	0.55
Mof_C 	C 	0.2849	0.1897	0.31405	0.551
Mof_C 	C 	0.8475	0.1212	0.51104	0.049
Mof_C 	C 	0.2329	0.5099	0.8948	-0.186
Mof_C 	C 	0.2186	0.4553	0.35918	0.091
Mof_C 	C 	0.6525	0.8788	0.01104	0.05
Mof_C 	C 	0.6383	0.8326	0.61608	0.159
Mof_C 	C 	0.7671	0.0099	0.3948	-0.183
Mof_C 	C 	0.4001	0.654	0.58945	-0.245
Mof_C 	C 	0.2329	0.9901	0.6052	-0.183
Mof_C 	C 	0.8742	0.8362	0.6296	0.168
Mof_C 	C 	0.1094	0.8856	0.15148	0.08
Mof_C 	C 	0.2442	0.6713	0.64331	-0.252
Mof_C 	C 	0.2166	0.1215	0.0044	-0.072
Mof_C 	C 	0.6094	0.8856	0.34852	0.088
Mof_C 	C 	0.8644	0.3919	0.94856	0.073
Mof_C 	C 	0.7834	0.8785	0.9956	-0.072
Mof_C 	C 	0.2639	0.0881	0.59217	0.162
Mof_C 	C 	0.7151	0.8103	0.68595	0.551
Mof_C 	C 	0.4189	0.5221	0.79779	0.379
Mof_C 	C 	0.3721	0.9052	0.4395	-0.015
Mof_C 	C 	0.8419	0.1512	0.88377	-0.177
Mof_C 	C 	0.6279	0.0948	0.5605	-0.015
Mof_C 	C 	0.6581	0.8488	0.38377	-0.181
Mof_C 	C 	0.7329	0.5099	0.6052	-0.184
Mof_C 	C 	0.9001	0.846	0.58945	-0.247
Mof_C 	C 	0.7445	0.9059	0.0763	-0.094
Mof_C 	C 	0.2959	0.6507	0.56282	0.219
Mof_C 	C 	0.7558	0.3287	0.35669	-0.252
Mof_C 	C 	0.7151	0.6897	0.81405	0.551
Mof_C 	C 	0.3906	0.3856	0.84852	0.091
Mof_C 	C 	0.6395	0.9833	0.33563	-0.151
Mof_C 	C 	0.1383	0.6674	0.61608	0.158
Mof_C 	C 	0.1279	0.0948	0.9395	-0.017
Mof_C 	C 	0.0811	0.4779	0.29779	0.365
Mof_C 	C 	0.2671	0.0099	0.1052	-0.183
Mof_C 	C 	0.2361	0.9119	0.09217	0.162
Mof_C 	C 	0.5811	0.4779	0.20221	0.379
Mof_C 	C 	0.2814	0.9553	0.64082	0.092
Mof_C 	C 	0.7834	0.6215	0.5044	-0.071
Mof_C 	C 	0.3419	0.3488	0.88377	-0.183
Mof_C 	C 	0.6258	0.1638	0.1296	0.168
Mof_C 	C 	0.8352	0.3425	0.42346	-0.241
Mof_C 	C 	0.8617	0.1674	0.11608	0.158
Mof_C 	C 	0.2166	0.3785	0.4956	-0.071
Mof_C 	C 	0.1003	0.1199	0.54264	0.092
Mof_C 	C 	0.9275	0.6315	6e-05	0.107
Mof_C 	C 	0.6093	0.3925	0.9795	-0.032
Mof_C 	C 	0.2151	0.6897	0.68595	0.55
Mof_C 	C 	0.1581	0.8488	0.11623	-0.177
Mof_C 	C 	0.2834	0.8785	0.5044	-0.07
Mof_C 	C 	0.5999	0.154	0.08945	-0.246
Mof_C 	C 	0.3605	0.0167	0.66437	-0.151
Mof_C 	C 	0.6383	0.6674	0.88392	0.16
Mof_C 	C 	0.2041	0.1507	0.43718	0.218
Mof_C 	C 	0.3997	0.6199	0.45736	0.09
Mof_C 	C 	0.1093	0.1075	0.9795	-0.029
Mof_C 	C 	0.7639	0.0881	0.90783	0.162
Mof_C 	C 	0.3419	0.1512	0.61623	-0.181
Mof_C 	C 	0.3475	0.3788	0.51104	0.049
Mof_C 	C 	0.1003	0.3801	0.95736	0.094
Mof_C 	C 	0.5725	0.1315	0.99994	0.109
Mof_C 	C 	0.7041	0.3493	0.43718	0.219
Mof_C 	C 	0.2445	0.9059	0.4237	-0.096
Mof_C 	C 	0.7166	0.3785	0.0044	-0.069
Mof_C 	C 	0.4189	0.9779	0.70221	0.375
Mof_C 	C 	0.3906	0.1144	0.65148	0.088
Mof_C 	C 	0.8907	0.8925	0.0205	-0.029
Mof_C 	C 	0.2186	0.0447	0.14082	0.081
Mof_C 	C 	0.9189	0.5221	0.70221	0.365
Mof_C 	C 	0.1395	0.5167	0.33563	-0.151
Mof_C 	C 	0.1094	0.6144	0.34852	0.086
Mof_C 	C 	0.2639	0.4119	0.90783	0.164
Mof_C 	C 	0.6525	0.6212	0.48896	0.049
Mof_C 	C 	0.1581	0.6512	0.38377	-0.181
Mof_C 	C 	0.8352	0.1575	0.07654	-0.241
Mof_C 	C 	0.8644	0.1081	0.55144	0.073
Mof_C 	C 	0.1525	0.6212	0.01104	0.048
Mof_C 	C 	0.6003	0.1199	0.95736	0.09
Mof_C 	C 	0.1356	0.8919	0.44856	0.073
Mof_C 	C 	0.3605	0.4833	0.83563	-0.155
Mof_C 	C 	0.7555	0.0941	0.5763	-0.096
Mof_C 	C 	0.8906	0.1144	0.84852	0.08
Mof_C 	C 	0.3352	0.1575	0.42346	-0.243
Mof_C 	C 	0.1279	0.4052	0.5605	-0.017
Mof_C 	C 	0.6648	0.8425	0.57654	-0.243
Mof_C 	C 	0.2041	0.3493	0.06282	0.219
Mof_C 	C 	0.2445	0.5941	0.0763	-0.096
Mof_C 	C 	0.9001	0.654	0.91055	-0.247
Mof_C 	C 	0.9275	0.8685	0.49994	0.105
Mof_C 	C 	0.6093	0.1075	0.5205	-0.031
Mof_C 	C 	0.8721	0.5948	0.4395	-0.017
Mof_C 	C 	0.6279	0.4052	0.9395	-0.015
Mof_C 	C 	0.7671	0.4901	0.1052	-0.186
Mof_C 	C 	0.2555	0.4059	0.5763	-0.094
Mof_C 	C 	0.3742	0.6638	0.6296	0.167
Mof_C 	C 	0.1383	0.8326	0.88392	0.158
Mof_C 	C 	0.3721	0.5948	0.0605	-0.015
Mof_C 	C 	0.6356	0.8919	0.05144	0.071
Mof_C 	C 	0.7442	0.6713	0.85669	-0.255
Mof_C 	C 	0.7959	0.6507	0.93718	0.219
Mof_C 	C 	0.8605	0.4833	0.66437	-0.151
Mof_C 	C 	0.2151	0.8103	0.81405	0.55
Mof_C 	C 	0.1258	0.1638	0.3704	0.168
Mof_C 	C 	0.3475	0.1212	0.98896	0.05
Mof_C 	C 	0.7361	0.9119	0.40783	0.162
Mof_C 	C 	0.8997	0.8801	0.45736	0.092
Mof_C 	C 	0.7555	0.4059	0.9237	-0.096
Mof_C 	C 	0.0725	0.1315	0.50006	0.105
Mof_C 	C 	0.0999	0.154	0.41055	-0.247
Mof_C 	C 	0.2959	0.8493	0.93718	0.219
Mof_C 	C 	0.7445	0.5941	0.4237	-0.094
Mof_C 	C 	0.5725	0.3685	0.50006	0.109
Mof_C 	C 	0.8907	0.6075	0.4795	-0.03
Mof_C 	C 	0.7442	0.8287	0.64331	-0.255
Mof_C 	C 	0.7361	0.5881	0.09217	0.164
Mof_N 	N 	0.4945	0.1094	0.93349	-0.203
Mof_N 	N 	0.269	0.6041	0.4468	-0.154
Mof_N 	N 	0.4535	0.3671	0.48493	-0.135
Mof_N 	N 	0.5055	0.6094	0.43349	-0.203
Mof_N 	N 	0.3142	0.6393	0.52188	-0.225
Mof_N 	N 	0.6858	0.1393	0.02188	-0.225
Mof_N 	N 	0.0465	0.8671	0.51507	-0.132
Mof_N 	N 	0.269	0.8959	0.0532	-0.154
Mof_N 	N 	0.8142	0.6393	0.97812	-0.225
Mof_N 	N 	0.1858	0.3607	0.02188	-0.225
Mof_N 	N 	0.0055	0.8906	0.43349	-0.206
Mof_N 	N 	0.231	0.1041	0.5532	-0.154
Mof_N 	N 	0.731	0.3959	0.5532	-0.154
Mof_N 	N 	0.6858	0.3607	0.47812	-0.225
Mof_N 	N 	0.731	0.1041	0.9468	-0.154
Mof_N 	N 	0.9945	0.1094	0.56651	-0.206
Mof_N 	N 	0.5465	0.8671	0.98493	-0.135
Mof_N 	N 	0.231	0.3959	0.9468	-0.155
Mof_N 	N 	0.769	0.6041	0.0532	-0.155
Mof_N 	N 	0.3142	0.8607	0.97812	-0.225
Mof_N 	N 	0.0055	0.6094	0.06651	-0.209
Mof_N 	N 	0.8142	0.8607	0.52188	-0.225
Mof_N 	N 	0.5465	0.6329	0.51507	-0.135
Mof_N 	N 	0.9535	0.1329	0.48493	-0.132
Mof_N 	N 	0.0465	0.6329	0.98493	-0.133
Mof_N 	N 	0.9945	0.3906	0.93349	-0.209
Mof_N 	N 	0.4535	0.1329	0.01507	-0.135
Mof_N 	N 	0.1858	0.1393	0.47812	-0.225
Mof_N 	N 	0.4945	0.3906	0.56651	-0.203
Mof_N 	N 	0.5055	0.8906	0.06651	-0.203
Mof_N 	N 	0.769	0.8959	0.4468	-0.154
Mof_N 	N 	0.9535	0.3671	0.01507	-0.133
Mof_O 	O 	0.0989	0.7909	0.80406	-0.536
Mof_O 	O 	0.3692	0.8965	0.71638	-0.418
Mof_O 	O 	0.486	0.5257	0.21693	-0.279
Mof_O 	O 	0.9011	0.2909	0.30406	-0.536
Mof_O 	O 	0.5989	0.7091	0.80406	-0.545
Mof_O 	O 	0.8118	0.8159	0.70961	-0.55
Mof_O 	O 	0.1308	0.3965	0.28362	-0.416
Mof_O 	O 	0.514	0.0257	0.71693	-0.276
Mof_O 	O 	0.3118	0.6841	0.70961	-0.549
Mof_O 	O 	0.986	0.5257	0.28307	-0.266
Mof_O 	O 	0.3692	0.6035	0.78362	-0.419
Mof_O 	O 	0.1308	0.1035	0.21638	-0.414
Mof_O 	O 	0.486	0.9743	0.28307	-0.276
Mof_O 	O 	0.014	0.4743	0.71693	-0.266
Mof_O 	O 	0.4011	0.2909	0.19594	-0.545
Mof_O 	O 	0.8692	0.6035	0.71638	-0.416
Mof_O 	O 	0.6308	0.3965	0.21638	-0.419
Mof_O 	O 	0.986	0.9743	0.21693	-0.263
Mof_O 	O 	0.6882	0.1841	0.20961	-0.549
Mof_O 	O 	0.0989	0.7091	0.69594	-0.536
Mof_O 	O 	0.6882	0.3159	0.29039	-0.549
Mof_O 	O 	0.6308	0.1035	0.28362	-0.418
Mof_O 	O 	0.8692	0.8965	0.78362	-0.414
Mof_O 	O 	0.1882	0.1841	0.29039	-0.55
Mof_O 	O 	0.8118	0.6841	0.79039	-0.549
Mof_O 	O 	0.4011	0.2091	0.30406	-0.545
Mof_O 	O 	0.3118	0.8159	0.79039	-0.549
Mof_O 	O 	0.014	0.0257	0.78307	-0.263
Mof_O 	O 	0.514	0.4743	0.78307	-0.279
Mof_O 	O 	0.5989	0.7909	0.69594	-0.545
Mof_O 	O 	0.9011	0.2091	0.19594	-0.536
Mof_O 	O 	0.1882	0.3159	0.20961	-0.549
_end
