data_functionalizedCrystal
_audit_creation_method	'EQeq! by Chris Wilmer'
_symmetry_space_group_name_H-M	'P1'
_symmetry_Int_Tables_number	1
_symmetry_cell_setting	triclinic
loop_
_symmetry_equiv_pos_as_xyz
  x,y,z
_cell_length_a	18.668
_cell_length_b	18.668
_cell_length_c	34.825
_cell_angle_alpha	90
_cell_angle_beta	90
_cell_angle_gamma	90
loop_
_atom_site_label
_atom_site_type_symbol
_atom_site_fract_x
_atom_site_fract_y
_atom_site_fract_z
_atom_site_charge
Mof_C 	C 	0.0233	0.4319	0.0336	-0.089
Mof_C 	C 	0.0475	0.3637	0.0336	0.01
Mof_H 	H 	0.015	0.4553	0.0567	0.058
Mof_C 	C 	0.0609	0.3249	0.0721	0.189
Mof_O 	O 	0.106	0.274	0.0715	-0.196
Mof_N 	N 	0.008	0.329	0.0971	-0.216
Mof_H 	H 	0.973	0.357	0.091	0.129
Mof_C 	C 	0.0135	0.3133	0.1412	0.069
Mof_C 	C 	0.95	0.3075	0.1605	-0.02
Mof_C 	C 	0.9492	0.2828	0.1974	-0.135
Mof_C 	C 	0.0118	0.2639	0.2151	0.073
Mof_C 	C 	0.0753	0.2698	0.1958	-0.12
Mof_C 	C 	0.0761	0.2945	0.1588	-0.026
Mof_H 	H 	0.9074	0.3203	0.1485	0.059
Mof_H 	H 	0.0112	0.2471	0.2402	0.034
Mof_H 	H 	0.1193	0.2984	0.1457	0.072
Mof_C 	C 	0.8834	0.2767	0.2174	0.421
Mof_O 	O 	0.8228	0.295	0.2041	-0.455
Mof_O 	O 	0.8765	0.252	0.2512	-0.438
Mof_C 	C 	0.1401	0.2502	0.2141	0.377
Mof_O 	O 	0.2022	0.267	0.2024	-0.404
Mof_O 	O 	0.145	0.213	0.2445	-0.367
Mof_Cu	Cu	0.7379	0.2968	0.2223	0.942
Mof_C 	C 	0.9767	0.5681	0.0336	-0.089
Mof_C 	C 	0.9525	0.6363	0.0336	0.01
Mof_H 	H 	0.985	0.5447	0.0567	0.058
Mof_C 	C 	0.9391	0.6751	0.0721	0.189
Mof_O 	O 	0.894	0.726	0.0715	-0.196
Mof_N 	N 	0.992	0.671	0.0971	-0.216
Mof_H 	H 	0.027	0.643	0.091	0.129
Mof_C 	C 	0.9865	0.6867	0.1412	0.069
Mof_C 	C 	0.05	0.6925	0.1605	-0.02
Mof_C 	C 	0.0508	0.7172	0.1974	-0.135
Mof_C 	C 	0.9882	0.7361	0.2151	0.073
Mof_C 	C 	0.9247	0.7302	0.1958	-0.12
Mof_C 	C 	0.9239	0.7055	0.1588	-0.026
Mof_H 	H 	0.0926	0.6797	0.1485	0.059
Mof_H 	H 	0.9888	0.7529	0.2402	0.034
Mof_H 	H 	0.8807	0.7016	0.1457	0.072
Mof_C 	C 	0.1166	0.7233	0.2174	0.421
Mof_O 	O 	0.1772	0.705	0.2041	-0.455
Mof_O 	O 	0.1235	0.748	0.2512	-0.438
Mof_C 	C 	0.8599	0.7498	0.2141	0.377
Mof_O 	O 	0.7978	0.733	0.2024	-0.404
Mof_O 	O 	0.855	0.787	0.2445	-0.367
Mof_Cu	Cu	0.2621	0.7032	0.2223	0.942
Mof_C 	C 	0.5681	0.0233	0.0336	-0.089
Mof_C 	C 	0.6363	0.0475	0.0336	0.01
Mof_H 	H 	0.5447	0.015	0.0567	0.058
Mof_C 	C 	0.6751	0.0609	0.0721	0.189
Mof_O 	O 	0.726	0.106	0.0715	-0.196
Mof_N 	N 	0.671	0.008	0.0971	-0.216
Mof_H 	H 	0.643	0.973	0.091	0.129
Mof_C 	C 	0.6867	0.0135	0.1412	0.069
Mof_C 	C 	0.6925	0.95	0.1605	-0.02
Mof_C 	C 	0.7172	0.9492	0.1974	-0.135
Mof_C 	C 	0.7361	0.0118	0.2151	0.073
Mof_C 	C 	0.7302	0.0753	0.1958	-0.12
Mof_C 	C 	0.7055	0.0761	0.1588	-0.026
Mof_H 	H 	0.6797	0.9074	0.1485	0.059
Mof_H 	H 	0.7529	0.0112	0.2402	0.034
Mof_H 	H 	0.7016	0.1193	0.1457	0.072
Mof_C 	C 	0.7233	0.8834	0.2174	0.421
Mof_O 	O 	0.705	0.8228	0.2041	-0.455
Mof_O 	O 	0.748	0.8765	0.2512	-0.438
Mof_C 	C 	0.7498	0.1401	0.2141	0.377
Mof_O 	O 	0.733	0.2022	0.2024	-0.404
Mof_O 	O 	0.787	0.145	0.2445	-0.367
Mof_Cu	Cu	0.7032	0.7379	0.2223	0.942
Mof_C 	C 	0.4319	0.9767	0.0336	-0.089
Mof_C 	C 	0.3637	0.9525	0.0336	0.01
Mof_H 	H 	0.4553	0.985	0.0567	0.058
Mof_C 	C 	0.3249	0.9391	0.0721	0.189
Mof_O 	O 	0.274	0.894	0.0715	-0.196
Mof_N 	N 	0.329	0.992	0.0971	-0.216
Mof_H 	H 	0.357	0.027	0.091	0.129
Mof_C 	C 	0.3133	0.9865	0.1412	0.069
Mof_C 	C 	0.3075	0.05	0.1605	-0.02
Mof_C 	C 	0.2828	0.0508	0.1974	-0.135
Mof_C 	C 	0.2639	0.9882	0.2151	0.073
Mof_C 	C 	0.2698	0.9247	0.1958	-0.12
Mof_C 	C 	0.2945	0.9239	0.1588	-0.026
Mof_H 	H 	0.3203	0.0926	0.1485	0.059
Mof_H 	H 	0.2471	0.9888	0.2402	0.034
Mof_H 	H 	0.2984	0.8807	0.1457	0.072
Mof_C 	C 	0.2767	0.1166	0.2174	0.421
Mof_O 	O 	0.295	0.1772	0.2041	-0.455
Mof_O 	O 	0.252	0.1235	0.2512	-0.438
Mof_C 	C 	0.2502	0.8599	0.2141	0.377
Mof_O 	O 	0.267	0.7978	0.2024	-0.404
Mof_O 	O 	0.213	0.855	0.2445	-0.367
Mof_Cu	Cu	0.2968	0.2621	0.2223	0.942
Mof_C 	C 	0.4767	0.9319	0.4664	-0.089
Mof_C 	C 	0.4525	0.8637	0.4664	0.01
Mof_H 	H 	0.485	0.9553	0.4433	0.058
Mof_C 	C 	0.4391	0.8249	0.4279	0.189
Mof_O 	O 	0.394	0.774	0.4285	-0.196
Mof_N 	N 	0.492	0.829	0.4029	-0.216
Mof_H 	H 	0.527	0.857	0.409	0.129
Mof_C 	C 	0.4865	0.8133	0.3588	0.069
Mof_C 	C 	0.55	0.8075	0.3395	-0.02
Mof_C 	C 	0.5508	0.7828	0.3026	-0.135
Mof_C 	C 	0.4882	0.7639	0.2849	0.073
Mof_C 	C 	0.4247	0.7698	0.3042	-0.12
Mof_C 	C 	0.4239	0.7945	0.3412	-0.026
Mof_H 	H 	0.5926	0.8203	0.3515	0.059
Mof_H 	H 	0.4888	0.7471	0.2598	0.033
Mof_H 	H 	0.3807	0.7984	0.3543	0.072
Mof_C 	C 	0.6166	0.7767	0.2826	0.421
Mof_O 	O 	0.6772	0.795	0.2959	-0.454
Mof_O 	O 	0.6235	0.752	0.2488	-0.438
Mof_C 	C 	0.3599	0.7502	0.2859	0.377
Mof_O 	O 	0.2978	0.767	0.2976	-0.404
Mof_O 	O 	0.355	0.713	0.2555	-0.367
Mof_Cu	Cu	0.7621	0.7968	0.2777	0.942
Mof_C 	C 	0.5233	0.0681	0.4664	-0.089
Mof_C 	C 	0.5475	0.1363	0.4664	0.01
Mof_H 	H 	0.515	0.0447	0.4433	0.058
Mof_C 	C 	0.5609	0.1751	0.4279	0.189
Mof_O 	O 	0.606	0.226	0.4285	-0.196
Mof_N 	N 	0.508	0.171	0.4029	-0.216
Mof_H 	H 	0.473	0.143	0.409	0.129
Mof_C 	C 	0.5135	0.1867	0.3588	0.069
Mof_C 	C 	0.45	0.1925	0.3395	-0.02
Mof_C 	C 	0.4492	0.2172	0.3026	-0.135
Mof_C 	C 	0.5118	0.2361	0.2849	0.073
Mof_C 	C 	0.5753	0.2302	0.3042	-0.12
Mof_C 	C 	0.5761	0.2055	0.3412	-0.026
Mof_H 	H 	0.4074	0.1797	0.3515	0.059
Mof_H 	H 	0.5112	0.2529	0.2598	0.033
Mof_H 	H 	0.6193	0.2016	0.3543	0.072
Mof_C 	C 	0.3834	0.2233	0.2826	0.421
Mof_O 	O 	0.3228	0.205	0.2959	-0.454
Mof_O 	O 	0.3765	0.248	0.2488	-0.438
Mof_C 	C 	0.6401	0.2498	0.2859	0.377
Mof_O 	O 	0.7022	0.233	0.2976	-0.404
Mof_O 	O 	0.645	0.287	0.2555	-0.367
Mof_Cu	Cu	0.2379	0.2032	0.2777	0.942
Mof_C 	C 	0.9319	0.5233	0.4664	-0.089
Mof_C 	C 	0.8637	0.5475	0.4664	0.01
Mof_H 	H 	0.9553	0.515	0.4433	0.058
Mof_C 	C 	0.8249	0.5609	0.4279	0.189
Mof_O 	O 	0.774	0.606	0.4285	-0.196
Mof_N 	N 	0.829	0.508	0.4029	-0.216
Mof_H 	H 	0.857	0.473	0.409	0.129
Mof_C 	C 	0.8133	0.5135	0.3588	0.069
Mof_C 	C 	0.8075	0.45	0.3395	-0.02
Mof_C 	C 	0.7828	0.4492	0.3026	-0.135
Mof_C 	C 	0.7639	0.5118	0.2849	0.073
Mof_C 	C 	0.7698	0.5753	0.3042	-0.12
Mof_C 	C 	0.7945	0.5761	0.3412	-0.026
Mof_H 	H 	0.8203	0.4074	0.3515	0.059
Mof_H 	H 	0.7471	0.5112	0.2598	0.033
Mof_H 	H 	0.7984	0.6193	0.3543	0.072
Mof_C 	C 	0.7767	0.3834	0.2826	0.421
Mof_O 	O 	0.795	0.3228	0.2959	-0.454
Mof_O 	O 	0.752	0.3765	0.2488	-0.438
Mof_C 	C 	0.7502	0.6401	0.2859	0.377
Mof_O 	O 	0.767	0.7022	0.2976	-0.404
Mof_O 	O 	0.713	0.645	0.2555	-0.367
Mof_Cu	Cu	0.7968	0.2379	0.2777	0.942
Mof_C 	C 	0.0681	0.4767	0.4664	-0.089
Mof_C 	C 	0.1363	0.4525	0.4664	0.01
Mof_H 	H 	0.0447	0.485	0.4433	0.058
Mof_C 	C 	0.1751	0.4391	0.4279	0.189
Mof_O 	O 	0.226	0.394	0.4285	-0.196
Mof_N 	N 	0.171	0.492	0.4029	-0.216
Mof_H 	H 	0.143	0.527	0.409	0.129
Mof_C 	C 	0.1867	0.4865	0.3588	0.069
Mof_C 	C 	0.1925	0.55	0.3395	-0.02
Mof_C 	C 	0.2172	0.5508	0.3026	-0.135
Mof_C 	C 	0.2361	0.4882	0.2849	0.073
Mof_C 	C 	0.2302	0.4247	0.3042	-0.12
Mof_C 	C 	0.2055	0.4239	0.3412	-0.026
Mof_H 	H 	0.1797	0.5926	0.3515	0.059
Mof_H 	H 	0.2529	0.4888	0.2598	0.033
Mof_H 	H 	0.2016	0.3807	0.3543	0.072
Mof_C 	C 	0.2233	0.6166	0.2826	0.421
Mof_O 	O 	0.205	0.6772	0.2959	-0.454
Mof_O 	O 	0.248	0.6235	0.2488	-0.438
Mof_C 	C 	0.2498	0.3599	0.2859	0.377
Mof_O 	O 	0.233	0.2978	0.2976	-0.404
Mof_O 	O 	0.287	0.355	0.2555	-0.367
Mof_Cu	Cu	0.2032	0.7621	0.2777	0.942
Mof_C 	C 	0.9767	0.5681	0.9664	-0.087
Mof_C 	C 	0.9525	0.6363	0.9664	0.011
Mof_H 	H 	0.985	0.5447	0.9433	0.058
Mof_C 	C 	0.9391	0.6751	0.9279	0.189
Mof_O 	O 	0.894	0.726	0.9285	-0.195
Mof_N 	N 	0.992	0.671	0.9029	-0.216
Mof_H 	H 	0.027	0.643	0.909	0.129
Mof_C 	C 	0.9865	0.6867	0.8588	0.07
Mof_C 	C 	0.05	0.6925	0.8395	-0.02
Mof_C 	C 	0.0508	0.7172	0.8026	-0.135
Mof_C 	C 	0.9882	0.7361	0.7849	0.073
Mof_C 	C 	0.9247	0.7302	0.8042	-0.12
Mof_C 	C 	0.9239	0.7055	0.8412	-0.026
Mof_H 	H 	0.0926	0.6797	0.8515	0.059
Mof_H 	H 	0.9888	0.7529	0.7598	0.034
Mof_H 	H 	0.8807	0.7016	0.8543	0.073
Mof_C 	C 	0.1166	0.7233	0.7826	0.421
Mof_O 	O 	0.1772	0.705	0.7959	-0.454
Mof_O 	O 	0.1235	0.748	0.7488	-0.438
Mof_C 	C 	0.8599	0.7498	0.7859	0.377
Mof_O 	O 	0.7978	0.733	0.7976	-0.403
Mof_O 	O 	0.855	0.787	0.7555	-0.367
Mof_Cu	Cu	0.2621	0.7032	0.7777	0.942
Mof_C 	C 	0.0233	0.4319	0.9664	-0.087
Mof_C 	C 	0.0475	0.3637	0.9664	0.011
Mof_H 	H 	0.015	0.4553	0.9433	0.058
Mof_C 	C 	0.0609	0.3249	0.9279	0.189
Mof_O 	O 	0.106	0.274	0.9285	-0.195
Mof_N 	N 	0.008	0.329	0.9029	-0.216
Mof_H 	H 	0.973	0.357	0.909	0.129
Mof_C 	C 	0.0135	0.3133	0.8588	0.07
Mof_C 	C 	0.95	0.3075	0.8395	-0.02
Mof_C 	C 	0.9492	0.2828	0.8026	-0.135
Mof_C 	C 	0.0118	0.2639	0.7849	0.073
Mof_C 	C 	0.0753	0.2698	0.8042	-0.12
Mof_C 	C 	0.0761	0.2945	0.8412	-0.026
Mof_H 	H 	0.9074	0.3203	0.8515	0.059
Mof_H 	H 	0.0112	0.2471	0.7598	0.034
Mof_H 	H 	0.1193	0.2984	0.8543	0.073
Mof_C 	C 	0.8834	0.2767	0.7826	0.421
Mof_O 	O 	0.8228	0.295	0.7959	-0.454
Mof_O 	O 	0.8765	0.252	0.7488	-0.438
Mof_C 	C 	0.1401	0.2502	0.7859	0.377
Mof_O 	O 	0.2022	0.267	0.7976	-0.403
Mof_O 	O 	0.145	0.213	0.7555	-0.367
Mof_Cu	Cu	0.7379	0.2968	0.7777	0.942
Mof_C 	C 	0.4319	0.9767	0.9664	-0.087
Mof_C 	C 	0.3637	0.9525	0.9664	0.011
Mof_H 	H 	0.4553	0.985	0.9433	0.058
Mof_C 	C 	0.3249	0.9391	0.9279	0.189
Mof_O 	O 	0.274	0.894	0.9285	-0.195
Mof_N 	N 	0.329	0.992	0.9029	-0.216
Mof_H 	H 	0.357	0.027	0.909	0.129
Mof_C 	C 	0.3133	0.9865	0.8588	0.07
Mof_C 	C 	0.3075	0.05	0.8395	-0.02
Mof_C 	C 	0.2828	0.0508	0.8026	-0.135
Mof_C 	C 	0.2639	0.9882	0.7849	0.073
Mof_C 	C 	0.2698	0.9247	0.8042	-0.12
Mof_C 	C 	0.2945	0.9239	0.8412	-0.026
Mof_H 	H 	0.3203	0.0926	0.8515	0.059
Mof_H 	H 	0.2471	0.9888	0.7598	0.034
Mof_H 	H 	0.2984	0.8807	0.8543	0.073
Mof_C 	C 	0.2767	0.1166	0.7826	0.421
Mof_O 	O 	0.295	0.1772	0.7959	-0.454
Mof_O 	O 	0.252	0.1235	0.7488	-0.438
Mof_C 	C 	0.2502	0.8599	0.7859	0.377
Mof_O 	O 	0.267	0.7978	0.7976	-0.403
Mof_O 	O 	0.213	0.855	0.7555	-0.367
Mof_Cu	Cu	0.2968	0.2621	0.7777	0.942
Mof_C 	C 	0.5681	0.0233	0.9664	-0.087
Mof_C 	C 	0.6363	0.0475	0.9664	0.011
Mof_H 	H 	0.5447	0.015	0.9433	0.058
Mof_C 	C 	0.6751	0.0609	0.9279	0.189
Mof_O 	O 	0.726	0.106	0.9285	-0.195
Mof_N 	N 	0.671	0.008	0.9029	-0.216
Mof_H 	H 	0.643	0.973	0.909	0.129
Mof_C 	C 	0.6867	0.0135	0.8588	0.07
Mof_C 	C 	0.6925	0.95	0.8395	-0.02
Mof_C 	C 	0.7172	0.9492	0.8026	-0.135
Mof_C 	C 	0.7361	0.0118	0.7849	0.073
Mof_C 	C 	0.7302	0.0753	0.8042	-0.12
Mof_C 	C 	0.7055	0.0761	0.8412	-0.026
Mof_H 	H 	0.6797	0.9074	0.8515	0.059
Mof_H 	H 	0.7529	0.0112	0.7598	0.034
Mof_H 	H 	0.7016	0.1193	0.8543	0.073
Mof_C 	C 	0.7233	0.8834	0.7826	0.421
Mof_O 	O 	0.705	0.8228	0.7959	-0.454
Mof_O 	O 	0.748	0.8765	0.7488	-0.438
Mof_C 	C 	0.7498	0.1401	0.7859	0.377
Mof_O 	O 	0.733	0.2022	0.7976	-0.403
Mof_O 	O 	0.787	0.145	0.7555	-0.367
Mof_Cu	Cu	0.7032	0.7379	0.7777	0.942
Mof_C 	C 	0.5233	0.0681	0.5336	-0.089
Mof_C 	C 	0.5475	0.1363	0.5336	0.01
Mof_H 	H 	0.515	0.0447	0.5567	0.058
Mof_C 	C 	0.5609	0.1751	0.5721	0.189
Mof_O 	O 	0.606	0.226	0.5715	-0.196
Mof_N 	N 	0.508	0.171	0.5971	-0.216
Mof_H 	H 	0.473	0.143	0.591	0.129
Mof_C 	C 	0.5135	0.1867	0.6412	0.069
Mof_C 	C 	0.45	0.1925	0.6605	-0.02
Mof_C 	C 	0.4492	0.2172	0.6974	-0.135
Mof_C 	C 	0.5118	0.2361	0.7151	0.073
Mof_C 	C 	0.5753	0.2302	0.6958	-0.12
Mof_C 	C 	0.5761	0.2055	0.6588	-0.026
Mof_H 	H 	0.4074	0.1797	0.6485	0.059
Mof_H 	H 	0.5112	0.2529	0.7402	0.034
Mof_H 	H 	0.6193	0.2016	0.6457	0.072
Mof_C 	C 	0.3834	0.2233	0.7174	0.421
Mof_O 	O 	0.3228	0.205	0.7041	-0.454
Mof_O 	O 	0.3765	0.248	0.7512	-0.438
Mof_C 	C 	0.6401	0.2498	0.7141	0.377
Mof_O 	O 	0.7022	0.233	0.7024	-0.404
Mof_O 	O 	0.645	0.287	0.7445	-0.367
Mof_Cu	Cu	0.2379	0.2032	0.7223	0.942
Mof_C 	C 	0.4767	0.9319	0.5336	-0.089
Mof_C 	C 	0.4525	0.8637	0.5336	0.01
Mof_H 	H 	0.485	0.9553	0.5567	0.058
Mof_C 	C 	0.4391	0.8249	0.5721	0.189
Mof_O 	O 	0.394	0.774	0.5715	-0.196
Mof_N 	N 	0.492	0.829	0.5971	-0.216
Mof_H 	H 	0.527	0.857	0.591	0.129
Mof_C 	C 	0.4865	0.8133	0.6412	0.069
Mof_C 	C 	0.55	0.8075	0.6605	-0.02
Mof_C 	C 	0.5508	0.7828	0.6974	-0.135
Mof_C 	C 	0.4882	0.7639	0.7151	0.073
Mof_C 	C 	0.4247	0.7698	0.6958	-0.12
Mof_C 	C 	0.4239	0.7945	0.6588	-0.026
Mof_H 	H 	0.5926	0.8203	0.6485	0.059
Mof_H 	H 	0.4888	0.7471	0.7402	0.034
Mof_H 	H 	0.3807	0.7984	0.6457	0.072
Mof_C 	C 	0.6166	0.7767	0.7174	0.421
Mof_O 	O 	0.6772	0.795	0.7041	-0.454
Mof_O 	O 	0.6235	0.752	0.7512	-0.438
Mof_C 	C 	0.3599	0.7502	0.7141	0.377
Mof_O 	O 	0.2978	0.767	0.7024	-0.404
Mof_O 	O 	0.355	0.713	0.7445	-0.367
Mof_Cu	Cu	0.7621	0.7968	0.7223	0.942
Mof_C 	C 	0.0681	0.4767	0.5336	-0.089
Mof_C 	C 	0.1363	0.4525	0.5336	0.01
Mof_H 	H 	0.0447	0.485	0.5567	0.058
Mof_C 	C 	0.1751	0.4391	0.5721	0.189
Mof_O 	O 	0.226	0.394	0.5715	-0.196
Mof_N 	N 	0.171	0.492	0.5971	-0.216
Mof_H 	H 	0.143	0.527	0.591	0.129
Mof_C 	C 	0.1867	0.4865	0.6412	0.069
Mof_C 	C 	0.1925	0.55	0.6605	-0.02
Mof_C 	C 	0.2172	0.5508	0.6974	-0.135
Mof_C 	C 	0.2361	0.4882	0.7151	0.073
Mof_C 	C 	0.2302	0.4247	0.6958	-0.12
Mof_C 	C 	0.2055	0.4239	0.6588	-0.026
Mof_H 	H 	0.1797	0.5926	0.6485	0.059
Mof_H 	H 	0.2529	0.4888	0.7402	0.034
Mof_H 	H 	0.2016	0.3807	0.6457	0.072
Mof_C 	C 	0.2233	0.6166	0.7174	0.421
Mof_O 	O 	0.205	0.6772	0.7041	-0.454
Mof_O 	O 	0.248	0.6235	0.7512	-0.438
Mof_C 	C 	0.2498	0.3599	0.7141	0.377
Mof_O 	O 	0.233	0.2978	0.7024	-0.404
Mof_O 	O 	0.287	0.355	0.7445	-0.367
Mof_Cu	Cu	0.2032	0.7621	0.7223	0.942
Mof_C 	C 	0.9319	0.5233	0.5336	-0.089
Mof_C 	C 	0.8637	0.5475	0.5336	0.01
Mof_H 	H 	0.9553	0.515	0.5567	0.058
Mof_C 	C 	0.8249	0.5609	0.5721	0.189
Mof_O 	O 	0.774	0.606	0.5715	-0.196
Mof_N 	N 	0.829	0.508	0.5971	-0.216
Mof_H 	H 	0.857	0.473	0.591	0.129
Mof_C 	C 	0.8133	0.5135	0.6412	0.069
Mof_C 	C 	0.8075	0.45	0.6605	-0.02
Mof_C 	C 	0.7828	0.4492	0.6974	-0.135
Mof_C 	C 	0.7639	0.5118	0.7151	0.073
Mof_C 	C 	0.7698	0.5753	0.6958	-0.12
Mof_C 	C 	0.7945	0.5761	0.6588	-0.026
Mof_H 	H 	0.8203	0.4074	0.6485	0.059
Mof_H 	H 	0.7471	0.5112	0.7402	0.034
Mof_H 	H 	0.7984	0.6193	0.6457	0.072
Mof_C 	C 	0.7767	0.3834	0.7174	0.421
Mof_O 	O 	0.795	0.3228	0.7041	-0.454
Mof_O 	O 	0.752	0.3765	0.7512	-0.438
Mof_C 	C 	0.7502	0.6401	0.7141	0.377
Mof_O 	O 	0.767	0.7022	0.7024	-0.404
Mof_O 	O 	0.713	0.645	0.7445	-0.367
Mof_Cu	Cu	0.7968	0.2379	0.7223	0.942
Mof_C 	C 	0.0112	0.4659	-0	0.038
Mof_C 	C 	0.0595	0.3296	-0	-0.068
Mof_H 	H 	0.076	0.2826	-0	0.09
Mof_C 	C 	0.9888	0.5341	-0	0.038
Mof_C 	C 	0.9405	0.6704	-0	-0.068
Mof_H 	H 	0.924	0.7174	-0	0.09
Mof_C 	C 	0.5341	0.0112	-0	0.038
Mof_C 	C 	0.6704	0.0595	-0	-0.068
Mof_H 	H 	0.7174	0.076	-0	0.09
Mof_C 	C 	0.4659	0.9888	-0	0.038
Mof_C 	C 	0.3296	0.9405	-0	-0.068
Mof_H 	H 	0.2826	0.924	-0	0.09
Mof_C 	C 	0.4888	0.9659	0.5	0.039
Mof_C 	C 	0.4405	0.8296	0.5	-0.066
Mof_H 	H 	0.424	0.7826	0.5	0.09
Mof_C 	C 	0.5112	0.0341	0.5	0.039
Mof_C 	C 	0.5595	0.1704	0.5	-0.066
Mof_H 	H 	0.576	0.2174	0.5	0.09
Mof_C 	C 	0.9659	0.5112	0.5	0.039
Mof_C 	C 	0.8296	0.5595	0.5	-0.066
Mof_H 	H 	0.7826	0.576	0.5	0.09
Mof_C 	C 	0.0341	0.4888	0.5	0.039
Mof_C 	C 	0.1704	0.4405	0.5	-0.066
Mof_H 	H 	0.2174	0.424	0.5	0.09
_end
