data_functionalizedCrystal
_audit_creation_method	'EQeq! by Chris Wilmer'
_symmetry_space_group_name_H-M	'P1'
_symmetry_Int_Tables_number	1
_symmetry_cell_setting	triclinic
loop_
_symmetry_equiv_pos_as_xyz
  x,y,z
_cell_length_a	18.675
_cell_length_b	10.22
_cell_length_c	13.419
_cell_angle_alpha	90
_cell_angle_beta	98.29
_cell_angle_gamma	90
loop_
_atom_site_label
_atom_site_type_symbol
_atom_site_fract_x
_atom_site_fract_y
_atom_site_fract_z
_atom_site_charge
Mof_In	In	0.77422	0.50366	0.97135	3.408
Mof_O 	O 	0.9987	0.9829	0.1581	-0.541
Mof_O 	O 	0.85111	0.6581	0.9654	-0.584
Mof_O 	O 	0.18633	0.8686	0.9544	-0.552
Mof_O 	O 	0.80404	0.8427	0.0654	-0.704
Mof_O 	O 	0.9031	0.0798	0.2174	-0.527
Mof_H 	H 	0.9076	0.1163	0.1643	0.285
Mof_O 	O 	0.7512	0.2816	0.7209	-0.496
Mof_H 	H 	0.7336	0.2515	0.6662	0.249
Mof_O 	O 	0.7819	0.4875	0.8147	-0.693
Mof_O 	O 	0.90718	0.8786	0.9648	-0.352
Mof_O 	O 	0.14554	0.6421	0.9969	-0.526
Mof_O 	O 	0.0636	0.8288	0.0031	-0.583
Mof_O 	O 	0.7874	0.4783	0.6313	-0.698
Mof_P 	P 	0.86904	0.78306	0.02594	0.463
Mof_P 	P 	0.14217	0.78718	0.01941	0.454
Mof_P 	P 	0.96408	0.9738	0.24192	0.751
Mof_P 	P 	0.75009	0.43187	0.71576	0.675
Mof_H 	H 	0.68	0.437	0.717	-0.078
Mof_H 	H 	0.17	0.806	0.117	-0.072
Mof_H 	H 	0.912	0.751	0.11	-0.044
Mof_H 	H 	0.928	0.859	0.25	-0.041
Mof_In	In	0.27422	0.00366	0.97135	2.949
Mof_O 	O 	0.4987	0.4829	0.1581	-0.847
Mof_O 	O 	0.35111	0.1581	0.9654	-0.586
Mof_O 	O 	0.68633	0.3686	0.9544	-0.698
Mof_O 	O 	0.30404	0.3427	0.0654	-0.681
Mof_O 	O 	0.4031	0.5798	0.2174	-0.456
Mof_H 	H 	0.4076	0.6163	0.1643	0.254
Mof_O 	O 	0.2512	0.7816	0.7209	-0.478
Mof_H 	H 	0.2336	0.7515	0.6662	0.246
Mof_O 	O 	0.2819	0.9875	0.8147	-0.576
Mof_O 	O 	0.40718	0.3786	0.9648	-0.577
Mof_O 	O 	0.64554	0.1421	0.9969	-0.632
Mof_O 	O 	0.5636	0.3288	0.0031	-0.717
Mof_O 	O 	0.2874	0.9783	0.6313	-0.714
Mof_P 	P 	0.36904	0.28306	0.02594	0.485
Mof_P 	P 	0.64217	0.28718	0.01941	0.531
Mof_P 	P 	0.46408	0.4738	0.24192	0.571
Mof_P 	P 	0.25009	0.93187	0.71576	0.67
Mof_H 	H 	0.18	0.937	0.717	-0.052
Mof_H 	H 	0.67	0.306	0.117	-0.113
Mof_H 	H 	0.412	0.251	0.11	-0.091
Mof_H 	H 	0.428	0.359	0.25	-0.072
Mof_In	In	0.22578	0.50366	0.52865	3.123
Mof_O 	O 	0.0013	0.9829	0.3419	-0.756
Mof_O 	O 	0.14889	0.6581	0.5346	-0.688
Mof_O 	O 	0.81367	0.8686	0.5456	-0.632
Mof_O 	O 	0.19596	0.8427	0.4346	-0.737
Mof_O 	O 	0.0969	0.0798	0.2826	-0.493
Mof_H 	H 	0.0924	0.1163	0.3357	0.254
Mof_O 	O 	0.2488	0.2816	0.7791	-0.503
Mof_H 	H 	0.2664	0.2515	0.8338	0.258
Mof_O 	O 	0.2181	0.4875	0.6853	-0.678
Mof_O 	O 	0.09282	0.8786	0.5352	-0.582
Mof_O 	O 	0.85446	0.6421	0.5031	-0.658
Mof_O 	O 	0.9364	0.8288	0.4969	-0.483
Mof_O 	O 	0.2126	0.4783	0.8687	-0.636
Mof_P 	P 	0.13096	0.78306	0.47406	0.636
Mof_P 	P 	0.85783	0.78718	0.48059	0.626
Mof_P 	P 	0.03592	0.9738	0.25808	0.35
Mof_P 	P 	0.24991	0.43187	0.78424	0.655
Mof_H 	H 	0.32	0.437	0.783	-0.066
Mof_H 	H 	0.83	0.806	0.383	-0.074
Mof_H 	H 	0.088	0.751	0.39	-0.104
Mof_H 	H 	0.072	0.859	0.25	-0.041
Mof_In	In	0.72578	0.00366	0.52865	2.728
Mof_O 	O 	0.5013	0.4829	0.3419	-0.887
Mof_O 	O 	0.64889	0.1581	0.5346	-0.652
Mof_O 	O 	0.31367	0.3686	0.5456	-0.752
Mof_O 	O 	0.69596	0.3427	0.4346	-0.717
Mof_O 	O 	0.5969	0.5798	0.2826	-0.463
Mof_H 	H 	0.5924	0.6163	0.3357	0.267
Mof_O 	O 	0.7488	0.7816	0.7791	-0.474
Mof_H 	H 	0.7664	0.7515	0.8338	0.256
Mof_O 	O 	0.7181	0.9875	0.6853	-0.559
Mof_O 	O 	0.59282	0.3786	0.5352	-0.737
Mof_O 	O 	0.35446	0.1421	0.5031	-0.794
Mof_O 	O 	0.4364	0.3288	0.4969	-0.741
Mof_O 	O 	0.7126	0.9783	0.8687	-0.632
Mof_P 	P 	0.63096	0.28306	0.47406	0.648
Mof_P 	P 	0.35783	0.28718	0.48059	0.686
Mof_P 	P 	0.53592	0.4738	0.25808	0.579
Mof_P 	P 	0.74991	0.93187	0.78424	0.652
Mof_H 	H 	0.82	0.937	0.783	-0.033
Mof_H 	H 	0.33	0.306	0.383	-0.125
Mof_H 	H 	0.588	0.251	0.39	-0.105
Mof_H 	H 	0.572	0.359	0.25	-0.073
Mof_In	In	0.22578	0.49634	0.02865	2.809
Mof_O 	O 	0.0013	0.0171	0.8419	-0.769
Mof_O 	O 	0.14889	0.3419	0.0346	-0.734
Mof_O 	O 	0.81367	0.1314	0.0456	-0.846
Mof_O 	O 	0.19596	0.1573	0.9346	-0.698
Mof_O 	O 	0.0969	0.9202	0.7826	-0.342
Mof_H 	H 	0.0924	0.8837	0.8357	0.273
Mof_O 	O 	0.2488	0.7184	0.2791	-0.471
Mof_H 	H 	0.2664	0.7485	0.3338	0.254
Mof_O 	O 	0.2181	0.5125	0.1853	-0.645
Mof_O 	O 	0.09282	0.1214	0.0352	-0.688
Mof_O 	O 	0.85446	0.3579	0.0031	-0.808
Mof_O 	O 	0.9364	0.1712	0.9969	-0.451
Mof_O 	O 	0.2126	0.5217	0.3687	-0.715
Mof_P 	P 	0.13096	0.21694	0.97406	0.758
Mof_P 	P 	0.85783	0.21282	0.98059	0.768
Mof_P 	P 	0.03592	0.0262	0.75808	0.215
Mof_P 	P 	0.24991	0.56813	0.28424	0.648
Mof_H 	H 	0.32	0.563	0.283	-0.067
Mof_H 	H 	0.83	0.194	0.883	-0.126
Mof_H 	H 	0.088	0.249	0.89	-0.105
Mof_H 	H 	0.072	0.141	0.75	-0.047
Mof_In	In	0.72578	0.99634	0.02865	3.177
Mof_O 	O 	0.5013	0.5171	0.8419	-0.809
Mof_O 	O 	0.64889	0.8419	0.0346	-0.751
Mof_O 	O 	0.31367	0.6314	0.0456	-0.779
Mof_O 	O 	0.69596	0.6573	0.9346	-0.747
Mof_O 	O 	0.5969	0.4202	0.7826	-0.476
Mof_H 	H 	0.5924	0.3837	0.8357	0.281
Mof_O 	O 	0.7488	0.2184	0.2791	-0.486
Mof_H 	H 	0.7664	0.2485	0.3338	0.257
Mof_O 	O 	0.7181	0.0125	0.1853	-0.732
Mof_O 	O 	0.59282	0.6214	0.0352	-0.774
Mof_O 	O 	0.35446	0.8579	0.0031	-0.739
Mof_O 	O 	0.4364	0.6712	0.9969	-0.615
Mof_O 	O 	0.7126	0.0217	0.3687	-0.691
Mof_P 	P 	0.63096	0.71694	0.97406	0.818
Mof_P 	P 	0.35783	0.71282	0.98059	0.806
Mof_P 	P 	0.53592	0.5262	0.75808	0.575
Mof_P 	P 	0.74991	0.06813	0.28424	0.648
Mof_H 	H 	0.82	0.063	0.283	-0.076
Mof_H 	H 	0.33	0.694	0.883	-0.11
Mof_H 	H 	0.588	0.749	0.89	-0.091
Mof_H 	H 	0.572	0.641	0.75	-0.061
Mof_In	In	0.77422	0.49634	0.47135	3.13
Mof_O 	O 	0.9987	0.0171	0.6581	-0.628
Mof_O 	O 	0.85111	0.3419	0.4654	-0.645
Mof_O 	O 	0.18633	0.1314	0.4544	-0.826
Mof_O 	O 	0.80404	0.1573	0.5654	-0.683
Mof_O 	O 	0.9031	0.9202	0.7174	-0.399
Mof_H 	H 	0.9076	0.8837	0.6643	0.29
Mof_O 	O 	0.7512	0.7184	0.2209	-0.466
Mof_H 	H 	0.7336	0.7485	0.1662	0.246
Mof_O 	O 	0.7819	0.5125	0.3147	-0.664
Mof_O 	O 	0.90718	0.1214	0.4648	-0.56
Mof_O 	O 	0.14554	0.3579	0.4969	-0.707
Mof_O 	O 	0.0636	0.1712	0.5031	-0.654
Mof_O 	O 	0.7874	0.5217	0.1313	-0.768
Mof_P 	P 	0.86904	0.21694	0.52594	0.618
Mof_P 	P 	0.14217	0.21282	0.51941	0.65
Mof_P 	P 	0.96408	0.0262	0.74192	0.679
Mof_P 	P 	0.75009	0.56813	0.21576	0.668
Mof_H 	H 	0.68	0.563	0.217	-0.076
Mof_H 	H 	0.17	0.194	0.617	-0.138
Mof_H 	H 	0.912	0.249	0.61	-0.056
Mof_H 	H 	0.928	0.141	0.75	-0.05
Mof_In	In	0.27422	0.99634	0.47135	3.53
Mof_O 	O 	0.4987	0.5171	0.6581	-0.885
Mof_O 	O 	0.35111	0.8419	0.4654	-0.697
Mof_O 	O 	0.68633	0.6314	0.4544	-0.733
Mof_O 	O 	0.30404	0.6573	0.5654	-0.725
Mof_O 	O 	0.4031	0.4202	0.7174	-0.463
Mof_H 	H 	0.4076	0.3837	0.6643	0.257
Mof_O 	O 	0.2512	0.2184	0.2209	-0.493
Mof_H 	H 	0.2336	0.2485	0.1662	0.25
Mof_O 	O 	0.2819	0.0125	0.3147	-0.782
Mof_O 	O 	0.40718	0.6214	0.4648	-0.731
Mof_O 	O 	0.64554	0.8579	0.4969	-0.587
Mof_O 	O 	0.5636	0.6712	0.5031	-0.72
Mof_O 	O 	0.2874	0.0217	0.1313	-0.751
Mof_P 	P 	0.36904	0.71694	0.52594	0.666
Mof_P 	P 	0.64217	0.71282	0.51941	0.659
Mof_P 	P 	0.46408	0.5262	0.74192	0.569
Mof_P 	P 	0.25009	0.06813	0.21576	0.667
Mof_H 	H 	0.18	0.063	0.217	-0.096
Mof_H 	H 	0.67	0.694	0.617	-0.108
Mof_H 	H 	0.412	0.749	0.61	-0.092
Mof_H 	H 	0.428	0.641	0.75	-0.059
Mof_In	In	-0	0	-0	1.965
Mof_In	In	0.5	0.5	-0	2.919
Mof_In	In	1.5413e-33	-9.96049e-33	0.5	2.275
Mof_In	In	0.5	0.5	0.5	3.313
_end
