data_functionalizedCrystal
_audit_creation_method	'EQeq! by Chris Wilmer'
_symmetry_space_group_name_H-M	'P1'
_symmetry_Int_Tables_number	1
_symmetry_cell_setting	triclinic
loop_
_symmetry_equiv_pos_as_xyz
  x,y,z
_cell_length_a	10.9175
_cell_length_b	21.4699
_cell_length_c	21.4699
_cell_angle_alpha	62.8125
_cell_angle_beta	80.2412
_cell_angle_gamma	99.7588
loop_
_atom_site_label
_atom_site_type_symbol
_atom_site_fract_x
_atom_site_fract_y
_atom_site_fract_z
_atom_site_charge
Mof_Zn	Zn	0.27628	0.00016	0.08622	1.212
Mof_Zn	Zn	0.3625	0.08622	0.91362	1.22
Mof_Zn	Zn	0.27612	0.91362	0.00016	1.216
Mof_Zn	Zn	0.53927	0	-0	1.218
Mof_H 	H 	0.8421	2.68569e-17	0.2435	0.088
Mof_H 	H 	0.4883	0.9935	0.3459	0.097
Mof_H 	H 	0.4117	0.9996	0.2485	0.03
Mof_H 	H 	0.7655	0.0063	0.146	0.013
Mof_H 	H 	0.6874	0.8963	0.4272	0.112
Mof_H 	H 	0.9711	0.1293	0.4472	0.075
Mof_H 	H 	0.9894	0.2426	0.3472	0.047
Mof_H 	H 	0.7831	0.1406	0.2632	0.055
Mof_H 	H 	0.1777	0.9982	0.5708	0.097
Mof_H 	H 	0.6687	0.0093	0.5567	0.017
Mof_H 	H 	0.5507	0.0114	0.6572	0.102
Mof_H 	H 	0.8622	0.0046	0.7368	0.118
Mof_H 	H 	0.0297	0.8881	0.7562	0.15
Mof_H 	H 	0.1526	0.1091	0.6415	0.161
Mof_H 	H 	0.2524	0.109	0.7299	-0.076
Mof_H 	H 	0.1296	0.8881	0.8444	-0.078
Mof_H 	H 	0.2347	0.0095	0.3958	-0.039
Mof_H 	H 	0.1771	0.9397	0.4778	-0.032
Mof_H 	H 	0.5579	0.9754	0.3932	0.043
Mof_H 	H 	0.5197	0.0875	0.3229	0.051
Mof_H 	H 	0.3593	0.1234	0.3747	0.05
Mof_H 	H 	0.2754	0.9352	0.5669	0.04
Mof_H 	H 	0.4357	0.8992	0.5153	0.043
Mof_H 	H 	0.9174	0.8955	0.5746	-0.018
Mof_H 	H 	0.9825	0.8742	0.5176	-0.009
Mof_H 	H 	0.0211	0.7826	0.6354	0.018
Mof_H 	H 	0.6875	0.7699	0.5771	0.045
Mof_H 	H 	0.7811	0.743	0.4893	0.048
Mof_H 	H 	0.9948	0.7361	0.4743	0.031
Mof_H 	H 	0.1147	0.7557	0.5476	0.063
Mof_H 	H 	0.0856	0.2435	0.7565	0.082
Mof_H 	H 	0.8342	0.3459	0.6606	0.086
Mof_H 	H 	0.6602	0.2485	0.7519	0.037
Mof_H 	H 	0.9115	0.146	0.8477	0.026
Mof_H 	H 	0.1146	0.4272	0.6765	0.117
Mof_H 	H 	0.4183	0.4472	0.4235	0.072
Mof_H 	H 	0.3366	0.3472	0.4102	0.043
Mof_H 	H 	0.0463	0.2632	0.5962	0.051
Mof_H 	H 	0.7485	0.5708	0.431	0.071
Mof_H 	H 	0.2254	0.5567	0.434	0.021
Mof_H 	H 	0.2079	0.6572	0.3314	0.105
Mof_H 	H 	0.599	0.7368	0.2586	0.118
Mof_H 	H 	0.7859	0.7562	0.3557	0.133
Mof_H 	H 	0.7941	0.6415	0.2494	0.142
Mof_H 	H 	0.9823	0.7299	0.1611	-0.062
Mof_H 	H 	0.974	0.8444	0.2675	-0.059
Mof_H 	H 	0.6305	0.3958	0.5947	0.016
Mof_H 	H 	0.6549	0.4778	0.5825	0.009
Mof_H 	H 	0.9511	0.3932	0.6314	0.075
Mof_H 	H 	0.8426	0.3229	0.5896	0.024
Mof_H 	H 	0.734	0.3747	0.5019	0.076
Mof_H 	H 	0.8423	0.5669	0.4979	0.065
Mof_H 	H 	0.951	0.5153	0.5855	0.02
Mof_H 	H 	0.492	0.5746	0.5299	-0.029
Mof_H 	H 	0.5001	0.5176	0.6082	-0.016
Mof_H 	H 	0.6565	0.6354	0.582	0.046
Mof_H 	H 	0.2646	0.5771	0.653	0.054
Mof_H 	H 	0.2704	0.4893	0.7677	0.033
Mof_H 	H 	0.4691	0.4743	0.7896	0.049
Mof_H 	H 	0.6623	0.5476	0.6967	0.041
Mof_H 	H 	0.8421	0.7565	-0	0.089
Mof_H 	H 	0.4948	0.6606	0.9935	0.098
Mof_H 	H 	0.4121	0.7519	0.9996	0.031
Mof_H 	H 	0.7592	0.8477	0.0063	0.018
Mof_H 	H 	0.7911	0.6765	0.8963	0.11
Mof_H 	H 	0.8418	0.4235	0.1293	0.074
Mof_H 	H 	0.7468	0.4102	0.2426	0.046
Mof_H 	H 	0.6425	0.5962	0.1406	0.055
Mof_H 	H 	0.1795	0.431	0.9982	0.099
Mof_H 	H 	0.6594	0.434	0.0093	0.018
Mof_H 	H 	0.5393	0.3314	0.0114	0.101
Mof_H 	H 	0.8576	0.2586	0.0046	0.116
Mof_H 	H 	0.1416	0.3557	0.8881	0.151
Mof_H 	H 	0.0435	0.2494	0.1091	0.161
Mof_H 	H 	0.1434	0.1611	0.109	-0.081
Mof_H 	H 	0.2415	0.2675	0.8881	-0.082
Mof_H 	H 	0.2252	0.5947	0.0095	-0.04
Mof_H 	H 	0.2374	0.5825	0.9397	-0.031
Mof_H 	H 	0.5825	0.6314	0.9754	0.042
Mof_H 	H 	0.4322	0.5896	0.0875	0.052
Mof_H 	H 	0.2359	0.5019	0.1234	0.049
Mof_H 	H 	0.3402	0.4979	0.9352	0.039
Mof_H 	H 	0.5365	0.5855	0.8992	0.044
Mof_H 	H 	0.0219	0.5299	0.8955	-0.016
Mof_H 	H 	0.1083	0.6082	0.8742	-0.004
Mof_H 	H 	0.2385	0.582	0.7826	0.051
Mof_H 	H 	0.9176	0.653	0.7699	0.076
Mof_H 	H 	0.0381	0.7677	0.743	0.023
Mof_H 	H 	0.2587	0.7896	0.7361	0.056
Mof_H 	H 	0.359	0.6967	0.7557	0.036
Mof_C 	C 	0.755	2.68569e-17	0.245	-0.173
Mof_C 	C 	0.672	0.996	0.304	0.111
Mof_C 	C 	0.5446	0.9961	0.3053	-0.161
Mof_C 	C 	0.4991	0.9997	0.2474	0.103
Mof_C 	C 	0.5812	0.0036	0.188	-0.143
Mof_C 	C 	0.71	0.004	0.186	0.081
Mof_C 	C 	0.5053	0.001	0.1311	0.443
Mof_C 	C 	0.254	0.999	0.841	0.834
Mof_C 	C 	0.856	0.001	0.474	-0.164
Mof_C 	C 	0.789	0.937	0.479	0.395
Mof_C 	C 	0.734	0.941	0.423	-0.223
Mof_C 	C 	0.744	0.008	0.364	0.013
Mof_C 	C 	0.811	0.072	0.359	-0.025
Mof_C 	C 	0.8664	0.0684	0.4142	0.089
Mof_C 	C 	0.933	0.132	0.41	-0.086
Mof_C 	C 	0.944	0.199	0.351	-0.034
Mof_C 	C 	0.888	0.203	0.295	0.011
Mof_C 	C 	0.822	0.139	0.3	-0.065
Mof_C 	C 	0.9052	0.0042	0.5276	0.035
Mof_C 	C 	0.0332	0.0012	0.5216	0.152
Mof_C 	C 	0.091	5.37139e-17	0.575	-0.124
Mof_C 	C 	0.0208	0.0018	0.6344	-0.126
Mof_C 	C 	0.8925	0.0042	0.6407	0.127
Mof_C 	C 	0.836	0.006	0.587	-0.077
Mof_C 	C 	0.708	0.009	0.593	0.045
Mof_C 	C 	0.638	0.009	0.653	-0.17
Mof_C 	C 	0.695	0.008	0.706	0.196
Mof_C 	C 	0.8227	0.0047	0.7006	-0.208
Mof_C 	C 	0.075	0.9329	0.7509	-0.346
Mof_C 	C 	0.0824	0.9994	0.6902	0.281
Mof_C 	C 	0.1478	0.0648	0.6824	-0.376
Mof_C 	C 	0.207	0.0642	0.7352	0.349
Mof_C 	C 	0.2	0.9985	0.7955	-0.579
Mof_C 	C 	0.1345	0.9328	0.8033	0.366
Mof_C 	C 	0.202	0.993	0.448	0.246
Mof_C 	C 	0.494	0.991	0.413	-0.03
Mof_C 	C 	0.47	0.056	0.373	-0.072
Mof_C 	C 	0.379	0.079	0.402	-0.033
Mof_C 	C 	0.302	0.033	0.476	-0.047
Mof_C 	C 	0.325	0.966	0.517	-0.031
Mof_C 	C 	0.42	0.945	0.487	-0.037
Mof_C 	C 	0.899	0.867	0.55	0.241
Mof_C 	C 	0.97	0.775	0.605	0.015
Mof_C 	C 	0.848	0.779	0.615	-0.054
Mof_C 	C 	0.774	0.766	0.572	-0.006
Mof_C 	C 	0.83	0.75	0.52	-0.063
Mof_C 	C 	0.953	0.748	0.509	0.014
Mof_C 	C 	0.028	0.759	0.553	-0.101
Mof_C 	C 	2.68569e-17	0.245	0.755	-0.149
Mof_C 	C 	0.976	0.304	0.7	0.073
Mof_C 	C 	0.8499	0.3053	0.6986	-0.135
Mof_C 	C 	0.7465	0.2474	0.7529	0.056
Mof_C 	C 	0.7692	0.188	0.8084	-0.107
Mof_C 	C 	0.896	0.186	0.81	0.073
Mof_C 	C 	0.6364	0.1311	0.8679	0.462
Mof_C 	C 	0.095	0.841	0.16	0.768
Mof_C 	C 	0.33	0.474	0.525	-0.141
Mof_C 	C 	0.268	0.479	0.584	0.377
Mof_C 	C 	0.157	0.423	0.636	-0.255
Mof_C 	C 	0.108	0.364	0.628	0.048
Mof_C 	C 	0.17	0.359	0.569	-0.036
Mof_C 	C 	0.2806	0.4142	0.5174	0.086
Mof_C 	C 	0.343	0.41	0.458	-0.088
Mof_C 	C 	0.295	0.351	0.45	-0.032
Mof_C 	C 	0.183	0.295	0.502	0.004
Mof_C 	C 	0.122	0.3	0.561	-0.058
Mof_C 	C 	0.4328	0.5276	0.4682	0.024
Mof_C 	C 	0.5548	0.5216	0.4772	0.146
Mof_C 	C 	0.666	0.575	0.425	-0.099
Mof_C 	C 	0.6552	0.6344	0.3638	-0.083
Mof_C 	C 	0.5332	0.6407	0.3551	0.103
Mof_C 	C 	0.423	0.587	0.407	-0.063
Mof_C 	C 	0.301	0.593	0.398	0.04
Mof_C 	C 	0.291	0.653	0.338	-0.168
Mof_C 	C 	0.401	0.706	0.286	0.205
Mof_C 	C 	0.5233	0.7006	0.2947	-0.197
Mof_C 	C 	0.8259	0.7509	0.3162	-0.299
Mof_C 	C 	0.7726	0.6902	0.3104	0.209
Mof_C 	C 	0.8302	0.6824	0.2528	-0.309
Mof_C 	C 	0.9422	0.7352	0.2006	0.32
Mof_C 	C 	0.9955	0.7955	0.206	-0.533
Mof_C 	C 	0.9378	0.8033	0.2639	0.321
Mof_C 	C 	0.65	0.448	0.559	0.109
Mof_C 	C 	0.907	0.413	0.596	-0.126
Mof_C 	C 	0.843	0.373	0.571	0.029
Mof_C 	C 	0.781	0.402	0.519	-0.106
Mof_C 	C 	0.778	0.476	0.491	0.046
Mof_C 	C 	0.842	0.517	0.517	-0.115
Mof_C 	C 	0.907	0.487	0.568	0.035
Mof_C 	C 	0.449	0.55	0.583	0.239
Mof_C 	C 	0.575	0.605	0.62	-0.057
Mof_C 	C 	0.463	0.615	0.606	-0.024
Mof_C 	C 	0.346	0.572	0.662	-0.04
Mof_C 	C 	0.35	0.52	0.73	-0.02
Mof_C 	C 	0.462	0.509	0.743	-0.047
Mof_C 	C 	0.581	0.553	0.688	-0.025
Mof_C 	C 	0.755	0.755	-0	-0.172
Mof_C 	C 	0.676	0.7	0.996	0.113
Mof_C 	C 	0.5485	0.6986	0.9961	-0.16
Mof_C 	C 	0.4994	0.7529	0.9997	0.103
Mof_C 	C 	0.5776	0.8084	0.0036	-0.139
Mof_C 	C 	0.706	0.81	0.004	0.081
Mof_C 	C 	0.5043	0.8679	0.001	0.442
Mof_C 	C 	0.255	0.16	0.999	0.842
Mof_C 	C 	0.855	0.525	0.001	-0.155
Mof_C 	C 	0.852	0.584	0.937	0.378
Mof_C 	C 	0.793	0.636	0.941	-0.212
Mof_C 	C 	0.736	0.628	0.008	0.008
Mof_C 	C 	0.739	0.569	0.072	-0.021
Mof_C 	C 	0.798	0.5174	0.0684	0.084
Mof_C 	C 	0.801	0.458	0.132	-0.084
Mof_C 	C 	0.745	0.45	0.199	-0.035
Mof_C 	C 	0.685	0.502	0.203	0.01
Mof_C 	C 	0.683	0.561	0.139	-0.067
Mof_C 	C 	0.901	0.4682	0.0042	0.031
Mof_C 	C 	0.032	0.4772	0.0012	0.156
Mof_C 	C 	0.091	0.425	-0	-0.126
Mof_C 	C 	0.019	0.3638	0.0018	-0.126
Mof_C 	C 	0.8883	0.3551	0.0042	0.124
Mof_C 	C 	0.83	0.407	0.006	-0.074
Mof_C 	C 	0.699	0.398	0.009	0.043
Mof_C 	C 	0.629	0.338	0.009	-0.169
Mof_C 	C 	0.687	0.286	0.008	0.193
Mof_C 	C 	0.818	0.2947	0.0047	-0.207
Mof_C 	C 	0.1421	0.3162	0.9329	-0.35
Mof_C 	C 	0.083	0.3104	0.9994	0.284
Mof_C 	C 	0.083	0.2528	0.0648	-0.381
Mof_C 	C 	0.1428	0.2006	0.0642	0.353
Mof_C 	C 	0.2015	0.206	0.9985	-0.588
Mof_C 	C 	0.2017	0.2639	0.9328	0.371
Mof_C 	C 	0.209	0.559	0.993	0.249
Mof_C 	C 	0.503	0.596	0.991	-0.027
Mof_C 	C 	0.414	0.571	0.056	-0.075
Mof_C 	C 	0.3	0.519	0.079	-0.03
Mof_C 	C 	0.269	0.491	0.033	-0.05
Mof_C 	C 	0.359	0.517	0.966	-0.028
Mof_C 	C 	0.475	0.568	0.945	-0.039
Mof_C 	C 	0.032	0.583	0.867	0.206
Mof_C 	C 	0.195	0.62	0.775	-0.071
Mof_C 	C 	0.069	0.606	0.779	-0.005
Mof_C 	C 	0.008	0.662	0.766	-0.078
Mof_C 	C 	0.08	0.73	0.75	0.006
Mof_C 	C 	0.205	0.743	0.748	-0.065
Mof_C 	C 	0.269	0.688	0.759	-0.011
Mof_Cl	Cl	0.578	0.995	0.795	-0.33
Mof_Cl	Cl	0.373	0.795	0.21	-0.358
Mof_Cl	Cl	0.583	0.21	0.995	-0.336
Mof_O 	O 	0.3982	0.0003	0.1427	-0.538
Mof_O 	O 	0.5854	0.9995	0.0813	-0.473
Mof_O 	O 	0.2493	0.1016	0.0517	-0.613
Mof_O 	O 	0.3018	0.1544	0.947	-0.593
Mof_O 	O 	0.116	0.018	0.461	-0.307
Mof_O 	O 	0.829	0.892	0.512	-0.405
Mof_O 	O 	0.5409	0.1427	0.857	-0.532
Mof_O 	O 	0.6667	0.0813	0.9192	-0.492
Mof_O 	O 	0.301	0.0517	0.8467	-0.604
Mof_O 	O 	0.2488	0.947	0.8986	-0.582
Mof_O 	O 	0.577	0.461	0.521	-0.255
Mof_O 	O 	0.341	0.512	0.596	-0.405
Mof_O 	O 	0.3979	0.857	0.0003	-0.533
Mof_O 	O 	0.5859	0.9192	0.9995	-0.457
Mof_O 	O 	0.1477	0.8467	0.1016	-0.578
Mof_O 	O 	0.1474	0.8986	0.1544	-0.573
Mof_O 	O 	0.098	0.521	0.018	-0.309
Mof_O 	O 	0.937	0.596	0.892	-0.38
Mof_O 	O 	0.36467	0	-0	-0.968
_end
