data_functionalizedCrystal
_audit_creation_method	'EQeq! by Chris Wilmer'
_symmetry_space_group_name_H-M	'P1'
_symmetry_Int_Tables_number	1
_symmetry_cell_setting	triclinic
loop_
_symmetry_equiv_pos_as_xyz
  x,y,z
_cell_length_a	8.464
_cell_length_b	9.324
_cell_length_c	12.882
_cell_angle_alpha	90
_cell_angle_beta	105.466
_cell_angle_gamma	90
loop_
_atom_site_label
_atom_site_type_symbol
_atom_site_fract_x
_atom_site_fract_y
_atom_site_fract_z
_atom_site_charge
Mof_Mn	Mn	0.25567	0.74878	0.00907	0.79
Mof_N 	N 	0.3192	0.7965	0.18576	-0.12
Mof_N 	N 	0.26524	0.79781	0.26021	-0.019
Mof_N 	N 	0.2122	0.8039	0.33465	-0.121
Mof_N 	N 	0.0418	0.61941	0.01519	-0.125
Mof_N 	N 	0.1037	0.94455	0.97035	-0.127
Mof_N 	N 	0.47881	0.87657	0.00673	-0.123
Mof_N 	N 	0.4263	0.56029	0.05178	-0.117
Mof_Mn	Mn	0.74433	0.24878	0.49093	0.788
Mof_N 	N 	0.6808	0.2965	0.31424	-0.119
Mof_N 	N 	0.73476	0.29781	0.23979	-0.018
Mof_N 	N 	0.7878	0.3039	0.16535	-0.118
Mof_N 	N 	0.9582	0.11941	0.48481	-0.129
Mof_N 	N 	0.8963	0.44455	0.52965	-0.127
Mof_N 	N 	0.52119	0.37657	0.49327	-0.117
Mof_N 	N 	0.5737	0.06029	0.44822	-0.116
Mof_Mn	Mn	0.74433	0.25122	0.99093	0.781
Mof_N 	N 	0.6808	0.2035	0.81424	-0.12
Mof_N 	N 	0.73476	0.20219	0.73979	-0.019
Mof_N 	N 	0.7878	0.1961	0.66535	-0.121
Mof_N 	N 	0.9582	0.38059	0.98481	-0.133
Mof_N 	N 	0.8963	0.05545	0.02965	-0.12
Mof_N 	N 	0.52119	0.12343	0.99327	-0.122
Mof_N 	N 	0.5737	0.43971	0.94822	-0.12
Mof_Mn	Mn	0.25567	0.75122	0.50907	0.788
Mof_N 	N 	0.3192	0.7035	0.68576	-0.12
Mof_N 	N 	0.26524	0.70219	0.76021	-0.019
Mof_N 	N 	0.2122	0.6961	0.83465	-0.121
Mof_N 	N 	0.0418	0.88059	0.51519	-0.129
Mof_N 	N 	0.1037	0.55545	0.47035	-0.122
Mof_N 	N 	0.47881	0.62343	0.50673	-0.119
Mof_N 	N 	0.4263	0.93971	0.55178	-0.122
Mof_N 	N 	-0	0.5	-0	-0.016
Mof_N 	N 	-2.90073e-17	6.44091e-33	0.5	-0.014
Mof_N 	N 	-0	0	-0	-0.012
Mof_N 	N 	-2.90073e-17	0.5	0.5	-0.018
Mof_N 	N 	0.5	0	-0	-0.015
Mof_N 	N 	0.5	0.5	0.5	-0.026
Mof_N 	N 	0.5	0.5	-0	-0.022
Mof_N 	N 	0.5	6.44091e-33	0.5	-0.021
_end
