data_functionalizedCrystal
_audit_creation_method	'EQeq! by Chris Wilmer'
_symmetry_space_group_name_H-M	'P1'
_symmetry_Int_Tables_number	1
_symmetry_cell_setting	triclinic
loop_
_symmetry_equiv_pos_as_xyz
  x,y,z
_cell_length_a	13.9544
_cell_length_b	17.0179
_cell_length_c	17.0179
_cell_angle_alpha	67.1738
_cell_angle_beta	74.1376
_cell_angle_gamma	105.862
loop_
_atom_site_label
_atom_site_type_symbol
_atom_site_fract_x
_atom_site_fract_y
_atom_site_fract_z
_atom_site_charge
Mof_Ag	Ag	0.67598	0.87185	0.65966	0.622
Mof_Ag	Ag	0.33564	0.65966	0.46849	0.622
Mof_Ag	Ag	0.80413	0.46849	0.87185	0.622
Mof_Ag	Ag	0.32402	0.12815	0.34034	0.623
Mof_Ag	Ag	0.66436	0.34034	0.53151	0.623
Mof_Ag	Ag	0.19587	0.53151	0.12815	0.622
Mof_H 	H 	0.3885	0.0768	0.5218	0.064
Mof_H 	H 	0.5286	0.9722	0.6476	0.049
Mof_H 	H 	0.422	0.0605	0.6591	0.127
Mof_H 	H 	0.4797	0.1539	0.6619	0.095
Mof_H 	H 	0.5745	0.3957	0.3763	0.027
Mof_H 	H 	0.8462	0.0874	0.5633	0.02
Mof_H 	H 	0.846	0.2342	0.5211	0.051
Mof_H 	H 	0.4766	0.3224	0.3123	0.049
Mof_H 	H 	0.9103	0.5218	0.4014	0.063
Mof_H 	H 	0.1762	0.6476	0.3802	0.049
Mof_H 	H 	0.0811	0.6591	0.2804	0.127
Mof_H 	H 	0.1416	0.6619	0.1842	0.094
Mof_H 	H 	0.9508	0.3763	0.228	0.027
Mof_H 	H 	0.4095	0.5633	0.3493	0.02
Mof_H 	H 	0.3671	0.5211	0.2447	0.051
Mof_H 	H 	0.7889	0.3123	0.3653	0.049
Mof_H 	H 	0.3117	0.4014	0.0768	0.063
Mof_H 	H 	0.5564	0.3802	0.9722	0.049
Mof_H 	H 	0.3615	0.2804	0.0605	0.127
Mof_H 	H 	0.3258	0.1842	0.1539	0.095
Mof_H 	H 	0.1788	0.228	0.3957	0.026
Mof_H 	H 	0.7588	0.3493	0.0874	0.021
Mof_H 	H 	0.6118	0.2447	0.2342	0.051
Mof_H 	H 	0.1542	0.3653	0.3224	0.049
Mof_H 	H 	0.6115	0.9232	0.4782	0.064
Mof_H 	H 	0.4714	0.0278	0.3524	0.049
Mof_H 	H 	0.578	0.9395	0.3409	0.127
Mof_H 	H 	0.5203	0.8461	0.3381	0.095
Mof_H 	H 	0.4255	0.6043	0.6237	0.027
Mof_H 	H 	0.1538	0.9126	0.4367	0.02
Mof_H 	H 	0.154	0.7658	0.4789	0.051
Mof_H 	H 	0.5234	0.6776	0.6877	0.049
Mof_H 	H 	0.0897	0.4782	0.5986	0.063
Mof_H 	H 	0.8238	0.3524	0.6198	0.049
Mof_H 	H 	0.9189	0.3409	0.7196	0.127
Mof_H 	H 	0.8584	0.3381	0.8158	0.094
Mof_H 	H 	0.0492	0.6237	0.772	0.027
Mof_H 	H 	0.5905	0.4367	0.6507	0.02
Mof_H 	H 	0.6329	0.4789	0.7553	0.051
Mof_H 	H 	0.2111	0.6877	0.6347	0.049
Mof_H 	H 	0.6883	0.5986	0.9232	0.063
Mof_H 	H 	0.4436	0.6198	0.0278	0.049
Mof_H 	H 	0.6385	0.7196	0.9395	0.127
Mof_H 	H 	0.6742	0.8158	0.8461	0.095
Mof_H 	H 	0.8212	0.772	0.6043	0.026
Mof_H 	H 	0.2412	0.6507	0.9126	0.021
Mof_H 	H 	0.3882	0.7553	0.7658	0.051
Mof_H 	H 	0.8458	0.6347	0.6776	0.049
Mof_C 	C 	0.5885	0.1109	0.6057	0.134
Mof_C 	C 	0.4801	0.182	0.5325	0.137
Mof_C 	C 	0.4233	0.1435	0.4928	-0.051
Mof_C 	C 	0.5945	0.0265	0.623	-0.05
Mof_C 	C 	0.4855	0.1231	0.623	-0.291
Mof_C 	C 	0.5354	0.3289	0.4085	0.032
Mof_C 	C 	0.7785	0.0929	0.573	0.029
Mof_C 	C 	0.7781	0.1801	0.5504	0.01
Mof_C 	C 	0.4739	0.2844	0.3718	0.007
Mof_C 	C 	0.1942	0.6057	0.2834	0.133
Mof_C 	C 	0.0126	0.5325	0.2855	0.136
Mof_C 	C 	0.9161	0.4928	0.3637	-0.049
Mof_C 	C 	0.2175	0.623	0.3505	-0.05
Mof_C 	C 	0.1085	0.623	0.2539	-0.29
Mof_C 	C 	0.9439	0.4085	0.2626	0.033
Mof_C 	C 	0.3515	0.573	0.3341	0.029
Mof_C 	C 	0.3285	0.5504	0.2695	0.01
Mof_C 	C 	0.8457	0.3718	0.3438	0.007
Mof_C 	C 	0.4776	0.2834	0.1109	0.133
Mof_C 	C 	0.2981	0.2855	0.182	0.137
Mof_C 	C 	0.2798	0.3637	0.1435	-0.051
Mof_C 	C 	0.568	0.3505	0.0265	-0.049
Mof_C 	C 	0.3624	0.2539	0.1231	-0.29
Mof_C 	C 	0.2065	0.2626	0.3289	0.032
Mof_C 	C 	0.6856	0.3341	0.0929	0.029
Mof_C 	C 	0.598	0.2695	0.1801	0.01
Mof_C 	C 	0.1895	0.3438	0.2844	0.007
Mof_C 	C 	0.4115	0.8891	0.3943	0.134
Mof_C 	C 	0.5199	0.818	0.4675	0.137
Mof_C 	C 	0.5767	0.8565	0.5072	-0.051
Mof_C 	C 	0.4055	0.9735	0.377	-0.05
Mof_C 	C 	0.5145	0.8769	0.377	-0.291
Mof_C 	C 	0.4646	0.6711	0.5915	0.032
Mof_C 	C 	0.2215	0.9071	0.427	0.029
Mof_C 	C 	0.2219	0.8199	0.4496	0.01
Mof_C 	C 	0.5261	0.7156	0.6282	0.007
Mof_C 	C 	0.8058	0.3943	0.7166	0.133
Mof_C 	C 	0.9874	0.4675	0.7145	0.136
Mof_C 	C 	0.0839	0.5072	0.6363	-0.049
Mof_C 	C 	0.7825	0.377	0.6495	-0.05
Mof_C 	C 	0.8915	0.377	0.7461	-0.29
Mof_C 	C 	0.0561	0.5915	0.7374	0.033
Mof_C 	C 	0.6485	0.427	0.6659	0.029
Mof_C 	C 	0.6715	0.4496	0.7305	0.01
Mof_C 	C 	0.1543	0.6282	0.6562	0.007
Mof_C 	C 	0.5224	0.7166	0.8891	0.133
Mof_C 	C 	0.7019	0.7145	0.818	0.137
Mof_C 	C 	0.7202	0.6363	0.8565	-0.051
Mof_C 	C 	0.432	0.6495	0.9735	-0.049
Mof_C 	C 	0.6376	0.7461	0.8769	-0.29
Mof_C 	C 	0.7935	0.7374	0.6711	0.032
Mof_C 	C 	0.3144	0.6659	0.9071	0.029
Mof_C 	C 	0.402	0.7305	0.8199	0.01
Mof_C 	C 	0.8105	0.6562	0.7156	0.007
Mof_N 	N 	0.6889	0.0188	0.6066	-0.164
Mof_N 	N 	0.5373	0.2772	0.4867	-0.192
Mof_N 	N 	0.6843	0.1898	0.5691	-0.167
Mof_N 	N 	0.4144	0.1944	0.4159	-0.143
Mof_N 	N 	0.2955	0.6066	0.3746	-0.164
Mof_N 	N 	0.024	0.4867	0.2361	-0.192
Mof_N 	N 	0.2534	0.5691	0.2411	-0.167
Mof_N 	N 	0.8303	0.4159	0.3897	-0.143
Mof_N 	N 	0.6701	0.3746	0.0188	-0.163
Mof_N 	N 	0.2601	0.2361	0.2772	-0.192
Mof_N 	N 	0.4945	0.2411	0.1898	-0.167
Mof_N 	N 	0.22	0.3897	0.1944	-0.143
Mof_N 	N 	0.3111	0.9812	0.3934	-0.164
Mof_N 	N 	0.4627	0.7228	0.5133	-0.192
Mof_N 	N 	0.3157	0.8102	0.4309	-0.167
Mof_N 	N 	0.5856	0.8056	0.5841	-0.143
Mof_N 	N 	0.7045	0.3934	0.6254	-0.164
Mof_N 	N 	0.976	0.5133	0.7639	-0.192
Mof_N 	N 	0.7466	0.4309	0.7589	-0.167
Mof_N 	N 	0.1697	0.5841	0.6103	-0.143
Mof_N 	N 	0.3299	0.6254	0.9812	-0.163
Mof_N 	N 	0.7399	0.7639	0.7228	-0.192
Mof_N 	N 	0.5055	0.7589	0.8102	-0.167
Mof_N 	N 	0.78	0.6103	0.8056	-0.143
Mof_Cl	Cl	0.93636	0.68252	0.46874	-0.221
Mof_O 	O 	0.9681	0.768	0.471	-0.048
Mof_O 	O 	0.9837	0.6311	0.5165	-0.046
Mof_O 	O 	0.8218	0.6439	0.5173	-0.038
Mof_O 	O 	0.9565	0.701	0.3773	-0.044
Mof_Cl	Cl	0.4051	0.46874	0.84874	-0.221
Mof_O 	O 	0.4391	0.471	0.761	-0.047
Mof_O 	O 	0.5002	0.5165	0.8524	-0.046
Mof_O 	O 	0.3391	0.5173	0.8388	-0.037
Mof_O 	O 	0.3338	0.3773	0.9217	-0.044
Mof_Cl	Cl	0.25384	0.84874	0.68252	-0.221
Mof_O 	O 	0.2001	0.761	0.768	-0.047
Mof_O 	O 	0.3526	0.8524	0.6311	-0.046
Mof_O 	O 	0.1779	0.8388	0.6439	-0.037
Mof_O 	O 	0.2555	0.9217	0.701	-0.044
Mof_Cl	Cl	0.06364	0.31748	0.53126	-0.221
Mof_O 	O 	0.0319	0.232	0.529	-0.048
Mof_O 	O 	0.0163	0.3689	0.4835	-0.046
Mof_O 	O 	0.1782	0.3561	0.4827	-0.038
Mof_O 	O 	0.0435	0.299	0.6227	-0.044
Mof_Cl	Cl	0.5949	0.53126	0.15126	-0.221
Mof_O 	O 	0.5609	0.529	0.239	-0.047
Mof_O 	O 	0.4998	0.4835	0.1476	-0.046
Mof_O 	O 	0.6609	0.4827	0.1612	-0.037
Mof_O 	O 	0.6662	0.6227	0.0783	-0.044
Mof_Cl	Cl	0.74616	0.15126	0.31748	-0.221
Mof_O 	O 	0.7999	0.239	0.232	-0.047
Mof_O 	O 	0.6474	0.1476	0.3689	-0.046
Mof_O 	O 	0.8221	0.1612	0.3561	-0.037
Mof_O 	O 	0.7445	0.0783	0.299	-0.044
_end
