data_functionalizedCrystal
_audit_creation_method	'EQeq! by Chris Wilmer'
_symmetry_space_group_name_H-M	'P1'
_symmetry_Int_Tables_number	1
_symmetry_cell_setting	triclinic
loop_
_symmetry_equiv_pos_as_xyz
  x,y,z
_cell_length_a	15.385
_cell_length_b	6.726
_cell_length_c	14.241
_cell_angle_alpha	90
_cell_angle_beta	90
_cell_angle_gamma	90
loop_
_atom_site_label
_atom_site_type_symbol
_atom_site_fract_x
_atom_site_fract_y
_atom_site_fract_z
_atom_site_charge
Mof_O 	O 	0.1466	0.5858	0.6402	-0.861
Mof_O 	O 	0.2103	0.5901	0.25	-1.032
Mof_O 	O 	0.3168	0.069	0.5691	-0.802
Mof_H 	H 	0.3153	0.9563	0.5909	0.42
Mof_H 	H 	0.2904	0.9019	0.5603	-0.268
Mof_O 	O 	0.2922	0.011	0.535	0.025
Mof_O 	O 	0.3534	0.4142	0.1402	-0.862
Mof_O 	O 	0.2897	0.4099	0.75	-1.028
Mof_O 	O 	0.1832	0.931	0.0691	-0.966
Mof_H 	H 	0.1847	0.0437	0.0909	0.512
Mof_H 	H 	0.2096	0.0981	0.0603	-0.382
Mof_O 	O 	0.2078	0.989	0.035	0.198
Mof_O 	O 	0.8534	0.0858	0.3598	-0.86
Mof_O 	O 	0.7897	0.0901	0.75	-1.027
Mof_O 	O 	0.6832	0.569	0.4309	-0.923
Mof_H 	H 	0.6847	0.4563	0.4091	0.492
Mof_H 	H 	0.7096	0.4019	0.4397	-0.348
Mof_O 	O 	0.7078	0.511	0.465	0.143
Mof_O 	O 	0.6466	0.9142	0.8598	-0.866
Mof_O 	O 	0.7103	0.9099	0.25	-1.027
Mof_O 	O 	0.8168	0.431	0.9309	-0.809
Mof_H 	H 	0.8153	0.5437	0.9091	0.427
Mof_H 	H 	0.7904	0.5981	0.9397	-0.272
Mof_O 	O 	0.7922	0.489	0.965	0.035
Mof_O 	O 	0.8534	0.4142	0.3598	-0.86
Mof_O 	O 	0.7897	0.4099	0.75	-1.031
Mof_O 	O 	0.6832	0.931	0.4309	-0.801
Mof_H 	H 	0.6847	0.0437	0.4091	0.421
Mof_H 	H 	0.7096	0.0981	0.4397	-0.267
Mof_O 	O 	0.7078	0.989	0.465	0.026
Mof_O 	O 	0.6466	0.5858	0.8598	-0.862
Mof_O 	O 	0.7103	0.5901	0.25	-1.028
Mof_O 	O 	0.8168	0.069	0.9309	-0.966
Mof_H 	H 	0.8153	0.9563	0.9091	0.512
Mof_H 	H 	0.7904	0.9019	0.9397	-0.382
Mof_O 	O 	0.7922	0.011	0.965	0.198
Mof_O 	O 	0.1466	0.9142	0.6402	-0.86
Mof_O 	O 	0.2103	0.9099	0.25	-1.027
Mof_O 	O 	0.3168	0.431	0.5691	-0.923
Mof_H 	H 	0.3153	0.5437	0.5909	0.492
Mof_H 	H 	0.2904	0.5981	0.5603	-0.348
Mof_O 	O 	0.2922	0.489	0.535	0.143
Mof_O 	O 	0.3534	0.0858	0.1402	-0.866
Mof_O 	O 	0.2897	0.0901	0.75	-1.027
Mof_O 	O 	0.1832	0.569	0.0691	-0.809
Mof_H 	H 	0.1847	0.4563	0.0909	0.427
Mof_H 	H 	0.2096	0.4019	0.0603	-0.272
Mof_O 	O 	0.2078	0.511	0.035	0.035
Mof_C 	C 	0.9278	0.75	0.5677	0.397
Mof_C 	C 	0.9975	0.75	0.4931	-0.032
Mof_C 	C 	0.0855	0.75	0.5085	-0.093
Mof_C 	C 	0.1285	0.75	0.6045	0.54
Mof_C 	C 	0.1764	0.75	0.2734	0.698
Mof_C 	C 	0.1088	0.75	0.3477	-0.243
Mof_C 	C 	0.0211	0.75	0.333	0.023
Mof_C 	C 	0.9747	0.75	0.2373	0.309
Mof_N 	N 	0.9667	0.75	0.4045	-0.25
Mof_N 	N 	0.1422	0.75	0.4374	-0.171
Mof_O 	O 	0.8486	0.75	0.5359	-0.883
Mof_O 	O 	0.9502	0.75	0.6505	-0.506
Mof_O 	O 	0.0214	0.75	0.1658	-0.39
Mof_O 	O 	0.8933	0.75	0.2384	-0.699
Mof_C 	C 	0.5722	0.25	0.0677	0.392
Mof_C 	C 	0.5025	0.25	0.9931	-0.023
Mof_C 	C 	0.4145	0.25	0.0085	-0.102
Mof_C 	C 	0.3715	0.25	0.1045	0.545
Mof_C 	C 	0.3236	0.25	0.7734	0.695
Mof_C 	C 	0.3912	0.25	0.8477	-0.241
Mof_C 	C 	0.4789	0.25	0.833	0.016
Mof_C 	C 	0.5253	0.25	0.7373	0.321
Mof_N 	N 	0.5333	0.25	0.9045	-0.249
Mof_N 	N 	0.3578	0.25	0.9374	-0.17
Mof_O 	O 	0.6514	0.25	0.0359	-0.887
Mof_O 	O 	0.5498	0.25	0.1505	-0.505
Mof_O 	O 	0.4786	0.25	0.6658	-0.398
Mof_O 	O 	0.6067	0.25	0.7384	-0.702
Mof_C 	C 	0.0722	0.25	0.4323	0.397
Mof_C 	C 	0.0025	0.25	0.5069	-0.032
Mof_C 	C 	0.9145	0.25	0.4915	-0.093
Mof_C 	C 	0.8715	0.25	0.3955	0.54
Mof_C 	C 	0.8236	0.25	0.7266	0.698
Mof_C 	C 	0.8912	0.25	0.6523	-0.243
Mof_C 	C 	0.9789	0.25	0.667	0.023
Mof_C 	C 	0.0253	0.25	0.7627	0.309
Mof_N 	N 	0.0333	0.25	0.5955	-0.25
Mof_N 	N 	0.8578	0.25	0.5626	-0.171
Mof_O 	O 	0.1514	0.25	0.4641	-0.883
Mof_O 	O 	0.0498	0.25	0.3495	-0.506
Mof_O 	O 	0.9786	0.25	0.8342	-0.39
Mof_O 	O 	0.1067	0.25	0.7616	-0.699
Mof_C 	C 	0.4278	0.75	0.9323	0.392
Mof_C 	C 	0.4975	0.75	0.0069	-0.023
Mof_C 	C 	0.5855	0.75	0.9915	-0.102
Mof_C 	C 	0.6285	0.75	0.8955	0.545
Mof_C 	C 	0.6764	0.75	0.2266	0.695
Mof_C 	C 	0.6088	0.75	0.1523	-0.241
Mof_C 	C 	0.5211	0.75	0.167	0.016
Mof_C 	C 	0.4747	0.75	0.2627	0.321
Mof_N 	N 	0.4667	0.75	0.0955	-0.249
Mof_N 	N 	0.6422	0.75	0.0626	-0.17
Mof_O 	O 	0.3486	0.75	0.9641	-0.887
Mof_O 	O 	0.4502	0.75	0.8495	-0.505
Mof_O 	O 	0.5214	0.75	0.3342	-0.398
Mof_O 	O 	0.3933	0.75	0.2616	-0.702
Mof_Eu	Eu	0.19677	0.25	0.62385	2.512
Mof_K 	K 	0.2683	0.25	0.3101	3.831
Mof_Eu	Eu	0.30323	0.75	0.12385	2.527
Mof_K 	K 	0.2317	0.75	0.8101	3.816
Mof_Eu	Eu	0.80323	0.75	0.37615	2.512
Mof_K 	K 	0.7317	0.75	0.6899	3.831
Mof_Eu	Eu	0.69677	0.25	0.87615	2.527
Mof_K 	K 	0.7683	0.25	0.1899	3.816
_end
