data_functionalizedCrystal
_audit_creation_method	'EQeq! by Chris Wilmer'
_symmetry_space_group_name_H-M	'P1'
_symmetry_Int_Tables_number	1
_symmetry_cell_setting	triclinic
loop_
_symmetry_equiv_pos_as_xyz
  x,y,z
_cell_length_a	9.1422
_cell_length_b	25.938
_cell_length_c	20.301
_cell_angle_alpha	90
_cell_angle_beta	101.89
_cell_angle_gamma	90
loop_
_atom_site_label
_atom_site_type_symbol
_atom_site_fract_x
_atom_site_fract_y
_atom_site_fract_z
_atom_site_charge
Mof_Zn	Zn	0.27152	0.62215	0.51487	1.209
Mof_O 	O 	0.4539	0.66297	0.52207	-0.462
Mof_O 	O 	0.6066	0.6162	0.47388	-0.293
Mof_O 	O 	0.5023	0.28215	0.8193	-0.243
Mof_O 	O 	0.1677	0.62861	0.4208	-0.457
Mof_N 	N 	0.3286	0.1721	0.92995	-0.291
Mof_O 	O 	0.4861	0.42654	0.67483	-0.249
Mof_O 	O 	0.1149	0.54587	0.42751	-0.327
Mof_N 	N 	0.3288	0.55663	0.56617	-0.301
Mof_C 	C 	0.4403	0.24744	0.85559	0.294
Mof_C 	C 	0.4081	0.32392	0.78873	0.019
Mof_H 	H 	0.3759	0.3445	0.8231	0.045
Mof_H 	H 	0.3201	0.3105	0.7585	0.039
Mof_C 	C 	0.6293	0.74903	0.531	-0.073
Mof_H 	H 	0.5484	0.7482	0.5522	0.07
Mof_C 	C 	0.5702	0.65741	0.49744	0.356
Mof_C 	C 	0.0271	0.63263	0.2842	-0.019
Mof_H 	H 	0.0453	0.6638	0.3072	0.04
Mof_C 	C 	0.3184	0.25809	0.8835	-0.285
Mof_H 	H 	0.2716	0.2901	0.8777	0.14
Mof_C 	C 	0.449	0.16318	0.9024	0.156
Mof_H 	H 	0.4947	0.131	0.909	-0.04
Mof_C 	C 	0.1161	0.5857	0.3945	0.33
Mof_C 	C 	0.4261	0.46759	0.63898	0.298
Mof_C 	C 	0.6652	0.70465	0.49898	-0.105
Mof_C 	C 	0.7891	0.70529	0.4678	0.131
Mof_C 	C 	0.0554	0.58578	0.31988	-0.118
Mof_C 	C 	0.5071	0.19909	0.8653	-0.276
Mof_H 	H 	0.5897	0.1913	0.847	0.14
Mof_C 	C 	0.5282	0.50115	0.6192	-0.266
Mof_H 	H 	0.6301	0.4942	0.63	0.134
Mof_C 	C 	0.4758	0.54453	0.5835	0.141
Mof_H 	H 	0.5446	0.5668	0.5706	-0.025
Mof_C 	C 	0.2747	0.47899	0.6206	-0.281
Mof_H 	H 	0.2036	0.4572	0.6324	0.138
Mof_C 	C 	0.2323	0.52354	0.5843	0.163
Mof_H 	H 	0.1308	0.5309	0.5718	-0.037
Mof_C 	C 	0.3917	0.39088	0.70068	0.028
Mof_H 	H 	0.3333	0.3704	0.6646	0.029
Mof_H 	H 	0.3241	0.409	0.7238	0.037
Mof_C 	C 	0.2681	0.21988	0.9203	0.145
Mof_H 	H 	0.1872	0.2274	0.94	-0.03
Mof_C 	C 	0.0277	0.53884	0.285	0.082
Mof_N 	N 	0.8391	0.6629	0.4379	-0.308
Mof_H 	H 	0.7707	0.6394	0.4303	0.17
Mof_H 	H 	0.8599	0.6722	0.4	0.145
Mof_N 	N 	0.0528	0.4904	0.3087	-0.287
Mof_H 	H 	0.1296	0.4903	0.3416	0.151
Mof_H 	H 	0.9761	0.4793	0.3231	0.147
Mof_Zn	Zn	0.77152	0.12215	0.51487	1.208
Mof_O 	O 	0.9539	0.16297	0.52207	-0.463
Mof_O 	O 	0.1066	0.1162	0.47388	-0.294
Mof_O 	O 	0.0023	0.78215	0.8193	-0.243
Mof_O 	O 	0.6677	0.12861	0.4208	-0.458
Mof_N 	N 	0.8286	0.6721	0.92995	-0.291
Mof_O 	O 	0.9861	0.92654	0.67483	-0.25
Mof_O 	O 	0.6149	0.04587	0.42751	-0.328
Mof_N 	N 	0.8288	0.05663	0.56617	-0.302
Mof_C 	C 	0.9403	0.74744	0.85559	0.29
Mof_C 	C 	0.9081	0.82392	0.78873	0.016
Mof_H 	H 	0.8759	0.8445	0.8231	0.045
Mof_H 	H 	0.8201	0.8105	0.7585	0.038
Mof_C 	C 	0.1293	0.24903	0.531	-0.073
Mof_H 	H 	0.0484	0.2482	0.5522	0.07
Mof_C 	C 	0.0702	0.15741	0.49744	0.356
Mof_C 	C 	0.5271	0.13263	0.2842	-0.017
Mof_H 	H 	0.5453	0.1638	0.3072	0.039
Mof_C 	C 	0.8184	0.75809	0.8835	-0.283
Mof_H 	H 	0.7716	0.7901	0.8777	0.139
Mof_C 	C 	0.949	0.66318	0.9024	0.154
Mof_H 	H 	0.9947	0.631	0.909	-0.04
Mof_C 	C 	0.6161	0.0857	0.3945	0.33
Mof_C 	C 	0.9261	0.96759	0.63898	0.298
Mof_C 	C 	0.1652	0.20465	0.49898	-0.106
Mof_C 	C 	0.2891	0.20529	0.4678	0.131
Mof_C 	C 	0.5554	0.08578	0.31988	-0.119
Mof_C 	C 	0.0071	0.69909	0.8653	-0.273
Mof_H 	H 	0.0897	0.6913	0.847	0.139
Mof_C 	C 	0.0282	0.00115	0.6192	-0.266
Mof_H 	H 	0.1301	0.9942	0.63	0.135
Mof_C 	C 	0.9758	0.04453	0.5835	0.141
Mof_H 	H 	0.0446	0.0668	0.5706	-0.025
Mof_C 	C 	0.7747	0.97899	0.6206	-0.281
Mof_H 	H 	0.7036	0.9572	0.6324	0.138
Mof_C 	C 	0.7323	0.02354	0.5843	0.163
Mof_H 	H 	0.6308	0.0309	0.5718	-0.037
Mof_C 	C 	0.8917	0.89088	0.70068	0.028
Mof_H 	H 	0.8333	0.8704	0.6646	0.029
Mof_H 	H 	0.8241	0.909	0.7238	0.037
Mof_C 	C 	0.7681	0.71988	0.9203	0.144
Mof_H 	H 	0.6872	0.7274	0.94	-0.029
Mof_C 	C 	0.5277	0.03884	0.285	0.083
Mof_N 	N 	0.3391	0.1629	0.4379	-0.308
Mof_H 	H 	0.2707	0.1394	0.4303	0.17
Mof_H 	H 	0.3599	0.1722	0.4	0.145
Mof_N 	N 	0.5528	0.9904	0.3087	-0.287
Mof_H 	H 	0.6296	0.9903	0.3416	0.151
Mof_H 	H 	0.4761	0.9793	0.3231	0.147
Mof_Zn	Zn	0.72848	0.62215	0.98513	1.208
Mof_O 	O 	0.5461	0.66297	0.97793	-0.463
Mof_O 	O 	0.3934	0.6162	0.02612	-0.294
Mof_O 	O 	0.4977	0.28215	0.6807	-0.244
Mof_O 	O 	0.8323	0.62861	0.0792	-0.458
Mof_N 	N 	0.6714	0.1721	0.57005	-0.292
Mof_O 	O 	0.5139	0.42654	0.82517	-0.25
Mof_O 	O 	0.8851	0.54587	0.07249	-0.327
Mof_N 	N 	0.6712	0.55663	0.93383	-0.302
Mof_C 	C 	0.5597	0.24744	0.64441	0.293
Mof_C 	C 	0.5919	0.32392	0.71127	0.018
Mof_H 	H 	0.6241	0.3445	0.6769	0.044
Mof_H 	H 	0.6799	0.3105	0.7415	0.038
Mof_C 	C 	0.3707	0.74903	0.969	-0.072
Mof_H 	H 	0.4516	0.7482	0.9478	0.07
Mof_C 	C 	0.4298	0.65741	0.00256	0.357
Mof_C 	C 	0.9729	0.63263	0.2158	-0.016
Mof_H 	H 	0.9547	0.6638	0.1928	0.039
Mof_C 	C 	0.6816	0.25809	0.6165	-0.285
Mof_H 	H 	0.7284	0.2901	0.6223	0.14
Mof_C 	C 	0.551	0.16318	0.5976	0.157
Mof_H 	H 	0.5053	0.131	0.591	-0.04
Mof_C 	C 	0.8839	0.5857	0.1055	0.33
Mof_C 	C 	0.5739	0.46759	0.86102	0.298
Mof_C 	C 	0.3348	0.70465	0.00102	-0.106
Mof_C 	C 	0.2109	0.70529	0.0322	0.132
Mof_C 	C 	0.9446	0.58578	0.18012	-0.119
Mof_C 	C 	0.4929	0.19909	0.6347	-0.276
Mof_H 	H 	0.4103	0.1913	0.653	0.14
Mof_C 	C 	0.4718	0.50115	0.8808	-0.265
Mof_H 	H 	0.3699	0.4942	0.87	0.134
Mof_C 	C 	0.5242	0.54453	0.9165	0.141
Mof_H 	H 	0.4554	0.5668	0.9294	-0.025
Mof_C 	C 	0.7253	0.47899	0.8794	-0.28
Mof_H 	H 	0.7964	0.4572	0.8676	0.137
Mof_C 	C 	0.7677	0.52354	0.9157	0.163
Mof_H 	H 	0.8692	0.5309	0.9282	-0.037
Mof_C 	C 	0.6083	0.39088	0.79932	0.028
Mof_H 	H 	0.6667	0.3704	0.8354	0.029
Mof_H 	H 	0.6759	0.409	0.7762	0.037
Mof_C 	C 	0.7319	0.21988	0.5797	0.145
Mof_H 	H 	0.8128	0.2274	0.56	-0.03
Mof_C 	C 	0.9723	0.53884	0.215	0.084
Mof_N 	N 	0.1609	0.6629	0.0621	-0.308
Mof_H 	H 	0.2293	0.6394	0.0697	0.17
Mof_H 	H 	0.1401	0.6722	0.1	0.145
Mof_N 	N 	0.9472	0.4904	0.1913	-0.287
Mof_H 	H 	0.8704	0.4903	0.1584	0.151
Mof_H 	H 	0.0239	0.4793	0.1769	0.146
Mof_Zn	Zn	0.22848	0.12215	0.98513	1.209
Mof_O 	O 	0.0461	0.16297	0.97793	-0.463
Mof_O 	O 	0.8934	0.1162	0.02612	-0.293
Mof_O 	O 	0.9977	0.78215	0.6807	-0.245
Mof_O 	O 	0.3323	0.12861	0.0792	-0.458
Mof_N 	N 	0.1714	0.6721	0.57005	-0.292
Mof_O 	O 	0.0139	0.92654	0.82517	-0.251
Mof_O 	O 	0.3851	0.04587	0.07249	-0.328
Mof_N 	N 	0.1712	0.05663	0.93383	-0.302
Mof_C 	C 	0.0597	0.74744	0.64441	0.293
Mof_C 	C 	0.0919	0.82392	0.71127	0.018
Mof_H 	H 	0.1241	0.8445	0.6769	0.044
Mof_H 	H 	0.1799	0.8105	0.7415	0.038
Mof_C 	C 	0.8707	0.24903	0.969	-0.075
Mof_H 	H 	0.9516	0.2482	0.9478	0.071
Mof_C 	C 	0.9298	0.15741	0.00256	0.357
Mof_C 	C 	0.4729	0.13263	0.2158	-0.017
Mof_H 	H 	0.4547	0.1638	0.1928	0.04
Mof_C 	C 	0.1816	0.75809	0.6165	-0.285
Mof_H 	H 	0.2284	0.7901	0.6223	0.14
Mof_C 	C 	0.051	0.66318	0.5976	0.157
Mof_H 	H 	0.0053	0.631	0.591	-0.04
Mof_C 	C 	0.3839	0.0857	0.1055	0.33
Mof_C 	C 	0.0739	0.96759	0.86102	0.301
Mof_C 	C 	0.8348	0.20465	0.00102	-0.104
Mof_C 	C 	0.7109	0.20529	0.0322	0.131
Mof_C 	C 	0.4446	0.08578	0.18012	-0.119
Mof_C 	C 	0.9929	0.69909	0.6347	-0.278
Mof_H 	H 	0.9103	0.6913	0.653	0.14
Mof_C 	C 	0.9718	0.00115	0.8808	-0.271
Mof_H 	H 	0.8699	0.9942	0.87	0.136
Mof_C 	C 	0.0242	0.04453	0.9165	0.145
Mof_H 	H 	0.9554	0.0668	0.9294	-0.027
Mof_C 	C 	0.2253	0.97899	0.8794	-0.282
Mof_H 	H 	0.2964	0.9572	0.8676	0.138
Mof_C 	C 	0.2677	0.02354	0.9157	0.164
Mof_H 	H 	0.3692	0.0309	0.9282	-0.038
Mof_C 	C 	0.1083	0.89088	0.79932	0.028
Mof_H 	H 	0.1667	0.8704	0.8354	0.029
Mof_H 	H 	0.1759	0.909	0.7762	0.037
Mof_C 	C 	0.2319	0.71988	0.5797	0.145
Mof_H 	H 	0.3128	0.7274	0.56	-0.03
Mof_C 	C 	0.4723	0.03884	0.215	0.083
Mof_N 	N 	0.6609	0.1629	0.0621	-0.308
Mof_H 	H 	0.7293	0.1394	0.0697	0.17
Mof_H 	H 	0.6401	0.1722	0.1	0.145
Mof_N 	N 	0.4472	0.9904	0.1913	-0.287
Mof_H 	H 	0.3704	0.9903	0.1584	0.15
Mof_H 	H 	0.5239	0.9793	0.1769	0.147
Mof_Zn	Zn	0.72848	0.37785	0.48513	1.208
Mof_O 	O 	0.5461	0.33703	0.47793	-0.463
Mof_O 	O 	0.3934	0.3838	0.52612	-0.294
Mof_O 	O 	0.4977	0.71785	0.1807	-0.244
Mof_O 	O 	0.8323	0.37139	0.5792	-0.458
Mof_N 	N 	0.6714	0.8279	0.07005	-0.292
Mof_O 	O 	0.5139	0.57346	0.32517	-0.25
Mof_O 	O 	0.8851	0.45413	0.57249	-0.328
Mof_N 	N 	0.6712	0.44337	0.43383	-0.302
Mof_C 	C 	0.5597	0.75256	0.14441	0.293
Mof_C 	C 	0.5919	0.67608	0.21127	0.018
Mof_H 	H 	0.6241	0.6555	0.1769	0.044
Mof_H 	H 	0.6799	0.6895	0.2415	0.038
Mof_C 	C 	0.3707	0.25097	0.469	-0.073
Mof_H 	H 	0.4516	0.2518	0.4478	0.07
Mof_C 	C 	0.4298	0.34259	0.50256	0.356
Mof_C 	C 	0.9729	0.36737	0.7158	-0.019
Mof_H 	H 	0.9547	0.3362	0.6928	0.04
Mof_C 	C 	0.6816	0.74191	0.1165	-0.285
Mof_H 	H 	0.7284	0.7099	0.1223	0.14
Mof_C 	C 	0.551	0.83682	0.0976	0.156
Mof_H 	H 	0.5053	0.869	0.091	-0.04
Mof_C 	C 	0.8839	0.4143	0.6055	0.33
Mof_C 	C 	0.5739	0.53241	0.36102	0.298
Mof_C 	C 	0.3348	0.29535	0.50102	-0.105
Mof_C 	C 	0.2109	0.29471	0.5322	0.131
Mof_C 	C 	0.9446	0.41422	0.68012	-0.118
Mof_C 	C 	0.4929	0.80091	0.1347	-0.276
Mof_H 	H 	0.4103	0.8087	0.153	0.14
Mof_C 	C 	0.4718	0.49885	0.3808	-0.266
Mof_H 	H 	0.3699	0.5058	0.37	0.134
Mof_C 	C 	0.5242	0.45547	0.4165	0.141
Mof_H 	H 	0.4554	0.4332	0.4294	-0.025
Mof_C 	C 	0.7253	0.52101	0.3794	-0.281
Mof_H 	H 	0.7964	0.5428	0.3676	0.138
Mof_C 	C 	0.7677	0.47646	0.4157	0.163
Mof_H 	H 	0.8692	0.4691	0.4282	-0.037
Mof_C 	C 	0.6083	0.60912	0.29932	0.028
Mof_H 	H 	0.6667	0.6296	0.3354	0.029
Mof_H 	H 	0.6759	0.591	0.2762	0.037
Mof_C 	C 	0.7319	0.78012	0.0797	0.145
Mof_H 	H 	0.8128	0.7726	0.06	-0.03
Mof_C 	C 	0.9723	0.46116	0.715	0.083
Mof_N 	N 	0.1609	0.3371	0.5621	-0.308
Mof_H 	H 	0.2293	0.3606	0.5697	0.17
Mof_H 	H 	0.1401	0.3278	0.6	0.145
Mof_N 	N 	0.9472	0.5096	0.6913	-0.287
Mof_H 	H 	0.8704	0.5097	0.6584	0.151
Mof_H 	H 	0.0239	0.5207	0.6769	0.147
Mof_Zn	Zn	0.22848	0.87785	0.48513	1.208
Mof_O 	O 	0.0461	0.83703	0.47793	-0.463
Mof_O 	O 	0.8934	0.8838	0.52612	-0.294
Mof_O 	O 	0.9977	0.21785	0.1807	-0.243
Mof_O 	O 	0.3323	0.87139	0.5792	-0.458
Mof_N 	N 	0.1714	0.3279	0.07005	-0.291
Mof_O 	O 	0.0139	0.07346	0.32517	-0.25
Mof_O 	O 	0.3851	0.95413	0.57249	-0.328
Mof_N 	N 	0.1712	0.94337	0.43383	-0.301
Mof_C 	C 	0.0597	0.25256	0.14441	0.289
Mof_C 	C 	0.0919	0.17608	0.21127	0.017
Mof_H 	H 	0.1241	0.1555	0.1769	0.044
Mof_H 	H 	0.1799	0.1895	0.2415	0.038
Mof_C 	C 	0.8707	0.75097	0.469	-0.073
Mof_H 	H 	0.9516	0.7518	0.4478	0.07
Mof_C 	C 	0.9298	0.84259	0.50256	0.356
Mof_C 	C 	0.4729	0.86737	0.7158	-0.017
Mof_H 	H 	0.4547	0.8362	0.6928	0.039
Mof_C 	C 	0.1816	0.24191	0.1165	-0.283
Mof_H 	H 	0.2284	0.2099	0.1223	0.139
Mof_C 	C 	0.051	0.33682	0.0976	0.154
Mof_H 	H 	0.0053	0.369	0.091	-0.039
Mof_C 	C 	0.3839	0.9143	0.6055	0.33
Mof_C 	C 	0.0739	0.03241	0.36102	0.298
Mof_C 	C 	0.8348	0.79535	0.50102	-0.106
Mof_C 	C 	0.7109	0.79471	0.5322	0.131
Mof_C 	C 	0.4446	0.91422	0.68012	-0.119
Mof_C 	C 	0.9929	0.30091	0.1347	-0.272
Mof_H 	H 	0.9103	0.3087	0.153	0.139
Mof_C 	C 	0.9718	0.99885	0.3808	-0.265
Mof_H 	H 	0.8699	0.0058	0.37	0.134
Mof_C 	C 	0.0242	0.95547	0.4165	0.14
Mof_H 	H 	0.9554	0.9332	0.4294	-0.024
Mof_C 	C 	0.2253	0.02101	0.3794	-0.28
Mof_H 	H 	0.2964	0.0428	0.3676	0.137
Mof_C 	C 	0.2677	0.97646	0.4157	0.163
Mof_H 	H 	0.3692	0.9691	0.4282	-0.037
Mof_C 	C 	0.1083	0.10912	0.29932	0.029
Mof_H 	H 	0.1667	0.1296	0.3354	0.028
Mof_H 	H 	0.1759	0.091	0.2762	0.037
Mof_C 	C 	0.2319	0.28012	0.0797	0.144
Mof_H 	H 	0.3128	0.2726	0.06	-0.029
Mof_C 	C 	0.4723	0.96116	0.715	0.083
Mof_N 	N 	0.6609	0.8371	0.5621	-0.308
Mof_H 	H 	0.7293	0.8606	0.5697	0.17
Mof_H 	H 	0.6401	0.8278	0.6	0.145
Mof_N 	N 	0.4472	0.0096	0.6913	-0.287
Mof_H 	H 	0.3704	0.0097	0.6584	0.151
Mof_H 	H 	0.5239	0.0207	0.6769	0.147
Mof_Zn	Zn	0.27152	0.37785	0.01487	1.208
Mof_O 	O 	0.4539	0.33703	0.02207	-0.463
Mof_O 	O 	0.6066	0.3838	0.97388	-0.294
Mof_O 	O 	0.5023	0.71785	0.3193	-0.244
Mof_O 	O 	0.1677	0.37139	0.9208	-0.458
Mof_N 	N 	0.3286	0.8279	0.42995	-0.292
Mof_O 	O 	0.4861	0.57346	0.17483	-0.25
Mof_O 	O 	0.1149	0.45413	0.92751	-0.327
Mof_N 	N 	0.3288	0.44337	0.06617	-0.302
Mof_C 	C 	0.4403	0.75256	0.35559	0.293
Mof_C 	C 	0.4081	0.67608	0.28873	0.018
Mof_H 	H 	0.3759	0.6555	0.3231	0.044
Mof_H 	H 	0.3201	0.6895	0.2585	0.038
Mof_C 	C 	0.6293	0.25097	0.031	-0.072
Mof_H 	H 	0.5484	0.2518	0.0522	0.07
Mof_C 	C 	0.5702	0.34259	0.99744	0.357
Mof_C 	C 	0.0271	0.36737	0.7842	-0.016
Mof_H 	H 	0.0453	0.3362	0.8072	0.039
Mof_C 	C 	0.3184	0.74191	0.3835	-0.285
Mof_H 	H 	0.2716	0.7099	0.3777	0.14
Mof_C 	C 	0.449	0.83682	0.4024	0.157
Mof_H 	H 	0.4947	0.869	0.409	-0.04
Mof_C 	C 	0.1161	0.4143	0.8945	0.33
Mof_C 	C 	0.4261	0.53241	0.13898	0.298
Mof_C 	C 	0.6652	0.29535	0.99898	-0.106
Mof_C 	C 	0.7891	0.29471	0.9678	0.132
Mof_C 	C 	0.0554	0.41422	0.81988	-0.119
Mof_C 	C 	0.5071	0.80091	0.3653	-0.276
Mof_H 	H 	0.5897	0.8087	0.347	0.14
Mof_C 	C 	0.5282	0.49885	0.1192	-0.265
Mof_H 	H 	0.6301	0.5058	0.13	0.134
Mof_C 	C 	0.4758	0.45547	0.0835	0.141
Mof_H 	H 	0.5446	0.4332	0.0706	-0.025
Mof_C 	C 	0.2747	0.52101	0.1206	-0.28
Mof_H 	H 	0.2036	0.5428	0.1324	0.137
Mof_C 	C 	0.2323	0.47646	0.0843	0.163
Mof_H 	H 	0.1308	0.4691	0.0718	-0.038
Mof_C 	C 	0.3917	0.60912	0.20068	0.028
Mof_H 	H 	0.3333	0.6296	0.1646	0.029
Mof_H 	H 	0.3241	0.591	0.2238	0.037
Mof_C 	C 	0.2681	0.78012	0.4203	0.145
Mof_H 	H 	0.1872	0.7726	0.44	-0.03
Mof_C 	C 	0.0277	0.46116	0.785	0.084
Mof_N 	N 	0.8391	0.3371	0.9379	-0.308
Mof_H 	H 	0.7707	0.3606	0.9303	0.17
Mof_H 	H 	0.8599	0.3278	0.9	0.145
Mof_N 	N 	0.0528	0.5096	0.8087	-0.287
Mof_H 	H 	0.1296	0.5097	0.8416	0.151
Mof_H 	H 	0.9761	0.5207	0.8231	0.147
Mof_Zn	Zn	0.77152	0.87785	0.01487	1.209
Mof_O 	O 	0.9539	0.83703	0.02207	-0.462
Mof_O 	O 	0.1066	0.8838	0.97388	-0.293
Mof_O 	O 	0.0023	0.21785	0.3193	-0.246
Mof_O 	O 	0.6677	0.87139	0.9208	-0.458
Mof_N 	N 	0.8286	0.3279	0.42995	-0.292
Mof_O 	O 	0.9861	0.07346	0.17483	-0.251
Mof_O 	O 	0.6149	0.95413	0.92751	-0.328
Mof_N 	N 	0.8288	0.94337	0.06617	-0.303
Mof_C 	C 	0.9403	0.25256	0.35559	0.295
Mof_C 	C 	0.9081	0.17608	0.28873	0.02
Mof_H 	H 	0.8759	0.1555	0.3231	0.044
Mof_H 	H 	0.8201	0.1895	0.2585	0.037
Mof_C 	C 	0.1293	0.75097	0.031	-0.075
Mof_H 	H 	0.0484	0.7518	0.0522	0.07
Mof_C 	C 	0.0702	0.84259	0.99744	0.356
Mof_C 	C 	0.5271	0.86737	0.7842	-0.017
Mof_H 	H 	0.5453	0.8362	0.8072	0.04
Mof_C 	C 	0.8184	0.24191	0.3835	-0.286
Mof_H 	H 	0.7716	0.2099	0.3777	0.14
Mof_C 	C 	0.949	0.33682	0.4024	0.158
Mof_H 	H 	0.9947	0.369	0.409	-0.041
Mof_C 	C 	0.6161	0.9143	0.8945	0.33
Mof_C 	C 	0.9261	0.03241	0.13898	0.302
Mof_C 	C 	0.1652	0.79535	0.99898	-0.104
Mof_C 	C 	0.2891	0.79471	0.9678	0.131
Mof_C 	C 	0.5554	0.91422	0.81988	-0.119
Mof_C 	C 	0.0071	0.30091	0.3653	-0.279
Mof_H 	H 	0.0897	0.3087	0.347	0.141
Mof_C 	C 	0.0282	0.99885	0.1192	-0.273
Mof_H 	H 	0.1301	0.0058	0.13	0.137
Mof_C 	C 	0.9758	0.95547	0.0835	0.147
Mof_H 	H 	0.0446	0.9332	0.0706	-0.028
Mof_C 	C 	0.7747	0.02101	0.1206	-0.282
Mof_H 	H 	0.7036	0.0428	0.1324	0.138
Mof_C 	C 	0.7323	0.97646	0.0843	0.164
Mof_H 	H 	0.6308	0.9691	0.0718	-0.038
Mof_C 	C 	0.8917	0.10912	0.20068	0.03
Mof_H 	H 	0.8333	0.1296	0.1646	0.028
Mof_H 	H 	0.8241	0.091	0.2238	0.037
Mof_C 	C 	0.7681	0.28012	0.4203	0.146
Mof_H 	H 	0.6872	0.2726	0.44	-0.03
Mof_C 	C 	0.5277	0.96116	0.785	0.083
Mof_N 	N 	0.3391	0.8371	0.9379	-0.308
Mof_H 	H 	0.2707	0.8606	0.9303	0.17
Mof_H 	H 	0.3599	0.8278	0.9	0.145
Mof_N 	N 	0.5528	0.0096	0.8087	-0.287
Mof_H 	H 	0.6296	0.0097	0.8416	0.151
Mof_H 	H 	0.4761	0.0207	0.8231	0.147
Mof_C 	C 	0.5	0.3565	0.75	0.009
Mof_C 	C 	7.53094e-33	0.8565	0.75	0.01
Mof_C 	C 	0.5	0.6435	0.25	0.009
Mof_C 	C 	2.41337e-17	0.1435	0.25	0.007
_end
