data_functionalizedCrystal
_audit_creation_method	'EQeq! by Chris Wilmer'
_symmetry_space_group_name_H-M	'P1'
_symmetry_Int_Tables_number	1
_symmetry_cell_setting	triclinic
loop_
_symmetry_equiv_pos_as_xyz
  x,y,z
_cell_length_a	13.2246
_cell_length_b	17.8923
_cell_length_c	11.0836
_cell_angle_alpha	90
_cell_angle_beta	89.801
_cell_angle_gamma	90
loop_
_atom_site_label
_atom_site_type_symbol
_atom_site_fract_x
_atom_site_fract_y
_atom_site_fract_z
_atom_site_charge
Mof_Al	Al	0.1162	0.2372	0.2416	5.149
Mof_O 	O 	0.9427	0.6835	0.6188	-1.186
Mof_O 	O 	0.1639	0.1618	0.1365	-1.176
Mof_O 	O 	0.1	0.3331	0.3262	-1.169
Mof_O 	O 	0.3273	0.7946	0.8876	-1.428
Mof_Al	Al	0.131	0.7338	0.7544	5.21
Mof_O 	O 	0.0067	0.722	0.8334	-1.83
Mof_O 	O 	0.2559	0.739	0.6812	-2.149
Mof_O 	O 	0.164	0.8108	0.8666	-1.313
Mof_O 	O 	0.9441	0.2963	0.3505	-1.348
Mof_O 	O 	0.096	0.6609	0.6277	-1.102
Mof_O 	O 	0.3304	0.1619	0.1432	-1.249
Mof_C 	C 	0.1519	0.93229	0.02421	0.058
Mof_C 	C 	0.16401	0.99873	0.109	0
Mof_C 	C 	0.3442	0.0149	0.04815	0.023
Mof_C 	C 	0.33296	0.94865	0.96308	0.044
Mof_C 	C 	0.25383	0.89276	0.00731	-0.272
Mof_C 	C 	0.24167	0.05369	0.06078	-0.18
Mof_C 	C 	0.24575	0.82762	0.92199	1.005
Mof_C 	C 	0.24678	0.12458	0.13319	0.828
Mof_C 	C 	0.92416	0.51503	0.54113	-0.008
Mof_C 	C 	0.91688	0.45108	0.45121	0.032
Mof_C 	C 	0.10064	0.46684	0.40521	0.064
Mof_C 	C 	0.10823	0.53197	0.4935	0.038
Mof_C 	C 	0.00553	0.57167	0.50606	-0.225
Mof_C 	C 	0.01932	0.41135	0.44369	-0.212
Mof_C 	C 	0.01041	0.63439	0.59662	0.87
Mof_C 	C 	0.01567	0.34285	0.36494	0.924
Mof_O 	O 	0.176	0.2772	0.097	-1.037
Mof_Al	Al	0.3746	0.7273	0.7609	6.41
Mof_O 	O 	0.5606	0.163	0.3584	-1.455
Mof_O 	O 	0.3295	0.6486	0.8597	-1.545
Mof_O 	O 	0.4061	0.7979	0.647	-1.483
Mof_O 	O 	0.1572	0.6474	0.8616	-1.179
Mof_Al	Al	0.3722	0.234	0.2649	6.114
Mof_O 	O 	0.4931	0.2325	0.1894	-2.319
Mof_O 	O 	0.2418	0.2547	0.3115	-2.051
Mof_O 	O 	0.3307	0.3052	0.1409	-1.155
Mof_O 	O 	0.5684	0.8175	0.6395	-1.253
Mof_O 	O 	0.3935	0.162	0.3809	-1.578
Mof_C 	C 	0.33633	0.42983	0.00755	0.036
Mof_C 	C 	0.32464	0.49364	0.91755	0.036
Mof_C 	C 	0.14473	0.51255	0.97751	0.068
Mof_C 	C 	0.15557	0.44896	0.06778	-0.024
Mof_C 	C 	0.23408	0.39138	0.02789	-0.117
Mof_C 	C 	0.24759	0.5504	0.9615	-0.225
Mof_C 	C 	0.24177	0.32891	0.11832	0.688
Mof_C 	C 	0.24297	0.61899	0.88348	0.931
Mof_C 	C 	0.56905	0.01841	0.46434	0.034
Mof_C 	C 	0.57581	0.95475	0.55486	0.05
Mof_C 	C 	0.39042	0.96738	0.59336	0.011
Mof_C 	C 	0.38327	0.0322	0.50445	0.059
Mof_C 	C 	0.48496	0.07367	0.49581	-0.27
Mof_C 	C 	0.47452	0.91326	0.55847	-0.221
Mof_C 	C 	0.48066	0.13614	0.40475	1.099
Mof_C 	C 	0.4781	0.84497	0.63771	0.974
Mof_Al	Al	0.8838	0.7372	0.7584	5.15
Mof_O 	O 	0.0573	0.1835	0.3812	-1.186
Mof_O 	O 	0.8361	0.6618	0.8635	-1.174
Mof_O 	O 	0.9	0.8331	0.6738	-1.167
Mof_O 	O 	0.6727	0.2946	0.1124	-1.427
Mof_Al	Al	0.869	0.2338	0.2456	5.211
Mof_O 	O 	0.9933	0.222	0.1666	-1.83
Mof_O 	O 	0.7441	0.239	0.3188	-2.149
Mof_O 	O 	0.836	0.3108	0.1334	-1.314
Mof_O 	O 	0.0559	0.7963	0.6495	-1.347
Mof_O 	O 	0.904	0.1609	0.3723	-1.102
Mof_O 	O 	0.6696	0.6619	0.8568	-1.249
Mof_C 	C 	0.8481	0.43229	0.97579	0.058
Mof_C 	C 	0.83599	0.49873	0.891	-0.002
Mof_C 	C 	0.6558	0.5149	0.95185	0.023
Mof_C 	C 	0.66704	0.44865	0.03692	0.042
Mof_C 	C 	0.74617	0.39276	0.99269	-0.271
Mof_C 	C 	0.75833	0.55369	0.93922	-0.178
Mof_C 	C 	0.75425	0.32762	0.07801	1.005
Mof_C 	C 	0.75322	0.62458	0.86681	0.828
Mof_C 	C 	0.07584	0.01503	0.45887	-0.014
Mof_C 	C 	0.08312	0.95108	0.54879	0.037
Mof_C 	C 	0.89936	0.96684	0.59479	0.059
Mof_C 	C 	0.89177	0.03197	0.5065	0.043
Mof_C 	C 	0.99447	0.07167	0.49394	-0.221
Mof_C 	C 	0.98068	0.91135	0.55631	-0.215
Mof_C 	C 	0.98959	0.13439	0.40338	0.872
Mof_C 	C 	0.98433	0.84285	0.63506	0.923
Mof_O 	O 	0.824	0.7772	0.903	-1.037
Mof_Al	Al	0.6254	0.2273	0.2391	6.41
Mof_O 	O 	0.4394	0.663	0.6416	-1.455
Mof_O 	O 	0.6705	0.1486	0.1403	-1.545
Mof_O 	O 	0.5939	0.2979	0.353	-1.482
Mof_O 	O 	0.8428	0.1474	0.1384	-1.179
Mof_Al	Al	0.6278	0.734	0.7351	6.114
Mof_O 	O 	0.5069	0.7325	0.8106	-2.319
Mof_O 	O 	0.7582	0.7547	0.6885	-2.051
Mof_O 	O 	0.6693	0.8052	0.8591	-1.154
Mof_O 	O 	0.4316	0.3175	0.3605	-1.253
Mof_O 	O 	0.6065	0.662	0.6191	-1.577
Mof_C 	C 	0.66367	0.92983	0.99245	0.036
Mof_C 	C 	0.67536	0.99364	0.08245	0.032
Mof_C 	C 	0.85527	0.01255	0.02249	0.072
Mof_C 	C 	0.84443	0.94896	0.93222	-0.028
Mof_C 	C 	0.76592	0.89138	0.97211	-0.117
Mof_C 	C 	0.75241	0.0504	0.0385	-0.223
Mof_C 	C 	0.75823	0.82891	0.88168	0.688
Mof_C 	C 	0.75703	0.11899	0.11652	0.931
Mof_C 	C 	0.43095	0.51841	0.53566	0.031
Mof_C 	C 	0.42419	0.45475	0.44514	0.053
Mof_C 	C 	0.60958	0.46738	0.40664	0.012
Mof_C 	C 	0.61673	0.5322	0.49555	0.058
Mof_C 	C 	0.51504	0.57367	0.50419	-0.27
Mof_C 	C 	0.52548	0.41326	0.44153	-0.221
Mof_C 	C 	0.51934	0.63614	0.59525	1.099
Mof_C 	C 	0.5219	0.34497	0.36229	0.974
_end
