data_functionalizedCrystal
_audit_creation_method	'EQeq! by Chris Wilmer'
_symmetry_space_group_name_H-M	'P1'
_symmetry_Int_Tables_number	1
_symmetry_cell_setting	triclinic
loop_
_symmetry_equiv_pos_as_xyz
  x,y,z
_cell_length_a	11.9482
_cell_length_b	11.9482
_cell_length_c	30.657
_cell_angle_alpha	90
_cell_angle_beta	90
_cell_angle_gamma	90
loop_
_atom_site_label
_atom_site_type_symbol
_atom_site_fract_x
_atom_site_fract_y
_atom_site_fract_z
_atom_site_charge
Mof_O 	O 	0.3735	0.4962	0.9398	-0.7
Mof_C 	C 	0.3129	0.3469	0.9053	-0.265
Mof_C 	C 	0.305	0.689	0.9093	-0.138
Mof_O 	O 	0.431	0.651	0.9691	-0.508
Mof_O 	O 	0.4344	0.3487	0.9663	-0.483
Mof_C 	C 	0.306	0.776	0.9078	0.14
Mof_C 	C 	0.32	0.225	0.9048	0.057
Mof_C 	C 	0.3705	0.4052	0.9379	0.603
Mof_C 	C 	0.369	0.616	0.9446	0.461
Mof_O 	O 	0.8735	0.9962	0.4398	-0.436
Mof_C 	C 	0.8129	0.8469	0.4053	-0.218
Mof_C 	C 	0.805	0.189	0.4093	-0.108
Mof_O 	O 	0.931	0.151	0.4691	-0.321
Mof_O 	O 	0.9344	0.8487	0.4663	-0.295
Mof_C 	C 	0.806	0.276	0.4078	0.117
Mof_C 	C 	0.82	0.725	0.4048	0.13
Mof_C 	C 	0.8705	0.9052	0.4379	0.508
Mof_C 	C 	0.869	0.116	0.4446	0.282
Mof_O 	O 	0.1265	0.0038	0.4398	-0.807
Mof_C 	C 	0.1871	0.1531	0.4053	-0.32
Mof_C 	C 	0.195	0.811	0.4093	-0.125
Mof_O 	O 	0.069	0.849	0.4691	-0.554
Mof_O 	O 	0.0656	0.1513	0.4663	-0.516
Mof_C 	C 	0.194	0.724	0.4078	0.079
Mof_C 	C 	0.18	0.275	0.4048	0.069
Mof_C 	C 	0.1295	0.0948	0.4379	0.657
Mof_C 	C 	0.131	0.884	0.4446	0.585
Mof_O 	O 	0.6265	0.5038	0.9398	-0.704
Mof_C 	C 	0.6871	0.6531	0.9053	-0.288
Mof_C 	C 	0.695	0.311	0.9093	-0.103
Mof_O 	O 	0.569	0.349	0.9691	-0.52
Mof_O 	O 	0.5656	0.6513	0.9663	-0.468
Mof_C 	C 	0.694	0.224	0.9078	0.084
Mof_C 	C 	0.68	0.775	0.9048	0.167
Mof_C 	C 	0.6295	0.5948	0.9379	0.632
Mof_C 	C 	0.631	0.384	0.9446	0.464
Mof_O 	O 	0.5038	0.8735	0.1898	-0.638
Mof_C 	C 	0.6531	0.8129	0.1553	-0.273
Mof_C 	C 	0.311	0.805	0.1593	-0.096
Mof_O 	O 	0.349	0.931	0.2191	-0.413
Mof_O 	O 	0.6513	0.9344	0.2163	-0.373
Mof_C 	C 	0.224	0.806	0.1578	0.089
Mof_C 	C 	0.775	0.82	0.1548	0.175
Mof_C 	C 	0.5948	0.8705	0.1879	0.595
Mof_C 	C 	0.384	0.869	0.1946	0.428
Mof_O 	O 	0.0038	0.3735	0.6898	-0.825
Mof_C 	C 	0.1531	0.3129	0.6553	-0.312
Mof_C 	C 	0.811	0.305	0.6593	-0.121
Mof_O 	O 	0.849	0.431	0.7191	-0.526
Mof_O 	O 	0.1513	0.4344	0.7163	-0.493
Mof_C 	C 	0.724	0.306	0.6578	0.097
Mof_C 	C 	0.275	0.32	0.6548	0.092
Mof_C 	C 	0.0948	0.3705	0.6879	0.657
Mof_C 	C 	0.884	0.369	0.6946	0.58
Mof_O 	O 	0.9962	0.6265	0.6898	-0.522
Mof_C 	C 	0.8469	0.6871	0.6553	-0.234
Mof_C 	C 	0.189	0.695	0.6593	-0.118
Mof_O 	O 	0.151	0.569	0.7191	-0.461
Mof_O 	O 	0.8487	0.5656	0.7163	-0.421
Mof_C 	C 	0.276	0.694	0.6578	0.104
Mof_C 	C 	0.725	0.68	0.6548	0.112
Mof_C 	C 	0.9052	0.6295	0.6879	0.546
Mof_C 	C 	0.116	0.631	0.6946	0.317
Mof_O 	O 	0.4962	0.1265	0.1898	-0.71
Mof_C 	C 	0.3469	0.1871	0.1553	-0.277
Mof_C 	C 	0.689	0.195	0.1593	-0.147
Mof_O 	O 	0.651	0.069	0.2191	-0.573
Mof_O 	O 	0.3487	0.0656	0.2163	-0.541
Mof_C 	C 	0.776	0.194	0.1578	0.113
Mof_C 	C 	0.225	0.18	0.1548	0.024
Mof_C 	C 	0.4052	0.1295	0.1879	0.608
Mof_C 	C 	0.616	0.131	0.1946	0.468
Mof_O 	O 	0.1265	0.4962	0.8102	-0.709
Mof_C 	C 	0.1871	0.3469	0.8447	-0.278
Mof_C 	C 	0.195	0.689	0.8407	-0.145
Mof_O 	O 	0.069	0.651	0.7809	-0.573
Mof_O 	O 	0.0656	0.3487	0.7837	-0.541
Mof_C 	C 	0.194	0.776	0.8422	0.115
Mof_C 	C 	0.18	0.225	0.8452	0.03
Mof_C 	C 	0.1295	0.4052	0.8121	0.61
Mof_C 	C 	0.131	0.616	0.8054	0.469
Mof_O 	O 	0.6265	0.9962	0.3102	-0.522
Mof_C 	C 	0.6871	0.8469	0.3447	-0.234
Mof_C 	C 	0.695	0.189	0.3407	-0.118
Mof_O 	O 	0.569	0.151	0.2809	-0.461
Mof_O 	O 	0.5656	0.8487	0.2837	-0.42
Mof_C 	C 	0.694	0.276	0.3422	0.104
Mof_C 	C 	0.68	0.725	0.3452	0.112
Mof_C 	C 	0.6295	0.9052	0.3121	0.546
Mof_C 	C 	0.631	0.116	0.3054	0.317
Mof_O 	O 	0.3735	0.0038	0.3102	-0.824
Mof_C 	C 	0.3129	0.1531	0.3447	-0.312
Mof_C 	C 	0.305	0.811	0.3407	-0.121
Mof_O 	O 	0.431	0.849	0.2809	-0.525
Mof_O 	O 	0.4344	0.1513	0.2837	-0.493
Mof_C 	C 	0.306	0.724	0.3422	0.098
Mof_C 	C 	0.32	0.275	0.3452	0.093
Mof_C 	C 	0.3705	0.0948	0.3121	0.657
Mof_C 	C 	0.369	0.884	0.3054	0.58
Mof_O 	O 	0.8735	0.5038	0.8102	-0.638
Mof_C 	C 	0.8129	0.6531	0.8447	-0.274
Mof_C 	C 	0.805	0.311	0.8407	-0.093
Mof_O 	O 	0.931	0.349	0.7809	-0.413
Mof_O 	O 	0.9344	0.6513	0.7837	-0.373
Mof_C 	C 	0.806	0.224	0.8422	0.091
Mof_C 	C 	0.82	0.775	0.8452	0.181
Mof_C 	C 	0.8705	0.5948	0.8121	0.597
Mof_C 	C 	0.869	0.384	0.8054	0.429
Mof_O 	O 	0.9962	0.8735	0.5602	-0.436
Mof_C 	C 	0.8469	0.8129	0.5947	-0.218
Mof_C 	C 	0.189	0.805	0.5907	-0.108
Mof_O 	O 	0.151	0.931	0.5309	-0.321
Mof_O 	O 	0.8487	0.9344	0.5337	-0.295
Mof_C 	C 	0.276	0.806	0.5922	0.117
Mof_C 	C 	0.725	0.82	0.5952	0.13
Mof_C 	C 	0.9052	0.8705	0.5621	0.508
Mof_C 	C 	0.116	0.869	0.5554	0.282
Mof_O 	O 	0.4962	0.3735	0.0602	-0.714
Mof_C 	C 	0.3469	0.3129	0.0947	-0.268
Mof_C 	C 	0.689	0.305	0.0907	-0.141
Mof_O 	O 	0.651	0.431	0.0309	-0.54
Mof_O 	O 	0.3487	0.4344	0.0337	-0.515
Mof_C 	C 	0.776	0.306	0.0922	0.124
Mof_C 	C 	0.225	0.32	0.0952	0.042
Mof_C 	C 	0.4052	0.3705	0.0621	0.599
Mof_C 	C 	0.616	0.369	0.0554	0.453
Mof_O 	O 	0.5038	0.6265	0.0602	-0.717
Mof_C 	C 	0.6531	0.6871	0.0947	-0.29
Mof_C 	C 	0.311	0.695	0.0907	-0.106
Mof_O 	O 	0.349	0.569	0.0309	-0.552
Mof_O 	O 	0.6513	0.5656	0.0337	-0.499
Mof_C 	C 	0.224	0.694	0.0922	0.069
Mof_C 	C 	0.775	0.68	0.0952	0.151
Mof_C 	C 	0.5948	0.6295	0.0621	0.628
Mof_C 	C 	0.384	0.631	0.0554	0.456
Mof_O 	O 	0.0038	0.1265	0.5602	-0.807
Mof_C 	C 	0.1531	0.1871	0.5947	-0.32
Mof_C 	C 	0.811	0.195	0.5907	-0.125
Mof_O 	O 	0.849	0.069	0.5309	-0.554
Mof_O 	O 	0.1513	0.0656	0.5337	-0.516
Mof_C 	C 	0.724	0.194	0.5922	0.079
Mof_C 	C 	0.275	0.18	0.5952	0.069
Mof_C 	C 	0.0948	0.1295	0.5621	0.657
Mof_C 	C 	0.884	0.131	0.5554	0.585
Mof_In	In	0.5	0.5	-0	3.082
Mof_In	In	4.81015e-33	0	0.5	2.235
Mof_In	In	0.5	0	0.25	2.742
Mof_In	In	-1.58563e-32	0.5	0.75	2.741
Mof_C 	C 	0.25	0.3939	0.875	0.215
Mof_C 	C 	0.25	0.8387	0.875	0.001
Mof_N 	N 	0.25	0.95	0.875	-0.046
Mof_C 	C 	0.75	0.8939	0.375	0.259
Mof_C 	C 	0.75	0.3387	0.375	0.012
Mof_N 	N 	0.75	0.45	0.375	-0.069
Mof_C 	C 	0.25	0.1061	0.375	0.198
Mof_C 	C 	0.25	0.6613	0.375	0.008
Mof_N 	N 	0.25	0.55	0.375	-0.1
Mof_C 	C 	0.75	0.6061	0.875	0.258
Mof_C 	C 	0.75	0.1613	0.875	0.016
Mof_N 	N 	0.75	0.05	0.875	-0.115
Mof_C 	C 	0.6061	0.75	0.125	0.252
Mof_C 	C 	0.1613	0.75	0.125	0.014
Mof_N 	N 	0.05	0.75	0.125	-0.122
Mof_C 	C 	0.1061	0.25	0.625	0.198
Mof_C 	C 	0.6613	0.25	0.625	0.008
Mof_N 	N 	0.55	0.25	0.625	-0.1
Mof_C 	C 	0.8939	0.75	0.625	0.258
Mof_C 	C 	0.3387	0.75	0.625	0.012
Mof_N 	N 	0.45	0.75	0.625	-0.07
Mof_C 	C 	0.3939	0.25	0.125	0.209
Mof_C 	C 	0.8387	0.25	0.125	-0.001
Mof_N 	N 	0.95	0.25	0.125	-0.053
_end
