data_functionalizedCrystal
_audit_creation_method	'EQeq! by Chris Wilmer'
_symmetry_space_group_name_H-M	'P1'
_symmetry_Int_Tables_number	1
_symmetry_cell_setting	triclinic
loop_
_symmetry_equiv_pos_as_xyz
  x,y,z
_cell_length_a	13.4867
_cell_length_b	13.7057
_cell_length_c	14.7949
_cell_angle_alpha	108.149
_cell_angle_beta	107.556
_cell_angle_gamma	109.44
loop_
_atom_site_label
_atom_site_type_symbol
_atom_site_fract_x
_atom_site_fract_y
_atom_site_fract_z
_atom_site_charge
Mof_Zn	Zn	0.96197	0.73655	0.10282	1.209
Mof_Zn	Zn	0.35915	0.63373	0.89718	1.241
Mof_Zn	Zn	0.03803	0.26345	0.89718	1.235
Mof_Zn	Zn	0.5	0.5	-0	1.192
Mof_Zn	Zn	-0	0.5	-0	1.185
Mof_Zn	Zn	0.64085	0.36627	0.10282	1.203
Mof_H 	H 	0.5778	0.963	0.185	0.087
Mof_H 	H 	0.2694	0.5089	0.5142	0.105
Mof_H 	H 	0.9227	0.1411	0.658	-0.001
Mof_H 	H 	0.3986	0.3354	0.603	0.109
Mof_H 	H 	0.9293	0.3748	0.371	0.032
Mof_H 	H 	0.8928	0.778	0.815	0.123
Mof_H 	H 	0.5224	0.1449	0.4734	0.09
Mof_H 	H 	0.6975	0.5845	0.9404	0.017
Mof_H 	H 	0.9091	0.5663	0.1222	0.305
Mof_H 	H 	0.7448	0.0053	0.5142	0.1
Mof_H 	H 	0.3947	0.2565	0.2836	0.117
Mof_H 	H 	0.0773	0.8589	0.342	-0.029
Mof_H 	H 	0.5615	0.7493	0.8548	0.01
Mof_H 	H 	0.2956	0.7324	0.397	0.114
Mof_H 	H 	0.4385	0.2507	0.1452	-0.044
Mof_H 	H 	0.2869	0.4441	0.8778	0.289
Mof_H 	H 	0.5624	0.225	0.7994	0.096
Mof_H 	H 	0.5667	0.8868	0.3894	0.07
Mof_H 	H 	0.7933	0.1055	0.8548	0.02
Mof_H 	H 	0.7306	0.4911	0.4858	0.11
Mof_H 	H 	0.1191	0.606	0.251	-0.015
Mof_H 	H 	0.6111	0.9729	0.7164	0.106
Mof_H 	H 	0.4776	0.8551	0.5266	0.076
Mof_H 	H 	0.3889	0.0271	0.2836	0.128
Mof_H 	H 	0.8932	0.141	0.4418	0.102
Mof_H 	H 	0.3025	0.4155	0.0596	-0.062
Mof_H 	H 	0.0583	0.0038	0.629	0.025
Mof_H 	H 	0.6014	0.6646	0.397	0.113
Mof_H 	H 	0.1068	0.859	0.5582	0.097
Mof_H 	H 	0.4376	0.775	0.2006	0.096
Mof_H 	H 	0.1072	0.222	0.185	0.075
Mof_H 	H 	0.0909	0.4337	0.8778	0.288
Mof_H 	H 	0.4222	0.037	0.815	0.111
Mof_H 	H 	0.6053	0.7435	0.7164	0.122
Mof_H 	H 	0.9514	0.6992	0.5582	0.098
Mof_H 	H 	0.6773	0.4974	0.6106	0.064
Mof_H 	H 	0.9417	0.9962	0.371	0.045
Mof_H 	H 	0.0707	0.6252	0.629	0.037
Mof_H 	H 	0.549	0.6715	0.5266	0.082
Mof_H 	H 	0.0486	0.3008	0.4418	0.102
Mof_H 	H 	0.737	0.5744	0.7994	0.099
Mof_H 	H 	0.3681	0.355	0.749	-0.001
Mof_H 	H 	0.2067	0.8945	0.1452	-0.052
Mof_H 	H 	0.2571	0.6441	0.0596	-0.064
Mof_H 	H 	0.3227	0.5026	0.3894	0.065
Mof_H 	H 	0.2353	0.5169	0.658	-0.017
Mof_H 	H 	0.7429	0.3559	0.9404	0.019
Mof_H 	H 	0.7044	0.2676	0.603	0.108
Mof_H 	H 	0.6319	0.645	0.251	-0.006
Mof_H 	H 	0.2552	0.9947	0.4858	0.113
Mof_H 	H 	0.7647	0.4831	0.342	-0.016
Mof_H 	H 	0.451	0.3285	0.4734	0.085
Mof_H 	H 	0.8809	0.394	0.749	0.009
Mof_H 	H 	0.7131	0.5559	0.1222	0.304
Mof_H 	H 	0.4333	0.1132	0.6106	0.06
Mof_H 	H 	0.263	0.4256	0.2006	0.093
Mof_C 	C 	0.5019	0.6992	0.7854	0.125
Mof_C 	C 	0.9127	0.7442	0.681	0.138
Mof_C 	C 	0.6892	0.4364	0.33	0.116
Mof_C 	C 	0.3738	0.7413	0.2128	-0.197
Mof_C 	C 	0.339	0.4715	0.2128	-0.191
Mof_C 	C 	0.4723	0.6211	0.5092	-0.1
Mof_C 	C 	0.5277	0.3789	0.4908	-0.109
Mof_C 	C 	0.4631	0.1119	0.4908	-0.123
Mof_C 	C 	0.661	0.5285	0.7872	-0.168
Mof_C 	C 	0.4436	0.6257	0.5984	0.153
Mof_C 	C 	0.4928	0.1454	0.5934	-0.061
Mof_C 	C 	0.8155	0.36	0.759	0.087
Mof_C 	C 	0.0546	0.6579	0.765	-0.108
Mof_C 	C 	0.29	0.7167	0.3292	-0.19
Mof_C 	C 	0.8633	0.3882	0.1938	0.328
Mof_C 	C 	0.3108	0.5636	0.67	0.113
Mof_C 	C 	0.0718	0.2535	0.222	-0.078
Mof_C 	C 	0.0361	0.3	0.3762	-0.166
Mof_C 	C 	0.5369	0.8881	0.5092	-0.081
Mof_C 	C 	0.3218	0.1189	0.8194	0
Mof_C 	C 	0.2165	0.9138	0.2146	0.144
Mof_C 	C 	0.6262	0.2587	0.7872	-0.162
Mof_C 	C 	0.2683	0.9368	0.681	0.126
Mof_C 	C 	0.9646	0.3439	0.3332	0.064
Mof_C 	C 	0.3631	0.4657	0.1282	0.108
Mof_C 	C 	0.6694	0.4423	0.4172	-0.185
Mof_C 	C 	0.1599	0.9238	0.6238	-0.147
Mof_C 	C 	0.6006	0.448	0.5934	-0.072
Mof_C 	C 	0.0024	0.2995	0.1806	-0.097
Mof_C 	C 	0.2651	0.6625	0.1282	0.111
Mof_C 	C 	0.5072	0.8546	0.4066	-0.095
Mof_C 	C 	0.5392	0.6125	0.3292	-0.183
Mof_C 	C 	0.9639	0.7	0.6238	-0.108
Mof_C 	C 	0.6106	0.2285	0.6826	0.117
Mof_C 	C 	0.4981	0.3008	0.2146	0.132
Mof_C 	C 	0.4435	0.399	0.759	0.09
Mof_C 	C 	0.0873	0.2558	0.319	0.112
Mof_C 	C 	0.3994	0.552	0.4066	-0.081
Mof_C 	C 	0.3266	0.9945	0.2978	-0.234
Mof_C 	C 	0.6369	0.5343	0.8718	0.103
Mof_C 	C 	0.9454	0.3421	0.235	-0.033
Mof_C 	C 	0.6782	0.8811	0.1806	-0.029
Mof_C 	C 	0.8401	0.0762	0.3762	-0.123
Mof_C 	C 	0.2104	0.1071	0.765	-0.072
Mof_C 	C 	0.6734	0.0055	0.7022	-0.155
Mof_C 	C 	0.9282	0.7465	0.778	-0.142
Mof_C 	C 	0.5565	0.601	0.241	0.094
Mof_C 	C 	0.4608	0.3875	0.6708	-0.172
Mof_C 	C 	0.7835	0.0862	0.7854	0.109
Mof_C 	C 	0.2478	0.9749	0.4172	-0.205
Mof_C 	C 	0.993	0.3065	0.0784	0.429
Mof_C 	C 	0.7317	0.0632	0.319	0.122
Mof_C 	C 	0.9976	0.7005	0.8194	0.075
Mof_C 	C 	0.572	0.4541	0.6826	0.124
Mof_C 	C 	0.8305	0.8056	0.1938	0.338
Mof_C 	C 	0.6502	0.9685	0.222	-0.108
Mof_C 	C 	0.7349	0.3375	0.8718	0.1
Mof_C 	C 	0.3498	0.0315	0.778	-0.11
Mof_C 	C 	0.3894	0.7715	0.3174	0.141
Mof_C 	C 	0.8686	0.9893	0.3332	0.028
Mof_C 	C 	0.5288	0.6967	0.7022	-0.191
Mof_C 	C 	0.8592	0.1064	0.67	0.101
Mof_C 	C 	0.1314	0.0107	0.6668	0.049
Mof_C 	C 	0.3452	0.0273	0.4016	0.184
Mof_C 	C 	0.1695	0.1944	0.8062	0.333
Mof_C 	C 	0.71	0.2833	0.6708	-0.166
Mof_C 	C 	0.3306	0.5577	0.5828	-0.178
Mof_C 	C 	0.1845	0.64	0.241	0.098
Mof_C 	C 	0.4146	0.2281	0.9216	0.345
Mof_C 	C 	0.7896	0.8929	0.235	-0.065
Mof_C 	C 	0.428	0.5459	0.3174	0.134
Mof_C 	C 	0.007	0.6935	0.9216	0.27
Mof_C 	C 	0.1367	0.6118	0.8062	0.345
Mof_C 	C 	0.1408	0.8936	0.33	0.125
Mof_C 	C 	0.5854	0.7719	0.0784	0.359
Mof_C 	C 	0.0354	0.6561	0.6668	0.02
Mof_C 	C 	0.4712	0.3033	0.2978	-0.208
Mof_C 	C 	0.7522	0.0251	0.5828	-0.151
Mof_C 	C 	0.5564	0.3743	0.4016	0.161
Mof_C 	C 	0.6548	0.9727	0.5984	0.121
Mof_N 	N 	0.7015	0.1538	0.3654	-0.013
Mof_N 	N 	0.87661	0.13811	0.77162	-0.252
Mof_N 	N 	0.39501	0.63351	0.77162	-0.266
Mof_N 	N 	0.52936	0.47026	0.85952	-0.224
Mof_N 	N 	0.83016	0.38926	0.85952	-0.217
Mof_N 	N 	0.16984	0.61074	0.14048	-0.266
Mof_N 	N 	0.60499	0.36649	0.22838	-0.285
Mof_N 	N 	0.2985	0.8462	0.6346	-0.014
Mof_N 	N 	0.47064	0.52974	0.14048	-0.262
Mof_N 	N 	0.12339	0.86189	0.22838	-0.296
Mof_N 	N 	0.8361	0.7884	0.6346	-0.015
Mof_N 	N 	0.1639	0.2116	0.3654	-0.012
Mof_O 	O 	0.8294	0.7952	0.5536	-0.128
Mof_O 	O 	0.10444	0.50724	0.76468	-0.339
Mof_O 	O 	0.13821	0.18841	0.87862	-0.397
Mof_O 	O 	0.6026	0.1373	0.321	-0.141
Mof_O 	O 	0.1706	0.2048	0.4464	-0.137
Mof_O 	O 	0.3974	0.8627	0.679	-0.13
Mof_O 	O 	0.7816	0.8163	0.679	-0.128
Mof_O 	O 	0.02983	0.24913	0.02426	-0.543
Mof_O 	O 	0.7758	0.2416	0.4464	-0.128
Mof_O 	O 	0.95357	0.37037	0.05714	-0.484
Mof_O 	O 	0.89556	0.49276	0.23532	-0.329
Mof_O 	O 	0.49443	0.77513	0.02426	-0.51
Mof_O 	O 	0.16024	0.25744	0.76468	-0.334
Mof_O 	O 	0.2242	0.7584	0.5536	-0.136
Mof_O 	O 	0.97017	0.75087	0.97574	-0.356
Mof_O 	O 	0.75959	0.30979	0.12138	-0.456
Mof_O 	O 	0.65041	0.49351	0.07562	-0.814
Mof_O 	O 	0.34959	0.50649	0.92438	-0.708
Mof_O 	O 	0.39643	0.31323	0.94286	-0.386
Mof_O 	O 	0.04643	0.62963	0.94286	-0.377
Mof_O 	O 	0.24041	0.69021	0.87862	-0.397
Mof_O 	O 	0.60357	0.68677	0.05714	-0.477
Mof_O 	O 	0.2184	0.1837	0.321	-0.143
Mof_O 	O 	0.50557	0.22487	0.97574	-0.392
Mof_O 	O 	0.83976	0.74256	0.23532	-0.334
Mof_O 	O 	0.86179	0.81159	0.12138	-0.456
Mof_O 	O 	0.92521	0.58211	0.07562	-0.803
Mof_O 	O 	0.07479	0.41789	0.92438	-0.717
_end
