data_functionalizedCrystal
_audit_creation_method	'EQeq! by Chris Wilmer'
_symmetry_space_group_name_H-M	'P1'
_symmetry_Int_Tables_number	1
_symmetry_cell_setting	triclinic
loop_
_symmetry_equiv_pos_as_xyz
  x,y,z
_cell_length_a	9.097
_cell_length_b	16.994
_cell_length_c	9.6441
_cell_angle_alpha	90
_cell_angle_beta	103.456
_cell_angle_gamma	90
loop_
_atom_site_label
_atom_site_type_symbol
_atom_site_fract_x
_atom_site_fract_y
_atom_site_fract_z
_atom_site_charge
Mof_Ga	Ga	0.79741	0.77657	0.07593	3.942
Mof_Ga	Ga	0.21594	0.7657	0.96333	3.6
Mof_V 	V 	0.3144	0.00317	0.16534	1.689
Mof_P 	P 	0.49937	0.87034	0.00813	0.84
Mof_P 	P 	0.89271	0.83772	0.8146	0.918
Mof_P 	P 	0.10917	0.84511	0.21401	0.947
Mof_O 	O 	0.4391	0.9172	0.1153	-0.687
Mof_O 	O 	0.3731	0.8184	0.9174	-1.116
Mof_O 	O 	0.5654	0.9167	0.9056	-0.703
Mof_O 	O 	0.6185	0.8138	0.0978	-1.205
Mof_O 	O 	0.8245	0.774	0.8955	-1.262
Mof_O 	O 	0.8514	0.9196	0.8493	-0.654
Mof_O 	O 	0.8326	0.8211	0.6555	-1.18
Mof_O 	O 	0.0649	0.832	0.8525	-1.008
Mof_O 	O 	0.9349	0.8456	0.1802	-1.135
Mof_O 	O 	0.1643	0.7776	0.1333	-1.219
Mof_O 	O 	0.1682	0.8291	0.3735	-1.127
Mof_O 	O 	0.1565	0.925	0.176	-0.649
Mof_Ga	Ga	0.20259	0.27657	0.42407	3.962
Mof_Ga	Ga	0.78406	0.2657	0.53667	3.619
Mof_V 	V 	0.6856	0.50317	0.33466	1.691
Mof_P 	P 	0.50063	0.37034	0.49187	0.838
Mof_P 	P 	0.10729	0.33772	0.6854	0.908
Mof_P 	P 	0.89083	0.34511	0.28599	0.937
Mof_O 	O 	0.5609	0.4172	0.3847	-0.688
Mof_O 	O 	0.6269	0.3184	0.5826	-1.117
Mof_O 	O 	0.4346	0.4167	0.5944	-0.702
Mof_O 	O 	0.3815	0.3138	0.4022	-1.208
Mof_O 	O 	0.1755	0.274	0.6045	-1.27
Mof_O 	O 	0.1486	0.4196	0.6507	-0.656
Mof_O 	O 	0.1674	0.3211	0.8445	-1.177
Mof_O 	O 	0.9351	0.332	0.6475	-0.999
Mof_O 	O 	0.0651	0.3456	0.3198	-1.124
Mof_O 	O 	0.8357	0.2776	0.3667	-1.228
Mof_O 	O 	0.8318	0.3291	0.1265	-1.125
Mof_O 	O 	0.8435	0.425	0.324	-0.654
Mof_Ga	Ga	0.20259	0.22343	0.92407	3.943
Mof_Ga	Ga	0.78406	0.2343	0.03667	3.601
Mof_V 	V 	0.6856	0.99683	0.83466	1.69
Mof_P 	P 	0.50063	0.12966	0.99187	0.841
Mof_P 	P 	0.10729	0.16228	0.1854	0.918
Mof_P 	P 	0.89083	0.15489	0.78599	0.947
Mof_O 	O 	0.5609	0.0828	0.8847	-0.687
Mof_O 	O 	0.6269	0.1816	0.0826	-1.116
Mof_O 	O 	0.4346	0.0833	0.0944	-0.703
Mof_O 	O 	0.3815	0.1862	0.9022	-1.205
Mof_O 	O 	0.1755	0.226	0.1045	-1.262
Mof_O 	O 	0.1486	0.0804	0.1507	-0.654
Mof_O 	O 	0.1674	0.1789	0.3445	-1.18
Mof_O 	O 	0.9351	0.168	0.1475	-1.008
Mof_O 	O 	0.0651	0.1544	0.8198	-1.135
Mof_O 	O 	0.8357	0.2224	0.8667	-1.219
Mof_O 	O 	0.8318	0.1709	0.6265	-1.127
Mof_O 	O 	0.8435	0.075	0.824	-0.649
Mof_Ga	Ga	0.79741	0.72343	0.57593	3.962
Mof_Ga	Ga	0.21594	0.7343	0.46333	3.619
Mof_V 	V 	0.3144	0.49683	0.66534	1.691
Mof_P 	P 	0.49937	0.62966	0.50813	0.838
Mof_P 	P 	0.89271	0.66228	0.3146	0.908
Mof_P 	P 	0.10917	0.65489	0.71401	0.937
Mof_O 	O 	0.4391	0.5828	0.6153	-0.688
Mof_O 	O 	0.3731	0.6816	0.4174	-1.117
Mof_O 	O 	0.5654	0.5833	0.4056	-0.702
Mof_O 	O 	0.6185	0.6862	0.5978	-1.208
Mof_O 	O 	0.8245	0.726	0.3955	-1.27
Mof_O 	O 	0.8514	0.5804	0.3493	-0.656
Mof_O 	O 	0.8326	0.6789	0.1555	-1.177
Mof_O 	O 	0.0649	0.668	0.3525	-0.999
Mof_O 	O 	0.9349	0.6544	0.6802	-1.124
Mof_O 	O 	0.1643	0.7224	0.6333	-1.228
Mof_O 	O 	0.1682	0.6709	0.8735	-1.125
Mof_O 	O 	0.1565	0.575	0.676	-0.654
_end
