data_functionalizedCrystal
_audit_creation_method	'EQeq! by Chris Wilmer'
_symmetry_space_group_name_H-M	'P1'
_symmetry_Int_Tables_number	1
_symmetry_cell_setting	triclinic
loop_
_symmetry_equiv_pos_as_xyz
  x,y,z
_cell_length_a	7.669
_cell_length_b	15.5888
_cell_length_c	16.7319
_cell_angle_alpha	69.948
_cell_angle_beta	80.155
_cell_angle_gamma	81.116
loop_
_atom_site_label
_atom_site_type_symbol
_atom_site_fract_x
_atom_site_fract_y
_atom_site_fract_z
_atom_site_charge
Mof_Cd	Cd	0.36779	0.99261	0.85753	0.495
Mof_Cd	Cd	0.6151	0.17655	0.91263	0.48
Mof_Cd	Cd	0.63221	0.00739	0.14247	0.457
Mof_Cd	Cd	-0	0	-0	0.469
Mof_Cd	Cd	0.3849	0.82345	0.08737	0.475
Mof_H 	H 	0.6205	0.4981	0.9371	0.094
Mof_H 	H 	0.8813	0.966	0.4707	0.056
Mof_H 	H 	0.6771	0.0054	0.9791	0.266
Mof_H 	H 	0.5144	0.3828	0.9119	0.015
Mof_H 	H 	0.5305	0.2544	0.0985	0.058
Mof_H 	H 	0.1134	0.2143	0.5193	0.057
Mof_H 	H 	0.9063	0.6508	0.0439	0.122
Mof_H 	H 	0.6476	0.3454	0.1524	0.048
Mof_H 	H 	0.0631	0.713	0.6973	0.042
Mof_H 	H 	0.6064	0.0538	0.3262	0.002
Mof_H 	H 	0.3229	0.9946	0.0209	0.278
Mof_H 	H 	0.0225	0.7615	0.0732	0.019
Mof_H 	H 	0.7405	0.0336	0.7601	0.018
Mof_H 	H 	0.4695	0.7456	0.9015	0.076
Mof_H 	H 	0.8866	0.7857	0.4807	0.066
Mof_H 	H 	0.0496	0.9743	0.3501	0.1
Mof_H 	H 	0.3936	0.9462	0.6738	0.004
Mof_H 	H 	0.0512	0.8169	0.35	0.031
Mof_H 	H 	0.354	0.7488	0.3385	0.073
Mof_H 	H 	0.1928	0.3659	0.3054	0.065
Mof_H 	H 	0.3956	0.2539	0.426	0.059
Mof_H 	H 	0.2595	0.9664	0.2399	0.018
Mof_H 	H 	0.8658	0.5636	0.9655	0.052
Mof_H 	H 	0.9488	0.1831	0.65	0.044
Mof_H 	H 	0.9369	0.287	0.3027	0.068
Mof_H 	H 	0.0937	0.3492	0.9561	0.103
Mof_H 	H 	0.5216	0.6002	0.7416	0.047
Mof_H 	H 	0.3524	0.6546	0.8476	0.043
Mof_H 	H 	0.4856	0.6172	0.0881	0.004
Mof_H 	H 	0.4067	0.0657	0.4404	0.092
Mof_H 	H 	0.1342	0.4364	0.0345	0.086
Mof_H 	H 	0.8196	0.1938	0.2516	0.035
Mof_H 	H 	0.9775	0.2385	0.9268	0.036
Mof_H 	H 	0.9504	0.0257	0.6499	0.103
Mof_H 	H 	0.6726	0.2983	0.4091	0.035
Mof_H 	H 	0.1804	0.8062	0.7484	0.058
Mof_H 	H 	0.1187	0.034	0.5293	0.069
Mof_H 	H 	0.8072	0.6341	0.6946	0.055
Mof_H 	H 	0.3795	0.5019	0.0629	0.102
Mof_H 	H 	0.2029	0.6983	0.473	0.043
Mof_H 	H 	0.7971	0.3017	0.527	0.042
Mof_H 	H 	0.4784	0.3998	0.2584	0.037
Mof_H 	H 	0.6044	0.7461	0.574	0.062
Mof_H 	H 	0.3274	0.7017	0.5909	0.034
Mof_H 	H 	0.646	0.2512	0.6615	0.075
Mof_H 	H 	0.5933	0.9343	0.5596	0.097
Mof_C 	C 	0.6949	0.4448	0.9378	-0.164
Mof_C 	C 	0.2836	0.2543	0.166	0.012
Mof_C 	C 	0.9948	0.7353	0.739	-0.045
Mof_C 	C 	0.0052	0.2647	0.261	-0.11
Mof_C 	C 	0.6324	0.3756	0.9216	0.1
Mof_C 	C 	0.7407	0.6568	0.7363	-0.063
Mof_C 	C 	0.8582	0.8157	0.2816	-0.061
Mof_C 	C 	0.7164	0.7457	0.834	0.048
Mof_C 	C 	0.7101	0.0136	0.7185	0.102
Mof_C 	C 	0.5075	0.9627	0.6687	0.118
Mof_C 	C 	0.9323	0.8076	0.3553	0.017
Mof_C 	C 	0.5842	0.7669	0.3726	0.031
Mof_C 	C 	0.4418	0.2562	0.4731	-0.083
Mof_C 	C 	0.5396	0.723	0.8604	-0.083
Mof_C 	C 	0.314	0.2056	0.7101	-0.068
Mof_C 	C 	0.6824	0.8361	0.9349	0.341
Mof_C 	C 	0.9204	0.9866	0.51	-0.056
Mof_C 	C 	0.3154	0.7175	0.4651	-0.032
Mof_C 	C 	0.9725	0.848	0.1975	0.318
Mof_C 	C 	0.0677	0.1924	0.6447	-0.011
Mof_C 	C 	0.4035	0.2038	0.7839	0.31
Mof_C 	C 	0.3386	0.2332	0.5551	0.035
Mof_C 	C 	0.8678	0.4362	0.9552	0.102
Mof_C 	C 	0.5315	0.3306	0.1721	-0.048
Mof_C 	C 	0.3676	0.6244	0.0784	0.118
Mof_C 	C 	0.5919	0.2553	0.6144	-0.074
Mof_C 	C 	0.2035	0.0146	0.4131	0.124
Mof_C 	C 	0.1643	0.2133	0.5662	-0.09
Mof_C 	C 	0.2593	0.3432	0.2637	-0.096
Mof_C 	C 	0.9681	0.8232	0.8352	-0.018
Mof_C 	C 	0.182	0.2888	0.2311	0.051
Mof_C 	C 	0.2899	0.9864	0.2815	0.133
Mof_C 	C 	0.4604	0.277	0.1396	-0.057
Mof_C 	C 	0.5706	0.6363	0.7644	-0.04
Mof_C 	C 	0.9343	0.2099	0.2298	0.017
Mof_C 	C 	0.3176	0.1639	0.0651	0.287
Mof_C 	C 	0.8357	0.7867	0.4338	-0.105
Mof_C 	C 	0.2033	0.1988	0.1335	-0.046
Mof_C 	C 	0.8368	0.0106	0.6516	-0.204
Mof_C 	C 	0.3051	0.5552	0.0622	-0.211
Mof_C 	C 	0.0796	0.0134	0.49	-0.13
Mof_C 	C 	0.5582	0.7438	0.5269	-0.088
Mof_C 	C 	0.0572	0.8799	0.8685	0.288
Mof_C 	C 	0.7965	0.9854	0.5869	0.144
Mof_C 	C 	0.0962	0.7094	0.0692	0.118
Mof_C 	C 	0.4158	0.2331	0.6274	0.036
Mof_C 	C 	0.6076	0.2814	0.4634	-0.022
Mof_C 	C 	0.6614	0.7668	0.4449	0.048
Mof_C 	C 	0.0657	0.7901	0.7702	-0.044
Mof_C 	C 	0.686	0.7944	0.2899	-0.056
Mof_C 	C 	0.9298	0.5058	0.9796	-0.024
Mof_C 	C 	0.7967	0.8012	0.8665	-0.077
Mof_C 	C 	0.6259	0.957	0.599	-0.186
Mof_C 	C 	0.4925	0.0373	0.3313	0.109
Mof_C 	C 	0.818	0.7112	0.7689	0.014
Mof_C 	C 	0.4294	0.3637	0.2356	-0.013
Mof_C 	C 	0.6846	0.2825	0.5349	-0.028
Mof_C 	C 	0.9428	0.1201	0.1315	0.316
Mof_C 	C 	0.3741	0.043	0.401	-0.189
Mof_C 	C 	0.1322	0.5638	0.0448	0.164
Mof_C 	C 	0.3924	0.7186	0.5366	-0.015
Mof_C 	C 	0.4685	0.6694	0.8279	-0.02
Mof_C 	C 	0.4081	0.7447	0.3856	-0.068
Mof_C 	C 	0.9038	0.2906	0.9308	0.094
Mof_C 	C 	0.1418	0.1843	0.7184	-0.052
Mof_C 	C 	0.5965	0.7962	0.2161	0.306
Mof_C 	C 	0.1632	0.9894	0.3484	-0.172
Mof_C 	C 	0.0319	0.1768	0.1648	-0.071
Mof_C 	C 	0.0702	0.4942	0.0204	-0.162
Mof_C 	C 	0.0275	0.152	0.8025	0.303
Mof_C 	C 	0.9743	0.357	0.9485	-0.143
Mof_C 	C 	0.0257	0.643	0.0515	-0.206
Mof_N 	N 	0.4531	0.0098	0.2711	-0.169
Mof_N 	N 	0.2676	0.7018	0.0809	-0.165
Mof_N 	N 	0.7324	0.2982	0.9191	-0.153
Mof_N 	N 	0.5469	0.9902	0.7289	-0.15
Mof_O 	O 	0.0074	0.109	0.0615	-0.291
Mof_O 	O 	0.7112	0.0406	0.9985	-0.438
Mof_O 	O 	0.5227	0.8721	0.1708	-0.295
Mof_O 	O 	0.8962	0.8999	0.1338	-0.281
Mof_O 	O 	0.6348	0.7812	0.0045	-0.306
Mof_O 	O 	0.2888	0.9594	0.0015	-0.458
Mof_O 	O 	0.3711	0.0773	0.0893	-0.291
Mof_O 	O 	0.8038	0.0867	0.1769	-0.298
Mof_O 	O 	0.5844	0.7234	0.2044	-0.253
Mof_O 	O 	0.6289	0.9227	0.9107	-0.285
Mof_O 	O 	0.8655	0.1758	0.8058	-0.273
Mof_O 	O 	0.1038	0.1001	0.8662	-0.288
Mof_O 	O 	0.1962	0.9133	0.8231	-0.284
Mof_O 	O 	0.4773	0.1279	0.8292	-0.307
Mof_O 	O 	0.1345	0.8242	0.1942	-0.279
Mof_O 	O 	0.3652	0.2188	0.9955	-0.265
Mof_O 	O 	0.4156	0.2766	0.7956	-0.255
Mof_O 	O 	0.9926	0.891	0.9385	-0.254
_end
