data_functionalizedCrystal
_audit_creation_method	'EQeq! by Chris Wilmer'
_symmetry_space_group_name_H-M	'P1'
_symmetry_Int_Tables_number	1
_symmetry_cell_setting	triclinic
loop_
_symmetry_equiv_pos_as_xyz
  x,y,z
_cell_length_a	9.525
_cell_length_b	12.0404
_cell_length_c	16.865
_cell_angle_alpha	96.5422
_cell_angle_beta	90
_cell_angle_gamma	113.3
loop_
_atom_site_label
_atom_site_type_symbol
_atom_site_fract_x
_atom_site_fract_y
_atom_site_fract_z
_atom_site_charge
Mof_Eu	Eu	0.29584	0.991	0.56575	2.617
Mof_Eu	Eu	0.70416	0.009	0.43425	2.617
Mof_Eu	Eu	0.69516	0.991	0.06575	2.584
Mof_Eu	Eu	0.30484	0.009	0.93425	2.584
Mof_Ag	Ag	0.72087	0.68268	0.91641	0.691
Mof_Ag	Ag	0.27913	0.31732	0.08359	0.691
Mof_Ag	Ag	0.03819	0.31732	0.58359	0.686
Mof_Ag	Ag	0.96181	0.68268	0.41641	0.686
Mof_H 	H 	0.5071	0.3716	0.6173	-0.035
Mof_H 	H 	0.4306	0.4214	0.3699	0.103
Mof_H 	H 	0.4929	0.6284	0.3827	-0.035
Mof_H 	H 	0.4665	0.707	0.8195	-0.004
Mof_H 	H 	0.5335	0.293	0.1805	-0.004
Mof_H 	H 	0.0092	0.5786	0.1301	0.1
Mof_H 	H 	0.2405	0.707	0.3195	-0.005
Mof_H 	H 	0.8645	0.3716	0.1173	-0.033
Mof_H 	H 	0.9481	0.6984	0.0515	-0.017
Mof_H 	H 	0.8655	0.8982	0.6675	0.033
Mof_H 	H 	0.2497	0.3016	0.4485	-0.017
Mof_H 	H 	0.6183	0.1912	0.7793	0.042
Mof_H 	H 	0.0327	0.8982	0.1675	0.037
Mof_H 	H 	0.7595	0.293	0.6805	-0.005
Mof_H 	H 	0.3817	0.8088	0.2207	0.042
Mof_H 	H 	0.5729	0.1912	0.2793	0.041
Mof_H 	H 	0.8919	0.8012	0.7728	0.015
Mof_H 	H 	0.5694	0.5786	0.6301	0.103
Mof_H 	H 	0.8256	0.4162	0.4572	-0.051
Mof_H 	H 	0.1355	0.6284	0.8827	-0.033
Mof_H 	H 	0.0519	0.3016	0.9485	-0.017
Mof_H 	H 	0.5906	0.4162	0.9572	-0.05
Mof_H 	H 	0.1345	0.1018	0.3325	0.033
Mof_H 	H 	0.7503	0.6984	0.5515	-0.017
Mof_H 	H 	0.1081	0.1988	0.2272	0.015
Mof_H 	H 	0.1744	0.5838	0.5428	-0.051
Mof_H 	H 	0.9673	0.1018	0.8325	0.037
Mof_H 	H 	0.9093	0.8012	0.2728	0.012
Mof_H 	H 	0.9908	0.4214	0.8699	0.1
Mof_H 	H 	0.0907	0.1988	0.7272	0.012
Mof_H 	H 	0.4271	0.8088	0.7207	0.041
Mof_H 	H 	0.4094	0.5838	0.0428	-0.05
Mof_C 	C 	0.7781	0.0706	0.2555	0.279
Mof_C 	C 	0.644	0.8708	0.6849	-0.129
Mof_C 	C 	0.729	0.6156	0.5478	0.128
Mof_C 	C 	0.5236	0.8094	0.7302	-0.022
Mof_C 	C 	0.9664	0.9306	0.4883	0.269
Mof_C 	C 	0.3208	0.9426	0.1215	0.523
Mof_C 	C 	0.2858	0.8094	0.2302	-0.025
Mof_C 	C 	0.3234	0.5508	0.0078	0.155
Mof_C 	C 	0.2028	0.1972	0.2383	0.02
Mof_C 	C 	0.271	0.3844	0.4522	0.128
Mof_C 	C 	0.9642	0.9306	0.9883	0.269
Mof_C 	C 	0.4513	0.2514	0.2103	0.03
Mof_C 	C 	0.4764	0.1906	0.2698	-0.022
Mof_C 	C 	0.7092	0.3728	0.0364	-0.286
Mof_C 	C 	0.0358	0.0694	0.0117	0.269
Mof_C 	C 	0.2219	0.9294	0.7445	0.279
Mof_C 	C 	0.2908	0.6272	0.9636	-0.286
Mof_C 	C 	0.6193	0.5438	0.5943	-0.232
Mof_C 	C 	0.2166	0.1366	0.3008	-0.013
Mof_C 	C 	0.08	0.8634	0.1992	-0.018
Mof_C 	C 	0.7142	0.1906	0.7698	-0.025
Mof_C 	C 	0.7834	0.8634	0.6992	-0.013
Mof_C 	C 	0.8001	0.2514	0.7103	0.031
Mof_C 	C 	0.0755	0.4562	0.9057	-0.227
Mof_C 	C 	0.1999	0.7486	0.2897	0.031
Mof_C 	C 	0.3782	0.0574	0.3785	0.527
Mof_C 	C 	0.0056	0.8028	0.2617	0.028
Mof_C 	C 	0.0336	0.0694	0.5117	0.269
Mof_C 	C 	0.3726	0.7612	0.4754	0.597
Mof_C 	C 	0.6792	0.0574	0.8785	0.523
Mof_C 	C 	0.2925	0.0706	0.7555	0.267
Mof_C 	C 	0.6114	0.2388	0.0246	0.597
Mof_C 	C 	0.6766	0.4492	0.9922	0.155
Mof_C 	C 	0.5487	0.7486	0.7897	0.03
Mof_C 	C 	0.3364	0.6272	0.4636	-0.291
Mof_C 	C 	0.356	0.1292	0.3151	-0.129
Mof_C 	C 	0.7726	0.4492	0.4922	0.16
Mof_C 	C 	0.2268	0.8708	0.1849	-0.125
Mof_C 	C 	0.9944	0.1972	0.7383	0.028
Mof_C 	C 	0.9245	0.5438	0.0943	-0.227
Mof_C 	C 	0.4162	0.5786	0.4123	0.176
Mof_C 	C 	0.3886	0.7612	0.9754	0.597
Mof_C 	C 	0.2274	0.5508	0.5078	0.16
Mof_C 	C 	0.8866	0.6156	0.0478	0.127
Mof_C 	C 	0.1624	0.5786	0.9123	0.172
Mof_C 	C 	0.3807	0.4562	0.4057	-0.232
Mof_C 	C 	0.5838	0.4214	0.5877	0.176
Mof_C 	C 	0.1134	0.3844	0.9522	0.127
Mof_C 	C 	0.7075	0.9294	0.2445	0.267
Mof_C 	C 	0.6218	0.9426	0.6215	0.527
Mof_C 	C 	0.92	0.1366	0.8008	-0.018
Mof_C 	C 	0.8376	0.4214	0.0877	0.172
Mof_C 	C 	0.7732	0.1292	0.8151	-0.125
Mof_C 	C 	0.6274	0.2388	0.5246	0.597
Mof_C 	C 	0.6636	0.3728	0.5364	-0.291
Mof_C 	C 	0.7972	0.8028	0.7617	0.02
Mof_N 	N 	0.6824	0.7466	0.8067	-0.199
Mof_N 	N 	0.2384	0.4316	0.0034	-0.24
Mof_N 	N 	0.0642	0.7466	0.3067	-0.2
Mof_N 	N 	0.3176	0.2534	0.1933	-0.199
Mof_N 	N 	0.9358	0.2534	0.6933	-0.2
Mof_N 	N 	0.8068	0.5684	0.4966	-0.24
Mof_N 	N 	0.7616	0.5684	0.9966	-0.24
Mof_N 	N 	0.1932	0.4316	0.5034	-0.24
Mof_O 	O 	0.6694	0.8796	0.3066	-0.467
Mof_O 	O 	0.83998	0.87296	0.0178	-0.521
Mof_O 	O 	0.7265	0.9802	0.5736	-0.574
Mof_O 	O 	0.03355	0.8857	0.9401	-0.485
Mof_O 	O 	0.5427	0.0418	0.878	-0.621
Mof_O 	O 	0.27262	0.79344	0.5055	-0.627
Mof_O 	O 	0.2102	0.8796	0.8066	-0.463
Mof_O 	O 	0.85215	0.8857	0.4401	-0.498
Mof_O 	O 	0.5009	0.9582	0.622	-0.624
Mof_O 	O 	0.8189	0.1232	0.3249	-0.482
Mof_O 	O 	0.96702	0.12704	0.4822	-0.516
Mof_O 	O 	0.16002	0.12704	0.9822	-0.521
Mof_O 	O 	0.3315	0.829	0.9527	-0.649
Mof_O 	O 	0.1811	0.8768	0.6751	-0.482
Mof_O 	O 	0.52082	0.79344	0.0055	-0.626
Mof_O 	O 	0.6957	0.8768	0.1751	-0.479
Mof_O 	O 	0.4573	0.9582	0.122	-0.621
Mof_O 	O 	0.03298	0.87296	0.5178	-0.516
Mof_O 	O 	0.7463	0.0198	0.9264	-0.568
Mof_O 	O 	0.5025	0.171	0.5473	-0.657
Mof_O 	O 	0.72738	0.20656	0.4945	-0.627
Mof_O 	O 	0.4975	0.829	0.4527	-0.657
Mof_O 	O 	0.14785	0.1143	0.5599	-0.498
Mof_O 	O 	0.96645	0.1143	0.0599	-0.485
Mof_O 	O 	0.6685	0.171	0.0473	-0.649
Mof_O 	O 	0.3306	0.1204	0.6934	-0.467
Mof_O 	O 	0.7898	0.1204	0.1934	-0.463
Mof_O 	O 	0.2537	0.9802	0.0736	-0.568
Mof_O 	O 	0.4991	0.0418	0.378	-0.624
Mof_O 	O 	0.47918	0.20656	0.9945	-0.626
Mof_O 	O 	0.3043	0.1232	0.8249	-0.479
Mof_O 	O 	0.2735	0.0198	0.4264	-0.574
_end
