data_functionalizedCrystal
_audit_creation_method	'EQeq! by Chris Wilmer'
_symmetry_space_group_name_H-M	'P1'
_symmetry_Int_Tables_number	1
_symmetry_cell_setting	triclinic
loop_
_symmetry_equiv_pos_as_xyz
  x,y,z
_cell_length_a	11.8493
_cell_length_b	13.9604
_cell_length_c	34.2738
_cell_angle_alpha	97.0961
_cell_angle_beta	99.4543
_cell_angle_gamma	100.103
loop_
_atom_site_label
_atom_site_type_symbol
_atom_site_fract_x
_atom_site_fract_y
_atom_site_fract_z
_atom_site_charge
Mof_Ce	Ce	0.13167	0.9573	0.75018	2.788
Mof_Ce	Ce	0.84132	0.0922	0.75257	2.585
Mof_Ce	Ce	0.51281	0.98659	0.24626	2.452
Mof_Ce	Ce	0.86833	0.0427	0.24982	2.788
Mof_Ce	Ce	0.15868	0.9078	0.24743	2.585
Mof_Ce	Ce	0.48719	0.01341	0.75374	2.452
Mof_H 	H 	0.4476	0.4518	0.8542	0.064
Mof_H 	H 	0.6039	0.5932	0.8504	0.057
Mof_H 	H 	0.9944	0.7897	0.949	0.056
Mof_H 	H 	0.1027	0.7707	0.0141	0.066
Mof_H 	H 	0.0249	0.5324	0.1206	0.063
Mof_H 	H 	0.8746	0.3897	0.1236	0.051
Mof_H 	H 	0.4675	0.2047	0.0293	0.059
Mof_H 	H 	0.3617	0.2256	0.9638	0.061
Mof_H 	H 	0.6747	0.5144	0.9599	0.142
Mof_H 	H 	0.7939	0.4767	0.0167	0.142
Mof_H 	H 	0.9282	0.6436	0.8694	0.106
Mof_H 	H 	0.9825	0.748	0.8249	-0.033
Mof_H 	H 	0.7552	0.9145	0.855	-0.031
Mof_H 	H 	0.6981	0.8071	0.8983	0.106
Mof_H 	H 	0.0007	0.7875	0.0912	0.1
Mof_H 	H 	0.1393	0.8844	0.1431	-0.034
Mof_H 	H 	0.3583	0.6968	0.128	-0.009
Mof_H 	H 	0.2127	0.5949	0.0782	0.108
Mof_H 	H 	0.5273	0.306	0.1016	0.107
Mof_H 	H 	0.5103	0.2119	0.1522	-0.025
Mof_H 	H 	0.7993	0.1117	0.1335	-0.024
Mof_H 	H 	0.8131	0.2038	0.0812	0.1
Mof_H 	H 	0.2698	0.4299	0.9022	0.107
Mof_H 	H 	0.11	0.3467	0.855	-0.005
Mof_H 	H 	0.2691	0.1159	0.8352	-0.029
Mof_H 	H 	0.4301	0.1991	0.8844	0.114
Mof_H 	H 	0.0261	0.4407	0.3607	0.057
Mof_H 	H 	0.1837	0.5819	0.3596	0.053
Mof_H 	H 	0.5284	0.8097	0.4705	0.06
Mof_H 	H 	0.6126	0.8	0.5408	0.064
Mof_H 	H 	0.5192	0.5613	0.6447	0.06
Mof_H 	H 	0.3603	0.419	0.6458	0.059
Mof_H 	H 	0.968	0.236	0.5437	0.05
Mof_H 	H 	0.8819	0.2464	0.4737	0.069
Mof_H 	H 	0.208	0.5261	0.4735	0.142
Mof_H 	H 	0.304	0.5017	0.5361	0.143
Mof_H 	H 	0.2035	0.7775	0.3983	0.101
Mof_H 	H 	0.2386	0.8731	0.3494	-0.045
Mof_H 	H 	0.5563	0.8029	0.3553	-0.007
Mof_H 	H 	0.5161	0.6976	0.4007	0.101
Mof_H 	H 	0.5102	0.8024	0.6252	0.12
Mof_H 	H 	0.6646	0.8943	0.6743	-0.062
Mof_H 	H 	0.871	0.7123	0.6416	-0.016
Mof_H 	H 	0.7175	0.6223	0.5921	0.12
Mof_H 	H 	0.0393	0.3798	0.6223	0.11
Mof_H 	H 	0.9771	0.2843	0.6679	-0.036
Mof_H 	H 	0.2072	0.1113	0.6458	-0.013
Mof_H 	H 	0.2655	0.2071	0.5985	0.107
Mof_H 	H 	0.8171	0.4205	0.3963	0.102
Mof_H 	H 	0.68	0.3231	0.3447	-0.008
Mof_H 	H 	0.8614	0.1009	0.3519	-0.026
Mof_H 	H 	0.9902	0.1979	0.4067	0.095
Mof_H 	H 	0.3187	0.2386	0.7564	-0.132
Mof_H 	H 	0.5524	0.5482	0.1458	0.063
Mof_H 	H 	0.3961	0.4068	0.1496	0.056
Mof_H 	H 	0.0056	0.2103	0.051	0.056
Mof_H 	H 	0.8973	0.2293	0.9859	0.066
Mof_H 	H 	0.9751	0.4676	0.8794	0.063
Mof_H 	H 	0.1254	0.6103	0.8764	0.051
Mof_H 	H 	0.5325	0.7953	0.9707	0.059
Mof_H 	H 	0.6383	0.7744	0.0362	0.061
Mof_H 	H 	0.3253	0.4856	0.0401	0.142
Mof_H 	H 	0.2061	0.5233	0.9833	0.142
Mof_H 	H 	0.0718	0.3564	0.1306	0.106
Mof_H 	H 	0.0175	0.252	0.1751	-0.033
Mof_H 	H 	0.2448	0.0855	0.145	-0.031
Mof_H 	H 	0.3019	0.1929	0.1017	0.106
Mof_H 	H 	0.9993	0.2125	0.9088	0.1
Mof_H 	H 	0.8607	0.1156	0.8569	-0.034
Mof_H 	H 	0.6417	0.3032	0.872	-0.009
Mof_H 	H 	0.7873	0.4051	0.9218	0.108
Mof_H 	H 	0.4727	0.694	0.8984	0.107
Mof_H 	H 	0.4897	0.7881	0.8478	-0.025
Mof_H 	H 	0.2007	0.8883	0.8665	-0.024
Mof_H 	H 	0.1869	0.7962	0.9188	0.1
Mof_H 	H 	0.7302	0.5701	0.0978	0.107
Mof_H 	H 	0.89	0.6533	0.145	-0.005
Mof_H 	H 	0.7309	0.8841	0.1648	-0.029
Mof_H 	H 	0.5699	0.8009	0.1156	0.114
Mof_H 	H 	0.9739	0.5593	0.6393	0.057
Mof_H 	H 	0.8163	0.4181	0.6404	0.053
Mof_H 	H 	0.4716	0.1903	0.5295	0.06
Mof_H 	H 	0.3874	0.2	0.4592	0.064
Mof_H 	H 	0.4808	0.4387	0.3553	0.06
Mof_H 	H 	0.6397	0.581	0.3542	0.059
Mof_H 	H 	0.032	0.764	0.4563	0.05
Mof_H 	H 	0.1181	0.7536	0.5263	0.069
Mof_H 	H 	0.792	0.4739	0.5265	0.142
Mof_H 	H 	0.696	0.4983	0.4639	0.143
Mof_H 	H 	0.7965	0.2225	0.6017	0.101
Mof_H 	H 	0.7614	0.1269	0.6506	-0.045
Mof_H 	H 	0.4437	0.1971	0.6447	-0.007
Mof_H 	H 	0.4839	0.3024	0.5993	0.101
Mof_H 	H 	0.4898	0.1976	0.3748	0.12
Mof_H 	H 	0.3354	0.1057	0.3257	-0.062
Mof_H 	H 	0.129	0.2877	0.3584	-0.016
Mof_H 	H 	0.2825	0.3777	0.4079	0.12
Mof_H 	H 	0.9607	0.6202	0.3777	0.11
Mof_H 	H 	0.0229	0.7157	0.3321	-0.036
Mof_H 	H 	0.7928	0.8887	0.3542	-0.013
Mof_H 	H 	0.7345	0.7929	0.4015	0.107
Mof_H 	H 	0.1829	0.5795	0.6037	0.102
Mof_H 	H 	0.32	0.6769	0.6553	-0.008
Mof_H 	H 	0.1386	0.8991	0.6481	-0.026
Mof_H 	H 	0.0098	0.8021	0.5933	0.095
Mof_H 	H 	0.6813	0.7614	0.2436	-0.132
Mof_C 	C 	0.541	0.4558	0.91398	0.133
Mof_C 	C 	0.5128	0.4822	0.87459	-0.09
Mof_C 	C 	0.5983	0.5593	0.8726	-0.089
Mof_C 	C 	0.6795	0.5802	0.9107	0.128
Mof_C 	C 	0.7818	0.6517	0.91938	-0.145
Mof_C 	C 	0.8682	0.6664	0.9539	0.11
Mof_C 	C 	0.9711	0.7408	0.96465	-0.068
Mof_C 	C 	0.0301	0.7312	0.0004	-0.097
Mof_C 	C 	0.9631	0.6499	0.01417	0.123
Mof_C 	C 	0.9927	0.6156	0.05046	-0.143
Mof_C 	C 	0.9291	0.5329	0.06204	0.14
Mof_C 	C 	0.9591	0.5028	0.10026	-0.1
Mof_C 	C 	0.8774	0.4256	0.10181	-0.082
Mof_C 	C 	0.794	0.4059	0.06474	0.125
Mof_C 	C 	0.6898	0.3344	0.05632	-0.138
Mof_C 	C 	0.601	0.3222	0.02283	0.113
Mof_C 	C 	0.4935	0.2517	0.01325	-0.08
Mof_C 	C 	0.4353	0.2636	0.97748	-0.079
Mof_C 	C 	0.5034	0.3434	0.96353	0.114
Mof_C 	C 	0.4748	0.378	0.92718	-0.136
Mof_C 	C 	0.8094	0.7157	0.88907	0.17
Mof_C 	C 	0.8925	0.6989	0.8666	-0.232
Mof_C 	C 	0.925	0.7609	0.84003	0.163
Mof_C 	C 	0.8737	0.8419	0.83545	-0.273
Mof_C 	C 	0.7904	0.8589	0.85762	0.163
Mof_C 	C 	0.7574	0.7954	0.88381	-0.231
Mof_C 	C 	0.9146	0.91	0.80832	0.556
Mof_C 	C 	0.0902	0.6798	0.08079	0.157
Mof_C 	C 	0.072	0.7671	0.09949	-0.21
Mof_C 	C 	0.1547	0.8255	0.12991	0.142
Mof_C 	C 	0.2608	0.798	0.14128	-0.227
Mof_C 	C 	0.2841	0.7138	0.12136	0.128
Mof_C 	C 	0.1978	0.6539	0.09143	-0.206
Mof_C 	C 	0.3492	0.8611	0.17593	0.481
Mof_C 	C 	0.6725	0.2674	0.08702	0.16
Mof_C 	C 	0.5835	0.2667	0.10807	-0.228
Mof_C 	C 	0.5731	0.211	0.13821	0.157
Mof_C 	C 	0.6541	0.1539	0.14805	-0.261
Mof_C 	C 	0.7437	0.1514	0.12695	0.147
Mof_C 	C 	0.7526	0.2069	0.0961	-0.215
Mof_C 	C 	0.6511	0.0966	0.1818	0.536
Mof_C 	C 	0.3675	0.3218	0.89826	0.153
Mof_C 	C 	0.2699	0.366	0.88885	-0.206
Mof_C 	C 	0.1759	0.317	0.86061	0.133
Mof_C 	C 	0.1741	0.2239	0.8397	-0.236
Mof_C 	C 	0.2691	0.1795	0.84876	0.153
Mof_C 	C 	0.3651	0.2296	0.8782	-0.212
Mof_C 	C 	0.0713	0.1756	0.80774	0.507
Mof_C 	C 	0.0909	0.4591	0.42418	0.129
Mof_C 	C 	0.0821	0.4767	0.38307	-0.091
Mof_C 	C 	0.1677	0.5535	0.38244	-0.088
Mof_C 	C 	0.2312	0.5844	0.42345	0.129
Mof_C 	C 	0.3266	0.6613	0.43463	-0.138
Mof_C 	C 	0.401	0.6826	0.47204	0.112
Mof_C 	C 	0.5	0.7615	0.48576	-0.077
Mof_C 	C 	0.5468	0.756	0.52444	-0.085
Mof_C 	C 	0.4796	0.6728	0.53591	0.121
Mof_C 	C 	0.499	0.6426	0.57335	-0.151
Mof_C 	C 	0.4317	0.5604	0.5842	0.136
Mof_C 	C 	0.4556	0.5316	0.6235	-0.088
Mof_C 	C 	0.3695	0.4539	0.62405	-0.091
Mof_C 	C 	0.2938	0.4344	0.58458	0.128
Mof_C 	C 	0.1907	0.3634	0.57437	-0.143
Mof_C 	C 	0.1098	0.3491	0.53856	0.108
Mof_C 	C 	0.0009	0.2789	0.52731	-0.057
Mof_C 	C 	0.9533	0.2851	0.48885	-0.1
Mof_C 	C 	0.0288	0.3593	0.47531	0.122
Mof_C 	C 	0.0166	0.3848	0.437	-0.131
Mof_C 	C 	0.3538	0.7267	0.40475	0.152
Mof_C 	C 	0.275	0.7807	0.38895	-0.215
Mof_C 	C 	0.2961	0.8389	0.36021	0.139
Mof_C 	C 	0.4016	0.8473	0.34713	-0.236
Mof_C 	C 	0.4828	0.7957	0.36344	0.13
Mof_C 	C 	0.4602	0.7344	0.39104	-0.207
Mof_C 	C 	0.4309	0.9101	0.31707	0.455
Mof_C 	C 	0.5983	0.7015	0.60361	0.187
Mof_C 	C 	0.584	0.7836	0.62825	-0.247
Mof_C 	C 	0.6765	0.8389	0.65752	0.193
Mof_C 	C 	0.7836	0.8141	0.66226	-0.278
Mof_C 	C 	0.7977	0.732	0.6382	0.165
Mof_C 	C 	0.7052	0.6775	0.60882	-0.242
Mof_C 	C 	0.8849	0.8715	0.69348	0.539
Mof_C 	C 	0.1565	0.3023	0.60537	0.17
Mof_C 	C 	0.0728	0.3242	0.6267	-0.239
Mof_C 	C 	0.0364	0.2683	0.65411	0.171
Mof_C 	C 	0.0862	0.1886	0.66168	-0.267
Mof_C 	C 	0.1722	0.166	0.64077	0.158
Mof_C 	C 	0.207	0.2229	0.61265	-0.224
Mof_C 	C 	0.0451	0.1267	0.6908	0.574
Mof_C 	C 	0.92	0.3198	0.40616	0.14
Mof_C 	C 	0.8253	0.3553	0.38746	-0.197
Mof_C 	C 	0.7445	0.298	0.35676	0.115
Mof_C 	C 	0.7565	0.2016	0.34279	-0.223
Mof_C 	C 	0.851	0.1651	0.36122	0.129
Mof_C 	C 	0.9287	0.224	0.39319	-0.196
Mof_C 	C 	0.6764	0.1386	0.3071	0.47
Mof_C 	C 	0.3621	0.1874	0.757	0.474
Mof_C 	C 	0.459	0.5442	0.08602	0.133
Mof_C 	C 	0.4872	0.5178	0.12541	-0.09
Mof_C 	C 	0.4017	0.4407	0.1274	-0.089
Mof_C 	C 	0.3205	0.4198	0.0893	0.128
Mof_C 	C 	0.2182	0.3483	0.08062	-0.145
Mof_C 	C 	0.1318	0.3336	0.0461	0.11
Mof_C 	C 	0.0289	0.2592	0.03535	-0.068
Mof_C 	C 	0.9699	0.2688	0.9996	-0.097
Mof_C 	C 	0.0369	0.3501	0.98583	0.123
Mof_C 	C 	0.0073	0.3844	0.94954	-0.143
Mof_C 	C 	0.0709	0.4671	0.93796	0.14
Mof_C 	C 	0.0409	0.4972	0.89974	-0.1
Mof_C 	C 	0.1226	0.5744	0.89819	-0.082
Mof_C 	C 	0.206	0.5941	0.93526	0.125
Mof_C 	C 	0.3102	0.6656	0.94368	-0.138
Mof_C 	C 	0.399	0.6778	0.97717	0.113
Mof_C 	C 	0.5065	0.7483	0.98675	-0.08
Mof_C 	C 	0.5647	0.7364	0.02252	-0.079
Mof_C 	C 	0.4966	0.6566	0.03647	0.114
Mof_C 	C 	0.5252	0.622	0.07282	-0.136
Mof_C 	C 	0.1906	0.2843	0.11093	0.17
Mof_C 	C 	0.1075	0.3011	0.1334	-0.232
Mof_C 	C 	0.075	0.2391	0.15997	0.163
Mof_C 	C 	0.1263	0.1581	0.16455	-0.273
Mof_C 	C 	0.2096	0.1411	0.14238	0.163
Mof_C 	C 	0.2426	0.2046	0.11619	-0.231
Mof_C 	C 	0.0854	0.09	0.19168	0.556
Mof_C 	C 	0.9098	0.3202	0.91921	0.157
Mof_C 	C 	0.928	0.2329	0.90051	-0.21
Mof_C 	C 	0.8453	0.1745	0.87009	0.142
Mof_C 	C 	0.7392	0.202	0.85872	-0.227
Mof_C 	C 	0.7159	0.2862	0.87864	0.128
Mof_C 	C 	0.8022	0.3461	0.90857	-0.206
Mof_C 	C 	0.6508	0.1389	0.82407	0.481
Mof_C 	C 	0.3275	0.7326	0.91298	0.16
Mof_C 	C 	0.4165	0.7333	0.89193	-0.228
Mof_C 	C 	0.4269	0.789	0.86179	0.157
Mof_C 	C 	0.3459	0.8461	0.85195	-0.261
Mof_C 	C 	0.2563	0.8486	0.87305	0.147
Mof_C 	C 	0.2474	0.7931	0.9039	-0.215
Mof_C 	C 	0.3489	0.9034	0.8182	0.536
Mof_C 	C 	0.6325	0.6782	0.10174	0.153
Mof_C 	C 	0.7301	0.634	0.11115	-0.206
Mof_C 	C 	0.8241	0.683	0.13939	0.133
Mof_C 	C 	0.8259	0.7761	0.1603	-0.236
Mof_C 	C 	0.7309	0.8205	0.15124	0.153
Mof_C 	C 	0.6349	0.7704	0.1218	-0.212
Mof_C 	C 	0.9287	0.8244	0.19226	0.507
Mof_C 	C 	0.9091	0.5409	0.57582	0.129
Mof_C 	C 	0.9179	0.5233	0.61693	-0.091
Mof_C 	C 	0.8323	0.4465	0.61756	-0.088
Mof_C 	C 	0.7688	0.4156	0.57655	0.129
Mof_C 	C 	0.6734	0.3387	0.56537	-0.138
Mof_C 	C 	0.599	0.3174	0.52796	0.112
Mof_C 	C 	0.5	0.2385	0.51424	-0.077
Mof_C 	C 	0.4532	0.244	0.47556	-0.085
Mof_C 	C 	0.5204	0.3272	0.46409	0.121
Mof_C 	C 	0.501	0.3574	0.42665	-0.151
Mof_C 	C 	0.5683	0.4396	0.4158	0.136
Mof_C 	C 	0.5444	0.4684	0.3765	-0.088
Mof_C 	C 	0.6305	0.5461	0.37595	-0.091
Mof_C 	C 	0.7062	0.5656	0.41542	0.128
Mof_C 	C 	0.8093	0.6366	0.42563	-0.143
Mof_C 	C 	0.8902	0.6509	0.46144	0.108
Mof_C 	C 	0.9991	0.7211	0.47269	-0.057
Mof_C 	C 	0.0467	0.7149	0.51115	-0.1
Mof_C 	C 	0.9712	0.6407	0.52469	0.122
Mof_C 	C 	0.9834	0.6152	0.563	-0.131
Mof_C 	C 	0.6462	0.2733	0.59525	0.152
Mof_C 	C 	0.725	0.2193	0.61105	-0.215
Mof_C 	C 	0.7039	0.1611	0.63979	0.139
Mof_C 	C 	0.5984	0.1527	0.65287	-0.236
Mof_C 	C 	0.5172	0.2043	0.63656	0.13
Mof_C 	C 	0.5398	0.2656	0.60896	-0.207
Mof_C 	C 	0.5691	0.0899	0.68293	0.455
Mof_C 	C 	0.4017	0.2985	0.39639	0.187
Mof_C 	C 	0.416	0.2164	0.37175	-0.247
Mof_C 	C 	0.3235	0.1611	0.34248	0.193
Mof_C 	C 	0.2164	0.1859	0.33774	-0.278
Mof_C 	C 	0.2023	0.268	0.3618	0.165
Mof_C 	C 	0.2948	0.3225	0.39118	-0.242
Mof_C 	C 	0.1151	0.1285	0.30652	0.539
Mof_C 	C 	0.8435	0.6977	0.39463	0.17
Mof_C 	C 	0.9272	0.6758	0.3733	-0.239
Mof_C 	C 	0.9636	0.7317	0.34589	0.171
Mof_C 	C 	0.9138	0.8114	0.33832	-0.267
Mof_C 	C 	0.8278	0.834	0.35923	0.158
Mof_C 	C 	0.793	0.7771	0.38735	-0.224
Mof_C 	C 	0.9549	0.8733	0.3092	0.574
Mof_C 	C 	0.08	0.6802	0.59384	0.14
Mof_C 	C 	0.1747	0.6447	0.61254	-0.197
Mof_C 	C 	0.2555	0.702	0.64324	0.115
Mof_C 	C 	0.2435	0.7984	0.65721	-0.223
Mof_C 	C 	0.149	0.8349	0.63878	0.129
Mof_C 	C 	0.0713	0.776	0.60681	-0.196
Mof_C 	C 	0.3236	0.8614	0.6929	0.47
Mof_C 	C 	0.6379	0.8126	0.243	0.474
Mof_N 	N 	0.6411	0.5162	0.93522	-0.226
Mof_N 	N 	0.866	0.6115	0.98522	-0.145
Mof_N 	N 	0.8293	0.4731	0.04101	-0.226
Mof_N 	N 	0.6031	0.3778	0.99194	-0.143
Mof_N 	N 	0.1834	0.5237	0.44763	-0.225
Mof_N 	N 	0.3901	0.6308	0.5039	-0.143
Mof_N 	N 	0.3344	0.4994	0.56116	-0.226
Mof_N 	N 	0.1239	0.3973	0.50624	-0.143
Mof_N 	N 	0.3589	0.4838	0.06478	-0.226
Mof_N 	N 	0.134	0.3885	0.01478	-0.145
Mof_N 	N 	0.1707	0.5269	0.95899	-0.226
Mof_N 	N 	0.3969	0.6222	0.00806	-0.143
Mof_N 	N 	0.8166	0.4763	0.55237	-0.225
Mof_N 	N 	0.6099	0.3692	0.4961	-0.143
Mof_N 	N 	0.6656	0.5006	0.43884	-0.226
Mof_N 	N 	0.8761	0.6027	0.49376	-0.143
Mof_O 	O 	0.9976	0.8918	0.79159	-0.636
Mof_O 	O 	0.8603	0.9791	0.80241	-0.604
Mof_O 	O 	0.3115	0.8927	0.20629	-0.776
Mof_O 	O 	0.4541	0.8829	0.17365	-0.485
Mof_O 	O 	0.5686	0.1013	0.20098	-0.609
Mof_O 	O 	0.7281	0.0492	0.19106	-0.664
Mof_O 	O 	0.9836	0.2157	0.80362	-0.58
Mof_O 	O 	0.0734	0.0965	0.78551	-0.726
Mof_O 	O 	0.3505	0.9348	0.29305	-0.726
Mof_O 	O 	0.5373	0.9403	0.3157	-0.499
Mof_O 	O 	0.868	0.947	0.71487	-0.702
Mof_O 	O 	0.9808	0.8429	0.6983	-0.6
Mof_O 	O 	0.0941	0.0558	0.69755	-0.622
Mof_O 	O 	0.9623	0.1493	0.70698	-0.646
Mof_O 	O 	0.5723	0.1514	0.2974	-0.505
Mof_O 	O 	0.7133	0.0755	0.286	-0.772
Mof_O 	O 	0.3153	0.0991	0.75989	-0.67
Mof_O 	O 	0.4742	0.2033	0.75485	-0.455
Mof_O 	O 	0.0024	0.1082	0.20841	-0.636
Mof_O 	O 	0.1397	0.0209	0.19759	-0.604
Mof_O 	O 	0.6885	0.1073	0.79371	-0.776
Mof_O 	O 	0.5459	0.1171	0.82635	-0.485
Mof_O 	O 	0.4314	0.8987	0.79902	-0.609
Mof_O 	O 	0.2719	0.9508	0.80894	-0.664
Mof_O 	O 	0.0164	0.7843	0.19638	-0.58
Mof_O 	O 	0.9266	0.9035	0.21449	-0.726
Mof_O 	O 	0.6495	0.0652	0.70695	-0.726
Mof_O 	O 	0.4627	0.0597	0.6843	-0.499
Mof_O 	O 	0.132	0.053	0.28513	-0.702
Mof_O 	O 	0.0192	0.1571	0.3017	-0.6
Mof_O 	O 	0.9059	0.9442	0.30245	-0.622
Mof_O 	O 	0.0377	0.8507	0.29302	-0.646
Mof_O 	O 	0.4277	0.8486	0.7026	-0.505
Mof_O 	O 	0.2867	0.9245	0.714	-0.772
Mof_O 	O 	0.6847	0.9009	0.24011	-0.67
Mof_O 	O 	0.5258	0.7967	0.24515	-0.455
_end
