data_functionalizedCrystal
_audit_creation_method	'EQeq! by Chris Wilmer'
_symmetry_space_group_name_H-M	'P1'
_symmetry_Int_Tables_number	1
_symmetry_cell_setting	triclinic
loop_
_symmetry_equiv_pos_as_xyz
  x,y,z
_cell_length_a	33.152
_cell_length_b	14.4302
_cell_length_c	14.0799
_cell_angle_alpha	90
_cell_angle_beta	90
_cell_angle_gamma	90
loop_
_atom_site_label
_atom_site_type_symbol
_atom_site_fract_x
_atom_site_fract_y
_atom_site_fract_z
_atom_site_charge
Mof_O 	O 	0.2822	0.6472	0.7463	-0.426
Mof_O 	O 	0.6521	0.3524	0.5831	-0.436
Mof_O 	O 	0.26891	0.3493	0.0745	-0.424
Mof_O 	O 	0.6105	0.3441	0.4586	-0.544
Mof_C 	C 	0.44471	0.4915	0.9702	0.004
Mof_O 	O 	0.23962	0.353	0.9306	-0.41
Mof_C 	C 	0.3232	0.5563	0.8484	-0.095
Mof_C 	C 	0.44784	0.4783	0.8699	-0.051
Mof_H 	H 	0.424	0.4682	0.834	0.047
Mof_C 	C 	0.52041	0.4957	0.8755	0.008
Mof_C 	C 	0.29891	0.4402	0.9542	-0.089
Mof_C 	C 	0.36088	0.5518	0.8914	-0.013
Mof_H 	H 	0.3823	0.5894	0.8684	0.053
Mof_C 	C 	0.62159	0.3752	0.5379	0.35
Mof_C 	C 	0.33635	0.4386	0.9993	-0.015
Mof_H 	H 	0.3404	0.3994	0.0527	0.048
Mof_C 	C 	0.59328	0.4444	0.5824	-0.147
Mof_C 	C 	0.36743	0.4932	0.9672	-0.005
Mof_O 	O 	0.34921	0.6508	0.728	-0.431
Mof_C 	C 	0.40683	0.4925	0.018	0.012
Mof_C 	C 	0.48096	0.4987	0.0245	-0.002
Mof_C 	C 	0.31754	0.624	0.7672	0.388
Mof_C 	C 	0.59311	0.5055	0.8829	-0.079
Mof_H 	H 	0.6183	0.5065	0.8507	0.065
Mof_O 	O 	0.48405	0.6538	0.5555	-0.423
Mof_C 	C 	0.29228	0.4992	0.879	0.037
Mof_H 	H 	0.2667	0.5007	0.8484	0.045
Mof_C 	C 	0.55826	0.502	0.8294	0.018
Mof_C 	C 	0.26587	0.3748	0.989	0.38
Mof_C 	C 	0.48367	0.48	0.8249	-0.054
Mof_H 	H 	0.4846	0.4704	0.7582	0.048
Mof_C 	C 	0.59043	0.4463	0.6807	-0.001
Mof_H 	H 	0.6078	0.4098	0.7193	0.037
Mof_C 	C 	0.56183	0.5025	0.7199	-0.01
Mof_C 	C 	0.5413	0.5593	0.5704	-0.123
Mof_C 	C 	0.5378	0.5595	0.6683	0.005
Mof_H 	H 	0.5188	0.5989	0.6988	0.041
Mof_C 	C 	0.5143	0.6202	0.5139	0.4
Mof_O 	O 	0.5231	0.6333	0.4276	-0.441
Mof_C 	C 	0.5689	0.4996	0.5274	0.067
Mof_H 	H 	0.5708	0.4971	0.4601	0.028
Mof_C 	C 	0.1976	0.2931	0.7074	0.183
Mof_C 	C 	0.1914	0.288	0.53	0.024
Mof_C 	C 	0.191	0.1472	0.631	-0.021
Mof_C 	C 	0.554	0.174	0.281	0.081
Mof_O 	O 	0.2178	0.3528	0.2463	-0.426
Mof_O 	O 	0.8479	0.6476	0.0831	-0.437
Mof_O 	O 	0.23109	0.6507	0.5745	-0.426
Mof_O 	O 	0.8895	0.6559	0.9586	-0.543
Mof_C 	C 	0.05529	0.5085	0.4702	0.005
Mof_O 	O 	0.26038	0.647	0.4306	-0.411
Mof_C 	C 	0.1768	0.4437	0.3484	-0.096
Mof_C 	C 	0.05216	0.5217	0.3699	-0.052
Mof_H 	H 	0.076	0.5318	0.334	0.046
Mof_C 	C 	0.97959	0.5043	0.3755	0.007
Mof_C 	C 	0.20109	0.5598	0.4542	-0.091
Mof_C 	C 	0.13912	0.4482	0.3914	-0.013
Mof_H 	H 	0.1177	0.4106	0.3684	0.052
Mof_C 	C 	0.87841	0.6248	0.0379	0.347
Mof_C 	C 	0.16365	0.5614	0.4993	-0.014
Mof_H 	H 	0.1596	0.6006	0.5527	0.046
Mof_C 	C 	0.90672	0.5556	0.0824	-0.146
Mof_C 	C 	0.13257	0.5068	0.4672	-0.005
Mof_O 	O 	0.15079	0.3492	0.228	-0.431
Mof_C 	C 	0.09317	0.5075	0.518	0.011
Mof_C 	C 	0.01904	0.5013	0.5245	-0.002
Mof_C 	C 	0.18246	0.376	0.2672	0.388
Mof_C 	C 	0.90689	0.4945	0.3829	-0.078
Mof_H 	H 	0.8817	0.4935	0.3507	0.064
Mof_O 	O 	0.01595	0.3462	0.0555	-0.422
Mof_C 	C 	0.20772	0.5008	0.379	0.037
Mof_H 	H 	0.2333	0.4993	0.3484	0.045
Mof_C 	C 	0.94174	0.498	0.3294	0.017
Mof_C 	C 	0.23413	0.6252	0.489	0.382
Mof_C 	C 	0.01633	0.52	0.3249	-0.053
Mof_H 	H 	0.0154	0.5296	0.2582	0.048
Mof_C 	C 	0.90957	0.5537	0.1807	-0.002
Mof_H 	H 	0.8922	0.5902	0.2193	0.037
Mof_C 	C 	0.93817	0.4975	0.2199	-0.01
Mof_C 	C 	0.9587	0.4407	0.0704	-0.121
Mof_C 	C 	0.9622	0.4405	0.1683	0.004
Mof_H 	H 	0.9812	0.4011	0.1988	0.041
Mof_C 	C 	0.9857	0.3798	0.0139	0.398
Mof_O 	O 	0.9769	0.3667	0.9276	-0.44
Mof_C 	C 	0.9311	0.5004	0.0274	0.064
Mof_H 	H 	0.9292	0.5029	0.9601	0.029
Mof_C 	C 	0.3024	0.7069	0.2074	0.183
Mof_C 	C 	0.3086	0.712	0.03	0.025
Mof_C 	C 	0.309	0.8528	0.131	-0.021
Mof_C 	C 	0.946	0.826	0.781	0.082
Mof_O 	O 	0.7178	0.1472	0.2537	-0.427
Mof_O 	O 	0.3479	0.8524	0.4169	-0.437
Mof_O 	O 	0.73109	0.8493	0.9255	-0.425
Mof_O 	O 	0.3895	0.8441	0.5414	-0.545
Mof_C 	C 	0.55529	0.9915	0.0298	0.002
Mof_O 	O 	0.76038	0.853	0.0694	-0.411
Mof_C 	C 	0.6768	0.0563	0.1516	-0.096
Mof_C 	C 	0.55216	0.9783	0.1301	-0.051
Mof_H 	H 	0.576	0.9682	0.166	0.045
Mof_C 	C 	0.47959	0.9957	0.1245	0.005
Mof_C 	C 	0.70109	0.9402	0.0458	-0.09
Mof_C 	C 	0.63912	0.0518	0.1086	-0.013
Mof_H 	H 	0.6177	0.0894	0.1316	0.052
Mof_C 	C 	0.37841	0.8752	0.4621	0.349
Mof_C 	C 	0.66365	0.9386	0.0007	-0.016
Mof_H 	H 	0.6596	0.8994	0.9473	0.047
Mof_C 	C 	0.40672	0.9444	0.4176	-0.147
Mof_C 	C 	0.63257	0.9932	0.0328	-0.006
Mof_O 	O 	0.65079	0.1508	0.272	-0.431
Mof_C 	C 	0.59317	0.9925	0.982	0.014
Mof_C 	C 	0.51904	0.9987	0.9755	-0.001
Mof_C 	C 	0.68246	0.124	0.2328	0.388
Mof_C 	C 	0.40689	0.0055	0.1171	-0.08
Mof_H 	H 	0.3817	0.0065	0.1493	0.065
Mof_O 	O 	0.51595	0.1538	0.4445	-0.423
Mof_C 	C 	0.70772	0.9992	0.121	0.036
Mof_H 	H 	0.7333	0.0007	0.1516	0.045
Mof_C 	C 	0.44174	0.002	0.1706	0.019
Mof_C 	C 	0.73413	0.8748	0.011	0.38
Mof_C 	C 	0.51633	0.98	0.1751	-0.053
Mof_H 	H 	0.5154	0.9704	0.2418	0.048
Mof_C 	C 	0.40957	0.9463	0.3193	-0.001
Mof_H 	H 	0.3922	0.9098	0.2807	0.037
Mof_C 	C 	0.43817	0.0025	0.2801	-0.01
Mof_C 	C 	0.4587	0.0593	0.4296	-0.122
Mof_C 	C 	0.4622	0.0595	0.3317	0.005
Mof_H 	H 	0.4812	0.0989	0.3012	0.041
Mof_C 	C 	0.4857	0.1202	0.4861	0.4
Mof_O 	O 	0.4769	0.1333	0.5724	-0.441
Mof_C 	C 	0.4311	0.9996	0.4726	0.066
Mof_H 	H 	0.4292	0.9971	0.5399	0.028
Mof_C 	C 	0.8024	0.7931	0.2926	0.183
Mof_C 	C 	0.8086	0.788	0.47	0.024
Mof_C 	C 	0.809	0.6472	0.369	-0.021
Mof_C 	C 	0.446	0.674	0.719	0.081
Mof_O 	O 	0.7822	0.8528	0.7537	-0.426
Mof_O 	O 	0.1521	0.1476	0.9169	-0.436
Mof_O 	O 	0.76891	0.1507	0.4255	-0.426
Mof_O 	O 	0.1105	0.1559	0.0414	-0.543
Mof_C 	C 	0.94471	0.0085	0.5298	0.004
Mof_O 	O 	0.73962	0.147	0.5694	-0.411
Mof_C 	C 	0.8232	0.9437	0.6516	-0.095
Mof_C 	C 	0.94784	0.0217	0.6301	-0.052
Mof_H 	H 	0.924	0.0318	0.666	0.045
Mof_C 	C 	0.02041	0.0043	0.6245	0.01
Mof_C 	C 	0.79891	0.0598	0.5458	-0.09
Mof_C 	C 	0.86088	0.9482	0.6086	-0.013
Mof_H 	H 	0.8823	0.9106	0.6316	0.052
Mof_C 	C 	0.12159	0.1248	0.9621	0.347
Mof_C 	C 	0.83635	0.0614	0.5007	-0.014
Mof_H 	H 	0.8404	0.1006	0.4473	0.046
Mof_C 	C 	0.09328	0.0556	0.9176	-0.145
Mof_C 	C 	0.86743	0.0068	0.5328	-0.005
Mof_O 	O 	0.84921	0.8492	0.772	-0.431
Mof_C 	C 	0.90683	0.0075	0.482	0.011
Mof_C 	C 	0.98096	0.0013	0.4755	-0.003
Mof_C 	C 	0.81754	0.876	0.7328	0.388
Mof_C 	C 	0.09311	0.9945	0.6171	-0.077
Mof_H 	H 	0.1183	0.9935	0.6493	0.064
Mof_O 	O 	0.98405	0.8462	0.9445	-0.422
Mof_C 	C 	0.79228	0.0008	0.621	0.035
Mof_H 	H 	0.7667	0.9993	0.6516	0.046
Mof_C 	C 	0.05826	0.998	0.6706	0.016
Mof_C 	C 	0.76587	0.1252	0.511	0.382
Mof_C 	C 	0.98367	0.02	0.6751	-0.056
Mof_H 	H 	0.9846	0.0296	0.7418	0.049
Mof_C 	C 	0.09043	0.0537	0.8193	-0.002
Mof_H 	H 	0.1078	0.0902	0.7807	0.037
Mof_C 	C 	0.06183	0.9975	0.7801	-0.01
Mof_C 	C 	0.0413	0.9407	0.9296	-0.121
Mof_C 	C 	0.0378	0.9405	0.8317	0.004
Mof_H 	H 	0.0188	0.9011	0.8012	0.041
Mof_C 	C 	0.0143	0.8798	0.9861	0.398
Mof_O 	O 	0.0231	0.8667	0.0724	-0.44
Mof_C 	C 	0.0689	0.0004	0.9726	0.063
Mof_H 	H 	0.0708	0.0029	0.0399	0.03
Mof_C 	C 	0.6976	0.2069	0.7926	0.183
Mof_C 	C 	0.6914	0.212	0.97	0.024
Mof_C 	C 	0.691	0.3528	0.869	-0.02
Mof_C 	C 	0.054	0.326	0.219	0.082
Mof_O 	O 	0.7178	0.3528	0.2537	-0.427
Mof_O 	O 	0.3479	0.6476	0.4169	-0.437
Mof_O 	O 	0.73109	0.6507	0.9255	-0.425
Mof_O 	O 	0.3895	0.6559	0.5414	-0.545
Mof_C 	C 	0.55529	0.5085	0.0298	0.003
Mof_O 	O 	0.76038	0.647	0.0694	-0.411
Mof_C 	C 	0.6768	0.4437	0.1516	-0.096
Mof_C 	C 	0.55216	0.5217	0.1301	-0.052
Mof_H 	H 	0.576	0.5318	0.166	0.046
Mof_C 	C 	0.47959	0.5043	0.1245	0.007
Mof_C 	C 	0.70109	0.5598	0.0458	-0.09
Mof_C 	C 	0.63912	0.4482	0.1086	-0.014
Mof_H 	H 	0.6177	0.4106	0.1316	0.052
Mof_C 	C 	0.37841	0.6248	0.4621	0.349
Mof_C 	C 	0.66365	0.5614	0.0007	-0.016
Mof_H 	H 	0.6596	0.6006	0.9473	0.047
Mof_C 	C 	0.40672	0.5556	0.4176	-0.147
Mof_C 	C 	0.63257	0.5068	0.0328	-0.005
Mof_O 	O 	0.65079	0.3492	0.272	-0.431
Mof_C 	C 	0.59317	0.5075	0.982	0.012
Mof_C 	C 	0.51904	0.5013	0.9755	-0.002
Mof_C 	C 	0.68246	0.376	0.2328	0.388
Mof_C 	C 	0.40689	0.4945	0.1171	-0.079
Mof_H 	H 	0.3817	0.4935	0.1493	0.065
Mof_O 	O 	0.51595	0.3462	0.4445	-0.423
Mof_C 	C 	0.70772	0.5008	0.121	0.037
Mof_H 	H 	0.7333	0.4993	0.1516	0.045
Mof_C 	C 	0.44174	0.498	0.1706	0.018
Mof_C 	C 	0.73413	0.6252	0.011	0.38
Mof_C 	C 	0.51633	0.52	0.1751	-0.054
Mof_H 	H 	0.5154	0.5296	0.2418	0.048
Mof_C 	C 	0.40957	0.5537	0.3193	-0.001
Mof_H 	H 	0.3922	0.5902	0.2807	0.037
Mof_C 	C 	0.43817	0.4975	0.2801	-0.01
Mof_C 	C 	0.4587	0.4407	0.4296	-0.123
Mof_C 	C 	0.4622	0.4405	0.3317	0.005
Mof_H 	H 	0.4812	0.4011	0.3012	0.041
Mof_C 	C 	0.4857	0.3798	0.4861	0.4
Mof_O 	O 	0.4769	0.3667	0.5724	-0.441
Mof_C 	C 	0.4311	0.5004	0.4726	0.067
Mof_H 	H 	0.4292	0.5029	0.5399	0.028
Mof_C 	C 	0.8024	0.7069	0.2926	0.183
Mof_C 	C 	0.8086	0.712	0.47	0.024
Mof_C 	C 	0.809	0.8528	0.369	-0.021
Mof_C 	C 	0.446	0.826	0.719	0.081
Mof_O 	O 	0.7822	0.6472	0.7537	-0.426
Mof_O 	O 	0.1521	0.3524	0.9169	-0.437
Mof_O 	O 	0.76891	0.3493	0.4255	-0.426
Mof_O 	O 	0.1105	0.3441	0.0414	-0.543
Mof_C 	C 	0.94471	0.4915	0.5298	0.005
Mof_O 	O 	0.73962	0.353	0.5694	-0.411
Mof_C 	C 	0.8232	0.5563	0.6516	-0.096
Mof_C 	C 	0.94784	0.4783	0.6301	-0.052
Mof_H 	H 	0.924	0.4682	0.666	0.046
Mof_C 	C 	0.02041	0.4957	0.6245	0.007
Mof_C 	C 	0.79891	0.4402	0.5458	-0.091
Mof_C 	C 	0.86088	0.5518	0.6086	-0.013
Mof_H 	H 	0.8823	0.5894	0.6316	0.052
Mof_C 	C 	0.12159	0.3752	0.9621	0.347
Mof_C 	C 	0.83635	0.4386	0.5007	-0.014
Mof_H 	H 	0.8404	0.3994	0.4473	0.046
Mof_C 	C 	0.09328	0.4444	0.9176	-0.146
Mof_C 	C 	0.86743	0.4932	0.5328	-0.005
Mof_O 	O 	0.84921	0.6508	0.772	-0.431
Mof_C 	C 	0.90683	0.4925	0.482	0.011
Mof_C 	C 	0.98096	0.4987	0.4755	-0.002
Mof_C 	C 	0.81754	0.624	0.7328	0.388
Mof_C 	C 	0.09311	0.5055	0.6171	-0.078
Mof_H 	H 	0.1183	0.5065	0.6493	0.064
Mof_O 	O 	0.98405	0.6538	0.9445	-0.422
Mof_C 	C 	0.79228	0.4992	0.621	0.037
Mof_H 	H 	0.7667	0.5007	0.6516	0.045
Mof_C 	C 	0.05826	0.502	0.6706	0.017
Mof_C 	C 	0.76587	0.3748	0.511	0.382
Mof_C 	C 	0.98367	0.48	0.6751	-0.053
Mof_H 	H 	0.9846	0.4704	0.7418	0.048
Mof_C 	C 	0.09043	0.4463	0.8193	-0.002
Mof_H 	H 	0.1078	0.4098	0.7807	0.037
Mof_C 	C 	0.06183	0.5025	0.7801	-0.01
Mof_C 	C 	0.0413	0.5593	0.9296	-0.121
Mof_C 	C 	0.0378	0.5595	0.8317	0.004
Mof_H 	H 	0.0188	0.5989	0.8012	0.041
Mof_C 	C 	0.0143	0.6202	0.9861	0.398
Mof_O 	O 	0.0231	0.6333	0.0724	-0.44
Mof_C 	C 	0.0689	0.4996	0.9726	0.064
Mof_H 	H 	0.0708	0.4971	0.0399	0.029
Mof_C 	C 	0.6976	0.2931	0.7926	0.183
Mof_C 	C 	0.6914	0.288	0.97	0.025
Mof_C 	C 	0.691	0.1472	0.869	-0.021
Mof_C 	C 	0.054	0.174	0.219	0.082
Mof_O 	O 	0.2822	0.8528	0.7463	-0.427
Mof_O 	O 	0.6521	0.1476	0.5831	-0.437
Mof_O 	O 	0.26891	0.1507	0.0745	-0.425
Mof_O 	O 	0.6105	0.1559	0.4586	-0.545
Mof_C 	C 	0.44471	0.0085	0.9702	0.002
Mof_O 	O 	0.23962	0.147	0.9306	-0.411
Mof_C 	C 	0.3232	0.9437	0.8484	-0.096
Mof_C 	C 	0.44784	0.0217	0.8699	-0.051
Mof_H 	H 	0.424	0.0318	0.834	0.045
Mof_C 	C 	0.52041	0.0043	0.8755	0.005
Mof_C 	C 	0.29891	0.0598	0.9542	-0.09
Mof_C 	C 	0.36088	0.9482	0.8914	-0.013
Mof_H 	H 	0.3823	0.9106	0.8684	0.052
Mof_C 	C 	0.62159	0.1248	0.5379	0.349
Mof_C 	C 	0.33635	0.0614	0.9993	-0.016
Mof_H 	H 	0.3404	0.1006	0.0527	0.047
Mof_C 	C 	0.59328	0.0556	0.5824	-0.147
Mof_C 	C 	0.36743	0.0068	0.9672	-0.006
Mof_O 	O 	0.34921	0.8492	0.728	-0.431
Mof_C 	C 	0.40683	0.0075	0.018	0.014
Mof_C 	C 	0.48096	0.0013	0.0245	-0.001
Mof_C 	C 	0.31754	0.876	0.7672	0.388
Mof_C 	C 	0.59311	0.9945	0.8829	-0.08
Mof_H 	H 	0.6183	0.9935	0.8507	0.065
Mof_O 	O 	0.48405	0.8462	0.5555	-0.423
Mof_C 	C 	0.29228	0.0008	0.879	0.036
Mof_H 	H 	0.2667	0.9993	0.8484	0.045
Mof_C 	C 	0.55826	0.998	0.8294	0.019
Mof_C 	C 	0.26587	0.1252	0.989	0.38
Mof_C 	C 	0.48367	0.02	0.8249	-0.053
Mof_H 	H 	0.4846	0.0296	0.7582	0.048
Mof_C 	C 	0.59043	0.0537	0.6807	-0.001
Mof_H 	H 	0.6078	0.0902	0.7193	0.037
Mof_C 	C 	0.56183	0.9975	0.7199	-0.01
Mof_C 	C 	0.5413	0.9407	0.5704	-0.122
Mof_C 	C 	0.5378	0.9405	0.6683	0.005
Mof_H 	H 	0.5188	0.9011	0.6988	0.041
Mof_C 	C 	0.5143	0.8798	0.5139	0.4
Mof_O 	O 	0.5231	0.8667	0.4276	-0.441
Mof_C 	C 	0.5689	0.0004	0.5274	0.066
Mof_H 	H 	0.5708	0.0029	0.4601	0.028
Mof_C 	C 	0.1976	0.2069	0.7074	0.183
Mof_C 	C 	0.1914	0.212	0.53	0.024
Mof_C 	C 	0.191	0.3528	0.631	-0.021
Mof_C 	C 	0.554	0.326	0.281	0.081
Mof_O 	O 	0.2178	0.1472	0.2463	-0.426
Mof_O 	O 	0.8479	0.8524	0.0831	-0.436
Mof_O 	O 	0.23109	0.8493	0.5745	-0.426
Mof_O 	O 	0.8895	0.8441	0.9586	-0.543
Mof_C 	C 	0.05529	0.9915	0.4702	0.004
Mof_O 	O 	0.26038	0.853	0.4306	-0.411
Mof_C 	C 	0.1768	0.0563	0.3484	-0.095
Mof_C 	C 	0.05216	0.9783	0.3699	-0.052
Mof_H 	H 	0.076	0.9682	0.334	0.045
Mof_C 	C 	0.97959	0.9957	0.3755	0.01
Mof_C 	C 	0.20109	0.9402	0.4542	-0.09
Mof_C 	C 	0.13912	0.0518	0.3914	-0.013
Mof_H 	H 	0.1177	0.0894	0.3684	0.052
Mof_C 	C 	0.87841	0.8752	0.0379	0.347
Mof_C 	C 	0.16365	0.9386	0.4993	-0.014
Mof_H 	H 	0.1596	0.8994	0.5527	0.046
Mof_C 	C 	0.90672	0.9444	0.0824	-0.145
Mof_C 	C 	0.13257	0.9932	0.4672	-0.005
Mof_O 	O 	0.15079	0.1508	0.228	-0.431
Mof_C 	C 	0.09317	0.9925	0.518	0.011
Mof_C 	C 	0.01904	0.9987	0.5245	-0.003
Mof_C 	C 	0.18246	0.124	0.2672	0.388
Mof_C 	C 	0.90689	0.0055	0.3829	-0.077
Mof_H 	H 	0.8817	0.0065	0.3507	0.064
Mof_O 	O 	0.01595	0.1538	0.0555	-0.422
Mof_C 	C 	0.20772	0.9992	0.379	0.035
Mof_H 	H 	0.2333	0.0007	0.3484	0.046
Mof_C 	C 	0.94174	0.002	0.3294	0.016
Mof_C 	C 	0.23413	0.8748	0.489	0.382
Mof_C 	C 	0.01633	0.98	0.3249	-0.056
Mof_H 	H 	0.0154	0.9704	0.2582	0.049
Mof_C 	C 	0.90957	0.9463	0.1807	-0.002
Mof_H 	H 	0.8922	0.9098	0.2193	0.037
Mof_C 	C 	0.93817	0.0025	0.2199	-0.01
Mof_C 	C 	0.9587	0.0593	0.0704	-0.121
Mof_C 	C 	0.9622	0.0595	0.1683	0.004
Mof_H 	H 	0.9812	0.0989	0.1988	0.041
Mof_C 	C 	0.9857	0.1202	0.0139	0.398
Mof_O 	O 	0.9769	0.1333	0.9276	-0.44
Mof_C 	C 	0.9311	0.9996	0.0274	0.063
Mof_H 	H 	0.9292	0.9971	0.9601	0.03
Mof_C 	C 	0.3024	0.7931	0.2074	0.183
Mof_C 	C 	0.3086	0.788	0.03	0.024
Mof_C 	C 	0.309	0.6472	0.131	-0.02
Mof_C 	C 	0.946	0.674	0.781	0.082
Mof_Co	Co	0.24118	0.25	0.15735	1.18
Mof_Co	Co	0.19637	0.25	0.92921	1.211
Mof_Co	Co	0.5572	0.25	0.46655	1.18
Mof_O 	O 	0.1989	0.25	0.7819	-0.41
Mof_N 	N 	0.1934	0.25	0.624	-0.171
Mof_O 	O 	0.5743	0.25	0.3166	-0.414
Mof_O 	O 	0.5615	0.25	0.6137	2.526
Mof_O 	O 	0.0889	0.25	0.72	-0.19
Mof_C 	C 	0.1601	0.25	0.534	0.046
Mof_C 	C 	0.126	0.25	0.697	0.133
Mof_C 	C 	0.0814	0.25	0.566	0.067
Mof_N 	N 	0.1246	0.25	0.601	-0.124
Mof_Co	Co	0.4769	0.25	0.6477	0.467
Mof_O 	O 	0.5216	0.25	0.7417	-0.232
Mof_Co	Co	0.4955	0.25	0.6421	1.011
Mof_O 	O 	0.5555	0.25	0.707	-0.206
Mof_O 	O 	0.5444	0.25	0.6084	-2.921
Mof_Co	Co	0.25882	0.75	0.65735	1.18
Mof_Co	Co	0.30363	0.75	0.42921	1.211
Mof_Co	Co	0.9428	0.75	0.96655	1.18
Mof_O 	O 	0.3011	0.75	0.2819	-0.41
Mof_N 	N 	0.3066	0.75	0.124	-0.171
Mof_O 	O 	0.9257	0.75	0.8166	-0.414
Mof_O 	O 	0.9385	0.75	0.1137	2.526
Mof_O 	O 	0.4111	0.75	0.22	-0.19
Mof_C 	C 	0.3399	0.75	0.034	0.046
Mof_C 	C 	0.374	0.75	0.197	0.133
Mof_C 	C 	0.4186	0.75	0.066	0.067
Mof_N 	N 	0.3754	0.75	0.101	-0.124
Mof_Co	Co	0.0231	0.75	0.1477	0.467
Mof_O 	O 	0.9784	0.75	0.2417	-0.232
Mof_Co	Co	0.0045	0.75	0.1421	1.011
Mof_O 	O 	0.9445	0.75	0.207	-0.206
Mof_O 	O 	0.9556	0.75	0.1084	-2.921
Mof_Co	Co	0.75882	0.75	0.84265	1.18
Mof_Co	Co	0.80363	0.75	0.07079	1.211
Mof_Co	Co	0.4428	0.75	0.53345	1.18
Mof_O 	O 	0.8011	0.75	0.2181	-0.41
Mof_N 	N 	0.8066	0.75	0.376	-0.171
Mof_O 	O 	0.4257	0.75	0.6834	-0.414
Mof_O 	O 	0.4385	0.75	0.3863	2.526
Mof_O 	O 	0.9111	0.75	0.28	-0.19
Mof_C 	C 	0.8399	0.75	0.466	0.046
Mof_C 	C 	0.874	0.75	0.303	0.133
Mof_C 	C 	0.9186	0.75	0.434	0.067
Mof_N 	N 	0.8754	0.75	0.399	-0.124
Mof_Co	Co	0.5231	0.75	0.3523	0.467
Mof_O 	O 	0.4784	0.75	0.2583	-0.232
Mof_Co	Co	0.5045	0.75	0.3579	1.011
Mof_O 	O 	0.4445	0.75	0.293	-0.206
Mof_O 	O 	0.4556	0.75	0.3916	-2.921
Mof_Co	Co	0.74118	0.25	0.34265	1.18
Mof_Co	Co	0.69637	0.25	0.57079	1.211
Mof_Co	Co	0.0572	0.25	0.03345	1.18
Mof_O 	O 	0.6989	0.25	0.7181	-0.41
Mof_N 	N 	0.6934	0.25	0.876	-0.171
Mof_O 	O 	0.0743	0.25	0.1834	-0.414
Mof_O 	O 	0.0615	0.25	0.8863	2.526
Mof_O 	O 	0.5889	0.25	0.78	-0.19
Mof_C 	C 	0.6601	0.25	0.966	0.046
Mof_C 	C 	0.626	0.25	0.803	0.133
Mof_C 	C 	0.5814	0.25	0.934	0.067
Mof_N 	N 	0.6246	0.25	0.899	-0.124
Mof_Co	Co	0.9769	0.25	0.8523	0.467
Mof_O 	O 	0.0216	0.25	0.7583	-0.232
Mof_Co	Co	0.9955	0.25	0.8579	1.011
Mof_O 	O 	0.0555	0.25	0.793	-0.206
Mof_O 	O 	0.0444	0.25	0.8916	-2.921
Mof_Co	Co	0.36281	0.75	0.63345	1.196
Mof_O 	O 	0.30831	0.75	0.5718	-0.585
Mof_Co	Co	0.13719	0.25	0.13345	1.196
Mof_O 	O 	0.19169	0.25	0.0718	-0.584
Mof_Co	Co	0.63719	0.25	0.36655	1.196
Mof_O 	O 	0.69169	0.25	0.4282	-0.585
Mof_Co	Co	0.86281	0.75	0.86655	1.196
Mof_O 	O 	0.80831	0.75	0.9282	-0.584
_end
