data_functionalizedCrystal
_audit_creation_method	'EQeq! by Chris Wilmer'
_symmetry_space_group_name_H-M	'P1'
_symmetry_Int_Tables_number	1
_symmetry_cell_setting	triclinic
loop_
_symmetry_equiv_pos_as_xyz
  x,y,z
_cell_length_a	15.7125
_cell_length_b	15.7125
_cell_length_c	26.1359
_cell_angle_alpha	107.493
_cell_angle_beta	107.493
_cell_angle_gamma	90
loop_
_atom_site_label
_atom_site_type_symbol
_atom_site_fract_x
_atom_site_fract_y
_atom_site_fract_z
_atom_site_charge
Mof_Cu	Cu	0.3033	0.29646	0.71826	0.903
Mof_Cu	Cu	0.41496	0.4218	0.71826	0.903
Mof_Cu	Cu	0.54646	0.16496	0.21826	0.903
Mof_Cu	Cu	0.6718	0.0533	0.21826	0.901
Mof_Cu	Cu	0.83504	0.45354	0.78174	0.903
Mof_Cu	Cu	0.9467	0.3282	0.78174	0.901
Mof_Cu	Cu	0.5782	0.58504	0.28174	0.903
Mof_Cu	Cu	0.70354	0.6967	0.28174	0.903
Mof_H 	H 	0.4027	0.6069	0.8786	0.045
Mof_H 	H 	0.0075	0.6418	0.9376	0.092
Mof_H 	H 	0.1574	0.4727	0.82	0.074
Mof_H 	H 	0.3691	0.7007	0.9528	0.074
Mof_H 	H 	0.4759	0.2717	0.8786	0.043
Mof_H 	H 	0.9301	0.2958	0.9376	0.087
Mof_H 	H 	0.6626	0.3473	0.82	0.073
Mof_H 	H 	0.5837	0.2521	0.9528	0.073
Mof_H 	H 	0.8569	0.2259	0.3786	0.042
Mof_H 	H 	0.8918	0.6801	0.4376	0.087
Mof_H 	H 	0.7227	0.4126	0.32	0.073
Mof_H 	H 	0.9507	0.3337	0.4528	0.071
Mof_H 	H 	0.5217	0.1527	0.3786	0.037
Mof_H 	H 	0.5458	0.7575	0.4376	0.091
Mof_H 	H 	0.5973	0.9074	0.32	0.067
Mof_H 	H 	0.5021	0.1191	0.4528	0.081
Mof_H 	H 	0.7741	0.1431	0.6214	0.042
Mof_H 	H 	0.3199	0.1082	0.5624	0.087
Mof_H 	H 	0.5874	0.2773	0.68	0.073
Mof_H 	H 	0.6663	0.0493	0.5472	0.071
Mof_H 	H 	0.8473	0.4783	0.6214	0.037
Mof_H 	H 	0.2425	0.4542	0.5624	0.091
Mof_H 	H 	0.0926	0.4027	0.68	0.067
Mof_H 	H 	0.8809	0.4979	0.5472	0.081
Mof_H 	H 	0.7283	0.5241	0.1214	0.043
Mof_H 	H 	0.7042	0.0699	0.0624	0.087
Mof_H 	H 	0.6527	0.3374	0.18	0.073
Mof_H 	H 	0.7479	0.4163	0.0472	0.073
Mof_H 	H 	0.3931	0.5973	0.1214	0.044
Mof_H 	H 	0.3582	0.9925	0.0624	0.091
Mof_H 	H 	0.5273	0.8426	0.18	0.074
Mof_H 	H 	0.2993	0.6309	0.0472	0.074
Mof_C 	C 	0.3463	0.5998	0.8822	0.015
Mof_C 	C 	0.28274	0.52974	0.84188	-0.071
Mof_C 	C 	0.08757	0.57747	0.89574	-0.05
Mof_C 	C 	0.21757	0.71207	0.97694	-0.033
Mof_C 	C 	0.17446	0.58026	0.89092	0.027
Mof_C 	C 	0.23983	0.65123	0.93226	0.036
Mof_C 	C 	0.13063	0.70773	0.97826	0.153
Mof_C 	C 	0.06645	0.64205	0.9371	-0.102
Mof_C 	C 	0.01322	0.50712	0.85464	0.357
Mof_C 	C 	0.1987	0.5196	0.8464	-0.034
Mof_C 	C 	0.32536	0.65656	0.92592	-0.085
Mof_C 	C 	0.30864	0.46634	0.79468	0.354
Mof_C 	C 	0.0223	0.803	0.0128	0.08
Mof_C 	C 	0.023	0.8885	0.0578	0.001
Mof_C 	C 	0.5359	0.2824	0.8822	0.015
Mof_C 	C 	0.55914	0.31214	0.84188	-0.072
Mof_C 	C 	0.80817	0.31827	0.89574	-0.05
Mof_C 	C 	0.75937	0.26487	0.97694	-0.033
Mof_C 	C 	0.71646	0.31066	0.89092	0.025
Mof_C 	C 	0.69243	0.28103	0.93226	0.036
Mof_C 	C 	0.84763	0.27053	0.97826	0.152
Mof_C 	C 	0.87065	0.29505	0.9371	-0.104
Mof_C 	C 	0.84142	0.34752	0.85464	0.348
Mof_C 	C 	0.6477	0.3268	0.8464	-0.034
Mof_C 	C 	0.60056	0.26936	0.92592	-0.086
Mof_C 	C 	0.48604	0.32834	0.79468	0.354
Mof_C 	C 	0.9905	0.2098	0.0128	0.068
Mof_C 	C 	0.0348	0.1693	0.0578	0.002
Mof_C 	C 	0.8498	0.2859	0.3822	0.015
Mof_C 	C 	0.77974	0.30914	0.34188	-0.073
Mof_C 	C 	0.82747	0.55817	0.39574	-0.05
Mof_C 	C 	0.96207	0.50937	0.47694	-0.036
Mof_C 	C 	0.83026	0.46646	0.39092	0.025
Mof_C 	C 	0.90123	0.44243	0.43226	0.035
Mof_C 	C 	0.95773	0.59763	0.47826	0.145
Mof_C 	C 	0.89205	0.62065	0.4371	-0.101
Mof_C 	C 	0.75712	0.59142	0.35464	0.348
Mof_C 	C 	0.7696	0.3977	0.3464	-0.034
Mof_C 	C 	0.90656	0.35056	0.42592	-0.087
Mof_C 	C 	0.71634	0.23604	0.29468	0.354
Mof_C 	C 	0.053	0.7405	0.5128	0.081
Mof_C 	C 	0.1385	0.7848	0.5578	-0.002
Mof_C 	C 	0.5324	0.0963	0.3822	0.034
Mof_C 	C 	0.56214	0.03274	0.34188	-0.093
Mof_C 	C 	0.56827	0.83757	0.39574	-0.043
Mof_C 	C 	0.51487	0.96757	0.47694	-0.033
Mof_C 	C 	0.56066	0.92446	0.39092	0.014
Mof_C 	C 	0.53103	0.98983	0.43226	0.054
Mof_C 	C 	0.52053	0.88063	0.47826	0.155
Mof_C 	C 	0.54505	0.81645	0.4371	-0.108
Mof_C 	C 	0.59752	0.76322	0.35464	0.346
Mof_C 	C 	0.5768	0.9487	0.3464	-0.011
Mof_C 	C 	0.51936	0.07536	0.42592	-0.11
Mof_C 	C 	0.57834	0.05864	0.29468	0.36
Mof_C 	C 	0.4598	0.7723	0.5128	0.078
Mof_C 	C 	0.4193	0.773	0.5578	-0.003
Mof_C 	C 	0.7141	0.1502	0.6178	0.015
Mof_C 	C 	0.69086	0.22026	0.65812	-0.073
Mof_C 	C 	0.44183	0.17253	0.60426	-0.05
Mof_C 	C 	0.49063	0.03793	0.52306	-0.036
Mof_C 	C 	0.53354	0.16974	0.60908	0.025
Mof_C 	C 	0.55757	0.09877	0.56774	0.035
Mof_C 	C 	0.40237	0.04227	0.52174	0.145
Mof_C 	C 	0.37935	0.10795	0.5629	-0.101
Mof_C 	C 	0.40858	0.24288	0.64536	0.348
Mof_C 	C 	0.6023	0.2304	0.6536	-0.034
Mof_C 	C 	0.64944	0.09344	0.57408	-0.087
Mof_C 	C 	0.76396	0.28366	0.70532	0.354
Mof_C 	C 	0.2595	0.947	0.4872	0.081
Mof_C 	C 	0.2152	0.8615	0.4422	-0.002
Mof_C 	C 	0.9037	0.4676	0.6178	0.034
Mof_C 	C 	0.96726	0.43786	0.65812	-0.093
Mof_C 	C 	0.16243	0.43173	0.60426	-0.043
Mof_C 	C 	0.03243	0.48513	0.52306	-0.033
Mof_C 	C 	0.07554	0.43934	0.60908	0.014
Mof_C 	C 	0.01017	0.46897	0.56774	0.054
Mof_C 	C 	0.11937	0.47947	0.52174	0.155
Mof_C 	C 	0.18355	0.45495	0.5629	-0.108
Mof_C 	C 	0.23678	0.40248	0.64536	0.346
Mof_C 	C 	0.0513	0.4232	0.6536	-0.011
Mof_C 	C 	0.92464	0.48064	0.57408	-0.11
Mof_C 	C 	0.94136	0.42166	0.70532	0.36
Mof_C 	C 	0.2277	0.5402	0.4872	0.078
Mof_C 	C 	0.227	0.5807	0.4422	-0.003
Mof_C 	C 	0.7176	0.4641	0.1178	0.015
Mof_C 	C 	0.68786	0.44086	0.15812	-0.072
Mof_C 	C 	0.68173	0.19183	0.10426	-0.05
Mof_C 	C 	0.73513	0.24063	0.02306	-0.033
Mof_C 	C 	0.68934	0.28354	0.10908	0.025
Mof_C 	C 	0.71897	0.30757	0.06774	0.036
Mof_C 	C 	0.72947	0.15237	0.02174	0.152
Mof_C 	C 	0.70495	0.12935	0.0629	-0.104
Mof_C 	C 	0.65248	0.15858	0.14536	0.348
Mof_C 	C 	0.6732	0.3523	0.1536	-0.034
Mof_C 	C 	0.73064	0.39944	0.07408	-0.086
Mof_C 	C 	0.67166	0.51396	0.20532	0.354
Mof_C 	C 	0.7902	0.0095	0.9872	0.068
Mof_C 	C 	0.8307	0.9652	0.9422	0.002
Mof_C 	C 	0.4002	0.6537	0.1178	0.015
Mof_C 	C 	0.47026	0.71726	0.15812	-0.071
Mof_C 	C 	0.42253	0.91243	0.10426	-0.05
Mof_C 	C 	0.28793	0.78243	0.02306	-0.033
Mof_C 	C 	0.41974	0.82554	0.10908	0.027
Mof_C 	C 	0.34877	0.76017	0.06774	0.036
Mof_C 	C 	0.29227	0.86937	0.02174	0.153
Mof_C 	C 	0.35795	0.93355	0.0629	-0.102
Mof_C 	C 	0.49288	0.98678	0.14536	0.357
Mof_C 	C 	0.4804	0.8013	0.1536	-0.034
Mof_C 	C 	0.34344	0.67464	0.07408	-0.085
Mof_C 	C 	0.53366	0.69136	0.20532	0.354
Mof_C 	C 	0.197	0.9777	0.9872	0.08
Mof_C 	C 	0.1115	0.977	0.9422	0.001
Mof_O 	O 	0.26283	0.3909	0.77064	-0.402
Mof_O 	O 	0.37387	0.49038	0.7826	-0.403
Mof_O 	O 	0.03023	0.42723	0.84444	-0.396
Mof_O 	O 	0.93958	0.5347	0.83458	-0.411
Mof_O 	O 	0.11353	0.77083	0.02246	-0.202
Mof_O 	O 	0.50781	0.37974	0.77064	-0.402
Mof_O 	O 	0.40873	0.29222	0.7826	-0.403
Mof_O 	O 	0.81421	0.41721	0.84444	-0.398
Mof_O 	O 	0.895	0.29988	0.83458	-0.406
Mof_O 	O 	0.90893	0.25163	0.02246	-0.203
Mof_O 	O 	0.6409	0.25781	0.27064	-0.403
Mof_O 	O 	0.74038	0.15873	0.2826	-0.405
Mof_O 	O 	0.67723	0.56421	0.34444	-0.398
Mof_O 	O 	0.7847	0.645	0.33458	-0.405
Mof_O 	O 	0.02083	0.65893	0.52246	-0.197
Mof_O 	O 	0.62974	0.01283	0.27064	-0.408
Mof_O 	O 	0.54222	0.12387	0.2826	-0.405
Mof_O 	O 	0.66721	0.78023	0.34444	-0.396
Mof_O 	O 	0.54988	0.68958	0.33458	-0.403
Mof_O 	O 	0.50163	0.86353	0.52246	-0.202
Mof_O 	O 	0.74219	0.3591	0.72936	-0.403
Mof_O 	O 	0.84127	0.25962	0.7174	-0.405
Mof_O 	O 	0.43579	0.32277	0.65556	-0.398
Mof_O 	O 	0.355	0.2153	0.66542	-0.405
Mof_O 	O 	0.34107	0.97917	0.47754	-0.197
Mof_O 	O 	0.98717	0.37026	0.72936	-0.408
Mof_O 	O 	0.87613	0.45778	0.7174	-0.405
Mof_O 	O 	0.21977	0.33279	0.65556	-0.396
Mof_O 	O 	0.31042	0.45012	0.66542	-0.403
Mof_O 	O 	0.13647	0.49837	0.47754	-0.202
Mof_O 	O 	0.62026	0.49219	0.22936	-0.402
Mof_O 	O 	0.70778	0.59127	0.2174	-0.403
Mof_O 	O 	0.58279	0.18579	0.15556	-0.398
Mof_O 	O 	0.70012	0.105	0.16542	-0.406
Mof_O 	O 	0.74837	0.09107	0.97754	-0.203
Mof_O 	O 	0.6091	0.73717	0.22936	-0.402
Mof_O 	O 	0.50962	0.62613	0.2174	-0.403
Mof_O 	O 	0.57277	0.96977	0.15556	-0.396
Mof_O 	O 	0.4653	0.06042	0.16542	-0.411
Mof_O 	O 	0.22917	0.88647	0.97754	-0.202
_end
