data_functionalizedCrystal
_audit_creation_method	'EQeq! by Chris Wilmer'
_symmetry_space_group_name_H-M	'P1'
_symmetry_Int_Tables_number	1
_symmetry_cell_setting	triclinic
loop_
_symmetry_equiv_pos_as_xyz
  x,y,z
_cell_length_a	7.073
_cell_length_b	12.9993
_cell_length_c	12.9993
_cell_angle_alpha	97.7758
_cell_angle_beta	95.5986
_cell_angle_gamma	84.4014
loop_
_atom_site_label
_atom_site_type_symbol
_atom_site_fract_x
_atom_site_fract_y
_atom_site_fract_z
_atom_site_charge
Mof_Cd	Cd	0.90525	0.32258	0.05242	0.354
Mof_Cd	Cd	0.59475	0.05242	0.32258	0.356
Mof_Cd	Cd	0.09475	0.67742	0.94758	0.354
Mof_Cd	Cd	0.40525	0.94758	0.67742	0.356
Mof_H 	H 	0.4357	0.4239	0.5477	0.168
Mof_H 	H 	0.0643	0.5477	0.4239	0.168
Mof_H 	H 	0.5643	0.5761	0.4523	0.168
Mof_H 	H 	0.9357	0.4523	0.5761	0.168
Mof_C 	C 	0.4395	0.5342	0.663	0.22
Mof_C 	C 	0.3636	0.3609	0.6645	0.218
Mof_C 	C 	0.3348	0.4829	0.8061	0.194
Mof_C 	C 	0.5187	0.6961	0.6497	0.174
Mof_C 	C 	0.3103	0.1903	0.6489	0.172
Mof_C 	C 	0.219	0.4442	0.954	0.164
Mof_C 	C 	0.0605	0.663	0.5342	0.219
Mof_C 	C 	0.1364	0.6645	0.3609	0.218
Mof_C 	C 	0.1652	0.8061	0.4829	0.194
Mof_C 	C 	0.9813	0.6497	0.6961	0.175
Mof_C 	C 	0.1897	0.6489	0.1903	0.173
Mof_C 	C 	0.281	0.954	0.4442	0.166
Mof_C 	C 	0.5605	0.4658	0.337	0.22
Mof_C 	C 	0.6364	0.6391	0.3355	0.218
Mof_C 	C 	0.6652	0.5171	0.1939	0.194
Mof_C 	C 	0.4813	0.3039	0.3503	0.174
Mof_C 	C 	0.6897	0.8097	0.3511	0.172
Mof_C 	C 	0.781	0.5558	0.046	0.164
Mof_C 	C 	0.9395	0.337	0.4658	0.219
Mof_C 	C 	0.8636	0.3355	0.6391	0.218
Mof_C 	C 	0.8348	0.1939	0.5171	0.194
Mof_C 	C 	0.0187	0.3503	0.3039	0.175
Mof_C 	C 	0.8103	0.3511	0.8097	0.173
Mof_C 	C 	0.719	0.046	0.5558	0.166
Mof_N 	N 	0.4168	0.4376	0.6126	-0.264
Mof_N 	N 	0.3249	0.3825	0.7633	-0.171
Mof_N 	N 	0.3969	0.5596	0.761	-0.174
Mof_N 	N 	0.5042	0.5999	0.6065	-0.182
Mof_N 	N 	0.5348	0.7823	0.6809	-0.176
Mof_N 	N 	0.3512	0.2694	0.606	-0.173
Mof_N 	N 	0.2742	0.1146	0.6778	-0.175
Mof_N 	N 	0.2742	0.5143	0.9021	-0.182
Mof_N 	N 	0.1659	0.3918	0.008	-0.17
Mof_N 	N 	0.0832	0.6126	0.4376	-0.263
Mof_N 	N 	0.1751	0.7633	0.3825	-0.171
Mof_N 	N 	0.1031	0.761	0.5596	-0.174
Mof_N 	N 	0.9958	0.6065	0.5999	-0.182
Mof_N 	N 	0.9652	0.6809	0.7823	-0.175
Mof_N 	N 	0.1488	0.606	0.2694	-0.173
Mof_N 	N 	0.2258	0.6778	0.1146	-0.175
Mof_N 	N 	0.2258	0.9021	0.5143	-0.182
Mof_N 	N 	0.3341	0.008	0.3918	-0.171
Mof_N 	N 	0.5832	0.5624	0.3874	-0.264
Mof_N 	N 	0.6751	0.6175	0.2367	-0.171
Mof_N 	N 	0.6031	0.4404	0.239	-0.174
Mof_N 	N 	0.4958	0.4001	0.3935	-0.182
Mof_N 	N 	0.4652	0.2177	0.3191	-0.176
Mof_N 	N 	0.6488	0.7306	0.394	-0.173
Mof_N 	N 	0.7258	0.8854	0.3222	-0.175
Mof_N 	N 	0.7258	0.4857	0.0979	-0.182
Mof_N 	N 	0.8341	0.6082	0.992	-0.17
Mof_N 	N 	0.9168	0.3874	0.5624	-0.263
Mof_N 	N 	0.8249	0.2367	0.6175	-0.171
Mof_N 	N 	0.8969	0.239	0.4404	-0.174
Mof_N 	N 	0.0042	0.3935	0.4001	-0.182
Mof_N 	N 	0.0348	0.3191	0.2177	-0.175
Mof_N 	N 	0.8512	0.394	0.7306	-0.173
Mof_N 	N 	0.7742	0.3222	0.8854	-0.175
Mof_N 	N 	0.7742	0.0979	0.4857	-0.182
Mof_N 	N 	0.6659	0.992	0.6082	-0.171
_end
