data_functionalizedCrystal
_audit_creation_method	'EQeq! by Chris Wilmer'
_symmetry_space_group_name_H-M	'P1'
_symmetry_Int_Tables_number	1
_symmetry_cell_setting	triclinic
loop_
_symmetry_equiv_pos_as_xyz
  x,y,z
_cell_length_a	14.7325
_cell_length_b	12.999
_cell_length_c	12.7787
_cell_angle_alpha	90
_cell_angle_beta	104.975
_cell_angle_gamma	90
loop_
_atom_site_label
_atom_site_type_symbol
_atom_site_fract_x
_atom_site_fract_y
_atom_site_fract_z
_atom_site_charge
Mof_Er	Er	0.23523	0.06807	0.81115	2.41
Mof_O 	O 	0.3838	0.0474	0.7678	-0.451
Mof_O 	O 	0.3835	0.023	0.9307	-0.447
Mof_O 	O 	0.2067	0.1905	0.9315	-0.407
Mof_O 	O 	0.1874	0.0573	0.6203	-0.522
Mof_O 	O 	0.1878	0.018	0.4524	-0.494
Mof_O 	O 	0.2565	0.2289	0.7454	-0.603
Mof_O 	O 	0.2732	0.3942	0.7249	-0.62
Mof_O 	O 	0.0762	0.0858	0.7679	-0.626
Mof_C 	C 	0.4239	0.0232	0.8608	0.467
Mof_H 	H 	0.487	0.0046	0.8773	-0.056
Mof_C 	C 	0.2235	0.0175	0.5532	0.635
Mof_H 	H 	0.2812	0.9848	0.5789	-0.165
Mof_C 	C 	0.2298	0.3182	0.7403	0.83
Mof_H 	H 	0.1699	0.3295	0.7491	-0.249
Mof_O 	O 	0.2224	0.3196	0.0464	-0.479
Mof_H 	H 	0.1847	0.266	0.973	-0.025
Mof_Er	Er	0.73523	0.56807	0.81115	2.443
Mof_O 	O 	0.8838	0.5474	0.7678	-0.432
Mof_O 	O 	0.8835	0.523	0.9307	-0.426
Mof_O 	O 	0.7067	0.6905	0.9315	-0.396
Mof_O 	O 	0.6874	0.5573	0.6203	-0.519
Mof_O 	O 	0.6878	0.518	0.4524	-0.489
Mof_O 	O 	0.7565	0.7289	0.7454	-0.598
Mof_O 	O 	0.7732	0.8942	0.7249	-0.606
Mof_O 	O 	0.5762	0.5858	0.7679	-0.647
Mof_C 	C 	0.9239	0.5232	0.8608	0.453
Mof_H 	H 	0.987	0.5046	0.8773	-0.025
Mof_C 	C 	0.7235	0.5175	0.5532	0.652
Mof_H 	H 	0.7812	0.4848	0.5789	-0.173
Mof_C 	C 	0.7298	0.8182	0.7403	0.828
Mof_H 	H 	0.6699	0.8295	0.7491	-0.24
Mof_O 	O 	0.7224	0.8196	0.0464	-0.473
Mof_H 	H 	0.6847	0.766	0.973	0.008
Mof_Er	Er	0.76477	0.06807	0.68885	2.465
Mof_O 	O 	0.6162	0.0474	0.7322	-0.455
Mof_O 	O 	0.6165	0.023	0.5693	-0.468
Mof_O 	O 	0.7933	0.1905	0.5685	-0.43
Mof_O 	O 	0.8126	0.0573	0.8797	-0.518
Mof_O 	O 	0.8122	0.018	0.0476	-0.526
Mof_O 	O 	0.7435	0.2289	0.7546	-0.598
Mof_O 	O 	0.7268	0.3942	0.7751	-0.612
Mof_O 	O 	0.9238	0.0858	0.7321	-0.576
Mof_C 	C 	0.5761	0.0232	0.6392	0.474
Mof_H 	H 	0.513	0.0046	0.6227	-0.068
Mof_C 	C 	0.7765	0.0175	0.9468	0.702
Mof_H 	H 	0.7188	0.9848	0.9211	-0.168
Mof_C 	C 	0.7702	0.3182	0.7597	0.827
Mof_H 	H 	0.8301	0.3295	0.7509	-0.233
Mof_O 	O 	0.7776	0.3196	0.4536	-0.47
Mof_H 	H 	0.8153	0.266	0.527	-0.134
Mof_Er	Er	0.26477	0.56807	0.68885	2.486
Mof_O 	O 	0.1162	0.5474	0.7322	-0.469
Mof_O 	O 	0.1165	0.523	0.5693	-0.485
Mof_O 	O 	0.2933	0.6905	0.5685	-0.437
Mof_O 	O 	0.3126	0.5573	0.8797	-0.54
Mof_O 	O 	0.3122	0.518	0.0476	-0.558
Mof_O 	O 	0.2435	0.7289	0.7546	-0.606
Mof_O 	O 	0.2268	0.8942	0.7751	-0.611
Mof_O 	O 	0.4238	0.5858	0.7321	-0.647
Mof_C 	C 	0.0761	0.5232	0.6392	0.486
Mof_H 	H 	0.013	0.5046	0.6227	-0.093
Mof_C 	C 	0.2765	0.5175	0.9468	0.759
Mof_H 	H 	0.2188	0.4848	0.9211	-0.203
Mof_C 	C 	0.2702	0.8182	0.7597	0.827
Mof_H 	H 	0.3301	0.8295	0.7509	-0.239
Mof_O 	O 	0.2776	0.8196	0.4536	-0.474
Mof_H 	H 	0.3153	0.766	0.527	-0.144
Mof_Er	Er	0.76477	0.93193	0.18885	2.432
Mof_O 	O 	0.6162	0.9526	0.2322	-0.46
Mof_O 	O 	0.6165	0.977	0.0693	-0.496
Mof_O 	O 	0.7933	0.8095	0.0685	-0.368
Mof_O 	O 	0.8126	0.9427	0.3797	-0.511
Mof_O 	O 	0.8122	0.982	0.5476	-0.479
Mof_O 	O 	0.7435	0.7711	0.2546	-0.604
Mof_O 	O 	0.7268	0.6058	0.2751	-0.621
Mof_O 	O 	0.9238	0.9142	0.2321	-0.582
Mof_C 	C 	0.5761	0.9768	0.1392	0.487
Mof_H 	H 	0.513	0.9954	0.1227	-0.085
Mof_C 	C 	0.7765	0.9825	0.4468	0.657
Mof_H 	H 	0.7188	0.0152	0.4211	-0.18
Mof_C 	C 	0.7702	0.6818	0.2597	0.824
Mof_H 	H 	0.8301	0.6705	0.2509	-0.239
Mof_O 	O 	0.7776	0.6804	0.9536	-0.366
Mof_H 	H 	0.8153	0.734	0.027	-0.077
Mof_Er	Er	0.26477	0.43193	0.18885	2.451
Mof_O 	O 	0.1162	0.4526	0.2322	-0.478
Mof_O 	O 	0.1165	0.477	0.0693	-0.512
Mof_O 	O 	0.2933	0.3095	0.0685	-0.385
Mof_O 	O 	0.3126	0.4427	0.3797	-0.522
Mof_O 	O 	0.3122	0.482	0.5476	-0.493
Mof_O 	O 	0.2435	0.2711	0.2546	-0.614
Mof_O 	O 	0.2268	0.1058	0.2751	-0.628
Mof_O 	O 	0.4238	0.4142	0.2321	-0.653
Mof_C 	C 	0.0761	0.4768	0.1392	0.499
Mof_H 	H 	0.013	0.4954	0.1227	-0.113
Mof_C 	C 	0.2765	0.4825	0.4468	0.655
Mof_H 	H 	0.2188	0.5152	0.4211	-0.182
Mof_C 	C 	0.2702	0.1818	0.2597	0.828
Mof_H 	H 	0.3301	0.1705	0.2509	-0.248
Mof_O 	O 	0.2776	0.1804	0.9536	-0.386
Mof_H 	H 	0.3153	0.234	0.027	-0.097
Mof_Er	Er	0.23523	0.93193	0.31115	2.453
Mof_O 	O 	0.3838	0.9526	0.2678	-0.461
Mof_O 	O 	0.3835	0.977	0.4307	-0.463
Mof_O 	O 	0.2067	0.8095	0.4315	-0.44
Mof_O 	O 	0.1874	0.9427	0.1203	-0.509
Mof_O 	O 	0.1878	0.982	0.9524	-0.412
Mof_O 	O 	0.2565	0.7711	0.2454	-0.614
Mof_O 	O 	0.2732	0.6058	0.2249	-0.624
Mof_O 	O 	0.0762	0.9142	0.2679	-0.632
Mof_C 	C 	0.4239	0.9768	0.3608	0.476
Mof_H 	H 	0.487	0.9954	0.3773	-0.067
Mof_C 	C 	0.2235	0.9825	0.0532	0.524
Mof_H 	H 	0.2812	0.0152	0.0789	-0.148
Mof_C 	C 	0.2298	0.6818	0.2403	0.827
Mof_H 	H 	0.1699	0.6705	0.2491	-0.253
Mof_O 	O 	0.2224	0.6804	0.5464	-0.481
Mof_H 	H 	0.1847	0.734	0.473	-0.147
Mof_Er	Er	0.73523	0.43193	0.31115	2.467
Mof_O 	O 	0.8838	0.4526	0.2678	-0.445
Mof_O 	O 	0.8835	0.477	0.4307	-0.449
Mof_O 	O 	0.7067	0.3095	0.4315	-0.436
Mof_O 	O 	0.6874	0.4427	0.1203	-0.508
Mof_O 	O 	0.6878	0.482	0.9524	-0.426
Mof_O 	O 	0.7565	0.2711	0.2454	-0.607
Mof_O 	O 	0.7732	0.1058	0.2249	-0.614
Mof_O 	O 	0.5762	0.4142	0.2679	-0.654
Mof_C 	C 	0.9239	0.4768	0.3608	0.466
Mof_H 	H 	0.987	0.4954	0.3773	-0.041
Mof_C 	C 	0.7235	0.4825	0.0532	0.551
Mof_H 	H 	0.7812	0.5152	0.0789	-0.157
Mof_C 	C 	0.7298	0.1818	0.2403	0.824
Mof_H 	H 	0.6699	0.1705	0.2491	-0.245
Mof_O 	O 	0.7224	0.1804	0.5464	-0.475
Mof_H 	H 	0.6847	0.234	0.473	-0.138
Mof_C 	C 	0.25	0.25	-0	0.902
Mof_C 	C 	0.75	0.25	0.5	1.176
Mof_C 	C 	0.75	0.75	-0	0.828
Mof_C 	C 	0.25	0.75	0.5	1.194
Mof_C 	C 	2.40443e-17	0.1263	0.75	0.813
Mof_H 	H 	2.40443e-17	0.1978	0.75	-0.238
Mof_C 	C 	0.5	0.6263	0.75	0.932
Mof_H 	H 	0.5	0.6978	0.75	-0.258
Mof_C 	C 	1.02313e-33	0.8737	0.25	0.814
Mof_H 	H 	1.02313e-33	0.8022	0.25	-0.245
Mof_C 	C 	0.5	0.3737	0.25	0.928
Mof_H 	H 	0.5	0.3022	0.25	-0.264
_end
