data_functionalizedCrystal
_audit_creation_method	'EQeq! by Chris Wilmer'
_symmetry_space_group_name_H-M	'P1'
_symmetry_Int_Tables_number	1
_symmetry_cell_setting	triclinic
loop_
_symmetry_equiv_pos_as_xyz
  x,y,z
_cell_length_a	8.8754
_cell_length_b	16.667
_cell_length_c	13.864
_cell_angle_alpha	90
_cell_angle_beta	90
_cell_angle_gamma	90
loop_
_atom_site_label
_atom_site_type_symbol
_atom_site_fract_x
_atom_site_fract_y
_atom_site_fract_z
_atom_site_charge
Mof_Zn	Zn	0.44689	0.92309	0.10618	1.231
Mof_P 	P 	0.50544	0.10828	0.11139	0.431
Mof_P 	P 	0.7417	0.38158	0.22009	0.457
Mof_O 	O 	0.4032	0.03636	0.1022	-0.473
Mof_O 	O 	0.8116	0.35976	0.31549	-0.442
Mof_O 	O 	0.5881	0.12842	0.01851	-0.412
Mof_O 	O 	0.8479	0.409	0.1438	-0.427
Mof_O 	O 	0.4177	0.18083	0.149	-0.41
Mof_O 	O 	0.6459	0.3141	0.18073	-0.417
Mof_H 	H 	0.615	0.0901	0.174	-0.055
Mof_H 	H 	0.647	0.448	0.239	-0.038
Mof_Zn	Zn	0.05311	0.57691	0.60618	1.215
Mof_P 	P 	0.99456	0.39172	0.61139	0.555
Mof_P 	P 	0.7583	0.11842	0.72009	0.459
Mof_O 	O 	0.0968	0.46364	0.6022	-0.535
Mof_O 	O 	0.6884	0.14024	0.81549	-0.453
Mof_O 	O 	0.9119	0.37158	0.51851	-0.411
Mof_O 	O 	0.6521	0.091	0.6438	-0.456
Mof_O 	O 	0.0823	0.31917	0.649	-0.474
Mof_O 	O 	0.8541	0.1859	0.68073	-0.39
Mof_H 	H 	0.885	0.4099	0.674	-0.063
Mof_H 	H 	0.853	0.052	0.739	-0.017
Mof_Zn	Zn	0.55311	0.92309	0.39382	1.233
Mof_P 	P 	0.49456	0.10828	0.38861	0.431
Mof_P 	P 	0.2583	0.38158	0.27991	0.458
Mof_O 	O 	0.5968	0.03636	0.3978	-0.459
Mof_O 	O 	0.1884	0.35976	0.18451	-0.48
Mof_O 	O 	0.4119	0.12842	0.48149	-0.426
Mof_O 	O 	0.1521	0.409	0.3562	-0.495
Mof_O 	O 	0.5823	0.18083	0.351	-0.398
Mof_O 	O 	0.3541	0.3141	0.31927	-0.431
Mof_H 	H 	0.385	0.0901	0.326	-0.068
Mof_H 	H 	0.353	0.448	0.261	-0.04
Mof_Zn	Zn	0.94689	0.57691	0.89382	1.249
Mof_P 	P 	0.00544	0.39172	0.88861	0.311
Mof_P 	P 	0.2417	0.11842	0.77991	0.455
Mof_O 	O 	0.9032	0.46364	0.8978	-0.401
Mof_O 	O 	0.3116	0.14024	0.68451	-0.468
Mof_O 	O 	0.0881	0.37158	0.98149	-0.425
Mof_O 	O 	0.3479	0.091	0.8562	-0.468
Mof_O 	O 	0.9177	0.31917	0.851	-0.326
Mof_O 	O 	0.1459	0.1859	0.81927	-0.447
Mof_H 	H 	0.115	0.4099	0.826	-0.061
Mof_H 	H 	0.147	0.052	0.761	-0.06
Mof_Zn	Zn	0.55311	0.07691	0.89382	1.232
Mof_P 	P 	0.49456	0.89172	0.88861	0.431
Mof_P 	P 	0.2583	0.61842	0.77991	0.457
Mof_O 	O 	0.5968	0.96364	0.8978	-0.457
Mof_O 	O 	0.1884	0.64024	0.68451	-0.479
Mof_O 	O 	0.4119	0.87158	0.98149	-0.423
Mof_O 	O 	0.1521	0.591	0.8562	-0.493
Mof_O 	O 	0.5823	0.81917	0.851	-0.398
Mof_O 	O 	0.3541	0.6859	0.81927	-0.43
Mof_H 	H 	0.385	0.9099	0.826	-0.068
Mof_H 	H 	0.353	0.552	0.761	-0.04
Mof_Zn	Zn	0.94689	0.42309	0.39382	1.25
Mof_P 	P 	0.00544	0.60828	0.38861	0.306
Mof_P 	P 	0.2417	0.88158	0.27991	0.455
Mof_O 	O 	0.9032	0.53636	0.3978	-0.398
Mof_O 	O 	0.3116	0.85976	0.18451	-0.47
Mof_O 	O 	0.0881	0.62842	0.48149	-0.426
Mof_O 	O 	0.3479	0.909	0.3562	-0.467
Mof_O 	O 	0.9177	0.68083	0.351	-0.323
Mof_O 	O 	0.1459	0.8141	0.31927	-0.447
Mof_H 	H 	0.115	0.5901	0.326	-0.06
Mof_H 	H 	0.147	0.948	0.261	-0.061
Mof_Zn	Zn	0.44689	0.07691	0.60618	1.231
Mof_P 	P 	0.50544	0.89172	0.61139	0.431
Mof_P 	P 	0.7417	0.61842	0.72009	0.457
Mof_O 	O 	0.4032	0.96364	0.6022	-0.474
Mof_O 	O 	0.8116	0.64024	0.81549	-0.442
Mof_O 	O 	0.5881	0.87158	0.51851	-0.412
Mof_O 	O 	0.8479	0.591	0.6438	-0.427
Mof_O 	O 	0.4177	0.81917	0.649	-0.41
Mof_O 	O 	0.6459	0.6859	0.68073	-0.417
Mof_H 	H 	0.615	0.9099	0.674	-0.056
Mof_H 	H 	0.647	0.552	0.739	-0.037
Mof_Zn	Zn	0.05311	0.42309	0.10618	1.214
Mof_P 	P 	0.99456	0.60828	0.11139	0.558
Mof_P 	P 	0.7583	0.88158	0.22009	0.459
Mof_O 	O 	0.0968	0.53636	0.1022	-0.537
Mof_O 	O 	0.6884	0.85976	0.31549	-0.452
Mof_O 	O 	0.9119	0.62842	0.01851	-0.414
Mof_O 	O 	0.6521	0.909	0.1438	-0.458
Mof_O 	O 	0.0823	0.68083	0.149	-0.477
Mof_O 	O 	0.8541	0.8141	0.18073	-0.39
Mof_H 	H 	0.885	0.5901	0.174	-0.063
Mof_H 	H 	0.853	0.948	0.239	-0.017
Mof_Zn	Zn	0.5	0.25069	0.25	1.234
Mof_Zn	Zn	-2.0225e-32	0.24931	0.75	1.208
Mof_Zn	Zn	0.5	0.74931	0.75	1.234
Mof_Zn	Zn	1.06958e-32	0.75069	0.25	1.207
_end
