data_functionalizedCrystal
_audit_creation_method	'EQeq! by Chris Wilmer'
_symmetry_space_group_name_H-M	'P1'
_symmetry_Int_Tables_number	1
_symmetry_cell_setting	triclinic
loop_
_symmetry_equiv_pos_as_xyz
  x,y,z
_cell_length_a	8.857
_cell_length_b	10.021
_cell_length_c	12.993
_cell_angle_alpha	82.284
_cell_angle_beta	84.145
_cell_angle_gamma	89.896
loop_
_atom_site_label
_atom_site_type_symbol
_atom_site_fract_x
_atom_site_fract_y
_atom_site_fract_z
_atom_site_charge
Mof_S 	S 	0.95399	0.11062	0.2559	0.763
Mof_N 	N 	0.0997	0.2103	0.9274	-0.144
Mof_N 	N 	0.2162	0.3806	0.8255	-0.087
Mof_N 	N 	0.9186	0.1954	0.5492	-0.135
Mof_N 	N 	0.8728	0.3598	0.6436	-0.084
Mof_N 	N 	0.2449	0.9157	0.9965	-0.111
Mof_N 	N 	0.4675	0.8521	0.9312	-0.072
Mof_O 	O 	0.0233	0.045	0.1698	-0.376
Mof_O 	O 	0.8182	0.032	0.3006	-0.324
Mof_O 	O 	0.0617	0.1066	0.3342	-0.367
Mof_O 	O 	0.9136	0.2485	0.2215	-0.319
Mof_C 	C 	0.4455	0.5175	0.7547	0.248
Mof_C 	C 	0.58	0.4495	0.7345	-0.306
Mof_H 	H 	0.5783	0.3675	0.7086	0.143
Mof_C 	C 	0.7173	0.5046	0.7532	0.259
Mof_C 	C 	0.7184	0.6267	0.7929	-0.317
Mof_H 	H 	0.8104	0.6632	0.8051	0.164
Mof_C 	C 	0.5852	0.6951	0.8146	0.266
Mof_C 	C 	0.448	0.6404	0.7942	-0.305
Mof_H 	H 	0.3579	0.686	0.8069	0.165
Mof_C 	C 	0.2964	0.4602	0.7332	-0.233
Mof_H 	H 	0.2322	0.5335	0.7083	0.109
Mof_H 	H 	0.315	0.4036	0.6783	0.1
Mof_C 	C 	0.8667	0.4364	0.7326	-0.252
Mof_H 	H 	0.9469	0.5041	0.7196	0.132
Mof_H 	H 	0.8856	0.3758	0.7946	0.123
Mof_C 	C 	0.5932	0.8307	0.8526	-0.252
Mof_H 	H 	0.6885	0.8382	0.8824	0.139
Mof_H 	H 	0.5922	0.9009	0.7935	0.136
Mof_C 	C 	0.1591	0.4288	0.915	-0.038
Mof_H 	H 	0.1679	0.5163	0.9302	0.055
Mof_C 	C 	0.0871	0.3232	0.9773	0.04
Mof_H 	H 	0.0372	0.3267	0.0434	0.012
Mof_C 	C 	0.1778	0.2484	0.8365	0.063
Mof_H 	H 	0.2033	0.1918	0.7864	0.013
Mof_C 	C 	0.8457	0.4089	0.5437	-0.018
Mof_H 	H 	0.8142	0.4952	0.5201	0.052
Mof_C 	C 	0.8742	0.3061	0.4856	0.021
Mof_H 	H 	0.865	0.3103	0.4146	0.042
Mof_C 	C 	0.9161	0.2307	0.6432	0.076
Mof_H 	H 	0.9409	0.1741	0.7016	0.023
Mof_C 	C 	0.318	0.8476	0.0745	0.012
Mof_H 	H 	0.2798	0.8316	0.1445	0.044
Mof_C 	C 	0.455	0.8067	0.0343	-0.021
Mof_H 	H 	0.5263	0.7571	0.0706	0.054
Mof_C 	C 	0.3389	0.9172	0.9113	0.086
Mof_H 	H 	0.3188	0.9582	0.8456	0.04
Mof_S 	S 	0.04601	0.88938	0.7441	0.584
Mof_N 	N 	0.9003	0.7897	0.0726	-0.107
Mof_N 	N 	0.7838	0.6194	0.1745	-0.087
Mof_N 	N 	0.0814	0.8046	0.4508	-0.127
Mof_N 	N 	0.1272	0.6402	0.3564	-0.09
Mof_N 	N 	0.7551	0.0843	0.0035	-0.144
Mof_N 	N 	0.5325	0.1479	0.0688	-0.097
Mof_O 	O 	0.9767	0.955	0.8302	-0.249
Mof_O 	O 	0.1818	0.968	0.6994	-0.262
Mof_O 	O 	0.9383	0.8934	0.6658	-0.26
Mof_O 	O 	0.0864	0.7515	0.7785	-0.307
Mof_C 	C 	0.5545	0.4825	0.2453	0.241
Mof_C 	C 	0.42	0.5505	0.2655	-0.3
Mof_H 	H 	0.4217	0.6325	0.2914	0.148
Mof_C 	C 	0.2827	0.4954	0.2468	0.24
Mof_C 	C 	0.2816	0.3733	0.2071	-0.305
Mof_H 	H 	0.1896	0.3368	0.1949	0.147
Mof_C 	C 	0.4148	0.3049	0.1854	0.244
Mof_C 	C 	0.552	0.3596	0.2058	-0.299
Mof_H 	H 	0.6421	0.314	0.1931	0.162
Mof_C 	C 	0.7036	0.5398	0.2668	-0.231
Mof_H 	H 	0.7678	0.4665	0.2917	0.117
Mof_H 	H 	0.685	0.5964	0.3217	0.11
Mof_C 	C 	0.1333	0.5636	0.2674	-0.23
Mof_H 	H 	0.0531	0.4959	0.2804	0.104
Mof_H 	H 	0.1144	0.6242	0.2054	0.104
Mof_C 	C 	0.4068	0.1693	0.1474	-0.229
Mof_H 	H 	0.3115	0.1618	0.1176	0.11
Mof_H 	H 	0.4078	0.0991	0.2065	0.107
Mof_C 	C 	0.8409	0.5712	0.085	0.01
Mof_H 	H 	0.8321	0.4837	0.0698	0.043
Mof_C 	C 	0.9129	0.6768	0.0227	-0.034
Mof_H 	H 	0.9628	0.6733	0.9566	0.08
Mof_C 	C 	0.8222	0.7516	0.1635	0.075
Mof_H 	H 	0.7967	0.8082	0.2136	0.047
Mof_C 	C 	0.1543	0.5911	0.4563	-0.02
Mof_H 	H 	0.1858	0.5048	0.4799	0.041
Mof_C 	C 	0.1258	0.6939	0.5144	0.013
Mof_H 	H 	0.135	0.6897	0.5854	0.038
Mof_C 	C 	0.0839	0.7693	0.3568	0.075
Mof_H 	H 	0.0591	0.8259	0.2984	0.035
Mof_C 	C 	0.682	0.1524	0.9255	0.024
Mof_H 	H 	0.7202	0.1684	0.8555	0.025
Mof_C 	C 	0.545	0.1933	0.9657	-0.004
Mof_H 	H 	0.4737	0.2429	0.9294	0.045
Mof_C 	C 	0.6611	0.0828	0.0887	0.071
Mof_H 	H 	0.6812	0.0418	0.1544	0.023
Mof_Cd	Cd	-0	0	-0	0.345
Mof_Cd	Cd	1.95338e-19	0	0.5	0.355
_end
