data_functionalizedCrystal
_audit_creation_method	'EQeq! by Chris Wilmer'
_symmetry_space_group_name_H-M	'P1'
_symmetry_Int_Tables_number	1
_symmetry_cell_setting	triclinic
loop_
_symmetry_equiv_pos_as_xyz
  x,y,z
_cell_length_a	10.994
_cell_length_b	19.838
_cell_length_c	23.098
_cell_angle_alpha	90
_cell_angle_beta	90
_cell_angle_gamma	99.89
loop_
_atom_site_label
_atom_site_type_symbol
_atom_site_fract_x
_atom_site_fract_y
_atom_site_fract_z
_atom_site_charge
Mof_Ce	Ce	0.96037	0.10103	0.64528	2.038
Mof_Ce	Ce	0.64735	0.35404	0.6442	1.6
Mof_Ce	Ce	0.03963	0.89897	0.35472	2.038
Mof_Ce	Ce	0.46037	0.60103	0.85472	2.048
Mof_Ce	Ce	0.35265	0.64596	0.3558	1.599
Mof_Ce	Ce	0.53963	0.39897	0.14528	2.047
Mof_Ce	Ce	0.85265	0.14596	0.1442	1.592
Mof_Ce	Ce	0.14735	0.85404	0.8558	1.592
Mof_Cu	Cu	0.59132	0.39849	0.32139	0.875
Mof_Cu	Cu	0.40868	0.60151	0.67861	0.875
Mof_Cu	Cu	0.30292	0.65118	0.1793	0.891
Mof_Cu	Cu	0.09132	0.89849	0.17861	0.874
Mof_Cu	Cu	0.19708	0.84882	0.6793	0.891
Mof_Cu	Cu	0.69708	0.34882	0.8207	0.891
Mof_Cu	Cu	0.80292	0.15118	0.3207	0.891
Mof_Cu	Cu	0.90868	0.10151	0.82139	0.874
Mof_H 	H 	0.0175	0.4914	0.3045	0.01
Mof_H 	H 	0.879	0.5572	0.1955	0.046
Mof_H 	H 	0.9825	0.5086	0.6955	0.01
Mof_H 	H 	0.9182	0.5415	0.9179	0.054
Mof_H 	H 	0.0818	0.4585	0.0821	0.054
Mof_H 	H 	0.4182	0.0415	0.5821	0.054
Mof_H 	H 	0.773	0.7429	0.2941	0.019
Mof_H 	H 	0.379	0.0572	0.3045	0.046
Mof_H 	H 	0.4825	0.0086	0.8045	0.012
Mof_H 	H 	0.621	0.9428	0.6955	0.046
Mof_H 	H 	0.5818	0.9585	0.4179	0.054
Mof_H 	H 	0.121	0.4428	0.8045	0.046
Mof_H 	H 	0.227	0.2571	0.7059	0.019
Mof_H 	H 	0.1101	0.3073	0.1997	0.028
Mof_H 	H 	0.6101	0.8073	0.3003	0.028
Mof_H 	H 	0.3899	0.1927	0.6997	0.028
Mof_H 	H 	0.727	0.7571	0.7941	0.02
Mof_H 	H 	0.5175	0.9914	0.1955	0.012
Mof_H 	H 	0.273	0.2429	0.2059	0.02
Mof_H 	H 	0.8899	0.6927	0.8003	0.028
Mof_C 	C 	0.8987	0.8635	0.8122	0.309
Mof_C 	C 	0.7912	0.465	0.7609	0.427
Mof_C 	C 	0.7528	0.585	0.2503	-0.095
Mof_C 	C 	0.5928	0.8439	0.2785	0.003
Mof_C 	C 	0.6392	0.9636	0.2532	-0.097
Mof_C 	C 	0.2125	0.0873	0.6833	0.312
Mof_C 	C 	0.3152	0.4863	0.7402	0.441
Mof_C 	C 	0.929	0.6592	0.2085	-0.039
Mof_C 	C 	0.6577	0.0538	0.595	0.382
Mof_C 	C 	0.2065	0.2942	0.726	0.007
Mof_C 	C 	0.4072	0.1561	0.7215	0.003
Mof_C 	C 	0.7065	0.7942	0.774	0.006
Mof_C 	C 	0.1013	0.1365	0.1878	0.309
Mof_C 	C 	0.1263	0.4989	0.0037	-0.032
Mof_C 	C 	0.3608	0.0364	0.7468	-0.097
Mof_C 	C 	0.5784	0.0243	0.5455	-0.08
Mof_C 	C 	0.1848	0.0137	0.2402	0.446
Mof_C 	C 	0.8423	0.4462	0.095	0.383
Mof_C 	C 	0.1499	0.6134	0.6722	0.34
Mof_C 	C 	0.5366	0.1099	0.7904	-0.06
Mof_C 	C 	0.6263	0.9989	0.4963	-0.033
Mof_C 	C 	0.071	0.3408	0.7915	-0.039
Mof_C 	C 	0.1674	0.4072	0.216	-0.036
Mof_C 	C 	0.8737	0.5011	0.9963	-0.032
Mof_C 	C 	0.3571	0.0944	0.285	-0.003
Mof_C 	C 	0.4232	0.7633	0.2315	0.4
Mof_C 	C 	0.5078	0.1659	0.759	-0.093
Mof_C 	C 	0.3423	0.9462	0.405	0.382
Mof_C 	C 	0.4633	0.0457	0.784	0.014
Mof_C 	C 	0.8501	0.3866	0.3278	0.34
Mof_C 	C 	0.1577	0.5538	0.905	0.383
Mof_C 	C 	0.0463	0.6643	0.1739	0.32
Mof_C 	C 	0.5463	0.1643	0.3261	0.322
Mof_C 	C 	0.0784	0.5243	0.9545	-0.08
Mof_C 	C 	0.465	0.2863	0.2709	0.422
Mof_C 	C 	0.7612	0.9919	0.4903	0.301
Mof_C 	C 	0.4508	0.0249	0.5489	-0.007
Mof_C 	C 	0.9072	0.6561	0.7785	0.004
Mof_C 	C 	0.2912	0.965	0.7391	0.423
Mof_C 	C 	0.8571	0.5944	0.215	-0.006
Mof_C 	C 	0.6031	0.7849	0.7379	-0.12
Mof_C 	C 	0.5492	0.9751	0.4511	-0.007
Mof_C 	C 	0.3326	0.0928	0.716	-0.036
Mof_C 	C 	0.7875	0.9127	0.3167	0.312
Mof_C 	C 	0.2935	0.2058	0.226	0.006
Mof_C 	C 	0.3969	0.2151	0.2621	-0.12
Mof_C 	C 	0.2211	0.1416	0.2199	-0.057
Mof_C 	C 	0.3987	0.3635	0.6878	0.31
Mof_C 	C 	0.9232	0.2633	0.2685	0.4
Mof_C 	C 	0.4216	0.9757	0.4545	-0.08
Mof_C 	C 	0.1031	0.2849	0.7621	-0.121
Mof_C 	C 	0.535	0.7137	0.7291	0.422
Mof_C 	C 	0.9537	0.3357	0.8261	0.32
Mof_C 	C 	0.9633	0.5457	0.716	0.017
Mof_C 	C 	0.2388	0.0081	0.5097	0.301
Mof_C 	C 	0.1392	0.4636	0.2468	-0.1
Mof_C 	C 	0.8152	0.9863	0.7598	0.446
Mof_C 	C 	0.4537	0.8357	0.6739	0.322
Mof_C 	C 	0.0367	0.4543	0.284	0.017
Mof_C 	C 	0.7472	0.915	0.7503	-0.098
Mof_C 	C 	0.9922	0.3341	0.259	-0.094
Mof_C 	C 	0.2875	0.4127	0.1833	0.312
Mof_C 	C 	0.5768	0.2367	0.7685	0.4
Mof_C 	C 	0.4634	0.8901	0.2096	-0.06
Mof_C 	C 	0.2088	0.535	0.2391	0.427
Mof_C 	C 	0.965	0.7863	0.2291	0.426
Mof_C 	C 	0.035	0.2137	0.7709	0.426
Mof_C 	C 	0.7125	0.5873	0.8167	0.312
Mof_C 	C 	0.2528	0.085	0.2497	-0.098
Mof_C 	C 	0.429	0.1592	0.2915	-0.042
Mof_C 	C 	0.3501	0.8866	0.1722	0.34
Mof_C 	C 	0.0928	0.3439	0.2215	0.004
Mof_C 	C 	0.7789	0.8584	0.7801	-0.057
Mof_C 	C 	0.7088	0.035	0.2609	0.423
Mof_C 	C 	0.571	0.8408	0.7085	-0.042
Mof_C 	C 	0.1429	0.4056	0.785	-0.006
Mof_C 	C 	0.2472	0.415	0.7497	-0.095
Mof_C 	C 	0.8969	0.7151	0.2379	-0.121
Mof_C 	C 	0.9508	0.5249	0.9511	-0.007
Mof_C 	C 	0.7211	0.6416	0.2801	-0.059
Mof_C 	C 	0.8326	0.5928	0.784	-0.036
Mof_C 	C 	0.6674	0.9072	0.284	-0.036
Mof_C 	C 	0.9634	0.3901	0.2904	-0.061
Mof_C 	C 	0.3737	0.0011	0.5037	-0.033
Mof_C 	C 	0.0492	0.4751	0.0489	-0.007
Mof_C 	C 	0.5367	0.9543	0.216	0.014
Mof_C 	C 	0.6429	0.9056	0.715	-0.003
Mof_C 	C 	0.7935	0.7058	0.274	0.007
Mof_C 	C 	0.0078	0.6659	0.741	-0.094
Mof_C 	C 	0.4922	0.8341	0.241	-0.093
Mof_C 	C 	0.2789	0.3584	0.7199	-0.059
Mof_C 	C 	0.6848	0.5137	0.2598	0.441
Mof_C 	C 	0.6013	0.6365	0.3122	0.31
Mof_C 	C 	0.8608	0.5364	0.7532	-0.1
Mof_C 	C 	0.0768	0.7367	0.7315	0.4
Mof_C 	C 	0.6499	0.1134	0.8278	0.34
Mof_C 	C 	0.7388	0.5081	0.9903	0.297
Mof_C 	C 	0.9216	0.4757	0.0455	-0.08
Mof_C 	C 	0.0366	0.6099	0.7096	-0.061
Mof_C 	C 	0.2612	0.4919	0.0097	0.297
Mof_O 	O 	0.0899	0.778	0.7729	-0.527
Mof_O 	O 	0.2758	0.94379	0.688	-0.422
Mof_O 	O 	0.0935	0.1723	0.1443	-0.444
Mof_O 	O 	0.7729	0.0603	0.5892	-0.542
Mof_O 	O 	0.8264	0.0065	0.8116	-0.459
Mof_O 	O 	0.992	0.9034	0.7915	-0.407
Mof_O 	O 	0.2271	0.9397	0.4108	-0.542
Mof_O 	O 	0.7521	0.1335	0.8026	-0.395
Mof_O 	O 	0.2401	0.57	0.2836	-0.54
Mof_O 	O 	0.4733	0.3267	0.2287	-0.587
Mof_O 	O 	0.9927	0.197	0.82041	-0.444
Mof_O 	O 	0.3619	0.9062	0.1216	-0.326
Mof_O 	O 	0.2038	0.1226	0.6387	-0.44
Mof_O 	O 	0.6189	0.549	0.7957	-0.435
Mof_O 	O 	0.2599	0.93	0.7836	-0.539
Mof_O 	O 	0.3556	0.8211	0.70324	-0.391
Mof_O 	O 	0.8811	0.951	0.2957	-0.432
Mof_O 	O 	0.5267	0.6733	0.7713	-0.587
Mof_O 	O 	0.6053	0.072	0.6386	-0.319
Mof_O 	O 	0.2242	0.55621	0.188	-0.422
Mof_O 	O 	0.7758	0.44379	0.812	-0.422
Mof_O 	O 	0.1381	0.5938	0.6216	-0.327
Mof_O 	O 	0.3811	0.451	0.2043	-0.435
Mof_O 	O 	0.1053	0.572	0.8614	-0.32
Mof_O 	O 	0.8947	0.428	0.1386	-0.32
Mof_O 	O 	0.3947	0.928	0.3614	-0.319
Mof_O 	O 	0.6143	0.2532	0.81886	-0.427
Mof_O 	O 	0.4927	0.697	0.67959	-0.441
Mof_O 	O 	0.0392	0.6509	0.1214	-0.276
Mof_O 	O 	0.7599	0.43	0.7164	-0.54
Mof_O 	O 	0.1472	0.9782	0.2834	-0.552
Mof_O 	O 	0.2729	0.5603	0.9108	-0.543
Mof_O 	O 	0.6736	0.4935	0.3116	-0.456
Mof_O 	O 	0.8528	0.0218	0.7166	-0.552
Mof_O 	O 	0.9608	0.3491	0.8786	-0.276
Mof_O 	O 	0.9733	0.8267	0.2713	-0.585
Mof_O 	O 	0.0073	0.803	0.17959	-0.444
Mof_O 	O 	0.4608	0.8491	0.6214	-0.277
Mof_O 	O 	0.7976	0.9414	0.5126	-0.284
Mof_O 	O 	0.7024	0.5586	0.0126	-0.284
Mof_O 	O 	0.5073	0.303	0.32041	-0.441
Mof_O 	O 	0.7242	0.05621	0.312	-0.422
Mof_O 	O 	0.1444	0.6789	0.20324	-0.391
Mof_O 	O 	0.5899	0.278	0.7271	-0.526
Mof_O 	O 	0.9101	0.222	0.2271	-0.527
Mof_O 	O 	0.2521	0.6335	0.6974	-0.395
Mof_O 	O 	0.2024	0.0586	0.4874	-0.284
Mof_O 	O 	0.5392	0.1509	0.3786	-0.277
Mof_O 	O 	0.5935	0.6723	0.3557	-0.446
Mof_O 	O 	0.508	0.5966	0.2915	-0.41
Mof_O 	O 	0.3296	0.537	0.0397	-0.299
Mof_O 	O 	0.008	0.0966	0.2085	-0.407
Mof_O 	O 	0.7271	0.4397	0.0892	-0.543
Mof_O 	O 	0.4065	0.3277	0.6443	-0.446
Mof_O 	O 	0.1704	0.963	0.5397	-0.303
Mof_O 	O 	0.8556	0.3211	0.79676	-0.391
Mof_O 	O 	0.6444	0.1789	0.29676	-0.391
Mof_O 	O 	0.1736	0.9935	0.1884	-0.459
Mof_O 	O 	0.492	0.4034	0.7085	-0.41
Mof_O 	O 	0.8296	0.037	0.4603	-0.303
Mof_O 	O 	0.0267	0.1733	0.7287	-0.585
Mof_O 	O 	0.7038	0.6226	0.8613	-0.442
Mof_O 	O 	0.7479	0.3665	0.3026	-0.395
Mof_O 	O 	0.1143	0.7532	0.68114	-0.428
Mof_O 	O 	0.4101	0.722	0.2729	-0.526
Mof_O 	O 	0.6381	0.0938	0.8784	-0.326
Mof_O 	O 	0.6472	0.4782	0.2166	-0.55
Mof_O 	O 	0.9065	0.8277	0.8557	-0.444
Mof_O 	O 	0.7962	0.8774	0.3613	-0.44
Mof_O 	O 	0.6704	0.463	0.9603	-0.299
Mof_O 	O 	0.3857	0.7468	0.18114	-0.427
Mof_O 	O 	0.2479	0.8665	0.1974	-0.395
Mof_O 	O 	0.2962	0.3774	0.1387	-0.442
Mof_O 	O 	0.8857	0.2468	0.31886	-0.428
Mof_O 	O 	0.3264	0.5065	0.6884	-0.456
Mof_O 	O 	0.3528	0.5218	0.7834	-0.55
Mof_O 	O 	0.7401	0.07	0.2164	-0.539
Mof_O 	O 	0.2976	0.4414	0.9874	-0.284
Mof_O 	O 	0.8619	0.4062	0.3784	-0.327
Mof_O 	O 	0.1189	0.049	0.7043	-0.432
_end
