data_functionalizedCrystal
_audit_creation_method	'EQeq! by Chris Wilmer'
_symmetry_space_group_name_H-M	'P1'
_symmetry_Int_Tables_number	1
_symmetry_cell_setting	triclinic
loop_
_symmetry_equiv_pos_as_xyz
  x,y,z
_cell_length_a	24.2009
_cell_length_b	24.2009
_cell_length_c	12.9648
_cell_angle_alpha	90
_cell_angle_beta	90
_cell_angle_gamma	120
loop_
_atom_site_label
_atom_site_type_symbol
_atom_site_fract_x
_atom_site_fract_y
_atom_site_fract_z
_atom_site_charge
Mof_O 	O 	0.5693	0.9366	0.0575	-0.447
Mof_O 	O 	0.6185	0.0205	0.1626	-0.58
Mof_O 	O 	0.3223	0.2312	0.2515	-0.545
Mof_C 	C 	0.3912	0.9762	0.155	0.202
Mof_C 	C 	0.4485	0.0276	0.1898	-0.267
Mof_H 	H 	0.4483	0.0623	0.2201	0.111
Mof_C 	C 	0.5054	0.0279	0.18	0.096
Mof_H 	H 	0.5429	0.0619	0.2054	-0.036
Mof_C 	C 	0.5065	0.9768	0.1319	-0.176
Mof_C 	C 	0.4503	0.9256	0.0937	0.1
Mof_H 	H 	0.4513	0.8919	0.0608	-0.019
Mof_C 	C 	0.3921	0.9251	0.1051	-0.227
Mof_H 	H 	0.3545	0.8911	0.0797	0.078
Mof_C 	C 	0.5679	0.9774	0.1174	0.412
Mof_C 	C 	0.3633	0.0787	0.0873	-0.2
Mof_H 	H 	0.3838	0.0696	0.0349	0.055
Mof_C 	C 	0.3628	0.1366	0.0859	0.083
Mof_H 	H 	0.3818	0.1653	0.032	-0.032
Mof_O 	O 	0.23597	0.26993	0.39083	-0.443
Mof_O 	O 	0.28517	0.35383	0.49593	-0.565
Mof_O 	O 	0.98897	0.56453	0.58483	-0.509
Mof_C 	C 	0.05787	0.30953	0.48833	0.172
Mof_C 	C 	0.11517	0.36093	0.52313	-0.221
Mof_H 	H 	0.11497	0.39563	0.55343	0.108
Mof_C 	C 	0.17207	0.36123	0.51333	0.131
Mof_H 	H 	0.20957	0.39523	0.53873	-0.031
Mof_C 	C 	0.17317	0.31013	0.46523	-0.186
Mof_C 	C 	0.11697	0.25893	0.42703	0.108
Mof_H 	H 	0.11797	0.22523	0.39413	-0.004
Mof_C 	C 	0.05877	0.25843	0.43843	-0.209
Mof_H 	H 	0.02117	0.22443	0.41303	0.088
Mof_C 	C 	0.23457	0.31073	0.45073	0.389
Mof_C 	C 	0.02997	0.41203	0.42063	-0.208
Mof_H 	H 	0.05047	0.40293	0.36823	0.105
Mof_C 	C 	0.02947	0.46993	0.41923	0.111
Mof_H 	H 	0.04847	0.49863	0.36533	-0.006
Mof_O 	O 	0.90263	0.60327	0.72417	-0.422
Mof_O 	O 	0.95183	0.68717	0.82927	-0.478
Mof_O 	O 	0.65563	0.89787	0.91817	-0.44
Mof_C 	C 	0.72453	0.64287	0.82167	0.186
Mof_C 	C 	0.78183	0.69427	0.85647	-0.2
Mof_H 	H 	0.78163	0.72897	0.88677	0.129
Mof_C 	C 	0.83873	0.69457	0.84667	0.13
Mof_H 	H 	0.87623	0.72857	0.87207	0.004
Mof_C 	C 	0.83983	0.64347	0.79857	-0.155
Mof_C 	C 	0.78363	0.59227	0.76037	0.104
Mof_H 	H 	0.78463	0.55857	0.72747	0.01
Mof_C 	C 	0.72543	0.59177	0.77177	-0.196
Mof_H 	H 	0.68783	0.55777	0.74637	0.099
Mof_C 	C 	0.90123	0.64407	0.78407	0.372
Mof_C 	C 	0.69663	0.74537	0.75397	-0.205
Mof_H 	H 	0.71713	0.73627	0.70157	0.108
Mof_C 	C 	0.69613	0.80327	0.75257	0.111
Mof_H 	H 	0.71513	0.83197	0.69867	0.004
Mof_O 	O 	0.0634	0.6327	0.0575	-0.45
Mof_O 	O 	0.9795	0.598	0.1626	-0.539
Mof_O 	O 	0.7688	0.0911	0.2515	-0.54
Mof_C 	C 	0.0238	0.415	0.155	0.131
Mof_C 	C 	0.9724	0.4209	0.1898	-0.197
Mof_H 	H 	0.9377	0.386	0.2201	0.097
Mof_C 	C 	0.9721	0.4775	0.18	0.15
Mof_H 	H 	0.9381	0.481	0.2054	-0.047
Mof_C 	C 	0.0232	0.5297	0.1319	-0.228
Mof_C 	C 	0.0744	0.5247	0.0937	0.098
Mof_H 	H 	0.1081	0.5594	0.0608	-0.02
Mof_C 	C 	0.0749	0.467	0.1051	-0.213
Mof_H 	H 	0.1089	0.4634	0.0797	0.072
Mof_C 	C 	0.0226	0.5905	0.1174	0.357
Mof_C 	C 	0.9213	0.2846	0.0873	-0.233
Mof_H 	H 	0.9304	0.3142	0.0349	0.076
Mof_C 	C 	0.8634	0.2262	0.0859	0.11
Mof_H 	H 	0.8347	0.2165	0.032	-0.04
Mof_O 	O 	0.73007	0.96603	0.39083	-0.418
Mof_O 	O 	0.64617	0.93133	0.49593	-0.559
Mof_O 	O 	0.43547	0.42443	0.58483	-0.548
Mof_C 	C 	0.69047	0.74833	0.48833	0.177
Mof_C 	C 	0.63907	0.75423	0.52313	-0.223
Mof_H 	H 	0.60437	0.71933	0.55343	0.109
Mof_C 	C 	0.63877	0.81083	0.51333	0.132
Mof_H 	H 	0.60477	0.81433	0.53873	-0.032
Mof_C 	C 	0.68987	0.86303	0.46523	-0.183
Mof_C 	C 	0.74107	0.85803	0.42703	0.11
Mof_H 	H 	0.77477	0.89273	0.39413	0.007
Mof_C 	C 	0.74157	0.80033	0.43843	-0.205
Mof_H 	H 	0.77557	0.79673	0.41303	0.102
Mof_C 	C 	0.68927	0.92383	0.45073	0.39
Mof_C 	C 	0.58797	0.61793	0.42063	-0.214
Mof_H 	H 	0.59707	0.64753	0.36823	0.11
Mof_C 	C 	0.53007	0.55953	0.41923	0.114
Mof_H 	H 	0.50137	0.54983	0.36533	-0.004
Mof_O 	O 	0.39673	0.29937	0.72417	-0.434
Mof_O 	O 	0.31283	0.26467	0.82927	-0.504
Mof_O 	O 	0.10213	0.75777	0.91817	-0.45
Mof_C 	C 	0.35713	0.08167	0.82167	0.183
Mof_C 	C 	0.30573	0.08757	0.85647	-0.203
Mof_H 	H 	0.27103	0.05267	0.88677	0.119
Mof_C 	C 	0.30543	0.14417	0.84667	0.132
Mof_H 	H 	0.27143	0.14767	0.87207	-0.006
Mof_C 	C 	0.35653	0.19637	0.79857	-0.16
Mof_C 	C 	0.40773	0.19137	0.76037	0.106
Mof_H 	H 	0.44143	0.22607	0.72747	0.009
Mof_C 	C 	0.40823	0.13367	0.77177	-0.196
Mof_H 	H 	0.44223	0.13007	0.74637	0.1
Mof_C 	C 	0.35593	0.25717	0.78407	0.378
Mof_C 	C 	0.25463	0.95127	0.75397	-0.225
Mof_H 	H 	0.26373	0.98087	0.70157	0.126
Mof_C 	C 	0.19673	0.89287	0.75257	0.126
Mof_H 	H 	0.16803	0.88317	0.69867	-0.003
Mof_O 	O 	0.3673	0.4307	0.0575	-0.457
Mof_O 	O 	0.402	0.3815	0.1626	-0.563
Mof_O 	O 	0.9089	0.6777	0.2515	-0.544
Mof_C 	C 	0.585	0.6088	0.155	0.163
Mof_C 	C 	0.5791	0.5515	0.1898	-0.23
Mof_H 	H 	0.614	0.5517	0.2201	0.103
Mof_C 	C 	0.5225	0.4946	0.18	0.125
Mof_H 	H 	0.519	0.4571	0.2054	-0.042
Mof_C 	C 	0.4703	0.4935	0.1319	-0.205
Mof_C 	C 	0.4753	0.5497	0.0937	0.099
Mof_H 	H 	0.4406	0.5487	0.0608	-0.02
Mof_C 	C 	0.533	0.6079	0.1051	-0.219
Mof_H 	H 	0.5366	0.6455	0.0797	0.075
Mof_C 	C 	0.4095	0.4321	0.1174	0.383
Mof_C 	C 	0.7154	0.6367	0.0873	-0.216
Mof_H 	H 	0.6858	0.6162	0.0349	0.066
Mof_C 	C 	0.7738	0.6372	0.0859	0.097
Mof_H 	H 	0.7835	0.6182	0.032	-0.035
Mof_O 	O 	0.03397	0.76403	0.39083	-0.459
Mof_O 	O 	0.06867	0.71483	0.49593	-0.57
Mof_O 	O 	0.57557	0.01103	0.58483	-0.56
Mof_C 	C 	0.25167	0.94213	0.48833	0.214
Mof_C 	C 	0.24577	0.88483	0.52313	-0.244
Mof_H 	H 	0.28067	0.88503	0.55343	0.121
Mof_C 	C 	0.18917	0.82793	0.51333	0.149
Mof_H 	H 	0.18567	0.79043	0.53873	-0.036
Mof_C 	C 	0.13697	0.82683	0.46523	-0.197
Mof_C 	C 	0.14197	0.88303	0.42703	0.127
Mof_H 	H 	0.10727	0.88203	0.39413	-0.005
Mof_C 	C 	0.19967	0.94123	0.43843	-0.226
Mof_H 	H 	0.20327	0.97883	0.41303	0.118
Mof_C 	C 	0.07617	0.76543	0.45073	0.393
Mof_C 	C 	0.38207	0.97003	0.42063	-0.175
Mof_H 	H 	0.35247	0.94953	0.36823	0.103
Mof_C 	C 	0.44047	0.97053	0.41923	0.14
Mof_H 	H 	0.45017	0.95153	0.36533	-0.006
Mof_O 	O 	0.70063	0.09737	0.72417	-0.445
Mof_O 	O 	0.73533	0.04817	0.82927	-0.509
Mof_O 	O 	0.24223	0.34437	0.91817	-0.454
Mof_C 	C 	0.91833	0.27547	0.82167	0.192
Mof_C 	C 	0.91243	0.21817	0.85647	-0.205
Mof_H 	H 	0.94733	0.21837	0.88677	0.135
Mof_C 	C 	0.85583	0.16127	0.84667	0.137
Mof_H 	H 	0.85233	0.12377	0.87207	-0.004
Mof_C 	C 	0.80363	0.16017	0.79857	-0.161
Mof_C 	C 	0.80863	0.21637	0.76037	0.11
Mof_H 	H 	0.77393	0.21537	0.72747	0.008
Mof_C 	C 	0.86633	0.27457	0.77177	-0.2
Mof_H 	H 	0.86993	0.31217	0.74637	0.101
Mof_C 	C 	0.74283	0.09877	0.78407	0.378
Mof_C 	C 	0.04873	0.30337	0.75397	-0.192
Mof_H 	H 	0.01913	0.28287	0.70157	0.092
Mof_C 	C 	0.10713	0.30387	0.75257	0.097
Mof_H 	H 	0.11683	0.28487	0.69867	0.003
Mof_O 	O 	0.9366	0.5693	0.9425	-0.353
Mof_O 	O 	0.0205	0.6185	0.8374	-0.541
Mof_O 	O 	0.2312	0.3223	0.7485	-0.531
Mof_C 	C 	0.9762	0.3912	0.845	0.222
Mof_C 	C 	0.0276	0.4485	0.8102	-0.247
Mof_H 	H 	0.0623	0.4483	0.7799	0.119
Mof_C 	C 	0.0279	0.5054	0.82	0.115
Mof_H 	H 	0.0619	0.5429	0.7946	-0.018
Mof_C 	C 	0.9768	0.5065	0.8681	-0.141
Mof_C 	C 	0.9256	0.4503	0.9063	0.118
Mof_H 	H 	0.8919	0.4513	0.9392	0.026
Mof_C 	C 	0.9251	0.3921	0.8949	-0.201
Mof_H 	H 	0.8911	0.3545	0.9203	0.13
Mof_C 	C 	0.9774	0.5679	0.8826	0.414
Mof_C 	C 	0.0787	0.3633	0.9127	-0.185
Mof_H 	H 	0.0696	0.3838	0.9651	0.139
Mof_C 	C 	0.1366	0.3628	0.9141	0.106
Mof_H 	H 	0.1653	0.3818	0.968	0.039
Mof_O 	O 	0.60327	0.90263	0.27583	-0.423
Mof_O 	O 	0.68717	0.95183	0.17073	-0.513
Mof_O 	O 	0.89787	0.65563	0.08183	-0.535
Mof_C 	C 	0.64287	0.72453	0.17833	0.157
Mof_C 	C 	0.69427	0.78183	0.14353	-0.224
Mof_H 	H 	0.72897	0.78163	0.11323	0.088
Mof_C 	C 	0.69457	0.83873	0.15333	0.108
Mof_H 	H 	0.72857	0.87623	0.12793	-0.034
Mof_C 	C 	0.64347	0.83983	0.20143	-0.18
Mof_C 	C 	0.59227	0.78363	0.23963	0.093
Mof_H 	H 	0.55857	0.78463	0.27253	0.004
Mof_C 	C 	0.59177	0.72543	0.22823	-0.204
Mof_H 	H 	0.55777	0.68783	0.25363	0.098
Mof_C 	C 	0.64407	0.90123	0.21593	0.368
Mof_C 	C 	0.74537	0.69663	0.24603	-0.209
Mof_H 	H 	0.73627	0.71713	0.29843	0.108
Mof_C 	C 	0.80327	0.69613	0.24743	0.107
Mof_H 	H 	0.83197	0.71513	0.30133	-0.001
Mof_O 	O 	0.26993	0.23597	0.60917	-0.441
Mof_O 	O 	0.35383	0.28517	0.50407	-0.565
Mof_O 	O 	0.56453	0.98897	0.41517	-0.503
Mof_C 	C 	0.30953	0.05787	0.51167	0.17
Mof_C 	C 	0.36093	0.11517	0.47687	-0.22
Mof_H 	H 	0.39563	0.11497	0.44657	0.105
Mof_C 	C 	0.36123	0.17207	0.48667	0.129
Mof_H 	H 	0.39523	0.20957	0.46127	-0.034
Mof_C 	C 	0.31013	0.17317	0.53477	-0.185
Mof_C 	C 	0.25893	0.11697	0.57297	0.104
Mof_H 	H 	0.22523	0.11797	0.60587	0.003
Mof_C 	C 	0.25843	0.05877	0.56157	-0.209
Mof_H 	H 	0.22443	0.02117	0.58697	0.091
Mof_C 	C 	0.31073	0.23457	0.54927	0.387
Mof_C 	C 	0.41203	0.02997	0.57937	-0.207
Mof_H 	H 	0.40293	0.05047	0.63177	0.102
Mof_C 	C 	0.46993	0.02947	0.58077	0.11
Mof_H 	H 	0.49863	0.04847	0.63467	-0.007
Mof_O 	O 	0.6327	0.0634	0.9425	-0.35
Mof_O 	O 	0.598	0.9795	0.8374	-0.501
Mof_O 	O 	0.0911	0.7688	0.7485	-0.527
Mof_C 	C 	0.415	0.0238	0.845	0.157
Mof_C 	C 	0.4209	0.9724	0.8102	-0.183
Mof_H 	H 	0.386	0.9377	0.7799	0.106
Mof_C 	C 	0.4775	0.9721	0.82	0.164
Mof_H 	H 	0.481	0.9381	0.7946	-0.027
Mof_C 	C 	0.5297	0.0232	0.8681	-0.188
Mof_C 	C 	0.5247	0.0744	0.9063	0.117
Mof_H 	H 	0.5594	0.1081	0.9392	0.026
Mof_C 	C 	0.467	0.0749	0.8949	-0.188
Mof_H 	H 	0.4634	0.1089	0.9203	0.126
Mof_C 	C 	0.5905	0.0226	0.8826	0.362
Mof_C 	C 	0.2846	0.9213	0.9127	-0.216
Mof_H 	H 	0.3142	0.9304	0.9651	0.157
Mof_C 	C 	0.2262	0.8634	0.9141	0.131
Mof_H 	H 	0.2165	0.8347	0.968	0.03
Mof_O 	O 	0.29937	0.39673	0.27583	-0.437
Mof_O 	O 	0.26467	0.31283	0.17073	-0.545
Mof_O 	O 	0.75777	0.10213	0.08183	-0.541
Mof_C 	C 	0.08167	0.35713	0.17833	0.155
Mof_C 	C 	0.08757	0.30573	0.14353	-0.229
Mof_H 	H 	0.05267	0.27103	0.11323	0.077
Mof_C 	C 	0.14417	0.30543	0.15333	0.111
Mof_H 	H 	0.14767	0.27143	0.12793	-0.046
Mof_C 	C 	0.19637	0.35653	0.20143	-0.187
Mof_C 	C 	0.19137	0.40773	0.23963	0.096
Mof_H 	H 	0.22607	0.44143	0.27253	0.003
Mof_C 	C 	0.13367	0.40823	0.22823	-0.205
Mof_H 	H 	0.13007	0.44223	0.25363	0.098
Mof_C 	C 	0.25717	0.35593	0.21593	0.375
Mof_C 	C 	0.95127	0.25463	0.24603	-0.228
Mof_H 	H 	0.98087	0.26373	0.29843	0.125
Mof_C 	C 	0.89287	0.19673	0.24743	0.121
Mof_H 	H 	0.88317	0.16803	0.30133	-0.008
Mof_O 	O 	0.96603	0.73007	0.60917	-0.418
Mof_O 	O 	0.93133	0.64617	0.50407	-0.56
Mof_O 	O 	0.42443	0.43547	0.41517	-0.547
Mof_C 	C 	0.74833	0.69047	0.51167	0.176
Mof_C 	C 	0.75423	0.63907	0.47687	-0.223
Mof_H 	H 	0.71933	0.60437	0.44657	0.106
Mof_C 	C 	0.81083	0.63877	0.48667	0.131
Mof_H 	H 	0.81433	0.60477	0.46127	-0.035
Mof_C 	C 	0.86303	0.68987	0.53477	-0.183
Mof_C 	C 	0.85803	0.74107	0.57297	0.107
Mof_H 	H 	0.89273	0.77477	0.60587	0.013
Mof_C 	C 	0.80033	0.74157	0.56157	-0.205
Mof_H 	H 	0.79673	0.77557	0.58697	0.106
Mof_C 	C 	0.92383	0.68927	0.54927	0.387
Mof_C 	C 	0.61793	0.58797	0.57937	-0.214
Mof_H 	H 	0.64753	0.59707	0.63177	0.108
Mof_C 	C 	0.55953	0.53007	0.58077	0.114
Mof_H 	H 	0.54983	0.50137	0.63467	-0.005
Mof_O 	O 	0.4307	0.3673	0.9425	-0.358
Mof_O 	O 	0.3815	0.402	0.8374	-0.525
Mof_O 	O 	0.6777	0.9089	0.7485	-0.53
Mof_C 	C 	0.6088	0.585	0.845	0.19
Mof_C 	C 	0.5515	0.5791	0.8102	-0.215
Mof_H 	H 	0.5517	0.614	0.7799	0.112
Mof_C 	C 	0.4946	0.5225	0.82	0.139
Mof_H 	H 	0.4571	0.519	0.7946	-0.022
Mof_C 	C 	0.4935	0.4703	0.8681	-0.164
Mof_C 	C 	0.5497	0.4753	0.9063	0.117
Mof_H 	H 	0.5487	0.4406	0.9392	0.026
Mof_C 	C 	0.6079	0.533	0.8949	-0.194
Mof_H 	H 	0.6455	0.5366	0.9203	0.127
Mof_C 	C 	0.4321	0.4095	0.8826	0.389
Mof_C 	C 	0.6367	0.7154	0.9127	-0.199
Mof_H 	H 	0.6162	0.6858	0.9651	0.148
Mof_C 	C 	0.6372	0.7738	0.9141	0.117
Mof_H 	H 	0.6182	0.7835	0.968	0.035
Mof_O 	O 	0.09737	0.70063	0.27583	-0.448
Mof_O 	O 	0.04817	0.73533	0.17073	-0.551
Mof_O 	O 	0.34437	0.24223	0.08183	-0.548
Mof_C 	C 	0.27547	0.91833	0.17833	0.166
Mof_C 	C 	0.21817	0.91243	0.14353	-0.23
Mof_H 	H 	0.21837	0.94733	0.11323	0.095
Mof_C 	C 	0.16127	0.85583	0.15333	0.116
Mof_H 	H 	0.12377	0.85233	0.12793	-0.043
Mof_C 	C 	0.16017	0.80363	0.20143	-0.188
Mof_C 	C 	0.21637	0.80863	0.23963	0.1
Mof_H 	H 	0.21537	0.77393	0.27253	0.002
Mof_C 	C 	0.27457	0.86633	0.22823	-0.209
Mof_H 	H 	0.31217	0.86993	0.25363	0.1
Mof_C 	C 	0.09877	0.74283	0.21593	0.376
Mof_C 	C 	0.30337	0.04873	0.24603	-0.193
Mof_H 	H 	0.28287	0.01913	0.29843	0.089
Mof_C 	C 	0.30387	0.10713	0.24743	0.09
Mof_H 	H 	0.28487	0.11683	0.30133	-0.002
Mof_O 	O 	0.76403	0.03397	0.60917	-0.458
Mof_O 	O 	0.71483	0.06867	0.50407	-0.57
Mof_O 	O 	0.01103	0.57557	0.41517	-0.559
Mof_C 	C 	0.94213	0.25167	0.51167	0.209
Mof_C 	C 	0.88483	0.24577	0.47687	-0.242
Mof_H 	H 	0.88503	0.28067	0.44657	0.117
Mof_C 	C 	0.82793	0.18917	0.48667	0.146
Mof_H 	H 	0.79043	0.18567	0.46127	-0.038
Mof_C 	C 	0.82683	0.13697	0.53477	-0.195
Mof_C 	C 	0.88303	0.14197	0.57297	0.122
Mof_H 	H 	0.88203	0.10727	0.60587	0.001
Mof_C 	C 	0.94123	0.19967	0.56157	-0.224
Mof_H 	H 	0.97883	0.20327	0.58697	0.119
Mof_C 	C 	0.76543	0.07617	0.54927	0.389
Mof_C 	C 	0.97003	0.38207	0.57937	-0.179
Mof_H 	H 	0.94953	0.35247	0.63177	0.101
Mof_C 	C 	0.97053	0.44047	0.58077	0.137
Mof_H 	H 	0.95153	0.45017	0.63467	-0.007
Mof_La	La	0.66667	0.01888	0.33333	2.032
Mof_La	La	0.98112	0.64778	0.33333	2.19
Mof_La	La	0.35222	0.33333	0.33333	2.114
Mof_La	La	0.01888	0.66667	0.66667	2.059
Mof_La	La	0.68555	0	-0	1.719
Mof_La	La	0.64778	0.98112	0.66667	2.212
Mof_La	La	0.31445	0.31445	-0	1.796
Mof_La	La	0.33333	0.35222	0.66667	2.132
Mof_La	La	6.91529e-17	0.68555	-0	1.738
Mof_N 	N 	0.33333	0.97572	0.16667	-0.188
Mof_C 	C 	0.33333	0.03492	0.16667	0.122
Mof_C 	C 	0.33333	0.15002	0.16667	-0.203
Mof_C 	C 	0.33333	0.21322	0.16667	0.451
Mof_N 	N 	3.63498e-17	0.30905	0.5	-0.209
Mof_C 	C 	-3.28031e-17	0.36825	0.5	0.14
Mof_C 	C 	1.77335e-18	0.48335	0.5	-0.227
Mof_C 	C 	1.77335e-18	0.54655	0.5	0.437
Mof_N 	N 	0.02428	0.35762	0.16667	-0.21
Mof_C 	C 	0.96508	0.29842	0.16667	0.193
Mof_C 	C 	0.84998	0.18332	0.16667	-0.219
Mof_C 	C 	0.78678	0.12012	0.16667	0.453
Mof_N 	N 	0.69095	0.69095	0.5	-0.198
Mof_C 	C 	0.63175	0.63175	0.5	0.174
Mof_C 	C 	0.51665	0.51665	0.5	-0.205
Mof_C 	C 	0.45345	0.45345	0.5	0.466
Mof_N 	N 	0.64238	0.66667	0.16667	-0.2
Mof_C 	C 	0.70158	0.66667	0.16667	0.159
Mof_C 	C 	0.81668	0.66667	0.16667	-0.208
Mof_C 	C 	0.87988	0.66667	0.16667	0.455
Mof_N 	N 	0.30905	0	0.5	-0.211
Mof_C 	C 	0.36825	0	0.5	0.136
Mof_C 	C 	0.48335	0	0.5	-0.229
Mof_C 	C 	0.54655	0	0.5	0.433
Mof_N 	N 	0.97572	0.33333	0.83333	-0.183
Mof_C 	C 	0.03492	0.33333	0.83333	0.152
Mof_C 	C 	0.15002	0.33333	0.83333	-0.173
Mof_C 	C 	0.21322	0.33333	0.83333	0.446
Mof_N 	N 	0.35762	0.02428	0.83333	-0.204
Mof_C 	C 	0.29842	0.96508	0.83333	0.217
Mof_C 	C 	0.18332	0.84998	0.83333	-0.187
Mof_C 	C 	0.12012	0.78678	0.83333	0.448
Mof_N 	N 	0.66667	0.64238	0.83333	-0.193
Mof_C 	C 	0.66667	0.70158	0.83333	0.183
Mof_C 	C 	0.66667	0.81668	0.83333	-0.177
Mof_C 	C 	0.66667	0.87988	0.83333	0.449
_end
