data_functionalizedCrystal
_audit_creation_method	'EQeq! by Chris Wilmer'
_symmetry_space_group_name_H-M	'P1'
_symmetry_Int_Tables_number	1
_symmetry_cell_setting	triclinic
loop_
_symmetry_equiv_pos_as_xyz
  x,y,z
_cell_length_a	12.392
_cell_length_b	12.703
_cell_length_c	12.991
_cell_angle_alpha	63.63
_cell_angle_beta	88.8
_cell_angle_gamma	66.27
loop_
_atom_site_label
_atom_site_type_symbol
_atom_site_fract_x
_atom_site_fract_y
_atom_site_fract_z
_atom_site_charge
Mof_Na	Na	0.0062	0.6365	0.243	1.803
Mof_Na	Na	0.9251	0.4261	0.1916	1.999
Mof_Na	Na	0.7314	0.9374	0.1068	1.302
Mof_Na	Na	0.9938	0.3635	0.757	1.828
Mof_Na	Na	0.0749	0.5739	0.8084	2.088
Mof_Na	Na	0.2686	0.0626	0.8932	1.431
Mof_Cu	Cu	0.7253	0.9169	0.5066	0.815
Mof_Cu	Cu	0.2747	0.0831	0.4934	0.804
Mof_Cu	Cu	0.5	0.5	-0	0.752
Mof_H 	H 	0.7072	0.898	0.7664	0.058
Mof_H 	H 	0.646	0.8044	0.7916	0.072
Mof_H 	H 	0.5622	0.904	0.6105	0.083
Mof_H 	H 	0.5796	0.0134	0.6046	0.051
Mof_H 	H 	0.2928	0.102	0.2336	0.033
Mof_H 	H 	0.354	0.1956	0.2084	0.051
Mof_H 	H 	0.4378	0.096	0.3895	0.082
Mof_H 	H 	0.4204	0.9866	0.3954	0.077
Mof_W 	W 	0.59872	0.25288	0.31225	0.814
Mof_W 	W 	0.78135	0.17064	0.54528	0.607
Mof_W 	W 	0.34516	0.51215	0.22911	1.353
Mof_W 	W 	0.37546	0.79103	0.22143	1.273
Mof_W 	W 	0.43848	0.28895	0.54727	0.976
Mof_W 	W 	0.63436	0.51936	0.32505	1.328
Mof_W 	W 	0.40128	0.74712	0.68775	0.835
Mof_W 	W 	0.21865	0.82936	0.45472	0.616
Mof_W 	W 	0.65484	0.48785	0.77089	1.356
Mof_W 	W 	0.62454	0.20897	0.77857	1.272
Mof_W 	W 	0.56152	0.71105	0.45273	0.979
Mof_W 	W 	0.36564	0.48064	0.67495	1.334
Mof_C 	C 	0.6909	0.845	0.7393	-0.273
Mof_C 	C 	0.8108	0.738	0.7422	0.421
Mof_C 	C 	0.3091	0.155	0.2607	-0.259
Mof_C 	C 	0.1892	0.262	0.2578	0.415
Mof_N 	N 	0.6178	0.93	0.6185	-0.282
Mof_N 	N 	0.3822	0.07	0.3815	-0.308
Mof_O 	O 	0.985	0.4514	0.3607	-0.683
Mof_O 	O 	0.89	0.6615	0.0739	-0.757
Mof_O 	O 	0.3634	0.4376	0.4095	-0.468
Mof_O 	O 	0.6239	0.0865	0.3715	-0.585
Mof_O 	O 	0.5842	0.2268	0.4985	-0.416
Mof_O 	O 	0.7434	0.1736	0.6851	-0.502
Mof_O 	O 	0.8192	0.7499	0.288	-0.718
Mof_O 	O 	0.3149	0.6715	0.2216	-0.585
Mof_O 	O 	0.3769	0.5481	0.0882	-0.683
Mof_O 	O 	0.1998	0.5316	0.2124	-0.749
Mof_O 	O 	0.5161	0.6905	0.1841	-0.55
Mof_O 	O 	0.7505	0.2222	0.3801	-0.54
Mof_O 	O 	0.428	0.3236	0.2841	-0.498
Mof_O 	O 	0.6984	0.3819	0.4708	-0.44
Mof_O 	O 	0.5383	0.4496	0.2853	-0.522
Mof_O 	O 	0.8312	0.7548	0.641	-0.597
Mof_O 	O 	0.4768	0.6172	0.3953	-0.35
Mof_O 	O 	0.745	0.4912	0.2468	-0.798
Mof_O 	O 	0.3011	0.9302	0.0852	-0.785
Mof_O 	O 	0.4606	0.8469	0.2873	-0.515
Mof_O 	O 	0.3328	0.3656	0.6331	-0.498
Mof_O 	O 	0.8774	0.6588	0.8361	-0.696
Mof_O 	O 	0.015	0.5486	0.6393	-0.698
Mof_O 	O 	0.11	0.3385	0.9261	-0.739
Mof_O 	O 	0.6366	0.5624	0.5905	-0.469
Mof_O 	O 	0.3761	0.9135	0.6285	-0.572
Mof_O 	O 	0.4158	0.7732	0.5015	-0.418
Mof_O 	O 	0.2566	0.8264	0.3149	-0.504
Mof_O 	O 	0.1808	0.2501	0.712	-0.738
Mof_O 	O 	0.6851	0.3285	0.7784	-0.578
Mof_O 	O 	0.6231	0.4519	0.9118	-0.647
Mof_O 	O 	0.8002	0.4684	0.7876	-0.742
Mof_O 	O 	0.4839	0.3095	0.8159	-0.537
Mof_O 	O 	0.2495	0.7778	0.6199	-0.537
Mof_O 	O 	0.572	0.6764	0.7159	-0.495
Mof_O 	O 	0.3016	0.6181	0.5292	-0.443
Mof_O 	O 	0.4617	0.5504	0.7147	-0.52
Mof_O 	O 	0.1688	0.2452	0.359	-0.598
Mof_O 	O 	0.5232	0.3828	0.6047	-0.351
Mof_O 	O 	0.255	0.5088	0.7532	-0.801
Mof_O 	O 	0.6989	0.0698	0.9148	-0.736
Mof_O 	O 	0.5394	0.1531	0.7127	-0.516
Mof_O 	O 	0.6672	0.6344	0.3669	-0.496
Mof_O 	O 	0.1226	0.3412	0.1639	-0.716
_end
