data_functionalizedCrystal
_audit_creation_method	'EQeq! by Chris Wilmer'
_symmetry_space_group_name_H-M	'P1'
_symmetry_Int_Tables_number	1
_symmetry_cell_setting	triclinic
loop_
_symmetry_equiv_pos_as_xyz
  x,y,z
_cell_length_a	13.462
_cell_length_b	8.767
_cell_length_c	15.125
_cell_angle_alpha	90
_cell_angle_beta	111.93
_cell_angle_gamma	90
loop_
_atom_site_label
_atom_site_type_symbol
_atom_site_fract_x
_atom_site_fract_y
_atom_site_fract_z
_atom_site_charge
Mof_C 	C 	0.1653	0.0815	0.9251	-0.162
Mof_C 	C 	0.1655	0.403	0.9096	-0.158
Mof_C 	C 	0.3374	0.232	0.9228	-0.124
Mof_N 	N 	0.1197	0.9755	0.8851	-0.312
Mof_N 	N 	0.119	0.4948	0.8552	-0.311
Mof_N 	N 	0.3867	0.2166	0.8757	-0.344
Mof_C 	C 	0.6653	0.5815	0.9251	-0.105
Mof_C 	C 	0.6655	0.903	0.9096	-0.104
Mof_C 	C 	0.8374	0.732	0.9228	-0.07
Mof_N 	N 	0.6197	0.4755	0.8851	-0.34
Mof_N 	N 	0.619	0.9948	0.8552	-0.33
Mof_N 	N 	0.8867	0.7166	0.8757	-0.208
Mof_C 	C 	0.8347	0.0815	0.5749	-0.118
Mof_C 	C 	0.8345	0.403	0.5904	-0.117
Mof_C 	C 	0.6626	0.232	0.5772	-0.152
Mof_N 	N 	0.8803	0.9755	0.6149	-0.209
Mof_N 	N 	0.881	0.4948	0.6448	-0.2
Mof_N 	N 	0.6133	0.2166	0.6243	-0.33
Mof_C 	C 	0.3347	0.5815	0.5749	-0.168
Mof_C 	C 	0.3345	0.903	0.5904	-0.167
Mof_C 	C 	0.1626	0.732	0.5772	-0.202
Mof_N 	N 	0.3803	0.4755	0.6149	-0.346
Mof_N 	N 	0.381	0.9948	0.6448	-0.333
Mof_N 	N 	0.1133	0.7166	0.6243	-0.31
Mof_C 	C 	0.8347	0.9185	0.0749	-0.124
Mof_C 	C 	0.8345	0.597	0.0904	-0.12
Mof_C 	C 	0.6626	0.768	0.0772	-0.156
Mof_N 	N 	0.8803	0.0245	0.1149	-0.212
Mof_N 	N 	0.881	0.5052	0.1448	-0.202
Mof_N 	N 	0.6133	0.7834	0.1243	-0.334
Mof_C 	C 	0.3347	0.4185	0.0749	-0.174
Mof_C 	C 	0.3345	0.097	0.0904	-0.171
Mof_C 	C 	0.1626	0.268	0.0772	-0.206
Mof_N 	N 	0.3803	0.5245	0.1149	-0.35
Mof_N 	N 	0.381	0.0052	0.1448	-0.336
Mof_N 	N 	0.1133	0.2834	0.1243	-0.312
Mof_C 	C 	0.1653	0.9185	0.4251	-0.204
Mof_C 	C 	0.1655	0.597	0.4096	-0.204
Mof_C 	C 	0.3374	0.768	0.4228	-0.169
Mof_N 	N 	0.1197	0.0245	0.3851	-0.31
Mof_N 	N 	0.119	0.5052	0.3552	-0.302
Mof_N 	N 	0.3867	0.7834	0.3757	-0.336
Mof_C 	C 	0.6653	0.4185	0.4251	-0.154
Mof_C 	C 	0.6655	0.097	0.4096	-0.153
Mof_C 	C 	0.8374	0.268	0.4228	-0.118
Mof_N 	N 	0.6197	0.5245	0.3851	-0.332
Mof_N 	N 	0.619	0.0052	0.3552	-0.321
Mof_N 	N 	0.8867	0.2834	0.3757	-0.198
Mof_Fe	Fe	0.25	0.25	-0	0.534
Mof_Fe	Fe	0.75	0.25	0.5	0.634
Mof_Fe	Fe	0.75	0.75	-0	0.533
Mof_Fe	Fe	0.25	0.75	0.5	0.625
Mof_K 	K 	6.86553e-17	0.75156	0.75	1.695
Mof_K 	K 	0.5	0.25156	0.75	2.559
Mof_K 	K 	1.44646e-33	0.24844	0.25	1.634
Mof_K 	K 	0.5	0.74844	0.25	2.504
_end
