data_functionalizedCrystal
_audit_creation_method	'EQeq! by Chris Wilmer'
_symmetry_space_group_name_H-M	'P1'
_symmetry_Int_Tables_number	1
_symmetry_cell_setting	triclinic
loop_
_symmetry_equiv_pos_as_xyz
  x,y,z
_cell_length_a	8.8048
_cell_length_b	8.8048
_cell_length_c	12.031
_cell_angle_alpha	90
_cell_angle_beta	90
_cell_angle_gamma	90
loop_
_atom_site_label
_atom_site_type_symbol
_atom_site_fract_x
_atom_site_fract_y
_atom_site_fract_z
_atom_site_charge
Mof_C 	C 	0.7655	0.5452	0.1159	0.455
Mof_O 	O 	0.8905	0.6135	0.1338	-0.267
Mof_O 	O 	0.685	0.606	0.0324	-0.34
Mof_O 	O 	0.7145	0.4414	0.1742	-0.288
Mof_C 	C 	0.2345	0.4548	0.1159	0.466
Mof_O 	O 	0.1095	0.3865	0.1338	-0.412
Mof_O 	O 	0.315	0.394	0.0324	-0.395
Mof_O 	O 	0.2855	0.5586	0.1742	-0.307
Mof_C 	C 	0.5452	0.2345	0.8841	0.46
Mof_O 	O 	0.6135	0.1095	0.8662	-0.347
Mof_O 	O 	0.606	0.315	0.9676	-0.268
Mof_O 	O 	0.4414	0.2855	0.8258	-0.284
Mof_C 	C 	0.4548	0.7655	0.8841	0.449
Mof_O 	O 	0.3865	0.8905	0.8662	-0.254
Mof_O 	O 	0.394	0.685	0.9676	-0.26
Mof_O 	O 	0.5586	0.7145	0.8258	-0.233
Mof_C 	C 	0.2655	0.9548	0.6159	0.64
Mof_O 	O 	0.3905	0.8865	0.6338	-0.329
Mof_O 	O 	0.185	0.894	0.5324	-0.337
Mof_O 	O 	0.2145	0.0586	0.6742	-0.45
Mof_C 	C 	0.7345	0.0452	0.6159	0.275
Mof_O 	O 	0.6095	0.1135	0.6338	-0.308
Mof_O 	O 	0.815	0.106	0.5324	-0.263
Mof_O 	O 	0.7855	0.9414	0.6742	-0.085
Mof_C 	C 	0.0452	0.2655	0.3841	0.284
Mof_O 	O 	0.1135	0.3905	0.3662	-0.325
Mof_O 	O 	0.106	0.185	0.4676	-0.346
Mof_O 	O 	0.9414	0.2145	0.3258	-0.164
Mof_C 	C 	0.9548	0.7345	0.3841	0.625
Mof_O 	O 	0.8865	0.6095	0.3662	-0.316
Mof_O 	O 	0.894	0.815	0.4676	-0.258
Mof_O 	O 	0.0586	0.7855	0.3258	-0.393
Mof_Cu	Cu	4.66395e-33	0.5	0.25	0.9
Mof_Cu	Cu	0.5	1.35326e-32	0.75	0.902
Mof_Cu	Cu	0.5	0.5	-0	0.925
Mof_Cu	Cu	2.56162e-33	6.76628e-33	0.5	0.848
_end
