data_functionalizedCrystal
_audit_creation_method	'EQeq! by Chris Wilmer'
_symmetry_space_group_name_H-M	'P1'
_symmetry_Int_Tables_number	1
_symmetry_cell_setting	triclinic
loop_
_symmetry_equiv_pos_as_xyz
  x,y,z
_cell_length_a	15.6069
_cell_length_b	26.4325
_cell_length_c	16.6221
_cell_angle_alpha	90
_cell_angle_beta	90.155
_cell_angle_gamma	90
loop_
_atom_site_label
_atom_site_type_symbol
_atom_site_fract_x
_atom_site_fract_y
_atom_site_fract_z
_atom_site_charge
Mof_Co	Co	0.41582	0.36329	0.74952	1.184
Mof_Co	Co	0.54511	0.25655	0.75191	1.195
Mof_Co	Co	0.13883	0.12329	0.25012	1.196
Mof_O 	O 	0.6199	0.26428	0.6497	-0.425
Mof_O 	O 	0.7064	0.33095	0.6726	-0.422
Mof_C 	C 	0.6831	0.2919	0.6353	0.383
Mof_O 	O 	0.8656	0.18929	0.3292	-0.43
Mof_C 	C 	0.8958	0.2266	0.3664	0.387
Mof_O 	O 	0.9636	0.24993	0.3514	-0.417
Mof_C 	C 	0.8436	0.2445	0.4369	-0.12
Mof_C 	C 	0.7898	0.2871	0.4275	0.05
Mof_C 	C 	0.7854	0.3146	0.3538	-0.082
Mof_H 	H 	0.8211	0.3056	0.3107	0.069
Mof_C 	C 	0.7306	0.3534	0.3457	-0.021
Mof_H 	H 	0.7264	0.3701	0.2958	0.037
Mof_C 	C 	0.6792	0.3698	0.41	-0.025
Mof_H 	H 	0.6431	0.3979	0.4032	0.044
Mof_C 	C 	0.6813	0.3454	0.4817	-0.082
Mof_H 	H 	0.6464	0.3567	0.5241	0.074
Mof_C 	C 	0.736	0.3029	0.4933	0.052
Mof_C 	C 	0.7387	0.2759	0.5658	-0.122
Mof_C 	C 	0.7909	0.2337	0.5747	0.054
Mof_C 	C 	0.7943	0.2055	0.6482	-0.084
Mof_H 	H 	0.7614	0.216	0.6924	0.069
Mof_C 	C 	0.8438	0.1639	0.6546	-0.018
Mof_H 	H 	0.8447	0.1459	0.7034	0.037
Mof_C 	C 	0.8944	0.1469	0.59	-0.031
Mof_H 	H 	0.9275	0.1174	0.5954	0.047
Mof_C 	C 	0.8952	0.1729	0.5202	-0.075
Mof_H 	H 	0.9305	0.1618	0.4781	0.068
Mof_C 	C 	0.8435	0.2171	0.5089	0.048
Mof_O 	O 	0.4423	0.24311	0.6747	-0.425
Mof_O 	O 	0.3871	0.31998	0.6513	-0.442
Mof_C 	C 	0.3969	0.2741	0.6378	0.394
Mof_O 	O 	0.1506	0.23879	0.3283	-0.429
Mof_O 	O 	0.1917	0.1587	0.3499	-0.423
Mof_C 	C 	0.1913	0.2051	0.364	0.391
Mof_C 	C 	0.2446	0.2225	0.4356	-0.121
Mof_C 	C 	0.2058	0.233	0.5081	0.051
Mof_C 	C 	0.1143	0.2304	0.5191	-0.079
Mof_H 	H 	0.0789	0.2231	0.4748	0.069
Mof_C 	C 	0.0784	0.2383	0.5926	-0.028
Mof_H 	H 	0.0186	0.236	0.5984	0.045
Mof_C 	C 	0.1302	0.2499	0.6604	-0.024
Mof_H 	H 	0.1046	0.2547	0.711	0.037
Mof_C 	C 	0.2163	0.254	0.6527	-0.081
Mof_H 	H 	0.2499	0.2613	0.6983	0.064
Mof_C 	C 	0.2571	0.2475	0.5765	0.05
Mof_C 	C 	0.3449	0.2541	0.5662	-0.12
Mof_C 	C 	0.3841	0.2456	0.4929	0.053
Mof_C 	C 	0.4742	0.2531	0.4806	-0.084
Mof_H 	H 	0.509	0.2631	0.524	0.075
Mof_C 	C 	0.5093	0.246	0.4084	-0.021
Mof_H 	H 	0.5683	0.2517	0.4015	0.042
Mof_C 	C 	0.4593	0.23	0.3418	-0.025
Mof_H 	H 	0.485	0.2252	0.2913	0.039
Mof_C 	C 	0.3745	0.2215	0.3511	-0.08
Mof_H 	H 	0.3422	0.2103	0.3067	0.068
Mof_C 	C 	0.3331	0.2289	0.4255	0.051
Mof_O 	O 	0.0785	0.07119	0.3249	-0.423
Mof_O 	O 	0.9411	0.09169	0.3481	-0.423
Mof_C 	C 	0.0094	0.0682	0.3629	0.381
Mof_C 	C 	0.1266	0.1046	0.5882	-0.026
Mof_H 	H 	0.1573	0.1351	0.5935	0.046
Mof_C 	C 	0.0931	0.0914	0.5158	-0.082
Mof_H 	H 	0.1015	0.1128	0.4713	0.071
Mof_C 	C 	0.0458	0.0463	0.5059	0.05
Mof_C 	C 	0.0064	0.0325	0.434	-0.122
Mof_C 	C 	0.9635	0.9869	0.4262	0.052
Mof_C 	C 	0.9276	0.9715	0.3509	-0.083
Mof_H 	H 	0.934	0.9922	0.3054	0.066
Mof_C 	C 	0.8844	0.9272	0.3444	-0.023
Mof_H 	H 	0.8615	0.9175	0.2943	0.037
Mof_O 	O 	0.9484	0.07994	0.1702	-0.431
Mof_O 	O 	0.089	0.08867	0.1475	-0.423
Mof_C 	C 	0.0161	0.07118	0.1325	0.39
Mof_C 	C 	0.9759	0.0515	0.9899	0.052
Mof_C 	C 	0.009	0.035	0.0634	-0.129
Mof_C 	C 	0.0327	0.9846	0.076	0.056
Mof_C 	C 	0.0653	0.9668	0.1501	-0.089
Mof_H 	H 	0.0723	0.9896	0.1929	0.071
Mof_C 	C 	0.0865	0.9185	0.1607	-0.015
Mof_H 	H 	0.1062	0.9077	0.2114	0.036
Mof_C 	C 	0.0801	0.8826	0.097	-0.03
Mof_H 	H 	0.0975	0.849	0.105	0.046
Mof_C 	C 	0.0486	0.8975	0.0247	-0.081
Mof_H 	H 	0.0428	0.8735	0.9832	0.073
Mof_N 	N 	0.571	0.17673	0.7526	-0.219
Mof_C 	C 	0.5817	0.1509	0.6858	0.089
Mof_H 	H 	0.5676	0.1669	0.637	0.01
Mof_C 	C 	0.6121	0.1021	0.6825	-0.137
Mof_H 	H 	0.618	0.0857	0.6326	0.079
Mof_C 	C 	0.6336	0.0775	0.752	0.065
Mof_C 	C 	0.6217	0.1038	0.8219	-0.134
Mof_H 	H 	0.636	0.0888	0.8714	0.078
Mof_C 	C 	0.5888	0.1526	0.8202	0.085
Mof_H 	H 	0.5787	0.1692	0.8693	0.011
Mof_C 	C 	0.673	0.026	0.7509	0.049
Mof_C 	C 	0.6982	0.002	0.6799	-0.123
Mof_H 	H 	0.6865	0.0171	0.6299	0.074
Mof_C 	C 	0.7397	0.9566	0.6831	0.08
Mof_H 	H 	0.754	0.9408	0.6343	0.014
Mof_N 	N 	0.761	0.93346	0.7513	-0.213
Mof_C 	C 	0.7346	0.9546	0.8185	0.081
Mof_H 	H 	0.7468	0.938	0.8672	0.012
Mof_C 	C 	0.6901	0.9996	0.8214	-0.124
Mof_H 	H 	0.6713	0.0124	0.8711	0.074
Mof_O 	O 	0.53318	0.33213	0.75658	-0.584
Mof_Co	Co	0.08418	0.86329	0.75048	1.184
Mof_Co	Co	0.95489	0.75655	0.74809	1.195
Mof_Co	Co	0.36117	0.62329	0.24988	1.196
Mof_O 	O 	0.8801	0.76428	0.8503	-0.425
Mof_O 	O 	0.7936	0.83095	0.8274	-0.422
Mof_C 	C 	0.8169	0.7919	0.8647	0.383
Mof_O 	O 	0.6344	0.68929	0.1708	-0.43
Mof_C 	C 	0.6042	0.7266	0.1336	0.387
Mof_O 	O 	0.5364	0.74993	0.1486	-0.418
Mof_C 	C 	0.6564	0.7445	0.0631	-0.12
Mof_C 	C 	0.7102	0.7871	0.0725	0.05
Mof_C 	C 	0.7146	0.8146	0.1462	-0.082
Mof_H 	H 	0.6789	0.8056	0.1893	0.069
Mof_C 	C 	0.7694	0.8534	0.1543	-0.02
Mof_H 	H 	0.7736	0.8701	0.2042	0.037
Mof_C 	C 	0.8208	0.8698	0.09	-0.027
Mof_H 	H 	0.8569	0.8979	0.0968	0.045
Mof_C 	C 	0.8187	0.8454	0.0183	-0.08
Mof_H 	H 	0.8536	0.8567	0.9759	0.073
Mof_C 	C 	0.764	0.8029	0.0067	0.052
Mof_C 	C 	0.7613	0.7759	0.9342	-0.123
Mof_C 	C 	0.7091	0.7337	0.9253	0.054
Mof_C 	C 	0.7057	0.7055	0.8518	-0.084
Mof_H 	H 	0.7386	0.716	0.8076	0.069
Mof_C 	C 	0.6562	0.6639	0.8454	-0.018
Mof_H 	H 	0.6553	0.6459	0.7966	0.037
Mof_C 	C 	0.6056	0.6469	0.91	-0.031
Mof_H 	H 	0.5725	0.6174	0.9046	0.047
Mof_C 	C 	0.6048	0.6729	0.9798	-0.075
Mof_H 	H 	0.5695	0.6618	0.0219	0.068
Mof_C 	C 	0.6565	0.7171	0.9911	0.048
Mof_O 	O 	0.0577	0.74311	0.8253	-0.424
Mof_O 	O 	0.1129	0.81998	0.8487	-0.442
Mof_C 	C 	0.1031	0.7741	0.8622	0.393
Mof_O 	O 	0.3494	0.73879	0.1717	-0.429
Mof_O 	O 	0.3083	0.6587	0.1501	-0.423
Mof_C 	C 	0.3087	0.7051	0.136	0.391
Mof_C 	C 	0.2554	0.7225	0.0644	-0.122
Mof_C 	C 	0.2942	0.733	0.9919	0.052
Mof_C 	C 	0.3857	0.7304	0.9809	-0.079
Mof_H 	H 	0.4211	0.7231	0.0252	0.069
Mof_C 	C 	0.4216	0.7383	0.9074	-0.027
Mof_H 	H 	0.4814	0.736	0.9016	0.045
Mof_C 	C 	0.3698	0.7499	0.8396	-0.024
Mof_H 	H 	0.3954	0.7547	0.789	0.037
Mof_C 	C 	0.2837	0.754	0.8473	-0.08
Mof_H 	H 	0.2501	0.7613	0.8017	0.064
Mof_C 	C 	0.2429	0.7475	0.9235	0.049
Mof_C 	C 	0.1551	0.7541	0.9338	-0.118
Mof_C 	C 	0.1159	0.7456	0.0071	0.051
Mof_C 	C 	0.0258	0.7531	0.0194	-0.085
Mof_H 	H 	0.991	0.7631	0.976	0.074
Mof_C 	C 	0.9907	0.746	0.0916	-0.019
Mof_H 	H 	0.9317	0.7517	0.0985	0.042
Mof_C 	C 	0.0407	0.73	0.1582	-0.027
Mof_H 	H 	0.015	0.7252	0.2087	0.039
Mof_C 	C 	0.1255	0.7215	0.1489	-0.08
Mof_H 	H 	0.1578	0.7103	0.1933	0.068
Mof_C 	C 	0.1669	0.7289	0.0745	0.051
Mof_O 	O 	0.4215	0.57119	0.1751	-0.423
Mof_O 	O 	0.5589	0.59169	0.1519	-0.424
Mof_C 	C 	0.4906	0.5682	0.1371	0.382
Mof_C 	C 	0.3734	0.6046	0.9118	-0.027
Mof_H 	H 	0.3427	0.6351	0.9065	0.046
Mof_C 	C 	0.4069	0.5914	0.9842	-0.081
Mof_H 	H 	0.3985	0.6128	0.0287	0.071
Mof_C 	C 	0.4542	0.5463	0.9941	0.05
Mof_C 	C 	0.4936	0.5325	0.066	-0.122
Mof_C 	C 	0.5365	0.4869	0.0738	0.053
Mof_C 	C 	0.5724	0.4715	0.1491	-0.083
Mof_H 	H 	0.566	0.4922	0.1946	0.067
Mof_C 	C 	0.6156	0.4272	0.1556	-0.022
Mof_H 	H 	0.6385	0.4175	0.2057	0.037
Mof_O 	O 	0.5516	0.57994	0.3298	-0.433
Mof_O 	O 	0.411	0.58867	0.3525	-0.424
Mof_C 	C 	0.4839	0.57118	0.3675	0.392
Mof_C 	C 	0.5241	0.5515	0.5101	0.05
Mof_C 	C 	0.491	0.535	0.4366	-0.128
Mof_C 	C 	0.4673	0.4846	0.424	0.056
Mof_C 	C 	0.4347	0.4668	0.3499	-0.09
Mof_H 	H 	0.4277	0.4896	0.3071	0.071
Mof_C 	C 	0.4135	0.4185	0.3393	-0.013
Mof_H 	H 	0.3938	0.4077	0.2886	0.035
Mof_C 	C 	0.4199	0.3826	0.403	-0.033
Mof_H 	H 	0.4025	0.349	0.395	0.048
Mof_C 	C 	0.4514	0.3975	0.4753	-0.076
Mof_H 	H 	0.4572	0.3735	0.5168	0.07
Mof_N 	N 	0.929	0.67673	0.7474	-0.219
Mof_C 	C 	0.9183	0.6509	0.8142	0.089
Mof_H 	H 	0.9324	0.6669	0.863	0.009
Mof_C 	C 	0.8879	0.6021	0.8175	-0.137
Mof_H 	H 	0.882	0.5857	0.8674	0.079
Mof_C 	C 	0.8664	0.5775	0.748	0.065
Mof_C 	C 	0.8783	0.6038	0.6781	-0.134
Mof_H 	H 	0.864	0.5888	0.6286	0.078
Mof_C 	C 	0.9112	0.6526	0.6798	0.085
Mof_H 	H 	0.9213	0.6692	0.6307	0.011
Mof_C 	C 	0.827	0.526	0.7491	0.049
Mof_C 	C 	0.8018	0.502	0.8201	-0.123
Mof_H 	H 	0.8135	0.5171	0.8701	0.074
Mof_C 	C 	0.7603	0.4566	0.8169	0.08
Mof_H 	H 	0.746	0.4408	0.8657	0.013
Mof_N 	N 	0.739	0.43346	0.7487	-0.213
Mof_C 	C 	0.7654	0.4546	0.6815	0.081
Mof_H 	H 	0.7532	0.438	0.6328	0.013
Mof_C 	C 	0.8099	0.4996	0.6786	-0.124
Mof_H 	H 	0.8287	0.5124	0.6289	0.074
Mof_O 	O 	0.96682	0.83213	0.74342	-0.585
Mof_Co	Co	0.58418	0.63671	0.25048	1.184
Mof_Co	Co	0.45489	0.74345	0.24809	1.195
Mof_Co	Co	0.86117	0.87671	0.74988	1.196
Mof_O 	O 	0.3801	0.73572	0.3503	-0.425
Mof_O 	O 	0.2936	0.66905	0.3274	-0.422
Mof_C 	C 	0.3169	0.7081	0.3647	0.383
Mof_O 	O 	0.1344	0.81071	0.6708	-0.43
Mof_C 	C 	0.1042	0.7734	0.6336	0.387
Mof_O 	O 	0.0364	0.75007	0.6486	-0.417
Mof_C 	C 	0.1564	0.7555	0.5631	-0.12
Mof_C 	C 	0.2102	0.7129	0.5725	0.05
Mof_C 	C 	0.2146	0.6854	0.6462	-0.082
Mof_H 	H 	0.1789	0.6944	0.6893	0.069
Mof_C 	C 	0.2694	0.6466	0.6543	-0.021
Mof_H 	H 	0.2736	0.6299	0.7042	0.037
Mof_C 	C 	0.3208	0.6302	0.59	-0.025
Mof_H 	H 	0.3569	0.6021	0.5968	0.044
Mof_C 	C 	0.3187	0.6546	0.5183	-0.082
Mof_H 	H 	0.3536	0.6433	0.4759	0.074
Mof_C 	C 	0.264	0.6971	0.5067	0.052
Mof_C 	C 	0.2613	0.7241	0.4342	-0.122
Mof_C 	C 	0.2091	0.7663	0.4253	0.054
Mof_C 	C 	0.2057	0.7945	0.3518	-0.084
Mof_H 	H 	0.2386	0.784	0.3076	0.069
Mof_C 	C 	0.1562	0.8361	0.3454	-0.018
Mof_H 	H 	0.1553	0.8541	0.2966	0.037
Mof_C 	C 	0.1056	0.8531	0.41	-0.031
Mof_H 	H 	0.0725	0.8826	0.4046	0.047
Mof_C 	C 	0.1048	0.8271	0.4798	-0.075
Mof_H 	H 	0.0695	0.8382	0.5219	0.068
Mof_C 	C 	0.1565	0.7829	0.4911	0.048
Mof_O 	O 	0.5577	0.75689	0.3253	-0.425
Mof_O 	O 	0.6129	0.68002	0.3487	-0.442
Mof_C 	C 	0.6031	0.7259	0.3622	0.394
Mof_O 	O 	0.8494	0.76121	0.6717	-0.429
Mof_O 	O 	0.8083	0.8413	0.6501	-0.423
Mof_C 	C 	0.8087	0.7949	0.636	0.391
Mof_C 	C 	0.7554	0.7775	0.5644	-0.121
Mof_C 	C 	0.7942	0.767	0.4919	0.051
Mof_C 	C 	0.8857	0.7696	0.4809	-0.079
Mof_H 	H 	0.9211	0.7769	0.5252	0.069
Mof_C 	C 	0.9216	0.7617	0.4074	-0.028
Mof_H 	H 	0.9814	0.764	0.4016	0.045
Mof_C 	C 	0.8698	0.7501	0.3396	-0.024
Mof_H 	H 	0.8954	0.7453	0.289	0.037
Mof_C 	C 	0.7837	0.746	0.3473	-0.081
Mof_H 	H 	0.7501	0.7387	0.3017	0.064
Mof_C 	C 	0.7429	0.7525	0.4235	0.05
Mof_C 	C 	0.6551	0.7459	0.4338	-0.12
Mof_C 	C 	0.6159	0.7544	0.5071	0.053
Mof_C 	C 	0.5258	0.7469	0.5194	-0.084
Mof_H 	H 	0.491	0.7369	0.476	0.075
Mof_C 	C 	0.4907	0.754	0.5916	-0.021
Mof_H 	H 	0.4317	0.7483	0.5985	0.042
Mof_C 	C 	0.5407	0.77	0.6582	-0.025
Mof_H 	H 	0.515	0.7748	0.7087	0.039
Mof_C 	C 	0.6255	0.7785	0.6489	-0.08
Mof_H 	H 	0.6578	0.7897	0.6933	0.068
Mof_C 	C 	0.6669	0.7711	0.5745	0.051
Mof_O 	O 	0.9215	0.92881	0.6751	-0.423
Mof_O 	O 	0.0589	0.90831	0.6519	-0.423
Mof_C 	C 	0.9906	0.9318	0.6371	0.381
Mof_C 	C 	0.8734	0.8954	0.4118	-0.026
Mof_H 	H 	0.8427	0.8649	0.4065	0.046
Mof_C 	C 	0.9069	0.9086	0.4842	-0.082
Mof_H 	H 	0.8985	0.8872	0.5287	0.071
Mof_C 	C 	0.9542	0.9537	0.4941	0.05
Mof_C 	C 	0.9936	0.9675	0.566	-0.122
Mof_C 	C 	0.0365	0.0131	0.5738	0.052
Mof_C 	C 	0.0724	0.0285	0.6491	-0.083
Mof_H 	H 	0.066	0.0078	0.6946	0.066
Mof_C 	C 	0.1156	0.0728	0.6556	-0.023
Mof_H 	H 	0.1385	0.0825	0.7057	0.037
Mof_O 	O 	0.0516	0.92006	0.8298	-0.431
Mof_O 	O 	0.911	0.91133	0.8525	-0.423
Mof_C 	C 	0.9839	0.92882	0.8675	0.39
Mof_C 	C 	0.0241	0.9485	0.0101	0.052
Mof_C 	C 	0.991	0.965	0.9366	-0.129
Mof_C 	C 	0.9673	0.0154	0.924	0.056
Mof_C 	C 	0.9347	0.0332	0.8499	-0.089
Mof_H 	H 	0.9277	0.0104	0.8071	0.071
Mof_C 	C 	0.9135	0.0815	0.8393	-0.015
Mof_H 	H 	0.8938	0.0923	0.7886	0.036
Mof_C 	C 	0.9199	0.1174	0.903	-0.03
Mof_H 	H 	0.9025	0.151	0.895	0.046
Mof_C 	C 	0.9514	0.1025	0.9753	-0.081
Mof_H 	H 	0.9572	0.1265	0.0168	0.073
Mof_N 	N 	0.429	0.82327	0.2474	-0.219
Mof_C 	C 	0.4183	0.8491	0.3142	0.089
Mof_H 	H 	0.4324	0.8331	0.363	0.01
Mof_C 	C 	0.3879	0.8979	0.3175	-0.137
Mof_H 	H 	0.382	0.9143	0.3674	0.079
Mof_C 	C 	0.3664	0.9225	0.248	0.065
Mof_C 	C 	0.3783	0.8962	0.1781	-0.134
Mof_H 	H 	0.364	0.9112	0.1286	0.078
Mof_C 	C 	0.4112	0.8474	0.1798	0.085
Mof_H 	H 	0.4213	0.8308	0.1307	0.011
Mof_C 	C 	0.327	0.974	0.2491	0.049
Mof_C 	C 	0.3018	0.998	0.3201	-0.123
Mof_H 	H 	0.3135	0.9829	0.3701	0.074
Mof_C 	C 	0.2603	0.0434	0.3169	0.08
Mof_H 	H 	0.246	0.0592	0.3657	0.014
Mof_N 	N 	0.239	0.06654	0.2487	-0.213
Mof_C 	C 	0.2654	0.0454	0.1815	0.081
Mof_H 	H 	0.2532	0.062	0.1328	0.012
Mof_C 	C 	0.3099	0.0004	0.1786	-0.124
Mof_H 	H 	0.3287	0.9876	0.1289	0.074
Mof_O 	O 	0.46682	0.66787	0.24342	-0.584
Mof_Co	Co	0.91582	0.13671	0.24952	1.184
Mof_Co	Co	0.04511	0.24345	0.25191	1.195
Mof_Co	Co	0.63883	0.37671	0.75012	1.196
Mof_O 	O 	0.1199	0.23572	0.1497	-0.425
Mof_O 	O 	0.2064	0.16905	0.1726	-0.422
Mof_C 	C 	0.1831	0.2081	0.1353	0.383
Mof_O 	O 	0.3656	0.31071	0.8292	-0.43
Mof_C 	C 	0.3958	0.2734	0.8664	0.387
Mof_O 	O 	0.4636	0.25007	0.8514	-0.418
Mof_C 	C 	0.3436	0.2555	0.9369	-0.12
Mof_C 	C 	0.2898	0.2129	0.9275	0.05
Mof_C 	C 	0.2854	0.1854	0.8538	-0.082
Mof_H 	H 	0.3211	0.1944	0.8107	0.069
Mof_C 	C 	0.2306	0.1466	0.8457	-0.02
Mof_H 	H 	0.2264	0.1299	0.7958	0.037
Mof_C 	C 	0.1792	0.1302	0.91	-0.027
Mof_H 	H 	0.1431	0.1021	0.9032	0.045
Mof_C 	C 	0.1813	0.1546	0.9817	-0.08
Mof_H 	H 	0.1464	0.1433	0.0241	0.073
Mof_C 	C 	0.236	0.1971	0.9933	0.052
Mof_C 	C 	0.2387	0.2241	0.0658	-0.123
Mof_C 	C 	0.2909	0.2663	0.0747	0.054
Mof_C 	C 	0.2943	0.2945	0.1482	-0.084
Mof_H 	H 	0.2614	0.284	0.1924	0.069
Mof_C 	C 	0.3438	0.3361	0.1546	-0.018
Mof_H 	H 	0.3447	0.3541	0.2034	0.037
Mof_C 	C 	0.3944	0.3531	0.09	-0.031
Mof_H 	H 	0.4275	0.3826	0.0954	0.047
Mof_C 	C 	0.3952	0.3271	0.0202	-0.075
Mof_H 	H 	0.4305	0.3382	0.9781	0.068
Mof_C 	C 	0.3435	0.2829	0.0089	0.048
Mof_O 	O 	0.9423	0.25689	0.1747	-0.424
Mof_O 	O 	0.8871	0.18002	0.1513	-0.442
Mof_C 	C 	0.8969	0.2259	0.1378	0.393
Mof_O 	O 	0.6506	0.26121	0.8283	-0.429
Mof_O 	O 	0.6917	0.3413	0.8499	-0.423
Mof_C 	C 	0.6913	0.2949	0.864	0.391
Mof_C 	C 	0.7446	0.2775	0.9356	-0.122
Mof_C 	C 	0.7058	0.267	0.0081	0.052
Mof_C 	C 	0.6143	0.2696	0.0191	-0.079
Mof_H 	H 	0.5789	0.2769	0.9748	0.069
Mof_C 	C 	0.5784	0.2617	0.0926	-0.027
Mof_H 	H 	0.5186	0.264	0.0984	0.045
Mof_C 	C 	0.6302	0.2501	0.1604	-0.024
Mof_H 	H 	0.6046	0.2453	0.211	0.037
Mof_C 	C 	0.7163	0.246	0.1527	-0.08
Mof_H 	H 	0.7499	0.2387	0.1983	0.064
Mof_C 	C 	0.7571	0.2525	0.0765	0.049
Mof_C 	C 	0.8449	0.2459	0.0662	-0.118
Mof_C 	C 	0.8841	0.2544	0.9929	0.051
Mof_C 	C 	0.9742	0.2469	0.9806	-0.085
Mof_H 	H 	0.009	0.2369	0.024	0.074
Mof_C 	C 	0.0093	0.254	0.9084	-0.019
Mof_H 	H 	0.0683	0.2483	0.9015	0.042
Mof_C 	C 	0.9593	0.27	0.8418	-0.027
Mof_H 	H 	0.985	0.2748	0.7913	0.039
Mof_C 	C 	0.8745	0.2785	0.8511	-0.08
Mof_H 	H 	0.8422	0.2897	0.8067	0.068
Mof_C 	C 	0.8331	0.2711	0.9255	0.051
Mof_O 	O 	0.5785	0.42881	0.8249	-0.423
Mof_O 	O 	0.4411	0.40831	0.8481	-0.424
Mof_C 	C 	0.5094	0.4318	0.8629	0.382
Mof_C 	C 	0.6266	0.3954	0.0882	-0.027
Mof_H 	H 	0.6573	0.3649	0.0935	0.046
Mof_C 	C 	0.5931	0.4086	0.0158	-0.081
Mof_H 	H 	0.6015	0.3872	0.9713	0.071
Mof_C 	C 	0.5458	0.4537	0.0059	0.05
Mof_C 	C 	0.5064	0.4675	0.934	-0.122
Mof_C 	C 	0.4635	0.5131	0.9262	0.053
Mof_C 	C 	0.4276	0.5285	0.8509	-0.083
Mof_H 	H 	0.434	0.5078	0.8054	0.067
Mof_C 	C 	0.3844	0.5728	0.8444	-0.022
Mof_H 	H 	0.3615	0.5825	0.7943	0.037
Mof_O 	O 	0.4484	0.42006	0.6702	-0.433
Mof_O 	O 	0.589	0.41133	0.6475	-0.424
Mof_C 	C 	0.5161	0.42882	0.6325	0.392
Mof_C 	C 	0.4759	0.4485	0.4899	0.05
Mof_C 	C 	0.509	0.465	0.5634	-0.128
Mof_C 	C 	0.5327	0.5154	0.576	0.056
Mof_C 	C 	0.5653	0.5332	0.6501	-0.09
Mof_H 	H 	0.5723	0.5104	0.6929	0.071
Mof_C 	C 	0.5865	0.5815	0.6607	-0.013
Mof_H 	H 	0.6062	0.5923	0.7114	0.035
Mof_C 	C 	0.5801	0.6174	0.597	-0.033
Mof_H 	H 	0.5975	0.651	0.605	0.048
Mof_C 	C 	0.5486	0.6025	0.5247	-0.076
Mof_H 	H 	0.5428	0.6265	0.4832	0.07
Mof_N 	N 	0.071	0.32327	0.2526	-0.219
Mof_C 	C 	0.0817	0.3491	0.1858	0.089
Mof_H 	H 	0.0676	0.3331	0.137	0.009
Mof_C 	C 	0.1121	0.3979	0.1825	-0.137
Mof_H 	H 	0.118	0.4143	0.1326	0.079
Mof_C 	C 	0.1336	0.4225	0.252	0.065
Mof_C 	C 	0.1217	0.3962	0.3219	-0.134
Mof_H 	H 	0.136	0.4112	0.3714	0.078
Mof_C 	C 	0.0888	0.3474	0.3202	0.085
Mof_H 	H 	0.0787	0.3308	0.3693	0.011
Mof_C 	C 	0.173	0.474	0.2509	0.049
Mof_C 	C 	0.1982	0.498	0.1799	-0.123
Mof_H 	H 	0.1865	0.4829	0.1299	0.074
Mof_C 	C 	0.2397	0.5434	0.1831	0.08
Mof_H 	H 	0.254	0.5592	0.1343	0.013
Mof_N 	N 	0.261	0.56654	0.2513	-0.213
Mof_C 	C 	0.2346	0.5454	0.3185	0.081
Mof_H 	H 	0.2468	0.562	0.3672	0.013
Mof_C 	C 	0.1901	0.5004	0.3214	-0.124
Mof_H 	H 	0.1713	0.4876	0.3711	0.074
Mof_O 	O 	0.03318	0.16787	0.25658	-0.585
_end
