data_functionalizedCrystal
_audit_creation_method	'EQeq! by Chris Wilmer'
_symmetry_space_group_name_H-M	'P1'
_symmetry_Int_Tables_number	1
_symmetry_cell_setting	triclinic
loop_
_symmetry_equiv_pos_as_xyz
  x,y,z
_cell_length_a	10.5027
_cell_length_b	20.8287
_cell_length_c	20.8287
_cell_angle_alpha	86.3556
_cell_angle_beta	75.3969
_cell_angle_gamma	75.3971
loop_
_atom_site_label
_atom_site_type_symbol
_atom_site_fract_x
_atom_site_fract_y
_atom_site_fract_z
_atom_site_charge
Mof_Mn	Mn	0.05414	0.72348	0.186	0.968
Mof_Mn	Mn	0.75986	0.186	0.77652	0.968
Mof_Mn	Mn	0.46362	0.77652	0.314	0.968
Mof_Mn	Mn	0.22238	0.314	0.72348	0.968
Mof_Mn	Mn	0.94586	0.27652	0.814	0.969
Mof_Mn	Mn	0.24014	0.814	0.22348	0.969
Mof_Mn	Mn	0.53638	0.22348	0.686	0.969
Mof_Mn	Mn	0.77762	0.686	0.27652	0.969
Mof_H 	H 	0.8849	0.8731	0.1347	-0.027
Mof_H 	H 	0.6491	0.0235	0.5971	-0.02
Mof_H 	H 	0.4751	0.5156	0.3832	0.194
Mof_H 	H 	0.8881	0.1681	0.1151	0.312
Mof_H 	H 	0.1261	0.0156	0.8832	0.192
Mof_H 	H 	0.9804	0.1347	0.6269	-0.029
Mof_H 	H 	0.3927	0.6269	0.3653	-0.029
Mof_H 	H 	0.4049	0.2223	0.0293	0.246
Mof_H 	H 	0.0562	0.6151	0.8319	0.315
Mof_H 	H 	0.6292	0.2961	0.4923	0.016
Mof_H 	H 	0.8435	0.7223	0.5293	0.25
Mof_H 	H 	0.3728	0.4707	0.2223	0.25
Mof_H 	H 	0.9968	0.1151	0.3319	0.314
Mof_H 	H 	0.9438	0.3849	0.1681	0.315
Mof_H 	H 	0.2462	0.4029	0.5235	-0.022
Mof_H 	H 	0.8741	0.7027	0.4179	-0.024
Mof_H 	H 	0.725	0.915	0.5624	0.219
Mof_H 	H 	0.6726	0.0971	0.9765	-0.017
Mof_H 	H 	0.1215	0.5077	0.7961	0.016
Mof_H 	H 	0.0824	0.7961	0.9923	0.019
Mof_H 	H 	0.4947	0.7973	0.0821	-0.022
Mof_H 	H 	0.0093	0.1168	0.5156	0.194
Mof_H 	H 	0.5249	0.4844	0.6168	0.194
Mof_H 	H 	0.8739	0.9844	0.1168	0.192
Mof_H 	H 	0.1417	0.3832	0.9844	0.192
Mof_H 	H 	0.6272	0.5293	0.7777	0.25
Mof_H 	H 	0.3274	0.9029	0.0235	-0.017
Mof_H 	H 	0.0032	0.8849	0.6681	0.314
Mof_H 	H 	0.7126	0.5624	0.585	0.22
Mof_H 	H 	0.1565	0.2777	0.4707	0.25
Mof_H 	H 	0.0196	0.8653	0.3731	-0.029
Mof_H 	H 	0.4232	0.0821	0.7027	-0.022
Mof_H 	H 	0.5768	0.9179	0.2973	-0.022
Mof_H 	H 	0.9253	0.9923	0.7039	0.017
Mof_H 	H 	0.2874	0.4376	0.415	0.22
Mof_H 	H 	0.8583	0.6168	0.0156	0.192
Mof_H 	H 	0.3509	0.9765	0.4029	-0.02
Mof_H 	H 	0.9907	0.8832	0.4844	0.194
Mof_H 	H 	0.7024	0.585	0.9376	0.22
Mof_H 	H 	0.1259	0.2973	0.5821	-0.024
Mof_H 	H 	0.4342	0.9707	0.7223	0.246
Mof_H 	H 	0.6073	0.3731	0.6347	-0.029
Mof_H 	H 	0.2303	0.5235	0.0971	-0.022
Mof_H 	H 	0.64	0.0624	0.085	0.217
Mof_H 	H 	0.2976	0.415	0.0624	0.22
Mof_H 	H 	0.1119	0.8319	0.8849	0.312
Mof_H 	H 	0.7538	0.5971	0.4765	-0.022
Mof_H 	H 	0.8785	0.4923	0.2039	0.016
Mof_H 	H 	0.5951	0.7777	0.9707	0.246
Mof_H 	H 	0.7697	0.4765	0.9029	-0.022
Mof_H 	H 	0.292	0.5821	0.2027	-0.024
Mof_H 	H 	0.275	0.085	0.4376	0.219
Mof_H 	H 	0.758	0.6347	0.1269	-0.027
Mof_H 	H 	0.0747	0.0077	0.2961	0.017
Mof_H 	H 	0.3708	0.7039	0.5077	0.016
Mof_H 	H 	0.5658	0.0293	0.2777	0.246
Mof_H 	H 	0.5053	0.2027	0.9179	-0.022
Mof_H 	H 	0.3287	0.6681	0.6151	0.315
Mof_H 	H 	0.36	0.9376	0.915	0.217
Mof_H 	H 	0.6713	0.3319	0.3849	0.315
Mof_H 	H 	0.9176	0.2039	0.0077	0.019
Mof_H 	H 	0.708	0.4179	0.7973	-0.024
Mof_H 	H 	0.1151	0.1269	0.8653	-0.027
Mof_H 	H 	0.242	0.3653	0.8731	-0.027
Mof_C 	C 	0.66791	0.61181	0.50437	0.285
Mof_C 	C 	0.26499	0.11658	0.78084	-0.252
Mof_C 	C 	0.24019	0.88807	0.88815	0.455
Mof_C 	C 	0.59245	0.67926	0.41044	0.47
Mof_C 	C 	0.94742	0.22164	0.39872	0.975
Mof_C 	C 	0.43871	0.52903	0.34675	-0.352
Mof_C 	C 	0.72003	0.01837	0.19577	0.416
Mof_C 	C 	0.82187	0.90432	0.16414	0.245
Mof_C 	C 	0.81788	0.68618	0.90746	-0.545
Mof_C 	C 	0.11517	0.02296	0.3249	0.302
Mof_C 	C 	0.21266	0.43053	0.09095	-0.374
Mof_C 	C 	0.03697	0.52296	0.8249	0.307
Mof_C 	C 	0.36253	0.06902	0.73872	0.245
Mof_C 	C 	0.72534	0.09254	0.18618	-0.543
Mof_C 	C 	0.22138	0.98008	0.34576	-0.27
Mof_C 	C 	0.56845	0.76128	0.06902	0.245
Mof_C 	C 	0.9976	0.58738	0.84602	-0.373
Mof_C 	C 	0.27972	0.00437	0.38819	0.28
Mof_C 	C 	0.05258	0.77836	0.60128	0.975
Mof_C 	C 	0.44007	0.6751	0.52296	0.305
Mof_C 	C 	0.56129	0.47097	0.65325	-0.352
Mof_C 	C 	0.67027	0.43098	0.76128	0.25
Mof_C 	C 	0.12826	0.38815	0.11193	0.461
Mof_C 	C 	0.71591	0.11181	0.00437	0.273
Mof_C 	C 	0.98601	0.83586	0.40432	0.25
Mof_C 	C 	0.75981	0.11193	0.11185	0.455
Mof_C 	C 	0.96303	0.47704	0.1751	0.307
Mof_C 	C 	0.04722	0.51992	0.15424	-0.274
Mof_C 	C 	0.27171	0.91044	0.32074	0.469
Mof_C 	C 	0.69639	0.09095	0.06947	-0.366
Mof_C 	C 	0.70528	0.31213	0.73471	0.423
Mof_C 	C 	0.78546	0.65325	0.02903	-0.346
Mof_C 	C 	0.18212	0.31382	0.09254	-0.545
Mof_C 	C 	0.17813	0.09568	0.83586	0.245
Mof_C 	C 	0.56001	0.73471	0.18787	0.422
Mof_C 	C 	0.51641	0.61193	0.61185	0.461
Mof_C 	C 	0.06778	0.27836	0.10128	0.974
Mof_C 	C 	0.55503	0.63939	0.71795	0.985
Mof_C 	C 	0.56714	0.65424	0.48008	-0.274
Mof_C 	C 	0.13813	0.8249	0.97704	0.297
Mof_C 	C 	0.27997	0.98163	0.80423	0.416
Mof_C 	C 	0.81785	0.17926	0.91044	0.467
Mof_C 	C 	0.56583	0.51837	0.69577	0.423
Mof_C 	C 	0.32973	0.56902	0.23872	0.25
Mof_C 	C 	0.10125	0.26128	0.56902	0.25
Mof_C 	C 	0.74788	0.81213	0.23471	0.421
Mof_C 	C 	0.98259	0.76529	0.31213	0.423
Mof_C 	C 	0.49594	0.59254	0.68618	-0.546
Mof_C 	C 	0.33759	0.61658	0.28084	-0.256
Mof_C 	C 	0.73501	0.88342	0.21916	-0.252
Mof_C 	C 	0.62871	0.74936	0.00222	-0.33
Mof_C 	C 	0.43417	0.48163	0.30423	0.423
Mof_C 	C 	0.84362	0.15398	0.08738	-0.364
Mof_C 	C 	0.95278	0.48008	0.84576	-0.274
Mof_C 	C 	0.77862	0.01992	0.65424	-0.27
Mof_C 	C 	0.25212	0.18787	0.76529	0.421
Mof_C 	C 	0.2616	0.30423	0.01837	0.417
Mof_C 	C 	0.82772	0.50437	0.88819	0.285
Mof_C 	C 	0.79854	0.15424	0.98008	-0.264
Mof_C 	C 	0.80558	0.78205	0.63939	0.985
Mof_C 	C 	0.38157	0.28084	0.88342	-0.253
Mof_C 	C 	0.27298	0.28205	0.13939	0.985
Mof_C 	C 	0.88483	0.97704	0.6751	0.302
Mof_C 	C 	0.23414	0.06947	0.40905	-0.371
Mof_C 	C 	0.61843	0.71916	0.11658	-0.253
Mof_C 	C 	0.27381	0.33586	0.90432	0.246
Mof_C 	C 	0.0842	0.19577	0.48163	0.423
Mof_C 	C 	0.87174	0.61185	0.88807	0.461
Mof_C 	C 	0.88029	0.75064	0.49778	-0.339
Mof_C 	C 	0.48359	0.38807	0.38815	0.461
Mof_C 	C 	0.03226	0.15325	0.52903	-0.352
Mof_C 	C 	0.11971	0.24936	0.50222	-0.339
Mof_C 	C 	0.55993	0.3249	0.47704	0.305
Mof_C 	C 	0.78734	0.56947	0.90905	-0.374
Mof_C 	C 	0.20146	0.84576	0.01992	-0.264
Mof_C 	C 	0.19442	0.21795	0.36061	0.985
Mof_C 	C 	0.63747	0.93098	0.26128	0.245
Mof_C 	C 	0.44497	0.36061	0.28205	0.985
Mof_C 	C 	0.63093	0.99778	0.24936	-0.33
Mof_C 	C 	0.89875	0.73872	0.43098	0.25
Mof_C 	C 	0.28409	0.88819	0.99563	0.273
Mof_C 	C 	0.86187	0.1751	0.02296	0.297
Mof_C 	C 	0.18215	0.82074	0.08956	0.467
Mof_C 	C 	0.04583	0.21916	0.61658	-0.256
Mof_C 	C 	0.95417	0.78084	0.38342	-0.256
Mof_C 	C 	0.931	0.91262	0.65398	-0.369
Mof_C 	C 	0.43999	0.26529	0.81213	0.422
Mof_C 	C 	0.62193	0.49778	0.74936	-0.339
Mof_C 	C 	0.7384	0.69577	0.98163	0.417
Mof_C 	C 	0.35681	0.40905	0.43053	-0.374
Mof_C 	C 	0.0024	0.41262	0.15398	-0.373
Mof_C 	C 	0.39033	0.59568	0.33586	0.25
Mof_C 	C 	0.34614	0.60128	0.72164	0.975
Mof_C 	C 	0.64319	0.59095	0.56947	-0.374
Mof_C 	C 	0.72028	0.99563	0.61181	0.28
Mof_C 	C 	0.08848	0.18618	0.40746	-0.546
Mof_C 	C 	0.93222	0.72164	0.89872	0.974
Mof_C 	C 	0.43286	0.34576	0.51992	-0.274
Mof_C 	C 	0.01399	0.16414	0.59568	0.25
Mof_C 	C 	0.50406	0.40746	0.31382	-0.546
Mof_C 	C 	0.00289	0.58956	0.17926	0.47
Mof_C 	C 	0.9158	0.80423	0.51837	0.423
Mof_C 	C 	0.91152	0.81382	0.59254	-0.546
Mof_C 	C 	0.87166	0.88815	0.61193	0.459
Mof_C 	C 	0.37129	0.25064	0.99778	-0.33
Mof_C 	C 	0.58498	0.34602	0.41262	-0.371
Mof_C 	C 	0.72702	0.71795	0.86061	0.985
Mof_C 	C 	0.15638	0.84602	0.91262	-0.364
Mof_C 	C 	0.72829	0.08956	0.67926	0.469
Mof_C 	C 	0.60967	0.40432	0.66414	0.25
Mof_C 	C 	0.16906	0.89872	0.77836	0.974
Mof_C 	C 	0.43155	0.23872	0.93098	0.245
Mof_C 	C 	0.65386	0.39872	0.27836	0.975
Mof_C 	C 	0.18551	0.02903	0.84675	-0.345
Mof_C 	C 	0.36907	0.00222	0.75064	-0.33
Mof_C 	C 	0.66241	0.38342	0.71916	-0.256
Mof_C 	C 	0.30361	0.90905	0.93053	-0.366
Mof_C 	C 	0.29472	0.68787	0.26529	0.423
Mof_C 	C 	0.81449	0.97097	0.15325	-0.345
Mof_C 	C 	0.17228	0.49563	0.11181	0.285
Mof_C 	C 	0.21454	0.34675	0.97097	-0.346
Mof_C 	C 	0.99711	0.41044	0.82074	0.47
Mof_C 	C 	0.76586	0.93053	0.59095	-0.371
Mof_C 	C 	0.96774	0.84675	0.47097	-0.352
Mof_C 	C 	0.27466	0.90746	0.81382	-0.543
Mof_C 	C 	0.40755	0.32074	0.58956	0.47
Mof_C 	C 	0.83094	0.10128	0.22164	0.974
Mof_C 	C 	0.33209	0.38819	0.49563	0.285
Mof_C 	C 	0.12834	0.11185	0.38807	0.459
Mof_C 	C 	0.72619	0.66414	0.09568	0.246
Mof_C 	C 	0.069	0.08738	0.34602	-0.369
Mof_C 	C 	0.41502	0.65398	0.58738	-0.371
Mof_C 	C 	0.01741	0.23471	0.68787	0.423
Mof_C 	C 	0.58763	0.13939	0.21795	0.984
Mof_C 	C 	0.37807	0.50222	0.25064	-0.339
Mof_C 	C 	0.41237	0.86061	0.78205	0.984
Mof_O 	O 	0.23199	0.84427	0.12855	-0.404
Mof_O 	O 	0.22081	0.89555	0.27683	-0.407
Mof_O 	O 	0.03694	0.28828	0.70476	-0.438
Mof_O 	O 	0.2583	0.70476	0.21172	-0.438
Mof_O 	O 	0.96306	0.71172	0.29524	-0.438
Mof_O 	O 	0.92374	0.37145	0.84427	-0.405
Mof_O 	O 	0.07626	0.62855	0.15573	-0.405
Mof_O 	O 	0.70481	0.65573	0.37145	-0.405
Mof_O 	O 	0.50236	0.27683	0.60445	-0.408
Mof_O 	O 	0.10681	0.39555	0.77683	-0.408
Mof_O 	O 	0.67478	0.79524	0.28828	-0.437
Mof_O 	O 	0.11636	0.77683	0.10445	-0.407
Mof_O 	O 	0.39882	0.30425	0.76825	-0.423
Mof_O 	O 	0.76801	0.15573	0.87145	-0.404
Mof_O 	O 	0.60118	0.69575	0.23175	-0.423
Mof_O 	O 	0.83293	0.76825	0.19575	-0.423
Mof_O 	O 	0.32522	0.20476	0.71172	-0.437
Mof_O 	O 	0.88364	0.22317	0.89555	-0.407
Mof_O 	O 	0.89319	0.60445	0.22317	-0.408
Mof_O 	O 	0.16707	0.23175	0.80425	-0.423
Mof_O 	O 	0.02868	0.80425	0.26825	-0.423
Mof_O 	O 	0.47002	0.78828	0.20476	-0.437
Mof_O 	O 	0.29693	0.73175	0.30425	-0.423
Mof_O 	O 	0.63946	0.12855	0.65573	-0.405
Mof_O 	O 	0.97132	0.19575	0.73175	-0.423
Mof_O 	O 	0.52998	0.21172	0.79524	-0.437
Mof_O 	O 	0.49764	0.72317	0.39555	-0.408
Mof_O 	O 	0.7417	0.29524	0.78828	-0.438
Mof_O 	O 	0.29519	0.34427	0.62855	-0.405
Mof_O 	O 	0.77919	0.10445	0.72317	-0.407
Mof_O 	O 	0.36054	0.87145	0.34427	-0.405
Mof_O 	O 	0.70307	0.26825	0.69575	-0.423
Mof_F 	F 	0.48648	0.12238	0.20186	-0.442
Mof_F 	F 	0.31166	0.20186	0.37762	-0.442
Mof_F 	F 	0.60886	0.70186	0.87762	-0.442
Mof_F 	F 	0.90477	0.28272	0.42634	-0.457
Mof_F 	F 	0.78542	0.69786	0.7981	-0.364
Mof_F 	F 	0.85429	0.18902	0.429	-0.487
Mof_F 	F 	0.78138	0.80214	0.7019	-0.364
Mof_F 	F 	0.51352	0.87762	0.79814	-0.442
Mof_F 	F 	0.17153	0.83553	0.76961	-0.387
Mof_F 	F 	0.48548	0.35997	0.21527	-0.393
Mof_F 	F 	0.14571	0.81098	0.571	-0.487
Mof_F 	F 	0.88617	0.78272	0.92634	-0.457
Mof_F 	F 	0.41648	0.7981	0.80214	-0.364
Mof_F 	F 	0.95669	0.071	0.18902	-0.487
Mof_F 	F 	0.99294	0.73039	0.83553	-0.387
Mof_F 	F 	0.43928	0.85997	0.71527	-0.392
Mof_F 	F 	0.58352	0.2019	0.19786	-0.364
Mof_F 	F 	0.71671	0.429	0.31098	-0.487
Mof_F 	F 	0.15455	0.28473	0.35997	-0.393
Mof_F 	F 	0.33111	0.57366	0.78272	-0.457
Mof_F 	F 	0.21862	0.19786	0.2981	-0.364
Mof_F 	F 	0.18749	0.92634	0.71728	-0.457
Mof_F 	F 	0.84545	0.71527	0.64003	-0.393
Mof_F 	F 	0.28329	0.571	0.68902	-0.487
Mof_F 	F 	0.51452	0.64003	0.78473	-0.393
Mof_F 	F 	0.56072	0.14003	0.28473	-0.392
Mof_F 	F 	0.05886	0.76961	0.66447	-0.387
Mof_F 	F 	0.09523	0.71728	0.57366	-0.457
Mof_F 	F 	0.04331	0.929	0.81098	-0.487
Mof_F 	F 	0.97231	0.31098	0.071	-0.487
Mof_F 	F 	0.27667	0.66447	0.73039	-0.387
Mof_F 	F 	0.68834	0.79814	0.62238	-0.442
Mof_F 	F 	0.66889	0.42634	0.21728	-0.457
Mof_F 	F 	0.82847	0.16447	0.23039	-0.387
Mof_F 	F 	0.48328	0.2981	0.30214	-0.364
Mof_F 	F 	0.21458	0.30214	0.2019	-0.364
Mof_F 	F 	0.00706	0.26961	0.16447	-0.387
Mof_F 	F 	0.68928	0.62238	0.70186	-0.443
Mof_F 	F 	0.81251	0.07366	0.28272	-0.457
Mof_F 	F 	0.02769	0.68902	0.929	-0.487
Mof_F 	F 	0.29925	0.21527	0.14003	-0.393
Mof_F 	F 	0.72333	0.33553	0.26961	-0.387
Mof_F 	F 	0.51672	0.7019	0.69786	-0.364
Mof_F 	F 	0.31072	0.37762	0.29814	-0.443
Mof_F 	F 	0.94114	0.23039	0.33553	-0.387
Mof_F 	F 	0.70075	0.78473	0.85997	-0.393
Mof_F 	F 	0.39114	0.29814	0.12238	-0.442
Mof_F 	F 	0.11383	0.21728	0.07366	-0.457
_end
