data_functionalizedCrystal
_audit_creation_method	'EQeq! by Chris Wilmer'
_symmetry_space_group_name_H-M	'P1'
_symmetry_Int_Tables_number	1
_symmetry_cell_setting	triclinic
loop_
_symmetry_equiv_pos_as_xyz
  x,y,z
_cell_length_a	7.9911
_cell_length_b	10.1983
_cell_length_c	12.1081
_cell_angle_alpha	65.0938
_cell_angle_beta	70.7319
_cell_angle_gamma	90
loop_
_atom_site_label
_atom_site_type_symbol
_atom_site_fract_x
_atom_site_fract_y
_atom_site_fract_z
_atom_site_charge
Mof_Cd	Cd	0.25	0.75	0.5	0.408
Mof_Cd	Cd	0.75	0.25	0.5	0.416
Mof_Cd	Cd	-0	0	-0	0.248
Mof_Cd	Cd	0.5	0.5	-0	0.306
Mof_H 	H 	0.2355	0.8407	0.199	0.007
Mof_H 	H 	0.5655	0.9603	0.199	0.017
Mof_H 	H 	0.2645	0.5397	0.801	0.018
Mof_H 	H 	0.9345	0.6593	0.801	0.032
Mof_H 	H 	0.7645	0.1593	0.801	0.023
Mof_H 	H 	0.4345	0.0397	0.801	0.013
Mof_H 	H 	0.7355	0.4603	0.199	0.01
Mof_H 	H 	0.0655	0.3407	0.199	-0.007
Mof_C 	C 	0.03879	0.99651	0.35042	0.187
Mof_C 	C 	0.1674	0.89954	0.2312	0.099
Mof_C 	C 	0.61079	0.65307	0.35042	0.181
Mof_C 	C 	0.6014	0.86926	0.2312	0.102
Mof_C 	C 	0.46121	0.84693	0.64958	0.187
Mof_C 	C 	0.3326	0.63074	0.7688	0.103
Mof_C 	C 	0.88921	0.50349	0.64958	0.187
Mof_C 	C 	0.8986	0.60046	0.7688	0.108
Mof_C 	C 	0.96121	0.00349	0.64958	0.172
Mof_C 	C 	0.8326	0.10046	0.7688	0.104
Mof_C 	C 	0.38921	0.34693	0.64958	0.178
Mof_C 	C 	0.3986	0.13074	0.7688	0.1
Mof_C 	C 	0.53879	0.15307	0.35042	0.172
Mof_C 	C 	0.6674	0.36926	0.2312	0.1
Mof_C 	C 	0.11079	0.49651	0.35042	0.172
Mof_C 	C 	0.1014	0.39954	0.2312	0.095
Mof_N 	N 	0.08118	0.99625	0.16724	-0.112
Mof_N 	N 	0.99485	0.06088	0.2455	-0.108
Mof_N 	N 	0.14629	0.89522	0.34682	-0.165
Mof_N 	N 	0.97336	0.03571	0.45328	-0.102
Mof_N 	N 	0.75158	0.83651	0.16724	-0.105
Mof_N 	N 	0.75965	0.69362	0.2455	-0.098
Mof_N 	N 	0.50689	0.75796	0.34682	-0.162
Mof_N 	N 	0.57336	0.51101	0.45328	-0.097
Mof_N 	N 	0.41882	0.66349	0.83276	-0.095
Mof_N 	N 	0.50515	0.80638	0.7545	-0.089
Mof_N 	N 	0.35371	0.74204	0.65318	-0.163
Mof_N 	N 	0.52664	0.98899	0.54672	-0.075
Mof_N 	N 	0.74842	0.50375	0.83276	-0.094
Mof_N 	N 	0.74035	0.43912	0.7545	-0.096
Mof_N 	N 	0.99311	0.60478	0.65318	-0.153
Mof_N 	N 	0.92664	0.46429	0.54672	-0.084
Mof_N 	N 	0.91882	0.00375	0.83276	-0.094
Mof_N 	N 	0.00515	0.93912	0.7545	-0.091
Mof_N 	N 	0.85371	0.10478	0.65318	-0.162
Mof_N 	N 	0.02664	0.96429	0.54672	-0.093
Mof_N 	N 	0.24842	0.16349	0.83276	-0.1
Mof_N 	N 	0.24035	0.30638	0.7545	-0.101
Mof_N 	N 	0.49311	0.24204	0.65318	-0.165
Mof_N 	N 	0.42664	0.48899	0.54672	-0.099
Mof_N 	N 	0.58118	0.33651	0.16724	-0.122
Mof_N 	N 	0.49485	0.19362	0.2455	-0.113
Mof_N 	N 	0.64629	0.25796	0.34682	-0.164
Mof_N 	N 	0.47336	0.01101	0.45328	-0.121
Mof_N 	N 	0.25158	0.49625	0.16724	-0.123
Mof_N 	N 	0.25965	0.56088	0.2455	-0.105
Mof_N 	N 	0.00689	0.39522	0.34682	-0.175
Mof_N 	N 	0.07336	0.53571	0.45328	-0.112
_end
