data_functionalizedCrystal
_audit_creation_method	'EQeq! by Chris Wilmer'
_symmetry_space_group_name_H-M	'P1'
_symmetry_Int_Tables_number	1
_symmetry_cell_setting	triclinic
loop_
_symmetry_equiv_pos_as_xyz
  x,y,z
_cell_length_a	14.0216
_cell_length_b	14.0216
_cell_length_c	16.681
_cell_angle_alpha	80.931
_cell_angle_beta	80.931
_cell_angle_gamma	61.5274
loop_
_atom_site_label
_atom_site_type_symbol
_atom_site_fract_x
_atom_site_fract_y
_atom_site_fract_z
_atom_site_charge
Mof_Fe	Fe	0.83852	0.78084	0.41854	0.677
Mof_Fe	Fe	0.21916	0.16148	0.08146	0.678
Mof_Fe	Fe	0.16148	0.21916	0.58146	0.676
Mof_Fe	Fe	0.78084	0.83852	0.91854	0.677
Mof_Ni	Ni	0.95421	0.59069	0.69327	1.061
Mof_Ni	Ni	0.40931	0.04579	0.80673	1.06
Mof_Ni	Ni	0.04579	0.40931	0.30673	1.061
Mof_Ni	Ni	0.59069	0.95421	0.19327	1.06
Mof_Ni	Ni	0.10595	0.89405	0.25	1.038
Mof_Ni	Ni	0.89405	0.10595	0.75	1.038
Mof_H 	H 	0.0763	0.6695	0.7179	0.09
Mof_H 	H 	0.1347	0.5943	0.648	0.103
Mof_H 	H 	0.2197	0.5457	0.7736	-0.149
Mof_H 	H 	0.225	0.4534	0.7298	-0.176
Mof_H 	H 	0.1952	0.4298	0.8606	0.346
Mof_H 	H 	0.0907	0.5413	0.8596	0.305
Mof_H 	H 	0.0555	0.4057	0.8958	-0.111
Mof_H 	H 	0.1092	0.3594	0.8126	-0.09
Mof_H 	H 	0.9226	0.5216	0.8577	0.04
Mof_H 	H 	0.8959	0.4333	0.8825	-0.309
Mof_H 	H 	0.9469	0.3703	0.8055	-0.384
Mof_H 	H 	0.7585	0.5281	0.8389	0.848
Mof_H 	H 	0.7933	0.4155	0.8096	0.67
Mof_H 	H 	0.684	0.5794	0.7297	-0.384
Mof_H 	H 	0.7712	0.4784	0.6868	-0.354
Mof_H 	H 	0.7537	0.6743	0.6755	0.113
Mof_H 	H 	0.8165	0.5847	0.6159	0.12
Mof_H 	H 	0.2218	0.931	0.3297	0.104
Mof_H 	H 	0.175	0.8622	0.3877	0.082
Mof_H 	H 	0.1406	0.0444	0.3949	-0.228
Mof_H 	H 	0.0847	0.9797	0.447	-0.21
Mof_H 	H 	0.0078	0.1562	0.3698	0.387
Mof_H 	H 	0.9516	0.0942	0.4256	0.432
Mof_H 	H 	0.8636	0.1162	0.341	-0.167
Mof_H 	H 	0.9175	0.1809	0.2861	-0.223
Mof_H 	H 	0.3305	0.9237	0.7821	0.09
Mof_H 	H 	0.4057	0.8653	0.852	0.104
Mof_H 	H 	0.4543	0.7803	0.7264	-0.15
Mof_H 	H 	0.5466	0.775	0.7702	-0.177
Mof_H 	H 	0.5702	0.8048	0.6394	0.347
Mof_H 	H 	0.4587	0.9093	0.6404	0.307
Mof_H 	H 	0.5943	0.9445	0.6042	-0.111
Mof_H 	H 	0.6406	0.8908	0.6874	-0.09
Mof_H 	H 	0.4784	0.0774	0.6423	0.04
Mof_H 	H 	0.5667	0.1041	0.6175	-0.309
Mof_H 	H 	0.6297	0.0531	0.6945	-0.386
Mof_H 	H 	0.4719	0.2415	0.6611	0.85
Mof_H 	H 	0.5845	0.2067	0.6904	0.672
Mof_H 	H 	0.4206	0.316	0.7703	-0.385
Mof_H 	H 	0.5216	0.2288	0.8132	-0.355
Mof_H 	H 	0.3257	0.2463	0.8245	0.113
Mof_H 	H 	0.4153	0.1835	0.8841	0.12
Mof_H 	H 	0.069	0.7782	0.1703	0.101
Mof_H 	H 	0.1378	0.825	0.1123	0.079
Mof_H 	H 	0.9556	0.8594	0.1051	-0.204
Mof_H 	H 	0.0203	0.9153	0.053	-0.189
Mof_H 	H 	0.8438	0.9922	0.1302	0.354
Mof_H 	H 	0.9058	0.0484	0.0744	0.4
Mof_H 	H 	0.8838	0.1364	0.159	-0.152
Mof_H 	H 	0.8191	0.0825	0.2139	-0.204
Mof_H 	H 	0.9237	0.3305	0.2821	0.09
Mof_H 	H 	0.8653	0.4057	0.352	0.103
Mof_H 	H 	0.7803	0.4543	0.2264	-0.149
Mof_H 	H 	0.775	0.5466	0.2702	-0.176
Mof_H 	H 	0.8048	0.5702	0.1394	0.346
Mof_H 	H 	0.9093	0.4587	0.1404	0.305
Mof_H 	H 	0.9445	0.5943	0.1042	-0.111
Mof_H 	H 	0.8908	0.6406	0.1874	-0.09
Mof_H 	H 	0.0774	0.4784	0.1423	0.04
Mof_H 	H 	0.1041	0.5667	0.1175	-0.309
Mof_H 	H 	0.0531	0.6297	0.1945	-0.384
Mof_H 	H 	0.2415	0.4719	0.1611	0.848
Mof_H 	H 	0.2067	0.5845	0.1904	0.67
Mof_H 	H 	0.316	0.4206	0.2703	-0.384
Mof_H 	H 	0.2288	0.5216	0.3132	-0.354
Mof_H 	H 	0.2463	0.3257	0.3245	0.113
Mof_H 	H 	0.1835	0.4153	0.3841	0.12
Mof_H 	H 	0.7782	0.069	0.6703	0.104
Mof_H 	H 	0.825	0.1378	0.6123	0.082
Mof_H 	H 	0.8594	0.9556	0.6051	-0.228
Mof_H 	H 	0.9153	0.0203	0.553	-0.21
Mof_H 	H 	0.9922	0.8438	0.6302	0.387
Mof_H 	H 	0.0484	0.9058	0.5744	0.432
Mof_H 	H 	0.1364	0.8838	0.659	-0.167
Mof_H 	H 	0.0825	0.8191	0.7139	-0.223
Mof_H 	H 	0.6695	0.0763	0.2179	0.09
Mof_H 	H 	0.5943	0.1347	0.148	0.104
Mof_H 	H 	0.5457	0.2197	0.2736	-0.15
Mof_H 	H 	0.4534	0.225	0.2298	-0.177
Mof_H 	H 	0.4298	0.1952	0.3606	0.347
Mof_H 	H 	0.5413	0.0907	0.3596	0.307
Mof_H 	H 	0.4057	0.0555	0.3958	-0.111
Mof_H 	H 	0.3594	0.1092	0.3126	-0.09
Mof_H 	H 	0.5216	0.9226	0.3577	0.04
Mof_H 	H 	0.4333	0.8959	0.3825	-0.309
Mof_H 	H 	0.3703	0.9469	0.3055	-0.386
Mof_H 	H 	0.5281	0.7585	0.3389	0.85
Mof_H 	H 	0.4155	0.7933	0.3096	0.672
Mof_H 	H 	0.5794	0.684	0.2297	-0.385
Mof_H 	H 	0.4784	0.7712	0.1868	-0.355
Mof_H 	H 	0.6743	0.7537	0.1755	0.113
Mof_H 	H 	0.5847	0.8165	0.1159	0.12
Mof_H 	H 	0.931	0.2218	0.8297	0.101
Mof_H 	H 	0.8622	0.175	0.8877	0.079
Mof_H 	H 	0.0444	0.1406	0.8949	-0.204
Mof_H 	H 	0.9797	0.0847	0.947	-0.189
Mof_H 	H 	0.1562	0.0078	0.8698	0.354
Mof_H 	H 	0.0942	0.9516	0.9256	0.4
Mof_H 	H 	0.1162	0.8636	0.841	-0.152
Mof_H 	H 	0.1809	0.9175	0.7861	-0.204
Mof_C 	C 	0.9014	0.7288	0.5212	-0.107
Mof_C 	C 	0.9585	0.8023	0.3656	-0.115
Mof_C 	C 	0.9148	0.6344	0.3872	-0.094
Mof_C 	C 	0.7652	0.9304	0.4455	-0.125
Mof_C 	C 	0.7166	0.755	0.4651	-0.131
Mof_C 	C 	0.7715	0.8329	0.3183	-0.106
Mof_C 	C 	0.175	0.515	0.758	0.653
Mof_C 	C 	0.141	0.481	0.827	-1.001
Mof_C 	C 	0.072	0.432	0.839	0.459
Mof_C 	C 	0.8953	0.4433	0.818	1.248
Mof_C 	C 	0.794	0.486	0.799	-2.332
Mof_C 	C 	0.7616	0.5356	0.722	1.334
Mof_C 	C 	0.0886	0.0186	0.391	0.789
Mof_C 	C 	0.9927	0.0947	0.3743	-1.308
Mof_C 	C 	0.9363	0.1087	0.3101	0.786
Mof_C 	C 	0.2712	0.0986	0.9788	-0.111
Mof_C 	C 	0.1977	0.0415	0.1344	-0.112
Mof_C 	C 	0.3656	0.0852	0.1128	-0.093
Mof_C 	C 	0.0696	0.2348	0.0545	-0.125
Mof_C 	C 	0.245	0.2834	0.0349	-0.131
Mof_C 	C 	0.1671	0.2285	0.1817	-0.106
Mof_C 	C 	0.485	0.825	0.742	0.656
Mof_C 	C 	0.519	0.859	0.673	-1.005
Mof_C 	C 	0.568	0.928	0.661	0.462
Mof_C 	C 	0.5567	0.1047	0.682	1.251
Mof_C 	C 	0.514	0.206	0.701	-2.337
Mof_C 	C 	0.4644	0.2384	0.778	1.337
Mof_C 	C 	0.9814	0.9114	0.109	0.711
Mof_C 	C 	0.9053	0.0073	0.1257	-1.2
Mof_C 	C 	0.8913	0.0637	0.1899	0.724
Mof_C 	C 	0.0986	0.2712	0.4788	-0.107
Mof_C 	C 	0.0415	0.1977	0.6344	-0.115
Mof_C 	C 	0.0852	0.3656	0.6128	-0.094
Mof_C 	C 	0.2348	0.0696	0.5545	-0.125
Mof_C 	C 	0.2834	0.245	0.5349	-0.131
Mof_C 	C 	0.2285	0.1671	0.6817	-0.106
Mof_C 	C 	0.825	0.485	0.242	0.653
Mof_C 	C 	0.859	0.519	0.173	-1.001
Mof_C 	C 	0.928	0.568	0.161	0.459
Mof_C 	C 	0.1047	0.5567	0.182	1.248
Mof_C 	C 	0.206	0.514	0.201	-2.332
Mof_C 	C 	0.2384	0.4644	0.278	1.334
Mof_C 	C 	0.9114	0.9814	0.609	0.789
Mof_C 	C 	0.0073	0.9053	0.6257	-1.308
Mof_C 	C 	0.0637	0.8913	0.6899	0.786
Mof_C 	C 	0.7288	0.9014	0.0212	-0.111
Mof_C 	C 	0.8023	0.9585	0.8656	-0.112
Mof_C 	C 	0.6344	0.9148	0.8872	-0.093
Mof_C 	C 	0.9304	0.7652	0.9455	-0.125
Mof_C 	C 	0.755	0.7166	0.9651	-0.131
Mof_C 	C 	0.8329	0.7715	0.8183	-0.106
Mof_C 	C 	0.515	0.175	0.258	0.656
Mof_C 	C 	0.481	0.141	0.327	-1.005
Mof_C 	C 	0.432	0.072	0.339	0.462
Mof_C 	C 	0.4433	0.8953	0.318	1.251
Mof_C 	C 	0.486	0.794	0.299	-2.337
Mof_C 	C 	0.5356	0.7616	0.222	1.337
Mof_C 	C 	0.0186	0.0886	0.891	0.711
Mof_C 	C 	0.0947	0.9927	0.8743	-1.2
Mof_C 	C 	0.1087	0.9363	0.8101	0.724
Mof_N 	N 	0.9362	0.6916	0.5828	-0.208
Mof_N 	N 	0.0277	0.8189	0.329	-0.208
Mof_N 	N 	0.961	0.5478	0.3666	-0.208
Mof_N 	N 	0.7237	0.0209	0.4575	-0.073
Mof_N 	N 	0.6469	0.7335	0.49	-0.107
Mof_N 	N 	0.7246	0.867	0.2606	-0.208
Mof_N 	N 	0.0984	0.5966	0.7003	-0.399
Mof_N 	N 	0.9691	0.4883	0.8048	-0.462
Mof_N 	N 	0.8075	0.5985	0.6724	-0.522
Mof_N 	N 	0.156	0.9274	0.3494	-0.439
Mof_N 	N 	0.3084	0.0638	0.9172	-0.207
Mof_N 	N 	0.1811	0.9723	0.171	-0.21
Mof_N 	N 	0.4522	0.039	0.1334	-0.207
Mof_N 	N 	0.9791	0.2763	0.0425	-0.073
Mof_N 	N 	0.2665	0.3531	0.01	-0.107
Mof_N 	N 	0.133	0.2754	0.2394	-0.208
Mof_N 	N 	0.4034	0.9016	0.7997	-0.399
Mof_N 	N 	0.5117	0.0309	0.6952	-0.463
Mof_N 	N 	0.4015	0.1925	0.8276	-0.523
Mof_N 	N 	0.0726	0.844	0.1506	-0.425
Mof_N 	N 	0.0638	0.3084	0.4172	-0.208
Mof_N 	N 	0.9723	0.1811	0.671	-0.208
Mof_N 	N 	0.039	0.4522	0.6334	-0.208
Mof_N 	N 	0.2763	0.9791	0.5425	-0.073
Mof_N 	N 	0.3531	0.2665	0.51	-0.107
Mof_N 	N 	0.2754	0.133	0.7394	-0.208
Mof_N 	N 	0.9016	0.4034	0.2997	-0.399
Mof_N 	N 	0.0309	0.5117	0.1952	-0.462
Mof_N 	N 	0.1925	0.4015	0.3276	-0.522
Mof_N 	N 	0.844	0.0726	0.6506	-0.439
Mof_N 	N 	0.6916	0.9362	0.0828	-0.207
Mof_N 	N 	0.8189	0.0277	0.829	-0.21
Mof_N 	N 	0.5478	0.961	0.8666	-0.207
Mof_N 	N 	0.0209	0.7237	0.9575	-0.073
Mof_N 	N 	0.7335	0.6469	0.99	-0.107
Mof_N 	N 	0.867	0.7246	0.7606	-0.208
Mof_N 	N 	0.5966	0.0984	0.2003	-0.399
Mof_N 	N 	0.4883	0.9691	0.3048	-0.463
Mof_N 	N 	0.5985	0.8075	0.1724	-0.523
Mof_N 	N 	0.9274	0.156	0.8494	-0.425
Mof_N 	N 	0.9584	0.0416	0.25	-0.448
Mof_N 	N 	0.0416	0.9584	0.75	-0.448
_end
