data_functionalizedCrystal
_audit_creation_method	'EQeq! by Chris Wilmer'
_symmetry_space_group_name_H-M	'P1'
_symmetry_Int_Tables_number	1
_symmetry_cell_setting	triclinic
loop_
_symmetry_equiv_pos_as_xyz
  x,y,z
_cell_length_a	12.366
_cell_length_b	13.439
_cell_length_c	26.969
_cell_angle_alpha	90
_cell_angle_beta	95.463
_cell_angle_gamma	90
loop_
_atom_site_label
_atom_site_type_symbol
_atom_site_fract_x
_atom_site_fract_y
_atom_site_fract_z
_atom_site_charge
Mof_Zn	Zn	0.07929	0.93274	0.03004	1.199
Mof_Zn	Zn	0.10874	0.0365	0.63385	1.236
Mof_Zn	Zn	0.97224	0.18017	0.71611	1.202
Mof_O 	O 	0.1335	0.9631	0.6968	-0.491
Mof_O 	O 	0.0074	0.0413	0.7357	-0.519
Mof_O 	O 	0.1001	0.9052	0.9567	-0.489
Mof_O 	O 	0.1743	0.0568	0.0287	-0.466
Mof_O 	O 	0.3633	0.7098	0.7938	-0.472
Mof_O 	O 	0.3109	0.6619	0.8669	-0.471
Mof_O 	O 	0.4183	0.273	0.1481	-0.484
Mof_O 	O 	0.4539	0.4266	0.1211	-0.481
Mof_O 	O 	0.3963	0.4765	0.9323	-0.449
Mof_O 	O 	0.2329	0.4371	0.8994	-0.344
Mof_O 	O 	0.9868	0.0061	0.9119	-0.49
Mof_O 	O 	0.0575	0.1529	0.9802	-0.474
Mof_N 	N 	0.993	0.2537	0.7811	-0.27
Mof_N 	N 	0.0678	0.3333	0.8459	-0.228
Mof_H 	H 	0.1078	0.3756	0.8631	0.166
Mof_C 	C 	0.2208	0.2231	0.014	-0.13
Mof_C 	C 	0.2277	0.2905	0.976	0.054
Mof_H 	H 	0.1831	0.2828	0.9465	0.035
Mof_C 	C 	0.299	0.3687	0.9809	-0.095
Mof_C 	C 	0.3603	0.3843	0.0261	0.05
Mof_H 	H 	0.4074	0.4383	0.0297	0.047
Mof_C 	C 	0.3518	0.3199	0.0659	-0.132
Mof_C 	C 	0.2841	0.2359	0.0594	0.066
Mof_H 	H 	0.2814	0.1896	0.0849	0.028
Mof_C 	C 	0.1433	0.1375	0.0074	0.397
Mof_C 	C 	0.0606	0.9421	0.9164	0.436
Mof_C 	C 	0.1058	0.9073	0.87	-0.175
Mof_C 	C 	0.18	0.8288	0.8706	0.108
Mof_H 	H 	0.2003	0.7954	0.9002	0.021
Mof_C 	C 	0.2235	0.8004	0.8273	-0.172
Mof_C 	C 	0.1948	0.8493	0.7834	0.11
Mof_H 	H 	0.2262	0.8308	0.7547	0.017
Mof_C 	C 	0.1189	0.9266	0.7812	-0.182
Mof_C 	C 	0.0747	0.9547	0.8249	0.109
Mof_H 	H 	0.0238	0.0058	0.8239	0.012
Mof_C 	C 	0.0844	0.9809	0.7341	0.441
Mof_C 	C 	0.3063	0.7185	0.8293	0.408
Mof_C 	C 	0.4121	0.3388	0.1148	0.365
Mof_C 	C 	0.3114	0.4332	0.9316	0.348
Mof_C 	C 	0.0615	0.3231	0.7963	0.15
Mof_H 	H 	0.101	0.3608	0.7754	-0.023
Mof_C 	C 	0.0008	0.2661	0.8646	0.067
Mof_H 	H 	0.9896	0.2568	0.8979	-0.002
Mof_C 	C 	0.9536	0.2154	0.8249	-0.049
Mof_H 	H 	0.9036	0.1639	0.8262	0.02
Mof_Zn	Zn	0.42071	0.43274	0.46996	1.199
Mof_Zn	Zn	0.39126	0.5365	0.86615	1.234
Mof_Zn	Zn	0.52776	0.68017	0.78389	1.201
Mof_O 	O 	0.3665	0.4631	0.8032	-0.492
Mof_O 	O 	0.4926	0.5413	0.7643	-0.521
Mof_O 	O 	0.3999	0.4052	0.5433	-0.489
Mof_O 	O 	0.3257	0.5568	0.4713	-0.467
Mof_O 	O 	0.1367	0.2098	0.7062	-0.472
Mof_O 	O 	0.1891	0.1619	0.6331	-0.471
Mof_O 	O 	0.0817	0.773	0.3519	-0.484
Mof_O 	O 	0.0461	0.9266	0.3789	-0.482
Mof_O 	O 	0.1037	0.9765	0.5677	-0.449
Mof_O 	O 	0.2671	0.9371	0.6006	-0.344
Mof_O 	O 	0.5132	0.5061	0.5881	-0.487
Mof_O 	O 	0.4425	0.6529	0.5198	-0.476
Mof_N 	N 	0.507	0.7537	0.7189	-0.269
Mof_N 	N 	0.4322	0.8333	0.6541	-0.226
Mof_H 	H 	0.3922	0.8756	0.6369	0.165
Mof_C 	C 	0.2792	0.7231	0.486	-0.13
Mof_C 	C 	0.2723	0.7905	0.524	0.054
Mof_H 	H 	0.3169	0.7828	0.5535	0.035
Mof_C 	C 	0.201	0.8687	0.5191	-0.095
Mof_C 	C 	0.1397	0.8843	0.4739	0.051
Mof_H 	H 	0.0926	0.9383	0.4703	0.046
Mof_C 	C 	0.1482	0.8199	0.4341	-0.132
Mof_C 	C 	0.2159	0.7359	0.4406	0.066
Mof_H 	H 	0.2186	0.6896	0.4151	0.028
Mof_C 	C 	0.3567	0.6375	0.4926	0.399
Mof_C 	C 	0.4394	0.4421	0.5836	0.433
Mof_C 	C 	0.3942	0.4073	0.63	-0.174
Mof_C 	C 	0.32	0.3288	0.6294	0.107
Mof_H 	H 	0.2997	0.2954	0.5998	0.021
Mof_C 	C 	0.2765	0.3004	0.6727	-0.172
Mof_C 	C 	0.3052	0.3493	0.7166	0.111
Mof_H 	H 	0.2738	0.3308	0.7453	0.017
Mof_C 	C 	0.3811	0.4266	0.7188	-0.183
Mof_C 	C 	0.4253	0.4547	0.6751	0.11
Mof_H 	H 	0.4762	0.5058	0.6761	0.011
Mof_C 	C 	0.4156	0.4809	0.7659	0.442
Mof_C 	C 	0.1937	0.2185	0.6707	0.408
Mof_C 	C 	0.0879	0.8388	0.3852	0.365
Mof_C 	C 	0.1886	0.9332	0.5684	0.348
Mof_C 	C 	0.4385	0.8231	0.7037	0.147
Mof_H 	H 	0.399	0.8608	0.7246	-0.022
Mof_C 	C 	0.4992	0.7661	0.6354	0.057
Mof_H 	H 	0.5104	0.7568	0.6021	0.004
Mof_C 	C 	0.5464	0.7154	0.6751	-0.042
Mof_H 	H 	0.5964	0.6639	0.6738	0.018
Mof_Zn	Zn	0.92071	0.06726	0.96996	1.198
Mof_Zn	Zn	0.89126	0.9635	0.36615	1.235
Mof_Zn	Zn	0.02776	0.81983	0.28389	1.201
Mof_O 	O 	0.8665	0.0369	0.3032	-0.492
Mof_O 	O 	0.9926	0.9587	0.2643	-0.519
Mof_O 	O 	0.8999	0.0948	0.0433	-0.489
Mof_O 	O 	0.8257	0.9432	0.9713	-0.466
Mof_O 	O 	0.6367	0.2902	0.2062	-0.472
Mof_O 	O 	0.6891	0.3381	0.1331	-0.471
Mof_O 	O 	0.5817	0.727	0.8519	-0.484
Mof_O 	O 	0.5461	0.5734	0.8789	-0.481
Mof_O 	O 	0.6037	0.5235	0.0677	-0.449
Mof_O 	O 	0.7671	0.5629	0.1006	-0.344
Mof_O 	O 	0.0132	0.9939	0.0881	-0.49
Mof_O 	O 	0.9425	0.8471	0.0198	-0.474
Mof_N 	N 	0.007	0.7463	0.2189	-0.27
Mof_N 	N 	0.9322	0.6667	0.1541	-0.228
Mof_H 	H 	0.8922	0.6244	0.1369	0.166
Mof_C 	C 	0.7792	0.7769	0.986	-0.13
Mof_C 	C 	0.7723	0.7095	0.024	0.054
Mof_H 	H 	0.8169	0.7172	0.0535	0.035
Mof_C 	C 	0.701	0.6313	0.0191	-0.095
Mof_C 	C 	0.6397	0.6157	0.9739	0.05
Mof_H 	H 	0.5926	0.5617	0.9703	0.047
Mof_C 	C 	0.6482	0.6801	0.9341	-0.132
Mof_C 	C 	0.7159	0.7641	0.9406	0.066
Mof_H 	H 	0.7186	0.8104	0.9151	0.028
Mof_C 	C 	0.8567	0.8625	0.9926	0.397
Mof_C 	C 	0.9394	0.0579	0.0836	0.436
Mof_C 	C 	0.8942	0.0927	0.13	-0.175
Mof_C 	C 	0.82	0.1712	0.1294	0.108
Mof_H 	H 	0.7997	0.2046	0.0998	0.021
Mof_C 	C 	0.7765	0.1996	0.1727	-0.172
Mof_C 	C 	0.8052	0.1507	0.2166	0.11
Mof_H 	H 	0.7738	0.1692	0.2453	0.017
Mof_C 	C 	0.8811	0.0734	0.2188	-0.182
Mof_C 	C 	0.9253	0.0453	0.1751	0.109
Mof_H 	H 	0.9762	0.9942	0.1761	0.012
Mof_C 	C 	0.9156	0.0191	0.2659	0.441
Mof_C 	C 	0.6937	0.2815	0.1707	0.408
Mof_C 	C 	0.5879	0.6612	0.8852	0.365
Mof_C 	C 	0.6886	0.5668	0.0684	0.348
Mof_C 	C 	0.9385	0.6769	0.2037	0.15
Mof_H 	H 	0.899	0.6392	0.2246	-0.023
Mof_C 	C 	0.9992	0.7339	0.1354	0.067
Mof_H 	H 	0.0104	0.7432	0.1021	-0.002
Mof_C 	C 	0.0464	0.7846	0.1751	-0.049
Mof_H 	H 	0.0964	0.8361	0.1738	0.02
Mof_Zn	Zn	0.57929	0.56726	0.53004	1.199
Mof_Zn	Zn	0.60874	0.4635	0.13385	1.234
Mof_Zn	Zn	0.47224	0.31983	0.21611	1.201
Mof_O 	O 	0.6335	0.5369	0.1968	-0.492
Mof_O 	O 	0.5074	0.4587	0.2357	-0.521
Mof_O 	O 	0.6001	0.5948	0.4567	-0.489
Mof_O 	O 	0.6743	0.4432	0.5287	-0.467
Mof_O 	O 	0.8633	0.7902	0.2938	-0.472
Mof_O 	O 	0.8109	0.8381	0.3669	-0.471
Mof_O 	O 	0.9183	0.227	0.6481	-0.484
Mof_O 	O 	0.9539	0.0734	0.6211	-0.482
Mof_O 	O 	0.8963	0.0235	0.4323	-0.449
Mof_O 	O 	0.7329	0.0629	0.3994	-0.344
Mof_O 	O 	0.4868	0.4939	0.4119	-0.487
Mof_O 	O 	0.5575	0.3471	0.4802	-0.476
Mof_N 	N 	0.493	0.2463	0.2811	-0.269
Mof_N 	N 	0.5678	0.1667	0.3459	-0.226
Mof_H 	H 	0.6078	0.1244	0.3631	0.165
Mof_C 	C 	0.7208	0.2769	0.514	-0.13
Mof_C 	C 	0.7277	0.2095	0.476	0.054
Mof_H 	H 	0.6831	0.2172	0.4465	0.035
Mof_C 	C 	0.799	0.1313	0.4809	-0.095
Mof_C 	C 	0.8603	0.1157	0.5261	0.051
Mof_H 	H 	0.9074	0.0617	0.5297	0.046
Mof_C 	C 	0.8518	0.1801	0.5659	-0.132
Mof_C 	C 	0.7841	0.2641	0.5594	0.066
Mof_H 	H 	0.7814	0.3104	0.5849	0.028
Mof_C 	C 	0.6433	0.3625	0.5074	0.399
Mof_C 	C 	0.5606	0.5579	0.4164	0.433
Mof_C 	C 	0.6058	0.5927	0.37	-0.174
Mof_C 	C 	0.68	0.6712	0.3706	0.107
Mof_H 	H 	0.7003	0.7046	0.4002	0.021
Mof_C 	C 	0.7235	0.6996	0.3273	-0.172
Mof_C 	C 	0.6948	0.6507	0.2834	0.111
Mof_H 	H 	0.7262	0.6692	0.2547	0.017
Mof_C 	C 	0.6189	0.5734	0.2812	-0.183
Mof_C 	C 	0.5747	0.5453	0.3249	0.11
Mof_H 	H 	0.5238	0.4942	0.3239	0.011
Mof_C 	C 	0.5844	0.5191	0.2341	0.442
Mof_C 	C 	0.8063	0.7815	0.3293	0.408
Mof_C 	C 	0.9121	0.1612	0.6148	0.365
Mof_C 	C 	0.8114	0.0668	0.4316	0.348
Mof_C 	C 	0.5615	0.1769	0.2963	0.147
Mof_H 	H 	0.601	0.1392	0.2754	-0.022
Mof_C 	C 	0.5008	0.2339	0.3646	0.057
Mof_H 	H 	0.4896	0.2432	0.3979	0.004
Mof_C 	C 	0.4536	0.2846	0.3249	-0.042
Mof_H 	H 	0.4036	0.3361	0.3262	0.018
_end
