data_functionalizedCrystal
_audit_creation_method	'EQeq! by Chris Wilmer'
_symmetry_space_group_name_H-M	'P1'
_symmetry_Int_Tables_number	1
_symmetry_cell_setting	triclinic
loop_
_symmetry_equiv_pos_as_xyz
  x,y,z
_cell_length_a	6.739
_cell_length_b	15.0349
_cell_length_c	15.0349
_cell_angle_alpha	62.1916
_cell_angle_beta	81.4074
_cell_angle_gamma	98.5926
loop_
_atom_site_label
_atom_site_type_symbol
_atom_site_fract_x
_atom_site_fract_y
_atom_site_fract_z
_atom_site_charge
Mof_Ni	Ni	0.3908	0.2804	0.4178	1.11
Mof_Ni	Ni	0.1104	0.3018	0.2804	1.102
Mof_Ni	Ni	0.8086	0.4178	0.3018	1.117
Mof_Ni	Ni	0.1104	0.7196	0.6982	1.1
Mof_Ni	Ni	0.3908	0.5822	0.7196	1.11
Mof_Ni	Ni	0.8086	0.6982	0.5822	1.117
Mof_H 	H 	0.22255	0.50665	-0	0.241
Mof_H 	H 	0.7159	0.49335	0.50665	0.245
Mof_H 	H 	0.54415	0	0.56355	-0.043
Mof_H 	H 	0.22255	0	0.49335	0.243
Mof_H 	H 	0.54415	0.43645	-0	-0.039
Mof_H 	H 	0.1077	0.56355	0.43645	-0.047
Mof_C 	C 	0.0859	0	0.4983	-0.566
Mof_C 	C 	0.2987	0.4836	0.4255	-0.333
Mof_C 	C 	0.5507	0.8109	0.6428	0.385
Mof_C 	C 	0.1935	0.6428	0.5463	0.38
Mof_C 	C 	0.1935	0.4537	0.3572	0.38
Mof_C 	C 	0.7242	0.9091	0.5745	-0.345
Mof_C 	C 	0.7398	0.5463	0.8109	0.375
Mof_C 	C 	0.0386	0.5323	0.9085	0.385
Mof_C 	C 	0.2354	0.5556	0.4444	0.261
Mof_C 	C 	0.9471	0.4408	0.0915	0.445
Mof_C 	C 	0.6798	0.4444	-0	0.258
Mof_C 	C 	0.8151	0.0909	0.4836	-0.304
Mof_C 	C 	0.5842	0.4983	0.5017	-0.551
Mof_C 	C 	0.0386	0.0915	0.4677	0.397
Mof_C 	C 	0.5507	0.3572	0.1891	0.383
Mof_C 	C 	0.7398	0.1891	0.4537	0.377
Mof_C 	C 	0.0859	0.5017	-0	-0.567
Mof_C 	C 	0.2987	0.5745	0.5164	-0.333
Mof_C 	C 	0.9471	0.9085	0.5592	0.438
Mof_C 	C 	0.8151	0.5164	0.9091	-0.303
Mof_C 	C 	0.5063	0.4677	0.4408	0.421
Mof_C 	C 	0.7242	0.4255	0.0909	-0.328
Mof_C 	C 	0.6798	-4.40715e-17	0.5556	0.273
Mof_C 	C 	0.5063	0.5592	0.5323	0.421
Mof_O 	O 	0.9851	0.4172	0.1849	-0.536
Mof_O 	O 	0.9851	0.8151	0.5828	-0.536
Mof_O 	O 	0.8646	0.2753	0.3815	-0.553
Mof_O 	O 	0.17	0.1849	0.3979	-0.546
Mof_O 	O 	0.5679	0.3979	0.4172	-0.543
Mof_O 	O 	0.5893	0.3432	0.2753	-0.567
Mof_O 	O 	0.0332	0.4977	0.3271	-0.435
Mof_O 	O 	0.5355	0.1752	0.4977	-0.419
Mof_O 	O 	0.5355	0.5023	0.8248	-0.421
Mof_O 	O 	0.5893	0.7247	0.6568	-0.569
Mof_O 	O 	0.17	0.6021	0.8151	-0.547
Mof_O 	O 	0.5679	0.5828	0.6021	-0.543
Mof_O 	O 	0.0332	0.6729	0.5023	-0.436
Mof_O 	O 	0.3603	0.8248	0.6729	-0.431
Mof_O 	O 	0.2461	0.3815	0.3432	-0.573
Mof_O 	O 	0.2461	0.6568	0.6185	-0.574
Mof_O 	O 	0.3603	0.3271	0.1752	-0.423
Mof_O 	O 	0.8646	0.6185	0.7247	-0.553
_end
