data_functionalizedCrystal
_audit_creation_method	'EQeq! by Chris Wilmer'
_symmetry_space_group_name_H-M	'P1'
_symmetry_Int_Tables_number	1
_symmetry_cell_setting	triclinic
loop_
_symmetry_equiv_pos_as_xyz
  x,y,z
_cell_length_a	12.5528
_cell_length_b	12.663
_cell_length_c	18.189
_cell_angle_alpha	90
_cell_angle_beta	90
_cell_angle_gamma	113.388
loop_
_atom_site_label
_atom_site_type_symbol
_atom_site_fract_x
_atom_site_fract_y
_atom_site_fract_z
_atom_site_charge
Mof_Mn	Mn	0.67734	0.0729	0.20909	0.68
Mof_Mn	Mn	0.82266	0.9271	0.70909	0.688
Mof_Mn	Mn	0.32266	0.9271	0.79091	0.677
Mof_Mn	Mn	0.17734	0.0729	0.29091	0.67
Mof_Mn	Mn	0.5	0.5	-0	0.715
Mof_Mn	Mn	1.2117e-17	0.5	0.5	0.734
Mof_H 	H 	0.2591	0.3914	0.1825	0.049
Mof_H 	H 	0.1668	0.6536	0.1278	0.055
Mof_H 	H 	0.9841	0.4211	0.2823	0.086
Mof_H 	H 	0.0251	0.6916	0.203	0.009
Mof_H 	H 	0.9499	0.599	0.2633	0.037
Mof_H 	H 	0.8745	0.7412	0.2234	0.08
Mof_H 	H 	0.5957	0.723	0.1039	0.022
Mof_H 	H 	0.7258	0.4898	0.0726	0.056
Mof_H 	H 	0.2409	0.6086	0.6825	0.051
Mof_H 	H 	0.3332	0.3464	0.6278	0.067
Mof_H 	H 	0.5159	0.5789	0.7823	0.063
Mof_H 	H 	0.4749	0.3084	0.703	0.047
Mof_H 	H 	0.5501	0.401	0.7633	0.052
Mof_H 	H 	0.6255	0.2588	0.7234	0.075
Mof_H 	H 	0.9043	0.277	0.6039	0.031
Mof_H 	H 	0.7742	0.5102	0.5726	0.063
Mof_H 	H 	0.7409	0.6086	0.8175	0.056
Mof_H 	H 	0.8332	0.3464	0.8722	0.081
Mof_H 	H 	0.0159	0.5789	0.7177	0.036
Mof_H 	H 	0.9749	0.3084	0.797	0.087
Mof_H 	H 	0.0501	0.401	0.7367	0.068
Mof_H 	H 	0.1255	0.2588	0.7766	0.068
Mof_H 	H 	0.4043	0.277	0.8961	0.029
Mof_H 	H 	0.2742	0.5102	0.9274	0.069
Mof_H 	H 	0.7591	0.3914	0.3175	0.054
Mof_H 	H 	0.6668	0.6536	0.3722	0.069
Mof_H 	H 	0.4841	0.4211	0.2177	0.06
Mof_H 	H 	0.5251	0.6916	0.297	0.047
Mof_H 	H 	0.4499	0.599	0.2367	0.052
Mof_H 	H 	0.3745	0.7412	0.2766	0.074
Mof_H 	H 	0.0957	0.723	0.3961	0.018
Mof_H 	H 	0.2258	0.4898	0.4274	0.061
Mof_C 	C 	0.1025	0.2834	0.28273	0.316
Mof_C 	C 	0.1188	0.3903	0.23879	-0.061
Mof_C 	C 	0.209	0.4307	0.18832	0.004
Mof_C 	C 	0.2269	0.528	0.1461	-0.071
Mof_C 	C 	0.3217	0.5663	0.08884	0.317
Mof_C 	C 	0.1539	0.5861	0.15565	-0.028
Mof_C 	C 	0.0624	0.5462	0.20556	0.01
Mof_C 	C 	0.0457	0.4482	0.24758	-0.07
Mof_C 	C 	0.9827	0.6085	0.21303	0.047
Mof_C 	C 	0.8153	0.6085	0.14971	0.143
Mof_C 	C 	0.8178	0.7056	0.18663	-0.092
Mof_C 	C 	0.7355	0.7498	0.16869	-0.066
Mof_C 	C 	0.7386	0.8575	0.20567	0.314
Mof_C 	C 	0.6519	0.693	0.1159	0.042
Mof_C 	C 	0.728	0.5566	0.09749	-0.044
Mof_C 	C 	0.3975	0.7166	0.78273	0.32
Mof_C 	C 	0.3812	0.6097	0.73879	-0.063
Mof_C 	C 	0.291	0.5693	0.68832	0.005
Mof_C 	C 	0.2731	0.472	0.6461	-0.062
Mof_C 	C 	0.1783	0.4337	0.58884	0.316
Mof_C 	C 	0.3461	0.4139	0.65565	-0.043
Mof_C 	C 	0.4376	0.4538	0.70556	0.043
Mof_C 	C 	0.4543	0.5518	0.74758	-0.044
Mof_C 	C 	0.5173	0.3915	0.71303	-0.029
Mof_C 	C 	0.6847	0.3915	0.64971	0.137
Mof_C 	C 	0.6822	0.2944	0.68663	-0.088
Mof_C 	C 	0.7645	0.2502	0.66869	-0.065
Mof_C 	C 	0.7614	0.1425	0.70567	0.313
Mof_C 	C 	0.8481	0.307	0.6159	0.045
Mof_C 	C 	0.772	0.4434	0.59749	-0.039
Mof_C 	C 	0.8975	0.7166	0.71727	0.324
Mof_C 	C 	0.8812	0.6097	0.76121	-0.066
Mof_C 	C 	0.791	0.5693	0.81168	0.004
Mof_C 	C 	0.7731	0.472	0.8539	-0.047
Mof_C 	C 	0.6783	0.4337	0.91116	0.311
Mof_C 	C 	0.8461	0.4139	0.84435	-0.059
Mof_C 	C 	0.9376	0.4538	0.79444	0.077
Mof_C 	C 	0.9543	0.5518	0.75242	-0.016
Mof_C 	C 	0.0173	0.3915	0.78697	-0.108
Mof_C 	C 	0.1847	0.3915	0.85029	0.131
Mof_C 	C 	0.1822	0.2944	0.81337	-0.083
Mof_C 	C 	0.2645	0.2502	0.83131	-0.068
Mof_C 	C 	0.2614	0.1425	0.79433	0.316
Mof_C 	C 	0.3481	0.307	0.8841	0.048
Mof_C 	C 	0.272	0.4434	0.90251	-0.035
Mof_C 	C 	0.6025	0.2834	0.21727	0.321
Mof_C 	C 	0.6188	0.3903	0.26121	-0.064
Mof_C 	C 	0.709	0.4307	0.31168	0.004
Mof_C 	C 	0.7269	0.528	0.3539	-0.058
Mof_C 	C 	0.8217	0.5663	0.41116	0.315
Mof_C 	C 	0.6539	0.5861	0.34435	-0.044
Mof_C 	C 	0.5624	0.5462	0.29444	0.043
Mof_C 	C 	0.5457	0.4482	0.25242	-0.043
Mof_C 	C 	0.4827	0.6085	0.28697	-0.029
Mof_C 	C 	0.3153	0.6085	0.35029	0.136
Mof_C 	C 	0.3178	0.7056	0.31337	-0.086
Mof_C 	C 	0.2355	0.7498	0.33131	-0.07
Mof_C 	C 	0.2386	0.8575	0.29433	0.316
Mof_C 	C 	0.1519	0.693	0.3841	0.045
Mof_C 	C 	0.228	0.5566	0.40251	-0.04
Mof_N 	N 	0.64752	0.5977	0.08127	-0.159
Mof_N 	N 	0.85248	0.4023	0.58127	-0.151
Mof_N 	N 	0.35248	0.4023	0.91873	-0.147
Mof_N 	N 	0.14752	0.5977	0.41873	-0.159
Mof_O 	O 	0.1734	0.23863	0.27077	-0.363
Mof_O 	O 	0.01997	0.24592	0.32849	-0.282
Mof_O 	O 	0.3346	0.65458	0.05075	-0.273
Mof_O 	O 	0.379	0.50565	0.08164	-0.364
Mof_O 	O 	0.89106	0.5567	0.15915	-0.209
Mof_O 	O 	0.6715	0.9015	0.18359	-0.361
Mof_O 	O 	0.809	0.8961	0.25836	-0.273
Mof_O 	O 	0.3266	0.76137	0.77077	-0.361
Mof_O 	O 	0.48003	0.75408	0.82849	-0.266
Mof_O 	O 	0.1654	0.34542	0.55075	-0.263
Mof_O 	O 	0.121	0.49435	0.58164	-0.363
Mof_O 	O 	0.60894	0.4433	0.65915	-0.198
Mof_O 	O 	0.8285	0.0985	0.68359	-0.352
Mof_O 	O 	0.691	0.1039	0.75836	-0.272
Mof_O 	O 	0.8266	0.76137	0.72923	-0.359
Mof_O 	O 	0.98003	0.75408	0.67151	-0.262
Mof_O 	O 	0.6654	0.34542	0.94925	-0.239
Mof_O 	O 	0.621	0.49435	0.91836	-0.339
Mof_O 	O 	0.10894	0.4433	0.84085	-0.185
Mof_O 	O 	0.3285	0.0985	0.81641	-0.354
Mof_O 	O 	0.191	0.1039	0.74164	-0.282
Mof_O 	O 	0.6734	0.23863	0.22923	-0.361
Mof_O 	O 	0.51997	0.24592	0.17151	-0.279
Mof_O 	O 	0.8346	0.65458	0.44925	-0.252
Mof_O 	O 	0.879	0.50565	0.41836	-0.347
Mof_O 	O 	0.39106	0.5567	0.34085	-0.197
Mof_O 	O 	0.1715	0.9015	0.31641	-0.364
Mof_O 	O 	0.309	0.8961	0.24164	-0.282
_end
