data_functionalizedCrystal
_audit_creation_method	'EQeq! by Chris Wilmer'
_symmetry_space_group_name_H-M	'P1'
_symmetry_Int_Tables_number	1
_symmetry_cell_setting	triclinic
loop_
_symmetry_equiv_pos_as_xyz
  x,y,z
_cell_length_a	15.1318
_cell_length_b	15.1318
_cell_length_c	12.0523
_cell_angle_alpha	90
_cell_angle_beta	90
_cell_angle_gamma	90
loop_
_atom_site_label
_atom_site_type_symbol
_atom_site_fract_x
_atom_site_fract_y
_atom_site_fract_z
_atom_site_charge
Mof_O 	O 	0.60105	0.28981	0.75814	-0.509
Mof_O 	O 	0.61865	0.37972	0.6091	-0.51
Mof_C 	C 	0.59304	0.36025	0.70179	0.424
Mof_C 	C 	0.54	0.43078	0.7599	-0.078
Mof_C 	C 	0.54135	0.42957	0.87919	-0.051
Mof_H 	H 	0.57318	0.38162	0.90735	0.074
Mof_O 	O 	0.10105	0.78981	0.25814	-0.521
Mof_O 	O 	0.11865	0.87972	0.1091	-0.526
Mof_C 	C 	0.09304	0.86025	0.20179	0.428
Mof_C 	C 	0.04	0.93078	0.2599	-0.089
Mof_C 	C 	0.04135	0.92957	0.37919	0.012
Mof_H 	H 	0.07318	0.88162	0.40735	0.037
Mof_O 	O 	0.89895	0.21019	0.25814	-0.521
Mof_O 	O 	0.88135	0.12028	0.1091	-0.53
Mof_C 	C 	0.90696	0.13975	0.20179	0.43
Mof_C 	C 	0.96	0.06922	0.2599	-0.098
Mof_C 	C 	0.95865	0.07043	0.37919	0.001
Mof_H 	H 	0.92682	0.11838	0.40735	0.04
Mof_O 	O 	0.39895	0.71019	0.75814	-0.508
Mof_O 	O 	0.38135	0.62028	0.6091	-0.511
Mof_C 	C 	0.40696	0.63975	0.70179	0.424
Mof_C 	C 	0.46	0.56922	0.7599	-0.078
Mof_C 	C 	0.45865	0.57043	0.87919	-0.05
Mof_H 	H 	0.42682	0.61838	0.90735	0.075
Mof_O 	O 	0.71019	0.10105	0.00814	-0.611
Mof_O 	O 	0.62028	0.11865	0.8591	-0.56
Mof_C 	C 	0.63975	0.09304	0.95179	0.636
Mof_C 	C 	0.56922	0.04	0.0099	-0.38
Mof_C 	C 	0.57043	0.04135	0.12919	0.143
Mof_H 	H 	0.61838	0.07318	0.15735	-0.013
Mof_O 	O 	0.21019	0.60105	0.50814	-0.52
Mof_O 	O 	0.12028	0.61865	0.3591	-0.521
Mof_C 	C 	0.13975	0.59304	0.45179	0.436
Mof_C 	C 	0.06922	0.54	0.5099	-0.116
Mof_C 	C 	0.07043	0.54135	0.62919	0.015
Mof_H 	H 	0.11838	0.57318	0.65735	0.035
Mof_O 	O 	0.78981	0.39895	0.50814	-0.518
Mof_O 	O 	0.87972	0.38135	0.3591	-0.518
Mof_C 	C 	0.86025	0.40696	0.45179	0.435
Mof_C 	C 	0.93078	0.46	0.5099	-0.108
Mof_C 	C 	0.92957	0.45865	0.62919	0.025
Mof_H 	H 	0.88162	0.42682	0.65735	0.033
Mof_O 	O 	0.28981	0.89895	0.00814	-0.609
Mof_O 	O 	0.37972	0.88135	0.8591	-0.554
Mof_C 	C 	0.36025	0.90696	0.95179	0.638
Mof_C 	C 	0.43078	0.96	0.0099	-0.366
Mof_C 	C 	0.42957	0.95865	0.12919	0.163
Mof_H 	H 	0.38162	0.92682	0.15735	-0.016
Mof_O 	O 	0.89895	0.28981	0.99186	-0.414
Mof_O 	O 	0.88135	0.37972	0.1409	-0.464
Mof_C 	C 	0.90696	0.36025	0.04821	0.217
Mof_C 	C 	0.96	0.43078	0.9901	0.194
Mof_C 	C 	0.95865	0.42957	0.87081	-0.163
Mof_H 	H 	0.92682	0.38162	0.84265	0.099
Mof_O 	O 	0.39895	0.78981	0.49186	-0.514
Mof_O 	O 	0.38135	0.87972	0.6409	-0.501
Mof_C 	C 	0.40696	0.86025	0.54821	0.42
Mof_C 	C 	0.46	0.93078	0.4901	-0.064
Mof_C 	C 	0.45865	0.92957	0.37081	-0.022
Mof_H 	H 	0.42682	0.88162	0.34265	0.049
Mof_O 	O 	0.60105	0.21019	0.49186	-0.517
Mof_O 	O 	0.61865	0.12028	0.6409	-0.508
Mof_C 	C 	0.59304	0.13975	0.54821	0.422
Mof_C 	C 	0.54	0.06922	0.4901	-0.082
Mof_C 	C 	0.54135	0.07043	0.37081	-0.042
Mof_H 	H 	0.57318	0.11838	0.34265	0.053
Mof_O 	O 	0.10105	0.71019	0.99186	-0.415
Mof_O 	O 	0.11865	0.62028	0.1409	-0.467
Mof_C 	C 	0.09304	0.63975	0.04821	0.218
Mof_C 	C 	0.04	0.56922	0.9901	0.186
Mof_C 	C 	0.04135	0.57043	0.87081	-0.172
Mof_H 	H 	0.07318	0.61838	0.84265	0.101
Mof_O 	O 	0.78981	0.10105	0.74186	-0.511
Mof_O 	O 	0.87972	0.11865	0.8909	-0.486
Mof_C 	C 	0.86025	0.09304	0.79821	0.419
Mof_C 	C 	0.93078	0.04	0.7401	-0.075
Mof_C 	C 	0.92957	0.04135	0.62081	-0.011
Mof_H 	H 	0.88162	0.07318	0.59265	0.044
Mof_O 	O 	0.28981	0.60105	0.24186	-0.527
Mof_O 	O 	0.37972	0.61865	0.3909	-0.517
Mof_C 	C 	0.36025	0.59304	0.29821	0.439
Mof_C 	C 	0.43078	0.54	0.2401	-0.127
Mof_C 	C 	0.42957	0.54135	0.12081	0.024
Mof_H 	H 	0.38162	0.57318	0.09265	0.014
Mof_O 	O 	0.71019	0.39895	0.24186	-0.525
Mof_O 	O 	0.62028	0.38135	0.3909	-0.517
Mof_C 	C 	0.63975	0.40696	0.29821	0.439
Mof_C 	C 	0.56922	0.46	0.2401	-0.127
Mof_C 	C 	0.57043	0.45865	0.12081	0.025
Mof_H 	H 	0.61838	0.42682	0.09265	0.015
Mof_O 	O 	0.21019	0.89895	0.74186	-0.507
Mof_O 	O 	0.12028	0.88135	0.8909	-0.482
Mof_C 	C 	0.13975	0.90696	0.79821	0.419
Mof_C 	C 	0.06922	0.96	0.7401	-0.064
Mof_C 	C 	0.07043	0.95865	0.62081	0.001
Mof_H 	H 	0.11838	0.92682	0.59265	0.042
Mof_V 	V 	0.69057	0.30943	0.5	1.801
Mof_V 	V 	0.19057	0.80943	-0	1.777
Mof_V 	V 	0.80943	0.19057	-0	1.777
Mof_V 	V 	0.30943	0.69057	0.5	1.802
Mof_V 	V 	0.69057	0.19057	0.75	1.804
Mof_V 	V 	0.19057	0.69057	0.25	1.799
Mof_V 	V 	0.80943	0.30943	0.25	1.799
Mof_V 	V 	0.30943	0.80943	0.75	1.804
Mof_O 	O 	0.7483	0.25	0.625	-0.854
Mof_H 	H 	0.806	0.25	0.625	0.288
Mof_O 	O 	0.2483	0.75	0.125	-0.861
Mof_H 	H 	0.306	0.75	0.125	0.283
Mof_O 	O 	0.7517	0.25	0.125	-0.861
Mof_H 	H 	0.694	0.25	0.125	0.282
Mof_O 	O 	0.2517	0.75	0.625	-0.854
Mof_H 	H 	0.194	0.75	0.625	0.288
Mof_O 	O 	0.75	0.2483	0.875	-0.838
Mof_H 	H 	0.75	0.306	0.875	0.293
Mof_O 	O 	0.25	0.7483	0.375	-0.854
Mof_H 	H 	0.25	0.806	0.375	0.289
Mof_O 	O 	0.75	0.2517	0.375	-0.854
Mof_H 	H 	0.75	0.194	0.375	0.288
Mof_O 	O 	0.25	0.7517	0.875	-0.837
Mof_H 	H 	0.25	0.694	0.875	0.292
Mof_C 	C 	0.5	0.5	0.70384	0.034
Mof_C 	C 	0.5	0.5	0.93588	0.097
Mof_H 	H 	0.5	0.5	0.6267	0.06
Mof_C 	C 	-5.34691e-34	0	0.20384	0.017
Mof_C 	C 	-3.27203e-33	0	0.43588	-0.028
Mof_H 	H 	-7.65058e-34	0	0.1267	0.043
Mof_C 	C 	0.5	0	0.95384	0.388
Mof_C 	C 	0.5	0	0.18588	-0.133
Mof_H 	H 	0.5	-9.14743e-33	0.8767	-0.058
Mof_C 	C 	-3.21839e-33	0.5	0.45384	0.056
Mof_C 	C 	-7.09915e-33	0.5	0.68588	-0.049
Mof_H 	H 	1.12496e-33	0.5	0.3767	0.043
Mof_C 	C 	-4.33865e-34	0.5	0.04616	-0.327
Mof_C 	C 	-1.58636e-32	0.5	0.81412	0.116
Mof_H 	H 	-3.06207e-33	0.5	0.1233	0.169
Mof_C 	C 	0.5	0	0.54616	0.006
Mof_C 	C 	0.5	-2.28686e-33	0.31412	0.03
Mof_H 	H 	0.5	0	0.6233	0.067
Mof_C 	C 	-2.1961e-33	4.57372e-33	0.79616	-0.003
Mof_C 	C 	1.68466e-33	0	0.56412	-0.018
Mof_H 	H 	2.60798e-33	0	0.8733	0.075
Mof_C 	C 	0.5	0.5	0.29616	0.074
Mof_C 	C 	0.5	0.5	0.06412	-0.09
Mof_H 	H 	0.5	0.5	0.3733	0.045
_end
