data_functionalizedCrystal
_audit_creation_method	'EQeq! by Chris Wilmer'
_symmetry_space_group_name_H-M	'P1'
_symmetry_Int_Tables_number	1
_symmetry_cell_setting	triclinic
loop_
_symmetry_equiv_pos_as_xyz
  x,y,z
_cell_length_a	14.516
_cell_length_b	14.516
_cell_length_c	15.279
_cell_angle_alpha	90
_cell_angle_beta	90
_cell_angle_gamma	120
loop_
_atom_site_label
_atom_site_type_symbol
_atom_site_fract_x
_atom_site_fract_y
_atom_site_fract_z
_atom_site_charge
Mof_Er	Er	0.66667	0.33334	0.75	2.088
Mof_Er	Er	0.33333	0.66666	0.75	2.088
Mof_Er	Er	0.33333	0.66666	0.25	2.074
Mof_Er	Er	0.66667	0.33334	0.25	2.074
Mof_Cu	Cu	0.5	0.5	0.5	0.952
Mof_Cu	Cu	-2.36762e-17	0.5	0.5	0.916
Mof_Cu	Cu	0.5	0	0.5	0.916
Mof_Cu	Cu	-0	0.5	-0	0.857
Mof_Cu	Cu	0.5	0.5	-0	0.892
Mof_Cu	Cu	0.5	0	-0	0.857
Mof_C 	C 	0.7371	0.5887	0.6943	0.066
Mof_C 	C 	0.6459	0.5137	0.6381	0.364
Mof_C 	C 	0.8516	0.2629	0.6943	0.054
Mof_C 	C 	0.8678	0.3541	0.6381	0.362
Mof_C 	C 	0.4113	0.1484	0.6943	0.008
Mof_C 	C 	0.4863	0.1322	0.6381	0.373
Mof_C 	C 	0.2629	0.4113	0.6943	0.019
Mof_C 	C 	0.3541	0.4863	0.6381	0.371
Mof_C 	C 	0.1484	0.7371	0.6943	0.031
Mof_C 	C 	0.1322	0.6459	0.6381	0.37
Mof_C 	C 	0.5887	0.8516	0.6943	0.077
Mof_C 	C 	0.5137	0.8678	0.6381	0.359
Mof_C 	C 	0.1484	0.4113	0.8057	0.025
Mof_C 	C 	0.1322	0.4863	0.8619	0.365
Mof_C 	C 	0.5887	0.7371	0.8057	0.082
Mof_C 	C 	0.5137	0.6459	0.8619	0.357
Mof_C 	C 	0.2629	0.8516	0.8057	0.071
Mof_C 	C 	0.3541	0.8678	0.8619	0.355
Mof_C 	C 	0.8516	0.5887	0.8057	0.094
Mof_C 	C 	0.8678	0.5137	0.8619	0.352
Mof_C 	C 	0.4113	0.2629	0.8057	0.036
Mof_C 	C 	0.4863	0.3541	0.8619	0.364
Mof_C 	C 	0.7371	0.1484	0.8057	0.048
Mof_C 	C 	0.6459	0.1322	0.8619	0.362
Mof_C 	C 	0.2629	0.4113	0.3057	0.007
Mof_C 	C 	0.3541	0.4863	0.3619	0.374
Mof_C 	C 	0.1484	0.7371	0.3057	0.019
Mof_C 	C 	0.1322	0.6459	0.3619	0.372
Mof_C 	C 	0.5887	0.8516	0.3057	0.066
Mof_C 	C 	0.5137	0.8678	0.3619	0.361
Mof_C 	C 	0.7371	0.5887	0.3057	0.054
Mof_C 	C 	0.6459	0.5137	0.3619	0.367
Mof_C 	C 	0.8516	0.2629	0.3057	0.043
Mof_C 	C 	0.8678	0.3541	0.3619	0.365
Mof_C 	C 	0.4113	0.1484	0.3057	-0.004
Mof_C 	C 	0.4863	0.1322	0.3619	0.375
Mof_C 	C 	0.8516	0.5887	0.1943	0.052
Mof_C 	C 	0.8678	0.5137	0.1381	0.362
Mof_C 	C 	0.4113	0.2629	0.1943	-0.008
Mof_C 	C 	0.4863	0.3541	0.1381	0.375
Mof_C 	C 	0.7371	0.1484	0.1943	0.005
Mof_C 	C 	0.6459	0.1322	0.1381	0.373
Mof_C 	C 	0.1484	0.4113	0.1943	-0.019
Mof_C 	C 	0.1322	0.4863	0.1381	0.376
Mof_C 	C 	0.5887	0.7371	0.1943	0.04
Mof_C 	C 	0.5137	0.6459	0.1381	0.368
Mof_C 	C 	0.2629	0.8516	0.1943	0.029
Mof_C 	C 	0.3541	0.8678	0.1381	0.366
Mof_O 	O 	0.6125	0.4156	0.6447	-0.441
Mof_O 	O 	0.6109	0.5569	0.5886	-0.373
Mof_O 	O 	0.8031	0.3875	0.6447	-0.43
Mof_O 	O 	0.946	0.3891	0.5886	-0.341
Mof_O 	O 	0.5844	0.1969	0.6447	-0.454
Mof_O 	O 	0.4431	0.054	0.5886	-0.414
Mof_O 	O 	0.3875	0.5844	0.6447	-0.444
Mof_O 	O 	0.3891	0.4431	0.5886	-0.389
Mof_O 	O 	0.1969	0.6125	0.6447	-0.452
Mof_O 	O 	0.054	0.6109	0.5886	-0.406
Mof_O 	O 	0.4156	0.8031	0.6447	-0.429
Mof_O 	O 	0.5569	0.946	0.5886	-0.333
Mof_O 	O 	0.1969	0.5844	0.8553	-0.427
Mof_O 	O 	0.054	0.4431	0.9114	-0.352
Mof_O 	O 	0.4156	0.6125	0.8553	-0.414
Mof_O 	O 	0.5569	0.6109	0.9114	-0.312
Mof_O 	O 	0.3875	0.8031	0.8553	-0.404
Mof_O 	O 	0.3891	0.946	0.9114	-0.282
Mof_O 	O 	0.8031	0.4156	0.8553	-0.402
Mof_O 	O 	0.946	0.5569	0.9114	-0.274
Mof_O 	O 	0.5844	0.3875	0.8553	-0.418
Mof_O 	O 	0.4431	0.3891	0.9114	-0.327
Mof_O 	O 	0.6125	0.1969	0.8553	-0.425
Mof_O 	O 	0.6109	0.054	0.9114	-0.345
Mof_O 	O 	0.3875	0.5844	0.3553	-0.443
Mof_O 	O 	0.3891	0.4431	0.4114	-0.39
Mof_O 	O 	0.1969	0.6125	0.3553	-0.451
Mof_O 	O 	0.054	0.6109	0.4114	-0.408
Mof_O 	O 	0.4156	0.8031	0.3553	-0.427
Mof_O 	O 	0.5569	0.946	0.4114	-0.334
Mof_O 	O 	0.6125	0.4156	0.3553	-0.44
Mof_O 	O 	0.6109	0.5569	0.4114	-0.374
Mof_O 	O 	0.8031	0.3875	0.3553	-0.429
Mof_O 	O 	0.946	0.3891	0.4114	-0.342
Mof_O 	O 	0.5844	0.1969	0.3553	-0.453
Mof_O 	O 	0.4431	0.054	0.4114	-0.415
Mof_O 	O 	0.8031	0.4156	0.1447	-0.447
Mof_O 	O 	0.946	0.5569	0.0886	-0.369
Mof_O 	O 	0.5844	0.3875	0.1447	-0.463
Mof_O 	O 	0.4431	0.3891	0.0886	-0.426
Mof_O 	O 	0.6125	0.1969	0.1447	-0.471
Mof_O 	O 	0.6109	0.054	0.0886	-0.443
Mof_O 	O 	0.1969	0.5844	0.1447	-0.472
Mof_O 	O 	0.054	0.4431	0.0886	-0.451
Mof_O 	O 	0.4156	0.6125	0.1447	-0.46
Mof_O 	O 	0.5569	0.6109	0.0886	-0.41
Mof_O 	O 	0.3875	0.8031	0.1447	-0.449
Mof_O 	O 	0.3891	0.946	0.0886	-0.377
Mof_O 	O 	0.7628	0.5256	0.75	-0.337
Mof_O 	O 	0.7628	0.2372	0.75	-0.333
Mof_O 	O 	0.4744	0.2372	0.75	-0.329
Mof_O 	O 	0.2372	0.4744	0.75	-0.329
Mof_O 	O 	0.2372	0.7628	0.75	-0.333
Mof_O 	O 	0.5256	0.7628	0.75	-0.337
Mof_O 	O 	0.2372	0.4744	0.25	-0.324
Mof_O 	O 	0.2372	0.7628	0.25	-0.328
Mof_O 	O 	0.5256	0.7628	0.25	-0.331
Mof_O 	O 	0.7628	0.5256	0.25	-0.332
Mof_O 	O 	0.7628	0.2372	0.25	-0.328
Mof_O 	O 	0.4744	0.2372	0.25	-0.324
_end
