data_functionalizedCrystal
_audit_creation_method	'EQeq! by Chris Wilmer'
_symmetry_space_group_name_H-M	'P1'
_symmetry_Int_Tables_number	1
_symmetry_cell_setting	triclinic
loop_
_symmetry_equiv_pos_as_xyz
  x,y,z
_cell_length_a	15.8189
_cell_length_b	15.8189
_cell_length_c	15.8189
_cell_angle_alpha	100.845
_cell_angle_beta	113.949
_cell_angle_gamma	113.949
loop_
_atom_site_label
_atom_site_type_symbol
_atom_site_fract_x
_atom_site_fract_y
_atom_site_fract_z
_atom_site_charge
Mof_Co	Co	0.49315	0.59117	0.0228	1.12
Mof_Co	Co	0.00685	0.02965	0.09802	1.118
Mof_Co	Co	0.43163	0.0228	0.02965	1.119
Mof_Co	Co	0.06837	0.09802	0.59117	1.119
Mof_Co	Co	0.50685	0.40883	0.9772	1.119
Mof_Co	Co	0.99315	0.97035	0.90198	1.117
Mof_Co	Co	0.56837	0.9772	0.97035	1.118
Mof_Co	Co	0.93163	0.90198	0.40883	1.118
Mof_H 	H 	0.5852	0.7858	0.9972	-0.026
Mof_H 	H 	0.5245	0.5213	0.7318	0.116
Mof_H 	H 	0.6449	0.554	0.8075	0.11
Mof_H 	H 	0.6452	0.6835	0.7597	0.082
Mof_H 	H 	0.6933	0.7221	0.8772	0.088
Mof_H 	H 	0.5725	0.6894	0.8017	0.097
Mof_H 	H 	0.3019	0.8888	0.1079	-0.011
Mof_H 	H 	0.2922	0.6229	0.1485	0.152
Mof_H 	H 	0.3648	0.6057	0.1203	0.156
Mof_H 	H 	0.9148	0.912	0.2006	-0.023
Mof_H 	H 	0.9755	0.7073	0.9968	0.116
Mof_H 	H 	0.8551	0.6626	0.9091	0.111
Mof_H 	H 	0.8548	0.6145	0.0383	0.081
Mof_H 	H 	0.8067	0.6839	0.0288	0.087
Mof_H 	H 	0.9275	0.7292	0.1169	0.095
Mof_H 	H 	0.1981	0.306	0.5869	-0.012
Mof_H 	H 	0.2078	0.3563	0.3307	0.152
Mof_H 	H 	0.1352	0.2555	0.2409	0.156
Mof_H 	H 	0.2114	0.9972	0.912	-0.026
Mof_H 	H 	0.2105	0.7318	0.7073	0.114
Mof_H 	H 	0.2535	0.8075	0.6626	0.109
Mof_H 	H 	0.0762	0.7597	0.6145	0.085
Mof_H 	H 	0.1551	0.8772	0.6839	0.092
Mof_H 	H 	0.1123	0.8017	0.7292	0.1
Mof_H 	H 	0.2191	0.1079	0.306	-0.012
Mof_H 	H 	0.5256	0.1485	0.3563	0.153
Mof_H 	H 	0.5146	0.1203	0.2555	0.156
Mof_H 	H 	0.2886	0.2006	0.7858	-0.023
Mof_H 	H 	0.2895	0.9968	0.5213	0.116
Mof_H 	H 	0.2465	0.9091	0.554	0.11
Mof_H 	H 	0.4238	0.0383	0.6835	0.084
Mof_H 	H 	0.3449	0.0288	0.7221	0.09
Mof_H 	H 	0.3877	0.1169	0.6894	0.098
Mof_H 	H 	0.2809	0.5869	0.8888	-0.012
Mof_H 	H 	0.9744	0.3307	0.6229	0.153
Mof_H 	H 	0.9854	0.2409	0.6057	0.157
Mof_H 	H 	0.4148	0.2142	0.0028	-0.026
Mof_H 	H 	0.4755	0.4787	0.2682	0.116
Mof_H 	H 	0.3551	0.446	0.1925	0.11
Mof_H 	H 	0.3548	0.3165	0.2403	0.082
Mof_H 	H 	0.3067	0.2779	0.1228	0.088
Mof_H 	H 	0.4275	0.3106	0.1983	0.097
Mof_H 	H 	0.6981	0.1112	0.8921	-0.011
Mof_H 	H 	0.7078	0.3771	0.8515	0.152
Mof_H 	H 	0.6352	0.3943	0.8797	0.156
Mof_H 	H 	0.0852	0.088	0.7994	-0.023
Mof_H 	H 	0.0245	0.2927	0.0032	0.116
Mof_H 	H 	0.1449	0.3374	0.0909	0.111
Mof_H 	H 	0.1452	0.3855	0.9617	0.081
Mof_H 	H 	0.1933	0.3161	0.9712	0.087
Mof_H 	H 	0.0725	0.2708	0.8831	0.095
Mof_H 	H 	0.8019	0.694	0.4131	-0.012
Mof_H 	H 	0.7922	0.6437	0.6693	0.152
Mof_H 	H 	0.8648	0.7445	0.7591	0.156
Mof_H 	H 	0.7886	0.0028	0.088	-0.026
Mof_H 	H 	0.7895	0.2682	0.2927	0.114
Mof_H 	H 	0.7465	0.1925	0.3374	0.109
Mof_H 	H 	0.9238	0.2403	0.3855	0.085
Mof_H 	H 	0.8449	0.1228	0.3161	0.092
Mof_H 	H 	0.8877	0.1983	0.2708	0.1
Mof_H 	H 	0.7809	0.8921	0.694	-0.012
Mof_H 	H 	0.4744	0.8515	0.6437	0.153
Mof_H 	H 	0.4854	0.8797	0.7445	0.156
Mof_H 	H 	0.7114	0.7994	0.2142	-0.023
Mof_H 	H 	0.7105	0.0032	0.4787	0.116
Mof_H 	H 	0.7535	0.0909	0.446	0.11
Mof_H 	H 	0.5762	0.9617	0.3165	0.084
Mof_H 	H 	0.6551	0.9712	0.2779	0.09
Mof_H 	H 	0.6123	0.8831	0.3106	0.098
Mof_H 	H 	0.7191	0.4131	0.1112	-0.012
Mof_H 	H 	0.0256	0.6693	0.3771	0.153
Mof_H 	H 	0.0146	0.7591	0.3943	0.157
Mof_C 	C 	0.53945	0.79004	0.01827	0.097
Mof_C 	C 	0.43175	0.75727	0.07202	-0.046
Mof_C 	C 	0.36086	0.72226	0.1066	0.145
Mof_C 	C 	0.55848	0.54337	0.87497	0.426
Mof_C 	C 	0.58829	0.56751	0.80022	-0.287
Mof_C 	C 	0.6284	0.6754	0.8106	-0.198
Mof_C 	C 	0.44964	0.84354	0.0544	0.104
Mof_C 	C 	0.33712	0.85621	0.09907	0.107
Mof_C 	C 	0.96055	0.97882	0.25059	0.093
Mof_C 	C 	0.06825	0.14027	0.32552	-0.046
Mof_C 	C 	0.13914	0.24574	0.3614	0.144
Mof_C 	C 	0.94152	0.81649	0.98489	0.42
Mof_C 	C 	0.91171	0.71193	0.97922	-0.292
Mof_C 	C 	0.8716	0.6822	0.047	-0.188
Mof_C 	C 	0.05036	0.10476	0.3939	0.099
Mof_C 	C 	0.16288	0.26195	0.51909	0.106
Mof_C 	C 	0.22823	0.01827	0.97882	0.105
Mof_C 	C 	0.31475	0.07202	0.14027	-0.047
Mof_C 	C 	0.38434	0.1066	0.24574	0.145
Mof_C 	C 	0.3316	0.87497	0.81649	0.425
Mof_C 	C 	0.23271	0.80022	0.71193	-0.283
Mof_C 	C 	0.1352	0.8106	0.6822	-0.206
Mof_C 	C 	0.21086	0.0544	0.10476	0.102
Mof_C 	C 	0.24286	0.09907	0.26195	0.106
Mof_C 	C 	0.27177	0.25059	0.79004	0.092
Mof_C 	C 	0.18525	0.32552	0.75727	-0.046
Mof_C 	C 	0.11566	0.3614	0.72226	0.146
Mof_C 	C 	0.1684	0.98489	0.54337	0.429
Mof_C 	C 	0.26729	0.97922	0.56751	-0.286
Mof_C 	C 	0.3648	0.047	0.6754	-0.202
Mof_C 	C 	0.28914	0.3939	0.84354	0.104
Mof_C 	C 	0.25714	0.51909	0.85621	0.107
Mof_C 	C 	0.46055	0.20996	0.98173	0.097
Mof_C 	C 	0.56825	0.24273	0.92798	-0.046
Mof_C 	C 	0.63914	0.27774	0.8934	0.145
Mof_C 	C 	0.44152	0.45663	0.12503	0.426
Mof_C 	C 	0.41171	0.43249	0.19978	-0.287
Mof_C 	C 	0.3716	0.3246	0.1894	-0.198
Mof_C 	C 	0.55036	0.15646	0.9456	0.104
Mof_C 	C 	0.66288	0.14379	0.90093	0.107
Mof_C 	C 	0.03945	0.02118	0.74941	0.093
Mof_C 	C 	0.93175	0.85973	0.67448	-0.046
Mof_C 	C 	0.86086	0.75426	0.6386	0.144
Mof_C 	C 	0.05848	0.18351	0.01511	0.42
Mof_C 	C 	0.08829	0.28807	0.02078	-0.292
Mof_C 	C 	0.1284	0.3178	0.953	-0.188
Mof_C 	C 	0.94964	0.89524	0.6061	0.099
Mof_C 	C 	0.83712	0.73805	0.48091	0.106
Mof_C 	C 	0.77177	0.98173	0.02118	0.105
Mof_C 	C 	0.68525	0.92798	0.85973	-0.047
Mof_C 	C 	0.61566	0.8934	0.75426	0.145
Mof_C 	C 	0.6684	0.12503	0.18351	0.425
Mof_C 	C 	0.76729	0.19978	0.28807	-0.283
Mof_C 	C 	0.8648	0.1894	0.3178	-0.206
Mof_C 	C 	0.78914	0.9456	0.89524	0.102
Mof_C 	C 	0.75714	0.90093	0.73805	0.106
Mof_C 	C 	0.72823	0.74941	0.20996	0.092
Mof_C 	C 	0.81475	0.67448	0.24273	-0.046
Mof_C 	C 	0.88434	0.6386	0.27774	0.146
Mof_C 	C 	0.8316	0.01511	0.45663	0.429
Mof_C 	C 	0.73271	0.02078	0.43249	-0.286
Mof_C 	C 	0.6352	0.953	0.3246	-0.202
Mof_C 	C 	0.71086	0.6061	0.15646	0.104
Mof_C 	C 	0.74286	0.48091	0.14379	0.107
Mof_N 	N 	0.49048	0.7223	0.0479	-0.234
Mof_N 	N 	0.33635	0.64055	0.12762	-0.322
Mof_N 	N 	0.31418	0.77498	0.11926	-0.156
Mof_N 	N 	0.51901	0.86503	0.02044	-0.27
Mof_N 	N 	0.4038	0.89723	0.06783	-0.264
Mof_N 	N 	0.00952	0.05742	0.23182	-0.236
Mof_N 	N 	0.16365	0.29127	0.3042	-0.322
Mof_N 	N 	0.18582	0.30508	0.4608	-0.156
Mof_N 	N 	0.98099	0.00143	0.34602	-0.266
Mof_N 	N 	0.0962	0.16403	0.49343	-0.264
Mof_N 	N 	0.3256	0.0479	0.05742	-0.238
Mof_N 	N 	0.48707	0.12762	0.29127	-0.322
Mof_N 	N 	0.34428	0.11926	0.30508	-0.157
Mof_N 	N 	0.15541	0.02044	0.00143	-0.275
Mof_N 	N 	0.1706	0.06783	0.16403	-0.265
Mof_N 	N 	0.1744	0.23182	0.7223	-0.233
Mof_N 	N 	0.01293	0.3042	0.64055	-0.323
Mof_N 	N 	0.15572	0.4608	0.77498	-0.156
Mof_N 	N 	0.34459	0.34602	0.86503	-0.27
Mof_N 	N 	0.3294	0.49343	0.89723	-0.265
Mof_N 	N 	0.50952	0.2777	0.9521	-0.234
Mof_N 	N 	0.66365	0.35945	0.87238	-0.322
Mof_N 	N 	0.68582	0.22502	0.88074	-0.156
Mof_N 	N 	0.48099	0.13497	0.97956	-0.27
Mof_N 	N 	0.5962	0.10277	0.93217	-0.264
Mof_N 	N 	0.99048	0.94258	0.76818	-0.236
Mof_N 	N 	0.83635	0.70873	0.6958	-0.322
Mof_N 	N 	0.81418	0.69492	0.5392	-0.156
Mof_N 	N 	0.01901	0.99857	0.65398	-0.266
Mof_N 	N 	0.9038	0.83597	0.50657	-0.264
Mof_N 	N 	0.6744	0.9521	0.94258	-0.238
Mof_N 	N 	0.51293	0.87238	0.70873	-0.322
Mof_N 	N 	0.65572	0.88074	0.69492	-0.157
Mof_N 	N 	0.84459	0.97956	0.99857	-0.275
Mof_N 	N 	0.8294	0.93217	0.83597	-0.265
Mof_N 	N 	0.8256	0.76818	0.2777	-0.233
Mof_N 	N 	0.98707	0.6958	0.35945	-0.323
Mof_N 	N 	0.84428	0.5392	0.22502	-0.156
Mof_N 	N 	0.65541	0.65398	0.13497	-0.27
Mof_N 	N 	0.6706	0.50657	0.10277	-0.265
Mof_O 	O 	0.53633	0.59896	0.91719	-0.484
Mof_O 	O 	0.55528	0.46655	0.88933	-0.5
Mof_O 	O 	0.96367	0.88086	0.06263	-0.476
Mof_O 	O 	0.94472	0.83405	0.91127	-0.499
Mof_O 	O 	0.31823	0.91719	0.88086	-0.483
Mof_O 	O 	0.42278	0.88933	0.83405	-0.499
Mof_O 	O 	0.18177	0.06263	0.59896	-0.486
Mof_O 	O 	0.07722	0.91127	0.46655	-0.499
Mof_O 	O 	0.46367	0.40104	0.08281	-0.484
Mof_O 	O 	0.44472	0.53345	0.11067	-0.5
Mof_O 	O 	0.03633	0.11914	0.93737	-0.476
Mof_O 	O 	0.05528	0.16595	0.08873	-0.499
Mof_O 	O 	0.68177	0.08281	0.11914	-0.483
Mof_O 	O 	0.57722	0.11067	0.16595	-0.499
Mof_O 	O 	0.81823	0.93737	0.40104	-0.486
Mof_O 	O 	0.92278	0.08873	0.53345	-0.499
_end
