data_functionalizedCrystal
_audit_creation_method	'EQeq! by Chris Wilmer'
_symmetry_space_group_name_H-M	'P1'
_symmetry_Int_Tables_number	1
_symmetry_cell_setting	triclinic
loop_
_symmetry_equiv_pos_as_xyz
  x,y,z
_cell_length_a	8.3343
_cell_length_b	11.753
_cell_length_c	8.9111
_cell_angle_alpha	90
_cell_angle_beta	90
_cell_angle_gamma	90
loop_
_atom_site_label
_atom_site_type_symbol
_atom_site_fract_x
_atom_site_fract_y
_atom_site_fract_z
_atom_site_charge
Mof_O 	O 	0.25671	0.40566	0.36555	-0.394
Mof_O 	O 	0.40688	0.18273	0.41332	-0.409
Mof_O 	O 	0.5646	0.19227	0.6119	-0.39
Mof_C 	C 	0.5234	0.22225	0.4835	0.486
Mof_H 	H 	0.5841	0.2783	0.4366	-0.109
Mof_O 	O 	0.24329	0.59434	0.36555	-0.393
Mof_O 	O 	0.09312	0.81727	0.41332	-0.381
Mof_O 	O 	0.9354	0.80773	0.6119	-0.368
Mof_C 	C 	0.9766	0.77775	0.4835	0.478
Mof_H 	H 	0.9159	0.7217	0.4366	-0.104
Mof_O 	O 	0.24329	0.90566	0.13445	-0.323
Mof_O 	O 	0.09312	0.68273	0.08668	-0.387
Mof_O 	O 	0.9354	0.69227	0.8881	-0.371
Mof_C 	C 	0.9766	0.72225	0.0165	0.462
Mof_H 	H 	0.9159	0.7783	0.0634	-0.097
Mof_O 	O 	0.25671	0.09434	0.13445	-0.376
Mof_O 	O 	0.40688	0.31727	0.08668	-0.401
Mof_O 	O 	0.5646	0.30773	0.8881	-0.385
Mof_C 	C 	0.5234	0.27775	0.0165	0.486
Mof_H 	H 	0.5841	0.2217	0.0634	-0.114
Mof_O 	O 	0.74329	0.59434	0.63445	-0.393
Mof_O 	O 	0.59312	0.81727	0.58668	-0.385
Mof_O 	O 	0.4354	0.80773	0.3881	-0.369
Mof_C 	C 	0.4766	0.77775	0.5165	0.484
Mof_H 	H 	0.4159	0.7217	0.5634	-0.105
Mof_O 	O 	0.75671	0.40566	0.63445	-0.393
Mof_O 	O 	0.90688	0.18273	0.58668	-0.405
Mof_O 	O 	0.0646	0.19227	0.3881	-0.389
Mof_C 	C 	0.0234	0.22225	0.5165	0.482
Mof_H 	H 	0.0841	0.2783	0.5634	-0.108
Mof_O 	O 	0.75671	0.09434	0.86555	-0.376
Mof_O 	O 	0.90688	0.31727	0.91332	-0.392
Mof_O 	O 	0.0646	0.30773	0.1119	-0.376
Mof_C 	C 	0.0234	0.27775	0.9835	0.466
Mof_H 	H 	0.0841	0.2217	0.9366	-0.108
Mof_O 	O 	0.74329	0.90566	0.86555	-0.326
Mof_O 	O 	0.59312	0.68273	0.91332	-0.397
Mof_O 	O 	0.4354	0.69227	0.1119	-0.38
Mof_C 	C 	0.4766	0.72225	0.9835	0.484
Mof_H 	H 	0.4159	0.7783	0.9366	-0.102
Mof_Co	Co	0.25371	0.25	0.25	1.214
Mof_Co	Co	0.24629	0.75	0.25	1.216
Mof_Co	Co	0.74629	0.75	0.75	1.216
Mof_Co	Co	0.75371	0.25	0.75	1.214
Mof_C 	C 	0.25	0.5	0.303	0.476
Mof_H 	H 	0.25	0.5	0.1986	-0.101
Mof_C 	C 	0.25	0	0.197	0.367
Mof_H 	H 	0.25	0	0.3014	-0.085
Mof_C 	C 	0.75	0.5	0.697	0.476
Mof_H 	H 	0.75	0.5	0.8014	-0.101
Mof_C 	C 	0.75	0	0.803	0.372
Mof_H 	H 	0.75	-3.61502e-33	0.6986	-0.086
_end
