data_functionalizedCrystal
_audit_creation_method	'EQeq! by Chris Wilmer'
_symmetry_space_group_name_H-M	'P1'
_symmetry_Int_Tables_number	1
_symmetry_cell_setting	triclinic
loop_
_symmetry_equiv_pos_as_xyz
  x,y,z
_cell_length_a	21.902
_cell_length_b	7.3471
_cell_length_c	14.142
_cell_angle_alpha	90
_cell_angle_beta	90
_cell_angle_gamma	90
loop_
_atom_site_label
_atom_site_type_symbol
_atom_site_fract_x
_atom_site_fract_y
_atom_site_fract_z
_atom_site_charge
Mof_N 	N 	0.4355	0.1555	0.4389	-0.186
Mof_C 	C 	0.388	0.1027	0.39	0.035
Mof_H 	H 	0.3771	0.9821	0.3792	0.048
Mof_C 	C 	0.3007	0.147	0.22	-0.058
Mof_H 	H 	0.3305	0.0537	0.2087	0.04
Mof_C 	C 	0.2463	0.143	0.1669	-0.063
Mof_H 	H 	0.2423	0.0704	0.1108	0.025
Mof_N 	N 	0.9355	0.6555	0.9389	-0.159
Mof_C 	C 	0.888	0.6027	0.89	0.119
Mof_H 	H 	0.8771	0.4821	0.8792	0.009
Mof_C 	C 	0.8007	0.647	0.72	-0.056
Mof_H 	H 	0.8305	0.5537	0.7087	0.061
Mof_C 	C 	0.7463	0.643	0.6669	-0.063
Mof_H 	H 	0.7423	0.5704	0.6108	0.054
Mof_N 	N 	0.5645	0.3445	0.4389	-0.194
Mof_C 	C 	0.612	0.3973	0.39	0.103
Mof_H 	H 	0.6229	0.5179	0.3792	-0.002
Mof_C 	C 	0.6993	0.353	0.22	-0.06
Mof_H 	H 	0.6695	0.4463	0.2087	0.052
Mof_C 	C 	0.7537	0.357	0.1669	-0.057
Mof_H 	H 	0.7577	0.4296	0.1108	0.035
Mof_N 	N 	0.0645	0.8445	0.9389	-0.174
Mof_C 	C 	0.112	0.8973	0.89	0.181
Mof_H 	H 	0.1229	0.0179	0.8792	-0.041
Mof_C 	C 	0.1993	0.853	0.72	-0.059
Mof_H 	H 	0.1695	0.9463	0.7087	0.067
Mof_C 	C 	0.2537	0.857	0.6669	-0.058
Mof_H 	H 	0.2577	0.9296	0.6108	0.061
Mof_N 	N 	0.5645	0.6555	0.5611	-0.192
Mof_C 	C 	0.612	0.6027	0.61	0.109
Mof_H 	H 	0.6229	0.4821	0.6208	-0.003
Mof_C 	C 	0.6993	0.647	0.78	-0.048
Mof_H 	H 	0.6695	0.5537	0.7913	0.062
Mof_C 	C 	0.7537	0.643	0.8331	-0.069
Mof_H 	H 	0.7577	0.5704	0.8892	0.071
Mof_N 	N 	0.0645	0.1555	0.0611	-0.201
Mof_C 	C 	0.112	0.1027	0.11	0.023
Mof_H 	H 	0.1229	0.9821	0.1208	0.041
Mof_C 	C 	0.1993	0.147	0.28	-0.05
Mof_H 	H 	0.1695	0.0537	0.2913	0.043
Mof_C 	C 	0.2537	0.143	0.3331	-0.068
Mof_H 	H 	0.2577	0.0704	0.3892	0.043
Mof_N 	N 	0.4355	0.8445	0.5611	-0.195
Mof_C 	C 	0.388	0.8973	0.61	0.176
Mof_H 	H 	0.3771	0.0179	0.6208	-0.051
Mof_C 	C 	0.3007	0.853	0.78	-0.05
Mof_H 	H 	0.3305	0.9463	0.7913	0.074
Mof_C 	C 	0.2463	0.857	0.8331	-0.062
Mof_H 	H 	0.2423	0.9296	0.8892	0.08
Mof_N 	N 	0.9355	0.3445	0.0611	-0.193
Mof_C 	C 	0.888	0.3973	0.11	0.097
Mof_H 	H 	0.8771	0.5179	0.1208	-0.004
Mof_C 	C 	0.8007	0.353	0.28	-0.053
Mof_H 	H 	0.8305	0.4463	0.2913	0.062
Mof_C 	C 	0.7463	0.357	0.3331	-0.06
Mof_H 	H 	0.7423	0.4296	0.3892	0.053
Mof_N 	N 	0.5645	0.8445	0.5611	-0.195
Mof_C 	C 	0.612	0.8973	0.61	0.175
Mof_H 	H 	0.6229	0.0179	0.6208	-0.05
Mof_C 	C 	0.6993	0.853	0.78	-0.05
Mof_H 	H 	0.6695	0.9463	0.7913	0.074
Mof_C 	C 	0.7537	0.857	0.8331	-0.063
Mof_H 	H 	0.7577	0.9296	0.8892	0.079
Mof_N 	N 	0.0645	0.3445	0.0611	-0.209
Mof_C 	C 	0.112	0.3973	0.11	0.092
Mof_H 	H 	0.1229	0.5179	0.1208	-0.009
Mof_C 	C 	0.1993	0.353	0.28	-0.053
Mof_H 	H 	0.1695	0.4463	0.2913	0.056
Mof_C 	C 	0.2537	0.357	0.3331	-0.061
Mof_H 	H 	0.2577	0.4296	0.3892	0.052
Mof_N 	N 	0.4355	0.6555	0.5611	-0.192
Mof_C 	C 	0.388	0.6027	0.61	0.109
Mof_H 	H 	0.3771	0.4821	0.6208	-0.004
Mof_C 	C 	0.3007	0.647	0.78	-0.048
Mof_H 	H 	0.3305	0.5537	0.7913	0.062
Mof_C 	C 	0.2463	0.643	0.8331	-0.069
Mof_H 	H 	0.2423	0.5704	0.8892	0.072
Mof_N 	N 	0.9355	0.1555	0.0611	-0.186
Mof_C 	C 	0.888	0.1027	0.11	0.03
Mof_H 	H 	0.8771	0.9821	0.1208	0.044
Mof_C 	C 	0.8007	0.147	0.28	-0.051
Mof_H 	H 	0.8305	0.0537	0.2913	0.05
Mof_C 	C 	0.7463	0.143	0.3331	-0.067
Mof_H 	H 	0.7423	0.0704	0.3892	0.045
Mof_N 	N 	0.4355	0.3445	0.4389	-0.194
Mof_C 	C 	0.388	0.3973	0.39	0.102
Mof_H 	H 	0.3771	0.5179	0.3792	-0.002
Mof_C 	C 	0.3007	0.353	0.22	-0.061
Mof_H 	H 	0.3305	0.4463	0.2087	0.052
Mof_C 	C 	0.2463	0.357	0.1669	-0.056
Mof_H 	H 	0.2423	0.4296	0.1108	0.034
Mof_N 	N 	0.9355	0.8445	0.9389	-0.162
Mof_C 	C 	0.888	0.8973	0.89	0.183
Mof_H 	H 	0.8771	0.0179	0.8792	-0.036
Mof_C 	C 	0.8007	0.853	0.72	-0.058
Mof_H 	H 	0.8305	0.9463	0.7087	0.073
Mof_C 	C 	0.7463	0.857	0.6669	-0.057
Mof_H 	H 	0.7423	0.9296	0.6108	0.062
Mof_N 	N 	0.5645	0.1555	0.4389	-0.187
Mof_C 	C 	0.612	0.1027	0.39	0.034
Mof_H 	H 	0.6229	0.9821	0.3792	0.046
Mof_C 	C 	0.6993	0.147	0.22	-0.058
Mof_H 	H 	0.6695	0.0537	0.2087	0.04
Mof_C 	C 	0.7537	0.143	0.1669	-0.064
Mof_H 	H 	0.7577	0.0704	0.1108	0.027
Mof_N 	N 	0.0645	0.6555	0.9389	-0.171
Mof_C 	C 	0.112	0.6027	0.89	0.116
Mof_H 	H 	0.1229	0.4821	0.8792	0.005
Mof_C 	C 	0.1993	0.647	0.72	-0.057
Mof_H 	H 	0.1695	0.5537	0.7087	0.055
Mof_C 	C 	0.2537	0.643	0.6669	-0.064
Mof_H 	H 	0.2577	0.5704	0.6108	0.052
Mof_Br	Br	0.5	0.25	0.65104	-0.415
Mof_Br	Br	3.65663e-34	0.75	0.15104	-0.442
Mof_Br	Br	0.5	0.75	0.34896	-0.405
Mof_Br	Br	-3.49108e-33	0.25	0.84896	-0.413
Mof_Cu	Cu	0.5	0	0.5	0.867
Mof_Cu	Cu	-0	0.5	-0	0.836
Mof_Cu	Cu	0.5	0.5	0.5	0.883
Mof_Cu	Cu	-0	0	-0	0.82
Mof_N 	N 	0.3571	0.25	0.3572	-0.148
Mof_C 	C 	0.3022	0.25	0.3037	0.116
Mof_N 	N 	0.8571	0.75	0.8572	-0.167
Mof_C 	C 	0.8022	0.75	0.8037	0.133
Mof_N 	N 	0.6429	0.25	0.3572	-0.147
Mof_C 	C 	0.6978	0.25	0.3037	0.115
Mof_N 	N 	0.1429	0.75	0.8572	-0.168
Mof_C 	C 	0.1978	0.75	0.8037	0.131
Mof_N 	N 	0.6429	0.75	0.6428	-0.167
Mof_C 	C 	0.6978	0.75	0.6963	0.119
Mof_N 	N 	0.1429	0.25	0.1428	-0.146
Mof_C 	C 	0.1978	0.25	0.1963	0.103
Mof_N 	N 	0.3571	0.75	0.6428	-0.167
Mof_C 	C 	0.3022	0.75	0.6963	0.12
Mof_N 	N 	0.8571	0.25	0.1428	-0.146
Mof_C 	C 	0.8022	0.25	0.1963	0.106
_end
