data_functionalizedCrystal
_audit_creation_method	'EQeq! by Chris Wilmer'
_symmetry_space_group_name_H-M	'P1'
_symmetry_Int_Tables_number	1
_symmetry_cell_setting	triclinic
loop_
_symmetry_equiv_pos_as_xyz
  x,y,z
_cell_length_a	7.7967
_cell_length_b	13.6939
_cell_length_c	17.2311
_cell_angle_alpha	89.857
_cell_angle_beta	90
_cell_angle_gamma	90
loop_
_atom_site_label
_atom_site_type_symbol
_atom_site_fract_x
_atom_site_fract_y
_atom_site_fract_z
_atom_site_charge
Mof_Cu	Cu	0.7328	0.7531	0.752	0.84
Mof_Cu	Cu	0.2672	0.2469	0.248	0.82
Mof_Cu	Cu	0.2328	0.7469	0.748	0.828
Mof_Cu	Cu	0.5	0.5	-0	0.834
Mof_Cu	Cu	0.5	0.5	0.5	0.774
Mof_Cu	Cu	-0	0	-0	0.675
Mof_Cu	Cu	-1.33463e-32	2.41391e-19	0.5	0.804
Mof_Cu	Cu	0.7672	0.2531	0.252	0.832
Mof_H 	H 	0.263	0.1123	0.4024	-0.063
Mof_H 	H 	0.25	0.9387	0.4078	0.183
Mof_H 	H 	0.7277	0.6483	0.8987	-0.025
Mof_H 	H 	0.7723	0.1483	0.3987	-0.083
Mof_H 	H 	0.7329	0.862	0.9134	-0.018
Mof_H 	H 	0.2671	0.138	0.0866	-0.074
Mof_H 	H 	0.7688	0.1419	0.1039	-0.118
Mof_H 	H 	0.2312	0.8581	0.8961	-0.017
Mof_H 	H 	0.2329	0.638	0.5866	-0.061
Mof_H 	H 	0.2277	0.8517	0.6013	-0.01
Mof_H 	H 	0.7312	0.6419	0.6039	-0.06
Mof_H 	H 	0.2723	0.3517	0.1013	-0.069
Mof_H 	H 	0.7671	0.362	0.4134	-0.041
Mof_H 	H 	0.2688	0.3581	0.3961	-0.084
Mof_H 	H 	0.75	0.5613	0.0922	0.168
Mof_H 	H 	0.737	0.8877	0.5976	-0.022
Mof_H 	H 	0.75	0.0613	0.5922	0.134
Mof_H 	H 	0.25	0.4387	0.9078	0.15
Mof_H 	H 	0.763	0.3877	0.0976	-0.046
Mof_H 	H 	0.237	0.6123	0.9024	-0.042
Mof_C 	C 	0.1176	0.8505	0.6092	0.021
Mof_C 	C 	0.6533	0.3588	0.1142	0.063
Mof_C 	C 	0.3537	0.6505	0.6068	0.05
Mof_C 	C 	0.6255	0.6487	0.6123	0.09
Mof_C 	C 	0.6176	0.6495	0.8908	0.102
Mof_C 	C 	0.3745	0.3513	0.3877	0.091
Mof_C 	C 	0.6463	0.3495	0.3932	0.051
Mof_C 	C 	0.8537	0.8495	0.8932	0.08
Mof_C 	C 	0.1255	0.8513	0.8877	0.021
Mof_C 	C 	0.8745	0.1487	0.1123	0.166
Mof_C 	C 	0.8467	0.8588	0.6142	0.085
Mof_C 	C 	0.3824	0.3505	0.1092	0.083
Mof_C 	C 	0.1463	0.1505	0.1068	0.023
Mof_C 	C 	0.3467	0.6412	0.8858	0.072
Mof_C 	C 	0.8824	0.1495	0.3908	0.169
Mof_C 	C 	0.1533	0.1412	0.3858	0.048
Mof_N 	N 	0.0061	0.1105	0.0718	-0.352
Mof_N 	N 	0.5755	0.707	0.6685	-0.223
Mof_N 	N 	0.8987	0.792	0.8346	-0.189
Mof_N 	N 	0.4845	0.6046	0.9245	-0.226
Mof_N 	N 	0.0155	0.1046	0.4245	-0.309
Mof_N 	N 	0.9845	0.8954	0.5755	-0.176
Mof_N 	N 	0.6013	0.292	0.3346	-0.219
Mof_N 	N 	0.3941	0.7021	0.8304	-0.22
Mof_N 	N 	0.5707	0.7084	0.8338	-0.221
Mof_N 	N 	0.5061	0.3895	0.4282	-0.288
Mof_N 	N 	0.4939	0.6105	0.5718	-0.284
Mof_N 	N 	0.9293	0.2084	0.3338	-0.214
Mof_N 	N 	0.3987	0.708	0.6654	-0.217
Mof_N 	N 	0.9245	0.207	0.1685	-0.218
Mof_N 	N 	0.6059	0.2979	0.1696	-0.225
Mof_N 	N 	0.4245	0.293	0.3315	-0.232
Mof_N 	N 	0.1059	0.2021	0.3304	-0.252
Mof_N 	N 	0.9939	0.8895	0.9282	-0.186
Mof_N 	N 	0.8941	0.7979	0.6696	-0.194
Mof_N 	N 	0.1013	0.208	0.1654	-0.248
Mof_N 	N 	0.5155	0.3954	0.0755	-0.265
Mof_N 	N 	0.0707	0.7916	0.6662	-0.239
Mof_N 	N 	0.4293	0.2916	0.1662	-0.232
Mof_N 	N 	0.0755	0.793	0.8315	-0.236
Mof_O 	O 	0.3341	0.4143	0.9394	-0.408
Mof_O 	O 	0.1659	0.9143	0.4394	-0.435
Mof_O 	O 	0.8341	0.0857	0.5606	-0.439
Mof_O 	O 	0.6659	0.5857	0.0606	-0.477
_end
