data_functionalizedCrystal
_audit_creation_method	'EQeq! by Chris Wilmer'
_symmetry_space_group_name_H-M	'P1'
_symmetry_Int_Tables_number	1
_symmetry_cell_setting	triclinic
loop_
_symmetry_equiv_pos_as_xyz
  x,y,z
_cell_length_a	13.551
_cell_length_b	16.181
_cell_length_c	16.54
_cell_angle_alpha	109.46
_cell_angle_beta	101.21
_cell_angle_gamma	109.75
loop_
_atom_site_label
_atom_site_type_symbol
_atom_site_fract_x
_atom_site_fract_y
_atom_site_fract_z
_atom_site_charge
Mof_Zn	Zn	0.50457	0.42315	0.82476	1.181
Mof_Zn	Zn	0.82959	0.54317	0.42653	1.182
Mof_Zn	Zn	0.41081	0.79647	0.48912	1.181
Mof_Zn	Zn	0.49543	0.57685	0.17524	1.181
Mof_Zn	Zn	0.17041	0.45683	0.57347	1.182
Mof_Zn	Zn	0.58919	0.20353	0.51088	1.181
Mof_H 	H 	0.8759	0.6796	0.8785	0.088
Mof_H 	H 	0.8412	0.671	0.731	0.018
Mof_H 	H 	0.658	0.5839	0.6289	0.09
Mof_H 	H 	0.5239	0.4919	0.6679	-0.011
Mof_H 	H 	0.0295	0.7323	0.1108	0.089
Mof_H 	H 	0.1683	0.8749	0.1328	0.023
Mof_H 	H 	0.119	0.9885	0.1011	0.078
Mof_H 	H 	0.935	0.949	0.0327	0.015
Mof_H 	H 	0.0041	0.8855	0.6784	0.09
Mof_H 	H 	0.8385	0.898	0.6823	0.008
Mof_H 	H 	0.669	0.7677	0.5853	0.08
Mof_H 	H 	0.6679	0.6291	0.4884	-0.013
Mof_H 	H 	0.1255	0.8182	0.7868	0.103
Mof_H 	H 	0.213	0.9607	0.922	0.002
Mof_H 	H 	0.3172	0.1042	0.9169	0.106
Mof_H 	H 	0.3418	0.0997	0.7833	0.018
Mof_H 	H 	0.0444	0.7557	0.2899	0.096
Mof_H 	H 	0.9882	0.6006	0.1799	0.01
Mof_H 	H 	0.0933	0.5178	0.1935	0.094
Mof_H 	H 	0.2505	0.5905	0.3204	-0.01
Mof_H 	H 	0.0958	0.9597	0.3199	0.098
Mof_H 	H 	0.9092	0.9083	0.242	0.009
Mof_H 	H 	0.7764	0.8245	0.2903	0.094
Mof_H 	H 	0.8313	0.7917	0.4091	0.011
Mof_H 	H 	0.1241	0.3204	0.1215	0.088
Mof_H 	H 	0.1588	0.329	0.269	0.018
Mof_H 	H 	0.342	0.4161	0.3711	0.09
Mof_H 	H 	0.4761	0.5081	0.3321	-0.011
Mof_H 	H 	0.9705	0.2677	0.8892	0.089
Mof_H 	H 	0.8317	0.1251	0.8672	0.023
Mof_H 	H 	0.881	0.0115	0.8989	0.078
Mof_H 	H 	0.065	0.051	0.9673	0.015
Mof_H 	H 	0.9959	0.1145	0.3216	0.09
Mof_H 	H 	0.1615	0.102	0.3177	0.008
Mof_H 	H 	0.331	0.2323	0.4147	0.08
Mof_H 	H 	0.3321	0.3709	0.5116	-0.013
Mof_H 	H 	0.8745	0.1818	0.2132	0.103
Mof_H 	H 	0.787	0.0393	0.078	0.002
Mof_H 	H 	0.6828	0.8958	0.0831	0.106
Mof_H 	H 	0.6582	0.9003	0.2167	0.018
Mof_H 	H 	0.9556	0.2443	0.7101	0.096
Mof_H 	H 	0.0118	0.3994	0.8201	0.01
Mof_H 	H 	0.9067	0.4822	0.8065	0.094
Mof_H 	H 	0.7495	0.4095	0.6796	-0.01
Mof_H 	H 	0.9042	0.0403	0.6801	0.098
Mof_H 	H 	0.0908	0.0917	0.758	0.009
Mof_H 	H 	0.2236	0.1755	0.7097	0.094
Mof_H 	H 	0.1687	0.2083	0.5909	0.011
Mof_C 	C 	0.5468	0.4121	0.0005	0.07
Mof_C 	C 	0.7226	0.5619	0.1891	0.124
Mof_C 	C 	0.6454	0.4993	0.0192	-0.001
Mof_C 	C 	0.7295	0.5676	0.1029	0.007
Mof_C 	C 	0.8153	0.6559	0.0315	0.028
Mof_C 	C 	0.731	0.5885	0.9469	0.012
Mof_C 	C 	0.7182	0.5907	0.8562	0.088
Mof_C 	C 	0.8045	0.6423	0.835	-0.14
Mof_C 	C 	0.7838	0.6381	0.7475	0.068
Mof_C 	C 	0.6759	0.584	0.6862	-0.145
Mof_C 	C 	0.5958	0.5308	0.7105	0.092
Mof_C 	C 	0.9055	0.7506	0.0486	0.092
Mof_C 	C 	0.0114	0.7748	0.0917	-0.146
Mof_C 	C 	0.0936	0.8608	0.1081	0.057
Mof_C 	C 	0.0641	0.9277	0.0872	-0.128
Mof_C 	C 	0.9537	0.9036	0.0461	0.06
Mof_C 	C 	0.0299	0.5144	0.4085	0.069
Mof_C 	C 	0.2796	0.6373	0.5371	0.115
Mof_C 	C 	0.0775	0.6114	0.4851	0.01
Mof_C 	C 	0.1901	0.6702	0.5414	-0.027
Mof_C 	C 	0.1431	0.7872	0.6253	0.03
Mof_C 	C 	0.0287	0.7286	0.5715	0.012
Mof_C 	C 	0.9287	0.7473	0.5803	0.091
Mof_C 	C 	0.9352	0.8334	0.6401	-0.145
Mof_C 	C 	0.8363	0.8407	0.6421	0.073
Mof_C 	C 	0.7358	0.7637	0.5849	-0.148
Mof_C 	C 	0.7361	0.6814	0.5278	0.087
Mof_C 	C 	0.1876	0.8791	0.7099	0.11
Mof_C 	C 	0.1708	0.8765	0.7876	-0.169
Mof_C 	C 	0.2214	0.9611	0.8677	0.092
Mof_C 	C 	0.2841	0.0454	0.8648	-0.161
Mof_C 	C 	0.2975	0.042	0.784	0.093
Mof_C 	C 	0.5088	0.0021	0.6167	0.084
Mof_C 	C 	0.4269	0.162	0.62	0.126
Mof_C 	C 	0.3998	0.9861	0.5614	0.005
Mof_C 	C 	0.3587	0.0547	0.5641	0.009
Mof_C 	C 	0.1891	0.9326	0.4574	0.027
Mof_C 	C 	0.235	0.8651	0.444	0.019
Mof_C 	C 	0.1825	0.7632	0.3699	0.09
Mof_C 	C 	0.0865	0.7216	0.2957	-0.153
Mof_C 	C 	0.0534	0.6293	0.2301	0.087
Mof_C 	C 	0.1144	0.58	0.2379	-0.161
Mof_C 	C 	0.209	0.6248	0.3138	0.102
Mof_C 	C 	0.0695	0.9054	0.4103	0.112
Mof_C 	C 	0.0407	0.9256	0.3378	-0.165
Mof_C 	C 	0.9304	0.8951	0.2916	0.089
Mof_C 	C 	0.8519	0.845	0.3197	-0.152
Mof_C 	C 	0.8855	0.8256	0.3905	0.092
Mof_C 	C 	0.4532	0.5879	0.9995	0.07
Mof_C 	C 	0.2774	0.4381	0.8109	0.124
Mof_C 	C 	0.3546	0.5007	0.9808	-0.001
Mof_C 	C 	0.2705	0.4324	0.8971	0.007
Mof_C 	C 	0.1847	0.3441	0.9685	0.028
Mof_C 	C 	0.269	0.4115	0.0531	0.012
Mof_C 	C 	0.2818	0.4093	0.1438	0.088
Mof_C 	C 	0.1955	0.3577	0.165	-0.14
Mof_C 	C 	0.2162	0.3619	0.2525	0.068
Mof_C 	C 	0.3241	0.416	0.3138	-0.145
Mof_C 	C 	0.4042	0.4692	0.2895	0.092
Mof_C 	C 	0.0945	0.2494	0.9514	0.092
Mof_C 	C 	0.9886	0.2252	0.9083	-0.146
Mof_C 	C 	0.9064	0.1392	0.8919	0.057
Mof_C 	C 	0.9359	0.0723	0.9128	-0.128
Mof_C 	C 	0.0463	0.0964	0.9539	0.06
Mof_C 	C 	0.9701	0.4856	0.5915	0.069
Mof_C 	C 	0.7204	0.3627	0.4629	0.115
Mof_C 	C 	0.9225	0.3886	0.5149	0.01
Mof_C 	C 	0.8099	0.3298	0.4586	-0.027
Mof_C 	C 	0.8569	0.2128	0.3747	0.03
Mof_C 	C 	0.9713	0.2714	0.4285	0.012
Mof_C 	C 	0.0713	0.2527	0.4197	0.091
Mof_C 	C 	0.0648	0.1666	0.3599	-0.145
Mof_C 	C 	0.1637	0.1593	0.3579	0.073
Mof_C 	C 	0.2642	0.2363	0.4151	-0.148
Mof_C 	C 	0.2639	0.3186	0.4722	0.087
Mof_C 	C 	0.8124	0.1209	0.2901	0.11
Mof_C 	C 	0.8292	0.1235	0.2124	-0.169
Mof_C 	C 	0.7786	0.0389	0.1323	0.092
Mof_C 	C 	0.7159	0.9546	0.1352	-0.161
Mof_C 	C 	0.7025	0.958	0.216	0.093
Mof_C 	C 	0.4912	0.9979	0.3833	0.084
Mof_C 	C 	0.5731	0.838	0.38	0.126
Mof_C 	C 	0.6002	0.0139	0.4386	0.005
Mof_C 	C 	0.6413	0.9453	0.4359	0.009
Mof_C 	C 	0.8109	0.0674	0.5426	0.027
Mof_C 	C 	0.765	0.1349	0.556	0.019
Mof_C 	C 	0.8175	0.2368	0.6301	0.09
Mof_C 	C 	0.9135	0.2784	0.7043	-0.153
Mof_C 	C 	0.9466	0.3707	0.7699	0.087
Mof_C 	C 	0.8856	0.42	0.7621	-0.161
Mof_C 	C 	0.791	0.3752	0.6862	0.102
Mof_C 	C 	0.9305	0.0946	0.5897	0.112
Mof_C 	C 	0.9593	0.0744	0.6622	-0.165
Mof_C 	C 	0.0696	0.1049	0.7084	0.089
Mof_C 	C 	0.1481	0.155	0.6803	-0.152
Mof_C 	C 	0.1145	0.1744	0.6095	0.092
Mof_N 	N 	0.47	0.3641	0.9177	-0.216
Mof_N 	N 	0.3919	0.2883	0.92	-0.05
Mof_N 	N 	0.4225	0.2916	0.0022	-0.049
Mof_N 	N 	0.5221	0.3711	0.0556	-0.1
Mof_N 	N 	0.6401	0.5672	0.2198	-0.236
Mof_N 	N 	0.6633	0.5621	0.2997	-0.081
Mof_N 	N 	0.7574	0.554	0.3144	-0.193
Mof_N 	N 	0.7974	0.5534	0.2462	-0.101
Mof_N 	N 	0.6478	0.5126	0.9436	-0.227
Mof_N 	N 	0.8143	0.6433	0.1076	-0.105
Mof_N 	N 	0.6172	0.5326	0.7938	-0.246
Mof_N 	N 	0.869	0.8131	0.024	-0.122
Mof_N 	N 	0.9188	0.4685	0.3696	-0.212
Mof_N 	N 	0.8984	0.3837	0.3019	-0.048
Mof_N 	N 	0.9952	0.3803	0.3027	-0.054
Mof_N 	N 	0.0807	0.4634	0.3714	-0.108
Mof_N 	N 	0.3747	0.6859	0.5278	-0.239
Mof_N 	N 	0.4375	0.6373	0.5348	-0.063
Mof_N 	N 	0.3824	0.5631	0.5493	-0.065
Mof_N 	N 	0.2815	0.5613	0.5508	-0.237
Mof_N 	N 	0.0012	0.6429	0.5013	-0.221
Mof_N 	N 	0.221	0.7582	0.6086	-0.111
Mof_N 	N 	0.8304	0.6717	0.5252	-0.249
Mof_N 	N 	0.2502	0.96	0.7058	-0.133
Mof_N 	N 	0.533	0.9263	0.6004	-0.22
Mof_N 	N 	0.6377	0.9613	0.6576	-0.054
Mof_N 	N 	0.6725	0.0553	0.7071	-0.049
Mof_N 	N 	0.591	0.084	0.6818	-0.095
Mof_N 	N 	0.4141	0.2129	0.6946	-0.106
Mof_N 	N 	0.4875	0.305	0.7194	-0.194
Mof_N 	N 	0.5403	0.3093	0.6621	-0.083
Mof_N 	N 	0.5037	0.2184	0.5978	-0.241
Mof_N 	N 	0.3376	0.8937	0.4993	-0.226
Mof_N 	N 	0.2527	0.0272	0.5143	-0.1
Mof_N 	N 	0.2451	0.7146	0.3788	-0.241
Mof_N 	N 	0.9947	0.8532	0.4362	-0.136
Mof_N 	N 	0.53	0.6359	0.0823	-0.216
Mof_N 	N 	0.6081	0.7117	0.08	-0.05
Mof_N 	N 	0.5775	0.7084	0.9978	-0.049
Mof_N 	N 	0.4779	0.6289	0.9444	-0.1
Mof_N 	N 	0.3599	0.4328	0.7802	-0.236
Mof_N 	N 	0.3367	0.4379	0.7003	-0.081
Mof_N 	N 	0.2426	0.446	0.6856	-0.193
Mof_N 	N 	0.2026	0.4466	0.7538	-0.101
Mof_N 	N 	0.3522	0.4874	0.0564	-0.227
Mof_N 	N 	0.1857	0.3567	0.8924	-0.105
Mof_N 	N 	0.3828	0.4674	0.2062	-0.246
Mof_N 	N 	0.131	0.1869	0.976	-0.122
Mof_N 	N 	0.0812	0.5315	0.6304	-0.212
Mof_N 	N 	0.1016	0.6163	0.6981	-0.048
Mof_N 	N 	0.0048	0.6197	0.6973	-0.054
Mof_N 	N 	0.9193	0.5366	0.6286	-0.108
Mof_N 	N 	0.6253	0.3141	0.4722	-0.239
Mof_N 	N 	0.5625	0.3627	0.4652	-0.063
Mof_N 	N 	0.6176	0.4369	0.4507	-0.065
Mof_N 	N 	0.7185	0.4387	0.4492	-0.237
Mof_N 	N 	0.9988	0.3571	0.4987	-0.221
Mof_N 	N 	0.779	0.2418	0.3914	-0.111
Mof_N 	N 	0.1696	0.3283	0.4748	-0.249
Mof_N 	N 	0.7498	0.04	0.2942	-0.133
Mof_N 	N 	0.467	0.0737	0.3996	-0.22
Mof_N 	N 	0.3623	0.0387	0.3424	-0.054
Mof_N 	N 	0.3275	0.9447	0.2929	-0.049
Mof_N 	N 	0.409	0.916	0.3182	-0.095
Mof_N 	N 	0.5859	0.7871	0.3054	-0.106
Mof_N 	N 	0.5125	0.695	0.2806	-0.194
Mof_N 	N 	0.4597	0.6907	0.3379	-0.083
Mof_N 	N 	0.4963	0.7816	0.4022	-0.241
Mof_N 	N 	0.6624	0.1063	0.5007	-0.226
Mof_N 	N 	0.7473	0.9728	0.4857	-0.1
Mof_N 	N 	0.7549	0.2854	0.6212	-0.241
Mof_N 	N 	0.0053	0.1468	0.5638	-0.136
_end
