data_functionalizedCrystal
_audit_creation_method	'EQeq! by Chris Wilmer'
_symmetry_space_group_name_H-M	'P1'
_symmetry_Int_Tables_number	1
_symmetry_cell_setting	triclinic
loop_
_symmetry_equiv_pos_as_xyz
  x,y,z
_cell_length_a	14.195
_cell_length_b	25.645
_cell_length_c	18.21
_cell_angle_alpha	90
_cell_angle_beta	90
_cell_angle_gamma	90
loop_
_atom_site_label
_atom_site_type_symbol
_atom_site_fract_x
_atom_site_fract_y
_atom_site_fract_z
_atom_site_charge
Mof_Co	Co	0.46858	0.35487	0.05727	1.171
Mof_O 	O 	0.577	0.4088	0.1906	-0.655
Mof_O 	O 	0.547	0.4213	0.202	0.186
Mof_O 	O 	0.5393	0.41929	0.07394	-0.486
Mof_O 	O 	0.9212	0.8008	0.1936	-0.251
Mof_O 	O 	0.9618	0.7893	0.199	-0.17
Mof_O 	O 	0.9675	0.78934	0.07742	-0.445
Mof_O 	O 	0.3933	0.35746	0.17069	-0.498
Mof_O 	O 	0.3286	0.34499	0.06586	-0.441
Mof_N 	N 	0.4844	0.35491	0.944	-0.241
Mof_C 	C 	0.5762	0.434	0.1338	0.454
Mof_C 	C 	0.6342	0.4828	0.1325	-0.173
Mof_C 	C 	0.6691	0.5023	0.1972	0.082
Mof_H 	H 	0.6593	0.4843	0.2409	0.008
Mof_C 	C 	0.7189	0.5486	0.1978	-0.137
Mof_H 	H 	0.7404	0.562	0.2423	0.08
Mof_C 	C 	0.7376	0.5755	0.1333	0.062
Mof_C 	C 	0.7045	0.5545	0.0677	-0.141
Mof_H 	H 	0.7172	0.5714	0.0237	0.078
Mof_C 	C 	0.6529	0.5087	0.0673	0.08
Mof_H 	H 	0.6307	0.4952	0.0232	0.011
Mof_C 	C 	0.7891	0.6261	0.1342	0.059
Mof_C 	C 	0.7824	0.6595	0.1927	-0.124
Mof_H 	H 	0.7454	0.65	0.2327	0.077
Mof_C 	C 	0.8288	0.707	0.1942	0.068
Mof_H 	H 	0.8237	0.7285	0.2352	0.027
Mof_C 	C 	0.8826	0.7224	0.1352	-0.144
Mof_C 	C 	0.8835	0.6915	0.0757	0.079
Mof_H 	H 	0.9156	0.7024	0.0339	0.021
Mof_C 	C 	0.838	0.644	0.0751	-0.128
Mof_H 	H 	0.8409	0.6235	0.033	0.083
Mof_C 	C 	0.9303	0.774	0.1371	0.408
Mof_C 	C 	0.3213	0.3482	0.1346	0.384
Mof_C 	C 	0.2284	0.3428	0.1702	-0.115
Mof_C 	C 	0.2163	0.351	0.2446	0.01
Mof_H 	H 	0.2681	0.3583	0.2742	0.049
Mof_C 	C 	0.1269	0.3484	0.2751	-0.06
Mof_H 	H 	0.1197	0.3547	0.3251	0.044
Mof_C 	C 	0.0481	0.3369	0.2337	-0.039
Mof_C 	C 	0.0619	0.327	0.1601	-0.067
Mof_H 	H 	0.0105	0.3182	0.131	0.038
Mof_C 	C 	0.1499	0.3298	0.1285	0.014
Mof_H 	H 	0.1569	0.3229	0.0787	0.033
Mof_C 	C 	0.461	0.313	0.905	0.085
Mof_H 	H 	0.4401	0.2835	0.9299	-0.008
Mof_C 	C 	0.466	0.3109	0.829	-0.138
Mof_H 	H 	0.449	0.2808	0.8039	0.081
Mof_C 	C 	0.4969	0.3547	0.791	0.056
Mof_C 	C 	0.5211	0.3984	0.8312	-0.131
Mof_H 	H 	0.5414	0.4285	0.8075	0.074
Mof_C 	C 	0.5149	0.3969	0.9072	0.074
Mof_H 	H 	0.5327	0.4262	0.9338	0.002
Mof_Co	Co	0.53142	0.35487	0.44273	1.173
Mof_O 	O 	0.423	0.4088	0.3094	-0.71
Mof_O 	O 	0.453	0.4213	0.298	0.241
Mof_O 	O 	0.4607	0.41929	0.42606	-0.487
Mof_O 	O 	0.0788	0.8008	0.3064	-0.243
Mof_O 	O 	0.0382	0.7893	0.301	-0.218
Mof_O 	O 	0.0325	0.78934	0.42258	-0.483
Mof_O 	O 	0.6067	0.35746	0.32931	-0.505
Mof_O 	O 	0.6714	0.34499	0.43414	-0.445
Mof_N 	N 	0.5156	0.35491	0.556	-0.241
Mof_C 	C 	0.4238	0.434	0.3662	0.462
Mof_C 	C 	0.3658	0.4828	0.3675	-0.177
Mof_C 	C 	0.3309	0.5023	0.3028	0.079
Mof_H 	H 	0.3407	0.4843	0.2591	0.007
Mof_C 	C 	0.2811	0.5486	0.3022	-0.136
Mof_H 	H 	0.2596	0.562	0.2577	0.074
Mof_C 	C 	0.2624	0.5755	0.3667	0.056
Mof_C 	C 	0.2955	0.5545	0.4323	-0.141
Mof_H 	H 	0.2828	0.5714	0.4763	0.076
Mof_C 	C 	0.3471	0.5087	0.4327	0.079
Mof_H 	H 	0.3693	0.4952	0.4768	0.01
Mof_C 	C 	0.2109	0.6261	0.3658	0.063
Mof_C 	C 	0.2176	0.6595	0.3073	-0.136
Mof_H 	H 	0.2546	0.65	0.2673	0.078
Mof_C 	C 	0.1712	0.707	0.3058	0.076
Mof_H 	H 	0.1763	0.7285	0.2648	0.017
Mof_C 	C 	0.1174	0.7224	0.3648	-0.164
Mof_C 	C 	0.1165	0.6915	0.4243	0.088
Mof_H 	H 	0.0844	0.7024	0.4661	0.008
Mof_C 	C 	0.162	0.644	0.4249	-0.142
Mof_H 	H 	0.1591	0.6235	0.467	0.082
Mof_C 	C 	0.0697	0.774	0.3629	0.417
Mof_C 	C 	0.6787	0.3482	0.3654	0.41
Mof_C 	C 	0.7716	0.3428	0.3298	-0.178
Mof_C 	C 	0.7837	0.351	0.2554	0.101
Mof_H 	H 	0.7319	0.3583	0.2258	0.019
Mof_C 	C 	0.8731	0.3484	0.2249	-0.175
Mof_H 	H 	0.8803	0.3547	0.1749	0.101
Mof_C 	C 	0.9519	0.3369	0.2663	0.135
Mof_C 	C 	0.9381	0.327	0.3399	-0.181
Mof_H 	H 	0.9895	0.3182	0.369	0.105
Mof_C 	C 	0.8501	0.3298	0.3715	0.107
Mof_H 	H 	0.8431	0.3229	0.4213	0.007
Mof_C 	C 	0.539	0.313	0.595	0.084
Mof_H 	H 	0.5599	0.2835	0.5701	-0.008
Mof_C 	C 	0.534	0.3109	0.671	-0.139
Mof_H 	H 	0.551	0.2808	0.6961	0.081
Mof_C 	C 	0.5031	0.3547	0.709	0.056
Mof_C 	C 	0.4789	0.3984	0.6688	-0.132
Mof_H 	H 	0.4586	0.4285	0.6925	0.073
Mof_C 	C 	0.4851	0.3969	0.5928	0.073
Mof_H 	H 	0.4673	0.4262	0.5662	0.001
Mof_Co	Co	0.96858	0.85487	0.44273	1.186
Mof_O 	O 	0.077	0.9088	0.3094	-0.449
Mof_O 	O 	0.047	0.9213	0.298	-0.026
Mof_O 	O 	0.0393	0.91929	0.42606	-0.49
Mof_O 	O 	0.4212	0.3008	0.3064	-0.249
Mof_O 	O 	0.4618	0.2893	0.301	-0.195
Mof_O 	O 	0.4675	0.28934	0.42258	-0.465
Mof_O 	O 	0.8933	0.85746	0.32931	-0.481
Mof_O 	O 	0.8286	0.84499	0.43414	-0.436
Mof_N 	N 	0.9844	0.85491	0.556	-0.234
Mof_C 	C 	0.0762	0.934	0.3662	0.417
Mof_C 	C 	0.1342	0.9828	0.3675	-0.159
Mof_C 	C 	0.1691	0.0023	0.3028	0.065
Mof_H 	H 	0.1593	0.9843	0.2591	0.008
Mof_C 	C 	0.2189	0.0486	0.3022	-0.129
Mof_H 	H 	0.2404	0.062	0.2577	0.073
Mof_C 	C 	0.2376	0.0755	0.3667	0.051
Mof_C 	C 	0.2045	0.0545	0.4323	-0.134
Mof_H 	H 	0.2172	0.0714	0.4763	0.073
Mof_C 	C 	0.1529	0.0087	0.4327	0.063
Mof_H 	H 	0.1307	0.9952	0.4768	0.012
Mof_C 	C 	0.2891	0.1261	0.3658	0.064
Mof_C 	C 	0.2824	0.1595	0.3073	-0.133
Mof_H 	H 	0.2454	0.15	0.2673	0.077
Mof_C 	C 	0.3288	0.207	0.3058	0.073
Mof_H 	H 	0.3237	0.2285	0.2648	0.021
Mof_C 	C 	0.3826	0.2224	0.3648	-0.156
Mof_C 	C 	0.3835	0.1915	0.4243	0.086
Mof_H 	H 	0.4156	0.2024	0.4661	0.013
Mof_C 	C 	0.338	0.144	0.4249	-0.138
Mof_H 	H 	0.3409	0.1235	0.467	0.083
Mof_C 	C 	0.4303	0.274	0.3629	0.413
Mof_C 	C 	0.8213	0.8482	0.3654	0.39
Mof_C 	C 	0.7284	0.8428	0.3298	-0.134
Mof_C 	C 	0.7163	0.851	0.2554	0.043
Mof_H 	H 	0.7681	0.8583	0.2258	0.047
Mof_C 	C 	0.6269	0.8484	0.2249	-0.105
Mof_H 	H 	0.6197	0.8547	0.1749	0.069
Mof_C 	C 	0.5481	0.8369	0.2663	0.038
Mof_C 	C 	0.5619	0.827	0.3399	-0.114
Mof_H 	H 	0.5105	0.8182	0.369	0.068
Mof_C 	C 	0.6499	0.8298	0.3715	0.051
Mof_H 	H 	0.6569	0.8229	0.4213	0.025
Mof_C 	C 	0.961	0.813	0.595	0.122
Mof_H 	H 	0.9401	0.7835	0.5701	-0.013
Mof_C 	C 	0.966	0.8109	0.671	-0.194
Mof_H 	H 	0.949	0.7808	0.6961	0.11
Mof_C 	C 	0.9969	0.8547	0.709	0.169
Mof_C 	C 	0.0211	0.8984	0.6688	-0.219
Mof_H 	H 	0.0414	0.9285	0.6925	0.096
Mof_C 	C 	0.0149	0.8969	0.5928	0.078
Mof_H 	H 	0.0327	0.9262	0.5662	-0.009
Mof_Co	Co	0.03142	0.85487	0.05727	1.159
Mof_O 	O 	0.923	0.9088	0.1906	-0.914
Mof_O 	O 	0.953	0.9213	0.202	0.457
Mof_O 	O 	0.9607	0.91929	0.07394	-0.479
Mof_O 	O 	0.5788	0.3008	0.1936	-0.246
Mof_O 	O 	0.5382	0.2893	0.199	-0.197
Mof_O 	O 	0.5325	0.28934	0.07742	-0.465
Mof_O 	O 	0.1067	0.85746	0.17069	-0.517
Mof_O 	O 	0.1714	0.84499	0.06586	-0.45
Mof_N 	N 	0.0156	0.85491	0.944	-0.246
Mof_C 	C 	0.9238	0.934	0.1338	0.497
Mof_C 	C 	0.8658	0.9828	0.1325	-0.188
Mof_C 	C 	0.8309	0.0023	0.1972	0.093
Mof_H 	H 	0.8407	0.9843	0.2409	0.008
Mof_C 	C 	0.7811	0.0486	0.1978	-0.141
Mof_H 	H 	0.7596	0.062	0.2423	0.08
Mof_C 	C 	0.7624	0.0755	0.1333	0.065
Mof_C 	C 	0.7955	0.0545	0.0677	-0.146
Mof_H 	H 	0.7828	0.0714	0.0237	0.081
Mof_C 	C 	0.8471	0.0087	0.0673	0.093
Mof_H 	H 	0.8693	0.9952	0.0232	0.011
Mof_C 	C 	0.7109	0.1261	0.1342	0.059
Mof_C 	C 	0.7176	0.1595	0.1927	-0.129
Mof_H 	H 	0.7546	0.15	0.2327	0.079
Mof_C 	C 	0.6712	0.207	0.1942	0.072
Mof_H 	H 	0.6763	0.2285	0.2352	0.023
Mof_C 	C 	0.6174	0.2224	0.1352	-0.154
Mof_C 	C 	0.6165	0.1915	0.0757	0.083
Mof_H 	H 	0.5844	0.2024	0.0339	0.014
Mof_C 	C 	0.662	0.144	0.0751	-0.134
Mof_H 	H 	0.6591	0.1235	0.033	0.082
Mof_C 	C 	0.5697	0.274	0.1371	0.413
Mof_C 	C 	0.1787	0.8482	0.1346	0.401
Mof_C 	C 	0.2716	0.8428	0.1702	-0.158
Mof_C 	C 	0.2837	0.851	0.2446	0.067
Mof_H 	H 	0.2319	0.8583	0.2742	0.022
Mof_C 	C 	0.3731	0.8484	0.2751	-0.128
Mof_H 	H 	0.3803	0.8547	0.3251	0.075
Mof_C 	C 	0.4519	0.8369	0.2337	0.056
Mof_C 	C 	0.4381	0.827	0.1601	-0.133
Mof_H 	H 	0.4895	0.8182	0.131	0.075
Mof_C 	C 	0.3501	0.8298	0.1285	0.069
Mof_H 	H 	0.3431	0.8229	0.0787	0.016
Mof_C 	C 	0.039	0.813	0.905	0.048
Mof_H 	H 	0.0599	0.7835	0.9299	-0.003
Mof_C 	C 	0.034	0.8109	0.829	-0.082
Mof_H 	H 	0.051	0.7808	0.8039	0.052
Mof_C 	C 	0.0031	0.8547	0.791	-0.057
Mof_C 	C 	0.9789	0.8984	0.8312	-0.044
Mof_H 	H 	0.9586	0.9285	0.8075	0.051
Mof_C 	C 	0.9851	0.8969	0.9072	0.065
Mof_H 	H 	0.9673	0.9262	0.9338	0.012
Mof_Co	Co	0.5	0.35523	0.25	1.215
Mof_Co	Co	-2.16458e-32	0.85523	0.25	1.201
Mof_Co	Co	0.03142	0.14513	0.55727	1.161
Mof_O 	O 	0.923	0.0912	0.6906	-0.891
Mof_O 	O 	0.953	0.0787	0.702	0.433
Mof_O 	O 	0.9607	0.08071	0.57394	-0.48
Mof_O 	O 	0.5788	0.6992	0.6936	-0.246
Mof_O 	O 	0.5382	0.7107	0.699	-0.197
Mof_O 	O 	0.5325	0.71066	0.57742	-0.464
Mof_O 	O 	0.1067	0.14254	0.67069	-0.516
Mof_O 	O 	0.1714	0.15501	0.56586	-0.448
Mof_N 	N 	0.0156	0.14509	0.444	-0.247
Mof_C 	C 	0.9238	0.066	0.6338	0.494
Mof_C 	C 	0.8658	0.0172	0.6325	-0.187
Mof_C 	C 	0.8309	0.9977	0.6972	0.092
Mof_H 	H 	0.8407	0.0157	0.7409	0.008
Mof_C 	C 	0.7811	0.9514	0.6978	-0.141
Mof_H 	H 	0.7596	0.938	0.7423	0.08
Mof_C 	C 	0.7624	0.9245	0.6333	0.065
Mof_C 	C 	0.7955	0.9455	0.5677	-0.145
Mof_H 	H 	0.7828	0.9286	0.5237	0.081
Mof_C 	C 	0.8471	0.9913	0.5673	0.093
Mof_H 	H 	0.8693	0.0048	0.5232	0.011
Mof_C 	C 	0.7109	0.8739	0.6342	0.059
Mof_C 	C 	0.7176	0.8405	0.6927	-0.129
Mof_H 	H 	0.7546	0.85	0.7327	0.078
Mof_C 	C 	0.6712	0.793	0.6942	0.072
Mof_H 	H 	0.6763	0.7715	0.7352	0.023
Mof_C 	C 	0.6174	0.7776	0.6352	-0.153
Mof_C 	C 	0.6165	0.8085	0.5757	0.083
Mof_H 	H 	0.5844	0.7976	0.5339	0.015
Mof_C 	C 	0.662	0.856	0.5751	-0.134
Mof_H 	H 	0.6591	0.8765	0.533	0.082
Mof_C 	C 	0.5697	0.726	0.6371	0.413
Mof_C 	C 	0.1787	0.1518	0.6346	0.4
Mof_C 	C 	0.2716	0.1572	0.6702	-0.156
Mof_C 	C 	0.2837	0.149	0.7446	0.066
Mof_H 	H 	0.2319	0.1417	0.7742	0.023
Mof_C 	C 	0.3731	0.1516	0.7751	-0.127
Mof_H 	H 	0.3803	0.1453	0.8251	0.075
Mof_C 	C 	0.4519	0.1631	0.7337	0.055
Mof_C 	C 	0.4381	0.173	0.6601	-0.132
Mof_H 	H 	0.4895	0.1818	0.631	0.075
Mof_C 	C 	0.3501	0.1702	0.6285	0.068
Mof_H 	H 	0.3431	0.1771	0.5787	0.018
Mof_C 	C 	0.039	0.187	0.405	0.043
Mof_H 	H 	0.0599	0.2165	0.4299	-0.002
Mof_C 	C 	0.034	0.1891	0.329	-0.076
Mof_H 	H 	0.051	0.2192	0.3039	0.049
Mof_C 	C 	0.0031	0.1453	0.291	-0.07
Mof_C 	C 	0.9789	0.1016	0.3312	-0.034
Mof_H 	H 	0.9586	0.0715	0.3075	0.049
Mof_C 	C 	0.9851	0.1031	0.4072	0.065
Mof_H 	H 	0.9673	0.0738	0.4338	0.014
Mof_Co	Co	0.96858	0.14513	0.94273	1.184
Mof_O 	O 	0.077	0.0912	0.8094	-0.471
Mof_O 	O 	0.047	0.0787	0.798	-0.003
Mof_O 	O 	0.0393	0.08071	0.92606	-0.488
Mof_O 	O 	0.4212	0.6992	0.8064	-0.249
Mof_O 	O 	0.4618	0.7107	0.801	-0.195
Mof_O 	O 	0.4675	0.71066	0.92258	-0.465
Mof_O 	O 	0.8933	0.14254	0.82931	-0.483
Mof_O 	O 	0.8286	0.15501	0.93414	-0.437
Mof_N 	N 	0.9844	0.14509	0.056	-0.234
Mof_C 	C 	0.0762	0.066	0.8662	0.42
Mof_C 	C 	0.1342	0.0172	0.8675	-0.16
Mof_C 	C 	0.1691	0.9977	0.8028	0.066
Mof_H 	H 	0.1593	0.0157	0.7591	0.009
Mof_C 	C 	0.2189	0.9514	0.8022	-0.13
Mof_H 	H 	0.2404	0.938	0.7577	0.073
Mof_C 	C 	0.2376	0.9245	0.8667	0.051
Mof_C 	C 	0.2045	0.9455	0.9323	-0.134
Mof_H 	H 	0.2172	0.9286	0.9763	0.074
Mof_C 	C 	0.1529	0.9913	0.9327	0.064
Mof_H 	H 	0.1307	0.0048	0.9768	0.013
Mof_C 	C 	0.2891	0.8739	0.8658	0.064
Mof_C 	C 	0.2824	0.8405	0.8073	-0.133
Mof_H 	H 	0.2454	0.85	0.7673	0.077
Mof_C 	C 	0.3288	0.793	0.8058	0.073
Mof_H 	H 	0.3237	0.7715	0.7648	0.021
Mof_C 	C 	0.3826	0.7776	0.8648	-0.156
Mof_C 	C 	0.3835	0.8085	0.9243	0.086
Mof_H 	H 	0.4156	0.7976	0.9661	0.014
Mof_C 	C 	0.338	0.856	0.9249	-0.138
Mof_H 	H 	0.3409	0.8765	0.967	0.084
Mof_C 	C 	0.4303	0.726	0.8629	0.413
Mof_C 	C 	0.8213	0.1518	0.8654	0.391
Mof_C 	C 	0.7284	0.1572	0.8298	-0.135
Mof_C 	C 	0.7163	0.149	0.7554	0.044
Mof_H 	H 	0.7681	0.1417	0.7258	0.046
Mof_C 	C 	0.6269	0.1516	0.7249	-0.107
Mof_H 	H 	0.6197	0.1453	0.6749	0.07
Mof_C 	C 	0.5481	0.1631	0.7663	0.039
Mof_C 	C 	0.5619	0.173	0.8399	-0.115
Mof_H 	H 	0.5105	0.1818	0.869	0.069
Mof_C 	C 	0.6499	0.1702	0.8715	0.052
Mof_H 	H 	0.6569	0.1771	0.9213	0.024
Mof_C 	C 	0.961	0.187	0.095	0.126
Mof_H 	H 	0.9401	0.2165	0.0701	-0.015
Mof_C 	C 	0.966	0.1891	0.171	-0.201
Mof_H 	H 	0.949	0.2192	0.1961	0.113
Mof_C 	C 	0.9969	0.1453	0.209	0.183
Mof_C 	C 	0.0211	0.1016	0.1688	-0.229
Mof_H 	H 	0.0414	0.0715	0.1925	0.098
Mof_C 	C 	0.0149	0.1031	0.0928	0.08
Mof_H 	H 	0.0327	0.0738	0.0662	-0.011
Mof_Co	Co	0.53142	0.64513	0.94273	1.173
Mof_O 	O 	0.423	0.5912	0.8094	-0.706
Mof_O 	O 	0.453	0.5787	0.798	0.237
Mof_O 	O 	0.4607	0.58071	0.92606	-0.486
Mof_O 	O 	0.0788	0.1992	0.8064	-0.244
Mof_O 	O 	0.0382	0.2107	0.801	-0.216
Mof_O 	O 	0.0325	0.21066	0.92258	-0.481
Mof_O 	O 	0.6067	0.64254	0.82931	-0.505
Mof_O 	O 	0.6714	0.65501	0.93414	-0.445
Mof_N 	N 	0.5156	0.64509	0.056	-0.242
Mof_C 	C 	0.4238	0.566	0.8662	0.461
Mof_C 	C 	0.3658	0.5172	0.8675	-0.176
Mof_C 	C 	0.3309	0.4977	0.8028	0.08
Mof_H 	H 	0.3407	0.5157	0.7591	0.007
Mof_C 	C 	0.2811	0.4514	0.8022	-0.136
Mof_H 	H 	0.2596	0.438	0.7577	0.074
Mof_C 	C 	0.2624	0.4245	0.8667	0.056
Mof_C 	C 	0.2955	0.4455	0.9323	-0.141
Mof_H 	H 	0.2828	0.4286	0.9763	0.077
Mof_C 	C 	0.3471	0.4913	0.9327	0.079
Mof_H 	H 	0.3693	0.5048	0.9768	0.011
Mof_C 	C 	0.2109	0.3739	0.8658	0.063
Mof_C 	C 	0.2176	0.3405	0.8073	-0.136
Mof_H 	H 	0.2546	0.35	0.7673	0.078
Mof_C 	C 	0.1712	0.293	0.8058	0.075
Mof_H 	H 	0.1763	0.2715	0.7648	0.018
Mof_C 	C 	0.1174	0.2776	0.8648	-0.163
Mof_C 	C 	0.1165	0.3085	0.9243	0.088
Mof_H 	H 	0.0844	0.2976	0.9661	0.009
Mof_C 	C 	0.162	0.356	0.9249	-0.142
Mof_H 	H 	0.1591	0.3765	0.967	0.082
Mof_C 	C 	0.0697	0.226	0.8629	0.416
Mof_C 	C 	0.6787	0.6518	0.8654	0.408
Mof_C 	C 	0.7716	0.6572	0.8298	-0.175
Mof_C 	C 	0.7837	0.649	0.7554	0.096
Mof_H 	H 	0.7319	0.6417	0.7258	0.02
Mof_C 	C 	0.8731	0.6516	0.7249	-0.169
Mof_H 	H 	0.8803	0.6453	0.6749	0.099
Mof_C 	C 	0.9519	0.6631	0.7663	0.126
Mof_C 	C 	0.9381	0.673	0.8399	-0.176
Mof_H 	H 	0.9895	0.6818	0.869	0.101
Mof_C 	C 	0.8501	0.6702	0.8715	0.103
Mof_H 	H 	0.8431	0.6771	0.9213	0.008
Mof_C 	C 	0.539	0.687	0.095	0.084
Mof_H 	H 	0.5599	0.7165	0.0701	-0.009
Mof_C 	C 	0.534	0.6891	0.171	-0.139
Mof_H 	H 	0.551	0.7192	0.1961	0.081
Mof_C 	C 	0.5031	0.6453	0.209	0.056
Mof_C 	C 	0.4789	0.6016	0.1688	-0.132
Mof_H 	H 	0.4586	0.5715	0.1925	0.073
Mof_C 	C 	0.4851	0.6031	0.0928	0.073
Mof_H 	H 	0.4673	0.5738	0.0662	0.001
Mof_Co	Co	0.46858	0.64513	0.55727	1.173
Mof_O 	O 	0.577	0.5912	0.6906	-0.657
Mof_O 	O 	0.547	0.5787	0.702	0.19
Mof_O 	O 	0.5393	0.58071	0.57394	-0.484
Mof_O 	O 	0.9212	0.1992	0.6936	-0.25
Mof_O 	O 	0.9618	0.2107	0.699	-0.173
Mof_O 	O 	0.9675	0.21066	0.57742	-0.446
Mof_O 	O 	0.3933	0.64254	0.67069	-0.498
Mof_O 	O 	0.3286	0.65501	0.56586	-0.44
Mof_N 	N 	0.4844	0.64509	0.444	-0.241
Mof_C 	C 	0.5762	0.566	0.6338	0.454
Mof_C 	C 	0.6342	0.5172	0.6325	-0.173
Mof_C 	C 	0.6691	0.4977	0.6972	0.081
Mof_H 	H 	0.6593	0.5157	0.7409	0.008
Mof_C 	C 	0.7189	0.4514	0.6978	-0.136
Mof_H 	H 	0.7404	0.438	0.7423	0.079
Mof_C 	C 	0.7376	0.4245	0.6333	0.062
Mof_C 	C 	0.7045	0.4455	0.5677	-0.141
Mof_H 	H 	0.7172	0.4286	0.5237	0.079
Mof_C 	C 	0.6529	0.4913	0.5673	0.08
Mof_H 	H 	0.6307	0.5048	0.5232	0.011
Mof_C 	C 	0.7891	0.3739	0.6342	0.059
Mof_C 	C 	0.7824	0.3405	0.6927	-0.124
Mof_H 	H 	0.7454	0.35	0.7327	0.077
Mof_C 	C 	0.8288	0.293	0.6942	0.068
Mof_H 	H 	0.8237	0.2715	0.7352	0.027
Mof_C 	C 	0.8826	0.2776	0.6352	-0.144
Mof_C 	C 	0.8835	0.3085	0.5757	0.079
Mof_H 	H 	0.9156	0.2976	0.5339	0.021
Mof_C 	C 	0.838	0.356	0.5751	-0.129
Mof_H 	H 	0.8409	0.3765	0.533	0.084
Mof_C 	C 	0.9303	0.226	0.6371	0.408
Mof_C 	C 	0.3213	0.6518	0.6346	0.385
Mof_C 	C 	0.2284	0.6572	0.6702	-0.118
Mof_C 	C 	0.2163	0.649	0.7446	0.015
Mof_H 	H 	0.2681	0.6417	0.7742	0.048
Mof_C 	C 	0.1269	0.6516	0.7751	-0.065
Mof_H 	H 	0.1197	0.6453	0.8251	0.047
Mof_C 	C 	0.0481	0.6631	0.7337	-0.031
Mof_C 	C 	0.0619	0.673	0.6601	-0.072
Mof_H 	H 	0.0105	0.6818	0.631	0.042
Mof_C 	C 	0.1499	0.6702	0.6285	0.018
Mof_H 	H 	0.1569	0.6771	0.5787	0.033
Mof_C 	C 	0.461	0.687	0.405	0.085
Mof_H 	H 	0.4401	0.7165	0.4299	-0.009
Mof_C 	C 	0.466	0.6891	0.329	-0.138
Mof_H 	H 	0.449	0.7192	0.3039	0.081
Mof_C 	C 	0.4969	0.6453	0.291	0.056
Mof_C 	C 	0.5211	0.6016	0.3312	-0.131
Mof_H 	H 	0.5414	0.5715	0.3075	0.074
Mof_C 	C 	0.5149	0.6031	0.4072	0.074
Mof_H 	H 	0.5327	0.5738	0.4338	0.002
Mof_Co	Co	3.60743e-33	0.14477	0.75	1.202
Mof_Co	Co	0.5	0.64477	0.75	1.215
_end
