data_functionalizedCrystal
_audit_creation_method	'EQeq! by Chris Wilmer'
_symmetry_space_group_name_H-M	'P1'
_symmetry_Int_Tables_number	1
_symmetry_cell_setting	triclinic
loop_
_symmetry_equiv_pos_as_xyz
  x,y,z
_cell_length_a	12.6846
_cell_length_b	21.7379
_cell_length_c	21.2802
_cell_angle_alpha	90
_cell_angle_beta	90
_cell_angle_gamma	90
loop_
_atom_site_label
_atom_site_type_symbol
_atom_site_fract_x
_atom_site_fract_y
_atom_site_fract_z
_atom_site_charge
Mof_C 	C 	0.8704	0.0164	0.0947	0.305
Mof_C 	C 	0.7904	0.9941	0.1416	-0.233
Mof_H 	H 	0.7283	0.9795	0.1195	0.121
Mof_H 	H 	0.8195	0.9599	0.1651	0.109
Mof_C 	C 	0.6561	0.0302	0.2151	-0.135
Mof_H 	H 	0.6044	0.0229	0.1823	0.035
Mof_H 	H 	0.6334	0.0658	0.239	0.017
Mof_C 	C 	0.6603	0.9746	0.2583	0.013
Mof_H 	H 	0.5914	0.9688	0.2771	0.002
Mof_H 	H 	0.6759	0.9384	0.2333	-0.026
Mof_C 	C 	0.843	0.9953	0.281	0.123
Mof_H 	H 	0.8688	0.96	0.2577	-0.043
Mof_H 	H 	0.893	0.0038	0.3144	-0.056
Mof_C 	C 	0.8383	0.0509	0.2368	-0.181
Mof_H 	H 	0.8209	0.0873	0.261	0.027
Mof_H 	H 	0.9075	0.0573	0.2184	0.04
Mof_C 	C 	0.7079	0.0247	0.3571	-0.493
Mof_H 	H 	0.6766	0.0601	0.3367	0.166
Mof_H 	H 	0.7696	0.0385	0.38	0.173
Mof_C 	C 	0.6294	0.9972	0.4028	0.546
Mof_C 	C 	0.339	0.0916	0.4906	0.429
Mof_C 	C 	0.2584	0.13825	0.51262	-0.377
Mof_H 	H 	0.1913	0.118	0.5196	0.14
Mof_H 	H 	0.2812	0.1561	0.5521	0.137
Mof_C 	C 	0.342	0.225	0.4677	-0.108
Mof_H 	H 	0.4023	0.2002	0.4557	0.029
Mof_H 	H 	0.3532	0.2396	0.5102	0.054
Mof_C 	C 	0.3321	0.2796	0.4233	-0.037
Mof_H 	H 	0.3966	0.3035	0.4253	0.003
Mof_H 	H 	0.3252	0.2643	0.3806	-0.067
Mof_C 	C 	0.1464	0.2828	0.4403	-0.045
Mof_H 	H 	0.1287	0.2687	0.3984	-0.042
Mof_H 	H 	0.0888	0.3084	0.4549	0.021
Mof_C 	C 	0.1552	0.227	0.4834	-0.101
Mof_H 	H 	0.1642	0.2408	0.5264	0.052
Mof_H 	H 	0.0905	0.2033	0.4812	0.036
Mof_C 	C 	0.2601	0.35747	0.49344	-0.351
Mof_H 	H 	0.2868	0.3314	0.5268	0.137
Mof_H 	H 	0.194	0.3754	0.5074	0.138
Mof_C 	C 	0.3396	0.4087	0.4793	0.422
Mof_N 	N 	0.7598	0.04356	0.18557	-0.169
Mof_N 	N 	0.7398	0.97956	0.30931	-0.157
Mof_N 	N 	0.2457	0.1872	0.46538	-0.139
Mof_N 	N 	0.2423	0.32067	0.43661	-0.17
Mof_O 	O 	0.8808	0.07191	0.08318	-0.478
Mof_O 	O 	0.924	0.97469	0.06808	-0.417
Mof_O 	O 	0.6199	0.94126	0.40802	-0.526
Mof_O 	O 	0.5795	0.03629	0.43616	-0.533
Mof_O 	O 	0.3905	0.06435	0.53304	-0.487
Mof_O 	O 	0.3496	0.0818	0.4335	-0.516
Mof_O 	O 	0.3899	0.43054	0.52547	-0.473
Mof_O 	O 	0.3488	0.42781	0.42521	-0.508
Mof_Zn	Zn	0.75917	0.12803	0.12517	1.148
Mof_Zn	Zn	0.74004	0.88965	0.35921	1.154
Mof_C 	C 	0.3704	0.5164	0.0947	0.431
Mof_C 	C 	0.2904	0.4941	0.1416	-0.374
Mof_H 	H 	0.2283	0.4795	0.1195	0.146
Mof_H 	H 	0.3195	0.4599	0.1651	0.139
Mof_C 	C 	0.1561	0.5302	0.2151	-0.066
Mof_H 	H 	0.1044	0.5229	0.1823	0.03
Mof_H 	H 	0.1334	0.5658	0.239	0.004
Mof_C 	C 	0.1603	0.4746	0.2583	-0.058
Mof_H 	H 	0.0914	0.4688	0.2771	0.011
Mof_H 	H 	0.1759	0.4384	0.2333	-0.011
Mof_C 	C 	0.343	0.4953	0.281	-0.063
Mof_H 	H 	0.3688	0.46	0.2577	-0
Mof_H 	H 	0.393	0.5038	0.3144	0.031
Mof_C 	C 	0.3383	0.5509	0.2368	-0.059
Mof_H 	H 	0.3209	0.5873	0.261	-0.005
Mof_H 	H 	0.4075	0.5573	0.2184	0.011
Mof_C 	C 	0.2079	0.5247	0.3571	-0.362
Mof_H 	H 	0.1766	0.5601	0.3367	0.137
Mof_H 	H 	0.2696	0.5385	0.38	0.145
Mof_C 	C 	0.1294	0.4972	0.4028	0.425
Mof_C 	C 	0.839	0.5916	0.4906	0.429
Mof_C 	C 	0.7584	0.63825	0.51262	-0.375
Mof_H 	H 	0.6913	0.618	0.5196	0.142
Mof_H 	H 	0.7812	0.6561	0.5521	0.138
Mof_C 	C 	0.842	0.725	0.4677	-0.108
Mof_H 	H 	0.9023	0.7002	0.4557	0.029
Mof_H 	H 	0.8532	0.7396	0.5102	0.055
Mof_C 	C 	0.8321	0.7796	0.4233	-0.038
Mof_H 	H 	0.8966	0.8035	0.4253	0.005
Mof_H 	H 	0.8252	0.7643	0.3806	-0.066
Mof_C 	C 	0.6464	0.7828	0.4403	-0.045
Mof_H 	H 	0.6287	0.7687	0.3984	-0.04
Mof_H 	H 	0.5888	0.8084	0.4549	0.022
Mof_C 	C 	0.6552	0.727	0.4834	-0.101
Mof_H 	H 	0.6642	0.7408	0.5264	0.052
Mof_H 	H 	0.5905	0.7033	0.4812	0.037
Mof_C 	C 	0.7601	0.85747	0.49344	-0.349
Mof_H 	H 	0.7868	0.8314	0.5268	0.137
Mof_H 	H 	0.694	0.8754	0.5074	0.139
Mof_C 	C 	0.8396	0.9087	0.4793	0.419
Mof_N 	N 	0.2598	0.54356	0.18557	-0.158
Mof_N 	N 	0.2398	0.47956	0.30931	-0.161
Mof_N 	N 	0.7457	0.6872	0.46538	-0.139
Mof_N 	N 	0.7423	0.82067	0.43661	-0.17
Mof_O 	O 	0.3808	0.57191	0.08318	-0.506
Mof_O 	O 	0.424	0.47469	0.06808	-0.49
Mof_O 	O 	0.1199	0.44126	0.40802	-0.502
Mof_O 	O 	0.0795	0.53629	0.43616	-0.473
Mof_O 	O 	0.8905	0.56435	0.53304	-0.476
Mof_O 	O 	0.8496	0.5818	0.4335	-0.508
Mof_O 	O 	0.8899	0.93054	0.52547	-0.457
Mof_O 	O 	0.8488	0.92781	0.42521	-0.493
Mof_Zn	Zn	0.25917	0.62803	0.12517	1.15
Mof_Zn	Zn	0.24004	0.38965	0.35921	1.151
Mof_C 	C 	0.1296	0.9836	0.5947	0.548
Mof_C 	C 	0.2096	0.0059	0.6416	-0.501
Mof_H 	H 	0.2717	0.0205	0.6195	0.172
Mof_H 	H 	0.1805	0.0401	0.6651	0.167
Mof_C 	C 	0.3439	0.9698	0.7151	0
Mof_H 	H 	0.3956	0.9771	0.6823	0.027
Mof_H 	H 	0.3666	0.9342	0.739	-0.008
Mof_C 	C 	0.3397	0.0254	0.7583	-0.124
Mof_H 	H 	0.4086	0.0312	0.7771	0.019
Mof_H 	H 	0.3241	0.0616	0.7333	0.004
Mof_C 	C 	0.157	0.0047	0.781	-0.234
Mof_H 	H 	0.1312	0.04	0.7577	0.04
Mof_H 	H 	0.107	0.9962	0.8144	0.113
Mof_C 	C 	0.1617	0.9491	0.7368	0.053
Mof_H 	H 	0.1791	0.9127	0.761	-0.035
Mof_H 	H 	0.0925	0.9427	0.7184	-0.016
Mof_C 	C 	0.2921	0.9753	0.8571	-0.242
Mof_H 	H 	0.3234	0.9399	0.8367	0.11
Mof_H 	H 	0.2304	0.9615	0.88	0.122
Mof_C 	C 	0.3706	0.0028	0.9028	0.312
Mof_C 	C 	0.661	0.9084	0.9906	0.539
Mof_C 	C 	0.7416	0.86175	0.01262	-0.494
Mof_H 	H 	0.8087	0.882	0.0196	0.166
Mof_H 	H 	0.7188	0.8439	0.0521	0.17
Mof_C 	C 	0.658	0.775	0.9677	-0.009
Mof_H 	H 	0.5977	0.7998	0.9557	0.009
Mof_H 	H 	0.6468	0.7604	0.0102	-0.001
Mof_C 	C 	0.6679	0.7204	0.9233	-0.074
Mof_H 	H 	0.6034	0.6965	0.9253	0.02
Mof_H 	H 	0.6748	0.7357	0.8806	-0.057
Mof_C 	C 	0.8536	0.7172	0.9403	-0.078
Mof_H 	H 	0.8713	0.7313	0.8984	-0.033
Mof_H 	H 	0.9112	0.6916	0.9549	0.042
Mof_C 	C 	0.8448	0.773	0.9834	-0.007
Mof_H 	H 	0.8358	0.7592	0.0264	0
Mof_H 	H 	0.9095	0.7967	0.9812	0.021
Mof_C 	C 	0.7399	0.64253	0.99344	-0.185
Mof_H 	H 	0.7132	0.6686	0.0268	0.064
Mof_H 	H 	0.806	0.6246	0.0074	0.058
Mof_C 	C 	0.6604	0.5913	0.9793	0.432
Mof_N 	N 	0.2402	0.95644	0.68557	-0.148
Mof_N 	N 	0.2602	0.02044	0.80931	-0.164
Mof_N 	N 	0.7543	0.8128	0.96538	-0.134
Mof_N 	N 	0.7577	0.67933	0.93661	-0.178
Mof_O 	O 	0.1192	0.92809	0.58318	-0.522
Mof_O 	O 	0.076	0.02531	0.56808	-0.538
Mof_O 	O 	0.3801	0.05874	0.90802	-0.469
Mof_O 	O 	0.4205	0.96371	0.93616	-0.4
Mof_O 	O 	0.6095	0.93565	0.03304	-0.513
Mof_O 	O 	0.6504	0.9182	0.9335	-0.521
Mof_O 	O 	0.6101	0.56946	0.02547	-0.502
Mof_O 	O 	0.6512	0.57219	0.92521	-0.504
Mof_Zn	Zn	0.24083	0.87197	0.62517	1.153
Mof_Zn	Zn	0.25996	0.11035	0.85921	1.149
Mof_C 	C 	0.6296	0.4836	0.5947	0.431
Mof_C 	C 	0.7096	0.5059	0.6416	-0.371
Mof_H 	H 	0.7717	0.5205	0.6195	0.147
Mof_H 	H 	0.6805	0.5401	0.6651	0.139
Mof_C 	C 	0.8439	0.4698	0.7151	-0.065
Mof_H 	H 	0.8956	0.4771	0.6823	0.03
Mof_H 	H 	0.8666	0.4342	0.739	0.003
Mof_C 	C 	0.8397	0.5254	0.7583	-0.058
Mof_H 	H 	0.9086	0.5312	0.7771	0.01
Mof_H 	H 	0.8241	0.5616	0.7333	-0.011
Mof_C 	C 	0.657	0.5047	0.781	-0.064
Mof_H 	H 	0.6312	0.54	0.7577	0
Mof_H 	H 	0.607	0.4962	0.8144	0.032
Mof_C 	C 	0.6617	0.4491	0.7368	-0.059
Mof_H 	H 	0.6791	0.4127	0.761	-0.006
Mof_H 	H 	0.5925	0.4427	0.7184	0.011
Mof_C 	C 	0.7921	0.4753	0.8571	-0.362
Mof_H 	H 	0.8234	0.4399	0.8367	0.136
Mof_H 	H 	0.7304	0.4615	0.88	0.147
Mof_C 	C 	0.8706	0.5028	0.9028	0.423
Mof_C 	C 	0.161	0.4084	0.9906	0.557
Mof_C 	C 	0.2416	0.36175	0.01262	-0.513
Mof_H 	H 	0.3087	0.382	0.0196	0.166
Mof_H 	H 	0.2188	0.3439	0.0521	0.173
Mof_C 	C 	0.158	0.275	0.9677	0.005
Mof_H 	H 	0.0977	0.2998	0.9557	0.006
Mof_H 	H 	0.1468	0.2604	0.0102	-0.009
Mof_C 	C 	0.1679	0.2204	0.9233	-0.079
Mof_H 	H 	0.1034	0.1965	0.9253	0.021
Mof_H 	H 	0.1748	0.2357	0.8806	-0.057
Mof_C 	C 	0.3536	0.2172	0.9403	-0.083
Mof_H 	H 	0.3713	0.2313	0.8984	-0.032
Mof_H 	H 	0.4112	0.1916	0.9549	0.044
Mof_C 	C 	0.3448	0.273	0.9834	0.008
Mof_H 	H 	0.3358	0.2592	0.0264	-0.009
Mof_H 	H 	0.4095	0.2967	0.9812	0.018
Mof_C 	C 	0.2399	0.14253	0.99344	-0.165
Mof_H 	H 	0.2132	0.1686	0.0268	0.054
Mof_H 	H 	0.306	0.1246	0.0074	0.046
Mof_C 	C 	0.1604	0.0913	0.9793	0.434
Mof_N 	N 	0.7402	0.45644	0.68557	-0.158
Mof_N 	N 	0.7602	0.52044	0.80931	-0.161
Mof_N 	N 	0.2543	0.3128	0.96538	-0.133
Mof_N 	N 	0.2577	0.17933	0.93661	-0.18
Mof_O 	O 	0.6192	0.42809	0.58318	-0.498
Mof_O 	O 	0.576	0.52531	0.56808	-0.478
Mof_O 	O 	0.8801	0.55874	0.90802	-0.494
Mof_O 	O 	0.9205	0.46371	0.93616	-0.46
Mof_O 	O 	0.1095	0.43565	0.03304	-0.539
Mof_O 	O 	0.1504	0.4182	0.9335	-0.534
Mof_O 	O 	0.1101	0.06946	0.02547	-0.516
Mof_O 	O 	0.1512	0.07219	0.92521	-0.514
Mof_Zn	Zn	0.74083	0.37197	0.62517	1.151
Mof_Zn	Zn	0.75996	0.61035	0.85921	1.151
Mof_C 	C 	0.1296	0.0164	0.4053	0.308
Mof_C 	C 	0.2096	0.9941	0.3584	-0.236
Mof_H 	H 	0.2717	0.9795	0.3805	0.123
Mof_H 	H 	0.1805	0.9599	0.3349	0.11
Mof_C 	C 	0.3439	0.0302	0.2849	-0.136
Mof_H 	H 	0.3956	0.0229	0.3177	0.035
Mof_H 	H 	0.3666	0.0658	0.261	0.017
Mof_C 	C 	0.3397	0.9746	0.2417	0.012
Mof_H 	H 	0.4086	0.9688	0.2229	0.003
Mof_H 	H 	0.3241	0.9384	0.2667	-0.026
Mof_C 	C 	0.157	0.9953	0.219	0.124
Mof_H 	H 	0.1312	0.96	0.2423	-0.043
Mof_H 	H 	0.107	0.0038	0.1856	-0.057
Mof_C 	C 	0.1617	0.0509	0.2632	-0.182
Mof_H 	H 	0.1791	0.0873	0.239	0.028
Mof_H 	H 	0.0925	0.0573	0.2816	0.041
Mof_C 	C 	0.2921	0.0247	0.1429	-0.498
Mof_H 	H 	0.3234	0.0601	0.1633	0.167
Mof_H 	H 	0.2304	0.0385	0.12	0.172
Mof_C 	C 	0.3706	0.9972	0.0972	0.551
Mof_C 	C 	0.661	0.0916	0.0094	0.301
Mof_C 	C 	0.7416	0.13825	0.98738	-0.24
Mof_H 	H 	0.8087	0.118	0.9804	0.116
Mof_H 	H 	0.7188	0.1561	0.9479	0.102
Mof_C 	C 	0.658	0.225	0.0323	-0.217
Mof_H 	H 	0.5977	0.2002	0.0443	0.052
Mof_H 	H 	0.6468	0.2396	0.9898	0.115
Mof_C 	C 	0.6679	0.2796	0.0767	0.003
Mof_H 	H 	0.6034	0.3035	0.0747	-0.014
Mof_H 	H 	0.6748	0.2643	0.1194	-0.078
Mof_C 	C 	0.8536	0.2828	0.0597	-0.008
Mof_H 	H 	0.8713	0.2687	0.1016	-0.052
Mof_H 	H 	0.9112	0.3084	0.0451	-0.002
Mof_C 	C 	0.8448	0.227	0.0166	-0.204
Mof_H 	H 	0.8358	0.2408	0.9736	0.108
Mof_H 	H 	0.9095	0.2033	0.0188	0.053
Mof_C 	C 	0.7399	0.35747	0.00656	-0.526
Mof_H 	H 	0.7132	0.3314	0.9732	0.214
Mof_H 	H 	0.806	0.3754	0.9926	0.222
Mof_C 	C 	0.6604	0.4087	0.0207	0.412
Mof_N 	N 	0.2402	0.04356	0.31443	-0.168
Mof_N 	N 	0.2602	0.97956	0.19069	-0.156
Mof_N 	N 	0.7543	0.1872	0.03462	-0.146
Mof_N 	N 	0.7577	0.32067	0.06339	-0.162
Mof_O 	O 	0.1192	0.07191	0.41682	-0.47
Mof_O 	O 	0.076	0.97469	0.43192	-0.408
Mof_O 	O 	0.3801	0.94126	0.09198	-0.533
Mof_O 	O 	0.4205	0.03629	0.06384	-0.545
Mof_O 	O 	0.6095	0.06435	0.96696	-0.417
Mof_O 	O 	0.6504	0.0818	0.0665	-0.488
Mof_O 	O 	0.6101	0.43054	0.97453	-0.437
Mof_O 	O 	0.6512	0.42781	0.07479	-0.51
Mof_Zn	Zn	0.24083	0.12803	0.37483	1.149
Mof_Zn	Zn	0.25996	0.88965	0.14079	1.155
Mof_C 	C 	0.6296	0.5164	0.4053	0.431
Mof_C 	C 	0.7096	0.4941	0.3584	-0.371
Mof_H 	H 	0.7717	0.4795	0.3805	0.147
Mof_H 	H 	0.6805	0.4599	0.3349	0.139
Mof_C 	C 	0.8439	0.5302	0.2849	-0.065
Mof_H 	H 	0.8956	0.5229	0.3177	0.03
Mof_H 	H 	0.8666	0.5658	0.261	0.004
Mof_C 	C 	0.8397	0.4746	0.2417	-0.058
Mof_H 	H 	0.9086	0.4688	0.2229	0.011
Mof_H 	H 	0.8241	0.4384	0.2667	-0.011
Mof_C 	C 	0.657	0.4953	0.219	-0.063
Mof_H 	H 	0.6312	0.46	0.2423	-0
Mof_H 	H 	0.607	0.5038	0.1856	0.031
Mof_C 	C 	0.6617	0.5509	0.2632	-0.059
Mof_H 	H 	0.6791	0.5873	0.239	-0.005
Mof_H 	H 	0.5925	0.5573	0.2816	0.011
Mof_C 	C 	0.7921	0.5247	0.1429	-0.363
Mof_H 	H 	0.8234	0.5601	0.1633	0.137
Mof_H 	H 	0.7304	0.5385	0.12	0.144
Mof_C 	C 	0.8706	0.4972	0.0972	0.425
Mof_C 	C 	0.161	0.5916	0.0094	0.303
Mof_C 	C 	0.2416	0.63825	0.98738	-0.242
Mof_H 	H 	0.3087	0.618	0.9804	0.119
Mof_H 	H 	0.2188	0.6561	0.9479	0.104
Mof_C 	C 	0.158	0.725	0.0323	-0.214
Mof_H 	H 	0.0977	0.7002	0.0443	0.052
Mof_H 	H 	0.1468	0.7396	0.9898	0.114
Mof_C 	C 	0.1679	0.7796	0.0767	0.001
Mof_H 	H 	0.1034	0.8035	0.0747	-0.012
Mof_H 	H 	0.1748	0.7643	0.1194	-0.075
Mof_C 	C 	0.3536	0.7828	0.0597	-0.009
Mof_H 	H 	0.3713	0.7687	0.1016	-0.05
Mof_H 	H 	0.4112	0.8084	0.0451	0
Mof_C 	C 	0.3448	0.727	0.0166	-0.202
Mof_H 	H 	0.3358	0.7408	0.9736	0.108
Mof_H 	H 	0.4095	0.7033	0.0188	0.054
Mof_C 	C 	0.2399	0.85747	0.00656	-0.518
Mof_H 	H 	0.2132	0.8314	0.9732	0.212
Mof_H 	H 	0.306	0.8754	0.9926	0.221
Mof_C 	C 	0.1604	0.9087	0.0207	0.41
Mof_N 	N 	0.7402	0.54356	0.31443	-0.158
Mof_N 	N 	0.7602	0.47956	0.19069	-0.16
Mof_N 	N 	0.2543	0.6872	0.03462	-0.145
Mof_N 	N 	0.2577	0.82067	0.06339	-0.162
Mof_O 	O 	0.6192	0.57191	0.41682	-0.497
Mof_O 	O 	0.576	0.47469	0.43192	-0.478
Mof_O 	O 	0.8801	0.44126	0.09198	-0.508
Mof_O 	O 	0.9205	0.53629	0.06384	-0.482
Mof_O 	O 	0.1095	0.56435	0.96696	-0.406
Mof_O 	O 	0.1504	0.5818	0.0665	-0.48
Mof_O 	O 	0.1101	0.93054	0.97453	-0.422
Mof_O 	O 	0.1512	0.92781	0.07479	-0.495
Mof_Zn	Zn	0.74083	0.62803	0.37483	1.151
Mof_Zn	Zn	0.75996	0.38965	0.14079	1.152
Mof_C 	C 	0.8704	0.9836	0.9053	0.54
Mof_C 	C 	0.7904	0.0059	0.8584	-0.492
Mof_H 	H 	0.7283	0.0205	0.8805	0.172
Mof_H 	H 	0.8195	0.0401	0.8349	0.165
Mof_C 	C 	0.6561	0.9698	0.7849	0
Mof_H 	H 	0.6044	0.9771	0.8177	0.027
Mof_H 	H 	0.6334	0.9342	0.761	-0.008
Mof_C 	C 	0.6603	0.0254	0.7417	-0.123
Mof_H 	H 	0.5914	0.0312	0.7229	0.019
Mof_H 	H 	0.6759	0.0616	0.7667	0.004
Mof_C 	C 	0.843	0.0047	0.719	-0.236
Mof_H 	H 	0.8688	0.04	0.7423	0.04
Mof_H 	H 	0.893	0.9962	0.6856	0.113
Mof_C 	C 	0.8383	0.9491	0.7632	0.055
Mof_H 	H 	0.8209	0.9127	0.739	-0.036
Mof_H 	H 	0.9075	0.9427	0.7816	-0.018
Mof_C 	C 	0.7079	0.9753	0.6429	-0.236
Mof_H 	H 	0.6766	0.9399	0.6633	0.109
Mof_H 	H 	0.7696	0.9615	0.62	0.119
Mof_C 	C 	0.6294	0.0028	0.5972	0.306
Mof_C 	C 	0.339	0.9084	0.5094	0.427
Mof_C 	C 	0.2584	0.86175	0.48738	-0.374
Mof_H 	H 	0.1913	0.882	0.4804	0.144
Mof_H 	H 	0.2812	0.8439	0.4479	0.139
Mof_C 	C 	0.342	0.775	0.5323	-0.108
Mof_H 	H 	0.4023	0.7998	0.5443	0.03
Mof_H 	H 	0.3532	0.7604	0.4898	0.055
Mof_C 	C 	0.3321	0.7204	0.5767	-0.038
Mof_H 	H 	0.3966	0.6965	0.5747	0.004
Mof_H 	H 	0.3252	0.7357	0.6194	-0.066
Mof_C 	C 	0.1464	0.7172	0.5597	-0.045
Mof_H 	H 	0.1287	0.7313	0.6016	-0.041
Mof_H 	H 	0.0888	0.6916	0.5451	0.022
Mof_C 	C 	0.1552	0.773	0.5166	-0.101
Mof_H 	H 	0.1642	0.7592	0.4736	0.052
Mof_H 	H 	0.0905	0.7967	0.5188	0.038
Mof_C 	C 	0.2601	0.64253	0.50656	-0.352
Mof_H 	H 	0.2868	0.6686	0.4732	0.138
Mof_H 	H 	0.194	0.6246	0.4926	0.138
Mof_C 	C 	0.3396	0.5913	0.5207	0.422
Mof_N 	N 	0.7598	0.95644	0.81443	-0.15
Mof_N 	N 	0.7398	0.02044	0.69069	-0.165
Mof_N 	N 	0.2457	0.8128	0.53462	-0.138
Mof_N 	N 	0.2423	0.67933	0.56339	-0.17
Mof_O 	O 	0.8808	0.92809	0.91682	-0.512
Mof_O 	O 	0.924	0.02531	0.93192	-0.518
Mof_O 	O 	0.6199	0.05874	0.59198	-0.476
Mof_O 	O 	0.5795	0.96371	0.56384	-0.41
Mof_O 	O 	0.3905	0.93565	0.46696	-0.457
Mof_O 	O 	0.3496	0.9182	0.5665	-0.498
Mof_O 	O 	0.3899	0.56946	0.47453	-0.472
Mof_O 	O 	0.3488	0.57219	0.57479	-0.507
Mof_Zn	Zn	0.75917	0.87197	0.87483	1.153
Mof_Zn	Zn	0.74004	0.11035	0.64079	1.149
Mof_C 	C 	0.3704	0.4836	0.9053	0.429
Mof_C 	C 	0.2904	0.5059	0.8584	-0.369
Mof_H 	H 	0.2283	0.5205	0.8805	0.149
Mof_H 	H 	0.3195	0.5401	0.8349	0.139
Mof_C 	C 	0.1561	0.4698	0.7849	-0.066
Mof_H 	H 	0.1044	0.4771	0.8177	0.032
Mof_H 	H 	0.1334	0.4342	0.761	0.005
Mof_C 	C 	0.1603	0.5254	0.7417	-0.059
Mof_H 	H 	0.0914	0.5312	0.7229	0.012
Mof_H 	H 	0.1759	0.5616	0.7667	-0.01
Mof_C 	C 	0.343	0.5047	0.719	-0.063
Mof_H 	H 	0.3688	0.54	0.7423	0
Mof_H 	H 	0.393	0.4962	0.6856	0.032
Mof_C 	C 	0.3383	0.4491	0.7632	-0.059
Mof_H 	H 	0.3209	0.4127	0.739	-0.006
Mof_H 	H 	0.4075	0.4427	0.7816	0.011
Mof_C 	C 	0.2079	0.4753	0.6429	-0.362
Mof_H 	H 	0.1766	0.4399	0.6633	0.137
Mof_H 	H 	0.2696	0.4615	0.62	0.145
Mof_C 	C 	0.1294	0.5028	0.5972	0.424
Mof_C 	C 	0.839	0.4084	0.5094	0.428
Mof_C 	C 	0.7584	0.36175	0.48738	-0.375
Mof_H 	H 	0.6913	0.382	0.4804	0.142
Mof_H 	H 	0.7812	0.3439	0.4479	0.138
Mof_C 	C 	0.842	0.275	0.5323	-0.108
Mof_H 	H 	0.9023	0.2998	0.5443	0.029
Mof_H 	H 	0.8532	0.2604	0.4898	0.054
Mof_C 	C 	0.8321	0.2204	0.5767	-0.037
Mof_H 	H 	0.8966	0.1965	0.5747	0.002
Mof_H 	H 	0.8252	0.2357	0.6194	-0.068
Mof_C 	C 	0.6464	0.2172	0.5597	-0.044
Mof_H 	H 	0.6287	0.2313	0.6016	-0.043
Mof_H 	H 	0.5888	0.1916	0.5451	0.02
Mof_C 	C 	0.6552	0.273	0.5166	-0.101
Mof_H 	H 	0.6642	0.2592	0.4736	0.051
Mof_H 	H 	0.5905	0.2967	0.5188	0.036
Mof_C 	C 	0.7601	0.14253	0.50656	-0.354
Mof_H 	H 	0.7868	0.1686	0.4732	0.137
Mof_H 	H 	0.694	0.1246	0.4926	0.137
Mof_C 	C 	0.8396	0.0913	0.5207	0.424
Mof_N 	N 	0.2598	0.45644	0.81443	-0.158
Mof_N 	N 	0.2398	0.52044	0.69069	-0.16
Mof_N 	N 	0.7457	0.3128	0.53462	-0.139
Mof_N 	N 	0.7423	0.17933	0.56339	-0.171
Mof_O 	O 	0.3808	0.42809	0.91682	-0.487
Mof_O 	O 	0.424	0.52531	0.93192	-0.46
Mof_O 	O 	0.1199	0.55874	0.59198	-0.501
Mof_O 	O 	0.0795	0.46371	0.56384	-0.473
Mof_O 	O 	0.8905	0.43565	0.46696	-0.476
Mof_O 	O 	0.8496	0.4182	0.5665	-0.508
Mof_O 	O 	0.8899	0.06946	0.47453	-0.484
Mof_O 	O 	0.8488	0.07219	0.57479	-0.52
Mof_Zn	Zn	0.25917	0.37197	0.87483	1.152
Mof_Zn	Zn	0.24004	0.61035	0.64079	1.152
Mof_Zn	Zn	0.01961	0	-0	1.217
Mof_Zn	Zn	0.51961	0.5	-0	1.232
Mof_Zn	Zn	0.98039	0	0.5	1.232
Mof_Zn	Zn	0.48039	0.5	0.5	1.247
Mof_Zn	Zn	0.4862	0	0.5	1.231
Mof_Zn	Zn	0.9862	0.5	0.5	1.245
Mof_Zn	Zn	0.5138	0	-0	1.216
Mof_Zn	Zn	0.0138	0.5	-0	1.231
_end
