data_functionalizedCrystal
_audit_creation_method	'EQeq! by Chris Wilmer'
_symmetry_space_group_name_H-M	'P1'
_symmetry_Int_Tables_number	1
_symmetry_cell_setting	triclinic
loop_
_symmetry_equiv_pos_as_xyz
  x,y,z
_cell_length_a	14.8273
_cell_length_b	14.8273
_cell_length_c	20.9174
_cell_angle_alpha	90
_cell_angle_beta	90
_cell_angle_gamma	90
loop_
_atom_site_label
_atom_site_type_symbol
_atom_site_fract_x
_atom_site_fract_y
_atom_site_fract_z
_atom_site_charge
Mof_C 	C 	0.8464	0.1597	0.1501	0.589
Mof_C 	C 	0.2894	0.7009	0.2989	-0.176
Mof_C 	C 	0.2755	0.7347	0.8138	-0.002
Mof_C 	C 	0.4188	0.0469	0.5079	-0.184
Mof_C 	C 	0.3094	0.3198	0.2353	0.008
Mof_H 	H 	0.0846	0.6441	0.4922	0.068
Mof_H 	H 	0.8603	0.8707	0.7257	0.055
Mof_H 	H 	0.2798	0.2898	0.1363	-0.021
Mof_O 	O 	0.4029	0.6023	0.6693	-0.854
Mof_O 	O 	0.765	0.4242	0.4959	-0.659
Mof_O 	O 	0.6727	0.6747	0.5922	-0.691
Mof_C 	C 	0.3464	0.6597	0.6501	0.619
Mof_C 	C 	0.7894	0.2009	0.7989	-0.122
Mof_C 	C 	0.7755	0.2347	0.3138	0.007
Mof_C 	C 	0.9188	0.5469	0.0079	0.052
Mof_C 	C 	0.8094	0.8198	0.7353	0.015
Mof_H 	H 	0.5846	0.1441	0.9922	0.097
Mof_H 	H 	0.3603	0.3707	0.2257	-0.003
Mof_H 	H 	0.7798	0.7898	0.6363	0.043
Mof_O 	O 	0.9029	0.1023	0.1693	-0.737
Mof_O 	O 	0.265	0.9242	0.9959	-0.407
Mof_O 	O 	0.1727	0.1747	0.0922	-0.776
Mof_C 	C 	0.1536	0.8403	0.1501	0.589
Mof_C 	C 	0.7106	0.2991	0.2989	-0.175
Mof_C 	C 	0.7245	0.2653	0.8138	-0
Mof_C 	C 	0.5812	0.9531	0.5079	0.187
Mof_C 	C 	0.6906	0.6802	0.2353	0.021
Mof_H 	H 	0.9154	0.3559	0.4922	0.007
Mof_H 	H 	0.1397	0.1293	0.7257	-0
Mof_H 	H 	0.7202	0.7102	0.1363	-0.012
Mof_O 	O 	0.5971	0.3977	0.6693	-0.854
Mof_O 	O 	0.235	0.5758	0.4959	-0.645
Mof_O 	O 	0.3273	0.3253	0.5922	-0.704
Mof_C 	C 	0.6536	0.3403	0.6501	0.619
Mof_C 	C 	0.2106	0.7991	0.7989	-0.121
Mof_C 	C 	0.2245	0.7653	0.3138	0.006
Mof_C 	C 	0.0812	0.4531	0.0079	-0.018
Mof_C 	C 	0.1906	0.1802	0.7353	0.004
Mof_H 	H 	0.4154	0.8559	0.9922	0.092
Mof_H 	H 	0.6397	0.6293	0.2257	-0
Mof_H 	H 	0.2202	0.2102	0.6363	0.013
Mof_O 	O 	0.0971	0.8977	0.1693	-0.74
Mof_O 	O 	0.735	0.0758	0.9959	-0.487
Mof_O 	O 	0.8273	0.8253	0.0922	-0.744
Mof_C 	C 	0.1597	0.1536	0.8499	0.553
Mof_C 	C 	0.7009	0.7106	0.7011	-0.175
Mof_C 	C 	0.7347	0.7245	0.1862	0
Mof_C 	C 	0.0469	0.5812	0.4921	-0.176
Mof_C 	C 	0.3198	0.6906	0.7647	0.052
Mof_H 	H 	0.6441	0.9154	0.5078	0.012
Mof_H 	H 	0.8707	0.1397	0.2743	0.024
Mof_H 	H 	0.2898	0.7202	0.8637	0.085
Mof_O 	O 	0.6023	0.5971	0.3307	-0.859
Mof_O 	O 	0.4242	0.235	0.5041	-0.65
Mof_O 	O 	0.6747	0.3273	0.4078	-0.698
Mof_C 	C 	0.6597	0.6536	0.3499	0.613
Mof_C 	C 	0.2009	0.2106	0.2011	-0.197
Mof_C 	C 	0.2347	0.2245	0.6862	0.012
Mof_C 	C 	0.5469	0.0812	0.9921	0.035
Mof_C 	C 	0.8198	0.1906	0.2647	0.023
Mof_H 	H 	0.1441	0.4154	0.0078	-0.031
Mof_H 	H 	0.3707	0.6397	0.7743	0.034
Mof_H 	H 	0.7898	0.2202	0.3637	0.032
Mof_O 	O 	0.1023	0.0971	0.8307	-0.774
Mof_O 	O 	0.9242	0.735	0.0041	-0.709
Mof_O 	O 	0.1747	0.8273	0.9078	-0.568
Mof_C 	C 	0.8403	0.8464	0.8499	0.548
Mof_C 	C 	0.2991	0.2894	0.7011	-0.182
Mof_C 	C 	0.2653	0.2755	0.1862	-0.002
Mof_C 	C 	0.9531	0.4188	0.4921	0.197
Mof_C 	C 	0.6802	0.3094	0.7647	0.052
Mof_H 	H 	0.3559	0.0846	0.5078	0.057
Mof_H 	H 	0.1293	0.8603	0.2743	0.022
Mof_H 	H 	0.7102	0.2798	0.8637	0.086
Mof_O 	O 	0.3977	0.4029	0.3307	-0.862
Mof_O 	O 	0.5758	0.765	0.5041	-0.658
Mof_O 	O 	0.3253	0.6727	0.4078	-0.698
Mof_C 	C 	0.3403	0.3464	0.3499	0.609
Mof_C 	C 	0.7991	0.7894	0.2011	-0.165
Mof_C 	C 	0.7653	0.7755	0.6862	0.035
Mof_C 	C 	0.4531	0.9188	0.9921	0.112
Mof_C 	C 	0.1802	0.8094	0.2647	0.022
Mof_H 	H 	0.8559	0.5846	0.0078	-0.034
Mof_H 	H 	0.6293	0.3603	0.7743	0.034
Mof_H 	H 	0.2102	0.7798	0.3637	0.031
Mof_O 	O 	0.8977	0.9029	0.8307	-0.669
Mof_O 	O 	0.0758	0.265	0.0041	-0.775
Mof_O 	O 	0.8253	0.1727	0.9078	-0.566
Mof_C 	C 	0.8464	0.8403	0.1501	0.588
Mof_C 	C 	0.2894	0.2991	0.2989	-0.179
Mof_C 	C 	0.2755	0.2653	0.8138	-0.001
Mof_C 	C 	0.4188	0.9531	0.5079	0.191
Mof_C 	C 	0.3094	0.6802	0.2353	0.015
Mof_H 	H 	0.0846	0.3559	0.4922	0.06
Mof_H 	H 	0.8603	0.1293	0.7257	0.031
Mof_H 	H 	0.2798	0.7102	0.1363	-0.016
Mof_O 	O 	0.4029	0.3977	0.6693	-0.856
Mof_O 	O 	0.765	0.5758	0.4959	-0.656
Mof_O 	O 	0.6727	0.3253	0.5922	-0.697
Mof_C 	C 	0.3464	0.3403	0.6501	0.616
Mof_C 	C 	0.7894	0.7991	0.7989	-0.108
Mof_C 	C 	0.7755	0.7653	0.3138	0.016
Mof_C 	C 	0.9188	0.4531	0.0079	0.058
Mof_C 	C 	0.8094	0.1802	0.7353	0.009
Mof_H 	H 	0.5846	0.8559	0.9922	0.093
Mof_H 	H 	0.3603	0.6293	0.2257	-0.002
Mof_H 	H 	0.7798	0.2102	0.6363	0.03
Mof_O 	O 	0.9029	0.8977	0.1693	-0.697
Mof_O 	O 	0.265	0.0758	0.9959	-0.486
Mof_O 	O 	0.1727	0.8253	0.0922	-0.756
Mof_C 	C 	0.1536	0.1597	0.1501	0.593
Mof_C 	C 	0.7106	0.7009	0.2989	-0.172
Mof_C 	C 	0.7245	0.7347	0.8138	0.001
Mof_C 	C 	0.5812	0.0469	0.5079	-0.177
Mof_C 	C 	0.6906	0.3198	0.2353	0.015
Mof_H 	H 	0.9154	0.6441	0.4922	0.013
Mof_H 	H 	0.1397	0.8707	0.7257	0.033
Mof_H 	H 	0.7202	0.2898	0.1363	-0.016
Mof_O 	O 	0.5971	0.6023	0.6693	-0.852
Mof_O 	O 	0.235	0.4242	0.4959	-0.648
Mof_O 	O 	0.3273	0.6747	0.5922	-0.698
Mof_C 	C 	0.6536	0.6597	0.6501	0.621
Mof_C 	C 	0.2106	0.2009	0.7989	-0.14
Mof_C 	C 	0.2245	0.2347	0.3138	-0.007
Mof_C 	C 	0.0812	0.5469	0.0079	-0.019
Mof_C 	C 	0.1906	0.8198	0.7353	0.01
Mof_H 	H 	0.4154	0.1441	0.9922	0.096
Mof_H 	H 	0.6397	0.3707	0.2257	-0.002
Mof_H 	H 	0.2202	0.7898	0.6363	0.03
Mof_O 	O 	0.0971	0.1023	0.1693	-0.8
Mof_O 	O 	0.735	0.9242	0.9959	-0.419
Mof_O 	O 	0.8273	0.1747	0.0922	-0.758
Mof_C 	C 	0.1597	0.8464	0.8499	0.55
Mof_C 	C 	0.7009	0.2894	0.7011	-0.178
Mof_C 	C 	0.7347	0.2755	0.1862	-0.002
Mof_C 	C 	0.0469	0.4188	0.4921	-0.183
Mof_C 	C 	0.3198	0.3094	0.7647	0.045
Mof_H 	H 	0.6441	0.0846	0.5078	0.066
Mof_H 	H 	0.8707	0.8603	0.2743	0.046
Mof_H 	H 	0.2898	0.2798	0.8637	0.081
Mof_O 	O 	0.6023	0.4029	0.3307	-0.86
Mof_O 	O 	0.4242	0.765	0.5041	-0.66
Mof_O 	O 	0.6747	0.6727	0.4078	-0.692
Mof_C 	C 	0.6597	0.3464	0.3499	0.611
Mof_C 	C 	0.2009	0.7894	0.2011	-0.179
Mof_C 	C 	0.2347	0.7755	0.6862	0.025
Mof_C 	C 	0.5469	0.9188	0.9921	0.106
Mof_C 	C 	0.8198	0.8094	0.2647	0.027
Mof_H 	H 	0.1441	0.5846	0.0078	-0.031
Mof_H 	H 	0.3707	0.3603	0.7743	0.032
Mof_H 	H 	0.7898	0.7798	0.3637	0.044
Mof_O 	O 	0.1023	0.9029	0.8307	-0.71
Mof_O 	O 	0.9242	0.265	0.0041	-0.697
Mof_O 	O 	0.1747	0.1727	0.9078	-0.587
Mof_C 	C 	0.8403	0.1536	0.8499	0.55
Mof_C 	C 	0.2991	0.7106	0.7011	-0.178
Mof_C 	C 	0.2653	0.7245	0.1862	-0.002
Mof_C 	C 	0.9531	0.5812	0.4921	0.193
Mof_C 	C 	0.6802	0.6906	0.7647	0.057
Mof_H 	H 	0.3559	0.9154	0.5078	0.006
Mof_H 	H 	0.1293	0.1397	0.2743	-0.009
Mof_H 	H 	0.7102	0.7202	0.8637	0.09
Mof_O 	O 	0.3977	0.5971	0.3307	-0.86
Mof_O 	O 	0.5758	0.235	0.5041	-0.646
Mof_O 	O 	0.3253	0.3273	0.4078	-0.705
Mof_C 	C 	0.3403	0.6536	0.3499	0.611
Mof_C 	C 	0.7991	0.2106	0.2011	-0.178
Mof_C 	C 	0.7653	0.2245	0.6862	0.025
Mof_C 	C 	0.4531	0.0812	0.9921	0.036
Mof_C 	C 	0.1802	0.1906	0.2647	0.016
Mof_H 	H 	0.8559	0.4154	0.0078	-0.035
Mof_H 	H 	0.6293	0.6397	0.7743	0.035
Mof_H 	H 	0.2102	0.2202	0.3637	0.015
Mof_O 	O 	0.8977	0.0971	0.8307	-0.712
Mof_O 	O 	0.0758	0.735	0.0041	-0.777
Mof_O 	O 	0.8253	0.8273	0.9078	-0.553
Mof_C 	C 	0.5	0.0945	0.5076	-0.034
Mof_C 	C 	-6.82145e-33	0.5945	0.0076	-0.254
Mof_C 	C 	0.5	0.9055	0.5076	-0.231
Mof_C 	C 	-1.33213e-33	0.4055	0.0076	-0.256
Mof_C 	C 	0.0945	0.5	0.4924	-0.029
Mof_C 	C 	0.5945	0	0.9924	-0.146
Mof_C 	C 	0.9055	0.5	0.4924	-0.229
Mof_C 	C 	0.4055	0	0.9924	-0.148
Mof_C 	C 	0.1959	0.5	0.4944	0.462
Mof_O 	O 	0.3996	0.5	0.4514	-1.51
Mof_O 	O 	0.3625	0.5	0.5655	-1.303
Mof_C 	C 	0.6959	0	0.9944	0.407
Mof_O 	O 	0.8996	0	0.9514	-1.264
Mof_O 	O 	0.8625	0	0.0655	-1.336
Mof_C 	C 	0.8041	0.5	0.4944	0.542
Mof_O 	O 	0.6004	0.5	0.4514	-1.509
Mof_O 	O 	0.6375	0.5	0.5655	-1.304
Mof_C 	C 	0.3041	0	0.9944	0.395
Mof_O 	O 	0.1004	0	0.9514	-1.327
Mof_O 	O 	0.1375	0	0.0655	-1.376
Mof_C 	C 	0.5	0.8041	0.5056	0.54
Mof_O 	O 	0.5	0.6004	0.5486	-1.514
Mof_O 	O 	0.5	0.6375	0.4345	-1.298
Mof_C 	C 	-5.61499e-35	0.3041	0.0056	0.414
Mof_O 	O 	-1.80143e-33	0.1004	0.0486	-1.575
Mof_O 	O 	1.59216e-32	0.1375	0.9345	-1.125
Mof_C 	C 	0.5	0.1959	0.5056	0.461
Mof_O 	O 	0.5	0.3996	0.5486	-1.516
Mof_O 	O 	0.5	0.3625	0.4345	-1.298
Mof_C 	C 	5.43317e-33	0.6959	0.0056	0.426
Mof_O 	O 	-1.11526e-33	0.8996	0.0486	-1.513
Mof_O 	O 	-6.03569e-33	0.8625	0.9345	-1.084
Mof_Ce	Ce	4.633e-33	0	0.8759	3.551
Mof_Ce	Ce	0.5	0.5	0.3759	4.375
Mof_Ce	Ce	2.02875e-33	1.37233e-33	0.1241	3.63
Mof_Ce	Ce	0.5	0.5	0.6241	4.418
Mof_H 	H 	-6.16633e-33	0.8076	0.9098	0.339
Mof_H 	H 	0.5	0.3076	0.4098	0.318
Mof_H 	H 	-6.16633e-33	0.1924	0.9098	0.344
Mof_H 	H 	0.5	0.6924	0.4098	0.324
Mof_H 	H 	0.8076	0	0.0902	0.236
Mof_H 	H 	0.3076	0.5	0.5902	0.326
Mof_H 	H 	0.1924	0	0.0902	0.241
Mof_H 	H 	0.6924	0.5	0.5902	0.332
Mof_Zr	Zr	0.3801	0.3801	0.5	3.211
Mof_Zr	Zr	0.8801	0.8801	-0	3.172
Mof_Zr	Zr	0.6199	0.6199	0.5	3.211
Mof_Zr	Zr	0.1199	0.1199	-0	3.163
Mof_Zr	Zr	0.3801	0.6199	0.5	3.211
Mof_Zr	Zr	0.8801	0.1199	-0	3.169
Mof_Zr	Zr	0.6199	0.3801	0.5	3.211
Mof_Zr	Zr	0.1199	0.8801	-0	3.169
_end
