data_functionalizedCrystal
_audit_creation_method	'EQeq! by Chris Wilmer'
_symmetry_space_group_name_H-M	'P1'
_symmetry_Int_Tables_number	1
_symmetry_cell_setting	triclinic
loop_
_symmetry_equiv_pos_as_xyz
  x,y,z
_cell_length_a	11.684
_cell_length_b	13.62
_cell_length_c	11.748
_cell_angle_alpha	90
_cell_angle_beta	91.427
_cell_angle_gamma	90
loop_
_atom_site_label
_atom_site_type_symbol
_atom_site_fract_x
_atom_site_fract_y
_atom_site_fract_z
_atom_site_charge
Mof_Be	Be	0.3521	0.2447	0.6451	0.788
Mof_Be	Be	0.2864	0.6059	0.5401	0.679
Mof_P 	P 	0.30155	0.39836	0.47101	0.657
Mof_P 	P 	0.39915	0.24671	0.89904	0.625
Mof_O 	O 	0.3533	0.2675	0.7797	-0.379
Mof_O 	O 	0.2993	0.3414	0.5809	-0.391
Mof_O 	O 	0.2372	0.3484	0.3721	-0.352
Mof_O 	O 	0.5241	0.2149	0.9022	-0.378
Mof_O 	O 	0.2523	0.501	0.4849	-0.342
Mof_O 	O 	0.3883	0.3421	0.9698	-0.386
Mof_O 	O 	0.3307	0.1651	0.9567	-0.358
Mof_O 	O 	0.4274	0.4111	0.4302	-0.554
Mof_H 	H 	0.476	0.388	0.464	0.393
Mof_Be	Be	0.8521	0.7447	0.6451	0.787
Mof_Be	Be	0.7864	0.1059	0.5401	0.677
Mof_P 	P 	0.80155	0.89836	0.47101	0.656
Mof_P 	P 	0.89915	0.74671	0.89904	0.623
Mof_O 	O 	0.8533	0.7675	0.7797	-0.378
Mof_O 	O 	0.7993	0.8414	0.5809	-0.391
Mof_O 	O 	0.7372	0.8484	0.3721	-0.352
Mof_O 	O 	0.0241	0.7149	0.9022	-0.376
Mof_O 	O 	0.7523	0.001	0.4849	-0.342
Mof_O 	O 	0.8883	0.8421	0.9698	-0.38
Mof_O 	O 	0.8307	0.6651	0.9567	-0.357
Mof_O 	O 	0.9274	0.9111	0.4302	-0.555
Mof_H 	H 	0.976	0.888	0.464	0.393
Mof_Be	Be	0.6479	0.2447	0.8549	0.786
Mof_Be	Be	0.7136	0.6059	0.9599	0.679
Mof_P 	P 	0.69845	0.39836	0.02899	0.658
Mof_P 	P 	0.60085	0.24671	0.60096	0.624
Mof_O 	O 	0.6467	0.2675	0.7203	-0.379
Mof_O 	O 	0.7007	0.3414	0.9191	-0.392
Mof_O 	O 	0.7628	0.3484	0.1279	-0.352
Mof_O 	O 	0.4759	0.2149	0.5978	-0.377
Mof_O 	O 	0.7477	0.501	0.0151	-0.343
Mof_O 	O 	0.6117	0.3421	0.5302	-0.385
Mof_O 	O 	0.6693	0.1651	0.5433	-0.358
Mof_O 	O 	0.5726	0.4111	0.0698	-0.555
Mof_H 	H 	0.524	0.388	0.036	0.394
Mof_Be	Be	0.1479	0.7447	0.8549	0.787
Mof_Be	Be	0.2136	0.1059	0.9599	0.67
Mof_P 	P 	0.19845	0.89836	0.02899	0.648
Mof_P 	P 	0.10085	0.74671	0.60096	0.624
Mof_O 	O 	0.1467	0.7675	0.7203	-0.378
Mof_O 	O 	0.2007	0.8414	0.9191	-0.386
Mof_O 	O 	0.2628	0.8484	0.1279	-0.352
Mof_O 	O 	0.9759	0.7149	0.5978	-0.378
Mof_O 	O 	0.2477	0.001	0.0151	-0.335
Mof_O 	O 	0.1117	0.8421	0.5302	-0.385
Mof_O 	O 	0.1693	0.6651	0.5433	-0.358
Mof_O 	O 	0.0726	0.9111	0.0698	-0.553
Mof_H 	H 	0.024	0.888	0.036	0.391
Mof_Be	Be	0.6479	0.7553	0.3549	0.787
Mof_Be	Be	0.7136	0.3941	0.4599	0.678
Mof_P 	P 	0.69845	0.60164	0.52899	0.656
Mof_P 	P 	0.60085	0.75329	0.10096	0.624
Mof_O 	O 	0.6467	0.7325	0.2203	-0.379
Mof_O 	O 	0.7007	0.6586	0.4191	-0.391
Mof_O 	O 	0.7628	0.6516	0.6279	-0.352
Mof_O 	O 	0.4759	0.7851	0.0978	-0.378
Mof_O 	O 	0.7477	0.499	0.5151	-0.342
Mof_O 	O 	0.6117	0.6579	0.0302	-0.386
Mof_O 	O 	0.6693	0.8349	0.0433	-0.358
Mof_O 	O 	0.5726	0.5889	0.5698	-0.554
Mof_H 	H 	0.524	0.612	0.536	0.393
Mof_Be	Be	0.1479	0.2553	0.3549	0.787
Mof_Be	Be	0.2136	0.8941	0.4599	0.677
Mof_P 	P 	0.19845	0.10164	0.52899	0.656
Mof_P 	P 	0.10085	0.25329	0.10096	0.623
Mof_O 	O 	0.1467	0.2325	0.2203	-0.378
Mof_O 	O 	0.2007	0.1586	0.4191	-0.391
Mof_O 	O 	0.2628	0.1516	0.6279	-0.352
Mof_O 	O 	0.9759	0.2851	0.0978	-0.376
Mof_O 	O 	0.2477	0.999	0.5151	-0.342
Mof_O 	O 	0.1117	0.1579	0.0302	-0.38
Mof_O 	O 	0.1693	0.3349	0.0433	-0.357
Mof_O 	O 	0.0726	0.0889	0.5698	-0.555
Mof_H 	H 	0.024	0.112	0.536	0.393
Mof_Be	Be	0.3521	0.7553	0.1451	0.786
Mof_Be	Be	0.2864	0.3941	0.0401	0.679
Mof_P 	P 	0.30155	0.60164	0.97101	0.658
Mof_P 	P 	0.39915	0.75329	0.39904	0.624
Mof_O 	O 	0.3533	0.7325	0.2797	-0.379
Mof_O 	O 	0.2993	0.6586	0.0809	-0.392
Mof_O 	O 	0.2372	0.6516	0.8721	-0.352
Mof_O 	O 	0.5241	0.7851	0.4022	-0.377
Mof_O 	O 	0.2523	0.499	0.9849	-0.343
Mof_O 	O 	0.3883	0.6579	0.4698	-0.385
Mof_O 	O 	0.3307	0.8349	0.4567	-0.358
Mof_O 	O 	0.4274	0.5889	0.9302	-0.555
Mof_H 	H 	0.476	0.612	0.964	0.394
Mof_Be	Be	0.8521	0.2553	0.1451	0.787
Mof_Be	Be	0.7864	0.8941	0.0401	0.67
Mof_P 	P 	0.80155	0.10164	0.97101	0.648
Mof_P 	P 	0.89915	0.25329	0.39904	0.624
Mof_O 	O 	0.8533	0.2325	0.2797	-0.378
Mof_O 	O 	0.7993	0.1586	0.0809	-0.386
Mof_O 	O 	0.7372	0.1516	0.8721	-0.352
Mof_O 	O 	0.0241	0.2851	0.4022	-0.378
Mof_O 	O 	0.7523	0.999	0.9849	-0.335
Mof_O 	O 	0.8883	0.1579	0.4698	-0.385
Mof_O 	O 	0.8307	0.3349	0.4567	-0.358
Mof_O 	O 	0.9274	0.0889	0.9302	-0.553
Mof_H 	H 	0.976	0.112	0.964	0.391
_end
