data_functionalizedCrystal
_audit_creation_method	'EQeq! by Chris Wilmer'
_symmetry_space_group_name_H-M	'P1'
_symmetry_Int_Tables_number	1
_symmetry_cell_setting	triclinic
loop_
_symmetry_equiv_pos_as_xyz
  x,y,z
_cell_length_a	16.3128
_cell_length_b	16.4758
_cell_length_c	29.1404
_cell_angle_alpha	90
_cell_angle_beta	91.924
_cell_angle_gamma	90
loop_
_atom_site_label
_atom_site_type_symbol
_atom_site_fract_x
_atom_site_fract_y
_atom_site_fract_z
_atom_site_charge
Mof_Li	Li	0.8561	0.3778	0.07736	1.59
Mof_Li	Li	0.8478	0.2162	0.13654	3.115
Mof_Li	Li	0.4038	0.3149	0.24456	3.109
Mof_Li	Li	0.1503	0.7087	0.19147	5.415
Mof_Li	Li	0.3434	0.2434	0.96767	1.876
Mof_O 	O 	0.94334	0.38522	0.12224	-0.901
Mof_O 	O 	0.9568	0.25693	0.14615	-1.126
Mof_C 	C 	0.97877	0.32966	0.14442	0.683
Mof_O 	O 	0.20534	0.17362	0.23144	-0.575
Mof_O 	O 	0.29712	0.26386	0.25676	-2.082
Mof_C 	C 	0.23157	0.24446	0.23615	0.892
Mof_O 	O 	0.22849	0.54683	0.24584	-0.517
Mof_O 	O 	0.13351	0.59485	0.19608	-1.586
Mof_C 	C 	0.16898	0.53895	0.21535	0.805
Mof_C 	C 	0.05615	0.35253	0.17215	-0.455
Mof_C 	C 	0.10677	0.29112	0.1903	0.341
Mof_H 	H 	0.0925	0.2359	0.1852	-0.109
Mof_C 	C 	0.17822	0.31045	0.21586	-0.568
Mof_C 	C 	0.19775	0.39132	0.22408	0.401
Mof_H 	H 	0.2456	0.4048	0.242	-0.192
Mof_C 	C 	0.14742	0.45279	0.20622	-0.526
Mof_C 	C 	0.07717	0.43307	0.17985	0.348
Mof_H 	H 	0.0436	0.4751	0.1671	-0.132
Mof_O 	O 	0.79536	0.27141	0.08282	-1.332
Mof_O 	O 	0.66395	0.2424	0.09337	-0.489
Mof_C 	C 	0.72318	0.2601	0.06864	0.581
Mof_O 	O 	0.45906	0.2702	0.96679	-0.848
Mof_O 	O 	0.50358	0.3024	0.89779	-0.36
Mof_C 	C 	0.51381	0.2831	0.94011	0.536
Mof_O 	O 	0.79443	0.27687	0.86454	-1.567
Mof_O 	O 	0.88425	0.25182	0.92201	-0.542
Mof_C 	C 	0.81064	0.26645	0.90514	0.805
Mof_C 	C 	0.70288	0.2656	0.01813	-0.47
Mof_C 	C 	0.62146	0.27022	0.00267	0.268
Mof_H 	H 	0.5788	0.2685	0.0241	-0.114
Mof_C 	C 	0.60213	0.2774	0.95583	-0.399
Mof_C 	C 	0.66454	0.27692	0.9244	0.3
Mof_H 	H 	0.6517	0.2819	0.8925	-0.09
Mof_C 	C 	0.74576	0.26915	0.93985	-0.493
Mof_C 	C 	0.76498	0.26452	0.98664	0.3
Mof_H 	H 	0.8206	0.2606	0.9971	-0.19
Mof_O 	O 	0.78629	0.2304	0.1917	-1.075
Mof_O 	O 	0.65319	0.2454	0.17613	-0.48
Mof_C 	C 	0.71595	0.2384	0.20386	0.647
Mof_O 	O 	0.45365	0.26341	0.29886	-2.06
Mof_O 	O 	0.50114	0.2534	0.37099	-0.62
Mof_C 	C 	0.51039	0.25591	0.32856	0.867
Mof_O 	O 	0.79189	0.2294	0.40933	-0.858
Mof_O 	O 	0.87596	0.1925	0.3542	-0.362
Mof_C 	C 	0.80674	0.215	0.36906	0.535
Mof_C 	C 	0.69538	0.2383	0.25349	-0.474
Mof_C 	C 	0.615	0.24921	0.26679	0.408
Mof_H 	H 	0.5725	0.2572	0.2442	-0.261
Mof_C 	C 	0.5967	0.24845	0.31306	-0.551
Mof_C 	C 	0.66009	0.2368	0.34579	0.317
Mof_H 	H 	0.6484	0.2369	0.3775	-0.136
Mof_C 	C 	0.74021	0.2249	0.33239	-0.413
Mof_C 	C 	0.75807	0.2256	0.28622	0.297
Mof_H 	H 	0.8128	0.2175	0.277	-0.084
Mof_O 	O 	0.4119	0.4171	0.2321	-1.036
Mof_C 	C 	0.4459	0.482	0.2418	0.259
Mof_C 	C 	0.5027	0.4907	0.2842	-0.504
Mof_H 	H 	0.5506	0.454	0.2826	0.067
Mof_H 	H 	0.4733	0.4796	0.3127	0.081
Mof_C 	C 	0.5282	0.5799	0.2811	0.122
Mof_H 	H 	0.5111	0.6094	0.3088	-0.102
Mof_H 	H 	0.5886	0.5839	0.2796	-0.131
Mof_C 	C 	0.4879	0.6177	0.2384	-0.049
Mof_H 	H 	0.4521	0.6638	0.2464	0.039
Mof_H 	H 	0.5293	0.6365	0.2167	0.036
Mof_N 	N 	0.4401	0.5498	0.21946	-0.274
Mof_C 	C 	0.3901	0.5583	0.178	0.03
Mof_H 	H 	0.3949	0.6138	0.1663	-0.095
Mof_H 	H 	0.3327	0.547	0.1847	-0.022
Mof_H 	H 	0.4087	0.5198	0.1549	0.001
Mof_O 	O 	0.4213	0.4361	0.2599	-0.251
Mof_C 	C 	0.4276	0.4976	0.2361	0.412
Mof_C 	C 	0.3906	0.503	0.1853	-0.162
Mof_H 	H 	0.4159	0.4621	0.1653	-0.006
Mof_H 	H 	0.3304	0.4947	0.1845	0.031
Mof_C 	C 	0.4116	0.5865	0.171	0.125
Mof_H 	H 	0.3609	0.6175	0.1635	0.001
Mof_H 	H 	0.445	0.5847	0.1432	-0.019
Mof_C 	C 	0.46	0.6277	0.2102	0.084
Mof_H 	H 	0.5156	0.6432	0.2009	-0.019
Mof_H 	H 	0.4311	0.6765	0.2213	-0.033
Mof_N 	N 	0.4631	0.565	0.2444	-0.081
Mof_C 	C 	0.4961	0.5669	0.2908	-0.083
Mof_H 	H 	0.5233	0.6191	0.2966	0.013
Mof_H 	H 	0.536	0.5228	0.2952	0.165
Mof_H 	H 	0.4516	0.5599	0.3122	0.004
Mof_Li	Li	0.6439	0.8778	0.42264	1.592
Mof_Li	Li	0.6522	0.7162	0.36346	3.116
Mof_Li	Li	0.0962	0.8149	0.25544	3.1
Mof_Li	Li	0.3497	0.2087	0.30853	5.414
Mof_Li	Li	0.1566	0.7434	0.53233	1.871
Mof_O 	O 	0.55666	0.88522	0.37776	-0.902
Mof_O 	O 	0.5432	0.75693	0.35385	-1.126
Mof_C 	C 	0.52123	0.82966	0.35558	0.685
Mof_O 	O 	0.29466	0.67362	0.26856	-0.575
Mof_O 	O 	0.20288	0.76386	0.24324	-2.081
Mof_C 	C 	0.26843	0.74446	0.26385	0.892
Mof_O 	O 	0.27151	0.04683	0.25416	-0.516
Mof_O 	O 	0.36649	0.09485	0.30392	-1.586
Mof_C 	C 	0.33102	0.03895	0.28465	0.806
Mof_C 	C 	0.44385	0.85253	0.32785	-0.459
Mof_C 	C 	0.39323	0.79112	0.3097	0.343
Mof_H 	H 	0.4075	0.7359	0.3148	-0.11
Mof_C 	C 	0.32178	0.81045	0.28414	-0.569
Mof_C 	C 	0.30225	0.89132	0.27592	0.402
Mof_H 	H 	0.2544	0.9048	0.258	-0.192
Mof_C 	C 	0.35258	0.95279	0.29378	-0.528
Mof_C 	C 	0.42283	0.93307	0.32015	0.35
Mof_H 	H 	0.4564	0.9751	0.3329	-0.133
Mof_O 	O 	0.70464	0.77141	0.41718	-1.333
Mof_O 	O 	0.83605	0.7424	0.40663	-0.489
Mof_C 	C 	0.77682	0.7601	0.43136	0.582
Mof_O 	O 	0.04094	0.7702	0.53321	-0.85
Mof_O 	O 	0.99642	0.8024	0.60221	-0.359
Mof_C 	C 	0.98619	0.7831	0.55989	0.538
Mof_O 	O 	0.70557	0.77687	0.63546	-1.566
Mof_O 	O 	0.61575	0.75182	0.57799	-0.541
Mof_C 	C 	0.68936	0.76645	0.59486	0.804
Mof_C 	C 	0.79712	0.7656	0.48187	-0.469
Mof_C 	C 	0.87854	0.77022	0.49733	0.268
Mof_H 	H 	0.9212	0.7685	0.4759	-0.113
Mof_C 	C 	0.89787	0.7774	0.54417	-0.4
Mof_C 	C 	0.83546	0.77692	0.5756	0.3
Mof_H 	H 	0.8483	0.7819	0.6075	-0.09
Mof_C 	C 	0.75424	0.76915	0.56015	-0.493
Mof_C 	C 	0.73502	0.76452	0.51336	0.3
Mof_H 	H 	0.6794	0.7606	0.5029	-0.19
Mof_O 	O 	0.71371	0.7304	0.3083	-1.075
Mof_O 	O 	0.84681	0.7454	0.32387	-0.48
Mof_C 	C 	0.78405	0.7384	0.29614	0.647
Mof_O 	O 	0.04635	0.76341	0.20114	-2.061
Mof_O 	O 	0.99886	0.7534	0.12901	-0.619
Mof_C 	C 	0.98961	0.75591	0.17144	0.869
Mof_O 	O 	0.70811	0.7294	0.09067	-0.859
Mof_O 	O 	0.62404	0.6925	0.1458	-0.361
Mof_C 	C 	0.69326	0.715	0.13094	0.535
Mof_C 	C 	0.80462	0.7383	0.24651	-0.474
Mof_C 	C 	0.885	0.74921	0.23321	0.408
Mof_H 	H 	0.9275	0.7572	0.2558	-0.26
Mof_C 	C 	0.9033	0.74845	0.18694	-0.551
Mof_C 	C 	0.83991	0.7368	0.15421	0.317
Mof_H 	H 	0.8516	0.7369	0.1225	-0.135
Mof_C 	C 	0.75979	0.7249	0.16761	-0.413
Mof_C 	C 	0.74193	0.7256	0.21378	0.297
Mof_H 	H 	0.6872	0.7175	0.223	-0.084
Mof_O 	O 	0.0881	0.9171	0.2679	-1.028
Mof_C 	C 	0.0541	0.982	0.2582	0.267
Mof_C 	C 	0.9973	0.9907	0.2158	-0.464
Mof_H 	H 	0.9494	0.954	0.2174	0.06
Mof_H 	H 	0.0267	0.9796	0.1873	0.068
Mof_C 	C 	0.9718	0.0799	0.2189	0.127
Mof_H 	H 	0.9889	0.1094	0.1912	-0.093
Mof_H 	H 	0.9114	0.0839	0.2204	-0.131
Mof_C 	C 	0.0121	0.1177	0.2616	-0.057
Mof_H 	H 	0.0479	0.1638	0.2536	0.042
Mof_H 	H 	0.9707	0.1365	0.2833	0.043
Mof_N 	N 	0.0599	0.0498	0.28054	-0.273
Mof_C 	C 	0.1099	0.0583	0.322	0.082
Mof_H 	H 	0.1051	0.1138	0.3337	-0.143
Mof_H 	H 	0.1673	0.047	0.3153	-0.038
Mof_H 	H 	0.0913	0.0198	0.3451	-0.007
Mof_O 	O 	0.0787	0.9361	0.2401	-0.258
Mof_C 	C 	0.0724	0.9976	0.2639	0.397
Mof_C 	C 	0.1094	0.003	0.3147	-0.204
Mof_H 	H 	0.0841	0.9621	0.3347	0.005
Mof_H 	H 	0.1696	0.9947	0.3155	0.045
Mof_C 	C 	0.0884	0.0865	0.329	0.144
Mof_H 	H 	0.1391	0.1175	0.3365	0.023
Mof_H 	H 	0.055	0.0847	0.3568	-0.021
Mof_C 	C 	0.04	0.1277	0.2898	0.09
Mof_H 	H 	0.9844	0.1432	0.2991	-0.028
Mof_H 	H 	0.0689	0.1765	0.2787	-0.034
Mof_N 	N 	0.0369	0.065	0.2556	-0.079
Mof_C 	C 	0.0039	0.0669	0.2092	-0.079
Mof_H 	H 	0.9767	0.1191	0.2034	0
Mof_H 	H 	0.964	0.0228	0.2048	0.144
Mof_H 	H 	0.0484	0.0599	0.1878	0.004
Mof_Li	Li	0.1439	0.6222	0.92264	1.59
Mof_Li	Li	0.1522	0.7838	0.86346	3.115
Mof_Li	Li	0.5962	0.6851	0.75544	3.109
Mof_Li	Li	0.8497	0.2913	0.80853	5.415
Mof_Li	Li	0.6566	0.7566	0.03233	1.876
Mof_O 	O 	0.05666	0.61478	0.87776	-0.901
Mof_O 	O 	0.0432	0.74307	0.85385	-1.126
Mof_C 	C 	0.02123	0.67034	0.85558	0.683
Mof_O 	O 	0.79466	0.82638	0.76856	-0.575
Mof_O 	O 	0.70288	0.73614	0.74324	-2.082
Mof_C 	C 	0.76843	0.75554	0.76385	0.892
Mof_O 	O 	0.77151	0.45317	0.75416	-0.517
Mof_O 	O 	0.86649	0.40515	0.80392	-1.586
Mof_C 	C 	0.83102	0.46105	0.78465	0.805
Mof_C 	C 	0.94385	0.64747	0.82785	-0.455
Mof_C 	C 	0.89323	0.70888	0.8097	0.341
Mof_H 	H 	0.9075	0.7641	0.8148	-0.109
Mof_C 	C 	0.82178	0.68955	0.78414	-0.568
Mof_C 	C 	0.80225	0.60868	0.77592	0.401
Mof_H 	H 	0.7544	0.5952	0.758	-0.192
Mof_C 	C 	0.85258	0.54721	0.79378	-0.526
Mof_C 	C 	0.92283	0.56693	0.82015	0.348
Mof_H 	H 	0.9564	0.5249	0.8329	-0.132
Mof_O 	O 	0.20464	0.72859	0.91718	-1.332
Mof_O 	O 	0.33605	0.7576	0.90663	-0.489
Mof_C 	C 	0.27682	0.7399	0.93136	0.581
Mof_O 	O 	0.54094	0.7298	0.03321	-0.848
Mof_O 	O 	0.49642	0.6976	0.10221	-0.36
Mof_C 	C 	0.48619	0.7169	0.05989	0.536
Mof_O 	O 	0.20557	0.72313	0.13546	-1.567
Mof_O 	O 	0.11575	0.74818	0.07799	-0.542
Mof_C 	C 	0.18936	0.73355	0.09486	0.805
Mof_C 	C 	0.29712	0.7344	0.98187	-0.47
Mof_C 	C 	0.37854	0.72978	0.99733	0.268
Mof_H 	H 	0.4212	0.7315	0.9759	-0.114
Mof_C 	C 	0.39787	0.7226	0.04417	-0.399
Mof_C 	C 	0.33546	0.72308	0.0756	0.3
Mof_H 	H 	0.3483	0.7181	0.1075	-0.09
Mof_C 	C 	0.25424	0.73085	0.06015	-0.493
Mof_C 	C 	0.23502	0.73548	0.01336	0.3
Mof_H 	H 	0.1794	0.7394	0.0029	-0.19
Mof_O 	O 	0.21371	0.7696	0.8083	-1.075
Mof_O 	O 	0.34681	0.7546	0.82387	-0.48
Mof_C 	C 	0.28405	0.7616	0.79614	0.647
Mof_O 	O 	0.54635	0.73659	0.70114	-2.06
Mof_O 	O 	0.49886	0.7466	0.62901	-0.62
Mof_C 	C 	0.48961	0.74409	0.67144	0.867
Mof_O 	O 	0.20811	0.7706	0.59067	-0.858
Mof_O 	O 	0.12404	0.8075	0.6458	-0.362
Mof_C 	C 	0.19326	0.785	0.63094	0.535
Mof_C 	C 	0.30462	0.7617	0.74651	-0.474
Mof_C 	C 	0.385	0.75079	0.73321	0.408
Mof_H 	H 	0.4275	0.7428	0.7558	-0.261
Mof_C 	C 	0.4033	0.75155	0.68694	-0.551
Mof_C 	C 	0.33991	0.7632	0.65421	0.317
Mof_H 	H 	0.3516	0.7631	0.6225	-0.136
Mof_C 	C 	0.25979	0.7751	0.66761	-0.413
Mof_C 	C 	0.24193	0.7744	0.71378	0.297
Mof_H 	H 	0.1872	0.7825	0.723	-0.084
Mof_O 	O 	0.5881	0.5829	0.7679	-1.036
Mof_C 	C 	0.5541	0.518	0.7582	0.259
Mof_C 	C 	0.4973	0.5093	0.7158	-0.504
Mof_H 	H 	0.4494	0.546	0.7174	0.067
Mof_H 	H 	0.5267	0.5204	0.6873	0.081
Mof_C 	C 	0.4718	0.4201	0.7189	0.122
Mof_H 	H 	0.4889	0.3906	0.6912	-0.102
Mof_H 	H 	0.4114	0.4161	0.7204	-0.131
Mof_C 	C 	0.5121	0.3823	0.7616	-0.049
Mof_H 	H 	0.5479	0.3362	0.7536	0.039
Mof_H 	H 	0.4707	0.3635	0.7833	0.036
Mof_N 	N 	0.5599	0.4502	0.78054	-0.274
Mof_C 	C 	0.6099	0.4417	0.822	0.03
Mof_H 	H 	0.6051	0.3862	0.8337	-0.095
Mof_H 	H 	0.6673	0.453	0.8153	-0.022
Mof_H 	H 	0.5913	0.4802	0.8451	0.001
Mof_O 	O 	0.5787	0.5639	0.7401	-0.251
Mof_C 	C 	0.5724	0.5024	0.7639	0.412
Mof_C 	C 	0.6094	0.497	0.8147	-0.162
Mof_H 	H 	0.5841	0.5379	0.8347	-0.006
Mof_H 	H 	0.6696	0.5053	0.8155	0.031
Mof_C 	C 	0.5884	0.4135	0.829	0.125
Mof_H 	H 	0.6391	0.3825	0.8365	0.001
Mof_H 	H 	0.555	0.4153	0.8568	-0.019
Mof_C 	C 	0.54	0.3723	0.7898	0.084
Mof_H 	H 	0.4844	0.3568	0.7991	-0.019
Mof_H 	H 	0.5689	0.3235	0.7787	-0.033
Mof_N 	N 	0.5369	0.435	0.7556	-0.081
Mof_C 	C 	0.5039	0.4331	0.7092	-0.083
Mof_H 	H 	0.4767	0.3809	0.7034	0.013
Mof_H 	H 	0.464	0.4772	0.7048	0.165
Mof_H 	H 	0.5484	0.4401	0.6878	0.004
Mof_Li	Li	0.3561	0.1222	0.57736	1.592
Mof_Li	Li	0.3478	0.2838	0.63654	3.116
Mof_Li	Li	0.9038	0.1851	0.74456	3.1
Mof_Li	Li	0.6503	0.7913	0.69147	5.414
Mof_Li	Li	0.8434	0.2566	0.46767	1.871
Mof_O 	O 	0.44334	0.11478	0.62224	-0.902
Mof_O 	O 	0.4568	0.24307	0.64615	-1.126
Mof_C 	C 	0.47877	0.17034	0.64442	0.685
Mof_O 	O 	0.70534	0.32638	0.73144	-0.575
Mof_O 	O 	0.79712	0.23614	0.75676	-2.081
Mof_C 	C 	0.73157	0.25554	0.73615	0.892
Mof_O 	O 	0.72849	0.95317	0.74584	-0.516
Mof_O 	O 	0.63351	0.90515	0.69608	-1.586
Mof_C 	C 	0.66898	0.96105	0.71535	0.806
Mof_C 	C 	0.55615	0.14747	0.67215	-0.459
Mof_C 	C 	0.60677	0.20888	0.6903	0.343
Mof_H 	H 	0.5925	0.2641	0.6852	-0.11
Mof_C 	C 	0.67822	0.18955	0.71586	-0.569
Mof_C 	C 	0.69775	0.10868	0.72408	0.402
Mof_H 	H 	0.7456	0.0952	0.742	-0.192
Mof_C 	C 	0.64742	0.04721	0.70622	-0.528
Mof_C 	C 	0.57717	0.06693	0.67985	0.35
Mof_H 	H 	0.5436	0.0249	0.6671	-0.133
Mof_O 	O 	0.29536	0.22859	0.58282	-1.333
Mof_O 	O 	0.16395	0.2576	0.59337	-0.489
Mof_C 	C 	0.22318	0.2399	0.56864	0.582
Mof_O 	O 	0.95906	0.2298	0.46679	-0.85
Mof_O 	O 	0.00358	0.1976	0.39779	-0.359
Mof_C 	C 	0.01381	0.2169	0.44011	0.538
Mof_O 	O 	0.29443	0.22313	0.36454	-1.566
Mof_O 	O 	0.38425	0.24818	0.42201	-0.541
Mof_C 	C 	0.31064	0.23355	0.40514	0.804
Mof_C 	C 	0.20288	0.2344	0.51813	-0.469
Mof_C 	C 	0.12146	0.22978	0.50267	0.268
Mof_H 	H 	0.0788	0.2315	0.5241	-0.113
Mof_C 	C 	0.10213	0.2226	0.45583	-0.4
Mof_C 	C 	0.16454	0.22308	0.4244	0.3
Mof_H 	H 	0.1517	0.2181	0.3925	-0.09
Mof_C 	C 	0.24576	0.23085	0.43985	-0.493
Mof_C 	C 	0.26498	0.23548	0.48664	0.3
Mof_H 	H 	0.3206	0.2394	0.4971	-0.19
Mof_O 	O 	0.28629	0.2696	0.6917	-1.075
Mof_O 	O 	0.15319	0.2546	0.67613	-0.48
Mof_C 	C 	0.21595	0.2616	0.70386	0.647
Mof_O 	O 	0.95365	0.23659	0.79886	-2.061
Mof_O 	O 	0.00114	0.2466	0.87099	-0.619
Mof_C 	C 	0.01039	0.24409	0.82856	0.869
Mof_O 	O 	0.29189	0.2706	0.90933	-0.859
Mof_O 	O 	0.37596	0.3075	0.8542	-0.361
Mof_C 	C 	0.30674	0.285	0.86906	0.535
Mof_C 	C 	0.19538	0.2617	0.75349	-0.474
Mof_C 	C 	0.115	0.25079	0.76679	0.408
Mof_H 	H 	0.0725	0.2428	0.7442	-0.26
Mof_C 	C 	0.0967	0.25155	0.81306	-0.551
Mof_C 	C 	0.16009	0.2632	0.84579	0.317
Mof_H 	H 	0.1484	0.2631	0.8775	-0.135
Mof_C 	C 	0.24021	0.2751	0.83239	-0.413
Mof_C 	C 	0.25807	0.2744	0.78622	0.297
Mof_H 	H 	0.3128	0.2825	0.777	-0.084
Mof_O 	O 	0.9119	0.0829	0.7321	-1.028
Mof_C 	C 	0.9459	0.018	0.7418	0.267
Mof_C 	C 	0.0027	0.0093	0.7842	-0.464
Mof_H 	H 	0.0506	0.046	0.7826	0.06
Mof_H 	H 	0.9733	0.0204	0.8127	0.068
Mof_C 	C 	0.0282	0.9201	0.7811	0.127
Mof_H 	H 	0.0111	0.8906	0.8088	-0.093
Mof_H 	H 	0.0886	0.9161	0.7796	-0.131
Mof_C 	C 	0.9879	0.8823	0.7384	-0.057
Mof_H 	H 	0.9521	0.8362	0.7464	0.042
Mof_H 	H 	0.0293	0.8635	0.7167	0.043
Mof_N 	N 	0.9401	0.9502	0.71946	-0.273
Mof_C 	C 	0.8901	0.9417	0.678	0.082
Mof_H 	H 	0.8949	0.8862	0.6663	-0.143
Mof_H 	H 	0.8327	0.953	0.6847	-0.038
Mof_H 	H 	0.9087	0.9802	0.6549	-0.007
Mof_O 	O 	0.9213	0.0639	0.7599	-0.258
Mof_C 	C 	0.9276	0.0024	0.7361	0.397
Mof_C 	C 	0.8906	0.997	0.6853	-0.204
Mof_H 	H 	0.9159	0.0379	0.6653	0.005
Mof_H 	H 	0.8304	0.0053	0.6845	0.045
Mof_C 	C 	0.9116	0.9135	0.671	0.144
Mof_H 	H 	0.8609	0.8825	0.6635	0.023
Mof_H 	H 	0.945	0.9153	0.6432	-0.021
Mof_C 	C 	0.96	0.8723	0.7102	0.09
Mof_H 	H 	0.0156	0.8568	0.7009	-0.028
Mof_H 	H 	0.9311	0.8235	0.7213	-0.034
Mof_N 	N 	0.9631	0.935	0.7444	-0.079
Mof_C 	C 	0.9961	0.9331	0.7908	-0.079
Mof_H 	H 	0.0233	0.8809	0.7966	0
Mof_H 	H 	0.036	0.9772	0.7952	0.144
Mof_H 	H 	0.9516	0.9401	0.8122	0.004
_end
