data_functionalizedCrystal
_audit_creation_method	'EQeq! by Chris Wilmer'
_symmetry_space_group_name_H-M	'P1'
_symmetry_Int_Tables_number	1
_symmetry_cell_setting	triclinic
loop_
_symmetry_equiv_pos_as_xyz
  x,y,z
_cell_length_a	20.845
_cell_length_b	13.071
_cell_length_c	12.4964
_cell_angle_alpha	90
_cell_angle_beta	90
_cell_angle_gamma	90
loop_
_atom_site_label
_atom_site_type_symbol
_atom_site_fract_x
_atom_site_fract_y
_atom_site_fract_z
_atom_site_charge
Mof_Zn	Zn	0.02101	0.98747	0.06326	1.197
Mof_O 	O 	0.9817	0.8277	0.0158	-0.385
Mof_O 	O 	0.9863	0.8882	0.1796	-0.435
Mof_O 	O 	0.9071	0.8164	0.321	-0.437
Mof_H 	H 	0.9291	0.86	0.2914	0.286
Mof_O 	O 	0.5244	0.5753	0.4611	-0.446
Mof_O 	O 	0.6078	0.5297	0.5601	-0.35
Mof_O 	O 	0.7208	0.5723	0.4975	-0.444
Mof_H 	H 	0.6924	0.5462	0.5338	0.284
Mof_N 	N 	0.1035	0.9402	0.9907	-0.199
Mof_N 	N 	0.438	0.5989	0.6578	-0.271
Mof_C 	C 	0.9676	0.8201	0.1134	0.324
Mof_C 	C 	0.8439	0.674	0.2763	-0.048
Mof_C 	C 	0.8926	0.7403	0.2497	0.209
Mof_C 	C 	0.9244	0.7364	0.1486	-0.152
Mof_C 	C 	0.911	0.657	0.0829	-0.031
Mof_H 	H 	0.9328	0.6523	0.0182	0.041
Mof_C 	C 	0.8661	0.5823	0.1075	0.043
Mof_C 	C 	0.8305	0.5907	0.2053	0.005
Mof_C 	C 	0.7828	0.5165	0.2272	-0.038
Mof_H 	H 	0.7597	0.52	0.2907	0.058
Mof_C 	C 	0.7703	0.4386	0.155	-0.089
Mof_H 	H 	0.7387	0.3906	0.1703	0.058
Mof_C 	C 	0.8048	0.4315	0.0593	0.057
Mof_H 	H 	0.7953	0.3798	0.0108	-0.003
Mof_C 	C 	0.8517	0.4994	0.037	-0.202
Mof_H 	H 	0.8753	0.492	0.9742	0.131
Mof_C 	C 	0.8073	0.6892	0.3792	-0.105
Mof_H 	H 	0.8243	0.7495	0.4145	0.086
Mof_H 	H 	0.816	0.6311	0.4254	0.085
Mof_C 	C 	0.5844	0.5798	0.485	0.347
Mof_C 	C 	0.7351	0.7012	0.3698	-0.07
Mof_C 	C 	0.6945	0.6424	0.4296	0.223
Mof_C 	C 	0.6263	0.6466	0.4188	-0.171
Mof_C 	C 	0.6003	0.7157	0.348	0.009
Mof_H 	H 	0.5561	0.7185	0.3386	0.052
Mof_C 	C 	0.6397	0.7812	0.2906	-0.019
Mof_C 	C 	0.7075	0.7777	0.3025	0.046
Mof_C 	C 	0.7443	0.8504	0.2475	-0.095
Mof_H 	H 	0.7887	0.8499	0.2551	0.079
Mof_C 	C 	0.7164	0.9217	0.183	-0.014
Mof_H 	H 	0.7421	0.971	0.1505	0.037
Mof_C 	C 	0.6492	0.9231	0.1642	-0.053
Mof_H 	H 	0.631	0.9695	0.1166	0.041
Mof_C 	C 	0.6118	0.8537	0.2184	-0.048
Mof_H 	H 	0.5676	0.8538	0.2079	0.05
Mof_C 	C 	0.1097	0.9397	0.884	0.074
Mof_H 	H 	0.0791	0.9736	0.843	0
Mof_C 	C 	0.1596	0.8911	0.8325	-0.109
Mof_H 	H 	0.1618	0.8922	0.7582	0.078
Mof_C 	C 	0.2056	0.8418	0.8892	0.023
Mof_C 	C 	0.1985	0.8398	0.9972	0.08
Mof_H 	H 	0.2278	0.8037	0.0388	-0.022
Mof_C 	C 	0.1473	0.8917	0.0469	-0.104
Mof_H 	H 	0.1445	0.8917	0.1212	0.043
Mof_C 	C 	0.2508	0.7768	0.825	-0.048
Mof_H 	H 	0.2481	0.7068	0.85	0.035
Mof_H 	H 	0.237	0.7775	0.7506	0.03
Mof_C 	C 	0.3194	0.8111	0.83	-0.08
Mof_H 	H 	0.3335	0.8126	0.904	0.046
Mof_H 	H 	0.3233	0.8796	0.801	0.055
Mof_C 	C 	0.424	0.584	0.7598	0.114
Mof_H 	H 	0.4396	0.526	0.7943	-0.01
Mof_C 	C 	0.3859	0.6539	0.8175	-0.198
Mof_H 	H 	0.3778	0.6429	0.8898	0.124
Mof_C 	C 	0.3605	0.7385	0.7671	0.156
Mof_C 	C 	0.3778	0.7537	0.6619	-0.193
Mof_H 	H 	0.3635	0.8115	0.6257	0.099
Mof_C 	C 	0.4163	0.6833	0.6097	0.1
Mof_H 	H 	0.4275	0.6952	0.5388	-0.005
Mof_C 	C 	0.275	0.8	0.88	-0.034
Mof_C 	C 	0.302	0.807	0.767	-0.108
Mof_H 	H 	0.3022	0.8373	0.928	0.037
Mof_H 	H 	0.2748	0.7286	0.902	0.04
Mof_H 	H 	0.2708	0.7832	0.7151	0.053
Mof_H 	H 	0.3136	0.8767	0.7505	0.033
Mof_Zn	Zn	0.47899	0.48747	0.56326	1.211
Mof_O 	O 	0.5183	0.3277	0.5158	-0.365
Mof_O 	O 	0.5137	0.3882	0.6796	-0.433
Mof_O 	O 	0.5929	0.3164	0.821	-0.431
Mof_H 	H 	0.5709	0.36	0.7914	0.287
Mof_O 	O 	0.9756	0.0753	0.9611	-0.441
Mof_O 	O 	0.8922	0.0297	0.0601	-0.386
Mof_O 	O 	0.7792	0.0723	0.9975	-0.377
Mof_H 	H 	0.8076	0.0462	0.0338	0.23
Mof_N 	N 	0.3965	0.4402	0.4907	-0.279
Mof_N 	N 	0.062	0.0989	0.1578	-0.271
Mof_C 	C 	0.5324	0.3201	0.6134	0.328
Mof_C 	C 	0.6561	0.174	0.7763	-0.062
Mof_C 	C 	0.6074	0.2403	0.7497	0.222
Mof_C 	C 	0.5756	0.2364	0.6486	-0.168
Mof_C 	C 	0.589	0.157	0.5829	0.016
Mof_H 	H 	0.5672	0.1523	0.5182	0.038
Mof_C 	C 	0.6339	0.0823	0.6075	-0.025
Mof_C 	C 	0.6695	0.0907	0.7053	0.051
Mof_C 	C 	0.7172	0.0165	0.7272	-0.097
Mof_H 	H 	0.7403	0.02	0.7907	0.08
Mof_C 	C 	0.7297	0.9386	0.655	-0.001
Mof_H 	H 	0.7613	0.8906	0.6703	0.031
Mof_C 	C 	0.6952	0.9315	0.5593	-0.057
Mof_H 	H 	0.7047	0.8798	0.5108	0.055
Mof_C 	C 	0.6483	0.9994	0.537	-0.037
Mof_H 	H 	0.6247	0.992	0.4742	0.044
Mof_C 	C 	0.6927	0.1892	0.8792	-0.109
Mof_H 	H 	0.6757	0.2495	0.9145	0.098
Mof_H 	H 	0.684	0.1311	0.9254	0.095
Mof_C 	C 	0.9156	0.0798	0.985	0.395
Mof_C 	C 	0.7649	0.2012	0.8698	-0.059
Mof_C 	C 	0.8055	0.1424	0.9296	0.216
Mof_C 	C 	0.8737	0.1466	0.9188	-0.169
Mof_C 	C 	0.8997	0.2157	0.848	0.014
Mof_H 	H 	0.9439	0.2185	0.8386	0.053
Mof_C 	C 	0.8603	0.2812	0.7906	-0.016
Mof_C 	C 	0.7925	0.2777	0.8025	0.048
Mof_C 	C 	0.7557	0.3504	0.7475	-0.092
Mof_H 	H 	0.7113	0.3499	0.7551	0.08
Mof_C 	C 	0.7836	0.4217	0.683	-0.012
Mof_H 	H 	0.7579	0.471	0.6505	0.043
Mof_C 	C 	0.8508	0.4231	0.6642	-0.05
Mof_H 	H 	0.869	0.4695	0.6166	0.05
Mof_C 	C 	0.8882	0.3537	0.7184	-0.045
Mof_H 	H 	0.9324	0.3538	0.7079	0.052
Mof_C 	C 	0.3903	0.4397	0.384	0.132
Mof_H 	H 	0.4209	0.4736	0.343	-0.024
Mof_C 	C 	0.3404	0.3911	0.3325	-0.217
Mof_H 	H 	0.3382	0.3922	0.2582	0.111
Mof_C 	C 	0.2944	0.3418	0.3892	0.158
Mof_C 	C 	0.3015	0.3398	0.4972	-0.2
Mof_H 	H 	0.2722	0.3037	0.5388	0.104
Mof_C 	C 	0.3527	0.3917	0.5469	0.12
Mof_H 	H 	0.3555	0.3917	0.6212	-0.029
Mof_C 	C 	0.2492	0.2768	0.325	-0.025
Mof_H 	H 	0.2519	0.2068	0.35	0.021
Mof_H 	H 	0.263	0.2775	0.2506	0.022
Mof_C 	C 	0.1806	0.3111	0.33	-0.102
Mof_H 	H 	0.1665	0.3126	0.404	0.044
Mof_H 	H 	0.1767	0.3796	0.301	0.065
Mof_C 	C 	0.076	0.084	0.2598	0.097
Mof_H 	H 	0.0604	0.026	0.2943	-0.005
Mof_C 	C 	0.1141	0.1539	0.3175	-0.177
Mof_H 	H 	0.1222	0.1429	0.3898	0.104
Mof_C 	C 	0.1395	0.2385	0.2671	0.124
Mof_C 	C 	0.1222	0.2537	0.1619	-0.181
Mof_H 	H 	0.1365	0.3115	0.1257	0.086
Mof_C 	C 	0.0837	0.1833	0.1097	0.089
Mof_H 	H 	0.0725	0.1952	0.0388	-0.017
Mof_C 	C 	0.225	0.3	0.38	-0.141
Mof_C 	C 	0.198	0.307	0.267	-0.023
Mof_H 	H 	0.1978	0.3373	0.428	0.059
Mof_H 	H 	0.2252	0.2286	0.402	0.065
Mof_H 	H 	0.2292	0.2832	0.2151	0.022
Mof_H 	H 	0.1864	0.3767	0.2505	-0.001
Mof_Zn	Zn	0.97899	0.01253	0.56326	1.21
Mof_O 	O 	0.0183	0.1723	0.5158	-0.363
Mof_O 	O 	0.0137	0.1118	0.6796	-0.43
Mof_O 	O 	0.0929	0.1836	0.821	-0.43
Mof_H 	H 	0.0709	0.14	0.7914	0.288
Mof_O 	O 	0.4756	0.4247	0.9611	-0.439
Mof_O 	O 	0.3922	0.4703	0.0601	-0.39
Mof_O 	O 	0.2792	0.4277	0.9975	-0.369
Mof_H 	H 	0.3076	0.4538	0.0338	0.224
Mof_N 	N 	0.8965	0.0598	0.4907	-0.279
Mof_N 	N 	0.562	0.4011	0.1578	-0.273
Mof_C 	C 	0.0324	0.1799	0.6134	0.328
Mof_C 	C 	0.1561	0.326	0.7763	-0.06
Mof_C 	C 	0.1074	0.2597	0.7497	0.222
Mof_C 	C 	0.0756	0.2636	0.6486	-0.166
Mof_C 	C 	0.089	0.343	0.5829	0.016
Mof_H 	H 	0.0672	0.3477	0.5182	0.039
Mof_C 	C 	0.1339	0.4177	0.6075	-0.025
Mof_C 	C 	0.1695	0.4093	0.7053	0.05
Mof_C 	C 	0.2172	0.4835	0.7272	-0.095
Mof_H 	H 	0.2403	0.48	0.7907	0.08
Mof_C 	C 	0.2297	0.5614	0.655	-0.003
Mof_H 	H 	0.2613	0.6094	0.6703	0.032
Mof_C 	C 	0.1952	0.5685	0.5593	-0.056
Mof_H 	H 	0.2047	0.6202	0.5108	0.055
Mof_C 	C 	0.1483	0.5006	0.537	-0.038
Mof_H 	H 	0.1247	0.508	0.4742	0.045
Mof_C 	C 	0.1927	0.3108	0.8792	-0.111
Mof_H 	H 	0.1757	0.2505	0.9145	0.099
Mof_H 	H 	0.184	0.3689	0.9254	0.096
Mof_C 	C 	0.4156	0.4202	0.985	0.401
Mof_C 	C 	0.2649	0.2988	0.8698	-0.058
Mof_C 	C 	0.3055	0.3576	0.9296	0.214
Mof_C 	C 	0.3737	0.3534	0.9188	-0.168
Mof_C 	C 	0.3997	0.2843	0.848	0.014
Mof_H 	H 	0.4439	0.2815	0.8386	0.054
Mof_C 	C 	0.3603	0.2188	0.7906	-0.014
Mof_C 	C 	0.2925	0.2223	0.8025	0.047
Mof_C 	C 	0.2557	0.1496	0.7475	-0.09
Mof_H 	H 	0.2113	0.1501	0.7551	0.08
Mof_C 	C 	0.2836	0.0783	0.683	-0.012
Mof_H 	H 	0.2579	0.029	0.6505	0.045
Mof_C 	C 	0.3508	0.0769	0.6642	-0.049
Mof_H 	H 	0.369	0.0305	0.6166	0.051
Mof_C 	C 	0.3882	0.1463	0.7184	-0.046
Mof_H 	H 	0.4324	0.1462	0.7079	0.054
Mof_C 	C 	0.8903	0.0603	0.384	0.132
Mof_H 	H 	0.9209	0.0264	0.343	-0.025
Mof_C 	C 	0.8404	0.1089	0.3325	-0.216
Mof_H 	H 	0.8382	0.1078	0.2582	0.111
Mof_C 	C 	0.7944	0.1582	0.3892	0.157
Mof_C 	C 	0.8015	0.1602	0.4972	-0.2
Mof_H 	H 	0.7722	0.1963	0.5388	0.104
Mof_C 	C 	0.8527	0.1083	0.5469	0.119
Mof_H 	H 	0.8555	0.1083	0.6212	-0.029
Mof_C 	C 	0.7492	0.2232	0.325	-0.024
Mof_H 	H 	0.7519	0.2932	0.35	0.02
Mof_H 	H 	0.763	0.2225	0.2506	0.022
Mof_C 	C 	0.6806	0.1889	0.33	-0.103
Mof_H 	H 	0.6665	0.1874	0.404	0.045
Mof_H 	H 	0.6767	0.1204	0.301	0.066
Mof_C 	C 	0.576	0.416	0.2598	0.097
Mof_H 	H 	0.5604	0.474	0.2943	-0.008
Mof_C 	C 	0.6141	0.3461	0.3175	-0.178
Mof_H 	H 	0.6222	0.3571	0.3898	0.104
Mof_C 	C 	0.6395	0.2615	0.2671	0.125
Mof_C 	C 	0.6222	0.2463	0.1619	-0.182
Mof_H 	H 	0.6365	0.1885	0.1257	0.087
Mof_C 	C 	0.5837	0.3167	0.1097	0.089
Mof_H 	H 	0.5725	0.3048	0.0388	-0.018
Mof_C 	C 	0.725	0.2	0.38	-0.141
Mof_C 	C 	0.698	0.193	0.267	-0.023
Mof_H 	H 	0.6978	0.1627	0.428	0.059
Mof_H 	H 	0.7252	0.2714	0.402	0.064
Mof_H 	H 	0.7292	0.2168	0.2151	0.023
Mof_H 	H 	0.6864	0.1233	0.2505	-0.001
Mof_Zn	Zn	0.52101	0.51253	0.06326	1.2
Mof_O 	O 	0.4817	0.6723	0.0158	-0.386
Mof_O 	O 	0.4863	0.6118	0.1796	-0.436
Mof_O 	O 	0.4071	0.6836	0.321	-0.437
Mof_H 	H 	0.4291	0.64	0.2914	0.287
Mof_O 	O 	0.0244	0.9247	0.4611	-0.447
Mof_O 	O 	0.1078	0.9703	0.5601	-0.351
Mof_O 	O 	0.2208	0.9277	0.4975	-0.445
Mof_H 	H 	0.1924	0.9538	0.5338	0.284
Mof_N 	N 	0.6035	0.5598	0.9907	-0.203
Mof_N 	N 	0.938	0.9011	0.6578	-0.271
Mof_C 	C 	0.4676	0.6799	0.1134	0.326
Mof_C 	C 	0.3439	0.826	0.2763	-0.054
Mof_C 	C 	0.3926	0.7597	0.2497	0.213
Mof_C 	C 	0.4244	0.7636	0.1486	-0.158
Mof_C 	C 	0.411	0.843	0.0829	-0.022
Mof_H 	H 	0.4328	0.8477	0.0182	0.037
Mof_C 	C 	0.3661	0.9177	0.1075	0.028
Mof_C 	C 	0.3305	0.9093	0.2053	0.016
Mof_C 	C 	0.2828	0.9835	0.2272	-0.057
Mof_H 	H 	0.2597	0.98	0.2907	0.064
Mof_C 	C 	0.2703	0.0614	0.155	-0.068
Mof_H 	H 	0.2387	0.1094	0.1703	0.052
Mof_C 	C 	0.3048	0.0685	0.0593	0.039
Mof_H 	H 	0.2953	0.1202	0.0108	0.002
Mof_C 	C 	0.3517	0.0006	0.037	-0.182
Mof_H 	H 	0.3753	0.008	0.9742	0.126
Mof_C 	C 	0.3073	0.8108	0.3792	-0.1
Mof_H 	H 	0.3243	0.7505	0.4145	0.084
Mof_H 	H 	0.316	0.8689	0.4254	0.084
Mof_C 	C 	0.0844	0.9202	0.485	0.347
Mof_C 	C 	0.2351	0.7988	0.3698	-0.072
Mof_C 	C 	0.1945	0.8576	0.4296	0.224
Mof_C 	C 	0.1263	0.8534	0.4188	-0.172
Mof_C 	C 	0.1003	0.7843	0.348	0.01
Mof_H 	H 	0.0561	0.7815	0.3386	0.051
Mof_C 	C 	0.1397	0.7188	0.2906	-0.02
Mof_C 	C 	0.2075	0.7223	0.3025	0.047
Mof_C 	C 	0.2443	0.6496	0.2475	-0.096
Mof_H 	H 	0.2887	0.6501	0.2551	0.079
Mof_C 	C 	0.2164	0.5783	0.183	-0.013
Mof_H 	H 	0.2421	0.529	0.1505	0.037
Mof_C 	C 	0.1492	0.5769	0.1642	-0.054
Mof_H 	H 	0.131	0.5305	0.1166	0.042
Mof_C 	C 	0.1118	0.6463	0.2184	-0.047
Mof_H 	H 	0.0676	0.6462	0.2079	0.049
Mof_C 	C 	0.6097	0.5603	0.884	0.078
Mof_H 	H 	0.5791	0.5264	0.843	-0.001
Mof_C 	C 	0.6596	0.6089	0.8325	-0.116
Mof_H 	H 	0.6618	0.6078	0.7582	0.08
Mof_C 	C 	0.7056	0.6582	0.8892	0.032
Mof_C 	C 	0.6985	0.6602	0.9972	0.063
Mof_H 	H 	0.7278	0.6963	0.0388	-0.014
Mof_C 	C 	0.6473	0.6083	0.0469	-0.089
Mof_H 	H 	0.6445	0.6083	0.1212	0.039
Mof_C 	C 	0.7508	0.7232	0.825	-0.046
Mof_H 	H 	0.7481	0.7932	0.85	0.035
Mof_H 	H 	0.737	0.7225	0.7506	0.029
Mof_C 	C 	0.8194	0.6889	0.83	-0.082
Mof_H 	H 	0.8335	0.6874	0.904	0.046
Mof_H 	H 	0.8233	0.6204	0.801	0.056
Mof_C 	C 	0.924	0.916	0.7598	0.113
Mof_H 	H 	0.9396	0.974	0.7943	-0.009
Mof_C 	C 	0.8859	0.8461	0.8175	-0.196
Mof_H 	H 	0.8778	0.8571	0.8898	0.123
Mof_C 	C 	0.8605	0.7615	0.7671	0.154
Mof_C 	C 	0.8778	0.7463	0.6619	-0.192
Mof_H 	H 	0.8635	0.6885	0.6257	0.099
Mof_C 	C 	0.9163	0.8167	0.6097	0.1
Mof_H 	H 	0.9275	0.8048	0.5388	-0.004
Mof_C 	C 	0.775	0.7	0.88	-0.041
Mof_C 	C 	0.802	0.693	0.767	-0.102
Mof_H 	H 	0.8022	0.6627	0.928	0.039
Mof_H 	H 	0.7748	0.7714	0.902	0.042
Mof_H 	H 	0.7708	0.7168	0.7151	0.052
Mof_H 	H 	0.8136	0.6233	0.7505	0.031
_end
