data_functionalizedCrystal
_audit_creation_method	'EQeq! by Chris Wilmer'
_symmetry_space_group_name_H-M	'P1'
_symmetry_Int_Tables_number	1
_symmetry_cell_setting	triclinic
loop_
_symmetry_equiv_pos_as_xyz
  x,y,z
_cell_length_a	21.7289
_cell_length_b	21.7289
_cell_length_c	30.0021
_cell_angle_alpha	98.0698
_cell_angle_beta	98.0698
_cell_angle_gamma	117.44
loop_
_atom_site_label
_atom_site_type_symbol
_atom_site_fract_x
_atom_site_fract_y
_atom_site_fract_z
_atom_site_charge
Mof_Cu	Cu	0.69727	0.75219	0.73259	0.898
Mof_Cu	Cu	0.82641	0.77071	0.74246	0.898
Mof_Cu	Cu	0.46772	0.97444	0.5323	0.9
Mof_Cu	Cu	0.24781	0.30273	0.76741	0.898
Mof_Cu	Cu	0.22929	0.17359	0.75754	0.897
Mof_Cu	Cu	0.02556	0.53228	0.9677	0.898
Mof_Cu	Cu	0.30273	0.24781	0.26741	0.897
Mof_Cu	Cu	0.17359	0.22929	0.25754	0.897
Mof_Cu	Cu	0.53228	0.02556	0.4677	0.899
Mof_Cu	Cu	0.75219	0.69727	0.23259	0.897
Mof_Cu	Cu	0.77071	0.82641	0.24246	0.897
Mof_Cu	Cu	0.97444	0.46772	0.0323	0.898
Mof_H 	H 	0.7703	0.5469	0.7143	0.088
Mof_H 	H 	0.5835	0.5335	0.6578	0.098
Mof_H 	H 	0.7869	0.4473	0.7051	0.156
Mof_H 	H 	0.718	0.3698	0.6887	0.161
Mof_H 	H 	0.7597	0.4065	0.6516	0.162
Mof_H 	H 	0.4809	0.4087	0.6266	0.181
Mof_H 	H 	0.509	0.4054	0.5802	0.177
Mof_H 	H 	0.4975	0.3461	0.6092	0.191
Mof_H 	H 	0.5935	0.2459	0.519	0.108
Mof_H 	H 	0.5234	0.1712	0.6256	0.109
Mof_H 	H 	0.6358	0.422	0.5668	0.197
Mof_H 	H 	0.6267	0.3693	0.5203	0.186
Mof_H 	H 	0.6986	0.405	0.5599	0.189
Mof_H 	H 	0.5184	0.2458	0.6904	0.187
Mof_H 	H 	0.5424	0.327	0.6893	0.195
Mof_H 	H 	0.6005	0.3057	0.709	0.181
Mof_H 	H 	0.7494	0.9648	0.7935	0.093
Mof_H 	H 	0.9492	0.0004	0.7933	0.102
Mof_H 	H 	0.7279	0.0597	0.8181	0.16
Mof_H 	H 	0.7737	0.0921	0.8705	0.166
Mof_H 	H 	0.792	0.1402	0.8334	0.169
Mof_H 	H 	0.0506	0.1148	0.8232	0.204
Mof_H 	H 	0.0367	0.1813	0.8298	0.204
Mof_H 	H 	0.0445	0.1471	0.8726	0.197
Mof_H 	H 	0.9701	0.3467	0.8635	0.092
Mof_H 	H 	0.9598	0.2644	0.9761	0.091
Mof_H 	H 	0.9476	0.2014	0.7833	0.174
Mof_H 	H 	0.8806	0.2146	0.7815	0.159
Mof_H 	H 	0.9592	0.2808	0.7898	0.163
Mof_H 	H 	0.9427	0.1021	0.9243	0.166
Mof_H 	H 	0.9481	0.1493	0.9723	0.156
Mof_H 	H 	0.8727	0.1015	0.936	0.163
Mof_H 	H 	0.7879	0.8725	0.3896	0.096
Mof_H 	H 	0.6825	0.6571	0.3609	0.09
Mof_H 	H 	0.8261	0.9417	0.4641	0.166
Mof_H 	H 	0.8342	0.9054	0.5057	0.173
Mof_H 	H 	0.7631	0.9097	0.4904	0.174
Mof_H 	H 	0.6586	0.6438	0.4747	0.173
Mof_H 	H 	0.699	0.6124	0.4463	0.165
Mof_H 	H 	0.6236	0.602	0.4216	0.16
Mof_H 	H 	0.845	0.7734	0.6036	0.091
Mof_H 	H 	0.6622	0.782	0.594	0.094
Mof_H 	H 	0.8333	0.7327	0.4845	0.172
Mof_H 	H 	0.8901	0.8129	0.5116	0.164
Mof_H 	H 	0.8814	0.748	0.5346	0.163
Mof_H 	H 	0.5879	0.7619	0.5202	0.166
Mof_H 	H 	0.6429	0.8279	0.5027	0.172
Mof_H 	H 	0.6118	0.7482	0.4733	0.17
Mof_H 	H 	0.4531	0.2297	0.7857	0.088
Mof_H 	H 	0.4665	0.4165	0.8422	0.098
Mof_H 	H 	0.5527	0.2131	0.7949	0.156
Mof_H 	H 	0.6302	0.282	0.8113	0.161
Mof_H 	H 	0.5935	0.2403	0.8484	0.162
Mof_H 	H 	0.5913	0.5191	0.8734	0.181
Mof_H 	H 	0.5946	0.491	0.9198	0.177
Mof_H 	H 	0.6539	0.5025	0.8908	0.191
Mof_H 	H 	0.7541	0.4065	0.981	0.108
Mof_H 	H 	0.8288	0.4766	0.8744	0.11
Mof_H 	H 	0.578	0.3642	0.9332	0.197
Mof_H 	H 	0.6307	0.3733	0.9797	0.186
Mof_H 	H 	0.595	0.3014	0.9401	0.189
Mof_H 	H 	0.7542	0.4816	0.8096	0.187
Mof_H 	H 	0.673	0.4576	0.8107	0.195
Mof_H 	H 	0.6943	0.3995	0.791	0.181
Mof_H 	H 	0.0352	0.2506	0.7065	0.093
Mof_H 	H 	0.9996	0.0508	0.7067	0.102
Mof_H 	H 	0.9403	0.2721	0.6819	0.16
Mof_H 	H 	0.9079	0.2263	0.6295	0.166
Mof_H 	H 	0.8598	0.208	0.6666	0.169
Mof_H 	H 	0.8852	0.9494	0.6768	0.204
Mof_H 	H 	0.8187	0.9633	0.6702	0.204
Mof_H 	H 	0.8529	0.9555	0.6274	0.197
Mof_H 	H 	0.6533	0.0299	0.6365	0.092
Mof_H 	H 	0.7356	0.0402	0.5239	0.091
Mof_H 	H 	0.7986	0.0524	0.7167	0.174
Mof_H 	H 	0.7854	0.1194	0.7185	0.159
Mof_H 	H 	0.7192	0.0408	0.7102	0.163
Mof_H 	H 	0.8979	0.0573	0.5757	0.166
Mof_H 	H 	0.8507	0.0519	0.5277	0.155
Mof_H 	H 	0.8985	0.1273	0.564	0.163
Mof_H 	H 	0.1275	0.2121	0.1104	0.095
Mof_H 	H 	0.3429	0.3175	0.1391	0.09
Mof_H 	H 	0.0583	0.1739	0.0359	0.166
Mof_H 	H 	0.0946	0.1658	0.9943	0.173
Mof_H 	H 	0.0903	0.2369	0.0096	0.174
Mof_H 	H 	0.3562	0.3414	0.0253	0.173
Mof_H 	H 	0.3876	0.301	0.0537	0.165
Mof_H 	H 	0.398	0.3764	0.0784	0.16
Mof_H 	H 	0.2266	0.155	0.8964	0.091
Mof_H 	H 	0.218	0.3378	0.906	0.094
Mof_H 	H 	0.2673	0.1667	0.0155	0.172
Mof_H 	H 	0.1871	0.1099	0.9884	0.165
Mof_H 	H 	0.252	0.1186	0.9654	0.163
Mof_H 	H 	0.2381	0.4121	0.9798	0.167
Mof_H 	H 	0.1721	0.3571	0.9973	0.172
Mof_H 	H 	0.2518	0.3882	0.0267	0.171
Mof_H 	H 	0.2297	0.4531	0.2857	0.088
Mof_H 	H 	0.4165	0.4665	0.3422	0.098
Mof_H 	H 	0.2131	0.5527	0.2949	0.156
Mof_H 	H 	0.282	0.6302	0.3113	0.161
Mof_H 	H 	0.2403	0.5935	0.3484	0.162
Mof_H 	H 	0.5191	0.5913	0.3734	0.181
Mof_H 	H 	0.491	0.5946	0.4198	0.177
Mof_H 	H 	0.5025	0.6539	0.3908	0.191
Mof_H 	H 	0.4065	0.7541	0.481	0.108
Mof_H 	H 	0.4766	0.8288	0.3744	0.109
Mof_H 	H 	0.3642	0.578	0.4332	0.197
Mof_H 	H 	0.3733	0.6307	0.4797	0.186
Mof_H 	H 	0.3014	0.595	0.4401	0.189
Mof_H 	H 	0.4816	0.7542	0.3096	0.187
Mof_H 	H 	0.4576	0.673	0.3107	0.195
Mof_H 	H 	0.3995	0.6943	0.291	0.181
Mof_H 	H 	0.2506	0.0352	0.2065	0.093
Mof_H 	H 	0.0508	0.9996	0.2067	0.102
Mof_H 	H 	0.2721	0.9403	0.1819	0.16
Mof_H 	H 	0.2263	0.9079	0.1295	0.166
Mof_H 	H 	0.208	0.8598	0.1666	0.169
Mof_H 	H 	0.9494	0.8852	0.1768	0.204
Mof_H 	H 	0.9633	0.8187	0.1702	0.204
Mof_H 	H 	0.9555	0.8529	0.1274	0.197
Mof_H 	H 	0.0299	0.6533	0.1365	0.092
Mof_H 	H 	0.0402	0.7356	0.0239	0.091
Mof_H 	H 	0.0524	0.7986	0.2167	0.174
Mof_H 	H 	0.1194	0.7854	0.2185	0.159
Mof_H 	H 	0.0408	0.7192	0.2102	0.163
Mof_H 	H 	0.0573	0.8979	0.0757	0.166
Mof_H 	H 	0.0519	0.8507	0.0277	0.156
Mof_H 	H 	0.1273	0.8985	0.064	0.163
Mof_H 	H 	0.2121	0.1275	0.6104	0.096
Mof_H 	H 	0.3175	0.3429	0.6391	0.09
Mof_H 	H 	0.1739	0.0583	0.5359	0.166
Mof_H 	H 	0.1658	0.0946	0.4943	0.173
Mof_H 	H 	0.2369	0.0903	0.5096	0.174
Mof_H 	H 	0.3414	0.3562	0.5253	0.173
Mof_H 	H 	0.301	0.3876	0.5537	0.165
Mof_H 	H 	0.3764	0.398	0.5784	0.16
Mof_H 	H 	0.155	0.2266	0.3964	0.091
Mof_H 	H 	0.3378	0.218	0.406	0.094
Mof_H 	H 	0.1667	0.2673	0.5155	0.172
Mof_H 	H 	0.1099	0.1871	0.4884	0.164
Mof_H 	H 	0.1186	0.252	0.4654	0.163
Mof_H 	H 	0.4121	0.2381	0.4798	0.166
Mof_H 	H 	0.3571	0.1721	0.4973	0.172
Mof_H 	H 	0.3882	0.2518	0.5267	0.17
Mof_H 	H 	0.5469	0.7703	0.2143	0.088
Mof_H 	H 	0.5335	0.5835	0.1578	0.098
Mof_H 	H 	0.4473	0.7869	0.2051	0.156
Mof_H 	H 	0.3698	0.718	0.1887	0.161
Mof_H 	H 	0.4065	0.7597	0.1516	0.162
Mof_H 	H 	0.4087	0.4809	0.1266	0.181
Mof_H 	H 	0.4054	0.509	0.0802	0.177
Mof_H 	H 	0.3461	0.4975	0.1092	0.191
Mof_H 	H 	0.2459	0.5935	0.019	0.108
Mof_H 	H 	0.1712	0.5234	0.1256	0.11
Mof_H 	H 	0.422	0.6358	0.0668	0.197
Mof_H 	H 	0.3693	0.6267	0.0203	0.186
Mof_H 	H 	0.405	0.6986	0.0599	0.189
Mof_H 	H 	0.2458	0.5184	0.1904	0.187
Mof_H 	H 	0.327	0.5424	0.1893	0.195
Mof_H 	H 	0.3057	0.6005	0.209	0.181
Mof_H 	H 	0.9648	0.7494	0.2935	0.093
Mof_H 	H 	0.0004	0.9492	0.2933	0.102
Mof_H 	H 	0.0597	0.7279	0.3181	0.16
Mof_H 	H 	0.0921	0.7737	0.3705	0.166
Mof_H 	H 	0.1402	0.792	0.3334	0.169
Mof_H 	H 	0.1148	0.0506	0.3232	0.204
Mof_H 	H 	0.1813	0.0367	0.3298	0.204
Mof_H 	H 	0.1471	0.0445	0.3726	0.197
Mof_H 	H 	0.3467	0.9701	0.3635	0.092
Mof_H 	H 	0.2644	0.9598	0.4761	0.091
Mof_H 	H 	0.2014	0.9476	0.2833	0.174
Mof_H 	H 	0.2146	0.8806	0.2815	0.159
Mof_H 	H 	0.2808	0.9592	0.2898	0.163
Mof_H 	H 	0.1021	0.9427	0.4243	0.166
Mof_H 	H 	0.1493	0.9481	0.4723	0.155
Mof_H 	H 	0.1015	0.8727	0.436	0.163
Mof_H 	H 	0.8725	0.7879	0.8896	0.095
Mof_H 	H 	0.6571	0.6825	0.8609	0.09
Mof_H 	H 	0.9417	0.8261	0.9641	0.166
Mof_H 	H 	0.9054	0.8342	0.0057	0.173
Mof_H 	H 	0.9097	0.7631	0.9904	0.174
Mof_H 	H 	0.6438	0.6586	0.9747	0.173
Mof_H 	H 	0.6124	0.699	0.9463	0.165
Mof_H 	H 	0.602	0.6236	0.9216	0.16
Mof_H 	H 	0.7734	0.845	0.1036	0.091
Mof_H 	H 	0.782	0.6622	0.094	0.094
Mof_H 	H 	0.7327	0.8333	0.9845	0.172
Mof_H 	H 	0.8129	0.8901	0.0116	0.165
Mof_H 	H 	0.748	0.8814	0.0346	0.163
Mof_H 	H 	0.7619	0.5879	0.0202	0.167
Mof_H 	H 	0.8279	0.6429	0.0027	0.172
Mof_H 	H 	0.7482	0.6118	0.9733	0.171
Mof_C 	C 	0.7099	0.6285	0.7075	0.302
Mof_C 	C 	0.6812	0.5518	0.6875	0.029
Mof_C 	C 	0.7238	0.5202	0.6945	-0.177
Mof_C 	C 	0.6976	0.449	0.6723	0.177
Mof_C 	C 	0.6305	0.4093	0.644	-0.115
Mof_C 	C 	0.5853	0.4401	0.6383	0.206
Mof_C 	C 	0.6129	0.5121	0.661	-0.193
Mof_C 	C 	0.7447	0.4151	0.6801	-0.51
Mof_C 	C 	0.5122	0.3966	0.6114	-0.585
Mof_C 	C 	0.5329	0.1235	0.5428	0.284
Mof_C 	C 	0.5554	0.1978	0.5686	0.076
Mof_C 	C 	0.5884	0.254	0.5499	-0.236
Mof_C 	C 	0.6158	0.3244	0.5752	0.253
Mof_C 	C 	0.604	0.3354	0.6179	-0.163
Mof_C 	C 	0.5684	0.2772	0.6386	0.234
Mof_C 	C 	0.5464	0.2108	0.6124	-0.234
Mof_C 	C 	0.6468	0.3852	0.5538	-0.612
Mof_C 	C 	0.5564	0.29	0.6859	-0.594
Mof_C 	C 	0.8152	0.8938	0.7686	0.296
Mof_C 	C 	0.846	0.971	0.7904	0.038
Mof_C 	C 	0.7995	0.9959	0.8019	-0.189
Mof_C 	C 	0.8273	0.0663	0.8257	0.191
Mof_C 	C 	0.9	0.1102	0.8389	-0.134
Mof_C 	C 	0.9482	0.087	0.8264	0.222
Mof_C 	C 	0.9185	0.0173	0.8022	-0.207
Mof_C 	C 	0.7756	0.0918	0.838	-0.523
Mof_C 	C 	0.0268	0.1368	0.8391	-0.605
Mof_C 	C 	0.9854	0.3872	0.9534	0.304
Mof_C 	C 	0.968	0.3156	0.9243	0.034
Mof_C 	C 	0.9609	0.3071	0.8768	-0.177
Mof_C 	C 	0.9405	0.2411	0.8483	0.176
Mof_C 	C 	0.929	0.1844	0.8694	-0.114
Mof_C 	C 	0.9382	0.1934	0.9166	0.182
Mof_C 	C 	0.956	0.2588	0.9437	-0.183
Mof_C 	C 	0.9312	0.2338	0.796	-0.518
Mof_C 	C 	0.9241	0.1309	0.9393	-0.515
Mof_C 	C 	0.7449	0.7625	0.3188	0.318
Mof_C 	C 	0.74	0.7646	0.368	0.027
Mof_C 	C 	0.7681	0.8293	0.3998	-0.189
Mof_C 	C 	0.7676	0.832	0.4453	0.199
Mof_C 	C 	0.7383	0.7685	0.4609	-0.126
Mof_C 	C 	0.7065	0.7045	0.4295	0.182
Mof_C 	C 	0.706	0.7018	0.3827	-0.179
Mof_C 	C 	0.8007	0.9035	0.4794	-0.544
Mof_C 	C 	0.6685	0.6343	0.4444	-0.53
Mof_C 	C 	0.7572	0.7728	0.6551	0.302
Mof_C 	C 	0.7529	0.7759	0.6049	0.028
Mof_C 	C 	0.8056	0.7734	0.5853	-0.179
Mof_C 	C 	0.8002	0.771	0.5372	0.18
Mof_C 	C 	0.742	0.7714	0.5109	-0.115
Mof_C 	C 	0.6901	0.7743	0.5322	0.175
Mof_C 	C 	0.6966	0.778	0.5794	-0.18
Mof_C 	C 	0.8561	0.7657	0.5151	-0.526
Mof_C 	C 	0.6275	0.7785	0.5046	-0.521
Mof_C 	C 	0.3715	0.2901	0.7925	0.302
Mof_C 	C 	0.4482	0.3188	0.8125	0.029
Mof_C 	C 	0.4798	0.2762	0.8055	-0.177
Mof_C 	C 	0.551	0.3024	0.8277	0.177
Mof_C 	C 	0.5907	0.3695	0.856	-0.115
Mof_C 	C 	0.5599	0.4147	0.8617	0.206
Mof_C 	C 	0.4879	0.3871	0.839	-0.193
Mof_C 	C 	0.5849	0.2553	0.8199	-0.51
Mof_C 	C 	0.6034	0.4878	0.8886	-0.585
Mof_C 	C 	0.8765	0.4671	0.9572	0.284
Mof_C 	C 	0.8022	0.4446	0.9314	0.076
Mof_C 	C 	0.746	0.4116	0.9501	-0.236
Mof_C 	C 	0.6756	0.3842	0.9248	0.253
Mof_C 	C 	0.6646	0.396	0.8821	-0.163
Mof_C 	C 	0.7228	0.4316	0.8614	0.234
Mof_C 	C 	0.7892	0.4536	0.8876	-0.234
Mof_C 	C 	0.6148	0.3532	0.9462	-0.612
Mof_C 	C 	0.71	0.4436	0.8141	-0.594
Mof_C 	C 	0.1062	0.1848	0.7314	0.296
Mof_C 	C 	0.029	0.154	0.7096	0.037
Mof_C 	C 	0.0041	0.2005	0.6981	-0.189
Mof_C 	C 	0.9337	0.1727	0.6743	0.191
Mof_C 	C 	0.8898	0.1	0.6611	-0.134
Mof_C 	C 	0.913	0.0518	0.6736	0.221
Mof_C 	C 	0.9827	0.0815	0.6978	-0.206
Mof_C 	C 	0.9082	0.2244	0.662	-0.523
Mof_C 	C 	0.8632	0.9732	0.6609	-0.604
Mof_C 	C 	0.6128	0.0146	0.5466	0.304
Mof_C 	C 	0.6844	0.032	0.5757	0.034
Mof_C 	C 	0.6929	0.0391	0.6232	-0.177
Mof_C 	C 	0.7589	0.0595	0.6517	0.176
Mof_C 	C 	0.8156	0.071	0.6306	-0.114
Mof_C 	C 	0.8066	0.0618	0.5834	0.182
Mof_C 	C 	0.7412	0.044	0.5563	-0.183
Mof_C 	C 	0.7662	0.0688	0.704	-0.518
Mof_C 	C 	0.8691	0.0759	0.5607	-0.515
Mof_C 	C 	0.2375	0.2551	0.1812	0.318
Mof_C 	C 	0.2354	0.26	0.132	0.026
Mof_C 	C 	0.1707	0.2319	0.1002	-0.188
Mof_C 	C 	0.168	0.2324	0.0547	0.198
Mof_C 	C 	0.2315	0.2617	0.0391	-0.125
Mof_C 	C 	0.2955	0.2935	0.0705	0.181
Mof_C 	C 	0.2982	0.294	0.1173	-0.178
Mof_C 	C 	0.0965	0.1993	0.0206	-0.542
Mof_C 	C 	0.3657	0.3315	0.0556	-0.53
Mof_C 	C 	0.2272	0.2428	0.8449	0.301
Mof_C 	C 	0.2241	0.2471	0.8951	0.028
Mof_C 	C 	0.2266	0.1944	0.9147	-0.18
Mof_C 	C 	0.229	0.1998	0.9628	0.181
Mof_C 	C 	0.2286	0.258	0.9891	-0.116
Mof_C 	C 	0.2257	0.3099	0.9678	0.176
Mof_C 	C 	0.222	0.3034	0.9206	-0.181
Mof_C 	C 	0.2343	0.1439	0.9849	-0.527
Mof_C 	C 	0.2215	0.3725	0.9954	-0.522
Mof_C 	C 	0.2901	0.3715	0.2925	0.302
Mof_C 	C 	0.3188	0.4482	0.3125	0.029
Mof_C 	C 	0.2762	0.4798	0.3055	-0.177
Mof_C 	C 	0.3024	0.551	0.3277	0.177
Mof_C 	C 	0.3695	0.5907	0.356	-0.115
Mof_C 	C 	0.4147	0.5599	0.3617	0.206
Mof_C 	C 	0.3871	0.4879	0.339	-0.193
Mof_C 	C 	0.2553	0.5849	0.3199	-0.51
Mof_C 	C 	0.4878	0.6034	0.3886	-0.585
Mof_C 	C 	0.4671	0.8765	0.4572	0.284
Mof_C 	C 	0.4446	0.8022	0.4314	0.076
Mof_C 	C 	0.4116	0.746	0.4501	-0.236
Mof_C 	C 	0.3842	0.6756	0.4248	0.253
Mof_C 	C 	0.396	0.6646	0.3821	-0.163
Mof_C 	C 	0.4316	0.7228	0.3614	0.234
Mof_C 	C 	0.4536	0.7892	0.3876	-0.234
Mof_C 	C 	0.3532	0.6148	0.4462	-0.612
Mof_C 	C 	0.4436	0.71	0.3141	-0.594
Mof_C 	C 	0.1848	0.1062	0.2314	0.296
Mof_C 	C 	0.154	0.029	0.2096	0.038
Mof_C 	C 	0.2005	0.0041	0.1981	-0.189
Mof_C 	C 	0.1727	0.9337	0.1743	0.191
Mof_C 	C 	0.1	0.8898	0.1611	-0.134
Mof_C 	C 	0.0518	0.913	0.1736	0.222
Mof_C 	C 	0.0815	0.9827	0.1978	-0.207
Mof_C 	C 	0.2244	0.9082	0.162	-0.523
Mof_C 	C 	0.9732	0.8632	0.1609	-0.605
Mof_C 	C 	0.0146	0.6128	0.0466	0.304
Mof_C 	C 	0.032	0.6844	0.0757	0.034
Mof_C 	C 	0.0391	0.6929	0.1232	-0.177
Mof_C 	C 	0.0595	0.7589	0.1517	0.176
Mof_C 	C 	0.071	0.8156	0.1306	-0.114
Mof_C 	C 	0.0618	0.8066	0.0834	0.182
Mof_C 	C 	0.044	0.7412	0.0563	-0.183
Mof_C 	C 	0.0688	0.7662	0.204	-0.518
Mof_C 	C 	0.0759	0.8691	0.0607	-0.515
Mof_C 	C 	0.2551	0.2375	0.6812	0.318
Mof_C 	C 	0.26	0.2354	0.632	0.027
Mof_C 	C 	0.2319	0.1707	0.6002	-0.189
Mof_C 	C 	0.2324	0.168	0.5547	0.199
Mof_C 	C 	0.2617	0.2315	0.5391	-0.126
Mof_C 	C 	0.2935	0.2955	0.5705	0.182
Mof_C 	C 	0.294	0.2982	0.6173	-0.179
Mof_C 	C 	0.1993	0.0965	0.5206	-0.544
Mof_C 	C 	0.3315	0.3657	0.5556	-0.53
Mof_C 	C 	0.2428	0.2272	0.3449	0.302
Mof_C 	C 	0.2471	0.2241	0.3951	0.028
Mof_C 	C 	0.1944	0.2266	0.4147	-0.179
Mof_C 	C 	0.1998	0.229	0.4628	0.18
Mof_C 	C 	0.258	0.2286	0.4891	-0.115
Mof_C 	C 	0.3099	0.2257	0.4678	0.175
Mof_C 	C 	0.3034	0.222	0.4206	-0.18
Mof_C 	C 	0.1439	0.2343	0.4849	-0.526
Mof_C 	C 	0.3725	0.2215	0.4954	-0.521
Mof_C 	C 	0.6285	0.7099	0.2075	0.302
Mof_C 	C 	0.5518	0.6812	0.1875	0.029
Mof_C 	C 	0.5202	0.7238	0.1945	-0.177
Mof_C 	C 	0.449	0.6976	0.1723	0.177
Mof_C 	C 	0.4093	0.6305	0.144	-0.115
Mof_C 	C 	0.4401	0.5853	0.1383	0.206
Mof_C 	C 	0.5121	0.6129	0.161	-0.193
Mof_C 	C 	0.4151	0.7447	0.1801	-0.51
Mof_C 	C 	0.3966	0.5122	0.1114	-0.585
Mof_C 	C 	0.1235	0.5329	0.0428	0.284
Mof_C 	C 	0.1978	0.5554	0.0686	0.076
Mof_C 	C 	0.254	0.5884	0.0499	-0.236
Mof_C 	C 	0.3244	0.6158	0.0752	0.253
Mof_C 	C 	0.3354	0.604	0.1179	-0.163
Mof_C 	C 	0.2772	0.5684	0.1386	0.234
Mof_C 	C 	0.2108	0.5464	0.1124	-0.234
Mof_C 	C 	0.3852	0.6468	0.0538	-0.612
Mof_C 	C 	0.29	0.5564	0.1859	-0.594
Mof_C 	C 	0.8938	0.8152	0.2686	0.296
Mof_C 	C 	0.971	0.846	0.2904	0.037
Mof_C 	C 	0.9959	0.7995	0.3019	-0.189
Mof_C 	C 	0.0663	0.8273	0.3257	0.191
Mof_C 	C 	0.1102	0.9	0.3389	-0.134
Mof_C 	C 	0.087	0.9482	0.3264	0.221
Mof_C 	C 	0.0173	0.9185	0.3022	-0.206
Mof_C 	C 	0.0918	0.7756	0.338	-0.523
Mof_C 	C 	0.1368	0.0268	0.3391	-0.604
Mof_C 	C 	0.3872	0.9854	0.4534	0.304
Mof_C 	C 	0.3156	0.968	0.4243	0.034
Mof_C 	C 	0.3071	0.9609	0.3768	-0.177
Mof_C 	C 	0.2411	0.9405	0.3483	0.176
Mof_C 	C 	0.1844	0.929	0.3694	-0.114
Mof_C 	C 	0.1934	0.9382	0.4166	0.182
Mof_C 	C 	0.2588	0.956	0.4437	-0.183
Mof_C 	C 	0.2338	0.9312	0.296	-0.518
Mof_C 	C 	0.1309	0.9241	0.4393	-0.515
Mof_C 	C 	0.7625	0.7449	0.8188	0.318
Mof_C 	C 	0.7646	0.74	0.868	0.026
Mof_C 	C 	0.8293	0.7681	0.8998	-0.188
Mof_C 	C 	0.832	0.7676	0.9453	0.198
Mof_C 	C 	0.7685	0.7383	0.9609	-0.125
Mof_C 	C 	0.7045	0.7065	0.9295	0.181
Mof_C 	C 	0.7018	0.706	0.8827	-0.178
Mof_C 	C 	0.9035	0.8007	0.9794	-0.542
Mof_C 	C 	0.6343	0.6685	0.9444	-0.53
Mof_C 	C 	0.7728	0.7572	0.1551	0.301
Mof_C 	C 	0.7759	0.7529	0.1049	0.028
Mof_C 	C 	0.7734	0.8056	0.0853	-0.18
Mof_C 	C 	0.771	0.8002	0.0372	0.181
Mof_C 	C 	0.7714	0.742	0.0109	-0.116
Mof_C 	C 	0.7743	0.6901	0.0322	0.176
Mof_C 	C 	0.778	0.6966	0.0794	-0.181
Mof_C 	C 	0.7657	0.8561	0.0151	-0.527
Mof_C 	C 	0.7785	0.6275	0.0046	-0.522
Mof_O 	O 	0.6667	0.6521	0.7043	-0.399
Mof_O 	O 	0.7765	0.6667	0.7257	-0.403
Mof_O 	O 	0.7492	0.8546	0.7615	-0.408
Mof_O 	O 	0.8595	0.8735	0.7589	-0.399
Mof_O 	O 	0.7314	0.7044	0.2941	-0.409
Mof_O 	O 	0.7668	0.8206	0.3067	-0.408
Mof_O 	O 	0.7068	0.7732	0.6721	-0.403
Mof_O 	O 	0.8098	0.7708	0.6767	-0.41
Mof_O 	O 	0.9676	0.3846	0.9924	-0.402
Mof_O 	O 	0.0093	0.4395	0.936	-0.41
Mof_O 	O 	0.4973	0.0725	0.5613	-0.396
Mof_O 	O 	0.5515	0.1163	0.5055	-0.403
Mof_O 	O 	0.3479	0.3333	0.7957	-0.399
Mof_O 	O 	0.3333	0.2235	0.7743	-0.403
Mof_O 	O 	0.1454	0.2508	0.7385	-0.408
Mof_O 	O 	0.1265	0.1405	0.7411	-0.399
Mof_O 	O 	0.2956	0.2686	0.2059	-0.409
Mof_O 	O 	0.1794	0.2332	0.1933	-0.408
Mof_O 	O 	0.2268	0.2932	0.8279	-0.403
Mof_O 	O 	0.2292	0.1902	0.8233	-0.41
Mof_O 	O 	0.6154	0.0324	0.5076	-0.402
Mof_O 	O 	0.5605	0.9907	0.564	-0.409
Mof_O 	O 	0.9275	0.5027	0.9387	-0.396
Mof_O 	O 	0.8837	0.4485	0.9945	-0.403
Mof_O 	O 	0.3333	0.3479	0.2957	-0.399
Mof_O 	O 	0.2235	0.3333	0.2743	-0.403
Mof_O 	O 	0.2508	0.1454	0.2385	-0.408
Mof_O 	O 	0.1405	0.1265	0.2411	-0.399
Mof_O 	O 	0.2686	0.2956	0.7059	-0.409
Mof_O 	O 	0.2332	0.1794	0.6933	-0.408
Mof_O 	O 	0.2932	0.2268	0.3279	-0.403
Mof_O 	O 	0.1902	0.2292	0.3233	-0.41
Mof_O 	O 	0.0324	0.6154	0.0076	-0.402
Mof_O 	O 	0.9907	0.5605	0.064	-0.41
Mof_O 	O 	0.5027	0.9275	0.4387	-0.396
Mof_O 	O 	0.4485	0.8837	0.4945	-0.403
Mof_O 	O 	0.6521	0.6667	0.2043	-0.399
Mof_O 	O 	0.6667	0.7765	0.2257	-0.403
Mof_O 	O 	0.8546	0.7492	0.2615	-0.408
Mof_O 	O 	0.8735	0.8595	0.2589	-0.399
Mof_O 	O 	0.7044	0.7314	0.7941	-0.409
Mof_O 	O 	0.8206	0.7668	0.8067	-0.408
Mof_O 	O 	0.7732	0.7068	0.1721	-0.403
Mof_O 	O 	0.7708	0.8098	0.1767	-0.41
Mof_O 	O 	0.3846	0.9676	0.4924	-0.402
Mof_O 	O 	0.4395	0.0093	0.436	-0.409
Mof_O 	O 	0.0725	0.4973	0.0613	-0.396
Mof_O 	O 	0.1163	0.5515	0.0055	-0.403
_end
