data_functionalizedCrystal
_audit_creation_method	'EQeq! by Chris Wilmer'
_symmetry_space_group_name_H-M	'P1'
_symmetry_Int_Tables_number	1
_symmetry_cell_setting	triclinic
loop_
_symmetry_equiv_pos_as_xyz
  x,y,z
_cell_length_a	14.107
_cell_length_b	17.275
_cell_length_c	17.275
_cell_angle_alpha	120
_cell_angle_beta	90
_cell_angle_gamma	90
loop_
_atom_site_label
_atom_site_type_symbol
_atom_site_fract_x
_atom_site_fract_y
_atom_site_fract_z
_atom_site_charge
Mof_Mn	Mn	0.89616	0.33333	0.66666	0.883
Mof_Mn	Mn	0.60384	0.33333	0.66666	0.883
Mof_Mn	Mn	0.10384	0.66667	0.33334	0.883
Mof_Mn	Mn	0.39616	0.66667	0.33334	0.883
Mof_H 	H 	0.6154	0.0647	0.5709	0.094
Mof_H 	H 	0.5914	0.7854	0.3683	-0.01
Mof_H 	H 	0.3529	0.7849	0.5612	0.079
Mof_H 	H 	0.3372	0.904	0.7052	0.032
Mof_H 	H 	0.4452	0.0202	0.7625	0.041
Mof_H 	H 	0.5642	0.0271	0.6745	0.063
Mof_H 	H 	0.6154	0.5062	0.9353	0.094
Mof_H 	H 	0.5914	0.5829	0.2146	-0.01
Mof_H 	H 	0.3529	0.7763	0.2151	0.079
Mof_H 	H 	0.3372	0.8012	0.096	0.032
Mof_H 	H 	0.4452	0.7423	0.9798	0.041
Mof_H 	H 	0.5642	0.6474	0.9729	0.063
Mof_H 	H 	0.6154	0.4291	0.4938	0.094
Mof_H 	H 	0.5914	0.6317	0.4171	-0.01
Mof_H 	H 	0.3529	0.4388	0.2237	0.079
Mof_H 	H 	0.3372	0.2948	0.1988	0.032
Mof_H 	H 	0.4452	0.2375	0.2577	0.041
Mof_H 	H 	0.5642	0.3255	0.3526	0.063
Mof_H 	H 	0.8846	0.5062	0.5709	0.094
Mof_H 	H 	0.9086	0.5829	0.3683	-0.01
Mof_H 	H 	0.1471	0.7763	0.5612	0.079
Mof_H 	H 	0.1628	0.8012	0.7052	0.032
Mof_H 	H 	0.0548	0.7423	0.7625	0.041
Mof_H 	H 	0.9358	0.6474	0.6745	0.063
Mof_H 	H 	0.8846	0.4291	0.9353	0.094
Mof_H 	H 	0.9086	0.6317	0.2146	-0.01
Mof_H 	H 	0.1471	0.4388	0.2151	0.079
Mof_H 	H 	0.1628	0.2948	0.096	0.033
Mof_H 	H 	0.0548	0.2375	0.9798	0.04
Mof_H 	H 	0.9358	0.3255	0.9729	0.065
Mof_H 	H 	0.8846	0.0647	0.4938	0.094
Mof_H 	H 	0.9086	0.7854	0.4171	-0.01
Mof_H 	H 	0.1471	0.7849	0.2237	0.079
Mof_H 	H 	0.1628	0.904	0.1988	0.033
Mof_H 	H 	0.0548	0.0202	0.2577	0.039
Mof_H 	H 	0.9358	0.0271	0.3526	0.065
Mof_H 	H 	0.3846	0.9353	0.4291	0.094
Mof_H 	H 	0.4086	0.2146	0.6317	-0.01
Mof_H 	H 	0.6471	0.2151	0.4388	0.079
Mof_H 	H 	0.6628	0.096	0.2948	0.032
Mof_H 	H 	0.5548	0.9798	0.2375	0.041
Mof_H 	H 	0.4358	0.9729	0.3255	0.063
Mof_H 	H 	0.3846	0.4938	0.0647	0.094
Mof_H 	H 	0.4086	0.4171	0.7854	-0.01
Mof_H 	H 	0.6471	0.2237	0.7849	0.079
Mof_H 	H 	0.6628	0.1988	0.904	0.032
Mof_H 	H 	0.5548	0.2577	0.0202	0.041
Mof_H 	H 	0.4358	0.3526	0.0271	0.063
Mof_H 	H 	0.3846	0.5709	0.5062	0.094
Mof_H 	H 	0.4086	0.3683	0.5829	-0.01
Mof_H 	H 	0.6471	0.5612	0.7763	0.079
Mof_H 	H 	0.6628	0.7052	0.8012	0.032
Mof_H 	H 	0.5548	0.7625	0.7423	0.041
Mof_H 	H 	0.4358	0.6745	0.6474	0.063
Mof_H 	H 	0.1154	0.4938	0.4291	0.094
Mof_H 	H 	0.0914	0.4171	0.6317	-0.01
Mof_H 	H 	0.8529	0.2237	0.4388	0.079
Mof_H 	H 	0.8372	0.1988	0.2948	0.032
Mof_H 	H 	0.9452	0.2577	0.2375	0.041
Mof_H 	H 	0.0642	0.3526	0.3255	0.063
Mof_H 	H 	0.1154	0.5709	0.0647	0.094
Mof_H 	H 	0.0914	0.3683	0.7854	-0.01
Mof_H 	H 	0.8529	0.5612	0.7849	0.079
Mof_H 	H 	0.8372	0.7052	0.904	0.033
Mof_H 	H 	0.9452	0.7625	0.0202	0.04
Mof_H 	H 	0.0642	0.6745	0.0271	0.065
Mof_H 	H 	0.1154	0.9353	0.5062	0.094
Mof_H 	H 	0.0914	0.2146	0.5829	-0.01
Mof_H 	H 	0.8529	0.2151	0.7763	0.079
Mof_H 	H 	0.8372	0.096	0.8012	0.033
Mof_H 	H 	0.9452	0.9798	0.7423	0.039
Mof_H 	H 	0.0642	0.9729	0.6474	0.065
Mof_H 	H 	0.75	0.8324	0.4162	0.111
Mof_H 	H 	0.75	0.5838	0.1676	0.111
Mof_H 	H 	0.75	0.5838	0.4162	0.111
Mof_H 	H 	0.25	0.1676	0.5838	0.111
Mof_H 	H 	0.25	0.4162	0.8324	0.111
Mof_H 	H 	0.25	0.4162	0.5838	0.111
Mof_C 	C 	0.66953	0.03378	0.54029	-0.143
Mof_C 	C 	0.67082	0.94124	0.49448	0.163
Mof_C 	C 	0.5616	0.8118	0.42372	0.1
Mof_C 	C 	0.46543	0.83659	0.53018	0.071
Mof_C 	C 	0.3943	0.8333	0.5831	-0.109
Mof_C 	C 	0.3863	0.9036	0.669	-0.011
Mof_C 	C 	0.4509	0.9749	0.7033	-0.032
Mof_C 	C 	0.522	0.9794	0.6519	-0.085
Mof_C 	C 	0.5282	0.90959	0.56452	0.055
Mof_C 	C 	0.66953	0.50651	0.96622	-0.143
Mof_C 	C 	0.67082	0.55324	0.05876	0.163
Mof_C 	C 	0.5616	0.61192	0.1882	0.1
Mof_C 	C 	0.46543	0.69359	0.16341	0.071
Mof_C 	C 	0.3943	0.7498	0.1667	-0.109
Mof_C 	C 	0.3863	0.7654	0.0964	-0.011
Mof_C 	C 	0.4509	0.7284	0.0251	-0.032
Mof_C 	C 	0.522	0.6725	0.0206	-0.085
Mof_C 	C 	0.5282	0.65493	0.09041	0.055
Mof_C 	C 	0.66953	0.45971	0.49349	-0.144
Mof_C 	C 	0.67082	0.50552	0.44676	0.164
Mof_C 	C 	0.5616	0.57628	0.38808	0.1
Mof_C 	C 	0.46543	0.46982	0.30641	0.071
Mof_C 	C 	0.3943	0.4169	0.2502	-0.109
Mof_C 	C 	0.3863	0.331	0.2346	-0.011
Mof_C 	C 	0.4509	0.2967	0.2716	-0.032
Mof_C 	C 	0.522	0.3481	0.3275	-0.085
Mof_C 	C 	0.5282	0.43548	0.34507	0.055
Mof_C 	C 	0.83047	0.50651	0.54029	-0.144
Mof_C 	C 	0.82918	0.55324	0.49448	0.164
Mof_C 	C 	0.9384	0.61192	0.42372	0.1
Mof_C 	C 	0.03457	0.69359	0.53018	0.071
Mof_C 	C 	0.1057	0.7498	0.5831	-0.109
Mof_C 	C 	0.1137	0.7654	0.669	-0.011
Mof_C 	C 	0.0491	0.7284	0.7033	-0.032
Mof_C 	C 	0.978	0.6725	0.6519	-0.085
Mof_C 	C 	0.9718	0.65493	0.56452	0.054
Mof_C 	C 	0.83047	0.45971	0.96622	-0.143
Mof_C 	C 	0.82918	0.50552	0.05876	0.163
Mof_C 	C 	0.9384	0.57628	0.1882	0.1
Mof_C 	C 	0.03457	0.46982	0.16341	0.07
Mof_C 	C 	0.1057	0.4169	0.1667	-0.107
Mof_C 	C 	0.1137	0.331	0.0964	-0.013
Mof_C 	C 	0.0491	0.2967	0.0251	-0.029
Mof_C 	C 	0.978	0.3481	0.0206	-0.088
Mof_C 	C 	0.9718	0.43548	0.09041	0.056
Mof_C 	C 	0.83047	0.03378	0.49349	-0.143
Mof_C 	C 	0.82918	0.94124	0.44676	0.163
Mof_C 	C 	0.9384	0.8118	0.38808	0.1
Mof_C 	C 	0.03457	0.83659	0.30641	0.07
Mof_C 	C 	0.1057	0.8333	0.2502	-0.107
Mof_C 	C 	0.1137	0.9036	0.2346	-0.014
Mof_C 	C 	0.0491	0.9749	0.2716	-0.028
Mof_C 	C 	0.978	0.9794	0.3275	-0.089
Mof_C 	C 	0.9718	0.90959	0.34507	0.056
Mof_C 	C 	0.33047	0.96622	0.45971	-0.143
Mof_C 	C 	0.32918	0.05876	0.50552	0.163
Mof_C 	C 	0.4384	0.1882	0.57628	0.1
Mof_C 	C 	0.53457	0.16341	0.46982	0.071
Mof_C 	C 	0.6057	0.1667	0.4169	-0.109
Mof_C 	C 	0.6137	0.0964	0.331	-0.011
Mof_C 	C 	0.5491	0.0251	0.2967	-0.032
Mof_C 	C 	0.478	0.0206	0.3481	-0.085
Mof_C 	C 	0.4718	0.09041	0.43548	0.055
Mof_C 	C 	0.33047	0.49349	0.03378	-0.143
Mof_C 	C 	0.32918	0.44676	0.94124	0.163
Mof_C 	C 	0.4384	0.38808	0.8118	0.1
Mof_C 	C 	0.53457	0.30641	0.83659	0.071
Mof_C 	C 	0.6057	0.2502	0.8333	-0.109
Mof_C 	C 	0.6137	0.2346	0.9036	-0.011
Mof_C 	C 	0.5491	0.2716	0.9749	-0.032
Mof_C 	C 	0.478	0.3275	0.9794	-0.085
Mof_C 	C 	0.4718	0.34507	0.90959	0.055
Mof_C 	C 	0.33047	0.54029	0.50651	-0.144
Mof_C 	C 	0.32918	0.49448	0.55324	0.164
Mof_C 	C 	0.4384	0.42372	0.61192	0.1
Mof_C 	C 	0.53457	0.53018	0.69359	0.071
Mof_C 	C 	0.6057	0.5831	0.7498	-0.109
Mof_C 	C 	0.6137	0.669	0.7654	-0.011
Mof_C 	C 	0.5491	0.7033	0.7284	-0.032
Mof_C 	C 	0.478	0.6519	0.6725	-0.085
Mof_C 	C 	0.4718	0.56452	0.65493	0.055
Mof_C 	C 	0.16953	0.49349	0.45971	-0.144
Mof_C 	C 	0.17082	0.44676	0.50552	0.164
Mof_C 	C 	0.0616	0.38808	0.57628	0.1
Mof_C 	C 	0.96543	0.30641	0.46982	0.071
Mof_C 	C 	0.8943	0.2502	0.4169	-0.109
Mof_C 	C 	0.8863	0.2346	0.331	-0.011
Mof_C 	C 	0.9509	0.2716	0.2967	-0.032
Mof_C 	C 	0.022	0.3275	0.3481	-0.085
Mof_C 	C 	0.0282	0.34507	0.43548	0.054
Mof_C 	C 	0.16953	0.54029	0.03378	-0.143
Mof_C 	C 	0.17082	0.49448	0.94124	0.163
Mof_C 	C 	0.0616	0.42372	0.8118	0.1
Mof_C 	C 	0.96543	0.53018	0.83659	0.07
Mof_C 	C 	0.8943	0.5831	0.8333	-0.107
Mof_C 	C 	0.8863	0.669	0.9036	-0.013
Mof_C 	C 	0.9509	0.7033	0.9749	-0.029
Mof_C 	C 	0.022	0.6519	0.9794	-0.088
Mof_C 	C 	0.0282	0.56452	0.90959	0.056
Mof_C 	C 	0.16953	0.96622	0.50651	-0.143
Mof_C 	C 	0.17082	0.05876	0.55324	0.163
Mof_C 	C 	0.0616	0.1882	0.61192	0.1
Mof_C 	C 	0.96543	0.16341	0.69359	0.07
Mof_C 	C 	0.8943	0.1667	0.7498	-0.107
Mof_C 	C 	0.8863	0.0964	0.7654	-0.014
Mof_C 	C 	0.9509	0.0251	0.7284	-0.028
Mof_C 	C 	0.022	0.0206	0.6725	-0.089
Mof_C 	C 	0.0282	0.09041	0.65493	0.056
Mof_C 	C 	0.75	0.18	0.59	0.332
Mof_C 	C 	0.75	0.0799	0.53995	0.007
Mof_C 	C 	0.75	0.8946	0.4473	-0.219
Mof_C 	C 	0.75	0.41	0.82	0.332
Mof_C 	C 	0.75	0.46005	0.9201	0.007
Mof_C 	C 	0.75	0.5527	0.1054	-0.219
Mof_C 	C 	0.75	0.41	0.59	0.332
Mof_C 	C 	0.75	0.46005	0.53995	0.007
Mof_C 	C 	0.75	0.5527	0.4473	-0.219
Mof_C 	C 	0.25	0.82	0.41	0.332
Mof_C 	C 	0.25	0.9201	0.46005	0.007
Mof_C 	C 	0.25	0.1054	0.5527	-0.219
Mof_C 	C 	0.25	0.59	0.18	0.332
Mof_C 	C 	0.25	0.53995	0.0799	0.007
Mof_C 	C 	0.25	0.4473	0.8946	-0.219
Mof_C 	C 	0.25	0.59	0.41	0.332
Mof_C 	C 	0.25	0.53995	0.46005	0.007
Mof_C 	C 	0.25	0.4473	0.5527	-0.219
Mof_N 	N 	0.58962	0.8917	0.49425	-0.159
Mof_N 	N 	0.48872	0.77557	0.44128	-0.191
Mof_N 	N 	0.58962	0.60255	0.1083	-0.159
Mof_N 	N 	0.48872	0.66571	0.22443	-0.191
Mof_N 	N 	0.58962	0.50575	0.39745	-0.159
Mof_N 	N 	0.48872	0.55872	0.33429	-0.191
Mof_N 	N 	0.91038	0.60255	0.49425	-0.159
Mof_N 	N 	0.01128	0.66571	0.44128	-0.191
Mof_N 	N 	0.91038	0.50575	0.1083	-0.159
Mof_N 	N 	0.01128	0.55872	0.22443	-0.191
Mof_N 	N 	0.91038	0.8917	0.39745	-0.159
Mof_N 	N 	0.01128	0.77557	0.33429	-0.191
Mof_N 	N 	0.41038	0.1083	0.50575	-0.159
Mof_N 	N 	0.51128	0.22443	0.55872	-0.191
Mof_N 	N 	0.41038	0.39745	0.8917	-0.159
Mof_N 	N 	0.51128	0.33429	0.77557	-0.191
Mof_N 	N 	0.41038	0.49425	0.60255	-0.159
Mof_N 	N 	0.51128	0.44128	0.66571	-0.191
Mof_N 	N 	0.08962	0.39745	0.50575	-0.159
Mof_N 	N 	0.98872	0.33429	0.55872	-0.191
Mof_N 	N 	0.08962	0.49425	0.8917	-0.159
Mof_N 	N 	0.98872	0.44128	0.77557	-0.191
Mof_N 	N 	0.08962	0.1083	0.60255	-0.159
Mof_N 	N 	0.98872	0.22443	0.66571	-0.191
Mof_O 	O 	0.81787	0.218	0.57493	-0.368
Mof_O 	O 	0.81787	0.35693	0.782	-0.368
Mof_O 	O 	0.81787	0.42507	0.64307	-0.368
Mof_O 	O 	0.68213	0.35693	0.57493	-0.368
Mof_O 	O 	0.68213	0.42507	0.782	-0.368
Mof_O 	O 	0.68213	0.218	0.64307	-0.368
Mof_O 	O 	0.18213	0.782	0.42507	-0.368
Mof_O 	O 	0.18213	0.64307	0.218	-0.368
Mof_O 	O 	0.18213	0.57493	0.35693	-0.368
Mof_O 	O 	0.31787	0.64307	0.42507	-0.368
Mof_O 	O 	0.31787	0.57493	0.218	-0.368
Mof_O 	O 	0.31787	0.782	0.35693	-0.368
_end
