data_functionalizedCrystal
_audit_creation_method	'EQeq! by Chris Wilmer'
_symmetry_space_group_name_H-M	'P1'
_symmetry_Int_Tables_number	1
_symmetry_cell_setting	triclinic
loop_
_symmetry_equiv_pos_as_xyz
  x,y,z
_cell_length_a	16.0339
_cell_length_b	19.411
_cell_length_c	19.411
_cell_angle_alpha	120
_cell_angle_beta	90
_cell_angle_gamma	90
loop_
_atom_site_label
_atom_site_type_symbol
_atom_site_fract_x
_atom_site_fract_y
_atom_site_fract_z
_atom_site_charge
Mof_Mn	Mn	0.75	0.48521	0.51479	0.96
Mof_Mn	Mn	0.25	0.51479	0.48521	0.96
Mof_Mn	Mn	0.91667	0.51479	0.02958	0.964
Mof_Mn	Mn	0.58333	0.97042	0.48521	0.96
Mof_Mn	Mn	0.08333	0.02958	0.51479	0.964
Mof_Mn	Mn	0.41667	0.48521	0.97042	0.96
Mof_Cr	Cr	0.32515	0.64	0.80893	2.12
Mof_Cr	Cr	0.34151	0.36	0.16893	2.12
Mof_Cr	Cr	0.84151	0.64	0.83107	2.12
Mof_Cr	Cr	0.82515	0.36	0.19107	2.12
Mof_Cr	Cr	0.50818	0.16893	0.80893	2.121
Mof_Cr	Cr	0.67485	0.80893	0.64	2.121
Mof_Cr	Cr	0.17485	0.19107	0.36	2.121
Mof_Cr	Cr	0.65849	0.16893	0.36	2.121
Mof_Cr	Cr	0.15849	0.83107	0.64	2.121
Mof_Cr	Cr	0.00818	0.83107	0.19107	2.107
Mof_Cr	Cr	0.99182	0.19107	0.83107	2.107
Mof_Cr	Cr	0.49182	0.80893	0.16893	2.121
Mof_C 	C 	0.9912	0.9366	0.1365	0.271
Mof_C 	C 	0.5023	0.8621	0.3291	0.268
Mof_C 	C 	0.13157	0.8608	0.7929	0.278
Mof_C 	C 	0.0023	0.1379	0.6709	0.278
Mof_C 	C 	0.4977	0.3291	0.8621	0.268
Mof_C 	C 	0.5351	0.1392	0.9321	0.278
Mof_C 	C 	0.5672	0.0792	0.4082	0.237
Mof_C 	C 	0.912	0.6966	0.1208	0.256
Mof_C 	C 	0.8477	0.5523	0.9068	0.272
Mof_C 	C 	0.83103	0.533	0.6709	0.268
Mof_C 	C 	0.83563	0.467	0.1379	0.268
Mof_C 	C 	0.31897	0.5523	0.6455	0.273
Mof_C 	C 	0.40053	0.671	0.0792	0.237
Mof_C 	C 	0.65787	0.8635	0.8001	0.266
Mof_C 	C 	0.4328	0.4082	0.0792	0.237
Mof_C 	C 	0.33103	0.467	0.3291	0.268
Mof_C 	C 	0.90053	0.329	0.9208	0.239
Mof_C 	C 	0.9649	0.0679	0.8608	0.273
Mof_C 	C 	0.26613	0.329	0.4082	0.237
Mof_C 	C 	0.32453	0.1999	0.0634	0.266
Mof_C 	C 	0.68103	0.6455	0.5523	0.273
Mof_C 	C 	0.0351	0.8608	0.0679	0.273
Mof_C 	C 	0.16897	0.6709	0.533	0.268
Mof_C 	C 	0.412	0.3034	0.8792	0.258
Mof_C 	C 	0.76613	0.671	0.5918	0.237
Mof_C 	C 	0.0672	0.9208	0.5918	0.237
Mof_C 	C 	0.16437	0.1379	0.467	0.268
Mof_C 	C 	0.67547	0.0634	0.1999	0.266
Mof_C 	C 	0.1523	0.9068	0.5523	0.272
Mof_C 	C 	0.86843	0.7929	0.8608	0.278
Mof_C 	C 	0.5088	0.8635	0.0634	0.266
Mof_C 	C 	0.81897	0.4477	0.3545	0.273
Mof_C 	C 	0.92133	0.4242	0.1208	0.259
Mof_C 	C 	0.07867	0.1208	0.4242	0.259
Mof_C 	C 	0.17547	0.9366	0.8001	0.266
Mof_C 	C 	0.36843	0.2071	0.1392	0.278
Mof_C 	C 	0.74533	0.5758	0.6966	0.258
Mof_C 	C 	0.59947	0.0792	0.671	0.237
Mof_C 	C 	0.73387	0.4082	0.329	0.237
Mof_C 	C 	0.84213	0.1999	0.1365	0.266
Mof_C 	C 	0.18103	0.3545	0.4477	0.273
Mof_C 	C 	0.98563	0.3545	0.9068	0.262
Mof_C 	C 	0.70177	0.9321	0.7929	0.278
Mof_C 	C 	0.4649	0.9321	0.1392	0.278
Mof_C 	C 	0.6523	0.0932	0.4477	0.273
Mof_C 	C 	0.15787	0.1365	0.1999	0.266
Mof_C 	C 	0.0088	0.1365	0.9366	0.271
Mof_C 	C 	0.75467	0.3034	0.4242	0.258
Mof_C 	C 	0.9328	0.5918	0.9208	0.237
Mof_C 	C 	0.01437	0.9068	0.3545	0.262
Mof_C 	C 	0.588	0.8792	0.3034	0.258
Mof_C 	C 	0.23387	0.5918	0.671	0.237
Mof_C 	C 	0.088	0.1208	0.6966	0.256
Mof_C 	C 	0.82453	0.8001	0.9366	0.266
Mof_C 	C 	0.29823	0.7929	0.9321	0.278
Mof_C 	C 	0.48563	0.6455	0.0932	0.272
Mof_C 	C 	0.25467	0.6966	0.5758	0.258
Mof_C 	C 	0.34213	0.8001	0.8635	0.266
Mof_C 	C 	0.42133	0.5758	0.8792	0.259
Mof_C 	C 	0.24533	0.4242	0.3034	0.258
Mof_C 	C 	0.66437	0.8621	0.533	0.268
Mof_C 	C 	0.33563	0.533	0.8621	0.268
Mof_C 	C 	0.63157	0.1392	0.2071	0.278
Mof_C 	C 	0.57867	0.8792	0.5758	0.259
Mof_C 	C 	0.09947	0.9208	0.329	0.239
Mof_C 	C 	0.9977	0.6709	0.1379	0.278
Mof_C 	C 	0.4912	0.0634	0.8635	0.266
Mof_C 	C 	0.3477	0.4477	0.0932	0.273
Mof_C 	C 	0.66897	0.3291	0.467	0.268
Mof_C 	C 	0.20177	0.0679	0.2071	0.278
Mof_C 	C 	0.51437	0.0932	0.6455	0.272
Mof_C 	C 	0.79823	0.2071	0.0679	0.278
Mof_O 	O 	0.7971	0.5646	0.86318	-0.476
Mof_O 	O 	0.5104	0.40028	0.88498	-0.265
Mof_O 	O 	0.82293	0.5153	0.11502	-0.265
Mof_O 	O 	0.11707	0.7277	0.5523	-0.475
Mof_O 	O 	0.61707	0.2723	0.4477	-0.475
Mof_O 	O 	0.32293	0.4847	0.88498	-0.265
Mof_O 	O 	0.15627	0.59972	0.4847	-0.265
Mof_O 	O 	0.4504	0.8246	0.2723	-0.475
Mof_O 	O 	0.9896	0.11502	0.59972	-0.272
Mof_O 	O 	0.21907	0.0875	0.2791	-0.487
Mof_O 	O 	0.516	0.0379	0.4167	-0.231
Mof_O 	O 	0.84663	0.1344	0.1313	-0.15
Mof_O 	O 	0.15337	0.1313	0.1344	-0.15
Mof_O 	O 	0.86957	0.4354	0.29858	-0.475
Mof_O 	O 	0.38293	0.4477	0.2723	-0.475
Mof_O 	O 	0.9476	0.0875	0.8084	-0.486
Mof_O 	O 	0.28483	0.851	0.9959	-0.154
Mof_O 	O 	0.71627	0.8246	0.5523	-0.474
Mof_O 	O 	0.67997	0.0031	0.1344	-0.15
Mof_O 	O 	0.4053	0.23022	0.85726	-0.482
Mof_O 	O 	0.36523	0.7335	0.80463	-0.485
Mof_O 	O 	0.52357	0.91129	0.5564	-0.245
Mof_O 	O 	0.17707	0.11502	0.5153	-0.265
Mof_O 	O 	0.03623	0.29858	0.86318	-0.468
Mof_O 	O 	0.2029	0.86318	0.5646	-0.476
Mof_O 	O 	0.0485	0.8551	0.0041	-0.156
Mof_O 	O 	0.484	0.4167	0.0379	-0.231
Mof_O 	O 	0.32003	0.1344	0.0031	-0.15
Mof_O 	O 	0.19023	0.4436	0.35489	-0.245
Mof_O 	O 	0.0564	0.88597	0.6343	-0.463
Mof_O 	O 	0.6686	0.06265	0.4891	-0.268
Mof_O 	O 	0.99807	0.93735	0.42645	-0.262
Mof_O 	O 	0.49807	0.06265	0.57355	-0.267
Mof_O 	O 	0.50193	0.57355	0.06265	-0.267
Mof_O 	O 	0.17997	0.9969	0.8656	-0.15
Mof_O 	O 	0.5524	0.1916	0.9125	-0.488
Mof_O 	O 	0.11817	0.8551	0.851	-0.154
Mof_O 	O 	0.71907	0.9125	0.7209	-0.487
Mof_O 	O 	0.4436	0.3657	0.11403	-0.463
Mof_O 	O 	0.00193	0.42645	0.93735	-0.262
Mof_O 	O 	0.1686	0.93735	0.5109	-0.269
Mof_O 	O 	0.8569	0.64511	0.08871	-0.244
Mof_O 	O 	0.4515	0.9959	0.1449	-0.156
Mof_O 	O 	0.69023	0.5564	0.64511	-0.245
Mof_O 	O 	0.4896	0.88498	0.40028	-0.265
Mof_O 	O 	0.66473	0.57355	0.5109	-0.267
Mof_O 	O 	0.13477	0.19537	0.2665	-0.485
Mof_O 	O 	0.69857	0.07113	0.2665	-0.485
Mof_O 	O 	0.9053	0.76978	0.14274	-0.478
Mof_O 	O 	0.96377	0.86318	0.29858	-0.468
Mof_O 	O 	0.18267	0.5833	0.6212	-0.23
Mof_O 	O 	0.73863	0.62704	0.76978	-0.482
Mof_O 	O 	0.26137	0.76978	0.62704	-0.482
Mof_O 	O 	0.83527	0.4891	0.42645	-0.267
Mof_O 	O 	0.0524	0.8084	0.0875	-0.486
Mof_O 	O 	0.30977	0.64511	0.5564	-0.245
Mof_O 	O 	0.15067	0.9621	0.3788	-0.233
Mof_O 	O 	0.21517	0.0041	0.149	-0.154
Mof_O 	O 	0.72307	0.3657	0.25167	-0.463
Mof_O 	O 	0.84373	0.4847	0.59972	-0.265
Mof_O 	O 	0.0496	0.7277	0.1754	-0.478
Mof_O 	O 	0.9867	0.9969	0.1313	-0.148
Mof_O 	O 	0.0947	0.14274	0.76978	-0.478
Mof_O 	O 	0.13043	0.29858	0.4354	-0.475
Mof_O 	O 	0.8314	0.5109	0.93735	-0.269
Mof_O 	O 	0.6431	0.91129	0.35489	-0.245
Mof_O 	O 	0.4681	0.07113	0.80463	-0.485
Mof_O 	O 	0.88293	0.5523	0.7277	-0.475
Mof_O 	O 	0.53623	0.70142	0.13682	-0.475
Mof_O 	O 	0.2971	0.4354	0.13682	-0.476
Mof_O 	O 	0.46377	0.13682	0.70142	-0.475
Mof_O 	O 	0.84933	0.3788	0.9621	-0.233
Mof_O 	O 	0.77693	0.74833	0.6343	-0.463
Mof_O 	O 	0.61027	0.11403	0.74833	-0.464
Mof_O 	O 	0.61427	0.1916	0.2791	-0.488
Mof_O 	O 	0.984	0.5833	0.9621	-0.232
Mof_O 	O 	0.38573	0.2791	0.1916	-0.488
Mof_O 	O 	0.67707	0.88498	0.4847	-0.265
Mof_O 	O 	0.02357	0.08871	0.4436	-0.244
Mof_O 	O 	0.11427	0.8084	0.7209	-0.487
Mof_O 	O 	0.34933	0.6212	0.0379	-0.231
Mof_O 	O 	0.016	0.9621	0.5833	-0.232
Mof_O 	O 	0.57197	0.85726	0.62704	-0.482
Mof_O 	O 	0.47643	0.5564	0.91129	-0.245
Mof_O 	O 	0.5496	0.2723	0.8246	-0.475
Mof_O 	O 	0.27693	0.25167	0.3657	-0.463
Mof_O 	O 	0.1431	0.08871	0.64511	-0.244
Mof_O 	O 	0.16473	0.42645	0.4891	-0.267
Mof_O 	O 	0.5319	0.80463	0.07113	-0.485
Mof_O 	O 	0.22307	0.6343	0.74833	-0.463
Mof_O 	O 	0.80977	0.35489	0.4436	-0.245
Mof_O 	O 	0.5564	0.11403	0.3657	-0.463
Mof_O 	O 	0.82003	0.8656	0.9969	-0.15
Mof_O 	O 	0.78093	0.2791	0.0875	-0.487
Mof_O 	O 	0.7029	0.13682	0.4354	-0.476
Mof_O 	O 	0.28373	0.5523	0.8246	-0.474
Mof_O 	O 	0.4867	0.0031	0.8687	-0.15
Mof_O 	O 	0.71517	0.9959	0.851	-0.154
Mof_O 	O 	0.3314	0.4891	0.06265	-0.268
Mof_O 	O 	0.34373	0.5153	0.40028	-0.265
Mof_O 	O 	0.0319	0.19537	0.92887	-0.482
Mof_O 	O 	0.11027	0.88597	0.25167	-0.463
Mof_O 	O 	0.0133	0.1313	0.9969	-0.148
Mof_O 	O 	0.30143	0.2665	0.07113	-0.485
Mof_O 	O 	0.42803	0.62704	0.85726	-0.482
Mof_O 	O 	0.19857	0.92887	0.7335	-0.485
Mof_O 	O 	0.78483	0.149	0.0041	-0.154
Mof_O 	O 	0.80143	0.7335	0.92887	-0.485
Mof_O 	O 	0.5133	0.8687	0.0031	-0.15
Mof_O 	O 	0.65067	0.0379	0.6212	-0.231
Mof_O 	O 	0.34663	0.8656	0.8687	-0.149
Mof_O 	O 	0.65627	0.40028	0.5153	-0.265
Mof_O 	O 	0.9515	0.0041	0.8551	-0.156
Mof_O 	O 	0.88183	0.851	0.8551	-0.154
Mof_O 	O 	0.38973	0.74833	0.11403	-0.464
Mof_O 	O 	0.88573	0.7209	0.8084	-0.487
Mof_O 	O 	0.9504	0.1754	0.7277	-0.478
Mof_O 	O 	0.38183	0.149	0.1449	-0.155
Mof_O 	O 	0.61817	0.1449	0.149	-0.155
Mof_O 	O 	0.97643	0.4436	0.08871	-0.244
Mof_O 	O 	0.3569	0.35489	0.91129	-0.245
Mof_O 	O 	0.86523	0.2665	0.19537	-0.485
Mof_O 	O 	0.63477	0.80463	0.7335	-0.485
Mof_O 	O 	0.78373	0.4477	0.1754	-0.475
Mof_O 	O 	0.5485	0.1449	0.9959	-0.156
Mof_O 	O 	0.36957	0.5646	0.70142	-0.475
Mof_O 	O 	0.28093	0.7209	0.9125	-0.487
Mof_O 	O 	0.76137	0.23022	0.37296	-0.482
Mof_O 	O 	0.21627	0.1754	0.4477	-0.475
Mof_O 	O 	0.9436	0.6343	0.88597	-0.463
Mof_O 	O 	0.88973	0.25167	0.88597	-0.463
Mof_O 	O 	0.0104	0.59972	0.11502	-0.272
Mof_O 	O 	0.23863	0.37296	0.23022	-0.482
Mof_O 	O 	0.92803	0.37296	0.14274	-0.482
Mof_O 	O 	0.4476	0.9125	0.1916	-0.488
Mof_O 	O 	0.5947	0.85726	0.23022	-0.482
Mof_O 	O 	0.33527	0.5109	0.57355	-0.267
Mof_O 	O 	0.81733	0.6212	0.5833	-0.23
Mof_O 	O 	0.63043	0.70142	0.5646	-0.475
Mof_O 	O 	0.65337	0.8687	0.8656	-0.149
Mof_O 	O 	0.9681	0.92887	0.19537	-0.482
Mof_O 	O 	0.31733	0.3788	0.4167	-0.231
Mof_O 	O 	0.07197	0.14274	0.37296	-0.482
Mof_O 	O 	0.68267	0.4167	0.3788	-0.231
_end
