data_functionalizedCrystal
_audit_creation_method	'EQeq! by Chris Wilmer'
_symmetry_space_group_name_H-M	'P1'
_symmetry_Int_Tables_number	1
_symmetry_cell_setting	triclinic
loop_
_symmetry_equiv_pos_as_xyz
  x,y,z
_cell_length_a	23.649
_cell_length_b	15.7654
_cell_length_c	16.2182
_cell_angle_alpha	90
_cell_angle_beta	124.272
_cell_angle_gamma	90
loop_
_atom_site_label
_atom_site_type_symbol
_atom_site_fract_x
_atom_site_fract_y
_atom_site_fract_z
_atom_site_charge
Mof_Nd	Nd	0.68931	0.32871	0.87863	2.242
Mof_C 	C 	0.4021	0.2226	0.4697	-0.1
Mof_C 	C 	0.4162	0.1876	0.4041	-0.095
Mof_H 	H 	0.3807	0.1621	0.3437	0.087
Mof_C 	C 	0.4823	0.1904	0.4277	0.174
Mof_C 	C 	0.5343	0.2278	0.5146	-0.117
Mof_H 	H 	0.5792	0.2306	0.529	0.107
Mof_C 	C 	0.5207	0.2615	0.5814	-0.043
Mof_C 	C 	0.4547	0.2582	0.5593	0.013
Mof_H 	H 	0.4456	0.2801	0.6052	0.005
Mof_C 	C 	0.4548	0.0947	0.2992	0.186
Mof_C 	C 	0.4014	0.111	0.2012	-0.02
Mof_C 	C 	0.3599	0.0449	0.1406	0.045
Mof_H 	H 	0.323	0.0562	0.0738	0.036
Mof_C 	C 	0.3716	0.9627	0.1767	-0.186
Mof_C 	C 	0.4272	0.9472	0.2737	0.117
Mof_H 	H 	0.4368	0.8908	0.2986	0.003
Mof_C 	C 	0.4686	0.0126	0.3342	-0.203
Mof_H 	H 	0.5066	0.0009	0.4001	0.111
Mof_C 	C 	0.3294	0.2208	0.4392	0.427
Mof_C 	C 	0.3244	0.8922	0.1131	0.506
Mof_C 	C 	0.5782	0.2981	0.6774	0.297
Mof_N 	N 	0.3846	0.1962	0.1582	0.014
Mof_O 	O 	0.3122	0.2605	0.4899	-0.642
Mof_O 	O 	0.28684	0.179	0.363	-0.501
Mof_O 	O 	0.4075	0.2572	0.2137	-0.113
Mof_O 	O 	0.3483	0.2027	0.0672	-0.119
Mof_O 	O 	0.27962	0.9091	0.0234	-0.568
Mof_O 	O 	0.3332	0.8224	0.1561	-0.537
Mof_O 	O 	0.63704	0.3011	0.6947	-0.427
Mof_O 	O 	0.56653	0.324	0.7407	-0.48
Mof_O 	O 	0.49892	0.158	0.3641	-0.221
Mof_Nd	Nd	0.18931	0.82871	0.87863	2.234
Mof_C 	C 	0.9021	0.7226	0.4697	-0.099
Mof_C 	C 	0.9162	0.6876	0.4041	-0.094
Mof_H 	H 	0.8807	0.6621	0.3437	0.088
Mof_C 	C 	0.9823	0.6904	0.4277	0.174
Mof_C 	C 	0.0343	0.7278	0.5146	-0.116
Mof_H 	H 	0.0792	0.7306	0.529	0.108
Mof_C 	C 	0.0207	0.7615	0.5814	-0.043
Mof_C 	C 	0.9547	0.7582	0.5593	0.014
Mof_H 	H 	0.9456	0.7801	0.6052	0.005
Mof_C 	C 	0.9548	0.5947	0.2992	0.187
Mof_C 	C 	0.9014	0.611	0.2012	-0.021
Mof_C 	C 	0.8599	0.5449	0.1406	0.048
Mof_H 	H 	0.823	0.5562	0.0738	0.035
Mof_C 	C 	0.8716	0.4627	0.1767	-0.189
Mof_C 	C 	0.9272	0.4472	0.2737	0.117
Mof_H 	H 	0.9368	0.3908	0.2986	0.002
Mof_C 	C 	0.9686	0.5126	0.3342	-0.203
Mof_H 	H 	0.0066	0.5009	0.4001	0.111
Mof_C 	C 	0.8294	0.7208	0.4392	0.427
Mof_C 	C 	0.8244	0.3922	0.1131	0.506
Mof_C 	C 	0.0782	0.7981	0.6774	0.298
Mof_N 	N 	0.8846	0.6962	0.1582	0.014
Mof_O 	O 	0.8122	0.7605	0.4899	-0.642
Mof_O 	O 	0.78684	0.679	0.363	-0.501
Mof_O 	O 	0.9075	0.7572	0.2137	-0.112
Mof_O 	O 	0.8483	0.7027	0.0672	-0.118
Mof_O 	O 	0.77962	0.4091	0.0234	-0.572
Mof_O 	O 	0.8332	0.3224	0.1561	-0.537
Mof_O 	O 	0.13704	0.8011	0.6947	-0.426
Mof_O 	O 	0.06653	0.824	0.7407	-0.48
Mof_O 	O 	0.99892	0.658	0.3641	-0.221
Mof_Nd	Nd	0.31069	0.32871	0.62137	2.24
Mof_C 	C 	0.5979	0.2226	0.0303	-0.103
Mof_C 	C 	0.5838	0.1876	0.0959	-0.091
Mof_H 	H 	0.6193	0.1621	0.1563	0.087
Mof_C 	C 	0.5177	0.1904	0.0723	0.171
Mof_C 	C 	0.4657	0.2278	0.9854	-0.112
Mof_H 	H 	0.4208	0.2306	0.971	0.107
Mof_C 	C 	0.4793	0.2615	0.9186	-0.045
Mof_C 	C 	0.5453	0.2582	0.9407	0.017
Mof_H 	H 	0.5544	0.2801	0.8948	0.004
Mof_C 	C 	0.5452	0.0947	0.2008	0.187
Mof_C 	C 	0.5986	0.111	0.2988	-0.021
Mof_C 	C 	0.6401	0.0449	0.3594	0.047
Mof_H 	H 	0.677	0.0562	0.4262	0.036
Mof_C 	C 	0.6284	0.9627	0.3233	-0.189
Mof_C 	C 	0.5728	0.9472	0.2263	0.119
Mof_H 	H 	0.5632	0.8908	0.2014	0.002
Mof_C 	C 	0.5314	0.0126	0.1658	-0.204
Mof_H 	H 	0.4934	0.0009	0.0999	0.111
Mof_C 	C 	0.6706	0.2208	0.0608	0.428
Mof_C 	C 	0.6756	0.8922	0.3869	0.507
Mof_C 	C 	0.4218	0.2981	0.8226	0.298
Mof_N 	N 	0.6154	0.1962	0.3418	0.014
Mof_O 	O 	0.6878	0.2605	0.0101	-0.644
Mof_O 	O 	0.71316	0.179	0.137	-0.501
Mof_O 	O 	0.5925	0.2572	0.2863	-0.113
Mof_O 	O 	0.6517	0.2027	0.4328	-0.118
Mof_O 	O 	0.72038	0.9091	0.4766	-0.57
Mof_O 	O 	0.6668	0.8224	0.3439	-0.537
Mof_O 	O 	0.36296	0.3011	0.8053	-0.427
Mof_O 	O 	0.43347	0.324	0.7593	-0.48
Mof_O 	O 	0.50108	0.158	0.1359	-0.221
Mof_Nd	Nd	0.81069	0.82871	0.62137	2.24
Mof_C 	C 	0.0979	0.7226	0.0303	-0.092
Mof_C 	C 	0.0838	0.6876	0.0959	-0.098
Mof_H 	H 	0.1193	0.6621	0.1563	0.089
Mof_C 	C 	0.0177	0.6904	0.0723	0.179
Mof_C 	C 	0.9657	0.7278	0.9854	-0.121
Mof_H 	H 	0.9208	0.7306	0.971	0.109
Mof_C 	C 	0.9793	0.7615	0.9186	-0.037
Mof_C 	C 	0.0453	0.7582	0.9407	0.004
Mof_H 	H 	0.0544	0.7801	0.8948	0.008
Mof_C 	C 	0.0452	0.5947	0.2008	0.185
Mof_C 	C 	0.0986	0.611	0.2988	-0.02
Mof_C 	C 	0.1401	0.5449	0.3594	0.047
Mof_H 	H 	0.177	0.5562	0.4262	0.036
Mof_C 	C 	0.1284	0.4627	0.3233	-0.188
Mof_C 	C 	0.0728	0.4472	0.2263	0.114
Mof_H 	H 	0.0632	0.3908	0.2014	0.003
Mof_C 	C 	0.0314	0.5126	0.1658	-0.198
Mof_H 	H 	0.9934	0.5009	0.0999	0.108
Mof_C 	C 	0.1706	0.7208	0.0608	0.425
Mof_C 	C 	0.1756	0.3922	0.3869	0.506
Mof_C 	C 	0.9218	0.7981	0.8226	0.296
Mof_N 	N 	0.1154	0.6962	0.3418	0.014
Mof_O 	O 	0.1878	0.7605	0.0101	-0.64
Mof_O 	O 	0.21316	0.679	0.137	-0.5
Mof_O 	O 	0.0925	0.7572	0.2863	-0.112
Mof_O 	O 	0.1517	0.7027	0.4328	-0.118
Mof_O 	O 	0.22038	0.4091	0.4766	-0.571
Mof_O 	O 	0.1668	0.3224	0.3439	-0.537
Mof_O 	O 	0.86296	0.8011	0.8053	-0.426
Mof_O 	O 	0.93347	0.824	0.7593	-0.479
Mof_O 	O 	0.00108	0.658	0.1359	-0.221
Mof_Nd	Nd	0.31069	0.67129	0.12137	2.243
Mof_C 	C 	0.5979	0.7774	0.5303	-0.099
Mof_C 	C 	0.5838	0.8124	0.5959	-0.094
Mof_H 	H 	0.6193	0.8379	0.6563	0.088
Mof_C 	C 	0.5177	0.8096	0.5723	0.175
Mof_C 	C 	0.4657	0.7722	0.4854	-0.116
Mof_H 	H 	0.4208	0.7694	0.471	0.108
Mof_C 	C 	0.4793	0.7385	0.4186	-0.042
Mof_C 	C 	0.5453	0.7418	0.4407	0.013
Mof_H 	H 	0.5544	0.7199	0.3948	0.005
Mof_C 	C 	0.5452	0.9053	0.7008	0.186
Mof_C 	C 	0.5986	0.889	0.7988	-0.02
Mof_C 	C 	0.6401	0.9551	0.8594	0.045
Mof_H 	H 	0.677	0.9438	0.9262	0.036
Mof_C 	C 	0.6284	0.0373	0.8233	-0.186
Mof_C 	C 	0.5728	0.0528	0.7263	0.117
Mof_H 	H 	0.5632	0.1092	0.7014	0.003
Mof_C 	C 	0.5314	0.9874	0.6658	-0.203
Mof_H 	H 	0.4934	0.9991	0.5999	0.111
Mof_C 	C 	0.6706	0.7792	0.5608	0.427
Mof_C 	C 	0.6756	0.1078	0.8869	0.506
Mof_C 	C 	0.4218	0.7019	0.3226	0.297
Mof_N 	N 	0.6154	0.8038	0.8418	0.014
Mof_O 	O 	0.6878	0.7395	0.5101	-0.642
Mof_O 	O 	0.71316	0.821	0.637	-0.501
Mof_O 	O 	0.5925	0.7428	0.7863	-0.113
Mof_O 	O 	0.6517	0.7973	0.9328	-0.119
Mof_O 	O 	0.72038	0.0909	0.9766	-0.568
Mof_O 	O 	0.6668	0.1776	0.8439	-0.537
Mof_O 	O 	0.36296	0.6989	0.3053	-0.427
Mof_O 	O 	0.43347	0.676	0.2593	-0.48
Mof_O 	O 	0.50108	0.842	0.6359	-0.221
Mof_Nd	Nd	0.81069	0.17129	0.12137	2.234
Mof_C 	C 	0.0979	0.2774	0.5303	-0.099
Mof_C 	C 	0.0838	0.3124	0.5959	-0.094
Mof_H 	H 	0.1193	0.3379	0.6563	0.088
Mof_C 	C 	0.0177	0.3096	0.5723	0.174
Mof_C 	C 	0.9657	0.2722	0.4854	-0.116
Mof_H 	H 	0.9208	0.2694	0.471	0.108
Mof_C 	C 	0.9793	0.2385	0.4186	-0.043
Mof_C 	C 	0.0453	0.2418	0.4407	0.014
Mof_H 	H 	0.0544	0.2199	0.3948	0.005
Mof_C 	C 	0.0452	0.4053	0.7008	0.187
Mof_C 	C 	0.0986	0.389	0.7988	-0.021
Mof_C 	C 	0.1401	0.4551	0.8594	0.048
Mof_H 	H 	0.177	0.4438	0.9262	0.035
Mof_C 	C 	0.1284	0.5373	0.8233	-0.189
Mof_C 	C 	0.0728	0.5528	0.7263	0.117
Mof_H 	H 	0.0632	0.6092	0.7014	0.002
Mof_C 	C 	0.0314	0.4874	0.6658	-0.203
Mof_H 	H 	0.9934	0.4991	0.5999	0.111
Mof_C 	C 	0.1706	0.2792	0.5608	0.427
Mof_C 	C 	0.1756	0.6078	0.8869	0.506
Mof_C 	C 	0.9218	0.2019	0.3226	0.298
Mof_N 	N 	0.1154	0.3038	0.8418	0.014
Mof_O 	O 	0.1878	0.2395	0.5101	-0.642
Mof_O 	O 	0.21316	0.321	0.637	-0.501
Mof_O 	O 	0.0925	0.2428	0.7863	-0.112
Mof_O 	O 	0.1517	0.2973	0.9328	-0.118
Mof_O 	O 	0.22038	0.5909	0.9766	-0.572
Mof_O 	O 	0.1668	0.6776	0.8439	-0.537
Mof_O 	O 	0.86296	0.1989	0.3053	-0.426
Mof_O 	O 	0.93347	0.176	0.2593	-0.48
Mof_O 	O 	0.00108	0.342	0.6359	-0.221
Mof_Nd	Nd	0.68931	0.67129	0.37863	2.24
Mof_C 	C 	0.4021	0.7774	0.9697	-0.103
Mof_C 	C 	0.4162	0.8124	0.9041	-0.091
Mof_H 	H 	0.3807	0.8379	0.8437	0.087
Mof_C 	C 	0.4823	0.8096	0.9277	0.171
Mof_C 	C 	0.5343	0.7722	0.0146	-0.112
Mof_H 	H 	0.5792	0.7694	0.029	0.107
Mof_C 	C 	0.5207	0.7385	0.0814	-0.045
Mof_C 	C 	0.4547	0.7418	0.0593	0.017
Mof_H 	H 	0.4456	0.7199	0.1052	0.004
Mof_C 	C 	0.4548	0.9053	0.7992	0.187
Mof_C 	C 	0.4014	0.889	0.7012	-0.021
Mof_C 	C 	0.3599	0.9551	0.6406	0.047
Mof_H 	H 	0.323	0.9438	0.5738	0.036
Mof_C 	C 	0.3716	0.0373	0.6767	-0.189
Mof_C 	C 	0.4272	0.0528	0.7737	0.119
Mof_H 	H 	0.4368	0.1092	0.7986	0.002
Mof_C 	C 	0.4686	0.9874	0.8342	-0.204
Mof_H 	H 	0.5066	0.9991	0.9001	0.111
Mof_C 	C 	0.3294	0.7792	0.9392	0.428
Mof_C 	C 	0.3244	0.1078	0.6131	0.507
Mof_C 	C 	0.5782	0.7019	0.1774	0.298
Mof_N 	N 	0.3846	0.8038	0.6582	0.014
Mof_O 	O 	0.3122	0.7395	0.9899	-0.644
Mof_O 	O 	0.28684	0.821	0.863	-0.501
Mof_O 	O 	0.4075	0.7428	0.7137	-0.113
Mof_O 	O 	0.3483	0.7973	0.5672	-0.118
Mof_O 	O 	0.27962	0.0909	0.5234	-0.57
Mof_O 	O 	0.3332	0.1776	0.6561	-0.537
Mof_O 	O 	0.63704	0.6989	0.1947	-0.427
Mof_O 	O 	0.56653	0.676	0.2407	-0.48
Mof_O 	O 	0.49892	0.842	0.8641	-0.221
Mof_Nd	Nd	0.18931	0.17129	0.37863	2.24
Mof_C 	C 	0.9021	0.2774	0.9697	-0.092
Mof_C 	C 	0.9162	0.3124	0.9041	-0.098
Mof_H 	H 	0.8807	0.3379	0.8437	0.089
Mof_C 	C 	0.9823	0.3096	0.9277	0.179
Mof_C 	C 	0.0343	0.2722	0.0146	-0.121
Mof_H 	H 	0.0792	0.2694	0.029	0.109
Mof_C 	C 	0.0207	0.2385	0.0814	-0.037
Mof_C 	C 	0.9547	0.2418	0.0593	0.004
Mof_H 	H 	0.9456	0.2199	0.1052	0.008
Mof_C 	C 	0.9548	0.4053	0.7992	0.185
Mof_C 	C 	0.9014	0.389	0.7012	-0.02
Mof_C 	C 	0.8599	0.4551	0.6406	0.047
Mof_H 	H 	0.823	0.4438	0.5738	0.036
Mof_C 	C 	0.8716	0.5373	0.6767	-0.188
Mof_C 	C 	0.9272	0.5528	0.7737	0.114
Mof_H 	H 	0.9368	0.6092	0.7986	0.003
Mof_C 	C 	0.9686	0.4874	0.8342	-0.198
Mof_H 	H 	0.0066	0.4991	0.9001	0.108
Mof_C 	C 	0.8294	0.2792	0.9392	0.425
Mof_C 	C 	0.8244	0.6078	0.6131	0.506
Mof_C 	C 	0.0782	0.2019	0.1774	0.296
Mof_N 	N 	0.8846	0.3038	0.6582	0.014
Mof_O 	O 	0.8122	0.2395	0.9899	-0.64
Mof_O 	O 	0.78684	0.321	0.863	-0.5
Mof_O 	O 	0.9075	0.2428	0.7137	-0.112
Mof_O 	O 	0.8483	0.2973	0.5672	-0.118
Mof_O 	O 	0.77962	0.5909	0.5234	-0.571
Mof_O 	O 	0.8332	0.6776	0.6561	-0.537
Mof_O 	O 	0.13704	0.1989	0.1947	-0.426
Mof_O 	O 	0.06653	0.176	0.2407	-0.479
Mof_O 	O 	0.99892	0.342	0.8641	-0.221
_end
