data_functionalizedCrystal
_audit_creation_method	'EQeq! by Chris Wilmer'
_symmetry_space_group_name_H-M	'P1'
_symmetry_Int_Tables_number	1
_symmetry_cell_setting	triclinic
loop_
_symmetry_equiv_pos_as_xyz
  x,y,z
_cell_length_a	9.1291
_cell_length_b	9.5884
_cell_length_c	14.7554
_cell_angle_alpha	100.388
_cell_angle_beta	99.27
_cell_angle_gamma	114.467
loop_
_atom_site_label
_atom_site_type_symbol
_atom_site_fract_x
_atom_site_fract_y
_atom_site_fract_z
_atom_site_charge
Mof_O 	O 	0.3474	0.2482	0.26816	-0.382
Mof_O 	O 	0.157	0.0893	0.13845	-0.575
Mof_C 	C 	0.2171	0.2145	0.20793	0.361
Mof_O 	O 	0.3069	0.4652	0.06497	-0.461
Mof_O 	O 	0.0995	0.22897	0.9848	-0.328
Mof_C 	C 	0.1665	0.3529	0.05306	0.238
Mof_C 	C 	0.0799	0.375	0.13142	-0.127
Mof_H 	H 	0.1236	0.4905	0.1562	0.071
Mof_O 	O 	0.7127	0.154	0.9463	-0.322
Mof_O 	O 	0.80413	0.03053	0.03763	-0.43
Mof_C 	C 	0.7953	0.1536	0.02304	0.184
Mof_C 	C 	0.8864	0.3069	0.10318	-0.018
Mof_H 	H 	0.8566	0.3876	0.0859	0.021
Mof_Co	Co	0.35513	0.03226	0.17061	1.144
Mof_C 	C 	0.6608	0.1773	0.18802	0.35
Mof_O 	O 	0.6125	0.065	0.22486	-0.407
Mof_C 	C 	0.8436	0.2809	0.19847	-0.165
Mof_H 	H 	0.8732	0.386	0.2399	0.089
Mof_C 	C 	0.9617	0.2239	0.24427	0.036
Mof_H 	H 	0.9191	0.11	0.2182	0.037
Mof_H 	H 	0.977	0.2475	0.3129	0.032
Mof_C 	C 	0.1275	0.3167	0.21983	-0.189
Mof_H 	H 	0.1983	0.4111	0.2738	0.094
Mof_N 	N 	0.2617	0.8975	0.26147	-0.244
Mof_O 	O 	0.5551	0.2081	0.14166	-0.45
Mof_C 	C 	0.0651	0.6017	0.44289	-0.16
Mof_C 	C 	0.1329	0.7063	0.38103	0.184
Mof_C 	C 	0.0308	0.7155	0.3048	-0.278
Mof_H 	H 	0.9156	0.6575	0.2923	0.139
Mof_C 	C 	0.0974	0.8094	0.24696	0.149
Mof_H 	H 	0.0251	0.8116	0.1957	-0.031
Mof_C 	C 	0.8997	0.5444	0.4459	0.117
Mof_H 	H 	0.8301	0.5736	0.4092	-0.004
Mof_C 	C 	0.3609	0.8909	0.3361	0.126
Mof_H 	H 	0.4755	0.9515	0.3477	0.009
Mof_C 	C 	0.3033	0.7998	0.3968	-0.212
Mof_H 	H 	0.3781	0.8009	0.4481	0.117
Mof_C 	C 	0.1637	0.5544	0.4984	0.089
Mof_H 	H 	0.275	0.5902	0.4979	0.001
Mof_O 	O 	0.6526	0.7518	0.73184	-0.348
Mof_O 	O 	0.843	0.9107	0.86155	-0.458
Mof_C 	C 	0.7829	0.7855	0.79207	0.319
Mof_O 	O 	0.6931	0.5348	0.93503	-0.451
Mof_O 	O 	0.9005	0.77103	0.0152	-0.52
Mof_C 	C 	0.8335	0.6471	0.94694	0.498
Mof_C 	C 	0.9201	0.625	0.86858	-0.124
Mof_H 	H 	0.8764	0.5095	0.8438	0.088
Mof_O 	O 	0.2873	0.846	0.0537	-0.505
Mof_O 	O 	0.19587	0.96947	0.96237	-0.376
Mof_C 	C 	0.2047	0.8464	0.97696	0.479
Mof_C 	C 	0.1136	0.6931	0.89682	-0.156
Mof_H 	H 	0.1434	0.6124	0.9141	0.101
Mof_Co	Co	0.64487	0.96774	0.82939	1.196
Mof_C 	C 	0.3392	0.8227	0.81198	0.303
Mof_O 	O 	0.3875	0.935	0.77514	-0.342
Mof_C 	C 	0.1564	0.7191	0.80153	-0.058
Mof_H 	H 	0.1268	0.614	0.7601	0.047
Mof_C 	C 	0.0383	0.7761	0.75573	-0.119
Mof_H 	H 	0.0809	0.89	0.7818	0.092
Mof_H 	H 	0.023	0.7525	0.6871	0.07
Mof_C 	C 	0.8725	0.6833	0.78017	-0.077
Mof_H 	H 	0.8017	0.5889	0.7262	0.068
Mof_N 	N 	0.7383	0.1025	0.73853	-0.241
Mof_O 	O 	0.4449	0.7919	0.85834	-0.375
Mof_C 	C 	0.9349	0.3983	0.55711	0.133
Mof_C 	C 	0.8671	0.2937	0.61897	-0.012
Mof_C 	C 	0.9692	0.2845	0.6952	-0.023
Mof_H 	H 	0.0844	0.3425	0.7077	0.008
Mof_C 	C 	0.9026	0.1906	0.75304	0.018
Mof_H 	H 	0.9749	0.1884	0.8043	0.021
Mof_C 	C 	0.1003	0.4556	0.5541	-0.209
Mof_H 	H 	0.1699	0.4264	0.5908	0.095
Mof_C 	C 	0.6391	0.1091	0.6639	0.048
Mof_H 	H 	0.5245	0.0485	0.6523	-0.012
Mof_C 	C 	0.6967	0.2002	0.6032	-0.098
Mof_H 	H 	0.6219	0.1991	0.5519	0.054
Mof_C 	C 	0.8363	0.4456	0.5016	-0.18
Mof_H 	H 	0.725	0.4098	0.5021	0.095
Mof_Co	Co	-0	0	-0	1.109
Mof_Co	Co	0.5	0.5	-0	1.037
_end
