data_functionalizedCrystal
_audit_creation_method	'EQeq! by Chris Wilmer'
_symmetry_space_group_name_H-M	'P1'
_symmetry_Int_Tables_number	1
_symmetry_cell_setting	triclinic
loop_
_symmetry_equiv_pos_as_xyz
  x,y,z
_cell_length_a	25.6477
_cell_length_b	25.6477
_cell_length_c	25.6477
_cell_angle_alpha	60
_cell_angle_beta	60
_cell_angle_gamma	60
loop_
_atom_site_label
_atom_site_type_symbol
_atom_site_fract_x
_atom_site_fract_y
_atom_site_fract_z
_atom_site_charge
Mof_Cu	Cu	0.67322	0.25	0.75	0.856
Mof_Cu	Cu	0.75	0.17322	0.32678	0.856
Mof_Cu	Cu	0.25	0.32678	0.17322	0.856
Mof_Cu	Cu	0.82678	0.75	0.25	0.856
Mof_Cu	Cu	0.67322	0.75	0.32678	0.856
Mof_Cu	Cu	0.75	0.32678	0.75	0.856
Mof_Cu	Cu	0.25	0.17322	0.25	0.856
Mof_Cu	Cu	0.82678	0.25	0.17322	0.856
Mof_Cu	Cu	0.67322	0.32678	0.25	0.856
Mof_Cu	Cu	0.75	0.75	0.17322	0.856
Mof_Cu	Cu	0.25	0.25	0.32678	0.856
Mof_Cu	Cu	0.82678	0.17322	0.75	0.856
Mof_Cu	Cu	0.32678	0.75	0.25	0.856
Mof_Cu	Cu	0.25	0.82678	0.67322	0.856
Mof_Cu	Cu	0.75	0.67322	0.82678	0.856
Mof_Cu	Cu	0.17322	0.25	0.75	0.856
Mof_Cu	Cu	0.32678	0.25	0.67322	0.856
Mof_Cu	Cu	0.25	0.67322	0.25	0.856
Mof_Cu	Cu	0.75	0.82678	0.75	0.856
Mof_Cu	Cu	0.17322	0.75	0.82678	0.856
Mof_Cu	Cu	0.32678	0.67322	0.75	0.856
Mof_Cu	Cu	0.25	0.25	0.82678	0.856
Mof_Cu	Cu	0.75	0.75	0.67322	0.856
Mof_Cu	Cu	0.17322	0.82678	0.25	0.856
Mof_H 	H 	0.5529	0.5481	0.7327	0.074
Mof_H 	H 	0.4605	0.6369	0.7345	-0.024
Mof_H 	H 	0.0481	0.0529	0.1663	0.073
Mof_H 	H 	0.1369	0.9605	0.1681	-0.024
Mof_H 	H 	0.2327	0.1663	0.0529	0.073
Mof_H 	H 	0.2345	0.1681	0.9605	-0.024
Mof_H 	H 	0.6663	0.7327	0.5481	0.074
Mof_H 	H 	0.6681	0.7345	0.6369	-0.024
Mof_H 	H 	0.5529	0.7327	0.1663	0.073
Mof_H 	H 	0.4605	0.7345	0.1681	-0.024
Mof_H 	H 	0.0481	0.1663	0.7327	0.073
Mof_H 	H 	0.1369	0.1681	0.7345	-0.024
Mof_H 	H 	0.2327	0.0529	0.5481	0.074
Mof_H 	H 	0.2345	0.9605	0.6369	-0.023
Mof_H 	H 	0.6663	0.5481	0.0529	0.075
Mof_H 	H 	0.6681	0.6369	0.9605	-0.023
Mof_H 	H 	0.5529	0.1663	0.5481	0.074
Mof_H 	H 	0.4605	0.1681	0.6369	-0.023
Mof_H 	H 	0.0481	0.7327	0.0529	0.074
Mof_H 	H 	0.1369	0.7345	0.9605	-0.023
Mof_H 	H 	0.2327	0.5481	0.1663	0.075
Mof_H 	H 	0.2345	0.6369	0.1681	-0.023
Mof_H 	H 	0.6663	0.0529	0.7327	0.075
Mof_H 	H 	0.6681	0.9605	0.7345	-0.023
Mof_H 	H 	0.4519	0.4471	0.7673	0.075
Mof_H 	H 	0.3631	0.5395	0.7655	-0.023
Mof_H 	H 	0.9471	0.9519	0.3337	0.074
Mof_H 	H 	0.0395	0.8631	0.3319	-0.023
Mof_H 	H 	0.8337	0.7673	0.4471	0.074
Mof_H 	H 	0.8319	0.7655	0.5395	-0.023
Mof_H 	H 	0.2673	0.3337	0.9519	0.074
Mof_H 	H 	0.2655	0.3319	0.8631	-0.023
Mof_H 	H 	0.2673	0.4471	0.3337	0.075
Mof_H 	H 	0.2655	0.5395	0.3319	-0.023
Mof_H 	H 	0.8337	0.9519	0.7673	0.074
Mof_H 	H 	0.8319	0.8631	0.7655	-0.023
Mof_H 	H 	0.9471	0.7673	0.9519	0.074
Mof_H 	H 	0.0395	0.7655	0.8631	-0.023
Mof_H 	H 	0.4519	0.3337	0.4471	0.075
Mof_H 	H 	0.3631	0.3319	0.5395	-0.023
Mof_H 	H 	0.8337	0.4471	0.9519	0.074
Mof_H 	H 	0.8319	0.5395	0.8631	-0.023
Mof_H 	H 	0.2673	0.9519	0.4471	0.074
Mof_H 	H 	0.2655	0.8631	0.5395	-0.023
Mof_H 	H 	0.4519	0.7673	0.3337	0.075
Mof_H 	H 	0.3631	0.7655	0.3319	-0.023
Mof_H 	H 	0.9471	0.3337	0.7673	0.074
Mof_H 	H 	0.0395	0.3319	0.7655	-0.023
Mof_H 	H 	0.4471	0.4519	0.2673	0.075
Mof_H 	H 	0.5395	0.3631	0.2655	-0.023
Mof_H 	H 	0.9519	0.9471	0.8337	0.074
Mof_H 	H 	0.8631	0.0395	0.8319	-0.023
Mof_H 	H 	0.7673	0.8337	0.9471	0.074
Mof_H 	H 	0.7655	0.8319	0.0395	-0.023
Mof_H 	H 	0.3337	0.2673	0.4519	0.075
Mof_H 	H 	0.3319	0.2655	0.3631	-0.023
Mof_H 	H 	0.4471	0.2673	0.8337	0.074
Mof_H 	H 	0.5395	0.2655	0.8319	-0.023
Mof_H 	H 	0.9519	0.8337	0.2673	0.074
Mof_H 	H 	0.8631	0.8319	0.2655	-0.023
Mof_H 	H 	0.7673	0.9471	0.4519	0.074
Mof_H 	H 	0.7655	0.0395	0.3631	-0.023
Mof_H 	H 	0.3337	0.4519	0.9471	0.075
Mof_H 	H 	0.3319	0.3631	0.0395	-0.023
Mof_H 	H 	0.4471	0.8337	0.4519	0.074
Mof_H 	H 	0.5395	0.8319	0.3631	-0.023
Mof_H 	H 	0.9519	0.2673	0.9471	0.074
Mof_H 	H 	0.8631	0.2655	0.0395	-0.023
Mof_H 	H 	0.7673	0.4519	0.8337	0.075
Mof_H 	H 	0.7655	0.3631	0.8319	-0.023
Mof_H 	H 	0.3337	0.9471	0.2673	0.075
Mof_H 	H 	0.3319	0.0395	0.2655	-0.023
Mof_H 	H 	0.5481	0.5529	0.2327	0.075
Mof_H 	H 	0.6369	0.4605	0.2345	-0.023
Mof_H 	H 	0.0529	0.0481	0.6663	0.074
Mof_H 	H 	0.9605	0.1369	0.6681	-0.023
Mof_H 	H 	0.1663	0.2327	0.5529	0.074
Mof_H 	H 	0.1681	0.2345	0.4605	-0.023
Mof_H 	H 	0.7327	0.6663	0.0481	0.074
Mof_H 	H 	0.7345	0.6681	0.1369	-0.023
Mof_H 	H 	0.7327	0.5529	0.6663	0.075
Mof_H 	H 	0.7345	0.4605	0.6681	-0.023
Mof_H 	H 	0.1663	0.0481	0.2327	0.074
Mof_H 	H 	0.1681	0.1369	0.2345	-0.023
Mof_H 	H 	0.0529	0.2327	0.0481	0.074
Mof_H 	H 	0.9605	0.2345	0.1369	-0.023
Mof_H 	H 	0.5481	0.6663	0.5529	0.075
Mof_H 	H 	0.6369	0.6681	0.4605	-0.023
Mof_H 	H 	0.1663	0.5529	0.0481	0.074
Mof_H 	H 	0.1681	0.4605	0.1369	-0.023
Mof_H 	H 	0.7327	0.0481	0.5529	0.074
Mof_H 	H 	0.7345	0.1369	0.4605	-0.023
Mof_H 	H 	0.5481	0.2327	0.6663	0.075
Mof_H 	H 	0.6369	0.2345	0.6681	-0.023
Mof_H 	H 	0.0529	0.6663	0.2327	0.074
Mof_H 	H 	0.9605	0.6681	0.2345	-0.023
Mof_C 	C 	0.51422	0.54506	0.74002	-0.131
Mof_C 	C 	0.45923	0.59775	0.74077	0.079
Mof_C 	C 	0.04506	0.01422	0.2007	-0.13
Mof_C 	C 	0.09775	0.95923	0.20225	0.078
Mof_C 	C 	0.24002	0.2007	0.01422	-0.131
Mof_C 	C 	0.24077	0.20225	0.95923	0.079
Mof_C 	C 	0.7007	0.74002	0.54506	-0.131
Mof_C 	C 	0.70225	0.74077	0.59775	0.079
Mof_C 	C 	0.51422	0.74002	0.2007	-0.131
Mof_C 	C 	0.45923	0.74077	0.20225	0.079
Mof_C 	C 	0.04506	0.2007	0.74002	-0.131
Mof_C 	C 	0.09775	0.20225	0.74077	0.079
Mof_C 	C 	0.24002	0.01422	0.54506	-0.131
Mof_C 	C 	0.24077	0.95923	0.59775	0.079
Mof_C 	C 	0.7007	0.54506	0.01422	-0.131
Mof_C 	C 	0.70225	0.59775	0.95923	0.079
Mof_C 	C 	0.51422	0.2007	0.54506	-0.131
Mof_C 	C 	0.45923	0.20225	0.59775	0.079
Mof_C 	C 	0.04506	0.74002	0.01422	-0.13
Mof_C 	C 	0.09775	0.74077	0.95923	0.078
Mof_C 	C 	0.24002	0.54506	0.2007	-0.131
Mof_C 	C 	0.24077	0.59775	0.20225	0.079
Mof_C 	C 	0.7007	0.01422	0.74002	-0.131
Mof_C 	C 	0.70225	0.95923	0.74077	0.079
Mof_C 	C 	0.45494	0.48578	0.75998	-0.131
Mof_C 	C 	0.40225	0.54077	0.75923	0.079
Mof_C 	C 	0.98578	0.95494	0.2993	-0.13
Mof_C 	C 	0.04077	0.90225	0.29775	0.078
Mof_C 	C 	0.7993	0.75998	0.48578	-0.131
Mof_C 	C 	0.79775	0.75923	0.54077	0.079
Mof_C 	C 	0.25998	0.2993	0.95494	-0.131
Mof_C 	C 	0.25923	0.29775	0.90225	0.079
Mof_C 	C 	0.25998	0.48578	0.2993	-0.131
Mof_C 	C 	0.25923	0.54077	0.29775	0.079
Mof_C 	C 	0.7993	0.95494	0.75998	-0.131
Mof_C 	C 	0.79775	0.90225	0.75923	0.079
Mof_C 	C 	0.98578	0.75998	0.95494	-0.13
Mof_C 	C 	0.04077	0.75923	0.90225	0.078
Mof_C 	C 	0.45494	0.2993	0.48578	-0.131
Mof_C 	C 	0.40225	0.29775	0.54077	0.079
Mof_C 	C 	0.7993	0.48578	0.95494	-0.131
Mof_C 	C 	0.79775	0.54077	0.90225	0.079
Mof_C 	C 	0.25998	0.95494	0.48578	-0.131
Mof_C 	C 	0.25923	0.90225	0.54077	0.079
Mof_C 	C 	0.45494	0.75998	0.2993	-0.131
Mof_C 	C 	0.40225	0.75923	0.29775	0.079
Mof_C 	C 	0.98578	0.2993	0.75998	-0.131
Mof_C 	C 	0.04077	0.29775	0.75923	0.079
Mof_C 	C 	0.48578	0.45494	0.25998	-0.131
Mof_C 	C 	0.54077	0.40225	0.25923	0.079
Mof_C 	C 	0.95494	0.98578	0.7993	-0.13
Mof_C 	C 	0.90225	0.04077	0.79775	0.078
Mof_C 	C 	0.75998	0.7993	0.98578	-0.131
Mof_C 	C 	0.75923	0.79775	0.04077	0.079
Mof_C 	C 	0.2993	0.25998	0.45494	-0.131
Mof_C 	C 	0.29775	0.25923	0.40225	0.079
Mof_C 	C 	0.48578	0.25998	0.7993	-0.131
Mof_C 	C 	0.54077	0.25923	0.79775	0.079
Mof_C 	C 	0.95494	0.7993	0.25998	-0.131
Mof_C 	C 	0.90225	0.79775	0.25923	0.079
Mof_C 	C 	0.75998	0.98578	0.45494	-0.131
Mof_C 	C 	0.75923	0.04077	0.40225	0.079
Mof_C 	C 	0.2993	0.45494	0.98578	-0.131
Mof_C 	C 	0.29775	0.40225	0.04077	0.079
Mof_C 	C 	0.48578	0.7993	0.45494	-0.131
Mof_C 	C 	0.54077	0.79775	0.40225	0.079
Mof_C 	C 	0.95494	0.25998	0.98578	-0.13
Mof_C 	C 	0.90225	0.25923	0.04077	0.078
Mof_C 	C 	0.75998	0.45494	0.7993	-0.131
Mof_C 	C 	0.75923	0.40225	0.79775	0.079
Mof_C 	C 	0.2993	0.98578	0.25998	-0.131
Mof_C 	C 	0.29775	0.04077	0.25923	0.079
Mof_C 	C 	0.54506	0.51422	0.24002	-0.131
Mof_C 	C 	0.59775	0.45923	0.24077	0.079
Mof_C 	C 	0.01422	0.04506	0.7007	-0.13
Mof_C 	C 	0.95923	0.09775	0.70225	0.078
Mof_C 	C 	0.2007	0.24002	0.51422	-0.131
Mof_C 	C 	0.20225	0.24077	0.45923	0.079
Mof_C 	C 	0.74002	0.7007	0.04506	-0.131
Mof_C 	C 	0.74077	0.70225	0.09775	0.079
Mof_C 	C 	0.74002	0.51422	0.7007	-0.131
Mof_C 	C 	0.74077	0.45923	0.70225	0.079
Mof_C 	C 	0.2007	0.04506	0.24002	-0.131
Mof_C 	C 	0.20225	0.09775	0.24077	0.079
Mof_C 	C 	0.01422	0.24002	0.04506	-0.13
Mof_C 	C 	0.95923	0.24077	0.09775	0.078
Mof_C 	C 	0.54506	0.7007	0.51422	-0.131
Mof_C 	C 	0.59775	0.70225	0.45923	0.079
Mof_C 	C 	0.2007	0.51422	0.04506	-0.131
Mof_C 	C 	0.20225	0.45923	0.09775	0.079
Mof_C 	C 	0.74002	0.04506	0.51422	-0.131
Mof_C 	C 	0.74077	0.09775	0.45923	0.079
Mof_C 	C 	0.54506	0.24002	0.7007	-0.131
Mof_C 	C 	0.59775	0.24077	0.70225	0.079
Mof_C 	C 	0.01422	0.7007	0.24002	-0.131
Mof_C 	C 	0.95923	0.70225	0.24077	0.079
Mof_C 	C 	0.56912	0.43088	0.75	0.086
Mof_C 	C 	0.51216	0.48784	0.75	0.052
Mof_C 	C 	0.93088	0.06912	0.25	0.086
Mof_C 	C 	0.98784	0.01216	0.25	0.05
Mof_C 	C 	0.25	0.25	0.06912	0.086
Mof_C 	C 	0.25	0.25	0.01216	0.052
Mof_C 	C 	0.75	0.75	0.43088	0.086
Mof_C 	C 	0.75	0.75	0.48784	0.052
Mof_C 	C 	0.56912	0.75	0.25	0.086
Mof_C 	C 	0.51216	0.75	0.25	0.052
Mof_C 	C 	0.93088	0.25	0.75	0.086
Mof_C 	C 	0.98784	0.25	0.75	0.052
Mof_C 	C 	0.25	0.06912	0.43088	0.086
Mof_C 	C 	0.25	0.01216	0.48784	0.052
Mof_C 	C 	0.75	0.43088	0.06912	0.086
Mof_C 	C 	0.75	0.48784	0.01216	0.052
Mof_C 	C 	0.56912	0.25	0.43088	0.086
Mof_C 	C 	0.51216	0.25	0.48784	0.052
Mof_C 	C 	0.93088	0.75	0.06912	0.086
Mof_C 	C 	0.98784	0.75	0.01216	0.051
Mof_C 	C 	0.25	0.43088	0.25	0.086
Mof_C 	C 	0.25	0.48784	0.25	0.052
Mof_C 	C 	0.75	0.06912	0.75	0.086
Mof_C 	C 	0.75	0.01216	0.75	0.052
Mof_C 	C 	0.43088	0.56912	0.25	0.086
Mof_C 	C 	0.48784	0.51216	0.25	0.052
Mof_C 	C 	0.06912	0.93088	0.75	0.086
Mof_C 	C 	0.01216	0.98784	0.75	0.05
Mof_C 	C 	0.75	0.75	0.93088	0.086
Mof_C 	C 	0.75	0.75	0.98784	0.052
Mof_C 	C 	0.25	0.25	0.56912	0.086
Mof_C 	C 	0.25	0.25	0.51216	0.052
Mof_C 	C 	0.43088	0.25	0.75	0.086
Mof_C 	C 	0.48784	0.25	0.75	0.052
Mof_C 	C 	0.06912	0.75	0.25	0.086
Mof_C 	C 	0.01216	0.75	0.25	0.052
Mof_C 	C 	0.75	0.93088	0.56912	0.086
Mof_C 	C 	0.75	0.98784	0.51216	0.052
Mof_C 	C 	0.25	0.56912	0.93088	0.086
Mof_C 	C 	0.25	0.51216	0.98784	0.052
Mof_C 	C 	0.43088	0.75	0.56912	0.086
Mof_C 	C 	0.48784	0.75	0.51216	0.052
Mof_C 	C 	0.06912	0.25	0.93088	0.086
Mof_C 	C 	0.01216	0.25	0.98784	0.051
Mof_C 	C 	0.75	0.56912	0.75	0.086
Mof_C 	C 	0.75	0.51216	0.75	0.052
Mof_C 	C 	0.25	0.93088	0.25	0.086
Mof_C 	C 	0.25	0.98784	0.25	0.052
Mof_N 	N 	0.63182	0.33938	0.74886	-0.172
Mof_N 	N 	0.57347	0.37799	0.74821	-0.103
Mof_N 	N 	0.83938	0.13182	0.27994	-0.172
Mof_N 	N 	0.87799	0.07347	0.30033	-0.103
Mof_N 	N 	0.24886	0.27994	0.13182	-0.172
Mof_N 	N 	0.24821	0.30033	0.07347	-0.103
Mof_N 	N 	0.77994	0.74886	0.33938	-0.172
Mof_N 	N 	0.80033	0.74821	0.37799	-0.103
Mof_N 	N 	0.63182	0.74886	0.27994	-0.172
Mof_N 	N 	0.57347	0.74821	0.30033	-0.103
Mof_N 	N 	0.83938	0.27994	0.74886	-0.172
Mof_N 	N 	0.87799	0.30033	0.74821	-0.103
Mof_N 	N 	0.24886	0.13182	0.33938	-0.172
Mof_N 	N 	0.24821	0.07347	0.37799	-0.103
Mof_N 	N 	0.77994	0.33938	0.13182	-0.172
Mof_N 	N 	0.80033	0.37799	0.07347	-0.103
Mof_N 	N 	0.63182	0.27994	0.33938	-0.172
Mof_N 	N 	0.57347	0.30033	0.37799	-0.103
Mof_N 	N 	0.83938	0.74886	0.13182	-0.172
Mof_N 	N 	0.87799	0.74821	0.07347	-0.103
Mof_N 	N 	0.24886	0.33938	0.27994	-0.172
Mof_N 	N 	0.24821	0.37799	0.30033	-0.103
Mof_N 	N 	0.77994	0.13182	0.74886	-0.172
Mof_N 	N 	0.80033	0.07347	0.74821	-0.103
Mof_N 	N 	0.66062	0.36818	0.75114	-0.172
Mof_N 	N 	0.62201	0.42653	0.75179	-0.103
Mof_N 	N 	0.86818	0.16062	0.22006	-0.172
Mof_N 	N 	0.92653	0.12201	0.19967	-0.103
Mof_N 	N 	0.72006	0.75114	0.36818	-0.172
Mof_N 	N 	0.69967	0.75179	0.42653	-0.103
Mof_N 	N 	0.25114	0.22006	0.16062	-0.172
Mof_N 	N 	0.25179	0.19967	0.12201	-0.103
Mof_N 	N 	0.25114	0.36818	0.22006	-0.172
Mof_N 	N 	0.25179	0.42653	0.19967	-0.103
Mof_N 	N 	0.72006	0.16062	0.75114	-0.172
Mof_N 	N 	0.69967	0.12201	0.75179	-0.103
Mof_N 	N 	0.86818	0.75114	0.16062	-0.172
Mof_N 	N 	0.92653	0.75179	0.12201	-0.103
Mof_N 	N 	0.66062	0.22006	0.36818	-0.172
Mof_N 	N 	0.62201	0.19967	0.42653	-0.103
Mof_N 	N 	0.72006	0.36818	0.16062	-0.172
Mof_N 	N 	0.69967	0.42653	0.12201	-0.103
Mof_N 	N 	0.25114	0.16062	0.36818	-0.172
Mof_N 	N 	0.25179	0.12201	0.42653	-0.103
Mof_N 	N 	0.66062	0.75114	0.22006	-0.172
Mof_N 	N 	0.62201	0.75179	0.19967	-0.103
Mof_N 	N 	0.86818	0.22006	0.75114	-0.172
Mof_N 	N 	0.92653	0.19967	0.75179	-0.103
Mof_N 	N 	0.36818	0.66062	0.25114	-0.172
Mof_N 	N 	0.42653	0.62201	0.25179	-0.103
Mof_N 	N 	0.16062	0.86818	0.72006	-0.172
Mof_N 	N 	0.12201	0.92653	0.69967	-0.103
Mof_N 	N 	0.75114	0.72006	0.86818	-0.172
Mof_N 	N 	0.75179	0.69967	0.92653	-0.103
Mof_N 	N 	0.22006	0.25114	0.66062	-0.172
Mof_N 	N 	0.19967	0.25179	0.62201	-0.103
Mof_N 	N 	0.36818	0.25114	0.72006	-0.172
Mof_N 	N 	0.42653	0.25179	0.69967	-0.103
Mof_N 	N 	0.16062	0.72006	0.25114	-0.172
Mof_N 	N 	0.12201	0.69967	0.25179	-0.103
Mof_N 	N 	0.75114	0.86818	0.66062	-0.172
Mof_N 	N 	0.75179	0.92653	0.62201	-0.103
Mof_N 	N 	0.22006	0.66062	0.86818	-0.172
Mof_N 	N 	0.19967	0.62201	0.92653	-0.103
Mof_N 	N 	0.36818	0.72006	0.66062	-0.172
Mof_N 	N 	0.42653	0.69967	0.62201	-0.103
Mof_N 	N 	0.16062	0.25114	0.86818	-0.172
Mof_N 	N 	0.12201	0.25179	0.92653	-0.103
Mof_N 	N 	0.75114	0.66062	0.72006	-0.172
Mof_N 	N 	0.75179	0.62201	0.69967	-0.103
Mof_N 	N 	0.22006	0.86818	0.25114	-0.172
Mof_N 	N 	0.19967	0.92653	0.25179	-0.103
Mof_N 	N 	0.33938	0.63182	0.24886	-0.172
Mof_N 	N 	0.37799	0.57347	0.24821	-0.103
Mof_N 	N 	0.13182	0.83938	0.77994	-0.172
Mof_N 	N 	0.07347	0.87799	0.80033	-0.103
Mof_N 	N 	0.27994	0.24886	0.63182	-0.172
Mof_N 	N 	0.30033	0.24821	0.57347	-0.103
Mof_N 	N 	0.74886	0.77994	0.83938	-0.172
Mof_N 	N 	0.74821	0.80033	0.87799	-0.103
Mof_N 	N 	0.74886	0.63182	0.77994	-0.172
Mof_N 	N 	0.74821	0.57347	0.80033	-0.103
Mof_N 	N 	0.27994	0.83938	0.24886	-0.172
Mof_N 	N 	0.30033	0.87799	0.24821	-0.103
Mof_N 	N 	0.13182	0.24886	0.83938	-0.172
Mof_N 	N 	0.07347	0.24821	0.87799	-0.103
Mof_N 	N 	0.33938	0.77994	0.63182	-0.172
Mof_N 	N 	0.37799	0.80033	0.57347	-0.103
Mof_N 	N 	0.27994	0.63182	0.83938	-0.172
Mof_N 	N 	0.30033	0.57347	0.87799	-0.103
Mof_N 	N 	0.74886	0.83938	0.63182	-0.172
Mof_N 	N 	0.74821	0.87799	0.57347	-0.103
Mof_N 	N 	0.33938	0.24886	0.77994	-0.172
Mof_N 	N 	0.37799	0.24821	0.80033	-0.103
Mof_N 	N 	0.13182	0.77994	0.24886	-0.172
Mof_N 	N 	0.07347	0.80033	0.24821	-0.103
Mof_N 	N 	0.40472	0.59528	0.75	-0.241
Mof_N 	N 	0.09528	0.90472	0.25	-0.241
Mof_N 	N 	0.25	0.25	0.90472	-0.241
Mof_N 	N 	0.75	0.75	0.59528	-0.241
Mof_N 	N 	0.40472	0.75	0.25	-0.241
Mof_N 	N 	0.09528	0.25	0.75	-0.241
Mof_N 	N 	0.25	0.90472	0.59528	-0.241
Mof_N 	N 	0.75	0.59528	0.90472	-0.241
Mof_N 	N 	0.40472	0.25	0.59528	-0.241
Mof_N 	N 	0.09528	0.75	0.90472	-0.241
Mof_N 	N 	0.25	0.59528	0.25	-0.241
Mof_N 	N 	0.75	0.90472	0.75	-0.241
Mof_N 	N 	0.59528	0.40472	0.25	-0.241
Mof_N 	N 	0.90472	0.09528	0.75	-0.241
Mof_N 	N 	0.75	0.75	0.09528	-0.241
Mof_N 	N 	0.25	0.25	0.40472	-0.241
Mof_N 	N 	0.59528	0.25	0.75	-0.241
Mof_N 	N 	0.90472	0.75	0.25	-0.241
Mof_N 	N 	0.75	0.09528	0.40472	-0.241
Mof_N 	N 	0.25	0.40472	0.09528	-0.241
Mof_N 	N 	0.59528	0.75	0.40472	-0.241
Mof_N 	N 	0.90472	0.25	0.09528	-0.241
Mof_N 	N 	0.75	0.40472	0.75	-0.241
Mof_N 	N 	0.25	0.09528	0.25	-0.241
Mof_O 	O 	0.75	0.25	0.75	-0.603
Mof_O 	O 	0.75	0.25	0.25	-0.603
Mof_O 	O 	0.25	0.25	0.25	-0.603
Mof_O 	O 	0.75	0.75	0.25	-0.603
Mof_O 	O 	0.25	0.75	0.25	-0.603
Mof_O 	O 	0.25	0.75	0.75	-0.603
Mof_O 	O 	0.75	0.75	0.75	-0.603
Mof_O 	O 	0.25	0.25	0.75	-0.603
_end
