data_functionalizedCrystal
_audit_creation_method	'EQeq! by Chris Wilmer'
_symmetry_space_group_name_H-M	'P1'
_symmetry_Int_Tables_number	1
_symmetry_cell_setting	triclinic
loop_
_symmetry_equiv_pos_as_xyz
  x,y,z
_cell_length_a	7.7201
_cell_length_b	23.2507
_cell_length_c	23.2507
_cell_angle_alpha	61.2084
_cell_angle_beta	83.6455
_cell_angle_gamma	96.3545
loop_
_atom_site_label
_atom_site_type_symbol
_atom_site_fract_x
_atom_site_fract_y
_atom_site_fract_z
_atom_site_charge
Mof_Cd	Cd	0.74563	0.52422	0.43716	0.513
Mof_Cd	Cd	0.18297	0.47828	0.40088	0.471
Mof_Cd	Cd	0.18279	0.43716	0.03862	0.512
Mof_Cd	Cd	0.58385	0.40088	0.12084	0.471
Mof_Cd	Cd	0.22141	0.03862	0.52422	0.511
Mof_Cd	Cd	0.70469	0.12084	0.47828	0.47
Mof_Cd	Cd	0.25437	0.47578	0.56284	0.512
Mof_Cd	Cd	0.81703	0.52172	0.59912	0.47
Mof_Cd	Cd	0.81721	0.56284	0.96138	0.511
Mof_Cd	Cd	0.41615	0.59912	0.87916	0.47
Mof_Cd	Cd	0.77859	0.96138	0.47578	0.511
Mof_Cd	Cd	0.29531	0.87916	0.52172	0.47
Mof_H 	H 	0.5367	0.7042	0.2983	0.079
Mof_H 	H 	0.3977	0.7921	0.2419	0.267
Mof_H 	H 	0.9697	0.7004	0.3902	0.14
Mof_H 	H 	0.115	0.8301	0.3759	0.173
Mof_H 	H 	0.5259	0.8322	0.3594	0.044
Mof_H 	H 	0.7141	0.8197	0.2842	0.236
Mof_H 	H 	0.835	0.2983	0.9975	0.078
Mof_H 	H 	0.6396	0.2419	0.966	0.268
Mof_H 	H 	0.3599	0.3902	0.9094	0.143
Mof_H 	H 	0.4909	0.3759	0.794	0.169
Mof_H 	H 	0.8853	0.3594	0.8084	0.045
Mof_H 	H 	0.9983	0.2842	0.8961	0.237
Mof_H 	H 	0.8325	0.9975	0.7042	0.078
Mof_H 	H 	0.6056	0.966	0.7921	0.268
Mof_H 	H 	0.2693	0.9094	0.7004	0.143
Mof_H 	H 	0.2849	0.794	0.8301	0.169
Mof_H 	H 	0.6937	0.8084	0.8322	0.044
Mof_H 	H 	0.8944	0.8961	0.8197	0.237
Mof_H 	H 	0.4633	0.2958	0.7017	0.079
Mof_H 	H 	0.6023	0.2079	0.7581	0.267
Mof_H 	H 	0.0303	0.2996	0.6098	0.14
Mof_H 	H 	0.885	0.1699	0.6241	0.173
Mof_H 	H 	0.4741	0.1678	0.6406	0.044
Mof_H 	H 	0.2859	0.1803	0.7158	0.236
Mof_H 	H 	0.165	0.7017	0.0025	0.078
Mof_H 	H 	0.3604	0.7581	0.034	0.268
Mof_H 	H 	0.6401	0.6098	0.0906	0.143
Mof_H 	H 	0.5091	0.6241	0.206	0.169
Mof_H 	H 	0.1147	0.6406	0.1916	0.045
Mof_H 	H 	0.0017	0.7158	0.1039	0.237
Mof_H 	H 	0.1675	0.0025	0.2958	0.078
Mof_H 	H 	0.3944	0.034	0.2079	0.268
Mof_H 	H 	0.7307	0.0906	0.2996	0.143
Mof_H 	H 	0.7151	0.206	0.1699	0.169
Mof_H 	H 	0.3063	0.1916	0.1678	0.044
Mof_H 	H 	0.1056	0.1039	0.1803	0.237
Mof_C 	C 	0.34443	0.65091	0.37992	-0.117
Mof_C 	C 	0.4243	0.70402	0.31762	0.139
Mof_C 	C 	0.34071	0.75669	0.28356	-0.233
Mof_C 	C 	0.17218	0.64996	0.40762	0.07
Mof_C 	C 	0.08568	0.7022	0.37256	-0.207
Mof_C 	C 	0.1708	0.75745	0.31105	0.331
Mof_C 	C 	0.44481	0.59548	0.41335	0.336
Mof_C 	C 	0.0818	0.59659	0.47659	0.262
Mof_C 	C 	0.07361	0.81502	0.27349	-0.47
Mof_C 	C 	0.20592	0.88297	0.23161	0.96
Mof_C 	C 	0.9861	0.80032	0.22432	0.958
Mof_C 	C 	0.93602	0.82348	0.32152	0.348
Mof_C 	C 	0.99712	0.83185	0.37159	-0.225
Mof_C 	C 	0.88608	0.84284	0.4157	0.086
Mof_C 	C 	0.70721	0.84322	0.41179	-0.109
Mof_C 	C 	0.64542	0.83324	0.36218	0.165
Mof_C 	C 	0.75806	0.82471	0.31753	-0.235
Mof_C 	C 	0.96758	0.85413	0.46629	0.265
Mof_C 	C 	0.57206	0.853	0.45682	0.331
Mof_C 	C 	0.72435	0.37992	0.96917	-0.118
Mof_C 	C 	0.74192	0.31762	0.97836	0.141
Mof_C 	C 	0.62427	0.28356	0.95975	-0.235
Mof_C 	C 	0.5798	0.40762	0.94242	0.073
Mof_C 	C 	0.45824	0.37256	0.92524	-0.214
Mof_C 	C 	0.48185	0.31105	0.9315	0.335
Mof_C 	C 	0.85816	0.41335	0.99117	0.334
Mof_C 	C 	0.55839	0.47659	0.92682	0.259
Mof_C 	C 	0.3471	0.27349	0.91149	-0.475
Mof_C 	C 	0.43753	0.23161	0.88542	0.961
Mof_C 	C 	0.21042	0.22432	0.97536	0.963
Mof_C 	C 	0.25754	0.32152	0.855	0.349
Mof_C 	C 	0.36871	0.37159	0.79656	-0.219
Mof_C 	C 	0.30178	0.4157	0.74146	0.084
Mof_C 	C 	0.119	0.41179	0.74499	-0.108
Mof_C 	C 	0.0076	0.36218	0.80458	0.163
Mof_C 	C 	0.07559	0.31753	0.85776	-0.235
Mof_C 	C 	0.43387	0.46629	0.67958	0.269
Mof_C 	C 	0.02888	0.45682	0.69018	0.33
Mof_C 	C 	0.69352	0.96917	0.65091	-0.118
Mof_C 	C 	0.72028	0.97836	0.70402	0.141
Mof_C 	C 	0.58402	0.95975	0.75669	-0.235
Mof_C 	C 	0.52222	0.94242	0.64996	0.073
Mof_C 	C 	0.38348	0.92524	0.7022	-0.214
Mof_C 	C 	0.41335	0.9315	0.75745	0.335
Mof_C 	C 	0.84933	0.99117	0.59548	0.335
Mof_C 	C 	0.48521	0.92682	0.59659	0.259
Mof_C 	C 	0.25859	0.91149	0.81502	-0.475
Mof_C 	C 	0.32295	0.88542	0.88297	0.961
Mof_C 	C 	0.18578	0.97536	0.80032	0.962
Mof_C 	C 	0.11254	0.855	0.82348	0.35
Mof_C 	C 	0.16527	0.79656	0.83185	-0.22
Mof_C 	C 	0.04324	0.74146	0.84284	0.085
Mof_C 	C 	0.86399	0.74499	0.84322	-0.109
Mof_C 	C 	0.81218	0.80458	0.83324	0.165
Mof_C 	C 	0.93335	0.85776	0.82471	-0.236
Mof_C 	C 	0.11345	0.67958	0.85413	0.269
Mof_C 	C 	0.71906	0.69018	0.853	0.331
Mof_C 	C 	0.65557	0.34909	0.62008	-0.117
Mof_C 	C 	0.5757	0.29598	0.68238	0.139
Mof_C 	C 	0.65929	0.24331	0.71644	-0.233
Mof_C 	C 	0.82782	0.35004	0.59238	0.07
Mof_C 	C 	0.91432	0.2978	0.62744	-0.207
Mof_C 	C 	0.8292	0.24255	0.68895	0.331
Mof_C 	C 	0.55519	0.40452	0.58665	0.336
Mof_C 	C 	0.9182	0.40341	0.52341	0.262
Mof_C 	C 	0.92639	0.18498	0.72651	-0.47
Mof_C 	C 	0.79408	0.11703	0.76839	0.96
Mof_C 	C 	0.0139	0.19968	0.77568	0.958
Mof_C 	C 	0.06398	0.17652	0.67848	0.348
Mof_C 	C 	0.00288	0.16815	0.62841	-0.225
Mof_C 	C 	0.11392	0.15716	0.5843	0.086
Mof_C 	C 	0.29279	0.15678	0.58821	-0.109
Mof_C 	C 	0.35458	0.16676	0.63782	0.165
Mof_C 	C 	0.24194	0.17529	0.68247	-0.235
Mof_C 	C 	0.03242	0.14587	0.53371	0.265
Mof_C 	C 	0.42794	0.147	0.54318	0.331
Mof_C 	C 	0.27565	0.62008	0.03083	-0.118
Mof_C 	C 	0.25808	0.68238	0.02164	0.141
Mof_C 	C 	0.37573	0.71644	0.04025	-0.235
Mof_C 	C 	0.4202	0.59238	0.05758	0.073
Mof_C 	C 	0.54176	0.62744	0.07476	-0.214
Mof_C 	C 	0.51815	0.68895	0.0685	0.335
Mof_C 	C 	0.14184	0.58665	0.00883	0.334
Mof_C 	C 	0.44161	0.52341	0.07318	0.259
Mof_C 	C 	0.6529	0.72651	0.08851	-0.475
Mof_C 	C 	0.56247	0.76839	0.11458	0.961
Mof_C 	C 	0.78958	0.77568	0.02464	0.963
Mof_C 	C 	0.74246	0.67848	0.145	0.349
Mof_C 	C 	0.63129	0.62841	0.20344	-0.219
Mof_C 	C 	0.69822	0.5843	0.25854	0.084
Mof_C 	C 	0.881	0.58821	0.25501	-0.108
Mof_C 	C 	0.9924	0.63782	0.19542	0.163
Mof_C 	C 	0.92441	0.68247	0.14224	-0.235
Mof_C 	C 	0.56613	0.53371	0.32042	0.269
Mof_C 	C 	0.97112	0.54318	0.30982	0.33
Mof_C 	C 	0.30648	0.03083	0.34909	-0.118
Mof_C 	C 	0.27972	0.02164	0.29598	0.141
Mof_C 	C 	0.41598	0.04025	0.24331	-0.235
Mof_C 	C 	0.47778	0.05758	0.35004	0.073
Mof_C 	C 	0.61652	0.07476	0.2978	-0.214
Mof_C 	C 	0.58665	0.0685	0.24255	0.335
Mof_C 	C 	0.15067	0.00883	0.40452	0.335
Mof_C 	C 	0.51479	0.07318	0.40341	0.259
Mof_C 	C 	0.74141	0.08851	0.18498	-0.475
Mof_C 	C 	0.67705	0.11458	0.11703	0.961
Mof_C 	C 	0.81422	0.02464	0.19968	0.962
Mof_C 	C 	0.88746	0.145	0.17652	0.35
Mof_C 	C 	0.83473	0.20344	0.16815	-0.22
Mof_C 	C 	0.95676	0.25854	0.15716	0.085
Mof_C 	C 	0.13601	0.25501	0.15678	-0.109
Mof_C 	C 	0.18782	0.19542	0.16676	0.165
Mof_C 	C 	0.06665	0.14224	0.17529	-0.236
Mof_C 	C 	0.88655	0.32042	0.14587	0.269
Mof_C 	C 	0.28094	0.30982	0.147	0.331
Mof_O 	O 	0.60883	0.6105	0.40221	-0.266
Mof_O 	O 	0.35875	0.53507	0.44912	-0.294
Mof_O 	O 	0.16462	0.58065	0.52359	-0.252
Mof_O 	O 	0.91994	0.57044	0.48572	-0.281
Mof_O 	O 	0.87199	0.86344	0.50737	-0.251
Mof_O 	O 	0.13009	0.85282	0.46405	-0.25
Mof_O 	O 	0.4641	0.80391	0.50181	-0.246
Mof_O 	O 	0.56289	0.91251	0.44394	-0.274
Mof_O 	O 	0.01104	0.40221	0.98729	-0.264
Mof_O 	O 	0.80787	0.44912	0.01581	-0.293
Mof_O 	O 	0.68821	0.52359	0.89576	-0.251
Mof_O 	O 	0.40566	0.48572	0.94384	-0.28
Mof_O 	O 	0.37936	0.50737	0.62919	-0.251
Mof_O 	O 	0.59414	0.46405	0.68313	-0.252
Mof_O 	O 	0.96591	0.50181	0.69428	-0.246
Mof_O 	O 	0.00683	0.44394	0.64355	-0.274
Mof_O 	O 	0.99833	0.98729	0.6105	-0.266
Mof_O 	O 	0.82368	0.01581	0.53507	-0.293
Mof_O 	O 	0.58397	0.89576	0.58065	-0.251
Mof_O 	O 	0.3495	0.94384	0.57044	-0.28
Mof_O 	O 	0.00855	0.62919	0.86344	-0.25
Mof_O 	O 	0.27727	0.68313	0.85282	-0.252
Mof_O 	O 	0.66019	0.69428	0.80391	-0.246
Mof_O 	O 	0.65038	0.64355	0.91251	-0.274
Mof_O 	O 	0.39117	0.3895	0.59779	-0.266
Mof_O 	O 	0.64125	0.46493	0.55088	-0.294
Mof_O 	O 	0.83538	0.41935	0.47641	-0.252
Mof_O 	O 	0.08006	0.42956	0.51428	-0.281
Mof_O 	O 	0.12801	0.13656	0.49263	-0.251
Mof_O 	O 	0.86991	0.14718	0.53595	-0.25
Mof_O 	O 	0.5359	0.19609	0.49819	-0.246
Mof_O 	O 	0.43711	0.08749	0.55606	-0.274
Mof_O 	O 	0.98896	0.59779	0.01271	-0.264
Mof_O 	O 	0.19213	0.55088	0.98419	-0.293
Mof_O 	O 	0.31179	0.47641	0.10424	-0.251
Mof_O 	O 	0.59434	0.51428	0.05616	-0.28
Mof_O 	O 	0.62064	0.49263	0.37081	-0.251
Mof_O 	O 	0.40586	0.53595	0.31687	-0.252
Mof_O 	O 	0.03409	0.49819	0.30572	-0.246
Mof_O 	O 	0.99317	0.55606	0.35645	-0.274
Mof_O 	O 	0.00167	0.01271	0.3895	-0.266
Mof_O 	O 	0.17632	0.98419	0.46493	-0.293
Mof_O 	O 	0.41603	0.10424	0.41935	-0.251
Mof_O 	O 	0.6505	0.05616	0.42956	-0.28
Mof_O 	O 	0.99145	0.37081	0.13656	-0.25
Mof_O 	O 	0.72273	0.31687	0.14718	-0.252
Mof_O 	O 	0.33981	0.30572	0.19609	-0.246
Mof_O 	O 	0.34962	0.35645	0.08749	-0.274
Mof_F 	F 	0.12281	0.93449	0.21236	-0.388
Mof_F 	F 	0.30162	0.89035	0.17659	-0.36
Mof_F 	F 	0.32087	0.89003	0.26822	-0.475
Mof_F 	F 	0.91136	0.8503	0.18382	-0.357
Mof_F 	F 	0.10066	0.78871	0.18553	-0.396
Mof_F 	F 	0.85877	0.74522	0.25781	-0.487
Mof_F 	F 	0.33517	0.21236	0.85315	-0.39
Mof_F 	F 	0.47821	0.17659	0.93306	-0.36
Mof_F 	F 	0.58909	0.26822	0.84175	-0.475
Mof_F 	F 	0.09518	0.18382	0.96588	-0.357
Mof_F 	F 	0.28619	0.18553	0.02576	-0.398
Mof_F 	F 	0.11658	0.25781	0.99697	-0.487
Mof_F 	F 	0.18832	0.85315	0.93449	-0.389
Mof_F 	F 	0.41127	0.93306	0.89035	-0.361
Mof_F 	F 	0.43084	0.84175	0.89003	-0.475
Mof_F 	F 	0.06106	0.96588	0.8503	-0.358
Mof_F 	F 	0.31195	0.02576	0.78871	-0.398
Mof_F 	F 	0.11355	0.99697	0.74522	-0.487
Mof_F 	F 	0.87719	0.06551	0.78764	-0.388
Mof_F 	F 	0.69838	0.10965	0.82341	-0.36
Mof_F 	F 	0.67913	0.10997	0.73178	-0.475
Mof_F 	F 	0.08864	0.1497	0.81618	-0.357
Mof_F 	F 	0.89934	0.21129	0.81447	-0.396
Mof_F 	F 	0.14123	0.25478	0.74219	-0.487
Mof_F 	F 	0.66483	0.78764	0.14685	-0.39
Mof_F 	F 	0.52179	0.82341	0.06694	-0.36
Mof_F 	F 	0.41091	0.73178	0.15825	-0.475
Mof_F 	F 	0.90482	0.81618	0.03412	-0.357
Mof_F 	F 	0.71381	0.81447	0.97424	-0.398
Mof_F 	F 	0.88342	0.74219	0.00303	-0.487
Mof_F 	F 	0.81168	0.14685	0.06551	-0.389
Mof_F 	F 	0.58873	0.06694	0.10965	-0.361
Mof_F 	F 	0.56916	0.15825	0.10997	-0.475
Mof_F 	F 	0.93894	0.03412	0.1497	-0.358
Mof_F 	F 	0.68805	0.97424	0.21129	-0.398
Mof_F 	F 	0.88645	0.00303	0.25478	-0.487
_end
