data_functionalizedCrystal
_audit_creation_method	'EQeq! by Chris Wilmer'
_symmetry_space_group_name_H-M	'P1'
_symmetry_Int_Tables_number	1
_symmetry_cell_setting	triclinic
loop_
_symmetry_equiv_pos_as_xyz
  x,y,z
_cell_length_a	17.714
_cell_length_b	12.567
_cell_length_c	25.643
_cell_angle_alpha	90
_cell_angle_beta	93.44
_cell_angle_gamma	90
loop_
_atom_site_label
_atom_site_type_symbol
_atom_site_fract_x
_atom_site_fract_y
_atom_site_fract_z
_atom_site_charge
Mof_Cu	Cu	0.82189	0.2249	0.50327	0.895
Mof_O 	O 	0.8354	0.3451	0.5514	-0.372
Mof_O 	O 	0.7059	0.3904	0.5462	-0.386
Mof_O 	O 	0.8286	0.6773	0.9428	-0.384
Mof_O 	O 	0.7004	0.6328	0.9383	-0.388
Mof_C 	C 	0.9342	0.5377	0.718	0.005
Mof_C 	C 	0.9328	0.5388	0.7744	-0.007
Mof_C 	C 	0.0012	0.538	0.6949	-0.074
Mof_H 	H 	0.0023	0.5376	0.6586	0.061
Mof_C 	C 	0.8634	0.5504	0.6821	0.026
Mof_C 	C 	0.852	0.4742	0.6389	-0.065
Mof_H 	H 	0.8882	0.4226	0.6332	0.07
Mof_C 	C 	0.7869	0.4806	0.6073	-0.022
Mof_C 	C 	0.7363	0.5676	0.6144	-0.045
Mof_H 	H 	0.6945	0.5745	0.591	0.06
Mof_C 	C 	0.7457	0.6393	0.6526	-0.019
Mof_H 	H 	0.711	0.691	0.645	0.041
Mof_C 	C 	0.8084	0.6307	0.6888	-0.072
Mof_H 	H 	0.8137	0.6773	0.7169	0.061
Mof_C 	C 	0.8545	0.5282	0.8011	0.062
Mof_C 	C 	0.8473	0.5752	0.8445	-0.1
Mof_H 	H 	0.8872	0.6163	0.8587	0.08
Mof_C 	C 	0.78	0.567	0.8723	0.003
Mof_C 	C 	0.723	0.4984	0.8523	-0.077
Mof_H 	H 	0.6777	0.4923	0.8685	0.073
Mof_C 	C 	0.7352	0.4422	0.8096	0.019
Mof_H 	H 	0.6981	0.3947	0.7972	0.025
Mof_C 	C 	0.8017	0.4514	0.7823	-0.108
Mof_H 	H 	0.8102	0.4091	0.7535	0.075
Mof_C 	C 	0.7729	0.3976	0.5648	0.277
Mof_C 	C 	0.7685	0.6313	0.9245	0.288
Mof_Cu	Cu	0.32189	0.7249	0.50327	0.894
Mof_O 	O 	0.3354	0.8451	0.5514	-0.373
Mof_O 	O 	0.2059	0.8904	0.5462	-0.386
Mof_O 	O 	0.3286	0.1773	0.9428	-0.384
Mof_O 	O 	0.2004	0.1328	0.9383	-0.389
Mof_C 	C 	0.4342	0.0377	0.718	0.005
Mof_C 	C 	0.4328	0.0388	0.7744	-0.007
Mof_C 	C 	0.5012	0.038	0.6949	-0.073
Mof_H 	H 	0.5023	0.0376	0.6586	0.061
Mof_C 	C 	0.3634	0.0504	0.6821	0.026
Mof_C 	C 	0.352	0.9742	0.6389	-0.065
Mof_H 	H 	0.3882	0.9226	0.6332	0.07
Mof_C 	C 	0.2869	0.9806	0.6073	-0.022
Mof_C 	C 	0.2363	0.0676	0.6144	-0.045
Mof_H 	H 	0.1945	0.0745	0.591	0.06
Mof_C 	C 	0.2457	0.1393	0.6526	-0.019
Mof_H 	H 	0.211	0.191	0.645	0.041
Mof_C 	C 	0.3084	0.1307	0.6888	-0.072
Mof_H 	H 	0.3137	0.1773	0.7169	0.061
Mof_C 	C 	0.3545	0.0282	0.8011	0.061
Mof_C 	C 	0.3473	0.0752	0.8445	-0.1
Mof_H 	H 	0.3872	0.1163	0.8587	0.08
Mof_C 	C 	0.28	0.067	0.8723	0.002
Mof_C 	C 	0.223	0.9984	0.8523	-0.076
Mof_H 	H 	0.1777	0.9923	0.8685	0.073
Mof_C 	C 	0.2352	0.9422	0.8096	0.018
Mof_H 	H 	0.1981	0.8947	0.7972	0.026
Mof_C 	C 	0.3017	0.9514	0.7823	-0.107
Mof_H 	H 	0.3102	0.9091	0.7535	0.074
Mof_C 	C 	0.2729	0.8976	0.5648	0.277
Mof_C 	C 	0.2685	0.1313	0.9245	0.288
Mof_Cu	Cu	0.17811	0.2249	0.99673	0.894
Mof_O 	O 	0.1646	0.3451	0.9486	-0.373
Mof_O 	O 	0.2941	0.3904	0.9538	-0.386
Mof_O 	O 	0.1714	0.6773	0.5572	-0.384
Mof_O 	O 	0.2996	0.6328	0.5617	-0.389
Mof_C 	C 	0.0658	0.5377	0.782	0.004
Mof_C 	C 	0.0672	0.5388	0.7256	-0.007
Mof_C 	C 	0.9988	0.538	0.8051	-0.073
Mof_H 	H 	0.9977	0.5376	0.8414	0.061
Mof_C 	C 	0.1366	0.5504	0.8179	0.026
Mof_C 	C 	0.148	0.4742	0.8611	-0.066
Mof_H 	H 	0.1118	0.4226	0.8668	0.07
Mof_C 	C 	0.2131	0.4806	0.8927	-0.022
Mof_C 	C 	0.2637	0.5676	0.8856	-0.045
Mof_H 	H 	0.3055	0.5745	0.909	0.06
Mof_C 	C 	0.2543	0.6393	0.8474	-0.019
Mof_H 	H 	0.289	0.691	0.855	0.041
Mof_C 	C 	0.1916	0.6307	0.8112	-0.072
Mof_H 	H 	0.1863	0.6773	0.7831	0.061
Mof_C 	C 	0.1455	0.5282	0.6989	0.062
Mof_C 	C 	0.1527	0.5752	0.6555	-0.1
Mof_H 	H 	0.1128	0.6163	0.6413	0.08
Mof_C 	C 	0.22	0.567	0.6277	0.003
Mof_C 	C 	0.277	0.4984	0.6477	-0.077
Mof_H 	H 	0.3223	0.4923	0.6315	0.073
Mof_C 	C 	0.2648	0.4422	0.6904	0.018
Mof_H 	H 	0.3019	0.3947	0.7028	0.025
Mof_C 	C 	0.1983	0.4514	0.7177	-0.108
Mof_H 	H 	0.1898	0.4091	0.7465	0.075
Mof_C 	C 	0.2271	0.3976	0.9352	0.277
Mof_C 	C 	0.2315	0.6313	0.5755	0.288
Mof_Cu	Cu	0.67811	0.7249	0.99673	0.894
Mof_O 	O 	0.6646	0.8451	0.9486	-0.372
Mof_O 	O 	0.7941	0.8904	0.9538	-0.385
Mof_O 	O 	0.6714	0.1773	0.5572	-0.384
Mof_O 	O 	0.7996	0.1328	0.5617	-0.389
Mof_C 	C 	0.5658	0.0377	0.782	0.005
Mof_C 	C 	0.5672	0.0388	0.7256	-0.007
Mof_C 	C 	0.4988	0.038	0.8051	-0.073
Mof_H 	H 	0.4977	0.0376	0.8414	0.061
Mof_C 	C 	0.6366	0.0504	0.8179	0.026
Mof_C 	C 	0.648	0.9742	0.8611	-0.065
Mof_H 	H 	0.6118	0.9226	0.8668	0.07
Mof_C 	C 	0.7131	0.9806	0.8927	-0.022
Mof_C 	C 	0.7637	0.0676	0.8856	-0.045
Mof_H 	H 	0.8055	0.0745	0.909	0.06
Mof_C 	C 	0.7543	0.1393	0.8474	-0.019
Mof_H 	H 	0.789	0.191	0.855	0.041
Mof_C 	C 	0.6916	0.1307	0.8112	-0.072
Mof_H 	H 	0.6863	0.1773	0.7831	0.061
Mof_C 	C 	0.6455	0.0282	0.6989	0.062
Mof_C 	C 	0.6527	0.0752	0.6555	-0.1
Mof_H 	H 	0.6128	0.1163	0.6413	0.08
Mof_C 	C 	0.72	0.067	0.6277	0.003
Mof_C 	C 	0.777	0.9984	0.6477	-0.077
Mof_H 	H 	0.8223	0.9923	0.6315	0.073
Mof_C 	C 	0.7648	0.9422	0.6904	0.018
Mof_H 	H 	0.8019	0.8947	0.7028	0.026
Mof_C 	C 	0.6983	0.9514	0.7177	-0.107
Mof_H 	H 	0.6898	0.9091	0.7465	0.075
Mof_C 	C 	0.7271	0.8976	0.9352	0.277
Mof_C 	C 	0.7315	0.1313	0.5755	0.288
Mof_Cu	Cu	0.17811	0.7751	0.49673	0.894
Mof_O 	O 	0.1646	0.6549	0.4486	-0.373
Mof_O 	O 	0.2941	0.6096	0.4538	-0.386
Mof_O 	O 	0.1714	0.3227	0.0572	-0.384
Mof_O 	O 	0.2996	0.3672	0.0617	-0.388
Mof_C 	C 	0.0658	0.4623	0.282	0.005
Mof_C 	C 	0.0672	0.4612	0.2256	-0.007
Mof_C 	C 	0.9988	0.462	0.3051	-0.074
Mof_H 	H 	0.9977	0.4624	0.3414	0.061
Mof_C 	C 	0.1366	0.4496	0.3179	0.026
Mof_C 	C 	0.148	0.5258	0.3611	-0.065
Mof_H 	H 	0.1118	0.5774	0.3668	0.07
Mof_C 	C 	0.2131	0.5194	0.3927	-0.022
Mof_C 	C 	0.2637	0.4324	0.3856	-0.045
Mof_H 	H 	0.3055	0.4255	0.409	0.06
Mof_C 	C 	0.2543	0.3607	0.3474	-0.019
Mof_H 	H 	0.289	0.309	0.355	0.041
Mof_C 	C 	0.1916	0.3693	0.3112	-0.072
Mof_H 	H 	0.1863	0.3227	0.2831	0.061
Mof_C 	C 	0.1455	0.4718	0.1989	0.062
Mof_C 	C 	0.1527	0.4248	0.1555	-0.1
Mof_H 	H 	0.1128	0.3837	0.1413	0.08
Mof_C 	C 	0.22	0.433	0.1277	0.003
Mof_C 	C 	0.277	0.5016	0.1477	-0.077
Mof_H 	H 	0.3223	0.5077	0.1315	0.073
Mof_C 	C 	0.2648	0.5578	0.1904	0.019
Mof_H 	H 	0.3019	0.6053	0.2028	0.025
Mof_C 	C 	0.1983	0.5486	0.2177	-0.108
Mof_H 	H 	0.1898	0.5909	0.2465	0.075
Mof_C 	C 	0.2271	0.6024	0.4352	0.277
Mof_C 	C 	0.2315	0.3687	0.0755	0.288
Mof_Cu	Cu	0.67811	0.2751	0.49673	0.894
Mof_O 	O 	0.6646	0.1549	0.4486	-0.373
Mof_O 	O 	0.7941	0.1096	0.4538	-0.386
Mof_O 	O 	0.6714	0.8227	0.0572	-0.384
Mof_O 	O 	0.7996	0.8672	0.0617	-0.389
Mof_C 	C 	0.5658	0.9623	0.282	0.005
Mof_C 	C 	0.5672	0.9612	0.2256	-0.007
Mof_C 	C 	0.4988	0.962	0.3051	-0.073
Mof_H 	H 	0.4977	0.9624	0.3414	0.061
Mof_C 	C 	0.6366	0.9496	0.3179	0.026
Mof_C 	C 	0.648	0.0258	0.3611	-0.065
Mof_H 	H 	0.6118	0.0774	0.3668	0.07
Mof_C 	C 	0.7131	0.0194	0.3927	-0.022
Mof_C 	C 	0.7637	0.9324	0.3856	-0.045
Mof_H 	H 	0.8055	0.9255	0.409	0.06
Mof_C 	C 	0.7543	0.8607	0.3474	-0.019
Mof_H 	H 	0.789	0.809	0.355	0.041
Mof_C 	C 	0.6916	0.8693	0.3112	-0.072
Mof_H 	H 	0.6863	0.8227	0.2831	0.061
Mof_C 	C 	0.6455	0.9718	0.1989	0.061
Mof_C 	C 	0.6527	0.9248	0.1555	-0.1
Mof_H 	H 	0.6128	0.8837	0.1413	0.08
Mof_C 	C 	0.72	0.933	0.1277	0.002
Mof_C 	C 	0.777	0.0016	0.1477	-0.076
Mof_H 	H 	0.8223	0.0077	0.1315	0.073
Mof_C 	C 	0.7648	0.0578	0.1904	0.018
Mof_H 	H 	0.8019	0.1053	0.2028	0.026
Mof_C 	C 	0.6983	0.0486	0.2177	-0.107
Mof_H 	H 	0.6898	0.0909	0.2465	0.074
Mof_C 	C 	0.7271	0.1024	0.4352	0.277
Mof_C 	C 	0.7315	0.8687	0.0755	0.288
Mof_Cu	Cu	0.82189	0.7751	0.00327	0.894
Mof_O 	O 	0.8354	0.6549	0.0514	-0.373
Mof_O 	O 	0.7059	0.6096	0.0462	-0.386
Mof_O 	O 	0.8286	0.3227	0.4428	-0.384
Mof_O 	O 	0.7004	0.3672	0.4383	-0.389
Mof_C 	C 	0.9342	0.4623	0.218	0.004
Mof_C 	C 	0.9328	0.4612	0.2744	-0.007
Mof_C 	C 	0.0012	0.462	0.1949	-0.073
Mof_H 	H 	0.0023	0.4624	0.1586	0.061
Mof_C 	C 	0.8634	0.4496	0.1821	0.026
Mof_C 	C 	0.852	0.5258	0.1389	-0.066
Mof_H 	H 	0.8882	0.5774	0.1332	0.07
Mof_C 	C 	0.7869	0.5194	0.1073	-0.022
Mof_C 	C 	0.7363	0.4324	0.1144	-0.045
Mof_H 	H 	0.6945	0.4255	0.091	0.06
Mof_C 	C 	0.7457	0.3607	0.1526	-0.019
Mof_H 	H 	0.711	0.309	0.145	0.041
Mof_C 	C 	0.8084	0.3693	0.1888	-0.072
Mof_H 	H 	0.8137	0.3227	0.2169	0.061
Mof_C 	C 	0.8545	0.4718	0.3011	0.062
Mof_C 	C 	0.8473	0.4248	0.3445	-0.1
Mof_H 	H 	0.8872	0.3837	0.3587	0.08
Mof_C 	C 	0.78	0.433	0.3723	0.003
Mof_C 	C 	0.723	0.5016	0.3523	-0.077
Mof_H 	H 	0.6777	0.5077	0.3685	0.073
Mof_C 	C 	0.7352	0.5578	0.3096	0.018
Mof_H 	H 	0.6981	0.6053	0.2972	0.025
Mof_C 	C 	0.8017	0.5486	0.2823	-0.108
Mof_H 	H 	0.8102	0.5909	0.2535	0.075
Mof_C 	C 	0.7729	0.6024	0.0648	0.277
Mof_C 	C 	0.7685	0.3687	0.4245	0.288
Mof_Cu	Cu	0.32189	0.2751	0.00327	0.894
Mof_O 	O 	0.3354	0.1549	0.0514	-0.372
Mof_O 	O 	0.2059	0.1096	0.0462	-0.385
Mof_O 	O 	0.3286	0.8227	0.4428	-0.384
Mof_O 	O 	0.2004	0.8672	0.4383	-0.389
Mof_C 	C 	0.4342	0.9623	0.218	0.005
Mof_C 	C 	0.4328	0.9612	0.2744	-0.007
Mof_C 	C 	0.5012	0.962	0.1949	-0.073
Mof_H 	H 	0.5023	0.9624	0.1586	0.061
Mof_C 	C 	0.3634	0.9496	0.1821	0.026
Mof_C 	C 	0.352	0.0258	0.1389	-0.065
Mof_H 	H 	0.3882	0.0774	0.1332	0.07
Mof_C 	C 	0.2869	0.0194	0.1073	-0.022
Mof_C 	C 	0.2363	0.9324	0.1144	-0.045
Mof_H 	H 	0.1945	0.9255	0.091	0.06
Mof_C 	C 	0.2457	0.8607	0.1526	-0.019
Mof_H 	H 	0.211	0.809	0.145	0.041
Mof_C 	C 	0.3084	0.8693	0.1888	-0.072
Mof_H 	H 	0.3137	0.8227	0.2169	0.061
Mof_C 	C 	0.3545	0.9718	0.3011	0.062
Mof_C 	C 	0.3473	0.9248	0.3445	-0.1
Mof_H 	H 	0.3872	0.8837	0.3587	0.08
Mof_C 	C 	0.28	0.933	0.3723	0.003
Mof_C 	C 	0.223	0.0016	0.3523	-0.077
Mof_H 	H 	0.1777	0.0077	0.3685	0.073
Mof_C 	C 	0.2352	0.0578	0.3096	0.018
Mof_H 	H 	0.1981	0.1053	0.2972	0.026
Mof_C 	C 	0.3017	0.0486	0.2823	-0.107
Mof_H 	H 	0.3102	0.0909	0.2535	0.075
Mof_C 	C 	0.2729	0.1024	0.0648	0.277
Mof_C 	C 	0.2685	0.8687	0.4245	0.288
_end
