data_functionalizedCrystal
_audit_creation_method	'EQeq! by Chris Wilmer'
_symmetry_space_group_name_H-M	'P1'
_symmetry_Int_Tables_number	1
_symmetry_cell_setting	triclinic
loop_
_symmetry_equiv_pos_as_xyz
  x,y,z
_cell_length_a	9.7844
_cell_length_b	17.3353
_cell_length_c	18.2156
_cell_angle_alpha	92.5067
_cell_angle_beta	90
_cell_angle_gamma	106.392
loop_
_atom_site_label
_atom_site_type_symbol
_atom_site_fract_x
_atom_site_fract_y
_atom_site_fract_z
_atom_site_charge
Mof_Zn	Zn	0.04675	0.6932	0.00349	1.209
Mof_Zn	Zn	0.35355	0.3068	0.49651	1.231
Mof_Zn	Zn	0.95325	0.3068	0.99651	1.245
Mof_Zn	Zn	0.64645	0.6932	0.50349	1.23
Mof_Zn	Zn	-0	0.5	-0	1.212
Mof_Zn	Zn	0.5	0.5	0.5	1.238
Mof_H 	H 	0.131	0.9334	0.929	0.041
Mof_H 	H 	0.8455	0.9318	0.0876	0.03
Mof_H 	H 	0.6449	0.2714	0.6651	0.049
Mof_H 	H 	0.7588	0.2654	0.7752	0.058
Mof_H 	H 	0.7382	0.4882	0.835	0.06
Mof_H 	H 	0.6288	0.495	0.7242	0.043
Mof_H 	H 	0.691	0.5064	0.0784	0.082
Mof_H 	H 	0.5374	0.5676	0.8909	0.081
Mof_H 	H 	0.1976	0.0666	0.571	0.024
Mof_H 	H 	0.9137	0.0682	0.4124	0.009
Mof_H 	H 	0.3735	0.7286	0.8349	0.052
Mof_H 	H 	0.4934	0.7346	0.7248	0.052
Mof_H 	H 	0.25	0.5118	0.665	0.055
Mof_H 	H 	0.1338	0.505	0.7758	0.041
Mof_H 	H 	0.1846	0.4936	0.4216	0.021
Mof_H 	H 	0.9698	0.4324	0.6091	0.028
Mof_H 	H 	0.869	0.0666	0.071	0.057
Mof_H 	H 	0.1545	0.0682	0.9124	0.046
Mof_H 	H 	0.3551	0.7286	0.3349	0.046
Mof_H 	H 	0.2412	0.7346	0.2248	0.042
Mof_H 	H 	0.2618	0.5118	0.165	0.055
Mof_H 	H 	0.3712	0.505	0.2758	0.046
Mof_H 	H 	0.309	0.4936	0.9216	0.008
Mof_H 	H 	0.4626	0.4324	0.1091	0.02
Mof_H 	H 	0.8024	0.9334	0.429	0.079
Mof_H 	H 	0.0863	0.9318	0.5876	0.064
Mof_H 	H 	0.6265	0.2714	0.1651	0.045
Mof_H 	H 	0.5066	0.2654	0.2752	0.049
Mof_H 	H 	0.75	0.4882	0.335	0.059
Mof_H 	H 	0.8662	0.495	0.2242	0.051
Mof_H 	H 	0.8154	0.5064	0.5784	0.07
Mof_H 	H 	0.0302	0.5676	0.3909	0.072
Mof_C 	C 	0.97167	0.83122	0.02137	0.298
Mof_C 	C 	0.9856	0.91876	0.00956	-0.086
Mof_C 	C 	0.07815	0.96004	0.95748	0.004
Mof_C 	C 	0.90732	0.95894	0.05243	-0.016
Mof_C 	C 	0.54867	0.38814	0.61349	0.371
Mof_C 	C 	0.62429	0.38398	0.68379	-0.087
Mof_C 	C 	0.66382	0.31486	0.69919	-0.01
Mof_C 	C 	0.75782	0.37546	0.81693	-0.062
Mof_C 	C 	0.73121	0.3111	0.76527	-0.027
Mof_C 	C 	0.71946	0.44486	0.80105	-0.034
Mof_C 	C 	0.65366	0.44872	0.73481	-0.019
Mof_C 	C 	0.82474	0.3709	0.88965	0.354
Mof_C 	C 	0.7833	0.59326	0.96195	0.332
Mof_C 	C 	0.63718	0.54392	0.98182	0.026
Mof_C 	C 	0.61456	0.5037	0.04709	-0.143
Mof_C 	C 	0.52218	0.54044	0.93445	-0.105
Mof_C 	C 	0.14045	0.16878	0.47863	0.331
Mof_C 	C 	0.06684	0.08124	0.49044	-0.147
Mof_C 	C 	0.11811	0.03996	0.54252	0.042
Mof_C 	C 	0.94838	0.04106	0.44757	0.076
Mof_C 	C 	0.16053	0.61186	0.88651	0.367
Mof_C 	C 	0.24031	0.61602	0.81621	-0.085
Mof_C 	C 	0.34896	0.68514	0.80081	-0.018
Mof_C 	C 	0.38236	0.62454	0.68307	-0.073
Mof_C 	C 	0.42011	0.6889	0.73473	-0.024
Mof_C 	C 	0.2746	0.55514	0.69895	-0.034
Mof_C 	C 	0.20494	0.55128	0.76519	-0.024
Mof_C 	C 	0.45384	0.6291	0.61035	0.355
Mof_C 	C 	0.19004	0.40674	0.53805	0.35
Mof_C 	C 	0.09326	0.45608	0.51818	-0.146
Mof_C 	C 	0.11086	0.4963	0.45291	0.044
Mof_C 	C 	0.98174	0.45956	0.56555	0.074
Mof_C 	C 	0.02833	0.16878	0.97863	0.311
Mof_C 	C 	0.0144	0.08124	0.99044	-0.037
Mof_C 	C 	0.92185	0.03996	0.04252	-0.052
Mof_C 	C 	0.09268	0.04106	0.94757	-0.056
Mof_C 	C 	0.45133	0.61186	0.38651	0.369
Mof_C 	C 	0.37571	0.61602	0.31621	-0.084
Mof_C 	C 	0.33618	0.68514	0.30081	-0.022
Mof_C 	C 	0.24218	0.62454	0.18307	-0.081
Mof_C 	C 	0.26879	0.6889	0.23473	-0.023
Mof_C 	C 	0.28054	0.55514	0.19895	-0.03
Mof_C 	C 	0.34634	0.55128	0.26519	-0.026
Mof_C 	C 	0.17526	0.6291	0.11035	0.358
Mof_C 	C 	0.2167	0.40674	0.03805	0.307
Mof_C 	C 	0.36282	0.45608	0.01818	-0.165
Mof_C 	C 	0.38544	0.4963	0.95291	0.1
Mof_C 	C 	0.47782	0.45956	0.06555	0.063
Mof_C 	C 	0.85955	0.83122	0.52137	0.28
Mof_C 	C 	0.93316	0.91876	0.50956	0.024
Mof_C 	C 	0.88189	0.96004	0.45748	-0.114
Mof_C 	C 	0.05162	0.95894	0.55243	-0.132
Mof_C 	C 	0.83947	0.38814	0.11349	0.37
Mof_C 	C 	0.75969	0.38398	0.18379	-0.083
Mof_C 	C 	0.65104	0.31486	0.19919	-0.015
Mof_C 	C 	0.61764	0.37546	0.31693	-0.07
Mof_C 	C 	0.57989	0.3111	0.26527	-0.024
Mof_C 	C 	0.7254	0.44486	0.30105	-0.028
Mof_C 	C 	0.79506	0.44872	0.23481	-0.021
Mof_C 	C 	0.54616	0.3709	0.38965	0.358
Mof_C 	C 	0.80996	0.59326	0.46195	0.303
Mof_C 	C 	0.90674	0.54392	0.48182	0.008
Mof_C 	C 	0.88914	0.5037	0.54709	-0.092
Mof_C 	C 	0.01826	0.54044	0.43445	-0.115
Mof_O 	O 	0.83667	0.428	0.93631	-0.433
Mof_O 	O 	0.04089	0.79806	0.97549	-0.421
Mof_O 	O 	0.8996	0.79604	0.07192	-0.315
Mof_O 	O 	0.49343	0.32208	0.57806	-0.459
Mof_O 	O 	0.5459	0.45702	0.59536	-0.457
Mof_O 	O 	0.86383	0.30798	0.9001	-0.441
Mof_O 	O 	0.88606	0.59408	0.00796	-0.56
Mof_O 	O 	0.80087	0.6327	0.90635	-0.317
Mof_O 	O 	0.40867	0.572	0.56369	-0.455
Mof_O 	O 	0.24283	0.20194	0.52451	-0.445
Mof_O 	O 	0.10356	0.20396	0.42808	-0.332
Mof_O 	O 	0.17135	0.67792	0.92194	-0.447
Mof_O 	O 	0.08888	0.54298	0.90464	-0.449
Mof_O 	O 	0.55585	0.69202	0.5999	-0.456
Mof_O 	O 	0.29198	0.40592	0.49204	-0.555
Mof_O 	O 	0.16817	0.3673	0.59365	-0.337
Mof_O 	O 	0.16333	0.572	0.06369	-0.474
Mof_O 	O 	0.95911	0.20194	0.02451	-0.445
Mof_O 	O 	0.1004	0.20396	0.92808	-0.315
Mof_O 	O 	0.50657	0.67792	0.42194	-0.462
Mof_O 	O 	0.4541	0.54298	0.40464	-0.455
Mof_O 	O 	0.13617	0.69202	0.0999	-0.477
Mof_O 	O 	0.11394	0.40592	0.99204	-0.52
Mof_O 	O 	0.19913	0.3673	0.09365	-0.333
Mof_O 	O 	0.59133	0.428	0.43631	-0.453
Mof_O 	O 	0.75717	0.79806	0.47549	-0.432
Mof_O 	O 	0.89644	0.79604	0.57192	-0.302
Mof_O 	O 	0.82865	0.32208	0.07806	-0.467
Mof_O 	O 	0.91112	0.45702	0.09536	-0.447
Mof_O 	O 	0.44415	0.30798	0.4001	-0.456
Mof_O 	O 	0.70802	0.59408	0.50796	-0.544
Mof_O 	O 	0.83183	0.6327	0.40635	-0.313
Mof_H 	H 	0.9159	0.7136	0.8367	0.164
Mof_H 	H 	0.8578	0.7814	0.8313	0.148
Mof_H 	H 	0.7255	0.683	0.7562	-0.069
Mof_H 	H 	0.8123	0.752	0.7075	-0.066
Mof_H 	H 	0.8998	0.6138	0.7335	0.298
Mof_H 	H 	0.8215	0.6244	0.6611	0.297
Mof_H 	H 	0.9746	0.6806	0.6797	0.307
Mof_H 	H 	0.1046	0.8204	0.8389	-0.07
Mof_H 	H 	0.1039	0.7764	0.7617	-0.084
Mof_H 	H 	0.9917	0.9084	0.7852	0.318
Mof_H 	H 	0.1405	0.9154	0.7498	0.293
Mof_H 	H 	0.0005	0.8662	0.7082	0.303
Mof_C 	C 	0.82065	0.7113	0.74078	0.344
Mof_C 	C 	0.88506	0.65212	0.70005	-0.867
Mof_C 	C 	0.0526	0.8054	0.79272	0.345
Mof_C 	C 	0.04569	0.88078	0.75558	-0.928
Mof_N 	N 	0.90699	0.75186	0.80685	-0.346
Mof_H 	H 	0.2023	0.2864	0.6633	0.156
Mof_H 	H 	0.0764	0.2186	0.6687	0.137
Mof_H 	H 	0.0425	0.317	0.7438	-0.072
Mof_H 	H 	0.0603	0.248	0.7925	-0.07
Mof_H 	H 	0.286	0.3862	0.7665	0.29
Mof_H 	H 	0.1971	0.3756	0.8389	0.293
Mof_H 	H 	0.294	0.3194	0.8203	0.298
Mof_H 	H 	0.2842	0.1796	0.6611	-0.052
Mof_H 	H 	0.3275	0.2236	0.7383	-0.062
Mof_H 	H 	0.0833	0.0916	0.7148	0.249
Mof_H 	H 	0.2251	0.0846	0.7502	0.249
Mof_H 	H 	0.1343	0.1338	0.7918	0.268
Mof_C 	C 	0.10935	0.2887	0.75922	0.336
Mof_C 	C 	0.23294	0.34788	0.79995	-0.854
Mof_C 	C 	0.2472	0.1946	0.70728	0.296
Mof_C 	C 	0.16491	0.11922	0.74442	-0.782
Mof_N 	N 	0.15513	0.24814	0.69315	-0.34
Mof_H 	H 	0.0841	0.2864	0.1633	0.144
Mof_H 	H 	0.1422	0.2186	0.1687	0.13
Mof_H 	H 	0.2745	0.317	0.2438	-0.056
Mof_H 	H 	0.1877	0.248	0.2925	-0.06
Mof_H 	H 	0.1002	0.3862	0.2665	0.268
Mof_H 	H 	0.1785	0.3756	0.3389	0.276
Mof_H 	H 	0.0254	0.3194	0.3203	0.27
Mof_H 	H 	0.8954	0.1796	0.1611	-0.035
Mof_H 	H 	0.8961	0.2236	0.2383	-0.041
Mof_H 	H 	0.0083	0.0916	0.2148	0.177
Mof_H 	H 	0.8595	0.0846	0.2502	0.203
Mof_H 	H 	0.9995	0.1338	0.2918	0.233
Mof_C 	C 	0.17935	0.2887	0.25922	0.301
Mof_C 	C 	0.11494	0.34788	0.29995	-0.802
Mof_C 	C 	0.9474	0.1946	0.20728	0.251
Mof_C 	C 	0.95431	0.11922	0.24442	-0.616
Mof_N 	N 	0.09301	0.24814	0.19315	-0.335
Mof_H 	H 	0.7977	0.7136	0.3367	0.157
Mof_H 	H 	0.9236	0.7814	0.3313	0.145
Mof_H 	H 	0.9575	0.683	0.2562	-0.051
Mof_H 	H 	0.9397	0.752	0.2075	-0.055
Mof_H 	H 	0.714	0.6138	0.2335	0.28
Mof_H 	H 	0.8029	0.6244	0.1611	0.284
Mof_H 	H 	0.706	0.6806	0.1797	0.284
Mof_H 	H 	0.7158	0.8204	0.3389	-0.062
Mof_H 	H 	0.6725	0.7764	0.2617	-0.071
Mof_H 	H 	0.9167	0.9084	0.2852	0.271
Mof_H 	H 	0.7749	0.9154	0.2498	0.263
Mof_H 	H 	0.8657	0.8662	0.2082	0.284
Mof_C 	C 	0.89065	0.7113	0.24078	0.314
Mof_C 	C 	0.76706	0.65212	0.20005	-0.823
Mof_C 	C 	0.7528	0.8054	0.29272	0.317
Mof_C 	C 	0.83509	0.88078	0.25558	-0.821
Mof_N 	N 	0.84487	0.75186	0.30685	-0.342
_end
