data_functionalizedCrystal
_audit_creation_method	'EQeq! by Chris Wilmer'
_symmetry_space_group_name_H-M	'P1'
_symmetry_Int_Tables_number	1
_symmetry_cell_setting	triclinic
loop_
_symmetry_equiv_pos_as_xyz
  x,y,z
_cell_length_a	8.4682
_cell_length_b	15.2744
_cell_length_c	15.2744
_cell_angle_alpha	85.593
_cell_angle_beta	73.9068
_cell_angle_gamma	73.9068
loop_
_atom_site_label
_atom_site_type_symbol
_atom_site_fract_x
_atom_site_fract_y
_atom_site_fract_z
_atom_site_charge
Mof_Co	Co	0.40407	0.96053	0.94981	1.201
Mof_Co	Co	0.81441	0.53947	0.55019	1.169
Mof_Co	Co	0.35388	0.05019	0.46053	1.135
Mof_Co	Co	0.3646	0.44981	0.03947	1.121
Mof_Co	Co	0.59593	0.03947	0.05019	1.101
Mof_Co	Co	0.18559	0.46053	0.44981	1.142
Mof_Co	Co	0.64612	0.94981	0.53947	1.178
Mof_Co	Co	0.6354	0.55019	0.96053	1.19
Mof_Co	Co	-0	0	-0	1.038
Mof_Co	Co	0.5	0.5	0.5	1.159
Mof_Co	Co	-3.56387e-17	-5.94448e-23	0.5	1.091
Mof_Co	Co	-0	0.5	-0	1.079
Mof_H 	H 	0.9334	0.9756	0.1932	0.251
Mof_H 	H 	0.864	0.9795	0.3411	-0.088
Mof_H 	H 	0.5423	0.0781	0.2529	-0.034
Mof_H 	H 	0.6022	0.5244	0.3068	0.15
Mof_H 	H 	0.6846	0.5205	0.1589	-0.017
Mof_H 	H 	0.3733	0.4219	0.2471	-0.018
Mof_H 	H 	0.1266	0.8068	0.4756	0.132
Mof_H 	H 	0.2051	0.6589	0.4795	-0.019
Mof_H 	H 	0.7952	0.7471	0.5781	-0.001
Mof_H 	H 	0.909	0.6932	0.0244	0.147
Mof_H 	H 	0.8435	0.8411	0.0205	-0.007
Mof_H 	H 	0.6204	0.7529	0.9219	0.006
Mof_H 	H 	0.0666	0.0244	0.8068	0.063
Mof_H 	H 	0.136	0.0205	0.6589	0.059
Mof_H 	H 	0.4577	0.9219	0.7471	-0.004
Mof_H 	H 	0.3978	0.4756	0.6932	0.158
Mof_H 	H 	0.3154	0.4795	0.8411	-0.007
Mof_H 	H 	0.6267	0.5781	0.7529	-0.018
Mof_H 	H 	0.8734	0.1932	0.5244	0.183
Mof_H 	H 	0.7949	0.3411	0.5205	-0.009
Mof_H 	H 	0.2048	0.2529	0.4219	-0.037
Mof_H 	H 	0.091	0.3068	0.9756	0.168
Mof_H 	H 	0.1565	0.1589	0.9795	-0.018
Mof_H 	H 	0.3796	0.2471	0.0781	-0.048
Mof_C 	C 	0.9669	0.9907	0.3085	0.436
Mof_C 	C 	0.2093	0.026	0.3002	0.148
Mof_C 	C 	0.2611	0.0219	0.2047	-0.232
Mof_C 	C 	0.1568	0.9991	0.1585	0.387
Mof_C 	C 	0.4456	0.0608	0.2524	0.083
Mof_C 	C 	0.7661	0.5093	0.1915	0.138
Mof_C 	C 	0.0355	0.474	0.1998	-0.042
Mof_C 	C 	0.9877	0.4781	0.2953	0.092
Mof_C 	C 	0.8144	0.5009	0.3415	0.217
Mof_C 	C 	0.2588	0.4392	0.2476	0.088
Mof_C 	C 	0.2754	0.6915	0.4907	0.136
Mof_C 	C 	0.5095	0.6998	0.526	0.135
Mof_C 	C 	0.4658	0.7953	0.5219	-0.076
Mof_C 	C 	0.3153	0.8415	0.4991	0.255
Mof_C 	C 	0.698	0.7476	0.5608	0.101
Mof_C 	C 	0.9576	0.8085	0.0093	0.121
Mof_C 	C 	0.2353	0.8002	0.974	0.12
Mof_C 	C 	0.283	0.7047	0.9781	0.041
Mof_C 	C 	0.1559	0.6585	0.0009	0.087
Mof_C 	C 	0.5064	0.7524	0.9392	0.106
Mof_C 	C 	0.0331	0.0093	0.6915	-0.138
Mof_C 	C 	0.7907	0.974	0.6998	0.133
Mof_C 	C 	0.7389	0.9781	0.7953	0.02
Mof_C 	C 	0.8432	0.0009	0.8415	0.172
Mof_C 	C 	0.5544	0.9392	0.7476	0.11
Mof_C 	C 	0.2339	0.4907	0.8085	0.149
Mof_C 	C 	0.9645	0.526	0.8002	0.299
Mof_C 	C 	0.0123	0.5219	0.7047	-0.253
Mof_C 	C 	0.1856	0.4991	0.6585	0.31
Mof_C 	C 	0.7412	0.5608	0.7524	0.106
Mof_C 	C 	0.7246	0.3085	0.5093	0.154
Mof_C 	C 	0.4905	0.3002	0.474	0.14
Mof_C 	C 	0.5342	0.2047	0.4781	-0.099
Mof_C 	C 	0.6847	0.1585	0.5009	0.275
Mof_C 	C 	0.302	0.2524	0.4392	0.095
Mof_C 	C 	0.0424	0.1915	0.9907	0.184
Mof_C 	C 	0.7647	0.1998	0.026	0.156
Mof_C 	C 	0.717	0.2953	0.0219	-0.216
Mof_C 	C 	0.8441	0.3415	0.9991	0.441
Mof_C 	C 	0.4936	0.2476	0.0608	0.086
Mof_N 	N 	0.0065	0.9866	0.2172	-0.423
Mof_N 	N 	0.062	0.0092	0.3546	-0.397
Mof_N 	N 	0.4143	0.0451	0.1755	-0.217
Mof_N 	N 	0.3278	0.05	0.3302	-0.275
Mof_N 	N 	0.7103	0.5134	0.2828	-0.248
Mof_N 	N 	0.9258	0.4908	0.1454	-0.195
Mof_N 	N 	0.1349	0.4549	0.3245	-0.273
Mof_N 	N 	0.208	0.45	0.1698	-0.246
Mof_N 	N 	0.2237	0.7828	0.4866	-0.259
Mof_N 	N 	0.4166	0.6454	0.5092	-0.258
Mof_N 	N 	0.5898	0.8245	0.5451	-0.21
Mof_N 	N 	0.658	0.6698	0.55	-0.253
Mof_N 	N 	0.9931	0.7172	0.0134	-0.206
Mof_N 	N 	0.0712	0.8546	0.9908	-0.219
Mof_N 	N 	0.4594	0.6755	0.9549	-0.215
Mof_N 	N 	0.3778	0.8302	0.95	-0.238
Mof_N 	N 	0.9935	0.0134	0.7828	-0.106
Mof_N 	N 	0.938	0.9908	0.6454	-0.122
Mof_N 	N 	0.5857	0.9549	0.8245	-0.212
Mof_N 	N 	0.6722	0.95	0.6698	-0.244
Mof_N 	N 	0.2897	0.4866	0.7172	-0.281
Mof_N 	N 	0.0742	0.5092	0.8546	-0.301
Mof_N 	N 	0.8651	0.5451	0.6755	-0.16
Mof_N 	N 	0.792	0.55	0.8302	-0.27
Mof_N 	N 	0.7763	0.2172	0.5134	-0.271
Mof_N 	N 	0.5834	0.3546	0.4908	-0.262
Mof_N 	N 	0.4102	0.1755	0.4549	-0.219
Mof_N 	N 	0.342	0.3302	0.45	-0.267
Mof_N 	N 	0.0069	0.2828	0.9866	-0.322
Mof_N 	N 	0.9288	0.1454	0.0092	-0.284
Mof_N 	N 	0.5406	0.3245	0.0451	-0.214
Mof_N 	N 	0.6222	0.1698	0.05	-0.282
Mof_O 	O 	0.4255	0.0836	0.9738	-0.423
Mof_O 	O 	0.2	0.008	0.8944	-0.476
Mof_O 	O 	0.182	0.9907	0.0731	-0.543
Mof_O 	O 	0.9829	0.4164	0.5262	-0.405
Mof_O 	O 	0.6024	0.492	0.6056	-0.465
Mof_O 	O 	0.7458	0.5093	0.4269	-0.474
Mof_O 	O 	0.3993	0.0262	0.5836	-0.498
Mof_O 	O 	0.0944	0.1056	0.508	-0.509
Mof_O 	O 	0.2551	0.9269	0.4907	-0.456
Mof_O 	O 	0.5091	0.4738	0.9164	-0.412
Mof_O 	O 	0.208	0.3944	0.992	-0.412
Mof_O 	O 	0.1727	0.5731	0.0093	-0.504
Mof_O 	O 	0.5745	0.9164	0.0262	-0.465
Mof_O 	O 	0.8	0.992	0.1056	-0.405
Mof_O 	O 	0.818	0.0093	0.9269	-0.413
Mof_O 	O 	0.0171	0.5836	0.4738	-0.501
Mof_O 	O 	0.3976	0.508	0.3944	-0.466
Mof_O 	O 	0.2542	0.4907	0.5731	-0.519
Mof_O 	O 	0.6007	0.9738	0.4164	-0.403
Mof_O 	O 	0.9056	0.8944	0.492	-0.404
Mof_O 	O 	0.7449	0.0731	0.5093	-0.512
Mof_O 	O 	0.4909	0.5262	0.0836	-0.491
Mof_O 	O 	0.792	0.6056	0.008	-0.485
Mof_O 	O 	0.8273	0.4269	0.9907	-0.471
_end
