data_functionalizedCrystal
_audit_creation_method	'EQeq! by Chris Wilmer'
_symmetry_space_group_name_H-M	'P1'
_symmetry_Int_Tables_number	1
_symmetry_cell_setting	triclinic
loop_
_symmetry_equiv_pos_as_xyz
  x,y,z
_cell_length_a	16.5736
_cell_length_b	21.7897
_cell_length_c	35.132
_cell_angle_alpha	90
_cell_angle_beta	90
_cell_angle_gamma	90
loop_
_atom_site_label
_atom_site_type_symbol
_atom_site_fract_x
_atom_site_fract_y
_atom_site_fract_z
_atom_site_charge
Mof_Eu	Eu	0.24283	0.57432	0.88597	2.13
Mof_Eu	Eu	0.17561	0.3948	0.87925	2.133
Mof_Eu	Eu	0.25717	0.42568	0.38597	2.13
Mof_Eu	Eu	0.32439	0.6052	0.37925	2.134
Mof_H 	H 	0.2746	0.5707	0.7571	-0.006
Mof_H 	H 	0.286	0.5675	0.6905	0.083
Mof_H 	H 	0.256	0.3823	0.6944	0.083
Mof_H 	H 	0.2422	0.389	0.7609	-0.007
Mof_H 	H 	0.2683	0.4331	0.6319	0.052
Mof_H 	H 	0.464	0.3469	0.8901	0.014
Mof_H 	H 	0.6019	0.3602	0.8786	0.081
Mof_H 	H 	0.5735	0.5451	0.8914	0.077
Mof_H 	H 	0.4349	0.5295	0.903	-0.068
Mof_H 	H 	0.7181	0.422	0.8798	0.053
Mof_H 	H 	0.3668	0.6019	0.5092	0
Mof_H 	H 	0.3565	0.5986	0.5756	0.084
Mof_H 	H 	0.2727	0.4242	0.5709	0.085
Mof_H 	H 	0.2804	0.4265	0.5047	-0.016
Mof_H 	H 	0.3183	0.5531	0.6332	0.055
Mof_H 	H 	0.9585	0.6227	0.8744	0.008
Mof_H 	H 	0.8198	0.6101	0.8777	0.081
Mof_H 	H 	0.8414	0.4276	0.86	0.079
Mof_H 	H 	0.9832	0.438	0.8575	-0.069
Mof_H 	H 	0.6996	0.5482	0.8804	0.052
Mof_H 	H 	0.2063	0.7851	0.8335	0.033
Mof_H 	H 	0.1918	0.8926	0.8375	0.063
Mof_H 	H 	0.1348	0.876	0.949	0.062
Mof_H 	H 	0.1552	0.7701	0.946	0.031
Mof_H 	H 	0.1215	0.9787	0.9203	0.049
Mof_H 	H 	0.1529	0.1851	0.9352	0.029
Mof_H 	H 	0.141	0.0767	0.9308	0.067
Mof_H 	H 	0.21	0.0828	0.8217	0.067
Mof_H 	H 	0.2219	0.1909	0.8244	0.031
Mof_H 	H 	0.1979	0.9839	0.8496	0.053
Mof_H 	H 	0.2254	0.4293	0.2571	-0.005
Mof_H 	H 	0.214	0.4325	0.1905	0.085
Mof_H 	H 	0.244	0.6177	0.1944	0.084
Mof_H 	H 	0.2578	0.611	0.2609	-0.006
Mof_H 	H 	0.2317	0.5669	0.1319	0.052
Mof_H 	H 	0.036	0.6531	0.3901	0.014
Mof_H 	H 	0.8981	0.6398	0.3786	0.081
Mof_H 	H 	0.9265	0.4549	0.3914	0.077
Mof_H 	H 	0.0651	0.4705	0.403	-0.068
Mof_H 	H 	0.7819	0.578	0.3798	0.053
Mof_H 	H 	0.1332	0.3981	0.0092	0.002
Mof_H 	H 	0.1435	0.4014	0.0756	0.083
Mof_H 	H 	0.2273	0.5758	0.0709	0.084
Mof_H 	H 	0.2196	0.5735	0.0047	-0.015
Mof_H 	H 	0.1817	0.4469	0.1332	0.055
Mof_H 	H 	0.5415	0.3773	0.3744	0.008
Mof_H 	H 	0.6802	0.3899	0.3777	0.081
Mof_H 	H 	0.6586	0.5724	0.36	0.079
Mof_H 	H 	0.5168	0.562	0.3575	-0.069
Mof_H 	H 	0.8004	0.4518	0.3804	0.052
Mof_H 	H 	0.2937	0.2149	0.3335	0.033
Mof_H 	H 	0.3082	0.1074	0.3375	0.063
Mof_H 	H 	0.3652	0.124	0.449	0.063
Mof_H 	H 	0.3448	0.2299	0.446	0.031
Mof_H 	H 	0.3785	0.0213	0.4203	0.049
Mof_H 	H 	0.3471	0.8149	0.4352	0.029
Mof_H 	H 	0.359	0.9233	0.4308	0.068
Mof_H 	H 	0.29	0.9172	0.3217	0.067
Mof_H 	H 	0.2781	0.8091	0.3244	0.031
Mof_H 	H 	0.3021	0.0161	0.3496	0.053
Mof_C 	C 	0.2497	0.4826	0.8078	0.508
Mof_C 	C 	0.2581	0.4808	0.7655	-0.218
Mof_C 	C 	0.2707	0.5323	0.7445	0.115
Mof_C 	C 	0.2781	0.5307	0.7046	-0.175
Mof_C 	C 	0.2735	0.4746	0.6864	0.113
Mof_C 	C 	0.2599	0.4208	0.7069	-0.176
Mof_C 	C 	0.252	0.4252	0.7466	0.109
Mof_C 	C 	0.2817	0.4711	0.6436	-0.079
Mof_C 	C 	0.3441	0.4291	0.8946	0.433
Mof_C 	C 	0.4349	0.4385	0.8928	-0.19
Mof_C 	C 	0.4862	0.3871	0.8891	0.089
Mof_C 	C 	0.5685	0.3945	0.884	-0.167
Mof_C 	C 	0.6017	0.453	0.8868	0.112
Mof_C 	C 	0.5515	0.5048	0.8916	-0.183
Mof_C 	C 	0.4684	0.4956	0.8967	0.115
Mof_C 	C 	0.688	0.459	0.8813	-0.087
Mof_C 	C 	0.3256	0.5159	0.4582	0.501
Mof_C 	C 	0.3255	0.5121	0.5	-0.213
Mof_C 	C 	0.348	0.5659	0.5217	0.099
Mof_C 	C 	0.3416	0.5637	0.5611	-0.172
Mof_C 	C 	0.314	0.5117	0.5795	0.117
Mof_C 	C 	0.2915	0.46	0.5583	-0.179
Mof_C 	C 	0.2969	0.4614	0.5189	0.119
Mof_C 	C 	0.3053	0.5151	0.6215	-0.087
Mof_C 	C 	0.0736	0.5377	0.8679	0.463
Mof_C 	C 	0.9842	0.5318	0.8659	-0.209
Mof_C 	C 	0.9354	0.583	0.8719	0.104
Mof_C 	C 	0.853	0.575	0.8741	-0.171
Mof_C 	C 	0.816	0.5174	0.8712	0.114
Mof_C 	C 	0.8653	0.4667	0.8637	-0.182
Mof_C 	C 	0.9499	0.4729	0.8617	0.114
Mof_C 	C 	0.7295	0.5112	0.878	-0.087
Mof_C 	C 	0.2057	0.7	0.8874	0.313
Mof_C 	C 	0.1847	0.7684	0.8891	-0.086
Mof_C 	C 	0.1933	0.8037	0.8571	0.021
Mof_C 	C 	0.1826	0.8678	0.8594	-0.111
Mof_C 	C 	0.1587	0.8949	0.8936	0.07
Mof_C 	C 	0.1498	0.8577	0.9255	-0.115
Mof_C 	C 	0.162	0.7948	0.9239	0.023
Mof_C 	C 	0.1482	0.963	0.8984	-0.068
Mof_C 	C 	0.1953	0.2651	0.882	0.288
Mof_C 	C 	0.1867	0.1961	0.8804	-0.093
Mof_C 	C 	0.1641	0.1645	0.9119	0.028
Mof_C 	C 	0.1579	0.0997	0.9093	-0.12
Mof_C 	C 	0.1759	0.0694	0.8758	0.082
Mof_C 	C 	0.1985	0.1034	0.8449	-0.121
Mof_C 	C 	0.2053	0.1679	0.846	0.026
Mof_C 	C 	0.1762	0.0011	0.8722	-0.079
Mof_C 	C 	0.2503	0.5174	0.3078	0.508
Mof_C 	C 	0.2419	0.5192	0.2655	-0.218
Mof_C 	C 	0.2293	0.4677	0.2445	0.115
Mof_C 	C 	0.2219	0.4693	0.2046	-0.176
Mof_C 	C 	0.2265	0.5254	0.1864	0.114
Mof_C 	C 	0.2401	0.5792	0.2069	-0.176
Mof_C 	C 	0.248	0.5748	0.2466	0.109
Mof_C 	C 	0.2183	0.5289	0.1436	-0.079
Mof_C 	C 	0.1559	0.5709	0.3946	0.433
Mof_C 	C 	0.0651	0.5615	0.3928	-0.19
Mof_C 	C 	0.0138	0.6129	0.3891	0.088
Mof_C 	C 	0.9315	0.6055	0.384	-0.167
Mof_C 	C 	0.8983	0.547	0.3868	0.112
Mof_C 	C 	0.9485	0.4952	0.3916	-0.182
Mof_C 	C 	0.0316	0.5044	0.3967	0.115
Mof_C 	C 	0.812	0.541	0.3813	-0.086
Mof_C 	C 	0.1744	0.4841	0.9582	0.498
Mof_C 	C 	0.1745	0.4879	-0	-0.209
Mof_C 	C 	0.152	0.4341	0.0217	0.098
Mof_C 	C 	0.1584	0.4363	0.0611	-0.17
Mof_C 	C 	0.186	0.4883	0.0795	0.116
Mof_C 	C 	0.2085	0.54	0.0583	-0.178
Mof_C 	C 	0.2031	0.5386	0.0189	0.117
Mof_C 	C 	0.1947	0.4849	0.1215	-0.086
Mof_C 	C 	0.4264	0.4623	0.3679	0.464
Mof_C 	C 	0.5158	0.4682	0.3659	-0.209
Mof_C 	C 	0.5646	0.417	0.3719	0.105
Mof_C 	C 	0.647	0.425	0.3741	-0.171
Mof_C 	C 	0.684	0.4826	0.3712	0.114
Mof_C 	C 	0.6347	0.5333	0.3637	-0.182
Mof_C 	C 	0.5501	0.5271	0.3617	0.115
Mof_C 	C 	0.7705	0.4888	0.378	-0.087
Mof_C 	C 	0.2943	0.3	0.3874	0.313
Mof_C 	C 	0.3153	0.2316	0.3891	-0.086
Mof_C 	C 	0.3067	0.1963	0.3571	0.021
Mof_C 	C 	0.3174	0.1322	0.3594	-0.111
Mof_C 	C 	0.3413	0.1051	0.3936	0.071
Mof_C 	C 	0.3502	0.1423	0.4255	-0.115
Mof_C 	C 	0.338	0.2052	0.4239	0.023
Mof_C 	C 	0.3518	0.037	0.3984	-0.069
Mof_C 	C 	0.3047	0.7349	0.382	0.288
Mof_C 	C 	0.3133	0.8039	0.3804	-0.093
Mof_C 	C 	0.3359	0.8355	0.4119	0.028
Mof_C 	C 	0.3421	0.9003	0.4093	-0.119
Mof_C 	C 	0.3241	0.9306	0.3758	0.081
Mof_C 	C 	0.3015	0.8966	0.3449	-0.121
Mof_C 	C 	0.2947	0.8321	0.346	0.026
Mof_C 	C 	0.3238	0.9989	0.3722	-0.078
Mof_O 	O 	0.25	0.5356	0.82283	-0.551
Mof_O 	O 	0.2419	0.4325	0.82474	-0.559
Mof_O 	O 	0.3145	0.3763	0.89444	-0.473
Mof_O 	O 	0.3002	0.4786	0.89533	-0.628
Mof_O 	O 	0.3321	0.5674	0.44189	-0.556
Mof_O 	O 	0.3192	0.4649	0.44044	-0.552
Mof_O 	O 	0.1186	0.4918	0.86844	-0.644
Mof_O 	O 	0.1026	0.5922	0.86992	-0.466
Mof_O 	O 	0.2007	0.6695	0.91764	-0.451
Mof_O 	O 	0.2295	0.6777	0.8563	-0.444
Mof_O 	O 	0.1806	0.2935	0.91326	-0.422
Mof_O 	O 	0.2124	0.2958	0.85186	-0.443
Mof_O 	O 	0.25	0.4644	0.32283	-0.552
Mof_O 	O 	0.2581	0.5675	0.32474	-0.559
Mof_O 	O 	0.1855	0.6237	0.39444	-0.473
Mof_O 	O 	0.1998	0.5214	0.39533	-0.628
Mof_O 	O 	0.1679	0.4326	0.94189	-0.556
Mof_O 	O 	0.1808	0.5351	0.94044	-0.552
Mof_O 	O 	0.3814	0.5082	0.36844	-0.644
Mof_O 	O 	0.3974	0.4078	0.36992	-0.466
Mof_O 	O 	0.2993	0.3305	0.41764	-0.45
Mof_O 	O 	0.2705	0.3223	0.3563	-0.444
Mof_O 	O 	0.3194	0.7065	0.41326	-0.422
Mof_O 	O 	0.2876	0.7042	0.35186	-0.443
Mof_Eu	Eu	0.75717	0.07432	0.61403	2.131
Mof_Eu	Eu	0.82439	0.8948	0.62075	2.135
Mof_Eu	Eu	0.74283	0.92568	0.11403	2.132
Mof_Eu	Eu	0.67561	0.1052	0.12075	2.135
Mof_H 	H 	0.7254	0.0707	0.7429	-0.005
Mof_H 	H 	0.714	0.0675	0.8095	0.085
Mof_H 	H 	0.744	0.8823	0.8056	0.084
Mof_H 	H 	0.7578	0.889	0.7391	-0.006
Mof_H 	H 	0.7317	0.9331	0.8681	0.052
Mof_H 	H 	0.536	0.8469	0.6099	0.014
Mof_H 	H 	0.3981	0.8602	0.6214	0.081
Mof_H 	H 	0.4265	0.0451	0.6086	0.077
Mof_H 	H 	0.5651	0.0295	0.597	-0.068
Mof_H 	H 	0.2819	0.922	0.6202	0.053
Mof_H 	H 	0.6332	0.1019	0.9908	0.002
Mof_H 	H 	0.6435	0.0986	0.9244	0.082
Mof_H 	H 	0.7273	0.9242	0.9291	0.083
Mof_H 	H 	0.7196	0.9265	0.9953	-0.015
Mof_H 	H 	0.6817	0.0531	0.8668	0.054
Mof_H 	H 	0.0415	0.1227	0.6256	0.008
Mof_H 	H 	0.1802	0.1101	0.6223	0.081
Mof_H 	H 	0.1586	0.9276	0.64	0.079
Mof_H 	H 	0.0168	0.938	0.6425	-0.069
Mof_H 	H 	0.3004	0.0482	0.6196	0.052
Mof_H 	H 	0.7937	0.2851	0.6665	0.033
Mof_H 	H 	0.8082	0.3926	0.6625	0.063
Mof_H 	H 	0.8652	0.376	0.551	0.063
Mof_H 	H 	0.8448	0.2701	0.554	0.031
Mof_H 	H 	0.8785	0.4787	0.5797	0.049
Mof_H 	H 	0.8471	0.6851	0.5648	0.029
Mof_H 	H 	0.859	0.5767	0.5692	0.068
Mof_H 	H 	0.79	0.5828	0.6783	0.067
Mof_H 	H 	0.7781	0.6909	0.6756	0.031
Mof_H 	H 	0.8021	0.4839	0.6504	0.053
Mof_H 	H 	0.7746	0.9293	0.2429	-0.005
Mof_H 	H 	0.786	0.9325	0.3095	0.084
Mof_H 	H 	0.756	0.1177	0.3056	0.084
Mof_H 	H 	0.7422	0.111	0.2391	-0.006
Mof_H 	H 	0.7683	0.0669	0.3681	0.052
Mof_H 	H 	0.964	0.1531	0.1099	0.014
Mof_H 	H 	0.1019	0.1398	0.1214	0.081
Mof_H 	H 	0.0735	0.9549	0.1086	0.077
Mof_H 	H 	0.9349	0.9705	0.097	-0.068
Mof_H 	H 	0.2181	0.078	0.1202	0.053
Mof_H 	H 	0.8668	0.8981	0.4908	0
Mof_H 	H 	0.8565	0.9014	0.4244	0.084
Mof_H 	H 	0.7727	0.0758	0.4291	0.085
Mof_H 	H 	0.7804	0.0735	0.4953	-0.016
Mof_H 	H 	0.8183	0.9469	0.3668	0.055
Mof_H 	H 	0.4585	0.8773	0.1256	0.008
Mof_H 	H 	0.3198	0.8899	0.1223	0.082
Mof_H 	H 	0.3414	0.0724	0.14	0.079
Mof_H 	H 	0.4832	0.062	0.1425	-0.069
Mof_H 	H 	0.1996	0.9518	0.1196	0.052
Mof_H 	H 	0.7063	0.7149	0.1665	0.033
Mof_H 	H 	0.6918	0.6074	0.1625	0.063
Mof_H 	H 	0.6348	0.624	0.051	0.063
Mof_H 	H 	0.6552	0.7299	0.054	0.032
Mof_H 	H 	0.6215	0.5213	0.0797	0.049
Mof_H 	H 	0.6529	0.3149	0.0648	0.029
Mof_H 	H 	0.641	0.4233	0.0692	0.068
Mof_H 	H 	0.71	0.4172	0.1783	0.067
Mof_H 	H 	0.7219	0.3091	0.1756	0.031
Mof_H 	H 	0.6979	0.5161	0.1504	0.053
Mof_C 	C 	0.7503	0.9826	0.6922	0.508
Mof_C 	C 	0.7419	0.9808	0.7345	-0.219
Mof_C 	C 	0.7293	0.0323	0.7555	0.115
Mof_C 	C 	0.7219	0.0307	0.7954	-0.176
Mof_C 	C 	0.7265	0.9746	0.8136	0.114
Mof_C 	C 	0.7401	0.9208	0.7931	-0.176
Mof_C 	C 	0.748	0.9252	0.7534	0.11
Mof_C 	C 	0.7183	0.9711	0.8564	-0.08
Mof_C 	C 	0.6559	0.9291	0.6054	0.433
Mof_C 	C 	0.5651	0.9385	0.6072	-0.19
Mof_C 	C 	0.5138	0.8871	0.6109	0.089
Mof_C 	C 	0.4315	0.8945	0.616	-0.167
Mof_C 	C 	0.3983	0.953	0.6132	0.113
Mof_C 	C 	0.4485	0.0048	0.6084	-0.183
Mof_C 	C 	0.5316	0.9956	0.6033	0.116
Mof_C 	C 	0.312	0.959	0.6187	-0.086
Mof_C 	C 	0.6744	0.0159	0.0418	0.498
Mof_C 	C 	0.6745	0.0121	-0	-0.205
Mof_C 	C 	0.652	0.0659	0.9783	0.092
Mof_C 	C 	0.6584	0.0637	0.9389	-0.167
Mof_C 	C 	0.686	0.0117	0.9205	0.113
Mof_C 	C 	0.7085	0.96	0.9417	-0.174
Mof_C 	C 	0.7031	0.9614	0.9811	0.111
Mof_C 	C 	0.6947	0.0151	0.8785	-0.084
Mof_C 	C 	0.9264	0.0377	0.6321	0.464
Mof_C 	C 	0.0158	0.0318	0.6341	-0.209
Mof_C 	C 	0.0646	0.083	0.6281	0.105
Mof_C 	C 	0.147	0.075	0.6259	-0.172
Mof_C 	C 	0.184	0.0174	0.6288	0.114
Mof_C 	C 	0.1347	0.9667	0.6363	-0.182
Mof_C 	C 	0.0501	0.9729	0.6383	0.115
Mof_C 	C 	0.2705	0.0112	0.622	-0.088
Mof_C 	C 	0.7943	0.2	0.6126	0.313
Mof_C 	C 	0.8153	0.2684	0.6109	-0.086
Mof_C 	C 	0.8067	0.3037	0.6429	0.021
Mof_C 	C 	0.8174	0.3678	0.6406	-0.111
Mof_C 	C 	0.8413	0.3949	0.6064	0.071
Mof_C 	C 	0.8502	0.3577	0.5745	-0.115
Mof_C 	C 	0.838	0.2948	0.5761	0.023
Mof_C 	C 	0.8518	0.463	0.6016	-0.069
Mof_C 	C 	0.8047	0.7651	0.618	0.288
Mof_C 	C 	0.8133	0.6961	0.6196	-0.093
Mof_C 	C 	0.8359	0.6645	0.5881	0.028
Mof_C 	C 	0.8421	0.5997	0.5907	-0.119
Mof_C 	C 	0.8241	0.5694	0.6242	0.081
Mof_C 	C 	0.8015	0.6034	0.6551	-0.121
Mof_C 	C 	0.7947	0.6679	0.654	0.026
Mof_C 	C 	0.8238	0.5011	0.6278	-0.078
Mof_C 	C 	0.7497	0.0174	0.1922	0.508
Mof_C 	C 	0.7581	0.0192	0.2345	-0.218
Mof_C 	C 	0.7707	0.9677	0.2555	0.115
Mof_C 	C 	0.7781	0.9693	0.2954	-0.175
Mof_C 	C 	0.7735	0.0254	0.3136	0.113
Mof_C 	C 	0.7599	0.0792	0.2931	-0.176
Mof_C 	C 	0.752	0.0748	0.2534	0.109
Mof_C 	C 	0.7817	0.0289	0.3564	-0.079
Mof_C 	C 	0.8441	0.0709	0.1054	0.433
Mof_C 	C 	0.9349	0.0615	0.1072	-0.19
Mof_C 	C 	0.9862	0.1129	0.1109	0.089
Mof_C 	C 	0.0685	0.1055	0.116	-0.167
Mof_C 	C 	0.1017	0.047	0.1132	0.113
Mof_C 	C 	0.0515	0.9952	0.1084	-0.183
Mof_C 	C 	0.9684	0.0044	0.1033	0.116
Mof_C 	C 	0.188	0.041	0.1187	-0.087
Mof_C 	C 	0.8256	0.9841	0.5418	0.501
Mof_C 	C 	0.8255	0.9879	0.5	-0.213
Mof_C 	C 	0.848	0.9341	0.4783	0.099
Mof_C 	C 	0.8416	0.9363	0.4389	-0.172
Mof_C 	C 	0.814	0.9883	0.4205	0.117
Mof_C 	C 	0.7915	0.04	0.4417	-0.179
Mof_C 	C 	0.7969	0.0386	0.4811	0.119
Mof_C 	C 	0.8053	0.9849	0.3785	-0.087
Mof_C 	C 	0.5736	0.9623	0.1321	0.464
Mof_C 	C 	0.4842	0.9682	0.1341	-0.209
Mof_C 	C 	0.4354	0.917	0.1281	0.105
Mof_C 	C 	0.353	0.925	0.1259	-0.171
Mof_C 	C 	0.316	0.9826	0.1288	0.114
Mof_C 	C 	0.3653	0.0333	0.1363	-0.182
Mof_C 	C 	0.4499	0.0271	0.1383	0.115
Mof_C 	C 	0.2295	0.9888	0.122	-0.087
Mof_C 	C 	0.7057	0.8	0.1126	0.313
Mof_C 	C 	0.6847	0.7316	0.1109	-0.086
Mof_C 	C 	0.6933	0.6963	0.1429	0.021
Mof_C 	C 	0.6826	0.6322	0.1406	-0.111
Mof_C 	C 	0.6587	0.6051	0.1064	0.071
Mof_C 	C 	0.6498	0.6423	0.0745	-0.115
Mof_C 	C 	0.662	0.7052	0.0761	0.024
Mof_C 	C 	0.6482	0.537	0.1016	-0.069
Mof_C 	C 	0.6953	0.2349	0.118	0.288
Mof_C 	C 	0.6867	0.3039	0.1196	-0.093
Mof_C 	C 	0.6641	0.3355	0.0881	0.028
Mof_C 	C 	0.6579	0.4003	0.0907	-0.119
Mof_C 	C 	0.6759	0.4306	0.1242	0.081
Mof_C 	C 	0.6985	0.3966	0.1551	-0.121
Mof_C 	C 	0.7053	0.3321	0.154	0.026
Mof_C 	C 	0.6762	0.4989	0.1278	-0.078
Mof_O 	O 	0.75	0.0356	0.67717	-0.552
Mof_O 	O 	0.7581	0.9325	0.67526	-0.559
Mof_O 	O 	0.6855	0.8763	0.60556	-0.473
Mof_O 	O 	0.6998	0.9786	0.60467	-0.628
Mof_O 	O 	0.6679	0.0674	0.05811	-0.555
Mof_O 	O 	0.6808	0.9649	0.05956	-0.551
Mof_O 	O 	0.8814	0.9918	0.63156	-0.644
Mof_O 	O 	0.8974	0.0922	0.63008	-0.466
Mof_O 	O 	0.7993	0.1695	0.58236	-0.45
Mof_O 	O 	0.7705	0.1777	0.6437	-0.444
Mof_O 	O 	0.8194	0.7935	0.58674	-0.422
Mof_O 	O 	0.7876	0.7958	0.64814	-0.443
Mof_O 	O 	0.75	0.9644	0.17717	-0.552
Mof_O 	O 	0.7419	0.0675	0.17526	-0.559
Mof_O 	O 	0.8145	0.1237	0.10556	-0.473
Mof_O 	O 	0.8002	0.0214	0.10467	-0.628
Mof_O 	O 	0.8321	0.9326	0.55811	-0.556
Mof_O 	O 	0.8192	0.0351	0.55956	-0.552
Mof_O 	O 	0.6186	0.0082	0.13156	-0.644
Mof_O 	O 	0.6026	0.9078	0.13008	-0.466
Mof_O 	O 	0.7007	0.8305	0.08236	-0.45
Mof_O 	O 	0.7295	0.8223	0.1437	-0.444
Mof_O 	O 	0.6806	0.2065	0.08674	-0.421
Mof_O 	O 	0.7124	0.2042	0.14814	-0.443
_end
