data_functionalizedCrystal
_audit_creation_method	'EQeq! by Chris Wilmer'
_symmetry_space_group_name_H-M	'P1'
_symmetry_Int_Tables_number	1
_symmetry_cell_setting	triclinic
loop_
_symmetry_equiv_pos_as_xyz
  x,y,z
_cell_length_a	15.528
_cell_length_b	15.999
_cell_length_c	13.519
_cell_angle_alpha	90
_cell_angle_beta	112.643
_cell_angle_gamma	90
loop_
_atom_site_label
_atom_site_type_symbol
_atom_site_fract_x
_atom_site_fract_y
_atom_site_fract_z
_atom_site_charge
Mof_Nd	Nd	0.4268	0.04172	0.59229	2.562
Mof_O 	O 	0.4141	0.0105	0.7643	-0.775
Mof_O 	O 	0.2839	0.9905	0.5707	-0.594
Mof_O 	O 	0.4435	0.8876	0.5922	-0.55
Mof_O 	O 	0.3891	0.0104	0.4076	-0.753
Mof_O 	O 	0.4996	0.1534	0.5279	-0.6
Mof_C 	C 	0.3575	0.9912	0.8094	0.699
Mof_C 	C 	0.2288	0.9744	0.6236	0.459
Mof_C 	C 	0.466	0.8336	0.5434	0.553
Mof_C 	C 	0.2597	0.9817	0.7344	-0.425
Mof_C 	C 	0.1354	0.9575	0.563	-0.34
Mof_C 	C 	0.4491	0.7447	0.5606	-0.225
Mof_C 	C 	0.1971	0.9721	0.7845	0.158
Mof_H 	H 	0.1148	0.9527	0.4889	0.16
Mof_C 	C 	0.0729	0.9479	0.6131	0.114
Mof_C 	C 	0.4824	0.68	0.5158	0.04
Mof_C 	C 	0.4031	0.7287	0.634	0.254
Mof_C 	C 	0.1038	0.9552	0.7239	-0.063
Mof_H 	H 	0.2178	0.977	0.8586	-0.042
Mof_H 	H 	0.0104	0.9366	0.5726	-0.002
Mof_H 	H 	0.517	0.6915	0.4744	0.021
Mof_C 	C 	0.463	0.5976	0.534	0.021
Mof_C 	C 	0.387	0.6441	0.654	-0.179
Mof_O 	O 	0.3725	0.7849	0.6799	-0.225
Mof_N 	N 	0.0428	0.9534	0.7821	-0.074
Mof_C 	C 	0.416	0.5803	0.602	0.007
Mof_N 	N 	0.504	0.5367	0.487	-0.082
Mof_H 	H 	0.3579	0.6311	0.7004	0.105
Mof_H 	H 	0.4029	0.525	0.6135	0.038
Mof_Nd	Nd	0.5732	0.04172	0.90771	2.54
Mof_O 	O 	0.5859	0.0105	0.7357	-0.774
Mof_O 	O 	0.7161	0.9905	0.9293	-0.586
Mof_O 	O 	0.5565	0.8876	0.9078	-0.55
Mof_O 	O 	0.6109	0.0104	0.0924	-0.747
Mof_O 	O 	0.5004	0.1534	0.9721	-0.606
Mof_C 	C 	0.6425	0.9912	0.6906	0.696
Mof_C 	C 	0.7712	0.9744	0.8764	0.446
Mof_C 	C 	0.534	0.8336	0.9566	0.561
Mof_C 	C 	0.7403	0.9817	0.7656	-0.417
Mof_C 	C 	0.8646	0.9575	0.937	-0.31
Mof_C 	C 	0.5509	0.7447	0.9394	-0.23
Mof_C 	C 	0.8029	0.9721	0.7155	0.151
Mof_H 	H 	0.8852	0.9527	0.0111	0.142
Mof_C 	C 	0.9271	0.9479	0.8869	0.098
Mof_C 	C 	0.5176	0.68	0.9842	0.051
Mof_C 	C 	0.5969	0.7287	0.866	0.256
Mof_C 	C 	0.8962	0.9552	0.7761	-0.056
Mof_H 	H 	0.7822	0.977	0.6414	-0.042
Mof_H 	H 	0.9896	0.9366	0.9274	0.005
Mof_H 	H 	0.483	0.6915	0.0256	0.015
Mof_C 	C 	0.537	0.5976	0.966	0.017
Mof_C 	C 	0.613	0.6441	0.846	-0.181
Mof_O 	O 	0.6275	0.7849	0.8201	-0.225
Mof_N 	N 	0.9572	0.9534	0.7179	-0.078
Mof_C 	C 	0.584	0.5803	0.898	0.009
Mof_N 	N 	0.496	0.5367	0.013	-0.082
Mof_H 	H 	0.6421	0.6311	0.7996	0.106
Mof_H 	H 	0.5971	0.525	0.8865	0.037
Mof_Nd	Nd	0.5732	0.95828	0.40771	2.561
Mof_O 	O 	0.5859	0.9895	0.2357	-0.776
Mof_O 	O 	0.7161	0.0095	0.4293	-0.595
Mof_O 	O 	0.5565	0.1124	0.4078	-0.551
Mof_O 	O 	0.6109	0.9896	0.5924	-0.753
Mof_O 	O 	0.5004	0.8466	0.4721	-0.6
Mof_C 	C 	0.6425	0.0088	0.1906	0.699
Mof_C 	C 	0.7712	0.0256	0.3764	0.459
Mof_C 	C 	0.534	0.1664	0.4566	0.553
Mof_C 	C 	0.7403	0.0183	0.2656	-0.425
Mof_C 	C 	0.8646	0.0425	0.437	-0.34
Mof_C 	C 	0.5509	0.2553	0.4394	-0.225
Mof_C 	C 	0.8029	0.0279	0.2155	0.158
Mof_H 	H 	0.8852	0.0473	0.5111	0.16
Mof_C 	C 	0.9271	0.0521	0.3869	0.114
Mof_C 	C 	0.5176	0.32	0.4842	0.04
Mof_C 	C 	0.5969	0.2713	0.366	0.254
Mof_C 	C 	0.8962	0.0448	0.2761	-0.063
Mof_H 	H 	0.7822	0.023	0.1414	-0.042
Mof_H 	H 	0.9896	0.0634	0.4274	-0.002
Mof_H 	H 	0.483	0.3085	0.5256	0.021
Mof_C 	C 	0.537	0.4024	0.466	0.021
Mof_C 	C 	0.613	0.3559	0.346	-0.179
Mof_O 	O 	0.6275	0.2151	0.3201	-0.225
Mof_N 	N 	0.9572	0.0466	0.2179	-0.074
Mof_C 	C 	0.584	0.4197	0.398	0.007
Mof_N 	N 	0.496	0.4633	0.513	-0.082
Mof_H 	H 	0.6421	0.3689	0.2996	0.105
Mof_H 	H 	0.5971	0.475	0.3865	0.038
Mof_Nd	Nd	0.4268	0.95828	0.09229	2.54
Mof_O 	O 	0.4141	0.9895	0.2643	-0.774
Mof_O 	O 	0.2839	0.0095	0.0707	-0.586
Mof_O 	O 	0.4435	0.1124	0.0922	-0.55
Mof_O 	O 	0.3891	0.9896	0.9076	-0.747
Mof_O 	O 	0.4996	0.8466	0.0279	-0.606
Mof_C 	C 	0.3575	0.0088	0.3094	0.696
Mof_C 	C 	0.2288	0.0256	0.1236	0.446
Mof_C 	C 	0.466	0.1664	0.0434	0.561
Mof_C 	C 	0.2597	0.0183	0.2344	-0.417
Mof_C 	C 	0.1354	0.0425	0.063	-0.31
Mof_C 	C 	0.4491	0.2553	0.0606	-0.23
Mof_C 	C 	0.1971	0.0279	0.2845	0.151
Mof_H 	H 	0.1148	0.0473	0.9889	0.142
Mof_C 	C 	0.0729	0.0521	0.1131	0.098
Mof_C 	C 	0.4824	0.32	0.0158	0.051
Mof_C 	C 	0.4031	0.2713	0.134	0.256
Mof_C 	C 	0.1038	0.0448	0.2239	-0.056
Mof_H 	H 	0.2178	0.023	0.3586	-0.042
Mof_H 	H 	0.0104	0.0634	0.0726	0.005
Mof_H 	H 	0.517	0.3085	0.9744	0.015
Mof_C 	C 	0.463	0.4024	0.034	0.017
Mof_C 	C 	0.387	0.3559	0.154	-0.181
Mof_O 	O 	0.3725	0.2151	0.1799	-0.225
Mof_N 	N 	0.0428	0.0466	0.2821	-0.078
Mof_C 	C 	0.416	0.4197	0.102	0.009
Mof_N 	N 	0.504	0.4633	0.987	-0.082
Mof_H 	H 	0.3579	0.3689	0.2004	0.106
Mof_H 	H 	0.4029	0.475	0.1135	0.037
Mof_O 	O 	0.5	0.1532	0.75	-0.506
Mof_O 	O 	0.5	0.8468	0.25	-0.506
_end
