data_functionalizedCrystal
_audit_creation_method	'EQeq! by Chris Wilmer'
_symmetry_space_group_name_H-M	'P1'
_symmetry_Int_Tables_number	1
_symmetry_cell_setting	triclinic
loop_
_symmetry_equiv_pos_as_xyz
  x,y,z
_cell_length_a	8.861
_cell_length_b	18.624
_cell_length_c	9.329
_cell_angle_alpha	90
_cell_angle_beta	118.27
_cell_angle_gamma	90
loop_
_atom_site_label
_atom_site_type_symbol
_atom_site_fract_x
_atom_site_fract_y
_atom_site_fract_z
_atom_site_charge
Mof_Ga	Ga	0.4946	0.2201	0.8554	4.671
Mof_Ga	Ga	0.3997	0.4419	0.8771	4.21
Mof_Ga	Ga	0.9872	0.1794	0.8161	4.498
Mof_P 	P 	0.2199	0.0987	0.6996	1.065
Mof_P 	P 	0.239	0.3065	0.9523	1.186
Mof_P 	P 	0.8809	0.1628	0.0956	1.241
Mof_F 	F 	0.575	0.5137	0.9141	-1.389
Mof_O 	O 	0.7039	0.1979	0.0202	-1.487
Mof_O 	O 	0.155	0.1232	0.8192	-1.346
Mof_O 	O 	0.2244	0.378	0.8678	-1.094
Mof_O 	O 	0.2844	0.3199	0.1307	-1.368
Mof_O 	O 	0.8853	0.0933	0.1811	-1.129
Mof_O 	O 	0.2649	0.018	0.7244	-0.973
Mof_O 	O 	0.3907	0.1386	0.7461	-1.32
Mof_O 	O 	0.0908	0.118	0.525	-1.136
Mof_O 	O 	0.0104	0.2175	0.2137	-1.379
Mof_O 	O 	0.0621	0.2714	0.8674	-1.316
Mof_O 	O 	0.9327	0.1435	0.9654	-1.338
Mof_O 	O 	0.3747	0.2563	0.952	-1.524
Mof_Ga	Ga	0.0054	0.7201	0.6446	4.563
Mof_Ga	Ga	0.1003	0.9419	0.6229	4.143
Mof_Ga	Ga	0.5128	0.6794	0.6839	4.626
Mof_P 	P 	0.2801	0.5987	0.8004	1.069
Mof_P 	P 	0.261	0.8065	0.5477	1.181
Mof_P 	P 	0.6191	0.6628	0.4044	1.267
Mof_F 	F 	0.925	0.0137	0.5859	-1.38
Mof_O 	O 	0.7961	0.6979	0.4798	-1.457
Mof_O 	O 	0.345	0.6232	0.6808	-1.387
Mof_O 	O 	0.2756	0.878	0.6322	-1.087
Mof_O 	O 	0.2156	0.8199	0.3693	-1.349
Mof_O 	O 	0.6147	0.5933	0.3189	-1.135
Mof_O 	O 	0.2351	0.518	0.7756	-0.994
Mof_O 	O 	0.1093	0.6386	0.7539	-1.306
Mof_O 	O 	0.4092	0.618	0.975	-1.172
Mof_O 	O 	0.4896	0.7175	0.2863	-1.433
Mof_O 	O 	0.4379	0.7714	0.6326	-1.357
Mof_O 	O 	0.5673	0.6435	0.5346	-1.355
Mof_O 	O 	0.1253	0.7563	0.548	-1.509
Mof_Ga	Ga	0.5054	0.7799	0.1446	4.671
Mof_Ga	Ga	0.6003	0.5581	0.1229	4.21
Mof_Ga	Ga	0.0128	0.8206	0.1839	4.498
Mof_P 	P 	0.7801	0.9013	0.3004	1.065
Mof_P 	P 	0.761	0.6935	0.0477	1.186
Mof_P 	P 	0.1191	0.8372	0.9044	1.241
Mof_F 	F 	0.425	0.4863	0.0859	-1.389
Mof_O 	O 	0.2961	0.8021	0.9798	-1.487
Mof_O 	O 	0.845	0.8768	0.1808	-1.346
Mof_O 	O 	0.7756	0.622	0.1322	-1.094
Mof_O 	O 	0.7156	0.6801	0.8693	-1.368
Mof_O 	O 	0.1147	0.9067	0.8189	-1.129
Mof_O 	O 	0.7351	0.982	0.2756	-0.973
Mof_O 	O 	0.6093	0.8614	0.2539	-1.32
Mof_O 	O 	0.9092	0.882	0.475	-1.136
Mof_O 	O 	0.9896	0.7825	0.7863	-1.379
Mof_O 	O 	0.9379	0.7286	0.1326	-1.316
Mof_O 	O 	0.0673	0.8565	0.0346	-1.338
Mof_O 	O 	0.6253	0.7437	0.048	-1.524
Mof_Ga	Ga	0.9946	0.2799	0.3554	4.563
Mof_Ga	Ga	0.8997	0.0581	0.3771	4.143
Mof_Ga	Ga	0.4872	0.3206	0.3161	4.626
Mof_P 	P 	0.7199	0.4013	0.1996	1.069
Mof_P 	P 	0.739	0.1935	0.4523	1.181
Mof_P 	P 	0.3809	0.3372	0.5956	1.267
Mof_F 	F 	0.075	0.9863	0.4141	-1.38
Mof_O 	O 	0.2039	0.3021	0.5202	-1.457
Mof_O 	O 	0.655	0.3768	0.3192	-1.387
Mof_O 	O 	0.7244	0.122	0.3678	-1.087
Mof_O 	O 	0.7844	0.1801	0.6307	-1.349
Mof_O 	O 	0.3853	0.4067	0.6811	-1.135
Mof_O 	O 	0.7649	0.482	0.2244	-0.994
Mof_O 	O 	0.8907	0.3614	0.2461	-1.306
Mof_O 	O 	0.5908	0.382	0.025	-1.172
Mof_O 	O 	0.5104	0.2825	0.7137	-1.433
Mof_O 	O 	0.5621	0.2286	0.3674	-1.357
Mof_O 	O 	0.4327	0.3565	0.4654	-1.355
Mof_O 	O 	0.8747	0.2437	0.452	-1.509
_end
