data_functionalizedCrystal
_audit_creation_method	'EQeq! by Chris Wilmer'
_symmetry_space_group_name_H-M	'P1'
_symmetry_Int_Tables_number	1
_symmetry_cell_setting	triclinic
loop_
_symmetry_equiv_pos_as_xyz
  x,y,z
_cell_length_a	9.5261
_cell_length_b	22.4729
_cell_length_c	10.1216
_cell_angle_alpha	90
_cell_angle_beta	102.263
_cell_angle_gamma	90
loop_
_atom_site_label
_atom_site_type_symbol
_atom_site_fract_x
_atom_site_fract_y
_atom_site_fract_z
_atom_site_charge
Mof_Gd	Gd	0.71895	0.43454	0.85846	1.722
Mof_Gd	Gd	0.24923	0.27679	0.04843	1.578
Mof_N 	N 	0.5991	0.4148	0.6239	-0.219
Mof_N 	N 	0.5334	0.41373	0.4039	-0.199
Mof_H 	H 	0.49162	0.41047	0.31994	0.159
Mof_N 	N 	0.7745	0.5073	0.6454	-0.187
Mof_O 	O 	0.0656	0.33787	0.1102	-0.387
Mof_O 	O 	0.0317	0.2874	0.8672	-0.378
Mof_O 	O 	0.8313	0.34137	0.7957	-0.36
Mof_O 	O 	0.8494	0.38033	0.0494	-0.369
Mof_O 	O 	0.5229	0.36023	0.8197	-0.418
Mof_O 	O 	0.3797	0.29574	0.692	-0.474
Mof_O 	O 	0.277	0.29424	0.391	-0.49
Mof_O 	O 	0.3675	0.33745	0.2298	-0.449
Mof_O 	O 	0.6009	0.43641	0.0505	-0.359
Mof_O 	O 	0.4688	0.49088	0.1632	-0.39
Mof_O 	O 	0.9768	0.44861	0.8688	-0.393
Mof_O 	O 	0.1782	0.48116	0.0032	-0.389
Mof_C 	C 	0.4553	0.36923	0.4492	-0.049
Mof_C 	C 	0.4988	0.37095	0.5884	-0.041
Mof_C 	C 	0.6174	0.43997	0.5109	0.129
Mof_C 	C 	0.7219	0.48852	0.5169	0.05
Mof_C 	C 	0.7616	0.5129	0.4048	-0.116
Mof_H 	H 	0.72376	0.49845	0.31851	0.092
Mof_C 	C 	0.8603	0.5598	0.4249	0.047
Mof_H 	H 	0.89043	0.57724	0.35241	0.019
Mof_C 	C 	0.9114	0.5794	0.5549	-0.137
Mof_H 	H 	0.97565	0.61108	0.57093	0.083
Mof_C 	C 	0.8681	0.5524	0.661	0.098
Mof_H 	H 	0.90559	0.56613	0.748	0.011
Mof_C 	C 	0.3585	0.33058	0.3506	0.409
Mof_C 	C 	0.4628	0.33865	0.7054	0.388
Mof_C 	C 	0.5198	0.47909	0.0618	0.257
Mof_C 	C 	0.0446	0.47944	0.9623	0.267
Mof_C 	C 	0.9523	0.34939	0.0273	0.255
Mof_C 	C 	0.9359	0.32359	0.8839	0.237
Mof_Gd	Gd	0.28105	0.93454	0.64154	1.72
Mof_Gd	Gd	0.75077	0.77679	0.45157	1.584
Mof_N 	N 	0.4009	0.9148	0.8761	-0.219
Mof_N 	N 	0.4666	0.91373	0.0961	-0.198
Mof_H 	H 	0.50838	0.91047	0.18006	0.159
Mof_N 	N 	0.2255	0.0073	0.8546	-0.183
Mof_O 	O 	0.9344	0.83787	0.3898	-0.383
Mof_O 	O 	0.9683	0.7874	0.6328	-0.382
Mof_O 	O 	0.1687	0.84137	0.7043	-0.361
Mof_O 	O 	0.1506	0.88033	0.4506	-0.368
Mof_O 	O 	0.4771	0.86023	0.6803	-0.419
Mof_O 	O 	0.6203	0.79574	0.808	-0.474
Mof_O 	O 	0.723	0.79424	0.109	-0.488
Mof_O 	O 	0.6325	0.83745	0.2702	-0.449
Mof_O 	O 	0.3991	0.93641	0.4495	-0.359
Mof_O 	O 	0.5312	0.99088	0.3368	-0.389
Mof_O 	O 	0.0232	0.94861	0.6312	-0.392
Mof_O 	O 	0.8218	0.98116	0.4968	-0.387
Mof_C 	C 	0.5447	0.86923	0.0508	-0.045
Mof_C 	C 	0.5012	0.87095	0.9116	-0.044
Mof_C 	C 	0.3826	0.93997	0.9891	0.128
Mof_C 	C 	0.2781	0.98852	0.9831	0.046
Mof_C 	C 	0.2384	0.0129	0.0952	-0.112
Mof_H 	H 	0.27624	0.99845	0.18149	0.091
Mof_C 	C 	0.1397	0.0598	0.0751	0.035
Mof_H 	H 	0.10957	0.07724	0.14759	0.022
Mof_C 	C 	0.0886	0.0794	0.9451	-0.123
Mof_H 	H 	0.02435	0.11108	0.92907	0.081
Mof_C 	C 	0.1319	0.0524	0.839	0.092
Mof_H 	H 	0.09441	0.06613	0.752	0.013
Mof_C 	C 	0.6415	0.83058	0.1494	0.407
Mof_C 	C 	0.5372	0.83865	0.7946	0.389
Mof_C 	C 	0.4802	0.97909	0.4382	0.256
Mof_C 	C 	0.9554	0.97944	0.5377	0.263
Mof_C 	C 	0.0477	0.84939	0.4727	0.25
Mof_C 	C 	0.0641	0.82359	0.6161	0.241
Mof_Gd	Gd	0.28105	0.56546	0.14154	1.723
Mof_Gd	Gd	0.75077	0.72321	0.95157	1.579
Mof_N 	N 	0.4009	0.5852	0.3761	-0.219
Mof_N 	N 	0.4666	0.58627	0.5961	-0.199
Mof_H 	H 	0.50838	0.58953	0.68006	0.159
Mof_N 	N 	0.2255	0.4927	0.3546	-0.187
Mof_O 	O 	0.9344	0.66213	0.8898	-0.387
Mof_O 	O 	0.9683	0.7126	0.1328	-0.378
Mof_O 	O 	0.1687	0.65863	0.2043	-0.36
Mof_O 	O 	0.1506	0.61967	0.9506	-0.369
Mof_O 	O 	0.4771	0.63977	0.1803	-0.418
Mof_O 	O 	0.6203	0.70426	0.308	-0.474
Mof_O 	O 	0.723	0.70576	0.609	-0.49
Mof_O 	O 	0.6325	0.66255	0.7702	-0.449
Mof_O 	O 	0.3991	0.56359	0.9495	-0.359
Mof_O 	O 	0.5312	0.50912	0.8368	-0.39
Mof_O 	O 	0.0232	0.55139	0.1312	-0.393
Mof_O 	O 	0.8218	0.51884	0.9968	-0.389
Mof_C 	C 	0.5447	0.63077	0.5508	-0.049
Mof_C 	C 	0.5012	0.62905	0.4116	-0.041
Mof_C 	C 	0.3826	0.56003	0.4891	0.129
Mof_C 	C 	0.2781	0.51148	0.4831	0.05
Mof_C 	C 	0.2384	0.4871	0.5952	-0.116
Mof_H 	H 	0.27624	0.50155	0.68149	0.092
Mof_C 	C 	0.1397	0.4402	0.5751	0.047
Mof_H 	H 	0.10957	0.42276	0.64759	0.019
Mof_C 	C 	0.0886	0.4206	0.4451	-0.137
Mof_H 	H 	0.02435	0.38892	0.42907	0.083
Mof_C 	C 	0.1319	0.4476	0.339	0.098
Mof_H 	H 	0.09441	0.43387	0.252	0.011
Mof_C 	C 	0.6415	0.66942	0.6494	0.409
Mof_C 	C 	0.5372	0.66135	0.2946	0.388
Mof_C 	C 	0.4802	0.52091	0.9382	0.257
Mof_C 	C 	0.9554	0.52056	0.0377	0.267
Mof_C 	C 	0.0477	0.65061	0.9727	0.255
Mof_C 	C 	0.0641	0.67641	0.1161	0.237
Mof_Gd	Gd	0.71895	0.06546	0.35846	1.72
Mof_Gd	Gd	0.24923	0.22321	0.54843	1.584
Mof_N 	N 	0.5991	0.0852	0.1239	-0.219
Mof_N 	N 	0.5334	0.08627	0.9039	-0.198
Mof_H 	H 	0.49162	0.08953	0.81994	0.159
Mof_N 	N 	0.7745	0.9927	0.1454	-0.183
Mof_O 	O 	0.0656	0.16213	0.6102	-0.383
Mof_O 	O 	0.0317	0.2126	0.3672	-0.382
Mof_O 	O 	0.8313	0.15863	0.2957	-0.361
Mof_O 	O 	0.8494	0.11967	0.5494	-0.368
Mof_O 	O 	0.5229	0.13977	0.3197	-0.419
Mof_O 	O 	0.3797	0.20426	0.192	-0.474
Mof_O 	O 	0.277	0.20576	0.891	-0.488
Mof_O 	O 	0.3675	0.16255	0.7298	-0.449
Mof_O 	O 	0.6009	0.06359	0.5505	-0.359
Mof_O 	O 	0.4688	0.00912	0.6632	-0.389
Mof_O 	O 	0.9768	0.05139	0.3688	-0.392
Mof_O 	O 	0.1782	0.01884	0.5032	-0.387
Mof_C 	C 	0.4553	0.13077	0.9492	-0.045
Mof_C 	C 	0.4988	0.12905	0.0884	-0.044
Mof_C 	C 	0.6174	0.06003	0.0109	0.128
Mof_C 	C 	0.7219	0.01148	0.0169	0.046
Mof_C 	C 	0.7616	0.9871	0.9048	-0.112
Mof_H 	H 	0.72376	0.00155	0.81851	0.091
Mof_C 	C 	0.8603	0.9402	0.9249	0.035
Mof_H 	H 	0.89043	0.92276	0.85241	0.022
Mof_C 	C 	0.9114	0.9206	0.0549	-0.123
Mof_H 	H 	0.97565	0.88892	0.07093	0.081
Mof_C 	C 	0.8681	0.9476	0.161	0.092
Mof_H 	H 	0.90559	0.93387	0.248	0.013
Mof_C 	C 	0.3585	0.16942	0.8506	0.407
Mof_C 	C 	0.4628	0.16135	0.2054	0.389
Mof_C 	C 	0.5198	0.02091	0.5618	0.256
Mof_C 	C 	0.0446	0.02056	0.4623	0.263
Mof_C 	C 	0.9523	0.15061	0.5273	0.25
Mof_C 	C 	0.9359	0.17641	0.3839	0.241
_end
