data_functionalizedCrystal
_audit_creation_method	'EQeq! by Chris Wilmer'
_symmetry_space_group_name_H-M	'P1'
_symmetry_Int_Tables_number	1
_symmetry_cell_setting	triclinic
loop_
_symmetry_equiv_pos_as_xyz
  x,y,z
_cell_length_a	9.8051
_cell_length_b	19.5696
_cell_length_c	17.339
_cell_angle_alpha	90
_cell_angle_beta	92.015
_cell_angle_gamma	90
loop_
_atom_site_label
_atom_site_type_symbol
_atom_site_fract_x
_atom_site_fract_y
_atom_site_fract_z
_atom_site_charge
Mof_U 	U 	0.71422	0.25837	0.01197	0.014
Mof_U 	U 	0.2922	0.23707	0.96406	0.014
Mof_U 	U 	0.25287	0.36571	0.24235	0.02
Mof_P 	P 	0.5085	0.35769	0.08687	0.381
Mof_O 	O 	0.66	0.3464	0.1067	-0.162
Mof_O 	O 	0.471	0.3004	0.0291	-0.149
Mof_O 	O 	0.421	0.3584	0.1566	-0.16
Mof_C 	C 	0.4943	0.4374	0.0371	-0.026
Mof_C 	C 	0.5095	0.44	0.9575	-0.031
Mof_H 	H 	0.5175	0.399	0.9287	0.079
Mof_P 	P 	0.4952	0.13306	0.89535	0.378
Mof_O 	O 	0.536	0.1947	0.9467	-0.147
Mof_O 	O 	0.3446	0.1453	0.8733	-0.16
Mof_O 	O 	0.5852	0.1217	0.827	-0.161
Mof_C 	C 	0.5053	0.0588	0.9549	-0.026
Mof_C 	C 	0.4872	0.4985	0.0783	-0.027
Mof_H 	H 	0.48	0.497	0.1328	0.073
Mof_C 	C 	0.4984	0.0634	0.0364	-0.03
Mof_H 	H 	0.4965	0.1069	0.0606	0.081
Mof_C 	C 	0.5054	0.9945	0.9199	-0.027
Mof_H 	H 	0.5082	0.9911	0.8654	0.072
Mof_P 	P 	0.9617	0.14567	0.91634	0.385
Mof_O 	O 	0.0886	0.1895	0.9203	-0.152
Mof_O 	O 	0.9263	0.1246	0.8323	-0.154
Mof_O 	O 	0.8412	0.1805	0.9514	-0.162
Mof_C 	C 	0.9866	0.066	0.9677	-0.013
Mof_C 	C 	0.1117	0.0318	0.9697	-0.024
Mof_H 	H 	0.1886	0.0528	0.9477	0.073
Mof_C 	C 	0.8741	0.033	0.9964	-0.022
Mof_H 	H 	0.787	0.0543	0.9931	0.068
Mof_P 	P 	0.0458	0.34712	0.06297	0.387
Mof_O 	O 	0.0892	0.3564	0.1478	-0.154
Mof_O 	O 	0.9191	0.3038	0.0555	-0.155
Mof_O 	O 	0.1629	0.3175	0.0196	-0.164
Mof_C 	C 	0.0145	0.4323	0.0257	-0.014
Mof_C 	C 	0.1266	0.4698	0.9994	-0.021
Mof_H 	H 	0.2138	0.4488	0.998	0.068
Mof_C 	C 	0.8893	0.4625	0.0246	-0.024
Mof_H 	H 	0.8122	0.4373	0.0403	0.075
Mof_U 	U 	0.78578	0.75837	0.48803	0.012
Mof_U 	U 	0.2078	0.73707	0.53594	0.013
Mof_U 	U 	0.24713	0.86571	0.25765	0.019
Mof_P 	P 	0.9915	0.85769	0.41313	0.38
Mof_O 	O 	0.84	0.8464	0.3933	-0.163
Mof_O 	O 	0.029	0.8004	0.4709	-0.149
Mof_O 	O 	0.079	0.8584	0.3434	-0.159
Mof_C 	C 	0.0057	0.9374	0.4629	-0.025
Mof_C 	C 	0.9905	0.94	0.5425	-0.032
Mof_H 	H 	0.9825	0.899	0.5713	0.08
Mof_P 	P 	0.0048	0.63306	0.60465	0.378
Mof_O 	O 	0.964	0.6947	0.5533	-0.147
Mof_O 	O 	0.1554	0.6453	0.6267	-0.16
Mof_O 	O 	0.9148	0.6217	0.673	-0.162
Mof_C 	C 	0.9947	0.5588	0.5451	-0.026
Mof_C 	C 	0.0128	0.9985	0.4217	-0.026
Mof_H 	H 	0.02	0.997	0.3672	0.073
Mof_C 	C 	0.0016	0.5634	0.4636	-0.03
Mof_H 	H 	0.0035	0.6069	0.4394	0.081
Mof_C 	C 	0.9946	0.4945	0.5801	-0.028
Mof_H 	H 	0.9918	0.4911	0.6346	0.072
Mof_P 	P 	0.5383	0.64567	0.58366	0.385
Mof_O 	O 	0.4114	0.6895	0.5797	-0.152
Mof_O 	O 	0.5737	0.6246	0.6677	-0.154
Mof_O 	O 	0.6588	0.6805	0.5486	-0.162
Mof_C 	C 	0.5134	0.566	0.5323	-0.013
Mof_C 	C 	0.3883	0.5318	0.5303	-0.024
Mof_H 	H 	0.3114	0.5528	0.5523	0.073
Mof_C 	C 	0.6259	0.533	0.5036	-0.022
Mof_H 	H 	0.713	0.5543	0.5069	0.068
Mof_P 	P 	0.4542	0.84712	0.43703	0.388
Mof_O 	O 	0.4108	0.8564	0.3522	-0.154
Mof_O 	O 	0.5809	0.8038	0.4445	-0.155
Mof_O 	O 	0.3371	0.8175	0.4804	-0.164
Mof_C 	C 	0.4855	0.9323	0.4743	-0.013
Mof_C 	C 	0.3734	0.9698	0.5006	-0.021
Mof_H 	H 	0.2862	0.9488	0.502	0.068
Mof_C 	C 	0.6107	0.9625	0.4754	-0.025
Mof_H 	H 	0.6878	0.9373	0.4597	0.075
Mof_U 	U 	0.28578	0.74163	0.98803	0.013
Mof_U 	U 	0.7078	0.76293	0.03594	0.013
Mof_U 	U 	0.74713	0.63429	0.75765	0.019
Mof_P 	P 	0.4915	0.64231	0.91313	0.38
Mof_O 	O 	0.34	0.6536	0.8933	-0.162
Mof_O 	O 	0.529	0.6996	0.9709	-0.149
Mof_O 	O 	0.579	0.6416	0.8434	-0.16
Mof_C 	C 	0.5057	0.5626	0.9629	-0.026
Mof_C 	C 	0.4905	0.56	0.0425	-0.031
Mof_H 	H 	0.4825	0.601	0.0713	0.079
Mof_P 	P 	0.5048	0.86694	0.10465	0.378
Mof_O 	O 	0.464	0.8053	0.0533	-0.147
Mof_O 	O 	0.6554	0.8547	0.1267	-0.16
Mof_O 	O 	0.4148	0.8783	0.173	-0.161
Mof_C 	C 	0.4947	0.9412	0.0451	-0.026
Mof_C 	C 	0.5128	0.5015	0.9217	-0.027
Mof_H 	H 	0.52	0.503	0.8672	0.073
Mof_C 	C 	0.5016	0.9366	0.9636	-0.03
Mof_H 	H 	0.5035	0.8931	0.9394	0.081
Mof_C 	C 	0.4946	0.0055	0.0801	-0.027
Mof_H 	H 	0.4918	0.0089	0.1346	0.072
Mof_P 	P 	0.0383	0.85433	0.08366	0.385
Mof_O 	O 	0.9114	0.8105	0.0797	-0.152
Mof_O 	O 	0.0737	0.8754	0.1677	-0.154
Mof_O 	O 	0.1588	0.8195	0.0486	-0.162
Mof_C 	C 	0.0134	0.934	0.0323	-0.013
Mof_C 	C 	0.8883	0.9682	0.0303	-0.024
Mof_H 	H 	0.8114	0.9472	0.0523	0.073
Mof_C 	C 	0.1259	0.967	0.0036	-0.022
Mof_H 	H 	0.213	0.9457	0.0069	0.068
Mof_P 	P 	0.9542	0.65288	0.93703	0.387
Mof_O 	O 	0.9108	0.6436	0.8522	-0.154
Mof_O 	O 	0.0809	0.6962	0.9445	-0.155
Mof_O 	O 	0.8371	0.6825	0.9804	-0.164
Mof_C 	C 	0.9855	0.5677	0.9743	-0.014
Mof_C 	C 	0.8734	0.5302	0.0006	-0.021
Mof_H 	H 	0.7862	0.5512	0.002	0.068
Mof_C 	C 	0.1107	0.5375	0.9754	-0.024
Mof_H 	H 	0.1878	0.5627	0.9597	0.075
Mof_U 	U 	0.21422	0.24163	0.51197	0.012
Mof_U 	U 	0.7922	0.26293	0.46406	0.013
Mof_U 	U 	0.75287	0.13429	0.74235	0.019
Mof_P 	P 	0.0085	0.14231	0.58687	0.38
Mof_O 	O 	0.16	0.1536	0.6067	-0.163
Mof_O 	O 	0.971	0.1996	0.5291	-0.149
Mof_O 	O 	0.921	0.1416	0.6566	-0.159
Mof_C 	C 	0.9943	0.0626	0.5371	-0.025
Mof_C 	C 	0.0095	0.06	0.4575	-0.032
Mof_H 	H 	0.0175	0.101	0.4287	0.08
Mof_P 	P 	0.9952	0.36694	0.39535	0.378
Mof_O 	O 	0.036	0.3053	0.4467	-0.147
Mof_O 	O 	0.8446	0.3547	0.3733	-0.16
Mof_O 	O 	0.0852	0.3783	0.327	-0.162
Mof_C 	C 	0.0053	0.4412	0.4549	-0.026
Mof_C 	C 	0.9872	0.0015	0.5783	-0.026
Mof_H 	H 	0.98	0.003	0.6328	0.073
Mof_C 	C 	0.9984	0.4366	0.5364	-0.03
Mof_H 	H 	0.9965	0.3931	0.5606	0.081
Mof_C 	C 	0.0054	0.5055	0.4199	-0.028
Mof_H 	H 	0.0082	0.5089	0.3654	0.072
Mof_P 	P 	0.4617	0.35433	0.41634	0.385
Mof_O 	O 	0.5886	0.3105	0.4203	-0.152
Mof_O 	O 	0.4263	0.3754	0.3323	-0.154
Mof_O 	O 	0.3412	0.3195	0.4514	-0.162
Mof_C 	C 	0.4866	0.434	0.4677	-0.013
Mof_C 	C 	0.6117	0.4682	0.4697	-0.024
Mof_H 	H 	0.6886	0.4472	0.4477	0.073
Mof_C 	C 	0.3741	0.467	0.4964	-0.022
Mof_H 	H 	0.287	0.4457	0.4931	0.068
Mof_P 	P 	0.5458	0.15288	0.56297	0.388
Mof_O 	O 	0.5892	0.1436	0.6478	-0.154
Mof_O 	O 	0.4191	0.1962	0.5555	-0.155
Mof_O 	O 	0.6629	0.1825	0.5196	-0.164
Mof_C 	C 	0.5145	0.0677	0.5257	-0.013
Mof_C 	C 	0.6266	0.0302	0.4994	-0.021
Mof_H 	H 	0.7138	0.0512	0.498	0.068
Mof_C 	C 	0.3893	0.0375	0.5246	-0.025
Mof_H 	H 	0.3122	0.0627	0.5403	0.075
_end
