data_functionalizedCrystal
_audit_creation_method	'EQeq! by Chris Wilmer'
_symmetry_space_group_name_H-M	'P1'
_symmetry_Int_Tables_number	1
_symmetry_cell_setting	triclinic
loop_
_symmetry_equiv_pos_as_xyz
  x,y,z
_cell_length_a	10.4852
_cell_length_b	11.1525
_cell_length_c	14.2502
_cell_angle_alpha	111.516
_cell_angle_beta	107.291
_cell_angle_gamma	91.523
loop_
_atom_site_label
_atom_site_type_symbol
_atom_site_fract_x
_atom_site_fract_y
_atom_site_fract_z
_atom_site_charge
Mof_Yb	Yb	0.68736	0.47761	0.07777	1.875
Mof_Yb	Yb	0.77627	0.62757	0.38825	1.664
Mof_O 	O 	0.6829	0.3213	0.1444	-0.493
Mof_O 	O 	0.7825	0.4089	0.3214	-0.525
Mof_O 	O 	0.7801	0.7795	0.3194	-0.481
Mof_O 	O 	0.696	0.6996	0.1416	-0.487
Mof_O 	O 	0.6057	0.2922	0.9217	-0.426
Mof_O 	O 	0.8247	0.3352	0.9925	-0.414
Mof_O 	O 	0.8672	0.8208	0.5414	-0.422
Mof_O 	O 	0.6485	0.7851	0.4661	-0.422
Mof_O 	O 	0.4623	0.4692	0.0727	-0.562
Mof_O 	O 	0.5867	0.5544	0.2415	-0.559
Mof_O 	O 	0.9988	0.638	0.3877	-0.487
Mof_O 	O 	0.8783	0.5494	0.2173	-0.557
Mof_N 	N 	0.8454	0.0357	0.4309	-0.309
Mof_H 	H 	0.8744	0.1073	0.4867	0.151
Mof_H 	H 	0.85	0.9621	0.4374	0.178
Mof_N 	N 	0.842	0.2678	0.424	-0.308
Mof_H 	H 	0.8377	0.3458	0.4266	0.153
Mof_H 	H 	0.8803	0.2554	0.4814	0.143
Mof_N 	N 	0.4907	0.9176	0.5712	-0.315
Mof_H 	H 	0.4168	0.9347	0.5843	0.154
Mof_H 	H 	0.4887	0.8545	0.5133	0.168
Mof_N 	N 	0.9807	0.192	0.8848	-0.315
Mof_H 	H 	0.0523	0.1618	0.8746	0.148
Mof_H 	H 	0.9862	0.2539	0.9443	0.17
Mof_N 	N 	0.1987	0.4111	0.0146	-0.272
Mof_H 	H 	0.2666	0.402	0.9918	0.022
Mof_H 	H 	0.1182	0.3793	0.9705	0.111
Mof_N 	N 	0.265	0.698	0.4451	-0.312
Mof_H 	H 	0.3457	0.729	0.4893	0.135
Mof_H 	H 	0.1969	0.7127	0.4673	0.149
Mof_C 	C 	0.7295	0.3132	0.233	0.476
Mof_C 	C 	0.7257	0.1783	0.2339	-0.163
Mof_C 	C 	0.6595	0.0695	0.1409	0.004
Mof_H 	H 	0.6123	0.0795	0.0784	0.041
Mof_C 	C 	0.6646	0.9466	0.1424	-0.001
Mof_H 	H 	0.6226	0.8743	0.0794	0.049
Mof_C 	C 	0.7308	0.9274	0.2351	-0.161
Mof_C 	C 	0.7914	0.0389	0.331	0.095
Mof_C 	C 	0.7878	0.1626	0.3278	0.098
Mof_C 	C 	0.7353	0.7927	0.2315	0.47
Mof_C 	C 	0.7191	0.2689	0.9158	0.335
Mof_C 	C 	0.7318	0.1654	0.8179	-0.103
Mof_C 	C 	0.6135	0.0938	0.7367	-0.08
Mof_H 	H 	0.5307	0.1139	0.7443	0.078
Mof_C 	C 	0.6157	0.9935	0.6449	0.13
Mof_C 	C 	0.7412	0.9652	0.6337	-0.102
Mof_C 	C 	0.8591	0.0419	0.7138	-0.093
Mof_H 	H 	0.9423	0.0258	0.7049	0.079
Mof_C 	C 	0.8559	0.1401	0.805	0.146
Mof_C 	C 	0.753	0.8518	0.542	0.321
Mof_C 	C 	0.4719	0.5183	0.1709	0.471
Mof_C 	C 	0.3475	0.5328	0.2014	-0.162
Mof_C 	C 	0.2197	0.4783	0.1248	0.113
Mof_C 	C 	0.1053	0.5017	0.1569	-0.044
Mof_H 	H 	0.0196	0.4687	0.1063	0.047
Mof_C 	C 	0.1178	0.5723	0.2614	-0.159
Mof_C 	C 	0.2449	0.6252	0.3383	0.131
Mof_C 	C 	0.358	0.6043	0.3063	-0.058
Mof_H 	H 	0.4433	0.6395	0.357	0.04
Mof_C 	C 	0.9917	0.5887	0.2911	0.448
Mof_Yb	Yb	0.31264	0.52239	0.92223	1.874
Mof_Yb	Yb	0.22373	0.37243	0.61175	1.663
Mof_O 	O 	0.3171	0.6787	0.8556	-0.493
Mof_O 	O 	0.2175	0.5911	0.6786	-0.525
Mof_O 	O 	0.2199	0.2205	0.6806	-0.481
Mof_O 	O 	0.304	0.3004	0.8584	-0.487
Mof_O 	O 	0.3943	0.7078	0.0783	-0.426
Mof_O 	O 	0.1753	0.6648	0.0075	-0.414
Mof_O 	O 	0.1328	0.1792	0.4586	-0.422
Mof_O 	O 	0.3515	0.2149	0.5339	-0.422
Mof_O 	O 	0.5377	0.5308	0.9273	-0.562
Mof_O 	O 	0.4133	0.4456	0.7585	-0.559
Mof_O 	O 	0.0012	0.362	0.6123	-0.487
Mof_O 	O 	0.1217	0.4506	0.7827	-0.557
Mof_N 	N 	0.1546	0.9643	0.5691	-0.309
Mof_H 	H 	0.1256	0.8927	0.5133	0.151
Mof_H 	H 	0.15	0.0379	0.5626	0.178
Mof_N 	N 	0.158	0.7322	0.576	-0.308
Mof_H 	H 	0.1623	0.6542	0.5734	0.153
Mof_H 	H 	0.1197	0.7446	0.5186	0.143
Mof_N 	N 	0.5093	0.0824	0.4288	-0.315
Mof_H 	H 	0.5832	0.0653	0.4157	0.154
Mof_H 	H 	0.5113	0.1455	0.4867	0.168
Mof_N 	N 	0.0193	0.808	0.1152	-0.315
Mof_H 	H 	0.9477	0.8382	0.1254	0.148
Mof_H 	H 	0.0138	0.7461	0.0557	0.17
Mof_N 	N 	0.8013	0.5889	0.9854	-0.272
Mof_H 	H 	0.7334	0.598	0.0082	0.022
Mof_H 	H 	0.8818	0.6207	0.0295	0.111
Mof_N 	N 	0.735	0.302	0.5549	-0.312
Mof_H 	H 	0.6543	0.271	0.5107	0.135
Mof_H 	H 	0.8031	0.2873	0.5327	0.149
Mof_C 	C 	0.2705	0.6868	0.767	0.476
Mof_C 	C 	0.2743	0.8217	0.7661	-0.163
Mof_C 	C 	0.3405	0.9305	0.8591	0.004
Mof_H 	H 	0.3877	0.9205	0.9216	0.041
Mof_C 	C 	0.3354	0.0534	0.8576	-0.001
Mof_H 	H 	0.3774	0.1257	0.9206	0.049
Mof_C 	C 	0.2692	0.0726	0.7649	-0.161
Mof_C 	C 	0.2086	0.9611	0.669	0.095
Mof_C 	C 	0.2122	0.8374	0.6722	0.098
Mof_C 	C 	0.2647	0.2073	0.7685	0.47
Mof_C 	C 	0.2809	0.7311	0.0842	0.335
Mof_C 	C 	0.2682	0.8346	0.1821	-0.103
Mof_C 	C 	0.3865	0.9062	0.2633	-0.08
Mof_H 	H 	0.4693	0.8861	0.2557	0.078
Mof_C 	C 	0.3843	0.0065	0.3551	0.13
Mof_C 	C 	0.2588	0.0348	0.3663	-0.102
Mof_C 	C 	0.1409	0.9581	0.2862	-0.093
Mof_H 	H 	0.0577	0.9742	0.2951	0.079
Mof_C 	C 	0.1441	0.8599	0.195	0.146
Mof_C 	C 	0.247	0.1482	0.458	0.321
Mof_C 	C 	0.5281	0.4817	0.8291	0.471
Mof_C 	C 	0.6525	0.4672	0.7986	-0.162
Mof_C 	C 	0.7803	0.5217	0.8752	0.113
Mof_C 	C 	0.8947	0.4983	0.8431	-0.044
Mof_H 	H 	0.9804	0.5313	0.8937	0.047
Mof_C 	C 	0.8822	0.4277	0.7386	-0.159
Mof_C 	C 	0.7551	0.3748	0.6617	0.131
Mof_C 	C 	0.642	0.3957	0.6937	-0.058
Mof_H 	H 	0.5567	0.3605	0.643	0.04
Mof_C 	C 	0.0083	0.4113	0.7089	0.448
_end
