data_functionalizedCrystal
_audit_creation_method	'EQeq! by Chris Wilmer'
_symmetry_space_group_name_H-M	'P1'
_symmetry_Int_Tables_number	1
_symmetry_cell_setting	triclinic
loop_
_symmetry_equiv_pos_as_xyz
  x,y,z
_cell_length_a	11.1345
_cell_length_b	11.1659
_cell_length_c	12.6916
_cell_angle_alpha	88.067
_cell_angle_beta	88.907
_cell_angle_gamma	65.226
loop_
_atom_site_label
_atom_site_type_symbol
_atom_site_fract_x
_atom_site_fract_y
_atom_site_fract_z
_atom_site_charge
Mof_Cd	Cd	0.29268	0.76106	0.82459	0.401
Mof_O 	O 	0.0817	0.7631	0.8826	-0.267
Mof_O 	O 	0.2455	0.5716	0.8444	-0.276
Mof_N 	N 	0.2286	0.7985	0.6486	-0.139
Mof_N 	N 	0.1331	0.8194	0.4942	-0.091
Mof_N 	N 	0.3061	0.734	0.1739	-0.089
Mof_N 	N 	0.9341	0.813	0.2115	-0.039
Mof_N 	N 	0.3131	0.4682	0.3007	-0.09
Mof_N 	N 	0.4934	0.3192	0.2289	-0.147
Mof_N 	N 	0.7895	0.0123	0.1623	-0.138
Mof_N 	N 	0.346	0.7259	0.0023	-0.137
Mof_C 	C 	0.1585	0.756	0.5897	0.073
Mof_H 	H 	0.1305	0.6913	0.6109	0.01
Mof_C 	C 	0.2482	0.8939	0.5881	0.01
Mof_H 	H 	0.2953	0.9407	0.6092	0.027
Mof_C 	C 	0.1889	0.9091	0.494	-0.024
Mof_H 	H 	0.186	0.9682	0.4396	0.039
Mof_C 	C 	0.06	0.797	0.4075	-0.23
Mof_H 	H 	0.0016	0.8819	0.3768	0.116
Mof_H 	H 	0.0053	0.7553	0.4362	0.1
Mof_C 	C 	0.149	0.71	0.3184	0.268
Mof_C 	C 	0.2303	0.5738	0.3714	-0.226
Mof_H 	H 	0.2873	0.5844	0.4237	0.105
Mof_H 	H 	0.1696	0.5452	0.4085	0.093
Mof_C 	C 	0.2732	0.3986	0.2322	-0.024
Mof_H 	H 	0.1867	0.4112	0.2191	0.037
Mof_C 	C 	0.0572	0.695	0.2352	-0.614
Mof_H 	H 	0.107	0.667	0.1701	0.236
Mof_H 	H 	0.033	0.645	0.259	0.321
Mof_C 	C 	0.8105	0.8136	0.2201	-0.049
Mof_H 	H 	0.791	0.7436	0.2429	0.046
Mof_C 	C 	0.2365	0.779	0.2749	-0.214
Mof_H 	H 	0.1807	0.8727	0.2671	0.105
Mof_H 	H 	0.3022	0.7684	0.3277	0.103
Mof_C 	C 	0.2549	0.7722	0.0767	0.074
Mof_H 	H 	0.1661	0.825	0.0636	0.022
Mof_C 	C 	0.4628	0.6562	0.0554	0.012
Mof_H 	H 	0.5451	0.6122	0.0238	0.039
Mof_C 	C 	0.4392	0.6616	0.1605	-0.011
Mof_H 	H 	0.5014	0.6234	0.2135	0.047
Mof_C 	C 	0.9162	0.9352	0.1775	0.057
Mof_H 	H 	0.9843	0.9617	0.1663	0.028
Mof_C 	C 	0.723	0.9354	0.1892	0.022
Mof_H 	H 	0.6318	0.9633	0.1863	0.022
Mof_C 	C 	0.3849	0.308	0.1876	0.016
Mof_H 	H 	0.3878	0.248	0.1374	0.025
Mof_C 	C 	0.4464	0.415	0.297	0.082
Mof_H 	H 	0.4986	0.4424	0.3373	0.006
Mof_C 	C 	0.1344	0.638	0.8849	0.278
Mof_C 	C 	0.0637	0.5657	0.9429	-0.055
Mof_C 	C 	0.9361	0.6348	0.9829	-0.037
Mof_H 	H 	0.8933	0.7257	0.9718	0.057
Mof_C 	C 	0.127	0.4305	0.9612	-0.031
Mof_H 	H 	0.2124	0.3836	0.9357	0.05
Mof_Cd	Cd	0.70732	0.23894	0.17541	0.402
Mof_O 	O 	0.9183	0.2369	0.1174	-0.266
Mof_O 	O 	0.7545	0.4284	0.1556	-0.276
Mof_N 	N 	0.7714	0.2015	0.3514	-0.139
Mof_N 	N 	0.8669	0.1806	0.5058	-0.091
Mof_N 	N 	0.6939	0.266	0.8261	-0.089
Mof_N 	N 	0.0659	0.187	0.7885	-0.039
Mof_N 	N 	0.6869	0.5318	0.6993	-0.09
Mof_N 	N 	0.5066	0.6808	0.7711	-0.147
Mof_N 	N 	0.2105	0.9877	0.8377	-0.138
Mof_N 	N 	0.654	0.2741	0.9977	-0.137
Mof_C 	C 	0.8415	0.244	0.4103	0.073
Mof_H 	H 	0.8695	0.3087	0.3891	0.01
Mof_C 	C 	0.7518	0.1061	0.4119	0.01
Mof_H 	H 	0.7047	0.0593	0.3908	0.027
Mof_C 	C 	0.8111	0.0909	0.506	-0.024
Mof_H 	H 	0.814	0.0318	0.5604	0.039
Mof_C 	C 	0.94	0.203	0.5925	-0.23
Mof_H 	H 	0.9984	0.1181	0.6232	0.116
Mof_H 	H 	0.9947	0.2447	0.5638	0.1
Mof_C 	C 	0.851	0.29	0.6816	0.268
Mof_C 	C 	0.7697	0.4262	0.6286	-0.226
Mof_H 	H 	0.7127	0.4156	0.5763	0.105
Mof_H 	H 	0.8304	0.4548	0.5915	0.093
Mof_C 	C 	0.7268	0.6014	0.7678	-0.024
Mof_H 	H 	0.8133	0.5888	0.7809	0.037
Mof_C 	C 	0.9428	0.305	0.7648	-0.614
Mof_H 	H 	0.893	0.333	0.8299	0.236
Mof_H 	H 	0.967	0.355	0.741	0.321
Mof_C 	C 	0.1895	0.1864	0.7799	-0.049
Mof_H 	H 	0.209	0.2564	0.7571	0.046
Mof_C 	C 	0.7635	0.221	0.7251	-0.214
Mof_H 	H 	0.8193	0.1273	0.7329	0.105
Mof_H 	H 	0.6978	0.2316	0.6723	0.103
Mof_C 	C 	0.7451	0.2278	0.9233	0.074
Mof_H 	H 	0.8339	0.175	0.9364	0.022
Mof_C 	C 	0.5372	0.3438	0.9446	0.012
Mof_H 	H 	0.4549	0.3878	0.9762	0.039
Mof_C 	C 	0.5608	0.3384	0.8395	-0.011
Mof_H 	H 	0.4986	0.3766	0.7865	0.047
Mof_C 	C 	0.0838	0.0648	0.8225	0.057
Mof_H 	H 	0.0157	0.0383	0.8337	0.028
Mof_C 	C 	0.277	0.0646	0.8108	0.022
Mof_H 	H 	0.3682	0.0367	0.8137	0.022
Mof_C 	C 	0.6151	0.692	0.8124	0.016
Mof_H 	H 	0.6122	0.752	0.8626	0.025
Mof_C 	C 	0.5536	0.585	0.703	0.082
Mof_H 	H 	0.5014	0.5576	0.6627	0.006
Mof_C 	C 	0.8656	0.362	0.1151	0.278
Mof_C 	C 	0.9363	0.4343	0.0571	-0.055
Mof_C 	C 	0.0639	0.3652	0.0171	-0.037
Mof_H 	H 	0.1067	0.2743	0.0282	0.057
Mof_C 	C 	0.873	0.5695	0.0388	-0.031
Mof_H 	H 	0.7876	0.6164	0.0643	0.05
_end
