data_functionalizedCrystal
_audit_creation_method	'EQeq! by Chris Wilmer'
_symmetry_space_group_name_H-M	'P1'
_symmetry_Int_Tables_number	1
_symmetry_cell_setting	triclinic
loop_
_symmetry_equiv_pos_as_xyz
  x,y,z
_cell_length_a	10.8123
_cell_length_b	11.1357
_cell_length_c	11.1357
_cell_angle_alpha	103.708
_cell_angle_beta	102.157
_cell_angle_gamma	77.8431
loop_
_atom_site_label
_atom_site_type_symbol
_atom_site_fract_x
_atom_site_fract_y
_atom_site_fract_z
_atom_site_charge
Mof_Co	Co	0.93187	0.07331	0.90183	1.212
Mof_Co	Co	0.56549	0.89997	0.07478	1.218
Mof_Co	Co	0.06553	0.92614	0.10077	1.215
Mof_Co	Co	0.43148	0.09923	0.92732	1.219
Mof_Co	Co	0.74863	0.91513	0.91664	1.239
Mof_Co	Co	0.24814	0.08417	0.08554	1.237
Mof_H 	H 	0.94002	0.53083	0.87271	0.045
Mof_H 	H 	0.03061	0.30761	0.85623	0.037
Mof_H 	H 	0.60267	0.46369	0.97938	0.044
Mof_H 	H 	0.55726	0.87136	0.53251	0.047
Mof_H 	H 	0.46654	0.85485	0.30927	0.026
Mof_H 	H 	0.89461	0.97778	0.46511	0.045
Mof_H 	H 	0.057	0.46853	0.12937	0.053
Mof_H 	H 	0.96646	0.69176	0.14585	0.029
Mof_H 	H 	0.39432	0.53558	0.02256	0.045
Mof_H 	H 	0.43997	0.12787	0.46977	0.048
Mof_H 	H 	0.53059	0.14439	0.69301	0.026
Mof_H 	H 	0.1026	0.02132	0.53705	0.047
Mof_C 	C 	0.88378	0.47036	0.89256	-0.02
Mof_C 	C 	0.93665	0.34038	0.88225	0.015
Mof_C 	C 	0.76549	0.52417	0.93445	-0.06
Mof_C 	C 	0.69591	0.43191	0.95178	0.01
Mof_C 	C 	0.72303	0.67339	0.95749	0.326
Mof_C 	C 	0.74895	0.29717	0.93262	-0.044
Mof_C 	C 	0.68531	0.18798	0.9429	0.331
Mof_C 	C 	0.61347	0.89117	0.47199	-0.024
Mof_C 	C 	0.56051	0.88087	0.34202	0.027
Mof_C 	C 	0.73186	0.93292	0.52573	-0.059
Mof_C 	C 	0.80134	0.95025	0.43341	0.011
Mof_C 	C 	0.77451	0.95582	0.67495	0.332
Mof_C 	C 	0.74819	0.93116	0.2987	-0.046
Mof_C 	C 	0.81179	0.94147	0.1895	0.33
Mof_C 	C 	0.11324	0.52897	0.10945	-0.025
Mof_C 	C 	0.06037	0.65894	0.11972	0.026
Mof_C 	C 	0.23154	0.47512	0.0676	-0.056
Mof_C 	C 	0.30107	0.56737	0.05015	0.009
Mof_C 	C 	0.27402	0.32587	0.04467	0.325
Mof_C 	C 	0.24801	0.70212	0.06926	-0.048
Mof_C 	C 	0.3116	0.81136	0.05905	0.33
Mof_C 	C 	0.38373	0.10805	0.53028	-0.024
Mof_C 	C 	0.43662	0.11837	0.66023	0.027
Mof_C 	C 	0.2654	0.06625	0.47652	-0.058
Mof_C 	C 	0.19584	0.0489	0.5688	0.011
Mof_C 	C 	0.22287	0.04326	0.3273	0.338
Mof_C 	C 	0.24892	0.06805	0.70353	-0.047
Mof_C 	C 	0.18541	0.05775	0.81284	0.33
Mof_N 	N 	0.87216	0.25718	0.90534	-0.195
Mof_N 	N 	0.62496	0.90389	0.25875	-0.199
Mof_N 	N 	0.12485	0.74213	0.09658	-0.199
Mof_N 	N 	0.37211	0.09535	0.74345	-0.199
Mof_O 	O 	0.94769	0.90548	0.93116	-0.665
Mof_O 	O 	0.77382	0.08113	0.95572	-0.564
Mof_O 	O 	0.56848	0.19043	0.93718	-0.43
Mof_O 	O 	0.76083	0.73897	0.89461	-0.424
Mof_O 	O 	0.65559	0.73306	0.04257	-0.414
Mof_O 	O 	0.54961	0.92947	0.90679	-0.662
Mof_O 	O 	0.72326	0.95437	0.08266	-0.563
Mof_O 	O 	0.92862	0.93575	0.19197	-0.421
Mof_O 	O 	0.73646	0.89311	0.7405	-0.425
Mof_O 	O 	0.84237	0.04059	0.73464	-0.422
Mof_O 	O 	0.04865	0.09527	0.07296	-0.536
Mof_O 	O 	0.22302	0.91826	0.04623	-0.575
Mof_O 	O 	0.42844	0.80888	0.06487	-0.431
Mof_O 	O 	0.23631	0.26033	0.10767	-0.417
Mof_O 	O 	0.34138	0.26614	0.95955	-0.414
Mof_O 	O 	0.44727	0.06966	0.0952	-0.661
Mof_O 	O 	0.27377	0.04486	0.91956	-0.566
Mof_O 	O 	0.06872	0.0636	0.81069	-0.426
Mof_O 	O 	0.26053	0.1062	0.2617	-0.418
Mof_O 	O 	0.15558	0.9581	0.26764	-0.417
Mof_H 	H 	0.48578	0.13675	0.15793	0.182
Mof_H 	H 	0.51112	0.86235	0.84408	0.182
Mof_H 	H 	0.98629	0.84282	0.86407	0.18
_end
