data_functionalizedCrystal
_audit_creation_method	'EQeq! by Chris Wilmer'
_symmetry_space_group_name_H-M	'P1'
_symmetry_Int_Tables_number	1
_symmetry_cell_setting	triclinic
loop_
_symmetry_equiv_pos_as_xyz
  x,y,z
_cell_length_a	9.8642
_cell_length_b	24.0588
_cell_length_c	24.0588
_cell_angle_alpha	61.8369
_cell_angle_beta	82.145
_cell_angle_gamma	97.855
loop_
_atom_site_label
_atom_site_type_symbol
_atom_site_fract_x
_atom_site_fract_y
_atom_site_fract_z
_atom_site_charge
Mof_Cu	Cu	0.56931	0.04045	0.51527	0.916
Mof_Cu	Cu	0.08458	0.51527	0.44428	0.916
Mof_Cu	Cu	0.52886	0.44428	0.04045	0.917
Mof_Cu	Cu	0.43069	0.95955	0.48473	0.917
Mof_Cu	Cu	0.91542	0.48473	0.55572	0.917
Mof_Cu	Cu	0.47114	0.55572	0.95955	0.917
Mof_H 	H 	0.7829	0.8848	0.4414	0.001
Mof_H 	H 	0.9951	0.8574	0.4239	0.102
Mof_H 	H 	0.1981	0.0251	0.4026	0.116
Mof_H 	H 	0.9838	0.0471	0.4288	0.008
Mof_H 	H 	0.2426	0.888	0.3876	0.109
Mof_H 	H 	0.3255	0.9567	0.3678	0.109
Mof_H 	H 	0.227	0.864	0.507	0.062
Mof_H 	H 	0.4668	0.8689	0.4219	0.112
Mof_H 	H 	0.4471	0.8371	0.4963	0.113
Mof_H 	H 	0.1886	0.7544	0.5537	0.098
Mof_H 	H 	0.0694	0.6549	0.5667	0.013
Mof_H 	H 	0.3018	0.7065	0.3906	0.005
Mof_H 	H 	0.4156	0.8041	0.3784	0.095
Mof_H 	H 	0.2243	0.4414	0.6738	0.002
Mof_H 	H 	0.419	0.4239	0.7187	0.102
Mof_H 	H 	0.6007	0.4026	0.5723	0.116
Mof_H 	H 	0.4126	0.4288	0.5241	0.008
Mof_H 	H 	0.6302	0.3876	0.7244	0.109
Mof_H 	H 	0.6933	0.3678	0.6755	0.108
Mof_H 	H 	0.734	0.507	0.629	0.062
Mof_H 	H 	0.8887	0.4219	0.7092	0.112
Mof_H 	H 	0.9434	0.4963	0.6666	0.113
Mof_H 	H 	0.7423	0.5537	0.6919	0.098
Mof_H 	H 	0.6361	0.5667	0.7784	0.013
Mof_H 	H 	0.6924	0.3906	0.9029	0.005
Mof_H 	H 	0.794	0.3784	0.8175	0.095
Mof_H 	H 	0.8981	0.6738	0.8848	0.002
Mof_H 	H 	0.1377	0.7187	0.8574	0.102
Mof_H 	H 	0.173	0.5723	0.0251	0.115
Mof_H 	H 	0.9367	0.5241	0.0471	0.008
Mof_H 	H 	0.3546	0.7244	0.888	0.109
Mof_H 	H 	0.3688	0.6755	0.9567	0.108
Mof_H 	H 	0.363	0.629	0.864	0.062
Mof_H 	H 	0.5979	0.7092	0.8689	0.112
Mof_H 	H 	0.61	0.6666	0.8371	0.113
Mof_H 	H 	0.4342	0.6919	0.7544	0.098
Mof_H 	H 	0.4145	0.7784	0.6549	0.013
Mof_H 	H 	0.5953	0.9029	0.7065	0.005
Mof_H 	H 	0.6115	0.8175	0.8041	0.095
Mof_H 	H 	0.2171	0.1152	0.5586	0.001
Mof_H 	H 	0.0049	0.1426	0.5761	0.102
Mof_H 	H 	0.8019	0.9749	0.5974	0.116
Mof_H 	H 	0.0162	0.9529	0.5712	0.008
Mof_H 	H 	0.7574	0.112	0.6124	0.109
Mof_H 	H 	0.6745	0.0433	0.6322	0.109
Mof_H 	H 	0.773	0.136	0.493	0.062
Mof_H 	H 	0.5332	0.1311	0.5781	0.112
Mof_H 	H 	0.5529	0.1629	0.5037	0.113
Mof_H 	H 	0.8114	0.2456	0.4463	0.098
Mof_H 	H 	0.9306	0.3451	0.4333	0.013
Mof_H 	H 	0.6982	0.2935	0.6094	0.005
Mof_H 	H 	0.5844	0.1959	0.6216	0.095
Mof_H 	H 	0.7757	0.5586	0.3262	0.002
Mof_H 	H 	0.581	0.5761	0.2813	0.102
Mof_H 	H 	0.3993	0.5974	0.4277	0.116
Mof_H 	H 	0.5874	0.5712	0.4759	0.008
Mof_H 	H 	0.3698	0.6124	0.2756	0.109
Mof_H 	H 	0.3067	0.6322	0.3245	0.108
Mof_H 	H 	0.266	0.493	0.371	0.062
Mof_H 	H 	0.1113	0.5781	0.2908	0.112
Mof_H 	H 	0.0566	0.5037	0.3334	0.113
Mof_H 	H 	0.2577	0.4463	0.3081	0.098
Mof_H 	H 	0.3639	0.4333	0.2216	0.013
Mof_H 	H 	0.3076	0.6094	0.0971	0.005
Mof_H 	H 	0.206	0.6216	0.1825	0.095
Mof_H 	H 	0.1019	0.3262	0.1152	0.002
Mof_H 	H 	0.8623	0.2813	0.1426	0.102
Mof_H 	H 	0.827	0.4277	0.9749	0.115
Mof_H 	H 	0.0633	0.4759	0.9529	0.008
Mof_H 	H 	0.6454	0.2756	0.112	0.109
Mof_H 	H 	0.6312	0.3245	0.0433	0.108
Mof_H 	H 	0.637	0.371	0.136	0.062
Mof_H 	H 	0.4021	0.2908	0.1311	0.112
Mof_H 	H 	0.39	0.3334	0.1629	0.113
Mof_H 	H 	0.5658	0.3081	0.2456	0.098
Mof_H 	H 	0.5855	0.2216	0.3451	0.013
Mof_H 	H 	0.4047	0.0971	0.2935	0.005
Mof_H 	H 	0.3885	0.1825	0.1959	0.095
Mof_C 	C 	0.7266	0.9816	0.4572	0.386
Mof_C 	C 	0.864	0.9675	0.4389	-0.178
Mof_C 	C 	0.8688	0.9122	0.4361	0.121
Mof_C 	C 	0.9952	0.8975	0.4226	-0.213
Mof_C 	C 	0.1193	0.9382	0.412	0.184
Mof_C 	C 	0.1138	0.9946	0.4123	-0.213
Mof_C 	C 	0.9858	0.0088	0.4265	0.125
Mof_C 	C 	0.2572	0.9196	0.4006	-0.237
Mof_C 	C 	0.3998	0.847	0.4621	-0.241
Mof_C 	C 	0.3189	0.7853	0.467	0.174
Mof_C 	C 	0.2155	0.7436	0.5213	-0.189
Mof_C 	C 	0.1387	0.6846	0.5283	0.09
Mof_C 	C 	0.1731	0.6723	0.4785	-0.159
Mof_C 	C 	0.2754	0.7164	0.4239	0.103
Mof_C 	C 	0.3489	0.7735	0.4174	-0.207
Mof_C 	C 	0.1025	0.6091	0.4855	0.385
Mof_C 	C 	0.1838	0.4572	0.5612	0.386
Mof_C 	C 	0.3029	0.4389	0.5936	-0.177
Mof_C 	C 	0.3049	0.4361	0.6517	0.12
Mof_C 	C 	0.4178	0.4226	0.6799	-0.212
Mof_C 	C 	0.5313	0.412	0.6498	0.184
Mof_C 	C 	0.5261	0.4123	0.5931	-0.212
Mof_C 	C 	0.4123	0.4265	0.5647	0.124
Mof_C 	C 	0.6578	0.4006	0.6798	-0.237
Mof_C 	C 	0.8619	0.4621	0.6909	-0.241
Mof_C 	C 	0.7859	0.467	0.7477	0.174
Mof_C 	C 	0.7368	0.5213	0.7351	-0.189
Mof_C 	C 	0.667	0.5283	0.7871	0.09
Mof_C 	C 	0.6516	0.4785	0.8492	-0.159
Mof_C 	C 	0.6993	0.4239	0.8597	0.103
Mof_C 	C 	0.7663	0.4174	0.8091	-0.207
Mof_C 	C 	0.588	0.4855	0.9054	0.385
Mof_C 	C 	0.745	0.5612	0.9816	0.385
Mof_C 	C 	0.8965	0.5936	0.9675	-0.177
Mof_C 	C 	0.9566	0.6517	0.9122	0.119
Mof_C 	C 	0.0977	0.6799	0.8975	-0.211
Mof_C 	C 	0.1811	0.6498	0.9382	0.183
Mof_C 	C 	0.1192	0.5931	0.9946	-0.211
Mof_C 	C 	0.977	0.5647	0.0088	0.124
Mof_C 	C 	0.3376	0.6798	0.9196	-0.236
Mof_C 	C 	0.5528	0.6909	0.847	-0.241
Mof_C 	C 	0.5336	0.7477	0.7853	0.174
Mof_C 	C 	0.4719	0.7351	0.7436	-0.189
Mof_C 	C 	0.4541	0.7871	0.6846	0.09
Mof_C 	C 	0.5008	0.8492	0.6723	-0.159
Mof_C 	C 	0.559	0.8597	0.7164	0.103
Mof_C 	C 	0.5754	0.8091	0.7735	-0.207
Mof_C 	C 	0.4934	0.9054	0.6091	0.385
Mof_C 	C 	0.2734	0.0184	0.5428	0.386
Mof_C 	C 	0.136	0.0325	0.5611	-0.178
Mof_C 	C 	0.1312	0.0878	0.5639	0.121
Mof_C 	C 	0.0048	0.1025	0.5774	-0.213
Mof_C 	C 	0.8807	0.0618	0.588	0.184
Mof_C 	C 	0.8862	0.0054	0.5877	-0.213
Mof_C 	C 	0.0142	0.9912	0.5735	0.125
Mof_C 	C 	0.7428	0.0804	0.5994	-0.237
Mof_C 	C 	0.6002	0.153	0.5379	-0.241
Mof_C 	C 	0.6811	0.2147	0.533	0.174
Mof_C 	C 	0.7845	0.2564	0.4787	-0.189
Mof_C 	C 	0.8613	0.3154	0.4717	0.09
Mof_C 	C 	0.8269	0.3277	0.5215	-0.159
Mof_C 	C 	0.7246	0.2836	0.5761	0.103
Mof_C 	C 	0.6511	0.2265	0.5826	-0.207
Mof_C 	C 	0.8975	0.3909	0.5145	0.385
Mof_C 	C 	0.8162	0.5428	0.4388	0.386
Mof_C 	C 	0.6971	0.5611	0.4064	-0.177
Mof_C 	C 	0.6951	0.5639	0.3483	0.12
Mof_C 	C 	0.5822	0.5774	0.3201	-0.212
Mof_C 	C 	0.4687	0.588	0.3502	0.184
Mof_C 	C 	0.4739	0.5877	0.4069	-0.212
Mof_C 	C 	0.5877	0.5735	0.4353	0.124
Mof_C 	C 	0.3422	0.5994	0.3202	-0.237
Mof_C 	C 	0.1381	0.5379	0.3091	-0.241
Mof_C 	C 	0.2141	0.533	0.2523	0.174
Mof_C 	C 	0.2632	0.4787	0.2649	-0.189
Mof_C 	C 	0.333	0.4717	0.2129	0.09
Mof_C 	C 	0.3484	0.5215	0.1508	-0.159
Mof_C 	C 	0.3007	0.5761	0.1403	0.103
Mof_C 	C 	0.2337	0.5826	0.1909	-0.207
Mof_C 	C 	0.412	0.5145	0.0946	0.385
Mof_C 	C 	0.255	0.4388	0.0184	0.385
Mof_C 	C 	0.1035	0.4064	0.0325	-0.177
Mof_C 	C 	0.0434	0.3483	0.0878	0.119
Mof_C 	C 	0.9023	0.3201	0.1025	-0.211
Mof_C 	C 	0.8189	0.3502	0.0618	0.183
Mof_C 	C 	0.8808	0.4069	0.0054	-0.211
Mof_C 	C 	0.023	0.4353	0.9912	0.124
Mof_C 	C 	0.6624	0.3202	0.0804	-0.236
Mof_C 	C 	0.4472	0.3091	0.153	-0.241
Mof_C 	C 	0.4664	0.2523	0.2147	0.174
Mof_C 	C 	0.5281	0.2649	0.2564	-0.189
Mof_C 	C 	0.5459	0.2129	0.3154	0.09
Mof_C 	C 	0.4992	0.1508	0.3277	-0.159
Mof_C 	C 	0.441	0.1403	0.2836	0.103
Mof_C 	C 	0.4246	0.1909	0.2265	-0.207
Mof_C 	C 	0.5066	0.0946	0.3909	0.385
Mof_N 	N 	0.3099	0.8917	0.4615	-0.131
Mof_N 	N 	0.7714	0.4615	0.6468	-0.131
Mof_N 	N 	0.4182	0.6468	0.8917	-0.131
Mof_N 	N 	0.6901	0.1083	0.5385	-0.131
Mof_N 	N 	0.2286	0.5385	0.3532	-0.131
Mof_N 	N 	0.5818	0.3532	0.1083	-0.131
Mof_O 	O 	0.7313	0.0221	0.4764	-0.416
Mof_O 	O 	0.6173	0.9512	0.4535	-0.411
Mof_O 	O 	0.0092	0.5715	0.537	-0.408
Mof_O 	O 	0.1449	0.5973	0.4422	-0.425
Mof_O 	O 	0.2077	0.4764	0.5015	-0.416
Mof_O 	O 	0.0708	0.4535	0.5953	-0.411
Mof_O 	O 	0.5462	0.537	0.8915	-0.408
Mof_O 	O 	0.5871	0.4422	0.9605	-0.425
Mof_O 	O 	0.7092	0.5015	0.0221	-0.416
Mof_O 	O 	0.6661	0.5953	0.9512	-0.411
Mof_O 	O 	0.4377	0.8915	0.5715	-0.408
Mof_O 	O 	0.5476	0.9605	0.5973	-0.425
Mof_O 	O 	0.2687	0.9779	0.5236	-0.416
Mof_O 	O 	0.3827	0.0488	0.5465	-0.411
Mof_O 	O 	0.9908	0.4285	0.463	-0.408
Mof_O 	O 	0.8551	0.4027	0.5578	-0.425
Mof_O 	O 	0.7923	0.5236	0.4985	-0.416
Mof_O 	O 	0.9292	0.5465	0.4047	-0.411
Mof_O 	O 	0.4538	0.463	0.1085	-0.408
Mof_O 	O 	0.4129	0.5578	0.0395	-0.425
Mof_O 	O 	0.2908	0.4985	0.9779	-0.416
Mof_O 	O 	0.3339	0.4047	0.0488	-0.411
Mof_O 	O 	0.5623	0.1085	0.4285	-0.408
Mof_O 	O 	0.4524	0.0395	0.4027	-0.425
_end
