data_functionalizedCrystal
_audit_creation_method	'EQeq! by Chris Wilmer'
_symmetry_space_group_name_H-M	'P1'
_symmetry_Int_Tables_number	1
_symmetry_cell_setting	triclinic
loop_
_symmetry_equiv_pos_as_xyz
  x,y,z
_cell_length_a	12.203
_cell_length_b	21.711
_cell_length_c	22.709
_cell_angle_alpha	90
_cell_angle_beta	91.74
_cell_angle_gamma	90
loop_
_atom_site_label
_atom_site_type_symbol
_atom_site_fract_x
_atom_site_fract_y
_atom_site_fract_z
_atom_site_charge
Mof_W 	W 	0.67021	0.22416	0.82282	1.011
Mof_W 	W 	0.5838	0.9952	0.67803	1.018
Mof_W 	W 	0.95604	0.17928	0.8386	0.989
Mof_W 	W 	0.85025	0.95254	0.69138	1.053
Mof_W 	W 	0.49384	0.13955	0.73932	1.018
Mof_W 	W 	0.03872	0.04408	0.78221	1.006
Mof_W 	W 	0.77813	0.07442	0.60643	1.005
Mof_W 	W 	0.81558	0.96243	0.84966	1.326
Mof_W 	W 	0.6939	0.2171	0.67996	0.644
Mof_W 	W 	0.9805	0.1616	0.69749	0.642
Mof_W 	W 	0.7419	0.08785	0.9124	0.644
Mof_W 	W 	0.56091	0.01021	0.83836	0.631
Mof_Pr	Pr	0.65014	0.38421	0.58287	2.227
Mof_Pr	Pr	0.13427	0.28699	0.58403	1.845
Mof_O 	O 	0.4472	0.97	0.8603	-0.555
Mof_O 	O 	0.0672	0.2035	0.652	-0.579
Mof_O 	O 	0.6859	0.2768	0.6278	-0.557
Mof_O 	O 	0.8515	0.8969	0.8877	-0.586
Mof_O 	O 	0.3324	0.3169	0.5832	-0.533
Mof_O 	O 	0.7366	0.1072	0.9864	-0.611
Mof_O 	O 	0.6601	0.9432	0.8582	-0.418
Mof_O 	O 	0.8479	0.3637	0.5965	-0.569
Mof_O 	O 	0.9875	0.3246	0.6487	-0.472
Mof_O 	O 	0.708	0.1463	0.6276	-0.492
Mof_O 	O 	0.4957	0.3425	0.6271	-0.566
Mof_O 	O 	0.8138	0.9357	0.7718	-0.479
Mof_O 	O 	0.9495	0.004	0.8355	-0.487
Mof_O 	O 	0.8104	0.0099	0.9257	-0.419
Mof_O 	O 	0.081	0.1007	0.7204	-0.431
Mof_O 	O 	0.5196	0.0726	0.6883	-0.469
Mof_O 	O 	0.675	0.153	0.7545	-0.314
Mof_O 	O 	0.6702	0.1609	0.8775	-0.491
Mof_O 	O 	0.749	0.0388	0.701	-0.296
Mof_O 	O 	0.5392	0.1974	0.6826	-0.414
Mof_O 	O 	0.8767	0.1265	0.8927	-0.503
Mof_O 	O 	0.0649	0.1105	0.8409	-0.435
Mof_O 	O 	0.594	0.048	0.9109	-0.411
Mof_O 	O 	0.858	0.9961	0.6208	-0.467
Mof_O 	O 	0.7246	0.0458	0.8295	-0.395
Mof_O 	O 	0.9069	0.1105	0.6426	-0.519
Mof_O 	O 	0.52	0.2033	0.8009	-0.42
Mof_O 	O 	0.849	0.2101	0.6906	-0.478
Mof_O 	O 	0.6798	0.268	0.7468	-0.385
Mof_O 	O 	0.8268	0.2233	0.8289	-0.47
Mof_O 	O 	0.4993	0.082	0.8032	-0.502
Mof_O 	O 	0.561	0.9799	0.7566	-0.488
Mof_O 	O 	0.642	0.0326	0.6049	-0.449
Mof_O 	O 	0.899	0.1134	0.7707	-0.302
Mof_O 	O 	0.9686	0.9947	0.7228	-0.472
Mof_O 	O 	0.01	0.2058	0.7678	-0.425
Mof_O 	O 	0.6973	0.9321	0.6739	-0.438
Mof_C 	C 	0.349	0.3128	0.6885	-0.091
Mof_C 	C 	0.397	0.3259	0.6297	0.447
Mof_C 	C 	0.894	0.3504	0.6437	0.425
Mof_C 	C 	0.837	0.3658	0.7013	-0.091
Mof_C 	C 	0.265	0.2917	0.7927	0.022
Mof_H 	H 	0.2321	0.2856	0.8286	-0.016
Mof_C 	C 	0.887	0.3575	0.7575	0.081
Mof_H 	H 	0.9568	0.3402	0.7614	-0.005
Mof_C 	C 	0.206	0.2836	0.7417	-0.003
Mof_H 	H 	0.1335	0.27	0.7444	0.036
Mof_C 	C 	0.687	0.4078	0.7417	0.014
Mof_H 	H 	0.6169	0.425	0.7381	0.008
Mof_C 	C 	0.736	0.3986	0.7989	-0.001
Mof_H 	H 	0.6984	0.4094	0.8325	-0.008
Mof_C 	C 	0.415	0.3203	0.7422	0.085
Mof_H 	H 	0.4875	0.3332	0.7413	0.01
Mof_N 	N 	0.2441	0.2939	0.6877	-0.184
Mof_N 	N 	0.7396	0.3922	0.6933	-0.206
Mof_N 	N 	0.835	0.3742	0.8033	-0.15
Mof_N 	N 	0.368	0.3081	0.7917	-0.136
Mof_W 	W 	0.9677	0.162	0.6789	0.524
Mof_W 	W 	0.7602	0.1065	0.907	0.474
Mof_W 	W 	0.5509	0.0171	0.82	0.511
Mof_W 	W 	0.7178	0.214	0.6649	0.494
Mof_W 	W 	0.32979	0.72416	0.67718	1.011
Mof_W 	W 	0.4162	0.4952	0.82197	1.021
Mof_W 	W 	0.04396	0.67928	0.6614	0.989
Mof_W 	W 	0.14975	0.45254	0.80862	1.054
Mof_W 	W 	0.50616	0.63955	0.76068	1.018
Mof_W 	W 	0.96128	0.54408	0.71779	1.005
Mof_W 	W 	0.22187	0.57442	0.89357	1.004
Mof_W 	W 	0.18442	0.46243	0.65034	1.331
Mof_W 	W 	0.3061	0.7171	0.82004	0.644
Mof_W 	W 	0.0195	0.6616	0.80251	0.642
Mof_W 	W 	0.2581	0.58785	0.5876	0.644
Mof_W 	W 	0.43909	0.51021	0.66164	0.63
Mof_Pr	Pr	0.34986	0.88421	0.91713	2.224
Mof_Pr	Pr	0.86573	0.78699	0.91597	1.843
Mof_O 	O 	0.5528	0.47	0.6397	-0.553
Mof_O 	O 	0.9328	0.7035	0.848	-0.579
Mof_O 	O 	0.3141	0.7768	0.8722	-0.557
Mof_O 	O 	0.1485	0.3969	0.6123	-0.586
Mof_O 	O 	0.6676	0.8169	0.9168	-0.533
Mof_O 	O 	0.2634	0.6072	0.5136	-0.613
Mof_O 	O 	0.3399	0.4432	0.6418	-0.417
Mof_O 	O 	0.1521	0.8637	0.9035	-0.57
Mof_O 	O 	0.0125	0.8246	0.8513	-0.472
Mof_O 	O 	0.292	0.6463	0.8724	-0.492
Mof_O 	O 	0.5043	0.8425	0.8729	-0.566
Mof_O 	O 	0.1862	0.4357	0.7282	-0.479
Mof_O 	O 	0.0505	0.504	0.6645	-0.489
Mof_O 	O 	0.1896	0.5099	0.5743	-0.421
Mof_O 	O 	0.919	0.6007	0.7796	-0.431
Mof_O 	O 	0.4804	0.5726	0.8117	-0.47
Mof_O 	O 	0.325	0.653	0.7455	-0.314
Mof_O 	O 	0.3298	0.6609	0.6225	-0.491
Mof_O 	O 	0.251	0.5388	0.799	-0.297
Mof_O 	O 	0.4608	0.6974	0.8174	-0.414
Mof_O 	O 	0.1233	0.6265	0.6073	-0.503
Mof_O 	O 	0.9351	0.6105	0.6591	-0.435
Mof_O 	O 	0.406	0.548	0.5891	-0.412
Mof_O 	O 	0.142	0.4961	0.8792	-0.466
Mof_O 	O 	0.2754	0.5458	0.6705	-0.396
Mof_O 	O 	0.0931	0.6105	0.8574	-0.52
Mof_O 	O 	0.48	0.7033	0.6991	-0.42
Mof_O 	O 	0.151	0.7101	0.8094	-0.478
Mof_O 	O 	0.3202	0.768	0.7532	-0.384
Mof_O 	O 	0.1732	0.7233	0.6711	-0.47
Mof_O 	O 	0.5007	0.582	0.6968	-0.502
Mof_O 	O 	0.439	0.4799	0.7434	-0.487
Mof_O 	O 	0.358	0.5326	0.8951	-0.449
Mof_O 	O 	0.101	0.6134	0.7293	-0.302
Mof_O 	O 	0.0314	0.4947	0.7772	-0.47
Mof_O 	O 	0.99	0.7058	0.7322	-0.425
Mof_O 	O 	0.3027	0.4321	0.8261	-0.438
Mof_C 	C 	0.651	0.8128	0.8115	-0.091
Mof_C 	C 	0.603	0.8259	0.8703	0.447
Mof_C 	C 	0.106	0.8504	0.8563	0.425
Mof_C 	C 	0.163	0.8658	0.7987	-0.091
Mof_C 	C 	0.735	0.7917	0.7073	0.022
Mof_H 	H 	0.7679	0.7856	0.6714	-0.016
Mof_C 	C 	0.113	0.8575	0.7425	0.081
Mof_H 	H 	0.0432	0.8402	0.7386	-0.005
Mof_C 	C 	0.794	0.7836	0.7583	-0.003
Mof_H 	H 	0.8665	0.77	0.7556	0.036
Mof_C 	C 	0.313	0.9078	0.7583	0.014
Mof_H 	H 	0.3831	0.925	0.7619	0.008
Mof_C 	C 	0.264	0.8986	0.7011	-0.001
Mof_H 	H 	0.3016	0.9094	0.6675	-0.008
Mof_C 	C 	0.585	0.8203	0.7578	0.085
Mof_H 	H 	0.5125	0.8332	0.7587	0.01
Mof_N 	N 	0.7559	0.7939	0.8123	-0.184
Mof_N 	N 	0.2604	0.8922	0.8067	-0.205
Mof_N 	N 	0.165	0.8742	0.6967	-0.15
Mof_N 	N 	0.632	0.8081	0.7083	-0.136
Mof_W 	W 	0.0323	0.662	0.8211	0.524
Mof_W 	W 	0.2398	0.6065	0.593	0.474
Mof_W 	W 	0.4491	0.5171	0.68	0.509
Mof_W 	W 	0.2822	0.714	0.8351	0.494
Mof_W 	W 	0.32979	0.77584	0.17718	1.011
Mof_W 	W 	0.4162	0.0048	0.32197	1.018
Mof_W 	W 	0.04396	0.82072	0.1614	0.989
Mof_W 	W 	0.14975	0.04746	0.30862	1.053
Mof_W 	W 	0.50616	0.86045	0.26068	1.018
Mof_W 	W 	0.96128	0.95592	0.21779	1.006
Mof_W 	W 	0.22187	0.92558	0.39357	1.005
Mof_W 	W 	0.18442	0.03757	0.15034	1.326
Mof_W 	W 	0.3061	0.7829	0.32004	0.644
Mof_W 	W 	0.0195	0.8384	0.30251	0.642
Mof_W 	W 	0.2581	0.91215	0.0876	0.644
Mof_W 	W 	0.43909	0.98979	0.16164	0.631
Mof_Pr	Pr	0.34986	0.61579	0.41713	2.227
Mof_Pr	Pr	0.86573	0.71301	0.41597	1.845
Mof_O 	O 	0.5528	0.03	0.1397	-0.555
Mof_O 	O 	0.9328	0.7965	0.348	-0.579
Mof_O 	O 	0.3141	0.7232	0.3722	-0.557
Mof_O 	O 	0.1485	0.1031	0.1123	-0.586
Mof_O 	O 	0.6676	0.6831	0.4168	-0.533
Mof_O 	O 	0.2634	0.8928	0.0136	-0.611
Mof_O 	O 	0.3399	0.0568	0.1418	-0.418
Mof_O 	O 	0.1521	0.6363	0.4035	-0.569
Mof_O 	O 	0.0125	0.6754	0.3513	-0.472
Mof_O 	O 	0.292	0.8537	0.3724	-0.492
Mof_O 	O 	0.5043	0.6575	0.3729	-0.566
Mof_O 	O 	0.1862	0.0643	0.2282	-0.479
Mof_O 	O 	0.0505	0.996	0.1645	-0.487
Mof_O 	O 	0.1896	0.9901	0.0743	-0.419
Mof_O 	O 	0.919	0.8993	0.2796	-0.431
Mof_O 	O 	0.4804	0.9274	0.3117	-0.469
Mof_O 	O 	0.325	0.847	0.2455	-0.314
Mof_O 	O 	0.3298	0.8391	0.1225	-0.491
Mof_O 	O 	0.251	0.9612	0.299	-0.296
Mof_O 	O 	0.4608	0.8026	0.3174	-0.414
Mof_O 	O 	0.1233	0.8735	0.1073	-0.503
Mof_O 	O 	0.9351	0.8895	0.1591	-0.435
Mof_O 	O 	0.406	0.952	0.0891	-0.411
Mof_O 	O 	0.142	0.0039	0.3792	-0.467
Mof_O 	O 	0.2754	0.9542	0.1705	-0.395
Mof_O 	O 	0.0931	0.8895	0.3574	-0.519
Mof_O 	O 	0.48	0.7967	0.1991	-0.42
Mof_O 	O 	0.151	0.7899	0.3094	-0.478
Mof_O 	O 	0.3202	0.732	0.2532	-0.385
Mof_O 	O 	0.1732	0.7767	0.1711	-0.47
Mof_O 	O 	0.5007	0.918	0.1968	-0.502
Mof_O 	O 	0.439	0.0201	0.2434	-0.488
Mof_O 	O 	0.358	0.9674	0.3951	-0.449
Mof_O 	O 	0.101	0.8866	0.2293	-0.302
Mof_O 	O 	0.0314	0.0053	0.2772	-0.472
Mof_O 	O 	0.99	0.7942	0.2322	-0.425
Mof_O 	O 	0.3027	0.0679	0.3261	-0.438
Mof_C 	C 	0.651	0.6872	0.3115	-0.091
Mof_C 	C 	0.603	0.6741	0.3703	0.447
Mof_C 	C 	0.106	0.6496	0.3563	0.425
Mof_C 	C 	0.163	0.6342	0.2987	-0.091
Mof_C 	C 	0.735	0.7083	0.2073	0.022
Mof_H 	H 	0.7679	0.7144	0.1714	-0.016
Mof_C 	C 	0.113	0.6425	0.2425	0.081
Mof_H 	H 	0.0432	0.6598	0.2386	-0.005
Mof_C 	C 	0.794	0.7164	0.2583	-0.003
Mof_H 	H 	0.8665	0.73	0.2556	0.036
Mof_C 	C 	0.313	0.5922	0.2583	0.014
Mof_H 	H 	0.3831	0.575	0.2619	0.008
Mof_C 	C 	0.264	0.6014	0.2011	-0.001
Mof_H 	H 	0.3016	0.5906	0.1675	-0.008
Mof_C 	C 	0.585	0.6797	0.2578	0.085
Mof_H 	H 	0.5125	0.6668	0.2587	0.01
Mof_N 	N 	0.7559	0.7061	0.3123	-0.184
Mof_N 	N 	0.2604	0.6078	0.3067	-0.206
Mof_N 	N 	0.165	0.6258	0.1967	-0.15
Mof_N 	N 	0.632	0.6919	0.2083	-0.136
Mof_W 	W 	0.0323	0.838	0.3211	0.524
Mof_W 	W 	0.2398	0.8935	0.093	0.474
Mof_W 	W 	0.4491	0.9829	0.18	0.511
Mof_W 	W 	0.2822	0.786	0.3351	0.494
Mof_W 	W 	0.67021	0.27584	0.32282	1.011
Mof_W 	W 	0.5838	0.5048	0.17803	1.021
Mof_W 	W 	0.95604	0.32072	0.3386	0.989
Mof_W 	W 	0.85025	0.54746	0.19138	1.054
Mof_W 	W 	0.49384	0.36045	0.23932	1.018
Mof_W 	W 	0.03872	0.45592	0.28221	1.005
Mof_W 	W 	0.77813	0.42558	0.10643	1.004
Mof_W 	W 	0.81558	0.53757	0.34966	1.331
Mof_W 	W 	0.6939	0.2829	0.17996	0.644
Mof_W 	W 	0.9805	0.3384	0.19749	0.642
Mof_W 	W 	0.7419	0.41215	0.4124	0.644
Mof_W 	W 	0.56091	0.48979	0.33836	0.63
Mof_Pr	Pr	0.65014	0.11579	0.08287	2.224
Mof_Pr	Pr	0.13427	0.21301	0.08403	1.843
Mof_O 	O 	0.4472	0.53	0.3603	-0.553
Mof_O 	O 	0.0672	0.2965	0.152	-0.579
Mof_O 	O 	0.6859	0.2232	0.1278	-0.557
Mof_O 	O 	0.8515	0.6031	0.3877	-0.586
Mof_O 	O 	0.3324	0.1831	0.0832	-0.533
Mof_O 	O 	0.7366	0.3928	0.4864	-0.613
Mof_O 	O 	0.6601	0.5568	0.3582	-0.417
Mof_O 	O 	0.8479	0.1363	0.0965	-0.57
Mof_O 	O 	0.9875	0.1754	0.1487	-0.472
Mof_O 	O 	0.708	0.3537	0.1276	-0.492
Mof_O 	O 	0.4957	0.1575	0.1271	-0.566
Mof_O 	O 	0.8138	0.5643	0.2718	-0.479
Mof_O 	O 	0.9495	0.496	0.3355	-0.489
Mof_O 	O 	0.8104	0.4901	0.4257	-0.421
Mof_O 	O 	0.081	0.3993	0.2204	-0.431
Mof_O 	O 	0.5196	0.4274	0.1883	-0.47
Mof_O 	O 	0.675	0.347	0.2545	-0.314
Mof_O 	O 	0.6702	0.3391	0.3775	-0.491
Mof_O 	O 	0.749	0.4612	0.201	-0.297
Mof_O 	O 	0.5392	0.3026	0.1826	-0.414
Mof_O 	O 	0.8767	0.3735	0.3927	-0.503
Mof_O 	O 	0.0649	0.3895	0.3409	-0.435
Mof_O 	O 	0.594	0.452	0.4109	-0.412
Mof_O 	O 	0.858	0.5039	0.1208	-0.466
Mof_O 	O 	0.7246	0.4542	0.3295	-0.396
Mof_O 	O 	0.9069	0.3895	0.1426	-0.52
Mof_O 	O 	0.52	0.2967	0.3009	-0.42
Mof_O 	O 	0.849	0.2899	0.1906	-0.478
Mof_O 	O 	0.6798	0.232	0.2468	-0.384
Mof_O 	O 	0.8268	0.2767	0.3289	-0.47
Mof_O 	O 	0.4993	0.418	0.3032	-0.502
Mof_O 	O 	0.561	0.5201	0.2566	-0.487
Mof_O 	O 	0.642	0.4674	0.1049	-0.449
Mof_O 	O 	0.899	0.3866	0.2707	-0.302
Mof_O 	O 	0.9686	0.5053	0.2228	-0.47
Mof_O 	O 	0.01	0.2942	0.2678	-0.425
Mof_O 	O 	0.6973	0.5679	0.1739	-0.438
Mof_C 	C 	0.349	0.1872	0.1885	-0.091
Mof_C 	C 	0.397	0.1741	0.1297	0.447
Mof_C 	C 	0.894	0.1496	0.1437	0.425
Mof_C 	C 	0.837	0.1342	0.2013	-0.091
Mof_C 	C 	0.265	0.2083	0.2927	0.022
Mof_H 	H 	0.2321	0.2144	0.3286	-0.016
Mof_C 	C 	0.887	0.1425	0.2575	0.081
Mof_H 	H 	0.9568	0.1598	0.2614	-0.005
Mof_C 	C 	0.206	0.2164	0.2417	-0.003
Mof_H 	H 	0.1335	0.23	0.2444	0.036
Mof_C 	C 	0.687	0.0922	0.2417	0.014
Mof_H 	H 	0.6169	0.075	0.2381	0.008
Mof_C 	C 	0.736	0.1014	0.2989	-0.001
Mof_H 	H 	0.6984	0.0906	0.3325	-0.008
Mof_C 	C 	0.415	0.1797	0.2422	0.085
Mof_H 	H 	0.4875	0.1668	0.2413	0.01
Mof_N 	N 	0.2441	0.2061	0.1877	-0.184
Mof_N 	N 	0.7396	0.1078	0.1933	-0.205
Mof_N 	N 	0.835	0.1258	0.3033	-0.15
Mof_N 	N 	0.368	0.1919	0.2917	-0.136
Mof_W 	W 	0.9677	0.338	0.1789	0.524
Mof_W 	W 	0.7602	0.3935	0.407	0.474
Mof_W 	W 	0.5509	0.4829	0.32	0.509
Mof_W 	W 	0.7178	0.286	0.1649	0.494
_end
