data_functionalizedCrystal
_audit_creation_method	'EQeq! by Chris Wilmer'
_symmetry_space_group_name_H-M	'P1'
_symmetry_Int_Tables_number	1
_symmetry_cell_setting	triclinic
loop_
_symmetry_equiv_pos_as_xyz
  x,y,z
_cell_length_a	22.5561
_cell_length_b	17.4368
_cell_length_c	10.1995
_cell_angle_alpha	90
_cell_angle_beta	109.402
_cell_angle_gamma	90
loop_
_atom_site_label
_atom_site_type_symbol
_atom_site_fract_x
_atom_site_fract_y
_atom_site_fract_z
_atom_site_charge
Mof_Sr	Sr	0.33828	0.1027	0.52899	1.521
Mof_P 	P 	0.47658	0.156	0.45982	0.446
Mof_P 	P 	0.60911	0.0873	0.57917	0.466
Mof_P 	P 	0.19428	0.17905	0.59832	0.444
Mof_P 	P 	0.1919	0.01526	0.47234	0.443
Mof_O 	O 	0.45668	0.12889	0.5789	-0.514
Mof_O 	O 	0.45797	0.10558	0.3329	-0.428
Mof_O 	O 	0.4493	0.23979	0.4148	-0.398
Mof_H 	H 	0.4145	0.2435	0.4234	0.272
Mof_O 	O 	0.60113	0.06688	0.7158	-0.529
Mof_O 	O 	0.59407	0.02782	0.4673	-0.492
Mof_O 	O 	0.67846	0.11579	0.604	-0.441
Mof_H 	H 	0.6927	0.1351	0.6815	0.27
Mof_O 	O 	0.25973	0.01137	0.5596	-0.394
Mof_O 	O 	0.16331	0.25586	0.5526	-0.39
Mof_O 	O 	0.20536	0.14282	0.3579	-0.378
Mof_H 	H 	0.2135	0.19	0.356	0.208
Mof_O 	O 	0.17254	0.97965	0.3297	-0.248
Mof_O 	O 	0.16537	0.14785	0.7082	-0.411
Mof_H 	H 	0.1768	0.1035	0.7281	0.279
Mof_O 	O 	0.14908	0.97917	0.5515	-0.399
Mof_H 	H 	0.1603	0.9952	0.6316	0.268
Mof_O 	O 	0.26522	0.18041	0.6529	-0.379
Mof_O 	O 	0.57597	0.20595	0.3989	-0.275
Mof_H 	H 	0.5655	0.1755	0.334	0.228
Mof_C 	C 	0.56128	0.17413	0.5156	-0.052
Mof_C 	C 	0.57783	0.23388	0.6323	0.03
Mof_C 	C 	0.16867	0.1168	0.4439	-0.042
Mof_C 	C 	0.09789	0.12302	0.3677	0.034
Mof_Sr	Sr	0.83828	0.6027	0.52899	1.531
Mof_P 	P 	0.97658	0.656	0.45982	0.492
Mof_P 	P 	0.10911	0.5873	0.57917	0.464
Mof_P 	P 	0.69428	0.67905	0.59832	0.446
Mof_P 	P 	0.6919	0.51526	0.47234	0.445
Mof_O 	O 	0.95668	0.62889	0.5789	-0.475
Mof_O 	O 	0.95797	0.60558	0.3329	-0.386
Mof_O 	O 	0.9493	0.73979	0.4148	-0.373
Mof_H 	H 	0.9145	0.7435	0.4234	0.266
Mof_O 	O 	0.10113	0.56688	0.7158	-0.523
Mof_O 	O 	0.09407	0.52782	0.4673	-0.486
Mof_O 	O 	0.17846	0.61579	0.604	-0.438
Mof_H 	H 	0.1927	0.6351	0.6815	0.269
Mof_O 	O 	0.75973	0.51137	0.5596	-0.395
Mof_O 	O 	0.66331	0.75586	0.5526	-0.389
Mof_O 	O 	0.70536	0.64282	0.3579	-0.376
Mof_H 	H 	0.7135	0.69	0.356	0.207
Mof_O 	O 	0.67254	0.47965	0.3297	-0.243
Mof_O 	O 	0.66537	0.64785	0.7082	-0.405
Mof_H 	H 	0.6768	0.6035	0.7281	0.279
Mof_O 	O 	0.64908	0.47917	0.5515	-0.389
Mof_H 	H 	0.6603	0.4952	0.6316	0.267
Mof_O 	O 	0.76522	0.68041	0.6529	-0.38
Mof_O 	O 	0.07597	0.70595	0.3989	-0.279
Mof_H 	H 	0.0655	0.6755	0.334	0.218
Mof_C 	C 	0.06128	0.67413	0.5156	-0.091
Mof_C 	C 	0.07783	0.73388	0.6323	0.01
Mof_C 	C 	0.66867	0.6168	0.4439	-0.046
Mof_C 	C 	0.59789	0.62302	0.3677	0.06
Mof_Sr	Sr	0.66172	0.1027	0.97101	1.511
Mof_P 	P 	0.52342	0.156	0.04018	0.455
Mof_P 	P 	0.39089	0.0873	0.92083	0.463
Mof_P 	P 	0.80572	0.17905	0.90168	0.444
Mof_P 	P 	0.8081	0.01526	0.02766	0.456
Mof_O 	O 	0.54332	0.12889	0.9211	-0.517
Mof_O 	O 	0.54203	0.10558	0.1671	-0.427
Mof_O 	O 	0.5507	0.23979	0.0852	-0.398
Mof_H 	H 	0.5855	0.2435	0.0766	0.273
Mof_O 	O 	0.39887	0.06688	0.7842	-0.53
Mof_O 	O 	0.40593	0.02782	0.0327	-0.487
Mof_O 	O 	0.32154	0.11579	0.896	-0.443
Mof_H 	H 	0.3073	0.1351	0.8185	0.27
Mof_O 	O 	0.74027	0.01137	0.9404	-0.4
Mof_O 	O 	0.83669	0.25586	0.9474	-0.391
Mof_O 	O 	0.79464	0.14282	0.1421	-0.373
Mof_H 	H 	0.7865	0.19	0.144	0.207
Mof_O 	O 	0.82746	0.97965	0.1703	-0.239
Mof_O 	O 	0.83463	0.14785	0.7918	-0.399
Mof_H 	H 	0.8232	0.1035	0.7719	0.279
Mof_O 	O 	0.85092	0.97917	0.9485	-0.384
Mof_H 	H 	0.8397	0.9952	0.8684	0.269
Mof_O 	O 	0.73478	0.18041	0.8471	-0.38
Mof_O 	O 	0.42403	0.20595	0.1011	-0.269
Mof_H 	H 	0.4345	0.1755	0.166	0.226
Mof_C 	C 	0.43872	0.17413	0.9844	-0.06
Mof_C 	C 	0.42217	0.23388	0.8677	0.03
Mof_C 	C 	0.83133	0.1168	0.0561	-0.046
Mof_C 	C 	0.90211	0.12302	0.1323	0.09
Mof_Sr	Sr	0.16172	0.6027	0.97101	1.518
Mof_P 	P 	0.02342	0.656	0.04018	0.403
Mof_P 	P 	0.89089	0.5873	0.92083	0.461
Mof_P 	P 	0.30572	0.67905	0.90168	0.445
Mof_P 	P 	0.3081	0.51526	0.02766	0.451
Mof_O 	O 	0.04332	0.62889	0.9211	-0.517
Mof_O 	O 	0.04203	0.60558	0.1671	-0.426
Mof_O 	O 	0.0507	0.73979	0.0852	-0.42
Mof_H 	H 	0.0855	0.7435	0.0766	0.278
Mof_O 	O 	0.89887	0.56688	0.7842	-0.499
Mof_O 	O 	0.90593	0.52782	0.0327	-0.455
Mof_O 	O 	0.82154	0.61579	0.896	-0.443
Mof_H 	H 	0.8073	0.6351	0.8185	0.269
Mof_O 	O 	0.24027	0.51137	0.9404	-0.397
Mof_O 	O 	0.33669	0.75586	0.9474	-0.39
Mof_O 	O 	0.29464	0.64282	0.1421	-0.375
Mof_H 	H 	0.2865	0.69	0.144	0.208
Mof_O 	O 	0.32746	0.47965	0.1703	-0.243
Mof_O 	O 	0.33463	0.64785	0.7918	-0.405
Mof_H 	H 	0.3232	0.6035	0.7719	0.279
Mof_O 	O 	0.35092	0.47917	0.9485	-0.394
Mof_H 	H 	0.3397	0.4952	0.8684	0.268
Mof_O 	O 	0.23478	0.68041	0.8471	-0.379
Mof_O 	O 	0.92403	0.70595	0.1011	-0.269
Mof_H 	H 	0.9345	0.6755	0.166	0.242
Mof_C 	C 	0.93872	0.67413	0.9844	-0.008
Mof_C 	C 	0.92217	0.73388	0.8677	0.052
Mof_C 	C 	0.33133	0.6168	0.0561	-0.043
Mof_C 	C 	0.40211	0.62302	0.1323	0.061
Mof_Sr	Sr	0.66172	0.8973	0.47101	1.522
Mof_P 	P 	0.52342	0.844	0.54018	0.447
Mof_P 	P 	0.39089	0.9127	0.42083	0.468
Mof_P 	P 	0.80572	0.82095	0.40168	0.448
Mof_P 	P 	0.8081	0.98474	0.52766	0.446
Mof_O 	O 	0.54332	0.87111	0.4211	-0.513
Mof_O 	O 	0.54203	0.89442	0.6671	-0.427
Mof_O 	O 	0.5507	0.76021	0.5852	-0.398
Mof_H 	H 	0.5855	0.7565	0.5766	0.272
Mof_O 	O 	0.39887	0.93312	0.2842	-0.53
Mof_O 	O 	0.40593	0.97218	0.5327	-0.492
Mof_O 	O 	0.32154	0.88421	0.396	-0.441
Mof_H 	H 	0.3073	0.8649	0.3185	0.269
Mof_O 	O 	0.74027	0.98863	0.4404	-0.394
Mof_O 	O 	0.83669	0.74414	0.4474	-0.387
Mof_O 	O 	0.79464	0.85718	0.6421	-0.374
Mof_H 	H 	0.7865	0.81	0.644	0.206
Mof_O 	O 	0.82746	0.02035	0.6703	-0.238
Mof_O 	O 	0.83463	0.85215	0.2918	-0.399
Mof_H 	H 	0.8232	0.8965	0.2719	0.28
Mof_O 	O 	0.85092	0.02083	0.4485	-0.379
Mof_H 	H 	0.8397	0.0048	0.3684	0.268
Mof_O 	O 	0.73478	0.81959	0.3471	-0.379
Mof_O 	O 	0.42403	0.79405	0.6011	-0.275
Mof_H 	H 	0.4345	0.8245	0.666	0.227
Mof_C 	C 	0.43872	0.82587	0.4844	-0.052
Mof_C 	C 	0.42217	0.76612	0.3677	0.03
Mof_C 	C 	0.83133	0.8832	0.5561	-0.049
Mof_C 	C 	0.90211	0.87698	0.6323	0.087
Mof_Sr	Sr	0.16172	0.3973	0.47101	1.523
Mof_P 	P 	0.02342	0.344	0.54018	0.395
Mof_P 	P 	0.89089	0.4127	0.42083	0.465
Mof_P 	P 	0.30572	0.32095	0.40168	0.447
Mof_P 	P 	0.3081	0.48474	0.52766	0.445
Mof_O 	O 	0.04332	0.37111	0.4211	-0.514
Mof_O 	O 	0.04203	0.39442	0.6671	-0.427
Mof_O 	O 	0.0507	0.26021	0.5852	-0.42
Mof_H 	H 	0.0855	0.2565	0.5766	0.277
Mof_O 	O 	0.89887	0.43312	0.2842	-0.499
Mof_O 	O 	0.90593	0.47218	0.5327	-0.458
Mof_O 	O 	0.82154	0.38421	0.396	-0.441
Mof_H 	H 	0.8073	0.3649	0.3185	0.269
Mof_O 	O 	0.24027	0.48863	0.4404	-0.393
Mof_O 	O 	0.33669	0.24414	0.4474	-0.388
Mof_O 	O 	0.29464	0.35718	0.6421	-0.376
Mof_H 	H 	0.2865	0.31	0.644	0.207
Mof_O 	O 	0.32746	0.52035	0.6703	-0.243
Mof_O 	O 	0.33463	0.35215	0.2918	-0.404
Mof_H 	H 	0.3232	0.3965	0.2719	0.28
Mof_O 	O 	0.35092	0.52083	0.4485	-0.389
Mof_H 	H 	0.3397	0.5048	0.3684	0.267
Mof_O 	O 	0.23478	0.31959	0.3471	-0.378
Mof_O 	O 	0.92403	0.29405	0.6011	-0.274
Mof_H 	H 	0.9345	0.3245	0.666	0.243
Mof_C 	C 	0.93872	0.32587	0.4844	-0.001
Mof_C 	C 	0.92217	0.26612	0.3677	0.052
Mof_C 	C 	0.33133	0.3832	0.5561	-0.045
Mof_C 	C 	0.40211	0.37698	0.6323	0.059
Mof_Sr	Sr	0.33828	0.8973	0.02899	1.526
Mof_P 	P 	0.47658	0.844	0.95982	0.444
Mof_P 	P 	0.60911	0.9127	0.07917	0.469
Mof_P 	P 	0.19428	0.82095	0.09832	0.447
Mof_P 	P 	0.1919	0.98474	0.97234	0.442
Mof_O 	O 	0.45668	0.87111	0.0789	-0.512
Mof_O 	O 	0.45797	0.89442	0.8329	-0.427
Mof_O 	O 	0.4493	0.76021	0.9148	-0.398
Mof_H 	H 	0.4145	0.7565	0.9234	0.272
Mof_O 	O 	0.60113	0.93312	0.2158	-0.53
Mof_O 	O 	0.59407	0.97218	0.9673	-0.493
Mof_O 	O 	0.67846	0.88421	0.104	-0.44
Mof_H 	H 	0.6927	0.8649	0.1815	0.269
Mof_O 	O 	0.25973	0.98863	0.0596	-0.393
Mof_O 	O 	0.16331	0.74414	0.0526	-0.388
Mof_O 	O 	0.20536	0.85718	0.8579	-0.378
Mof_H 	H 	0.2135	0.81	0.856	0.207
Mof_O 	O 	0.17254	0.02035	0.8297	-0.251
Mof_O 	O 	0.16537	0.85215	0.2082	-0.41
Mof_H 	H 	0.1768	0.8965	0.2281	0.279
Mof_O 	O 	0.14908	0.02083	0.0515	-0.393
Mof_H 	H 	0.1603	0.0048	0.1316	0.267
Mof_O 	O 	0.26522	0.81959	0.1529	-0.378
Mof_O 	O 	0.57597	0.79405	0.8989	-0.278
Mof_H 	H 	0.5655	0.8245	0.834	0.228
Mof_C 	C 	0.56128	0.82587	0.0156	-0.048
Mof_C 	C 	0.57783	0.76612	0.1323	0.031
Mof_C 	C 	0.16867	0.8832	0.9439	-0.043
Mof_C 	C 	0.09789	0.87698	0.8677	0.032
Mof_Sr	Sr	0.83828	0.3973	0.02899	1.54
Mof_P 	P 	0.97658	0.344	0.95982	0.482
Mof_P 	P 	0.10911	0.4127	0.07917	0.468
Mof_P 	P 	0.69428	0.32095	0.09832	0.449
Mof_P 	P 	0.6919	0.48474	0.97234	0.438
Mof_O 	O 	0.95668	0.37111	0.0789	-0.47
Mof_O 	O 	0.95797	0.39442	0.8329	-0.386
Mof_O 	O 	0.9493	0.26021	0.9148	-0.374
Mof_H 	H 	0.9145	0.2565	0.9234	0.265
Mof_O 	O 	0.10113	0.43312	0.2158	-0.523
Mof_O 	O 	0.09407	0.47218	0.9673	-0.489
Mof_O 	O 	0.17846	0.38421	0.104	-0.436
Mof_H 	H 	0.1927	0.3649	0.1815	0.269
Mof_O 	O 	0.75973	0.48863	0.0596	-0.392
Mof_O 	O 	0.66331	0.24414	0.0526	-0.385
Mof_O 	O 	0.70536	0.35718	0.8579	-0.377
Mof_H 	H 	0.7135	0.31	0.856	0.206
Mof_O 	O 	0.67254	0.52035	0.8297	-0.243
Mof_O 	O 	0.66537	0.35215	0.2082	-0.404
Mof_H 	H 	0.6768	0.3965	0.2281	0.28
Mof_O 	O 	0.64908	0.52083	0.0515	-0.384
Mof_H 	H 	0.6603	0.5048	0.1316	0.266
Mof_O 	O 	0.76522	0.31959	0.1529	-0.379
Mof_O 	O 	0.07597	0.29405	0.8989	-0.286
Mof_H 	H 	0.0655	0.3245	0.834	0.22
Mof_C 	C 	0.06128	0.32587	0.0156	-0.082
Mof_C 	C 	0.07783	0.26612	0.1323	0.011
Mof_C 	C 	0.66867	0.3832	0.9439	-0.048
Mof_C 	C 	0.59789	0.37698	0.8677	0.058
Mof_Sr	Sr	0.5	0.01385	0.75	1.613
Mof_Sr	Sr	-1.50232e-17	0.51385	0.75	1.439
Mof_Sr	Sr	0.5	0.98615	0.25	1.616
Mof_Sr	Sr	5.64656e-34	0.48615	0.25	1.442
_end
