data_functionalizedCrystal
_audit_creation_method	'EQeq! by Chris Wilmer'
_symmetry_space_group_name_H-M	'P1'
_symmetry_Int_Tables_number	1
_symmetry_cell_setting	triclinic
loop_
_symmetry_equiv_pos_as_xyz
  x,y,z
_cell_length_a	16.2798
_cell_length_b	13.9248
_cell_length_c	18.0439
_cell_angle_alpha	90
_cell_angle_beta	106.082
_cell_angle_gamma	90
loop_
_atom_site_label
_atom_site_type_symbol
_atom_site_fract_x
_atom_site_fract_y
_atom_site_fract_z
_atom_site_charge
Mof_Cd	Cd	0.18856	0.29811	0.15835	0.317
Mof_N 	N 	0.23377	0.36799	0.2765	-0.127
Mof_C 	C 	0.24464	0.40816	0.3335	-0.136
Mof_Ag	Ag	0.25097	0.49162	0.42973	0.4
Mof_C 	C 	0.24325	0.5706	0.52439	-0.123
Mof_N 	N 	0.23361	0.61587	0.57412	-0.129
Mof_N 	N 	0.11421	0.16754	0.09809	-0.135
Mof_C 	C 	0.07535	0.10636	0.06337	-0.137
Mof_Ag	Ag	0.92795	0.5252	0.17695	0.393
Mof_C 	C 	0.01142	0.4244	0.15564	-0.151
Mof_N 	N 	0.06325	0.37263	0.14924	-0.127
Mof_C 	C 	0.84994	0.63636	0.19195	-0.129
Mof_N 	N 	0.80265	0.69592	0.19322	-0.124
Mof_Cd	Cd	0.68856	0.79811	0.15835	0.327
Mof_N 	N 	0.73377	0.86799	0.2765	-0.122
Mof_C 	C 	0.74464	0.90816	0.3335	-0.134
Mof_Ag	Ag	0.75097	0.99162	0.42973	0.449
Mof_C 	C 	0.74325	0.0706	0.52439	-0.139
Mof_N 	N 	0.73361	0.11587	0.57412	-0.125
Mof_N 	N 	0.61421	0.66754	0.09809	-0.13
Mof_C 	C 	0.57535	0.60636	0.06337	-0.139
Mof_Ag	Ag	0.42795	0.0252	0.17695	0.322
Mof_C 	C 	0.51142	0.9244	0.15564	-0.108
Mof_N 	N 	0.56325	0.87263	0.14924	-0.133
Mof_C 	C 	0.34994	0.13636	0.19195	-0.127
Mof_N 	N 	0.30265	0.19592	0.19322	-0.13
Mof_Cd	Cd	0.81144	0.29811	0.34165	0.328
Mof_N 	N 	0.76623	0.36799	0.2235	-0.128
Mof_C 	C 	0.75536	0.40816	0.1665	-0.13
Mof_Ag	Ag	0.74903	0.49162	0.07027	0.37
Mof_C 	C 	0.75675	0.5706	0.97561	-0.093
Mof_N 	N 	0.76639	0.61587	0.92588	-0.131
Mof_N 	N 	0.88579	0.16754	0.40191	-0.132
Mof_C 	C 	0.92465	0.10636	0.43663	-0.12
Mof_Ag	Ag	0.07205	0.5252	0.32305	0.326
Mof_C 	C 	0.98858	0.4244	0.34436	-0.103
Mof_N 	N 	0.93675	0.37263	0.35076	-0.131
Mof_C 	C 	0.15006	0.63636	0.30805	-0.123
Mof_N 	N 	0.19735	0.69592	0.30678	-0.129
Mof_Cd	Cd	0.31144	0.79811	0.34165	0.329
Mof_N 	N 	0.26623	0.86799	0.2235	-0.125
Mof_C 	C 	0.25536	0.90816	0.1665	-0.132
Mof_Ag	Ag	0.24903	0.99162	0.07027	0.414
Mof_C 	C 	0.25675	0.0706	0.97561	-0.115
Mof_N 	N 	0.26639	0.11587	0.92588	-0.128
Mof_N 	N 	0.38579	0.66754	0.40191	-0.127
Mof_C 	C 	0.42465	0.60636	0.43663	-0.142
Mof_Ag	Ag	0.57205	0.0252	0.32305	0.327
Mof_C 	C 	0.48858	0.9244	0.34436	-0.105
Mof_N 	N 	0.43675	0.87263	0.35076	-0.131
Mof_C 	C 	0.65006	0.13636	0.30805	-0.126
Mof_N 	N 	0.69735	0.19592	0.30678	-0.129
Mof_Cd	Cd	0.81144	0.70189	0.84165	0.337
Mof_N 	N 	0.76623	0.63201	0.7235	-0.125
Mof_C 	C 	0.75536	0.59184	0.6665	-0.133
Mof_Ag	Ag	0.74903	0.50838	0.57027	0.402
Mof_C 	C 	0.75675	0.4294	0.47561	-0.121
Mof_N 	N 	0.76639	0.38413	0.42588	-0.128
Mof_N 	N 	0.88579	0.83246	0.90191	-0.135
Mof_C 	C 	0.92465	0.89364	0.93663	-0.078
Mof_Ag	Ag	0.07205	0.4748	0.82305	0.329
Mof_C 	C 	0.98858	0.5756	0.84436	-0.099
Mof_N 	N 	0.93675	0.62737	0.85076	-0.129
Mof_C 	C 	0.15006	0.36364	0.80805	-0.123
Mof_N 	N 	0.19735	0.30408	0.80678	-0.128
Mof_Cd	Cd	0.31144	0.20189	0.84165	0.327
Mof_N 	N 	0.26623	0.13201	0.7235	-0.129
Mof_C 	C 	0.25536	0.09184	0.6665	-0.134
Mof_Ag	Ag	0.24903	0.00838	0.57027	0.362
Mof_C 	C 	0.25675	0.9294	0.47561	-0.103
Mof_N 	N 	0.26639	0.88413	0.42588	-0.131
Mof_N 	N 	0.38579	0.33246	0.90191	-0.13
Mof_C 	C 	0.42465	0.39364	0.93663	-0.118
Mof_Ag	Ag	0.57205	0.9748	0.82305	0.396
Mof_C 	C 	0.48858	0.0756	0.84436	-0.14
Mof_N 	N 	0.43675	0.12737	0.85076	-0.125
Mof_C 	C 	0.65006	0.86364	0.80805	-0.126
Mof_N 	N 	0.69735	0.80408	0.80678	-0.123
Mof_Cd	Cd	0.18856	0.70189	0.65835	0.327
Mof_N 	N 	0.23377	0.63201	0.7765	-0.124
Mof_C 	C 	0.24464	0.59184	0.8335	-0.138
Mof_Ag	Ag	0.25097	0.50838	0.92973	0.439
Mof_C 	C 	0.24325	0.4294	0.02439	-0.15
Mof_N 	N 	0.23361	0.38413	0.07412	-0.126
Mof_N 	N 	0.11421	0.83246	0.59809	-0.131
Mof_C 	C 	0.07535	0.89364	0.56337	-0.118
Mof_Ag	Ag	0.92795	0.4748	0.67695	0.398
Mof_C 	C 	0.01142	0.5756	0.65564	-0.147
Mof_N 	N 	0.06325	0.62737	0.64924	-0.125
Mof_C 	C 	0.84994	0.36364	0.69195	-0.128
Mof_N 	N 	0.80265	0.30408	0.69322	-0.124
Mof_Cd	Cd	0.68856	0.20189	0.65835	0.325
Mof_N 	N 	0.73377	0.13201	0.7765	-0.125
Mof_C 	C 	0.74464	0.09184	0.8335	-0.135
Mof_Ag	Ag	0.75097	0.00838	0.92973	0.412
Mof_C 	C 	0.74325	0.9294	0.02439	-0.128
Mof_N 	N 	0.73361	0.88413	0.07412	-0.127
Mof_N 	N 	0.61421	0.33246	0.59809	-0.127
Mof_C 	C 	0.57535	0.39364	0.56337	-0.143
Mof_Ag	Ag	0.42795	0.9748	0.67695	0.395
Mof_C 	C 	0.51142	0.0756	0.65564	-0.145
Mof_N 	N 	0.56325	0.12737	0.64924	-0.126
Mof_C 	C 	0.34994	0.86364	0.69195	-0.126
Mof_N 	N 	0.30265	0.80408	0.69322	-0.124
Mof_Ag	Ag	-0	0	-0	0.3
Mof_Ag	Ag	0.5	0.5	-0	0.364
Mof_Ag	Ag	2.89254e-17	-6.42272e-33	0.5	0.339
Mof_Ag	Ag	0.5	0.5	0.5	0.406
_end
