data_functionalizedCrystal
_audit_creation_method	'EQeq! by Chris Wilmer'
_symmetry_space_group_name_H-M	'P1'
_symmetry_Int_Tables_number	1
_symmetry_cell_setting	triclinic
loop_
_symmetry_equiv_pos_as_xyz
  x,y,z
_cell_length_a	17.551
_cell_length_b	21.148
_cell_length_c	25.356
_cell_angle_alpha	90
_cell_angle_beta	90
_cell_angle_gamma	90
loop_
_atom_site_label
_atom_site_type_symbol
_atom_site_fract_x
_atom_site_fract_y
_atom_site_fract_z
_atom_site_charge
Mof_Co	Co	0.00325	0.93621	0.68079	1.161
Mof_Co	Co	0.49675	0.43621	0.31921	1.162
Mof_Co	Co	0.00325	0.93621	0.81921	1.161
Mof_Co	Co	0.49675	0.43621	0.18079	1.162
Mof_Co	Co	0.38723	0.33676	0.25	1.171
Mof_Co	Co	0.11277	0.83676	0.75	1.171
Mof_H 	H 	0.403	0.1892	0.3621	0.023
Mof_H 	H 	0.6174	0.1084	0.5177	0.069
Mof_H 	H 	0.301	0.0805	0.576	0.071
Mof_H 	H 	0.5165	0.9889	0.6184	0.065
Mof_H 	H 	0.576	0.2164	0.4978	0.073
Mof_H 	H 	0.5649	0.292	0.4326	0.031
Mof_H 	H 	0.1904	0.039	0.612	0.027
Mof_H 	H 	0.412	0.114	0.427	0.075
Mof_H 	H 	0.4154	0.9253	0.6203	0.076
Mof_H 	H 	0.3063	0.886	0.6591	0.026
Mof_H 	H 	0.7409	0.9635	0.6896	0.034
Mof_H 	H 	0.3899	0.0886	0.5164	0.068
Mof_H 	H 	0.6266	0.9986	0.6627	0.069
Mof_H 	H 	0.7109	0.0333	0.5196	0.071
Mof_H 	H 	0.8301	0.0126	0.5514	0.037
Mof_H 	H 	0.097	0.6892	0.6379	0.024
Mof_H 	H 	0.8826	0.6084	0.4823	0.071
Mof_H 	H 	0.199	0.5805	0.424	0.071
Mof_H 	H 	0.9835	0.4889	0.3816	0.067
Mof_H 	H 	0.924	0.7164	0.5022	0.072
Mof_H 	H 	0.9351	0.792	0.5674	0.031
Mof_H 	H 	0.3096	0.539	0.388	0.028
Mof_H 	H 	0.088	0.614	0.573	0.075
Mof_H 	H 	0.0846	0.4253	0.3797	0.075
Mof_H 	H 	0.1937	0.386	0.3409	0.027
Mof_H 	H 	0.7591	0.4635	0.3104	0.035
Mof_H 	H 	0.1101	0.5886	0.4836	0.069
Mof_H 	H 	0.8734	0.4986	0.3373	0.067
Mof_H 	H 	0.7891	0.5333	0.4804	0.071
Mof_H 	H 	0.6699	0.5126	0.4486	0.037
Mof_H 	H 	0.403	0.1892	0.1379	0.024
Mof_H 	H 	0.6174	0.1084	0.9823	0.07
Mof_H 	H 	0.301	0.0805	0.924	0.072
Mof_H 	H 	0.5165	0.9889	0.8816	0.066
Mof_H 	H 	0.576	0.2164	0.0022	0.072
Mof_H 	H 	0.5649	0.292	0.0674	0.031
Mof_H 	H 	0.1904	0.039	0.888	0.027
Mof_H 	H 	0.412	0.114	0.073	0.075
Mof_H 	H 	0.4154	0.9253	0.8797	0.076
Mof_H 	H 	0.3063	0.886	0.8409	0.026
Mof_H 	H 	0.7409	0.9635	0.8104	0.034
Mof_H 	H 	0.3899	0.0886	0.9836	0.068
Mof_H 	H 	0.6266	0.9986	0.8373	0.069
Mof_H 	H 	0.7109	0.0333	0.9804	0.071
Mof_H 	H 	0.8301	0.0126	0.9486	0.037
Mof_H 	H 	0.097	0.6892	0.8621	0.024
Mof_H 	H 	0.8826	0.6084	0.0177	0.07
Mof_H 	H 	0.199	0.5805	0.076	0.071
Mof_H 	H 	0.9835	0.4889	0.1184	0.067
Mof_H 	H 	0.924	0.7164	0.9978	0.072
Mof_H 	H 	0.9351	0.792	0.9326	0.031
Mof_H 	H 	0.3096	0.539	0.112	0.028
Mof_H 	H 	0.088	0.614	0.927	0.075
Mof_H 	H 	0.0846	0.4253	0.1203	0.075
Mof_H 	H 	0.1937	0.386	0.1591	0.027
Mof_H 	H 	0.7591	0.4635	0.1896	0.035
Mof_H 	H 	0.1101	0.5886	0.0164	0.069
Mof_H 	H 	0.8734	0.4986	0.1627	0.067
Mof_H 	H 	0.7891	0.5333	0.0196	0.071
Mof_H 	H 	0.6699	0.5126	0.0514	0.037
Mof_C 	C 	0.5793	0.0446	0.57067	0.041
Mof_C 	C 	0.8778	0.96948	0.6488	0.338
Mof_C 	C 	0.4375	0.19484	0.38949	0.053
Mof_C 	C 	0.50298	0.1073	0.51048	0.04
Mof_C 	C 	0.5734	0.08968	0.53087	-0.108
Mof_C 	C 	0.482	0.2492	0.39093	-0.126
Mof_C 	C 	0.3022	0.0411	0.59229	-0.119
Mof_C 	C 	0.6557	0.0253	0.59005	0.042
Mof_C 	C 	0.7999	0.98897	0.62656	-0.096
Mof_C 	C 	0.4964	0.1549	0.46815	0.049
Mof_C 	C 	0.513	0.0181	0.59107	-0.106
Mof_C 	C 	0.237	0.95906	0.63982	-0.133
Mof_C 	C 	0.5415	0.21055	0.47031	-0.115
Mof_C 	C 	0.3707	0.0073	0.59423	0.051
Mof_C 	C 	0.4727	0.29957	0.3499	0.393
Mof_C 	C 	0.5342	0.25611	0.43147	0.051
Mof_C 	C 	0.2358	0.01649	0.61442	0.054
Mof_C 	C 	0.4437	0.14915	0.42804	-0.123
Mof_C 	C 	0.1658	0.93375	0.66609	0.405
Mof_C 	C 	0.4413	0.03444	0.57136	0.04
Mof_C 	C 	0.3707	0.94881	0.61905	-0.122
Mof_C 	C 	0.305	0.92493	0.64209	0.054
Mof_C 	C 	0.7367	0.9821	0.65651	0.038
Mof_C 	C 	0.4371	0.07828	0.53058	-0.105
Mof_C 	C 	0.6677	0.0015	0.63973	-0.115
Mof_C 	C 	0.7178	0.0241	0.5552	-0.108
Mof_C 	C 	0.7883	0.0093	0.5739	0.03
Mof_C 	C 	0.9207	0.5446	0.42933	0.043
Mof_C 	C 	0.6222	0.46948	0.3512	0.338
Mof_C 	C 	0.0625	0.69484	0.61051	0.053
Mof_C 	C 	0.99702	0.6073	0.48952	0.043
Mof_C 	C 	0.9266	0.58968	0.46913	-0.11
Mof_C 	C 	0.018	0.7492	0.60907	-0.127
Mof_C 	C 	0.1978	0.5411	0.40771	-0.116
Mof_C 	C 	0.8443	0.5253	0.40995	0.04
Mof_C 	C 	0.7001	0.48897	0.37344	-0.097
Mof_C 	C 	0.0036	0.6549	0.53185	0.046
Mof_C 	C 	0.987	0.5181	0.40893	-0.108
Mof_C 	C 	0.263	0.45906	0.36018	-0.13
Mof_C 	C 	0.9585	0.71055	0.52969	-0.114
Mof_C 	C 	0.1293	0.5073	0.40577	0.048
Mof_C 	C 	0.0273	0.79957	0.6501	0.393
Mof_C 	C 	0.9658	0.75611	0.56853	0.052
Mof_C 	C 	0.2642	0.51649	0.38558	0.049
Mof_C 	C 	0.0563	0.64915	0.57196	-0.122
Mof_C 	C 	0.3342	0.43375	0.33391	0.403
Mof_C 	C 	0.0587	0.53444	0.42864	0.042
Mof_C 	C 	0.1293	0.44881	0.38095	-0.118
Mof_C 	C 	0.195	0.42493	0.35791	0.05
Mof_C 	C 	0.7633	0.4821	0.34349	0.035
Mof_C 	C 	0.0629	0.57828	0.46942	-0.108
Mof_C 	C 	0.8323	0.5015	0.36027	-0.11
Mof_C 	C 	0.7822	0.5241	0.4448	-0.107
Mof_C 	C 	0.7117	0.5093	0.4261	0.031
Mof_C 	C 	0.5793	0.0446	0.92933	0.041
Mof_C 	C 	0.8778	0.96948	0.8512	0.338
Mof_C 	C 	0.4375	0.19484	0.11051	0.053
Mof_C 	C 	0.50298	0.1073	0.98952	0.04
Mof_C 	C 	0.5734	0.08968	0.96913	-0.108
Mof_C 	C 	0.482	0.2492	0.10907	-0.126
Mof_C 	C 	0.3022	0.0411	0.90771	-0.119
Mof_C 	C 	0.6557	0.0253	0.90995	0.042
Mof_C 	C 	0.7999	0.98897	0.87344	-0.096
Mof_C 	C 	0.4964	0.1549	0.03185	0.048
Mof_C 	C 	0.513	0.0181	0.90893	-0.106
Mof_C 	C 	0.237	0.95906	0.86018	-0.134
Mof_C 	C 	0.5415	0.21055	0.02969	-0.115
Mof_C 	C 	0.3707	0.0073	0.90577	0.051
Mof_C 	C 	0.4727	0.29957	0.1501	0.393
Mof_C 	C 	0.5342	0.25611	0.06853	0.051
Mof_C 	C 	0.2358	0.01649	0.88558	0.054
Mof_C 	C 	0.4437	0.14915	0.07196	-0.123
Mof_C 	C 	0.1658	0.93375	0.83391	0.405
Mof_C 	C 	0.4413	0.03444	0.92864	0.04
Mof_C 	C 	0.3707	0.94881	0.88095	-0.122
Mof_C 	C 	0.305	0.92493	0.85791	0.054
Mof_C 	C 	0.7367	0.9821	0.84349	0.038
Mof_C 	C 	0.4371	0.07828	0.96942	-0.105
Mof_C 	C 	0.6677	0.0015	0.86027	-0.114
Mof_C 	C 	0.7178	0.0241	0.9448	-0.108
Mof_C 	C 	0.7883	0.0093	0.9261	0.03
Mof_C 	C 	0.9207	0.5446	0.07067	0.043
Mof_C 	C 	0.6222	0.46948	0.1488	0.338
Mof_C 	C 	0.0625	0.69484	0.88949	0.053
Mof_C 	C 	0.99702	0.6073	0.01048	0.042
Mof_C 	C 	0.9266	0.58968	0.03087	-0.11
Mof_C 	C 	0.018	0.7492	0.89093	-0.128
Mof_C 	C 	0.1978	0.5411	0.09229	-0.116
Mof_C 	C 	0.8443	0.5253	0.09005	0.04
Mof_C 	C 	0.7001	0.48897	0.12656	-0.096
Mof_C 	C 	0.0036	0.6549	0.96815	0.045
Mof_C 	C 	0.987	0.5181	0.09107	-0.109
Mof_C 	C 	0.263	0.45906	0.13982	-0.13
Mof_C 	C 	0.9585	0.71055	0.97031	-0.113
Mof_C 	C 	0.1293	0.5073	0.09423	0.048
Mof_C 	C 	0.0273	0.79957	0.8499	0.393
Mof_C 	C 	0.9658	0.75611	0.93147	0.053
Mof_C 	C 	0.2642	0.51649	0.11442	0.049
Mof_C 	C 	0.0563	0.64915	0.92804	-0.122
Mof_C 	C 	0.3342	0.43375	0.16609	0.403
Mof_C 	C 	0.0587	0.53444	0.07136	0.043
Mof_C 	C 	0.1293	0.44881	0.11905	-0.118
Mof_C 	C 	0.195	0.42493	0.14209	0.051
Mof_C 	C 	0.7633	0.4821	0.15651	0.035
Mof_C 	C 	0.0629	0.57828	0.03058	-0.106
Mof_C 	C 	0.8323	0.5015	0.13973	-0.11
Mof_C 	C 	0.7822	0.5241	0.0552	-0.107
Mof_C 	C 	0.7117	0.5093	0.0739	0.031
Mof_O 	O 	0.10643	0.96579	0.66042	-0.474
Mof_O 	O 	0.43878	0.28345	0.30852	-0.427
Mof_O 	O 	0.4997	0.35284	0.36076	-0.422
Mof_O 	O 	0.17289	0.88467	0.69265	-0.461
Mof_O 	O 	0.8792	0.93487	0.68598	-0.389
Mof_O 	O 	0.9351	0.98831	0.6249	-0.386
Mof_O 	O 	0.39357	0.46579	0.33958	-0.473
Mof_O 	O 	0.06122	0.78345	0.69148	-0.427
Mof_O 	O 	0.0003	0.85284	0.63924	-0.423
Mof_O 	O 	0.32711	0.38467	0.30735	-0.46
Mof_O 	O 	0.6208	0.43487	0.31402	-0.39
Mof_O 	O 	0.5649	0.48831	0.3751	-0.387
Mof_O 	O 	0.10643	0.96579	0.83958	-0.474
Mof_O 	O 	0.43878	0.28345	0.19148	-0.427
Mof_O 	O 	0.4997	0.35284	0.13924	-0.422
Mof_O 	O 	0.17289	0.88467	0.80735	-0.461
Mof_O 	O 	0.8792	0.93487	0.81402	-0.389
Mof_O 	O 	0.9351	0.98831	0.8751	-0.386
Mof_O 	O 	0.39357	0.46579	0.16042	-0.473
Mof_O 	O 	0.06122	0.78345	0.80852	-0.428
Mof_O 	O 	0.0003	0.85284	0.86076	-0.423
Mof_O 	O 	0.32711	0.38467	0.19265	-0.46
Mof_O 	O 	0.6208	0.43487	0.18598	-0.39
Mof_O 	O 	0.5649	0.48831	0.1249	-0.387
Mof_O 	O 	0.48423	0.39301	0.25	-0.616
Mof_O 	O 	0.01577	0.89301	0.75	-0.616
Mof_Co	Co	0.99675	0.06379	0.18079	1.162
Mof_Co	Co	0.50325	0.56379	0.81921	1.163
Mof_Co	Co	0.99675	0.06379	0.31921	1.162
Mof_Co	Co	0.50325	0.56379	0.68079	1.163
Mof_Co	Co	0.61277	0.66324	0.75	1.172
Mof_Co	Co	0.88723	0.16324	0.25	1.172
Mof_H 	H 	0.597	0.8108	0.8621	0.024
Mof_H 	H 	0.3826	0.8916	0.0177	0.07
Mof_H 	H 	0.699	0.9195	0.076	0.072
Mof_H 	H 	0.4835	0.0111	0.1184	0.066
Mof_H 	H 	0.424	0.7836	0.9978	0.072
Mof_H 	H 	0.4351	0.708	0.9326	0.031
Mof_H 	H 	0.8096	0.961	0.112	0.027
Mof_H 	H 	0.588	0.886	0.927	0.075
Mof_H 	H 	0.5846	0.0747	0.1203	0.076
Mof_H 	H 	0.6937	0.114	0.1591	0.026
Mof_H 	H 	0.2591	0.0365	0.1896	0.034
Mof_H 	H 	0.6101	0.9114	0.0164	0.068
Mof_H 	H 	0.3734	0.0014	0.1627	0.069
Mof_H 	H 	0.2891	0.9667	0.0196	0.071
Mof_H 	H 	0.1699	0.9874	0.0514	0.037
Mof_H 	H 	0.903	0.3108	0.1379	0.024
Mof_H 	H 	0.1174	0.3916	0.9823	0.07
Mof_H 	H 	0.801	0.4195	0.924	0.071
Mof_H 	H 	0.0165	0.5111	0.8816	0.067
Mof_H 	H 	0.076	0.2836	0.0022	0.072
Mof_H 	H 	0.0649	0.208	0.0674	0.031
Mof_H 	H 	0.6904	0.461	0.888	0.028
Mof_H 	H 	0.912	0.386	0.073	0.075
Mof_H 	H 	0.9154	0.5747	0.8797	0.075
Mof_H 	H 	0.8063	0.614	0.8409	0.027
Mof_H 	H 	0.2409	0.5365	0.8104	0.035
Mof_H 	H 	0.8899	0.4114	0.9836	0.069
Mof_H 	H 	0.1266	0.5014	0.8373	0.067
Mof_H 	H 	0.2109	0.4667	0.9804	0.071
Mof_H 	H 	0.3301	0.4874	0.9486	0.037
Mof_H 	H 	0.597	0.8108	0.6379	0.024
Mof_H 	H 	0.3826	0.8916	0.4823	0.07
Mof_H 	H 	0.699	0.9195	0.424	0.072
Mof_H 	H 	0.4835	0.0111	0.3816	0.066
Mof_H 	H 	0.424	0.7836	0.5022	0.073
Mof_H 	H 	0.4351	0.708	0.5674	0.031
Mof_H 	H 	0.8096	0.961	0.388	0.027
Mof_H 	H 	0.588	0.886	0.573	0.075
Mof_H 	H 	0.5846	0.0747	0.3797	0.076
Mof_H 	H 	0.6937	0.114	0.3409	0.026
Mof_H 	H 	0.2591	0.0365	0.3104	0.034
Mof_H 	H 	0.6101	0.9114	0.4836	0.068
Mof_H 	H 	0.3734	0.0014	0.3373	0.069
Mof_H 	H 	0.2891	0.9667	0.4804	0.071
Mof_H 	H 	0.1699	0.9874	0.4486	0.037
Mof_H 	H 	0.903	0.3108	0.3621	0.024
Mof_H 	H 	0.1174	0.3916	0.5177	0.071
Mof_H 	H 	0.801	0.4195	0.576	0.071
Mof_H 	H 	0.0165	0.5111	0.6184	0.067
Mof_H 	H 	0.076	0.2836	0.4978	0.072
Mof_H 	H 	0.0649	0.208	0.4326	0.031
Mof_H 	H 	0.6904	0.461	0.612	0.028
Mof_H 	H 	0.912	0.386	0.427	0.075
Mof_H 	H 	0.9154	0.5747	0.6203	0.075
Mof_H 	H 	0.8063	0.614	0.6591	0.027
Mof_H 	H 	0.2409	0.5365	0.6896	0.035
Mof_H 	H 	0.8899	0.4114	0.5164	0.069
Mof_H 	H 	0.1266	0.5014	0.6627	0.067
Mof_H 	H 	0.2109	0.4667	0.5196	0.071
Mof_H 	H 	0.3301	0.4874	0.5514	0.037
Mof_C 	C 	0.4207	0.9554	0.07067	0.041
Mof_C 	C 	0.1222	0.03052	0.1488	0.338
Mof_C 	C 	0.5625	0.80516	0.88949	0.053
Mof_C 	C 	0.49702	0.8927	0.01048	0.04
Mof_C 	C 	0.4266	0.91032	0.03087	-0.108
Mof_C 	C 	0.518	0.7508	0.89093	-0.126
Mof_C 	C 	0.6978	0.9589	0.09229	-0.119
Mof_C 	C 	0.3443	0.9747	0.09005	0.042
Mof_C 	C 	0.2001	0.01103	0.12656	-0.096
Mof_C 	C 	0.5036	0.8451	0.96815	0.048
Mof_C 	C 	0.487	0.9819	0.09107	-0.106
Mof_C 	C 	0.763	0.04094	0.13982	-0.134
Mof_C 	C 	0.4585	0.78945	0.97031	-0.115
Mof_C 	C 	0.6293	0.9927	0.09423	0.051
Mof_C 	C 	0.5273	0.70043	0.8499	0.393
Mof_C 	C 	0.4658	0.74389	0.93147	0.051
Mof_C 	C 	0.7642	0.98351	0.11442	0.054
Mof_C 	C 	0.5563	0.85085	0.92804	-0.123
Mof_C 	C 	0.8342	0.06625	0.16609	0.405
Mof_C 	C 	0.5587	0.96556	0.07136	0.04
Mof_C 	C 	0.6293	0.05119	0.11905	-0.122
Mof_C 	C 	0.695	0.07507	0.14209	0.054
Mof_C 	C 	0.2633	0.0179	0.15651	0.038
Mof_C 	C 	0.5629	0.92172	0.03058	-0.105
Mof_C 	C 	0.3323	0.9985	0.13973	-0.114
Mof_C 	C 	0.2822	0.9759	0.0552	-0.108
Mof_C 	C 	0.2117	0.9907	0.0739	0.03
Mof_C 	C 	0.0793	0.4554	0.92933	0.043
Mof_C 	C 	0.3778	0.53052	0.8512	0.338
Mof_C 	C 	0.9375	0.30516	0.11051	0.053
Mof_C 	C 	0.00298	0.3927	0.98952	0.042
Mof_C 	C 	0.0734	0.41032	0.96913	-0.11
Mof_C 	C 	0.982	0.2508	0.10907	-0.128
Mof_C 	C 	0.8022	0.4589	0.90771	-0.116
Mof_C 	C 	0.1557	0.4747	0.90995	0.04
Mof_C 	C 	0.2999	0.51103	0.87344	-0.096
Mof_C 	C 	0.9964	0.3451	0.03185	0.045
Mof_C 	C 	0.013	0.4819	0.90893	-0.109
Mof_C 	C 	0.737	0.54094	0.86018	-0.13
Mof_C 	C 	0.0415	0.28945	0.02969	-0.113
Mof_C 	C 	0.8707	0.4927	0.90577	0.048
Mof_C 	C 	0.9727	0.20043	0.1501	0.393
Mof_C 	C 	0.0342	0.24389	0.06853	0.053
Mof_C 	C 	0.7358	0.48351	0.88558	0.049
Mof_C 	C 	0.9437	0.35085	0.07196	-0.122
Mof_C 	C 	0.6658	0.56625	0.83391	0.403
Mof_C 	C 	0.9413	0.46556	0.92864	0.043
Mof_C 	C 	0.8707	0.55119	0.88095	-0.118
Mof_C 	C 	0.805	0.57507	0.85791	0.051
Mof_C 	C 	0.2367	0.5179	0.84349	0.035
Mof_C 	C 	0.9371	0.42172	0.96942	-0.106
Mof_C 	C 	0.1677	0.4985	0.86027	-0.11
Mof_C 	C 	0.2178	0.4759	0.9448	-0.107
Mof_C 	C 	0.2883	0.4907	0.9261	0.031
Mof_C 	C 	0.4207	0.9554	0.42933	0.041
Mof_C 	C 	0.1222	0.03052	0.3512	0.338
Mof_C 	C 	0.5625	0.80516	0.61051	0.053
Mof_C 	C 	0.49702	0.8927	0.48952	0.04
Mof_C 	C 	0.4266	0.91032	0.46913	-0.108
Mof_C 	C 	0.518	0.7508	0.60907	-0.126
Mof_C 	C 	0.6978	0.9589	0.40771	-0.119
Mof_C 	C 	0.3443	0.9747	0.40995	0.042
Mof_C 	C 	0.2001	0.01103	0.37344	-0.096
Mof_C 	C 	0.5036	0.8451	0.53185	0.049
Mof_C 	C 	0.487	0.9819	0.40893	-0.106
Mof_C 	C 	0.763	0.04094	0.36018	-0.133
Mof_C 	C 	0.4585	0.78945	0.52969	-0.115
Mof_C 	C 	0.6293	0.9927	0.40577	0.051
Mof_C 	C 	0.5273	0.70043	0.6501	0.393
Mof_C 	C 	0.4658	0.74389	0.56853	0.051
Mof_C 	C 	0.7642	0.98351	0.38558	0.054
Mof_C 	C 	0.5563	0.85085	0.57196	-0.123
Mof_C 	C 	0.8342	0.06625	0.33391	0.405
Mof_C 	C 	0.5587	0.96556	0.42864	0.04
Mof_C 	C 	0.6293	0.05119	0.38095	-0.122
Mof_C 	C 	0.695	0.07507	0.35791	0.054
Mof_C 	C 	0.2633	0.0179	0.34349	0.038
Mof_C 	C 	0.5629	0.92172	0.46942	-0.105
Mof_C 	C 	0.3323	0.9985	0.36027	-0.115
Mof_C 	C 	0.2822	0.9759	0.4448	-0.108
Mof_C 	C 	0.2117	0.9907	0.4261	0.03
Mof_C 	C 	0.0793	0.4554	0.57067	0.043
Mof_C 	C 	0.3778	0.53052	0.6488	0.338
Mof_C 	C 	0.9375	0.30516	0.38949	0.053
Mof_C 	C 	0.00298	0.3927	0.51048	0.043
Mof_C 	C 	0.0734	0.41032	0.53087	-0.11
Mof_C 	C 	0.982	0.2508	0.39093	-0.127
Mof_C 	C 	0.8022	0.4589	0.59229	-0.116
Mof_C 	C 	0.1557	0.4747	0.59005	0.04
Mof_C 	C 	0.2999	0.51103	0.62656	-0.097
Mof_C 	C 	0.9964	0.3451	0.46815	0.046
Mof_C 	C 	0.013	0.4819	0.59107	-0.108
Mof_C 	C 	0.737	0.54094	0.63982	-0.13
Mof_C 	C 	0.0415	0.28945	0.47031	-0.114
Mof_C 	C 	0.8707	0.4927	0.59423	0.048
Mof_C 	C 	0.9727	0.20043	0.3499	0.393
Mof_C 	C 	0.0342	0.24389	0.43147	0.052
Mof_C 	C 	0.7358	0.48351	0.61442	0.049
Mof_C 	C 	0.9437	0.35085	0.42804	-0.122
Mof_C 	C 	0.6658	0.56625	0.66609	0.403
Mof_C 	C 	0.9413	0.46556	0.57136	0.042
Mof_C 	C 	0.8707	0.55119	0.61905	-0.118
Mof_C 	C 	0.805	0.57507	0.64209	0.05
Mof_C 	C 	0.2367	0.5179	0.65651	0.035
Mof_C 	C 	0.9371	0.42172	0.53058	-0.108
Mof_C 	C 	0.1677	0.4985	0.63973	-0.11
Mof_C 	C 	0.2178	0.4759	0.5552	-0.107
Mof_C 	C 	0.2883	0.4907	0.5739	0.031
Mof_O 	O 	0.89357	0.03421	0.16042	-0.474
Mof_O 	O 	0.56122	0.71655	0.80852	-0.427
Mof_O 	O 	0.5003	0.64716	0.86076	-0.422
Mof_O 	O 	0.82711	0.11533	0.19265	-0.461
Mof_O 	O 	0.1208	0.06513	0.18598	-0.389
Mof_O 	O 	0.0649	0.01169	0.1249	-0.386
Mof_O 	O 	0.60643	0.53421	0.83958	-0.473
Mof_O 	O 	0.93878	0.21655	0.19148	-0.428
Mof_O 	O 	0.9997	0.14716	0.13924	-0.423
Mof_O 	O 	0.67289	0.61533	0.80735	-0.46
Mof_O 	O 	0.3792	0.56513	0.81402	-0.39
Mof_O 	O 	0.4351	0.51169	0.8751	-0.387
Mof_O 	O 	0.89357	0.03421	0.33958	-0.474
Mof_O 	O 	0.56122	0.71655	0.69148	-0.427
Mof_O 	O 	0.5003	0.64716	0.63924	-0.422
Mof_O 	O 	0.82711	0.11533	0.30735	-0.461
Mof_O 	O 	0.1208	0.06513	0.31402	-0.389
Mof_O 	O 	0.0649	0.01169	0.3751	-0.386
Mof_O 	O 	0.60643	0.53421	0.66042	-0.473
Mof_O 	O 	0.93878	0.21655	0.30852	-0.427
Mof_O 	O 	0.9997	0.14716	0.36076	-0.423
Mof_O 	O 	0.67289	0.61533	0.69265	-0.46
Mof_O 	O 	0.3792	0.56513	0.68598	-0.39
Mof_O 	O 	0.4351	0.51169	0.6249	-0.387
Mof_O 	O 	0.51577	0.60699	0.75	-0.616
Mof_O 	O 	0.98423	0.10699	0.25	-0.616
_end
