data_functionalizedCrystal
_audit_creation_method	'EQeq! by Chris Wilmer'
_symmetry_space_group_name_H-M	'P1'
_symmetry_Int_Tables_number	1
_symmetry_cell_setting	triclinic
loop_
_symmetry_equiv_pos_as_xyz
  x,y,z
_cell_length_a	6.9448
_cell_length_b	15.1304
_cell_length_c	15.1304
_cell_angle_alpha	62.2971
_cell_angle_beta	81.1992
_cell_angle_gamma	98.8008
loop_
_atom_site_label
_atom_site_type_symbol
_atom_site_fract_x
_atom_site_fract_y
_atom_site_fract_z
_atom_site_charge
Mof_Fe	Fe	0.8763	0.6803	0.5801	0.821
Mof_Fe	Fe	0.4564	0.5801	0.7396	0.821
Mof_Fe	Fe	0.196	0.7396	0.6803	0.82
Mof_Fe	Fe	0.1237	0.3197	0.4199	0.821
Mof_Fe	Fe	0.5436	0.4199	0.2604	0.821
Mof_Fe	Fe	0.804	0.2604	0.3197	0.82
Mof_H 	H 	0.6439	0.0089	0.5472	0.051
Mof_H 	H 	0.1911	0.5472	0.4439	0.051
Mof_H 	H 	0.635	0.4439	0.0089	0.051
Mof_H 	H 	0.3561	0.9911	0.4528	0.051
Mof_H 	H 	0.8089	0.4528	0.5561	0.051
Mof_H 	H 	0.365	0.5561	0.9911	0.051
Mof_C 	C 	0.6587	0.8286	0.603	0.335
Mof_C 	C 	0.8394	0.9173	0.5528	-0.163
Mof_C 	C 	0.0258	0.893	0.5453	0.157
Mof_C 	C 	0.8149	0.0123	0.5191	-0.032
Mof_C 	C 	0.2617	0.603	0.5684	0.335
Mof_C 	C 	0.3922	0.5528	0.5299	-0.163
Mof_C 	C 	0.5711	0.5453	0.5617	0.157
Mof_C 	C 	0.334	0.5191	0.4686	-0.032
Mof_C 	C 	0.8301	0.5684	0.8286	0.335
Mof_C 	C 	0.9221	0.5299	0.9173	-0.161
Mof_C 	C 	0.1328	0.5617	0.893	0.156
Mof_C 	C 	0.8026	0.4686	0.0123	-0.033
Mof_C 	C 	0.3413	0.1714	0.397	0.335
Mof_C 	C 	0.1606	0.0827	0.4472	-0.163
Mof_C 	C 	0.9742	0.107	0.4547	0.157
Mof_C 	C 	0.1851	0.9877	0.4809	-0.032
Mof_C 	C 	0.7383	0.397	0.4316	0.335
Mof_C 	C 	0.6078	0.4472	0.4701	-0.163
Mof_C 	C 	0.4289	0.4547	0.4383	0.157
Mof_C 	C 	0.666	0.4809	0.5314	-0.032
Mof_C 	C 	0.1699	0.4316	0.1714	0.335
Mof_C 	C 	0.0779	0.4701	0.0827	-0.161
Mof_C 	C 	0.8672	0.4383	0.107	0.156
Mof_C 	C 	0.1974	0.5314	0.9877	-0.033
Mof_O 	O 	0.6683	0.7304	0.6587	-0.389
Mof_O 	O 	0.4798	0.8372	0.6245	-0.36
Mof_O 	O 	0.0771	0.8015	0.5651	-0.42
Mof_O 	O 	0.327	0.6587	0.6109	-0.389
Mof_O 	O 	0.1043	0.6245	0.5383	-0.36
Mof_O 	O 	0.6422	0.5651	0.6334	-0.42
Mof_O 	O 	0.9379	0.6109	0.7304	-0.389
Mof_O 	O 	0.6426	0.5383	0.8372	-0.359
Mof_O 	O 	0.2756	0.6334	0.8015	-0.42
Mof_O 	O 	0.3317	0.2696	0.3413	-0.389
Mof_O 	O 	0.5202	0.1628	0.3755	-0.36
Mof_O 	O 	0.9229	0.1985	0.4349	-0.42
Mof_O 	O 	0.673	0.3413	0.3891	-0.389
Mof_O 	O 	0.8957	0.3755	0.4617	-0.36
Mof_O 	O 	0.3578	0.4349	0.3666	-0.42
Mof_O 	O 	0.0621	0.3891	0.2696	-0.389
Mof_O 	O 	0.3574	0.4617	0.1628	-0.359
Mof_O 	O 	0.7244	0.3666	0.1985	-0.42
_end
