data_functionalizedCrystal
_audit_creation_method	'EQeq! by Chris Wilmer'
_symmetry_space_group_name_H-M	'P1'
_symmetry_Int_Tables_number	1
_symmetry_cell_setting	triclinic
loop_
_symmetry_equiv_pos_as_xyz
  x,y,z
_cell_length_a	15.173
_cell_length_b	15.173
_cell_length_c	19.089
_cell_angle_alpha	90
_cell_angle_beta	90
_cell_angle_gamma	90
loop_
_atom_site_label
_atom_site_type_symbol
_atom_site_fract_x
_atom_site_fract_y
_atom_site_fract_z
_atom_site_charge
Mof_Co	Co	0.2011	0.11874	0.59851	1.097
Mof_Co	Co	0.02112	0.19148	0.328	1.098
Mof_N 	N 	0.1776	0.124	0.4967	-0.291
Mof_N 	N 	0.1115	0.1542	0.3957	-0.286
Mof_N 	N 	0.0736	0.2871	0.7346	-0.255
Mof_N 	N 	0.1396	0.217	0.6471	-0.253
Mof_N 	N 	0.0685	0.9046	0.6796	-0.283
Mof_N 	N 	0.1593	0.0099	0.6458	-0.291
Mof_N 	N 	0.3292	0.1338	0.6126	-0.277
Mof_N 	N 	0.4516	0.2072	0.6384	-0.283
Mof_C 	C 	0.1068	0.1548	0.4634	0.105
Mof_H 	H 	0.0574	0.1753	0.4872	-0.075
Mof_C 	C 	0.2318	0.1042	0.4439	-0.004
Mof_H 	H 	0.2886	0.082	0.4489	-0.009
Mof_C 	C 	0.192	0.1211	0.3824	-0.022
Mof_H 	H 	0.216	0.1115	0.3383	0.01
Mof_C 	C 	0.1101	0.2137	0.7115	0.102
Mof_H 	H 	0.1145	0.1633	0.7389	-0.068
Mof_C 	C 	0.0609	0.3358	0.6712	0.748
Mof_H 	H 	0.0307	0.389	0.6672	-0.247
Mof_C 	C 	0.0992	0.2929	0.619	0.705
Mof_H 	H 	0.0994	0.3098	0.5722	-0.251
Mof_C 	C 	0.0892	0.9622	0.6319	0.111
Mof_H 	H 	0.0567	0.969	0.591	-0.071
Mof_C 	C 	0.1315	0.9151	0.7285	-0
Mof_H 	H 	0.1359	0.8833	0.77	-0.005
Mof_C 	C 	0.1863	0.9784	0.7079	0.004
Mof_H 	H 	0.2355	0.9977	0.7326	-0
Mof_C 	C 	0.3649	0.2085	0.6327	0.079
Mof_H 	H 	0.3316	0.2586	0.6422	-0.04
Mof_C 	C 	0.473	0.1225	0.6198	-0.013
Mof_H 	H 	0.5297	0.0992	0.6187	0
Mof_C 	C 	0.3989	0.0788	0.6034	-0.007
Mof_H 	H 	0.3958	0.0207	0.5883	0
Mof_C 	C 	0.0976	0.1519	0.1892	-0.695
Mof_H 	H 	0.0889	0.0914	0.1931	0.216
Mof_C 	C 	0.1371	0.1947	0.1362	-0.798
Mof_H 	H 	0.1601	0.1671	0.0967	0.231
Mof_Co	Co	0.2989	0.88126	0.09851	1.098
Mof_Co	Co	0.47888	0.80852	0.828	1.1
Mof_N 	N 	0.3224	0.876	0.9967	-0.289
Mof_N 	N 	0.3885	0.8458	0.8957	-0.284
Mof_N 	N 	0.4264	0.7129	0.2346	-0.254
Mof_N 	N 	0.3604	0.783	0.1471	-0.252
Mof_N 	N 	0.4315	0.0954	0.1796	-0.283
Mof_N 	N 	0.3407	0.9901	0.1458	-0.285
Mof_N 	N 	0.1708	0.8662	0.1126	-0.276
Mof_N 	N 	0.0484	0.7928	0.1384	-0.283
Mof_C 	C 	0.3932	0.8452	0.9634	0.106
Mof_H 	H 	0.4426	0.8247	0.9872	-0.074
Mof_C 	C 	0.2682	0.8958	0.9439	-0.002
Mof_H 	H 	0.2114	0.918	0.9489	-0.007
Mof_C 	C 	0.308	0.8789	0.8824	-0.02
Mof_H 	H 	0.284	0.8885	0.8383	0.011
Mof_C 	C 	0.3899	0.7863	0.2115	0.102
Mof_H 	H 	0.3855	0.8367	0.2389	-0.067
Mof_C 	C 	0.4391	0.6642	0.1712	0.748
Mof_H 	H 	0.4693	0.611	0.1672	-0.247
Mof_C 	C 	0.4008	0.7071	0.119	0.705
Mof_H 	H 	0.4006	0.6902	0.0722	-0.251
Mof_C 	C 	0.4108	0.0378	0.1319	0.106
Mof_H 	H 	0.4433	0.031	0.091	-0.071
Mof_C 	C 	0.3685	0.0849	0.2285	0.002
Mof_H 	H 	0.3641	0.1167	0.27	-0.007
Mof_C 	C 	0.3137	0.0216	0.2079	-0.001
Mof_H 	H 	0.2645	0.0023	0.2326	0
Mof_C 	C 	0.1351	0.7915	0.1327	0.079
Mof_H 	H 	0.1684	0.7414	0.1422	-0.04
Mof_C 	C 	0.027	0.8775	0.1198	-0.005
Mof_H 	H 	0.9703	0.9008	0.1187	-0.005
Mof_C 	C 	0.1011	0.9212	0.1034	-0.011
Mof_H 	H 	0.1042	0.9793	0.0883	0.003
Mof_C 	C 	0.4024	0.8481	0.6892	-0.692
Mof_H 	H 	0.4111	0.9086	0.6931	0.216
Mof_C 	C 	0.3629	0.8053	0.6362	-0.795
Mof_H 	H 	0.3399	0.8329	0.5967	0.23
Mof_Co	Co	0.7989	0.61874	0.90149	1.098
Mof_Co	Co	0.97888	0.69148	0.172	1.099
Mof_N 	N 	0.8224	0.624	0.0033	-0.29
Mof_N 	N 	0.8885	0.6542	0.1043	-0.284
Mof_N 	N 	0.9264	0.7871	0.7654	-0.254
Mof_N 	N 	0.8604	0.717	0.8529	-0.252
Mof_N 	N 	0.9315	0.4046	0.8204	-0.282
Mof_N 	N 	0.8407	0.5099	0.8542	-0.285
Mof_N 	N 	0.6708	0.6338	0.8874	-0.276
Mof_N 	N 	0.5484	0.7072	0.8616	-0.282
Mof_C 	C 	0.8932	0.6548	0.0366	0.106
Mof_H 	H 	0.9426	0.6753	0.0128	-0.074
Mof_C 	C 	0.7682	0.6042	0.0561	-0.002
Mof_H 	H 	0.7114	0.582	0.0511	-0.008
Mof_C 	C 	0.808	0.6211	0.1176	-0.02
Mof_H 	H 	0.784	0.6115	0.1617	0.011
Mof_C 	C 	0.8899	0.7137	0.7885	0.102
Mof_H 	H 	0.8855	0.6633	0.7611	-0.067
Mof_C 	C 	0.9391	0.8358	0.8288	0.748
Mof_H 	H 	0.9693	0.889	0.8328	-0.248
Mof_C 	C 	0.9008	0.7929	0.881	0.705
Mof_H 	H 	0.9006	0.8098	0.9278	-0.252
Mof_C 	C 	0.9108	0.4622	0.8681	0.107
Mof_H 	H 	0.9433	0.469	0.909	-0.071
Mof_C 	C 	0.8685	0.4151	0.7715	0.002
Mof_H 	H 	0.8641	0.3833	0.73	-0.006
Mof_C 	C 	0.8137	0.4784	0.7921	-0
Mof_H 	H 	0.7645	0.4977	0.7674	0.001
Mof_C 	C 	0.6351	0.7085	0.8673	0.079
Mof_H 	H 	0.6684	0.7586	0.8578	-0.04
Mof_C 	C 	0.527	0.6225	0.8802	-0.013
Mof_H 	H 	0.4703	0.5992	0.8813	0
Mof_C 	C 	0.6011	0.5788	0.8966	-0.007
Mof_H 	H 	0.6042	0.5207	0.9117	0.001
Mof_C 	C 	0.9024	0.6519	0.3108	-0.695
Mof_H 	H 	0.9111	0.5914	0.3069	0.217
Mof_C 	C 	0.8629	0.6947	0.3638	-0.798
Mof_H 	H 	0.8399	0.6671	0.4033	0.231
Mof_Co	Co	0.7011	0.38126	0.40149	1.099
Mof_Co	Co	0.52112	0.30852	0.672	1.1
Mof_N 	N 	0.6776	0.376	0.5033	-0.29
Mof_N 	N 	0.6115	0.3458	0.6043	-0.284
Mof_N 	N 	0.5736	0.2129	0.2654	-0.254
Mof_N 	N 	0.6396	0.283	0.3529	-0.252
Mof_N 	N 	0.5685	0.5954	0.3204	-0.283
Mof_N 	N 	0.6593	0.4901	0.3542	-0.285
Mof_N 	N 	0.8292	0.3662	0.3874	-0.276
Mof_N 	N 	0.9516	0.2928	0.3616	-0.281
Mof_C 	C 	0.6068	0.3452	0.5366	0.106
Mof_H 	H 	0.5574	0.3247	0.5128	-0.074
Mof_C 	C 	0.7318	0.3958	0.5561	-0.002
Mof_H 	H 	0.7886	0.418	0.5511	-0.008
Mof_C 	C 	0.692	0.3789	0.6176	-0.02
Mof_H 	H 	0.716	0.3885	0.6617	0.011
Mof_C 	C 	0.6101	0.2863	0.2885	0.102
Mof_H 	H 	0.6145	0.3367	0.2611	-0.067
Mof_C 	C 	0.5609	0.1642	0.3288	0.745
Mof_H 	H 	0.5307	0.111	0.3328	-0.246
Mof_C 	C 	0.5992	0.2071	0.381	0.702
Mof_H 	H 	0.5994	0.1902	0.4278	-0.25
Mof_C 	C 	0.5892	0.5378	0.3681	0.107
Mof_H 	H 	0.5567	0.531	0.409	-0.071
Mof_C 	C 	0.6315	0.5849	0.2715	0.002
Mof_H 	H 	0.6359	0.6167	0.23	-0.007
Mof_C 	C 	0.6863	0.5216	0.2921	-0
Mof_H 	H 	0.7355	0.5023	0.2674	0.001
Mof_C 	C 	0.8649	0.2915	0.3673	0.08
Mof_H 	H 	0.8316	0.2414	0.3578	-0.04
Mof_C 	C 	0.973	0.3775	0.3802	-0.01
Mof_H 	H 	0.0297	0.4008	0.3813	-0.001
Mof_C 	C 	0.8989	0.4212	0.3966	-0.009
Mof_H 	H 	0.8958	0.4793	0.4117	0.002
Mof_C 	C 	0.5976	0.3481	0.8108	-0.694
Mof_H 	H 	0.5889	0.4086	0.8069	0.217
Mof_C 	C 	0.6371	0.3053	0.8638	-0.797
Mof_H 	H 	0.6601	0.3329	0.9033	0.231
Mof_Co	Co	0.7989	0.88126	0.40149	1.098
Mof_Co	Co	0.97888	0.80852	0.672	1.099
Mof_N 	N 	0.8224	0.876	0.5033	-0.29
Mof_N 	N 	0.8885	0.8458	0.6043	-0.285
Mof_N 	N 	0.9264	0.7129	0.2654	-0.254
Mof_N 	N 	0.8604	0.783	0.3529	-0.252
Mof_N 	N 	0.9315	0.0954	0.3204	-0.282
Mof_N 	N 	0.8407	0.9901	0.3542	-0.29
Mof_N 	N 	0.6708	0.8662	0.3874	-0.276
Mof_N 	N 	0.5484	0.7928	0.3616	-0.282
Mof_C 	C 	0.8932	0.8452	0.5366	0.106
Mof_H 	H 	0.9426	0.8247	0.5128	-0.074
Mof_C 	C 	0.7682	0.8958	0.5561	-0.003
Mof_H 	H 	0.7114	0.918	0.5511	-0.008
Mof_C 	C 	0.808	0.8789	0.6176	-0.021
Mof_H 	H 	0.784	0.8885	0.6617	0.011
Mof_C 	C 	0.8899	0.7863	0.2885	0.102
Mof_H 	H 	0.8855	0.8367	0.2611	-0.068
Mof_C 	C 	0.9391	0.6642	0.3288	0.748
Mof_H 	H 	0.9693	0.611	0.3328	-0.247
Mof_C 	C 	0.9008	0.7071	0.381	0.705
Mof_H 	H 	0.9006	0.6902	0.4278	-0.251
Mof_C 	C 	0.9108	0.0378	0.3681	0.111
Mof_H 	H 	0.9433	0.031	0.409	-0.071
Mof_C 	C 	0.8685	0.0849	0.2715	-0
Mof_H 	H 	0.8641	0.1167	0.23	-0.005
Mof_C 	C 	0.8137	0.0216	0.2921	0.004
Mof_H 	H 	0.7645	0.0023	0.2674	-0
Mof_C 	C 	0.6351	0.7915	0.3673	0.079
Mof_H 	H 	0.6684	0.7414	0.3578	-0.04
Mof_C 	C 	0.527	0.8775	0.3802	-0.013
Mof_H 	H 	0.4703	0.9008	0.3813	0
Mof_C 	C 	0.6011	0.9212	0.3966	-0.007
Mof_H 	H 	0.6042	0.9793	0.4117	0
Mof_C 	C 	0.9024	0.8481	0.8108	-0.695
Mof_H 	H 	0.9111	0.9086	0.8069	0.216
Mof_C 	C 	0.8629	0.8053	0.8638	-0.798
Mof_H 	H 	0.8399	0.8329	0.9033	0.231
Mof_Co	Co	0.7011	0.11874	0.90149	1.098
Mof_Co	Co	0.52112	0.19148	0.172	1.1
Mof_N 	N 	0.6776	0.124	0.0033	-0.289
Mof_N 	N 	0.6115	0.1542	0.1043	-0.284
Mof_N 	N 	0.5736	0.2871	0.7654	-0.254
Mof_N 	N 	0.6396	0.217	0.8529	-0.252
Mof_N 	N 	0.5685	0.9046	0.8204	-0.283
Mof_N 	N 	0.6593	0.0099	0.8542	-0.285
Mof_N 	N 	0.8292	0.1338	0.8874	-0.276
Mof_N 	N 	0.9516	0.2072	0.8616	-0.283
Mof_C 	C 	0.6068	0.1548	0.0366	0.106
Mof_H 	H 	0.5574	0.1753	0.0128	-0.074
Mof_C 	C 	0.7318	0.1042	0.0561	-0.002
Mof_H 	H 	0.7886	0.082	0.0511	-0.007
Mof_C 	C 	0.692	0.1211	0.1176	-0.02
Mof_H 	H 	0.716	0.1115	0.1617	0.011
Mof_C 	C 	0.6101	0.2137	0.7885	0.102
Mof_H 	H 	0.6145	0.1633	0.7611	-0.067
Mof_C 	C 	0.5609	0.3358	0.8288	0.748
Mof_H 	H 	0.5307	0.389	0.8328	-0.247
Mof_C 	C 	0.5992	0.2929	0.881	0.705
Mof_H 	H 	0.5994	0.3098	0.9278	-0.251
Mof_C 	C 	0.5892	0.9622	0.8681	0.106
Mof_H 	H 	0.5567	0.969	0.909	-0.071
Mof_C 	C 	0.6315	0.9151	0.7715	0.002
Mof_H 	H 	0.6359	0.8833	0.73	-0.007
Mof_C 	C 	0.6863	0.9784	0.7921	-0.001
Mof_H 	H 	0.7355	0.9977	0.7674	0
Mof_C 	C 	0.8649	0.2085	0.8673	0.079
Mof_H 	H 	0.8316	0.2586	0.8578	-0.04
Mof_C 	C 	0.973	0.1225	0.8802	-0.005
Mof_H 	H 	0.0297	0.0992	0.8813	-0.005
Mof_C 	C 	0.8989	0.0788	0.8966	-0.011
Mof_H 	H 	0.8958	0.0207	0.9117	0.003
Mof_C 	C 	0.5976	0.1519	0.3108	-0.692
Mof_H 	H 	0.5889	0.0914	0.3069	0.216
Mof_C 	C 	0.6371	0.1947	0.3638	-0.795
Mof_H 	H 	0.6601	0.1671	0.4033	0.23
Mof_Co	Co	0.2011	0.38126	0.09851	1.098
Mof_Co	Co	0.02112	0.30852	0.828	1.099
Mof_N 	N 	0.1776	0.376	0.9967	-0.29
Mof_N 	N 	0.1115	0.3458	0.8957	-0.284
Mof_N 	N 	0.0736	0.2129	0.2346	-0.254
Mof_N 	N 	0.1396	0.283	0.1471	-0.252
Mof_N 	N 	0.0685	0.5954	0.1796	-0.282
Mof_N 	N 	0.1593	0.4901	0.1458	-0.285
Mof_N 	N 	0.3292	0.3662	0.1126	-0.276
Mof_N 	N 	0.4516	0.2928	0.1384	-0.282
Mof_C 	C 	0.1068	0.3452	0.9634	0.106
Mof_H 	H 	0.0574	0.3247	0.9872	-0.074
Mof_C 	C 	0.2318	0.3958	0.9439	-0.002
Mof_H 	H 	0.2886	0.418	0.9489	-0.008
Mof_C 	C 	0.192	0.3789	0.8824	-0.02
Mof_H 	H 	0.216	0.3885	0.8383	0.011
Mof_C 	C 	0.1101	0.2863	0.2115	0.102
Mof_H 	H 	0.1145	0.3367	0.2389	-0.067
Mof_C 	C 	0.0609	0.1642	0.1712	0.748
Mof_H 	H 	0.0307	0.111	0.1672	-0.248
Mof_C 	C 	0.0992	0.2071	0.119	0.705
Mof_H 	H 	0.0994	0.1902	0.0722	-0.252
Mof_C 	C 	0.0892	0.5378	0.1319	0.107
Mof_H 	H 	0.0567	0.531	0.091	-0.071
Mof_C 	C 	0.1315	0.5849	0.2285	0.002
Mof_H 	H 	0.1359	0.6167	0.27	-0.006
Mof_C 	C 	0.1863	0.5216	0.2079	-0
Mof_H 	H 	0.2355	0.5023	0.2326	0.001
Mof_C 	C 	0.3649	0.2915	0.1327	0.079
Mof_H 	H 	0.3316	0.2414	0.1422	-0.04
Mof_C 	C 	0.473	0.3775	0.1198	-0.013
Mof_H 	H 	0.5297	0.4008	0.1187	0
Mof_C 	C 	0.3989	0.4212	0.1034	-0.007
Mof_H 	H 	0.3958	0.4793	0.0883	0.001
Mof_C 	C 	0.0976	0.3481	0.6892	-0.695
Mof_H 	H 	0.0889	0.4086	0.6931	0.217
Mof_C 	C 	0.1371	0.3053	0.6362	-0.798
Mof_H 	H 	0.1601	0.3329	0.5967	0.231
Mof_Co	Co	0.2989	0.61874	0.59851	1.099
Mof_Co	Co	0.47888	0.69148	0.328	1.1
Mof_N 	N 	0.3224	0.624	0.4967	-0.29
Mof_N 	N 	0.3885	0.6542	0.3957	-0.284
Mof_N 	N 	0.4264	0.7871	0.7346	-0.254
Mof_N 	N 	0.3604	0.717	0.6471	-0.252
Mof_N 	N 	0.4315	0.4046	0.6796	-0.283
Mof_N 	N 	0.3407	0.5099	0.6458	-0.285
Mof_N 	N 	0.1708	0.6338	0.6126	-0.276
Mof_N 	N 	0.0484	0.7072	0.6384	-0.281
Mof_C 	C 	0.3932	0.6548	0.4634	0.106
Mof_H 	H 	0.4426	0.6753	0.4872	-0.074
Mof_C 	C 	0.2682	0.6042	0.4439	-0.002
Mof_H 	H 	0.2114	0.582	0.4489	-0.008
Mof_C 	C 	0.308	0.6211	0.3824	-0.02
Mof_H 	H 	0.284	0.6115	0.3383	0.011
Mof_C 	C 	0.3899	0.7137	0.7115	0.102
Mof_H 	H 	0.3855	0.6633	0.7389	-0.067
Mof_C 	C 	0.4391	0.8358	0.6712	0.745
Mof_H 	H 	0.4693	0.889	0.6672	-0.246
Mof_C 	C 	0.4008	0.7929	0.619	0.702
Mof_H 	H 	0.4006	0.8098	0.5722	-0.25
Mof_C 	C 	0.4108	0.4622	0.6319	0.107
Mof_H 	H 	0.4433	0.469	0.591	-0.071
Mof_C 	C 	0.3685	0.4151	0.7285	0.002
Mof_H 	H 	0.3641	0.3833	0.77	-0.007
Mof_C 	C 	0.3137	0.4784	0.7079	-0
Mof_H 	H 	0.2645	0.4977	0.7326	0.001
Mof_C 	C 	0.1351	0.7085	0.6327	0.08
Mof_H 	H 	0.1684	0.7586	0.6422	-0.04
Mof_C 	C 	0.027	0.6225	0.6198	-0.01
Mof_H 	H 	0.9703	0.5992	0.6187	-0.001
Mof_C 	C 	0.1011	0.5788	0.6034	-0.009
Mof_H 	H 	0.1042	0.5207	0.5883	0.002
Mof_C 	C 	0.4024	0.6519	0.1892	-0.694
Mof_H 	H 	0.4111	0.5914	0.1931	0.217
Mof_C 	C 	0.3629	0.6947	0.1362	-0.797
Mof_H 	H 	0.3399	0.6671	0.0967	0.231
_end
