data_functionalizedCrystal
_audit_creation_method	'EQeq! by Chris Wilmer'
_symmetry_space_group_name_H-M	'P1'
_symmetry_Int_Tables_number	1
_symmetry_cell_setting	triclinic
loop_
_symmetry_equiv_pos_as_xyz
  x,y,z
_cell_length_a	23.9792
_cell_length_b	13.3721
_cell_length_c	24.2227
_cell_angle_alpha	90
_cell_angle_beta	112.706
_cell_angle_gamma	90
loop_
_atom_site_label
_atom_site_type_symbol
_atom_site_fract_x
_atom_site_fract_y
_atom_site_fract_z
_atom_site_charge
Mof_Co	Co	0.38388	0.64867	0.45159	1.135
Mof_N 	N 	0.4705	0.89662	0.29765	-0.25
Mof_N 	N 	0.43073	0.03028	0.32051	-0.158
Mof_N 	N 	0.41212	0.51671	0.42087	-0.226
Mof_N 	N 	0.40792	0.3728	0.37504	-0.162
Mof_N 	N 	0.16367	0.19137	0.13697	-0.245
Mof_N 	N 	0.23904	0.20641	0.22457	-0.159
Mof_O 	O 	0.44414	0.70887	0.19066	-0.433
Mof_O 	O 	0.37583	0.82878	0.1685	-0.31
Mof_O 	O 	0.39666	0.42418	0.03586	-0.389
Mof_O 	O 	0.30849	0.43519	0.9612	-0.383
Mof_O 	O 	0.96518	0.78801	0.96439	-0.431
Mof_O 	O 	0.96022	0.64231	0.00699	-0.3
Mof_C 	C 	0.33422	0.1159	0.27375	-0.282
Mof_H 	H 	0.3177	0.0591	0.2512	0.136
Mof_C 	C 	0.39372	0.11755	0.31365	0.23
Mof_C 	C 	0.4192	0.20081	0.34805	-0.283
Mof_H 	H 	0.4595	0.2006	0.3745	0.143
Mof_C 	C 	0.3833	0.28437	0.34217	0.233
Mof_C 	C 	0.32345	0.28562	0.30232	-0.283
Mof_H 	H 	0.2997	0.3422	0.2987	0.136
Mof_C 	C 	0.29968	0.20209	0.26823	0.227
Mof_C 	C 	0.42866	0.96595	0.277	0.101
Mof_H 	H 	0.4012	0.97	0.2375	-0.002
Mof_C 	C 	0.50085	0.9178	0.35732	0.003
Mof_H 	H 	0.5331	0.881	0.3836	0.03
Mof_C 	C 	0.47693	0.9997	0.37197	0.004
Mof_H 	H 	0.4892	0.0295	0.4095	0.048
Mof_C 	C 	0.37708	0.44363	0.39144	0.108
Mof_H 	H 	0.3358	0.4407	0.3828	-0.012
Mof_C 	C 	0.46883	0.49191	0.42383	0.004
Mof_H 	H 	0.5033	0.5306	0.4422	0.039
Mof_C 	C 	0.46742	0.4039	0.39652	0.009
Mof_H 	H 	0.4999	0.3708	0.3928	0.04
Mof_C 	C 	0.22033	0.16775	0.16938	0.099
Mof_H 	H 	0.2444	0.1289	0.1556	-0.009
Mof_C 	C 	0.14554	0.2487	0.17434	0.006
Mof_H 	H 	0.1073	0.2765	0.1639	0.018
Mof_C 	C 	0.19116	0.2588	0.2282	0.001
Mof_H 	H 	0.1904	0.294	0.2611	0.037
Mof_C 	C 	0.39153	0.74319	0.16138	0.322
Mof_C 	C 	0.34723	0.67476	0.11603	-0.073
Mof_C 	C 	0.36636	0.59334	0.09194	0.01
Mof_H 	H 	0.4072	0.5772	0.1059	0.052
Mof_C 	C 	0.32454	0.53617	0.04707	-0.073
Mof_C 	C 	0.2629	0.55638	0.02923	-0.019
Mof_H 	H 	0.2349	0.517	0.9999	0.05
Mof_C 	C 	0.24269	0.63437	0.05466	-0.027
Mof_C 	C 	0.28549	0.69508	0.09675	-0.016
Mof_H 	H 	0.2727	0.7501	0.1123	0.05
Mof_C 	C 	0.34461	0.45956	0.01356	0.295
Mof_C 	C 	0.177	0.65291	0.03624	0.093
Mof_C 	C 	0.15367	0.74961	0.02439	-0.152
Mof_H 	H 	0.1796	0.8034	0.0285	0.093
Mof_C 	C 	0.09241	0.76618	0.00654	0.085
Mof_H 	H 	0.0772	0.8306	0.9966	0.012
Mof_C 	C 	0.05325	0.68785	0.00331	-0.162
Mof_C 	C 	0.07662	0.59157	0.0153	0.074
Mof_H 	H 	0.051	0.5382	0.013	0.02
Mof_C 	C 	0.13748	0.57426	0.03058	-0.144
Mof_H 	H 	0.1522	0.5091	0.0372	0.084
Mof_C 	C 	0.9876	0.70702	0.99016	0.378
Mof_Co	Co	0.88388	0.14867	0.45159	1.138
Mof_N 	N 	0.9705	0.39662	0.29765	-0.22
Mof_N 	N 	0.93073	0.53028	0.32051	-0.167
Mof_N 	N 	0.91212	0.01671	0.42087	-0.233
Mof_N 	N 	0.90792	0.8728	0.37504	-0.155
Mof_N 	N 	0.66367	0.69137	0.13697	-0.243
Mof_N 	N 	0.73904	0.70641	0.22457	-0.159
Mof_O 	O 	0.94414	0.20887	0.19066	-0.418
Mof_O 	O 	0.87583	0.32878	0.1685	-0.306
Mof_O 	O 	0.89666	0.92418	0.03586	-0.382
Mof_O 	O 	0.80849	0.93519	0.9612	-0.381
Mof_O 	O 	0.46518	0.28801	0.96439	-0.433
Mof_O 	O 	0.46022	0.14231	0.00699	-0.303
Mof_C 	C 	0.83422	0.6159	0.27375	-0.284
Mof_H 	H 	0.8177	0.5591	0.2512	0.137
Mof_C 	C 	0.89372	0.61755	0.31365	0.236
Mof_C 	C 	0.9192	0.70081	0.34805	-0.287
Mof_H 	H 	0.9595	0.7006	0.3745	0.15
Mof_C 	C 	0.8833	0.78437	0.34217	0.236
Mof_C 	C 	0.82345	0.78562	0.30232	-0.285
Mof_H 	H 	0.7997	0.8422	0.2987	0.137
Mof_C 	C 	0.79968	0.70209	0.26823	0.229
Mof_C 	C 	0.92866	0.46595	0.277	0.106
Mof_H 	H 	0.9012	0.47	0.2375	-0.001
Mof_C 	C 	0.00085	0.4178	0.35732	-0.087
Mof_H 	H 	0.0331	0.381	0.3836	0.055
Mof_C 	C 	0.97693	0.4997	0.37197	0.075
Mof_H 	H 	0.9892	0.5295	0.4095	0.032
Mof_C 	C 	0.87708	0.94363	0.39144	0.108
Mof_H 	H 	0.8358	0.9407	0.3828	-0.012
Mof_C 	C 	0.96883	0.99191	0.42383	0.071
Mof_H 	H 	0.0033	0.0306	0.4422	-0.003
Mof_C 	C 	0.96742	0.9039	0.39652	-0.02
Mof_H 	H 	0.9999	0.8708	0.3928	0.061
Mof_C 	C 	0.72033	0.66775	0.16938	0.1
Mof_H 	H 	0.7444	0.6289	0.1556	-0.009
Mof_C 	C 	0.64554	0.7487	0.17434	0.005
Mof_H 	H 	0.6073	0.7765	0.1639	0.022
Mof_C 	C 	0.69116	0.7588	0.2282	0.002
Mof_H 	H 	0.6904	0.794	0.2611	0.036
Mof_C 	C 	0.89153	0.24319	0.16138	0.319
Mof_C 	C 	0.84723	0.17476	0.11603	-0.068
Mof_C 	C 	0.86636	0.09334	0.09194	0.006
Mof_H 	H 	0.9072	0.0772	0.1059	0.057
Mof_C 	C 	0.82454	0.03617	0.04707	-0.069
Mof_C 	C 	0.7629	0.05638	0.02923	-0.019
Mof_H 	H 	0.7349	0.017	0.9999	0.049
Mof_C 	C 	0.74269	0.13437	0.05466	-0.02
Mof_C 	C 	0.78549	0.19508	0.09675	-0.021
Mof_H 	H 	0.7727	0.2501	0.1123	0.052
Mof_C 	C 	0.84461	0.95956	0.01356	0.292
Mof_C 	C 	0.677	0.15291	0.03624	0.081
Mof_C 	C 	0.65367	0.24961	0.02439	-0.136
Mof_H 	H 	0.6796	0.3034	0.0285	0.088
Mof_C 	C 	0.59241	0.26618	0.00654	0.065
Mof_H 	H 	0.5772	0.3306	0.9966	0.02
Mof_C 	C 	0.55325	0.18785	0.00331	-0.121
Mof_C 	C 	0.57662	0.09157	0.0153	0.049
Mof_H 	H 	0.551	0.0382	0.013	0.037
Mof_C 	C 	0.63748	0.07426	0.03058	-0.125
Mof_H 	H 	0.6522	0.0091	0.0372	0.079
Mof_C 	C 	0.4876	0.20702	0.99016	0.343
Mof_Co	Co	0.61612	0.64867	0.04841	1.137
Mof_N 	N 	0.5295	0.89662	0.20235	-0.249
Mof_N 	N 	0.56927	0.03028	0.17949	-0.157
Mof_N 	N 	0.58788	0.51671	0.07913	-0.225
Mof_N 	N 	0.59208	0.3728	0.12496	-0.161
Mof_N 	N 	0.83633	0.19137	0.36303	-0.242
Mof_N 	N 	0.76096	0.20641	0.27543	-0.159
Mof_O 	O 	0.55586	0.70887	0.30934	-0.431
Mof_O 	O 	0.62417	0.82878	0.3315	-0.31
Mof_O 	O 	0.60334	0.42418	0.46414	-0.389
Mof_O 	O 	0.69151	0.43519	0.5388	-0.38
Mof_O 	O 	0.03482	0.78801	0.53561	-0.436
Mof_O 	O 	0.03978	0.64231	0.49301	-0.307
Mof_C 	C 	0.66578	0.1159	0.22625	-0.282
Mof_H 	H 	0.6823	0.0591	0.2488	0.136
Mof_C 	C 	0.60628	0.11755	0.18635	0.23
Mof_C 	C 	0.5808	0.20081	0.15195	-0.283
Mof_H 	H 	0.5405	0.2006	0.1255	0.143
Mof_C 	C 	0.6167	0.28437	0.15783	0.233
Mof_C 	C 	0.67655	0.28562	0.19768	-0.284
Mof_H 	H 	0.7003	0.3422	0.2013	0.136
Mof_C 	C 	0.70032	0.20209	0.23177	0.227
Mof_C 	C 	0.57134	0.96595	0.223	0.101
Mof_H 	H 	0.5988	0.97	0.2625	-0.002
Mof_C 	C 	0.49915	0.9178	0.14268	0.003
Mof_H 	H 	0.4669	0.881	0.1164	0.03
Mof_C 	C 	0.52307	0.9997	0.12803	0.002
Mof_H 	H 	0.5108	0.0295	0.0905	0.049
Mof_C 	C 	0.62292	0.44363	0.10856	0.108
Mof_H 	H 	0.6642	0.4407	0.1172	-0.012
Mof_C 	C 	0.53117	0.49191	0.07617	0.005
Mof_H 	H 	0.4967	0.5306	0.0578	0.039
Mof_C 	C 	0.53258	0.4039	0.10348	0.009
Mof_H 	H 	0.5001	0.3708	0.1072	0.04
Mof_C 	C 	0.77967	0.16775	0.33062	0.1
Mof_H 	H 	0.7556	0.1289	0.3444	-0.009
Mof_C 	C 	0.85446	0.2487	0.32566	0.004
Mof_H 	H 	0.8927	0.2765	0.3361	0.026
Mof_C 	C 	0.80884	0.2588	0.2718	0.004
Mof_H 	H 	0.8096	0.294	0.2389	0.037
Mof_C 	C 	0.60847	0.74319	0.33862	0.32
Mof_C 	C 	0.65277	0.67476	0.38397	-0.067
Mof_C 	C 	0.63364	0.59334	0.40806	0.003
Mof_H 	H 	0.5928	0.5772	0.3941	0.054
Mof_C 	C 	0.67546	0.53617	0.45293	-0.066
Mof_C 	C 	0.7371	0.55638	0.47077	-0.032
Mof_H 	H 	0.7651	0.517	0.5001	0.057
Mof_C 	C 	0.75731	0.63437	0.44534	-0.01
Mof_C 	C 	0.71451	0.69508	0.40325	-0.027
Mof_H 	H 	0.7273	0.7501	0.3877	0.054
Mof_C 	C 	0.65539	0.45956	0.48644	0.29
Mof_C 	C 	0.823	0.65291	0.46376	0.061
Mof_C 	C 	0.84633	0.74961	0.47561	-0.11
Mof_H 	H 	0.8204	0.8034	0.4715	0.078
Mof_C 	C 	0.90759	0.76618	0.49346	0.031
Mof_H 	H 	0.9228	0.8306	0.5034	0.037
Mof_C 	C 	0.94675	0.68785	0.49669	-0.076
Mof_C 	C 	0.92338	0.59157	0.4847	0.019
Mof_H 	H 	0.949	0.5382	0.487	0.054
Mof_C 	C 	0.86252	0.57426	0.46942	-0.1
Mof_H 	H 	0.8478	0.5091	0.4628	0.071
Mof_C 	C 	0.0124	0.70702	0.50984	0.311
Mof_Co	Co	0.11612	0.14867	0.04841	1.135
Mof_N 	N 	0.0295	0.39662	0.20235	-0.275
Mof_N 	N 	0.06927	0.53028	0.17949	-0.148
Mof_N 	N 	0.08788	0.01671	0.07913	-0.215
Mof_N 	N 	0.09208	0.8728	0.12496	-0.166
Mof_N 	N 	0.33633	0.69137	0.36303	-0.243
Mof_N 	N 	0.26096	0.70641	0.27543	-0.158
Mof_O 	O 	0.05586	0.20887	0.30934	-0.44
Mof_O 	O 	0.12417	0.32878	0.3315	-0.312
Mof_O 	O 	0.10334	0.92418	0.46414	-0.396
Mof_O 	O 	0.19151	0.93519	0.5388	-0.382
Mof_O 	O 	0.53482	0.28801	0.53561	-0.434
Mof_O 	O 	0.53978	0.14231	0.49301	-0.306
Mof_C 	C 	0.16578	0.6159	0.22625	-0.279
Mof_H 	H 	0.1823	0.5591	0.2488	0.134
Mof_C 	C 	0.10628	0.61755	0.18635	0.224
Mof_C 	C 	0.0808	0.70081	0.15195	-0.28
Mof_H 	H 	0.0405	0.7006	0.1255	0.136
Mof_C 	C 	0.1167	0.78437	0.15783	0.23
Mof_C 	C 	0.17655	0.78562	0.19768	-0.282
Mof_H 	H 	0.2003	0.8422	0.2013	0.135
Mof_C 	C 	0.20032	0.70209	0.23177	0.225
Mof_C 	C 	0.07134	0.46595	0.223	0.097
Mof_H 	H 	0.0988	0.47	0.2625	-0.003
Mof_C 	C 	0.99915	0.4178	0.14268	0.093
Mof_H 	H 	0.9669	0.381	0.1164	0.006
Mof_C 	C 	0.02307	0.4997	0.12803	-0.065
Mof_H 	H 	0.0108	0.5295	0.0905	0.063
Mof_C 	C 	0.12292	0.94363	0.10856	0.107
Mof_H 	H 	0.1642	0.9407	0.1172	-0.012
Mof_C 	C 	0.03117	0.99191	0.07617	-0.067
Mof_H 	H 	0.9967	0.0306	0.0578	0.083
Mof_C 	C 	0.03258	0.9039	0.10348	0.041
Mof_H 	H 	0.0001	0.8708	0.1072	0.017
Mof_C 	C 	0.27967	0.66775	0.33062	0.099
Mof_H 	H 	0.2556	0.6289	0.3444	-0.01
Mof_C 	C 	0.35446	0.7487	0.32566	0.005
Mof_H 	H 	0.3927	0.7765	0.3361	0.022
Mof_C 	C 	0.30884	0.7588	0.2718	0.002
Mof_H 	H 	0.3096	0.794	0.2389	0.037
Mof_C 	C 	0.10847	0.24319	0.33862	0.322
Mof_C 	C 	0.15277	0.17476	0.38397	-0.074
Mof_C 	C 	0.13364	0.09334	0.40806	0.009
Mof_H 	H 	0.0928	0.0772	0.3941	0.049
Mof_C 	C 	0.17546	0.03617	0.45293	-0.073
Mof_C 	C 	0.2371	0.05638	0.47077	-0.025
Mof_H 	H 	0.2651	0.017	0.5001	0.053
Mof_C 	C 	0.25731	0.13437	0.44534	-0.02
Mof_C 	C 	0.21451	0.19508	0.40325	-0.02
Mof_H 	H 	0.2273	0.2501	0.3877	0.051
Mof_C 	C 	0.15539	0.95956	0.48644	0.294
Mof_C 	C 	0.323	0.15291	0.46376	0.079
Mof_C 	C 	0.34633	0.24961	0.47561	-0.132
Mof_H 	H 	0.3204	0.3034	0.4715	0.086
Mof_C 	C 	0.40759	0.26618	0.49346	0.059
Mof_H 	H 	0.4228	0.3306	0.5034	0.024
Mof_C 	C 	0.44675	0.18785	0.49669	-0.122
Mof_C 	C 	0.42338	0.09157	0.4847	0.048
Mof_H 	H 	0.449	0.0382	0.487	0.036
Mof_C 	C 	0.36252	0.07426	0.46942	-0.124
Mof_H 	H 	0.3478	0.0091	0.4628	0.078
Mof_C 	C 	0.5124	0.20702	0.50984	0.348
Mof_Co	Co	0.61612	0.35133	0.54841	1.136
Mof_N 	N 	0.5295	0.10338	0.70235	-0.249
Mof_N 	N 	0.56927	0.96972	0.67949	-0.158
Mof_N 	N 	0.58788	0.48329	0.57913	-0.225
Mof_N 	N 	0.59208	0.6272	0.62496	-0.161
Mof_N 	N 	0.83633	0.80863	0.86303	-0.243
Mof_N 	N 	0.76096	0.79359	0.77543	-0.159
Mof_O 	O 	0.55586	0.29113	0.80934	-0.431
Mof_O 	O 	0.62417	0.17122	0.8315	-0.31
Mof_O 	O 	0.60334	0.57582	0.96414	-0.388
Mof_O 	O 	0.69151	0.56481	0.0388	-0.377
Mof_O 	O 	0.03482	0.21199	0.03561	-0.436
Mof_O 	O 	0.03978	0.35769	0.99301	-0.307
Mof_C 	C 	0.66578	0.8841	0.72625	-0.282
Mof_H 	H 	0.6823	0.9409	0.7488	0.136
Mof_C 	C 	0.60628	0.88245	0.68635	0.23
Mof_C 	C 	0.5808	0.79919	0.65195	-0.283
Mof_H 	H 	0.5405	0.7994	0.6255	0.143
Mof_C 	C 	0.6167	0.71563	0.65783	0.233
Mof_C 	C 	0.67655	0.71438	0.69768	-0.283
Mof_H 	H 	0.7003	0.6578	0.7013	0.136
Mof_C 	C 	0.70032	0.79791	0.73177	0.227
Mof_C 	C 	0.57134	0.03405	0.723	0.101
Mof_H 	H 	0.5988	0.03	0.7625	-0.002
Mof_C 	C 	0.49915	0.0822	0.64268	0.002
Mof_H 	H 	0.4669	0.119	0.6164	0.03
Mof_C 	C 	0.52307	0.0003	0.62803	0.004
Mof_H 	H 	0.5108	0.9705	0.5905	0.048
Mof_C 	C 	0.62292	0.55637	0.60856	0.108
Mof_H 	H 	0.6642	0.5593	0.6172	-0.012
Mof_C 	C 	0.53117	0.50809	0.57617	0.004
Mof_H 	H 	0.4967	0.4694	0.5578	0.039
Mof_C 	C 	0.53258	0.5961	0.60348	0.009
Mof_H 	H 	0.5001	0.6292	0.6072	0.04
Mof_C 	C 	0.77967	0.83225	0.83062	0.1
Mof_H 	H 	0.7556	0.8711	0.8444	-0.009
Mof_C 	C 	0.85446	0.7513	0.82566	0.004
Mof_H 	H 	0.8927	0.7235	0.8361	0.026
Mof_C 	C 	0.80884	0.7412	0.7718	0.003
Mof_H 	H 	0.8096	0.706	0.7389	0.036
Mof_C 	C 	0.60847	0.25681	0.83862	0.319
Mof_C 	C 	0.65277	0.32524	0.88397	-0.065
Mof_C 	C 	0.63364	0.40666	0.90806	-0
Mof_H 	H 	0.5928	0.4228	0.8941	0.055
Mof_C 	C 	0.67546	0.46383	0.95293	-0.062
Mof_C 	C 	0.7371	0.44362	0.97077	-0.041
Mof_H 	H 	0.7651	0.483	0.0001	0.062
Mof_C 	C 	0.75731	0.36563	0.94534	-0.004
Mof_C 	C 	0.71451	0.30492	0.90325	-0.031
Mof_H 	H 	0.7273	0.2499	0.8877	0.055
Mof_C 	C 	0.65539	0.54044	0.98644	0.286
Mof_C 	C 	0.823	0.34709	0.96376	0.056
Mof_C 	C 	0.84633	0.25039	0.97561	-0.103
Mof_H 	H 	0.8204	0.1966	0.9715	0.075
Mof_C 	C 	0.90759	0.23382	0.99346	0.02
Mof_H 	H 	0.9228	0.1694	0.0034	0.043
Mof_C 	C 	0.94675	0.31215	0.99669	-0.074
Mof_C 	C 	0.92338	0.40843	0.9847	0.015
Mof_H 	H 	0.949	0.4618	0.987	0.054
Mof_C 	C 	0.86252	0.42574	0.96942	-0.097
Mof_H 	H 	0.8478	0.4909	0.9628	0.069
Mof_C 	C 	0.0124	0.29298	0.00984	0.313
Mof_Co	Co	0.11612	0.85133	0.54841	1.135
Mof_N 	N 	0.0295	0.60338	0.70235	-0.274
Mof_N 	N 	0.06927	0.46972	0.67949	-0.149
Mof_N 	N 	0.08788	0.98329	0.57913	-0.217
Mof_N 	N 	0.09208	0.1272	0.62496	-0.166
Mof_N 	N 	0.33633	0.30863	0.86303	-0.244
Mof_N 	N 	0.26096	0.29359	0.77543	-0.158
Mof_O 	O 	0.05586	0.79113	0.80934	-0.439
Mof_O 	O 	0.12417	0.67122	0.8315	-0.312
Mof_O 	O 	0.10334	0.07582	0.96414	-0.395
Mof_O 	O 	0.19151	0.06481	0.0388	-0.38
Mof_O 	O 	0.53482	0.71199	0.03561	-0.434
Mof_O 	O 	0.53978	0.85769	0.99301	-0.308
Mof_C 	C 	0.16578	0.3841	0.72625	-0.279
Mof_H 	H 	0.1823	0.4409	0.7488	0.134
Mof_C 	C 	0.10628	0.38245	0.68635	0.224
Mof_C 	C 	0.0808	0.29919	0.65195	-0.28
Mof_H 	H 	0.0405	0.2994	0.6255	0.136
Mof_C 	C 	0.1167	0.21563	0.65783	0.23
Mof_C 	C 	0.17655	0.21438	0.69768	-0.282
Mof_H 	H 	0.2003	0.1578	0.7013	0.135
Mof_C 	C 	0.20032	0.29791	0.73177	0.225
Mof_C 	C 	0.07134	0.53405	0.723	0.097
Mof_H 	H 	0.0988	0.53	0.7625	-0.003
Mof_C 	C 	0.99915	0.5822	0.64268	0.089
Mof_H 	H 	0.9669	0.619	0.6164	0.006
Mof_C 	C 	0.02307	0.5003	0.62803	-0.062
Mof_H 	H 	0.0108	0.4705	0.5905	0.062
Mof_C 	C 	0.12292	0.05637	0.60856	0.107
Mof_H 	H 	0.1642	0.0593	0.6172	-0.012
Mof_C 	C 	0.03117	0.00809	0.57617	-0.062
Mof_H 	H 	0.9967	0.9694	0.5578	0.08
Mof_C 	C 	0.03258	0.0961	0.60348	0.039
Mof_H 	H 	0.0001	0.1292	0.6072	0.018
Mof_C 	C 	0.27967	0.33225	0.83062	0.099
Mof_H 	H 	0.2556	0.3711	0.8444	-0.01
Mof_C 	C 	0.35446	0.2513	0.82566	0.005
Mof_H 	H 	0.3927	0.2235	0.8361	0.022
Mof_C 	C 	0.30884	0.2412	0.7718	0.002
Mof_H 	H 	0.3096	0.206	0.7389	0.037
Mof_C 	C 	0.10847	0.75681	0.83862	0.322
Mof_C 	C 	0.15277	0.82524	0.88397	-0.073
Mof_C 	C 	0.13364	0.90666	0.90806	0.008
Mof_H 	H 	0.0928	0.9228	0.8941	0.049
Mof_C 	C 	0.17546	0.96383	0.95293	-0.07
Mof_C 	C 	0.2371	0.94362	0.97077	-0.027
Mof_H 	H 	0.2651	0.983	0.0001	0.054
Mof_C 	C 	0.25731	0.86563	0.94534	-0.018
Mof_C 	C 	0.21451	0.80492	0.90325	-0.021
Mof_H 	H 	0.2273	0.7499	0.8877	0.052
Mof_C 	C 	0.15539	0.04044	0.98644	0.29
Mof_C 	C 	0.323	0.84709	0.96376	0.077
Mof_C 	C 	0.34633	0.75039	0.97561	-0.131
Mof_H 	H 	0.3204	0.6966	0.9715	0.085
Mof_C 	C 	0.40759	0.73382	0.99346	0.057
Mof_H 	H 	0.4228	0.6694	0.0034	0.026
Mof_C 	C 	0.44675	0.81215	0.99669	-0.122
Mof_C 	C 	0.42338	0.90843	0.9847	0.048
Mof_H 	H 	0.449	0.9618	0.987	0.035
Mof_C 	C 	0.36252	0.92574	0.96942	-0.123
Mof_H 	H 	0.3478	0.9909	0.9628	0.077
Mof_C 	C 	0.5124	0.79298	0.00984	0.35
Mof_Co	Co	0.38388	0.35133	0.95159	1.136
Mof_N 	N 	0.4705	0.10338	0.79765	-0.249
Mof_N 	N 	0.43073	0.96972	0.82051	-0.157
Mof_N 	N 	0.41212	0.48329	0.92087	-0.225
Mof_N 	N 	0.40792	0.6272	0.87504	-0.161
Mof_N 	N 	0.16367	0.80863	0.63697	-0.244
Mof_N 	N 	0.23904	0.79359	0.72457	-0.158
Mof_O 	O 	0.44414	0.29113	0.69066	-0.432
Mof_O 	O 	0.37583	0.17122	0.6685	-0.31
Mof_O 	O 	0.39666	0.57582	0.53586	-0.389
Mof_O 	O 	0.30849	0.56481	0.4612	-0.381
Mof_O 	O 	0.96518	0.21199	0.46439	-0.431
Mof_O 	O 	0.96022	0.35769	0.50699	-0.305
Mof_C 	C 	0.33422	0.8841	0.77375	-0.281
Mof_H 	H 	0.3177	0.9409	0.7512	0.136
Mof_C 	C 	0.39372	0.88245	0.81365	0.229
Mof_C 	C 	0.4192	0.79919	0.84805	-0.283
Mof_H 	H 	0.4595	0.7994	0.8745	0.143
Mof_C 	C 	0.3833	0.71563	0.84217	0.232
Mof_C 	C 	0.32345	0.71438	0.80232	-0.283
Mof_H 	H 	0.2997	0.6578	0.7987	0.136
Mof_C 	C 	0.29968	0.79791	0.76823	0.227
Mof_C 	C 	0.42866	0.03405	0.777	0.101
Mof_H 	H 	0.4012	0.03	0.7375	-0.002
Mof_C 	C 	0.50085	0.0822	0.85732	0.003
Mof_H 	H 	0.5331	0.119	0.8836	0.029
Mof_C 	C 	0.47693	0.0003	0.87197	0.002
Mof_H 	H 	0.4892	0.9705	0.9095	0.048
Mof_C 	C 	0.37708	0.55637	0.89144	0.108
Mof_H 	H 	0.3358	0.5593	0.8828	-0.012
Mof_C 	C 	0.46883	0.50809	0.92383	0.004
Mof_H 	H 	0.5033	0.4694	0.9422	0.038
Mof_C 	C 	0.46742	0.5961	0.89652	0.009
Mof_H 	H 	0.4999	0.6292	0.8928	0.04
Mof_C 	C 	0.22033	0.83225	0.66938	0.099
Mof_H 	H 	0.2444	0.8711	0.6556	-0.009
Mof_C 	C 	0.14554	0.7513	0.67434	0.006
Mof_H 	H 	0.1073	0.7235	0.6639	0.018
Mof_C 	C 	0.19116	0.7412	0.7282	0.001
Mof_H 	H 	0.1904	0.706	0.7611	0.037
Mof_C 	C 	0.39153	0.25681	0.66138	0.322
Mof_C 	C 	0.34723	0.32524	0.61603	-0.073
Mof_C 	C 	0.36636	0.40666	0.59194	0.009
Mof_H 	H 	0.4072	0.4228	0.6059	0.052
Mof_C 	C 	0.32454	0.46383	0.54707	-0.072
Mof_C 	C 	0.2629	0.44362	0.52923	-0.022
Mof_H 	H 	0.2349	0.483	0.4999	0.051
Mof_C 	C 	0.24269	0.36563	0.55466	-0.026
Mof_C 	C 	0.28549	0.30492	0.59675	-0.017
Mof_H 	H 	0.2727	0.2499	0.6123	0.05
Mof_C 	C 	0.34461	0.54044	0.51356	0.292
Mof_C 	C 	0.177	0.34709	0.53624	0.094
Mof_C 	C 	0.15367	0.25039	0.52439	-0.154
Mof_H 	H 	0.1796	0.1966	0.5285	0.094
Mof_C 	C 	0.09241	0.23382	0.50654	0.087
Mof_H 	H 	0.0772	0.1694	0.4966	0.011
Mof_C 	C 	0.05325	0.31215	0.50331	-0.167
Mof_C 	C 	0.07662	0.40843	0.5153	0.077
Mof_H 	H 	0.051	0.4618	0.513	0.018
Mof_C 	C 	0.13748	0.42574	0.53058	-0.146
Mof_H 	H 	0.1522	0.4909	0.5372	0.085
Mof_C 	C 	0.9876	0.29298	0.49016	0.385
Mof_Co	Co	0.88388	0.85133	0.95159	1.137
Mof_N 	N 	0.9705	0.60338	0.79765	-0.222
Mof_N 	N 	0.93073	0.46972	0.82051	-0.167
Mof_N 	N 	0.91212	0.98329	0.92087	-0.232
Mof_N 	N 	0.90792	0.1272	0.87504	-0.156
Mof_N 	N 	0.66367	0.30863	0.63697	-0.243
Mof_N 	N 	0.73904	0.29359	0.72457	-0.159
Mof_O 	O 	0.94414	0.79113	0.69066	-0.418
Mof_O 	O 	0.87583	0.67122	0.6685	-0.306
Mof_O 	O 	0.89666	0.07582	0.53586	-0.382
Mof_O 	O 	0.80849	0.06481	0.4612	-0.379
Mof_O 	O 	0.46518	0.71199	0.46439	-0.434
Mof_O 	O 	0.46022	0.85769	0.50699	-0.306
Mof_C 	C 	0.83422	0.3841	0.77375	-0.284
Mof_H 	H 	0.8177	0.4409	0.7512	0.137
Mof_C 	C 	0.89372	0.38245	0.81365	0.236
Mof_C 	C 	0.9192	0.29919	0.84805	-0.286
Mof_H 	H 	0.9595	0.2994	0.8745	0.149
Mof_C 	C 	0.8833	0.21563	0.84217	0.236
Mof_C 	C 	0.82345	0.21438	0.80232	-0.285
Mof_H 	H 	0.7997	0.1578	0.7987	0.137
Mof_C 	C 	0.79968	0.29791	0.76823	0.229
Mof_C 	C 	0.92866	0.53405	0.777	0.105
Mof_H 	H 	0.9012	0.53	0.7375	-0.001
Mof_C 	C 	0.00085	0.5822	0.85732	-0.082
Mof_H 	H 	0.0331	0.619	0.8836	0.053
Mof_C 	C 	0.97693	0.5003	0.87197	0.071
Mof_H 	H 	0.9892	0.4705	0.9095	0.032
Mof_C 	C 	0.87708	0.05637	0.89144	0.107
Mof_H 	H 	0.8358	0.0593	0.8828	-0.012
Mof_C 	C 	0.96883	0.00809	0.92383	0.064
Mof_H 	H 	0.0033	0.9694	0.9422	0.001
Mof_C 	C 	0.96742	0.0961	0.89652	-0.018
Mof_H 	H 	0.9999	0.1292	0.8928	0.059
Mof_C 	C 	0.72033	0.33225	0.66938	0.1
Mof_H 	H 	0.7444	0.3711	0.6556	-0.009
Mof_C 	C 	0.64554	0.2513	0.67434	0.005
Mof_H 	H 	0.6073	0.2235	0.6639	0.022
Mof_C 	C 	0.69116	0.2412	0.7282	0.002
Mof_H 	H 	0.6904	0.206	0.7611	0.036
Mof_C 	C 	0.89153	0.75681	0.66138	0.318
Mof_C 	C 	0.84723	0.82524	0.61603	-0.066
Mof_C 	C 	0.86636	0.90666	0.59194	0.003
Mof_H 	H 	0.9072	0.9228	0.6059	0.058
Mof_C 	C 	0.82454	0.96383	0.54707	-0.065
Mof_C 	C 	0.7629	0.94362	0.52923	-0.029
Mof_H 	H 	0.7349	0.983	0.4999	0.055
Mof_C 	C 	0.74269	0.86563	0.55466	-0.016
Mof_C 	C 	0.78549	0.80492	0.59675	-0.024
Mof_H 	H 	0.7727	0.7499	0.6123	0.053
Mof_C 	C 	0.84461	0.04044	0.51356	0.289
Mof_C 	C 	0.677	0.84709	0.53624	0.077
Mof_C 	C 	0.65367	0.75039	0.52439	-0.131
Mof_H 	H 	0.6796	0.6966	0.5285	0.086
Mof_C 	C 	0.59241	0.73382	0.50654	0.059
Mof_H 	H 	0.5772	0.6694	0.4966	0.024
Mof_C 	C 	0.55325	0.81215	0.50331	-0.121
Mof_C 	C 	0.57662	0.90843	0.5153	0.047
Mof_H 	H 	0.551	0.9618	0.513	0.036
Mof_C 	C 	0.63748	0.92574	0.53058	-0.123
Mof_H 	H 	0.6522	0.9909	0.5372	0.078
Mof_C 	C 	0.4876	0.79298	0.49016	0.347
Mof_Co	Co	0.5	0.80023	0.25	1.15
Mof_Co	Co	1.58668e-17	0.30023	0.25	1.138
Mof_Co	Co	0.5	0.19977	0.75	1.15
Mof_Co	Co	6.3467e-17	0.69977	0.75	1.139
_end
