data_functionalizedCrystal
_audit_creation_method	'EQeq! by Chris Wilmer'
_symmetry_space_group_name_H-M	'P1'
_symmetry_Int_Tables_number	1
_symmetry_cell_setting	triclinic
loop_
_symmetry_equiv_pos_as_xyz
  x,y,z
_cell_length_a	8.7586
_cell_length_b	10.156
_cell_length_c	19.476
_cell_angle_alpha	90
_cell_angle_beta	90
_cell_angle_gamma	100.22
loop_
_atom_site_label
_atom_site_type_symbol
_atom_site_fract_x
_atom_site_fract_y
_atom_site_fract_z
_atom_site_charge
Mof_Na	Na	0.89124	0.60987	0.46968	2.353
Mof_Na	Na	0.10876	0.89013	0.96968	2.308
Mof_Na	Na	0.10876	0.39013	0.53032	2.352
Mof_Na	Na	0.89124	0.10987	0.03032	2.307
Mof_Zn	Zn	0.6373	0.52495	0.60181	1.224
Mof_Zn	Zn	0.3627	0.97505	0.10181	1.223
Mof_Zn	Zn	0.3627	0.47505	0.39819	1.224
Mof_Zn	Zn	0.6373	0.02495	0.89819	1.223
Mof_H 	H 	0.75	0.371	0.532	0.47
Mof_H 	H 	0.633	0.402	0.492	0.554
Mof_H 	H 	0.9152	0.7569	0.744	0.037
Mof_H 	H 	0.0835	0.8628	0.8253	-0.113
Mof_H 	H 	0.4393	0.742	0.729	0.028
Mof_H 	H 	0.2708	0.6358	0.6471	-0.011
Mof_H 	H 	0.3762	0.8477	0.5786	0.013
Mof_H 	H 	0.7271	0.9654	0.4485	-0.012
Mof_H 	H 	0.25	0.129	0.032	0.473
Mof_H 	H 	0.367	0.098	0.992	0.553
Mof_H 	H 	0.0848	0.7431	0.244	0.021
Mof_H 	H 	0.9165	0.6372	0.3253	-0.108
Mof_H 	H 	0.5607	0.758	0.229	0.028
Mof_H 	H 	0.7292	0.8642	0.1471	-0.007
Mof_H 	H 	0.6238	0.6523	0.0786	0.013
Mof_H 	H 	0.2729	0.5346	0.9485	-0.011
Mof_H 	H 	0.25	0.629	0.468	0.47
Mof_H 	H 	0.367	0.598	0.508	0.554
Mof_H 	H 	0.0848	0.2431	0.256	0.037
Mof_H 	H 	0.9165	0.1372	0.1747	-0.113
Mof_H 	H 	0.5607	0.258	0.271	0.028
Mof_H 	H 	0.7292	0.3642	0.3529	-0.011
Mof_H 	H 	0.6238	0.1523	0.4214	0.013
Mof_H 	H 	0.2729	0.0346	0.5515	-0.012
Mof_H 	H 	0.75	0.871	0.968	0.473
Mof_H 	H 	0.633	0.902	0.008	0.553
Mof_H 	H 	0.9152	0.2569	0.756	0.021
Mof_H 	H 	0.0835	0.3628	0.6747	-0.108
Mof_H 	H 	0.4393	0.242	0.771	0.028
Mof_H 	H 	0.2708	0.1358	0.8529	-0.007
Mof_H 	H 	0.3762	0.3477	0.9214	0.013
Mof_H 	H 	0.7271	0.4654	0.0515	-0.011
Mof_C 	C 	0.9626	0.6113	0.63531	0.533
Mof_C 	C 	0.0749	0.6833	0.68741	-0.164
Mof_C 	C 	0.0203	0.753	0.74115	-0.063
Mof_C 	C 	0.1209	0.816	0.78982	0.05
Mof_C 	C 	0.2784	0.8105	0.78663	-0.182
Mof_C 	C 	0.3338	0.7439	0.73232	-0.005
Mof_C 	C 	0.2329	0.6806	0.68321	0.005
Mof_C 	C 	0.3832	0.8787	0.84201	0.463
Mof_C 	C 	0.6334	0.768	0.53496	0.451
Mof_C 	C 	0.562	0.8867	0.51664	-0.155
Mof_C 	C 	0.4265	0.9089	0.5468	-0.041
Mof_C 	C 	0.6356	0.979	0.4694	-0.007
Mof_C 	C 	0.0374	0.8887	0.13531	0.507
Mof_C 	C 	0.9251	0.8167	0.18741	-0.154
Mof_C 	C 	0.9797	0.747	0.24115	-0.039
Mof_C 	C 	0.8791	0.684	0.28982	0.04
Mof_C 	C 	0.7216	0.6895	0.28663	-0.179
Mof_C 	C 	0.6662	0.7561	0.23232	-0.003
Mof_C 	C 	0.7671	0.8194	0.18321	0.002
Mof_C 	C 	0.6168	0.6213	0.34201	0.464
Mof_C 	C 	0.3666	0.732	0.03496	0.449
Mof_C 	C 	0.438	0.6133	0.01664	-0.153
Mof_C 	C 	0.5735	0.5911	0.0468	-0.037
Mof_C 	C 	0.3644	0.521	0.9694	-0.009
Mof_C 	C 	0.0374	0.3887	0.36469	0.533
Mof_C 	C 	0.9251	0.3167	0.31259	-0.164
Mof_C 	C 	0.9797	0.247	0.25885	-0.063
Mof_C 	C 	0.8791	0.184	0.21018	0.05
Mof_C 	C 	0.7216	0.1895	0.21337	-0.182
Mof_C 	C 	0.6662	0.2561	0.26768	-0.005
Mof_C 	C 	0.7671	0.3194	0.31679	0.005
Mof_C 	C 	0.6168	0.1213	0.15799	0.463
Mof_C 	C 	0.3666	0.232	0.46504	0.451
Mof_C 	C 	0.438	0.1133	0.48336	-0.155
Mof_C 	C 	0.5735	0.0911	0.4532	-0.041
Mof_C 	C 	0.3644	0.021	0.5306	-0.007
Mof_C 	C 	0.9626	0.1113	0.86469	0.507
Mof_C 	C 	0.0749	0.1833	0.81259	-0.154
Mof_C 	C 	0.0203	0.253	0.75885	-0.039
Mof_C 	C 	0.1209	0.316	0.71018	0.04
Mof_C 	C 	0.2784	0.3105	0.71337	-0.179
Mof_C 	C 	0.3338	0.2439	0.76768	-0.003
Mof_C 	C 	0.2329	0.1806	0.81679	0.002
Mof_C 	C 	0.3832	0.3787	0.65799	0.464
Mof_C 	C 	0.6334	0.268	0.96504	0.449
Mof_C 	C 	0.562	0.3867	0.98336	-0.153
Mof_C 	C 	0.4265	0.4089	0.9532	-0.037
Mof_C 	C 	0.6356	0.479	0.0306	-0.009
Mof_O 	O 	0.0101	0.57	0.58115	-0.947
Mof_O 	O 	0.8212	0.5992	0.65318	-0.564
Mof_O 	O 	0.5276	0.9085	0.82753	-0.503
Mof_O 	O 	0.3291	0.9054	0.89728	-0.677
Mof_O 	O 	0.77	0.7674	0.52227	-0.696
Mof_O 	O 	0.5421	0.6701	0.5649	-0.565
Mof_O 	O 	0.6988	0.4247	0.52155	-1.473
Mof_O 	O 	0.9899	0.93	0.08115	-0.919
Mof_O 	O 	0.1788	0.9008	0.15318	-0.559
Mof_O 	O 	0.4724	0.5915	0.32753	-0.505
Mof_O 	O 	0.6709	0.5946	0.39728	-0.681
Mof_O 	O 	0.23	0.7326	0.02227	-0.69
Mof_O 	O 	0.4579	0.8299	0.0649	-0.563
Mof_O 	O 	0.3012	0.0753	0.02155	-1.466
Mof_O 	O 	0.9899	0.43	0.41885	-0.947
Mof_O 	O 	0.1788	0.4008	0.34682	-0.564
Mof_O 	O 	0.4724	0.0915	0.17247	-0.503
Mof_O 	O 	0.6709	0.0946	0.10272	-0.677
Mof_O 	O 	0.23	0.2326	0.47773	-0.696
Mof_O 	O 	0.4579	0.3299	0.4351	-0.565
Mof_O 	O 	0.3012	0.5753	0.47845	-1.473
Mof_O 	O 	0.0101	0.07	0.91885	-0.919
Mof_O 	O 	0.8212	0.0992	0.84682	-0.559
Mof_O 	O 	0.5276	0.4085	0.67247	-0.505
Mof_O 	O 	0.3291	0.4054	0.60272	-0.681
Mof_O 	O 	0.77	0.2674	0.97773	-0.69
Mof_O 	O 	0.5421	0.1701	0.9351	-0.563
Mof_O 	O 	0.6988	0.9247	0.97845	-1.466
_end
