data_functionalizedCrystal
_audit_creation_method	'EQeq! by Chris Wilmer'
_symmetry_space_group_name_H-M	'P1'
_symmetry_Int_Tables_number	1
_symmetry_cell_setting	triclinic
loop_
_symmetry_equiv_pos_as_xyz
  x,y,z
_cell_length_a	13.627
_cell_length_b	14.044
_cell_length_c	16.321
_cell_angle_alpha	90
_cell_angle_beta	90
_cell_angle_gamma	115.186
loop_
_atom_site_label
_atom_site_type_symbol
_atom_site_fract_x
_atom_site_fract_y
_atom_site_fract_z
_atom_site_charge
Mof_Ag	Ag	0.40988	0.72897	0.93072	0.583
Mof_Ag	Ag	0.09012	0.27103	0.43072	0.584
Mof_Ag	Ag	0.59012	0.27103	0.06928	0.583
Mof_Ag	Ag	0.90988	0.72897	0.56928	0.584
Mof_H 	H 	0.1823	0.5716	0.0019	-0.017
Mof_H 	H 	0.0954	0.4451	0.0987	0.126
Mof_H 	H 	0.3737	0.5504	0.2242	0.147
Mof_H 	H 	0.451	0.6754	0.1252	0.027
Mof_H 	H 	0.0987	0.3497	0.216	0.109
Mof_H 	H 	0.2109	0.347	0.2308	0.102
Mof_H 	H 	0.0068	0.4342	0.3007	0.1
Mof_H 	H 	0.0963	0.5505	0.3078	0.176
Mof_H 	H 	0.1613	0.6208	0.4471	0.126
Mof_H 	H 	0.7815	0.3006	0.4239	0.107
Mof_H 	H 	0.8566	0.3397	0.3469	0.085
Mof_H 	H 	0.7511	0.1363	0.5126	0.197
Mof_H 	H 	0.8639	0.2062	0.5531	0.19
Mof_H 	H 	0.7424	0.9627	0.4419	0.201
Mof_H 	H 	0.9581	0.1148	0.6172	0.196
Mof_H 	H 	0.983	0.9649	0.637	0.018
Mof_H 	H 	0.7731	0.8172	0.4668	0.026
Mof_H 	H 	0.3177	0.4284	0.5019	-0.018
Mof_H 	H 	0.4046	0.5549	0.5987	0.125
Mof_H 	H 	0.1263	0.4496	0.7242	0.146
Mof_H 	H 	0.049	0.3246	0.6252	0.026
Mof_H 	H 	0.4013	0.6503	0.716	0.109
Mof_H 	H 	0.2891	0.653	0.7308	0.102
Mof_H 	H 	0.4932	0.5658	0.8007	0.1
Mof_H 	H 	0.4037	0.4495	0.8078	0.176
Mof_H 	H 	0.3387	0.3792	0.9471	0.126
Mof_H 	H 	0.7185	0.6994	0.9239	0.107
Mof_H 	H 	0.6434	0.6603	0.8469	0.085
Mof_H 	H 	0.7489	0.8637	0.0126	0.196
Mof_H 	H 	0.6361	0.7938	0.0531	0.189
Mof_H 	H 	0.7576	0.0373	0.9419	0.201
Mof_H 	H 	0.5419	0.8852	0.1172	0.194
Mof_H 	H 	0.517	0.0351	0.137	0.019
Mof_H 	H 	0.7269	0.1828	0.9668	0.026
Mof_H 	H 	0.8177	0.4284	0.9981	-0.018
Mof_H 	H 	0.9046	0.5549	0.9013	0.125
Mof_H 	H 	0.6263	0.4496	0.7758	0.146
Mof_H 	H 	0.549	0.3246	0.8748	0.026
Mof_H 	H 	0.9013	0.6503	0.784	0.109
Mof_H 	H 	0.7891	0.653	0.7692	0.102
Mof_H 	H 	0.9932	0.5658	0.6993	0.1
Mof_H 	H 	0.9037	0.4495	0.6922	0.176
Mof_H 	H 	0.8387	0.3792	0.5529	0.126
Mof_H 	H 	0.2185	0.6994	0.5761	0.107
Mof_H 	H 	0.1434	0.6603	0.6531	0.085
Mof_H 	H 	0.2489	0.8637	0.4874	0.197
Mof_H 	H 	0.1361	0.7938	0.4469	0.19
Mof_H 	H 	0.2576	0.0373	0.5581	0.201
Mof_H 	H 	0.0419	0.8852	0.3828	0.196
Mof_H 	H 	0.017	0.0351	0.363	0.018
Mof_H 	H 	0.2269	0.1828	0.5332	0.026
Mof_H 	H 	0.6823	0.5716	0.4981	-0.018
Mof_H 	H 	0.5954	0.4451	0.4013	0.125
Mof_H 	H 	0.8737	0.5504	0.2758	0.146
Mof_H 	H 	0.951	0.6754	0.3748	0.026
Mof_H 	H 	0.5987	0.3497	0.284	0.109
Mof_H 	H 	0.7109	0.347	0.2692	0.102
Mof_H 	H 	0.5068	0.4342	0.1993	0.1
Mof_H 	H 	0.5963	0.5505	0.1922	0.176
Mof_H 	H 	0.6613	0.6208	0.0529	0.126
Mof_H 	H 	0.2815	0.3006	0.0761	0.107
Mof_H 	H 	0.3566	0.3397	0.1531	0.085
Mof_H 	H 	0.2511	0.1363	0.9874	0.196
Mof_H 	H 	0.3639	0.2062	0.9469	0.189
Mof_H 	H 	0.2424	0.9627	0.0581	0.201
Mof_H 	H 	0.4581	0.1148	0.8828	0.194
Mof_H 	H 	0.483	0.9649	0.863	0.019
Mof_H 	H 	0.2731	0.8172	0.0332	0.026
Mof_C 	C 	0.2215	0.567	0.0472	0.169
Mof_C 	C 	0.1685	0.49	0.1051	-0.218
Mof_C 	C 	0.2251	0.4805	0.1724	0.22
Mof_C 	C 	0.3328	0.5526	0.1793	-0.208
Mof_C 	C 	0.3789	0.6275	0.1191	0.165
Mof_C 	C 	0.173	0.3918	0.2329	-0.268
Mof_C 	C 	0.0674	0.4816	0.33338	-0.24
Mof_C 	C 	0.0298	0.4884	0.41929	0.068
Mof_C 	C 	0.9318	0.4139	0.45182	0.04
Mof_C 	C 	0.0959	0.5721	0.46843	-0.147
Mof_C 	C 	0.8545	0.3198	0.404	-0.207
Mof_C 	C 	0.828	0.1536	0.5113	-0.355
Mof_C 	C 	0.8461	0.0562	0.52728	0.287
Mof_C 	C 	0.7915	0.9649	0.4823	-0.267
Mof_C 	C 	0.9192	0.0552	0.586	-0.258
Mof_C 	C 	0.9334	0.9644	0.5976	0.169
Mof_C 	C 	0.8103	0.8776	0.4977	0.177
Mof_C 	C 	0.2785	0.433	0.5472	0.169
Mof_C 	C 	0.3315	0.51	0.6051	-0.218
Mof_C 	C 	0.2749	0.5195	0.6724	0.22
Mof_C 	C 	0.1672	0.4474	0.6793	-0.208
Mof_C 	C 	0.1211	0.3725	0.6191	0.166
Mof_C 	C 	0.327	0.6082	0.7329	-0.268
Mof_C 	C 	0.4326	0.5184	0.83338	-0.24
Mof_C 	C 	0.4702	0.5116	0.91929	0.068
Mof_C 	C 	0.5682	0.5861	0.95182	0.039
Mof_C 	C 	0.4041	0.4279	0.96843	-0.146
Mof_C 	C 	0.6455	0.6802	0.904	-0.206
Mof_C 	C 	0.672	0.8464	0.0113	-0.351
Mof_C 	C 	0.6539	0.9438	0.02728	0.284
Mof_C 	C 	0.7085	0.0351	0.9823	-0.264
Mof_C 	C 	0.5808	0.9448	0.086	-0.255
Mof_C 	C 	0.5666	0.0356	0.0976	0.166
Mof_C 	C 	0.6897	0.1224	0.9977	0.18
Mof_C 	C 	0.7785	0.433	0.9528	0.169
Mof_C 	C 	0.8315	0.51	0.8949	-0.218
Mof_C 	C 	0.7749	0.5195	0.8276	0.22
Mof_C 	C 	0.6672	0.4474	0.8207	-0.208
Mof_C 	C 	0.6211	0.3725	0.8809	0.165
Mof_C 	C 	0.827	0.6082	0.7671	-0.268
Mof_C 	C 	0.9326	0.5184	0.66662	-0.24
Mof_C 	C 	0.9702	0.5116	0.58071	0.068
Mof_C 	C 	0.0682	0.5861	0.54818	0.04
Mof_C 	C 	0.9041	0.4279	0.53157	-0.147
Mof_C 	C 	0.1455	0.6802	0.596	-0.207
Mof_C 	C 	0.172	0.8464	0.4887	-0.355
Mof_C 	C 	0.1539	0.9438	0.47272	0.287
Mof_C 	C 	0.2085	0.0351	0.5177	-0.267
Mof_C 	C 	0.0808	0.9448	0.414	-0.258
Mof_C 	C 	0.0666	0.0356	0.4024	0.169
Mof_C 	C 	0.1897	0.1224	0.5023	0.177
Mof_C 	C 	0.7215	0.567	0.4528	0.169
Mof_C 	C 	0.6685	0.49	0.3949	-0.218
Mof_C 	C 	0.7251	0.4805	0.3276	0.22
Mof_C 	C 	0.8328	0.5526	0.3207	-0.208
Mof_C 	C 	0.8789	0.6275	0.3809	0.166
Mof_C 	C 	0.673	0.3918	0.2671	-0.268
Mof_C 	C 	0.5674	0.4816	0.16662	-0.24
Mof_C 	C 	0.5298	0.4884	0.08071	0.068
Mof_C 	C 	0.4318	0.4139	0.04818	0.039
Mof_C 	C 	0.5959	0.5721	0.03157	-0.146
Mof_C 	C 	0.3545	0.3198	0.096	-0.206
Mof_C 	C 	0.328	0.1536	0.9887	-0.351
Mof_C 	C 	0.3461	0.0562	0.97272	0.284
Mof_C 	C 	0.2915	0.9649	0.0177	-0.264
Mof_C 	C 	0.4192	0.0552	0.914	-0.255
Mof_C 	C 	0.4334	0.9644	0.9024	0.166
Mof_C 	C 	0.3103	0.8776	0.0023	0.18
Mof_S 	S 	0.17243	0.43315	0.33815	-0.005
Mof_S 	S 	0.88395	0.2044	0.41059	0.003
Mof_S 	S 	0.32757	0.56685	0.83815	-0.005
Mof_S 	S 	0.61605	0.7956	0.91059	0
Mof_S 	S 	0.82757	0.56685	0.66185	-0.005
Mof_S 	S 	0.11605	0.7956	0.58941	0.003
Mof_S 	S 	0.67243	0.43315	0.16185	-0.005
Mof_S 	S 	0.38395	0.2044	0.08941	0
Mof_N 	N 	0.3259	0.6351	0.05267	-0.194
Mof_N 	N 	0.8795	0.8757	0.55507	-0.217
Mof_N 	N 	0.1741	0.3649	0.55267	-0.195
Mof_N 	N 	0.6205	0.1243	0.05507	-0.218
Mof_N 	N 	0.6741	0.3649	0.94733	-0.194
Mof_N 	N 	0.1205	0.1243	0.44493	-0.217
Mof_N 	N 	0.8259	0.6351	0.44733	-0.195
Mof_N 	N 	0.3795	0.8757	0.94493	-0.218
Mof_P 	P 	0.73891	0.81114	0.24822	1.143
Mof_F 	F 	0.7778	0.7458	0.1891	-0.391
Mof_F 	F 	0.6946	0.872	0.306	-0.391
Mof_F 	F 	0.8544	0.8628	0.2888	-0.39
Mof_F 	F 	0.7762	0.9007	0.181	-0.39
Mof_F 	F 	0.7015	0.7195	0.313	-0.396
Mof_F 	F 	0.6213	0.7567	0.20674	-0.398
Mof_P 	P 	0.76109	0.18886	0.74822	1.143
Mof_F 	F 	0.7222	0.2542	0.6891	-0.391
Mof_F 	F 	0.8054	0.128	0.806	-0.39
Mof_F 	F 	0.6456	0.1372	0.7888	-0.389
Mof_F 	F 	0.7238	0.0993	0.681	-0.39
Mof_F 	F 	0.7985	0.2805	0.813	-0.395
Mof_F 	F 	0.8787	0.2433	0.70674	-0.397
Mof_P 	P 	0.26109	0.18886	0.75178	1.143
Mof_F 	F 	0.2222	0.2542	0.8109	-0.391
Mof_F 	F 	0.3054	0.128	0.694	-0.391
Mof_F 	F 	0.1456	0.1372	0.7112	-0.39
Mof_F 	F 	0.2238	0.0993	0.819	-0.39
Mof_F 	F 	0.2985	0.2805	0.687	-0.396
Mof_F 	F 	0.3787	0.2433	0.79326	-0.398
Mof_P 	P 	0.23891	0.81114	0.25178	1.143
Mof_F 	F 	0.2778	0.7458	0.3109	-0.391
Mof_F 	F 	0.1946	0.872	0.194	-0.39
Mof_F 	F 	0.3544	0.8628	0.2112	-0.389
Mof_F 	F 	0.2762	0.9007	0.319	-0.39
Mof_F 	F 	0.2015	0.7195	0.187	-0.395
Mof_F 	F 	0.1213	0.7567	0.29326	-0.397
_end
