data_functionalizedCrystal
_audit_creation_method	'EQeq! by Chris Wilmer'
_symmetry_space_group_name_H-M	'P1'
_symmetry_Int_Tables_number	1
_symmetry_cell_setting	triclinic
loop_
_symmetry_equiv_pos_as_xyz
  x,y,z
_cell_length_a	25.953
_cell_length_b	11.015
_cell_length_c	13.246
_cell_angle_alpha	90
_cell_angle_beta	119.16
_cell_angle_gamma	90
loop_
_atom_site_label
_atom_site_type_symbol
_atom_site_fract_x
_atom_site_fract_y
_atom_site_fract_z
_atom_site_charge
Mof_O 	O 	0.426	0.137	0.818	-0.639
Mof_O 	O 	0.434	0.139	0.07	-0.586
Mof_O 	O 	0.407	0.368	0.924	-0.656
Mof_O 	O 	0.511	0.351	0.17	-0.612
Mof_O 	O 	0.399	0.37	0.203	-0.487
Mof_O 	O 	0.434	0.226	0.32	-0.283
Mof_O 	O 	0.467	0.18	0.639	-0.327
Mof_O 	O 	0.405	0.34	0.636	-0.437
Mof_C 	C 	0.406	0.317	0.295	0.424
Mof_C 	C 	0.401	0.376	0.385	-0.14
Mof_C 	C 	0.447	0.366	0.504	-0.032
Mof_C 	C 	0.436	0.288	0.589	0.265
Mof_O 	O 	0.926	0.637	0.818	-0.683
Mof_O 	O 	0.934	0.639	0.07	-0.62
Mof_O 	O 	0.907	0.868	0.924	-0.393
Mof_O 	O 	0.011	0.851	0.17	-0.438
Mof_O 	O 	0.899	0.87	0.203	-0.295
Mof_O 	O 	0.934	0.726	0.32	-0.242
Mof_O 	O 	0.967	0.68	0.639	-0.327
Mof_O 	O 	0.905	0.84	0.636	-0.285
Mof_C 	C 	0.906	0.817	0.295	0.375
Mof_C 	C 	0.901	0.876	0.385	-0.005
Mof_C 	C 	0.947	0.866	0.504	0.059
Mof_C 	C 	0.936	0.788	0.589	0.264
Mof_O 	O 	0.574	0.137	0.182	-0.631
Mof_O 	O 	0.566	0.139	0.93	-0.51
Mof_O 	O 	0.593	0.368	0.076	-0.744
Mof_O 	O 	0.489	0.351	0.83	-0.613
Mof_O 	O 	0.601	0.37	0.797	-0.499
Mof_O 	O 	0.566	0.226	0.68	-0.286
Mof_O 	O 	0.533	0.18	0.361	-0.323
Mof_O 	O 	0.595	0.34	0.364	-0.432
Mof_C 	C 	0.594	0.317	0.705	0.438
Mof_C 	C 	0.599	0.376	0.615	-0.142
Mof_C 	C 	0.553	0.366	0.496	-0.029
Mof_C 	C 	0.564	0.288	0.411	0.265
Mof_O 	O 	0.074	0.637	0.182	-0.667
Mof_O 	O 	0.066	0.639	0.93	-0.578
Mof_O 	O 	0.093	0.868	0.076	-0.484
Mof_O 	O 	0.989	0.851	0.83	-0.396
Mof_O 	O 	0.101	0.87	0.797	-0.301
Mof_O 	O 	0.066	0.726	0.68	-0.267
Mof_O 	O 	0.033	0.68	0.361	-0.335
Mof_O 	O 	0.095	0.84	0.364	-0.281
Mof_C 	C 	0.094	0.817	0.705	0.384
Mof_C 	C 	0.099	0.876	0.615	-0.004
Mof_C 	C 	0.053	0.866	0.496	0.034
Mof_C 	C 	0.064	0.788	0.411	0.263
Mof_O 	O 	0.574	0.863	0.182	-0.471
Mof_O 	O 	0.566	0.861	0.93	-0.346
Mof_O 	O 	0.593	0.632	0.076	-0.735
Mof_O 	O 	0.489	0.649	0.83	-0.62
Mof_O 	O 	0.601	0.63	0.797	-0.474
Mof_O 	O 	0.566	0.774	0.68	-0.189
Mof_O 	O 	0.533	0.82	0.361	-0.203
Mof_O 	O 	0.595	0.66	0.364	-0.404
Mof_C 	C 	0.594	0.683	0.705	0.429
Mof_C 	C 	0.599	0.624	0.615	-0.106
Mof_C 	C 	0.553	0.634	0.496	-0.022
Mof_C 	C 	0.564	0.712	0.411	0.28
Mof_O 	O 	0.074	0.363	0.182	-0.673
Mof_O 	O 	0.066	0.361	0.93	-0.586
Mof_O 	O 	0.093	0.132	0.076	-0.654
Mof_O 	O 	0.989	0.149	0.83	-0.523
Mof_O 	O 	0.101	0.13	0.797	-0.488
Mof_O 	O 	0.066	0.274	0.68	-0.287
Mof_O 	O 	0.033	0.32	0.361	-0.339
Mof_O 	O 	0.095	0.16	0.364	-0.416
Mof_C 	C 	0.094	0.183	0.705	0.419
Mof_C 	C 	0.099	0.124	0.615	-0.21
Mof_C 	C 	0.053	0.134	0.496	-0.095
Mof_C 	C 	0.064	0.212	0.411	0.266
Mof_O 	O 	0.426	0.863	0.818	-0.472
Mof_O 	O 	0.434	0.861	0.07	-0.429
Mof_O 	O 	0.407	0.632	0.924	-0.644
Mof_O 	O 	0.511	0.649	0.17	-0.62
Mof_O 	O 	0.399	0.63	0.203	-0.463
Mof_O 	O 	0.434	0.774	0.32	-0.187
Mof_O 	O 	0.467	0.82	0.639	-0.205
Mof_O 	O 	0.405	0.66	0.636	-0.409
Mof_C 	C 	0.406	0.683	0.295	0.415
Mof_C 	C 	0.401	0.624	0.385	-0.103
Mof_C 	C 	0.447	0.634	0.504	-0.025
Mof_C 	C 	0.436	0.712	0.589	0.279
Mof_O 	O 	0.926	0.363	0.818	-0.69
Mof_O 	O 	0.934	0.361	0.07	-0.625
Mof_O 	O 	0.907	0.132	0.924	-0.572
Mof_O 	O 	0.011	0.149	0.17	-0.56
Mof_O 	O 	0.899	0.13	0.203	-0.476
Mof_O 	O 	0.934	0.274	0.32	-0.262
Mof_O 	O 	0.967	0.32	0.639	-0.332
Mof_O 	O 	0.905	0.16	0.636	-0.422
Mof_C 	C 	0.906	0.183	0.295	0.409
Mof_C 	C 	0.901	0.124	0.385	-0.209
Mof_C 	C 	0.947	0.134	0.504	-0.071
Mof_C 	C 	0.936	0.212	0.589	0.268
Mof_Eu	Eu	0.5	0.2408	-0	1.742
Mof_Eu	Eu	-0	0.7408	-0	1.687
Mof_Eu	Eu	0.5	0.7592	-0	1.892
Mof_Eu	Eu	9.54243e-34	0.2592	-0	1.603
Mof_Eu	Eu	0.4937	0	0.7928	1.551
Mof_Eu	Eu	0.3848	-1.52679e-32	0.9022	1.211
Mof_O 	O 	0.567	1.52679e-32	0.743	-0.477
Mof_O 	O 	0.362	0	0.073	-0.442
Mof_C 	C 	0.622	0	0.816	0.334
Mof_Eu	Eu	0.9937	0.5	0.7928	2.182
Mof_Eu	Eu	0.8848	0.5	0.9022	1.735
Mof_O 	O 	0.067	0.5	0.743	-0.48
Mof_O 	O 	0.862	0.5	0.073	-0.421
Mof_C 	C 	0.122	0.5	0.816	0.384
Mof_Eu	Eu	0.5063	-3.81697e-33	0.2072	1.528
Mof_Eu	Eu	0.6152	0	0.0978	0.953
Mof_O 	O 	0.433	0	0.257	-0.479
Mof_O 	O 	0.638	0	0.927	-0.356
Mof_C 	C 	0.378	0	0.184	0.355
Mof_Eu	Eu	0.0063	0.5	0.2072	1.978
Mof_Eu	Eu	0.1152	0.5	0.0978	1.442
Mof_O 	O 	0.933	0.5	0.257	-0.436
Mof_O 	O 	0.138	0.5	0.927	-0.333
Mof_C 	C 	0.878	0.5	0.184	0.394
Mof_Eu	Eu	0.4212	0.5	0.0829	2.001
Mof_Eu	Eu	0.4064	0.5	0.7734	1.791
Mof_O 	O 	0.313	0.5	0.985	-0.443
Mof_O 	O 	0.235	0.5	0.013	-0.368
Mof_C 	C 	0.256	0.5	0.944	0.485
Mof_C 	C 	0.221	0.5	0.826	-0.167
Mof_C 	C 	0.163	0.5	0.769	-0.017
Mof_Eu	Eu	0.9212	0	0.0829	1.514
Mof_Eu	Eu	0.9064	0	0.7734	1.224
Mof_O 	O 	0.813	0	0.985	-0.483
Mof_O 	O 	0.735	0	0.013	-0.419
Mof_C 	C 	0.756	-1.52679e-32	0.944	0.446
Mof_C 	C 	0.721	0	0.826	-0.226
Mof_C 	C 	0.663	0	0.769	-0.081
Mof_Eu	Eu	0.5788	0.5	0.9171	2.327
Mof_Eu	Eu	0.5936	0.5	0.2266	1.763
Mof_O 	O 	0.687	0.5	0.015	-0.514
Mof_O 	O 	0.765	0.5	0.987	-0.203
Mof_C 	C 	0.744	0.5	0.056	0.316
Mof_C 	C 	0.779	0.5	0.174	-0.128
Mof_C 	C 	0.837	0.5	0.231	-0.056
Mof_Eu	Eu	0.0788	0	0.9171	1.711
Mof_Eu	Eu	0.0936	0	0.2266	1.196
Mof_O 	O 	0.187	0	0.015	-0.535
Mof_O 	O 	0.265	0	0.987	-0.264
Mof_C 	C 	0.244	0	0.056	0.286
Mof_C 	C 	0.279	-3.81697e-33	0.174	-0.182
Mof_C 	C 	0.337	3.81697e-33	0.231	-0.121
Mof_O 	O 	0.5	0.5	-0	-0.744
Mof_O 	O 	-0	0	-0	-0.761
Mof_O 	O 	0.5	0	-0	-0.899
Mof_O 	O 	1.90849e-33	0.5	-0	-0.906
_end
