data_functionalizedCrystal
_audit_creation_method	'EQeq! by Chris Wilmer'
_symmetry_space_group_name_H-M	'P1'
_symmetry_Int_Tables_number	1
_symmetry_cell_setting	triclinic
loop_
_symmetry_equiv_pos_as_xyz
  x,y,z
_cell_length_a	7.3337
_cell_length_b	7.3337
_cell_length_c	8.319
_cell_angle_alpha	90
_cell_angle_beta	90
_cell_angle_gamma	120
loop_
_atom_site_label
_atom_site_type_symbol
_atom_site_fract_x
_atom_site_fract_y
_atom_site_fract_z
_atom_site_charge
Mof_O 	O 	0.3058	0.8925	0.8956	-0.193
Mof_O 	O 	0.1075	0.4133	0.8956	-0.226
Mof_O 	O 	0.5867	0.6942	0.8956	-0.218
Mof_O 	O 	0.6942	0.1075	0.3956	-0.318
Mof_O 	O 	0.8925	0.5867	0.3956	-0.257
Mof_O 	O 	0.4133	0.3058	0.3956	-0.355
Mof_O 	O 	0.8925	0.3058	0.1044	-0.242
Mof_O 	O 	0.4133	0.1075	0.1044	-0.311
Mof_O 	O 	0.6942	0.5867	0.1044	-0.294
Mof_O 	O 	0.1075	0.6942	0.6044	-0.311
Mof_O 	O 	0.5867	0.8925	0.6044	-0.272
Mof_O 	O 	0.3058	0.4133	0.6044	-0.35
Mof_Fe	Fe	0.33333	0.66667	0.75	0.913
Mof_Fe	Fe	0.66667	0.33333	0.25	0.898
Mof_C 	C 	0.4342	0	-0	0.238
Mof_H 	H 	0.5611	0	-0	-0.053
Mof_C 	C 	-3.66752e-17	0.4342	-0	0.197
Mof_H 	H 	3.66752e-17	0.5611	-0	-0.048
Mof_C 	C 	0.5658	0.5658	-0	0.313
Mof_H 	H 	0.4389	0.4389	-0	-0.073
Mof_C 	C 	0.5658	-8.14352e-33	0.5	0.385
Mof_H 	H 	0.4389	-8.14352e-33	0.5	-0.082
Mof_C 	C 	3.89129e-18	0.5658	0.5	0.35
Mof_H 	H 	3.89129e-18	0.4389	0.5	-0.076
Mof_C 	C 	0.4342	0.4342	0.5	0.47
Mof_H 	H 	0.5611	0.5611	0.5	-0.085
_end
