data_functionalizedCrystal
_audit_creation_method	'EQeq! by Chris Wilmer'
_symmetry_space_group_name_H-M	'P1'
_symmetry_Int_Tables_number	1
_symmetry_cell_setting	triclinic
loop_
_symmetry_equiv_pos_as_xyz
  x,y,z
_cell_length_a	13.0913
_cell_length_b	13.2087
_cell_length_c	26.916
_cell_angle_alpha	90
_cell_angle_beta	90
_cell_angle_gamma	90
loop_
_atom_site_label
_atom_site_type_symbol
_atom_site_fract_x
_atom_site_fract_y
_atom_site_fract_z
_atom_site_charge
Mof_Cd	Cd	0.80519	0.80353	0.82913	0.426
Mof_Cd	Cd	0.19481	0.69647	0.32913	0.426
Mof_Cd	Cd	0.30519	0.19647	0.67088	0.427
Mof_Cd	Cd	0.69481	0.30353	0.17088	0.427
Mof_Cd	Cd	0.19481	0.19647	0.17088	0.427
Mof_Cd	Cd	0.80519	0.30353	0.67088	0.427
Mof_Cd	Cd	0.69481	0.80353	0.32913	0.427
Mof_Cd	Cd	0.30519	0.69647	0.82913	0.427
Mof_H 	H 	0.8228	0.9967	0.756	0.035
Mof_H 	H 	0.0418	0.8121	0.7922	0.041
Mof_H 	H 	0.6585	0.0917	0.7513	0.088
Mof_H 	H 	0.8016	0.0027	0.8947	0.033
Mof_H 	H 	0.8792	0.0846	0.9604	0.08
Mof_H 	H 	0.0646	0.8546	0.9736	0.084
Mof_H 	H 	0.9918	0.7863	0.9058	0.019
Mof_H 	H 	0.1772	0.5033	0.256	0.035
Mof_H 	H 	0.9582	0.6879	0.2922	0.041
Mof_H 	H 	0.3415	0.4083	0.2513	0.088
Mof_H 	H 	0.1984	0.4973	0.3947	0.031
Mof_H 	H 	0.1208	0.4154	0.4604	0.081
Mof_H 	H 	0.9354	0.6454	0.4736	0.085
Mof_H 	H 	0.0082	0.7137	0.4058	0.018
Mof_H 	H 	0.3228	0.0033	0.744	0.035
Mof_H 	H 	0.5418	0.1879	0.7078	0.041
Mof_H 	H 	0.1585	0.9083	0.7487	0.088
Mof_H 	H 	0.3016	0.9973	0.6053	0.032
Mof_H 	H 	0.3792	0.9154	0.5396	0.081
Mof_H 	H 	0.5646	0.1454	0.5264	0.084
Mof_H 	H 	0.4918	0.2137	0.5942	0.018
Mof_H 	H 	0.6772	0.4967	0.244	0.035
Mof_H 	H 	0.4582	0.3121	0.2078	0.041
Mof_H 	H 	0.8415	0.5917	0.2487	0.088
Mof_H 	H 	0.6984	0.5027	0.1053	0.031
Mof_H 	H 	0.6208	0.5846	0.0396	0.081
Mof_H 	H 	0.4354	0.3546	0.0264	0.085
Mof_H 	H 	0.5082	0.2863	0.0942	0.018
Mof_H 	H 	0.1772	0.0033	0.244	0.035
Mof_H 	H 	0.9582	0.1879	0.2078	0.041
Mof_H 	H 	0.3415	0.9083	0.2487	0.088
Mof_H 	H 	0.1984	0.9973	0.1053	0.033
Mof_H 	H 	0.1208	0.9154	0.0396	0.08
Mof_H 	H 	0.9354	0.1454	0.0264	0.084
Mof_H 	H 	0.0082	0.2137	0.0942	0.019
Mof_H 	H 	0.8228	0.4967	0.744	0.035
Mof_H 	H 	0.0418	0.3121	0.7078	0.041
Mof_H 	H 	0.6585	0.5917	0.7487	0.088
Mof_H 	H 	0.8016	0.5027	0.6053	0.031
Mof_H 	H 	0.8792	0.5846	0.5396	0.081
Mof_H 	H 	0.0646	0.3546	0.5264	0.085
Mof_H 	H 	0.9918	0.2863	0.5942	0.018
Mof_H 	H 	0.6772	0.9967	0.256	0.035
Mof_H 	H 	0.4582	0.8121	0.2922	0.041
Mof_H 	H 	0.8415	0.0917	0.2513	0.088
Mof_H 	H 	0.6984	0.0027	0.3947	0.032
Mof_H 	H 	0.6208	0.0846	0.4604	0.081
Mof_H 	H 	0.4354	0.8546	0.4736	0.084
Mof_H 	H 	0.5082	0.7863	0.4058	0.018
Mof_H 	H 	0.3228	0.5033	0.756	0.035
Mof_H 	H 	0.5418	0.6879	0.7922	0.041
Mof_H 	H 	0.1585	0.4083	0.7513	0.088
Mof_H 	H 	0.3016	0.4973	0.8947	0.031
Mof_H 	H 	0.3792	0.4154	0.9604	0.081
Mof_H 	H 	0.5646	0.6454	0.9736	0.085
Mof_H 	H 	0.4918	0.7137	0.9058	0.018
Mof_C 	C 	0.64	0.923	0.8	0.301
Mof_C 	C 	0.5589	0.987	0.7765	0.001
Mof_C 	C 	0.4553	0.961	0.7741	-0.078
Mof_C 	C 	0.4109	0.8702	0.7999	0.313
Mof_C 	C 	0.8913	0.9784	0.754	0.064
Mof_C 	C 	0.0194	0.87	0.7759	0.06
Mof_C 	C 	0.5901	0.0726	0.7508	-0.079
Mof_C 	C 	0.8547	0.9706	0.9113	0.076
Mof_C 	C 	0.901	0.0199	0.9518	-0.125
Mof_C 	C 	0.9762	0.976	0.9783	0.064
Mof_C 	C 	0.0094	0.8874	0.959	-0.14
Mof_C 	C 	0.9635	0.8454	0.9185	0.094
Mof_C 	C 	0.36	0.577	0.3	0.301
Mof_C 	C 	0.4411	0.513	0.2765	0.002
Mof_C 	C 	0.5447	0.539	0.2741	-0.078
Mof_C 	C 	0.5891	0.6298	0.2999	0.313
Mof_C 	C 	0.1087	0.5216	0.254	0.066
Mof_C 	C 	0.9806	0.63	0.2759	0.06
Mof_C 	C 	0.4099	0.4274	0.2508	-0.08
Mof_C 	C 	0.1453	0.5294	0.4113	0.08
Mof_C 	C 	0.099	0.4801	0.4518	-0.13
Mof_C 	C 	0.0238	0.524	0.4783	0.067
Mof_C 	C 	0.9906	0.6126	0.459	-0.144
Mof_C 	C 	0.0365	0.6546	0.4185	0.097
Mof_C 	C 	0.14	0.077	0.7	0.301
Mof_C 	C 	0.0589	0.013	0.7235	-0.001
Mof_C 	C 	0.9553	0.039	0.7259	-0.075
Mof_C 	C 	0.9109	0.1298	0.7001	0.313
Mof_C 	C 	0.3913	0.0216	0.746	0.066
Mof_C 	C 	0.5194	0.13	0.7241	0.06
Mof_C 	C 	0.0901	0.9274	0.7492	-0.078
Mof_C 	C 	0.3547	0.0294	0.5887	0.079
Mof_C 	C 	0.401	0.9801	0.5482	-0.129
Mof_C 	C 	0.4762	0.024	0.5217	0.066
Mof_C 	C 	0.5094	0.1126	0.541	-0.143
Mof_C 	C 	0.4635	0.1546	0.5815	0.096
Mof_C 	C 	0.86	0.423	0.2	0.301
Mof_C 	C 	0.9411	0.487	0.2235	0.001
Mof_C 	C 	0.0447	0.461	0.2259	-0.078
Mof_C 	C 	0.0891	0.3702	0.2001	0.313
Mof_C 	C 	0.6087	0.4784	0.246	0.066
Mof_C 	C 	0.4806	0.37	0.2241	0.06
Mof_C 	C 	0.9099	0.5726	0.2492	-0.08
Mof_C 	C 	0.6453	0.4706	0.0887	0.08
Mof_C 	C 	0.599	0.5199	0.0482	-0.129
Mof_C 	C 	0.5238	0.476	0.0217	0.067
Mof_C 	C 	0.4906	0.3874	0.041	-0.143
Mof_C 	C 	0.5365	0.3454	0.0815	0.096
Mof_C 	C 	0.36	0.077	0.2	0.301
Mof_C 	C 	0.4411	0.013	0.2235	0.001
Mof_C 	C 	0.5447	0.039	0.2259	-0.078
Mof_C 	C 	0.5891	0.1298	0.2001	0.313
Mof_C 	C 	0.1087	0.0216	0.246	0.064
Mof_C 	C 	0.9806	0.13	0.2241	0.06
Mof_C 	C 	0.4099	0.9274	0.2492	-0.079
Mof_C 	C 	0.1453	0.0294	0.0887	0.076
Mof_C 	C 	0.099	0.9801	0.0482	-0.125
Mof_C 	C 	0.0238	0.024	0.0217	0.064
Mof_C 	C 	0.9906	0.1126	0.041	-0.14
Mof_C 	C 	0.0365	0.1546	0.0815	0.094
Mof_C 	C 	0.64	0.423	0.7	0.301
Mof_C 	C 	0.5589	0.487	0.7235	0.002
Mof_C 	C 	0.4553	0.461	0.7259	-0.078
Mof_C 	C 	0.4109	0.3702	0.7001	0.313
Mof_C 	C 	0.8913	0.4784	0.746	0.066
Mof_C 	C 	0.0194	0.37	0.7241	0.06
Mof_C 	C 	0.5901	0.5726	0.7492	-0.08
Mof_C 	C 	0.8547	0.4706	0.5887	0.08
Mof_C 	C 	0.901	0.5199	0.5482	-0.13
Mof_C 	C 	0.9762	0.476	0.5217	0.067
Mof_C 	C 	0.0094	0.3874	0.541	-0.144
Mof_C 	C 	0.9635	0.3454	0.5815	0.097
Mof_C 	C 	0.86	0.923	0.3	0.301
Mof_C 	C 	0.9411	0.987	0.2765	-0.001
Mof_C 	C 	0.0447	0.961	0.2741	-0.075
Mof_C 	C 	0.0891	0.8702	0.2999	0.313
Mof_C 	C 	0.6087	0.9784	0.254	0.066
Mof_C 	C 	0.4806	0.87	0.2759	0.06
Mof_C 	C 	0.9099	0.0726	0.2508	-0.078
Mof_C 	C 	0.6453	0.9706	0.4113	0.079
Mof_C 	C 	0.599	0.0199	0.4518	-0.129
Mof_C 	C 	0.5238	0.976	0.4783	0.066
Mof_C 	C 	0.4906	0.8874	0.459	-0.143
Mof_C 	C 	0.5365	0.8454	0.4185	0.096
Mof_C 	C 	0.14	0.577	0.8	0.301
Mof_C 	C 	0.0589	0.513	0.7765	0.001
Mof_C 	C 	0.9553	0.539	0.7741	-0.078
Mof_C 	C 	0.9109	0.6298	0.7999	0.313
Mof_C 	C 	0.3913	0.5216	0.754	0.066
Mof_C 	C 	0.5194	0.63	0.7759	0.06
Mof_C 	C 	0.0901	0.4274	0.7508	-0.08
Mof_C 	C 	0.3547	0.5294	0.9113	0.08
Mof_C 	C 	0.401	0.4801	0.9518	-0.129
Mof_C 	C 	0.4762	0.524	0.9783	0.067
Mof_C 	C 	0.5094	0.6126	0.959	-0.143
Mof_C 	C 	0.4635	0.6546	0.9185	0.096
Mof_N 	N 	0.9211	0.8949	0.77882	-0.136
Mof_N 	N 	0.884	0.8811	0.8965	-0.156
Mof_N 	N 	0.0789	0.6051	0.27882	-0.136
Mof_N 	N 	0.116	0.6189	0.3965	-0.157
Mof_N 	N 	0.4211	0.1051	0.72118	-0.136
Mof_N 	N 	0.384	0.1189	0.6035	-0.157
Mof_N 	N 	0.5789	0.3949	0.22118	-0.136
Mof_N 	N 	0.616	0.3811	0.1035	-0.157
Mof_N 	N 	0.0789	0.1051	0.22118	-0.136
Mof_N 	N 	0.116	0.1189	0.1035	-0.156
Mof_N 	N 	0.9211	0.3949	0.72118	-0.136
Mof_N 	N 	0.884	0.3811	0.6035	-0.157
Mof_N 	N 	0.5789	0.8949	0.27882	-0.136
Mof_N 	N 	0.616	0.8811	0.3965	-0.157
Mof_N 	N 	0.4211	0.6051	0.77882	-0.136
Mof_N 	N 	0.384	0.6189	0.8965	-0.157
Mof_O 	O 	0.6844	0.9575	0.8365	-0.262
Mof_O 	O 	0.6662	0.8437	0.7792	-0.264
Mof_O 	O 	0.4564	0.8309	0.83521	-0.264
Mof_O 	O 	0.3272	0.8378	0.7834	-0.276
Mof_O 	O 	0.3156	0.5425	0.3365	-0.262
Mof_O 	O 	0.3338	0.6563	0.2792	-0.264
Mof_O 	O 	0.5436	0.6691	0.33521	-0.264
Mof_O 	O 	0.6728	0.6622	0.2834	-0.277
Mof_O 	O 	0.1844	0.0425	0.6635	-0.262
Mof_O 	O 	0.1662	0.1563	0.7208	-0.265
Mof_O 	O 	0.9564	0.1691	0.66479	-0.264
Mof_O 	O 	0.8272	0.1622	0.7166	-0.276
Mof_O 	O 	0.8156	0.4575	0.1635	-0.262
Mof_O 	O 	0.8338	0.3437	0.2208	-0.264
Mof_O 	O 	0.0436	0.3309	0.16479	-0.264
Mof_O 	O 	0.1728	0.3378	0.2166	-0.277
Mof_O 	O 	0.3156	0.0425	0.1635	-0.262
Mof_O 	O 	0.3338	0.1563	0.2208	-0.264
Mof_O 	O 	0.5436	0.1691	0.16479	-0.264
Mof_O 	O 	0.6728	0.1622	0.2166	-0.276
Mof_O 	O 	0.6844	0.4575	0.6635	-0.262
Mof_O 	O 	0.6662	0.3437	0.7208	-0.264
Mof_O 	O 	0.4564	0.3309	0.66479	-0.264
Mof_O 	O 	0.3272	0.3378	0.7166	-0.277
Mof_O 	O 	0.8156	0.9575	0.3365	-0.262
Mof_O 	O 	0.8338	0.8437	0.2792	-0.265
Mof_O 	O 	0.0436	0.8309	0.33521	-0.264
Mof_O 	O 	0.1728	0.8378	0.2834	-0.276
Mof_O 	O 	0.1844	0.5425	0.8365	-0.262
Mof_O 	O 	0.1662	0.6563	0.7792	-0.264
Mof_O 	O 	0.9564	0.6691	0.83521	-0.264
Mof_O 	O 	0.8272	0.6622	0.7834	-0.277
_end
