data_functionalizedCrystal
_audit_creation_method	'EQeq! by Chris Wilmer'
_symmetry_space_group_name_H-M	'P1'
_symmetry_Int_Tables_number	1
_symmetry_cell_setting	triclinic
loop_
_symmetry_equiv_pos_as_xyz
  x,y,z
_cell_length_a	8.3219
_cell_length_b	15.4318
_cell_length_c	28.647
_cell_angle_alpha	90
_cell_angle_beta	93.449
_cell_angle_gamma	90
loop_
_atom_site_label
_atom_site_type_symbol
_atom_site_fract_x
_atom_site_fract_y
_atom_site_fract_z
_atom_site_charge
Mof_Tb	Tb	0.77314	0.01306	0.71417	1.705
Mof_O 	O 	0.6563	0.9351	0.6496	-0.428
Mof_O 	O 	0.6004	0.8857	0.7191	-0.422
Mof_O 	O 	0.3863	0.536	0.2906	-0.423
Mof_O 	O 	0.1704	0.4555	0.2889	-0.448
Mof_O 	O 	0.8642	0.0937	0.6473	-0.417
Mof_O 	O 	0.9305	0.149	0.7177	-0.42
Mof_N 	N 	0.3117	0.5813	0.5344	-0.142
Mof_N 	N 	0.191	0.4417	0.5329	-0.141
Mof_N 	N 	0.2405	0.5157	0.6062	-0.139
Mof_C 	C 	0.589	0.8784	0.6766	0.288
Mof_C 	C 	0.516	0.8019	0.6509	-0.069
Mof_C 	C 	0.508	0.7949	0.603	-0.002
Mof_H 	H 	0.5512	0.8405	0.5853	0.044
Mof_C 	C 	0.44	0.7238	0.5792	-0.069
Mof_H 	H 	0.4373	0.7201	0.5461	0.063
Mof_C 	C 	0.373	0.6559	0.607	0.01
Mof_C 	C 	0.382	0.6629	0.6537	-0.06
Mof_H 	H 	0.3364	0.6173	0.6708	0.055
Mof_C 	C 	0.454	0.7316	0.6797	-0.021
Mof_H 	H 	0.4619	0.7326	0.7129	0.054
Mof_C 	C 	0.306	0.5805	0.58	0.11
Mof_C 	C 	0.256	0.509	0.5112	0.106
Mof_C 	C 	0.183	0.448	0.5792	0.106
Mof_C 	C 	0.265	0.5044	0.4611	0.025
Mof_C 	C 	0.364	0.561	0.4382	-0.076
Mof_H 	H 	0.4274	0.6024	0.4557	0.067
Mof_C 	C 	0.371	0.5569	0.3886	0.02
Mof_H 	H 	0.4404	0.5943	0.3729	0.038
Mof_C 	C 	0.272	0.4958	0.3627	-0.104
Mof_C 	C 	0.179	0.441	0.3864	0.033
Mof_H 	H 	0.1146	0.3999	0.3692	0.032
Mof_C 	C 	0.174	0.4421	0.4348	-0.084
Mof_H 	H 	0.1105	0.4012	0.4501	0.071
Mof_C 	C 	0.278	0.4935	0.3119	0.341
Mof_C 	C 	0.121	0.3732	0.6053	0.018
Mof_C 	C 	0.103	0.2935	0.5818	-0.075
Mof_H 	H 	0.1341	0.2876	0.5506	0.063
Mof_C 	C 	0.038	0.2221	0.6052	0.007
Mof_H 	H 	0.0284	0.1678	0.5897	0.039
Mof_C 	C 	0.988	0.2294	0.6491	-0.079
Mof_C 	C 	0.006	0.3111	0.6735	-0.001
Mof_H 	H 	0.9763	0.3168	0.7049	0.048
Mof_C 	C 	0.066	0.3807	0.65	-0.069
Mof_H 	H 	0.0704	0.4358	0.6648	0.065
Mof_C 	C 	0.928	0.1525	0.6735	0.285
Mof_Tb	Tb	0.27314	0.48694	0.21417	1.708
Mof_O 	O 	0.1563	0.5649	0.1496	-0.431
Mof_O 	O 	0.1004	0.6143	0.2191	-0.425
Mof_O 	O 	0.8863	0.964	0.7906	-0.421
Mof_O 	O 	0.6704	0.0445	0.7889	-0.448
Mof_O 	O 	0.3642	0.4063	0.1473	-0.418
Mof_O 	O 	0.4305	0.351	0.2177	-0.419
Mof_N 	N 	0.8117	0.9187	0.0344	-0.142
Mof_N 	N 	0.691	0.0583	0.0329	-0.141
Mof_N 	N 	0.7405	0.9843	0.1062	-0.139
Mof_C 	C 	0.089	0.6216	0.1766	0.288
Mof_C 	C 	0.016	0.6981	0.1509	-0.07
Mof_C 	C 	0.008	0.7051	0.103	-0.004
Mof_H 	H 	0.0512	0.6595	0.0853	0.044
Mof_C 	C 	0.94	0.7762	0.0792	-0.067
Mof_H 	H 	0.9373	0.7799	0.0461	0.062
Mof_C 	C 	0.873	0.8441	0.107	0.01
Mof_C 	C 	0.882	0.8371	0.1537	-0.059
Mof_H 	H 	0.8364	0.8827	0.1708	0.055
Mof_C 	C 	0.954	0.7684	0.1797	-0.02
Mof_H 	H 	0.9619	0.7674	0.2129	0.054
Mof_C 	C 	0.806	0.9195	0.08	0.11
Mof_C 	C 	0.756	0.991	0.0112	0.103
Mof_C 	C 	0.683	0.052	0.0792	0.107
Mof_C 	C 	0.765	0.9956	0.9611	0.032
Mof_C 	C 	0.864	0.939	0.9382	-0.08
Mof_H 	H 	0.9274	0.8976	0.9557	0.069
Mof_C 	C 	0.871	0.9431	0.8886	0.027
Mof_H 	H 	0.9404	0.9057	0.8729	0.036
Mof_C 	C 	0.772	0.0042	0.8627	-0.109
Mof_C 	C 	0.679	0.059	0.8864	0.038
Mof_H 	H 	0.6146	0.1001	0.8692	0.03
Mof_C 	C 	0.674	0.0579	0.9348	-0.092
Mof_H 	H 	0.6105	0.0988	0.9501	0.073
Mof_C 	C 	0.778	0.0065	0.8119	0.339
Mof_C 	C 	0.621	0.1268	0.1053	0.016
Mof_C 	C 	0.603	0.2065	0.0818	-0.073
Mof_H 	H 	0.6341	0.2124	0.0506	0.062
Mof_C 	C 	0.538	0.2779	0.1052	0.002
Mof_H 	H 	0.5284	0.3322	0.0897	0.04
Mof_C 	C 	0.488	0.2706	0.1491	-0.074
Mof_C 	C 	0.506	0.1889	0.1735	-0.006
Mof_H 	H 	0.4763	0.1832	0.2049	0.05
Mof_C 	C 	0.566	0.1193	0.15	-0.066
Mof_H 	H 	0.5704	0.0642	0.1648	0.065
Mof_C 	C 	0.428	0.3475	0.1735	0.283
Mof_Tb	Tb	0.72686	0.51306	0.78583	1.708
Mof_O 	O 	0.8437	0.4351	0.8504	-0.431
Mof_O 	O 	0.8996	0.3857	0.7809	-0.425
Mof_O 	O 	0.1137	0.036	0.2094	-0.421
Mof_O 	O 	0.3296	0.9555	0.2111	-0.448
Mof_O 	O 	0.6358	0.5937	0.8527	-0.418
Mof_O 	O 	0.5695	0.649	0.7823	-0.419
Mof_N 	N 	0.1883	0.0813	0.9656	-0.142
Mof_N 	N 	0.309	0.9417	0.9671	-0.141
Mof_N 	N 	0.2595	0.0157	0.8938	-0.139
Mof_C 	C 	0.911	0.3784	0.8234	0.288
Mof_C 	C 	0.984	0.3019	0.8491	-0.07
Mof_C 	C 	0.992	0.2949	0.897	-0.004
Mof_H 	H 	0.9488	0.3405	0.9147	0.044
Mof_C 	C 	0.06	0.2238	0.9208	-0.067
Mof_H 	H 	0.0627	0.2201	0.9539	0.062
Mof_C 	C 	0.127	0.1559	0.893	0.01
Mof_C 	C 	0.118	0.1629	0.8463	-0.059
Mof_H 	H 	0.1636	0.1173	0.8292	0.055
Mof_C 	C 	0.046	0.2316	0.8203	-0.02
Mof_H 	H 	0.0381	0.2326	0.7871	0.054
Mof_C 	C 	0.194	0.0805	0.92	0.11
Mof_C 	C 	0.244	0.009	0.9888	0.103
Mof_C 	C 	0.317	0.948	0.9208	0.107
Mof_C 	C 	0.235	0.0044	0.0389	0.032
Mof_C 	C 	0.136	0.061	0.0618	-0.08
Mof_H 	H 	0.0726	0.1024	0.0443	0.069
Mof_C 	C 	0.129	0.0569	0.1114	0.027
Mof_H 	H 	0.0596	0.0943	0.1271	0.036
Mof_C 	C 	0.228	0.9958	0.1373	-0.109
Mof_C 	C 	0.321	0.941	0.1136	0.038
Mof_H 	H 	0.3854	0.8999	0.1308	0.03
Mof_C 	C 	0.326	0.9421	0.0652	-0.092
Mof_H 	H 	0.3895	0.9012	0.0499	0.073
Mof_C 	C 	0.222	0.9935	0.1881	0.339
Mof_C 	C 	0.379	0.8732	0.8947	0.016
Mof_C 	C 	0.397	0.7935	0.9182	-0.073
Mof_H 	H 	0.3659	0.7876	0.9494	0.062
Mof_C 	C 	0.462	0.7221	0.8948	0.002
Mof_H 	H 	0.4716	0.6678	0.9103	0.04
Mof_C 	C 	0.512	0.7294	0.8509	-0.074
Mof_C 	C 	0.494	0.8111	0.8265	-0.006
Mof_H 	H 	0.5237	0.8168	0.7951	0.05
Mof_C 	C 	0.434	0.8807	0.85	-0.066
Mof_H 	H 	0.4296	0.9358	0.8352	0.065
Mof_C 	C 	0.572	0.6525	0.8265	0.283
Mof_Tb	Tb	0.22686	0.98694	0.28583	1.704
Mof_O 	O 	0.3437	0.0649	0.3504	-0.429
Mof_O 	O 	0.3996	0.1143	0.2809	-0.423
Mof_O 	O 	0.6137	0.464	0.7094	-0.424
Mof_O 	O 	0.8296	0.5445	0.7111	-0.449
Mof_O 	O 	0.1358	0.9063	0.3527	-0.418
Mof_O 	O 	0.0695	0.851	0.2823	-0.42
Mof_N 	N 	0.6883	0.4187	0.4656	-0.142
Mof_N 	N 	0.809	0.5583	0.4671	-0.141
Mof_N 	N 	0.7595	0.4843	0.3938	-0.139
Mof_C 	C 	0.411	0.1216	0.3234	0.288
Mof_C 	C 	0.484	0.1981	0.3491	-0.069
Mof_C 	C 	0.492	0.2051	0.397	-0.002
Mof_H 	H 	0.4488	0.1595	0.4147	0.044
Mof_C 	C 	0.56	0.2762	0.4208	-0.069
Mof_H 	H 	0.5627	0.2799	0.4539	0.063
Mof_C 	C 	0.627	0.3441	0.393	0.01
Mof_C 	C 	0.618	0.3371	0.3463	-0.06
Mof_H 	H 	0.6636	0.3827	0.3292	0.055
Mof_C 	C 	0.546	0.2684	0.3203	-0.021
Mof_H 	H 	0.5381	0.2674	0.2871	0.054
Mof_C 	C 	0.694	0.4195	0.42	0.11
Mof_C 	C 	0.744	0.491	0.4888	0.106
Mof_C 	C 	0.817	0.552	0.4208	0.106
Mof_C 	C 	0.735	0.4956	0.5389	0.025
Mof_C 	C 	0.636	0.439	0.5618	-0.076
Mof_H 	H 	0.5726	0.3976	0.5443	0.067
Mof_C 	C 	0.629	0.4431	0.6114	0.02
Mof_H 	H 	0.5596	0.4057	0.6271	0.038
Mof_C 	C 	0.728	0.5042	0.6373	-0.104
Mof_C 	C 	0.821	0.559	0.6136	0.033
Mof_H 	H 	0.8854	0.6001	0.6308	0.032
Mof_C 	C 	0.826	0.5579	0.5652	-0.084
Mof_H 	H 	0.8895	0.5988	0.5499	0.071
Mof_C 	C 	0.722	0.5065	0.6881	0.341
Mof_C 	C 	0.879	0.6268	0.3947	0.018
Mof_C 	C 	0.897	0.7065	0.4182	-0.075
Mof_H 	H 	0.8659	0.7124	0.4494	0.063
Mof_C 	C 	0.962	0.7779	0.3948	0.007
Mof_H 	H 	0.9716	0.8322	0.4103	0.039
Mof_C 	C 	0.012	0.7706	0.3509	-0.079
Mof_C 	C 	0.994	0.6889	0.3265	-0.001
Mof_H 	H 	0.0237	0.6832	0.2951	0.048
Mof_C 	C 	0.934	0.6193	0.35	-0.069
Mof_H 	H 	0.9296	0.5642	0.3352	0.065
Mof_C 	C 	0.072	0.8475	0.3265	0.285
_end
