data_functionalizedCrystal
_audit_creation_method	'EQeq! by Chris Wilmer'
_symmetry_space_group_name_H-M	'P1'
_symmetry_Int_Tables_number	1
_symmetry_cell_setting	triclinic
loop_
_symmetry_equiv_pos_as_xyz
  x,y,z
_cell_length_a	13.718
_cell_length_b	27.232
_cell_length_c	13.639
_cell_angle_alpha	90
_cell_angle_beta	90
_cell_angle_gamma	90
loop_
_atom_site_label
_atom_site_type_symbol
_atom_site_fract_x
_atom_site_fract_y
_atom_site_fract_z
_atom_site_charge
Mof_Cd	Cd	0.83374	0.87367	0.99599	0.375
Mof_Cd	Cd	0.47048	0.80752	0.13743	0.274
Mof_Cd	Cd	0.22245	0.9253	0.89199	0.264
Mof_N 	N 	0.6803	0.8498	0.0429	-0.137
Mof_C 	C 	0.6103	0.8349	0.0751	-0.006
Mof_N 	N 	0.8942	0.8581	0.1538	-0.135
Mof_C 	C 	0.9201	0.8417	0.2245	-0.001
Mof_N 	N 	0.9908	0.8982	0.9482	-0.138
Mof_C 	C 	0.0698	0.9045	0.9275	-0.014
Mof_N 	N 	0.7792	0.9014	0.841	-0.136
Mof_C 	C 	0.7571	0.9107	0.7654	0.003
Mof_N 	N 	0.3771	0.8669	0.0374	-0.138
Mof_C 	C 	0.3277	0.8876	0.99	-0.002
Mof_N 	N 	0.8001	0.9553	0.05	-0.135
Mof_C 	C 	0.7881	0.994	0.0736	0.002
Mof_N 	N 	0.8711	0.7949	0.9447	-0.138
Mof_C 	C 	0.9024	0.7607	0.9171	-0.001
Mof_N 	N 	0.5457	0.9841	0.2489	-0.087
Mof_C 	C 	0.5664	0.9487	0.1856	0.054
Mof_H 	H 	0.5925	0.9194	0.2087	0.015
Mof_C 	C 	0.5503	0.9541	0.0864	-0.122
Mof_H 	H 	0.5682	0.9294	0.043	0.077
Mof_C 	C 	0.5082	0.9959	0.0529	0.05
Mof_C 	C 	0.488	0.0334	0.1196	-0.121
Mof_H 	H 	0.4599	0.0625	0.0977	0.07
Mof_C 	C 	0.508	0.0276	0.216	0.043
Mof_H 	H 	0.4966	0.0531	0.2598	0.016
Mof_C 	C 	0.5646	0.977	0.3572	-0.369
Mof_H 	H 	0.5179	0.9543	0.3836	0.146
Mof_H 	H 	0.5588	0.008	0.3903	0.145
Mof_H 	H 	0.6292	0.9642	0.3665	0.14
Mof_Cd	Cd	0.66626	0.12633	0.49599	0.377
Mof_Cd	Cd	0.02952	0.19248	0.63743	0.275
Mof_Cd	Cd	0.27755	0.0747	0.39199	0.265
Mof_N 	N 	0.8197	0.1502	0.5429	-0.136
Mof_C 	C 	0.8897	0.1651	0.5751	-0.005
Mof_N 	N 	0.6058	0.1419	0.6538	-0.135
Mof_C 	C 	0.5799	0.1583	0.7245	-0.001
Mof_N 	N 	0.5092	0.1018	0.4482	-0.137
Mof_C 	C 	0.4302	0.0955	0.4275	-0.015
Mof_N 	N 	0.7208	0.0986	0.341	-0.136
Mof_C 	C 	0.7429	0.0893	0.2654	0.003
Mof_N 	N 	0.1229	0.1331	0.5374	-0.139
Mof_C 	C 	0.1723	0.1124	0.49	-0.001
Mof_N 	N 	0.6999	0.0447	0.55	-0.135
Mof_C 	C 	0.7119	0.006	0.5736	0.002
Mof_N 	N 	0.6289	0.2051	0.4447	-0.138
Mof_C 	C 	0.5976	0.2393	0.4171	-0
Mof_N 	N 	0.9543	0.0159	0.7489	-0.086
Mof_C 	C 	0.9336	0.0513	0.6856	0.053
Mof_H 	H 	0.9075	0.0806	0.7087	0.015
Mof_C 	C 	0.9497	0.0459	0.5864	-0.121
Mof_H 	H 	0.9318	0.0706	0.543	0.076
Mof_C 	C 	0.9918	0.0041	0.5529	0.048
Mof_C 	C 	0.012	0.9666	0.6196	-0.117
Mof_H 	H 	0.0401	0.9375	0.5977	0.069
Mof_C 	C 	0.992	0.9724	0.716	0.039
Mof_H 	H 	0.0034	0.9469	0.7598	0.018
Mof_C 	C 	0.9354	0.023	0.8572	-0.366
Mof_H 	H 	0.9821	0.0457	0.8836	0.146
Mof_H 	H 	0.9412	0.992	0.8903	0.143
Mof_H 	H 	0.8708	0.0358	0.8665	0.139
Mof_Cd	Cd	0.16626	0.37367	0.50401	0.377
Mof_Cd	Cd	0.52952	0.30752	0.36257	0.275
Mof_Cd	Cd	0.77755	0.4253	0.60801	0.265
Mof_N 	N 	0.3197	0.3498	0.4571	-0.136
Mof_C 	C 	0.3897	0.3349	0.4249	-0.005
Mof_N 	N 	0.1058	0.3581	0.3462	-0.135
Mof_C 	C 	0.0799	0.3417	0.2755	-0.001
Mof_N 	N 	0.0092	0.3982	0.5518	-0.137
Mof_C 	C 	0.9302	0.4045	0.5725	-0.015
Mof_N 	N 	0.2208	0.4014	0.659	-0.136
Mof_C 	C 	0.2429	0.4107	0.7346	0.003
Mof_N 	N 	0.6229	0.3669	0.4626	-0.139
Mof_C 	C 	0.6723	0.3876	0.51	-0.001
Mof_N 	N 	0.1999	0.4553	0.45	-0.135
Mof_C 	C 	0.2119	0.494	0.4264	0.002
Mof_N 	N 	0.1289	0.2949	0.5553	-0.138
Mof_C 	C 	0.0976	0.2607	0.5829	-0
Mof_N 	N 	0.4543	0.4841	0.2511	-0.087
Mof_C 	C 	0.4336	0.4487	0.3144	0.054
Mof_H 	H 	0.4075	0.4194	0.2913	0.015
Mof_C 	C 	0.4497	0.4541	0.4136	-0.122
Mof_H 	H 	0.4318	0.4294	0.457	0.076
Mof_C 	C 	0.4918	0.4959	0.4471	0.049
Mof_C 	C 	0.512	0.5334	0.3804	-0.12
Mof_H 	H 	0.5401	0.5625	0.4023	0.07
Mof_C 	C 	0.492	0.5276	0.284	0.043
Mof_H 	H 	0.5034	0.5531	0.2402	0.016
Mof_C 	C 	0.4354	0.477	0.1428	-0.369
Mof_H 	H 	0.4821	0.4543	0.1164	0.147
Mof_H 	H 	0.4412	0.508	0.1097	0.145
Mof_H 	H 	0.3708	0.4642	0.1335	0.14
Mof_Cd	Cd	0.33374	0.62633	0.00401	0.377
Mof_Cd	Cd	0.97048	0.69248	0.86257	0.275
Mof_Cd	Cd	0.72245	0.5747	0.10801	0.265
Mof_N 	N 	0.1803	0.6502	0.9571	-0.136
Mof_C 	C 	0.1103	0.6651	0.9249	-0.004
Mof_N 	N 	0.3942	0.6419	0.8462	-0.135
Mof_C 	C 	0.4201	0.6583	0.7755	-0.001
Mof_N 	N 	0.4908	0.6018	0.0518	-0.137
Mof_C 	C 	0.5698	0.5955	0.0725	-0.015
Mof_N 	N 	0.2792	0.5986	0.159	-0.136
Mof_C 	C 	0.2571	0.5893	0.2346	0.003
Mof_N 	N 	0.8771	0.6331	0.9626	-0.14
Mof_C 	C 	0.8277	0.6124	0.01	0
Mof_N 	N 	0.3001	0.5447	0.95	-0.135
Mof_C 	C 	0.2881	0.506	0.9264	0.002
Mof_N 	N 	0.3711	0.7051	0.0553	-0.138
Mof_C 	C 	0.4024	0.7393	0.0829	-0
Mof_N 	N 	0.0457	0.5159	0.7511	-0.087
Mof_C 	C 	0.0664	0.5513	0.8144	0.054
Mof_H 	H 	0.0925	0.5806	0.7913	0.015
Mof_C 	C 	0.0503	0.5459	0.9136	-0.123
Mof_H 	H 	0.0682	0.5706	0.957	0.077
Mof_C 	C 	0.0082	0.5041	0.9471	0.05
Mof_C 	C 	0.988	0.4666	0.8804	-0.123
Mof_H 	H 	0.9599	0.4375	0.9023	0.071
Mof_C 	C 	0.008	0.4724	0.784	0.045
Mof_H 	H 	0.9966	0.4469	0.7402	0.015
Mof_C 	C 	0.0646	0.523	0.6428	-0.369
Mof_H 	H 	0.0179	0.5457	0.6164	0.147
Mof_H 	H 	0.0588	0.492	0.6097	0.145
Mof_H 	H 	0.1292	0.5358	0.6335	0.14
Mof_Cd	Cd	0.16626	0.12633	0.00401	0.376
Mof_Cd	Cd	0.52952	0.19248	0.86257	0.275
Mof_Cd	Cd	0.77755	0.0747	0.10801	0.265
Mof_N 	N 	0.3197	0.1502	0.9571	-0.136
Mof_C 	C 	0.3897	0.1651	0.9249	-0.005
Mof_N 	N 	0.1058	0.1419	0.8462	-0.134
Mof_C 	C 	0.0799	0.1583	0.7755	-0.001
Mof_N 	N 	0.0092	0.1018	0.0518	-0.138
Mof_C 	C 	0.9302	0.0955	0.0725	-0.014
Mof_N 	N 	0.2208	0.0986	0.159	-0.136
Mof_C 	C 	0.2429	0.0893	0.2346	0.003
Mof_N 	N 	0.6229	0.1331	0.9626	-0.138
Mof_C 	C 	0.6723	0.1124	0.01	-0.002
Mof_N 	N 	0.1999	0.0447	0.95	-0.135
Mof_C 	C 	0.2119	0.006	0.9264	0.002
Mof_N 	N 	0.1289	0.2051	0.0553	-0.138
Mof_C 	C 	0.0976	0.2393	0.0829	-0.001
Mof_N 	N 	0.4543	0.0159	0.7511	-0.087
Mof_C 	C 	0.4336	0.0513	0.8144	0.054
Mof_H 	H 	0.4075	0.0806	0.7913	0.015
Mof_C 	C 	0.4497	0.0459	0.9136	-0.122
Mof_H 	H 	0.4318	0.0706	0.957	0.077
Mof_C 	C 	0.4918	0.0041	0.9471	0.05
Mof_C 	C 	0.512	0.9666	0.8804	-0.121
Mof_H 	H 	0.5401	0.9375	0.9023	0.07
Mof_C 	C 	0.492	0.9724	0.784	0.043
Mof_H 	H 	0.5034	0.9469	0.7402	0.016
Mof_C 	C 	0.4354	0.023	0.6428	-0.369
Mof_H 	H 	0.4821	0.0457	0.6164	0.146
Mof_H 	H 	0.4412	0.992	0.6097	0.145
Mof_H 	H 	0.3708	0.0358	0.6335	0.14
Mof_Cd	Cd	0.33374	0.87367	0.50401	0.377
Mof_Cd	Cd	0.97048	0.80752	0.36257	0.275
Mof_Cd	Cd	0.72245	0.9253	0.60801	0.265
Mof_N 	N 	0.1803	0.8498	0.4571	-0.136
Mof_C 	C 	0.1103	0.8349	0.4249	-0.005
Mof_N 	N 	0.3942	0.8581	0.3462	-0.135
Mof_C 	C 	0.4201	0.8417	0.2755	-0.001
Mof_N 	N 	0.4908	0.8982	0.5518	-0.137
Mof_C 	C 	0.5698	0.9045	0.5725	-0.015
Mof_N 	N 	0.2792	0.9014	0.659	-0.136
Mof_C 	C 	0.2571	0.9107	0.7346	0.003
Mof_N 	N 	0.8771	0.8669	0.4626	-0.139
Mof_C 	C 	0.8277	0.8876	0.51	-0.001
Mof_N 	N 	0.3001	0.9553	0.45	-0.135
Mof_C 	C 	0.2881	0.994	0.4264	0.002
Mof_N 	N 	0.3711	0.7949	0.5553	-0.138
Mof_C 	C 	0.4024	0.7607	0.5829	-0
Mof_N 	N 	0.0457	0.9841	0.2511	-0.086
Mof_C 	C 	0.0664	0.9487	0.3144	0.053
Mof_H 	H 	0.0925	0.9194	0.2913	0.015
Mof_C 	C 	0.0503	0.9541	0.4136	-0.121
Mof_H 	H 	0.0682	0.9294	0.457	0.076
Mof_C 	C 	0.0082	0.9959	0.4471	0.048
Mof_C 	C 	0.988	0.0334	0.3804	-0.117
Mof_H 	H 	0.9599	0.0625	0.4023	0.069
Mof_C 	C 	0.008	0.0276	0.284	0.039
Mof_H 	H 	0.9966	0.0531	0.2402	0.018
Mof_C 	C 	0.0646	0.977	0.1428	-0.366
Mof_H 	H 	0.0179	0.9543	0.1164	0.146
Mof_H 	H 	0.0588	0.008	0.1097	0.143
Mof_H 	H 	0.1292	0.9642	0.1335	0.139
Mof_Cd	Cd	0.83374	0.62633	0.49599	0.377
Mof_Cd	Cd	0.47048	0.69248	0.63743	0.275
Mof_Cd	Cd	0.22245	0.5747	0.39199	0.265
Mof_N 	N 	0.6803	0.6502	0.5429	-0.136
Mof_C 	C 	0.6103	0.6651	0.5751	-0.005
Mof_N 	N 	0.8942	0.6419	0.6538	-0.135
Mof_C 	C 	0.9201	0.6583	0.7245	-0.001
Mof_N 	N 	0.9908	0.6018	0.4482	-0.137
Mof_C 	C 	0.0698	0.5955	0.4275	-0.015
Mof_N 	N 	0.7792	0.5986	0.341	-0.136
Mof_C 	C 	0.7571	0.5893	0.2654	0.003
Mof_N 	N 	0.3771	0.6331	0.5374	-0.139
Mof_C 	C 	0.3277	0.6124	0.49	-0.001
Mof_N 	N 	0.8001	0.5447	0.55	-0.135
Mof_C 	C 	0.7881	0.506	0.5736	0.002
Mof_N 	N 	0.8711	0.7051	0.4447	-0.138
Mof_C 	C 	0.9024	0.7393	0.4171	-0
Mof_N 	N 	0.5457	0.5159	0.7489	-0.087
Mof_C 	C 	0.5664	0.5513	0.6856	0.054
Mof_H 	H 	0.5925	0.5806	0.7087	0.015
Mof_C 	C 	0.5503	0.5459	0.5864	-0.122
Mof_H 	H 	0.5682	0.5706	0.543	0.076
Mof_C 	C 	0.5082	0.5041	0.5529	0.049
Mof_C 	C 	0.488	0.4666	0.6196	-0.12
Mof_H 	H 	0.4599	0.4375	0.5977	0.07
Mof_C 	C 	0.508	0.4724	0.716	0.043
Mof_H 	H 	0.4966	0.4469	0.7598	0.016
Mof_C 	C 	0.5646	0.523	0.8572	-0.369
Mof_H 	H 	0.5179	0.5457	0.8836	0.147
Mof_H 	H 	0.5588	0.492	0.8903	0.145
Mof_H 	H 	0.6292	0.5358	0.8665	0.14
Mof_Cd	Cd	0.66626	0.37367	0.99599	0.377
Mof_Cd	Cd	0.02952	0.30752	0.13743	0.275
Mof_Cd	Cd	0.27755	0.4253	0.89199	0.265
Mof_N 	N 	0.8197	0.3498	0.0429	-0.136
Mof_C 	C 	0.8897	0.3349	0.0751	-0.004
Mof_N 	N 	0.6058	0.3581	0.1538	-0.135
Mof_C 	C 	0.5799	0.3417	0.2245	-0.001
Mof_N 	N 	0.5092	0.3982	0.9482	-0.137
Mof_C 	C 	0.4302	0.4045	0.9275	-0.015
Mof_N 	N 	0.7208	0.4014	0.841	-0.136
Mof_C 	C 	0.7429	0.4107	0.7654	0.003
Mof_N 	N 	0.1229	0.3669	0.0374	-0.14
Mof_C 	C 	0.1723	0.3876	0.99	0
Mof_N 	N 	0.6999	0.4553	0.05	-0.135
Mof_C 	C 	0.7119	0.494	0.0736	0.002
Mof_N 	N 	0.6289	0.2949	0.9447	-0.138
Mof_C 	C 	0.5976	0.2607	0.9171	-0
Mof_N 	N 	0.9543	0.4841	0.2489	-0.087
Mof_C 	C 	0.9336	0.4487	0.1856	0.054
Mof_H 	H 	0.9075	0.4194	0.2087	0.015
Mof_C 	C 	0.9497	0.4541	0.0864	-0.123
Mof_H 	H 	0.9318	0.4294	0.043	0.077
Mof_C 	C 	0.9918	0.4959	0.0529	0.05
Mof_C 	C 	0.012	0.5334	0.1196	-0.123
Mof_H 	H 	0.0401	0.5625	0.0977	0.071
Mof_C 	C 	0.992	0.5276	0.216	0.045
Mof_H 	H 	0.0034	0.5531	0.2598	0.015
Mof_C 	C 	0.9354	0.477	0.3572	-0.369
Mof_H 	H 	0.9821	0.4543	0.3836	0.147
Mof_H 	H 	0.9412	0.508	0.3903	0.145
Mof_H 	H 	0.8708	0.4642	0.3665	0.14
_end
