data_functionalizedCrystal
_audit_creation_method	'EQeq! by Chris Wilmer'
_symmetry_space_group_name_H-M	'P1'
_symmetry_Int_Tables_number	1
_symmetry_cell_setting	triclinic
loop_
_symmetry_equiv_pos_as_xyz
  x,y,z
_cell_length_a	16.7853
_cell_length_b	19.5011
_cell_length_c	24.295
_cell_angle_alpha	112.891
_cell_angle_beta	90
_cell_angle_gamma	90
loop_
_atom_site_label
_atom_site_type_symbol
_atom_site_fract_x
_atom_site_fract_y
_atom_site_fract_z
_atom_site_charge
Mof_La	La	0.5158	0.8868	0.96851	2.038
Mof_La	La	0.52195	0.61755	0.01912	2.067
Mof_La	La	0.0158	0.6132	0.53149	2.037
Mof_La	La	0.02195	0.88244	0.48088	2.057
Mof_La	La	0.4842	0.1132	0.03149	2.038
Mof_La	La	0.47805	0.38244	0.98088	2.067
Mof_La	La	0.9842	0.3868	0.46851	2.038
Mof_La	La	0.97805	0.11755	0.51912	2.058
Mof_H 	H 	0.4867	0.5373	0.84	0.005
Mof_H 	H 	0.3077	0.0799	0.3228	0.091
Mof_H 	H 	0.3961	0.0262	0.2275	0.083
Mof_H 	H 	0.2392	0.1539	0.7635	0.088
Mof_H 	H 	0.4215	0.4679	0.7516	0.084
Mof_H 	H 	0.3316	0.4106	0.6573	0.079
Mof_H 	H 	0.4645	0.9588	0.14	0.002
Mof_H 	H 	0.2172	0.1049	0.4012	0.021
Mof_H 	H 	0.3282	0.8693	0.7945	0.057
Mof_H 	H 	0.3154	0.1253	0.84	0.057
Mof_H 	H 	0.3949	0.7272	0.8374	0.027
Mof_H 	H 	0.1396	0.9363	0.6133	-0.004
Mof_H 	H 	0.3974	0.7658	0.151	0.023
Mof_H 	H 	0.1605	0.1602	0.6873	0.037
Mof_H 	H 	0.2426	0.3808	0.5787	0.034
Mof_H 	H 	0.2024	0.8864	0.3693	-0.012
Mof_H 	H 	0.3832	0.0809	0.9024	0.002
Mof_H 	H 	0.1964	0.5991	0.6214	-0.002
Mof_H 	H 	0.9867	0.9627	0.66	0.008
Mof_H 	H 	0.8077	0.4201	0.1772	0.09
Mof_H 	H 	0.8961	0.4738	0.2725	0.083
Mof_H 	H 	0.7392	0.3461	0.7365	0.089
Mof_H 	H 	0.9215	0.0321	0.7484	0.078
Mof_H 	H 	0.8316	0.0894	0.8427	0.081
Mof_H 	H 	0.9645	0.5412	0.36	0.002
Mof_H 	H 	0.7172	0.3951	0.0988	0.023
Mof_H 	H 	0.8282	0.6307	0.7055	0.058
Mof_H 	H 	0.8154	0.3747	0.66	0.055
Mof_H 	H 	0.8949	0.7728	0.6626	0.027
Mof_H 	H 	0.6396	0.5637	0.8867	-0.005
Mof_H 	H 	0.8974	0.7342	0.349	0.023
Mof_H 	H 	0.6605	0.3398	0.8127	0.036
Mof_H 	H 	0.7426	0.1192	0.9213	0.033
Mof_H 	H 	0.7024	0.6136	0.1307	-0.01
Mof_H 	H 	0.8832	0.4191	0.5976	0.003
Mof_H 	H 	0.6964	0.9009	0.8786	-0.003
Mof_H 	H 	0.5133	0.4627	0.16	0.005
Mof_H 	H 	0.6923	0.9201	0.6772	0.091
Mof_H 	H 	0.6039	0.9738	0.7725	0.083
Mof_H 	H 	0.7608	0.8461	0.2365	0.088
Mof_H 	H 	0.5785	0.5321	0.2484	0.084
Mof_H 	H 	0.6684	0.5894	0.3427	0.079
Mof_H 	H 	0.5355	0.0412	0.86	0.002
Mof_H 	H 	0.7828	0.8951	0.5988	0.021
Mof_H 	H 	0.6718	0.1307	0.2055	0.057
Mof_H 	H 	0.6846	0.8747	0.16	0.057
Mof_H 	H 	0.6051	0.2728	0.1626	0.027
Mof_H 	H 	0.8604	0.0637	0.3867	-0.004
Mof_H 	H 	0.6026	0.2342	0.849	0.023
Mof_H 	H 	0.8395	0.8398	0.3127	0.037
Mof_H 	H 	0.7574	0.6192	0.4213	0.034
Mof_H 	H 	0.7976	0.1136	0.6307	-0.012
Mof_H 	H 	0.6168	0.9191	0.0976	0.002
Mof_H 	H 	0.8036	0.4009	0.3786	-0.002
Mof_H 	H 	0.0133	0.0373	0.34	0.008
Mof_H 	H 	0.1923	0.5799	0.8228	0.09
Mof_H 	H 	0.1039	0.5262	0.7275	0.083
Mof_H 	H 	0.2608	0.6539	0.2635	0.089
Mof_H 	H 	0.0785	0.9679	0.2516	0.078
Mof_H 	H 	0.1684	0.9106	0.1573	0.081
Mof_H 	H 	0.0355	0.4588	0.64	0.002
Mof_H 	H 	0.2828	0.6049	0.9012	0.023
Mof_H 	H 	0.1718	0.3693	0.2945	0.058
Mof_H 	H 	0.1846	0.6253	0.34	0.055
Mof_H 	H 	0.1051	0.2272	0.3374	0.027
Mof_H 	H 	0.3604	0.4363	0.1133	-0.005
Mof_H 	H 	0.1026	0.2658	0.651	0.023
Mof_H 	H 	0.3395	0.6602	0.1873	0.036
Mof_H 	H 	0.2574	0.8808	0.0787	0.033
Mof_H 	H 	0.2976	0.3864	0.8693	-0.01
Mof_H 	H 	0.1168	0.5809	0.4024	0.003
Mof_H 	H 	0.3036	0.0991	0.1214	-0.003
Mof_C 	C 	0.492	0.6841	0.9041	0.51
Mof_C 	C 	0.4489	0.6391	0.8475	-0.181
Mof_C 	C 	0.4552	0.5614	0.8216	0.094
Mof_C 	C 	0.3559	0.9379	0.2427	0.052
Mof_C 	C 	0.2859	0.0412	0.3312	-0.129
Mof_C 	C 	0.4356	0.8555	0.1353	-0.177
Mof_C 	C 	0.396	0.9744	0.2126	-0.132
Mof_C 	C 	0.2193	0.1107	0.7339	-0.119
Mof_C 	C 	0.4153	0.5193	0.7688	-0.135
Mof_C 	C 	0.2821	0.0243	0.7791	0.033
Mof_C 	C 	0.3042	0.4481	0.6506	-0.107
Mof_C 	C 	0.1412	0.05	0.643	-0.158
Mof_C 	C 	0.2065	0.978	0.6883	-0.098
Mof_C 	C 	0.4365	0.9337	0.1595	0.084
Mof_C 	C 	0.3058	0.968	0.297	0.055
Mof_C 	C 	0.236	0.0415	0.7346	0.058
Mof_C 	C 	0.3662	0.555	0.7422	0.057
Mof_C 	C 	0.2322	0.056	0.3788	0.083
Mof_C 	C 	0.327	0.9202	0.8035	0.031
Mof_C 	C 	0.2094	0.4867	0.5918	-0.132
Mof_C 	C 	0.3184	0.0744	0.8307	-0.103
Mof_C 	C 	0.4003	0.6757	0.8208	0.079
Mof_C 	C 	0.1591	0.9797	0.6428	0.072
Mof_C 	C 	0.3971	0.8175	0.1657	0.072
Mof_C 	C 	0.3159	0.5222	0.6879	0.042
Mof_C 	C 	0.2007	0.9988	0.3933	-0.178
Mof_C 	C 	0.3584	0.8587	0.2184	-0.092
Mof_C 	C 	0.3643	0.9702	0.8543	-0.115
Mof_C 	C 	0.1721	0.114	0.6881	0.07
Mof_C 	C 	0.1385	0.0129	0.4416	0.469
Mof_C 	C 	0.2879	0.9484	0.7665	-0.065
Mof_C 	C 	0.0881	0.0599	0.5969	0.432
Mof_C 	C 	0.3608	0.6331	0.7693	-0.091
Mof_C 	C 	0.274	0.5769	0.6754	-0.089
Mof_C 	C 	0.2733	0.9119	0.3127	-0.101
Mof_C 	C 	0.1467	0.4702	0.5447	0.379
Mof_C 	C 	0.251	0.4304	0.6033	0.05
Mof_C 	C 	0.222	0.9251	0.36	0.084
Mof_C 	C 	0.3591	0.0475	0.868	0.045
Mof_C 	C 	0.4116	0.944	0.8951	0.358
Mof_C 	C 	0.2223	0.5612	0.6285	0.061
Mof_C 	C 	0.4739	0.8129	0.0761	0.467
Mof_C 	C 	0.992	0.8159	0.5959	0.513
Mof_C 	C 	0.9489	0.8609	0.6525	-0.178
Mof_C 	C 	0.9552	0.9386	0.6784	0.089
Mof_C 	C 	0.8559	0.5621	0.2573	0.052
Mof_C 	C 	0.7859	0.4588	0.1688	-0.127
Mof_C 	C 	0.9356	0.6445	0.3647	-0.176
Mof_C 	C 	0.896	0.5256	0.2874	-0.131
Mof_C 	C 	0.7193	0.3893	0.7661	-0.121
Mof_C 	C 	0.9153	0.9807	0.7312	-0.124
Mof_C 	C 	0.7821	0.4757	0.7209	0.029
Mof_C 	C 	0.8042	0.0519	0.8494	-0.114
Mof_C 	C 	0.6412	0.45	0.857	-0.164
Mof_C 	C 	0.7065	0.522	0.8117	-0.096
Mof_C 	C 	0.9365	0.5663	0.3405	0.084
Mof_C 	C 	0.8058	0.532	0.203	0.055
Mof_C 	C 	0.736	0.4585	0.7654	0.058
Mof_C 	C 	0.8662	0.945	0.7578	0.053
Mof_C 	C 	0.7322	0.444	0.1212	0.077
Mof_C 	C 	0.827	0.5798	0.6965	0.027
Mof_C 	C 	0.7094	0.0133	0.9082	-0.136
Mof_C 	C 	0.8184	0.4256	0.6693	-0.099
Mof_C 	C 	0.9003	0.8243	0.6792	0.078
Mof_C 	C 	0.6591	0.5203	0.8572	0.078
Mof_C 	C 	0.8971	0.6825	0.3343	0.072
Mof_C 	C 	0.8159	0.9778	0.8121	0.048
Mof_C 	C 	0.7007	0.5012	0.1067	-0.169
Mof_C 	C 	0.8584	0.6413	0.2816	-0.091
Mof_C 	C 	0.8643	0.5298	0.6457	-0.11
Mof_C 	C 	0.6721	0.386	0.8119	0.073
Mof_C 	C 	0.6385	0.4871	0.0584	0.462
Mof_C 	C 	0.7879	0.5516	0.7335	-0.06
Mof_C 	C 	0.5881	0.4401	0.9031	0.434
Mof_C 	C 	0.8608	0.8669	0.7307	-0.088
Mof_C 	C 	0.774	0.9231	0.8246	-0.091
Mof_C 	C 	0.7733	0.5881	0.1873	-0.099
Mof_C 	C 	0.6467	0.0298	0.9553	0.38
Mof_C 	C 	0.751	0.0696	0.8967	0.054
Mof_C 	C 	0.722	0.5749	0.14	0.08
Mof_C 	C 	0.8591	0.4525	0.632	0.039
Mof_C 	C 	0.9116	0.556	0.6049	0.356
Mof_C 	C 	0.7223	0.9388	0.8715	0.065
Mof_C 	C 	0.9739	0.6871	0.4239	0.468
Mof_C 	C 	0.508	0.3159	0.0959	0.51
Mof_C 	C 	0.5511	0.3609	0.1525	-0.181
Mof_C 	C 	0.5448	0.4386	0.1784	0.094
Mof_C 	C 	0.6441	0.0621	0.7573	0.052
Mof_C 	C 	0.7141	0.9588	0.6688	-0.129
Mof_C 	C 	0.5644	0.1445	0.8647	-0.177
Mof_C 	C 	0.604	0.0256	0.7874	-0.132
Mof_C 	C 	0.7807	0.8893	0.2661	-0.119
Mof_C 	C 	0.5847	0.4807	0.2312	-0.135
Mof_C 	C 	0.7179	0.9757	0.2209	0.033
Mof_C 	C 	0.6958	0.5519	0.3494	-0.107
Mof_C 	C 	0.8588	0.95	0.357	-0.158
Mof_C 	C 	0.7935	0.022	0.3117	-0.098
Mof_C 	C 	0.5635	0.0663	0.8405	0.084
Mof_C 	C 	0.6942	0.032	0.703	0.055
Mof_C 	C 	0.764	0.9585	0.2654	0.058
Mof_C 	C 	0.6338	0.445	0.2578	0.057
Mof_C 	C 	0.7678	0.944	0.6212	0.083
Mof_C 	C 	0.673	0.0798	0.1965	0.031
Mof_C 	C 	0.7906	0.5133	0.4082	-0.132
Mof_C 	C 	0.6816	0.9256	0.1693	-0.103
Mof_C 	C 	0.5997	0.3243	0.1792	0.079
Mof_C 	C 	0.8409	0.0203	0.3572	0.072
Mof_C 	C 	0.6029	0.1825	0.8343	0.072
Mof_C 	C 	0.6841	0.4778	0.3121	0.042
Mof_C 	C 	0.7993	0.0012	0.6067	-0.178
Mof_C 	C 	0.6416	0.1413	0.7816	-0.092
Mof_C 	C 	0.6357	0.0298	0.1457	-0.115
Mof_C 	C 	0.8279	0.886	0.3119	0.07
Mof_C 	C 	0.8615	0.9871	0.5584	0.469
Mof_C 	C 	0.7121	0.0516	0.2335	-0.065
Mof_C 	C 	0.9119	0.9401	0.4031	0.432
Mof_C 	C 	0.6392	0.3669	0.2307	-0.091
Mof_C 	C 	0.726	0.4231	0.3246	-0.089
Mof_C 	C 	0.7267	0.0881	0.6873	-0.101
Mof_C 	C 	0.8533	0.5298	0.4553	0.379
Mof_C 	C 	0.749	0.5696	0.3967	0.05
Mof_C 	C 	0.778	0.0749	0.64	0.084
Mof_C 	C 	0.6409	0.9525	0.132	0.045
Mof_C 	C 	0.5884	0.056	0.1049	0.358
Mof_C 	C 	0.7777	0.4388	0.3715	0.061
Mof_C 	C 	0.5261	0.1871	0.9239	0.467
Mof_C 	C 	0.008	0.1841	0.4041	0.513
Mof_C 	C 	0.0511	0.1391	0.3475	-0.178
Mof_C 	C 	0.0448	0.0614	0.3216	0.089
Mof_C 	C 	0.1441	0.4379	0.7427	0.052
Mof_C 	C 	0.2141	0.5412	0.8312	-0.127
Mof_C 	C 	0.0644	0.3555	0.6353	-0.176
Mof_C 	C 	0.104	0.4744	0.7126	-0.131
Mof_C 	C 	0.2807	0.6107	0.2339	-0.121
Mof_C 	C 	0.0847	0.0193	0.2688	-0.124
Mof_C 	C 	0.2179	0.5243	0.2791	0.029
Mof_C 	C 	0.1958	0.9481	0.1506	-0.114
Mof_C 	C 	0.3588	0.55	0.143	-0.164
Mof_C 	C 	0.2935	0.478	0.1883	-0.096
Mof_C 	C 	0.0635	0.4337	0.6595	0.084
Mof_C 	C 	0.1942	0.468	0.797	0.055
Mof_C 	C 	0.264	0.5415	0.2346	0.058
Mof_C 	C 	0.1338	0.055	0.2422	0.053
Mof_C 	C 	0.2678	0.556	0.8788	0.077
Mof_C 	C 	0.173	0.4202	0.3035	0.027
Mof_C 	C 	0.2906	0.9867	0.0918	-0.136
Mof_C 	C 	0.1816	0.5744	0.3307	-0.099
Mof_C 	C 	0.0997	0.1757	0.3208	0.078
Mof_C 	C 	0.3409	0.4797	0.1428	0.078
Mof_C 	C 	0.1029	0.3175	0.6657	0.072
Mof_C 	C 	0.1841	0.0222	0.1879	0.048
Mof_C 	C 	0.2993	0.4988	0.8933	-0.169
Mof_C 	C 	0.1416	0.3587	0.7184	-0.091
Mof_C 	C 	0.1357	0.4702	0.3543	-0.11
Mof_C 	C 	0.3279	0.614	0.1881	0.073
Mof_C 	C 	0.3615	0.5129	0.9416	0.462
Mof_C 	C 	0.2121	0.4484	0.2665	-0.06
Mof_C 	C 	0.4119	0.5599	0.0969	0.434
Mof_C 	C 	0.1392	0.1331	0.2693	-0.088
Mof_C 	C 	0.226	0.0769	0.1754	-0.091
Mof_C 	C 	0.2267	0.4119	0.8127	-0.099
Mof_C 	C 	0.3533	0.9702	0.0447	0.38
Mof_C 	C 	0.249	0.9304	0.1033	0.054
Mof_C 	C 	0.278	0.4251	0.86	0.08
Mof_C 	C 	0.1409	0.5475	0.368	0.039
Mof_C 	C 	0.0884	0.444	0.3951	0.356
Mof_C 	C 	0.2777	0.0612	0.1285	0.065
Mof_C 	C 	0.0261	0.3129	0.5761	0.468
Mof_S 	S 	0.23756	0.89654	0.69846	0.328
Mof_S 	S 	0.304	0.82283	0.26297	0.329
Mof_S 	S 	0.29346	0.66681	0.72953	0.326
Mof_S 	S 	0.73756	0.60346	0.80154	0.327
Mof_S 	S 	0.804	0.67717	0.23703	0.329
Mof_S 	S 	0.79346	0.83319	0.77047	0.326
Mof_S 	S 	0.76244	0.10346	0.30154	0.328
Mof_S 	S 	0.696	0.17717	0.73703	0.329
Mof_S 	S 	0.70654	0.33319	0.27047	0.326
Mof_S 	S 	0.26244	0.39654	0.19846	0.327
Mof_S 	S 	0.196	0.32283	0.76297	0.329
Mof_S 	S 	0.20654	0.16681	0.22953	0.326
Mof_O 	O 	0.5167	0.8459	0.05168	-0.525
Mof_O 	O 	0.5293	0.6504	0.93066	-0.525
Mof_O 	O 	0.4043	0.8783	0.8901	-0.411
Mof_O 	O 	0.4876	0.7538	0.9204	-0.531
Mof_O 	O 	0.1082	0.0767	0.464	-0.465
Mof_O 	O 	0.4621	0.7423	0.0547	-0.505
Mof_O 	O 	0.0858	0.1221	0.5942	-0.463
Mof_O 	O 	0.2224	0.6963	0.7645	-0.217
Mof_O 	O 	0.2369	0.7792	0.2308	-0.231
Mof_O 	O 	0.0423	0.0082	0.5659	-0.542
Mof_O 	O 	0.3335	0.7134	0.7049	-0.208
Mof_O 	O 	0.1261	0.9607	0.4588	-0.534
Mof_O 	O 	0.1702	0.8577	0.709	-0.22
Mof_O 	O 	0.123	0.4044	0.5182	-0.426
Mof_O 	O 	0.3562	0.7888	0.292	-0.23
Mof_O 	O 	0.2933	0.8545	0.653	-0.219
Mof_O 	O 	0.4607	0.9903	0.9326	-0.543
Mof_O 	O 	0.1259	0.5301	0.5339	-0.503
Mof_O 	O 	0.0167	0.6541	0.44832	-0.526
Mof_O 	O 	0.0293	0.8496	0.56934	-0.527
Mof_O 	O 	0.9043	0.6217	0.6099	-0.41
Mof_O 	O 	0.9876	0.7462	0.5796	-0.531
Mof_O 	O 	0.6082	0.4233	0.036	-0.465
Mof_O 	O 	0.9621	0.7577	0.4453	-0.503
Mof_O 	O 	0.5858	0.3779	0.9058	-0.465
Mof_O 	O 	0.7224	0.8037	0.7355	-0.217
Mof_O 	O 	0.7369	0.7208	0.2692	-0.23
Mof_O 	O 	0.5423	0.4918	0.9341	-0.546
Mof_O 	O 	0.8335	0.7866	0.7951	-0.208
Mof_O 	O 	0.6261	0.5393	0.0412	-0.531
Mof_O 	O 	0.6702	0.6423	0.791	-0.219
Mof_O 	O 	0.623	0.0956	0.9818	-0.426
Mof_O 	O 	0.8562	0.7112	0.208	-0.228
Mof_O 	O 	0.7933	0.6455	0.847	-0.218
Mof_O 	O 	0.9607	0.5097	0.5674	-0.542
Mof_O 	O 	0.6259	0.9699	0.9661	-0.503
Mof_O 	O 	0.4833	0.1541	0.94832	-0.525
Mof_O 	O 	0.4707	0.3496	0.06934	-0.525
Mof_O 	O 	0.5957	0.1217	0.1099	-0.411
Mof_O 	O 	0.5124	0.2462	0.0796	-0.531
Mof_O 	O 	0.8918	0.9233	0.536	-0.465
Mof_O 	O 	0.5379	0.2577	0.9453	-0.505
Mof_O 	O 	0.9142	0.8779	0.4058	-0.463
Mof_O 	O 	0.7776	0.3037	0.2355	-0.217
Mof_O 	O 	0.7631	0.2208	0.7692	-0.231
Mof_O 	O 	0.9577	0.9918	0.4341	-0.542
Mof_O 	O 	0.6665	0.2866	0.2951	-0.208
Mof_O 	O 	0.8739	0.0393	0.5412	-0.534
Mof_O 	O 	0.8298	0.1423	0.291	-0.22
Mof_O 	O 	0.877	0.5956	0.4818	-0.426
Mof_O 	O 	0.6438	0.2112	0.708	-0.23
Mof_O 	O 	0.7067	0.1455	0.347	-0.219
Mof_O 	O 	0.5393	0.0097	0.0674	-0.543
Mof_O 	O 	0.8741	0.4699	0.4661	-0.503
Mof_O 	O 	0.9833	0.3459	0.55168	-0.526
Mof_O 	O 	0.9707	0.1504	0.43066	-0.527
Mof_O 	O 	0.0957	0.3783	0.3901	-0.41
Mof_O 	O 	0.0124	0.2538	0.4204	-0.531
Mof_O 	O 	0.3918	0.5767	0.964	-0.465
Mof_O 	O 	0.0379	0.2423	0.5547	-0.503
Mof_O 	O 	0.4142	0.6221	0.0942	-0.465
Mof_O 	O 	0.2776	0.1963	0.2645	-0.217
Mof_O 	O 	0.2631	0.2792	0.7308	-0.23
Mof_O 	O 	0.4577	0.5082	0.0659	-0.546
Mof_O 	O 	0.1665	0.2134	0.2049	-0.208
Mof_O 	O 	0.3739	0.4607	0.9588	-0.531
Mof_O 	O 	0.3298	0.3577	0.209	-0.219
Mof_O 	O 	0.377	0.9044	0.0182	-0.426
Mof_O 	O 	0.1438	0.2888	0.792	-0.228
Mof_O 	O 	0.2067	0.3545	0.153	-0.218
Mof_O 	O 	0.0393	0.4903	0.4326	-0.542
Mof_O 	O 	0.3741	0.0301	0.0339	-0.503
_end
