data_functionalizedCrystal
_audit_creation_method	'EQeq! by Chris Wilmer'
_symmetry_space_group_name_H-M	'P1'
_symmetry_Int_Tables_number	1
_symmetry_cell_setting	triclinic
loop_
_symmetry_equiv_pos_as_xyz
  x,y,z
_cell_length_a	13.022
_cell_length_b	18.755
_cell_length_c	13.403
_cell_angle_alpha	90
_cell_angle_beta	107.72
_cell_angle_gamma	90
loop_
_atom_site_label
_atom_site_type_symbol
_atom_site_fract_x
_atom_site_fract_y
_atom_site_fract_z
_atom_site_charge
Mof_Ag	Ag	0.00213	0.01581	0.88026	0.421
Mof_C 	C 	0.2429	0.0372	0.7127	0.086
Mof_H 	H 	0.2578	0.9939	0.6865	-0.02
Mof_C 	C 	0.1594	0.1302	0.7429	-0.004
Mof_H 	H 	0.1047	0.1625	0.741	-0.003
Mof_C 	C 	0.2633	0.1376	0.8006	-0.02
Mof_H 	H 	0.2937	0.1754	0.8445	0.023
Mof_C 	C 	0.431	0.0605	0.8316	-0.043
Mof_H 	H 	0.4452	0.0568	0.9068	0.035
Mof_H 	H 	0.4479	0.015	0.806	0.04
Mof_C 	C 	0.5008	0.1175	0.8079	-0.101
Mof_H 	H 	0.5235	0.1636	0.6754	0.053
Mof_H 	H 	0.4257	0.1107	0.6476	0.059
Mof_C 	C 	0.8571	0.8897	0.6288	0.078
Mof_H 	H 	0.9195	0.8636	0.6593	-0.027
Mof_C 	C 	0.7491	0.9741	0.5555	0.012
Mof_H 	H 	0.7232	0.0179	0.5258	0.008
Mof_C 	C 	0.6876	0.9185	0.5655	-0.017
Mof_H 	H 	0.6126	0.9169	0.5446	0.028
Mof_C 	C 	0.7288	0.7912	0.6262	-0.046
Mof_H 	H 	0.788	0.7687	0.6788	0.038
Mof_H 	H 	0.6661	0.7902	0.6509	0.034
Mof_C 	C 	0.7044	0.7494	0.5239	-0.097
Mof_H 	H 	0.8597	0.731	0.526	0.053
Mof_H 	H 	0.8109	0.7998	0.463	0.055
Mof_N 	N 	0.1464	0.0677	0.6873	-0.203
Mof_N 	N 	0.3156	0.0775	0.7811	-0.121
Mof_N 	N 	0.856	0.956	0.596	-0.207
Mof_N 	N 	0.7567	0.8648	0.6124	-0.121
Mof_Ag	Ag	0.99787	0.01581	0.61974	0.426
Mof_C 	C 	0.7571	0.0372	0.7873	0.087
Mof_H 	H 	0.7422	0.9939	0.8135	-0.018
Mof_C 	C 	0.8406	0.1302	0.7571	-0.003
Mof_H 	H 	0.8953	0.1625	0.759	-0.002
Mof_C 	C 	0.7367	0.1376	0.6994	-0.019
Mof_H 	H 	0.7063	0.1754	0.6555	0.023
Mof_C 	C 	0.569	0.0605	0.6684	-0.044
Mof_H 	H 	0.5548	0.0568	0.5932	0.035
Mof_H 	H 	0.5521	0.015	0.694	0.04
Mof_C 	C 	0.4992	0.1175	0.6921	-0.1
Mof_H 	H 	0.4765	0.1636	0.8246	0.053
Mof_H 	H 	0.5743	0.1107	0.8524	0.059
Mof_C 	C 	0.1429	0.8897	0.8712	0.077
Mof_H 	H 	0.0805	0.8636	0.8407	-0.027
Mof_C 	C 	0.2509	0.9741	0.9445	0.017
Mof_H 	H 	0.2768	0.0179	0.9742	0.005
Mof_C 	C 	0.3124	0.9185	0.9345	-0.02
Mof_H 	H 	0.3874	0.9169	0.9554	0.029
Mof_C 	C 	0.2712	0.7912	0.8738	-0.048
Mof_H 	H 	0.212	0.7687	0.8212	0.038
Mof_H 	H 	0.3339	0.7902	0.8491	0.035
Mof_C 	C 	0.2956	0.7494	0.9761	-0.094
Mof_H 	H 	0.1403	0.731	0.974	0.054
Mof_H 	H 	0.1891	0.7998	0.037	0.056
Mof_N 	N 	0.8536	0.0677	0.8127	-0.203
Mof_N 	N 	0.6844	0.0775	0.7189	-0.121
Mof_N 	N 	0.144	0.956	0.904	-0.207
Mof_N 	N 	0.2433	0.8648	0.8876	-0.121
Mof_Ag	Ag	0.49787	0.48419	0.11974	0.424
Mof_C 	C 	0.2571	0.4628	0.2873	0.089
Mof_H 	H 	0.2422	0.5061	0.3135	-0.02
Mof_C 	C 	0.3406	0.3698	0.2571	-0.003
Mof_H 	H 	0.3953	0.3375	0.259	-0.002
Mof_C 	C 	0.2367	0.3624	0.1994	-0.019
Mof_H 	H 	0.2063	0.3246	0.1555	0.023
Mof_C 	C 	0.069	0.4395	0.1684	-0.04
Mof_H 	H 	0.0548	0.4432	0.0932	0.035
Mof_H 	H 	0.0521	0.485	0.194	0.039
Mof_C 	C 	0.9992	0.3825	0.1921	-0.107
Mof_H 	H 	0.9765	0.3364	0.3246	0.051
Mof_H 	H 	0.0743	0.3893	0.3524	0.058
Mof_C 	C 	0.6429	0.6103	0.3712	0.077
Mof_H 	H 	0.5805	0.6364	0.3407	-0.027
Mof_C 	C 	0.7509	0.5259	0.4445	0.012
Mof_H 	H 	0.7768	0.4821	0.4742	0.008
Mof_C 	C 	0.8124	0.5815	0.4345	-0.017
Mof_H 	H 	0.8874	0.5831	0.4554	0.028
Mof_C 	C 	0.7712	0.7088	0.3738	-0.046
Mof_H 	H 	0.712	0.7313	0.3212	0.038
Mof_H 	H 	0.8339	0.7098	0.3491	0.034
Mof_C 	C 	0.7956	0.7506	0.4761	-0.098
Mof_H 	H 	0.6403	0.769	0.474	0.053
Mof_H 	H 	0.6891	0.7002	0.537	0.055
Mof_N 	N 	0.3536	0.4323	0.3127	-0.203
Mof_N 	N 	0.1844	0.4225	0.2189	-0.122
Mof_N 	N 	0.644	0.544	0.404	-0.207
Mof_N 	N 	0.7433	0.6352	0.3876	-0.121
Mof_Ag	Ag	0.50213	0.48419	0.38026	0.424
Mof_C 	C 	0.7429	0.4628	0.2127	0.089
Mof_H 	H 	0.7578	0.5061	0.1865	-0.02
Mof_C 	C 	0.6594	0.3698	0.2429	-0.002
Mof_H 	H 	0.6047	0.3375	0.241	-0.002
Mof_C 	C 	0.7633	0.3624	0.3006	-0.019
Mof_H 	H 	0.7937	0.3246	0.3445	0.023
Mof_C 	C 	0.931	0.4395	0.3316	-0.047
Mof_H 	H 	0.9452	0.4432	0.4068	0.036
Mof_H 	H 	0.9479	0.485	0.306	0.041
Mof_C 	C 	0.0008	0.3825	0.3079	-0.094
Mof_H 	H 	0.0235	0.3364	0.1754	0.055
Mof_H 	H 	0.9257	0.3893	0.1476	0.061
Mof_C 	C 	0.3571	0.6103	0.1288	0.077
Mof_H 	H 	0.4195	0.6364	0.1593	-0.027
Mof_C 	C 	0.2491	0.5259	0.0555	0.012
Mof_H 	H 	0.2232	0.4821	0.0258	0.008
Mof_C 	C 	0.1876	0.5815	0.0655	-0.017
Mof_H 	H 	0.1126	0.5831	0.0446	0.028
Mof_C 	C 	0.2288	0.7088	0.1262	-0.044
Mof_H 	H 	0.288	0.7313	0.1788	0.037
Mof_H 	H 	0.1661	0.7098	0.1509	0.034
Mof_C 	C 	0.2044	0.7506	0.0239	-0.1
Mof_H 	H 	0.3597	0.769	0.026	0.051
Mof_H 	H 	0.3109	0.7002	0.963	0.054
Mof_N 	N 	0.6464	0.4323	0.1873	-0.203
Mof_N 	N 	0.8156	0.4225	0.2811	-0.121
Mof_N 	N 	0.356	0.544	0.096	-0.207
Mof_N 	N 	0.2567	0.6352	0.1124	-0.122
Mof_Ag	Ag	0.50213	0.51581	0.88026	0.424
Mof_C 	C 	0.7429	0.5372	0.7127	0.089
Mof_H 	H 	0.7578	0.4939	0.6865	-0.02
Mof_C 	C 	0.6594	0.6302	0.7429	-0.003
Mof_H 	H 	0.6047	0.6625	0.741	-0.002
Mof_C 	C 	0.7633	0.6376	0.8006	-0.019
Mof_H 	H 	0.7937	0.6754	0.8445	0.023
Mof_C 	C 	0.931	0.5605	0.8316	-0.04
Mof_H 	H 	0.9452	0.5568	0.9068	0.035
Mof_H 	H 	0.9479	0.515	0.806	0.039
Mof_C 	C 	0.0008	0.6175	0.8079	-0.107
Mof_H 	H 	0.0235	0.6636	0.6754	0.051
Mof_H 	H 	0.9257	0.6107	0.6476	0.058
Mof_C 	C 	0.3571	0.3897	0.6288	0.077
Mof_H 	H 	0.4195	0.3636	0.6593	-0.027
Mof_C 	C 	0.2491	0.4741	0.5555	0.012
Mof_H 	H 	0.2232	0.5179	0.5258	0.008
Mof_C 	C 	0.1876	0.4185	0.5655	-0.017
Mof_H 	H 	0.1126	0.4169	0.5446	0.028
Mof_C 	C 	0.2288	0.2912	0.6262	-0.046
Mof_H 	H 	0.288	0.2687	0.6788	0.038
Mof_H 	H 	0.1661	0.2902	0.6509	0.034
Mof_C 	C 	0.2044	0.2494	0.5239	-0.098
Mof_H 	H 	0.3597	0.231	0.526	0.053
Mof_H 	H 	0.3109	0.2998	0.463	0.055
Mof_N 	N 	0.6464	0.5677	0.6873	-0.203
Mof_N 	N 	0.8156	0.5775	0.7811	-0.122
Mof_N 	N 	0.356	0.456	0.596	-0.207
Mof_N 	N 	0.2567	0.3648	0.6124	-0.121
Mof_Ag	Ag	0.49787	0.51581	0.61974	0.424
Mof_C 	C 	0.2571	0.5372	0.7873	0.089
Mof_H 	H 	0.2422	0.4939	0.8135	-0.02
Mof_C 	C 	0.3406	0.6302	0.7571	-0.002
Mof_H 	H 	0.3953	0.6625	0.759	-0.002
Mof_C 	C 	0.2367	0.6376	0.6994	-0.019
Mof_H 	H 	0.2063	0.6754	0.6555	0.023
Mof_C 	C 	0.069	0.5605	0.6684	-0.047
Mof_H 	H 	0.0548	0.5568	0.5932	0.036
Mof_H 	H 	0.0521	0.515	0.694	0.041
Mof_C 	C 	0.9992	0.6175	0.6921	-0.094
Mof_H 	H 	0.9765	0.6636	0.8246	0.055
Mof_H 	H 	0.0743	0.6107	0.8524	0.061
Mof_C 	C 	0.6429	0.3897	0.8712	0.077
Mof_H 	H 	0.5805	0.3636	0.8407	-0.027
Mof_C 	C 	0.7509	0.4741	0.9445	0.012
Mof_H 	H 	0.7768	0.5179	0.9742	0.008
Mof_C 	C 	0.8124	0.4185	0.9345	-0.017
Mof_H 	H 	0.8874	0.4169	0.9554	0.028
Mof_C 	C 	0.7712	0.2912	0.8738	-0.044
Mof_H 	H 	0.712	0.2687	0.8212	0.037
Mof_H 	H 	0.8339	0.2902	0.8491	0.034
Mof_C 	C 	0.7956	0.2494	0.9761	-0.1
Mof_H 	H 	0.6403	0.231	0.974	0.051
Mof_H 	H 	0.6891	0.2998	0.037	0.054
Mof_N 	N 	0.3536	0.5677	0.8127	-0.203
Mof_N 	N 	0.1844	0.5775	0.7189	-0.121
Mof_N 	N 	0.644	0.456	0.904	-0.207
Mof_N 	N 	0.7433	0.3648	0.8876	-0.122
Mof_Ag	Ag	0.99787	0.98419	0.11974	0.422
Mof_C 	C 	0.7571	0.9628	0.2873	0.087
Mof_H 	H 	0.7422	0.0061	0.3135	-0.019
Mof_C 	C 	0.8406	0.8698	0.2571	-0.003
Mof_H 	H 	0.8953	0.8375	0.259	-0.002
Mof_C 	C 	0.7367	0.8624	0.1994	-0.019
Mof_H 	H 	0.7063	0.8246	0.1555	0.023
Mof_C 	C 	0.569	0.9395	0.1684	-0.043
Mof_H 	H 	0.5548	0.9432	0.0932	0.035
Mof_H 	H 	0.5521	0.985	0.194	0.04
Mof_C 	C 	0.4992	0.8825	0.1921	-0.101
Mof_H 	H 	0.4765	0.8364	0.3246	0.053
Mof_H 	H 	0.5743	0.8893	0.3524	0.059
Mof_C 	C 	0.1429	0.1103	0.3712	0.078
Mof_H 	H 	0.0805	0.1364	0.3407	-0.027
Mof_C 	C 	0.2509	0.0259	0.4445	0.012
Mof_H 	H 	0.2768	0.9821	0.4742	0.008
Mof_C 	C 	0.3124	0.0815	0.4345	-0.017
Mof_H 	H 	0.3874	0.0831	0.4554	0.028
Mof_C 	C 	0.2712	0.2088	0.3738	-0.046
Mof_H 	H 	0.212	0.2313	0.3212	0.038
Mof_H 	H 	0.3339	0.2098	0.3491	0.034
Mof_C 	C 	0.2956	0.2506	0.4761	-0.097
Mof_H 	H 	0.1403	0.269	0.474	0.053
Mof_H 	H 	0.1891	0.2002	0.537	0.055
Mof_N 	N 	0.8536	0.9323	0.3127	-0.203
Mof_N 	N 	0.6844	0.9225	0.2189	-0.121
Mof_N 	N 	0.144	0.044	0.404	-0.207
Mof_N 	N 	0.2433	0.1352	0.3876	-0.121
Mof_Ag	Ag	0.00213	0.98419	0.38026	0.426
Mof_C 	C 	0.2429	0.9628	0.2127	0.087
Mof_H 	H 	0.2578	0.0061	0.1865	-0.018
Mof_C 	C 	0.1594	0.8698	0.2429	-0.003
Mof_H 	H 	0.1047	0.8375	0.241	-0.002
Mof_C 	C 	0.2633	0.8624	0.3006	-0.019
Mof_H 	H 	0.2937	0.8246	0.3445	0.023
Mof_C 	C 	0.431	0.9395	0.3316	-0.044
Mof_H 	H 	0.4452	0.9432	0.4068	0.035
Mof_H 	H 	0.4479	0.985	0.306	0.04
Mof_C 	C 	0.5008	0.8825	0.3079	-0.1
Mof_H 	H 	0.5235	0.8364	0.1754	0.053
Mof_H 	H 	0.4257	0.8893	0.1476	0.059
Mof_C 	C 	0.8571	0.1103	0.1288	0.077
Mof_H 	H 	0.9195	0.1364	0.1593	-0.027
Mof_C 	C 	0.7491	0.0259	0.0555	0.017
Mof_H 	H 	0.7232	0.9821	0.0258	0.005
Mof_C 	C 	0.6876	0.0815	0.0655	-0.02
Mof_H 	H 	0.6126	0.0831	0.0446	0.029
Mof_C 	C 	0.7288	0.2088	0.1262	-0.048
Mof_H 	H 	0.788	0.2313	0.1788	0.038
Mof_H 	H 	0.6661	0.2098	0.1509	0.035
Mof_C 	C 	0.7044	0.2506	0.0239	-0.094
Mof_H 	H 	0.8597	0.269	0.026	0.054
Mof_H 	H 	0.8109	0.2002	0.963	0.056
Mof_N 	N 	0.1464	0.9323	0.1873	-0.203
Mof_N 	N 	0.3156	0.9225	0.2811	-0.121
Mof_N 	N 	0.856	0.044	0.096	-0.207
Mof_N 	N 	0.7567	0.1352	0.1124	-0.121
_end
