data_functionalizedCrystal
_audit_creation_method	'EQeq! by Chris Wilmer'
_symmetry_space_group_name_H-M	'P1'
_symmetry_Int_Tables_number	1
_symmetry_cell_setting	triclinic
loop_
_symmetry_equiv_pos_as_xyz
  x,y,z
_cell_length_a	13.3553
_cell_length_b	14.5612
_cell_length_c	23.34
_cell_angle_alpha	107.946
_cell_angle_beta	90
_cell_angle_gamma	117.296
loop_
_atom_site_label
_atom_site_type_symbol
_atom_site_fract_x
_atom_site_fract_y
_atom_site_fract_z
_atom_site_charge
Mof_K 	K 	0.12751	0.24354	0.93014	3.872
Mof_K 	K 	0.18854	0.99488	0.87073	2.204
Mof_K 	K 	0.98598	-6.00996e-17	0.75	0.919
Mof_K 	K 	0.87113	0.75988	0.8204	3.797
Mof_K 	K 	-0	0	0.5	0.46
Mof_K 	K 	0.88875	0.75988	0.3204	3.909
Mof_K 	K 	0.87249	0.75646	0.06986	4.01
Mof_K 	K 	0.19366	0.00512	0.62927	1.628
Mof_K 	K 	0.01402	0	0.25	0.476
Mof_K 	K 	0.11603	0.24354	0.43014	3.946
Mof_K 	K 	-0	0	-0	0.371
Mof_K 	K 	0.81146	0.00512	0.12927	1.889
Mof_K 	K 	0.11125	0.24012	0.6796	3.815
Mof_K 	K 	0.88397	0.75646	0.56986	4.064
Mof_K 	K 	0.12887	0.24012	0.1796	3.879
Mof_K 	K 	0.80634	0.99488	0.37073	2.092
Mof_H 	H 	0.8932	0.9676	0.8883	0.187
Mof_H 	H 	0.0744	0.6528	0.4925	-0.126
Mof_H 	H 	0.3894	0.5224	0.9487	-0.001
Mof_H 	H 	0.7838	0.3612	0.6894	0.038
Mof_H 	H 	0.6223	0.4778	0.3017	-0.006
Mof_H 	H 	0.4092	0.3548	0.7597	-0.15
Mof_H 	H 	0.5774	0.3612	0.1894	0.038
Mof_H 	H 	0.5994	0.744	0.5923	-0.082
Mof_H 	H 	0.0738	0.6436	0.2357	-0.095
Mof_H 	H 	0.1524	0.7648	0.3533	-0.107
Mof_H 	H 	0.1113	0.007	0.3651	0.246
Mof_H 	H 	0.4169	0.3666	0.5181	-0.11
Mof_H 	H 	0.2116	0.6406	0.5629	0.056
Mof_H 	H 	0.8554	0.256	0.9077	-0.077
Mof_H 	H 	0.3777	0.5222	0.6983	-0.003
Mof_H 	H 	0.4226	0.6388	0.8106	0.042
Mof_H 	H 	0.571	0.3594	0.9371	0.059
Mof_H 	H 	0.5836	0.3606	0.6905	0.046
Mof_H 	H 	0.6124	0.7648	0.8533	-0.112
Mof_H 	H 	0.4073	0.6232	0.554	0.032
Mof_H 	H 	0.1499	0.7586	0.8493	-0.219
Mof_H 	H 	0.3913	0.2414	0.6507	-0.189
Mof_H 	H 	0.1206	0.5104	0.942	0.003
Mof_H 	H 	0.8957	0.007	0.8651	0.252
Mof_H 	H 	0.1043	0.993	0.1349	0.289
Mof_H 	H 	0.5927	0.3768	0.446	0.028
Mof_H 	H 	0.8826	0.4816	0.3016	0.014
Mof_H 	H 	0.2162	0.6388	0.3106	0.039
Mof_H 	H 	0.1068	0.0324	0.1117	0.07
Mof_H 	H 	0.8501	0.2414	0.1507	-0.204
Mof_H 	H 	0.3876	0.2352	0.1467	-0.117
Mof_H 	H 	0.599	0.4816	0.8016	0.019
Mof_H 	H 	0.5831	0.6334	0.4819	-0.121
Mof_H 	H 	0.6102	0.4896	0.558	-0.007
Mof_H 	H 	0.9497	0.3666	0.0181	-0.113
Mof_H 	H 	0.401	0.5184	0.1984	0.016
Mof_H 	H 	0.6106	0.4776	0.0513	-0.01
Mof_H 	H 	0.1475	0.766	0.6053	-0.217
Mof_H 	H 	0.7841	0.3768	0.946	0.031
Mof_H 	H 	0.777	0.3606	0.1905	0.046
Mof_H 	H 	0.9262	0.3564	0.7643	-0.091
Mof_H 	H 	0.1446	0.744	0.0923	-0.079
Mof_H 	H 	0.4302	0.3564	0.2643	-0.096
Mof_H 	H 	0.4006	0.256	0.4077	-0.084
Mof_H 	H 	0.3815	0.234	0.8947	-0.257
Mof_H 	H 	0.8887	0.993	0.6349	0.256
Mof_H 	H 	0.7884	0.3594	0.4371	0.054
Mof_H 	H 	0.5784	0.6528	0.9925	-0.127
Mof_H 	H 	0.2159	0.6232	0.054	0.029
Mof_H 	H 	0.4164	0.6394	0.3095	0.053
Mof_H 	H 	0.429	0.6406	0.0629	0.056
Mof_H 	H 	0.1174	0.5184	0.6984	0.012
Mof_H 	H 	0.9256	0.0324	0.6117	0.16
Mof_H 	H 	0.9256	0.3472	0.5075	-0.125
Mof_H 	H 	0.867	0.4776	0.5513	-0.01
Mof_H 	H 	0.223	0.6394	0.8095	0.053
Mof_H 	H 	0.0744	0.9676	0.3883	0.252
Mof_H 	H 	0.0503	0.6334	0.9819	-0.118
Mof_H 	H 	0.5698	0.6436	0.7357	-0.095
Mof_H 	H 	0.8525	0.234	0.3947	-0.248
Mof_H 	H 	0.0544	0.6452	0.7403	-0.148
Mof_H 	H 	0.6087	0.7586	0.3493	-0.216
Mof_H 	H 	0.133	0.5224	0.4487	-0.009
Mof_H 	H 	0.8794	0.4896	0.058	-0.008
Mof_H 	H 	0.4216	0.3472	0.0075	-0.131
Mof_H 	H 	0.1445	0.5222	0.1983	-0.007
Mof_H 	H 	0.5908	0.6452	0.2403	-0.153
Mof_H 	H 	0.9456	0.3548	0.2597	-0.149
Mof_H 	H 	0.6185	0.766	0.1053	-0.237
Mof_H 	H 	0.3898	0.5104	0.442	0.002
Mof_H 	H 	0.8476	0.2352	0.6467	-0.113
Mof_H 	H 	0.8555	0.4778	0.8017	-0.005
Mof_C 	C 	0.55814	0.64508	0.20508	0.221
Mof_C 	C 	0.11046	0.72412	0.42843	-0.343
Mof_C 	C 	0.87606	0.43132	0.3201	-0.172
Mof_C 	C 	0.54955	0.6347	0.4475	0.19
Mof_C 	C 	0.18811	0.56242	0.12264	-0.096
Mof_C 	C 	0.37709	0.27898	0.82168	-0.478
Mof_C 	C 	0.60241	0.43182	0.87296	-0.034
Mof_C 	C 	0.10501	0.70782	0.16873	-0.299
Mof_C 	C 	0.06384	0.80868	0.70704	0.667
Mof_C 	C 	0.72808	0.79356	0.6953	0.585
Mof_C 	C 	0.18034	0.64168	0.5986	-0.191
Mof_C 	C 	0.44956	0.63832	0.3442	-0.193
Mof_C 	C 	0.85723	0.28286	0.3755	0.198
Mof_C 	C 	0.18796	0.62772	0.0907	-0.104
Mof_C 	C 	0.61451	0.43442	0.62689	-0.067
Mof_C 	C 	0.93616	0.19132	0.29296	0.673
Mof_C 	C 	0.43555	0.2905	0.6317	0.171
Mof_C 	C 	0.15052	0.71764	0.3731	0.094
Mof_C 	C 	0.37431	0.56242	0.62264	-0.092
Mof_C 	C 	0.57788	0.43276	0.32276	-0.095
Mof_C 	C 	0.12394	0.56868	0.6799	-0.166
Mof_C 	C 	0.43976	0.62772	0.5907	-0.107
Mof_C 	C 	0.56637	0.42774	0.06986	-0.113
Mof_C 	C 	0.18778	0.64156	0.3471	-0.122
Mof_C 	C 	0.08694	0.64508	0.70508	0.209
Mof_C 	C 	0.18009	0.56558	0.87311	-0.051
Mof_C 	C 	0.56712	0.71764	0.8731	0.104
Mof_C 	C 	0.81124	0.36168	0.1558	-0.18
Mof_C 	C 	0.39719	0.29218	0.33127	-0.306
Mof_C 	C 	0.27192	0.20644	0.3047	0.584
Mof_C 	C 	0.17059	0.56818	0.62704	-0.046
Mof_C 	C 	0.09811	0.72102	0.67832	-0.455
Mof_C 	C 	0.26531	0.18662	0.0421	0.577
Mof_C 	C 	0.3882	0.5704	0.87599	-0.074
Mof_C 	C 	0.12761	0.56122	0.92384	-0.143
Mof_C 	C 	0.10317	0.65034	0.45613	0.138
Mof_C 	C 	0.8178	0.4296	0.62401	-0.084
Mof_C 	C 	0.39759	0.56818	0.12704	-0.039
Mof_C 	C 	0.86137	0.42774	0.56986	-0.108
Mof_C 	C 	0.46325	0.3599	0.30048	0.115
Mof_C 	C 	0.57437	0.71714	0.1245	0.196
Mof_C 	C 	0.43288	0.28236	0.1269	0.096
Mof_C 	C 	0.42563	0.28286	0.8755	0.207
Mof_C 	C 	0.14505	0.7095	0.8683	0.203
Mof_C 	C 	0.91485	0.3653	0.0525	0.17
Mof_C 	C 	0.44474	0.56868	0.1799	-0.174
Mof_C 	C 	0.85432	0.29984	0.8862	0.079
Mof_C 	C 	0.44552	0.29984	0.3862	0.081
Mof_C 	C 	0.54622	0.35844	0.1529	-0.128
Mof_C 	C 	0.38549	0.56558	0.37311	-0.051
Mof_C 	C 	0.06548	0.79356	0.1953	0.587
Mof_C 	C 	0.93452	0.20644	0.8047	0.58
Mof_C 	C 	0.81991	0.43442	0.12689	-0.065
Mof_C 	C 	0.56024	0.37228	0.4093	-0.106
Mof_C 	C 	0.87239	0.43878	0.07616	-0.129
Mof_C 	C 	0.81966	0.35832	0.4014	-0.204
Mof_C 	C 	0.08515	0.6347	0.9475	0.189
Mof_C 	C 	0.84948	0.28236	0.6269	0.096
Mof_C 	C 	0.62291	0.72102	0.17832	-0.472
Mof_C 	C 	0.14277	0.71714	0.6245	0.182
Mof_C 	C 	0.44186	0.35492	0.79492	0.224
Mof_C 	C 	0.94715	0.2081	0.053	0.671
Mof_C 	C 	0.90526	0.29072	0.0803	-0.408
Mof_C 	C 	0.09474	0.70928	0.9197	-0.425
Mof_C 	C 	0.53675	0.6401	0.69952	0.117
Mof_C 	C 	0.25516	0.19132	0.79296	0.675
Mof_C 	C 	0.81189	0.43758	0.87736	-0.095
Mof_C 	C 	0.89499	0.29218	0.83127	-0.296
Mof_C 	C 	0.92131	0.18662	0.5421	0.586
Mof_C 	C 	0.61366	0.72412	0.92843	-0.357
Mof_C 	C 	0.55448	0.70016	0.6138	0.085
Mof_C 	C 	0.53866	0.35832	0.9014	-0.213
Mof_C 	C 	0.85495	0.2905	0.1317	0.181
Mof_C 	C 	0.6118	0.4296	0.12401	-0.082
Mof_C 	C 	0.13863	0.57226	0.43014	-0.108
Mof_C 	C 	0.89665	0.3599	0.80048	0.112
Mof_C 	C 	0.85488	0.43276	0.82276	-0.093
Mof_C 	C 	0.45045	0.3653	0.5525	0.165
Mof_C 	C 	0.14568	0.70016	0.1138	0.082
Mof_C 	C 	0.56639	0.43878	0.57616	-0.122
Mof_C 	C 	0.38546	0.29072	0.5803	-0.398
Mof_C 	C 	0.62569	0.43758	0.37736	-0.097
Mof_C 	C 	0.43363	0.57226	0.93014	-0.117
Mof_C 	C 	0.89683	0.34966	0.54387	0.137
Mof_C 	C 	0.81222	0.35844	0.6529	-0.125
Mof_C 	C 	0.90189	0.27898	0.32168	-0.471
Mof_C 	C 	0.73905	0.7919	0.447	0.692
Mof_C 	C 	0.26095	0.2081	0.553	0.663
Mof_C 	C 	0.43361	0.56122	0.42384	-0.141
Mof_C 	C 	0.73469	0.81338	0.9579	0.599
Mof_C 	C 	0.18876	0.63832	0.8442	-0.195
Mof_C 	C 	0.38634	0.27588	0.07157	-0.358
Mof_C 	C 	0.61454	0.70928	0.4197	-0.426
Mof_C 	C 	0.81204	0.37228	0.9093	-0.104
Mof_C 	C 	0.05285	0.7919	0.947	0.691
Mof_C 	C 	0.91306	0.35492	0.29492	0.218
Mof_C 	C 	0.10335	0.6401	0.19952	0.116
Mof_C 	C 	0.56445	0.7095	0.3683	0.202
Mof_C 	C 	0.42212	0.56724	0.67724	-0.097
Mof_C 	C 	0.46134	0.64168	0.0986	-0.202
Mof_C 	C 	0.54717	0.65034	0.95613	0.147
Mof_C 	C 	0.14512	0.56724	0.17724	-0.094
Mof_C 	C 	0.1822	0.5704	0.37599	-0.082
Mof_C 	C 	0.74484	0.80868	0.20704	0.676
Mof_C 	C 	0.45283	0.34966	0.04387	0.137
Mof_C 	C 	0.07869	0.81338	0.4579	0.581
Mof_C 	C 	0.82941	0.43182	0.37296	-0.043
Mof_C 	C 	0.55044	0.36168	0.6558	-0.172
Mof_C 	C 	0.55526	0.43132	0.8201	-0.179
Mof_C 	C 	0.45378	0.64156	0.8471	-0.131
Mof_C 	C 	0.60281	0.70782	0.66873	-0.303
Mof_C 	C 	0.88954	0.27588	0.57157	-0.351
Mof_S 	S 	0.25115	0.4773	0.09603	0.525
Mof_S 	S 	0.22615	0.4773	0.59603	0.525
Mof_S 	S 	0.23734	0.47964	0.34524	0.517
Mof_S 	S 	0.74885	0.5227	0.90397	0.522
Mof_S 	S 	0.76266	0.52036	0.65476	0.526
Mof_S 	S 	0.77385	0.5227	0.40397	0.53
Mof_S 	S 	0.2423	0.47964	0.84524	0.511
Mof_S 	S 	0.7577	0.52036	0.15476	0.522
Mof_O 	O 	0.20609	0.13958	0.07593	-0.808
Mof_O 	O 	0.23942	0.44664	0.03052	-0.668
Mof_O 	O 	0.77007	0.55034	0.2203	-0.648
Mof_O 	O 	0.93349	0.13958	0.57593	-0.796
Mof_O 	O 	0.05063	0.84686	0.91491	-1.061
Mof_O 	O 	0.7834	0.8434	0.66143	-0.829
Mof_O 	O 	0.04622	0.99784	0.12479	-1.086
Mof_O 	O 	0.05188	0.82736	0.76174	-1.08
Mof_O 	O 	0.77412	0.80004	0.49827	-0.936
Mof_O 	O 	0.79391	0.86042	0.92407	-0.792
Mof_O 	O 	0.94855	0.1431	0.32654	-1.09
Mof_O 	O 	0.94	0.1566	0.83857	-0.809
Mof_O 	O 	0.19455	0.1431	0.82654	-1.162
Mof_O 	O 	0.23667	0.19294	0.25227	-0.888
Mof_O 	O 	0.94937	0.15314	0.08509	-1.04
Mof_O 	O 	0.22588	0.19996	0.50173	-0.925
Mof_O 	O 	0.23546	0.16652	0.98692	-1.012
Mof_O 	O 	0.93106	0.16652	0.48692	-1.001
Mof_O 	O 	0.79035	0.6069	0.877	-0.75
Mof_O 	O 	0.18345	0.3931	0.623	-0.755
Mof_O 	O 	0.06894	0.83348	0.51308	-0.958
Mof_O 	O 	0.20377	0.15314	0.58509	-1.028
Mof_O 	O 	0.05145	0.8569	0.67346	-1.076
Mof_O 	O 	0.94812	0.17264	0.23826	-1.048
Mof_O 	O 	0.80545	0.8569	0.17346	-1.083
Mof_O 	O 	0.19482	0.39524	0.37196	-0.758
Mof_O 	O 	0.22993	0.44966	0.7797	-0.639
Mof_O 	O 	0.76333	0.80706	0.74773	-0.898
Mof_O 	O 	0.78027	0.55034	0.7203	-0.641
Mof_O 	O 	0.81655	0.6069	0.377	-0.765
Mof_O 	O 	0.95627	0.19294	0.75227	-0.891
Mof_O 	O 	0.2166	0.1566	0.33857	-0.798
Mof_O 	O 	0.21973	0.44966	0.2797	-0.645
Mof_O 	O 	0.06	0.8434	0.16143	-0.78
Mof_O 	O 	0.97408	0.19996	0.00173	-0.907
Mof_O 	O 	0.20042	0.39524	0.87196	-0.752
Mof_O 	O 	0.22452	0.17264	0.73826	-1.06
Mof_O 	O 	0.20965	0.3931	0.123	-0.759
Mof_O 	O 	0.77548	0.82736	0.26174	-1.067
Mof_O 	O 	0.79623	0.84686	0.41491	-1.076
Mof_O 	O 	0.20722	0.44664	0.53052	-0.672
Mof_O 	O 	0.02592	0.80004	0.99827	-0.913
Mof_O 	O 	0.76058	0.55336	0.96948	-0.67
Mof_O 	O 	0.04373	0.80706	0.24773	-0.862
Mof_O 	O 	0.79958	0.60476	0.12804	-0.767
Mof_O 	O 	0.95378	0.00216	0.87521	-1.225
Mof_O 	O 	0.80518	0.60476	0.62804	-0.771
Mof_O 	O 	0.76454	0.83348	0.01308	-0.999
Mof_O 	O 	0.95162	0.99784	0.62479	-1.188
Mof_O 	O 	0.04838	0.00216	0.37521	-1.29
Mof_O 	O 	0.06651	0.86042	0.42407	-0.788
Mof_O 	O 	0.79278	0.55336	0.46948	-0.682
_end
