data_functionalizedCrystal
_audit_creation_method	'EQeq! by Chris Wilmer'
_symmetry_space_group_name_H-M	'P1'
_symmetry_Int_Tables_number	1
_symmetry_cell_setting	triclinic
loop_
_symmetry_equiv_pos_as_xyz
  x,y,z
_cell_length_a	15.551
_cell_length_b	15.551
_cell_length_c	16.364
_cell_angle_alpha	90
_cell_angle_beta	90
_cell_angle_gamma	120
loop_
_atom_site_label
_atom_site_type_symbol
_atom_site_fract_x
_atom_site_fract_y
_atom_site_fract_z
_atom_site_charge
Mof_Ni	Ni	0.48	0.74	0.75	1.121
Mof_Ni	Ni	0.26	0.52	0.75	1.121
Mof_Ni	Ni	0.26	0.74	0.75	1.121
Mof_Ni	Ni	0.52	0.26	0.25	1.121
Mof_Ni	Ni	0.74	0.48	0.25	1.121
Mof_Ni	Ni	0.74	0.26	0.25	1.121
Mof_H 	H 	0.4522	0.7604	0.9803	0.07
Mof_H 	H 	0.4398	0.0133	0.8015	0.064
Mof_H 	H 	0.4788	0.7151	0.1069	0.043
Mof_H 	H 	0.4648	0.1694	0.7837	0.036
Mof_H 	H 	0.3082	0.5478	0.9803	0.07
Mof_H 	H 	0.5735	0.5602	0.8015	0.064
Mof_H 	H 	0.2363	0.5212	0.1069	0.043
Mof_H 	H 	0.7046	0.5352	0.7837	0.036
Mof_H 	H 	0.2396	0.6918	0.9803	0.07
Mof_H 	H 	0.9867	0.4265	0.8015	0.064
Mof_H 	H 	0.2849	0.7637	0.1069	0.043
Mof_H 	H 	0.8306	0.2954	0.7837	0.036
Mof_H 	H 	0.3082	0.7604	0.5197	0.07
Mof_H 	H 	0.5735	0.0133	0.6985	0.064
Mof_H 	H 	0.2363	0.7151	0.3931	0.045
Mof_H 	H 	0.7046	0.1694	0.7163	0.037
Mof_H 	H 	0.2396	0.5478	0.5197	0.071
Mof_H 	H 	0.9867	0.5602	0.6985	0.065
Mof_H 	H 	0.2849	0.5212	0.3931	0.045
Mof_H 	H 	0.8306	0.5352	0.7163	0.037
Mof_H 	H 	0.4522	0.6918	0.5197	0.071
Mof_H 	H 	0.4398	0.4265	0.6985	0.065
Mof_H 	H 	0.4788	0.7637	0.3931	0.045
Mof_H 	H 	0.4648	0.2954	0.7163	0.037
Mof_H 	H 	0.5478	0.2396	0.0197	0.071
Mof_H 	H 	0.5602	0.9867	0.1985	0.065
Mof_H 	H 	0.5212	0.2849	0.8931	0.044
Mof_H 	H 	0.5352	0.8306	0.2163	0.037
Mof_H 	H 	0.6918	0.4522	0.0197	0.071
Mof_H 	H 	0.4265	0.4398	0.1985	0.065
Mof_H 	H 	0.7637	0.4788	0.8931	0.044
Mof_H 	H 	0.2954	0.4648	0.2163	0.037
Mof_H 	H 	0.7604	0.3082	0.0197	0.071
Mof_H 	H 	0.0133	0.5735	0.1985	0.065
Mof_H 	H 	0.7151	0.2363	0.8931	0.044
Mof_H 	H 	0.1694	0.7046	0.2163	0.037
Mof_H 	H 	0.6918	0.2396	0.4803	0.071
Mof_H 	H 	0.4265	0.9867	0.3015	0.065
Mof_H 	H 	0.7637	0.2849	0.6069	0.045
Mof_H 	H 	0.2954	0.8306	0.2837	0.037
Mof_H 	H 	0.7604	0.4522	0.4803	0.071
Mof_H 	H 	0.0133	0.4398	0.3015	0.065
Mof_H 	H 	0.7151	0.4788	0.6069	0.045
Mof_H 	H 	0.1694	0.4648	0.2837	0.037
Mof_H 	H 	0.5478	0.3082	0.4803	0.071
Mof_H 	H 	0.5602	0.5735	0.3015	0.065
Mof_H 	H 	0.5212	0.2363	0.6069	0.045
Mof_H 	H 	0.5352	0.7046	0.2837	0.037
Mof_C 	C 	0.4653	0.9316	0.93488	-0.117
Mof_C 	C 	0.4269	0.8582	0.86386	0.393
Mof_C 	C 	0.4802	0.0268	0.9235	0.05
Mof_C 	C 	0.4849	0.9035	0.0105	0.049
Mof_C 	C 	0.4725	0.8065	0.0241	-0.077
Mof_C 	C 	0.4624	0.0584	0.8462	-0.078
Mof_C 	C 	0.4894	0.7801	0.0984	-0.027
Mof_C 	C 	0.4769	0.1503	0.8357	-0.022
Mof_C 	C 	0.4663	0.5347	0.93488	-0.118
Mof_C 	C 	0.4313	0.5731	0.86386	0.393
Mof_C 	C 	0.5466	0.5198	0.9235	0.05
Mof_C 	C 	0.4186	0.5151	0.0105	0.049
Mof_C 	C 	0.334	0.5275	0.0241	-0.077
Mof_C 	C 	0.596	0.5376	0.8462	-0.079
Mof_C 	C 	0.2907	0.5106	0.0984	-0.027
Mof_C 	C 	0.6734	0.5231	0.8357	-0.022
Mof_C 	C 	0.0684	0.5337	0.93488	-0.117
Mof_C 	C 	0.1418	0.5687	0.86386	0.393
Mof_C 	C 	0.9732	0.4534	0.9235	0.05
Mof_C 	C 	0.0965	0.5814	0.0105	0.049
Mof_C 	C 	0.1935	0.666	0.0241	-0.077
Mof_C 	C 	0.9416	0.404	0.8462	-0.078
Mof_C 	C 	0.2199	0.7093	0.0984	-0.027
Mof_C 	C 	0.8497	0.3266	0.8357	-0.023
Mof_C 	C 	0.4663	0.9316	0.56512	-0.118
Mof_C 	C 	0.4313	0.8582	0.63614	0.393
Mof_C 	C 	0.5466	0.0268	0.5765	0.05
Mof_C 	C 	0.4186	0.9035	0.4895	0.049
Mof_C 	C 	0.334	0.8065	0.4759	-0.076
Mof_C 	C 	0.596	0.0584	0.6538	-0.079
Mof_C 	C 	0.2907	0.7801	0.4016	-0.027
Mof_C 	C 	0.6734	0.1503	0.6643	-0.022
Mof_C 	C 	0.0684	0.5347	0.56512	-0.118
Mof_C 	C 	0.1418	0.5731	0.63614	0.393
Mof_C 	C 	0.9732	0.5198	0.5765	0.05
Mof_C 	C 	0.0965	0.5151	0.4895	0.049
Mof_C 	C 	0.1935	0.5275	0.4759	-0.076
Mof_C 	C 	0.9416	0.5376	0.6538	-0.079
Mof_C 	C 	0.2199	0.5106	0.4016	-0.027
Mof_C 	C 	0.8497	0.5231	0.6643	-0.022
Mof_C 	C 	0.4653	0.5337	0.56512	-0.118
Mof_C 	C 	0.4269	0.5687	0.63614	0.393
Mof_C 	C 	0.4802	0.4534	0.5765	0.05
Mof_C 	C 	0.4849	0.5814	0.4895	0.049
Mof_C 	C 	0.4725	0.666	0.4759	-0.076
Mof_C 	C 	0.4624	0.404	0.6538	-0.079
Mof_C 	C 	0.4894	0.7093	0.4016	-0.027
Mof_C 	C 	0.4769	0.3266	0.6643	-0.022
Mof_C 	C 	0.5347	0.0684	0.06512	-0.117
Mof_C 	C 	0.5731	0.1418	0.13614	0.393
Mof_C 	C 	0.5198	0.9732	0.0765	0.05
Mof_C 	C 	0.5151	0.0965	0.9895	0.049
Mof_C 	C 	0.5275	0.1935	0.9759	-0.077
Mof_C 	C 	0.5376	0.9416	0.1538	-0.078
Mof_C 	C 	0.5106	0.2199	0.9016	-0.027
Mof_C 	C 	0.5231	0.8497	0.1643	-0.022
Mof_C 	C 	0.5337	0.4653	0.06512	-0.118
Mof_C 	C 	0.5687	0.4269	0.13614	0.393
Mof_C 	C 	0.4534	0.4802	0.0765	0.05
Mof_C 	C 	0.5814	0.4849	0.9895	0.049
Mof_C 	C 	0.666	0.4725	0.9759	-0.077
Mof_C 	C 	0.404	0.4624	0.1538	-0.079
Mof_C 	C 	0.7093	0.4894	0.9016	-0.027
Mof_C 	C 	0.3266	0.4769	0.1643	-0.022
Mof_C 	C 	0.9316	0.4663	0.06512	-0.117
Mof_C 	C 	0.8582	0.4313	0.13614	0.393
Mof_C 	C 	0.0268	0.5466	0.0765	0.05
Mof_C 	C 	0.9035	0.4186	0.9895	0.049
Mof_C 	C 	0.8065	0.334	0.9759	-0.077
Mof_C 	C 	0.0584	0.596	0.1538	-0.078
Mof_C 	C 	0.7801	0.2907	0.9016	-0.027
Mof_C 	C 	0.1503	0.6734	0.1643	-0.023
Mof_C 	C 	0.5337	0.0684	0.43488	-0.118
Mof_C 	C 	0.5687	0.1418	0.36386	0.393
Mof_C 	C 	0.4534	0.9732	0.4235	0.05
Mof_C 	C 	0.5814	0.0965	0.5105	0.049
Mof_C 	C 	0.666	0.1935	0.5241	-0.076
Mof_C 	C 	0.404	0.9416	0.3462	-0.079
Mof_C 	C 	0.7093	0.2199	0.5984	-0.027
Mof_C 	C 	0.3266	0.8497	0.3357	-0.022
Mof_C 	C 	0.9316	0.4653	0.43488	-0.118
Mof_C 	C 	0.8582	0.4269	0.36386	0.393
Mof_C 	C 	0.0268	0.4802	0.4235	0.05
Mof_C 	C 	0.9035	0.4849	0.5105	0.049
Mof_C 	C 	0.8065	0.4725	0.5241	-0.076
Mof_C 	C 	0.0584	0.4624	0.3462	-0.079
Mof_C 	C 	0.7801	0.4894	0.5984	-0.027
Mof_C 	C 	0.1503	0.4769	0.3357	-0.022
Mof_C 	C 	0.5347	0.4663	0.43488	-0.118
Mof_C 	C 	0.5731	0.4313	0.36386	0.393
Mof_C 	C 	0.5198	0.5466	0.4235	0.05
Mof_C 	C 	0.5151	0.4186	0.5105	0.049
Mof_C 	C 	0.5275	0.334	0.5241	-0.076
Mof_C 	C 	0.5376	0.596	0.3462	-0.079
Mof_C 	C 	0.5106	0.2907	0.5984	-0.027
Mof_C 	C 	0.5231	0.6734	0.3357	-0.022
Mof_O 	O 	0.49101	0.84959	0.82566	-0.428
Mof_O 	O 	0.33551	0.81633	0.85147	-0.424
Mof_O 	O 	0.35858	0.50899	0.82566	-0.428
Mof_O 	O 	0.48082	0.66449	0.85147	-0.424
Mof_O 	O 	0.15041	0.64142	0.82566	-0.428
Mof_O 	O 	0.18367	0.51918	0.85147	-0.424
Mof_O 	O 	0.35858	0.84959	0.67434	-0.428
Mof_O 	O 	0.48082	0.81633	0.64853	-0.424
Mof_O 	O 	0.15041	0.50899	0.67434	-0.428
Mof_O 	O 	0.18367	0.66449	0.64853	-0.424
Mof_O 	O 	0.49101	0.64142	0.67434	-0.428
Mof_O 	O 	0.33551	0.51918	0.64853	-0.424
Mof_O 	O 	0.50899	0.15041	0.17434	-0.428
Mof_O 	O 	0.66449	0.18367	0.14853	-0.424
Mof_O 	O 	0.64142	0.49101	0.17434	-0.428
Mof_O 	O 	0.51918	0.33551	0.14853	-0.424
Mof_O 	O 	0.84959	0.35858	0.17434	-0.428
Mof_O 	O 	0.81633	0.48082	0.14853	-0.424
Mof_O 	O 	0.64142	0.15041	0.32566	-0.428
Mof_O 	O 	0.51918	0.18367	0.35147	-0.424
Mof_O 	O 	0.84959	0.49101	0.32566	-0.428
Mof_O 	O 	0.81633	0.33551	0.35147	-0.424
Mof_O 	O 	0.50899	0.35858	0.32566	-0.428
Mof_O 	O 	0.66449	0.48082	0.35147	-0.424
Mof_O 	O 	0.33333	0.66666	0.75	-0.569
Mof_O 	O 	0.66667	0.33334	0.25	-0.569
_end
