data_functionalizedCrystal
_audit_creation_method	'EQeq! by Chris Wilmer'
_symmetry_space_group_name_H-M	'P1'
_symmetry_Int_Tables_number	1
_symmetry_cell_setting	triclinic
loop_
_symmetry_equiv_pos_as_xyz
  x,y,z
_cell_length_a	22.8131
_cell_length_b	22.8131
_cell_length_c	7.7879
_cell_angle_alpha	90
_cell_angle_beta	90
_cell_angle_gamma	90
loop_
_atom_site_label
_atom_site_type_symbol
_atom_site_fract_x
_atom_site_fract_y
_atom_site_fract_z
_atom_site_charge
Mof_Ag	Ag	0.51168	0.62687	0.23171	0.55
Mof_N 	N 	0.63006	0.89596	0.362	-0.202
Mof_N 	N 	0.6676	0.63088	0.5731	-0.099
Mof_N 	N 	0.68126	0.68734	0.5239	-0.095
Mof_N 	N 	0.5865	0.68269	0.5763	-0.165
Mof_N 	N 	0.5269	0.46709	0.7211	-0.192
Mof_N 	N 	0.48732	0.67449	0.5041	-0.206
Mof_C 	C 	0.5807	0.8044	0.396	-0.137
Mof_H 	H 	0.547	0.7823	0.3786	0.069
Mof_C 	C 	0.5826	0.8621	0.3452	0.088
Mof_H 	H 	0.5491	0.8784	0.2966	-0.017
Mof_C 	C 	0.6774	0.8712	0.4323	0.095
Mof_H 	H 	0.7113	0.8935	0.4422	-0.009
Mof_C 	C 	0.6786	0.8144	0.4907	-0.137
Mof_H 	H 	0.7123	0.7995	0.5418	0.099
Mof_C 	C 	0.62918	0.7794	0.4729	0.062
Mof_C 	C 	0.6328	0.7176	0.5271	0.086
Mof_C 	C 	0.6111	0.6285	0.6025	0.081
Mof_C 	C 	0.5805	0.5743	0.6504	0.047
Mof_C 	C 	0.6032	0.5224	0.5881	-0.139
Mof_H 	H 	0.6369	0.5226	0.5209	0.074
Mof_C 	C 	0.5756	0.4705	0.626	0.076
Mof_H 	H 	0.5917	0.436	0.5835	-0.015
Mof_C 	C 	0.5058	0.5177	0.7828	0.071
Mof_H 	H 	0.4724	0.5165	0.8509	-0.014
Mof_C 	C 	0.531	0.5718	0.7508	-0.134
Mof_H 	H 	0.5148	0.6058	0.7963	0.06
Mof_C 	C 	0.52683	0.70067	0.6027	0.17
Mof_C 	C 	0.4314	0.691	0.5269	0.099
Mof_H 	H 	0.4025	0.6729	0.4613	-0.028
Mof_C 	C 	0.415	0.7329	0.6414	-0.199
Mof_H 	H 	0.3757	0.7429	0.6532	0.083
Mof_C 	C 	0.4567	0.7602	0.7394	0.11
Mof_H 	H 	0.4462	0.7897	0.816	-0.023
Mof_C 	C 	0.5145	0.7433	0.7224	-0.227
Mof_H 	H 	0.5439	0.76	0.7892	0.113
Mof_Ag	Ag	0.98832	0.87313	0.23171	0.55
Mof_N 	N 	0.86994	0.60404	0.362	-0.201
Mof_N 	N 	0.8324	0.86912	0.5731	-0.098
Mof_N 	N 	0.81874	0.81266	0.5239	-0.094
Mof_N 	N 	0.9135	0.81731	0.5763	-0.164
Mof_N 	N 	0.9731	0.03291	0.7211	-0.19
Mof_N 	N 	0.01268	0.82551	0.5041	-0.206
Mof_C 	C 	0.9193	0.6956	0.396	-0.137
Mof_H 	H 	0.953	0.7177	0.3786	0.069
Mof_C 	C 	0.9174	0.6379	0.3452	0.088
Mof_H 	H 	0.9509	0.6216	0.2966	-0.017
Mof_C 	C 	0.8226	0.6288	0.4323	0.095
Mof_H 	H 	0.7887	0.6065	0.4422	-0.009
Mof_C 	C 	0.8214	0.6856	0.4907	-0.137
Mof_H 	H 	0.7877	0.7005	0.5418	0.099
Mof_C 	C 	0.87082	0.7206	0.4729	0.062
Mof_C 	C 	0.8672	0.7824	0.5271	0.086
Mof_C 	C 	0.8889	0.8715	0.6025	0.081
Mof_C 	C 	0.9195	0.9257	0.6504	0.047
Mof_C 	C 	0.8968	0.9776	0.5881	-0.141
Mof_H 	H 	0.8631	0.9774	0.5209	0.074
Mof_C 	C 	0.9244	0.0295	0.626	0.078
Mof_H 	H 	0.9083	0.064	0.5835	-0.015
Mof_C 	C 	0.9942	0.9823	0.7828	0.068
Mof_H 	H 	0.0276	0.9835	0.8509	-0.013
Mof_C 	C 	0.969	0.9282	0.7508	-0.133
Mof_H 	H 	0.9852	0.8942	0.7963	0.059
Mof_C 	C 	0.97317	0.79933	0.6027	0.169
Mof_C 	C 	0.0686	0.809	0.5269	0.1
Mof_H 	H 	0.0975	0.8271	0.4613	-0.028
Mof_C 	C 	0.085	0.7671	0.6414	-0.199
Mof_H 	H 	0.1243	0.7571	0.6532	0.083
Mof_C 	C 	0.0433	0.7398	0.7394	0.111
Mof_H 	H 	0.0538	0.7103	0.816	-0.023
Mof_C 	C 	0.9855	0.7567	0.7224	-0.227
Mof_H 	H 	0.9561	0.74	0.7892	0.113
Mof_Ag	Ag	0.37313	0.01168	0.73171	0.551
Mof_N 	N 	0.10404	0.13006	0.862	-0.201
Mof_N 	N 	0.36912	0.1676	0.0731	-0.098
Mof_N 	N 	0.31266	0.18126	0.0239	-0.094
Mof_N 	N 	0.31731	0.0865	0.0763	-0.164
Mof_N 	N 	0.53291	0.0269	0.2211	-0.191
Mof_N 	N 	0.32551	0.98732	0.0041	-0.206
Mof_C 	C 	0.1956	0.0807	0.896	-0.137
Mof_H 	H 	0.2177	0.047	0.8786	0.069
Mof_C 	C 	0.1379	0.0826	0.8452	0.088
Mof_H 	H 	0.1216	0.0491	0.7966	-0.017
Mof_C 	C 	0.1288	0.1774	0.9323	0.096
Mof_H 	H 	0.1065	0.2113	0.9422	-0.01
Mof_C 	C 	0.1856	0.1786	0.9907	-0.14
Mof_H 	H 	0.2005	0.2123	0.0418	0.1
Mof_C 	C 	0.2206	0.12918	0.9729	0.062
Mof_C 	C 	0.2824	0.1328	0.0271	0.087
Mof_C 	C 	0.3715	0.1111	0.1025	0.081
Mof_C 	C 	0.4257	0.0805	0.1504	0.047
Mof_C 	C 	0.4776	0.1032	0.0881	-0.14
Mof_H 	H 	0.4774	0.1369	0.0209	0.074
Mof_C 	C 	0.5295	0.0756	0.126	0.076
Mof_H 	H 	0.564	0.0917	0.0835	-0.015
Mof_C 	C 	0.4823	0.0058	0.2828	0.071
Mof_H 	H 	0.4835	0.9724	0.3509	-0.015
Mof_C 	C 	0.4282	0.031	0.2508	-0.134
Mof_H 	H 	0.3942	0.0148	0.2963	0.06
Mof_C 	C 	0.29933	0.02683	0.1027	0.17
Mof_C 	C 	0.309	0.9314	0.0269	0.101
Mof_H 	H 	0.3271	0.9025	0.9613	-0.029
Mof_C 	C 	0.2671	0.915	0.1414	-0.2
Mof_H 	H 	0.2571	0.8757	0.1532	0.084
Mof_C 	C 	0.2398	0.9567	0.2394	0.112
Mof_H 	H 	0.2103	0.9462	0.316	-0.023
Mof_C 	C 	0.2567	0.0145	0.2224	-0.228
Mof_H 	H 	0.24	0.0439	0.2892	0.114
Mof_Ag	Ag	0.12687	0.48832	0.73171	0.551
Mof_N 	N 	0.39596	0.36994	0.862	-0.201
Mof_N 	N 	0.13088	0.3324	0.0731	-0.098
Mof_N 	N 	0.18734	0.31874	0.0239	-0.094
Mof_N 	N 	0.18269	0.4135	0.0763	-0.164
Mof_N 	N 	0.96709	0.4731	0.2211	-0.191
Mof_N 	N 	0.17449	0.51268	0.0041	-0.206
Mof_C 	C 	0.3044	0.4193	0.896	-0.137
Mof_H 	H 	0.2823	0.453	0.8786	0.069
Mof_C 	C 	0.3621	0.4174	0.8452	0.088
Mof_H 	H 	0.3784	0.4509	0.7966	-0.017
Mof_C 	C 	0.3712	0.3226	0.9323	0.096
Mof_H 	H 	0.3935	0.2887	0.9422	-0.01
Mof_C 	C 	0.3144	0.3214	0.9907	-0.14
Mof_H 	H 	0.2995	0.2877	0.0418	0.1
Mof_C 	C 	0.2794	0.37082	0.9729	0.062
Mof_C 	C 	0.2176	0.3672	0.0271	0.087
Mof_C 	C 	0.1285	0.3889	0.1025	0.081
Mof_C 	C 	0.0743	0.4195	0.1504	0.047
Mof_C 	C 	0.0224	0.3968	0.0881	-0.139
Mof_H 	H 	0.0226	0.3631	0.0209	0.074
Mof_C 	C 	0.9705	0.4244	0.126	0.075
Mof_H 	H 	0.936	0.4083	0.0835	-0.015
Mof_C 	C 	0.0177	0.4942	0.2828	0.071
Mof_H 	H 	0.0165	0.5276	0.3509	-0.014
Mof_C 	C 	0.0718	0.469	0.2508	-0.134
Mof_H 	H 	0.1058	0.4852	0.2963	0.06
Mof_C 	C 	0.20067	0.47317	0.1027	0.17
Mof_C 	C 	0.191	0.5686	0.0269	0.101
Mof_H 	H 	0.1729	0.5975	0.9613	-0.029
Mof_C 	C 	0.2329	0.585	0.1414	-0.2
Mof_H 	H 	0.2429	0.6243	0.1532	0.084
Mof_C 	C 	0.2602	0.5433	0.2394	0.111
Mof_H 	H 	0.2897	0.5538	0.316	-0.023
Mof_C 	C 	0.2433	0.4855	0.2224	-0.227
Mof_H 	H 	0.26	0.4561	0.2892	0.113
Mof_Ag	Ag	0.48832	0.37313	0.76829	0.551
Mof_N 	N 	0.36994	0.10404	0.638	-0.201
Mof_N 	N 	0.3324	0.36912	0.4269	-0.098
Mof_N 	N 	0.31874	0.31266	0.4761	-0.094
Mof_N 	N 	0.4135	0.31731	0.4237	-0.164
Mof_N 	N 	0.4731	0.53291	0.2789	-0.191
Mof_N 	N 	0.51268	0.32551	0.4959	-0.206
Mof_C 	C 	0.4193	0.1956	0.604	-0.137
Mof_H 	H 	0.453	0.2177	0.6214	0.069
Mof_C 	C 	0.4174	0.1379	0.6548	0.088
Mof_H 	H 	0.4509	0.1216	0.7034	-0.017
Mof_C 	C 	0.3226	0.1288	0.5677	0.095
Mof_H 	H 	0.2887	0.1065	0.5578	-0.009
Mof_C 	C 	0.3214	0.1856	0.5093	-0.137
Mof_H 	H 	0.2877	0.2005	0.4582	0.099
Mof_C 	C 	0.37082	0.2206	0.5271	0.062
Mof_C 	C 	0.3672	0.2824	0.4729	0.086
Mof_C 	C 	0.3889	0.3715	0.3975	0.081
Mof_C 	C 	0.4195	0.4257	0.3496	0.047
Mof_C 	C 	0.3968	0.4776	0.4119	-0.139
Mof_H 	H 	0.3631	0.4774	0.4791	0.074
Mof_C 	C 	0.4244	0.5295	0.374	0.076
Mof_H 	H 	0.4083	0.564	0.4165	-0.015
Mof_C 	C 	0.4942	0.4823	0.2172	0.071
Mof_H 	H 	0.5276	0.4835	0.1491	-0.014
Mof_C 	C 	0.469	0.4282	0.2492	-0.134
Mof_H 	H 	0.4852	0.3942	0.2037	0.06
Mof_C 	C 	0.47317	0.29933	0.3973	0.17
Mof_C 	C 	0.5686	0.309	0.4731	0.099
Mof_H 	H 	0.5975	0.3271	0.5387	-0.028
Mof_C 	C 	0.585	0.2671	0.3586	-0.199
Mof_H 	H 	0.6243	0.2571	0.3468	0.083
Mof_C 	C 	0.5433	0.2398	0.2606	0.11
Mof_H 	H 	0.5538	0.2103	0.184	-0.023
Mof_C 	C 	0.4855	0.2567	0.2776	-0.227
Mof_H 	H 	0.4561	0.24	0.2108	0.113
Mof_Ag	Ag	0.01168	0.12687	0.76829	0.55
Mof_N 	N 	0.13006	0.39596	0.638	-0.201
Mof_N 	N 	0.1676	0.13088	0.4269	-0.098
Mof_N 	N 	0.18126	0.18734	0.4761	-0.094
Mof_N 	N 	0.0865	0.18269	0.4237	-0.164
Mof_N 	N 	0.0269	0.96709	0.2789	-0.19
Mof_N 	N 	0.98732	0.17449	0.4959	-0.206
Mof_C 	C 	0.0807	0.3044	0.604	-0.137
Mof_H 	H 	0.047	0.2823	0.6214	0.069
Mof_C 	C 	0.0826	0.3621	0.6548	0.088
Mof_H 	H 	0.0491	0.3784	0.7034	-0.017
Mof_C 	C 	0.1774	0.3712	0.5677	0.095
Mof_H 	H 	0.2113	0.3935	0.5578	-0.009
Mof_C 	C 	0.1786	0.3144	0.5093	-0.137
Mof_H 	H 	0.2123	0.2995	0.4582	0.099
Mof_C 	C 	0.12918	0.2794	0.5271	0.062
Mof_C 	C 	0.1328	0.2176	0.4729	0.086
Mof_C 	C 	0.1111	0.1285	0.3975	0.081
Mof_C 	C 	0.0805	0.0743	0.3496	0.047
Mof_C 	C 	0.1032	0.0224	0.4119	-0.141
Mof_H 	H 	0.1369	0.0226	0.4791	0.074
Mof_C 	C 	0.0756	0.9705	0.374	0.078
Mof_H 	H 	0.0917	0.936	0.4165	-0.015
Mof_C 	C 	0.0058	0.0177	0.2172	0.068
Mof_H 	H 	0.9724	0.0165	0.1491	-0.013
Mof_C 	C 	0.031	0.0718	0.2492	-0.133
Mof_H 	H 	0.0148	0.1058	0.2037	0.059
Mof_C 	C 	0.02683	0.20067	0.3973	0.169
Mof_C 	C 	0.9314	0.191	0.4731	0.1
Mof_H 	H 	0.9025	0.1729	0.5387	-0.028
Mof_C 	C 	0.915	0.2329	0.3586	-0.199
Mof_H 	H 	0.8757	0.2429	0.3468	0.083
Mof_C 	C 	0.9567	0.2602	0.2606	0.111
Mof_H 	H 	0.9462	0.2897	0.184	-0.023
Mof_C 	C 	0.0145	0.2433	0.2776	-0.227
Mof_H 	H 	0.0439	0.26	0.2108	0.113
Mof_Ag	Ag	0.62687	0.98832	0.26829	0.551
Mof_N 	N 	0.89596	0.86994	0.138	-0.201
Mof_N 	N 	0.63088	0.8324	0.9269	-0.098
Mof_N 	N 	0.68734	0.81874	0.9761	-0.094
Mof_N 	N 	0.68269	0.9135	0.9237	-0.164
Mof_N 	N 	0.46709	0.9731	0.7789	-0.191
Mof_N 	N 	0.67449	0.01268	0.9959	-0.206
Mof_C 	C 	0.8044	0.9193	0.104	-0.137
Mof_H 	H 	0.7823	0.953	0.1214	0.069
Mof_C 	C 	0.8621	0.9174	0.1548	0.088
Mof_H 	H 	0.8784	0.9509	0.2034	-0.017
Mof_C 	C 	0.8712	0.8226	0.0677	0.096
Mof_H 	H 	0.8935	0.7887	0.0578	-0.01
Mof_C 	C 	0.8144	0.8214	0.0093	-0.14
Mof_H 	H 	0.7995	0.7877	0.9582	0.1
Mof_C 	C 	0.7794	0.87082	0.0271	0.062
Mof_C 	C 	0.7176	0.8672	0.9729	0.087
Mof_C 	C 	0.6285	0.8889	0.8975	0.081
Mof_C 	C 	0.5743	0.9195	0.8496	0.047
Mof_C 	C 	0.5224	0.8968	0.9119	-0.14
Mof_H 	H 	0.5226	0.8631	0.9791	0.074
Mof_C 	C 	0.4705	0.9244	0.874	0.076
Mof_H 	H 	0.436	0.9083	0.9165	-0.015
Mof_C 	C 	0.5177	0.9942	0.7172	0.071
Mof_H 	H 	0.5165	0.0276	0.6491	-0.015
Mof_C 	C 	0.5718	0.969	0.7492	-0.134
Mof_H 	H 	0.6058	0.9852	0.7037	0.06
Mof_C 	C 	0.70067	0.97317	0.8973	0.17
Mof_C 	C 	0.691	0.0686	0.9731	0.101
Mof_H 	H 	0.6729	0.0975	0.0387	-0.029
Mof_C 	C 	0.7329	0.085	0.8586	-0.2
Mof_H 	H 	0.7429	0.1243	0.8468	0.084
Mof_C 	C 	0.7602	0.0433	0.7606	0.112
Mof_H 	H 	0.7897	0.0538	0.684	-0.023
Mof_C 	C 	0.7433	0.9855	0.7776	-0.228
Mof_H 	H 	0.76	0.9561	0.7108	0.114
Mof_Ag	Ag	0.87313	0.51168	0.26829	0.551
Mof_N 	N 	0.60404	0.63006	0.138	-0.201
Mof_N 	N 	0.86912	0.6676	0.9269	-0.098
Mof_N 	N 	0.81266	0.68126	0.9761	-0.094
Mof_N 	N 	0.81731	0.5865	0.9237	-0.164
Mof_N 	N 	0.03291	0.5269	0.7789	-0.191
Mof_N 	N 	0.82551	0.48732	0.9959	-0.206
Mof_C 	C 	0.6956	0.5807	0.104	-0.137
Mof_H 	H 	0.7177	0.547	0.1214	0.069
Mof_C 	C 	0.6379	0.5826	0.1548	0.088
Mof_H 	H 	0.6216	0.5491	0.2034	-0.017
Mof_C 	C 	0.6288	0.6774	0.0677	0.096
Mof_H 	H 	0.6065	0.7113	0.0578	-0.01
Mof_C 	C 	0.6856	0.6786	0.0093	-0.14
Mof_H 	H 	0.7005	0.7123	0.9582	0.1
Mof_C 	C 	0.7206	0.62918	0.0271	0.062
Mof_C 	C 	0.7824	0.6328	0.9729	0.087
Mof_C 	C 	0.8715	0.6111	0.8975	0.081
Mof_C 	C 	0.9257	0.5805	0.8496	0.047
Mof_C 	C 	0.9776	0.6032	0.9119	-0.139
Mof_H 	H 	0.9774	0.6369	0.9791	0.074
Mof_C 	C 	0.0295	0.5756	0.874	0.075
Mof_H 	H 	0.064	0.5917	0.9165	-0.015
Mof_C 	C 	0.9823	0.5058	0.7172	0.071
Mof_H 	H 	0.9835	0.4724	0.6491	-0.014
Mof_C 	C 	0.9282	0.531	0.7492	-0.134
Mof_H 	H 	0.8942	0.5148	0.7037	0.06
Mof_C 	C 	0.79933	0.52683	0.8973	0.17
Mof_C 	C 	0.809	0.4314	0.9731	0.101
Mof_H 	H 	0.8271	0.4025	0.0387	-0.029
Mof_C 	C 	0.7671	0.415	0.8586	-0.2
Mof_H 	H 	0.7571	0.3757	0.8468	0.084
Mof_C 	C 	0.7398	0.4567	0.7606	0.111
Mof_H 	H 	0.7103	0.4462	0.684	-0.023
Mof_C 	C 	0.7567	0.5145	0.7776	-0.227
Mof_H 	H 	0.74	0.5439	0.7108	0.113
_end
