data_functionalizedCrystal
_audit_creation_method	'EQeq! by Chris Wilmer'
_symmetry_space_group_name_H-M	'P1'
_symmetry_Int_Tables_number	1
_symmetry_cell_setting	triclinic
loop_
_symmetry_equiv_pos_as_xyz
  x,y,z
_cell_length_a	27.541
_cell_length_b	11.126
_cell_length_c	16.991
_cell_angle_alpha	90
_cell_angle_beta	99.01
_cell_angle_gamma	90
loop_
_atom_site_label
_atom_site_type_symbol
_atom_site_fract_x
_atom_site_fract_y
_atom_site_fract_z
_atom_site_charge
Mof_Ce	Ce	0.25216	0.6321	0.6904	2.653
Mof_Ce	Ce	0.25119	0.67389	0.97335	2.771
Mof_C 	C 	0.1769	0.875	0.6251	0.502
Mof_C 	C 	0.1281	0.914	0.6398	-0.235
Mof_C 	C 	0.1086	0.872	0.7046	0.136
Mof_H 	H 	0.1269	0.8204	0.7412	-0.016
Mof_C 	C 	0.0624	0.905	0.7145	-0.176
Mof_H 	H 	0.0492	0.8761	0.758	0.099
Mof_C 	C 	0.0348	0.981	0.6613	0.083
Mof_C 	C 	0.0988	0.9933	0.5912	0.129
Mof_H 	H 	0.1119	0.0265	0.5489	-0.007
Mof_C 	C 	0.9832	0.01	0.6665	0.106
Mof_C 	C 	0.9527	0.0606	0.6047	-0.22
Mof_H 	H 	0.9649	0.0835	0.5588	0.119
Mof_C 	C 	0.9197	0.996	0.7385	0.162
Mof_H 	H 	0.9085	0.9749	0.7856	-0.014
Mof_C 	C 	0.8864	0.0467	0.6796	-0.287
Mof_C 	C 	0.9051	0.0773	0.61	0.186
Mof_H 	H 	0.8842	0.1097	0.5669	-0.036
Mof_C 	C 	0.8343	0.0655	0.688	0.608
Mof_C 	C 	0.329	0.5879	0.5481	0.525
Mof_C 	C 	0.3803	0.558	0.5334	-0.229
Mof_C 	C 	0.41	0.4737	0.5777	0.127
Mof_H 	H 	0.3974	0.4327	0.6178	-0.005
Mof_C 	C 	0.4462	0.5911	0.4594	-0.187
Mof_H 	H 	0.4586	0.6317	0.419	0.103
Mof_C 	C 	0.4743	0.5108	0.5055	0.087
Mof_C 	C 	0.3996	0.612	0.4725	0.139
Mof_H 	H 	0.38	0.6649	0.439	-0.013
Mof_C 	C 	0.0254	0.98	0.9981	0.091
Mof_C 	C 	0.0366	0.918	0.9331	-0.184
Mof_H 	H 	0.0119	0.8989	0.8912	0.106
Mof_C 	C 	0.0841	0.884	0.9301	0.14
Mof_H 	H 	0.0922	0.847	0.8847	-0.013
Mof_C 	C 	0.1202	0.905	0.9963	-0.259
Mof_C 	C 	0.1061	0.973	0.0582	0.157
Mof_H 	H 	0.1303	0.9954	0.1001	-0.041
Mof_C 	C 	0.1706	0.864	0.9967	0.533
Mof_C 	C 	0.3381	0.5872	0.8583	0.592
Mof_C 	C 	0.3914	0.5781	0.8523	-0.264
Mof_C 	C 	0.4282	0.5967	0.916	0.157
Mof_H 	H 	0.4202	0.6198	0.9649	-0.016
Mof_C 	C 	0.4765	0.5816	0.9079	-0.197
Mof_H 	H 	0.5011	0.5924	0.9515	0.108
Mof_C 	C 	0.4884	0.5505	0.8353	0.1
Mof_C 	C 	0.4069	0.5588	0.7791	0.154
Mof_H 	H 	0.3832	0.556	0.7336	-0.021
Mof_C 	C 	0.5389	0.5141	0.8273	0.087
Mof_C 	C 	0.5495	0.4736	0.7561	-0.175
Mof_H 	H 	0.5275	0.4853	0.7093	0.103
Mof_C 	C 	0.5934	0.415	0.7549	0.122
Mof_H 	H 	0.6001	0.3805	0.7079	-0.006
Mof_C 	C 	0.6279	0.4076	0.8248	-0.237
Mof_C 	C 	0.6161	0.4645	0.8924	0.148
Mof_H 	H 	0.6395	0.4665	0.9382	-0.051
Mof_C 	C 	0.6741	0.3356	0.8265	0.517
Mof_N 	N 	0.0534	0.0265	0.5998	-0.146
Mof_N 	N 	0.9668	0.973	0.7339	-0.154
Mof_N 	N 	0.4562	0.448	0.5655	-0.143
Mof_N 	N 	0.0601	0.007	0.0609	-0.151
Mof_N 	N 	0.4541	0.5442	0.7706	-0.152
Mof_N 	N 	0.5726	0.5162	0.894	-0.154
Mof_O 	O 	0.2046	0.8207	0.6814	-0.583
Mof_O 	O 	0.188	0.8959	0.556	-0.587
Mof_O 	O 	0.8233	0.0799	0.7546	-0.64
Mof_O 	O 	0.8032	0.0628	0.6241	-0.682
Mof_O 	O 	0.3179	0.5611	0.6138	-0.607
Mof_O 	O 	0.3009	0.6424	0.4917	-0.611
Mof_O 	O 	0.1806	0.8117	0.9345	-0.579
Mof_O 	O 	0.2012	0.8672	0.059	-0.713
Mof_O 	O 	0.3071	0.5493	0.8013	-0.67
Mof_O 	O 	0.3271	0.626	0.9216	-0.641
Mof_O 	O 	0.7018	0.3253	0.8913	-0.725
Mof_O 	O 	0.6816	0.2861	0.7631	-0.549
Mof_O 	O 	0.2509	0.7751	0.8327	-0.722
Mof_H 	H 	0.2791	0.8281	0.8377	0.226
Mof_H 	H 	0.2219	0.8258	0.8228	0.221
Mof_Ce	Ce	0.74784	0.1321	0.8096	2.654
Mof_Ce	Ce	0.74881	0.17389	0.52665	2.774
Mof_C 	C 	0.8231	0.375	0.8749	0.502
Mof_C 	C 	0.8719	0.414	0.8602	-0.236
Mof_C 	C 	0.8914	0.372	0.7954	0.139
Mof_H 	H 	0.8731	0.3204	0.7588	-0.017
Mof_C 	C 	0.9376	0.405	0.7855	-0.179
Mof_H 	H 	0.9508	0.3761	0.742	0.101
Mof_C 	C 	0.9652	0.481	0.8387	0.088
Mof_C 	C 	0.9012	0.4933	0.9088	0.133
Mof_H 	H 	0.8881	0.5265	0.9511	-0.009
Mof_C 	C 	0.0168	0.51	0.8335	0.103
Mof_C 	C 	0.0473	0.5606	0.8953	-0.218
Mof_H 	H 	0.0351	0.5835	0.9412	0.117
Mof_C 	C 	0.0803	0.496	0.7615	0.161
Mof_H 	H 	0.0915	0.4749	0.7144	-0.014
Mof_C 	C 	0.1136	0.5467	0.8204	-0.286
Mof_C 	C 	0.0949	0.5773	0.89	0.184
Mof_H 	H 	0.1158	0.6097	0.9331	-0.035
Mof_C 	C 	0.1657	0.5655	0.812	0.607
Mof_C 	C 	0.671	0.0879	0.9519	0.526
Mof_C 	C 	0.6197	0.058	0.9666	-0.228
Mof_C 	C 	0.59	0.9737	0.9223	0.126
Mof_H 	H 	0.6026	0.9327	0.8822	-0.005
Mof_C 	C 	0.5538	0.0911	0.0406	-0.187
Mof_H 	H 	0.5414	0.1317	0.081	0.103
Mof_C 	C 	0.5257	0.0108	0.9945	0.088
Mof_C 	C 	0.6004	0.112	0.0275	0.138
Mof_H 	H 	0.62	0.1649	0.061	-0.013
Mof_C 	C 	0.9746	0.48	0.5019	0.093
Mof_C 	C 	0.9634	0.418	0.5669	-0.184
Mof_H 	H 	0.9881	0.3989	0.6088	0.106
Mof_C 	C 	0.9159	0.384	0.5699	0.14
Mof_H 	H 	0.9078	0.347	0.6153	-0.013
Mof_C 	C 	0.8798	0.405	0.5037	-0.257
Mof_C 	C 	0.8939	0.473	0.4418	0.154
Mof_H 	H 	0.8697	0.4954	0.3999	-0.041
Mof_C 	C 	0.8294	0.364	0.5033	0.534
Mof_C 	C 	0.6619	0.0872	0.6417	0.592
Mof_C 	C 	0.6086	0.0781	0.6477	-0.264
Mof_C 	C 	0.5718	0.0967	0.584	0.156
Mof_H 	H 	0.5798	0.1198	0.5351	-0.016
Mof_C 	C 	0.5235	0.0816	0.5921	-0.197
Mof_H 	H 	0.4989	0.0924	0.5485	0.107
Mof_C 	C 	0.5116	0.0505	0.6647	0.1
Mof_C 	C 	0.5931	0.0588	0.7209	0.154
Mof_H 	H 	0.6168	0.056	0.7664	-0.021
Mof_C 	C 	0.4611	0.0141	0.6727	0.088
Mof_C 	C 	0.4505	0.9736	0.7439	-0.176
Mof_H 	H 	0.4725	0.9853	0.7907	0.103
Mof_C 	C 	0.4066	0.915	0.7451	0.123
Mof_H 	H 	0.3999	0.8805	0.7921	-0.006
Mof_C 	C 	0.3721	0.9076	0.6752	-0.238
Mof_C 	C 	0.3839	0.9645	0.6076	0.148
Mof_H 	H 	0.3605	0.9665	0.5618	-0.052
Mof_C 	C 	0.3259	0.8356	0.6735	0.517
Mof_N 	N 	0.9466	0.5265	0.9002	-0.148
Mof_N 	N 	0.0332	0.473	0.7661	-0.154
Mof_N 	N 	0.5438	0.948	0.9345	-0.143
Mof_N 	N 	0.9399	0.507	0.4391	-0.152
Mof_N 	N 	0.5459	0.0442	0.7294	-0.151
Mof_N 	N 	0.4274	0.0162	0.606	-0.155
Mof_O 	O 	0.7954	0.3207	0.8186	-0.583
Mof_O 	O 	0.812	0.3959	0.944	-0.586
Mof_O 	O 	0.1767	0.5799	0.7454	-0.64
Mof_O 	O 	0.1968	0.5628	0.8759	-0.681
Mof_O 	O 	0.6821	0.0611	0.8862	-0.607
Mof_O 	O 	0.6991	0.1424	0.0083	-0.612
Mof_O 	O 	0.8194	0.3117	0.5655	-0.58
Mof_O 	O 	0.7988	0.3672	0.441	-0.715
Mof_O 	O 	0.6929	0.0493	0.6987	-0.67
Mof_O 	O 	0.6729	0.126	0.5784	-0.641
Mof_O 	O 	0.2982	0.8253	0.6087	-0.726
Mof_O 	O 	0.3184	0.7861	0.7369	-0.549
Mof_O 	O 	0.7491	0.2751	0.6673	-0.722
Mof_H 	H 	0.7209	0.3281	0.6623	0.226
Mof_H 	H 	0.7781	0.3258	0.6772	0.222
Mof_Ce	Ce	0.74784	0.3679	0.3096	2.654
Mof_Ce	Ce	0.74881	0.32611	0.02665	2.772
Mof_C 	C 	0.8231	0.125	0.3749	0.502
Mof_C 	C 	0.8719	0.086	0.3602	-0.235
Mof_C 	C 	0.8914	0.128	0.2954	0.136
Mof_H 	H 	0.8731	0.1796	0.2588	-0.016
Mof_C 	C 	0.9376	0.095	0.2855	-0.176
Mof_H 	H 	0.9508	0.1239	0.242	0.099
Mof_C 	C 	0.9652	0.019	0.3387	0.083
Mof_C 	C 	0.9012	0.0067	0.4088	0.129
Mof_H 	H 	0.8881	0.9735	0.4511	-0.007
Mof_C 	C 	0.0168	0.99	0.3335	0.106
Mof_C 	C 	0.0473	0.9394	0.3953	-0.22
Mof_H 	H 	0.0351	0.9165	0.4412	0.119
Mof_C 	C 	0.0803	0.004	0.2615	0.162
Mof_H 	H 	0.0915	0.0251	0.2144	-0.014
Mof_C 	C 	0.1136	0.9533	0.3204	-0.287
Mof_C 	C 	0.0949	0.9227	0.39	0.186
Mof_H 	H 	0.1158	0.8903	0.4331	-0.036
Mof_C 	C 	0.1657	0.9345	0.312	0.608
Mof_C 	C 	0.671	0.4121	0.4519	0.525
Mof_C 	C 	0.6197	0.442	0.4666	-0.229
Mof_C 	C 	0.59	0.5263	0.4223	0.127
Mof_H 	H 	0.6026	0.5673	0.3822	-0.005
Mof_C 	C 	0.5538	0.4089	0.5406	-0.187
Mof_H 	H 	0.5414	0.3683	0.581	0.103
Mof_C 	C 	0.5257	0.4892	0.4945	0.087
Mof_C 	C 	0.6004	0.388	0.5275	0.139
Mof_H 	H 	0.62	0.3351	0.561	-0.013
Mof_C 	C 	0.9746	0.02	0.0019	0.091
Mof_C 	C 	0.9634	0.082	0.0669	-0.184
Mof_H 	H 	0.9881	0.1011	0.1088	0.106
Mof_C 	C 	0.9159	0.116	0.0699	0.14
Mof_H 	H 	0.9078	0.153	0.1153	-0.013
Mof_C 	C 	0.8798	0.095	0.0037	-0.259
Mof_C 	C 	0.8939	0.027	0.9418	0.157
Mof_H 	H 	0.8697	0.0046	0.8999	-0.041
Mof_C 	C 	0.8294	0.136	0.0033	0.533
Mof_C 	C 	0.6619	0.4128	0.1417	0.592
Mof_C 	C 	0.6086	0.4219	0.1477	-0.264
Mof_C 	C 	0.5718	0.4033	0.084	0.157
Mof_H 	H 	0.5798	0.3802	0.0351	-0.016
Mof_C 	C 	0.5235	0.4184	0.0921	-0.197
Mof_H 	H 	0.4989	0.4076	0.0485	0.108
Mof_C 	C 	0.5116	0.4495	0.1647	0.1
Mof_C 	C 	0.5931	0.4412	0.2209	0.154
Mof_H 	H 	0.6168	0.444	0.2664	-0.021
Mof_C 	C 	0.4611	0.4859	0.1727	0.087
Mof_C 	C 	0.4505	0.5264	0.2439	-0.175
Mof_H 	H 	0.4725	0.5147	0.2907	0.103
Mof_C 	C 	0.4066	0.585	0.2451	0.122
Mof_H 	H 	0.3999	0.6195	0.2921	-0.006
Mof_C 	C 	0.3721	0.5924	0.1752	-0.237
Mof_C 	C 	0.3839	0.5355	0.1076	0.148
Mof_H 	H 	0.3605	0.5335	0.0618	-0.051
Mof_C 	C 	0.3259	0.6644	0.1735	0.517
Mof_N 	N 	0.9466	0.9735	0.4002	-0.146
Mof_N 	N 	0.0332	0.027	0.2661	-0.154
Mof_N 	N 	0.5438	0.552	0.4345	-0.143
Mof_N 	N 	0.9399	0.993	0.9391	-0.151
Mof_N 	N 	0.5459	0.4558	0.2294	-0.152
Mof_N 	N 	0.4274	0.4838	0.106	-0.154
Mof_O 	O 	0.7954	0.1793	0.3186	-0.583
Mof_O 	O 	0.812	0.1041	0.444	-0.587
Mof_O 	O 	0.1767	0.9201	0.2454	-0.64
Mof_O 	O 	0.1968	0.9372	0.3759	-0.682
Mof_O 	O 	0.6821	0.4389	0.3862	-0.607
Mof_O 	O 	0.6991	0.3576	0.5083	-0.611
Mof_O 	O 	0.8194	0.1883	0.0655	-0.579
Mof_O 	O 	0.7988	0.1328	0.941	-0.713
Mof_O 	O 	0.6929	0.4507	0.1987	-0.67
Mof_O 	O 	0.6729	0.374	0.0784	-0.641
Mof_O 	O 	0.2982	0.6747	0.1087	-0.725
Mof_O 	O 	0.3184	0.7139	0.2369	-0.549
Mof_O 	O 	0.7491	0.2249	0.1673	-0.722
Mof_H 	H 	0.7209	0.1719	0.1623	0.226
Mof_H 	H 	0.7781	0.1742	0.1772	0.221
Mof_Ce	Ce	0.25216	0.8679	0.1904	2.654
Mof_Ce	Ce	0.25119	0.82611	0.47335	2.774
Mof_C 	C 	0.1769	0.625	0.1251	0.502
Mof_C 	C 	0.1281	0.586	0.1398	-0.236
Mof_C 	C 	0.1086	0.628	0.2046	0.139
Mof_H 	H 	0.1269	0.6796	0.2412	-0.017
Mof_C 	C 	0.0624	0.595	0.2145	-0.179
Mof_H 	H 	0.0492	0.6239	0.258	0.101
Mof_C 	C 	0.0348	0.519	0.1613	0.088
Mof_C 	C 	0.0988	0.5067	0.0912	0.133
Mof_H 	H 	0.1119	0.4735	0.0489	-0.009
Mof_C 	C 	0.9832	0.49	0.1665	0.103
Mof_C 	C 	0.9527	0.4394	0.1047	-0.218
Mof_H 	H 	0.9649	0.4165	0.0588	0.117
Mof_C 	C 	0.9197	0.504	0.2385	0.161
Mof_H 	H 	0.9085	0.5251	0.2856	-0.014
Mof_C 	C 	0.8864	0.4533	0.1796	-0.286
Mof_C 	C 	0.9051	0.4227	0.11	0.184
Mof_H 	H 	0.8842	0.3903	0.0669	-0.035
Mof_C 	C 	0.8343	0.4345	0.188	0.607
Mof_C 	C 	0.329	0.9121	0.0481	0.526
Mof_C 	C 	0.3803	0.942	0.0334	-0.228
Mof_C 	C 	0.41	0.0263	0.0777	0.126
Mof_H 	H 	0.3974	0.0673	0.1178	-0.005
Mof_C 	C 	0.4462	0.9089	0.9594	-0.187
Mof_H 	H 	0.4586	0.8683	0.919	0.103
Mof_C 	C 	0.4743	0.9892	0.0055	0.088
Mof_C 	C 	0.3996	0.888	0.9725	0.138
Mof_H 	H 	0.38	0.8351	0.939	-0.013
Mof_C 	C 	0.0254	0.52	0.4981	0.093
Mof_C 	C 	0.0366	0.582	0.4331	-0.184
Mof_H 	H 	0.0119	0.6011	0.3912	0.106
Mof_C 	C 	0.0841	0.616	0.4301	0.14
Mof_H 	H 	0.0922	0.653	0.3847	-0.013
Mof_C 	C 	0.1202	0.595	0.4963	-0.257
Mof_C 	C 	0.1061	0.527	0.5582	0.154
Mof_H 	H 	0.1303	0.5046	0.6001	-0.041
Mof_C 	C 	0.1706	0.636	0.4967	0.534
Mof_C 	C 	0.3381	0.9128	0.3583	0.592
Mof_C 	C 	0.3914	0.9219	0.3523	-0.264
Mof_C 	C 	0.4282	0.9033	0.416	0.156
Mof_H 	H 	0.4202	0.8802	0.4649	-0.016
Mof_C 	C 	0.4765	0.9184	0.4079	-0.197
Mof_H 	H 	0.5011	0.9076	0.4515	0.107
Mof_C 	C 	0.4884	0.9495	0.3353	0.1
Mof_C 	C 	0.4069	0.9412	0.2791	0.154
Mof_H 	H 	0.3832	0.944	0.2336	-0.021
Mof_C 	C 	0.5389	0.9859	0.3273	0.088
Mof_C 	C 	0.5495	0.0264	0.2561	-0.176
Mof_H 	H 	0.5275	0.0147	0.2093	0.103
Mof_C 	C 	0.5934	0.085	0.2549	0.123
Mof_H 	H 	0.6001	0.1195	0.2079	-0.006
Mof_C 	C 	0.6279	0.0924	0.3248	-0.238
Mof_C 	C 	0.6161	0.0355	0.3924	0.148
Mof_H 	H 	0.6395	0.0335	0.4382	-0.052
Mof_C 	C 	0.6741	0.1644	0.3265	0.517
Mof_N 	N 	0.0534	0.4735	0.0998	-0.148
Mof_N 	N 	0.9668	0.527	0.2339	-0.154
Mof_N 	N 	0.4562	0.052	0.0655	-0.143
Mof_N 	N 	0.0601	0.493	0.5609	-0.152
Mof_N 	N 	0.4541	0.9558	0.2706	-0.151
Mof_N 	N 	0.5726	0.9838	0.394	-0.155
Mof_O 	O 	0.2046	0.6793	0.1814	-0.583
Mof_O 	O 	0.188	0.6041	0.056	-0.586
Mof_O 	O 	0.8233	0.4201	0.2546	-0.64
Mof_O 	O 	0.8032	0.4372	0.1241	-0.681
Mof_O 	O 	0.3179	0.9389	0.1138	-0.607
Mof_O 	O 	0.3009	0.8576	0.9917	-0.612
Mof_O 	O 	0.1806	0.6883	0.4345	-0.58
Mof_O 	O 	0.2012	0.6328	0.559	-0.715
Mof_O 	O 	0.3071	0.9507	0.3013	-0.67
Mof_O 	O 	0.3271	0.874	0.4216	-0.641
Mof_O 	O 	0.7018	0.1747	0.3913	-0.726
Mof_O 	O 	0.6816	0.2139	0.2631	-0.549
Mof_O 	O 	0.2509	0.7249	0.3327	-0.722
Mof_H 	H 	0.2791	0.6719	0.3377	0.226
Mof_H 	H 	0.2219	0.6742	0.3228	0.222
_end
