data_functionalizedCrystal
_audit_creation_method	'EQeq! by Chris Wilmer'
_symmetry_space_group_name_H-M	'P1'
_symmetry_Int_Tables_number	1
_symmetry_cell_setting	triclinic
loop_
_symmetry_equiv_pos_as_xyz
  x,y,z
_cell_length_a	10.0393
_cell_length_b	13.9688
_cell_length_c	19.893
_cell_angle_alpha	90
_cell_angle_beta	102.369
_cell_angle_gamma	90
loop_
_atom_site_label
_atom_site_type_symbol
_atom_site_fract_x
_atom_site_fract_y
_atom_site_fract_z
_atom_site_charge
Mof_Ag	Ag	0.4225	0.6363	0.13982	0.342
Mof_Ag	Ag	0.5224	0.4577	0.0716	0.323
Mof_Ag	Ag	0.8922	0.47907	0.04622	0.393
Mof_Ag	Ag	0.608	0.84571	0.27445	0.451
Mof_S 	S 	0.7452	0.4769	0.1462	-0.352
Mof_S 	S 	0.2806	0.5098	0.0631	-0.398
Mof_N 	N 	0.648	0.6429	0.1913	-0.178
Mof_N 	N 	0.698	0.7168	0.2319	-0.131
Mof_N 	N 	0.831	0.7076	0.2528	-0.092
Mof_N 	N 	0.861	0.6226	0.227	-0.098
Mof_N 	N 	0.085	0.4271	0.1181	-0.175
Mof_N 	N 	0.075	0.3667	0.1703	-0.117
Mof_N 	N 	0.19	0.3403	0.2021	-0.087
Mof_N 	N 	0.28	0.3757	0.1683	-0.088
Mof_C 	C 	0.75	0.586	0.1887	0.124
Mof_C 	C 	2.16232e-33	0.591	0.2397	-0.23
Mof_H 	H 	0.0033	0.5226	0.2455	0.065
Mof_H 	H 	0.0509	0.6207	0.2807	0.081
Mof_H 	H 	0.0395	0.6079	0.2014	0.074
Mof_C 	C 	0.215	0.435	0.1182	0.12
Mof_C 	C 	0.425	0.359	0.1942	-0.276
Mof_H 	H 	0.4384	0.3287	0.2386	0.099
Mof_H 	H 	0.4729	0.4183	0.1981	0.073
Mof_H 	H 	0.4584	0.3173	0.163	0.078
Mof_Ag	Ag	0.0775	0.1363	0.36018	0.351
Mof_Ag	Ag	0.9776	0.9577	0.4284	0.302
Mof_Ag	Ag	0.6078	0.97907	0.45378	0.407
Mof_Ag	Ag	0.892	0.34571	0.22555	0.44
Mof_S 	S 	0.7548	0.9769	0.3538	-0.351
Mof_S 	S 	0.2194	0.0098	0.4369	-0.396
Mof_N 	N 	0.852	0.1429	0.3087	-0.181
Mof_N 	N 	0.802	0.2168	0.2681	-0.131
Mof_N 	N 	0.669	0.2076	0.2472	-0.089
Mof_N 	N 	0.639	0.1226	0.273	-0.093
Mof_N 	N 	0.415	0.9271	0.3819	-0.178
Mof_N 	N 	0.425	0.8667	0.3297	-0.12
Mof_N 	N 	0.31	0.8403	0.2979	-0.088
Mof_N 	N 	0.22	0.8757	0.3317	-0.086
Mof_C 	C 	0.75	0.086	0.3113	0.122
Mof_C 	C 	0.5	0.091	0.2603	-0.243
Mof_H 	H 	0.4967	0.0226	0.2545	0.064
Mof_H 	H 	0.4491	0.1207	0.2193	0.083
Mof_H 	H 	0.4605	0.1079	0.2986	0.074
Mof_C 	C 	0.285	0.935	0.3818	0.121
Mof_C 	C 	0.075	0.859	0.3058	-0.287
Mof_H 	H 	0.0616	0.8287	0.2614	0.105
Mof_H 	H 	0.0271	0.9183	0.3019	0.08
Mof_H 	H 	0.0416	0.8173	0.337	0.085
Mof_Ag	Ag	0.5775	0.3637	0.86018	0.339
Mof_Ag	Ag	0.4776	0.5423	0.9284	0.321
Mof_Ag	Ag	0.1078	0.52093	0.95378	0.418
Mof_Ag	Ag	0.392	0.15429	0.72555	0.454
Mof_S 	S 	0.2548	0.5231	0.8538	-0.354
Mof_S 	S 	0.7194	0.4902	0.9369	-0.397
Mof_N 	N 	0.352	0.3571	0.8087	-0.179
Mof_N 	N 	0.302	0.2832	0.7681	-0.131
Mof_N 	N 	0.169	0.2924	0.7472	-0.086
Mof_N 	N 	0.139	0.3774	0.773	-0.106
Mof_N 	N 	0.915	0.5729	0.8819	-0.181
Mof_N 	N 	0.925	0.6333	0.8297	-0.123
Mof_N 	N 	0.81	0.6597	0.7979	-0.089
Mof_N 	N 	0.72	0.6243	0.8317	-0.088
Mof_C 	C 	0.25	0.414	0.8113	0.13
Mof_C 	C 	6.85861e-33	0.409	0.7603	-0.135
Mof_H 	H 	0.9967	0.4774	0.7545	0.026
Mof_H 	H 	0.9491	0.3793	0.7193	0.046
Mof_H 	H 	0.9605	0.3921	0.7986	0.037
Mof_C 	C 	0.785	0.565	0.8818	0.12
Mof_C 	C 	0.575	0.641	0.8058	-0.276
Mof_H 	H 	0.5616	0.6713	0.7614	0.099
Mof_H 	H 	0.5271	0.5817	0.8019	0.073
Mof_H 	H 	0.5416	0.6827	0.837	0.078
Mof_Ag	Ag	0.9225	0.8637	0.63982	0.328
Mof_Ag	Ag	0.0224	0.0423	0.5716	0.339
Mof_Ag	Ag	0.3922	0.02093	0.54622	0.404
Mof_Ag	Ag	0.108	0.65429	0.77445	0.468
Mof_S 	S 	0.2452	0.0231	0.6462	-0.354
Mof_S 	S 	0.7806	0.9902	0.5631	-0.401
Mof_N 	N 	0.148	0.8571	0.6913	-0.175
Mof_N 	N 	0.198	0.7832	0.7319	-0.131
Mof_N 	N 	0.331	0.7924	0.7528	-0.089
Mof_N 	N 	0.361	0.8774	0.727	-0.093
Mof_N 	N 	0.585	0.0729	0.6181	-0.178
Mof_N 	N 	0.575	0.1333	0.6703	-0.121
Mof_N 	N 	0.69	0.1597	0.7021	-0.088
Mof_N 	N 	0.78	0.1243	0.6683	-0.09
Mof_C 	C 	0.25	0.914	0.6887	0.127
Mof_C 	C 	0.5	0.909	0.7397	-0.242
Mof_H 	H 	0.5033	0.9774	0.7455	0.065
Mof_H 	H 	0.5509	0.8793	0.7807	0.082
Mof_H 	H 	0.5395	0.8921	0.7014	0.075
Mof_C 	C 	0.715	0.065	0.6182	0.119
Mof_C 	C 	0.925	0.141	0.6942	-0.268
Mof_H 	H 	0.9384	0.1713	0.7386	0.095
Mof_H 	H 	0.9729	0.0817	0.6981	0.067
Mof_H 	H 	0.9584	0.1827	0.663	0.073
_end
