data_functionalizedCrystal
_audit_creation_method	'EQeq! by Chris Wilmer'
_symmetry_space_group_name_H-M	'P1'
_symmetry_Int_Tables_number	1
_symmetry_cell_setting	triclinic
loop_
_symmetry_equiv_pos_as_xyz
  x,y,z
_cell_length_a	17.227
_cell_length_b	23.5944
_cell_length_c	23.7271
_cell_angle_alpha	90
_cell_angle_beta	90
_cell_angle_gamma	90
loop_
_atom_site_label
_atom_site_type_symbol
_atom_site_fract_x
_atom_site_fract_y
_atom_site_fract_z
_atom_site_charge
Mof_Zn	Zn	0.50037	0.32867	0.61003	1.252
Mof_C 	C 	0.6588	0.3333	0.5911	0.395
Mof_C 	C 	0.7294	0.3553	0.5614	-0.123
Mof_C 	C 	0.8004	0.3586	0.5896	0.039
Mof_H 	H 	0.804	0.3462	0.6271	0.029
Mof_C 	C 	0.8648	0.3799	0.5632	-0.103
Mof_H 	H 	0.9115	0.3826	0.5835	0.066
Mof_C 	C 	0.8635	0.3974	0.5083	0.016
Mof_C 	C 	0.7922	0.3951	0.4803	-0.104
Mof_H 	H 	0.789	0.4071	0.4426	0.062
Mof_C 	C 	0.7254	0.3751	0.5075	0.036
Mof_H 	H 	0.6776	0.3753	0.4885	0.038
Mof_C 	C 	0.9342	0.4189	0.4789	0.088
Mof_C 	C 	0.0074	0.4008	0.4968	-0.194
Mof_H 	H 	0.0113	0.3741	0.526	0.098
Mof_C 	C 	0.075	0.4219	0.4716	0.203
Mof_C 	C 	0.0681	0.4587	0.4261	-0.2
Mof_H 	H 	0.1131	0.4712	0.4075	0.102
Mof_C 	C 	0.9952	0.4776	0.4075	0.092
Mof_C 	C 	0.9296	0.4571	0.4348	-0.152
Mof_H 	H 	0.8805	0.4695	0.4229	0.075
Mof_C 	C 	0.9888	0.5187	0.361	0.014
Mof_C 	C 	0.9339	0.561	0.3623	-0.09
Mof_H 	H 	0.8997	0.5628	0.3931	0.055
Mof_C 	C 	0.9272	0.6013	0.32	0.023
Mof_H 	H 	0.8899	0.6303	0.3225	0.03
Mof_C 	C 	0.9769	0.5979	0.2734	-0.108
Mof_C 	C 	0.0309	0.5547	0.2714	0.035
Mof_H 	H 	0.0633	0.5512	0.2397	0.036
Mof_C 	C 	0.038	0.5168	0.3146	-0.091
Mof_H 	H 	0.0769	0.489	0.313	0.064
Mof_C 	C 	0.9686	0.6416	0.2269	0.378
Mof_C 	C 	0.1564	0.4141	0.4936	-0.087
Mof_C 	C 	0.2165	0.453	0.4915	0.135
Mof_H 	H 	0.2075	0.4885	0.4747	0.395
Mof_C 	C 	0.2895	0.4414	0.5132	0.191
Mof_H 	H 	0.3286	0.4691	0.5122	-0.106
Mof_C 	C 	0.3045	0.3889	0.5363	-0.206
Mof_C 	C 	0.2471	0.3486	0.5333	-0.362
Mof_H 	H 	0.2581	0.3118	0.546	0.161
Mof_C 	C 	0.173	0.3601	0.5123	0.111
Mof_H 	H 	0.1352	0.3314	0.5108	-0.189
Mof_C 	C 	0.3853	0.3759	0.5594	-0.098
Mof_O 	O 	0.6672	0.3109	0.63782	-0.476
Mof_O 	O 	0.5946	0.3394	0.56577	-0.463
Mof_O 	O 	0.9333	0.6864	0.23765	-0.464
Mof_O 	O 	0.0001	0.6273	0.18013	-0.456
Mof_O 	O 	0.4326	0.4141	0.5661	-0.124
Mof_O 	O 	0.398	0.3251	0.572	-0.578
Mof_C 	C 	0.1482	0.3948	0.4936	-0.228
Mof_C 	C 	0.2122	0.43	0.493	0.408
Mof_H 	H 	0.2075	0.4657	0.4759	-0.578
Mof_C 	C 	0.2829	0.4153	0.5165	-0.432
Mof_H 	H 	0.3261	0.4392	0.512	0.179
Mof_C 	C 	0.29	0.3655	0.5463	0.431
Mof_C 	C 	0.2249	0.3319	0.5501	-0.123
Mof_H 	H 	0.2283	0.2977	0.5704	0.014
Mof_C 	C 	0.1546	0.346	0.5252	0.267
Mof_H 	H 	0.1113	0.3223	0.5299	0.05
Mof_C 	C 	0.3604	0.3483	0.5775	0.704
Mof_O 	O 	0.4245	0.369	0.5609	-0.156
Mof_O 	O 	0.3566	0.3171	0.6194	-0.314
Mof_Zn	Zn	0.99963	0.67133	0.11003	1.252
Mof_C 	C 	0.8412	0.6667	0.0911	0.393
Mof_C 	C 	0.7706	0.6447	0.0614	-0.115
Mof_C 	C 	0.6996	0.6414	0.0896	0.03
Mof_H 	H 	0.696	0.6538	0.1271	0.031
Mof_C 	C 	0.6352	0.6201	0.0632	-0.094
Mof_H 	H 	0.5885	0.6174	0.0835	0.063
Mof_C 	C 	0.6365	0.6026	0.0083	0.005
Mof_C 	C 	0.7078	0.6049	0.9803	-0.09
Mof_H 	H 	0.711	0.5929	0.9426	0.058
Mof_C 	C 	0.7746	0.6249	0.0075	0.019
Mof_H 	H 	0.8224	0.6247	0.9885	0.046
Mof_C 	C 	0.5658	0.5811	0.9789	0.095
Mof_C 	C 	0.4926	0.5992	0.9968	-0.201
Mof_H 	H 	0.4887	0.6259	0.026	0.1
Mof_C 	C 	0.425	0.5781	0.9716	0.209
Mof_C 	C 	0.4319	0.5413	0.9261	-0.205
Mof_H 	H 	0.3869	0.5288	0.9075	0.103
Mof_C 	C 	0.5048	0.5224	0.9075	0.096
Mof_C 	C 	0.5704	0.5429	0.9348	-0.157
Mof_H 	H 	0.6195	0.5305	0.9229	0.077
Mof_C 	C 	0.5112	0.4813	0.861	0.013
Mof_C 	C 	0.5661	0.439	0.8623	-0.088
Mof_H 	H 	0.6003	0.4372	0.8931	0.054
Mof_C 	C 	0.5728	0.3987	0.82	0.022
Mof_H 	H 	0.6101	0.3697	0.8225	0.03
Mof_C 	C 	0.5231	0.4021	0.7734	-0.106
Mof_C 	C 	0.4691	0.4453	0.7714	0.031
Mof_H 	H 	0.4367	0.4488	0.7397	0.036
Mof_C 	C 	0.462	0.4832	0.8146	-0.091
Mof_H 	H 	0.4231	0.511	0.813	0.063
Mof_C 	C 	0.5314	0.3584	0.7269	0.381
Mof_C 	C 	0.3436	0.5859	0.9936	-0.092
Mof_C 	C 	0.2835	0.547	0.9915	0.135
Mof_H 	H 	0.2925	0.5115	0.9747	0.401
Mof_C 	C 	0.2105	0.5586	0.0132	0.185
Mof_H 	H 	0.1714	0.5309	0.0122	-0.105
Mof_C 	C 	0.1955	0.6111	0.0363	-0.202
Mof_C 	C 	0.2529	0.6514	0.0333	-0.366
Mof_H 	H 	0.2419	0.6882	0.046	0.164
Mof_C 	C 	0.327	0.6399	0.0123	0.116
Mof_H 	H 	0.3648	0.6686	0.0108	-0.195
Mof_C 	C 	0.1147	0.6241	0.0594	-0.098
Mof_O 	O 	0.8328	0.6891	0.13782	-0.475
Mof_O 	O 	0.9054	0.6606	0.06577	-0.464
Mof_O 	O 	0.5667	0.3136	0.73765	-0.464
Mof_O 	O 	0.4999	0.3727	0.68013	-0.46
Mof_O 	O 	0.0674	0.5859	0.0661	-0.123
Mof_O 	O 	0.102	0.6749	0.072	-0.576
Mof_C 	C 	0.3518	0.6052	0.9936	-0.234
Mof_C 	C 	0.2878	0.57	0.993	0.419
Mof_H 	H 	0.2925	0.5343	0.9759	-0.588
Mof_C 	C 	0.2171	0.5847	0.0165	-0.436
Mof_H 	H 	0.1739	0.5608	0.012	0.184
Mof_C 	C 	0.21	0.6345	0.0463	0.432
Mof_C 	C 	0.2751	0.6681	0.0501	-0.125
Mof_H 	H 	0.2717	0.7023	0.0704	0.014
Mof_C 	C 	0.3454	0.654	0.0252	0.272
Mof_H 	H 	0.3887	0.6777	0.0299	0.051
Mof_C 	C 	0.1396	0.6517	0.0775	0.7
Mof_O 	O 	0.0755	0.631	0.0609	-0.155
Mof_O 	O 	0.1434	0.6829	0.1194	-0.313
Mof_Zn	Zn	0.50037	0.17133	0.61003	1.253
Mof_C 	C 	0.6588	0.1667	0.5911	0.396
Mof_C 	C 	0.7294	0.1447	0.5614	-0.122
Mof_C 	C 	0.8004	0.1414	0.5896	0.038
Mof_H 	H 	0.804	0.1538	0.6271	0.029
Mof_C 	C 	0.8648	0.1201	0.5632	-0.101
Mof_H 	H 	0.9115	0.1174	0.5835	0.066
Mof_C 	C 	0.8635	0.1026	0.5083	0.014
Mof_C 	C 	0.7922	0.1049	0.4803	-0.102
Mof_H 	H 	0.789	0.0929	0.4426	0.062
Mof_C 	C 	0.7254	0.1249	0.5075	0.034
Mof_H 	H 	0.6776	0.1247	0.4885	0.039
Mof_C 	C 	0.9342	0.0811	0.4789	0.094
Mof_C 	C 	0.0074	0.0992	0.4968	-0.2
Mof_H 	H 	0.0113	0.1259	0.526	0.099
Mof_C 	C 	0.075	0.0781	0.4716	0.206
Mof_C 	C 	0.0681	0.0413	0.4261	-0.209
Mof_H 	H 	0.1131	0.0288	0.4075	0.104
Mof_C 	C 	0.9952	0.0224	0.4075	0.104
Mof_C 	C 	0.9296	0.0429	0.4348	-0.159
Mof_H 	H 	0.8805	0.0305	0.4229	0.078
Mof_C 	C 	0.9888	0.9813	0.361	0.001
Mof_C 	C 	0.9339	0.939	0.3623	-0.081
Mof_H 	H 	0.8997	0.9372	0.3931	0.051
Mof_C 	C 	0.9272	0.8987	0.32	0.017
Mof_H 	H 	0.8899	0.8697	0.3225	0.032
Mof_C 	C 	0.9769	0.9021	0.2734	-0.105
Mof_C 	C 	0.0309	0.9453	0.2714	0.028
Mof_H 	H 	0.0633	0.9488	0.2397	0.039
Mof_C 	C 	0.038	0.9832	0.3146	-0.076
Mof_H 	H 	0.0769	0.011	0.313	0.057
Mof_C 	C 	0.9686	0.8584	0.2269	0.375
Mof_C 	C 	0.1564	0.0859	0.4936	-0.086
Mof_C 	C 	0.2165	0.047	0.4915	0.136
Mof_H 	H 	0.2075	0.0115	0.4747	0.39
Mof_C 	C 	0.2895	0.0586	0.5132	0.194
Mof_H 	H 	0.3286	0.0309	0.5122	-0.105
Mof_C 	C 	0.3045	0.1111	0.5363	-0.206
Mof_C 	C 	0.2471	0.1514	0.5333	-0.362
Mof_H 	H 	0.2581	0.1882	0.546	0.16
Mof_C 	C 	0.173	0.1399	0.5123	0.108
Mof_H 	H 	0.1352	0.1686	0.5108	-0.188
Mof_C 	C 	0.3853	0.1241	0.5594	-0.097
Mof_O 	O 	0.6672	0.1891	0.63782	-0.476
Mof_O 	O 	0.5946	0.1606	0.56577	-0.462
Mof_O 	O 	0.9333	0.8136	0.23765	-0.463
Mof_O 	O 	0.0001	0.8727	0.18013	-0.454
Mof_O 	O 	0.4326	0.0859	0.5661	-0.124
Mof_O 	O 	0.398	0.1749	0.572	-0.578
Mof_C 	C 	0.1482	0.1052	0.4936	-0.226
Mof_C 	C 	0.2122	0.07	0.493	0.401
Mof_H 	H 	0.2075	0.0343	0.4759	-0.572
Mof_C 	C 	0.2829	0.0847	0.5165	-0.43
Mof_H 	H 	0.3261	0.0608	0.512	0.177
Mof_C 	C 	0.29	0.1345	0.5463	0.428
Mof_C 	C 	0.2249	0.1681	0.5501	-0.119
Mof_H 	H 	0.2283	0.2023	0.5704	0.013
Mof_C 	C 	0.1546	0.154	0.5252	0.267
Mof_H 	H 	0.1113	0.1777	0.5299	0.049
Mof_C 	C 	0.3604	0.1517	0.5775	0.704
Mof_O 	O 	0.4245	0.131	0.5609	-0.156
Mof_O 	O 	0.3566	0.1829	0.6194	-0.314
Mof_Zn	Zn	0.99963	0.82867	0.11003	1.252
Mof_C 	C 	0.8412	0.8333	0.0911	0.394
Mof_C 	C 	0.7706	0.8553	0.0614	-0.116
Mof_C 	C 	0.6996	0.8586	0.0896	0.031
Mof_H 	H 	0.696	0.8462	0.1271	0.031
Mof_C 	C 	0.6352	0.8799	0.0632	-0.095
Mof_H 	H 	0.5885	0.8826	0.0835	0.063
Mof_C 	C 	0.6365	0.8974	0.0083	0.007
Mof_C 	C 	0.7078	0.8951	0.9803	-0.092
Mof_H 	H 	0.711	0.9071	0.9426	0.058
Mof_C 	C 	0.7746	0.8751	0.0075	0.021
Mof_H 	H 	0.8224	0.8753	0.9885	0.045
Mof_C 	C 	0.5658	0.9189	0.9789	0.094
Mof_C 	C 	0.4926	0.9008	0.9968	-0.2
Mof_H 	H 	0.4887	0.8741	0.026	0.1
Mof_C 	C 	0.425	0.9219	0.9716	0.208
Mof_C 	C 	0.4319	0.9587	0.9261	-0.205
Mof_H 	H 	0.3869	0.9712	0.9075	0.103
Mof_C 	C 	0.5048	0.9776	0.9075	0.095
Mof_C 	C 	0.5704	0.9571	0.9348	-0.156
Mof_H 	H 	0.6195	0.9695	0.9229	0.076
Mof_C 	C 	0.5112	0.0187	0.861	0.014
Mof_C 	C 	0.5661	0.061	0.8623	-0.089
Mof_H 	H 	0.6003	0.0628	0.8931	0.055
Mof_C 	C 	0.5728	0.1013	0.82	0.023
Mof_H 	H 	0.6101	0.1303	0.8225	0.03
Mof_C 	C 	0.5231	0.0979	0.7734	-0.106
Mof_C 	C 	0.4691	0.0547	0.7714	0.032
Mof_H 	H 	0.4367	0.0512	0.7397	0.036
Mof_C 	C 	0.462	0.0168	0.8146	-0.091
Mof_H 	H 	0.4231	0.989	0.813	0.064
Mof_C 	C 	0.5314	0.1416	0.7269	0.381
Mof_C 	C 	0.3436	0.9141	0.9936	-0.092
Mof_C 	C 	0.2835	0.953	0.9915	0.135
Mof_H 	H 	0.2925	0.9885	0.9747	0.402
Mof_C 	C 	0.2105	0.9414	0.0132	0.185
Mof_H 	H 	0.1714	0.9691	0.0122	-0.105
Mof_C 	C 	0.1955	0.8889	0.0363	-0.201
Mof_C 	C 	0.2529	0.8486	0.0333	-0.366
Mof_H 	H 	0.2419	0.8118	0.046	0.164
Mof_C 	C 	0.327	0.8601	0.0123	0.116
Mof_H 	H 	0.3648	0.8314	0.0108	-0.195
Mof_C 	C 	0.1147	0.8759	0.0594	-0.098
Mof_O 	O 	0.8328	0.8109	0.13782	-0.476
Mof_O 	O 	0.9054	0.8394	0.06577	-0.464
Mof_O 	O 	0.5667	0.1864	0.73765	-0.464
Mof_O 	O 	0.4999	0.1273	0.68013	-0.46
Mof_O 	O 	0.0674	0.9141	0.0661	-0.123
Mof_O 	O 	0.102	0.8251	0.072	-0.575
Mof_C 	C 	0.3518	0.8948	0.9936	-0.234
Mof_C 	C 	0.2878	0.93	0.993	0.42
Mof_H 	H 	0.2925	0.9657	0.9759	-0.589
Mof_C 	C 	0.2171	0.9153	0.0165	-0.435
Mof_H 	H 	0.1739	0.9392	0.012	0.184
Mof_C 	C 	0.21	0.8655	0.0463	0.432
Mof_C 	C 	0.2751	0.8319	0.0501	-0.125
Mof_H 	H 	0.2717	0.7977	0.0704	0.014
Mof_C 	C 	0.3454	0.846	0.0252	0.272
Mof_H 	H 	0.3887	0.8223	0.0299	0.051
Mof_C 	C 	0.1396	0.8483	0.0775	0.699
Mof_O 	O 	0.0755	0.869	0.0609	-0.155
Mof_O 	O 	0.1434	0.8171	0.1194	-0.313
Mof_Zn	Zn	0.88824	0.75	0.18756	1.218
Mof_Zn	Zn	0.61176	0.25	0.68756	1.218
Mof_O 	O 	0.507	0.25	0.6399	-0.84
Mof_H 	H 	0.4728	0.25	0.6652	0.289
Mof_O 	O 	0.993	0.75	0.1399	-0.846
Mof_H 	H 	0.0272	0.75	0.1652	0.294
Mof_Zn	Zn	0.49963	0.82867	0.38997	1.253
Mof_C 	C 	0.3412	0.8333	0.4089	0.396
Mof_C 	C 	0.2706	0.8553	0.4386	-0.122
Mof_C 	C 	0.1996	0.8586	0.4104	0.038
Mof_H 	H 	0.196	0.8462	0.3729	0.029
Mof_C 	C 	0.1352	0.8799	0.4368	-0.101
Mof_H 	H 	0.0885	0.8826	0.4165	0.066
Mof_C 	C 	0.1365	0.8974	0.4917	0.014
Mof_C 	C 	0.2078	0.8951	0.5197	-0.102
Mof_H 	H 	0.211	0.9071	0.5574	0.062
Mof_C 	C 	0.2746	0.8751	0.4925	0.034
Mof_H 	H 	0.3224	0.8753	0.5115	0.039
Mof_C 	C 	0.0658	0.9189	0.5211	0.094
Mof_C 	C 	0.9926	0.9008	0.5032	-0.2
Mof_H 	H 	0.9887	0.8741	0.474	0.099
Mof_C 	C 	0.925	0.9219	0.5284	0.206
Mof_C 	C 	0.9319	0.9587	0.5739	-0.209
Mof_H 	H 	0.8869	0.9712	0.5925	0.104
Mof_C 	C 	0.0048	0.9776	0.5925	0.104
Mof_C 	C 	0.0704	0.9571	0.5652	-0.159
Mof_H 	H 	0.1195	0.9695	0.5771	0.078
Mof_C 	C 	0.0112	0.0187	0.639	0.001
Mof_C 	C 	0.0661	0.061	0.6377	-0.081
Mof_H 	H 	0.1003	0.0628	0.6069	0.051
Mof_C 	C 	0.0728	0.1013	0.68	0.017
Mof_H 	H 	0.1101	0.1303	0.6775	0.032
Mof_C 	C 	0.0231	0.0979	0.7266	-0.105
Mof_C 	C 	0.9691	0.0547	0.7286	0.028
Mof_H 	H 	0.9367	0.0512	0.7603	0.039
Mof_C 	C 	0.962	0.0168	0.6854	-0.076
Mof_H 	H 	0.9231	0.989	0.687	0.057
Mof_C 	C 	0.0314	0.1416	0.7731	0.375
Mof_C 	C 	0.8436	0.9141	0.5064	-0.086
Mof_C 	C 	0.7835	0.953	0.5085	0.136
Mof_H 	H 	0.7925	0.9885	0.5253	0.39
Mof_C 	C 	0.7105	0.9414	0.4868	0.194
Mof_H 	H 	0.6714	0.9691	0.4878	-0.105
Mof_C 	C 	0.6955	0.8889	0.4637	-0.206
Mof_C 	C 	0.7529	0.8486	0.4667	-0.362
Mof_H 	H 	0.7419	0.8118	0.454	0.16
Mof_C 	C 	0.827	0.8601	0.4877	0.108
Mof_H 	H 	0.8648	0.8314	0.4892	-0.188
Mof_C 	C 	0.6147	0.8759	0.4406	-0.097
Mof_O 	O 	0.3328	0.8109	0.36218	-0.476
Mof_O 	O 	0.4054	0.8394	0.43423	-0.462
Mof_O 	O 	0.0667	0.1864	0.76235	-0.463
Mof_O 	O 	0.9999	0.1273	0.81987	-0.454
Mof_O 	O 	0.5674	0.9141	0.4339	-0.124
Mof_O 	O 	0.602	0.8251	0.428	-0.578
Mof_C 	C 	0.8518	0.8948	0.5064	-0.226
Mof_C 	C 	0.7878	0.93	0.507	0.401
Mof_H 	H 	0.7925	0.9657	0.5241	-0.572
Mof_C 	C 	0.7171	0.9153	0.4835	-0.43
Mof_H 	H 	0.6739	0.9392	0.488	0.177
Mof_C 	C 	0.71	0.8655	0.4537	0.428
Mof_C 	C 	0.7751	0.8319	0.4499	-0.119
Mof_H 	H 	0.7717	0.7977	0.4296	0.013
Mof_C 	C 	0.8454	0.846	0.4748	0.267
Mof_H 	H 	0.8887	0.8223	0.4701	0.049
Mof_C 	C 	0.6396	0.8483	0.4225	0.704
Mof_O 	O 	0.5755	0.869	0.4391	-0.156
Mof_O 	O 	0.6434	0.8171	0.3806	-0.314
Mof_Zn	Zn	0.00037	0.17133	0.88997	1.252
Mof_C 	C 	0.1588	0.1667	0.9089	0.394
Mof_C 	C 	0.2294	0.1447	0.9386	-0.116
Mof_C 	C 	0.3004	0.1414	0.9104	0.031
Mof_H 	H 	0.304	0.1538	0.8729	0.031
Mof_C 	C 	0.3648	0.1201	0.9368	-0.095
Mof_H 	H 	0.4115	0.1174	0.9165	0.063
Mof_C 	C 	0.3635	0.1026	0.9917	0.007
Mof_C 	C 	0.2922	0.1049	0.0197	-0.092
Mof_H 	H 	0.289	0.0929	0.0574	0.058
Mof_C 	C 	0.2254	0.1249	0.9925	0.021
Mof_H 	H 	0.1776	0.1247	0.0115	0.045
Mof_C 	C 	0.4342	0.0811	0.0211	0.094
Mof_C 	C 	0.5074	0.0992	0.0032	-0.2
Mof_H 	H 	0.5113	0.1259	0.974	0.1
Mof_C 	C 	0.575	0.0781	0.0284	0.208
Mof_C 	C 	0.5681	0.0413	0.0739	-0.205
Mof_H 	H 	0.6131	0.0288	0.0925	0.103
Mof_C 	C 	0.4952	0.0224	0.0925	0.095
Mof_C 	C 	0.4296	0.0429	0.0652	-0.156
Mof_H 	H 	0.3805	0.0305	0.0771	0.076
Mof_C 	C 	0.4888	0.9813	0.139	0.014
Mof_C 	C 	0.4339	0.939	0.1377	-0.089
Mof_H 	H 	0.3997	0.9372	0.1069	0.055
Mof_C 	C 	0.4272	0.8987	0.18	0.023
Mof_H 	H 	0.3899	0.8697	0.1775	0.03
Mof_C 	C 	0.4769	0.9021	0.2266	-0.106
Mof_C 	C 	0.5309	0.9453	0.2286	0.032
Mof_H 	H 	0.5633	0.9488	0.2603	0.036
Mof_C 	C 	0.538	0.9832	0.1854	-0.091
Mof_H 	H 	0.5769	0.011	0.187	0.064
Mof_C 	C 	0.4686	0.8584	0.2731	0.381
Mof_C 	C 	0.6564	0.0859	0.0064	-0.092
Mof_C 	C 	0.7165	0.047	0.0085	0.135
Mof_H 	H 	0.7075	0.0115	0.0253	0.402
Mof_C 	C 	0.7895	0.0586	0.9868	0.185
Mof_H 	H 	0.8286	0.0309	0.9878	-0.105
Mof_C 	C 	0.8045	0.1111	0.9637	-0.201
Mof_C 	C 	0.7471	0.1514	0.9667	-0.366
Mof_H 	H 	0.7581	0.1882	0.954	0.164
Mof_C 	C 	0.673	0.1399	0.9877	0.116
Mof_H 	H 	0.6352	0.1686	0.9892	-0.195
Mof_C 	C 	0.8853	0.1241	0.9406	-0.098
Mof_O 	O 	0.1672	0.1891	0.86218	-0.476
Mof_O 	O 	0.0946	0.1606	0.93423	-0.464
Mof_O 	O 	0.4333	0.8136	0.26235	-0.464
Mof_O 	O 	0.5001	0.8727	0.31987	-0.46
Mof_O 	O 	0.9326	0.0859	0.9339	-0.123
Mof_O 	O 	0.898	0.1749	0.928	-0.575
Mof_C 	C 	0.6482	0.1052	0.0064	-0.234
Mof_C 	C 	0.7122	0.07	0.007	0.42
Mof_H 	H 	0.7075	0.0343	0.0241	-0.589
Mof_C 	C 	0.7829	0.0847	0.9835	-0.435
Mof_H 	H 	0.8261	0.0608	0.988	0.184
Mof_C 	C 	0.79	0.1345	0.9537	0.432
Mof_C 	C 	0.7249	0.1681	0.9499	-0.125
Mof_H 	H 	0.7283	0.2023	0.9296	0.014
Mof_C 	C 	0.6546	0.154	0.9748	0.272
Mof_H 	H 	0.6113	0.1777	0.9701	0.051
Mof_C 	C 	0.8604	0.1517	0.9225	0.699
Mof_O 	O 	0.9245	0.131	0.9391	-0.155
Mof_O 	O 	0.8566	0.1829	0.8806	-0.313
Mof_Zn	Zn	0.49963	0.67133	0.38997	1.253
Mof_C 	C 	0.3412	0.6667	0.4089	0.396
Mof_C 	C 	0.2706	0.6447	0.4386	-0.123
Mof_C 	C 	0.1996	0.6414	0.4104	0.039
Mof_H 	H 	0.196	0.6538	0.3729	0.029
Mof_C 	C 	0.1352	0.6201	0.4368	-0.103
Mof_H 	H 	0.0885	0.6174	0.4165	0.066
Mof_C 	C 	0.1365	0.6026	0.4917	0.016
Mof_C 	C 	0.2078	0.6049	0.5197	-0.104
Mof_H 	H 	0.211	0.5929	0.5574	0.062
Mof_C 	C 	0.2746	0.6249	0.4925	0.036
Mof_H 	H 	0.3224	0.6247	0.5115	0.038
Mof_C 	C 	0.0658	0.5811	0.5211	0.088
Mof_C 	C 	0.9926	0.5992	0.5032	-0.194
Mof_H 	H 	0.9887	0.6259	0.474	0.098
Mof_C 	C 	0.925	0.5781	0.5284	0.203
Mof_C 	C 	0.9319	0.5413	0.5739	-0.2
Mof_H 	H 	0.8869	0.5288	0.5925	0.102
Mof_C 	C 	0.0048	0.5224	0.5925	0.092
Mof_C 	C 	0.0704	0.5429	0.5652	-0.152
Mof_H 	H 	0.1195	0.5305	0.5771	0.075
Mof_C 	C 	0.0112	0.4813	0.639	0.014
Mof_C 	C 	0.0661	0.439	0.6377	-0.09
Mof_H 	H 	0.1003	0.4372	0.6069	0.055
Mof_C 	C 	0.0728	0.3987	0.68	0.023
Mof_H 	H 	0.1101	0.3697	0.6775	0.03
Mof_C 	C 	0.0231	0.4021	0.7266	-0.108
Mof_C 	C 	0.9691	0.4453	0.7286	0.035
Mof_H 	H 	0.9367	0.4488	0.7603	0.036
Mof_C 	C 	0.962	0.4832	0.6854	-0.091
Mof_H 	H 	0.9231	0.511	0.687	0.064
Mof_C 	C 	0.0314	0.3584	0.7731	0.378
Mof_C 	C 	0.8436	0.5859	0.5064	-0.087
Mof_C 	C 	0.7835	0.547	0.5085	0.135
Mof_H 	H 	0.7925	0.5115	0.5253	0.395
Mof_C 	C 	0.7105	0.5586	0.4868	0.191
Mof_H 	H 	0.6714	0.5309	0.4878	-0.106
Mof_C 	C 	0.6955	0.6111	0.4637	-0.206
Mof_C 	C 	0.7529	0.6514	0.4667	-0.362
Mof_H 	H 	0.7419	0.6882	0.454	0.161
Mof_C 	C 	0.827	0.6399	0.4877	0.111
Mof_H 	H 	0.8648	0.6686	0.4892	-0.189
Mof_C 	C 	0.6147	0.6241	0.4406	-0.098
Mof_O 	O 	0.3328	0.6891	0.36218	-0.476
Mof_O 	O 	0.4054	0.6606	0.43423	-0.463
Mof_O 	O 	0.0667	0.3136	0.76235	-0.464
Mof_O 	O 	0.9999	0.3727	0.81987	-0.456
Mof_O 	O 	0.5674	0.5859	0.4339	-0.124
Mof_O 	O 	0.602	0.6749	0.428	-0.578
Mof_C 	C 	0.8518	0.6052	0.5064	-0.228
Mof_C 	C 	0.7878	0.57	0.507	0.408
Mof_H 	H 	0.7925	0.5343	0.5241	-0.578
Mof_C 	C 	0.7171	0.5847	0.4835	-0.432
Mof_H 	H 	0.6739	0.5608	0.488	0.179
Mof_C 	C 	0.71	0.6345	0.4537	0.431
Mof_C 	C 	0.7751	0.6681	0.4499	-0.123
Mof_H 	H 	0.7717	0.7023	0.4296	0.014
Mof_C 	C 	0.8454	0.654	0.4748	0.267
Mof_H 	H 	0.8887	0.6777	0.4701	0.05
Mof_C 	C 	0.6396	0.6517	0.4225	0.704
Mof_O 	O 	0.5755	0.631	0.4391	-0.156
Mof_O 	O 	0.6434	0.6829	0.3806	-0.314
Mof_Zn	Zn	0.00037	0.32867	0.88997	1.252
Mof_C 	C 	0.1588	0.3333	0.9089	0.393
Mof_C 	C 	0.2294	0.3553	0.9386	-0.115
Mof_C 	C 	0.3004	0.3586	0.9104	0.03
Mof_H 	H 	0.304	0.3462	0.8729	0.031
Mof_C 	C 	0.3648	0.3799	0.9368	-0.094
Mof_H 	H 	0.4115	0.3826	0.9165	0.063
Mof_C 	C 	0.3635	0.3974	0.9917	0.005
Mof_C 	C 	0.2922	0.3951	0.0197	-0.09
Mof_H 	H 	0.289	0.4071	0.0574	0.058
Mof_C 	C 	0.2254	0.3751	0.9925	0.019
Mof_H 	H 	0.1776	0.3753	0.0115	0.046
Mof_C 	C 	0.4342	0.4189	0.0211	0.095
Mof_C 	C 	0.5074	0.4008	0.0032	-0.201
Mof_H 	H 	0.5113	0.3741	0.974	0.1
Mof_C 	C 	0.575	0.4219	0.0284	0.209
Mof_C 	C 	0.5681	0.4587	0.0739	-0.205
Mof_H 	H 	0.6131	0.4712	0.0925	0.103
Mof_C 	C 	0.4952	0.4776	0.0925	0.096
Mof_C 	C 	0.4296	0.4571	0.0652	-0.157
Mof_H 	H 	0.3805	0.4695	0.0771	0.077
Mof_C 	C 	0.4888	0.5187	0.139	0.013
Mof_C 	C 	0.4339	0.561	0.1377	-0.088
Mof_H 	H 	0.3997	0.5628	0.1069	0.054
Mof_C 	C 	0.4272	0.6013	0.18	0.022
Mof_H 	H 	0.3899	0.6303	0.1775	0.03
Mof_C 	C 	0.4769	0.5979	0.2266	-0.106
Mof_C 	C 	0.5309	0.5547	0.2286	0.031
Mof_H 	H 	0.5633	0.5512	0.2603	0.036
Mof_C 	C 	0.538	0.5168	0.1854	-0.091
Mof_H 	H 	0.5769	0.489	0.187	0.063
Mof_C 	C 	0.4686	0.6416	0.2731	0.381
Mof_C 	C 	0.6564	0.4141	0.0064	-0.092
Mof_C 	C 	0.7165	0.453	0.0085	0.135
Mof_H 	H 	0.7075	0.4885	0.0253	0.401
Mof_C 	C 	0.7895	0.4414	0.9868	0.185
Mof_H 	H 	0.8286	0.4691	0.9878	-0.105
Mof_C 	C 	0.8045	0.3889	0.9637	-0.202
Mof_C 	C 	0.7471	0.3486	0.9667	-0.366
Mof_H 	H 	0.7581	0.3118	0.954	0.164
Mof_C 	C 	0.673	0.3601	0.9877	0.116
Mof_H 	H 	0.6352	0.3314	0.9892	-0.195
Mof_C 	C 	0.8853	0.3759	0.9406	-0.098
Mof_O 	O 	0.1672	0.3109	0.86218	-0.475
Mof_O 	O 	0.0946	0.3394	0.93423	-0.464
Mof_O 	O 	0.4333	0.6864	0.26235	-0.464
Mof_O 	O 	0.5001	0.6273	0.31987	-0.46
Mof_O 	O 	0.9326	0.4141	0.9339	-0.123
Mof_O 	O 	0.898	0.3251	0.928	-0.576
Mof_C 	C 	0.6482	0.3948	0.0064	-0.234
Mof_C 	C 	0.7122	0.43	0.007	0.419
Mof_H 	H 	0.7075	0.4657	0.0241	-0.588
Mof_C 	C 	0.7829	0.4153	0.9835	-0.436
Mof_H 	H 	0.8261	0.4392	0.988	0.184
Mof_C 	C 	0.79	0.3655	0.9537	0.432
Mof_C 	C 	0.7249	0.3319	0.9499	-0.125
Mof_H 	H 	0.7283	0.2977	0.9296	0.014
Mof_C 	C 	0.6546	0.346	0.9748	0.272
Mof_H 	H 	0.6113	0.3223	0.9701	0.051
Mof_C 	C 	0.8604	0.3483	0.9225	0.7
Mof_O 	O 	0.9245	0.369	0.9391	-0.155
Mof_O 	O 	0.8566	0.3171	0.8806	-0.313
Mof_Zn	Zn	0.11176	0.25	0.81244	1.218
Mof_Zn	Zn	0.38824	0.75	0.31244	1.218
Mof_O 	O 	0.493	0.75	0.3601	-0.84
Mof_H 	H 	0.5272	0.75	0.3348	0.289
Mof_O 	O 	0.007	0.25	0.8601	-0.846
Mof_H 	H 	0.9728	0.25	0.8348	0.294
_end
