data_functionalizedCrystal
_audit_creation_method	'EQeq! by Chris Wilmer'
_symmetry_space_group_name_H-M	'P1'
_symmetry_Int_Tables_number	1
_symmetry_cell_setting	triclinic
loop_
_symmetry_equiv_pos_as_xyz
  x,y,z
_cell_length_a	6.5581
_cell_length_b	16.425
_cell_length_c	13.1592
_cell_angle_alpha	90
_cell_angle_beta	90
_cell_angle_gamma	90.5028
loop_
_atom_site_label
_atom_site_type_symbol
_atom_site_fract_x
_atom_site_fract_y
_atom_site_fract_z
_atom_site_charge
Mof_O 	O 	0.1605	0.1731	0.8484	-1.33
Mof_O 	O 	0.8198	0.6614	0.1682	-1.411
Mof_C 	C 	0.8071	0.0248	0.9524	-0.112
Mof_C 	C 	0.0045	0.066	0.9436	0.02
Mof_C 	C 	0.9919	0.135	0.8655	0.755
Mof_C 	C 	0.1977	0.5399	0.0243	-0.024
Mof_O 	O 	0.6605	0.6731	0.3484	-1.445
Mof_O 	O 	0.3198	0.1614	0.6682	-1.479
Mof_C 	C 	0.3071	0.5248	0.4524	0.071
Mof_C 	C 	0.5045	0.566	0.4436	-0.262
Mof_C 	C 	0.4919	0.635	0.3655	1.027
Mof_C 	C 	0.6977	0.0399	0.5243	0.051
Mof_O 	O 	0.8395	0.3269	0.8484	-1.555
Mof_O 	O 	0.1802	0.8386	0.1682	-1.541
Mof_C 	C 	0.1929	0.4752	0.9524	0.207
Mof_C 	C 	0.9955	0.434	0.9436	-0.544
Mof_C 	C 	0.0081	0.365	0.8655	1.29
Mof_C 	C 	0.8023	0.9601	0.0243	0.155
Mof_O 	O 	0.3395	0.8269	0.3484	-1.445
Mof_O 	O 	0.6802	0.3386	0.6682	-1.481
Mof_C 	C 	0.6929	0.9752	0.4524	0.007
Mof_C 	C 	0.4955	0.934	0.4436	-0.26
Mof_C 	C 	0.5081	0.865	0.3655	1.025
Mof_C 	C 	0.3023	0.4601	0.5243	0.094
Mof_O 	O 	0.8395	0.8269	0.1516	-1.553
Mof_O 	O 	0.1802	0.3386	0.8318	-1.543
Mof_C 	C 	0.1929	0.9752	0.0476	0.197
Mof_C 	C 	0.9955	0.934	0.0564	-0.536
Mof_C 	C 	0.0081	0.865	0.1345	1.284
Mof_C 	C 	0.8023	0.4601	0.9757	0.16
Mof_O 	O 	0.3395	0.3269	0.6516	-1.445
Mof_O 	O 	0.6802	0.8386	0.3318	-1.48
Mof_C 	C 	0.6929	0.4752	0.5476	0.017
Mof_C 	C 	0.4955	0.434	0.5564	-0.264
Mof_C 	C 	0.5081	0.365	0.6345	1.026
Mof_C 	C 	0.3023	0.9601	0.4757	0.08
Mof_O 	O 	0.1605	0.6731	0.1516	-1.33
Mof_O 	O 	0.8198	0.1614	0.8318	-1.411
Mof_C 	C 	0.8071	0.5248	0.0476	-0.116
Mof_C 	C 	0.0045	0.566	0.0564	0.02
Mof_C 	C 	0.9919	0.635	0.1345	0.757
Mof_C 	C 	0.1977	0.0399	0.9757	-0.018
Mof_O 	O 	0.6605	0.1731	0.6516	-1.445
Mof_O 	O 	0.3198	0.6614	0.3318	-1.478
Mof_C 	C 	0.3071	0.0248	0.5476	0.084
Mof_C 	C 	0.5045	0.066	0.5564	-0.266
Mof_C 	C 	0.4919	0.135	0.6345	1.029
Mof_C 	C 	0.6977	0.5399	0.4757	0.041
Mof_Al	Al	0.25	0.25	0.75	6.312
Mof_Al	Al	0.75	0.25	0.75	6.074
Mof_Al	Al	0.75	0.75	0.25	6.075
Mof_Al	Al	0.25	0.75	0.25	6.309
Mof_F 	F 	7.96573e-19	0.25	0.6912	-2.068
Mof_F 	F 	0.5	0.75	0.1912	-2.128
Mof_F 	F 	4.33317e-18	0.75	0.3088	-2.069
Mof_F 	F 	0.5	0.25	0.8088	-2.128
_end
