data_functionalizedCrystal
_audit_creation_method	'EQeq! by Chris Wilmer'
_symmetry_space_group_name_H-M	'P1'
_symmetry_Int_Tables_number	1
_symmetry_cell_setting	triclinic
loop_
_symmetry_equiv_pos_as_xyz
  x,y,z
_cell_length_a	12.96
_cell_length_b	21.1893
_cell_length_c	21.1893
_cell_angle_alpha	84.4015
_cell_angle_beta	72.1929
_cell_angle_gamma	72.1928
loop_
_atom_site_label
_atom_site_type_symbol
_atom_site_fract_x
_atom_site_fract_y
_atom_site_fract_z
_atom_site_charge
Mof_Li	Li	0.9531	0.51415	0.04885	4.743
Mof_Li	Li	0.19317	0.95404	0.52242	4.573
Mof_Li	Li	0.79796	0.00637	0.56331	1.255
Mof_Li	Li	0.9469	0.3049	0.9787	2.263
Mof_Li	Li	0.5161	0.48585	0.95115	4.622
Mof_Li	Li	0.66963	0.04596	0.47758	4.483
Mof_Li	Li	0.36764	0.99363	0.43669	1.206
Mof_Li	Li	0.2305	0.6951	0.0213	2.232
Mof_Li	Li	0.0161	0.95115	0.48585	4.549
Mof_Li	Li	0.16963	0.47758	0.04596	4.469
Mof_Li	Li	0.86764	0.43669	0.99363	1.183
Mof_Li	Li	0.7305	0.0213	0.6951	2.22
Mof_Li	Li	0.4531	0.04885	0.51415	4.658
Mof_Li	Li	0.69317	0.52242	0.95404	4.568
Mof_Li	Li	0.29796	0.56331	0.00637	1.275
Mof_Li	Li	0.4469	0.9787	0.3049	2.256
Mof_H 	H 	0.0807	0.572	0.9408	-0.322
Mof_H 	H 	0.1732	0.6521	0.8949	0.031
Mof_H 	H 	0.9557	0.7224	0.7844	0.138
Mof_H 	H 	0.866	0.6426	0.8302	-0.115
Mof_H 	H 	0.8616	0.9156	0.7502	-0.305
Mof_H 	H 	0.9247	0.8404	0.8288	0.111
Mof_H 	H 	0.2331	0.77	0.6924	0.163
Mof_H 	H 	0.171	0.848	0.6162	-0.268
Mof_H 	H 	0.2672	0.7734	0.7902	0.012
Mof_H 	H 	0.2373	0.7408	0.8624	-0.051
Mof_H 	H 	0.2831	0.6954	0.7978	0.019
Mof_H 	H 	0.0129	0.0707	0.5585	-0.319
Mof_H 	H 	0.8406	0.127	0.6324	-0.001
Mof_H 	H 	0.9891	0.2549	0.6717	0.137
Mof_H 	H 	0.1627	0.1962	0.6004	-0.109
Mof_H 	H 	0.9064	0.2723	0.8677	-0.339
Mof_H 	H 	0.9148	0.2088	0.7814	0.13
Mof_H 	H 	0.6445	0.3443	0.7471	0.184
Mof_H 	H 	0.6292	0.4049	0.8371	-0.292
Mof_H 	H 	0.5935	0.428	0.0592	-0.324
Mof_H 	H 	0.7202	0.3479	0.1051	0.037
Mof_H 	H 	0.4625	0.2776	0.2156	0.143
Mof_H 	H 	0.3388	0.3574	0.1698	-0.12
Mof_H 	H 	0.5274	0.0844	0.2498	-0.301
Mof_H 	H 	0.5939	0.1596	0.1712	0.108
Mof_H 	H 	0.6955	0.23	0.3076	0.16
Mof_H 	H 	0.6352	0.152	0.3838	-0.259
Mof_H 	H 	0.8308	0.2266	0.2098	0.012
Mof_H 	H 	0.8405	0.2592	0.1376	-0.051
Mof_H 	H 	0.7763	0.3046	0.2022	0.019
Mof_H 	H 	0.6421	0.9293	0.4415	-0.316
Mof_H 	H 	0.6	0.873	0.3676	-0.002
Mof_H 	H 	0.9157	0.7451	0.3283	0.137
Mof_H 	H 	0.9593	0.8038	0.3996	-0.104
Mof_H 	H 	0.0464	0.7277	0.1323	-0.355
Mof_H 	H 	0.905	0.7912	0.2186	0.138
Mof_H 	H 	0.7359	0.6557	0.2529	0.187
Mof_H 	H 	0.8712	0.5951	0.1629	-0.297
Mof_H 	H 	0.0935	0.0592	0.428	-0.321
Mof_H 	H 	0.2202	0.1051	0.3479	0.036
Mof_H 	H 	0.9625	0.2156	0.2776	0.143
Mof_H 	H 	0.8388	0.1698	0.3574	-0.119
Mof_H 	H 	0.0274	0.2498	0.0844	-0.301
Mof_H 	H 	0.0939	0.1712	0.1596	0.108
Mof_H 	H 	0.1955	0.3076	0.23	0.16
Mof_H 	H 	0.1352	0.3838	0.152	-0.259
Mof_H 	H 	0.3308	0.2098	0.2266	0.011
Mof_H 	H 	0.3405	0.1376	0.2592	-0.052
Mof_H 	H 	0.2763	0.2022	0.3046	0.019
Mof_H 	H 	0.1421	0.4415	0.9293	-0.319
Mof_H 	H 	0.1	0.3676	0.873	-0.003
Mof_H 	H 	0.4157	0.3283	0.7451	0.136
Mof_H 	H 	0.4593	0.3996	0.8038	-0.108
Mof_H 	H 	0.5464	0.1323	0.7277	-0.337
Mof_H 	H 	0.405	0.2186	0.7912	0.13
Mof_H 	H 	0.2359	0.2529	0.6557	0.184
Mof_H 	H 	0.3712	0.1629	0.5951	-0.293
Mof_H 	H 	0.5807	0.9408	0.572	-0.324
Mof_H 	H 	0.6732	0.8949	0.6521	0.038
Mof_H 	H 	0.4557	0.7844	0.7224	0.144
Mof_H 	H 	0.366	0.8302	0.6426	-0.121
Mof_H 	H 	0.3616	0.7502	0.9156	-0.3
Mof_H 	H 	0.4247	0.8288	0.8404	0.109
Mof_H 	H 	0.7331	0.6924	0.77	0.161
Mof_H 	H 	0.671	0.6162	0.848	-0.262
Mof_H 	H 	0.7672	0.7902	0.7734	0.013
Mof_H 	H 	0.7373	0.8624	0.7408	-0.049
Mof_H 	H 	0.7831	0.7978	0.6954	0.021
Mof_H 	H 	0.5129	0.5585	0.0707	-0.322
Mof_H 	H 	0.3406	0.6324	0.127	-0.002
Mof_H 	H 	0.4891	0.6717	0.2549	0.137
Mof_H 	H 	0.6627	0.6004	0.1962	-0.109
Mof_H 	H 	0.4064	0.8677	0.2723	-0.338
Mof_H 	H 	0.4148	0.7814	0.2088	0.13
Mof_H 	H 	0.1445	0.7471	0.3443	0.181
Mof_H 	H 	0.1292	0.8371	0.4049	-0.292
Mof_C 	C 	0.90638	0.54673	0.91817	0.972
Mof_C 	C 	0.96553	0.5981	0.88888	-0.596
Mof_C 	C 	0.0553	0.60251	0.90893	0.366
Mof_C 	C 	0.10886	0.65126	0.8828	-0.363
Mof_C 	C 	0.06797	0.69898	0.83866	0.205
Mof_C 	C 	0.98017	0.69297	0.81725	-0.373
Mof_C 	C 	0.92862	0.64445	0.84349	0.333
Mof_C 	C 	0.97112	0.93532	0.6232	1.225
Mof_C 	C 	0.01131	0.88942	0.67528	-0.754
Mof_C 	C 	0.93674	0.88663	0.73889	0.452
Mof_C 	C 	0.97372	0.84119	0.78517	-0.451
Mof_C 	C 	0.08255	0.79687	0.76763	0.272
Mof_C 	C 	0.15839	0.79933	0.70409	-0.458
Mof_C 	C 	0.12079	0.8458	0.65922	0.468
Mof_C 	C 	0.2365	0.73911	0.81649	-0.074
Mof_C 	C 	0.21731	0.08845	0.52951	0.962
Mof_C 	C 	0.10477	0.12713	0.57301	-0.596
Mof_C 	C 	0.0086	0.10775	0.58217	0.376
Mof_C 	C 	0.90539	0.14184	0.62558	-0.367
Mof_C 	C 	0.89695	0.19725	0.65885	0.221
Mof_C 	C 	0.99372	0.21708	0.64908	-0.379
Mof_C 	C 	0.09725	0.1822	0.6065	0.325
Mof_C 	C 	0.76221	0.39053	0.91359	1.239
Mof_C 	C 	0.76708	0.3459	0.86084	-0.801
Mof_C 	C 	0.85199	0.28737	0.84385	0.516
Mof_C 	C 	0.85768	0.25012	0.79132	-0.529
Mof_C 	C 	0.78431	0.27069	0.75329	0.345
Mof_C 	C 	0.69824	0.32906	0.77126	-0.524
Mof_C 	C 	0.68994	0.36541	0.82491	0.53
Mof_C 	C 	0.6893	0.2448	0.6784	-0.067
Mof_C 	C 	0.37128	0.45327	0.08183	0.969
Mof_C 	C 	0.45251	0.4019	0.11112	-0.61
Mof_C 	C 	0.56674	0.39749	0.09107	0.388
Mof_C 	C 	0.64292	0.34874	0.1172	-0.378
Mof_C 	C 	0.60561	0.30102	0.16134	0.225
Mof_C 	C 	0.49039	0.30703	0.18275	-0.396
Mof_C 	C 	0.41656	0.35555	0.15651	0.347
Mof_C 	C 	0.52964	0.06468	0.3768	1.187
Mof_C 	C 	0.57601	0.11058	0.32472	-0.715
Mof_C 	C 	0.56226	0.11337	0.26111	0.425
Mof_C 	C 	0.60008	0.15881	0.21483	-0.453
Mof_C 	C 	0.64705	0.20313	0.23237	0.278
Mof_C 	C 	0.66181	0.20067	0.29591	-0.45
Mof_C 	C 	0.62581	0.1542	0.34078	0.451
Mof_C 	C 	0.7921	0.26089	0.18351	-0.073
Mof_C 	C 	0.83527	0.91155	0.47049	0.951
Mof_C 	C 	0.80491	0.87287	0.42699	-0.587
Mof_C 	C 	0.69852	0.89225	0.41783	0.371
Mof_C 	C 	0.67281	0.85816	0.37442	-0.36
Mof_C 	C 	0.75305	0.80275	0.34115	0.218
Mof_C 	C 	0.85988	0.78292	0.35092	-0.373
Mof_C 	C 	0.88595	0.8178	0.3935	0.321
Mof_C 	C 	0.06633	0.60947	0.08641	1.243
Mof_C 	C 	0.97382	0.6541	0.13916	-0.809
Mof_C 	C 	0.98321	0.71263	0.15615	0.545
Mof_C 	C 	0.89912	0.74988	0.20868	-0.545
Mof_C 	C 	0.80829	0.72931	0.24671	0.353
Mof_C 	C 	0.79856	0.67094	0.22874	-0.532
Mof_C 	C 	0.88026	0.63459	0.17509	0.538
Mof_C 	C 	0.6125	0.7552	0.3216	-0.067
Mof_C 	C 	0.87128	0.08183	0.45327	0.964
Mof_C 	C 	0.95251	0.11112	0.4019	-0.609
Mof_C 	C 	0.06674	0.09107	0.39749	0.388
Mof_C 	C 	0.14292	0.1172	0.34874	-0.377
Mof_C 	C 	0.10561	0.16134	0.30102	0.224
Mof_C 	C 	0.99039	0.18275	0.30703	-0.395
Mof_C 	C 	0.91656	0.15651	0.35555	0.346
Mof_C 	C 	0.02964	0.3768	0.06468	1.182
Mof_C 	C 	0.07601	0.32472	0.11058	-0.713
Mof_C 	C 	0.06226	0.26111	0.11337	0.423
Mof_C 	C 	0.10008	0.21483	0.15881	-0.452
Mof_C 	C 	0.14705	0.23237	0.20313	0.277
Mof_C 	C 	0.16181	0.29591	0.20067	-0.45
Mof_C 	C 	0.12581	0.34078	0.1542	0.45
Mof_C 	C 	0.2921	0.18351	0.26089	-0.072
Mof_C 	C 	0.33527	0.47049	0.91155	0.957
Mof_C 	C 	0.30491	0.42699	0.87287	-0.592
Mof_C 	C 	0.19852	0.41783	0.89225	0.374
Mof_C 	C 	0.17281	0.37442	0.85816	-0.363
Mof_C 	C 	0.25305	0.34115	0.80275	0.218
Mof_C 	C 	0.35988	0.35092	0.78292	-0.376
Mof_C 	C 	0.38595	0.3935	0.8178	0.323
Mof_C 	C 	0.56633	0.08641	0.60947	1.239
Mof_C 	C 	0.47382	0.13916	0.6541	-0.802
Mof_C 	C 	0.48321	0.15615	0.71263	0.515
Mof_C 	C 	0.39912	0.20868	0.74988	-0.529
Mof_C 	C 	0.30829	0.24671	0.72931	0.344
Mof_C 	C 	0.29856	0.22874	0.67094	-0.524
Mof_C 	C 	0.38026	0.17509	0.63459	0.53
Mof_C 	C 	0.1125	0.3216	0.7552	-0.069
Mof_C 	C 	0.40638	0.91817	0.54673	0.974
Mof_C 	C 	0.46553	0.88888	0.5981	-0.613
Mof_C 	C 	0.5553	0.90893	0.60251	0.389
Mof_C 	C 	0.60886	0.8828	0.65126	-0.379
Mof_C 	C 	0.56797	0.83866	0.69898	0.226
Mof_C 	C 	0.48017	0.81725	0.69297	-0.398
Mof_C 	C 	0.42862	0.84349	0.64445	0.349
Mof_C 	C 	0.47112	0.6232	0.93532	1.195
Mof_C 	C 	0.51131	0.67528	0.88942	-0.718
Mof_C 	C 	0.43674	0.73889	0.88663	0.427
Mof_C 	C 	0.47372	0.78517	0.84119	-0.454
Mof_C 	C 	0.58255	0.76763	0.79687	0.28
Mof_C 	C 	0.65839	0.70409	0.79933	-0.452
Mof_C 	C 	0.62079	0.65922	0.8458	0.454
Mof_C 	C 	0.7365	0.81649	0.73911	-0.075
Mof_C 	C 	0.71731	0.52951	0.08845	0.966
Mof_C 	C 	0.60477	0.57301	0.12713	-0.598
Mof_C 	C 	0.5086	0.58217	0.10775	0.377
Mof_C 	C 	0.40539	0.62558	0.14184	-0.365
Mof_C 	C 	0.39695	0.65885	0.19725	0.22
Mof_C 	C 	0.49372	0.64908	0.21708	-0.379
Mof_C 	C 	0.59725	0.6065	0.1822	0.327
Mof_C 	C 	0.26221	0.91359	0.39053	1.233
Mof_C 	C 	0.26708	0.86084	0.3459	-0.798
Mof_C 	C 	0.35199	0.84385	0.28737	0.513
Mof_C 	C 	0.35768	0.79132	0.25012	-0.528
Mof_C 	C 	0.28431	0.75329	0.27069	0.342
Mof_C 	C 	0.19824	0.77126	0.32906	-0.523
Mof_C 	C 	0.18994	0.82491	0.36541	0.526
Mof_C 	C 	0.1893	0.6784	0.2448	-0.072
Mof_N 	N 	0.11878	0.75047	0.81501	-0.214
Mof_N 	N 	0.79188	0.23392	0.70052	-0.232
Mof_N 	N 	0.68426	0.24953	0.18499	-0.217
Mof_N 	N 	0.72632	0.76608	0.29948	-0.233
Mof_N 	N 	0.18426	0.18499	0.24953	-0.217
Mof_N 	N 	0.22632	0.29948	0.76608	-0.232
Mof_N 	N 	0.61878	0.81501	0.75047	-0.217
Mof_N 	N 	0.29188	0.70052	0.23392	-0.231
Mof_O 	O 	0.94165	0.50739	0.96123	-1.697
Mof_O 	O 	0.82401	0.54535	0.89931	-1.447
Mof_O 	O 	0.04628	0.94187	0.57101	-2.27
Mof_O 	O 	0.86676	0.96309	0.63385	-1.344
Mof_O 	O 	0.21954	0.03911	0.49935	-1.673
Mof_O 	O 	0.30245	0.10726	0.52514	-1.443
Mof_O 	O 	0.84303	0.37679	0.93835	-1.343
Mof_O 	O 	0.67697	0.44014	0.92906	-2.271
Mof_O 	O 	0.41027	0.49261	0.03877	-1.691
Mof_O 	O 	0.26867	0.45465	0.10069	-1.43
Mof_O 	O 	0.55916	0.05813	0.42899	-2.255
Mof_O 	O 	0.4637	0.03691	0.36615	-1.342
Mof_O 	O 	0.758	0.96089	0.50065	-1.656
Mof_O 	O 	0.93485	0.89274	0.47486	-1.413
Mof_O 	O 	0.15817	0.62321	0.06165	-1.356
Mof_O 	O 	0.04617	0.55986	0.07094	-2.285
Mof_O 	O 	0.91027	0.03877	0.49261	-1.675
Mof_O 	O 	0.76867	0.10069	0.45465	-1.43
Mof_O 	O 	0.05916	0.42899	0.05813	-2.267
Mof_O 	O 	0.9637	0.36615	0.03691	-1.334
Mof_O 	O 	0.258	0.50065	0.96089	-1.664
Mof_O 	O 	0.43485	0.47486	0.89274	-1.436
Mof_O 	O 	0.65817	0.06165	0.62321	-1.349
Mof_O 	O 	0.54617	0.07094	0.55986	-2.266
Mof_O 	O 	0.44165	0.96123	0.50739	-1.688
Mof_O 	O 	0.32401	0.89931	0.54535	-1.449
Mof_O 	O 	0.54628	0.57101	0.94187	-2.266
Mof_O 	O 	0.36676	0.63385	0.96309	-1.349
Mof_O 	O 	0.71954	0.49935	0.03911	-1.671
Mof_O 	O 	0.80245	0.52514	0.10726	-1.458
Mof_O 	O 	0.34303	0.93835	0.37679	-1.345
Mof_O 	O 	0.17697	0.92906	0.44014	-2.259
_end
