data_functionalizedCrystal
_audit_creation_method	'EQeq! by Chris Wilmer'
_symmetry_space_group_name_H-M	'P1'
_symmetry_Int_Tables_number	1
_symmetry_cell_setting	triclinic
loop_
_symmetry_equiv_pos_as_xyz
  x,y,z
_cell_length_a	17.503
_cell_length_b	18.341
_cell_length_c	18.341
_cell_angle_alpha	90
_cell_angle_beta	90
_cell_angle_gamma	90
loop_
_atom_site_label
_atom_site_type_symbol
_atom_site_fract_x
_atom_site_fract_y
_atom_site_fract_z
_atom_site_charge
Mof_Co	Co	0.33623	0.43261	0.84636	1.094
Mof_Co	Co	0.5	0.8401	0.8401	1.111
Mof_Co	Co	0.75	0.05608	0.94392	1.071
Mof_Co	Co	0.83623	0.56739	0.15364	1.096
Mof_Co	Co	0.41377	0.93261	0.65364	1.095
Mof_Co	Co	0.91377	0.06739	0.34636	1.107
Mof_Co	Co	0.16377	0.15364	0.56739	1.094
Mof_Co	Co	0.25	0.3401	0.6599	1.111
Mof_Co	Co	2.18479e-33	0.55608	0.55608	1.049
Mof_Co	Co	0.5	0.44392	0.44392	1.069
Mof_Co	Co	6.28233e-34	0.1599	0.1599	1.091
Mof_Co	Co	0.58623	0.65364	0.93261	1.095
Mof_Co	Co	0.08623	0.34636	0.06739	1.084
Mof_Co	Co	0.75	0.6599	0.3401	1.112
Mof_Co	Co	0.66377	0.84636	0.43261	1.095
Mof_Co	Co	0.25	0.94392	0.05608	1.067
Mof_H 	H 	0.4763	0.8145	0.1645	0.032
Mof_H 	H 	0.1566	0.4692	0.3167	0.019
Mof_H 	H 	0.9805	0.558	0.7376	0.032
Mof_H 	H 	0.5353	0.3474	0.0239	0.034
Mof_H 	H 	0.4805	0.442	0.2624	0.016
Mof_H 	H 	0.8462	0.1146	0.6832	0.041
Mof_H 	H 	0.0962	0.8168	0.6146	0.029
Mof_H 	H 	0.4038	0.3854	0.1832	0.035
Mof_H 	H 	0.7737	0.6855	0.6645	0.033
Mof_H 	H 	0.8922	0.7615	0.2778	-0.003
Mof_H 	H 	0.6078	0.7222	0.2385	-0.01
Mof_H 	H 	0.4647	0.0239	0.3474	0.043
Mof_H 	H 	0.3434	0.6833	0.5308	0.024
Mof_H 	H 	0.8422	0.7439	0.1123	0.012
Mof_H 	H 	0.499	0.453	0.7564	-0.01
Mof_H 	H 	0.6578	0.8877	0.2561	0.009
Mof_H 	H 	0.0922	0.3877	0.2439	-0.002
Mof_H 	H 	0.9066	0.8167	0.0308	0.029
Mof_H 	H 	0.0195	0.7376	0.558	0.002
Mof_H 	H 	0.9078	0.2439	0.3877	0.021
Mof_H 	H 	0.3922	0.2385	0.7222	-0.01
Mof_H 	H 	0.6538	0.3168	0.8854	0.036
Mof_H 	H 	0.1578	0.1123	0.7439	0.007
Mof_H 	H 	0.1078	0.2778	0.7615	-0.017
Mof_H 	H 	0.6422	0.7778	0.7385	-0.01
Mof_H 	H 	0.501	0.7564	0.453	-0.01
Mof_H 	H 	0.9647	0.9761	0.6526	0.105
Mof_H 	H 	0.2737	0.3145	0.3355	0.031
Mof_H 	H 	0.9038	0.6146	0.8168	0.041
Mof_H 	H 	0.7695	0.058	0.7624	0.018
Mof_H 	H 	0.5934	0.9692	0.1833	0.025
Mof_H 	H 	0.001	0.2436	0.547	-0.022
Mof_H 	H 	0.4078	0.7561	0.6123	0.01
Mof_H 	H 	0.8578	0.2615	0.2222	-0.008
Mof_H 	H 	0.8434	0.3167	0.4692	0.031
Mof_H 	H 	0.3422	0.2561	0.8877	0.01
Mof_H 	H 	0.0934	0.0308	0.8167	0.02
Mof_H 	H 	0.249	0.2564	0.047	-0.011
Mof_H 	H 	0.4066	0.1833	0.9692	0.024
Mof_H 	H 	0.1538	0.6832	0.1146	0.029
Mof_H 	H 	0.749	0.7436	0.953	-0.009
Mof_H 	H 	0.2305	0.7624	0.058	0.015
Mof_H 	H 	0.0353	0.6526	0.9761	-0.028
Mof_H 	H 	0.1422	0.2222	0.2615	-0.011
Mof_H 	H 	0.251	0.953	0.7436	-0.011
Mof_H 	H 	0.3578	0.7385	0.7778	-0.011
Mof_H 	H 	0.7263	0.3355	0.3145	0.033
Mof_H 	H 	0.7853	0.4761	0.8474	0.042
Mof_H 	H 	0.999	0.547	0.2436	0.003
Mof_H 	H 	0.5962	0.1832	0.3854	0.035
Mof_H 	H 	0.5237	0.1645	0.8145	0.032
Mof_H 	H 	0.5195	0.2624	0.442	0.017
Mof_H 	H 	0.5922	0.6123	0.7561	0.01
Mof_H 	H 	0.0237	0.8355	0.1855	0.017
Mof_H 	H 	0.2853	0.5239	0.1526	0.037
Mof_H 	H 	0.751	0.047	0.2564	-0.009
Mof_H 	H 	0.9763	0.1855	0.8355	0.047
Mof_H 	H 	0.7305	0.2376	0.942	0.018
Mof_H 	H 	0.7147	0.1526	0.5239	0.039
Mof_H 	H 	0.2263	0.6645	0.6855	0.031
Mof_H 	H 	0.3462	0.8854	0.3168	0.034
Mof_H 	H 	0.2695	0.942	0.2376	0.015
Mof_H 	H 	0.6566	0.5308	0.6833	0.025
Mof_H 	H 	0.2147	0.8474	0.4761	0.034
Mof_C 	C 	0.44171	0.62098	0.85826	0.041
Mof_C 	C 	0.0603	0.7204	0.5856	-0.005
Mof_C 	C 	0.9397	0.5856	0.7204	0.004
Mof_C 	C 	0.6832	0.3203	0.34	0.013
Mof_C 	C 	0.7937	0.12818	0.4485	0.011
Mof_C 	C 	0.4617	0.4337	0.7258	0.1
Mof_C 	C 	0.366	0.3702	0.3734	-0.005
Mof_C 	C 	0.5603	0.2796	0.4144	-0
Mof_C 	C 	0.8584	0.7901	0.3045	0.093
Mof_C 	C 	0.53837	0.89503	0.55388	0.07
Mof_C 	C 	0.72375	0.56396	0.94915	0.087
Mof_C 	C 	0.6708	0.5355	0.7319	0.01
Mof_C 	C 	0.46163	0.55388	0.89503	0.07
Mof_C 	C 	0.3815	0.2762	0.9153	0.013
Mof_C 	C 	0.80829	0.87902	0.35826	0.044
Mof_C 	C 	0.3539	0.365	0.4497	0.076
Mof_C 	C 	0.37673	0.37987	0.56152	0.061
Mof_C 	C 	0.9332	0.16	0.8203	0.017
Mof_C 	C 	0.6083	0.2324	0.3822	0.015
Mof_C 	C 	0.1083	0.7676	0.6178	0.011
Mof_C 	C 	0.384	0.8702	0.1266	-0.005
Mof_C 	C 	0.78837	0.94612	0.39503	0.07
Mof_C 	C 	0.616	0.1266	0.8702	-0.004
Mof_C 	C 	0.1039	0.9497	0.135	0.072
Mof_C 	C 	0.4397	0.4144	0.2796	-0.001
Mof_C 	C 	0.8917	0.6178	0.7676	0.019
Mof_C 	C 	0.134	0.6266	0.6298	-0.008
Mof_C 	C 	0.1416	0.3045	0.7901	0.087
Mof_C 	C 	0.19171	0.35826	0.87902	0.039
Mof_C 	C 	0.27625	0.94915	0.56396	0.086
Mof_C 	C 	0.3103	0.9144	0.2204	-0.001
Mof_C 	C 	0.634	0.3734	0.3702	-0.004
Mof_C 	C 	0.1832	0.6797	0.66	0.011
Mof_C 	C 	0.62673	0.93848	0.87987	0.06
Mof_C 	C 	0.09656	0.36611	0.60106	0.039
Mof_C 	C 	0.40344	0.39894	0.63389	0.043
Mof_C 	C 	0.0437	0.0515	0.62818	0.048
Mof_C 	C 	0.6315	0.5847	0.7762	0.014
Mof_C 	C 	0.1185	0.0847	0.7238	0.015
Mof_C 	C 	0.8916	0.2901	0.1955	0.094
Mof_C 	C 	0.0792	0.0355	0.7681	0.001
Mof_C 	C 	0.96163	0.44612	0.10497	0.113
Mof_C 	C 	0.3168	0.34	0.3203	0.014
Mof_C 	C 	0.4332	0.84	0.1797	0.013
Mof_C 	C 	0.3583	0.8822	0.2676	0.014
Mof_C 	C 	0.34656	0.89894	0.86611	0.042
Mof_C 	C 	0.94171	0.37902	0.14174	0.038
Mof_C 	C 	0.5383	0.7258	0.4337	0.1
Mof_C 	C 	0.6084	0.8045	0.7099	0.09
Mof_C 	C 	0.8539	0.635	0.5503	0.081
Mof_C 	C 	0.3917	0.3822	0.2324	0.015
Mof_C 	C 	0.2063	0.4485	0.12818	0.009
Mof_C 	C 	0.69171	0.64174	0.12098	0.041
Mof_C 	C 	0.47375	0.44915	0.93604	0.088
Mof_C 	C 	0.71163	0.60497	0.05388	0.068
Mof_C 	C 	0.1897	0.7796	0.0856	-0.005
Mof_C 	C 	0.8815	0.7238	0.0847	0.012
Mof_C 	C 	0.2455	0.4964	0.1719	0.005
Mof_C 	C 	0.65344	0.86611	0.89894	0.044
Mof_C 	C 	0.5437	0.9485	0.37182	0.013
Mof_C 	C 	0.3916	0.7099	0.8045	0.09
Mof_C 	C 	0.90344	0.60106	0.36611	0.049
Mof_C 	C 	0.4955	0.3281	0.9964	0.014
Mof_C 	C 	0.30829	0.12098	0.64174	0.041
Mof_C 	C 	0.866	0.6298	0.6266	0.001
Mof_C 	C 	0.59656	0.63389	0.39894	0.043
Mof_C 	C 	0.1084	0.1955	0.2901	0.086
Mof_C 	C 	0.7545	0.1719	0.4964	0.009
Mof_C 	C 	0.5045	0.9964	0.3281	-0.003
Mof_C 	C 	0.3292	0.7319	0.5355	0.01
Mof_C 	C 	0.6897	0.2204	0.9144	-0
Mof_C 	C 	0.3961	0.865	0.0503	0.075
Mof_C 	C 	0.9617	0.5663	0.2742	0.104
Mof_C 	C 	0.9563	0.62818	0.0515	-0.028
Mof_C 	C 	0.97375	0.55085	0.06396	0.143
Mof_C 	C 	0.8292	0.2681	0.4645	0.014
Mof_C 	C 	0.3685	0.7762	0.5847	0.013
Mof_C 	C 	0.6416	0.6955	0.2099	0.09
Mof_C 	C 	0.6185	0.9153	0.2762	0.016
Mof_C 	C 	0.0045	0.0036	0.6719	-0.096
Mof_C 	C 	0.55829	0.85826	0.62098	0.041
Mof_C 	C 	0.4563	0.37182	0.9485	0.008
Mof_C 	C 	0.7063	0.5515	0.87182	0.011
Mof_C 	C 	0.52625	0.93604	0.44915	0.085
Mof_C 	C 	0.2883	0.9337	0.7742	0.099
Mof_C 	C 	0.1708	0.4645	0.2681	0.005
Mof_C 	C 	0.9955	0.6719	0.0036	0.11
Mof_C 	C 	0.77625	0.05085	0.43604	0.088
Mof_C 	C 	0.5792	0.9645	0.2319	0.005
Mof_C 	C 	0.8685	0.2238	0.4153	0.018
Mof_C 	C 	0.5668	0.1797	0.84	0.014
Mof_C 	C 	0.116	0.8734	0.1298	-0.011
Mof_C 	C 	0.8103	0.0856	0.7796	0.004
Mof_C 	C 	0.4208	0.2319	0.9645	0.013
Mof_C 	C 	0.7883	0.0663	0.2258	0.101
Mof_C 	C 	0.0668	0.8203	0.16	0.01
Mof_C 	C 	0.12673	0.06152	0.12013	0.06
Mof_C 	C 	0.3584	0.2099	0.6955	0.09
Mof_C 	C 	0.84656	0.10106	0.13389	0.047
Mof_C 	C 	0.2117	0.2258	0.0663	0.098
Mof_C 	C 	0.7455	0.5036	0.8281	0.006
Mof_C 	C 	0.6417	0.2676	0.8822	0.016
Mof_C 	C 	0.62327	0.56152	0.37987	0.061
Mof_C 	C 	0.87327	0.12013	0.06152	0.064
Mof_C 	C 	0.22375	0.43604	0.05085	0.085
Mof_C 	C 	0.12327	0.43848	0.62013	0.056
Mof_C 	C 	0.8583	0.1178	0.7324	0.018
Mof_C 	C 	0.1417	0.7324	0.1178	0.012
Mof_C 	C 	0.1315	0.4153	0.2238	0.01
Mof_C 	C 	0.15344	0.13389	0.10106	0.04
Mof_C 	C 	0.21163	0.39503	0.94612	0.07
Mof_C 	C 	0.02625	0.06396	0.55085	0.03
Mof_C 	C 	0.03837	0.10497	0.44612	0.028
Mof_C 	C 	0.8168	0.66	0.6797	0.016
Mof_C 	C 	0.28837	0.05388	0.60497	0.072
Mof_C 	C 	0.1461	0.5503	0.635	0.072
Mof_C 	C 	0.2545	0.8281	0.5036	0.007
Mof_C 	C 	0.9208	0.7681	0.0355	0.018
Mof_C 	C 	0.2937	0.87182	0.5515	0.009
Mof_C 	C 	0.05829	0.14174	0.37902	0.044
Mof_C 	C 	0.7117	0.7742	0.9337	0.101
Mof_C 	C 	0.6461	0.4497	0.365	0.076
Mof_C 	C 	0.37327	0.87987	0.93848	0.063
Mof_C 	C 	0.884	0.1298	0.8734	0.002
Mof_C 	C 	0.0383	0.2742	0.5663	0.096
Mof_C 	C 	0.8961	0.135	0.9497	0.08
Mof_C 	C 	0.87673	0.62013	0.43848	0.067
Mof_C 	C 	0.6039	0.0503	0.865	0.077
Mof_N 	N 	0.21884	0.98562	0.53533	-0.101
Mof_N 	N 	0.2616	0.17761	0.6314	-0.221
Mof_N 	N 	0.17838	0.85262	0.0933	-0.213
Mof_N 	N 	0.39386	0.88852	0.81101	-0.216
Mof_N 	N 	0.36999	0.13714	0.68116	-0.144
Mof_N 	N 	0.17882	0.3912	0.01077	-0.254
Mof_N 	N 	0.54401	0.83261	0.73514	-0.224
Mof_N 	N 	0.9763	0.7433	0.9963	-0.11
Mof_N 	N 	0.5237	0.0037	0.2567	-0.101
Mof_N 	N 	0.3071	0.35199	0.55711	-0.207
Mof_N 	N 	0.95777	0.15928	0.98362	-0.1
Mof_N 	N 	0.5116	0.8686	0.67761	-0.221
Mof_N 	N 	0.27239	0.43764	0.94567	-0.207
Mof_N 	N 	0.64386	0.68899	0.38852	-0.216
Mof_N 	N 	0.3302	0.347	0.2493	-0.107
Mof_N 	N 	0.92838	0.5933	0.64738	-0.2
Mof_N 	N 	0.96884	0.03533	0.51438	-0.065
Mof_N 	N 	0.9884	0.32239	0.1314	-0.203
Mof_N 	N 	0.77239	0.56236	0.05433	-0.207
Mof_N 	N 	0.04223	0.98362	0.15928	-0.123
Mof_N 	N 	0.45599	0.73514	0.83261	-0.224
Mof_N 	N 	0.4763	0.2567	0.0037	-0.109
Mof_N 	N 	0.0802	0.7493	0.153	-0.119
Mof_N 	N 	0.10614	0.18899	0.11148	-0.223
Mof_N 	N 	0.5282	0.65462	0.4261	-0.152
Mof_N 	N 	0.57162	0.35262	0.4067	-0.212
Mof_N 	N 	0.7782	0.0739	0.15462	-0.151
Mof_N 	N 	0.60599	0.75003	0.41158	-0.231
Mof_N 	N 	0.86999	0.86286	0.31884	-0.138
Mof_N 	N 	0.79223	0.65928	0.51638	-0.111
Mof_N 	N 	0.52239	0.55433	0.93764	-0.207
Mof_N 	N 	0.70599	0.66739	0.23514	-0.223
Mof_N 	N 	0.11999	0.18116	0.36286	-0.147
Mof_N 	N 	0.6929	0.55711	0.35199	-0.207
Mof_N 	N 	0.38001	0.63714	0.81884	-0.145
Mof_N 	N 	0.4429	0.85199	0.94289	-0.206
Mof_N 	N 	0.2263	0.5037	0.2433	-0.108
Mof_N 	N 	0.9429	0.14801	0.05711	-0.195
Mof_N 	N 	0.07162	0.64738	0.5933	-0.22
Mof_N 	N 	0.02239	0.44567	0.06236	-0.238
Mof_N 	N 	0.22761	0.05433	0.56236	-0.207
Mof_N 	N 	0.67882	0.6088	0.98923	-0.25
Mof_N 	N 	0.0909	0.5042	0.61033	-0.266
Mof_N 	N 	0.2737	0.7567	0.4963	-0.108
Mof_N 	N 	0.82118	0.01077	0.3912	-0.248
Mof_N 	N 	0.9198	0.153	0.7493	-0.094
Mof_N 	N 	0.1698	0.7507	0.653	-0.108
Mof_N 	N 	0.32162	0.9067	0.14738	-0.213
Mof_N 	N 	0.35599	0.91158	0.74997	-0.231
Mof_N 	N 	0.3409	0.88967	0.0042	-0.263
Mof_N 	N 	0.07118	0.1088	0.51077	-0.239
Mof_N 	N 	0.0237	0.9963	0.7433	-0.102
Mof_N 	N 	0.14386	0.31101	0.61148	-0.217
Mof_N 	N 	0.79401	0.76486	0.33261	-0.223
Mof_N 	N 	0.2384	0.3686	0.82239	-0.222
Mof_N 	N 	0.6698	0.2493	0.347	-0.106
Mof_N 	N 	0.1929	0.44289	0.64801	-0.207
Mof_N 	N 	0.1014	0.09309	0.654	-0.213
Mof_N 	N 	0.61999	0.81884	0.63714	-0.144
Mof_N 	N 	0.47761	0.93764	0.55433	-0.207
Mof_N 	N 	0.71884	0.01438	0.46467	-0.096
Mof_N 	N 	0.7384	0.6314	0.17761	-0.221
Mof_N 	N 	0.6014	0.90691	0.346	-0.205
Mof_N 	N 	0.04401	0.16739	0.26486	-0.231
Mof_N 	N 	0.5909	0.4958	0.38967	-0.26
Mof_N 	N 	0.35614	0.38852	0.68899	-0.216
Mof_N 	N 	0.64401	0.74997	0.91158	-0.231
Mof_N 	N 	0.8514	0.154	0.40691	-0.201
Mof_N 	N 	0.53116	0.48562	0.96467	-0.098
Mof_N 	N 	0.3986	0.346	0.90691	-0.204
Mof_N 	N 	0.4718	0.4261	0.65462	-0.152
Mof_N 	N 	0.1591	0.9958	0.11033	-0.263
Mof_N 	N 	0.54223	0.01638	0.84072	-0.11
Mof_N 	N 	0.1486	0.40691	0.154	-0.208
Mof_N 	N 	0.7616	0.82239	0.3686	-0.221
Mof_N 	N 	0.8071	0.64801	0.44289	-0.207
Mof_N 	N 	0.92882	0.51077	0.1088	-0.263
Mof_N 	N 	0.29223	0.34072	0.48362	-0.112
Mof_N 	N 	0.28116	0.46467	0.01438	-0.1
Mof_N 	N 	0.5571	0.94289	0.85199	-0.207
Mof_N 	N 	0.4091	0.38967	0.4958	-0.26
Mof_N 	N 	0.42838	0.4067	0.35262	-0.213
Mof_N 	N 	0.78116	0.53533	0.98562	-0.096
Mof_N 	N 	0.29401	0.23514	0.66739	-0.224
Mof_N 	N 	0.10599	0.24997	0.58842	-0.233
Mof_N 	N 	0.20599	0.33261	0.76486	-0.224
Mof_N 	N 	0.4198	0.847	0.2507	-0.107
Mof_N 	N 	0.95599	0.26486	0.16739	-0.211
Mof_N 	N 	0.57118	0.8912	0.48923	-0.251
Mof_N 	N 	0.13001	0.31884	0.86286	-0.151
Mof_N 	N 	0.8302	0.653	0.7507	-0.105
Mof_N 	N 	0.89401	0.58842	0.24997	-0.229
Mof_N 	N 	0.46884	0.96467	0.48562	-0.098
Mof_N 	N 	0.3514	0.846	0.59309	-0.204
Mof_N 	N 	0.39401	0.41158	0.75003	-0.231
Mof_N 	N 	0.45777	0.84072	0.01638	-0.113
Mof_N 	N 	0.7218	0.84538	0.9261	-0.15
Mof_N 	N 	0.0571	0.05711	0.14801	-0.214
Mof_N 	N 	0.6591	0.0042	0.88967	-0.258
Mof_N 	N 	0.4884	0.67761	0.8686	-0.221
Mof_N 	N 	0.88001	0.36286	0.18116	-0.142
Mof_N 	N 	0.0282	0.34538	0.5739	-0.162
Mof_N 	N 	0.42882	0.48923	0.8912	-0.251
Mof_N 	N 	0.72761	0.94567	0.43764	-0.207
Mof_N 	N 	0.63001	0.68116	0.13714	-0.145
Mof_N 	N 	0.89386	0.11148	0.18899	-0.205
Mof_N 	N 	0.6486	0.59309	0.846	-0.204
Mof_N 	N 	0.85599	0.08842	0.25003	-0.226
Mof_N 	N 	0.7737	0.2433	0.5037	-0.104
Mof_N 	N 	0.9718	0.5739	0.34538	-0.14
Mof_N 	N 	0.0116	0.1314	0.32239	-0.239
Mof_N 	N 	0.67838	0.14738	0.9067	-0.212
Mof_N 	N 	0.2218	0.15462	0.0739	-0.152
Mof_N 	N 	0.9091	0.61033	0.5042	-0.249
Mof_N 	N 	0.20777	0.51638	0.65928	-0.113
Mof_N 	N 	0.32118	0.98923	0.6088	-0.252
Mof_N 	N 	0.97761	0.06236	0.44567	-0.175
Mof_N 	N 	0.5802	0.2507	0.847	-0.106
Mof_N 	N 	0.2782	0.9261	0.84538	-0.153
Mof_N 	N 	0.03116	0.51438	0.03533	-0.131
Mof_N 	N 	0.82162	0.0933	0.85262	-0.212
Mof_N 	N 	0.60614	0.81101	0.88852	-0.216
Mof_N 	N 	0.8986	0.654	0.09309	-0.196
Mof_N 	N 	0.8409	0.11033	0.9958	-0.259
Mof_N 	N 	0.70777	0.48362	0.34072	-0.111
Mof_N 	N 	0.85614	0.61148	0.31101	-0.216
Mof_N 	N 	0.14401	0.25003	0.08842	-0.235
Mof_N 	N 	0.7263	0.4963	0.7567	-0.104
_end
