data_functionalizedCrystal
_audit_creation_method	'EQeq! by Chris Wilmer'
_symmetry_space_group_name_H-M	'P1'
_symmetry_Int_Tables_number	1
_symmetry_cell_setting	triclinic
loop_
_symmetry_equiv_pos_as_xyz
  x,y,z
_cell_length_a	15.251
_cell_length_b	6.699
_cell_length_c	14.382
_cell_angle_alpha	90
_cell_angle_beta	90
_cell_angle_gamma	90
loop_
_atom_site_label
_atom_site_type_symbol
_atom_site_fract_x
_atom_site_fract_y
_atom_site_fract_z
_atom_site_charge
Mof_O 	O 	0.8533	0.0853	0.6375	-0.554
Mof_O 	O 	0.7043	0.583	0.7434	-0.624
Mof_O 	O 	0.6467	0.9147	0.1375	-0.555
Mof_O 	O 	0.7957	0.417	0.2434	-0.623
Mof_O 	O 	0.1467	0.5853	0.3625	-0.554
Mof_O 	O 	0.2957	0.083	0.2566	-0.622
Mof_O 	O 	0.3533	0.4147	0.8625	-0.554
Mof_O 	O 	0.2043	0.917	0.7566	-0.622
Mof_O 	O 	0.1467	0.9147	0.3625	-0.553
Mof_O 	O 	0.2957	0.417	0.2566	-0.623
Mof_O 	O 	0.3533	0.0853	0.8625	-0.555
Mof_O 	O 	0.2043	0.583	0.7566	-0.623
Mof_O 	O 	0.8533	0.4147	0.6375	-0.554
Mof_O 	O 	0.7043	0.917	0.7434	-0.622
Mof_O 	O 	0.6467	0.5853	0.1375	-0.554
Mof_O 	O 	0.7957	0.083	0.2434	-0.622
Mof_Gd	Gd	0.80109	0.75	0.62073	1.411
Mof_O 	O 	0.8494	0.75	0.463	-0.621
Mof_O 	O 	0.8908	0.75	0.7571	-0.511
Mof_N 	N 	0.9655	0.75	0.5954	-0.158
Mof_C 	C 	0.9285	0.75	0.434	0.386
Mof_Na	Na	0.7357	0.75	0.3106	1.838
Mof_C 	C 	0.9703	0.75	0.7609	0.355
Mof_C 	C 	0.9964	0.75	0.5073	-0.042
Mof_C 	C 	0.0197	0.75	0.6679	-0.015
Mof_O 	O 	0.949	0.75	0.3516	-0.382
Mof_O 	O 	0.0194	0.75	0.8299	-0.397
Mof_C 	C 	0.0872	0.75	0.4948	-0.051
Mof_C 	C 	0.1065	0.75	0.6526	-0.08
Mof_N 	N 	0.1423	0.75	0.5659	-0.16
Mof_C 	C 	0.1285	0.75	0.3994	0.391
Mof_C 	C 	0.173	0.75	0.73	0.389
Mof_Gd	Gd	0.69891	0.25	0.12073	1.414
Mof_O 	O 	0.6506	0.25	0.963	-0.621
Mof_O 	O 	0.6092	0.25	0.2571	-0.512
Mof_N 	N 	0.5345	0.25	0.0954	-0.158
Mof_C 	C 	0.5715	0.25	0.934	0.384
Mof_Na	Na	0.7643	0.25	0.8106	1.837
Mof_C 	C 	0.5297	0.25	0.2609	0.36
Mof_C 	C 	0.5036	0.25	0.0073	-0.039
Mof_C 	C 	0.4803	0.25	0.1679	-0.018
Mof_O 	O 	0.551	0.25	0.8516	-0.382
Mof_O 	O 	0.4806	0.25	0.3299	-0.399
Mof_C 	C 	0.4128	0.25	0.9948	-0.053
Mof_C 	C 	0.3935	0.25	0.1526	-0.08
Mof_N 	N 	0.3577	0.25	0.0659	-0.16
Mof_C 	C 	0.3715	0.25	0.8994	0.392
Mof_C 	C 	0.327	0.25	0.23	0.389
Mof_Gd	Gd	0.19891	0.25	0.37927	1.411
Mof_O 	O 	0.1506	0.25	0.537	-0.621
Mof_O 	O 	0.1092	0.25	0.2429	-0.511
Mof_N 	N 	0.0345	0.25	0.4046	-0.158
Mof_C 	C 	0.0715	0.25	0.566	0.386
Mof_Na	Na	0.2643	0.25	0.6894	1.838
Mof_C 	C 	0.0297	0.25	0.2391	0.355
Mof_C 	C 	0.0036	0.25	0.4927	-0.042
Mof_C 	C 	0.9803	0.25	0.3321	-0.015
Mof_O 	O 	0.051	0.25	0.6484	-0.382
Mof_O 	O 	0.9806	0.25	0.1701	-0.397
Mof_C 	C 	0.9128	0.25	0.5052	-0.051
Mof_C 	C 	0.8935	0.25	0.3474	-0.08
Mof_N 	N 	0.8577	0.25	0.4341	-0.16
Mof_C 	C 	0.8715	0.25	0.6006	0.391
Mof_C 	C 	0.827	0.25	0.27	0.389
Mof_Gd	Gd	0.30109	0.75	0.87927	1.414
Mof_O 	O 	0.3494	0.75	0.037	-0.621
Mof_O 	O 	0.3908	0.75	0.7429	-0.512
Mof_N 	N 	0.4655	0.75	0.9046	-0.158
Mof_C 	C 	0.4285	0.75	0.066	0.384
Mof_Na	Na	0.2357	0.75	0.1894	1.837
Mof_C 	C 	0.4703	0.75	0.7391	0.36
Mof_C 	C 	0.4964	0.75	0.9927	-0.039
Mof_C 	C 	0.5197	0.75	0.8321	-0.018
Mof_O 	O 	0.449	0.75	0.1484	-0.382
Mof_O 	O 	0.5194	0.75	0.6701	-0.399
Mof_C 	C 	0.5872	0.75	0.0052	-0.053
Mof_C 	C 	0.6065	0.75	0.8474	-0.08
Mof_N 	N 	0.6423	0.75	0.9341	-0.16
Mof_C 	C 	0.6285	0.75	0.1006	0.392
Mof_C 	C 	0.673	0.75	0.77	0.389
_end
