data_functionalizedCrystal
_audit_creation_method	'EQeq! by Chris Wilmer'
_symmetry_space_group_name_H-M	'P1'
_symmetry_Int_Tables_number	1
_symmetry_cell_setting	triclinic
loop_
_symmetry_equiv_pos_as_xyz
  x,y,z
_cell_length_a	12.8345
_cell_length_b	12.8345
_cell_length_c	34.874
_cell_angle_alpha	82.5004
_cell_angle_beta	82.5004
_cell_angle_gamma	63.726
loop_
_atom_site_label
_atom_site_type_symbol
_atom_site_fract_x
_atom_site_fract_y
_atom_site_fract_z
_atom_site_charge
Mof_Gd	Gd	0.20377	0.36086	0.0586	1.691
Mof_Gd	Gd	0.13073	0.34827	0.18443	1.641
Mof_Gd	Gd	0.36086	0.20377	0.5586	1.692
Mof_Gd	Gd	0.34827	0.13073	0.68444	1.642
Mof_H 	H 	0.2436	0.4358	0.7435	-0.001
Mof_H 	H 	0.4423	0.0971	0.1913	-0.023
Mof_H 	H 	0.5897	0.1087	0.0842	0.009
Mof_H 	H 	0.0049	0.0991	0.174	-0.003
Mof_H 	H 	0.2045	0.6635	0.1798	0.022
Mof_H 	H 	0.3287	0.6145	0.0698	0
Mof_H 	H 	0.1291	0.0433	0.0641	-0.013
Mof_H 	H 	0.0611	0.9015	0.0678	0.101
Mof_H 	H 	0.7601	0.6045	0.1638	-0.008
Mof_H 	H 	0.8605	0.6349	0.052	-0.022
Mof_H 	H 	0.1327	0.6137	0.9375	0.014
Mof_H 	H 	0.579	0.7566	0.1515	0.112
Mof_H 	H 	0.3909	0.7577	0.0693	0.107
Mof_H 	H 	0.5489	0.3293	0.7876	0.018
Mof_H 	H 	0.4792	0.5064	0.8137	0.097
Mof_H 	H 	0.4884	0.6122	0.9056	0.1
Mof_H 	H 	0.454	0.523	0.9645	0.021
Mof_H 	H 	0.6182	0.9512	0.2095	0.075
Mof_H 	H 	0.4358	0.2436	0.2435	-0.001
Mof_H 	H 	0.0971	0.4423	0.6913	-0.023
Mof_H 	H 	0.1087	0.5897	0.5842	0.009
Mof_H 	H 	0.0991	0.0049	0.674	-0.003
Mof_H 	H 	0.6635	0.2045	0.6798	0.022
Mof_H 	H 	0.6145	0.3287	0.5698	0
Mof_H 	H 	0.0433	0.1291	0.5641	-0.013
Mof_H 	H 	0.9015	0.0611	0.5678	0.101
Mof_H 	H 	0.6045	0.7601	0.6638	-0.008
Mof_H 	H 	0.6349	0.8605	0.552	-0.022
Mof_H 	H 	0.6137	0.1327	0.4375	0.014
Mof_H 	H 	0.7566	0.579	0.6515	0.112
Mof_H 	H 	0.7577	0.3909	0.5693	0.107
Mof_H 	H 	0.3293	0.5489	0.2876	0.018
Mof_H 	H 	0.5064	0.4792	0.3137	0.097
Mof_H 	H 	0.6122	0.4884	0.4056	0.1
Mof_H 	H 	0.523	0.454	0.4645	0.021
Mof_H 	H 	0.9512	0.6182	0.7095	0.075
Mof_C 	C 	0.2177	0.5313	0.12494	0.488
Mof_C 	C 	0.258	0.6252	0.12474	-0.202
Mof_C 	C 	0.1146	0.1798	0.11935	0.518
Mof_C 	C 	0.0726	0.088	0.11909	-0.22
Mof_C 	C 	0.4398	0.2454	0.74768	0.398
Mof_C 	C 	0.4028	0.3614	0.76311	-0.166
Mof_C 	C 	0.7029	0.9475	0.1564	0.12
Mof_C 	C 	0.6187	0.7777	0.09419	0.135
Mof_C 	C 	0.292	0.4498	0.75765	0.101
Mof_C 	C 	0.831	0.6028	0.10862	-0.235
Mof_C 	C 	0.5065	0.0707	0.17326	0.132
Mof_C 	C 	0.4976	0.1188	0.13523	-0.212
Mof_C 	C 	0.5954	0.0764	0.1098	0.126
Mof_C 	C 	0.9954	0.9212	0.12335	0.125
Mof_C 	C 	0.3311	0.7933	0.12361	0.125
Mof_C 	C 	0.0166	0.059	0.15224	0.135
Mof_C 	C 	0.9492	0.5078	0.11483	0.525
Mof_C 	C 	0.3317	0.6585	0.88801	0.118
Mof_C 	C 	0.3215	0.5731	0.79195	0.113
Mof_C 	C 	0.3853	0.2133	0.12201	0.483
Mof_C 	C 	0.241	0.6834	0.1572	0.11
Mof_C 	C 	0.3151	0.6537	0.09195	0.129
Mof_C 	C 	0.0905	0.0273	0.08694	0.133
Mof_C 	C 	0.0506	0.9428	0.0891	-0.186
Mof_C 	C 	0.2623	0.4961	0.99439	0.342
Mof_C 	C 	0.2881	0.5557	0.95752	-0.144
Mof_C 	C 	0.7453	0.6397	0.13876	0.15
Mof_C 	C 	0.8031	0.6585	0.07244	0.147
Mof_C 	C 	0.2064	0.6112	0.93103	0.09
Mof_C 	C 	0.6374	0.7296	0.13154	-0.204
Mof_C 	C 	0.3521	0.7385	0.09143	-0.2
Mof_C 	C 	0.4733	0.3853	0.78389	0.09
Mof_C 	C 	0.433	0.4906	0.79905	-0.164
Mof_C 	C 	0.4169	0.6101	0.91234	-0.169
Mof_C 	C 	0.3958	0.5576	0.94741	0.086
Mof_C 	C 	0.6103	0.9843	0.18405	-0.185
Mof_C 	C 	0.5313	0.2177	0.62494	0.488
Mof_C 	C 	0.6252	0.258	0.62474	-0.202
Mof_C 	C 	0.1798	0.1146	0.61935	0.518
Mof_C 	C 	0.088	0.0726	0.61909	-0.22
Mof_C 	C 	0.2454	0.4398	0.24768	0.398
Mof_C 	C 	0.3614	0.4028	0.26311	-0.166
Mof_C 	C 	0.9475	0.7029	0.6564	0.12
Mof_C 	C 	0.7777	0.6187	0.59419	0.135
Mof_C 	C 	0.4498	0.292	0.25765	0.101
Mof_C 	C 	0.6028	0.831	0.60862	-0.235
Mof_C 	C 	0.0707	0.5065	0.67326	0.132
Mof_C 	C 	0.1188	0.4976	0.63523	-0.212
Mof_C 	C 	0.0764	0.5954	0.6098	0.126
Mof_C 	C 	0.9212	0.9954	0.62335	0.126
Mof_C 	C 	0.7933	0.3311	0.62361	0.125
Mof_C 	C 	0.059	0.0166	0.65224	0.135
Mof_C 	C 	0.5078	0.9492	0.61483	0.525
Mof_C 	C 	0.6585	0.3317	0.38801	0.118
Mof_C 	C 	0.5731	0.3215	0.29195	0.113
Mof_C 	C 	0.2133	0.3853	0.62201	0.483
Mof_C 	C 	0.6834	0.241	0.6572	0.11
Mof_C 	C 	0.6537	0.3151	0.59195	0.129
Mof_C 	C 	0.0273	0.0905	0.58694	0.134
Mof_C 	C 	0.9428	0.0506	0.5891	-0.187
Mof_C 	C 	0.4961	0.2623	0.49439	0.342
Mof_C 	C 	0.5557	0.2881	0.45752	-0.144
Mof_C 	C 	0.6397	0.7453	0.63876	0.15
Mof_C 	C 	0.6585	0.8031	0.57244	0.147
Mof_C 	C 	0.6112	0.2064	0.43103	0.09
Mof_C 	C 	0.7296	0.6374	0.63154	-0.204
Mof_C 	C 	0.7385	0.3521	0.59143	-0.2
Mof_C 	C 	0.3853	0.4733	0.28389	0.09
Mof_C 	C 	0.4906	0.433	0.29905	-0.164
Mof_C 	C 	0.6101	0.4169	0.41234	-0.169
Mof_C 	C 	0.5576	0.3958	0.44741	0.086
Mof_C 	C 	0.9843	0.6103	0.68405	-0.185
Mof_S 	S 	0.83523	0.83465	0.17277	-0.036
Mof_S 	S 	0.37265	0.90797	0.12679	-0.024
Mof_S 	S 	0.2516	0.71668	0.80748	-0.021
Mof_S 	S 	0.36339	0.72381	0.84171	-0.026
Mof_S 	S 	0.4863	0.89476	0.07967	-0.042
Mof_S 	S 	0.94962	0.80732	0.12547	-0.013
Mof_S 	S 	0.83465	0.83523	0.67277	-0.036
Mof_S 	S 	0.90797	0.37265	0.62679	-0.024
Mof_S 	S 	0.71668	0.2516	0.30748	-0.021
Mof_S 	S 	0.72381	0.36339	0.34171	-0.026
Mof_S 	S 	0.89476	0.4863	0.57967	-0.042
Mof_S 	S 	0.80732	0.94962	0.62547	-0.013
Mof_N 	N 	0.25126	0.55406	0.77166	-0.154
Mof_N 	N 	0.2255	0.6629	0.89585	-0.137
Mof_N 	N 	0.9777	0.9759	0.15516	-0.146
Mof_N 	N 	0.6988	0.7444	0.06463	-0.168
Mof_N 	N 	0.2762	0.7698	0.15706	-0.137
Mof_N 	N 	0.6983	0.9919	0.11953	-0.143
Mof_N 	N 	0.55406	0.25126	0.27166	-0.154
Mof_N 	N 	0.6629	0.2255	0.39585	-0.137
Mof_N 	N 	0.9759	0.9777	0.65516	-0.146
Mof_N 	N 	0.7444	0.6988	0.56463	-0.168
Mof_N 	N 	0.7698	0.2762	0.65706	-0.137
Mof_N 	N 	0.9919	0.6983	0.61953	-0.143
Mof_O 	O 	0.10329	0.21849	0.15139	-0.516
Mof_O 	O 	0.36314	0.22954	0.73376	-0.474
Mof_O 	O 	0.2273	0.4907	0.09354	-0.48
Mof_O 	O 	0.15746	0.21086	0.08833	-0.516
Mof_O 	O 	0.17592	0.50272	0.15682	-0.466
Mof_O 	O 	0.3442	0.4266	0.01406	-0.371
Mof_O 	O 	0.37984	0.23924	0.08587	-0.474
Mof_O 	O 	0.30416	0.26056	0.14684	-0.508
Mof_O 	O 	0.01781	0.47121	0.08606	-0.513
Mof_O 	O 	0.97028	0.46988	0.14929	-0.499
Mof_O 	O 	0.15886	0.51266	0.00486	-0.419
Mof_O 	O 	0.54356	0.17016	0.75037	-0.289
Mof_O 	O 	0.21849	0.10329	0.65139	-0.516
Mof_O 	O 	0.22954	0.36314	0.23376	-0.474
Mof_O 	O 	0.4907	0.2273	0.59354	-0.48
Mof_O 	O 	0.21086	0.15746	0.58833	-0.516
Mof_O 	O 	0.50272	0.17592	0.65682	-0.466
Mof_O 	O 	0.4266	0.3442	0.51406	-0.371
Mof_O 	O 	0.23924	0.37984	0.58587	-0.474
Mof_O 	O 	0.26056	0.30416	0.64684	-0.508
Mof_O 	O 	0.47121	0.01781	0.58606	-0.513
Mof_O 	O 	0.46988	0.97028	0.64929	-0.499
Mof_O 	O 	0.51266	0.15886	0.50486	-0.419
Mof_O 	O 	0.17016	0.54356	0.25037	-0.289
Mof_Gd	Gd	0.63914	0.79623	0.4414	1.692
Mof_Gd	Gd	0.65173	0.86927	0.31557	1.642
Mof_Gd	Gd	0.79623	0.63914	0.9414	1.692
Mof_Gd	Gd	0.86927	0.65173	0.81557	1.642
Mof_H 	H 	0.5642	0.7564	0.7565	-0.001
Mof_H 	H 	0.9029	0.5577	0.3087	-0.023
Mof_H 	H 	0.8913	0.4103	0.4158	0.009
Mof_H 	H 	0.9009	0.9951	0.326	-0.003
Mof_H 	H 	0.3365	0.7955	0.3202	0.022
Mof_H 	H 	0.3855	0.6713	0.4302	0
Mof_H 	H 	0.9567	0.8709	0.4359	-0.013
Mof_H 	H 	0.0985	0.9389	0.4322	0.101
Mof_H 	H 	0.3955	0.2399	0.3362	-0.008
Mof_H 	H 	0.3651	0.1395	0.448	-0.022
Mof_H 	H 	0.3863	0.8673	0.5625	0.014
Mof_H 	H 	0.2434	0.421	0.3485	0.112
Mof_H 	H 	0.2423	0.6091	0.4307	0.107
Mof_H 	H 	0.6707	0.4511	0.7124	0.018
Mof_H 	H 	0.4936	0.5208	0.6863	0.097
Mof_H 	H 	0.3878	0.5116	0.5944	0.1
Mof_H 	H 	0.477	0.546	0.5355	0.021
Mof_H 	H 	0.0488	0.3818	0.2905	0.075
Mof_H 	H 	0.7564	0.5642	0.2565	-0.001
Mof_H 	H 	0.5577	0.9029	0.8087	-0.023
Mof_H 	H 	0.4103	0.8913	0.9158	0.009
Mof_H 	H 	0.9951	0.9009	0.826	-0.003
Mof_H 	H 	0.7955	0.3365	0.8202	0.022
Mof_H 	H 	0.6713	0.3855	0.9302	0
Mof_H 	H 	0.8709	0.9567	0.9359	-0.013
Mof_H 	H 	0.9389	0.0985	0.9322	0.101
Mof_H 	H 	0.2399	0.3955	0.8362	-0.008
Mof_H 	H 	0.1395	0.3651	0.948	-0.022
Mof_H 	H 	0.8673	0.3863	0.0625	0.014
Mof_H 	H 	0.421	0.2434	0.8485	0.112
Mof_H 	H 	0.6091	0.2423	0.9307	0.107
Mof_H 	H 	0.4511	0.6707	0.2124	0.018
Mof_H 	H 	0.5208	0.4936	0.1863	0.097
Mof_H 	H 	0.5116	0.3878	0.0944	0.1
Mof_H 	H 	0.546	0.477	0.0355	0.021
Mof_H 	H 	0.3818	0.0488	0.7905	0.075
Mof_C 	C 	0.4687	0.7823	0.37506	0.488
Mof_C 	C 	0.3748	0.742	0.37526	-0.202
Mof_C 	C 	0.8202	0.8854	0.38065	0.518
Mof_C 	C 	0.912	0.9274	0.38091	-0.22
Mof_C 	C 	0.7546	0.5602	0.75232	0.398
Mof_C 	C 	0.6386	0.5972	0.73689	-0.166
Mof_C 	C 	0.0525	0.2971	0.3436	0.12
Mof_C 	C 	0.2223	0.3813	0.40581	0.135
Mof_C 	C 	0.5502	0.708	0.74235	0.101
Mof_C 	C 	0.3972	0.169	0.39138	-0.235
Mof_C 	C 	0.9293	0.4935	0.32674	0.132
Mof_C 	C 	0.8812	0.5024	0.36477	-0.212
Mof_C 	C 	0.9236	0.4046	0.3902	0.126
Mof_C 	C 	0.0788	0.0046	0.37665	0.126
Mof_C 	C 	0.2067	0.6689	0.37639	0.125
Mof_C 	C 	0.941	0.9834	0.34776	0.135
Mof_C 	C 	0.4922	0.0508	0.38517	0.525
Mof_C 	C 	0.3415	0.6683	0.61199	0.118
Mof_C 	C 	0.4269	0.6785	0.70805	0.113
Mof_C 	C 	0.7867	0.6147	0.37799	0.483
Mof_C 	C 	0.3166	0.759	0.3428	0.11
Mof_C 	C 	0.3463	0.6849	0.40805	0.129
Mof_C 	C 	0.9727	0.9095	0.41306	0.134
Mof_C 	C 	0.0572	0.9494	0.4109	-0.187
Mof_C 	C 	0.5039	0.7377	0.50561	0.342
Mof_C 	C 	0.4443	0.7119	0.54248	-0.144
Mof_C 	C 	0.3603	0.2547	0.36124	0.15
Mof_C 	C 	0.3415	0.1969	0.42756	0.147
Mof_C 	C 	0.3888	0.7936	0.56897	0.09
Mof_C 	C 	0.2704	0.3626	0.36846	-0.204
Mof_C 	C 	0.2615	0.6479	0.40857	-0.2
Mof_C 	C 	0.6147	0.5267	0.71611	0.09
Mof_C 	C 	0.5094	0.567	0.70095	-0.164
Mof_C 	C 	0.3899	0.5831	0.58766	-0.169
Mof_C 	C 	0.4424	0.6042	0.55259	0.086
Mof_C 	C 	0.0157	0.3897	0.31595	-0.185
Mof_C 	C 	0.7823	0.4687	0.87506	0.488
Mof_C 	C 	0.742	0.3748	0.87526	-0.202
Mof_C 	C 	0.8854	0.8202	0.88065	0.518
Mof_C 	C 	0.9274	0.912	0.88091	-0.22
Mof_C 	C 	0.5602	0.7546	0.25232	0.398
Mof_C 	C 	0.5972	0.6386	0.23689	-0.166
Mof_C 	C 	0.2971	0.0525	0.8436	0.12
Mof_C 	C 	0.3813	0.2223	0.90581	0.135
Mof_C 	C 	0.708	0.5502	0.24235	0.101
Mof_C 	C 	0.169	0.3972	0.89138	-0.235
Mof_C 	C 	0.4935	0.9293	0.82674	0.132
Mof_C 	C 	0.5024	0.8812	0.86477	-0.212
Mof_C 	C 	0.4046	0.9236	0.8902	0.126
Mof_C 	C 	0.0046	0.0788	0.87665	0.125
Mof_C 	C 	0.6689	0.2067	0.87639	0.125
Mof_C 	C 	0.9834	0.941	0.84776	0.135
Mof_C 	C 	0.0508	0.4922	0.88517	0.525
Mof_C 	C 	0.6683	0.3415	0.11199	0.118
Mof_C 	C 	0.6785	0.4269	0.20805	0.113
Mof_C 	C 	0.6147	0.7867	0.87799	0.483
Mof_C 	C 	0.759	0.3166	0.8428	0.11
Mof_C 	C 	0.6849	0.3463	0.90805	0.129
Mof_C 	C 	0.9095	0.9727	0.91306	0.133
Mof_C 	C 	0.9494	0.0572	0.9109	-0.186
Mof_C 	C 	0.7377	0.5039	0.00561	0.342
Mof_C 	C 	0.7119	0.4443	0.04248	-0.144
Mof_C 	C 	0.2547	0.3603	0.86124	0.15
Mof_C 	C 	0.1969	0.3415	0.92756	0.147
Mof_C 	C 	0.7936	0.3888	0.06897	0.09
Mof_C 	C 	0.3626	0.2704	0.86846	-0.204
Mof_C 	C 	0.6479	0.2615	0.90857	-0.2
Mof_C 	C 	0.5267	0.6147	0.21611	0.09
Mof_C 	C 	0.567	0.5094	0.20095	-0.164
Mof_C 	C 	0.5831	0.3899	0.08766	-0.169
Mof_C 	C 	0.6042	0.4424	0.05259	0.086
Mof_C 	C 	0.3897	0.0157	0.81595	-0.185
Mof_S 	S 	0.16535	0.16477	0.32723	-0.036
Mof_S 	S 	0.09203	0.62735	0.37321	-0.024
Mof_S 	S 	0.28332	0.7484	0.69252	-0.021
Mof_S 	S 	0.27619	0.63661	0.65829	-0.026
Mof_S 	S 	0.10524	0.5137	0.42033	-0.042
Mof_S 	S 	0.19268	0.05038	0.37453	-0.013
Mof_S 	S 	0.16477	0.16535	0.82723	-0.036
Mof_S 	S 	0.62735	0.09203	0.87321	-0.024
Mof_S 	S 	0.7484	0.28332	0.19252	-0.021
Mof_S 	S 	0.63661	0.27619	0.15829	-0.026
Mof_S 	S 	0.5137	0.10524	0.92033	-0.042
Mof_S 	S 	0.05038	0.19268	0.87453	-0.013
Mof_N 	N 	0.44594	0.74874	0.72834	-0.154
Mof_N 	N 	0.3371	0.7745	0.60415	-0.137
Mof_N 	N 	0.0241	0.0223	0.34484	-0.146
Mof_N 	N 	0.2556	0.3012	0.43537	-0.168
Mof_N 	N 	0.2302	0.7238	0.34294	-0.137
Mof_N 	N 	0.0081	0.3017	0.38047	-0.143
Mof_N 	N 	0.74874	0.44594	0.22834	-0.154
Mof_N 	N 	0.7745	0.3371	0.10415	-0.137
Mof_N 	N 	0.0223	0.0241	0.84484	-0.146
Mof_N 	N 	0.3012	0.2556	0.93537	-0.168
Mof_N 	N 	0.7238	0.2302	0.84294	-0.137
Mof_N 	N 	0.3017	0.0081	0.88047	-0.143
Mof_O 	O 	0.78151	0.89671	0.34861	-0.516
Mof_O 	O 	0.77046	0.63686	0.76624	-0.474
Mof_O 	O 	0.5093	0.7727	0.40646	-0.48
Mof_O 	O 	0.78914	0.84254	0.41167	-0.516
Mof_O 	O 	0.49728	0.82408	0.34318	-0.466
Mof_O 	O 	0.5734	0.6558	0.48594	-0.371
Mof_O 	O 	0.76076	0.62016	0.41413	-0.474
Mof_O 	O 	0.73944	0.69584	0.35316	-0.508
Mof_O 	O 	0.52879	0.98219	0.41394	-0.513
Mof_O 	O 	0.53012	0.02972	0.35071	-0.499
Mof_O 	O 	0.48734	0.84114	0.49514	-0.419
Mof_O 	O 	0.82984	0.45644	0.74963	-0.289
Mof_O 	O 	0.89671	0.78151	0.84861	-0.516
Mof_O 	O 	0.63686	0.77046	0.26624	-0.474
Mof_O 	O 	0.7727	0.5093	0.90646	-0.48
Mof_O 	O 	0.84254	0.78914	0.91167	-0.516
Mof_O 	O 	0.82408	0.49728	0.84318	-0.466
Mof_O 	O 	0.6558	0.5734	0.98594	-0.371
Mof_O 	O 	0.62016	0.76076	0.91413	-0.474
Mof_O 	O 	0.69584	0.73944	0.85316	-0.508
Mof_O 	O 	0.98219	0.52879	0.91394	-0.513
Mof_O 	O 	0.02972	0.53012	0.85071	-0.499
Mof_O 	O 	0.84114	0.48734	0.99514	-0.419
Mof_O 	O 	0.45644	0.82984	0.24963	-0.289
_end
