data_functionalizedCrystal
_audit_creation_method	'EQeq! by Chris Wilmer'
_symmetry_space_group_name_H-M	'P1'
_symmetry_Int_Tables_number	1
_symmetry_cell_setting	triclinic
loop_
_symmetry_equiv_pos_as_xyz
  x,y,z
_cell_length_a	10.043
_cell_length_b	14.119
_cell_length_c	10.21
_cell_angle_alpha	92.16
_cell_angle_beta	90
_cell_angle_gamma	90
loop_
_atom_site_label
_atom_site_type_symbol
_atom_site_fract_x
_atom_site_fract_y
_atom_site_fract_z
_atom_site_charge
Mof_Cu	Cu	0.24873	0.28577	0.92551	0.937
Mof_Cu	Cu	0.2325	0.78889	0.93342	0.885
Mof_Cu	Cu	0.8735	0.76946	0.69948	0.922
Mof_Cu	Cu	0.4059	0.78232	0.65479	0.93
Mof_Cu	Cu	0.28175	0.66388	0.40682	0.914
Mof_Cu	Cu	0.26349	0.87609	0.44215	0.926
Mof_Cu	Cu	0.25737	0.28781	0.43813	0.957
Mof_Cu	Cu	0.75127	0.28577	0.42551	0.955
Mof_Cu	Cu	0.7675	0.78889	0.43342	0.929
Mof_Cu	Cu	0.1265	0.76946	0.19948	0.927
Mof_Cu	Cu	0.5941	0.78232	0.15479	0.953
Mof_Cu	Cu	0.71825	0.66388	0.90682	0.896
Mof_Cu	Cu	0.73651	0.87609	0.94215	0.901
Mof_Cu	Cu	0.74263	0.28781	0.93813	0.932
Mof_H 	H 	0.3641	0.494	0.7774	0.044
Mof_H 	H 	0.1749	0.5217	0.6077	0.089
Mof_H 	H 	0.0055	0.4504	0.7072	0.078
Mof_H 	H 	0.0587	0.5069	0.9697	0.048
Mof_H 	H 	0.1254	0.0935	0.0939	0.077
Mof_H 	H 	0.3171	0.0537	0.2561	0.106
Mof_H 	H 	0.4962	0.1059	0.1501	0.079
Mof_H 	H 	0.4288	0.0682	0.8898	0.087
Mof_H 	H 	0.025	0.848	0.019	0.204
Mof_H 	H 	0.927	0.754	0.929	0.19
Mof_H 	H 	0.404	0.8728	0.849	0.185
Mof_H 	H 	0.473	0.777	0.418	0.232
Mof_H 	H 	0.6359	0.494	0.2774	0.058
Mof_H 	H 	0.8251	0.5217	0.1077	0.118
Mof_H 	H 	0.9945	0.4504	0.2072	0.094
Mof_H 	H 	0.9413	0.5069	0.4697	0.081
Mof_H 	H 	0.8746	0.0935	0.5939	0.084
Mof_H 	H 	0.6829	0.0537	0.7561	0.095
Mof_H 	H 	0.5038	0.1059	0.6501	0.078
Mof_H 	H 	0.5712	0.0682	0.3898	0.078
Mof_H 	H 	0.975	0.848	0.519	0.192
Mof_H 	H 	0.073	0.754	0.429	0.226
Mof_H 	H 	0.596	0.8728	0.349	0.203
Mof_H 	H 	0.527	0.777	0.918	0.227
Mof_C 	C 	0.2744	0.4637	0.7682	-0.003
Mof_C 	C 	0.1763	0.5324	0.7051	-0.131
Mof_C 	C 	0.0435	0.5024	0.7649	-0.095
Mof_C 	C 	0.0806	0.4597	0.8975	-0.031
Mof_C 	C 	0.2844	0.3724	0.6825	0.299
Mof_C 	C 	0.2181	0.6328	0.7412	0.395
Mof_C 	C 	0.9412	0.581	0.7758	0.38
Mof_C 	C 	0.0024	0.3692	0.9188	0.337
Mof_C 	C 	0.2192	0.1171	0.0982	0.075
Mof_C 	C 	0.3099	0.0424	0.1591	-0.151
Mof_C 	C 	0.4444	0.0609	0.0918	-0.022
Mof_C 	C 	0.4094	0.1126	0.966	-0.117
Mof_C 	C 	0.2252	0.2107	0.1785	0.306
Mof_C 	C 	0.2582	0.9436	0.1264	0.399
Mof_C 	C 	0.5298	0.9728	0.0663	0.475
Mof_C 	C 	0.4917	0.2017	0.9488	0.343
Mof_C 	C 	0.7256	0.4637	0.2682	-0.002
Mof_C 	C 	0.8237	0.5324	0.2051	-0.129
Mof_C 	C 	0.9565	0.5024	0.2649	-0.086
Mof_C 	C 	0.9194	0.4597	0.3975	-0.038
Mof_C 	C 	0.7156	0.3724	0.1825	0.297
Mof_C 	C 	0.7819	0.6328	0.2412	0.39
Mof_C 	C 	0.0588	0.581	0.2758	0.378
Mof_C 	C 	0.9976	0.3692	0.4188	0.348
Mof_C 	C 	0.7808	0.1171	0.5982	-0.026
Mof_C 	C 	0.6901	0.0424	0.6591	-0.122
Mof_C 	C 	0.5556	0.0609	0.5918	-0.084
Mof_C 	C 	0.5906	0.1126	0.466	-0.037
Mof_C 	C 	0.7748	0.2107	0.6785	0.329
Mof_C 	C 	0.7418	0.9436	0.6264	0.397
Mof_C 	C 	0.4702	0.9728	0.5663	0.364
Mof_C 	C 	0.5083	0.2017	0.4488	0.335
Mof_Cl	Cl	0.11134	0.96255	0.54715	-0.504
Mof_Cl	Cl	0.62796	0.69117	0.64913	-0.598
Mof_Cl	Cl	0.88866	0.96255	0.04715	-0.421
Mof_Cl	Cl	0.37204	0.69117	0.14913	-0.546
Mof_O 	O 	0.2212	0.445	0.8954	-0.24
Mof_O 	O 	0.2441	0.2963	0.7277	-0.359
Mof_O 	O 	0.3272	0.38188	0.5674	-0.352
Mof_O 	O 	0.2784	0.6755	0.6518	-0.478
Mof_O 	O 	0.1947	0.66421	0.8555	-0.428
Mof_O 	O 	0.9535	0.64498	0.694	-0.412
Mof_O 	O 	0.8536	0.57404	0.8622	-0.439
Mof_O 	O 	0.8791	0.38045	0.9189	-0.405
Mof_O 	O 	0.0587	0.293	0.9392	-0.416
Mof_O 	O 	0.0671	0.78683	0.0243	-0.503
Mof_O 	O 	0.8455	0.76809	0.887	-0.672
Mof_O 	O 	0.2695	0.12938	0.9678	-0.275
Mof_O 	O 	0.2578	0.2847	0.1234	-0.306
Mof_O 	O 	0.1988	0.20365	0.2985	-0.351
Mof_O 	O 	0.2106	0.8962	0.2164	-0.467
Mof_O 	O 	0.2679	0.91634	0.0067	-0.353
Mof_O 	O 	0.5271	0.91423	0.1551	-0.435
Mof_O 	O 	0.5954	0.96732	0.9615	-0.495
Mof_O 	O 	0.6133	0.1916	0.9718	-0.408
Mof_O 	O 	0.4389	0.27569	0.9122	-0.419
Mof_O 	O 	0.3928	0.80648	0.8387	-0.592
Mof_O 	O 	0.3914	0.76816	0.4659	-0.658
Mof_O 	O 	0.7788	0.445	0.3954	-0.217
Mof_O 	O 	0.7559	0.2963	0.2277	-0.337
Mof_O 	O 	0.6728	0.38188	0.0674	-0.292
Mof_O 	O 	0.7216	0.6755	0.1518	-0.44
Mof_O 	O 	0.8053	0.66421	0.3555	-0.4
Mof_O 	O 	0.0465	0.64498	0.194	-0.389
Mof_O 	O 	0.1464	0.57404	0.3622	-0.412
Mof_O 	O 	0.1209	0.38045	0.4189	-0.374
Mof_O 	O 	0.9413	0.293	0.4392	-0.383
Mof_O 	O 	0.9329	0.78683	0.5243	-0.558
Mof_O 	O 	0.1545	0.76809	0.387	-0.663
Mof_O 	O 	0.7305	0.12938	0.4678	-0.209
Mof_O 	O 	0.7422	0.2847	0.6234	-0.366
Mof_O 	O 	0.8012	0.20365	0.7985	-0.37
Mof_O 	O 	0.7894	0.8962	0.7164	-0.477
Mof_O 	O 	0.7321	0.91634	0.5067	-0.408
Mof_O 	O 	0.4729	0.91423	0.6551	-0.423
Mof_O 	O 	0.4046	0.96732	0.4615	-0.402
Mof_O 	O 	0.3867	0.1916	0.4718	-0.366
Mof_O 	O 	0.5611	0.27569	0.4122	-0.389
Mof_O 	O 	0.6072	0.80648	0.3387	-0.579
Mof_O 	O 	0.6086	0.76816	0.9659	-0.704
_end
