data_functionalizedCrystal
_audit_creation_method	'EQeq! by Chris Wilmer'
_symmetry_space_group_name_H-M	'P1'
_symmetry_Int_Tables_number	1
_symmetry_cell_setting	triclinic
loop_
_symmetry_equiv_pos_as_xyz
  x,y,z
_cell_length_a	9.1262
_cell_length_b	9.6798
_cell_length_c	22.2733
_cell_angle_alpha	90
_cell_angle_beta	90
_cell_angle_gamma	117.872
loop_
_atom_site_label
_atom_site_type_symbol
_atom_site_fract_x
_atom_site_fract_y
_atom_site_fract_z
_atom_site_charge
Mof_Dy	Dy	0.61898	0.35499	0.00833	2.278
Mof_Dy	Dy	0.88102	0.64501	0.50833	2.281
Mof_Dy	Dy	0.38102	0.64501	0.99167	2.278
Mof_Dy	Dy	0.11898	0.35499	0.49167	2.281
Mof_Ag	Ag	0.01259	0.68019	0.85187	0.688
Mof_Ag	Ag	0.48741	0.31981	0.35187	0.696
Mof_Ag	Ag	0.98741	0.31981	0.14813	0.688
Mof_Ag	Ag	0.51259	0.68019	0.64813	0.696
Mof_H 	H 	0.9447	0.2265	0.9283	-0.017
Mof_H 	H 	0.745	0.0367	0.8683	0.116
Mof_H 	H 	0.7764	0.8236	0.8405	-0.037
Mof_H 	H 	0.1833	0.9721	0.9343	-0.023
Mof_H 	H 	0.987	0.6394	0.7165	-0.024
Mof_H 	H 	0.1018	0.3097	0.66	-0.016
Mof_H 	H 	0.1383	0.2633	0.7599	0.096
Mof_H 	H 	0.1097	0.4129	0.8337	-0.016
Mof_H 	H 	0.5553	0.7735	0.4283	-0.019
Mof_H 	H 	0.755	0.9633	0.3683	0.116
Mof_H 	H 	0.7236	0.1764	0.3405	-0.038
Mof_H 	H 	0.3167	0.0279	0.4343	-0.026
Mof_H 	H 	0.513	0.3606	0.2165	-0.03
Mof_H 	H 	0.3982	0.6903	0.16	-0.017
Mof_H 	H 	0.3617	0.7367	0.2599	0.098
Mof_H 	H 	0.3903	0.5871	0.3337	-0.017
Mof_H 	H 	0.0553	0.7735	0.0717	-0.017
Mof_H 	H 	0.255	0.9633	0.1317	0.116
Mof_H 	H 	0.2236	0.1764	0.1595	-0.037
Mof_H 	H 	0.8167	0.0279	0.0657	-0.023
Mof_H 	H 	0.013	0.3606	0.2835	-0.024
Mof_H 	H 	0.8982	0.6903	0.34	-0.016
Mof_H 	H 	0.8617	0.7367	0.2401	0.096
Mof_H 	H 	0.8903	0.5871	0.1663	-0.016
Mof_H 	H 	0.4447	0.2265	0.5717	-0.019
Mof_H 	H 	0.245	0.0367	0.6317	0.116
Mof_H 	H 	0.2764	0.8236	0.6595	-0.038
Mof_H 	H 	0.6833	0.9721	0.5657	-0.026
Mof_H 	H 	0.487	0.6394	0.7835	-0.03
Mof_H 	H 	0.6018	0.3097	0.84	-0.017
Mof_H 	H 	0.6383	0.2633	0.7401	0.098
Mof_H 	H 	0.6097	0.4129	0.6663	-0.017
Mof_C 	C 	0.2239	0.2452	0.9742	0.532
Mof_C 	C 	0.0875	0.1193	0.9375	-0.232
Mof_C 	C 	0.9541	0.1382	0.9175	0.154
Mof_C 	C 	0.836	0.0263	0.8816	-0.209
Mof_C 	C 	0.855	0.8983	0.8656	0.13
Mof_C 	C 	0.0954	0.9866	0.9205	0.135
Mof_C 	C 	0.0193	0.5635	0.725	0.123
Mof_C 	C 	0.0397	0.4811	0.6775	-0.244
Mof_C 	C 	0.0864	0.3671	0.6905	0.128
Mof_C 	C 	0.1096	0.3408	0.7499	-0.207
Mof_C 	C 	0.0901	0.4295	0.7941	0.118
Mof_C 	C 	0.0098	0.5171	0.6149	0.52
Mof_C 	C 	0.5085	0.0082	0.9655	0.274
Mof_C 	C 	0.9984	0.5209	0.9668	0.271
Mof_C 	C 	0.2761	0.7548	0.4742	0.535
Mof_C 	C 	0.4125	0.8807	0.4375	-0.241
Mof_C 	C 	0.5459	0.8618	0.4175	0.157
Mof_C 	C 	0.664	0.9737	0.3816	-0.211
Mof_C 	C 	0.645	0.1017	0.3656	0.13
Mof_C 	C 	0.4046	0.0134	0.4205	0.149
Mof_C 	C 	0.4807	0.4365	0.225	0.132
Mof_C 	C 	0.4603	0.5189	0.1775	-0.248
Mof_C 	C 	0.4136	0.6329	0.1905	0.132
Mof_C 	C 	0.3904	0.6592	0.2499	-0.209
Mof_C 	C 	0.4099	0.5705	0.2941	0.12
Mof_C 	C 	0.4902	0.4829	0.1149	0.525
Mof_C 	C 	0.9915	0.9918	0.4655	0.271
Mof_C 	C 	0.5016	0.4791	0.4668	0.268
Mof_C 	C 	0.7761	0.7548	0.0258	0.532
Mof_C 	C 	0.9125	0.8807	0.0625	-0.232
Mof_C 	C 	0.0459	0.8618	0.0825	0.154
Mof_C 	C 	0.164	0.9737	0.1184	-0.209
Mof_C 	C 	0.145	0.1017	0.1344	0.13
Mof_C 	C 	0.9046	0.0134	0.0795	0.135
Mof_C 	C 	0.9807	0.4365	0.275	0.123
Mof_C 	C 	0.9603	0.5189	0.3225	-0.244
Mof_C 	C 	0.9136	0.6329	0.3095	0.128
Mof_C 	C 	0.8904	0.6592	0.2501	-0.207
Mof_C 	C 	0.9099	0.5705	0.2059	0.118
Mof_C 	C 	0.9902	0.4829	0.3851	0.52
Mof_C 	C 	0.4915	0.9918	0.0345	0.274
Mof_C 	C 	0.0016	0.4791	0.0332	0.271
Mof_C 	C 	0.7239	0.2452	0.5258	0.535
Mof_C 	C 	0.5875	0.1193	0.5625	-0.241
Mof_C 	C 	0.4541	0.1382	0.5825	0.157
Mof_C 	C 	0.336	0.0263	0.6184	-0.211
Mof_C 	C 	0.355	0.8983	0.6344	0.13
Mof_C 	C 	0.5954	0.9866	0.5795	0.149
Mof_C 	C 	0.5193	0.5635	0.775	0.132
Mof_C 	C 	0.5397	0.4811	0.8225	-0.248
Mof_C 	C 	0.5864	0.3671	0.8095	0.132
Mof_C 	C 	0.6096	0.3408	0.7501	-0.209
Mof_C 	C 	0.5901	0.4295	0.7059	0.12
Mof_C 	C 	0.5098	0.5171	0.8851	0.525
Mof_C 	C 	0.0085	0.0082	0.5345	0.271
Mof_C 	C 	0.4984	0.5209	0.5332	0.268
Mof_N 	N 	0.9815	0.8765	0.88467	-0.233
Mof_N 	N 	0.0438	0.5394	0.78229	-0.234
Mof_N 	N 	0.5185	0.1235	0.38467	-0.239
Mof_N 	N 	0.4562	0.4606	0.28229	-0.236
Mof_N 	N 	0.0185	0.1235	0.11533	-0.233
Mof_N 	N 	0.9562	0.4606	0.21771	-0.234
Mof_N 	N 	0.4815	0.8765	0.61533	-0.239
Mof_N 	N 	0.5438	0.5394	0.71771	-0.236
Mof_O 	O 	0.3271	0.212	0.99864	-0.539
Mof_O 	O 	0.2224	0.3731	0.97555	-0.556
Mof_O 	O 	0.9482	0.6079	0.60749	-0.532
Mof_O 	O 	0.0478	0.4537	0.57281	-0.614
Mof_O 	O 	0.1337	0.6156	0.9436	-0.498
Mof_O 	O 	0.8607	0.4575	0.94094	-0.45
Mof_O 	O 	0.5785	0.1435	0.94446	-0.45
Mof_O 	O 	0.4505	0.8827	0.93628	-0.434
Mof_O 	O 	0.1729	0.788	0.49864	-0.543
Mof_O 	O 	0.2776	0.6269	0.47555	-0.557
Mof_O 	O 	0.5518	0.3921	0.10749	-0.534
Mof_O 	O 	0.4522	0.5463	0.07281	-0.614
Mof_O 	O 	0.3663	0.3844	0.4436	-0.496
Mof_O 	O 	0.6393	0.5425	0.44094	-0.451
Mof_O 	O 	0.9215	0.8565	0.44446	-0.451
Mof_O 	O 	0.0495	0.1173	0.43628	-0.431
Mof_O 	O 	0.6729	0.788	0.00136	-0.539
Mof_O 	O 	0.7776	0.6269	0.02445	-0.556
Mof_O 	O 	0.0518	0.3921	0.39251	-0.532
Mof_O 	O 	0.9522	0.5463	0.42719	-0.614
Mof_O 	O 	0.8663	0.3844	0.0564	-0.498
Mof_O 	O 	0.1393	0.5425	0.05906	-0.45
Mof_O 	O 	0.4215	0.8565	0.05554	-0.45
Mof_O 	O 	0.5495	0.1173	0.06372	-0.434
Mof_O 	O 	0.8271	0.212	0.50136	-0.543
Mof_O 	O 	0.7224	0.3731	0.52445	-0.557
Mof_O 	O 	0.4482	0.6079	0.89251	-0.534
Mof_O 	O 	0.5478	0.4537	0.92719	-0.614
Mof_O 	O 	0.6337	0.6156	0.5564	-0.496
Mof_O 	O 	0.3607	0.4575	0.55906	-0.451
Mof_O 	O 	0.0785	0.1435	0.55554	-0.451
Mof_O 	O 	0.9505	0.8827	0.56372	-0.431
_end
