data_functionalizedCrystal
_audit_creation_method	'EQeq! by Chris Wilmer'
_symmetry_space_group_name_H-M	'P1'
_symmetry_Int_Tables_number	1
_symmetry_cell_setting	triclinic
loop_
_symmetry_equiv_pos_as_xyz
  x,y,z
_cell_length_a	11.0845
_cell_length_b	11.0845
_cell_length_c	11.0845
_cell_angle_alpha	90
_cell_angle_beta	90
_cell_angle_gamma	90
loop_
_atom_site_label
_atom_site_type_symbol
_atom_site_fract_x
_atom_site_fract_y
_atom_site_fract_z
_atom_site_charge
Mof_Na	Na	0.1521	0.3479	0.6521	3.796
Mof_Na	Na	0.3479	0.6521	0.1521	3.796
Mof_Na	Na	0.8479	0.8479	0.8479	3.797
Mof_Na	Na	0.6521	0.1521	0.3479	3.797
Mof_H 	H 	0.4288	0.3438	0.0243	0.296
Mof_H 	H 	0.3509	0.2514	0.9509	0.29
Mof_H 	H 	0.4447	0.3335	0.8842	0.285
Mof_H 	H 	0.0712	0.6562	0.5243	0.294
Mof_H 	H 	0.1491	0.7486	0.4509	0.288
Mof_H 	H 	0.0553	0.6665	0.3842	0.284
Mof_H 	H 	0.5712	0.8438	0.4757	0.294
Mof_H 	H 	0.6491	0.7514	0.5491	0.288
Mof_H 	H 	0.5553	0.8335	0.6158	0.284
Mof_H 	H 	0.9288	0.1562	0.9757	0.292
Mof_H 	H 	0.8509	0.2486	0.0491	0.287
Mof_H 	H 	0.9447	0.1665	0.1158	0.282
Mof_H 	H 	0.0243	0.4288	0.3438	0.296
Mof_H 	H 	0.9509	0.3509	0.2514	0.29
Mof_H 	H 	0.8842	0.4447	0.3335	0.285
Mof_H 	H 	0.5243	0.0712	0.6562	0.294
Mof_H 	H 	0.4509	0.1491	0.7486	0.288
Mof_H 	H 	0.3842	0.0553	0.6665	0.284
Mof_H 	H 	0.4757	0.5712	0.8438	0.294
Mof_H 	H 	0.5491	0.6491	0.7514	0.288
Mof_H 	H 	0.6158	0.5553	0.8335	0.284
Mof_H 	H 	0.9757	0.9288	0.1562	0.292
Mof_H 	H 	0.0491	0.8509	0.2486	0.287
Mof_H 	H 	0.1158	0.9447	0.1665	0.282
Mof_H 	H 	0.3438	0.0243	0.4288	0.296
Mof_H 	H 	0.2514	0.9509	0.3509	0.29
Mof_H 	H 	0.3335	0.8842	0.4447	0.285
Mof_H 	H 	0.6562	0.5243	0.0712	0.294
Mof_H 	H 	0.7486	0.4509	0.1491	0.288
Mof_H 	H 	0.6665	0.3842	0.0553	0.284
Mof_H 	H 	0.8438	0.4757	0.5712	0.294
Mof_H 	H 	0.7514	0.5491	0.6491	0.288
Mof_H 	H 	0.8335	0.6158	0.5553	0.284
Mof_H 	H 	0.1562	0.9757	0.9288	0.292
Mof_H 	H 	0.2486	0.0491	0.8509	0.287
Mof_H 	H 	0.1665	0.1158	0.9447	0.282
Mof_C 	C 	0.2919	0.4248	0.9315	0.902
Mof_C 	C 	0.3878	0.3297	0.9493	-1.195
Mof_C 	C 	0.2081	0.5752	0.4315	0.902
Mof_C 	C 	0.1122	0.6703	0.4493	-1.19
Mof_C 	C 	0.7081	0.9248	0.5685	0.902
Mof_C 	C 	0.6122	0.8297	0.5507	-1.19
Mof_C 	C 	0.7919	0.0752	0.0685	0.9
Mof_C 	C 	0.8878	0.1703	0.0507	-1.186
Mof_C 	C 	0.9315	0.2919	0.4248	0.902
Mof_C 	C 	0.9493	0.3878	0.3297	-1.195
Mof_C 	C 	0.4315	0.2081	0.5752	0.902
Mof_C 	C 	0.4493	0.1122	0.6703	-1.19
Mof_C 	C 	0.5685	0.7081	0.9248	0.902
Mof_C 	C 	0.5507	0.6122	0.8297	-1.19
Mof_C 	C 	0.0685	0.7919	0.0752	0.9
Mof_C 	C 	0.0507	0.8878	0.1703	-1.186
Mof_C 	C 	0.4248	0.9315	0.2919	0.902
Mof_C 	C 	0.3297	0.9493	0.3878	-1.195
Mof_C 	C 	0.5752	0.4315	0.2081	0.902
Mof_C 	C 	0.6703	0.4493	0.1122	-1.19
Mof_C 	C 	0.9248	0.5685	0.7081	0.902
Mof_C 	C 	0.8297	0.5507	0.6122	-1.19
Mof_C 	C 	0.0752	0.0685	0.7919	0.9
Mof_C 	C 	0.1703	0.0507	0.8878	-1.186
Mof_O 	O 	0.2279	0.4223	0.8372	-0.937
Mof_O 	O 	0.2759	0.5039	0.0123	-0.906
Mof_O 	O 	0.2721	0.5777	0.3372	-0.936
Mof_O 	O 	0.2241	0.4961	0.5123	-0.907
Mof_O 	O 	0.7721	0.9223	0.6628	-0.936
Mof_O 	O 	0.7241	0.0039	0.4877	-0.907
Mof_O 	O 	0.7279	0.0777	0.1628	-0.936
Mof_O 	O 	0.7759	0.9961	0.9877	-0.906
Mof_O 	O 	0.8372	0.2279	0.4223	-0.937
Mof_O 	O 	0.0123	0.2759	0.5039	-0.906
Mof_O 	O 	0.3372	0.2721	0.5777	-0.936
Mof_O 	O 	0.5123	0.2241	0.4961	-0.907
Mof_O 	O 	0.6628	0.7721	0.9223	-0.936
Mof_O 	O 	0.4877	0.7241	0.0039	-0.907
Mof_O 	O 	0.1628	0.7279	0.0777	-0.936
Mof_O 	O 	0.9877	0.7759	0.9961	-0.906
Mof_O 	O 	0.4223	0.8372	0.2279	-0.937
Mof_O 	O 	0.5039	0.0123	0.2759	-0.906
Mof_O 	O 	0.5777	0.3372	0.2721	-0.936
Mof_O 	O 	0.4961	0.5123	0.2241	-0.907
Mof_O 	O 	0.9223	0.6628	0.7721	-0.936
Mof_O 	O 	0.0039	0.4877	0.7241	-0.907
Mof_O 	O 	0.0777	0.1628	0.7279	-0.936
Mof_O 	O 	0.9961	0.9877	0.7759	-0.906
_end
