data_functionalizedCrystal
_audit_creation_method	'EQeq! by Chris Wilmer'
_symmetry_space_group_name_H-M	'P1'
_symmetry_Int_Tables_number	1
_symmetry_cell_setting	triclinic
loop_
_symmetry_equiv_pos_as_xyz
  x,y,z
_cell_length_a	19.7665
_cell_length_b	15.8012
_cell_length_c	16.968
_cell_angle_alpha	90
_cell_angle_beta	90
_cell_angle_gamma	90
loop_
_atom_site_label
_atom_site_type_symbol
_atom_site_fract_x
_atom_site_fract_y
_atom_site_fract_z
_atom_site_charge
Mof_C 	C 	0.147	0.4248	0.2037	0.116
Mof_H 	H 	0.1172	0.4198	0.2459	0.008
Mof_C 	C 	0.2297	0.4009	0.1259	0.119
Mof_H 	H 	0.2679	0.3777	0.1024	-0.006
Mof_C 	C 	0.2178	0.2975	0.2347	0.18
Mof_C 	C 	0.2137	0.2987	0.3162	-0.188
Mof_H 	H 	0.2024	0.3484	0.3425	0.104
Mof_C 	C 	0.2265	0.2256	0.358	0.092
Mof_H 	H 	0.223	0.2256	0.4126	0.018
Mof_C 	C 	0.2448	0.1518	0.3187	-0.138
Mof_C 	C 	0.2494	0.1513	0.2372	0.092
Mof_H 	H 	0.2618	0.102	0.211	0.017
Mof_C 	C 	0.2355	0.2251	0.1942	-0.194
Mof_H 	H 	0.2381	0.2252	0.1395	0.11
Mof_C 	C 	0.2598	0.072	0.3646	0.357
Mof_C 	C 	0.0939	0.6422	0.9816	0.109
Mof_H 	H 	0.1147	0.6873	0.0072	-0.01
Mof_C 	C 	0.0204	0.5641	0.922	0.096
Mof_H 	H 	0.9802	0.5457	0.8991	0.014
Mof_C 	C 	0.9784	0.706	0.9637	0.176
Mof_C 	C 	0.9134	0.6839	0.9807	-0.194
Mof_H 	H 	0.9015	0.6274	0.9871	0.104
Mof_C 	C 	0.8656	0.7473	0.9881	0.106
Mof_H 	H 	0.8212	0.7331	0.0009	0.013
Mof_C 	C 	0.8824	0.8307	0.977	-0.142
Mof_C 	C 	0.9488	0.8526	0.9588	0.091
Mof_H 	H 	0.9605	0.9092	0.952	0.023
Mof_C 	C 	0.9973	0.7902	0.9509	-0.181
Mof_H 	H 	0.0415	0.8039	0.9373	0.104
Mof_C 	C 	0.8299	0.8997	0.9831	0.348
Mof_N 	N 	0.1431	0.4827	0.1508	-0.107
Mof_N 	N 	0.1972	0.4673	0.1	-0.228
Mof_N 	N 	0.2002	0.3714	0.1908	-0.163
Mof_N 	N 	0.076	0.5189	0.9263	-0.106
Mof_N 	N 	0.1229	0.5695	0.9655	-0.236
Mof_N 	N 	0.0291	0.6415	0.9555	-0.163
Mof_O 	O 	0.2633	0.0036	0.3307	-0.315
Mof_O 	O 	0.2689	0.0826	0.438	-0.456
Mof_O 	O 	0.77	0.8753	0.9981	-0.457
Mof_O 	O 	0.8453	0.9745	0.9756	-0.324
Mof_Zn	Zn	0.21462	0.52288	0.99343	1.214
Mof_C 	C 	0.353	0.0752	0.7037	0.117
Mof_H 	H 	0.3828	0.0802	0.7459	0.008
Mof_C 	C 	0.2703	0.0991	0.6259	0.119
Mof_H 	H 	0.2321	0.1223	0.6024	-0.006
Mof_C 	C 	0.2822	0.2025	0.7347	0.181
Mof_C 	C 	0.2863	0.2013	0.8162	-0.187
Mof_H 	H 	0.2976	0.1516	0.8425	0.104
Mof_C 	C 	0.2735	0.2744	0.858	0.092
Mof_H 	H 	0.277	0.2744	0.9126	0.019
Mof_C 	C 	0.2552	0.3482	0.8187	-0.137
Mof_C 	C 	0.2506	0.3487	0.7372	0.092
Mof_H 	H 	0.2382	0.398	0.711	0.016
Mof_C 	C 	0.2645	0.2749	0.6942	-0.194
Mof_H 	H 	0.2619	0.2748	0.6395	0.11
Mof_C 	C 	0.2402	0.428	0.8646	0.357
Mof_C 	C 	0.4061	0.8578	0.4816	0.111
Mof_H 	H 	0.3853	0.8127	0.5072	-0.012
Mof_C 	C 	0.4796	0.9359	0.422	0.102
Mof_H 	H 	0.5198	0.9543	0.3991	0.01
Mof_C 	C 	0.5216	0.794	0.4637	0.172
Mof_C 	C 	0.5866	0.8161	0.4807	-0.186
Mof_H 	H 	0.5985	0.8726	0.4871	0.1
Mof_C 	C 	0.6344	0.7527	0.4881	0.092
Mof_H 	H 	0.6788	0.7669	0.5009	0.022
Mof_C 	C 	0.6176	0.6693	0.477	-0.138
Mof_C 	C 	0.5512	0.6474	0.4588	0.091
Mof_H 	H 	0.5395	0.5908	0.452	0.022
Mof_C 	C 	0.5027	0.7098	0.4509	-0.185
Mof_H 	H 	0.4585	0.6961	0.4373	0.108
Mof_C 	C 	0.6701	0.6003	0.4831	0.347
Mof_N 	N 	0.3569	0.0173	0.6508	-0.107
Mof_N 	N 	0.3028	0.0327	0.6	-0.229
Mof_N 	N 	0.2998	0.1286	0.6908	-0.163
Mof_N 	N 	0.424	0.9811	0.4263	-0.107
Mof_N 	N 	0.3771	0.9305	0.4655	-0.236
Mof_N 	N 	0.4709	0.8585	0.4555	-0.163
Mof_O 	O 	0.2367	0.4964	0.8307	-0.316
Mof_O 	O 	0.2311	0.4174	0.938	-0.457
Mof_O 	O 	0.73	0.6247	0.4981	-0.46
Mof_O 	O 	0.6547	0.5255	0.4756	-0.326
Mof_Zn	Zn	0.28538	0.97712	0.49343	1.214
Mof_C 	C 	0.853	0.4248	0.2963	0.117
Mof_H 	H 	0.8828	0.4198	0.2541	0.008
Mof_C 	C 	0.7703	0.4009	0.3741	0.119
Mof_H 	H 	0.7321	0.3777	0.3976	-0.006
Mof_C 	C 	0.7822	0.2975	0.2653	0.181
Mof_C 	C 	0.7863	0.2987	0.1838	-0.187
Mof_H 	H 	0.7976	0.3484	0.1575	0.105
Mof_C 	C 	0.7735	0.2256	0.142	0.092
Mof_H 	H 	0.777	0.2256	0.0874	0.019
Mof_C 	C 	0.7552	0.1518	0.1813	-0.136
Mof_C 	C 	0.7506	0.1513	0.2628	0.092
Mof_H 	H 	0.7382	0.102	0.289	0.016
Mof_C 	C 	0.7645	0.2251	0.3058	-0.194
Mof_H 	H 	0.7619	0.2252	0.3605	0.11
Mof_C 	C 	0.7402	0.072	0.1354	0.357
Mof_C 	C 	0.9061	0.6422	0.5184	0.111
Mof_H 	H 	0.8853	0.6873	0.4928	-0.012
Mof_C 	C 	0.9796	0.5641	0.578	0.103
Mof_H 	H 	0.0198	0.5457	0.6009	0.009
Mof_C 	C 	0.0216	0.706	0.5363	0.172
Mof_C 	C 	0.0866	0.6839	0.5193	-0.187
Mof_H 	H 	0.0985	0.6274	0.5129	0.1
Mof_C 	C 	0.1344	0.7473	0.5119	0.092
Mof_H 	H 	0.1788	0.7331	0.4991	0.022
Mof_C 	C 	0.1176	0.8307	0.523	-0.139
Mof_C 	C 	0.0512	0.8526	0.5412	0.092
Mof_H 	H 	0.0395	0.9092	0.548	0.022
Mof_C 	C 	0.0027	0.7902	0.5491	-0.187
Mof_H 	H 	0.9585	0.8039	0.5627	0.108
Mof_C 	C 	0.1701	0.8997	0.5169	0.347
Mof_N 	N 	0.8569	0.4827	0.3492	-0.107
Mof_N 	N 	0.8028	0.4673	0.4	-0.229
Mof_N 	N 	0.7998	0.3714	0.3092	-0.163
Mof_N 	N 	0.924	0.5189	0.5737	-0.107
Mof_N 	N 	0.8771	0.5695	0.5345	-0.236
Mof_N 	N 	0.9709	0.6415	0.5445	-0.163
Mof_O 	O 	0.7367	0.0036	0.1693	-0.314
Mof_O 	O 	0.7311	0.0826	0.062	-0.455
Mof_O 	O 	0.23	0.8753	0.5019	-0.46
Mof_O 	O 	0.1547	0.9745	0.5244	-0.326
Mof_Zn	Zn	0.78538	0.52288	0.50657	1.214
Mof_C 	C 	0.647	0.0752	0.7963	0.117
Mof_H 	H 	0.6172	0.0802	0.7541	0.008
Mof_C 	C 	0.7297	0.0991	0.8741	0.119
Mof_H 	H 	0.7679	0.1223	0.8976	-0.006
Mof_C 	C 	0.7178	0.2025	0.7653	0.181
Mof_C 	C 	0.7137	0.2013	0.6838	-0.187
Mof_H 	H 	0.7024	0.1516	0.6575	0.105
Mof_C 	C 	0.7265	0.2744	0.642	0.092
Mof_H 	H 	0.723	0.2744	0.5874	0.02
Mof_C 	C 	0.7448	0.3482	0.6813	-0.137
Mof_C 	C 	0.7494	0.3487	0.7628	0.092
Mof_H 	H 	0.7618	0.398	0.789	0.016
Mof_C 	C 	0.7355	0.2749	0.8058	-0.194
Mof_H 	H 	0.7381	0.2748	0.8605	0.11
Mof_C 	C 	0.7598	0.428	0.6354	0.357
Mof_C 	C 	0.5939	0.8578	0.0184	0.103
Mof_H 	H 	0.6147	0.8127	0.9928	-0.006
Mof_C 	C 	0.5204	0.9359	0.078	0.102
Mof_H 	H 	0.4802	0.9543	0.1009	0.01
Mof_C 	C 	0.4784	0.794	0.0363	0.169
Mof_C 	C 	0.4134	0.8161	0.0193	-0.183
Mof_H 	H 	0.4015	0.8726	0.0129	0.098
Mof_C 	C 	0.3656	0.7527	0.0119	0.087
Mof_H 	H 	0.3212	0.7669	0.9991	0.025
Mof_C 	C 	0.3824	0.6693	0.023	-0.135
Mof_C 	C 	0.4488	0.6474	0.0412	0.088
Mof_H 	H 	0.4605	0.5908	0.048	0.023
Mof_C 	C 	0.4973	0.7098	0.0491	-0.183
Mof_H 	H 	0.5415	0.6961	0.0627	0.107
Mof_C 	C 	0.3299	0.6003	0.0169	0.345
Mof_N 	N 	0.6431	0.0173	0.8492	-0.108
Mof_N 	N 	0.6972	0.0327	0.9	-0.229
Mof_N 	N 	0.7002	0.1286	0.8092	-0.163
Mof_N 	N 	0.576	0.9811	0.0737	-0.107
Mof_N 	N 	0.6229	0.9305	0.0345	-0.236
Mof_N 	N 	0.5291	0.8585	0.0445	-0.161
Mof_O 	O 	0.7633	0.4964	0.6693	-0.316
Mof_O 	O 	0.7689	0.4174	0.562	-0.456
Mof_O 	O 	0.27	0.6247	0.0019	-0.459
Mof_O 	O 	0.3453	0.5255	0.0244	-0.325
Mof_Zn	Zn	0.71462	0.97712	0.00657	1.212
Mof_C 	C 	0.853	0.5752	0.7963	0.117
Mof_H 	H 	0.8828	0.5802	0.7541	0.009
Mof_C 	C 	0.7703	0.5991	0.8741	0.12
Mof_H 	H 	0.7321	0.6223	0.8976	-0.005
Mof_C 	C 	0.7822	0.7025	0.7653	0.181
Mof_C 	C 	0.7863	0.7013	0.6838	-0.187
Mof_H 	H 	0.7976	0.6516	0.6575	0.105
Mof_C 	C 	0.7735	0.7744	0.642	0.093
Mof_H 	H 	0.777	0.7744	0.5874	0.019
Mof_C 	C 	0.7552	0.8482	0.6813	-0.137
Mof_C 	C 	0.7506	0.8487	0.7628	0.092
Mof_H 	H 	0.7382	0.898	0.789	0.017
Mof_C 	C 	0.7645	0.7749	0.8058	-0.194
Mof_H 	H 	0.7619	0.7748	0.8605	0.11
Mof_C 	C 	0.7402	0.928	0.6354	0.357
Mof_C 	C 	0.9061	0.3578	0.0184	0.109
Mof_H 	H 	0.8853	0.3127	0.9928	-0.01
Mof_C 	C 	0.9796	0.4359	0.078	0.096
Mof_H 	H 	0.0198	0.4543	0.1009	0.014
Mof_C 	C 	0.0216	0.294	0.0363	0.176
Mof_C 	C 	0.0866	0.3161	0.0193	-0.194
Mof_H 	H 	0.0985	0.3726	0.0129	0.104
Mof_C 	C 	0.1344	0.2527	0.0119	0.106
Mof_H 	H 	0.1788	0.2669	0.9991	0.013
Mof_C 	C 	0.1176	0.1693	0.023	-0.142
Mof_C 	C 	0.0512	0.1474	0.0412	0.091
Mof_H 	H 	0.0395	0.0908	0.048	0.023
Mof_C 	C 	0.0027	0.2098	0.0491	-0.181
Mof_H 	H 	0.9585	0.1961	0.0627	0.104
Mof_C 	C 	0.1701	0.1003	0.0169	0.348
Mof_N 	N 	0.8569	0.5173	0.8492	-0.107
Mof_N 	N 	0.8028	0.5327	0.9	-0.228
Mof_N 	N 	0.7998	0.6286	0.8092	-0.163
Mof_N 	N 	0.924	0.4811	0.0737	-0.106
Mof_N 	N 	0.8771	0.4305	0.0345	-0.236
Mof_N 	N 	0.9709	0.3585	0.0445	-0.163
Mof_O 	O 	0.7367	0.9964	0.6693	-0.315
Mof_O 	O 	0.7311	0.9174	0.562	-0.456
Mof_O 	O 	0.23	0.1247	0.0019	-0.457
Mof_O 	O 	0.1547	0.0255	0.0244	-0.324
Mof_Zn	Zn	0.78538	0.47712	0.00657	1.214
Mof_C 	C 	0.647	0.9248	0.2963	0.117
Mof_H 	H 	0.6172	0.9198	0.2541	0.008
Mof_C 	C 	0.7297	0.9009	0.3741	0.119
Mof_H 	H 	0.7679	0.8777	0.3976	-0.006
Mof_C 	C 	0.7178	0.7975	0.2653	0.181
Mof_C 	C 	0.7137	0.7987	0.1838	-0.187
Mof_H 	H 	0.7024	0.8484	0.1575	0.104
Mof_C 	C 	0.7265	0.7256	0.142	0.092
Mof_H 	H 	0.723	0.7256	0.0874	0.019
Mof_C 	C 	0.7448	0.6518	0.1813	-0.137
Mof_C 	C 	0.7494	0.6513	0.2628	0.092
Mof_H 	H 	0.7618	0.602	0.289	0.016
Mof_C 	C 	0.7355	0.7251	0.3058	-0.194
Mof_H 	H 	0.7381	0.7252	0.3605	0.11
Mof_C 	C 	0.7598	0.572	0.1354	0.357
Mof_C 	C 	0.5939	0.1422	0.5184	0.111
Mof_H 	H 	0.6147	0.1873	0.4928	-0.012
Mof_C 	C 	0.5204	0.0641	0.578	0.102
Mof_H 	H 	0.4802	0.0457	0.6009	0.01
Mof_C 	C 	0.4784	0.206	0.5363	0.172
Mof_C 	C 	0.4134	0.1839	0.5193	-0.186
Mof_H 	H 	0.4015	0.1274	0.5129	0.1
Mof_C 	C 	0.3656	0.2473	0.5119	0.092
Mof_H 	H 	0.3212	0.2331	0.4991	0.022
Mof_C 	C 	0.3824	0.3307	0.523	-0.138
Mof_C 	C 	0.4488	0.3526	0.5412	0.091
Mof_H 	H 	0.4605	0.4092	0.548	0.022
Mof_C 	C 	0.4973	0.2902	0.5491	-0.185
Mof_H 	H 	0.5415	0.3039	0.5627	0.108
Mof_C 	C 	0.3299	0.3997	0.5169	0.347
Mof_N 	N 	0.6431	0.9827	0.3492	-0.107
Mof_N 	N 	0.6972	0.9673	0.4	-0.229
Mof_N 	N 	0.7002	0.8714	0.3092	-0.163
Mof_N 	N 	0.576	0.0189	0.5737	-0.107
Mof_N 	N 	0.6229	0.0695	0.5345	-0.236
Mof_N 	N 	0.5291	0.1415	0.5445	-0.163
Mof_O 	O 	0.7633	0.5036	0.1693	-0.316
Mof_O 	O 	0.7689	0.5826	0.062	-0.457
Mof_O 	O 	0.27	0.3753	0.5019	-0.46
Mof_O 	O 	0.3453	0.4745	0.5244	-0.326
Mof_Zn	Zn	0.71462	0.02288	0.50657	1.214
Mof_C 	C 	0.147	0.5752	0.7037	0.117
Mof_H 	H 	0.1172	0.5802	0.7459	0.008
Mof_C 	C 	0.2297	0.5991	0.6259	0.119
Mof_H 	H 	0.2679	0.6223	0.6024	-0.006
Mof_C 	C 	0.2178	0.7025	0.7347	0.181
Mof_C 	C 	0.2137	0.7013	0.8162	-0.187
Mof_H 	H 	0.2024	0.6516	0.8425	0.105
Mof_C 	C 	0.2265	0.7744	0.858	0.092
Mof_H 	H 	0.223	0.7744	0.9126	0.019
Mof_C 	C 	0.2448	0.8482	0.8187	-0.136
Mof_C 	C 	0.2494	0.8487	0.7372	0.092
Mof_H 	H 	0.2618	0.898	0.711	0.016
Mof_C 	C 	0.2355	0.7749	0.6942	-0.194
Mof_H 	H 	0.2381	0.7748	0.6395	0.11
Mof_C 	C 	0.2598	0.928	0.8646	0.357
Mof_C 	C 	0.0939	0.3578	0.4816	0.111
Mof_H 	H 	0.1147	0.3127	0.5072	-0.012
Mof_C 	C 	0.0204	0.4359	0.422	0.103
Mof_H 	H 	0.9802	0.4543	0.3991	0.009
Mof_C 	C 	0.9784	0.294	0.4637	0.172
Mof_C 	C 	0.9134	0.3161	0.4807	-0.187
Mof_H 	H 	0.9015	0.3726	0.4871	0.1
Mof_C 	C 	0.8656	0.2527	0.4881	0.092
Mof_H 	H 	0.8212	0.2669	0.5009	0.022
Mof_C 	C 	0.8824	0.1693	0.477	-0.139
Mof_C 	C 	0.9488	0.1474	0.4588	0.092
Mof_H 	H 	0.9605	0.0908	0.452	0.022
Mof_C 	C 	0.9973	0.2098	0.4509	-0.187
Mof_H 	H 	0.0415	0.1961	0.4373	0.108
Mof_C 	C 	0.8299	0.1003	0.4831	0.347
Mof_N 	N 	0.1431	0.5173	0.6508	-0.107
Mof_N 	N 	0.1972	0.5327	0.6	-0.229
Mof_N 	N 	0.2002	0.6286	0.6908	-0.163
Mof_N 	N 	0.076	0.4811	0.4263	-0.107
Mof_N 	N 	0.1229	0.4305	0.4655	-0.236
Mof_N 	N 	0.0291	0.3585	0.4555	-0.163
Mof_O 	O 	0.2633	0.9964	0.8307	-0.314
Mof_O 	O 	0.2689	0.9174	0.938	-0.455
Mof_O 	O 	0.77	0.1247	0.4981	-0.46
Mof_O 	O 	0.8453	0.0255	0.4756	-0.326
Mof_Zn	Zn	0.21462	0.47712	0.49343	1.214
Mof_C 	C 	0.353	0.9248	0.2037	0.117
Mof_H 	H 	0.3828	0.9198	0.2459	0.008
Mof_C 	C 	0.2703	0.9009	0.1259	0.119
Mof_H 	H 	0.2321	0.8777	0.1024	-0.006
Mof_C 	C 	0.2822	0.7975	0.2347	0.181
Mof_C 	C 	0.2863	0.7987	0.3162	-0.187
Mof_H 	H 	0.2976	0.8484	0.3425	0.105
Mof_C 	C 	0.2735	0.7256	0.358	0.092
Mof_H 	H 	0.277	0.7256	0.4126	0.02
Mof_C 	C 	0.2552	0.6518	0.3187	-0.137
Mof_C 	C 	0.2506	0.6513	0.2372	0.092
Mof_H 	H 	0.2382	0.602	0.211	0.016
Mof_C 	C 	0.2645	0.7251	0.1942	-0.194
Mof_H 	H 	0.2619	0.7252	0.1395	0.11
Mof_C 	C 	0.2402	0.572	0.3646	0.357
Mof_C 	C 	0.4061	0.1422	0.9816	0.103
Mof_H 	H 	0.3853	0.1873	0.0072	-0.006
Mof_C 	C 	0.4796	0.0641	0.922	0.102
Mof_H 	H 	0.5198	0.0457	0.8991	0.01
Mof_C 	C 	0.5216	0.206	0.9637	0.169
Mof_C 	C 	0.5866	0.1839	0.9807	-0.183
Mof_H 	H 	0.5985	0.1274	0.9871	0.098
Mof_C 	C 	0.6344	0.2473	0.9881	0.087
Mof_H 	H 	0.6788	0.2331	0.0009	0.025
Mof_C 	C 	0.6176	0.3307	0.977	-0.135
Mof_C 	C 	0.5512	0.3526	0.9588	0.088
Mof_H 	H 	0.5395	0.4092	0.952	0.023
Mof_C 	C 	0.5027	0.2902	0.9509	-0.183
Mof_H 	H 	0.4585	0.3039	0.9373	0.107
Mof_C 	C 	0.6701	0.3997	0.9831	0.345
Mof_N 	N 	0.3569	0.9827	0.1508	-0.108
Mof_N 	N 	0.3028	0.9673	0.1	-0.229
Mof_N 	N 	0.2998	0.8714	0.1908	-0.163
Mof_N 	N 	0.424	0.0189	0.9263	-0.107
Mof_N 	N 	0.3771	0.0695	0.9655	-0.236
Mof_N 	N 	0.4709	0.1415	0.9555	-0.161
Mof_O 	O 	0.2367	0.5036	0.3307	-0.316
Mof_O 	O 	0.2311	0.5826	0.438	-0.456
Mof_O 	O 	0.73	0.3753	0.9981	-0.459
Mof_O 	O 	0.6547	0.4745	0.9756	-0.325
Mof_Zn	Zn	0.28538	0.02288	0.99343	1.212
_end
