data_functionalizedCrystal
_audit_creation_method	'EQeq! by Chris Wilmer'
_symmetry_space_group_name_H-M	'P1'
_symmetry_Int_Tables_number	1
_symmetry_cell_setting	triclinic
loop_
_symmetry_equiv_pos_as_xyz
  x,y,z
_cell_length_a	8.3985
_cell_length_b	13.4836
_cell_length_c	14.1863
_cell_angle_alpha	61.6255
_cell_angle_beta	85.794
_cell_angle_gamma	81.122
loop_
_atom_site_label
_atom_site_type_symbol
_atom_site_fract_x
_atom_site_fract_y
_atom_site_fract_z
_atom_site_charge
Mof_Zn	Zn	0.69643	0.60892	0.18234	1.208
Mof_Zn	Zn	0.19643	0.79126	0.81766	1.209
Mof_H 	H 	0.2958	0.218	0.527	0.057
Mof_H 	H 	0.891	0.1195	0.109	0.051
Mof_H 	H 	0.4942	0.1447	0.1632	0.072
Mof_H 	H 	0.6943	0.2643	0.4058	0.092
Mof_H 	H 	0.696	0.7935	0.2328	-0.015
Mof_H 	H 	0.2723	0.1414	0.8288	0.079
Mof_H 	H 	0.5699	0.5191	0.9216	0.028
Mof_H 	H 	0.8944	0.9717	0.8892	0.089
Mof_H 	H 	0.7921	0.6905	0.805	0.097
Mof_H 	H 	0.0703	0.3311	0.4796	0.088
Mof_H 	H 	0.3299	0.8454	0.5984	-0.002
Mof_H 	H 	0.8179	0.7914	0.9614	-0.01
Mof_H 	H 	0.7958	0.745	0.473	0.058
Mof_H 	H 	0.0444	0.6003	0.125	-0.015
Mof_H 	H 	0.1884	0.685	0.2596	0.028
Mof_H 	H 	0.9308	0.139	0.9066	0.061
Mof_H 	H 	0.3944	0.8609	0.1108	0.091
Mof_H 	H 	0.5826	0.2585	0.2242	0.029
Mof_H 	H 	0.3179	0.7528	0.0386	-0.01
Mof_H 	H 	0.2921	0.4955	0.195	0.098
Mof_H 	H 	0.1943	0.6701	0.5942	0.092
Mof_H 	H 	0.4733	0.4042	0.861	0.075
Mof_H 	H 	0.0826	0.4827	0.7758	0.032
Mof_H 	H 	0.6884	0.9446	0.7404	0.023
Mof_H 	H 	0.5703	0.8107	0.5204	0.088
Mof_H 	H 	0.4614	0.3613	0.3496	0.078
Mof_H 	H 	0.9942	0.3079	0.8368	0.063
Mof_H 	H 	0.5444	0.7253	0.875	-0.015
Mof_H 	H 	0.4489	0.0575	0.662	0.078
Mof_H 	H 	0.9614	0.7109	0.6504	0.076
Mof_H 	H 	0.391	0.2285	0.891	0.053
Mof_H 	H 	0.4308	0.0456	0.0934	0.063
Mof_H 	H 	0.432	0.6291	0.52	0.024
Mof_H 	H 	0.0699	0.4407	0.0784	0.028
Mof_H 	H 	0.9733	0.2652	0.139	0.075
Mof_H 	H 	0.196	0.0263	0.7672	-0.008
Mof_H 	H 	0.932	0.1491	0.48	0.024
Mof_H 	H 	0.7723	0.9702	0.1712	0.08
Mof_H 	H 	0.8299	0.4438	0.4016	-0.001
Mof_H 	H 	0.9489	0.7195	0.338	0.07
Mof_C 	C 	0.5093	0.2206	0.1138	-0.122
Mof_C 	C 	0.0682	0.3871	0.4064	-0.156
Mof_C 	C 	0.3567	0.8973	0.039	-0.167
Mof_C 	C 	0.0093	0.3344	0.8862	-0.105
Mof_C 	C 	0.7085	0.749	0.6536	0.125
Mof_C 	C 	0.5817	0.3997	0.0796	-0.106
Mof_C 	C 	0.8567	0.9363	0.961	-0.164
Mof_C 	C 	0.7394	0.8293	0.1626	0.079
Mof_C 	C 	0.4249	0.8128	0.6408	0.092
Mof_C 	C 	0.2394	0.9919	0.8374	0.069
Mof_C 	C 	0.4785	0.2622	0.0044	0.085
Mof_C 	C 	0.9038	0.1021	0.9806	-0.091
Mof_C 	C 	0.8097	0.8282	0.0048	0.087
Mof_C 	C 	0.8484	0.9916	0.022	0.113
Mof_C 	C 	0.4038	0.0827	0.0194	-0.089
Mof_C 	C 	0.8367	0.0362	0.6192	-0.118
Mof_C 	C 	0.8885	0.7266	0.5158	-0.069
Mof_C 	C 	0.8681	0.7264	0.609	-0.095
Mof_C 	C 	0.3097	0.833	0.9952	0.089
Mof_C 	C 	0.7843	0.935	0.1264	-0.157
Mof_C 	C 	0.2843	0.0614	0.8736	-0.149
Mof_C 	C 	0.9202	0.1561	0.0354	-0.059
Mof_C 	C 	0.699	0.7223	0.7608	-0.167
Mof_C 	C 	0.1333	0.5935	0.8776	0.302
Mof_C 	C 	0.1926	0.6727	0.5262	-0.143
Mof_C 	C 	0.0478	0.7028	0.3744	-0.125
Mof_C 	C 	0.3885	0.2424	0.4842	-0.064
Mof_C 	C 	0.334	0.6495	0.4816	0.058
Mof_C 	C 	0.0528	0.4143	0.0292	0.047
Mof_C 	C 	0.69	0.0097	0.672	0.061
Mof_C 	C 	0.5528	0.4435	0.9708	0.043
Mof_C 	C 	0.4202	0.1915	0.9646	-0.063
Mof_C 	C 	0.061	0.4385	0.85	0.034
Mof_C 	C 	0.4918	0.6312	0.3316	0.334
Mof_C 	C 	0.199	0.4831	0.2392	-0.168
Mof_C 	C 	0.3681	0.3354	0.391	-0.095
Mof_C 	C 	0.834	0.1311	0.5184	0.059
Mof_C 	C 	0.19	0.6817	0.328	0.051
Mof_C 	C 	0.561	0.2885	0.15	0.042
Mof_C 	C 	0.3367	0.6554	0.3808	-0.119
Mof_C 	C 	0.6333	0.4711	0.1224	0.302
Mof_C 	C 	0.9785	0.2666	0.9956	0.075
Mof_C 	C 	0.4977	0.3737	0.9348	-0.122
Mof_C 	C 	0.9249	0.4536	0.3592	0.086
Mof_C 	C 	0.0465	0.7	0.4736	0.098
Mof_C 	C 	0.6926	0.1989	0.4738	-0.143
Mof_C 	C 	0.5465	0.1736	0.5264	0.097
Mof_C 	C 	0.2085	0.4026	0.3464	0.125
Mof_C 	C 	0.5503	0.7432	0.8016	0.098
Mof_C 	C 	0.0503	0.5448	0.1984	0.103
Mof_C 	C 	0.3484	0.0136	0.978	0.118
Mof_C 	C 	0.9918	0.9628	0.6684	0.327
Mof_C 	C 	0.5682	0.7935	0.5936	-0.163
Mof_C 	C 	0.0817	0.4793	0.9204	-0.104
Mof_C 	C 	0.5478	0.0772	0.6256	-0.136
Mof_C 	C 	0.9977	0.3085	0.0652	-0.122
Mof_N 	N 	0.2533	0.8786	0.895	-0.263
Mof_N 	N 	0.7533	0.7736	0.105	-0.265
Mof_N 	N 	0.9161	0.5314	0.2552	-0.27
Mof_N 	N 	0.4161	0.7866	0.7448	-0.269
Mof_O 	O 	0.4854	0.6426	0.2382	-0.455
Mof_O 	O 	0.1528	0.63531	0.94038	-0.415
Mof_O 	O 	0.9854	0.8808	0.7618	-0.455
Mof_O 	O 	0.6212	0.6047	0.3822	-0.318
Mof_O 	O 	0.6572	0.43085	0.2209	-0.379
Mof_O 	O 	0.6528	0.57569	0.05962	-0.417
Mof_O 	O 	0.1572	0.65175	0.7791	-0.378
Mof_O 	O 	0.1212	0.9869	0.6178	-0.315
_end
