data_functionalizedCrystal
_audit_creation_method	'EQeq! by Chris Wilmer'
_symmetry_space_group_name_H-M	'P1'
_symmetry_Int_Tables_number	1
_symmetry_cell_setting	triclinic
loop_
_symmetry_equiv_pos_as_xyz
  x,y,z
_cell_length_a	6.349
_cell_length_b	10.258
_cell_length_c	15.737
_cell_angle_alpha	106.79
_cell_angle_beta	93.66
_cell_angle_gamma	103.56
loop_
_atom_site_label
_atom_site_type_symbol
_atom_site_fract_x
_atom_site_fract_y
_atom_site_fract_z
_atom_site_charge
Mof_Sr	Sr	0.98654	0.0778	0.6496	1.652
Mof_Sr	Sr	0.69404	0.73254	0.73627	1.329
Mof_Sr	Sr	0.01346	0.9222	0.3504	1.471
Mof_Sr	Sr	0.30596	0.26746	0.26373	1.212
Mof_Cu	Cu	-0	0.5	-0	0.845
Mof_Cu	Cu	0.5	0.5	0.5	0.882
Mof_C 	C 	0.0531	0.27622	0.87179	0.179
Mof_C 	C 	0.9013	0.34039	0.82748	0.257
Mof_C 	C 	0.75657	0.73863	0.48926	0.258
Mof_C 	C 	0.68485	0.63713	0.39236	0.216
Mof_C 	C 	0.43078	0.95431	0.67876	0.257
Mof_C 	C 	0.24872	0.84944	0.70655	0.261
Mof_C 	C 	0.9469	0.72378	0.12821	0.254
Mof_C 	C 	0.0987	0.65961	0.17252	0.177
Mof_C 	C 	0.24343	0.26137	0.51074	0.25
Mof_C 	C 	0.31515	0.36287	0.60764	0.218
Mof_C 	C 	0.56922	0.04569	0.32124	0.259
Mof_C 	C 	0.75128	0.15056	0.29345	0.25
Mof_O 	O 	0.1166	0.33612	0.95527	-0.351
Mof_O 	O 	0.8536	0.44692	0.87829	-0.37
Mof_O 	O 	0.1089	0.17357	0.82502	-0.36
Mof_O 	O 	0.84241	0.29265	0.74643	-0.364
Mof_O 	O 	0.69208	0.68844	0.55037	-0.494
Mof_O 	O 	0.43458	0.48536	0.6155	-0.485
Mof_O 	O 	0.86897	0.861	0.49966	-0.463
Mof_O 	O 	0.74638	0.67605	0.32857	-0.348
Mof_O 	O 	0.29973	0.7517	0.72677	-0.434
Mof_O 	O 	0.62225	0.94424	0.68984	-0.489
Mof_O 	O 	0.3688	0.03904	0.64617	-0.417
Mof_O 	O 	0.06231	0.87119	0.70602	-0.516
Mof_O 	O 	0.8834	0.66388	0.04473	-0.415
Mof_O 	O 	0.1464	0.55308	0.12171	-0.42
Mof_O 	O 	0.8911	0.82643	0.17498	-0.358
Mof_O 	O 	0.15759	0.70735	0.25357	-0.358
Mof_O 	O 	0.30792	0.31156	0.44963	-0.494
Mof_O 	O 	0.56542	0.51464	0.3845	-0.476
Mof_O 	O 	0.13103	0.139	0.50034	-0.489
Mof_O 	O 	0.25362	0.32395	0.67143	-0.382
Mof_O 	O 	0.70027	0.2483	0.27323	-0.415
Mof_O 	O 	0.37775	0.05576	0.31016	-0.482
Mof_O 	O 	0.6312	0.96096	0.35383	-0.393
Mof_O 	O 	0.93769	0.12881	0.29398	-0.454
_end
