data_functionalizedCrystal
_audit_creation_method	'EQeq! by Chris Wilmer'
_symmetry_space_group_name_H-M	'P1'
_symmetry_Int_Tables_number	1
_symmetry_cell_setting	triclinic
loop_
_symmetry_equiv_pos_as_xyz
  x,y,z
_cell_length_a	14.6868
_cell_length_b	14.6868
_cell_length_c	14.6868
_cell_angle_alpha	109.471
_cell_angle_beta	109.471
_cell_angle_gamma	109.471
loop_
_atom_site_label
_atom_site_type_symbol
_atom_site_fract_x
_atom_site_fract_y
_atom_site_fract_z
_atom_site_charge
Mof_Co	Co	0.75	0.25	0.5	1.105
Mof_Co	Co	0.25	0.75	0.5	1.106
Mof_Co	Co	0.5	0.25	0.75	1.106
Mof_Co	Co	0.5	0.75	0.25	1.106
Mof_Co	Co	0.25	0.5	0.75	1.106
Mof_Co	Co	0.75	0.5	0.25	1.106
Mof_H 	H 	0.57211	0.35202	0.46907	0.001
Mof_H 	H 	0.11706	0.64798	0.22009	0.001
Mof_H 	H 	0.42789	0.89697	0.77991	0
Mof_H 	H 	0.22009	0.11706	0.64798	0.001
Mof_H 	H 	0.77991	0.42789	0.89697	0.001
Mof_H 	H 	0.46907	0.57211	0.35202	0.001
Mof_H 	H 	0.53092	0.88294	0.10303	-0.001
Mof_H 	H 	0.35202	0.46907	0.57211	0
Mof_H 	H 	0.89697	0.77991	0.42789	0
Mof_H 	H 	0.64798	0.22009	0.11706	0.003
Mof_H 	H 	0.10303	0.88294	0.53092	-0.001
Mof_H 	H 	0.35202	0.57211	0.46907	0.001
Mof_H 	H 	0.89697	0.42789	0.77991	0.001
Mof_H 	H 	0.64798	0.11706	0.22009	0.002
Mof_H 	H 	0.57211	0.46907	0.35202	0.001
Mof_H 	H 	0.88294	0.53092	0.10303	-0.001
Mof_H 	H 	0.11706	0.22009	0.64798	0.001
Mof_H 	H 	0.42789	0.77991	0.89697	0.001
Mof_H 	H 	0.22009	0.64798	0.11706	0.002
Mof_H 	H 	0.77991	0.89697	0.42789	0
Mof_H 	H 	0.46907	0.35202	0.57211	0.001
Mof_H 	H 	0.53092	0.10303	0.88294	-0.002
Mof_C 	C 	0.5841	0.3177	0.5286	-0.009
Mof_C 	C 	0.7891	0.0555	0.4714	-0.003
Mof_C 	C 	0.2109	0.6823	0.2664	-0.008
Mof_C 	C 	0.4159	0.9445	0.7336	-0.013
Mof_C 	C 	0.2664	0.2109	0.6823	-0.008
Mof_C 	C 	0.7336	0.4159	0.9445	-0.019
Mof_C 	C 	0.5286	0.5841	0.3177	-0.008
Mof_C 	C 	0.4714	0.7891	0.0555	0.001
Mof_C 	C 	0.0555	0.4714	0.7891	-0.005
Mof_C 	C 	0.3177	0.5286	0.5841	-0.009
Mof_C 	C 	0.9445	0.7336	0.4159	-0.013
Mof_C 	C 	0.6823	0.2664	0.2109	-0.007
Mof_C 	C 	0.0555	0.7891	0.4714	-0.004
Mof_C 	C 	0.3177	0.5841	0.5286	-0.008
Mof_C 	C 	0.9445	0.4159	0.7336	-0.012
Mof_C 	C 	0.6823	0.2109	0.2664	-0.008
Mof_C 	C 	0.5841	0.5286	0.3177	-0.008
Mof_C 	C 	0.7891	0.4714	0.0555	0.002
Mof_C 	C 	0.2109	0.2664	0.6823	-0.008
Mof_C 	C 	0.4159	0.7336	0.9445	-0.019
Mof_C 	C 	0.2664	0.6823	0.2109	-0.008
Mof_C 	C 	0.7336	0.9445	0.4159	-0.013
Mof_C 	C 	0.5286	0.3177	0.5841	-0.008
Mof_C 	C 	0.4714	0.0555	0.7891	-0.004
Mof_C 	C 	0.6282	0.2454	0.6282	0.131
Mof_C 	C 	0.6783	0.1876	0.6783	-0.235
Mof_C 	C 	0.6172	2.33086e-17	0.3718	0.135
Mof_C 	C 	0.5093	0	0.3217	-0.234
Mof_C 	C 	0.3828	0.7546	0.3828	0.132
Mof_C 	C 	0.4907	0.8124	0.4907	-0.238
Mof_C 	C 	0.3718	0	0.6172	0.134
Mof_C 	C 	0.3217	0	0.5093	-0.235
Mof_C 	C 	0.3828	0.3828	0.7546	0.132
Mof_C 	C 	0.4907	0.4907	0.8124	-0.237
Mof_C 	C 	0.6172	0.3718	-0	0.136
Mof_C 	C 	0.5093	0.3217	-0	-0.222
Mof_C 	C 	0.6282	0.6282	0.2454	0.132
Mof_C 	C 	0.6783	0.6783	0.1876	-0.238
Mof_C 	C 	0.3718	0.6172	-0	0.137
Mof_C 	C 	0.3217	0.5093	-0	-0.228
Mof_C 	C 	1.16543e-17	0.3718	0.6172	0.134
Mof_C 	C 	3.4963e-17	0.3217	0.5093	-0.233
Mof_C 	C 	0.2454	0.6282	0.6282	0.131
Mof_C 	C 	0.1876	0.6783	0.6783	-0.238
Mof_C 	C 	2.33086e-17	0.6172	0.3718	0.135
Mof_C 	C 	4.66173e-17	0.5093	0.3217	-0.234
Mof_C 	C 	0.7546	0.3828	0.3828	0.133
Mof_C 	C 	0.8124	0.4907	0.4907	-0.238
Mof_N 	N 	0.6497	0.2725	0.5572	-0.28
Mof_N 	N 	0.7153	0.0925	0.4428	-0.281
Mof_N 	N 	0.2847	0.7275	0.3772	-0.281
Mof_N 	N 	0.3503	0.9075	0.6228	-0.282
Mof_N 	N 	0.3772	0.2847	0.7275	-0.28
Mof_N 	N 	0.6228	0.3503	0.9075	-0.282
Mof_N 	N 	0.5572	0.6497	0.2725	-0.281
Mof_N 	N 	0.4428	0.7153	0.0925	-0.282
Mof_N 	N 	0.0925	0.4428	0.7153	-0.282
Mof_N 	N 	0.2725	0.5572	0.6497	-0.281
Mof_N 	N 	0.9075	0.6228	0.3503	-0.281
Mof_N 	N 	0.7275	0.3772	0.2847	-0.28
Mof_N 	N 	0.0925	0.7153	0.4428	-0.282
Mof_N 	N 	0.2725	0.6497	0.5572	-0.281
Mof_N 	N 	0.9075	0.3503	0.6228	-0.281
Mof_N 	N 	0.7275	0.2847	0.3772	-0.28
Mof_N 	N 	0.6497	0.5572	0.2725	-0.28
Mof_N 	N 	0.7153	0.4428	0.0925	-0.282
Mof_N 	N 	0.2847	0.3772	0.7275	-0.28
Mof_N 	N 	0.3503	0.6228	0.9075	-0.282
Mof_N 	N 	0.3772	0.7275	0.2847	-0.281
Mof_N 	N 	0.6228	0.9075	0.3503	-0.281
Mof_N 	N 	0.5572	0.2725	0.6497	-0.281
Mof_N 	N 	0.4428	0.0925	0.7153	-0.281
Mof_H 	H 	0.73685	0.17433	0.64723	0.031
Mof_H 	H 	0.60891	0.10346	0.65245	0.05
Mof_H 	H 	0.72701	0.24132	0.77308	0.044
Mof_H 	H 	0.43613	0.91419	0.28608	0.033
Mof_H 	H 	0.50276	0.02049	0.25223	0.05
Mof_H 	H 	0.50746	0.06532	0.38893	0.045
Mof_H 	H 	0.56021	0.87447	0.4883	0.042
Mof_H 	H 	0.51245	0.74789	0.50209	0.049
Mof_H 	H 	0.48098	0.85853	0.56326	0.036
Mof_H 	H 	0.30322	0.92157	0.43773	0.037
Mof_H 	H 	0.38302	0.07678	0.515	0.04
Mof_H 	H 	0.24099	0.00165	0.49362	0.051
Mof_H 	H 	0.49724	0.51773	0.74946	0.048
Mof_H 	H 	0.56387	0.47806	0.84995	0.034
Mof_H 	H 	0.49254	0.55785	0.88147	0.043
Mof_H 	H 	0.48755	0.23543	0.98964	0.041
Mof_H 	H 	0.43979	0.31425	0.92808	0.035
Mof_H 	H 	0.51902	0.37755	0.08228	0.035
Mof_H 	H 	0.61698	0.69376	0.13198	0.041
Mof_H 	H 	0.69678	0.61835	0.13451	0.04
Mof_H 	H 	0.75901	0.76066	0.25263	0.049
Mof_H 	H 	0.39109	0.49455	0.04355	0.05
Mof_H 	H 	0.26315	0.43748	0.91038	0.026
Mof_H 	H 	0.27299	0.51432	0.04607	0.046
Mof_H 	H 	0.0518	0.39123	0.4993	0.048
Mof_H 	H 	0.91076	0.27083	0.43651	0.03
Mof_H 	H 	0.03745	0.26518	0.51055	0.047
Mof_H 	H 	0.12794	0.61495	0.6888	0.041
Mof_H 	H 	0.13878	0.70171	0.62081	0.038
Mof_H 	H 	0.2524	0.75611	0.76315	0.049
Mof_H 	H 	0.02361	0.50423	0.25439	0.049
Mof_H 	H 	0.91332	0.43606	0.28326	0.033
Mof_H 	H 	0.06307	0.50607	0.38958	0.045
Mof_H 	H 	0.86122	0.56293	0.48203	0.038
Mof_H 	H 	0.87206	0.487	0.56086	0.041
Mof_H 	H 	0.7476	0.50371	0.51076	0.049
_end
