data_functionalizedCrystal
_audit_creation_method	'EQeq! by Chris Wilmer'
_symmetry_space_group_name_H-M	'P1'
_symmetry_Int_Tables_number	1
_symmetry_cell_setting	triclinic
loop_
_symmetry_equiv_pos_as_xyz
  x,y,z
_cell_length_a	13.821
_cell_length_b	32.91
_cell_length_c	14.903
_cell_angle_alpha	90
_cell_angle_beta	112.939
_cell_angle_gamma	90
loop_
_atom_site_label
_atom_site_type_symbol
_atom_site_fract_x
_atom_site_fract_y
_atom_site_fract_z
_atom_site_charge
Mof_C 	C 	0.1349	0.88684	0.3635	0.083
Mof_H 	H 	0.1712	0.8813	0.4294	0.005
Mof_C 	C 	0.1254	0.85622	0.2982	-0.128
Mof_H 	H 	0.1543	0.8308	0.3201	0.076
Mof_C 	C 	0.0724	0.86341	0.1993	0.056
Mof_C 	C 	0.0295	0.90152	0.1722	-0.12
Mof_H 	H 	0.9917	0.9076	0.1068	0.152
Mof_C 	C 	0.0431	0.93065	0.2431	0.095
Mof_H 	H 	0.0143	0.9563	0.2232	0.071
Mof_C 	C 	0.0655	0.83124	0.1257	0.113
Mof_C 	C 	0.1554	0.80887	0.1385	-0.168
Mof_H 	H 	0.2164	0.8135	0.1933	0.099
Mof_C 	C 	0.1557	0.77969	0.0709	0.111
Mof_C 	C 	0.062	0.77276	0.9899	-0.239
Mof_H 	H 	0.0598	0.7534	0.9438	0.127
Mof_C 	C 	0.9731	0.79472	0.9786	0.269
Mof_C 	C 	0.9725	0.8244	0.0439	-0.242
Mof_H 	H 	0.9122	0.8394	0.0339	0.14
Mof_C 	C 	0.2549	0.75747	0.0842	0.038
Mof_C 	C 	0.339	0.75516	0.1738	-0.115
Mof_H 	H 	0.3328	0.7662	0.2288	0.081
Mof_C 	C 	0.432	0.7365	0.1819	0.079
Mof_H 	H 	0.4868	0.7356	0.243	0.009
Mof_C 	C 	0.3654	0.72108	0.021	0.071
Mof_H 	H 	0.3734	0.7091	0.9677	0.02
Mof_C 	C 	0.2689	0.73923	0.0064	-0.11
Mof_H 	H 	0.2146	0.739	0.945	0.079
Mof_C 	C 	0.8144	0.81094	0.8379	0.273
Mof_C 	C 	0.8511	0.8457	0.8102	-0.243
Mof_H 	H 	0.9224	0.8519	0.837	0.14
Mof_C 	C 	0.7801	0.8716	0.7412	0.14
Mof_C 	C 	0.672	0.862	0.704	-0.17
Mof_H 	H 	0.6243	0.8795	0.6594	0.096
Mof_C 	C 	0.6354	0.82719	0.7325	0.106
Mof_C 	C 	0.7075	0.80063	0.7998	-0.233
Mof_H 	H 	0.6847	0.7767	0.8187	0.126
Mof_C 	C 	0.8156	0.90874	0.7063	0.054
Mof_C 	C 	0.9178	0.91413	0.7127	-0.087
Mof_H 	H 	0.9686	0.8947	0.744	0.08
Mof_C 	C 	0.9448	0.94824	0.6729	0.075
Mof_H 	H 	0.0139	0.951	0.6784	0.037
Mof_C 	C 	0.7767	0.97312	0.6228	0.077
Mof_H 	H 	0.7279	0.9933	0.5927	0.035
Mof_C 	C 	0.5197	0.81936	0.6967	0.034
Mof_C 	C 	0.4739	0.78186	0.6644	-0.113
Mof_H 	H 	0.5149	0.7598	0.6622	0.079
Mof_C 	C 	0.3654	0.77755	0.6351	0.072
Mof_H 	H 	0.3359	0.7523	0.6123	0.024
Mof_C 	C 	0.3463	0.84365	0.6677	0.066
Mof_H 	H 	0.3038	0.8653	0.6696	0.015
Mof_C 	C 	0.4526	0.85079	0.6958	-0.115
Mof_H 	H 	0.4792	0.8768	0.7142	0.075
Mof_C 	C 	0.2806	0.95198	0.6285	0.355
Mof_C 	C 	0.384	0.95183	0.7171	-0.178
Mof_C 	C 	0.4733	0.96813	0.7098	0.182
Mof_H 	H 	0.4695	0.9782	0.6503	-0.006
Mof_C 	C 	0.569	0.96963	0.7908	-0.293
Mof_H 	H 	0.6275	0.9814	0.7851	0.21
Mof_C 	C 	0.577	0.95357	0.8794	0.381
Mof_C 	C 	0.4874	0.93626	0.8854	-0.274
Mof_H 	H 	0.4919	0.9247	0.9439	0.201
Mof_C 	C 	0.3918	0.93583	0.806	0.2
Mof_H 	H 	0.3328	0.9248	0.8124	0.019
Mof_C 	C 	0.6798	0.95451	0.9736	-0.509
Mof_C 	C 	0.6668	0.98915	0.0382	0.971
Mof_C 	C 	0.7791	0.96447	0.9526	0.98
Mof_C 	C 	0.6978	0.9129	0.025	0.385
Mof_C 	C 	0.7288	0.90828	0.1257	-0.309
Mof_H 	H 	0.7477	0.9309	0.1662	0.214
Mof_C 	C 	0.7314	0.86989	0.1653	0.198
Mof_H 	H 	0.752	0.867	0.2323	-0.013
Mof_C 	C 	0.7037	0.83585	0.1062	-0.207
Mof_C 	C 	0.68	0.84023	0.0075	0.202
Mof_H 	H 	0.666	0.8173	0.9679	-0.022
Mof_C 	C 	0.6769	0.87795	0.9673	-0.33
Mof_H 	H 	0.6607	0.8803	0.9008	0.177
Mof_C 	C 	0.693	0.79515	0.1481	0.355
Mof_Cd	Cd	0.10376	0.96889	0.46706	0.36
Mof_Cd	Cd	0.62151	0.70067	0.12565	0.345
Mof_F 	F 	0.634	0.02344	0.9873	-0.455
Mof_F 	F 	0.7561	0.99828	0.1146	-0.478
Mof_F 	F 	0.595	0.97931	0.0741	-0.481
Mof_F 	F 	0.7793	0.00179	0.9189	-0.469
Mof_F 	F 	0.8677	0.96111	0.0334	-0.473
Mof_F 	F 	0.7884	0.93854	0.8879	-0.528
Mof_N 	N 	0.0951	0.92419	0.3382	-0.149
Mof_N 	N 	0.4471	0.71985	0.1072	-0.151
Mof_N 	N 	0.8756	0.97733	0.6269	-0.142
Mof_N 	N 	0.3009	0.8076	0.638	-0.148
Mof_O 	O 	0.2807	0.9671	0.5518	-0.29
Mof_O 	O 	0.1999	0.93861	0.6349	-0.28
Mof_O 	O 	0.6405	0.7681	0.0889	-0.286
Mof_O 	O 	0.7368	0.79085	0.2377	-0.264
Mof_O 	O 	0.8797	0.78244	0.9013	-0.297
Mof_C 	C 	0.7458	0.94047	0.661	-0.082
Mof_H 	H 	0.6771	0.9392	0.657	0.078
Mof_C 	C 	0.3651	0.38684	0.1365	0.083
Mof_H 	H 	0.3288	0.3813	0.0706	0.007
Mof_C 	C 	0.3746	0.35622	0.2018	-0.124
Mof_H 	H 	0.3457	0.3308	0.1799	0.076
Mof_C 	C 	0.4276	0.36341	0.3007	0.052
Mof_C 	C 	0.4705	0.40152	0.3278	-0.114
Mof_H 	H 	0.5083	0.4076	0.3932	0.149
Mof_C 	C 	0.4569	0.43065	0.2569	0.092
Mof_H 	H 	0.4857	0.4563	0.2768	0.072
Mof_C 	C 	0.4345	0.33124	0.3743	0.12
Mof_C 	C 	0.3446	0.30887	0.3615	-0.173
Mof_H 	H 	0.2836	0.3135	0.3067	0.1
Mof_C 	C 	0.3443	0.27969	0.4291	0.116
Mof_C 	C 	0.438	0.27276	0.5101	-0.246
Mof_H 	H 	0.4402	0.2534	0.5562	0.129
Mof_C 	C 	0.5269	0.29472	0.5214	0.275
Mof_C 	C 	0.5275	0.3244	0.4561	-0.251
Mof_H 	H 	0.5878	0.3394	0.4661	0.143
Mof_C 	C 	0.2451	0.25747	0.4158	0.035
Mof_C 	C 	0.161	0.25516	0.3262	-0.113
Mof_H 	H 	0.1672	0.2662	0.2712	0.08
Mof_C 	C 	0.068	0.2365	0.3181	0.079
Mof_H 	H 	0.0132	0.2356	0.257	0.009
Mof_C 	C 	0.1346	0.22108	0.479	0.07
Mof_H 	H 	0.1266	0.2091	0.5323	0.021
Mof_C 	C 	0.2311	0.23923	0.4936	-0.108
Mof_H 	H 	0.2854	0.239	0.555	0.078
Mof_C 	C 	0.6856	0.31094	0.6621	0.274
Mof_C 	C 	0.6489	0.3457	0.6898	-0.244
Mof_H 	H 	0.5776	0.3519	0.663	0.14
Mof_C 	C 	0.7199	0.3716	0.7588	0.141
Mof_C 	C 	0.828	0.362	0.796	-0.172
Mof_H 	H 	0.8757	0.3795	0.8406	0.096
Mof_C 	C 	0.8646	0.32719	0.7675	0.109
Mof_C 	C 	0.7925	0.30063	0.7002	-0.235
Mof_H 	H 	0.8153	0.2767	0.6813	0.127
Mof_C 	C 	0.6844	0.40874	0.7937	0.053
Mof_C 	C 	0.5822	0.41413	0.7873	-0.087
Mof_H 	H 	0.5314	0.3947	0.756	0.08
Mof_C 	C 	0.5552	0.44824	0.8271	0.075
Mof_H 	H 	0.4861	0.451	0.8216	0.037
Mof_C 	C 	0.7233	0.47312	0.8772	0.077
Mof_H 	H 	0.7721	0.4933	0.9073	0.035
Mof_C 	C 	0.9803	0.31936	0.8033	0.028
Mof_C 	C 	0.0261	0.28186	0.8356	-0.106
Mof_H 	H 	0.9851	0.2598	0.8378	0.075
Mof_C 	C 	0.1346	0.27755	0.8649	0.068
Mof_H 	H 	0.1641	0.2523	0.8877	0.026
Mof_C 	C 	0.1537	0.34365	0.8323	0.064
Mof_H 	H 	0.1962	0.3653	0.8304	0.016
Mof_C 	C 	0.0474	0.35079	0.8042	-0.11
Mof_H 	H 	0.0208	0.3768	0.7858	0.073
Mof_C 	C 	0.2194	0.45198	0.8715	0.355
Mof_C 	C 	0.116	0.45183	0.7829	-0.178
Mof_C 	C 	0.0267	0.46813	0.7902	0.183
Mof_H 	H 	0.0305	0.4782	0.8497	-0.006
Mof_C 	C 	0.931	0.46963	0.7092	-0.293
Mof_H 	H 	0.8725	0.4814	0.7149	0.21
Mof_C 	C 	0.923	0.45357	0.6206	0.381
Mof_C 	C 	0.0126	0.43626	0.6146	-0.273
Mof_H 	H 	0.0081	0.4247	0.5561	0.201
Mof_C 	C 	0.1082	0.43583	0.694	0.2
Mof_H 	H 	0.1672	0.4248	0.6876	0.019
Mof_C 	C 	0.8202	0.45451	0.5264	-0.506
Mof_C 	C 	0.8332	0.48915	0.4618	0.97
Mof_C 	C 	0.7209	0.46447	0.5474	0.981
Mof_C 	C 	0.8022	0.4129	0.475	0.379
Mof_C 	C 	0.7712	0.40828	0.3743	-0.305
Mof_H 	H 	0.7523	0.4309	0.3338	0.213
Mof_C 	C 	0.7686	0.36989	0.3347	0.194
Mof_H 	H 	0.748	0.367	0.2677	-0.012
Mof_C 	C 	0.7963	0.33585	0.3938	-0.203
Mof_C 	C 	0.82	0.34023	0.4925	0.195
Mof_H 	H 	0.834	0.3173	0.5321	-0.019
Mof_C 	C 	0.8231	0.37795	0.5327	-0.323
Mof_H 	H 	0.8393	0.3803	0.5992	0.174
Mof_C 	C 	0.807	0.29515	0.3519	0.354
Mof_Cd	Cd	0.39624	0.46889	0.03294	0.36
Mof_Cd	Cd	0.87849	0.20067	0.37435	0.345
Mof_F 	F 	0.866	0.52344	0.5127	-0.454
Mof_F 	F 	0.7439	0.49828	0.3854	-0.478
Mof_F 	F 	0.905	0.47931	0.4259	-0.481
Mof_F 	F 	0.7207	0.50179	0.5811	-0.469
Mof_F 	F 	0.6323	0.46111	0.4666	-0.474
Mof_F 	F 	0.7116	0.43854	0.6121	-0.528
Mof_N 	N 	0.4049	0.42419	0.1618	-0.148
Mof_N 	N 	0.0529	0.21985	0.3928	-0.15
Mof_N 	N 	0.6244	0.47733	0.8731	-0.141
Mof_N 	N 	0.1991	0.3076	0.862	-0.146
Mof_O 	O 	0.2193	0.4671	0.9482	-0.289
Mof_O 	O 	0.3001	0.43861	0.8651	-0.28
Mof_O 	O 	0.8595	0.2681	0.4111	-0.286
Mof_O 	O 	0.7632	0.29085	0.2623	-0.263
Mof_O 	O 	0.6203	0.28244	0.5987	-0.298
Mof_C 	C 	0.7542	0.44047	0.839	-0.082
Mof_H 	H 	0.8229	0.4392	0.843	0.078
Mof_C 	C 	0.8651	0.11316	0.6365	0.084
Mof_H 	H 	0.8288	0.1187	0.5706	0.006
Mof_C 	C 	0.8746	0.14378	0.7018	-0.127
Mof_H 	H 	0.8457	0.1692	0.6799	0.077
Mof_C 	C 	0.9276	0.13659	0.8007	0.056
Mof_C 	C 	0.9705	0.09848	0.8278	-0.12
Mof_H 	H 	0.0083	0.0924	0.8932	0.152
Mof_C 	C 	0.9569	0.06935	0.7569	0.095
Mof_H 	H 	0.9857	0.0437	0.7768	0.071
Mof_C 	C 	0.9345	0.16876	0.8743	0.113
Mof_C 	C 	0.8446	0.19113	0.8615	-0.168
Mof_H 	H 	0.7836	0.1865	0.8067	0.099
Mof_C 	C 	0.8443	0.22031	0.9291	0.111
Mof_C 	C 	0.938	0.22724	0.0101	-0.239
Mof_H 	H 	0.9402	0.2466	0.0562	0.127
Mof_C 	C 	0.0269	0.20528	0.0214	0.269
Mof_C 	C 	0.0275	0.1756	0.9561	-0.242
Mof_H 	H 	0.0878	0.1606	0.9661	0.14
Mof_C 	C 	0.7451	0.24253	0.9158	0.038
Mof_C 	C 	0.661	0.24484	0.8262	-0.115
Mof_H 	H 	0.6672	0.2338	0.7712	0.081
Mof_C 	C 	0.568	0.2635	0.8181	0.079
Mof_H 	H 	0.5132	0.2644	0.757	0.009
Mof_C 	C 	0.6346	0.27892	0.979	0.071
Mof_H 	H 	0.6266	0.2909	0.0323	0.02
Mof_C 	C 	0.7311	0.26077	0.9936	-0.11
Mof_H 	H 	0.7854	0.261	0.055	0.079
Mof_C 	C 	0.1856	0.18906	0.1621	0.273
Mof_C 	C 	0.1489	0.1543	0.1898	-0.243
Mof_H 	H 	0.0776	0.1481	0.163	0.14
Mof_C 	C 	0.2199	0.1284	0.2588	0.14
Mof_C 	C 	0.328	0.138	0.296	-0.17
Mof_H 	H 	0.3757	0.1205	0.3406	0.096
Mof_C 	C 	0.3646	0.17281	0.2675	0.106
Mof_C 	C 	0.2925	0.19937	0.2002	-0.233
Mof_H 	H 	0.3153	0.2233	0.1813	0.126
Mof_C 	C 	0.1844	0.09126	0.2937	0.054
Mof_C 	C 	0.0822	0.08587	0.2873	-0.087
Mof_H 	H 	0.0314	0.1053	0.256	0.08
Mof_C 	C 	0.0552	0.05176	0.3271	0.075
Mof_H 	H 	0.9861	0.049	0.3216	0.037
Mof_C 	C 	0.2233	0.02688	0.3772	0.077
Mof_H 	H 	0.2721	0.0067	0.4073	0.035
Mof_C 	C 	0.4803	0.18064	0.3033	0.034
Mof_C 	C 	0.5261	0.21814	0.3356	-0.113
Mof_H 	H 	0.4851	0.2402	0.3378	0.079
Mof_C 	C 	0.6346	0.22245	0.3649	0.072
Mof_H 	H 	0.6641	0.2477	0.3877	0.024
Mof_C 	C 	0.6537	0.15635	0.3323	0.066
Mof_H 	H 	0.6962	0.1347	0.3304	0.015
Mof_C 	C 	0.5474	0.14921	0.3042	-0.115
Mof_H 	H 	0.5208	0.1232	0.2858	0.075
Mof_C 	C 	0.7194	0.04802	0.3715	0.355
Mof_C 	C 	0.616	0.04817	0.2829	-0.178
Mof_C 	C 	0.5267	0.03187	0.2902	0.182
Mof_H 	H 	0.5305	0.0218	0.3497	-0.006
Mof_C 	C 	0.431	0.03037	0.2092	-0.293
Mof_H 	H 	0.3725	0.0186	0.2149	0.21
Mof_C 	C 	0.423	0.04643	0.1206	0.381
Mof_C 	C 	0.5126	0.06374	0.1146	-0.274
Mof_H 	H 	0.5081	0.0753	0.0561	0.201
Mof_C 	C 	0.6082	0.06417	0.194	0.2
Mof_H 	H 	0.6672	0.0752	0.1876	0.019
Mof_C 	C 	0.3202	0.04549	0.0264	-0.509
Mof_C 	C 	0.3332	0.01085	0.9618	0.971
Mof_C 	C 	0.2209	0.03553	0.0474	0.98
Mof_C 	C 	0.3022	0.0871	0.975	0.385
Mof_C 	C 	0.2712	0.09172	0.8743	-0.309
Mof_H 	H 	0.2523	0.0691	0.8338	0.214
Mof_C 	C 	0.2686	0.13011	0.8347	0.198
Mof_H 	H 	0.248	0.133	0.7677	-0.013
Mof_C 	C 	0.2963	0.16415	0.8938	-0.207
Mof_C 	C 	0.32	0.15977	0.9925	0.202
Mof_H 	H 	0.334	0.1827	0.0321	-0.022
Mof_C 	C 	0.3231	0.12205	0.0327	-0.33
Mof_H 	H 	0.3393	0.1197	0.0992	0.177
Mof_C 	C 	0.307	0.20485	0.8519	0.355
Mof_Cd	Cd	0.89624	0.03111	0.53294	0.36
Mof_Cd	Cd	0.37849	0.29933	0.87435	0.345
Mof_F 	F 	0.366	0.97656	0.0127	-0.455
Mof_F 	F 	0.2439	0.00172	0.8854	-0.478
Mof_F 	F 	0.405	0.02069	0.9259	-0.481
Mof_F 	F 	0.2207	0.99821	0.0811	-0.469
Mof_F 	F 	0.1323	0.03889	0.9666	-0.473
Mof_F 	F 	0.2116	0.06146	0.1121	-0.528
Mof_N 	N 	0.9049	0.07581	0.6618	-0.149
Mof_N 	N 	0.5529	0.28015	0.8928	-0.151
Mof_N 	N 	0.1244	0.02267	0.3731	-0.142
Mof_N 	N 	0.6991	0.1924	0.362	-0.148
Mof_O 	O 	0.7193	0.0329	0.4482	-0.29
Mof_O 	O 	0.8001	0.06139	0.3651	-0.28
Mof_O 	O 	0.3595	0.2319	0.9111	-0.286
Mof_O 	O 	0.2632	0.20915	0.7623	-0.264
Mof_O 	O 	0.1203	0.21756	0.0987	-0.297
Mof_C 	C 	0.2542	0.05953	0.339	-0.082
Mof_H 	H 	0.3229	0.0608	0.343	0.078
Mof_C 	C 	0.6349	0.61316	0.8635	0.083
Mof_H 	H 	0.6712	0.6187	0.9294	0.007
Mof_C 	C 	0.6254	0.64378	0.7982	-0.124
Mof_H 	H 	0.6543	0.6692	0.8201	0.076
Mof_C 	C 	0.5724	0.63659	0.6993	0.052
Mof_C 	C 	0.5295	0.59848	0.6722	-0.114
Mof_H 	H 	0.4917	0.5924	0.6068	0.149
Mof_C 	C 	0.5431	0.56935	0.7431	0.092
Mof_H 	H 	0.5143	0.5437	0.7232	0.072
Mof_C 	C 	0.5655	0.66876	0.6257	0.12
Mof_C 	C 	0.6554	0.69113	0.6385	-0.173
Mof_H 	H 	0.7164	0.6865	0.6933	0.1
Mof_C 	C 	0.6557	0.72031	0.5709	0.116
Mof_C 	C 	0.562	0.72724	0.4899	-0.246
Mof_H 	H 	0.5598	0.7466	0.4438	0.129
Mof_C 	C 	0.4731	0.70528	0.4786	0.275
Mof_C 	C 	0.4725	0.6756	0.5439	-0.251
Mof_H 	H 	0.4122	0.6606	0.5339	0.143
Mof_C 	C 	0.7549	0.74253	0.5842	0.035
Mof_C 	C 	0.839	0.74484	0.6738	-0.113
Mof_H 	H 	0.8328	0.7338	0.7288	0.08
Mof_C 	C 	0.932	0.7635	0.6819	0.079
Mof_H 	H 	0.9868	0.7644	0.743	0.009
Mof_C 	C 	0.8654	0.77892	0.521	0.07
Mof_H 	H 	0.8734	0.7909	0.4677	0.021
Mof_C 	C 	0.7689	0.76077	0.5064	-0.108
Mof_H 	H 	0.7146	0.761	0.445	0.078
Mof_C 	C 	0.3144	0.68906	0.3379	0.274
Mof_C 	C 	0.3511	0.6543	0.3102	-0.244
Mof_H 	H 	0.4224	0.6481	0.337	0.14
Mof_C 	C 	0.2801	0.6284	0.2412	0.141
Mof_C 	C 	0.172	0.638	0.204	-0.172
Mof_H 	H 	0.1243	0.6205	0.1594	0.096
Mof_C 	C 	0.1354	0.67281	0.2325	0.109
Mof_C 	C 	0.2075	0.69937	0.2998	-0.235
Mof_H 	H 	0.1847	0.7233	0.3187	0.127
Mof_C 	C 	0.3156	0.59126	0.2063	0.053
Mof_C 	C 	0.4178	0.58587	0.2127	-0.087
Mof_H 	H 	0.4686	0.6053	0.244	0.08
Mof_C 	C 	0.4448	0.55176	0.1729	0.075
Mof_H 	H 	0.5139	0.549	0.1784	0.037
Mof_C 	C 	0.2767	0.52688	0.1228	0.077
Mof_H 	H 	0.2279	0.5067	0.0927	0.035
Mof_C 	C 	0.0197	0.68064	0.1967	0.028
Mof_C 	C 	0.9739	0.71814	0.1644	-0.106
Mof_H 	H 	0.0149	0.7402	0.1622	0.075
Mof_C 	C 	0.8654	0.72245	0.1351	0.068
Mof_H 	H 	0.8359	0.7477	0.1123	0.026
Mof_C 	C 	0.8463	0.65635	0.1677	0.064
Mof_H 	H 	0.8038	0.6347	0.1696	0.016
Mof_C 	C 	0.9526	0.64921	0.1958	-0.11
Mof_H 	H 	0.9792	0.6232	0.2142	0.073
Mof_C 	C 	0.7806	0.54802	0.1285	0.355
Mof_C 	C 	0.884	0.54817	0.2171	-0.178
Mof_C 	C 	0.9733	0.53187	0.2098	0.183
Mof_H 	H 	0.9695	0.5218	0.1503	-0.006
Mof_C 	C 	0.069	0.53037	0.2908	-0.293
Mof_H 	H 	0.1275	0.5186	0.2851	0.21
Mof_C 	C 	0.077	0.54643	0.3794	0.381
Mof_C 	C 	0.9874	0.56374	0.3854	-0.273
Mof_H 	H 	0.9919	0.5753	0.4439	0.201
Mof_C 	C 	0.8918	0.56417	0.306	0.2
Mof_H 	H 	0.8328	0.5752	0.3124	0.019
Mof_C 	C 	0.1798	0.54549	0.4736	-0.506
Mof_C 	C 	0.1668	0.51085	0.5382	0.97
Mof_C 	C 	0.2791	0.53553	0.4526	0.981
Mof_C 	C 	0.1978	0.5871	0.525	0.379
Mof_C 	C 	0.2288	0.59172	0.6257	-0.305
Mof_H 	H 	0.2477	0.5691	0.6662	0.213
Mof_C 	C 	0.2314	0.63011	0.6653	0.194
Mof_H 	H 	0.252	0.633	0.7323	-0.012
Mof_C 	C 	0.2037	0.66415	0.6062	-0.203
Mof_C 	C 	0.18	0.65977	0.5075	0.195
Mof_H 	H 	0.166	0.6827	0.4679	-0.019
Mof_C 	C 	0.1769	0.62205	0.4673	-0.323
Mof_H 	H 	0.1607	0.6197	0.4008	0.174
Mof_C 	C 	0.193	0.70485	0.6481	0.354
Mof_Cd	Cd	0.60376	0.53111	0.96706	0.36
Mof_Cd	Cd	0.12151	0.79933	0.62565	0.345
Mof_F 	F 	0.134	0.47656	0.4873	-0.454
Mof_F 	F 	0.2561	0.50172	0.6146	-0.478
Mof_F 	F 	0.095	0.52069	0.5741	-0.481
Mof_F 	F 	0.2793	0.49821	0.4189	-0.469
Mof_F 	F 	0.3677	0.53889	0.5334	-0.474
Mof_F 	F 	0.2884	0.56146	0.3879	-0.528
Mof_N 	N 	0.5951	0.57581	0.8382	-0.148
Mof_N 	N 	0.9471	0.78015	0.6072	-0.15
Mof_N 	N 	0.3756	0.52267	0.1269	-0.141
Mof_N 	N 	0.8009	0.6924	0.138	-0.146
Mof_O 	O 	0.7807	0.5329	0.0518	-0.289
Mof_O 	O 	0.6999	0.56139	0.1349	-0.28
Mof_O 	O 	0.1405	0.7319	0.5889	-0.286
Mof_O 	O 	0.2368	0.70915	0.7377	-0.263
Mof_O 	O 	0.3797	0.71756	0.4013	-0.298
Mof_C 	C 	0.2458	0.55953	0.161	-0.082
Mof_H 	H 	0.1771	0.5608	0.157	0.078
_end
