data_functionalizedCrystal
_audit_creation_method	'EQeq! by Chris Wilmer'
_symmetry_space_group_name_H-M	'P1'
_symmetry_Int_Tables_number	1
_symmetry_cell_setting	triclinic
loop_
_symmetry_equiv_pos_as_xyz
  x,y,z
_cell_length_a	16.49
_cell_length_b	16.49
_cell_length_c	14.05
_cell_angle_alpha	90
_cell_angle_beta	90
_cell_angle_gamma	120
loop_
_atom_site_label
_atom_site_type_symbol
_atom_site_fract_x
_atom_site_fract_y
_atom_site_fract_z
_atom_site_charge
Mof_O 	O 	0.0542	0.1787	0.8627	-0.295
Mof_O 	O 	0.7743	0.3357	0.8301	-0.476
Mof_O 	O 	0.7549	0.2918	0.9804	-0.459
Mof_N 	N 	0.9327	0.026	0.8668	-0.187
Mof_C 	C 	0.9673	0.2414	0.7908	-0.3
Mof_H 	H 	0.993	0.2416	0.7319	0.167
Mof_C 	C 	0.9515	0.2063	0.9601	-0.306
Mof_H 	H 	0.9689	0.1846	0.013	0.162
Mof_C 	C 	0.0238	0.0858	0.8663	0.263
Mof_C 	C 	0.9046	0.276	0.8029	0.192
Mof_H 	H 	0.8908	0.3024	0.7514	-0.014
Mof_C 	C 	0.7922	0.3014	0.8956	0.448
Mof_C 	C 	0.8645	0.2712	0.8885	-0.236
Mof_C 	C 	0.9879	0.2076	0.8716	0.335
Mof_C 	C 	0.8884	0.2381	0.9683	0.209
Mof_H 	H 	0.8621	0.2373	0.0271	-0.016
Mof_O 	O 	0.63	0.33	0.1428	-0.148
Mof_O 	O 	0.8213	0.8755	0.8627	-0.294
Mof_O 	O 	0.6643	0.4386	0.8301	-0.476
Mof_O 	O 	0.7082	0.4631	0.9804	-0.46
Mof_N 	N 	0.974	0.9067	0.8668	-0.188
Mof_C 	C 	0.7586	0.7259	0.7908	-0.301
Mof_H 	H 	0.7584	0.7514	0.7319	0.167
Mof_C 	C 	0.7937	0.7452	0.9601	-0.318
Mof_H 	H 	0.8154	0.7843	0.013	0.172
Mof_C 	C 	0.9142	0.938	0.8663	0.263
Mof_C 	C 	0.724	0.6286	0.8029	0.192
Mof_H 	H 	0.6976	0.5884	0.7514	-0.014
Mof_C 	C 	0.6986	0.4908	0.8956	0.447
Mof_C 	C 	0.7288	0.5933	0.8885	-0.235
Mof_C 	C 	0.7924	0.7803	0.8716	0.336
Mof_C 	C 	0.7619	0.6503	0.9683	0.205
Mof_H 	H 	0.7627	0.6248	0.0271	-0.012
Mof_O 	O 	0.67	0.3	0.1428	-0.149
Mof_O 	O 	0.1245	0.9458	0.8627	-0.297
Mof_O 	O 	0.5614	0.2257	0.8301	-0.476
Mof_O 	O 	0.5369	0.2451	0.9804	-0.46
Mof_N 	N 	0.0933	0.0673	0.8668	-0.189
Mof_C 	C 	0.2741	0.0327	0.7908	-0.303
Mof_H 	H 	0.2486	0.007	0.7319	0.168
Mof_C 	C 	0.2548	0.0485	0.9601	-0.318
Mof_H 	H 	0.2157	0.0311	0.013	0.17
Mof_C 	C 	0.062	0.9762	0.8663	0.259
Mof_C 	C 	0.3714	0.0954	0.8029	0.194
Mof_H 	H 	0.4116	0.1092	0.7514	-0.015
Mof_C 	C 	0.5092	0.2078	0.8956	0.447
Mof_C 	C 	0.4067	0.1355	0.8885	-0.236
Mof_C 	C 	0.2197	0.0121	0.8716	0.339
Mof_C 	C 	0.3497	0.1116	0.9683	0.207
Mof_H 	H 	0.3752	0.1379	0.0271	-0.013
Mof_O 	O 	0.7	0.37	0.1428	-0.149
Mof_O 	O 	0.8213	0.9458	0.6373	-0.295
Mof_O 	O 	0.6643	0.2257	0.6699	-0.476
Mof_O 	O 	0.7082	0.2451	0.5196	-0.461
Mof_N 	N 	0.974	0.0673	0.6332	-0.19
Mof_C 	C 	0.7586	0.0327	0.7092	-0.301
Mof_H 	H 	0.7584	0.007	0.7681	0.168
Mof_C 	C 	0.7937	0.0485	0.5399	-0.318
Mof_H 	H 	0.8154	0.0311	0.487	0.172
Mof_C 	C 	0.9142	0.9762	0.6337	0.265
Mof_C 	C 	0.724	0.0954	0.6971	0.192
Mof_H 	H 	0.6976	0.1092	0.7486	-0.014
Mof_C 	C 	0.6986	0.2078	0.6044	0.447
Mof_C 	C 	0.7288	0.1355	0.6115	-0.234
Mof_C 	C 	0.7924	0.0121	0.6284	0.337
Mof_C 	C 	0.7619	0.1116	0.5317	0.202
Mof_H 	H 	0.7627	0.1379	0.4729	-0.01
Mof_O 	O 	0.67	0.37	0.3572	-0.148
Mof_O 	O 	0.1245	0.1787	0.6373	-0.294
Mof_O 	O 	0.5614	0.3357	0.6699	-0.476
Mof_O 	O 	0.5369	0.2918	0.5196	-0.461
Mof_N 	N 	0.0933	0.026	0.6332	-0.19
Mof_C 	C 	0.2741	0.2414	0.7092	-0.3
Mof_H 	H 	0.2486	0.2416	0.7681	0.166
Mof_C 	C 	0.2548	0.2063	0.5399	-0.317
Mof_H 	H 	0.2157	0.1846	0.487	0.171
Mof_C 	C 	0.062	0.0858	0.6337	0.265
Mof_C 	C 	0.3714	0.276	0.6971	0.191
Mof_H 	H 	0.4116	0.3024	0.7486	-0.014
Mof_C 	C 	0.5092	0.3014	0.6044	0.446
Mof_C 	C 	0.4067	0.2712	0.6115	-0.234
Mof_C 	C 	0.2197	0.2076	0.6284	0.335
Mof_C 	C 	0.3497	0.2381	0.5317	0.202
Mof_H 	H 	0.3752	0.2373	0.4729	-0.009
Mof_O 	O 	0.7	0.33	0.3572	-0.148
Mof_O 	O 	0.0542	0.8755	0.6373	-0.295
Mof_O 	O 	0.7743	0.4386	0.6699	-0.476
Mof_O 	O 	0.7549	0.4631	0.5196	-0.461
Mof_N 	N 	0.9327	0.9067	0.6332	-0.191
Mof_C 	C 	0.9673	0.7259	0.7092	-0.301
Mof_H 	H 	0.993	0.7514	0.7681	0.167
Mof_C 	C 	0.9515	0.7452	0.5399	-0.318
Mof_H 	H 	0.9689	0.7843	0.487	0.171
Mof_C 	C 	0.0238	0.938	0.6337	0.264
Mof_C 	C 	0.9046	0.6286	0.6971	0.192
Mof_H 	H 	0.8908	0.5884	0.7486	-0.014
Mof_C 	C 	0.7922	0.4908	0.6044	0.447
Mof_C 	C 	0.8645	0.5933	0.6115	-0.234
Mof_C 	C 	0.9879	0.7803	0.6284	0.337
Mof_C 	C 	0.8884	0.6503	0.5317	0.202
Mof_H 	H 	0.8621	0.6248	0.4729	-0.01
Mof_O 	O 	0.63	0.3	0.3572	-0.148
Mof_Zn	Zn	0.66667	0.33333	0.75	1.252
Mof_Zn	Zn	0.66667	0.33333	0.00231	1.244
Mof_Zn	Zn	0.66667	0.33333	0.49769	1.245
Mof_C 	C 	0.66667	0.33333	0.25	0.256
Mof_O 	O 	0.9458	0.8213	0.1373	-0.295
Mof_O 	O 	0.2257	0.6643	0.1699	-0.476
Mof_O 	O 	0.2451	0.7082	0.0196	-0.459
Mof_N 	N 	0.0673	0.974	0.1332	-0.187
Mof_C 	C 	0.0327	0.7586	0.2092	-0.3
Mof_H 	H 	0.007	0.7584	0.2681	0.167
Mof_C 	C 	0.0485	0.7937	0.0399	-0.306
Mof_H 	H 	0.0311	0.8154	0.987	0.162
Mof_C 	C 	0.9762	0.9142	0.1337	0.263
Mof_C 	C 	0.0954	0.724	0.1971	0.192
Mof_H 	H 	0.1092	0.6976	0.2486	-0.014
Mof_C 	C 	0.2078	0.6986	0.1044	0.448
Mof_C 	C 	0.1355	0.7288	0.1115	-0.236
Mof_C 	C 	0.0121	0.7924	0.1284	0.335
Mof_C 	C 	0.1116	0.7619	0.0317	0.209
Mof_H 	H 	0.1379	0.7627	0.9729	-0.016
Mof_O 	O 	0.37	0.67	0.8572	-0.148
Mof_O 	O 	0.1787	0.1245	0.1373	-0.294
Mof_O 	O 	0.3357	0.5614	0.1699	-0.476
Mof_O 	O 	0.2918	0.5369	0.0196	-0.46
Mof_N 	N 	0.026	0.0933	0.1332	-0.188
Mof_C 	C 	0.2414	0.2741	0.2092	-0.301
Mof_H 	H 	0.2416	0.2486	0.2681	0.167
Mof_C 	C 	0.2063	0.2548	0.0399	-0.318
Mof_H 	H 	0.1846	0.2157	0.987	0.172
Mof_C 	C 	0.0858	0.062	0.1337	0.263
Mof_C 	C 	0.276	0.3714	0.1971	0.192
Mof_H 	H 	0.3024	0.4116	0.2486	-0.014
Mof_C 	C 	0.3014	0.5092	0.1044	0.447
Mof_C 	C 	0.2712	0.4067	0.1115	-0.235
Mof_C 	C 	0.2076	0.2197	0.1284	0.336
Mof_C 	C 	0.2381	0.3497	0.0317	0.205
Mof_H 	H 	0.2373	0.3752	0.9729	-0.012
Mof_O 	O 	0.33	0.7	0.8572	-0.149
Mof_O 	O 	0.8755	0.0542	0.1373	-0.297
Mof_O 	O 	0.4386	0.7743	0.1699	-0.476
Mof_O 	O 	0.4631	0.7549	0.0196	-0.46
Mof_N 	N 	0.9067	0.9327	0.1332	-0.189
Mof_C 	C 	0.7259	0.9673	0.2092	-0.303
Mof_H 	H 	0.7514	0.993	0.2681	0.168
Mof_C 	C 	0.7452	0.9515	0.0399	-0.318
Mof_H 	H 	0.7843	0.9689	0.987	0.17
Mof_C 	C 	0.938	0.0238	0.1337	0.259
Mof_C 	C 	0.6286	0.9046	0.1971	0.194
Mof_H 	H 	0.5884	0.8908	0.2486	-0.015
Mof_C 	C 	0.4908	0.7922	0.1044	0.447
Mof_C 	C 	0.5933	0.8645	0.1115	-0.236
Mof_C 	C 	0.7803	0.9879	0.1284	0.339
Mof_C 	C 	0.6503	0.8884	0.0317	0.207
Mof_H 	H 	0.6248	0.8621	0.9729	-0.013
Mof_O 	O 	0.3	0.63	0.8572	-0.149
Mof_O 	O 	0.1787	0.0542	0.3627	-0.295
Mof_O 	O 	0.3357	0.7743	0.3301	-0.476
Mof_O 	O 	0.2918	0.7549	0.4804	-0.461
Mof_N 	N 	0.026	0.9327	0.3668	-0.19
Mof_C 	C 	0.2414	0.9673	0.2908	-0.301
Mof_H 	H 	0.2416	0.993	0.2319	0.168
Mof_C 	C 	0.2063	0.9515	0.4601	-0.318
Mof_H 	H 	0.1846	0.9689	0.513	0.172
Mof_C 	C 	0.0858	0.0238	0.3663	0.265
Mof_C 	C 	0.276	0.9046	0.3029	0.192
Mof_H 	H 	0.3024	0.8908	0.2514	-0.014
Mof_C 	C 	0.3014	0.7922	0.3956	0.447
Mof_C 	C 	0.2712	0.8645	0.3885	-0.234
Mof_C 	C 	0.2076	0.9879	0.3716	0.337
Mof_C 	C 	0.2381	0.8884	0.4683	0.202
Mof_H 	H 	0.2373	0.8621	0.5271	-0.01
Mof_O 	O 	0.33	0.63	0.6428	-0.148
Mof_O 	O 	0.8755	0.8213	0.3627	-0.294
Mof_O 	O 	0.4386	0.6643	0.3301	-0.476
Mof_O 	O 	0.4631	0.7082	0.4804	-0.461
Mof_N 	N 	0.9067	0.974	0.3668	-0.19
Mof_C 	C 	0.7259	0.7586	0.2908	-0.3
Mof_H 	H 	0.7514	0.7584	0.2319	0.166
Mof_C 	C 	0.7452	0.7937	0.4601	-0.317
Mof_H 	H 	0.7843	0.8154	0.513	0.171
Mof_C 	C 	0.938	0.9142	0.3663	0.265
Mof_C 	C 	0.6286	0.724	0.3029	0.191
Mof_H 	H 	0.5884	0.6976	0.2514	-0.014
Mof_C 	C 	0.4908	0.6986	0.3956	0.446
Mof_C 	C 	0.5933	0.7288	0.3885	-0.234
Mof_C 	C 	0.7803	0.7924	0.3716	0.335
Mof_C 	C 	0.6503	0.7619	0.4683	0.202
Mof_H 	H 	0.6248	0.7627	0.5271	-0.009
Mof_O 	O 	0.3	0.67	0.6428	-0.148
Mof_O 	O 	0.9458	0.1245	0.3627	-0.295
Mof_O 	O 	0.2257	0.5614	0.3301	-0.476
Mof_O 	O 	0.2451	0.5369	0.4804	-0.461
Mof_N 	N 	0.0673	0.0933	0.3668	-0.191
Mof_C 	C 	0.0327	0.2741	0.2908	-0.301
Mof_H 	H 	0.007	0.2486	0.2319	0.167
Mof_C 	C 	0.0485	0.2548	0.4601	-0.318
Mof_H 	H 	0.0311	0.2157	0.513	0.171
Mof_C 	C 	0.9762	0.062	0.3663	0.264
Mof_C 	C 	0.0954	0.3714	0.3029	0.192
Mof_H 	H 	0.1092	0.4116	0.2514	-0.014
Mof_C 	C 	0.2078	0.5092	0.3956	0.447
Mof_C 	C 	0.1355	0.4067	0.3885	-0.234
Mof_C 	C 	0.0121	0.2197	0.3716	0.337
Mof_C 	C 	0.1116	0.3497	0.4683	0.202
Mof_H 	H 	0.1379	0.3752	0.5271	-0.01
Mof_O 	O 	0.37	0.7	0.6428	-0.148
Mof_Zn	Zn	0.33333	0.66667	0.25	1.252
Mof_Zn	Zn	0.33333	0.66667	0.99769	1.244
Mof_Zn	Zn	0.33333	0.66667	0.50231	1.245
Mof_C 	C 	0.33333	0.66667	0.75	0.256
_end
