data_functionalizedCrystal
_audit_creation_method	'EQeq! by Chris Wilmer'
_symmetry_space_group_name_H-M	'P1'
_symmetry_Int_Tables_number	1
_symmetry_cell_setting	triclinic
loop_
_symmetry_equiv_pos_as_xyz
  x,y,z
_cell_length_a	18.7976
_cell_length_b	18.7976
_cell_length_c	18.7976
_cell_angle_alpha	90
_cell_angle_beta	90
_cell_angle_gamma	90
loop_
_atom_site_label
_atom_site_type_symbol
_atom_site_fract_x
_atom_site_fract_y
_atom_site_fract_z
_atom_site_charge
Mof_N 	N 	0.36965	0.41876	0.07772	-0.222
Mof_N 	N 	0.32502	0.40828	0.13205	-0.125
Mof_N 	N 	0.63035	0.58124	0.07772	-0.215
Mof_N 	N 	0.67498	0.59172	0.13205	-0.114
Mof_N 	N 	0.63035	0.41876	0.92228	-0.164
Mof_N 	N 	0.67498	0.40828	0.86795	-0.095
Mof_N 	N 	0.36965	0.58124	0.92228	-0.167
Mof_N 	N 	0.32502	0.59172	0.86795	-0.102
Mof_N 	N 	0.07772	0.36965	0.41876	-0.222
Mof_N 	N 	0.13205	0.32502	0.40828	-0.125
Mof_N 	N 	0.07772	0.63035	0.58124	-0.215
Mof_N 	N 	0.13205	0.67498	0.59172	-0.114
Mof_N 	N 	0.92228	0.63035	0.41876	-0.164
Mof_N 	N 	0.86795	0.67498	0.40828	-0.095
Mof_N 	N 	0.92228	0.36965	0.58124	-0.167
Mof_N 	N 	0.86795	0.32502	0.59172	-0.101
Mof_N 	N 	0.41876	0.07772	0.36965	-0.221
Mof_N 	N 	0.40828	0.13205	0.32502	-0.124
Mof_N 	N 	0.58124	0.07772	0.63035	-0.214
Mof_N 	N 	0.59172	0.13205	0.67498	-0.113
Mof_N 	N 	0.41876	0.92228	0.63035	-0.163
Mof_N 	N 	0.40828	0.86795	0.67498	-0.094
Mof_N 	N 	0.58124	0.92228	0.36965	-0.166
Mof_N 	N 	0.59172	0.86795	0.32502	-0.101
Mof_N 	N 	0.41876	0.36965	0.92228	-0.168
Mof_N 	N 	0.40828	0.32502	0.86795	-0.103
Mof_N 	N 	0.58124	0.63035	0.92228	-0.162
Mof_N 	N 	0.59172	0.67498	0.86795	-0.091
Mof_N 	N 	0.41876	0.63035	0.07772	-0.216
Mof_N 	N 	0.40828	0.67498	0.13205	-0.115
Mof_N 	N 	0.58124	0.36965	0.07772	-0.219
Mof_N 	N 	0.59172	0.32502	0.13205	-0.122
Mof_N 	N 	0.36965	0.07772	0.58124	-0.219
Mof_N 	N 	0.32502	0.13205	0.59172	-0.122
Mof_N 	N 	0.63035	0.07772	0.41876	-0.216
Mof_N 	N 	0.67498	0.13205	0.40828	-0.115
Mof_N 	N 	0.63035	0.92228	0.58124	-0.162
Mof_N 	N 	0.67498	0.86795	0.59172	-0.091
Mof_N 	N 	0.36965	0.92228	0.41876	-0.168
Mof_N 	N 	0.32502	0.86795	0.40828	-0.103
Mof_N 	N 	0.07772	0.41876	0.63035	-0.216
Mof_N 	N 	0.13205	0.40828	0.67498	-0.115
Mof_N 	N 	0.07772	0.58124	0.36965	-0.219
Mof_N 	N 	0.13205	0.59172	0.32502	-0.122
Mof_N 	N 	0.92228	0.41876	0.36965	-0.168
Mof_N 	N 	0.86795	0.40828	0.32502	-0.103
Mof_N 	N 	0.92228	0.58124	0.63035	-0.162
Mof_N 	N 	0.86795	0.59172	0.67498	-0.091
Mof_N 	N 	0.63035	0.58124	0.92228	-0.162
Mof_N 	N 	0.67498	0.59172	0.86795	-0.091
Mof_N 	N 	0.36965	0.41876	0.92228	-0.168
Mof_N 	N 	0.32502	0.40828	0.86795	-0.103
Mof_N 	N 	0.36965	0.58124	0.07772	-0.219
Mof_N 	N 	0.32502	0.59172	0.13205	-0.122
Mof_N 	N 	0.63035	0.41876	0.07772	-0.216
Mof_N 	N 	0.67498	0.40828	0.13205	-0.115
Mof_N 	N 	0.92228	0.63035	0.58124	-0.162
Mof_N 	N 	0.86795	0.67498	0.59172	-0.091
Mof_N 	N 	0.92228	0.36965	0.41876	-0.168
Mof_N 	N 	0.86795	0.32502	0.40828	-0.103
Mof_N 	N 	0.07772	0.36965	0.58124	-0.219
Mof_N 	N 	0.13205	0.32502	0.59172	-0.122
Mof_N 	N 	0.07772	0.63035	0.41876	-0.216
Mof_N 	N 	0.13205	0.67498	0.40828	-0.115
Mof_N 	N 	0.58124	0.92228	0.63035	-0.162
Mof_N 	N 	0.59172	0.86795	0.67498	-0.091
Mof_N 	N 	0.41876	0.92228	0.36965	-0.168
Mof_N 	N 	0.40828	0.86795	0.32502	-0.103
Mof_N 	N 	0.58124	0.07772	0.36965	-0.219
Mof_N 	N 	0.59172	0.13205	0.32502	-0.122
Mof_N 	N 	0.41876	0.07772	0.63035	-0.216
Mof_N 	N 	0.40828	0.13205	0.67498	-0.115
Mof_N 	N 	0.58124	0.63035	0.07772	-0.214
Mof_N 	N 	0.59172	0.67498	0.13205	-0.113
Mof_N 	N 	0.41876	0.36965	0.07772	-0.221
Mof_N 	N 	0.40828	0.32502	0.13205	-0.124
Mof_N 	N 	0.58124	0.36965	0.92228	-0.166
Mof_N 	N 	0.59172	0.32502	0.86795	-0.101
Mof_N 	N 	0.41876	0.63035	0.92228	-0.163
Mof_N 	N 	0.40828	0.67498	0.86795	-0.094
Mof_N 	N 	0.63035	0.92228	0.41876	-0.163
Mof_N 	N 	0.67498	0.86795	0.40828	-0.094
Mof_N 	N 	0.36965	0.92228	0.58124	-0.166
Mof_N 	N 	0.32502	0.86795	0.59172	-0.101
Mof_N 	N 	0.36965	0.07772	0.41876	-0.221
Mof_N 	N 	0.32502	0.13205	0.40828	-0.124
Mof_N 	N 	0.63035	0.07772	0.58124	-0.214
Mof_N 	N 	0.67498	0.13205	0.59172	-0.113
Mof_N 	N 	0.92228	0.58124	0.36965	-0.166
Mof_N 	N 	0.86795	0.59172	0.32502	-0.101
Mof_N 	N 	0.92228	0.41876	0.63035	-0.163
Mof_N 	N 	0.86795	0.40828	0.67498	-0.094
Mof_N 	N 	0.07772	0.58124	0.63035	-0.214
Mof_N 	N 	0.13205	0.59172	0.67498	-0.113
Mof_N 	N 	0.07772	0.41876	0.36965	-0.221
Mof_N 	N 	0.13205	0.40828	0.32502	-0.124
Mof_Co	Co	0.36196	0.5	-0	0.984
Mof_Co	Co	0.63804	0.5	-0	0.991
Mof_Co	Co	-9.52686e-33	0.36196	0.5	0.984
Mof_Co	Co	1.8747e-33	0.63804	0.5	0.991
Mof_Co	Co	0.5	0	0.36196	0.984
Mof_Co	Co	0.5	0	0.63804	0.991
Mof_Co	Co	0.5	0.36196	-0	0.984
Mof_Co	Co	0.5	0.63804	-0	0.991
Mof_Co	Co	0.36196	-3.80052e-33	0.5	0.984
Mof_Co	Co	0.63804	-3.80052e-33	0.5	0.991
Mof_Co	Co	2.39227e-33	0.5	0.63804	0.991
Mof_Co	Co	-6.24391e-33	0.5	0.36196	0.984
Mof_C 	C 	0.35006	0.35006	0.1641	0.091
Mof_C 	C 	0.31818	0.31818	0.2273	-0.004
Mof_C 	C 	0.64994	0.64994	0.1641	0.1
Mof_C 	C 	0.68182	0.68182	0.2273	0.019
Mof_C 	C 	0.64994	0.35006	0.8359	0.11
Mof_C 	C 	0.68182	0.31818	0.7727	0.026
Mof_C 	C 	0.35006	0.64994	0.8359	0.11
Mof_C 	C 	0.31818	0.68182	0.7727	0.026
Mof_C 	C 	0.1641	0.35006	0.35006	0.091
Mof_C 	C 	0.2273	0.31818	0.31818	-0.004
Mof_C 	C 	0.1641	0.64994	0.64994	0.1
Mof_C 	C 	0.2273	0.68182	0.68182	0.019
Mof_C 	C 	0.8359	0.64994	0.35006	0.11
Mof_C 	C 	0.7727	0.68182	0.31818	0.026
Mof_C 	C 	0.8359	0.35006	0.64994	0.11
Mof_C 	C 	0.7727	0.31818	0.68182	0.026
Mof_C 	C 	0.35006	0.1641	0.35006	0.091
Mof_C 	C 	0.31818	0.2273	0.31818	-0.004
Mof_C 	C 	0.64994	0.1641	0.64994	0.1
Mof_C 	C 	0.68182	0.2273	0.68182	0.019
Mof_C 	C 	0.35006	0.8359	0.64994	0.11
Mof_C 	C 	0.31818	0.7727	0.68182	0.026
Mof_C 	C 	0.64994	0.8359	0.35006	0.11
Mof_C 	C 	0.68182	0.7727	0.31818	0.026
Mof_C 	C 	0.35006	0.35006	0.8359	0.106
Mof_C 	C 	0.31818	0.31818	0.7727	0.014
Mof_C 	C 	0.64994	0.64994	0.8359	0.115
Mof_C 	C 	0.68182	0.68182	0.7727	0.038
Mof_C 	C 	0.35006	0.64994	0.1641	0.095
Mof_C 	C 	0.31818	0.68182	0.2273	0.007
Mof_C 	C 	0.64994	0.35006	0.1641	0.095
Mof_C 	C 	0.68182	0.31818	0.2273	0.007
Mof_C 	C 	0.35006	0.1641	0.64994	0.095
Mof_C 	C 	0.31818	0.2273	0.68182	0.007
Mof_C 	C 	0.64994	0.1641	0.35006	0.095
Mof_C 	C 	0.68182	0.2273	0.31818	0.007
Mof_C 	C 	0.64994	0.8359	0.64994	0.115
Mof_C 	C 	0.68182	0.7727	0.68182	0.038
Mof_C 	C 	0.35006	0.8359	0.35006	0.106
Mof_C 	C 	0.31818	0.7727	0.31818	0.014
Mof_C 	C 	0.1641	0.35006	0.64994	0.095
Mof_C 	C 	0.2273	0.31818	0.68182	0.007
Mof_C 	C 	0.1641	0.64994	0.35006	0.095
Mof_C 	C 	0.2273	0.68182	0.31818	0.007
Mof_C 	C 	0.8359	0.35006	0.35006	0.106
Mof_C 	C 	0.7727	0.31818	0.31818	0.014
Mof_C 	C 	0.8359	0.64994	0.64994	0.115
Mof_C 	C 	0.7727	0.68182	0.68182	0.038
Mof_C 	C 	0.25746	0.3477	0.25746	-0.078
Mof_H 	H 	0.2368	0.3877	0.2368	0.047
Mof_C 	C 	0.74254	0.6523	0.25746	-0.081
Mof_H 	H 	0.7632	0.6123	0.2368	0.068
Mof_C 	C 	0.74254	0.3477	0.74254	-0.082
Mof_H 	H 	0.7632	0.3877	0.7632	0.081
Mof_C 	C 	0.25746	0.6523	0.74254	-0.081
Mof_H 	H 	0.2368	0.6123	0.7632	0.068
Mof_C 	C 	0.25746	0.25746	0.3477	-0.078
Mof_H 	H 	0.2368	0.2368	0.3877	0.047
Mof_C 	C 	0.25746	0.74254	0.6523	-0.081
Mof_H 	H 	0.2368	0.7632	0.6123	0.068
Mof_C 	C 	0.74254	0.74254	0.3477	-0.082
Mof_H 	H 	0.7632	0.7632	0.3877	0.081
Mof_C 	C 	0.74254	0.25746	0.6523	-0.081
Mof_H 	H 	0.7632	0.2368	0.6123	0.068
Mof_C 	C 	0.3477	0.25746	0.25746	-0.078
Mof_H 	H 	0.3877	0.2368	0.2368	0.047
Mof_C 	C 	0.6523	0.25746	0.74254	-0.081
Mof_H 	H 	0.6123	0.2368	0.7632	0.068
Mof_C 	C 	0.3477	0.74254	0.74254	-0.082
Mof_H 	H 	0.3877	0.7632	0.7632	0.081
Mof_C 	C 	0.6523	0.74254	0.25746	-0.081
Mof_H 	H 	0.6123	0.7632	0.2368	0.068
Mof_C 	C 	0.3477	0.25746	0.74254	-0.08
Mof_H 	H 	0.3877	0.2368	0.7632	0.064
Mof_C 	C 	0.6523	0.74254	0.74254	-0.083
Mof_H 	H 	0.6123	0.7632	0.7632	0.085
Mof_C 	C 	0.3477	0.74254	0.25746	-0.08
Mof_H 	H 	0.3877	0.7632	0.2368	0.064
Mof_C 	C 	0.6523	0.25746	0.25746	-0.079
Mof_H 	H 	0.6123	0.2368	0.2368	0.051
Mof_C 	C 	0.25746	0.25746	0.6523	-0.079
Mof_H 	H 	0.2368	0.2368	0.6123	0.051
Mof_C 	C 	0.74254	0.25746	0.3477	-0.08
Mof_H 	H 	0.7632	0.2368	0.3877	0.064
Mof_C 	C 	0.74254	0.74254	0.6523	-0.083
Mof_H 	H 	0.7632	0.7632	0.6123	0.085
Mof_C 	C 	0.25746	0.74254	0.3477	-0.08
Mof_H 	H 	0.2368	0.7632	0.3877	0.064
Mof_C 	C 	0.25746	0.3477	0.74254	-0.08
Mof_H 	H 	0.2368	0.3877	0.7632	0.064
Mof_C 	C 	0.25746	0.6523	0.25746	-0.079
Mof_H 	H 	0.2368	0.6123	0.2368	0.051
Mof_C 	C 	0.74254	0.3477	0.25746	-0.08
Mof_H 	H 	0.7632	0.3877	0.2368	0.064
Mof_C 	C 	0.74254	0.6523	0.74254	-0.083
Mof_H 	H 	0.7632	0.6123	0.7632	0.085
_end
