data_functionalizedCrystal
_audit_creation_method	'EQeq! by Chris Wilmer'
_symmetry_space_group_name_H-M	'P1'
_symmetry_Int_Tables_number	1
_symmetry_cell_setting	triclinic
loop_
_symmetry_equiv_pos_as_xyz
  x,y,z
_cell_length_a	10.684
_cell_length_b	13.8482
_cell_length_c	14.9604
_cell_angle_alpha	76.4666
_cell_angle_beta	69.0792
_cell_angle_gamma	67.3094
loop_
_atom_site_label
_atom_site_type_symbol
_atom_site_fract_x
_atom_site_fract_y
_atom_site_fract_z
_atom_site_charge
Mof_Ca	Ca	0.50665	0.9681	0.38326	1.318
Mof_Ca	Ca	0.85801	0.5319	0.11674	1.318
Mof_Ca	Ca	0.49335	0.0319	0.61674	1.318
Mof_Ca	Ca	0.14199	0.4681	0.88326	1.318
Mof_Ca	Ca	0.78306	0.75	0.25	1.493
Mof_Ca	Ca	0.21694	0.25	0.75	1.493
Mof_H 	H 	0.7294	0.1805	0.2457	0.046
Mof_H 	H 	0.8171	0.3121	0.1491	0.006
Mof_H 	H 	0.1387	0.0944	0.984	0.009
Mof_H 	H 	0.0541	0.9625	0.0847	0.047
Mof_H 	H 	0.6306	0.8378	0.0646	0.014
Mof_H 	H 	0.3692	0.1379	0.0951	0.035
Mof_H 	H 	0.1556	0.3195	0.2543	0.044
Mof_H 	H 	0.2783	0.1879	0.3509	0.008
Mof_H 	H 	0.2171	0.4056	0.516	0.019
Mof_H 	H 	0.1013	0.5375	0.4153	0.049
Mof_H 	H 	0.533	0.6622	0.4354	0.012
Mof_H 	H 	0.6022	0.3621	0.4049	0.039
Mof_H 	H 	0.2706	0.8195	0.7543	0.046
Mof_H 	H 	0.1829	0.6879	0.8509	0.006
Mof_H 	H 	0.8613	0.9056	0.016	0.009
Mof_H 	H 	0.9459	0.0375	0.9153	0.047
Mof_H 	H 	0.3694	0.1622	0.9354	0.014
Mof_H 	H 	0.6308	0.8621	0.9049	0.035
Mof_H 	H 	0.8444	0.6805	0.7457	0.044
Mof_H 	H 	0.7217	0.8121	0.6491	0.008
Mof_H 	H 	0.7829	0.5944	0.484	0.019
Mof_H 	H 	0.8987	0.4625	0.5847	0.049
Mof_H 	H 	0.467	0.3378	0.5646	0.012
Mof_H 	H 	0.3978	0.6379	0.5951	0.039
Mof_C 	C 	0.8216	0.9751	0.2367	0.382
Mof_C 	C 	0.8826	0.0586	0.1744	-0.079
Mof_C 	C 	0.8132	0.1629	0.1929	-0.045
Mof_C 	C 	0.8647	0.2411	0.1353	0.023
Mof_C 	C 	0.987	0.2159	0.0567	-0.155
Mof_C 	C 	0.0406	0.3023	0.9937	0.427
Mof_C 	C 	0.0563	0.1119	0.0377	0.036
Mof_C 	C 	0.005	0.0338	0.097	-0.041
Mof_C 	C 	0.4986	0.9717	0.1985	0.358
Mof_C 	C 	0.4983	0.9853	0.0957	-0.104
Mof_C 	C 	0.577	0.9038	0.0386	-0.019
Mof_C 	C 	0.4223	0.0815	0.0565	-0.008
Mof_C 	C 	0.0334	0.5249	0.2633	0.393
Mof_C 	C 	0.1156	0.4414	0.3256	-0.087
Mof_C 	C 	0.169	0.3371	0.3071	-0.04
Mof_C 	C 	0.2411	0.2589	0.3647	0.019
Mof_C 	C 	0.2596	0.2841	0.4433	-0.151
Mof_C 	C 	0.3366	0.1977	0.5063	0.432
Mof_C 	C 	0.2059	0.3881	0.4623	0.021
Mof_C 	C 	0.1358	0.4662	0.403	-0.04
Mof_C 	C 	0.6688	0.5283	0.3015	0.36
Mof_C 	C 	0.5793	0.5147	0.4043	-0.098
Mof_C 	C 	0.5194	0.5962	0.4614	-0.009
Mof_C 	C 	0.5603	0.4185	0.4435	-0.025
Mof_C 	C 	0.1784	0.0249	0.7633	0.382
Mof_C 	C 	0.1174	0.9414	0.8256	-0.079
Mof_C 	C 	0.1868	0.8371	0.8071	-0.045
Mof_C 	C 	0.1353	0.7589	0.8647	0.023
Mof_C 	C 	0.013	0.7841	0.9433	-0.155
Mof_C 	C 	0.9594	0.6977	0.0063	0.427
Mof_C 	C 	0.9437	0.8881	0.9623	0.036
Mof_C 	C 	0.995	0.9662	0.903	-0.041
Mof_C 	C 	0.5014	0.0283	0.8015	0.358
Mof_C 	C 	0.5017	0.0147	0.9043	-0.104
Mof_C 	C 	0.423	0.0962	0.9614	-0.019
Mof_C 	C 	0.5777	0.9185	0.9435	-0.008
Mof_C 	C 	0.9666	0.4751	0.7367	0.393
Mof_C 	C 	0.8844	0.5586	0.6744	-0.087
Mof_C 	C 	0.831	0.6629	0.6929	-0.04
Mof_C 	C 	0.7589	0.7411	0.6353	0.019
Mof_C 	C 	0.7404	0.7159	0.5567	-0.151
Mof_C 	C 	0.6634	0.8023	0.4937	0.432
Mof_C 	C 	0.7941	0.6119	0.5377	0.021
Mof_C 	C 	0.8642	0.5338	0.597	-0.04
Mof_C 	C 	0.3312	0.4717	0.6985	0.36
Mof_C 	C 	0.4207	0.4853	0.5957	-0.098
Mof_C 	C 	0.4806	0.4038	0.5386	-0.009
Mof_C 	C 	0.4397	0.5815	0.5565	-0.025
Mof_O 	O 	0.71126	0.00599	0.30709	-0.459
Mof_O 	O 	0.87973	0.88307	0.21387	-0.459
Mof_O 	O 	0.13203	0.28499	0.91335	-0.556
Mof_O 	O 	0.99317	0.39136	0.0249	-0.567
Mof_O 	O 	0.57412	0.88491	0.23285	-0.536
Mof_O 	O 	0.42305	0.04755	0.24755	-0.419
Mof_O 	O 	0.02434	0.49401	0.19291	-0.465
Mof_O 	O 	0.97667	0.61693	0.28613	-0.461
Mof_O 	O 	0.33037	0.21501	0.58665	-0.556
Mof_O 	O 	0.40943	0.10864	0.4751	-0.569
Mof_O 	O 	0.69188	0.61509	0.26715	-0.537
Mof_O 	O 	0.71815	0.45245	0.25245	-0.423
Mof_O 	O 	0.28874	0.99401	0.69291	-0.459
Mof_O 	O 	0.12027	0.11693	0.78613	-0.459
Mof_O 	O 	0.86797	0.71501	0.08665	-0.556
Mof_O 	O 	0.00683	0.60864	0.9751	-0.567
Mof_O 	O 	0.42588	0.11509	0.76715	-0.536
Mof_O 	O 	0.57695	0.95245	0.75245	-0.419
Mof_O 	O 	0.97566	0.50599	0.80709	-0.465
Mof_O 	O 	0.02333	0.38307	0.71387	-0.461
Mof_O 	O 	0.66963	0.78499	0.41335	-0.556
Mof_O 	O 	0.59057	0.89136	0.5249	-0.569
Mof_O 	O 	0.30812	0.38491	0.73285	-0.537
Mof_O 	O 	0.28185	0.54755	0.74755	-0.423
_end
