data_functionalizedCrystal
_audit_creation_method	'EQeq! by Chris Wilmer'
_symmetry_space_group_name_H-M	'P1'
_symmetry_Int_Tables_number	1
_symmetry_cell_setting	triclinic
loop_
_symmetry_equiv_pos_as_xyz
  x,y,z
_cell_length_a	18.6483
_cell_length_b	18.6483
_cell_length_c	18.6483
_cell_angle_alpha	90
_cell_angle_beta	90
_cell_angle_gamma	90
loop_
_atom_site_label
_atom_site_type_symbol
_atom_site_fract_x
_atom_site_fract_y
_atom_site_fract_z
_atom_site_charge
Mof_N 	N 	0.37103	0.42035	0.07702	-0.206
Mof_N 	N 	0.32613	0.4104	0.13175	-0.227
Mof_N 	N 	0.62897	0.57965	0.07702	-0.204
Mof_N 	N 	0.67387	0.5896	0.13175	-0.225
Mof_N 	N 	0.62897	0.42035	0.92298	-0.168
Mof_N 	N 	0.67387	0.4104	0.86825	-0.217
Mof_N 	N 	0.37103	0.57965	0.92298	-0.169
Mof_N 	N 	0.32613	0.5896	0.86825	-0.217
Mof_N 	N 	0.07702	0.37103	0.42035	-0.206
Mof_N 	N 	0.13175	0.32613	0.4104	-0.227
Mof_N 	N 	0.07702	0.62897	0.57965	-0.204
Mof_N 	N 	0.13175	0.67387	0.5896	-0.225
Mof_N 	N 	0.92298	0.62897	0.42035	-0.168
Mof_N 	N 	0.86825	0.67387	0.4104	-0.217
Mof_N 	N 	0.92298	0.37103	0.57965	-0.169
Mof_N 	N 	0.86825	0.32613	0.5896	-0.217
Mof_N 	N 	0.42035	0.07702	0.37103	-0.206
Mof_N 	N 	0.4104	0.13175	0.32613	-0.227
Mof_N 	N 	0.57965	0.07702	0.62897	-0.204
Mof_N 	N 	0.5896	0.13175	0.67387	-0.225
Mof_N 	N 	0.42035	0.92298	0.62897	-0.168
Mof_N 	N 	0.4104	0.86825	0.67387	-0.218
Mof_N 	N 	0.57965	0.92298	0.37103	-0.17
Mof_N 	N 	0.5896	0.86825	0.32613	-0.218
Mof_N 	N 	0.42035	0.37103	0.92298	-0.17
Mof_N 	N 	0.4104	0.32613	0.86825	-0.219
Mof_N 	N 	0.57965	0.62897	0.92298	-0.168
Mof_N 	N 	0.5896	0.67387	0.86825	-0.217
Mof_N 	N 	0.42035	0.62897	0.07702	-0.205
Mof_N 	N 	0.4104	0.67387	0.13175	-0.227
Mof_N 	N 	0.57965	0.37103	0.07702	-0.206
Mof_N 	N 	0.5896	0.32613	0.13175	-0.227
Mof_N 	N 	0.37103	0.07702	0.57965	-0.206
Mof_N 	N 	0.32613	0.13175	0.5896	-0.227
Mof_N 	N 	0.62897	0.07702	0.42035	-0.205
Mof_N 	N 	0.67387	0.13175	0.4104	-0.227
Mof_N 	N 	0.62897	0.92298	0.57965	-0.168
Mof_N 	N 	0.67387	0.86825	0.5896	-0.217
Mof_N 	N 	0.37103	0.92298	0.42035	-0.17
Mof_N 	N 	0.32613	0.86825	0.4104	-0.219
Mof_N 	N 	0.07702	0.42035	0.62897	-0.205
Mof_N 	N 	0.13175	0.4104	0.67387	-0.227
Mof_N 	N 	0.07702	0.57965	0.37103	-0.206
Mof_N 	N 	0.13175	0.5896	0.32613	-0.227
Mof_N 	N 	0.92298	0.42035	0.37103	-0.17
Mof_N 	N 	0.86825	0.4104	0.32613	-0.219
Mof_N 	N 	0.92298	0.57965	0.62897	-0.168
Mof_N 	N 	0.86825	0.5896	0.67387	-0.217
Mof_N 	N 	0.62897	0.57965	0.92298	-0.168
Mof_N 	N 	0.67387	0.5896	0.86825	-0.217
Mof_N 	N 	0.37103	0.42035	0.92298	-0.17
Mof_N 	N 	0.32613	0.4104	0.86825	-0.219
Mof_N 	N 	0.37103	0.57965	0.07702	-0.206
Mof_N 	N 	0.32613	0.5896	0.13175	-0.227
Mof_N 	N 	0.62897	0.42035	0.07702	-0.205
Mof_N 	N 	0.67387	0.4104	0.13175	-0.227
Mof_N 	N 	0.92298	0.62897	0.57965	-0.168
Mof_N 	N 	0.86825	0.67387	0.5896	-0.217
Mof_N 	N 	0.92298	0.37103	0.42035	-0.17
Mof_N 	N 	0.86825	0.32613	0.4104	-0.219
Mof_N 	N 	0.07702	0.37103	0.57965	-0.206
Mof_N 	N 	0.13175	0.32613	0.5896	-0.227
Mof_N 	N 	0.07702	0.62897	0.42035	-0.205
Mof_N 	N 	0.13175	0.67387	0.4104	-0.227
Mof_N 	N 	0.57965	0.92298	0.62897	-0.168
Mof_N 	N 	0.5896	0.86825	0.67387	-0.217
Mof_N 	N 	0.42035	0.92298	0.37103	-0.17
Mof_N 	N 	0.4104	0.86825	0.32613	-0.219
Mof_N 	N 	0.57965	0.07702	0.37103	-0.206
Mof_N 	N 	0.5896	0.13175	0.32613	-0.227
Mof_N 	N 	0.42035	0.07702	0.62897	-0.205
Mof_N 	N 	0.4104	0.13175	0.67387	-0.227
Mof_N 	N 	0.57965	0.62897	0.07702	-0.205
Mof_N 	N 	0.5896	0.67387	0.13175	-0.226
Mof_N 	N 	0.42035	0.37103	0.07702	-0.207
Mof_N 	N 	0.4104	0.32613	0.13175	-0.228
Mof_N 	N 	0.57965	0.37103	0.92298	-0.17
Mof_N 	N 	0.5896	0.32613	0.86825	-0.218
Mof_N 	N 	0.42035	0.62897	0.92298	-0.169
Mof_N 	N 	0.4104	0.67387	0.86825	-0.218
Mof_N 	N 	0.62897	0.92298	0.42035	-0.169
Mof_N 	N 	0.67387	0.86825	0.4104	-0.218
Mof_N 	N 	0.37103	0.92298	0.57965	-0.17
Mof_N 	N 	0.32613	0.86825	0.5896	-0.218
Mof_N 	N 	0.37103	0.07702	0.42035	-0.207
Mof_N 	N 	0.32613	0.13175	0.4104	-0.228
Mof_N 	N 	0.62897	0.07702	0.57965	-0.205
Mof_N 	N 	0.67387	0.13175	0.5896	-0.226
Mof_N 	N 	0.92298	0.57965	0.37103	-0.17
Mof_N 	N 	0.86825	0.5896	0.32613	-0.218
Mof_N 	N 	0.92298	0.42035	0.62897	-0.169
Mof_N 	N 	0.86825	0.4104	0.67387	-0.218
Mof_N 	N 	0.07702	0.57965	0.62897	-0.205
Mof_N 	N 	0.13175	0.5896	0.67387	-0.226
Mof_N 	N 	0.07702	0.42035	0.37103	-0.207
Mof_N 	N 	0.13175	0.4104	0.32613	-0.228
Mof_Ni	Ni	0.36564	0.5	-0	0.966
Mof_Ni	Ni	0.63436	0.5	-0	0.968
Mof_Ni	Ni	-2.01784e-33	0.36564	0.5	0.966
Mof_Ni	Ni	1.8747e-33	0.63436	0.5	0.968
Mof_Ni	Ni	0.5	0	0.36564	0.966
Mof_Ni	Ni	0.5	0	0.63436	0.968
Mof_Ni	Ni	0.5	0.36564	-0	0.966
Mof_Ni	Ni	0.5	0.63436	-0	0.968
Mof_Ni	Ni	0.36564	-3.89254e-33	0.5	0.966
Mof_Ni	Ni	0.63436	-3.89254e-33	0.5	0.968
Mof_Ni	Ni	2.37847e-33	0.5	0.63436	0.968
Mof_Ni	Ni	1.37093e-33	0.5	0.36564	0.966
Mof_Cl	Cl	0.5	0.5	-0	-0.916
Mof_Cl	Cl	-5.91037e-33	0.5	0.5	-0.916
Mof_Cl	Cl	0.5	-3.89254e-33	0.5	-0.916
Mof_C 	C 	0.35186	0.35186	0.1643	0.146
Mof_C 	C 	0.31895	0.31895	0.2275	-0.12
Mof_C 	C 	0.64814	0.64814	0.1643	0.152
Mof_C 	C 	0.68105	0.68105	0.2275	-0.118
Mof_C 	C 	0.64814	0.35186	0.8357	0.159
Mof_C 	C 	0.68105	0.31895	0.7725	-0.116
Mof_C 	C 	0.35186	0.64814	0.8357	0.159
Mof_C 	C 	0.31895	0.68105	0.7725	-0.116
Mof_C 	C 	0.1643	0.35186	0.35186	0.146
Mof_C 	C 	0.2275	0.31895	0.31895	-0.12
Mof_C 	C 	0.1643	0.64814	0.64814	0.152
Mof_C 	C 	0.2275	0.68105	0.68105	-0.118
Mof_C 	C 	0.8357	0.64814	0.35186	0.159
Mof_C 	C 	0.7725	0.68105	0.31895	-0.116
Mof_C 	C 	0.8357	0.35186	0.64814	0.159
Mof_C 	C 	0.7725	0.31895	0.68105	-0.116
Mof_C 	C 	0.35186	0.1643	0.35186	0.146
Mof_C 	C 	0.31895	0.2275	0.31895	-0.12
Mof_C 	C 	0.64814	0.1643	0.64814	0.152
Mof_C 	C 	0.68105	0.2275	0.68105	-0.118
Mof_C 	C 	0.35186	0.8357	0.64814	0.159
Mof_C 	C 	0.31895	0.7725	0.68105	-0.116
Mof_C 	C 	0.64814	0.8357	0.35186	0.159
Mof_C 	C 	0.68105	0.7725	0.31895	-0.116
Mof_C 	C 	0.35186	0.35186	0.8357	0.156
Mof_C 	C 	0.31895	0.31895	0.7725	-0.117
Mof_C 	C 	0.64814	0.64814	0.8357	0.162
Mof_C 	C 	0.68105	0.68105	0.7725	-0.115
Mof_C 	C 	0.35186	0.64814	0.1643	0.149
Mof_C 	C 	0.31895	0.68105	0.2275	-0.119
Mof_C 	C 	0.64814	0.35186	0.1643	0.149
Mof_C 	C 	0.68105	0.31895	0.2275	-0.119
Mof_C 	C 	0.35186	0.1643	0.64814	0.149
Mof_C 	C 	0.31895	0.2275	0.68105	-0.119
Mof_C 	C 	0.64814	0.1643	0.35186	0.149
Mof_C 	C 	0.68105	0.2275	0.31895	-0.119
Mof_C 	C 	0.64814	0.8357	0.64814	0.162
Mof_C 	C 	0.68105	0.7725	0.68105	-0.115
Mof_C 	C 	0.35186	0.8357	0.35186	0.156
Mof_C 	C 	0.31895	0.7725	0.31895	-0.117
Mof_C 	C 	0.1643	0.35186	0.64814	0.149
Mof_C 	C 	0.2275	0.31895	0.68105	-0.119
Mof_C 	C 	0.1643	0.64814	0.35186	0.149
Mof_C 	C 	0.2275	0.68105	0.31895	-0.119
Mof_C 	C 	0.8357	0.35186	0.35186	0.156
Mof_C 	C 	0.7725	0.31895	0.31895	-0.117
Mof_C 	C 	0.8357	0.64814	0.64814	0.162
Mof_C 	C 	0.7725	0.68105	0.68105	-0.115
Mof_C 	C 	0.25879	0.3497	0.25879	0.054
Mof_H 	H 	0.2393	0.3913	0.2393	-0.057
Mof_Cl	Cl	0.1426	0.424	0.1426	-0.642
Mof_C 	C 	0.74121	0.6503	0.25879	0.063
Mof_H 	H 	0.7607	0.6087	0.2393	-0.058
Mof_Cl	Cl	0.8574	0.576	0.1426	-0.578
Mof_C 	C 	0.74121	0.3497	0.74121	0.065
Mof_H 	H 	0.7607	0.3913	0.7607	-0.057
Mof_Cl	Cl	0.8574	0.424	0.8574	-0.534
Mof_C 	C 	0.25879	0.6503	0.74121	0.063
Mof_H 	H 	0.2393	0.6087	0.7607	-0.058
Mof_Cl	Cl	0.1426	0.576	0.8574	-0.578
Mof_C 	C 	0.25879	0.25879	0.3497	0.054
Mof_H 	H 	0.2393	0.2393	0.3913	-0.057
Mof_Cl	Cl	0.1426	0.1426	0.424	-0.642
Mof_C 	C 	0.25879	0.74121	0.6503	0.063
Mof_H 	H 	0.2393	0.7607	0.6087	-0.058
Mof_Cl	Cl	0.1426	0.8574	0.576	-0.578
Mof_C 	C 	0.74121	0.74121	0.3497	0.065
Mof_H 	H 	0.7607	0.7607	0.3913	-0.057
Mof_Cl	Cl	0.8574	0.8574	0.424	-0.534
Mof_C 	C 	0.74121	0.25879	0.6503	0.063
Mof_H 	H 	0.7607	0.2393	0.6087	-0.058
Mof_Cl	Cl	0.8574	0.1426	0.576	-0.578
Mof_C 	C 	0.3497	0.25879	0.25879	0.054
Mof_H 	H 	0.3913	0.2393	0.2393	-0.057
Mof_Cl	Cl	0.424	0.1426	0.1426	-0.642
Mof_C 	C 	0.6503	0.25879	0.74121	0.063
Mof_H 	H 	0.6087	0.2393	0.7607	-0.058
Mof_Cl	Cl	0.576	0.1426	0.8574	-0.578
Mof_C 	C 	0.3497	0.74121	0.74121	0.065
Mof_H 	H 	0.3913	0.7607	0.7607	-0.057
Mof_Cl	Cl	0.424	0.8574	0.8574	-0.534
Mof_C 	C 	0.6503	0.74121	0.25879	0.063
Mof_H 	H 	0.6087	0.7607	0.2393	-0.058
Mof_Cl	Cl	0.576	0.8574	0.1426	-0.578
Mof_C 	C 	0.3497	0.25879	0.74121	0.059
Mof_H 	H 	0.3913	0.2393	0.7607	-0.057
Mof_Cl	Cl	0.424	0.1426	0.8574	-0.588
Mof_C 	C 	0.6503	0.74121	0.74121	0.069
Mof_H 	H 	0.6087	0.7607	0.7607	-0.058
Mof_Cl	Cl	0.576	0.8574	0.8574	-0.525
Mof_C 	C 	0.3497	0.74121	0.25879	0.059
Mof_H 	H 	0.3913	0.7607	0.2393	-0.057
Mof_Cl	Cl	0.424	0.8574	0.1426	-0.588
Mof_C 	C 	0.6503	0.25879	0.25879	0.058
Mof_H 	H 	0.6087	0.2393	0.2393	-0.058
Mof_Cl	Cl	0.576	0.1426	0.1426	-0.632
Mof_C 	C 	0.25879	0.25879	0.6503	0.058
Mof_H 	H 	0.2393	0.2393	0.6087	-0.058
Mof_Cl	Cl	0.1426	0.1426	0.576	-0.632
Mof_C 	C 	0.74121	0.25879	0.3497	0.059
Mof_H 	H 	0.7607	0.2393	0.3913	-0.057
Mof_Cl	Cl	0.8574	0.1426	0.424	-0.588
Mof_C 	C 	0.74121	0.74121	0.6503	0.069
Mof_H 	H 	0.7607	0.7607	0.6087	-0.058
Mof_Cl	Cl	0.8574	0.8574	0.576	-0.525
Mof_C 	C 	0.25879	0.74121	0.3497	0.059
Mof_H 	H 	0.2393	0.7607	0.3913	-0.057
Mof_Cl	Cl	0.1426	0.8574	0.424	-0.588
Mof_C 	C 	0.25879	0.3497	0.74121	0.059
Mof_H 	H 	0.2393	0.3913	0.7607	-0.057
Mof_Cl	Cl	0.1426	0.424	0.8574	-0.588
Mof_C 	C 	0.25879	0.6503	0.25879	0.058
Mof_H 	H 	0.2393	0.6087	0.2393	-0.058
Mof_Cl	Cl	0.1426	0.576	0.1426	-0.632
Mof_C 	C 	0.74121	0.3497	0.25879	0.059
Mof_H 	H 	0.7607	0.3913	0.2393	-0.057
Mof_Cl	Cl	0.8574	0.424	0.1426	-0.588
Mof_C 	C 	0.74121	0.6503	0.74121	0.069
Mof_H 	H 	0.7607	0.6087	0.7607	-0.058
Mof_Cl	Cl	0.8574	0.576	0.8574	-0.525
Mof_Ni	Ni	0.2486	0.5	0.13427	0.986
Mof_Ni	Ni	0.7514	0.5	0.13427	0.986
Mof_Ni	Ni	0.7514	0.5	0.86573	1
Mof_Ni	Ni	0.2486	0.5	0.86573	1
Mof_Ni	Ni	0.13427	0.2486	0.5	0.986
Mof_Ni	Ni	0.13427	0.7514	0.5	0.986
Mof_Ni	Ni	0.86573	0.7514	0.5	1
Mof_Ni	Ni	0.86573	0.2486	0.5	1
Mof_Ni	Ni	0.5	0.13427	0.2486	0.986
Mof_Ni	Ni	0.5	0.13427	0.7514	0.986
Mof_Ni	Ni	0.5	0.86573	0.7514	1
Mof_Ni	Ni	0.5	0.86573	0.2486	1
Mof_Ni	Ni	0.5	0.2486	0.86573	1
Mof_Ni	Ni	0.5	0.7514	0.86573	1
Mof_Ni	Ni	0.5	0.7514	0.13427	0.986
Mof_Ni	Ni	0.5	0.2486	0.13427	0.986
Mof_Ni	Ni	0.2486	0.13427	0.5	0.986
Mof_Ni	Ni	0.7514	0.13427	0.5	0.986
Mof_Ni	Ni	0.7514	0.86573	0.5	1
Mof_Ni	Ni	0.2486	0.86573	0.5	1
Mof_Ni	Ni	0.13427	0.5	0.7514	0.986
Mof_Ni	Ni	0.13427	0.5	0.2486	0.986
Mof_Ni	Ni	0.86573	0.5	0.2486	1
Mof_Ni	Ni	0.86573	0.5	0.7514	1
_end
