data_functionalizedCrystal
_audit_creation_method	'EQeq! by Chris Wilmer'
_symmetry_space_group_name_H-M	'P1'
_symmetry_Int_Tables_number	1
_symmetry_cell_setting	triclinic
loop_
_symmetry_equiv_pos_as_xyz
  x,y,z
_cell_length_a	16.2045
_cell_length_b	11.868
_cell_length_c	17.9591
_cell_angle_alpha	90
_cell_angle_beta	103.644
_cell_angle_gamma	90
loop_
_atom_site_label
_atom_site_type_symbol
_atom_site_fract_x
_atom_site_fract_y
_atom_site_fract_z
_atom_site_charge
Mof_O 	O 	0.25932	0.9597	0.15808	-0.296
Mof_Mo	Mo	0.28341	0.85884	0.93257	1.163
Mof_Mo	Mo	0.28416	0.15174	0.96297	1.153
Mof_Mo	Mo	0.38256	0.73304	0.03342	1.089
Mof_Mo	Mo	0.5204	0.85432	0.19515	1.14
Mof_Mo	Mo	0.52341	0.07098	0.21317	1.062
Mof_Mo	Mo	0.38886	0.24451	0.07816	1.1
Mof_Fe	Fe	0.12405	0.99744	0.13432	0.921
Mof_P 	P 	0.43881	0.29944	0.26284	0.549
Mof_P 	P 	0.37691	0.66303	0.21043	0.564
Mof_P 	P 	0.327	0.97546	0.11415	0.605
Mof_P 	P 	0.111	0.99195	0.94206	0.604
Mof_O 	O 	0.26078	0.7545	0.00831	-0.525
Mof_O 	O 	0.40825	0.1385	0.99896	-0.575
Mof_O 	O 	0.40744	0.8654	0.97588	-0.577
Mof_O 	O 	0.26599	0.2261	0.05365	-0.551
Mof_O 	O 	0.4709	0.1765	0.27839	-0.378
Mof_O 	O 	0.53556	0.9764	0.12513	-0.566
Mof_O 	O 	0.15839	0.8996	0.90847	-0.418
Mof_O 	O 	0.50842	0.7456	0.09971	-0.482
Mof_O 	O 	0.02265	0.0023	0.8829	-0.278
Mof_O 	O 	0.38439	0.8688	0.12297	-0.417
Mof_O 	O 	0.15646	0.1059	0.93902	-0.409
Mof_O 	O 	0.38563	0.0772	0.14191	-0.433
Mof_O 	O 	0.28831	0.9903	0.02684	-0.453
Mof_O 	O 	0.29506	0.0194	0.88538	-0.489
Mof_O 	O 	0.4823	0.95	0.26768	-0.475
Mof_O 	O 	0.51501	0.3783	0.26586	-0.263
Mof_O 	O 	0.37814	0.3043	0.18205	-0.372
Mof_O 	O 	0.51385	0.2098	0.13731	-0.476
Mof_O 	O 	0.39152	0.3318	0.32285	-0.277
Mof_O 	O 	0.0983	0.9597	0.01858	-0.35
Mof_O 	O 	0.4612	0.7247	0.24007	-0.384
Mof_O 	O 	0.3657	0.6371	0.12422	-0.401
Mof_O 	O 	0.3	0.7396	0.2197	-0.169
Mof_O 	O 	0.3702	0.5564	0.25281	-0.305
Mof_O 	O 	0.1219	0.1804	0.105	-0.403
Mof_H 	H 	0.1587	0.1936	0.0817	0.272
Mof_O 	O 	0.24068	0.4597	0.34192	-0.299
Mof_Mo	Mo	0.21659	0.35884	0.56743	1.128
Mof_Mo	Mo	0.21584	0.65174	0.53703	1.127
Mof_Mo	Mo	0.11744	0.23304	0.46658	1.097
Mof_Mo	Mo	0.9796	0.35432	0.30485	1.153
Mof_Mo	Mo	0.97659	0.57098	0.28683	1.157
Mof_Mo	Mo	0.11114	0.74451	0.42184	1.121
Mof_Fe	Fe	0.37595	0.49744	0.36568	0.912
Mof_P 	P 	0.06119	0.79944	0.23716	0.533
Mof_P 	P 	0.12309	0.16303	0.28957	0.565
Mof_P 	P 	0.173	0.47546	0.38585	0.588
Mof_P 	P 	0.389	0.49195	0.55794	0.581
Mof_O 	O 	0.23922	0.2545	0.49169	-0.513
Mof_O 	O 	0.09175	0.6385	0.50104	-0.6
Mof_O 	O 	0.09256	0.3654	0.52412	-0.601
Mof_O 	O 	0.23401	0.7261	0.44635	-0.533
Mof_O 	O 	0.0291	0.6765	0.22161	-0.396
Mof_O 	O 	0.96444	0.4764	0.37487	-0.593
Mof_O 	O 	0.34161	0.3996	0.59153	-0.415
Mof_O 	O 	0.99158	0.2456	0.40029	-0.475
Mof_O 	O 	0.47735	0.5023	0.6171	-0.257
Mof_O 	O 	0.11561	0.3688	0.37703	-0.424
Mof_O 	O 	0.34354	0.6059	0.56098	-0.401
Mof_O 	O 	0.11437	0.5772	0.35809	-0.426
Mof_O 	O 	0.21169	0.4903	0.47316	-0.447
Mof_O 	O 	0.20494	0.5194	0.61462	-0.474
Mof_O 	O 	0.0177	0.45	0.23232	-0.519
Mof_O 	O 	0.98499	0.8783	0.23414	-0.237
Mof_O 	O 	0.12186	0.8043	0.31795	-0.372
Mof_O 	O 	0.98615	0.7098	0.36269	-0.467
Mof_O 	O 	0.10848	0.8318	0.17715	-0.279
Mof_O 	O 	0.4017	0.4597	0.48142	-0.337
Mof_O 	O 	0.0388	0.2247	0.25993	-0.399
Mof_O 	O 	0.1343	0.1371	0.37578	-0.408
Mof_O 	O 	0.2	0.2396	0.2803	-0.173
Mof_O 	O 	0.1298	0.0564	0.24719	-0.323
Mof_O 	O 	0.3781	0.6804	0.395	-0.384
Mof_H 	H 	0.3413	0.6936	0.4183	0.276
Mof_O 	O 	0.74068	0.0403	0.84192	-0.302
Mof_Mo	Mo	0.71659	0.14116	0.06743	1.046
Mof_Mo	Mo	0.71584	0.84826	0.03703	1.09
Mof_Mo	Mo	0.61744	0.26696	0.96658	1.17
Mof_Mo	Mo	0.4796	0.14568	0.80485	1.116
Mof_Mo	Mo	0.47659	0.92902	0.78683	1.156
Mof_Mo	Mo	0.61114	0.75549	0.92184	1.17
Mof_Fe	Fe	0.87595	0.00256	0.86568	0.897
Mof_P 	P 	0.56119	0.70056	0.73716	0.552
Mof_P 	P 	0.62309	0.33697	0.78957	0.565
Mof_P 	P 	0.673	0.02454	0.88585	0.574
Mof_P 	P 	0.889	0.00805	0.05794	0.501
Mof_O 	O 	0.73922	0.2455	0.99169	-0.491
Mof_O 	O 	0.59175	0.8615	0.00104	-0.597
Mof_O 	O 	0.59256	0.1346	0.02412	-0.614
Mof_O 	O 	0.73401	0.7739	0.94635	-0.523
Mof_O 	O 	0.5291	0.8235	0.72161	-0.381
Mof_O 	O 	0.46444	0.0236	0.87487	-0.596
Mof_O 	O 	0.84161	0.1004	0.09153	-0.41
Mof_O 	O 	0.49158	0.2544	0.90029	-0.48
Mof_O 	O 	0.97735	0.9977	0.1171	-0.215
Mof_O 	O 	0.61561	0.1312	0.87703	-0.416
Mof_O 	O 	0.84354	0.8941	0.06098	-0.375
Mof_O 	O 	0.61437	0.9228	0.85809	-0.406
Mof_O 	O 	0.71169	0.0097	0.97316	-0.428
Mof_O 	O 	0.70494	0.9806	0.11462	-0.444
Mof_O 	O 	0.5177	0.05	0.73232	-0.51
Mof_O 	O 	0.48499	0.6217	0.73414	-0.263
Mof_O 	O 	0.62186	0.6957	0.81795	-0.379
Mof_O 	O 	0.48615	0.7902	0.86269	-0.483
Mof_O 	O 	0.60848	0.6682	0.67715	-0.275
Mof_O 	O 	0.9017	0.0403	0.98142	-0.301
Mof_O 	O 	0.5388	0.2753	0.75993	-0.383
Mof_O 	O 	0.6343	0.3629	0.87578	-0.406
Mof_O 	O 	0.7	0.2604	0.7803	-0.17
Mof_O 	O 	0.6298	0.4436	0.74719	-0.304
Mof_O 	O 	0.8781	0.8196	0.895	-0.367
Mof_H 	H 	0.8413	0.8064	0.9183	0.277
Mof_O 	O 	0.75932	0.5403	0.65808	-0.298
Mof_Mo	Mo	0.78341	0.64116	0.43257	1.126
Mof_Mo	Mo	0.78416	0.34826	0.46297	1.115
Mof_Mo	Mo	0.88256	0.76696	0.53342	1.153
Mof_Mo	Mo	0.0204	0.64568	0.69515	1.074
Mof_Mo	Mo	0.02341	0.42902	0.71317	1.076
Mof_Mo	Mo	0.88886	0.25549	0.57816	1.151
Mof_Fe	Fe	0.62405	0.50256	0.63432	0.913
Mof_P 	P 	0.93881	0.20056	0.76284	0.564
Mof_P 	P 	0.87691	0.83697	0.71043	0.563
Mof_P 	P 	0.827	0.52454	0.61415	0.586
Mof_P 	P 	0.611	0.50805	0.44206	0.58
Mof_O 	O 	0.76078	0.7455	0.50831	-0.515
Mof_O 	O 	0.90825	0.3615	0.49896	-0.591
Mof_O 	O 	0.90744	0.6346	0.47588	-0.594
Mof_O 	O 	0.76599	0.2739	0.55365	-0.54
Mof_O 	O 	0.9709	0.3235	0.77839	-0.362
Mof_O 	O 	0.03556	0.5236	0.62513	-0.587
Mof_O 	O 	0.65839	0.6004	0.40847	-0.413
Mof_O 	O 	0.00842	0.7544	0.59971	-0.494
Mof_O 	O 	0.52265	0.4977	0.3829	-0.257
Mof_O 	O 	0.88439	0.6312	0.62297	-0.408
Mof_O 	O 	0.65646	0.3941	0.43902	-0.401
Mof_O 	O 	0.88563	0.4228	0.64191	-0.409
Mof_O 	O 	0.78831	0.5097	0.52684	-0.445
Mof_O 	O 	0.79506	0.4806	0.38538	-0.475
Mof_O 	O 	0.9823	0.55	0.76768	-0.462
Mof_O 	O 	0.01501	0.1217	0.76586	-0.283
Mof_O 	O 	0.87814	0.1957	0.68205	-0.38
Mof_O 	O 	0.01385	0.2902	0.63731	-0.491
Mof_O 	O 	0.89152	0.1682	0.82285	-0.273
Mof_O 	O 	0.5983	0.5403	0.51858	-0.336
Mof_O 	O 	0.9612	0.7753	0.74007	-0.358
Mof_O 	O 	0.8657	0.8629	0.62422	-0.394
Mof_O 	O 	0.8	0.7604	0.7197	-0.167
Mof_O 	O 	0.8702	0.9436	0.75281	-0.284
Mof_O 	O 	0.6219	0.3196	0.605	-0.388
Mof_H 	H 	0.6587	0.3064	0.5817	0.274
Mof_Fe	Fe	0.5	0	-0	0.902
Mof_Fe	Fe	1.69361e-17	0.5	0.5	0.947
_end
