data_functionalizedCrystal
_audit_creation_method	'EQeq! by Chris Wilmer'
_symmetry_space_group_name_H-M	'P1'
_symmetry_Int_Tables_number	1
_symmetry_cell_setting	triclinic
loop_
_symmetry_equiv_pos_as_xyz
  x,y,z
_cell_length_a	18.666
_cell_length_b	13.998
_cell_length_c	27.179
_cell_angle_alpha	90
_cell_angle_beta	131.032
_cell_angle_gamma	90
loop_
_atom_site_label
_atom_site_type_symbol
_atom_site_fract_x
_atom_site_fract_y
_atom_site_fract_z
_atom_site_charge
Mof_C 	C 	0.4015	0.9454	0.9275	0.117
Mof_H 	H 	0.399	0.9798	0.9556	-0.011
Mof_C 	C 	0.3975	0.9943	0.8831	-0.19
Mof_H 	H 	0.3898	0.0602	0.8803	0.108
Mof_C 	C 	0.4043	0.9492	0.8429	0.103
Mof_C 	C 	0.4169	0.8543	0.8509	-0.168
Mof_H 	H 	0.4253	0.8198	0.8258	0.095
Mof_C 	C 	0.4177	0.8066	0.8962	0.105
Mof_H 	H 	0.4248	0.7406	0.8998	0.01
Mof_C 	C 	0.3956	0.001	0.7902	0.055
Mof_C 	C 	0.3981	0.0973	0.788	-0.121
Mof_H 	H 	0.4077	0.1332	0.8206	0.08
Mof_C 	C 	0.3865	0.1445	0.7374	0.052
Mof_C 	C 	0.3788	0.0891	0.6929	-0.123
Mof_H 	H 	0.3723	0.1181	0.6593	0.072
Mof_C 	C 	0.3727	0.9314	0.6491	0.064
Mof_C 	C 	0.3691	0.9722	0.6006	-0.131
Mof_H 	H 	0.3658	0.0383	0.5958	0.077
Mof_C 	C 	0.3703	0.9153	0.5595	0.086
Mof_H 	H 	0.3663	0.9447	0.527	0.02
Mof_C 	C 	0.3751	0.8335	0.651	-0.131
Mof_H 	H 	0.3738	0.8015	0.6804	0.084
Mof_C 	C 	0.3796	0.7817	0.6096	0.079
Mof_H 	H 	0.3848	0.7156	0.6139	0.002
Mof_C 	C 	0.3848	0.2497	0.7317	0.06
Mof_C 	C 	0.3806	0.3103	0.7713	-0.135
Mof_H 	H 	0.3799	0.2844	0.8025	0.089
Mof_C 	C 	0.3778	0.4079	0.7637	0.083
Mof_H 	H 	0.3767	0.4462	0.7912	0.016
Mof_C 	C 	0.3818	0.3958	0.6843	0.096
Mof_H 	H 	0.3838	0.4247	0.6543	0.009
Mof_C 	C 	0.3851	0.2971	0.6871	-0.138
Mof_H 	H 	0.3875	0.2625	0.659	0.077
Mof_C 	C 	0.5782	0.6867	0.0776	0.304
Mof_C 	C 	0.6721	0.6317	0.121	-0.089
Mof_C 	C 	0.7543	0.6758	0.1737	0.027
Mof_H 	H 	0.7525	0.74	0.1816	0.037
Mof_C 	C 	0.8391	0.6269	0.2149	-0.096
Mof_C 	C 	0.8421	0.5333	0.2007	0.032
Mof_H 	H 	0.8991	0.4998	0.2281	0.048
Mof_C 	C 	0.7625	0.4881	0.1468	-0.097
Mof_C 	C 	0.6766	0.5382	0.1066	0.025
Mof_H 	H 	0.6222	0.5086	0.07	0.056
Mof_C 	C 	0.9308	0.6742	0.2712	0.306
Mof_C 	C 	0.7694	0.3878	0.1307	0.332
Mof_C 	C 	0.1224	0.7171	0.9791	0.076
Mof_H 	H 	0.1257	0.783	0.9844	0.008
Mof_C 	C 	0.1262	0.6622	0.022	-0.127
Mof_H 	H 	0.1324	0.6911	0.0555	0.074
Mof_C 	C 	0.1207	0.5645	0.0163	0.058
Mof_C 	C 	0.1095	0.528	0.9637	-0.123
Mof_H 	H 	0.1033	0.4625	0.9564	0.083
Mof_C 	C 	0.1074	0.5885	0.9219	0.077
Mof_H 	H 	0.101	0.5618	0.8878	0.02
Mof_C 	C 	0.1238	0.5069	0.0625	0.079
Mof_C 	C 	0.1301	0.5455	0.1098	-0.137
Mof_H 	H 	0.1329	0.6116	0.1144	0.076
Mof_C 	C 	0.1325	0.4896	0.1512	0.072
Mof_C 	C 	0.1309	0.3931	0.1479	-0.135
Mof_H 	H 	0.1337	0.3565	0.1777	0.086
Mof_C 	C 	0.1251	0.35	0.1001	0.078
Mof_C 	C 	0.137	0.539	0.2018	0.058
Mof_C 	C 	0.1625	0.6347	0.2183	-0.13
Mof_H 	H 	0.1791	0.6699	0.1981	0.076
Mof_C 	C 	0.1633	0.6778	0.2645	0.083
Mof_H 	H 	0.1847	0.7406	0.2758	0.018
Mof_C 	C 	0.1144	0.5455	0.2792	0.086
Mof_H 	H 	0.0974	0.5127	0.3	0.018
Mof_C 	C 	0.115	0.495	0.2358	-0.14
Mof_H 	H 	0.1004	0.4302	0.2294	0.099
Mof_C 	C 	0.1197	0.2426	0.0931	0.05
Mof_C 	C 	0.1386	0.1856	0.1423	-0.109
Mof_H 	H 	0.1534	0.2136	0.179	0.076
Mof_C 	C 	0.1352	0.0867	0.1366	0.06
Mof_H 	H 	0.1479	0.0485	0.1695	0.027
Mof_N 	N 	0.113	0.0448	0.0816	-0.116
Mof_C 	C 	0.0941	0.1018	0.0324	0.057
Mof_H 	H 	0.0793	0.0738	0.9956	0.024
Mof_C 	C 	0.0975	0.2008	0.0381	-0.113
Mof_H 	H 	0.0848	0.2389	0.0052	0.078
Mof_C 	C 	0.3805	0.9947	0.6966	0.075
Mof_Cd	Cd	0.39886	0.763	0.00104	0.389
Mof_Cd	Cd	0.11916	0.77715	0.86077	0.407
Mof_N 	N 	0.4087	0.8516	0.9336	-0.17
Mof_N 	N 	0.3768	0.8221	0.5642	-0.156
Mof_N 	N 	0.1143	0.6822	0.929	-0.151
Mof_N 	N 	0.1362	0.637	0.2935	-0.152
Mof_N 	N 	0.3764	0.4506	0.7193	-0.135
Mof_N 	N 	0.3864	0.9472	0.7437	-0.125
Mof_N 	N 	0.1217	0.4077	0.0565	-0.127
Mof_O 	O 	0.5093	0.645	0.027	-0.264
Mof_O 	O 	0.5729	0.7682	0.0935	-0.291
Mof_O 	O 	0.8506	0.3518	0.1687	-0.295
Mof_O 	O 	0.698	0.3485	0.0819	-0.297
Mof_O 	O 	0.9402	0.7617	0.2721	-0.271
Mof_O 	O 	0.997	0.6206	0.3163	-0.283
Mof_C 	C 	0.5985	0.4454	0.5725	0.118
Mof_H 	H 	0.601	0.4798	0.5444	-0.01
Mof_C 	C 	0.6025	0.4943	0.6169	-0.189
Mof_H 	H 	0.6102	0.5602	0.6197	0.11
Mof_C 	C 	0.5957	0.4492	0.6571	0.104
Mof_C 	C 	0.5831	0.3543	0.6491	-0.168
Mof_H 	H 	0.5747	0.3198	0.6742	0.095
Mof_C 	C 	0.5823	0.3066	0.6038	0.105
Mof_H 	H 	0.5752	0.2406	0.6002	0.01
Mof_C 	C 	0.6044	0.501	0.7098	0.056
Mof_C 	C 	0.6019	0.5973	0.712	-0.121
Mof_H 	H 	0.5923	0.6332	0.6794	0.08
Mof_C 	C 	0.6135	0.6445	0.7626	0.052
Mof_C 	C 	0.6212	0.5891	0.8071	-0.123
Mof_H 	H 	0.6277	0.6181	0.8407	0.072
Mof_C 	C 	0.6273	0.4314	0.8509	0.063
Mof_C 	C 	0.6309	0.4722	0.8994	-0.131
Mof_H 	H 	0.6342	0.5383	0.9042	0.077
Mof_C 	C 	0.6297	0.4153	0.9405	0.086
Mof_H 	H 	0.6337	0.4447	0.973	0.021
Mof_C 	C 	0.6249	0.3335	0.849	-0.13
Mof_H 	H 	0.6262	0.3015	0.8196	0.084
Mof_C 	C 	0.6204	0.2817	0.8904	0.079
Mof_H 	H 	0.6152	0.2156	0.8861	0.002
Mof_C 	C 	0.6152	0.7497	0.7683	0.06
Mof_C 	C 	0.6194	0.8103	0.7287	-0.135
Mof_H 	H 	0.6201	0.7844	0.6975	0.089
Mof_C 	C 	0.6222	0.9079	0.7363	0.083
Mof_H 	H 	0.6233	0.9462	0.7088	0.016
Mof_C 	C 	0.6182	0.8958	0.8157	0.096
Mof_H 	H 	0.6162	0.9247	0.8457	0.009
Mof_C 	C 	0.6149	0.7971	0.8129	-0.138
Mof_H 	H 	0.6125	0.7625	0.841	0.077
Mof_C 	C 	0.4218	0.1867	0.4224	0.304
Mof_C 	C 	0.3279	0.1317	0.379	-0.09
Mof_C 	C 	0.2457	0.1758	0.3263	0.029
Mof_H 	H 	0.2475	0.24	0.3184	0.037
Mof_C 	C 	0.1609	0.1269	0.2851	-0.098
Mof_C 	C 	0.1579	0.0333	0.2993	0.037
Mof_H 	H 	0.1009	0.9998	0.2719	0.046
Mof_C 	C 	0.2375	0.9881	0.3532	-0.101
Mof_C 	C 	0.3234	0.0382	0.3934	0.028
Mof_H 	H 	0.3778	0.0086	0.43	0.055
Mof_C 	C 	0.0692	0.1742	0.2288	0.307
Mof_C 	C 	0.2306	0.8878	0.3693	0.333
Mof_C 	C 	0.8776	0.2171	0.5209	0.076
Mof_H 	H 	0.8743	0.283	0.5156	0.008
Mof_C 	C 	0.8738	0.1622	0.478	-0.127
Mof_H 	H 	0.8676	0.1911	0.4445	0.074
Mof_C 	C 	0.8793	0.0645	0.4837	0.059
Mof_C 	C 	0.8905	0.028	0.5363	-0.125
Mof_H 	H 	0.8967	0.9625	0.5436	0.084
Mof_C 	C 	0.8926	0.0885	0.5781	0.078
Mof_H 	H 	0.899	0.0618	0.6122	0.019
Mof_C 	C 	0.8762	0.0069	0.4375	0.079
Mof_C 	C 	0.8699	0.0455	0.3902	-0.139
Mof_H 	H 	0.8671	0.1116	0.3856	0.077
Mof_C 	C 	0.8675	0.9896	0.3488	0.075
Mof_C 	C 	0.8691	0.8931	0.3521	-0.137
Mof_H 	H 	0.8663	0.8565	0.3223	0.087
Mof_C 	C 	0.8749	0.85	0.3999	0.078
Mof_C 	C 	0.863	0.039	0.2982	0.055
Mof_C 	C 	0.8375	0.1347	0.2817	-0.128
Mof_H 	H 	0.8209	0.1699	0.3019	0.075
Mof_C 	C 	0.8367	0.1778	0.2355	0.082
Mof_H 	H 	0.8153	0.2406	0.2242	0.019
Mof_C 	C 	0.8856	0.0455	0.2208	0.084
Mof_H 	H 	0.9026	0.0127	0.2	0.018
Mof_C 	C 	0.885	0.995	0.2642	-0.137
Mof_H 	H 	0.8996	0.9302	0.2706	0.098
Mof_C 	C 	0.8803	0.7426	0.4069	0.049
Mof_C 	C 	0.8614	0.6856	0.3577	-0.109
Mof_H 	H 	0.8466	0.7136	0.321	0.076
Mof_C 	C 	0.8648	0.5867	0.3634	0.06
Mof_H 	H 	0.8521	0.5485	0.3305	0.027
Mof_N 	N 	0.887	0.5448	0.4184	-0.116
Mof_C 	C 	0.9059	0.6018	0.4676	0.056
Mof_H 	H 	0.9207	0.5738	0.5044	0.024
Mof_C 	C 	0.9025	0.7008	0.4619	-0.113
Mof_H 	H 	0.9152	0.7389	0.4948	0.078
Mof_C 	C 	0.6195	0.4947	0.8034	0.075
Mof_Cd	Cd	0.60114	0.263	0.49896	0.389
Mof_Cd	Cd	0.88084	0.27715	0.63923	0.407
Mof_N 	N 	0.5913	0.3516	0.5664	-0.17
Mof_N 	N 	0.6232	0.3221	0.9358	-0.156
Mof_N 	N 	0.8857	0.1822	0.571	-0.152
Mof_N 	N 	0.8638	0.137	0.2065	-0.152
Mof_N 	N 	0.6236	0.9506	0.7807	-0.135
Mof_N 	N 	0.6136	0.4472	0.7563	-0.125
Mof_N 	N 	0.8783	0.9077	0.4435	-0.126
Mof_O 	O 	0.4907	0.145	0.473	-0.264
Mof_O 	O 	0.4271	0.2682	0.4065	-0.291
Mof_O 	O 	0.1494	0.8518	0.3313	-0.296
Mof_O 	O 	0.302	0.8485	0.4181	-0.298
Mof_O 	O 	0.0598	0.2617	0.2279	-0.272
Mof_O 	O 	0.003	0.1206	0.1837	-0.283
Mof_C 	C 	0.5985	0.0546	0.0725	0.118
Mof_H 	H 	0.601	0.0202	0.0444	-0.01
Mof_C 	C 	0.6025	0.0057	0.1169	-0.189
Mof_H 	H 	0.6102	0.9398	0.1197	0.109
Mof_C 	C 	0.5957	0.0508	0.1571	0.103
Mof_C 	C 	0.5831	0.1457	0.1491	-0.168
Mof_H 	H 	0.5747	0.1802	0.1742	0.095
Mof_C 	C 	0.5823	0.1934	0.1038	0.105
Mof_H 	H 	0.5752	0.2594	0.1002	0.01
Mof_C 	C 	0.6044	0.999	0.2098	0.055
Mof_C 	C 	0.6019	0.9027	0.212	-0.121
Mof_H 	H 	0.5923	0.8668	0.1794	0.08
Mof_C 	C 	0.6135	0.8555	0.2626	0.052
Mof_C 	C 	0.6212	0.9109	0.3071	-0.123
Mof_H 	H 	0.6277	0.8819	0.3407	0.072
Mof_C 	C 	0.6273	0.0686	0.3509	0.064
Mof_C 	C 	0.6309	0.0278	0.3994	-0.131
Mof_H 	H 	0.6342	0.9617	0.4042	0.077
Mof_C 	C 	0.6297	0.0847	0.4405	0.086
Mof_H 	H 	0.6337	0.0553	0.473	0.02
Mof_C 	C 	0.6249	0.1665	0.349	-0.131
Mof_H 	H 	0.6262	0.1985	0.3196	0.084
Mof_C 	C 	0.6204	0.2183	0.3904	0.079
Mof_H 	H 	0.6152	0.2844	0.3861	0.002
Mof_C 	C 	0.6152	0.7503	0.2683	0.06
Mof_C 	C 	0.6194	0.6897	0.2287	-0.135
Mof_H 	H 	0.6201	0.7156	0.1975	0.089
Mof_C 	C 	0.6222	0.5921	0.2363	0.083
Mof_H 	H 	0.6233	0.5538	0.2088	0.016
Mof_C 	C 	0.6182	0.6042	0.3157	0.096
Mof_H 	H 	0.6162	0.5753	0.3457	0.009
Mof_C 	C 	0.6149	0.7029	0.3129	-0.138
Mof_H 	H 	0.6125	0.7375	0.341	0.077
Mof_C 	C 	0.4218	0.3133	0.9224	0.304
Mof_C 	C 	0.3279	0.3683	0.879	-0.089
Mof_C 	C 	0.2457	0.3242	0.8263	0.027
Mof_H 	H 	0.2475	0.26	0.8184	0.037
Mof_C 	C 	0.1609	0.3731	0.7851	-0.096
Mof_C 	C 	0.1579	0.4667	0.7993	0.032
Mof_H 	H 	0.1009	0.5002	0.7719	0.048
Mof_C 	C 	0.2375	0.5119	0.8532	-0.097
Mof_C 	C 	0.3234	0.4618	0.8934	0.025
Mof_H 	H 	0.3778	0.4914	0.93	0.056
Mof_C 	C 	0.0692	0.3258	0.7288	0.306
Mof_C 	C 	0.2306	0.6122	0.8693	0.332
Mof_C 	C 	0.8776	0.2829	0.0209	0.076
Mof_H 	H 	0.8743	0.217	0.0156	0.008
Mof_C 	C 	0.8738	0.3378	0.978	-0.127
Mof_H 	H 	0.8676	0.3089	0.9445	0.074
Mof_C 	C 	0.8793	0.4355	0.9837	0.058
Mof_C 	C 	0.8905	0.472	0.0363	-0.123
Mof_H 	H 	0.8967	0.5375	0.0436	0.083
Mof_C 	C 	0.8926	0.4115	0.0781	0.077
Mof_H 	H 	0.899	0.4382	0.1122	0.02
Mof_C 	C 	0.8762	0.4931	0.9375	0.079
Mof_C 	C 	0.8699	0.4545	0.8902	-0.137
Mof_H 	H 	0.8671	0.3884	0.8856	0.076
Mof_C 	C 	0.8675	0.5104	0.8488	0.072
Mof_C 	C 	0.8691	0.6069	0.8521	-0.135
Mof_H 	H 	0.8663	0.6435	0.8223	0.086
Mof_C 	C 	0.8749	0.65	0.8999	0.078
Mof_C 	C 	0.863	0.461	0.7982	0.058
Mof_C 	C 	0.8375	0.3653	0.7817	-0.13
Mof_H 	H 	0.8209	0.3301	0.8019	0.076
Mof_C 	C 	0.8367	0.3222	0.7355	0.083
Mof_H 	H 	0.8153	0.2594	0.7242	0.018
Mof_C 	C 	0.8856	0.4545	0.7208	0.086
Mof_H 	H 	0.9026	0.4873	0.7	0.018
Mof_C 	C 	0.885	0.505	0.7642	-0.14
Mof_H 	H 	0.8996	0.5698	0.7706	0.099
Mof_C 	C 	0.8803	0.7574	0.9069	0.05
Mof_C 	C 	0.8614	0.8144	0.8577	-0.109
Mof_H 	H 	0.8466	0.7864	0.821	0.076
Mof_C 	C 	0.8648	0.9133	0.8634	0.06
Mof_H 	H 	0.8521	0.9515	0.8305	0.027
Mof_N 	N 	0.887	0.9552	0.9184	-0.116
Mof_C 	C 	0.9059	0.8982	0.9676	0.057
Mof_H 	H 	0.9207	0.9262	0.0044	0.024
Mof_C 	C 	0.9025	0.7992	0.9619	-0.113
Mof_H 	H 	0.9152	0.7611	0.9948	0.078
Mof_C 	C 	0.6195	0.0053	0.3034	0.075
Mof_Cd	Cd	0.60114	0.237	0.99896	0.389
Mof_Cd	Cd	0.88084	0.22285	0.13923	0.407
Mof_N 	N 	0.5913	0.1484	0.0664	-0.17
Mof_N 	N 	0.6232	0.1779	0.4358	-0.156
Mof_N 	N 	0.8857	0.3178	0.071	-0.151
Mof_N 	N 	0.8638	0.363	0.7065	-0.152
Mof_N 	N 	0.6236	0.5494	0.2807	-0.135
Mof_N 	N 	0.6136	0.0528	0.2563	-0.125
Mof_N 	N 	0.8783	0.5923	0.9435	-0.127
Mof_O 	O 	0.4907	0.355	0.973	-0.264
Mof_O 	O 	0.4271	0.2318	0.9065	-0.291
Mof_O 	O 	0.1494	0.6482	0.8313	-0.295
Mof_O 	O 	0.302	0.6515	0.9181	-0.297
Mof_O 	O 	0.0598	0.2383	0.7279	-0.271
Mof_O 	O 	0.003	0.3794	0.6837	-0.283
Mof_C 	C 	0.4015	0.5546	0.4275	0.118
Mof_H 	H 	0.399	0.5202	0.4556	-0.01
Mof_C 	C 	0.3975	0.5057	0.3831	-0.189
Mof_H 	H 	0.3898	0.4398	0.3803	0.11
Mof_C 	C 	0.4043	0.5508	0.3429	0.104
Mof_C 	C 	0.4169	0.6457	0.3509	-0.168
Mof_H 	H 	0.4253	0.6802	0.3258	0.095
Mof_C 	C 	0.4177	0.6934	0.3962	0.105
Mof_H 	H 	0.4248	0.7594	0.3998	0.01
Mof_C 	C 	0.3956	0.499	0.2902	0.056
Mof_C 	C 	0.3981	0.4027	0.288	-0.121
Mof_H 	H 	0.4077	0.3668	0.3206	0.08
Mof_C 	C 	0.3865	0.3555	0.2374	0.052
Mof_C 	C 	0.3788	0.4109	0.1929	-0.123
Mof_H 	H 	0.3723	0.3819	0.1593	0.072
Mof_C 	C 	0.3727	0.5686	0.1491	0.063
Mof_C 	C 	0.3691	0.5278	0.1006	-0.131
Mof_H 	H 	0.3658	0.4617	0.0958	0.077
Mof_C 	C 	0.3703	0.5847	0.0595	0.086
Mof_H 	H 	0.3663	0.5553	0.027	0.021
Mof_C 	C 	0.3751	0.6665	0.151	-0.13
Mof_H 	H 	0.3738	0.6985	0.1804	0.084
Mof_C 	C 	0.3796	0.7183	0.1096	0.079
Mof_H 	H 	0.3848	0.7844	0.1139	0.002
Mof_C 	C 	0.3848	0.2503	0.2317	0.06
Mof_C 	C 	0.3806	0.1897	0.2713	-0.135
Mof_H 	H 	0.3799	0.2156	0.3025	0.089
Mof_C 	C 	0.3778	0.0921	0.2637	0.083
Mof_H 	H 	0.3767	0.0538	0.2912	0.016
Mof_C 	C 	0.3818	0.1042	0.1843	0.096
Mof_H 	H 	0.3838	0.0753	0.1543	0.009
Mof_C 	C 	0.3851	0.2029	0.1871	-0.138
Mof_H 	H 	0.3875	0.2375	0.159	0.077
Mof_C 	C 	0.5782	0.8133	0.5776	0.304
Mof_C 	C 	0.6721	0.8683	0.621	-0.09
Mof_C 	C 	0.7543	0.8242	0.6737	0.029
Mof_H 	H 	0.7525	0.76	0.6816	0.037
Mof_C 	C 	0.8391	0.8731	0.7149	-0.098
Mof_C 	C 	0.8421	0.9667	0.7007	0.037
Mof_H 	H 	0.8991	0.0002	0.7281	0.046
Mof_C 	C 	0.7625	0.0119	0.6468	-0.101
Mof_C 	C 	0.6766	0.9618	0.6066	0.028
Mof_H 	H 	0.6222	0.9914	0.57	0.055
Mof_C 	C 	0.9308	0.8258	0.7712	0.307
Mof_C 	C 	0.7694	0.1122	0.6307	0.333
Mof_C 	C 	0.1224	0.7829	0.4791	0.076
Mof_H 	H 	0.1257	0.717	0.4844	0.008
Mof_C 	C 	0.1262	0.8378	0.522	-0.127
Mof_H 	H 	0.1324	0.8089	0.5555	0.074
Mof_C 	C 	0.1207	0.9355	0.5163	0.059
Mof_C 	C 	0.1095	0.972	0.4637	-0.125
Mof_H 	H 	0.1033	0.0375	0.4564	0.084
Mof_C 	C 	0.1074	0.9115	0.4219	0.078
Mof_H 	H 	0.101	0.9382	0.3878	0.019
Mof_C 	C 	0.1238	0.9931	0.5625	0.079
Mof_C 	C 	0.1301	0.9545	0.6098	-0.139
Mof_H 	H 	0.1329	0.8884	0.6144	0.077
Mof_C 	C 	0.1325	0.0104	0.6512	0.075
Mof_C 	C 	0.1309	0.1069	0.6479	-0.137
Mof_H 	H 	0.1337	0.1435	0.6777	0.087
Mof_C 	C 	0.1251	0.15	0.6001	0.078
Mof_C 	C 	0.137	0.961	0.7018	0.055
Mof_C 	C 	0.1625	0.8653	0.7183	-0.128
Mof_H 	H 	0.1791	0.8301	0.6981	0.075
Mof_C 	C 	0.1633	0.8222	0.7645	0.082
Mof_H 	H 	0.1847	0.7594	0.7758	0.019
Mof_C 	C 	0.1144	0.9545	0.7792	0.084
Mof_H 	H 	0.0974	0.9873	0.8	0.018
Mof_C 	C 	0.115	0.005	0.7358	-0.137
Mof_H 	H 	0.1004	0.0698	0.7294	0.098
Mof_C 	C 	0.1197	0.2574	0.5931	0.049
Mof_C 	C 	0.1386	0.3144	0.6423	-0.109
Mof_H 	H 	0.1534	0.2864	0.679	0.076
Mof_C 	C 	0.1352	0.4133	0.6366	0.06
Mof_H 	H 	0.1479	0.4515	0.6695	0.027
Mof_N 	N 	0.113	0.4552	0.5816	-0.116
Mof_C 	C 	0.0941	0.3982	0.5324	0.056
Mof_H 	H 	0.0793	0.4262	0.4956	0.024
Mof_C 	C 	0.0975	0.2992	0.5381	-0.113
Mof_H 	H 	0.0848	0.2611	0.5052	0.078
Mof_C 	C 	0.3805	0.5053	0.1966	0.075
Mof_Cd	Cd	0.39886	0.737	0.50104	0.389
Mof_Cd	Cd	0.11916	0.72285	0.36077	0.407
Mof_N 	N 	0.4087	0.6484	0.4336	-0.17
Mof_N 	N 	0.3768	0.6779	0.0642	-0.156
Mof_N 	N 	0.1143	0.8178	0.429	-0.152
Mof_N 	N 	0.1362	0.863	0.7935	-0.152
Mof_N 	N 	0.3764	0.0494	0.2193	-0.135
Mof_N 	N 	0.3864	0.5528	0.2437	-0.125
Mof_N 	N 	0.1217	0.0923	0.5565	-0.126
Mof_O 	O 	0.5093	0.855	0.527	-0.264
Mof_O 	O 	0.5729	0.7318	0.5935	-0.291
Mof_O 	O 	0.8506	0.1482	0.6687	-0.296
Mof_O 	O 	0.698	0.1515	0.5819	-0.298
Mof_O 	O 	0.9402	0.7383	0.7721	-0.272
Mof_O 	O 	0.997	0.8794	0.8163	-0.283
_end
