data_functionalizedCrystal
_audit_creation_method	'EQeq! by Chris Wilmer'
_symmetry_space_group_name_H-M	'P1'
_symmetry_Int_Tables_number	1
_symmetry_cell_setting	triclinic
loop_
_symmetry_equiv_pos_as_xyz
  x,y,z
_cell_length_a	9.2925
_cell_length_b	18.4066
_cell_length_c	20.426
_cell_angle_alpha	113.807
_cell_angle_beta	90
_cell_angle_gamma	104.621
loop_
_atom_site_label
_atom_site_type_symbol
_atom_site_fract_x
_atom_site_fract_y
_atom_site_fract_z
_atom_site_charge
Mof_U 	U 	0.21818	0.32166	0.09426	-0.001
Mof_U 	U 	0.89652	0.67834	0.40574	0
Mof_U 	U 	0.78182	0.67834	0.90574	0
Mof_U 	U 	0.10348	0.32166	0.59426	-0.001
Mof_U 	U 	-0	0	-0	0.013
Mof_U 	U 	-0	3.70028e-17	0.5	0.014
Mof_H 	H 	0.9222	0.7736	0.1053	0.059
Mof_H 	H 	0.7977	0.7268	0.1376	0.052
Mof_H 	H 	0.0377	0.9278	0.1757	0.062
Mof_H 	H 	0.0543	0.9236	0.2506	0.069
Mof_H 	H 	0.8265	0.8486	0.2966	0.072
Mof_H 	H 	0.6916	0.783	0.239	0.055
Mof_H 	H 	0.7953	0.8674	0.1024	0.07
Mof_H 	H 	0.7246	0.9194	0.1691	0.076
Mof_H 	H 	0.5927	0.7902	0.3255	0.136
Mof_H 	H 	0.359	0.764	0.3835	0.022
Mof_H 	H 	0.2727	0.9478	0.3493	-0.009
Mof_H 	H 	0.4731	0.9696	0.2919	0.15
Mof_H 	H 	0.3553	0.7012	0.0767	0.148
Mof_H 	H 	0.1421	0.7138	0.0297	0.008
Mof_H 	H 	0.3757	0.9272	0.0311	-0.01
Mof_H 	H 	0.5869	0.9184	0.0811	0.151
Mof_H 	H 	0.2167	0.7404	0.2316	0.165
Mof_H 	H 	0.2863	0.6212	0.2037	-0.015
Mof_H 	H 	0.9186	0.4962	0.0678	-0.016
Mof_H 	H 	0.8505	0.6176	0.0917	0.162
Mof_H 	H 	0.1486	0.2264	0.3947	0.059
Mof_H 	H 	0.0709	0.2732	0.3624	0.053
Mof_H 	H 	0.1099	0.0722	0.3243	0.068
Mof_H 	H 	0.1307	0.0764	0.2494	0.075
Mof_H 	H 	0.9779	0.1514	0.2034	0.073
Mof_H 	H 	0.9086	0.217	0.261	0.055
Mof_H 	H 	0.9279	0.1326	0.3976	0.073
Mof_H 	H 	0.8052	0.0806	0.3309	0.081
Mof_H 	H 	0.8025	0.2098	0.1745	0.136
Mof_H 	H 	0.595	0.236	0.1165	0.022
Mof_H 	H 	0.3249	0.0522	0.1507	-0.004
Mof_H 	H 	0.5035	0.0304	0.2081	0.155
Mof_H 	H 	0.6541	0.2988	0.4233	0.148
Mof_H 	H 	0.4283	0.2862	0.4703	0.009
Mof_H 	H 	0.4485	0.0728	0.4689	-0.004
Mof_H 	H 	0.6685	0.0816	0.4189	0.154
Mof_H 	H 	0.4763	0.2596	0.2684	0.166
Mof_H 	H 	0.6651	0.3788	0.2963	-0.016
Mof_H 	H 	0.4224	0.5038	0.4322	-0.017
Mof_H 	H 	0.2329	0.3824	0.4083	0.163
Mof_H 	H 	0.0778	0.2264	0.8947	0.06
Mof_H 	H 	0.2023	0.2732	0.8624	0.053
Mof_H 	H 	0.9623	0.0722	0.8243	0.067
Mof_H 	H 	0.9457	0.0764	0.7494	0.074
Mof_H 	H 	0.1735	0.1514	0.7034	0.074
Mof_H 	H 	0.3084	0.217	0.761	0.055
Mof_H 	H 	0.2047	0.1326	0.8976	0.073
Mof_H 	H 	0.2754	0.0806	0.8309	0.081
Mof_H 	H 	0.4073	0.2098	0.6745	0.136
Mof_H 	H 	0.641	0.236	0.6165	0.022
Mof_H 	H 	0.7273	0.0522	0.6507	-0.005
Mof_H 	H 	0.5269	0.0304	0.7081	0.155
Mof_H 	H 	0.6447	0.2988	0.9233	0.148
Mof_H 	H 	0.8579	0.2862	0.9703	0.01
Mof_H 	H 	0.6243	0.0728	0.9689	-0.004
Mof_H 	H 	0.4131	0.0816	0.9189	0.154
Mof_H 	H 	0.7833	0.2596	0.7684	0.165
Mof_H 	H 	0.7137	0.3788	0.7963	-0.015
Mof_H 	H 	0.0814	0.5038	0.9322	-0.016
Mof_H 	H 	0.1495	0.3824	0.9083	0.163
Mof_H 	H 	0.8514	0.7736	0.6053	0.058
Mof_H 	H 	0.9291	0.7268	0.6376	0.052
Mof_H 	H 	0.8901	0.9278	0.6757	0.066
Mof_H 	H 	0.8693	0.9236	0.7506	0.073
Mof_H 	H 	0.0221	0.8486	0.7966	0.071
Mof_H 	H 	0.0914	0.783	0.739	0.054
Mof_H 	H 	0.0721	0.8674	0.6024	0.069
Mof_H 	H 	0.1948	0.9194	0.6691	0.076
Mof_H 	H 	0.1975	0.7902	0.8255	0.136
Mof_H 	H 	0.405	0.764	0.8835	0.022
Mof_H 	H 	0.6751	0.9478	0.8493	-0.008
Mof_H 	H 	0.4965	0.9696	0.7919	0.15
Mof_H 	H 	0.3459	0.7012	0.5767	0.148
Mof_H 	H 	0.5717	0.7138	0.5297	0.009
Mof_H 	H 	0.5515	0.9272	0.5311	-0.009
Mof_H 	H 	0.3315	0.9184	0.5811	0.151
Mof_H 	H 	0.5237	0.7404	0.7316	0.166
Mof_H 	H 	0.3349	0.6212	0.7037	-0.016
Mof_H 	H 	0.5776	0.4962	0.5678	-0.017
Mof_H 	H 	0.7671	0.6176	0.5917	0.163
Mof_C 	C 	0.8457	0.8538	0.1928	0.054
Mof_C 	C 	0.8859	0.7732	0.1498	-0.001
Mof_C 	C 	0.9863	0.9276	0.217	-0.053
Mof_C 	C 	0.7577	0.8386	0.2562	-0.011
Mof_C 	C 	0.7459	0.8666	0.1441	-0.03
Mof_C 	C 	0.5422	0.8824	0.3076	0.283
Mof_C 	C 	0.5235	0.8204	0.331	-0.236
Mof_C 	C 	0.3823	0.8046	0.3661	0.107
Mof_C 	C 	0.2899	0.855	0.3708	-0.186
Mof_C 	C 	0.3355	0.914	0.3435	0.177
Mof_C 	C 	0.454	0.93	0.3105	-0.314
Mof_C 	C 	0.1529	0.8474	0.4038	0.351
Mof_C 	C 	0.4916	0.81	0.088	0.305
Mof_C 	C 	0.3591	0.7484	0.0694	-0.272
Mof_C 	C 	0.2316	0.755	0.0402	0.158
Mof_C 	C 	0.2382	0.8252	0.0263	-0.199
Mof_C 	C 	0.37	0.882	0.0415	0.182
Mof_C 	C 	0.4976	0.8772	0.0717	-0.291
Mof_C 	C 	0.1023	0.8338	0.9995	0.338
Mof_C 	C 	0.026	0.6902	0.1665	0.332
Mof_C 	C 	0.1551	0.6906	0.1982	-0.318
Mof_C 	C 	0.1968	0.6198	0.1822	0.205
Mof_C 	C 	0.1035	0.5468	0.1338	-0.218
Mof_C 	C 	0.9794	0.5464	0.1013	0.208
Mof_C 	C 	0.9364	0.6186	0.1157	-0.316
Mof_C 	C 	0.1456	0.4698	0.1215	0.342
Mof_C 	C 	0.9919	0.1462	0.3072	0.057
Mof_C 	C 	0.1127	0.2268	0.3502	-0.002
Mof_C 	C 	0.0587	0.0724	0.283	-0.055
Mof_C 	C 	0.9191	0.1614	0.2438	-0.012
Mof_C 	C 	0.8793	0.1334	0.3559	-0.034
Mof_C 	C 	0.6598	0.1176	0.1924	0.284
Mof_C 	C 	0.7031	0.1796	0.169	-0.235
Mof_C 	C 	0.5777	0.1954	0.1339	0.107
Mof_C 	C 	0.4349	0.145	0.1292	-0.184
Mof_C 	C 	0.4215	0.086	0.1565	0.177
Mof_C 	C 	0.524	0.07	0.1895	-0.312
Mof_C 	C 	0.3055	0.1526	0.0962	0.349
Mof_C 	C 	0.6816	0.19	0.412	0.304
Mof_C 	C 	0.6107	0.2516	0.4306	-0.269
Mof_C 	C 	0.4766	0.245	0.4598	0.156
Mof_C 	C 	0.413	0.1748	0.4737	-0.194
Mof_C 	C 	0.488	0.118	0.4585	0.18
Mof_C 	C 	0.6204	0.1228	0.4283	-0.287
Mof_C 	C 	0.2685	0.1662	0.5005	0.337
Mof_C 	C 	0.3358	0.3098	0.3335	0.336
Mof_C 	C 	0.4645	0.3094	0.3018	-0.32
Mof_C 	C 	0.577	0.3802	0.3178	0.206
Mof_C 	C 	0.5567	0.4532	0.3662	-0.219
Mof_C 	C 	0.433	0.4536	0.3987	0.209
Mof_C 	C 	0.3178	0.3814	0.3843	-0.319
Mof_C 	C 	0.6758	0.5302	0.3785	0.342
Mof_C 	C 	0.1543	0.1462	0.8072	0.058
Mof_C 	C 	0.1141	0.2268	0.8502	-0.003
Mof_C 	C 	0.0137	0.0724	0.783	-0.055
Mof_C 	C 	0.2423	0.1614	0.7438	-0.013
Mof_C 	C 	0.2541	0.1334	0.8559	-0.035
Mof_C 	C 	0.4578	0.1176	0.6924	0.284
Mof_C 	C 	0.4765	0.1796	0.669	-0.235
Mof_C 	C 	0.6177	0.1954	0.6339	0.107
Mof_C 	C 	0.7101	0.145	0.6292	-0.184
Mof_C 	C 	0.6645	0.086	0.6565	0.178
Mof_C 	C 	0.546	0.07	0.6895	-0.312
Mof_C 	C 	0.8471	0.1526	0.5962	0.349
Mof_C 	C 	0.5084	0.19	0.912	0.303
Mof_C 	C 	0.6409	0.2516	0.9306	-0.268
Mof_C 	C 	0.7684	0.245	0.9598	0.154
Mof_C 	C 	0.7618	0.1748	0.9737	-0.192
Mof_C 	C 	0.63	0.118	0.9585	0.179
Mof_C 	C 	0.5024	0.1228	0.9283	-0.286
Mof_C 	C 	0.8977	0.1662	0.0005	0.336
Mof_C 	C 	0.974	0.3098	0.8335	0.336
Mof_C 	C 	0.8449	0.3094	0.8018	-0.319
Mof_C 	C 	0.8032	0.3802	0.8178	0.205
Mof_C 	C 	0.8965	0.4532	0.8662	-0.217
Mof_C 	C 	0.0206	0.4536	0.8987	0.207
Mof_C 	C 	0.0636	0.3814	0.8843	-0.318
Mof_C 	C 	0.8544	0.5302	0.8785	0.342
Mof_C 	C 	0.0081	0.8538	0.6928	0.052
Mof_C 	C 	0.8873	0.7732	0.6498	0.002
Mof_C 	C 	0.9413	0.9276	0.717	-0.059
Mof_C 	C 	0.0809	0.8386	0.7562	-0.01
Mof_C 	C 	0.1207	0.8666	0.6441	-0.029
Mof_C 	C 	0.3402	0.8824	0.8076	0.282
Mof_C 	C 	0.2969	0.8204	0.831	-0.235
Mof_C 	C 	0.4223	0.8046	0.8661	0.107
Mof_C 	C 	0.5651	0.855	0.8708	-0.185
Mof_C 	C 	0.5785	0.914	0.8435	0.176
Mof_C 	C 	0.476	0.93	0.8105	-0.313
Mof_C 	C 	0.6945	0.8474	0.9038	0.35
Mof_C 	C 	0.3184	0.81	0.588	0.305
Mof_C 	C 	0.3893	0.7484	0.5694	-0.271
Mof_C 	C 	0.5234	0.755	0.5402	0.157
Mof_C 	C 	0.587	0.8252	0.5263	-0.197
Mof_C 	C 	0.512	0.882	0.5415	0.181
Mof_C 	C 	0.3796	0.8772	0.5717	-0.29
Mof_C 	C 	0.7315	0.8338	0.4995	0.339
Mof_C 	C 	0.6642	0.6902	0.6665	0.337
Mof_C 	C 	0.5355	0.6906	0.6982	-0.321
Mof_C 	C 	0.423	0.6198	0.6822	0.207
Mof_C 	C 	0.4433	0.5468	0.6338	-0.219
Mof_C 	C 	0.567	0.5464	0.6013	0.209
Mof_C 	C 	0.6822	0.6186	0.6157	-0.319
Mof_C 	C 	0.3242	0.4698	0.6215	0.343
Mof_O 	O 	0.9947	0.7652	0.1899	-0.252
Mof_O 	O 	0.6753	0.8986	0.2751	-0.215
Mof_O 	O 	0.60681	0.80062	0.1209	-0.233
Mof_O 	O 	0.2634	0.4706	0.1505	-0.218
Mof_O 	O 	0.0566	0.4004	0.0798	-0.213
Mof_O 	O 	0.1126	0.9004	0.9929	-0.209
Mof_O 	O 	0.9831	0.7794	0.9817	-0.208
Mof_O 	O 	0.1017	0.787	0.4183	-0.212
Mof_O 	O 	0.0866	0.9004	0.4153	-0.219
Mof_O 	O 	0.2295	0.2348	0.3101	-0.253
Mof_O 	O 	0.7767	0.1014	0.2249	-0.211
Mof_O 	O 	0.80619	0.19938	0.3791	-0.231
Mof_O 	O 	0.7928	0.5294	0.3495	-0.218
Mof_O 	O 	0.6562	0.5996	0.4202	-0.212
Mof_O 	O 	0.2122	0.0996	0.5071	-0.203
Mof_O 	O 	0.2037	0.2206	0.5183	-0.21
Mof_O 	O 	0.3147	0.213	0.0817	-0.211
Mof_O 	O 	0.1862	0.0996	0.0847	-0.213
Mof_O 	O 	0.0053	0.2348	0.8101	-0.253
Mof_O 	O 	0.3247	0.1014	0.7249	-0.211
Mof_O 	O 	0.39319	0.19938	0.8791	-0.231
Mof_O 	O 	0.7366	0.5294	0.8495	-0.217
Mof_O 	O 	0.9434	0.5996	0.9202	-0.211
Mof_O 	O 	0.8874	0.0996	0.0071	-0.204
Mof_O 	O 	0.0169	0.2206	0.0183	-0.209
Mof_O 	O 	0.8983	0.213	0.5817	-0.211
Mof_O 	O 	0.9134	0.0996	0.5847	-0.213
Mof_O 	O 	0.7705	0.7652	0.6899	-0.254
Mof_O 	O 	0.2233	0.8986	0.7751	-0.216
Mof_O 	O 	0.19381	0.80062	0.6209	-0.233
Mof_O 	O 	0.2072	0.4706	0.6505	-0.218
Mof_O 	O 	0.3438	0.4004	0.5798	-0.212
Mof_O 	O 	0.7878	0.9004	0.4929	-0.208
Mof_O 	O 	0.7963	0.7794	0.4817	-0.21
Mof_O 	O 	0.6853	0.787	0.9183	-0.211
Mof_O 	O 	0.8138	0.9004	0.9153	-0.217
Mof_O 	O 	0.9418	1.85014e-17	0.25	-0.133
Mof_O 	O 	0.0582	7.40056e-17	0.75	-0.131
_end
