data_functionalizedCrystal
_audit_creation_method	'EQeq! by Chris Wilmer'
_symmetry_space_group_name_H-M	'P1'
_symmetry_Int_Tables_number	1
_symmetry_cell_setting	triclinic
loop_
_symmetry_equiv_pos_as_xyz
  x,y,z
_cell_length_a	24.585
_cell_length_b	13.1726
_cell_length_c	14.829
_cell_angle_alpha	90
_cell_angle_beta	96.419
_cell_angle_gamma	90
loop_
_atom_site_label
_atom_site_type_symbol
_atom_site_fract_x
_atom_site_fract_y
_atom_site_fract_z
_atom_site_charge
Mof_Sm	Sm	0.32828	0.7924	0.03005	2.08
Mof_C 	C 	0.57377	0.2713	0.0414	0.342
Mof_C 	C 	0.52319	0.3042	0.0812	-0.137
Mof_C 	C 	0.48898	0.2353	0.1164	0.071
Mof_H 	H 	0.4989	0.1673	0.1208	0.006
Mof_C 	C 	0.43999	0.2665	0.1451	-0.161
Mof_H 	H 	0.4174	0.2191	0.1688	0.082
Mof_C 	C 	0.42409	0.3675	0.13912	0.113
Mof_C 	C 	0.45947	0.4369	0.107	-0.161
Mof_H 	H 	0.4502	0.5054	0.1041	0.084
Mof_C 	C 	0.50867	0.4051	0.0789	0.069
Mof_H 	H 	0.5322	0.4528	0.0582	0.014
Mof_C 	C 	0.36936	0.3994	0.16287	-0.096
Mof_C 	C 	0.34707	0.3527	0.23498	0.066
Mof_H 	H 	0.3677	0.305	0.2702	0.019
Mof_C 	C 	0.29453	0.3763	0.25501	-0.197
Mof_C 	C 	0.26314	0.4453	0.20127	0.117
Mof_H 	H 	0.2273	0.4584	0.212	-0.005
Mof_C 	C 	0.28541	0.49502	0.13125	-0.196
Mof_C 	C 	0.33858	0.4734	0.11347	0.058
Mof_H 	H 	0.3537	0.5087	0.0681	0.006
Mof_C 	C 	0.2512	0.5699	0.07461	0.458
Mof_C 	C 	0.2731	0.3259	0.33492	0.503
Mof_O 	O 	0.58729	0.17832	0.0445	-0.458
Mof_O 	O 	0.60148	0.33526	0.00481	-0.456
Mof_O 	O 	0.27413	0.64483	0.04006	-0.624
Mof_O 	O 	0.20082	0.55726	0.06179	-0.495
Mof_O 	O 	0.2259	0.34945	0.35257	-0.563
Mof_O 	O 	0.30406	0.26352	0.37793	-0.525
Mof_Sm	Sm	0.82827	0.2924	0.03005	2.075
Mof_C 	C 	0.07377	0.7713	0.0414	0.341
Mof_C 	C 	0.02319	0.8042	0.0812	-0.137
Mof_C 	C 	0.98898	0.7353	0.1164	0.068
Mof_H 	H 	0.9989	0.6673	0.1208	0.005
Mof_C 	C 	0.93999	0.7665	0.1451	-0.163
Mof_H 	H 	0.9174	0.7191	0.1688	0.081
Mof_C 	C 	0.92409	0.8675	0.13912	0.114
Mof_C 	C 	0.95947	0.9369	0.107	-0.166
Mof_H 	H 	0.9502	0.0054	0.1041	0.085
Mof_C 	C 	0.00867	0.9051	0.0789	0.071
Mof_H 	H 	0.0322	0.9528	0.0582	0.013
Mof_C 	C 	0.86936	0.8994	0.16287	-0.097
Mof_C 	C 	0.84707	0.8527	0.23498	0.066
Mof_H 	H 	0.8677	0.805	0.2702	0.019
Mof_C 	C 	0.79453	0.8763	0.25501	-0.198
Mof_C 	C 	0.76314	0.9453	0.20127	0.117
Mof_H 	H 	0.7273	0.9584	0.212	-0.005
Mof_C 	C 	0.78541	0.99502	0.13125	-0.197
Mof_C 	C 	0.83858	0.9734	0.11347	0.057
Mof_H 	H 	0.8537	0.0087	0.0681	0.006
Mof_C 	C 	0.7512	0.0699	0.07461	0.458
Mof_C 	C 	0.7731	0.8259	0.33492	0.503
Mof_O 	O 	0.08729	0.67832	0.0445	-0.457
Mof_O 	O 	0.10148	0.83526	0.00481	-0.455
Mof_O 	O 	0.77413	0.14483	0.04006	-0.624
Mof_O 	O 	0.70082	0.05726	0.06179	-0.496
Mof_O 	O 	0.7259	0.84945	0.35257	-0.563
Mof_O 	O 	0.80406	0.76352	0.37793	-0.526
Mof_Sm	Sm	0.67172	0.7924	0.46995	2.077
Mof_C 	C 	0.42623	0.2713	0.4586	0.341
Mof_C 	C 	0.47681	0.3042	0.4188	-0.138
Mof_C 	C 	0.51102	0.2353	0.3836	0.07
Mof_H 	H 	0.5011	0.1673	0.3792	0.005
Mof_C 	C 	0.56001	0.2665	0.3549	-0.163
Mof_H 	H 	0.5826	0.2191	0.3312	0.081
Mof_C 	C 	0.57591	0.3675	0.36088	0.112
Mof_C 	C 	0.54053	0.4369	0.393	-0.162
Mof_H 	H 	0.5498	0.5054	0.3959	0.083
Mof_C 	C 	0.49133	0.4051	0.4211	0.068
Mof_H 	H 	0.4678	0.4528	0.4418	0.014
Mof_C 	C 	0.63064	0.3994	0.33713	-0.097
Mof_C 	C 	0.65293	0.3527	0.26502	0.066
Mof_H 	H 	0.6323	0.305	0.2298	0.019
Mof_C 	C 	0.70547	0.3763	0.24499	-0.197
Mof_C 	C 	0.73686	0.4453	0.29873	0.117
Mof_H 	H 	0.7727	0.4584	0.288	-0.005
Mof_C 	C 	0.71459	0.49502	0.36875	-0.196
Mof_C 	C 	0.66142	0.4734	0.38653	0.058
Mof_H 	H 	0.6463	0.5087	0.4319	0.006
Mof_C 	C 	0.7488	0.5699	0.42539	0.458
Mof_C 	C 	0.7269	0.3259	0.16508	0.503
Mof_O 	O 	0.41271	0.17832	0.4555	-0.458
Mof_O 	O 	0.39852	0.33526	0.49519	-0.456
Mof_O 	O 	0.72587	0.64483	0.45994	-0.624
Mof_O 	O 	0.79918	0.55726	0.43821	-0.496
Mof_O 	O 	0.7741	0.34945	0.14743	-0.563
Mof_O 	O 	0.69594	0.26352	0.12207	-0.526
Mof_Sm	Sm	0.17172	0.2924	0.46995	2.078
Mof_C 	C 	0.92623	0.7713	0.4586	0.341
Mof_C 	C 	0.97681	0.8042	0.4188	-0.139
Mof_C 	C 	0.01102	0.7353	0.3836	0.071
Mof_H 	H 	0.0011	0.6673	0.3792	0.005
Mof_C 	C 	0.06001	0.7665	0.3549	-0.163
Mof_H 	H 	0.0826	0.7191	0.3312	0.081
Mof_C 	C 	0.07591	0.8675	0.36088	0.113
Mof_C 	C 	0.04053	0.9369	0.393	-0.162
Mof_H 	H 	0.0498	0.0054	0.3959	0.084
Mof_C 	C 	0.99133	0.9051	0.4211	0.068
Mof_H 	H 	0.9678	0.9528	0.4418	0.014
Mof_C 	C 	0.13064	0.8994	0.33713	-0.097
Mof_C 	C 	0.15293	0.8527	0.26502	0.066
Mof_H 	H 	0.1323	0.805	0.2298	0.019
Mof_C 	C 	0.20547	0.8763	0.24499	-0.197
Mof_C 	C 	0.23686	0.9453	0.29873	0.117
Mof_H 	H 	0.2727	0.9584	0.288	-0.005
Mof_C 	C 	0.21459	0.99502	0.36875	-0.197
Mof_C 	C 	0.16142	0.9734	0.38653	0.058
Mof_H 	H 	0.1463	0.0087	0.4319	0.006
Mof_C 	C 	0.2488	0.0699	0.42539	0.458
Mof_C 	C 	0.2269	0.8259	0.16508	0.503
Mof_O 	O 	0.91271	0.67832	0.4555	-0.458
Mof_O 	O 	0.89852	0.83526	0.49519	-0.456
Mof_O 	O 	0.22587	0.14483	0.45994	-0.624
Mof_O 	O 	0.29918	0.05726	0.43821	-0.496
Mof_O 	O 	0.2741	0.84945	0.14743	-0.563
Mof_O 	O 	0.19594	0.76352	0.12207	-0.525
Mof_Sm	Sm	0.67172	0.2076	0.96994	2.079
Mof_C 	C 	0.42623	0.7287	0.9586	0.341
Mof_C 	C 	0.47681	0.6958	0.9188	-0.138
Mof_C 	C 	0.51102	0.7647	0.8836	0.07
Mof_H 	H 	0.5011	0.8327	0.8792	0.005
Mof_C 	C 	0.56001	0.7335	0.8549	-0.162
Mof_H 	H 	0.5826	0.7809	0.8312	0.081
Mof_C 	C 	0.57591	0.6325	0.86088	0.112
Mof_C 	C 	0.54053	0.5631	0.893	-0.162
Mof_H 	H 	0.5498	0.4946	0.8959	0.083
Mof_C 	C 	0.49133	0.5949	0.9211	0.068
Mof_H 	H 	0.4678	0.5472	0.9418	0.014
Mof_C 	C 	0.63064	0.6006	0.83713	-0.096
Mof_C 	C 	0.65293	0.6473	0.76502	0.066
Mof_H 	H 	0.6323	0.695	0.7298	0.019
Mof_C 	C 	0.70547	0.6237	0.74499	-0.197
Mof_C 	C 	0.73686	0.5547	0.79873	0.117
Mof_H 	H 	0.7727	0.5416	0.788	-0.005
Mof_C 	C 	0.71459	0.50498	0.86875	-0.196
Mof_C 	C 	0.66142	0.5266	0.88653	0.058
Mof_H 	H 	0.6463	0.4913	0.9319	0.006
Mof_C 	C 	0.7488	0.4301	0.92539	0.458
Mof_C 	C 	0.7269	0.6741	0.66508	0.503
Mof_O 	O 	0.41271	0.82168	0.9555	-0.458
Mof_O 	O 	0.39852	0.66474	0.99519	-0.456
Mof_O 	O 	0.72587	0.35517	0.95994	-0.624
Mof_O 	O 	0.79918	0.44274	0.93821	-0.495
Mof_O 	O 	0.7741	0.65055	0.64743	-0.563
Mof_O 	O 	0.69594	0.73648	0.62207	-0.525
Mof_Sm	Sm	0.17172	0.7076	0.96995	2.075
Mof_C 	C 	0.92623	0.2287	0.9586	0.341
Mof_C 	C 	0.97681	0.1958	0.9188	-0.137
Mof_C 	C 	0.01102	0.2647	0.8836	0.068
Mof_H 	H 	0.0011	0.3327	0.8792	0.005
Mof_C 	C 	0.06001	0.2335	0.8549	-0.163
Mof_H 	H 	0.0826	0.2809	0.8312	0.081
Mof_C 	C 	0.07591	0.1325	0.86088	0.114
Mof_C 	C 	0.04053	0.0631	0.893	-0.166
Mof_H 	H 	0.0498	0.9946	0.8959	0.085
Mof_C 	C 	0.99133	0.0949	0.9211	0.071
Mof_H 	H 	0.9678	0.0472	0.9418	0.013
Mof_C 	C 	0.13064	0.1006	0.83713	-0.097
Mof_C 	C 	0.15293	0.1473	0.76502	0.066
Mof_H 	H 	0.1323	0.195	0.7298	0.019
Mof_C 	C 	0.20547	0.1237	0.74499	-0.198
Mof_C 	C 	0.23686	0.0547	0.79873	0.117
Mof_H 	H 	0.2727	0.0416	0.788	-0.005
Mof_C 	C 	0.21459	0.00498	0.86875	-0.197
Mof_C 	C 	0.16142	0.0266	0.88653	0.057
Mof_H 	H 	0.1463	0.9913	0.9319	0.006
Mof_C 	C 	0.2488	0.9301	0.92539	0.458
Mof_C 	C 	0.2269	0.1741	0.66508	0.503
Mof_O 	O 	0.91271	0.32168	0.9555	-0.457
Mof_O 	O 	0.89852	0.16474	0.99519	-0.455
Mof_O 	O 	0.22587	0.85517	0.95994	-0.624
Mof_O 	O 	0.29918	0.94274	0.93821	-0.496
Mof_O 	O 	0.2741	0.15055	0.64743	-0.563
Mof_O 	O 	0.19594	0.23648	0.62207	-0.526
Mof_Sm	Sm	0.32828	0.2076	0.53005	2.077
Mof_C 	C 	0.57377	0.7287	0.5414	0.341
Mof_C 	C 	0.52319	0.6958	0.5812	-0.138
Mof_C 	C 	0.48898	0.7647	0.6164	0.07
Mof_H 	H 	0.4989	0.8327	0.6208	0.005
Mof_C 	C 	0.43999	0.7335	0.6451	-0.163
Mof_H 	H 	0.4174	0.7809	0.6688	0.081
Mof_C 	C 	0.42409	0.6325	0.63912	0.112
Mof_C 	C 	0.45947	0.5631	0.607	-0.162
Mof_H 	H 	0.4502	0.4946	0.6041	0.083
Mof_C 	C 	0.50867	0.5949	0.5789	0.068
Mof_H 	H 	0.5322	0.5472	0.5582	0.014
Mof_C 	C 	0.36936	0.6006	0.66287	-0.097
Mof_C 	C 	0.34707	0.6473	0.73498	0.066
Mof_H 	H 	0.3677	0.695	0.7702	0.019
Mof_C 	C 	0.29453	0.6237	0.75501	-0.197
Mof_C 	C 	0.26314	0.5547	0.70127	0.117
Mof_H 	H 	0.2273	0.5416	0.712	-0.005
Mof_C 	C 	0.28541	0.50498	0.63125	-0.196
Mof_C 	C 	0.33858	0.5266	0.61347	0.058
Mof_H 	H 	0.3537	0.4913	0.5681	0.006
Mof_C 	C 	0.2512	0.4301	0.57461	0.458
Mof_C 	C 	0.2731	0.6741	0.83492	0.503
Mof_O 	O 	0.58729	0.82168	0.5445	-0.458
Mof_O 	O 	0.60148	0.66474	0.50481	-0.456
Mof_O 	O 	0.27413	0.35517	0.54006	-0.624
Mof_O 	O 	0.20082	0.44274	0.56179	-0.496
Mof_O 	O 	0.2259	0.65055	0.85257	-0.563
Mof_O 	O 	0.30406	0.73648	0.87793	-0.526
Mof_Sm	Sm	0.82827	0.7076	0.53005	2.078
Mof_C 	C 	0.07377	0.2287	0.5414	0.341
Mof_C 	C 	0.02319	0.1958	0.5812	-0.139
Mof_C 	C 	0.98898	0.2647	0.6164	0.071
Mof_H 	H 	0.9989	0.3327	0.6208	0.005
Mof_C 	C 	0.93999	0.2335	0.6451	-0.163
Mof_H 	H 	0.9174	0.2809	0.6688	0.081
Mof_C 	C 	0.92409	0.1325	0.63912	0.113
Mof_C 	C 	0.95947	0.0631	0.607	-0.162
Mof_H 	H 	0.9502	0.9946	0.6041	0.084
Mof_C 	C 	0.00867	0.0949	0.5789	0.068
Mof_H 	H 	0.0322	0.0472	0.5582	0.014
Mof_C 	C 	0.86936	0.1006	0.66287	-0.097
Mof_C 	C 	0.84707	0.1473	0.73498	0.066
Mof_H 	H 	0.8677	0.195	0.7702	0.019
Mof_C 	C 	0.79453	0.1237	0.75501	-0.198
Mof_C 	C 	0.76314	0.0547	0.70127	0.117
Mof_H 	H 	0.7273	0.0416	0.712	-0.005
Mof_C 	C 	0.78541	0.00498	0.63125	-0.197
Mof_C 	C 	0.83858	0.0266	0.61347	0.058
Mof_H 	H 	0.8537	0.9913	0.5681	0.006
Mof_C 	C 	0.7512	0.9301	0.57461	0.458
Mof_C 	C 	0.7731	0.1741	0.83492	0.503
Mof_O 	O 	0.08729	0.32168	0.5445	-0.458
Mof_O 	O 	0.10148	0.16474	0.50481	-0.456
Mof_O 	O 	0.77413	0.85517	0.54006	-0.624
Mof_O 	O 	0.70082	0.94274	0.56179	-0.496
Mof_O 	O 	0.7259	0.15055	0.85257	-0.563
Mof_O 	O 	0.80406	0.23648	0.87793	-0.525
_end
