data_functionalizedCrystal
_audit_creation_method	'EQeq! by Chris Wilmer'
_symmetry_space_group_name_H-M	'P1'
_symmetry_Int_Tables_number	1
_symmetry_cell_setting	triclinic
loop_
_symmetry_equiv_pos_as_xyz
  x,y,z
_cell_length_a	17.4047
_cell_length_b	17.9892
_cell_length_c	26.943
_cell_angle_alpha	90
_cell_angle_beta	90
_cell_angle_gamma	106.941
loop_
_atom_site_label
_atom_site_type_symbol
_atom_site_fract_x
_atom_site_fract_y
_atom_site_fract_z
_atom_site_charge
Mof_Mn	Mn	0.32638	0.05275	0.12117	0.609
Mof_Mn	Mn	0.11245	0.02908	0.12949	0.726
Mof_Mn	Mn	0.67362	0.44725	0.62117	0.622
Mof_Mn	Mn	0.88755	0.47092	0.62949	0.758
Mof_Mn	Mn	0.67362	0.94725	0.87883	0.63
Mof_Mn	Mn	0.88755	0.97092	0.87051	0.766
Mof_Mn	Mn	0.32638	0.55275	0.37883	0.619
Mof_Mn	Mn	0.11245	0.52908	0.37051	0.737
Mof_Mn	Mn	-0	0	-0	0.66
Mof_Mn	Mn	-1.05313e-17	0.5	0.5	0.685
Mof_H 	H 	0.3628	0.1591	0.7621	0.121
Mof_H 	H 	0.373	0.0734	0.7624	0.118
Mof_H 	H 	0.3036	0.1592	0.6327	0.12
Mof_H 	H 	0.3196	0.2125	0.6814	0.12
Mof_H 	H 	0.1813	0.0414	0.6281	0.123
Mof_H 	H 	0.1218	0.0191	0.6746	0.124
Mof_H 	H 	0.2524	0.9571	0.7565	0.122
Mof_H 	H 	0.1644	0.9675	0.752	0.123
Mof_H 	H 	0.3221	0.0267	0.6346	0.127
Mof_H 	H 	0.3489	0.9932	0.6847	0.136
Mof_H 	H 	0.2243	0.177	0.7543	0.121
Mof_H 	H 	0.1469	0.1027	0.7511	0.119
Mof_H 	H 	0.122	0.0193	0.8195	0.018
Mof_H 	H 	0.103	0.0064	0.9038	0.046
Mof_H 	H 	0.3409	0.1085	0.9249	0.051
Mof_H 	H 	0.3593	0.1203	0.8404	0.023
Mof_H 	H 	0.4629	0.0628	0.6403	0.021
Mof_H 	H 	0.5971	0.1287	0.6241	0.055
Mof_H 	H 	0.5733	0.3168	0.6974	0.029
Mof_H 	H 	0.4407	0.2503	0.7143	0.019
Mof_H 	H 	0.1312	0.2181	0.7257	0.016
Mof_H 	H 	0.0747	0.3078	0.6911	0.057
Mof_H 	H 	0.1141	0.2359	0.5553	0.062
Mof_H 	H 	0.1798	0.1537	0.5894	0.015
Mof_H 	H 	0.1603	0.8521	0.7295	0.018
Mof_H 	H 	0.096	0.73	0.6971	0.056
Mof_H 	H 	0.1536	0.8161	0.5587	0.062
Mof_H 	H 	0.2202	0.9365	0.5916	0.022
Mof_H 	H 	0.6372	0.3409	0.2621	0.119
Mof_H 	H 	0.627	0.4266	0.2624	0.118
Mof_H 	H 	0.6964	0.3408	0.1327	0.118
Mof_H 	H 	0.6804	0.2875	0.1814	0.117
Mof_H 	H 	0.8187	0.4586	0.1281	0.124
Mof_H 	H 	0.8782	0.4809	0.1746	0.129
Mof_H 	H 	0.7476	0.5429	0.2565	0.121
Mof_H 	H 	0.8356	0.5325	0.252	0.124
Mof_H 	H 	0.6779	0.4733	0.1346	0.12
Mof_H 	H 	0.6511	0.5068	0.1847	0.12
Mof_H 	H 	0.7757	0.323	0.2543	0.121
Mof_H 	H 	0.8531	0.3973	0.2511	0.123
Mof_H 	H 	0.878	0.4807	0.3195	0.024
Mof_H 	H 	0.897	0.4936	0.4038	0.06
Mof_H 	H 	0.6591	0.3915	0.4249	0.05
Mof_H 	H 	0.6407	0.3797	0.3404	0.02
Mof_H 	H 	0.5371	0.4372	0.1403	0.023
Mof_H 	H 	0.4029	0.3713	0.1241	0.052
Mof_H 	H 	0.4267	0.1832	0.1974	0.025
Mof_H 	H 	0.5593	0.2497	0.2143	0.019
Mof_H 	H 	0.8688	0.2819	0.2257	0.02
Mof_H 	H 	0.9253	0.1922	0.1911	0.061
Mof_H 	H 	0.8859	0.2641	0.0553	0.063
Mof_H 	H 	0.8202	0.3463	0.0894	0.02
Mof_H 	H 	0.8397	0.6479	0.2295	0.02
Mof_H 	H 	0.904	0.77	0.1971	0.059
Mof_H 	H 	0.8464	0.6839	0.0587	0.063
Mof_H 	H 	0.7798	0.5635	0.0916	0.021
Mof_H 	H 	0.6372	0.8409	0.2379	0.119
Mof_H 	H 	0.627	0.9266	0.2376	0.119
Mof_H 	H 	0.6964	0.8408	0.3673	0.118
Mof_H 	H 	0.6804	0.7875	0.3186	0.116
Mof_H 	H 	0.8187	0.9586	0.3719	0.123
Mof_H 	H 	0.8782	0.9809	0.3254	0.128
Mof_H 	H 	0.7476	0.0429	0.2435	0.119
Mof_H 	H 	0.8356	0.0325	0.248	0.122
Mof_H 	H 	0.6779	0.9733	0.3654	0.114
Mof_H 	H 	0.6511	0.0068	0.3153	0.105
Mof_H 	H 	0.7757	0.823	0.2457	0.12
Mof_H 	H 	0.8531	0.8973	0.2489	0.124
Mof_H 	H 	0.878	0.9807	0.1805	0.025
Mof_H 	H 	0.897	0.9936	0.0962	0.064
Mof_H 	H 	0.6591	0.8915	0.0751	0.051
Mof_H 	H 	0.6407	0.8797	0.1596	0.019
Mof_H 	H 	0.5371	0.9372	0.3597	0.027
Mof_H 	H 	0.4029	0.8713	0.3759	0.054
Mof_H 	H 	0.4267	0.6832	0.3026	0.025
Mof_H 	H 	0.5593	0.7497	0.2857	0.021
Mof_H 	H 	0.8688	0.7819	0.2743	0.021
Mof_H 	H 	0.9253	0.6922	0.3089	0.061
Mof_H 	H 	0.8859	0.7641	0.4447	0.066
Mof_H 	H 	0.8202	0.8463	0.4106	0.022
Mof_H 	H 	0.8397	0.1479	0.2705	0.021
Mof_H 	H 	0.904	0.27	0.3029	0.058
Mof_H 	H 	0.8464	0.1839	0.4413	0.063
Mof_H 	H 	0.7798	0.0635	0.4084	0.022
Mof_H 	H 	0.3628	0.6591	0.7379	0.12
Mof_H 	H 	0.373	0.5734	0.7376	0.119
Mof_H 	H 	0.3036	0.6592	0.8673	0.12
Mof_H 	H 	0.3196	0.7125	0.8186	0.119
Mof_H 	H 	0.1813	0.5414	0.8719	0.122
Mof_H 	H 	0.1218	0.5191	0.8254	0.123
Mof_H 	H 	0.2524	0.4571	0.7435	0.12
Mof_H 	H 	0.1644	0.4675	0.748	0.12
Mof_H 	H 	0.3221	0.5267	0.8654	0.121
Mof_H 	H 	0.3489	0.4932	0.8153	0.121
Mof_H 	H 	0.2243	0.677	0.7457	0.121
Mof_H 	H 	0.1469	0.6027	0.7489	0.119
Mof_H 	H 	0.122	0.5193	0.6805	0.019
Mof_H 	H 	0.103	0.5064	0.5962	0.048
Mof_H 	H 	0.3409	0.6085	0.5751	0.05
Mof_H 	H 	0.3593	0.6203	0.6596	0.022
Mof_H 	H 	0.4629	0.5628	0.8597	0.025
Mof_H 	H 	0.5971	0.6287	0.8759	0.056
Mof_H 	H 	0.5733	0.8168	0.8026	0.029
Mof_H 	H 	0.4407	0.7503	0.7857	0.02
Mof_H 	H 	0.1312	0.7181	0.7743	0.016
Mof_H 	H 	0.0747	0.8078	0.8089	0.058
Mof_H 	H 	0.1141	0.7359	0.9447	0.065
Mof_H 	H 	0.1798	0.6537	0.9106	0.018
Mof_H 	H 	0.1603	0.3521	0.7705	0.02
Mof_H 	H 	0.096	0.23	0.8029	0.054
Mof_H 	H 	0.1536	0.3161	0.9413	0.062
Mof_H 	H 	0.2202	0.4365	0.9084	0.022
Mof_C 	C 	0.2528	0.0725	0.764	0.22
Mof_C 	C 	0.3411	0.106	0.7485	-0.333
Mof_C 	C 	0.3494	0.1088	0.6915	0.233
Mof_C 	C 	0.2986	0.1584	0.6693	-0.331
Mof_C 	C 	0.2091	0.126	0.6837	0.23
Mof_C 	C 	0.1787	0.0416	0.6648	-0.347
Mof_C 	C 	0.2282	0.9907	0.6856	0.249
Mof_C 	C 	0.2213	0.9902	0.7424	-0.332
Mof_C 	C 	0.3169	0.0259	0.6712	-0.367
Mof_C 	C 	0.2038	0.1235	0.7411	-0.327
Mof_C 	C 	0.2428	0.0697	0.8201	-0.078
Mof_C 	C 	0.167	0.0371	0.8409	-0.01
Mof_C 	C 	0.1553	0.0302	0.8911	-0.051
Mof_C 	C 	0.2199	0.0577	0.9242	-0.009
Mof_C 	C 	0.2959	0.0904	0.9035	-0.059
Mof_C 	C 	0.307	0.0969	0.8531	-0.012
Mof_C 	C 	0.2116	0.0483	0.9781	0.131
Mof_C 	C 	0.4365	0.1483	0.6782	-0.084
Mof_C 	C 	0.4847	0.1144	0.6522	-0.008
Mof_C 	C 	0.5654	0.1538	0.6425	-0.066
Mof_C 	C 	0.5991	0.228	0.6592	-0.011
Mof_C 	C 	0.5512	0.265	0.686	-0.066
Mof_C 	C 	0.4723	0.2255	0.6956	-0.016
Mof_C 	C 	0.6846	0.2695	0.654	0.109
Mof_C 	C 	0.1631	0.1771	0.6618	-0.096
Mof_C 	C 	0.1295	0.2224	0.6906	0.01
Mof_C 	C 	0.0933	0.2743	0.67	-0.087
Mof_C 	C 	0.0839	0.2779	0.6196	0.026
Mof_C 	C 	0.1178	0.2329	0.5903	-0.087
Mof_C 	C 	0.1569	0.1836	0.6107	0.009
Mof_C 	C 	0.0415	0.332	0.6005	0.082
Mof_C 	C 	0.1927	0.9081	0.6645	-0.088
Mof_C 	C 	0.1578	0.8452	0.6945	0.001
Mof_C 	C 	0.1192	0.7722	0.6754	-0.075
Mof_C 	C 	0.1146	0.7612	0.6237	0.013
Mof_C 	C 	0.1538	0.8233	0.5936	-0.074
Mof_C 	C 	0.193	0.8954	0.6131	0
Mof_C 	C 	0.0675	0.6853	0.6055	0.105
Mof_C 	C 	0.7472	0.4275	0.264	0.225
Mof_C 	C 	0.6589	0.394	0.2485	-0.329
Mof_C 	C 	0.6506	0.3912	0.1915	0.223
Mof_C 	C 	0.7014	0.3416	0.1693	-0.325
Mof_C 	C 	0.7909	0.374	0.1837	0.225
Mof_C 	C 	0.8213	0.4584	0.1648	-0.335
Mof_C 	C 	0.7718	0.5093	0.1856	0.229
Mof_C 	C 	0.7787	0.5098	0.2424	-0.335
Mof_C 	C 	0.6831	0.4741	0.1712	-0.334
Mof_C 	C 	0.7962	0.3765	0.2411	-0.328
Mof_C 	C 	0.7572	0.4303	0.3201	-0.081
Mof_C 	C 	0.833	0.4629	0.3409	-0.003
Mof_C 	C 	0.8447	0.4698	0.3911	-0.059
Mof_C 	C 	0.7801	0.4423	0.4242	0.001
Mof_C 	C 	0.7041	0.4096	0.4035	-0.066
Mof_C 	C 	0.693	0.4031	0.3531	-0.007
Mof_C 	C 	0.7884	0.4517	0.4781	0.113
Mof_C 	C 	0.5635	0.3517	0.1782	-0.078
Mof_C 	C 	0.5153	0.3856	0.1522	-0.013
Mof_C 	C 	0.4346	0.3462	0.1425	-0.063
Mof_C 	C 	0.4009	0.272	0.1592	-0.015
Mof_C 	C 	0.4488	0.235	0.186	-0.063
Mof_C 	C 	0.5277	0.2745	0.1956	-0.021
Mof_C 	C 	0.3154	0.2305	0.154	0.108
Mof_C 	C 	0.8369	0.3229	0.1618	-0.088
Mof_C 	C 	0.8705	0.2776	0.1906	0.004
Mof_C 	C 	0.9067	0.2257	0.17	-0.073
Mof_C 	C 	0.9161	0.2221	0.1196	0.014
Mof_C 	C 	0.8822	0.2671	0.0903	-0.074
Mof_C 	C 	0.8431	0.3164	0.1107	0.003
Mof_C 	C 	0.9585	0.168	0.1005	0.127
Mof_C 	C 	0.8073	0.5919	0.1645	-0.082
Mof_C 	C 	0.8422	0.6548	0.1945	-0
Mof_C 	C 	0.8808	0.7278	0.1754	-0.073
Mof_C 	C 	0.8854	0.7388	0.1237	0.015
Mof_C 	C 	0.8462	0.6767	0.0936	-0.072
Mof_C 	C 	0.807	0.6046	0.1131	-0.002
Mof_C 	C 	0.9325	0.8147	0.1055	0.11
Mof_C 	C 	0.7472	0.9275	0.236	0.229
Mof_C 	C 	0.6589	0.894	0.2515	-0.326
Mof_C 	C 	0.6506	0.8912	0.3085	0.214
Mof_C 	C 	0.7014	0.8416	0.3307	-0.32
Mof_C 	C 	0.7909	0.874	0.3163	0.221
Mof_C 	C 	0.8213	0.9584	0.3352	-0.321
Mof_C 	C 	0.7718	0.0093	0.3144	0.21
Mof_C 	C 	0.7787	0.0098	0.2576	-0.335
Mof_C 	C 	0.6831	0.9741	0.3288	-0.303
Mof_C 	C 	0.7962	0.8765	0.2589	-0.327
Mof_C 	C 	0.7572	0.9303	0.1799	-0.083
Mof_C 	C 	0.833	0.9629	0.1591	0.002
Mof_C 	C 	0.8447	0.9698	0.1089	-0.064
Mof_C 	C 	0.7801	0.9423	0.0758	0.008
Mof_C 	C 	0.7041	0.9096	0.0965	-0.07
Mof_C 	C 	0.693	0.9031	0.1469	-0.003
Mof_C 	C 	0.7884	0.9517	0.0219	0.098
Mof_C 	C 	0.5635	0.8517	0.3218	-0.072
Mof_C 	C 	0.5153	0.8856	0.3478	-0.015
Mof_C 	C 	0.4346	0.8462	0.3575	-0.06
Mof_C 	C 	0.4009	0.772	0.3408	-0.015
Mof_C 	C 	0.4488	0.735	0.314	-0.061
Mof_C 	C 	0.5277	0.7745	0.3044	-0.023
Mof_C 	C 	0.3154	0.7305	0.346	0.11
Mof_C 	C 	0.8369	0.8229	0.3382	-0.086
Mof_C 	C 	0.8705	0.7776	0.3094	0.004
Mof_C 	C 	0.9067	0.7257	0.33	-0.072
Mof_C 	C 	0.9161	0.7221	0.3804	0.015
Mof_C 	C 	0.8822	0.7671	0.4097	-0.073
Mof_C 	C 	0.8431	0.8164	0.3893	0.003
Mof_C 	C 	0.9585	0.668	0.3995	0.127
Mof_C 	C 	0.8073	0.0919	0.3355	-0.076
Mof_C 	C 	0.8422	0.1548	0.3055	-0.005
Mof_C 	C 	0.8808	0.2278	0.3246	-0.07
Mof_C 	C 	0.8854	0.2388	0.3763	0.014
Mof_C 	C 	0.8462	0.1767	0.4064	-0.069
Mof_C 	C 	0.807	0.1046	0.3869	-0.007
Mof_C 	C 	0.9325	0.3147	0.3945	0.111
Mof_C 	C 	0.2528	0.5725	0.736	0.224
Mof_C 	C 	0.3411	0.606	0.7515	-0.329
Mof_C 	C 	0.3494	0.6088	0.8085	0.223
Mof_C 	C 	0.2986	0.6584	0.8307	-0.326
Mof_C 	C 	0.2091	0.626	0.8163	0.225
Mof_C 	C 	0.1787	0.5416	0.8352	-0.332
Mof_C 	C 	0.2282	0.4907	0.8144	0.227
Mof_C 	C 	0.2213	0.4902	0.7576	-0.332
Mof_C 	C 	0.3169	0.5259	0.8288	-0.334
Mof_C 	C 	0.2038	0.6235	0.7589	-0.326
Mof_C 	C 	0.2428	0.5697	0.6799	-0.08
Mof_C 	C 	0.167	0.5371	0.6591	-0.006
Mof_C 	C 	0.1553	0.5302	0.6089	-0.056
Mof_C 	C 	0.2199	0.5577	0.5758	-0.002
Mof_C 	C 	0.2959	0.5904	0.5965	-0.064
Mof_C 	C 	0.307	0.5969	0.6469	-0.009
Mof_C 	C 	0.2116	0.5483	0.5219	0.112
Mof_C 	C 	0.4365	0.6483	0.8218	-0.078
Mof_C 	C 	0.4847	0.6144	0.8478	-0.01
Mof_C 	C 	0.5654	0.6538	0.8575	-0.063
Mof_C 	C 	0.5991	0.728	0.8408	-0.012
Mof_C 	C 	0.5512	0.765	0.814	-0.063
Mof_C 	C 	0.4723	0.7255	0.8044	-0.019
Mof_C 	C 	0.6846	0.7695	0.846	0.111
Mof_C 	C 	0.1631	0.6771	0.8382	-0.093
Mof_C 	C 	0.1295	0.7224	0.8094	0.009
Mof_C 	C 	0.0933	0.7743	0.83	-0.085
Mof_C 	C 	0.0839	0.7779	0.8804	0.026
Mof_C 	C 	0.1178	0.7329	0.9097	-0.085
Mof_C 	C 	0.1569	0.6836	0.8893	0.008
Mof_C 	C 	0.0415	0.832	0.8995	0.085
Mof_C 	C 	0.1927	0.4081	0.8355	-0.081
Mof_C 	C 	0.1578	0.3452	0.8055	-0.004
Mof_C 	C 	0.1192	0.2722	0.8246	-0.073
Mof_C 	C 	0.1146	0.2612	0.8763	0.012
Mof_C 	C 	0.1538	0.3233	0.9064	-0.071
Mof_C 	C 	0.193	0.3954	0.8869	-0.005
Mof_C 	C 	0.0675	0.1853	0.8945	0.106
Mof_N 	N 	0.1437	0.0324	0.00574	-0.148
Mof_N 	N 	0.1695	0.0326	0.05261	-0.109
Mof_N 	N 	0.2482	0.0489	0.053	-0.11
Mof_N 	N 	0.2765	0.0597	0.00726	-0.12
Mof_N 	N 	0.7159	0.345	0.6466	-0.155
Mof_N 	N 	0.7961	0.3588	0.6469	-0.115
Mof_N 	N 	0.8114	0.2903	0.6525	-0.045
Mof_N 	N 	0.7426	0.2356	0.6583	-0.087
Mof_N 	N 	0.9949	0.3603	0.6293	-0.084
Mof_N 	N 	0.9674	0.4057	0.5993	-0.116
Mof_N 	N 	0.9964	0.4048	0.5552	-0.091
Mof_N 	N 	0.0448	0.3586	0.5535	-0.102
Mof_N 	N 	0.0702	0.6583	0.5593	-0.095
Mof_N 	N 	0.0137	0.5888	0.5599	-0.122
Mof_N 	N 	0.9797	0.5766	0.6042	-0.093
Mof_N 	N 	0.012	0.6362	0.6336	-0.107
Mof_N 	N 	0.8563	0.4676	0.50574	-0.133
Mof_N 	N 	0.8305	0.4674	0.55261	-0.106
Mof_N 	N 	0.7518	0.4511	0.553	-0.108
Mof_N 	N 	0.7235	0.4403	0.50726	-0.11
Mof_N 	N 	0.2841	0.155	0.1466	-0.156
Mof_N 	N 	0.2039	0.1412	0.1469	-0.116
Mof_N 	N 	0.1886	0.2097	0.1525	-0.051
Mof_N 	N 	0.2574	0.2644	0.1583	-0.091
Mof_N 	N 	0.0051	0.1397	0.1293	-0.122
Mof_N 	N 	0.0326	0.0943	0.0993	-0.123
Mof_N 	N 	0.0036	0.0952	0.0552	-0.119
Mof_N 	N 	0.9552	0.1414	0.0535	-0.088
Mof_N 	N 	0.9298	0.8417	0.0593	-0.092
Mof_N 	N 	0.9863	0.9112	0.0599	-0.093
Mof_N 	N 	0.0203	0.9234	0.1042	-0.126
Mof_N 	N 	0.988	0.8638	0.1336	-0.083
Mof_N 	N 	0.8563	0.9676	0.99426	-0.122
Mof_N 	N 	0.8305	0.9674	0.94739	-0.104
Mof_N 	N 	0.7518	0.9511	0.947	-0.107
Mof_N 	N 	0.7235	0.9403	0.99274	-0.101
Mof_N 	N 	0.2841	0.655	0.3534	-0.156
Mof_N 	N 	0.2039	0.6412	0.3531	-0.116
Mof_N 	N 	0.1886	0.7097	0.3475	-0.05
Mof_N 	N 	0.2574	0.7644	0.3417	-0.09
Mof_N 	N 	0.0051	0.6397	0.3707	-0.12
Mof_N 	N 	0.0326	0.5943	0.4007	-0.122
Mof_N 	N 	0.0036	0.5952	0.4448	-0.118
Mof_N 	N 	0.9552	0.6414	0.4465	-0.085
Mof_N 	N 	0.9298	0.3417	0.4407	-0.091
Mof_N 	N 	0.9863	0.4112	0.4401	-0.094
Mof_N 	N 	0.0203	0.4234	0.3958	-0.132
Mof_N 	N 	0.988	0.3638	0.3664	-0.083
Mof_N 	N 	0.1437	0.5324	0.49426	-0.139
Mof_N 	N 	0.1695	0.5326	0.44739	-0.108
Mof_N 	N 	0.2482	0.5489	0.447	-0.108
Mof_N 	N 	0.2765	0.5597	0.49274	-0.11
Mof_N 	N 	0.7159	0.845	0.8534	-0.155
Mof_N 	N 	0.7961	0.8588	0.8531	-0.115
Mof_N 	N 	0.8114	0.7903	0.8475	-0.044
Mof_N 	N 	0.7426	0.7356	0.8417	-0.087
Mof_N 	N 	0.9949	0.8603	0.8707	-0.085
Mof_N 	N 	0.9674	0.9057	0.9007	-0.115
Mof_N 	N 	0.9964	0.9048	0.9448	-0.086
Mof_N 	N 	0.0448	0.8586	0.9465	-0.098
Mof_N 	N 	0.0702	0.1583	0.9407	-0.093
Mof_N 	N 	0.0137	0.0888	0.9401	-0.119
Mof_N 	N 	0.9797	0.0766	0.8958	-0.094
Mof_N 	N 	0.012	0.1362	0.8664	-0.108
Mof_Cl	Cl	0.20506	0.957	0.15654	-0.505
Mof_Cl	Cl	0.79494	0.543	0.65654	-0.504
Mof_Cl	Cl	0.79494	0.043	0.84346	-0.511
Mof_Cl	Cl	0.20506	0.457	0.34346	-0.517
_end
