data_functionalizedCrystal
_audit_creation_method	'EQeq! by Chris Wilmer'
_symmetry_space_group_name_H-M	'P1'
_symmetry_Int_Tables_number	1
_symmetry_cell_setting	triclinic
loop_
_symmetry_equiv_pos_as_xyz
  x,y,z
_cell_length_a	25.167
_cell_length_b	23.2
_cell_length_c	17.102
_cell_angle_alpha	90
_cell_angle_beta	93.561
_cell_angle_gamma	90
loop_
_atom_site_label
_atom_site_type_symbol
_atom_site_fract_x
_atom_site_fract_y
_atom_site_fract_z
_atom_site_charge
Mof_Zn	Zn	0.14745	0.06699	0.31645	1.212
Mof_S 	S 	0.2623	0.901	0.8279	0.369
Mof_O 	O 	0.03625	0.06726	0.2048	-0.497
Mof_O 	O 	0.08427	0.11516	0.299	-0.504
Mof_O 	O 	0.7459	0.4328	0.2207	-0.535
Mof_O 	O 	0.70692	0.38118	0.3105	-0.494
Mof_O 	O 	0.15168	0.0485	0.428	-0.51
Mof_O 	O 	0.2695	0.8841	0.9179	-0.211
Mof_O 	O 	0.2313	0.8524	0.7812	-0.221
Mof_C 	C 	0.0433	0.1067	0.2556	0.387
Mof_C 	C 	0.99953	0.1497	0.2596	-0.098
Mof_C 	C 	0.95301	0.1441	0.212	0.022
Mof_H 	H 	0.9493	0.1132	0.1755	0.051
Mof_C 	C 	0.91194	0.1836	0.2177	-0.087
Mof_H 	H 	0.8801	0.1798	0.1851	0.076
Mof_C 	C 	0.9174	0.2288	0.271	0.021
Mof_C 	C 	0.9639	0.2344	0.3186	-0.016
Mof_C 	C 	0.005	0.1949	0.3129	-0.01
Mof_H 	H 	0.0368	0.1987	0.3454	0.051
Mof_C 	C 	0.87094	0.269	0.27481	0.022
Mof_C 	C 	0.86824	0.3116	0.2175	-0.087
Mof_H 	H 	0.8951	0.314	0.181	0.064
Mof_C 	C 	0.82624	0.35058	0.2136	0.033
Mof_H 	H 	0.8244	0.3797	0.1745	0.032
Mof_C 	C 	0.78695	0.34703	0.2671	-0.113
Mof_C 	C 	0.78965	0.30447	0.3244	0
Mof_H 	H 	0.7628	0.302	0.3609	0.052
Mof_C 	C 	0.83165	0.26545	0.3283	-0.006
Mof_C 	C 	0.74517	0.39171	0.2685	0.405
Mof_C 	C 	0.15215	0.0472	0.5907	0.211
Mof_H 	H 	0.1553	0.0829	0.5642	-0.02
Mof_C 	C 	0.14867	0.0482	0.66923	-0.263
Mof_H 	H 	0.1466	0.0842	0.6952	0.135
Mof_C 	C 	0.14252	0.9972	0.7973	-0.069
Mof_C 	C 	0.09272	0.0061	0.826	-0.086
Mof_H 	H 	0.0622	0.0093	0.7908	-0.444
Mof_C 	C 	0.08762	0.0102	0.9063	0.012
Mof_H 	H 	0.0536	0.0162	0.926	0.015
Mof_C 	C 	0.13234	0.0053	0.9578	0.046
Mof_C 	C 	0.18214	0.9964	0.9291	-0.083
Mof_H 	H 	0.2127	0.9932	0.9643	-0.053
Mof_C 	C 	0.18723	0.9923	0.8488	-0.027
Mof_C 	C 	0.1294	0.0076	0.0443	0.221
Mof_C 	C 	0.2334	0.9749	0.8142	-0.015
Mof_C 	C 	0.3249	0.8987	0.8023	-0.63
Mof_H 	H 	0.3447	0.8696	0.834	0.225
Mof_H 	H 	0.3416	0.9365	0.8112	0.207
Mof_H 	H 	0.3255	0.8885	0.7467	0.217
Mof_Zn	Zn	0.64745	0.56699	0.31645	1.214
Mof_S 	S 	0.7623	0.401	0.8279	0.378
Mof_O 	O 	0.53625	0.56726	0.2048	-0.5
Mof_O 	O 	0.58427	0.61516	0.299	-0.502
Mof_O 	O 	0.2459	0.9328	0.2207	-0.524
Mof_O 	O 	0.20692	0.88118	0.3105	-0.49
Mof_O 	O 	0.65168	0.5485	0.428	-0.512
Mof_O 	O 	0.7695	0.3841	0.9179	-0.217
Mof_O 	O 	0.7313	0.3524	0.7812	-0.222
Mof_C 	C 	0.5433	0.6067	0.2556	0.388
Mof_C 	C 	0.49953	0.6497	0.2596	-0.104
Mof_C 	C 	0.45301	0.6441	0.212	0.026
Mof_H 	H 	0.4493	0.6132	0.1755	0.037
Mof_C 	C 	0.41194	0.6836	0.2177	-0.092
Mof_H 	H 	0.3801	0.6798	0.1851	0.077
Mof_C 	C 	0.4174	0.7288	0.271	0.023
Mof_C 	C 	0.4639	0.7344	0.3186	-0.016
Mof_C 	C 	0.505	0.6949	0.3129	-0.007
Mof_H 	H 	0.5368	0.6987	0.3454	0.051
Mof_C 	C 	0.37094	0.769	0.27481	0.021
Mof_C 	C 	0.36824	0.8116	0.2175	-0.085
Mof_H 	H 	0.3951	0.814	0.181	0.065
Mof_C 	C 	0.32624	0.85058	0.2136	0.032
Mof_H 	H 	0.3244	0.8797	0.1745	0.035
Mof_C 	C 	0.28695	0.84703	0.2671	-0.11
Mof_C 	C 	0.28965	0.80447	0.3244	-0.001
Mof_H 	H 	0.2628	0.802	0.3609	0.053
Mof_C 	C 	0.33165	0.76545	0.3283	-0.005
Mof_C 	C 	0.24517	0.89171	0.2685	0.405
Mof_C 	C 	0.65215	0.5472	0.5907	0.229
Mof_H 	H 	0.6553	0.5829	0.5642	-0.026
Mof_C 	C 	0.64867	0.5482	0.66923	-0.291
Mof_H 	H 	0.6466	0.5842	0.6952	0.141
Mof_C 	C 	0.64252	0.4972	0.7973	-0.035
Mof_C 	C 	0.59272	0.5061	0.826	-0.009
Mof_H 	H 	0.5622	0.5093	0.7908	0.02
Mof_C 	C 	0.58762	0.5102	0.9063	-0.02
Mof_H 	H 	0.5536	0.5162	0.926	0.036
Mof_C 	C 	0.63234	0.5053	0.9578	-0.015
Mof_C 	C 	0.68214	0.4964	0.9291	-0.022
Mof_H 	H 	0.7127	0.4932	0.9643	0.032
Mof_C 	C 	0.68723	0.4923	0.8488	0.029
Mof_C 	C 	0.6294	0.5076	0.0443	0.142
Mof_C 	C 	0.7334	0.4749	0.8142	-0.061
Mof_C 	C 	0.8249	0.3987	0.8023	-0.631
Mof_H 	H 	0.8447	0.3696	0.834	0.223
Mof_H 	H 	0.8416	0.4365	0.8112	0.204
Mof_H 	H 	0.8255	0.3885	0.7467	0.216
Mof_Zn	Zn	0.14745	0.93301	0.31645	1.217
Mof_S 	S 	0.2623	0.099	0.8279	0.385
Mof_O 	O 	0.03625	0.93274	0.2048	-0.5
Mof_O 	O 	0.08427	0.88484	0.299	-0.5
Mof_O 	O 	0.7459	0.5672	0.2207	-0.533
Mof_O 	O 	0.70692	0.61882	0.3105	-0.492
Mof_O 	O 	0.15168	0.9515	0.428	-0.495
Mof_O 	O 	0.2695	0.1159	0.9179	-0.223
Mof_O 	O 	0.2313	0.1476	0.7812	-0.224
Mof_C 	C 	0.0433	0.8933	0.2556	0.389
Mof_C 	C 	0.99953	0.8503	0.2596	-0.111
Mof_C 	C 	0.95301	0.8559	0.212	0.031
Mof_H 	H 	0.9493	0.8868	0.1755	0.024
Mof_C 	C 	0.91194	0.8164	0.2177	-0.097
Mof_H 	H 	0.8801	0.8202	0.1851	0.079
Mof_C 	C 	0.9174	0.7712	0.271	0.025
Mof_C 	C 	0.9639	0.7656	0.3186	-0.02
Mof_C 	C 	0.005	0.8051	0.3129	-0.003
Mof_H 	H 	0.0368	0.8013	0.3454	0.05
Mof_C 	C 	0.87094	0.731	0.27481	0.02
Mof_C 	C 	0.86824	0.6884	0.2175	-0.086
Mof_H 	H 	0.8951	0.686	0.181	0.064
Mof_C 	C 	0.82624	0.64942	0.2136	0.032
Mof_H 	H 	0.8244	0.6203	0.1745	0.032
Mof_C 	C 	0.78695	0.65297	0.2671	-0.112
Mof_C 	C 	0.78965	0.69553	0.3244	-0
Mof_H 	H 	0.7628	0.698	0.3609	0.053
Mof_C 	C 	0.83165	0.73455	0.3283	-0.005
Mof_C 	C 	0.74517	0.60829	0.2685	0.405
Mof_C 	C 	0.15215	0.9528	0.5907	0.23
Mof_H 	H 	0.1553	0.9171	0.5642	-0.024
Mof_C 	C 	0.14867	0.9518	0.66923	-0.255
Mof_H 	H 	0.1466	0.9158	0.6952	0.127
Mof_C 	C 	0.14252	0.0028	0.7973	0.015
Mof_C 	C 	0.09272	0.9939	0.826	0.063
Mof_H 	H 	0.0622	0.9907	0.7908	0.486
Mof_C 	C 	0.08762	0.9898	0.9063	-0.05
Mof_H 	H 	0.0536	0.9838	0.926	0.057
Mof_C 	C 	0.13234	0.9947	0.9578	-0.079
Mof_C 	C 	0.18214	0.0036	0.9291	0.041
Mof_H 	H 	0.2127	0.0068	0.9643	0.116
Mof_C 	C 	0.18723	0.0077	0.8488	0.08
Mof_C 	C 	0.1294	0.9924	0.0443	0.078
Mof_C 	C 	0.2334	0.0251	0.8142	-0.105
Mof_C 	C 	0.3249	0.1013	0.8023	-0.634
Mof_H 	H 	0.3447	0.1304	0.834	0.223
Mof_H 	H 	0.3416	0.0635	0.8112	0.201
Mof_H 	H 	0.3255	0.1115	0.7467	0.215
Mof_Zn	Zn	0.64745	0.43301	0.31645	1.214
Mof_S 	S 	0.7623	0.599	0.8279	0.378
Mof_O 	O 	0.53625	0.43274	0.2048	-0.501
Mof_O 	O 	0.58427	0.38484	0.299	-0.502
Mof_O 	O 	0.2459	0.0672	0.2207	-0.537
Mof_O 	O 	0.20692	0.11882	0.3105	-0.494
Mof_O 	O 	0.65168	0.4515	0.428	-0.512
Mof_O 	O 	0.7695	0.6159	0.9179	-0.217
Mof_O 	O 	0.7313	0.6476	0.7812	-0.222
Mof_C 	C 	0.5433	0.3933	0.2556	0.389
Mof_C 	C 	0.49953	0.3503	0.2596	-0.105
Mof_C 	C 	0.45301	0.3559	0.212	0.026
Mof_H 	H 	0.4493	0.3868	0.1755	0.037
Mof_C 	C 	0.41194	0.3164	0.2177	-0.093
Mof_H 	H 	0.3801	0.3202	0.1851	0.077
Mof_C 	C 	0.4174	0.2712	0.271	0.023
Mof_C 	C 	0.4639	0.2656	0.3186	-0.019
Mof_C 	C 	0.505	0.3051	0.3129	-0.006
Mof_H 	H 	0.5368	0.3013	0.3454	0.05
Mof_C 	C 	0.37094	0.231	0.27481	0.021
Mof_C 	C 	0.36824	0.1884	0.2175	-0.088
Mof_H 	H 	0.3951	0.186	0.181	0.063
Mof_C 	C 	0.32624	0.14942	0.2136	0.032
Mof_H 	H 	0.3244	0.1203	0.1745	0.03
Mof_C 	C 	0.28695	0.15297	0.2671	-0.114
Mof_C 	C 	0.28965	0.19553	0.3244	0
Mof_H 	H 	0.2628	0.198	0.3609	0.052
Mof_C 	C 	0.33165	0.23455	0.3283	-0.007
Mof_C 	C 	0.24517	0.10829	0.2685	0.405
Mof_C 	C 	0.65215	0.4528	0.5907	0.229
Mof_H 	H 	0.6553	0.4171	0.5642	-0.026
Mof_C 	C 	0.64867	0.4518	0.66923	-0.291
Mof_H 	H 	0.6466	0.4158	0.6952	0.141
Mof_C 	C 	0.64252	0.5028	0.7973	-0.035
Mof_C 	C 	0.59272	0.4939	0.826	-0.009
Mof_H 	H 	0.5622	0.4907	0.7908	0.02
Mof_C 	C 	0.58762	0.4898	0.9063	-0.02
Mof_H 	H 	0.5536	0.4838	0.926	0.036
Mof_C 	C 	0.63234	0.4947	0.9578	-0.015
Mof_C 	C 	0.68214	0.5036	0.9291	-0.023
Mof_H 	H 	0.7127	0.5068	0.9643	0.032
Mof_C 	C 	0.68723	0.5077	0.8488	0.029
Mof_C 	C 	0.6294	0.4924	0.0443	0.142
Mof_C 	C 	0.7334	0.5251	0.8142	-0.062
Mof_C 	C 	0.8249	0.6013	0.8023	-0.632
Mof_H 	H 	0.8447	0.6304	0.834	0.224
Mof_H 	H 	0.8416	0.5635	0.8112	0.204
Mof_H 	H 	0.8255	0.6115	0.7467	0.216
Mof_Zn	Zn	0.08059	1.26647e-33	0.18451	1.207
Mof_Zn	Zn	0.20782	0	0.18385	1.218
Mof_O 	O 	0.14548	0	0.2509	-0.965
Mof_O 	O 	0.1744	0	0.0847	-0.522
Mof_O 	O 	0.084	0	0.0719	-0.463
Mof_C 	C 	0.15205	2.53293e-33	0.46133	0.426
Mof_C 	C 	0.15137	0	0.54919	-0.289
Mof_C 	C 	0.14806	5.06586e-33	0.71084	0.174
Mof_Zn	Zn	0.58059	0.5	0.18451	1.21
Mof_Zn	Zn	0.70782	0.5	0.18385	1.221
Mof_O 	O 	0.64548	0.5	0.2509	-0.958
Mof_O 	O 	0.6744	0.5	0.0847	-0.51
Mof_O 	O 	0.584	0.5	0.0719	-0.45
Mof_C 	C 	0.65205	0.5	0.46133	0.447
Mof_C 	C 	0.65137	0.5	0.54919	-0.287
Mof_C 	C 	0.64806	0.5	0.71084	0.219
Mof_Zn	Zn	0.85255	0.06699	0.68355	1.213
Mof_S 	S 	0.7377	0.901	0.1721	0.37
Mof_O 	O 	0.96375	0.06726	0.7952	-0.496
Mof_O 	O 	0.91573	0.11516	0.701	-0.503
Mof_O 	O 	0.2541	0.4328	0.7793	-0.534
Mof_O 	O 	0.29308	0.38118	0.6895	-0.493
Mof_O 	O 	0.84832	0.0485	0.572	-0.509
Mof_O 	O 	0.7305	0.8841	0.0821	-0.21
Mof_O 	O 	0.7687	0.8524	0.2188	-0.22
Mof_C 	C 	0.9567	0.1067	0.7444	0.388
Mof_C 	C 	0.00047	0.1497	0.7404	-0.098
Mof_C 	C 	0.04699	0.1441	0.788	0.022
Mof_H 	H 	0.0507	0.1132	0.8245	0.051
Mof_C 	C 	0.08806	0.1836	0.7823	-0.087
Mof_H 	H 	0.1199	0.1798	0.8149	0.076
Mof_C 	C 	0.0826	0.2288	0.729	0.021
Mof_C 	C 	0.0361	0.2344	0.6814	-0.016
Mof_C 	C 	0.995	0.1949	0.6871	-0.01
Mof_H 	H 	0.9632	0.1987	0.6546	0.051
Mof_C 	C 	0.12906	0.269	0.72519	0.022
Mof_C 	C 	0.13176	0.3116	0.7825	-0.087
Mof_H 	H 	0.1049	0.314	0.819	0.064
Mof_C 	C 	0.17376	0.35058	0.7864	0.033
Mof_H 	H 	0.1756	0.3797	0.8255	0.032
Mof_C 	C 	0.21305	0.34703	0.7329	-0.113
Mof_C 	C 	0.21035	0.30447	0.6756	0
Mof_H 	H 	0.2372	0.302	0.6391	0.052
Mof_C 	C 	0.16835	0.26545	0.6717	-0.006
Mof_C 	C 	0.25483	0.39171	0.7315	0.405
Mof_C 	C 	0.84785	0.0472	0.4093	0.211
Mof_H 	H 	0.8447	0.0829	0.4358	-0.02
Mof_C 	C 	0.85133	0.0482	0.33077	-0.263
Mof_H 	H 	0.8534	0.0842	0.3048	0.135
Mof_C 	C 	0.85748	0.9972	0.2027	-0.069
Mof_C 	C 	0.90728	0.0061	0.174	-0.086
Mof_H 	H 	0.9378	0.0093	0.2092	-0.444
Mof_C 	C 	0.91238	0.0102	0.0937	0.012
Mof_H 	H 	0.9464	0.0162	0.074	0.015
Mof_C 	C 	0.86766	0.0053	0.0422	0.046
Mof_C 	C 	0.81786	0.9964	0.0709	-0.083
Mof_H 	H 	0.7873	0.9932	0.0357	-0.053
Mof_C 	C 	0.81277	0.9923	0.1512	-0.027
Mof_C 	C 	0.8706	0.0076	0.9557	0.221
Mof_C 	C 	0.7666	0.9749	0.1858	-0.015
Mof_C 	C 	0.6751	0.8987	0.1977	-0.63
Mof_H 	H 	0.6553	0.8696	0.166	0.225
Mof_H 	H 	0.6584	0.9365	0.1888	0.207
Mof_H 	H 	0.6745	0.8885	0.2533	0.217
Mof_Zn	Zn	0.35255	0.56699	0.68355	1.214
Mof_S 	S 	0.2377	0.401	0.1721	0.378
Mof_O 	O 	0.46375	0.56726	0.7952	-0.5
Mof_O 	O 	0.41573	0.61516	0.701	-0.502
Mof_O 	O 	0.7541	0.9328	0.7793	-0.524
Mof_O 	O 	0.79308	0.88118	0.6895	-0.49
Mof_O 	O 	0.34832	0.5485	0.572	-0.512
Mof_O 	O 	0.2305	0.3841	0.0821	-0.217
Mof_O 	O 	0.2687	0.3524	0.2188	-0.222
Mof_C 	C 	0.4567	0.6067	0.7444	0.388
Mof_C 	C 	0.50047	0.6497	0.7404	-0.104
Mof_C 	C 	0.54699	0.6441	0.788	0.026
Mof_H 	H 	0.5507	0.6132	0.8245	0.037
Mof_C 	C 	0.58806	0.6836	0.7823	-0.092
Mof_H 	H 	0.6199	0.6798	0.8149	0.077
Mof_C 	C 	0.5826	0.7288	0.729	0.023
Mof_C 	C 	0.5361	0.7344	0.6814	-0.016
Mof_C 	C 	0.495	0.6949	0.6871	-0.007
Mof_H 	H 	0.4632	0.6987	0.6546	0.051
Mof_C 	C 	0.62906	0.769	0.72519	0.021
Mof_C 	C 	0.63176	0.8116	0.7825	-0.085
Mof_H 	H 	0.6049	0.814	0.819	0.065
Mof_C 	C 	0.67376	0.85058	0.7864	0.032
Mof_H 	H 	0.6756	0.8797	0.8255	0.035
Mof_C 	C 	0.71305	0.84703	0.7329	-0.11
Mof_C 	C 	0.71035	0.80447	0.6756	-0.001
Mof_H 	H 	0.7372	0.802	0.6391	0.053
Mof_C 	C 	0.66835	0.76545	0.6717	-0.005
Mof_C 	C 	0.75483	0.89171	0.7315	0.405
Mof_C 	C 	0.34785	0.5472	0.4093	0.229
Mof_H 	H 	0.3447	0.5829	0.4358	-0.026
Mof_C 	C 	0.35133	0.5482	0.33077	-0.291
Mof_H 	H 	0.3534	0.5842	0.3048	0.141
Mof_C 	C 	0.35748	0.4972	0.2027	-0.035
Mof_C 	C 	0.40728	0.5061	0.174	-0.009
Mof_H 	H 	0.4378	0.5093	0.2092	0.02
Mof_C 	C 	0.41238	0.5102	0.0937	-0.02
Mof_H 	H 	0.4464	0.5162	0.074	0.036
Mof_C 	C 	0.36766	0.5053	0.0422	-0.015
Mof_C 	C 	0.31786	0.4964	0.0709	-0.022
Mof_H 	H 	0.2873	0.4932	0.0357	0.032
Mof_C 	C 	0.31277	0.4923	0.1512	0.029
Mof_C 	C 	0.3706	0.5076	0.9557	0.142
Mof_C 	C 	0.2666	0.4749	0.1858	-0.061
Mof_C 	C 	0.1751	0.3987	0.1977	-0.631
Mof_H 	H 	0.1553	0.3696	0.166	0.223
Mof_H 	H 	0.1584	0.4365	0.1888	0.204
Mof_H 	H 	0.1745	0.3885	0.2533	0.216
Mof_Zn	Zn	0.85255	0.93301	0.68355	1.217
Mof_S 	S 	0.7377	0.099	0.1721	0.385
Mof_O 	O 	0.96375	0.93274	0.7952	-0.5
Mof_O 	O 	0.91573	0.88484	0.701	-0.5
Mof_O 	O 	0.2541	0.5672	0.7793	-0.533
Mof_O 	O 	0.29308	0.61882	0.6895	-0.492
Mof_O 	O 	0.84832	0.9515	0.572	-0.495
Mof_O 	O 	0.7305	0.1159	0.0821	-0.223
Mof_O 	O 	0.7687	0.1476	0.2188	-0.224
Mof_C 	C 	0.9567	0.8933	0.7444	0.389
Mof_C 	C 	0.00047	0.8503	0.7404	-0.111
Mof_C 	C 	0.04699	0.8559	0.788	0.031
Mof_H 	H 	0.0507	0.8868	0.8245	0.024
Mof_C 	C 	0.08806	0.8164	0.7823	-0.097
Mof_H 	H 	0.1199	0.8202	0.8149	0.079
Mof_C 	C 	0.0826	0.7712	0.729	0.025
Mof_C 	C 	0.0361	0.7656	0.6814	-0.02
Mof_C 	C 	0.995	0.8051	0.6871	-0.003
Mof_H 	H 	0.9632	0.8013	0.6546	0.05
Mof_C 	C 	0.12906	0.731	0.72519	0.02
Mof_C 	C 	0.13176	0.6884	0.7825	-0.086
Mof_H 	H 	0.1049	0.686	0.819	0.064
Mof_C 	C 	0.17376	0.64942	0.7864	0.032
Mof_H 	H 	0.1756	0.6203	0.8255	0.032
Mof_C 	C 	0.21305	0.65297	0.7329	-0.112
Mof_C 	C 	0.21035	0.69553	0.6756	-0
Mof_H 	H 	0.2372	0.698	0.6391	0.053
Mof_C 	C 	0.16835	0.73455	0.6717	-0.005
Mof_C 	C 	0.25483	0.60829	0.7315	0.405
Mof_C 	C 	0.84785	0.9528	0.4093	0.23
Mof_H 	H 	0.8447	0.9171	0.4358	-0.024
Mof_C 	C 	0.85133	0.9518	0.33077	-0.255
Mof_H 	H 	0.8534	0.9158	0.3048	0.127
Mof_C 	C 	0.85748	0.0028	0.2027	0.015
Mof_C 	C 	0.90728	0.9939	0.174	0.063
Mof_H 	H 	0.9378	0.9907	0.2092	0.486
Mof_C 	C 	0.91238	0.9898	0.0937	-0.05
Mof_H 	H 	0.9464	0.9838	0.074	0.057
Mof_C 	C 	0.86766	0.9947	0.0422	-0.079
Mof_C 	C 	0.81786	0.0036	0.0709	0.041
Mof_H 	H 	0.7873	0.0068	0.0357	0.116
Mof_C 	C 	0.81277	0.0077	0.1512	0.08
Mof_C 	C 	0.8706	0.9924	0.9557	0.078
Mof_C 	C 	0.7666	0.0251	0.1858	-0.105
Mof_C 	C 	0.6751	0.1013	0.1977	-0.634
Mof_H 	H 	0.6553	0.1304	0.166	0.223
Mof_H 	H 	0.6584	0.0635	0.1888	0.201
Mof_H 	H 	0.6745	0.1115	0.2533	0.215
Mof_Zn	Zn	0.35255	0.43301	0.68355	1.214
Mof_S 	S 	0.2377	0.599	0.1721	0.378
Mof_O 	O 	0.46375	0.43274	0.7952	-0.501
Mof_O 	O 	0.41573	0.38484	0.701	-0.502
Mof_O 	O 	0.7541	0.0672	0.7793	-0.537
Mof_O 	O 	0.79308	0.11882	0.6895	-0.494
Mof_O 	O 	0.34832	0.4515	0.572	-0.512
Mof_O 	O 	0.2305	0.6159	0.0821	-0.217
Mof_O 	O 	0.2687	0.6476	0.2188	-0.222
Mof_C 	C 	0.4567	0.3933	0.7444	0.389
Mof_C 	C 	0.50047	0.3503	0.7404	-0.105
Mof_C 	C 	0.54699	0.3559	0.788	0.026
Mof_H 	H 	0.5507	0.3868	0.8245	0.037
Mof_C 	C 	0.58806	0.3164	0.7823	-0.093
Mof_H 	H 	0.6199	0.3202	0.8149	0.077
Mof_C 	C 	0.5826	0.2712	0.729	0.023
Mof_C 	C 	0.5361	0.2656	0.6814	-0.019
Mof_C 	C 	0.495	0.3051	0.6871	-0.006
Mof_H 	H 	0.4632	0.3013	0.6546	0.05
Mof_C 	C 	0.62906	0.231	0.72519	0.021
Mof_C 	C 	0.63176	0.1884	0.7825	-0.088
Mof_H 	H 	0.6049	0.186	0.819	0.063
Mof_C 	C 	0.67376	0.14942	0.7864	0.032
Mof_H 	H 	0.6756	0.1203	0.8255	0.03
Mof_C 	C 	0.71305	0.15297	0.7329	-0.114
Mof_C 	C 	0.71035	0.19553	0.6756	0
Mof_H 	H 	0.7372	0.198	0.6391	0.052
Mof_C 	C 	0.66835	0.23455	0.6717	-0.007
Mof_C 	C 	0.75483	0.10829	0.7315	0.405
Mof_C 	C 	0.34785	0.4528	0.4093	0.229
Mof_H 	H 	0.3447	0.4171	0.4358	-0.026
Mof_C 	C 	0.35133	0.4518	0.33077	-0.291
Mof_H 	H 	0.3534	0.4158	0.3048	0.141
Mof_C 	C 	0.35748	0.5028	0.2027	-0.035
Mof_C 	C 	0.40728	0.4939	0.174	-0.009
Mof_H 	H 	0.4378	0.4907	0.2092	0.02
Mof_C 	C 	0.41238	0.4898	0.0937	-0.02
Mof_H 	H 	0.4464	0.4838	0.074	0.036
Mof_C 	C 	0.36766	0.4947	0.0422	-0.015
Mof_C 	C 	0.31786	0.5036	0.0709	-0.023
Mof_H 	H 	0.2873	0.5068	0.0357	0.032
Mof_C 	C 	0.31277	0.5077	0.1512	0.029
Mof_C 	C 	0.3706	0.4924	0.9557	0.142
Mof_C 	C 	0.2666	0.5251	0.1858	-0.062
Mof_C 	C 	0.1751	0.6013	0.1977	-0.632
Mof_H 	H 	0.1553	0.6304	0.166	0.224
Mof_H 	H 	0.1584	0.5635	0.1888	0.204
Mof_H 	H 	0.1745	0.6115	0.2533	0.216
Mof_Zn	Zn	0.91941	-5.06586e-33	0.81549	1.207
Mof_Zn	Zn	0.79218	5.06586e-33	0.81615	1.218
Mof_O 	O 	0.85452	0	0.7491	-0.965
Mof_O 	O 	0.8256	0	0.9153	-0.522
Mof_O 	O 	0.916	5.06586e-33	0.9281	-0.463
Mof_C 	C 	0.84795	0	0.53867	0.426
Mof_C 	C 	0.84863	0	0.45081	-0.289
Mof_C 	C 	0.85194	0	0.28916	0.174
Mof_Zn	Zn	0.41941	0.5	0.81549	1.21
Mof_Zn	Zn	0.29218	0.5	0.81615	1.221
Mof_O 	O 	0.35452	0.5	0.7491	-0.958
Mof_O 	O 	0.3256	0.5	0.9153	-0.51
Mof_O 	O 	0.416	0.5	0.9281	-0.45
Mof_C 	C 	0.34795	0.5	0.53867	0.447
Mof_C 	C 	0.34863	0.5	0.45081	-0.287
Mof_C 	C 	0.35194	0.5	0.28916	0.219
_end
