data_functionalizedCrystal
_audit_creation_method	'EQeq! by Chris Wilmer'
_symmetry_space_group_name_H-M	'P1'
_symmetry_Int_Tables_number	1
_symmetry_cell_setting	triclinic
loop_
_symmetry_equiv_pos_as_xyz
  x,y,z
_cell_length_a	23.5927
_cell_length_b	23.5927
_cell_length_c	11.7356
_cell_angle_alpha	90
_cell_angle_beta	90
_cell_angle_gamma	90
loop_
_atom_site_label
_atom_site_type_symbol
_atom_site_fract_x
_atom_site_fract_y
_atom_site_fract_z
_atom_site_charge
Mof_O 	O 	0.4478	0.54079	0.40323	-0.417
Mof_N 	N 	0.22301	0.64478	0.8661	-0.228
Mof_H 	H 	0.1925	0.6441	0.826	0.125
Mof_O 	O 	0.44309	0.45846	0.3128	-0.324
Mof_N 	N 	0.26353	0.6857	0.85735	-0.223
Mof_C 	C 	0.38055	0.59547	0.2462	0.089
Mof_H 	H 	0.3969	0.6164	0.3047	-0.001
Mof_C 	C 	0.28826	0.6213	0.9896	-0.277
Mof_C 	C 	0.39024	0.53725	0.2394	-0.163
Mof_C 	C 	0.34672	0.62218	0.1659	-0.216
Mof_H 	H 	0.3405	0.661	0.1712	0.095
Mof_C 	C 	0.3219	0.59147	0.0773	0.173
Mof_C 	C 	0.30365	0.6717	0.9325	0.311
Mof_C 	C 	0.23619	0.60576	0.9442	0.321
Mof_C 	C 	0.33081	0.53286	0.0727	-0.218
Mof_H 	H 	0.3138	0.5116	0.0154	0.088
Mof_C 	C 	0.42944	0.50933	0.3238	0.331
Mof_C 	C 	0.19775	0.55692	0.9675	-0.789
Mof_H 	H 	0.1591	0.5685	0.9566	0.269
Mof_H 	H 	0.2029	0.5444	0.0447	0.246
Mof_H 	H 	0.2065	0.5264	0.9163	0.256
Mof_C 	C 	0.36469	0.50619	0.153	0.089
Mof_H 	H 	0.3704	0.4672	0.1489	0
Mof_C 	C 	0.35723	0.70504	0.9449	-0.771
Mof_H 	H 	0.3659	0.7234	0.8741	0.251
Mof_H 	H 	0.3877	0.68	0.9653	0.256
Mof_H 	H 	0.3525	0.7331	0.0035	0.241
Mof_O 	O 	0.9478	0.04079	0.90323	-0.385
Mof_N 	N 	0.72301	0.14478	0.3661	-0.234
Mof_H 	H 	0.6925	0.1441	0.326	0.127
Mof_O 	O 	0.94309	0.95846	0.8128	-0.279
Mof_N 	N 	0.76353	0.1857	0.35735	-0.23
Mof_C 	C 	0.88055	0.09547	0.7462	0.073
Mof_H 	H 	0.8969	0.1164	0.8047	0.012
Mof_C 	C 	0.78826	0.1213	0.4896	-0.32
Mof_C 	C 	0.89024	0.03725	0.7394	-0.126
Mof_C 	C 	0.84672	0.12218	0.6659	-0.21
Mof_H 	H 	0.8405	0.161	0.6712	0.099
Mof_C 	C 	0.8219	0.09147	0.5773	0.19
Mof_C 	C 	0.80365	0.1717	0.4325	0.348
Mof_C 	C 	0.73619	0.10576	0.4442	0.348
Mof_C 	C 	0.83081	0.03286	0.5727	-0.195
Mof_H 	H 	0.8138	0.0116	0.5154	0.081
Mof_C 	C 	0.92944	0.00933	0.8238	0.29
Mof_C 	C 	0.69775	0.05692	0.4675	-0.873
Mof_H 	H 	0.6591	0.0685	0.4566	0.285
Mof_H 	H 	0.7029	0.0444	0.5447	0.277
Mof_H 	H 	0.7065	0.0264	0.4163	0.27
Mof_C 	C 	0.86469	0.00619	0.653	0.026
Mof_H 	H 	0.8704	0.9672	0.6489	0.041
Mof_C 	C 	0.85723	0.20504	0.4449	-0.892
Mof_H 	H 	0.8659	0.2234	0.3741	0.287
Mof_H 	H 	0.8877	0.18	0.4653	0.29
Mof_H 	H 	0.8525	0.2331	0.5035	0.293
Mof_O 	O 	0.0522	0.45921	0.90323	-0.42
Mof_N 	N 	0.27699	0.35522	0.3661	-0.237
Mof_H 	H 	0.3075	0.3559	0.326	0.127
Mof_O 	O 	0.05691	0.54154	0.8128	-0.328
Mof_N 	N 	0.23647	0.3143	0.35735	-0.23
Mof_C 	C 	0.11945	0.40453	0.7462	0.111
Mof_H 	H 	0.1031	0.3836	0.8047	-0.012
Mof_C 	C 	0.21174	0.3787	0.4896	-0.333
Mof_C 	C 	0.10976	0.46275	0.7394	-0.182
Mof_C 	C 	0.15328	0.37782	0.6659	-0.248
Mof_H 	H 	0.1595	0.339	0.6712	0.109
Mof_C 	C 	0.1781	0.40853	0.5773	0.221
Mof_C 	C 	0.19635	0.3283	0.4325	0.343
Mof_C 	C 	0.26381	0.39424	0.4442	0.36
Mof_C 	C 	0.16919	0.46714	0.5727	-0.251
Mof_H 	H 	0.1862	0.4884	0.5154	0.106
Mof_C 	C 	0.07056	0.49067	0.8238	0.336
Mof_C 	C 	0.30225	0.44308	0.4675	-0.905
Mof_H 	H 	0.3409	0.4315	0.4566	0.297
Mof_H 	H 	0.2971	0.4556	0.5447	0.292
Mof_H 	H 	0.2935	0.4736	0.4163	0.286
Mof_C 	C 	0.13531	0.49381	0.653	0.113
Mof_H 	H 	0.1296	0.5328	0.6489	-0.007
Mof_C 	C 	0.14277	0.29496	0.4449	-0.865
Mof_H 	H 	0.1341	0.2766	0.3741	0.271
Mof_H 	H 	0.1123	0.32	0.4653	0.271
Mof_H 	H 	0.1475	0.2669	0.5035	0.28
Mof_O 	O 	0.5522	0.95921	0.40323	-0.419
Mof_N 	N 	0.77699	0.85522	0.8661	-0.231
Mof_H 	H 	0.8075	0.8559	0.826	0.13
Mof_O 	O 	0.55691	0.04154	0.3128	-0.348
Mof_N 	N 	0.73647	0.8143	0.85735	-0.224
Mof_C 	C 	0.61945	0.90453	0.2462	0.126
Mof_H 	H 	0.6031	0.8836	0.3047	-0.013
Mof_C 	C 	0.71174	0.8787	0.9896	-0.296
Mof_C 	C 	0.60976	0.96275	0.2394	-0.205
Mof_C 	C 	0.65328	0.87782	0.1659	-0.248
Mof_H 	H 	0.6595	0.839	0.1712	0.107
Mof_C 	C 	0.6781	0.90853	0.0773	0.207
Mof_C 	C 	0.69635	0.8283	0.9325	0.32
Mof_C 	C 	0.76381	0.89424	0.9442	0.338
Mof_C 	C 	0.66919	0.96714	0.0727	-0.269
Mof_H 	H 	0.6862	0.9884	0.0154	0.113
Mof_C 	C 	0.57056	0.99067	0.3238	0.375
Mof_C 	C 	0.80225	0.94308	0.9675	-0.831
Mof_H 	H 	0.8409	0.9315	0.9566	0.285
Mof_H 	H 	0.7971	0.9556	0.0447	0.264
Mof_H 	H 	0.7935	0.9736	0.9163	0.274
Mof_C 	C 	0.63531	0.99381	0.153	0.173
Mof_H 	H 	0.6296	0.0328	0.1489	-0.042
Mof_C 	C 	0.64277	0.79496	0.9449	-0.785
Mof_H 	H 	0.6341	0.7766	0.8741	0.255
Mof_H 	H 	0.6123	0.82	0.9653	0.26
Mof_H 	H 	0.6475	0.7669	0.0035	0.245
Mof_O 	O 	0.20921	0.6978	0.65323	-0.418
Mof_N 	N 	0.10522	0.47301	0.1161	-0.236
Mof_H 	H 	0.1059	0.4425	0.076	0.12
Mof_O 	O 	0.29154	0.69309	0.5628	-0.322
Mof_N 	N 	0.0643	0.51353	0.10735	-0.235
Mof_C 	C 	0.15453	0.63055	0.4962	0.107
Mof_H 	H 	0.1336	0.6469	0.5547	-0.009
Mof_C 	C 	0.1287	0.53826	0.2396	-0.326
Mof_C 	C 	0.21275	0.64024	0.4894	-0.176
Mof_C 	C 	0.12782	0.59672	0.4159	-0.242
Mof_H 	H 	0.089	0.5905	0.4212	0.103
Mof_C 	C 	0.15853	0.5719	0.3273	0.215
Mof_C 	C 	0.0783	0.55365	0.1825	0.328
Mof_C 	C 	0.14424	0.48619	0.1942	0.353
Mof_C 	C 	0.21714	0.58081	0.3227	-0.246
Mof_H 	H 	0.2384	0.5638	0.2654	0.105
Mof_C 	C 	0.24067	0.67944	0.5738	0.336
Mof_C 	C 	0.19308	0.44775	0.2175	-0.893
Mof_H 	H 	0.1815	0.4091	0.2066	0.292
Mof_H 	H 	0.2056	0.4529	0.2947	0.288
Mof_H 	H 	0.2236	0.4565	0.1663	0.281
Mof_C 	C 	0.24381	0.61469	0.403	0.109
Mof_H 	H 	0.2828	0.6204	0.3989	-0.004
Mof_C 	C 	0.04496	0.60723	0.1949	-0.835
Mof_H 	H 	0.0266	0.6159	0.1241	0.254
Mof_H 	H 	0.07	0.6377	0.2153	0.262
Mof_H 	H 	0.0169	0.6025	0.2535	0.261
Mof_O 	O 	0.70921	0.1978	0.15323	-0.419
Mof_N 	N 	0.60522	0.97301	0.6161	-0.236
Mof_H 	H 	0.6059	0.9425	0.576	0.132
Mof_O 	O 	0.79154	0.19309	0.0628	-0.325
Mof_N 	N 	0.5643	0.01353	0.60735	-0.243
Mof_C 	C 	0.65453	0.13055	0.9962	0.16
Mof_H 	H 	0.6336	0.1469	0.0547	-0.037
Mof_C 	C 	0.6287	0.03826	0.7396	-0.378
Mof_C 	C 	0.71275	0.14024	0.9894	-0.182
Mof_C 	C 	0.62782	0.09672	0.9159	-0.279
Mof_H 	H 	0.589	0.0905	0.9212	0.123
Mof_C 	C 	0.65853	0.0719	0.8273	0.247
Mof_C 	C 	0.5783	0.05365	0.6825	0.364
Mof_C 	C 	0.64424	0.98619	0.6942	0.411
Mof_C 	C 	0.71714	0.08081	0.8227	-0.269
Mof_H 	H 	0.7384	0.0638	0.7654	0.109
Mof_C 	C 	0.74067	0.17944	0.0738	0.327
Mof_C 	C 	0.69308	0.94775	0.7175	-0.965
Mof_H 	H 	0.6815	0.9091	0.7066	0.317
Mof_H 	H 	0.7056	0.9529	0.7947	0.316
Mof_H 	H 	0.7236	0.9565	0.6663	0.31
Mof_C 	C 	0.74381	0.11469	0.903	0.125
Mof_H 	H 	0.7828	0.1204	0.8989	-0.005
Mof_C 	C 	0.54496	0.10723	0.6949	-0.902
Mof_H 	H 	0.5266	0.1159	0.6241	0.286
Mof_H 	H 	0.57	0.1377	0.7153	0.289
Mof_H 	H 	0.5169	0.1025	0.7535	0.293
Mof_O 	O 	0.29079	0.3022	0.15323	-0.419
Mof_N 	N 	0.39478	0.52699	0.6161	-0.238
Mof_H 	H 	0.3941	0.5575	0.576	0.129
Mof_O 	O 	0.20846	0.30691	0.0628	-0.33
Mof_N 	N 	0.4357	0.48647	0.60735	-0.231
Mof_C 	C 	0.34547	0.36945	0.9962	0.157
Mof_H 	H 	0.3664	0.3531	0.0547	-0.037
Mof_C 	C 	0.3713	0.46174	0.7396	-0.341
Mof_C 	C 	0.28725	0.35976	0.9894	-0.177
Mof_C 	C 	0.37218	0.40328	0.9159	-0.27
Mof_H 	H 	0.411	0.4095	0.9212	0.121
Mof_C 	C 	0.34147	0.4281	0.8273	0.237
Mof_C 	C 	0.4217	0.44635	0.6825	0.354
Mof_C 	C 	0.35576	0.51381	0.6942	0.368
Mof_C 	C 	0.28286	0.41919	0.8227	-0.257
Mof_H 	H 	0.2616	0.4362	0.7654	0.11
Mof_C 	C 	0.25933	0.32056	0.0738	0.326
Mof_C 	C 	0.30692	0.55225	0.7175	-0.916
Mof_H 	H 	0.3185	0.5909	0.7066	0.302
Mof_H 	H 	0.2944	0.5471	0.7947	0.298
Mof_H 	H 	0.2764	0.5435	0.6663	0.29
Mof_C 	C 	0.25619	0.38531	0.903	0.121
Mof_H 	H 	0.2172	0.3796	0.8989	-0.003
Mof_C 	C 	0.45504	0.39277	0.6949	-0.89
Mof_H 	H 	0.4734	0.3841	0.6241	0.283
Mof_H 	H 	0.43	0.3623	0.7153	0.285
Mof_H 	H 	0.4831	0.3975	0.7535	0.291
Mof_O 	O 	0.79079	0.8022	0.65323	-0.416
Mof_N 	N 	0.89478	0.02699	0.1161	-0.238
Mof_H 	H 	0.8941	0.0575	0.076	0.126
Mof_O 	O 	0.70846	0.80691	0.5628	-0.322
Mof_N 	N 	0.9357	0.98647	0.10735	-0.212
Mof_C 	C 	0.84547	0.86945	0.4962	0.109
Mof_H 	H 	0.8664	0.8531	0.5547	-0.004
Mof_C 	C 	0.8713	0.96174	0.2396	-0.305
Mof_C 	C 	0.78725	0.85976	0.4894	-0.174
Mof_C 	C 	0.87218	0.90328	0.4159	-0.238
Mof_H 	H 	0.911	0.9095	0.4212	0.113
Mof_C 	C 	0.84147	0.9281	0.3273	0.216
Mof_C 	C 	0.9217	0.94635	0.1825	0.354
Mof_C 	C 	0.85576	0.01381	0.1942	0.324
Mof_C 	C 	0.78286	0.91919	0.3227	-0.241
Mof_H 	H 	0.7616	0.9362	0.2654	0.107
Mof_C 	C 	0.75933	0.82056	0.5738	0.335
Mof_C 	C 	0.80692	0.05225	0.2175	-0.862
Mof_H 	H 	0.8185	0.0909	0.2066	0.285
Mof_H 	H 	0.7944	0.0471	0.2947	0.276
Mof_H 	H 	0.7764	0.0435	0.1663	0.266
Mof_C 	C 	0.75619	0.88531	0.403	0.11
Mof_H 	H 	0.7172	0.8796	0.3989	-0.003
Mof_C 	C 	0.95504	0.89277	0.1949	-0.904
Mof_H 	H 	0.9734	0.8841	0.1241	0.296
Mof_H 	H 	0.93	0.8623	0.2153	0.291
Mof_H 	H 	0.9831	0.8975	0.2535	0.307
Mof_O 	O 	0.5522	0.45921	0.59677	-0.419
Mof_N 	N 	0.77699	0.35522	0.1339	-0.245
Mof_H 	H 	0.8075	0.3559	0.174	0.131
Mof_O 	O 	0.55691	0.54154	0.6872	-0.323
Mof_N 	N 	0.73647	0.3143	0.14265	-0.237
Mof_C 	C 	0.61945	0.40453	0.7538	0.133
Mof_H 	H 	0.6031	0.3836	0.6953	-0.016
Mof_C 	C 	0.71174	0.3787	0.0104	-0.389
Mof_C 	C 	0.60976	0.46275	0.7606	-0.192
Mof_C 	C 	0.65328	0.37782	0.8341	-0.274
Mof_H 	H 	0.6595	0.339	0.8288	0.121
Mof_C 	C 	0.6781	0.40853	0.9227	0.267
Mof_C 	C 	0.69635	0.3283	0.0675	0.385
Mof_C 	C 	0.76381	0.39424	0.0558	0.399
Mof_C 	C 	0.66919	0.46714	0.9273	-0.278
Mof_H 	H 	0.6862	0.4884	0.9846	0.123
Mof_C 	C 	0.57056	0.49067	0.6762	0.342
Mof_C 	C 	0.80225	0.44308	0.0325	-1.013
Mof_H 	H 	0.8409	0.4315	0.0434	0.326
Mof_H 	H 	0.7971	0.4556	0.9553	0.334
Mof_H 	H 	0.7935	0.4736	0.0837	0.314
Mof_C 	C 	0.63531	0.49381	0.847	0.135
Mof_H 	H 	0.6296	0.5328	0.8511	-0.009
Mof_C 	C 	0.64277	0.29496	0.0551	-0.985
Mof_H 	H 	0.6341	0.2766	0.1259	0.309
Mof_H 	H 	0.6123	0.32	0.0347	0.306
Mof_H 	H 	0.6475	0.2669	0.9965	0.33
Mof_O 	O 	0.0522	0.95921	0.09677	-0.439
Mof_N 	N 	0.27699	0.85522	0.6339	-0.24
Mof_H 	H 	0.3075	0.8559	0.674	0.13
Mof_O 	O 	0.05691	0.04154	0.1872	-0.362
Mof_N 	N 	0.23647	0.8143	0.64265	-0.231
Mof_C 	C 	0.11945	0.90453	0.2538	0.151
Mof_H 	H 	0.1031	0.8836	0.1953	-0.03
Mof_C 	C 	0.21174	0.8787	0.5104	-0.352
Mof_C 	C 	0.10976	0.96275	0.2606	-0.231
Mof_C 	C 	0.15328	0.87782	0.3341	-0.283
Mof_H 	H 	0.1595	0.839	0.3288	0.119
Mof_C 	C 	0.1781	0.90853	0.4227	0.256
Mof_C 	C 	0.19635	0.8283	0.5675	0.352
Mof_C 	C 	0.26381	0.89424	0.5558	0.376
Mof_C 	C 	0.16919	0.96714	0.4273	-0.305
Mof_H 	H 	0.1862	0.9884	0.4846	0.132
Mof_C 	C 	0.07056	0.99067	0.1762	0.382
Mof_C 	C 	0.30225	0.94308	0.5325	-0.94
Mof_H 	H 	0.3409	0.9315	0.5434	0.312
Mof_H 	H 	0.2971	0.9556	0.4553	0.308
Mof_H 	H 	0.2935	0.9736	0.5837	0.303
Mof_C 	C 	0.13531	0.99381	0.347	0.201
Mof_H 	H 	0.1296	0.0328	0.3511	-0.051
Mof_C 	C 	0.14277	0.79496	0.5551	-0.878
Mof_H 	H 	0.1341	0.7766	0.6259	0.277
Mof_H 	H 	0.1123	0.82	0.5347	0.276
Mof_H 	H 	0.1475	0.7669	0.4965	0.283
Mof_O 	O 	0.9478	0.54079	0.09677	-0.405
Mof_N 	N 	0.72301	0.64478	0.6339	-0.237
Mof_H 	H 	0.6925	0.6441	0.674	0.129
Mof_O 	O 	0.94309	0.45846	0.1872	-0.313
Mof_N 	N 	0.76353	0.6857	0.64265	-0.231
Mof_C 	C 	0.88055	0.59547	0.2538	0.112
Mof_H 	H 	0.8969	0.6164	0.1953	-0.005
Mof_C 	C 	0.78826	0.6213	0.5104	-0.338
Mof_C 	C 	0.89024	0.53725	0.2606	-0.174
Mof_C 	C 	0.84672	0.62218	0.3341	-0.244
Mof_H 	H 	0.8405	0.661	0.3288	0.109
Mof_C 	C 	0.8219	0.59147	0.4227	0.223
Mof_C 	C 	0.80365	0.6717	0.5675	0.356
Mof_C 	C 	0.73619	0.60576	0.5558	0.363
Mof_C 	C 	0.83081	0.53286	0.4273	-0.247
Mof_H 	H 	0.8138	0.5116	0.4846	0.106
Mof_C 	C 	0.92944	0.50933	0.1762	0.336
Mof_C 	C 	0.69775	0.55692	0.5325	-0.908
Mof_H 	H 	0.6591	0.5685	0.5434	0.299
Mof_H 	H 	0.7029	0.5444	0.4553	0.293
Mof_H 	H 	0.7065	0.5264	0.5837	0.287
Mof_C 	C 	0.86469	0.50619	0.347	0.112
Mof_H 	H 	0.8704	0.4672	0.3511	-0.003
Mof_C 	C 	0.85723	0.70504	0.5551	-0.904
Mof_H 	H 	0.8659	0.7234	0.6259	0.292
Mof_H 	H 	0.8877	0.68	0.5347	0.294
Mof_H 	H 	0.8525	0.7331	0.4965	0.296
Mof_O 	O 	0.4478	0.04079	0.59677	-0.412
Mof_N 	N 	0.22301	0.14478	0.1339	-0.242
Mof_H 	H 	0.1925	0.1441	0.174	0.127
Mof_O 	O 	0.44309	0.95846	0.6872	-0.296
Mof_N 	N 	0.26353	0.1857	0.14265	-0.237
Mof_C 	C 	0.38055	0.09547	0.7538	0.097
Mof_H 	H 	0.3969	0.1164	0.6953	-0.003
Mof_C 	C 	0.28826	0.1213	0.0104	-0.373
Mof_C 	C 	0.39024	0.03725	0.7606	-0.149
Mof_C 	C 	0.34672	0.12218	0.8341	-0.243
Mof_H 	H 	0.3405	0.161	0.8288	0.111
Mof_C 	C 	0.3219	0.09147	0.9227	0.236
Mof_C 	C 	0.30365	0.1717	0.0675	0.379
Mof_C 	C 	0.23619	0.10576	0.0558	0.385
Mof_C 	C 	0.33081	0.03286	0.9273	-0.228
Mof_H 	H 	0.3138	0.0116	0.9846	0.099
Mof_C 	C 	0.42944	0.00933	0.6762	0.297
Mof_C 	C 	0.19775	0.05692	0.0325	-0.983
Mof_H 	H 	0.1591	0.0685	0.0434	0.312
Mof_H 	H 	0.2029	0.0444	0.9553	0.321
Mof_H 	H 	0.2065	0.0264	0.0837	0.299
Mof_C 	C 	0.36469	0.00619	0.847	0.049
Mof_H 	H 	0.3704	0.9672	0.8511	0.034
Mof_C 	C 	0.35723	0.20504	0.0551	-0.98
Mof_H 	H 	0.3659	0.2234	0.1259	0.307
Mof_H 	H 	0.3877	0.18	0.0347	0.304
Mof_H 	H 	0.3525	0.2331	0.9965	0.329
Mof_O 	O 	0.79079	0.3022	0.34677	-0.417
Mof_N 	N 	0.89478	0.52699	0.8839	-0.238
Mof_H 	H 	0.8941	0.5575	0.924	0.138
Mof_O 	O 	0.70846	0.30691	0.4372	-0.324
Mof_N 	N 	0.9357	0.48647	0.89265	-0.22
Mof_C 	C 	0.84547	0.36945	0.5038	0.117
Mof_H 	H 	0.8664	0.3531	0.4453	-0.008
Mof_C 	C 	0.8713	0.46174	0.7604	-0.345
Mof_C 	C 	0.78725	0.35976	0.5106	-0.18
Mof_C 	C 	0.87218	0.40328	0.5841	-0.251
Mof_H 	H 	0.911	0.4095	0.5788	0.116
Mof_C 	C 	0.84147	0.4281	0.6727	0.23
Mof_C 	C 	0.9217	0.44635	0.8175	0.371
Mof_C 	C 	0.85576	0.51381	0.8058	0.37
Mof_C 	C 	0.78286	0.41919	0.6773	-0.254
Mof_H 	H 	0.7616	0.4362	0.7346	0.108
Mof_C 	C 	0.75933	0.32056	0.4262	0.338
Mof_C 	C 	0.80692	0.55225	0.7825	-0.919
Mof_H 	H 	0.8185	0.5909	0.7934	0.305
Mof_H 	H 	0.7944	0.5471	0.7053	0.297
Mof_H 	H 	0.7764	0.5435	0.8337	0.291
Mof_C 	C 	0.75619	0.38531	0.597	0.117
Mof_H 	H 	0.7172	0.3796	0.6011	-0.006
Mof_C 	C 	0.95504	0.39277	0.8051	-0.932
Mof_H 	H 	0.9734	0.3841	0.8759	0.309
Mof_H 	H 	0.93	0.3623	0.7847	0.302
Mof_H 	H 	0.9831	0.3975	0.7465	0.314
Mof_O 	O 	0.29079	0.8022	0.84677	-0.416
Mof_N 	N 	0.39478	0.02699	0.3839	-0.238
Mof_H 	H 	0.3941	0.0575	0.424	0.125
Mof_O 	O 	0.20846	0.80691	0.9372	-0.32
Mof_N 	N 	0.4357	0.98647	0.39265	-0.216
Mof_C 	C 	0.34547	0.86945	0.0038	0.06
Mof_H 	H 	0.3664	0.8531	0.9453	0.023
Mof_C 	C 	0.3713	0.96174	0.2604	-0.293
Mof_C 	C 	0.28725	0.85976	0.0106	-0.175
Mof_C 	C 	0.37218	0.90328	0.0841	-0.211
Mof_H 	H 	0.411	0.9095	0.0788	0.094
Mof_C 	C 	0.34147	0.9281	0.1727	0.197
Mof_C 	C 	0.4217	0.94635	0.3175	0.336
Mof_C 	C 	0.35576	0.01381	0.3058	0.313
Mof_C 	C 	0.28286	0.91919	0.1773	-0.23
Mof_H 	H 	0.2616	0.9362	0.2346	0.103
Mof_C 	C 	0.25933	0.82056	0.9262	0.348
Mof_C 	C 	0.30692	0.05225	0.2825	-0.848
Mof_H 	H 	0.3185	0.0909	0.2934	0.28
Mof_H 	H 	0.2944	0.0471	0.2053	0.269
Mof_H 	H 	0.2764	0.0435	0.3337	0.263
Mof_C 	C 	0.25619	0.88531	0.097	0.101
Mof_H 	H 	0.2172	0.8796	0.1011	-0.005
Mof_C 	C 	0.45504	0.89277	0.3051	-0.866
Mof_H 	H 	0.4734	0.8841	0.3759	0.277
Mof_H 	H 	0.43	0.8623	0.2847	0.277
Mof_H 	H 	0.4831	0.8975	0.2465	0.282
Mof_O 	O 	0.70921	0.6978	0.84677	-0.416
Mof_N 	N 	0.60522	0.47301	0.3839	-0.236
Mof_H 	H 	0.6059	0.4425	0.424	0.128
Mof_O 	O 	0.79154	0.69309	0.9372	-0.316
Mof_N 	N 	0.5643	0.51353	0.39265	-0.23
Mof_C 	C 	0.65453	0.63055	0.0038	0.066
Mof_H 	H 	0.6336	0.6469	0.9453	0.02
Mof_C 	C 	0.6287	0.53826	0.2604	-0.33
Mof_C 	C 	0.71275	0.64024	0.0106	-0.178
Mof_C 	C 	0.62782	0.59672	0.0841	-0.222
Mof_H 	H 	0.589	0.5905	0.0788	0.096
Mof_C 	C 	0.65853	0.5719	0.1727	0.208
Mof_C 	C 	0.5783	0.55365	0.3175	0.346
Mof_C 	C 	0.64424	0.48619	0.3058	0.355
Mof_C 	C 	0.71714	0.58081	0.1773	-0.242
Mof_H 	H 	0.7384	0.5638	0.2346	0.102
Mof_C 	C 	0.74067	0.67944	0.9262	0.348
Mof_C 	C 	0.69308	0.44775	0.2825	-0.896
Mof_H 	H 	0.6815	0.4091	0.2934	0.294
Mof_H 	H 	0.7056	0.4529	0.2053	0.287
Mof_H 	H 	0.7236	0.4565	0.3337	0.283
Mof_C 	C 	0.74381	0.61469	0.097	0.105
Mof_H 	H 	0.7828	0.6204	0.1011	-0.006
Mof_C 	C 	0.54496	0.60723	0.3051	-0.878
Mof_H 	H 	0.5266	0.6159	0.3759	0.28
Mof_H 	H 	0.57	0.6377	0.2847	0.281
Mof_H 	H 	0.5169	0.6025	0.2465	0.285
Mof_O 	O 	0.20921	0.1978	0.34677	-0.419
Mof_N 	N 	0.10522	0.97301	0.8839	-0.235
Mof_H 	H 	0.1059	0.9425	0.924	0.134
Mof_O 	O 	0.29154	0.19309	0.4372	-0.324
Mof_N 	N 	0.0643	0.01353	0.89265	-0.24
Mof_C 	C 	0.15453	0.13055	0.5038	0.116
Mof_H 	H 	0.1336	0.1469	0.4453	-0.013
Mof_C 	C 	0.1287	0.03826	0.7604	-0.368
Mof_C 	C 	0.21275	0.14024	0.5106	-0.183
Mof_C 	C 	0.12782	0.09672	0.5841	-0.255
Mof_H 	H 	0.089	0.0905	0.5788	0.105
Mof_C 	C 	0.15853	0.0719	0.6727	0.23
Mof_C 	C 	0.0783	0.05365	0.8175	0.347
Mof_C 	C 	0.14424	0.98619	0.8058	0.402
Mof_C 	C 	0.21714	0.08081	0.6773	-0.26
Mof_H 	H 	0.2384	0.0638	0.7346	0.105
Mof_C 	C 	0.24067	0.17944	0.4262	0.339
Mof_C 	C 	0.19308	0.94775	0.7825	-0.956
Mof_H 	H 	0.1815	0.9091	0.7934	0.313
Mof_H 	H 	0.2056	0.9529	0.7053	0.31
Mof_H 	H 	0.2236	0.9565	0.8337	0.308
Mof_C 	C 	0.24381	0.11469	0.597	0.117
Mof_H 	H 	0.2828	0.1204	0.6011	-0.007
Mof_C 	C 	0.04496	0.10723	0.8051	-0.867
Mof_H 	H 	0.0266	0.1159	0.8759	0.27
Mof_H 	H 	0.07	0.1377	0.7847	0.276
Mof_H 	H 	0.0169	0.1025	0.7465	0.271
Mof_Cu	Cu	0.5	0.5	0.5	0.907
Mof_Cu	Cu	-0	0	-0	0.874
Mof_Cu	Cu	-3.86447e-33	0.5	-0	0.883
Mof_Cu	Cu	0.5	0	0.5	0.897
Mof_Cu	Cu	0.25	0.75	0.75	0.907
Mof_Cu	Cu	0.25	0.25	0.25	0.906
Mof_Cu	Cu	0.75	0.25	0.25	0.907
Mof_Cu	Cu	0.75	0.75	0.75	0.908
_end
