data_functionalizedCrystal
_audit_creation_method	'EQeq! by Chris Wilmer'
_symmetry_space_group_name_H-M	'P1'
_symmetry_Int_Tables_number	1
_symmetry_cell_setting	triclinic
loop_
_symmetry_equiv_pos_as_xyz
  x,y,z
_cell_length_a	9.8552
_cell_length_b	17.9828
_cell_length_c	21.359
_cell_angle_alpha	103.912
_cell_angle_beta	90
_cell_angle_gamma	90
loop_
_atom_site_label
_atom_site_type_symbol
_atom_site_fract_x
_atom_site_fract_y
_atom_site_fract_z
_atom_site_charge
Mof_Mn	Mn	0.11822	0.19639	0.12139	0.787
Mof_Mn	Mn	0.1054	0.27883	0.29397	0.985
Mof_Mn	Mn	0.28262	0.28611	0.44258	0.894
Mof_Mn	Mn	0.61822	0.80361	0.37861	0.788
Mof_Mn	Mn	0.6054	0.72117	0.20603	0.986
Mof_Mn	Mn	0.78262	0.71389	0.05742	0.894
Mof_Mn	Mn	0.88178	0.80361	0.87861	0.788
Mof_Mn	Mn	0.8946	0.72117	0.70603	0.986
Mof_Mn	Mn	0.71738	0.71389	0.55742	0.895
Mof_Mn	Mn	0.38178	0.19639	0.62139	0.789
Mof_Mn	Mn	0.3946	0.27883	0.79397	0.987
Mof_Mn	Mn	0.21738	0.28611	0.94258	0.895
Mof_H 	H 	0.8462	0.0747	0.3269	0.045
Mof_H 	H 	0.7763	0.9392	0.3081	0.028
Mof_H 	H 	0.0994	0.3867	0.0986	0.027
Mof_H 	H 	0.0206	0.5018	0.0666	0.037
Mof_H 	H 	0.7923	0.2894	0.3601	0.049
Mof_H 	H 	0.5609	0.2811	0.4028	0.036
Mof_H 	H 	0.3462	0.9253	0.1731	0.045
Mof_H 	H 	0.2763	0.0608	0.1919	0.028
Mof_H 	H 	0.5994	0.6133	0.4014	0.026
Mof_H 	H 	0.5206	0.4982	0.4334	0.038
Mof_H 	H 	0.2923	0.7106	0.1399	0.049
Mof_H 	H 	0.0609	0.7189	0.0972	0.036
Mof_H 	H 	0.1538	0.9253	0.6731	0.045
Mof_H 	H 	0.2237	0.0608	0.6919	0.028
Mof_H 	H 	0.9006	0.6133	0.9014	0.027
Mof_H 	H 	0.9794	0.4982	0.9334	0.037
Mof_H 	H 	0.2077	0.7106	0.6399	0.049
Mof_H 	H 	0.4391	0.7189	0.5972	0.036
Mof_H 	H 	0.6538	0.0747	0.8269	0.045
Mof_H 	H 	0.7237	0.9392	0.8081	0.028
Mof_H 	H 	0.4006	0.3867	0.5986	0.026
Mof_H 	H 	0.4794	0.5018	0.5666	0.038
Mof_H 	H 	0.7077	0.2894	0.8601	0.049
Mof_H 	H 	0.9391	0.2811	0.9028	0.036
Mof_C 	C 	0.9249	0.05299	0.23613	-0.109
Mof_C 	C 	0.8617	0.0376	0.2877	-0.005
Mof_C 	C 	0.821	0.96002	0.27679	0.003
Mof_C 	C 	0.8529	0.91879	0.21698	-0.113
Mof_C 	C 	0.9798	0.12715	0.22879	0.396
Mof_C 	C 	0.8177	0.83754	0.18621	0.391
Mof_C 	C 	0.9787	0.41306	0.17856	-0.103
Mof_C 	C 	0.0357	0.42174	0.12281	-0.001
Mof_C 	C 	0.991	0.48766	0.10447	-0.005
Mof_C 	C 	0.9004	0.52889	0.1472	-0.11
Mof_C 	C 	0.0077	0.35506	0.21442	0.347
Mof_C 	C 	0.8305	0.60153	0.14484	0.391
Mof_C 	C 	0.8713	0.25697	0.43822	-0.108
Mof_C 	C 	0.7737	0.27529	0.39938	-0.005
Mof_C 	C 	0.6409	0.27089	0.42414	0.003
Mof_C 	C 	0.64	0.2505	0.48192	-0.122
Mof_C 	C 	0.0187	0.25975	0.43241	0.355
Mof_C 	C 	0.5285	0.24095	0.52458	0.375
Mof_C 	C 	0.4249	0.94701	0.26387	-0.109
Mof_C 	C 	0.3617	0.9624	0.2123	-0.006
Mof_C 	C 	0.321	0.03998	0.22321	0.004
Mof_C 	C 	0.3529	0.08121	0.28302	-0.113
Mof_C 	C 	0.4798	0.87285	0.27121	0.394
Mof_C 	C 	0.3177	0.16246	0.31379	0.391
Mof_C 	C 	0.4787	0.58694	0.32144	-0.105
Mof_C 	C 	0.5357	0.57826	0.37719	0.001
Mof_C 	C 	0.491	0.51234	0.39553	-0.006
Mof_C 	C 	0.4004	0.47111	0.3528	-0.109
Mof_C 	C 	0.5077	0.64494	0.28558	0.349
Mof_C 	C 	0.3305	0.39847	0.35516	0.391
Mof_C 	C 	0.3713	0.74303	0.06178	-0.109
Mof_C 	C 	0.2737	0.72471	0.10062	-0.005
Mof_C 	C 	0.1409	0.72911	0.07586	0.003
Mof_C 	C 	0.14	0.7495	0.01808	-0.121
Mof_C 	C 	0.5187	0.74025	0.06759	0.356
Mof_C 	C 	0.0285	0.75905	0.97542	0.376
Mof_C 	C 	0.0751	0.94701	0.76387	-0.109
Mof_C 	C 	0.1383	0.9624	0.7123	-0.005
Mof_C 	C 	0.179	0.03998	0.72321	0.003
Mof_C 	C 	0.1471	0.08121	0.78302	-0.113
Mof_C 	C 	0.0202	0.87285	0.77121	0.396
Mof_C 	C 	0.1823	0.16246	0.81379	0.391
Mof_C 	C 	0.0213	0.58694	0.82144	-0.103
Mof_C 	C 	0.9643	0.57826	0.87719	-0.001
Mof_C 	C 	0.009	0.51234	0.89553	-0.005
Mof_C 	C 	0.0996	0.47111	0.8528	-0.11
Mof_C 	C 	0.9923	0.64494	0.78558	0.347
Mof_C 	C 	0.1695	0.39847	0.85516	0.391
Mof_C 	C 	0.1287	0.74303	0.56178	-0.108
Mof_C 	C 	0.2263	0.72471	0.60062	-0.005
Mof_C 	C 	0.3591	0.72911	0.57586	0.003
Mof_C 	C 	0.36	0.7495	0.51808	-0.122
Mof_C 	C 	0.9813	0.74025	0.56759	0.355
Mof_C 	C 	0.4715	0.75905	0.47542	0.375
Mof_C 	C 	0.5751	0.05299	0.73613	-0.109
Mof_C 	C 	0.6383	0.0376	0.7877	-0.006
Mof_C 	C 	0.679	0.96002	0.77679	0.004
Mof_C 	C 	0.6471	0.91879	0.71698	-0.113
Mof_C 	C 	0.5202	0.12715	0.72879	0.394
Mof_C 	C 	0.6823	0.83754	0.68621	0.391
Mof_C 	C 	0.5213	0.41306	0.67856	-0.105
Mof_C 	C 	0.4643	0.42174	0.62281	0.001
Mof_C 	C 	0.509	0.48766	0.60447	-0.006
Mof_C 	C 	0.5996	0.52889	0.6472	-0.109
Mof_C 	C 	0.4923	0.35506	0.71442	0.349
Mof_C 	C 	0.6695	0.60153	0.64484	0.391
Mof_C 	C 	0.6287	0.25697	0.93822	-0.109
Mof_C 	C 	0.7263	0.27529	0.89938	-0.005
Mof_C 	C 	0.8591	0.27089	0.92414	0.003
Mof_C 	C 	0.86	0.2505	0.98192	-0.121
Mof_C 	C 	0.4813	0.25975	0.93241	0.356
Mof_C 	C 	0.9715	0.24095	0.02458	0.376
Mof_S 	S 	0.86755	0.48669	0.20972	0.085
Mof_S 	S 	0.80314	0.23576	0.50565	0.078
Mof_S 	S 	0.93531	0.97308	0.17301	0.071
Mof_S 	S 	0.36755	0.51331	0.29028	0.085
Mof_S 	S 	0.30314	0.76424	0.99435	0.077
Mof_S 	S 	0.43531	0.02692	0.32699	0.071
Mof_S 	S 	0.13245	0.51331	0.79028	0.085
Mof_S 	S 	0.19686	0.76424	0.49435	0.078
Mof_S 	S 	0.06469	0.02692	0.82699	0.071
Mof_S 	S 	0.63245	0.48669	0.70972	0.085
Mof_S 	S 	0.69686	0.23576	0.00565	0.077
Mof_S 	S 	0.56469	0.97308	0.67301	0.071
Mof_O 	O 	0.03229	0.12662	0.17474	-0.401
Mof_O 	O 	0.97312	0.18324	0.27624	-0.39
Mof_O 	O 	0.83559	0.81506	0.12666	-0.386
Mof_O 	O 	0.76956	0.79879	0.22287	-0.406
Mof_O 	O 	0.09719	0.30371	0.19261	-0.42
Mof_O 	O 	0.95164	0.35922	0.26766	-0.334
Mof_O 	O 	0.86996	0.63354	0.10163	-0.403
Mof_O 	O 	0.74044	0.62455	0.18616	-0.379
Mof_O 	O 	0.07077	0.29558	0.39366	-0.438
Mof_O 	O 	0.09051	0.23213	0.46951	-0.358
Mof_O 	O 	0.40803	0.25506	0.51201	-0.424
Mof_O 	O 	0.56046	0.21777	0.57342	-0.366
Mof_O 	O 	0.53229	0.87338	0.32526	-0.4
Mof_O 	O 	0.47312	0.81676	0.22376	-0.39
Mof_O 	O 	0.33559	0.18494	0.37334	-0.386
Mof_O 	O 	0.26956	0.20121	0.27713	-0.406
Mof_O 	O 	0.59719	0.69629	0.30739	-0.421
Mof_O 	O 	0.45164	0.64078	0.23234	-0.335
Mof_O 	O 	0.36996	0.36646	0.39837	-0.403
Mof_O 	O 	0.24044	0.37545	0.31384	-0.379
Mof_O 	O 	0.57077	0.70442	0.10634	-0.438
Mof_O 	O 	0.59051	0.76787	0.03049	-0.358
Mof_O 	O 	0.90803	0.74494	0.98799	-0.424
Mof_O 	O 	0.06046	0.78223	0.92658	-0.365
Mof_O 	O 	0.96771	0.87338	0.82526	-0.401
Mof_O 	O 	0.02688	0.81676	0.72376	-0.39
Mof_O 	O 	0.16441	0.18494	0.87334	-0.386
Mof_O 	O 	0.23044	0.20121	0.77713	-0.406
Mof_O 	O 	0.90281	0.69629	0.80739	-0.42
Mof_O 	O 	0.04836	0.64078	0.73234	-0.334
Mof_O 	O 	0.13004	0.36646	0.89837	-0.403
Mof_O 	O 	0.25956	0.37545	0.81384	-0.379
Mof_O 	O 	0.92923	0.70442	0.60634	-0.438
Mof_O 	O 	0.90949	0.76787	0.53049	-0.358
Mof_O 	O 	0.59197	0.74494	0.48799	-0.424
Mof_O 	O 	0.43954	0.78223	0.42658	-0.366
Mof_O 	O 	0.46771	0.12662	0.67474	-0.4
Mof_O 	O 	0.52688	0.18324	0.77624	-0.39
Mof_O 	O 	0.66441	0.81506	0.62666	-0.386
Mof_O 	O 	0.73044	0.79879	0.72287	-0.406
Mof_O 	O 	0.40281	0.30371	0.69261	-0.421
Mof_O 	O 	0.54836	0.35922	0.76766	-0.335
Mof_O 	O 	0.63004	0.63354	0.60163	-0.403
Mof_O 	O 	0.75956	0.62455	0.68616	-0.379
Mof_O 	O 	0.42923	0.29558	0.89366	-0.438
Mof_O 	O 	0.40949	0.23213	0.96951	-0.358
Mof_O 	O 	0.09197	0.25506	0.01201	-0.424
Mof_O 	O 	0.93954	0.21777	0.07342	-0.365
_end
