data_functionalizedCrystal
_audit_creation_method	'EQeq! by Chris Wilmer'
_symmetry_space_group_name_H-M	'P1'
_symmetry_Int_Tables_number	1
_symmetry_cell_setting	triclinic
loop_
_symmetry_equiv_pos_as_xyz
  x,y,z
_cell_length_a	6.0535
_cell_length_b	9.9159
_cell_length_c	13.2903
_cell_angle_alpha	68.832
_cell_angle_beta	81.273
_cell_angle_gamma	76.875
loop_
_atom_site_label
_atom_site_type_symbol
_atom_site_fract_x
_atom_site_fract_y
_atom_site_fract_z
_atom_site_charge
Mof_Dy	Dy	0.83464	0.61382	0.19511	1.808
Mof_Dy	Dy	0.16536	0.38618	0.80489	1.808
Mof_H 	H 	0.3266	0.0476	0.0292	0.01
Mof_H 	H 	0.7055	0.3214	0.6286	0
Mof_H 	H 	0.6734	0.9524	0.9708	0.01
Mof_H 	H 	0.2945	0.6786	0.3714	0
Mof_C 	C 	0.2894	0.7647	0.1417	0.416
Mof_C 	C 	0.1366	0.8929	0.0696	-0.102
Mof_C 	C 	0.1916	0.0296	0.0158	0.091
Mof_C 	C 	0.9508	0.3817	0.4387	0.355
Mof_C 	C 	0.7108	0.4448	0.4719	-0.07
Mof_C 	C 	0.6182	0.396	0.5769	0.08
Mof_C 	C 	0.0892	0.439	0.0343	0.253
Mof_C 	C 	0.7106	0.2353	0.8583	0.416
Mof_C 	C 	0.8634	0.1071	0.9304	-0.102
Mof_C 	C 	0.8084	0.9704	0.9842	0.091
Mof_C 	C 	0.0492	0.6183	0.5613	0.355
Mof_C 	C 	0.2892	0.5552	0.5281	-0.07
Mof_C 	C 	0.3818	0.604	0.4231	0.08
Mof_C 	C 	0.9108	0.561	0.9657	0.253
Mof_N 	N 	0.9389	0.8639	0.0539	-0.186
Mof_N 	N 	0.593	0.5479	0.393	-0.187
Mof_N 	N 	0.0611	0.1361	0.9461	-0.186
Mof_N 	N 	0.407	0.4521	0.607	-0.187
Mof_O 	O 	0.2162	0.6469	0.184	-0.476
Mof_O 	O 	0.4834	0.7811	0.1525	-0.483
Mof_O 	O 	0.0156	0.4325	0.3406	-0.444
Mof_O 	O 	0.0718	0.2894	0.5093	-0.272
Mof_O 	O 	0.0843	0.4293	0.1308	-0.387
Mof_O 	O 	0.2257	0.3612	0.9868	-0.406
Mof_O 	O 	0.7838	0.3531	0.816	-0.476
Mof_O 	O 	0.5166	0.2189	0.8475	-0.483
Mof_O 	O 	0.9844	0.5675	0.6594	-0.444
Mof_O 	O 	0.9282	0.7106	0.4907	-0.272
Mof_O 	O 	0.9157	0.5707	0.8692	-0.387
Mof_O 	O 	0.7743	0.6388	0.0132	-0.406
_end
