data_functionalizedCrystal
_audit_creation_method	'EQeq! by Chris Wilmer'
_symmetry_space_group_name_H-M	'P1'
_symmetry_Int_Tables_number	1
_symmetry_cell_setting	triclinic
loop_
_symmetry_equiv_pos_as_xyz
  x,y,z
_cell_length_a	6.8434
_cell_length_b	19.014
_cell_length_c	9.4203
_cell_angle_alpha	90
_cell_angle_beta	90
_cell_angle_gamma	90
loop_
_atom_site_label
_atom_site_type_symbol
_atom_site_fract_x
_atom_site_fract_y
_atom_site_fract_z
_atom_site_charge
Mof_Ba	Ba	0.75	0.75	0.47182	1.478
Mof_Ba	Ba	0.25	0.25	0.02818	1.159
Mof_Ba	Ba	0.25	0.25	0.52818	1.446
Mof_Ba	Ba	0.75	0.75	0.97182	1.734
Mof_Zn	Zn	-0	0.5	-0	1.176
Mof_Zn	Zn	0.5	0	-0	1.17
Mof_Zn	Zn	0.5	0.5	0.5	1.246
Mof_Zn	Zn	-2.56787e-33	-2.57425e-33	0.5	1.184
Mof_H 	H 	0.436	0.5705	0.8357	0.253
Mof_H 	H 	0.644	0.5845	0.897	0.251
Mof_H 	H 	0.064	0.9295	0.8357	0.109
Mof_H 	H 	0.856	0.9155	0.897	0.163
Mof_H 	H 	0.936	0.4295	0.6643	0.354
Mof_H 	H 	0.144	0.4155	0.603	0.262
Mof_H 	H 	0.564	0.0705	0.6643	0.273
Mof_H 	H 	0.356	0.0845	0.603	0.246
Mof_H 	H 	0.564	0.4295	0.1643	0.221
Mof_H 	H 	0.356	0.4155	0.103	0.185
Mof_H 	H 	0.936	0.0705	0.1643	0.379
Mof_H 	H 	0.144	0.0845	0.103	0.276
Mof_H 	H 	0.064	0.5705	0.3357	0.108
Mof_H 	H 	0.856	0.5845	0.397	0.164
Mof_H 	H 	0.436	0.9295	0.3357	0.194
Mof_H 	H 	0.644	0.9155	0.397	0.184
Mof_C 	C 	0.6224	0.48937	0.8007	0.542
Mof_C 	C 	0.5744	0.56678	0.8147	-0.76
Mof_C 	C 	0.6175	0.61561	0.6921	0.582
Mof_C 	C 	0.8776	0.01063	0.8007	0.347
Mof_C 	C 	0.9256	0.93322	0.8147	-0.383
Mof_C 	C 	0.8825	0.88439	0.6921	0.477
Mof_C 	C 	0.1224	0.51063	0.6993	0.577
Mof_C 	C 	0.0744	0.43322	0.6853	-0.938
Mof_C 	C 	0.1175	0.38439	0.8079	0.6
Mof_C 	C 	0.3776	0.98937	0.6993	0.66
Mof_C 	C 	0.4256	0.06678	0.6853	-0.896
Mof_C 	C 	0.3825	0.11561	0.8079	0.587
Mof_C 	C 	0.3776	0.51063	0.1993	0.525
Mof_C 	C 	0.4256	0.43322	0.1853	-0.732
Mof_C 	C 	0.3825	0.38439	0.3079	0.547
Mof_C 	C 	0.1224	0.98937	0.1993	0.731
Mof_C 	C 	0.0744	0.06678	0.1853	-1.136
Mof_C 	C 	0.1175	0.11561	0.3079	0.655
Mof_C 	C 	0.8776	0.48937	0.3007	0.481
Mof_C 	C 	0.9256	0.56678	0.3147	-0.528
Mof_C 	C 	0.8825	0.61561	0.1921	0.518
Mof_C 	C 	0.6224	0.01063	0.3007	0.393
Mof_C 	C 	0.5744	0.93322	0.3147	-0.569
Mof_C 	C 	0.6175	0.88439	0.1921	0.532
Mof_O 	O 	0.7092	0.45989	0.9015	-0.381
Mof_O 	O 	0.5658	0.45563	0.6908	-0.492
Mof_O 	O 	0.6138	0.59384	0.5644	-0.575
Mof_O 	O 	0.6546	0.67803	0.7226	-0.632
Mof_O 	O 	0.7908	0.04011	0.9015	-0.368
Mof_O 	O 	0.9342	0.04437	0.6908	-0.435
Mof_O 	O 	0.8862	0.90616	0.5644	-0.485
Mof_O 	O 	0.8454	0.82197	0.7226	-0.586
Mof_O 	O 	0.2092	0.54011	0.5985	-0.495
Mof_O 	O 	0.0658	0.54437	0.8092	-0.522
Mof_O 	O 	0.1138	0.40616	0.9356	-0.513
Mof_O 	O 	0.1546	0.32197	0.7774	-0.585
Mof_O 	O 	0.2908	0.95989	0.5985	-0.472
Mof_O 	O 	0.4342	0.95563	0.8092	-0.467
Mof_O 	O 	0.3862	0.09384	0.9356	-0.514
Mof_O 	O 	0.3454	0.17803	0.7774	-0.568
Mof_O 	O 	0.2908	0.54011	0.0985	-0.532
Mof_O 	O 	0.4342	0.54437	0.3092	-0.521
Mof_O 	O 	0.3862	0.40616	0.4356	-0.57
Mof_O 	O 	0.3454	0.32197	0.2774	-0.597
Mof_O 	O 	0.2092	0.95989	0.0985	-0.541
Mof_O 	O 	0.0658	0.95563	0.3092	-0.56
Mof_O 	O 	0.1138	0.09384	0.4356	-0.641
Mof_O 	O 	0.1546	0.17803	0.2774	-0.646
Mof_O 	O 	0.7908	0.45989	0.4015	-0.43
Mof_O 	O 	0.9342	0.45563	0.1908	-0.464
Mof_O 	O 	0.8862	0.59384	0.0644	-0.597
Mof_O 	O 	0.8454	0.67803	0.2226	-0.636
Mof_O 	O 	0.7092	0.04011	0.4015	-0.435
Mof_O 	O 	0.5658	0.04437	0.1908	-0.522
Mof_O 	O 	0.6138	0.90616	0.0644	-0.592
Mof_O 	O 	0.6546	0.82197	0.2226	-0.653
_end
