data_functionalizedCrystal
_audit_creation_method	'EQeq! by Chris Wilmer'
_symmetry_space_group_name_H-M	'P1'
_symmetry_Int_Tables_number	1
_symmetry_cell_setting	triclinic
loop_
_symmetry_equiv_pos_as_xyz
  x,y,z
_cell_length_a	13.7495
_cell_length_b	13.7495
_cell_length_c	25.533
_cell_angle_alpha	90
_cell_angle_beta	90
_cell_angle_gamma	90
loop_
_atom_site_label
_atom_site_type_symbol
_atom_site_fract_x
_atom_site_fract_y
_atom_site_fract_z
_atom_site_charge
Mof_Ni	Ni	0.09338	0.24906	0.02368	1.081
Mof_Ni	Ni	0.90662	0.75094	0.02368	1.081
Mof_Ni	Ni	0.74906	0.59338	0.47632	1.081
Mof_Ni	Ni	0.25094	0.40662	0.47632	1.081
Mof_H 	H 	0.2003	0.2073	0.9426	0.118
Mof_H 	H 	0.0395	0.2539	0.9002	-0.007
Mof_H 	H 	0.1365	0.1279	0.8638	0.2
Mof_H 	H 	0.0263	0.1316	0.8481	0.194
Mof_H 	H 	0.0622	0.0564	0.89	0.201
Mof_H 	H 	0.9216	0.3655	0.0541	-0.032
Mof_H 	H 	0.8521	0.4352	0.1277	0.092
Mof_H 	H 	0.0541	0.3044	0.2144	0.088
Mof_H 	H 	0.1221	0.2426	0.1376	-0.014
Mof_H 	H 	0.8503	0.4654	0.2204	0.057
Mof_H 	H 	0.1678	0.4434	0.0459	-0.039
Mof_H 	H 	0.3105	0.5258	0.0644	0.087
Mof_H 	H 	0.4481	0.2701	0.0593	0.087
Mof_H 	H 	0.304	0.1968	0.0401	-0.018
Mof_H 	H 	0.5472	0.4143	0.0707	0.055
Mof_H 	H 	0.7997	0.7927	0.9426	0.117
Mof_H 	H 	0.9605	0.7461	0.9002	-0.008
Mof_H 	H 	0.8635	0.8721	0.8638	0.199
Mof_H 	H 	0.9737	0.8684	0.8481	0.193
Mof_H 	H 	0.9378	0.9436	0.89	0.201
Mof_H 	H 	0.0784	0.6345	0.0541	-0.032
Mof_H 	H 	0.1479	0.5648	0.1277	0.092
Mof_H 	H 	0.9459	0.6956	0.2144	0.088
Mof_H 	H 	0.8779	0.7574	0.1376	-0.014
Mof_H 	H 	0.1497	0.5346	0.2204	0.057
Mof_H 	H 	0.8322	0.5566	0.0459	-0.039
Mof_H 	H 	0.6895	0.4742	0.0644	0.087
Mof_H 	H 	0.5519	0.7299	0.0593	0.087
Mof_H 	H 	0.696	0.8032	0.0401	-0.018
Mof_H 	H 	0.4528	0.5857	0.0707	0.055
Mof_H 	H 	0.7073	0.7003	0.5574	0.117
Mof_H 	H 	0.7539	0.5395	0.5998	-0.008
Mof_H 	H 	0.6279	0.6365	0.6362	0.199
Mof_H 	H 	0.6316	0.5263	0.6519	0.194
Mof_H 	H 	0.5564	0.5622	0.61	0.201
Mof_H 	H 	0.8655	0.4216	0.4459	-0.032
Mof_H 	H 	0.9352	0.3521	0.3723	0.092
Mof_H 	H 	0.8044	0.5541	0.2856	0.088
Mof_H 	H 	0.7426	0.6221	0.3624	-0.014
Mof_H 	H 	0.9654	0.3503	0.2796	0.057
Mof_H 	H 	0.9434	0.6678	0.4541	-0.039
Mof_H 	H 	0.0258	0.8105	0.4356	0.087
Mof_H 	H 	0.7701	0.9481	0.4407	0.087
Mof_H 	H 	0.6968	0.804	0.4599	-0.018
Mof_H 	H 	0.9143	0.0472	0.4293	0.055
Mof_H 	H 	0.2927	0.2997	0.5574	0.117
Mof_H 	H 	0.2461	0.4605	0.5998	-0.008
Mof_H 	H 	0.3721	0.3635	0.6362	0.199
Mof_H 	H 	0.3684	0.4737	0.6519	0.194
Mof_H 	H 	0.4436	0.4378	0.61	0.201
Mof_H 	H 	0.1345	0.5784	0.4459	-0.032
Mof_H 	H 	0.0648	0.6479	0.3723	0.092
Mof_H 	H 	0.1956	0.4459	0.2856	0.088
Mof_H 	H 	0.2574	0.3779	0.3624	-0.014
Mof_H 	H 	0.0346	0.6497	0.2796	0.057
Mof_H 	H 	0.0566	0.3322	0.4541	-0.039
Mof_H 	H 	0.9742	0.1895	0.4356	0.087
Mof_H 	H 	0.2299	0.0519	0.4407	0.087
Mof_H 	H 	0.3032	0.196	0.4599	-0.018
Mof_H 	H 	0.0857	0.9528	0.4293	0.055
Mof_C 	C 	0.9634	0.1722	0.9512	0.265
Mof_C 	C 	0.053	0.1925	0.9182	0.079
Mof_C 	C 	0.0711	0.1209	0.8764	-0.57
Mof_C 	C 	0.95	0.3545	0.0866	0.104
Mof_C 	C 	0.9062	0.3951	0.131	-0.197
Mof_C 	C 	0.9438	0.3754	0.1791	0.13
Mof_C 	C 	0.026	0.3184	0.1821	-0.185
Mof_C 	C 	0.0671	0.2817	0.1355	0.092
Mof_C 	C 	0.8983	0.4188	0.226	-0.093
Mof_C 	C 	0.225	0.4075	0.0483	0.098
Mof_C 	C 	0.3107	0.4588	0.0591	-0.184
Mof_C 	C 	0.3976	0.4039	0.0615	0.128
Mof_C 	C 	0.3922	0.3078	0.0559	-0.196
Mof_C 	C 	0.3045	0.2638	0.0451	0.096
Mof_C 	C 	0.4927	0.4538	0.067	-0.09
Mof_C 	C 	0.0366	0.8278	0.9512	0.265
Mof_C 	C 	0.947	0.8075	0.9182	0.079
Mof_C 	C 	0.9289	0.8791	0.8764	-0.57
Mof_C 	C 	0.05	0.6455	0.0866	0.104
Mof_C 	C 	0.0938	0.6049	0.131	-0.197
Mof_C 	C 	0.0562	0.6246	0.1791	0.13
Mof_C 	C 	0.974	0.6816	0.1821	-0.185
Mof_C 	C 	0.9329	0.7183	0.1355	0.092
Mof_C 	C 	0.1017	0.5812	0.226	-0.093
Mof_C 	C 	0.775	0.5925	0.0483	0.098
Mof_C 	C 	0.6893	0.5412	0.0591	-0.184
Mof_C 	C 	0.6024	0.5961	0.0615	0.128
Mof_C 	C 	0.6078	0.6922	0.0559	-0.196
Mof_C 	C 	0.6955	0.7362	0.0451	0.096
Mof_C 	C 	0.5073	0.5462	0.067	-0.09
Mof_C 	C 	0.6722	0.4634	0.5488	0.265
Mof_C 	C 	0.6925	0.553	0.5818	0.079
Mof_C 	C 	0.6209	0.5711	0.6236	-0.57
Mof_C 	C 	0.8545	0.45	0.4134	0.104
Mof_C 	C 	0.8951	0.4062	0.369	-0.197
Mof_C 	C 	0.8754	0.4438	0.3209	0.13
Mof_C 	C 	0.8184	0.526	0.3179	-0.185
Mof_C 	C 	0.7817	0.5671	0.3645	0.092
Mof_C 	C 	0.9188	0.3983	0.274	-0.093
Mof_C 	C 	0.9075	0.725	0.4517	0.098
Mof_C 	C 	0.9588	0.8107	0.4409	-0.184
Mof_C 	C 	0.9039	0.8976	0.4385	0.128
Mof_C 	C 	0.8078	0.8922	0.4441	-0.196
Mof_C 	C 	0.7638	0.8045	0.4549	0.096
Mof_C 	C 	0.9538	0.9927	0.433	-0.09
Mof_C 	C 	0.3278	0.5366	0.5488	0.265
Mof_C 	C 	0.3075	0.447	0.5818	0.079
Mof_C 	C 	0.3791	0.4289	0.6236	-0.57
Mof_C 	C 	0.1455	0.55	0.4134	0.104
Mof_C 	C 	0.1049	0.5938	0.369	-0.197
Mof_C 	C 	0.1246	0.5562	0.3209	0.13
Mof_C 	C 	0.1816	0.474	0.3179	-0.185
Mof_C 	C 	0.2183	0.4329	0.3645	0.092
Mof_C 	C 	0.0812	0.6017	0.274	-0.093
Mof_C 	C 	0.0925	0.275	0.4517	0.098
Mof_C 	C 	0.0412	0.1893	0.4409	-0.184
Mof_C 	C 	0.0961	0.1024	0.4385	0.128
Mof_C 	C 	0.1922	0.1078	0.4441	-0.196
Mof_C 	C 	0.2362	0.1955	0.4549	0.096
Mof_C 	C 	0.0462	0.0073	0.433	-0.09
Mof_N 	N 	0.1377	0.2124	0.9525	-0.303
Mof_N 	N 	0.0296	0.3013	0.0888	-0.26
Mof_N 	N 	0.2185	0.3126	0.0412	-0.272
Mof_N 	N 	0.8623	0.7876	0.9525	-0.303
Mof_N 	N 	0.9704	0.6987	0.0888	-0.26
Mof_N 	N 	0.7815	0.6874	0.0412	-0.272
Mof_N 	N 	0.7124	0.6377	0.5475	-0.304
Mof_N 	N 	0.8013	0.5296	0.4112	-0.26
Mof_N 	N 	0.8126	0.7185	0.4588	-0.272
Mof_N 	N 	0.2876	0.3623	0.5475	-0.304
Mof_N 	N 	0.1987	0.4704	0.4112	-0.26
Mof_N 	N 	0.1874	0.2815	0.4588	-0.272
Mof_O 	O 	0.9691	0.2018	0.99991	-0.424
Mof_O 	O 	0.8907	0.1365	0.93226	-0.364
Mof_O 	O 	0.0309	0.7982	0.99991	-0.424
Mof_O 	O 	0.1093	0.8635	0.93226	-0.364
Mof_O 	O 	0.7018	0.4691	0.50009	-0.424
Mof_O 	O 	0.6365	0.3907	0.56774	-0.364
Mof_O 	O 	0.2982	0.5309	0.50009	-0.424
Mof_O 	O 	0.3635	0.6093	0.56774	-0.364
Mof_Ni	Ni	0.24906	0.90662	0.97632	1.08
Mof_Ni	Ni	0.75094	0.09338	0.97632	1.08
Mof_Ni	Ni	0.59338	0.25094	0.52368	1.08
Mof_Ni	Ni	0.40662	0.74906	0.52368	1.08
Mof_H 	H 	0.2073	0.7997	0.0574	0.117
Mof_H 	H 	0.2539	0.9605	0.0998	-0.008
Mof_H 	H 	0.1279	0.8635	0.1362	0.199
Mof_H 	H 	0.1316	0.9737	0.1519	0.193
Mof_H 	H 	0.0564	0.9378	0.11	0.201
Mof_H 	H 	0.3655	0.0784	0.9459	-0.032
Mof_H 	H 	0.4352	0.1479	0.8723	0.092
Mof_H 	H 	0.3044	0.9459	0.7856	0.088
Mof_H 	H 	0.2426	0.8779	0.8624	-0.014
Mof_H 	H 	0.4654	0.1497	0.7796	0.057
Mof_H 	H 	0.4434	0.8322	0.9541	-0.039
Mof_H 	H 	0.5258	0.6895	0.9356	0.087
Mof_H 	H 	0.2701	0.5519	0.9407	0.087
Mof_H 	H 	0.1968	0.696	0.9599	-0.018
Mof_H 	H 	0.4143	0.4528	0.9293	0.055
Mof_H 	H 	0.7927	0.2003	0.0574	0.117
Mof_H 	H 	0.7461	0.0395	0.0998	-0.008
Mof_H 	H 	0.8721	0.1365	0.1362	0.199
Mof_H 	H 	0.8684	0.0263	0.1519	0.193
Mof_H 	H 	0.9436	0.0622	0.11	0.201
Mof_H 	H 	0.6345	0.9216	0.9459	-0.032
Mof_H 	H 	0.5648	0.8521	0.8723	0.092
Mof_H 	H 	0.6956	0.0541	0.7856	0.088
Mof_H 	H 	0.7574	0.1221	0.8624	-0.014
Mof_H 	H 	0.5346	0.8503	0.7796	0.057
Mof_H 	H 	0.5566	0.1678	0.9541	-0.039
Mof_H 	H 	0.4742	0.3105	0.9356	0.087
Mof_H 	H 	0.7299	0.4481	0.9407	0.087
Mof_H 	H 	0.8032	0.304	0.9599	-0.018
Mof_H 	H 	0.5857	0.5472	0.9293	0.055
Mof_H 	H 	0.7003	0.2927	0.4426	0.117
Mof_H 	H 	0.5395	0.2461	0.4002	-0.008
Mof_H 	H 	0.6365	0.3721	0.3638	0.199
Mof_H 	H 	0.5263	0.3684	0.3481	0.194
Mof_H 	H 	0.5622	0.4436	0.39	0.201
Mof_H 	H 	0.4216	0.1345	0.5541	-0.032
Mof_H 	H 	0.3521	0.0648	0.6277	0.092
Mof_H 	H 	0.5541	0.1956	0.7144	0.088
Mof_H 	H 	0.6221	0.2574	0.6376	-0.014
Mof_H 	H 	0.3503	0.0346	0.7204	0.057
Mof_H 	H 	0.6678	0.0566	0.5459	-0.039
Mof_H 	H 	0.8105	0.9742	0.5644	0.087
Mof_H 	H 	0.9481	0.2299	0.5593	0.087
Mof_H 	H 	0.804	0.3032	0.5401	-0.018
Mof_H 	H 	0.0472	0.0857	0.5707	0.055
Mof_H 	H 	0.2997	0.7073	0.4426	0.117
Mof_H 	H 	0.4605	0.7539	0.4002	-0.008
Mof_H 	H 	0.3635	0.6279	0.3638	0.199
Mof_H 	H 	0.4737	0.6316	0.3481	0.194
Mof_H 	H 	0.4378	0.5564	0.39	0.201
Mof_H 	H 	0.5784	0.8655	0.5541	-0.032
Mof_H 	H 	0.6479	0.9352	0.6277	0.092
Mof_H 	H 	0.4459	0.8044	0.7144	0.088
Mof_H 	H 	0.3779	0.7426	0.6376	-0.014
Mof_H 	H 	0.6497	0.9654	0.7204	0.057
Mof_H 	H 	0.3322	0.9434	0.5459	-0.039
Mof_H 	H 	0.1895	0.0258	0.5644	0.087
Mof_H 	H 	0.0519	0.7701	0.5593	0.087
Mof_H 	H 	0.196	0.6968	0.5401	-0.018
Mof_H 	H 	0.9528	0.9143	0.5707	0.055
Mof_C 	C 	0.1722	0.0366	0.0488	0.265
Mof_C 	C 	0.1925	0.947	0.0818	0.079
Mof_C 	C 	0.1209	0.9289	0.1236	-0.57
Mof_C 	C 	0.3545	0.05	0.9134	0.104
Mof_C 	C 	0.3951	0.0938	0.869	-0.197
Mof_C 	C 	0.3754	0.0562	0.8209	0.13
Mof_C 	C 	0.3184	0.974	0.8179	-0.185
Mof_C 	C 	0.2817	0.9329	0.8645	0.092
Mof_C 	C 	0.4188	0.1017	0.774	-0.093
Mof_C 	C 	0.4075	0.775	0.9517	0.098
Mof_C 	C 	0.4588	0.6893	0.9409	-0.184
Mof_C 	C 	0.4039	0.6024	0.9385	0.128
Mof_C 	C 	0.3078	0.6078	0.9441	-0.196
Mof_C 	C 	0.2638	0.6955	0.9549	0.096
Mof_C 	C 	0.4538	0.5073	0.933	-0.09
Mof_C 	C 	0.8278	0.9634	0.0488	0.265
Mof_C 	C 	0.8075	0.053	0.0818	0.079
Mof_C 	C 	0.8791	0.0711	0.1236	-0.57
Mof_C 	C 	0.6455	0.95	0.9134	0.104
Mof_C 	C 	0.6049	0.9062	0.869	-0.197
Mof_C 	C 	0.6246	0.9438	0.8209	0.13
Mof_C 	C 	0.6816	0.026	0.8179	-0.185
Mof_C 	C 	0.7183	0.0671	0.8645	0.092
Mof_C 	C 	0.5812	0.8983	0.774	-0.093
Mof_C 	C 	0.5925	0.225	0.9517	0.098
Mof_C 	C 	0.5412	0.3107	0.9409	-0.184
Mof_C 	C 	0.5961	0.3976	0.9385	0.128
Mof_C 	C 	0.6922	0.3922	0.9441	-0.196
Mof_C 	C 	0.7362	0.3045	0.9549	0.096
Mof_C 	C 	0.5462	0.4927	0.933	-0.09
Mof_C 	C 	0.4634	0.3278	0.4512	0.265
Mof_C 	C 	0.553	0.3075	0.4182	0.079
Mof_C 	C 	0.5711	0.3791	0.3764	-0.57
Mof_C 	C 	0.45	0.1455	0.5866	0.104
Mof_C 	C 	0.4062	0.1049	0.631	-0.197
Mof_C 	C 	0.4438	0.1246	0.6791	0.13
Mof_C 	C 	0.526	0.1816	0.6821	-0.185
Mof_C 	C 	0.5671	0.2183	0.6355	0.092
Mof_C 	C 	0.3983	0.0812	0.726	-0.093
Mof_C 	C 	0.725	0.0925	0.5483	0.098
Mof_C 	C 	0.8107	0.0412	0.5591	-0.184
Mof_C 	C 	0.8976	0.0961	0.5615	0.128
Mof_C 	C 	0.8922	0.1922	0.5559	-0.196
Mof_C 	C 	0.8045	0.2362	0.5451	0.096
Mof_C 	C 	0.9927	0.0462	0.567	-0.09
Mof_C 	C 	0.5366	0.6722	0.4512	0.265
Mof_C 	C 	0.447	0.6925	0.4182	0.079
Mof_C 	C 	0.4289	0.6209	0.3764	-0.57
Mof_C 	C 	0.55	0.8545	0.5866	0.104
Mof_C 	C 	0.5938	0.8951	0.631	-0.197
Mof_C 	C 	0.5562	0.8754	0.6791	0.13
Mof_C 	C 	0.474	0.8184	0.6821	-0.185
Mof_C 	C 	0.4329	0.7817	0.6355	0.092
Mof_C 	C 	0.6017	0.9188	0.726	-0.093
Mof_C 	C 	0.275	0.9075	0.5483	0.098
Mof_C 	C 	0.1893	0.9588	0.5591	-0.184
Mof_C 	C 	0.1024	0.9039	0.5615	0.128
Mof_C 	C 	0.1078	0.8078	0.5559	-0.196
Mof_C 	C 	0.1955	0.7638	0.5451	0.096
Mof_C 	C 	0.0073	0.9538	0.567	-0.09
Mof_N 	N 	0.2124	0.8623	0.0475	-0.303
Mof_N 	N 	0.3013	0.9704	0.9112	-0.26
Mof_N 	N 	0.3126	0.7815	0.9588	-0.272
Mof_N 	N 	0.7876	0.1377	0.0475	-0.303
Mof_N 	N 	0.6987	0.0296	0.9112	-0.26
Mof_N 	N 	0.6874	0.2185	0.9588	-0.272
Mof_N 	N 	0.6377	0.2876	0.4525	-0.304
Mof_N 	N 	0.5296	0.1987	0.5888	-0.26
Mof_N 	N 	0.7185	0.1874	0.5412	-0.272
Mof_N 	N 	0.3623	0.7124	0.4525	-0.304
Mof_N 	N 	0.4704	0.8013	0.5888	-0.26
Mof_N 	N 	0.2815	0.8126	0.5412	-0.272
Mof_O 	O 	0.2018	0.0309	9e-05	-0.424
Mof_O 	O 	0.1365	0.1093	0.06774	-0.364
Mof_O 	O 	0.7982	0.9691	9e-05	-0.424
Mof_O 	O 	0.8635	0.8907	0.06774	-0.364
Mof_O 	O 	0.4691	0.2982	0.49991	-0.424
Mof_O 	O 	0.3907	0.3635	0.43226	-0.364
Mof_O 	O 	0.5309	0.7018	0.49991	-0.424
Mof_O 	O 	0.6093	0.6365	0.43226	-0.364
_end
