data_functionalizedCrystal
_audit_creation_method	'EQeq! by Chris Wilmer'
_symmetry_space_group_name_H-M	'P1'
_symmetry_Int_Tables_number	1
_symmetry_cell_setting	triclinic
loop_
_symmetry_equiv_pos_as_xyz
  x,y,z
_cell_length_a	9.4755
_cell_length_b	13.0729
_cell_length_c	18.4582
_cell_angle_alpha	107.506
_cell_angle_beta	96.574
_cell_angle_gamma	98.231
loop_
_atom_site_label
_atom_site_type_symbol
_atom_site_fract_x
_atom_site_fract_y
_atom_site_fract_z
_atom_site_charge
Mof_Yb	Yb	0.76572	0.49406	0.9972	1.785
Mof_O 	O 	0.5647	0.4632	0.9118	-0.562
Mof_O 	O 	0.326	0.4453	0.88991	-0.519
Mof_O 	O 	0.1315	0.4509	0.0979	-0.481
Mof_O 	O 	0.8894	0.4168	0.0736	-0.497
Mof_O 	O 	0.1963	0.6611	0.0965	-0.474
Mof_O 	O 	0.9568	0.6242	0.0689	-0.51
Mof_N 	N 	0.4434	0.3291	0.6276	-0.12
Mof_N 	N 	0.9987	0.3604	0.3245	-0.12
Mof_N 	N 	0.0461	0.907	0.3238	-0.124
Mof_C 	C 	0.446	0.4408	0.8694	0.491
Mof_C 	C 	0.4463	0.4037	0.7835	-0.125
Mof_C 	C 	0.32	0.3844	0.7323	-0.016
Mof_H 	H 	0.2345	0.397	0.7505	0.043
Mof_C 	C 	0.3205	0.3464	0.6539	-0.002
Mof_H 	H 	0.2351	0.3328	0.6194	0.032
Mof_C 	C 	0.568	0.3491	0.6759	-0.001
Mof_H 	H 	0.6525	0.3377	0.6561	0.024
Mof_C 	C 	0.573	0.3863	0.7546	-0.015
Mof_H 	H 	0.66	0.3995	0.7879	0.048
Mof_C 	C 	0.4502	0.2901	0.5416	0.035
Mof_H 	H 	0.4979	0.3504	0.5275	-0
Mof_H 	H 	0.5076	0.2331	0.531	0.005
Mof_C 	C 	0.3019	0.2467	0.493	-0.248
Mof_C 	C 	0.225	0.3188	0.4693	0.329
Mof_C 	C 	0.0879	0.2758	0.4236	-0.267
Mof_C 	C 	0.9975	0.3539	0.4048	0.055
Mof_H 	H 	0.8985	0.331	0.4104	-0.005
Mof_H 	H 	0.0332	0.4262	0.4418	-0.003
Mof_C 	C 	0.8771	0.3688	0.2845	0.004
Mof_H 	H 	0.7914	0.3628	0.3043	0.016
Mof_C 	C 	0.876	0.386	0.2148	-0.016
Mof_H 	H 	0.7903	0.3911	0.1872	0.037
Mof_C 	C 	0.0042	0.3957	0.1859	-0.11
Mof_C 	C 	0.0089	0.4237	0.1121	0.462
Mof_C 	C 	0.13	0.3857	0.2286	-0.025
Mof_H 	H 	0.2174	0.3919	0.2105	0.04
Mof_C 	C 	0.1235	0.3665	0.2971	0.009
Mof_H 	H 	0.2065	0.3577	0.325	0.021
Mof_C 	C 	0.0293	0.1644	0.3999	0.346
Mof_C 	C 	0.1075	0.0942	0.4241	-0.253
Mof_C 	C 	0.0349	0.9764	0.4033	0.037
Mof_H 	H 	0.0777	0.9456	0.4403	0.01
Mof_H 	H 	0.9334	0.9735	0.4077	0.004
Mof_C 	C 	0.1744	0.8992	0.3022	0.014
Mof_H 	H 	0.2568	0.9441	0.3348	0.017
Mof_C 	C 	0.1891	0.8276	0.2336	-0.028
Mof_H 	H 	0.2799	0.8221	0.2201	0.041
Mof_C 	C 	0.0644	0.763	0.1844	-0.112
Mof_C 	C 	0.0738	0.6765	0.11	0.456
Mof_C 	C 	0.9326	0.7753	0.206	-0.015
Mof_H 	H 	0.8479	0.7354	0.173	0.038
Mof_C 	C 	0.9262	0.847	0.2767	0.009
Mof_H 	H 	0.8368	0.8538	0.2918	0.014
Mof_C 	C 	0.2442	0.1346	0.4713	0.306
Mof_C 	C 	0.3301	0.0591	0.4984	-0.777
Mof_H 	H 	0.3334	0.0742	0.5528	0.25
Mof_H 	H 	0.4267	0.0709	0.4876	0.244
Mof_H 	H 	0.2843	0.9845	0.4718	0.25
Mof_C 	C 	0.8832	0.1225	0.3508	-0.855
Mof_H 	H 	0.8482	0.0496	0.3502	0.277
Mof_H 	H 	0.8899	0.1222	0.2993	0.285
Mof_H 	H 	0.8176	0.1689	0.3715	0.273
Mof_C 	C 	0.2871	0.4389	0.4953	-0.83
Mof_H 	H 	0.3256	0.4573	0.4539	0.264
Mof_H 	H 	0.3629	0.4564	0.5387	0.27
Mof_H 	H 	0.2125	0.4797	0.5098	0.27
Mof_Yb	Yb	0.23428	0.50594	0.0028	1.784
Mof_O 	O 	0.4353	0.5368	0.0882	-0.563
Mof_O 	O 	0.674	0.5547	0.11009	-0.519
Mof_O 	O 	0.8685	0.5491	0.9021	-0.481
Mof_O 	O 	0.1106	0.5832	0.9264	-0.497
Mof_O 	O 	0.8037	0.3389	0.9035	-0.474
Mof_O 	O 	0.0432	0.3758	0.9311	-0.51
Mof_N 	N 	0.5566	0.6709	0.3724	-0.12
Mof_N 	N 	0.0013	0.6396	0.6755	-0.12
Mof_N 	N 	0.9539	0.093	0.6762	-0.124
Mof_C 	C 	0.554	0.5592	0.1306	0.491
Mof_C 	C 	0.5537	0.5963	0.2165	-0.125
Mof_C 	C 	0.68	0.6156	0.2677	-0.016
Mof_H 	H 	0.7655	0.603	0.2495	0.043
Mof_C 	C 	0.6795	0.6536	0.3461	-0.002
Mof_H 	H 	0.7649	0.6672	0.3806	0.032
Mof_C 	C 	0.432	0.6509	0.3241	-0.001
Mof_H 	H 	0.3475	0.6623	0.3439	0.024
Mof_C 	C 	0.427	0.6137	0.2454	-0.015
Mof_H 	H 	0.34	0.6005	0.2121	0.048
Mof_C 	C 	0.5498	0.7099	0.4584	0.035
Mof_H 	H 	0.5021	0.6496	0.4725	-0
Mof_H 	H 	0.4924	0.7669	0.469	0.005
Mof_C 	C 	0.6981	0.7533	0.507	-0.248
Mof_C 	C 	0.775	0.6812	0.5307	0.329
Mof_C 	C 	0.9121	0.7242	0.5764	-0.267
Mof_C 	C 	0.0025	0.6461	0.5952	0.055
Mof_H 	H 	0.1015	0.669	0.5896	-0.005
Mof_H 	H 	0.9668	0.5738	0.5582	-0.003
Mof_C 	C 	0.1229	0.6312	0.7155	0.004
Mof_H 	H 	0.2086	0.6372	0.6957	0.016
Mof_C 	C 	0.124	0.614	0.7852	-0.016
Mof_H 	H 	0.2097	0.6089	0.8128	0.037
Mof_C 	C 	0.9958	0.6043	0.8141	-0.11
Mof_C 	C 	0.9911	0.5763	0.8879	0.462
Mof_C 	C 	0.87	0.6143	0.7714	-0.025
Mof_H 	H 	0.7826	0.6081	0.7895	0.04
Mof_C 	C 	0.8765	0.6335	0.7029	0.009
Mof_H 	H 	0.7935	0.6423	0.675	0.021
Mof_C 	C 	0.9707	0.8356	0.6001	0.346
Mof_C 	C 	0.8925	0.9058	0.5759	-0.253
Mof_C 	C 	0.9651	0.0236	0.5967	0.037
Mof_H 	H 	0.9223	0.0544	0.5597	0.01
Mof_H 	H 	0.0666	0.0265	0.5923	0.004
Mof_C 	C 	0.8256	0.1008	0.6978	0.014
Mof_H 	H 	0.7432	0.0559	0.6652	0.017
Mof_C 	C 	0.8109	0.1724	0.7664	-0.028
Mof_H 	H 	0.7201	0.1779	0.7799	0.041
Mof_C 	C 	0.9356	0.237	0.8156	-0.112
Mof_C 	C 	0.9262	0.3235	0.89	0.456
Mof_C 	C 	0.0674	0.2247	0.794	-0.015
Mof_H 	H 	0.1521	0.2646	0.827	0.038
Mof_C 	C 	0.0738	0.153	0.7233	0.009
Mof_H 	H 	0.1632	0.1462	0.7082	0.014
Mof_C 	C 	0.7558	0.8654	0.5287	0.306
Mof_C 	C 	0.6699	0.9409	0.5016	-0.777
Mof_H 	H 	0.6666	0.9258	0.4472	0.25
Mof_H 	H 	0.5733	0.9291	0.5124	0.244
Mof_H 	H 	0.7157	0.0155	0.5282	0.25
Mof_C 	C 	0.1168	0.8775	0.6492	-0.855
Mof_H 	H 	0.1518	0.9504	0.6498	0.277
Mof_H 	H 	0.1101	0.8778	0.7007	0.285
Mof_H 	H 	0.1824	0.8311	0.6285	0.273
Mof_C 	C 	0.7129	0.5611	0.5047	-0.83
Mof_H 	H 	0.6744	0.5427	0.5461	0.264
Mof_H 	H 	0.6371	0.5436	0.4613	0.27
Mof_H 	H 	0.7875	0.5203	0.4902	0.27
_end
