data_functionalizedCrystal
_audit_creation_method	'EQeq! by Chris Wilmer'
_symmetry_space_group_name_H-M	'P1'
_symmetry_Int_Tables_number	1
_symmetry_cell_setting	triclinic
loop_
_symmetry_equiv_pos_as_xyz
  x,y,z
_cell_length_a	8.16
_cell_length_b	10.715
_cell_length_c	22.912
_cell_angle_alpha	90
_cell_angle_beta	90
_cell_angle_gamma	102.583
loop_
_atom_site_label
_atom_site_type_symbol
_atom_site_fract_x
_atom_site_fract_y
_atom_site_fract_z
_atom_site_charge
Mof_Na	Na	0.5423	0.5161	0.57274	2.362
Mof_Na	Na	0.4577	0.4839	0.07274	2.361
Mof_Na	Na	0.4577	0.4839	0.42726	2.362
Mof_Na	Na	0.5423	0.5161	0.92726	2.361
Mof_Mo	Mo	0.87824	0.76122	0.67081	1.617
Mof_Mo	Mo	0.15415	0.9952	0.59975	1.024
Mof_Mo	Mo	0.42651	0.24834	0.6765	1.468
Mof_Mo	Mo	0.12176	0.23878	0.17081	1.616
Mof_Mo	Mo	0.84585	0.0048	0.09975	1.02
Mof_Mo	Mo	0.57349	0.75166	0.1765	1.469
Mof_Mo	Mo	0.12176	0.23878	0.32919	1.616
Mof_Mo	Mo	0.84585	0.0048	0.40025	1.023
Mof_Mo	Mo	0.57349	0.75166	0.3235	1.468
Mof_Mo	Mo	0.87824	0.76122	0.82919	1.616
Mof_Mo	Mo	0.15415	0.9952	0.90025	1.02
Mof_Mo	Mo	0.42651	0.24834	0.8235	1.469
Mof_P 	P 	0.2604	0.69941	0.63052	0.483
Mof_P 	P 	0.7396	0.30059	0.13052	0.483
Mof_P 	P 	0.7396	0.30059	0.36948	0.483
Mof_P 	P 	0.2604	0.69941	0.86948	0.483
Mof_P 	P 	0.2105	0.9692	0.75	0.528
Mof_P 	P 	0.7895	0.0308	0.25	0.528
Mof_H 	H 	0.3767	0.5922	0.703	-0.004
Mof_H 	H 	0.4988	0.7233	0.6894	-0.011
Mof_H 	H 	0.4688	0.9067	0.7852	0.04
Mof_H 	H 	0.6233	0.4078	0.203	-0.004
Mof_H 	H 	0.5012	0.2767	0.1894	-0.011
Mof_H 	H 	0.5312	0.0933	0.2852	0.041
Mof_H 	H 	0.6233	0.4078	0.297	-0.004
Mof_H 	H 	0.5012	0.2767	0.3106	-0.011
Mof_H 	H 	0.5312	0.0933	0.2148	0.04
Mof_H 	H 	0.3767	0.5922	0.797	-0.004
Mof_H 	H 	0.4988	0.7233	0.8106	-0.011
Mof_H 	H 	0.4688	0.9067	0.7148	0.041
Mof_C 	C 	0.3822	0.6823	0.6962	-0.148
Mof_C 	C 	0.6178	0.3177	0.1962	-0.148
Mof_C 	C 	0.6178	0.3177	0.3038	-0.148
Mof_C 	C 	0.3822	0.6823	0.8038	-0.148
Mof_C 	C 	0.3799	0.8852	0.75	-0.133
Mof_C 	C 	0.7107	0.1426	0.75	0.37
Mof_C 	C 	0.8919	0.1374	0.75	-0.241
Mof_C 	C 	0.6201	0.1148	0.25	-0.133
Mof_C 	C 	0.2893	0.8574	0.25	0.37
Mof_C 	C 	0.1081	0.8626	0.25	-0.241
Mof_N 	N 	0.3216	0.7393	0.75	-0.073
Mof_N 	N 	0.6784	0.2607	0.25	-0.073
Mof_O 	O 	0.7392	0.6321	0.6441	-0.835
Mof_O 	O 	0.9686	0.8465	0.5992	-0.665
Mof_O 	O 	0.107	0.929	0.6951	-0.498
Mof_O 	O 	0.0813	0.6627	0.6541	-0.413
Mof_O 	O 	0.3565	0.0945	0.6331	-0.627
Mof_O 	O 	0.3035	0.8369	0.6087	-0.389
Mof_O 	O 	0.5719	0.3382	0.6305	-0.813
Mof_O 	O 	0.6373	0.1479	0.7012	-0.399
Mof_O 	O 	0.3023	0.6032	0.5881	-0.658
Mof_O 	O 	0.3983	0.3455	0.5086	-0.83
Mof_O 	O 	0.2608	0.3679	0.1441	-0.835
Mof_O 	O 	0.0314	0.1535	0.0992	-0.665
Mof_O 	O 	0.893	0.071	0.1951	-0.498
Mof_O 	O 	0.9187	0.3373	0.1541	-0.413
Mof_O 	O 	0.6435	0.9055	0.1331	-0.625
Mof_O 	O 	0.6965	0.1631	0.1087	-0.389
Mof_O 	O 	0.4281	0.6618	0.1305	-0.813
Mof_O 	O 	0.3627	0.8521	0.2012	-0.398
Mof_O 	O 	0.6977	0.3968	0.0881	-0.658
Mof_O 	O 	0.6017	0.6545	0.0086	-0.829
Mof_O 	O 	0.2608	0.3679	0.3559	-0.835
Mof_O 	O 	0.0314	0.1535	0.4008	-0.665
Mof_O 	O 	0.893	0.071	0.3049	-0.498
Mof_O 	O 	0.9187	0.3373	0.3459	-0.413
Mof_O 	O 	0.6435	0.9055	0.3669	-0.627
Mof_O 	O 	0.6965	0.1631	0.3913	-0.389
Mof_O 	O 	0.4281	0.6618	0.3695	-0.813
Mof_O 	O 	0.3627	0.8521	0.2988	-0.399
Mof_O 	O 	0.6977	0.3968	0.4119	-0.658
Mof_O 	O 	0.6017	0.6545	0.4914	-0.83
Mof_O 	O 	0.7392	0.6321	0.8559	-0.835
Mof_O 	O 	0.9686	0.8465	0.9008	-0.665
Mof_O 	O 	0.107	0.929	0.8049	-0.498
Mof_O 	O 	0.0813	0.6627	0.8459	-0.413
Mof_O 	O 	0.3565	0.0945	0.8669	-0.625
Mof_O 	O 	0.3035	0.8369	0.8913	-0.389
Mof_O 	O 	0.5719	0.3382	0.8695	-0.813
Mof_O 	O 	0.6373	0.1479	0.7988	-0.398
Mof_O 	O 	0.3023	0.6032	0.9119	-0.658
Mof_O 	O 	0.3983	0.3455	0.9914	-0.829
Mof_O 	O 	0.9164	0.7116	0.75	-0.669
Mof_O 	O 	0.5005	0.3307	0.75	-0.665
Mof_O 	O 	0.2942	0.1124	0.75	-0.524
Mof_O 	O 	0.0836	0.2884	0.25	-0.669
Mof_O 	O 	0.4995	0.6693	0.25	-0.665
Mof_O 	O 	0.7058	0.8876	0.25	-0.524
_end
