data_functionalizedCrystal
_audit_creation_method	'EQeq! by Chris Wilmer'
_symmetry_space_group_name_H-M	'P1'
_symmetry_Int_Tables_number	1
_symmetry_cell_setting	triclinic
loop_
_symmetry_equiv_pos_as_xyz
  x,y,z
_cell_length_a	12.8454
_cell_length_b	24.9959
_cell_length_c	24.9959
_cell_angle_alpha	62.8717
_cell_angle_beta	80.1366
_cell_angle_gamma	99.8634
loop_
_atom_site_label
_atom_site_type_symbol
_atom_site_fract_x
_atom_site_fract_y
_atom_site_fract_z
_atom_site_charge
Mof_Cu	Cu	0.5468	0.45688	-0	0.885
Mof_Cu	Cu	0.5468	3.37022e-17	0.54312	0.885
Mof_Cu	Cu	0.08992	0.54312	0.45688	0.905
Mof_Cu	Cu	0.4532	0.54311	-0	0.885
Mof_Cu	Cu	0.91009	0.45689	0.54311	0.905
Mof_Cu	Cu	0.4532	0	0.45688	0.885
Mof_H 	H 	0.4237	0.429	0.8646	0.071
Mof_H 	H 	0.2859	0.5638	0.8626	0.064
Mof_H 	H 	0.6471	0.3302	0.7817	0.039
Mof_H 	H 	0.4489	0.3054	0.8271	0.032
Mof_H 	H 	0.8155	0.4522	0.7036	0.128
Mof_H 	H 	0.7634	0.5072	0.6998	0.119
Mof_H 	H 	0.7554	0.4831	0.6508	0.124
Mof_H 	H 	0.3013	0.3663	0.8142	0.063
Mof_H 	H 	0.3298	0.4185	0.7419	0.067
Mof_H 	H 	0.2883	0.8646	0.7064	0.072
Mof_H 	H 	0.1485	0.8626	0.5736	0.063
Mof_H 	H 	0.4288	0.7817	0.8881	0.046
Mof_H 	H 	0.276	0.8271	0.8675	0.04
Mof_H 	H 	0.5191	0.7036	0.8442	0.13
Mof_H 	H 	0.4632	0.6998	0.793	0.118
Mof_H 	H 	0.4062	0.6508	0.8661	0.129
Mof_H 	H 	0.1155	0.8142	0.8195	0.069
Mof_H 	H 	0.0717	0.7419	0.8396	0.073
Mof_H 	H 	0.9947	0.7064	0.429	0.066
Mof_H 	H 	0.7221	0.5736	0.5638	0.059
Mof_H 	H 	0.3169	0.8881	0.3302	0.043
Mof_H 	H 	0.1435	0.8675	0.3054	0.032
Mof_H 	H 	0.3633	0.8442	0.4522	0.13
Mof_H 	H 	0.2562	0.793	0.5072	0.118
Mof_H 	H 	0.2723	0.8661	0.4831	0.129
Mof_H 	H 	0.935	0.8195	0.3663	0.062
Mof_H 	H 	0.9113	0.8396	0.4185	0.071
Mof_H 	H 	0.7117	0.7064	0.8646	0.072
Mof_H 	H 	0.8515	0.5736	0.8626	0.063
Mof_H 	H 	0.5712	0.8881	0.7817	0.046
Mof_H 	H 	0.724	0.8675	0.8271	0.04
Mof_H 	H 	0.4809	0.8442	0.7036	0.13
Mof_H 	H 	0.5368	0.793	0.6998	0.118
Mof_H 	H 	0.5938	0.8661	0.6508	0.129
Mof_H 	H 	0.8845	0.8195	0.8142	0.069
Mof_H 	H 	0.9283	0.8396	0.7419	0.073
Mof_H 	H 	0.0053	0.429	0.7064	0.066
Mof_H 	H 	0.2779	0.5638	0.5736	0.059
Mof_H 	H 	0.6831	0.3302	0.8881	0.043
Mof_H 	H 	0.8565	0.3054	0.8675	0.032
Mof_H 	H 	0.6367	0.4522	0.8442	0.13
Mof_H 	H 	0.7438	0.5072	0.793	0.118
Mof_H 	H 	0.7277	0.4831	0.8661	0.129
Mof_H 	H 	0.065	0.3663	0.8195	0.062
Mof_H 	H 	0.0887	0.4185	0.8396	0.071
Mof_H 	H 	0.5763	0.8646	0.429	0.07
Mof_H 	H 	0.7141	0.8626	0.5638	0.063
Mof_H 	H 	0.3529	0.7817	0.3302	0.038
Mof_H 	H 	0.5511	0.8271	0.3054	0.031
Mof_H 	H 	0.1845	0.7036	0.4522	0.127
Mof_H 	H 	0.2366	0.6998	0.5072	0.118
Mof_H 	H 	0.2446	0.6508	0.4831	0.124
Mof_H 	H 	0.6987	0.8142	0.3663	0.063
Mof_H 	H 	0.6702	0.7419	0.4185	0.067
Mof_H 	H 	0.5763	0.571	0.1354	0.063
Mof_H 	H 	0.7141	0.4362	0.1374	0.055
Mof_H 	H 	0.3529	0.6698	0.2183	0.037
Mof_H 	H 	0.5511	0.6946	0.1729	0.026
Mof_H 	H 	0.1845	0.5478	0.2964	0.128
Mof_H 	H 	0.2366	0.4928	0.3002	0.118
Mof_H 	H 	0.2446	0.5169	0.3492	0.124
Mof_H 	H 	0.6987	0.6337	0.1858	0.057
Mof_H 	H 	0.6702	0.5815	0.2581	0.066
Mof_H 	H 	0.7117	0.1354	0.2936	0.061
Mof_H 	H 	0.8515	0.1374	0.4264	0.055
Mof_H 	H 	0.5712	0.2183	0.1119	0.029
Mof_H 	H 	0.724	0.1729	0.1325	0.018
Mof_H 	H 	0.4809	0.2964	0.1558	0.125
Mof_H 	H 	0.5368	0.3002	0.207	0.118
Mof_H 	H 	0.5938	0.3492	0.1339	0.121
Mof_H 	H 	0.8845	0.1858	0.1805	0.051
Mof_H 	H 	0.9283	0.2581	0.1604	0.06
Mof_H 	H 	0.0053	0.2936	0.571	0.066
Mof_H 	H 	0.2779	0.4264	0.4362	0.059
Mof_H 	H 	0.6831	0.1119	0.6698	0.032
Mof_H 	H 	0.8565	0.1325	0.6946	0.026
Mof_H 	H 	0.6367	0.1558	0.5478	0.126
Mof_H 	H 	0.7438	0.207	0.4928	0.118
Mof_H 	H 	0.7277	0.1339	0.5169	0.121
Mof_H 	H 	0.065	0.1805	0.6337	0.057
Mof_H 	H 	0.0887	0.1604	0.5815	0.062
Mof_H 	H 	0.2883	0.2936	0.1354	0.061
Mof_H 	H 	0.1485	0.4264	0.1374	0.055
Mof_H 	H 	0.4288	0.1119	0.2183	0.029
Mof_H 	H 	0.276	0.1325	0.1729	0.018
Mof_H 	H 	0.5191	0.1558	0.2964	0.125
Mof_H 	H 	0.4632	0.207	0.3002	0.118
Mof_H 	H 	0.4062	0.1339	0.3492	0.121
Mof_H 	H 	0.1155	0.1805	0.1858	0.051
Mof_H 	H 	0.0717	0.1604	0.2581	0.06
Mof_H 	H 	0.9947	0.571	0.2936	0.066
Mof_H 	H 	0.7221	0.4362	0.4264	0.059
Mof_H 	H 	0.3169	0.6698	0.1119	0.032
Mof_H 	H 	0.1435	0.6946	0.1325	0.026
Mof_H 	H 	0.3633	0.5478	0.1558	0.126
Mof_H 	H 	0.2562	0.4928	0.207	0.118
Mof_H 	H 	0.2723	0.5169	0.1339	0.121
Mof_H 	H 	0.935	0.6337	0.1805	0.057
Mof_H 	H 	0.9113	0.5815	0.1604	0.062
Mof_H 	H 	0.4237	0.1354	0.571	0.063
Mof_H 	H 	0.2859	0.1374	0.4362	0.055
Mof_H 	H 	0.6471	0.2183	0.6698	0.037
Mof_H 	H 	0.4489	0.1729	0.6946	0.026
Mof_H 	H 	0.8155	0.2964	0.5478	0.128
Mof_H 	H 	0.7634	0.3002	0.4928	0.118
Mof_H 	H 	0.7554	0.3492	0.5169	0.124
Mof_H 	H 	0.3013	0.1858	0.6337	0.057
Mof_H 	H 	0.3298	0.2581	0.5815	0.066
Mof_C 	C 	0.41658	0.49911	0.91797	0.323
Mof_C 	C 	0.36601	0.49705	0.86812	-0.037
Mof_C 	C 	0.38226	0.45709	0.84661	-0.061
Mof_C 	C 	0.34025	0.45595	0.7993	0.038
Mof_C 	C 	0.2728	0.4963	0.7762	-0.021
Mof_C 	C 	0.2509	0.5401	0.7981	0.008
Mof_C 	C 	0.2986	0.53786	0.84536	-0.05
Mof_C 	C 	0.606	0.3598	0.7738	-0.015
Mof_C 	C 	0.4966	0.3459	0.7968	0.002
Mof_C 	C 	0.7547	0.4704	0.6942	-0.295
Mof_C 	C 	0.3528	0.4074	0.7806	-0.099
Mof_C 	C 	0.5596	0.4429	0.733	0.085
Mof_C 	C 	0.33455	0.91797	0.58292	0.323
Mof_C 	C 	0.23413	0.86812	0.63483	-0.036
Mof_C 	C 	0.22887	0.84661	0.6963	-0.061
Mof_C 	C 	0.13955	0.7993	0.74475	0.041
Mof_C 	C 	0.049	0.7762	0.7275	-0.021
Mof_C 	C 	0.049	0.7981	0.6618	0.008
Mof_C 	C 	0.14396	0.84536	0.61678	-0.05
Mof_C 	C 	0.3798	0.7738	0.8664	-0.012
Mof_C 	C 	0.2934	0.7968	0.8573	0.006
Mof_C 	C 	0.4489	0.6942	0.8354	-0.296
Mof_C 	C 	0.1334	0.7806	0.812	-0.102
Mof_C 	C 	0.2926	0.733	0.8241	0.089
Mof_C 	C 	0.91747	0.58292	0.49911	0.326
Mof_C 	C 	0.86896	0.63483	0.49705	-0.044
Mof_C 	C 	0.92517	0.6963	0.45709	-0.059
Mof_C 	C 	0.8843	0.74475	0.45595	0.036
Mof_C 	C 	0.7765	0.7275	0.4963	-0.019
Mof_C 	C 	0.7108	0.6618	0.5401	0.004
Mof_C 	C 	0.76074	0.61678	0.53786	-0.048
Mof_C 	C 	0.2462	0.8664	0.3598	-0.013
Mof_C 	C 	0.1507	0.8573	0.3459	0.005
Mof_C 	C 	0.2843	0.8354	0.4704	-0.296
Mof_C 	C 	0.9454	0.812	0.4074	-0.099
Mof_C 	C 	0.1167	0.8241	0.4429	0.089
Mof_C 	C 	0.66545	0.58292	0.91797	0.323
Mof_C 	C 	0.76587	0.63483	0.86812	-0.036
Mof_C 	C 	0.77113	0.6963	0.84661	-0.061
Mof_C 	C 	0.86045	0.74475	0.7993	0.041
Mof_C 	C 	0.951	0.7275	0.7762	-0.021
Mof_C 	C 	0.951	0.6618	0.7981	0.008
Mof_C 	C 	0.85604	0.61678	0.84536	-0.05
Mof_C 	C 	0.6202	0.8664	0.7738	-0.012
Mof_C 	C 	0.7066	0.8573	0.7968	0.006
Mof_C 	C 	0.5511	0.8354	0.6942	-0.296
Mof_C 	C 	0.8666	0.812	0.7806	-0.102
Mof_C 	C 	0.7074	0.8241	0.733	0.089
Mof_C 	C 	0.08253	0.49911	0.58292	0.326
Mof_C 	C 	0.13104	0.49705	0.63483	-0.044
Mof_C 	C 	0.07483	0.45709	0.6963	-0.059
Mof_C 	C 	0.1157	0.45595	0.74475	0.036
Mof_C 	C 	0.2235	0.4963	0.7275	-0.019
Mof_C 	C 	0.2892	0.5401	0.6618	0.004
Mof_C 	C 	0.23926	0.53786	0.61678	-0.048
Mof_C 	C 	0.7538	0.3598	0.8664	-0.013
Mof_C 	C 	0.8493	0.3459	0.8573	0.005
Mof_C 	C 	0.7157	0.4704	0.8354	-0.296
Mof_C 	C 	0.0546	0.4074	0.812	-0.099
Mof_C 	C 	0.8833	0.4429	0.8241	0.089
Mof_C 	C 	0.58342	0.91797	0.49911	0.323
Mof_C 	C 	0.63399	0.86812	0.49705	-0.037
Mof_C 	C 	0.61774	0.84661	0.45709	-0.061
Mof_C 	C 	0.65975	0.7993	0.45595	0.038
Mof_C 	C 	0.7272	0.7762	0.4963	-0.021
Mof_C 	C 	0.7491	0.7981	0.5401	0.008
Mof_C 	C 	0.7014	0.84536	0.53786	-0.05
Mof_C 	C 	0.394	0.7738	0.3598	-0.015
Mof_C 	C 	0.5034	0.7968	0.3459	0.002
Mof_C 	C 	0.2453	0.6942	0.4704	-0.295
Mof_C 	C 	0.6472	0.7806	0.4074	-0.099
Mof_C 	C 	0.4404	0.733	0.4429	0.085
Mof_C 	C 	0.58342	0.50089	0.08203	0.326
Mof_C 	C 	0.63399	0.50295	0.13188	-0.049
Mof_C 	C 	0.61774	0.54291	0.15339	-0.057
Mof_C 	C 	0.65975	0.54405	0.2007	0.032
Mof_C 	C 	0.7272	0.5037	0.2238	-0.019
Mof_C 	C 	0.7491	0.4599	0.2019	0.001
Mof_C 	C 	0.7014	0.46214	0.15464	-0.047
Mof_C 	C 	0.394	0.6402	0.2262	-0.017
Mof_C 	C 	0.5034	0.6541	0.2032	0.002
Mof_C 	C 	0.2453	0.5296	0.3058	-0.295
Mof_C 	C 	0.6472	0.5926	0.2194	-0.096
Mof_C 	C 	0.4404	0.5571	0.267	0.085
Mof_C 	C 	0.66545	0.08203	0.41708	0.326
Mof_C 	C 	0.76587	0.13188	0.36517	-0.05
Mof_C 	C 	0.77113	0.15339	0.3037	-0.056
Mof_C 	C 	0.86045	0.2007	0.25525	0.03
Mof_C 	C 	0.951	0.2238	0.2725	-0.019
Mof_C 	C 	0.951	0.2019	0.3382	0.001
Mof_C 	C 	0.85604	0.15464	0.38322	-0.047
Mof_C 	C 	0.6202	0.2262	0.1336	-0.02
Mof_C 	C 	0.7066	0.2032	0.1427	-0.002
Mof_C 	C 	0.5511	0.3058	0.1646	-0.294
Mof_C 	C 	0.8666	0.2194	0.188	-0.092
Mof_C 	C 	0.7074	0.267	0.1759	0.082
Mof_C 	C 	0.08253	0.41708	0.50089	0.326
Mof_C 	C 	0.13104	0.36517	0.50295	-0.044
Mof_C 	C 	0.07483	0.3037	0.54291	-0.058
Mof_C 	C 	0.1157	0.25525	0.54405	0.034
Mof_C 	C 	0.2235	0.2725	0.5037	-0.02
Mof_C 	C 	0.2892	0.3382	0.4599	0.005
Mof_C 	C 	0.23926	0.38322	0.46214	-0.048
Mof_C 	C 	0.7538	0.1336	0.6402	-0.018
Mof_C 	C 	0.8493	0.1427	0.6541	-0.001
Mof_C 	C 	0.7157	0.1646	0.5296	-0.294
Mof_C 	C 	0.0546	0.188	0.5926	-0.096
Mof_C 	C 	0.8833	0.1759	0.5571	0.082
Mof_C 	C 	0.33455	0.41708	0.08203	0.326
Mof_C 	C 	0.23413	0.36517	0.13188	-0.05
Mof_C 	C 	0.22887	0.3037	0.15339	-0.056
Mof_C 	C 	0.13955	0.25525	0.2007	0.03
Mof_C 	C 	0.049	0.2725	0.2238	-0.019
Mof_C 	C 	0.049	0.3382	0.2019	0.001
Mof_C 	C 	0.14396	0.38322	0.15464	-0.047
Mof_C 	C 	0.3798	0.1336	0.2262	-0.02
Mof_C 	C 	0.2934	0.1427	0.2032	-0.002
Mof_C 	C 	0.4489	0.1646	0.3058	-0.294
Mof_C 	C 	0.1334	0.188	0.2194	-0.092
Mof_C 	C 	0.2926	0.1759	0.267	0.082
Mof_C 	C 	0.91747	0.50089	0.41708	0.326
Mof_C 	C 	0.86896	0.50295	0.36517	-0.044
Mof_C 	C 	0.92517	0.54291	0.3037	-0.058
Mof_C 	C 	0.8843	0.54405	0.25525	0.034
Mof_C 	C 	0.7765	0.5037	0.2725	-0.02
Mof_C 	C 	0.7108	0.4599	0.3382	0.005
Mof_C 	C 	0.76074	0.46214	0.38322	-0.048
Mof_C 	C 	0.2462	0.6402	0.1336	-0.018
Mof_C 	C 	0.1507	0.6541	0.1427	-0.001
Mof_C 	C 	0.2843	0.5296	0.1646	-0.294
Mof_C 	C 	0.9454	0.5926	0.188	-0.096
Mof_C 	C 	0.1167	0.5571	0.1759	0.082
Mof_C 	C 	0.41658	0.08203	0.50089	0.326
Mof_C 	C 	0.36601	0.13188	0.50295	-0.049
Mof_C 	C 	0.38226	0.15339	0.54291	-0.057
Mof_C 	C 	0.34025	0.2007	0.54405	0.032
Mof_C 	C 	0.2728	0.2238	0.5037	-0.019
Mof_C 	C 	0.2509	0.2019	0.4599	0.001
Mof_C 	C 	0.2986	0.15464	0.46214	-0.047
Mof_C 	C 	0.606	0.2262	0.6402	-0.017
Mof_C 	C 	0.4966	0.2032	0.6541	0.002
Mof_C 	C 	0.7547	0.3058	0.5296	-0.295
Mof_C 	C 	0.3528	0.2194	0.5926	-0.096
Mof_C 	C 	0.5596	0.267	0.5571	0.085
Mof_N 	N 	0.4644	0.3995	0.7697	-0.111
Mof_N 	N 	0.6494	0.4237	0.7369	-0.085
Mof_N 	N 	0.2341	0.7697	0.8308	-0.109
Mof_N 	N 	0.3863	0.7369	0.8394	-0.084
Mof_N 	N 	0.0649	0.8308	0.3995	-0.111
Mof_N 	N 	0.2257	0.8394	0.4237	-0.084
Mof_N 	N 	0.7659	0.8308	0.7697	-0.109
Mof_N 	N 	0.6137	0.8394	0.7369	-0.084
Mof_N 	N 	0.9351	0.3995	0.8308	-0.111
Mof_N 	N 	0.7743	0.4237	0.8394	-0.084
Mof_N 	N 	0.5356	0.7697	0.3995	-0.111
Mof_N 	N 	0.3506	0.7369	0.4237	-0.085
Mof_N 	N 	0.5356	0.6005	0.2303	-0.113
Mof_N 	N 	0.3506	0.5763	0.2631	-0.085
Mof_N 	N 	0.7659	0.2303	0.1692	-0.115
Mof_N 	N 	0.6137	0.2631	0.1606	-0.086
Mof_N 	N 	0.9351	0.1692	0.6005	-0.113
Mof_N 	N 	0.7743	0.1606	0.5763	-0.086
Mof_N 	N 	0.2341	0.1692	0.2303	-0.115
Mof_N 	N 	0.3863	0.1606	0.2631	-0.086
Mof_N 	N 	0.0649	0.6005	0.1692	-0.113
Mof_N 	N 	0.2257	0.5763	0.1606	-0.086
Mof_N 	N 	0.4644	0.2303	0.6005	-0.113
Mof_N 	N 	0.6494	0.2631	0.5763	-0.085
Mof_O 	O 	0.47535	0.46145	0.9365	-0.386
Mof_O 	O 	0.3943	0.53606	0.93626	-0.391
Mof_O 	O 	0.41185	0.9365	0.60205	-0.385
Mof_O 	O 	0.33056	0.93626	0.52768	-0.391
Mof_O 	O 	0.0139	0.60205	0.46145	-0.406
Mof_O 	O 	0.85824	0.52768	0.53606	-0.412
Mof_O 	O 	0.58815	0.60205	0.9365	-0.385
Mof_O 	O 	0.66944	0.52768	0.93626	-0.391
Mof_O 	O 	0.9861	0.46145	0.60205	-0.406
Mof_O 	O 	0.14176	0.53606	0.52768	-0.412
Mof_O 	O 	0.52465	0.9365	0.46145	-0.386
Mof_O 	O 	0.6057	0.93626	0.53606	-0.391
Mof_O 	O 	0.52465	0.53855	0.0635	-0.417
Mof_O 	O 	0.6057	0.46394	0.06374	-0.422
Mof_O 	O 	0.58815	0.0635	0.39795	-0.418
Mof_O 	O 	0.66944	0.06374	0.47232	-0.422
Mof_O 	O 	0.9861	0.39795	0.53855	-0.406
Mof_O 	O 	0.14176	0.47232	0.46394	-0.412
Mof_O 	O 	0.41185	0.39795	0.0635	-0.418
Mof_O 	O 	0.33056	0.47232	0.06374	-0.422
Mof_O 	O 	0.0139	0.53855	0.39795	-0.406
Mof_O 	O 	0.85824	0.46394	0.47232	-0.412
Mof_O 	O 	0.47535	0.0635	0.53855	-0.417
Mof_O 	O 	0.3943	0.06374	0.46394	-0.422
_end
