data_functionalizedCrystal
_audit_creation_method	'EQeq! by Chris Wilmer'
_symmetry_space_group_name_H-M	'P1'
_symmetry_Int_Tables_number	1
_symmetry_cell_setting	triclinic
loop_
_symmetry_equiv_pos_as_xyz
  x,y,z
_cell_length_a	18.4819
_cell_length_b	18.4819
_cell_length_c	34.4495
_cell_angle_alpha	90
_cell_angle_beta	90
_cell_angle_gamma	120
loop_
_atom_site_label
_atom_site_type_symbol
_atom_site_fract_x
_atom_site_fract_y
_atom_site_fract_z
_atom_site_charge
Mof_O 	O 	0.58751	0.02745	0.05077	-0.399
Mof_O 	O 	0.62863	0.10934	0.99761	-0.403
Mof_C 	C 	0.6395	0.0906	0.03153	0.347
Mof_C 	C 	0.7209	0.1491	0.051	-0.071
Mof_C 	C 	0.7364	0.1343	0.08877	-0.025
Mof_H 	H 	0.698	0.0855	0.1014	0.058
Mof_C 	C 	0.7963	0.096	0.1633	-0.051
Mof_C 	C 	0.8381	0.2441	0.1762	-0.002
Mof_H 	H 	0.776	0.0525	0.1454	0.053
Mof_C 	C 	0.8031	0.0799	0.2027	-0.046
Mof_C 	C 	0.8394	0.222	0.2171	0.001
Mof_H 	H 	0.7868	0.027	0.2124	0.048
Mof_O 	O 	0.97255	0.56006	0.05077	-0.4
Mof_O 	O 	0.89066	0.51929	0.99761	-0.404
Mof_C 	C 	0.9094	0.5489	0.03153	0.346
Mof_C 	C 	0.8509	0.5718	0.051	-0.072
Mof_C 	C 	0.8657	0.6021	0.08877	-0.026
Mof_H 	H 	0.9145	0.6125	0.1014	0.057
Mof_C 	C 	0.904	0.7003	0.1633	-0.052
Mof_C 	C 	0.7559	0.594	0.1762	-0.003
Mof_H 	H 	0.9475	0.7235	0.1454	0.052
Mof_C 	C 	0.9201	0.7232	0.2027	-0.047
Mof_C 	C 	0.778	0.6174	0.2171	0.001
Mof_H 	H 	0.973	0.7598	0.2124	0.048
Mof_O 	O 	0.43994	0.41249	0.05077	-0.4
Mof_O 	O 	0.48071	0.37137	0.99761	-0.404
Mof_C 	C 	0.4511	0.3605	0.03153	0.346
Mof_C 	C 	0.4282	0.2791	0.051	-0.072
Mof_C 	C 	0.3979	0.2636	0.08877	-0.026
Mof_H 	H 	0.3875	0.302	0.1014	0.057
Mof_C 	C 	0.2997	0.2037	0.1633	-0.052
Mof_C 	C 	0.406	0.1619	0.1762	-0.003
Mof_H 	H 	0.2765	0.224	0.1454	0.052
Mof_C 	C 	0.2768	0.1969	0.2027	-0.047
Mof_C 	C 	0.3826	0.1606	0.2171	0.001
Mof_H 	H 	0.2402	0.2132	0.2124	0.048
Mof_O 	O 	0.41249	0.97255	0.55077	-0.4
Mof_O 	O 	0.37137	0.89066	0.49761	-0.404
Mof_C 	C 	0.3605	0.9094	0.53153	0.346
Mof_C 	C 	0.2791	0.8509	0.551	-0.072
Mof_C 	C 	0.2636	0.8657	0.58877	-0.026
Mof_H 	H 	0.302	0.9145	0.6014	0.057
Mof_C 	C 	0.2037	0.904	0.6633	-0.052
Mof_C 	C 	0.1619	0.7559	0.6762	-0.003
Mof_H 	H 	0.224	0.9475	0.6454	0.052
Mof_C 	C 	0.1969	0.9201	0.7027	-0.047
Mof_C 	C 	0.1606	0.778	0.7171	0.001
Mof_H 	H 	0.2132	0.973	0.7124	0.048
Mof_O 	O 	0.02745	0.43994	0.55077	-0.4
Mof_O 	O 	0.10934	0.48071	0.49761	-0.404
Mof_C 	C 	0.0906	0.4511	0.53153	0.346
Mof_C 	C 	0.1491	0.4282	0.551	-0.072
Mof_C 	C 	0.1343	0.3979	0.58877	-0.026
Mof_H 	H 	0.0855	0.3875	0.6014	0.057
Mof_C 	C 	0.096	0.2997	0.6633	-0.052
Mof_C 	C 	0.2441	0.406	0.6762	-0.003
Mof_H 	H 	0.0525	0.2765	0.6454	0.052
Mof_C 	C 	0.0799	0.2768	0.7027	-0.047
Mof_C 	C 	0.222	0.3826	0.7171	0.001
Mof_H 	H 	0.027	0.2402	0.7124	0.048
Mof_O 	O 	0.56006	0.58751	0.55077	-0.4
Mof_O 	O 	0.51929	0.62863	0.49761	-0.404
Mof_C 	C 	0.5489	0.6395	0.53153	0.346
Mof_C 	C 	0.5718	0.7209	0.551	-0.072
Mof_C 	C 	0.6021	0.7364	0.58877	-0.026
Mof_H 	H 	0.6125	0.698	0.6014	0.057
Mof_C 	C 	0.7003	0.7963	0.6633	-0.052
Mof_C 	C 	0.594	0.8381	0.6762	-0.003
Mof_H 	H 	0.7235	0.776	0.6454	0.052
Mof_C 	C 	0.7232	0.8031	0.7027	-0.047
Mof_C 	C 	0.6174	0.8394	0.7171	0.001
Mof_H 	H 	0.7598	0.7868	0.7124	0.048
Mof_O 	O 	0.02745	0.58751	0.94923	-0.4
Mof_O 	O 	0.10934	0.62863	0.00239	-0.404
Mof_C 	C 	0.0906	0.6395	0.96847	0.346
Mof_C 	C 	0.1491	0.7209	0.949	-0.072
Mof_C 	C 	0.1343	0.7364	0.91123	-0.026
Mof_H 	H 	0.0855	0.698	0.8986	0.057
Mof_C 	C 	0.096	0.7963	0.8367	-0.052
Mof_C 	C 	0.2441	0.8381	0.8238	-0.003
Mof_H 	H 	0.0525	0.776	0.8546	0.052
Mof_C 	C 	0.0799	0.8031	0.7973	-0.047
Mof_C 	C 	0.222	0.8394	0.7829	0.001
Mof_H 	H 	0.027	0.7868	0.7876	0.048
Mof_O 	O 	0.56006	0.97255	0.94923	-0.4
Mof_O 	O 	0.51929	0.89066	0.00239	-0.404
Mof_C 	C 	0.5489	0.9094	0.96847	0.346
Mof_C 	C 	0.5718	0.8509	0.949	-0.072
Mof_C 	C 	0.6021	0.8657	0.91123	-0.026
Mof_H 	H 	0.6125	0.9145	0.8986	0.057
Mof_C 	C 	0.7003	0.904	0.8367	-0.052
Mof_C 	C 	0.594	0.7559	0.8238	-0.003
Mof_H 	H 	0.7235	0.9475	0.8546	0.052
Mof_C 	C 	0.7232	0.9201	0.7973	-0.047
Mof_C 	C 	0.6174	0.778	0.7829	0.001
Mof_H 	H 	0.7598	0.973	0.7876	0.048
Mof_O 	O 	0.41249	0.43994	0.94923	-0.4
Mof_O 	O 	0.37137	0.48071	0.00239	-0.404
Mof_C 	C 	0.3605	0.4511	0.96847	0.346
Mof_C 	C 	0.2791	0.4282	0.949	-0.072
Mof_C 	C 	0.2636	0.3979	0.91123	-0.026
Mof_H 	H 	0.302	0.3875	0.8986	0.057
Mof_C 	C 	0.2037	0.2997	0.8367	-0.052
Mof_C 	C 	0.1619	0.406	0.8238	-0.003
Mof_H 	H 	0.224	0.2765	0.8546	0.052
Mof_C 	C 	0.1969	0.2768	0.7973	-0.047
Mof_C 	C 	0.1606	0.3826	0.7829	0.001
Mof_H 	H 	0.2132	0.2402	0.7876	0.048
Mof_O 	O 	0.97255	0.41249	0.44923	-0.4
Mof_O 	O 	0.89066	0.37137	0.50239	-0.404
Mof_C 	C 	0.9094	0.3605	0.46847	0.346
Mof_C 	C 	0.8509	0.2791	0.449	-0.072
Mof_C 	C 	0.8657	0.2636	0.41123	-0.026
Mof_H 	H 	0.9145	0.302	0.3986	0.057
Mof_C 	C 	0.904	0.2037	0.3367	-0.052
Mof_C 	C 	0.7559	0.1619	0.3238	-0.003
Mof_H 	H 	0.9475	0.224	0.3546	0.052
Mof_C 	C 	0.9201	0.1969	0.2973	-0.047
Mof_C 	C 	0.778	0.1606	0.2829	0.001
Mof_H 	H 	0.973	0.2132	0.2876	0.048
Mof_O 	O 	0.43994	0.02745	0.44923	-0.4
Mof_O 	O 	0.48071	0.10934	0.50239	-0.404
Mof_C 	C 	0.4511	0.0906	0.46847	0.346
Mof_C 	C 	0.4282	0.1491	0.449	-0.072
Mof_C 	C 	0.3979	0.1343	0.41123	-0.026
Mof_H 	H 	0.3875	0.0855	0.3986	0.057
Mof_C 	C 	0.2997	0.096	0.3367	-0.052
Mof_C 	C 	0.406	0.2441	0.3238	-0.003
Mof_H 	H 	0.2765	0.0525	0.3546	0.052
Mof_C 	C 	0.2768	0.0799	0.2973	-0.047
Mof_C 	C 	0.3826	0.222	0.2829	0.001
Mof_H 	H 	0.2402	0.027	0.2876	0.048
Mof_O 	O 	0.58751	0.56006	0.44923	-0.4
Mof_O 	O 	0.62863	0.51929	0.50239	-0.404
Mof_C 	C 	0.6395	0.5489	0.46847	0.346
Mof_C 	C 	0.7209	0.5718	0.449	-0.072
Mof_C 	C 	0.7364	0.6021	0.41123	-0.026
Mof_H 	H 	0.698	0.6125	0.3986	0.057
Mof_C 	C 	0.7963	0.7003	0.3367	-0.052
Mof_C 	C 	0.8381	0.594	0.3238	-0.003
Mof_H 	H 	0.776	0.7235	0.3546	0.052
Mof_C 	C 	0.8031	0.7232	0.2973	-0.047
Mof_C 	C 	0.8394	0.6174	0.2829	0.001
Mof_H 	H 	0.7868	0.7598	0.2876	0.048
Mof_O 	O 	0.41249	0.97255	0.94923	-0.4
Mof_O 	O 	0.37137	0.89066	0.00239	-0.404
Mof_C 	C 	0.3605	0.9094	0.96847	0.346
Mof_C 	C 	0.2791	0.8509	0.949	-0.072
Mof_C 	C 	0.2636	0.8657	0.91123	-0.026
Mof_H 	H 	0.302	0.9145	0.8986	0.057
Mof_C 	C 	0.2037	0.904	0.8367	-0.052
Mof_C 	C 	0.1619	0.7559	0.8238	-0.003
Mof_H 	H 	0.224	0.9475	0.8546	0.052
Mof_C 	C 	0.1969	0.9201	0.7973	-0.047
Mof_C 	C 	0.1606	0.778	0.7829	0.001
Mof_H 	H 	0.2132	0.973	0.7876	0.048
Mof_O 	O 	0.02745	0.43994	0.94923	-0.4
Mof_O 	O 	0.10934	0.48071	0.00239	-0.404
Mof_C 	C 	0.0906	0.4511	0.96847	0.346
Mof_C 	C 	0.1491	0.4282	0.949	-0.072
Mof_C 	C 	0.1343	0.3979	0.91123	-0.026
Mof_H 	H 	0.0855	0.3875	0.8986	0.057
Mof_C 	C 	0.096	0.2997	0.8367	-0.052
Mof_C 	C 	0.2441	0.406	0.8238	-0.003
Mof_H 	H 	0.0525	0.2765	0.8546	0.052
Mof_C 	C 	0.0799	0.2768	0.7973	-0.047
Mof_C 	C 	0.222	0.3826	0.7829	0.001
Mof_H 	H 	0.027	0.2402	0.7876	0.048
Mof_O 	O 	0.56006	0.58751	0.94923	-0.4
Mof_O 	O 	0.51929	0.62863	0.00239	-0.404
Mof_C 	C 	0.5489	0.6395	0.96847	0.346
Mof_C 	C 	0.5718	0.7209	0.949	-0.072
Mof_C 	C 	0.6021	0.7364	0.91123	-0.026
Mof_H 	H 	0.6125	0.698	0.8986	0.057
Mof_C 	C 	0.7003	0.7963	0.8367	-0.052
Mof_C 	C 	0.594	0.8381	0.8238	-0.003
Mof_H 	H 	0.7235	0.776	0.8546	0.052
Mof_C 	C 	0.7232	0.8031	0.7973	-0.047
Mof_C 	C 	0.6174	0.8394	0.7829	0.001
Mof_H 	H 	0.7598	0.7868	0.7876	0.048
Mof_O 	O 	0.58751	0.02745	0.44923	-0.4
Mof_O 	O 	0.62863	0.10934	0.50239	-0.404
Mof_C 	C 	0.6395	0.0906	0.46847	0.346
Mof_C 	C 	0.7209	0.1491	0.449	-0.072
Mof_C 	C 	0.7364	0.1343	0.41123	-0.026
Mof_H 	H 	0.698	0.0855	0.3986	0.057
Mof_C 	C 	0.7963	0.096	0.3367	-0.052
Mof_C 	C 	0.8381	0.2441	0.3238	-0.003
Mof_H 	H 	0.776	0.0525	0.3546	0.052
Mof_C 	C 	0.8031	0.0799	0.2973	-0.047
Mof_C 	C 	0.8394	0.222	0.2829	0.001
Mof_H 	H 	0.7868	0.027	0.2876	0.048
Mof_O 	O 	0.97255	0.56006	0.44923	-0.4
Mof_O 	O 	0.89066	0.51929	0.50239	-0.404
Mof_C 	C 	0.9094	0.5489	0.46847	0.346
Mof_C 	C 	0.8509	0.5718	0.449	-0.072
Mof_C 	C 	0.8657	0.6021	0.41123	-0.026
Mof_H 	H 	0.9145	0.6125	0.3986	0.057
Mof_C 	C 	0.904	0.7003	0.3367	-0.052
Mof_C 	C 	0.7559	0.594	0.3238	-0.003
Mof_H 	H 	0.9475	0.7235	0.3546	0.052
Mof_C 	C 	0.9201	0.7232	0.2973	-0.047
Mof_C 	C 	0.778	0.6174	0.2829	0.001
Mof_H 	H 	0.973	0.7598	0.2876	0.048
Mof_O 	O 	0.43994	0.41249	0.44923	-0.4
Mof_O 	O 	0.48071	0.37137	0.50239	-0.404
Mof_C 	C 	0.4511	0.3605	0.46847	0.346
Mof_C 	C 	0.4282	0.2791	0.449	-0.072
Mof_C 	C 	0.3979	0.2636	0.41123	-0.026
Mof_H 	H 	0.3875	0.302	0.3986	0.057
Mof_C 	C 	0.2997	0.2037	0.3367	-0.052
Mof_C 	C 	0.406	0.1619	0.3238	-0.003
Mof_H 	H 	0.2765	0.224	0.3546	0.052
Mof_C 	C 	0.2768	0.1969	0.2973	-0.047
Mof_C 	C 	0.3826	0.1606	0.2829	0.001
Mof_H 	H 	0.2402	0.2132	0.2876	0.048
Mof_O 	O 	0.97255	0.41249	0.05077	-0.4
Mof_O 	O 	0.89066	0.37137	0.99761	-0.404
Mof_C 	C 	0.9094	0.3605	0.03153	0.346
Mof_C 	C 	0.8509	0.2791	0.051	-0.072
Mof_C 	C 	0.8657	0.2636	0.08877	-0.026
Mof_H 	H 	0.9145	0.302	0.1014	0.057
Mof_C 	C 	0.904	0.2037	0.1633	-0.052
Mof_C 	C 	0.7559	0.1619	0.1762	-0.003
Mof_H 	H 	0.9475	0.224	0.1454	0.052
Mof_C 	C 	0.9201	0.1969	0.2027	-0.047
Mof_C 	C 	0.778	0.1606	0.2171	0.001
Mof_H 	H 	0.973	0.2132	0.2124	0.048
Mof_O 	O 	0.43994	0.02745	0.05077	-0.4
Mof_O 	O 	0.48071	0.10934	0.99761	-0.404
Mof_C 	C 	0.4511	0.0906	0.03153	0.346
Mof_C 	C 	0.4282	0.1491	0.051	-0.072
Mof_C 	C 	0.3979	0.1343	0.08877	-0.026
Mof_H 	H 	0.3875	0.0855	0.1014	0.057
Mof_C 	C 	0.2997	0.096	0.1633	-0.052
Mof_C 	C 	0.406	0.2441	0.1762	-0.003
Mof_H 	H 	0.2765	0.0525	0.1454	0.052
Mof_C 	C 	0.2768	0.0799	0.2027	-0.047
Mof_C 	C 	0.3826	0.222	0.2171	0.001
Mof_H 	H 	0.2402	0.027	0.2124	0.048
Mof_O 	O 	0.58751	0.56006	0.05077	-0.4
Mof_O 	O 	0.62863	0.51929	0.99761	-0.404
Mof_C 	C 	0.6395	0.5489	0.03153	0.346
Mof_C 	C 	0.7209	0.5718	0.051	-0.072
Mof_C 	C 	0.7364	0.6021	0.08877	-0.026
Mof_H 	H 	0.698	0.6125	0.1014	0.057
Mof_C 	C 	0.7963	0.7003	0.1633	-0.052
Mof_C 	C 	0.8381	0.594	0.1762	-0.003
Mof_H 	H 	0.776	0.7235	0.1454	0.052
Mof_C 	C 	0.8031	0.7232	0.2027	-0.047
Mof_C 	C 	0.8394	0.6174	0.2171	0.001
Mof_H 	H 	0.7868	0.7598	0.2124	0.048
Mof_O 	O 	0.02745	0.58751	0.55077	-0.4
Mof_O 	O 	0.10934	0.62863	0.49761	-0.404
Mof_C 	C 	0.0906	0.6395	0.53153	0.346
Mof_C 	C 	0.1491	0.7209	0.551	-0.072
Mof_C 	C 	0.1343	0.7364	0.58877	-0.026
Mof_H 	H 	0.0855	0.698	0.6014	0.057
Mof_C 	C 	0.096	0.7963	0.6633	-0.052
Mof_C 	C 	0.2441	0.8381	0.6762	-0.003
Mof_H 	H 	0.0525	0.776	0.6454	0.052
Mof_C 	C 	0.0799	0.8031	0.7027	-0.047
Mof_C 	C 	0.222	0.8394	0.7171	0.001
Mof_H 	H 	0.027	0.7868	0.7124	0.048
Mof_O 	O 	0.56006	0.97255	0.55077	-0.4
Mof_O 	O 	0.51929	0.89066	0.49761	-0.404
Mof_C 	C 	0.5489	0.9094	0.53153	0.346
Mof_C 	C 	0.5718	0.8509	0.551	-0.072
Mof_C 	C 	0.6021	0.8657	0.58877	-0.026
Mof_H 	H 	0.6125	0.9145	0.6014	0.057
Mof_C 	C 	0.7003	0.904	0.6633	-0.052
Mof_C 	C 	0.594	0.7559	0.6762	-0.003
Mof_H 	H 	0.7235	0.9475	0.6454	0.052
Mof_C 	C 	0.7232	0.9201	0.7027	-0.047
Mof_C 	C 	0.6174	0.778	0.7171	0.001
Mof_H 	H 	0.7598	0.973	0.7124	0.048
Mof_O 	O 	0.41249	0.43994	0.55077	-0.4
Mof_O 	O 	0.37137	0.48071	0.49761	-0.404
Mof_C 	C 	0.3605	0.4511	0.53153	0.346
Mof_C 	C 	0.2791	0.4282	0.551	-0.072
Mof_C 	C 	0.2636	0.3979	0.58877	-0.026
Mof_H 	H 	0.302	0.3875	0.6014	0.057
Mof_C 	C 	0.2037	0.2997	0.6633	-0.052
Mof_C 	C 	0.1619	0.406	0.6762	-0.003
Mof_H 	H 	0.224	0.2765	0.6454	0.052
Mof_C 	C 	0.1969	0.2768	0.7027	-0.047
Mof_C 	C 	0.1606	0.3826	0.7171	0.001
Mof_H 	H 	0.2132	0.2402	0.7124	0.048
Mof_Cu	Cu	0.47568	0.95136	0.03105	0.906
Mof_Cu	Cu	0.04864	0.52432	0.03105	0.906
Mof_Cu	Cu	0.47568	0.52432	0.03105	0.906
Mof_Cu	Cu	0.52432	0.04864	0.53105	0.906
Mof_Cu	Cu	0.95136	0.47568	0.53105	0.906
Mof_Cu	Cu	0.52432	0.47568	0.53105	0.906
Mof_Cu	Cu	0.95136	0.47568	0.96895	0.906
Mof_Cu	Cu	0.52432	0.04864	0.96895	0.906
Mof_Cu	Cu	0.52432	0.47568	0.96895	0.906
Mof_Cu	Cu	0.04864	0.52432	0.46895	0.906
Mof_Cu	Cu	0.47568	0.95136	0.46895	0.906
Mof_Cu	Cu	0.47568	0.52432	0.46895	0.906
Mof_C 	C 	0.77847	0.22153	0.03237	0.017
Mof_H 	H 	0.7684	0.2316	0.007	0.056
Mof_C 	C 	0.8085	0.1915	0.10784	0.003
Mof_C 	C 	0.8207	0.1793	0.15062	0.021
Mof_C 	C 	0.8405	0.1595	0.2282	0.01
Mof_C 	C 	0.77847	0.55694	0.03237	0.016
Mof_H 	H 	0.7684	0.5368	0.007	0.056
Mof_C 	C 	0.8085	0.617	0.10784	0.003
Mof_C 	C 	0.8207	0.6414	0.15062	0.021
Mof_C 	C 	0.8405	0.681	0.2282	0.01
Mof_C 	C 	0.44306	0.22153	0.03237	0.016
Mof_H 	H 	0.4632	0.2316	0.007	0.056
Mof_C 	C 	0.383	0.1915	0.10784	0.003
Mof_C 	C 	0.3586	0.1793	0.15062	0.021
Mof_C 	C 	0.319	0.1595	0.2282	0.01
Mof_C 	C 	0.22153	0.77847	0.53237	0.016
Mof_H 	H 	0.2316	0.7684	0.507	0.056
Mof_C 	C 	0.1915	0.8085	0.60784	0.003
Mof_C 	C 	0.1793	0.8207	0.65062	0.021
Mof_C 	C 	0.1595	0.8405	0.7282	0.01
Mof_C 	C 	0.22153	0.44306	0.53237	0.016
Mof_H 	H 	0.2316	0.4632	0.507	0.056
Mof_C 	C 	0.1915	0.383	0.60784	0.003
Mof_C 	C 	0.1793	0.3586	0.65062	0.021
Mof_C 	C 	0.1595	0.319	0.7282	0.01
Mof_C 	C 	0.55694	0.77847	0.53237	0.016
Mof_H 	H 	0.5368	0.7684	0.507	0.056
Mof_C 	C 	0.617	0.8085	0.60784	0.003
Mof_C 	C 	0.6414	0.8207	0.65062	0.021
Mof_C 	C 	0.681	0.8405	0.7282	0.01
Mof_C 	C 	0.22153	0.77847	0.96763	0.017
Mof_H 	H 	0.2316	0.7684	0.993	0.056
Mof_C 	C 	0.1915	0.8085	0.89216	0.003
Mof_C 	C 	0.1793	0.8207	0.84938	0.021
Mof_C 	C 	0.1595	0.8405	0.7718	0.01
Mof_C 	C 	0.55694	0.77847	0.96763	0.016
Mof_H 	H 	0.5368	0.7684	0.993	0.056
Mof_C 	C 	0.617	0.8085	0.89216	0.003
Mof_C 	C 	0.6414	0.8207	0.84938	0.021
Mof_C 	C 	0.681	0.8405	0.7718	0.01
Mof_C 	C 	0.22153	0.44306	0.96763	0.016
Mof_H 	H 	0.2316	0.4632	0.993	0.056
Mof_C 	C 	0.1915	0.383	0.89216	0.003
Mof_C 	C 	0.1793	0.3586	0.84938	0.021
Mof_C 	C 	0.1595	0.319	0.7718	0.01
Mof_C 	C 	0.77847	0.22153	0.46763	0.016
Mof_H 	H 	0.7684	0.2316	0.493	0.056
Mof_C 	C 	0.8085	0.1915	0.39216	0.003
Mof_C 	C 	0.8207	0.1793	0.34938	0.021
Mof_C 	C 	0.8405	0.1595	0.2718	0.01
Mof_C 	C 	0.44306	0.22153	0.46763	0.016
Mof_H 	H 	0.4632	0.2316	0.493	0.056
Mof_C 	C 	0.383	0.1915	0.39216	0.003
Mof_C 	C 	0.3586	0.1793	0.34938	0.021
Mof_C 	C 	0.319	0.1595	0.2718	0.01
Mof_C 	C 	0.77847	0.55694	0.46763	0.016
Mof_H 	H 	0.7684	0.5368	0.493	0.056
Mof_C 	C 	0.8085	0.617	0.39216	0.003
Mof_C 	C 	0.8207	0.6414	0.34938	0.021
Mof_C 	C 	0.8405	0.681	0.2718	0.01
Mof_C 	C 	0.8508	0.2848	0.25	-0.001
Mof_C 	C 	0.9398	0.3597	0.25	-0.012
Mof_C 	C 	0.7782	0.2996	0.25	-0
Mof_C 	C 	0.7152	0.566	0.25	-0.001
Mof_C 	C 	0.6403	0.5801	0.25	-0.012
Mof_C 	C 	0.7004	0.4786	0.25	-0
Mof_C 	C 	0.434	0.1492	0.25	-0.001
Mof_C 	C 	0.4199	0.0602	0.25	-0.012
Mof_C 	C 	0.5214	0.2218	0.25	-0
Mof_C 	C 	0.1492	0.7152	0.75	-0.001
Mof_C 	C 	0.0602	0.6403	0.75	-0.012
Mof_C 	C 	0.2218	0.7004	0.75	-0
Mof_C 	C 	0.2848	0.434	0.75	-0.001
Mof_C 	C 	0.3597	0.4199	0.75	-0.012
Mof_C 	C 	0.2996	0.5214	0.75	-0
Mof_C 	C 	0.566	0.8508	0.75	-0.001
Mof_C 	C 	0.5801	0.9398	0.75	-0.012
Mof_C 	C 	0.4786	0.7782	0.75	-0
Mof_C 	C 	0.2848	0.8508	0.75	-0.001
Mof_C 	C 	0.3597	0.9398	0.75	-0.012
Mof_C 	C 	0.2996	0.7782	0.75	-0
Mof_C 	C 	0.566	0.7152	0.75	-0.001
Mof_C 	C 	0.5801	0.6403	0.75	-0.012
Mof_C 	C 	0.4786	0.7004	0.75	-0
Mof_C 	C 	0.1492	0.434	0.75	-0.001
Mof_C 	C 	0.0602	0.4199	0.75	-0.012
Mof_C 	C 	0.2218	0.5214	0.75	-0
Mof_C 	C 	0.7152	0.1492	0.25	-0.001
Mof_C 	C 	0.6403	0.0602	0.25	-0.012
Mof_C 	C 	0.7004	0.2218	0.25	-0
Mof_C 	C 	0.434	0.2848	0.25	-0.001
Mof_C 	C 	0.4199	0.3597	0.25	-0.012
Mof_C 	C 	0.5214	0.2996	0.25	-0
Mof_C 	C 	0.8508	0.566	0.25	-0.001
Mof_C 	C 	0.9398	0.5801	0.25	-0.012
Mof_C 	C 	0.7782	0.4786	0.25	-0
_end
