data_functionalizedCrystal
_audit_creation_method	'EQeq! by Chris Wilmer'
_symmetry_space_group_name_H-M	'P1'
_symmetry_Int_Tables_number	1
_symmetry_cell_setting	triclinic
loop_
_symmetry_equiv_pos_as_xyz
  x,y,z
_cell_length_a	10.2363
_cell_length_b	10.6504
_cell_length_c	6.2225
_cell_angle_alpha	90
_cell_angle_beta	114.522
_cell_angle_gamma	90
loop_
_atom_site_label
_atom_site_type_symbol
_atom_site_fract_x
_atom_site_fract_y
_atom_site_fract_z
_atom_site_charge
Mof_C 	C 	0.3179	0.2109	0.5455	-0.06
Mof_H 	H 	0.4009	0.2657	0.5696	0.015
Mof_H 	H 	0.333	0.1742	0.7002	-0.003
Mof_N 	N 	0.3107	0.1091	0.3801	-0.262
Mof_H 	H 	0.2949	0.1435	0.2358	0.054
Mof_H 	H 	0.234	0.0578	0.3595	0.047
Mof_C 	C 	0.8179	0.7109	0.5455	-0.062
Mof_H 	H 	0.9009	0.7657	0.5696	0.042
Mof_H 	H 	0.833	0.6742	0.7002	0.022
Mof_N 	N 	0.8107	0.6091	0.3801	-0.255
Mof_H 	H 	0.7949	0.6435	0.2358	0.077
Mof_H 	H 	0.734	0.5578	0.3595	0.076
Mof_C 	C 	0.6821	0.2109	0.9545	0.023
Mof_H 	H 	0.5991	0.2657	0.9304	-0.004
Mof_H 	H 	0.667	0.1742	0.7998	-0.024
Mof_N 	N 	0.6893	0.1091	0.1199	-0.283
Mof_H 	H 	0.7051	0.1435	0.2642	0.069
Mof_H 	H 	0.766	0.0578	0.1405	0.065
Mof_C 	C 	0.1821	0.7109	0.9545	0.027
Mof_H 	H 	0.0991	0.7657	0.9304	-0.016
Mof_H 	H 	0.167	0.6742	0.7998	-0.027
Mof_N 	N 	0.1893	0.6091	0.1199	-0.285
Mof_H 	H 	0.2051	0.6435	0.2642	0.071
Mof_H 	H 	0.266	0.5578	0.1405	0.074
Mof_C 	C 	0.6821	0.7891	0.4545	-0.027
Mof_H 	H 	0.5991	0.7343	0.4304	0.008
Mof_H 	H 	0.667	0.8258	0.2998	0.005
Mof_N 	N 	0.6893	0.8909	0.6199	-0.268
Mof_H 	H 	0.7051	0.8565	0.7642	0.095
Mof_H 	H 	0.766	0.9422	0.6405	0.11
Mof_C 	C 	0.1821	0.2891	0.4545	-0.024
Mof_H 	H 	0.0991	0.2343	0.4304	-0.019
Mof_H 	H 	0.167	0.3258	0.2998	-0.021
Mof_N 	N 	0.1893	0.3909	0.6199	-0.276
Mof_H 	H 	0.2051	0.3565	0.7642	0.072
Mof_H 	H 	0.266	0.4422	0.6405	0.08
Mof_C 	C 	0.3179	0.7891	0.0455	-0.11
Mof_H 	H 	0.4009	0.7343	0.0696	0.027
Mof_H 	H 	0.333	0.8258	0.2002	0.023
Mof_N 	N 	0.3107	0.8909	0.8801	-0.237
Mof_H 	H 	0.2949	0.8565	0.7358	0.078
Mof_H 	H 	0.234	0.9422	0.8595	0.091
Mof_C 	C 	0.8179	0.2891	0.0455	-0.113
Mof_H 	H 	0.9009	0.2343	0.0696	0.039
Mof_H 	H 	0.833	0.3258	0.2002	0.026
Mof_N 	N 	0.8107	0.3909	0.8801	-0.236
Mof_H 	H 	0.7949	0.3565	0.7358	0.076
Mof_H 	H 	0.734	0.4422	0.8595	0.081
Mof_Ag	Ag	0.5	0	0.5	0.309
Mof_Ag	Ag	1.61259e-33	0.5	0.5	0.311
Mof_Ag	Ag	0.5	0	-0	0.258
Mof_Ag	Ag	5.11258e-33	0.5	-0	0.261
_end
