data_functionalizedCrystal
_audit_creation_method	'EQeq! by Chris Wilmer'
_symmetry_space_group_name_H-M	'P1'
_symmetry_Int_Tables_number	1
_symmetry_cell_setting	triclinic
loop_
_symmetry_equiv_pos_as_xyz
  x,y,z
_cell_length_a	8.9999
_cell_length_b	9.1123
_cell_length_c	9.4932
_cell_angle_alpha	90.837
_cell_angle_beta	94.231
_cell_angle_gamma	94.178
loop_
_atom_site_label
_atom_site_type_symbol
_atom_site_fract_x
_atom_site_fract_y
_atom_site_fract_z
_atom_site_charge
Mof_Ga	Ga	0.28306	0.07308	0.61728	4.678
Mof_Ga	Ga	0.61057	0.34147	0.13351	4.339
Mof_Ga	Ga	0.19182	0.09975	0.09224	4.148
Mof_P 	P 	0.43931	0.14548	0.3364	1.198
Mof_P 	P 	0.36696	0.29998	0.88344	1.284
Mof_P 	P 	0.12759	0.86355	0.8623	1.119
Mof_O 	O 	0.3415	0.179	0.4551	-1.163
Mof_O 	O 	0.3471	0.0617	0.214	-1.349
Mof_O 	O 	0.567	0.0579	0.3829	-1.284
Mof_O 	O 	0.4979	0.2976	0.2798	-1.313
Mof_O 	O 	0.2356	0.2442	0.9683	-1.299
Mof_O 	O 	0.3668	0.2287	0.7397	-1.207
Mof_O 	O 	0.5143	0.2731	0.9674	-1.384
Mof_O 	O 	0.3522	0.4629	0.867	-1.349
Mof_O 	O 	0.1995	0.7164	0.853	-1.244
Mof_O 	O 	0.1358	0.9157	0.019	-1.286
Mof_O 	O 	0.2029	0.9784	0.778	-1.286
Mof_O 	O 	0.9612	0.8323	0.8127	-1.207
Mof_O 	O 	0.0773	0.1595	0.5887	-0.919
Mof_O 	O 	0.8412	0.0949	0.5106	-0.838
Mof_C 	C 	0.9762	0.0731	0.5285	0.361
Mof_Ga	Ga	0.71694	0.92692	0.38272	4.679
Mof_Ga	Ga	0.38943	0.65853	0.86649	4.34
Mof_Ga	Ga	0.80818	0.90025	0.90776	4.148
Mof_P 	P 	0.56069	0.85452	0.6636	1.198
Mof_P 	P 	0.63304	0.70002	0.11656	1.284
Mof_P 	P 	0.87241	0.13645	0.1377	1.119
Mof_O 	O 	0.6585	0.821	0.5449	-1.163
Mof_O 	O 	0.6529	0.9383	0.786	-1.349
Mof_O 	O 	0.433	0.9421	0.6171	-1.284
Mof_O 	O 	0.5021	0.7024	0.7202	-1.313
Mof_O 	O 	0.7644	0.7558	0.0317	-1.299
Mof_O 	O 	0.6332	0.7713	0.2603	-1.207
Mof_O 	O 	0.4857	0.7269	0.0326	-1.384
Mof_O 	O 	0.6478	0.5371	0.133	-1.349
Mof_O 	O 	0.8005	0.2836	0.147	-1.244
Mof_O 	O 	0.8642	0.0843	0.981	-1.286
Mof_O 	O 	0.7971	0.0216	0.222	-1.286
Mof_O 	O 	0.0388	0.1677	0.1873	-1.207
Mof_O 	O 	0.9227	0.8405	0.4113	-0.919
Mof_O 	O 	0.1588	0.9051	0.4894	-0.838
Mof_C 	C 	0.0238	0.9269	0.4715	0.361
_end
