data_functionalizedCrystal
_audit_creation_method	'EQeq! by Chris Wilmer'
_symmetry_space_group_name_H-M	'P1'
_symmetry_Int_Tables_number	1
_symmetry_cell_setting	triclinic
loop_
_symmetry_equiv_pos_as_xyz
  x,y,z
_cell_length_a	30.418
_cell_length_b	16.302
_cell_length_c	21.78
_cell_angle_alpha	90
_cell_angle_beta	133.826
_cell_angle_gamma	90
loop_
_atom_site_label
_atom_site_type_symbol
_atom_site_fract_x
_atom_site_fract_y
_atom_site_fract_z
_atom_site_charge
Mof_O 	O 	0.1761	0.4538	0.91	-0.488
Mof_O 	O 	0.2281	0.3507	0.1571	-0.468
Mof_C 	C 	0.1653	0.449	0.9556	0.38
Mof_Dy	Dy	0.12092	0.38037	0.04512	1.54
Mof_Dy	Dy	0.16001	0.3713	0.80124	1.431
Mof_O 	O 	0.4444	0.1216	0.3481	-0.461
Mof_O 	O 	0.1834	0.5988	0.218	-0.426
Mof_C 	C 	0.1703	0.5449	0.1637	0.348
Mof_O 	O 	0.1379	0.3907	0.9556	-0.515
Mof_O 	O 	0.2598	0.2337	0.1458	-0.468
Mof_O 	O 	0.1432	0.4776	0.1476	-0.476
Mof_N 	N 	0.1743	0.5083	0.0635	-0.182
Mof_N 	N 	0.3731	0.2529	0.292	-0.172
Mof_C 	C 	0.2194	0.6359	0.1304	-0.018
Mof_H 	H 	0.2301	0.6748	0.1701	0.03
Mof_C 	C 	0.1881	0.5646	0.117	-0.057
Mof_O 	O 	0.526	0.1931	0.4541	-0.521
Mof_C 	C 	0.4509	0.323	0.424	-0
Mof_H 	H 	0.4908	0.325	0.4768	0.012
Mof_C 	C 	0.3501	0.3801	0.3175	-0.005
Mof_H 	H 	0.3224	0.4219	0.2988	0.025
Mof_C 	C 	0.1883	0.5195	0.0185	-0.066
Mof_C 	C 	0.3331	0.3139	0.2673	-0.071
Mof_C 	C 	0.268	0.299	0.1819	0.391
Mof_C 	C 	0.2342	0.6477	0.0834	-0.07
Mof_H 	H 	0.2532	0.6957	0.0891	0.036
Mof_C 	C 	0.41	0.3845	0.3981	-0.083
Mof_H 	H 	0.422	0.4287	0.4338	0.041
Mof_C 	C 	0.2202	0.5868	0.0282	-0.017
Mof_H 	H 	0.2318	0.5909	0.9986	0.023
Mof_C 	C 	0.4305	0.2584	0.3687	-0.084
Mof_C 	C 	0.4715	0.1862	0.3946	0.39
Mof_O 	O 	0.6761	0.9538	0.91	-0.487
Mof_O 	O 	0.7281	0.8507	0.1571	-0.467
Mof_C 	C 	0.6653	0.949	0.9556	0.379
Mof_Dy	Dy	0.62092	0.88037	0.04512	1.541
Mof_Dy	Dy	0.66001	0.8713	0.80124	1.431
Mof_O 	O 	0.9444	0.6216	0.3481	-0.461
Mof_O 	O 	0.6834	0.0988	0.218	-0.426
Mof_C 	C 	0.6703	0.0449	0.1637	0.35
Mof_O 	O 	0.6379	0.8907	0.9556	-0.515
Mof_O 	O 	0.7598	0.7337	0.1458	-0.468
Mof_O 	O 	0.6432	0.9776	0.1476	-0.477
Mof_N 	N 	0.6743	0.0083	0.0635	-0.181
Mof_N 	N 	0.8731	0.7529	0.292	-0.171
Mof_C 	C 	0.7194	0.1359	0.1304	-0.014
Mof_H 	H 	0.7301	0.1748	0.1701	0.029
Mof_C 	C 	0.6881	0.0646	0.117	-0.058
Mof_O 	O 	0.026	0.6931	0.4541	-0.522
Mof_C 	C 	0.9509	0.823	0.424	0
Mof_H 	H 	0.9908	0.825	0.4768	0.011
Mof_C 	C 	0.8501	0.8801	0.3175	-0.005
Mof_H 	H 	0.8224	0.9219	0.2988	0.025
Mof_C 	C 	0.6883	0.0195	0.0185	-0.067
Mof_C 	C 	0.8331	0.8139	0.2673	-0.071
Mof_C 	C 	0.768	0.799	0.1819	0.391
Mof_C 	C 	0.7342	0.1477	0.0834	-0.075
Mof_H 	H 	0.7532	0.1957	0.0891	0.038
Mof_C 	C 	0.91	0.8845	0.3981	-0.084
Mof_H 	H 	0.922	0.9287	0.4338	0.04
Mof_C 	C 	0.7202	0.0868	0.0282	-0.009
Mof_H 	H 	0.7318	0.0909	0.9986	0.017
Mof_C 	C 	0.9305	0.7584	0.3687	-0.084
Mof_C 	C 	0.9715	0.6862	0.3946	0.39
Mof_O 	O 	0.8239	0.4538	0.59	-0.487
Mof_O 	O 	0.7719	0.3507	0.3429	-0.467
Mof_C 	C 	0.8347	0.449	0.5444	0.379
Mof_Dy	Dy	0.87908	0.38037	0.45488	1.541
Mof_Dy	Dy	0.83999	0.3713	0.69876	1.43
Mof_O 	O 	0.5556	0.1216	0.1519	-0.46
Mof_O 	O 	0.8166	0.5988	0.282	-0.426
Mof_C 	C 	0.8297	0.5449	0.3363	0.348
Mof_O 	O 	0.8621	0.3907	0.5444	-0.515
Mof_O 	O 	0.7402	0.2337	0.3542	-0.468
Mof_O 	O 	0.8568	0.4776	0.3524	-0.476
Mof_N 	N 	0.8257	0.5083	0.4365	-0.182
Mof_N 	N 	0.6269	0.2529	0.208	-0.172
Mof_C 	C 	0.7806	0.6359	0.3696	-0.016
Mof_H 	H 	0.7699	0.6748	0.3299	0.029
Mof_C 	C 	0.8119	0.5646	0.383	-0.057
Mof_O 	O 	0.474	0.1931	0.0459	-0.52
Mof_C 	C 	0.5491	0.323	0.076	-0
Mof_H 	H 	0.5092	0.325	0.0232	0.012
Mof_C 	C 	0.6499	0.3801	0.1825	-0.005
Mof_H 	H 	0.6776	0.4219	0.2012	0.025
Mof_C 	C 	0.8117	0.5195	0.4815	-0.066
Mof_C 	C 	0.6669	0.3139	0.2327	-0.071
Mof_C 	C 	0.732	0.299	0.3181	0.391
Mof_C 	C 	0.7658	0.6477	0.4166	-0.072
Mof_H 	H 	0.7468	0.6957	0.4109	0.036
Mof_C 	C 	0.59	0.3845	0.1019	-0.083
Mof_H 	H 	0.578	0.4287	0.0662	0.041
Mof_C 	C 	0.7798	0.5868	0.4718	-0.014
Mof_H 	H 	0.7682	0.5909	0.5014	0.02
Mof_C 	C 	0.5695	0.2584	0.1313	-0.084
Mof_C 	C 	0.5285	0.1862	0.1054	0.39
Mof_O 	O 	0.3239	0.9538	0.59	-0.487
Mof_O 	O 	0.2719	0.8507	0.3429	-0.467
Mof_C 	C 	0.3347	0.949	0.5444	0.379
Mof_Dy	Dy	0.37908	0.88037	0.45488	1.542
Mof_Dy	Dy	0.33999	0.8713	0.69876	1.431
Mof_O 	O 	0.0556	0.6216	0.1519	-0.46
Mof_O 	O 	0.3166	0.0988	0.282	-0.426
Mof_C 	C 	0.3297	0.0449	0.3363	0.348
Mof_O 	O 	0.3621	0.8907	0.5444	-0.515
Mof_O 	O 	0.2402	0.7337	0.3542	-0.468
Mof_O 	O 	0.3568	0.9776	0.3524	-0.476
Mof_N 	N 	0.3257	0.0083	0.4365	-0.182
Mof_N 	N 	0.1269	0.7529	0.208	-0.172
Mof_C 	C 	0.2806	0.1359	0.3696	-0.016
Mof_H 	H 	0.2699	0.1748	0.3299	0.029
Mof_C 	C 	0.3119	0.0646	0.383	-0.057
Mof_O 	O 	0.974	0.6931	0.0459	-0.518
Mof_C 	C 	0.0491	0.823	0.076	-0.001
Mof_H 	H 	0.0092	0.825	0.0232	0.011
Mof_C 	C 	0.1499	0.8801	0.1825	-0.005
Mof_H 	H 	0.1776	0.9219	0.2012	0.025
Mof_C 	C 	0.3117	0.0195	0.4815	-0.067
Mof_C 	C 	0.1669	0.8139	0.2327	-0.071
Mof_C 	C 	0.232	0.799	0.3181	0.391
Mof_C 	C 	0.2658	0.1477	0.4166	-0.072
Mof_H 	H 	0.2468	0.1957	0.4109	0.037
Mof_C 	C 	0.09	0.8845	0.1019	-0.083
Mof_H 	H 	0.078	0.9287	0.0662	0.04
Mof_C 	C 	0.2798	0.0868	0.4718	-0.014
Mof_H 	H 	0.2682	0.0909	0.5014	0.02
Mof_C 	C 	0.0695	0.7584	0.1313	-0.084
Mof_C 	C 	0.0285	0.6862	0.1054	0.387
Mof_O 	O 	0.8239	0.5462	0.09	-0.487
Mof_O 	O 	0.7719	0.6493	0.8429	-0.467
Mof_C 	C 	0.8347	0.551	0.0444	0.38
Mof_Dy	Dy	0.87908	0.61963	0.95488	1.54
Mof_Dy	Dy	0.83999	0.6287	0.19876	1.431
Mof_O 	O 	0.5556	0.8784	0.6519	-0.461
Mof_O 	O 	0.8166	0.4012	0.782	-0.426
Mof_C 	C 	0.8297	0.4551	0.8363	0.348
Mof_O 	O 	0.8621	0.6093	0.0444	-0.515
Mof_O 	O 	0.7402	0.7663	0.8542	-0.468
Mof_O 	O 	0.8568	0.5224	0.8524	-0.476
Mof_N 	N 	0.8257	0.4917	0.9365	-0.182
Mof_N 	N 	0.6269	0.7471	0.708	-0.172
Mof_C 	C 	0.7806	0.3641	0.8696	-0.018
Mof_H 	H 	0.7699	0.3252	0.8299	0.03
Mof_C 	C 	0.8119	0.4354	0.883	-0.057
Mof_O 	O 	0.474	0.8069	0.5459	-0.521
Mof_C 	C 	0.5491	0.677	0.576	-0
Mof_H 	H 	0.5092	0.675	0.5232	0.012
Mof_C 	C 	0.6499	0.6199	0.6825	-0.005
Mof_H 	H 	0.6776	0.5781	0.7012	0.025
Mof_C 	C 	0.8117	0.4805	0.9815	-0.066
Mof_C 	C 	0.6669	0.6861	0.7327	-0.071
Mof_C 	C 	0.732	0.701	0.8181	0.391
Mof_C 	C 	0.7658	0.3523	0.9166	-0.07
Mof_H 	H 	0.7468	0.3043	0.9109	0.036
Mof_C 	C 	0.59	0.6155	0.6019	-0.083
Mof_H 	H 	0.578	0.5713	0.5662	0.041
Mof_C 	C 	0.7798	0.4132	0.9718	-0.017
Mof_H 	H 	0.7682	0.4091	0.0014	0.023
Mof_C 	C 	0.5695	0.7416	0.6313	-0.084
Mof_C 	C 	0.5285	0.8138	0.6054	0.39
Mof_O 	O 	0.3239	0.0462	0.09	-0.487
Mof_O 	O 	0.2719	0.1493	0.8429	-0.467
Mof_C 	C 	0.3347	0.051	0.0444	0.379
Mof_Dy	Dy	0.37908	0.11963	0.95488	1.541
Mof_Dy	Dy	0.33999	0.1287	0.19876	1.431
Mof_O 	O 	0.0556	0.3784	0.6519	-0.461
Mof_O 	O 	0.3166	0.9012	0.782	-0.426
Mof_C 	C 	0.3297	0.9551	0.8363	0.35
Mof_O 	O 	0.3621	0.1093	0.0444	-0.515
Mof_O 	O 	0.2402	0.2663	0.8542	-0.468
Mof_O 	O 	0.3568	0.0224	0.8524	-0.477
Mof_N 	N 	0.3257	0.9917	0.9365	-0.181
Mof_N 	N 	0.1269	0.2471	0.708	-0.171
Mof_C 	C 	0.2806	0.8641	0.8696	-0.014
Mof_H 	H 	0.2699	0.8252	0.8299	0.029
Mof_C 	C 	0.3119	0.9354	0.883	-0.058
Mof_O 	O 	0.974	0.3069	0.5459	-0.522
Mof_C 	C 	0.0491	0.177	0.576	0
Mof_H 	H 	0.0092	0.175	0.5232	0.011
Mof_C 	C 	0.1499	0.1199	0.6825	-0.005
Mof_H 	H 	0.1776	0.0781	0.7012	0.025
Mof_C 	C 	0.3117	0.9805	0.9815	-0.067
Mof_C 	C 	0.1669	0.1861	0.7327	-0.071
Mof_C 	C 	0.232	0.201	0.8181	0.391
Mof_C 	C 	0.2658	0.8523	0.9166	-0.075
Mof_H 	H 	0.2468	0.8043	0.9109	0.038
Mof_C 	C 	0.09	0.1155	0.6019	-0.084
Mof_H 	H 	0.078	0.0713	0.5662	0.04
Mof_C 	C 	0.2798	0.9132	0.9718	-0.009
Mof_H 	H 	0.2682	0.9091	0.0014	0.017
Mof_C 	C 	0.0695	0.2416	0.6313	-0.084
Mof_C 	C 	0.0285	0.3138	0.6054	0.39
Mof_O 	O 	0.1761	0.5462	0.41	-0.487
Mof_O 	O 	0.2281	0.6493	0.6571	-0.467
Mof_C 	C 	0.1653	0.551	0.4556	0.379
Mof_Dy	Dy	0.12092	0.61963	0.54512	1.541
Mof_Dy	Dy	0.16001	0.6287	0.30124	1.43
Mof_O 	O 	0.4444	0.8784	0.8481	-0.46
Mof_O 	O 	0.1834	0.4012	0.718	-0.426
Mof_C 	C 	0.1703	0.4551	0.6637	0.348
Mof_O 	O 	0.1379	0.6093	0.4556	-0.515
Mof_O 	O 	0.2598	0.7663	0.6458	-0.468
Mof_O 	O 	0.1432	0.5224	0.6476	-0.476
Mof_N 	N 	0.1743	0.4917	0.5635	-0.182
Mof_N 	N 	0.3731	0.7471	0.792	-0.172
Mof_C 	C 	0.2194	0.3641	0.6304	-0.016
Mof_H 	H 	0.2301	0.3252	0.6701	0.029
Mof_C 	C 	0.1881	0.4354	0.617	-0.057
Mof_O 	O 	0.526	0.8069	0.9541	-0.52
Mof_C 	C 	0.4509	0.677	0.924	-0
Mof_H 	H 	0.4908	0.675	0.9768	0.012
Mof_C 	C 	0.3501	0.6199	0.8175	-0.005
Mof_H 	H 	0.3224	0.5781	0.7988	0.025
Mof_C 	C 	0.1883	0.4805	0.5185	-0.066
Mof_C 	C 	0.3331	0.6861	0.7673	-0.071
Mof_C 	C 	0.268	0.701	0.6819	0.391
Mof_C 	C 	0.2342	0.3523	0.5834	-0.072
Mof_H 	H 	0.2532	0.3043	0.5891	0.036
Mof_C 	C 	0.41	0.6155	0.8981	-0.083
Mof_H 	H 	0.422	0.5713	0.9338	0.041
Mof_C 	C 	0.2202	0.4132	0.5282	-0.014
Mof_H 	H 	0.2318	0.4091	0.4986	0.02
Mof_C 	C 	0.4305	0.7416	0.8687	-0.084
Mof_C 	C 	0.4715	0.8138	0.8946	0.39
Mof_O 	O 	0.6761	0.0462	0.41	-0.487
Mof_O 	O 	0.7281	0.1493	0.6571	-0.467
Mof_C 	C 	0.6653	0.051	0.4556	0.379
Mof_Dy	Dy	0.62092	0.11963	0.54512	1.542
Mof_Dy	Dy	0.66001	0.1287	0.30124	1.431
Mof_O 	O 	0.9444	0.3784	0.8481	-0.46
Mof_O 	O 	0.6834	0.9012	0.718	-0.426
Mof_C 	C 	0.6703	0.9551	0.6637	0.348
Mof_O 	O 	0.6379	0.1093	0.4556	-0.515
Mof_O 	O 	0.7598	0.2663	0.6458	-0.468
Mof_O 	O 	0.6432	0.0224	0.6476	-0.476
Mof_N 	N 	0.6743	0.9917	0.5635	-0.182
Mof_N 	N 	0.8731	0.2471	0.792	-0.172
Mof_C 	C 	0.7194	0.8641	0.6304	-0.016
Mof_H 	H 	0.7301	0.8252	0.6701	0.029
Mof_C 	C 	0.6881	0.9354	0.617	-0.057
Mof_O 	O 	0.026	0.3069	0.9541	-0.518
Mof_C 	C 	0.9509	0.177	0.924	-0.001
Mof_H 	H 	0.9908	0.175	0.9768	0.011
Mof_C 	C 	0.8501	0.1199	0.8175	-0.005
Mof_H 	H 	0.8224	0.0781	0.7988	0.025
Mof_C 	C 	0.6883	0.9805	0.5185	-0.067
Mof_C 	C 	0.8331	0.1861	0.7673	-0.071
Mof_C 	C 	0.768	0.201	0.6819	0.391
Mof_C 	C 	0.7342	0.8523	0.5834	-0.072
Mof_H 	H 	0.7532	0.8043	0.5891	0.037
Mof_C 	C 	0.91	0.1155	0.8981	-0.083
Mof_H 	H 	0.922	0.0713	0.9338	0.04
Mof_C 	C 	0.7202	0.9132	0.5282	-0.014
Mof_H 	H 	0.7318	0.9091	0.4986	0.02
Mof_C 	C 	0.9305	0.2416	0.8687	-0.084
Mof_C 	C 	0.9715	0.3138	0.8946	0.387
_end
