data_functionalizedCrystal
_audit_creation_method	'EQeq! by Chris Wilmer'
_symmetry_space_group_name_H-M	'P1'
_symmetry_Int_Tables_number	1
_symmetry_cell_setting	triclinic
loop_
_symmetry_equiv_pos_as_xyz
  x,y,z
_cell_length_a	12.0495
_cell_length_b	12.2773
_cell_length_c	19.1028
_cell_angle_alpha	91.669
_cell_angle_beta	96.85
_cell_angle_gamma	117.945
loop_
_atom_site_label
_atom_site_type_symbol
_atom_site_fract_x
_atom_site_fract_y
_atom_site_fract_z
_atom_site_charge
Mof_Cd	Cd	0.76911	0.50233	0.77854	0.444
Mof_Cd	Cd	0.58859	0.66969	0.69812	0.473
Mof_Cd	Cd	0.42655	0.32177	0.80199	0.473
Mof_Cd	Cd	0.23089	0.49767	0.22146	0.444
Mof_Cd	Cd	0.41141	0.33031	0.30188	0.473
Mof_Cd	Cd	0.57345	0.67823	0.19801	0.473
Mof_H 	H 	0.7131	0.5428	0.9732	0.059
Mof_H 	H 	0.7018	0.5754	0.095	0.038
Mof_H 	H 	0.0853	0.3305	0.7774	0.06
Mof_H 	H 	0.2139	0.6473	0.6832	0.061
Mof_H 	H 	0.7221	0.1444	0.6886	0.065
Mof_H 	H 	0.4574	0.9815	0.8144	0.06
Mof_H 	H 	0.4537	0.7937	0.7862	0.033
Mof_H 	H 	0.7146	0.9593	0.6603	0.03
Mof_H 	H 	0.8957	0.3347	0.7805	0.029
Mof_H 	H 	0.0281	0.6517	0.6922	0.032
Mof_H 	H 	0.9668	0.0044	0.6707	0.063
Mof_H 	H 	0.0979	0.8589	0.8275	0.064
Mof_H 	H 	0.1566	0.1825	0.695	0.026
Mof_H 	H 	0.282	0.0482	0.8502	0.027
Mof_H 	H 	0.3049	0.2423	0.559	0.063
Mof_H 	H 	0.6822	0.4745	0.5576	0.063
Mof_H 	H 	0.636	0.4428	0.4334	0.036
Mof_H 	H 	0.2716	0.2287	0.4372	0.033
Mof_H 	H 	0.545	0.7551	0.9277	0.063
Mof_H 	H 	0.5321	0.7784	0.0472	0.029
Mof_H 	H 	0.2869	0.4572	0.0268	0.058
Mof_H 	H 	0.2982	0.4246	0.905	0.037
Mof_H 	H 	0.9147	0.6695	0.2226	0.06
Mof_H 	H 	0.7861	0.3527	0.3168	0.061
Mof_H 	H 	0.2779	0.8556	0.3114	0.065
Mof_H 	H 	0.5426	0.0185	0.1856	0.06
Mof_H 	H 	0.5463	0.2063	0.2138	0.033
Mof_H 	H 	0.2854	0.0407	0.3397	0.03
Mof_H 	H 	0.1043	0.6653	0.2195	0.029
Mof_H 	H 	0.9719	0.3483	0.3078	0.032
Mof_H 	H 	0.0332	0.9956	0.3293	0.063
Mof_H 	H 	0.9021	0.1411	0.1725	0.064
Mof_H 	H 	0.8434	0.8175	0.305	0.026
Mof_H 	H 	0.718	0.9518	0.1498	0.027
Mof_H 	H 	0.6951	0.7577	0.441	0.063
Mof_H 	H 	0.3178	0.5255	0.4424	0.063
Mof_H 	H 	0.364	0.5572	0.5666	0.036
Mof_H 	H 	0.7284	0.7713	0.5628	0.033
Mof_H 	H 	0.455	0.2449	0.0723	0.063
Mof_H 	H 	0.4679	0.2216	0.9528	0.029
Mof_C 	C 	0.177	0.4944	0.7344	-0.041
Mof_C 	C 	0.301	0.4954	0.7375	0.308
Mof_C 	C 	0.673	0.5887	0.9875	-0.052
Mof_C 	C 	0.6179	0.6382	0.937	-0.032
Mof_C 	C 	0.6184	0.6085	0.8602	0.303
Mof_C 	C 	0.8822	0.7902	0.7353	0.324
Mof_C 	C 	0.5168	0.3888	0.6533	0.335
Mof_C 	C 	0.6668	0.6094	0.0605	0.032
Mof_C 	C 	0.076	0.3982	0.7604	-0.056
Mof_C 	C 	0.0078	0.9107	0.7479	-0.031
Mof_C 	C 	0.5953	0.2031	0.7755	0.308
Mof_C 	C 	0.1515	0.5844	0.7059	-0.053
Mof_C 	C 	0.5916	0.0839	0.7574	-0.038
Mof_C 	C 	0.6668	0.0732	0.7094	-0.056
Mof_C 	C 	0.5123	0.9788	0.7833	-0.051
Mof_C 	C 	0.5087	0.8651	0.7655	0.036
Mof_C 	C 	0.6613	0.9624	0.6923	0.039
Mof_C 	C 	0.9617	0.4009	0.7617	0.035
Mof_C 	C 	0.0391	0.5851	0.7096	0.031
Mof_C 	C 	0.0298	0.0101	0.7079	-0.066
Mof_C 	C 	0.1067	0.9255	0.8005	-0.061
Mof_C 	C 	0.1439	0.1162	0.7231	0.053
Mof_C 	C 	0.2175	0.0379	0.8128	0.04
Mof_C 	C 	0.4966	0.3655	0.5731	-0.037
Mof_C 	C 	0.3744	0.2872	0.5344	-0.056
Mof_C 	C 	0.5977	0.4233	0.5345	-0.053
Mof_C 	C 	0.5688	0.4022	0.4602	0.04
Mof_C 	C 	0.3555	0.2755	0.462	0.038
Mof_C 	C 	0.5731	0.7132	0.9604	-0.057
Mof_C 	C 	0.5681	0.7289	0.0325	0.04
Mof_C 	C 	0.823	0.5056	0.2656	-0.041
Mof_C 	C 	0.699	0.5046	0.2625	0.308
Mof_C 	C 	0.327	0.4113	0.0125	-0.052
Mof_C 	C 	0.3821	0.3618	0.063	-0.032
Mof_C 	C 	0.3816	0.3915	0.1398	0.303
Mof_C 	C 	0.1178	0.2098	0.2647	0.324
Mof_C 	C 	0.4832	0.6112	0.3467	0.335
Mof_C 	C 	0.3332	0.3906	0.9395	0.032
Mof_C 	C 	0.924	0.6018	0.2396	-0.056
Mof_C 	C 	0.9922	0.0893	0.2521	-0.031
Mof_C 	C 	0.4047	0.7969	0.2245	0.308
Mof_C 	C 	0.8485	0.4156	0.2941	-0.053
Mof_C 	C 	0.4084	0.9161	0.2426	-0.038
Mof_C 	C 	0.3332	0.9268	0.2906	-0.056
Mof_C 	C 	0.4877	0.0212	0.2167	-0.051
Mof_C 	C 	0.4913	0.1349	0.2345	0.036
Mof_C 	C 	0.3387	0.0376	0.3077	0.039
Mof_C 	C 	0.0383	0.5991	0.2383	0.035
Mof_C 	C 	0.9609	0.4149	0.2904	0.031
Mof_C 	C 	0.9702	0.9899	0.2921	-0.066
Mof_C 	C 	0.8933	0.0745	0.1995	-0.061
Mof_C 	C 	0.8561	0.8838	0.2769	0.053
Mof_C 	C 	0.7825	0.9621	0.1872	0.04
Mof_C 	C 	0.5034	0.6345	0.4269	-0.037
Mof_C 	C 	0.6256	0.7128	0.4656	-0.056
Mof_C 	C 	0.4023	0.5767	0.4655	-0.053
Mof_C 	C 	0.4312	0.5978	0.5398	0.04
Mof_C 	C 	0.6445	0.7245	0.538	0.038
Mof_C 	C 	0.4269	0.2868	0.0396	-0.057
Mof_C 	C 	0.4319	0.2711	0.9675	0.04
Mof_N 	N 	0.5823	0.8541	0.7191	-0.125
Mof_N 	N 	0.9404	0.4914	0.7379	-0.131
Mof_N 	N 	0.2374	0.1345	0.7731	-0.133
Mof_N 	N 	0.453	0.3289	0.4252	-0.132
Mof_N 	N 	0.6116	0.6776	0.0816	-0.132
Mof_N 	N 	0.4177	0.1459	0.2809	-0.125
Mof_N 	N 	0.0596	0.5086	0.2621	-0.131
Mof_N 	N 	0.7626	0.8655	0.2269	-0.133
Mof_N 	N 	0.547	0.6711	0.5748	-0.132
Mof_N 	N 	0.3884	0.3224	0.9184	-0.132
Mof_O 	O 	0.617	0.6864	0.82	-0.272
Mof_O 	O 	0.6133	0.4891	0.6803	-0.297
Mof_O 	O 	0.3743	0.5631	0.6938	-0.276
Mof_O 	O 	0.6186	0.5083	0.8422	-0.3
Mof_O 	O 	0.5255	0.2053	0.8181	-0.288
Mof_O 	O 	0.3243	0.4359	0.7811	-0.292
Mof_O 	O 	0.7973	0.7879	0.6934	-0.299
Mof_O 	O 	0.4399	0.3139	0.6841	-0.295
Mof_O 	O 	0.8781	0.7067	0.7739	-0.291
Mof_O 	O 	0.6735	0.2945	0.7475	-0.282
Mof_O 	O 	0.383	0.3136	0.18	-0.272
Mof_O 	O 	0.3867	0.5109	0.3197	-0.297
Mof_O 	O 	0.6257	0.4369	0.3062	-0.276
Mof_O 	O 	0.3814	0.4917	0.1578	-0.3
Mof_O 	O 	0.4745	0.7947	0.1819	-0.288
Mof_O 	O 	0.6757	0.5641	0.2189	-0.292
Mof_O 	O 	0.2027	0.2121	0.3066	-0.299
Mof_O 	O 	0.5601	0.6861	0.3159	-0.295
Mof_O 	O 	0.1219	0.2933	0.2261	-0.291
Mof_O 	O 	0.3265	0.7055	0.2525	-0.282
_end
