data_functionalizedCrystal
_audit_creation_method	'EQeq! by Chris Wilmer'
_symmetry_space_group_name_H-M	'P1'
_symmetry_Int_Tables_number	1
_symmetry_cell_setting	triclinic
loop_
_symmetry_equiv_pos_as_xyz
  x,y,z
_cell_length_a	17.47
_cell_length_b	16.437
_cell_length_c	7.155
_cell_angle_alpha	90
_cell_angle_beta	99
_cell_angle_gamma	90
loop_
_atom_site_label
_atom_site_type_symbol
_atom_site_fract_x
_atom_site_fract_y
_atom_site_fract_z
_atom_site_charge
Mof_C 	C 	0.2901	0.144	0.8484	0.027
Mof_C 	C 	0.2789	0.0806	0.706	-0.026
Mof_C 	C 	0.3017	0.201	0.7145	-0.03
Mof_C 	C 	0.2905	0.1416	0.577	0.001
Mof_C 	C 	0.2443	0.2191	0.5718	-0.003
Mof_C 	C 	0.1672	0.199	0.609	-0.104
Mof_C 	C 	0.193	0.2184	0.679	0.083
Mof_C 	C 	0.163	0.131	0.727	0.03
Mof_C 	C 	0.18	0.157	0.798	0.012
Mof_C 	C 	0.087	0.063	0.191	0.016
Mof_C 	C 	0.119	0.069	0.255	-0.002
Mof_C 	C 	0.039	0.0697	0.326	0.064
Mof_C 	C 	0.065	0.0662	0.392	-0.086
Mof_N 	N 	0.2226	0.0998	0.8375	-0.223
Mof_C 	C 	0.4474	0.0525	0.29	-0.017
Mof_C 	C 	0.4039	0.0509	0.4596	-0.019
Mof_C 	C 	0.3767	0.0541	0.172	0.012
Mof_C 	C 	0.3335	0.0497	0.3316	0.017
Mof_C 	C 	0.7901	0.644	0.8484	0.027
Mof_C 	C 	0.7789	0.5806	0.706	-0.013
Mof_C 	C 	0.8017	0.701	0.7145	-0.029
Mof_C 	C 	0.7905	0.6416	0.577	-0
Mof_C 	C 	0.7443	0.7191	0.5718	-0.002
Mof_C 	C 	0.6672	0.699	0.609	-0.098
Mof_C 	C 	0.693	0.7184	0.679	0.076
Mof_C 	C 	0.663	0.631	0.727	0.032
Mof_C 	C 	0.68	0.657	0.798	0.012
Mof_C 	C 	0.587	0.563	0.191	0.025
Mof_C 	C 	0.619	0.569	0.255	-0.006
Mof_C 	C 	0.539	0.5697	0.326	0.066
Mof_C 	C 	0.565	0.5662	0.392	-0.09
Mof_N 	N 	0.7226	0.5998	0.8375	-0.222
Mof_C 	C 	0.9474	0.5525	0.29	-0.017
Mof_C 	C 	0.9039	0.5509	0.4596	-0.018
Mof_C 	C 	0.8767	0.5541	0.172	0.02
Mof_C 	C 	0.8335	0.5497	0.3316	0.027
Mof_C 	C 	0.7099	0.144	0.1516	0.028
Mof_C 	C 	0.7211	0.0806	0.294	-0.025
Mof_C 	C 	0.6983	0.201	0.2855	-0.03
Mof_C 	C 	0.7095	0.1416	0.423	0.001
Mof_C 	C 	0.7557	0.2191	0.4282	-0.003
Mof_C 	C 	0.8328	0.199	0.391	-0.104
Mof_C 	C 	0.807	0.2184	0.321	0.083
Mof_C 	C 	0.837	0.131	0.273	0.03
Mof_C 	C 	0.82	0.157	0.202	0.012
Mof_C 	C 	0.913	0.063	0.809	0.016
Mof_C 	C 	0.881	0.069	0.745	-0.002
Mof_C 	C 	0.961	0.0697	0.674	0.064
Mof_C 	C 	0.935	0.0662	0.608	-0.086
Mof_N 	N 	0.7774	0.0998	0.1625	-0.223
Mof_C 	C 	0.5526	0.0525	0.71	-0.017
Mof_C 	C 	0.5961	0.0509	0.5404	-0.019
Mof_C 	C 	0.6233	0.0541	0.828	0.012
Mof_C 	C 	0.6665	0.0497	0.6684	0.017
Mof_C 	C 	0.2099	0.644	0.1516	0.027
Mof_C 	C 	0.2211	0.5806	0.294	-0.013
Mof_C 	C 	0.1983	0.701	0.2855	-0.029
Mof_C 	C 	0.2095	0.6416	0.423	-0
Mof_C 	C 	0.2557	0.7191	0.4282	-0.002
Mof_C 	C 	0.3328	0.699	0.391	-0.098
Mof_C 	C 	0.307	0.7184	0.321	0.076
Mof_C 	C 	0.337	0.631	0.273	0.032
Mof_C 	C 	0.32	0.657	0.202	0.012
Mof_C 	C 	0.413	0.563	0.809	0.025
Mof_C 	C 	0.381	0.569	0.745	-0.006
Mof_C 	C 	0.461	0.5697	0.674	0.066
Mof_C 	C 	0.435	0.5662	0.608	-0.09
Mof_N 	N 	0.2774	0.5998	0.1625	-0.222
Mof_C 	C 	0.0526	0.5525	0.71	-0.017
Mof_C 	C 	0.0961	0.5509	0.5404	-0.018
Mof_C 	C 	0.1233	0.5541	0.828	0.02
Mof_C 	C 	0.1665	0.5497	0.6684	0.027
Mof_C 	C 	0.7099	0.856	0.1516	0.026
Mof_C 	C 	0.7211	0.9194	0.294	-0
Mof_C 	C 	0.6983	0.799	0.2855	-0.028
Mof_C 	C 	0.7095	0.8584	0.423	-0.004
Mof_C 	C 	0.7557	0.7809	0.4282	0.002
Mof_C 	C 	0.8328	0.801	0.391	-0.087
Mof_C 	C 	0.807	0.7816	0.321	0.063
Mof_C 	C 	0.837	0.869	0.273	0.037
Mof_C 	C 	0.82	0.843	0.202	0.011
Mof_C 	C 	0.913	0.937	0.809	0.033
Mof_C 	C 	0.881	0.931	0.745	0.005
Mof_C 	C 	0.961	0.9303	0.674	0.09
Mof_C 	C 	0.935	0.9338	0.608	-0.092
Mof_N 	N 	0.7774	0.9002	0.1625	-0.217
Mof_C 	C 	0.5526	0.9475	0.71	0.005
Mof_C 	C 	0.5961	0.9491	0.5404	0.002
Mof_C 	C 	0.6233	0.9459	0.828	0.03
Mof_C 	C 	0.6665	0.9503	0.6684	0.044
Mof_C 	C 	0.2099	0.356	0.1516	0.026
Mof_C 	C 	0.2211	0.4194	0.294	-0.013
Mof_C 	C 	0.1983	0.299	0.2855	-0.029
Mof_C 	C 	0.2095	0.3584	0.423	-0.001
Mof_C 	C 	0.2557	0.2809	0.4282	-0.001
Mof_C 	C 	0.3328	0.301	0.391	-0.098
Mof_C 	C 	0.307	0.2816	0.321	0.076
Mof_C 	C 	0.337	0.369	0.273	0.033
Mof_C 	C 	0.32	0.343	0.202	0.011
Mof_C 	C 	0.413	0.437	0.809	0.025
Mof_C 	C 	0.381	0.431	0.745	-0.006
Mof_C 	C 	0.461	0.4303	0.674	0.066
Mof_C 	C 	0.435	0.4338	0.608	-0.091
Mof_N 	N 	0.2774	0.4002	0.1625	-0.222
Mof_C 	C 	0.0526	0.4475	0.71	-0.017
Mof_C 	C 	0.0961	0.4491	0.5404	-0.018
Mof_C 	C 	0.1233	0.4459	0.828	0.02
Mof_C 	C 	0.1665	0.4503	0.6684	0.027
Mof_C 	C 	0.2901	0.856	0.8484	0.026
Mof_C 	C 	0.2789	0.9194	0.706	-0
Mof_C 	C 	0.3017	0.799	0.7145	-0.028
Mof_C 	C 	0.2905	0.8584	0.577	-0.004
Mof_C 	C 	0.2443	0.7809	0.5718	0.002
Mof_C 	C 	0.1672	0.801	0.609	-0.087
Mof_C 	C 	0.193	0.7816	0.679	0.063
Mof_C 	C 	0.163	0.869	0.727	0.037
Mof_C 	C 	0.18	0.843	0.798	0.011
Mof_C 	C 	0.087	0.937	0.191	0.033
Mof_C 	C 	0.119	0.931	0.255	0.005
Mof_C 	C 	0.039	0.9303	0.326	0.09
Mof_C 	C 	0.065	0.9338	0.392	-0.092
Mof_N 	N 	0.2226	0.9002	0.8375	-0.217
Mof_C 	C 	0.4474	0.9475	0.29	0.005
Mof_C 	C 	0.4039	0.9491	0.4596	0.002
Mof_C 	C 	0.3767	0.9459	0.172	0.03
Mof_C 	C 	0.3335	0.9503	0.3316	0.044
Mof_C 	C 	0.7901	0.356	0.8484	0.026
Mof_C 	C 	0.7789	0.4194	0.706	-0.013
Mof_C 	C 	0.8017	0.299	0.7145	-0.029
Mof_C 	C 	0.7905	0.3584	0.577	-0.001
Mof_C 	C 	0.7443	0.2809	0.5718	-0.001
Mof_C 	C 	0.6672	0.301	0.609	-0.098
Mof_C 	C 	0.693	0.2816	0.679	0.076
Mof_C 	C 	0.663	0.369	0.727	0.033
Mof_C 	C 	0.68	0.343	0.798	0.011
Mof_C 	C 	0.587	0.437	0.191	0.025
Mof_C 	C 	0.619	0.431	0.255	-0.006
Mof_C 	C 	0.539	0.4303	0.326	0.066
Mof_C 	C 	0.565	0.4338	0.392	-0.091
Mof_N 	N 	0.7226	0.4002	0.8375	-0.222
Mof_C 	C 	0.9474	0.4475	0.29	-0.017
Mof_C 	C 	0.9039	0.4491	0.4596	-0.018
Mof_C 	C 	0.8767	0.4459	0.172	0.02
Mof_C 	C 	0.8335	0.4503	0.3316	0.027
Mof_Cu	Cu	0.21484	0	0.00751	0.845
Mof_C 	C 	0.0257	1.55495e-33	0.4257	-0.02
Mof_N 	N 	0.1264	0	0.156	-0.243
Mof_N 	N 	0.3203	0	0.1904	-0.241
Mof_C 	C 	0.4618	0	0.4332	-0.015
Mof_Cu	Cu	0.71484	0.5	0.00751	0.853
Mof_C 	C 	0.5257	0.5	0.4257	0.004
Mof_N 	N 	0.6264	0.5	0.156	-0.228
Mof_N 	N 	0.8203	0.5	0.1904	-0.225
Mof_C 	C 	0.9618	0.5	0.4332	0.019
Mof_Cu	Cu	0.78516	0	0.99249	0.845
Mof_C 	C 	0.9743	0	0.5743	-0.02
Mof_N 	N 	0.8736	0	0.844	-0.243
Mof_N 	N 	0.6797	0	0.8096	-0.241
Mof_C 	C 	0.5382	0	0.5668	-0.015
Mof_Cu	Cu	0.28516	0.5	0.99249	0.853
Mof_C 	C 	0.4743	0.5	0.5743	0.004
Mof_N 	N 	0.3736	0.5	0.844	-0.228
Mof_N 	N 	0.1797	0.5	0.8096	-0.225
Mof_C 	C 	0.0382	0.5	0.5668	0.019
_end
