data_functionalizedCrystal
_audit_creation_method	'EQeq! by Chris Wilmer'
_symmetry_space_group_name_H-M	'P1'
_symmetry_Int_Tables_number	1
_symmetry_cell_setting	triclinic
loop_
_symmetry_equiv_pos_as_xyz
  x,y,z
_cell_length_a	13.495
_cell_length_b	13.495
_cell_length_c	9.396
_cell_angle_alpha	90
_cell_angle_beta	90
_cell_angle_gamma	120
loop_
_atom_site_label
_atom_site_type_symbol
_atom_site_fract_x
_atom_site_fract_y
_atom_site_fract_z
_atom_site_charge
Mof_Fe	Fe	0.146	0.4408	0.9018	0.98
Mof_P 	P 	0.3677	0.4955	0.096	0.53
Mof_P 	P 	0.0362	0.1898	0.741	0.484
Mof_O 	O 	0.285	0.4367	0.9716	-0.311
Mof_O 	O 	0.1642	0.544	0.0625	-0.351
Mof_O 	O 	0.9949	0.423	0.8565	-0.272
Mof_O 	O 	0.1175	0.3178	0.758	-0.306
Mof_O 	O 	0.0227	0.131	0.8849	-0.341
Mof_O 	O 	0.0745	0.1421	0.6221	-0.311
Mof_O 	O 	0.2272	0.557	0.7664	-0.348
Mof_O 	O 	0.299	0.5019	0.2283	-0.148
Mof_O 	O 	0.915	0.1718	0.6992	-0.123
Mof_Fe	Fe	0.5592	0.7052	0.9018	1.04
Mof_P 	P 	0.5045	0.8722	0.096	0.535
Mof_P 	P 	0.8102	0.8464	0.741	0.542
Mof_O 	O 	0.5633	0.8483	0.9716	-0.302
Mof_O 	O 	0.456	0.6202	0.0625	-0.342
Mof_O 	O 	0.577	0.5719	0.8565	-0.331
Mof_O 	O 	0.6822	0.7997	0.758	-0.292
Mof_O 	O 	0.869	0.8917	0.8849	-0.248
Mof_O 	O 	0.8579	0.9324	0.6221	-0.221
Mof_O 	O 	0.443	0.6702	0.7664	-0.339
Mof_O 	O 	0.4981	0.7971	0.2283	-0.137
Mof_O 	O 	0.8282	0.7432	0.6992	-0.145
Mof_Fe	Fe	0.2948	0.854	0.9018	1.082
Mof_P 	P 	0.1278	0.6323	0.096	0.533
Mof_P 	P 	0.1536	0.9638	0.741	0.593
Mof_O 	O 	0.1517	0.715	0.9716	-0.338
Mof_O 	O 	0.3798	0.8358	0.0625	-0.332
Mof_O 	O 	0.4281	0.0051	0.8565	-0.382
Mof_O 	O 	0.2003	0.8825	0.758	-0.305
Mof_O 	O 	0.1083	0.9773	0.8849	-0.288
Mof_O 	O 	0.0676	0.9255	0.6221	-0.287
Mof_O 	O 	0.3298	0.7728	0.7664	-0.339
Mof_O 	O 	0.2029	0.701	0.2283	-0.146
Mof_O 	O 	0.2568	0.085	0.6992	-0.21
Mof_Fe	Fe	0.854	0.5592	0.0982	1.042
Mof_P 	P 	0.6323	0.5045	0.904	0.575
Mof_P 	P 	0.9638	0.8102	0.259	0.593
Mof_O 	O 	0.715	0.5633	0.0284	-0.364
Mof_O 	O 	0.8358	0.456	0.9375	-0.302
Mof_O 	O 	0.0051	0.577	0.1435	-0.39
Mof_O 	O 	0.8825	0.6822	0.242	-0.295
Mof_O 	O 	0.9773	0.869	0.1151	-0.265
Mof_O 	O 	0.9255	0.8579	0.3779	-0.236
Mof_O 	O 	0.7728	0.443	0.2336	-0.335
Mof_O 	O 	0.701	0.4981	0.7717	-0.139
Mof_O 	O 	0.085	0.8282	0.3008	-0.199
Mof_Fe	Fe	0.4408	0.2948	0.0982	0.984
Mof_P 	P 	0.4955	0.1278	0.904	0.576
Mof_P 	P 	0.1898	0.1536	0.259	0.539
Mof_O 	O 	0.4367	0.1517	0.0284	-0.379
Mof_O 	O 	0.544	0.3798	0.9375	-0.31
Mof_O 	O 	0.423	0.4281	0.1435	-0.334
Mof_O 	O 	0.3178	0.2003	0.242	-0.31
Mof_O 	O 	0.131	0.1083	0.1151	-0.364
Mof_O 	O 	0.1421	0.0676	0.3779	-0.328
Mof_O 	O 	0.557	0.3298	0.2336	-0.344
Mof_O 	O 	0.5019	0.2029	0.7717	-0.149
Mof_O 	O 	0.1718	0.2568	0.3008	-0.185
Mof_Fe	Fe	0.7052	0.146	0.0982	0.936
Mof_P 	P 	0.8722	0.3677	0.904	0.577
Mof_P 	P 	0.8464	0.0362	0.259	0.489
Mof_O 	O 	0.8483	0.285	0.0284	-0.34
Mof_O 	O 	0.6202	0.1642	0.9375	-0.316
Mof_O 	O 	0.5719	0.9949	0.1435	-0.279
Mof_O 	O 	0.7997	0.1175	0.242	-0.296
Mof_O 	O 	0.8917	0.0227	0.1151	-0.319
Mof_O 	O 	0.9324	0.0745	0.3779	-0.254
Mof_O 	O 	0.6702	0.2272	0.2336	-0.344
Mof_O 	O 	0.7971	0.299	0.7717	-0.14
Mof_O 	O 	0.7432	0.915	0.3008	-0.119
Mof_Fe	Fe	-4.25864e-33	0	0.5	0.808
Mof_Fe	Fe	-0	0	-0	0.814
Mof_P 	P 	0.33333	0.66667	0.714	0.587
Mof_O 	O 	0.33333	0.66667	0.551	-0.146
Mof_P 	P 	0.66667	0.33333	0.286	0.58
Mof_O 	O 	0.66667	0.33333	0.449	-0.143
_end
