data_functionalizedCrystal
_audit_creation_method	'EQeq! by Chris Wilmer'
_symmetry_space_group_name_H-M	'P1'
_symmetry_Int_Tables_number	1
_symmetry_cell_setting	triclinic
loop_
_symmetry_equiv_pos_as_xyz
  x,y,z
_cell_length_a	32.599
_cell_length_b	8.8449
_cell_length_c	34.246
_cell_angle_alpha	90
_cell_angle_beta	116.457
_cell_angle_gamma	90
loop_
_atom_site_label
_atom_site_type_symbol
_atom_site_fract_x
_atom_site_fract_y
_atom_site_fract_z
_atom_site_charge
Mof_Sm	Sm	0.49338	0.87809	0.11836	2.015
Mof_C 	C 	0.88943	0.648	0.47635	-0.123
Mof_C 	C 	0.5801	0.7182	0.24924	-0.049
Mof_C 	C 	0.8117	0.8912	0.33292	-0.007
Mof_H 	H 	0.8	0.8031	0.3144	0.025
Mof_H 	H 	0.8408	0.9187	0.3337	0.026
Mof_C 	C 	0.576	0.7751	0.28478	-0.011
Mof_H 	H 	0.5547	0.8497	0.2817	0.047
Mof_C 	C 	0.61096	0.6021	0.25313	-0.107
Mof_H 	H 	0.6119	0.5625	0.2284	0.069
Mof_C 	C 	0.6826	0.3843	0.26568	-0.013
Mof_H 	H 	0.6959	0.4676	0.2567	0.024
Mof_H 	H 	0.6553	0.351	0.2405	0.027
Mof_C 	C 	0.7163	0.2568	0.2824	-0.087
Mof_C 	C 	0.7635	0.2889	0.3038	0.093
Mof_C 	C 	0.7782	0.0211	0.31489	-0.107
Mof_C 	C 	0.7004	0.1043	0.27876	0.078
Mof_N 	N 	0.67064	0.4345	0.29975	-0.207
Mof_H 	H 	0.6836	0.3911	0.3248	0.123
Mof_C 	C 	0.8501	0.7574	0.404	0.082
Mof_C 	C 	0.8563	0.7433	0.4469	-0.057
Mof_H 	H 	0.8379	0.799	0.4559	0.07
Mof_C 	C 	0.6052	0.7166	0.3257	-0.088
Mof_N 	N 	0.81766	0.8573	0.37626	-0.205
Mof_H 	H 	0.8001	0.9018	0.3854	0.122
Mof_C 	C 	0.6399	0.5468	0.2939	0.101
Mof_C 	C 	0.9178	0.565	0.46308	0.02
Mof_H 	H 	0.9409	0.5035	0.4828	0.034
Mof_C 	C 	0.8777	0.6704	0.39113	-0.086
Mof_H 	H 	0.8736	0.6761	0.3625	0.059
Mof_C 	C 	0.7947	0.1665	0.3206	0.097
Mof_C 	C 	0.7317	0.9902	0.2953	0.115
Mof_C 	C 	0.8957	0.6355	0.5218	0.477
Mof_C 	C 	0.7805	0.4499	0.3113	-0.58
Mof_H 	H 	0.7556	0.5172	0.2951	0.197
Mof_H 	H 	0.804	0.4618	0.3019	0.192
Mof_H 	H 	0.7928	0.4733	0.3419	0.196
Mof_C 	C 	0.6364	0.6047	0.33015	-0.09
Mof_H 	H 	0.6554	0.5672	0.3578	0.068
Mof_C 	C 	0.7142	0.8308	0.2917	-0.615
Mof_H 	H 	0.6864	0.8309	0.2949	0.208
Mof_H 	H 	0.7368	0.7699	0.3142	0.211
Mof_H 	H 	0.7082	0.79	0.2637	0.203
Mof_C 	C 	0.6491	0.0746	0.2581	-0.563
Mof_H 	H 	0.6386	0.0476	0.228	0.192
Mof_H 	H 	0.6334	0.1641	0.26	0.199
Mof_H 	H 	0.6428	0.9933	0.2732	0.19
Mof_C 	C 	0.8459	0.2021	0.3449	-0.583
Mof_H 	H 	0.8611	0.1236	0.3657	0.2
Mof_H 	H 	0.8501	0.297	0.3598	0.199
Mof_H 	H 	0.8585	0.208	0.3244	0.195
Mof_C 	C 	0.55034	0.7797	0.204	0.297
Mof_O 	O 	0.53003	0.9071	0.19979	-0.425
Mof_O 	O 	0.54556	0.7033	0.17131	-0.478
Mof_O 	O 	0.86433	0.7061	0.52807	-0.542
Mof_H 	H 	0.8736	0.7224	0.5542	0.321
Mof_C 	C 	0.6012	0.7695	0.3658	0.413
Mof_O 	O 	0.63494	0.7489	0.40216	-0.328
Mof_C 	C 	0.9109	0.576	0.42032	-0.073
Mof_O 	O 	0.92816	0.5699	0.54989	-0.564
Mof_C 	C 	0.9408	0.4885	0.4053	0.31
Mof_O 	O 	0.97213	0.4079	0.43189	-0.467
Mof_O 	O 	0.93365	0.4975	0.3664	-0.475
Mof_O 	O 	0.56481	0.8252	0.36111	-0.55
Mof_Sm	Sm	0.99338	0.37809	0.11836	2.014
Mof_C 	C 	0.38943	0.148	0.47635	-0.124
Mof_C 	C 	0.0801	0.2182	0.24924	-0.05
Mof_C 	C 	0.3117	0.3912	0.33292	-0.006
Mof_H 	H 	0.3	0.3031	0.3144	0.023
Mof_H 	H 	0.3408	0.4187	0.3337	0.024
Mof_C 	C 	0.076	0.2751	0.28478	-0.012
Mof_H 	H 	0.0547	0.3497	0.2817	0.046
Mof_C 	C 	0.11096	0.1021	0.25313	-0.108
Mof_H 	H 	0.1119	0.0625	0.2284	0.068
Mof_C 	C 	0.1826	0.8843	0.26568	-0.014
Mof_H 	H 	0.1959	0.9676	0.2567	0.023
Mof_H 	H 	0.1553	0.851	0.2405	0.027
Mof_C 	C 	0.2163	0.7568	0.2824	-0.088
Mof_C 	C 	0.2635	0.7889	0.3038	0.091
Mof_C 	C 	0.2782	0.5211	0.31489	-0.111
Mof_C 	C 	0.2004	0.6043	0.27876	0.076
Mof_N 	N 	0.17064	0.9345	0.29975	-0.207
Mof_H 	H 	0.1836	0.8911	0.3248	0.122
Mof_C 	C 	0.3501	0.2574	0.404	0.082
Mof_C 	C 	0.3563	0.2433	0.4469	-0.057
Mof_H 	H 	0.3379	0.299	0.4559	0.071
Mof_C 	C 	0.1052	0.2166	0.3257	-0.088
Mof_N 	N 	0.31766	0.3573	0.37626	-0.205
Mof_H 	H 	0.3001	0.4018	0.3854	0.123
Mof_C 	C 	0.1399	0.0468	0.2939	0.1
Mof_C 	C 	0.4178	0.065	0.46308	0.019
Mof_H 	H 	0.4409	0.0035	0.4828	0.034
Mof_C 	C 	0.3777	0.1704	0.39113	-0.087
Mof_H 	H 	0.3736	0.1761	0.3625	0.06
Mof_C 	C 	0.2947	0.6665	0.3206	0.098
Mof_C 	C 	0.2317	0.4902	0.2953	0.118
Mof_C 	C 	0.3957	0.1355	0.5218	0.477
Mof_C 	C 	0.2805	0.9499	0.3113	-0.58
Mof_H 	H 	0.2556	0.0172	0.2951	0.196
Mof_H 	H 	0.304	0.9618	0.3019	0.192
Mof_H 	H 	0.2928	0.9733	0.3419	0.196
Mof_C 	C 	0.1364	0.1047	0.33015	-0.09
Mof_H 	H 	0.1554	0.0672	0.3578	0.068
Mof_C 	C 	0.2142	0.3308	0.2917	-0.618
Mof_H 	H 	0.1864	0.3309	0.2949	0.209
Mof_H 	H 	0.2368	0.2699	0.3142	0.212
Mof_H 	H 	0.2082	0.29	0.2637	0.204
Mof_C 	C 	0.1491	0.5746	0.2581	-0.566
Mof_H 	H 	0.1386	0.5476	0.228	0.193
Mof_H 	H 	0.1334	0.6641	0.26	0.2
Mof_H 	H 	0.1428	0.4933	0.2732	0.192
Mof_C 	C 	0.3459	0.7021	0.3449	-0.585
Mof_H 	H 	0.3611	0.6236	0.3657	0.201
Mof_H 	H 	0.3501	0.797	0.3598	0.199
Mof_H 	H 	0.3585	0.708	0.3244	0.195
Mof_C 	C 	0.05034	0.2797	0.204	0.297
Mof_O 	O 	0.03003	0.4071	0.19979	-0.424
Mof_O 	O 	0.04556	0.2033	0.17131	-0.478
Mof_O 	O 	0.36433	0.2061	0.52807	-0.542
Mof_H 	H 	0.3736	0.2224	0.5542	0.321
Mof_C 	C 	0.1012	0.2695	0.3658	0.414
Mof_O 	O 	0.13494	0.2489	0.40216	-0.328
Mof_C 	C 	0.4109	0.076	0.42032	-0.072
Mof_O 	O 	0.42816	0.0699	0.54989	-0.564
Mof_C 	C 	0.4408	0.9885	0.4053	0.309
Mof_O 	O 	0.47213	0.9079	0.43189	-0.467
Mof_O 	O 	0.43365	0.9975	0.3664	-0.475
Mof_O 	O 	0.06481	0.3252	0.36111	-0.55
Mof_Sm	Sm	0.50662	0.87809	0.38164	2.014
Mof_C 	C 	0.11057	0.648	0.02365	-0.123
Mof_C 	C 	0.4199	0.7182	0.25076	-0.05
Mof_C 	C 	0.1883	0.8912	0.16708	-0.008
Mof_H 	H 	0.2	0.8031	0.1856	0.024
Mof_H 	H 	0.1592	0.9187	0.1663	0.025
Mof_C 	C 	0.424	0.7751	0.21522	-0.012
Mof_H 	H 	0.4453	0.8497	0.2183	0.046
Mof_C 	C 	0.38904	0.6021	0.24687	-0.108
Mof_H 	H 	0.3881	0.5625	0.2716	0.068
Mof_C 	C 	0.3174	0.3843	0.23432	-0.014
Mof_H 	H 	0.3041	0.4676	0.2433	0.023
Mof_H 	H 	0.3447	0.351	0.2595	0.026
Mof_C 	C 	0.2837	0.2568	0.2176	-0.088
Mof_C 	C 	0.2365	0.2889	0.1962	0.092
Mof_C 	C 	0.2218	0.0211	0.18511	-0.108
Mof_C 	C 	0.2996	0.1043	0.22124	0.077
Mof_N 	N 	0.32936	0.4345	0.20025	-0.208
Mof_H 	H 	0.3164	0.3911	0.1752	0.122
Mof_C 	C 	0.1499	0.7574	0.096	0.082
Mof_C 	C 	0.1437	0.7433	0.0531	-0.058
Mof_H 	H 	0.1621	0.799	0.0441	0.071
Mof_C 	C 	0.3948	0.7166	0.1743	-0.088
Mof_N 	N 	0.18234	0.8573	0.12374	-0.205
Mof_H 	H 	0.1999	0.9018	0.1146	0.122
Mof_C 	C 	0.3601	0.5468	0.2061	0.101
Mof_C 	C 	0.0822	0.565	0.03692	0.019
Mof_H 	H 	0.0591	0.5035	0.0172	0.035
Mof_C 	C 	0.1223	0.6704	0.10887	-0.087
Mof_H 	H 	0.1264	0.6761	0.1375	0.059
Mof_C 	C 	0.2053	0.1665	0.1794	0.097
Mof_C 	C 	0.2683	0.9902	0.2047	0.115
Mof_C 	C 	0.1043	0.6355	0.9782	0.476
Mof_C 	C 	0.2195	0.4499	0.1887	-0.58
Mof_H 	H 	0.2444	0.5172	0.2049	0.197
Mof_H 	H 	0.196	0.4618	0.1981	0.192
Mof_H 	H 	0.2072	0.4733	0.1581	0.196
Mof_C 	C 	0.3636	0.6047	0.16985	-0.09
Mof_H 	H 	0.3446	0.5672	0.1422	0.068
Mof_C 	C 	0.2858	0.8308	0.2083	-0.615
Mof_H 	H 	0.3136	0.8309	0.2051	0.208
Mof_H 	H 	0.2632	0.7699	0.1858	0.211
Mof_H 	H 	0.2918	0.79	0.2363	0.203
Mof_C 	C 	0.3509	0.0746	0.2419	-0.563
Mof_H 	H 	0.3614	0.0476	0.272	0.192
Mof_H 	H 	0.3666	0.1641	0.24	0.199
Mof_H 	H 	0.3572	0.9933	0.2268	0.19
Mof_C 	C 	0.1541	0.2021	0.1551	-0.583
Mof_H 	H 	0.1389	0.1236	0.1343	0.201
Mof_H 	H 	0.1499	0.297	0.1402	0.199
Mof_H 	H 	0.1415	0.208	0.1756	0.195
Mof_C 	C 	0.44966	0.7797	0.296	0.297
Mof_O 	O 	0.46997	0.9071	0.30021	-0.425
Mof_O 	O 	0.45444	0.7033	0.32869	-0.478
Mof_O 	O 	0.13567	0.7061	0.97193	-0.542
Mof_H 	H 	0.1264	0.7224	0.9458	0.321
Mof_C 	C 	0.3988	0.7695	0.1342	0.413
Mof_O 	O 	0.36506	0.7489	0.09784	-0.328
Mof_C 	C 	0.0891	0.576	0.07968	-0.072
Mof_O 	O 	0.07184	0.5699	0.95011	-0.564
Mof_C 	C 	0.0592	0.4885	0.0947	0.31
Mof_O 	O 	0.02787	0.4079	0.06811	-0.466
Mof_O 	O 	0.06635	0.4975	0.1336	-0.474
Mof_O 	O 	0.43519	0.8252	0.13889	-0.55
Mof_Sm	Sm	0.00662	0.37809	0.38164	2.017
Mof_C 	C 	0.61057	0.148	0.02365	-0.125
Mof_C 	C 	0.9199	0.2182	0.25076	-0.05
Mof_C 	C 	0.6883	0.3912	0.16708	-0.006
Mof_H 	H 	0.7	0.3031	0.1856	0.023
Mof_H 	H 	0.6592	0.4187	0.1663	0.024
Mof_C 	C 	0.924	0.2751	0.21522	-0.012
Mof_H 	H 	0.9453	0.3497	0.2183	0.046
Mof_C 	C 	0.88904	0.1021	0.24687	-0.108
Mof_H 	H 	0.8881	0.0625	0.2716	0.068
Mof_C 	C 	0.8174	0.8843	0.23432	-0.014
Mof_H 	H 	0.8041	0.9676	0.2433	0.023
Mof_H 	H 	0.8447	0.851	0.2595	0.027
Mof_C 	C 	0.7837	0.7568	0.2176	-0.088
Mof_C 	C 	0.7365	0.7889	0.1962	0.091
Mof_C 	C 	0.7218	0.5211	0.18511	-0.111
Mof_C 	C 	0.7996	0.6043	0.22124	0.076
Mof_N 	N 	0.82936	0.9345	0.20025	-0.207
Mof_H 	H 	0.8164	0.8911	0.1752	0.122
Mof_C 	C 	0.6499	0.2574	0.096	0.082
Mof_C 	C 	0.6437	0.2433	0.0531	-0.057
Mof_H 	H 	0.6621	0.299	0.0441	0.07
Mof_C 	C 	0.8948	0.2166	0.1743	-0.088
Mof_N 	N 	0.68234	0.3573	0.12374	-0.205
Mof_H 	H 	0.6999	0.4018	0.1146	0.123
Mof_C 	C 	0.8601	0.0468	0.2061	0.1
Mof_C 	C 	0.5822	0.065	0.03692	0.019
Mof_H 	H 	0.5591	0.0035	0.0172	0.034
Mof_C 	C 	0.6223	0.1704	0.10887	-0.087
Mof_H 	H 	0.6264	0.1761	0.1375	0.059
Mof_C 	C 	0.7053	0.6665	0.1794	0.098
Mof_C 	C 	0.7683	0.4902	0.2047	0.118
Mof_C 	C 	0.6043	0.1355	0.9782	0.477
Mof_C 	C 	0.7195	0.9499	0.1887	-0.58
Mof_H 	H 	0.7444	0.0172	0.2049	0.196
Mof_H 	H 	0.696	0.9618	0.1981	0.192
Mof_H 	H 	0.7072	0.9733	0.1581	0.196
Mof_C 	C 	0.8636	0.1047	0.16985	-0.09
Mof_H 	H 	0.8446	0.0672	0.1422	0.068
Mof_C 	C 	0.7858	0.3308	0.2083	-0.618
Mof_H 	H 	0.8136	0.3309	0.2051	0.209
Mof_H 	H 	0.7632	0.2699	0.1858	0.212
Mof_H 	H 	0.7918	0.29	0.2363	0.204
Mof_C 	C 	0.8509	0.5746	0.2419	-0.566
Mof_H 	H 	0.8614	0.5476	0.272	0.193
Mof_H 	H 	0.8666	0.6641	0.24	0.2
Mof_H 	H 	0.8572	0.4933	0.2268	0.192
Mof_C 	C 	0.6541	0.7021	0.1551	-0.585
Mof_H 	H 	0.6389	0.6236	0.1343	0.201
Mof_H 	H 	0.6499	0.797	0.1402	0.199
Mof_H 	H 	0.6415	0.708	0.1756	0.195
Mof_C 	C 	0.94966	0.2797	0.296	0.297
Mof_O 	O 	0.96997	0.4071	0.30021	-0.424
Mof_O 	O 	0.95444	0.2033	0.32869	-0.478
Mof_O 	O 	0.63567	0.2061	0.97193	-0.542
Mof_H 	H 	0.6264	0.2224	0.9458	0.321
Mof_C 	C 	0.8988	0.2695	0.1342	0.414
Mof_O 	O 	0.86506	0.2489	0.09784	-0.328
Mof_C 	C 	0.5891	0.076	0.07968	-0.072
Mof_O 	O 	0.57184	0.0699	0.95011	-0.564
Mof_C 	C 	0.5592	0.9885	0.0947	0.309
Mof_O 	O 	0.52787	0.9079	0.06811	-0.467
Mof_O 	O 	0.56635	0.9975	0.1336	-0.475
Mof_O 	O 	0.93519	0.3252	0.13889	-0.55
Mof_Sm	Sm	0.50662	0.12191	0.88164	2.014
Mof_C 	C 	0.11057	0.352	0.52365	-0.124
Mof_C 	C 	0.4199	0.2818	0.75076	-0.05
Mof_C 	C 	0.1883	0.1088	0.66708	-0.008
Mof_H 	H 	0.2	0.1969	0.6856	0.024
Mof_H 	H 	0.1592	0.0813	0.6663	0.025
Mof_C 	C 	0.424	0.2249	0.71522	-0.012
Mof_H 	H 	0.4453	0.1503	0.7183	0.046
Mof_C 	C 	0.38904	0.3979	0.74687	-0.108
Mof_H 	H 	0.3881	0.4375	0.7716	0.068
Mof_C 	C 	0.3174	0.6157	0.73432	-0.014
Mof_H 	H 	0.3041	0.5324	0.7433	0.023
Mof_H 	H 	0.3447	0.649	0.7595	0.026
Mof_C 	C 	0.2837	0.7432	0.7176	-0.088
Mof_C 	C 	0.2365	0.7111	0.6962	0.092
Mof_C 	C 	0.2218	0.9789	0.68511	-0.108
Mof_C 	C 	0.2996	0.8957	0.72124	0.077
Mof_N 	N 	0.32936	0.5655	0.70025	-0.208
Mof_H 	H 	0.3164	0.6089	0.6752	0.122
Mof_C 	C 	0.1499	0.2426	0.596	0.081
Mof_C 	C 	0.1437	0.2567	0.5531	-0.057
Mof_H 	H 	0.1621	0.201	0.5441	0.07
Mof_C 	C 	0.3948	0.2834	0.6743	-0.088
Mof_N 	N 	0.18234	0.1427	0.62374	-0.205
Mof_H 	H 	0.1999	0.0982	0.6146	0.122
Mof_C 	C 	0.3601	0.4532	0.7061	0.101
Mof_C 	C 	0.0822	0.435	0.53692	0.02
Mof_H 	H 	0.0591	0.4965	0.5172	0.034
Mof_C 	C 	0.1223	0.3296	0.60887	-0.086
Mof_H 	H 	0.1264	0.3239	0.6375	0.059
Mof_C 	C 	0.2053	0.8335	0.6794	0.097
Mof_C 	C 	0.2683	0.0098	0.7047	0.115
Mof_C 	C 	0.1043	0.3645	0.4782	0.477
Mof_C 	C 	0.2195	0.5501	0.6887	-0.58
Mof_H 	H 	0.2444	0.4828	0.7049	0.197
Mof_H 	H 	0.196	0.5382	0.6981	0.192
Mof_H 	H 	0.2072	0.5267	0.6581	0.196
Mof_C 	C 	0.3636	0.3953	0.66985	-0.09
Mof_H 	H 	0.3446	0.4328	0.6422	0.068
Mof_C 	C 	0.2858	0.1692	0.7083	-0.615
Mof_H 	H 	0.3136	0.1691	0.7051	0.208
Mof_H 	H 	0.2632	0.2301	0.6858	0.211
Mof_H 	H 	0.2918	0.21	0.7363	0.203
Mof_C 	C 	0.3509	0.9254	0.7419	-0.563
Mof_H 	H 	0.3614	0.9524	0.772	0.192
Mof_H 	H 	0.3666	0.8359	0.74	0.199
Mof_H 	H 	0.3572	0.0067	0.7268	0.19
Mof_C 	C 	0.1541	0.7979	0.6551	-0.583
Mof_H 	H 	0.1389	0.8764	0.6343	0.2
Mof_H 	H 	0.1499	0.703	0.6402	0.199
Mof_H 	H 	0.1415	0.792	0.6756	0.195
Mof_C 	C 	0.44966	0.2203	0.796	0.297
Mof_O 	O 	0.46997	0.0929	0.80021	-0.425
Mof_O 	O 	0.45444	0.2967	0.82869	-0.478
Mof_O 	O 	0.13567	0.2939	0.47193	-0.542
Mof_H 	H 	0.1264	0.2776	0.4458	0.321
Mof_C 	C 	0.3988	0.2305	0.6342	0.413
Mof_O 	O 	0.36506	0.2511	0.59784	-0.328
Mof_C 	C 	0.0891	0.424	0.57968	-0.073
Mof_O 	O 	0.07184	0.4301	0.45011	-0.564
Mof_C 	C 	0.0592	0.5115	0.5947	0.31
Mof_O 	O 	0.02787	0.5921	0.56811	-0.467
Mof_O 	O 	0.06635	0.5025	0.6336	-0.475
Mof_O 	O 	0.43519	0.1748	0.63889	-0.55
Mof_Sm	Sm	0.00662	0.62191	0.88164	2.014
Mof_C 	C 	0.61057	0.852	0.52365	-0.124
Mof_C 	C 	0.9199	0.7818	0.75076	-0.05
Mof_C 	C 	0.6883	0.6088	0.66708	-0.006
Mof_H 	H 	0.7	0.6969	0.6856	0.023
Mof_H 	H 	0.6592	0.5813	0.6663	0.024
Mof_C 	C 	0.924	0.7249	0.71522	-0.012
Mof_H 	H 	0.9453	0.6503	0.7183	0.046
Mof_C 	C 	0.88904	0.8979	0.74687	-0.108
Mof_H 	H 	0.8881	0.9375	0.7716	0.068
Mof_C 	C 	0.8174	0.1157	0.73432	-0.014
Mof_H 	H 	0.8041	0.0324	0.7433	0.023
Mof_H 	H 	0.8447	0.149	0.7595	0.027
Mof_C 	C 	0.7837	0.2432	0.7176	-0.088
Mof_C 	C 	0.7365	0.2111	0.6962	0.091
Mof_C 	C 	0.7218	0.4789	0.68511	-0.111
Mof_C 	C 	0.7996	0.3957	0.72124	0.076
Mof_N 	N 	0.82936	0.0655	0.70025	-0.207
Mof_H 	H 	0.8164	0.1089	0.6752	0.122
Mof_C 	C 	0.6499	0.7426	0.596	0.082
Mof_C 	C 	0.6437	0.7567	0.5531	-0.057
Mof_H 	H 	0.6621	0.701	0.5441	0.071
Mof_C 	C 	0.8948	0.7834	0.6743	-0.088
Mof_N 	N 	0.68234	0.6427	0.62374	-0.205
Mof_H 	H 	0.6999	0.5982	0.6146	0.123
Mof_C 	C 	0.8601	0.9532	0.7061	0.1
Mof_C 	C 	0.5822	0.935	0.53692	0.019
Mof_H 	H 	0.5591	0.9965	0.5172	0.034
Mof_C 	C 	0.6223	0.8296	0.60887	-0.087
Mof_H 	H 	0.6264	0.8239	0.6375	0.06
Mof_C 	C 	0.7053	0.3335	0.6794	0.098
Mof_C 	C 	0.7683	0.5098	0.7047	0.118
Mof_C 	C 	0.6043	0.8645	0.4782	0.477
Mof_C 	C 	0.7195	0.0501	0.6887	-0.58
Mof_H 	H 	0.7444	0.9828	0.7049	0.196
Mof_H 	H 	0.696	0.0382	0.6981	0.192
Mof_H 	H 	0.7072	0.0267	0.6581	0.196
Mof_C 	C 	0.8636	0.8953	0.66985	-0.09
Mof_H 	H 	0.8446	0.9328	0.6422	0.068
Mof_C 	C 	0.7858	0.6692	0.7083	-0.618
Mof_H 	H 	0.8136	0.6691	0.7051	0.209
Mof_H 	H 	0.7632	0.7301	0.6858	0.212
Mof_H 	H 	0.7918	0.71	0.7363	0.204
Mof_C 	C 	0.8509	0.4254	0.7419	-0.566
Mof_H 	H 	0.8614	0.4524	0.772	0.193
Mof_H 	H 	0.8666	0.3359	0.74	0.2
Mof_H 	H 	0.8572	0.5067	0.7268	0.192
Mof_C 	C 	0.6541	0.2979	0.6551	-0.585
Mof_H 	H 	0.6389	0.3764	0.6343	0.201
Mof_H 	H 	0.6499	0.203	0.6402	0.199
Mof_H 	H 	0.6415	0.292	0.6756	0.195
Mof_C 	C 	0.94966	0.7203	0.796	0.297
Mof_O 	O 	0.96997	0.5929	0.80021	-0.424
Mof_O 	O 	0.95444	0.7967	0.82869	-0.478
Mof_O 	O 	0.63567	0.7939	0.47193	-0.542
Mof_H 	H 	0.6264	0.7776	0.4458	0.321
Mof_C 	C 	0.8988	0.7305	0.6342	0.414
Mof_O 	O 	0.86506	0.7511	0.59784	-0.328
Mof_C 	C 	0.5891	0.924	0.57968	-0.072
Mof_O 	O 	0.57184	0.9301	0.45011	-0.564
Mof_C 	C 	0.5592	0.0115	0.5947	0.309
Mof_O 	O 	0.52787	0.0921	0.56811	-0.467
Mof_O 	O 	0.56635	0.0025	0.6336	-0.475
Mof_O 	O 	0.93519	0.6748	0.63889	-0.55
Mof_Sm	Sm	0.49338	0.12191	0.61836	2.014
Mof_C 	C 	0.88943	0.352	0.97635	-0.123
Mof_C 	C 	0.5801	0.2818	0.74924	-0.05
Mof_C 	C 	0.8117	0.1088	0.83292	-0.008
Mof_H 	H 	0.8	0.1969	0.8144	0.024
Mof_H 	H 	0.8408	0.0813	0.8337	0.025
Mof_C 	C 	0.576	0.2249	0.78478	-0.012
Mof_H 	H 	0.5547	0.1503	0.7817	0.046
Mof_C 	C 	0.61096	0.3979	0.75313	-0.108
Mof_H 	H 	0.6119	0.4375	0.7284	0.068
Mof_C 	C 	0.6826	0.6157	0.76568	-0.014
Mof_H 	H 	0.6959	0.5324	0.7567	0.023
Mof_H 	H 	0.6553	0.649	0.7405	0.026
Mof_C 	C 	0.7163	0.7432	0.7824	-0.088
Mof_C 	C 	0.7635	0.7111	0.8038	0.092
Mof_C 	C 	0.7782	0.9789	0.81489	-0.108
Mof_C 	C 	0.7004	0.8957	0.77876	0.077
Mof_N 	N 	0.67064	0.5655	0.79975	-0.208
Mof_H 	H 	0.6836	0.6089	0.8248	0.122
Mof_C 	C 	0.8501	0.2426	0.904	0.082
Mof_C 	C 	0.8563	0.2567	0.9469	-0.058
Mof_H 	H 	0.8379	0.201	0.9559	0.071
Mof_C 	C 	0.6052	0.2834	0.8257	-0.088
Mof_N 	N 	0.81766	0.1427	0.87626	-0.205
Mof_H 	H 	0.8001	0.0982	0.8854	0.122
Mof_C 	C 	0.6399	0.4532	0.7939	0.101
Mof_C 	C 	0.9178	0.435	0.96308	0.019
Mof_H 	H 	0.9409	0.4965	0.9828	0.035
Mof_C 	C 	0.8777	0.3296	0.89113	-0.087
Mof_H 	H 	0.8736	0.3239	0.8625	0.059
Mof_C 	C 	0.7947	0.8335	0.8206	0.097
Mof_C 	C 	0.7317	0.0098	0.7953	0.115
Mof_C 	C 	0.8957	0.3645	0.0218	0.476
Mof_C 	C 	0.7805	0.5501	0.8113	-0.58
Mof_H 	H 	0.7556	0.4828	0.7951	0.197
Mof_H 	H 	0.804	0.5382	0.8019	0.192
Mof_H 	H 	0.7928	0.5267	0.8419	0.196
Mof_C 	C 	0.6364	0.3953	0.83015	-0.09
Mof_H 	H 	0.6554	0.4328	0.8578	0.068
Mof_C 	C 	0.7142	0.1692	0.7917	-0.615
Mof_H 	H 	0.6864	0.1691	0.7949	0.208
Mof_H 	H 	0.7368	0.2301	0.8142	0.211
Mof_H 	H 	0.7082	0.21	0.7637	0.203
Mof_C 	C 	0.6491	0.9254	0.7581	-0.563
Mof_H 	H 	0.6386	0.9524	0.728	0.192
Mof_H 	H 	0.6334	0.8359	0.76	0.199
Mof_H 	H 	0.6428	0.0067	0.7732	0.19
Mof_C 	C 	0.8459	0.7979	0.8449	-0.583
Mof_H 	H 	0.8611	0.8764	0.8657	0.201
Mof_H 	H 	0.8501	0.703	0.8598	0.199
Mof_H 	H 	0.8585	0.792	0.8244	0.195
Mof_C 	C 	0.55034	0.2203	0.704	0.297
Mof_O 	O 	0.53003	0.0929	0.69979	-0.425
Mof_O 	O 	0.54556	0.2967	0.67131	-0.478
Mof_O 	O 	0.86433	0.2939	0.02807	-0.542
Mof_H 	H 	0.8736	0.2776	0.0542	0.321
Mof_C 	C 	0.6012	0.2305	0.8658	0.413
Mof_O 	O 	0.63494	0.2511	0.90216	-0.328
Mof_C 	C 	0.9109	0.424	0.92032	-0.072
Mof_O 	O 	0.92816	0.4301	0.04989	-0.564
Mof_C 	C 	0.9408	0.5115	0.9053	0.31
Mof_O 	O 	0.97213	0.5921	0.93189	-0.466
Mof_O 	O 	0.93365	0.5025	0.8664	-0.474
Mof_O 	O 	0.56481	0.1748	0.86111	-0.55
Mof_Sm	Sm	0.99338	0.62191	0.61836	2.017
Mof_C 	C 	0.38943	0.852	0.97635	-0.125
Mof_C 	C 	0.0801	0.7818	0.74924	-0.05
Mof_C 	C 	0.3117	0.6088	0.83292	-0.006
Mof_H 	H 	0.3	0.6969	0.8144	0.023
Mof_H 	H 	0.3408	0.5813	0.8337	0.024
Mof_C 	C 	0.076	0.7249	0.78478	-0.012
Mof_H 	H 	0.0547	0.6503	0.7817	0.046
Mof_C 	C 	0.11096	0.8979	0.75313	-0.108
Mof_H 	H 	0.1119	0.9375	0.7284	0.068
Mof_C 	C 	0.1826	0.1157	0.76568	-0.014
Mof_H 	H 	0.1959	0.0324	0.7567	0.023
Mof_H 	H 	0.1553	0.149	0.7405	0.027
Mof_C 	C 	0.2163	0.2432	0.7824	-0.088
Mof_C 	C 	0.2635	0.2111	0.8038	0.091
Mof_C 	C 	0.2782	0.4789	0.81489	-0.111
Mof_C 	C 	0.2004	0.3957	0.77876	0.076
Mof_N 	N 	0.17064	0.0655	0.79975	-0.207
Mof_H 	H 	0.1836	0.1089	0.8248	0.122
Mof_C 	C 	0.3501	0.7426	0.904	0.082
Mof_C 	C 	0.3563	0.7567	0.9469	-0.057
Mof_H 	H 	0.3379	0.701	0.9559	0.07
Mof_C 	C 	0.1052	0.7834	0.8257	-0.088
Mof_N 	N 	0.31766	0.6427	0.87626	-0.205
Mof_H 	H 	0.3001	0.5982	0.8854	0.123
Mof_C 	C 	0.1399	0.9532	0.7939	0.1
Mof_C 	C 	0.4178	0.935	0.96308	0.019
Mof_H 	H 	0.4409	0.9965	0.9828	0.034
Mof_C 	C 	0.3777	0.8296	0.89113	-0.087
Mof_H 	H 	0.3736	0.8239	0.8625	0.059
Mof_C 	C 	0.2947	0.3335	0.8206	0.098
Mof_C 	C 	0.2317	0.5098	0.7953	0.118
Mof_C 	C 	0.3957	0.8645	0.0218	0.477
Mof_C 	C 	0.2805	0.0501	0.8113	-0.58
Mof_H 	H 	0.2556	0.9828	0.7951	0.196
Mof_H 	H 	0.304	0.0382	0.8019	0.192
Mof_H 	H 	0.2928	0.0267	0.8419	0.196
Mof_C 	C 	0.1364	0.8953	0.83015	-0.09
Mof_H 	H 	0.1554	0.9328	0.8578	0.068
Mof_C 	C 	0.2142	0.6692	0.7917	-0.618
Mof_H 	H 	0.1864	0.6691	0.7949	0.209
Mof_H 	H 	0.2368	0.7301	0.8142	0.212
Mof_H 	H 	0.2082	0.71	0.7637	0.204
Mof_C 	C 	0.1491	0.4254	0.7581	-0.566
Mof_H 	H 	0.1386	0.4524	0.728	0.193
Mof_H 	H 	0.1334	0.3359	0.76	0.2
Mof_H 	H 	0.1428	0.5067	0.7732	0.192
Mof_C 	C 	0.3459	0.2979	0.8449	-0.585
Mof_H 	H 	0.3611	0.3764	0.8657	0.201
Mof_H 	H 	0.3501	0.203	0.8598	0.199
Mof_H 	H 	0.3585	0.292	0.8244	0.195
Mof_C 	C 	0.05034	0.7203	0.704	0.297
Mof_O 	O 	0.03003	0.5929	0.69979	-0.424
Mof_O 	O 	0.04556	0.7967	0.67131	-0.478
Mof_O 	O 	0.36433	0.7939	0.02807	-0.542
Mof_H 	H 	0.3736	0.7776	0.0542	0.321
Mof_C 	C 	0.1012	0.7305	0.8658	0.414
Mof_O 	O 	0.13494	0.7511	0.90216	-0.328
Mof_C 	C 	0.4109	0.924	0.92032	-0.072
Mof_O 	O 	0.42816	0.9301	0.04989	-0.564
Mof_C 	C 	0.4408	0.0115	0.9053	0.309
Mof_O 	O 	0.47213	0.0921	0.93189	-0.467
Mof_O 	O 	0.43365	0.0025	0.8664	-0.475
Mof_O 	O 	0.06481	0.6748	0.86111	-0.55
_end
