data_functionalizedCrystal
_audit_creation_method	'EQeq! by Chris Wilmer'
_symmetry_space_group_name_H-M	'P1'
_symmetry_Int_Tables_number	1
_symmetry_cell_setting	triclinic
loop_
_symmetry_equiv_pos_as_xyz
  x,y,z
_cell_length_a	21.54
_cell_length_b	9.168
_cell_length_c	23.321
_cell_angle_alpha	90
_cell_angle_beta	101.736
_cell_angle_gamma	90
loop_
_atom_site_label
_atom_site_type_symbol
_atom_site_fract_x
_atom_site_fract_y
_atom_site_fract_z
_atom_site_charge
Mof_Zn	Zn	0.08478	0.62344	0.50414	1.241
Mof_O 	O 	0.22256	0.5559	0.49331	-0.271
Mof_O 	O 	0.13789	0.6789	0.44897	-0.423
Mof_O 	O 	0.4196	0.7614	0.42695	-0.441
Mof_O 	O 	0.41392	0.7256	0.33313	-0.245
Mof_O 	O 	0.09825	0.58	0.02091	-0.426
Mof_O 	O 	0.066	0.8399	0.01827	-0.209
Mof_O 	O 	0.9957	0.648	0.05061	-0.426
Mof_P 	P 	0.06281	0.69518	0.04798	0.444
Mof_C 	C 	0.19356	0.6268	0.45248	0.344
Mof_C 	C 	0.22412	0.6628	0.4018	-0.075
Mof_C 	C 	0.28932	0.6828	0.41168	0.037
Mof_H 	H 	0.3137	0.6716	0.4492	0.025
Mof_C 	C 	0.31804	0.7194	0.36576	-0.118
Mof_C 	C 	0.3885	0.7375	0.37544	0.363
Mof_C 	C 	0.2811	0.733	0.30966	0.006
Mof_H 	H 	0.3006	0.758	0.2789	0.046
Mof_C 	C 	0.21636	0.7103	0.29835	-0.028
Mof_C 	C 	0.17733	0.7152	0.23816	0.076
Mof_C 	C 	0.18496	0.8221	0.19792	-0.109
Mof_H 	H 	0.2146	0.8958	0.2091	0.082
Mof_C 	C 	0.1491	0.8208	0.14138	0.037
Mof_H 	H 	0.155	0.8937	0.1152	0.045
Mof_C 	C 	0.10444	0.712	0.12318	-0.073
Mof_C 	C 	0.09639	0.6071	0.16333	0.03
Mof_H 	H 	0.0662	0.5343	0.1524	0.04
Mof_C 	C 	0.13231	0.6085	0.21939	-0.113
Mof_H 	H 	0.1262	0.5357	0.2454	0.085
Mof_C 	C 	0.18817	0.6761	0.3455	-0.005
Mof_H 	H 	0.1445	0.6619	0.3391	0.056
Mof_Zn	Zn	0.58478	0.12344	0.50414	1.241
Mof_O 	O 	0.72256	0.0559	0.49331	-0.271
Mof_O 	O 	0.63789	0.1789	0.44897	-0.423
Mof_O 	O 	0.9196	0.2614	0.42695	-0.441
Mof_O 	O 	0.91392	0.2256	0.33313	-0.244
Mof_O 	O 	0.59825	0.08	0.02091	-0.425
Mof_O 	O 	0.566	0.3399	0.01827	-0.208
Mof_O 	O 	0.4957	0.148	0.05061	-0.427
Mof_P 	P 	0.56281	0.19518	0.04798	0.445
Mof_C 	C 	0.69356	0.1268	0.45248	0.344
Mof_C 	C 	0.72412	0.1628	0.4018	-0.074
Mof_C 	C 	0.78932	0.1828	0.41168	0.037
Mof_H 	H 	0.8137	0.1716	0.4492	0.025
Mof_C 	C 	0.81804	0.2194	0.36576	-0.117
Mof_C 	C 	0.8885	0.2375	0.37544	0.363
Mof_C 	C 	0.7811	0.233	0.30966	0.006
Mof_H 	H 	0.8006	0.258	0.2789	0.047
Mof_C 	C 	0.71636	0.2103	0.29835	-0.028
Mof_C 	C 	0.67733	0.2152	0.23816	0.076
Mof_C 	C 	0.68496	0.3221	0.19792	-0.109
Mof_H 	H 	0.7146	0.3958	0.2091	0.082
Mof_C 	C 	0.6491	0.3208	0.14138	0.037
Mof_H 	H 	0.655	0.3937	0.1152	0.046
Mof_C 	C 	0.60444	0.212	0.12318	-0.072
Mof_C 	C 	0.59639	0.1071	0.16333	0.03
Mof_H 	H 	0.5662	0.0343	0.1524	0.041
Mof_C 	C 	0.63231	0.1085	0.21939	-0.112
Mof_H 	H 	0.6262	0.0357	0.2454	0.085
Mof_C 	C 	0.68817	0.1761	0.3455	-0.005
Mof_H 	H 	0.6445	0.1619	0.3391	0.057
Mof_Zn	Zn	0.91522	0.62344	0.99586	1.24
Mof_O 	O 	0.77744	0.5559	0.00669	-0.27
Mof_O 	O 	0.86211	0.6789	0.05103	-0.422
Mof_O 	O 	0.5804	0.7614	0.07305	-0.442
Mof_O 	O 	0.58608	0.7256	0.16687	-0.245
Mof_O 	O 	0.90175	0.58	0.47909	-0.426
Mof_O 	O 	0.934	0.8399	0.48173	-0.208
Mof_O 	O 	0.0043	0.648	0.44939	-0.428
Mof_P 	P 	0.93719	0.69518	0.45202	0.445
Mof_C 	C 	0.80644	0.6268	0.04752	0.344
Mof_C 	C 	0.77588	0.6628	0.0982	-0.074
Mof_C 	C 	0.71068	0.6828	0.08832	0.037
Mof_H 	H 	0.6863	0.6716	0.0508	0.025
Mof_C 	C 	0.68196	0.7194	0.13424	-0.117
Mof_C 	C 	0.6115	0.7375	0.12456	0.363
Mof_C 	C 	0.7189	0.733	0.19034	0.006
Mof_H 	H 	0.6994	0.758	0.2211	0.046
Mof_C 	C 	0.78364	0.7103	0.20165	-0.028
Mof_C 	C 	0.82267	0.7152	0.26184	0.076
Mof_C 	C 	0.81504	0.8221	0.30208	-0.109
Mof_H 	H 	0.7854	0.8958	0.2909	0.082
Mof_C 	C 	0.8509	0.8208	0.35862	0.037
Mof_H 	H 	0.845	0.8937	0.3848	0.046
Mof_C 	C 	0.89556	0.712	0.37682	-0.073
Mof_C 	C 	0.90361	0.6071	0.33667	0.03
Mof_H 	H 	0.9338	0.5343	0.3476	0.04
Mof_C 	C 	0.86769	0.6085	0.28061	-0.113
Mof_H 	H 	0.8738	0.5357	0.2546	0.085
Mof_C 	C 	0.81183	0.6761	0.1545	-0.005
Mof_H 	H 	0.8555	0.6619	0.1609	0.057
Mof_Zn	Zn	0.41522	0.12344	0.99586	1.24
Mof_O 	O 	0.27744	0.0559	0.00669	-0.271
Mof_O 	O 	0.36211	0.1789	0.05103	-0.422
Mof_O 	O 	0.0804	0.2614	0.07305	-0.442
Mof_O 	O 	0.08608	0.2256	0.16687	-0.245
Mof_O 	O 	0.40175	0.08	0.47909	-0.426
Mof_O 	O 	0.434	0.3399	0.48173	-0.208
Mof_O 	O 	0.5043	0.148	0.44939	-0.428
Mof_P 	P 	0.43719	0.19518	0.45202	0.445
Mof_C 	C 	0.30644	0.1268	0.04752	0.344
Mof_C 	C 	0.27588	0.1628	0.0982	-0.074
Mof_C 	C 	0.21068	0.1828	0.08832	0.037
Mof_H 	H 	0.1863	0.1716	0.0508	0.025
Mof_C 	C 	0.18196	0.2194	0.13424	-0.117
Mof_C 	C 	0.1115	0.2375	0.12456	0.363
Mof_C 	C 	0.2189	0.233	0.19034	0.006
Mof_H 	H 	0.1994	0.258	0.2211	0.047
Mof_C 	C 	0.28364	0.2103	0.20165	-0.028
Mof_C 	C 	0.32267	0.2152	0.26184	0.076
Mof_C 	C 	0.31504	0.3221	0.30208	-0.109
Mof_H 	H 	0.2854	0.3958	0.2909	0.082
Mof_C 	C 	0.3509	0.3208	0.35862	0.037
Mof_H 	H 	0.345	0.3937	0.3848	0.046
Mof_C 	C 	0.39556	0.212	0.37682	-0.072
Mof_C 	C 	0.40361	0.1071	0.33667	0.03
Mof_H 	H 	0.4338	0.0343	0.3476	0.04
Mof_C 	C 	0.36769	0.1085	0.28061	-0.113
Mof_H 	H 	0.3738	0.0357	0.2546	0.085
Mof_C 	C 	0.31183	0.1761	0.1545	-0.005
Mof_H 	H 	0.3555	0.1619	0.1609	0.057
Mof_Zn	Zn	0.91522	0.37656	0.49586	1.241
Mof_O 	O 	0.77744	0.4441	0.50669	-0.271
Mof_O 	O 	0.86211	0.3211	0.55103	-0.423
Mof_O 	O 	0.5804	0.2386	0.57305	-0.441
Mof_O 	O 	0.58608	0.2744	0.66687	-0.245
Mof_O 	O 	0.90175	0.42	0.97909	-0.426
Mof_O 	O 	0.934	0.1601	0.98173	-0.209
Mof_O 	O 	0.0043	0.352	0.94939	-0.426
Mof_P 	P 	0.93719	0.30482	0.95202	0.444
Mof_C 	C 	0.80644	0.3732	0.54752	0.344
Mof_C 	C 	0.77588	0.3372	0.5982	-0.075
Mof_C 	C 	0.71068	0.3172	0.58832	0.037
Mof_H 	H 	0.6863	0.3284	0.5508	0.025
Mof_C 	C 	0.68196	0.2806	0.63424	-0.118
Mof_C 	C 	0.6115	0.2625	0.62456	0.363
Mof_C 	C 	0.7189	0.267	0.69034	0.006
Mof_H 	H 	0.6994	0.242	0.7211	0.046
Mof_C 	C 	0.78364	0.2897	0.70165	-0.028
Mof_C 	C 	0.82267	0.2848	0.76184	0.076
Mof_C 	C 	0.81504	0.1779	0.80208	-0.109
Mof_H 	H 	0.7854	0.1042	0.7909	0.082
Mof_C 	C 	0.8509	0.1792	0.85862	0.037
Mof_H 	H 	0.845	0.1063	0.8848	0.045
Mof_C 	C 	0.89556	0.288	0.87682	-0.073
Mof_C 	C 	0.90361	0.3929	0.83667	0.03
Mof_H 	H 	0.9338	0.4657	0.8476	0.04
Mof_C 	C 	0.86769	0.3915	0.78061	-0.113
Mof_H 	H 	0.8738	0.4643	0.7546	0.085
Mof_C 	C 	0.81183	0.3239	0.6545	-0.005
Mof_H 	H 	0.8555	0.3381	0.6609	0.056
Mof_Zn	Zn	0.41522	0.87656	0.49586	1.241
Mof_O 	O 	0.27744	0.9441	0.50669	-0.271
Mof_O 	O 	0.36211	0.8211	0.55103	-0.423
Mof_O 	O 	0.0804	0.7386	0.57305	-0.441
Mof_O 	O 	0.08608	0.7744	0.66687	-0.244
Mof_O 	O 	0.40175	0.92	0.97909	-0.425
Mof_O 	O 	0.434	0.6601	0.98173	-0.208
Mof_O 	O 	0.5043	0.852	0.94939	-0.427
Mof_P 	P 	0.43719	0.80482	0.95202	0.445
Mof_C 	C 	0.30644	0.8732	0.54752	0.344
Mof_C 	C 	0.27588	0.8372	0.5982	-0.074
Mof_C 	C 	0.21068	0.8172	0.58832	0.037
Mof_H 	H 	0.1863	0.8284	0.5508	0.025
Mof_C 	C 	0.18196	0.7806	0.63424	-0.117
Mof_C 	C 	0.1115	0.7625	0.62456	0.363
Mof_C 	C 	0.2189	0.767	0.69034	0.006
Mof_H 	H 	0.1994	0.742	0.7211	0.047
Mof_C 	C 	0.28364	0.7897	0.70165	-0.028
Mof_C 	C 	0.32267	0.7848	0.76184	0.076
Mof_C 	C 	0.31504	0.6779	0.80208	-0.109
Mof_H 	H 	0.2854	0.6042	0.7909	0.082
Mof_C 	C 	0.3509	0.6792	0.85862	0.037
Mof_H 	H 	0.345	0.6063	0.8848	0.046
Mof_C 	C 	0.39556	0.788	0.87682	-0.072
Mof_C 	C 	0.40361	0.8929	0.83667	0.03
Mof_H 	H 	0.4338	0.9657	0.8476	0.041
Mof_C 	C 	0.36769	0.8915	0.78061	-0.112
Mof_H 	H 	0.3738	0.9643	0.7546	0.085
Mof_C 	C 	0.31183	0.8239	0.6545	-0.005
Mof_H 	H 	0.3555	0.8381	0.6609	0.057
Mof_Zn	Zn	0.08478	0.37656	0.00414	1.24
Mof_O 	O 	0.22256	0.4441	0.99331	-0.27
Mof_O 	O 	0.13789	0.3211	0.94897	-0.422
Mof_O 	O 	0.4196	0.2386	0.92695	-0.442
Mof_O 	O 	0.41392	0.2744	0.83313	-0.245
Mof_O 	O 	0.09825	0.42	0.52091	-0.426
Mof_O 	O 	0.066	0.1601	0.51827	-0.208
Mof_O 	O 	0.9957	0.352	0.55061	-0.428
Mof_P 	P 	0.06281	0.30482	0.54798	0.445
Mof_C 	C 	0.19356	0.3732	0.95248	0.344
Mof_C 	C 	0.22412	0.3372	0.9018	-0.074
Mof_C 	C 	0.28932	0.3172	0.91168	0.037
Mof_H 	H 	0.3137	0.3284	0.9492	0.025
Mof_C 	C 	0.31804	0.2806	0.86576	-0.117
Mof_C 	C 	0.3885	0.2625	0.87544	0.363
Mof_C 	C 	0.2811	0.267	0.80966	0.006
Mof_H 	H 	0.3006	0.242	0.7789	0.046
Mof_C 	C 	0.21636	0.2897	0.79835	-0.028
Mof_C 	C 	0.17733	0.2848	0.73816	0.076
Mof_C 	C 	0.18496	0.1779	0.69792	-0.109
Mof_H 	H 	0.2146	0.1042	0.7091	0.082
Mof_C 	C 	0.1491	0.1792	0.64138	0.037
Mof_H 	H 	0.155	0.1063	0.6152	0.046
Mof_C 	C 	0.10444	0.288	0.62318	-0.073
Mof_C 	C 	0.09639	0.3929	0.66333	0.03
Mof_H 	H 	0.0662	0.4657	0.6524	0.04
Mof_C 	C 	0.13231	0.3915	0.71939	-0.113
Mof_H 	H 	0.1262	0.4643	0.7454	0.085
Mof_C 	C 	0.18817	0.3239	0.8455	-0.005
Mof_H 	H 	0.1445	0.3381	0.8391	0.057
Mof_Zn	Zn	0.58478	0.87656	0.00414	1.24
Mof_O 	O 	0.72256	0.9441	0.99331	-0.271
Mof_O 	O 	0.63789	0.8211	0.94897	-0.422
Mof_O 	O 	0.9196	0.7386	0.92695	-0.442
Mof_O 	O 	0.91392	0.7744	0.83313	-0.245
Mof_O 	O 	0.59825	0.92	0.52091	-0.426
Mof_O 	O 	0.566	0.6601	0.51827	-0.208
Mof_O 	O 	0.4957	0.852	0.55061	-0.428
Mof_P 	P 	0.56281	0.80482	0.54798	0.445
Mof_C 	C 	0.69356	0.8732	0.95248	0.344
Mof_C 	C 	0.72412	0.8372	0.9018	-0.074
Mof_C 	C 	0.78932	0.8172	0.91168	0.037
Mof_H 	H 	0.8137	0.8284	0.9492	0.025
Mof_C 	C 	0.81804	0.7806	0.86576	-0.117
Mof_C 	C 	0.8885	0.7625	0.87544	0.363
Mof_C 	C 	0.7811	0.767	0.80966	0.006
Mof_H 	H 	0.8006	0.742	0.7789	0.047
Mof_C 	C 	0.71636	0.7897	0.79835	-0.028
Mof_C 	C 	0.67733	0.7848	0.73816	0.076
Mof_C 	C 	0.68496	0.6779	0.69792	-0.109
Mof_H 	H 	0.7146	0.6042	0.7091	0.082
Mof_C 	C 	0.6491	0.6792	0.64138	0.037
Mof_H 	H 	0.655	0.6063	0.6152	0.046
Mof_C 	C 	0.60444	0.788	0.62318	-0.072
Mof_C 	C 	0.59639	0.8929	0.66333	0.03
Mof_H 	H 	0.5662	0.9657	0.6524	0.04
Mof_C 	C 	0.63231	0.8915	0.71939	-0.113
Mof_H 	H 	0.6262	0.9643	0.7454	0.085
Mof_C 	C 	0.68817	0.8239	0.8455	-0.005
Mof_H 	H 	0.6445	0.8381	0.8391	0.057
_end
