data_functionalizedCrystal
_audit_creation_method	'EQeq! by Chris Wilmer'
_symmetry_space_group_name_H-M	'P1'
_symmetry_Int_Tables_number	1
_symmetry_cell_setting	triclinic
loop_
_symmetry_equiv_pos_as_xyz
  x,y,z
_cell_length_a	17.7003
_cell_length_b	17.7003
_cell_length_c	13.9208
_cell_angle_alpha	90
_cell_angle_beta	90
_cell_angle_gamma	120
loop_
_atom_site_label
_atom_site_type_symbol
_atom_site_fract_x
_atom_site_fract_y
_atom_site_fract_z
_atom_site_charge
Mof_Cu	Cu	0.87458	0.43353	0.63546	0.897
Mof_Cu	Cu	0.87357	0.42928	0.3902	0.902
Mof_O 	O 	0.8435	0.3749	0.5115	-0.78
Mof_H 	H 	0.839	0.326	0.511	0.287
Mof_O 	O 	0.2284	0.548	0.1405	-0.567
Mof_O 	O 	0.2961	0.4956	0.2285	-0.357
Mof_O 	O 	0.0115	0.5605	0.1594	-0.347
Mof_O 	O 	0.7738	0.4505	0.3865	-0.55
Mof_O 	O 	0.9902	0.4364	0.368	-0.327
Mof_O 	O 	0.7056	0.5027	0.2971	-0.368
Mof_N 	N 	0.9035	0.4995	0.2765	-0.231
Mof_N 	N 	0.0979	0.5003	0.2518	-0.222
Mof_C 	C 	0.2337	0.5093	0.2128	0.349
Mof_C 	C 	0.1556	0.4695	0.2842	-0.04
Mof_H 	H 	0.1755	0.4882	0.3517	0.049
Mof_C 	C 	0.1091	0.3634	0.2725	-0.337
Mof_H 	H 	0.0598	0.335	0.317	0.131
Mof_H 	H 	0.1516	0.3449	0.2872	0.121
Mof_H 	H 	0.0883	0.3469	0.2065	0.109
Mof_C 	C 	0.9756	0.5183	0.235	0.14
Mof_C 	C 	0.0237	0.4814	0.2903	0.106
Mof_C 	C 	0.7677	0.4916	0.3111	0.334
Mof_C 	C 	0.8385	0.5188	0.2361	-0.041
Mof_H 	H 	0.8654	0.5824	0.2212	0.047
Mof_C 	C 	0.7956	0.4606	0.1407	-0.334
Mof_H 	H 	0.8397	0.4799	0.0898	0.127
Mof_H 	H 	0.7468	0.4677	0.1192	0.115
Mof_H 	H 	0.7744	0.3991	0.1554	0.116
Mof_Cu	Cu	0.56647	0.44105	0.63546	0.898
Mof_Cu	Cu	0.57072	0.44429	0.3902	0.903
Mof_O 	O 	0.6251	0.4686	0.5115	-0.779
Mof_H 	H 	0.674	0.513	0.511	0.287
Mof_O 	O 	0.452	0.6804	0.1405	-0.567
Mof_O 	O 	0.5044	0.8005	0.2285	-0.357
Mof_O 	O 	0.4395	0.451	0.1594	-0.347
Mof_O 	O 	0.5495	0.3233	0.3865	-0.55
Mof_O 	O 	0.5636	0.5538	0.368	-0.326
Mof_O 	O 	0.4973	0.2029	0.2971	-0.368
Mof_N 	N 	0.5005	0.404	0.2765	-0.231
Mof_N 	N 	0.4997	0.5976	0.2518	-0.222
Mof_C 	C 	0.4907	0.7244	0.2128	0.349
Mof_C 	C 	0.5305	0.6861	0.2842	-0.04
Mof_H 	H 	0.5118	0.6873	0.3517	0.049
Mof_C 	C 	0.6366	0.7457	0.2725	-0.337
Mof_H 	H 	0.665	0.7248	0.317	0.131
Mof_H 	H 	0.6551	0.8067	0.2872	0.121
Mof_H 	H 	0.6531	0.7414	0.2065	0.109
Mof_C 	C 	0.4817	0.4573	0.235	0.14
Mof_C 	C 	0.5186	0.5423	0.2903	0.106
Mof_C 	C 	0.5084	0.2761	0.3111	0.334
Mof_C 	C 	0.4812	0.3197	0.2361	-0.041
Mof_H 	H 	0.4176	0.283	0.2212	0.047
Mof_C 	C 	0.5394	0.335	0.1407	-0.334
Mof_H 	H 	0.5201	0.3598	0.0898	0.127
Mof_H 	H 	0.5323	0.2791	0.1192	0.115
Mof_H 	H 	0.6009	0.3753	0.1554	0.116
Mof_Cu	Cu	0.55895	0.12542	0.63546	0.898
Mof_Cu	Cu	0.55571	0.12643	0.3902	0.903
Mof_O 	O 	0.5314	0.1565	0.5115	-0.779
Mof_H 	H 	0.487	0.161	0.511	0.287
Mof_O 	O 	0.3196	0.7716	0.1405	-0.567
Mof_O 	O 	0.1995	0.7039	0.2285	-0.357
Mof_O 	O 	0.549	0.9885	0.1594	-0.347
Mof_O 	O 	0.6767	0.2262	0.3865	-0.55
Mof_O 	O 	0.4462	0.0098	0.368	-0.327
Mof_O 	O 	0.7971	0.2944	0.2971	-0.368
Mof_N 	N 	0.596	0.0965	0.2765	-0.231
Mof_N 	N 	0.4024	0.9021	0.2518	-0.222
Mof_C 	C 	0.2756	0.7663	0.2128	0.349
Mof_C 	C 	0.3139	0.8444	0.2842	-0.04
Mof_H 	H 	0.3127	0.8245	0.3517	0.049
Mof_C 	C 	0.2543	0.8909	0.2725	-0.336
Mof_H 	H 	0.2752	0.9402	0.317	0.131
Mof_H 	H 	0.1933	0.8484	0.2872	0.121
Mof_H 	H 	0.2586	0.9117	0.2065	0.109
Mof_C 	C 	0.5427	0.0244	0.235	0.14
Mof_C 	C 	0.4577	0.9763	0.2903	0.106
Mof_C 	C 	0.7239	0.2323	0.3111	0.334
Mof_C 	C 	0.6803	0.1615	0.2361	-0.041
Mof_H 	H 	0.717	0.1346	0.2212	0.047
Mof_C 	C 	0.665	0.2044	0.1407	-0.334
Mof_H 	H 	0.6402	0.1603	0.0898	0.127
Mof_H 	H 	0.7209	0.2532	0.1192	0.115
Mof_H 	H 	0.6247	0.2256	0.1554	0.116
Mof_Cu	Cu	0.12542	0.56647	0.13546	0.897
Mof_Cu	Cu	0.12643	0.57072	0.8902	0.909
Mof_O 	O 	0.1565	0.6251	0.0115	-0.786
Mof_H 	H 	0.161	0.674	0.011	0.284
Mof_O 	O 	0.7716	0.452	0.6405	-0.568
Mof_O 	O 	0.7039	0.5044	0.7285	-0.355
Mof_O 	O 	0.9885	0.4395	0.6594	-0.344
Mof_O 	O 	0.2262	0.5495	0.8865	-0.537
Mof_O 	O 	0.0098	0.5636	0.868	-0.319
Mof_O 	O 	0.2944	0.4973	0.7971	-0.363
Mof_N 	N 	0.0965	0.5005	0.7765	-0.23
Mof_N 	N 	0.9021	0.4997	0.7518	-0.221
Mof_C 	C 	0.7663	0.4907	0.7128	0.35
Mof_C 	C 	0.8444	0.5305	0.7842	-0.038
Mof_H 	H 	0.8245	0.5118	0.8517	0.053
Mof_C 	C 	0.8909	0.6366	0.7725	-0.344
Mof_H 	H 	0.9402	0.665	0.817	0.137
Mof_H 	H 	0.8484	0.6551	0.7872	0.127
Mof_H 	H 	0.9117	0.6531	0.7065	0.114
Mof_C 	C 	0.0244	0.4817	0.735	0.142
Mof_C 	C 	0.9763	0.5186	0.7903	0.106
Mof_C 	C 	0.2323	0.5084	0.8111	0.332
Mof_C 	C 	0.1615	0.4812	0.7361	-0.037
Mof_H 	H 	0.1346	0.4176	0.7212	0.049
Mof_C 	C 	0.2044	0.5394	0.6407	-0.342
Mof_H 	H 	0.1603	0.5201	0.5898	0.134
Mof_H 	H 	0.2532	0.5323	0.6192	0.12
Mof_H 	H 	0.2256	0.6009	0.6554	0.12
Mof_Cu	Cu	0.43353	0.55895	0.13546	0.897
Mof_Cu	Cu	0.42928	0.55571	0.8902	0.909
Mof_O 	O 	0.3749	0.5314	0.0115	-0.786
Mof_H 	H 	0.326	0.487	0.011	0.284
Mof_O 	O 	0.548	0.3196	0.6405	-0.568
Mof_O 	O 	0.4956	0.1995	0.7285	-0.355
Mof_O 	O 	0.5605	0.549	0.6594	-0.344
Mof_O 	O 	0.4505	0.6767	0.8865	-0.537
Mof_O 	O 	0.4364	0.4462	0.868	-0.319
Mof_O 	O 	0.5027	0.7971	0.7971	-0.362
Mof_N 	N 	0.4995	0.596	0.7765	-0.23
Mof_N 	N 	0.5003	0.4024	0.7518	-0.221
Mof_C 	C 	0.5093	0.2756	0.7128	0.35
Mof_C 	C 	0.4695	0.3139	0.7842	-0.037
Mof_H 	H 	0.4882	0.3127	0.8517	0.053
Mof_C 	C 	0.3634	0.2543	0.7725	-0.344
Mof_H 	H 	0.335	0.2752	0.817	0.137
Mof_H 	H 	0.3449	0.1933	0.7872	0.127
Mof_H 	H 	0.3469	0.2586	0.7065	0.114
Mof_C 	C 	0.5183	0.5427	0.735	0.142
Mof_C 	C 	0.4814	0.4577	0.7903	0.107
Mof_C 	C 	0.4916	0.7239	0.8111	0.332
Mof_C 	C 	0.5188	0.6803	0.7361	-0.037
Mof_H 	H 	0.5824	0.717	0.7212	0.049
Mof_C 	C 	0.4606	0.665	0.6407	-0.342
Mof_H 	H 	0.4799	0.6402	0.5898	0.134
Mof_H 	H 	0.4677	0.7209	0.6192	0.12
Mof_H 	H 	0.3991	0.6247	0.6554	0.12
Mof_Cu	Cu	0.44105	0.87458	0.13546	0.897
Mof_Cu	Cu	0.44429	0.87357	0.8902	0.909
Mof_O 	O 	0.4686	0.8435	0.0115	-0.786
Mof_H 	H 	0.513	0.839	0.011	0.284
Mof_O 	O 	0.6804	0.2284	0.6405	-0.568
Mof_O 	O 	0.8005	0.2961	0.7285	-0.355
Mof_O 	O 	0.451	0.0115	0.6594	-0.344
Mof_O 	O 	0.3233	0.7738	0.8865	-0.537
Mof_O 	O 	0.5538	0.9902	0.868	-0.319
Mof_O 	O 	0.2029	0.7056	0.7971	-0.363
Mof_N 	N 	0.404	0.9035	0.7765	-0.23
Mof_N 	N 	0.5976	0.0979	0.7518	-0.221
Mof_C 	C 	0.7244	0.2337	0.7128	0.35
Mof_C 	C 	0.6861	0.1556	0.7842	-0.038
Mof_H 	H 	0.6873	0.1755	0.8517	0.053
Mof_C 	C 	0.7457	0.1091	0.7725	-0.343
Mof_H 	H 	0.7248	0.0598	0.817	0.136
Mof_H 	H 	0.8067	0.1516	0.7872	0.127
Mof_H 	H 	0.7414	0.0883	0.7065	0.114
Mof_C 	C 	0.4573	0.9756	0.735	0.142
Mof_C 	C 	0.5423	0.0237	0.7903	0.106
Mof_C 	C 	0.2761	0.7677	0.8111	0.332
Mof_C 	C 	0.3197	0.8385	0.7361	-0.037
Mof_H 	H 	0.283	0.8654	0.7212	0.049
Mof_C 	C 	0.335	0.7956	0.6407	-0.342
Mof_H 	H 	0.3598	0.8397	0.5898	0.134
Mof_H 	H 	0.2791	0.7468	0.6192	0.12
Mof_H 	H 	0.3753	0.7744	0.6554	0.12
Mof_Ba	Ba	0.66667	0.33333	0.51377	1.938
Mof_Ba	Ba	0.33333	0.66667	0.01377	1.894
_end
