data_functionalizedCrystal
_audit_creation_method	'EQeq! by Chris Wilmer'
_symmetry_space_group_name_H-M	'P1'
_symmetry_Int_Tables_number	1
_symmetry_cell_setting	triclinic
loop_
_symmetry_equiv_pos_as_xyz
  x,y,z
_cell_length_a	12.3747
_cell_length_b	14.1946
_cell_length_c	15.3176
_cell_angle_alpha	107.77
_cell_angle_beta	113.825
_cell_angle_gamma	90
loop_
_atom_site_label
_atom_site_type_symbol
_atom_site_fract_x
_atom_site_fract_y
_atom_site_fract_z
_atom_site_charge
Mof_Mn	Mn	0.98203	0.0036	0.75206	0.88
Mof_Mn	Mn	0.22997	0.4964	0.24794	0.878
Mof_Mn	Mn	0.01797	0.9964	0.24794	0.874
Mof_Mn	Mn	0.77003	0.5036	0.75206	0.897
Mof_Mn	Mn	-1.15661e-17	0	0.5	0.936
Mof_Mn	Mn	0.5	0.5	0.5	1.026
Mof_H 	H 	0.1527	0.2887	0.905	0.061
Mof_H 	H 	0.3741	0.5583	0.1636	0.203
Mof_H 	H 	0.3586	0.5284	0.9304	0.111
Mof_H 	H 	0.2187	0.295	0.6674	0.1
Mof_H 	H 	0.4641	0.5689	0.7652	-0.008
Mof_H 	H 	0.4677	0.5623	0.8688	-0.001
Mof_H 	H 	0.3239	0.5414	0.6152	0.102
Mof_H 	H 	0.1544	0.7465	0.4928	0.068
Mof_H 	H 	0.2272	0.7763	0.7832	0.103
Mof_H 	H 	0.2477	0.2113	0.095	0.073
Mof_H 	H 	0.2105	0.9417	0.8364	0.202
Mof_H 	H 	0.4282	0.9716	0.0696	0.148
Mof_H 	H 	0.5513	0.205	0.3326	0.108
Mof_H 	H 	0.6989	0.9311	0.2348	-0.011
Mof_H 	H 	0.5989	0.9377	0.1312	-0.006
Mof_H 	H 	0.7087	0.9586	0.3848	0.116
Mof_H 	H 	0.6616	0.7535	0.5072	0.075
Mof_H 	H 	0.444	0.7237	0.2168	0.108
Mof_H 	H 	0.8473	0.7113	0.095	0.078
Mof_H 	H 	0.6259	0.4417	0.8364	0.203
Mof_H 	H 	0.6414	0.4716	0.0696	0.116
Mof_H 	H 	0.7813	0.705	0.3326	0.108
Mof_H 	H 	0.5359	0.4311	0.2348	-0.008
Mof_H 	H 	0.5323	0.4377	0.1312	-0
Mof_H 	H 	0.6761	0.4586	0.3848	0.105
Mof_H 	H 	0.8456	0.2535	0.5072	0.076
Mof_H 	H 	0.7728	0.2237	0.2168	0.11
Mof_H 	H 	0.7523	0.7887	0.905	0.063
Mof_H 	H 	0.7895	0.0583	0.1636	0.204
Mof_H 	H 	0.5718	0.0284	0.9304	0.06
Mof_H 	H 	0.4487	0.795	0.6674	0.095
Mof_H 	H 	0.3011	0.0689	0.7652	-0.001
Mof_H 	H 	0.4011	0.0623	0.8688	0.004
Mof_H 	H 	0.2913	0.0414	0.6152	0.095
Mof_H 	H 	0.3384	0.2465	0.4928	0.068
Mof_H 	H 	0.556	0.2763	0.7832	0.103
Mof_C 	C 	0.09959	0.1756	0.71438	0.361
Mof_C 	C 	0.17348	0.2769	0.77596	-0.038
Mof_C 	C 	0.18902	0.3217	0.87624	-0.022
Mof_C 	C 	0.25809	0.4147	0.93318	-0.03
Mof_C 	C 	0.27493	0.4628	0.03966	0.332
Mof_C 	C 	0.31257	0.4642	0.89154	-0.127
Mof_C 	C 	0.29828	0.418	0.79336	0.203
Mof_C 	C 	0.22867	0.3253	0.73514	-0.12
Mof_C 	C 	0.41402	0.5564	0.79824	0.205
Mof_C 	C 	0.28539	0.6545	0.71218	0.197
Mof_C 	C 	0.28873	0.6012	0.62166	-0.129
Mof_C 	C 	0.24017	0.6359	0.53994	-0.027
Mof_C 	C 	0.25166	0.5813	0.44352	0.319
Mof_C 	C 	0.18707	0.7229	0.54854	-0.026
Mof_C 	C 	0.18248	0.7744	0.63976	-0.036
Mof_C 	C 	0.1264	0.8689	0.6474	0.367
Mof_C 	C 	0.23099	0.7408	0.72118	-0.119
Mof_C 	C 	0.98717	0.8608	0.89534	0.151
Mof_C 	C 	0.0064	0.7985	0.952	-0.072
Mof_C 	C 	0.38521	0.3244	0.28562	0.359
Mof_C 	C 	0.39752	0.2231	0.22404	-0.017
Mof_C 	C 	0.31278	0.1783	0.12376	-0.048
Mof_C 	C 	0.32491	0.0853	0.06682	0.014
Mof_C 	C 	0.23527	0.0372	0.96034	0.277
Mof_C 	C 	0.42103	0.0358	0.10846	-0.198
Mof_C 	C 	0.50492	0.082	0.20664	0.237
Mof_C 	C 	0.49353	0.1747	0.26486	-0.143
Mof_C 	C 	0.61578	0.9436	0.20176	0.241
Mof_C 	C 	0.57321	0.8455	0.28782	0.209
Mof_C 	C 	0.66707	0.8988	0.37834	-0.138
Mof_C 	C 	0.70023	0.8641	0.46006	-0.01
Mof_C 	C 	0.80814	0.9187	0.55648	0.311
Mof_C 	C 	0.63853	0.7771	0.45146	-0.031
Mof_C 	C 	0.54272	0.7256	0.36024	-0.029
Mof_C 	C 	0.479	0.6311	0.3526	0.372
Mof_C 	C 	0.50981	0.7592	0.27882	-0.123
Mof_C 	C 	0.09183	0.6392	0.10466	0.087
Mof_C 	C 	0.0544	0.7015	0.048	-0.042
Mof_C 	C 	0.90041	0.8244	0.28562	0.356
Mof_C 	C 	0.82652	0.7231	0.22404	-0.018
Mof_C 	C 	0.81098	0.6783	0.12376	-0.031
Mof_C 	C 	0.74191	0.5853	0.06682	-0.012
Mof_C 	C 	0.72507	0.5372	0.96034	0.323
Mof_C 	C 	0.68743	0.5358	0.10846	-0.134
Mof_C 	C 	0.70172	0.582	0.20664	0.213
Mof_C 	C 	0.77133	0.6747	0.26486	-0.125
Mof_C 	C 	0.58598	0.4436	0.20176	0.206
Mof_C 	C 	0.71461	0.3455	0.28782	0.203
Mof_C 	C 	0.71127	0.3988	0.37834	-0.13
Mof_C 	C 	0.75983	0.3641	0.46006	-0.019
Mof_C 	C 	0.74834	0.4187	0.55648	0.32
Mof_C 	C 	0.81293	0.2771	0.45146	-0.028
Mof_C 	C 	0.81752	0.2256	0.36024	-0.027
Mof_C 	C 	0.8736	0.1311	0.3526	0.369
Mof_C 	C 	0.76901	0.2592	0.27882	-0.119
Mof_C 	C 	0.01283	0.1392	0.10466	0.034
Mof_C 	C 	0.9936	0.2015	0.048	0.025
Mof_C 	C 	0.61479	0.6756	0.71438	0.371
Mof_C 	C 	0.60248	0.7769	0.77596	-0.05
Mof_C 	C 	0.68722	0.8217	0.87624	0.003
Mof_C 	C 	0.67509	0.9147	0.93318	-0.061
Mof_C 	C 	0.76473	0.9628	0.03966	0.37
Mof_C 	C 	0.57897	0.9642	0.89154	-0.036
Mof_C 	C 	0.49508	0.918	0.79336	0.167
Mof_C 	C 	0.50647	0.8253	0.73514	-0.092
Mof_C 	C 	0.38422	0.0564	0.79824	0.163
Mof_C 	C 	0.42679	0.1545	0.71218	0.19
Mof_C 	C 	0.33293	0.1012	0.62166	-0.124
Mof_C 	C 	0.29977	0.1359	0.53994	-0.03
Mof_C 	C 	0.19186	0.0813	0.44352	0.32
Mof_C 	C 	0.36147	0.2229	0.54854	-0.023
Mof_C 	C 	0.45728	0.2744	0.63976	-0.039
Mof_C 	C 	0.521	0.3689	0.6474	0.375
Mof_C 	C 	0.49019	0.2408	0.72118	-0.114
Mof_C 	C 	0.90817	0.3608	0.89534	0.103
Mof_C 	C 	0.9456	0.2985	0.952	-0.028
Mof_N 	N 	0.94783	0.9021	0.83026	-0.16
Mof_N 	N 	0.11757	0.5979	0.16974	-0.171
Mof_N 	N 	0.05217	0.0979	0.16974	-0.167
Mof_N 	N 	0.88243	0.4021	0.83026	-0.163
Mof_O 	O 	0.04739	0.14066	0.75658	-0.394
Mof_O 	O 	0.09425	0.13413	0.6279	-0.371
Mof_O 	O 	0.35355	0.54341	0.08888	-0.352
Mof_O 	O 	0.22063	0.4302	0.07726	-0.329
Mof_O 	O 	0.35127	0.45891	0.74664	-0.252
Mof_O 	O 	0.33694	0.62914	0.79934	-0.247
Mof_O 	O 	0.30925	0.5081	0.44108	-0.382
Mof_O 	O 	0.20448	0.611	0.369	-0.344
Mof_O 	O 	0.1131	0.91197	0.72812	-0.386
Mof_O 	O 	0.0964	0.90025	0.575	-0.363
Mof_O 	O 	0.29081	0.35934	0.24342	-0.376
Mof_O 	O 	0.46635	0.36587	0.3721	-0.367
Mof_O 	O 	0.26467	0.95659	0.91112	-0.32
Mof_O 	O 	0.14337	0.0698	0.92274	-0.328
Mof_O 	O 	0.60463	0.04109	0.25336	-0.281
Mof_O 	O 	0.5376	0.87086	0.20066	-0.252
Mof_O 	O 	0.86817	0.9919	0.55892	-0.338
Mof_O 	O 	0.83548	0.889	0.631	-0.321
Mof_O 	O 	0.38498	0.58803	0.27188	-0.387
Mof_O 	O 	0.5214	0.59975	0.425	-0.374
Mof_O 	O 	0.95261	0.85934	0.24342	-0.344
Mof_O 	O 	0.90575	0.86587	0.3721	-0.334
Mof_O 	O 	0.64645	0.45659	0.91112	-0.351
Mof_O 	O 	0.77937	0.5698	0.92274	-0.315
Mof_O 	O 	0.64873	0.54109	0.25336	-0.251
Mof_O 	O 	0.66306	0.37086	0.20066	-0.244
Mof_O 	O 	0.69075	0.4919	0.55892	-0.379
Mof_O 	O 	0.79552	0.389	0.631	-0.337
Mof_O 	O 	0.8869	0.08803	0.27188	-0.381
Mof_O 	O 	0.9036	0.09975	0.425	-0.36
Mof_O 	O 	0.70919	0.64066	0.75658	-0.374
Mof_O 	O 	0.53365	0.63413	0.6279	-0.369
Mof_O 	O 	0.73533	0.04341	0.08888	-0.372
Mof_O 	O 	0.85663	0.9302	0.07726	-0.311
Mof_O 	O 	0.39537	0.95891	0.74664	-0.213
Mof_O 	O 	0.4624	0.12914	0.79934	-0.241
Mof_O 	O 	0.13183	0.0081	0.44108	-0.391
Mof_O 	O 	0.16452	0.111	0.369	-0.351
Mof_O 	O 	0.61502	0.41197	0.72812	-0.39
Mof_O 	O 	0.4786	0.40025	0.575	-0.377
_end
