data_functionalizedCrystal
_audit_creation_method	'EQeq! by Chris Wilmer'
_symmetry_space_group_name_H-M	'P1'
_symmetry_Int_Tables_number	1
_symmetry_cell_setting	triclinic
loop_
_symmetry_equiv_pos_as_xyz
  x,y,z
_cell_length_a	8.803
_cell_length_b	8.803
_cell_length_c	25.292
_cell_angle_alpha	90
_cell_angle_beta	90
_cell_angle_gamma	120
loop_
_atom_site_label
_atom_site_type_symbol
_atom_site_fract_x
_atom_site_fract_y
_atom_site_fract_z
_atom_site_charge
Mof_P 	P 	0.04553	0.4892	0.07029	0.434
Mof_H 	H 	0.055	0.626	0.0686	-0.047
Mof_O 	O 	0.1322	0.4896	0.12272	-0.329
Mof_O 	O 	0.8552	0.3388	0.06944	-0.263
Mof_O 	O 	0.1473	0.4795	0.02279	-0.356
Mof_P 	P 	0.7122	0.82253	0.40362	0.474
Mof_H 	H 	0.72167	0.95933	0.40193	-0.002
Mof_O 	O 	0.79887	0.82293	0.45605	-0.229
Mof_O 	O 	0.52187	0.67213	0.40277	-0.295
Mof_O 	O 	0.81397	0.81283	0.35612	-0.252
Mof_P 	P 	0.37886	0.15587	0.73696	0.488
Mof_H 	H 	0.38833	0.29267	0.73527	-0.047
Mof_O 	O 	0.46553	0.15627	0.78939	-0.333
Mof_O 	O 	0.18853	0.00547	0.73611	-0.332
Mof_O 	O 	0.48063	0.14617	0.68946	-0.351
Mof_P 	P 	0.5108	0.55633	0.07029	0.494
Mof_H 	H 	0.374	0.429	0.0686	-0.054
Mof_O 	O 	0.5104	0.6426	0.12272	-0.306
Mof_O 	O 	0.6612	0.5164	0.06944	-0.287
Mof_O 	O 	0.5205	0.6678	0.02279	-0.327
Mof_P 	P 	0.17747	0.88966	0.40362	0.535
Mof_H 	H 	0.04067	0.76233	0.40193	-0.068
Mof_O 	O 	0.17707	0.97593	0.45605	-0.26
Mof_O 	O 	0.32787	0.84973	0.40277	-0.291
Mof_O 	O 	0.18717	0.00113	0.35612	-0.387
Mof_P 	P 	0.84413	0.223	0.73696	0.484
Mof_H 	H 	0.70733	0.09567	0.73527	-0.059
Mof_O 	O 	0.84373	0.30927	0.78939	-0.303
Mof_O 	O 	0.99453	0.18307	0.73611	-0.248
Mof_O 	O 	0.85383	0.33447	0.68946	-0.324
Mof_P 	P 	0.44367	0.95447	0.07029	0.547
Mof_H 	H 	0.571	0.945	0.0686	-0.031
Mof_O 	O 	0.3574	0.8678	0.12272	-0.308
Mof_O 	O 	0.4836	0.1448	0.06944	-0.354
Mof_O 	O 	0.3322	0.8527	0.02279	-0.33
Mof_P 	P 	0.11034	0.2878	0.40362	0.417
Mof_H 	H 	0.23767	0.27833	0.40193	-0.035
Mof_O 	O 	0.02407	0.20113	0.45605	-0.33
Mof_O 	O 	0.15027	0.47813	0.40277	-0.309
Mof_O 	O 	0.99887	0.18603	0.35612	-0.248
Mof_P 	P 	0.777	0.62114	0.73696	0.487
Mof_H 	H 	0.90433	0.61167	0.73527	-0.013
Mof_O 	O 	0.69073	0.53447	0.78939	-0.304
Mof_O 	O 	0.81693	0.81147	0.73611	-0.218
Mof_O 	O 	0.66553	0.51937	0.68946	-0.33
Mof_P 	P 	0.95447	0.5108	0.92971	0.547
Mof_H 	H 	0.945	0.374	0.9314	-0.04
Mof_O 	O 	0.8678	0.5104	0.87728	-0.3
Mof_O 	O 	0.1448	0.6612	0.93056	-0.337
Mof_O 	O 	0.8527	0.5205	0.97721	-0.32
Mof_P 	P 	0.62114	0.84413	0.26304	0.485
Mof_H 	H 	0.61167	0.70733	0.26473	-0.032
Mof_O 	O 	0.53447	0.84373	0.21061	-0.295
Mof_O 	O 	0.81147	0.99453	0.26389	-0.202
Mof_O 	O 	0.51937	0.85383	0.31054	-0.319
Mof_P 	P 	0.2878	0.17747	0.59638	0.479
Mof_H 	H 	0.27833	0.04067	0.59807	-0.07
Mof_O 	O 	0.20113	0.17707	0.54395	-0.319
Mof_O 	O 	0.47813	0.32787	0.59723	-0.302
Mof_O 	O 	0.18603	0.18717	0.64388	-0.344
Mof_P 	P 	0.4892	0.44367	0.92971	0.49
Mof_H 	H 	0.626	0.571	0.9314	-0.034
Mof_O 	O 	0.4896	0.3574	0.87728	-0.323
Mof_O 	O 	0.3388	0.4836	0.93056	-0.317
Mof_O 	O 	0.4795	0.3322	0.97721	-0.349
Mof_P 	P 	0.15587	0.777	0.26304	0.489
Mof_H 	H 	0.29267	0.90433	0.26473	-0.02
Mof_O 	O 	0.15627	0.69073	0.21061	-0.324
Mof_O 	O 	0.00547	0.81693	0.26389	-0.282
Mof_O 	O 	0.14617	0.66553	0.31054	-0.346
Mof_P 	P 	0.82253	0.11034	0.59638	0.419
Mof_H 	H 	0.95933	0.23767	0.59807	-0.001
Mof_O 	O 	0.82293	0.02407	0.54395	-0.283
Mof_O 	O 	0.67213	0.15027	0.59723	-0.306
Mof_O 	O 	0.81283	0.99887	0.64388	-0.21
Mof_P 	P 	0.55633	0.04553	0.92971	0.437
Mof_H 	H 	0.429	0.055	0.9314	-0.058
Mof_O 	O 	0.6426	0.1322	0.87728	-0.32
Mof_O 	O 	0.5164	0.8552	0.93056	-0.249
Mof_O 	O 	0.6678	0.1473	0.97721	-0.345
Mof_P 	P 	0.223	0.37886	0.26304	0.486
Mof_H 	H 	0.09567	0.38833	0.26473	-0.067
Mof_O 	O 	0.30927	0.46553	0.21061	-0.323
Mof_O 	O 	0.18307	0.18853	0.26389	-0.315
Mof_O 	O 	0.33447	0.48063	0.31054	-0.34
Mof_P 	P 	0.88966	0.7122	0.59638	0.528
Mof_H 	H 	0.76233	0.72167	0.59807	-0.033
Mof_O 	O 	0.97593	0.79887	0.54395	-0.218
Mof_O 	O 	0.84973	0.52187	0.59723	-0.287
Mof_O 	O 	0.00113	0.81397	0.64388	-0.334
Mof_Fe	Fe	0.66667	0.33333	0.02227	1.008
Mof_Fe	Fe	0.33333	0.66667	0.3556	1.007
Mof_Fe	Fe	4.46166e-32	0	0.68894	0.774
Mof_Fe	Fe	0.33333	0.66667	0.97773	1.008
Mof_Fe	Fe	1.48722e-32	0	0.31106	0.774
Mof_Fe	Fe	0.66667	0.33333	0.6444	1.007
Mof_Fe	Fe	0.33333	0.66667	0.16667	1.022
Mof_Fe	Fe	2.97444e-32	-2.97444e-32	0.5	0.782
Mof_Fe	Fe	0.66667	0.33333	0.83333	1.022
_end
