data_functionalizedCrystal
_audit_creation_method	'EQeq! by Chris Wilmer'
_symmetry_space_group_name_H-M	'P1'
_symmetry_Int_Tables_number	1
_symmetry_cell_setting	triclinic
loop_
_symmetry_equiv_pos_as_xyz
  x,y,z
_cell_length_a	15.508
_cell_length_b	16.241
_cell_length_c	18.383
_cell_angle_alpha	108.709
_cell_angle_beta	104.279
_cell_angle_gamma	107.16
loop_
_atom_site_label
_atom_site_type_symbol
_atom_site_fract_x
_atom_site_fract_y
_atom_site_fract_z
_atom_site_charge
Mof_Cu	Cu	0.51643	0.66948	0.91296	0.916
Mof_O 	O 	0.636	0.6158	0.009	-0.278
Mof_O 	O 	0.6729	0.7399	0.9915	-0.352
Mof_O 	O 	0.4548	0.6123	0.0652	-0.255
Mof_O 	O 	0.4653	0.719	0.0151	-0.352
Mof_O 	O 	0.4289	0.5057	0.8758	-0.273
Mof_O 	O 	0.5031	0.5426	0.7943	-0.283
Mof_O 	O 	0.5354	0.7867	0.8686	-0.31
Mof_O 	O 	0.3852	0.6759	0.8158	-0.313
Mof_O 	O 	0.2464	0.0766	0.4753	-0.155
Mof_O 	O 	0.2637	0.7941	0.4883	-0.154
Mof_O 	O 	0.3776	0.9043	0.398	-0.165
Mof_O 	O 	0.0567	0.8751	0.3816	-0.18
Mof_C 	C 	0.6957	0.6932	0.029	0.399
Mof_C 	C 	0.7938	0.7269	0.0896	-0.221
Mof_C 	C 	0.8206	0.6771	0.1325	0.177
Mof_H 	H 	0.7743	0.6192	0.1231	-0.003
Mof_C 	C 	0.9114	0.7094	0.1874	-0.268
Mof_H 	H 	0.9242	0.6738	0.2163	0.13
Mof_C 	C 	0.9825	0.787	0.2028	0.205
Mof_C 	C 	0.9613	0.8347	0.1533	-0.235
Mof_H 	H 	0.0104	0.8871	0.1569	0.12
Mof_C 	C 	0.8663	0.8024	0.0993	0.163
Mof_H 	H 	0.8528	0.8357	0.0683	-0.006
Mof_C 	C 	0.0859	0.8176	0.2559	-0.122
Mof_C 	C 	0.1494	0.8038	0.2191	0.026
Mof_H 	H 	0.1262	0.7751	0.1615	0.029
Mof_C 	C 	0.2481	0.8302	0.2632	-0.091
Mof_C 	C 	0.282	0.8762	0.3506	0.13
Mof_C 	C 	0.2143	0.887	0.3912	-0.05
Mof_C 	C 	0.1177	0.8585	0.3435	0.149
Mof_C 	C 	0.0205	0.8084	0.4103	-0.187
Mof_H 	H 	0.0164	0.7478	0.3755	0.094
Mof_H 	H 	0.0631	0.8282	0.4661	0.098
Mof_H 	H 	0.9568	0.8029	0.4092	0.09
Mof_C 	C 	0.4382	0.9919	0.4028	-0.236
Mof_H 	H 	0.5044	0.9983	0.4186	0.114
Mof_H 	H 	0.4175	0.9934	0.3497	0.107
Mof_H 	H 	0.4336	0.0434	0.4433	0.112
Mof_C 	C 	0.3097	0.8047	0.2201	0.107
Mof_C 	C 	0.3646	0.7545	0.2418	-0.138
Mof_H 	H 	0.3717	0.7466	0.2905	0.092
Mof_C 	C 	0.4083	0.7167	0.1888	0.056
Mof_H 	H 	0.4416	0.6809	0.2017	0.034
Mof_C 	C 	0.4034	0.7306	0.1206	-0.107
Mof_C 	C 	0.3553	0.7841	0.0994	0.056
Mof_H 	H 	0.3551	0.7962	0.0532	0.031
Mof_C 	C 	0.308	0.8192	0.1475	-0.145
Mof_H 	H 	0.2739	0.8533	0.1321	0.086
Mof_C 	C 	0.4489	0.6808	0.0613	0.375
Mof_C 	C 	0.2569	0.9346	0.4831	-0.04
Mof_C 	C 	0.2719	0.0313	0.5234	0.119
Mof_C 	C 	0.3177	0.0808	0.6083	-0.084
Mof_C 	C 	0.3432	0.0288	0.6527	-0.004
Mof_H 	H 	0.3751	0.0614	0.71	0.038
Mof_C 	C 	0.3244	0.9355	0.6174	-0.084
Mof_C 	C 	0.2839	0.8918	0.5316	0.111
Mof_C 	C 	0.3454	0.7704	0.4948	-0.228
Mof_H 	H 	0.3358	0.7249	0.4417	0.111
Mof_H 	H 	0.403	0.8267	0.513	0.107
Mof_H 	H 	0.3527	0.7434	0.5342	0.109
Mof_C 	C 	0.1611	0.099	0.4837	-0.275
Mof_H 	H 	0.1606	0.1496	0.4676	0.122
Mof_H 	H 	0.1017	0.0435	0.4487	0.134
Mof_H 	H 	0.1664	0.1184	0.5403	0.12
Mof_C 	C 	0.3463	0.1857	0.6555	0.116
Mof_C 	C 	0.3921	0.2485	0.6316	-0.155
Mof_H 	H 	0.401	0.2277	0.5818	0.096
Mof_C 	C 	0.428	0.3487	0.6823	0.05
Mof_H 	H 	0.4639	0.3931	0.6676	0.031
Mof_C 	C 	0.4079	0.3786	0.7547	-0.105
Mof_C 	C 	0.3587	0.3136	0.775	0.06
Mof_H 	H 	0.3452	0.334	0.8226	0.043
Mof_C 	C 	0.3259	0.2157	0.7279	-0.151
Mof_H 	H 	0.2917	0.1717	0.7438	0.09
Mof_C 	C 	0.4474	0.4774	0.8127	0.291
Mof_C 	C 	0.3543	0.888	0.6721	0.12
Mof_C 	C 	0.4435	0.9327	0.7363	-0.177
Mof_H 	H 	0.4852	0.994	0.7485	0.095
Mof_C 	C 	0.47	0.8876	0.781	0.086
Mof_H 	H 	0.5318	0.9182	0.8226	0.02
Mof_C 	C 	0.4131	0.8014	0.7698	-0.114
Mof_C 	C 	0.3206	0.7568	0.7085	0.063
Mof_H 	H 	0.2788	0.6973	0.7	0.027
Mof_C 	C 	0.29	0.7995	0.66	-0.157
Mof_H 	H 	0.2273	0.7699	0.6197	0.096
Mof_C 	C 	0.4437	0.7484	0.8216	0.308
Mof_Cu	Cu	0.48357	0.33052	0.08704	0.915
Mof_O 	O 	0.364	0.3842	0.991	-0.279
Mof_O 	O 	0.3271	0.2601	0.0085	-0.353
Mof_O 	O 	0.5452	0.3877	0.9348	-0.256
Mof_O 	O 	0.5347	0.281	0.9849	-0.353
Mof_O 	O 	0.5711	0.4943	0.1242	-0.274
Mof_O 	O 	0.4969	0.4574	0.2057	-0.284
Mof_O 	O 	0.4646	0.2133	0.1314	-0.311
Mof_O 	O 	0.6148	0.3241	0.1842	-0.314
Mof_O 	O 	0.7536	0.9234	0.5247	-0.156
Mof_O 	O 	0.7363	0.2059	0.5117	-0.155
Mof_O 	O 	0.6224	0.0957	0.602	-0.166
Mof_O 	O 	0.9433	0.1249	0.6184	-0.18
Mof_C 	C 	0.3043	0.3068	0.971	0.399
Mof_C 	C 	0.2062	0.2731	0.9104	-0.221
Mof_C 	C 	0.1794	0.3229	0.8675	0.177
Mof_H 	H 	0.2257	0.3808	0.8769	-0.003
Mof_C 	C 	0.0886	0.2906	0.8126	-0.268
Mof_H 	H 	0.0758	0.3262	0.7837	0.13
Mof_C 	C 	0.0175	0.213	0.7972	0.205
Mof_C 	C 	0.0387	0.1653	0.8467	-0.235
Mof_H 	H 	0.9896	0.1129	0.8431	0.12
Mof_C 	C 	0.1337	0.1976	0.9007	0.163
Mof_H 	H 	0.1472	0.1643	0.9317	-0.006
Mof_C 	C 	0.9141	0.1824	0.7441	-0.122
Mof_C 	C 	0.8506	0.1962	0.7809	0.026
Mof_H 	H 	0.8738	0.2249	0.8385	0.029
Mof_C 	C 	0.7519	0.1698	0.7368	-0.091
Mof_C 	C 	0.718	0.1238	0.6494	0.13
Mof_C 	C 	0.7857	0.113	0.6088	-0.05
Mof_C 	C 	0.8823	0.1415	0.6565	0.149
Mof_C 	C 	0.9795	0.1916	0.5897	-0.187
Mof_H 	H 	0.9836	0.2522	0.6245	0.094
Mof_H 	H 	0.9369	0.1718	0.5339	0.098
Mof_H 	H 	0.0432	0.1971	0.5908	0.09
Mof_C 	C 	0.5618	0.0081	0.5972	-0.236
Mof_H 	H 	0.4956	0.0017	0.5814	0.114
Mof_H 	H 	0.5825	0.0066	0.6503	0.107
Mof_H 	H 	0.5664	0.9566	0.5567	0.112
Mof_C 	C 	0.6903	0.1953	0.7799	0.107
Mof_C 	C 	0.6354	0.2455	0.7582	-0.138
Mof_H 	H 	0.6283	0.2534	0.7095	0.092
Mof_C 	C 	0.5917	0.2833	0.8112	0.056
Mof_H 	H 	0.5584	0.3191	0.7983	0.034
Mof_C 	C 	0.5966	0.2694	0.8794	-0.107
Mof_C 	C 	0.6447	0.2159	0.9006	0.056
Mof_H 	H 	0.6449	0.2038	0.9468	0.031
Mof_C 	C 	0.692	0.1808	0.8525	-0.145
Mof_H 	H 	0.7261	0.1467	0.8679	0.086
Mof_C 	C 	0.5511	0.3192	0.9387	0.375
Mof_C 	C 	0.7431	0.0654	0.5169	-0.04
Mof_C 	C 	0.7281	0.9687	0.4766	0.119
Mof_C 	C 	0.6823	0.9192	0.3917	-0.084
Mof_C 	C 	0.6568	0.9712	0.3473	-0.004
Mof_H 	H 	0.6249	0.9386	0.29	0.038
Mof_C 	C 	0.6756	0.0645	0.3826	-0.084
Mof_C 	C 	0.7161	0.1082	0.4684	0.111
Mof_C 	C 	0.6546	0.2296	0.5052	-0.228
Mof_H 	H 	0.6642	0.2751	0.5583	0.111
Mof_H 	H 	0.597	0.1733	0.487	0.107
Mof_H 	H 	0.6473	0.2566	0.4658	0.109
Mof_C 	C 	0.8389	0.901	0.5163	-0.275
Mof_H 	H 	0.8394	0.8504	0.5324	0.122
Mof_H 	H 	0.8983	0.9565	0.5513	0.134
Mof_H 	H 	0.8336	0.8816	0.4597	0.12
Mof_C 	C 	0.6537	0.8143	0.3445	0.116
Mof_C 	C 	0.6079	0.7515	0.3684	-0.155
Mof_H 	H 	0.599	0.7723	0.4182	0.096
Mof_C 	C 	0.572	0.6513	0.3177	0.05
Mof_H 	H 	0.5361	0.6069	0.3324	0.031
Mof_C 	C 	0.5921	0.6214	0.2453	-0.105
Mof_C 	C 	0.6413	0.6864	0.225	0.06
Mof_H 	H 	0.6548	0.666	0.1774	0.043
Mof_C 	C 	0.6741	0.7843	0.2721	-0.151
Mof_H 	H 	0.7083	0.8283	0.2562	0.09
Mof_C 	C 	0.5526	0.5226	0.1873	0.291
Mof_C 	C 	0.6457	0.112	0.3279	0.12
Mof_C 	C 	0.5565	0.0673	0.2637	-0.177
Mof_H 	H 	0.5148	0.006	0.2515	0.095
Mof_C 	C 	0.53	0.1124	0.219	0.086
Mof_H 	H 	0.4682	0.0818	0.1774	0.02
Mof_C 	C 	0.5869	0.1986	0.2302	-0.114
Mof_C 	C 	0.6794	0.2432	0.2915	0.063
Mof_H 	H 	0.7212	0.3027	0.3	0.027
Mof_C 	C 	0.71	0.2005	0.34	-0.157
Mof_H 	H 	0.7727	0.2301	0.3803	0.096
Mof_C 	C 	0.5563	0.2516	0.1784	0.308
_end
