data_functionalizedCrystal
_audit_creation_method	'EQeq! by Chris Wilmer'
_symmetry_space_group_name_H-M	'P1'
_symmetry_Int_Tables_number	1
_symmetry_cell_setting	triclinic
loop_
_symmetry_equiv_pos_as_xyz
  x,y,z
_cell_length_a	9.9939
_cell_length_b	10.6523
_cell_length_c	10.9658
_cell_angle_alpha	80.558
_cell_angle_beta	72.257
_cell_angle_gamma	74.541
loop_
_atom_site_label
_atom_site_type_symbol
_atom_site_fract_x
_atom_site_fract_y
_atom_site_fract_z
_atom_site_charge
Mof_Eu	Eu	0.82491	0.3056	0.46566	2.083
Mof_Zn	Zn	0.70787	0.13223	0.8835	1.193
Mof_N 	N 	0.8687	0.1978	0.925	-0.244
Mof_N 	N 	0.5228	0.2951	0.9299	-0.235
Mof_C 	C 	0.7769	0.0753	0.1257	0.298
Mof_C 	C 	0.8888	0.1483	0.0412	0.019
Mof_C 	C 	0.0068	0.1615	0.0762	-0.162
Mof_C 	C 	0.1059	0.2245	0.9871	0.075
Mof_H 	H 	0.189	0.225	0.006	-0.002
Mof_C 	C 	0.0841	0.2752	0.8686	-0.146
Mof_H 	H 	0.146	0.325	0.806	0.096
Mof_C 	C 	0.9633	0.2604	0.8413	0.106
Mof_H 	H 	0.942	0.294	0.766	-0.031
Mof_C 	C 	0.0296	0.1157	0.2077	0.498
Mof_C 	C 	0.5947	0.3309	0.6999	0.298
Mof_C 	C 	0.4856	0.3638	0.8258	-0.01
Mof_C 	C 	0.3606	0.4627	0.8349	-0.071
Mof_C 	C 	0.2751	0.493	0.9574	0.037
Mof_H 	H 	0.196	0.561	0.963	0.026
Mof_C 	C 	0.3149	0.4257	0.0647	-0.14
Mof_H 	H 	0.261	0.437	0.147	0.101
Mof_C 	C 	0.439	0.3268	0.0468	0.081
Mof_H 	H 	0.468	0.281	0.116	-0
Mof_C 	C 	0.3119	0.5386	0.7198	0.333
Mof_C 	C 	0.0596	0.4787	0.4381	0.264
Mof_O 	O 	0.6856	0.0603	0.07393	-0.437
Mof_O 	O 	0.7827	0.0338	0.23664	-0.273
Mof_O 	O 	0.9727	0.19714	0.2887	-0.571
Mof_O 	O 	0.1094	0.00632	0.2263	-0.497
Mof_O 	O 	0.7079	0.24081	0.70312	-0.588
Mof_O 	O 	0.57662	0.39473	0.59858	-0.41
Mof_O 	O 	0.3309	0.65233	0.68727	-0.409
Mof_O 	O 	0.2444	0.4889	0.66786	-0.42
Mof_O 	O 	0.0435	0.39274	0.38287	-0.43
Mof_O 	O 	0.1621	0.5351	0.40385	-0.431
Mof_Eu	Eu	0.17509	0.6944	0.53434	2.082
Mof_Zn	Zn	0.29213	0.86777	0.1165	1.192
Mof_N 	N 	0.1313	0.8022	0.075	-0.244
Mof_N 	N 	0.4772	0.7049	0.0701	-0.235
Mof_C 	C 	0.2231	0.9247	0.8743	0.298
Mof_C 	C 	0.1112	0.8517	0.9588	0.019
Mof_C 	C 	0.9932	0.8385	0.9238	-0.162
Mof_C 	C 	0.8941	0.7755	0.0129	0.075
Mof_H 	H 	0.811	0.775	0.994	-0.002
Mof_C 	C 	0.9159	0.7248	0.1314	-0.146
Mof_H 	H 	0.854	0.675	0.194	0.096
Mof_C 	C 	0.0367	0.7396	0.1587	0.106
Mof_H 	H 	0.058	0.706	0.234	-0.031
Mof_C 	C 	0.9704	0.8843	0.7923	0.498
Mof_C 	C 	0.4053	0.6691	0.3001	0.298
Mof_C 	C 	0.5144	0.6362	0.1742	-0.01
Mof_C 	C 	0.6394	0.5373	0.1651	-0.071
Mof_C 	C 	0.7249	0.507	0.0426	0.037
Mof_H 	H 	0.804	0.439	0.037	0.026
Mof_C 	C 	0.6851	0.5743	0.9353	-0.14
Mof_H 	H 	0.739	0.563	0.853	0.101
Mof_C 	C 	0.561	0.6732	0.9532	0.081
Mof_H 	H 	0.532	0.719	0.884	-0
Mof_C 	C 	0.6881	0.4614	0.2802	0.333
Mof_C 	C 	0.9404	0.5213	0.5619	0.264
Mof_O 	O 	0.3144	0.9397	0.92607	-0.437
Mof_O 	O 	0.2173	0.9662	0.76336	-0.273
Mof_O 	O 	0.0273	0.80286	0.7113	-0.571
Mof_O 	O 	0.8906	0.99368	0.7737	-0.497
Mof_O 	O 	0.2921	0.75919	0.29688	-0.588
Mof_O 	O 	0.42338	0.60527	0.40142	-0.41
Mof_O 	O 	0.6691	0.34767	0.31273	-0.409
Mof_O 	O 	0.7556	0.5111	0.33214	-0.42
Mof_O 	O 	0.9565	0.60726	0.61713	-0.43
Mof_O 	O 	0.8379	0.4649	0.59615	-0.431
_end
