data_functionalizedCrystal
_audit_creation_method	'EQeq! by Chris Wilmer'
_symmetry_space_group_name_H-M	'P1'
_symmetry_Int_Tables_number	1
_symmetry_cell_setting	triclinic
loop_
_symmetry_equiv_pos_as_xyz
  x,y,z
_cell_length_a	9.6762
_cell_length_b	10.9949
_cell_length_c	11.496
_cell_angle_alpha	104.931
_cell_angle_beta	90.785
_cell_angle_gamma	114.247
loop_
_atom_site_label
_atom_site_type_symbol
_atom_site_fract_x
_atom_site_fract_y
_atom_site_fract_z
_atom_site_charge
Mof_Er	Er	0.01754	0.92442	0.82953	1.754
Mof_Er	Er	0.99326	0.49249	0.75322	1.755
Mof_Er	Er	0.98246	0.07558	0.17047	1.755
Mof_Er	Er	0.00674	0.50751	0.24678	1.756
Mof_H 	H 	0.5053	0.183	0.1554	0.043
Mof_H 	H 	0.5119	0.7179	0.093	0.041
Mof_H 	H 	0.4089	0.2934	0.3447	0.042
Mof_H 	H 	0.4947	0.817	0.8446	0.043
Mof_H 	H 	0.4881	0.2821	0.907	0.041
Mof_H 	H 	0.5911	0.7066	0.6553	0.042
Mof_C 	C 	0.2281	0.998	0.1011	0.343
Mof_C 	C 	0.3641	0.9938	0.0457	-0.068
Mof_C 	C 	0.5031	0.1089	0.0929	0.005
Mof_C 	C 	0.3605	0.8835	0.9509	-0.096
Mof_C 	C 	0.7591	0.7541	0.991	0.456
Mof_C 	C 	0.6273	0.6201	0.995	-0.105
Mof_C 	C 	0.5063	0.6301	0.055	0.016
Mof_C 	C 	0.2173	0.7508	0.8926	0.372
Mof_C 	C 	0.7077	0.3837	0.3989	0.411
Mof_C 	C 	0.6548	0.564	0.5512	-0.106
Mof_C 	C 	0.446	0.3772	0.4064	0.023
Mof_C 	C 	0.5994	0.441	0.4543	-0.07
Mof_C 	C 	0.814	0.6309	0.6137	0.482
Mof_C 	C 	0.7501	0.4691	0.8827	0.317
Mof_C 	C 	0.6218	0.4868	0.9403	-0.044
Mof_C 	C 	0.7719	0.002	0.8989	0.343
Mof_C 	C 	0.6359	0.0062	0.9543	-0.068
Mof_C 	C 	0.4969	0.8911	0.9071	0.005
Mof_C 	C 	0.6395	0.1165	0.0491	-0.096
Mof_C 	C 	0.2409	0.2459	0.009	0.456
Mof_C 	C 	0.3727	0.3799	0.005	-0.105
Mof_C 	C 	0.4937	0.3699	0.945	0.016
Mof_C 	C 	0.7827	0.2492	0.1074	0.372
Mof_C 	C 	0.2923	0.6163	0.6011	0.411
Mof_C 	C 	0.3452	0.436	0.4488	-0.106
Mof_C 	C 	0.554	0.6228	0.5936	0.023
Mof_C 	C 	0.4006	0.559	0.5457	-0.07
Mof_C 	C 	0.186	0.3691	0.3863	0.482
Mof_C 	C 	0.2499	0.5309	0.1173	0.317
Mof_C 	C 	0.3782	0.5132	0.0597	-0.044
Mof_O 	O 	0.7248	0.3761	0.7844	-0.41
Mof_O 	O 	0.887	0.5482	0.9314	-0.429
Mof_O 	O 	0.8195	0.4672	0.3627	-0.512
Mof_O 	O 	0.2176	0.6386	0.8975	-0.435
Mof_O 	O 	0.1063	0.7512	0.833	-0.546
Mof_O 	O 	0.8687	0.5495	0.6287	-0.525
Mof_O 	O 	0.8849	0.7612	0.6468	-0.51
Mof_O 	O 	0.8138	0.7586	0.8941	-0.458
Mof_O 	O 	0.7949	0.8522	0.0872	-0.513
Mof_O 	O 	0.2411	0.0577	0.2106	-0.377
Mof_O 	O 	0.098	0.9464	0.0335	-0.543
Mof_O 	O 	0.6789	0.2603	0.3883	-0.314
Mof_O 	O 	0.2752	0.6239	0.2156	-0.41
Mof_O 	O 	0.113	0.4518	0.0686	-0.429
Mof_O 	O 	0.1805	0.5328	0.6373	-0.512
Mof_O 	O 	0.7824	0.3614	0.1025	-0.435
Mof_O 	O 	0.8937	0.2488	0.167	-0.546
Mof_O 	O 	0.1313	0.4505	0.3713	-0.525
Mof_O 	O 	0.1151	0.2388	0.3532	-0.51
Mof_O 	O 	0.1862	0.2414	0.1059	-0.458
Mof_O 	O 	0.2051	0.1478	0.9128	-0.513
Mof_O 	O 	0.7589	0.9423	0.7894	-0.377
Mof_O 	O 	0.902	0.0536	0.9665	-0.543
Mof_O 	O 	0.3211	0.7397	0.6117	-0.314
_end
