data_functionalizedCrystal
_audit_creation_method	'EQeq! by Chris Wilmer'
_symmetry_space_group_name_H-M	'P1'
_symmetry_Int_Tables_number	1
_symmetry_cell_setting	triclinic
loop_
_symmetry_equiv_pos_as_xyz
  x,y,z
_cell_length_a	18.413
_cell_length_b	24.67
_cell_length_c	24.67
_cell_angle_alpha	67.878
_cell_angle_beta	68.0877
_cell_angle_gamma	68.0877
loop_
_atom_site_label
_atom_site_type_symbol
_atom_site_fract_x
_atom_site_fract_y
_atom_site_fract_z
_atom_site_charge
Mof_Cu	Cu	0.89631	0.49721	0.95617	0.906
Mof_Cu	Cu	0.77839	0.47778	0.05933	0.905
Mof_Cu	Cu	0.34969	0.50279	0.04383	0.906
Mof_Cu	Cu	0.31549	0.52222	0.94067	0.906
Mof_Cu	Cu	0.34969	0.04383	0.50279	0.906
Mof_Cu	Cu	0.3155	0.94067	0.52221	0.906
Mof_Cu	Cu	0.89631	0.95617	0.49721	0.906
Mof_Cu	Cu	0.77838	0.05933	0.47779	0.905
Mof_Cu	Cu	0.90818	0.89926	0.89926	0.904
Mof_Cu	Cu	0.98166	0.82671	0.82671	0.901
Mof_Cu	Cu	0.7067	0.10074	0.10074	0.904
Mof_Cu	Cu	0.63508	0.17329	0.17329	0.903
Mof_H 	H 	0.0841	0.8396	0.9946	0.041
Mof_H 	H 	0.2702	0.6961	0.0417	0.041
Mof_H 	H 	0.1637	0.6984	0.9246	0.044
Mof_H 	H 	0.0661	0.8426	0.0906	0.085
Mof_H 	H 	0.3191	0.8243	0.1053	0.034
Mof_H 	H 	0.3089	0.7784	0.0442	0.069
Mof_H 	H 	0.7134	0.8189	0.0171	0.047
Mof_H 	H 	0.66	0.6596	0.075	0.046
Mof_H 	H 	0.8571	0.6867	0.9351	0.05
Mof_H 	H 	0.5281	0.7189	0.1055	0.065
Mof_H 	H 	0.4154	0.7559	0.1761	0.034
Mof_H 	H 	0.6516	0.8167	0.1149	0.083
Mof_H 	H 	0.7772	0.5257	0.8257	0.046
Mof_H 	H 	0.551	0.5523	0.8163	0.044
Mof_H 	H 	0.5951	0.499	0.9802	0.049
Mof_H 	H 	0.6153	0.6473	0.7373	0.092
Mof_H 	H 	0.8412	0.5348	0.627	0.024
Mof_H 	H 	0.7909	0.4927	0.7255	0.074
Mof_H 	H 	0.9183	0.1604	0.0054	0.039
Mof_H 	H 	0.008	0.3039	0.9583	0.049
Mof_H 	H 	0.7867	0.3016	0.0754	0.044
Mof_H 	H 	0.9993	0.1574	0.9094	0.077
Mof_H 	H 	0.2487	0.1757	0.8947	0.034
Mof_H 	H 	0.1315	0.2216	0.9558	0.07
Mof_H 	H 	0.5494	0.1811	0.9829	0.047
Mof_H 	H 	0.3946	0.3404	0.925	0.046
Mof_H 	H 	0.4789	0.3133	0.0649	0.051
Mof_H 	H 	0.3525	0.2811	0.8945	0.066
Mof_H 	H 	0.3474	0.2441	0.8239	0.034
Mof_H 	H 	0.5832	0.1833	0.8851	0.083
Mof_H 	H 	0.1286	0.4743	0.1743	0.048
Mof_H 	H 	0.9196	0.4477	0.1837	0.046
Mof_H 	H 	0.0743	0.501	0.0198	0.049
Mof_H 	H 	0.9999	0.3527	0.2627	0.078
Mof_H 	H 	0.003	0.4652	0.373	0.027
Mof_H 	H 	0.0091	0.5073	0.2745	0.072
Mof_H 	H 	0.9183	0.0054	0.1604	0.039
Mof_H 	H 	0.008	0.9583	0.3039	0.049
Mof_H 	H 	0.7867	0.0754	0.3016	0.044
Mof_H 	H 	0.9993	0.9094	0.1574	0.077
Mof_H 	H 	0.2487	0.8947	0.1757	0.034
Mof_H 	H 	0.1315	0.9558	0.2216	0.07
Mof_H 	H 	0.5494	0.9829	0.1811	0.047
Mof_H 	H 	0.3946	0.925	0.3404	0.046
Mof_H 	H 	0.4789	0.0649	0.3133	0.051
Mof_H 	H 	0.3525	0.8945	0.2811	0.066
Mof_H 	H 	0.3474	0.8239	0.2441	0.034
Mof_H 	H 	0.5832	0.8851	0.1833	0.083
Mof_H 	H 	0.1286	0.1743	0.4743	0.048
Mof_H 	H 	0.9196	0.1837	0.4477	0.046
Mof_H 	H 	0.0743	0.0198	0.501	0.049
Mof_H 	H 	0.9999	0.2627	0.3527	0.078
Mof_H 	H 	0.003	0.373	0.4652	0.027
Mof_H 	H 	0.0091	0.2745	0.5073	0.072
Mof_H 	H 	0.0841	0.9946	0.8396	0.041
Mof_H 	H 	0.2702	0.0417	0.6961	0.041
Mof_H 	H 	0.1637	0.9246	0.6984	0.044
Mof_H 	H 	0.0661	0.0906	0.8426	0.085
Mof_H 	H 	0.3191	0.1053	0.8243	0.034
Mof_H 	H 	0.3089	0.0442	0.7784	0.069
Mof_H 	H 	0.7134	0.0171	0.8189	0.047
Mof_H 	H 	0.66	0.075	0.6596	0.046
Mof_H 	H 	0.8571	0.9351	0.6867	0.05
Mof_H 	H 	0.5281	0.1055	0.7189	0.065
Mof_H 	H 	0.4154	0.1761	0.7559	0.034
Mof_H 	H 	0.6516	0.1149	0.8167	0.083
Mof_H 	H 	0.7772	0.8257	0.5257	0.045
Mof_H 	H 	0.551	0.8163	0.5523	0.044
Mof_H 	H 	0.5951	0.9802	0.499	0.049
Mof_H 	H 	0.6153	0.7373	0.6473	0.092
Mof_H 	H 	0.8412	0.627	0.5348	0.024
Mof_H 	H 	0.7909	0.7255	0.4927	0.074
Mof_C 	C 	0.04798	0.80238	0.92416	0.387
Mof_C 	C 	0.11229	0.77195	0.95661	-0.113
Mof_C 	C 	0.12003	0.80091	0.99157	0.016
Mof_C 	C 	0.17908	0.77439	0.02199	-0.04
Mof_C 	C 	0.23117	0.71575	0.01893	0.012
Mof_C 	C 	0.22507	0.68757	0.98325	-0.106
Mof_C 	C 	0.16633	0.71695	0.95109	0.054
Mof_C 	C 	0.27376	0.62345	0.98431	0.376
Mof_C 	C 	0.18716	0.8048	0.06208	0.08
Mof_C 	C 	0.11742	0.83968	0.09374	-0.149
Mof_C 	C 	0.26719	0.83012	0.1012	-0.004
Mof_C 	C 	0.26074	0.80145	0.06635	-0.105
Mof_C 	C 	0.85071	0.79836	0.92886	0.348
Mof_C 	C 	0.79363	0.75871	0.96965	-0.082
Mof_C 	C 	0.72535	0.779	0.01408	-0.003
Mof_C 	C 	0.67427	0.74269	0.05399	-0.031
Mof_C 	C 	0.69398	0.68531	0.04821	0.002
Mof_C 	C 	0.76088	0.66355	0.00525	-0.089
Mof_C 	C 	0.81105	0.70105	0.96527	0.029
Mof_C 	C 	0.78608	0.59813	0.00373	0.367
Mof_C 	C 	0.60158	0.76556	0.1019	0.076
Mof_C 	C 	0.5298	0.74751	0.12179	-0.098
Mof_C 	C 	0.46247	0.76961	0.16359	-0.011
Mof_C 	C 	0.60275	0.8055	0.12648	-0.146
Mof_C 	C 	0.75021	0.50092	0.9442	0.369
Mof_C 	C 	0.69398	0.51277	0.90725	-0.097
Mof_C 	C 	0.72146	0.527	0.84492	0.01
Mof_C 	C 	0.66896	0.5432	0.80942	-0.044
Mof_C 	C 	0.58761	0.54177	0.83975	0.009
Mof_C 	C 	0.55856	0.52533	0.90373	-0.102
Mof_C 	C 	0.61272	0.51063	0.93703	0.041
Mof_C 	C 	0.47535	0.52226	0.93536	0.357
Mof_C 	C 	0.69552	0.56697	0.74311	0.094
Mof_C 	C 	0.66195	0.62408	0.71436	-0.166
Mof_C 	C 	0.79456	0.5586	0.64948	0.021
Mof_C 	C 	0.76528	0.5335	0.70734	-0.122
Mof_C 	C 	0.77452	0.19762	0.07584	0.38
Mof_C 	C 	0.84085	0.22805	0.04339	-0.11
Mof_C 	C 	0.91251	0.19909	0.00843	0.014
Mof_C 	C 	0.97546	0.22561	0.97801	-0.04
Mof_C 	C 	0.96585	0.28425	0.98107	0.001
Mof_C 	C 	0.89589	0.31243	0.01675	-0.102
Mof_C 	C 	0.83437	0.28305	0.04891	0.05
Mof_C 	C 	0.88152	0.37655	0.01569	0.374
Mof_C 	C 	0.05404	0.1952	0.93792	0.081
Mof_C 	C 	0.05084	0.16032	0.90626	-0.141
Mof_C 	C 	0.19851	0.16988	0.8988	-0.004
Mof_C 	C 	0.12854	0.19855	0.93365	-0.105
Mof_C 	C 	0.57793	0.20164	0.07114	0.348
Mof_C 	C 	0.52199	0.24129	0.03035	-0.081
Mof_C 	C 	0.51843	0.221	0.98592	-0.004
Mof_C 	C 	0.47095	0.25731	0.94601	-0.031
Mof_C 	C 	0.4275	0.31469	0.95179	0.001
Mof_C 	C 	0.42968	0.33645	0.99475	-0.088
Mof_C 	C 	0.47737	0.29895	0.03473	0.029
Mof_C 	C 	0.38794	0.40187	0.99627	0.366
Mof_C 	C 	0.46904	0.23444	0.8981	0.075
Mof_C 	C 	0.3991	0.25249	0.87821	-0.098
Mof_C 	C 	0.39567	0.23039	0.83641	-0.011
Mof_C 	C 	0.53473	0.1945	0.87352	-0.146
Mof_C 	C 	0.19533	0.49908	0.0558	0.369
Mof_C 	C 	0.114	0.48723	0.09275	-0.095
Mof_C 	C 	0.09338	0.473	0.15508	0.005
Mof_C 	C 	0.02158	0.4568	0.19058	-0.031
Mof_C 	C 	0.96913	0.45823	0.16025	-0
Mof_C 	C 	0.98762	0.47467	0.09627	-0.105
Mof_C 	C 	0.06038	0.48937	0.06297	0.046
Mof_C 	C 	0.93297	0.47774	0.06464	0.357
Mof_C 	C 	0.0056	0.43303	0.25689	0.079
Mof_C 	C 	0.00039	0.37592	0.28564	-0.134
Mof_C 	C 	0.00264	0.4414	0.35052	0.018
Mof_C 	C 	0.00612	0.4665	0.29266	-0.112
Mof_C 	C 	0.77452	0.07584	0.19762	0.38
Mof_C 	C 	0.84085	0.04339	0.22805	-0.11
Mof_C 	C 	0.91251	0.00843	0.19909	0.014
Mof_C 	C 	0.97546	0.97801	0.22561	-0.04
Mof_C 	C 	0.96585	0.98107	0.28425	0.001
Mof_C 	C 	0.89589	0.01675	0.31243	-0.102
Mof_C 	C 	0.83437	0.04891	0.28305	0.05
Mof_C 	C 	0.88152	0.01569	0.37655	0.374
Mof_C 	C 	0.05404	0.93792	0.1952	0.081
Mof_C 	C 	0.05084	0.90626	0.16032	-0.141
Mof_C 	C 	0.19851	0.8988	0.16988	-0.004
Mof_C 	C 	0.12854	0.93365	0.19855	-0.105
Mof_C 	C 	0.57793	0.07114	0.20164	0.348
Mof_C 	C 	0.52199	0.03035	0.24129	-0.081
Mof_C 	C 	0.51843	0.98592	0.221	-0.004
Mof_C 	C 	0.47095	0.94601	0.25731	-0.031
Mof_C 	C 	0.4275	0.95179	0.31469	0.001
Mof_C 	C 	0.42968	0.99475	0.33645	-0.088
Mof_C 	C 	0.47737	0.03473	0.29895	0.029
Mof_C 	C 	0.38794	0.99627	0.40187	0.366
Mof_C 	C 	0.46904	0.8981	0.23444	0.075
Mof_C 	C 	0.3991	0.87821	0.25249	-0.098
Mof_C 	C 	0.39567	0.83641	0.23039	-0.011
Mof_C 	C 	0.53473	0.87352	0.1945	-0.146
Mof_C 	C 	0.19533	0.0558	0.49908	0.369
Mof_C 	C 	0.114	0.09275	0.48723	-0.095
Mof_C 	C 	0.09338	0.15508	0.473	0.005
Mof_C 	C 	0.02158	0.19058	0.4568	-0.031
Mof_C 	C 	0.96913	0.16025	0.45823	-0
Mof_C 	C 	0.98762	0.09627	0.47467	-0.105
Mof_C 	C 	0.06038	0.06297	0.48937	0.046
Mof_C 	C 	0.93297	0.06464	0.47774	0.357
Mof_C 	C 	0.0056	0.25689	0.43303	0.079
Mof_C 	C 	0.00039	0.28564	0.37592	-0.134
Mof_C 	C 	0.00264	0.35052	0.4414	0.018
Mof_C 	C 	0.00612	0.29266	0.4665	-0.112
Mof_C 	C 	0.04798	0.92416	0.80238	0.387
Mof_C 	C 	0.11229	0.95661	0.77195	-0.113
Mof_C 	C 	0.12003	0.99157	0.80091	0.016
Mof_C 	C 	0.17908	0.02199	0.77439	-0.04
Mof_C 	C 	0.23117	0.01893	0.71575	0.012
Mof_C 	C 	0.22507	0.98325	0.68757	-0.106
Mof_C 	C 	0.16633	0.95109	0.71695	0.054
Mof_C 	C 	0.27376	0.98431	0.62345	0.376
Mof_C 	C 	0.18716	0.06208	0.8048	0.08
Mof_C 	C 	0.11742	0.09374	0.83968	-0.149
Mof_C 	C 	0.26719	0.1012	0.83012	-0.004
Mof_C 	C 	0.26074	0.06635	0.80145	-0.105
Mof_C 	C 	0.85071	0.92886	0.79836	0.348
Mof_C 	C 	0.79363	0.96965	0.75871	-0.082
Mof_C 	C 	0.72535	0.01408	0.779	-0.003
Mof_C 	C 	0.67427	0.05399	0.74269	-0.031
Mof_C 	C 	0.69398	0.04821	0.68531	0.002
Mof_C 	C 	0.76088	0.00525	0.66355	-0.089
Mof_C 	C 	0.81105	0.96527	0.70105	0.029
Mof_C 	C 	0.78608	0.00373	0.59813	0.367
Mof_C 	C 	0.60158	0.1019	0.76556	0.076
Mof_C 	C 	0.5298	0.12179	0.74751	-0.098
Mof_C 	C 	0.46247	0.16359	0.76961	-0.011
Mof_C 	C 	0.60275	0.12648	0.8055	-0.146
Mof_C 	C 	0.75021	0.9442	0.50092	0.369
Mof_C 	C 	0.69398	0.90725	0.51277	-0.097
Mof_C 	C 	0.72146	0.84492	0.527	0.01
Mof_C 	C 	0.66896	0.80942	0.5432	-0.044
Mof_C 	C 	0.58761	0.83975	0.54177	0.009
Mof_C 	C 	0.55856	0.90373	0.52533	-0.102
Mof_C 	C 	0.61272	0.93703	0.51063	0.041
Mof_C 	C 	0.47535	0.93536	0.52226	0.357
Mof_C 	C 	0.69552	0.74311	0.56697	0.094
Mof_C 	C 	0.66195	0.71436	0.62408	-0.166
Mof_C 	C 	0.79456	0.64948	0.5586	0.021
Mof_C 	C 	0.76528	0.70734	0.5335	-0.122
Mof_C 	C 	0.69201	0.65179	0.65179	0.117
Mof_C 	C 	0.76052	0.61878	0.61878	-0.061
Mof_C 	C 	0.99559	0.34821	0.34821	0.089
Mof_C 	C 	0.99808	0.38122	0.38122	-0.057
Mof_C 	C 	0.1198	0.8704	0.1296	0.1
Mof_C 	C 	0.1977	0.86856	0.13144	-0.034
Mof_C 	C 	0.4625	0.81203	0.18797	-0.029
Mof_C 	C 	0.5349	0.83141	0.16859	0.094
Mof_C 	C 	0.1198	0.1296	0.8704	0.1
Mof_C 	C 	0.1977	0.13144	0.86856	-0.034
Mof_C 	C 	0.4625	0.18797	0.81203	-0.029
Mof_C 	C 	0.5349	0.16859	0.83141	0.094
Mof_O 	O 	0.30495	0.59186	0.0265	-0.414
Mof_O 	O 	0.27667	0.60667	0.94083	-0.412
Mof_O 	O 	0.99144	0.84297	0.94253	-0.425
Mof_O 	O 	0.05508	0.78282	0.88134	-0.401
Mof_O 	O 	0.83904	0.84539	0.94429	-0.405
Mof_O 	O 	0.90279	0.78277	0.88325	-0.41
Mof_O 	O 	0.7449	0.56519	0.04633	-0.412
Mof_O 	O 	0.84564	0.58204	0.962	-0.408
Mof_O 	O 	0.81923	0.50657	0.91503	-0.417
Mof_O 	O 	0.72124	0.48912	0.00148	-0.409
Mof_O 	O 	0.42952	0.5287	0.9044	-0.398
Mof_O 	O 	0.45514	0.51369	0.99235	-0.405
Mof_O 	O 	0.92331	0.40814	0.9735	-0.415
Mof_O 	O 	0.82417	0.39333	0.05917	-0.412
Mof_O 	O 	0.77694	0.15703	0.05747	-0.419
Mof_O 	O 	0.71924	0.21718	0.11866	-0.402
Mof_O 	O 	0.62872	0.15461	0.05571	-0.405
Mof_O 	O 	0.56881	0.21723	0.11675	-0.408
Mof_O 	O 	0.35642	0.43481	0.95367	-0.412
Mof_O 	O 	0.38968	0.41796	0.038	-0.407
Mof_O 	O 	0.24083	0.49343	0.08497	-0.417
Mof_O 	O 	0.21184	0.51088	0.99852	-0.409
Mof_O 	O 	0.86262	0.4713	0.0956	-0.398
Mof_O 	O 	0.96118	0.48631	0.00765	-0.407
Mof_O 	O 	0.92331	0.9735	0.40814	-0.415
Mof_O 	O 	0.82417	0.05917	0.39333	-0.412
Mof_O 	O 	0.77694	0.05747	0.15703	-0.419
Mof_O 	O 	0.71924	0.11866	0.21718	-0.402
Mof_O 	O 	0.62872	0.05571	0.15461	-0.405
Mof_O 	O 	0.56881	0.11675	0.21723	-0.408
Mof_O 	O 	0.35642	0.95367	0.43481	-0.412
Mof_O 	O 	0.38968	0.038	0.41796	-0.407
Mof_O 	O 	0.24083	0.08497	0.49343	-0.417
Mof_O 	O 	0.21184	0.99852	0.51088	-0.408
Mof_O 	O 	0.86262	0.0956	0.4713	-0.398
Mof_O 	O 	0.96118	0.00765	0.48631	-0.407
Mof_O 	O 	0.30495	0.0265	0.59186	-0.414
Mof_O 	O 	0.27667	0.94083	0.60667	-0.412
Mof_O 	O 	0.99144	0.94253	0.84297	-0.425
Mof_O 	O 	0.05508	0.88134	0.78282	-0.401
Mof_O 	O 	0.83904	0.94429	0.84539	-0.405
Mof_O 	O 	0.90279	0.88325	0.78277	-0.41
Mof_O 	O 	0.7449	0.04633	0.56519	-0.412
Mof_O 	O 	0.84564	0.962	0.58204	-0.408
Mof_O 	O 	0.81923	0.91503	0.50657	-0.417
Mof_O 	O 	0.72124	0.00148	0.48912	-0.409
Mof_O 	O 	0.42952	0.9044	0.5287	-0.398
Mof_O 	O 	0.45514	0.99235	0.51369	-0.405
_end
