data_functionalizedCrystal
_audit_creation_method	'EQeq! by Chris Wilmer'
_symmetry_space_group_name_H-M	'P1'
_symmetry_Int_Tables_number	1
_symmetry_cell_setting	triclinic
loop_
_symmetry_equiv_pos_as_xyz
  x,y,z
_cell_length_a	9.618
_cell_length_b	13.996
_cell_length_c	19.842
_cell_angle_alpha	90
_cell_angle_beta	99.182
_cell_angle_gamma	90
loop_
_atom_site_label
_atom_site_type_symbol
_atom_site_fract_x
_atom_site_fract_y
_atom_site_fract_z
_atom_site_charge
Mof_Cu	Cu	0.76938	0.09205	0.71875	0.856
Mof_Cu	Cu	0.23062	0.59205	0.78125	0.856
Mof_Cu	Cu	0.23062	0.90795	0.28125	0.856
Mof_Cu	Cu	0.76938	0.40795	0.21875	0.856
Mof_Mo	Mo	0.29947	0.09502	0.98384	1.508
Mof_Mo	Mo	0.92354	0.10164	0.03582	1.414
Mof_Mo	Mo	0.0088	0.11861	0.87888	1.441
Mof_Mo	Mo	0.63966	0.11074	0.92142	1.078
Mof_Mo	Mo	0.70053	0.59502	0.51616	1.516
Mof_Mo	Mo	0.07646	0.60164	0.46418	1.409
Mof_Mo	Mo	0.9912	0.61861	0.62112	1.456
Mof_Mo	Mo	0.36034	0.61074	0.57858	1.08
Mof_Mo	Mo	0.70053	0.90498	0.01616	1.507
Mof_Mo	Mo	0.07646	0.89836	0.96418	1.413
Mof_Mo	Mo	0.9912	0.88139	0.12112	1.44
Mof_Mo	Mo	0.36034	0.88926	0.07858	1.077
Mof_Mo	Mo	0.29947	0.40498	0.48384	1.515
Mof_Mo	Mo	0.92354	0.39836	0.53582	1.408
Mof_Mo	Mo	0.0088	0.38139	0.37888	1.456
Mof_Mo	Mo	0.63966	0.38926	0.42142	1.08
Mof_H 	H 	0.0664	0.7225	0.2472	-0.046
Mof_H 	H 	0.1036	0.9362	0.7629	0.075
Mof_H 	H 	0.3237	0.9917	0.8096	0.009
Mof_H 	H 	0.5069	0.8794	0.8398	0.071
Mof_H 	H 	0.5321	0.033	0.3375	0
Mof_H 	H 	0.7555	0.5601	0.8565	0.002
Mof_H 	H 	0.7098	0.8045	0.8787	-0.001
Mof_H 	H 	0.8236	0.7319	0.8618	-0.013
Mof_H 	H 	0.6766	0.6934	0.7148	0.035
Mof_H 	H 	0.686	0.778	0.6129	-0.04
Mof_H 	H 	0.7422	0.9377	0.6193	-0.044
Mof_H 	H 	0.7753	0.9348	0.8168	0.016
Mof_H 	H 	0.9336	0.2225	0.2528	-0.047
Mof_H 	H 	0.8964	0.4362	0.7371	0.076
Mof_H 	H 	0.6763	0.4917	0.6904	0.008
Mof_H 	H 	0.4931	0.3794	0.6602	0.071
Mof_H 	H 	0.4679	0.533	0.1625	-0.002
Mof_H 	H 	0.2445	0.0601	0.6435	-0.001
Mof_H 	H 	0.2902	0.3045	0.6213	-0.003
Mof_H 	H 	0.1764	0.2319	0.6382	-0.015
Mof_H 	H 	0.3234	0.1934	0.7852	0.034
Mof_H 	H 	0.314	0.278	0.8871	-0.039
Mof_H 	H 	0.2578	0.4377	0.8807	-0.043
Mof_H 	H 	0.2247	0.4348	0.6832	0.015
Mof_H 	H 	0.9336	0.2775	0.7528	-0.046
Mof_H 	H 	0.8964	0.0638	0.2371	0.075
Mof_H 	H 	0.6763	0.0083	0.1904	0.009
Mof_H 	H 	0.4931	0.1206	0.1602	0.071
Mof_H 	H 	0.4679	0.967	0.6625	0
Mof_H 	H 	0.2445	0.4399	0.1435	0.002
Mof_H 	H 	0.2902	0.1955	0.1213	-0.001
Mof_H 	H 	0.1764	0.2681	0.1382	-0.013
Mof_H 	H 	0.3234	0.3066	0.2852	0.035
Mof_H 	H 	0.314	0.222	0.3871	-0.04
Mof_H 	H 	0.2578	0.0623	0.3807	-0.044
Mof_H 	H 	0.2247	0.0652	0.1832	0.016
Mof_H 	H 	0.0664	0.7775	0.7472	-0.047
Mof_H 	H 	0.1036	0.5638	0.2629	0.076
Mof_H 	H 	0.3237	0.5083	0.3096	0.008
Mof_H 	H 	0.5069	0.6206	0.3398	0.071
Mof_H 	H 	0.5321	0.467	0.8375	-0.002
Mof_H 	H 	0.7555	0.9399	0.3565	-0.001
Mof_H 	H 	0.7098	0.6955	0.3787	-0.003
Mof_H 	H 	0.8236	0.7681	0.3618	-0.015
Mof_H 	H 	0.6766	0.8066	0.2148	0.034
Mof_H 	H 	0.686	0.722	0.1129	-0.039
Mof_H 	H 	0.7422	0.5623	0.1193	-0.043
Mof_H 	H 	0.7753	0.5652	0.3168	0.015
Mof_C 	C 	0.1557	0.7015	0.2665	0.058
Mof_C 	C 	0.1774	0.6065	0.2754	-0.162
Mof_C 	C 	0.3073	0.9267	0.8029	0.052
Mof_C 	C 	0.417	0.6408	0.3209	-0.135
Mof_C 	C 	0.3887	0.7369	0.3102	0.02
Mof_C 	C 	0.4845	0.6845	0.8263	0.032
Mof_C 	C 	0.5402	0.9668	0.3363	-0.014
Mof_C 	C 	0.6647	0.5848	0.8471	-0.035
Mof_C 	C 	0.7306	0.7576	0.8457	-0.043
Mof_C 	C 	0.7304	0.8069	0.7761	-0.003
Mof_C 	C 	0.6998	0.758	0.7156	-0.076
Mof_C 	C 	0.7048	0.8084	0.6551	-0.071
Mof_C 	C 	0.7381	0.9042	0.6594	0.001
Mof_C 	C 	0.759	0.9024	0.7754	0.003
Mof_C 	C 	0.8443	0.2015	0.2335	0.058
Mof_C 	C 	0.8226	0.1065	0.2246	-0.162
Mof_C 	C 	0.6927	0.4267	0.6971	0.052
Mof_C 	C 	0.583	0.1408	0.1791	-0.134
Mof_C 	C 	0.6113	0.2369	0.1898	0.02
Mof_C 	C 	0.5155	0.1845	0.6737	0.031
Mof_C 	C 	0.4598	0.4668	0.1637	-0.009
Mof_C 	C 	0.3353	0.0848	0.6529	-0.033
Mof_C 	C 	0.2694	0.2576	0.6543	-0.042
Mof_C 	C 	0.2696	0.3069	0.7239	-0.005
Mof_C 	C 	0.3002	0.258	0.7844	-0.075
Mof_C 	C 	0.2952	0.3084	0.8449	-0.072
Mof_C 	C 	0.2619	0.4042	0.8406	0.001
Mof_C 	C 	0.241	0.4024	0.7246	0.003
Mof_C 	C 	0.8443	0.2985	0.7335	0.058
Mof_C 	C 	0.8226	0.3935	0.7246	-0.162
Mof_C 	C 	0.6927	0.0733	0.1971	0.052
Mof_C 	C 	0.583	0.3592	0.6791	-0.135
Mof_C 	C 	0.6113	0.2631	0.6898	0.02
Mof_C 	C 	0.5155	0.3155	0.1737	0.032
Mof_C 	C 	0.4598	0.0332	0.6637	-0.014
Mof_C 	C 	0.3353	0.4152	0.1529	-0.035
Mof_C 	C 	0.2694	0.2424	0.1543	-0.043
Mof_C 	C 	0.2696	0.1931	0.2239	-0.003
Mof_C 	C 	0.3002	0.242	0.2844	-0.076
Mof_C 	C 	0.2952	0.1916	0.3449	-0.071
Mof_C 	C 	0.2619	0.0958	0.3406	0.001
Mof_C 	C 	0.241	0.0976	0.2246	0.003
Mof_C 	C 	0.1557	0.7985	0.7665	0.058
Mof_C 	C 	0.1774	0.8935	0.7754	-0.162
Mof_C 	C 	0.3073	0.5733	0.3029	0.052
Mof_C 	C 	0.417	0.8592	0.8209	-0.134
Mof_C 	C 	0.3887	0.7631	0.8102	0.02
Mof_C 	C 	0.4845	0.8155	0.3263	0.031
Mof_C 	C 	0.5402	0.5332	0.8363	-0.009
Mof_C 	C 	0.6647	0.9152	0.3471	-0.033
Mof_C 	C 	0.7306	0.7424	0.3457	-0.042
Mof_C 	C 	0.7304	0.6931	0.2761	-0.005
Mof_C 	C 	0.6998	0.742	0.2156	-0.075
Mof_C 	C 	0.7048	0.6916	0.1551	-0.072
Mof_C 	C 	0.7381	0.5958	0.1594	0.001
Mof_C 	C 	0.759	0.5976	0.2754	0.003
Mof_N 	N 	0.2563	0.7663	0.2841	-0.257
Mof_N 	N 	0.431	0.9031	0.3232	-0.239
Mof_N 	N 	0.6274	0.6807	0.8413	-0.125
Mof_N 	N 	0.7648	0.951	0.7188	-0.226
Mof_N 	N 	0.7437	0.2663	0.2159	-0.258
Mof_N 	N 	0.569	0.4031	0.1768	-0.239
Mof_N 	N 	0.3726	0.1807	0.6587	-0.126
Mof_N 	N 	0.2352	0.451	0.7812	-0.226
Mof_N 	N 	0.7437	0.2337	0.7159	-0.257
Mof_N 	N 	0.569	0.0969	0.6768	-0.239
Mof_N 	N 	0.3726	0.3193	0.1587	-0.125
Mof_N 	N 	0.2352	0.049	0.2812	-0.226
Mof_N 	N 	0.2563	0.7337	0.7841	-0.258
Mof_N 	N 	0.431	0.5969	0.8232	-0.239
Mof_N 	N 	0.6274	0.8193	0.3413	-0.126
Mof_N 	N 	0.7648	0.549	0.2188	-0.226
Mof_O 	O 	0.1992	0.0961	0.8845	-0.637
Mof_O 	O 	0.0838	0.0771	0.9857	-0.753
Mof_O 	O 	0.9316	0.0976	0.7945	-0.631
Mof_O 	O 	0.8462	0.1003	0.9281	-0.739
Mof_O 	O 	0.0003	0.9509	0.8875	-0.559
Mof_O 	O 	0.2652	0.9287	0.97	-0.608
Mof_O 	O 	0.3383	0.0492	0.0676	-0.572
Mof_O 	O 	0.4633	0.0759	0.949	-0.639
Mof_O 	O 	0.8008	0.5961	0.6155	-0.639
Mof_O 	O 	0.9162	0.5771	0.5143	-0.75
Mof_O 	O 	0.0684	0.5976	0.7055	-0.637
Mof_O 	O 	0.1538	0.6003	0.5719	-0.742
Mof_O 	O 	0.9997	0.4509	0.6125	-0.56
Mof_O 	O 	0.7348	0.4287	0.53	-0.611
Mof_O 	O 	0.6617	0.5492	0.4324	-0.576
Mof_O 	O 	0.5367	0.5759	0.551	-0.64
Mof_O 	O 	0.8008	0.9039	0.1155	-0.637
Mof_O 	O 	0.9162	0.9229	0.0143	-0.753
Mof_O 	O 	0.0684	0.9024	0.2055	-0.631
Mof_O 	O 	0.1538	0.8997	0.0719	-0.739
Mof_O 	O 	0.9997	0.0491	0.1125	-0.559
Mof_O 	O 	0.7348	0.0713	0.03	-0.608
Mof_O 	O 	0.6617	0.9508	0.9324	-0.572
Mof_O 	O 	0.5367	0.9241	0.051	-0.639
Mof_O 	O 	0.1992	0.4039	0.3845	-0.639
Mof_O 	O 	0.0838	0.4229	0.4857	-0.75
Mof_O 	O 	0.9316	0.4024	0.2945	-0.637
Mof_O 	O 	0.8462	0.3997	0.4281	-0.742
Mof_O 	O 	0.0003	0.5491	0.3875	-0.56
Mof_O 	O 	0.2652	0.5713	0.47	-0.611
Mof_O 	O 	0.3383	0.4508	0.5676	-0.576
Mof_O 	O 	0.4633	0.4241	0.449	-0.64
_end
