data_functionalizedCrystal
_audit_creation_method	'EQeq! by Chris Wilmer'
_symmetry_space_group_name_H-M	'P1'
_symmetry_Int_Tables_number	1
_symmetry_cell_setting	triclinic
loop_
_symmetry_equiv_pos_as_xyz
  x,y,z
_cell_length_a	27.23
_cell_length_b	27.23
_cell_length_c	27.23
_cell_angle_alpha	60
_cell_angle_beta	60
_cell_angle_gamma	60
loop_
_atom_site_label
_atom_site_type_symbol
_atom_site_fract_x
_atom_site_fract_y
_atom_site_fract_z
_atom_site_charge
Mof_Fe	Fe	0.19514	0.52042	0.64222	1.05
Mof_Fe	Fe	0.52042	0.19514	0.64222	1.05
Mof_Fe	Fe	0.64222	0.64222	0.19514	1.05
Mof_Fe	Fe	0.64222	0.64222	0.52042	1.052
Mof_Fe	Fe	0.19514	0.64222	0.64222	1.051
Mof_Fe	Fe	0.52042	0.64222	0.64222	1.052
Mof_Fe	Fe	0.64222	0.19514	0.52042	1.051
Mof_Fe	Fe	0.64222	0.52042	0.19514	1.051
Mof_Fe	Fe	0.19514	0.64222	0.52042	1.051
Mof_Fe	Fe	0.52042	0.64222	0.19514	1.051
Mof_Fe	Fe	0.64222	0.52042	0.64222	1.052
Mof_Fe	Fe	0.64222	0.19514	0.64222	1.051
Mof_H 	H 	0.0499	0.5009	0.6439	0.023
Mof_H 	H 	0.9661	0.4965	0.6437	0.076
Mof_H 	H 	0.1912	0.421	0.627	0.018
Mof_H 	H 	0.2031	0.3147	0.6675	0.104
Mof_H 	H 	0.5009	0.0499	0.8053	0.022
Mof_H 	H 	0.4965	0.9661	0.8937	0.079
Mof_H 	H 	0.421	0.1912	0.7608	0.018
Mof_H 	H 	0.3147	0.2031	0.8147	0.104
Mof_H 	H 	0.6439	0.8053	0.0499	0.022
Mof_H 	H 	0.6437	0.8937	0.9661	0.079
Mof_H 	H 	0.627	0.7608	0.1912	0.018
Mof_H 	H 	0.6675	0.8147	0.2031	0.105
Mof_H 	H 	0.8053	0.6439	0.5009	0.016
Mof_H 	H 	0.8937	0.6437	0.4965	0.085
Mof_H 	H 	0.7608	0.627	0.421	0.019
Mof_H 	H 	0.8147	0.6675	0.3147	0.105
Mof_H 	H 	0.0499	0.6439	0.8053	0.022
Mof_H 	H 	0.9661	0.6437	0.8937	0.079
Mof_H 	H 	0.1912	0.627	0.7608	0.018
Mof_H 	H 	0.2031	0.6675	0.8147	0.105
Mof_H 	H 	0.5009	0.8053	0.6439	0.016
Mof_H 	H 	0.4965	0.8937	0.6437	0.085
Mof_H 	H 	0.421	0.7608	0.627	0.019
Mof_H 	H 	0.3147	0.8147	0.6675	0.105
Mof_H 	H 	0.6439	0.0499	0.5009	0.023
Mof_H 	H 	0.6437	0.9661	0.4965	0.076
Mof_H 	H 	0.627	0.1912	0.421	0.018
Mof_H 	H 	0.6675	0.2031	0.3147	0.104
Mof_H 	H 	0.8053	0.5009	0.0499	0.022
Mof_H 	H 	0.8937	0.4965	0.9661	0.079
Mof_H 	H 	0.7608	0.421	0.1912	0.018
Mof_H 	H 	0.8147	0.3147	0.2031	0.104
Mof_H 	H 	0.0499	0.8053	0.5009	0.022
Mof_H 	H 	0.9661	0.8937	0.4965	0.079
Mof_H 	H 	0.1912	0.7608	0.421	0.018
Mof_H 	H 	0.2031	0.8147	0.3147	0.104
Mof_H 	H 	0.5009	0.6439	0.0499	0.023
Mof_H 	H 	0.4965	0.6437	0.9661	0.076
Mof_H 	H 	0.421	0.627	0.1912	0.018
Mof_H 	H 	0.3147	0.6675	0.2031	0.104
Mof_H 	H 	0.6439	0.5009	0.8053	0.016
Mof_H 	H 	0.6437	0.4965	0.8937	0.085
Mof_H 	H 	0.627	0.421	0.7608	0.019
Mof_H 	H 	0.6675	0.3147	0.8147	0.105
Mof_H 	H 	0.8053	0.0499	0.6439	0.022
Mof_H 	H 	0.8937	0.9661	0.6437	0.079
Mof_H 	H 	0.7608	0.1912	0.627	0.018
Mof_H 	H 	0.8147	0.2031	0.6675	0.105
Mof_H 	H 	0.0499	0.5009	0.8053	0.022
Mof_H 	H 	0.9661	0.4965	0.8937	0.079
Mof_H 	H 	0.1912	0.421	0.7608	0.018
Mof_H 	H 	0.2031	0.3147	0.8147	0.104
Mof_H 	H 	0.5009	0.0499	0.6439	0.023
Mof_H 	H 	0.4965	0.9661	0.6437	0.076
Mof_H 	H 	0.421	0.1912	0.627	0.018
Mof_H 	H 	0.3147	0.2031	0.6675	0.104
Mof_H 	H 	0.6439	0.8053	0.5009	0.016
Mof_H 	H 	0.6437	0.8937	0.4965	0.085
Mof_H 	H 	0.627	0.7608	0.421	0.019
Mof_H 	H 	0.6675	0.8147	0.3147	0.105
Mof_H 	H 	0.8053	0.6439	0.0499	0.022
Mof_H 	H 	0.8937	0.6437	0.9661	0.079
Mof_H 	H 	0.7608	0.627	0.1912	0.018
Mof_H 	H 	0.8147	0.6675	0.2031	0.105
Mof_H 	H 	0.0499	0.6439	0.5009	0.023
Mof_H 	H 	0.9661	0.6437	0.4965	0.076
Mof_H 	H 	0.1912	0.627	0.421	0.018
Mof_H 	H 	0.2031	0.6675	0.3147	0.104
Mof_H 	H 	0.5009	0.8053	0.0499	0.022
Mof_H 	H 	0.4965	0.8937	0.9661	0.079
Mof_H 	H 	0.421	0.7608	0.1912	0.018
Mof_H 	H 	0.3147	0.8147	0.2031	0.104
Mof_H 	H 	0.6439	0.0499	0.8053	0.022
Mof_H 	H 	0.6437	0.9661	0.8937	0.079
Mof_H 	H 	0.627	0.1912	0.7608	0.018
Mof_H 	H 	0.6675	0.2031	0.8147	0.105
Mof_H 	H 	0.8053	0.5009	0.6439	0.016
Mof_H 	H 	0.8937	0.4965	0.6437	0.085
Mof_H 	H 	0.7608	0.421	0.627	0.019
Mof_H 	H 	0.8147	0.3147	0.6675	0.105
Mof_H 	H 	0.0499	0.8053	0.6439	0.022
Mof_H 	H 	0.9661	0.8937	0.6437	0.079
Mof_H 	H 	0.1912	0.7608	0.627	0.018
Mof_H 	H 	0.2031	0.8147	0.6675	0.105
Mof_H 	H 	0.5009	0.6439	0.8053	0.016
Mof_H 	H 	0.4965	0.6437	0.8937	0.085
Mof_H 	H 	0.421	0.627	0.7608	0.019
Mof_H 	H 	0.3147	0.6675	0.8147	0.105
Mof_H 	H 	0.6439	0.5009	0.0499	0.023
Mof_H 	H 	0.6437	0.4965	0.9661	0.076
Mof_H 	H 	0.627	0.421	0.1912	0.018
Mof_H 	H 	0.6675	0.3147	0.2031	0.104
Mof_H 	H 	0.8053	0.0499	0.5009	0.022
Mof_H 	H 	0.8937	0.9661	0.4965	0.079
Mof_H 	H 	0.7608	0.1912	0.421	0.018
Mof_H 	H 	0.8147	0.2031	0.3147	0.104
Mof_C 	C 	0.033	0.5298	0.614	0.077
Mof_C 	C 	0.9817	0.5273	0.6151	-0.123
Mof_C 	C 	0.1936	0.4002	0.6656	0.124
Mof_C 	C 	0.1985	0.3347	0.6897	-0.172
Mof_C 	C 	0.5298	0.033	0.8232	0.081
Mof_C 	C 	0.5273	0.9817	0.8759	-0.128
Mof_C 	C 	0.4002	0.1936	0.7406	0.124
Mof_C 	C 	0.3347	0.1985	0.7771	-0.172
Mof_C 	C 	0.614	0.8232	0.033	0.081
Mof_C 	C 	0.6151	0.8759	0.9817	-0.128
Mof_C 	C 	0.6656	0.7406	0.1936	0.125
Mof_C 	C 	0.6897	0.7771	0.1985	-0.172
Mof_C 	C 	0.8232	0.614	0.5298	0.101
Mof_C 	C 	0.8759	0.6151	0.5273	-0.148
Mof_C 	C 	0.7406	0.6656	0.4002	0.125
Mof_C 	C 	0.7771	0.6897	0.3347	-0.172
Mof_C 	C 	0.033	0.614	0.8232	0.081
Mof_C 	C 	0.9817	0.6151	0.8759	-0.128
Mof_C 	C 	0.1936	0.6656	0.7406	0.125
Mof_C 	C 	0.1985	0.6897	0.7771	-0.172
Mof_C 	C 	0.5298	0.8232	0.614	0.101
Mof_C 	C 	0.5273	0.8759	0.6151	-0.148
Mof_C 	C 	0.4002	0.7406	0.6656	0.125
Mof_C 	C 	0.3347	0.7771	0.6897	-0.172
Mof_C 	C 	0.614	0.033	0.5298	0.077
Mof_C 	C 	0.6151	0.9817	0.5273	-0.123
Mof_C 	C 	0.6656	0.1936	0.4002	0.124
Mof_C 	C 	0.6897	0.1985	0.3347	-0.172
Mof_C 	C 	0.8232	0.5298	0.033	0.081
Mof_C 	C 	0.8759	0.5273	0.9817	-0.128
Mof_C 	C 	0.7406	0.4002	0.1936	0.124
Mof_C 	C 	0.7771	0.3347	0.1985	-0.172
Mof_C 	C 	0.033	0.8232	0.5298	0.081
Mof_C 	C 	0.9817	0.8759	0.5273	-0.128
Mof_C 	C 	0.1936	0.7406	0.4002	0.124
Mof_C 	C 	0.1985	0.7771	0.3347	-0.172
Mof_C 	C 	0.5298	0.614	0.033	0.077
Mof_C 	C 	0.5273	0.6151	0.9817	-0.123
Mof_C 	C 	0.4002	0.6656	0.1936	0.124
Mof_C 	C 	0.3347	0.6897	0.1985	-0.172
Mof_C 	C 	0.614	0.5298	0.8232	0.101
Mof_C 	C 	0.6151	0.5273	0.8759	-0.148
Mof_C 	C 	0.6656	0.4002	0.7406	0.125
Mof_C 	C 	0.6897	0.3347	0.7771	-0.172
Mof_C 	C 	0.8232	0.033	0.614	0.081
Mof_C 	C 	0.8759	0.9817	0.6151	-0.128
Mof_C 	C 	0.7406	0.1936	0.6656	0.125
Mof_C 	C 	0.7771	0.1985	0.6897	-0.172
Mof_C 	C 	0.033	0.5298	0.8232	0.081
Mof_C 	C 	0.9817	0.5273	0.8759	-0.128
Mof_C 	C 	0.1936	0.4002	0.7406	0.124
Mof_C 	C 	0.1985	0.3347	0.7771	-0.172
Mof_C 	C 	0.5298	0.033	0.614	0.077
Mof_C 	C 	0.5273	0.9817	0.6151	-0.123
Mof_C 	C 	0.4002	0.1936	0.6656	0.124
Mof_C 	C 	0.3347	0.1985	0.6897	-0.172
Mof_C 	C 	0.614	0.8232	0.5298	0.101
Mof_C 	C 	0.6151	0.8759	0.5273	-0.148
Mof_C 	C 	0.6656	0.7406	0.4002	0.125
Mof_C 	C 	0.6897	0.7771	0.3347	-0.172
Mof_C 	C 	0.8232	0.614	0.033	0.081
Mof_C 	C 	0.8759	0.6151	0.9817	-0.128
Mof_C 	C 	0.7406	0.6656	0.1936	0.125
Mof_C 	C 	0.7771	0.6897	0.1985	-0.172
Mof_C 	C 	0.033	0.614	0.5298	0.077
Mof_C 	C 	0.9817	0.6151	0.5273	-0.123
Mof_C 	C 	0.1936	0.6656	0.4002	0.124
Mof_C 	C 	0.1985	0.6897	0.3347	-0.172
Mof_C 	C 	0.5298	0.8232	0.033	0.081
Mof_C 	C 	0.5273	0.8759	0.9817	-0.128
Mof_C 	C 	0.4002	0.7406	0.1936	0.124
Mof_C 	C 	0.3347	0.7771	0.1985	-0.172
Mof_C 	C 	0.614	0.033	0.8232	0.081
Mof_C 	C 	0.6151	0.9817	0.8759	-0.128
Mof_C 	C 	0.6656	0.1936	0.7406	0.125
Mof_C 	C 	0.6897	0.1985	0.7771	-0.172
Mof_C 	C 	0.8232	0.5298	0.614	0.101
Mof_C 	C 	0.8759	0.5273	0.6151	-0.148
Mof_C 	C 	0.7406	0.4002	0.6656	0.125
Mof_C 	C 	0.7771	0.3347	0.6897	-0.172
Mof_C 	C 	0.033	0.8232	0.614	0.081
Mof_C 	C 	0.9817	0.8759	0.6151	-0.128
Mof_C 	C 	0.1936	0.7406	0.6656	0.125
Mof_C 	C 	0.1985	0.7771	0.6897	-0.172
Mof_C 	C 	0.5298	0.614	0.8232	0.101
Mof_C 	C 	0.5273	0.6151	0.8759	-0.148
Mof_C 	C 	0.4002	0.6656	0.7406	0.125
Mof_C 	C 	0.3347	0.6897	0.7771	-0.172
Mof_C 	C 	0.614	0.5298	0.033	0.077
Mof_C 	C 	0.6151	0.5273	0.9817	-0.123
Mof_C 	C 	0.6656	0.4002	0.1936	0.124
Mof_C 	C 	0.6897	0.3347	0.1985	-0.172
Mof_C 	C 	0.8232	0.033	0.5298	0.081
Mof_C 	C 	0.8759	0.9817	0.5273	-0.128
Mof_C 	C 	0.7406	0.1936	0.4002	0.124
Mof_C 	C 	0.7771	0.1985	0.3347	-0.172
Mof_C 	C 	0.1955	0.3095	0.7475	0.123
Mof_C 	C 	0.1964	0.2424	0.7806	-0.03
Mof_C 	C 	0.3095	0.1955	0.7475	0.123
Mof_C 	C 	0.2424	0.1964	0.7806	-0.03
Mof_C 	C 	0.7475	0.7475	0.1955	0.123
Mof_C 	C 	0.7806	0.7806	0.1964	-0.03
Mof_C 	C 	0.7475	0.7475	0.3095	0.123
Mof_C 	C 	0.7806	0.7806	0.2424	-0.029
Mof_C 	C 	0.1955	0.7475	0.7475	0.123
Mof_C 	C 	0.1964	0.7806	0.7806	-0.03
Mof_C 	C 	0.3095	0.7475	0.7475	0.123
Mof_C 	C 	0.2424	0.7806	0.7806	-0.029
Mof_C 	C 	0.7475	0.1955	0.3095	0.123
Mof_C 	C 	0.7806	0.1964	0.2424	-0.03
Mof_C 	C 	0.7475	0.3095	0.1955	0.123
Mof_C 	C 	0.7806	0.2424	0.1964	-0.03
Mof_C 	C 	0.1955	0.7475	0.3095	0.123
Mof_C 	C 	0.1964	0.7806	0.2424	-0.03
Mof_C 	C 	0.3095	0.7475	0.1955	0.123
Mof_C 	C 	0.2424	0.7806	0.1964	-0.03
Mof_C 	C 	0.7475	0.3095	0.7475	0.123
Mof_C 	C 	0.7806	0.2424	0.7806	-0.029
Mof_C 	C 	0.7475	0.1955	0.7475	0.123
Mof_C 	C 	0.7806	0.1964	0.7806	-0.03
Mof_C 	C 	0.1085	0.5757	0.5757	0.452
Mof_C 	C 	0.0583	0.5719	0.5719	-0.167
Mof_C 	C 	0.9565	0.5721	0.5721	0.056
Mof_C 	C 	0.5757	0.1085	0.7401	0.453
Mof_C 	C 	0.5719	0.0583	0.7979	-0.17
Mof_C 	C 	0.5721	0.9565	0.8993	0.064
Mof_C 	C 	0.5757	0.7401	0.1085	0.453
Mof_C 	C 	0.5719	0.7979	0.0583	-0.17
Mof_C 	C 	0.5721	0.8993	0.9565	0.064
Mof_C 	C 	0.7401	0.5757	0.5757	0.459
Mof_C 	C 	0.7979	0.5719	0.5719	-0.185
Mof_C 	C 	0.8993	0.5721	0.5721	0.077
Mof_C 	C 	0.1085	0.5757	0.7401	0.453
Mof_C 	C 	0.0583	0.5719	0.7979	-0.17
Mof_C 	C 	0.9565	0.5721	0.8993	0.064
Mof_C 	C 	0.5757	0.7401	0.5757	0.459
Mof_C 	C 	0.5719	0.7979	0.5719	-0.185
Mof_C 	C 	0.5721	0.8993	0.5721	0.077
Mof_C 	C 	0.5757	0.1085	0.5757	0.452
Mof_C 	C 	0.5719	0.0583	0.5719	-0.167
Mof_C 	C 	0.5721	0.9565	0.5721	0.056
Mof_C 	C 	0.7401	0.5757	0.1085	0.453
Mof_C 	C 	0.7979	0.5719	0.0583	-0.17
Mof_C 	C 	0.8993	0.5721	0.9565	0.064
Mof_C 	C 	0.1085	0.7401	0.5757	0.453
Mof_C 	C 	0.0583	0.7979	0.5719	-0.17
Mof_C 	C 	0.9565	0.8993	0.5721	0.064
Mof_C 	C 	0.5757	0.5757	0.1085	0.452
Mof_C 	C 	0.5719	0.5719	0.0583	-0.167
Mof_C 	C 	0.5721	0.5721	0.9565	0.056
Mof_C 	C 	0.5757	0.5757	0.7401	0.459
Mof_C 	C 	0.5719	0.5719	0.7979	-0.185
Mof_C 	C 	0.5721	0.5721	0.8993	0.077
Mof_C 	C 	0.7401	0.1085	0.5757	0.453
Mof_C 	C 	0.7979	0.0583	0.5719	-0.17
Mof_C 	C 	0.8993	0.9565	0.5721	0.064
Mof_S 	S 	0.27385	0.51009	0.51009	0.756
Mof_S 	S 	0.51009	0.27385	0.70597	0.756
Mof_S 	S 	0.51009	0.70597	0.27385	0.756
Mof_S 	S 	0.70597	0.51009	0.51009	0.756
Mof_S 	S 	0.27385	0.51009	0.70597	0.756
Mof_S 	S 	0.51009	0.70597	0.51009	0.756
Mof_S 	S 	0.51009	0.27385	0.51009	0.756
Mof_S 	S 	0.70597	0.51009	0.27385	0.756
Mof_S 	S 	0.27385	0.70597	0.51009	0.756
Mof_S 	S 	0.51009	0.51009	0.27385	0.756
Mof_S 	S 	0.51009	0.51009	0.70597	0.756
Mof_S 	S 	0.70597	0.27385	0.51009	0.756
Mof_N 	N 	0.1921	0.4313	0.6883	-0.201
Mof_N 	N 	0.4313	0.1921	0.6883	-0.201
Mof_N 	N 	0.6883	0.6883	0.1921	-0.201
Mof_N 	N 	0.6883	0.6883	0.4313	-0.201
Mof_N 	N 	0.1921	0.6883	0.6883	-0.201
Mof_N 	N 	0.4313	0.6883	0.6883	-0.201
Mof_N 	N 	0.6883	0.1921	0.4313	-0.201
Mof_N 	N 	0.6883	0.4313	0.1921	-0.201
Mof_N 	N 	0.1921	0.6883	0.4313	-0.201
Mof_N 	N 	0.4313	0.6883	0.1921	-0.201
Mof_N 	N 	0.6883	0.4313	0.6883	-0.201
Mof_N 	N 	0.6883	0.1921	0.6883	-0.201
Mof_O 	O 	0.1292	0.5364	0.6168	-0.41
Mof_O 	O 	0.2589	0.4883	0.5761	-0.394
Mof_O 	O 	0.5364	0.1292	0.7176	-0.41
Mof_O 	O 	0.4883	0.2589	0.6767	-0.394
Mof_O 	O 	0.6168	0.7176	0.1292	-0.41
Mof_O 	O 	0.5761	0.6767	0.2589	-0.394
Mof_O 	O 	0.7176	0.6168	0.5364	-0.411
Mof_O 	O 	0.6767	0.5761	0.4883	-0.394
Mof_O 	O 	0.1292	0.6168	0.7176	-0.41
Mof_O 	O 	0.2589	0.5761	0.6767	-0.394
Mof_O 	O 	0.5364	0.7176	0.6168	-0.411
Mof_O 	O 	0.4883	0.6767	0.5761	-0.394
Mof_O 	O 	0.6168	0.1292	0.5364	-0.41
Mof_O 	O 	0.5761	0.2589	0.4883	-0.394
Mof_O 	O 	0.7176	0.5364	0.1292	-0.41
Mof_O 	O 	0.6767	0.4883	0.2589	-0.394
Mof_O 	O 	0.1292	0.7176	0.5364	-0.41
Mof_O 	O 	0.2589	0.6767	0.4883	-0.394
Mof_O 	O 	0.5364	0.6168	0.1292	-0.41
Mof_O 	O 	0.4883	0.5761	0.2589	-0.394
Mof_O 	O 	0.6168	0.5364	0.7176	-0.411
Mof_O 	O 	0.5761	0.4883	0.6767	-0.394
Mof_O 	O 	0.7176	0.1292	0.6168	-0.41
Mof_O 	O 	0.6767	0.2589	0.5761	-0.394
Mof_O 	O 	0.1292	0.5364	0.7176	-0.41
Mof_O 	O 	0.2589	0.4883	0.6767	-0.394
Mof_O 	O 	0.5364	0.1292	0.6168	-0.41
Mof_O 	O 	0.4883	0.2589	0.5761	-0.394
Mof_O 	O 	0.6168	0.7176	0.5364	-0.411
Mof_O 	O 	0.5761	0.6767	0.4883	-0.394
Mof_O 	O 	0.7176	0.6168	0.1292	-0.41
Mof_O 	O 	0.6767	0.5761	0.2589	-0.394
Mof_O 	O 	0.1292	0.6168	0.5364	-0.41
Mof_O 	O 	0.2589	0.5761	0.4883	-0.394
Mof_O 	O 	0.5364	0.7176	0.1292	-0.41
Mof_O 	O 	0.4883	0.6767	0.2589	-0.394
Mof_O 	O 	0.6168	0.1292	0.7176	-0.41
Mof_O 	O 	0.5761	0.2589	0.6767	-0.394
Mof_O 	O 	0.7176	0.5364	0.6168	-0.411
Mof_O 	O 	0.6767	0.4883	0.5761	-0.394
Mof_O 	O 	0.1292	0.7176	0.6168	-0.41
Mof_O 	O 	0.2589	0.6767	0.5761	-0.394
Mof_O 	O 	0.5364	0.6168	0.7176	-0.411
Mof_O 	O 	0.4883	0.5761	0.6767	-0.394
Mof_O 	O 	0.6168	0.5364	0.1292	-0.41
Mof_O 	O 	0.5761	0.4883	0.2589	-0.394
Mof_O 	O 	0.7176	0.1292	0.5364	-0.41
Mof_O 	O 	0.6767	0.2589	0.4883	-0.394
Mof_O 	O 	0.1964	0.6012	0.6012	-0.558
Mof_O 	O 	0.6012	0.1964	0.6012	-0.558
Mof_O 	O 	0.6012	0.6012	0.1964	-0.558
Mof_O 	O 	0.6012	0.6012	0.6012	-0.558
Mof_O 	O 	0.3375	0.4831	0.4831	-0.228
Mof_O 	O 	0.2387	0.4959	0.4959	-0.282
Mof_O 	O 	0.4831	0.3375	0.6963	-0.227
Mof_O 	O 	0.4959	0.2387	0.7695	-0.282
Mof_O 	O 	0.4831	0.6963	0.3375	-0.227
Mof_O 	O 	0.4959	0.7695	0.2387	-0.282
Mof_O 	O 	0.6963	0.4831	0.4831	-0.227
Mof_O 	O 	0.7695	0.4959	0.4959	-0.282
Mof_O 	O 	0.3375	0.4831	0.6963	-0.227
Mof_O 	O 	0.2387	0.4959	0.7695	-0.282
Mof_O 	O 	0.4831	0.6963	0.4831	-0.227
Mof_O 	O 	0.4959	0.7695	0.4959	-0.282
Mof_O 	O 	0.4831	0.3375	0.4831	-0.228
Mof_O 	O 	0.4959	0.2387	0.4959	-0.282
Mof_O 	O 	0.6963	0.4831	0.3375	-0.227
Mof_O 	O 	0.7695	0.4959	0.2387	-0.282
Mof_O 	O 	0.3375	0.6963	0.4831	-0.227
Mof_O 	O 	0.2387	0.7695	0.4959	-0.282
Mof_O 	O 	0.4831	0.4831	0.3375	-0.228
Mof_O 	O 	0.4959	0.4959	0.2387	-0.282
Mof_O 	O 	0.4831	0.4831	0.6963	-0.227
Mof_O 	O 	0.4959	0.4959	0.7695	-0.282
Mof_O 	O 	0.6963	0.3375	0.4831	-0.227
Mof_O 	O 	0.7695	0.2387	0.4959	-0.282
_end
