data_functionalizedCrystal
_audit_creation_method	'EQeq! by Chris Wilmer'
_symmetry_space_group_name_H-M	'P1'
_symmetry_Int_Tables_number	1
_symmetry_cell_setting	triclinic
loop_
_symmetry_equiv_pos_as_xyz
  x,y,z
_cell_length_a	15.4828
_cell_length_b	15.4828
_cell_length_c	12.3009
_cell_angle_alpha	90
_cell_angle_beta	90
_cell_angle_gamma	90
loop_
_atom_site_label
_atom_site_type_symbol
_atom_site_fract_x
_atom_site_fract_y
_atom_site_fract_z
_atom_site_charge
Mof_O 	O 	0.6115	0.3793	0.6153	-0.873
Mof_O 	O 	0.5933	0.2922	0.755	-0.803
Mof_C 	C 	0.5848	0.3637	0.7092	0.711
Mof_C 	C 	0.54161	0.4324	0.7681	-0.269
Mof_C 	C 	0.54161	0.4324	0.8835	0.038
Mof_H 	H 	0.5716	0.3837	0.925	0.027
Mof_O 	O 	0.1115	0.8793	0.1153	-0.83
Mof_O 	O 	0.0933	0.7922	0.255	-0.793
Mof_C 	C 	0.0848	0.8637	0.2092	0.69
Mof_C 	C 	0.04161	0.9324	0.2681	-0.277
Mof_C 	C 	0.04161	0.9324	0.3835	0.111
Mof_H 	H 	0.0716	0.8837	0.425	-0.025
Mof_O 	O 	0.8885	0.1207	0.1153	-0.836
Mof_O 	O 	0.9067	0.2078	0.255	-0.794
Mof_C 	C 	0.9152	0.1363	0.2092	0.692
Mof_C 	C 	0.95839	0.0676	0.2681	-0.29
Mof_C 	C 	0.95839	0.0676	0.3835	0.097
Mof_H 	H 	0.9284	0.1163	0.425	-0.023
Mof_O 	O 	0.3885	0.6207	0.6153	-0.872
Mof_O 	O 	0.4067	0.7078	0.755	-0.8
Mof_C 	C 	0.4152	0.6363	0.7092	0.713
Mof_C 	C 	0.45839	0.5676	0.7681	-0.268
Mof_C 	C 	0.45839	0.5676	0.8835	0.039
Mof_H 	H 	0.4284	0.6163	0.925	0.027
Mof_O 	O 	0.6207	0.1115	0.8653	-0.943
Mof_O 	O 	0.7078	0.0933	0.005	-0.915
Mof_C 	C 	0.6363	0.0848	0.9592	1.033
Mof_C 	C 	0.5676	0.04161	0.0181	-0.69
Mof_C 	C 	0.5676	0.04161	0.1335	0.281
Mof_H 	H 	0.6163	0.0716	0.175	-0.081
Mof_O 	O 	0.1207	0.6115	0.3653	-0.873
Mof_O 	O 	0.2078	0.5933	0.505	-0.808
Mof_C 	C 	0.1363	0.5848	0.4592	0.724
Mof_C 	C 	0.0676	0.54161	0.5181	-0.319
Mof_C 	C 	0.0676	0.54161	0.6335	0.127
Mof_H 	H 	0.1163	0.5716	0.675	-0.031
Mof_O 	O 	0.8793	0.3885	0.3653	-0.871
Mof_O 	O 	0.7922	0.4067	0.505	-0.806
Mof_C 	C 	0.8637	0.4152	0.4592	0.723
Mof_C 	C 	0.9324	0.45839	0.5181	-0.313
Mof_C 	C 	0.9324	0.45839	0.6335	0.134
Mof_H 	H 	0.8837	0.4284	0.675	-0.031
Mof_O 	O 	0.3793	0.8885	0.8653	-0.937
Mof_O 	O 	0.2922	0.9067	0.005	-0.913
Mof_C 	C 	0.3637	0.9152	0.9592	1.038
Mof_C 	C 	0.4324	0.95839	0.0181	-0.676
Mof_C 	C 	0.4324	0.95839	0.1335	0.302
Mof_H 	H 	0.3837	0.9284	0.175	-0.083
Mof_O 	O 	0.8885	0.3793	0.1347	-0.782
Mof_O 	O 	0.9067	0.2922	0.995	-0.58
Mof_C 	C 	0.9152	0.3637	0.0408	0.356
Mof_C 	C 	0.95839	0.4324	0.9819	0.122
Mof_C 	C 	0.95839	0.4324	0.8665	-0.105
Mof_H 	H 	0.9284	0.3837	0.825	0.044
Mof_O 	O 	0.3885	0.8793	0.6347	-0.87
Mof_O 	O 	0.4067	0.7922	0.495	-0.805
Mof_C 	C 	0.4152	0.8637	0.5408	0.714
Mof_C 	C 	0.45839	0.9324	0.4819	-0.267
Mof_C 	C 	0.45839	0.9324	0.3665	0.082
Mof_H 	H 	0.4284	0.8837	0.325	-0.016
Mof_O 	O 	0.6115	0.1207	0.6347	-0.878
Mof_O 	O 	0.5933	0.2078	0.495	-0.808
Mof_C 	C 	0.5848	0.1363	0.5408	0.716
Mof_C 	C 	0.54161	0.0676	0.4819	-0.287
Mof_C 	C 	0.54161	0.0676	0.3665	0.062
Mof_H 	H 	0.5716	0.1163	0.325	-0.015
Mof_O 	O 	0.1115	0.6207	0.1347	-0.785
Mof_O 	O 	0.0933	0.7078	0.995	-0.579
Mof_C 	C 	0.0848	0.6363	0.0408	0.356
Mof_C 	C 	0.04161	0.5676	0.9819	0.116
Mof_C 	C 	0.04161	0.5676	0.8665	-0.111
Mof_H 	H 	0.0716	0.6163	0.825	0.045
Mof_O 	O 	0.8793	0.1115	0.8847	-0.771
Mof_O 	O 	0.7922	0.0933	0.745	-0.792
Mof_C 	C 	0.8637	0.0848	0.7908	0.686
Mof_C 	C 	0.9324	0.04161	0.7319	-0.268
Mof_C 	C 	0.9324	0.04161	0.6165	0.089
Mof_H 	H 	0.8837	0.0716	0.575	-0.021
Mof_O 	O 	0.3793	0.6115	0.3847	-0.878
Mof_O 	O 	0.2922	0.5933	0.245	-0.812
Mof_C 	C 	0.3637	0.5848	0.2908	0.731
Mof_C 	C 	0.4324	0.54161	0.2319	-0.341
Mof_C 	C 	0.4324	0.54161	0.1165	0.149
Mof_H 	H 	0.3837	0.5716	0.075	-0.069
Mof_O 	O 	0.6207	0.3885	0.3847	-0.879
Mof_O 	O 	0.7078	0.4067	0.245	-0.811
Mof_C 	C 	0.6363	0.4152	0.2908	0.731
Mof_C 	C 	0.5676	0.45839	0.2319	-0.34
Mof_C 	C 	0.5676	0.45839	0.1165	0.149
Mof_H 	H 	0.6163	0.4284	0.075	-0.068
Mof_O 	O 	0.1207	0.8885	0.8847	-0.765
Mof_O 	O 	0.2078	0.9067	0.745	-0.788
Mof_C 	C 	0.1363	0.9152	0.7908	0.685
Mof_C 	C 	0.0676	0.95839	0.7319	-0.253
Mof_C 	C 	0.0676	0.95839	0.6165	0.103
Mof_H 	H 	0.1163	0.9284	0.575	-0.021
Mof_In	In	0.6833	0.3167	0.5	3.15
Mof_In	In	0.1833	0.8167	-0	2.785
Mof_In	In	0.8167	0.1833	-0	2.785
Mof_In	In	0.3167	0.6833	0.5	3.151
Mof_In	In	0.6833	0.1833	0.75	3.207
Mof_In	In	0.1833	0.6833	0.25	3.088
Mof_In	In	0.8167	0.3167	0.25	3.089
Mof_In	In	0.3167	0.8167	0.75	3.213
Mof_O 	O 	0.7549	0.25	0.625	-1.25
Mof_H 	H 	0.813	0.25	0.625	0.374
Mof_O 	O 	0.2549	0.75	0.125	-1.191
Mof_H 	H 	0.313	0.75	0.125	0.347
Mof_O 	O 	0.7451	0.25	0.125	-1.191
Mof_H 	H 	0.687	0.25	0.125	0.347
Mof_O 	O 	0.2451	0.75	0.625	-1.251
Mof_H 	H 	0.187	0.75	0.625	0.374
Mof_O 	O 	0.75	0.2549	0.875	-1.168
Mof_H 	H 	0.75	0.313	0.875	0.37
Mof_O 	O 	0.25	0.7549	0.375	-1.232
Mof_H 	H 	0.25	0.813	0.375	0.371
Mof_O 	O 	0.75	0.2451	0.375	-1.232
Mof_H 	H 	0.75	0.187	0.375	0.369
Mof_O 	O 	0.25	0.7451	0.875	-1.168
Mof_H 	H 	0.25	0.687	0.875	0.369
Mof_C 	C 	0.5	0.5	0.7104	0.173
Mof_C 	C 	0.5	0.5	0.9412	0.094
Mof_H 	H 	0.5	0.5	0.6273	-0.006
Mof_C 	C 	6.26751e-34	0	0.2104	0.149
Mof_C 	C 	5.59467e-33	4.2804e-33	0.4412	-0.094
Mof_H 	H 	3.79208e-34	0	0.1273	-0.028
Mof_C 	C 	0.5	-8.5608e-33	0.9604	0.606
Mof_C 	C 	0.5	1.0701e-33	0.1912	-0.232
Mof_H 	H 	0.5	0	0.8773	-0.125
Mof_C 	C 	5.65187e-33	0.5	0.4604	0.199
Mof_C 	C 	-6.50182e-33	0.5	0.6912	-0.136
Mof_H 	H 	5.40432e-33	0.5	0.3773	-0.023
Mof_C 	C 	6.27104e-33	0.5	0.0396	-0.273
Mof_C 	C 	1.09701e-32	0.5	0.8088	0.087
Mof_H 	H 	3.65505e-34	0.5	0.1227	0.105
Mof_C 	C 	0.5	4.2804e-33	0.5396	0.154
Mof_C 	C 	0.5	0	0.3088	-0.028
Mof_H 	H 	0.5	0	0.6227	-0.003
Mof_C 	C 	2.3521e-33	4.2804e-33	0.7896	0.138
Mof_C 	C 	1.66458e-33	0	0.5588	-0.085
Mof_H 	H 	2.59965e-33	0	0.8727	0.014
Mof_C 	C 	0.5	0.5	0.2896	0.219
Mof_C 	C 	0.5	0.5	0.0588	-0.225
Mof_H 	H 	0.5	0.5	0.3727	-0.021
_end
