data_functionalizedCrystal
_audit_creation_method	'EQeq! by Chris Wilmer'
_symmetry_space_group_name_H-M	'P1'
_symmetry_Int_Tables_number	1
_symmetry_cell_setting	triclinic
loop_
_symmetry_equiv_pos_as_xyz
  x,y,z
_cell_length_a	21.6561
_cell_length_b	21.6561
_cell_length_c	21.5494
_cell_angle_alpha	101.98
_cell_angle_beta	101.98
_cell_angle_gamma	126.037
loop_
_atom_site_label
_atom_site_type_symbol
_atom_site_fract_x
_atom_site_fract_y
_atom_site_fract_z
_atom_site_charge
Mof_In	In	0.47674	0.81757	0.91837	2.899
Mof_H 	H 	0.1371	0.2291	0.0552	0.005
Mof_H 	H 	0.1691	0.2785	0.0069	0.01
Mof_H 	H 	0.3766	0.4156	0.1981	0.163
Mof_H 	H 	0.469	0.3894	0.2153	-0.046
Mof_H 	H 	0.322	0.1954	0.029	-0.056
Mof_H 	H 	0.2225	0.2157	0.0157	0.135
Mof_H 	H 	0.0038	0.2862	0.0231	0.035
Mof_H 	H 	0.0211	0.2437	0.9671	0.061
Mof_H 	H 	0.8765	0.0587	0.9701	0.106
Mof_H 	H 	0.7328	0.967	0.9476	0.037
Mof_H 	H 	0.7566	0.169	0.0122	-0.019
Mof_H 	H 	0.8978	0.2544	0.0353	0.116
Mof_H 	H 	0.1141	0.2895	0.1525	0.015
Mof_H 	H 	0.1904	0.3874	0.1754	0.016
Mof_H 	H 	0.1804	0.3874	0.2748	0.149
Mof_H 	H 	0.1748	0.4242	0.3826	-0.044
Mof_H 	H 	0.9905	0.4197	0.293	-0.005
Mof_H 	H 	0.9931	0.3791	0.1839	0.188
Mof_H 	H 	0.1527	0.4381	0.0699	0.01
Mof_H 	H 	0.233	0.445	0.0826	0.018
Mof_H 	H 	0.2597	0.5399	0.0593	0.195
Mof_H 	H 	0.338	0.653	0.0186	-0.103
Mof_H 	H 	0.2166	0.4658	0.8286	-0.09
Mof_H 	H 	0.1513	0.3659	0.8727	0.208
Mof_C 	C 	0.12145	0.32055	0.0666	-0.021
Mof_C 	C 	0.1672	0.2844	0.0531	0.078
Mof_C 	C 	0.29424	0.31916	0.1071	0.356
Mof_C 	C 	0.3637	0.3695	0.1636	-0.37
Mof_C 	C 	0.41963	0.35457	0.1731	0.268
Mof_C 	C 	0.40395	0.29065	0.1224	-0.371
Mof_C 	C 	0.33356	0.23984	0.0645	0.261
Mof_C 	C 	0.27421	0.25259	0.0559	-0.345
Mof_C 	C 	0.46645	0.28075	0.1357	0.675
Mof_C 	C 	0.0274	0.259	0.016	-0.029
Mof_C 	C 	0.8965	0.1621	0.0034	0.189
Mof_C 	C 	0.8509	0.0813	0.9789	-0.163
Mof_C 	C 	0.7648	0.026	0.9649	0.078
Mof_C 	C 	0.7294	0.0582	0.9765	-0.209
Mof_C 	C 	0.78	0.1442	0.003	0.114
Mof_C 	C 	0.8638	0.1952	0.0165	-0.235
Mof_C 	C 	0.63729	0.00351	0.9616	0.603
Mof_C 	C 	0.13093	0.33887	0.143	0.085
Mof_C 	C 	0.08569	0.37671	0.2194	0.355
Mof_C 	C 	0.14031	0.39249	0.2776	-0.356
Mof_C 	C 	0.13797	0.41643	0.3426	0.25
Mof_C 	C 	0.08471	0.42869	0.3494	-0.333
Mof_C 	C 	0.02975	0.41325	0.2899	0.185
Mof_C 	C 	0.03047	0.38813	0.2243	-0.379
Mof_C 	C 	0.08426	0.45654	0.4182	0.648
Mof_C 	C 	0.17152	0.40768	0.0556	0.066
Mof_C 	C 	0.2518	0.5266	0.0119	-0.507
Mof_C 	C 	0.3002	0.5952	0.9876	0.375
Mof_C 	C 	0.28703	0.57017	0.9197	-0.443
Mof_C 	C 	0.2284	0.4838	0.8768	0.372
Mof_C 	C 	0.1874	0.4242	0.902	-0.516
Mof_C 	C 	0.19911	0.44929	0.9661	0.503
Mof_C 	C 	0.33246	0.62974	0.8893	0.725
Mof_O 	O 	0.24549	0.34171	0.1047	-0.283
Mof_O 	O 	0.987	0.1916	0.0278	-0.18
Mof_O 	O 	0.08188	0.35592	0.1535	-0.294
Mof_O 	O 	0.15113	0.38127	0.9874	-0.282
Mof_O 	O 	0.46132	0.23222	0.08697	-0.741
Mof_O 	O 	0.5227	0.3237	0.1976	-0.757
Mof_O 	O 	0.59481	0.92879	0.9277	-0.723
Mof_O 	O 	0.61285	0.03895	0.9858	-0.71
Mof_O 	O 	0.0339	0.46808	0.41959	-0.765
Mof_O 	O 	0.13411	0.46587	0.46979	-0.75
Mof_O 	O 	0.37853	0.70647	0.9276	-0.774
Mof_O 	O 	0.3212	0.5994	0.8283	-0.803
Mof_O 	O 	0.41157	0.76353	0.80934	-1.121
Mof_O 	O 	0.42761	0.87855	0.92536	-0.942
Mof_H 	H 	0.23647	0.63563	0.70051	0.188
Mof_H 	H 	0.18427	0.66104	0.60624	0.054
Mof_In	In	0.18243	0.52326	0.58163	2.881
Mof_H 	H 	0.7709	0.8629	0.4448	0.029
Mof_H 	H 	0.7215	0.8309	0.4931	0.027
Mof_H 	H 	0.5844	0.6234	0.3019	0.165
Mof_H 	H 	0.6106	0.531	0.2847	-0.046
Mof_H 	H 	0.8046	0.678	0.471	-0.042
Mof_H 	H 	0.7843	0.7775	0.4843	0.155
Mof_H 	H 	0.7138	0.9962	0.4769	0.015
Mof_H 	H 	0.7563	0.9789	0.5329	0.023
Mof_H 	H 	0.9413	0.1235	0.5299	0.21
Mof_H 	H 	0.033	0.2672	0.5524	-0.145
Mof_H 	H 	0.831	0.2434	0.4878	-0.102
Mof_H 	H 	0.7456	0.1022	0.4647	0.184
Mof_H 	H 	0.7105	0.8859	0.3475	0.035
Mof_H 	H 	0.6126	0.8096	0.3246	0.019
Mof_H 	H 	0.6126	0.8196	0.2252	0.148
Mof_H 	H 	0.5758	0.8252	0.1174	-0.045
Mof_H 	H 	0.5803	0.0095	0.207	-0.099
Mof_H 	H 	0.6209	0.0069	0.3161	0.096
Mof_H 	H 	0.5619	0.8473	0.4301	0.015
Mof_H 	H 	0.555	0.767	0.4174	0.016
Mof_H 	H 	0.4601	0.7403	0.4407	0.156
Mof_H 	H 	0.347	0.662	0.4814	-0.047
Mof_H 	H 	0.5342	0.7834	0.6714	-0.061
Mof_H 	H 	0.6341	0.8487	0.6273	0.192
Mof_C 	C 	0.67945	0.87855	0.4334	-0.042
Mof_C 	C 	0.7156	0.8328	0.4469	0.078
Mof_C 	C 	0.68084	0.70576	0.3929	0.362
Mof_C 	C 	0.6305	0.6363	0.3364	-0.37
Mof_C 	C 	0.64543	0.58037	0.3269	0.272
Mof_C 	C 	0.70935	0.59605	0.3776	-0.369
Mof_C 	C 	0.76016	0.66644	0.4355	0.268
Mof_C 	C 	0.74741	0.72579	0.4441	-0.341
Mof_C 	C 	0.71925	0.53355	0.3643	0.677
Mof_C 	C 	0.741	0.9726	0.484	0.132
Mof_C 	C 	0.8379	0.1035	0.4966	0.423
Mof_C 	C 	0.9187	0.1491	0.5211	-0.479
Mof_C 	C 	0.974	0.2352	0.5351	0.467
Mof_C 	C 	0.9418	0.2706	0.5235	-0.492
Mof_C 	C 	0.8558	0.22	0.497	0.393
Mof_C 	C 	0.8048	0.1362	0.4835	-0.487
Mof_C 	C 	0.99649	0.36271	0.5384	0.807
Mof_C 	C 	0.66113	0.86907	0.357	0.083
Mof_C 	C 	0.62329	0.91431	0.2806	0.324
Mof_C 	C 	0.60751	0.85969	0.2224	-0.339
Mof_C 	C 	0.58357	0.86203	0.1574	0.26
Mof_C 	C 	0.57131	0.91529	0.1506	-0.358
Mof_C 	C 	0.58675	0.97025	0.2101	0.29
Mof_C 	C 	0.61187	0.96953	0.2757	-0.269
Mof_C 	C 	0.54346	0.91574	0.0818	0.662
Mof_C 	C 	0.59232	0.82848	0.4444	0.089
Mof_C 	C 	0.4734	0.7482	0.4881	-0.372
Mof_C 	C 	0.4048	0.6998	0.5124	0.252
Mof_C 	C 	0.42983	0.71297	0.5803	-0.373
Mof_C 	C 	0.5162	0.7716	0.6232	0.303
Mof_C 	C 	0.5758	0.8126	0.598	-0.427
Mof_C 	C 	0.55071	0.80089	0.5339	0.406
Mof_C 	C 	0.37026	0.66754	0.6107	0.698
Mof_O 	O 	0.65829	0.75451	0.3953	-0.279
Mof_O 	O 	0.8084	0.013	0.4722	-0.297
Mof_O 	O 	0.64408	0.91812	0.3465	-0.264
Mof_O 	O 	0.61873	0.84887	0.5126	-0.276
Mof_O 	O 	0.76778	0.53868	0.41303	-0.739
Mof_O 	O 	0.6763	0.4773	0.3024	-0.757
Mof_O 	O 	0.07121	0.40519	0.5723	-0.83
Mof_O 	O 	0.96105	0.38715	0.5142	-0.763
Mof_O 	O 	0.53192	0.9661	0.08041	-0.72
Mof_O 	O 	0.53413	0.86589	0.03021	-0.755
Mof_O 	O 	0.29353	0.62147	0.5724	-0.77
Mof_O 	O 	0.4006	0.6788	0.6717	-0.794
Mof_O 	O 	0.23647	0.58843	0.69066	-1.121
Mof_O 	O 	0.12145	0.57239	0.57464	-0.98
Mof_H 	H 	0.36437	0.76353	0.79949	0.19
Mof_H 	H 	0.33896	0.81573	0.89376	0.058
Mof_In	In	0.52326	0.18243	0.08163	2.845
Mof_H 	H 	0.8629	0.7709	0.9448	0.03
Mof_H 	H 	0.8309	0.7215	0.9931	0.032
Mof_H 	H 	0.6234	0.5844	0.8019	0.167
Mof_H 	H 	0.531	0.6106	0.7847	-0.045
Mof_H 	H 	0.678	0.8046	0.971	-0.04
Mof_H 	H 	0.7775	0.7843	0.9843	0.158
Mof_H 	H 	0.9962	0.7138	0.9769	0.001
Mof_H 	H 	0.9789	0.7563	0.0329	-0.01
Mof_H 	H 	0.1235	0.9413	0.0299	0.23
Mof_H 	H 	0.2672	0.033	0.0524	-0.167
Mof_H 	H 	0.2434	0.831	0.9878	-0.12
Mof_H 	H 	0.1022	0.7456	0.9647	0.207
Mof_H 	H 	0.8859	0.7105	0.8475	0.035
Mof_H 	H 	0.8096	0.6126	0.8246	0.018
Mof_H 	H 	0.8196	0.6126	0.7252	0.149
Mof_H 	H 	0.8252	0.5758	0.6174	-0.041
Mof_H 	H 	0.0095	0.5803	0.707	-0.1
Mof_H 	H 	0.0069	0.6209	0.8161	0.093
Mof_H 	H 	0.8473	0.5619	0.9301	0.015
Mof_H 	H 	0.767	0.555	0.9174	0.016
Mof_H 	H 	0.7403	0.4601	0.9407	0.108
Mof_H 	H 	0.662	0.347	0.9814	0.023
Mof_H 	H 	0.7834	0.5342	0.1714	-0.032
Mof_H 	H 	0.8487	0.6341	0.1273	0.154
Mof_C 	C 	0.87855	0.67945	0.9334	-0.056
Mof_C 	C 	0.8328	0.7156	0.9469	0.084
Mof_C 	C 	0.70576	0.68084	0.8929	0.365
Mof_C 	C 	0.6363	0.6305	0.8364	-0.37
Mof_C 	C 	0.58037	0.64543	0.8269	0.274
Mof_C 	C 	0.59605	0.70935	0.8776	-0.368
Mof_C 	C 	0.66644	0.76016	0.9355	0.27
Mof_C 	C 	0.72579	0.74741	0.9441	-0.34
Mof_C 	C 	0.53355	0.71925	0.8643	0.678
Mof_C 	C 	0.9726	0.741	0.984	0.195
Mof_C 	C 	0.1035	0.8379	0.9966	0.49
Mof_C 	C 	0.1491	0.9187	0.0211	-0.556
Mof_C 	C 	0.2352	0.974	0.0351	0.524
Mof_C 	C 	0.2706	0.9418	0.0235	-0.553
Mof_C 	C 	0.22	0.8558	0.997	0.465
Mof_C 	C 	0.1362	0.8048	0.9835	-0.551
Mof_C 	C 	0.36271	0.99649	0.0384	0.82
Mof_C 	C 	0.86907	0.66113	0.857	0.088
Mof_C 	C 	0.91431	0.62329	0.7806	0.323
Mof_C 	C 	0.85969	0.60751	0.7224	-0.336
Mof_C 	C 	0.86203	0.58357	0.6574	0.259
Mof_C 	C 	0.91529	0.57131	0.6506	-0.355
Mof_C 	C 	0.97025	0.58675	0.7101	0.291
Mof_C 	C 	0.96953	0.61187	0.7757	-0.261
Mof_C 	C 	0.91574	0.54346	0.5818	0.665
Mof_C 	C 	0.82848	0.59232	0.9444	0.112
Mof_C 	C 	0.7482	0.4734	0.9881	-0.208
Mof_C 	C 	0.6998	0.4048	0.0124	0.094
Mof_C 	C 	0.71297	0.42983	0.0803	-0.287
Mof_C 	C 	0.7716	0.5162	0.1232	0.211
Mof_C 	C 	0.8126	0.5758	0.098	-0.319
Mof_C 	C 	0.80089	0.55071	0.0339	0.28
Mof_C 	C 	0.66754	0.37026	0.1107	0.662
Mof_O 	O 	0.75451	0.65829	0.8953	-0.278
Mof_O 	O 	0.013	0.8084	0.9722	-0.321
Mof_O 	O 	0.91812	0.64408	0.8465	-0.263
Mof_O 	O 	0.84887	0.61873	0.0126	-0.274
Mof_O 	O 	0.53868	0.76778	0.91303	-0.739
Mof_O 	O 	0.4773	0.6763	0.8024	-0.758
Mof_O 	O 	0.40519	0.07121	0.0723	-0.832
Mof_O 	O 	0.38715	0.96105	0.0142	-0.763
Mof_O 	O 	0.9661	0.53192	0.58041	-0.727
Mof_O 	O 	0.86589	0.53413	0.53021	-0.742
Mof_O 	O 	0.62147	0.29353	0.0724	-0.765
Mof_O 	O 	0.6788	0.4006	0.1717	-0.784
Mof_O 	O 	0.58843	0.23647	0.19066	-1.114
Mof_O 	O 	0.57239	0.12145	0.07464	-0.969
Mof_H 	H 	0.76353	0.36437	0.29949	0.19
Mof_H 	H 	0.81573	0.33896	0.39376	0.056
Mof_In	In	0.81757	0.47674	0.41837	2.876
Mof_H 	H 	0.2291	0.1371	0.5552	0.007
Mof_H 	H 	0.2785	0.1691	0.5069	0.016
Mof_H 	H 	0.4156	0.3766	0.6981	0.165
Mof_H 	H 	0.3894	0.469	0.7153	-0.045
Mof_H 	H 	0.1954	0.322	0.529	-0.052
Mof_H 	H 	0.2157	0.2225	0.5157	0.14
Mof_H 	H 	0.2862	0.0038	0.5231	0.019
Mof_H 	H 	0.2437	0.0211	0.4671	0.025
Mof_H 	H 	0.0587	0.8765	0.4701	0.134
Mof_H 	H 	0.967	0.7328	0.4476	0.019
Mof_H 	H 	0.169	0.7566	0.5122	-0.05
Mof_H 	H 	0.2544	0.8978	0.5353	0.153
Mof_H 	H 	0.2895	0.1141	0.6525	0.016
Mof_H 	H 	0.3874	0.1904	0.6754	0.016
Mof_H 	H 	0.3874	0.1804	0.7748	0.15
Mof_H 	H 	0.4242	0.1748	0.8826	-0.038
Mof_H 	H 	0.4197	0.9905	0.793	-0.013
Mof_H 	H 	0.3791	0.9931	0.6839	0.183
Mof_H 	H 	0.4381	0.1527	0.5699	0.009
Mof_H 	H 	0.445	0.233	0.5826	0.016
Mof_H 	H 	0.5399	0.2597	0.5593	0.155
Mof_H 	H 	0.653	0.338	0.5186	-0.046
Mof_H 	H 	0.4658	0.2166	0.3286	-0.067
Mof_H 	H 	0.3659	0.1513	0.3727	0.175
Mof_C 	C 	0.32055	0.12145	0.5666	-0.036
Mof_C 	C 	0.2844	0.1672	0.5531	0.083
Mof_C 	C 	0.31916	0.29424	0.6071	0.358
Mof_C 	C 	0.3695	0.3637	0.6636	-0.37
Mof_C 	C 	0.35457	0.41963	0.6731	0.269
Mof_C 	C 	0.29065	0.40395	0.6224	-0.37
Mof_C 	C 	0.23984	0.33356	0.5645	0.263
Mof_C 	C 	0.25259	0.27421	0.5559	-0.343
Mof_C 	C 	0.28075	0.46645	0.6357	0.676
Mof_C 	C 	0.259	0.0274	0.516	0.032
Mof_C 	C 	0.1621	0.8965	0.5034	0.301
Mof_C 	C 	0.0813	0.8509	0.4789	-0.283
Mof_C 	C 	0.026	0.7648	0.4649	0.147
Mof_C 	C 	0.0582	0.7294	0.4765	-0.305
Mof_C 	C 	0.1442	0.78	0.503	0.237
Mof_C 	C 	0.1952	0.8638	0.5165	-0.34
Mof_C 	C 	0.00351	0.63729	0.4616	0.623
Mof_C 	C 	0.33887	0.13093	0.643	0.09
Mof_C 	C 	0.37671	0.08569	0.7194	0.354
Mof_C 	C 	0.39249	0.14031	0.7776	-0.352
Mof_C 	C 	0.41643	0.13797	0.8426	0.248
Mof_C 	C 	0.42869	0.08471	0.8494	-0.328
Mof_C 	C 	0.41325	0.02975	0.7899	0.194
Mof_C 	C 	0.38813	0.03047	0.7243	-0.371
Mof_C 	C 	0.45654	0.08426	0.9182	0.641
Mof_C 	C 	0.40768	0.17152	0.5556	0.091
Mof_C 	C 	0.5266	0.2518	0.5119	-0.37
Mof_C 	C 	0.5952	0.3002	0.4876	0.247
Mof_C 	C 	0.57017	0.28703	0.4197	-0.373
Mof_C 	C 	0.4838	0.2284	0.3768	0.295
Mof_C 	C 	0.4242	0.1874	0.402	-0.426
Mof_C 	C 	0.44929	0.19911	0.4661	0.397
Mof_C 	C 	0.62974	0.33246	0.3893	0.696
Mof_O 	O 	0.34171	0.24549	0.6047	-0.281
Mof_O 	O 	0.1916	0.987	0.5278	-0.203
Mof_O 	O 	0.35592	0.08188	0.6535	-0.293
Mof_O 	O 	0.38127	0.15113	0.4874	-0.284
Mof_O 	O 	0.23222	0.46132	0.58697	-0.742
Mof_O 	O 	0.3237	0.5227	0.6976	-0.758
Mof_O 	O 	0.92879	0.59481	0.4277	-0.723
Mof_O 	O 	0.03895	0.61285	0.4858	-0.746
Mof_O 	O 	0.46808	0.0339	0.91959	-0.736
Mof_O 	O 	0.46587	0.13411	0.96979	-0.725
Mof_O 	O 	0.70647	0.37853	0.4276	-0.769
Mof_O 	O 	0.5994	0.3212	0.3283	-0.795
Mof_O 	O 	0.76353	0.41157	0.30934	-1.116
Mof_O 	O 	0.87855	0.42761	0.42536	-0.958
Mof_H 	H 	0.63563	0.23647	0.20051	0.188
Mof_H 	H 	0.66104	0.18427	0.10624	0.05
Mof_In	In	0.35871	0.64129	0.75	2.991
Mof_In	In	0.64129	0.35871	0.25	2.982
Mof_In	In	0.5	0	-0	2.707
Mof_In	In	-3.12887e-17	0.5	0.5	2.801
_end
