data_functionalizedCrystal
_audit_creation_method	'EQeq! by Chris Wilmer'
_symmetry_space_group_name_H-M	'P1'
_symmetry_Int_Tables_number	1
_symmetry_cell_setting	triclinic
loop_
_symmetry_equiv_pos_as_xyz
  x,y,z
_cell_length_a	18.8684
_cell_length_b	18.8684
_cell_length_c	51.0147
_cell_angle_alpha	90
_cell_angle_beta	90
_cell_angle_gamma	120
loop_
_atom_site_label
_atom_site_type_symbol
_atom_site_fract_x
_atom_site_fract_y
_atom_site_fract_z
_atom_site_charge
Mof_O 	O 	0.88942	0.51765	0.49593	-0.401
Mof_O 	O 	0.96599	0.55611	0.53226	-0.409
Mof_O 	O 	0.99272	0.8717	0.72281	-0.462
Mof_C 	C 	0.90626	0.54494	0.51901	0.36
Mof_C 	C 	0.84804	0.56825	0.53119	-0.064
Mof_C 	C 	0.86445	0.60291	0.55592	-0.042
Mof_H 	H 	0.912	0.6129	0.5645	0.071
Mof_C 	C 	0.8374	0.7931	0.67575	-0.023
Mof_H 	H 	0.7958	0.7971	0.6841	0.062
Mof_C 	C 	0.8313	0.7694	0.65099	0.076
Mof_C 	C 	0.7562	0.7591	0.63474	0.562
Mof_H 	H 	0.7071	0.7124	0.6411	-0.038
Mof_H 	H 	0.7638	0.7512	0.6166	-0.134
Mof_H 	H 	0.7517	0.8073	0.6366	-0.144
Mof_C 	C 	0.8102	0.7499	0.6509	-0.067
Mof_H 	H 	0.76	0.7353	0.6433	-0.246
Mof_O 	O 	0.48235	0.37177	0.49593	-0.401
Mof_O 	O 	0.44389	0.40988	0.53226	-0.41
Mof_O 	O 	0.1283	0.12102	0.72281	-0.468
Mof_C 	C 	0.45506	0.36132	0.51901	0.36
Mof_C 	C 	0.43175	0.27979	0.53119	-0.064
Mof_C 	C 	0.39709	0.26154	0.55592	-0.042
Mof_H 	H 	0.3871	0.2991	0.5645	0.069
Mof_C 	C 	0.2069	0.0443	0.67575	-0.001
Mof_H 	H 	0.2029	0.9987	0.6841	0.046
Mof_C 	C 	0.2306	0.0619	0.65099	0.087
Mof_C 	C 	0.2409	0.9971	0.63474	0.641
Mof_H 	H 	0.2876	0.9947	0.6411	-0.055
Mof_H 	H 	0.2488	0.0126	0.6166	-0.152
Mof_H 	H 	0.1927	0.9444	0.6366	-0.172
Mof_C 	C 	0.2501	0.0603	0.6509	-0.081
Mof_H 	H 	0.2647	0.0247	0.6433	-0.274
Mof_O 	O 	0.62823	0.11058	0.49593	-0.401
Mof_O 	O 	0.59012	0.03401	0.53226	-0.409
Mof_O 	O 	0.87898	0.00728	0.72281	-0.46
Mof_C 	C 	0.63868	0.09374	0.51901	0.36
Mof_C 	C 	0.72021	0.15196	0.53119	-0.065
Mof_C 	C 	0.73846	0.13555	0.55592	-0.043
Mof_H 	H 	0.7009	0.088	0.5645	0.07
Mof_C 	C 	0.9557	0.1626	0.67575	0.01
Mof_H 	H 	0.0013	0.2042	0.6841	0.042
Mof_C 	C 	0.9381	0.1687	0.65099	0.084
Mof_C 	C 	0.0029	0.2438	0.63474	0.642
Mof_H 	H 	0.0053	0.2929	0.6411	-0.056
Mof_H 	H 	0.9874	0.2362	0.6166	-0.154
Mof_H 	H 	0.0556	0.2483	0.6366	-0.173
Mof_C 	C 	0.9397	0.1898	0.6509	-0.085
Mof_H 	H 	0.9753	0.24	0.6433	-0.274
Mof_O 	O 	0.11058	0.48235	0.99593	-0.402
Mof_O 	O 	0.03401	0.44389	0.03226	-0.41
Mof_O 	O 	0.00728	0.1283	0.22281	-0.463
Mof_C 	C 	0.09374	0.45506	0.01901	0.359
Mof_C 	C 	0.15196	0.43175	0.03119	-0.065
Mof_C 	C 	0.13555	0.39709	0.05592	-0.043
Mof_H 	H 	0.088	0.3871	0.0645	0.07
Mof_C 	C 	0.1626	0.2069	0.17575	-0.024
Mof_H 	H 	0.2042	0.2029	0.1841	0.061
Mof_C 	C 	0.1687	0.2306	0.15099	0.075
Mof_C 	C 	0.2438	0.2409	0.13474	0.561
Mof_H 	H 	0.2929	0.2876	0.1411	-0.039
Mof_H 	H 	0.2362	0.2488	0.1166	-0.135
Mof_H 	H 	0.2483	0.1927	0.1366	-0.145
Mof_C 	C 	0.1898	0.2501	0.1509	-0.068
Mof_H 	H 	0.24	0.2647	0.1433	-0.247
Mof_O 	O 	0.51765	0.62823	0.99593	-0.402
Mof_O 	O 	0.55611	0.59012	0.03226	-0.411
Mof_O 	O 	0.8717	0.87898	0.22281	-0.469
Mof_C 	C 	0.54494	0.63868	0.01901	0.359
Mof_C 	C 	0.56825	0.72021	0.03119	-0.065
Mof_C 	C 	0.60291	0.73846	0.05592	-0.043
Mof_H 	H 	0.6129	0.7009	0.0645	0.068
Mof_C 	C 	0.7931	0.9557	0.17575	-0.002
Mof_H 	H 	0.7971	0.0013	0.1841	0.045
Mof_C 	C 	0.7694	0.9381	0.15099	0.086
Mof_C 	C 	0.7591	0.0029	0.13474	0.641
Mof_H 	H 	0.7124	0.0053	0.1411	-0.056
Mof_H 	H 	0.7512	0.9874	0.1166	-0.153
Mof_H 	H 	0.8073	0.0556	0.1366	-0.173
Mof_C 	C 	0.7499	0.9397	0.1509	-0.082
Mof_H 	H 	0.7353	0.9753	0.1433	-0.275
Mof_O 	O 	0.37177	0.88942	0.99593	-0.402
Mof_O 	O 	0.40988	0.96599	0.03226	-0.41
Mof_O 	O 	0.12102	0.99272	0.22281	-0.461
Mof_C 	C 	0.36132	0.90626	0.01901	0.359
Mof_C 	C 	0.27979	0.84804	0.03119	-0.065
Mof_C 	C 	0.26154	0.86445	0.05592	-0.043
Mof_H 	H 	0.2991	0.912	0.0645	0.07
Mof_C 	C 	0.0443	0.8374	0.17575	0.01
Mof_H 	H 	0.9987	0.7958	0.1841	0.042
Mof_C 	C 	0.0619	0.8313	0.15099	0.084
Mof_C 	C 	0.9971	0.7562	0.13474	0.643
Mof_H 	H 	0.9947	0.7071	0.1411	-0.057
Mof_H 	H 	0.0126	0.7638	0.1166	-0.154
Mof_H 	H 	0.9444	0.7517	0.1366	-0.173
Mof_C 	C 	0.0603	0.8102	0.1509	-0.085
Mof_H 	H 	0.0247	0.76	0.1433	-0.274
Mof_O 	O 	0.51765	0.88942	0.50407	-0.402
Mof_O 	O 	0.55611	0.96599	0.46774	-0.41
Mof_O 	O 	0.8717	0.99272	0.27719	-0.463
Mof_C 	C 	0.54494	0.90626	0.48099	0.359
Mof_C 	C 	0.56825	0.84804	0.46881	-0.065
Mof_C 	C 	0.60291	0.86445	0.44408	-0.043
Mof_H 	H 	0.6129	0.912	0.4355	0.07
Mof_C 	C 	0.7931	0.8374	0.32425	-0.024
Mof_H 	H 	0.7971	0.7958	0.3159	0.061
Mof_C 	C 	0.7694	0.8313	0.34901	0.075
Mof_C 	C 	0.7591	0.7562	0.36526	0.561
Mof_H 	H 	0.7124	0.7071	0.3589	-0.039
Mof_H 	H 	0.7512	0.7638	0.3834	-0.135
Mof_H 	H 	0.8073	0.7517	0.3634	-0.145
Mof_C 	C 	0.7499	0.8102	0.3491	-0.068
Mof_H 	H 	0.7353	0.76	0.3567	-0.247
Mof_O 	O 	0.37177	0.48235	0.50407	-0.402
Mof_O 	O 	0.40988	0.44389	0.46774	-0.411
Mof_O 	O 	0.12102	0.1283	0.27719	-0.469
Mof_C 	C 	0.36132	0.45506	0.48099	0.359
Mof_C 	C 	0.27979	0.43175	0.46881	-0.065
Mof_C 	C 	0.26154	0.39709	0.44408	-0.043
Mof_H 	H 	0.2991	0.3871	0.4355	0.068
Mof_C 	C 	0.0443	0.2069	0.32425	-0.002
Mof_H 	H 	0.9987	0.2029	0.3159	0.045
Mof_C 	C 	0.0619	0.2306	0.34901	0.086
Mof_C 	C 	0.9971	0.2409	0.36526	0.64
Mof_H 	H 	0.9947	0.2876	0.3589	-0.056
Mof_H 	H 	0.0126	0.2488	0.3834	-0.153
Mof_H 	H 	0.9444	0.1927	0.3634	-0.173
Mof_C 	C 	0.0603	0.2501	0.3491	-0.082
Mof_H 	H 	0.0247	0.2647	0.3567	-0.275
Mof_O 	O 	0.11058	0.62823	0.50407	-0.402
Mof_O 	O 	0.03401	0.59012	0.46774	-0.41
Mof_O 	O 	0.00728	0.87898	0.27719	-0.461
Mof_C 	C 	0.09374	0.63868	0.48099	0.359
Mof_C 	C 	0.15196	0.72021	0.46881	-0.065
Mof_C 	C 	0.13555	0.73846	0.44408	-0.043
Mof_H 	H 	0.088	0.7009	0.4355	0.07
Mof_C 	C 	0.1626	0.9557	0.32425	0.01
Mof_H 	H 	0.2042	0.0013	0.3159	0.042
Mof_C 	C 	0.1687	0.9381	0.34901	0.084
Mof_C 	C 	0.2438	0.0029	0.36526	0.642
Mof_H 	H 	0.2929	0.0053	0.3589	-0.056
Mof_H 	H 	0.2362	0.9874	0.3834	-0.154
Mof_H 	H 	0.2483	0.0556	0.3634	-0.173
Mof_C 	C 	0.1898	0.9397	0.3491	-0.085
Mof_H 	H 	0.24	0.9753	0.3567	-0.274
Mof_O 	O 	0.48235	0.11058	0.00407	-0.402
Mof_O 	O 	0.44389	0.03401	0.96774	-0.41
Mof_O 	O 	0.1283	0.00728	0.77719	-0.463
Mof_C 	C 	0.45506	0.09374	0.98099	0.359
Mof_C 	C 	0.43175	0.15196	0.96881	-0.065
Mof_C 	C 	0.39709	0.13555	0.94408	-0.043
Mof_H 	H 	0.3871	0.088	0.9355	0.07
Mof_C 	C 	0.2069	0.1626	0.82425	-0.024
Mof_H 	H 	0.2029	0.2042	0.8159	0.061
Mof_C 	C 	0.2306	0.1687	0.84901	0.075
Mof_C 	C 	0.2409	0.2438	0.86526	0.561
Mof_H 	H 	0.2876	0.2929	0.8589	-0.039
Mof_H 	H 	0.2488	0.2362	0.8834	-0.135
Mof_H 	H 	0.1927	0.2483	0.8634	-0.145
Mof_C 	C 	0.2501	0.1898	0.8491	-0.068
Mof_H 	H 	0.2647	0.24	0.8567	-0.247
Mof_O 	O 	0.62823	0.51765	0.00407	-0.402
Mof_O 	O 	0.59012	0.55611	0.96774	-0.411
Mof_O 	O 	0.87898	0.8717	0.77719	-0.469
Mof_C 	C 	0.63868	0.54494	0.98099	0.359
Mof_C 	C 	0.72021	0.56825	0.96881	-0.065
Mof_C 	C 	0.73846	0.60291	0.94408	-0.043
Mof_H 	H 	0.7009	0.6129	0.9355	0.068
Mof_C 	C 	0.9557	0.7931	0.82425	-0.002
Mof_H 	H 	0.0013	0.7971	0.8159	0.045
Mof_C 	C 	0.9381	0.7694	0.84901	0.086
Mof_C 	C 	0.0029	0.7591	0.86526	0.641
Mof_H 	H 	0.0053	0.7124	0.8589	-0.056
Mof_H 	H 	0.9874	0.7512	0.8834	-0.153
Mof_H 	H 	0.0556	0.8073	0.8634	-0.173
Mof_C 	C 	0.9397	0.7499	0.8491	-0.082
Mof_H 	H 	0.9753	0.7353	0.8567	-0.275
Mof_O 	O 	0.88942	0.37177	0.00407	-0.402
Mof_O 	O 	0.96599	0.40988	0.96774	-0.41
Mof_O 	O 	0.99272	0.12102	0.77719	-0.461
Mof_C 	C 	0.90626	0.36132	0.98099	0.359
Mof_C 	C 	0.84804	0.27979	0.96881	-0.065
Mof_C 	C 	0.86445	0.26154	0.94408	-0.043
Mof_H 	H 	0.912	0.2991	0.9355	0.07
Mof_C 	C 	0.8374	0.0443	0.82425	0.01
Mof_H 	H 	0.7958	0.9987	0.8159	0.042
Mof_C 	C 	0.8313	0.0619	0.84901	0.084
Mof_C 	C 	0.7562	0.9971	0.86526	0.643
Mof_H 	H 	0.7071	0.9947	0.8589	-0.057
Mof_H 	H 	0.7638	0.0126	0.8834	-0.154
Mof_H 	H 	0.7517	0.9444	0.8634	-0.173
Mof_C 	C 	0.8102	0.0603	0.8491	-0.085
Mof_H 	H 	0.76	0.0247	0.8567	-0.274
Mof_O 	O 	0.11058	0.48235	0.50407	-0.402
Mof_O 	O 	0.03401	0.44389	0.46774	-0.41
Mof_O 	O 	0.00728	0.1283	0.27719	-0.463
Mof_C 	C 	0.09374	0.45506	0.48099	0.359
Mof_C 	C 	0.15196	0.43175	0.46881	-0.065
Mof_C 	C 	0.13555	0.39709	0.44408	-0.043
Mof_H 	H 	0.088	0.3871	0.4355	0.07
Mof_C 	C 	0.1626	0.2069	0.32425	-0.024
Mof_H 	H 	0.2042	0.2029	0.3159	0.061
Mof_C 	C 	0.1687	0.2306	0.34901	0.075
Mof_C 	C 	0.2438	0.2409	0.36526	0.561
Mof_H 	H 	0.2929	0.2876	0.3589	-0.039
Mof_H 	H 	0.2362	0.2488	0.3834	-0.135
Mof_H 	H 	0.2483	0.1927	0.3634	-0.145
Mof_C 	C 	0.1898	0.2501	0.3491	-0.068
Mof_H 	H 	0.24	0.2647	0.3567	-0.247
Mof_O 	O 	0.51765	0.62823	0.50407	-0.402
Mof_O 	O 	0.55611	0.59012	0.46774	-0.411
Mof_O 	O 	0.8717	0.87898	0.27719	-0.469
Mof_C 	C 	0.54494	0.63868	0.48099	0.359
Mof_C 	C 	0.56825	0.72021	0.46881	-0.065
Mof_C 	C 	0.60291	0.73846	0.44408	-0.043
Mof_H 	H 	0.6129	0.7009	0.4355	0.068
Mof_C 	C 	0.7931	0.9557	0.32425	-0.002
Mof_H 	H 	0.7971	0.0013	0.3159	0.045
Mof_C 	C 	0.7694	0.9381	0.34901	0.086
Mof_C 	C 	0.7591	0.0029	0.36526	0.64
Mof_H 	H 	0.7124	0.0053	0.3589	-0.056
Mof_H 	H 	0.7512	0.9874	0.3834	-0.153
Mof_H 	H 	0.8073	0.0556	0.3634	-0.173
Mof_C 	C 	0.7499	0.9397	0.3491	-0.082
Mof_H 	H 	0.7353	0.9753	0.3567	-0.275
Mof_O 	O 	0.37177	0.88942	0.50407	-0.402
Mof_O 	O 	0.40988	0.96599	0.46774	-0.41
Mof_O 	O 	0.12102	0.99272	0.27719	-0.461
Mof_C 	C 	0.36132	0.90626	0.48099	0.359
Mof_C 	C 	0.27979	0.84804	0.46881	-0.065
Mof_C 	C 	0.26154	0.86445	0.44408	-0.043
Mof_H 	H 	0.2991	0.912	0.4355	0.07
Mof_C 	C 	0.0443	0.8374	0.32425	0.01
Mof_H 	H 	0.9987	0.7958	0.3159	0.042
Mof_C 	C 	0.0619	0.8313	0.34901	0.084
Mof_C 	C 	0.9971	0.7562	0.36526	0.642
Mof_H 	H 	0.9947	0.7071	0.3589	-0.056
Mof_H 	H 	0.0126	0.7638	0.3834	-0.154
Mof_H 	H 	0.9444	0.7517	0.3634	-0.173
Mof_C 	C 	0.0603	0.8102	0.3491	-0.085
Mof_H 	H 	0.0247	0.76	0.3567	-0.274
Mof_O 	O 	0.88942	0.51765	0.00407	-0.402
Mof_O 	O 	0.96599	0.55611	0.96774	-0.41
Mof_O 	O 	0.99272	0.8717	0.77719	-0.463
Mof_C 	C 	0.90626	0.54494	0.98099	0.359
Mof_C 	C 	0.84804	0.56825	0.96881	-0.065
Mof_C 	C 	0.86445	0.60291	0.94408	-0.043
Mof_H 	H 	0.912	0.6129	0.9355	0.07
Mof_C 	C 	0.8374	0.7931	0.82425	-0.024
Mof_H 	H 	0.7958	0.7971	0.8159	0.061
Mof_C 	C 	0.8313	0.7694	0.84901	0.075
Mof_C 	C 	0.7562	0.7591	0.86526	0.561
Mof_H 	H 	0.7071	0.7124	0.8589	-0.039
Mof_H 	H 	0.7638	0.7512	0.8834	-0.135
Mof_H 	H 	0.7517	0.8073	0.8634	-0.145
Mof_C 	C 	0.8102	0.7499	0.8491	-0.068
Mof_H 	H 	0.76	0.7353	0.8567	-0.247
Mof_O 	O 	0.48235	0.37177	0.00407	-0.402
Mof_O 	O 	0.44389	0.40988	0.96774	-0.411
Mof_O 	O 	0.1283	0.12102	0.77719	-0.469
Mof_C 	C 	0.45506	0.36132	0.98099	0.359
Mof_C 	C 	0.43175	0.27979	0.96881	-0.065
Mof_C 	C 	0.39709	0.26154	0.94408	-0.043
Mof_H 	H 	0.3871	0.2991	0.9355	0.068
Mof_C 	C 	0.2069	0.0443	0.82425	-0.002
Mof_H 	H 	0.2029	0.9987	0.8159	0.045
Mof_C 	C 	0.2306	0.0619	0.84901	0.086
Mof_C 	C 	0.2409	0.9971	0.86526	0.641
Mof_H 	H 	0.2876	0.9947	0.8589	-0.056
Mof_H 	H 	0.2488	0.0126	0.8834	-0.153
Mof_H 	H 	0.1927	0.9444	0.8634	-0.173
Mof_C 	C 	0.2501	0.0603	0.8491	-0.082
Mof_H 	H 	0.2647	0.0247	0.8567	-0.275
Mof_O 	O 	0.62823	0.11058	0.00407	-0.402
Mof_O 	O 	0.59012	0.03401	0.96774	-0.41
Mof_O 	O 	0.87898	0.00728	0.77719	-0.461
Mof_C 	C 	0.63868	0.09374	0.98099	0.359
Mof_C 	C 	0.72021	0.15196	0.96881	-0.065
Mof_C 	C 	0.73846	0.13555	0.94408	-0.043
Mof_H 	H 	0.7009	0.088	0.9355	0.07
Mof_C 	C 	0.9557	0.1626	0.82425	0.01
Mof_H 	H 	0.0013	0.2042	0.8159	0.042
Mof_C 	C 	0.9381	0.1687	0.84901	0.084
Mof_C 	C 	0.0029	0.2438	0.86526	0.643
Mof_H 	H 	0.0053	0.2929	0.8589	-0.057
Mof_H 	H 	0.9874	0.2362	0.8834	-0.154
Mof_H 	H 	0.0556	0.2483	0.8634	-0.173
Mof_C 	C 	0.9397	0.1898	0.8491	-0.085
Mof_H 	H 	0.9753	0.24	0.8567	-0.274
Mof_O 	O 	0.48235	0.11058	0.49593	-0.402
Mof_O 	O 	0.44389	0.03401	0.53226	-0.41
Mof_O 	O 	0.1283	0.00728	0.72281	-0.463
Mof_C 	C 	0.45506	0.09374	0.51901	0.359
Mof_C 	C 	0.43175	0.15196	0.53119	-0.065
Mof_C 	C 	0.39709	0.13555	0.55592	-0.043
Mof_H 	H 	0.3871	0.088	0.5645	0.07
Mof_C 	C 	0.2069	0.1626	0.67575	-0.024
Mof_H 	H 	0.2029	0.2042	0.6841	0.061
Mof_C 	C 	0.2306	0.1687	0.65099	0.075
Mof_C 	C 	0.2409	0.2438	0.63474	0.561
Mof_H 	H 	0.2876	0.2929	0.6411	-0.039
Mof_H 	H 	0.2488	0.2362	0.6166	-0.135
Mof_H 	H 	0.1927	0.2483	0.6366	-0.145
Mof_C 	C 	0.2501	0.1898	0.6509	-0.068
Mof_H 	H 	0.2647	0.24	0.6433	-0.247
Mof_O 	O 	0.62823	0.51765	0.49593	-0.402
Mof_O 	O 	0.59012	0.55611	0.53226	-0.411
Mof_O 	O 	0.87898	0.8717	0.72281	-0.469
Mof_C 	C 	0.63868	0.54494	0.51901	0.359
Mof_C 	C 	0.72021	0.56825	0.53119	-0.065
Mof_C 	C 	0.73846	0.60291	0.55592	-0.043
Mof_H 	H 	0.7009	0.6129	0.5645	0.068
Mof_C 	C 	0.9557	0.7931	0.67575	-0.002
Mof_H 	H 	0.0013	0.7971	0.6841	0.045
Mof_C 	C 	0.9381	0.7694	0.65099	0.086
Mof_C 	C 	0.0029	0.7591	0.63474	0.64
Mof_H 	H 	0.0053	0.7124	0.6411	-0.056
Mof_H 	H 	0.9874	0.7512	0.6166	-0.153
Mof_H 	H 	0.0556	0.8073	0.6366	-0.173
Mof_C 	C 	0.9397	0.7499	0.6509	-0.082
Mof_H 	H 	0.9753	0.7353	0.6433	-0.275
Mof_O 	O 	0.88942	0.37177	0.49593	-0.402
Mof_O 	O 	0.96599	0.40988	0.53226	-0.41
Mof_O 	O 	0.99272	0.12102	0.72281	-0.461
Mof_C 	C 	0.90626	0.36132	0.51901	0.359
Mof_C 	C 	0.84804	0.27979	0.53119	-0.065
Mof_C 	C 	0.86445	0.26154	0.55592	-0.043
Mof_H 	H 	0.912	0.2991	0.5645	0.07
Mof_C 	C 	0.8374	0.0443	0.67575	0.01
Mof_H 	H 	0.7958	0.9987	0.6841	0.042
Mof_C 	C 	0.8313	0.0619	0.65099	0.084
Mof_C 	C 	0.7562	0.9971	0.63474	0.642
Mof_H 	H 	0.7071	0.9947	0.6411	-0.056
Mof_H 	H 	0.7638	0.0126	0.6166	-0.154
Mof_H 	H 	0.7517	0.9444	0.6366	-0.173
Mof_C 	C 	0.8102	0.0603	0.6509	-0.085
Mof_H 	H 	0.76	0.0247	0.6433	-0.274
Mof_O 	O 	0.51765	0.88942	0.99593	-0.402
Mof_O 	O 	0.55611	0.96599	0.03226	-0.41
Mof_O 	O 	0.8717	0.99272	0.22281	-0.463
Mof_C 	C 	0.54494	0.90626	0.01901	0.359
Mof_C 	C 	0.56825	0.84804	0.03119	-0.065
Mof_C 	C 	0.60291	0.86445	0.05592	-0.043
Mof_H 	H 	0.6129	0.912	0.0645	0.07
Mof_C 	C 	0.7931	0.8374	0.17575	-0.024
Mof_H 	H 	0.7971	0.7958	0.1841	0.061
Mof_C 	C 	0.7694	0.8313	0.15099	0.075
Mof_C 	C 	0.7591	0.7562	0.13474	0.561
Mof_H 	H 	0.7124	0.7071	0.1411	-0.039
Mof_H 	H 	0.7512	0.7638	0.1166	-0.135
Mof_H 	H 	0.8073	0.7517	0.1366	-0.145
Mof_C 	C 	0.7499	0.8102	0.1509	-0.068
Mof_H 	H 	0.7353	0.76	0.1433	-0.247
Mof_O 	O 	0.37177	0.48235	0.99593	-0.402
Mof_O 	O 	0.40988	0.44389	0.03226	-0.411
Mof_O 	O 	0.12102	0.1283	0.22281	-0.469
Mof_C 	C 	0.36132	0.45506	0.01901	0.359
Mof_C 	C 	0.27979	0.43175	0.03119	-0.065
Mof_C 	C 	0.26154	0.39709	0.05592	-0.043
Mof_H 	H 	0.2991	0.3871	0.0645	0.068
Mof_C 	C 	0.0443	0.2069	0.17575	-0.002
Mof_H 	H 	0.9987	0.2029	0.1841	0.045
Mof_C 	C 	0.0619	0.2306	0.15099	0.086
Mof_C 	C 	0.9971	0.2409	0.13474	0.641
Mof_H 	H 	0.9947	0.2876	0.1411	-0.056
Mof_H 	H 	0.0126	0.2488	0.1166	-0.153
Mof_H 	H 	0.9444	0.1927	0.1366	-0.173
Mof_C 	C 	0.0603	0.2501	0.1509	-0.082
Mof_H 	H 	0.0247	0.2647	0.1433	-0.275
Mof_O 	O 	0.11058	0.62823	0.99593	-0.402
Mof_O 	O 	0.03401	0.59012	0.03226	-0.41
Mof_O 	O 	0.00728	0.87898	0.22281	-0.461
Mof_C 	C 	0.09374	0.63868	0.01901	0.359
Mof_C 	C 	0.15196	0.72021	0.03119	-0.065
Mof_C 	C 	0.13555	0.73846	0.05592	-0.043
Mof_H 	H 	0.088	0.7009	0.0645	0.07
Mof_C 	C 	0.1626	0.9557	0.17575	0.01
Mof_H 	H 	0.2042	0.0013	0.1841	0.042
Mof_C 	C 	0.1687	0.9381	0.15099	0.084
Mof_C 	C 	0.2438	0.0029	0.13474	0.643
Mof_H 	H 	0.2929	0.0053	0.1411	-0.057
Mof_H 	H 	0.2362	0.9874	0.1166	-0.154
Mof_H 	H 	0.2483	0.0556	0.1366	-0.173
Mof_C 	C 	0.1898	0.9397	0.1509	-0.085
Mof_H 	H 	0.24	0.9753	0.1433	-0.274
Mof_Cu	Cu	0.04505	0.52252	0.52173	0.904
Mof_Cu	Cu	0.47748	0.52252	0.52173	0.905
Mof_Cu	Cu	0.47748	0.95495	0.52173	0.904
Mof_Cu	Cu	0.95495	0.47748	0.02173	0.904
Mof_Cu	Cu	0.52252	0.47748	0.02173	0.905
Mof_Cu	Cu	0.52252	0.04505	0.02173	0.904
Mof_Cu	Cu	0.52252	0.04505	0.47827	0.904
Mof_Cu	Cu	0.52252	0.47748	0.47827	0.905
Mof_Cu	Cu	0.95495	0.47748	0.47827	0.904
Mof_Cu	Cu	0.47748	0.95495	0.97827	0.904
Mof_Cu	Cu	0.47748	0.52252	0.97827	0.905
Mof_Cu	Cu	0.04505	0.52252	0.97827	0.904
Mof_Cu	Cu	0.0597	0.9403	0.75	0.93
Mof_Cu	Cu	0.0597	0.1194	0.75	0.936
Mof_Cu	Cu	0.8806	0.9403	0.75	0.936
Mof_Cu	Cu	0.9403	0.0597	0.25	0.93
Mof_Cu	Cu	0.9403	0.8806	0.25	0.936
Mof_Cu	Cu	0.1194	0.0597	0.25	0.936
Mof_C 	C 	0.77535	0.5507	0.51911	0.012
Mof_H 	H 	0.76335	0.5267	0.5026	0.058
Mof_C 	C 	0.8114	0.6228	0.568	0.037
Mof_C 	C 	0.8299	0.6598	0.59409	-0.027
Mof_C 	C 	0.8466	0.6932	0.61466	0.027
Mof_C 	C 	0.8664	0.7328	0.63995	-0.016
Mof_C 	C 	0.9052	0.8104	0.68755	-0.095
Mof_C 	C 	0.92835	0.8567	0.71415	0.471
Mof_C 	C 	0.4493	0.22465	0.51911	0.012
Mof_H 	H 	0.4733	0.23665	0.5026	0.058
Mof_C 	C 	0.3772	0.1886	0.568	0.037
Mof_C 	C 	0.3402	0.1701	0.59409	-0.027
Mof_C 	C 	0.3068	0.1534	0.61466	0.027
Mof_C 	C 	0.2672	0.1336	0.63995	-0.016
Mof_C 	C 	0.1896	0.0948	0.68755	-0.095
Mof_C 	C 	0.1433	0.07165	0.71415	0.471
Mof_C 	C 	0.77535	0.22465	0.51911	0.012
Mof_H 	H 	0.76335	0.23665	0.5026	0.058
Mof_C 	C 	0.8114	0.1886	0.568	0.038
Mof_C 	C 	0.8299	0.1701	0.59409	-0.025
Mof_C 	C 	0.8466	0.1534	0.61466	0.028
Mof_C 	C 	0.8664	0.1336	0.63995	-0.009
Mof_C 	C 	0.9052	0.0948	0.68755	-0.11
Mof_C 	C 	0.92835	0.07165	0.71415	0.477
Mof_C 	C 	0.22465	0.4493	0.01911	0.012
Mof_H 	H 	0.23665	0.4733	0.0026	0.058
Mof_C 	C 	0.1886	0.3772	0.068	0.037
Mof_C 	C 	0.1701	0.3402	0.09409	-0.027
Mof_C 	C 	0.1534	0.3068	0.11466	0.028
Mof_C 	C 	0.1336	0.2672	0.13995	-0.016
Mof_C 	C 	0.0948	0.1896	0.18755	-0.095
Mof_C 	C 	0.07165	0.1433	0.21415	0.471
Mof_C 	C 	0.5507	0.77535	0.01911	0.012
Mof_H 	H 	0.5267	0.76335	0.0026	0.058
Mof_C 	C 	0.6228	0.8114	0.068	0.037
Mof_C 	C 	0.6598	0.8299	0.09409	-0.027
Mof_C 	C 	0.6932	0.8466	0.11466	0.028
Mof_C 	C 	0.7328	0.8664	0.13995	-0.016
Mof_C 	C 	0.8104	0.9052	0.18755	-0.095
Mof_C 	C 	0.8567	0.92835	0.21415	0.471
Mof_C 	C 	0.22465	0.77535	0.01911	0.012
Mof_H 	H 	0.23665	0.76335	0.0026	0.058
Mof_C 	C 	0.1886	0.8114	0.068	0.038
Mof_C 	C 	0.1701	0.8299	0.09409	-0.025
Mof_C 	C 	0.1534	0.8466	0.11466	0.028
Mof_C 	C 	0.1336	0.8664	0.13995	-0.009
Mof_C 	C 	0.0948	0.9052	0.18755	-0.11
Mof_C 	C 	0.07165	0.92835	0.21415	0.477
Mof_C 	C 	0.5507	0.77535	0.48089	0.012
Mof_H 	H 	0.5267	0.76335	0.4974	0.058
Mof_C 	C 	0.6228	0.8114	0.432	0.037
Mof_C 	C 	0.6598	0.8299	0.40591	-0.027
Mof_C 	C 	0.6932	0.8466	0.38534	0.027
Mof_C 	C 	0.7328	0.8664	0.36005	-0.016
Mof_C 	C 	0.8104	0.9052	0.31245	-0.095
Mof_C 	C 	0.8567	0.92835	0.28585	0.471
Mof_C 	C 	0.22465	0.4493	0.48089	0.012
Mof_H 	H 	0.23665	0.4733	0.4974	0.058
Mof_C 	C 	0.1886	0.3772	0.432	0.037
Mof_C 	C 	0.1701	0.3402	0.40591	-0.027
Mof_C 	C 	0.1534	0.3068	0.38534	0.027
Mof_C 	C 	0.1336	0.2672	0.36005	-0.016
Mof_C 	C 	0.0948	0.1896	0.31245	-0.095
Mof_C 	C 	0.07165	0.1433	0.28585	0.471
Mof_C 	C 	0.22465	0.77535	0.48089	0.012
Mof_H 	H 	0.23665	0.76335	0.4974	0.058
Mof_C 	C 	0.1886	0.8114	0.432	0.038
Mof_C 	C 	0.1701	0.8299	0.40591	-0.025
Mof_C 	C 	0.1534	0.8466	0.38534	0.028
Mof_C 	C 	0.1336	0.8664	0.36005	-0.009
Mof_C 	C 	0.0948	0.9052	0.31245	-0.11
Mof_C 	C 	0.07165	0.92835	0.28585	0.477
Mof_C 	C 	0.4493	0.22465	0.98089	0.012
Mof_H 	H 	0.4733	0.23665	0.9974	0.058
Mof_C 	C 	0.3772	0.1886	0.932	0.037
Mof_C 	C 	0.3402	0.1701	0.90591	-0.027
Mof_C 	C 	0.3068	0.1534	0.88534	0.028
Mof_C 	C 	0.2672	0.1336	0.86005	-0.016
Mof_C 	C 	0.1896	0.0948	0.81245	-0.095
Mof_C 	C 	0.1433	0.07165	0.78585	0.471
Mof_C 	C 	0.77535	0.5507	0.98089	0.012
Mof_H 	H 	0.76335	0.5267	0.9974	0.058
Mof_C 	C 	0.8114	0.6228	0.932	0.037
Mof_C 	C 	0.8299	0.6598	0.90591	-0.027
Mof_C 	C 	0.8466	0.6932	0.88534	0.028
Mof_C 	C 	0.8664	0.7328	0.86005	-0.016
Mof_C 	C 	0.9052	0.8104	0.81245	-0.095
Mof_C 	C 	0.92835	0.8567	0.78585	0.471
Mof_C 	C 	0.77535	0.22465	0.98089	0.012
Mof_H 	H 	0.76335	0.23665	0.9974	0.058
Mof_C 	C 	0.8114	0.1886	0.932	0.038
Mof_C 	C 	0.8299	0.1701	0.90591	-0.025
Mof_C 	C 	0.8466	0.1534	0.88534	0.028
Mof_C 	C 	0.8664	0.1336	0.86005	-0.009
Mof_C 	C 	0.9052	0.0948	0.81245	-0.11
Mof_C 	C 	0.92835	0.07165	0.78585	0.477
_end
