data_functionalizedCrystal
_audit_creation_method	'EQeq! by Chris Wilmer'
_symmetry_space_group_name_H-M	'P1'
_symmetry_Int_Tables_number	1
_symmetry_cell_setting	triclinic
loop_
_symmetry_equiv_pos_as_xyz
  x,y,z
_cell_length_a	24.7394
_cell_length_b	38.269
_cell_length_c	5.3487
_cell_angle_alpha	90
_cell_angle_beta	90
_cell_angle_gamma	90
loop_
_atom_site_label
_atom_site_type_symbol
_atom_site_fract_x
_atom_site_fract_y
_atom_site_fract_z
_atom_site_charge
Mof_Ag	Ag	0.96009	0.23145	0.43953	0.535
Mof_N 	N 	0.00704	0.19663	0.6826	-0.176
Mof_N 	N 	0.03696	0.209	0.8832	-0.171
Mof_N 	N 	0.04714	0.15253	0.8586	-0.113
Mof_N 	N 	0.06315	0.11744	0.8809	-0.091
Mof_N 	N 	0.15914	0.03245	0.3471	-0.186
Mof_C 	C 	0.01405	0.16259	0.6717	0.094
Mof_H 	H 	0.9986	0.1478	0.5536	-0.004
Mof_C 	C 	0.06124	0.18211	0.9858	0.068
Mof_H 	H 	0.0843	0.183	0.1229	-0.001
Mof_C 	C 	0.09493	0.11041	0.058	0.017
Mof_H 	H 	0.1072	0.1278	0.1653	0.034
Mof_C 	C 	0.11208	0.07354	0.0901	-0.013
Mof_C 	C 	0.09498	0.04736	0.9331	-0.033
Mof_H 	H 	0.0734	0.0523	0.7952	0.044
Mof_C 	C 	0.11066	0.01332	0.9849	-0.128
Mof_H 	H 	0.1001	0.9951	0.8808	0.057
Mof_C 	C 	0.14214	0.00684	0.1935	0.042
Mof_H 	H 	0.1519	0.9839	0.2289	-0.011
Mof_C 	C 	0.14407	0.06517	0.2934	0.015
Mof_H 	H 	0.1556	0.0831	0.3976	0.017
Mof_Ag	Ag	0.96009	0.73145	0.93953	0.515
Mof_N 	N 	0.00704	0.69663	0.1826	-0.17
Mof_N 	N 	0.03696	0.709	0.3832	-0.171
Mof_N 	N 	0.04714	0.65253	0.3586	-0.114
Mof_N 	N 	0.06315	0.61744	0.3809	-0.085
Mof_N 	N 	0.15914	0.53245	0.8471	-0.186
Mof_C 	C 	0.01405	0.66259	0.1717	0.097
Mof_H 	H 	0.9986	0.6478	0.0536	-0
Mof_C 	C 	0.06124	0.68211	0.4858	0.087
Mof_H 	H 	0.0843	0.683	0.6229	-0.012
Mof_C 	C 	0.09493	0.61041	0.558	0.01
Mof_H 	H 	0.1072	0.6278	0.6653	0.034
Mof_C 	C 	0.11208	0.57354	0.5901	-0.017
Mof_C 	C 	0.09498	0.54736	0.4331	-0.028
Mof_H 	H 	0.0734	0.5523	0.2952	0.044
Mof_C 	C 	0.11066	0.51332	0.4849	-0.122
Mof_H 	H 	0.1001	0.4951	0.3808	0.056
Mof_C 	C 	0.14214	0.50684	0.6935	0.034
Mof_H 	H 	0.1519	0.4839	0.7289	-0.011
Mof_C 	C 	0.14407	0.56517	0.7934	0.014
Mof_H 	H 	0.1556	0.5831	0.8976	0.015
Mof_Ag	Ag	0.46009	0.23145	0.93953	0.515
Mof_N 	N 	0.50704	0.19663	0.1826	-0.17
Mof_N 	N 	0.53696	0.209	0.3832	-0.171
Mof_N 	N 	0.54714	0.15253	0.3586	-0.114
Mof_N 	N 	0.56315	0.11744	0.3809	-0.085
Mof_N 	N 	0.65914	0.03245	0.8471	-0.186
Mof_C 	C 	0.51405	0.16259	0.1717	0.097
Mof_H 	H 	0.4986	0.1478	0.0536	-0
Mof_C 	C 	0.56124	0.18211	0.4858	0.087
Mof_H 	H 	0.5843	0.183	0.6229	-0.012
Mof_C 	C 	0.59493	0.11041	0.558	0.01
Mof_H 	H 	0.6072	0.1278	0.6653	0.034
Mof_C 	C 	0.61208	0.07354	0.5901	-0.017
Mof_C 	C 	0.59498	0.04736	0.4331	-0.028
Mof_H 	H 	0.5734	0.0523	0.2952	0.044
Mof_C 	C 	0.61066	0.01332	0.4849	-0.122
Mof_H 	H 	0.6001	0.9951	0.3808	0.056
Mof_C 	C 	0.64214	0.00684	0.6935	0.034
Mof_H 	H 	0.6519	0.9839	0.7289	-0.011
Mof_C 	C 	0.64407	0.06517	0.7934	0.014
Mof_H 	H 	0.6556	0.0831	0.8976	0.015
Mof_Ag	Ag	0.46009	0.73145	0.43953	0.536
Mof_N 	N 	0.50704	0.69663	0.6826	-0.175
Mof_N 	N 	0.53696	0.709	0.8832	-0.17
Mof_N 	N 	0.54714	0.65253	0.8586	-0.112
Mof_N 	N 	0.56315	0.61744	0.8809	-0.091
Mof_N 	N 	0.65914	0.53245	0.3471	-0.185
Mof_C 	C 	0.51405	0.66259	0.6717	0.095
Mof_H 	H 	0.4986	0.6478	0.5536	-0.003
Mof_C 	C 	0.56124	0.68211	0.9858	0.068
Mof_H 	H 	0.5843	0.683	0.1229	-0
Mof_C 	C 	0.59493	0.61041	0.058	0.017
Mof_H 	H 	0.6072	0.6278	0.1653	0.034
Mof_C 	C 	0.61208	0.57354	0.0901	-0.013
Mof_C 	C 	0.59498	0.54736	0.9331	-0.033
Mof_H 	H 	0.5734	0.5523	0.7952	0.044
Mof_C 	C 	0.61066	0.51332	0.9849	-0.128
Mof_H 	H 	0.6001	0.4951	0.8808	0.057
Mof_C 	C 	0.64214	0.50684	0.1935	0.042
Mof_H 	H 	0.6519	0.4839	0.2289	-0.011
Mof_C 	C 	0.64407	0.56517	0.2934	0.015
Mof_H 	H 	0.6556	0.5831	0.3976	0.017
Mof_Ag	Ag	0.03991	0.76855	0.43953	0.536
Mof_N 	N 	0.99296	0.80337	0.6826	-0.175
Mof_N 	N 	0.96304	0.791	0.8832	-0.17
Mof_N 	N 	0.95286	0.84747	0.8586	-0.112
Mof_N 	N 	0.93685	0.88256	0.8809	-0.09
Mof_N 	N 	0.84086	0.96755	0.3471	-0.185
Mof_C 	C 	0.98595	0.83741	0.6717	0.095
Mof_H 	H 	0.0014	0.8522	0.5536	-0.003
Mof_C 	C 	0.93876	0.81789	0.9858	0.069
Mof_H 	H 	0.9157	0.817	0.1229	-0
Mof_C 	C 	0.90507	0.88959	0.058	0.017
Mof_H 	H 	0.8928	0.8722	0.1653	0.034
Mof_C 	C 	0.88792	0.92646	0.0901	-0.013
Mof_C 	C 	0.90502	0.95264	0.9331	-0.033
Mof_H 	H 	0.9266	0.9477	0.7952	0.044
Mof_C 	C 	0.88934	0.98668	0.9849	-0.128
Mof_H 	H 	0.8999	0.0049	0.8808	0.057
Mof_C 	C 	0.85786	0.99316	0.1935	0.042
Mof_H 	H 	0.8481	0.0161	0.2289	-0.011
Mof_C 	C 	0.85593	0.93483	0.2934	0.015
Mof_H 	H 	0.8444	0.9169	0.3976	0.017
Mof_Ag	Ag	0.03991	0.26855	0.93953	0.515
Mof_N 	N 	0.99296	0.30337	0.1826	-0.17
Mof_N 	N 	0.96304	0.291	0.3832	-0.171
Mof_N 	N 	0.95286	0.34747	0.3586	-0.114
Mof_N 	N 	0.93685	0.38256	0.3809	-0.085
Mof_N 	N 	0.84086	0.46755	0.8471	-0.186
Mof_C 	C 	0.98595	0.33741	0.1717	0.097
Mof_H 	H 	0.0014	0.3522	0.0536	-0
Mof_C 	C 	0.93876	0.31789	0.4858	0.087
Mof_H 	H 	0.9157	0.317	0.6229	-0.012
Mof_C 	C 	0.90507	0.38959	0.558	0.01
Mof_H 	H 	0.8928	0.3722	0.6653	0.034
Mof_C 	C 	0.88792	0.42646	0.5901	-0.017
Mof_C 	C 	0.90502	0.45264	0.4331	-0.028
Mof_H 	H 	0.9266	0.4477	0.2952	0.044
Mof_C 	C 	0.88934	0.48668	0.4849	-0.122
Mof_H 	H 	0.8999	0.5049	0.3808	0.056
Mof_C 	C 	0.85786	0.49316	0.6935	0.034
Mof_H 	H 	0.8481	0.5161	0.7289	-0.011
Mof_C 	C 	0.85593	0.43483	0.7934	0.014
Mof_H 	H 	0.8444	0.4169	0.8976	0.015
Mof_Ag	Ag	0.53991	0.76855	0.93953	0.515
Mof_N 	N 	0.49296	0.80337	0.1826	-0.17
Mof_N 	N 	0.46304	0.791	0.3832	-0.171
Mof_N 	N 	0.45286	0.84747	0.3586	-0.114
Mof_N 	N 	0.43685	0.88256	0.3809	-0.085
Mof_N 	N 	0.34086	0.96755	0.8471	-0.186
Mof_C 	C 	0.48595	0.83741	0.1717	0.097
Mof_H 	H 	0.5014	0.8522	0.0536	-0
Mof_C 	C 	0.43876	0.81789	0.4858	0.087
Mof_H 	H 	0.4157	0.817	0.6229	-0.012
Mof_C 	C 	0.40507	0.88959	0.558	0.01
Mof_H 	H 	0.3928	0.8722	0.6653	0.034
Mof_C 	C 	0.38792	0.92646	0.5901	-0.017
Mof_C 	C 	0.40502	0.95264	0.4331	-0.028
Mof_H 	H 	0.4266	0.9477	0.2952	0.044
Mof_C 	C 	0.38934	0.98668	0.4849	-0.122
Mof_H 	H 	0.3999	0.0049	0.3808	0.056
Mof_C 	C 	0.35786	0.99316	0.6935	0.034
Mof_H 	H 	0.3481	0.0161	0.7289	-0.011
Mof_C 	C 	0.35593	0.93483	0.7934	0.014
Mof_H 	H 	0.3444	0.9169	0.8976	0.015
Mof_Ag	Ag	0.53991	0.26855	0.43953	0.536
Mof_N 	N 	0.49296	0.30337	0.6826	-0.175
Mof_N 	N 	0.46304	0.291	0.8832	-0.17
Mof_N 	N 	0.45286	0.34747	0.8586	-0.112
Mof_N 	N 	0.43685	0.38256	0.8809	-0.091
Mof_N 	N 	0.34086	0.46755	0.3471	-0.185
Mof_C 	C 	0.48595	0.33741	0.6717	0.095
Mof_H 	H 	0.5014	0.3522	0.5536	-0.003
Mof_C 	C 	0.43876	0.31789	0.9858	0.068
Mof_H 	H 	0.4157	0.317	0.1229	-0
Mof_C 	C 	0.40507	0.38959	0.058	0.017
Mof_H 	H 	0.3928	0.3722	0.1653	0.034
Mof_C 	C 	0.38792	0.42646	0.0901	-0.013
Mof_C 	C 	0.40502	0.45264	0.9331	-0.033
Mof_H 	H 	0.4266	0.4477	0.7952	0.044
Mof_C 	C 	0.38934	0.48668	0.9849	-0.128
Mof_H 	H 	0.3999	0.5049	0.8808	0.057
Mof_C 	C 	0.35786	0.49316	0.1935	0.042
Mof_H 	H 	0.3481	0.5161	0.2289	-0.011
Mof_C 	C 	0.35593	0.43483	0.2934	0.015
Mof_H 	H 	0.3444	0.4169	0.3976	0.017
Mof_Ag	Ag	0.21009	0.01855	0.68953	0.528
Mof_N 	N 	0.25704	0.05337	0.9326	-0.176
Mof_N 	N 	0.28696	0.041	0.1332	-0.17
Mof_N 	N 	0.29714	0.09747	0.1086	-0.11
Mof_N 	N 	0.31315	0.13256	0.1309	-0.084
Mof_N 	N 	0.40914	0.21755	0.5971	-0.184
Mof_C 	C 	0.26405	0.08741	0.9217	0.087
Mof_H 	H 	0.2486	0.1022	0.8036	-0.002
Mof_C 	C 	0.31124	0.06789	0.2358	0.088
Mof_H 	H 	0.3343	0.067	0.3729	-0.012
Mof_C 	C 	0.34493	0.13959	0.308	0.01
Mof_H 	H 	0.3572	0.1222	0.4153	0.034
Mof_C 	C 	0.36208	0.17646	0.3401	-0.016
Mof_C 	C 	0.34498	0.20264	0.1831	-0.028
Mof_H 	H 	0.3234	0.1977	0.0452	0.046
Mof_C 	C 	0.36066	0.23668	0.2349	-0.12
Mof_H 	H 	0.3501	0.2549	0.1308	0.057
Mof_C 	C 	0.39214	0.24316	0.4435	0.034
Mof_H 	H 	0.4019	0.2661	0.4789	-0.009
Mof_C 	C 	0.39407	0.18483	0.5434	0.014
Mof_H 	H 	0.4056	0.1669	0.6476	0.016
Mof_Ag	Ag	0.21009	0.51855	0.18953	0.537
Mof_N 	N 	0.25704	0.55337	0.4326	-0.174
Mof_N 	N 	0.28696	0.541	0.6332	-0.172
Mof_N 	N 	0.29714	0.59747	0.6086	-0.114
Mof_N 	N 	0.31315	0.63256	0.6309	-0.086
Mof_N 	N 	0.40914	0.71755	0.0971	-0.181
Mof_C 	C 	0.26405	0.58741	0.4217	0.096
Mof_H 	H 	0.2486	0.6022	0.3036	-0.002
Mof_C 	C 	0.31124	0.56789	0.7358	0.086
Mof_H 	H 	0.3343	0.567	0.8729	-0.013
Mof_C 	C 	0.34493	0.63959	0.808	0.013
Mof_H 	H 	0.3572	0.6222	0.9153	0.032
Mof_C 	C 	0.36208	0.67646	0.8401	-0.028
Mof_C 	C 	0.34498	0.70264	0.6831	-0.025
Mof_H 	H 	0.3234	0.6977	0.5452	0.043
Mof_C 	C 	0.36066	0.73668	0.7349	-0.122
Mof_H 	H 	0.3501	0.7549	0.6308	0.055
Mof_C 	C 	0.39214	0.74316	0.9435	0.027
Mof_H 	H 	0.4019	0.7661	0.9789	-0.01
Mof_C 	C 	0.39407	0.68483	0.0434	0.028
Mof_H 	H 	0.4056	0.6669	0.1476	0.014
Mof_Ag	Ag	0.71009	0.01855	0.18953	0.537
Mof_N 	N 	0.75704	0.05337	0.4326	-0.174
Mof_N 	N 	0.78696	0.041	0.6332	-0.172
Mof_N 	N 	0.79714	0.09747	0.6086	-0.114
Mof_N 	N 	0.81315	0.13256	0.6309	-0.086
Mof_N 	N 	0.90914	0.21755	0.0971	-0.181
Mof_C 	C 	0.76405	0.08741	0.4217	0.096
Mof_H 	H 	0.7486	0.1022	0.3036	-0.002
Mof_C 	C 	0.81124	0.06789	0.7358	0.086
Mof_H 	H 	0.8343	0.067	0.8729	-0.013
Mof_C 	C 	0.84493	0.13959	0.808	0.013
Mof_H 	H 	0.8572	0.1222	0.9153	0.032
Mof_C 	C 	0.86208	0.17646	0.8401	-0.028
Mof_C 	C 	0.84498	0.20264	0.6831	-0.025
Mof_H 	H 	0.8234	0.1977	0.5452	0.043
Mof_C 	C 	0.86066	0.23668	0.7349	-0.122
Mof_H 	H 	0.8501	0.2549	0.6308	0.055
Mof_C 	C 	0.89214	0.24316	0.9435	0.027
Mof_H 	H 	0.9019	0.2661	0.9789	-0.01
Mof_C 	C 	0.89407	0.18483	0.0434	0.028
Mof_H 	H 	0.9056	0.1669	0.1476	0.014
Mof_Ag	Ag	0.71009	0.51855	0.68953	0.528
Mof_N 	N 	0.75704	0.55337	0.9326	-0.176
Mof_N 	N 	0.78696	0.541	0.1332	-0.17
Mof_N 	N 	0.79714	0.59747	0.1086	-0.11
Mof_N 	N 	0.81315	0.63256	0.1309	-0.084
Mof_N 	N 	0.90914	0.71755	0.5971	-0.184
Mof_C 	C 	0.76405	0.58741	0.9217	0.088
Mof_H 	H 	0.7486	0.6022	0.8036	-0.002
Mof_C 	C 	0.81124	0.56789	0.2358	0.088
Mof_H 	H 	0.8343	0.567	0.3729	-0.012
Mof_C 	C 	0.84493	0.63959	0.308	0.01
Mof_H 	H 	0.8572	0.6222	0.4153	0.034
Mof_C 	C 	0.86208	0.67646	0.3401	-0.016
Mof_C 	C 	0.84498	0.70264	0.1831	-0.028
Mof_H 	H 	0.8234	0.6977	0.0452	0.046
Mof_C 	C 	0.86066	0.73668	0.2349	-0.12
Mof_H 	H 	0.8501	0.7549	0.1308	0.057
Mof_C 	C 	0.89214	0.74316	0.4435	0.034
Mof_H 	H 	0.9019	0.7661	0.4789	-0.009
Mof_C 	C 	0.89407	0.68483	0.5434	0.014
Mof_H 	H 	0.9056	0.6669	0.6476	0.016
Mof_Ag	Ag	0.28991	0.48145	0.68953	0.528
Mof_N 	N 	0.24296	0.44663	0.9326	-0.176
Mof_N 	N 	0.21304	0.459	0.1332	-0.17
Mof_N 	N 	0.20286	0.40253	0.1086	-0.11
Mof_N 	N 	0.18685	0.36744	0.1309	-0.084
Mof_N 	N 	0.09086	0.28245	0.5971	-0.184
Mof_C 	C 	0.23595	0.41259	0.9217	0.088
Mof_H 	H 	0.2514	0.3978	0.8036	-0.002
Mof_C 	C 	0.18876	0.43211	0.2358	0.088
Mof_H 	H 	0.1657	0.433	0.3729	-0.012
Mof_C 	C 	0.15507	0.36041	0.308	0.01
Mof_H 	H 	0.1428	0.3778	0.4153	0.034
Mof_C 	C 	0.13792	0.32354	0.3401	-0.016
Mof_C 	C 	0.15502	0.29736	0.1831	-0.028
Mof_H 	H 	0.1766	0.3023	0.0452	0.046
Mof_C 	C 	0.13934	0.26332	0.2349	-0.12
Mof_H 	H 	0.1499	0.2451	0.1308	0.057
Mof_C 	C 	0.10786	0.25684	0.4435	0.034
Mof_H 	H 	0.0981	0.2339	0.4789	-0.009
Mof_C 	C 	0.10593	0.31517	0.5434	0.014
Mof_H 	H 	0.0944	0.3331	0.6476	0.016
Mof_Ag	Ag	0.28991	0.98145	0.18953	0.537
Mof_N 	N 	0.24296	0.94663	0.4326	-0.174
Mof_N 	N 	0.21304	0.959	0.6332	-0.172
Mof_N 	N 	0.20286	0.90253	0.6086	-0.114
Mof_N 	N 	0.18685	0.86744	0.6309	-0.086
Mof_N 	N 	0.09086	0.78245	0.0971	-0.181
Mof_C 	C 	0.23595	0.91259	0.4217	0.096
Mof_H 	H 	0.2514	0.8978	0.3036	-0.002
Mof_C 	C 	0.18876	0.93211	0.7358	0.086
Mof_H 	H 	0.1657	0.933	0.8729	-0.013
Mof_C 	C 	0.15507	0.86041	0.808	0.013
Mof_H 	H 	0.1428	0.8778	0.9153	0.032
Mof_C 	C 	0.13792	0.82354	0.8401	-0.028
Mof_C 	C 	0.15502	0.79736	0.6831	-0.025
Mof_H 	H 	0.1766	0.8023	0.5452	0.043
Mof_C 	C 	0.13934	0.76332	0.7349	-0.122
Mof_H 	H 	0.1499	0.7451	0.6308	0.055
Mof_C 	C 	0.10786	0.75684	0.9435	0.027
Mof_H 	H 	0.0981	0.7339	0.9789	-0.01
Mof_C 	C 	0.10593	0.81517	0.0434	0.028
Mof_H 	H 	0.0944	0.8331	0.1476	0.014
Mof_Ag	Ag	0.78991	0.48145	0.18953	0.537
Mof_N 	N 	0.74296	0.44663	0.4326	-0.174
Mof_N 	N 	0.71304	0.459	0.6332	-0.172
Mof_N 	N 	0.70286	0.40253	0.6086	-0.114
Mof_N 	N 	0.68685	0.36744	0.6309	-0.086
Mof_N 	N 	0.59086	0.28245	0.0971	-0.181
Mof_C 	C 	0.73595	0.41259	0.4217	0.096
Mof_H 	H 	0.7514	0.3978	0.3036	-0.002
Mof_C 	C 	0.68876	0.43211	0.7358	0.086
Mof_H 	H 	0.6657	0.433	0.8729	-0.013
Mof_C 	C 	0.65507	0.36041	0.808	0.013
Mof_H 	H 	0.6428	0.3778	0.9153	0.032
Mof_C 	C 	0.63792	0.32354	0.8401	-0.028
Mof_C 	C 	0.65502	0.29736	0.6831	-0.025
Mof_H 	H 	0.6766	0.3023	0.5452	0.043
Mof_C 	C 	0.63934	0.26332	0.7349	-0.122
Mof_H 	H 	0.6499	0.2451	0.6308	0.055
Mof_C 	C 	0.60786	0.25684	0.9435	0.027
Mof_H 	H 	0.5981	0.2339	0.9789	-0.01
Mof_C 	C 	0.60593	0.31517	0.0434	0.028
Mof_H 	H 	0.5944	0.3331	0.1476	0.014
Mof_Ag	Ag	0.78991	0.98145	0.68953	0.528
Mof_N 	N 	0.74296	0.94663	0.9326	-0.176
Mof_N 	N 	0.71304	0.959	0.1332	-0.17
Mof_N 	N 	0.70286	0.90253	0.1086	-0.11
Mof_N 	N 	0.68685	0.86744	0.1309	-0.084
Mof_N 	N 	0.59086	0.78245	0.5971	-0.184
Mof_C 	C 	0.73595	0.91259	0.9217	0.087
Mof_H 	H 	0.7514	0.8978	0.8036	-0.002
Mof_C 	C 	0.68876	0.93211	0.2358	0.088
Mof_H 	H 	0.6657	0.933	0.3729	-0.012
Mof_C 	C 	0.65507	0.86041	0.308	0.01
Mof_H 	H 	0.6428	0.8778	0.4153	0.034
Mof_C 	C 	0.63792	0.82354	0.3401	-0.016
Mof_C 	C 	0.65502	0.79736	0.1831	-0.028
Mof_H 	H 	0.6766	0.8023	0.0452	0.046
Mof_C 	C 	0.63934	0.76332	0.2349	-0.12
Mof_H 	H 	0.6499	0.7451	0.1308	0.057
Mof_C 	C 	0.60786	0.75684	0.4435	0.034
Mof_H 	H 	0.5981	0.7339	0.4789	-0.009
Mof_C 	C 	0.60593	0.81517	0.5434	0.014
Mof_H 	H 	0.5944	0.8331	0.6476	0.016
_end
