data_functionalizedCrystal
_audit_creation_method	'EQeq! by Chris Wilmer'
_symmetry_space_group_name_H-M	'P1'
_symmetry_Int_Tables_number	1
_symmetry_cell_setting	triclinic
loop_
_symmetry_equiv_pos_as_xyz
  x,y,z
_cell_length_a	9.4327
_cell_length_b	10.1954
_cell_length_c	11.2452
_cell_angle_alpha	63.983
_cell_angle_beta	73.212
_cell_angle_gamma	83.22
loop_
_atom_site_label
_atom_site_type_symbol
_atom_site_fract_x
_atom_site_fract_y
_atom_site_fract_z
_atom_site_charge
Mof_Cd	Cd	0.0142	0.3412	0.1868	0.476
Mof_O 	O 	0.0163	0.9952	0.2913	-0.227
Mof_O 	O 	0.1291	0.1884	0.1033	-0.256
Mof_O 	O 	0.9971	0.5577	0.2043	-0.176
Mof_O 	O 	0.7847	0.2608	0.3053	-0.235
Mof_O 	O 	0.7807	0.1085	0.5224	-0.252
Mof_O 	O 	0.4884	0.2427	0.3644	-0.158
Mof_O 	O 	0.0761	0.8319	0.1463	-0.176
Mof_O 	O 	0.1069	0.2317	0.3839	-0.269
Mof_C 	C 	0.0895	0.0567	0.1702	0.221
Mof_C 	C 	0.0778	0.6302	0.0851	0.225
Mof_O 	O 	0.1223	0.5818	0.996	-0.228
Mof_C 	C 	0.1245	0.7781	0.0484	0.05
Mof_C 	C 	0.2425	0.2754	0.3317	0.271
Mof_C 	C 	0.3403	0.2192	0.4247	0.062
Mof_O 	O 	0.2907	0.3624	0.211	-0.202
Mof_C 	C 	0.7217	0.1827	0.429	0.29
Mof_C 	C 	0.5569	0.1807	0.4665	0.055
Mof_C 	C 	0.3141	0.144	0.563	-0.056
Mof_H 	H 	0.2225	0.1153	0.6267	0.078
Mof_C 	C 	0.4549	0.1181	0.5906	-0.041
Mof_H 	H 	0.474	0.0685	0.6761	0.068
Mof_C 	C 	0.1336	0.9696	0.0882	0.12
Mof_C 	C 	0.2109	0.8786	0.9321	0.007
Mof_H 	H 	0.2592	0.8678	0.8522	0.064
Mof_C 	C 	0.2132	0.0038	0.956	-0.121
Mof_H 	H 	0.2601	0.0924	0.8933	0.101
Mof_Cd	Cd	0.9858	0.6588	0.8132	0.533
Mof_O 	O 	0.9837	0.0048	0.7087	-0.251
Mof_O 	O 	0.8709	0.8116	0.8967	-0.264
Mof_O 	O 	0.0029	0.4423	0.7957	-0.248
Mof_O 	O 	0.2153	0.7392	0.6947	-0.253
Mof_O 	O 	0.2193	0.8915	0.4776	-0.256
Mof_O 	O 	0.5116	0.7573	0.6356	-0.157
Mof_O 	O 	0.9239	0.1681	0.8537	-0.143
Mof_O 	O 	0.8931	0.7683	0.6161	-0.247
Mof_C 	C 	0.9105	0.9433	0.8298	0.317
Mof_C 	C 	0.9222	0.3698	0.9149	0.293
Mof_O 	O 	0.8777	0.4182	0.004	-0.235
Mof_C 	C 	0.8755	0.2219	0.9516	0.072
Mof_C 	C 	0.7575	0.7246	0.6683	0.268
Mof_C 	C 	0.6597	0.7808	0.5753	0.073
Mof_O 	O 	0.7093	0.6376	0.789	-0.196
Mof_C 	C 	0.2783	0.8173	0.571	0.296
Mof_C 	C 	0.4431	0.8193	0.5335	0.057
Mof_C 	C 	0.6859	0.856	0.437	-0.058
Mof_H 	H 	0.7775	0.8847	0.3733	0.094
Mof_C 	C 	0.5451	0.8819	0.4094	-0.032
Mof_H 	H 	0.526	0.9315	0.3239	0.073
Mof_C 	C 	0.8664	0.0304	0.9118	0.023
Mof_C 	C 	0.7891	0.1214	0.0679	-0.08
Mof_H 	H 	0.7408	0.1322	0.1478	0.09
Mof_C 	C 	0.7868	0.9962	0.044	0.016
Mof_H 	H 	0.7399	0.9076	0.1067	0.062
Mof_Cd	Cd	2.2911e-17	-3.0548e-17	0.5	0.462
_end
