data_functionalizedCrystal
_audit_creation_method	'EQeq! by Chris Wilmer'
_symmetry_space_group_name_H-M	'P1'
_symmetry_Int_Tables_number	1
_symmetry_cell_setting	triclinic
loop_
_symmetry_equiv_pos_as_xyz
  x,y,z
_cell_length_a	7.1635
_cell_length_b	18.607
_cell_length_c	18.607
_cell_angle_alpha	90
_cell_angle_beta	90
_cell_angle_gamma	90
loop_
_atom_site_label
_atom_site_type_symbol
_atom_site_fract_x
_atom_site_fract_y
_atom_site_fract_z
_atom_site_charge
Mof_Co	Co	0.75	0.25	0.75	1.082
Mof_Co	Co	0.25	0.75	0.25	1.084
Mof_Co	Co	0.75	0.75	0.25	1.082
Mof_Co	Co	0.25	0.25	0.75	1.084
Mof_H 	H 	0.9163	0.3918	0.6784	0.132
Mof_H 	H 	0.8164	0.4627	0.6484	0.17
Mof_H 	H 	0.7929	0.4405	0.731	0.159
Mof_H 	H 	0.2293	0.4764	0.5623	0.043
Mof_H 	H 	0.9163	0.1082	0.8216	0.132
Mof_H 	H 	0.8164	0.0373	0.8516	0.17
Mof_H 	H 	0.7929	0.0595	0.769	0.159
Mof_H 	H 	0.2293	0.0236	0.9377	0.043
Mof_H 	H 	0.4163	0.8216	0.3918	0.138
Mof_H 	H 	0.3164	0.8516	0.4627	0.175
Mof_H 	H 	0.2929	0.769	0.4405	0.165
Mof_H 	H 	0.7293	0.9377	0.4764	0.042
Mof_H 	H 	0.4163	0.6784	0.1082	0.138
Mof_H 	H 	0.3164	0.6484	0.0373	0.175
Mof_H 	H 	0.2929	0.731	0.0595	0.165
Mof_H 	H 	0.7293	0.5623	0.0236	0.042
Mof_H 	H 	0.5837	0.6082	0.1784	0.135
Mof_H 	H 	0.6836	0.5373	0.1484	0.169
Mof_H 	H 	0.7071	0.5595	0.231	0.159
Mof_H 	H 	0.2707	0.5236	0.0623	0.04
Mof_H 	H 	0.5837	0.8918	0.3216	0.135
Mof_H 	H 	0.6836	0.9627	0.3516	0.169
Mof_H 	H 	0.7071	0.9405	0.269	0.159
Mof_H 	H 	0.2707	0.9764	0.4377	0.04
Mof_H 	H 	0.0837	0.1784	0.8918	0.146
Mof_H 	H 	0.1836	0.1484	0.9627	0.179
Mof_H 	H 	0.2071	0.231	0.9405	0.168
Mof_H 	H 	0.7707	0.0623	0.9764	0.038
Mof_H 	H 	0.0837	0.3216	0.6082	0.146
Mof_H 	H 	0.1836	0.3516	0.5373	0.179
Mof_H 	H 	0.2071	0.269	0.5595	0.168
Mof_H 	H 	0.7707	0.4377	0.5236	0.038
Mof_H 	H 	0.0837	0.6082	0.3216	0.146
Mof_H 	H 	0.1836	0.5373	0.3516	0.179
Mof_H 	H 	0.2071	0.5595	0.269	0.168
Mof_H 	H 	0.7707	0.5236	0.4377	0.038
Mof_H 	H 	0.0837	0.8918	0.1784	0.146
Mof_H 	H 	0.1836	0.9627	0.1484	0.179
Mof_H 	H 	0.2071	0.9405	0.231	0.168
Mof_H 	H 	0.7707	0.9764	0.0623	0.038
Mof_H 	H 	0.5837	0.1784	0.6082	0.135
Mof_H 	H 	0.6836	0.1484	0.5373	0.169
Mof_H 	H 	0.7071	0.231	0.5595	0.159
Mof_H 	H 	0.2707	0.0623	0.5236	0.04
Mof_H 	H 	0.5837	0.3216	0.8918	0.135
Mof_H 	H 	0.6836	0.3516	0.9627	0.169
Mof_H 	H 	0.7071	0.269	0.9405	0.159
Mof_H 	H 	0.2707	0.4377	0.9764	0.04
Mof_H 	H 	0.4163	0.3918	0.8216	0.138
Mof_H 	H 	0.3164	0.4627	0.8516	0.175
Mof_H 	H 	0.2929	0.4405	0.769	0.165
Mof_H 	H 	0.7293	0.4764	0.9377	0.042
Mof_H 	H 	0.4163	0.1082	0.6784	0.138
Mof_H 	H 	0.3164	0.0373	0.6484	0.175
Mof_H 	H 	0.2929	0.0595	0.731	0.165
Mof_H 	H 	0.7293	0.0236	0.5623	0.042
Mof_H 	H 	0.9163	0.8216	0.1082	0.132
Mof_H 	H 	0.8164	0.8516	0.0373	0.17
Mof_H 	H 	0.7929	0.769	0.0595	0.159
Mof_H 	H 	0.2293	0.9377	0.0236	0.043
Mof_H 	H 	0.9163	0.6784	0.3918	0.132
Mof_H 	H 	0.8164	0.6484	0.4627	0.17
Mof_H 	H 	0.7929	0.731	0.4405	0.159
Mof_H 	H 	0.2293	0.5623	0.4764	0.043
Mof_C 	C 	0.8049	0.4222	0.6818	-0.54
Mof_C 	C 	0.6316	0.3779	0.6626	0.193
Mof_C 	C 	0.3416	0.4858	0.5368	-0.082
Mof_C 	C 	0.8049	0.0778	0.8182	-0.54
Mof_C 	C 	0.6316	0.1221	0.8374	0.193
Mof_C 	C 	0.3416	0.0142	0.9632	-0.082
Mof_C 	C 	0.3049	0.8182	0.4222	-0.547
Mof_C 	C 	0.1316	0.8374	0.3779	0.194
Mof_C 	C 	0.8416	0.9632	0.4858	-0.093
Mof_C 	C 	0.3049	0.6818	0.0778	-0.547
Mof_C 	C 	0.1316	0.6626	0.1221	0.194
Mof_C 	C 	0.8416	0.5368	0.0142	-0.093
Mof_C 	C 	0.6951	0.5778	0.1818	-0.536
Mof_C 	C 	0.8684	0.6221	0.1626	0.179
Mof_C 	C 	0.1584	0.5142	0.0368	-0.082
Mof_C 	C 	0.6951	0.9222	0.3182	-0.536
Mof_C 	C 	0.8684	0.8779	0.3374	0.179
Mof_C 	C 	0.1584	0.9858	0.4632	-0.082
Mof_C 	C 	0.1951	0.1818	0.9222	-0.557
Mof_C 	C 	0.3684	0.1626	0.8779	0.199
Mof_C 	C 	0.6584	0.0368	0.9858	-0.082
Mof_C 	C 	0.1951	0.3182	0.5778	-0.557
Mof_C 	C 	0.3684	0.3374	0.6221	0.199
Mof_C 	C 	0.6584	0.4632	0.5142	-0.082
Mof_C 	C 	0.1951	0.5778	0.3182	-0.557
Mof_C 	C 	0.3684	0.6221	0.3374	0.199
Mof_C 	C 	0.6584	0.5142	0.4632	-0.082
Mof_C 	C 	0.1951	0.9222	0.1818	-0.557
Mof_C 	C 	0.3684	0.8779	0.1626	0.199
Mof_C 	C 	0.6584	0.9858	0.0368	-0.082
Mof_C 	C 	0.6951	0.1818	0.5778	-0.536
Mof_C 	C 	0.8684	0.1626	0.6221	0.179
Mof_C 	C 	0.1584	0.0368	0.5142	-0.082
Mof_C 	C 	0.6951	0.3182	0.9222	-0.536
Mof_C 	C 	0.8684	0.3374	0.8779	0.179
Mof_C 	C 	0.1584	0.4632	0.9858	-0.082
Mof_C 	C 	0.3049	0.4222	0.8182	-0.547
Mof_C 	C 	0.1316	0.3779	0.8374	0.194
Mof_C 	C 	0.8416	0.4858	0.9632	-0.093
Mof_C 	C 	0.3049	0.0778	0.6818	-0.547
Mof_C 	C 	0.1316	0.1221	0.6626	0.194
Mof_C 	C 	0.8416	0.0142	0.5368	-0.093
Mof_C 	C 	0.8049	0.8182	0.0778	-0.54
Mof_C 	C 	0.6316	0.8374	0.1221	0.193
Mof_C 	C 	0.3416	0.9632	0.0142	-0.082
Mof_C 	C 	0.8049	0.6818	0.4222	-0.54
Mof_C 	C 	0.6316	0.6626	0.3779	0.193
Mof_C 	C 	0.3416	0.5368	0.4858	-0.082
Mof_C 	C 	0.5	0.3901	0.6099	-0.198
Mof_C 	C 	0.5	0.4464	0.5536	0.075
Mof_C 	C 	0.5	0.1099	0.8901	-0.198
Mof_C 	C 	0.5	0.0536	0.9464	0.075
Mof_C 	C 	1.39774e-32	0.8901	0.3901	-0.184
Mof_C 	C 	-5.83076e-33	0.9464	0.4464	0.085
Mof_C 	C 	-3.20089e-32	0.6099	0.1099	-0.184
Mof_C 	C 	-7.50271e-34	0.5536	0.0536	0.085
Mof_C 	C 	0.5	0.6099	0.3901	-0.198
Mof_C 	C 	0.5	0.5536	0.4464	0.075
Mof_C 	C 	0.5	0.8901	0.1099	-0.198
Mof_C 	C 	0.5	0.9464	0.0536	0.075
Mof_C 	C 	-3.47731e-32	0.1099	0.6099	-0.184
Mof_C 	C 	-4.78674e-33	0.0536	0.5536	0.085
Mof_C 	C 	8.66865e-33	0.3901	0.8901	-0.184
Mof_C 	C 	-1.11395e-32	0.4464	0.9464	0.085
Mof_N 	N 	0.5838	0.3222	0.7036	-0.292
Mof_N 	N 	0.5838	0.1778	0.7964	-0.292
Mof_N 	N 	0.0838	0.7964	0.3222	-0.286
Mof_N 	N 	0.0838	0.7036	0.1778	-0.286
Mof_N 	N 	0.9162	0.6778	0.2036	-0.295
Mof_N 	N 	0.9162	0.8222	0.2964	-0.295
Mof_N 	N 	0.4162	0.2036	0.8222	-0.292
Mof_N 	N 	0.4162	0.2964	0.6778	-0.292
Mof_N 	N 	0.4162	0.6778	0.2964	-0.292
Mof_N 	N 	0.4162	0.8222	0.2036	-0.292
Mof_N 	N 	0.9162	0.2036	0.6778	-0.295
Mof_N 	N 	0.9162	0.2964	0.8222	-0.295
Mof_N 	N 	0.0838	0.3222	0.7964	-0.286
Mof_N 	N 	0.0838	0.1778	0.7036	-0.286
Mof_N 	N 	0.5838	0.7964	0.1778	-0.292
Mof_N 	N 	0.5838	0.7036	0.3222	-0.292
_end
