data_functionalizedCrystal
_audit_creation_method	'EQeq! by Chris Wilmer'
_symmetry_space_group_name_H-M	'P1'
_symmetry_Int_Tables_number	1
_symmetry_cell_setting	triclinic
loop_
_symmetry_equiv_pos_as_xyz
  x,y,z
_cell_length_a	15.569
_cell_length_b	6.8533
_cell_length_c	14.397
_cell_angle_alpha	90
_cell_angle_beta	90
_cell_angle_gamma	90
loop_
_atom_site_label
_atom_site_type_symbol
_atom_site_fract_x
_atom_site_fract_y
_atom_site_fract_z
_atom_site_charge
Mof_O 	O 	0.1474	0.5893	0.3615	-0.616
Mof_O 	O 	0.2064	0.909	0.7497	-0.682
Mof_O 	O 	0.3526	0.4107	0.8615	-0.617
Mof_O 	O 	0.2936	0.091	0.2497	-0.683
Mof_O 	O 	0.8526	0.0893	0.6385	-0.615
Mof_O 	O 	0.7936	0.409	0.2503	-0.682
Mof_O 	O 	0.6474	0.9107	0.1385	-0.616
Mof_O 	O 	0.7064	0.591	0.7503	-0.682
Mof_O 	O 	0.8526	0.4107	0.6385	-0.615
Mof_O 	O 	0.7936	0.091	0.2503	-0.681
Mof_O 	O 	0.6474	0.5893	0.1385	-0.616
Mof_O 	O 	0.7064	0.909	0.7503	-0.682
Mof_O 	O 	0.1474	0.9107	0.3615	-0.615
Mof_O 	O 	0.2064	0.591	0.7497	-0.682
Mof_O 	O 	0.3526	0.0893	0.8615	-0.616
Mof_O 	O 	0.2936	0.409	0.2497	-0.682
Mof_Sm	Sm	0.80181	0.75	0.62143	1.736
Mof_O 	O 	0.854	0.75	0.4591	-0.656
Mof_O 	O 	0.9555	0.75	0.3499	-0.383
Mof_O 	O 	0.0283	0.75	0.8265	-0.406
Mof_O 	O 	0.9012	0.75	0.7591	-0.515
Mof_N 	N 	0.9681	0.75	0.5934	-0.181
Mof_N 	N 	0.1422	0.75	0.5617	-0.159
Mof_C 	C 	0.9988	0.75	0.5066	-0.03
Mof_C 	C 	0.0874	0.75	0.491	-0.078
Mof_C 	C 	0.1109	0.75	0.6474	-0.097
Mof_C 	C 	0.0223	0.75	0.6635	-0.019
Mof_C 	C 	0.9307	0.75	0.431	0.389
Mof_C 	C 	0.1292	0.75	0.396	0.446
Mof_C 	C 	0.1789	0.75	0.7225	0.457
Mof_C 	C 	0.9817	0.75	0.7582	0.351
Mof_Sm	Sm	0.69819	0.25	0.12143	1.738
Mof_O 	O 	0.646	0.25	0.9591	-0.656
Mof_O 	O 	0.5445	0.25	0.8499	-0.382
Mof_O 	O 	0.4717	0.25	0.3265	-0.408
Mof_O 	O 	0.5988	0.25	0.2591	-0.516
Mof_N 	N 	0.5319	0.25	0.0934	-0.18
Mof_N 	N 	0.3578	0.25	0.0617	-0.159
Mof_C 	C 	0.5012	0.25	0.0066	-0.027
Mof_C 	C 	0.4126	0.25	0.991	-0.08
Mof_C 	C 	0.3891	0.25	0.1474	-0.097
Mof_C 	C 	0.4777	0.25	0.1635	-0.021
Mof_C 	C 	0.5693	0.25	0.931	0.388
Mof_C 	C 	0.3708	0.25	0.896	0.447
Mof_C 	C 	0.3211	0.25	0.2225	0.456
Mof_C 	C 	0.5183	0.25	0.2582	0.355
Mof_Sm	Sm	0.19819	0.25	0.37857	1.736
Mof_O 	O 	0.146	0.25	0.5409	-0.656
Mof_O 	O 	0.0445	0.25	0.6501	-0.383
Mof_O 	O 	0.9717	0.25	0.1735	-0.406
Mof_O 	O 	0.0988	0.25	0.2409	-0.515
Mof_N 	N 	0.0319	0.25	0.4066	-0.181
Mof_N 	N 	0.8578	0.25	0.4383	-0.159
Mof_C 	C 	0.0012	0.25	0.4934	-0.03
Mof_C 	C 	0.9126	0.25	0.509	-0.078
Mof_C 	C 	0.8891	0.25	0.3526	-0.097
Mof_C 	C 	0.9777	0.25	0.3365	-0.019
Mof_C 	C 	0.0693	0.25	0.569	0.389
Mof_C 	C 	0.8708	0.25	0.604	0.446
Mof_C 	C 	0.8211	0.25	0.2775	0.457
Mof_C 	C 	0.0183	0.25	0.2418	0.351
Mof_Sm	Sm	0.30181	0.75	0.87857	1.738
Mof_O 	O 	0.354	0.75	0.0409	-0.656
Mof_O 	O 	0.4555	0.75	0.1501	-0.382
Mof_O 	O 	0.5283	0.75	0.6735	-0.408
Mof_O 	O 	0.4012	0.75	0.7409	-0.516
Mof_N 	N 	0.4681	0.75	0.9066	-0.18
Mof_N 	N 	0.6422	0.75	0.9383	-0.159
Mof_C 	C 	0.4988	0.75	0.9934	-0.027
Mof_C 	C 	0.5874	0.75	0.009	-0.08
Mof_C 	C 	0.6109	0.75	0.8526	-0.097
Mof_C 	C 	0.5223	0.75	0.8365	-0.021
Mof_C 	C 	0.4307	0.75	0.069	0.388
Mof_C 	C 	0.6292	0.75	0.104	0.447
Mof_C 	C 	0.6789	0.75	0.7775	0.456
Mof_C 	C 	0.4817	0.75	0.7418	0.355
Mof_Na	Na	0.2595	0.25	0.6921	1.739
Mof_Na	Na	0.2405	0.75	0.1921	1.739
Mof_Na	Na	0.7405	0.75	0.3079	1.739
Mof_Na	Na	0.7595	0.25	0.8079	1.739
_end
