data_functionalizedCrystal
_audit_creation_method	'EQeq! by Chris Wilmer'
_symmetry_space_group_name_H-M	'P1'
_symmetry_Int_Tables_number	1
_symmetry_cell_setting	triclinic
loop_
_symmetry_equiv_pos_as_xyz
  x,y,z
_cell_length_a	15.414
_cell_length_b	6.718
_cell_length_c	14.322
_cell_angle_alpha	90
_cell_angle_beta	90
_cell_angle_gamma	90
loop_
_atom_site_label
_atom_site_type_symbol
_atom_site_fract_x
_atom_site_fract_y
_atom_site_fract_z
_atom_site_charge
Mof_O 	O 	0.1447	0.5868	0.3585	-0.81
Mof_O 	O 	0.2069	0.9151	0.7522	-0.799
Mof_O 	O 	0.7045	0.978	0.5445	-0.96
Mof_H 	H 	0.6909	0.0336	0.5952	0.268
Mof_H 	H 	0.67	0.8851	0.5335	0.224
Mof_O 	O 	0.3553	0.4132	0.8585	-0.812
Mof_O 	O 	0.2931	0.0849	0.2522	-0.8
Mof_O 	O 	0.7955	0.022	0.0445	-0.951
Mof_H 	H 	0.8091	0.9664	0.0952	0.261
Mof_H 	H 	0.83	0.1149	0.0335	0.222
Mof_O 	O 	0.8553	0.0868	0.6415	-0.811
Mof_O 	O 	0.7931	0.4151	0.2478	-0.801
Mof_O 	O 	0.2955	0.478	0.4555	-0.959
Mof_H 	H 	0.3091	0.5336	0.4048	0.267
Mof_H 	H 	0.33	0.3851	0.4665	0.224
Mof_O 	O 	0.6447	0.9132	0.1415	-0.814
Mof_O 	O 	0.7069	0.5849	0.7478	-0.801
Mof_O 	O 	0.2045	0.522	0.9555	-0.96
Mof_H 	H 	0.1909	0.4664	0.9048	0.267
Mof_H 	H 	0.17	0.6149	0.9665	0.224
Mof_O 	O 	0.8553	0.4132	0.6415	-0.811
Mof_O 	O 	0.7931	0.0849	0.2478	-0.8
Mof_O 	O 	0.2955	0.022	0.4555	-0.96
Mof_H 	H 	0.3091	0.9664	0.4048	0.268
Mof_H 	H 	0.33	0.1149	0.4665	0.224
Mof_O 	O 	0.6447	0.5868	0.1415	-0.812
Mof_O 	O 	0.7069	0.9151	0.7478	-0.8
Mof_O 	O 	0.2045	0.978	0.9555	-0.951
Mof_H 	H 	0.1909	0.0336	0.9048	0.261
Mof_H 	H 	0.17	0.8851	0.9665	0.222
Mof_O 	O 	0.1447	0.9132	0.3585	-0.811
Mof_O 	O 	0.2069	0.5849	0.7522	-0.801
Mof_O 	O 	0.7045	0.522	0.5445	-0.959
Mof_H 	H 	0.6909	0.4664	0.5952	0.267
Mof_H 	H 	0.67	0.6149	0.5335	0.224
Mof_O 	O 	0.3553	0.0868	0.8585	-0.814
Mof_O 	O 	0.2931	0.4151	0.2522	-0.801
Mof_O 	O 	0.7955	0.478	0.0445	-0.96
Mof_H 	H 	0.8091	0.5336	0.0952	0.267
Mof_H 	H 	0.83	0.3851	0.0335	0.224
Mof_Ce	Ce	0.80334	0.75	0.62343	3.157
Mof_O 	O 	0.8497	0.75	0.4622	-0.773
Mof_O 	O 	0.9498	0.75	0.3498	-0.418
Mof_O 	O 	0.0273	0.75	0.8286	-0.385
Mof_O 	O 	0.8972	0.75	0.7598	-0.669
Mof_N 	N 	0.9666	0.75	0.5948	-0.271
Mof_N 	N 	0.1425	0.75	0.562	-0.133
Mof_C 	C 	0.9971	0.75	0.507	-0.031
Mof_C 	C 	0.0852	0.75	0.4903	-0.119
Mof_C 	C 	0.1113	0.75	0.6481	-0.088
Mof_C 	C 	0.0214	0.75	0.6651	-0.032
Mof_C 	C 	0.9273	0.75	0.4307	0.408
Mof_C 	C 	0.1256	0.75	0.392	0.64
Mof_C 	C 	0.178	0.75	0.7225	0.449
Mof_C 	C 	0.9791	0.75	0.7596	0.376
Mof_Ce	Ce	0.69666	0.25	0.12343	3.163
Mof_O 	O 	0.6503	0.25	0.9622	-0.774
Mof_O 	O 	0.5502	0.25	0.8498	-0.417
Mof_O 	O 	0.4727	0.25	0.3286	-0.389
Mof_O 	O 	0.6028	0.25	0.2598	-0.67
Mof_N 	N 	0.5334	0.25	0.0948	-0.27
Mof_N 	N 	0.3575	0.25	0.062	-0.132
Mof_C 	C 	0.5029	0.25	0.007	-0.027
Mof_C 	C 	0.4148	0.25	0.9903	-0.123
Mof_C 	C 	0.3887	0.25	0.1481	-0.087
Mof_C 	C 	0.4786	0.25	0.1651	-0.037
Mof_C 	C 	0.5727	0.25	0.9307	0.406
Mof_C 	C 	0.3744	0.25	0.892	0.641
Mof_C 	C 	0.322	0.25	0.2225	0.448
Mof_C 	C 	0.5209	0.25	0.2596	0.384
Mof_Ce	Ce	0.19666	0.25	0.37657	3.157
Mof_O 	O 	0.1503	0.25	0.5378	-0.773
Mof_O 	O 	0.0502	0.25	0.6502	-0.418
Mof_O 	O 	0.9727	0.25	0.1714	-0.385
Mof_O 	O 	0.1028	0.25	0.2402	-0.669
Mof_N 	N 	0.0334	0.25	0.4052	-0.271
Mof_N 	N 	0.8575	0.25	0.438	-0.133
Mof_C 	C 	0.0029	0.25	0.493	-0.031
Mof_C 	C 	0.9148	0.25	0.5097	-0.119
Mof_C 	C 	0.8887	0.25	0.3519	-0.088
Mof_C 	C 	0.9786	0.25	0.3349	-0.032
Mof_C 	C 	0.0727	0.25	0.5693	0.408
Mof_C 	C 	0.8744	0.25	0.608	0.64
Mof_C 	C 	0.822	0.25	0.2775	0.449
Mof_C 	C 	0.0209	0.25	0.2404	0.376
Mof_Ce	Ce	0.30334	0.75	0.87657	3.163
Mof_O 	O 	0.3497	0.75	0.0378	-0.774
Mof_O 	O 	0.4498	0.75	0.1502	-0.417
Mof_O 	O 	0.5273	0.75	0.6714	-0.389
Mof_O 	O 	0.3972	0.75	0.7402	-0.67
Mof_N 	N 	0.4666	0.75	0.9052	-0.27
Mof_N 	N 	0.6425	0.75	0.938	-0.132
Mof_C 	C 	0.4971	0.75	0.993	-0.027
Mof_C 	C 	0.5852	0.75	0.0097	-0.123
Mof_C 	C 	0.6113	0.75	0.8519	-0.087
Mof_C 	C 	0.5214	0.75	0.8349	-0.037
Mof_C 	C 	0.4273	0.75	0.0693	0.406
Mof_C 	C 	0.6256	0.75	0.108	0.641
Mof_C 	C 	0.678	0.75	0.7775	0.448
Mof_C 	C 	0.4791	0.75	0.7404	0.384
Mof_Na	Na	0.2586	0.25	0.6909	2.048
Mof_Na	Na	0.2414	0.75	0.1909	2.047
Mof_Na	Na	0.7414	0.75	0.3091	2.048
Mof_Na	Na	0.7586	0.25	0.8091	2.047
_end
