data_functionalizedCrystal
_audit_creation_method	'EQeq! by Chris Wilmer'
_symmetry_space_group_name_H-M	'P1'
_symmetry_Int_Tables_number	1
_symmetry_cell_setting	triclinic
loop_
_symmetry_equiv_pos_as_xyz
  x,y,z
_cell_length_a	9.3796
_cell_length_b	17.4571
_cell_length_c	17.4571
_cell_angle_alpha	103.559
_cell_angle_beta	102.825
_cell_angle_gamma	77.1749
loop_
_atom_site_label
_atom_site_type_symbol
_atom_site_fract_x
_atom_site_fract_y
_atom_site_fract_z
_atom_site_charge
Mof_Mn	Mn	0.561	0.68634	0.18047	0.966
Mof_Mn	Mn	0.939	0.18047	0.68634	0.974
Mof_Mn	Mn	0.439	0.31366	0.81953	0.962
Mof_Mn	Mn	0.061	0.81953	0.31366	0.954
Mof_Mn	Mn	0.5	0.5	-0	0.779
Mof_Mn	Mn	-1.06626e-17	0	0.5	0.765
Mof_H 	H 	0.5738	0.6269	0.8383	0.148
Mof_H 	H 	0.5733	0.8407	0.7915	0.189
Mof_H 	H 	0.5825	0.8189	0.0165	0.119
Mof_H 	H 	0.3161	0.9352	0.8494	0.166
Mof_H 	H 	0.199	0.0318	0.7756	-0.056
Mof_H 	H 	0.5601	0.1343	0.8419	-0.067
Mof_H 	H 	0.6794	0.0355	0.9141	0.207
Mof_H 	H 	0.3156	0.7939	0.7181	0.151
Mof_H 	H 	0.1758	0.8449	0.6085	-0.036
Mof_H 	H 	0.4849	0.7283	0.4791	-0.022
Mof_H 	H 	0.6304	0.6808	0.5896	0.168
Mof_H 	H 	0.9262	0.8383	0.6269	0.15
Mof_H 	H 	0.9267	0.7915	0.8407	0.192
Mof_H 	H 	0.9175	0.0165	0.8189	0.124
Mof_H 	H 	0.1839	0.8494	0.9352	0.18
Mof_H 	H 	0.301	0.7756	0.0318	-0.065
Mof_H 	H 	0.9399	0.8419	0.1343	-0.079
Mof_H 	H 	0.8206	0.9141	0.0355	0.218
Mof_H 	H 	0.1844	0.7181	0.7939	0.133
Mof_H 	H 	0.3242	0.6085	0.8449	-0.019
Mof_H 	H 	0.0151	0.4791	0.7283	-0.005
Mof_H 	H 	0.8696	0.5896	0.6808	0.142
Mof_H 	H 	0.4262	0.3731	0.1617	0.164
Mof_H 	H 	0.4267	0.1593	0.2085	0.203
Mof_H 	H 	0.4175	0.1811	0.9835	0.19
Mof_H 	H 	0.6839	0.0648	0.1506	0.182
Mof_H 	H 	0.801	0.9682	0.2244	-0.062
Mof_H 	H 	0.4399	0.8657	0.1581	-0.062
Mof_H 	H 	0.3206	0.9645	0.0859	0.194
Mof_H 	H 	0.6844	0.2061	0.2819	0.152
Mof_H 	H 	0.8242	0.1551	0.3915	-0.032
Mof_H 	H 	0.5151	0.2717	0.5209	-0.024
Mof_H 	H 	0.3696	0.3192	0.4104	0.167
Mof_H 	H 	0.0738	0.1617	0.3731	0.163
Mof_H 	H 	0.0733	0.2085	0.1593	0.2
Mof_H 	H 	0.0825	0.9835	0.1811	0.187
Mof_H 	H 	0.8161	0.1506	0.0648	0.165
Mof_H 	H 	0.699	0.2244	0.9682	-0.051
Mof_H 	H 	0.0601	0.1581	0.8657	-0.049
Mof_H 	H 	0.1794	0.0859	0.9645	0.18
Mof_H 	H 	0.8156	0.2819	0.2061	0.172
Mof_H 	H 	0.6758	0.3915	0.1551	-0.052
Mof_H 	H 	0.9849	0.5209	0.2717	-0.044
Mof_H 	H 	0.1304	0.4104	0.3192	0.195
Mof_C 	C 	0.5797	0.66451	0.99585	0.362
Mof_C 	C 	0.5801	0.71528	0.9364	0.076
Mof_C 	C 	0.5747	0.68134	0.85614	-0.266
Mof_C 	C 	0.5706	0.72939	0.80287	0.348
Mof_C 	C 	0.573	0.8093	0.82766	-0.408
Mof_C 	C 	0.5749	0.8425	0.90786	0.333
Mof_C 	C 	0.5797	0.79599	0.96259	-0.223
Mof_C 	C 	0.5074	0.97693	0.88869	0.418
Mof_C 	C 	0.365	0.97544	0.84762	-0.373
Mof_C 	C 	0.2952	0.03311	0.80399	0.248
Mof_C 	C 	0.3676	0.09346	0.80206	-0.327
Mof_C 	C 	0.5109	0.09401	0.84333	0.289
Mof_C 	C 	0.5823	0.03535	0.88669	-0.425
Mof_C 	C 	0.2876	0.1577	0.75666	0.516
Mof_C 	C 	0.4839	0.73087	0.66327	0.351
Mof_C 	C 	0.3498	0.78045	0.66981	-0.341
Mof_C 	C 	0.2658	0.8103	0.60388	0.208
Mof_C 	C 	0.3138	0.78949	0.53167	-0.241
Mof_C 	C 	0.4501	0.74156	0.52732	0.206
Mof_C 	C 	0.5372	0.71239	0.59317	-0.329
Mof_C 	C 	0.2189	0.81453	0.45759	0.373
Mof_C 	C 	0.9203	0.99585	0.66451	0.36
Mof_C 	C 	0.9199	0.9364	0.71528	0.08
Mof_C 	C 	0.9253	0.85614	0.68134	-0.265
Mof_C 	C 	0.9294	0.80287	0.72939	0.346
Mof_C 	C 	0.927	0.82766	0.8093	-0.407
Mof_C 	C 	0.9251	0.90786	0.8425	0.338
Mof_C 	C 	0.9203	0.96259	0.79599	-0.228
Mof_C 	C 	0.9926	0.88869	0.97693	0.453
Mof_C 	C 	0.135	0.84762	0.97544	-0.416
Mof_C 	C 	0.2048	0.80399	0.03311	0.281
Mof_C 	C 	0.1324	0.80206	0.09346	-0.362
Mof_C 	C 	0.9891	0.84333	0.09401	0.334
Mof_C 	C 	0.9177	0.88669	0.03535	-0.458
Mof_C 	C 	0.2124	0.75666	0.1577	0.526
Mof_C 	C 	0.0161	0.66327	0.73087	0.288
Mof_C 	C 	0.1502	0.66981	0.78045	-0.292
Mof_C 	C 	0.2342	0.60388	0.8103	0.165
Mof_C 	C 	0.1862	0.53167	0.78949	-0.203
Mof_C 	C 	0.0499	0.52732	0.74156	0.142
Mof_C 	C 	0.9628	0.59317	0.71239	-0.25
Mof_C 	C 	0.2811	0.45759	0.81453	0.359
Mof_C 	C 	0.4203	0.33549	0.00415	0.284
Mof_C 	C 	0.4199	0.28472	0.0636	0.143
Mof_C 	C 	0.4253	0.31866	0.14386	-0.318
Mof_C 	C 	0.4294	0.27061	0.19713	0.382
Mof_C 	C 	0.427	0.1907	0.17234	-0.455
Mof_C 	C 	0.4251	0.1575	0.09214	0.391
Mof_C 	C 	0.4203	0.20401	0.03741	-0.359
Mof_C 	C 	0.4926	0.02307	0.11131	0.389
Mof_C 	C 	0.635	0.02456	0.15238	-0.44
Mof_C 	C 	0.7048	0.96689	0.19601	0.317
Mof_C 	C 	0.6324	0.90654	0.19794	-0.335
Mof_C 	C 	0.4891	0.90599	0.15667	0.282
Mof_C 	C 	0.4177	0.96465	0.11331	-0.377
Mof_C 	C 	0.7124	0.8423	0.24334	0.519
Mof_C 	C 	0.5161	0.26913	0.33673	0.354
Mof_C 	C 	0.6502	0.21955	0.33019	-0.343
Mof_C 	C 	0.7342	0.1897	0.39612	0.207
Mof_C 	C 	0.6862	0.21051	0.46833	-0.241
Mof_C 	C 	0.5499	0.25844	0.47268	0.206
Mof_C 	C 	0.4628	0.28761	0.40683	-0.331
Mof_C 	C 	0.7811	0.18547	0.54241	0.372
Mof_C 	C 	0.0797	0.00415	0.33549	0.284
Mof_C 	C 	0.0801	0.0636	0.28472	0.141
Mof_C 	C 	0.0747	0.14386	0.31866	-0.32
Mof_C 	C 	0.0706	0.19713	0.27061	0.385
Mof_C 	C 	0.073	0.17234	0.1907	-0.458
Mof_C 	C 	0.0749	0.09214	0.1575	0.386
Mof_C 	C 	0.0797	0.03741	0.20401	-0.357
Mof_C 	C 	0.0074	0.11131	0.02307	0.345
Mof_C 	C 	0.865	0.15238	0.02456	-0.387
Mof_C 	C 	0.7952	0.19601	0.96689	0.276
Mof_C 	C 	0.8676	0.19794	0.90654	-0.296
Mof_C 	C 	0.0109	0.15667	0.90599	0.232
Mof_C 	C 	0.0823	0.11331	0.96465	-0.337
Mof_C 	C 	0.7876	0.24334	0.8423	0.507
Mof_C 	C 	0.9839	0.33673	0.26913	0.423
Mof_C 	C 	0.8498	0.33019	0.21955	-0.397
Mof_C 	C 	0.7658	0.39612	0.1897	0.256
Mof_C 	C 	0.8138	0.46833	0.21051	-0.284
Mof_C 	C 	0.9501	0.47268	0.25844	0.276
Mof_C 	C 	0.0372	0.40683	0.28761	-0.418
Mof_C 	C 	0.7189	0.54241	0.18547	0.389
Mof_O 	O 	0.5689	0.59354	0.9683	-0.378
Mof_O 	O 	0.5913	0.69869	0.06763	-0.395
Mof_O 	O 	0.5794	0.92248	0.93764	-0.331
Mof_O 	O 	0.1617	0.14998	0.71756	-0.461
Mof_O 	O 	0.3499	0.21346	0.75752	-0.437
Mof_O 	O 	0.5707	0.69258	0.72346	-0.332
Mof_O 	O 	0.0944	0.86067	0.45981	-0.394
Mof_O 	O 	0.2637	0.78483	0.39233	-0.372
Mof_O 	O 	0.9311	0.9683	0.59354	-0.371
Mof_O 	O 	0.9087	0.06763	0.69869	-0.393
Mof_O 	O 	0.9206	0.93764	0.92248	-0.337
Mof_O 	O 	0.3383	0.71756	0.14998	-0.458
Mof_O 	O 	0.1501	0.75752	0.21346	-0.441
Mof_O 	O 	0.9293	0.72346	0.69258	-0.312
Mof_O 	O 	0.4056	0.45981	0.86067	-0.389
Mof_O 	O 	0.2363	0.39233	0.78483	-0.371
Mof_O 	O 	0.4311	0.40646	0.0317	-0.374
Mof_O 	O 	0.4087	0.30131	0.93237	-0.352
Mof_O 	O 	0.4206	0.07752	0.06236	-0.364
Mof_O 	O 	0.8383	0.85002	0.28244	-0.444
Mof_O 	O 	0.6501	0.78654	0.24248	-0.433
Mof_O 	O 	0.4293	0.30742	0.27654	-0.342
Mof_O 	O 	0.9056	0.13933	0.54019	-0.395
Mof_O 	O 	0.7363	0.21517	0.60767	-0.374
Mof_O 	O 	0.0689	0.0317	0.40646	-0.375
Mof_O 	O 	0.0913	0.93237	0.30131	-0.352
Mof_O 	O 	0.0794	0.06236	0.07752	-0.356
Mof_O 	O 	0.6617	0.28244	0.85002	-0.448
Mof_O 	O 	0.8499	0.24248	0.78654	-0.429
Mof_O 	O 	0.0707	0.27654	0.30742	-0.364
Mof_O 	O 	0.5944	0.54019	0.13933	-0.405
Mof_O 	O 	0.7637	0.60767	0.21517	-0.376
_end
