data_functionalizedCrystal
_audit_creation_method	'EQeq! by Chris Wilmer'
_symmetry_space_group_name_H-M	'P1'
_symmetry_Int_Tables_number	1
_symmetry_cell_setting	triclinic
loop_
_symmetry_equiv_pos_as_xyz
  x,y,z
_cell_length_a	6.7904
_cell_length_b	15.1181
_cell_length_c	15.1181
_cell_angle_alpha	62.2007
_cell_angle_beta	81.3893
_cell_angle_gamma	98.6107
loop_
_atom_site_label
_atom_site_type_symbol
_atom_site_fract_x
_atom_site_fract_y
_atom_site_fract_z
_atom_site_charge
Mof_Co	Co	0.11537	0.71983	0.70272	1.139
Mof_Co	Co	0.11537	0.29728	0.28017	1.141
Mof_Co	Co	0.39554	0.57745	0.71983	1.156
Mof_Co	Co	0.39554	0.28017	0.42255	1.156
Mof_Co	Co	0.81809	0.42255	0.29728	1.169
Mof_Co	Co	0.81809	0.70272	0.57745	1.169
Mof_H 	H 	0.729	0.4635	0.5365	0.102
Mof_H 	H 	0.523	4.32619e-17	0.561	0
Mof_H 	H 	0.523	0.439	-0	0.001
Mof_H 	H 	0.084	0.561	0.439	-0.012
Mof_H 	H 	0.2655	-4.32619e-17	0.4635	0.093
Mof_H 	H 	0.2655	0.5365	-0	0.091
Mof_C 	C 	0.8303	0.5054	0.9065	-0.275
Mof_C 	C 	0.7368	0.4119	0.0935	-0.336
Mof_C 	C 	0.8303	0.0935	0.4946	-0.282
Mof_C 	C 	0.6863	0.4399	-0	0.187
Mof_C 	C 	0.7453	0.5398	0.8149	0.418
Mof_C 	C 	0.0956	-4.32619e-17	0.4962	-0.314
Mof_C 	C 	0.6863	4.32619e-17	0.5601	0.202
Mof_C 	C 	0.5602	0.8149	0.6453	0.438
Mof_C 	C 	0.2055	0.6453	0.5398	0.434
Mof_C 	C 	0.2055	0.4602	0.3547	0.434
Mof_C 	C 	0.5053	0.4656	0.4387	0.333
Mof_C 	C 	0.944	0.4387	0.0957	0.373
Mof_C 	C 	0.0956	0.5038	-0	-0.319
Mof_C 	C 	0.7368	0.9065	0.5881	-0.346
Mof_C 	C 	0.7453	0.1851	0.4602	0.42
Mof_C 	C 	0.944	0.9043	0.5613	0.37
Mof_C 	C 	0.2464	0.5601	0.4399	0.204
Mof_C 	C 	0.0397	0.5344	0.9043	0.28
Mof_C 	C 	0.5602	0.3547	0.1851	0.436
Mof_C 	C 	0.0397	0.0957	0.4656	0.282
Mof_C 	C 	0.5053	0.5613	0.5344	0.333
Mof_C 	C 	0.3249	0.4946	0.4119	-0.343
Mof_C 	C 	0.5918	0.4962	0.5038	-0.279
Mof_C 	C 	0.3249	0.5881	0.5054	-0.343
Mof_O 	O 	0.8634	0.613	0.7288	-0.555
Mof_O 	O 	0.9971	0.8178	0.5855	-0.535
Mof_O 	O 	0.2504	0.387	0.3418	-0.591
Mof_O 	O 	0.5826	0.5855	0.5967	-0.548
Mof_O 	O 	0.0507	0.6713	0.5022	-0.481
Mof_O 	O 	0.5826	0.4033	0.4145	-0.548
Mof_O 	O 	0.2504	0.6582	0.613	-0.592
Mof_O 	O 	0.0507	0.4978	0.3287	-0.48
Mof_O 	O 	0.3794	0.8265	0.6713	-0.465
Mof_O 	O 	0.5529	0.5022	0.8265	-0.451
Mof_O 	O 	0.1793	0.5967	0.8178	-0.55
Mof_O 	O 	0.5922	0.7288	0.6582	-0.582
Mof_O 	O 	0.5529	0.1735	0.4978	-0.451
Mof_O 	O 	0.8634	0.2712	0.387	-0.555
Mof_O 	O 	0.3794	0.3287	0.1735	-0.462
Mof_O 	O 	0.9971	0.4145	0.1822	-0.535
Mof_O 	O 	0.1793	0.1822	0.4033	-0.55
Mof_O 	O 	0.5922	0.3418	0.2712	-0.581
_end
