data_functionalizedCrystal
_audit_creation_method	'EQeq! by Chris Wilmer'
_symmetry_space_group_name_H-M	'P1'
_symmetry_Int_Tables_number	1
_symmetry_cell_setting	triclinic
loop_
_symmetry_equiv_pos_as_xyz
  x,y,z
_cell_length_a	10.762
_cell_length_b	16.137
_cell_length_c	20.368
_cell_angle_alpha	111.65
_cell_angle_beta	90
_cell_angle_gamma	90
loop_
_atom_site_label
_atom_site_type_symbol
_atom_site_fract_x
_atom_site_fract_y
_atom_site_fract_z
_atom_site_charge
Mof_Ti	Ti	0.3598	0.4618	0.7883	1.744
Mof_Ti	Ti	0.5785	0.5404	0.7138	1.719
Mof_Ti	Ti	0.8598	0.0382	0.7117	1.715
Mof_Ti	Ti	0.0785	0.9596	0.7862	1.693
Mof_Ti	Ti	0.6402	0.5382	0.2117	1.744
Mof_Ti	Ti	0.4215	0.4596	0.2862	1.719
Mof_Ti	Ti	0.1402	0.9618	0.2883	1.716
Mof_Ti	Ti	0.9215	0.0404	0.2138	1.694
Mof_H 	H 	0.5873	0.3073	0.6315	0.081
Mof_H 	H 	0.7139	0.1838	0.6169	0.085
Mof_H 	H 	0.2772	0.2242	0.6755	0.082
Mof_H 	H 	0.6525	0.3988	0.8385	0.075
Mof_H 	H 	0.162	0.7283	0.6824	0.073
Mof_H 	H 	0.2925	0.6075	0.6674	0.072
Mof_H 	H 	0.3584	0.704	0.8754	0.076
Mof_H 	H 	0.2214	0.8193	0.8902	0.085
Mof_H 	H 	0.0734	0.6363	0.8077	0.088
Mof_H 	H 	0.8796	0.6371	0.7564	0.08
Mof_H 	H 	0.8719	0.3697	0.6897	0.1
Mof_H 	H 	0.0659	0.3682	0.7377	0.061
Mof_H 	H 	0.4455	0.3729	0.904	0.082
Mof_H 	H 	0.49	0.6387	0.9907	0.084
Mof_H 	H 	0.3164	0.4817	0.5521	0.079
Mof_H 	H 	0.6885	0.5114	0.5601	0.072
Mof_H 	H 	0.0873	0.1927	0.8685	0.082
Mof_H 	H 	0.2139	0.3162	0.8831	0.087
Mof_H 	H 	0.7772	0.2758	0.8245	0.079
Mof_H 	H 	0.1525	0.1012	0.6615	0.075
Mof_H 	H 	0.662	0.7717	0.8176	0.075
Mof_H 	H 	0.7925	0.8925	0.8326	0.072
Mof_H 	H 	0.8584	0.796	0.6246	0.076
Mof_H 	H 	0.7214	0.6807	0.6098	0.087
Mof_H 	H 	0.5734	0.8637	0.6923	0.089
Mof_H 	H 	0.3796	0.8629	0.7436	0.078
Mof_H 	H 	0.3719	0.1303	0.8103	0.097
Mof_H 	H 	0.5659	0.1318	0.7623	0.063
Mof_H 	H 	0.9455	0.1271	0.596	0.089
Mof_H 	H 	0.99	0.8613	0.5093	0.08
Mof_H 	H 	0.8164	0.0183	0.9479	0.082
Mof_H 	H 	0.1885	0.9886	0.9399	0.075
Mof_H 	H 	0.4127	0.6927	0.3685	0.081
Mof_H 	H 	0.2861	0.8162	0.3831	0.085
Mof_H 	H 	0.7228	0.7758	0.3245	0.082
Mof_H 	H 	0.3475	0.6012	0.1615	0.075
Mof_H 	H 	0.838	0.2717	0.3176	0.073
Mof_H 	H 	0.7075	0.3925	0.3326	0.072
Mof_H 	H 	0.6416	0.296	0.1246	0.076
Mof_H 	H 	0.7786	0.1807	0.1098	0.085
Mof_H 	H 	0.9266	0.3637	0.1923	0.088
Mof_H 	H 	0.1204	0.3629	0.2436	0.08
Mof_H 	H 	0.1281	0.6303	0.3103	0.1
Mof_H 	H 	0.9341	0.6318	0.2623	0.061
Mof_H 	H 	0.5545	0.6271	0.096	0.082
Mof_H 	H 	0.51	0.3613	0.0093	0.084
Mof_H 	H 	0.6836	0.5183	0.4479	0.079
Mof_H 	H 	0.3115	0.4886	0.4399	0.072
Mof_H 	H 	0.9127	0.8073	0.1315	0.082
Mof_H 	H 	0.7861	0.6838	0.1169	0.087
Mof_H 	H 	0.2228	0.7242	0.1755	0.079
Mof_H 	H 	0.8475	0.8988	0.3385	0.075
Mof_H 	H 	0.338	0.2283	0.1824	0.075
Mof_H 	H 	0.2075	0.1075	0.1674	0.072
Mof_H 	H 	0.1416	0.204	0.3754	0.076
Mof_H 	H 	0.2786	0.3193	0.3902	0.087
Mof_H 	H 	0.4266	0.1363	0.3077	0.089
Mof_H 	H 	0.6204	0.1371	0.2564	0.078
Mof_H 	H 	0.6281	0.8697	0.1897	0.097
Mof_H 	H 	0.4341	0.8682	0.2377	0.063
Mof_H 	H 	0.0545	0.8729	0.404	0.089
Mof_H 	H 	0.01	0.1387	0.4907	0.08
Mof_H 	H 	0.1836	0.9817	0.0521	0.082
Mof_H 	H 	0.8115	0.0114	0.0601	0.075
Mof_C 	C 	0.6022	0.3626	0.7365	0.275
Mof_C 	C 	0.6241	0.3008	0.6706	-0.15
Mof_C 	C 	0.702	0.2272	0.6615	-0.15
Mof_C 	C 	0.2608	0.2799	0.7804	0.287
Mof_C 	C 	0.2401	0.218	0.7146	-0.162
Mof_C 	C 	0.663	0.355	0.7939	-0.138
Mof_C 	C 	0.1775	0.7849	0.7873	0.268
Mof_C 	C 	0.1998	0.7225	0.7215	-0.152
Mof_C 	C 	0.2789	0.6501	0.7122	-0.135
Mof_C 	C 	0.3362	0.6428	0.7703	0.258
Mof_C 	C 	0.3168	0.7075	0.8365	-0.132
Mof_C 	C 	0.2362	0.7773	0.8452	-0.147
Mof_C 	C 	0.0886	0.5039	0.7787	0.236
Mof_C 	C 	0.0327	0.5827	0.784	-0.126
Mof_C 	C 	0.9156	0.5838	0.7542	-0.154
Mof_C 	C 	0.8536	0.5015	0.7209	0.286
Mof_C 	C 	0.9119	0.4235	0.7141	-0.175
Mof_C 	C 	0.0282	0.422	0.7424	-0.108
Mof_C 	C 	0.456	0.5089	0.9388	0.267
Mof_C 	C 	0.4661	0.4237	0.9427	-0.14
Mof_C 	C 	0.4927	0.5832	0.9947	-0.144
Mof_C 	C 	0.5005	0.4867	0.5655	0.266
Mof_C 	C 	0.3908	0.487	0.5307	-0.147
Mof_C 	C 	0.6137	0.505	0.5358	-0.127
Mof_C 	C 	0.1022	0.1374	0.7635	0.272
Mof_C 	C 	0.1241	0.1992	0.8294	-0.146
Mof_C 	C 	0.202	0.2728	0.8385	-0.152
Mof_C 	C 	0.7608	0.2201	0.7196	0.282
Mof_C 	C 	0.7401	0.282	0.7854	-0.159
Mof_C 	C 	0.163	0.145	0.7061	-0.134
Mof_C 	C 	0.6775	0.7151	0.7127	0.271
Mof_C 	C 	0.6998	0.7775	0.7785	-0.155
Mof_C 	C 	0.7789	0.8499	0.7878	-0.132
Mof_C 	C 	0.8362	0.8572	0.7297	0.256
Mof_C 	C 	0.8168	0.7925	0.6635	-0.128
Mof_C 	C 	0.7362	0.7227	0.6548	-0.15
Mof_C 	C 	0.5886	0.9961	0.7213	0.24
Mof_C 	C 	0.5327	0.9173	0.716	-0.129
Mof_C 	C 	0.4156	0.9162	0.7458	-0.15
Mof_C 	C 	0.3536	0.9985	0.7791	0.277
Mof_C 	C 	0.4119	0.0765	0.7859	-0.161
Mof_C 	C 	0.5282	0.078	0.7576	-0.119
Mof_C 	C 	0.956	0.9911	0.5612	0.277
Mof_C 	C 	0.9661	0.0763	0.5573	-0.169
Mof_C 	C 	0.9927	0.9168	0.5053	-0.126
Mof_C 	C 	0.0005	0.0133	0.9345	0.289
Mof_C 	C 	0.8908	0.013	0.9693	-0.165
Mof_C 	C 	0.1137	0.995	0.9642	-0.137
Mof_C 	C 	0.3978	0.6374	0.2635	0.275
Mof_C 	C 	0.3759	0.6992	0.3294	-0.15
Mof_C 	C 	0.298	0.7728	0.3385	-0.15
Mof_C 	C 	0.7392	0.7201	0.2196	0.287
Mof_C 	C 	0.7599	0.782	0.2854	-0.162
Mof_C 	C 	0.337	0.645	0.2061	-0.138
Mof_C 	C 	0.8225	0.2151	0.2127	0.268
Mof_C 	C 	0.8002	0.2775	0.2785	-0.152
Mof_C 	C 	0.7211	0.3499	0.2878	-0.135
Mof_C 	C 	0.6638	0.3572	0.2297	0.258
Mof_C 	C 	0.6832	0.2925	0.1635	-0.132
Mof_C 	C 	0.7638	0.2227	0.1548	-0.147
Mof_C 	C 	0.9114	0.4961	0.2213	0.236
Mof_C 	C 	0.9673	0.4173	0.216	-0.126
Mof_C 	C 	0.0844	0.4162	0.2458	-0.154
Mof_C 	C 	0.1464	0.4985	0.2791	0.286
Mof_C 	C 	0.0881	0.5765	0.2859	-0.175
Mof_C 	C 	0.9718	0.578	0.2576	-0.108
Mof_C 	C 	0.544	0.4911	0.0612	0.267
Mof_C 	C 	0.5339	0.5763	0.0573	-0.14
Mof_C 	C 	0.5073	0.4168	0.0053	-0.144
Mof_C 	C 	0.4995	0.5133	0.4345	0.266
Mof_C 	C 	0.6092	0.513	0.4693	-0.147
Mof_C 	C 	0.3863	0.495	0.4642	-0.127
Mof_C 	C 	0.8978	0.8626	0.2365	0.272
Mof_C 	C 	0.8759	0.8008	0.1706	-0.146
Mof_C 	C 	0.798	0.7272	0.1615	-0.152
Mof_C 	C 	0.2392	0.7799	0.2804	0.282
Mof_C 	C 	0.2599	0.718	0.2146	-0.159
Mof_C 	C 	0.837	0.855	0.2939	-0.134
Mof_C 	C 	0.3225	0.2849	0.2873	0.271
Mof_C 	C 	0.3002	0.2225	0.2215	-0.155
Mof_C 	C 	0.2211	0.1501	0.2122	-0.132
Mof_C 	C 	0.1638	0.1428	0.2703	0.256
Mof_C 	C 	0.1832	0.2075	0.3365	-0.128
Mof_C 	C 	0.2638	0.2773	0.3452	-0.15
Mof_C 	C 	0.4114	0.0039	0.2787	0.24
Mof_C 	C 	0.4673	0.0827	0.284	-0.129
Mof_C 	C 	0.5844	0.0838	0.2542	-0.15
Mof_C 	C 	0.6464	0.0015	0.2209	0.277
Mof_C 	C 	0.5881	0.9235	0.2141	-0.161
Mof_C 	C 	0.4718	0.922	0.2424	-0.119
Mof_C 	C 	0.044	0.0089	0.4388	0.277
Mof_C 	C 	0.0339	0.9237	0.4427	-0.169
Mof_C 	C 	0.0073	0.0832	0.4947	-0.126
Mof_C 	C 	0.9995	0.9867	0.0655	0.289
Mof_C 	C 	0.1092	0.987	0.0307	-0.165
Mof_C 	C 	0.8863	0.005	0.0358	-0.137
Mof_O 	O 	0.2017	0.5062	0.81	-0.529
Mof_O 	O 	0.5315	0.4369	0.7462	-0.651
Mof_O 	O 	0.419	0.5172	0.8768	-0.54
Mof_O 	O 	0.4123	0.5702	0.7629	-0.639
Mof_O 	O 	0.335	0.3524	0.7881	-0.58
Mof_O 	O 	0.0954	0.8533	0.7947	-0.559
Mof_O 	O 	0.7381	0.5029	0.695	-0.563
Mof_O 	O 	0.5009	0.479	0.6283	-0.534
Mof_O 	O 	0.7017	0.9938	0.69	-0.522
Mof_O 	O 	0.0315	0.0631	0.7538	-0.638
Mof_O 	O 	0.919	0.9828	0.6232	-0.533
Mof_O 	O 	0.9123	0.9298	0.7371	-0.627
Mof_O 	O 	0.835	0.1476	0.7119	-0.578
Mof_O 	O 	0.5954	0.6467	0.7053	-0.561
Mof_O 	O 	0.2381	0.9971	0.805	-0.559
Mof_O 	O 	0.0009	0.021	0.8717	-0.528
Mof_O 	O 	0.7983	0.4938	0.19	-0.529
Mof_O 	O 	0.4685	0.5631	0.2538	-0.651
Mof_O 	O 	0.581	0.4828	0.1232	-0.54
Mof_O 	O 	0.5877	0.4298	0.2371	-0.639
Mof_O 	O 	0.665	0.6476	0.2119	-0.58
Mof_O 	O 	0.9046	0.1467	0.2053	-0.559
Mof_O 	O 	0.2619	0.4971	0.305	-0.563
Mof_O 	O 	0.4991	0.521	0.3717	-0.534
Mof_O 	O 	0.2983	0.0062	0.31	-0.522
Mof_O 	O 	0.9685	0.9369	0.2462	-0.638
Mof_O 	O 	0.081	0.0172	0.3768	-0.533
Mof_O 	O 	0.0877	0.0702	0.2629	-0.627
Mof_O 	O 	0.165	0.8524	0.2881	-0.578
Mof_O 	O 	0.4046	0.3533	0.2947	-0.561
Mof_O 	O 	0.7619	0.0029	0.195	-0.559
Mof_O 	O 	0.9991	0.979	0.1283	-0.528
_end
