data_functionalizedCrystal
_audit_creation_method	'EQeq! by Chris Wilmer'
_symmetry_space_group_name_H-M	'P1'
_symmetry_Int_Tables_number	1
_symmetry_cell_setting	triclinic
loop_
_symmetry_equiv_pos_as_xyz
  x,y,z
_cell_length_a	16.744
_cell_length_b	15.787
_cell_length_c	14.295
_cell_angle_alpha	90
_cell_angle_beta	90
_cell_angle_gamma	90
loop_
_atom_site_label
_atom_site_type_symbol
_atom_site_fract_x
_atom_site_fract_y
_atom_site_fract_z
_atom_site_charge
Mof_Co	Co	0.61403	0.0637	0.21371	1.166
Mof_C 	C 	0.7371	0.1174	0.0871	0.459
Mof_C 	C 	0.772	0.0353	0.125	-0.386
Mof_H 	H 	0.7851	0.9987	0.0727	0.156
Mof_H 	H 	0.8213	0.0481	0.1576	0.158
Mof_C 	C 	0.7537	0.0634	0.333	0.388
Mof_C 	C 	0.7554	0.9784	0.2821	-0.347
Mof_H 	H 	0.8102	0.9592	0.2752	0.141
Mof_H 	H 	0.7264	0.9363	0.3181	0.136
Mof_C 	C 	0.6893	0.9084	0.1489	-0.128
Mof_H 	H 	0.6656	0.8736	0.1974	0.07
Mof_H 	H 	0.7336	0.8774	0.1217	0.074
Mof_C 	C 	0.6265	0.9279	0.0727	-0.095
Mof_H 	H 	0.6512	0.9601	0.0226	0.058
Mof_H 	H 	0.6066	0.8753	0.0466	0.058
Mof_C 	C 	0.5024	0.9232	0.1642	-0.324
Mof_H 	H 	0.5102	0.8648	0.1452	0.124
Mof_H 	H 	0.4484	0.9393	0.1471	0.131
Mof_C 	C 	0.5108	0.9288	0.2702	0.361
Mof_C 	C 	0.5181	0.0274	0.0385	-0.081
Mof_H 	H 	0.5561	0.0663	0.0107	0.05
Mof_H 	H 	0.476	0.0608	0.0671	0.045
Mof_N 	N 	0.7184	0.9886	0.1895	-0.098
Mof_N 	N 	0.5591	0.9771	0.1126	-0.141
Mof_N 	N 	0.5212	0.1416	0.2305	-0.274
Mof_O 	O 	0.6672	0.1388	0.1138	-0.472
Mof_O 	O 	0.7777	0.1588	0.0321	-0.464
Mof_O 	O 	0.6908	0.1094	0.3188	-0.55
Mof_O 	O 	0.809	0.0865	0.3839	-0.416
Mof_O 	O 	0.564	0.9748	0.3056	-0.404
Mof_O 	O 	0.4621	0.8848	0.3169	-0.282
Mof_C 	C 	0.4638	0.1627	0.2589	0.029
Mof_S 	S 	0.3794	0.2058	0.3018	-0.049
Mof_C 	C 	0.4635	0.1771	0.2204	0.073
Mof_S 	S 	0.3706	0.222	0.211	-0.038
Mof_Co	Co	0.88597	0.4363	0.21371	1.167
Mof_C 	C 	0.7629	0.3826	0.0871	0.461
Mof_C 	C 	0.728	0.4647	0.125	-0.39
Mof_H 	H 	0.7149	0.5013	0.0727	0.158
Mof_H 	H 	0.6787	0.4519	0.1576	0.159
Mof_C 	C 	0.7463	0.4366	0.333	0.388
Mof_C 	C 	0.7446	0.5216	0.2821	-0.347
Mof_H 	H 	0.6898	0.5408	0.2752	0.141
Mof_H 	H 	0.7736	0.5637	0.3181	0.136
Mof_C 	C 	0.8107	0.5916	0.1489	-0.128
Mof_H 	H 	0.8344	0.6264	0.1974	0.07
Mof_H 	H 	0.7664	0.6226	0.1217	0.074
Mof_C 	C 	0.8735	0.5721	0.0727	-0.095
Mof_H 	H 	0.8488	0.5399	0.0226	0.059
Mof_H 	H 	0.8934	0.6247	0.0466	0.059
Mof_C 	C 	0.9976	0.5768	0.1642	-0.32
Mof_H 	H 	0.9898	0.6352	0.1452	0.124
Mof_H 	H 	0.0516	0.5607	0.1471	0.129
Mof_C 	C 	0.9892	0.5712	0.2702	0.362
Mof_C 	C 	0.9819	0.4726	0.0385	-0.079
Mof_H 	H 	0.9439	0.4337	0.0107	0.049
Mof_H 	H 	0.024	0.4392	0.0671	0.042
Mof_N 	N 	0.7816	0.5114	0.1895	-0.097
Mof_N 	N 	0.9409	0.5229	0.1126	-0.14
Mof_N 	N 	0.9788	0.3584	0.2305	-0.273
Mof_O 	O 	0.8328	0.3612	0.1138	-0.472
Mof_O 	O 	0.7223	0.3412	0.0321	-0.465
Mof_O 	O 	0.8092	0.3906	0.3188	-0.55
Mof_O 	O 	0.691	0.4135	0.3839	-0.416
Mof_O 	O 	0.936	0.5252	0.3056	-0.403
Mof_O 	O 	0.0379	0.6152	0.3169	-0.284
Mof_C 	C 	0.0362	0.3373	0.2589	0.028
Mof_S 	S 	0.1206	0.2942	0.3018	-0.049
Mof_C 	C 	0.0365	0.3229	0.2204	0.072
Mof_S 	S 	0.1294	0.278	0.211	-0.038
Mof_Co	Co	0.38597	0.5637	0.28629	1.166
Mof_C 	C 	0.2629	0.6174	0.4129	0.461
Mof_C 	C 	0.228	0.5353	0.375	-0.391
Mof_H 	H 	0.2149	0.4987	0.4273	0.158
Mof_H 	H 	0.1787	0.5481	0.3424	0.159
Mof_C 	C 	0.2463	0.5634	0.167	0.388
Mof_C 	C 	0.2446	0.4784	0.2179	-0.347
Mof_H 	H 	0.1898	0.4592	0.2248	0.141
Mof_H 	H 	0.2736	0.4363	0.1819	0.136
Mof_C 	C 	0.3107	0.4084	0.3511	-0.128
Mof_H 	H 	0.3344	0.3736	0.3026	0.07
Mof_H 	H 	0.2664	0.3774	0.3783	0.074
Mof_C 	C 	0.3735	0.4279	0.4273	-0.095
Mof_H 	H 	0.3488	0.4601	0.4774	0.059
Mof_H 	H 	0.3934	0.3753	0.4534	0.058
Mof_C 	C 	0.4976	0.4232	0.3358	-0.324
Mof_H 	H 	0.4898	0.3648	0.3548	0.125
Mof_H 	H 	0.5516	0.4393	0.3529	0.132
Mof_C 	C 	0.4892	0.4288	0.2298	0.361
Mof_C 	C 	0.4819	0.5274	0.4615	-0.083
Mof_H 	H 	0.4439	0.5663	0.4893	0.049
Mof_H 	H 	0.524	0.5608	0.4329	0.045
Mof_N 	N 	0.2816	0.4886	0.3105	-0.097
Mof_N 	N 	0.4409	0.4771	0.3874	-0.139
Mof_N 	N 	0.4788	0.6416	0.2695	-0.274
Mof_O 	O 	0.3328	0.6388	0.3862	-0.473
Mof_O 	O 	0.2223	0.6588	0.4679	-0.467
Mof_O 	O 	0.3092	0.6094	0.1812	-0.55
Mof_O 	O 	0.191	0.5865	0.1161	-0.417
Mof_O 	O 	0.436	0.4748	0.1944	-0.403
Mof_O 	O 	0.5379	0.3848	0.1831	-0.282
Mof_C 	C 	0.5362	0.6627	0.2411	0.029
Mof_S 	S 	0.6206	0.7058	0.1982	-0.049
Mof_C 	C 	0.5365	0.6771	0.2796	0.073
Mof_S 	S 	0.6294	0.722	0.289	-0.038
Mof_Co	Co	0.11403	0.9363	0.28629	1.165
Mof_C 	C 	0.2371	0.8826	0.4129	0.462
Mof_C 	C 	0.272	0.9647	0.375	-0.396
Mof_H 	H 	0.2851	0.0013	0.4273	0.16
Mof_H 	H 	0.3213	0.9519	0.3424	0.16
Mof_C 	C 	0.2537	0.9366	0.167	0.384
Mof_C 	C 	0.2554	0.0216	0.2179	-0.343
Mof_H 	H 	0.3102	0.0408	0.2248	0.141
Mof_H 	H 	0.2264	0.0637	0.1819	0.135
Mof_C 	C 	0.1893	0.0916	0.3511	-0.128
Mof_H 	H 	0.1656	0.1264	0.3026	0.07
Mof_H 	H 	0.2336	0.1226	0.3783	0.074
Mof_C 	C 	0.1265	0.0721	0.4273	-0.095
Mof_H 	H 	0.1512	0.0399	0.4774	0.059
Mof_H 	H 	0.1066	0.1247	0.4534	0.059
Mof_C 	C 	0.0024	0.0768	0.3358	-0.321
Mof_H 	H 	0.0102	0.1352	0.3548	0.124
Mof_H 	H 	0.9484	0.0607	0.3529	0.131
Mof_C 	C 	0.0108	0.0712	0.2298	0.36
Mof_C 	C 	0.0181	0.9726	0.4615	-0.089
Mof_H 	H 	0.0561	0.9337	0.4893	0.05
Mof_H 	H 	0.976	0.9392	0.4329	0.048
Mof_N 	N 	0.2184	0.0114	0.3105	-0.096
Mof_N 	N 	0.0591	0.0229	0.3874	-0.138
Mof_N 	N 	0.0212	0.8584	0.2695	-0.278
Mof_O 	O 	0.1672	0.8612	0.3862	-0.473
Mof_O 	O 	0.2777	0.8412	0.4679	-0.467
Mof_O 	O 	0.1908	0.8906	0.1812	-0.551
Mof_O 	O 	0.309	0.9135	0.1161	-0.416
Mof_O 	O 	0.064	0.0252	0.1944	-0.402
Mof_O 	O 	0.9621	0.1152	0.1831	-0.281
Mof_C 	C 	0.9638	0.8373	0.2411	0.03
Mof_S 	S 	0.8794	0.7942	0.1982	-0.049
Mof_C 	C 	0.9635	0.8229	0.2796	0.076
Mof_S 	S 	0.8706	0.778	0.289	-0.039
Mof_Co	Co	0.38597	0.9363	0.78629	1.167
Mof_C 	C 	0.2629	0.8826	0.9129	0.46
Mof_C 	C 	0.228	0.9647	0.875	-0.386
Mof_H 	H 	0.2149	0.0013	0.9273	0.156
Mof_H 	H 	0.1787	0.9519	0.8424	0.158
Mof_C 	C 	0.2463	0.9366	0.667	0.388
Mof_C 	C 	0.2446	0.0216	0.7179	-0.347
Mof_H 	H 	0.1898	0.0408	0.7248	0.141
Mof_H 	H 	0.2736	0.0637	0.6819	0.136
Mof_C 	C 	0.3107	0.0916	0.8511	-0.128
Mof_H 	H 	0.3344	0.1264	0.8026	0.07
Mof_H 	H 	0.2664	0.1226	0.8783	0.074
Mof_C 	C 	0.3735	0.0721	0.9273	-0.095
Mof_H 	H 	0.3488	0.0399	0.9774	0.058
Mof_H 	H 	0.3934	0.1247	0.9534	0.058
Mof_C 	C 	0.4976	0.0768	0.8358	-0.324
Mof_H 	H 	0.4898	0.1352	0.8548	0.124
Mof_H 	H 	0.5516	0.0607	0.8529	0.131
Mof_C 	C 	0.4892	0.0712	0.7298	0.361
Mof_C 	C 	0.4819	0.9726	0.9615	-0.081
Mof_H 	H 	0.4439	0.9337	0.9893	0.05
Mof_H 	H 	0.524	0.9392	0.9329	0.045
Mof_N 	N 	0.2816	0.0114	0.8105	-0.098
Mof_N 	N 	0.4409	0.0229	0.8874	-0.141
Mof_N 	N 	0.4788	0.8584	0.7695	-0.274
Mof_O 	O 	0.3328	0.8612	0.8862	-0.472
Mof_O 	O 	0.2223	0.8412	0.9679	-0.464
Mof_O 	O 	0.3092	0.8906	0.6812	-0.55
Mof_O 	O 	0.191	0.9135	0.6161	-0.416
Mof_O 	O 	0.436	0.0252	0.6944	-0.404
Mof_O 	O 	0.5379	0.1152	0.6831	-0.282
Mof_C 	C 	0.5362	0.8373	0.7411	0.029
Mof_S 	S 	0.6206	0.7942	0.6982	-0.049
Mof_C 	C 	0.5365	0.8229	0.7796	0.073
Mof_S 	S 	0.6294	0.778	0.789	-0.038
Mof_Co	Co	0.11403	0.5637	0.78629	1.167
Mof_C 	C 	0.2371	0.6174	0.9129	0.461
Mof_C 	C 	0.272	0.5353	0.875	-0.39
Mof_H 	H 	0.2851	0.4987	0.9273	0.158
Mof_H 	H 	0.3213	0.5481	0.8424	0.159
Mof_C 	C 	0.2537	0.5634	0.667	0.388
Mof_C 	C 	0.2554	0.4784	0.7179	-0.347
Mof_H 	H 	0.3102	0.4592	0.7248	0.141
Mof_H 	H 	0.2264	0.4363	0.6819	0.136
Mof_C 	C 	0.1893	0.4084	0.8511	-0.128
Mof_H 	H 	0.1656	0.3736	0.8026	0.07
Mof_H 	H 	0.2336	0.3774	0.8783	0.074
Mof_C 	C 	0.1265	0.4279	0.9273	-0.095
Mof_H 	H 	0.1512	0.4601	0.9774	0.059
Mof_H 	H 	0.1066	0.3753	0.9534	0.059
Mof_C 	C 	0.0024	0.4232	0.8358	-0.32
Mof_H 	H 	0.0102	0.3648	0.8548	0.124
Mof_H 	H 	0.9484	0.4393	0.8529	0.129
Mof_C 	C 	0.0108	0.4288	0.7298	0.362
Mof_C 	C 	0.0181	0.5274	0.9615	-0.079
Mof_H 	H 	0.0561	0.5663	0.9893	0.049
Mof_H 	H 	0.976	0.5608	0.9329	0.042
Mof_N 	N 	0.2184	0.4886	0.8105	-0.097
Mof_N 	N 	0.0591	0.4771	0.8874	-0.14
Mof_N 	N 	0.0212	0.6416	0.7695	-0.273
Mof_O 	O 	0.1672	0.6388	0.8862	-0.472
Mof_O 	O 	0.2777	0.6588	0.9679	-0.465
Mof_O 	O 	0.1908	0.6094	0.6812	-0.55
Mof_O 	O 	0.309	0.5865	0.6161	-0.416
Mof_O 	O 	0.064	0.4748	0.6944	-0.403
Mof_O 	O 	0.9621	0.3848	0.6831	-0.284
Mof_C 	C 	0.9638	0.6627	0.7411	0.028
Mof_S 	S 	0.8794	0.7058	0.6982	-0.049
Mof_C 	C 	0.9635	0.6771	0.7796	0.072
Mof_S 	S 	0.8706	0.722	0.789	-0.038
Mof_Co	Co	0.61403	0.4363	0.71371	1.166
Mof_C 	C 	0.7371	0.3826	0.5871	0.461
Mof_C 	C 	0.772	0.4647	0.625	-0.391
Mof_H 	H 	0.7851	0.5013	0.5727	0.158
Mof_H 	H 	0.8213	0.4519	0.6576	0.159
Mof_C 	C 	0.7537	0.4366	0.833	0.388
Mof_C 	C 	0.7554	0.5216	0.7821	-0.347
Mof_H 	H 	0.8102	0.5408	0.7752	0.141
Mof_H 	H 	0.7264	0.5637	0.8181	0.136
Mof_C 	C 	0.6893	0.5916	0.6489	-0.128
Mof_H 	H 	0.6656	0.6264	0.6974	0.07
Mof_H 	H 	0.7336	0.6226	0.6217	0.074
Mof_C 	C 	0.6265	0.5721	0.5727	-0.095
Mof_H 	H 	0.6512	0.5399	0.5226	0.059
Mof_H 	H 	0.6066	0.6247	0.5466	0.058
Mof_C 	C 	0.5024	0.5768	0.6642	-0.324
Mof_H 	H 	0.5102	0.6352	0.6452	0.125
Mof_H 	H 	0.4484	0.5607	0.6471	0.132
Mof_C 	C 	0.5108	0.5712	0.7702	0.361
Mof_C 	C 	0.5181	0.4726	0.5385	-0.083
Mof_H 	H 	0.5561	0.4337	0.5107	0.049
Mof_H 	H 	0.476	0.4392	0.5671	0.045
Mof_N 	N 	0.7184	0.5114	0.6895	-0.097
Mof_N 	N 	0.5591	0.5229	0.6126	-0.139
Mof_N 	N 	0.5212	0.3584	0.7305	-0.274
Mof_O 	O 	0.6672	0.3612	0.6138	-0.473
Mof_O 	O 	0.7777	0.3412	0.5321	-0.467
Mof_O 	O 	0.6908	0.3906	0.8188	-0.55
Mof_O 	O 	0.809	0.4135	0.8839	-0.417
Mof_O 	O 	0.564	0.5252	0.8056	-0.403
Mof_O 	O 	0.4621	0.6152	0.8169	-0.282
Mof_C 	C 	0.4638	0.3373	0.7589	0.029
Mof_S 	S 	0.3794	0.2942	0.8018	-0.049
Mof_C 	C 	0.4635	0.3229	0.7204	0.073
Mof_S 	S 	0.3706	0.278	0.711	-0.038
Mof_Co	Co	0.88597	0.0637	0.71371	1.165
Mof_C 	C 	0.7629	0.1174	0.5871	0.462
Mof_C 	C 	0.728	0.0353	0.625	-0.396
Mof_H 	H 	0.7149	0.9987	0.5727	0.16
Mof_H 	H 	0.6787	0.0481	0.6576	0.16
Mof_C 	C 	0.7463	0.0634	0.833	0.384
Mof_C 	C 	0.7446	0.9784	0.7821	-0.343
Mof_H 	H 	0.6898	0.9592	0.7752	0.141
Mof_H 	H 	0.7736	0.9363	0.8181	0.135
Mof_C 	C 	0.8107	0.9084	0.6489	-0.128
Mof_H 	H 	0.8344	0.8736	0.6974	0.07
Mof_H 	H 	0.7664	0.8774	0.6217	0.074
Mof_C 	C 	0.8735	0.9279	0.5727	-0.095
Mof_H 	H 	0.8488	0.9601	0.5226	0.059
Mof_H 	H 	0.8934	0.8753	0.5466	0.059
Mof_C 	C 	0.9976	0.9232	0.6642	-0.321
Mof_H 	H 	0.9898	0.8648	0.6452	0.124
Mof_H 	H 	0.0516	0.9393	0.6471	0.131
Mof_C 	C 	0.9892	0.9288	0.7702	0.36
Mof_C 	C 	0.9819	0.0274	0.5385	-0.089
Mof_H 	H 	0.9439	0.0663	0.5107	0.05
Mof_H 	H 	0.024	0.0608	0.5671	0.048
Mof_N 	N 	0.7816	0.9886	0.6895	-0.096
Mof_N 	N 	0.9409	0.9771	0.6126	-0.138
Mof_N 	N 	0.9788	0.1416	0.7305	-0.278
Mof_O 	O 	0.8328	0.1388	0.6138	-0.473
Mof_O 	O 	0.7223	0.1588	0.5321	-0.467
Mof_O 	O 	0.8092	0.1094	0.8188	-0.551
Mof_O 	O 	0.691	0.0865	0.8839	-0.416
Mof_O 	O 	0.936	0.9748	0.8056	-0.402
Mof_O 	O 	0.0379	0.8848	0.8169	-0.281
Mof_C 	C 	0.0362	0.1627	0.7589	0.03
Mof_S 	S 	0.1206	0.2058	0.8018	-0.049
Mof_C 	C 	0.0365	0.1771	0.7204	0.076
Mof_S 	S 	0.1294	0.222	0.711	-0.039
Mof_La	La	0.75	0.25	0.89163	1.74
Mof_La	La	0.25	0.75	0.60837	1.746
Mof_La	La	0.25	0.75	0.10837	1.74
Mof_La	La	0.75	0.25	0.39163	1.746
_end
