data_functionalizedCrystal
_audit_creation_method	'EQeq! by Chris Wilmer'
_symmetry_space_group_name_H-M	'P1'
_symmetry_Int_Tables_number	1
_symmetry_cell_setting	triclinic
loop_
_symmetry_equiv_pos_as_xyz
  x,y,z
_cell_length_a	18.6075
_cell_length_b	18.6075
_cell_length_c	18.6075
_cell_angle_alpha	60
_cell_angle_beta	60
_cell_angle_gamma	60
loop_
_atom_site_label
_atom_site_type_symbol
_atom_site_fract_x
_atom_site_fract_y
_atom_site_fract_z
_atom_site_charge
Mof_Cu	Cu	1.24776e-17	0	0.42931	0.682
Mof_Cu	Cu	-3.74328e-17	0.57069	0.42931	0.799
Mof_Cu	Cu	0.42931	0	0.57069	0.799
Mof_Cu	Cu	-0	0.57069	-0	0.695
Mof_Cu	Cu	0.57069	0.42931	-0	0.799
Mof_Cu	Cu	0.57069	0	-0	0.695
Mof_Cu	Cu	-4.99104e-17	0	0.57069	0.695
Mof_Cu	Cu	0.57069	0	0.42931	0.799
Mof_Cu	Cu	0.42931	0	-0	0.682
Mof_Cu	Cu	-2.49552e-17	0.42931	-0	0.681
Mof_Cu	Cu	-4.99104e-17	0.42931	0.57069	0.798
Mof_Cu	Cu	0.42931	0.57069	-0	0.798
Mof_H 	H 	0.5116	0.7298	0.7298	0.092
Mof_H 	H 	0.7298	0.0288	0.7298	0.053
Mof_H 	H 	0.2702	0.2702	0.9712	0.05
Mof_H 	H 	0.5116	0.0288	0.7298	0.027
Mof_H 	H 	0.0288	0.7298	0.5116	0.027
Mof_H 	H 	0.7298	0.5116	0.7298	0.092
Mof_H 	H 	0.7298	0.5116	0.0288	0.027
Mof_H 	H 	0.4884	0.2702	0.9712	0.074
Mof_H 	H 	0.2702	0.9712	0.2702	0.05
Mof_H 	H 	0.2702	0.9712	0.4884	0.074
Mof_H 	H 	0.9712	0.2702	0.4884	0.074
Mof_H 	H 	0.7298	0.7298	0.5116	0.092
Mof_H 	H 	0.2702	0.4884	0.2702	0.004
Mof_H 	H 	0.0288	0.7298	0.7298	0.053
Mof_H 	H 	0.9712	0.2702	0.2702	0.05
Mof_H 	H 	0.4884	0.9712	0.2702	0.074
Mof_H 	H 	0.7298	0.0288	0.5116	0.027
Mof_H 	H 	0.0288	0.5116	0.7298	0.027
Mof_H 	H 	0.2702	0.4884	0.9712	0.074
Mof_H 	H 	0.4884	0.2702	0.2702	0.004
Mof_H 	H 	0.5116	0.7298	0.0288	0.027
Mof_H 	H 	0.7298	0.7298	0.0288	0.053
Mof_H 	H 	0.9712	0.4884	0.2702	0.074
Mof_H 	H 	0.2702	0.2702	0.4884	0.004
Mof_C 	C 	0.61311	0.03131	0.61311	-0.143
Mof_C 	C 	0.38689	0.96869	0.25753	-0.087
Mof_C 	C 	0.61311	0.61311	0.03131	-0.143
Mof_C 	C 	0.83722	0.56912	0.56912	0.342
Mof_C 	C 	0.97546	0.43088	0.16278	0.345
Mof_C 	C 	0.16278	0.43088	0.43088	0.373
Mof_C 	C 	0.30089	0.30089	0.96841	0.046
Mof_C 	C 	0.25753	0.96869	0.38689	-0.087
Mof_C 	C 	0.30089	0.96841	0.30089	0.046
Mof_C 	C 	0.83722	0.56912	0.02454	0.349
Mof_C 	C 	0.02454	0.56912	0.83722	0.349
Mof_C 	C 	0.96841	0.30089	0.30089	0.046
Mof_C 	C 	0.61311	0.61311	0.74247	-0.045
Mof_C 	C 	0.43088	0.16278	0.43088	0.373
Mof_C 	C 	0.03159	0.69911	0.69911	0.059
Mof_C 	C 	0.57019	0.69911	0.69911	0.031
Mof_C 	C 	0.38689	0.25753	0.96869	-0.087
Mof_C 	C 	0.97546	0.43088	0.43088	0.346
Mof_C 	C 	0.02454	0.83722	0.56912	0.349
Mof_C 	C 	0.43088	0.97546	0.16278	0.345
Mof_C 	C 	0.16278	0.43088	0.97546	0.345
Mof_C 	C 	0.03159	0.69911	0.57019	0.064
Mof_C 	C 	0.03131	0.61311	0.61311	-0.143
Mof_C 	C 	0.43088	0.43088	0.16278	0.373
Mof_C 	C 	0.42981	0.30089	0.30089	0.086
Mof_C 	C 	0.56912	0.83722	0.56912	0.342
Mof_C 	C 	0.42981	0.30089	0.96841	0.044
Mof_C 	C 	0.74247	0.61311	0.61311	-0.045
Mof_C 	C 	0.56912	0.56912	0.02454	0.367
Mof_C 	C 	0.69911	0.57019	0.69911	0.031
Mof_C 	C 	0.38689	0.96869	0.38689	-0.07
Mof_C 	C 	0.30089	0.42981	0.96841	0.044
Mof_C 	C 	0.42981	0.96841	0.30089	0.044
Mof_C 	C 	0.38689	0.38689	0.96869	-0.07
Mof_C 	C 	0.74247	0.03131	0.61311	-0.119
Mof_C 	C 	0.30089	0.96841	0.42981	0.044
Mof_C 	C 	0.96841	0.30089	0.42981	0.044
Mof_C 	C 	0.03131	0.61311	0.74247	-0.119
Mof_C 	C 	0.83722	0.02454	0.56912	0.349
Mof_C 	C 	0.25753	0.38689	0.96869	-0.087
Mof_C 	C 	0.25753	0.38689	0.38689	-0.177
Mof_C 	C 	0.43088	0.16278	0.97546	0.345
Mof_C 	C 	0.61311	0.03131	0.74247	-0.119
Mof_C 	C 	0.96869	0.38689	0.25753	-0.087
Mof_C 	C 	0.03159	0.57019	0.69911	0.064
Mof_C 	C 	0.02454	0.56912	0.56912	0.367
Mof_C 	C 	0.69911	0.57019	0.03159	0.064
Mof_C 	C 	0.61311	0.74247	0.03131	-0.119
Mof_C 	C 	0.43088	0.43088	0.97546	0.346
Mof_C 	C 	0.03131	0.74247	0.61311	-0.119
Mof_C 	C 	0.97546	0.16278	0.43088	0.345
Mof_C 	C 	0.38689	0.25753	0.38689	-0.177
Mof_C 	C 	0.96869	0.25753	0.38689	-0.087
Mof_C 	C 	0.43088	0.97546	0.43088	0.346
Mof_C 	C 	0.69911	0.69911	0.03159	0.059
Mof_C 	C 	0.69911	0.69911	0.57019	0.031
Mof_C 	C 	0.61311	0.74247	0.61311	-0.045
Mof_C 	C 	0.69911	0.03159	0.69911	0.059
Mof_C 	C 	0.56912	0.56912	0.83722	0.342
Mof_C 	C 	0.56912	0.02454	0.56912	0.367
Mof_C 	C 	0.96869	0.38689	0.38689	-0.07
Mof_C 	C 	0.57019	0.69911	0.03159	0.064
Mof_C 	C 	0.56912	0.02454	0.83722	0.349
Mof_C 	C 	0.30089	0.42981	0.30089	0.086
Mof_C 	C 	0.57019	0.03159	0.69911	0.064
Mof_C 	C 	0.69911	0.03159	0.57019	0.064
Mof_C 	C 	0.16278	0.97546	0.43088	0.345
Mof_C 	C 	0.56912	0.83722	0.02454	0.349
Mof_C 	C 	0.74247	0.61311	0.03131	-0.119
Mof_C 	C 	0.30089	0.30089	0.42981	0.086
Mof_C 	C 	0.96841	0.42981	0.30089	0.044
Mof_C 	C 	0.38689	0.38689	0.25753	-0.177
Mof_O 	O 	0.61282	0.87374	0.49224	-0.282
Mof_O 	O 	0.9788	0.50776	0.12626	-0.332
Mof_O 	O 	0.38718	0.12626	0.50776	-0.47
Mof_O 	O 	0.61282	0.0212	0.49224	-0.459
Mof_O 	O 	0.61282	0.0212	0.87374	-0.343
Mof_O 	O 	0.50776	0.38718	0.9788	-0.291
Mof_O 	O 	0.87374	0.0212	0.49224	-0.363
Mof_O 	O 	0.0212	0.87374	0.49224	-0.363
Mof_O 	O 	0.61282	0.49224	0.87374	-0.282
Mof_O 	O 	0.0212	0.49224	0.61282	-0.459
Mof_O 	O 	0.38718	0.12626	0.9788	-0.351
Mof_O 	O 	0.49224	0.87374	0.0212	-0.363
Mof_O 	O 	0.9788	0.38718	0.50776	-0.291
Mof_O 	O 	0.49224	0.61282	0.87374	-0.282
Mof_O 	O 	0.12626	0.38718	0.50776	-0.47
Mof_O 	O 	0.9788	0.38718	0.12626	-0.351
Mof_O 	O 	0.50776	0.9788	0.12626	-0.332
Mof_O 	O 	0.87374	0.49224	0.0212	-0.363
Mof_O 	O 	0.9788	0.12626	0.50776	-0.332
Mof_O 	O 	0.38718	0.9788	0.12626	-0.351
Mof_O 	O 	0.0212	0.49224	0.87374	-0.363
Mof_O 	O 	0.50776	0.12626	0.9788	-0.332
Mof_O 	O 	0.87374	0.61282	0.0212	-0.343
Mof_O 	O 	0.38718	0.9788	0.50776	-0.291
Mof_O 	O 	0.12626	0.50776	0.38718	-0.47
Mof_O 	O 	0.0212	0.87374	0.61282	-0.343
Mof_O 	O 	0.61282	0.87374	0.0212	-0.343
Mof_O 	O 	0.38718	0.50776	0.9788	-0.291
Mof_O 	O 	0.49224	0.0212	0.61282	-0.459
Mof_O 	O 	0.0212	0.61282	0.87374	-0.343
Mof_O 	O 	0.50776	0.9788	0.38718	-0.291
Mof_O 	O 	0.12626	0.9788	0.50776	-0.332
Mof_O 	O 	0.61282	0.49224	0.0212	-0.459
Mof_O 	O 	0.12626	0.38718	0.9788	-0.351
Mof_O 	O 	0.87374	0.61282	0.49224	-0.282
Mof_O 	O 	0.87374	0.0212	0.61282	-0.343
Mof_O 	O 	0.49224	0.61282	0.0212	-0.459
Mof_O 	O 	0.9788	0.50776	0.38718	-0.291
Mof_O 	O 	0.12626	0.50776	0.9788	-0.332
Mof_O 	O 	0.50776	0.12626	0.38718	-0.47
Mof_O 	O 	0.38718	0.50776	0.12626	-0.47
Mof_O 	O 	0.49224	0.0212	0.87374	-0.363
Mof_O 	O 	0.12626	0.9788	0.38718	-0.351
Mof_O 	O 	0.87374	0.49224	0.61282	-0.282
Mof_O 	O 	0.0212	0.61282	0.49224	-0.459
Mof_O 	O 	0.50776	0.38718	0.12626	-0.47
Mof_O 	O 	0.49224	0.87374	0.61282	-0.282
Mof_O 	O 	0.9788	0.12626	0.38718	-0.351
_end
