data_functionalizedCrystal
_audit_creation_method	'EQeq! by Chris Wilmer'
_symmetry_space_group_name_H-M	'P1'
_symmetry_Int_Tables_number	1
_symmetry_cell_setting	triclinic
loop_
_symmetry_equiv_pos_as_xyz
  x,y,z
_cell_length_a	14.872
_cell_length_b	14.872
_cell_length_c	15.019
_cell_angle_alpha	90
_cell_angle_beta	90
_cell_angle_gamma	120
loop_
_atom_site_label
_atom_site_type_symbol
_atom_site_fract_x
_atom_site_fract_y
_atom_site_fract_z
_atom_site_charge
Mof_Eu	Eu	0.33333	0.66666	0.25	2.487
Mof_Eu	Eu	0.66667	0.33334	0.25	2.487
Mof_Eu	Eu	0.66667	0.33334	0.75	2.507
Mof_Eu	Eu	0.33333	0.66666	0.75	2.507
Mof_Cu	Cu	0.5	0.5	-0	0.89
Mof_Cu	Cu	3.95184e-17	0.5	-0	0.858
Mof_Cu	Cu	0.5	0	-0	0.858
Mof_Cu	Cu	-2.23191e-17	0.5	0.5	0.915
Mof_Cu	Cu	0.5	0.5	0.5	0.949
Mof_Cu	Cu	0.5	8.77486e-33	0.5	0.915
Mof_H 	H 	0.7922	0.1581	0.8389	0.112
Mof_H 	H 	0.7144	0.0884	0.7642	0.074
Mof_H 	H 	0.3659	0.2078	0.8389	0.092
Mof_H 	H 	0.374	0.2856	0.7642	0.083
Mof_H 	H 	0.8419	0.6341	0.8389	0.129
Mof_H 	H 	0.9116	0.626	0.7642	0.123
Mof_H 	H 	0.2078	0.8419	0.8389	0.11
Mof_H 	H 	0.2856	0.9116	0.7642	0.112
Mof_H 	H 	0.6341	0.7922	0.8389	0.13
Mof_H 	H 	0.626	0.7144	0.7642	0.104
Mof_H 	H 	0.1581	0.3659	0.8389	0.093
Mof_H 	H 	0.0884	0.374	0.7642	0.064
Mof_H 	H 	0.6341	0.8419	0.6611	0.114
Mof_H 	H 	0.626	0.9116	0.7358	0.125
Mof_H 	H 	0.1581	0.7922	0.6611	0.097
Mof_H 	H 	0.0884	0.7144	0.7358	0.076
Mof_H 	H 	0.2078	0.3659	0.6611	0.076
Mof_H 	H 	0.2856	0.374	0.7358	0.085
Mof_H 	H 	0.3659	0.1581	0.6611	0.077
Mof_H 	H 	0.374	0.0884	0.7358	0.066
Mof_H 	H 	0.8419	0.2078	0.6611	0.094
Mof_H 	H 	0.9116	0.2856	0.7358	0.114
Mof_H 	H 	0.7922	0.6341	0.6611	0.116
Mof_H 	H 	0.7144	0.626	0.7358	0.106
Mof_H 	H 	0.2078	0.8419	0.1611	0.074
Mof_H 	H 	0.2856	0.9116	0.2358	0.104
Mof_H 	H 	0.6341	0.7922	0.1611	0.095
Mof_H 	H 	0.626	0.7144	0.2358	0.096
Mof_H 	H 	0.1581	0.3659	0.1611	0.055
Mof_H 	H 	0.0884	0.374	0.2358	0.054
Mof_H 	H 	0.7922	0.1581	0.1611	0.076
Mof_H 	H 	0.7144	0.0884	0.2358	0.065
Mof_H 	H 	0.3659	0.2078	0.1611	0.055
Mof_H 	H 	0.374	0.2856	0.2358	0.074
Mof_H 	H 	0.8419	0.6341	0.1611	0.093
Mof_H 	H 	0.9116	0.626	0.2358	0.115
Mof_H 	H 	0.3659	0.1581	0.3389	0.071
Mof_H 	H 	0.374	0.0884	0.2642	0.054
Mof_H 	H 	0.8419	0.2078	0.3389	0.089
Mof_H 	H 	0.9116	0.2856	0.2642	0.104
Mof_H 	H 	0.7922	0.6341	0.3389	0.11
Mof_H 	H 	0.7144	0.626	0.2642	0.095
Mof_H 	H 	0.6341	0.8419	0.3389	0.109
Mof_H 	H 	0.626	0.9116	0.2642	0.114
Mof_H 	H 	0.1581	0.7922	0.3389	0.091
Mof_H 	H 	0.0884	0.7144	0.2642	0.065
Mof_H 	H 	0.2078	0.3659	0.3389	0.07
Mof_H 	H 	0.2856	0.374	0.2642	0.073
Mof_C 	C 	0.1299	0.6444	0.3603	0.429
Mof_C 	C 	0.8518	0.2657	0.6978	-0.198
Mof_C 	C 	0.5145	0.8701	0.3603	0.44
Mof_C 	C 	0.4139	0.1482	0.6978	-0.174
Mof_C 	C 	0.3556	0.4855	0.3603	0.424
Mof_C 	C 	0.7343	0.5861	0.6978	-0.211
Mof_C 	C 	0.8701	0.3556	0.3603	0.432
Mof_C 	C 	0.1482	0.7343	0.6978	-0.19
Mof_C 	C 	0.4855	0.1299	0.3603	0.421
Mof_C 	C 	0.5861	0.8518	0.6978	-0.214
Mof_C 	C 	0.6444	0.5145	0.3603	0.44
Mof_C 	C 	0.2657	0.4139	0.6978	-0.179
Mof_C 	C 	0.4855	0.3556	0.1397	0.421
Mof_C 	C 	0.5861	0.7343	0.8022	-0.208
Mof_C 	C 	0.6444	0.1299	0.1397	0.425
Mof_C 	C 	0.2657	0.8518	0.8022	-0.195
Mof_C 	C 	0.8701	0.5145	0.1397	0.437
Mof_C 	C 	0.1482	0.4139	0.8022	-0.171
Mof_C 	C 	0.5145	0.6444	0.1397	0.437
Mof_C 	C 	0.4139	0.2657	0.8022	-0.176
Mof_C 	C 	0.3556	0.8701	0.1397	0.429
Mof_C 	C 	0.7343	0.1482	0.8022	-0.187
Mof_C 	C 	0.1299	0.4855	0.1397	0.417
Mof_C 	C 	0.8518	0.5861	0.8022	-0.211
Mof_C 	C 	0.8701	0.3556	0.6397	0.436
Mof_C 	C 	0.1482	0.7343	0.3022	-0.18
Mof_C 	C 	0.4855	0.1299	0.6397	0.425
Mof_C 	C 	0.5861	0.8518	0.3022	-0.205
Mof_C 	C 	0.6444	0.5145	0.6397	0.444
Mof_C 	C 	0.2657	0.4139	0.3022	-0.169
Mof_C 	C 	0.1299	0.6444	0.6397	0.433
Mof_C 	C 	0.8518	0.2657	0.3022	-0.189
Mof_C 	C 	0.5145	0.8701	0.6397	0.444
Mof_C 	C 	0.4139	0.1482	0.3022	-0.164
Mof_C 	C 	0.3556	0.4855	0.6397	0.429
Mof_C 	C 	0.7343	0.5861	0.3022	-0.202
Mof_C 	C 	0.5145	0.6444	0.8603	0.441
Mof_C 	C 	0.4139	0.2657	0.1978	-0.168
Mof_C 	C 	0.3556	0.8701	0.8603	0.434
Mof_C 	C 	0.7343	0.1482	0.1978	-0.179
Mof_C 	C 	0.1299	0.4855	0.8603	0.423
Mof_C 	C 	0.8518	0.5861	0.1978	-0.204
Mof_C 	C 	0.4855	0.3556	0.8603	0.426
Mof_C 	C 	0.5861	0.7343	0.1978	-0.201
Mof_C 	C 	0.6444	0.1299	0.8603	0.43
Mof_C 	C 	0.2657	0.8518	0.1978	-0.188
Mof_C 	C 	0.8701	0.5145	0.8603	0.442
Mof_C 	C 	0.1482	0.4139	0.1978	-0.163
Mof_O 	O 	0.194	0.6136	0.3572	-0.522
Mof_O 	O 	0.0509	0.608	0.4091	-0.439
Mof_O 	O 	0.4196	0.806	0.3572	-0.508
Mof_O 	O 	0.5571	0.9491	0.4091	-0.376
Mof_O 	O 	0.3864	0.5804	0.3572	-0.514
Mof_O 	O 	0.392	0.4429	0.4091	-0.418
Mof_O 	O 	0.806	0.3864	0.3572	-0.506
Mof_O 	O 	0.9491	0.392	0.4091	-0.378
Mof_O 	O 	0.5804	0.194	0.3572	-0.52
Mof_O 	O 	0.4429	0.0509	0.4091	-0.442
Mof_O 	O 	0.6136	0.4196	0.3572	-0.517
Mof_O 	O 	0.608	0.5571	0.4091	-0.413
Mof_O 	O 	0.5804	0.3864	0.1428	-0.533
Mof_O 	O 	0.4429	0.392	0.0909	-0.451
Mof_O 	O 	0.6136	0.194	0.1428	-0.541
Mof_O 	O 	0.608	0.0509	0.0909	-0.471
Mof_O 	O 	0.806	0.4196	0.1428	-0.527
Mof_O 	O 	0.9491	0.5571	0.0909	-0.407
Mof_O 	O 	0.4196	0.6136	0.1428	-0.537
Mof_O 	O 	0.5571	0.608	0.0909	-0.445
Mof_O 	O 	0.3864	0.806	0.1428	-0.525
Mof_O 	O 	0.392	0.9491	0.0909	-0.41
Mof_O 	O 	0.194	0.5804	0.1428	-0.539
Mof_O 	O 	0.0509	0.4429	0.0909	-0.474
Mof_O 	O 	0.806	0.3864	0.6428	-0.51
Mof_O 	O 	0.9491	0.392	0.5909	-0.379
Mof_O 	O 	0.5804	0.194	0.6428	-0.524
Mof_O 	O 	0.4429	0.0509	0.5909	-0.443
Mof_O 	O 	0.6136	0.4196	0.6428	-0.521
Mof_O 	O 	0.608	0.5571	0.5909	-0.414
Mof_O 	O 	0.194	0.6136	0.6428	-0.525
Mof_O 	O 	0.0509	0.608	0.5909	-0.44
Mof_O 	O 	0.4196	0.806	0.6428	-0.511
Mof_O 	O 	0.5571	0.9491	0.5909	-0.377
Mof_O 	O 	0.3864	0.5804	0.6428	-0.518
Mof_O 	O 	0.392	0.4429	0.5909	-0.419
Mof_O 	O 	0.4196	0.6136	0.8572	-0.495
Mof_O 	O 	0.5571	0.608	0.9091	-0.357
Mof_O 	O 	0.3864	0.806	0.8572	-0.484
Mof_O 	O 	0.392	0.9491	0.9091	-0.324
Mof_O 	O 	0.194	0.5804	0.8572	-0.497
Mof_O 	O 	0.0509	0.4429	0.9091	-0.386
Mof_O 	O 	0.5804	0.3864	0.8572	-0.491
Mof_O 	O 	0.4429	0.392	0.9091	-0.362
Mof_O 	O 	0.6136	0.194	0.8572	-0.499
Mof_O 	O 	0.608	0.0509	0.9091	-0.384
Mof_O 	O 	0.806	0.4196	0.8572	-0.486
Mof_O 	O 	0.9491	0.5571	0.9091	-0.322
Mof_O 	O 	0.7634	0.2366	0.75	-0.288
Mof_O 	O 	0.4732	0.2366	0.75	-0.299
Mof_O 	O 	0.7634	0.5268	0.75	-0.276
Mof_O 	O 	0.2366	0.7634	0.75	-0.288
Mof_O 	O 	0.5268	0.7634	0.75	-0.276
Mof_O 	O 	0.2366	0.4732	0.75	-0.299
Mof_O 	O 	0.2366	0.7634	0.25	-0.295
Mof_O 	O 	0.5268	0.7634	0.25	-0.284
Mof_O 	O 	0.2366	0.4732	0.25	-0.307
Mof_O 	O 	0.7634	0.2366	0.25	-0.295
Mof_O 	O 	0.4732	0.2366	0.25	-0.307
Mof_O 	O 	0.7634	0.5268	0.25	-0.284
_end
