data_functionalizedCrystal
_audit_creation_method	'EQeq! by Chris Wilmer'
_symmetry_space_group_name_H-M	'P1'
_symmetry_Int_Tables_number	1
_symmetry_cell_setting	triclinic
loop_
_symmetry_equiv_pos_as_xyz
  x,y,z
_cell_length_a	11.0969
_cell_length_b	13.4016
_cell_length_c	15.9315
_cell_angle_alpha	65.1275
_cell_angle_beta	69.6185
_cell_angle_gamma	90
loop_
_atom_site_label
_atom_site_type_symbol
_atom_site_fract_x
_atom_site_fract_y
_atom_site_fract_z
_atom_site_charge
Mof_Ce	Ce	0.0276	0.6274	0.444	2.452
Mof_Ce	Ce	0.4716	0.3726	0.556	2.387
Mof_Ce	Ce	0.9716	0.0714	0.556	2.197
Mof_Ce	Ce	0.5276	0.9286	0.444	2.517
Mof_Ce	Ce	0.9982	0	-0	1.094
Mof_Ce	Ce	0.4982	0	-0	1.165
Mof_P 	P 	0.8433	0.7058	0.177	0.397
Mof_P 	P 	0.3816	0.6047	0.3958	0.455
Mof_P 	P 	0.0203	0.2942	0.823	0.429
Mof_P 	P 	0.7774	0.3953	0.6042	0.456
Mof_P 	P 	0.5203	0.8828	0.823	0.446
Mof_P 	P 	0.2774	0.0005	0.6042	0.332
Mof_P 	P 	0.3433	0.1172	0.177	0.354
Mof_P 	P 	0.8816	0.9995	0.3958	0.586
Mof_C 	C 	0.9961	0.8188	0.2184	0.281
Mof_C 	C 	0.8597	0.7527	0.264	-0.039
Mof_C 	C 	0.4388	0.6897	0.4408	-0.129
Mof_C 	C 	0.5427	0.6779	0.4828	0.292
Mof_C 	C 	0.2145	0.1812	0.7816	0.312
Mof_C 	C 	0.1237	0.2473	0.736	-0.038
Mof_C 	C 	0.8796	0.3103	0.5592	-0.15
Mof_C 	C 	0.0255	0.3221	0.5172	0.313
Mof_C 	C 	0.7145	0.0372	0.7816	0.22
Mof_C 	C 	0.6237	0.0167	0.736	-0.077
Mof_C 	C 	0.3796	0.1305	0.5592	-0.133
Mof_C 	C 	0.5255	0.1607	0.5172	0.282
Mof_C 	C 	0.4961	0.9628	0.2184	0.426
Mof_C 	C 	0.3597	0.9833	0.264	-0.015
Mof_C 	C 	0.9388	0.8695	0.4408	-0.14
Mof_C 	C 	0.0427	0.8393	0.4828	0.314
Mof_O 	O 	0.8526	0.81	0.0822	-0.38
Mof_O 	O 	0.0672	0.8364	0.129	-0.353
Mof_O 	O 	0.7106	0.6302	0.2248	-0.238
Mof_O 	O 	0.9554	0.6419	0.153	-0.275
Mof_O 	O 	0.0543	0.7953	0.2792	-0.431
Mof_O 	O 	0.8405	0.6624	0.3568	-0.27
Mof_O 	O 	0.264	0.647	0.3694	-0.501
Mof_O 	O 	0.3374	0.4815	0.476	-0.525
Mof_O 	O 	0.3571	0.7654	0.4526	-0.271
Mof_O 	O 	0.5858	0.5847	0.5026	-0.399
Mof_O 	O 	0.6309	0.7618	0.4498	-0.457
Mof_O 	O 	0.4953	0.605	0.306	-0.269
Mof_O 	O 	0.9348	0.19	0.9178	-0.32
Mof_O 	O 	0.1962	0.1636	0.871	-0.325
Mof_O 	O 	0.9354	0.3698	0.7752	-0.219
Mof_O 	O 	0.1084	0.3581	0.847	-0.193
Mof_O 	O 	0.3335	0.2047	0.7208	-0.448
Mof_O 	O 	0.1973	0.3376	0.6432	-0.255
Mof_O 	O 	0.6334	0.353	0.6306	-0.481
Mof_O 	O 	0.8134	0.5185	0.524	-0.535
Mof_O 	O 	0.8097	0.2346	0.5474	-0.256
Mof_O 	O 	0.0884	0.4153	0.4974	-0.409
Mof_O 	O 	0.0807	0.2382	0.5502	-0.432
Mof_O 	O 	0.8013	0.395	0.694	-0.244
Mof_O 	O 	0.4348	0.8922	0.9178	-0.268
Mof_O 	O 	0.6962	0.9654	0.871	-0.224
Mof_O 	O 	0.4354	0.855	0.7752	-0.183
Mof_O 	O 	0.6084	0.7949	0.847	-0.184
Mof_O 	O 	0.8335	0.0745	0.7208	-0.425
Mof_O 	O 	0.6973	0.0192	0.6432	-0.269
Mof_O 	O 	0.1334	0.0164	0.6306	-0.467
Mof_O 	O 	0.3134	0.9575	0.524	-0.462
Mof_O 	O 	0.3097	0.218	0.5474	-0.269
Mof_O 	O 	0.5884	0.0873	0.4974	-0.451
Mof_O 	O 	0.5807	0.2116	0.5502	-0.453
Mof_O 	O 	0.3013	0.911	0.694	-0.164
Mof_O 	O 	0.3526	0.1078	0.0822	-0.427
Mof_O 	O 	0.5672	0.0346	0.129	-0.515
Mof_O 	O 	0.2106	0.145	0.2248	-0.241
Mof_O 	O 	0.4554	0.2051	0.153	-0.279
Mof_O 	O 	0.5543	0.9255	0.2792	-0.48
Mof_O 	O 	0.3405	0.9808	0.3568	-0.242
Mof_O 	O 	0.764	0.9836	0.3694	-0.49
Mof_O 	O 	0.8374	0.0425	0.476	-0.584
Mof_O 	O 	0.8571	0.782	0.4526	-0.266
Mof_O 	O 	0.0858	0.9127	0.5026	-0.346
Mof_O 	O 	0.1309	0.7884	0.4498	-0.453
Mof_O 	O 	0.9953	0.089	0.306	-0.358
_end
