data_functionalizedCrystal
_audit_creation_method	'EQeq! by Chris Wilmer'
_symmetry_space_group_name_H-M	'P1'
_symmetry_Int_Tables_number	1
_symmetry_cell_setting	triclinic
loop_
_symmetry_equiv_pos_as_xyz
  x,y,z
_cell_length_a	18.208
_cell_length_b	8.797
_cell_length_c	20.665
_cell_angle_alpha	90
_cell_angle_beta	112.43
_cell_angle_gamma	90
loop_
_atom_site_label
_atom_site_type_symbol
_atom_site_fract_x
_atom_site_fract_y
_atom_site_fract_z
_atom_site_charge
Mof_Ce	Ce	0.97806	0.47194	0.23361	2.293
Mof_O 	O 	0.0442	0.2461	0.2117	-0.688
Mof_O 	O 	0.9553	0.2072	0.2952	-0.708
Mof_O 	O 	0.8933	0.4131	0.3058	-0.551
Mof_O 	O 	0.9844	0.7519	0.1793	-0.728
Mof_O 	O 	0.9713	0.5497	0.1122	-0.527
Mof_O 	O 	0.8755	0.3089	0.146	-0.598
Mof_O 	O 	0.9954	0.6977	0.3126	-0.729
Mof_Ce	Ce	0.00141	0.9729	0.25754	2.584
Mof_C 	C 	0.0807	0.1707	0.1806	0.496
Mof_C 	C 	0.9134	0.2777	0.3227	0.499
Mof_C 	C 	0.8764	0.189	0.1167	0.581
Mof_O 	O 	0.0913	0.0308	0.1881	-0.515
Mof_O 	O 	0.1237	0.097	0.3458	-0.492
Mof_O 	O 	0.1483	0.8611	0.3245	-0.467
Mof_O 	O 	0.8985	0.059	0.1456	-0.622
Mof_O 	O 	0.0135	0.8964	0.3812	-0.53
Mof_C 	C 	0.1133	0.2568	0.1336	-0.404
Mof_C 	C 	0.8932	0.2002	0.3776	-0.393
Mof_C 	C 	0.8488	0.1821	0.0373	-0.447
Mof_H 	H 	0.0975	0.3626	0.1314	0.121
Mof_H 	H 	0.1709	0.2527	0.1539	0.132
Mof_C 	C 	0.084	0.1922	0.0603	0.043
Mof_H 	H 	0.8958	0.0909	0.3726	0.116
Mof_H 	H 	0.8394	0.2264	0.3722	0.114
Mof_C 	C 	0.952	0.249	0.4516	-0.033
Mof_H 	H 	0.8908	0.1369	0.0258	0.15
Mof_C 	C 	0.8264	0.3306	0.9995	0.049
Mof_H 	H 	0.8032	0.1148	0.0197	0.148
Mof_H 	H 	0.0977	0.0932	0.0537	0.003
Mof_C 	C 	0.04	0.2719	0.0062	-0.012
Mof_C 	C 	0.936	0.305	0.501	-0.013
Mof_C 	C 	0.7791	0.3426	0.9348	-0.008
Mof_H 	H 	0.8478	0.4191	0.024	0.019
Mof_H 	H 	0.0285	0.3721	0.0133	0.039
Mof_C 	C 	0.0066	0.2094	0.932	-0.347
Mof_C 	C 	0.9948	0.3484	0.5695	-0.394
Mof_H 	H 	0.7539	0.2543	0.9126	0.019
Mof_C 	C 	0.7608	0.4853	0.892	-0.328
Mof_H 	H 	0.0316	0.1122	0.9318	0.12
Mof_H 	H 	0.9502	0.1911	0.9189	0.113
Mof_C 	C 	0.0177	0.3107	0.8772	0.473
Mof_H 	H 	0.9845	0.4518	0.5799	0.116
Mof_H 	H 	0.0472	0.3462	0.5677	0.131
Mof_C 	C 	0.9942	0.2448	0.628	0.474
Mof_C 	C 	0.6718	0.5093	0.8536	0.396
Mof_H 	H 	0.7857	0.4803	0.8581	0.105
Mof_H 	H 	0.7831	0.5715	0.9224	0.121
Mof_C 	C 	0.9127	0.293	0.4447	0.038
Mof_C 	C 	0.971	0.259	0.4995	0.065
Mof_Ce	Ce	0.52194	0.97194	0.26639	2.28
Mof_O 	O 	0.4558	0.7461	0.2883	-0.693
Mof_O 	O 	0.5447	0.7072	0.2048	-0.715
Mof_O 	O 	0.6067	0.9131	0.1942	-0.553
Mof_O 	O 	0.5156	0.2519	0.3207	-0.738
Mof_O 	O 	0.5287	0.0497	0.3878	-0.528
Mof_O 	O 	0.6245	0.8089	0.354	-0.601
Mof_O 	O 	0.5046	0.1977	0.1874	-0.736
Mof_Ce	Ce	0.49859	0.4729	0.24246	2.638
Mof_C 	C 	0.4193	0.6707	0.3194	0.494
Mof_C 	C 	0.5866	0.7777	0.1773	0.5
Mof_C 	C 	0.6236	0.689	0.3833	0.594
Mof_O 	O 	0.4087	0.5308	0.3119	-0.526
Mof_O 	O 	0.3763	0.597	0.1542	-0.514
Mof_O 	O 	0.3517	0.3611	0.1755	-0.475
Mof_O 	O 	0.6015	0.559	0.3544	-0.632
Mof_O 	O 	0.4865	0.3964	0.1188	-0.532
Mof_C 	C 	0.3867	0.7568	0.3664	-0.398
Mof_C 	C 	0.6068	0.7002	0.1224	-0.392
Mof_C 	C 	0.6512	0.6821	0.4627	-0.483
Mof_H 	H 	0.4025	0.8626	0.3686	0.119
Mof_H 	H 	0.3291	0.7527	0.3461	0.129
Mof_C 	C 	0.416	0.6922	0.4397	0.031
Mof_H 	H 	0.6042	0.5909	0.1274	0.115
Mof_H 	H 	0.6606	0.7264	0.1278	0.113
Mof_C 	C 	0.548	0.749	0.0484	-0.047
Mof_H 	H 	0.6092	0.6369	0.4742	0.16
Mof_C 	C 	0.6736	0.8306	0.5005	0.102
Mof_H 	H 	0.6968	0.6148	0.4803	0.158
Mof_H 	H 	0.4023	0.5932	0.4463	0.004
Mof_C 	C 	0.46	0.7719	0.4938	0.006
Mof_C 	C 	0.564	0.805	0.999	-0.017
Mof_C 	C 	0.7209	0.8426	0.5652	-0.054
Mof_H 	H 	0.6522	0.9191	0.476	-0.001
Mof_H 	H 	0.4715	0.8721	0.4867	0.034
Mof_C 	C 	0.4934	0.7094	0.568	-0.382
Mof_C 	C 	0.5052	0.8484	0.9305	-0.39
Mof_H 	H 	0.7461	0.7543	0.5874	0.037
Mof_C 	C 	0.7392	0.9853	0.608	-0.269
Mof_H 	H 	0.4684	0.6122	0.5682	0.128
Mof_H 	H 	0.5498	0.6911	0.5811	0.131
Mof_C 	C 	0.4823	0.8107	0.6228	0.485
Mof_H 	H 	0.5155	0.9518	0.9201	0.117
Mof_H 	H 	0.4528	0.8462	0.9323	0.127
Mof_C 	C 	0.5058	0.7448	0.872	0.479
Mof_C 	C 	0.8282	0.0093	0.6464	0.362
Mof_H 	H 	0.7143	0.9803	0.6419	0.092
Mof_H 	H 	0.7169	0.0715	0.5776	0.101
Mof_C 	C 	0.5873	0.793	0.0553	0.047
Mof_C 	C 	0.529	0.759	0.0005	0.071
Mof_Ce	Ce	0.02194	0.52806	0.76639	2.292
Mof_O 	O 	0.9558	0.7539	0.7883	-0.689
Mof_O 	O 	0.0447	0.7928	0.7048	-0.709
Mof_O 	O 	0.1067	0.5869	0.6942	-0.552
Mof_O 	O 	0.0156	0.2481	0.8207	-0.728
Mof_O 	O 	0.0287	0.4503	0.8878	-0.527
Mof_O 	O 	0.1245	0.6911	0.854	-0.598
Mof_O 	O 	0.0046	0.3023	0.6874	-0.729
Mof_Ce	Ce	0.99859	0.0271	0.74246	2.584
Mof_C 	C 	0.9193	0.8293	0.8194	0.496
Mof_C 	C 	0.0866	0.7223	0.6773	0.499
Mof_C 	C 	0.1236	0.811	0.8833	0.581
Mof_O 	O 	0.9087	0.9692	0.8119	-0.515
Mof_O 	O 	0.8763	0.903	0.6542	-0.492
Mof_O 	O 	0.8517	0.1389	0.6755	-0.467
Mof_O 	O 	0.1015	0.941	0.8544	-0.622
Mof_O 	O 	0.9865	0.1036	0.6188	-0.53
Mof_C 	C 	0.8867	0.7432	0.8664	-0.404
Mof_C 	C 	0.1068	0.7998	0.6224	-0.393
Mof_C 	C 	0.1512	0.8179	0.9627	-0.447
Mof_H 	H 	0.9025	0.6374	0.8686	0.121
Mof_H 	H 	0.8291	0.7473	0.8461	0.132
Mof_C 	C 	0.916	0.8078	0.9397	0.043
Mof_H 	H 	0.1042	0.9091	0.6274	0.116
Mof_H 	H 	0.1606	0.7736	0.6278	0.114
Mof_C 	C 	0.048	0.751	0.5484	-0.033
Mof_H 	H 	0.1092	0.8631	0.9742	0.15
Mof_C 	C 	0.1736	0.6694	0.0005	0.049
Mof_H 	H 	0.1968	0.8852	0.9803	0.148
Mof_H 	H 	0.9023	0.9068	0.9463	0.003
Mof_C 	C 	0.96	0.7281	0.9938	-0.012
Mof_C 	C 	0.064	0.695	0.499	-0.013
Mof_C 	C 	0.2209	0.6574	0.0652	-0.008
Mof_H 	H 	0.1522	0.5809	0.976	0.019
Mof_H 	H 	0.9715	0.6279	0.9867	0.039
Mof_C 	C 	0.9934	0.7906	0.068	-0.347
Mof_C 	C 	0.0052	0.6516	0.4305	-0.394
Mof_H 	H 	0.2461	0.7457	0.0874	0.019
Mof_C 	C 	0.2392	0.5147	0.108	-0.328
Mof_H 	H 	0.9684	0.8878	0.0682	0.12
Mof_H 	H 	0.0498	0.8089	0.0811	0.113
Mof_C 	C 	0.9823	0.6893	0.1228	0.473
Mof_H 	H 	0.0155	0.5482	0.4201	0.116
Mof_H 	H 	0.9528	0.6538	0.4323	0.131
Mof_C 	C 	0.0058	0.7552	0.372	0.474
Mof_C 	C 	0.3282	0.4907	0.1464	0.396
Mof_H 	H 	0.2143	0.5197	0.1419	0.105
Mof_H 	H 	0.2169	0.4285	0.0776	0.121
Mof_C 	C 	0.0873	0.707	0.5553	0.038
Mof_C 	C 	0.029	0.741	0.5005	0.065
Mof_Ce	Ce	0.47806	0.02806	0.73361	2.28
Mof_O 	O 	0.5442	0.2539	0.7117	-0.693
Mof_O 	O 	0.4553	0.2928	0.7952	-0.715
Mof_O 	O 	0.3933	0.0869	0.8058	-0.553
Mof_O 	O 	0.4844	0.7481	0.6793	-0.738
Mof_O 	O 	0.4713	0.9503	0.6122	-0.528
Mof_O 	O 	0.3755	0.1911	0.646	-0.601
Mof_O 	O 	0.4954	0.8023	0.8126	-0.736
Mof_Ce	Ce	0.50141	0.5271	0.75754	2.638
Mof_C 	C 	0.5807	0.3293	0.6806	0.494
Mof_C 	C 	0.4134	0.2223	0.8227	0.5
Mof_C 	C 	0.3764	0.311	0.6167	0.594
Mof_O 	O 	0.5913	0.4692	0.6881	-0.526
Mof_O 	O 	0.6237	0.403	0.8458	-0.514
Mof_O 	O 	0.6483	0.6389	0.8245	-0.475
Mof_O 	O 	0.3985	0.441	0.6456	-0.632
Mof_O 	O 	0.5135	0.6036	0.8812	-0.532
Mof_C 	C 	0.6133	0.2432	0.6336	-0.398
Mof_C 	C 	0.3932	0.2998	0.8776	-0.392
Mof_C 	C 	0.3488	0.3179	0.5373	-0.483
Mof_H 	H 	0.5975	0.1374	0.6314	0.119
Mof_H 	H 	0.6709	0.2473	0.6539	0.129
Mof_C 	C 	0.584	0.3078	0.5603	0.031
Mof_H 	H 	0.3958	0.4091	0.8726	0.115
Mof_H 	H 	0.3394	0.2736	0.8722	0.113
Mof_C 	C 	0.452	0.251	0.9516	-0.047
Mof_H 	H 	0.3908	0.3631	0.5258	0.16
Mof_C 	C 	0.3264	0.1694	0.4995	0.102
Mof_H 	H 	0.3032	0.3852	0.5197	0.158
Mof_H 	H 	0.5977	0.4068	0.5537	0.004
Mof_C 	C 	0.54	0.2281	0.5062	0.006
Mof_C 	C 	0.436	0.195	0.001	-0.017
Mof_C 	C 	0.2791	0.1574	0.4348	-0.054
Mof_H 	H 	0.3478	0.0809	0.524	-0.001
Mof_H 	H 	0.5285	0.1279	0.5133	0.034
Mof_C 	C 	0.5066	0.2906	0.432	-0.382
Mof_C 	C 	0.4948	0.1516	0.0695	-0.39
Mof_H 	H 	0.2539	0.2457	0.4126	0.037
Mof_C 	C 	0.2608	0.0147	0.392	-0.269
Mof_H 	H 	0.5316	0.3878	0.4318	0.128
Mof_H 	H 	0.4502	0.3089	0.4189	0.131
Mof_C 	C 	0.5177	0.1893	0.3772	0.485
Mof_H 	H 	0.4845	0.0482	0.0799	0.117
Mof_H 	H 	0.5472	0.1538	0.0677	0.127
Mof_C 	C 	0.4942	0.2552	0.128	0.479
Mof_C 	C 	0.1718	0.9907	0.3536	0.362
Mof_H 	H 	0.2857	0.0197	0.3581	0.092
Mof_H 	H 	0.2831	0.9285	0.4224	0.101
Mof_C 	C 	0.4127	0.207	0.9447	0.047
Mof_C 	C 	0.471	0.241	0.9995	0.071
_end
