data_functionalizedCrystal
_audit_creation_method	'EQeq! by Chris Wilmer'
_symmetry_space_group_name_H-M	'P1'
_symmetry_Int_Tables_number	1
_symmetry_cell_setting	triclinic
loop_
_symmetry_equiv_pos_as_xyz
  x,y,z
_cell_length_a	10.0597
_cell_length_b	10.7824
_cell_length_c	13.7261
_cell_angle_alpha	79.141
_cell_angle_beta	78.801
_cell_angle_gamma	86.578
loop_
_atom_site_label
_atom_site_type_symbol
_atom_site_fract_x
_atom_site_fract_y
_atom_site_fract_z
_atom_site_charge
Mof_Ho	Ho	0.31943	0.92216	0.79566	1.938
Mof_Ho	Ho	0.68057	0.07784	0.20434	1.878
Mof_Co	Co	4.95523e-18	0.5	-0	1.062
Mof_H 	H 	0.2807	0.3593	0.8685	0.039
Mof_H 	H 	0.3471	0.327	0.5754	0.102
Mof_H 	H 	0.3291	0.6704	0.6515	0.07
Mof_H 	H 	0.3548	0.4506	0.24	0.079
Mof_H 	H 	0.3666	0.569	0.0824	-0.006
Mof_H 	H 	0.3547	0.8795	0.185	0.008
Mof_H 	H 	0.3464	0.774	0.3475	0.067
Mof_H 	H 	0.8226	0.913	0.7846	0.101
Mof_H 	H 	0.693	0.856	0.5377	0.137
Mof_H 	H 	0.0914	0.8421	0.5432	0.154
Mof_H 	H 	0.008	0.4772	0.3706	0.101
Mof_H 	H 	0.0148	0.4071	0.222	-0.031
Mof_H 	H 	0.0342	0.7515	0.0705	-0.055
Mof_H 	H 	0.0169	0.8321	0.2156	0.055
Mof_H 	H 	0.3804	0.6459	0.4804	0.139
Mof_H 	H 	0.881	0.8471	0.3824	0.165
Mof_H 	H 	0.7193	0.6407	0.1315	0.016
Mof_H 	H 	0.6529	0.673	0.4246	0.098
Mof_H 	H 	0.6709	0.3296	0.3485	0.07
Mof_H 	H 	0.6452	0.5494	0.76	0.084
Mof_H 	H 	0.6334	0.431	0.9176	0.043
Mof_H 	H 	0.6453	0.1205	0.815	0.023
Mof_H 	H 	0.6536	0.226	0.6525	0.066
Mof_H 	H 	0.1774	0.087	0.2154	0.018
Mof_H 	H 	0.307	0.144	0.4623	0.092
Mof_H 	H 	0.9086	0.1579	0.4568	0.063
Mof_H 	H 	0.992	0.5228	0.6294	0.114
Mof_H 	H 	0.9852	0.5929	0.778	-0.005
Mof_H 	H 	0.9658	0.2485	0.9295	0.002
Mof_H 	H 	0.9831	0.1679	0.7844	0.072
Mof_H 	H 	0.6196	0.3541	0.5196	0.141
Mof_H 	H 	0.119	0.1529	0.6176	0.151
Mof_C 	C 	0.3006	0.5281	0.7721	-0.104
Mof_C 	C 	0.2965	0.3968	0.8007	0.003
Mof_C 	C 	0.3166	0.323	0.7254	-0.042
Mof_C 	C 	0.3353	0.3777	0.6244	-0.106
Mof_C 	C 	0.3364	0.5087	0.5959	0.132
Mof_C 	C 	0.323	0.5831	0.6702	-0.071
Mof_C 	C 	0.3125	0.1823	0.7524	0.307
Mof_C 	C 	0.2692	0.6087	0.8519	0.443
Mof_C 	C 	0.332	0.5161	0.4165	0.218
Mof_C 	C 	0.3491	0.5988	0.3144	0.012
Mof_C 	C 	0.3552	0.5382	0.2311	-0.1
Mof_C 	C 	0.3618	0.6102	0.1368	0.065
Mof_C 	C 	0.3554	0.7917	0.1968	0.065
Mof_C 	C 	0.3497	0.7292	0.2954	-0.096
Mof_C 	C 	0.0934	0.8918	0.7189	0.223
Mof_C 	C 	0.974	0.881	0.6704	0.119
Mof_C 	C 	0.8407	0.8965	0.7191	-0.135
Mof_C 	C 	0.7367	0.8875	0.67	0.052
Mof_C 	C 	0.7638	0.86	0.5715	-0.193
Mof_C 	C 	0.8949	0.8394	0.5256	0.26
Mof_C 	C 	0.0021	0.8526	0.575	-0.279
Mof_C 	C 	0.5908	0.9029	0.7168	0.276
Mof_C 	C 	0.0061	0.7058	0.4094	0.182
Mof_C 	C 	0.0085	0.6643	0.3103	0.026
Mof_C 	C 	0.0102	0.5349	0.3107	-0.123
Mof_C 	C 	0.0153	0.4937	0.2206	0.079
Mof_C 	C 	0.0252	0.6961	0.132	0.067
Mof_C 	C 	0.0169	0.7451	0.2187	-0.121
Mof_C 	C 	0.6994	0.4719	0.2279	-0.116
Mof_C 	C 	0.7035	0.6032	0.1993	0.025
Mof_C 	C 	0.6834	0.677	0.2746	-0.051
Mof_C 	C 	0.6647	0.6223	0.3756	-0.091
Mof_C 	C 	0.6636	0.4913	0.4041	0.131
Mof_C 	C 	0.677	0.4169	0.3298	-0.058
Mof_C 	C 	0.6875	0.8177	0.2476	0.321
Mof_C 	C 	0.7308	0.3913	0.1481	0.453
Mof_C 	C 	0.668	0.4839	0.5835	0.222
Mof_C 	C 	0.6509	0.4012	0.6856	0.008
Mof_C 	C 	0.6448	0.4618	0.7689	-0.086
Mof_C 	C 	0.6382	0.3898	0.8632	0.06
Mof_C 	C 	0.6446	0.2083	0.8032	0.065
Mof_C 	C 	0.6503	0.2708	0.7046	-0.089
Mof_C 	C 	0.9066	0.1082	0.2811	0.353
Mof_C 	C 	0.026	0.119	0.3296	-0.142
Mof_C 	C 	0.1593	0.1035	0.2809	0.031
Mof_C 	C 	0.2633	0.1125	0.33	-0.07
Mof_C 	C 	0.2362	0.14	0.4285	-0.063
Mof_C 	C 	0.1051	0.1606	0.4744	0.081
Mof_C 	C 	0.9979	0.1474	0.425	0.021
Mof_C 	C 	0.4092	0.0971	0.2832	0.321
Mof_C 	C 	0.9939	0.2942	0.5906	0.228
Mof_C 	C 	0.9915	0.3357	0.6897	0.026
Mof_C 	C 	0.9898	0.4651	0.6893	-0.109
Mof_C 	C 	0.9847	0.5063	0.7794	0.086
Mof_C 	C 	0.9748	0.3039	0.868	0.071
Mof_C 	C 	0.9831	0.2549	0.7813	-0.099
Mof_N 	N 	0.3538	0.5691	0.4945	-0.235
Mof_N 	N 	0.3617	0.7358	0.1187	-0.154
Mof_N 	N 	0.9201	0.8052	0.4292	-0.244
Mof_N 	N 	0.0208	0.5704	0.1325	-0.261
Mof_N 	N 	0.6462	0.4309	0.5055	-0.234
Mof_N 	N 	0.6383	0.2642	0.8813	-0.122
Mof_N 	N 	0.0799	0.1948	0.5708	-0.245
Mof_N 	N 	0.9792	0.4296	0.8675	-0.221
Mof_O 	O 	0.1939	0.5679	0.9334	-0.442
Mof_O 	O 	0.3246	0.7166	0.8305	-0.532
Mof_O 	O 	0.2936	0.1177	0.6895	-0.429
Mof_O 	O 	0.3288	0.1254	0.8385	-0.435
Mof_O 	O 	0.3058	0.4058	0.4251	-0.229
Mof_O 	O 	0.2098	0.8835	0.6691	-0.401
Mof_O 	O 	0.0762	0.9079	0.8107	-0.418
Mof_O 	O 	0.5564	0.9033	0.8111	-0.395
Mof_O 	O 	0.5007	0.9161	0.6645	-0.415
Mof_O 	O 	0.0774	0.6516	0.4672	-0.227
Mof_O 	O 	0.8061	0.4321	0.0666	-0.501
Mof_O 	O 	0.6754	0.2834	0.1695	-0.552
Mof_O 	O 	0.7064	0.8823	0.3105	-0.423
Mof_O 	O 	0.6712	0.8746	0.1615	-0.455
Mof_O 	O 	0.6942	0.5942	0.5749	-0.225
Mof_O 	O 	0.7902	0.1165	0.3309	-0.424
Mof_O 	O 	0.9238	0.0921	0.1893	-0.448
Mof_O 	O 	0.4436	0.0967	0.1889	-0.433
Mof_O 	O 	0.4993	0.0839	0.3355	-0.422
Mof_O 	O 	0.9226	0.3484	0.5328	-0.217
_end
