data_functionalizedCrystal
_audit_creation_method	'EQeq! by Chris Wilmer'
_symmetry_space_group_name_H-M	'P1'
_symmetry_Int_Tables_number	1
_symmetry_cell_setting	triclinic
loop_
_symmetry_equiv_pos_as_xyz
  x,y,z
_cell_length_a	10.9555
_cell_length_b	14.4397
_cell_length_c	14.7173
_cell_angle_alpha	85.062
_cell_angle_beta	69.983
_cell_angle_gamma	78.378
loop_
_atom_site_label
_atom_site_type_symbol
_atom_site_fract_x
_atom_site_fract_y
_atom_site_fract_z
_atom_site_charge
Mof_Fe	Fe	0.53309	0.25057	0.50532	0.766
Mof_Fe	Fe	0.46691	0.74943	0.49468	0.766
Mof_Fe	Fe	0.89094	0.75094	0.98346	0.562
Mof_Fe	Fe	0.10906	0.24906	0.01654	0.562
Mof_H 	H 	0.3302	0.1664	0.467	-0.001
Mof_H 	H 	0.8545	0.7888	0.5799	0.082
Mof_H 	H 	0.9505	0.0908	0.8454	0.075
Mof_H 	H 	0.8947	0.5945	0.3805	0.08
Mof_H 	H 	0.3833	0.4311	0.4471	-0.004
Mof_H 	H 	0.1053	0.4055	0.6195	0.08
Mof_H 	H 	0.3143	0.9319	0.4481	-0.003
Mof_H 	H 	0.9205	0.109	0.3622	0.076
Mof_H 	H 	0.2186	0.5477	0.0775	0.01
Mof_H 	H 	0.6167	0.5689	0.5529	-0.004
Mof_H 	H 	0.7321	0.3321	0.5546	-0.002
Mof_H 	H 	0.8244	0.5839	0.818	0.068
Mof_H 	H 	0.8878	0.9715	0.9595	0.004
Mof_H 	H 	0.0131	0.7794	0.7586	0.008
Mof_H 	H 	0.1994	0.4828	0.4016	0.085
Mof_H 	H 	0.0495	0.9092	0.1546	0.075
Mof_H 	H 	0.9185	0.2824	0.5992	0.084
Mof_H 	H 	0.1455	0.2112	0.4201	0.081
Mof_H 	H 	0.2679	0.6679	0.4454	-0.002
Mof_H 	H 	0.6857	0.0681	0.5519	-0.003
Mof_H 	H 	0.8006	0.5172	0.5984	0.085
Mof_H 	H 	0.1756	0.4161	0.182	0.068
Mof_H 	H 	0.0795	0.891	0.6378	0.076
Mof_H 	H 	0.1122	0.0285	0.0405	0.004
Mof_H 	H 	0.7814	0.4523	0.9225	0.01
Mof_H 	H 	0.0581	0.282	0.7325	0.01
Mof_H 	H 	0.1283	0.989	0.4049	0.082
Mof_H 	H 	0.6698	0.8336	0.533	-0.002
Mof_H 	H 	0.9869	0.2206	0.2414	0.008
Mof_H 	H 	0.9419	0.718	0.2675	0.01
Mof_H 	H 	0.8717	0.011	0.5951	0.082
Mof_H 	H 	0.0815	0.7176	0.4008	0.084
Mof_Pt	Pt	0.26684	0.50737	0.74616	0.116
Mof_Pt	Pt	0.33494	0.00326	0.74723	0.124
Mof_Pt	Pt	0.66506	0.99674	0.25277	0.124
Mof_Pt	Pt	0.73316	0.49263	0.25384	0.116
Mof_C 	C 	0.2239	0.4176	0.4155	-0.159
Mof_C 	C 	0.0396	0.9096	0.7034	-0.132
Mof_C 	C 	0.1549	0.9228	0.4125	-0.153
Mof_C 	C 	0.3335	0.386	0.4426	0.092
Mof_C 	C 	0.0004	0.1566	0.2237	0.063
Mof_C 	C 	0.9658	0.5061	0.7069	0.073
Mof_C 	C 	0.8713	0.5221	0.7984	-0.133
Mof_C 	C 	0.8479	0.4433	0.8608	0.067
Mof_C 	C 	0.7196	0.0969	0.1526	0.02
Mof_C 	C 	0.87	0.3979	0.165	0.036
Mof_C 	C 	0.3976	0.1043	0.6518	0.037
Mof_C 	C 	0.2804	0.9031	0.8474	0.02
Mof_C 	C 	0.1276	0.763	0.4103	-0.149
Mof_C 	C 	0.0828	0.86	0.3971	0.085
Mof_C 	C 	0.6665	0.614	0.5574	0.092
Mof_C 	C 	0.9615	0.5832	0.3191	-0.144
Mof_C 	C 	0.1521	0.5567	0.1392	0.067
Mof_C 	C 	0.1921	0.2576	0.4267	-0.154
Mof_C 	C 	0.0733	0.0446	0.1068	0.068
Mof_C 	C 	0.1491	0.353	0.4088	0.086
Mof_C 	C 	0.9604	0.0904	0.2966	-0.132
Mof_C 	C 	0.3941	0.4076	0.6569	0.037
Mof_C 	C 	0.0366	0.9725	0.1741	-0.13
Mof_C 	C 	0.0342	0.4939	0.2931	0.073
Mof_C 	C 	0.0385	0.4168	0.6809	-0.144
Mof_C 	C 	0.7928	0.5906	0.1515	0.035
Mof_C 	C 	0.2072	0.4094	0.8485	0.035
Mof_C 	C 	0.7608	0.2663	0.5629	0.088
Mof_C 	C 	0.2854	0.0949	0.8533	0.027
Mof_C 	C 	0.8079	0.7424	0.5733	-0.154
Mof_C 	C 	0.2392	0.7337	0.4371	0.088
Mof_C 	C 	0.9634	0.0275	0.8259	-0.13
Mof_C 	C 	0.8724	0.237	0.5897	-0.149
Mof_C 	C 	0.3287	0.6072	0.6468	0.041
Mof_C 	C 	0.734	0.1121	0.5611	0.09
Mof_C 	C 	0.6206	0.0923	0.3549	0.04
Mof_C 	C 	0.9797	0.997	0.2721	0.07
Mof_C 	C 	0.13	0.6021	0.835	0.036
Mof_C 	C 	0.6024	0.8957	0.3482	0.037
Mof_C 	C 	0.1287	0.4779	0.2016	-0.133
Mof_C 	C 	0.0203	0.003	0.7279	0.07
Mof_C 	C 	0.9172	0.14	0.6029	0.085
Mof_C 	C 	0.7146	0.9051	0.1467	0.027
Mof_C 	C 	0.303	0.2314	0.454	0.09
Mof_C 	C 	0.697	0.7686	0.546	0.09
Mof_C 	C 	0.0091	0.344	0.7491	0.073
Mof_C 	C 	0.8451	0.0772	0.5875	-0.153
Mof_C 	C 	0.9909	0.656	0.2509	0.073
Mof_C 	C 	0.6059	0.5924	0.3431	0.037
Mof_C 	C 	0.9996	0.8434	0.7763	0.063
Mof_C 	C 	0.6713	0.3928	0.3532	0.041
Mof_C 	C 	0.8509	0.647	0.5912	0.086
Mof_C 	C 	0.3794	0.9077	0.6451	0.04
Mof_C 	C 	0.266	0.8879	0.4389	0.09
Mof_C 	C 	0.9267	0.9554	0.8932	0.068
Mof_C 	C 	0.7761	0.5824	0.5845	-0.159
Mof_S 	S 	0.01123	0.61252	0.62202	-0.064
Mof_S 	S 	0.98877	0.38748	0.37798	-0.064
Mof_S 	S 	0.9229	0.89968	0.36722	-0.066
Mof_S 	S 	0.0771	0.10032	0.63278	-0.066
Mof_N 	N 	0.405	0.8486	0.5897	-0.198
Mof_N 	N 	0.441	0.1625	0.5988	-0.197
Mof_N 	N 	0.0839	0.6437	0.1639	-0.137
Mof_N 	N 	0.4598	0.35	0.6017	-0.197
Mof_N 	N 	0.6274	0.3382	0.4106	-0.197
Mof_N 	N 	0.2506	0.8462	0.9064	-0.115
Mof_N 	N 	0.9536	0.347	0.114	-0.175
Mof_N 	N 	0.7494	0.1538	0.0936	-0.115
Mof_N 	N 	0.9429	0.8645	0.8703	-0.18
Mof_N 	N 	0.5402	0.65	0.3983	-0.197
Mof_N 	N 	0.375	0.2942	0.4632	-0.206
Mof_N 	N 	0.6907	0.2049	0.5479	-0.205
Mof_N 	N 	0.1695	0.3566	0.9089	-0.174
Mof_N 	N 	0.9161	0.3563	0.8361	-0.137
Mof_N 	N 	0.8305	0.6434	0.0911	-0.174
Mof_N 	N 	0.7505	0.8544	0.0833	-0.174
Mof_N 	N 	0.625	0.7058	0.5368	-0.206
Mof_N 	N 	0.559	0.8375	0.4012	-0.197
Mof_N 	N 	0.595	0.1514	0.4103	-0.198
Mof_N 	N 	0.3726	0.6618	0.5894	-0.197
Mof_N 	N 	0.0464	0.653	0.886	-0.175
Mof_N 	N 	0.3093	0.7951	0.4521	-0.205
Mof_N 	N 	0.2495	0.1456	0.9167	-0.174
Mof_N 	N 	0.0571	0.1355	0.1297	-0.18
_end
