data_functionalizedCrystal
_audit_creation_method	'EQeq! by Chris Wilmer'
_symmetry_space_group_name_H-M	'P1'
_symmetry_Int_Tables_number	1
_symmetry_cell_setting	triclinic
loop_
_symmetry_equiv_pos_as_xyz
  x,y,z
_cell_length_a	9.333
_cell_length_b	12.2631
_cell_length_c	20.4796
_cell_angle_alpha	75.9866
_cell_angle_beta	76.8288
_cell_angle_gamma	67.6334
loop_
_atom_site_label
_atom_site_type_symbol
_atom_site_fract_x
_atom_site_fract_y
_atom_site_fract_z
_atom_site_charge
Mof_Cd	Cd	-0	0	-0	0.324
Mof_Cd	Cd	-5.46867e-17	0.5	0.5	0.355
Mof_H 	H 	0.5658	0.8205	0.8361	0.169
Mof_H 	H 	0.8815	0.5029	0.7999	0.171
Mof_H 	H 	0.9187	0.6548	0.9442	0.155
Mof_H 	H 	0.6646	0.9304	0.9044	0.14
Mof_H 	H 	0.7501	0.8448	0.9648	0.125
Mof_H 	H 	0.5682	0.7469	0.0685	0.06
Mof_H 	H 	0.2855	0.8095	0.1019	0.04
Mof_H 	H 	0.3673	0.989	0.9212	0.023
Mof_H 	H 	0.5346	0.7382	0.75	0.125
Mof_H 	H 	0.5919	0.598	0.763	0.133
Mof_H 	H 	0.7858	0.8186	0.6702	0.059
Mof_H 	H 	0.9499	0.7496	0.5662	0.038
Mof_H 	H 	0.7502	0.5133	0.6583	0.027
Mof_H 	H 	0.0938	0.4651	0.9335	0.116
Mof_H 	H 	0.1593	0.4788	0.8556	0.146
Mof_H 	H 	0.2212	0.295	0.7994	0.069
Mof_H 	H 	0.1715	0.1078	0.8366	0.035
Mof_H 	H 	0.9436	0.3029	0.9763	0.034
Mof_H 	H 	0.2224	0.6795	0.6639	0.166
Mof_H 	H 	0.1843	0.9971	0.7001	0.169
Mof_H 	H 	0.5177	0.8452	0.5558	0.147
Mof_H 	H 	0.4994	0.5696	0.5956	0.134
Mof_H 	H 	0.5597	0.6552	0.5352	0.117
Mof_H 	H 	0.3836	0.7531	0.4315	0.057
Mof_H 	H 	0.1969	0.6905	0.3981	0.041
Mof_H 	H 	0.2775	0.511	0.5788	0.021
Mof_H 	H 	0.0228	0.7618	0.75	0.128
Mof_H 	H 	0.9529	0.902	0.737	0.154
Mof_H 	H 	0.2746	0.6814	0.8298	0.056
Mof_H 	H 	0.2657	0.7504	0.9338	0.036
Mof_H 	H 	0.9218	0.9867	0.8417	0.048
Mof_H 	H 	0.4924	0.0349	0.5665	0.11
Mof_H 	H 	0.4937	0.0212	0.6444	0.142
Mof_H 	H 	0.3156	0.205	0.7006	0.069
Mof_H 	H 	0.1159	0.3922	0.6634	0.035
Mof_H 	H 	0.2228	0.1971	0.5237	0.004
Mof_H 	H 	0.4342	0.1795	0.1639	0.153
Mof_H 	H 	0.1185	0.4971	0.2001	0.144
Mof_H 	H 	0.0813	0.3452	0.0558	0.12
Mof_H 	H 	0.3354	0.0696	0.0956	0.12
Mof_H 	H 	0.2499	0.1552	0.0352	0.102
Mof_H 	H 	0.4318	0.2531	0.9315	0.052
Mof_H 	H 	0.7145	0.1905	0.8981	0.049
Mof_H 	H 	0.6327	0.011	0.0788	0.022
Mof_H 	H 	0.4654	0.2618	0.25	0.117
Mof_H 	H 	0.4081	0.402	0.237	0.127
Mof_H 	H 	0.2142	0.1814	0.3298	0.051
Mof_H 	H 	0.0501	0.2504	0.4338	0.027
Mof_H 	H 	0.2498	0.4867	0.3417	0.024
Mof_H 	H 	0.9062	0.5349	0.0665	0.095
Mof_H 	H 	0.8407	0.5212	0.1444	0.126
Mof_H 	H 	0.7788	0.705	0.2006	0.068
Mof_H 	H 	0.8285	0.8922	0.1634	0.045
Mof_H 	H 	0.0564	0.6971	0.0237	-0.023
Mof_H 	H 	0.7776	0.3205	0.3361	0.157
Mof_H 	H 	0.8157	0.0029	0.2999	0.146
Mof_H 	H 	0.4823	0.1548	0.4442	0.13
Mof_H 	H 	0.5006	0.4304	0.4044	0.129
Mof_H 	H 	0.4403	0.3448	0.4648	0.112
Mof_H 	H 	0.6164	0.2469	0.5685	0.056
Mof_H 	H 	0.8031	0.3095	0.6019	0.046
Mof_H 	H 	0.7225	0.489	0.4212	0.022
Mof_H 	H 	0.9772	0.2382	0.25	0.111
Mof_H 	H 	0.0471	0.098	0.263	0.097
Mof_H 	H 	0.7254	0.3186	0.1702	0.054
Mof_H 	H 	0.7343	0.2496	0.0662	0.032
Mof_H 	H 	0.0782	0.0133	0.1583	-0.008
Mof_H 	H 	0.5076	0.9651	0.4335	0.101
Mof_H 	H 	0.5063	0.9788	0.3556	0.132
Mof_H 	H 	0.6844	0.795	0.2994	0.068
Mof_H 	H 	0.8841	0.6078	0.3366	0.044
Mof_H 	H 	0.7772	0.8029	0.4763	0.007
Mof_C 	C 	0.733	0.7538	0.897	0.283
Mof_C 	C 	0.6553	0.7557	0.8459	-0.329
Mof_C 	C 	0.7101	0.6618	0.8094	0.274
Mof_C 	C 	0.8441	0.5658	0.8242	-0.333
Mof_C 	C 	0.92285	0.5623	0.8746	0.296
Mof_C 	C 	0.8658	0.6569	0.9103	-0.342
Mof_C 	C 	0.674	0.8561	0.9363	-0.26
Mof_C 	C 	0.4935	0.8032	0.0428	-0.027
Mof_C 	C 	0.3376	0.8381	0.0609	0.024
Mof_C 	C 	0.38175	0.9363	0.9622	0.096
Mof_C 	C 	0.6265	0.6662	0.7528	-0.259
Mof_C 	C 	0.7987	0.7491	0.6553	-0.021
Mof_C 	C 	0.8888	0.7103	0.5977	0.014
Mof_C 	C 	0.78021	0.58058	0.6478	0.071
Mof_C 	C 	0.0745	0.4634	0.8892	-0.287
Mof_C 	C 	0.1591	0.2741	0.8393	-0.026
Mof_C 	C 	0.1314	0.1711	0.8605	0.02
Mof_C 	C 	0.0065	0.2767	0.9369	0.046
Mof_C 	C 	0.3838	0.7462	0.603	0.276
Mof_C 	C 	0.2569	0.7443	0.6541	-0.33
Mof_C 	C 	0.1813	0.8382	0.6906	0.278
Mof_C 	C 	0.2341	0.9342	0.6758	-0.334
Mof_C 	C 	0.35975	0.9377	0.6254	0.287
Mof_C 	C 	0.433	0.8431	0.5897	-0.338
Mof_C 	C 	0.4664	0.6439	0.5637	-0.255
Mof_C 	C 	0.3395	0.6968	0.4572	-0.015
Mof_C 	C 	0.2366	0.6619	0.4391	0.017
Mof_C 	C 	0.28025	0.5637	0.5378	0.079
Mof_C 	C 	0.0455	0.8338	0.7472	-0.291
Mof_C 	C 	0.2031	0.7509	0.8447	-0.026
Mof_C 	C 	0.1968	0.7897	0.9023	0.013
Mof_C 	C 	0.00859	0.91942	0.8522	0.042
Mof_C 	C 	0.4271	0.0366	0.6108	-0.277
Mof_C 	C 	0.2725	0.2259	0.6607	-0.025
Mof_C 	C 	0.163	0.3289	0.6395	0.02
Mof_C 	C 	0.2201	0.2233	0.5631	0.076
Mof_C 	C 	0.267	0.2462	0.103	0.239
Mof_C 	C 	0.3447	0.2443	0.1541	-0.296
Mof_C 	C 	0.2899	0.3382	0.1906	0.239
Mof_C 	C 	0.1559	0.4342	0.1758	-0.287
Mof_C 	C 	0.07715	0.4377	0.1254	0.216
Mof_C 	C 	0.1342	0.3431	0.0897	-0.293
Mof_C 	C 	0.326	0.1439	0.0637	-0.231
Mof_C 	C 	0.5065	0.1968	0.9572	0.006
Mof_C 	C 	0.6624	0.1619	0.9391	0.01
Mof_C 	C 	0.61825	0.0637	0.0378	0.063
Mof_C 	C 	0.3735	0.3338	0.2472	-0.241
Mof_C 	C 	0.2013	0.2509	0.3447	-0.024
Mof_C 	C 	0.1112	0.2897	0.4023	0.009
Mof_C 	C 	0.21979	0.41942	0.3522	0.068
Mof_C 	C 	0.9255	0.5366	0.1108	-0.208
Mof_C 	C 	0.8409	0.7259	0.1607	-0.015
Mof_C 	C 	0.8686	0.8289	0.1395	0.02
Mof_C 	C 	0.9935	0.7233	0.0631	0.116
Mof_C 	C 	0.6162	0.2538	0.397	0.248
Mof_C 	C 	0.7431	0.2557	0.3459	-0.293
Mof_C 	C 	0.8187	0.1618	0.3094	0.232
Mof_C 	C 	0.7659	0.0658	0.3242	-0.285
Mof_C 	C 	0.64025	0.0623	0.3746	0.228
Mof_C 	C 	0.567	0.1569	0.4103	-0.299
Mof_C 	C 	0.5336	0.3561	0.4363	-0.238
Mof_C 	C 	0.6605	0.3032	0.5428	-0.012
Mof_C 	C 	0.7634	0.3381	0.5609	0.019
Mof_C 	C 	0.71975	0.4363	0.4622	0.084
Mof_C 	C 	0.9545	0.1662	0.2528	-0.194
Mof_C 	C 	0.7969	0.2491	0.1553	-0.019
Mof_C 	C 	0.8032	0.2103	0.0977	0.009
Mof_C 	C 	0.99141	0.08058	0.1478	0.113
Mof_C 	C 	0.5729	0.9634	0.3892	-0.223
Mof_C 	C 	0.7275	0.7741	0.3393	-0.017
Mof_C 	C 	0.837	0.6711	0.3605	0.02
Mof_C 	C 	0.7799	0.7767	0.4369	0.083
Mof_N 	N 	0.52173	0.86644	0.9791	-0.076
Mof_N 	N 	0.26684	0.92242	0.0099	-0.147
Mof_N 	N 	0.73087	0.66506	0.687	-0.079
Mof_N 	N 	0.87631	0.60398	0.5928	-0.136
Mof_N 	N 	0.07697	0.34254	0.88872	-0.076
Mof_N 	N 	0.03575	0.17127	0.92243	-0.136
Mof_N 	N 	0.36727	0.63356	0.5209	-0.083
Mof_N 	N 	0.19916	0.57758	0.4901	-0.145
Mof_N 	N 	0.08293	0.83494	0.813	-0.072
Mof_N 	N 	0.07309	0.89602	0.9072	-0.13
Mof_N 	N 	0.30823	0.15746	0.61128	-0.083
Mof_N 	N 	0.12945	0.32873	0.57757	-0.145
Mof_N 	N 	0.47827	0.13356	0.0209	-0.093
Mof_N 	N 	0.73316	0.07758	0.9901	-0.128
Mof_N 	N 	0.26913	0.33494	0.313	-0.083
Mof_N 	N 	0.12369	0.39602	0.4072	-0.143
Mof_N 	N 	0.92303	0.65746	0.11128	-0.095
Mof_N 	N 	0.96425	0.82873	0.07757	-0.14
Mof_N 	N 	0.63273	0.36644	0.4791	-0.085
Mof_N 	N 	0.80084	0.42242	0.5099	-0.139
Mof_N 	N 	0.91707	0.16506	0.187	-0.093
Mof_N 	N 	0.92691	0.10398	0.0928	-0.144
Mof_N 	N 	0.69177	0.84254	0.38872	-0.088
Mof_N 	N 	0.87055	0.67127	0.42243	-0.137
Mof_N 	N 	0.6065	0.0437	0.7569	0.064
Mof_O 	O 	0.478	0.0259	0.7703	-0.152
Mof_O 	O 	0.68	0.0328	0.7022	-0.148
Mof_O 	O 	0.6546	0.0667	0.7989	-0.139
Mof_N 	N 	0.4071	0.4563	0.7431	0.064
Mof_O 	O 	0.2742	0.4741	0.7297	-0.149
Mof_O 	O 	0.415	0.4672	0.7978	-0.144
Mof_O 	O 	0.5202	0.4333	0.7011	-0.135
Mof_N 	N 	0.3935	0.9563	0.2431	0.063
Mof_O 	O 	0.522	0.9741	0.2297	-0.139
Mof_O 	O 	0.32	0.9672	0.2978	-0.139
Mof_O 	O 	0.3454	0.9333	0.2011	-0.129
Mof_N 	N 	0.5929	0.5437	0.2569	0.064
Mof_O 	O 	0.7258	0.5259	0.2703	-0.143
Mof_O 	O 	0.585	0.5328	0.2022	-0.144
Mof_O 	O 	0.4798	0.5667	0.2989	-0.135
_end
