data_functionalizedCrystal
_audit_creation_method	'EQeq! by Chris Wilmer'
_symmetry_space_group_name_H-M	'P1'
_symmetry_Int_Tables_number	1
_symmetry_cell_setting	triclinic
loop_
_symmetry_equiv_pos_as_xyz
  x,y,z
_cell_length_a	15.2553
_cell_length_b	15.2553
_cell_length_c	22.6667
_cell_angle_alpha	90
_cell_angle_beta	90
_cell_angle_gamma	90
loop_
_atom_site_label
_atom_site_type_symbol
_atom_site_fract_x
_atom_site_fract_y
_atom_site_fract_z
_atom_site_charge
Mof_O 	O 	0.59121	0.21876	0.2951	-0.336
Mof_O 	O 	0.53217	0.39451	0.34383	-0.321
Mof_N 	N 	0.66943	0.23424	0.27415	-0.028
Mof_N 	N 	0.52711	0.44491	0.29779	-0.031
Mof_C 	C 	0.70896	0.17248	0.2402	0
Mof_H 	H 	0.6807	0.1179	0.2335	0.051
Mof_C 	C 	0.7892	0.18838	0.21566	0.004
Mof_H 	H 	0.8161	0.1453	0.1914	0.055
Mof_C 	C 	0.526	0.41183	0.24253	-0.001
Mof_H 	H 	0.5252	0.3501	0.2368	0.05
Mof_C 	C 	0.52588	0.46669	0.1947	0.002
Mof_H 	H 	0.525	0.4428	0.156	0.05
Mof_O 	O 	0.09121	0.71876	0.7951	-0.346
Mof_O 	O 	0.03217	0.89451	0.84383	-0.326
Mof_N 	N 	0.16943	0.73424	0.77415	-0.033
Mof_N 	N 	0.02711	0.94491	0.79779	-0.041
Mof_C 	C 	0.20896	0.67248	0.7402	-0.004
Mof_H 	H 	0.1807	0.6179	0.7335	0.027
Mof_C 	C 	0.2892	0.68838	0.71566	-0.007
Mof_H 	H 	0.3161	0.6453	0.6914	0.05
Mof_C 	C 	0.026	0.91183	0.74253	-0.02
Mof_H 	H 	0.0252	0.8501	0.7368	0.023
Mof_C 	C 	0.02588	0.96669	0.6947	-0.019
Mof_H 	H 	0.025	0.9428	0.656	0.029
Mof_O 	O 	0.90879	0.78124	0.7951	-0.231
Mof_O 	O 	0.96783	0.60549	0.84383	-0.226
Mof_N 	N 	0.83057	0.76576	0.77415	-0.037
Mof_N 	N 	0.97289	0.55509	0.79779	-0.031
Mof_C 	C 	0.79104	0.82752	0.7402	0.01
Mof_H 	H 	0.8193	0.8821	0.7335	0.072
Mof_C 	C 	0.7108	0.81162	0.71566	-0.003
Mof_H 	H 	0.6839	0.8547	0.6914	0.056
Mof_C 	C 	0.974	0.58817	0.74253	0.019
Mof_H 	H 	0.9748	0.6499	0.7368	0.082
Mof_C 	C 	0.97412	0.53331	0.6947	0.022
Mof_H 	H 	0.975	0.5572	0.656	0.071
Mof_O 	O 	0.40879	0.28124	0.2951	-0.338
Mof_O 	O 	0.46783	0.10549	0.34383	-0.323
Mof_N 	N 	0.33057	0.26576	0.27415	-0.03
Mof_N 	N 	0.47289	0.05509	0.29779	-0.032
Mof_C 	C 	0.29104	0.32752	0.2402	0.002
Mof_H 	H 	0.3193	0.3821	0.2335	0.048
Mof_C 	C 	0.2108	0.31162	0.21566	-0.008
Mof_H 	H 	0.1839	0.3547	0.1914	0.057
Mof_C 	C 	0.474	0.08817	0.24253	-0.003
Mof_H 	H 	0.4748	0.1499	0.2368	0.049
Mof_C 	C 	0.47412	0.03331	0.1947	-0.001
Mof_H 	H 	0.475	0.0572	0.156	0.049
Mof_O 	O 	0.03124	0.34121	0.5451	-0.346
Mof_O 	O 	0.85549	0.28217	0.59383	-0.255
Mof_N 	N 	0.01576	0.41943	0.52415	-0.134
Mof_N 	N 	0.80509	0.27711	0.54779	-0.035
Mof_C 	C 	0.07752	0.45896	0.4902	0.055
Mof_H 	H 	0.1321	0.4307	0.4835	0.025
Mof_C 	C 	0.06162	0.5392	0.46566	-0.182
Mof_H 	H 	0.1047	0.5661	0.4414	0.101
Mof_C 	C 	0.83817	0.276	0.49253	-0.002
Mof_H 	H 	0.8999	0.2752	0.4868	0.085
Mof_C 	C 	0.78331	0.27588	0.4447	0.007
Mof_H 	H 	0.8072	0.275	0.406	0.061
Mof_O 	O 	0.53124	0.84121	0.0451	-0.337
Mof_O 	O 	0.35549	0.78217	0.09383	-0.324
Mof_N 	N 	0.51576	0.91943	0.02415	-0.03
Mof_N 	N 	0.30509	0.77711	0.04779	-0.031
Mof_C 	C 	0.57752	0.95896	0.9902	0.001
Mof_H 	H 	0.6321	0.9307	0.9835	0.051
Mof_C 	C 	0.56162	0.0392	0.96566	-0.005
Mof_H 	H 	0.6047	0.0661	0.9414	0.055
Mof_C 	C 	0.33817	0.776	0.99253	-0.004
Mof_H 	H 	0.3999	0.7752	0.9868	0.05
Mof_C 	C 	0.28331	0.77588	0.9447	-0
Mof_H 	H 	0.3072	0.775	0.906	0.049
Mof_O 	O 	0.46876	0.65879	0.0451	-0.337
Mof_O 	O 	0.64451	0.71783	0.09383	-0.321
Mof_N 	N 	0.48424	0.58057	0.02415	-0.03
Mof_N 	N 	0.69491	0.72289	0.04779	-0.032
Mof_C 	C 	0.42248	0.54104	0.9902	0
Mof_H 	H 	0.3679	0.5693	0.9835	0.048
Mof_C 	C 	0.43838	0.4608	0.96566	-0.005
Mof_H 	H 	0.3953	0.4339	0.9414	0.051
Mof_C 	C 	0.66183	0.724	0.99253	-0.002
Mof_H 	H 	0.6001	0.7248	0.9868	0.049
Mof_C 	C 	0.71669	0.72412	0.9447	0.004
Mof_H 	H 	0.6928	0.725	0.906	0.049
Mof_O 	O 	0.96876	0.15879	0.5451	-0.229
Mof_O 	O 	0.14451	0.21783	0.59383	-0.297
Mof_N 	N 	0.98424	0.08057	0.52415	0.064
Mof_N 	N 	0.19491	0.22289	0.54779	-0.038
Mof_C 	C 	0.92248	0.04104	0.4902	-0.05
Mof_H 	H 	0.8679	0.0693	0.4835	0.073
Mof_C 	C 	0.93838	0.9608	0.46566	0.174
Mof_H 	H 	0.8953	0.9339	0.4414	0.011
Mof_C 	C 	0.16183	0.224	0.49253	0.001
Mof_H 	H 	0.1001	0.2248	0.4868	0.021
Mof_C 	C 	0.21669	0.22412	0.4447	-0.007
Mof_H 	H 	0.1928	0.225	0.406	0.039
Mof_O 	O 	0.90879	0.21876	0.7049	-0.231
Mof_O 	O 	0.96783	0.39451	0.65617	-0.226
Mof_N 	N 	0.83057	0.23424	0.72585	-0.037
Mof_N 	N 	0.97289	0.44491	0.70221	-0.031
Mof_C 	C 	0.79104	0.17248	0.7598	0.01
Mof_H 	H 	0.8193	0.1179	0.7665	0.072
Mof_C 	C 	0.7108	0.18838	0.78434	-0.003
Mof_H 	H 	0.6839	0.1453	0.8086	0.056
Mof_C 	C 	0.974	0.41183	0.75747	0.019
Mof_H 	H 	0.9748	0.3501	0.7632	0.082
Mof_C 	C 	0.97412	0.46669	0.8053	0.022
Mof_H 	H 	0.975	0.4428	0.844	0.07
Mof_O 	O 	0.40879	0.71876	0.2049	-0.338
Mof_O 	O 	0.46783	0.89451	0.15617	-0.323
Mof_N 	N 	0.33057	0.73424	0.22585	-0.03
Mof_N 	N 	0.47289	0.94491	0.20221	-0.032
Mof_C 	C 	0.29104	0.67248	0.2598	0.002
Mof_H 	H 	0.3193	0.6179	0.2665	0.048
Mof_C 	C 	0.2108	0.68838	0.28434	-0.008
Mof_H 	H 	0.1839	0.6453	0.3086	0.057
Mof_C 	C 	0.474	0.91183	0.25747	-0.003
Mof_H 	H 	0.4748	0.8501	0.2632	0.049
Mof_C 	C 	0.47412	0.96669	0.3053	-0.001
Mof_H 	H 	0.475	0.9428	0.344	0.049
Mof_O 	O 	0.59121	0.78124	0.2049	-0.337
Mof_O 	O 	0.53217	0.60549	0.15617	-0.322
Mof_N 	N 	0.66943	0.76576	0.22585	-0.029
Mof_N 	N 	0.52711	0.55509	0.20221	-0.032
Mof_C 	C 	0.70896	0.82752	0.2598	-0.001
Mof_H 	H 	0.6807	0.8821	0.2665	0.05
Mof_C 	C 	0.7892	0.81162	0.28434	0.003
Mof_H 	H 	0.8161	0.8547	0.3086	0.054
Mof_C 	C 	0.526	0.58817	0.25747	-0.002
Mof_H 	H 	0.5252	0.6499	0.2632	0.049
Mof_C 	C 	0.52588	0.53331	0.3053	0.001
Mof_H 	H 	0.525	0.5572	0.344	0.05
Mof_O 	O 	0.09121	0.28124	0.7049	-0.346
Mof_O 	O 	0.03217	0.10549	0.65617	-0.326
Mof_N 	N 	0.16943	0.26576	0.72585	-0.033
Mof_N 	N 	0.02711	0.05509	0.70221	-0.041
Mof_C 	C 	0.20896	0.32752	0.7598	-0.004
Mof_H 	H 	0.1807	0.3821	0.7665	0.027
Mof_C 	C 	0.2892	0.31162	0.78434	-0.007
Mof_H 	H 	0.3161	0.3547	0.8086	0.05
Mof_C 	C 	0.026	0.08817	0.75747	-0.02
Mof_H 	H 	0.0252	0.1499	0.7632	0.023
Mof_C 	C 	0.02588	0.03331	0.8053	-0.019
Mof_H 	H 	0.025	0.0572	0.844	0.029
Mof_O 	O 	0.46876	0.34121	0.4549	-0.337
Mof_O 	O 	0.64451	0.28217	0.40617	-0.321
Mof_N 	N 	0.48424	0.41943	0.47585	-0.03
Mof_N 	N 	0.69491	0.27711	0.45221	-0.032
Mof_C 	C 	0.42248	0.45896	0.5098	0.001
Mof_H 	H 	0.3679	0.4307	0.5165	0.048
Mof_C 	C 	0.43838	0.5392	0.53434	-0.005
Mof_H 	H 	0.3953	0.5661	0.5586	0.051
Mof_C 	C 	0.66183	0.276	0.50747	-0.002
Mof_H 	H 	0.6001	0.2752	0.5132	0.049
Mof_C 	C 	0.71669	0.27588	0.5553	0.004
Mof_H 	H 	0.6928	0.275	0.594	0.049
Mof_O 	O 	0.96876	0.84121	0.9549	-0.23
Mof_O 	O 	0.14451	0.78217	0.90617	-0.297
Mof_N 	N 	0.98424	0.91943	0.97585	0.063
Mof_N 	N 	0.19491	0.77711	0.95221	-0.038
Mof_C 	C 	0.92248	0.95896	0.0098	-0.05
Mof_H 	H 	0.8679	0.9307	0.0165	0.073
Mof_C 	C 	0.93838	0.0392	0.03434	0.173
Mof_H 	H 	0.8953	0.0661	0.0586	0.012
Mof_C 	C 	0.16183	0.776	0.00747	0.001
Mof_H 	H 	0.1001	0.7752	0.0132	0.021
Mof_C 	C 	0.21669	0.77588	0.0553	-0.007
Mof_H 	H 	0.1928	0.775	0.094	0.039
Mof_O 	O 	0.03124	0.65879	0.9549	-0.346
Mof_O 	O 	0.85549	0.71783	0.90617	-0.256
Mof_N 	N 	0.01576	0.58057	0.97585	-0.133
Mof_N 	N 	0.80509	0.72289	0.95221	-0.035
Mof_C 	C 	0.07752	0.54104	0.0098	0.055
Mof_H 	H 	0.1321	0.5693	0.0165	0.025
Mof_C 	C 	0.06162	0.4608	0.03434	-0.18
Mof_H 	H 	0.1047	0.4339	0.0586	0.1
Mof_C 	C 	0.83817	0.724	0.00747	-0.002
Mof_H 	H 	0.8999	0.7248	0.0132	0.084
Mof_C 	C 	0.78331	0.72412	0.0553	0.007
Mof_H 	H 	0.8072	0.725	0.094	0.061
Mof_O 	O 	0.53124	0.15879	0.4549	-0.337
Mof_O 	O 	0.35549	0.21783	0.40617	-0.324
Mof_N 	N 	0.51576	0.08057	0.47585	-0.03
Mof_N 	N 	0.30509	0.22289	0.45221	-0.031
Mof_C 	C 	0.57752	0.04104	0.5098	0.001
Mof_H 	H 	0.6321	0.0693	0.5165	0.051
Mof_C 	C 	0.56162	0.9608	0.53434	-0.005
Mof_H 	H 	0.6047	0.9339	0.5586	0.055
Mof_C 	C 	0.33817	0.224	0.50747	-0.004
Mof_H 	H 	0.3999	0.2248	0.5132	0.05
Mof_C 	C 	0.28331	0.22412	0.5553	-0
Mof_H 	H 	0.3072	0.225	0.594	0.049
Mof_O 	O 	0.40879	0.78124	0.7049	-0.338
Mof_O 	O 	0.46783	0.60549	0.65617	-0.323
Mof_N 	N 	0.33057	0.76576	0.72585	-0.03
Mof_N 	N 	0.47289	0.55509	0.70221	-0.032
Mof_C 	C 	0.29104	0.82752	0.7598	0.002
Mof_H 	H 	0.3193	0.8821	0.7665	0.048
Mof_C 	C 	0.2108	0.81162	0.78434	-0.008
Mof_H 	H 	0.1839	0.8547	0.8086	0.057
Mof_C 	C 	0.474	0.58817	0.75747	-0.003
Mof_H 	H 	0.4748	0.6499	0.7632	0.049
Mof_C 	C 	0.47412	0.53331	0.8053	-0.001
Mof_H 	H 	0.475	0.5572	0.844	0.049
Mof_O 	O 	0.90879	0.28124	0.2049	-0.231
Mof_O 	O 	0.96783	0.10549	0.15617	-0.227
Mof_N 	N 	0.83057	0.26576	0.22585	-0.037
Mof_N 	N 	0.97289	0.05509	0.20221	-0.031
Mof_C 	C 	0.79104	0.32752	0.2598	0.01
Mof_H 	H 	0.8193	0.3821	0.2665	0.072
Mof_C 	C 	0.7108	0.31162	0.28434	-0.003
Mof_H 	H 	0.6839	0.3547	0.3086	0.056
Mof_C 	C 	0.974	0.08817	0.25747	0.018
Mof_H 	H 	0.9748	0.1499	0.2632	0.082
Mof_C 	C 	0.97412	0.03331	0.3053	0.021
Mof_H 	H 	0.975	0.0572	0.344	0.07
Mof_O 	O 	0.09121	0.21876	0.2049	-0.346
Mof_O 	O 	0.03217	0.39451	0.15617	-0.326
Mof_N 	N 	0.16943	0.23424	0.22585	-0.033
Mof_N 	N 	0.02711	0.44491	0.20221	-0.041
Mof_C 	C 	0.20896	0.17248	0.2598	-0.004
Mof_H 	H 	0.1807	0.1179	0.2665	0.027
Mof_C 	C 	0.2892	0.18838	0.28434	-0.007
Mof_H 	H 	0.3161	0.1453	0.3086	0.05
Mof_C 	C 	0.026	0.41183	0.25747	-0.02
Mof_H 	H 	0.0252	0.3501	0.2632	0.023
Mof_C 	C 	0.02588	0.46669	0.3053	-0.019
Mof_H 	H 	0.025	0.4428	0.344	0.029
Mof_O 	O 	0.59121	0.71876	0.7049	-0.337
Mof_O 	O 	0.53217	0.89451	0.65617	-0.322
Mof_N 	N 	0.66943	0.73424	0.72585	-0.029
Mof_N 	N 	0.52711	0.94491	0.70221	-0.032
Mof_C 	C 	0.70896	0.67248	0.7598	-0.001
Mof_H 	H 	0.6807	0.6179	0.7665	0.05
Mof_C 	C 	0.7892	0.68838	0.78434	0.003
Mof_H 	H 	0.8161	0.6453	0.8086	0.054
Mof_C 	C 	0.526	0.91183	0.75747	-0.001
Mof_H 	H 	0.5252	0.8501	0.7632	0.049
Mof_C 	C 	0.52588	0.96669	0.8053	0.001
Mof_H 	H 	0.525	0.9428	0.844	0.05
Mof_O 	O 	0.96876	0.65879	0.4549	-0.229
Mof_O 	O 	0.14451	0.71783	0.40617	-0.297
Mof_N 	N 	0.98424	0.58057	0.47585	0.065
Mof_N 	N 	0.19491	0.72289	0.45221	-0.038
Mof_C 	C 	0.92248	0.54104	0.5098	-0.05
Mof_H 	H 	0.8679	0.5693	0.5165	0.073
Mof_C 	C 	0.93838	0.4608	0.53434	0.177
Mof_H 	H 	0.8953	0.4339	0.5586	0.011
Mof_C 	C 	0.16183	0.724	0.50747	0.001
Mof_H 	H 	0.1001	0.7248	0.5132	0.021
Mof_C 	C 	0.21669	0.72412	0.5553	-0.007
Mof_H 	H 	0.1928	0.725	0.594	0.039
Mof_O 	O 	0.46876	0.15879	0.9549	-0.337
Mof_O 	O 	0.64451	0.21783	0.90617	-0.321
Mof_N 	N 	0.48424	0.08057	0.97585	-0.03
Mof_N 	N 	0.69491	0.22289	0.95221	-0.032
Mof_C 	C 	0.42248	0.04104	0.0098	0.001
Mof_H 	H 	0.3679	0.0693	0.0165	0.048
Mof_C 	C 	0.43838	0.9608	0.03434	-0.005
Mof_H 	H 	0.3953	0.9339	0.0586	0.051
Mof_C 	C 	0.66183	0.224	0.00747	-0.002
Mof_H 	H 	0.6001	0.2248	0.0132	0.049
Mof_C 	C 	0.71669	0.22412	0.0553	0.004
Mof_H 	H 	0.6928	0.225	0.094	0.049
Mof_O 	O 	0.53124	0.34121	0.9549	-0.337
Mof_O 	O 	0.35549	0.28217	0.90617	-0.324
Mof_N 	N 	0.51576	0.41943	0.97585	-0.03
Mof_N 	N 	0.30509	0.27711	0.95221	-0.031
Mof_C 	C 	0.57752	0.45896	0.0098	0.001
Mof_H 	H 	0.6321	0.4307	0.0165	0.051
Mof_C 	C 	0.56162	0.5392	0.03434	-0.005
Mof_H 	H 	0.6047	0.5661	0.0586	0.055
Mof_C 	C 	0.33817	0.276	0.00747	-0.004
Mof_H 	H 	0.3999	0.2752	0.0132	0.05
Mof_C 	C 	0.28331	0.27588	0.0553	-0
Mof_H 	H 	0.3072	0.275	0.094	0.049
Mof_O 	O 	0.03124	0.84121	0.4549	-0.346
Mof_O 	O 	0.85549	0.78217	0.40617	-0.255
Mof_N 	N 	0.01576	0.91943	0.47585	-0.133
Mof_N 	N 	0.80509	0.77711	0.45221	-0.035
Mof_C 	C 	0.07752	0.95896	0.5098	0.055
Mof_H 	H 	0.1321	0.9307	0.5165	0.025
Mof_C 	C 	0.06162	0.0392	0.53434	-0.18
Mof_H 	H 	0.1047	0.0661	0.5586	0.1
Mof_C 	C 	0.83817	0.776	0.50747	-0.002
Mof_H 	H 	0.8999	0.7752	0.5132	0.084
Mof_C 	C 	0.78331	0.77588	0.5553	0.006
Mof_H 	H 	0.8072	0.775	0.594	0.061
Mof_O 	O 	0.09121	0.78124	0.2951	-0.345
Mof_O 	O 	0.03217	0.60549	0.34383	-0.326
Mof_N 	N 	0.16943	0.76576	0.27415	-0.033
Mof_N 	N 	0.02711	0.55509	0.29779	-0.041
Mof_C 	C 	0.20896	0.82752	0.2402	-0.004
Mof_H 	H 	0.1807	0.8821	0.2335	0.027
Mof_C 	C 	0.2892	0.81162	0.21566	-0.007
Mof_H 	H 	0.3161	0.8547	0.1914	0.05
Mof_C 	C 	0.026	0.58817	0.24253	-0.02
Mof_H 	H 	0.0252	0.6499	0.2368	0.023
Mof_C 	C 	0.02588	0.53331	0.1947	-0.019
Mof_H 	H 	0.025	0.5572	0.156	0.029
Mof_O 	O 	0.59121	0.28124	0.7951	-0.337
Mof_O 	O 	0.53217	0.10549	0.84383	-0.322
Mof_N 	N 	0.66943	0.26576	0.77415	-0.029
Mof_N 	N 	0.52711	0.05509	0.79779	-0.032
Mof_C 	C 	0.70896	0.32752	0.7402	-0.001
Mof_H 	H 	0.6807	0.3821	0.7335	0.05
Mof_C 	C 	0.7892	0.31162	0.71566	0.003
Mof_H 	H 	0.8161	0.3547	0.6914	0.054
Mof_C 	C 	0.526	0.08817	0.74253	-0.002
Mof_H 	H 	0.5252	0.1499	0.7368	0.049
Mof_C 	C 	0.52588	0.03331	0.6947	0.001
Mof_H 	H 	0.525	0.0572	0.656	0.05
Mof_O 	O 	0.40879	0.21876	0.7951	-0.338
Mof_O 	O 	0.46783	0.39451	0.84383	-0.323
Mof_N 	N 	0.33057	0.23424	0.77415	-0.03
Mof_N 	N 	0.47289	0.44491	0.79779	-0.032
Mof_C 	C 	0.29104	0.17248	0.7402	0.002
Mof_H 	H 	0.3193	0.1179	0.7335	0.048
Mof_C 	C 	0.2108	0.18838	0.71566	-0.008
Mof_H 	H 	0.1839	0.1453	0.6914	0.057
Mof_C 	C 	0.474	0.41183	0.74253	-0.003
Mof_H 	H 	0.4748	0.3501	0.7368	0.049
Mof_C 	C 	0.47412	0.46669	0.6947	-0.001
Mof_H 	H 	0.475	0.4428	0.656	0.049
Mof_O 	O 	0.90879	0.71876	0.2951	-0.23
Mof_O 	O 	0.96783	0.89451	0.34383	-0.226
Mof_N 	N 	0.83057	0.73424	0.27415	-0.037
Mof_N 	N 	0.97289	0.94491	0.29779	-0.031
Mof_C 	C 	0.79104	0.67248	0.2402	0.01
Mof_H 	H 	0.8193	0.6179	0.2335	0.072
Mof_C 	C 	0.7108	0.68838	0.21566	-0.003
Mof_H 	H 	0.6839	0.6453	0.1914	0.056
Mof_C 	C 	0.974	0.91183	0.24253	0.019
Mof_H 	H 	0.9748	0.8501	0.2368	0.082
Mof_C 	C 	0.97412	0.96669	0.1947	0.021
Mof_H 	H 	0.975	0.9428	0.156	0.07
Mof_O 	O 	0.53124	0.65879	0.5451	-0.337
Mof_O 	O 	0.35549	0.71783	0.59383	-0.324
Mof_N 	N 	0.51576	0.58057	0.52415	-0.03
Mof_N 	N 	0.30509	0.72289	0.54779	-0.031
Mof_C 	C 	0.57752	0.54104	0.4902	0.001
Mof_H 	H 	0.6321	0.5693	0.4835	0.051
Mof_C 	C 	0.56162	0.4608	0.46566	-0.005
Mof_H 	H 	0.6047	0.4339	0.4414	0.055
Mof_C 	C 	0.33817	0.724	0.49253	-0.004
Mof_H 	H 	0.3999	0.7248	0.4868	0.05
Mof_C 	C 	0.28331	0.72412	0.4447	-0
Mof_H 	H 	0.3072	0.725	0.406	0.049
Mof_O 	O 	0.03124	0.15879	0.0451	-0.346
Mof_O 	O 	0.85549	0.21783	0.09383	-0.256
Mof_N 	N 	0.01576	0.08057	0.02415	-0.132
Mof_N 	N 	0.80509	0.22289	0.04779	-0.035
Mof_C 	C 	0.07752	0.04104	0.9902	0.054
Mof_H 	H 	0.1321	0.0693	0.9835	0.025
Mof_C 	C 	0.06162	0.9608	0.96566	-0.178
Mof_H 	H 	0.1047	0.9339	0.9414	0.1
Mof_C 	C 	0.83817	0.224	0.99253	-0.002
Mof_H 	H 	0.8999	0.2248	0.9868	0.084
Mof_C 	C 	0.78331	0.22412	0.9447	0.007
Mof_H 	H 	0.8072	0.225	0.906	0.061
Mof_O 	O 	0.96876	0.34121	0.0451	-0.23
Mof_O 	O 	0.14451	0.28217	0.09383	-0.297
Mof_N 	N 	0.98424	0.41943	0.02415	0.064
Mof_N 	N 	0.19491	0.27711	0.04779	-0.038
Mof_C 	C 	0.92248	0.45896	0.9902	-0.05
Mof_H 	H 	0.8679	0.4307	0.9835	0.073
Mof_C 	C 	0.93838	0.5392	0.96566	0.175
Mof_H 	H 	0.8953	0.5661	0.9414	0.011
Mof_C 	C 	0.16183	0.276	0.99253	0.001
Mof_H 	H 	0.1001	0.2752	0.9868	0.021
Mof_C 	C 	0.21669	0.27588	0.9447	-0.007
Mof_H 	H 	0.1928	0.275	0.906	0.039
Mof_O 	O 	0.46876	0.84121	0.5451	-0.337
Mof_O 	O 	0.64451	0.78217	0.59383	-0.321
Mof_N 	N 	0.48424	0.91943	0.52415	-0.03
Mof_N 	N 	0.69491	0.77711	0.54779	-0.032
Mof_C 	C 	0.42248	0.95896	0.4902	0
Mof_H 	H 	0.3679	0.9307	0.4835	0.048
Mof_C 	C 	0.43838	0.0392	0.46566	-0.005
Mof_H 	H 	0.3953	0.0661	0.4414	0.051
Mof_C 	C 	0.66183	0.776	0.49253	-0.002
Mof_H 	H 	0.6001	0.7752	0.4868	0.049
Mof_C 	C 	0.71669	0.77588	0.4447	0.004
Mof_H 	H 	0.6928	0.775	0.406	0.049
Mof_Dy	Dy	0.5	0.25	0.375	2.11
Mof_Dy	Dy	4.87458e-33	0.75	0.875	1.706
Mof_Dy	Dy	-1.56599e-32	0.25	0.625	1.703
Mof_Dy	Dy	0.5	0.75	0.125	2.11
Mof_Dy	Dy	0.5	0.75	0.625	2.11
Mof_Dy	Dy	3.08908e-33	0.25	0.125	1.706
Mof_Dy	Dy	2.08911e-33	0.75	0.375	1.704
Mof_Dy	Dy	0.5	0.25	0.875	2.11
_end
