data_functionalizedCrystal
_audit_creation_method	'EQeq! by Chris Wilmer'
_symmetry_space_group_name_H-M	'P1'
_symmetry_Int_Tables_number	1
_symmetry_cell_setting	triclinic
loop_
_symmetry_equiv_pos_as_xyz
  x,y,z
_cell_length_a	10.1716
_cell_length_b	17.744
_cell_length_c	17.744
_cell_angle_alpha	120
_cell_angle_beta	90
_cell_angle_gamma	90
loop_
_atom_site_label
_atom_site_type_symbol
_atom_site_fract_x
_atom_site_fract_y
_atom_site_fract_z
_atom_site_charge
Mof_Zn	Zn	0.86811	0.53163	0.4561	1.206
Mof_Zn	Zn	0.53478	0.92447	0.46837	1.207
Mof_Zn	Zn	0.20144	0.5439	0.07553	1.208
Mof_Zn	Zn	0.36811	0.46837	0.5439	1.207
Mof_Zn	Zn	0.03478	0.07553	0.53163	1.208
Mof_Zn	Zn	0.70144	0.4561	0.92447	1.206
Mof_H 	H 	0.9694	0.4495	0.5223	0.111
Mof_H 	H 	0.9441	0.3507	0.379	0.068
Mof_H 	H 	0.7956	0.3437	0.3983	0.071
Mof_H 	H 	0.7714	0.4044	0.5644	0.033
Mof_H 	H 	0.8137	0.1105	0.4398	-0.028
Mof_H 	H 	0.092	0.3332	0.4958	0.107
Mof_H 	H 	0.753	0.2103	0.399	0.107
Mof_H 	H 	0.1442	0.2301	0.5349	-0.011
Mof_H 	H 	0.9219	0.5056	0.6666	0.208
Mof_H 	H 	0.7773	0.5353	0.6979	0.236
Mof_H 	H 	0.858	0.5801	0.6558	0.202
Mof_H 	H 	0.63607	0.0728	0.5505	0.114
Mof_H 	H 	0.61077	0.0283	0.6493	0.074
Mof_H 	H 	0.46227	0.0546	0.6563	0.074
Mof_H 	H 	0.43807	0.16	0.5956	0.033
Mof_H 	H 	0.48037	0.3293	0.8895	-0.029
Mof_H 	H 	0.75867	0.1626	0.6668	0.11
Mof_H 	H 	0.41967	0.1887	0.7897	0.11
Mof_H 	H 	0.81087	0.3048	0.7699	-0.014
Mof_H 	H 	0.58857	0.161	0.4944	0.214
Mof_H 	H 	0.44397	0.1626	0.4647	0.24
Mof_H 	H 	0.52467	0.0757	0.4199	0.207
Mof_H 	H 	0.30273	0.4777	0.9272	0.114
Mof_H 	H 	0.27743	0.621	0.9717	0.075
Mof_H 	H 	0.12893	0.6017	0.9454	0.077
Mof_H 	H 	0.10473	0.4356	0.84	0.029
Mof_H 	H 	0.14703	0.5602	0.6707	-0.027
Mof_H 	H 	0.42533	0.5042	0.8374	0.111
Mof_H 	H 	0.08633	0.601	0.8113	0.114
Mof_H 	H 	0.47753	0.4651	0.6952	-0.012
Mof_H 	H 	0.25523	0.3334	0.839	0.22
Mof_H 	H 	0.11063	0.3021	0.8374	0.248
Mof_H 	H 	0.19133	0.3442	0.9243	0.214
Mof_H 	H 	0.4694	0.5505	0.4777	0.114
Mof_H 	H 	0.4441	0.6493	0.621	0.074
Mof_H 	H 	0.2956	0.6563	0.6017	0.076
Mof_H 	H 	0.2714	0.5956	0.4356	0.034
Mof_H 	H 	0.3137	0.8895	0.5602	-0.028
Mof_H 	H 	0.592	0.6668	0.5042	0.111
Mof_H 	H 	0.253	0.7897	0.601	0.113
Mof_H 	H 	0.6442	0.7699	0.4651	-0.012
Mof_H 	H 	0.4219	0.4944	0.3334	0.215
Mof_H 	H 	0.2773	0.4647	0.3021	0.241
Mof_H 	H 	0.358	0.4199	0.3442	0.207
Mof_H 	H 	0.13607	0.9272	0.4495	0.112
Mof_H 	H 	0.11077	0.9717	0.3507	0.075
Mof_H 	H 	0.96227	0.9454	0.3437	0.065
Mof_H 	H 	0.93807	0.84	0.4044	0.046
Mof_H 	H 	0.98037	0.6707	0.1105	-0.06
Mof_H 	H 	0.25867	0.8374	0.3332	0.12
Mof_H 	H 	0.91967	0.8113	0.2103	0.131
Mof_H 	H 	0.31087	0.6952	0.2301	-0.017
Mof_H 	H 	0.08857	0.839	0.5056	0.183
Mof_H 	H 	0.94397	0.8374	0.5353	0.198
Mof_H 	H 	0.02467	0.9243	0.5801	0.177
Mof_H 	H 	0.80273	0.5223	0.0728	0.112
Mof_H 	H 	0.77743	0.379	0.0283	0.072
Mof_H 	H 	0.62893	0.3983	0.0546	0.073
Mof_H 	H 	0.60473	0.5644	0.16	0.033
Mof_H 	H 	0.64703	0.4398	0.3293	-0.029
Mof_H 	H 	0.92533	0.4958	0.1626	0.107
Mof_H 	H 	0.58633	0.399	0.1887	0.11
Mof_H 	H 	0.97753	0.5349	0.3048	-0.015
Mof_H 	H 	0.75523	0.6666	0.161	0.212
Mof_H 	H 	0.61063	0.6979	0.1626	0.238
Mof_H 	H 	0.69133	0.6558	0.0757	0.205
Mof_C 	C 	0.9174	0.285	0.445	0.161
Mof_C 	C 	0.6641	0.4923	0.5446	0.294
Mof_C 	C 	0.8834	0.3545	0.423	-0.178
Mof_C 	C 	0.7904	0.4587	0.5648	0.037
Mof_C 	C 	0.8701	0.1564	0.4519	0.116
Mof_C 	C 	0.0328	0.2888	0.4843	-0.192
Mof_C 	C 	0.8328	0.2161	0.427	-0.213
Mof_C 	C 	0.0643	0.2264	0.5077	0.118
Mof_C 	C 	0.8417	0.5262	0.6546	-0.593
Mof_C 	C 	0.58407	0.16	0.715	0.179
Mof_C 	C 	0.33077	0.0523	0.5077	0.292
Mof_C 	C 	0.55007	0.0685	0.6455	-0.187
Mof_C 	C 	0.45707	0.1061	0.5413	0.041
Mof_C 	C 	0.53677	0.2955	0.8436	0.122
Mof_C 	C 	0.69947	0.1955	0.7112	-0.212
Mof_C 	C 	0.49947	0.2109	0.7839	-0.221
Mof_C 	C 	0.73097	0.2813	0.7736	0.116
Mof_C 	C 	0.50837	0.1284	0.4738	-0.602
Mof_C 	C 	0.25073	0.555	0.84	0.18
Mof_C 	C 	0.99743	0.4554	0.9477	0.267
Mof_C 	C 	0.21673	0.577	0.9315	-0.188
Mof_C 	C 	0.12373	0.4352	0.8939	0.06
Mof_C 	C 	0.20343	0.5481	0.7045	0.124
Mof_C 	C 	0.36613	0.5157	0.8045	-0.212
Mof_C 	C 	0.16613	0.573	0.7891	-0.221
Mof_C 	C 	0.39763	0.4923	0.7187	0.116
Mof_C 	C 	0.17503	0.3454	0.8716	-0.622
Mof_C 	C 	0.4174	0.715	0.555	0.18
Mof_C 	C 	0.1641	0.5077	0.4554	0.292
Mof_C 	C 	0.3834	0.6455	0.577	-0.188
Mof_C 	C 	0.2904	0.5413	0.4352	0.042
Mof_C 	C 	0.3701	0.8436	0.5481	0.124
Mof_C 	C 	0.5328	0.7112	0.5157	-0.212
Mof_C 	C 	0.3328	0.7839	0.573	-0.221
Mof_C 	C 	0.5643	0.7736	0.4923	0.116
Mof_C 	C 	0.3417	0.4738	0.3454	-0.604
Mof_C 	C 	0.08407	0.84	0.285	0.216
Mof_C 	C 	0.83077	0.9477	0.4923	0.305
Mof_C 	C 	0.05007	0.9315	0.3545	-0.183
Mof_C 	C 	0.95707	0.8939	0.4587	-0.015
Mof_C 	C 	0.03677	0.7045	0.1564	0.186
Mof_C 	C 	0.19947	0.8045	0.2888	-0.235
Mof_C 	C 	0.99947	0.7891	0.2161	-0.287
Mof_C 	C 	0.23097	0.7187	0.2264	0.133
Mof_C 	C 	0.00837	0.8716	0.5262	-0.488
Mof_C 	C 	0.75073	0.445	0.16	0.177
Mof_C 	C 	0.49743	0.5446	0.0523	0.292
Mof_C 	C 	0.71673	0.423	0.0685	-0.186
Mof_C 	C 	0.62373	0.5648	0.1061	0.039
Mof_C 	C 	0.70343	0.4519	0.2955	0.122
Mof_C 	C 	0.86613	0.4843	0.1955	-0.211
Mof_C 	C 	0.66613	0.427	0.2109	-0.22
Mof_C 	C 	0.89763	0.5077	0.2813	0.114
Mof_C 	C 	0.67503	0.6546	0.1284	-0.599
Mof_Br	Br	0.89847	0.68141	0.55141	-0.497
Mof_Br	Br	0.56514	0.87	0.31859	-0.494
Mof_Br	Br	0.2318	0.44859	0.13	-0.489
Mof_Br	Br	0.39847	0.31859	0.44859	-0.492
Mof_Br	Br	0.06514	0.13	0.68141	-0.486
Mof_Br	Br	0.7318	0.55141	0.87	-0.495
Mof_N 	N 	0.8884	0.4419	0.4977	-0.266
Mof_N 	N 	0.982	0.162	0.4919	-0.281
Mof_N 	N 	0.55507	0.0558	0.5581	-0.265
Mof_N 	N 	0.64867	0.3299	0.838	-0.277
Mof_N 	N 	0.22173	0.5023	0.9442	-0.267
Mof_N 	N 	0.31533	0.5081	0.6701	-0.277
Mof_N 	N 	0.3884	0.5581	0.5023	-0.265
Mof_N 	N 	0.482	0.838	0.5081	-0.277
Mof_N 	N 	0.05507	0.9442	0.4419	-0.252
Mof_N 	N 	0.14867	0.6701	0.162	-0.29
Mof_N 	N 	0.72173	0.4977	0.0558	-0.265
Mof_N 	N 	0.81533	0.4919	0.3299	-0.278
Mof_O 	O 	0.6682	0.5169	0.48957	-0.427
Mof_O 	O 	0.5643	0.4945	0.5878	-0.41
Mof_O 	O 	0.33487	0.97267	0.4831	-0.426
Mof_O 	O 	0.23097	0.0933	0.5055	-0.409
Mof_O 	O 	0.00153	0.51043	0.02733	-0.41
Mof_O 	O 	0.89763	0.4122	0.9067	-0.406
Mof_O 	O 	0.1682	0.4831	0.51043	-0.423
Mof_O 	O 	0.0643	0.5055	0.4122	-0.403
Mof_O 	O 	0.83487	0.02733	0.5169	-0.431
Mof_O 	O 	0.73097	0.9067	0.4945	-0.414
Mof_O 	O 	0.50153	0.48957	0.97267	-0.425
Mof_O 	O 	0.39763	0.5878	0.0933	-0.409
_end
