data_functionalizedCrystal
_audit_creation_method	'EQeq! by Chris Wilmer'
_symmetry_space_group_name_H-M	'P1'
_symmetry_Int_Tables_number	1
_symmetry_cell_setting	triclinic
loop_
_symmetry_equiv_pos_as_xyz
  x,y,z
_cell_length_a	14.13
_cell_length_b	13.178
_cell_length_c	14.018
_cell_angle_alpha	90
_cell_angle_beta	90.561
_cell_angle_gamma	90
loop_
_atom_site_label
_atom_site_type_symbol
_atom_site_fract_x
_atom_site_fract_y
_atom_site_fract_z
_atom_site_charge
Mof_Al	Al	0.1239	0.8581	0.2257	2.733
Mof_Al	Al	0.0192	0.7425	0.6229	2.649
Mof_Co	Co	0.1239	0.1419	0.7257	1.182
Mof_Co	Co	0.0192	0.2575	0.1229	1.177
Mof_P 	P 	0.0254	0.2625	0.8933	0.45
Mof_P 	P 	0.1443	0.6291	0.775	0.78
Mof_O 	O 	0.0597	0.2634	0.9979	-0.5
Mof_O 	O 	0.9934	0.3691	0.8681	-0.381
Mof_O 	O 	0.1185	0.522	0.7412	-0.522
Mof_O 	O 	0.0832	0.655	0.859	-1.03
Mof_O 	O 	0.0892	0.0027	0.7476	-0.5
Mof_O 	O 	0.1262	0.7036	0.6964	-0.884
Mof_O 	O 	0.9909	0.8785	0.6613	-0.742
Mof_O 	O 	0.106	0.2311	0.8302	-0.491
Mof_O 	O 	0.2451	0.6344	0.8073	-0.487
Mof_O 	O 	0.9436	0.1879	0.8838	-0.43
Mof_Al	Al	0.6239	0.3581	0.2257	2.806
Mof_Al	Al	0.5192	0.2425	0.6229	3.046
Mof_Co	Co	0.6239	0.6419	0.7257	1.188
Mof_Co	Co	0.5192	0.7575	0.1229	1.222
Mof_P 	P 	0.5254	0.7625	0.8933	0.569
Mof_P 	P 	0.6443	0.1291	0.775	0.782
Mof_O 	O 	0.5597	0.7634	0.9979	-0.495
Mof_O 	O 	0.4934	0.8691	0.8681	-0.476
Mof_O 	O 	0.6185	0.022	0.7412	-0.505
Mof_O 	O 	0.5832	0.155	0.859	-0.93
Mof_O 	O 	0.5892	0.5027	0.7476	-0.51
Mof_O 	O 	0.6262	0.2036	0.6964	-0.933
Mof_O 	O 	0.4909	0.3785	0.6613	-0.904
Mof_O 	O 	0.606	0.7311	0.8302	-0.494
Mof_O 	O 	0.7451	0.1344	0.8073	-0.481
Mof_O 	O 	0.4436	0.6879	0.8838	-0.501
Mof_Al	Al	0.8761	0.8581	0.2743	2.841
Mof_Al	Al	0.9808	0.7425	0.8771	3.199
Mof_Co	Co	0.8761	0.1419	0.7743	1.194
Mof_Co	Co	0.9808	0.2575	0.3771	1.243
Mof_P 	P 	0.9746	0.2625	0.6067	0.693
Mof_P 	P 	0.8557	0.6291	0.725	0.777
Mof_O 	O 	0.9403	0.2634	0.5021	-0.425
Mof_O 	O 	0.0066	0.3691	0.6319	-0.534
Mof_O 	O 	0.8815	0.522	0.7588	-0.486
Mof_O 	O 	0.9168	0.655	0.641	-0.83
Mof_O 	O 	0.9108	0.0027	0.7524	-0.44
Mof_O 	O 	0.8738	0.7036	0.8036	-0.956
Mof_O 	O 	0.0091	0.8785	0.8387	-0.977
Mof_O 	O 	0.894	0.2311	0.6698	-0.483
Mof_O 	O 	0.7549	0.6344	0.6927	-0.471
Mof_O 	O 	0.0564	0.1879	0.6162	-0.549
Mof_Al	Al	0.3761	0.3581	0.2743	2.793
Mof_Al	Al	0.4808	0.2425	0.8771	2.855
Mof_Co	Co	0.3761	0.6419	0.7743	1.187
Mof_Co	Co	0.4808	0.7575	0.3771	1.2
Mof_P 	P 	0.4746	0.7625	0.6067	0.568
Mof_P 	P 	0.3557	0.1291	0.725	0.781
Mof_O 	O 	0.4403	0.7634	0.5021	-0.441
Mof_O 	O 	0.5066	0.8691	0.6319	-0.459
Mof_O 	O 	0.3815	0.022	0.7588	-0.51
Mof_O 	O 	0.4168	0.155	0.641	-0.944
Mof_O 	O 	0.4108	0.5027	0.7524	-0.51
Mof_O 	O 	0.3738	0.2036	0.8036	-0.917
Mof_O 	O 	0.5091	0.3785	0.8387	-0.891
Mof_O 	O 	0.394	0.7311	0.6698	-0.486
Mof_O 	O 	0.2549	0.1344	0.6927	-0.477
Mof_O 	O 	0.5564	0.6879	0.6162	-0.479
Mof_P 	P 	0.9746	0.7375	0.1067	0.97
Mof_P 	P 	0.8557	0.3709	0.225	0.692
Mof_O 	O 	0.9403	0.7366	0.0021	-0.858
Mof_O 	O 	0.0066	0.6309	0.1319	-0.601
Mof_O 	O 	0.8815	0.478	0.2588	-0.451
Mof_O 	O 	0.9168	0.345	0.141	-0.44
Mof_O 	O 	0.9108	0.9973	0.2524	-0.793
Mof_O 	O 	0.8738	0.2964	0.3036	-0.498
Mof_O 	O 	0.0091	0.1215	0.3387	-0.535
Mof_O 	O 	0.894	0.7689	0.1698	-0.9
Mof_O 	O 	0.7549	0.3656	0.1927	-0.786
Mof_O 	O 	0.0564	0.8121	0.1162	-0.971
Mof_P 	P 	0.4746	0.2375	0.1067	0.824
Mof_P 	P 	0.3557	0.8709	0.225	0.691
Mof_O 	O 	0.4403	0.2366	0.0021	-0.808
Mof_O 	O 	0.5066	0.1309	0.1319	-0.511
Mof_O 	O 	0.3815	0.978	0.2588	-0.488
Mof_O 	O 	0.4168	0.845	0.141	-0.486
Mof_O 	O 	0.4108	0.4973	0.2524	-0.849
Mof_O 	O 	0.3738	0.7964	0.3036	-0.518
Mof_O 	O 	0.5091	0.6215	0.3387	-0.505
Mof_O 	O 	0.394	0.2689	0.1698	-0.893
Mof_O 	O 	0.2549	0.8656	0.1927	-0.781
Mof_O 	O 	0.5564	0.3121	0.1162	-0.899
Mof_P 	P 	0.0254	0.7375	0.3933	0.686
Mof_P 	P 	0.1443	0.3709	0.275	0.695
Mof_O 	O 	0.0597	0.7366	0.4979	-0.826
Mof_O 	O 	0.9934	0.6309	0.3681	-0.424
Mof_O 	O 	0.1185	0.478	0.2412	-0.495
Mof_O 	O 	0.0832	0.345	0.359	-0.545
Mof_O 	O 	0.0892	0.9973	0.2476	-0.843
Mof_O 	O 	0.1262	0.2964	0.1964	-0.522
Mof_O 	O 	0.9909	0.1215	0.1613	-0.384
Mof_O 	O 	0.106	0.7689	0.3302	-0.886
Mof_O 	O 	0.2451	0.3656	0.3073	-0.799
Mof_O 	O 	0.9436	0.8121	0.3838	-0.845
Mof_P 	P 	0.5254	0.2375	0.3933	0.833
Mof_P 	P 	0.6443	0.8709	0.275	0.696
Mof_O 	O 	0.5597	0.2366	0.4979	-0.892
Mof_O 	O 	0.4934	0.1309	0.3681	-0.528
Mof_O 	O 	0.6185	0.978	0.2412	-0.482
Mof_O 	O 	0.5832	0.845	0.359	-0.506
Mof_O 	O 	0.5892	0.4973	0.2476	-0.849
Mof_O 	O 	0.6262	0.7964	0.1964	-0.504
Mof_O 	O 	0.4909	0.6215	0.1613	-0.486
Mof_O 	O 	0.606	0.2689	0.3302	-0.901
Mof_O 	O 	0.7451	0.8656	0.3073	-0.803
Mof_O 	O 	0.4436	0.3121	0.3838	-0.921
Mof_Co	Co	1.36114e-18	0.4468	0.75	1.127
Mof_P 	P 	2.72228e-18	0.9406	0.75	0.662
Mof_Co	Co	0.5	0.9468	0.75	1.159
Mof_P 	P 	0.5	0.4406	0.75	0.8
Mof_Co	Co	3.40285e-19	0.5532	0.25	1.127
Mof_P 	P 	3.40285e-19	0.0594	0.25	0.65
Mof_Co	Co	0.5	0.0532	0.25	1.169
Mof_P 	P 	0.5	0.5594	0.25	0.777
_end
