data_functionalizedCrystal
_audit_creation_method	'EQeq! by Chris Wilmer'
_symmetry_space_group_name_H-M	'P1'
_symmetry_Int_Tables_number	1
_symmetry_cell_setting	triclinic
loop_
_symmetry_equiv_pos_as_xyz
  x,y,z
_cell_length_a	9.46
_cell_length_b	15.98
_cell_length_c	11.574
_cell_angle_alpha	90
_cell_angle_beta	93.89
_cell_angle_gamma	90
loop_
_atom_site_label
_atom_site_type_symbol
_atom_site_fract_x
_atom_site_fract_y
_atom_site_fract_z
_atom_site_charge
Mof_Zn	Zn	0.14276	0.91881	0.45022	1.242
Mof_O 	O 	0.9803	0.9319	0.335	-0.447
Mof_O 	O 	0.2555	0.814	0.2925	-0.277
Mof_O 	O 	0.3165	0.9354	0.3706	-0.415
Mof_C 	C 	0.5987	0.9124	0.3232	0.062
Mof_H 	H 	0.5789	0.9562	0.3725	0.05
Mof_O 	O 	0.5872	0.6726	0.0459	-0.428
Mof_C 	C 	0.3456	0.8719	0.3138	0.334
Mof_O 	O 	0.8217	0.9838	0.4507	-0.475
Mof_C 	C 	0.7671	0.8363	0.2206	0.066
Mof_H 	H 	0.8603	0.8276	0.2028	0.049
Mof_C 	C 	0.5219	0.8008	0.1975	0.051
Mof_H 	H 	0.4489	0.7673	0.1657	0.055
Mof_C 	C 	0.4906	0.8626	0.274	-0.097
Mof_C 	C 	0.7392	0.8954	0.2971	-0.128
Mof_C 	C 	0.6933	0.7176	0.087	0.33
Mof_C 	C 	0.6592	0.7867	0.1659	-0.099
Mof_C 	C 	0.8545	0.9418	0.3643	0.406
Mof_O 	O 	0.8167	0.7032	0.0646	-0.278
Mof_Zn	Zn	0.35724	0.41881	0.04978	1.244
Mof_O 	O 	0.5197	0.4319	0.165	-0.449
Mof_O 	O 	0.2445	0.314	0.2075	-0.275
Mof_O 	O 	0.1835	0.4354	0.1294	-0.414
Mof_C 	C 	0.9013	0.4124	0.1768	0.062
Mof_H 	H 	0.9211	0.4562	0.1275	0.05
Mof_O 	O 	0.9128	0.1726	0.4541	-0.43
Mof_C 	C 	0.1544	0.3719	0.1862	0.334
Mof_O 	O 	0.6783	0.4838	0.0493	-0.476
Mof_C 	C 	0.7329	0.3363	0.2794	0.066
Mof_H 	H 	0.6397	0.3276	0.2972	0.048
Mof_C 	C 	0.9781	0.3008	0.3025	0.049
Mof_H 	H 	0.0511	0.2673	0.3343	0.056
Mof_C 	C 	0.0094	0.3626	0.226	-0.097
Mof_C 	C 	0.7608	0.3954	0.2029	-0.128
Mof_C 	C 	0.8067	0.2176	0.413	0.33
Mof_C 	C 	0.8408	0.2867	0.3341	-0.099
Mof_C 	C 	0.6455	0.4418	0.1357	0.406
Mof_O 	O 	0.6833	0.2032	0.4354	-0.28
Mof_Zn	Zn	0.85724	0.08119	0.54978	1.243
Mof_O 	O 	0.0197	0.0681	0.665	-0.446
Mof_O 	O 	0.7445	0.186	0.7075	-0.276
Mof_O 	O 	0.6835	0.0646	0.6294	-0.414
Mof_C 	C 	0.4013	0.0876	0.6768	0.062
Mof_H 	H 	0.4211	0.0438	0.6275	0.05
Mof_O 	O 	0.4128	0.3274	0.9541	-0.428
Mof_C 	C 	0.6544	0.1281	0.6862	0.334
Mof_O 	O 	0.1783	0.0162	0.5493	-0.475
Mof_C 	C 	0.2329	0.1637	0.7794	0.066
Mof_H 	H 	0.1397	0.1724	0.7972	0.049
Mof_C 	C 	0.4781	0.1992	0.8025	0.051
Mof_H 	H 	0.5511	0.2327	0.8343	0.055
Mof_C 	C 	0.5094	0.1374	0.726	-0.097
Mof_C 	C 	0.2608	0.1046	0.7029	-0.128
Mof_C 	C 	0.3067	0.2824	0.913	0.33
Mof_C 	C 	0.3408	0.2133	0.8341	-0.099
Mof_C 	C 	0.1455	0.0582	0.6357	0.406
Mof_O 	O 	0.1833	0.2968	0.9354	-0.278
Mof_Zn	Zn	0.64276	0.58119	0.95022	1.244
Mof_O 	O 	0.4803	0.5681	0.835	-0.449
Mof_O 	O 	0.7555	0.686	0.7925	-0.275
Mof_O 	O 	0.8165	0.5646	0.8706	-0.414
Mof_C 	C 	0.0987	0.5876	0.8232	0.062
Mof_H 	H 	0.0789	0.5438	0.8725	0.05
Mof_O 	O 	0.0872	0.8274	0.5459	-0.43
Mof_C 	C 	0.8456	0.6281	0.8138	0.334
Mof_O 	O 	0.3217	0.5162	0.9507	-0.476
Mof_C 	C 	0.2671	0.6637	0.7206	0.066
Mof_H 	H 	0.3603	0.6724	0.7028	0.048
Mof_C 	C 	0.0219	0.6992	0.6975	0.049
Mof_H 	H 	0.9489	0.7327	0.6657	0.056
Mof_C 	C 	0.9906	0.6374	0.774	-0.097
Mof_C 	C 	0.2392	0.6046	0.7971	-0.128
Mof_C 	C 	0.1933	0.7824	0.587	0.33
Mof_C 	C 	0.1592	0.7133	0.6659	-0.099
Mof_C 	C 	0.3545	0.5582	0.8643	0.406
Mof_O 	O 	0.3167	0.7968	0.5646	-0.28
_end
