data_functionalizedCrystal
_audit_creation_method	'EQeq! by Chris Wilmer'
_symmetry_space_group_name_H-M	'P1'
_symmetry_Int_Tables_number	1
_symmetry_cell_setting	triclinic
loop_
_symmetry_equiv_pos_as_xyz
  x,y,z
_cell_length_a	10.856
_cell_length_b	19.706
_cell_length_c	22.799
_cell_angle_alpha	90
_cell_angle_beta	90
_cell_angle_gamma	99.49
loop_
_atom_site_label
_atom_site_type_symbol
_atom_site_fract_x
_atom_site_fract_y
_atom_site_fract_z
_atom_site_charge
Mof_Nd	Nd	0.64961	0.34736	0.64442	1.539
Mof_Nd	Nd	0.85039	0.15264	0.14442	1.532
Mof_Nd	Nd	0.14961	0.84736	0.85558	1.532
Mof_Nd	Nd	0.45874	0.59673	0.85149	1.954
Mof_Nd	Nd	0.35039	0.65264	0.35558	1.539
Mof_Nd	Nd	0.54126	0.40327	0.14851	1.954
Mof_Nd	Nd	0.95874	0.09673	0.64851	1.946
Mof_Nd	Nd	0.04126	0.90327	0.35149	1.946
Mof_Cu	Cu	0.6937	0.34412	0.82299	0.894
Mof_Cu	Cu	0.09005	0.90412	0.17319	0.875
Mof_Cu	Cu	0.90995	0.09588	0.82681	0.875
Mof_Cu	Cu	0.1937	0.84412	0.67701	0.893
Mof_Cu	Cu	0.3063	0.65588	0.17701	0.894
Mof_Cu	Cu	0.59005	0.40412	0.32681	0.876
Mof_Cu	Cu	0.8063	0.15588	0.32299	0.893
Mof_Cu	Cu	0.40995	0.59588	0.67319	0.876
Mof_H 	H 	0.5179	0.9974	0.1931	0.013
Mof_H 	H 	0.3913	0.1885	0.6995	0.032
Mof_H 	H 	0.1087	0.3115	0.1995	0.032
Mof_H 	H 	0.3815	0.0605	0.3028	0.053
Mof_H 	H 	0.6185	0.9395	0.6972	0.053
Mof_H 	H 	0.4821	0.0026	0.8069	0.013
Mof_H 	H 	0.2256	0.251	0.7044	0.019
Mof_H 	H 	0.0867	0.4661	0.0863	0.057
Mof_H 	H 	0.9821	0.5026	0.6931	0.011
Mof_H 	H 	0.0179	0.4974	0.3069	0.011
Mof_H 	H 	0.7256	0.751	0.7956	0.02
Mof_H 	H 	0.5867	0.9661	0.4137	0.057
Mof_H 	H 	0.4133	0.0339	0.5863	0.057
Mof_H 	H 	0.8913	0.6885	0.8005	0.032
Mof_H 	H 	0.9133	0.5339	0.9137	0.057
Mof_H 	H 	0.1185	0.4395	0.8028	0.054
Mof_H 	H 	0.7744	0.749	0.2956	0.019
Mof_H 	H 	0.2744	0.249	0.2044	0.02
Mof_H 	H 	0.8815	0.5605	0.1972	0.054
Mof_H 	H 	0.6087	0.8115	0.3005	0.032
Mof_C 	C 	0.4541	0.8324	0.6722	0.315
Mof_C 	C 	0.5362	0.1048	0.7933	-0.061
Mof_C 	C 	0.3442	0.954	0.4013	0.36
Mof_C 	C 	0.1413	0.4015	0.7841	-0.016
Mof_C 	C 	0.4912	0.8389	0.2394	-0.086
Mof_C 	C 	0.8143	0.9819	0.7628	0.441
Mof_C 	C 	0.6389	0.9693	0.2524	-0.096
Mof_C 	C 	0.9286	0.6638	0.2077	-0.032
Mof_C 	C 	0.9541	0.3324	0.8278	0.313
Mof_C 	C 	0.4638	0.8952	0.2067	-0.061
Mof_C 	C 	0.6489	0.1082	0.8319	0.339
Mof_C 	C 	0.0362	0.6048	0.7067	-0.062
Mof_C 	C 	0.6277	0.9986	0.4966	-0.036
Mof_C 	C 	0.8723	0.5014	0.9966	-0.036
Mof_C 	C 	0.8961	0.7205	0.2366	-0.122
Mof_C 	C 	0.076	0.7318	0.7288	0.381
Mof_C 	C 	0.424	0.7682	0.2288	0.381
Mof_C 	C 	0.2094	0.5407	0.2398	0.425
Mof_C 	C 	0.9912	0.3389	0.2606	-0.087
Mof_C 	C 	0.6413	0.9015	0.7159	-0.014
Mof_C 	C 	0.7462	0.9093	0.7526	-0.085
Mof_C 	C 	0.4636	0.2917	0.2741	0.419
Mof_C 	C 	0.0459	0.6676	0.1722	0.313
Mof_C 	C 	0.3143	0.4819	0.7372	0.436
Mof_C 	C 	0.7375	0.5067	0.9905	0.294
Mof_C 	C 	0.2538	0.0907	0.2474	-0.085
Mof_C 	C 	0.9234	0.4805	0.0478	-0.073
Mof_C 	C 	0.5364	0.7083	0.7259	0.419
Mof_C 	C 	0.2874	0.4179	0.1831	0.308
Mof_C 	C 	0.0714	0.3362	0.7923	-0.032
Mof_C 	C 	0.1039	0.2795	0.7634	-0.122
Mof_C 	C 	0.5714	0.8362	0.7077	-0.035
Mof_C 	C 	0.2906	0.9593	0.7398	0.421
Mof_C 	C 	0.0999	0.1427	0.1861	0.315
Mof_C 	C 	0.5459	0.1676	0.3278	0.315
Mof_C 	C 	0.3723	0.0014	0.5034	-0.036
Mof_C 	C 	0.7625	0.9933	0.4905	0.298
Mof_C 	C 	0.5766	0.0195	0.5478	-0.073
Mof_C 	C 	0.2065	0.2883	0.7254	0.01
Mof_C 	C 	0.2375	0.0067	0.5095	0.298
Mof_C 	C 	0.4001	0.3573	0.6861	0.316
Mof_C 	C 	0.2462	0.4093	0.7474	-0.083
Mof_C 	C 	0.2126	0.0821	0.6831	0.308
Mof_C 	C 	0.7094	0.0407	0.2602	0.421
Mof_C 	C 	0.1674	0.4129	0.216	-0.034
Mof_C 	C 	0.1389	0.4693	0.2476	-0.1
Mof_C 	C 	0.9638	0.3952	0.2933	-0.062
Mof_C 	C 	0.5523	0.9795	0.4483	-0.009
Mof_C 	C 	0.7874	0.9179	0.3169	0.308
Mof_C 	C 	0.0088	0.6611	0.7394	-0.087
Mof_C 	C 	0.8511	0.3918	0.3319	0.339
Mof_C 	C 	0.7065	0.7883	0.7746	0.009
Mof_C 	C 	0.8326	0.5871	0.784	-0.034
Mof_C 	C 	0.1489	0.6082	0.6681	0.339
Mof_C 	C 	0.4234	0.9805	0.4522	-0.073
Mof_C 	C 	0.7204	0.6476	0.2809	-0.063
Mof_C 	C 	0.9001	0.8573	0.8139	0.315
Mof_C 	C 	0.7935	0.7117	0.2746	0.01
Mof_C 	C 	0.5372	0.9601	0.2141	0.017
Mof_C 	C 	0.2204	0.1476	0.2191	-0.061
Mof_C 	C 	0.5999	0.6427	0.3139	0.316
Mof_C 	C 	0.8587	0.5985	0.2159	-0.016
Mof_C 	C 	0.7126	0.5821	0.8169	0.308
Mof_C 	C 	0.4083	0.1516	0.7218	-0.003
Mof_C 	C 	0.6558	0.046	0.5987	0.36
Mof_C 	C 	0.3961	0.2205	0.2634	-0.12
Mof_C 	C 	0.7906	0.4593	0.7602	0.425
Mof_C 	C 	0.2796	0.3524	0.7191	-0.063
Mof_C 	C 	0.4286	0.1638	0.2923	-0.035
Mof_C 	C 	0.0364	0.2083	0.7741	0.423
Mof_C 	C 	0.6674	0.9129	0.284	-0.034
Mof_C 	C 	0.7538	0.5907	0.2526	-0.083
Mof_C 	C 	0.924	0.2682	0.2712	0.381
Mof_C 	C 	0.8611	0.5307	0.7524	-0.1
Mof_C 	C 	0.0917	0.3484	0.2218	-0.001
Mof_C 	C 	0.8442	0.454	0.0987	0.36
Mof_C 	C 	0.9628	0.5399	0.7141	0.019
Mof_C 	C 	0.9636	0.7917	0.2259	0.423
Mof_C 	C 	0.6039	0.7795	0.7366	-0.12
Mof_C 	C 	0.3326	0.0871	0.716	-0.034
Mof_C 	C 	0.5917	0.8484	0.2782	-0.003
Mof_C 	C 	0.9477	0.5205	0.9483	-0.009
Mof_C 	C 	0.4477	0.0205	0.5517	-0.009
Mof_C 	C 	0.3511	0.8918	0.1681	0.339
Mof_C 	C 	0.9083	0.6516	0.7782	-0.001
Mof_C 	C 	0.0766	0.5195	0.9522	-0.073
Mof_C 	C 	0.0372	0.4601	0.2859	0.019
Mof_C 	C 	0.3587	0.0985	0.2841	-0.014
Mof_C 	C 	0.1857	0.0181	0.2372	0.441
Mof_C 	C 	0.6857	0.5181	0.2628	0.436
Mof_C 	C 	0.0523	0.4795	0.0517	-0.009
Mof_C 	C 	0.2625	0.4933	0.0095	0.294
Mof_C 	C 	0.1277	0.4986	0.0034	-0.036
Mof_C 	C 	0.3611	0.0307	0.7476	-0.096
Mof_C 	C 	0.2935	0.2117	0.2254	0.009
Mof_C 	C 	0.5088	0.1611	0.7606	-0.086
Mof_C 	C 	0.576	0.2318	0.7712	0.381
Mof_C 	C 	0.7796	0.8524	0.7809	-0.061
Mof_C 	C 	0.4628	0.0399	0.7859	0.017
Mof_C 	C 	0.1558	0.546	0.9013	0.36
Mof_O 	O 	0.3316	0.5394	0.039	-0.293
Mof_O 	O 	0.9608	0.3483	0.8805	-0.272
Mof_O 	O 	0.3015	0.4418	0.9876	-0.272
Mof_O 	O 	0.4084	0.726	0.271	-0.509
Mof_O 	O 	0.8532	0.0176	0.7196	-0.54
Mof_O 	O 	0.799	0.882	0.3616	-0.429
Mof_O 	O 	0.9084	0.226	0.229	-0.509
Mof_O 	O 	0.6684	0.4606	0.961	-0.293
Mof_O 	O 	0.9103	0.8207	0.8579	-0.437
Mof_O 	O 	0.8243	0.0006	0.8156	-0.454
Mof_O 	O 	0.7475	0.3708	0.3077	-0.394
Mof_O 	O 	0.0068	0.1037	0.2073	-0.407
Mof_O 	O 	0.226	0.5607	0.1868	-0.414
Mof_O 	O 	0.0916	0.774	0.771	-0.509
Mof_O 	O 	0.6757	0.4994	0.3156	-0.451
Mof_O 	O 	0.0038	0.8073	0.1748	-0.435
Mof_O 	O 	0.4962	0.6927	0.6748	-0.432
Mof_O 	O 	0.1684	0.9606	0.539	-0.296
Mof_O 	O 	0.3887	0.7524	0.1771	-0.417
Mof_O 	O 	0.774	0.0553	0.592	-0.521
Mof_O 	O 	0.7594	0.4236	0.7163	-0.534
Mof_O 	O 	0.4608	0.8483	0.6195	-0.273
Mof_O 	O 	0.1468	0.9824	0.2804	-0.54
Mof_O 	O 	0.3532	0.5176	0.7804	-0.537
Mof_O 	O 	0.4103	0.3207	0.6421	-0.439
Mof_O 	O 	0.6985	0.5582	0.0124	-0.272
Mof_O 	O 	0.2475	0.8708	0.1923	-0.394
Mof_O 	O 	0.0392	0.6517	0.1195	-0.272
Mof_O 	O 	0.1985	0.0582	0.4876	-0.272
Mof_O 	O 	0.5068	0.6037	0.2927	-0.409
Mof_O 	O 	0.8015	0.9418	0.5124	-0.272
Mof_O 	O 	0.8643	0.4128	0.3833	-0.32
Mof_O 	O 	0.5245	0.667	0.7681	-0.578
Mof_O 	O 	0.0245	0.167	0.7319	-0.576
Mof_O 	O 	0.6468	0.4824	0.2196	-0.537
Mof_O 	O 	0.9962	0.1927	0.8252	-0.435
Mof_O 	O 	0.6043	0.0594	0.6457	-0.303
Mof_O 	O 	0.3643	0.9128	0.1167	-0.319
Mof_O 	O 	0.9755	0.833	0.2681	-0.576
Mof_O 	O 	0.6462	0.1851	0.2988	-0.384
Mof_O 	O 	0.2525	0.6292	0.6923	-0.394
Mof_O 	O 	0.5916	0.274	0.729	-0.509
Mof_O 	O 	0.201	0.118	0.6384	-0.429
Mof_O 	O 	0.3538	0.8149	0.7012	-0.384
Mof_O 	O 	0.8887	0.2524	0.3229	-0.418
Mof_O 	O 	0.7525	0.1292	0.8077	-0.394
Mof_O 	O 	0.8825	0.9555	0.2944	-0.423
Mof_O 	O 	0.774	0.4393	0.8132	-0.414
Mof_O 	O 	0.6113	0.2476	0.8229	-0.417
Mof_O 	O 	0.5038	0.3073	0.3252	-0.432
Mof_O 	O 	0.6175	0.5445	0.7944	-0.426
Mof_O 	O 	0.2594	0.9236	0.7837	-0.534
Mof_O 	O 	0.8316	0.0394	0.461	-0.296
Mof_O 	O 	0.274	0.9393	0.6868	-0.414
Mof_O 	O 	0.299	0.382	0.1384	-0.43
Mof_O 	O 	0.226	0.9447	0.408	-0.521
Mof_O 	O 	0.1043	0.5594	0.8543	-0.303
Mof_O 	O 	0.726	0.0607	0.3132	-0.414
Mof_O 	O 	0.1357	0.5872	0.6167	-0.32
Mof_O 	O 	0.4932	0.3963	0.7073	-0.409
Mof_O 	O 	0.0897	0.1793	0.1421	-0.437
Mof_O 	O 	0.2406	0.5764	0.2837	-0.534
Mof_O 	O 	0.5897	0.6793	0.3579	-0.439
Mof_O 	O 	0.1113	0.7476	0.6771	-0.418
Mof_O 	O 	0.701	0.618	0.8616	-0.43
Mof_O 	O 	0.8538	0.3149	0.7988	-0.384
Mof_O 	O 	0.3825	0.4555	0.2056	-0.426
Mof_O 	O 	0.1175	0.0445	0.7056	-0.423
Mof_O 	O 	0.1462	0.6851	0.2012	-0.384
Mof_O 	O 	0.1757	0.9994	0.1844	-0.454
Mof_O 	O 	0.7406	0.0764	0.2163	-0.534
Mof_O 	O 	0.274	0.5553	0.908	-0.521
Mof_O 	O 	0.726	0.4447	0.092	-0.521
Mof_O 	O 	0.6357	0.0872	0.8833	-0.319
Mof_O 	O 	0.3243	0.5006	0.6844	-0.451
Mof_O 	O 	0.5392	0.1517	0.3805	-0.273
Mof_O 	O 	0.4755	0.333	0.2319	-0.578
Mof_O 	O 	0.3957	0.9406	0.3543	-0.303
Mof_O 	O 	0.9932	0.8963	0.7927	-0.407
Mof_O 	O 	0.8957	0.4406	0.1457	-0.303
_end
