data_functionalizedCrystal
_audit_creation_method	'EQeq! by Chris Wilmer'
_symmetry_space_group_name_H-M	'P1'
_symmetry_Int_Tables_number	1
_symmetry_cell_setting	triclinic
loop_
_symmetry_equiv_pos_as_xyz
  x,y,z
_cell_length_a	8.7421
_cell_length_b	11.2534
_cell_length_c	17.7222
_cell_angle_alpha	84.5027
_cell_angle_beta	75.7212
_cell_angle_gamma	67.1438
loop_
_atom_site_label
_atom_site_type_symbol
_atom_site_fract_x
_atom_site_fract_y
_atom_site_fract_z
_atom_site_charge
Mof_Sc	Sc	0.88569	0.75	0.72862	1.957
Mof_Sc	Sc	0.36431	0.75	0.77138	1.959
Mof_Sc	Sc	0.11431	0.25	0.27138	1.958
Mof_Sc	Sc	0.63569	0.25	0.22862	1.959
Mof_C 	C 	0.69816	0.31906	0.75042	0.01
Mof_C 	C 	0.26114	0.63988	0.63244	0.535
Mof_C 	C 	0.39454	0.5625	0.56142	-0.138
Mof_C 	C 	0.31755	0.53112	0.50898	-0
Mof_C 	C 	0.56252	0.53954	0.55602	0.017
Mof_C 	C 	0.05142	0.18094	0.75042	0.011
Mof_C 	C 	0.60642	0.86012	0.63244	0.535
Mof_C 	C 	0.54404	0.9375	0.56142	-0.139
Mof_C 	C 	0.67347	0.96888	0.50898	0
Mof_C 	C 	0.38146	0.96046	0.55602	0.019
Mof_C 	C 	0.98278	0.31906	0.74958	0.009
Mof_C 	C 	0.09898	0.63988	0.86756	0.535
Mof_C 	C 	0.04296	0.5625	0.93858	-0.137
Mof_C 	C 	0.15133	0.53112	0.99102	0.001
Mof_C 	C 	0.89794	0.53954	0.94398	0.015
Mof_C 	C 	0.76764	0.18094	0.74958	0.011
Mof_C 	C 	0.53346	0.86012	0.86756	0.535
Mof_C 	C 	0.51846	0.9375	0.93858	-0.139
Mof_C 	C 	0.35765	0.96888	0.99102	0.001
Mof_C 	C 	0.65808	0.96046	0.94398	0.017
Mof_C 	C 	0.30184	0.68094	0.24958	0.01
Mof_C 	C 	0.73886	0.36012	0.36756	0.536
Mof_C 	C 	0.60546	0.4375	0.43858	-0.14
Mof_C 	C 	0.68245	0.46888	0.49102	0.003
Mof_C 	C 	0.43748	0.46046	0.44398	0.019
Mof_C 	C 	0.94858	0.81906	0.24958	0.012
Mof_C 	C 	0.39358	0.13988	0.36756	0.535
Mof_C 	C 	0.45596	0.0625	0.43858	-0.139
Mof_C 	C 	0.32653	0.03112	0.49102	-0
Mof_C 	C 	0.61854	0.03954	0.44398	0.019
Mof_C 	C 	0.01722	0.68094	0.25042	0.009
Mof_C 	C 	0.90102	0.36012	0.13244	0.535
Mof_C 	C 	0.95704	0.4375	0.06142	-0.138
Mof_C 	C 	0.84867	0.46888	0.00898	0.004
Mof_C 	C 	0.10206	0.46046	0.05602	0.016
Mof_C 	C 	0.23236	0.81906	0.25042	0.011
Mof_C 	C 	0.46654	0.13988	0.13244	0.536
Mof_C 	C 	0.48154	0.0625	0.06142	-0.139
Mof_C 	C 	0.64235	0.03112	0.00898	0.003
Mof_C 	C 	0.34192	0.03954	0.05602	0.018
Mof_C 	C 	0.73596	0.52808	0.75	0.536
Mof_C 	C 	0.81034	0.37932	0.75	-0.135
Mof_C 	C 	0.01404	0.97192	0.75	0.539
Mof_C 	C 	0.93966	0.12068	0.75	-0.137
Mof_C 	C 	0.26404	0.47192	0.25	0.536
Mof_C 	C 	0.18966	0.62068	0.25	-0.135
Mof_C 	C 	0.98596	0.02808	0.25	0.539
Mof_C 	C 	0.06034	0.87932	0.25	-0.137
Mof_O 	O 	0.83835	0.5842	0.72886	-0.573
Mof_O 	O 	0.10769	0.66894	0.6406	-0.554
Mof_O 	O 	0.31658	0.66966	0.68468	-0.576
Mof_O 	O 	0.93279	0.9158	0.72886	-0.575
Mof_O 	O 	0.75171	0.83106	0.6406	-0.555
Mof_O 	O 	0.49874	0.83034	0.68468	-0.576
Mof_O 	O 	0.57745	0.5842	0.77114	-0.573
Mof_O 	O 	0.22337	0.66894	0.8594	-0.555
Mof_O 	O 	0.01376	0.66966	0.81532	-0.575
Mof_O 	O 	0.15141	0.9158	0.77114	-0.574
Mof_O 	O 	0.41723	0.83106	0.8594	-0.555
Mof_O 	O 	0.67092	0.83034	0.81532	-0.576
Mof_O 	O 	0.16165	0.4158	0.27114	-0.573
Mof_O 	O 	0.89231	0.33106	0.3594	-0.554
Mof_O 	O 	0.68342	0.33034	0.31532	-0.576
Mof_O 	O 	0.06721	0.0842	0.27114	-0.575
Mof_O 	O 	0.24829	0.16894	0.3594	-0.555
Mof_O 	O 	0.50126	0.16966	0.31532	-0.576
Mof_O 	O 	0.42255	0.4158	0.22886	-0.573
Mof_O 	O 	0.77663	0.33106	0.1406	-0.554
Mof_O 	O 	0.98624	0.33034	0.18468	-0.575
Mof_O 	O 	0.84859	0.0842	0.22886	-0.574
Mof_O 	O 	0.58277	0.16894	0.1406	-0.554
Mof_O 	O 	0.32908	0.16966	0.18468	-0.576
Mof_H 	H 	0.55728	0.37401	0.75138	0.032
Mof_H 	H 	0.17298	0.56289	0.5218	0.042
Mof_H 	H 	0.60088	0.57709	0.60301	0.025
Mof_H 	H 	0.19134	0.12599	0.75138	0.032
Mof_H 	H 	0.80522	0.93711	0.5218	0.042
Mof_H 	H 	0.29612	0.92291	0.60301	0.025
Mof_H 	H 	0.06871	0.37401	0.74862	0.033
Mof_H 	H 	0.26413	0.56289	0.9782	0.042
Mof_H 	H 	0.82203	0.57709	0.89699	0.025
Mof_H 	H 	0.68267	0.12599	0.74862	0.032
Mof_H 	H 	0.25767	0.93711	0.9782	0.042
Mof_H 	H 	0.78097	0.92291	0.89699	0.025
Mof_H 	H 	0.44272	0.62599	0.24862	0.033
Mof_H 	H 	0.82437	0.44339	0.48542	0.039
Mof_H 	H 	0.39912	0.42291	0.39699	0.025
Mof_H 	H 	0.80866	0.87401	0.24862	0.032
Mof_H 	H 	0.19478	0.06289	0.4782	0.042
Mof_H 	H 	0.70388	0.07709	0.39699	0.025
Mof_H 	H 	0.93129	0.62599	0.25138	0.033
Mof_H 	H 	0.73225	0.44339	0.01458	0.039
Mof_H 	H 	0.18213	0.42488	0.10153	0.025
Mof_H 	H 	0.31733	0.87401	0.25138	0.032
Mof_H 	H 	0.75318	0.05661	0.01458	0.039
Mof_H 	H 	0.21634	0.07512	0.10153	0.024
_end
