data_functionalizedCrystal
_audit_creation_method	'EQeq! by Chris Wilmer'
_symmetry_space_group_name_H-M	'P1'
_symmetry_Int_Tables_number	1
_symmetry_cell_setting	triclinic
loop_
_symmetry_equiv_pos_as_xyz
  x,y,z
_cell_length_a	20.9939
_cell_length_b	20.9939
_cell_length_c	20.9939
_cell_angle_alpha	90
_cell_angle_beta	90
_cell_angle_gamma	90
loop_
_atom_site_label
_atom_site_type_symbol
_atom_site_fract_x
_atom_site_fract_y
_atom_site_fract_z
_atom_site_charge
Mof_O 	O 	0.3586	0.07301	0.4333	-0.415
Mof_S 	S 	0.39548	0.18604	0.2885	0.094
Mof_C 	C 	0.3105	0.1873	0.3736	-0.052
Mof_C 	C 	0.3373	0.2429	0.2906	-0.013
Mof_H 	H 	0.2873	0.1765	0.4109	-0.017
Mof_O 	O 	0.6414	0.92699	0.4333	-0.361
Mof_S 	S 	0.60452	0.81396	0.2885	0.087
Mof_C 	C 	0.6895	0.8127	0.3736	-0.051
Mof_C 	C 	0.6627	0.7571	0.2906	-0.003
Mof_H 	H 	0.7127	0.8235	0.4109	0.008
Mof_O 	O 	0.6414	0.07301	0.5667	-0.408
Mof_S 	S 	0.60452	0.18604	0.7115	0.09
Mof_C 	C 	0.6895	0.1873	0.6264	-0.046
Mof_C 	C 	0.6627	0.2429	0.7094	-0.006
Mof_H 	H 	0.7127	0.1765	0.5891	-0.006
Mof_O 	O 	0.3586	0.92699	0.5667	-0.363
Mof_S 	S 	0.39548	0.81396	0.7115	0.086
Mof_C 	C 	0.3105	0.8127	0.6264	-0.052
Mof_C 	C 	0.3373	0.7571	0.7094	-0
Mof_H 	H 	0.2873	0.8235	0.5891	0.002
Mof_O 	O 	0.4333	0.3586	0.07301	-0.414
Mof_S 	S 	0.2885	0.39548	0.18604	0.095
Mof_C 	C 	0.3736	0.3105	0.1873	-0.051
Mof_C 	C 	0.2906	0.3373	0.2429	-0.012
Mof_H 	H 	0.4109	0.2873	0.1765	-0.016
Mof_O 	O 	0.4333	0.6414	0.92699	-0.36
Mof_S 	S 	0.2885	0.60452	0.81396	0.088
Mof_C 	C 	0.3736	0.6895	0.8127	-0.05
Mof_C 	C 	0.2906	0.6627	0.7571	-0.002
Mof_H 	H 	0.4109	0.7127	0.8235	0.008
Mof_O 	O 	0.5667	0.6414	0.07301	-0.408
Mof_S 	S 	0.7115	0.60452	0.18604	0.09
Mof_C 	C 	0.6264	0.6895	0.1873	-0.046
Mof_C 	C 	0.7094	0.6627	0.2429	-0.006
Mof_H 	H 	0.5891	0.7127	0.1765	-0.006
Mof_O 	O 	0.5667	0.3586	0.92699	-0.363
Mof_S 	S 	0.7115	0.39548	0.81396	0.086
Mof_C 	C 	0.6264	0.3105	0.8127	-0.052
Mof_C 	C 	0.7094	0.3373	0.7571	-0
Mof_H 	H 	0.5891	0.2873	0.8235	0.002
Mof_O 	O 	0.07301	0.4333	0.3586	-0.414
Mof_S 	S 	0.18604	0.2885	0.39548	0.095
Mof_C 	C 	0.1873	0.3736	0.3105	-0.051
Mof_C 	C 	0.2429	0.2906	0.3373	-0.012
Mof_H 	H 	0.1765	0.4109	0.2873	-0.016
Mof_O 	O 	0.92699	0.4333	0.6414	-0.36
Mof_S 	S 	0.81396	0.2885	0.60452	0.088
Mof_C 	C 	0.8127	0.3736	0.6895	-0.05
Mof_C 	C 	0.7571	0.2906	0.6627	-0.002
Mof_H 	H 	0.8235	0.4109	0.7127	0.008
Mof_O 	O 	0.07301	0.5667	0.6414	-0.408
Mof_S 	S 	0.18604	0.7115	0.60452	0.09
Mof_C 	C 	0.1873	0.6264	0.6895	-0.046
Mof_C 	C 	0.2429	0.7094	0.6627	-0.006
Mof_H 	H 	0.1765	0.5891	0.7127	-0.006
Mof_O 	O 	0.92699	0.5667	0.3586	-0.363
Mof_S 	S 	0.81396	0.7115	0.39548	0.086
Mof_C 	C 	0.8127	0.6264	0.3105	-0.052
Mof_C 	C 	0.7571	0.7094	0.3373	-0
Mof_H 	H 	0.8235	0.5891	0.2873	0.002
Mof_O 	O 	0.07301	0.3586	0.5667	-0.412
Mof_S 	S 	0.18604	0.39548	0.7115	0.092
Mof_C 	C 	0.1873	0.3105	0.6264	-0.049
Mof_C 	C 	0.2429	0.3373	0.7094	-0.008
Mof_H 	H 	0.1765	0.2873	0.5891	-0.014
Mof_O 	O 	0.92699	0.6414	0.5667	-0.359
Mof_S 	S 	0.81396	0.60452	0.7115	0.084
Mof_C 	C 	0.8127	0.6895	0.6264	-0.049
Mof_C 	C 	0.7571	0.6627	0.7094	0.002
Mof_H 	H 	0.8235	0.7127	0.5891	0.01
Mof_O 	O 	0.07301	0.6414	0.4333	-0.41
Mof_S 	S 	0.18604	0.60452	0.2885	0.094
Mof_C 	C 	0.1873	0.6895	0.3736	-0.048
Mof_C 	C 	0.2429	0.6627	0.2906	-0.01
Mof_H 	H 	0.1765	0.7127	0.4109	-0.008
Mof_O 	O 	0.92699	0.3586	0.4333	-0.364
Mof_S 	S 	0.81396	0.39548	0.2885	0.089
Mof_C 	C 	0.8127	0.3105	0.3736	-0.053
Mof_C 	C 	0.7571	0.3373	0.2906	-0.004
Mof_H 	H 	0.8235	0.2873	0.4109	-0
Mof_O 	O 	0.3586	0.4333	0.92699	-0.364
Mof_S 	S 	0.39548	0.2885	0.81396	0.089
Mof_C 	C 	0.3105	0.3736	0.8127	-0.053
Mof_C 	C 	0.3373	0.2906	0.7571	-0.004
Mof_H 	H 	0.2873	0.4109	0.8235	-0
Mof_O 	O 	0.6414	0.4333	0.07301	-0.41
Mof_S 	S 	0.60452	0.2885	0.18604	0.094
Mof_C 	C 	0.6895	0.3736	0.1873	-0.048
Mof_C 	C 	0.6627	0.2906	0.2429	-0.01
Mof_H 	H 	0.7127	0.4109	0.1765	-0.008
Mof_O 	O 	0.6414	0.5667	0.92699	-0.359
Mof_S 	S 	0.60452	0.7115	0.81396	0.084
Mof_C 	C 	0.6895	0.6264	0.8127	-0.049
Mof_C 	C 	0.6627	0.7094	0.7571	0.002
Mof_H 	H 	0.7127	0.5891	0.8235	0.01
Mof_O 	O 	0.3586	0.5667	0.07301	-0.412
Mof_S 	S 	0.39548	0.7115	0.18604	0.092
Mof_C 	C 	0.3105	0.6264	0.1873	-0.049
Mof_C 	C 	0.3373	0.7094	0.2429	-0.008
Mof_H 	H 	0.2873	0.5891	0.1765	-0.014
Mof_O 	O 	0.4333	0.07301	0.6414	-0.41
Mof_S 	S 	0.2885	0.18604	0.60452	0.094
Mof_C 	C 	0.3736	0.1873	0.6895	-0.048
Mof_C 	C 	0.2906	0.2429	0.6627	-0.01
Mof_H 	H 	0.4109	0.1765	0.7127	-0.008
Mof_O 	O 	0.4333	0.92699	0.3586	-0.364
Mof_S 	S 	0.2885	0.81396	0.39548	0.089
Mof_C 	C 	0.3736	0.8127	0.3105	-0.053
Mof_C 	C 	0.2906	0.7571	0.3373	-0.004
Mof_H 	H 	0.4109	0.8235	0.2873	-0
Mof_O 	O 	0.5667	0.07301	0.3586	-0.412
Mof_S 	S 	0.7115	0.18604	0.39548	0.092
Mof_C 	C 	0.6264	0.1873	0.3105	-0.049
Mof_C 	C 	0.7094	0.2429	0.3373	-0.008
Mof_H 	H 	0.5891	0.1765	0.2873	-0.014
Mof_O 	O 	0.5667	0.92699	0.6414	-0.359
Mof_S 	S 	0.7115	0.81396	0.60452	0.084
Mof_C 	C 	0.6264	0.8127	0.6895	-0.049
Mof_C 	C 	0.7094	0.7571	0.6627	0.002
Mof_H 	H 	0.5891	0.8235	0.7127	0.01
Mof_O 	O 	0.6414	0.92699	0.5667	-0.359
Mof_S 	S 	0.60452	0.81396	0.7115	0.084
Mof_C 	C 	0.6895	0.8127	0.6264	-0.049
Mof_C 	C 	0.6627	0.7571	0.7094	0.002
Mof_H 	H 	0.7127	0.8235	0.5891	0.01
Mof_O 	O 	0.3586	0.07301	0.5667	-0.412
Mof_S 	S 	0.39548	0.18604	0.7115	0.092
Mof_C 	C 	0.3105	0.1873	0.6264	-0.049
Mof_C 	C 	0.3373	0.2429	0.7094	-0.008
Mof_H 	H 	0.2873	0.1765	0.5891	-0.014
Mof_O 	O 	0.3586	0.92699	0.4333	-0.364
Mof_S 	S 	0.39548	0.81396	0.2885	0.089
Mof_C 	C 	0.3105	0.8127	0.3736	-0.053
Mof_C 	C 	0.3373	0.7571	0.2906	-0.004
Mof_H 	H 	0.2873	0.8235	0.4109	-0
Mof_O 	O 	0.6414	0.07301	0.4333	-0.41
Mof_S 	S 	0.60452	0.18604	0.2885	0.094
Mof_C 	C 	0.6895	0.1873	0.3736	-0.048
Mof_C 	C 	0.6627	0.2429	0.2906	-0.01
Mof_H 	H 	0.7127	0.1765	0.4109	-0.008
Mof_O 	O 	0.5667	0.6414	0.92699	-0.359
Mof_S 	S 	0.7115	0.60452	0.81396	0.084
Mof_C 	C 	0.6264	0.6895	0.8127	-0.049
Mof_C 	C 	0.7094	0.6627	0.7571	0.002
Mof_H 	H 	0.5891	0.7127	0.8235	0.01
Mof_O 	O 	0.5667	0.3586	0.07301	-0.412
Mof_S 	S 	0.7115	0.39548	0.18604	0.092
Mof_C 	C 	0.6264	0.3105	0.1873	-0.049
Mof_C 	C 	0.7094	0.3373	0.2429	-0.008
Mof_H 	H 	0.5891	0.2873	0.1765	-0.014
Mof_O 	O 	0.4333	0.3586	0.92699	-0.364
Mof_S 	S 	0.2885	0.39548	0.81396	0.089
Mof_C 	C 	0.3736	0.3105	0.8127	-0.053
Mof_C 	C 	0.2906	0.3373	0.7571	-0.004
Mof_H 	H 	0.4109	0.2873	0.8235	-0
Mof_O 	O 	0.4333	0.6414	0.07301	-0.41
Mof_S 	S 	0.2885	0.60452	0.18604	0.094
Mof_C 	C 	0.3736	0.6895	0.1873	-0.048
Mof_C 	C 	0.2906	0.6627	0.2429	-0.01
Mof_H 	H 	0.4109	0.7127	0.1765	-0.008
Mof_O 	O 	0.92699	0.5667	0.6414	-0.359
Mof_S 	S 	0.81396	0.7115	0.60452	0.084
Mof_C 	C 	0.8127	0.6264	0.6895	-0.049
Mof_C 	C 	0.7571	0.7094	0.6627	0.002
Mof_H 	H 	0.8235	0.5891	0.7127	0.01
Mof_O 	O 	0.07301	0.5667	0.3586	-0.412
Mof_S 	S 	0.18604	0.7115	0.39548	0.092
Mof_C 	C 	0.1873	0.6264	0.3105	-0.049
Mof_C 	C 	0.2429	0.7094	0.3373	-0.008
Mof_H 	H 	0.1765	0.5891	0.2873	-0.014
Mof_O 	O 	0.92699	0.4333	0.3586	-0.364
Mof_S 	S 	0.81396	0.2885	0.39548	0.089
Mof_C 	C 	0.8127	0.3736	0.3105	-0.053
Mof_C 	C 	0.7571	0.2906	0.3373	-0.004
Mof_H 	H 	0.8235	0.4109	0.2873	-0
Mof_O 	O 	0.07301	0.4333	0.6414	-0.41
Mof_S 	S 	0.18604	0.2885	0.60452	0.094
Mof_C 	C 	0.1873	0.3736	0.6895	-0.048
Mof_C 	C 	0.2429	0.2906	0.6627	-0.01
Mof_H 	H 	0.1765	0.4109	0.7127	-0.008
Mof_O 	O 	0.92699	0.6414	0.4333	-0.36
Mof_S 	S 	0.81396	0.60452	0.2885	0.088
Mof_C 	C 	0.8127	0.6895	0.3736	-0.05
Mof_C 	C 	0.7571	0.6627	0.2906	-0.002
Mof_H 	H 	0.8235	0.7127	0.4109	0.008
Mof_O 	O 	0.07301	0.3586	0.4333	-0.414
Mof_S 	S 	0.18604	0.39548	0.2885	0.095
Mof_C 	C 	0.1873	0.3105	0.3736	-0.051
Mof_C 	C 	0.2429	0.3373	0.2906	-0.012
Mof_H 	H 	0.1765	0.2873	0.4109	-0.016
Mof_O 	O 	0.92699	0.3586	0.5667	-0.363
Mof_S 	S 	0.81396	0.39548	0.7115	0.086
Mof_C 	C 	0.8127	0.3105	0.6264	-0.052
Mof_C 	C 	0.7571	0.3373	0.7094	-0
Mof_H 	H 	0.8235	0.2873	0.5891	0.002
Mof_O 	O 	0.07301	0.6414	0.5667	-0.408
Mof_S 	S 	0.18604	0.60452	0.7115	0.09
Mof_C 	C 	0.1873	0.6895	0.6264	-0.046
Mof_C 	C 	0.2429	0.6627	0.7094	-0.006
Mof_H 	H 	0.1765	0.7127	0.5891	-0.006
Mof_O 	O 	0.6414	0.5667	0.07301	-0.408
Mof_S 	S 	0.60452	0.7115	0.18604	0.09
Mof_C 	C 	0.6895	0.6264	0.1873	-0.046
Mof_C 	C 	0.6627	0.7094	0.2429	-0.006
Mof_H 	H 	0.7127	0.5891	0.1765	-0.006
Mof_O 	O 	0.3586	0.5667	0.92699	-0.363
Mof_S 	S 	0.39548	0.7115	0.81396	0.086
Mof_C 	C 	0.3105	0.6264	0.8127	-0.052
Mof_C 	C 	0.3373	0.7094	0.7571	-0
Mof_H 	H 	0.2873	0.5891	0.8235	0.002
Mof_O 	O 	0.3586	0.4333	0.07301	-0.414
Mof_S 	S 	0.39548	0.2885	0.18604	0.095
Mof_C 	C 	0.3105	0.3736	0.1873	-0.051
Mof_C 	C 	0.3373	0.2906	0.2429	-0.012
Mof_H 	H 	0.2873	0.4109	0.1765	-0.016
Mof_O 	O 	0.6414	0.4333	0.92699	-0.36
Mof_S 	S 	0.60452	0.2885	0.81396	0.088
Mof_C 	C 	0.6895	0.3736	0.8127	-0.05
Mof_C 	C 	0.6627	0.2906	0.7571	-0.002
Mof_H 	H 	0.7127	0.4109	0.8235	0.008
Mof_O 	O 	0.5667	0.92699	0.3586	-0.363
Mof_S 	S 	0.7115	0.81396	0.39548	0.086
Mof_C 	C 	0.6264	0.8127	0.3105	-0.052
Mof_C 	C 	0.7094	0.7571	0.3373	-0
Mof_H 	H 	0.5891	0.8235	0.2873	0.002
Mof_O 	O 	0.5667	0.07301	0.6414	-0.408
Mof_S 	S 	0.7115	0.18604	0.60452	0.09
Mof_C 	C 	0.6264	0.1873	0.6895	-0.046
Mof_C 	C 	0.7094	0.2429	0.6627	-0.006
Mof_H 	H 	0.5891	0.1765	0.7127	-0.006
Mof_O 	O 	0.4333	0.92699	0.6414	-0.36
Mof_S 	S 	0.2885	0.81396	0.60452	0.088
Mof_C 	C 	0.3736	0.8127	0.6895	-0.05
Mof_C 	C 	0.2906	0.7571	0.6627	-0.002
Mof_H 	H 	0.4109	0.8235	0.7127	0.008
Mof_O 	O 	0.4333	0.07301	0.3586	-0.414
Mof_S 	S 	0.2885	0.18604	0.39548	0.095
Mof_C 	C 	0.3736	0.1873	0.3105	-0.051
Mof_C 	C 	0.2906	0.2429	0.3373	-0.012
Mof_H 	H 	0.4109	0.1765	0.2873	-0.016
Mof_Mn	Mn	0.36541	-5.45634e-33	0.5	0.782
Mof_Mn	Mn	0.63459	-5.45634e-33	0.5	0.79
Mof_Mn	Mn	0.5	0.36541	-0	0.782
Mof_Mn	Mn	0.5	0.63459	-0	0.79
Mof_Mn	Mn	9.55457e-33	0.5	0.36541	0.782
Mof_Mn	Mn	-8.53334e-33	0.5	0.63459	0.79
Mof_Mn	Mn	7.33103e-33	0.36541	0.5	0.782
Mof_Mn	Mn	-9.03797e-33	0.63459	0.5	0.79
Mof_Mn	Mn	0.36541	0.5	-0	0.782
Mof_Mn	Mn	0.63459	0.5	-0	0.79
Mof_Mn	Mn	0.5	-5.45634e-33	0.63459	0.79
Mof_Mn	Mn	0.5	-2.72817e-33	0.36541	0.782
Mof_C 	C 	0.3854	0.0945	0.3854	0.397
Mof_C 	C 	0.3575	0.1536	0.3575	-0.093
Mof_C 	C 	0.6146	0.9055	0.3854	0.391
Mof_C 	C 	0.6425	0.8464	0.3575	-0.068
Mof_C 	C 	0.6146	0.0945	0.6146	0.4
Mof_C 	C 	0.6425	0.1536	0.6425	-0.087
Mof_C 	C 	0.3854	0.9055	0.6146	0.391
Mof_C 	C 	0.3575	0.8464	0.6425	-0.068
Mof_C 	C 	0.3854	0.3854	0.0945	0.397
Mof_C 	C 	0.3575	0.3575	0.1536	-0.093
Mof_C 	C 	0.3854	0.6146	0.9055	0.391
Mof_C 	C 	0.3575	0.6425	0.8464	-0.068
Mof_C 	C 	0.6146	0.6146	0.0945	0.4
Mof_C 	C 	0.6425	0.6425	0.1536	-0.087
Mof_C 	C 	0.6146	0.3854	0.9055	0.391
Mof_C 	C 	0.6425	0.3575	0.8464	-0.068
Mof_C 	C 	0.0945	0.3854	0.3854	0.397
Mof_C 	C 	0.1536	0.3575	0.3575	-0.093
Mof_C 	C 	0.9055	0.3854	0.6146	0.391
Mof_C 	C 	0.8464	0.3575	0.6425	-0.068
Mof_C 	C 	0.0945	0.6146	0.6146	0.4
Mof_C 	C 	0.1536	0.6425	0.6425	-0.087
Mof_C 	C 	0.9055	0.6146	0.3854	0.391
Mof_C 	C 	0.8464	0.6425	0.3575	-0.068
Mof_C 	C 	0.0945	0.3854	0.6146	0.399
Mof_C 	C 	0.1536	0.3575	0.6425	-0.09
Mof_C 	C 	0.9055	0.6146	0.6146	0.392
Mof_C 	C 	0.8464	0.6425	0.6425	-0.065
Mof_C 	C 	0.0945	0.6146	0.3854	0.399
Mof_C 	C 	0.1536	0.6425	0.3575	-0.09
Mof_C 	C 	0.9055	0.3854	0.3854	0.39
Mof_C 	C 	0.8464	0.3575	0.3575	-0.071
Mof_C 	C 	0.3854	0.3854	0.9055	0.39
Mof_C 	C 	0.3575	0.3575	0.8464	-0.071
Mof_C 	C 	0.6146	0.3854	0.0945	0.399
Mof_C 	C 	0.6425	0.3575	0.1536	-0.09
Mof_C 	C 	0.6146	0.6146	0.9055	0.392
Mof_C 	C 	0.6425	0.6425	0.8464	-0.065
Mof_C 	C 	0.3854	0.6146	0.0945	0.399
Mof_C 	C 	0.3575	0.6425	0.1536	-0.09
Mof_C 	C 	0.3854	0.0945	0.6146	0.399
Mof_C 	C 	0.3575	0.1536	0.6425	-0.09
Mof_C 	C 	0.3854	0.9055	0.3854	0.39
Mof_C 	C 	0.3575	0.8464	0.3575	-0.071
Mof_C 	C 	0.6146	0.0945	0.3854	0.399
Mof_C 	C 	0.6425	0.1536	0.3575	-0.09
Mof_C 	C 	0.6146	0.9055	0.6146	0.392
Mof_C 	C 	0.6425	0.8464	0.6425	-0.065
_end
