data_functionalizedCrystal
_audit_creation_method	'EQeq! by Chris Wilmer'
_symmetry_space_group_name_H-M	'P1'
_symmetry_Int_Tables_number	1
_symmetry_cell_setting	triclinic
loop_
_symmetry_equiv_pos_as_xyz
  x,y,z
_cell_length_a	20.1658
_cell_length_b	18.5518
_cell_length_c	12.158
_cell_angle_alpha	90
_cell_angle_beta	95.331
_cell_angle_gamma	90
loop_
_atom_site_label
_atom_site_type_symbol
_atom_site_fract_x
_atom_site_fract_y
_atom_site_fract_z
_atom_site_charge
Mof_O 	O 	0.0381	0.9993	0.1615	-0.964
Mof_H 	H 	0.0788	0.99	0.162	0.336
Mof_O 	O 	0.9483	0.9	0.0079	-0.377
Mof_O 	O 	0.9289	0.8647	0.1773	-0.411
Mof_O 	O 	0.0671	0.8615	0.8268	-0.515
Mof_O 	O 	0.0873	0.9444	0.9601	-0.441
Mof_C 	C 	0.915	0.8671	0.073	0.401
Mof_C 	C 	0.8548	0.8255	0.029	-0.167
Mof_C 	C 	0.8188	0.7869	0.099	0.055
Mof_H 	H 	0.8328	0.7859	0.1758	0.043
Mof_C 	C 	0.7607	0.7483	0.0579	-0.089
Mof_C 	C 	0.8348	0.8268	0.9135	0.143
Mof_H 	H 	0.8607	0.8521	0.8647	0.016
Mof_C 	C 	0.7224	0.7089	0.1271	0.01
Mof_H 	H 	0.7361	0.7067	0.204	0.037
Mof_C 	C 	0.0987	0.885	0.9135	0.321
Mof_C 	C 	0.1572	0.8413	0.9603	0.017
Mof_C 	C 	0.1959	0.8645	0.058	-0.127
Mof_H 	H 	0.1844	0.9076	0.0938	0.066
Mof_C 	C 	0.2495	0.8249	0.1005	0.025
Mof_H 	H 	0.2745	0.8409	0.166	0.028
Mof_C 	C 	0.1755	0.7794	0.9101	-0.135
Mof_H 	H 	0.1495	0.7633	0.8456	0.072
Mof_C 	C 	0.2683	0.7614	0.0497	-0.126
Mof_O 	O 	0.5381	0.4993	0.1615	-0.92
Mof_H 	H 	0.5788	0.49	0.162	0.312
Mof_O 	O 	0.4483	0.4	0.0079	-0.51
Mof_O 	O 	0.4289	0.3647	0.1773	-0.515
Mof_O 	O 	0.5671	0.3615	0.8268	-0.466
Mof_O 	O 	0.5873	0.4444	0.9601	-0.435
Mof_C 	C 	0.415	0.3671	0.073	0.424
Mof_C 	C 	0.3548	0.3255	0.029	-0.229
Mof_C 	C 	0.3188	0.2869	0.099	0.072
Mof_H 	H 	0.3328	0.2859	0.1758	0.015
Mof_C 	C 	0.2607	0.2483	0.0579	-0.129
Mof_C 	C 	0.3348	0.3268	0.9135	0.164
Mof_H 	H 	0.3607	0.3521	0.8647	-0.016
Mof_C 	C 	0.2224	0.2089	0.1271	0.01
Mof_H 	H 	0.2361	0.2067	0.204	0.019
Mof_C 	C 	0.5987	0.385	0.9135	0.329
Mof_C 	C 	0.6572	0.3413	0.9603	0.029
Mof_C 	C 	0.6959	0.3645	0.058	-0.123
Mof_H 	H 	0.6844	0.4076	0.0938	0.063
Mof_C 	C 	0.7495	0.3249	0.1005	0.026
Mof_H 	H 	0.7745	0.3409	0.166	0.035
Mof_C 	C 	0.6755	0.2794	0.9101	-0.133
Mof_H 	H 	0.6495	0.2633	0.8456	0.088
Mof_C 	C 	0.7683	0.2614	0.0497	-0.116
Mof_O 	O 	0.9619	0.9993	0.3385	-0.695
Mof_H 	H 	0.9212	0.99	0.338	0.289
Mof_O 	O 	0.0517	0.9	0.4921	-0.519
Mof_O 	O 	0.0711	0.8647	0.3227	-0.552
Mof_O 	O 	0.9329	0.8615	0.6732	-0.366
Mof_O 	O 	0.9127	0.9444	0.5399	-0.36
Mof_C 	C 	0.085	0.8671	0.427	0.395
Mof_C 	C 	0.1452	0.8255	0.471	-0.122
Mof_C 	C 	0.1812	0.7869	0.401	-0.016
Mof_H 	H 	0.1672	0.7859	0.3242	0.034
Mof_C 	C 	0.2393	0.7483	0.4421	0.006
Mof_C 	C 	0.1652	0.8268	0.5865	0.031
Mof_H 	H 	0.1393	0.8521	0.6353	0.02
Mof_C 	C 	0.2776	0.7089	0.3729	-0.082
Mof_H 	H 	0.2639	0.7067	0.296	0.05
Mof_C 	C 	0.9013	0.885	0.5865	0.35
Mof_C 	C 	0.8428	0.8413	0.5397	-0.05
Mof_C 	C 	0.8041	0.8645	0.442	0.006
Mof_H 	H 	0.8156	0.9076	0.4062	0.043
Mof_C 	C 	0.7505	0.8249	0.3995	-0.068
Mof_H 	H 	0.7255	0.8409	0.334	0.061
Mof_C 	C 	0.8245	0.7794	0.5899	-0.049
Mof_H 	H 	0.8505	0.7633	0.6544	0.085
Mof_C 	C 	0.7317	0.7614	0.4503	0.014
Mof_O 	O 	0.4619	0.4993	0.3385	-0.913
Mof_H 	H 	0.4212	0.49	0.338	0.314
Mof_O 	O 	0.5517	0.4	0.4921	-0.477
Mof_O 	O 	0.5711	0.3647	0.3227	-0.504
Mof_O 	O 	0.4329	0.3615	0.6732	-0.477
Mof_O 	O 	0.4127	0.4444	0.5399	-0.47
Mof_C 	C 	0.585	0.3671	0.427	0.391
Mof_C 	C 	0.6452	0.3255	0.471	-0.109
Mof_C 	C 	0.6812	0.2869	0.401	-0.014
Mof_H 	H 	0.6672	0.2859	0.3242	0.045
Mof_C 	C 	0.7393	0.2483	0.4421	0.009
Mof_C 	C 	0.6652	0.3268	0.5865	0.035
Mof_H 	H 	0.6393	0.3521	0.6353	0.022
Mof_C 	C 	0.7776	0.2089	0.3729	-0.072
Mof_H 	H 	0.7639	0.2067	0.296	0.051
Mof_C 	C 	0.4013	0.385	0.5865	0.359
Mof_C 	C 	0.3428	0.3413	0.5397	-0.09
Mof_C 	C 	0.3041	0.3645	0.442	0.003
Mof_H 	H 	0.3156	0.4076	0.4062	0.018
Mof_C 	C 	0.2505	0.3249	0.3995	-0.083
Mof_H 	H 	0.2255	0.3409	0.334	0.04
Mof_C 	C 	0.3245	0.2794	0.5899	-0.045
Mof_H 	H 	0.3505	0.2633	0.6544	0.057
Mof_C 	C 	0.2317	0.2614	0.4503	-0.001
Mof_O 	O 	0.9619	0.0007	0.8385	-0.763
Mof_H 	H 	0.9212	0.01	0.838	0.284
Mof_O 	O 	0.0517	0.1	0.9921	-0.522
Mof_O 	O 	0.0711	0.1353	0.8227	-0.547
Mof_O 	O 	0.9329	0.1385	0.1732	-0.403
Mof_O 	O 	0.9127	0.0556	0.0399	-0.448
Mof_C 	C 	0.085	0.1329	0.927	0.351
Mof_C 	C 	0.1452	0.1745	0.971	-0.005
Mof_C 	C 	0.1812	0.2131	0.901	-0.128
Mof_H 	H 	0.1672	0.2141	0.8242	0.072
Mof_C 	C 	0.2393	0.2517	0.9421	0.159
Mof_C 	C 	0.1652	0.1732	0.0865	-0.129
Mof_H 	H 	0.1393	0.1479	0.1353	0.043
Mof_C 	C 	0.2776	0.2911	0.8729	-0.208
Mof_H 	H 	0.2639	0.2933	0.796	0.094
Mof_C 	C 	0.9013	0.115	0.0865	0.392
Mof_C 	C 	0.8428	0.1587	0.0397	-0.196
Mof_C 	C 	0.8041	0.1355	0.942	0.16
Mof_H 	H 	0.8156	0.0924	0.9062	-0.019
Mof_C 	C 	0.7505	0.1751	0.8995	-0.205
Mof_H 	H 	0.7255	0.1591	0.834	0.094
Mof_C 	C 	0.8245	0.2206	0.0899	0.067
Mof_H 	H 	0.8505	0.2367	0.1544	0.042
Mof_C 	C 	0.7317	0.2386	0.9503	0.171
Mof_O 	O 	0.4619	0.5007	0.8385	-0.902
Mof_H 	H 	0.4212	0.51	0.838	0.322
Mof_O 	O 	0.5517	0.6	0.9921	-0.439
Mof_O 	O 	0.5711	0.6353	0.8227	-0.483
Mof_O 	O 	0.4329	0.6385	0.1732	-0.491
Mof_O 	O 	0.4127	0.5556	0.0399	-0.497
Mof_C 	C 	0.585	0.6329	0.927	0.355
Mof_C 	C 	0.6452	0.6745	0.971	0.013
Mof_C 	C 	0.6812	0.7131	0.901	-0.109
Mof_H 	H 	0.6672	0.7141	0.8242	0.087
Mof_C 	C 	0.7393	0.7517	0.9421	0.152
Mof_C 	C 	0.6652	0.6732	0.0865	-0.103
Mof_H 	H 	0.6393	0.6479	0.1353	0.06
Mof_C 	C 	0.7776	0.7911	0.8729	-0.17
Mof_H 	H 	0.7639	0.7933	0.796	0.098
Mof_C 	C 	0.4013	0.615	0.0865	0.397
Mof_C 	C 	0.3428	0.6587	0.0397	-0.216
Mof_C 	C 	0.3041	0.6355	0.942	0.16
Mof_H 	H 	0.3156	0.5924	0.9062	-0.021
Mof_C 	C 	0.2505	0.6751	0.8995	-0.211
Mof_H 	H 	0.2255	0.6591	0.834	0.088
Mof_C 	C 	0.3245	0.7206	0.0899	0.071
Mof_H 	H 	0.3505	0.7367	0.1544	0.024
Mof_C 	C 	0.2317	0.7386	0.9503	0.164
Mof_O 	O 	0.0381	0.0007	0.6615	-1.041
Mof_H 	H 	0.0788	0.01	0.662	0.332
Mof_O 	O 	0.9483	0.1	0.5079	-0.384
Mof_O 	O 	0.9289	0.1353	0.6773	-0.405
Mof_O 	O 	0.0671	0.1385	0.3268	-0.559
Mof_O 	O 	0.0873	0.0556	0.4601	-0.536
Mof_C 	C 	0.915	0.1329	0.573	0.364
Mof_C 	C 	0.8548	0.1745	0.529	-0.067
Mof_C 	C 	0.8188	0.2131	0.599	-0.043
Mof_H 	H 	0.8328	0.2141	0.6758	0.076
Mof_C 	C 	0.7607	0.2517	0.5579	0.045
Mof_C 	C 	0.8348	0.1732	0.4135	0.006
Mof_H 	H 	0.8607	0.1479	0.3647	0.035
Mof_C 	C 	0.7224	0.2911	0.6271	-0.102
Mof_H 	H 	0.7361	0.2933	0.704	0.076
Mof_C 	C 	0.0987	0.115	0.4135	0.364
Mof_C 	C 	0.1572	0.1587	0.4603	-0.129
Mof_C 	C 	0.1959	0.1355	0.558	0.027
Mof_H 	H 	0.1844	0.0924	0.5938	0.003
Mof_C 	C 	0.2495	0.1751	0.6005	-0.113
Mof_H 	H 	0.2745	0.1591	0.666	0.06
Mof_C 	C 	0.1755	0.2206	0.4101	-0.02
Mof_H 	H 	0.1495	0.2367	0.3456	0.028
Mof_C 	C 	0.2683	0.2386	0.5497	0.03
Mof_O 	O 	0.5381	0.5007	0.6615	-0.914
Mof_H 	H 	0.5788	0.51	0.662	0.321
Mof_O 	O 	0.4483	0.6	0.5079	-0.474
Mof_O 	O 	0.4289	0.6353	0.6773	-0.493
Mof_O 	O 	0.5671	0.6385	0.3268	-0.48
Mof_O 	O 	0.5873	0.5556	0.4601	-0.466
Mof_C 	C 	0.415	0.6329	0.573	0.385
Mof_C 	C 	0.3548	0.6745	0.529	-0.094
Mof_C 	C 	0.3188	0.7131	0.599	-0.035
Mof_H 	H 	0.3328	0.7141	0.6758	0.061
Mof_C 	C 	0.2607	0.7517	0.5579	0.034
Mof_C 	C 	0.3348	0.6732	0.4135	0.012
Mof_H 	H 	0.3607	0.6479	0.3647	0.026
Mof_C 	C 	0.2224	0.7911	0.6271	-0.104
Mof_H 	H 	0.2361	0.7933	0.704	0.072
Mof_C 	C 	0.5987	0.615	0.4135	0.368
Mof_C 	C 	0.6572	0.6587	0.4603	-0.098
Mof_C 	C 	0.6959	0.6355	0.558	0.035
Mof_H 	H 	0.6844	0.5924	0.5938	0.023
Mof_C 	C 	0.7495	0.6751	0.6005	-0.103
Mof_H 	H 	0.7745	0.6591	0.666	0.083
Mof_C 	C 	0.6755	0.7206	0.4101	-0.018
Mof_H 	H 	0.6495	0.7367	0.3456	0.054
Mof_C 	C 	0.7683	0.7386	0.5497	0.051
Mof_Zn	Zn	-0	0	-0	1.123
Mof_Zn	Zn	0.5	0.5	-0	1.22
Mof_Zn	Zn	1.23527e-33	2.78702e-33	0.5	1.137
Mof_Zn	Zn	0.5	0.5	0.5	1.234
Mof_Zn	Zn	6.17636e-34	0.92123	0.25	1.148
Mof_Zn	Zn	6.17636e-34	0.07785	0.25	1.133
Mof_Zn	Zn	0.5	0.42123	0.25	1.215
Mof_Zn	Zn	0.5	0.57785	0.25	1.224
Mof_Zn	Zn	1.85291e-33	0.07877	0.75	1.143
Mof_Zn	Zn	1.85291e-33	0.92215	0.75	1.176
Mof_Zn	Zn	0.5	0.57877	0.75	1.217
Mof_Zn	Zn	0.5	0.42215	0.75	1.226
_end
