data_functionalizedCrystal
_audit_creation_method	'EQeq! by Chris Wilmer'
_symmetry_space_group_name_H-M	'P1'
_symmetry_Int_Tables_number	1
_symmetry_cell_setting	triclinic
loop_
_symmetry_equiv_pos_as_xyz
  x,y,z
_cell_length_a	10.5892
_cell_length_b	19.97
_cell_length_c	18.98
_cell_angle_alpha	90
_cell_angle_beta	91.181
_cell_angle_gamma	90
loop_
_atom_site_label
_atom_site_type_symbol
_atom_site_fract_x
_atom_site_fract_y
_atom_site_fract_z
_atom_site_charge
Mof_Ni	Ni	0.18465	0.23229	0.12702	1.093
Mof_Ni	Ni	0.66794	0.1216	0.22588	1.08
Mof_S 	S 	0.74999	0.49339	0.00031	0.282
Mof_C 	C 	0.7264	0.2769	0.071	-0.07
Mof_C 	C 	0.8439	0.3082	0.068	-0.026
Mof_C 	C 	0.851	0.3743	0.0462	-0.048
Mof_H 	H 	0.929	0.3956	0.0435	0.073
Mof_C 	C 	0.741	0.4086	0.0284	-0.008
Mof_C 	C 	0.6251	0.3783	0.0311	-0.068
Mof_H 	H 	0.552	0.4021	0.0197	0.079
Mof_C 	C 	0.6183	0.3124	0.0509	0.005
Mof_H 	H 	0.5402	0.2911	0.0508	0.036
Mof_C 	C 	0.7597	0.5388	0.0797	-0.013
Mof_C 	C 	0.8763	0.5638	0.1046	-0.066
Mof_H 	H 	0.9501	0.5556	0.0802	0.081
Mof_C 	C 	0.8785	0.6006	0.1656	0
Mof_H 	H 	0.9556	0.6175	0.1818	0.044
Mof_C 	C 	0.7717	0.6139	0.2046	-0.062
Mof_C 	C 	0.6558	0.5876	0.18	-0.028
Mof_C 	C 	0.6507	0.5502	0.1176	-0.049
Mof_H 	H 	0.5739	0.5329	0.1014	0.078
Mof_C 	C 	0.7064	0.2061	0.0968	0.359
Mof_C 	C 	0.9657	0.2717	0.0867	0.298
Mof_C 	C 	0.5314	0.6015	0.2131	0.281
Mof_C 	C 	0.7882	0.656	0.2703	0.319
Mof_C 	C 	0.8588	0.0139	0.2592	0.085
Mof_H 	H 	0.8128	0.9991	0.2975	0.005
Mof_C 	C 	0.9188	0.0697	0.17	-0.007
Mof_H 	H 	0.9217	0.1014	0.1342	0.041
Mof_C 	C 	0.0063	0.0234	0.1835	-0
Mof_H 	H 	0.08	0.0167	0.1586	0.036
Mof_C 	C 	0.0404	0.9333	0.2745	-0.112
Mof_H 	H 	0.0227	0.9328	0.3244	0.017
Mof_H 	H 	0.13	0.9417	0.2695	0.036
Mof_C 	C 	0.0037	0.7913	0.1353	-0.113
Mof_H 	H 	0.9331	0.7717	0.1597	0.079
Mof_H 	H 	0.9826	0.7925	0.0854	0.037
Mof_C 	C 	0.0069	0.8641	0.2421	-0.109
Mof_H 	H 	0.0593	0.83	0.2643	0.062
Mof_H 	H 	0.9194	0.8537	0.2516	0.059
Mof_C 	C 	0.0263	0.8627	0.1622	0.066
Mof_H 	H 	0.1116	0.8767	0.1518	0.003
Mof_H 	H 	0.9678	0.8933	0.1389	0.001
Mof_C 	C 	0.1422	0.7109	0.2037	0.086
Mof_H 	H 	0.0907	0.7073	0.2426	0.012
Mof_C 	C 	0.2166	0.7441	0.1023	-0.019
Mof_H 	H 	0.2269	0.7668	0.0599	0.056
Mof_C 	C 	0.296	0.6989	0.1321	0.024
Mof_H 	H 	0.3706	0.6838	0.1125	0.027
Mof_N 	N 	0.2531	0.2228	0.0291	-0.232
Mof_C 	C 	0.2555	0.2699	0.978	0.011
Mof_H 	H 	0.2174	0.3118	0.9808	0.031
Mof_C 	C 	0.3202	0.2479	0.9229	0.005
Mof_H 	H 	0.3208	0.2644	0.8771	0.026
Mof_C 	C 	0.5948	0.1347	0.7441	0.049
Mof_H 	H 	0.633	0.1766	0.759	-0.003
Mof_H 	H 	0.6547	0.111	0.7153	0.02
Mof_N 	N 	0.3846	0.1954	0.9508	-0.076
Mof_C 	C 	0.3422	0.1795	0.0142	0.078
Mof_H 	H 	0.3703	0.1443	0.0426	-0.005
Mof_C 	C 	0.4845	0.1573	0.9145	-0.098
Mof_H 	H 	0.5239	0.128	0.9493	0.074
Mof_H 	H 	0.5482	0.1892	0.9006	0.08
Mof_C 	C 	0.4527	0.1158	0.8519	-0.05
Mof_H 	H 	0.3961	0.1413	0.8213	0.056
Mof_H 	H 	0.4069	0.0766	0.8674	0.002
Mof_C 	C 	0.5637	0.0925	0.8087	-0.087
Mof_H 	H 	0.5467	0.047	0.7931	-0.014
Mof_H 	H 	0.638	0.091	0.8394	0.114
Mof_C 	C 	0.4214	0.2062	0.6942	0.093
Mof_H 	H 	0.4515	0.2464	0.7126	0.013
Mof_C 	C 	0.4077	0.1001	0.6699	-0.002
Mof_H 	H 	0.4245	0.0544	0.6674	0.061
Mof_C 	C 	0.3077	0.1326	0.6416	-0
Mof_H 	H 	0.2424	0.1124	0.6159	0.048
Mof_N 	N 	0.8233	0.06317	0.2177	-0.238
Mof_N 	N 	0.9683	0.9874	0.2403	-0.109
Mof_N 	N 	0.1176	0.7498	0.1472	-0.102
Mof_N 	N 	0.2496	0.6786	0.196	-0.22
Mof_N 	N 	0.4797	0.1479	0.7033	-0.128
Mof_N 	N 	0.3161	0.2007	0.6561	-0.233
Mof_O 	O 	0.7173	0.19792	0.16086	-0.422
Mof_O 	O 	0.6756	0.16285	0.0523	-0.295
Mof_O 	O 	0.0606	0.3066	0.1042	-0.399
Mof_O 	O 	0.9719	0.21003	0.0853	-0.338
Mof_O 	O 	0.5162	0.65654	0.2442	-0.368
Mof_O 	O 	0.444	0.55913	0.20872	-0.38
Mof_O 	O 	0.7422	0.64076	0.3272	-0.385
Mof_O 	O 	0.8564	0.70737	0.2656	-0.384
Mof_O 	O 	0.631	0.50975	0.96697	-0.222
Mof_O 	O 	0.8646	0.5037	0.96339	-0.224
Mof_H 	H 	0.9903	0.9144	0.3118	0.068
Mof_H 	H 	0.1164	0.9521	0.2961	0.041
Mof_H 	H 	0.9336	0.7617	0.1241	0.021
Mof_H 	H 	0.0173	0.8191	0.0943	0.045
Mof_C 	C 	0.0777	0.8776	0.2245	0.054
Mof_H 	H 	0.1359	0.8475	0.2488	0.001
Mof_H 	H 	0.1213	0.8968	0.1849	0
Mof_C 	C 	0.9638	0.8378	0.1972	-0.18
Mof_H 	H 	0.8983	0.8684	0.181	0.076
Mof_H 	H 	0.9302	0.811	0.2351	0.074
Mof_H 	H 	0.3601	0.2743	0.8897	0.02
Mof_H 	H 	0.6451	0.1752	0.7437	0.029
Mof_H 	H 	0.6418	0.1008	0.7191	0.001
Mof_N 	N 	0.3171	0.1781	0.9243	-0.06
Mof_C 	C 	0.2823	0.1661	0.9916	-0.003
Mof_H 	H 	0.2786	0.1233	0.0107	0.02
Mof_C 	C 	0.3695	0.1292	0.8715	-0.108
Mof_H 	H 	0.3177	0.1278	0.8287	0.042
Mof_H 	H 	0.3763	0.0845	0.8911	0.066
Mof_C 	C 	0.4989	0.1591	0.858	0.106
Mof_H 	H 	0.5377	0.172	0.9027	-0.033
Mof_H 	H 	0.4882	0.1994	0.8299	0.001
Mof_C 	C 	0.587	0.112	0.8204	-0.2
Mof_H 	H 	0.5554	0.0665	0.8225	0.128
Mof_H 	H 	0.6704	0.1131	0.8427	0.003
Mof_Ni	Ni	0.81535	0.73229	0.37298	1.091
Mof_Ni	Ni	0.33206	0.6216	0.27412	1.079
Mof_S 	S 	0.25001	0.99339	0.49969	0.281
Mof_C 	C 	0.2736	0.7769	0.429	-0.071
Mof_C 	C 	0.1561	0.8082	0.432	-0.026
Mof_C 	C 	0.149	0.8743	0.4538	-0.048
Mof_H 	H 	0.071	0.8956	0.4565	0.073
Mof_C 	C 	0.259	0.9086	0.4716	-0.008
Mof_C 	C 	0.3749	0.8783	0.4689	-0.068
Mof_H 	H 	0.448	0.9021	0.4803	0.079
Mof_C 	C 	0.3817	0.8124	0.4491	0.005
Mof_H 	H 	0.4598	0.7911	0.4492	0.036
Mof_C 	C 	0.2403	0.0388	0.4203	-0.012
Mof_C 	C 	0.1237	0.0638	0.3954	-0.066
Mof_H 	H 	0.0499	0.0556	0.4198	0.081
Mof_C 	C 	0.1215	0.1006	0.3344	0
Mof_H 	H 	0.0444	0.1175	0.3182	0.045
Mof_C 	C 	0.2283	0.1139	0.2954	-0.062
Mof_C 	C 	0.3442	0.0876	0.32	-0.028
Mof_C 	C 	0.3493	0.0502	0.3824	-0.049
Mof_H 	H 	0.4261	0.0329	0.3986	0.078
Mof_C 	C 	0.2936	0.7061	0.4032	0.359
Mof_C 	C 	0.0343	0.7717	0.4133	0.298
Mof_C 	C 	0.4686	0.1015	0.2869	0.281
Mof_C 	C 	0.2118	0.156	0.2297	0.319
Mof_C 	C 	0.1412	0.5139	0.2408	0.087
Mof_H 	H 	0.1872	0.4991	0.2025	0.004
Mof_C 	C 	0.0812	0.5697	0.33	-0.003
Mof_H 	H 	0.0783	0.6014	0.3658	0.04
Mof_C 	C 	0.9937	0.5234	0.3165	-0.004
Mof_H 	H 	0.92	0.5167	0.3414	0.037
Mof_C 	C 	0.9596	0.4333	0.2255	-0.111
Mof_H 	H 	0.9773	0.4328	0.1756	0.016
Mof_H 	H 	0.87	0.4417	0.2305	0.037
Mof_C 	C 	0.9963	0.2913	0.3647	-0.117
Mof_H 	H 	0.0669	0.2717	0.3403	0.079
Mof_H 	H 	0.0174	0.2925	0.4146	0.038
Mof_C 	C 	0.9931	0.3641	0.2579	-0.102
Mof_H 	H 	0.9407	0.33	0.2357	0.059
Mof_H 	H 	0.0806	0.3537	0.2484	0.056
Mof_C 	C 	0.9737	0.3627	0.3378	0.055
Mof_H 	H 	0.8884	0.3767	0.3482	0.005
Mof_H 	H 	0.0322	0.3933	0.3611	0.005
Mof_C 	C 	0.8578	0.2109	0.2963	0.086
Mof_H 	H 	0.9093	0.2073	0.2574	0.012
Mof_C 	C 	0.7834	0.2441	0.3977	-0.019
Mof_H 	H 	0.7731	0.2668	0.4401	0.056
Mof_C 	C 	0.704	0.1989	0.3679	0.024
Mof_H 	H 	0.6294	0.1838	0.3875	0.027
Mof_N 	N 	0.7469	0.7228	0.4709	-0.232
Mof_C 	C 	0.7445	0.7699	0.522	0.012
Mof_H 	H 	0.7826	0.8118	0.5192	0.031
Mof_C 	C 	0.6798	0.7479	0.5771	0.005
Mof_H 	H 	0.6792	0.7644	0.6229	0.026
Mof_C 	C 	0.4052	0.6347	0.7559	0.049
Mof_H 	H 	0.367	0.6766	0.741	-0.003
Mof_H 	H 	0.3453	0.611	0.7847	0.02
Mof_N 	N 	0.6154	0.6954	0.5492	-0.077
Mof_C 	C 	0.6578	0.6795	0.4858	0.085
Mof_H 	H 	0.6297	0.6443	0.4574	-0.007
Mof_C 	C 	0.5155	0.6573	0.5855	-0.098
Mof_H 	H 	0.4761	0.628	0.5507	0.074
Mof_H 	H 	0.4518	0.6892	0.5994	0.08
Mof_C 	C 	0.5473	0.6158	0.6481	-0.051
Mof_H 	H 	0.6039	0.6413	0.6787	0.057
Mof_H 	H 	0.5931	0.5766	0.6326	0.003
Mof_C 	C 	0.4363	0.5925	0.6913	-0.087
Mof_H 	H 	0.4533	0.547	0.7069	-0.014
Mof_H 	H 	0.362	0.591	0.6606	0.115
Mof_C 	C 	0.5786	0.7062	0.8058	0.093
Mof_H 	H 	0.5485	0.7464	0.7874	0.013
Mof_C 	C 	0.5923	0.6001	0.8301	-0.002
Mof_H 	H 	0.5755	0.5544	0.8326	0.061
Mof_C 	C 	0.6923	0.6326	0.8584	0
Mof_H 	H 	0.7576	0.6124	0.8841	0.048
Mof_N 	N 	0.1767	0.56317	0.2823	-0.238
Mof_N 	N 	0.0317	0.4874	0.2597	-0.109
Mof_N 	N 	0.8824	0.2498	0.3528	-0.102
Mof_N 	N 	0.7504	0.1786	0.304	-0.22
Mof_N 	N 	0.5203	0.6479	0.7967	-0.128
Mof_N 	N 	0.6839	0.7007	0.8439	-0.233
Mof_O 	O 	0.2827	0.69792	0.33914	-0.422
Mof_O 	O 	0.3244	0.66285	0.4477	-0.295
Mof_O 	O 	0.9394	0.8066	0.3958	-0.4
Mof_O 	O 	0.0281	0.71003	0.4147	-0.337
Mof_O 	O 	0.4838	0.15654	0.2558	-0.368
Mof_O 	O 	0.556	0.05913	0.29128	-0.381
Mof_O 	O 	0.2578	0.14076	0.1728	-0.385
Mof_O 	O 	0.1436	0.20737	0.2344	-0.384
Mof_O 	O 	0.369	0.00975	0.53303	-0.222
Mof_O 	O 	0.1354	0.0037	0.53661	-0.224
Mof_H 	H 	0.0097	0.4144	0.1882	0.069
Mof_H 	H 	0.8836	0.4521	0.2039	0.04
Mof_H 	H 	0.0664	0.2617	0.3759	0.022
Mof_H 	H 	0.9827	0.3191	0.4057	0.046
Mof_C 	C 	0.9223	0.3776	0.2755	0.043
Mof_H 	H 	0.8641	0.3475	0.2512	0.005
Mof_H 	H 	0.8787	0.3968	0.3151	0.004
Mof_C 	C 	0.0362	0.3378	0.3028	-0.166
Mof_H 	H 	0.1017	0.3684	0.319	0.072
Mof_H 	H 	0.0698	0.311	0.2649	0.07
Mof_H 	H 	0.6399	0.7743	0.6103	0.02
Mof_H 	H 	0.3549	0.6752	0.7563	0.029
Mof_H 	H 	0.3582	0.6008	0.7809	0.001
Mof_N 	N 	0.6829	0.6781	0.5757	-0.059
Mof_C 	C 	0.7177	0.6661	0.5084	-0.009
Mof_H 	H 	0.7214	0.6233	0.4893	0.021
Mof_C 	C 	0.6305	0.6292	0.6285	-0.108
Mof_H 	H 	0.6823	0.6278	0.6713	0.042
Mof_H 	H 	0.6237	0.5845	0.6089	0.066
Mof_C 	C 	0.5011	0.6591	0.642	0.107
Mof_H 	H 	0.4623	0.672	0.5973	-0.033
Mof_H 	H 	0.5118	0.6994	0.6701	0.001
Mof_C 	C 	0.413	0.612	0.6796	-0.2
Mof_H 	H 	0.4446	0.5665	0.6775	0.128
Mof_H 	H 	0.3296	0.6131	0.6573	0.003
Mof_Ni	Ni	0.81535	0.76771	0.87298	1.092
Mof_Ni	Ni	0.33206	0.8784	0.77412	1.079
Mof_S 	S 	0.25001	0.50661	0.99969	0.281
Mof_C 	C 	0.2736	0.7231	0.929	-0.071
Mof_C 	C 	0.1561	0.6918	0.932	-0.026
Mof_C 	C 	0.149	0.6257	0.9538	-0.048
Mof_H 	H 	0.071	0.6044	0.9565	0.073
Mof_C 	C 	0.259	0.5914	0.9716	-0.008
Mof_C 	C 	0.3749	0.6217	0.9689	-0.068
Mof_H 	H 	0.448	0.5979	0.9803	0.079
Mof_C 	C 	0.3817	0.6876	0.9491	0.005
Mof_H 	H 	0.4598	0.7089	0.9492	0.036
Mof_C 	C 	0.2403	0.4612	0.9203	-0.013
Mof_C 	C 	0.1237	0.4362	0.8954	-0.066
Mof_H 	H 	0.0499	0.4444	0.9198	0.081
Mof_C 	C 	0.1215	0.3994	0.8344	0
Mof_H 	H 	0.0444	0.3825	0.8182	0.044
Mof_C 	C 	0.2283	0.3861	0.7954	-0.062
Mof_C 	C 	0.3442	0.4124	0.82	-0.028
Mof_C 	C 	0.3493	0.4498	0.8824	-0.049
Mof_H 	H 	0.4261	0.4671	0.8986	0.078
Mof_C 	C 	0.2936	0.7939	0.9032	0.359
Mof_C 	C 	0.0343	0.7283	0.9133	0.298
Mof_C 	C 	0.4686	0.3985	0.7869	0.281
Mof_C 	C 	0.2118	0.344	0.7297	0.319
Mof_C 	C 	0.1412	0.9861	0.7408	0.085
Mof_H 	H 	0.1872	0.0009	0.7025	0.005
Mof_C 	C 	0.0812	0.9303	0.83	-0.007
Mof_H 	H 	0.0783	0.8986	0.8658	0.041
Mof_C 	C 	0.9937	0.9766	0.8165	-0
Mof_H 	H 	0.92	0.9833	0.8414	0.036
Mof_C 	C 	0.9596	0.0667	0.7255	-0.112
Mof_H 	H 	0.9773	0.0672	0.6756	0.017
Mof_H 	H 	0.87	0.0583	0.7305	0.036
Mof_C 	C 	0.9963	0.2087	0.8647	-0.113
Mof_H 	H 	0.0669	0.2283	0.8403	0.079
Mof_H 	H 	0.0174	0.2075	0.9146	0.037
Mof_C 	C 	0.9931	0.1359	0.7579	-0.109
Mof_H 	H 	0.9407	0.17	0.7357	0.062
Mof_H 	H 	0.0806	0.1463	0.7484	0.059
Mof_C 	C 	0.9737	0.1373	0.8378	0.066
Mof_H 	H 	0.8884	0.1233	0.8482	0.003
Mof_H 	H 	0.0322	0.1067	0.8611	0.001
Mof_C 	C 	0.8578	0.2891	0.7963	0.086
Mof_H 	H 	0.9093	0.2927	0.7574	0.012
Mof_C 	C 	0.7834	0.2559	0.8977	-0.019
Mof_H 	H 	0.7731	0.2332	0.9401	0.056
Mof_C 	C 	0.704	0.3011	0.8679	0.024
Mof_H 	H 	0.6294	0.3162	0.8875	0.027
Mof_N 	N 	0.7469	0.7772	0.9709	-0.232
Mof_C 	C 	0.7445	0.7301	0.022	0.011
Mof_H 	H 	0.7826	0.6882	0.0192	0.031
Mof_C 	C 	0.6798	0.7521	0.0771	0.005
Mof_H 	H 	0.6792	0.7356	0.1229	0.026
Mof_C 	C 	0.4052	0.8653	0.2559	0.049
Mof_H 	H 	0.367	0.8234	0.241	-0.003
Mof_H 	H 	0.3453	0.889	0.2847	0.02
Mof_N 	N 	0.6154	0.8046	0.0492	-0.076
Mof_C 	C 	0.6578	0.8205	0.9858	0.078
Mof_H 	H 	0.6297	0.8557	0.9574	-0.005
Mof_C 	C 	0.5155	0.8427	0.0855	-0.098
Mof_H 	H 	0.4761	0.872	0.0507	0.074
Mof_H 	H 	0.4518	0.8108	0.0994	0.08
Mof_C 	C 	0.5473	0.8842	0.1481	-0.05
Mof_H 	H 	0.6039	0.8587	0.1787	0.056
Mof_H 	H 	0.5931	0.9234	0.1326	0.002
Mof_C 	C 	0.4363	0.9075	0.1913	-0.087
Mof_H 	H 	0.4533	0.953	0.2069	-0.014
Mof_H 	H 	0.362	0.909	0.1606	0.114
Mof_C 	C 	0.5786	0.7938	0.3058	0.093
Mof_H 	H 	0.5485	0.7536	0.2874	0.013
Mof_C 	C 	0.5923	0.8999	0.3301	-0.002
Mof_H 	H 	0.5755	0.9456	0.3326	0.061
Mof_C 	C 	0.6923	0.8674	0.3584	-0
Mof_H 	H 	0.7576	0.8876	0.3841	0.048
Mof_N 	N 	0.1767	0.93683	0.7823	-0.238
Mof_N 	N 	0.0317	0.0126	0.7597	-0.109
Mof_N 	N 	0.8824	0.2502	0.8528	-0.102
Mof_N 	N 	0.7504	0.3214	0.804	-0.22
Mof_N 	N 	0.5203	0.8521	0.2967	-0.128
Mof_N 	N 	0.6839	0.7993	0.3439	-0.233
Mof_O 	O 	0.2827	0.80208	0.83914	-0.422
Mof_O 	O 	0.3244	0.83715	0.9477	-0.295
Mof_O 	O 	0.9394	0.6934	0.8958	-0.399
Mof_O 	O 	0.0281	0.78997	0.9147	-0.338
Mof_O 	O 	0.4838	0.34346	0.7558	-0.368
Mof_O 	O 	0.556	0.44087	0.79128	-0.38
Mof_O 	O 	0.2578	0.35924	0.6728	-0.385
Mof_O 	O 	0.1436	0.29263	0.7344	-0.384
Mof_O 	O 	0.369	0.49025	0.03303	-0.222
Mof_O 	O 	0.1354	0.4963	0.03661	-0.224
Mof_H 	H 	0.0097	0.0856	0.6882	0.068
Mof_H 	H 	0.8836	0.0479	0.7039	0.041
Mof_H 	H 	0.0664	0.2383	0.8759	0.021
Mof_H 	H 	0.9827	0.1809	0.9057	0.045
Mof_C 	C 	0.9223	0.1224	0.7755	0.054
Mof_H 	H 	0.8641	0.1525	0.7512	0.001
Mof_H 	H 	0.8787	0.1032	0.8151	0
Mof_C 	C 	0.0362	0.1622	0.8028	-0.18
Mof_H 	H 	0.1017	0.1316	0.819	0.076
Mof_H 	H 	0.0698	0.189	0.7649	0.074
Mof_H 	H 	0.6399	0.7257	0.1103	0.02
Mof_H 	H 	0.3549	0.8248	0.2563	0.029
Mof_H 	H 	0.3582	0.8992	0.2809	0.001
Mof_N 	N 	0.6829	0.8219	0.0757	-0.06
Mof_C 	C 	0.7177	0.8339	0.0084	-0.003
Mof_H 	H 	0.7214	0.8767	0.9893	0.02
Mof_C 	C 	0.6305	0.8708	0.1285	-0.108
Mof_H 	H 	0.6823	0.8722	0.1713	0.042
Mof_H 	H 	0.6237	0.9155	0.1089	0.066
Mof_C 	C 	0.5011	0.8409	0.142	0.106
Mof_H 	H 	0.4623	0.828	0.0973	-0.033
Mof_H 	H 	0.5118	0.8006	0.1701	0.001
Mof_C 	C 	0.413	0.888	0.1796	-0.2
Mof_H 	H 	0.4446	0.9335	0.1775	0.128
Mof_H 	H 	0.3296	0.8869	0.1573	0.003
Mof_Ni	Ni	0.18465	0.26771	0.62702	1.091
Mof_Ni	Ni	0.66794	0.3784	0.72588	1.079
Mof_S 	S 	0.74999	0.00661	0.50031	0.281
Mof_C 	C 	0.7264	0.2231	0.571	-0.071
Mof_C 	C 	0.8439	0.1918	0.568	-0.026
Mof_C 	C 	0.851	0.1257	0.5462	-0.048
Mof_H 	H 	0.929	0.1044	0.5435	0.073
Mof_C 	C 	0.741	0.0914	0.5284	-0.008
Mof_C 	C 	0.6251	0.1217	0.5311	-0.068
Mof_H 	H 	0.552	0.0979	0.5197	0.079
Mof_C 	C 	0.6183	0.1876	0.5509	0.005
Mof_H 	H 	0.5402	0.2089	0.5508	0.036
Mof_C 	C 	0.7597	0.9612	0.5797	-0.012
Mof_C 	C 	0.8763	0.9362	0.6046	-0.066
Mof_H 	H 	0.9501	0.9444	0.5802	0.081
Mof_C 	C 	0.8785	0.8994	0.6656	0
Mof_H 	H 	0.9556	0.8825	0.6818	0.045
Mof_C 	C 	0.7717	0.8861	0.7046	-0.062
Mof_C 	C 	0.6558	0.9124	0.68	-0.028
Mof_C 	C 	0.6507	0.9498	0.6176	-0.049
Mof_H 	H 	0.5739	0.9671	0.6014	0.078
Mof_C 	C 	0.7064	0.2939	0.5968	0.359
Mof_C 	C 	0.9657	0.2283	0.5867	0.298
Mof_C 	C 	0.5314	0.8985	0.7131	0.281
Mof_C 	C 	0.7882	0.844	0.7703	0.319
Mof_C 	C 	0.8588	0.4861	0.7592	0.087
Mof_H 	H 	0.8128	0.5009	0.7975	0.004
Mof_C 	C 	0.9188	0.4303	0.67	-0.003
Mof_H 	H 	0.9217	0.3986	0.6342	0.04
Mof_C 	C 	0.0063	0.4766	0.6835	-0.004
Mof_H 	H 	0.08	0.4833	0.6586	0.037
Mof_C 	C 	0.0404	0.5667	0.7745	-0.111
Mof_H 	H 	0.0227	0.5672	0.8244	0.016
Mof_H 	H 	0.13	0.5583	0.7695	0.037
Mof_C 	C 	0.0037	0.7087	0.6353	-0.117
Mof_H 	H 	0.9331	0.7283	0.6597	0.079
Mof_H 	H 	0.9826	0.7075	0.5854	0.038
Mof_C 	C 	0.0069	0.6359	0.7421	-0.102
Mof_H 	H 	0.0593	0.67	0.7643	0.059
Mof_H 	H 	0.9194	0.6463	0.7516	0.056
Mof_C 	C 	0.0263	0.6373	0.6622	0.055
Mof_H 	H 	0.1116	0.6233	0.6518	0.005
Mof_H 	H 	0.9678	0.6067	0.6389	0.005
Mof_C 	C 	0.1422	0.7891	0.7037	0.086
Mof_H 	H 	0.0907	0.7927	0.7426	0.012
Mof_C 	C 	0.2166	0.7559	0.6023	-0.019
Mof_H 	H 	0.2269	0.7332	0.5599	0.056
Mof_C 	C 	0.296	0.8011	0.6321	0.024
Mof_H 	H 	0.3706	0.8162	0.6125	0.027
Mof_N 	N 	0.2531	0.2772	0.5291	-0.232
Mof_C 	C 	0.2555	0.2301	0.478	0.012
Mof_H 	H 	0.2174	0.1882	0.4808	0.031
Mof_C 	C 	0.3202	0.2521	0.4229	0.005
Mof_H 	H 	0.3208	0.2356	0.3771	0.026
Mof_C 	C 	0.5948	0.3653	0.2441	0.049
Mof_H 	H 	0.633	0.3234	0.259	-0.003
Mof_H 	H 	0.6547	0.389	0.2153	0.02
Mof_N 	N 	0.3846	0.3046	0.4508	-0.077
Mof_C 	C 	0.3422	0.3205	0.5142	0.085
Mof_H 	H 	0.3703	0.3557	0.5426	-0.007
Mof_C 	C 	0.4845	0.3427	0.4145	-0.098
Mof_H 	H 	0.5239	0.372	0.4493	0.074
Mof_H 	H 	0.5482	0.3108	0.4006	0.08
Mof_C 	C 	0.4527	0.3842	0.3519	-0.051
Mof_H 	H 	0.3961	0.3587	0.3213	0.057
Mof_H 	H 	0.4069	0.4234	0.3674	0.003
Mof_C 	C 	0.5637	0.4075	0.3087	-0.087
Mof_H 	H 	0.5467	0.453	0.2931	-0.014
Mof_H 	H 	0.638	0.409	0.3394	0.115
Mof_C 	C 	0.4214	0.2938	0.1942	0.093
Mof_H 	H 	0.4515	0.2536	0.2126	0.013
Mof_C 	C 	0.4077	0.3999	0.1699	-0.002
Mof_H 	H 	0.4245	0.4456	0.1674	0.061
Mof_C 	C 	0.3077	0.3674	0.1416	0
Mof_H 	H 	0.2424	0.3876	0.1159	0.048
Mof_N 	N 	0.8233	0.43683	0.7177	-0.238
Mof_N 	N 	0.9683	0.5126	0.7403	-0.109
Mof_N 	N 	0.1176	0.7502	0.6472	-0.102
Mof_N 	N 	0.2496	0.8214	0.696	-0.22
Mof_N 	N 	0.4797	0.3521	0.2033	-0.128
Mof_N 	N 	0.3161	0.2993	0.1561	-0.233
Mof_O 	O 	0.7173	0.30208	0.66086	-0.422
Mof_O 	O 	0.6756	0.33715	0.5523	-0.295
Mof_O 	O 	0.0606	0.1934	0.6042	-0.4
Mof_O 	O 	0.9719	0.28997	0.5853	-0.337
Mof_O 	O 	0.5162	0.84346	0.7442	-0.368
Mof_O 	O 	0.444	0.94087	0.70872	-0.381
Mof_O 	O 	0.7422	0.85924	0.8272	-0.385
Mof_O 	O 	0.8564	0.79263	0.7656	-0.384
Mof_O 	O 	0.631	0.99025	0.46697	-0.222
Mof_O 	O 	0.8646	0.9963	0.46339	-0.224
Mof_H 	H 	0.9903	0.5856	0.8118	0.069
Mof_H 	H 	0.1164	0.5479	0.7961	0.04
Mof_H 	H 	0.9336	0.7383	0.6241	0.022
Mof_H 	H 	0.0173	0.6809	0.5943	0.046
Mof_C 	C 	0.0777	0.6224	0.7245	0.043
Mof_H 	H 	0.1359	0.6525	0.7488	0.005
Mof_H 	H 	0.1213	0.6032	0.6849	0.004
Mof_C 	C 	0.9638	0.6622	0.6972	-0.166
Mof_H 	H 	0.8983	0.6316	0.681	0.072
Mof_H 	H 	0.9302	0.689	0.7351	0.07
Mof_H 	H 	0.3601	0.2257	0.3897	0.02
Mof_H 	H 	0.6451	0.3248	0.2437	0.029
Mof_H 	H 	0.6418	0.3992	0.2191	0.001
Mof_N 	N 	0.3171	0.3219	0.4243	-0.059
Mof_C 	C 	0.2823	0.3339	0.4916	-0.009
Mof_H 	H 	0.2786	0.3767	0.5107	0.021
Mof_C 	C 	0.3695	0.3708	0.3715	-0.108
Mof_H 	H 	0.3177	0.3722	0.3287	0.042
Mof_H 	H 	0.3763	0.4155	0.3911	0.066
Mof_C 	C 	0.4989	0.3409	0.358	0.107
Mof_H 	H 	0.5377	0.328	0.4027	-0.033
Mof_H 	H 	0.4882	0.3006	0.3299	0.001
Mof_C 	C 	0.587	0.388	0.3204	-0.2
Mof_H 	H 	0.5554	0.4335	0.3225	0.128
Mof_H 	H 	0.6704	0.3869	0.3427	0.003
_end
