data_functionalizedCrystal
_audit_creation_method	'EQeq! by Chris Wilmer'
_symmetry_space_group_name_H-M	'P1'
_symmetry_Int_Tables_number	1
_symmetry_cell_setting	triclinic
loop_
_symmetry_equiv_pos_as_xyz
  x,y,z
_cell_length_a	16.9065
_cell_length_b	16.9065
_cell_length_c	14.7154
_cell_angle_alpha	90
_cell_angle_beta	90
_cell_angle_gamma	120
loop_
_atom_site_label
_atom_site_type_symbol
_atom_site_fract_x
_atom_site_fract_y
_atom_site_fract_z
_atom_site_charge
Mof_O 	O 	0.52359	0.1785	0.654	-0.477
Mof_C 	C 	0.4524	0.0376	0.53	0.108
Mof_N 	N 	0.3909	0.0725	0.5567	0.001
Mof_O 	O 	0.414	0.1372	0.5047	-0.064
Mof_O 	O 	0.333	0.042	0.6157	-0.093
Mof_O 	O 	0.8215	0.34509	0.654	-0.477
Mof_C 	C 	0.9624	0.4148	0.53	0.108
Mof_N 	N 	0.9275	0.3184	0.5567	0.001
Mof_O 	O 	0.8628	0.2768	0.5047	-0.064
Mof_O 	O 	0.958	0.291	0.6157	-0.093
Mof_O 	O 	0.65491	0.47641	0.654	-0.477
Mof_C 	C 	0.5852	0.5476	0.53	0.108
Mof_N 	N 	0.6816	0.6091	0.5567	0
Mof_O 	O 	0.7232	0.586	0.5047	-0.065
Mof_O 	O 	0.709	0.667	0.6157	-0.094
Mof_O 	O 	0.47641	0.8215	0.154	-0.478
Mof_C 	C 	0.5476	0.9624	0.03	0.107
Mof_N 	N 	0.6091	0.9275	0.0567	0
Mof_O 	O 	0.586	0.8628	0.0047	-0.065
Mof_O 	O 	0.667	0.958	0.1157	-0.094
Mof_O 	O 	0.1785	0.65491	0.154	-0.478
Mof_C 	C 	0.0376	0.5852	0.03	0.107
Mof_N 	N 	0.0725	0.6816	0.0567	0
Mof_O 	O 	0.1372	0.7232	0.0047	-0.065
Mof_O 	O 	0.042	0.709	0.1157	-0.094
Mof_O 	O 	0.34509	0.52359	0.154	-0.478
Mof_C 	C 	0.4148	0.4524	0.03	0.107
Mof_N 	N 	0.3184	0.3909	0.0567	0
Mof_O 	O 	0.2768	0.414	0.0047	-0.065
Mof_O 	O 	0.291	0.333	0.1157	-0.094
Mof_O 	O 	0.1785	0.52359	0.346	-0.478
Mof_C 	C 	0.0376	0.4524	0.47	0.107
Mof_N 	N 	0.0725	0.3909	0.4433	0
Mof_O 	O 	0.1372	0.414	0.4953	-0.065
Mof_O 	O 	0.042	0.333	0.3843	-0.094
Mof_O 	O 	0.34509	0.8215	0.346	-0.478
Mof_C 	C 	0.4148	0.9624	0.47	0.107
Mof_N 	N 	0.3184	0.9275	0.4433	0
Mof_O 	O 	0.2768	0.8628	0.4953	-0.065
Mof_O 	O 	0.291	0.958	0.3843	-0.094
Mof_O 	O 	0.47641	0.65491	0.346	-0.478
Mof_C 	C 	0.5476	0.5852	0.47	0.107
Mof_N 	N 	0.6091	0.6816	0.4433	0
Mof_O 	O 	0.586	0.7232	0.4953	-0.065
Mof_O 	O 	0.667	0.709	0.3843	-0.094
Mof_O 	O 	0.8215	0.47641	0.846	-0.478
Mof_C 	C 	0.9624	0.5476	0.97	0.107
Mof_N 	N 	0.9275	0.6091	0.9433	0
Mof_O 	O 	0.8628	0.586	0.9953	-0.065
Mof_O 	O 	0.958	0.667	0.8843	-0.094
Mof_O 	O 	0.65491	0.1785	0.846	-0.478
Mof_C 	C 	0.5852	0.0376	0.97	0.107
Mof_N 	N 	0.6816	0.0725	0.9433	0
Mof_O 	O 	0.7232	0.1372	0.9953	-0.065
Mof_O 	O 	0.709	0.042	0.8843	-0.094
Mof_O 	O 	0.52359	0.34509	0.846	-0.478
Mof_C 	C 	0.4524	0.4148	0.97	0.107
Mof_N 	N 	0.3909	0.3184	0.9433	0
Mof_O 	O 	0.414	0.2768	0.9953	-0.065
Mof_O 	O 	0.333	0.291	0.8843	-0.094
Mof_O 	O 	0.47641	0.8215	0.346	-0.478
Mof_C 	C 	0.5476	0.9624	0.47	0.107
Mof_N 	N 	0.6091	0.9275	0.4433	0
Mof_O 	O 	0.586	0.8628	0.4953	-0.065
Mof_O 	O 	0.667	0.958	0.3843	-0.094
Mof_O 	O 	0.1785	0.65491	0.346	-0.478
Mof_C 	C 	0.0376	0.5852	0.47	0.107
Mof_N 	N 	0.0725	0.6816	0.4433	0
Mof_O 	O 	0.1372	0.7232	0.4953	-0.065
Mof_O 	O 	0.042	0.709	0.3843	-0.094
Mof_O 	O 	0.34509	0.52359	0.346	-0.478
Mof_C 	C 	0.4148	0.4524	0.47	0.107
Mof_N 	N 	0.3184	0.3909	0.4433	0
Mof_O 	O 	0.2768	0.414	0.4953	-0.065
Mof_O 	O 	0.291	0.333	0.3843	-0.094
Mof_O 	O 	0.52359	0.1785	0.846	-0.478
Mof_C 	C 	0.4524	0.0376	0.97	0.107
Mof_N 	N 	0.3909	0.0725	0.9433	0
Mof_O 	O 	0.414	0.1372	0.9953	-0.065
Mof_O 	O 	0.333	0.042	0.8843	-0.094
Mof_O 	O 	0.8215	0.34509	0.846	-0.478
Mof_C 	C 	0.9624	0.4148	0.97	0.107
Mof_N 	N 	0.9275	0.3184	0.9433	0
Mof_O 	O 	0.8628	0.2768	0.9953	-0.065
Mof_O 	O 	0.958	0.291	0.8843	-0.094
Mof_O 	O 	0.65491	0.47641	0.846	-0.478
Mof_C 	C 	0.5852	0.5476	0.97	0.107
Mof_N 	N 	0.6816	0.6091	0.9433	0
Mof_O 	O 	0.7232	0.586	0.9953	-0.065
Mof_O 	O 	0.709	0.667	0.8843	-0.094
Mof_O 	O 	0.8215	0.47641	0.654	-0.478
Mof_C 	C 	0.9624	0.5476	0.53	0.107
Mof_N 	N 	0.9275	0.6091	0.5567	0
Mof_O 	O 	0.8628	0.586	0.5047	-0.065
Mof_O 	O 	0.958	0.667	0.6157	-0.094
Mof_O 	O 	0.65491	0.1785	0.654	-0.478
Mof_C 	C 	0.5852	0.0376	0.53	0.107
Mof_N 	N 	0.6816	0.0725	0.5567	0
Mof_O 	O 	0.7232	0.1372	0.5047	-0.065
Mof_O 	O 	0.709	0.042	0.6157	-0.094
Mof_O 	O 	0.52359	0.34509	0.654	-0.478
Mof_C 	C 	0.4524	0.4148	0.53	0.107
Mof_N 	N 	0.3909	0.3184	0.5567	0
Mof_O 	O 	0.414	0.2768	0.5047	-0.065
Mof_O 	O 	0.333	0.291	0.6157	-0.094
Mof_O 	O 	0.1785	0.52359	0.154	-0.478
Mof_C 	C 	0.0376	0.4524	0.03	0.107
Mof_N 	N 	0.0725	0.3909	0.0567	0
Mof_O 	O 	0.1372	0.414	0.0047	-0.065
Mof_O 	O 	0.042	0.333	0.1157	-0.094
Mof_O 	O 	0.34509	0.8215	0.154	-0.478
Mof_C 	C 	0.4148	0.9624	0.03	0.108
Mof_N 	N 	0.3184	0.9275	0.0567	0
Mof_O 	O 	0.2768	0.8628	0.0047	-0.065
Mof_O 	O 	0.291	0.958	0.1157	-0.094
Mof_O 	O 	0.47641	0.65491	0.154	-0.478
Mof_C 	C 	0.5476	0.5852	0.03	0.107
Mof_N 	N 	0.6091	0.6816	0.0567	0
Mof_O 	O 	0.586	0.7232	0.0047	-0.065
Mof_O 	O 	0.667	0.709	0.1157	-0.094
Mof_Mg	Mg	0.53289	0.26645	0.75	1.483
Mof_N 	N 	0.38	0.19	0.75	-0.212
Mof_C 	C 	0.1908	0.0954	0.75	0.098
Mof_C 	C 	0.0886	0.0443	0.75	0.114
Mof_Mg	Mg	0.73355	0.26645	0.75	1.483
Mof_N 	N 	0.81	0.19	0.75	-0.212
Mof_C 	C 	0.9046	0.0954	0.75	0.097
Mof_C 	C 	0.9557	0.0443	0.75	0.115
Mof_Mg	Mg	0.73356	0.46711	0.75	1.483
Mof_N 	N 	0.81	0.62	0.75	-0.212
Mof_C 	C 	0.9046	0.8092	0.75	0.098
Mof_C 	C 	0.9557	0.9114	0.75	0.114
Mof_Mg	Mg	0.46711	0.73356	0.25	1.483
Mof_N 	N 	0.62	0.81	0.25	-0.212
Mof_C 	C 	0.8092	0.9046	0.25	0.098
Mof_C 	C 	0.9114	0.9557	0.25	0.114
Mof_Mg	Mg	0.26645	0.73356	0.25	1.483
Mof_N 	N 	0.19	0.81	0.25	-0.212
Mof_C 	C 	0.0954	0.9046	0.25	0.097
Mof_C 	C 	0.0443	0.9557	0.25	0.115
Mof_Mg	Mg	0.26644	0.53289	0.25	1.483
Mof_N 	N 	0.19	0.38	0.25	-0.212
Mof_C 	C 	0.0954	0.1908	0.25	0.098
Mof_C 	C 	0.0443	0.0886	0.25	0.114
Mof_O 	O 	0.66667	0.33333	0.75	-0.764
Mof_O 	O 	0.33333	0.66667	0.25	-0.763
Mof_C 	C 	0.57515	0.1503	0.6285	0.483
Mof_C 	C 	0.53705	0.0741	0.5597	-0.148
Mof_C 	C 	0.8497	0.42485	0.6285	0.483
Mof_C 	C 	0.9259	0.46295	0.5597	-0.148
Mof_C 	C 	0.57515	0.42485	0.6285	0.483
Mof_C 	C 	0.53705	0.46295	0.5597	-0.148
Mof_C 	C 	0.42485	0.8497	0.1285	0.483
Mof_C 	C 	0.46295	0.9259	0.0597	-0.148
Mof_C 	C 	0.1503	0.57515	0.1285	0.483
Mof_C 	C 	0.0741	0.53705	0.0597	-0.148
Mof_C 	C 	0.42485	0.57515	0.1285	0.483
Mof_C 	C 	0.46295	0.53705	0.0597	-0.148
Mof_C 	C 	0.1503	0.57515	0.3715	0.483
Mof_C 	C 	0.0741	0.53705	0.4403	-0.148
Mof_C 	C 	0.42485	0.8497	0.3715	0.483
Mof_C 	C 	0.46295	0.9259	0.4403	-0.148
Mof_C 	C 	0.42485	0.57515	0.3715	0.483
Mof_C 	C 	0.46295	0.53705	0.4403	-0.148
Mof_C 	C 	0.8497	0.42485	0.8715	0.483
Mof_C 	C 	0.9259	0.46295	0.9403	-0.148
Mof_C 	C 	0.57515	0.1503	0.8715	0.483
Mof_C 	C 	0.53705	0.0741	0.9403	-0.148
Mof_C 	C 	0.57515	0.42485	0.8715	0.483
Mof_C 	C 	0.53705	0.46295	0.9403	-0.148
Mof_C 	C 	0.238	0.189	0.75	-0.122
Mof_H 	H 	0.2073	0.2218	0.75	0.12
Mof_C 	C 	0.3336	0.2339	0.75	0.143
Mof_H 	H 	0.3659	0.2974	0.75	0.032
Mof_C 	C 	0.811	0.049	0.75	-0.121
Mof_H 	H 	0.7782	0.9855	0.75	0.12
Mof_C 	C 	0.7661	0.0997	0.75	0.142
Mof_H 	H 	0.7026	0.0685	0.75	0.032
Mof_C 	C 	0.951	0.762	0.75	-0.122
Mof_H 	H 	0.0145	0.7927	0.75	0.12
Mof_C 	C 	0.9003	0.6664	0.75	0.142
Mof_H 	H 	0.9315	0.6341	0.75	0.032
Mof_C 	C 	0.762	0.811	0.25	-0.122
Mof_H 	H 	0.7927	0.7782	0.25	0.12
Mof_C 	C 	0.6664	0.7661	0.25	0.143
Mof_H 	H 	0.6341	0.7026	0.25	0.032
Mof_C 	C 	0.189	0.951	0.25	-0.121
Mof_H 	H 	0.2218	0.0145	0.25	0.12
Mof_C 	C 	0.2339	0.9003	0.25	0.142
Mof_H 	H 	0.2974	0.9315	0.25	0.032
Mof_C 	C 	0.049	0.238	0.25	-0.122
Mof_H 	H 	0.9855	0.2073	0.25	0.12
Mof_C 	C 	0.0997	0.3336	0.25	0.142
Mof_H 	H 	0.0685	0.3659	0.25	0.032
Mof_C 	C 	0.189	0.238	0.25	-0.122
Mof_H 	H 	0.2218	0.2073	0.25	0.12
Mof_C 	C 	0.2339	0.3336	0.25	0.143
Mof_H 	H 	0.2974	0.3659	0.25	0.032
Mof_C 	C 	0.049	0.811	0.25	-0.121
Mof_H 	H 	0.9855	0.7782	0.25	0.12
Mof_C 	C 	0.0997	0.7661	0.25	0.142
Mof_H 	H 	0.0685	0.7026	0.25	0.032
Mof_C 	C 	0.762	0.951	0.25	-0.122
Mof_H 	H 	0.7927	0.0145	0.25	0.12
Mof_C 	C 	0.6664	0.9003	0.25	0.142
Mof_H 	H 	0.6341	0.9315	0.25	0.032
Mof_C 	C 	0.811	0.762	0.75	-0.122
Mof_H 	H 	0.7782	0.7927	0.75	0.12
Mof_C 	C 	0.7661	0.6664	0.75	0.143
Mof_H 	H 	0.7026	0.6341	0.75	0.032
Mof_C 	C 	0.951	0.189	0.75	-0.121
Mof_H 	H 	0.0145	0.2218	0.75	0.12
Mof_C 	C 	0.9003	0.2339	0.75	0.142
Mof_H 	H 	0.9315	0.2974	0.75	0.032
Mof_C 	C 	0.238	0.049	0.75	-0.122
Mof_H 	H 	0.2073	0.9855	0.75	0.12
Mof_C 	C 	0.3336	0.0997	0.75	0.142
Mof_H 	H 	0.3659	0.0685	0.75	0.032
Mof_N 	N 	0.047	0.953	0.75	-0.126
Mof_N 	N 	0.047	0.094	0.75	-0.126
Mof_N 	N 	0.906	0.953	0.75	-0.126
Mof_N 	N 	0.953	0.047	0.25	-0.126
Mof_N 	N 	0.953	0.906	0.25	-0.126
Mof_N 	N 	0.094	0.047	0.25	-0.126
_end
