data_functionalizedCrystal
_audit_creation_method	'EQeq! by Chris Wilmer'
_symmetry_space_group_name_H-M	'P1'
_symmetry_Int_Tables_number	1
_symmetry_cell_setting	triclinic
loop_
_symmetry_equiv_pos_as_xyz
  x,y,z
_cell_length_a	6.721
_cell_length_b	10.1569
_cell_length_c	10.1569
_cell_angle_alpha	90.4069
_cell_angle_beta	93.0712
_cell_angle_gamma	86.9288
loop_
_atom_site_label
_atom_site_type_symbol
_atom_site_fract_x
_atom_site_fract_y
_atom_site_fract_z
_atom_site_charge
Mof_Cd	Cd	0.75	0.57175	0.57175	0.498
Mof_Cd	Cd	0.25	0.42825	0.42825	0.498
Mof_H 	H 	0.8746	0.3571	0.2067	0.063
Mof_H 	H 	0.7867	0.7381	0.2841	0.05
Mof_H 	H 	0.7798	0.3963	0.9889	0.07
Mof_H 	H 	0.6667	0.7797	0.0687	0.069
Mof_H 	H 	0.6254	0.2067	0.3571	0.063
Mof_H 	H 	0.7133	0.2841	0.7381	0.051
Mof_H 	H 	0.7202	0.9889	0.3963	0.071
Mof_H 	H 	0.8333	0.0687	0.7797	0.069
Mof_H 	H 	0.1254	0.6429	0.7933	0.064
Mof_H 	H 	0.2133	0.2619	0.7159	0.051
Mof_H 	H 	0.2202	0.6037	0.0111	0.07
Mof_H 	H 	0.3333	0.2203	0.9313	0.069
Mof_H 	H 	0.3746	0.7933	0.6429	0.063
Mof_H 	H 	0.2867	0.7159	0.2619	0.051
Mof_H 	H 	0.2798	0.0111	0.6037	0.071
Mof_H 	H 	0.1667	0.9313	0.2203	0.069
Mof_C 	C 	0.713	0.591	0.0022	-0.026
Mof_C 	C 	0.8394	0.4423	0.1775	0.033
Mof_C 	C 	0.7833	0.6697	0.2229	0.03
Mof_C 	C 	0.6537	0.6195	0.8597	0.297
Mof_C 	C 	0.7779	0.4664	0.0482	-0.045
Mof_C 	C 	0.713	0.6951	0.0939	-0.054
Mof_C 	C 	0.787	0.0022	0.591	-0.026
Mof_C 	C 	0.6606	0.1775	0.4423	0.033
Mof_C 	C 	0.7167	0.2229	0.6697	0.03
Mof_C 	C 	0.8463	0.8597	0.6195	0.298
Mof_C 	C 	0.7221	0.0482	0.4664	-0.046
Mof_C 	C 	0.787	0.0939	0.6951	-0.054
Mof_C 	C 	0.287	0.409	0.9978	-0.026
Mof_C 	C 	0.1606	0.5577	0.8225	0.033
Mof_C 	C 	0.2167	0.3303	0.7771	0.03
Mof_C 	C 	0.3463	0.3805	0.1403	0.297
Mof_C 	C 	0.2221	0.5336	0.9518	-0.045
Mof_C 	C 	0.287	0.3049	0.9061	-0.054
Mof_C 	C 	0.213	0.9978	0.409	-0.026
Mof_C 	C 	0.3394	0.8225	0.5577	0.033
Mof_C 	C 	0.2833	0.7771	0.3303	0.03
Mof_C 	C 	0.1537	0.1403	0.3805	0.298
Mof_C 	C 	0.2779	0.9518	0.5336	-0.046
Mof_C 	C 	0.213	0.9061	0.3049	-0.054
Mof_N 	N 	0.847	0.5457	0.2603	-0.061
Mof_N 	N 	0.653	0.2603	0.5457	-0.061
Mof_N 	N 	0.153	0.4543	0.7397	-0.061
Mof_N 	N 	0.347	0.7397	0.4543	-0.061
Mof_O 	O 	0.559	0.721	0.8268	-0.244
Mof_O 	O 	0.9234	0.5238	0.3846	-0.167
Mof_O 	O 	0.7138	0.52849	0.78117	-0.265
Mof_O 	O 	0.941	0.8268	0.721	-0.245
Mof_O 	O 	0.5766	0.3846	0.5238	-0.167
Mof_O 	O 	0.7862	0.78117	0.52849	-0.265
Mof_O 	O 	0.441	0.279	0.1732	-0.244
Mof_O 	O 	0.0766	0.4762	0.6154	-0.167
Mof_O 	O 	0.2862	0.47151	0.21883	-0.265
Mof_O 	O 	0.059	0.1732	0.279	-0.245
Mof_O 	O 	0.4234	0.6154	0.4762	-0.167
Mof_O 	O 	0.2138	0.21883	0.47151	-0.265
_end
