data_functionalizedCrystal
_audit_creation_method	'EQeq! by Chris Wilmer'
_symmetry_space_group_name_H-M	'P1'
_symmetry_Int_Tables_number	1
_symmetry_cell_setting	triclinic
loop_
_symmetry_equiv_pos_as_xyz
  x,y,z
_cell_length_a	6.7613
_cell_length_b	15.0663
_cell_length_c	15.0663
_cell_angle_alpha	62.1969
_cell_angle_beta	81.3969
_cell_angle_gamma	98.6031
loop_
_atom_site_label
_atom_site_type_symbol
_atom_site_fract_x
_atom_site_fract_y
_atom_site_fract_z
_atom_site_charge
Mof_Ni	Ni	0.1162	0.719	0.6994	1.09
Mof_Ni	Ni	0.8156	0.6994	0.5816	1.105
Mof_Ni	Ni	0.3972	0.5816	0.719	1.098
Mof_Ni	Ni	0.3972	0.281	0.4184	1.099
Mof_Ni	Ni	0.1162	0.3006	0.281	1.094
Mof_Ni	Ni	0.8156	0.4184	0.3006	1.106
Mof_H 	H 	0.724	0.495	0.505	0.268
Mof_H 	H 	0.528	0.43	-0	-0.028
Mof_H 	H 	0.528	4.37456e-17	0.57	-0.03
Mof_H 	H 	0.229	0.505	-0	0.262
Mof_H 	H 	0.229	4.37456e-17	0.495	0.264
Mof_H 	H 	0.098	0.57	0.43	-0.034
Mof_C 	C 	0.0505	0.0935	0.461	0.597
Mof_C 	C 	0.1949	0.4554	0.3577	0.424
Mof_C 	C 	0.7395	0.1869	0.4554	0.423
Mof_C 	C 	0.5115	0.5545	0.539	0.616
Mof_C 	C 	0.1949	0.6423	0.5446	0.423
Mof_C 	C 	0.2396	0.5529	0.4471	0.303
Mof_C 	C 	0.7395	0.5446	0.8131	0.421
Mof_C 	C 	0.2961	0.5747	0.5154	-0.392
Mof_C 	C 	0.6867	4.37456e-17	0.5529	0.325
Mof_C 	C 	0.0505	0.539	0.9065	0.579
Mof_C 	C 	0.8115	0.5154	0.9099	-0.379
Mof_C 	C 	0.8115	0.0901	0.4846	-0.375
Mof_C 	C 	0.7214	0.4253	0.0901	-0.389
Mof_C 	C 	0.0879	4.37456e-17	0.4923	-0.704
Mof_C 	C 	0.0879	0.5077	-0	-0.701
Mof_C 	C 	0.957	0.9065	0.5545	0.621
Mof_C 	C 	0.5526	0.8131	0.6423	0.429
Mof_C 	C 	0.957	0.4455	0.0935	0.631
Mof_C 	C 	0.5802	0.4923	0.5077	-0.703
Mof_C 	C 	0.5115	0.461	0.4455	0.616
Mof_C 	C 	0.7214	0.9099	0.5747	-0.41
Mof_C 	C 	0.5526	0.3577	0.1869	0.426
Mof_C 	C 	0.2961	0.4846	0.4253	-0.392
Mof_C 	C 	0.6867	0.4471	-0	0.312
Mof_O 	O 	0.1597	0.5936	0.8255	-0.639
Mof_O 	O 	0.3729	0.8278	0.6681	-0.46
Mof_O 	O 	0.3729	0.3319	0.1722	-0.45
Mof_O 	O 	0.5451	0.5041	0.8278	-0.452
Mof_O 	O 	0.9852	0.8255	0.5809	-0.635
Mof_O 	O 	0.9852	0.4191	0.1745	-0.635
Mof_O 	O 	0.8796	0.2702	0.3824	-0.563
Mof_O 	O 	0.6094	0.3474	0.2702	-0.574
Mof_O 	O 	0.5661	0.5809	0.5936	-0.64
Mof_O 	O 	0.5451	0.1722	0.4959	-0.447
Mof_O 	O 	0.5661	0.4064	0.4191	-0.64
Mof_O 	O 	0.262	0.3824	0.3474	-0.579
Mof_O 	O 	0.041	0.4959	0.3319	-0.46
Mof_O 	O 	0.041	0.6681	0.5041	-0.461
Mof_O 	O 	0.1597	0.1745	0.4064	-0.64
Mof_O 	O 	0.262	0.6526	0.6176	-0.58
Mof_O 	O 	0.8796	0.6176	0.7298	-0.563
Mof_O 	O 	0.6094	0.7298	0.6526	-0.577
_end
