data_functionalizedCrystal
_audit_creation_method	'EQeq! by Chris Wilmer'
_symmetry_space_group_name_H-M	'P1'
_symmetry_Int_Tables_number	1
_symmetry_cell_setting	triclinic
loop_
_symmetry_equiv_pos_as_xyz
  x,y,z
_cell_length_a	14.532
_cell_length_b	18.184
_cell_length_c	25.037
_cell_angle_alpha	90
_cell_angle_beta	90
_cell_angle_gamma	90
loop_
_atom_site_label
_atom_site_type_symbol
_atom_site_fract_x
_atom_site_fract_y
_atom_site_fract_z
_atom_site_charge
Mof_Zn	Zn	0.53536	0.94315	0.64808	1.231
Mof_Zn	Zn	0.46464	0.55685	0.64808	1.23
Mof_Zn	Zn	0.03536	0.55685	0.14808	1.218
Mof_Zn	Zn	0.96464	0.94315	0.14808	1.24
Mof_Zn	Zn	0.5	0.75	0.64837	1.287
Mof_Zn	Zn	2.8662e-33	0.75	0.14837	1.277
Mof_H 	H 	0.4788	0.066	0.5746	0.002
Mof_H 	H 	0.4628	0.1915	0.5735	0.078
Mof_H 	H 	0.554	0.1984	0.7236	0.082
Mof_H 	H 	0.5695	0.0722	0.7211	-0.01
Mof_H 	H 	0.6309	0.5215	0.5087	0.031
Mof_H 	H 	0.7154	0.5246	0.4306	0.052
Mof_H 	H 	0.731	0.7442	0.4397	0.053
Mof_H 	H 	0.6466	0.7423	0.5181	0.034
Mof_H 	H 	0.8218	0.5315	0.3759	0.141
Mof_H 	H 	0.7654	0.7379	0.3564	0.135
Mof_H 	H 	0.8394	0.9174	0.6716	-0.016
Mof_H 	H 	0.9842	0.8701	0.6749	0.119
Mof_H 	H 	0.8865	0.6697	0.6511	0.113
Mof_H 	H 	0.7394	0.7176	0.6434	-0.006
Mof_H 	H 	0.9009	0.5311	0.2974	-0.042
Mof_H 	H 	0.8595	0.7388	0.2827	-0.038
Mof_H 	H 	0.5212	0.434	0.5746	0.003
Mof_H 	H 	0.5372	0.3085	0.5735	0.079
Mof_H 	H 	0.446	0.3016	0.7236	0.082
Mof_H 	H 	0.4305	0.4278	0.7211	-0.01
Mof_H 	H 	0.3691	0.9785	0.5087	0.032
Mof_H 	H 	0.2846	0.9754	0.4306	0.047
Mof_H 	H 	0.269	0.7558	0.4397	0.046
Mof_H 	H 	0.3534	0.7577	0.5181	0.035
Mof_H 	H 	0.1782	0.9685	0.3759	0.145
Mof_H 	H 	0.2346	0.7621	0.3564	0.139
Mof_H 	H 	0.1606	0.5826	0.6716	0.019
Mof_H 	H 	0.0158	0.6299	0.6749	0.045
Mof_H 	H 	0.1135	0.8303	0.6511	0.048
Mof_H 	H 	0.2606	0.7824	0.6434	0.028
Mof_H 	H 	0.0991	0.9689	0.2974	-0.059
Mof_H 	H 	0.1405	0.7612	0.2827	-0.055
Mof_H 	H 	0.9788	0.434	0.0746	0.019
Mof_H 	H 	0.9628	0.3085	0.0735	0.045
Mof_H 	H 	0.054	0.3016	0.2236	0.042
Mof_H 	H 	0.0695	0.4278	0.2211	-0.001
Mof_H 	H 	0.1309	0.9785	0.0087	0.027
Mof_H 	H 	0.2154	0.9754	0.9306	0.05
Mof_H 	H 	0.231	0.7558	0.9397	0.05
Mof_H 	H 	0.1466	0.7577	0.0181	0.03
Mof_H 	H 	0.3218	0.9685	0.8759	0.143
Mof_H 	H 	0.2654	0.7621	0.8564	0.135
Mof_H 	H 	0.3394	0.5826	0.1716	0.001
Mof_H 	H 	0.4842	0.6299	0.1749	0.083
Mof_H 	H 	0.3865	0.8303	0.1511	0.081
Mof_H 	H 	0.2394	0.7824	0.1434	0.01
Mof_H 	H 	0.4009	0.9689	0.7974	-0.051
Mof_H 	H 	0.3595	0.7612	0.7827	-0.046
Mof_H 	H 	0.0212	0.066	0.0746	-0.014
Mof_H 	H 	0.0372	0.1915	0.0735	0.111
Mof_H 	H 	0.946	0.1984	0.2236	0.121
Mof_H 	H 	0.9305	0.0722	0.2211	-0.019
Mof_H 	H 	0.8691	0.5215	0.0087	0.036
Mof_H 	H 	0.7846	0.5246	0.9306	0.048
Mof_H 	H 	0.769	0.7442	0.9397	0.048
Mof_H 	H 	0.8534	0.7423	0.0181	0.04
Mof_H 	H 	0.6782	0.5315	0.8759	0.144
Mof_H 	H 	0.7346	0.7379	0.8564	0.14
Mof_H 	H 	0.6606	0.9174	0.1716	0.004
Mof_H 	H 	0.5158	0.8701	0.1749	0.081
Mof_H 	H 	0.6135	0.6697	0.1511	0.079
Mof_H 	H 	0.7606	0.7176	0.1434	0.012
Mof_H 	H 	0.5991	0.5311	0.7974	-0.053
Mof_H 	H 	0.6405	0.7388	0.7827	-0.047
Mof_C 	C 	0.4941	0.0929	0.6049	0.074
Mof_C 	C 	0.484	0.1683	0.6043	-0.134
Mof_C 	C 	0.5049	0.2095	0.6486	0.058
Mof_C 	C 	0.538	0.1726	0.6929	-0.14
Mof_C 	C 	0.5472	0.0966	0.6911	0.087
Mof_C 	C 	0.6268	0.6324	0.5201	-0.137
Mof_C 	C 	0.65	0.5663	0.4946	0.031
Mof_C 	C 	0.7017	0.5683	0.4482	-0.074
Mof_C 	C 	0.7335	0.6348	0.4272	-0.026
Mof_C 	C 	0.711	0.6995	0.4536	-0.069
Mof_C 	C 	0.6593	0.6986	0.5003	0.032
Mof_C 	C 	0.788	0.6355	0.3771	0.208
Mof_C 	C 	0.8272	0.5754	0.3571	-0.299
Mof_C 	C 	0.7961	0.6951	0.3467	-0.292
Mof_C 	C 	0.6782	0.8534	0.6512	0.534
Mof_C 	C 	0.7738	0.8228	0.6557	-0.243
Mof_C 	C 	0.8483	0.8673	0.6661	0.166
Mof_C 	C 	0.935	0.8387	0.6683	-0.225
Mof_C 	C 	0.952	0.7651	0.6611	0.163
Mof_C 	C 	0.8777	0.7203	0.6537	-0.216
Mof_C 	C 	0.7888	0.7489	0.6499	0.155
Mof_C 	C 	0.9369	0.6324	0.2292	0.588
Mof_C 	C 	0.8876	0.6343	0.2806	-0.348
Mof_C 	C 	0.8758	0.5752	0.3094	0.267
Mof_C 	C 	0.8498	0.6946	0.3004	0.256
Mof_C 	C 	0.5675	0.6317	0.569	0.469
Mof_C 	C 	0.5059	0.4071	0.6049	0.075
Mof_C 	C 	0.516	0.3317	0.6043	-0.133
Mof_C 	C 	0.4951	0.2905	0.6486	0.058
Mof_C 	C 	0.462	0.3274	0.6929	-0.139
Mof_C 	C 	0.4528	0.4034	0.6911	0.088
Mof_C 	C 	0.3732	0.8676	0.5201	-0.134
Mof_C 	C 	0.35	0.9337	0.4946	0.023
Mof_C 	C 	0.2983	0.9317	0.4482	-0.068
Mof_C 	C 	0.2665	0.8652	0.4272	-0.04
Mof_C 	C 	0.289	0.8005	0.4536	-0.062
Mof_C 	C 	0.3407	0.8014	0.5003	0.024
Mof_C 	C 	0.212	0.8645	0.3771	0.225
Mof_C 	C 	0.1728	0.9246	0.3571	-0.325
Mof_C 	C 	0.2039	0.8049	0.3467	-0.318
Mof_C 	C 	0.3218	0.6466	0.6512	0.502
Mof_C 	C 	0.2262	0.6772	0.6557	-0.166
Mof_C 	C 	0.1517	0.6327	0.6661	0.052
Mof_C 	C 	0.065	0.6613	0.6683	-0.088
Mof_C 	C 	0.048	0.7349	0.6611	-0.033
Mof_C 	C 	0.1223	0.7797	0.6537	-0.082
Mof_C 	C 	0.2112	0.7511	0.6499	0.05
Mof_C 	C 	0.0631	0.8676	0.2292	0.605
Mof_C 	C 	0.1124	0.8657	0.2806	-0.381
Mof_C 	C 	0.1242	0.9248	0.3094	0.29
Mof_C 	C 	0.1502	0.8054	0.3004	0.278
Mof_C 	C 	0.4325	0.8683	0.569	0.466
Mof_C 	C 	0.9941	0.4071	0.1049	0.057
Mof_C 	C 	0.984	0.3317	0.1043	-0.01
Mof_C 	C 	0.0049	0.2905	0.1486	-0.099
Mof_C 	C 	0.038	0.3274	0.1929	-0.058
Mof_C 	C 	0.0472	0.4034	0.1911	0.035
Mof_C 	C 	0.1268	0.8676	0.0201	-0.144
Mof_C 	C 	0.15	0.9337	0.9946	0.029
Mof_C 	C 	0.2017	0.9317	0.9482	-0.077
Mof_C 	C 	0.2335	0.8652	0.9272	-0.031
Mof_C 	C 	0.211	0.8005	0.9536	-0.072
Mof_C 	C 	0.1593	0.8014	0.0003	0.03
Mof_C 	C 	0.288	0.8645	0.8771	0.214
Mof_C 	C 	0.3272	0.9246	0.8571	-0.311
Mof_C 	C 	0.2961	0.8049	0.8467	-0.303
Mof_C 	C 	0.1782	0.6466	0.1512	0.52
Mof_C 	C 	0.2738	0.6772	0.1557	-0.208
Mof_C 	C 	0.3483	0.6327	0.1661	0.111
Mof_C 	C 	0.435	0.6613	0.1683	-0.159
Mof_C 	C 	0.452	0.7349	0.1611	0.067
Mof_C 	C 	0.3777	0.7797	0.1537	-0.151
Mof_C 	C 	0.2888	0.7511	0.1499	0.104
Mof_C 	C 	0.4369	0.8676	0.7292	0.597
Mof_C 	C 	0.3876	0.8657	0.7806	-0.365
Mof_C 	C 	0.3758	0.9248	0.8094	0.277
Mof_C 	C 	0.3498	0.8054	0.8004	0.266
Mof_C 	C 	0.0675	0.8683	0.069	0.47
Mof_C 	C 	0.0059	0.0929	0.1049	0.089
Mof_C 	C 	0.016	0.1683	0.1043	-0.256
Mof_C 	C 	0.9951	0.2095	0.1486	0.216
Mof_C 	C 	0.962	0.1726	0.1929	-0.22
Mof_C 	C 	0.9528	0.0966	0.1911	0.14
Mof_C 	C 	0.8732	0.6324	0.0201	-0.125
Mof_C 	C 	0.85	0.5663	0.9946	0.025
Mof_C 	C 	0.7983	0.5683	0.9482	-0.064
Mof_C 	C 	0.7665	0.6348	0.9272	-0.037
Mof_C 	C 	0.789	0.6995	0.9536	-0.058
Mof_C 	C 	0.8407	0.6986	0.0003	0.025
Mof_C 	C 	0.712	0.6355	0.8771	0.221
Mof_C 	C 	0.6728	0.5754	0.8571	-0.316
Mof_C 	C 	0.7039	0.6951	0.8467	-0.309
Mof_C 	C 	0.8218	0.8534	0.1512	0.513
Mof_C 	C 	0.7262	0.8228	0.1557	-0.2
Mof_C 	C 	0.6517	0.8673	0.1661	0.106
Mof_C 	C 	0.565	0.8387	0.1683	-0.153
Mof_C 	C 	0.548	0.7651	0.1611	0.062
Mof_C 	C 	0.6223	0.7203	0.1537	-0.146
Mof_C 	C 	0.7112	0.7489	0.1499	0.099
Mof_C 	C 	0.5631	0.6324	0.7292	0.599
Mof_C 	C 	0.6124	0.6343	0.7806	-0.368
Mof_C 	C 	0.6242	0.5752	0.8094	0.283
Mof_C 	C 	0.6502	0.6946	0.8004	0.272
Mof_C 	C 	0.9325	0.6317	0.069	0.463
Mof_N 	N 	0.5252	0.0572	0.64819	-0.249
Mof_N 	N 	0.4748	0.4428	0.64819	-0.248
Mof_N 	N 	0.0252	0.4428	0.14819	-0.254
Mof_N 	N 	0.9748	0.0572	0.14819	-0.242
Mof_O 	O 	0.6664	0.9206	0.6529	-0.518
Mof_O 	O 	0.97	0.574	0.21437	-0.527
Mof_O 	O 	0.5327	0.5722	0.58261	-0.51
Mof_O 	O 	0.556	0.6888	0.5922	-0.486
Mof_O 	O 	0.6152	0.8146	0.6453	-0.539
Mof_O 	O 	0.9446	0.6876	0.2042	-0.516
Mof_O 	O 	0.3336	0.5794	0.6529	-0.511
Mof_O 	O 	0.03	0.926	0.21437	-0.563
Mof_O 	O 	0.4673	0.9278	0.58261	-0.509
Mof_O 	O 	0.444	0.8112	0.5922	-0.487
Mof_O 	O 	0.3848	0.6854	0.6453	-0.53
Mof_O 	O 	0.0554	0.8124	0.2042	-0.545
Mof_O 	O 	0.1664	0.5794	0.1529	-0.522
Mof_O 	O 	0.47	0.926	0.71437	-0.546
Mof_O 	O 	0.0327	0.9278	0.08261	-0.524
Mof_O 	O 	0.056	0.8112	0.0922	-0.498
Mof_O 	O 	0.1152	0.6854	0.1453	-0.545
Mof_O 	O 	0.4446	0.8124	0.7042	-0.533
Mof_O 	O 	0.8336	0.9206	0.1529	-0.508
Mof_O 	O 	0.53	0.574	0.71437	-0.547
Mof_O 	O 	0.9673	0.5722	0.08261	-0.493
Mof_O 	O 	0.944	0.6888	0.0922	-0.471
Mof_O 	O 	0.8848	0.8146	0.1453	-0.521
Mof_O 	O 	0.5554	0.6876	0.7042	-0.533
Mof_Zn	Zn	0.96464	0.44315	0.85192	1.242
Mof_Zn	Zn	0.03536	0.05685	0.85192	1.217
Mof_Zn	Zn	0.46464	0.05685	0.35192	1.229
Mof_Zn	Zn	0.53536	0.44315	0.35192	1.23
Mof_Zn	Zn	-9.76071e-33	0.25	0.85163	1.276
Mof_Zn	Zn	0.5	0.25	0.35163	1.287
Mof_H 	H 	0.0212	0.566	0.9254	-0.011
Mof_H 	H 	0.0372	0.6915	0.9265	0.108
Mof_H 	H 	0.946	0.6984	0.7764	0.117
Mof_H 	H 	0.9305	0.5722	0.7789	-0.018
Mof_H 	H 	0.8691	0.0215	0.9913	0.036
Mof_H 	H 	0.7846	0.0246	0.0694	0.048
Mof_H 	H 	0.769	0.2442	0.0603	0.048
Mof_H 	H 	0.8534	0.2423	0.9819	0.04
Mof_H 	H 	0.6782	0.0315	0.1241	0.144
Mof_H 	H 	0.7346	0.2379	0.1436	0.14
Mof_H 	H 	0.6606	0.4174	0.8284	0.004
Mof_H 	H 	0.5158	0.3701	0.8251	0.081
Mof_H 	H 	0.6135	0.1697	0.8489	0.079
Mof_H 	H 	0.7606	0.2176	0.8566	0.012
Mof_H 	H 	0.5991	0.0311	0.2026	-0.053
Mof_H 	H 	0.6405	0.2388	0.2173	-0.047
Mof_H 	H 	0.9788	0.934	0.9254	0.017
Mof_H 	H 	0.9628	0.8085	0.9265	0.049
Mof_H 	H 	0.054	0.8016	0.7764	0.046
Mof_H 	H 	0.0695	0.9278	0.7789	-0.001
Mof_H 	H 	0.1309	0.4785	0.9913	0.026
Mof_H 	H 	0.2154	0.4754	0.0694	0.049
Mof_H 	H 	0.231	0.2558	0.0603	0.05
Mof_H 	H 	0.1466	0.2577	0.9819	0.029
Mof_H 	H 	0.3218	0.4685	0.1241	0.142
Mof_H 	H 	0.2654	0.2621	0.1436	0.135
Mof_H 	H 	0.3394	0.0826	0.8284	-0.001
Mof_H 	H 	0.4842	0.1299	0.8251	0.083
Mof_H 	H 	0.3865	0.3303	0.8489	0.081
Mof_H 	H 	0.2394	0.2824	0.8566	0.01
Mof_H 	H 	0.4009	0.4689	0.2026	-0.051
Mof_H 	H 	0.3595	0.2612	0.2173	-0.046
Mof_H 	H 	0.5212	0.934	0.4254	0.004
Mof_H 	H 	0.5372	0.8085	0.4265	0.079
Mof_H 	H 	0.446	0.8016	0.2764	0.082
Mof_H 	H 	0.4305	0.9278	0.2789	-0.01
Mof_H 	H 	0.3691	0.4785	0.4913	0.031
Mof_H 	H 	0.2846	0.4754	0.5694	0.046
Mof_H 	H 	0.269	0.2558	0.5603	0.045
Mof_H 	H 	0.3534	0.2577	0.4819	0.035
Mof_H 	H 	0.1782	0.4685	0.6241	0.145
Mof_H 	H 	0.2346	0.2621	0.6436	0.139
Mof_H 	H 	0.1606	0.0826	0.3284	0.02
Mof_H 	H 	0.0158	0.1299	0.3251	0.041
Mof_H 	H 	0.1135	0.3303	0.3489	0.044
Mof_H 	H 	0.2606	0.2824	0.3566	0.029
Mof_H 	H 	0.0991	0.4689	0.7026	-0.061
Mof_H 	H 	0.1405	0.2612	0.7173	-0.056
Mof_H 	H 	0.4788	0.566	0.4254	0.002
Mof_H 	H 	0.4628	0.6915	0.4265	0.078
Mof_H 	H 	0.554	0.6984	0.2764	0.082
Mof_H 	H 	0.5695	0.5722	0.2789	-0.01
Mof_H 	H 	0.6309	0.0215	0.4913	0.03
Mof_H 	H 	0.7154	0.0246	0.5694	0.052
Mof_H 	H 	0.731	0.2442	0.5603	0.054
Mof_H 	H 	0.6466	0.2423	0.4819	0.034
Mof_H 	H 	0.8218	0.0315	0.6241	0.141
Mof_H 	H 	0.7654	0.2379	0.6436	0.134
Mof_H 	H 	0.8394	0.4174	0.3284	-0.017
Mof_H 	H 	0.9842	0.3701	0.3251	0.123
Mof_H 	H 	0.8865	0.1697	0.3489	0.117
Mof_H 	H 	0.7394	0.2176	0.3566	-0.008
Mof_H 	H 	0.9009	0.0311	0.7026	-0.042
Mof_H 	H 	0.8595	0.2388	0.7173	-0.037
Mof_C 	C 	0.0059	0.5929	0.8951	0.087
Mof_C 	C 	0.016	0.6683	0.8957	-0.243
Mof_C 	C 	0.9951	0.7095	0.8514	0.2
Mof_C 	C 	0.962	0.6726	0.8071	-0.211
Mof_C 	C 	0.9528	0.5966	0.8089	0.134
Mof_C 	C 	0.8732	0.1324	0.9799	-0.125
Mof_C 	C 	0.85	0.0663	0.0054	0.025
Mof_C 	C 	0.7983	0.0683	0.0518	-0.063
Mof_C 	C 	0.7665	0.1348	0.0728	-0.037
Mof_C 	C 	0.789	0.1995	0.0464	-0.058
Mof_C 	C 	0.8407	0.1986	0.9997	0.024
Mof_C 	C 	0.712	0.1355	0.1229	0.222
Mof_C 	C 	0.6728	0.0754	0.1429	-0.317
Mof_C 	C 	0.7039	0.1951	0.1533	-0.309
Mof_C 	C 	0.8218	0.3534	0.8488	0.513
Mof_C 	C 	0.7262	0.3228	0.8443	-0.2
Mof_C 	C 	0.6517	0.3673	0.8339	0.105
Mof_C 	C 	0.565	0.3387	0.8317	-0.153
Mof_C 	C 	0.548	0.2651	0.8389	0.062
Mof_C 	C 	0.6223	0.2203	0.8463	-0.145
Mof_C 	C 	0.7112	0.2489	0.8501	0.099
Mof_C 	C 	0.5631	0.1324	0.2708	0.599
Mof_C 	C 	0.6124	0.1343	0.2194	-0.369
Mof_C 	C 	0.6242	0.0752	0.1906	0.283
Mof_C 	C 	0.6502	0.1946	0.1996	0.272
Mof_C 	C 	0.9325	0.1317	0.931	0.463
Mof_C 	C 	0.9941	0.9071	0.8951	0.058
Mof_C 	C 	0.984	0.8317	0.8957	-0.022
Mof_C 	C 	0.0049	0.7905	0.8514	-0.083
Mof_C 	C 	0.038	0.8274	0.8071	-0.066
Mof_C 	C 	0.0472	0.9034	0.8089	0.04
Mof_C 	C 	0.1268	0.3676	0.9799	-0.145
Mof_C 	C 	0.15	0.4337	0.0054	0.028
Mof_C 	C 	0.2017	0.4317	0.0518	-0.077
Mof_C 	C 	0.2335	0.3652	0.0728	-0.031
Mof_C 	C 	0.211	0.3005	0.0464	-0.072
Mof_C 	C 	0.1593	0.3014	0.9997	0.03
Mof_C 	C 	0.288	0.3645	0.1229	0.213
Mof_C 	C 	0.3272	0.4246	0.1429	-0.311
Mof_C 	C 	0.2961	0.3049	0.1533	-0.303
Mof_C 	C 	0.1782	0.1466	0.8488	0.521
Mof_C 	C 	0.2738	0.1772	0.8443	-0.209
Mof_C 	C 	0.3483	0.1327	0.8339	0.112
Mof_C 	C 	0.435	0.1613	0.8317	-0.16
Mof_C 	C 	0.452	0.2349	0.8389	0.068
Mof_C 	C 	0.3777	0.2797	0.8463	-0.152
Mof_C 	C 	0.2888	0.2511	0.8501	0.105
Mof_C 	C 	0.4369	0.3676	0.2708	0.597
Mof_C 	C 	0.3876	0.3657	0.2194	-0.365
Mof_C 	C 	0.3758	0.4248	0.1906	0.277
Mof_C 	C 	0.3498	0.3054	0.1996	0.266
Mof_C 	C 	0.0675	0.3683	0.931	0.47
Mof_C 	C 	0.5059	0.9071	0.3951	0.075
Mof_C 	C 	0.516	0.8317	0.3957	-0.132
Mof_C 	C 	0.4951	0.7905	0.3514	0.058
Mof_C 	C 	0.462	0.8274	0.3071	-0.139
Mof_C 	C 	0.4528	0.9034	0.3089	0.088
Mof_C 	C 	0.3732	0.3676	0.4799	-0.134
Mof_C 	C 	0.35	0.4337	0.5054	0.023
Mof_C 	C 	0.2983	0.4317	0.5518	-0.068
Mof_C 	C 	0.2665	0.3652	0.5728	-0.041
Mof_C 	C 	0.289	0.3005	0.5464	-0.062
Mof_C 	C 	0.3407	0.3014	0.4997	0.024
Mof_C 	C 	0.212	0.3645	0.6229	0.225
Mof_C 	C 	0.1728	0.4246	0.6429	-0.327
Mof_C 	C 	0.2039	0.3049	0.6533	-0.319
Mof_C 	C 	0.3218	0.1466	0.3488	0.5
Mof_C 	C 	0.2262	0.1772	0.3443	-0.163
Mof_C 	C 	0.1517	0.1327	0.3339	0.047
Mof_C 	C 	0.065	0.1613	0.3317	-0.081
Mof_C 	C 	0.048	0.2349	0.3389	-0.043
Mof_C 	C 	0.1223	0.2797	0.3463	-0.075
Mof_C 	C 	0.2112	0.2511	0.3501	0.044
Mof_C 	C 	0.0631	0.3676	0.7708	0.606
Mof_C 	C 	0.1124	0.3657	0.7194	-0.384
Mof_C 	C 	0.1242	0.4248	0.6906	0.291
Mof_C 	C 	0.1502	0.3054	0.6996	0.28
Mof_C 	C 	0.4325	0.3683	0.431	0.466
Mof_C 	C 	0.4941	0.5929	0.3951	0.074
Mof_C 	C 	0.484	0.6683	0.3957	-0.133
Mof_C 	C 	0.5049	0.7095	0.3514	0.058
Mof_C 	C 	0.538	0.6726	0.3071	-0.139
Mof_C 	C 	0.5472	0.5966	0.3089	0.087
Mof_C 	C 	0.6268	0.1324	0.4799	-0.138
Mof_C 	C 	0.65	0.0663	0.5054	0.032
Mof_C 	C 	0.7017	0.0683	0.5518	-0.075
Mof_C 	C 	0.7335	0.1348	0.5728	-0.025
Mof_C 	C 	0.711	0.1995	0.5464	-0.07
Mof_C 	C 	0.6593	0.1986	0.4997	0.033
Mof_C 	C 	0.788	0.1355	0.6229	0.207
Mof_C 	C 	0.8272	0.0754	0.6429	-0.298
Mof_C 	C 	0.7961	0.1951	0.6533	-0.291
Mof_C 	C 	0.6782	0.3534	0.3488	0.536
Mof_C 	C 	0.7738	0.3228	0.3443	-0.247
Mof_C 	C 	0.8483	0.3673	0.3339	0.172
Mof_C 	C 	0.935	0.3387	0.3317	-0.232
Mof_C 	C 	0.952	0.2651	0.3389	0.173
Mof_C 	C 	0.8777	0.2203	0.3463	-0.223
Mof_C 	C 	0.7888	0.2489	0.3501	0.161
Mof_C 	C 	0.9369	0.1324	0.7708	0.587
Mof_C 	C 	0.8876	0.1343	0.7194	-0.347
Mof_C 	C 	0.8758	0.0752	0.6906	0.266
Mof_C 	C 	0.8498	0.1946	0.6996	0.255
Mof_C 	C 	0.5675	0.1317	0.431	0.469
Mof_N 	N 	0.9748	0.5572	0.85181	-0.242
Mof_N 	N 	0.0252	0.9428	0.85181	-0.252
Mof_N 	N 	0.4748	0.9428	0.35181	-0.248
Mof_N 	N 	0.5252	0.5572	0.35181	-0.248
Mof_O 	O 	0.8336	0.4206	0.8471	-0.507
Mof_O 	O 	0.53	0.074	0.28563	-0.547
Mof_O 	O 	0.9673	0.0722	0.91739	-0.492
Mof_O 	O 	0.944	0.1888	0.9078	-0.47
Mof_O 	O 	0.8848	0.3146	0.8547	-0.52
Mof_O 	O 	0.5554	0.1876	0.2958	-0.533
Mof_O 	O 	0.1664	0.0794	0.8471	-0.524
Mof_O 	O 	0.47	0.426	0.28563	-0.547
Mof_O 	O 	0.0327	0.4278	0.91739	-0.527
Mof_O 	O 	0.056	0.3112	0.9078	-0.499
Mof_O 	O 	0.1152	0.1854	0.8547	-0.546
Mof_O 	O 	0.4446	0.3124	0.2958	-0.533
Mof_O 	O 	0.3336	0.0794	0.3471	-0.512
Mof_O 	O 	0.03	0.426	0.78563	-0.566
Mof_O 	O 	0.4673	0.4278	0.41739	-0.51
Mof_O 	O 	0.444	0.3112	0.4078	-0.487
Mof_O 	O 	0.3848	0.1854	0.3547	-0.53
Mof_O 	O 	0.0554	0.3124	0.7958	-0.546
Mof_O 	O 	0.6664	0.4206	0.3471	-0.519
Mof_O 	O 	0.97	0.074	0.78563	-0.526
Mof_O 	O 	0.5327	0.0722	0.41739	-0.511
Mof_O 	O 	0.556	0.1888	0.4078	-0.486
Mof_O 	O 	0.6152	0.3146	0.3547	-0.54
Mof_O 	O 	0.9446	0.1876	0.7958	-0.514
_end
