data_functionalizedCrystal
_audit_creation_method	'EQeq! by Chris Wilmer'
_symmetry_space_group_name_H-M	'P1'
_symmetry_Int_Tables_number	1
_symmetry_cell_setting	triclinic
loop_
_symmetry_equiv_pos_as_xyz
  x,y,z
_cell_length_a	8.99
_cell_length_b	12.14
_cell_length_c	8.511
_cell_angle_alpha	90
_cell_angle_beta	90
_cell_angle_gamma	90
loop_
_atom_site_label
_atom_site_type_symbol
_atom_site_fract_x
_atom_site_fract_y
_atom_site_fract_z
_atom_site_charge
Mof_O 	O 	0.1615	0.5467	0.1634	-0.56
Mof_O 	O 	0.6615	0.0467	0.6634	-0.461
Mof_O 	O 	0.8385	0.9533	0.1634	-0.396
Mof_O 	O 	0.3385	0.4533	0.6634	-0.433
Mof_O 	O 	0.8385	0.0467	0.8366	-0.328
Mof_O 	O 	0.3385	0.5467	0.3366	-0.467
Mof_O 	O 	0.1615	0.4533	0.8366	-0.377
Mof_O 	O 	0.6615	0.9533	0.3366	-0.388
Mof_O 	O 	0.8385	0.4533	0.8366	-0.281
Mof_O 	O 	0.3385	0.9533	0.3366	-0.408
Mof_O 	O 	0.1615	0.0467	0.8366	-0.425
Mof_O 	O 	0.6615	0.5467	0.3366	-0.446
Mof_O 	O 	0.1615	0.9533	0.1634	-0.499
Mof_O 	O 	0.6615	0.4533	0.6634	-0.412
Mof_O 	O 	0.8385	0.5467	0.1634	-0.453
Mof_O 	O 	0.3385	0.0467	0.6634	-0.483
Mof_Mg	Mg	-0	0.5	-0	1.446
Mof_Mg	Mg	0.5	-3.39705e-33	0.5	1.458
Mof_Mg	Mg	-0	0	-0	1.422
Mof_Mg	Mg	0.5	0.5	0.5	1.483
Mof_O 	O 	-2.26026e-33	0.3399	0.081	-0.778
Mof_O 	O 	0.5	0.8399	0.581	-0.488
Mof_O 	O 	1.13678e-33	0.1601	0.081	-0.853
Mof_O 	O 	0.5	0.6601	0.581	-0.571
Mof_O 	O 	1.00562e-32	0.8399	0.919	-0.495
Mof_O 	O 	0.5	0.3399	0.419	-0.663
Mof_O 	O 	1.68503e-32	0.6601	0.919	-0.575
Mof_O 	O 	0.5	0.1601	0.419	-0.739
Mof_C 	C 	1.04236e-33	0.25	0.0544	0.616
Mof_C 	C 	0.5	0.75	0.5544	0.685
Mof_C 	C 	3.35653e-33	0.75	0.9456	0.755
Mof_C 	C 	0.5	0.25	0.4456	0.745
Mof_C 	C 	0.25	0.5015	0.25	0.375
Mof_C 	C 	0.75	0.9985	0.25	0.55
Mof_C 	C 	0.75	0.0015	0.75	0.323
Mof_C 	C 	0.25	0.4985	0.75	0.435
Mof_C 	C 	0.75	0.4985	0.75	0.465
Mof_C 	C 	0.25	0.9985	0.25	0.521
Mof_C 	C 	0.25	0.0015	0.75	0.292
Mof_C 	C 	0.75	0.5015	0.25	0.408
_end
