data_functionalizedCrystal
_audit_creation_method	'EQeq! by Chris Wilmer'
_symmetry_space_group_name_H-M	'P1'
_symmetry_Int_Tables_number	1
_symmetry_cell_setting	triclinic
loop_
_symmetry_equiv_pos_as_xyz
  x,y,z
_cell_length_a	9.6271
_cell_length_b	13.1172
_cell_length_c	10.5726
_cell_angle_alpha	90
_cell_angle_beta	110.084
_cell_angle_gamma	90
loop_
_atom_site_label
_atom_site_type_symbol
_atom_site_fract_x
_atom_site_fract_y
_atom_site_fract_z
_atom_site_charge
Mof_Mn	Mn	0.20533	0.38397	0.36015	0.765
Mof_Mn	Mn	0.25222	0.63431	0.54889	0.87
Mof_C 	C 	0.4361	0.5687	0.4138	0.321
Mof_C 	C 	0.5457	0.5349	0.349	-0.112
Mof_C 	C 	0.4924	0.4811	0.2298	-0.001
Mof_H 	H 	0.3914	0.4697	0.1893	0.021
Mof_C 	C 	0.591	0.444	0.1705	-0.026
Mof_C 	C 	0.7395	0.4645	0.2313	0.009
Mof_H 	H 	0.8057	0.4388	0.1928	0.035
Mof_C 	C 	0.7932	0.5217	0.3477	-0.123
Mof_C 	C 	0.6953	0.5582	0.4077	0.047
Mof_H 	H 	0.7291	0.5975	0.4855	0.029
Mof_C 	C 	0.9584	0.5389	0.4055	0.403
Mof_C 	C 	0.5431	0.3805	0.0462	0.043
Mof_C 	C 	0.4557	0.4214	0.9233	-0.053
Mof_H 	H 	0.4201	0.4876	0.9204	0.066
Mof_C 	C 	0.4204	0.3657	0.8052	-0.07
Mof_C 	C 	0.4693	0.2647	0.8117	-0.03
Mof_H 	H 	0.4433	0.2254	0.7338	0.058
Mof_C 	C 	0.5567	0.2229	0.9339	-0.007
Mof_H 	H 	0.5916	0.1565	0.9369	0.047
Mof_C 	C 	0.5918	0.2788	0.0501	-0.087
Mof_C 	C 	0.3358	0.4123	0.6731	0.375
Mof_C 	C 	0.6871	0.2302	0.1827	0.331
Mof_O 	O 	0.305	0.5338	0.3682	-0.399
Mof_O 	O 	0.4765	0.6295	0.5123	-0.334
Mof_O 	O 	0.2988	0.3554	0.5714	-0.378
Mof_O 	O 	0.3089	0.5054	0.6722	-0.374
Mof_O 	O 	0.6373	0.2294	0.2788	-0.349
Mof_O 	O 	0.8052	0.1918	0.1859	-0.276
Mof_O 	O 	0.0314	0.478	0.3686	-0.413
Mof_O 	O 	0.0104	0.6124	0.4843	-0.377
Mof_Mn	Mn	0.79467	0.88397	0.63985	0.748
Mof_Mn	Mn	0.74778	0.13431	0.45111	0.877
Mof_C 	C 	0.5639	0.0687	0.5862	0.304
Mof_C 	C 	0.4543	0.0349	0.651	-0.054
Mof_C 	C 	0.5076	0.9811	0.7702	-0.069
Mof_H 	H 	0.6086	0.9697	0.8107	0.037
Mof_C 	C 	0.409	0.944	0.8295	0.013
Mof_C 	C 	0.2605	0.9645	0.7687	-0.054
Mof_H 	H 	0.1943	0.9388	0.8072	0.053
Mof_C 	C 	0.2068	0.0217	0.6523	-0.073
Mof_C 	C 	0.3047	0.0582	0.5923	0.006
Mof_H 	H 	0.2709	0.0975	0.5145	0.044
Mof_C 	C 	0.0416	0.0389	0.5945	0.408
Mof_C 	C 	0.4569	0.8805	0.9538	0.028
Mof_C 	C 	0.5443	0.9214	0.0767	-0.052
Mof_H 	H 	0.5799	0.9876	0.0796	0.056
Mof_C 	C 	0.5796	0.8657	0.1948	-0.066
Mof_C 	C 	0.5307	0.7647	0.1883	-0.035
Mof_H 	H 	0.5567	0.7254	0.2662	0.058
Mof_C 	C 	0.4433	0.7229	0.0661	-0.009
Mof_H 	H 	0.4084	0.6565	0.0631	0.042
Mof_C 	C 	0.4082	0.7788	0.9499	-0.084
Mof_C 	C 	0.6642	0.9123	0.3269	0.342
Mof_C 	C 	0.3129	0.7302	0.8173	0.328
Mof_O 	O 	0.695	0.0338	0.6318	-0.38
Mof_O 	O 	0.5235	0.1295	0.4877	-0.327
Mof_O 	O 	0.7012	0.8554	0.4286	-0.372
Mof_O 	O 	0.6911	0.0054	0.3278	-0.347
Mof_O 	O 	0.3627	0.7294	0.7212	-0.351
Mof_O 	O 	0.1948	0.6918	0.8141	-0.28
Mof_O 	O 	0.9686	0.978	0.6314	-0.431
Mof_O 	O 	0.9896	0.1124	0.5157	-0.371
_end
