data_functionalizedCrystal
_audit_creation_method	'EQeq! by Chris Wilmer'
_symmetry_space_group_name_H-M	'P1'
_symmetry_Int_Tables_number	1
_symmetry_cell_setting	triclinic
loop_
_symmetry_equiv_pos_as_xyz
  x,y,z
_cell_length_a	6.3846
_cell_length_b	8.9996
_cell_length_c	16.7722
_cell_angle_alpha	90
_cell_angle_beta	90
_cell_angle_gamma	100.121
loop_
_atom_site_label
_atom_site_type_symbol
_atom_site_fract_x
_atom_site_fract_y
_atom_site_fract_z
_atom_site_charge
Mof_V 	V 	0.72727	0.93374	0.40147	1.721
Mof_V 	V 	0.27273	0.06626	0.59853	1.721
Mof_V 	V 	0.22727	0.43374	0.09853	1.721
Mof_V 	V 	0.77273	0.56626	0.90147	1.721
Mof_P 	P 	0.749	0.99621	0.59238	0.446
Mof_P 	P 	0.251	0.00379	0.40762	0.446
Mof_P 	P 	0.751	0.50379	0.09238	0.45
Mof_P 	P 	0.249	0.49621	0.90762	0.45
Mof_H 	H 	0.9261	0.9769	0.7597	0.136
Mof_H 	H 	0.5739	0.5231	0.2597	0.138
Mof_H 	H 	0.4261	0.4769	0.7403	0.138
Mof_H 	H 	0.3161	0.0279	0.2244	0.143
Mof_H 	H 	0.3326	0.2932	0.8451	0.073
Mof_H 	H 	0.8161	0.5279	0.2756	0.143
Mof_H 	H 	0.0938	0.302	0.8313	0.071
Mof_H 	H 	0.4062	0.198	0.3313	0.072
Mof_H 	H 	0.0739	0.0231	0.2403	0.136
Mof_H 	H 	0.6674	0.7068	0.1549	0.073
Mof_H 	H 	0.6839	0.9721	0.7756	0.143
Mof_H 	H 	0.1839	0.4721	0.7244	0.143
Mof_H 	H 	0.5938	0.802	0.6687	0.072
Mof_H 	H 	0.8326	0.7932	0.6549	0.072
Mof_H 	H 	0.1674	0.2068	0.3451	0.072
Mof_H 	H 	0.9062	0.698	0.1687	0.071
Mof_C 	C 	0.7893	0.8042	0.8114	0.39
Mof_C 	C 	0.7637	0.6389	0.1693	-0.184
Mof_C 	C 	0.2363	0.3611	0.8307	-0.184
Mof_C 	C 	0.2893	0.3042	0.6886	0.39
Mof_C 	C 	0.7122	0.5882	0.2587	-0.373
Mof_C 	C 	0.2637	0.1389	0.3307	-0.184
Mof_C 	C 	0.7878	0.9118	0.7587	-0.373
Mof_C 	C 	0.7107	0.6958	0.3114	0.39
Mof_C 	C 	0.2122	0.0882	0.2413	-0.373
Mof_C 	C 	0.7363	0.8611	0.6693	-0.184
Mof_C 	C 	0.2878	0.4118	0.7413	-0.373
Mof_C 	C 	0.2107	0.1958	0.1886	0.39
Mof_O 	O 	0.4115	0.8998	0.3927	-0.498
Mof_O 	O 	0.7984	0.5982	0.0168	-0.544
Mof_O 	O 	0.6904	0.6742	0.3882	-0.391
Mof_O 	O 	0.4671	0.5953	0.9092	-0.498
Mof_O 	O 	0.773	0.6586	0.7904	-0.496
Mof_O 	O 	0.2984	0.0982	0.4832	-0.545
Mof_O 	O 	0.5329	0.4047	0.0908	-0.498
Mof_O 	O 	0.2016	0.4018	0.9832	-0.544
Mof_O 	O 	0.0329	0.9047	0.4092	-0.494
Mof_O 	O 	0.227	0.3414	0.2096	-0.496
Mof_O 	O 	0.3096	0.3258	0.6118	-0.391
Mof_O 	O 	0.273	0.1586	0.7096	-0.496
Mof_O 	O 	0.8096	0.8258	0.8882	-0.392
Mof_O 	O 	0.1904	0.1742	0.1118	-0.392
Mof_O 	O 	0.7016	0.9018	0.5168	-0.545
Mof_O 	O 	0.0885	0.6002	0.8927	-0.498
Mof_O 	O 	0.9115	0.3998	0.1073	-0.498
Mof_O 	O 	0.9671	0.0953	0.5908	-0.494
Mof_O 	O 	0.5885	0.1002	0.6073	-0.498
Mof_O 	O 	0.727	0.8414	0.2904	-0.496
_end
