data_functionalizedCrystal
_audit_creation_method	'EQeq! by Chris Wilmer'
_symmetry_space_group_name_H-M	'P1'
_symmetry_Int_Tables_number	1
_symmetry_cell_setting	triclinic
loop_
_symmetry_equiv_pos_as_xyz
  x,y,z
_cell_length_a	7.127
_cell_length_b	16.424
_cell_length_c	31.803
_cell_angle_alpha	90
_cell_angle_beta	90
_cell_angle_gamma	99.89
loop_
_atom_site_label
_atom_site_type_symbol
_atom_site_fract_x
_atom_site_fract_y
_atom_site_fract_z
_atom_site_charge
Mof_Co	Co	0.74763	0.60146	0.07068	1.16
Mof_Co	Co	0.27354	0.62514	0.07365	1.15
Mof_Co	Co	0.25237	0.89854	0.57068	1.16
Mof_Co	Co	0.72646	0.87486	0.57365	1.152
Mof_Co	Co	0.25237	0.39854	0.92932	1.157
Mof_Co	Co	0.72646	0.37486	0.92635	1.15
Mof_Co	Co	0.74763	0.10146	0.42932	1.156
Mof_Co	Co	0.27354	0.12514	0.42635	1.15
Mof_Co	Co	-0	0.5	-0	1.149
Mof_Co	Co	1.37667e-32	-1.37667e-32	0.5	1.148
Mof_Co	Co	0.5	0.5	-0	1.142
Mof_Co	Co	0.5	-1.37667e-32	0.5	1.14
Mof_H 	H 	0.8499	0.2321	0.997	0.007
Mof_H 	H 	0.9419	0.1249	0.0333	0.19
Mof_H 	H 	0.7944	0.2185	0.1419	0.282
Mof_H 	H 	0.6728	0.3188	0.105	0.006
Mof_H 	H 	0.439	0.504	0.0775	0.335
Mof_H 	H 	0.79	0.614	0.9972	0.322
Mof_H 	H 	0.6171	0.0345	0.0927	0.176
Mof_H 	H 	0.4658	0.9053	0.0721	0.012
Mof_H 	H 	0.955	0.8251	0.0687	-0.011
Mof_H 	H 	0.1052	0.9527	0.0918	0.208
Mof_H 	H 	0.774	0.6103	0.9011	-0.062
Mof_H 	H 	0.602	0.6576	0.8482	0.297
Mof_H 	H 	0.8959	0.5552	0.7621	0.311
Mof_H 	H 	0.0739	0.5119	0.8149	-0.021
Mof_H 	H 	0.9377	0.7318	0.7638	0.233
Mof_H 	H 	0.1219	0.801	0.7109	0.103
Mof_H 	H 	0.7397	0.7028	0.6255	-0.003
Mof_H 	H 	0.564	0.6296	0.6779	0.243
Mof_H 	H 	0.1501	0.2679	0.497	-0.059
Mof_H 	H 	0.0581	0.3751	0.5333	0.229
Mof_H 	H 	0.2056	0.2815	0.6419	0.305
Mof_H 	H 	0.3272	0.1812	0.605	-0.02
Mof_H 	H 	0.561	0.996	0.5775	0.346
Mof_H 	H 	0.21	0.886	0.4972	0.284
Mof_H 	H 	0.3829	0.4655	0.5927	0.309
Mof_H 	H 	0.5342	0.5947	0.5721	-0.08
Mof_H 	H 	0.045	0.6749	0.5687	-0.106
Mof_H 	H 	0.8948	0.5473	0.5918	0.333
Mof_H 	H 	0.226	0.8897	0.4011	-0.071
Mof_H 	H 	0.398	0.8424	0.3482	0.303
Mof_H 	H 	0.1041	0.9448	0.2621	0.305
Mof_H 	H 	0.9261	0.9881	0.3149	0.014
Mof_H 	H 	0.0623	0.7682	0.2638	0.28
Mof_H 	H 	0.8781	0.699	0.2109	0.035
Mof_H 	H 	0.2603	0.7972	0.1255	-0.052
Mof_H 	H 	0.436	0.8704	0.1779	0.285
Mof_H 	H 	0.1501	0.7679	0.003	-0.116
Mof_H 	H 	0.0581	0.8751	0.9667	0.266
Mof_H 	H 	0.2056	0.7815	0.8581	0.325
Mof_H 	H 	0.3272	0.6812	0.895	-0.04
Mof_H 	H 	0.561	0.496	0.9225	0.334
Mof_H 	H 	0.21	0.386	0.0028	0.254
Mof_H 	H 	0.3829	0.9655	0.9073	0.406
Mof_H 	H 	0.5342	0.0947	0.9279	-0.141
Mof_H 	H 	0.045	0.1749	0.9313	-0.15
Mof_H 	H 	0.8948	0.0473	0.9082	0.383
Mof_H 	H 	0.226	0.3897	0.0989	-0.072
Mof_H 	H 	0.398	0.3424	0.1518	0.299
Mof_H 	H 	0.1041	0.4448	0.2379	0.3
Mof_H 	H 	0.9261	0.4881	0.1851	0.009
Mof_H 	H 	0.0623	0.2682	0.2362	0.277
Mof_H 	H 	0.8781	0.199	0.2891	0.036
Mof_H 	H 	0.2603	0.2972	0.3745	-0.047
Mof_H 	H 	0.436	0.3704	0.3221	0.279
Mof_H 	H 	0.8499	0.7321	0.503	-0.052
Mof_H 	H 	0.9419	0.6249	0.4667	0.232
Mof_H 	H 	0.7944	0.7185	0.3581	0.305
Mof_H 	H 	0.6728	0.8188	0.395	-0.016
Mof_H 	H 	0.439	0.004	0.4225	0.323
Mof_H 	H 	0.79	0.114	0.5028	0.291
Mof_H 	H 	0.6171	0.5345	0.4073	0.29
Mof_H 	H 	0.4658	0.4053	0.4279	-0.062
Mof_H 	H 	0.955	0.3251	0.4313	-0.069
Mof_H 	H 	0.1052	0.4527	0.4082	0.276
Mof_H 	H 	0.774	0.1103	0.5989	-0.064
Mof_H 	H 	0.602	0.1576	0.6518	0.294
Mof_H 	H 	0.8959	0.0552	0.7379	0.303
Mof_H 	H 	0.0739	0.0119	0.6851	-0.018
Mof_H 	H 	0.9377	0.2318	0.7362	0.238
Mof_H 	H 	0.1219	0.301	0.7891	0.093
Mof_H 	H 	0.7397	0.2028	0.8745	-0.006
Mof_H 	H 	0.564	0.1296	0.8221	0.244
Mof_C 	C 	0.6937	0.3568	0.02384	0.404
Mof_C 	C 	0.751	0.2864	0.0473	-0.233
Mof_C 	C 	0.8343	0.2284	0.02596	0.185
Mof_C 	C 	0.8936	0.1654	0.0479	-0.318
Mof_C 	C 	0.8825	0.1613	0.0917	0.424
Mof_C 	C 	0.8019	0.22	0.11274	-0.338
Mof_C 	C 	0.732	0.2813	0.09071	0.262
Mof_C 	C 	0.9658	0.092	0.11321	-0.532
Mof_C 	C 	0.929	0.0867	0.16117	1.007
Mof_C 	C 	0.1808	0.1118	0.10688	0.997
Mof_C 	C 	0.878	0.0067	0.09518	0.322
Mof_C 	C 	0.6849	0.9921	0.08861	-0.201
Mof_C 	C 	0.5944	0.9147	0.076	0.19
Mof_C 	C 	0.6932	0.8514	0.06918	-0.205
Mof_C 	C 	0.8865	0.8666	0.07429	0.198
Mof_C 	C 	0.9767	0.9435	0.08775	-0.251
Mof_C 	C 	0.5985	0.7646	0.05874	0.44
Mof_C 	C 	0.0397	0.5175	0.89734	0.404
Mof_C 	C 	0.9384	0.5543	0.86355	-0.315
Mof_C 	C 	0.7982	0.5992	0.87323	0.33
Mof_C 	C 	0.6948	0.6274	0.84153	-0.425
Mof_C 	C 	0.7291	0.6106	0.79966	0.517
Mof_C 	C 	0.8717	0.5666	0.79002	-0.442
Mof_C 	C 	0.977	0.5397	0.82167	0.396
Mof_C 	C 	0.6088	0.6341	0.76321	-0.578
Mof_C 	C 	0.4889	0.6992	0.7761	1.012
Mof_C 	C 	0.4756	0.5538	0.7499	1.022
Mof_C 	C 	0.7309	0.6731	0.72642	0.411
Mof_C 	C 	0.8987	0.7254	0.73596	-0.217
Mof_C 	C 	0.0083	0.768	0.70435	0.124
Mof_C 	C 	0.9465	0.7608	0.66298	-0.12
Mof_C 	C 	0.78	0.7085	0.65323	0.183
Mof_C 	C 	0.6742	0.6648	0.6847	-0.282
Mof_C 	C 	0.0565	0.8106	0.6294	0.345
Mof_C 	C 	0.3063	0.1432	0.52384	0.463
Mof_C 	C 	0.249	0.2136	0.5473	-0.309
Mof_C 	C 	0.1657	0.2716	0.52596	0.312
Mof_C 	C 	0.1064	0.3346	0.5479	-0.419
Mof_C 	C 	0.1175	0.3387	0.5917	0.499
Mof_C 	C 	0.1981	0.28	0.61274	-0.413
Mof_C 	C 	0.268	0.2187	0.59071	0.33
Mof_C 	C 	0.0342	0.408	0.61321	-0.646
Mof_C 	C 	0.071	0.4133	0.66117	1.018
Mof_C 	C 	0.8192	0.3882	0.60688	1.041
Mof_C 	C 	0.122	0.4933	0.59518	0.595
Mof_C 	C 	0.3151	0.5079	0.58861	-0.527
Mof_C 	C 	0.4056	0.5853	0.576	0.436
Mof_C 	C 	0.3068	0.6486	0.56918	-0.387
Mof_C 	C 	0.1135	0.6334	0.57429	0.441
Mof_C 	C 	0.0233	0.5565	0.58775	-0.579
Mof_C 	C 	0.4015	0.7354	0.55874	0.508
Mof_C 	C 	0.9603	0.9825	0.39734	0.498
Mof_C 	C 	0.0616	0.9457	0.36355	-0.35
Mof_C 	C 	0.2018	0.9008	0.37323	0.356
Mof_C 	C 	0.3052	0.8726	0.34153	-0.44
Mof_C 	C 	0.2709	0.8894	0.29966	0.526
Mof_C 	C 	0.1283	0.9334	0.29002	-0.431
Mof_C 	C 	0.023	0.9603	0.32167	0.362
Mof_C 	C 	0.3912	0.8659	0.26321	-0.606
Mof_C 	C 	0.5111	0.8008	0.2761	1.019
Mof_C 	C 	0.5244	0.9462	0.2499	1.029
Mof_C 	C 	0.2691	0.8269	0.22642	0.501
Mof_C 	C 	0.1013	0.7746	0.23596	-0.372
Mof_C 	C 	0.9917	0.732	0.20435	0.321
Mof_C 	C 	0.0535	0.7392	0.16298	-0.287
Mof_C 	C 	0.22	0.7915	0.15323	0.312
Mof_C 	C 	0.3258	0.8352	0.1847	-0.393
Mof_C 	C 	0.9435	0.6894	0.1294	0.451
Mof_C 	C 	0.3063	0.6432	0.97616	0.515
Mof_C 	C 	0.249	0.7136	0.9527	-0.371
Mof_C 	C 	0.1657	0.7716	0.97404	0.425
Mof_C 	C 	0.1064	0.8346	0.9521	-0.501
Mof_C 	C 	0.1175	0.8387	0.9083	0.559
Mof_C 	C 	0.1981	0.78	0.88726	-0.471
Mof_C 	C 	0.268	0.7187	0.90929	0.388
Mof_C 	C 	0.0342	0.908	0.88679	-0.712
Mof_C 	C 	0.071	0.9133	0.83883	1.033
Mof_C 	C 	0.8192	0.8882	0.89312	1.06
Mof_C 	C 	0.122	0.9933	0.90482	0.773
Mof_C 	C 	0.3151	0.0079	0.91139	-0.757
Mof_C 	C 	0.4056	0.0853	0.924	0.6
Mof_C 	C 	0.3068	0.1486	0.93082	-0.494
Mof_C 	C 	0.1135	0.1334	0.92571	0.574
Mof_C 	C 	0.0233	0.0565	0.91225	-0.745
Mof_C 	C 	0.4015	0.2354	0.94126	0.549
Mof_C 	C 	0.9603	0.4825	0.10266	0.458
Mof_C 	C 	0.0616	0.4457	0.13645	-0.338
Mof_C 	C 	0.2018	0.4008	0.12677	0.342
Mof_C 	C 	0.3052	0.3726	0.15847	-0.434
Mof_C 	C 	0.2709	0.3894	0.20034	0.52
Mof_C 	C 	0.1283	0.4334	0.20998	-0.428
Mof_C 	C 	0.023	0.4603	0.17833	0.354
Mof_C 	C 	0.3912	0.3659	0.23679	-0.604
Mof_C 	C 	0.5111	0.3008	0.2239	1.019
Mof_C 	C 	0.5244	0.4462	0.2501	1.029
Mof_C 	C 	0.2691	0.3269	0.27358	0.493
Mof_C 	C 	0.1013	0.2746	0.26404	-0.363
Mof_C 	C 	0.9917	0.232	0.29565	0.306
Mof_C 	C 	0.0535	0.2392	0.33702	-0.279
Mof_C 	C 	0.22	0.2915	0.34677	0.3
Mof_C 	C 	0.3258	0.3352	0.3153	-0.386
Mof_C 	C 	0.9435	0.1894	0.3706	0.443
Mof_C 	C 	0.6937	0.8568	0.47616	0.459
Mof_C 	C 	0.751	0.7864	0.4527	-0.299
Mof_C 	C 	0.8343	0.7284	0.47404	0.307
Mof_C 	C 	0.8936	0.6654	0.4521	-0.406
Mof_C 	C 	0.8825	0.6613	0.4083	0.491
Mof_C 	C 	0.8019	0.72	0.38726	-0.402
Mof_C 	C 	0.732	0.7813	0.40929	0.325
Mof_C 	C 	0.9658	0.592	0.38679	-0.608
Mof_C 	C 	0.929	0.5867	0.33883	1.028
Mof_C 	C 	0.1808	0.6118	0.39312	1.016
Mof_C 	C 	0.878	0.5067	0.40482	0.538
Mof_C 	C 	0.6849	0.4921	0.41139	-0.475
Mof_C 	C 	0.5944	0.4147	0.424	0.387
Mof_C 	C 	0.6932	0.3514	0.43082	-0.339
Mof_C 	C 	0.8865	0.3666	0.42571	0.367
Mof_C 	C 	0.9767	0.4435	0.41225	-0.465
Mof_C 	C 	0.5985	0.2646	0.44126	0.491
Mof_C 	C 	0.0397	0.0175	0.60266	0.369
Mof_C 	C 	0.9384	0.0543	0.63645	-0.305
Mof_C 	C 	0.7982	0.0992	0.62677	0.316
Mof_C 	C 	0.6948	0.1274	0.65847	-0.419
Mof_C 	C 	0.7291	0.1106	0.70034	0.51
Mof_C 	C 	0.8717	0.0666	0.70998	-0.433
Mof_C 	C 	0.977	0.0397	0.67833	0.378
Mof_C 	C 	0.6088	0.1341	0.73679	-0.579
Mof_C 	C 	0.4889	0.1992	0.7239	1.013
Mof_C 	C 	0.4756	0.0538	0.7501	1.024
Mof_C 	C 	0.7309	0.1731	0.77358	0.417
Mof_C 	C 	0.8987	0.2254	0.76404	-0.233
Mof_C 	C 	0.0083	0.268	0.79565	0.141
Mof_C 	C 	0.9465	0.2608	0.83702	-0.138
Mof_C 	C 	0.78	0.2085	0.84677	0.192
Mof_C 	C 	0.6742	0.1648	0.8153	-0.293
Mof_C 	C 	0.0565	0.3106	0.8706	0.355
Mof_O 	O 	0.5604	0.38861	0.03535	-0.429
Mof_O 	O 	0.7995	0.38344	0.9924	-0.527
Mof_O 	O 	0.6976	0.71536	0.04534	-0.455
Mof_O 	O 	0.4237	0.74728	0.06543	-0.428
Mof_O 	O 	0.9476	0.49724	0.93134	-0.523
Mof_O 	O 	0.2004	0.50357	0.89112	-0.397
Mof_O 	O 	0.2295	0.8322	0.63384	-0.333
Mof_O 	O 	0.9737	0.83087	0.59687	-0.483
Mof_O 	O 	0.4672	0.54652	0.06413	-0.834
Mof_O 	O 	0.7808	0.5656	0.00767	-0.813
Mof_O 	O 	0.4396	0.11139	0.53535	-0.447
Mof_O 	O 	0.2005	0.11656	0.4924	-0.57
Mof_O 	O 	0.3024	0.78464	0.54534	-0.469
Mof_O 	O 	0.5763	0.75272	0.56543	-0.444
Mof_O 	O 	0.0524	0.00276	0.43134	-0.59
Mof_O 	O 	0.7996	0.99643	0.39112	-0.402
Mof_O 	O 	0.7705	0.6678	0.13384	-0.362
Mof_O 	O 	0.0263	0.66913	0.09687	-0.537
Mof_O 	O 	0.5328	0.95348	0.56413	-0.827
Mof_O 	O 	0.2192	0.9344	0.50767	-0.766
Mof_O 	O 	0.4396	0.61139	0.96465	-0.447
Mof_O 	O 	0.2005	0.61656	0.0076	-0.597
Mof_O 	O 	0.3024	0.28464	0.95466	-0.472
Mof_O 	O 	0.5763	0.25272	0.93457	-0.452
Mof_O 	O 	0.0524	0.50276	0.06866	-0.559
Mof_O 	O 	0.7996	0.49643	0.10888	-0.408
Mof_O 	O 	0.7705	0.1678	0.36616	-0.368
Mof_O 	O 	0.0263	0.16913	0.40313	-0.536
Mof_O 	O 	0.5328	0.45348	0.93587	-0.826
Mof_O 	O 	0.2192	0.4344	0.99233	-0.741
Mof_O 	O 	0.5604	0.88861	0.46465	-0.429
Mof_O 	O 	0.7995	0.88344	0.5076	-0.554
Mof_O 	O 	0.6976	0.21536	0.45466	-0.461
Mof_O 	O 	0.4237	0.24728	0.43457	-0.439
Mof_O 	O 	0.9476	0.99724	0.56866	-0.492
Mof_O 	O 	0.2004	0.00357	0.60888	-0.402
Mof_O 	O 	0.2295	0.3322	0.86616	-0.341
Mof_O 	O 	0.9737	0.33087	0.90313	-0.489
Mof_O 	O 	0.4672	0.04652	0.43587	-0.832
Mof_O 	O 	0.7808	0.0656	0.49233	-0.788
Mof_F 	F 	0.0178	0.15386	0.18152	-0.443
Mof_F 	F 	0.7463	0.08102	0.16933	-0.449
Mof_F 	F 	0.9832	0.02122	0.17819	-0.446
Mof_F 	F 	0.2464	0.19167	0.11516	-0.469
Mof_F 	F 	0.2749	0.06762	0.13156	-0.45
Mof_F 	F 	0.2291	0.09837	0.06743	-0.542
Mof_F 	F 	0.5917	0.76395	0.79466	-0.437
Mof_F 	F 	0.3505	0.66866	0.80292	-0.493
Mof_F 	F 	0.4064	0.72791	0.74302	-0.465
Mof_F 	F 	0.3334	0.56797	0.72645	-0.453
Mof_F 	F 	0.5683	0.5043	0.72834	-0.438
Mof_F 	F 	0.4028	0.51114	0.78352	-0.474
Mof_F 	F 	0.9822	0.34614	0.68152	-0.427
Mof_F 	F 	0.2537	0.41898	0.66933	-0.447
Mof_F 	F 	0.0168	0.47878	0.67819	-0.445
Mof_F 	F 	0.7536	0.30833	0.61516	-0.471
Mof_F 	F 	0.7251	0.43238	0.63156	-0.45
Mof_F 	F 	0.7709	0.40163	0.56743	-0.539
Mof_F 	F 	0.4083	0.73605	0.29466	-0.441
Mof_F 	F 	0.6495	0.83134	0.30292	-0.489
Mof_F 	F 	0.5936	0.77209	0.24302	-0.465
Mof_F 	F 	0.6666	0.93203	0.22645	-0.445
Mof_F 	F 	0.4317	0.9957	0.22834	-0.43
Mof_F 	F 	0.5972	0.98886	0.28352	-0.465
Mof_F 	F 	0.9822	0.84614	0.81848	-0.426
Mof_F 	F 	0.2537	0.91898	0.83067	-0.444
Mof_F 	F 	0.0168	0.97878	0.82181	-0.437
Mof_F 	F 	0.7536	0.80833	0.88484	-0.473
Mof_F 	F 	0.7251	0.93238	0.86844	-0.448
Mof_F 	F 	0.7709	0.90163	0.93257	-0.535
Mof_F 	F 	0.4083	0.23605	0.20534	-0.443
Mof_F 	F 	0.6495	0.33134	0.19708	-0.49
Mof_F 	F 	0.5936	0.27209	0.25698	-0.467
Mof_F 	F 	0.6666	0.43203	0.27355	-0.452
Mof_F 	F 	0.4317	0.4957	0.27166	-0.441
Mof_F 	F 	0.5972	0.48886	0.21648	-0.473
Mof_F 	F 	0.0178	0.65386	0.31848	-0.446
Mof_F 	F 	0.7463	0.58102	0.33067	-0.447
Mof_F 	F 	0.9832	0.52122	0.32181	-0.436
Mof_F 	F 	0.2464	0.69167	0.38484	-0.472
Mof_F 	F 	0.2749	0.56762	0.36844	-0.449
Mof_F 	F 	0.2291	0.59837	0.43257	-0.54
Mof_F 	F 	0.5917	0.26395	0.70534	-0.439
Mof_F 	F 	0.3505	0.16866	0.69708	-0.493
Mof_F 	F 	0.4064	0.22791	0.75698	-0.467
Mof_F 	F 	0.3334	0.06797	0.77355	-0.458
Mof_F 	F 	0.5683	0.0043	0.77166	-0.448
Mof_F 	F 	0.4028	0.01114	0.71648	-0.482
_end
