data_functionalizedCrystal
_audit_creation_method	'EQeq! by Chris Wilmer'
_symmetry_space_group_name_H-M	'P1'
_symmetry_Int_Tables_number	1
_symmetry_cell_setting	triclinic
loop_
_symmetry_equiv_pos_as_xyz
  x,y,z
_cell_length_a	8.4974
_cell_length_b	8.4974
_cell_length_c	19.8054
_cell_angle_alpha	89.9989
_cell_angle_beta	90.0049
_cell_angle_gamma	90.0044
loop_
_atom_site_label
_atom_site_type_symbol
_atom_site_fract_x
_atom_site_fract_y
_atom_site_fract_z
_atom_site_charge
Mof_Zn	Zn	0.89222	0.62832	0.03476	1.208
Mof_Zn	Zn	0.62849	0.89207	0.03475	1.207
Mof_Zn	Zn	0.62844	0.62829	0.9216	1.216
Mof_Zn	Zn	0.89221	0.89205	0.92158	1.194
Mof_O 	O 	0.76034	0.76018	0.97817	-0.981
Mof_O 	O 	0.85727	0.66332	0.12947	-0.471
Mof_O 	O 	0.40772	0.85707	0.01974	-0.441
Mof_O 	O 	0.66342	0.40753	0.93662	-0.432
Mof_O 	O 	0.6635	0.8571	0.12947	-0.471
Mof_O 	O 	0.85722	0.40755	0.01975	-0.439
Mof_O 	O 	0.40768	0.66328	0.93661	-0.434
Mof_O 	O 	0.6634	0.66326	0.82688	-0.476
Mof_O 	O 	0.11297	0.85707	0.93659	-0.407
Mof_O 	O 	0.85719	0.85704	0.82687	-0.456
Mof_O 	O 	0.11298	0.6633	0.01974	-0.386
Mof_O 	O 	0.66349	0.11283	0.01973	-0.388
Mof_O 	O 	0.85724	0.11281	0.93659	-0.409
Mof_C 	C 	0.76029	0.76015	0.80232	0.384
Mof_C 	C 	0.7603	0.76018	0.72709	-0.082
Mof_C 	C 	0.86105	0.86123	0.69175	0.216
Mof_C 	C 	0.86107	0.86123	0.62106	0.227
Mof_C 	C 	0.76034	0.76019	0.58571	-0.084
Mof_C 	C 	0.65959	0.65912	0.62105	0.302
Mof_C 	C 	0.65958	0.65912	0.69173	-0.049
Mof_C 	C 	0.65964	0.65916	0.33597	0.304
Mof_C 	C 	0.65966	0.65918	0.26528	-0.047
Mof_C 	C 	0.86114	0.86128	0.2653	0.216
Mof_C 	C 	0.86112	0.86127	0.33599	0.23
Mof_C 	C 	0.76038	0.7602	0.37132	-0.084
Mof_C 	C 	0.76036	0.76019	0.44797	0.134
Mof_C 	C 	0.76035	0.7602	0.50906	0.134
Mof_C 	C 	0.35046	0.76021	0.97818	0.278
Mof_C 	C 	0.17182	0.7602	0.97817	0.267
Mof_C 	C 	0.76036	0.17006	0.97817	0.27
Mof_C 	C 	0.76034	0.34871	0.97818	0.276
Mof_C 	C 	0.76039	0.76021	0.15472	0.394
Mof_C 	C 	0.76041	0.76023	0.22995	-0.079
Mof_H 	H 	0.57755	0.57682	0.7205	0.13
Mof_F 	F 	0.96825	0.96878	0.72937	-0.372
Mof_F 	F 	0.96836	0.96884	0.2277	-0.383
Mof_F 	F 	0.55243	0.55159	0.37357	-0.325
Mof_F 	F 	0.5524	0.55158	0.58342	-0.326
Mof_F 	F 	0.9683	0.96879	0.58346	-0.342
Mof_H 	H 	0.57763	0.57689	0.2365	0.118
Mof_F 	F 	0.96833	0.96882	0.37362	-0.341
_end
