data_functionalizedCrystal
_audit_creation_method	'EQeq! by Chris Wilmer'
_symmetry_space_group_name_H-M	'P1'
_symmetry_Int_Tables_number	1
_symmetry_cell_setting	triclinic
loop_
_symmetry_equiv_pos_as_xyz
  x,y,z
_cell_length_a	11.378
_cell_length_b	12.184
_cell_length_c	23.328
_cell_angle_alpha	83.715
_cell_angle_beta	81.99
_cell_angle_gamma	70.714
loop_
_atom_site_label
_atom_site_type_symbol
_atom_site_fract_x
_atom_site_fract_y
_atom_site_fract_z
_atom_site_charge
Mof_Eu	Eu	0.26236	0.7337	0.25992	2.088
Mof_Eu	Eu	0.73764	0.2663	0.74008	2.088
Mof_Cu	Cu	0.89154	0.75676	0.74514	0.898
Mof_Cu	Cu	0.30816	0.86919	0.02764	0.887
Mof_Cu	Cu	0.10846	0.24324	0.25486	0.897
Mof_Cu	Cu	0.69184	0.13081	0.97236	0.886
Mof_Cu	Cu	0.5	0.5	0.5	0.83
Mof_Si	Si	0.1278	0.2133	0.7622	2.09
Mof_Si	Si	0.8722	0.7867	0.2378	2.09
Mof_H 	H 	0.2529	0.4666	0.4634	-0.027
Mof_H 	H 	0.2488	0.563	0.5838	-0.037
Mof_H 	H 	0.5339	0.881	0.9334	-0.014
Mof_H 	H 	0.8915	0.7481	0.9896	0.08
Mof_H 	H 	0.7152	0.7679	0.8505	0.028
Mof_H 	H 	0.3936	0.6476	0.9448	0.018
Mof_H 	H 	0.9285	0.2506	0.1737	0.035
Mof_H 	H 	0.087	0.3194	0.4932	0.083
Mof_H 	H 	0.3195	0.7217	0.4339	-0.046
Mof_H 	H 	0.91	0.2082	0.5396	0.025
Mof_H 	H 	0.6805	0.2783	0.5661	-0.046
Mof_H 	H 	0.746	0.3871	0.1129	0.003
Mof_H 	H 	0.9379	0.1367	0.0125	0.002
Mof_H 	H 	0.073	0.7387	0.6385	0.042
Mof_H 	H 	0.4661	0.119	0.0666	-0.014
Mof_H 	H 	0.2779	0.2621	0.3363	0.027
Mof_H 	H 	0.927	0.2613	0.3615	0.042
Mof_H 	H 	0.7512	0.437	0.4162	-0.037
Mof_H 	H 	0.2463	0.3839	0.9781	0.011
Mof_H 	H 	0.09	0.7918	0.4604	0.025
Mof_H 	H 	0.4504	0.1449	0.4176	0.018
Mof_H 	H 	0.4152	0.7607	0.5458	0.006
Mof_H 	H 	0.4714	0.3556	0.9362	0.01
Mof_H 	H 	0.2848	0.2321	0.1495	0.028
Mof_H 	H 	0.254	0.6129	0.8871	0.003
Mof_H 	H 	0.913	0.6806	0.5068	0.083
Mof_H 	H 	0.7471	0.5334	0.5366	-0.027
Mof_H 	H 	0.6064	0.3524	0.0552	0.018
Mof_H 	H 	0.7221	0.7379	0.6637	0.027
Mof_H 	H 	0.0621	0.8633	0.9875	0.002
Mof_H 	H 	0.1085	0.2519	0.0104	0.08
Mof_H 	H 	0.0715	0.7494	0.8263	0.035
Mof_H 	H 	0.7537	0.6161	0.0219	0.011
Mof_H 	H 	0.5286	0.6444	0.0638	0.01
Mof_H 	H 	0.5496	0.8551	0.5824	0.018
Mof_H 	H 	0.5848	0.2393	0.4542	0.006
Mof_W 	W 	0.43794	0.16621	0.78313	1.348
Mof_W 	W 	0.91159	0.4905	0.76447	1.339
Mof_W 	W 	0.78866	0.53435	0.21813	1.044
Mof_W 	W 	0.2579	0.07524	0.89223	1.339
Mof_W 	W 	0.92837	0.11757	0.86702	1.36
Mof_W 	W 	0.23462	0.07867	0.63081	1.058
Mof_W 	W 	0.35086	0.93184	0.76909	1.037
Mof_W 	W 	0.98256	0.01434	0.25484	1.354
Mof_W 	W 	0.01103	0.34321	0.63086	1.085
Mof_W 	W 	0.97035	0.62909	0.11102	1.057
Mof_W 	W 	0.01744	0.98566	0.74516	1.354
Mof_W 	W 	0.21134	0.46565	0.78187	1.044
Mof_W 	W 	0.7421	0.92476	0.10777	1.339
Mof_W 	W 	0.98897	0.65679	0.36914	1.085
Mof_W 	W 	0.31633	0.3138	0.64534	1.002
Mof_W 	W 	0.56206	0.83379	0.21687	1.348
Mof_W 	W 	0.02965	0.37091	0.88898	1.057
Mof_W 	W 	0.08841	0.5095	0.23553	1.339
Mof_W 	W 	0.07163	0.88243	0.13298	1.36
Mof_W 	W 	0.68367	0.6862	0.35466	1.002
Mof_W 	W 	0.76538	0.92133	0.36919	1.058
Mof_W 	W 	0.64914	0.06816	0.23091	1.037
Mof_C 	C 	0.309	0.69	0.9448	-0.017
Mof_C 	C 	0.4998	0.2747	0.451	-0.013
Mof_C 	C 	0.572	0.78	0.5695	-0.019
Mof_C 	C 	0.5586	0.689	0.0343	-0.034
Mof_C 	C 	0.9955	0.2722	0.3748	-0.05
Mof_C 	C 	0.7888	0.7605	0.925	0.098
Mof_C 	C 	0.2013	0.2924	0.4174	0.09
Mof_C 	C 	0.0006	0.7493	0.8515	-0.023
Mof_C 	C 	0.6826	0.6719	0.0092	0.036
Mof_C 	C 	0.9994	0.2507	0.1485	-0.023
Mof_C 	C 	0.233	0.668	0.9148	0.015
Mof_C 	C 	0.0015	0.7456	0.9102	0.095
Mof_C 	C 	0.7888	0.7613	0.8656	-0.026
Mof_C 	C 	0.724	0.3038	0.5335	0.001
Mof_C 	C 	0.3174	0.3281	0.9908	0.036
Mof_C 	C 	0.8508	0.2621	0.5182	-0.026
Mof_C 	C 	0.2043	0.2703	0.361	-0.048
Mof_C 	C 	0.6796	0.6005	0.5439	0.077
Mof_C 	C 	0.767	0.332	0.0852	0.015
Mof_C 	C 	0.871	0.1928	0.0311	0.121
Mof_C 	C 	0.5596	0.821	0.9618	0.129
Mof_C 	C 	0.9985	0.2544	0.0898	0.095
Mof_C 	C 	0.7618	0.391	0.4509	0.095
Mof_C 	C 	0.691	0.31	0.0552	-0.017
Mof_C 	C 	0.9086	0.6933	0.5457	-0.165
Mof_C 	C 	0.129	0.8072	0.9689	0.121
Mof_C 	C 	0.0101	0.6986	0.5691	0.1
Mof_C 	C 	0.1085	0.249	0.0504	-0.147
Mof_C 	C 	0.7957	0.7297	0.639	-0.048
Mof_C 	C 	0.2112	0.2395	0.075	0.098
Mof_C 	C 	0.4414	0.311	0.9657	-0.034
Mof_C 	C 	0.4404	0.179	0.0382	0.129
Mof_C 	C 	0.2112	0.2387	0.1344	-0.026
Mof_C 	C 	0.7987	0.7076	0.5826	0.09
Mof_C 	C 	0.1492	0.7379	0.4818	-0.026
Mof_C 	C 	0.0914	0.3067	0.4543	-0.165
Mof_C 	C 	0.3204	0.3995	0.4561	0.077
Mof_C 	C 	0.9899	0.3014	0.4309	0.1
Mof_C 	C 	0.5002	0.7253	0.549	-0.013
Mof_C 	C 	0.2382	0.609	0.5491	0.095
Mof_C 	C 	0.276	0.6962	0.4665	0.001
Mof_C 	C 	0.428	0.22	0.4305	-0.019
Mof_C 	C 	0.0045	0.7278	0.6252	-0.05
Mof_C 	C 	0.8915	0.751	0.9496	-0.147
Mof_N 	N 	0.8721	0.3155	0.4656	-0.144
Mof_N 	N 	0.5645	0.6135	0.5337	-0.245
Mof_N 	N 	0.4887	0.7956	0.0025	-0.235
Mof_N 	N 	0.4355	0.3865	0.4663	-0.245
Mof_N 	N 	0.8955	0.7402	0.6603	-0.181
Mof_N 	N 	0.1089	0.247	0.1694	-0.185
Mof_N 	N 	0.7537	0.2132	0.0226	-0.225
Mof_N 	N 	0.1279	0.6845	0.5344	-0.144
Mof_N 	N 	0.6891	0.6941	0.5658	-0.146
Mof_N 	N 	0.1045	0.2598	0.3397	-0.181
Mof_N 	N 	0.3194	0.2505	0.0362	-0.149
Mof_N 	N 	0.3281	0.61	0.5075	-0.256
Mof_N 	N 	0.6806	0.7495	0.9638	-0.149
Mof_N 	N 	0.8838	0.2594	0.0684	-0.15
Mof_N 	N 	0.3109	0.3059	0.4342	-0.146
Mof_N 	N 	0.6719	0.39	0.4925	-0.256
Mof_N 	N 	0.2463	0.7868	0.9774	-0.225
Mof_N 	N 	0.5113	0.2044	0.9975	-0.235
Mof_N 	N 	0.1162	0.7406	0.9316	-0.15
Mof_N 	N 	0.8911	0.753	0.8306	-0.185
Mof_O 	O 	0.9693	0.9785	0.8283	-0.472
Mof_O 	O 	0.0834	0.3434	0.7879	-0.792
Mof_O 	O 	0.0918	0.51	0.1517	-0.464
Mof_O 	O 	0.3339	0.9988	0.6897	-0.474
Mof_O 	O 	0.012	0.8472	0.7317	-0.523
Mof_O 	O 	0.1709	0.2348	0.9032	-0.49
Mof_O 	O 	0.6602	0.6791	0.1987	-0.52
Mof_O 	O 	0.6582	0.0641	0.1475	-0.463
Mof_O 	O 	0.1364	0.931	0.066	-0.514
Mof_O 	O 	0.3398	0.3209	0.8013	-0.52
Mof_O 	O 	0.8923	0.9467	0.1109	-0.488
Mof_O 	O 	0.5861	0.79	0.2949	-0.526
Mof_O 	O 	0.9787	0.459	0.6872	-0.506
Mof_O 	O 	0.8291	0.7652	0.0968	-0.49
Mof_O 	O 	0.1951	0.926	0.7701	-0.489
Mof_O 	O 	0.8162	0.4036	0.7687	-0.674
Mof_O 	O 	0.1759	0.3821	0.6103	-0.445
Mof_O 	O 	0.1451	0.4529	0.8619	-0.451
Mof_O 	O 	0.84	0.7733	0.3069	-0.783
Mof_O 	O 	0.3454	0.1714	0.6095	-0.443
Mof_O 	O 	0.8241	0.6179	0.3897	-0.445
Mof_O 	O 	0.1037	0.0282	0.6754	-0.5
Mof_O 	O 	0.9082	0.49	0.8483	-0.464
Mof_O 	O 	0.1029	0.7128	0.3323	-0.64
Mof_O 	O 	0.1949	0.3685	0.2438	-0.524
Mof_O 	O 	0.4101	0.8306	0.2184	-0.642
Mof_O 	O 	0.107	0.2017	0.5939	-0.449
Mof_O 	O 	0.1355	0.9307	0.2693	-0.612
Mof_O 	O 	0.8049	0.074	0.2299	-0.489
Mof_O 	O 	0.988	0.1528	0.2683	-0.523
Mof_O 	O 	0.0209	0.1483	0.7783	-0.827
Mof_O 	O 	0.6661	0.0012	0.3103	-0.474
Mof_O 	O 	0.5198	0.9952	0.2337	-0.458
Mof_O 	O 	0.8636	0.069	0.934	-0.514
Mof_O 	O 	0.0307	0.0215	0.1717	-0.472
Mof_O 	O 	0.5899	0.1694	0.7816	-0.642
Mof_O 	O 	0.9791	0.8517	0.2217	-0.827
Mof_O 	O 	0.4802	0.0048	0.7663	-0.458
Mof_O 	O 	0.7074	0.9788	0.0387	-0.48
Mof_O 	O 	0.7409	0.5768	0.2953	-0.499
Mof_O 	O 	0.2926	0.0212	0.9613	-0.48
Mof_O 	O 	0.893	0.7983	0.4061	-0.449
Mof_O 	O 	0.3418	0.9359	0.8525	-0.463
Mof_O 	O 	0.1838	0.5964	0.2313	-0.674
Mof_O 	O 	0.789	0.1879	0.8346	-0.614
Mof_O 	O 	0.8549	0.5471	0.1381	-0.451
Mof_O 	O 	0.16	0.2267	0.6931	-0.783
Mof_O 	O 	0.8963	0.9718	0.3246	-0.5
Mof_O 	O 	0.8051	0.6315	0.7562	-0.524
Mof_O 	O 	0.9166	0.6566	0.2121	-0.792
Mof_O 	O 	0.8645	0.0693	0.7307	-0.612
Mof_O 	O 	0.4139	0.21	0.7051	-0.526
Mof_O 	O 	0.9424	0.4382	0.2372	-0.488
Mof_O 	O 	0.211	0.8121	0.1654	-0.614
Mof_O 	O 	0.8971	0.2872	0.6677	-0.64
Mof_O 	O 	0.0213	0.541	0.3128	-0.506
Mof_O 	O 	0.2591	0.4232	0.7047	-0.499
Mof_O 	O 	0.9434	0.2617	0.8853	-0.517
Mof_O 	O 	0.0566	0.7383	0.1147	-0.517
Mof_O 	O 	0.5903	0.8819	0.1362	-0.465
Mof_O 	O 	0.7469	0.8687	0.2083	-0.805
Mof_O 	O 	0.1077	0.0533	0.8891	-0.488
Mof_O 	O 	0.2531	0.1313	0.7917	-0.805
Mof_O 	O 	0.0576	0.5618	0.7628	-0.488
Mof_O 	O 	0.6546	0.8286	0.3905	-0.443
Mof_O 	O 	0.4097	0.1181	0.8638	-0.465
_end
