data_functionalizedCrystal
_audit_creation_method	'EQeq! by Chris Wilmer'
_symmetry_space_group_name_H-M	'P1'
_symmetry_Int_Tables_number	1
_symmetry_cell_setting	triclinic
loop_
_symmetry_equiv_pos_as_xyz
  x,y,z
_cell_length_a	7.2293
_cell_length_b	10.198
_cell_length_c	13.0429
_cell_angle_alpha	90
_cell_angle_beta	90
_cell_angle_gamma	100.541
loop_
_atom_site_label
_atom_site_type_symbol
_atom_site_fract_x
_atom_site_fract_y
_atom_site_fract_z
_atom_site_charge
Mof_Eu	Eu	0.16377	0.28214	0.90609	2.2
Mof_Eu	Eu	0.83623	0.21786	0.40609	2.215
Mof_Eu	Eu	0.83623	0.71786	0.09391	2.2
Mof_Eu	Eu	0.16377	0.78214	0.59391	2.215
Mof_P 	P 	0.78865	0.06892	0.04897	0.528
Mof_P 	P 	0.21135	0.43108	0.54897	0.538
Mof_P 	P 	0.21135	0.93108	0.95103	0.528
Mof_P 	P 	0.78865	0.56892	0.45103	0.538
Mof_H 	H 	0.5929	0.1852	0.0438	0.285
Mof_H 	H 	0.8646	0.999	0.2607	0.281
Mof_H 	H 	0.0577	0.0844	0.1513	0.052
Mof_H 	H 	0.4071	0.3148	0.5438	0.286
Mof_H 	H 	0.1354	0.501	0.7607	0.281
Mof_H 	H 	0.9423	0.4156	0.6513	0.05
Mof_H 	H 	0.4071	0.8148	0.9562	0.285
Mof_H 	H 	0.1354	0.001	0.7393	0.281
Mof_H 	H 	0.9423	0.9156	0.8487	0.052
Mof_H 	H 	0.5929	0.6852	0.4562	0.286
Mof_H 	H 	0.8646	0.499	0.2393	0.281
Mof_H 	H 	0.0577	0.5844	0.3487	0.05
Mof_C 	C 	0.944	0.1235	0.1573	-0.126
Mof_C 	C 	0.9996	0.274	0.1638	0.416
Mof_C 	C 	0.4524	0.5552	0.9756	0.273
Mof_C 	C 	0.056	0.3765	0.6573	-0.124
Mof_C 	C 	0.0004	0.226	0.6638	0.424
Mof_C 	C 	0.5476	0.9448	0.4756	0.273
Mof_C 	C 	0.056	0.8765	0.8427	-0.126
Mof_C 	C 	0.0004	0.726	0.8362	0.416
Mof_C 	C 	0.5476	0.4448	0.0244	0.273
Mof_C 	C 	0.944	0.6235	0.3427	-0.124
Mof_C 	C 	0.9996	0.774	0.3362	0.424
Mof_C 	C 	0.4524	0.0552	0.5244	0.273
Mof_O 	O 	0.6036	0.121	0.0797	-0.452
Mof_O 	O 	0.8724	0.132	0.9513	-0.48
Mof_O 	O 	0.7471	0.9199	0.0533	-0.498
Mof_O 	O 	0.8438	0.0736	0.2477	-0.554
Mof_O 	O 	0.0813	0.3335	0.0875	-0.492
Mof_O 	O 	0.9614	0.3306	0.2454	-0.507
Mof_O 	O 	0.3028	0.518	0.9286	-0.483
Mof_O 	O 	0.5335	0.6725	0.991	-0.448
Mof_O 	O 	0.3964	0.379	0.5797	-0.454
Mof_O 	O 	0.1276	0.368	0.4513	-0.489
Mof_O 	O 	0.2529	0.5801	0.5533	-0.5
Mof_O 	O 	0.1562	0.4264	0.7477	-0.552
Mof_O 	O 	0.9187	0.1665	0.5875	-0.501
Mof_O 	O 	0.0386	0.1694	0.7454	-0.509
Mof_O 	O 	0.6972	0.982	0.4286	-0.483
Mof_O 	O 	0.4665	0.8275	0.491	-0.45
Mof_O 	O 	0.3964	0.879	0.9203	-0.452
Mof_O 	O 	0.1276	0.868	0.0487	-0.48
Mof_O 	O 	0.2529	0.0801	0.9467	-0.498
Mof_O 	O 	0.1562	0.9264	0.7523	-0.554
Mof_O 	O 	0.9187	0.6665	0.9125	-0.492
Mof_O 	O 	0.0386	0.6694	0.7546	-0.507
Mof_O 	O 	0.6972	0.482	0.0714	-0.483
Mof_O 	O 	0.4665	0.3275	0.009	-0.448
Mof_O 	O 	0.6036	0.621	0.4203	-0.454
Mof_O 	O 	0.8724	0.632	0.5487	-0.489
Mof_O 	O 	0.7471	0.4199	0.4467	-0.5
Mof_O 	O 	0.8438	0.5736	0.2523	-0.552
Mof_O 	O 	0.0813	0.8335	0.4125	-0.501
Mof_O 	O 	0.9614	0.8306	0.2546	-0.509
Mof_O 	O 	0.3028	0.018	0.5714	-0.483
Mof_O 	O 	0.5335	0.1725	0.509	-0.45
_end
