data_functionalizedCrystal
_audit_creation_method	'EQeq! by Chris Wilmer'
_symmetry_space_group_name_H-M	'P1'
_symmetry_Int_Tables_number	1
_symmetry_cell_setting	triclinic
loop_
_symmetry_equiv_pos_as_xyz
  x,y,z
_cell_length_a	7.79
_cell_length_b	21.487
_cell_length_c	20.666
_cell_angle_alpha	90
_cell_angle_beta	90
_cell_angle_gamma	90
loop_
_atom_site_label
_atom_site_type_symbol
_atom_site_fract_x
_atom_site_fract_y
_atom_site_fract_z
_atom_site_charge
Mof_Cd	Cd	0.204	0.49736	0.83623	0.486
Mof_Cd	Cd	0.204	0.00264	0.33623	0.485
Mof_Cd	Cd	0.796	0.99736	0.83623	0.485
Mof_Cd	Cd	0.32299	0.45606	0.37288	0.388
Mof_Cd	Cd	0.796	0.50264	0.33623	0.486
Mof_Cd	Cd	0.32299	0.04394	0.87288	0.383
Mof_Cd	Cd	0.67701	0.54394	0.87288	0.382
Mof_Cd	Cd	0.67701	0.95606	0.37288	0.388
Mof_H 	H 	0.7373	0.7774	0.6876	0.177
Mof_H 	H 	0.4169	0.8756	0.1934	0.219
Mof_H 	H 	0.0697	0.295	0.6763	0.18
Mof_H 	H 	0.59	0.1346	0.5095	0.196
Mof_H 	H 	0.9443	0.3139	0.9624	0.182
Mof_H 	H 	0.41	0.6346	0.5095	0.196
Mof_H 	H 	0.5849	0.3837	0.5045	0.189
Mof_H 	H 	0.0824	0.1853	0.9799	0.177
Mof_H 	H 	0.4151	0.6163	0.0045	0.197
Mof_H 	H 	0.3301	0.8631	0.5699	0.175
Mof_H 	H 	0.4659	0.9109	0.7161	0.233
Mof_H 	H 	0.4771	0.3382	0.142	0.186
Mof_H 	H 	0.183	0.3356	0.1916	0.209
Mof_H 	H 	0.4381	0.1104	0.4665	0.224
Mof_H 	H 	0.0384	0.3773	0.2217	0.233
Mof_H 	H 	0.9176	0.8147	0.4799	0.187
Mof_H 	H 	0.1913	0.159	0.2132	0.206
Mof_H 	H 	0.0557	0.6861	0.4624	0.189
Mof_H 	H 	0.0697	0.205	0.1763	0.183
Mof_H 	H 	0.9895	0.3185	0.1808	0.201
Mof_H 	H 	0.8087	0.841	0.7132	0.204
Mof_H 	H 	0.2211	0.8984	0.5177	0.192
Mof_H 	H 	0.1123	0.7989	0.47	0.189
Mof_H 	H 	0.0105	0.6815	0.6808	0.198
Mof_H 	H 	0.4493	0.8677	0.6553	0.195
Mof_H 	H 	0.0384	0.1227	0.7217	0.231
Mof_H 	H 	0.5849	0.1163	0.0045	0.194
Mof_H 	H 	0.863	0.7986	0.9773	0.175
Mof_H 	H 	0.9303	0.705	0.1763	0.183
Mof_H 	H 	0.5341	0.4109	0.7161	0.234
Mof_H 	H 	0.2627	0.2774	0.6876	0.177
Mof_H 	H 	0.5341	0.0891	0.2161	0.238
Mof_H 	H 	0.0902	0.357	0.9354	0.214
Mof_H 	H 	0.4012	0.1547	0.5252	0.19
Mof_H 	H 	0.4012	0.3453	0.0252	0.165
Mof_H 	H 	0.0824	0.3147	0.4799	0.187
Mof_H 	H 	0.2846	0.8969	0.6866	0.215
Mof_H 	H 	0.817	0.6644	0.6916	0.206
Mof_H 	H 	0.4169	0.6244	0.6934	0.21
Mof_H 	H 	0.6699	0.3631	0.5699	0.175
Mof_H 	H 	0.0902	0.143	0.4354	0.219
Mof_H 	H 	0.9098	0.857	0.9354	0.214
Mof_H 	H 	0.7154	0.1031	0.1866	0.221
Mof_H 	H 	0.7789	0.1016	0.0177	0.197
Mof_H 	H 	0.5988	0.6547	0.5252	0.19
Mof_H 	H 	0.8087	0.659	0.2132	0.206
Mof_H 	H 	0.0557	0.8139	0.9624	0.181
Mof_H 	H 	0.5507	0.1323	0.1553	0.201
Mof_H 	H 	0.5831	0.3756	0.1934	0.218
Mof_H 	H 	0.0379	0.8619	0.444	0.204
Mof_H 	H 	0.4151	0.8837	0.5045	0.189
Mof_H 	H 	0.5507	0.3677	0.6553	0.195
Mof_H 	H 	0.4381	0.3896	0.9665	0.182
Mof_H 	H 	0.9621	0.1381	0.944	0.195
Mof_H 	H 	0.0379	0.6381	0.944	0.194
Mof_H 	H 	0.9895	0.1815	0.6808	0.197
Mof_H 	H 	0.2846	0.6031	0.1866	0.221
Mof_H 	H 	0.4659	0.5891	0.2161	0.238
Mof_H 	H 	0.2627	0.2226	0.1876	0.18
Mof_H 	H 	0.5988	0.8453	0.0252	0.163
Mof_H 	H 	0.817	0.8356	0.1916	0.208
Mof_H 	H 	0.4493	0.6323	0.1553	0.201
Mof_H 	H 	0.5229	0.8382	0.142	0.187
Mof_H 	H 	0.137	0.2986	0.9773	0.176
Mof_H 	H 	0.6661	0.1416	0.6266	0.181
Mof_H 	H 	0.9303	0.795	0.6763	0.18
Mof_H 	H 	0.4771	0.1618	0.642	0.176
Mof_H 	H 	0.863	0.7014	0.4773	0.183
Mof_H 	H 	0.7789	0.3984	0.5177	0.192
Mof_H 	H 	0.8877	0.2989	0.47	0.189
Mof_H 	H 	0.9176	0.6853	0.9799	0.176
Mof_H 	H 	0.5831	0.1244	0.6934	0.21
Mof_H 	H 	0.8877	0.2011	0.97	0.179
Mof_H 	H 	0.9443	0.1861	0.4624	0.188
Mof_H 	H 	0.1123	0.7011	0.97	0.178
Mof_H 	H 	0.137	0.2014	0.4773	0.183
Mof_H 	H 	0.3339	0.8584	0.1266	0.193
Mof_H 	H 	0.9616	0.6227	0.7217	0.231
Mof_H 	H 	0.7154	0.3969	0.6866	0.216
Mof_H 	H 	0.5619	0.6104	0.4665	0.224
Mof_H 	H 	0.5229	0.6618	0.642	0.176
Mof_H 	H 	0.5619	0.8896	0.9665	0.177
Mof_H 	H 	0.6699	0.1369	0.0699	0.176
Mof_H 	H 	0.183	0.1644	0.6916	0.206
Mof_H 	H 	0.1913	0.341	0.7132	0.204
Mof_H 	H 	0.7373	0.7226	0.1876	0.18
Mof_H 	H 	0.6661	0.3584	0.1266	0.192
Mof_H 	H 	0.9621	0.3619	0.444	0.204
Mof_H 	H 	0.0105	0.8185	0.1808	0.2
Mof_H 	H 	0.9616	0.8773	0.2217	0.233
Mof_H 	H 	0.9098	0.643	0.4354	0.219
Mof_H 	H 	0.3301	0.6369	0.0699	0.178
Mof_H 	H 	0.59	0.3654	0.0095	0.172
Mof_H 	H 	0.2211	0.6016	0.0177	0.2
Mof_H 	H 	0.41	0.8654	0.0095	0.169
Mof_H 	H 	0.3339	0.6416	0.6266	0.181
Mof_C 	C 	0.9316	0.77589	0.88509	0.12
Mof_C 	C 	0.4956	0.43102	0.11933	0.144
Mof_C 	C 	0.0684	0.22411	0.38509	0.122
Mof_C 	C 	0.5795	0.04009	0.13287	0.154
Mof_C 	C 	0.4384	0.87018	0.14798	-0.611
Mof_C 	C 	0.9409	0.81489	0.94551	-0.582
Mof_C 	C 	0.4956	0.06898	0.61933	0.118
Mof_C 	C 	0.4756	0.48301	0.15837	-0.199
Mof_C 	C 	0.0282	0.21209	0.8876	0.132
Mof_C 	C 	0.5795	0.45991	0.63287	0.141
Mof_C 	C 	0.3823	0.95579	0.56706	0.121
Mof_C 	C 	0.4384	0.62982	0.64798	-0.579
Mof_C 	C 	0.6715	0.99371	0.95987	0.312
Mof_C 	C 	0.0281	0.32222	0.33029	-0.203
Mof_C 	C 	0.3285	0.00629	0.45987	0.341
Mof_C 	C 	0.9718	0.78791	0.3876	0.138
Mof_C 	C 	0.9615	0.11172	0.83197	0.334
Mof_C 	C 	0.1622	0.37045	0.82485	0.313
Mof_C 	C 	0.0385	0.88828	0.33197	0.335
Mof_C 	C 	0.9316	0.72411	0.38509	0.122
Mof_C 	C 	0.0281	0.17778	0.83029	-0.2
Mof_C 	C 	0.9292	0.83546	0.21085	-0.641
Mof_C 	C 	0.8355	0.79795	0.70579	-0.577
Mof_C 	C 	0.4526	0.06571	0.55342	0.138
Mof_C 	C 	0.3939	0.00945	0.52827	-0.194
Mof_C 	C 	0.9718	0.71209	0.8876	0.132
Mof_C 	C 	0.1126	0.19822	0.32552	-0.171
Mof_C 	C 	0.4722	0.12141	0.50968	-0.619
Mof_C 	C 	0.0684	0.27589	0.88509	0.121
Mof_C 	C 	0.0137	0.81864	0.45112	-0.61
Mof_C 	C 	0.6673	0.10529	0.03708	-0.575
Mof_C 	C 	0.8828	0.76746	0.76884	0.115
Mof_C 	C 	0.1645	0.20205	0.20579	-0.582
Mof_C 	C 	0.3327	0.89471	0.53708	-0.581
Mof_C 	C 	0.4526	0.43429	0.05342	0.1
Mof_C 	C 	0.4205	0.54009	0.13287	0.153
Mof_C 	C 	0.5254	0.48025	0.22894	0.363
Mof_C 	C 	0.4756	0.01699	0.65837	-0.185
Mof_C 	C 	0.8378	0.62955	0.32485	0.313
Mof_C 	C 	0.5474	0.93429	0.05342	0.095
Mof_C 	C 	0.4205	0.95991	0.63287	0.14
Mof_C 	C 	0.3285	0.49371	0.95987	0.316
Mof_C 	C 	0.5965	0.09629	0.17674	-0.651
Mof_C 	C 	0.1622	0.12955	0.32485	0.313
Mof_C 	C 	0.9409	0.68511	0.44551	-0.595
Mof_C 	C 	0.8828	0.73254	0.26884	0.116
Mof_C 	C 	0.6061	0.99055	0.02827	-0.149
Mof_C 	C 	0.0591	0.18511	0.44551	-0.595
Mof_C 	C 	0.4035	0.90371	0.67674	-0.634
Mof_C 	C 	0.8874	0.69822	0.32552	-0.171
Mof_C 	C 	0.8355	0.70205	0.20579	-0.583
Mof_C 	C 	0.0708	0.33546	0.21085	-0.642
Mof_C 	C 	0.3823	0.54421	0.06706	0.111
Mof_C 	C 	0.9266	0.70352	0.77085	0.152
Mof_C 	C 	0.5474	0.56571	0.55342	0.138
Mof_C 	C 	0.6061	0.50945	0.52827	-0.194
Mof_C 	C 	0.3327	0.60529	0.03708	-0.583
Mof_C 	C 	0.1172	0.26746	0.76884	0.115
Mof_C 	C 	0.0734	0.20352	0.77085	0.152
Mof_C 	C 	0.9719	0.67778	0.83029	-0.201
Mof_C 	C 	0.0708	0.16454	0.71085	-0.636
Mof_C 	C 	0.9863	0.31864	0.45112	-0.609
Mof_C 	C 	0.6715	0.50629	0.45987	0.342
Mof_C 	C 	0.5965	0.40371	0.67674	-0.635
Mof_C 	C 	0.5616	0.12982	0.64798	-0.578
Mof_C 	C 	0.4035	0.59629	0.17674	-0.65
Mof_C 	C 	0.3939	0.49055	0.02827	-0.156
Mof_C 	C 	0.5616	0.37018	0.14798	-0.608
Mof_C 	C 	0.6177	0.45579	0.56706	0.121
Mof_C 	C 	0.0734	0.29648	0.27085	0.154
Mof_C 	C 	0.5044	0.56898	0.61933	0.119
Mof_C 	C 	0.8378	0.87045	0.82485	0.312
Mof_C 	C 	0.5244	0.51699	0.65837	-0.186
Mof_C 	C 	0.5244	0.98301	0.15837	-0.199
Mof_C 	C 	0.9863	0.18136	0.95112	-0.592
Mof_C 	C 	0.1645	0.29795	0.70579	-0.578
Mof_C 	C 	0.9292	0.66454	0.71085	-0.637
Mof_C 	C 	0.5278	0.87859	0.00968	-0.503
Mof_C 	C 	0.4722	0.37859	0.00968	-0.514
Mof_C 	C 	0.8874	0.80178	0.82552	-0.17
Mof_C 	C 	0.5254	0.01975	0.72894	0.359
Mof_C 	C 	0.0137	0.68136	0.95112	-0.589
Mof_C 	C 	0.0591	0.31489	0.94551	-0.585
Mof_C 	C 	0.6673	0.39471	0.53708	-0.58
Mof_C 	C 	0.0385	0.61172	0.83197	0.335
Mof_C 	C 	0.6177	0.04421	0.06706	0.104
Mof_C 	C 	0.5044	0.93102	0.11933	0.147
Mof_C 	C 	0.1172	0.23254	0.26884	0.116
Mof_C 	C 	0.9266	0.79648	0.27085	0.153
Mof_C 	C 	0.9615	0.38828	0.33197	0.336
Mof_C 	C 	0.1126	0.30178	0.82552	-0.17
Mof_C 	C 	0.4746	0.98025	0.22894	0.364
Mof_C 	C 	0.9719	0.82222	0.33029	-0.202
Mof_C 	C 	0.0282	0.28791	0.3876	0.138
Mof_C 	C 	0.4746	0.51975	0.72894	0.359
Mof_C 	C 	0.5278	0.62141	0.50968	-0.619
Mof_O 	O 	0.9567	0.58983	0.31661	-0.283
Mof_O 	O 	0.5726	0.00633	0.9133	-0.322
Mof_O 	O 	0.3148	0.11492	0.33374	-0.284
Mof_O 	O 	0.3148	0.38508	0.83374	-0.283
Mof_O 	O 	0.9567	0.91017	0.81661	-0.284
Mof_O 	O 	0.057	0.0649	0.83536	-0.32
Mof_O 	O 	0.8254	0.98188	0.9503	-0.302
Mof_O 	O 	0.0433	0.41017	0.81661	-0.284
Mof_O 	O 	0.8032	0.10481	0.8294	-0.297
Mof_O 	O 	0.6739	0.00154	0.74063	-0.307
Mof_O 	O 	0.1968	0.89519	0.3294	-0.296
Mof_O 	O 	0.58	0.54011	0.76844	-0.304
Mof_O 	O 	0.4274	0.99367	0.4133	-0.328
Mof_O 	O 	0.1968	0.60481	0.8294	-0.297
Mof_O 	O 	0.3261	0.50154	0.74063	-0.307
Mof_O 	O 	0.42	0.04011	0.76844	-0.304
Mof_O 	O 	0.8032	0.39519	0.3294	-0.297
Mof_O 	O 	0.1746	0.01812	0.4503	-0.304
Mof_O 	O 	0.057	0.4351	0.33536	-0.321
Mof_O 	O 	0.6739	0.49846	0.24063	-0.308
Mof_O 	O 	0.6852	0.88508	0.83374	-0.284
Mof_O 	O 	0.943	0.5649	0.83536	-0.321
Mof_O 	O 	0.5726	0.49367	0.4133	-0.328
Mof_O 	O 	0.6852	0.61492	0.33374	-0.284
Mof_O 	O 	0.1746	0.48188	0.9503	-0.303
Mof_O 	O 	0.8254	0.51812	0.4503	-0.304
Mof_O 	O 	0.943	0.9351	0.33536	-0.32
Mof_O 	O 	0.0433	0.08983	0.31661	-0.283
Mof_O 	O 	0.42	0.45989	0.26844	-0.306
Mof_O 	O 	0.58	0.95989	0.26844	-0.306
Mof_O 	O 	0.4274	0.50633	0.9133	-0.324
Mof_O 	O 	0.3261	0.99846	0.24063	-0.308
_end
