data_functionalizedCrystal
_audit_creation_method	'EQeq! by Chris Wilmer'
_symmetry_space_group_name_H-M	'P1'
_symmetry_Int_Tables_number	1
_symmetry_cell_setting	triclinic
loop_
_symmetry_equiv_pos_as_xyz
  x,y,z
_cell_length_a	17.247
_cell_length_b	17.247
_cell_length_c	10.8317
_cell_angle_alpha	90
_cell_angle_beta	90
_cell_angle_gamma	90
loop_
_atom_site_label
_atom_site_type_symbol
_atom_site_fract_x
_atom_site_fract_y
_atom_site_fract_z
_atom_site_charge
Mof_Mo	Mo	0.80836	0.41175	0.0586	2.174
Mof_P 	P 	0.6341	0.3355	0.0535	0.552
Mof_O 	O 	0.7031	0.3695	0.9784	-0.403
Mof_O 	O 	0.6583	0.2596	0.1159	-0.376
Mof_O 	O 	0.5661	0.326	0.9661	-0.337
Mof_O 	O 	0.6082	0.3965	0.1502	-0.478
Mof_O 	O 	0.7504	0.4646	0.1697	-0.703
Mof_O 	O 	0.8974	0.4575	0.0852	-0.598
Mof_O 	O 	0.8209	0.3246	0.1405	-0.652
Mof_Mo	Mo	0.30836	0.91175	0.5586	2.31
Mof_P 	P 	0.1341	0.8355	0.5535	0.602
Mof_O 	O 	0.2031	0.8695	0.4784	-0.446
Mof_O 	O 	0.1583	0.7596	0.6159	-0.382
Mof_O 	O 	0.0661	0.826	0.4661	-0.378
Mof_O 	O 	0.1082	0.8965	0.6502	-0.488
Mof_O 	O 	0.2504	0.9646	0.6697	-0.706
Mof_O 	O 	0.3974	0.9575	0.5852	-0.653
Mof_O 	O 	0.3209	0.8246	0.6405	-0.685
Mof_Mo	Mo	0.69164	0.58825	0.5586	2.276
Mof_P 	P 	0.8659	0.6645	0.5535	0.6
Mof_O 	O 	0.7969	0.6305	0.4784	-0.44
Mof_O 	O 	0.8417	0.7404	0.6159	-0.345
Mof_O 	O 	0.9339	0.674	0.4661	-0.269
Mof_O 	O 	0.8918	0.6035	0.6502	-0.445
Mof_O 	O 	0.7496	0.5354	0.6697	-0.717
Mof_O 	O 	0.6026	0.5425	0.5852	-0.686
Mof_O 	O 	0.6791	0.6754	0.6405	-0.68
Mof_Mo	Mo	0.19164	0.08825	0.0586	2.112
Mof_P 	P 	0.3659	0.1645	0.0535	0.543
Mof_O 	O 	0.2969	0.1305	0.9784	-0.402
Mof_O 	O 	0.3417	0.2404	0.1159	-0.373
Mof_O 	O 	0.4339	0.174	0.9661	-0.34
Mof_O 	O 	0.3918	0.1035	0.1502	-0.484
Mof_O 	O 	0.2496	0.0354	0.1697	-0.725
Mof_O 	O 	0.1026	0.0425	0.0852	-0.691
Mof_O 	O 	0.1791	0.1754	0.1405	-0.674
Mof_Mo	Mo	0.33825	0.05836	0.3086	2.207
Mof_P 	P 	0.4145	0.8841	0.3035	0.606
Mof_O 	O 	0.3805	0.9531	0.2284	-0.412
Mof_O 	O 	0.4904	0.9083	0.3659	-0.34
Mof_O 	O 	0.424	0.8161	0.2161	-0.371
Mof_O 	O 	0.3535	0.8582	0.4002	-0.473
Mof_O 	O 	0.2854	0.0004	0.4197	-0.755
Mof_O 	O 	0.2925	0.1474	0.3352	-0.677
Mof_O 	O 	0.4254	0.0709	0.3905	-0.677
Mof_Mo	Mo	0.83825	0.55836	0.8086	2.262
Mof_P 	P 	0.9145	0.3841	0.8035	0.596
Mof_O 	O 	0.8805	0.4531	0.7284	-0.424
Mof_O 	O 	0.9904	0.4083	0.8659	-0.242
Mof_O 	O 	0.924	0.3161	0.7161	-0.281
Mof_O 	O 	0.8535	0.3582	0.9002	-0.433
Mof_O 	O 	0.7854	0.5004	0.9197	-0.689
Mof_O 	O 	0.7925	0.6474	0.8352	-0.672
Mof_O 	O 	0.9254	0.5709	0.8905	-0.577
Mof_Mo	Mo	0.16175	0.94164	0.8086	2.299
Mof_P 	P 	0.0855	0.1159	0.8035	0.592
Mof_O 	O 	0.1195	0.0469	0.7284	-0.489
Mof_O 	O 	0.0096	0.0917	0.8659	-0.38
Mof_O 	O 	0.076	0.1839	0.7161	-0.371
Mof_O 	O 	0.1465	0.1418	0.9002	-0.449
Mof_O 	O 	0.2146	0.9996	0.9197	-0.656
Mof_O 	O 	0.2075	0.8526	0.8352	-0.689
Mof_O 	O 	0.0746	0.9291	0.8905	-0.646
Mof_Mo	Mo	0.66175	0.44164	0.3086	2.268
Mof_P 	P 	0.5855	0.6159	0.3035	0.607
Mof_O 	O 	0.6195	0.5469	0.2284	-0.455
Mof_O 	O 	0.5096	0.5917	0.3659	-0.372
Mof_O 	O 	0.576	0.6839	0.2161	-0.372
Mof_O 	O 	0.6465	0.6418	0.4002	-0.475
Mof_O 	O 	0.7146	0.4996	0.4197	-0.713
Mof_O 	O 	0.7075	0.3526	0.3352	-0.681
Mof_O 	O 	0.5746	0.4291	0.3905	-0.68
Mof_Mo	Mo	0.19164	0.58825	0.9414	2.347
Mof_P 	P 	0.3659	0.6645	0.9465	0.657
Mof_O 	O 	0.2969	0.6305	0.0216	-0.492
Mof_O 	O 	0.3417	0.7404	0.8841	-0.367
Mof_O 	O 	0.4339	0.674	0.0339	-0.4
Mof_O 	O 	0.3918	0.6035	0.8498	-0.475
Mof_O 	O 	0.2496	0.5354	0.8303	-0.729
Mof_O 	O 	0.1026	0.5425	0.9148	-0.685
Mof_O 	O 	0.1791	0.6754	0.8595	-0.698
Mof_Mo	Mo	0.69164	0.08825	0.4414	2.229
Mof_P 	P 	0.8659	0.1645	0.4465	0.599
Mof_O 	O 	0.7969	0.1305	0.5216	-0.444
Mof_O 	O 	0.8417	0.2404	0.3841	-0.346
Mof_O 	O 	0.9339	0.174	0.5339	-0.276
Mof_O 	O 	0.8918	0.1035	0.3498	-0.453
Mof_O 	O 	0.7496	0.0354	0.3303	-0.73
Mof_O 	O 	0.6026	0.0425	0.4148	-0.694
Mof_O 	O 	0.6791	0.1754	0.3595	-0.674
Mof_Mo	Mo	0.30836	0.41175	0.4414	2.271
Mof_P 	P 	0.1341	0.3355	0.4465	0.601
Mof_O 	O 	0.2031	0.3695	0.5216	-0.453
Mof_O 	O 	0.1583	0.2596	0.3841	-0.383
Mof_O 	O 	0.0661	0.326	0.5339	-0.385
Mof_O 	O 	0.1082	0.3965	0.3498	-0.498
Mof_O 	O 	0.2504	0.4646	0.3303	-0.721
Mof_O 	O 	0.3974	0.4575	0.4148	-0.689
Mof_O 	O 	0.3209	0.3246	0.3595	-0.68
Mof_Mo	Mo	0.80836	0.91175	0.9414	2.365
Mof_P 	P 	0.6341	0.8355	0.9465	0.65
Mof_O 	O 	0.7031	0.8695	0.0216	-0.474
Mof_O 	O 	0.6583	0.7596	0.8841	-0.369
Mof_O 	O 	0.5661	0.826	0.0339	-0.389
Mof_O 	O 	0.6082	0.8965	0.8498	-0.469
Mof_O 	O 	0.7504	0.9646	0.8303	-0.704
Mof_O 	O 	0.8974	0.9575	0.9148	-0.568
Mof_O 	O 	0.8209	0.8246	0.8595	-0.671
Mof_Mo	Mo	0.66175	0.94164	0.6914	2.321
Mof_P 	P 	0.5855	0.1159	0.6965	0.606
Mof_O 	O 	0.6195	0.0469	0.7716	-0.477
Mof_O 	O 	0.5096	0.0917	0.6341	-0.374
Mof_O 	O 	0.576	0.1839	0.7839	-0.367
Mof_O 	O 	0.6465	0.1418	0.5998	-0.475
Mof_O 	O 	0.7146	0.9996	0.5803	-0.678
Mof_O 	O 	0.7075	0.8526	0.6648	-0.691
Mof_O 	O 	0.5746	0.9291	0.6095	-0.655
Mof_Mo	Mo	0.16175	0.44164	0.1914	2.262
Mof_P 	P 	0.0855	0.6159	0.1965	0.598
Mof_O 	O 	0.1195	0.5469	0.2716	-0.459
Mof_O 	O 	0.0096	0.5917	0.1341	-0.409
Mof_O 	O 	0.076	0.6839	0.2839	-0.374
Mof_O 	O 	0.1465	0.6418	0.0998	-0.502
Mof_O 	O 	0.2146	0.4996	0.0803	-0.739
Mof_O 	O 	0.2075	0.3526	0.1648	-0.698
Mof_O 	O 	0.0746	0.4291	0.1095	-0.7
Mof_Mo	Mo	0.83825	0.05836	0.1914	2.209
Mof_P 	P 	0.9145	0.8841	0.1965	0.599
Mof_O 	O 	0.8805	0.9531	0.2716	-0.384
Mof_O 	O 	0.9904	0.9083	0.1341	-0.231
Mof_O 	O 	0.924	0.8161	0.2839	-0.281
Mof_O 	O 	0.8535	0.8582	0.0998	-0.471
Mof_O 	O 	0.7854	0.0004	0.0803	-0.768
Mof_O 	O 	0.7925	0.1474	0.1648	-0.677
Mof_O 	O 	0.9254	0.0709	0.1095	-0.599
Mof_Mo	Mo	0.33825	0.55836	0.6914	2.279
Mof_P 	P 	0.4145	0.3841	0.6965	0.608
Mof_O 	O 	0.3805	0.4531	0.7716	-0.445
Mof_O 	O 	0.4904	0.4083	0.6341	-0.37
Mof_O 	O 	0.424	0.3161	0.7839	-0.368
Mof_O 	O 	0.3535	0.3582	0.5998	-0.477
Mof_O 	O 	0.2854	0.5004	0.5803	-0.725
Mof_O 	O 	0.2925	0.6474	0.6648	-0.692
Mof_O 	O 	0.4254	0.5709	0.6095	-0.68
Mof_Mn	Mn	0.5	0.25	0.875	1.07
Mof_Mn	Mn	-6.95175e-33	0.75	0.375	0.854
Mof_Mn	Mn	0.5	0.75	0.125	1.061
Mof_Mn	Mn	-2.44567e-33	0.25	0.625	0.854
Mof_Mn	Mn	0.75	0.25	0.25	1.218
Mof_Mn	Mn	0.75	0.75	0.75	1.234
Mof_Mn	Mn	0.5	0	0.5	1.131
Mof_Mn	Mn	-0	0.5	-0	0.952
Mof_Mn	Mn	-0	0	-0	0.854
Mof_Mn	Mn	0.5	0.5	0.5	1.222
Mof_Mn	Mn	0.25	0.75	0.75	1.225
Mof_Mn	Mn	0.25	0.25	0.25	1.207
_end
