data_functionalizedCrystal
_audit_creation_method	'EQeq! by Chris Wilmer'
_symmetry_space_group_name_H-M	'P1'
_symmetry_Int_Tables_number	1
_symmetry_cell_setting	triclinic
loop_
_symmetry_equiv_pos_as_xyz
  x,y,z
_cell_length_a	18.204
_cell_length_b	12.83
_cell_length_c	13.987
_cell_angle_alpha	90
_cell_angle_beta	99.26
_cell_angle_gamma	90
loop_
_atom_site_label
_atom_site_type_symbol
_atom_site_fract_x
_atom_site_fract_y
_atom_site_fract_z
_atom_site_charge
Mof_Zn	Zn	0.73415	0.00994	0.28241	1.216
Mof_O 	O 	0.65344	0.02486	0.1709	-0.567
Mof_O 	O 	0.60373	0.07759	0.02299	-0.556
Mof_C 	C 	0.65325	0.0821	0.0955	0.48
Mof_C 	C 	0.71547	0.1602	0.0973	-0.528
Mof_H 	H 	0.7082	0.2163	0.1415	0.181
Mof_H 	H 	0.7624	0.1265	0.1222	0.17
Mof_C 	C 	0.72025	0.2068	0.9974	0.142
Mof_H 	H 	0.6717	0.2362	0.9701	0.037
Mof_C 	C 	0.74056	0.1217	0.9294	0.252
Mof_O 	O 	0.79358	0.06193	0.95648	-0.273
Mof_O 	O 	0.7021	0.11738	0.84462	-0.423
Mof_O 	O 	0.82612	0.96382	0.23342	-0.407
Mof_O 	O 	0.89721	0.85783	0.16185	-0.379
Mof_C 	C 	0.83551	0.8955	0.17	0.437
Mof_C 	C 	0.7677	0.8606	0.0982	-0.336
Mof_H 	H 	0.7263	0.8493	0.1329	0.13
Mof_H 	H 	0.7537	0.916	0.0516	0.153
Mof_C 	C 	0.78133	0.7602	0.0434	-0.094
Mof_H 	H 	0.8286	0.7672	0.0189	0.089
Mof_C 	C 	0.78686	0.6673	0.1118	0.292
Mof_O 	O 	0.84151	0.6076	0.12016	-0.353
Mof_O 	O 	0.73298	0.64904	0.15788	-0.407
Mof_O 	O 	0.026	0.0098	0.1945	-0.306
Mof_O 	O 	0.042	0.944	0.1394	-0.197
Mof_Zn	Zn	0.23415	0.50994	0.28241	1.236
Mof_O 	O 	0.15344	0.52486	0.1709	-0.562
Mof_O 	O 	0.10373	0.57759	0.02299	-0.573
Mof_C 	C 	0.15325	0.5821	0.0955	0.483
Mof_C 	C 	0.21547	0.6602	0.0973	-0.52
Mof_H 	H 	0.2082	0.7163	0.1415	0.174
Mof_H 	H 	0.2624	0.6265	0.1222	0.174
Mof_C 	C 	0.22025	0.7068	0.9974	0.129
Mof_H 	H 	0.1717	0.7362	0.9701	0.027
Mof_C 	C 	0.24056	0.6217	0.9294	0.254
Mof_O 	O 	0.29358	0.56193	0.95648	-0.262
Mof_O 	O 	0.2021	0.61738	0.84462	-0.417
Mof_O 	O 	0.32612	0.46382	0.23342	-0.46
Mof_O 	O 	0.39721	0.35783	0.16185	-0.463
Mof_C 	C 	0.33551	0.3955	0.17	0.44
Mof_C 	C 	0.2677	0.3606	0.0982	-0.329
Mof_H 	H 	0.2263	0.3493	0.1329	0.108
Mof_H 	H 	0.2537	0.416	0.0516	0.124
Mof_C 	C 	0.28133	0.2602	0.0434	-0.109
Mof_H 	H 	0.3286	0.2672	0.0189	0.069
Mof_C 	C 	0.28686	0.1673	0.1118	0.303
Mof_O 	O 	0.34151	0.1076	0.12016	-0.41
Mof_O 	O 	0.23298	0.14904	0.15788	-0.439
Mof_O 	O 	0.526	0.5098	0.1945	-0.147
Mof_O 	O 	0.542	0.444	0.1394	-0.214
Mof_Zn	Zn	0.26585	0.00994	0.21759	1.215
Mof_O 	O 	0.34656	0.02486	0.3291	-0.551
Mof_O 	O 	0.39627	0.07759	0.47701	-0.518
Mof_C 	C 	0.34675	0.0821	0.4045	0.439
Mof_C 	C 	0.28453	0.1602	0.4027	-0.378
Mof_H 	H 	0.2918	0.2163	0.3585	0.138
Mof_H 	H 	0.2376	0.1265	0.3778	0.122
Mof_C 	C 	0.27975	0.2068	0.5026	-0.039
Mof_H 	H 	0.3283	0.2362	0.5299	0.071
Mof_C 	C 	0.25944	0.1217	0.5706	0.296
Mof_O 	O 	0.20642	0.06193	0.54352	-0.338
Mof_O 	O 	0.2979	0.11738	0.65538	-0.445
Mof_O 	O 	0.17388	0.96382	0.26658	-0.442
Mof_O 	O 	0.10279	0.85783	0.33815	-0.499
Mof_C 	C 	0.16449	0.8955	0.33	0.475
Mof_C 	C 	0.2323	0.8606	0.4018	-0.406
Mof_H 	H 	0.2737	0.8493	0.3671	0.153
Mof_H 	H 	0.2463	0.916	0.4484	0.184
Mof_C 	C 	0.21867	0.7602	0.4566	-0.014
Mof_H 	H 	0.1714	0.7672	0.4811	0.049
Mof_C 	C 	0.21314	0.6673	0.3882	0.28
Mof_O 	O 	0.15849	0.6076	0.37984	-0.396
Mof_O 	O 	0.26702	0.64904	0.34212	-0.402
Mof_O 	O 	0.974	0.0098	0.3055	-0.111
Mof_O 	O 	0.958	0.944	0.3606	-0.08
Mof_Zn	Zn	0.76585	0.50994	0.21759	1.238
Mof_O 	O 	0.84656	0.52486	0.3291	-0.489
Mof_O 	O 	0.89627	0.57759	0.47701	-0.429
Mof_C 	C 	0.84675	0.5821	0.4045	0.434
Mof_C 	C 	0.78453	0.6602	0.4027	-0.371
Mof_H 	H 	0.7918	0.7163	0.3585	0.146
Mof_H 	H 	0.7376	0.6265	0.3778	0.138
Mof_C 	C 	0.77975	0.7068	0.5026	-0.036
Mof_H 	H 	0.8283	0.7362	0.5299	0.091
Mof_C 	C 	0.75944	0.6217	0.5706	0.29
Mof_O 	O 	0.70642	0.56193	0.54352	-0.294
Mof_O 	O 	0.7979	0.61738	0.65538	-0.402
Mof_O 	O 	0.67388	0.46382	0.26658	-0.464
Mof_O 	O 	0.60279	0.35783	0.33815	-0.464
Mof_C 	C 	0.66449	0.3955	0.33	0.462
Mof_C 	C 	0.7323	0.3606	0.4018	-0.39
Mof_H 	H 	0.7737	0.3493	0.3671	0.146
Mof_H 	H 	0.7463	0.416	0.4484	0.164
Mof_C 	C 	0.71867	0.2602	0.4566	-0.018
Mof_H 	H 	0.6714	0.2672	0.4811	0.059
Mof_C 	C 	0.71314	0.1673	0.3882	0.282
Mof_O 	O 	0.65849	0.1076	0.37984	-0.391
Mof_O 	O 	0.76702	0.14904	0.34212	-0.406
Mof_O 	O 	0.474	0.5098	0.3055	-0.145
Mof_O 	O 	0.458	0.444	0.3606	-0.203
Mof_Zn	Zn	0.26585	0.99006	0.71759	1.256
Mof_O 	O 	0.34656	0.97514	0.8291	-0.48
Mof_O 	O 	0.39627	0.92241	0.97701	-0.437
Mof_C 	C 	0.34675	0.9179	0.9045	0.412
Mof_C 	C 	0.28453	0.8398	0.9027	-0.269
Mof_H 	H 	0.2918	0.7837	0.8585	0.111
Mof_H 	H 	0.2376	0.8735	0.8778	0.118
Mof_C 	C 	0.27975	0.7932	0.0026	-0.166
Mof_H 	H 	0.3283	0.7638	0.0299	0.094
Mof_C 	C 	0.25944	0.8783	0.0706	0.318
Mof_O 	O 	0.20642	0.93807	0.04352	-0.309
Mof_O 	O 	0.2979	0.88262	0.15538	-0.411
Mof_O 	O 	0.17388	0.03618	0.76658	-0.509
Mof_O 	O 	0.10279	0.14217	0.83815	-0.515
Mof_C 	C 	0.16449	0.1045	0.83	0.476
Mof_C 	C 	0.2323	0.1394	0.9018	-0.423
Mof_H 	H 	0.2737	0.1507	0.8671	0.145
Mof_H 	H 	0.2463	0.084	0.9484	0.167
Mof_C 	C 	0.21867	0.2398	0.9566	0.046
Mof_H 	H 	0.1714	0.2328	0.9811	0.042
Mof_C 	C 	0.21314	0.3327	0.8882	0.272
Mof_O 	O 	0.15849	0.3924	0.87984	-0.379
Mof_O 	O 	0.26702	0.35096	0.84212	-0.394
Mof_O 	O 	0.974	0.9902	0.8055	0.021
Mof_O 	O 	0.958	0.056	0.8606	-0.184
Mof_Zn	Zn	0.76585	0.49006	0.71759	1.238
Mof_O 	O 	0.84656	0.47514	0.8291	-0.473
Mof_O 	O 	0.89627	0.42241	0.97701	-0.394
Mof_C 	C 	0.84675	0.4179	0.9045	0.4
Mof_C 	C 	0.78453	0.3398	0.9027	-0.248
Mof_H 	H 	0.7918	0.2837	0.8585	0.113
Mof_H 	H 	0.7376	0.3735	0.8778	0.109
Mof_C 	C 	0.77975	0.2932	0.0026	-0.186
Mof_H 	H 	0.8283	0.2638	0.0299	0.111
Mof_C 	C 	0.75944	0.3783	0.0706	0.323
Mof_O 	O 	0.70642	0.43807	0.04352	-0.327
Mof_O 	O 	0.7979	0.38262	0.15538	-0.421
Mof_O 	O 	0.67388	0.53618	0.76658	-0.464
Mof_O 	O 	0.60279	0.64217	0.83815	-0.457
Mof_C 	C 	0.66449	0.6045	0.83	0.476
Mof_C 	C 	0.7323	0.6394	0.9018	-0.426
Mof_H 	H 	0.7737	0.6507	0.8671	0.163
Mof_H 	H 	0.7463	0.584	0.9484	0.19
Mof_C 	C 	0.71867	0.7398	0.9566	0.045
Mof_H 	H 	0.6714	0.7328	0.9811	0.061
Mof_C 	C 	0.71314	0.8327	0.8882	0.264
Mof_O 	O 	0.65849	0.8924	0.87984	-0.333
Mof_O 	O 	0.76702	0.85096	0.84212	-0.366
Mof_O 	O 	0.474	0.4902	0.8055	-0.142
Mof_O 	O 	0.458	0.556	0.8606	-0.191
Mof_Zn	Zn	0.73415	0.99006	0.78241	1.257
Mof_O 	O 	0.65344	0.97514	0.6709	-0.495
Mof_O 	O 	0.60373	0.92241	0.52299	-0.475
Mof_C 	C 	0.65325	0.9179	0.5955	0.452
Mof_C 	C 	0.71547	0.8398	0.5973	-0.405
Mof_H 	H 	0.7082	0.7837	0.6415	0.151
Mof_H 	H 	0.7624	0.8735	0.6222	0.165
Mof_C 	C 	0.72025	0.7932	0.4974	-0.001
Mof_H 	H 	0.6717	0.7638	0.4701	0.063
Mof_C 	C 	0.74056	0.8783	0.4294	0.276
Mof_O 	O 	0.79358	0.93807	0.45648	-0.247
Mof_O 	O 	0.7021	0.88262	0.34462	-0.392
Mof_O 	O 	0.82612	0.03618	0.73342	-0.474
Mof_O 	O 	0.89721	0.14217	0.66185	-0.396
Mof_C 	C 	0.83551	0.1045	0.67	0.436
Mof_C 	C 	0.7677	0.1394	0.5982	-0.347
Mof_H 	H 	0.7263	0.1507	0.6329	0.118
Mof_H 	H 	0.7537	0.084	0.5516	0.131
Mof_C 	C 	0.78133	0.2398	0.5434	-0.043
Mof_H 	H 	0.8286	0.2328	0.5189	0.083
Mof_C 	C 	0.78686	0.3327	0.6118	0.286
Mof_O 	O 	0.84151	0.3924	0.62016	-0.339
Mof_O 	O 	0.73298	0.35096	0.65788	-0.4
Mof_O 	O 	0.026	0.9902	0.6945	-0.17
Mof_O 	O 	0.042	0.056	0.6394	-0.304
Mof_Zn	Zn	0.23415	0.49006	0.78241	1.236
Mof_O 	O 	0.15344	0.47514	0.6709	-0.548
Mof_O 	O 	0.10373	0.42241	0.52299	-0.544
Mof_C 	C 	0.15325	0.4179	0.5955	0.453
Mof_C 	C 	0.21547	0.3398	0.5973	-0.408
Mof_H 	H 	0.2082	0.2837	0.6415	0.143
Mof_H 	H 	0.2624	0.3735	0.6222	0.148
Mof_C 	C 	0.22025	0.2932	0.4974	-0.006
Mof_H 	H 	0.1717	0.2638	0.4701	0.045
Mof_C 	C 	0.24056	0.3783	0.4294	0.283
Mof_O 	O 	0.29358	0.43807	0.45648	-0.293
Mof_O 	O 	0.2021	0.38262	0.34462	-0.436
Mof_O 	O 	0.32612	0.53618	0.73342	-0.46
Mof_O 	O 	0.39721	0.64217	0.66185	-0.457
Mof_C 	C 	0.33551	0.6045	0.67	0.456
Mof_C 	C 	0.2677	0.6394	0.5982	-0.37
Mof_H 	H 	0.2263	0.6507	0.6329	0.127
Mof_H 	H 	0.2537	0.584	0.5516	0.153
Mof_C 	C 	0.28133	0.7398	0.5434	-0.036
Mof_H 	H 	0.3286	0.7328	0.5189	0.07
Mof_C 	C 	0.28686	0.8327	0.6118	0.284
Mof_O 	O 	0.34151	0.8924	0.62016	-0.35
Mof_O 	O 	0.23298	0.85096	0.65788	-0.397
Mof_O 	O 	0.526	0.4902	0.6945	-0.144
Mof_O 	O 	0.542	0.556	0.6394	-0.201
Mof_Zn	Zn	0.5	0	-0	1.111
Mof_Zn	Zn	-0	0.5	-0	1.075
Mof_Zn	Zn	0.5	7.82941e-33	0.5	1.126
Mof_Zn	Zn	8.81513e-18	0.5	0.5	1.089
Mof_Zn	Zn	8.36103e-34	0.8635	0.25	1.16
Mof_Zn	Zn	0.5	0.3635	0.25	1.211
Mof_Zn	Zn	1.76303e-17	0.1365	0.75	1.148
Mof_Zn	Zn	0.5	0.6365	0.75	1.215
_end
