data_functionalizedCrystal
_audit_creation_method	'EQeq! by Chris Wilmer'
_symmetry_space_group_name_H-M	'P1'
_symmetry_Int_Tables_number	1
_symmetry_cell_setting	triclinic
loop_
_symmetry_equiv_pos_as_xyz
  x,y,z
_cell_length_a	13.8603
_cell_length_b	23.1285
_cell_length_c	8.542
_cell_angle_alpha	90
_cell_angle_beta	90
_cell_angle_gamma	90
loop_
_atom_site_label
_atom_site_type_symbol
_atom_site_fract_x
_atom_site_fract_y
_atom_site_fract_z
_atom_site_charge
Mof_P 	P 	0.211	0.1596	0.3053	1.864
Mof_P 	P 	0.1064	0.066	0.7893	2.379
Mof_P 	P 	0.3998	0.2241	0.8248	2.249
Mof_Al	Al	0.1009	0.0594	0.158	5.206
Mof_Al	Al	0.2156	0.1777	0.6693	8.632
Mof_Al	Al	0.1066	0.2723	0.1944	5.185
Mof_O 	O 	0.1899	0.1032	0.2234	-2.013
Mof_O 	O 	0.205	0.1513	0.4824	-2.451
Mof_O 	O 	0.1401	0.2049	0.2493	-2.164
Mof_O 	O 	0.3136	0.1761	0.2665	-1.943
Mof_O 	O 	0.0962	0.058	0.9618	-1.45
Mof_O 	O 	0.0105	0.0829	0.7325	-2.781
Mof_O 	O 	0.1842	0.1087	0.7539	-2.149
Mof_O 	O 	0.135	0.0072	0.7254	-2.719
Mof_O 	O 	0.3305	0.1788	0.7678	-2.217
Mof_O 	O 	0.3784	0.2836	0.7642	-2.472
Mof_O 	O 	0.4977	0.2066	0.7765	-2.59
Mof_O 	O 	0.3959	0.2239	0.9958	-1.355
Mof_P 	P 	0.711	0.6596	0.3053	1.856
Mof_P 	P 	0.6064	0.566	0.7893	2.376
Mof_P 	P 	0.8998	0.7241	0.8248	2.25
Mof_Al	Al	0.6009	0.5594	0.158	5.1
Mof_Al	Al	0.7156	0.6777	0.6693	8.626
Mof_Al	Al	0.6066	0.7723	0.1944	5.139
Mof_O 	O 	0.6899	0.6032	0.2234	-1.991
Mof_O 	O 	0.705	0.6513	0.4824	-2.449
Mof_O 	O 	0.6401	0.7049	0.2493	-2.155
Mof_O 	O 	0.8136	0.6761	0.2665	-1.951
Mof_O 	O 	0.5962	0.558	0.9618	-1.418
Mof_O 	O 	0.5105	0.5829	0.7325	-2.789
Mof_O 	O 	0.6842	0.6087	0.7539	-2.147
Mof_O 	O 	0.635	0.5072	0.7254	-2.728
Mof_O 	O 	0.8305	0.6788	0.7678	-2.217
Mof_O 	O 	0.8784	0.7836	0.7642	-2.474
Mof_O 	O 	0.9977	0.7066	0.7765	-2.59
Mof_O 	O 	0.8959	0.7239	0.9958	-1.37
Mof_P 	P 	0.789	0.8404	0.3053	1.863
Mof_P 	P 	0.8936	0.934	0.7893	2.378
Mof_P 	P 	0.6002	0.7759	0.8248	2.248
Mof_Al	Al	0.8991	0.9406	0.158	5.205
Mof_Al	Al	0.7844	0.8223	0.6693	8.631
Mof_Al	Al	0.8934	0.7277	0.1944	5.184
Mof_O 	O 	0.8101	0.8968	0.2234	-2.013
Mof_O 	O 	0.795	0.8487	0.4824	-2.451
Mof_O 	O 	0.8599	0.7951	0.2493	-2.164
Mof_O 	O 	0.6864	0.8239	0.2665	-1.943
Mof_O 	O 	0.9038	0.942	0.9618	-1.45
Mof_O 	O 	0.9895	0.9171	0.7325	-2.781
Mof_O 	O 	0.8158	0.8913	0.7539	-2.149
Mof_O 	O 	0.865	0.9928	0.7254	-2.719
Mof_O 	O 	0.6695	0.8212	0.7678	-2.217
Mof_O 	O 	0.6216	0.7164	0.7642	-2.472
Mof_O 	O 	0.5023	0.7934	0.7765	-2.59
Mof_O 	O 	0.6041	0.7761	0.9958	-1.355
Mof_P 	P 	0.289	0.3404	0.3053	1.856
Mof_P 	P 	0.3936	0.434	0.7893	2.376
Mof_P 	P 	0.1002	0.2759	0.8248	2.25
Mof_Al	Al	0.3991	0.4406	0.158	5.1
Mof_Al	Al	0.2844	0.3223	0.6693	8.626
Mof_Al	Al	0.3934	0.2277	0.1944	5.139
Mof_O 	O 	0.3101	0.3968	0.2234	-1.991
Mof_O 	O 	0.295	0.3487	0.4824	-2.449
Mof_O 	O 	0.3599	0.2951	0.2493	-2.155
Mof_O 	O 	0.1864	0.3239	0.2665	-1.951
Mof_O 	O 	0.4038	0.442	0.9618	-1.418
Mof_O 	O 	0.4895	0.4171	0.7325	-2.789
Mof_O 	O 	0.3158	0.3913	0.7539	-2.147
Mof_O 	O 	0.365	0.4928	0.7254	-2.728
Mof_O 	O 	0.1695	0.3212	0.7678	-2.217
Mof_O 	O 	0.1216	0.2164	0.7642	-2.474
Mof_O 	O 	0.0023	0.2934	0.7765	-2.59
Mof_O 	O 	0.1041	0.2761	0.9958	-1.37
Mof_P 	P 	0.211	0.8404	0.8053	2.38
Mof_P 	P 	0.1064	0.934	0.2893	2.05
Mof_P 	P 	0.3998	0.7759	0.3248	2.06
Mof_Al	Al	0.1009	0.9406	0.658	9.309
Mof_Al	Al	0.2156	0.8223	0.1693	5.415
Mof_Al	Al	0.1066	0.7277	0.6944	9.421
Mof_O 	O 	0.1899	0.8968	0.7234	-2.692
Mof_O 	O 	0.205	0.8487	0.9824	-1.245
Mof_O 	O 	0.1401	0.7951	0.7493	-2.95
Mof_O 	O 	0.3136	0.8239	0.7665	-2.591
Mof_O 	O 	0.0962	0.942	0.4618	-2.903
Mof_O 	O 	0.0105	0.9171	0.2325	-2.115
Mof_O 	O 	0.1842	0.8913	0.2539	-1.882
Mof_O 	O 	0.135	0.9928	0.2254	-2.078
Mof_O 	O 	0.3305	0.8212	0.2678	-1.864
Mof_O 	O 	0.3784	0.7164	0.2642	-2.01
Mof_O 	O 	0.4977	0.7934	0.2765	-1.992
Mof_O 	O 	0.3959	0.7761	0.4958	-2.914
Mof_P 	P 	0.711	0.3404	0.8053	2.381
Mof_P 	P 	0.6064	0.434	0.2893	2.039
Mof_P 	P 	0.8998	0.2759	0.3248	2.061
Mof_Al	Al	0.6009	0.4406	0.658	9.352
Mof_Al	Al	0.7156	0.3223	0.1693	5.396
Mof_Al	Al	0.6066	0.2277	0.6944	9.437
Mof_O 	O 	0.6899	0.3968	0.7234	-2.698
Mof_O 	O 	0.705	0.3487	0.9824	-1.237
Mof_O 	O 	0.6401	0.2951	0.7493	-2.951
Mof_O 	O 	0.8136	0.3239	0.7665	-2.589
Mof_O 	O 	0.5962	0.442	0.4618	-2.907
Mof_O 	O 	0.5105	0.4171	0.2325	-2.09
Mof_O 	O 	0.6842	0.3913	0.2539	-1.877
Mof_O 	O 	0.635	0.4928	0.2254	-2.051
Mof_O 	O 	0.8305	0.3212	0.2678	-1.86
Mof_O 	O 	0.8784	0.2164	0.2642	-2.014
Mof_O 	O 	0.9977	0.2934	0.2765	-2.002
Mof_O 	O 	0.8959	0.2761	0.4958	-2.912
Mof_P 	P 	0.789	0.1596	0.8053	2.38
Mof_P 	P 	0.8936	0.066	0.2893	2.05
Mof_P 	P 	0.6002	0.2241	0.3248	2.06
Mof_Al	Al	0.8991	0.0594	0.658	9.309
Mof_Al	Al	0.7844	0.1777	0.1693	5.415
Mof_Al	Al	0.8934	0.2723	0.6944	9.421
Mof_O 	O 	0.8101	0.1032	0.7234	-2.692
Mof_O 	O 	0.795	0.1513	0.9824	-1.245
Mof_O 	O 	0.8599	0.2049	0.7493	-2.95
Mof_O 	O 	0.6864	0.1761	0.7665	-2.591
Mof_O 	O 	0.9038	0.058	0.4618	-2.903
Mof_O 	O 	0.9895	0.0829	0.2325	-2.115
Mof_O 	O 	0.8158	0.1087	0.2539	-1.882
Mof_O 	O 	0.865	0.0072	0.2254	-2.078
Mof_O 	O 	0.6695	0.1788	0.2678	-1.864
Mof_O 	O 	0.6216	0.2836	0.2642	-2.01
Mof_O 	O 	0.5023	0.2066	0.2765	-1.992
Mof_O 	O 	0.6041	0.2239	0.4958	-2.914
Mof_P 	P 	0.289	0.6596	0.8053	2.381
Mof_P 	P 	0.3936	0.566	0.2893	2.039
Mof_P 	P 	0.1002	0.7241	0.3248	2.061
Mof_Al	Al	0.3991	0.5594	0.658	9.352
Mof_Al	Al	0.2844	0.6777	0.1693	5.396
Mof_Al	Al	0.3934	0.7723	0.6944	9.437
Mof_O 	O 	0.3101	0.6032	0.7234	-2.698
Mof_O 	O 	0.295	0.6513	0.9824	-1.237
Mof_O 	O 	0.3599	0.7049	0.7493	-2.951
Mof_O 	O 	0.1864	0.6761	0.7665	-2.589
Mof_O 	O 	0.4038	0.558	0.4618	-2.907
Mof_O 	O 	0.4895	0.5829	0.2325	-2.09
Mof_O 	O 	0.3158	0.6087	0.2539	-1.877
Mof_O 	O 	0.365	0.5072	0.2254	-2.051
Mof_O 	O 	0.1695	0.6788	0.2678	-1.86
Mof_O 	O 	0.1216	0.7836	0.2642	-2.014
Mof_O 	O 	0.0023	0.7066	0.2765	-2.002
Mof_O 	O 	0.1041	0.7239	0.4958	-2.912
Mof_F 	F 	0.25	0.25	0.5805	-2.724
Mof_F 	F 	0.75	0.75	0.5805	-2.724
Mof_F 	F 	0.25	0.75	0.0805	-2.429
Mof_F 	F 	0.75	0.25	0.0805	-2.429
_end
