data_functionalizedCrystal
_audit_creation_method	'EQeq! by Chris Wilmer'
_symmetry_space_group_name_H-M	'P1'
_symmetry_Int_Tables_number	1
_symmetry_cell_setting	triclinic
loop_
_symmetry_equiv_pos_as_xyz
  x,y,z
_cell_length_a	6.5668
_cell_length_b	16.3971
_cell_length_c	13.2021
_cell_angle_alpha	90
_cell_angle_beta	90
_cell_angle_gamma	90.139
loop_
_atom_site_label
_atom_site_type_symbol
_atom_site_fract_x
_atom_site_fract_y
_atom_site_fract_z
_atom_site_charge
Mof_O 	O 	0.1609	0.1692	0.8486	-1.555
Mof_O 	O 	0.8206	0.6652	0.1701	-1.687
Mof_C 	C 	0.8113	0.0246	0.9578	0.179
Mof_C 	C 	0.9871	0.0668	0.9428	-0.584
Mof_C 	C 	0.002	0.1369	0.8696	1.372
Mof_C 	C 	0.2028	0.5333	0.0357	0.191
Mof_O 	O 	0.6609	0.6692	0.3486	-1.482
Mof_O 	O 	0.3206	0.1652	0.6701	-1.594
Mof_C 	C 	0.3113	0.5246	0.4578	0.115
Mof_C 	C 	0.4871	0.5668	0.4428	-0.303
Mof_C 	C 	0.502	0.6369	0.3696	1.104
Mof_C 	C 	0.7028	0.0333	0.5357	-0.005
Mof_O 	O 	0.8391	0.3308	0.8486	-1.405
Mof_O 	O 	0.1794	0.8348	0.1701	-1.49
Mof_C 	C 	0.1887	0.4754	0.9578	0.001
Mof_C 	C 	0.0129	0.4332	0.9428	-0.016
Mof_C 	C 	0.998	0.3631	0.8696	0.82
Mof_C 	C 	0.7972	0.9667	0.0357	-0.113
Mof_O 	O 	0.3391	0.8308	0.3486	-1.485
Mof_O 	O 	0.6794	0.3348	0.6701	-1.588
Mof_C 	C 	0.6887	0.9754	0.4578	0.077
Mof_C 	C 	0.5129	0.9332	0.4428	-0.309
Mof_C 	C 	0.498	0.8631	0.3696	1.103
Mof_C 	C 	0.2972	0.4667	0.5357	0.068
Mof_O 	O 	0.8391	0.8308	0.1514	-1.405
Mof_O 	O 	0.1794	0.3348	0.8299	-1.491
Mof_C 	C 	0.1887	0.9754	0.0422	0.006
Mof_C 	C 	0.0129	0.9332	0.0572	-0.015
Mof_C 	C 	0.998	0.8631	0.1304	0.818
Mof_C 	C 	0.7972	0.4667	0.9643	-0.116
Mof_O 	O 	0.3391	0.3308	0.6514	-1.484
Mof_O 	O 	0.6794	0.8348	0.3299	-1.588
Mof_C 	C 	0.6887	0.4754	0.5422	0.068
Mof_C 	C 	0.5129	0.4332	0.5572	-0.306
Mof_C 	C 	0.498	0.3631	0.6304	1.101
Mof_C 	C 	0.2972	0.9667	0.4643	0.08
Mof_O 	O 	0.1609	0.6692	0.1514	-1.556
Mof_O 	O 	0.8206	0.1652	0.8299	-1.684
Mof_C 	C 	0.8113	0.5246	0.0422	0.184
Mof_C 	C 	0.9871	0.5668	0.0572	-0.591
Mof_C 	C 	0.002	0.6369	0.1304	1.379
Mof_C 	C 	0.2028	0.0333	0.9643	0.182
Mof_O 	O 	0.6609	0.1692	0.6514	-1.482
Mof_O 	O 	0.3206	0.6652	0.3299	-1.594
Mof_C 	C 	0.3113	0.0246	0.5422	0.103
Mof_C 	C 	0.4871	0.0668	0.5572	-0.299
Mof_C 	C 	0.502	0.1369	0.6304	1.102
Mof_C 	C 	0.7028	0.5333	0.4643	0.004
Mof_Al	Al	0.25	0.25	0.75	6.559
Mof_Al	Al	0.75	0.25	0.75	6.292
Mof_Al	Al	0.75	0.75	0.25	6.29
Mof_Al	Al	0.25	0.75	0.25	6.562
Mof_F 	F 	5.0232e-20	0.25	0.6907	-2.102
Mof_F 	F 	0.5	0.75	0.1907	-2.165
Mof_F 	F 	5.68817e-19	0.75	0.3093	-2.101
Mof_F 	F 	0.5	0.25	0.8093	-2.165
_end
