data_functionalizedCrystal
_audit_creation_method	'EQeq! by Chris Wilmer'
_symmetry_space_group_name_H-M	'P1'
_symmetry_Int_Tables_number	1
_symmetry_cell_setting	triclinic
loop_
_symmetry_equiv_pos_as_xyz
  x,y,z
_cell_length_a	8.7543
_cell_length_b	11.1454
_cell_length_c	17.7411
_cell_angle_alpha	95.1832
_cell_angle_beta	104.284
_cell_angle_gamma	68.521
loop_
_atom_site_label
_atom_site_type_symbol
_atom_site_fract_x
_atom_site_fract_y
_atom_site_fract_z
_atom_site_charge
Mof_Sc	Sc	0.36604	0.25	0.73208	1.921
Mof_Sc	Sc	0.63396	0.75	0.26792	1.921
Mof_Sc	Sc	0.88714	0.25	0.77428	1.914
Mof_Sc	Sc	0.11286	0.75	0.22572	1.914
Mof_C 	C 	0.02322	0.47815	0.74964	0.543
Mof_C 	C 	0.95046	0.61758	0.7568	-0.171
Mof_C 	C 	0.04247	0.6911	0.7486	0.013
Mof_C 	C 	0.77912	0.67608	0.7502	0.018
Mof_C 	C 	0.25855	0.1389	0.87096	0.548
Mof_C 	C 	0.38317	0.0612	0.93502	-0.182
Mof_C 	C 	0.55016	0.04792	0.9454	0.021
Mof_C 	C 	0.33101	0.0299	0.9955	0.023
Mof_C 	C 	0.54571	0.3572	0.63268	0.544
Mof_C 	C 	0.52272	0.42919	0.56408	-0.18
Mof_C 	C 	0.37125	0.46448	0.50976	0.02
Mof_C 	C 	0.64504	0.47547	0.55778	0.022
Mof_C 	C 	0.72642	0.02185	0.74964	0.54
Mof_C 	C 	0.80634	0.88242	0.7568	-0.175
Mof_C 	C 	0.70613	0.8089	0.7486	0.021
Mof_C 	C 	0.97108	0.82392	0.7502	0.029
Mof_C 	C 	0.61241	0.3611	0.87096	0.548
Mof_C 	C 	0.55185	0.4388	0.93502	-0.183
Mof_C 	C 	0.39524	0.45208	0.9454	0.024
Mof_C 	C 	0.66449	0.4701	0.9955	0.021
Mof_C 	C 	0.08697	0.1428	0.63268	0.542
Mof_C 	C 	0.04136	0.07081	0.56408	-0.173
Mof_C 	C 	0.13851	0.03552	0.50976	0.026
Mof_C 	C 	0.91274	0.02453	0.55778	0.01
Mof_C 	C 	0.97678	0.52185	0.25036	0.543
Mof_C 	C 	0.04954	0.38242	0.2432	-0.171
Mof_C 	C 	0.95753	0.3089	0.2514	0.013
Mof_C 	C 	0.22088	0.32392	0.2498	0.018
Mof_C 	C 	0.74145	0.8611	0.12904	0.548
Mof_C 	C 	0.61683	0.9388	0.06498	-0.182
Mof_C 	C 	0.44984	0.95208	0.0546	0.021
Mof_C 	C 	0.66899	0.9701	0.0045	0.024
Mof_C 	C 	0.45429	0.6428	0.36732	0.544
Mof_C 	C 	0.47728	0.57081	0.43592	-0.18
Mof_C 	C 	0.62875	0.53552	0.49024	0.021
Mof_C 	C 	0.35496	0.52453	0.44222	0.022
Mof_C 	C 	0.27358	0.97815	0.25036	0.54
Mof_C 	C 	0.19366	0.11758	0.2432	-0.175
Mof_C 	C 	0.29387	0.1911	0.2514	0.021
Mof_C 	C 	0.02892	0.17608	0.2498	0.029
Mof_C 	C 	0.38759	0.6389	0.12904	0.548
Mof_C 	C 	0.44815	0.5612	0.06498	-0.183
Mof_C 	C 	0.60476	0.54792	0.0546	0.024
Mof_C 	C 	0.33551	0.5299	0.0045	0.021
Mof_C 	C 	0.91303	0.8572	0.36732	0.542
Mof_C 	C 	0.95864	0.92919	0.43592	-0.173
Mof_C 	C 	0.86149	0.96448	0.49024	0.026
Mof_C 	C 	0.08726	0.97547	0.44222	0.01
Mof_O 	O 	0.16167	0.4232	0.73074	-0.549
Mof_O 	O 	0.96602	0.40591	0.77484	-0.554
Mof_O 	O 	0.29321	0.18076	0.81662	-0.569
Mof_O 	O 	0.10364	0.1614	0.86074	-0.533
Mof_O 	O 	0.43181	0.32356	0.6445	-0.54
Mof_O 	O 	0.67188	0.3401	0.68844	-0.563
Mof_O 	O 	0.56907	0.0768	0.73074	-0.549
Mof_O 	O 	0.80882	0.09409	0.77484	-0.554
Mof_O 	O 	0.52341	0.31924	0.81662	-0.57
Mof_O 	O 	0.7571	0.3386	0.86074	-0.536
Mof_O 	O 	0.21269	0.17644	0.6445	-0.539
Mof_O 	O 	0.01656	0.1599	0.68844	-0.559
Mof_O 	O 	0.83833	0.5768	0.26926	-0.549
Mof_O 	O 	0.03398	0.59409	0.22516	-0.554
Mof_O 	O 	0.70679	0.81924	0.18338	-0.569
Mof_O 	O 	0.89636	0.8386	0.13926	-0.533
Mof_O 	O 	0.56819	0.67644	0.3555	-0.54
Mof_O 	O 	0.32812	0.6599	0.31156	-0.563
Mof_O 	O 	0.43093	0.9232	0.26926	-0.549
Mof_O 	O 	0.19118	0.90591	0.22516	-0.554
Mof_O 	O 	0.47659	0.68076	0.18338	-0.57
Mof_O 	O 	0.2429	0.6614	0.13926	-0.536
Mof_O 	O 	0.78731	0.82356	0.3555	-0.539
Mof_O 	O 	0.98344	0.8401	0.31156	-0.559
Mof_H 	H 	0.17678	0.64214	0.74055	0.032
Mof_H 	H 	0.6978	0.61481	0.74607	0.026
Mof_H 	H 	0.58807	0.10095	0.90537	0.021
Mof_H 	H 	0.19137	0.06833	0.99605	0.037
Mof_H 	H 	0.26036	0.44391	0.52088	0.033
Mof_H 	H 	0.75886	0.46391	0.60833	0.019
Mof_H 	H 	0.56377	0.85786	0.74055	0.031
Mof_H 	H 	0.04839	0.88509	0.74606	0.022
Mof_H 	H 	0.3173	0.39905	0.90537	0.022
Mof_H 	H 	0.80468	0.43167	0.99605	0.035
Mof_H 	H 	0.26053	0.05609	0.52088	0.032
Mof_H 	H 	0.84946	0.03609	0.60833	0.021
Mof_H 	H 	0.82322	0.35786	0.25945	0.032
Mof_H 	H 	0.3022	0.38519	0.25393	0.026
Mof_H 	H 	0.41193	0.89905	0.09463	0.021
Mof_H 	H 	0.8081	0.93253	0.00301	0.037
Mof_H 	H 	0.74021	0.55576	0.47953	0.032
Mof_H 	H 	0.24114	0.53609	0.39167	0.019
Mof_H 	H 	0.43623	0.14214	0.25945	0.031
Mof_H 	H 	0.95174	0.11481	0.25393	0.022
Mof_H 	H 	0.68438	0.60024	0.09409	0.021
Mof_H 	H 	0.19532	0.56833	0.00395	0.035
Mof_H 	H 	0.73947	0.94391	0.47912	0.032
Mof_H 	H 	0.15113	0.96426	0.39192	0.021
_end
