data_functionalizedCrystal
_audit_creation_method	'EQeq! by Chris Wilmer'
_symmetry_space_group_name_H-M	'P1'
_symmetry_Int_Tables_number	1
_symmetry_cell_setting	triclinic
loop_
_symmetry_equiv_pos_as_xyz
  x,y,z
_cell_length_a	7.8177
_cell_length_b	8.4322
_cell_length_c	9.4845
_cell_angle_alpha	90
_cell_angle_beta	90
_cell_angle_gamma	117.617
loop_
_atom_site_label
_atom_site_type_symbol
_atom_site_fract_x
_atom_site_fract_y
_atom_site_fract_z
_atom_site_charge
Mof_Y 	Y 	0.7068	0.4136	0.75	1.564
Mof_Y 	Y 	0.2926	0.5852	0.75	1.624
Mof_Y 	Y 	0.2932	0.5864	0.25	1.562
Mof_Y 	Y 	0.7074	0.4148	0.25	1.624
Mof_C 	C 	0.593	0.986	0.747	0.245
Mof_C 	C 	0.083	0.55	0.497	0.548
Mof_C 	C 	0.407	0.014	0.247	0.245
Mof_C 	C 	0.917	0.45	0.997	0.552
Mof_C 	C 	0.393	0.986	0.753	0.246
Mof_C 	C 	0.467	0.55	0.003	0.549
Mof_C 	C 	0.607	0.014	0.253	0.246
Mof_C 	C 	0.533	0.45	0.503	0.549
Mof_O 	O 	0.74	0.142	0.754	-0.341
Mof_O 	O 	0.5845	0.837	0.717	-0.397
Mof_O 	O 	0.99	0.474	0.613	-0.539
Mof_O 	O 	0.2651	0.6298	0.495	-0.55
Mof_O 	O 	0.993	0.526	0.377	-0.559
Mof_O 	O 	0.26	0.858	0.254	-0.342
Mof_O 	O 	0.4155	0.163	0.217	-0.397
Mof_O 	O 	0.01	0.526	0.113	-0.541
Mof_O 	O 	0.7349	0.3702	0.995	-0.55
Mof_O 	O 	0.007	0.474	0.877	-0.561
Mof_O 	O 	0.402	0.142	0.746	-0.343
Mof_O 	O 	0.2525	0.837	0.783	-0.397
Mof_O 	O 	0.484	0.474	0.887	-0.54
Mof_O 	O 	0.3647	0.6298	0.005	-0.55
Mof_O 	O 	0.533	0.526	0.123	-0.559
Mof_O 	O 	0.598	0.858	0.246	-0.342
Mof_O 	O 	0.7475	0.163	0.283	-0.397
Mof_O 	O 	0.516	0.526	0.387	-0.54
Mof_O 	O 	0.6353	0.3702	0.505	-0.55
Mof_O 	O 	0.467	0.474	0.623	-0.559
_end
