data_functionalizedCrystal
_audit_creation_method	'EQeq! by Chris Wilmer'
_symmetry_space_group_name_H-M	'P1'
_symmetry_Int_Tables_number	1
_symmetry_cell_setting	triclinic
loop_
_symmetry_equiv_pos_as_xyz
  x,y,z
_cell_length_a	9.47
_cell_length_b	9.7845
_cell_length_c	12.7425
_cell_angle_alpha	87.2465
_cell_angle_beta	84.3029
_cell_angle_gamma	61.0577
loop_
_atom_site_label
_atom_site_type_symbol
_atom_site_fract_x
_atom_site_fract_y
_atom_site_fract_z
_atom_site_charge
Mof_Mn	Mn	0.65426	0.69148	-0	0.793
Mof_Mn	Mn	0.34574	0.30852	-0	0.791
Mof_H 	H 	0.4356	0.2338	0.4258	0.073
Mof_H 	H 	0.5554	0.2286	0.259	0.039
Mof_H 	H 	0.0633	0.7646	0.1443	0.111
Mof_H 	H 	0.3117	0.7636	0.1387	-0.002
Mof_H 	H 	0.684	0.1	0.108	0.082
Mof_H 	H 	0.3306	0.2338	0.5742	0.072
Mof_H 	H 	0.216	0.2286	0.741	0.039
Mof_H 	H 	0.1721	0.7646	0.8557	0.124
Mof_H 	H 	0.9247	0.7636	0.8613	0.017
Mof_H 	H 	0.216	0.1	0.892	0.125
Mof_H 	H 	0.5644	0.7662	0.5742	0.072
Mof_H 	H 	0.4446	0.7714	0.741	0.038
Mof_H 	H 	0.9367	0.2354	0.8557	0.122
Mof_H 	H 	0.6883	0.2364	0.8613	0.023
Mof_H 	H 	0.316	0.9	0.892	0.137
Mof_H 	H 	0.6694	0.7662	0.4258	0.072
Mof_H 	H 	0.784	0.7714	0.259	0.039
Mof_H 	H 	0.8279	0.2354	0.1443	0.108
Mof_H 	H 	0.0753	0.2364	0.1387	0.004
Mof_H 	H 	0.784	0.9	0.108	0.092
Mof_C 	C 	0.5089	0.1362	0.3936	-0.103
Mof_C 	C 	0.5813	0.1332	0.2951	0.066
Mof_C 	C 	0.0659	0.8606	0.1425	-0.204
Mof_C 	C 	0.214	0.8598	0.1381	0.11
Mof_C 	C 	0.4682	0.5354	0.9469	0.341
Mof_C 	C 	0.3549	0.1362	0.6064	-0.104
Mof_C 	C 	0.2855	0.1332	0.7049	0.063
Mof_C 	C 	0.0735	0.8606	0.8575	-0.175
Mof_C 	C 	0.9262	0.8598	0.8619	0.14
Mof_C 	C 	0.9964	0.5354	0.0531	0.143
Mof_C 	C 	0.4911	0.8638	0.6064	-0.09
Mof_C 	C 	0.4187	0.8668	0.7049	0.078
Mof_C 	C 	0.9341	0.1394	0.8575	-0.155
Mof_C 	C 	0.786	0.1402	0.8619	0.11
Mof_C 	C 	0.5318	0.4646	0.0531	0.109
Mof_C 	C 	0.6451	0.8638	0.3936	-0.09
Mof_C 	C 	0.7145	0.8668	0.2951	0.079
Mof_C 	C 	0.9265	0.1394	0.1425	-0.186
Mof_C 	C 	0.0738	0.1402	0.1381	0.077
Mof_C 	C 	0.0036	0.4646	0.9469	0.304
Mof_C 	C 	0.5402	0	0.4472	0.039
Mof_C 	C 	0.7645	0	0.1404	-0.174
Mof_C 	C 	0.9233	0	0.1442	0.149
Mof_C 	C 	0.2187	0	0.1328	-0.197
Mof_C 	C 	0.3775	0	0.1175	0.365
Mof_C 	C 	0.4598	0	0.5528	0.037
Mof_C 	C 	0.2355	2.63631e-23	0.8596	-0.191
Mof_C 	C 	0.0767	0	0.8558	0.15
Mof_C 	C 	0.7813	0	0.8672	-0.164
Mof_C 	C 	0.6225	-2.63631e-23	0.8825	0.38
Mof_N 	N 	0.6868	0	0.2491	-0.109
Mof_N 	N 	0.3132	0	0.7509	-0.11
Mof_O 	O 	0.50543	0.87074	0.1123	-0.359
Mof_O 	O 	0.5018	0.6374	0.9085	-0.293
Mof_O 	O 	0.38785	0.4853	0.9054	-0.285
Mof_O 	O 	0.62383	0.87074	0.8877	-0.303
Mof_O 	O 	0.8608	0.6374	0.0915	-0.301
Mof_O 	O 	0.12685	0.4853	0.0946	-0.301
Mof_O 	O 	0.49457	0.12926	0.8877	-0.314
Mof_O 	O 	0.4982	0.3626	0.0915	-0.295
Mof_O 	O 	0.61215	0.5147	0.0946	-0.285
Mof_O 	O 	0.37617	0.12926	0.1123	-0.37
Mof_O 	O 	0.1392	0.3626	0.9085	-0.287
Mof_O 	O 	0.87315	0.5147	0.9054	-0.266
_end
