data_functionalizedCrystal
_audit_creation_method	'EQeq! by Chris Wilmer'
_symmetry_space_group_name_H-M	'P1'
_symmetry_Int_Tables_number	1
_symmetry_cell_setting	triclinic
loop_
_symmetry_equiv_pos_as_xyz
  x,y,z
_cell_length_a	9.4586
_cell_length_b	26.769
_cell_length_c	32.377
_cell_angle_alpha	90
_cell_angle_beta	90
_cell_angle_gamma	90
loop_
_atom_site_label
_atom_site_type_symbol
_atom_site_fract_x
_atom_site_fract_y
_atom_site_fract_z
_atom_site_charge
Mof_U 	U 	0.23852	0.72561	0.85142	0.051
Mof_U 	U 	0.73679	0.60866	0.90215	0.053
Mof_U 	U 	0.72399	0.94587	0.6546	0.054
Mof_U 	U 	0.7543	0.80358	0.54572	0.055
Mof_U 	U 	0.77411	0.76195	0.70847	0.054
Mof_S 	S 	0.4746	0.71278	0.76708	0.625
Mof_S 	S 	0.0141	0.71523	0.76107	0.561
Mof_S 	S 	0.9574	0.84024	0.63385	0.587
Mof_S 	S 	0.5406	0.82888	0.64097	0.603
Mof_S 	S 	0.0136	0.70195	0.91923	0.558
Mof_S 	S 	0.5122	0.52631	0.84142	0.594
Mof_S 	S 	0.5112	0.68911	0.92531	0.604
Mof_S 	S 	0.9575	0.77665	0.47441	0.601
Mof_S 	S 	0.9744	0.53172	0.84389	0.592
Mof_O 	O 	0.0951	0.7403	0.7946	-0.149
Mof_O 	O 	0.4168	0.7385	0.8041	-0.158
Mof_O 	O 	0.5916	0.5432	0.8783	-0.155
Mof_O 	O 	0.488	0.6361	0.915	-0.16
Mof_O 	O 	0.9037	0.8859	0.6573	-0.147
Mof_O 	O 	0.9909	0.7213	0.8765	-0.145
Mof_O 	O 	0.3889	0.8275	0.6366	-0.159
Mof_O 	O 	0.9211	0.8433	0.5902	-0.158
Mof_O 	O 	0.5841	0.8739	0.663	-0.163
Mof_O 	O 	0.8951	0.7941	0.6516	-0.156
Mof_O 	O 	0.4586	0.7029	0.9652	-0.163
Mof_O 	O 	0.1728	0.6974	0.9222	-0.147
Mof_O 	O 	0.5917	0.7843	0.6645	-0.154
Mof_O 	O 	0.4522	0.722	0.8927	-0.155
Mof_O 	O 	0.8047	0.7648	0.4789	-0.156
Mof_O 	O 	0.8578	0.7187	0.7709	-0.14
Mof_O 	O 	0.3583	0.5338	0.8491	-0.151
Mof_O 	O 	0.0588	0.663	0.7562	-0.147
Mof_O 	O 	0.0785	0.4953	0.8594	-0.156
Mof_O 	O 	0.0264	0.7447	0.7219	-0.143
Mof_O 	O 	0.6675	0.6942	0.924	-0.159
Mof_O 	O 	0.9897	0.8045	0.5121	-0.157
Mof_O 	O 	0.9618	0.7344	0.9514	-0.147
Mof_O 	O 	0.5791	0.7488	0.7502	-0.157
Mof_O 	O 	0.3628	0.7043	0.7375	-0.172
Mof_O 	O 	0.9121	0.5549	0.8831	-0.141
Mof_O 	O 	0.6113	0.8292	0.6003	-0.164
Mof_O 	O 	0.5546	0.5527	0.8047	-0.161
Mof_O 	O 	0.0361	0.7282	0.4753	-0.15
Mof_O 	O 	0.9492	0.651	0.9236	-0.14
Mof_O 	O 	0.8597	0.506	0.8219	-0.16
Mof_O 	O 	0.0449	0.5698	0.8202	-0.165
Mof_O 	O 	0.9922	0.8048	0.4384	-0.172
Mof_O 	O 	0.542	0.6677	0.7789	-0.175
Mof_O 	O 	0.5273	0.4713	0.8388	-0.151
Mof_O 	O 	0.1091	0.8381	0.6376	-0.152
Mof_U 	U 	0.26148	0.27439	0.35142	0.051
Mof_U 	U 	0.76321	0.39134	0.40215	0.05
Mof_U 	U 	0.77601	0.05413	0.1546	0.053
Mof_U 	U 	0.7457	0.19642	0.04572	0.055
Mof_U 	U 	0.72589	0.23805	0.20847	0.053
Mof_S 	S 	0.0254	0.28722	0.26708	0.628
Mof_S 	S 	0.4859	0.28477	0.26107	0.562
Mof_S 	S 	0.5426	0.15976	0.13385	0.588
Mof_S 	S 	0.9594	0.17112	0.14097	0.605
Mof_S 	S 	0.4864	0.29805	0.41923	0.573
Mof_S 	S 	0.9878	0.47369	0.34142	0.59
Mof_S 	S 	0.9888	0.31089	0.42531	0.585
Mof_S 	S 	0.5425	0.22335	0.97441	0.603
Mof_S 	S 	0.5256	0.46828	0.34389	0.588
Mof_O 	O 	0.4049	0.2597	0.2946	-0.148
Mof_O 	O 	0.0832	0.2615	0.3041	-0.158
Mof_O 	O 	0.9084	0.4568	0.3783	-0.156
Mof_O 	O 	0.012	0.3639	0.415	-0.153
Mof_O 	O 	0.5963	0.1141	0.1573	-0.147
Mof_O 	O 	0.5091	0.2787	0.3765	-0.151
Mof_O 	O 	0.1111	0.1725	0.1366	-0.161
Mof_O 	O 	0.5789	0.1567	0.0902	-0.158
Mof_O 	O 	0.9159	0.1261	0.163	-0.163
Mof_O 	O 	0.6049	0.2059	0.1516	-0.156
Mof_O 	O 	0.0414	0.2971	0.4652	-0.155
Mof_O 	O 	0.3272	0.3026	0.4222	-0.148
Mof_O 	O 	0.9083	0.2157	0.1645	-0.155
Mof_O 	O 	0.0478	0.278	0.3927	-0.148
Mof_O 	O 	0.6953	0.2352	0.9789	-0.156
Mof_O 	O 	0.6422	0.2813	0.2709	-0.141
Mof_O 	O 	0.1417	0.4662	0.3491	-0.149
Mof_O 	O 	0.4412	0.337	0.2562	-0.148
Mof_O 	O 	0.4215	0.5047	0.3594	-0.154
Mof_O 	O 	0.4736	0.2553	0.2219	-0.144
Mof_O 	O 	0.8325	0.3058	0.424	-0.157
Mof_O 	O 	0.5103	0.1955	0.0121	-0.157
Mof_O 	O 	0.5382	0.2656	0.4514	-0.154
Mof_O 	O 	0.9209	0.2512	0.2502	-0.158
Mof_O 	O 	0.1372	0.2957	0.2375	-0.172
Mof_O 	O 	0.5879	0.4451	0.3831	-0.141
Mof_O 	O 	0.8887	0.1708	0.1003	-0.163
Mof_O 	O 	0.9454	0.4473	0.3047	-0.161
Mof_O 	O 	0.4639	0.2718	0.9753	-0.152
Mof_O 	O 	0.5508	0.349	0.4236	-0.146
Mof_O 	O 	0.6403	0.494	0.3219	-0.159
Mof_O 	O 	0.4551	0.4302	0.3202	-0.163
Mof_O 	O 	0.5078	0.1952	0.9384	-0.171
Mof_O 	O 	0.958	0.3323	0.2789	-0.177
Mof_O 	O 	0.9727	0.5287	0.3388	-0.152
Mof_O 	O 	0.3909	0.1619	0.1376	-0.153
Mof_U 	U 	0.76148	0.22561	0.64858	0.05
Mof_U 	U 	0.26321	0.10866	0.59785	0.052
Mof_U 	U 	0.27601	0.44587	0.8454	0.053
Mof_U 	U 	0.2457	0.30358	0.95428	0.054
Mof_U 	U 	0.22589	0.26195	0.79153	0.053
Mof_S 	S 	0.5254	0.21278	0.73292	0.624
Mof_S 	S 	0.9859	0.21523	0.73893	0.56
Mof_S 	S 	0.0426	0.34024	0.86615	0.586
Mof_S 	S 	0.4594	0.32888	0.85903	0.602
Mof_S 	S 	0.9864	0.20195	0.58077	0.556
Mof_S 	S 	0.4878	0.02631	0.65858	0.593
Mof_S 	S 	0.4888	0.18911	0.57469	0.603
Mof_S 	S 	0.0425	0.27665	0.02559	0.6
Mof_S 	S 	0.0256	0.03172	0.65611	0.593
Mof_O 	O 	0.9049	0.2403	0.7054	-0.149
Mof_O 	O 	0.5832	0.2385	0.6959	-0.158
Mof_O 	O 	0.4084	0.0432	0.6217	-0.155
Mof_O 	O 	0.512	0.1361	0.585	-0.16
Mof_O 	O 	0.0963	0.3859	0.8427	-0.147
Mof_O 	O 	0.0091	0.2213	0.6235	-0.144
Mof_O 	O 	0.6111	0.3275	0.8634	-0.159
Mof_O 	O 	0.0789	0.3433	0.9098	-0.158
Mof_O 	O 	0.4159	0.3739	0.837	-0.163
Mof_O 	O 	0.1049	0.2941	0.8484	-0.156
Mof_O 	O 	0.5414	0.2029	0.5348	-0.163
Mof_O 	O 	0.8272	0.1974	0.5778	-0.147
Mof_O 	O 	0.4083	0.2843	0.8355	-0.154
Mof_O 	O 	0.5478	0.222	0.6073	-0.155
Mof_O 	O 	0.1953	0.2648	0.0211	-0.156
Mof_O 	O 	0.1422	0.2187	0.7291	-0.139
Mof_O 	O 	0.6417	0.0338	0.6509	-0.152
Mof_O 	O 	0.9412	0.163	0.7438	-0.147
Mof_O 	O 	0.9215	0.9953	0.6406	-0.156
Mof_O 	O 	0.9736	0.2447	0.7781	-0.143
Mof_O 	O 	0.3325	0.1942	0.576	-0.159
Mof_O 	O 	0.0103	0.3045	0.9879	-0.157
Mof_O 	O 	0.0382	0.2344	0.5486	-0.147
Mof_O 	O 	0.4209	0.2488	0.7498	-0.157
Mof_O 	O 	0.6372	0.2043	0.7625	-0.172
Mof_O 	O 	0.0879	0.0549	0.6169	-0.141
Mof_O 	O 	0.3887	0.3292	0.8997	-0.164
Mof_O 	O 	0.4454	0.0527	0.6953	-0.161
Mof_O 	O 	0.9639	0.2282	0.0247	-0.15
Mof_O 	O 	0.0508	0.151	0.5764	-0.14
Mof_O 	O 	0.1403	0.006	0.6781	-0.16
Mof_O 	O 	0.9551	0.0698	0.6798	-0.166
Mof_O 	O 	0.0078	0.3048	0.0616	-0.172
Mof_O 	O 	0.458	0.1677	0.7211	-0.175
Mof_O 	O 	0.4727	0.9713	0.6612	-0.151
Mof_O 	O 	0.8909	0.3381	0.8624	-0.152
Mof_U 	U 	0.73852	0.77439	0.14858	0.051
Mof_U 	U 	0.23679	0.89134	0.09785	0.05
Mof_U 	U 	0.22399	0.55413	0.3454	0.054
Mof_U 	U 	0.2543	0.69642	0.45428	0.055
Mof_U 	U 	0.27411	0.73805	0.29153	0.053
Mof_S 	S 	0.9746	0.78722	0.23292	0.628
Mof_S 	S 	0.5141	0.78477	0.23893	0.562
Mof_S 	S 	0.4574	0.65976	0.36615	0.588
Mof_S 	S 	0.0406	0.67112	0.35903	0.605
Mof_S 	S 	0.5136	0.79805	0.08077	0.573
Mof_S 	S 	0.0122	0.97369	0.15858	0.589
Mof_S 	S 	0.0112	0.81089	0.07469	0.585
Mof_S 	S 	0.4575	0.72335	0.52559	0.603
Mof_S 	S 	0.4744	0.96828	0.15611	0.588
Mof_O 	O 	0.5951	0.7597	0.2054	-0.148
Mof_O 	O 	0.9168	0.7615	0.1959	-0.158
Mof_O 	O 	0.0916	0.9568	0.1217	-0.156
Mof_O 	O 	0.988	0.8639	0.085	-0.153
Mof_O 	O 	0.4037	0.6141	0.3427	-0.147
Mof_O 	O 	0.4909	0.7787	0.1235	-0.151
Mof_O 	O 	0.8889	0.6725	0.3634	-0.161
Mof_O 	O 	0.4211	0.6567	0.4098	-0.158
Mof_O 	O 	0.0841	0.6261	0.337	-0.163
Mof_O 	O 	0.3951	0.7059	0.3484	-0.156
Mof_O 	O 	0.9586	0.7971	0.0348	-0.155
Mof_O 	O 	0.6728	0.8026	0.0778	-0.148
Mof_O 	O 	0.0917	0.7157	0.3355	-0.155
Mof_O 	O 	0.9522	0.778	0.1073	-0.148
Mof_O 	O 	0.3047	0.7352	0.5211	-0.155
Mof_O 	O 	0.3578	0.7813	0.2291	-0.141
Mof_O 	O 	0.8583	0.9662	0.1509	-0.149
Mof_O 	O 	0.5588	0.837	0.2438	-0.148
Mof_O 	O 	0.5785	0.0047	0.1406	-0.154
Mof_O 	O 	0.5264	0.7553	0.2781	-0.144
Mof_O 	O 	0.1675	0.8058	0.076	-0.157
Mof_O 	O 	0.4897	0.6955	0.4879	-0.157
Mof_O 	O 	0.4618	0.7656	0.0486	-0.154
Mof_O 	O 	0.0791	0.7512	0.2498	-0.158
Mof_O 	O 	0.8628	0.7957	0.2625	-0.172
Mof_O 	O 	0.4121	0.9451	0.1169	-0.141
Mof_O 	O 	0.1113	0.6708	0.3997	-0.163
Mof_O 	O 	0.0546	0.9473	0.1953	-0.161
Mof_O 	O 	0.5361	0.7718	0.5247	-0.152
Mof_O 	O 	0.4492	0.849	0.0764	-0.146
Mof_O 	O 	0.3597	0.994	0.1781	-0.16
Mof_O 	O 	0.5449	0.9302	0.1798	-0.163
Mof_O 	O 	0.4922	0.6952	0.5616	-0.171
Mof_O 	O 	0.042	0.8323	0.2211	-0.177
Mof_O 	O 	0.0273	0.0287	0.1612	-0.151
Mof_O 	O 	0.6091	0.6619	0.3624	-0.153
_end
