data_functionalizedCrystal
_audit_creation_method	'EQeq! by Chris Wilmer'
_symmetry_space_group_name_H-M	'P1'
_symmetry_Int_Tables_number	1
_symmetry_cell_setting	triclinic
loop_
_symmetry_equiv_pos_as_xyz
  x,y,z
_cell_length_a	14.529
_cell_length_b	16.543
_cell_length_c	21.125
_cell_angle_alpha	90
_cell_angle_beta	104.305
_cell_angle_gamma	90
loop_
_atom_site_label
_atom_site_type_symbol
_atom_site_fract_x
_atom_site_fract_y
_atom_site_fract_z
_atom_site_charge
Mof_Zn	Zn	0.4147	0.45544	0.17261	1.211
Mof_O 	O 	0.3413	0.3373	0.0976	-0.364
Mof_O 	O 	0.2765	0.4376	0.1411	-0.431
Mof_O 	O 	0.5517	0.0903	0.6972	-0.404
Mof_O 	O 	0.4557	0.1409	0.754	-0.356
Mof_O 	O 	0.3635	0.7426	0.9107	-0.266
Mof_O 	O 	0.82	0.3505	0.9664	-0.241
Mof_N 	N 	0.4294	0.9499	0.7384	-0.288
Mof_N 	N 	0.4401	0.5203	0.0948	-0.273
Mof_N 	N 	0.4962	0.7638	0.8741	-0.285
Mof_H 	H 	0.5539	0.7447	0.8783	0.158
Mof_N 	N 	0.5016	0.676	0.9536	-0.275
Mof_H 	H 	0.5611	0.6727	0.9511	0.153
Mof_N 	N 	0.9223	0.2758	0.9252	-0.094
Mof_C 	C 	0.2702	0.3754	0.1016	0.324
Mof_C 	C 	0.1757	0.355	0.0634	-0.118
Mof_C 	C 	0.0981	0.4058	0.0589	0.059
Mof_H 	H 	0.1047	0.4539	0.0842	0.032
Mof_C 	C 	0.0109	0.3862	0.0173	-0.14
Mof_H 	H 	0.9579	0.4209	0.0142	0.094
Mof_C 	C 	0.0013	0.3158	0.9803	0.11
Mof_C 	C 	0.0789	0.2651	0.9848	-0.113
Mof_H 	H 	0.0723	0.217	0.9595	0.085
Mof_C 	C 	0.1661	0.2846	0.0264	0.04
Mof_H 	H 	0.2191	0.2499	0.0295	0.03
Mof_C 	C 	0.5366	0.1345	0.7431	0.289
Mof_C 	C 	0.6195	0.1782	0.7844	-0.073
Mof_C 	C 	0.7084	0.1748	0.771	0.01
Mof_H 	H 	0.7162	0.1469	0.7333	0.052
Mof_C 	C 	0.7858	0.2122	0.8126	-0.07
Mof_H 	H 	0.8466	0.2099	0.8034	0.075
Mof_C 	C 	0.7744	0.2529	0.8677	0.043
Mof_C 	C 	0.6855	0.2563	0.8812	-0.096
Mof_H 	H 	0.6777	0.2841	0.9188	0.081
Mof_C 	C 	0.6081	0.2189	0.8395	0.019
Mof_H 	H 	0.5474	0.2212	0.8487	0.045
Mof_C 	C 	0.8391	0.2985	0.9236	0.232
Mof_C 	C 	0.5139	0.914	0.7532	0.142
Mof_H 	H 	0.5606	0.932	0.732	-0.031
Mof_C 	C 	0.537	0.8526	0.7974	-0.247
Mof_H 	H 	0.5979	0.8279	0.8063	0.125
Mof_C 	C 	0.4691	0.8273	0.8289	0.255
Mof_C 	C 	0.3817	0.8628	0.8121	-0.27
Mof_H 	H 	0.333	0.8458	0.832	0.149
Mof_C 	C 	0.3649	0.922	0.7671	0.172
Mof_H 	H 	0.3032	0.9451	0.7554	-0.029
Mof_C 	C 	0.3691	0.5589	0.0533	0.118
Mof_H 	H 	0.3058	0.55	0.0565	-0.006
Mof_C 	C 	0.3848	0.6117	0.0058	-0.234
Mof_H 	H 	0.3325	0.6378	0.9771	0.148
Mof_C 	C 	0.4758	0.6263	-0	0.213
Mof_C 	C 	0.5502	0.5866	0.044	-0.212
Mof_H 	H 	0.6143	0.5946	0.0423	0.105
Mof_C 	C 	0.5276	0.5351	0.0903	0.117
Mof_H 	H 	0.5783	0.5091	0.1204	-0.007
Mof_C 	C 	0.4451	0.7287	0.9118	0.336
Mof_N 	N 	0.8752	0.2794	0.8921	-0.145
Mof_C 	C 	0.894	0.3228	0.953	0.053
Mof_Zn	Zn	0.4147	0.04456	0.67261	1.21
Mof_O 	O 	0.3413	0.1627	0.5976	-0.365
Mof_O 	O 	0.2765	0.0624	0.6411	-0.431
Mof_O 	O 	0.5517	0.4097	0.1972	-0.404
Mof_O 	O 	0.4557	0.3591	0.254	-0.356
Mof_O 	O 	0.3635	0.7574	0.4107	-0.268
Mof_O 	O 	0.82	0.1495	0.4664	-0.244
Mof_N 	N 	0.4294	0.5501	0.2384	-0.289
Mof_N 	N 	0.4401	0.9797	0.5948	-0.272
Mof_N 	N 	0.4962	0.7362	0.3741	-0.285
Mof_H 	H 	0.5539	0.7553	0.3783	0.157
Mof_N 	N 	0.5016	0.824	0.4536	-0.278
Mof_H 	H 	0.5611	0.8273	0.4511	0.152
Mof_N 	N 	0.9223	0.2242	0.4252	-0.093
Mof_C 	C 	0.2702	0.1246	0.6016	0.327
Mof_C 	C 	0.1757	0.145	0.5634	-0.123
Mof_C 	C 	0.0981	0.0942	0.5589	0.062
Mof_H 	H 	0.1047	0.0461	0.5842	0.032
Mof_C 	C 	0.0109	0.1138	0.5173	-0.138
Mof_H 	H 	0.9579	0.0791	0.5142	0.098
Mof_C 	C 	0.0013	0.1842	0.4803	0.111
Mof_C 	C 	0.0789	0.2349	0.4848	-0.128
Mof_H 	H 	0.0723	0.283	0.4595	0.089
Mof_C 	C 	0.1661	0.2154	0.5264	0.054
Mof_H 	H 	0.2191	0.2501	0.5295	0.026
Mof_C 	C 	0.5366	0.3655	0.2431	0.289
Mof_C 	C 	0.6195	0.3218	0.2844	-0.073
Mof_C 	C 	0.7084	0.3252	0.271	0.009
Mof_H 	H 	0.7162	0.3531	0.2333	0.052
Mof_C 	C 	0.7858	0.2878	0.3126	-0.068
Mof_H 	H 	0.8466	0.2901	0.3034	0.073
Mof_C 	C 	0.7744	0.2471	0.3677	0.039
Mof_C 	C 	0.6855	0.2437	0.3812	-0.095
Mof_H 	H 	0.6777	0.2159	0.4188	0.079
Mof_C 	C 	0.6081	0.2811	0.3395	0.018
Mof_H 	H 	0.5474	0.2788	0.3487	0.044
Mof_C 	C 	0.8391	0.2015	0.4236	0.239
Mof_C 	C 	0.5139	0.586	0.2532	0.142
Mof_H 	H 	0.5606	0.568	0.232	-0.031
Mof_C 	C 	0.537	0.6474	0.2974	-0.247
Mof_H 	H 	0.5979	0.6721	0.3063	0.124
Mof_C 	C 	0.4691	0.6727	0.3289	0.254
Mof_C 	C 	0.3817	0.6372	0.3121	-0.27
Mof_H 	H 	0.333	0.6542	0.332	0.148
Mof_C 	C 	0.3649	0.578	0.2671	0.172
Mof_H 	H 	0.3032	0.5549	0.2554	-0.03
Mof_C 	C 	0.3691	0.9411	0.5533	0.112
Mof_H 	H 	0.3058	0.95	0.5565	-0.003
Mof_C 	C 	0.3848	0.8883	0.5058	-0.217
Mof_H 	H 	0.3325	0.8622	0.4771	0.137
Mof_C 	C 	0.4758	0.8737	0.5	0.215
Mof_C 	C 	0.5502	0.9134	0.544	-0.211
Mof_H 	H 	0.6143	0.9054	0.5423	0.107
Mof_C 	C 	0.5276	0.9649	0.5903	0.117
Mof_H 	H 	0.5783	0.9909	0.6204	-0.006
Mof_C 	C 	0.4451	0.7713	0.4118	0.335
Mof_N 	N 	0.8752	0.2206	0.3921	-0.147
Mof_C 	C 	0.894	0.1772	0.453	0.045
Mof_Zn	Zn	0.5853	0.95544	0.32739	1.21
Mof_O 	O 	0.6587	0.8373	0.4024	-0.365
Mof_O 	O 	0.7235	0.9376	0.3589	-0.432
Mof_O 	O 	0.4483	0.5903	0.8028	-0.404
Mof_O 	O 	0.5443	0.6409	0.746	-0.356
Mof_O 	O 	0.6365	0.2426	0.5893	-0.268
Mof_O 	O 	0.18	0.8505	0.5336	-0.244
Mof_N 	N 	0.5706	0.4499	0.7616	-0.289
Mof_N 	N 	0.5599	0.0203	0.4052	-0.272
Mof_N 	N 	0.5038	0.2638	0.6259	-0.285
Mof_H 	H 	0.4461	0.2447	0.6217	0.157
Mof_N 	N 	0.4984	0.176	0.5464	-0.278
Mof_H 	H 	0.4389	0.1727	0.5489	0.152
Mof_N 	N 	0.0777	0.7758	0.5748	-0.093
Mof_C 	C 	0.7298	0.8754	0.3984	0.327
Mof_C 	C 	0.8243	0.855	0.4366	-0.123
Mof_C 	C 	0.9019	0.9058	0.4411	0.063
Mof_H 	H 	0.8953	0.9539	0.4158	0.031
Mof_C 	C 	0.9891	0.8862	0.4827	-0.14
Mof_H 	H 	0.0421	0.9209	0.4858	0.1
Mof_C 	C 	0.9987	0.8158	0.5197	0.11
Mof_C 	C 	0.9211	0.7651	0.5152	-0.128
Mof_H 	H 	0.9277	0.717	0.5405	0.088
Mof_C 	C 	0.8339	0.7846	0.4736	0.055
Mof_H 	H 	0.7809	0.7499	0.4705	0.026
Mof_C 	C 	0.4634	0.6345	0.7569	0.289
Mof_C 	C 	0.3805	0.6782	0.7156	-0.073
Mof_C 	C 	0.2916	0.6748	0.729	0.009
Mof_H 	H 	0.2838	0.6469	0.7667	0.053
Mof_C 	C 	0.2142	0.7122	0.6874	-0.068
Mof_H 	H 	0.1534	0.7099	0.6966	0.074
Mof_C 	C 	0.2256	0.7529	0.6323	0.04
Mof_C 	C 	0.3145	0.7563	0.6188	-0.095
Mof_H 	H 	0.3223	0.7841	0.5812	0.08
Mof_C 	C 	0.3919	0.7189	0.6605	0.018
Mof_H 	H 	0.4526	0.7212	0.6513	0.044
Mof_C 	C 	0.1609	0.7985	0.5764	0.237
Mof_C 	C 	0.4861	0.414	0.7468	0.142
Mof_H 	H 	0.4394	0.432	0.768	-0.031
Mof_C 	C 	0.463	0.3526	0.7026	-0.247
Mof_H 	H 	0.4021	0.3279	0.6937	0.124
Mof_C 	C 	0.5309	0.3273	0.6711	0.254
Mof_C 	C 	0.6183	0.3628	0.6879	-0.27
Mof_H 	H 	0.667	0.3458	0.668	0.148
Mof_C 	C 	0.6351	0.422	0.7329	0.172
Mof_H 	H 	0.6968	0.4451	0.7446	-0.03
Mof_C 	C 	0.6309	0.0589	0.4467	0.112
Mof_H 	H 	0.6942	0.05	0.4435	-0.003
Mof_C 	C 	0.6152	0.1117	0.4942	-0.217
Mof_H 	H 	0.6675	0.1378	0.5229	0.137
Mof_C 	C 	0.5242	0.1263	0.5	0.215
Mof_C 	C 	0.4498	0.0866	0.456	-0.211
Mof_H 	H 	0.3857	0.0946	0.4577	0.107
Mof_C 	C 	0.4724	0.0351	0.4097	0.117
Mof_H 	H 	0.4217	0.0091	0.3796	-0.006
Mof_C 	C 	0.5549	0.2287	0.5882	0.335
Mof_N 	N 	0.1248	0.7794	0.6079	-0.146
Mof_C 	C 	0.106	0.8228	0.547	0.048
Mof_Zn	Zn	0.5853	0.54456	0.82739	1.21
Mof_O 	O 	0.6587	0.6627	0.9024	-0.364
Mof_O 	O 	0.7235	0.5624	0.8589	-0.431
Mof_O 	O 	0.4483	0.9097	0.3028	-0.404
Mof_O 	O 	0.5443	0.8591	0.246	-0.357
Mof_O 	O 	0.6365	0.2574	0.0893	-0.269
Mof_O 	O 	0.18	0.6495	0.0336	-0.247
Mof_N 	N 	0.5706	0.0501	0.2616	-0.288
Mof_N 	N 	0.5599	0.4797	0.9052	-0.265
Mof_N 	N 	0.5038	0.2362	0.1259	-0.284
Mof_H 	H 	0.4461	0.2553	0.1217	0.157
Mof_N 	N 	0.4984	0.324	0.0464	-0.272
Mof_H 	H 	0.4389	0.3273	0.0489	0.149
Mof_N 	N 	0.0777	0.7242	0.0748	-0.091
Mof_C 	C 	0.7298	0.6246	0.8984	0.328
Mof_C 	C 	0.8243	0.645	0.9366	-0.124
Mof_C 	C 	0.9019	0.5942	0.9411	0.06
Mof_H 	H 	0.8953	0.5461	0.9158	0.034
Mof_C 	C 	0.9891	0.6138	0.9827	-0.123
Mof_H 	H 	0.0421	0.5791	0.9858	0.097
Mof_C 	C 	0.9987	0.6842	0.0197	0.099
Mof_C 	C 	0.9211	0.7349	0.0152	-0.139
Mof_H 	H 	0.9277	0.783	0.0405	0.089
Mof_C 	C 	0.8339	0.7154	0.9736	0.068
Mof_H 	H 	0.7809	0.7501	0.9705	0.024
Mof_C 	C 	0.4634	0.8655	0.2569	0.289
Mof_C 	C 	0.3805	0.8218	0.2156	-0.073
Mof_C 	C 	0.2916	0.8252	0.229	0.009
Mof_H 	H 	0.2838	0.8531	0.2667	0.052
Mof_C 	C 	0.2142	0.7878	0.1874	-0.068
Mof_H 	H 	0.1534	0.7901	0.1966	0.074
Mof_C 	C 	0.2256	0.7471	0.1323	0.04
Mof_C 	C 	0.3145	0.7437	0.1188	-0.096
Mof_H 	H 	0.3223	0.7159	0.0812	0.079
Mof_C 	C 	0.3919	0.7811	0.1605	0.018
Mof_H 	H 	0.4526	0.7788	0.1513	0.043
Mof_C 	C 	0.1609	0.7015	0.0764	0.236
Mof_C 	C 	0.4861	0.086	0.2468	0.141
Mof_H 	H 	0.4394	0.068	0.268	-0.031
Mof_C 	C 	0.463	0.1474	0.2026	-0.247
Mof_H 	H 	0.4021	0.1721	0.1937	0.124
Mof_C 	C 	0.5309	0.1727	0.1711	0.254
Mof_C 	C 	0.6183	0.1372	0.1879	-0.269
Mof_H 	H 	0.667	0.1542	0.168	0.147
Mof_C 	C 	0.6351	0.078	0.2329	0.171
Mof_H 	H 	0.6968	0.0549	0.2446	-0.03
Mof_C 	C 	0.6309	0.4411	0.9467	0.092
Mof_H 	H 	0.6942	0.45	0.9435	0.005
Mof_C 	C 	0.6152	0.3883	0.9942	-0.172
Mof_H 	H 	0.6675	0.3622	0.0229	0.116
Mof_C 	C 	0.5242	0.3737	-0	0.181
Mof_C 	C 	0.4498	0.4134	0.956	-0.184
Mof_H 	H 	0.3857	0.4054	0.9577	0.102
Mof_C 	C 	0.4724	0.4649	0.9097	0.105
Mof_H 	H 	0.4217	0.4909	0.8796	-0.002
Mof_C 	C 	0.5549	0.2713	0.0882	0.333
Mof_N 	N 	0.1248	0.7206	0.1079	-0.147
Mof_C 	C 	0.106	0.6772	0.047	0.048
_end
