data_functionalizedCrystal
_audit_creation_method	'EQeq! by Chris Wilmer'
_symmetry_space_group_name_H-M	'P1'
_symmetry_Int_Tables_number	1
_symmetry_cell_setting	triclinic
loop_
_symmetry_equiv_pos_as_xyz
  x,y,z
_cell_length_a	16.308
_cell_length_b	16.5605
_cell_length_c	21.1491
_cell_angle_alpha	79.057
_cell_angle_beta	67.3223
_cell_angle_gamma	60.5031
loop_
_atom_site_label
_atom_site_type_symbol
_atom_site_fract_x
_atom_site_fract_y
_atom_site_fract_z
_atom_site_charge
Mof_Eu	Eu	0.99419	0.88196	0.19547	2.223
Mof_Eu	Eu	0.00581	0.11804	0.80453	2.223
Mof_Eu	Eu	0.57161	0.61805	0.30454	2.257
Mof_Eu	Eu	0.37616	0.11804	0.69546	2.254
Mof_Eu	Eu	0.31033	0.61805	0.19547	2.258
Mof_Eu	Eu	0.62384	0.88196	0.30454	2.255
Mof_Eu	Eu	0.68967	0.38195	0.80453	2.258
Mof_Eu	Eu	0.42839	0.38195	0.69546	2.258
Mof_H 	H 	0.4903	0.0158	0.1094	0.053
Mof_H 	H 	0.1051	0.2898	0.75	-0.051
Mof_H 	H 	0.6384	0.9906	0.9072	0.055
Mof_H 	H 	0.9059	0.954	0.3832	0.012
Mof_H 	H 	0.2109	0.546	0.3832	0.01
Mof_H 	H 	0.8624	0.5316	0.7474	0.001
Mof_H 	H 	0.2569	0.454	0.8832	0.01
Mof_H 	H 	0.4215	0.508	0.4562	0.005
Mof_H 	H 	0.871	0.9906	0.5928	0.061
Mof_H 	H 	0.0061	0.9842	0.6094	0.051
Mof_H 	H 	0.8591	0.4362	0.93	0.026
Mof_H 	H 	0.9638	0.4906	0.4072	0.056
Mof_H 	H 	0.3599	0.046	0.8832	0.015
Mof_H 	H 	0.7253	0.0638	0.57	0.029
Mof_H 	H 	0.1155	0.4842	0.3906	0.053
Mof_H 	H 	0.1376	0.4684	0.2526	0.001
Mof_H 	H 	0.8857	0.992	0.0438	0.008
Mof_H 	H 	0.8902	0.9684	0.7474	-0.016
Mof_H 	H 	0.0456	0.4906	0.0928	0.053
Mof_H 	H 	0.7891	0.454	0.6168	0.01
Mof_H 	H 	0.106	0.5316	0.7526	0.002
Mof_H 	H 	0.5097	0.9842	0.8906	0.053
Mof_H 	H 	0.3586	0.0316	0.2474	-0.01
Mof_H 	H 	0.0362	0.5094	0.5928	0.056
Mof_H 	H 	0.4295	0.492	0.9562	0.005
Mof_H 	H 	0.2747	0.9362	0.43	0.029
Mof_H 	H 	0.7431	0.546	0.1168	0.01
Mof_H 	H 	0.3777	0.008	0.5438	0.008
Mof_H 	H 	0.6449	0.2102	0.75	-0.058
Mof_H 	H 	0.0941	0.046	0.6168	0.012
Mof_H 	H 	0.2891	0.9362	0.07	0.03
Mof_H 	H 	0.3551	0.7898	0.25	-0.058
Mof_H 	H 	0.6223	0.992	0.4562	0.008
Mof_H 	H 	0.7953	0.5638	0.43	0.026
Mof_H 	H 	0.5705	0.508	0.0438	0.005
Mof_H 	H 	0.0997	0.5158	0.8906	0.056
Mof_H 	H 	0.129	0.0094	0.4072	0.061
Mof_H 	H 	0.1143	0.008	0.9562	0.008
Mof_H 	H 	0.7109	0.0638	0.93	0.03
Mof_H 	H 	0.9939	0.0158	0.3906	0.051
Mof_H 	H 	0.6414	0.9684	0.7526	-0.01
Mof_H 	H 	0.3616	0.0094	0.0928	0.055
Mof_H 	H 	0.1098	0.0316	0.2526	-0.016
Mof_H 	H 	0.894	0.4684	0.2474	0.002
Mof_H 	H 	0.2047	0.4362	0.57	0.026
Mof_H 	H 	0.9003	0.4842	0.1094	0.056
Mof_H 	H 	0.1409	0.5638	0.07	0.026
Mof_H 	H 	0.8845	0.5158	0.6094	0.053
Mof_H 	H 	0.9544	0.5094	0.9072	0.053
Mof_H 	H 	0.5785	0.492	0.5438	0.005
Mof_H 	H 	0.6401	0.954	0.1168	0.015
Mof_H 	H 	0.8949	0.7102	0.25	-0.051
Mof_C 	C 	0.49463	0.00968	0.06526	-0.06
Mof_C 	C 	0.08039	0.64802	0.25104	0.542
Mof_C 	C 	0.78501	0.92946	0.34432	0.583
Mof_C 	C 	0.35546	0.46888	0.90906	-0.23
Mof_C 	C 	0.44121	0.42946	0.84432	0.588
Mof_C 	C 	0.02446	0.45108	0.25	-0.071
Mof_C 	C 	0.07287	0.35426	0.75	0.155
Mof_C 	C 	0.9239	0.6522	0.75	0.026
Mof_C 	C 	0.73649	0.0387	0.52992	0.01
Mof_C 	C 	0.19	0.2014	0.2866	-0.022
Mof_C 	C 	0.06957	0.49032	0.43474	-0.061
Mof_C 	C 	0.50537	0.99032	0.93474	-0.06
Mof_C 	C 	0.0234	0.2986	0.2866	-0.017
Mof_C 	C 	0.97777	0.49466	0.4448	-0.064
Mof_C 	C 	0.22554	0.04892	0.25	-0.105
Mof_C 	C 	0.1418	0.2972	0.2866	-0.014
Mof_C 	C 	0.67566	0.46888	0.59094	-0.23
Mof_C 	C 	0.17586	0.99944	0.25152	0.111
Mof_C 	C 	0.94011	0.49032	0.06526	-0.069
Mof_C 	C 	0.77618	0.09726	0.74864	-0.251
Mof_C 	C 	0.80806	0.0338	0.97868	-0.115
Mof_C 	C 	0.7744	0.7972	0.7866	-0.018
Mof_C 	C 	0.0716	0.2028	0.2866	-0.019
Mof_C 	C 	0.99569	0.00968	0.43474	-0.046
Mof_C 	C 	0.82915	0.9974	0.03856	0.075
Mof_C 	C 	0.12387	0.93456	0.0775	0.328
Mof_C 	C 	0.29863	0.56544	0.0775	0.334
Mof_C 	C 	0.23359	0.4613	0.52992	0.016
Mof_C 	C 	0.47945	0.85198	0.24896	0.552
Mof_C 	C 	0.22382	0.90274	0.25136	-0.251
Mof_C 	C 	0.84411	0.97342	0.41826	0.049
Mof_C 	C 	0.55879	0.57054	0.15568	0.588
Mof_C 	C 	0.63593	0.56544	0.4225	0.334
Mof_C 	C 	0.72481	0.0387	0.97008	0.005
Mof_C 	C 	0.68247	0.97342	0.08174	0.047
Mof_C 	C 	0.62656	0.09726	0.75136	-0.25
Mof_C 	C 	0.76452	0.96888	0.09094	-0.219
Mof_C 	C 	0.26421	0.47342	0.91826	0.062
Mof_C 	C 	0.87613	0.06544	0.9225	0.328
Mof_C 	C 	0.07743	0.00534	0.4448	-0.086
Mof_C 	C 	0.97554	0.54892	0.75	-0.071
Mof_C 	C 	0.8914	0.7986	0.7866	-0.022
Mof_C 	C 	0.91675	0.00482	0.49008	0.044
Mof_C 	C 	0.2334	0.03112	0.59094	-0.223
Mof_C 	C 	0.3247	0.99944	0.24848	0.103
Mof_C 	C 	0.23763	0.52658	0.41826	0.062
Mof_C 	C 	0.12208	0.40274	0.75136	-0.231
Mof_C 	C 	0.67946	0.5338	0.47868	-0.134
Mof_C 	C 	0.66247	0.00662	0.02064	-0.047
Mof_C 	C 	0.822	0.7014	0.7866	-0.017
Mof_C 	C 	0.87792	0.59726	0.24864	-0.231
Mof_C 	C 	0.91165	0.49518	0.00992	0.032
Mof_C 	C 	0.7666	0.96888	0.40906	-0.223
Mof_C 	C 	0.78553	0.92946	0.15568	0.582
Mof_C 	C 	0.92682	0.50056	0.24848	0.071
Mof_C 	C 	0.70137	0.43456	0.9225	0.334
Mof_C 	C 	0.67345	0.9974	0.46144	0.087
Mof_C 	C 	0.57843	0.00482	0.00992	0.034
Mof_C 	C 	0.061	0.2972	0.2134	-0.013
Mof_C 	C 	0.37067	0.57054	0.34432	0.588
Mof_C 	C 	0.05989	0.50968	0.93474	-0.069
Mof_C 	C 	0.07318	0.49944	0.75152	0.071
Mof_C 	C 	0.33753	0.99338	0.97936	-0.047
Mof_C 	C 	0.83143	0.14802	0.74896	0.552
Mof_C 	C 	0.1086	0.2014	0.2134	-0.022
Mof_C 	C 	0.31753	0.02658	0.91826	0.047
Mof_C 	C 	0.58277	0.99466	0.9448	-0.063
Mof_C 	C 	0.65814	0.0338	0.52132	-0.125
Mof_C 	C 	0.09317	0.49518	0.49008	0.038
Mof_C 	C 	0.97518	0.40274	0.74864	-0.225
Mof_C 	C 	0.08325	0.99518	0.50992	0.044
Mof_C 	C 	0.36407	0.43456	0.5775	0.334
Mof_C 	C 	0.32054	0.4662	0.52132	-0.134
Mof_C 	C 	0.26351	0.9613	0.47008	0.01
Mof_C 	C 	0.9284	0.7972	0.7134	-0.019
Mof_C 	C 	0.55843	0.06544	0.5775	0.332
Mof_C 	C 	0.18973	0.49338	0.47936	-0.058
Mof_C 	C 	0.32655	0.0026	0.53856	0.087
Mof_C 	C 	0.23548	0.03112	0.90906	-0.219
Mof_C 	C 	0.77159	0.64802	0.24896	0.545
Mof_C 	C 	0.37344	0.90274	0.24864	-0.25
Mof_C 	C 	0.73579	0.52658	0.08174	0.062
Mof_C 	C 	0.81689	0.49338	0.02064	-0.061
Mof_C 	C 	0.52055	0.14802	0.75104	0.552
Mof_C 	C 	0.9766	0.7014	0.7134	-0.017
Mof_C 	C 	0.15589	0.02658	0.58174	0.049
Mof_C 	C 	0.63489	0.4974	0.53856	0.098
Mof_C 	C 	0.91961	0.35198	0.74896	0.542
Mof_C 	C 	0.32434	0.53112	0.40906	-0.23
Mof_C 	C 	0.939	0.7028	0.7866	-0.013
Mof_C 	C 	0.27519	0.9613	0.02992	0.005
Mof_C 	C 	0.93043	0.50968	0.56526	-0.061
Mof_C 	C 	0.92713	0.64574	0.25	0.155
Mof_C 	C 	0.82414	0.00056	0.74848	0.111
Mof_C 	C 	0.34186	0.9662	0.47868	-0.125
Mof_C 	C 	0.08835	0.50482	0.99008	0.032
Mof_C 	C 	0.92257	0.99466	0.5552	-0.086
Mof_C 	C 	0.42157	0.99518	0.99008	0.034
Mof_C 	C 	0.00431	0.99032	0.56526	-0.046
Mof_C 	C 	0.02223	0.50534	0.5552	-0.064
Mof_C 	C 	0.81027	0.50662	0.52064	-0.058
Mof_C 	C 	0.07262	0.50056	0.25152	0.071
Mof_C 	C 	0.32287	0.85426	0.25	0.18
Mof_C 	C 	0.19194	0.9662	0.02132	-0.115
Mof_C 	C 	0.44157	0.93456	0.4225	0.332
Mof_C 	C 	0.80511	0.4613	0.97008	0.019
Mof_C 	C 	0.97243	0.50534	0.9448	-0.051
Mof_C 	C 	0.8582	0.7028	0.7134	-0.014
Mof_C 	C 	0.2256	0.2028	0.2134	-0.018
Mof_C 	C 	0.77446	0.95108	0.75	-0.105
Mof_C 	C 	0.178	0.2986	0.2134	-0.017
Mof_C 	C 	0.71326	0.4662	0.97868	-0.133
Mof_C 	C 	0.6753	0.00056	0.75152	0.103
Mof_C 	C 	0.18311	0.50662	0.97936	-0.061
Mof_C 	C 	0.17085	0.0026	0.96144	0.075
Mof_C 	C 	0.36771	0.4974	0.96144	0.095
Mof_C 	C 	0.22841	0.35198	0.75104	0.545
Mof_C 	C 	0.76641	0.5387	0.47008	0.016
Mof_C 	C 	0.0761	0.3478	0.25	0.026
Mof_C 	C 	0.16857	0.85198	0.25104	0.552
Mof_C 	C 	0.41723	0.00534	0.0552	-0.063
Mof_C 	C 	0.67713	0.14574	0.75	0.18
Mof_C 	C 	0.92738	0.49944	0.74848	0.071
Mof_C 	C 	0.90683	0.50482	0.50992	0.038
Mof_C 	C 	0.76237	0.47342	0.58174	0.062
Mof_C 	C 	0.81	0.7986	0.7134	-0.022
Mof_C 	C 	0.16909	0.99338	0.52064	-0.048
Mof_C 	C 	0.8261	0.8478	0.75	0.041
Mof_C 	C 	0.64454	0.53112	0.09094	-0.23
Mof_C 	C 	0.21447	0.07054	0.84432	0.582
Mof_C 	C 	0.02482	0.59726	0.25136	-0.225
Mof_C 	C 	0.63229	0.5026	0.03856	0.095
Mof_C 	C 	0.02757	0.49466	0.0552	-0.051
Mof_C 	C 	0.1739	0.1522	0.25	0.041
Mof_C 	C 	0.62933	0.42946	0.65568	0.588
Mof_C 	C 	0.19489	0.5387	0.02992	0.019
Mof_C 	C 	0.21499	0.07054	0.65568	0.583
Mof_C 	C 	0.36511	0.5026	0.46144	0.098
Mof_C 	C 	0.83091	0.00662	0.47936	-0.048
Mof_C 	C 	0.28674	0.5338	0.02132	-0.133
Mof_O 	O 	0.83827	0.39766	0.73766	-0.557
Mof_O 	O 	0.28679	0.07114	0.6631	-0.643
Mof_O 	O 	0.57119	0.60264	0.19802	-0.606
Mof_O 	O 	0.0336	0.9693	0.08342	-0.449
Mof_O 	O 	0.47897	0.57114	0.1631	-0.644
Mof_O 	O 	0.48549	0.23286	0.73892	-0.616
Mof_O 	O 	0.21835	0.76714	0.23892	-0.615
Mof_O 	O 	0.73593	0.60234	0.23766	-0.558
Mof_O 	O 	0.9664	0.0307	0.91658	-0.449
Mof_O 	O 	0.51451	0.76714	0.26108	-0.616
Mof_O 	O 	0.53317	0.12586	0.61922	-0.496
Mof_O 	O 	0.16173	0.60234	0.26234	-0.557
Mof_O 	O 	0.61702	0.4693	0.91658	-0.46
Mof_O 	O 	0.46683	0.87414	0.38078	-0.496
Mof_O 	O 	0.5029	0.0307	0.58342	-0.459
Mof_O 	O 	0.26921	0.10264	0.80198	-0.605
Mof_O 	O 	0.42881	0.39736	0.80198	-0.606
Mof_O 	O 	0.27559	0.26714	0.73892	-0.614
Mof_O 	O 	0.07593	0.89766	0.26234	-0.552
Mof_O 	O 	0.52641	0.89766	0.23766	-0.56
Mof_O 	O 	0.4971	0.9693	0.41658	-0.459
Mof_O 	O 	0.84097	0.12586	0.88078	-0.49
Mof_O 	O 	0.47359	0.10234	0.76234	-0.56
Mof_O 	O 	0.85793	0.92886	0.1631	-0.641
Mof_O 	O 	0.32617	0.60264	0.30198	-0.606
Mof_O 	O 	0.65239	0.62586	0.38078	-0.497
Mof_O 	O 	0.38298	0.5307	0.08342	-0.46
Mof_O 	O 	0.73079	0.89736	0.19802	-0.605
Mof_O 	O 	0.72441	0.73286	0.26108	-0.614
Mof_O 	O 	0.15903	0.87414	0.11922	-0.49
Mof_O 	O 	0.77825	0.37414	0.88078	-0.495
Mof_O 	O 	0.87185	0.89736	0.30198	-0.604
Mof_O 	O 	0.34761	0.37414	0.61922	-0.497
Mof_O 	O 	0.14207	0.07114	0.8369	-0.641
Mof_O 	O 	0.41368	0.4693	0.58342	-0.46
Mof_O 	O 	0.44989	0.57114	0.3369	-0.644
Mof_O 	O 	0.67383	0.39736	0.69802	-0.606
Mof_O 	O 	0.95727	0.26714	0.76108	-0.605
Mof_O 	O 	0.52103	0.42886	0.8369	-0.644
Mof_O 	O 	0.04273	0.73286	0.23892	-0.605
Mof_O 	O 	0.78165	0.23286	0.76108	-0.615
Mof_O 	O 	0.58632	0.5307	0.41658	-0.46
Mof_O 	O 	0.12815	0.10264	0.69802	-0.604
Mof_O 	O 	0.55011	0.42886	0.6631	-0.644
Mof_O 	O 	0.71321	0.92886	0.3369	-0.643
Mof_O 	O 	0.26407	0.39766	0.76234	-0.558
Mof_O 	O 	0.92407	0.10234	0.73766	-0.552
Mof_O 	O 	0.22175	0.62586	0.11922	-0.495
_end
