data_functionalizedCrystal
_audit_creation_method	'EQeq! by Chris Wilmer'
_symmetry_space_group_name_H-M	'P1'
_symmetry_Int_Tables_number	1
_symmetry_cell_setting	triclinic
loop_
_symmetry_equiv_pos_as_xyz
  x,y,z
_cell_length_a	9.758
_cell_length_b	11.89
_cell_length_c	15.22
_cell_angle_alpha	95.544
_cell_angle_beta	99.068
_cell_angle_gamma	112.874
loop_
_atom_site_label
_atom_site_type_symbol
_atom_site_fract_x
_atom_site_fract_y
_atom_site_fract_z
_atom_site_charge
Mof_Zn	Zn	0.00986	0.9281	0.20549	1.202
Mof_Zn	Zn	0.55713	0.89077	0.43142	1.189
Mof_Zn	Zn	0.10884	0.81187	0.83079	1.205
Mof_Zn	Zn	0.99014	0.0719	0.79451	1.18
Mof_Zn	Zn	0.44287	0.10923	0.56858	1.183
Mof_Zn	Zn	0.89116	0.18813	0.16921	1.19
Mof_Zn	Zn	0.5	0	-0	1.129
Mof_H 	H 	0.3163	0.0338	0.1435	-0.075
Mof_H 	H 	0.927	0.8233	0.9871	0.042
Mof_H 	H 	0.8226	0.8634	0.3558	-0.021
Mof_H 	H 	0.6505	0.0962	0.297	-0.034
Mof_H 	H 	0.2768	0.8352	0.272	-0.041
Mof_H 	H 	0.1801	0.0783	0.4046	-0.014
Mof_H 	H 	0.8023	0.5104	0.1655	0.029
Mof_H 	H 	0.4561	0.6112	0.1003	0.009
Mof_H 	H 	0.284	0.4053	0.0753	0.067
Mof_H 	H 	0.3751	0.2504	0.0854	0.01
Mof_H 	H 	0.3073	0.4948	0.324	0.041
Mof_H 	H 	0.7233	0.5383	0.4445	0.026
Mof_H 	H 	0.6654	0.3344	0.3915	0.058
Mof_H 	H 	0.4305	0.2111	0.3013	0.012
Mof_H 	H 	0.6837	0.9662	0.8565	0.041
Mof_H 	H 	0.073	0.1767	0.0129	-0.081
Mof_H 	H 	0.1774	0.1366	0.6442	-0.019
Mof_H 	H 	0.3495	0.9038	0.703	-0.05
Mof_H 	H 	0.7232	0.1648	0.728	-0.043
Mof_H 	H 	0.8199	0.9217	0.5954	-0.036
Mof_H 	H 	0.1977	0.4896	0.8345	0.046
Mof_H 	H 	0.5439	0.3888	0.8997	0.025
Mof_H 	H 	0.716	0.5947	0.9247	0.072
Mof_H 	H 	0.6249	0.7496	0.9146	0.034
Mof_H 	H 	0.6927	0.5052	0.676	0.039
Mof_H 	H 	0.2767	0.4617	0.5555	0.031
Mof_H 	H 	0.3346	0.6656	0.6085	0.065
Mof_H 	H 	0.5695	0.7889	0.6987	0.02
Mof_C 	C 	0.2424	0.9845	0.093	0.166
Mof_C 	C 	0.0307	0.8704	0.0086	-0.014
Mof_C 	C 	0.8032	0.9253	0.3305	0.107
Mof_C 	C 	0.7104	0.0515	0.2986	0.043
Mof_C 	C 	0.2799	0.8955	0.3169	0.125
Mof_C 	C 	0.2273	0.027	0.3891	0.067
Mof_C 	C 	0.6569	0.2675	0.1356	0.393
Mof_C 	C 	0.7599	0.7137	0.1479	0.326
Mof_C 	C 	0.5987	0.3665	0.1268	-0.159
Mof_C 	C 	0.699	0.4894	0.1453	0.07
Mof_C 	C 	0.6487	0.5826	0.1343	-0.132
Mof_C 	C 	0.4913	0.5496	0.1074	0.049
Mof_C 	C 	0.388	0.4263	0.0911	-0.122
Mof_C 	C 	0.4427	0.3335	0.0988	0.057
Mof_C 	C 	0.1892	0.2588	0.2462	0.383
Mof_C 	C 	0.5667	0.6735	0.4171	0.329
Mof_C 	C 	0.3436	0.3412	0.3034	-0.131
Mof_C 	C 	0.3801	0.4629	0.336	0.064
Mof_C 	C 	0.5239	0.5394	0.3868	-0.115
Mof_C 	C 	0.6281	0.4887	0.4082	0.051
Mof_C 	C 	0.5938	0.367	0.3769	-0.119
Mof_C 	C 	0.4533	0.2933	0.3239	0.052
Mof_C 	C 	0.7576	0.0155	0.907	0.001
Mof_C 	C 	0.9693	0.1296	0.9914	0.193
Mof_C 	C 	0.1968	0.0747	0.6695	0.094
Mof_C 	C 	0.2896	0.9485	0.7014	0.148
Mof_C 	C 	0.7201	0.1045	0.6831	0.102
Mof_C 	C 	0.7727	0.973	0.6109	0.162
Mof_C 	C 	0.3431	0.7325	0.8644	0.386
Mof_C 	C 	0.2401	0.2863	0.8521	0.324
Mof_C 	C 	0.4013	0.6335	0.8732	-0.128
Mof_C 	C 	0.301	0.5106	0.8547	0.06
Mof_C 	C 	0.3513	0.4174	0.8657	-0.105
Mof_C 	C 	0.5087	0.4504	0.8926	0.044
Mof_C 	C 	0.612	0.5737	0.9089	-0.092
Mof_C 	C 	0.5573	0.6665	0.9012	0.048
Mof_C 	C 	0.8108	0.7412	0.7538	0.377
Mof_C 	C 	0.4333	0.3265	0.5829	0.33
Mof_C 	C 	0.6564	0.6588	0.6966	-0.127
Mof_C 	C 	0.6199	0.5371	0.664	0.062
Mof_C 	C 	0.4761	0.4606	0.6132	-0.115
Mof_C 	C 	0.3719	0.5113	0.5918	0.05
Mof_C 	C 	0.4062	0.633	0.6231	-0.116
Mof_C 	C 	0.5467	0.7067	0.6761	0.048
Mof_N 	N 	0.2746	0.961	0.0142	-0.271
Mof_N 	N 	0.1341	0.8854	0.9585	-0.206
Mof_N 	N 	0.0929	0.9308	0.0938	-0.27
Mof_N 	N 	0.8777	0.9852	0.2715	-0.225
Mof_N 	N 	0.816	0.0678	0.2514	-0.279
Mof_N 	N 	0.6982	0.9632	0.3496	-0.265
Mof_N 	N 	0.3819	0.9381	0.3939	-0.246
Mof_N 	N 	0.3457	0.0238	0.4419	-0.278
Mof_N 	N 	0.1822	0.9484	0.3106	-0.248
Mof_N 	N 	0.7254	0.039	0.9858	-0.212
Mof_N 	N 	0.8659	0.1146	0.0415	-0.326
Mof_N 	N 	0.9071	0.0692	0.9062	-0.291
Mof_N 	N 	0.1223	0.0148	0.7285	-0.255
Mof_N 	N 	0.184	0.9322	0.7486	-0.251
Mof_N 	N 	0.3018	0.0368	0.6504	-0.314
Mof_N 	N 	0.6181	0.0619	0.6061	-0.284
Mof_N 	N 	0.6543	0.9762	0.5581	-0.256
Mof_N 	N 	0.8178	0.0516	0.6894	-0.306
Mof_O 	O 	0.5724	0.1563	0.1112	-0.527
Mof_O 	O 	0.8002	0.3075	0.1676	-0.49
Mof_O 	O 	0.8918	0.7432	0.1969	-0.444
Mof_O 	O 	0.7279	0.7913	0.1085	-0.367
Mof_O 	O 	0.1573	0.1503	0.2174	-0.462
Mof_O 	O 	0.0959	0.3095	0.2274	-0.457
Mof_O 	O 	0.4607	0.7117	0.3947	-0.461
Mof_O 	O 	0.6938	0.7442	0.4603	-0.345
Mof_O 	O 	0.4276	0.8437	0.8888	-0.482
Mof_O 	O 	0.1998	0.6925	0.8324	-0.466
Mof_O 	O 	0.1082	0.2568	0.8031	-0.422
Mof_O 	O 	0.2721	0.2087	0.8915	-0.343
Mof_O 	O 	0.8427	0.8497	0.7826	-0.437
Mof_O 	O 	0.9041	0.6905	0.7726	-0.467
Mof_O 	O 	0.5393	0.2883	0.6053	-0.467
Mof_O 	O 	0.3062	0.2558	0.5397	-0.347
_end
