data_functionalizedCrystal
_audit_creation_method	'EQeq! by Chris Wilmer'
_symmetry_space_group_name_H-M	'P1'
_symmetry_Int_Tables_number	1
_symmetry_cell_setting	triclinic
loop_
_symmetry_equiv_pos_as_xyz
  x,y,z
_cell_length_a	15.876
_cell_length_b	23.562
_cell_length_c	12.514
_cell_angle_alpha	90
_cell_angle_beta	117.77
_cell_angle_gamma	90
loop_
_atom_site_label
_atom_site_type_symbol
_atom_site_fract_x
_atom_site_fract_y
_atom_site_fract_z
_atom_site_charge
Mof_C 	C 	0.0419	0.5738	0.1219	0.104
Mof_H 	H 	0.0713	0.5602	0.2007	-0.002
Mof_C 	C 	0.0886	0.614	0.0857	-0.155
Mof_C 	C 	0.0479	0.6343	0.968	0.101
Mof_H 	H 	0.0794	0.661	0.9449	0
Mof_C 	C 	0.9509	0.554	0.0401	-0.211
Mof_H 	H 	0.9189	0.5279	0.0638	0.124
Mof_C 	C 	0.9099	0.5748	0.9222	0.197
Mof_C 	C 	0.9594	0.614	0.886	-0.21
Mof_H 	H 	0.9322	0.6261	0.8062	0.104
Mof_N 	N 	0.8186	0.5582	0.8317	-0.238
Mof_H 	H 	0.8077	0.5638	0.7585	0.142
Mof_C 	C 	0.7463	0.5347	0.8448	0.135
Mof_O 	O 	0.5802	0.5193	0.7303	-0.509
Mof_O 	O 	0.7478	0.5209	0.9417	-0.306
Mof_C 	C 	0.6553	0.5278	0.7214	0.349
Mof_O 	O 	0.6673	0.5313	0.6293	-0.417
Mof_Ca	Ca	0.91691	0.00424	0.57367	1.437
Mof_S 	S 	0.1991	0.6437	0.186	0.229
Mof_O 	O 	0.2564	0.5973	0.2621	-0.361
Mof_O 	O 	0.2366	0.6782	0.1198	0.155
Mof_O 	O 	0.0239	0.8491	0.6195	-0.24
Mof_O 	O 	0.1044	0.8907	0.4126	-0.319
Mof_O 	O 	0.0248	0.9369	0.5416	-0.459
Mof_C 	C 	0.0826	0.8587	0.4742	0.161
Mof_N 	N 	0.0893	0.8009	0.4781	-0.242
Mof_H 	H 	0.074	0.7842	0.5276	0.151
Mof_C 	C 	0.1375	0.7071	0.446	-0.197
Mof_H 	H 	0.1319	0.6942	0.5127	0.108
Mof_C 	C 	0.1187	0.7646	0.4103	0.195
Mof_C 	C 	0.1645	0.6696	0.3806	0.101
Mof_H 	H 	0.1775	0.6317	0.4036	0.005
Mof_C 	C 	0.0398	0.8838	0.5532	0.274
Mof_C 	C 	0.1714	0.6899	0.2807	-0.166
Mof_C 	C 	0.1272	0.7845	0.3102	-0.204
Mof_H 	H 	0.1156	0.8224	0.2876	0.125
Mof_C 	C 	0.1533	0.7464	0.2441	0.11
Mof_H 	H 	0.1584	0.7588	0.1769	-0.001
Mof_S 	S 	0.2028	0.6299	0.224	0.328
Mof_O 	O 	0.248	0.5815	0.304	0.044
Mof_O 	O 	0.251	0.6583	0.163	-0.433
Mof_C 	C 	0.5419	0.0738	0.1219	0.093
Mof_H 	H 	0.5713	0.0602	0.2007	-0
Mof_C 	C 	0.5886	0.114	0.0857	-0.154
Mof_C 	C 	0.5479	0.1343	0.968	0.102
Mof_H 	H 	0.5794	0.161	0.9449	-0.001
Mof_C 	C 	0.4509	0.054	0.0401	-0.197
Mof_H 	H 	0.4189	0.0279	0.0638	0.121
Mof_C 	C 	0.4099	0.0748	0.9222	0.189
Mof_C 	C 	0.4594	0.114	0.886	-0.21
Mof_H 	H 	0.4322	0.1261	0.8062	0.104
Mof_N 	N 	0.3186	0.0582	0.8317	-0.237
Mof_H 	H 	0.3077	0.0638	0.7585	0.141
Mof_C 	C 	0.2463	0.0347	0.8448	0.135
Mof_O 	O 	0.0802	0.0193	0.7303	-0.51
Mof_O 	O 	0.2478	0.0209	0.9417	-0.307
Mof_C 	C 	0.1553	0.0278	0.7214	0.349
Mof_O 	O 	0.1673	0.0313	0.6293	-0.417
Mof_Ca	Ca	0.41691	0.50424	0.57367	1.434
Mof_S 	S 	0.6991	0.1437	0.186	0.229
Mof_O 	O 	0.7564	0.0973	0.2621	-0.36
Mof_O 	O 	0.7366	0.1782	0.1198	0.153
Mof_O 	O 	0.5239	0.3491	0.6195	-0.24
Mof_O 	O 	0.6044	0.3907	0.4126	-0.319
Mof_O 	O 	0.5248	0.4369	0.5416	-0.459
Mof_C 	C 	0.5826	0.3587	0.4742	0.161
Mof_N 	N 	0.5893	0.3009	0.4781	-0.242
Mof_H 	H 	0.574	0.2842	0.5276	0.15
Mof_C 	C 	0.6375	0.2071	0.446	-0.197
Mof_H 	H 	0.6319	0.1942	0.5127	0.108
Mof_C 	C 	0.6187	0.2646	0.4103	0.195
Mof_C 	C 	0.6645	0.1696	0.3806	0.1
Mof_H 	H 	0.6775	0.1317	0.4036	0.005
Mof_C 	C 	0.5398	0.3838	0.5532	0.274
Mof_C 	C 	0.6714	0.1899	0.2807	-0.165
Mof_C 	C 	0.6272	0.2845	0.3102	-0.203
Mof_H 	H 	0.6156	0.3224	0.2876	0.124
Mof_C 	C 	0.6533	0.2464	0.2441	0.109
Mof_H 	H 	0.6584	0.2588	0.1769	-0
Mof_S 	S 	0.7028	0.1299	0.224	0.327
Mof_O 	O 	0.748	0.0815	0.304	0.044
Mof_O 	O 	0.751	0.1583	0.163	-0.431
Mof_C 	C 	0.9581	0.5738	0.3781	0.097
Mof_H 	H 	0.9287	0.5602	0.2993	-0.002
Mof_C 	C 	0.9114	0.614	0.4143	-0.158
Mof_C 	C 	0.9521	0.6343	0.532	0.107
Mof_H 	H 	0.9206	0.661	0.5551	-0.002
Mof_C 	C 	0.0491	0.554	0.4599	-0.202
Mof_H 	H 	0.0811	0.5279	0.4362	0.122
Mof_C 	C 	0.0901	0.5748	0.5778	0.193
Mof_C 	C 	0.0406	0.614	0.614	-0.214
Mof_H 	H 	0.0678	0.6261	0.6938	0.105
Mof_N 	N 	0.1814	0.5582	0.6683	-0.237
Mof_H 	H 	0.1923	0.5638	0.7415	0.141
Mof_C 	C 	0.2537	0.5347	0.6552	0.135
Mof_O 	O 	0.4198	0.5193	0.7697	-0.509
Mof_O 	O 	0.2522	0.5209	0.5583	-0.307
Mof_C 	C 	0.3447	0.5278	0.7786	0.349
Mof_O 	O 	0.3327	0.5313	0.8707	-0.417
Mof_Ca	Ca	0.08309	0.00424	0.92633	1.427
Mof_S 	S 	0.8009	0.6437	0.314	0.23
Mof_O 	O 	0.7436	0.5973	0.2379	-0.361
Mof_O 	O 	0.7634	0.6782	0.3802	0.155
Mof_O 	O 	0.9761	0.8491	0.8805	-0.239
Mof_O 	O 	0.8956	0.8907	0.0874	-0.319
Mof_O 	O 	0.9752	0.9369	0.9584	-0.456
Mof_C 	C 	0.9174	0.8587	0.0258	0.157
Mof_N 	N 	0.9107	0.8009	0.0219	-0.245
Mof_H 	H 	0.926	0.7842	0.9724	0.154
Mof_C 	C 	0.8625	0.7071	0.054	-0.206
Mof_H 	H 	0.8681	0.6942	0.9873	0.113
Mof_C 	C 	0.8813	0.7646	0.0897	0.198
Mof_C 	C 	0.8355	0.6696	0.1194	0.105
Mof_H 	H 	0.8225	0.6317	0.0964	0.002
Mof_C 	C 	0.9602	0.8838	0.9468	0.277
Mof_C 	C 	0.8286	0.6899	0.2193	-0.169
Mof_C 	C 	0.8728	0.7845	0.1898	-0.207
Mof_H 	H 	0.8844	0.8224	0.2124	0.125
Mof_C 	C 	0.8467	0.7464	0.2559	0.112
Mof_H 	H 	0.8416	0.7588	0.3231	-0.002
Mof_S 	S 	0.7972	0.6299	0.276	0.329
Mof_O 	O 	0.752	0.5815	0.196	0.044
Mof_O 	O 	0.749	0.6583	0.337	-0.434
Mof_C 	C 	0.4581	0.0738	0.3781	0.097
Mof_H 	H 	0.4287	0.0602	0.2993	-0.002
Mof_C 	C 	0.4114	0.114	0.4143	-0.158
Mof_C 	C 	0.4521	0.1343	0.532	0.107
Mof_H 	H 	0.4206	0.161	0.5551	-0.002
Mof_C 	C 	0.5491	0.054	0.4599	-0.203
Mof_H 	H 	0.5811	0.0279	0.4362	0.123
Mof_C 	C 	0.5901	0.0748	0.5778	0.194
Mof_C 	C 	0.5406	0.114	0.614	-0.214
Mof_H 	H 	0.5678	0.1261	0.6938	0.105
Mof_N 	N 	0.6814	0.0582	0.6683	-0.238
Mof_H 	H 	0.6923	0.0638	0.7415	0.142
Mof_C 	C 	0.7537	0.0347	0.6552	0.135
Mof_O 	O 	0.9198	0.0193	0.7697	-0.508
Mof_O 	O 	0.7522	0.0209	0.5583	-0.306
Mof_C 	C 	0.8447	0.0278	0.7786	0.348
Mof_O 	O 	0.8327	0.0313	0.8707	-0.415
Mof_Ca	Ca	0.58309	0.50424	0.92633	1.435
Mof_S 	S 	0.3009	0.1437	0.314	0.229
Mof_O 	O 	0.2436	0.0973	0.2379	-0.362
Mof_O 	O 	0.2634	0.1782	0.3802	0.154
Mof_O 	O 	0.4761	0.3491	0.8805	-0.24
Mof_O 	O 	0.3956	0.3907	0.0874	-0.319
Mof_O 	O 	0.4752	0.4369	0.9584	-0.459
Mof_C 	C 	0.4174	0.3587	0.0258	0.161
Mof_N 	N 	0.4107	0.3009	0.0219	-0.24
Mof_H 	H 	0.426	0.2842	0.9724	0.149
Mof_C 	C 	0.3625	0.2071	0.054	-0.19
Mof_H 	H 	0.3681	0.1942	0.9873	0.104
Mof_C 	C 	0.3813	0.2646	0.0897	0.193
Mof_C 	C 	0.3355	0.1696	0.1194	0.097
Mof_H 	H 	0.3225	0.1317	0.0964	0.007
Mof_C 	C 	0.4602	0.3838	0.9468	0.273
Mof_C 	C 	0.3286	0.1899	0.2193	-0.164
Mof_C 	C 	0.3728	0.2845	0.1898	-0.202
Mof_H 	H 	0.3844	0.3224	0.2124	0.124
Mof_C 	C 	0.3467	0.2464	0.2559	0.108
Mof_H 	H 	0.3416	0.2588	0.3231	-0
Mof_S 	S 	0.2972	0.1299	0.276	0.328
Mof_O 	O 	0.252	0.0815	0.196	0.046
Mof_O 	O 	0.249	0.1583	0.337	-0.432
Mof_C 	C 	0.9581	0.4262	0.8781	0.103
Mof_H 	H 	0.9287	0.4398	0.7993	-0.003
Mof_C 	C 	0.9114	0.386	0.9143	-0.156
Mof_C 	C 	0.9521	0.3657	0.032	0.1
Mof_H 	H 	0.9206	0.339	0.0551	-0.001
Mof_C 	C 	0.0491	0.446	0.9599	-0.212
Mof_H 	H 	0.0811	0.4721	0.9362	0.124
Mof_C 	C 	0.0901	0.4252	0.0778	0.197
Mof_C 	C 	0.0406	0.386	0.114	-0.21
Mof_H 	H 	0.0678	0.3739	0.1938	0.104
Mof_N 	N 	0.1814	0.4418	0.1683	-0.238
Mof_H 	H 	0.1923	0.4362	0.2415	0.142
Mof_C 	C 	0.2537	0.4653	0.1552	0.135
Mof_O 	O 	0.4198	0.4807	0.2697	-0.509
Mof_O 	O 	0.2522	0.4791	0.0583	-0.306
Mof_C 	C 	0.3447	0.4722	0.2786	0.349
Mof_O 	O 	0.3327	0.4687	0.3707	-0.417
Mof_Ca	Ca	0.08309	0.99576	0.42633	1.437
Mof_S 	S 	0.8009	0.3563	0.814	0.229
Mof_O 	O 	0.7436	0.4027	0.7379	-0.361
Mof_O 	O 	0.7634	0.3218	0.8802	0.155
Mof_O 	O 	0.9761	0.1509	0.3805	-0.24
Mof_O 	O 	0.8956	0.1093	0.5874	-0.319
Mof_O 	O 	0.9752	0.0631	0.4584	-0.459
Mof_C 	C 	0.9174	0.1413	0.5258	0.161
Mof_N 	N 	0.9107	0.1991	0.5219	-0.242
Mof_H 	H 	0.926	0.2158	0.4724	0.151
Mof_C 	C 	0.8625	0.2929	0.554	-0.197
Mof_H 	H 	0.8681	0.3058	0.4873	0.108
Mof_C 	C 	0.8813	0.2354	0.5897	0.195
Mof_C 	C 	0.8355	0.3304	0.6194	0.101
Mof_H 	H 	0.8225	0.3683	0.5964	0.005
Mof_C 	C 	0.9602	0.1162	0.4468	0.274
Mof_C 	C 	0.8286	0.3101	0.7193	-0.166
Mof_C 	C 	0.8728	0.2155	0.6898	-0.204
Mof_H 	H 	0.8844	0.1776	0.7124	0.125
Mof_C 	C 	0.8467	0.2536	0.7559	0.11
Mof_H 	H 	0.8416	0.2412	0.8231	-0.001
Mof_S 	S 	0.7972	0.3701	0.776	0.328
Mof_O 	O 	0.752	0.4185	0.696	0.044
Mof_O 	O 	0.749	0.3417	0.837	-0.433
Mof_C 	C 	0.4581	0.9262	0.8781	0.093
Mof_H 	H 	0.4287	0.9398	0.7993	-0
Mof_C 	C 	0.4114	0.886	0.9143	-0.154
Mof_C 	C 	0.4521	0.8657	0.032	0.102
Mof_H 	H 	0.4206	0.839	0.0551	-0.001
Mof_C 	C 	0.5491	0.946	0.9599	-0.197
Mof_H 	H 	0.5811	0.9721	0.9362	0.121
Mof_C 	C 	0.5901	0.9252	0.0778	0.189
Mof_C 	C 	0.5406	0.886	0.114	-0.21
Mof_H 	H 	0.5678	0.8739	0.1938	0.104
Mof_N 	N 	0.6814	0.9418	0.1683	-0.237
Mof_H 	H 	0.6923	0.9362	0.2415	0.141
Mof_C 	C 	0.7537	0.9653	0.1552	0.135
Mof_O 	O 	0.9198	0.9807	0.2697	-0.51
Mof_O 	O 	0.7522	0.9791	0.0583	-0.307
Mof_C 	C 	0.8447	0.9722	0.2786	0.349
Mof_O 	O 	0.8327	0.9687	0.3707	-0.417
Mof_Ca	Ca	0.58309	0.49576	0.42633	1.434
Mof_S 	S 	0.3009	0.8563	0.814	0.229
Mof_O 	O 	0.2436	0.9027	0.7379	-0.36
Mof_O 	O 	0.2634	0.8218	0.8802	0.153
Mof_O 	O 	0.4761	0.6509	0.3805	-0.24
Mof_O 	O 	0.3956	0.6093	0.5874	-0.319
Mof_O 	O 	0.4752	0.5631	0.4584	-0.459
Mof_C 	C 	0.4174	0.6413	0.5258	0.161
Mof_N 	N 	0.4107	0.6991	0.5219	-0.242
Mof_H 	H 	0.426	0.7158	0.4724	0.15
Mof_C 	C 	0.3625	0.7929	0.554	-0.197
Mof_H 	H 	0.3681	0.8058	0.4873	0.108
Mof_C 	C 	0.3813	0.7354	0.5897	0.195
Mof_C 	C 	0.3355	0.8304	0.6194	0.1
Mof_H 	H 	0.3225	0.8683	0.5964	0.005
Mof_C 	C 	0.4602	0.6162	0.4468	0.274
Mof_C 	C 	0.3286	0.8101	0.7193	-0.165
Mof_C 	C 	0.3728	0.7155	0.6898	-0.203
Mof_H 	H 	0.3844	0.6776	0.7124	0.124
Mof_C 	C 	0.3467	0.7536	0.7559	0.109
Mof_H 	H 	0.3416	0.7412	0.8231	-0
Mof_S 	S 	0.2972	0.8701	0.776	0.327
Mof_O 	O 	0.252	0.9185	0.696	0.044
Mof_O 	O 	0.249	0.8417	0.837	-0.431
Mof_C 	C 	0.0419	0.4262	0.6219	0.097
Mof_H 	H 	0.0713	0.4398	0.7007	-0.002
Mof_C 	C 	0.0886	0.386	0.5857	-0.158
Mof_C 	C 	0.0479	0.3657	0.468	0.107
Mof_H 	H 	0.0794	0.339	0.4449	-0.002
Mof_C 	C 	0.9509	0.446	0.5401	-0.202
Mof_H 	H 	0.9189	0.4721	0.5638	0.122
Mof_C 	C 	0.9099	0.4252	0.4222	0.193
Mof_C 	C 	0.9594	0.386	0.386	-0.214
Mof_H 	H 	0.9322	0.3739	0.3062	0.105
Mof_N 	N 	0.8186	0.4418	0.3317	-0.237
Mof_H 	H 	0.8077	0.4362	0.2585	0.141
Mof_C 	C 	0.7463	0.4653	0.3448	0.135
Mof_O 	O 	0.5802	0.4807	0.2303	-0.509
Mof_O 	O 	0.7478	0.4791	0.4417	-0.307
Mof_C 	C 	0.6553	0.4722	0.2214	0.349
Mof_O 	O 	0.6673	0.4687	0.1293	-0.417
Mof_Ca	Ca	0.91691	0.99576	0.07367	1.427
Mof_S 	S 	0.1991	0.3563	0.686	0.23
Mof_O 	O 	0.2564	0.4027	0.7621	-0.361
Mof_O 	O 	0.2366	0.3218	0.6198	0.155
Mof_O 	O 	0.0239	0.1509	0.1195	-0.239
Mof_O 	O 	0.1044	0.1093	0.9126	-0.319
Mof_O 	O 	0.0248	0.0631	0.0416	-0.456
Mof_C 	C 	0.0826	0.1413	0.9742	0.157
Mof_N 	N 	0.0893	0.1991	0.9781	-0.245
Mof_H 	H 	0.074	0.2158	0.0276	0.154
Mof_C 	C 	0.1375	0.2929	0.946	-0.206
Mof_H 	H 	0.1319	0.3058	0.0127	0.113
Mof_C 	C 	0.1187	0.2354	0.9103	0.198
Mof_C 	C 	0.1645	0.3304	0.8806	0.105
Mof_H 	H 	0.1775	0.3683	0.9036	0.002
Mof_C 	C 	0.0398	0.1162	0.0532	0.277
Mof_C 	C 	0.1714	0.3101	0.7807	-0.169
Mof_C 	C 	0.1272	0.2155	0.8102	-0.207
Mof_H 	H 	0.1156	0.1776	0.7876	0.125
Mof_C 	C 	0.1533	0.2536	0.7441	0.112
Mof_H 	H 	0.1584	0.2412	0.6769	-0.002
Mof_S 	S 	0.2028	0.3701	0.724	0.329
Mof_O 	O 	0.248	0.4185	0.804	0.044
Mof_O 	O 	0.251	0.3417	0.663	-0.434
Mof_C 	C 	0.5419	0.9262	0.6219	0.097
Mof_H 	H 	0.5713	0.9398	0.7007	-0.002
Mof_C 	C 	0.5886	0.886	0.5857	-0.158
Mof_C 	C 	0.5479	0.8657	0.468	0.107
Mof_H 	H 	0.5794	0.839	0.4449	-0.002
Mof_C 	C 	0.4509	0.946	0.5401	-0.203
Mof_H 	H 	0.4189	0.9721	0.5638	0.123
Mof_C 	C 	0.4099	0.9252	0.4222	0.194
Mof_C 	C 	0.4594	0.886	0.386	-0.214
Mof_H 	H 	0.4322	0.8739	0.3062	0.105
Mof_N 	N 	0.3186	0.9418	0.3317	-0.238
Mof_H 	H 	0.3077	0.9362	0.2585	0.142
Mof_C 	C 	0.2463	0.9653	0.3448	0.135
Mof_O 	O 	0.0802	0.9807	0.2303	-0.508
Mof_O 	O 	0.2478	0.9791	0.4417	-0.306
Mof_C 	C 	0.1553	0.9722	0.2214	0.348
Mof_O 	O 	0.1673	0.9687	0.1293	-0.415
Mof_Ca	Ca	0.41691	0.49576	0.07367	1.435
Mof_S 	S 	0.6991	0.8563	0.686	0.229
Mof_O 	O 	0.7564	0.9027	0.7621	-0.362
Mof_O 	O 	0.7366	0.8218	0.6198	0.154
Mof_O 	O 	0.5239	0.6509	0.1195	-0.24
Mof_O 	O 	0.6044	0.6093	0.9126	-0.319
Mof_O 	O 	0.5248	0.5631	0.0416	-0.459
Mof_C 	C 	0.5826	0.6413	0.9742	0.161
Mof_N 	N 	0.5893	0.6991	0.9781	-0.24
Mof_H 	H 	0.574	0.7158	0.0276	0.149
Mof_C 	C 	0.6375	0.7929	0.946	-0.19
Mof_H 	H 	0.6319	0.8058	0.0127	0.104
Mof_C 	C 	0.6187	0.7354	0.9103	0.193
Mof_C 	C 	0.6645	0.8304	0.8806	0.097
Mof_H 	H 	0.6775	0.8683	0.9036	0.007
Mof_C 	C 	0.5398	0.6162	0.0532	0.273
Mof_C 	C 	0.6714	0.8101	0.7807	-0.164
Mof_C 	C 	0.6272	0.7155	0.8102	-0.202
Mof_H 	H 	0.6156	0.6776	0.7876	0.124
Mof_C 	C 	0.6533	0.7536	0.7441	0.108
Mof_H 	H 	0.6584	0.7412	0.6769	-0
Mof_S 	S 	0.7028	0.8701	0.724	0.328
Mof_O 	O 	0.748	0.9185	0.804	0.046
Mof_O 	O 	0.751	0.8417	0.663	-0.432
_end
