data_functionalizedCrystal
_audit_creation_method	'EQeq! by Chris Wilmer'
_symmetry_space_group_name_H-M	'P1'
_symmetry_Int_Tables_number	1
_symmetry_cell_setting	triclinic
loop_
_symmetry_equiv_pos_as_xyz
  x,y,z
_cell_length_a	22.249
_cell_length_b	7.0528
_cell_length_c	13.5747
_cell_angle_alpha	90
_cell_angle_beta	90
_cell_angle_gamma	90
loop_
_atom_site_label
_atom_site_type_symbol
_atom_site_fract_x
_atom_site_fract_y
_atom_site_fract_z
_atom_site_charge
Mof_N 	N 	0.43663	0.6562	0.56569	-0.164
Mof_N 	N 	0.38905	0.5929	0.6129	-0.103
Mof_C 	C 	0.277	0.5818	0.725	-0.033
Mof_H 	H 	0.2952	0.467	0.7092	0.05
Mof_N 	N 	0.93663	0.1562	0.06569	-0.164
Mof_N 	N 	0.88905	0.0929	0.1129	-0.116
Mof_C 	C 	0.777	0.0818	0.225	-0.095
Mof_H 	H 	0.7952	0.967	0.2092	0.091
Mof_N 	N 	0.56337	0.8438	0.56569	-0.155
Mof_N 	N 	0.61095	0.9071	0.6129	-0.091
Mof_C 	C 	0.723	0.9182	0.725	0.019
Mof_H 	H 	0.7048	0.033	0.7092	0.008
Mof_N 	N 	0.06337	0.3438	0.06569	-0.189
Mof_N 	N 	0.11095	0.4071	0.1129	-0.115
Mof_C 	C 	0.223	0.4182	0.225	-0.049
Mof_H 	H 	0.2048	0.533	0.2092	0.045
Mof_N 	N 	0.56337	0.1562	0.43431	-0.174
Mof_N 	N 	0.61095	0.0929	0.3871	-0.115
Mof_C 	C 	0.723	0.0818	0.275	-0.099
Mof_H 	H 	0.7048	0.967	0.2908	0.093
Mof_N 	N 	0.06337	0.6562	0.93431	-0.149
Mof_N 	N 	0.11095	0.5929	0.8871	-0.097
Mof_C 	C 	0.223	0.5818	0.775	-0.039
Mof_H 	H 	0.2048	0.467	0.7908	0.053
Mof_N 	N 	0.43663	0.3438	0.43431	-0.169
Mof_N 	N 	0.38905	0.4071	0.3871	-0.103
Mof_C 	C 	0.277	0.4182	0.275	-0.056
Mof_H 	H 	0.2952	0.533	0.2908	0.052
Mof_N 	N 	0.93663	0.8438	0.93431	-0.113
Mof_N 	N 	0.88905	0.9071	0.8871	-0.076
Mof_C 	C 	0.777	0.9182	0.775	0.008
Mof_H 	H 	0.7952	0.033	0.7908	0.018
Mof_N 	N 	0.56337	0.3438	0.43431	-0.168
Mof_N 	N 	0.61095	0.4071	0.3871	-0.103
Mof_C 	C 	0.723	0.4182	0.275	-0.051
Mof_H 	H 	0.7048	0.533	0.2908	0.053
Mof_N 	N 	0.06337	0.8438	0.93431	-0.14
Mof_N 	N 	0.11095	0.9071	0.8871	-0.084
Mof_C 	C 	0.223	0.9182	0.775	0.01
Mof_H 	H 	0.2048	0.033	0.7908	0.011
Mof_N 	N 	0.43663	0.1562	0.43431	-0.174
Mof_N 	N 	0.38905	0.0929	0.3871	-0.116
Mof_C 	C 	0.277	0.0818	0.275	-0.104
Mof_H 	H 	0.2952	0.967	0.2908	0.093
Mof_N 	N 	0.93663	0.6562	0.93431	-0.122
Mof_N 	N 	0.88905	0.5929	0.8871	-0.088
Mof_C 	C 	0.777	0.5818	0.775	-0.04
Mof_H 	H 	0.7952	0.467	0.7908	0.059
Mof_N 	N 	0.43663	0.8438	0.56569	-0.155
Mof_N 	N 	0.38905	0.9071	0.6129	-0.091
Mof_C 	C 	0.277	0.9182	0.725	0.015
Mof_H 	H 	0.2952	0.033	0.7092	0.008
Mof_N 	N 	0.93663	0.3438	0.06569	-0.16
Mof_N 	N 	0.88905	0.4071	0.1129	-0.105
Mof_C 	C 	0.777	0.4182	0.225	-0.049
Mof_H 	H 	0.7952	0.533	0.2092	0.052
Mof_N 	N 	0.56337	0.6562	0.56569	-0.164
Mof_N 	N 	0.61095	0.5929	0.6129	-0.104
Mof_C 	C 	0.723	0.5818	0.725	-0.029
Mof_H 	H 	0.7048	0.467	0.7092	0.05
Mof_N 	N 	0.06337	0.1562	0.06569	-0.194
Mof_N 	N 	0.11095	0.0929	0.1129	-0.127
Mof_C 	C 	0.223	0.0818	0.225	-0.096
Mof_H 	H 	0.2048	0.967	0.2092	0.086
Mof_Cu	Cu	0.5	0.5	0.5	0.838
Mof_Cu	Cu	-0	0	-0	0.758
Mof_Cu	Cu	0.5	-1.18508e-32	0.5	0.82
Mof_Cu	Cu	1.48135e-33	0.5	-0	0.775
Mof_C 	C 	0.3609	0.75	0.6417	0.13
Mof_C 	C 	0.3046	0.75	0.698	-0.022
Mof_C 	C 	0.8609	0.25	0.1417	0.101
Mof_C 	C 	0.8046	0.25	0.198	0.003
Mof_C 	C 	0.6391	0.75	0.6417	0.131
Mof_C 	C 	0.6954	0.75	0.698	-0.022
Mof_C 	C 	0.1391	0.25	0.1417	0.093
Mof_C 	C 	0.1954	0.25	0.198	-0.005
Mof_C 	C 	0.6391	0.25	0.3583	0.101
Mof_C 	C 	0.6954	0.25	0.302	0.005
Mof_C 	C 	0.1391	0.75	0.8583	0.13
Mof_C 	C 	0.1954	0.75	0.802	-0.016
Mof_C 	C 	0.3609	0.25	0.3583	0.099
Mof_C 	C 	0.3046	0.25	0.302	0.006
Mof_C 	C 	0.8609	0.75	0.8583	0.137
Mof_C 	C 	0.8046	0.75	0.802	-0.008
_end
