data_functionalizedCrystal
_audit_creation_method	'EQeq! by Chris Wilmer'
_symmetry_space_group_name_H-M	'P1'
_symmetry_Int_Tables_number	1
_symmetry_cell_setting	triclinic
loop_
_symmetry_equiv_pos_as_xyz
  x,y,z
_cell_length_a	11.129
_cell_length_b	15.2774
_cell_length_c	15.2774
_cell_angle_alpha	62.0746
_cell_angle_beta	68.6397
_cell_angle_gamma	68.6397
loop_
_atom_site_label
_atom_site_type_symbol
_atom_site_fract_x
_atom_site_fract_y
_atom_site_fract_z
_atom_site_charge
Mof_Cd	Cd	-0	0	-0	0.337
Mof_Cd	Cd	0.5	0.5	0.5	0.387
Mof_Cd	Cd	0.88272	0.61728	0.11728	0.313
Mof_Cd	Cd	0.11728	0.88272	0.38272	0.304
Mof_Cd	Cd	0.11728	0.38272	0.88272	0.304
Mof_Cd	Cd	0.88272	0.11728	0.61728	0.313
Mof_Cd	Cd	0.45711	0.14124	0.14124	0.273
Mof_Cd	Cd	0.23959	0.35876	0.35876	0.271
Mof_Cd	Cd	0.76041	0.64124	0.64124	0.279
Mof_Cd	Cd	0.54289	0.85876	0.85876	0.278
Mof_C 	C 	0.9341	0.7653	0.0699	0.015
Mof_C 	C 	0.3562	0.2476	0.0218	-0.025
Mof_C 	C 	0.2693	0.7347	0.4301	0.007
Mof_C 	C 	0.1256	0.2524	0.4782	-0.004
Mof_C 	C 	0.7307	0.5699	0.2653	0.013
Mof_C 	C 	0.8744	0.5218	0.7476	0.007
Mof_C 	C 	0.0659	0.9301	0.2347	0.006
Mof_C 	C 	0.6438	0.9782	0.7524	0.024
Mof_C 	C 	0.0659	0.2347	0.9301	0.006
Mof_C 	C 	0.6438	0.7524	0.9782	0.024
Mof_C 	C 	0.7307	0.2653	0.5699	0.013
Mof_C 	C 	0.8744	0.7476	0.5218	0.007
Mof_C 	C 	0.2693	0.4301	0.7347	0.007
Mof_C 	C 	0.1256	0.4782	0.2524	-0.004
Mof_C 	C 	0.9341	0.0699	0.7653	0.015
Mof_C 	C 	0.3562	0.0218	0.2476	-0.025
Mof_C 	C 	0.9757	0.5243	0.0243	-0.051
Mof_C 	C 	0.0243	0.9757	0.4757	-0.068
Mof_C 	C 	0.0243	0.4757	0.9757	-0.068
Mof_C 	C 	0.9757	0.0243	0.5243	-0.051
Mof_C 	C 	0.6711	0.0876	0.0876	-0.007
Mof_C 	C 	0.4435	0.2325	0.2325	-0.058
Mof_C 	C 	0.3463	0.4124	0.4124	0
Mof_C 	C 	0.4085	0.2675	0.2675	-0.052
Mof_C 	C 	0.6537	0.5876	0.5876	0.003
Mof_C 	C 	0.5915	0.7325	0.7325	-0.054
Mof_C 	C 	0.3289	0.9124	0.9124	0.009
Mof_C 	C 	0.5565	0.7675	0.7675	-0.048
Mof_N 	N 	0.96	0.8381	0.0505	-0.122
Mof_N 	N 	0.701	0.7002	0.0344	-0.152
Mof_N 	N 	0.3486	0.6619	0.4495	-0.132
Mof_N 	N 	0.9356	0.7998	0.4656	-0.133
Mof_N 	N 	0.6514	0.5505	0.3381	-0.132
Mof_N 	N 	0.0644	0.5344	0.2002	-0.147
Mof_N 	N 	0.04	0.9495	0.1619	-0.13
Mof_N 	N 	0.299	0.9656	0.2998	-0.123
Mof_N 	N 	0.04	0.1619	0.9495	-0.13
Mof_N 	N 	0.299	0.2998	0.9656	-0.123
Mof_N 	N 	0.6514	0.3381	0.5505	-0.132
Mof_N 	N 	0.0644	0.2002	0.5344	-0.147
Mof_N 	N 	0.3486	0.4495	0.6619	-0.132
Mof_N 	N 	0.9356	0.4656	0.7998	-0.133
Mof_N 	N 	0.96	0.0505	0.8381	-0.122
Mof_N 	N 	0.701	0.0344	0.7002	-0.152
Mof_N 	N 	0.7817	0.0608	0.0608	-0.132
Mof_N 	N 	0.4033	0.4392	0.4392	-0.135
Mof_N 	N 	0.5967	0.5608	0.5608	-0.134
Mof_N 	N 	0.2183	0.9392	0.9392	-0.125
Mof_H 	H 	0.4999	0.5648	0.2136	0.013
Mof_H 	H 	0.6	0.4665	0.1191	0.076
Mof_H 	H 	0.2217	0.7136	0.0648	0.003
Mof_H 	H 	0.3144	0.6191	0.9665	0.096
Mof_H 	H 	0.5001	0.4352	0.7864	0.017
Mof_H 	H 	0.4	0.5335	0.8809	0.071
Mof_H 	H 	0.7783	0.2864	0.9352	0.029
Mof_H 	H 	0.6856	0.3809	0.0335	0.05
Mof_C 	C 	0.4622	0.5758	0.163	0.078
Mof_C 	C 	0.5227	0.5166	0.1068	-0.146
Mof_C 	C 	0.299	0.663	0.0758	0.091
Mof_C 	C 	0.3539	0.6068	0.0166	-0.178
Mof_C 	C 	0.5378	0.4242	0.837	0.07
Mof_C 	C 	0.4773	0.4834	0.8932	-0.128
Mof_C 	C 	0.701	0.337	0.9242	0.055
Mof_C 	C 	0.6461	0.3932	0.9834	-0.095
Mof_C 	C 	0.4679	0.5321	0.0321	0.063
Mof_C 	C 	0.2909	0.7091	0.2091	0.021
Mof_C 	C 	0.5321	0.4679	0.9679	0.048
Mof_C 	C 	0.7091	0.2909	0.7909	0.028
Mof_N 	N 	0.3517	0.6483	0.1483	-0.144
Mof_N 	N 	0.6483	0.3517	0.8517	-0.134
Mof_H 	H 	0.7783	0.9352	0.2864	0.029
Mof_H 	H 	0.6856	0.0335	0.3809	0.05
Mof_H 	H 	0.5001	0.7864	0.4352	0.017
Mof_H 	H 	0.4	0.8809	0.5335	0.071
Mof_H 	H 	0.2217	0.0648	0.7136	0.003
Mof_H 	H 	0.3144	0.9665	0.6191	0.096
Mof_H 	H 	0.4999	0.2136	0.5648	0.013
Mof_H 	H 	0.6	0.1191	0.4665	0.076
Mof_C 	C 	0.701	0.9242	0.337	0.055
Mof_C 	C 	0.6461	0.9834	0.3932	-0.095
Mof_C 	C 	0.5378	0.837	0.4242	0.07
Mof_C 	C 	0.4773	0.8932	0.4834	-0.128
Mof_C 	C 	0.299	0.0758	0.663	0.091
Mof_C 	C 	0.3539	0.0166	0.6068	-0.178
Mof_C 	C 	0.4622	0.163	0.5758	0.078
Mof_C 	C 	0.5227	0.1068	0.5166	-0.146
Mof_C 	C 	0.5321	0.9679	0.4679	0.048
Mof_C 	C 	0.7091	0.7909	0.2909	0.028
Mof_C 	C 	0.4679	0.0321	0.5321	0.063
Mof_C 	C 	0.2909	0.2091	0.7091	0.021
Mof_N 	N 	0.6483	0.8517	0.3517	-0.134
Mof_N 	N 	0.3517	0.1483	0.6483	-0.144
_end
