data_functionalizedCrystal
_audit_creation_method	'EQeq! by Chris Wilmer'
_symmetry_space_group_name_H-M	'P1'
_symmetry_Int_Tables_number	1
_symmetry_cell_setting	triclinic
loop_
_symmetry_equiv_pos_as_xyz
  x,y,z
_cell_length_a	21.685
_cell_length_b	21.685
_cell_length_c	16.47
_cell_angle_alpha	90
_cell_angle_beta	90
_cell_angle_gamma	90
loop_
_atom_site_label
_atom_site_type_symbol
_atom_site_fract_x
_atom_site_fract_y
_atom_site_fract_z
_atom_site_charge
Mof_Sm	Sm	0.82726	0.6368	0.36747	1.766
Mof_O 	O 	0.7502	0.6109	0.2646	-0.537
Mof_O 	O 	0.7216	0.5686	0.1456	-0.506
Mof_O 	O 	0.9348	0.611	0.3655	-0.546
Mof_O 	O 	0.0186	0.5708	0.3051	-0.565
Mof_N 	N 	0.8646	0.5798	0.2421	-0.186
Mof_C 	C 	0.7613	0.5829	0.1982	0.4
Mof_C 	C 	0.8258	0.5628	0.1825	-0.094
Mof_C 	C 	0.8462	0.5311	0.1162	0.022
Mof_H 	H 	0.8193	0.5215	0.0742	0.008
Mof_C 	C 	0.907	0.5134	0.1121	-0.114
Mof_H 	H 	0.9208	0.4904	0.068	0.044
Mof_C 	C 	0.9472	0.5295	0.1721	0.026
Mof_H 	H 	0.9884	0.5177	0.1701	-0.004
Mof_C 	C 	0.9245	0.5637	0.2354	-0.108
Mof_C 	C 	0.963	0.5826	0.3067	0.409
Mof_Sm	Sm	0.32726	0.1368	0.86747	1.766
Mof_O 	O 	0.2502	0.1109	0.7646	-0.537
Mof_O 	O 	0.2216	0.0686	0.6456	-0.507
Mof_O 	O 	0.4348	0.111	0.8655	-0.547
Mof_O 	O 	0.5186	0.0708	0.8051	-0.566
Mof_N 	N 	0.3646	0.0798	0.7421	-0.187
Mof_C 	C 	0.2613	0.0829	0.6982	0.399
Mof_C 	C 	0.3258	0.0628	0.6825	-0.095
Mof_C 	C 	0.3462	0.0311	0.6162	0.021
Mof_H 	H 	0.3193	0.0215	0.5742	0.007
Mof_C 	C 	0.407	0.0134	0.6121	-0.115
Mof_H 	H 	0.4208	0.9904	0.568	0.043
Mof_C 	C 	0.4472	0.0295	0.6721	0.025
Mof_H 	H 	0.4884	0.0177	0.6701	-0.005
Mof_C 	C 	0.4245	0.0637	0.7354	-0.109
Mof_C 	C 	0.463	0.0826	0.8067	0.408
Mof_Sm	Sm	0.67274	0.3632	0.86747	1.765
Mof_O 	O 	0.7498	0.3891	0.7646	-0.538
Mof_O 	O 	0.7784	0.4314	0.6456	-0.507
Mof_O 	O 	0.5652	0.389	0.8655	-0.547
Mof_O 	O 	0.4814	0.4292	0.8051	-0.566
Mof_N 	N 	0.6354	0.4202	0.7421	-0.187
Mof_C 	C 	0.7387	0.4171	0.6982	0.399
Mof_C 	C 	0.6742	0.4372	0.6825	-0.095
Mof_C 	C 	0.6538	0.4689	0.6162	0.021
Mof_H 	H 	0.6807	0.4785	0.5742	0.007
Mof_C 	C 	0.593	0.4866	0.6121	-0.115
Mof_H 	H 	0.5792	0.5096	0.568	0.043
Mof_C 	C 	0.5528	0.4705	0.6721	0.025
Mof_H 	H 	0.5116	0.4823	0.6701	-0.005
Mof_C 	C 	0.5755	0.4363	0.7354	-0.109
Mof_C 	C 	0.537	0.4174	0.8067	0.408
Mof_Sm	Sm	0.17274	0.8632	0.36747	1.765
Mof_O 	O 	0.2498	0.8891	0.2646	-0.538
Mof_O 	O 	0.2784	0.9314	0.1456	-0.507
Mof_O 	O 	0.0652	0.889	0.3655	-0.547
Mof_O 	O 	0.9814	0.9292	0.3051	-0.566
Mof_N 	N 	0.1354	0.9202	0.2421	-0.187
Mof_C 	C 	0.2387	0.9171	0.1982	0.399
Mof_C 	C 	0.1742	0.9372	0.1825	-0.095
Mof_C 	C 	0.1538	0.9689	0.1162	0.02
Mof_H 	H 	0.1807	0.9785	0.0742	0.008
Mof_C 	C 	0.093	0.9866	0.1121	-0.114
Mof_H 	H 	0.0792	0.0096	0.068	0.042
Mof_C 	C 	0.0528	0.9705	0.1721	0.024
Mof_H 	H 	0.0116	0.9823	0.1701	-0.005
Mof_C 	C 	0.0755	0.9363	0.2354	-0.109
Mof_C 	C 	0.037	0.9174	0.3067	0.408
Mof_Sm	Sm	0.1132	0.07726	0.61747	1.765
Mof_O 	O 	0.1391	0.0002	0.5146	-0.538
Mof_O 	O 	0.1814	0.9716	0.3956	-0.507
Mof_O 	O 	0.139	0.1848	0.6155	-0.547
Mof_O 	O 	0.1792	0.2686	0.5551	-0.566
Mof_N 	N 	0.1702	0.1146	0.4921	-0.187
Mof_C 	C 	0.1671	0.0113	0.4482	0.399
Mof_C 	C 	0.1872	0.0758	0.4325	-0.095
Mof_C 	C 	0.2189	0.0962	0.3662	0.021
Mof_H 	H 	0.2285	0.0693	0.3242	0.007
Mof_C 	C 	0.2366	0.157	0.3621	-0.115
Mof_H 	H 	0.2596	0.1708	0.318	0.043
Mof_C 	C 	0.2205	0.1972	0.4221	0.025
Mof_H 	H 	0.2323	0.2384	0.4201	-0.005
Mof_C 	C 	0.1863	0.1745	0.4854	-0.109
Mof_C 	C 	0.1674	0.213	0.5567	0.408
Mof_Sm	Sm	0.6132	0.57726	0.11747	1.765
Mof_O 	O 	0.6391	0.5002	0.0146	-0.538
Mof_O 	O 	0.6814	0.4716	0.8956	-0.507
Mof_O 	O 	0.639	0.6848	0.1155	-0.547
Mof_O 	O 	0.6792	0.7686	0.0551	-0.566
Mof_N 	N 	0.6702	0.6146	0.9921	-0.187
Mof_C 	C 	0.6671	0.5113	0.9482	0.399
Mof_C 	C 	0.6872	0.5758	0.9325	-0.095
Mof_C 	C 	0.7189	0.5962	0.8662	0.021
Mof_H 	H 	0.7285	0.5693	0.8242	0.007
Mof_C 	C 	0.7366	0.657	0.8621	-0.115
Mof_H 	H 	0.7596	0.6708	0.818	0.043
Mof_C 	C 	0.7205	0.6972	0.9221	0.025
Mof_H 	H 	0.7323	0.7384	0.9201	-0.005
Mof_C 	C 	0.6863	0.6745	0.9854	-0.109
Mof_C 	C 	0.6674	0.713	0.0567	0.408
Mof_Sm	Sm	0.3868	0.92274	0.11747	1.765
Mof_O 	O 	0.3609	0.9998	0.0146	-0.538
Mof_O 	O 	0.3186	0.0284	0.8956	-0.507
Mof_O 	O 	0.361	0.8152	0.1155	-0.547
Mof_O 	O 	0.3208	0.7314	0.0551	-0.566
Mof_N 	N 	0.3298	0.8854	0.9921	-0.187
Mof_C 	C 	0.3329	0.9887	0.9482	0.399
Mof_C 	C 	0.3128	0.9242	0.9325	-0.095
Mof_C 	C 	0.2811	0.9038	0.8662	0.021
Mof_H 	H 	0.2715	0.9307	0.8242	0.007
Mof_C 	C 	0.2634	0.843	0.8621	-0.115
Mof_H 	H 	0.2404	0.8292	0.818	0.043
Mof_C 	C 	0.2795	0.8028	0.9221	0.025
Mof_H 	H 	0.2677	0.7616	0.9201	-0.005
Mof_C 	C 	0.3137	0.8255	0.9854	-0.109
Mof_C 	C 	0.3326	0.787	0.0567	0.408
Mof_Sm	Sm	0.8868	0.42274	0.61747	1.765
Mof_O 	O 	0.8609	0.4998	0.5146	-0.538
Mof_O 	O 	0.8186	0.5284	0.3956	-0.507
Mof_O 	O 	0.861	0.3152	0.6155	-0.547
Mof_O 	O 	0.8208	0.2314	0.5551	-0.566
Mof_N 	N 	0.8298	0.3854	0.4921	-0.187
Mof_C 	C 	0.8329	0.4887	0.4482	0.399
Mof_C 	C 	0.8128	0.4242	0.4325	-0.095
Mof_C 	C 	0.7811	0.4038	0.3662	0.021
Mof_H 	H 	0.7715	0.4307	0.3242	0.007
Mof_C 	C 	0.7634	0.343	0.3621	-0.115
Mof_H 	H 	0.7404	0.3292	0.318	0.043
Mof_C 	C 	0.7795	0.3028	0.4221	0.025
Mof_H 	H 	0.7677	0.2616	0.4201	-0.005
Mof_C 	C 	0.8137	0.3255	0.4854	-0.109
Mof_C 	C 	0.8326	0.287	0.5567	0.408
Mof_Sm	Sm	0.17274	0.3632	0.63253	1.765
Mof_O 	O 	0.2498	0.3891	0.7354	-0.538
Mof_O 	O 	0.2784	0.4314	0.8544	-0.507
Mof_O 	O 	0.0652	0.389	0.6345	-0.547
Mof_O 	O 	0.9814	0.4292	0.6949	-0.566
Mof_N 	N 	0.1354	0.4202	0.7579	-0.187
Mof_C 	C 	0.2387	0.4171	0.8018	0.399
Mof_C 	C 	0.1742	0.4372	0.8175	-0.095
Mof_C 	C 	0.1538	0.4689	0.8838	0.021
Mof_H 	H 	0.1807	0.4785	0.9258	0.007
Mof_C 	C 	0.093	0.4866	0.8879	-0.115
Mof_H 	H 	0.0792	0.5096	0.932	0.043
Mof_C 	C 	0.0528	0.4705	0.8279	0.025
Mof_H 	H 	0.0116	0.4823	0.8299	-0.005
Mof_C 	C 	0.0755	0.4363	0.7646	-0.109
Mof_C 	C 	0.037	0.4174	0.6933	0.408
Mof_Sm	Sm	0.67274	0.8632	0.13253	1.765
Mof_O 	O 	0.7498	0.8891	0.2354	-0.538
Mof_O 	O 	0.7784	0.9314	0.3544	-0.507
Mof_O 	O 	0.5652	0.889	0.1345	-0.547
Mof_O 	O 	0.4814	0.9292	0.1949	-0.566
Mof_N 	N 	0.6354	0.9202	0.2579	-0.187
Mof_C 	C 	0.7387	0.9171	0.3018	0.399
Mof_C 	C 	0.6742	0.9372	0.3175	-0.095
Mof_C 	C 	0.6538	0.9689	0.3838	0.021
Mof_H 	H 	0.6807	0.9785	0.4258	0.007
Mof_C 	C 	0.593	0.9866	0.3879	-0.115
Mof_H 	H 	0.5792	0.0096	0.432	0.043
Mof_C 	C 	0.5528	0.9705	0.3279	0.025
Mof_H 	H 	0.5116	0.9823	0.3299	-0.005
Mof_C 	C 	0.5755	0.9363	0.2646	-0.109
Mof_C 	C 	0.537	0.9174	0.1933	0.408
Mof_Sm	Sm	0.32726	0.6368	0.13253	1.765
Mof_O 	O 	0.2502	0.6109	0.2354	-0.538
Mof_O 	O 	0.2216	0.5686	0.3544	-0.507
Mof_O 	O 	0.4348	0.611	0.1345	-0.547
Mof_O 	O 	0.5186	0.5708	0.1949	-0.566
Mof_N 	N 	0.3646	0.5798	0.2579	-0.187
Mof_C 	C 	0.2613	0.5829	0.3018	0.399
Mof_C 	C 	0.3258	0.5628	0.3175	-0.095
Mof_C 	C 	0.3462	0.5311	0.3838	0.021
Mof_H 	H 	0.3193	0.5215	0.4258	0.007
Mof_C 	C 	0.407	0.5134	0.3879	-0.115
Mof_H 	H 	0.4208	0.4904	0.432	0.043
Mof_C 	C 	0.4472	0.5295	0.3279	0.025
Mof_H 	H 	0.4884	0.5177	0.3299	-0.005
Mof_C 	C 	0.4245	0.5637	0.2646	-0.109
Mof_C 	C 	0.463	0.5826	0.1933	0.408
Mof_Sm	Sm	0.82726	0.1368	0.63253	1.765
Mof_O 	O 	0.7502	0.1109	0.7354	-0.538
Mof_O 	O 	0.7216	0.0686	0.8544	-0.507
Mof_O 	O 	0.9348	0.111	0.6345	-0.547
Mof_O 	O 	0.0186	0.0708	0.6949	-0.566
Mof_N 	N 	0.8646	0.0798	0.7579	-0.187
Mof_C 	C 	0.7613	0.0829	0.8018	0.399
Mof_C 	C 	0.8258	0.0628	0.8175	-0.095
Mof_C 	C 	0.8462	0.0311	0.8838	0.02
Mof_H 	H 	0.8193	0.0215	0.9258	0.008
Mof_C 	C 	0.907	0.0134	0.8879	-0.114
Mof_H 	H 	0.9208	0.9904	0.932	0.042
Mof_C 	C 	0.9472	0.0295	0.8279	0.024
Mof_H 	H 	0.9884	0.0177	0.8299	-0.005
Mof_C 	C 	0.9245	0.0637	0.7646	-0.109
Mof_C 	C 	0.963	0.0826	0.6933	0.408
Mof_Sm	Sm	0.8868	0.92274	0.38253	1.765
Mof_O 	O 	0.8609	0.9998	0.4854	-0.538
Mof_O 	O 	0.8186	0.0284	0.6044	-0.507
Mof_O 	O 	0.861	0.8152	0.3845	-0.547
Mof_O 	O 	0.8208	0.7314	0.4449	-0.566
Mof_N 	N 	0.8298	0.8854	0.5079	-0.187
Mof_C 	C 	0.8329	0.9887	0.5518	0.399
Mof_C 	C 	0.8128	0.9242	0.5675	-0.095
Mof_C 	C 	0.7811	0.9038	0.6338	0.021
Mof_H 	H 	0.7715	0.9307	0.6758	0.007
Mof_C 	C 	0.7634	0.843	0.6379	-0.115
Mof_H 	H 	0.7404	0.8292	0.682	0.043
Mof_C 	C 	0.7795	0.8028	0.5779	0.025
Mof_H 	H 	0.7677	0.7616	0.5799	-0.005
Mof_C 	C 	0.8137	0.8255	0.5146	-0.109
Mof_C 	C 	0.8326	0.787	0.4433	0.408
Mof_Sm	Sm	0.3868	0.42274	0.88253	1.765
Mof_O 	O 	0.3609	0.4998	0.9854	-0.538
Mof_O 	O 	0.3186	0.5284	0.1044	-0.507
Mof_O 	O 	0.361	0.3152	0.8845	-0.547
Mof_O 	O 	0.3208	0.2314	0.9449	-0.566
Mof_N 	N 	0.3298	0.3854	0.0079	-0.187
Mof_C 	C 	0.3329	0.4887	0.0518	0.399
Mof_C 	C 	0.3128	0.4242	0.0675	-0.095
Mof_C 	C 	0.2811	0.4038	0.1338	0.021
Mof_H 	H 	0.2715	0.4307	0.1758	0.007
Mof_C 	C 	0.2634	0.343	0.1379	-0.115
Mof_H 	H 	0.2404	0.3292	0.182	0.043
Mof_C 	C 	0.2795	0.3028	0.0779	0.025
Mof_H 	H 	0.2677	0.2616	0.0799	-0.005
Mof_C 	C 	0.3137	0.3255	0.0146	-0.109
Mof_C 	C 	0.3326	0.287	0.9433	0.408
Mof_Sm	Sm	0.6132	0.07726	0.88253	1.765
Mof_O 	O 	0.6391	0.0002	0.9854	-0.538
Mof_O 	O 	0.6814	0.9716	0.1044	-0.507
Mof_O 	O 	0.639	0.1848	0.8845	-0.547
Mof_O 	O 	0.6792	0.2686	0.9449	-0.566
Mof_N 	N 	0.6702	0.1146	0.0079	-0.187
Mof_C 	C 	0.6671	0.0113	0.0518	0.399
Mof_C 	C 	0.6872	0.0758	0.0675	-0.095
Mof_C 	C 	0.7189	0.0962	0.1338	0.021
Mof_H 	H 	0.7285	0.0693	0.1758	0.007
Mof_C 	C 	0.7366	0.157	0.1379	-0.115
Mof_H 	H 	0.7596	0.1708	0.182	0.043
Mof_C 	C 	0.7205	0.1972	0.0779	0.025
Mof_H 	H 	0.7323	0.2384	0.0799	-0.005
Mof_C 	C 	0.6863	0.1745	0.0146	-0.109
Mof_C 	C 	0.6674	0.213	0.9433	0.408
Mof_Sm	Sm	0.1132	0.57726	0.38253	1.765
Mof_O 	O 	0.1391	0.5002	0.4854	-0.538
Mof_O 	O 	0.1814	0.4716	0.6044	-0.507
Mof_O 	O 	0.139	0.6848	0.3845	-0.547
Mof_O 	O 	0.1792	0.7686	0.4449	-0.566
Mof_N 	N 	0.1702	0.6146	0.5079	-0.187
Mof_C 	C 	0.1671	0.5113	0.5518	0.399
Mof_C 	C 	0.1872	0.5758	0.5675	-0.095
Mof_C 	C 	0.2189	0.5962	0.6338	0.021
Mof_H 	H 	0.2285	0.5693	0.6758	0.007
Mof_C 	C 	0.2366	0.657	0.6379	-0.115
Mof_H 	H 	0.2596	0.6708	0.682	0.043
Mof_C 	C 	0.2205	0.6972	0.5779	0.025
Mof_H 	H 	0.2323	0.7384	0.5799	-0.005
Mof_C 	C 	0.1863	0.6745	0.5146	-0.109
Mof_C 	C 	0.1674	0.713	0.4433	0.408
_end
