data_functionalizedCrystal
_audit_creation_method	'EQeq! by Chris Wilmer'
_symmetry_space_group_name_H-M	'P1'
_symmetry_Int_Tables_number	1
_symmetry_cell_setting	triclinic
loop_
_symmetry_equiv_pos_as_xyz
  x,y,z
_cell_length_a	20.071
_cell_length_b	9.698
_cell_length_c	10.986
_cell_angle_alpha	90
_cell_angle_beta	90
_cell_angle_gamma	90
loop_
_atom_site_label
_atom_site_type_symbol
_atom_site_fract_x
_atom_site_fract_y
_atom_site_fract_z
_atom_site_charge
Mof_Zn	Zn	0.64744	0.86779	0.50703	1.194
Mof_O 	O 	0.55507	0.7593	0.532	-0.477
Mof_N 	N 	0.73917	0.0066	0.4933	-0.2
Mof_N 	N 	0.78083	0.9847	0.5904	-0.072
Mof_N 	N 	0.81939	0.092	0.6037	-0.046
Mof_N 	N 	0.80343	0.1871	0.5168	-0.242
Mof_N 	N 	0.6239	0.9196	0.3338	-0.247
Mof_N 	N 	0.61023	0.8207	0.2483	-0.055
Mof_N 	N 	0.6111	0.8769	0.142	-0.085
Mof_N 	N 	0.62513	0.0134	0.1548	-0.251
Mof_C 	C 	0.75447	0.1327	0.4518	0.155
Mof_C 	C 	0.72385	0.2018	0.3448	-0.172
Mof_H 	H 	0.7473	0.1725	0.272	0.073
Mof_H 	H 	0.7301	0.3006	0.3528	0.067
Mof_C 	C 	0.64947	0.173	0.3278	-0.226
Mof_H 	H 	0.6278	0.1794	0.4065	0.095
Mof_H 	H 	0.6308	0.2444	0.2763	0.094
Mof_C 	C 	0.63318	0.0354	0.2731	0.165
Mof_Zn	Zn	0.14744	0.36779	0.50703	1.195
Mof_O 	O 	0.05507	0.2593	0.532	-0.467
Mof_N 	N 	0.23917	0.5066	0.4933	-0.203
Mof_N 	N 	0.28083	0.4847	0.5904	-0.066
Mof_N 	N 	0.31939	0.592	0.6037	-0.05
Mof_N 	N 	0.30343	0.6871	0.5168	-0.242
Mof_N 	N 	0.1239	0.4196	0.3338	-0.244
Mof_N 	N 	0.11023	0.3207	0.2483	-0.058
Mof_N 	N 	0.1111	0.3769	0.142	-0.086
Mof_N 	N 	0.12513	0.5134	0.1548	-0.253
Mof_C 	C 	0.25447	0.6327	0.4518	0.155
Mof_C 	C 	0.22385	0.7018	0.3448	-0.175
Mof_H 	H 	0.2473	0.6725	0.272	0.073
Mof_H 	H 	0.2301	0.8006	0.3528	0.066
Mof_C 	C 	0.14947	0.673	0.3278	-0.218
Mof_H 	H 	0.1278	0.6794	0.4065	0.088
Mof_H 	H 	0.1308	0.7444	0.2763	0.089
Mof_C 	C 	0.13318	0.5354	0.2731	0.156
Mof_Zn	Zn	0.35256	0.13221	0.00703	1.166
Mof_O 	O 	0.44493	0.2407	0.032	-0.444
Mof_N 	N 	0.26083	0.9934	0.9933	-0.166
Mof_N 	N 	0.21917	0.0153	0.0904	-0.109
Mof_N 	N 	0.18061	0.908	0.1037	-0.067
Mof_N 	N 	0.19657	0.8129	0.0168	-0.314
Mof_N 	N 	0.3761	0.0804	0.8338	-0.217
Mof_N 	N 	0.38977	0.1793	0.7483	-0.039
Mof_N 	N 	0.3889	0.1231	0.642	-0.055
Mof_N 	N 	0.37487	0.9866	0.6548	-0.239
Mof_C 	C 	0.24553	0.8673	0.9518	0.261
Mof_C 	C 	0.27615	0.7982	0.8448	-0.227
Mof_H 	H 	0.2527	0.8275	0.772	0.096
Mof_H 	H 	0.2699	0.6994	0.8528	0.1
Mof_C 	C 	0.35053	0.827	0.8278	-0.202
Mof_H 	H 	0.3722	0.8206	0.9065	0.112
Mof_H 	H 	0.3692	0.7556	0.7763	0.098
Mof_C 	C 	0.36682	0.9646	0.7731	0.154
Mof_Zn	Zn	0.85256	0.63221	0.00703	1.166
Mof_O 	O 	0.94493	0.7407	0.032	-0.413
Mof_N 	N 	0.76083	0.4934	0.9933	-0.161
Mof_N 	N 	0.71917	0.5153	0.0904	-0.113
Mof_N 	N 	0.68061	0.408	0.1037	-0.063
Mof_N 	N 	0.69657	0.3129	0.0168	-0.315
Mof_N 	N 	0.8761	0.5804	0.8338	-0.221
Mof_N 	N 	0.88977	0.6793	0.7483	-0.037
Mof_N 	N 	0.8889	0.6231	0.642	-0.055
Mof_N 	N 	0.87487	0.4866	0.6548	-0.235
Mof_C 	C 	0.74553	0.3673	0.9518	0.265
Mof_C 	C 	0.77615	0.2982	0.8448	-0.225
Mof_H 	H 	0.7527	0.3275	0.772	0.097
Mof_H 	H 	0.7699	0.1994	0.8528	0.101
Mof_C 	C 	0.85053	0.327	0.8278	-0.21
Mof_H 	H 	0.8722	0.3206	0.9065	0.119
Mof_H 	H 	0.8692	0.2556	0.7763	0.104
Mof_C 	C 	0.86682	0.4646	0.7731	0.168
Mof_Zn	Zn	0.64744	0.13221	0.00703	1.166
Mof_O 	O 	0.55507	0.2407	0.032	-0.444
Mof_N 	N 	0.73917	0.9934	0.9933	-0.166
Mof_N 	N 	0.78083	0.0153	0.0904	-0.108
Mof_N 	N 	0.81939	0.908	0.1037	-0.064
Mof_N 	N 	0.80343	0.8129	0.0168	-0.313
Mof_N 	N 	0.6239	0.0804	0.8338	-0.217
Mof_N 	N 	0.61023	0.1793	0.7483	-0.039
Mof_N 	N 	0.6111	0.1231	0.642	-0.055
Mof_N 	N 	0.62513	0.9866	0.6548	-0.239
Mof_C 	C 	0.75447	0.8673	0.9518	0.261
Mof_C 	C 	0.72385	0.7982	0.8448	-0.228
Mof_H 	H 	0.7473	0.8275	0.772	0.097
Mof_H 	H 	0.7301	0.6994	0.8528	0.1
Mof_C 	C 	0.64947	0.827	0.8278	-0.201
Mof_H 	H 	0.6278	0.8206	0.9065	0.111
Mof_H 	H 	0.6308	0.7556	0.7763	0.097
Mof_C 	C 	0.63318	0.9646	0.7731	0.154
Mof_Zn	Zn	0.14744	0.63221	0.00703	1.165
Mof_O 	O 	0.05507	0.7407	0.032	-0.439
Mof_N 	N 	0.23917	0.4934	0.9933	-0.161
Mof_N 	N 	0.28083	0.5153	0.0904	-0.113
Mof_N 	N 	0.31939	0.408	0.1037	-0.063
Mof_N 	N 	0.30343	0.3129	0.0168	-0.316
Mof_N 	N 	0.1239	0.5804	0.8338	-0.224
Mof_N 	N 	0.11023	0.6793	0.7483	-0.043
Mof_N 	N 	0.1111	0.6231	0.642	-0.061
Mof_N 	N 	0.12513	0.4866	0.6548	-0.238
Mof_C 	C 	0.25447	0.3673	0.9518	0.267
Mof_C 	C 	0.22385	0.2982	0.8448	-0.23
Mof_H 	H 	0.2473	0.3275	0.772	0.099
Mof_H 	H 	0.2301	0.1994	0.8528	0.102
Mof_C 	C 	0.14947	0.327	0.8278	-0.201
Mof_H 	H 	0.1278	0.3206	0.9065	0.111
Mof_H 	H 	0.1308	0.2556	0.7763	0.095
Mof_C 	C 	0.13318	0.4646	0.7731	0.16
Mof_Zn	Zn	0.35256	0.86779	0.50703	1.195
Mof_O 	O 	0.44493	0.7593	0.532	-0.476
Mof_N 	N 	0.26083	0.0066	0.4933	-0.199
Mof_N 	N 	0.21917	0.9847	0.5904	-0.073
Mof_N 	N 	0.18061	0.092	0.6037	-0.048
Mof_N 	N 	0.19657	0.1871	0.5168	-0.242
Mof_N 	N 	0.3761	0.9196	0.3338	-0.247
Mof_N 	N 	0.38977	0.8207	0.2483	-0.055
Mof_N 	N 	0.3889	0.8769	0.142	-0.085
Mof_N 	N 	0.37487	0.0134	0.1548	-0.251
Mof_C 	C 	0.24553	0.1327	0.4518	0.154
Mof_C 	C 	0.27615	0.2018	0.3448	-0.171
Mof_H 	H 	0.2527	0.1725	0.272	0.072
Mof_H 	H 	0.2699	0.3006	0.3528	0.066
Mof_C 	C 	0.35053	0.173	0.3278	-0.226
Mof_H 	H 	0.3722	0.1794	0.4065	0.095
Mof_H 	H 	0.3692	0.2444	0.2763	0.094
Mof_C 	C 	0.36682	0.0354	0.2731	0.165
Mof_Zn	Zn	0.85256	0.36779	0.50703	1.196
Mof_O 	O 	0.94493	0.2593	0.532	-0.441
Mof_N 	N 	0.76083	0.5066	0.4933	-0.203
Mof_N 	N 	0.71917	0.4847	0.5904	-0.066
Mof_N 	N 	0.68061	0.592	0.6037	-0.05
Mof_N 	N 	0.69657	0.6871	0.5168	-0.241
Mof_N 	N 	0.8761	0.4196	0.3338	-0.242
Mof_N 	N 	0.88977	0.3207	0.2483	-0.051
Mof_N 	N 	0.8889	0.3769	0.142	-0.08
Mof_N 	N 	0.87487	0.5134	0.1548	-0.251
Mof_C 	C 	0.74553	0.6327	0.4518	0.154
Mof_C 	C 	0.77615	0.7018	0.3448	-0.17
Mof_H 	H 	0.7527	0.6725	0.272	0.072
Mof_H 	H 	0.7699	0.8006	0.3528	0.065
Mof_C 	C 	0.85053	0.673	0.3278	-0.228
Mof_H 	H 	0.8722	0.6794	0.4065	0.097
Mof_H 	H 	0.8692	0.7444	0.2763	0.097
Mof_C 	C 	0.86682	0.5354	0.2731	0.165
Mof_C 	C 	0.5	0.8176	0.5343	0.696
Mof_H 	H 	0.5	0.8739	0.6073	-0.165
Mof_H 	H 	0.5	0.8812	0.4662	-0.186
Mof_C 	C 	1.09652e-33	0.3176	0.5343	0.636
Mof_H 	H 	-4.65608e-33	0.3739	0.6073	-0.157
Mof_H 	H 	9.56763e-34	0.3812	0.4662	-0.177
Mof_C 	C 	0.5	0.1824	0.0343	0.402
Mof_H 	H 	0.5	0.1261	0.1073	-0.095
Mof_H 	H 	0.5	0.1188	0.9662	-0.02
Mof_C 	C 	-1.58966e-33	0.6824	0.0343	0.357
Mof_H 	H 	-2.731e-33	0.6261	0.1073	-0.093
Mof_H 	H 	-3.91952e-33	0.6188	0.9662	-0.021
_end
