data_functionalizedCrystal
_audit_creation_method	'EQeq! by Chris Wilmer'
_symmetry_space_group_name_H-M	'P1'
_symmetry_Int_Tables_number	1
_symmetry_cell_setting	triclinic
loop_
_symmetry_equiv_pos_as_xyz
  x,y,z
_cell_length_a	9.9149
_cell_length_b	18.608
_cell_length_c	19.979
_cell_angle_alpha	93.926
_cell_angle_beta	90
_cell_angle_gamma	90
loop_
_atom_site_label
_atom_site_type_symbol
_atom_site_fract_x
_atom_site_fract_y
_atom_site_fract_z
_atom_site_charge
Mof_U 	U 	0.03196	0.18582	0.70808	0.033
Mof_U 	U 	0.53196	0.81418	0.79192	0.032
Mof_U 	U 	0.86873	0.19034	0.25664	0.029
Mof_U 	U 	0.96804	0.81418	0.29192	0.033
Mof_U 	U 	0.36873	0.80966	0.24336	0.029
Mof_U 	U 	0.13127	0.80966	0.74336	0.029
Mof_U 	U 	0.46804	0.18582	0.20808	0.032
Mof_U 	U 	0.63127	0.19034	0.75664	0.029
Mof_Cu	Cu	0.87185	0.12667	0.98271	0.917
Mof_Cu	Cu	0.62815	0.12667	0.48271	0.918
Mof_Cu	Cu	0.37185	0.87333	0.51729	0.918
Mof_Cu	Cu	0.12815	0.87333	0.01729	0.917
Mof_P 	P 	0.4039	0.79416	0.95897	0.415
Mof_P 	P 	0.3725	0.18916	0.62631	0.384
Mof_P 	P 	0.7972	0.77198	0.65845	0.37
Mof_P 	P 	0.0961	0.79416	0.45897	0.414
Mof_P 	P 	0.167	0.76337	0.12721	0.386
Mof_P 	P 	0.833	0.23663	0.87279	0.386
Mof_P 	P 	0.2028	0.22802	0.34155	0.37
Mof_P 	P 	0.6275	0.81084	0.37369	0.384
Mof_P 	P 	0.1275	0.18916	0.12631	0.384
Mof_P 	P 	0.9039	0.20584	0.54103	0.414
Mof_P 	P 	0.7028	0.77198	0.15845	0.37
Mof_P 	P 	0.8725	0.81084	0.87369	0.384
Mof_P 	P 	0.333	0.76337	0.62721	0.386
Mof_P 	P 	0.5961	0.20584	0.04103	0.415
Mof_P 	P 	0.667	0.23663	0.37279	0.386
Mof_P 	P 	0.2972	0.22802	0.84155	0.37
Mof_H 	H 	0.6475	0.5285	0.6229	0.06
Mof_H 	H 	0.0896	0.4138	0.0201	0.061
Mof_H 	H 	0.2601	0.9259	0.8817	0.074
Mof_H 	H 	0.3103	0.3052	0.7156	0.057
Mof_H 	H 	0.5438	0.5479	0.9501	0.061
Mof_H 	H 	0.7839	0.2941	0.1167	0.076
Mof_H 	H 	0.0766	0.1135	0.86	0.039
Mof_H 	H 	0.277	0.0256	0.3177	0.123
Mof_H 	H 	0.0787	0.2902	0.0217	0.055
Mof_H 	H 	0.4562	0.4521	0.0499	0.061
Mof_H 	H 	0.4104	0.4138	0.5201	0.061
Mof_H 	H 	0.8687	0.3427	0.7777	0.07
Mof_H 	H 	0.4525	0.5527	0.1196	0.063
Mof_H 	H 	0.1715	0.5257	0.0181	0.058
Mof_H 	H 	0.8794	0.65	0.1457	0.054
Mof_H 	H 	0.1983	0.4276	0.2135	0.064
Mof_H 	H 	0.7601	0.0741	0.6183	0.074
Mof_H 	H 	0.3793	0.5322	0.7184	0.059
Mof_H 	H 	0.1951	0.5858	0.852	0.063
Mof_H 	H 	0.3257	0.6498	0.5215	0.046
Mof_H 	H 	0.8257	0.3502	0.9785	0.045
Mof_H 	H 	0.5787	0.7098	0.4783	0.054
Mof_H 	H 	0.9781	0.3246	0.3651	0.07
Mof_H 	H 	0.8017	0.5724	0.7865	0.064
Mof_H 	H 	0.1743	0.6498	0.0215	0.045
Mof_H 	H 	0.3794	0.35	0.3543	0.054
Mof_H 	H 	0.8103	0.6948	0.7844	0.057
Mof_H 	H 	0.0438	0.4521	0.5499	0.062
Mof_H 	H 	0.9562	0.5479	0.4501	0.062
Mof_H 	H 	0.1206	0.35	0.8543	0.054
Mof_H 	H 	0.8793	0.4678	0.7816	0.059
Mof_H 	H 	0.9525	0.4473	0.3804	0.063
Mof_H 	H 	0.9234	0.8865	0.14	0.039
Mof_H 	H 	0.3017	0.4276	0.7135	0.064
Mof_H 	H 	0.723	0.9744	0.6823	0.123
Mof_H 	H 	0.4234	0.1135	0.36	0.04
Mof_H 	H 	0.9213	0.7098	0.9783	0.055
Mof_H 	H 	0.2161	0.7059	0.8833	0.076
Mof_H 	H 	0.4781	0.6754	0.1349	0.07
Mof_H 	H 	0.3687	0.6573	0.7223	0.07
Mof_H 	H 	0.2839	0.7059	0.3833	0.076
Mof_H 	H 	0.0475	0.5527	0.6196	0.063
Mof_H 	H 	0.7161	0.2941	0.6167	0.076
Mof_H 	H 	0.6206	0.65	0.6457	0.054
Mof_H 	H 	0.1207	0.5322	0.2184	0.059
Mof_H 	H 	0.3285	0.5257	0.5181	0.058
Mof_H 	H 	0.1897	0.3052	0.2156	0.057
Mof_H 	H 	0.2399	0.9259	0.3817	0.074
Mof_H 	H 	0.0219	0.6754	0.6349	0.07
Mof_H 	H 	0.8049	0.4142	0.148	0.063
Mof_H 	H 	0.4213	0.2902	0.5217	0.054
Mof_H 	H 	0.6207	0.4678	0.2816	0.059
Mof_H 	H 	0.8525	0.5285	0.1229	0.06
Mof_H 	H 	0.6897	0.6948	0.2844	0.057
Mof_H 	H 	0.7399	0.0741	0.1183	0.074
Mof_H 	H 	0.1475	0.4715	0.8771	0.06
Mof_H 	H 	0.777	0.9744	0.1823	0.124
Mof_H 	H 	0.6715	0.4743	0.4819	0.058
Mof_H 	H 	0.0618	0.3322	0.5224	0.055
Mof_H 	H 	0.5475	0.4473	0.8804	0.063
Mof_H 	H 	0.9104	0.5862	0.9799	0.061
Mof_H 	H 	0.3049	0.5858	0.352	0.063
Mof_H 	H 	0.5896	0.5862	0.4799	0.061
Mof_H 	H 	0.1313	0.6573	0.2223	0.07
Mof_H 	H 	0.6743	0.3502	0.4785	0.046
Mof_H 	H 	0.5219	0.3246	0.8651	0.07
Mof_H 	H 	0.3525	0.4715	0.3771	0.06
Mof_H 	H 	0.6951	0.4142	0.648	0.063
Mof_H 	H 	0.5766	0.8865	0.64	0.04
Mof_H 	H 	0.6313	0.3427	0.2777	0.07
Mof_H 	H 	0.4382	0.3322	0.0224	0.055
Mof_H 	H 	0.8285	0.4743	0.9819	0.058
Mof_H 	H 	0.223	0.0256	0.8177	0.124
Mof_H 	H 	0.5618	0.6678	0.9776	0.055
Mof_H 	H 	0.9382	0.6678	0.4776	0.055
Mof_H 	H 	0.6983	0.5724	0.2865	0.064
Mof_C 	C 	0.7234	0.5578	0.6265	-0.08
Mof_C 	C 	0.3492	0.4731	0.8817	0.024
Mof_C 	C 	0.1519	0.6665	0.1232	-0.042
Mof_C 	C 	0.1738	0.4	0.1749	-0.081
Mof_C 	C 	0.3976	0.3178	0.5605	-0.004
Mof_C 	C 	0.3353	0.6265	0.5609	-0.014
Mof_C 	C 	0.513	0.349	0.0468	-0.002
Mof_C 	C 	0.5385	0.9946	0.5302	0.085
Mof_C 	C 	0.6333	0.4445	0.3209	-0.073
Mof_C 	C 	0.1976	0.961	0.8959	0.099
Mof_C 	C 	0.3897	0.7011	0.9355	-0.04
Mof_C 	C 	0.5534	0.6456	0.1345	-0.017
Mof_C 	C 	0.1333	0.5555	0.1791	-0.074
Mof_C 	C 	0.4614	0.4277	0.8764	-0.075
Mof_C 	C 	0.9615	0.9946	0.0302	0.085
Mof_C 	C 	0.8621	0.3691	0.8188	-0.019
Mof_C 	C 	0.7766	0.5578	0.1265	-0.08
Mof_C 	C 	0.0223	0.5792	0.4365	-0.079
Mof_C 	C 	0.869	0.7159	0.8816	-0.044
Mof_C 	C 	0.0877	0.0719	0.8827	0.116
Mof_C 	C 	0.8481	0.3335	0.8768	-0.042
Mof_C 	C 	0.6976	0.039	0.6041	0.095
Mof_C 	C 	0.6738	0.6	0.3251	-0.082
Mof_C 	C 	0.182	0.3247	0.355	-0.037
Mof_C 	C 	0.7933	0.6308	0.14	-0.014
Mof_C 	C 	0.3565	0.4341	0.6174	0.031
Mof_C 	C 	0.6508	0.5269	0.1183	0.024
Mof_C 	C 	0.3621	0.6309	0.6812	-0.019
Mof_C 	C 	0.3667	0.5555	0.6791	-0.073
Mof_C 	C 	0.8492	0.5269	0.6183	0.024
Mof_C 	C 	0.4615	0.0054	0.4698	0.085
Mof_C 	C 	0.487	0.651	0.9532	-0.002
Mof_C 	C 	0.3262	0.4	0.6749	-0.082
Mof_C 	C 	0.8353	0.3735	0.9391	-0.014
Mof_C 	C 	0.8913	0.6081	0.9405	-0.082
Mof_C 	C 	0.4777	0.5792	0.9365	-0.078
Mof_C 	C 	0.6685	0.6732	0.3236	0.002
Mof_C 	C 	0.5877	0.9281	0.6173	0.114
Mof_C 	C 	0.3315	0.3268	0.6764	0.002
Mof_C 	C 	0.131	0.2841	0.1184	-0.044
Mof_C 	C 	0.4466	0.3544	0.8655	-0.017
Mof_C 	C 	0.2814	0.674	0.8968	-0.003
Mof_C 	C 	0.6024	0.6822	0.4395	-0.004
Mof_C 	C 	0.1647	0.6265	0.0609	-0.014
Mof_C 	C 	0.3521	0.5153	0.6175	0.019
Mof_C 	C 	0.1508	0.4731	0.3817	0.024
Mof_C 	C 	0.1479	0.5153	0.1175	0.019
Mof_C 	C 	0.2234	0.4422	0.8735	-0.08
Mof_C 	C 	0.3659	0.5526	0.8981	0.025
Mof_C 	C 	0.1775	0.0209	0.8578	-0.125
Mof_C 	C 	0.6341	0.4474	0.1019	0.025
Mof_C 	C 	0.6087	0.6081	0.4405	-0.082
Mof_C 	C 	0.0385	0.0054	0.9698	0.085
Mof_C 	C 	0.2186	0.674	0.3968	-0.003
Mof_C 	C 	0.3225	0.0209	0.3578	-0.121
Mof_C 	C 	0.2067	0.3692	0.86	-0.014
Mof_C 	C 	0.1024	0.3178	0.0605	-0.004
Mof_C 	C 	0.1435	0.4341	0.1174	0.03
Mof_C 	C 	0.631	0.7159	0.3816	-0.044
Mof_C 	C 	0.987	0.349	0.5468	-0.003
Mof_C 	C 	0.6647	0.3735	0.4391	-0.014
Mof_C 	C 	0.9466	0.6456	0.6345	-0.016
Mof_C 	C 	0.1627	0.552	0.0591	-0.079
Mof_C 	C 	0.2933	0.3692	0.36	-0.014
Mof_C 	C 	0.8659	0.4474	0.6019	0.025
Mof_C 	C 	0.8225	0.9791	0.1422	-0.125
Mof_C 	C 	0.2318	0.602	0.378	-0.077
Mof_C 	C 	0.8897	0.2989	0.5645	-0.04
Mof_C 	C 	0.682	0.6753	0.145	-0.037
Mof_C 	C 	0.4123	0.0719	0.3827	0.114
Mof_C 	C 	0.6379	0.3691	0.3188	-0.019
Mof_C 	C 	0.1103	0.7011	0.4355	-0.04
Mof_C 	C 	0.8373	0.448	0.9409	-0.079
Mof_C 	C 	0.3373	0.552	0.5591	-0.079
Mof_C 	C 	0.3913	0.3919	0.5595	-0.082
Mof_C 	C 	0.3481	0.6665	0.6232	-0.041
Mof_C 	C 	0.5386	0.5723	0.1236	-0.075
Mof_C 	C 	0.9614	0.5723	0.6236	-0.075
Mof_C 	C 	0.6479	0.4847	0.3825	0.019
Mof_C 	C 	0.369	0.2841	0.6184	-0.044
Mof_C 	C 	0.0534	0.3544	0.3655	-0.016
Mof_C 	C 	0.1341	0.5526	0.3981	0.025
Mof_C 	C 	0.8521	0.4847	0.8825	0.019
Mof_C 	C 	0.1087	0.3919	0.0595	-0.082
Mof_C 	C 	0.3024	0.961	0.3959	0.095
Mof_C 	C 	0.7814	0.326	0.6032	-0.003
Mof_C 	C 	0.0386	0.4277	0.3764	-0.075
Mof_C 	C 	0.6435	0.5659	0.3826	0.031
Mof_C 	C 	0.6627	0.448	0.4409	-0.079
Mof_C 	C 	0.1685	0.3268	0.1764	0.002
Mof_C 	C 	0.2766	0.4422	0.3735	-0.08
Mof_C 	C 	0.6775	0.9791	0.6422	-0.121
Mof_C 	C 	0.6519	0.3335	0.3768	-0.041
Mof_C 	C 	0.2682	0.602	0.878	-0.077
Mof_C 	C 	0.013	0.651	0.4532	-0.003
Mof_C 	C 	0.818	0.6753	0.645	-0.037
Mof_C 	C 	0.7318	0.398	0.122	-0.077
Mof_C 	C 	0.318	0.3247	0.855	-0.037
Mof_C 	C 	0.5223	0.4208	0.0635	-0.078
Mof_C 	C 	0.8565	0.5659	0.8826	0.03
Mof_C 	C 	0.6103	0.2989	0.0645	-0.04
Mof_C 	C 	0.8315	0.6732	0.8236	0.002
Mof_C 	C 	0.7682	0.398	0.622	-0.077
Mof_C 	C 	0.7186	0.326	0.1032	-0.003
Mof_C 	C 	0.8262	0.6	0.8251	-0.081
Mof_C 	C 	0.9777	0.4208	0.5635	-0.079
Mof_C 	C 	0.8976	0.6822	0.9395	-0.004
Mof_C 	C 	0.8024	0.039	0.1041	0.099
Mof_C 	C 	0.7067	0.6308	0.64	-0.014
Mof_C 	C 	0.9123	0.9281	0.1173	0.116
Mof_C 	C 	0.1379	0.6309	0.1812	-0.019
Mof_C 	C 	0.8667	0.4445	0.8209	-0.074
Mof_N 	N 	0.516	0.9357	0.5621	-0.212
Mof_N 	N 	0.484	0.0643	0.4379	-0.212
Mof_N 	N 	0.6274	0.0463	0.5472	-0.202
Mof_N 	N 	0.016	0.0643	0.9379	-0.212
Mof_N 	N 	0.3726	0.9537	0.4528	-0.202
Mof_N 	N 	0.1274	0.9537	0.9528	-0.201
Mof_N 	N 	0.8726	0.0463	0.0472	-0.201
Mof_N 	N 	0.984	0.9357	0.0621	-0.212
Mof_O 	O 	0.6694	0.7888	0.6978	-0.181
Mof_O 	O 	0.0759	0.1952	0.3099	-0.162
Mof_O 	O 	0.0216	0.8001	0.5293	-0.175
Mof_O 	O 	0.9784	0.1999	0.4707	-0.175
Mof_O 	O 	0.8793	0.8469	0.9464	-0.22
Mof_O 	O 	0.4241	0.1952	0.8099	-0.162
Mof_O 	O 	0.4106	0.7937	0.5713	-0.355
Mof_O 	O 	0.9106	0.2063	0.9287	-0.356
Mof_O 	O 	0.9976	0.832	0.8366	-0.169
Mof_O 	O 	0.1805	0.7816	0.6259	-0.185
Mof_O 	O 	0.7258	0.8033	0.0873	-0.165
Mof_O 	O 	0.1694	0.2112	0.8022	-0.181
Mof_O 	O 	0.3195	0.7816	0.1259	-0.186
Mof_O 	O 	0.6207	0.8469	0.4464	-0.22
Mof_O 	O 	0.4976	0.168	0.6634	-0.169
Mof_O 	O 	0.2523	0.1668	0.1626	-0.162
Mof_O 	O 	0.2355	0.8249	0.4655	-0.347
Mof_O 	O 	0.2742	0.1967	0.9127	-0.165
Mof_O 	O 	0.7523	0.8332	0.3374	-0.163
Mof_O 	O 	0.3793	0.1531	0.5536	-0.22
Mof_O 	O 	0.5024	0.832	0.3366	-0.169
Mof_O 	O 	0.8739	0.2087	0.8014	-0.144
Mof_O 	O 	0.7477	0.8332	0.8374	-0.162
Mof_O 	O 	0.6805	0.2184	0.8741	-0.186
Mof_O 	O 	0.3306	0.2112	0.3022	-0.181
Mof_O 	O 	0.6261	0.2087	0.3014	-0.143
Mof_O 	O 	0.002	0.8314	0.4115	-0.147
Mof_O 	O 	0.0024	0.168	0.1634	-0.169
Mof_O 	O 	0.998	0.1686	0.5885	-0.147
Mof_O 	O 	0.7742	0.8033	0.5873	-0.165
Mof_O 	O 	0.4784	0.8001	0.0293	-0.175
Mof_O 	O 	0.1207	0.1531	0.0536	-0.22
Mof_O 	O 	0.1261	0.7913	0.1986	-0.144
Mof_O 	O 	0.9241	0.8048	0.6901	-0.162
Mof_O 	O 	0.8195	0.2184	0.3741	-0.185
Mof_O 	O 	0.2645	0.8249	0.9655	-0.346
Mof_O 	O 	0.5216	0.1999	0.9707	-0.175
Mof_O 	O 	0.2477	0.1668	0.6626	-0.163
Mof_O 	O 	0.0894	0.7937	0.0713	-0.356
Mof_O 	O 	0.2258	0.1967	0.4127	-0.165
Mof_O 	O 	0.7645	0.1751	0.5345	-0.347
Mof_O 	O 	0.8306	0.7888	0.1978	-0.181
Mof_O 	O 	0.5894	0.2063	0.4287	-0.355
Mof_O 	O 	0.502	0.1686	0.0885	-0.146
Mof_O 	O 	0.5759	0.8048	0.1901	-0.162
Mof_O 	O 	0.7355	0.1751	0.0345	-0.346
Mof_O 	O 	0.3739	0.7913	0.6986	-0.143
Mof_O 	O 	0.498	0.8314	0.9115	-0.146
Mof_F 	F 	0.1983	0.8222	0.3192	-0.329
Mof_F 	F 	0.6983	0.1778	0.1808	-0.329
Mof_F 	F 	0.8017	0.1778	0.6808	-0.329
Mof_F 	F 	0.3017	0.8222	0.8192	-0.329
_end
