data_functionalizedCrystal
_audit_creation_method	'EQeq! by Chris Wilmer'
_symmetry_space_group_name_H-M	'P1'
_symmetry_Int_Tables_number	1
_symmetry_cell_setting	triclinic
loop_
_symmetry_equiv_pos_as_xyz
  x,y,z
_cell_length_a	18.6215
_cell_length_b	18.6215
_cell_length_c	18.6215
_cell_angle_alpha	60
_cell_angle_beta	60
_cell_angle_gamma	60
loop_
_atom_site_label
_atom_site_type_symbol
_atom_site_fract_x
_atom_site_fract_y
_atom_site_fract_z
_atom_site_charge
Mof_Cu	Cu	0.5	0.92985	0.5	0.904
Mof_Cu	Cu	0.92985	0.5	0.07015	0.904
Mof_Cu	Cu	0.5	0.07015	0.5	0.904
Mof_Cu	Cu	0.07015	0.5	0.92985	0.904
Mof_Cu	Cu	0.5	0.5	0.07015	0.904
Mof_Cu	Cu	0.92985	0.07015	0.5	0.904
Mof_Cu	Cu	0.5	0.5	0.92985	0.904
Mof_Cu	Cu	0.07015	0.92985	0.5	0.904
Mof_Cu	Cu	0.5	0.07015	0.92985	0.904
Mof_Cu	Cu	0.92985	0.5	0.5	0.904
Mof_Cu	Cu	0.5	0.92985	0.07015	0.904
Mof_Cu	Cu	0.07015	0.5	0.5	0.904
Mof_H 	H 	0.4667	0.7723	0.7723	0.044
Mof_H 	H 	0.7723	0.4667	0.9887	0.043
Mof_H 	H 	0.7723	0.9887	0.4667	0.043
Mof_H 	H 	0.9887	0.7723	0.7723	0.044
Mof_H 	H 	0.4667	0.7723	0.9887	0.043
Mof_H 	H 	0.7723	0.9887	0.7723	0.044
Mof_H 	H 	0.7723	0.4667	0.7723	0.044
Mof_H 	H 	0.9887	0.7723	0.4667	0.043
Mof_H 	H 	0.4667	0.9887	0.7723	0.043
Mof_H 	H 	0.7723	0.7723	0.4667	0.044
Mof_H 	H 	0.7723	0.7723	0.9887	0.044
Mof_H 	H 	0.9887	0.4667	0.7723	0.043
Mof_H 	H 	0.2277	0.5333	0.2277	0.044
Mof_H 	H 	0.5333	0.2277	0.0113	0.043
Mof_H 	H 	0.0113	0.2277	0.5333	0.043
Mof_H 	H 	0.2277	0.0113	0.2277	0.044
Mof_H 	H 	0.2277	0.5333	0.0113	0.043
Mof_H 	H 	0.0113	0.2277	0.2277	0.044
Mof_H 	H 	0.5333	0.2277	0.2277	0.044
Mof_H 	H 	0.2277	0.0113	0.5333	0.043
Mof_H 	H 	0.0113	0.5333	0.2277	0.043
Mof_H 	H 	0.2277	0.2277	0.5333	0.044
Mof_H 	H 	0.2277	0.2277	0.0113	0.044
Mof_H 	H 	0.5333	0.0113	0.2277	0.043
Mof_C 	C 	0.47486	0.9309	0.66334	0.369
Mof_C 	C 	0.46748	0.8873	0.75792	-0.117
Mof_C 	C 	0.9309	0.47486	0.9309	0.356
Mof_C 	C 	0.8873	0.46748	0.8873	-0.114
Mof_C 	C 	0.66334	0.9309	0.47486	0.369
Mof_C 	C 	0.75792	0.8873	0.46748	-0.117
Mof_C 	C 	0.9309	0.66334	0.9309	0.348
Mof_C 	C 	0.8873	0.75792	0.8873	-0.109
Mof_C 	C 	0.47486	0.66334	0.9309	0.369
Mof_C 	C 	0.46748	0.75792	0.8873	-0.117
Mof_C 	C 	0.9309	0.9309	0.66334	0.348
Mof_C 	C 	0.8873	0.8873	0.75792	-0.109
Mof_C 	C 	0.66334	0.47486	0.9309	0.369
Mof_C 	C 	0.75792	0.46748	0.8873	-0.117
Mof_C 	C 	0.9309	0.9309	0.47486	0.356
Mof_C 	C 	0.8873	0.8873	0.46748	-0.114
Mof_C 	C 	0.47486	0.9309	0.9309	0.356
Mof_C 	C 	0.46748	0.8873	0.8873	-0.114
Mof_C 	C 	0.9309	0.66334	0.47486	0.369
Mof_C 	C 	0.8873	0.75792	0.46748	-0.117
Mof_C 	C 	0.66334	0.9309	0.9309	0.348
Mof_C 	C 	0.75792	0.8873	0.8873	-0.109
Mof_C 	C 	0.9309	0.47486	0.66334	0.369
Mof_C 	C 	0.8873	0.46748	0.75792	-0.117
Mof_C 	C 	0.0691	0.52514	0.33666	0.369
Mof_C 	C 	0.1127	0.53252	0.24208	-0.117
Mof_C 	C 	0.52514	0.0691	0.0691	0.356
Mof_C 	C 	0.53252	0.1127	0.1127	-0.114
Mof_C 	C 	0.0691	0.33666	0.52514	0.369
Mof_C 	C 	0.1127	0.24208	0.53252	-0.117
Mof_C 	C 	0.33666	0.0691	0.0691	0.348
Mof_C 	C 	0.24208	0.1127	0.1127	-0.109
Mof_C 	C 	0.33666	0.52514	0.0691	0.369
Mof_C 	C 	0.24208	0.53252	0.1127	-0.117
Mof_C 	C 	0.0691	0.0691	0.33666	0.348
Mof_C 	C 	0.1127	0.1127	0.24208	-0.109
Mof_C 	C 	0.52514	0.33666	0.0691	0.369
Mof_C 	C 	0.53252	0.24208	0.1127	-0.117
Mof_C 	C 	0.0691	0.0691	0.52514	0.356
Mof_C 	C 	0.1127	0.1127	0.53252	-0.114
Mof_C 	C 	0.0691	0.52514	0.0691	0.356
Mof_C 	C 	0.1127	0.53252	0.1127	-0.114
Mof_C 	C 	0.33666	0.0691	0.52514	0.369
Mof_C 	C 	0.24208	0.1127	0.53252	-0.117
Mof_C 	C 	0.0691	0.33666	0.0691	0.348
Mof_C 	C 	0.1127	0.24208	0.1127	-0.109
Mof_C 	C 	0.52514	0.0691	0.33666	0.369
Mof_C 	C 	0.53252	0.1127	0.24208	-0.117
Mof_C 	C 	0.46714	0.801	0.801	0.061
Mof_C 	C 	0.801	0.46714	0.93086	0.06
Mof_C 	C 	0.801	0.93086	0.46714	0.06
Mof_C 	C 	0.93086	0.801	0.801	0.052
Mof_C 	C 	0.46714	0.801	0.93086	0.06
Mof_C 	C 	0.801	0.93086	0.801	0.052
Mof_C 	C 	0.801	0.46714	0.801	0.061
Mof_C 	C 	0.93086	0.801	0.46714	0.06
Mof_C 	C 	0.46714	0.93086	0.801	0.06
Mof_C 	C 	0.801	0.801	0.46714	0.061
Mof_C 	C 	0.801	0.801	0.93086	0.052
Mof_C 	C 	0.93086	0.46714	0.801	0.06
Mof_C 	C 	0.199	0.53286	0.199	0.061
Mof_C 	C 	0.53286	0.199	0.06914	0.06
Mof_C 	C 	0.06914	0.199	0.53286	0.06
Mof_C 	C 	0.199	0.06914	0.199	0.052
Mof_C 	C 	0.199	0.53286	0.06914	0.06
Mof_C 	C 	0.06914	0.199	0.199	0.052
Mof_C 	C 	0.53286	0.199	0.199	0.061
Mof_C 	C 	0.199	0.06914	0.53286	0.06
Mof_C 	C 	0.06914	0.53286	0.199	0.06
Mof_C 	C 	0.199	0.199	0.53286	0.061
Mof_C 	C 	0.199	0.199	0.06914	0.052
Mof_C 	C 	0.53286	0.06914	0.199	0.06
Mof_O 	O 	0.47913	0.88721	0.62641	-0.405
Mof_O 	O 	0.88721	0.47913	0.00725	-0.398
Mof_O 	O 	0.62641	0.00725	0.47913	-0.403
Mof_O 	O 	0.00725	0.62641	0.88721	-0.394
Mof_O 	O 	0.47913	0.62641	0.00725	-0.403
Mof_O 	O 	0.88721	0.00725	0.62641	-0.394
Mof_O 	O 	0.62641	0.47913	0.88721	-0.405
Mof_O 	O 	0.00725	0.88721	0.47913	-0.398
Mof_O 	O 	0.47913	0.00725	0.88721	-0.398
Mof_O 	O 	0.88721	0.62641	0.47913	-0.405
Mof_O 	O 	0.62641	0.88721	0.00725	-0.394
Mof_O 	O 	0.00725	0.47913	0.62641	-0.403
Mof_O 	O 	0.11279	0.52087	0.37359	-0.405
Mof_O 	O 	0.52087	0.11279	0.99275	-0.398
Mof_O 	O 	0.99275	0.37359	0.52087	-0.403
Mof_O 	O 	0.37359	0.99275	0.11279	-0.394
Mof_O 	O 	0.37359	0.52087	0.99275	-0.403
Mof_O 	O 	0.99275	0.11279	0.37359	-0.394
Mof_O 	O 	0.52087	0.37359	0.11279	-0.405
Mof_O 	O 	0.11279	0.99275	0.52087	-0.398
Mof_O 	O 	0.99275	0.52087	0.11279	-0.398
Mof_O 	O 	0.37359	0.11279	0.52087	-0.405
Mof_O 	O 	0.11279	0.37359	0.99275	-0.394
Mof_O 	O 	0.52087	0.99275	0.37359	-0.403
Mof_O 	O 	0.52087	0.11279	0.37359	-0.405
Mof_O 	O 	0.11279	0.52087	0.99275	-0.398
Mof_O 	O 	0.37359	0.99275	0.52087	-0.403
Mof_O 	O 	0.99275	0.37359	0.11279	-0.394
Mof_O 	O 	0.52087	0.37359	0.99275	-0.403
Mof_O 	O 	0.11279	0.99275	0.37359	-0.394
Mof_O 	O 	0.37359	0.52087	0.11279	-0.405
Mof_O 	O 	0.99275	0.11279	0.52087	-0.398
Mof_O 	O 	0.52087	0.99275	0.11279	-0.398
Mof_O 	O 	0.11279	0.37359	0.52087	-0.405
Mof_O 	O 	0.37359	0.11279	0.99275	-0.394
Mof_O 	O 	0.99275	0.52087	0.37359	-0.403
Mof_O 	O 	0.88721	0.47913	0.62641	-0.405
Mof_O 	O 	0.47913	0.88721	0.00725	-0.398
Mof_O 	O 	0.00725	0.62641	0.47913	-0.403
Mof_O 	O 	0.62641	0.00725	0.88721	-0.394
Mof_O 	O 	0.62641	0.47913	0.00725	-0.403
Mof_O 	O 	0.00725	0.88721	0.62641	-0.394
Mof_O 	O 	0.47913	0.62641	0.88721	-0.405
Mof_O 	O 	0.88721	0.00725	0.47913	-0.398
Mof_O 	O 	0.00725	0.47913	0.88721	-0.398
Mof_O 	O 	0.62641	0.88721	0.47913	-0.405
Mof_O 	O 	0.88721	0.62641	0.00725	-0.394
Mof_O 	O 	0.47913	0.00725	0.62641	-0.403
_end
