data_functionalizedCrystal
_audit_creation_method	'EQeq! by Chris Wilmer'
_symmetry_space_group_name_H-M	'P1'
_symmetry_Int_Tables_number	1
_symmetry_cell_setting	triclinic
loop_
_symmetry_equiv_pos_as_xyz
  x,y,z
_cell_length_a	7.4374
_cell_length_b	16.4283
_cell_length_c	14.553
_cell_angle_alpha	90
_cell_angle_beta	94.837
_cell_angle_gamma	90
loop_
_atom_site_label
_atom_site_type_symbol
_atom_site_fract_x
_atom_site_fract_y
_atom_site_fract_z
_atom_site_charge
Mof_Zn	Zn	0.19218	0.12791	0.47974	1.222
Mof_Zn	Zn	0.22244	0.01827	0.68121	1.192
Mof_O 	O 	0.2469	0.01747	0.54636	-0.656
Mof_O 	O 	0.6039	0.09523	0.5821	-0.462
Mof_O 	O 	0.4256	0.44959	0.73398	-0.404
Mof_O 	O 	0.0186	0.10547	0.68426	-0.507
Mof_O 	O 	0.525	0.41322	0.87323	-0.463
Mof_O 	O 	0.902	0.41485	0.89811	-0.553
Mof_O 	O 	0.0758	0.42963	0.78339	-0.486
Mof_O 	O 	0.3787	0.1852	0.5633	-0.495
Mof_C 	C 	0.8323	0.3402	0.7611	-0.147
Mof_O 	O 	0.9694	0.15824	0.5435	-0.456
Mof_C 	C 	0.9458	0.40022	0.8186	0.479
Mof_C 	C 	0.9462	0.15397	0.6275	0.45
Mof_C 	C 	0.6432	0.34501	0.7455	-0.048
Mof_C 	C 	0.831	0.21922	0.6662	-0.112
Mof_C 	C 	0.5347	0.16336	0.5935	0.362
Mof_C 	C 	0.554	0.28856	0.688	-0.02
Mof_H 	H 	0.4299	0.2933	0.6751	0.054
Mof_C 	C 	0.9223	0.27751	0.7197	0.11
Mof_H 	H 	0.0475	0.2749	0.7285	-0.014
Mof_C 	C 	0.6439	0.22481	0.6489	-0.042
Mof_C 	C 	0.5277	0.40719	0.7871	0.339
Mof_Zn	Zn	0.30782	0.62791	0.02026	1.2
Mof_Zn	Zn	0.27756	0.51827	0.81879	1.212
Mof_O 	O 	0.2531	0.51747	0.95364	-0.581
Mof_O 	O 	0.8961	0.59523	0.9179	-0.423
Mof_O 	O 	0.0744	0.94959	0.76602	-0.386
Mof_O 	O 	0.4814	0.60547	0.81574	-0.456
Mof_O 	O 	0.975	0.91322	0.62677	-0.46
Mof_O 	O 	0.598	0.91485	0.60189	-0.554
Mof_O 	O 	0.4242	0.92963	0.71661	-0.431
Mof_O 	O 	0.1213	0.6852	0.9367	-0.482
Mof_C 	C 	0.6677	0.8402	0.7389	-0.096
Mof_O 	O 	0.5306	0.65824	0.9565	-0.414
Mof_C 	C 	0.5542	0.90022	0.6814	0.436
Mof_C 	C 	0.5538	0.65397	0.8725	0.396
Mof_C 	C 	0.8568	0.84501	0.7545	-0.086
Mof_C 	C 	0.669	0.71922	0.8338	-0.055
Mof_C 	C 	0.9653	0.66336	0.9065	0.394
Mof_C 	C 	0.946	0.78856	0.812	0.055
Mof_H 	H 	0.0701	0.7933	0.8249	0.024
Mof_C 	C 	0.5777	0.77751	0.7803	0.023
Mof_H 	H 	0.4525	0.7749	0.7715	0.032
Mof_C 	C 	0.8561	0.72481	0.8511	-0.076
Mof_C 	C 	0.9723	0.90719	0.7129	0.376
Mof_Zn	Zn	0.80782	0.87209	0.52026	1.23
Mof_Zn	Zn	0.77756	0.98173	0.31879	1.231
Mof_O 	O 	0.7531	0.98253	0.45364	-0.574
Mof_O 	O 	0.3961	0.90477	0.4179	-0.424
Mof_O 	O 	0.5744	0.55041	0.26602	-0.409
Mof_O 	O 	0.9814	0.89453	0.31574	-0.416
Mof_O 	O 	0.475	0.58678	0.12677	-0.502
Mof_O 	O 	0.098	0.58515	0.10189	-0.593
Mof_O 	O 	0.9242	0.57037	0.21661	-0.432
Mof_O 	O 	0.6213	0.8148	0.4367	-0.488
Mof_C 	C 	0.1677	0.6598	0.2389	-0.084
Mof_O 	O 	0.0306	0.84176	0.4565	-0.448
Mof_C 	C 	0.0542	0.59978	0.1814	0.393
Mof_C 	C 	0.0538	0.84603	0.3725	0.362
Mof_C 	C 	0.3568	0.65499	0.2545	-0.094
Mof_C 	C 	0.169	0.78078	0.3338	-0.039
Mof_C 	C 	0.4653	0.83664	0.4065	0.365
Mof_C 	C 	0.446	0.71144	0.312	0.015
Mof_H 	H 	0.5701	0.7067	0.3249	0.043
Mof_C 	C 	0.0777	0.72249	0.2803	-0.049
Mof_H 	H 	0.9525	0.7251	0.2715	0.069
Mof_C 	C 	0.3561	0.77519	0.3511	-0.077
Mof_C 	C 	0.4723	0.59281	0.2129	0.358
Mof_Zn	Zn	0.69218	0.37209	0.97974	1.25
Mof_Zn	Zn	0.72244	0.48173	0.18121	1.214
Mof_O 	O 	0.7469	0.48253	0.04636	-0.641
Mof_O 	O 	0.1039	0.40477	0.0821	-0.458
Mof_O 	O 	0.9256	0.05041	0.23398	-0.409
Mof_O 	O 	0.5186	0.39453	0.18426	-0.467
Mof_O 	O 	0.025	0.08678	0.37323	-0.501
Mof_O 	O 	0.402	0.08515	0.39811	-0.593
Mof_O 	O 	0.5758	0.07037	0.28339	-0.493
Mof_O 	O 	0.8787	0.3148	0.0633	-0.484
Mof_C 	C 	0.3323	0.1598	0.2611	-0.149
Mof_O 	O 	0.4694	0.34176	0.0435	-0.491
Mof_C 	C 	0.4458	0.09978	0.3186	0.45
Mof_C 	C 	0.4462	0.34603	0.1275	0.421
Mof_C 	C 	0.1432	0.15499	0.2455	-0.035
Mof_C 	C 	0.331	0.28078	0.1662	-0.109
Mof_C 	C 	0.0347	0.33664	0.0935	0.31
Mof_C 	C 	0.054	0.21144	0.188	-0.099
Mof_H 	H 	0.9299	0.2067	0.1751	0.094
Mof_C 	C 	0.4223	0.22249	0.2197	0.058
Mof_H 	H 	0.5475	0.2251	0.2285	0.016
Mof_C 	C 	0.1439	0.27519	0.1489	-0.023
Mof_C 	C 	0.0277	0.09281	0.2871	0.299
Mof_Zn	Zn	0.5	0	0.5	1.211
Mof_Zn	Zn	-0	0.5	-0	1.201
_end
