data_functionalizedCrystal
_audit_creation_method	'EQeq! by Chris Wilmer'
_symmetry_space_group_name_H-M	'P1'
_symmetry_Int_Tables_number	1
_symmetry_cell_setting	triclinic
loop_
_symmetry_equiv_pos_as_xyz
  x,y,z
_cell_length_a	16.6017
_cell_length_b	17.4095
_cell_length_c	25.5133
_cell_angle_alpha	90
_cell_angle_beta	90
_cell_angle_gamma	90
loop_
_atom_site_label
_atom_site_type_symbol
_atom_site_fract_x
_atom_site_fract_y
_atom_site_fract_z
_atom_site_charge
Mof_U 	U 	0.99435	0.75218	0.24776	0.037
Mof_U 	U 	0.22232	0.28635	0.17569	0.046
Mof_U 	U 	0.00565	0.25218	0.25224	0.036
Mof_U 	U 	0.92843	0.22804	0.74541	0.038
Mof_U 	U 	0.21536	0.21414	0.3094	0.045
Mof_U 	U 	0.71536	0.28586	0.6906	0.045
Mof_U 	U 	0.78464	0.71414	0.1906	0.045
Mof_U 	U 	0.42843	0.27196	0.25459	0.039
Mof_U 	U 	0.50565	0.24782	0.74776	0.038
Mof_U 	U 	0.27768	0.71365	0.67569	0.047
Mof_U 	U 	0.49435	0.74782	0.75224	0.038
Mof_U 	U 	0.57157	0.77196	0.24541	0.039
Mof_U 	U 	0.28464	0.78586	0.8094	0.045
Mof_U 	U 	0.77768	0.78635	0.32431	0.047
Mof_U 	U 	0.07157	0.72804	0.75459	0.039
Mof_U 	U 	0.72232	0.21365	0.82431	0.047
Mof_Cu	Cu	0.75178	0.64076	0.42725	0.901
Mof_Cu	Cu	0.25178	0.85924	0.57275	0.901
Mof_Cu	Cu	0.28499	0.63975	0.91482	0.909
Mof_Cu	Cu	0.78499	0.86025	0.08518	0.909
Mof_Cu	Cu	0.71501	0.13975	0.58518	0.909
Mof_Cu	Cu	0.74822	0.35924	0.92725	0.901
Mof_Cu	Cu	0.24822	0.14076	0.07275	0.901
Mof_Cu	Cu	0.21501	0.36025	0.41482	0.909
Mof_H 	H 	0.8925	0.3774	0.8545	0.033
Mof_H 	H 	0.2679	0.4933	0.9531	0.013
Mof_H 	H 	0.1075	0.8774	0.6455	0.032
Mof_H 	H 	0.5318	0.1414	0.1413	0.097
Mof_H 	H 	0.4082	0.9111	0.6212	0.026
Mof_H 	H 	0.9436	0.661	0.5917	0.054
Mof_H 	H 	0.4623	0.6973	0.0726	0.051
Mof_H 	H 	0.2375	0.0786	0.7041	0.101
Mof_H 	H 	0.8947	0.1709	0.4197	0.048
Mof_H 	H 	0.0474	0.4011	0.3685	0.029
Mof_H 	H 	0.1866	0.6761	0.0056	0.048
Mof_H 	H 	0.7321	0.9933	0.5469	0.013
Mof_H 	H 	0.6966	0.8349	0.6521	0.068
Mof_H 	H 	0.2736	0.7906	0.0464	0.034
Mof_H 	H 	0.7349	0.7921	0.5625	0.037
Mof_H 	H 	0.2349	0.7079	0.4375	0.037
Mof_H 	H 	0.1008	0.6152	0.5782	0.15
Mof_H 	H 	0.7625	0.5786	0.7959	0.1
Mof_H 	H 	0.5558	0.35	0.5718	0.132
Mof_H 	H 	0.3175	0.4217	0.7833	0.111
Mof_H 	H 	0.6825	0.9217	0.7167	0.112
Mof_H 	H 	0.4682	0.6414	0.3587	0.097
Mof_H 	H 	0.5377	0.1973	0.4274	0.051
Mof_H 	H 	0.8749	0.0822	0.6279	0.019
Mof_H 	H 	0.2401	0.5894	0.5047	0.143
Mof_H 	H 	0.9526	0.9011	0.1315	0.028
Mof_H 	H 	0.544	0.4017	0.4823	0.039
Mof_H 	H 	0.0377	0.3027	0.5726	0.05
Mof_H 	H 	0.7679	0.0067	0.0469	0.014
Mof_H 	H 	0.7676	0.6725	0.8598	0.07
Mof_H 	H 	0.2599	0.4106	0.0047	0.142
Mof_H 	H 	0.2324	0.1725	0.6402	0.07
Mof_H 	H 	0.5474	0.0989	0.6315	0.029
Mof_H 	H 	0.2311	0.0094	0.5307	0.004
Mof_H 	H 	0.0904	0.332	0.9378	0.051
Mof_H 	H 	0.1126	0.3344	0.5052	0.043
Mof_H 	H 	0.0391	0.562	0.4037	0.076
Mof_H 	H 	0.3947	0.3291	0.5803	0.048
Mof_H 	H 	0.4436	0.839	0.4083	0.054
Mof_H 	H 	0.8178	0.9494	0.1872	0.035
Mof_H 	H 	0.928	0.7978	0.467	0.044
Mof_H 	H 	0.4442	0.85	0.9282	0.132
Mof_H 	H 	0.7401	0.9106	0.4953	0.142
Mof_H 	H 	0.7651	0.2079	0.0625	0.037
Mof_H 	H 	0.072	0.2978	0.033	0.044
Mof_H 	H 	0.241	0.9466	0.6797	0.046
Mof_H 	H 	0.1416	0.1564	0.9808	0.035
Mof_H 	H 	0.3749	0.4178	0.3721	0.019
Mof_H 	H 	0.3584	0.8436	0.4808	0.035
Mof_H 	H 	0.456	0.9017	0.0177	0.039
Mof_H 	H 	0.7311	0.4906	0.4693	0.004
Mof_H 	H 	0.9623	0.8027	0.9274	0.047
Mof_H 	H 	0.3178	0.5506	0.8128	0.035
Mof_H 	H 	0.1822	0.4494	0.3128	0.035
Mof_H 	H 	0.2676	0.8275	0.1402	0.07
Mof_H 	H 	0.9146	0.4029	0.3941	0.084
Mof_H 	H 	0.4978	0.9248	0.1038	0.089
Mof_H 	H 	0.9682	0.8586	0.6413	0.097
Mof_H 	H 	0.4609	0.438	0.9037	0.076
Mof_H 	H 	0.9442	0.65	0.0718	0.132
Mof_H 	H 	0.8134	0.1761	0.4944	0.049
Mof_H 	H 	0.5854	0.5971	0.8941	0.084
Mof_H 	H 	0.1966	0.6651	0.3479	0.068
Mof_H 	H 	0.2689	0.9906	0.0307	0.005
Mof_H 	H 	0.0564	0.161	0.9083	0.054
Mof_H 	H 	0.4329	0.179	0.9192	0.129
Mof_H 	H 	0.741	0.5534	0.3203	0.046
Mof_H 	H 	0.8733	0.3356	0.0057	0.028
Mof_H 	H 	0.8584	0.6564	0.5192	0.035
Mof_H 	H 	0.6822	0.0506	0.6872	0.034
Mof_H 	H 	0.1053	0.6709	0.0803	0.048
Mof_H 	H 	0.9096	0.832	0.5622	0.051
Mof_H 	H 	0.8874	0.8344	0.9948	0.042
Mof_H 	H 	0.5706	0.9219	0.5051	0.049
Mof_H 	H 	0.3893	0.1273	0.5185	0.041
Mof_H 	H 	0.9329	0.321	0.0808	0.127
Mof_H 	H 	0.1251	0.5822	0.8721	0.018
Mof_H 	H 	0.0318	0.3586	0.8587	0.097
Mof_H 	H 	0.8992	0.1152	0.9218	0.15
Mof_H 	H 	0.2827	0.9097	0.9766	0.144
Mof_H 	H 	0.8893	0.3727	0.4815	0.041
Mof_H 	H 	0.7736	0.7094	0.9536	0.034
Mof_H 	H 	0.3992	0.3848	0.0782	0.151
Mof_H 	H 	0.7375	0.4214	0.2959	0.1
Mof_H 	H 	0.4096	0.668	0.4378	0.05
Mof_H 	H 	0.0558	0.15	0.4282	0.133
Mof_H 	H 	0.3925	0.1226	0.1455	0.033
Mof_H 	H 	0.2173	0.0903	0.4766	0.144
Mof_H 	H 	0.9978	0.5752	0.8962	0.089
Mof_H 	H 	0.6866	0.8239	0.9944	0.049
Mof_H 	H 	0.7324	0.3275	0.3598	0.07
Mof_H 	H 	0.8175	0.0783	0.2167	0.11
Mof_H 	H 	0.1107	0.8727	0.0185	0.039
Mof_H 	H 	0.0854	0.9029	0.1059	0.085
Mof_H 	H 	0.7264	0.2906	0.4536	0.034
Mof_H 	H 	0.1825	0.5783	0.2833	0.111
Mof_H 	H 	0.3134	0.3239	0.5056	0.049
Mof_H 	H 	0.7173	0.4097	0.5234	0.144
Mof_H 	H 	0.5564	0.339	0.0917	0.054
Mof_H 	H 	0.428	0.7022	0.533	0.042
Mof_H 	H 	0.6075	0.6226	0.3545	0.032
Mof_H 	H 	0.3733	0.1644	0.9943	0.027
Mof_H 	H 	0.956	0.5983	0.9823	0.037
Mof_H 	H 	0.6008	0.8848	0.4218	0.151
Mof_H 	H 	0.5022	0.4248	0.3962	0.089
Mof_H 	H 	0.6267	0.6644	0.5057	0.027
Mof_H 	H 	0.1267	0.8356	0.4943	0.028
Mof_H 	H 	0.2321	0.5067	0.4531	0.013
Mof_H 	H 	0.7827	0.5903	0.0234	0.144
Mof_H 	H 	0.8034	0.1651	0.1521	0.069
Mof_H 	H 	0.6126	0.1656	0.4948	0.044
Mof_H 	H 	0.0918	0.0889	0.1212	0.027
Mof_H 	H 	0.572	0.2022	0.967	0.042
Mof_H 	H 	0.2264	0.2094	0.5464	0.034
Mof_H 	H 	0.4526	0.5989	0.8685	0.029
Mof_H 	H 	0.0671	0.821	0.4192	0.127
Mof_H 	H 	0.259	0.0534	0.1797	0.046
Mof_H 	H 	0.9609	0.062	0.0963	0.076
Mof_H 	H 	0.4146	0.0971	0.6059	0.084
Mof_H 	H 	0.5918	0.4111	0.8788	0.026
Mof_H 	H 	0.4294	0.4219	0.9949	0.05
Mof_H 	H 	0.2625	0.9214	0.2041	0.1
Mof_H 	H 	0.9294	0.0781	0.0051	0.05
Mof_H 	H 	0.6053	0.8291	0.9197	0.049
Mof_H 	H 	0.6257	0.6608	0.0729	0.139
Mof_H 	H 	0.3743	0.1608	0.4271	0.138
Mof_H 	H 	0.3034	0.3349	0.8479	0.068
Mof_H 	H 	0.6416	0.3436	0.0192	0.036
Mof_H 	H 	0.6251	0.9178	0.1279	0.019
Mof_H 	H 	0.044	0.0983	0.5177	0.037
Mof_H 	H 	0.1257	0.8392	0.9271	0.14
Mof_H 	H 	0.0022	0.0752	0.6038	0.088
Mof_H 	H 	0.2651	0.2921	0.9375	0.037
Mof_H 	H 	0.0706	0.5781	0.4949	0.049
Mof_H 	H 	0.9082	0.5889	0.3788	0.026
Mof_H 	H 	0.5671	0.679	0.5808	0.129
Mof_H 	H 	0.759	0.4466	0.8203	0.046
Mof_H 	H 	0.5904	0.168	0.0622	0.05
Mof_H 	H 	0.7689	0.5094	0.9693	0.005
Mof_H 	H 	0.6107	0.6273	0.9815	0.041
Mof_H 	H 	0.3874	0.6656	0.0052	0.043
Mof_H 	H 	0.5391	0.938	0.5963	0.076
Mof_H 	H 	0.7599	0.0894	0.9953	0.141
Mof_H 	H 	0.8743	0.3392	0.5729	0.139
Mof_C 	C 	0.1947	0.4877	0.3368	0.087
Mof_C 	C 	0.8524	0.1517	0.5146	0.017
Mof_C 	C 	0.2404	0.6415	0.4967	-0.25
Mof_C 	C 	0.2332	0.1208	0.631	-0.01
Mof_C 	C 	0.0004	0.354	0.8887	-0.084
Mof_C 	C 	0.5348	0.1628	0.0647	-0.006
Mof_C 	C 	0.578	0.6801	0.0867	-0.224
Mof_C 	C 	0.1109	0.598	0.9057	0.092
Mof_C 	C 	0.0122	0.8106	0.4207	-0.189
Mof_C 	C 	0.4916	0.1779	0.4432	0.054
Mof_C 	C 	0.7668	0.6208	0.869	-0.011
Mof_C 	C 	0.2751	0.842	0.0366	0.076
Mof_C 	C 	0.0141	0.1417	0.9282	0.06
Mof_C 	C 	0.1045	0.1342	0.0035	0.028
Mof_C 	C 	0.0355	0.592	0.9207	-0.106
Mof_C 	C 	0.7233	0.9788	0.5816	0.032
Mof_C 	C 	0.0689	0.641	0.0052	-0.02
Mof_C 	C 	0.5085	0.8921	0.0286	-0.001
Mof_C 	C 	0.7492	0.8068	0.4579	0.358
Mof_C 	C 	0.0779	0.7897	0.8633	0.347
Mof_C 	C 	0.406	0.1616	0.0238	0.013
Mof_C 	C 	0.6109	0.902	0.0943	0.091
Mof_C 	C 	0.2111	0.1953	0.4445	0.416
Mof_C 	C 	0.594	0.6616	0.4762	0.013
Mof_C 	C 	0.0584	0.661	0.0616	0.061
Mof_C 	C 	0.6914	0.9353	0.6819	-0.103
Mof_C 	C 	0.9557	0.3897	0.4172	-0.093
Mof_C 	C 	0.422	0.1801	0.4133	-0.224
Mof_C 	C 	0.9823	0.8109	0.4663	0.044
Mof_C 	C 	0.443	0.3636	0.0956	-0.231
Mof_C 	C 	0.4557	0.1103	0.5828	-0.093
Mof_C 	C 	0.6045	0.3658	0.9965	0.028
Mof_C 	C 	0.7668	0.1568	0.0518	0.079
Mof_C 	C 	0.989	0.6947	0.1366	0.292
Mof_C 	C 	0.0195	0.5913	0.4829	-0.01
Mof_C 	C 	0.0353	0.3867	0.4027	0.067
Mof_C 	C 	0.4235	0.9042	0.5864	0.062
Mof_C 	C 	0.0765	0.0958	0.0864	0.059
Mof_C 	C 	0.7889	0.6953	0.0555	0.416
Mof_C 	C 	0.2024	0.6133	0.356	0.015
Mof_C 	C 	0.5153	0.6725	0.4818	-0.022
Mof_C 	C 	0.906	0.3384	0.9762	0.01
Mof_C 	C 	0.0082	0.1663	0.4125	-0.228
Mof_C 	C 	0.499	0.4206	0.9276	-0.085
Mof_C 	C 	0.7332	0.8432	0.5518	0.081
Mof_C 	C 	0.1914	0.5647	0.3181	-0.102
Mof_C 	C 	0.5016	0.1485	0.4972	-0.025
Mof_C 	C 	0.5779	0.7103	0.1367	0.345
Mof_C 	C 	0.7628	0.5649	0.8311	-0.068
Mof_C 	C 	0.2492	0.6932	0.5421	0.358
Mof_C 	C 	0.558	0.6286	0.9691	-0.001
Mof_C 	C 	0.7332	0.3792	0.369	-0.011
Mof_C 	C 	0.4645	0.408	0.4207	-0.105
Mof_C 	C 	0.4159	0.1363	0.1138	0.073
Mof_C 	C 	0.1476	0.6517	0.9854	0.019
Mof_C 	C 	0.2668	0.3432	0.9482	0.08
Mof_C 	C 	0.7249	0.342	0.4634	0.078
Mof_C 	C 	0.7409	0.5153	0.3458	0.048
Mof_C 	C 	0.9805	0.0913	0.0171	-0.009
Mof_C 	C 	0.4671	0.88	0.4829	-0.025
Mof_C 	C 	0.8955	0.6342	0.4965	0.029
Mof_C 	C 	0.011	0.1947	0.3634	0.292
Mof_C 	C 	0.3891	0.402	0.4057	0.091
Mof_C 	C 	0.6476	0.8483	0.0146	0.016
Mof_C 	C 	0.0255	0.2967	0.1292	0.284
Mof_C 	C 	0.065	0.6625	0.6462	0.34
Mof_C 	C 	0.2249	0.158	0.5366	0.078
Mof_C 	C 	0.2591	0.0153	0.1542	0.047
Mof_C 	C 	0.5141	0.3583	0.0718	0.06
Mof_C 	C 	0.001	0.5794	0.4276	-0.085
Mof_C 	C 	0.442	0.1286	0.5309	-0.001
Mof_C 	C 	0.7219	0.9046	0.5924	-0.044
Mof_C 	C 	0.2822	0.858	0.9858	-0.288
Mof_C 	C 	0.5122	0.6894	0.5793	-0.196
Mof_C 	C 	0.9984	0.8515	0.9972	-0.032
Mof_C 	C 	0.428	0.6507	0.9823	0.032
Mof_C 	C 	0.2596	0.3585	0.9967	-0.248
Mof_C 	C 	0.5443	0.6103	0.9172	-0.093
Mof_C 	C 	0.057	0.6364	0.5956	-0.23
Mof_C 	C 	0.2219	0.5954	0.4076	-0.044
Mof_C 	C 	0.9416	0.161	0.4384	0.063
Mof_C 	C 	0.9918	0.6663	0.0875	-0.226
Mof_C 	C 	0.5355	0.908	0.0793	-0.104
Mof_C 	C 	0.2332	0.6568	0.4482	0.081
Mof_C 	C 	0.2889	0.8047	0.9445	0.416
Mof_C 	C 	0.2508	0.3068	0.0421	0.358
Mof_C 	C 	0.943	0.1364	0.9044	-0.23
Mof_C 	C 	0.0348	0.3372	0.9353	-0.008
Mof_C 	C 	0.2409	0.9847	0.6542	0.049
Mof_C 	C 	0.9652	0.8372	0.5647	-0.008
Mof_C 	C 	0.0841	0.8637	0.6138	0.074
Mof_C 	C 	0.4647	0.6133	0.9027	0.067
Mof_C 	C 	0.9878	0.3106	0.0793	-0.189
Mof_C 	C 	0.435	0.3375	0.1462	0.34
Mof_C 	C 	0.4416	0.339	0.5616	0.06
Mof_C 	C 	0.4311	0.359	0.5052	-0.017
Mof_C 	C 	0.7976	0.1133	0.144	0.013
Mof_C 	C 	0.9647	0.8867	0.0973	0.067
Mof_C 	C 	0.8086	0.0647	0.1819	-0.099
Mof_C 	C 	0.9671	0.62	0.5171	-0.024
Mof_C 	C 	0.489	0.8053	0.8634	0.292
Mof_C 	C 	0.501	0.9206	0.5724	-0.085
Mof_C 	C 	0.7305	0.4012	0.421	-0.03
Mof_C 	C 	0.4745	0.7033	0.6292	0.288
Mof_C 	C 	0.4221	0.2103	0.3633	0.345
Mof_C 	C 	0.9159	0.3637	0.8862	0.072
Mof_C 	C 	0.2178	0.142	0.4858	-0.29
Mof_C 	C 	0.072	0.3493	0.4823	0.032
Mof_C 	C 	0.2372	0.0649	0.6689	-0.069
Mof_C 	C 	0.9311	0.141	0.4948	-0.019
Mof_C 	C 	0.7767	0.0212	0.0816	0.033
Mof_C 	C 	0.0153	0.8275	0.5182	-0.017
Mof_C 	C 	0.7372	0.4351	0.3311	-0.068
Mof_C 	C 	0.2654	0.9768	0.0658	0.015
Mof_C 	C 	0.7695	0.5988	0.921	-0.03
Mof_C 	C 	0.2233	0.5212	0.4184	0.033
Mof_C 	C 	0.5195	0.9087	0.5171	-0.01
Mof_C 	C 	0.4805	0.4087	0.9829	-0.01
Mof_C 	C 	0.5177	0.1891	0.9663	0.051
Mof_C 	C 	0.2767	0.4788	0.9184	0.033
Mof_C 	C 	0.4652	0.6628	0.4353	-0.005
Mof_C 	C 	0.8053	0.9877	0.1632	0.084
Mof_C 	C 	0.7178	0.358	0.5142	-0.29
Mof_C 	C 	0.9847	0.3275	0.9818	-0.018
Mof_C 	C 	0.5084	0.6779	0.0568	0.054
Mof_C 	C 	0.7346	0.4768	0.4342	0.015
Mof_C 	C 	0.5255	0.2033	0.8708	0.288
Mof_C 	C 	0.5765	0.4042	0.9136	0.062
Mof_C 	C 	0.7751	0.658	0.9634	0.077
Mof_C 	C 	0.5082	0.3337	0.5875	-0.225
Mof_C 	C 	0.0084	0.8221	0.9432	0.062
Mof_C 	C 	0.935	0.1625	0.8538	0.34
Mof_C 	C 	0.9645	0.092	0.5793	-0.103
Mof_C 	C 	0.9235	0.5958	0.4136	0.061
Mof_C 	C 	0.7404	0.8585	0.5033	-0.25
Mof_C 	C 	0.928	0.8493	0.0177	0.036
Mof_C 	C 	0.7591	0.4847	0.8458	0.048
Mof_C 	C 	0.058	0.8714	0.0309	0.004
Mof_C 	C 	0.4878	0.1894	0.9207	-0.196
Mof_C 	C 	0.9859	0.6417	0.5718	0.06
Mof_C 	C 	0.4984	0.6485	0.0028	-0.025
Mof_C 	C 	0.3086	0.4353	0.8181	-0.102
Mof_C 	C 	0.2781	0.4046	0.9076	-0.044
Mof_C 	C 	0.7654	0.5232	0.9342	0.015
Mof_C 	C 	0.8891	0.098	0.5943	0.09
Mof_C 	C 	0.0329	0.12	0.9829	-0.025
Mof_C 	C 	0.4918	0.8337	0.9125	-0.224
Mof_C 	C 	0.9996	0.854	0.6113	-0.086
Mof_C 	C 	0.565	0.8375	0.3538	0.34
Mof_C 	C 	0.3955	0.8658	0.5035	0.029
Mof_C 	C 	0.942	0.3714	0.4691	0
Mof_C 	C 	0.7596	0.1415	0.0033	-0.246
Mof_C 	C 	0.0085	0.6079	0.9714	0.003
Mof_C 	C 	0.5353	0.1133	0.5973	0.067
Mof_C 	C 	0.2976	0.3867	0.856	0.015
Mof_C 	C 	0.3524	0.3483	0.4854	0.016
Mof_C 	C 	0.2668	0.8792	0.131	-0.011
Mof_C 	C 	0.922	0.3199	0.5867	-0.225
Mof_C 	C 	0.5689	0.859	0.9948	-0.016
Mof_C 	C 	0.2695	0.9012	0.079	-0.029
Mof_C 	C 	0.0443	0.8897	0.0828	-0.095
Mof_C 	C 	0.511	0.3053	0.6366	0.292
Mof_C 	C 	0.2346	0.0232	0.5658	0.014
Mof_C 	C 	0.6947	0.0123	0.6632	0.088
Mof_C 	C 	0.9916	0.3221	0.5568	0.056
Mof_C 	C 	0.4847	0.1725	0.0182	-0.022
Mof_C 	C 	0.5584	0.839	0.9384	0.059
Mof_C 	C 	0.7111	0.3047	0.5555	0.416
Mof_C 	C 	0.0177	0.3109	0.0337	0.044
Mof_C 	C 	0.9745	0.7967	0.3708	0.285
Mof_C 	C 	0.9915	0.1079	0.5286	0.001
Mof_C 	C 	0.2628	0.9351	0.1689	-0.067
Mof_C 	C 	0.094	0.8384	0.5238	0.011
Mof_C 	C 	0.999	0.0794	0.0724	-0.082
Mof_C 	C 	0.5329	0.38	0.0171	-0.024
Mof_C 	C 	0.7822	0.642	0.0142	-0.289
Mof_C 	C 	0.4859	0.8583	0.4282	0.061
Mof_C 	C 	0.4915	0.3921	0.4714	-0
Mof_C 	C 	0.4823	0.6891	0.5337	0.051
Mof_C 	C 	0.3053	0.5123	0.8368	0.086
Mof_C 	C 	0.572	0.1507	0.5177	0.031
Mof_C 	C 	0.2305	0.0988	0.579	-0.03
Mof_C 	C 	0.557	0.8636	0.4044	-0.231
Mof_C 	C 	0.078	0.8199	0.9133	-0.228
Mof_C 	C 	0.5004	0.146	0.1113	-0.086
Mof_C 	C 	0.9221	0.2897	0.6367	0.346
Mof_C 	C 	0.7781	0.0954	0.0924	-0.043
Mof_C 	C 	0.0016	0.3515	0.5028	-0.027
Mof_C 	C 	0.4996	0.646	0.3887	-0.086
Mof_C 	C 	0.5841	0.6363	0.3862	0.073
Mof_C 	C 	0.7508	0.1932	0.9579	0.357
Mof_C 	C 	0.7024	0.8867	0.644	0.016
Mof_N 	N 	0.3697	0.1458	0.0726	-0.202
Mof_N 	N 	0.287	0.5344	0.883	-0.219
Mof_N 	N 	0.1303	0.8542	0.5726	-0.202
Mof_N 	N 	0.2441	0.9661	0.6034	-0.206
Mof_N 	N 	0.213	0.4656	0.383	-0.219
Mof_N 	N 	0.8697	0.3542	0.9274	-0.202
Mof_N 	N 	0.7559	0.4661	0.8966	-0.206
Mof_N 	N 	0.8342	0.1256	0.564	-0.2
Mof_N 	N 	0.4025	0.6352	0.9332	-0.203
Mof_N 	N 	0.9025	0.8648	0.0668	-0.204
Mof_N 	N 	0.713	0.0344	0.617	-0.219
Mof_N 	N 	0.6303	0.6458	0.4274	-0.202
Mof_N 	N 	0.6313	0.3787	0.948	-0.202
Mof_N 	N 	0.0975	0.3648	0.4332	-0.203
Mof_N 	N 	0.787	0.9656	0.117	-0.219
Mof_N 	N 	0.2559	0.0339	0.1034	-0.206
Mof_N 	N 	0.1658	0.6256	0.936	-0.2
Mof_N 	N 	0.5975	0.1352	0.5668	-0.203
Mof_N 	N 	0.3687	0.8787	0.552	-0.202
Mof_N 	N 	0.1313	0.1213	0.052	-0.202
Mof_N 	N 	0.6658	0.8744	0.064	-0.2
Mof_N 	N 	0.7441	0.5339	0.3966	-0.206
Mof_N 	N 	0.3342	0.3744	0.436	-0.2
Mof_N 	N 	0.8687	0.6213	0.448	-0.202
Mof_O 	O 	0.2372	0.1941	0.1527	-0.174
Mof_O 	O 	0.0842	0.6356	0.7789	-0.067
Mof_O 	O 	0.9967	0.167	0.8229	-0.171
Mof_O 	O 	0.1451	0.7901	0.8369	-0.173
Mof_O 	O 	0.0033	0.667	0.6771	-0.171
Mof_O 	O 	0.0135	0.773	0.8408	-0.192
Mof_O 	O 	0.2809	0.7366	0.9553	-0.406
Mof_O 	O 	0.1418	0.771	0.2568	-0.051
Mof_O 	O 	0.7953	0.8101	0.1624	-0.184
Mof_O 	O 	0.8963	0.7833	0.372	-0.172
Mof_O 	O 	0.6451	0.7099	0.1631	-0.173
Mof_O 	O 	0.7873	0.67	0.1025	-0.238
Mof_O 	O 	0.2191	0.2634	0.4553	-0.406
Mof_O 	O 	0.9403	0.3203	0.7694	-0.065
Mof_O 	O 	0.7127	0.33	0.6025	-0.238
Mof_O 	O 	0.7063	0.1168	0.8068	-0.047
Mof_O 	O 	0.2767	0.8849	0.7876	-0.05
Mof_O 	O 	0.2976	0.26	0.2484	-0.021
Mof_O 	O 	0.9158	0.1356	0.7211	-0.067
Mof_O 	O 	0.2047	0.3101	0.3376	-0.184
Mof_O 	O 	0.7809	0.7634	0.0447	-0.406
Mof_O 	O 	0.7372	0.3059	0.8473	-0.174
Mof_O 	O 	0.9228	0.6974	0.1685	-0.143
Mof_O 	O 	0.6418	0.729	0.7432	-0.051
Mof_O 	O 	0.5842	0.8644	0.2211	-0.067
Mof_O 	O 	0.861	0.7436	0.2623	-0.027
Mof_O 	O 	0.4967	0.333	0.1771	-0.171
Mof_O 	O 	0.2502	0.3262	0.0871	-0.233
Mof_O 	O 	0.2498	0.6738	0.5871	-0.234
Mof_O 	O 	0.7191	0.2366	0.5447	-0.406
Mof_O 	O 	0.4437	0.2837	0.6631	-0.162
Mof_O 	O 	0.8549	0.2901	0.6631	-0.173
Mof_O 	O 	0.4865	0.227	0.3408	-0.192
Mof_O 	O 	0.7628	0.6941	0.3473	-0.174
Mof_O 	O 	0.7449	0.2688	0.9726	-0.363
Mof_O 	O 	0.4757	0.2087	0.8283	-0.148
Mof_O 	O 	0.4158	0.3644	0.2789	-0.067
Mof_O 	O 	0.8582	0.271	0.2432	-0.051
Mof_O 	O 	0.6315	0.8139	0.3336	-0.166
Mof_O 	O 	0.5805	0.2774	0.2603	-0.044
Mof_O 	O 	0.8685	0.1861	0.8336	-0.166
Mof_O 	O 	0.3963	0.7167	0.628	-0.172
Mof_O 	O 	0.0772	0.1974	0.3315	-0.143
Mof_O 	O 	0.4403	0.1797	0.2306	-0.065
Mof_O 	O 	0.2063	0.3832	0.1932	-0.047
Mof_O 	O 	0.2127	0.17	0.3975	-0.238
Mof_O 	O 	0.7937	0.8832	0.3068	-0.048
Mof_O 	O 	0.5085	0.1564	0.7224	-0.067
Mof_O 	O 	0.5597	0.6797	0.2694	-0.065
Mof_O 	O 	0.5135	0.727	0.1592	-0.192
Mof_O 	O 	0.0085	0.3436	0.2776	-0.067
Mof_O 	O 	0.7233	0.3849	0.7124	-0.051
Mof_O 	O 	0.4195	0.7774	0.2397	-0.044
Mof_O 	O 	0.1315	0.6861	0.6664	-0.166
Mof_O 	O 	0.361	0.7564	0.7377	-0.027
Mof_O 	O 	0.2628	0.8059	0.6527	-0.174
Mof_O 	O 	0.2233	0.1151	0.2876	-0.051
Mof_O 	O 	0.4871	0.3454	0.7716	-0.067
Mof_O 	O 	0.4228	0.8026	0.8315	-0.143
Mof_O 	O 	0.139	0.2436	0.2377	-0.027
Mof_O 	O 	0.5563	0.7837	0.8369	-0.162
Mof_O 	O 	0.7502	0.1738	0.9129	-0.233
Mof_O 	O 	0.3582	0.229	0.7568	-0.051
Mof_O 	O 	0.1037	0.2833	0.128	-0.172
Mof_O 	O 	0.0563	0.7163	0.1631	-0.162
Mof_O 	O 	0.2449	0.2312	0.0274	-0.363
Mof_O 	O 	0.3549	0.2099	0.3369	-0.173
Mof_O 	O 	0.3685	0.3139	0.1664	-0.166
Mof_O 	O 	0.7976	0.24	0.7516	-0.021
Mof_O 	O 	0.5772	0.3026	0.6685	-0.143
Mof_O 	O 	0.9865	0.273	0.6592	-0.192
Mof_O 	O 	0.2551	0.7688	0.5274	-0.363
Mof_O 	O 	0.7767	0.6151	0.2124	-0.051
Mof_O 	O 	0.0243	0.7913	0.3283	-0.147
Mof_O 	O 	0.5243	0.7087	0.6717	-0.148
Mof_O 	O 	0.2873	0.83	0.8975	-0.238
Mof_O 	O 	0.2937	0.6168	0.6932	-0.047
Mof_O 	O 	0.7551	0.7312	0.4726	-0.363
Mof_O 	O 	0.5033	0.833	0.3229	-0.171
Mof_O 	O 	0.5129	0.8454	0.7284	-0.067
Mof_O 	O 	0.9757	0.2913	0.1717	-0.147
Mof_O 	O 	0.9195	0.7226	0.7603	-0.045
Mof_O 	O 	0.9871	0.1546	0.2284	-0.066
Mof_O 	O 	0.2953	0.6899	0.8376	-0.184
Mof_O 	O 	0.9915	0.8436	0.2224	-0.067
Mof_O 	O 	0.0129	0.6546	0.2716	-0.067
Mof_O 	O 	0.639	0.2564	0.7623	-0.027
Mof_O 	O 	0.0805	0.2226	0.7397	-0.045
Mof_O 	O 	0.0597	0.8203	0.7306	-0.065
Mof_O 	O 	0.4915	0.6564	0.7776	-0.067
Mof_O 	O 	0.2024	0.74	0.7484	-0.021
Mof_O 	O 	0.7024	0.76	0.2516	-0.021
Mof_O 	O 	0.7498	0.8262	0.4129	-0.234
Mof_O 	O 	0.9437	0.2163	0.3369	-0.162
Mof_O 	O 	0.7047	0.1899	0.6624	-0.184
Mof_O 	O 	0.6037	0.2167	0.872	-0.172
Mof_N 	N 	0.7306	0.3174	0.1558	0.047
Mof_O 	O 	0.6781	0.3026	0.1222	-0.111
Mof_O 	O 	0.8047	0.3192	0.1506	-0.09
Mof_O 	O 	0.7036	0.3289	0.2002	-0.064
Mof_N 	N 	0.1891	0.4202	0.5767	0.055
Mof_O 	O 	0.1302	0.4537	0.5966	-0.091
Mof_O 	O 	0.2	0.4487	0.5329	-0.145
Mof_O 	O 	0.2194	0.3557	0.5848	-0.11
Mof_N 	N 	0.2306	0.1826	0.8442	0.047
Mof_O 	O 	0.1781	0.1974	0.8778	-0.111
Mof_O 	O 	0.2036	0.1711	0.7998	-0.064
Mof_O 	O 	0.3047	0.1808	0.8494	-0.09
Mof_N 	N 	0.7694	0.6826	0.6558	0.047
Mof_O 	O 	0.6953	0.6808	0.6506	-0.09
Mof_O 	O 	0.7964	0.6711	0.7002	-0.064
Mof_O 	O 	0.8219	0.6974	0.6222	-0.111
Mof_N 	N 	0.8109	0.9202	0.9233	0.055
Mof_O 	O 	0.8698	0.9537	0.9034	-0.091
Mof_O 	O 	0.7806	0.8557	0.9152	-0.11
Mof_O 	O 	0.8	0.9487	0.9671	-0.145
Mof_N 	N 	0.2694	0.8174	0.3442	0.047
Mof_O 	O 	0.3219	0.8026	0.3778	-0.111
Mof_O 	O 	0.1953	0.8192	0.3494	-0.09
Mof_O 	O 	0.2964	0.8289	0.2998	-0.064
Mof_N 	N 	0.6891	0.0798	0.4233	0.055
Mof_O 	O 	0.7194	0.1443	0.4152	-0.11
Mof_O 	O 	0.6302	0.0463	0.4034	-0.091
Mof_O 	O 	0.7	0.0513	0.4671	-0.145
Mof_N 	N 	0.3109	0.5798	0.0767	0.055
Mof_O 	O 	0.3	0.5513	0.0329	-0.145
Mof_O 	O 	0.2806	0.6443	0.0848	-0.11
Mof_O 	O 	0.3698	0.5463	0.0966	-0.091
_end
