data_functionalizedCrystal
_audit_creation_method	'EQeq! by Chris Wilmer'
_symmetry_space_group_name_H-M	'P1'
_symmetry_Int_Tables_number	1
_symmetry_cell_setting	triclinic
loop_
_symmetry_equiv_pos_as_xyz
  x,y,z
_cell_length_a	11.123
_cell_length_b	13.061
_cell_length_c	21.073
_cell_angle_alpha	90
_cell_angle_beta	90
_cell_angle_gamma	90
loop_
_atom_site_label
_atom_site_type_symbol
_atom_site_fract_x
_atom_site_fract_y
_atom_site_fract_z
_atom_site_charge
Mof_Cu	Cu	0.5	0.64499	0.54735	0.924
Mof_Cu	Cu	0.5	0.85501	0.04735	0.923
Mof_H 	H 	0.2981	0.5291	0.6042	0.005
Mof_H 	H 	0.5	0.937	0.6588	0.307
Mof_H 	H 	0.0932	0.7435	0.9855	0.084
Mof_H 	H 	0.7019	0.9709	0.1042	0.004
Mof_H 	H 	0.0932	0.7565	0.4855	0.083
Mof_H 	H 	0.5	0.6455	0.759	0.023
Mof_H 	H 	0.0932	0.973	0.1077	0.083
Mof_H 	H 	0.9068	0.7565	0.4855	0.083
Mof_H 	H 	0.5	0.8545	0.259	0.022
Mof_H 	H 	0.5	0.514	0.3139	0.156
Mof_H 	H 	0.7031	0.7446	0.9883	0.005
Mof_H 	H 	0.9068	0.527	0.6077	0.083
Mof_H 	H 	0.2969	0.7446	0.9883	0.005
Mof_H 	H 	0.5	0.986	0.8139	0.156
Mof_H 	H 	0.7019	0.5291	0.6042	0.005
Mof_H 	H 	0.0932	0.527	0.6077	0.083
Mof_H 	H 	0.7031	0.7554	0.4883	0.004
Mof_H 	H 	0.2969	0.7554	0.4883	0.004
Mof_H 	H 	0.9068	0.7435	0.9855	0.084
Mof_H 	H 	0.5	0.8083	0.364	0.108
Mof_H 	H 	0.5	0.563	0.1588	0.307
Mof_H 	H 	0.5	0.6917	0.864	0.108
Mof_H 	H 	0.2981	0.9709	0.1042	0.004
Mof_H 	H 	0.9068	0.973	0.1077	0.083
Mof_C 	C 	0.1327	0.7093	0.5111	-0.146
Mof_C 	C 	0.0673	0.8582	0.047	0.068
Mof_C 	C 	0.1323	0.9253	0.0822	-0.145
Mof_C 	C 	0.7439	0.577	0.5803	0.099
Mof_C 	C 	0.7447	0.7078	0.5127	0.097
Mof_C 	C 	0.1323	0.5747	0.5822	-0.145
Mof_C 	C 	0.8677	0.5747	0.5822	-0.145
Mof_C 	C 	0.5	0.5829	0.3029	-0.25
Mof_C 	C 	0.5	0.9171	0.8029	-0.25
Mof_C 	C 	0.9327	0.6418	0.547	0.068
Mof_C 	C 	0.7439	0.923	0.0803	0.099
Mof_C 	C 	0.8677	0.9253	0.0822	-0.145
Mof_C 	C 	0.5	0.6201	0.4177	0.318
Mof_C 	C 	0.5	0.6554	0.3492	0.059
Mof_C 	C 	0.5	0.6109	0.2389	0.345
Mof_C 	C 	0.7447	0.7922	0.0127	0.096
Mof_C 	C 	0.5	0.7441	0.1539	0.392
Mof_C 	C 	0.5	0.7582	0.3327	-0.151
Mof_C 	C 	0.5	0.8799	0.9177	0.318
Mof_C 	C 	0.9327	0.8582	0.047	0.068
Mof_C 	C 	0.5	0.7146	0.7696	0.128
Mof_C 	C 	0.8673	0.7093	0.5111	-0.146
Mof_C 	C 	0.2553	0.7078	0.5127	0.097
Mof_C 	C 	0.2561	0.577	0.5803	0.099
Mof_C 	C 	0.5	0.8891	0.7389	0.345
Mof_C 	C 	0.5	0.7559	0.6539	0.392
Mof_C 	C 	0.5	0.787	0.7212	-0.256
Mof_C 	C 	0.1327	0.7907	0.0111	-0.147
Mof_C 	C 	0.5	0.7854	0.2696	0.128
Mof_C 	C 	0.2553	0.7922	0.0127	0.096
Mof_C 	C 	0.8673	0.7907	0.0111	-0.147
Mof_C 	C 	0.5	0.713	0.2212	-0.256
Mof_C 	C 	0.0673	0.6418	0.547	0.068
Mof_C 	C 	0.5	0.7418	0.8327	-0.151
Mof_C 	C 	0.5	0.8446	0.8492	0.059
Mof_C 	C 	0.2561	0.923	0.0803	0.099
Mof_N 	N 	0.6825	0.6427	0.54687	-0.22
Mof_N 	N 	0.6825	0.8573	0.04687	-0.22
Mof_N 	N 	0.3175	0.6427	0.54687	-0.22
Mof_N 	N 	0.3175	0.8573	0.04687	-0.22
Mof_O 	O 	0.5	0.6921	0.4591	-0.382
Mof_O 	O 	0.5	0.6766	0.1119	-0.339
Mof_O 	O 	0.5	0.9633	0.6941	-0.471
Mof_O 	O 	0.5	0.8378	0.141	-0.392
Mof_O 	O 	0.5	0.8234	0.6119	-0.339
Mof_O 	O 	0.5	0.9689	0.9301	-0.372
Mof_O 	O 	0.5	0.5311	0.4301	-0.373
Mof_O 	O 	0.5	0.6622	0.641	-0.392
Mof_O 	O 	0.5	0.8079	0.9591	-0.382
Mof_O 	O 	0.5	0.5367	0.1941	-0.471
Mof_Cu	Cu	0.5	0.35501	0.45265	0.923
Mof_Cu	Cu	0.5	0.14499	0.95265	0.922
Mof_H 	H 	0.0932	0.2435	0.5145	0.083
Mof_H 	H 	0.5	0.014	0.1861	0.156
Mof_H 	H 	0.5	0.486	0.6861	0.156
Mof_H 	H 	0.7031	0.2554	0.0117	0.005
Mof_H 	H 	0.2969	0.2554	0.0117	0.005
Mof_H 	H 	0.5	0.1455	0.741	0.022
Mof_H 	H 	0.5	0.437	0.8412	0.307
Mof_H 	H 	0.5	0.1917	0.636	0.108
Mof_H 	H 	0.7019	0.4709	0.3958	0.005
Mof_H 	H 	0.5	0.3545	0.241	0.023
Mof_H 	H 	0.2969	0.2446	0.5117	0.004
Mof_H 	H 	0.2981	0.4709	0.3958	0.005
Mof_H 	H 	0.7031	0.2446	0.5117	0.004
Mof_H 	H 	0.0932	0.2565	0.0145	0.084
Mof_H 	H 	0.9068	0.2565	0.0145	0.084
Mof_H 	H 	0.9068	0.473	0.3923	0.083
Mof_H 	H 	0.2981	0.0291	0.8958	0.004
Mof_H 	H 	0.0932	0.027	0.8923	0.083
Mof_H 	H 	0.7019	0.0291	0.8958	0.004
Mof_H 	H 	0.9068	0.2435	0.5145	0.083
Mof_H 	H 	0.0932	0.473	0.3923	0.083
Mof_H 	H 	0.5	0.063	0.3412	0.307
Mof_H 	H 	0.9068	0.027	0.8923	0.083
Mof_H 	H 	0.5	0.3083	0.136	0.108
Mof_C 	C 	0.5	0.1109	0.2611	0.345
Mof_C 	C 	0.7439	0.077	0.9197	0.099
Mof_C 	C 	0.8673	0.2907	0.4889	-0.146
Mof_C 	C 	0.7447	0.2922	0.4873	0.097
Mof_C 	C 	0.0673	0.1418	0.953	0.068
Mof_C 	C 	0.2553	0.2078	0.9873	0.096
Mof_C 	C 	0.5	0.3891	0.7611	0.345
Mof_C 	C 	0.5	0.4171	0.6971	-0.25
Mof_C 	C 	0.1323	0.4253	0.4178	-0.145
Mof_C 	C 	0.5	0.213	0.2788	-0.256
Mof_C 	C 	0.5	0.3799	0.5823	0.318
Mof_C 	C 	0.5	0.2559	0.8461	0.392
Mof_C 	C 	0.5	0.287	0.7788	-0.256
Mof_C 	C 	0.2553	0.2922	0.4873	0.097
Mof_C 	C 	0.1327	0.2093	0.9889	-0.147
Mof_C 	C 	0.9327	0.3582	0.453	0.068
Mof_C 	C 	0.5	0.1554	0.1508	0.059
Mof_C 	C 	0.5	0.1201	0.0823	0.318
Mof_C 	C 	0.8677	0.4253	0.4178	-0.145
Mof_C 	C 	0.8673	0.2093	0.9889	-0.147
Mof_C 	C 	0.7447	0.2078	0.9873	0.096
Mof_C 	C 	0.2561	0.423	0.4197	0.099
Mof_C 	C 	0.5	0.0829	0.1971	-0.25
Mof_C 	C 	0.1323	0.0747	0.9178	-0.145
Mof_C 	C 	0.9327	0.1418	0.953	0.068
Mof_C 	C 	0.5	0.2418	0.6673	-0.151
Mof_C 	C 	0.1327	0.2907	0.4889	-0.146
Mof_C 	C 	0.7439	0.423	0.4197	0.099
Mof_C 	C 	0.5	0.3446	0.6508	0.059
Mof_C 	C 	0.0673	0.3582	0.453	0.068
Mof_C 	C 	0.2561	0.077	0.9197	0.099
Mof_C 	C 	0.5	0.2582	0.1673	-0.151
Mof_C 	C 	0.5	0.2441	0.3461	0.392
Mof_C 	C 	0.8677	0.0747	0.9178	-0.145
Mof_C 	C 	0.5	0.2146	0.7304	0.128
Mof_C 	C 	0.5	0.2854	0.2304	0.128
Mof_N 	N 	0.6825	0.3573	0.45313	-0.22
Mof_N 	N 	0.3175	0.1427	0.95313	-0.22
Mof_N 	N 	0.3175	0.3573	0.45313	-0.22
Mof_N 	N 	0.6825	0.1427	0.95313	-0.22
Mof_O 	O 	0.5	0.3234	0.8881	-0.339
Mof_O 	O 	0.5	0.4689	0.5699	-0.373
Mof_O 	O 	0.5	0.0311	0.0699	-0.372
Mof_O 	O 	0.5	0.1921	0.0409	-0.382
Mof_O 	O 	0.5	0.3378	0.359	-0.392
Mof_O 	O 	0.5	0.1766	0.3881	-0.339
Mof_O 	O 	0.5	0.3079	0.5409	-0.382
Mof_O 	O 	0.5	0.4633	0.8059	-0.471
Mof_O 	O 	0.5	0.0367	0.3059	-0.471
Mof_O 	O 	0.5	0.1622	0.859	-0.392
_end
