data_functionalizedCrystal
_audit_creation_method	'EQeq! by Chris Wilmer'
_symmetry_space_group_name_H-M	'P1'
_symmetry_Int_Tables_number	1
_symmetry_cell_setting	triclinic
loop_
_symmetry_equiv_pos_as_xyz
  x,y,z
_cell_length_a	8.603
_cell_length_b	15.476
_cell_length_c	16.504
_cell_angle_alpha	90
_cell_angle_beta	96.877
_cell_angle_gamma	90
loop_
_atom_site_label
_atom_site_type_symbol
_atom_site_fract_x
_atom_site_fract_y
_atom_site_fract_z
_atom_site_charge
Mof_Sc	Sc	0.63355	0.79805	0.16364	1.668
Mof_Sc	Sc	0.49585	0.89323	0.5221	1.859
Mof_Sc	Sc	0.02152	0.76914	0.29943	1.637
Mof_P 	P 	0.2276	0.762	0.13355	0.699
Mof_P 	P 	0.76411	0.78366	0.976	0.626
Mof_P 	P 	0.81649	0.60698	0.19758	0.647
Mof_P 	P 	0.66826	0.79002	0.37165	0.668
Mof_O 	O 	0.3708	0.99391	0.45826	-0.562
Mof_O 	O 	0.6035	0.86154	0.42101	-0.505
Mof_O 	O 	0.8147	0.68918	0.9896	-0.529
Mof_O 	O 	0.588	0.79072	0.28426	-0.494
Mof_O 	O 	0.6605	0.81028	0.04101	-0.472
Mof_O 	O 	0.9075	0.57373	0.13045	-0.494
Mof_O 	O 	0.1546	0.68584	0.08558	-0.522
Mof_O 	O 	0.8462	0.79337	0.37542	-0.465
Mof_O 	O 	0.8665	0.81877	0.20413	-0.6
Mof_O 	O 	0.9246	0.64688	0.26745	-0.463
Mof_O 	O 	0.6684	0.79455	0.89177	-0.441
Mof_O 	O 	0.4025	0.765	0.12961	-0.462
Mof_O 	O 	0.9091	0.84227	0.98163	-0.294
Mof_O 	O 	0.6354	0.6999	0.40934	-0.457
Mof_H 	H 	0.5453	0.6987	0.4209	0.295
Mof_O 	O 	0.6832	0.66644	0.16491	-0.459
Mof_O 	O 	0.193	0.7606	0.22181	-0.493
Mof_O 	O 	0.16	0.84756	0.0925	-0.479
Mof_H 	H 	0.0755	0.8375	0.0656	0.3
Mof_O 	O 	0.7298	0.52811	0.23276	-0.434
Mof_H 	H 	0.7945	0.4956	0.2573	0.235
Mof_Sc	Sc	0.86645	0.29805	0.33636	1.669
Mof_Sc	Sc	0.00415	0.39323	0.9779	1.844
Mof_Sc	Sc	0.47848	0.26914	0.20057	1.635
Mof_P 	P 	0.2724	0.262	0.36645	0.7
Mof_P 	P 	0.73589	0.28366	0.524	0.624
Mof_P 	P 	0.68351	0.10698	0.30242	0.647
Mof_P 	P 	0.83174	0.29002	0.12835	0.667
Mof_O 	O 	0.1292	0.49391	0.04174	-0.553
Mof_O 	O 	0.8965	0.36154	0.07899	-0.504
Mof_O 	O 	0.6853	0.18918	0.5104	-0.535
Mof_O 	O 	0.912	0.29072	0.21574	-0.494
Mof_O 	O 	0.8395	0.31028	0.45899	-0.468
Mof_O 	O 	0.5925	0.07373	0.36955	-0.495
Mof_O 	O 	0.3454	0.18584	0.41442	-0.526
Mof_O 	O 	0.6538	0.29337	0.12458	-0.465
Mof_O 	O 	0.6335	0.31877	0.29587	-0.598
Mof_O 	O 	0.5754	0.14688	0.23255	-0.463
Mof_O 	O 	0.8316	0.29455	0.60823	-0.442
Mof_O 	O 	0.0975	0.265	0.37039	-0.46
Mof_O 	O 	0.5909	0.34227	0.51837	-0.299
Mof_O 	O 	0.8646	0.1999	0.09066	-0.456
Mof_H 	H 	0.9547	0.1987	0.0791	0.293
Mof_O 	O 	0.8168	0.16644	0.33509	-0.46
Mof_O 	O 	0.307	0.2606	0.27819	-0.492
Mof_O 	O 	0.34	0.34756	0.4075	-0.478
Mof_H 	H 	0.4245	0.3375	0.4344	0.3
Mof_O 	O 	0.7702	0.02811	0.26724	-0.434
Mof_H 	H 	0.7055	0.9956	0.2427	0.233
Mof_Sc	Sc	0.36645	0.20195	0.83636	1.669
Mof_Sc	Sc	0.50415	0.10677	0.4779	1.86
Mof_Sc	Sc	0.97848	0.23086	0.70057	1.637
Mof_P 	P 	0.7724	0.238	0.86645	0.699
Mof_P 	P 	0.23589	0.21634	0.024	0.626
Mof_P 	P 	0.18351	0.39302	0.80242	0.647
Mof_P 	P 	0.33174	0.20998	0.62835	0.668
Mof_O 	O 	0.6292	0.00609	0.54174	-0.562
Mof_O 	O 	0.3965	0.13846	0.57899	-0.505
Mof_O 	O 	0.1853	0.31082	0.0104	-0.529
Mof_O 	O 	0.412	0.20928	0.71574	-0.494
Mof_O 	O 	0.3395	0.18972	0.95899	-0.472
Mof_O 	O 	0.0925	0.42627	0.86955	-0.494
Mof_O 	O 	0.8454	0.31416	0.91442	-0.522
Mof_O 	O 	0.1538	0.20663	0.62458	-0.465
Mof_O 	O 	0.1335	0.18123	0.79587	-0.6
Mof_O 	O 	0.0754	0.35312	0.73255	-0.463
Mof_O 	O 	0.3316	0.20545	0.10823	-0.441
Mof_O 	O 	0.5975	0.235	0.87039	-0.462
Mof_O 	O 	0.0909	0.15773	0.01837	-0.294
Mof_O 	O 	0.3646	0.3001	0.59066	-0.457
Mof_H 	H 	0.4547	0.3013	0.5791	0.295
Mof_O 	O 	0.3168	0.33356	0.83509	-0.459
Mof_O 	O 	0.807	0.2394	0.77819	-0.493
Mof_O 	O 	0.84	0.15244	0.9075	-0.479
Mof_H 	H 	0.9245	0.1625	0.9344	0.3
Mof_O 	O 	0.2702	0.47189	0.76724	-0.434
Mof_H 	H 	0.2055	0.5044	0.7427	0.235
Mof_Sc	Sc	0.13355	0.70195	0.66364	1.669
Mof_Sc	Sc	0.99585	0.60677	0.0221	1.844
Mof_Sc	Sc	0.52152	0.73086	0.79943	1.635
Mof_P 	P 	0.7276	0.738	0.63355	0.7
Mof_P 	P 	0.26411	0.71634	0.476	0.624
Mof_P 	P 	0.31649	0.89302	0.69758	0.647
Mof_P 	P 	0.16826	0.70998	0.87165	0.667
Mof_O 	O 	0.8708	0.50609	0.95826	-0.553
Mof_O 	O 	0.1035	0.63846	0.92101	-0.504
Mof_O 	O 	0.3147	0.81082	0.4896	-0.535
Mof_O 	O 	0.088	0.70928	0.78426	-0.494
Mof_O 	O 	0.1605	0.68972	0.54101	-0.468
Mof_O 	O 	0.4075	0.92627	0.63045	-0.495
Mof_O 	O 	0.6546	0.81416	0.58558	-0.526
Mof_O 	O 	0.3462	0.70663	0.87542	-0.465
Mof_O 	O 	0.3665	0.68123	0.70413	-0.598
Mof_O 	O 	0.4246	0.85312	0.76745	-0.463
Mof_O 	O 	0.1684	0.70545	0.39177	-0.442
Mof_O 	O 	0.9025	0.735	0.62961	-0.46
Mof_O 	O 	0.4091	0.65773	0.48163	-0.299
Mof_O 	O 	0.1354	0.8001	0.90934	-0.456
Mof_H 	H 	0.0453	0.8013	0.9209	0.293
Mof_O 	O 	0.1832	0.83356	0.66491	-0.46
Mof_O 	O 	0.693	0.7394	0.72181	-0.492
Mof_O 	O 	0.66	0.65244	0.5925	-0.478
Mof_H 	H 	0.5755	0.6625	0.5656	0.3
Mof_O 	O 	0.2298	0.97189	0.73276	-0.434
Mof_H 	H 	0.2945	0.0044	0.7573	0.233
_end
