data_functionalizedCrystal
_audit_creation_method	'EQeq! by Chris Wilmer'
_symmetry_space_group_name_H-M	'P1'
_symmetry_Int_Tables_number	1
_symmetry_cell_setting	triclinic
loop_
_symmetry_equiv_pos_as_xyz
  x,y,z
_cell_length_a	10.391
_cell_length_b	15.81
_cell_length_c	15.482
_cell_angle_alpha	90
_cell_angle_beta	127.56
_cell_angle_gamma	90
loop_
_atom_site_label
_atom_site_type_symbol
_atom_site_fract_x
_atom_site_fract_y
_atom_site_fract_z
_atom_site_charge
Mof_Mn	Mn	0.4164	0.18386	0.18495	0.766
Mof_C 	C 	0.4713	0.3618	0.3221	0.17
Mof_N 	N 	0.4446	0.303	0.2721	-0.217
Mof_N 	N 	0.4027	0.3846	0.81	-0.199
Mof_N 	N 	0.6098	0.5618	0.3966	-0.212
Mof_N 	N 	0.5026	0.4229	0.3925	-0.173
Mof_N 	N 	0.688	0.1633	0.3084	-0.198
Mof_N 	N 	0.4645	0.259	0.0849	-0.217
Mof_C 	C 	0.56	0.4961	0.3907	0.175
Mof_C 	C 	0.4951	0.3038	0.0444	0.175
Mof_N 	N 	0.1492	0.297	0.5753	-0.208
Mof_C 	C 	0.7991	0.1892	0.3971	0.156
Mof_N 	N 	0.902	0.2088	0.4975	-0.17
Mof_C 	C 	0.0337	0.2553	0.5357	0.161
Mof_N 	N 	0.5459	0.3631	0.0082	-0.166
Mof_C 	C 	0.4645	0.3712	0.9009	0.156
Mof_Mn	Mn	0.5836	0.68386	0.31505	0.767
Mof_C 	C 	0.5287	0.8618	0.1779	0.171
Mof_N 	N 	0.5554	0.803	0.2279	-0.217
Mof_N 	N 	0.5973	0.8846	0.69	-0.199
Mof_N 	N 	0.3902	0.0618	0.1034	-0.212
Mof_N 	N 	0.4974	0.9229	0.1075	-0.173
Mof_N 	N 	0.312	0.6633	0.1916	-0.198
Mof_N 	N 	0.5355	0.759	0.4151	-0.217
Mof_C 	C 	0.44	0.9961	0.1093	0.174
Mof_C 	C 	0.5049	0.8038	0.4556	0.175
Mof_N 	N 	0.8508	0.797	0.9247	-0.208
Mof_C 	C 	0.2009	0.6892	0.1029	0.156
Mof_N 	N 	0.098	0.7088	0.0025	-0.171
Mof_C 	C 	0.9663	0.7553	0.9643	0.161
Mof_N 	N 	0.4541	0.8631	0.4918	-0.166
Mof_C 	C 	0.5355	0.8712	0.5991	0.157
Mof_Mn	Mn	0.5836	0.81614	0.81505	0.767
Mof_C 	C 	0.5287	0.6382	0.6779	0.171
Mof_N 	N 	0.5554	0.697	0.7279	-0.217
Mof_N 	N 	0.5973	0.6154	0.19	-0.199
Mof_N 	N 	0.3902	0.4382	0.6034	-0.212
Mof_N 	N 	0.4974	0.5771	0.6075	-0.173
Mof_N 	N 	0.312	0.8367	0.6916	-0.198
Mof_N 	N 	0.5355	0.741	0.9151	-0.217
Mof_C 	C 	0.44	0.5039	0.6093	0.175
Mof_C 	C 	0.5049	0.6962	0.9556	0.175
Mof_N 	N 	0.8508	0.703	0.4247	-0.208
Mof_C 	C 	0.2009	0.8108	0.6029	0.156
Mof_N 	N 	0.098	0.7912	0.5025	-0.17
Mof_C 	C 	0.9663	0.7447	0.4643	0.161
Mof_N 	N 	0.4541	0.6369	0.9918	-0.166
Mof_C 	C 	0.5355	0.6288	0.0991	0.156
Mof_Mn	Mn	0.4164	0.31614	0.68495	0.767
Mof_C 	C 	0.4713	0.1382	0.8221	0.171
Mof_N 	N 	0.4446	0.197	0.7721	-0.217
Mof_N 	N 	0.4027	0.1154	0.31	-0.199
Mof_N 	N 	0.6098	0.9382	0.8966	-0.212
Mof_N 	N 	0.5026	0.0771	0.8925	-0.173
Mof_N 	N 	0.688	0.3367	0.8084	-0.198
Mof_N 	N 	0.4645	0.241	0.5849	-0.217
Mof_C 	C 	0.56	0.0039	0.8907	0.174
Mof_C 	C 	0.4951	0.1962	0.5444	0.175
Mof_N 	N 	0.1492	0.203	0.0753	-0.208
Mof_C 	C 	0.7991	0.3108	0.8971	0.156
Mof_N 	N 	0.902	0.2912	0.9975	-0.171
Mof_C 	C 	0.0337	0.2447	0.0357	0.161
Mof_N 	N 	0.5459	0.1369	0.5082	-0.166
Mof_C 	C 	0.4645	0.1288	0.4009	0.157
_end
