data_functionalizedCrystal
_audit_creation_method	'EQeq! by Chris Wilmer'
_symmetry_space_group_name_H-M	'P1'
_symmetry_Int_Tables_number	1
_symmetry_cell_setting	triclinic
loop_
_symmetry_equiv_pos_as_xyz
  x,y,z
_cell_length_a	25.935
_cell_length_b	12.3434
_cell_length_c	22.869
_cell_angle_alpha	90
_cell_angle_beta	133.605
_cell_angle_gamma	90
loop_
_atom_site_label
_atom_site_type_symbol
_atom_site_fract_x
_atom_site_fract_y
_atom_site_fract_z
_atom_site_charge
Mof_Tb	Tb	0.87758	0.27606	0.12472	2.034
Mof_S 	S 	0.9195	0.6524	0.1686	-0.136
Mof_S 	S 	0.9196	0.9054	0.1729	-0.12
Mof_S 	S 	0.8993	0.3954	0.3629	-0.173
Mof_S 	S 	0.86513	0.4994	0.4582	-0.166
Mof_O 	O 	0.8088	0.3967	0.137	-0.455
Mof_O 	O 	0.901	0.3133	0.2476	-0.46
Mof_O 	O 	0.7085	0.6748	0.3976	-0.603
Mof_O 	O 	0.8117	0.6142	0.5134	-0.613
Mof_O 	O 	0.9498	0.427	0.1852	-0.603
Mof_O 	O 	0.9404	0.1279	0.2018	-0.628
Mof_C 	C 	0.8477	0.3753	0.2107	0.408
Mof_C 	C 	0.8308	0.4222	0.2552	-0.283
Mof_C 	C 	0.8489	0.4635	0.3732	0.516
Mof_C 	C 	0.7877	0.5063	0.303	-0.519
Mof_C 	C 	0.7806	0.5689	0.3935	-0.344
Mof_C 	C 	0.7652	0.623	0.4377	0.577
Mof_C 	C 	0.9569	0.778	0.2101	-0.034
Mof_C 	C 	0.028	0.7765	0.2786	-0.167
Mof_C 	C 	0.7171	0.5201	0.1511	-0.399
Mof_H 	H 	0.7265	0.5073	0.1178	0.16
Mof_H 	H 	0.7106	0.5963	0.1524	0.123
Mof_H 	H 	0.6748	0.4819	0.1293	0.127
Mof_C 	C 	0.6734	0.6103	0.2474	-0.355
Mof_H 	H 	0.6502	0.6209	0.2663	0.165
Mof_H 	H 	0.6457	0.5614	0.2024	0.105
Mof_H 	H 	0.6776	0.6786	0.231	0.14
Mof_C 	C 	0.1283	0.6388	0.3791	-0.634
Mof_H 	H 	0.1319	0.6298	0.4235	0.21
Mof_H 	H 	0.1599	0.6955	0.3914	0.196
Mof_H 	H 	0.1412	0.5723	0.3701	0.236
Mof_C 	C 	0.1313	0.9112	0.3781	-0.597
Mof_H 	H 	0.1427	0.9831	0.3739	0.209
Mof_H 	H 	0.1616	0.8599	0.3825	0.186
Mof_H 	H 	0.1383	0.9066	0.4251	0.178
Mof_C 	C 	0.7798	0.4799	0.2364	0.29
Mof_C 	C 	0.7482	0.5621	0.3161	0.28
Mof_C 	C 	0.0529	0.6681	0.3039	0.455
Mof_C 	C 	0.0539	0.8859	0.3029	0.408
Mof_S 	S 	0.7468	0.4963	0.1906	-0.168
Mof_S 	S 	0.7124	0.5974	0.2859	-0.19
Mof_C 	C 	0.8209	0.4826	0.3426	-0.54
Mof_C 	C 	0.7602	0.5257	0.2734	0.507
Mof_C 	C 	0.9271	0.3613	0.3936	-0.34
Mof_H 	H 	0.9538	0.3573	0.3787	0.146
Mof_H 	H 	0.9165	0.2894	0.3988	0.111
Mof_H 	H 	0.9546	0.3986	0.4442	0.104
Mof_C 	C 	0.8949	0.4705	0.4972	-0.411
Mof_H 	H 	0.9021	0.519	0.5351	0.163
Mof_H 	H 	0.9363	0.4711	0.5049	0.126
Mof_H 	H 	0.8871	0.3985	0.5056	0.129
Mof_C 	C 	0.8592	0.4214	0.3299	0.246
Mof_C 	C 	0.8315	0.5062	0.4132	0.288
Mof_Tb	Tb	0.37758	0.77606	0.12472	2.032
Mof_S 	S 	0.4195	0.1524	0.1686	-0.139
Mof_S 	S 	0.4196	0.4054	0.1729	-0.123
Mof_S 	S 	0.3993	0.8954	0.3629	-0.169
Mof_S 	S 	0.36513	0.9994	0.4582	-0.164
Mof_O 	O 	0.3088	0.8967	0.137	-0.455
Mof_O 	O 	0.401	0.8133	0.2476	-0.463
Mof_O 	O 	0.2085	0.1748	0.3976	-0.601
Mof_O 	O 	0.3117	0.1142	0.5134	-0.612
Mof_O 	O 	0.4498	0.927	0.1852	-0.616
Mof_O 	O 	0.4404	0.6279	0.2018	-0.639
Mof_C 	C 	0.3477	0.8753	0.2107	0.407
Mof_C 	C 	0.3308	0.9222	0.2552	-0.281
Mof_C 	C 	0.3489	0.9635	0.3732	0.525
Mof_C 	C 	0.2877	0.0063	0.303	-0.522
Mof_C 	C 	0.2806	0.0689	0.3935	-0.34
Mof_C 	C 	0.2652	0.123	0.4377	0.574
Mof_C 	C 	0.4569	0.278	0.2101	-0.044
Mof_C 	C 	0.528	0.2765	0.2786	-0.166
Mof_C 	C 	0.2171	0.0201	0.1511	-0.4
Mof_H 	H 	0.2265	0.0073	0.1178	0.159
Mof_H 	H 	0.2106	0.0963	0.1524	0.123
Mof_H 	H 	0.1748	0.9819	0.1293	0.127
Mof_C 	C 	0.1734	0.1103	0.2474	-0.355
Mof_H 	H 	0.1502	0.1209	0.2663	0.164
Mof_H 	H 	0.1457	0.0614	0.2024	0.103
Mof_H 	H 	0.1776	0.1786	0.231	0.139
Mof_C 	C 	0.6283	0.1388	0.3791	-0.628
Mof_H 	H 	0.6319	0.1298	0.4235	0.208
Mof_H 	H 	0.6599	0.1955	0.3914	0.194
Mof_H 	H 	0.6412	0.0723	0.3701	0.234
Mof_C 	C 	0.6313	0.4112	0.3781	-0.591
Mof_H 	H 	0.6427	0.4831	0.3739	0.207
Mof_H 	H 	0.6616	0.3599	0.3825	0.184
Mof_H 	H 	0.6383	0.4066	0.4251	0.177
Mof_C 	C 	0.2798	0.9799	0.2364	0.294
Mof_C 	C 	0.2482	0.0621	0.3161	0.278
Mof_C 	C 	0.5529	0.1681	0.3039	0.45
Mof_C 	C 	0.5539	0.3859	0.3029	0.403
Mof_S 	S 	0.2468	0.9963	0.1906	-0.172
Mof_S 	S 	0.2124	0.0974	0.2859	-0.188
Mof_C 	C 	0.3209	0.9826	0.3426	-0.543
Mof_C 	C 	0.2602	0.0257	0.2734	0.508
Mof_C 	C 	0.4271	0.8613	0.3936	-0.334
Mof_H 	H 	0.4538	0.8573	0.3787	0.14
Mof_H 	H 	0.4165	0.7894	0.3988	0.107
Mof_H 	H 	0.4546	0.8986	0.4442	0.097
Mof_C 	C 	0.3949	0.9705	0.4972	-0.405
Mof_H 	H 	0.4021	0.019	0.5351	0.158
Mof_H 	H 	0.4363	0.9711	0.5049	0.12
Mof_H 	H 	0.3871	0.8985	0.5056	0.126
Mof_C 	C 	0.3592	0.9214	0.3299	0.235
Mof_C 	C 	0.3315	0.0062	0.4132	0.279
Mof_Tb	Tb	0.12242	0.27606	0.37528	2.021
Mof_S 	S 	0.0805	0.6524	0.3314	-0.14
Mof_S 	S 	0.0804	0.9054	0.3271	-0.123
Mof_S 	S 	0.1007	0.3954	0.1371	-0.166
Mof_S 	S 	0.13487	0.4994	0.0418	-0.149
Mof_O 	O 	0.1912	0.3967	0.363	-0.454
Mof_O 	O 	0.099	0.3133	0.2524	-0.464
Mof_O 	O 	0.2915	0.6748	0.1024	-0.602
Mof_O 	O 	0.1883	0.6142	0.9866	-0.613
Mof_O 	O 	0.0502	0.427	0.3148	-0.615
Mof_O 	O 	0.0596	0.1279	0.2982	-0.638
Mof_C 	C 	0.1523	0.3753	0.2893	0.405
Mof_C 	C 	0.1692	0.4222	0.2448	-0.277
Mof_C 	C 	0.1511	0.4635	0.1268	0.524
Mof_C 	C 	0.2123	0.5063	0.197	-0.518
Mof_C 	C 	0.2194	0.5689	0.1065	-0.334
Mof_C 	C 	0.2348	0.623	0.0623	0.574
Mof_C 	C 	0.0431	0.778	0.2899	-0.054
Mof_C 	C 	0.972	0.7765	0.2214	-0.174
Mof_C 	C 	0.2829	0.5201	0.3489	-0.398
Mof_H 	H 	0.2735	0.5073	0.3822	0.159
Mof_H 	H 	0.2894	0.5963	0.3476	0.122
Mof_H 	H 	0.3252	0.4819	0.3707	0.126
Mof_C 	C 	0.3266	0.6103	0.2526	-0.356
Mof_H 	H 	0.3498	0.6209	0.2337	0.165
Mof_H 	H 	0.3543	0.5614	0.2976	0.105
Mof_H 	H 	0.3224	0.6786	0.269	0.14
Mof_C 	C 	0.8717	0.6388	0.1209	-0.652
Mof_H 	H 	0.8681	0.6298	0.0765	0.216
Mof_H 	H 	0.8401	0.6955	0.1086	0.202
Mof_H 	H 	0.8588	0.5723	0.1299	0.243
Mof_C 	C 	0.8687	0.9112	0.1219	-0.615
Mof_H 	H 	0.8573	0.9831	0.1261	0.216
Mof_H 	H 	0.8384	0.8599	0.1175	0.191
Mof_H 	H 	0.8617	0.9066	0.0749	0.185
Mof_C 	C 	0.2202	0.4799	0.2636	0.288
Mof_C 	C 	0.2518	0.5621	0.1839	0.278
Mof_C 	C 	0.9471	0.6681	0.1961	0.469
Mof_C 	C 	0.9461	0.8859	0.1971	0.423
Mof_S 	S 	0.2532	0.4963	0.3094	-0.167
Mof_S 	S 	0.2876	0.5974	0.2141	-0.188
Mof_C 	C 	0.1791	0.4826	0.1574	-0.538
Mof_C 	C 	0.2398	0.5257	0.2266	0.506
Mof_C 	C 	0.0729	0.3613	0.1064	-0.328
Mof_H 	H 	0.0462	0.3573	0.1213	0.134
Mof_H 	H 	0.0835	0.2894	0.1012	0.103
Mof_H 	H 	0.0454	0.3986	0.0558	0.093
Mof_C 	C 	0.1051	0.4705	0.0028	-0.385
Mof_H 	H 	0.0979	0.519	0.9649	0.147
Mof_H 	H 	0.0637	0.4711	0.9951	0.107
Mof_H 	H 	0.1129	0.3985	0.9944	0.117
Mof_C 	C 	0.1408	0.4214	0.1701	0.228
Mof_C 	C 	0.1685	0.5062	0.0868	0.259
Mof_Tb	Tb	0.62242	0.77606	0.37528	2.031
Mof_S 	S 	0.5805	0.1524	0.3314	-0.139
Mof_S 	S 	0.5804	0.4054	0.3271	-0.123
Mof_S 	S 	0.6007	0.8954	0.1371	-0.171
Mof_S 	S 	0.63487	0.9994	0.0418	-0.157
Mof_O 	O 	0.6912	0.8967	0.363	-0.455
Mof_O 	O 	0.599	0.8133	0.2524	-0.463
Mof_O 	O 	0.7915	0.1748	0.1024	-0.602
Mof_O 	O 	0.6883	0.1142	0.9866	-0.609
Mof_O 	O 	0.5502	0.927	0.3148	-0.616
Mof_O 	O 	0.5596	0.6279	0.2982	-0.639
Mof_C 	C 	0.6523	0.8753	0.2893	0.408
Mof_C 	C 	0.6692	0.9222	0.2448	-0.284
Mof_C 	C 	0.6511	0.9635	0.1268	0.516
Mof_C 	C 	0.7123	0.0063	0.197	-0.51
Mof_C 	C 	0.7194	0.0689	0.1065	-0.337
Mof_C 	C 	0.7348	0.123	0.0623	0.57
Mof_C 	C 	0.5431	0.278	0.2899	-0.044
Mof_C 	C 	0.472	0.2765	0.2214	-0.166
Mof_C 	C 	0.7829	0.0201	0.3489	-0.402
Mof_H 	H 	0.7735	0.0073	0.3822	0.161
Mof_H 	H 	0.7894	0.0963	0.3476	0.125
Mof_H 	H 	0.8252	0.9819	0.3707	0.13
Mof_C 	C 	0.8266	0.1103	0.2526	-0.359
Mof_H 	H 	0.8498	0.1209	0.2337	0.167
Mof_H 	H 	0.8543	0.0614	0.2976	0.108
Mof_H 	H 	0.8224	0.1786	0.269	0.141
Mof_C 	C 	0.3717	0.1388	0.1209	-0.628
Mof_H 	H 	0.3681	0.1298	0.0765	0.208
Mof_H 	H 	0.3401	0.1955	0.1086	0.195
Mof_H 	H 	0.3588	0.0723	0.1299	0.234
Mof_C 	C 	0.3687	0.4112	0.1219	-0.592
Mof_H 	H 	0.3573	0.4831	0.1261	0.208
Mof_H 	H 	0.3384	0.3599	0.1175	0.185
Mof_H 	H 	0.3617	0.4066	0.0749	0.178
Mof_C 	C 	0.7202	0.9799	0.2636	0.3
Mof_C 	C 	0.7518	0.0621	0.1839	0.284
Mof_C 	C 	0.4471	0.1681	0.1961	0.45
Mof_C 	C 	0.4461	0.3859	0.1971	0.404
Mof_S 	S 	0.7532	0.9963	0.3094	-0.173
Mof_S 	S 	0.7876	0.0974	0.2141	-0.19
Mof_C 	C 	0.6791	0.9826	0.1574	-0.532
Mof_C 	C 	0.7398	0.0257	0.2266	0.489
Mof_C 	C 	0.5729	0.8613	0.1064	-0.331
Mof_H 	H 	0.5462	0.8573	0.1213	0.139
Mof_H 	H 	0.5835	0.7894	0.1012	0.106
Mof_H 	H 	0.5454	0.8986	0.0558	0.098
Mof_C 	C 	0.6051	0.9705	0.0028	-0.378
Mof_H 	H 	0.5979	0.019	0.9649	0.15
Mof_H 	H 	0.5637	0.9711	0.9951	0.11
Mof_H 	H 	0.6129	0.8985	0.9944	0.116
Mof_C 	C 	0.6408	0.9214	0.1701	0.237
Mof_C 	C 	0.6685	0.0062	0.0868	0.263
Mof_Tb	Tb	0.12242	0.72394	0.87528	2.017
Mof_S 	S 	0.0805	0.3476	0.8314	-0.14
Mof_S 	S 	0.0804	0.0946	0.8271	-0.124
Mof_S 	S 	0.1007	0.6046	0.6371	-0.165
Mof_S 	S 	0.13487	0.5006	0.5418	-0.16
Mof_O 	O 	0.1912	0.6033	0.863	-0.454
Mof_O 	O 	0.099	0.6867	0.7524	-0.465
Mof_O 	O 	0.2915	0.3252	0.6024	-0.602
Mof_O 	O 	0.1883	0.3858	0.4866	-0.611
Mof_O 	O 	0.0502	0.573	0.8148	-0.614
Mof_O 	O 	0.0596	0.8721	0.7982	-0.637
Mof_C 	C 	0.1523	0.6247	0.7893	0.405
Mof_C 	C 	0.1692	0.5778	0.7448	-0.278
Mof_C 	C 	0.1511	0.5365	0.6268	0.525
Mof_C 	C 	0.2123	0.4937	0.697	-0.521
Mof_C 	C 	0.2194	0.4311	0.6065	-0.339
Mof_C 	C 	0.2348	0.377	0.5623	0.573
Mof_C 	C 	0.0431	0.222	0.7899	-0.056
Mof_C 	C 	0.972	0.2235	0.7214	-0.175
Mof_C 	C 	0.2829	0.4799	0.8489	-0.399
Mof_H 	H 	0.2735	0.4927	0.8822	0.159
Mof_H 	H 	0.2894	0.4037	0.8476	0.123
Mof_H 	H 	0.3252	0.5181	0.8707	0.126
Mof_C 	C 	0.3266	0.3897	0.7526	-0.355
Mof_H 	H 	0.3498	0.3791	0.7337	0.165
Mof_H 	H 	0.3543	0.4386	0.7976	0.105
Mof_H 	H 	0.3224	0.3214	0.769	0.139
Mof_C 	C 	0.8717	0.3612	0.6209	-0.656
Mof_H 	H 	0.8681	0.3702	0.5765	0.217
Mof_H 	H 	0.8401	0.3045	0.6086	0.202
Mof_H 	H 	0.8588	0.4277	0.6299	0.244
Mof_C 	C 	0.8687	0.0888	0.6219	-0.615
Mof_H 	H 	0.8573	0.0169	0.6261	0.215
Mof_H 	H 	0.8384	0.1401	0.6175	0.191
Mof_H 	H 	0.8617	0.0934	0.5749	0.185
Mof_C 	C 	0.2202	0.5201	0.7636	0.287
Mof_C 	C 	0.2518	0.4379	0.6839	0.277
Mof_C 	C 	0.9471	0.3319	0.6961	0.472
Mof_C 	C 	0.9461	0.1141	0.6971	0.423
Mof_S 	S 	0.2532	0.5037	0.8094	-0.167
Mof_S 	S 	0.2876	0.4026	0.7141	-0.189
Mof_C 	C 	0.1791	0.5174	0.6574	-0.542
Mof_C 	C 	0.2398	0.4743	0.7266	0.511
Mof_C 	C 	0.0729	0.6387	0.6064	-0.33
Mof_H 	H 	0.0462	0.6427	0.6213	0.134
Mof_H 	H 	0.0835	0.7106	0.6012	0.103
Mof_H 	H 	0.0454	0.6014	0.5558	0.092
Mof_C 	C 	0.1051	0.5295	0.5028	-0.402
Mof_H 	H 	0.0979	0.481	0.4649	0.155
Mof_H 	H 	0.0637	0.5289	0.4951	0.116
Mof_H 	H 	0.1129	0.6015	0.4944	0.124
Mof_C 	C 	0.1408	0.5786	0.6701	0.228
Mof_C 	C 	0.1685	0.4938	0.5868	0.274
Mof_Tb	Tb	0.62242	0.22394	0.87528	2.032
Mof_S 	S 	0.5805	0.8476	0.8314	-0.139
Mof_S 	S 	0.5804	0.5946	0.8271	-0.123
Mof_S 	S 	0.6007	0.1046	0.6371	-0.169
Mof_S 	S 	0.63487	0.0006	0.5418	-0.164
Mof_O 	O 	0.6912	0.1033	0.863	-0.455
Mof_O 	O 	0.599	0.1867	0.7524	-0.463
Mof_O 	O 	0.7915	0.8252	0.6024	-0.603
Mof_O 	O 	0.6883	0.8858	0.4866	-0.612
Mof_O 	O 	0.5502	0.073	0.8148	-0.616
Mof_O 	O 	0.5596	0.3721	0.7982	-0.639
Mof_C 	C 	0.6523	0.1247	0.7893	0.408
Mof_C 	C 	0.6692	0.0778	0.7448	-0.283
Mof_C 	C 	0.6511	0.0365	0.6268	0.524
Mof_C 	C 	0.7123	0.9937	0.697	-0.521
Mof_C 	C 	0.7194	0.9311	0.6065	-0.342
Mof_C 	C 	0.7348	0.877	0.5623	0.575
Mof_C 	C 	0.5431	0.722	0.7899	-0.044
Mof_C 	C 	0.472	0.7235	0.7214	-0.166
Mof_C 	C 	0.7829	0.9799	0.8489	-0.403
Mof_H 	H 	0.7735	0.9927	0.8822	0.161
Mof_H 	H 	0.7894	0.9037	0.8476	0.124
Mof_H 	H 	0.8252	0.0181	0.8707	0.131
Mof_C 	C 	0.8266	0.8897	0.7526	-0.359
Mof_H 	H 	0.8498	0.8791	0.7337	0.167
Mof_H 	H 	0.8543	0.9386	0.7976	0.108
Mof_H 	H 	0.8224	0.8214	0.769	0.141
Mof_C 	C 	0.3717	0.8612	0.6209	-0.628
Mof_H 	H 	0.3681	0.8702	0.5765	0.208
Mof_H 	H 	0.3401	0.8045	0.6086	0.194
Mof_H 	H 	0.3588	0.9277	0.6299	0.234
Mof_C 	C 	0.3687	0.5888	0.6219	-0.591
Mof_H 	H 	0.3573	0.5169	0.6261	0.207
Mof_H 	H 	0.3384	0.6401	0.6175	0.184
Mof_H 	H 	0.3617	0.5934	0.5749	0.177
Mof_C 	C 	0.7202	0.0201	0.7636	0.298
Mof_C 	C 	0.7518	0.9379	0.6839	0.282
Mof_C 	C 	0.4471	0.8319	0.6961	0.45
Mof_C 	C 	0.4461	0.6141	0.6971	0.403
Mof_S 	S 	0.7532	0.0037	0.8094	-0.174
Mof_S 	S 	0.7876	0.9026	0.7141	-0.19
Mof_C 	C 	0.6791	0.0174	0.6574	-0.543
Mof_C 	C 	0.7398	0.9743	0.7266	0.506
Mof_C 	C 	0.5729	0.1387	0.6064	-0.334
Mof_H 	H 	0.5462	0.1427	0.6213	0.14
Mof_H 	H 	0.5835	0.2106	0.6012	0.107
Mof_H 	H 	0.5454	0.1014	0.5558	0.097
Mof_C 	C 	0.6051	0.0295	0.5028	-0.405
Mof_H 	H 	0.5979	0.981	0.4649	0.158
Mof_H 	H 	0.5637	0.0289	0.4951	0.12
Mof_H 	H 	0.6129	0.1015	0.4944	0.126
Mof_C 	C 	0.6408	0.0786	0.6701	0.236
Mof_C 	C 	0.6685	0.9938	0.5868	0.28
Mof_Tb	Tb	0.87758	0.72394	0.62472	2.035
Mof_S 	S 	0.9195	0.3476	0.6686	-0.136
Mof_S 	S 	0.9196	0.0946	0.6729	-0.121
Mof_S 	S 	0.8993	0.6046	0.8629	-0.175
Mof_S 	S 	0.86513	0.5006	0.9582	-0.161
Mof_O 	O 	0.8088	0.6033	0.637	-0.456
Mof_O 	O 	0.901	0.6867	0.7476	-0.46
Mof_O 	O 	0.7085	0.3252	0.8976	-0.603
Mof_O 	O 	0.8117	0.3858	0.0134	-0.614
Mof_O 	O 	0.9498	0.573	0.6852	-0.601
Mof_O 	O 	0.9404	0.8721	0.7018	-0.624
Mof_C 	C 	0.8477	0.6247	0.7107	0.408
Mof_C 	C 	0.8308	0.5778	0.7552	-0.282
Mof_C 	C 	0.8489	0.5365	0.8732	0.516
Mof_C 	C 	0.7877	0.4937	0.803	-0.518
Mof_C 	C 	0.7806	0.4311	0.8935	-0.342
Mof_C 	C 	0.7652	0.377	0.9377	0.577
Mof_C 	C 	0.9569	0.222	0.7101	-0.032
Mof_C 	C 	0.028	0.2235	0.7786	-0.168
Mof_C 	C 	0.7171	0.4799	0.6511	-0.398
Mof_H 	H 	0.7265	0.4927	0.6178	0.16
Mof_H 	H 	0.7106	0.4037	0.6524	0.123
Mof_H 	H 	0.6748	0.5181	0.6293	0.126
Mof_C 	C 	0.6734	0.3897	0.7474	-0.356
Mof_H 	H 	0.6502	0.3791	0.7663	0.165
Mof_H 	H 	0.6457	0.4386	0.7024	0.105
Mof_H 	H 	0.6776	0.3214	0.731	0.14
Mof_C 	C 	0.1283	0.3612	0.8791	-0.635
Mof_H 	H 	0.1319	0.3702	0.9235	0.21
Mof_H 	H 	0.1599	0.3045	0.8914	0.197
Mof_H 	H 	0.1412	0.4277	0.8701	0.237
Mof_C 	C 	0.1313	0.0888	0.8781	-0.598
Mof_H 	H 	0.1427	0.0169	0.8739	0.21
Mof_H 	H 	0.1616	0.1401	0.8825	0.186
Mof_H 	H 	0.1383	0.0934	0.9251	0.179
Mof_C 	C 	0.7798	0.5201	0.7364	0.29
Mof_C 	C 	0.7482	0.4379	0.8161	0.281
Mof_C 	C 	0.0529	0.3319	0.8039	0.457
Mof_C 	C 	0.0539	0.1141	0.8029	0.409
Mof_S 	S 	0.7468	0.5037	0.6906	-0.168
Mof_S 	S 	0.7124	0.4026	0.7859	-0.189
Mof_C 	C 	0.8209	0.5174	0.8426	-0.538
Mof_C 	C 	0.7602	0.4743	0.7734	0.505
Mof_C 	C 	0.9271	0.6387	0.8936	-0.339
Mof_H 	H 	0.9538	0.6427	0.8787	0.147
Mof_H 	H 	0.9165	0.7106	0.8988	0.11
Mof_H 	H 	0.9546	0.6014	0.9442	0.104
Mof_C 	C 	0.8949	0.5295	0.9972	-0.403
Mof_H 	H 	0.9021	0.481	0.0351	0.159
Mof_H 	H 	0.9363	0.5289	0.0049	0.122
Mof_H 	H 	0.8871	0.6015	0.0056	0.125
Mof_C 	C 	0.8592	0.5786	0.8299	0.246
Mof_C 	C 	0.8315	0.4938	0.9132	0.281
Mof_Tb	Tb	0.37758	0.22394	0.62472	2.03
Mof_S 	S 	0.4195	0.8476	0.6686	-0.139
Mof_S 	S 	0.4196	0.5946	0.6729	-0.123
Mof_S 	S 	0.3993	0.1046	0.8629	-0.17
Mof_S 	S 	0.36513	0.0006	0.9582	-0.162
Mof_O 	O 	0.3088	0.1033	0.637	-0.455
Mof_O 	O 	0.401	0.1867	0.7476	-0.463
Mof_O 	O 	0.2085	0.8252	0.8976	-0.6
Mof_O 	O 	0.3117	0.8858	0.0134	-0.607
Mof_O 	O 	0.4498	0.073	0.6852	-0.616
Mof_O 	O 	0.4404	0.3721	0.7018	-0.639
Mof_C 	C 	0.3477	0.1247	0.7107	0.407
Mof_C 	C 	0.3308	0.0778	0.7552	-0.283
Mof_C 	C 	0.3489	0.0365	0.8732	0.517
Mof_C 	C 	0.2877	0.9937	0.803	-0.512
Mof_C 	C 	0.2806	0.9311	0.8935	-0.337
Mof_C 	C 	0.2652	0.877	0.9377	0.567
Mof_C 	C 	0.4569	0.722	0.7101	-0.044
Mof_C 	C 	0.528	0.7235	0.7786	-0.166
Mof_C 	C 	0.2171	0.9799	0.6511	-0.399
Mof_H 	H 	0.2265	0.9927	0.6178	0.159
Mof_H 	H 	0.2106	0.9037	0.6524	0.123
Mof_H 	H 	0.1748	0.0181	0.6293	0.126
Mof_C 	C 	0.1734	0.8897	0.7474	-0.355
Mof_H 	H 	0.1502	0.8791	0.7663	0.163
Mof_H 	H 	0.1457	0.9386	0.7024	0.103
Mof_H 	H 	0.1776	0.8214	0.731	0.139
Mof_C 	C 	0.6283	0.8612	0.8791	-0.627
Mof_H 	H 	0.6319	0.8702	0.9235	0.208
Mof_H 	H 	0.6599	0.8045	0.8914	0.194
Mof_H 	H 	0.6412	0.9277	0.8701	0.233
Mof_C 	C 	0.6313	0.5888	0.8781	-0.591
Mof_H 	H 	0.6427	0.5169	0.8739	0.207
Mof_H 	H 	0.6616	0.6401	0.8825	0.184
Mof_H 	H 	0.6383	0.5934	0.9251	0.177
Mof_C 	C 	0.2798	0.0201	0.7364	0.296
Mof_C 	C 	0.2482	0.9379	0.8161	0.279
Mof_C 	C 	0.5529	0.8319	0.8039	0.449
Mof_C 	C 	0.5539	0.6141	0.8029	0.403
Mof_S 	S 	0.2468	0.0037	0.6906	-0.171
Mof_S 	S 	0.2124	0.9026	0.7859	-0.188
Mof_C 	C 	0.3209	0.0174	0.8426	-0.534
Mof_C 	C 	0.2602	0.9743	0.7734	0.493
Mof_C 	C 	0.4271	0.1387	0.8936	-0.331
Mof_H 	H 	0.4538	0.1427	0.8787	0.139
Mof_H 	H 	0.4165	0.2106	0.8988	0.106
Mof_H 	H 	0.4546	0.1014	0.9442	0.098
Mof_C 	C 	0.3949	0.0295	0.9972	-0.383
Mof_H 	H 	0.4021	0.981	0.0351	0.153
Mof_H 	H 	0.4363	0.0289	0.0049	0.112
Mof_H 	H 	0.3871	0.1015	0.0056	0.119
Mof_C 	C 	0.3592	0.0786	0.8299	0.236
Mof_C 	C 	0.3315	0.9938	0.9132	0.268
Mof_C 	C 	1.39659e-33	0.4728	0.25	0.643
Mof_C 	C 	1.39659e-33	0.5935	0.25	-0.473
Mof_C 	C 	1.39659e-33	0.0814	0.25	0.598
Mof_C 	C 	2.14455e-17	0.9618	0.25	-0.442
Mof_C 	C 	0.5	0.9728	0.25	0.657
Mof_C 	C 	0.5	0.0935	0.25	-0.457
Mof_C 	C 	0.5	0.5814	0.25	0.612
Mof_C 	C 	0.5	0.4618	0.25	-0.426
Mof_C 	C 	-8.5782e-17	0.5272	0.75	0.64
Mof_C 	C 	-8.5782e-17	0.4065	0.75	-0.475
Mof_C 	C 	-8.5782e-17	0.9186	0.75	0.593
Mof_C 	C 	-8.5782e-17	0.0382	0.75	-0.442
Mof_C 	C 	0.5	0.0272	0.75	0.658
Mof_C 	C 	0.5	0.9065	0.75	-0.457
Mof_C 	C 	0.5	0.4186	0.75	0.612
Mof_C 	C 	0.5	0.5382	0.75	-0.426
_end
