data_functionalizedCrystal
_audit_creation_method	'EQeq! by Chris Wilmer'
_symmetry_space_group_name_H-M	'P1'
_symmetry_Int_Tables_number	1
_symmetry_cell_setting	triclinic
loop_
_symmetry_equiv_pos_as_xyz
  x,y,z
_cell_length_a	9.5856
_cell_length_b	10.0263
_cell_length_c	10.0263
_cell_angle_alpha	107.144
_cell_angle_beta	109.333
_cell_angle_gamma	70.6671
loop_
_atom_site_label
_atom_site_type_symbol
_atom_site_fract_x
_atom_site_fract_y
_atom_site_fract_z
_atom_site_charge
Mof_Mg	Mg	0.5	0	-0	1.421
Mof_Mg	Mg	-0	0	-0	1.41
Mof_H 	H 	0.6348	0.8666	0.3296	0.218
Mof_H 	H 	0.1526	0.1084	0.3388	0.092
Mof_H 	H 	0.8652	0.3296	0.8666	0.136
Mof_H 	H 	0.3474	0.3388	0.1084	0.126
Mof_H 	H 	0.3652	0.1334	0.6704	-0.041
Mof_H 	H 	0.8474	0.8916	0.6612	0.401
Mof_H 	H 	0.1348	0.6704	0.1334	0.047
Mof_H 	H 	0.6526	0.6612	0.8916	0.365
Mof_C 	C 	0.3428	0.9516	0.1958	0.329
Mof_C 	C 	0.4225	0.9777	0.3533	0.274
Mof_C 	C 	0.5807	0.9197	0.3983	-0.435
Mof_C 	C 	0.3428	0.0606	0.458	-0.238
Mof_C 	C 	0.1572	0.1958	0.9516	0.396
Mof_C 	C 	0.0775	0.3533	0.9777	0.04
Mof_C 	C 	0.9193	0.3983	0.9197	-0.131
Mof_C 	C 	0.1572	0.458	0.0606	-0.087
Mof_C 	C 	0.6572	0.0484	0.8042	0.555
Mof_C 	C 	0.5775	0.0223	0.6467	-0.614
Mof_C 	C 	0.4193	0.0803	0.6017	0.238
Mof_C 	C 	0.6572	0.9394	0.542	0.702
Mof_C 	C 	0.8428	0.8042	0.0484	0.478
Mof_C 	C 	0.9225	0.6467	0.0223	-0.34
Mof_C 	C 	0.0807	0.6017	0.0803	-0.094
Mof_C 	C 	0.8428	0.542	0.9394	0.534
Mof_O 	O 	0.4198	0.9026	0.105	-0.516
Mof_O 	O 	0.1968	0.98	0.1642	-0.468
Mof_O 	O 	0.189	0.1259	0.4265	-0.314
Mof_O 	O 	0.0802	0.105	0.9026	-0.572
Mof_O 	O 	0.3032	0.1642	0.98	-0.444
Mof_O 	O 	0.311	0.4265	0.1259	-0.347
Mof_O 	O 	0.5802	0.0974	0.895	-0.513
Mof_O 	O 	0.8032	0.02	0.8358	-0.575
Mof_O 	O 	0.811	0.8741	0.5735	-0.519
Mof_O 	O 	0.9198	0.895	0.0974	-0.442
Mof_O 	O 	0.6968	0.8358	0.02	-0.592
Mof_O 	O 	0.689	0.5735	0.8741	-0.48
_end
