data_functionalizedCrystal
_audit_creation_method	'EQeq! by Chris Wilmer'
_symmetry_space_group_name_H-M	'P1'
_symmetry_Int_Tables_number	1
_symmetry_cell_setting	triclinic
loop_
_symmetry_equiv_pos_as_xyz
  x,y,z
_cell_length_a	15.288
_cell_length_b	15.288
_cell_length_c	15.571
_cell_angle_alpha	90
_cell_angle_beta	90
_cell_angle_gamma	120
loop_
_atom_site_label
_atom_site_type_symbol
_atom_site_fract_x
_atom_site_fract_y
_atom_site_fract_z
_atom_site_charge
Mof_Tb	Tb	0.33333	0.66666	0.75	2.04
Mof_Tb	Tb	0.66667	0.33334	0.75	2.04
Mof_Tb	Tb	0.66667	0.33334	0.25	2.02
Mof_Tb	Tb	0.33333	0.66666	0.25	2.02
Mof_Co	Co	0.5	0.5	0.5	1.162
Mof_Co	Co	-2.62945e-17	0.5	0.5	1.125
Mof_Co	Co	0.5	0	0.5	1.124
Mof_Co	Co	3.60713e-17	0.5	-0	1.058
Mof_Co	Co	0.5	0.5	-0	1.094
Mof_Co	Co	0.5	0	-0	1.059
Mof_H 	H 	0.2328	0.287	0.6549	0.045
Mof_H 	H 	0.0542	0.7672	0.6549	0.038
Mof_H 	H 	0.713	0.9458	0.6549	0.077
Mof_H 	H 	0.7672	0.713	0.6549	0.061
Mof_H 	H 	0.9458	0.2328	0.6549	0.068
Mof_H 	H 	0.287	0.0542	0.6549	0.03
Mof_H 	H 	0.9458	0.713	0.8451	0.096
Mof_H 	H 	0.287	0.2328	0.8451	0.065
Mof_H 	H 	0.7672	0.0542	0.8451	0.058
Mof_H 	H 	0.0542	0.287	0.8451	0.051
Mof_H 	H 	0.713	0.7672	0.8451	0.081
Mof_H 	H 	0.2328	0.9458	0.8451	0.088
Mof_H 	H 	0.7672	0.713	0.3451	0.059
Mof_H 	H 	0.9458	0.2328	0.3451	0.066
Mof_H 	H 	0.287	0.0542	0.3451	0.027
Mof_H 	H 	0.2328	0.287	0.3451	0.042
Mof_H 	H 	0.0542	0.7672	0.3451	0.035
Mof_H 	H 	0.713	0.9458	0.3451	0.074
Mof_H 	H 	0.0542	0.287	0.1549	0.008
Mof_H 	H 	0.713	0.7672	0.1549	0.04
Mof_H 	H 	0.2328	0.9458	0.1549	0.048
Mof_H 	H 	0.9458	0.713	0.1549	0.056
Mof_H 	H 	0.287	0.2328	0.1549	0.023
Mof_H 	H 	0.7672	0.0542	0.1549	0.017
Mof_H 	H 	0.09935	0.1987	0.75	0.014
Mof_H 	H 	0.09935	0.90065	0.75	0.04
Mof_H 	H 	0.8013	0.90065	0.75	0.066
Mof_H 	H 	0.90065	0.8013	0.75	0.066
Mof_H 	H 	0.90065	0.09935	0.75	0.04
Mof_H 	H 	0.1987	0.09935	0.75	0.014
Mof_H 	H 	0.90065	0.8013	0.25	0.06
Mof_H 	H 	0.90065	0.09935	0.25	0.034
Mof_H 	H 	0.1987	0.09935	0.25	0.008
Mof_H 	H 	0.09935	0.1987	0.25	0.008
Mof_H 	H 	0.09935	0.90065	0.25	0.034
Mof_H 	H 	0.8013	0.90065	0.25	0.06
Mof_C 	C 	0.3541	0.4912	0.6387	0.346
Mof_C 	C 	0.2651	0.4261	0.6962	-0.027
Mof_C 	C 	0.214	0.3211	0.6935	-0.044
Mof_C 	C 	0.1371	0.6459	0.6387	0.348
Mof_C 	C 	0.161	0.7349	0.6962	-0.028
Mof_C 	C 	0.1071	0.786	0.6935	-0.039
Mof_C 	C 	0.5088	0.8629	0.6387	0.344
Mof_C 	C 	0.5739	0.839	0.6962	-0.009
Mof_C 	C 	0.6789	0.8929	0.6935	-0.033
Mof_C 	C 	0.6459	0.5088	0.6387	0.348
Mof_C 	C 	0.7349	0.5739	0.6962	-0.016
Mof_C 	C 	0.786	0.6789	0.6935	-0.032
Mof_C 	C 	0.8629	0.3541	0.6387	0.343
Mof_C 	C 	0.839	0.2651	0.6962	-0.014
Mof_C 	C 	0.8929	0.214	0.6935	-0.039
Mof_C 	C 	0.4912	0.1371	0.6387	0.347
Mof_C 	C 	0.4261	0.161	0.6962	-0.033
Mof_C 	C 	0.3211	0.1071	0.6935	-0.044
Mof_C 	C 	0.8629	0.5088	0.8613	0.34
Mof_C 	C 	0.839	0.5739	0.8038	0.005
Mof_C 	C 	0.8929	0.6789	0.8065	-0.033
Mof_C 	C 	0.4912	0.3541	0.8613	0.342
Mof_C 	C 	0.4261	0.2651	0.8038	-0.013
Mof_C 	C 	0.3211	0.214	0.8065	-0.045
Mof_C 	C 	0.6459	0.1371	0.8613	0.344
Mof_C 	C 	0.7349	0.161	0.8038	-0.014
Mof_C 	C 	0.786	0.1071	0.8065	-0.04
Mof_C 	C 	0.1371	0.4912	0.8613	0.343
Mof_C 	C 	0.161	0.4261	0.8038	-0.02
Mof_C 	C 	0.1071	0.3211	0.8065	-0.046
Mof_C 	C 	0.5088	0.6459	0.8613	0.344
Mof_C 	C 	0.5739	0.7349	0.8038	-0.002
Mof_C 	C 	0.6789	0.786	0.8065	-0.034
Mof_C 	C 	0.3541	0.8629	0.8613	0.339
Mof_C 	C 	0.2651	0.839	0.8038	-0
Mof_C 	C 	0.214	0.8929	0.8065	-0.039
Mof_C 	C 	0.6459	0.5088	0.3613	0.349
Mof_C 	C 	0.7349	0.5739	0.3038	-0.023
Mof_C 	C 	0.786	0.6789	0.3065	-0.025
Mof_C 	C 	0.8629	0.3541	0.3613	0.344
Mof_C 	C 	0.839	0.2651	0.3038	-0.02
Mof_C 	C 	0.8929	0.214	0.3065	-0.031
Mof_C 	C 	0.4912	0.1371	0.3613	0.348
Mof_C 	C 	0.4261	0.161	0.3038	-0.04
Mof_C 	C 	0.3211	0.1071	0.3065	-0.038
Mof_C 	C 	0.3541	0.4912	0.3613	0.347
Mof_C 	C 	0.2651	0.4261	0.3038	-0.034
Mof_C 	C 	0.214	0.3211	0.3065	-0.037
Mof_C 	C 	0.1371	0.6459	0.3613	0.349
Mof_C 	C 	0.161	0.7349	0.3038	-0.034
Mof_C 	C 	0.1071	0.786	0.3065	-0.032
Mof_C 	C 	0.5088	0.8629	0.3613	0.345
Mof_C 	C 	0.5739	0.839	0.3038	-0.015
Mof_C 	C 	0.6789	0.8929	0.3065	-0.025
Mof_C 	C 	0.1371	0.4912	0.1387	0.347
Mof_C 	C 	0.161	0.4261	0.1962	-0.051
Mof_C 	C 	0.1071	0.3211	0.1935	-0.037
Mof_C 	C 	0.5088	0.6459	0.1387	0.349
Mof_C 	C 	0.5739	0.7349	0.1962	-0.034
Mof_C 	C 	0.6789	0.786	0.1935	-0.025
Mof_C 	C 	0.3541	0.8629	0.1387	0.343
Mof_C 	C 	0.2651	0.839	0.1962	-0.031
Mof_C 	C 	0.214	0.8929	0.1935	-0.031
Mof_C 	C 	0.8629	0.5088	0.1387	0.344
Mof_C 	C 	0.839	0.5739	0.1962	-0.026
Mof_C 	C 	0.8929	0.6789	0.1935	-0.025
Mof_C 	C 	0.4912	0.3541	0.1387	0.346
Mof_C 	C 	0.4261	0.2651	0.1962	-0.045
Mof_C 	C 	0.3211	0.214	0.1935	-0.036
Mof_C 	C 	0.6459	0.1371	0.1387	0.348
Mof_C 	C 	0.7349	0.161	0.1962	-0.045
Mof_C 	C 	0.786	0.1071	0.1935	-0.032
Mof_C 	C 	0.13445	0.2689	0.75	-0.035
Mof_C 	C 	0.13445	0.86555	0.75	-0.025
Mof_C 	C 	0.7311	0.86555	0.75	-0.015
Mof_C 	C 	0.86555	0.7311	0.75	-0.015
Mof_C 	C 	0.86555	0.13445	0.75	-0.025
Mof_C 	C 	0.2689	0.13445	0.75	-0.035
Mof_C 	C 	0.86555	0.7311	0.25	-0.035
Mof_C 	C 	0.86555	0.13445	0.25	-0.045
Mof_C 	C 	0.2689	0.13445	0.25	-0.056
Mof_C 	C 	0.13445	0.2689	0.25	-0.055
Mof_C 	C 	0.13445	0.86555	0.25	-0.045
Mof_C 	C 	0.7311	0.86555	0.25	-0.035
Mof_N 	N 	0.23881	0.47762	0.75	-0.201
Mof_N 	N 	0.23881	0.76119	0.75	-0.201
Mof_N 	N 	0.52238	0.76119	0.75	-0.201
Mof_N 	N 	0.76119	0.52238	0.75	-0.201
Mof_N 	N 	0.76119	0.23881	0.75	-0.201
Mof_N 	N 	0.47762	0.23881	0.75	-0.201
Mof_N 	N 	0.76119	0.52238	0.25	-0.197
Mof_N 	N 	0.76119	0.23881	0.25	-0.197
Mof_N 	N 	0.47762	0.23881	0.25	-0.197
Mof_N 	N 	0.23881	0.47762	0.25	-0.197
Mof_N 	N 	0.23881	0.76119	0.25	-0.197
Mof_N 	N 	0.52238	0.76119	0.25	-0.197
Mof_O 	O 	0.3888	0.5871	0.64337	-0.452
Mof_O 	O 	0.3866	0.4471	0.5924	-0.422
Mof_O 	O 	0.1983	0.6112	0.64337	-0.459
Mof_O 	O 	0.0605	0.6134	0.5924	-0.442
Mof_O 	O 	0.4129	0.8017	0.64337	-0.438
Mof_O 	O 	0.5529	0.9395	0.5924	-0.378
Mof_O 	O 	0.6112	0.4129	0.64337	-0.45
Mof_O 	O 	0.6134	0.5529	0.5924	-0.415
Mof_O 	O 	0.8017	0.3888	0.64337	-0.439
Mof_O 	O 	0.9395	0.3866	0.5924	-0.381
Mof_O 	O 	0.5871	0.1983	0.64337	-0.46
Mof_O 	O 	0.4471	0.0605	0.5924	-0.445
Mof_O 	O 	0.8017	0.4129	0.85663	-0.409
Mof_O 	O 	0.9395	0.5529	0.9076	-0.317
Mof_O 	O 	0.5871	0.3888	0.85663	-0.422
Mof_O 	O 	0.4471	0.3866	0.9076	-0.358
Mof_O 	O 	0.6112	0.1983	0.85663	-0.429
Mof_O 	O 	0.6134	0.0605	0.9076	-0.379
Mof_O 	O 	0.1983	0.5871	0.85663	-0.43
Mof_O 	O 	0.0605	0.4471	0.9076	-0.382
Mof_O 	O 	0.4129	0.6112	0.85663	-0.42
Mof_O 	O 	0.5529	0.6134	0.9076	-0.352
Mof_O 	O 	0.3888	0.8017	0.85663	-0.409
Mof_O 	O 	0.3866	0.9395	0.9076	-0.32
Mof_O 	O 	0.6112	0.4129	0.35663	-0.448
Mof_O 	O 	0.6134	0.5529	0.4076	-0.416
Mof_O 	O 	0.8017	0.3888	0.35663	-0.437
Mof_O 	O 	0.9395	0.3866	0.4076	-0.381
Mof_O 	O 	0.5871	0.1983	0.35663	-0.458
Mof_O 	O 	0.4471	0.0605	0.4076	-0.446
Mof_O 	O 	0.3888	0.5871	0.35663	-0.449
Mof_O 	O 	0.3866	0.4471	0.4076	-0.422
Mof_O 	O 	0.1983	0.6112	0.35663	-0.457
Mof_O 	O 	0.0605	0.6134	0.4076	-0.443
Mof_O 	O 	0.4129	0.8017	0.35663	-0.436
Mof_O 	O 	0.5529	0.9395	0.4076	-0.378
Mof_O 	O 	0.1983	0.5871	0.14337	-0.481
Mof_O 	O 	0.0605	0.4471	0.0924	-0.483
Mof_O 	O 	0.4129	0.6112	0.14337	-0.471
Mof_O 	O 	0.5529	0.6134	0.0924	-0.453
Mof_O 	O 	0.3888	0.8017	0.14337	-0.459
Mof_O 	O 	0.3866	0.9395	0.0924	-0.417
Mof_O 	O 	0.8017	0.4129	0.14337	-0.459
Mof_O 	O 	0.9395	0.5529	0.0924	-0.414
Mof_O 	O 	0.5871	0.3888	0.14337	-0.472
Mof_O 	O 	0.4471	0.3866	0.0924	-0.459
Mof_O 	O 	0.6112	0.1983	0.14337	-0.48
Mof_O 	O 	0.6134	0.0605	0.0924	-0.479
_end
