data_functionalizedCrystal
_audit_creation_method	'EQeq! by Chris Wilmer'
_symmetry_space_group_name_H-M	'P1'
_symmetry_Int_Tables_number	1
_symmetry_cell_setting	triclinic
loop_
_symmetry_equiv_pos_as_xyz
  x,y,z
_cell_length_a	12.1
_cell_length_b	27.185
_cell_length_c	20.605
_cell_angle_alpha	90
_cell_angle_beta	90
_cell_angle_gamma	90
loop_
_atom_site_label
_atom_site_type_symbol
_atom_site_fract_x
_atom_site_fract_y
_atom_site_fract_z
_atom_site_charge
Mof_Tb	Tb	0.88911	0.42857	0.97775	2.082
Mof_Tb	Tb	0.61089	0.07143	0.97775	2.092
Mof_Tb	Tb	0.38911	0.57143	0.52225	2.101
Mof_Tb	Tb	0.11089	0.92857	0.52225	2.099
Mof_Tb	Tb	0.11089	0.57143	0.02225	2.082
Mof_Tb	Tb	0.38911	0.92857	0.02225	2.092
Mof_Tb	Tb	0.61089	0.42857	0.47775	2.101
Mof_Tb	Tb	0.88911	0.07143	0.47775	2.099
Mof_P 	P 	0.8782	0.10794	0.90405	0.238
Mof_P 	P 	0.6218	0.39206	0.90405	0.241
Mof_P 	P 	0.3782	0.89206	0.59595	0.241
Mof_P 	P 	0.1218	0.60794	0.59595	0.241
Mof_P 	P 	0.1218	0.89206	0.09595	0.239
Mof_P 	P 	0.3782	0.60794	0.09595	0.242
Mof_P 	P 	0.6218	0.10794	0.40405	0.242
Mof_P 	P 	0.8782	0.39206	0.40405	0.242
Mof_H 	H 	0.0795	0.1604	0.9286	0.073
Mof_H 	H 	0.263	0.1362	0.9495	0.016
Mof_H 	H 	0.1651	0.9956	0.9629	0.005
Mof_H 	H 	0.9859	0.0193	0.9414	0.059
Mof_H 	H 	0.0423	0.0897	0.807	0.051
Mof_H 	H 	0.0386	0.079	0.6943	0.047
Mof_H 	H 	0.7046	0.0832	0.6977	0.049
Mof_H 	H 	0.7117	0.0916	0.8114	0.022
Mof_H 	H 	0.8829	0.1952	0.8192	0.046
Mof_H 	H 	0.8927	0.2795	0.8382	0.052
Mof_H 	H 	0.8875	0.253	0.0319	0.063
Mof_H 	H 	0.8671	0.1685	0.012	0.052
Mof_H 	H 	0.4205	0.3396	0.9286	0.073
Mof_H 	H 	0.237	0.3638	0.9495	0.015
Mof_H 	H 	0.3349	0.5044	0.9629	-0
Mof_H 	H 	0.5141	0.4807	0.9414	0.071
Mof_H 	H 	0.4577	0.4103	0.807	0.046
Mof_H 	H 	0.4614	0.421	0.6943	0.044
Mof_H 	H 	0.7954	0.4168	0.6977	0.049
Mof_H 	H 	0.7883	0.4084	0.8114	0.021
Mof_H 	H 	0.6171	0.3048	0.8192	0.047
Mof_H 	H 	0.6073	0.2205	0.8382	0.052
Mof_H 	H 	0.6125	0.247	0.0319	0.059
Mof_H 	H 	0.6329	0.3315	0.012	0.048
Mof_H 	H 	0.5795	0.8396	0.5714	0.073
Mof_H 	H 	0.763	0.8638	0.5505	0.014
Mof_H 	H 	0.6651	0.0044	0.5371	-0.003
Mof_H 	H 	0.4859	0.9807	0.5586	0.072
Mof_H 	H 	0.5423	0.9103	0.693	0.046
Mof_H 	H 	0.5386	0.921	0.8057	0.044
Mof_H 	H 	0.2046	0.9168	0.8023	0.05
Mof_H 	H 	0.2117	0.9084	0.6886	0.022
Mof_H 	H 	0.3829	0.8048	0.6808	0.047
Mof_H 	H 	0.3927	0.7205	0.6618	0.051
Mof_H 	H 	0.3875	0.747	0.4681	0.056
Mof_H 	H 	0.3671	0.8315	0.488	0.046
Mof_H 	H 	0.9205	0.6604	0.5714	0.073
Mof_H 	H 	0.737	0.6362	0.5505	0.014
Mof_H 	H 	0.8349	0.4956	0.5371	-0.002
Mof_H 	H 	0.0141	0.5193	0.5586	0.072
Mof_H 	H 	0.9577	0.5897	0.693	0.044
Mof_H 	H 	0.9614	0.579	0.8057	0.039
Mof_H 	H 	0.2954	0.5832	0.8023	0.049
Mof_H 	H 	0.2883	0.5916	0.6886	0.022
Mof_H 	H 	0.1171	0.6952	0.6808	0.047
Mof_H 	H 	0.1073	0.7795	0.6618	0.052
Mof_H 	H 	0.1125	0.753	0.4681	0.056
Mof_H 	H 	0.1329	0.6685	0.488	0.045
Mof_H 	H 	0.9205	0.8396	0.0714	0.073
Mof_H 	H 	0.737	0.8638	0.0505	0.016
Mof_H 	H 	0.8349	0.0044	0.0371	0.005
Mof_H 	H 	0.0141	0.9807	0.0586	0.059
Mof_H 	H 	0.9577	0.9103	0.193	0.051
Mof_H 	H 	0.9614	0.921	0.3057	0.047
Mof_H 	H 	0.2954	0.9168	0.3023	0.049
Mof_H 	H 	0.2883	0.9084	0.1886	0.022
Mof_H 	H 	0.1171	0.8048	0.1808	0.046
Mof_H 	H 	0.1073	0.7205	0.1618	0.052
Mof_H 	H 	0.1125	0.747	0.9681	0.063
Mof_H 	H 	0.1329	0.8315	0.988	0.052
Mof_H 	H 	0.5795	0.6604	0.0714	0.073
Mof_H 	H 	0.763	0.6362	0.0505	0.015
Mof_H 	H 	0.6651	0.4956	0.0371	-0
Mof_H 	H 	0.4859	0.5193	0.0586	0.071
Mof_H 	H 	0.5423	0.5897	0.193	0.046
Mof_H 	H 	0.5386	0.579	0.3057	0.044
Mof_H 	H 	0.2046	0.5832	0.3023	0.049
Mof_H 	H 	0.2117	0.5916	0.1886	0.021
Mof_H 	H 	0.3829	0.6952	0.1808	0.047
Mof_H 	H 	0.3927	0.7795	0.1618	0.052
Mof_H 	H 	0.3875	0.753	0.9681	0.059
Mof_H 	H 	0.3671	0.6685	0.988	0.048
Mof_H 	H 	0.4205	0.1604	0.4286	0.073
Mof_H 	H 	0.237	0.1362	0.4495	0.014
Mof_H 	H 	0.3349	0.9956	0.4629	-0.003
Mof_H 	H 	0.5141	0.0193	0.4414	0.072
Mof_H 	H 	0.4577	0.0897	0.307	0.046
Mof_H 	H 	0.4614	0.079	0.1943	0.044
Mof_H 	H 	0.7954	0.0832	0.1977	0.05
Mof_H 	H 	0.7883	0.0916	0.3114	0.022
Mof_H 	H 	0.6171	0.1952	0.3192	0.047
Mof_H 	H 	0.6073	0.2795	0.3382	0.051
Mof_H 	H 	0.6125	0.253	0.5319	0.056
Mof_H 	H 	0.6329	0.1685	0.512	0.046
Mof_H 	H 	0.0795	0.3396	0.4286	0.073
Mof_H 	H 	0.263	0.3638	0.4495	0.014
Mof_H 	H 	0.1651	0.5044	0.4629	-0.002
Mof_H 	H 	0.9859	0.4807	0.4414	0.072
Mof_H 	H 	0.0423	0.4103	0.307	0.044
Mof_H 	H 	0.0386	0.421	0.1943	0.039
Mof_H 	H 	0.7046	0.4168	0.1977	0.049
Mof_H 	H 	0.7117	0.4084	0.3114	0.022
Mof_H 	H 	0.8829	0.3048	0.3192	0.047
Mof_H 	H 	0.8927	0.2205	0.3382	0.052
Mof_H 	H 	0.8875	0.247	0.5319	0.056
Mof_H 	H 	0.8671	0.3315	0.512	0.045
Mof_C 	C 	0.0156	0.0915	0.9291	0.013
Mof_C 	C 	0.0969	0.1266	0.9343	-0.117
Mof_C 	C 	0.2059	0.1123	0.9481	0.087
Mof_C 	C 	0.2298	0.065	0.9592	-0.204
Mof_C 	C 	0.148	0.0292	0.9558	0.077
Mof_C 	C 	0.0426	0.0435	0.942	-0.1
Mof_C 	C 	0.3471	0.0508	0.9746	0.538
Mof_C 	C 	0.8748	0.0961	0.818	-0.044
Mof_C 	C 	0.9738	0.0895	0.7844	-0.057
Mof_C 	C 	0.9713	0.0827	0.7176	-0.02
Mof_C 	C 	0.8707	0.0811	0.6845	-0.06
Mof_C 	C 	0.7739	0.0848	0.7193	-0.028
Mof_C 	C 	0.7784	0.091	0.7871	-0.03
Mof_C 	C 	0.8691	0.0743	0.6131	0.299
Mof_C 	C 	0.8735	0.1725	0.9144	-0.045
Mof_C 	C 	0.8821	0.207	0.8626	-0.041
Mof_C 	C 	0.8894	0.257	0.8735	-0.024
Mof_C 	C 	0.8918	0.2736	0.937	-0.044
Mof_C 	C 	0.8849	0.2411	0.9886	-0.033
Mof_C 	C 	0.8741	0.1906	0.9765	-0.04
Mof_C 	C 	0.8987	0.3281	0.9492	0.282
Mof_C 	C 	0.4844	0.4085	0.9291	0.015
Mof_C 	C 	0.4031	0.3734	0.9343	-0.12
Mof_C 	C 	0.2941	0.3877	0.9481	0.09
Mof_C 	C 	0.2702	0.435	0.9592	-0.208
Mof_C 	C 	0.352	0.4708	0.9558	0.088
Mof_C 	C 	0.4574	0.4565	0.942	-0.118
Mof_C 	C 	0.1529	0.4492	0.9746	0.538
Mof_C 	C 	0.6252	0.4039	0.818	-0.046
Mof_C 	C 	0.5262	0.4105	0.7844	-0.049
Mof_C 	C 	0.5287	0.4173	0.7176	-0.017
Mof_C 	C 	0.6293	0.4189	0.6845	-0.06
Mof_C 	C 	0.7261	0.4152	0.7193	-0.029
Mof_C 	C 	0.7216	0.409	0.7871	-0.029
Mof_C 	C 	0.6309	0.4257	0.6131	0.299
Mof_C 	C 	0.6265	0.3275	0.9144	-0.045
Mof_C 	C 	0.6179	0.293	0.8626	-0.041
Mof_C 	C 	0.6106	0.243	0.8735	-0.022
Mof_C 	C 	0.6082	0.2264	0.937	-0.045
Mof_C 	C 	0.6151	0.2589	0.9886	-0.028
Mof_C 	C 	0.6259	0.3094	0.9765	-0.036
Mof_C 	C 	0.6013	0.1719	0.9492	0.286
Mof_C 	C 	0.5156	0.9085	0.5709	0.016
Mof_C 	C 	0.5969	0.8734	0.5657	-0.122
Mof_C 	C 	0.7059	0.8877	0.5519	0.092
Mof_C 	C 	0.7298	0.935	0.5408	-0.212
Mof_C 	C 	0.648	0.9708	0.5442	0.092
Mof_C 	C 	0.5426	0.9565	0.558	-0.12
Mof_C 	C 	0.8471	0.9492	0.5254	0.541
Mof_C 	C 	0.3748	0.9039	0.682	-0.046
Mof_C 	C 	0.4738	0.9105	0.7156	-0.049
Mof_C 	C 	0.4713	0.9173	0.7824	-0.017
Mof_C 	C 	0.3707	0.9189	0.8155	-0.06
Mof_C 	C 	0.2739	0.9152	0.7807	-0.029
Mof_C 	C 	0.2784	0.909	0.7129	-0.028
Mof_C 	C 	0.3691	0.9257	0.8869	0.299
Mof_C 	C 	0.3735	0.8275	0.5856	-0.046
Mof_C 	C 	0.3821	0.793	0.6374	-0.041
Mof_C 	C 	0.3894	0.743	0.6265	-0.021
Mof_C 	C 	0.3918	0.7264	0.563	-0.048
Mof_C 	C 	0.3849	0.7589	0.5114	-0.024
Mof_C 	C 	0.3741	0.8094	0.5235	-0.033
Mof_C 	C 	0.3987	0.6719	0.5508	0.29
Mof_C 	C 	0.9844	0.5915	0.5709	0.016
Mof_C 	C 	0.9031	0.6266	0.5657	-0.122
Mof_C 	C 	0.7941	0.6123	0.5519	0.092
Mof_C 	C 	0.7702	0.565	0.5408	-0.211
Mof_C 	C 	0.852	0.5292	0.5442	0.091
Mof_C 	C 	0.9574	0.5435	0.558	-0.12
Mof_C 	C 	0.6529	0.5508	0.5254	0.541
Mof_C 	C 	0.1252	0.5961	0.682	-0.046
Mof_C 	C 	0.0262	0.5895	0.7156	-0.049
Mof_C 	C 	0.0287	0.5827	0.7824	-0.011
Mof_C 	C 	0.1293	0.5811	0.8155	-0.062
Mof_C 	C 	0.2261	0.5848	0.7807	-0.027
Mof_C 	C 	0.2216	0.591	0.7129	-0.029
Mof_C 	C 	0.1309	0.5743	0.8869	0.3
Mof_C 	C 	0.1265	0.6725	0.5856	-0.046
Mof_C 	C 	0.1179	0.707	0.6374	-0.041
Mof_C 	C 	0.1106	0.757	0.6265	-0.021
Mof_C 	C 	0.1082	0.7736	0.563	-0.048
Mof_C 	C 	0.1151	0.7411	0.5114	-0.024
Mof_C 	C 	0.1259	0.6906	0.5235	-0.033
Mof_C 	C 	0.1013	0.8281	0.5508	0.29
Mof_C 	C 	0.9844	0.9085	0.0709	0.013
Mof_C 	C 	0.9031	0.8734	0.0657	-0.117
Mof_C 	C 	0.7941	0.8877	0.0519	0.087
Mof_C 	C 	0.7702	0.935	0.0408	-0.204
Mof_C 	C 	0.852	0.9708	0.0442	0.077
Mof_C 	C 	0.9574	0.9565	0.058	-0.1
Mof_C 	C 	0.6529	0.9492	0.0254	0.538
Mof_C 	C 	0.1252	0.9039	0.182	-0.044
Mof_C 	C 	0.0262	0.9105	0.2156	-0.057
Mof_C 	C 	0.0287	0.9173	0.2824	-0.02
Mof_C 	C 	0.1293	0.9189	0.3155	-0.06
Mof_C 	C 	0.2261	0.9152	0.2807	-0.028
Mof_C 	C 	0.2216	0.909	0.2129	-0.03
Mof_C 	C 	0.1309	0.9257	0.3869	0.299
Mof_C 	C 	0.1265	0.8275	0.0856	-0.045
Mof_C 	C 	0.1179	0.793	0.1374	-0.041
Mof_C 	C 	0.1106	0.743	0.1265	-0.024
Mof_C 	C 	0.1082	0.7264	0.063	-0.044
Mof_C 	C 	0.1151	0.7589	0.0114	-0.033
Mof_C 	C 	0.1259	0.8094	0.0235	-0.04
Mof_C 	C 	0.1013	0.6719	0.0508	0.282
Mof_C 	C 	0.5156	0.5915	0.0709	0.015
Mof_C 	C 	0.5969	0.6266	0.0657	-0.12
Mof_C 	C 	0.7059	0.6123	0.0519	0.09
Mof_C 	C 	0.7298	0.565	0.0408	-0.208
Mof_C 	C 	0.648	0.5292	0.0442	0.088
Mof_C 	C 	0.5426	0.5435	0.058	-0.118
Mof_C 	C 	0.8471	0.5508	0.0254	0.538
Mof_C 	C 	0.3748	0.5961	0.182	-0.046
Mof_C 	C 	0.4738	0.5895	0.2156	-0.049
Mof_C 	C 	0.4713	0.5827	0.2824	-0.017
Mof_C 	C 	0.3707	0.5811	0.3155	-0.06
Mof_C 	C 	0.2739	0.5848	0.2807	-0.029
Mof_C 	C 	0.2784	0.591	0.2129	-0.029
Mof_C 	C 	0.3691	0.5743	0.3869	0.299
Mof_C 	C 	0.3735	0.6725	0.0856	-0.045
Mof_C 	C 	0.3821	0.707	0.1374	-0.041
Mof_C 	C 	0.3894	0.757	0.1265	-0.022
Mof_C 	C 	0.3918	0.7736	0.063	-0.045
Mof_C 	C 	0.3849	0.7411	0.0114	-0.028
Mof_C 	C 	0.3741	0.6906	0.0235	-0.036
Mof_C 	C 	0.3987	0.8281	0.0508	0.286
Mof_C 	C 	0.4844	0.0915	0.4291	0.016
Mof_C 	C 	0.4031	0.1266	0.4343	-0.122
Mof_C 	C 	0.2941	0.1123	0.4481	0.092
Mof_C 	C 	0.2702	0.065	0.4592	-0.212
Mof_C 	C 	0.352	0.0292	0.4558	0.092
Mof_C 	C 	0.4574	0.0435	0.442	-0.12
Mof_C 	C 	0.1529	0.0508	0.4746	0.541
Mof_C 	C 	0.6252	0.0961	0.318	-0.046
Mof_C 	C 	0.5262	0.0895	0.2844	-0.049
Mof_C 	C 	0.5287	0.0827	0.2176	-0.017
Mof_C 	C 	0.6293	0.0811	0.1845	-0.06
Mof_C 	C 	0.7261	0.0848	0.2193	-0.029
Mof_C 	C 	0.7216	0.091	0.2871	-0.028
Mof_C 	C 	0.6309	0.0743	0.1131	0.299
Mof_C 	C 	0.6265	0.1725	0.4144	-0.046
Mof_C 	C 	0.6179	0.207	0.3626	-0.041
Mof_C 	C 	0.6106	0.257	0.3735	-0.021
Mof_C 	C 	0.6082	0.2736	0.437	-0.048
Mof_C 	C 	0.6151	0.2411	0.4886	-0.024
Mof_C 	C 	0.6259	0.1906	0.4765	-0.033
Mof_C 	C 	0.6013	0.3281	0.4492	0.29
Mof_C 	C 	0.0156	0.4085	0.4291	0.016
Mof_C 	C 	0.0969	0.3734	0.4343	-0.122
Mof_C 	C 	0.2059	0.3877	0.4481	0.092
Mof_C 	C 	0.2298	0.435	0.4592	-0.211
Mof_C 	C 	0.148	0.4708	0.4558	0.091
Mof_C 	C 	0.0426	0.4565	0.442	-0.12
Mof_C 	C 	0.3471	0.4492	0.4746	0.541
Mof_C 	C 	0.8748	0.4039	0.318	-0.046
Mof_C 	C 	0.9738	0.4105	0.2844	-0.049
Mof_C 	C 	0.9713	0.4173	0.2176	-0.011
Mof_C 	C 	0.8707	0.4189	0.1845	-0.062
Mof_C 	C 	0.7739	0.4152	0.2193	-0.027
Mof_C 	C 	0.7784	0.409	0.2871	-0.029
Mof_C 	C 	0.8691	0.4257	0.1131	0.3
Mof_C 	C 	0.8735	0.3275	0.4144	-0.046
Mof_C 	C 	0.8821	0.293	0.3626	-0.041
Mof_C 	C 	0.8894	0.243	0.3735	-0.021
Mof_C 	C 	0.8918	0.2264	0.437	-0.048
Mof_C 	C 	0.8849	0.2589	0.4886	-0.024
Mof_C 	C 	0.8741	0.3094	0.4765	-0.033
Mof_C 	C 	0.8987	0.1719	0.4492	0.29
Mof_O 	O 	0.7921	0.0798	0.9408	-0.457
Mof_O 	O 	0.4205	0.0824	0.964	-0.545
Mof_O 	O 	0.3655	0.0096	0.9976	-0.616
Mof_O 	O 	0.9632	0.0652	0.5865	-0.432
Mof_O 	O 	0.7827	0.079	0.5805	-0.404
Mof_O 	O 	0.9018	0.359	0.902	-0.42
Mof_O 	O 	0.898	0.3434	0.0078	-0.408
Mof_O 	O 	0.7079	0.4202	0.9408	-0.455
Mof_O 	O 	0.0795	0.4176	0.964	-0.541
Mof_O 	O 	0.1345	0.4904	0.9976	-0.612
Mof_O 	O 	0.5368	0.4348	0.5865	-0.43
Mof_O 	O 	0.7173	0.421	0.5805	-0.404
Mof_O 	O 	0.5982	0.141	0.902	-0.421
Mof_O 	O 	0.602	0.1566	0.0078	-0.412
Mof_O 	O 	0.2921	0.9202	0.5592	-0.456
Mof_O 	O 	0.9205	0.9176	0.536	-0.545
Mof_O 	O 	0.8655	0.9904	0.5024	-0.617
Mof_O 	O 	0.4632	0.9348	0.9135	-0.429
Mof_O 	O 	0.2827	0.921	0.9195	-0.402
Mof_O 	O 	0.4018	0.641	0.598	-0.422
Mof_O 	O 	0.398	0.6566	0.4922	-0.417
Mof_O 	O 	0.2079	0.5798	0.5592	-0.456
Mof_O 	O 	0.5795	0.5824	0.536	-0.546
Mof_O 	O 	0.6345	0.5096	0.5024	-0.618
Mof_O 	O 	0.0368	0.5652	0.9135	-0.427
Mof_O 	O 	0.2173	0.579	0.9195	-0.401
Mof_O 	O 	0.0982	0.859	0.598	-0.422
Mof_O 	O 	0.102	0.8434	0.4922	-0.417
Mof_O 	O 	0.2079	0.9202	0.0592	-0.457
Mof_O 	O 	0.5795	0.9176	0.036	-0.545
Mof_O 	O 	0.6345	0.9904	0.0024	-0.616
Mof_O 	O 	0.0368	0.9348	0.4135	-0.432
Mof_O 	O 	0.2173	0.921	0.4195	-0.404
Mof_O 	O 	0.0982	0.641	0.098	-0.42
Mof_O 	O 	0.102	0.6566	0.9922	-0.408
Mof_O 	O 	0.2921	0.5798	0.0592	-0.455
Mof_O 	O 	0.9205	0.5824	0.036	-0.541
Mof_O 	O 	0.8655	0.5096	0.0024	-0.612
Mof_O 	O 	0.4632	0.5652	0.4135	-0.43
Mof_O 	O 	0.2827	0.579	0.4195	-0.404
Mof_O 	O 	0.4018	0.859	0.098	-0.421
Mof_O 	O 	0.398	0.8434	0.9922	-0.412
Mof_O 	O 	0.7079	0.0798	0.4408	-0.456
Mof_O 	O 	0.0795	0.0824	0.464	-0.545
Mof_O 	O 	0.1345	0.0096	0.4976	-0.617
Mof_O 	O 	0.5368	0.0652	0.0865	-0.429
Mof_O 	O 	0.7173	0.079	0.0805	-0.402
Mof_O 	O 	0.5982	0.359	0.402	-0.422
Mof_O 	O 	0.602	0.3434	0.5078	-0.417
Mof_O 	O 	0.7921	0.4202	0.4408	-0.456
Mof_O 	O 	0.4205	0.4176	0.464	-0.546
Mof_O 	O 	0.3655	0.4904	0.4976	-0.618
Mof_O 	O 	0.9632	0.4348	0.0865	-0.427
Mof_O 	O 	0.7827	0.421	0.0805	-0.401
Mof_O 	O 	0.9018	0.141	0.402	-0.422
Mof_O 	O 	0.898	0.1566	0.5078	-0.417
_end
