data_functionalizedCrystal
_audit_creation_method	'EQeq! by Chris Wilmer'
_symmetry_space_group_name_H-M	'P1'
_symmetry_Int_Tables_number	1
_symmetry_cell_setting	triclinic
loop_
_symmetry_equiv_pos_as_xyz
  x,y,z
_cell_length_a	13.592
_cell_length_b	14.082
_cell_length_c	16.313
_cell_angle_alpha	98.7237
_cell_angle_beta	114.62
_cell_angle_gamma	90
loop_
_atom_site_label
_atom_site_type_symbol
_atom_site_fract_x
_atom_site_fract_y
_atom_site_fract_z
_atom_site_charge
Mof_Tb	Tb	0.39135	0.95851	0.37141	1.931
Mof_Tb	Tb	0.01994	0.54149	0.62859	1.934
Mof_Tb	Tb	0.60865	0.04149	0.62859	1.93
Mof_Tb	Tb	0.98006	0.45851	0.37141	1.933
Mof_H 	H 	0.2805	0.7062	0.4676	0.008
Mof_H 	H 	0.3102	0.5777	0.6794	0.025
Mof_H 	H 	0.5349	0.783	0.7074	0.032
Mof_H 	H 	0.5271	0.5946	0.0048	0.121
Mof_H 	H 	0.7704	0.6417	0.9504	0.121
Mof_H 	H 	0.8853	0.6044	0.0884	-0.023
Mof_H 	H 	0.6375	0.5418	0.137	-0.018
Mof_H 	H 	0.8129	0.7938	0.5324	0.008
Mof_H 	H 	0.6308	0.9223	0.3206	0.026
Mof_H 	H 	0.8275	0.717	0.2926	0.032
Mof_H 	H 	0.5223	0.9054	0.9952	0.122
Mof_H 	H 	0.82	0.8583	0.0496	0.123
Mof_H 	H 	0.7969	0.8956	0.9116	-0.025
Mof_H 	H 	0.5005	0.9582	0.863	-0.019
Mof_H 	H 	0.7195	0.2938	0.5324	0.008
Mof_H 	H 	0.6898	0.4223	0.3206	0.025
Mof_H 	H 	0.4651	0.217	0.2926	0.032
Mof_H 	H 	0.4729	0.4054	0.9952	0.121
Mof_H 	H 	0.2296	0.3583	0.0496	0.121
Mof_H 	H 	0.1147	0.3956	0.9116	-0.023
Mof_H 	H 	0.3625	0.4582	0.863	-0.018
Mof_H 	H 	0.1871	0.2062	0.4676	0.008
Mof_H 	H 	0.3692	0.0777	0.6794	0.026
Mof_H 	H 	0.1725	0.283	0.7074	0.032
Mof_H 	H 	0.4777	0.0946	0.0048	0.122
Mof_H 	H 	0.18	0.1417	0.9504	0.123
Mof_H 	H 	0.2031	0.1044	0.0884	-0.025
Mof_H 	H 	0.4995	0.0418	0.137	-0.019
Mof_C 	C 	0.7703	0.5567	0.1196	-0.215
Mof_C 	C 	0.4118	0.7573	0.5826	-0.168
Mof_C 	C 	0.2776	0.6344	0.5646	-0.165
Mof_C 	C 	0.4519	0.834	0.5442	0.492
Mof_C 	C 	0.8445	0.5179	0.206	0.377
Mof_C 	C 	0.5621	0.6424	0.8732	-0.118
Mof_C 	C 	0.3177	0.7004	0.5288	0.093
Mof_C 	C 	0.3367	0.6212	0.6548	0.025
Mof_C 	C 	0.4377	0.6749	0.7086	-0.057
Mof_C 	C 	0.4713	0.7446	0.6714	0.04
Mof_C 	C 	0.5036	0.6586	0.7996	0.052
Mof_C 	C 	0.6005	0.5912	0.0184	-0.265
Mof_C 	C 	0.6354	0.6167	0.959	0.218
Mof_C 	C 	0.7412	0.6206	0.9874	-0.271
Mof_C 	C 	0.8107	0.5951	0.0686	0.168
Mof_C 	C 	0.6663	0.5601	0.0986	0.169
Mof_C 	C 	0.1731	0.5713	0.5046	0.463
Mof_C 	C 	0.6507	0.9433	0.8804	-0.218
Mof_C 	C 	0.8292	0.7427	0.4174	-0.168
Mof_C 	C 	0.713	0.8656	0.4354	-0.164
Mof_C 	C 	0.9077	0.666	0.4558	0.493
Mof_C 	C 	0.6385	0.9821	0.794	0.38
Mof_C 	C 	0.6889	0.8576	0.1268	-0.119
Mof_C 	C 	0.7889	0.7996	0.4712	0.093
Mof_C 	C 	0.6819	0.8788	0.3452	0.025
Mof_C 	C 	0.7291	0.8251	0.2914	-0.058
Mof_C 	C 	0.7999	0.7554	0.3286	0.04
Mof_C 	C 	0.704	0.8414	0.2004	0.052
Mof_C 	C 	0.5821	0.9088	0.9816	-0.266
Mof_C 	C 	0.6764	0.8833	0.041	0.22
Mof_C 	C 	0.7538	0.8794	0.0126	-0.278
Mof_C 	C 	0.7421	0.9049	0.9314	0.176
Mof_C 	C 	0.5677	0.9399	0.9014	0.172
Mof_C 	C 	0.6685	0.9287	0.4954	0.463
Mof_C 	C 	0.2297	0.4433	0.8804	-0.215
Mof_C 	C 	0.5882	0.2427	0.4174	-0.168
Mof_C 	C 	0.7224	0.3656	0.4354	-0.165
Mof_C 	C 	0.5481	0.166	0.4558	0.492
Mof_C 	C 	0.1555	0.4821	0.794	0.377
Mof_C 	C 	0.4379	0.3576	0.1268	-0.118
Mof_C 	C 	0.6823	0.2996	0.4712	0.093
Mof_C 	C 	0.6633	0.3788	0.3452	0.025
Mof_C 	C 	0.5623	0.3251	0.2914	-0.057
Mof_C 	C 	0.5287	0.2554	0.3286	0.04
Mof_C 	C 	0.4964	0.3414	0.2004	0.052
Mof_C 	C 	0.3995	0.4088	0.9816	-0.265
Mof_C 	C 	0.3646	0.3833	0.041	0.218
Mof_C 	C 	0.2588	0.3794	0.0126	-0.271
Mof_C 	C 	0.1893	0.4049	0.9314	0.168
Mof_C 	C 	0.3337	0.4399	0.9014	0.169
Mof_C 	C 	0.8269	0.4287	0.4954	0.463
Mof_C 	C 	0.3493	0.0567	0.1196	-0.218
Mof_C 	C 	0.1708	0.2573	0.5826	-0.168
Mof_C 	C 	0.287	0.1344	0.5646	-0.164
Mof_C 	C 	0.0923	0.334	0.5442	0.493
Mof_C 	C 	0.3615	0.0179	0.206	0.38
Mof_C 	C 	0.3111	0.1424	0.8732	-0.119
Mof_C 	C 	0.2111	0.2004	0.5288	0.093
Mof_C 	C 	0.3181	0.1212	0.6548	0.025
Mof_C 	C 	0.2709	0.1749	0.7086	-0.058
Mof_C 	C 	0.2001	0.2446	0.6714	0.04
Mof_C 	C 	0.296	0.1586	0.7996	0.052
Mof_C 	C 	0.4179	0.0912	0.0184	-0.266
Mof_C 	C 	0.3236	0.1167	0.959	0.22
Mof_C 	C 	0.2462	0.1206	0.9874	-0.278
Mof_C 	C 	0.2579	0.0951	0.0686	0.176
Mof_C 	C 	0.4323	0.0601	0.0986	0.172
Mof_C 	C 	0.3315	0.0713	0.5046	0.463
Mof_O 	O 	0.1193	0.5436	0.5414	-0.612
Mof_O 	O 	0.3916	0.8449	0.4646	-0.547
Mof_O 	O 	0.148	0.5526	0.4202	-0.483
Mof_O 	O 	0.9433	0.5202	0.2296	-0.456
Mof_O 	O 	0.5385	0.8811	0.597	-0.5
Mof_O 	O 	0.8017	0.4866	0.2524	-0.442
Mof_O 	O 	0.5779	0.9564	0.4586	-0.611
Mof_O 	O 	0.927	0.6551	0.5354	-0.546
Mof_O 	O 	0.7278	0.9474	0.5798	-0.482
Mof_O 	O 	0.7137	0.9798	0.7704	-0.456
Mof_O 	O 	0.9415	0.6189	0.403	-0.5
Mof_O 	O 	0.5493	0.0134	0.7476	-0.443
Mof_O 	O 	0.8807	0.4564	0.4586	-0.612
Mof_O 	O 	0.6084	0.1551	0.5354	-0.547
Mof_O 	O 	0.852	0.4474	0.5798	-0.483
Mof_O 	O 	0.0567	0.4798	0.7704	-0.456
Mof_O 	O 	0.4615	0.1189	0.403	-0.5
Mof_O 	O 	0.1983	0.5134	0.7476	-0.442
Mof_O 	O 	0.4221	0.0436	0.5414	-0.611
Mof_O 	O 	0.073	0.3449	0.4646	-0.546
Mof_O 	O 	0.2722	0.0526	0.4202	-0.482
Mof_O 	O 	0.2863	0.0202	0.2296	-0.456
Mof_O 	O 	0.0585	0.3811	0.597	-0.5
Mof_O 	O 	0.4507	0.9866	0.2524	-0.443
_end
