data_functionalizedCrystal
_audit_creation_method	'EQeq! by Chris Wilmer'
_symmetry_space_group_name_H-M	'P1'
_symmetry_Int_Tables_number	1
_symmetry_cell_setting	triclinic
loop_
_symmetry_equiv_pos_as_xyz
  x,y,z
_cell_length_a	9.3376
_cell_length_b	9.3376
_cell_length_c	6.991
_cell_angle_alpha	90
_cell_angle_beta	90
_cell_angle_gamma	120
loop_
_atom_site_label
_atom_site_type_symbol
_atom_site_fract_x
_atom_site_fract_y
_atom_site_fract_z
_atom_site_charge
Mof_Al	Al	0.47881	0.83784	0.94382	7.743
Mof_O 	O 	0.2703	0.6987	0.0404	-3.718
Mof_H 	H 	0.1936	0.6411	0.9583	0.994
Mof_O 	O 	0.5726	0.7215	0.0407	-1.978
Mof_O 	O 	0.4344	0.4672	0.8307	-1.974
Mof_Al	Al	0.16216	0.64097	0.27715	8.697
Mof_O 	O 	0.3013	0.5716	0.37373	-3.854
Mof_H 	H 	0.3589	0.5525	0.29163	1.013
Mof_O 	O 	0.2785	0.8511	0.37403	-2.235
Mof_O 	O 	0.5328	0.9672	0.16403	-2.165
Mof_Al	Al	0.35903	0.52119	0.61049	8.43
Mof_O 	O 	0.4284	0.7297	0.70707	-3.669
Mof_H 	H 	0.4475	0.8064	0.62497	0.877
Mof_O 	O 	0.1489	0.4274	0.70737	-2.006
Mof_O 	O 	0.0328	0.5656	0.49737	-2.043
Mof_Al	Al	0.83784	0.47881	0.05618	7.028
Mof_O 	O 	0.6987	0.2703	0.9596	-3.363
Mof_H 	H 	0.6411	0.1936	0.0417	0.811
Mof_O 	O 	0.7215	0.5726	0.9593	-1.776
Mof_O 	O 	0.4672	0.4344	0.1693	-2.005
Mof_Al	Al	0.64097	0.16216	0.72285	8.544
Mof_O 	O 	0.5716	0.3013	0.62627	-3.811
Mof_H 	H 	0.5525	0.3589	0.70837	1.009
Mof_O 	O 	0.8511	0.2785	0.62597	-2.172
Mof_O 	O 	0.9672	0.5328	0.83597	-1.989
Mof_Al	Al	0.52119	0.35903	0.38951	8.381
Mof_O 	O 	0.7297	0.4284	0.29293	-3.535
Mof_H 	H 	0.8064	0.4475	0.37503	0.86
Mof_O 	O 	0.4274	0.1489	0.29263	-2.015
Mof_O 	O 	0.5656	0.0328	0.50263	-2.016
Mof_P 	P 	0.55071	0.55071	-0	1.649
Mof_P 	P 	0.44929	0	0.33333	2.09
Mof_P 	P 	-7.2854e-18	0.44929	0.66667	2.021
Mof_F 	F 	0.6821	0	0.83333	-2.285
Mof_F 	F 	0.4319	0	0.83333	-2.198
Mof_F 	F 	-6.91223e-17	0.6821	0.16667	-2.266
Mof_F 	F 	-1.52817e-17	0.4319	0.16667	-2.178
Mof_F 	F 	0.3179	0.3179	0.5	-2.435
Mof_F 	F 	0.5681	0.5681	0.5	-2.461
_end
