data_functionalizedCrystal
_audit_creation_method	'EQeq! by Chris Wilmer'
_symmetry_space_group_name_H-M	'P1'
_symmetry_Int_Tables_number	1
_symmetry_cell_setting	triclinic
loop_
_symmetry_equiv_pos_as_xyz
  x,y,z
_cell_length_a	13.469
_cell_length_b	13.469
_cell_length_c	27.51
_cell_angle_alpha	90
_cell_angle_beta	90
_cell_angle_gamma	120
loop_
_atom_site_label
_atom_site_type_symbol
_atom_site_fract_x
_atom_site_fract_y
_atom_site_fract_z
_atom_site_charge
Mof_Cr	Cr	0.4855	0.7902	0.75	2.124
Mof_Cr	Cr	0.3047	0.5145	0.75	2.122
Mof_Cr	Cr	0.2098	0.6953	0.75	2.13
Mof_Cr	Cr	0.3047	0.7902	0.25	2.124
Mof_Cr	Cr	0.2098	0.5145	0.25	2.131
Mof_Cr	Cr	0.4855	0.6953	0.25	2.122
Mof_Cu	Cu	0.7778	0.8889	-0	0.899
Mof_Cu	Cu	0.1111	0.2222	-0	0.905
Mof_Cu	Cu	0.1111	0.8889	-0	0.906
Mof_Cu	Cu	0.7778	0.8889	0.5	0.915
Mof_Cu	Cu	0.1111	0.2222	0.5	0.921
Mof_Cu	Cu	0.1111	0.8889	0.5	0.922
Mof_H 	H 	0.8371	0.8503	0.9206	0.124
Mof_H 	H 	0.8466	0.7749	0.9562	0.145
Mof_H 	H 	0.5452	0.4247	0.9395	0.067
Mof_H 	H 	0.7016	0.588	0.9717	0.091
Mof_H 	H 	0.6663	0.7816	0.8688	0.055
Mof_H 	H 	0.4493	0.4399	0.872	0.041
Mof_H 	H 	0.0132	0.1629	0.9206	0.139
Mof_H 	H 	0.9283	0.1534	0.9562	0.115
Mof_H 	H 	0.8795	0.4548	0.9395	0.013
Mof_H 	H 	0.8864	0.2984	0.9717	0.141
Mof_H 	H 	0.1153	0.3337	0.8688	0.094
Mof_H 	H 	0.9906	0.5507	0.872	0.08
Mof_H 	H 	0.1497	0.9868	0.9206	0.142
Mof_H 	H 	0.2251	0.0717	0.9562	0.152
Mof_H 	H 	0.5753	0.1205	0.9395	0.051
Mof_H 	H 	0.412	0.1136	0.9717	0.107
Mof_H 	H 	0.2184	0.8847	0.8688	0.072
Mof_H 	H 	0.5601	0.0094	0.872	0.05
Mof_H 	H 	0.8371	0.8503	0.5794	0.12
Mof_H 	H 	0.8466	0.7749	0.5438	0.135
Mof_H 	H 	0.5452	0.4247	0.5605	0.062
Mof_H 	H 	0.7016	0.588	0.5283	0.077
Mof_H 	H 	0.6663	0.7816	0.6312	0.053
Mof_H 	H 	0.4493	0.4399	0.628	0.04
Mof_H 	H 	0.0132	0.1629	0.5794	0.136
Mof_H 	H 	0.9283	0.1534	0.5438	0.106
Mof_H 	H 	0.8795	0.4548	0.5605	0.008
Mof_H 	H 	0.8864	0.2984	0.5283	0.127
Mof_H 	H 	0.1153	0.3337	0.6312	0.092
Mof_H 	H 	0.9906	0.5507	0.628	0.079
Mof_H 	H 	0.1497	0.9868	0.5794	0.139
Mof_H 	H 	0.2251	0.0717	0.5438	0.143
Mof_H 	H 	0.5753	0.1205	0.5605	0.047
Mof_H 	H 	0.412	0.1136	0.5283	0.093
Mof_H 	H 	0.2184	0.8847	0.6312	0.07
Mof_H 	H 	0.5601	0.0094	0.628	0.048
Mof_H 	H 	0.0132	0.8503	0.4206	0.14
Mof_H 	H 	0.9283	0.7749	0.4562	0.113
Mof_H 	H 	0.8795	0.4247	0.4395	0.008
Mof_H 	H 	0.8864	0.588	0.4717	0.127
Mof_H 	H 	0.1153	0.7816	0.3688	0.093
Mof_H 	H 	0.9906	0.4399	0.372	0.077
Mof_H 	H 	0.1497	0.1629	0.4206	0.135
Mof_H 	H 	0.2251	0.1534	0.4562	0.148
Mof_H 	H 	0.5753	0.4548	0.4395	0.06
Mof_H 	H 	0.412	0.2984	0.4717	0.081
Mof_H 	H 	0.2184	0.3337	0.3688	0.06
Mof_H 	H 	0.5601	0.5507	0.372	0.039
Mof_H 	H 	0.8371	0.9868	0.4206	0.121
Mof_H 	H 	0.8466	0.0717	0.4562	0.123
Mof_H 	H 	0.5452	0.1205	0.4395	0.049
Mof_H 	H 	0.7016	0.1136	0.4717	0.089
Mof_H 	H 	0.6663	0.8847	0.3688	0.062
Mof_H 	H 	0.4493	0.0094	0.372	0.05
Mof_H 	H 	0.0132	0.8503	0.0794	0.14
Mof_H 	H 	0.9283	0.7749	0.0438	0.107
Mof_H 	H 	0.8795	0.4247	0.0605	0.004
Mof_H 	H 	0.8864	0.588	0.0283	0.113
Mof_H 	H 	0.1153	0.7816	0.1312	0.092
Mof_H 	H 	0.9906	0.4399	0.128	0.076
Mof_H 	H 	0.1497	0.1629	0.0794	0.135
Mof_H 	H 	0.2251	0.1534	0.0438	0.143
Mof_H 	H 	0.5753	0.4548	0.0605	0.055
Mof_H 	H 	0.412	0.2984	0.0283	0.068
Mof_H 	H 	0.2184	0.3337	0.1312	0.059
Mof_H 	H 	0.5601	0.5507	0.128	0.038
Mof_H 	H 	0.8371	0.9868	0.0794	0.121
Mof_H 	H 	0.8466	0.0717	0.0438	0.119
Mof_H 	H 	0.5452	0.1205	0.0605	0.044
Mof_H 	H 	0.7016	0.1136	0.0283	0.075
Mof_H 	H 	0.6663	0.8847	0.1312	0.06
Mof_H 	H 	0.4493	0.0094	0.128	0.048
Mof_C 	C 	0.5696	0.4967	0.9253	-0.041
Mof_C 	C 	0.663	0.5942	0.9445	-0.082
Mof_C 	C 	0.6991	0.7006	0.9234	0.081
Mof_C 	C 	0.6419	0.7096	0.8831	-0.021
Mof_C 	C 	0.5486	0.6123	0.8639	-0.176
Mof_C 	C 	0.5124	0.5057	0.885	0.05
Mof_C 	C 	0.4957	0.6288	0.8192	0.681
Mof_C 	C 	0.9271	0.4304	0.9253	0.096
Mof_C 	C 	0.9312	0.337	0.9445	-0.253
Mof_C 	C 	0.0015	0.3009	0.9234	0.213
Mof_C 	C 	0.0677	0.3581	0.8831	-0.125
Mof_C 	C 	0.0637	0.4514	0.8639	-0.035
Mof_C 	C 	0.9933	0.4876	0.885	-0.128
Mof_C 	C 	0.1331	0.5043	0.8192	0.633
Mof_C 	C 	0.5033	0.0729	0.9253	-0.002
Mof_C 	C 	0.4058	0.0688	0.9445	-0.128
Mof_C 	C 	0.2994	0.9985	0.9234	0.122
Mof_C 	C 	0.2904	0.9323	0.8831	-0.051
Mof_C 	C 	0.3877	0.9363	0.8639	-0.136
Mof_C 	C 	0.4943	0.0067	0.885	0.002
Mof_C 	C 	0.3712	0.8669	0.8192	0.668
Mof_C 	C 	0.5696	0.4967	0.5747	-0.047
Mof_C 	C 	0.663	0.5942	0.5555	-0.081
Mof_C 	C 	0.6991	0.7006	0.5766	0.073
Mof_C 	C 	0.6419	0.7096	0.6169	-0.02
Mof_C 	C 	0.5486	0.6123	0.6361	-0.179
Mof_C 	C 	0.5124	0.5057	0.615	0.05
Mof_C 	C 	0.4957	0.6288	0.6808	0.681
Mof_C 	C 	0.9271	0.4304	0.5747	0.089
Mof_C 	C 	0.9312	0.337	0.5555	-0.251
Mof_C 	C 	0.0015	0.3009	0.5766	0.205
Mof_C 	C 	0.0677	0.3581	0.6169	-0.123
Mof_C 	C 	0.0637	0.4514	0.6361	-0.039
Mof_C 	C 	0.9933	0.4876	0.615	-0.126
Mof_C 	C 	0.1331	0.5043	0.6808	0.633
Mof_C 	C 	0.5033	0.0729	0.5747	-0.01
Mof_C 	C 	0.4058	0.0688	0.5555	-0.125
Mof_C 	C 	0.2994	0.9985	0.5766	0.112
Mof_C 	C 	0.2904	0.9323	0.6169	-0.048
Mof_C 	C 	0.3877	0.9363	0.6361	-0.141
Mof_C 	C 	0.4943	0.0067	0.615	0.005
Mof_C 	C 	0.3712	0.8669	0.6808	0.669
Mof_C 	C 	0.9271	0.4967	0.4253	0.087
Mof_C 	C 	0.9312	0.5942	0.4445	-0.247
Mof_C 	C 	0.0015	0.7006	0.4234	0.205
Mof_C 	C 	0.0677	0.7096	0.3831	-0.122
Mof_C 	C 	0.0637	0.6123	0.3639	-0.04
Mof_C 	C 	0.9933	0.5057	0.385	-0.123
Mof_C 	C 	0.1331	0.6288	0.3192	0.634
Mof_C 	C 	0.5033	0.4304	0.4253	-0.043
Mof_C 	C 	0.4058	0.337	0.4445	-0.084
Mof_C 	C 	0.2994	0.3009	0.4234	0.081
Mof_C 	C 	0.2904	0.3581	0.3831	-0.023
Mof_C 	C 	0.3877	0.4514	0.3639	-0.175
Mof_C 	C 	0.4943	0.4876	0.385	0.048
Mof_C 	C 	0.3712	0.5043	0.3192	0.681
Mof_C 	C 	0.5696	0.0729	0.4253	-0.013
Mof_C 	C 	0.663	0.0688	0.4445	-0.124
Mof_C 	C 	0.6991	0.9985	0.4234	0.105
Mof_C 	C 	0.6419	0.9323	0.3831	-0.045
Mof_C 	C 	0.5486	0.9363	0.3639	-0.145
Mof_C 	C 	0.5124	0.0067	0.385	0.006
Mof_C 	C 	0.4957	0.8669	0.3192	0.669
Mof_C 	C 	0.9271	0.4967	0.0747	0.08
Mof_C 	C 	0.9312	0.5942	0.0555	-0.244
Mof_C 	C 	0.0015	0.7006	0.0766	0.197
Mof_C 	C 	0.0677	0.7096	0.1169	-0.119
Mof_C 	C 	0.0637	0.6123	0.1361	-0.044
Mof_C 	C 	0.9933	0.5057	0.115	-0.121
Mof_C 	C 	0.1331	0.6288	0.1808	0.635
Mof_C 	C 	0.5033	0.4304	0.0747	-0.049
Mof_C 	C 	0.4058	0.337	0.0555	-0.083
Mof_C 	C 	0.2994	0.3009	0.0766	0.074
Mof_C 	C 	0.2904	0.3581	0.1169	-0.022
Mof_C 	C 	0.3877	0.4514	0.1361	-0.178
Mof_C 	C 	0.4943	0.4876	0.115	0.048
Mof_C 	C 	0.3712	0.5043	0.1808	0.681
Mof_C 	C 	0.5696	0.0729	0.0747	-0.021
Mof_C 	C 	0.663	0.0688	0.0555	-0.119
Mof_C 	C 	0.6991	0.9985	0.0766	0.096
Mof_C 	C 	0.6419	0.9323	0.1169	-0.042
Mof_C 	C 	0.5486	0.9363	0.1361	-0.15
Mof_C 	C 	0.5124	0.0067	0.115	0.009
Mof_C 	C 	0.4957	0.8669	0.1808	0.67
Mof_N 	N 	0.7992	0.7997	0.945	-0.318
Mof_N 	N 	0.0005	0.2008	0.945	-0.306
Mof_N 	N 	0.2003	0.9995	0.945	-0.322
Mof_N 	N 	0.7992	0.7997	0.555	-0.323
Mof_N 	N 	0.0005	0.2008	0.555	-0.311
Mof_N 	N 	0.2003	0.9995	0.555	-0.327
Mof_N 	N 	0.0005	0.7997	0.445	-0.315
Mof_N 	N 	0.2003	0.2008	0.445	-0.329
Mof_N 	N 	0.7992	0.9995	0.445	-0.318
Mof_N 	N 	0.0005	0.7997	0.055	-0.316
Mof_N 	N 	0.2003	0.2008	0.055	-0.33
Mof_N 	N 	0.7992	0.9995	0.055	-0.32
Mof_Cl	Cl	0.74	0.7414	0.05315	-0.505
Mof_Cl	Cl	0.0014	0.26	0.05315	-0.456
Mof_Cl	Cl	0.2586	0.9986	0.05315	-0.486
Mof_Cl	Cl	0.74	0.7414	0.44685	-0.489
Mof_Cl	Cl	0.0014	0.26	0.44685	-0.441
Mof_Cl	Cl	0.2586	0.9986	0.44685	-0.47
Mof_Cl	Cl	0.0014	0.7414	0.55315	-0.44
Mof_Cl	Cl	0.2586	0.26	0.55315	-0.481
Mof_Cl	Cl	0.74	0.9986	0.55315	-0.479
Mof_Cl	Cl	0.0014	0.7414	0.94685	-0.414
Mof_Cl	Cl	0.2586	0.26	0.94685	-0.456
Mof_Cl	Cl	0.74	0.9986	0.94685	-0.453
Mof_Cl	Cl	-0	0	-0	-0.62
Mof_Cl	Cl	1.16812e-32	0	0.5	-0.593
Mof_O 	O 	0.534	0.7255	0.8031	-0.718
Mof_O 	O 	0.4171	0.5427	0.8036	-0.707
Mof_O 	O 	0.1915	0.466	0.8031	-0.7
Mof_O 	O 	0.1256	0.5829	0.8036	-0.682
Mof_O 	O 	0.2745	0.8085	0.8031	-0.709
Mof_O 	O 	0.4573	0.8744	0.8036	-0.701
Mof_O 	O 	0.534	0.7255	0.6969	-0.718
Mof_O 	O 	0.4171	0.5427	0.6964	-0.708
Mof_O 	O 	0.1915	0.466	0.6969	-0.7
Mof_O 	O 	0.1256	0.5829	0.6964	-0.683
Mof_O 	O 	0.2745	0.8085	0.6969	-0.71
Mof_O 	O 	0.4573	0.8744	0.6964	-0.702
Mof_O 	O 	0.1915	0.7255	0.3031	-0.699
Mof_O 	O 	0.1256	0.5427	0.3036	-0.683
Mof_O 	O 	0.2745	0.466	0.3031	-0.715
Mof_O 	O 	0.4573	0.5829	0.3036	-0.708
Mof_O 	O 	0.534	0.8085	0.3031	-0.715
Mof_O 	O 	0.4171	0.8744	0.3036	-0.702
Mof_O 	O 	0.1915	0.7255	0.1969	-0.7
Mof_O 	O 	0.1256	0.5427	0.1964	-0.684
Mof_O 	O 	0.2745	0.466	0.1969	-0.715
Mof_O 	O 	0.4573	0.5829	0.1964	-0.709
Mof_O 	O 	0.534	0.8085	0.1969	-0.715
Mof_O 	O 	0.4171	0.8744	0.1964	-0.702
Mof_O 	O 	0.33333	0.66666	0.75	-1.184
Mof_O 	O 	0.33333	0.66666	0.25	-1.185
_end
