data_functionalizedCrystal
_audit_creation_method	'EQeq! by Chris Wilmer'
_symmetry_space_group_name_H-M	'P1'
_symmetry_Int_Tables_number	1
_symmetry_cell_setting	triclinic
loop_
_symmetry_equiv_pos_as_xyz
  x,y,z
_cell_length_a	14.7368
_cell_length_b	14.7368
_cell_length_c	14.7368
_cell_angle_alpha	60
_cell_angle_beta	60
_cell_angle_gamma	90
loop_
_atom_site_label
_atom_site_type_symbol
_atom_site_fract_x
_atom_site_fract_y
_atom_site_fract_z
_atom_site_charge
Mof_Zr	Zr	0.11954	0.88046	-0	3.136
Mof_Zr	Zr	0.11954	0.11954	-0	3.133
Mof_Zr	Zr	0.88046	0.11954	-0	3.142
Mof_Zr	Zr	0.88046	0.88046	-0	3.144
Mof_Zr	Zr	0.88046	0.88046	0.23908	3.221
Mof_Zr	Zr	0.11954	0.11954	0.76092	3.208
Mof_H 	H 	0.40797	0.84828	0.73082	0.121
Mof_H 	H 	0.15172	0.13879	0.26918	-0.041
Mof_H 	H 	0.86121	0.4209	0.73082	0.112
Mof_H 	H 	0.5791	0.59203	0.26918	-0.037
Mof_H 	H 	0.5791	0.13879	0.26918	-0.035
Mof_H 	H 	0.40797	0.4209	0.73082	0.12
Mof_H 	H 	0.15172	0.59203	0.26918	-0.044
Mof_H 	H 	0.86121	0.84828	0.73082	0.114
Mof_H 	H 	0.5791	0.59203	0.5597	0.067
Mof_H 	H 	0.40797	0.84828	0.01293	-0.06
Mof_H 	H 	0.15172	0.13879	0.4403	0.014
Mof_H 	H 	0.86121	0.4209	0.98707	0.137
Mof_H 	H 	0.40797	0.4209	0.4403	0.015
Mof_H 	H 	0.15172	0.59203	0.98707	0.14
Mof_H 	H 	0.86121	0.84828	0.5597	0.059
Mof_H 	H 	0.5791	0.13879	0.01293	-0.058
Mof_H 	H 	0.40797	0.13879	0.4403	0.018
Mof_H 	H 	0.15172	0.4209	0.98707	0.14
Mof_H 	H 	0.86121	0.59203	0.5597	0.057
Mof_H 	H 	0.5791	0.84828	0.01293	-0.058
Mof_H 	H 	0.5791	0.84828	0.5597	0.067
Mof_H 	H 	0.40797	0.13879	0.01293	-0.06
Mof_H 	H 	0.15172	0.4209	0.4403	0.011
Mof_H 	H 	0.86121	0.59203	0.98707	0.137
Mof_H 	H 	0.28361	0.09454	0.81093	0.368
Mof_H 	H 	0.90546	0.09454	0.18907	0.241
Mof_H 	H 	0.90546	0.09454	0.81093	0.383
Mof_H 	H 	0.90546	0.71639	0.18907	0.245
Mof_C 	C 	0.44635	0.91117	0.62931	-0.002
Mof_C 	C 	0.08883	0.07566	0.37069	-0.013
Mof_C 	C 	0.92434	0.45952	0.62931	0.086
Mof_C 	C 	0.54048	0.55365	0.37069	0.017
Mof_C 	C 	0.54048	0.07566	0.37069	-0.009
Mof_C 	C 	0.44635	0.45952	0.62931	-0.001
Mof_C 	C 	0.08883	0.55365	0.37069	0.019
Mof_C 	C 	0.92434	0.91117	0.62931	0.077
Mof_C 	C 	0.54048	0.55365	0.53518	0.042
Mof_C 	C 	0.44635	0.91117	0.01317	-0.038
Mof_C 	C 	0.08883	0.07566	0.46482	-0.055
Mof_C 	C 	0.92434	0.45952	0.98683	0.135
Mof_C 	C 	0.44635	0.45952	0.46482	-0.026
Mof_C 	C 	0.08883	0.55365	0.98683	0.056
Mof_C 	C 	0.92434	0.91117	0.53518	0.123
Mof_C 	C 	0.54048	0.07566	0.01317	-0.063
Mof_C 	C 	0.44635	0.07566	0.46482	-0.053
Mof_C 	C 	0.08883	0.45952	0.98683	0.056
Mof_C 	C 	0.92434	0.55365	0.53518	0.13
Mof_C 	C 	0.54048	0.91117	0.01317	-0.038
Mof_C 	C 	0.54048	0.91117	0.53518	0.041
Mof_C 	C 	0.44635	0.07566	0.01317	-0.066
Mof_C 	C 	0.08883	0.45952	0.46482	-0.025
Mof_C 	C 	0.92434	0.55365	0.98683	0.132
Mof_C 	C 	0.00417	0.69989	0.30427	0.416
Mof_C 	C 	0.30011	0.30844	0.69573	0.455
Mof_C 	C 	0.69156	0.99583	0.30427	0.541
Mof_C 	C 	0.00417	0.99583	0.69573	0.394
Mof_C 	C 	0.00417	0.30844	0.69573	0.355
Mof_C 	C 	0.00417	0.99583	0.30427	0.456
Mof_C 	C 	0.30011	0.99583	0.69573	0.483
Mof_C 	C 	0.69156	0.69989	0.30427	0.515
Mof_C 	C 	0.00417	0.69989	0.99167	0.383
Mof_C 	C 	0.69156	0.99583	0.00833	0.519
Mof_C 	C 	0.30011	0.99583	0.00833	0.526
Mof_C 	C 	0.00417	0.30844	0.99167	0.376
Mof_C 	C 	0.39918	0.99378	0.5946	-0.057
Mof_C 	C 	0.00622	0.99378	0.4054	-0.211
Mof_C 	C 	0.00622	0.41162	0.5946	-0.166
Mof_C 	C 	0.58838	0.60082	0.4054	-0.158
Mof_C 	C 	0.58838	0.99378	0.4054	-0.135
Mof_C 	C 	0.39918	0.41162	0.5946	-0.081
Mof_C 	C 	0.00622	0.60082	0.4054	-0.245
Mof_C 	C 	0.00622	0.99378	0.5946	-0.132
Mof_C 	C 	0.39918	0.99378	0.01244	-0.181
Mof_C 	C 	0.00622	0.41162	0.98756	-0.111
Mof_C 	C 	0.00622	0.60082	0.98756	-0.11
Mof_C 	C 	0.58838	0.99378	0.01244	-0.178
Mof_O 	O 	0.26179	0.9203	0.81234	-0.506
Mof_O 	O 	0.0797	0.07413	0.18766	-0.814
Mof_O 	O 	0.92587	0.26736	0.81234	-0.413
Mof_O 	O 	0.73264	0.73821	0.18766	-0.779
Mof_O 	O 	0.73264	0.07413	0.18766	-0.804
Mof_O 	O 	0.26179	0.26736	0.81234	-0.503
Mof_O 	O 	0.0797	0.73821	0.18766	-0.778
Mof_O 	O 	0.92587	0.9203	0.81234	-0.426
Mof_O 	O 	0.73264	0.73821	0.34149	-0.65
Mof_O 	O 	0.26179	0.9203	0.00557	-0.873
Mof_O 	O 	0.0797	0.07413	0.65851	-0.678
Mof_O 	O 	0.92587	0.26736	0.99443	-0.327
Mof_O 	O 	0.26179	0.26736	0.65851	-0.652
Mof_O 	O 	0.0797	0.73821	0.99443	-0.407
Mof_O 	O 	0.92587	0.9203	0.34149	-0.571
Mof_O 	O 	0.73264	0.07413	0.00557	-0.89
Mof_O 	O 	0.26179	0.07413	0.65851	-0.679
Mof_O 	O 	0.0797	0.26736	0.99443	-0.407
Mof_O 	O 	0.92587	0.73821	0.34149	-0.563
Mof_O 	O 	0.73264	0.9203	0.00557	-0.866
Mof_O 	O 	0.73264	0.9203	0.34149	-0.652
Mof_O 	O 	0.26179	0.07413	0.00557	-0.903
Mof_O 	O 	0.0797	0.26736	0.65851	-0.647
Mof_O 	O 	0.92587	0.73821	0.99443	-0.331
Mof_O 	O 	0.93239	0.79716	0.13523	-1.325
Mof_O 	O 	0.20284	0.06761	0.86477	-1.003
Mof_O 	O 	0.93239	0.06761	0.13523	-1.335
Mof_O 	O 	0.93239	0.06761	0.86477	-0.957
Mof_O 	O 	0.04973	0.1492	0.90053	-1.249
Mof_O 	O 	0.8508	0.95027	0.09947	-1.527
Mof_O 	O 	0.04973	0.95027	0.90053	-1.228
Mof_O 	O 	0.04973	0.95027	0.09947	-1.593
_end
