data_functionalizedCrystal
_audit_creation_method	'EQeq! by Chris Wilmer'
_symmetry_space_group_name_H-M	'P1'
_symmetry_Int_Tables_number	1
_symmetry_cell_setting	triclinic
loop_
_symmetry_equiv_pos_as_xyz
  x,y,z
_cell_length_a	8.253
_cell_length_b	11.259
_cell_length_c	13.2214
_cell_angle_alpha	107.21
_cell_angle_beta	108.186
_cell_angle_gamma	90
loop_
_atom_site_label
_atom_site_type_symbol
_atom_site_fract_x
_atom_site_fract_y
_atom_site_fract_z
_atom_site_charge
Mof_Ni	Ni	0.23603	0.92994	0.37244	1.087
Mof_Ni	Ni	0.86359	0.07006	0.62756	1.085
Mof_H 	H 	0.7376	0.2082	0.0706	0.088
Mof_H 	H 	0.6628	0.2931	0.226	0.033
Mof_H 	H 	0.7119	0.1981	0.3638	0.051
Mof_H 	H 	0.2274	0.1932	0.5288	-0.005
Mof_H 	H 	0.2203	0.3943	0.5272	0.08
Mof_H 	H 	0.2688	0.2822	0.2208	0.082
Mof_H 	H 	0.2807	0.0824	0.2322	0.003
Mof_H 	H 	0.3575	0.6875	0.2654	-0.013
Mof_H 	H 	0.3746	0.4822	0.2704	0.081
Mof_H 	H 	0.0801	0.549	0.4644	0.088
Mof_H 	H 	0.0734	0.7503	0.4554	0.016
Mof_H 	H 	0.667	0.7918	0.9294	0.088
Mof_H 	H 	0.4368	0.7069	0.774	0.034
Mof_H 	H 	0.3481	0.8019	0.6362	0.054
Mof_H 	H 	0.6986	0.8068	0.4712	-0.015
Mof_H 	H 	0.6931	0.6057	0.4728	0.088
Mof_H 	H 	0.048	0.7178	0.7792	0.115
Mof_H 	H 	0.0485	0.9176	0.7678	0.019
Mof_H 	H 	0.0921	0.3125	0.7346	0.045
Mof_H 	H 	0.1042	0.5178	0.7296	0.039
Mof_H 	H 	0.6157	0.451	0.5356	0.06
Mof_H 	H 	0.618	0.2497	0.5446	0.025
Mof_C 	C 	0.83597	0.0604	0.29654	-0.067
Mof_C 	C 	0.87633	0.001	0.19826	-0.079
Mof_C 	C 	0.8425	0.0599	0.1146	0.059
Mof_C 	C 	0.761	0.1699	0.1264	-0.099
Mof_C 	C 	0.7166	0.2199	0.2186	-0.002
Mof_C 	C 	0.7493	0.1644	0.3028	-0.036
Mof_C 	C 	0.88339	0.0078	0.39338	0.354
Mof_C 	C 	0.9484	0.875	0.1768	0.288
Mof_C 	C 	0.2368	0.2118	0.4666	0.091
Mof_C 	C 	0.2302	0.3321	0.4656	-0.137
Mof_C 	C 	0.23801	0.3625	0.37242	0.053
Mof_C 	C 	0.2597	0.2659	0.284	-0.125
Mof_C 	C 	0.2675	0.1463	0.2916	0.074
Mof_C 	C 	0.3019	0.6602	0.307	0.095
Mof_C 	C 	0.311	0.535	0.308	-0.141
Mof_C 	C 	0.2217	0.4927	0.367	0.071
Mof_C 	C 	0.1376	0.5739	0.4226	-0.142
Mof_C 	C 	0.1356	0.6959	0.4178	0.086
Mof_C 	C 	0.53943	0.9396	0.70346	-0.063
Mof_C 	C 	0.67807	0.999	0.80174	-0.091
Mof_C 	C 	0.7279	0.9401	0.8854	0.064
Mof_C 	C 	0.6346	0.8301	0.8736	-0.101
Mof_C 	C 	0.498	0.7801	0.7814	0.002
Mof_C 	C 	0.4465	0.8356	0.6972	-0.036
Mof_C 	C 	0.49001	0.9922	0.60662	0.37
Mof_C 	C 	0.7716	0.125	0.8232	0.327
Mof_C 	C 	0.7702	0.7882	0.5334	0.102
Mof_C 	C 	0.7646	0.6679	0.5344	-0.172
Mof_C 	C 	0.86559	0.6375	0.62758	0.098
Mof_C 	C 	0.9757	0.7341	0.716	-0.184
Mof_C 	C 	0.9759	0.8537	0.7084	0.059
Mof_C 	C 	0.9949	0.3398	0.693	-0.03
Mof_C 	C 	0.003	0.465	0.692	-0.009
Mof_C 	C 	0.8547	0.5073	0.633	-0.024
Mof_C 	C 	0.715	0.4261	0.5774	-0.08
Mof_C 	C 	0.7178	0.3041	0.5822	0.044
Mof_S 	S 	0.9199	0	-0	-0.028
Mof_N 	N 	0.25662	0.1186	0.38144	-0.231
Mof_N 	N 	0.22028	0.7384	0.36116	-0.225
Mof_N 	N 	0.87518	0.8814	0.61856	-0.238
Mof_N 	N 	0.85912	0.2616	0.63884	-0.199
Mof_O 	O 	0.00779	0.9464	0.40838	-0.404
Mof_O 	O 	0.79807	0.0377	0.45754	-0.42
Mof_O 	O 	0.10659	0.8715	0.20178	-0.371
Mof_O 	O 	0.83897	0.7827	0.13134	-0.241
Mof_O 	O 	0.59941	0.0536	0.59162	-0.421
Mof_O 	O 	0.34053	0.9623	0.54246	-0.423
Mof_O 	O 	0.90481	0.1285	0.79822	-0.401
Mof_O 	O 	0.70763	0.2173	0.86866	-0.245
_end
