data_functionalizedCrystal
_audit_creation_method	'EQeq! by Chris Wilmer'
_symmetry_space_group_name_H-M	'P1'
_symmetry_Int_Tables_number	1
_symmetry_cell_setting	triclinic
loop_
_symmetry_equiv_pos_as_xyz
  x,y,z
_cell_length_a	14.014
_cell_length_b	26.963
_cell_length_c	7.576
_cell_angle_alpha	90
_cell_angle_beta	90
_cell_angle_gamma	91.74
loop_
_atom_site_label
_atom_site_type_symbol
_atom_site_fract_x
_atom_site_fract_y
_atom_site_fract_z
_atom_site_charge
Mof_Cd	Cd	0.27484	0.13543	0.88104	0.361
Mof_N 	N 	0.2544	0.0796	0.099	-0.08
Mof_N 	N 	0.2488	0.0779	0.6555	-0.076
Mof_N 	N 	0.3259	0.1998	0.09	-0.065
Mof_N 	N 	0.1234	0.168	0.8715	-0.076
Mof_N 	N 	0.441	0.1257	0.837	-0.128
Mof_N 	N 	0.3178	0.1926	0.6525	-0.113
Mof_C 	C 	0.252	0.0492	0.2023	-0.261
Mof_C 	C 	0.2494	0.0486	0.5496	-0.261
Mof_C 	C 	0.3919	0.2188	0.1529	-0.22
Mof_C 	C 	0.0754	0.1983	0.8259	-0.249
Mof_C 	C 	0.4738	0.157	0.694	0.038
Mof_C 	C 	0.4191	0.1908	0.626	-0.022
Mof_C 	C 	0.5795	0.1574	0.656	-0.032
Mof_Cd	Cd	0.27484	0.63543	0.38104	0.368
Mof_N 	N 	0.2544	0.5796	0.599	-0.079
Mof_N 	N 	0.2488	0.5779	0.1555	-0.075
Mof_N 	N 	0.3259	0.6998	0.59	-0.065
Mof_N 	N 	0.1234	0.668	0.3715	-0.074
Mof_N 	N 	0.441	0.6257	0.337	-0.124
Mof_N 	N 	0.3178	0.6926	0.1525	-0.113
Mof_C 	C 	0.252	0.5492	0.7023	-0.241
Mof_C 	C 	0.2494	0.5486	0.0496	-0.239
Mof_C 	C 	0.3919	0.7188	0.6529	-0.22
Mof_C 	C 	0.0754	0.6983	0.3259	-0.247
Mof_C 	C 	0.4738	0.657	0.194	0.04
Mof_C 	C 	0.4191	0.6908	0.126	-0.022
Mof_C 	C 	0.5795	0.6574	0.156	-0.03
Mof_Cd	Cd	0.22516	0.86457	0.88104	0.373
Mof_N 	N 	0.2456	0.9204	0.099	-0.081
Mof_N 	N 	0.2512	0.9221	0.6555	-0.076
Mof_N 	N 	0.1741	0.8002	0.09	-0.063
Mof_N 	N 	0.3766	0.832	0.8715	-0.07
Mof_N 	N 	0.059	0.8743	0.837	-0.131
Mof_N 	N 	0.1822	0.8074	0.6525	-0.115
Mof_C 	C 	0.248	0.9508	0.2023	-0.206
Mof_C 	C 	0.2506	0.9514	0.5496	-0.205
Mof_C 	C 	0.1081	0.7812	0.1529	-0.241
Mof_C 	C 	0.4246	0.8017	0.8259	-0.216
Mof_C 	C 	0.0262	0.843	0.694	-0.032
Mof_C 	C 	0.0809	0.8092	0.626	-0.024
Mof_C 	C 	0.9205	0.8426	0.656	0.045
Mof_Cd	Cd	0.22516	0.36457	0.38104	0.367
Mof_N 	N 	0.2456	0.4204	0.599	-0.079
Mof_N 	N 	0.2512	0.4221	0.1555	-0.074
Mof_N 	N 	0.1741	0.3002	0.59	-0.063
Mof_N 	N 	0.3766	0.332	0.3715	-0.072
Mof_N 	N 	0.059	0.3743	0.337	-0.135
Mof_N 	N 	0.1822	0.3074	0.1525	-0.115
Mof_C 	C 	0.248	0.4508	0.7023	-0.241
Mof_C 	C 	0.2506	0.4514	0.0496	-0.239
Mof_C 	C 	0.1081	0.2812	0.6529	-0.243
Mof_C 	C 	0.4246	0.3017	0.3259	-0.217
Mof_C 	C 	0.0262	0.343	0.194	-0.032
Mof_C 	C 	0.0809	0.3092	0.126	-0.023
Mof_C 	C 	0.9205	0.3426	0.156	0.039
Mof_Cd	Cd	0.72516	0.86457	0.11896	0.383
Mof_N 	N 	0.7456	0.9204	0.901	-0.077
Mof_N 	N 	0.7512	0.9221	0.3445	-0.073
Mof_N 	N 	0.6741	0.8002	0.91	-0.064
Mof_N 	N 	0.8766	0.832	0.1285	-0.072
Mof_N 	N 	0.559	0.8743	0.163	-0.121
Mof_N 	N 	0.6822	0.8074	0.3475	-0.112
Mof_C 	C 	0.748	0.9508	0.7977	-0.191
Mof_C 	C 	0.7506	0.9514	0.4504	-0.191
Mof_C 	C 	0.6081	0.7812	0.8471	-0.219
Mof_C 	C 	0.9246	0.8017	0.1741	-0.168
Mof_C 	C 	0.5262	0.843	0.306	0.041
Mof_C 	C 	0.5809	0.8092	0.374	-0.022
Mof_C 	C 	0.4205	0.8426	0.344	-0.027
Mof_Cd	Cd	0.72516	0.36457	0.61896	0.379
Mof_N 	N 	0.7456	0.4204	0.401	-0.075
Mof_N 	N 	0.7512	0.4221	0.8445	-0.071
Mof_N 	N 	0.6741	0.3002	0.41	-0.064
Mof_N 	N 	0.8766	0.332	0.6285	-0.073
Mof_N 	N 	0.559	0.3743	0.663	-0.125
Mof_N 	N 	0.6822	0.3074	0.8475	-0.112
Mof_C 	C 	0.748	0.4508	0.2977	-0.226
Mof_C 	C 	0.7506	0.4514	0.9504	-0.225
Mof_C 	C 	0.6081	0.2812	0.3471	-0.22
Mof_C 	C 	0.9246	0.3017	0.6741	-0.167
Mof_C 	C 	0.5262	0.343	0.806	0.04
Mof_C 	C 	0.5809	0.3092	0.874	-0.022
Mof_C 	C 	0.4205	0.3426	0.844	-0.03
Mof_Cd	Cd	0.77484	0.13543	0.11896	0.373
Mof_N 	N 	0.7544	0.0796	0.901	-0.075
Mof_N 	N 	0.7488	0.0779	0.3445	-0.073
Mof_N 	N 	0.8259	0.1998	0.91	-0.071
Mof_N 	N 	0.6234	0.168	0.1285	-0.073
Mof_N 	N 	0.941	0.1257	0.163	-0.118
Mof_N 	N 	0.8178	0.1926	0.3475	-0.11
Mof_C 	C 	0.752	0.0492	0.7977	-0.246
Mof_C 	C 	0.7494	0.0486	0.4504	-0.246
Mof_C 	C 	0.8919	0.2188	0.8471	-0.178
Mof_C 	C 	0.5754	0.1983	0.1741	-0.218
Mof_C 	C 	0.9738	0.157	0.306	0.11
Mof_C 	C 	0.9191	0.1908	0.374	-0.016
Mof_C 	C 	0.0795	0.1574	0.344	-0.1
Mof_Cd	Cd	0.77484	0.63543	0.61896	0.379
Mof_N 	N 	0.7544	0.5796	0.401	-0.075
Mof_N 	N 	0.7488	0.5779	0.8445	-0.072
Mof_N 	N 	0.8259	0.6998	0.41	-0.071
Mof_N 	N 	0.6234	0.668	0.6285	-0.072
Mof_N 	N 	0.941	0.6257	0.663	-0.114
Mof_N 	N 	0.8178	0.6926	0.8475	-0.11
Mof_C 	C 	0.752	0.5492	0.2977	-0.226
Mof_C 	C 	0.7494	0.5486	0.9504	-0.225
Mof_C 	C 	0.8919	0.7188	0.3471	-0.179
Mof_C 	C 	0.5754	0.6983	0.6741	-0.217
Mof_C 	C 	0.9738	0.657	0.806	0.113
Mof_C 	C 	0.9191	0.6908	0.874	-0.016
Mof_C 	C 	0.0795	0.6574	0.844	-0.1
Mof_Ni	Ni	0.25	0	0.3744	1.037
Mof_Ni	Ni	0.25	0.5	0.8744	1.06
Mof_Ni	Ni	0.75	0	0.6256	1.04
Mof_Ni	Ni	0.75	0.5	0.1256	1.064
Mof_Ni	Ni	0.5	0.25	0.25	1.067
Mof_Ni	Ni	1.39826e-18	0.75	0.25	1.035
Mof_Ni	Ni	0.5	0.75	0.75	1.067
Mof_Ni	Ni	1.71153e-18	0.25	0.75	1.034
_end
