data_functionalizedCrystal
_audit_creation_method	'EQeq! by Chris Wilmer'
_symmetry_space_group_name_H-M	'P1'
_symmetry_Int_Tables_number	1
_symmetry_cell_setting	triclinic
loop_
_symmetry_equiv_pos_as_xyz
  x,y,z
_cell_length_a	10.3428
_cell_length_b	10.5749
_cell_length_c	6.2597
_cell_angle_alpha	90
_cell_angle_beta	114.852
_cell_angle_gamma	90
loop_
_atom_site_label
_atom_site_type_symbol
_atom_site_fract_x
_atom_site_fract_y
_atom_site_fract_z
_atom_site_charge
Mof_C 	C 	0.3171	0.2107	0.5459	-0.063
Mof_H 	H 	0.3989	0.2656	0.5734	0.015
Mof_H 	H 	0.3308	0.1729	0.6969	-0.003
Mof_N 	N 	0.3115	0.1098	0.3807	-0.266
Mof_H 	H 	0.2963	0.1451	0.2396	0.057
Mof_H 	H 	0.2364	0.0582	0.3578	0.05
Mof_C 	C 	0.8171	0.7107	0.5459	-0.064
Mof_H 	H 	0.8989	0.7656	0.5734	0.042
Mof_H 	H 	0.8308	0.6729	0.6969	0.022
Mof_N 	N 	0.8115	0.6098	0.3807	-0.259
Mof_H 	H 	0.7963	0.6451	0.2396	0.081
Mof_H 	H 	0.7364	0.5582	0.3578	0.079
Mof_C 	C 	0.6829	0.2107	0.9541	0.027
Mof_H 	H 	0.6011	0.2656	0.9266	-0.006
Mof_H 	H 	0.6692	0.1729	0.8031	-0.026
Mof_N 	N 	0.6885	0.1098	0.1193	-0.289
Mof_H 	H 	0.7037	0.1451	0.2604	0.073
Mof_H 	H 	0.7636	0.0582	0.1422	0.068
Mof_C 	C 	0.1829	0.7107	0.9541	0.031
Mof_H 	H 	0.1011	0.7656	0.9266	-0.017
Mof_H 	H 	0.1692	0.6729	0.8031	-0.029
Mof_N 	N 	0.1885	0.6098	0.1193	-0.291
Mof_H 	H 	0.2037	0.6451	0.2604	0.074
Mof_H 	H 	0.2636	0.5582	0.1422	0.078
Mof_C 	C 	0.6829	0.7893	0.4541	-0.025
Mof_H 	H 	0.6011	0.7344	0.4266	0.007
Mof_H 	H 	0.6692	0.8271	0.3031	0.005
Mof_N 	N 	0.6885	0.8902	0.6193	-0.274
Mof_H 	H 	0.7037	0.8549	0.7604	0.098
Mof_H 	H 	0.7636	0.9418	0.6422	0.113
Mof_C 	C 	0.1829	0.2893	0.4541	-0.022
Mof_H 	H 	0.1011	0.2344	0.4266	-0.02
Mof_H 	H 	0.1692	0.3271	0.3031	-0.021
Mof_N 	N 	0.1885	0.3902	0.6193	-0.282
Mof_H 	H 	0.2037	0.3549	0.7604	0.075
Mof_H 	H 	0.2636	0.4418	0.6422	0.083
Mof_C 	C 	0.3171	0.7893	0.0459	-0.114
Mof_H 	H 	0.3989	0.7344	0.0734	0.029
Mof_H 	H 	0.3308	0.8271	0.1969	0.025
Mof_N 	N 	0.3115	0.8902	0.8807	-0.242
Mof_H 	H 	0.2963	0.8549	0.7396	0.081
Mof_H 	H 	0.2364	0.9418	0.8578	0.094
Mof_C 	C 	0.8171	0.2893	0.0459	-0.117
Mof_H 	H 	0.8989	0.2344	0.0734	0.04
Mof_H 	H 	0.8308	0.3271	0.1969	0.027
Mof_N 	N 	0.8115	0.3902	0.8807	-0.241
Mof_H 	H 	0.7963	0.3549	0.7396	0.079
Mof_H 	H 	0.7364	0.4418	0.8578	0.084
Mof_Ag	Ag	0.5	0	0.5	0.307
Mof_Ag	Ag	1.61146e-33	0.5	0.5	0.309
Mof_Ag	Ag	0.5	0	-0	0.258
Mof_Ag	Ag	-0	0.5	-0	0.26
_end
