data_functionalizedCrystal
_audit_creation_method	'EQeq! by Chris Wilmer'
_symmetry_space_group_name_H-M	'P1'
_symmetry_Int_Tables_number	1
_symmetry_cell_setting	triclinic
loop_
_symmetry_equiv_pos_as_xyz
  x,y,z
_cell_length_a	13.966
_cell_length_b	16.692
_cell_length_c	9.6406
_cell_angle_alpha	90
_cell_angle_beta	90
_cell_angle_gamma	90
loop_
_atom_site_label
_atom_site_type_symbol
_atom_site_fract_x
_atom_site_fract_y
_atom_site_fract_z
_atom_site_charge
Mof_O 	O 	0.09982	0.08558	0.38468	-0.477
Mof_C 	C 	0.0835	0.0396	0.0803	-0.103
Mof_H 	H 	0.0568	0.1095	0.1129	-0.613
Mof_H 	H 	0.085	0.095	0.1141	0.616
Mof_H 	H 	0.1411	0.0124	0.1141	-0.181
Mof_C 	C 	0.2197	0.21683	0.3766	-0.008
Mof_H 	H 	0.1992	0.1947	0.292	0.044
Mof_O 	O 	0.59982	0.58558	0.38468	-0.471
Mof_C 	C 	0.5835	0.5396	0.0803	-0.03
Mof_H 	H 	0.5568	0.6095	0.1129	-0.01
Mof_H 	H 	0.585	0.595	0.1141	0.05
Mof_H 	H 	0.6411	0.5124	0.1141	0.026
Mof_C 	C 	0.7197	0.71683	0.3766	-0.005
Mof_H 	H 	0.6992	0.6947	0.292	0.046
Mof_O 	O 	0.90018	0.91442	0.38468	-0.468
Mof_C 	C 	0.9165	0.9604	0.0803	0.164
Mof_H 	H 	0.9432	0.8905	0.1129	1.26
Mof_H 	H 	0.915	0.905	0.1141	-1.225
Mof_H 	H 	0.8589	0.9876	0.1141	0.768
Mof_C 	C 	0.7803	0.78317	0.3766	-0.022
Mof_H 	H 	0.8008	0.8053	0.292	0.056
Mof_O 	O 	0.40018	0.41442	0.38468	-0.47
Mof_C 	C 	0.4165	0.4604	0.0803	-0.012
Mof_H 	H 	0.4432	0.3905	0.1129	0.05
Mof_H 	H 	0.415	0.405	0.1141	-0.012
Mof_H 	H 	0.3589	0.4876	0.1141	0.01
Mof_C 	C 	0.2803	0.28317	0.3766	-0.017
Mof_H 	H 	0.3008	0.3053	0.292	0.05
Mof_O 	O 	0.90018	0.08558	0.61532	-0.419
Mof_C 	C 	0.9165	0.0396	0.9197	0.097
Mof_H 	H 	0.9432	0.1095	0.8871	-0.181
Mof_H 	H 	0.915	0.095	0.8859	0.21
Mof_H 	H 	0.8589	0.0124	0.8859	-0.766
Mof_C 	C 	0.7803	0.21683	0.6234	-0.026
Mof_H 	H 	0.8008	0.1947	0.708	0.071
Mof_O 	O 	0.40018	0.58558	0.61532	-0.471
Mof_C 	C 	0.4165	0.5396	0.9197	-0.011
Mof_H 	H 	0.4432	0.6095	0.8871	0.055
Mof_H 	H 	0.415	0.595	0.8859	-0.02
Mof_H 	H 	0.3589	0.5124	0.8859	0.021
Mof_C 	C 	0.2803	0.71683	0.6234	-0.037
Mof_H 	H 	0.3008	0.6947	0.708	0.051
Mof_O 	O 	0.09982	0.91442	0.61532	-0.517
Mof_C 	C 	0.0835	0.9604	0.9197	-0.41
Mof_H 	H 	0.0568	0.8905	0.8871	-0.802
Mof_H 	H 	0.085	0.905	0.8859	0.912
Mof_H 	H 	0.1411	0.9876	0.8859	0.28
Mof_C 	C 	0.2197	0.78317	0.6234	0.01
Mof_H 	H 	0.1992	0.8053	0.708	0.021
Mof_O 	O 	0.59982	0.41442	0.61532	-0.47
Mof_C 	C 	0.5835	0.4604	0.9197	-0.031
Mof_H 	H 	0.5568	0.3905	0.8871	-0.015
Mof_H 	H 	0.585	0.405	0.8859	0.058
Mof_H 	H 	0.6411	0.4876	0.8859	0.015
Mof_C 	C 	0.7197	0.28317	0.6234	0.007
Mof_H 	H 	0.6992	0.3053	0.708	0.048
Mof_O 	O 	0.90018	0.91442	0.61532	-0.468
Mof_C 	C 	0.9165	0.9604	0.9197	0.164
Mof_H 	H 	0.9432	0.8905	0.8871	1.26
Mof_H 	H 	0.915	0.905	0.8859	-1.225
Mof_H 	H 	0.8589	0.9876	0.8859	0.768
Mof_C 	C 	0.7803	0.78317	0.6234	-0.022
Mof_H 	H 	0.8008	0.8053	0.708	0.056
Mof_O 	O 	0.40018	0.41442	0.61532	-0.47
Mof_C 	C 	0.4165	0.4604	0.9197	-0.012
Mof_H 	H 	0.4432	0.3905	0.8871	0.05
Mof_H 	H 	0.415	0.405	0.8859	-0.012
Mof_H 	H 	0.3589	0.4876	0.8859	0.01
Mof_C 	C 	0.2803	0.28317	0.6234	-0.017
Mof_H 	H 	0.3008	0.3053	0.708	0.05
Mof_O 	O 	0.09982	0.08558	0.61532	-0.476
Mof_C 	C 	0.0835	0.0396	0.9197	-0.102
Mof_H 	H 	0.0568	0.1095	0.8871	-0.612
Mof_H 	H 	0.085	0.095	0.8859	0.617
Mof_H 	H 	0.1411	0.0124	0.8859	-0.18
Mof_C 	C 	0.2197	0.21683	0.6234	-0.007
Mof_H 	H 	0.1992	0.1947	0.708	0.044
Mof_O 	O 	0.59982	0.58558	0.61532	-0.471
Mof_C 	C 	0.5835	0.5396	0.9197	-0.03
Mof_H 	H 	0.5568	0.6095	0.8871	-0.01
Mof_H 	H 	0.585	0.595	0.8859	0.05
Mof_H 	H 	0.6411	0.5124	0.8859	0.026
Mof_C 	C 	0.7197	0.71683	0.6234	-0.005
Mof_H 	H 	0.6992	0.6947	0.708	0.046
Mof_O 	O 	0.09982	0.91442	0.38468	-0.517
Mof_C 	C 	0.0835	0.9604	0.0803	-0.41
Mof_H 	H 	0.0568	0.8905	0.1129	-0.802
Mof_H 	H 	0.085	0.905	0.1141	0.912
Mof_H 	H 	0.1411	0.9876	0.1141	0.28
Mof_C 	C 	0.2197	0.78317	0.3766	0.01
Mof_H 	H 	0.1992	0.8053	0.292	0.021
Mof_O 	O 	0.59982	0.41442	0.38468	-0.47
Mof_C 	C 	0.5835	0.4604	0.0803	-0.031
Mof_H 	H 	0.5568	0.3905	0.1129	-0.015
Mof_H 	H 	0.585	0.405	0.1141	0.058
Mof_H 	H 	0.6411	0.4876	0.1141	0.015
Mof_C 	C 	0.7197	0.28317	0.3766	0.007
Mof_H 	H 	0.6992	0.3053	0.292	0.048
Mof_O 	O 	0.90018	0.08558	0.38468	-0.419
Mof_C 	C 	0.9165	0.0396	0.0803	0.097
Mof_H 	H 	0.9432	0.1095	0.1129	-0.181
Mof_H 	H 	0.915	0.095	0.1141	0.21
Mof_H 	H 	0.8589	0.0124	0.1141	-0.766
Mof_C 	C 	0.7803	0.21683	0.3766	-0.026
Mof_H 	H 	0.8008	0.1947	0.292	0.071
Mof_O 	O 	0.40018	0.58558	0.38468	-0.471
Mof_C 	C 	0.4165	0.5396	0.0803	-0.011
Mof_H 	H 	0.4432	0.6095	0.1129	0.055
Mof_H 	H 	0.415	0.595	0.1141	-0.02
Mof_H 	H 	0.3589	0.5124	0.1141	0.021
Mof_C 	C 	0.2803	0.71683	0.3766	-0.037
Mof_H 	H 	0.3008	0.6947	0.292	0.051
Mof_Zn	Zn	8.99831e-34	-1.40403e-33	0.34767	1.213
Mof_N 	N 	-3.56234e-34	-7.02014e-34	0.1336	-0.186
Mof_Zn	Zn	0.5	0.5	0.34767	1.216
Mof_N 	N 	0.5	0.5	0.1336	-0.196
Mof_Zn	Zn	1.68834e-33	0	0.65233	1.213
Mof_N 	N 	7.85851e-33	5.61611e-33	0.8664	-0.186
Mof_Zn	Zn	0.5	0.5	0.65233	1.216
Mof_N 	N 	0.5	0.5	0.8664	-0.196
Mof_C 	C 	0.1246	0.11202	0.5	0.401
Mof_C 	C 	0.18964	0.18333	0.5	-0.09
Mof_C 	C 	0.6246	0.61202	0.5	0.401
Mof_C 	C 	0.68964	0.68333	0.5	-0.089
Mof_C 	C 	0.8754	0.88798	0.5	0.392
Mof_C 	C 	0.81036	0.81667	0.5	-0.075
Mof_C 	C 	0.3754	0.38798	0.5	0.396
Mof_C 	C 	0.31036	0.31667	0.5	-0.081
Mof_C 	C 	0.8754	0.11202	0.5	0.385
Mof_C 	C 	0.81036	0.18333	0.5	-0.052
Mof_C 	C 	0.3754	0.61202	0.5	0.391
Mof_C 	C 	0.31036	0.68333	0.5	-0.072
Mof_C 	C 	0.1246	0.88798	0.5	0.416
Mof_C 	C 	0.18964	0.81667	0.5	-0.121
Mof_C 	C 	0.6246	0.38798	0.5	0.404
Mof_C 	C 	0.68964	0.31667	0.5	-0.092
Mof_C 	C 	-4.97031e-34	0.081	0.0792	0.213
Mof_C 	C 	0.5	0.581	0.0792	-0.03
Mof_C 	C 	-5.41113e-33	0.919	0.0792	-0.162
Mof_C 	C 	0.5	0.419	0.0792	-0.024
Mof_C 	C 	2.38319e-33	0.081	0.9208	0.213
Mof_C 	C 	0.5	0.581	0.9208	-0.03
Mof_C 	C 	-8.84904e-33	0.919	0.9208	-0.162
Mof_C 	C 	0.5	0.419	0.9208	-0.024
_end
