data_functionalizedCrystal
_audit_creation_method	'EQeq! by Chris Wilmer'
_symmetry_space_group_name_H-M	'P1'
_symmetry_Int_Tables_number	1
_symmetry_cell_setting	triclinic
loop_
_symmetry_equiv_pos_as_xyz
  x,y,z
_cell_length_a	10.154
_cell_length_b	18.393
_cell_length_c	15.773
_cell_angle_alpha	90
_cell_angle_beta	90
_cell_angle_gamma	90
loop_
_atom_site_label
_atom_site_type_symbol
_atom_site_fract_x
_atom_site_fract_y
_atom_site_fract_z
_atom_site_charge
Mof_Ga	Ga	0.1801	0.7179	0.5381	4.282
Mof_Ga	Ga	0.3366	0.674	0.3512	4.291
Mof_Ga	Ga	0.149	0.9057	0.5036	4.231
Mof_P 	P 	0.3595	0.5759	0.5164	1.028
Mof_P 	P 	0.1505	0.8317	0.6845	1.071
Mof_P 	P 	0.3796	0.817	0.4372	0.941
Mof_F 	F 	0.1733	0.6858	0.4193	-1.397
Mof_F 	F 	0.0844	0.8039	0.5014	-1.501
Mof_O 	O 	0.4989	0.5666	0.5555	-1.134
Mof_O 	O 	0.286	0.5037	0.5198	-0.991
Mof_O 	O 	0.3792	0.599	0.4232	-1.292
Mof_O 	O 	0.2846	0.6332	0.5686	-0.992
Mof_O 	O 	0.2352	0.8538	0.7606	-1.103
Mof_O 	O 	0.1836	0.7546	0.6546	-1.056
Mof_O 	O 	0.1861	0.89	0.618	-1.131
Mof_O 	O 	0.005	0.8382	0.7105	-1.007
Mof_O 	O 	0.2914	0.8855	0.4314	-1.051
Mof_O 	O 	0.3597	0.7742	0.3538	-1.143
Mof_O 	O 	0.3431	0.7708	0.5142	-1.125
Mof_O 	O 	0.523	0.8418	0.4442	-0.933
Mof_Ga	Ga	0.3199	0.2821	0.0381	4.278
Mof_Ga	Ga	0.1634	0.326	0.8512	4.309
Mof_Ga	Ga	0.351	0.0943	0.0036	4.182
Mof_P 	P 	0.1405	0.4241	0.0164	1.025
Mof_P 	P 	0.3495	0.1683	0.1845	1.071
Mof_P 	P 	0.1204	0.183	0.9372	0.959
Mof_F 	F 	0.3267	0.3142	0.9193	-1.392
Mof_F 	F 	0.4156	0.1961	0.0014	-1.495
Mof_O 	O 	0.0011	0.4334	0.0555	-1.14
Mof_O 	O 	0.214	0.4963	0.0198	-0.99
Mof_O 	O 	0.1208	0.401	0.9232	-1.286
Mof_O 	O 	0.2154	0.3668	0.0686	-0.992
Mof_O 	O 	0.2648	0.1462	0.2606	-1.103
Mof_O 	O 	0.3164	0.2454	0.1546	-1.056
Mof_O 	O 	0.3139	0.11	0.118	-1.126
Mof_O 	O 	0.495	0.1618	0.2105	-1.009
Mof_O 	O 	0.2086	0.1145	0.9314	-1.035
Mof_O 	O 	0.1403	0.2258	0.8538	-1.145
Mof_O 	O 	0.1569	0.2292	0.0142	-1.134
Mof_O 	O 	0.977	0.1582	0.9442	-0.941
Mof_Ga	Ga	0.8199	0.2179	0.9619	4.291
Mof_Ga	Ga	0.6634	0.174	0.1488	4.29
Mof_Ga	Ga	0.851	0.4057	0.9964	4.244
Mof_P 	P 	0.6405	0.0759	0.9836	1.034
Mof_P 	P 	0.8495	0.3317	0.8155	1.074
Mof_P 	P 	0.6204	0.317	0.0628	0.941
Mof_F 	F 	0.8267	0.1858	0.0807	-1.395
Mof_F 	F 	0.9156	0.3039	0.9986	-1.502
Mof_O 	O 	0.5011	0.0666	0.9445	-1.117
Mof_O 	O 	0.714	0.0037	0.9802	-0.977
Mof_O 	O 	0.6208	0.099	0.0768	-1.296
Mof_O 	O 	0.7154	0.1332	0.9314	-0.992
Mof_O 	O 	0.7648	0.3538	0.7394	-1.104
Mof_O 	O 	0.8164	0.2546	0.8454	-1.059
Mof_O 	O 	0.8139	0.39	0.882	-1.134
Mof_O 	O 	0.995	0.3382	0.7895	-1.017
Mof_O 	O 	0.7086	0.3855	0.0686	-1.049
Mof_O 	O 	0.6403	0.2742	0.1462	-1.142
Mof_O 	O 	0.6569	0.2708	0.9858	-1.121
Mof_O 	O 	0.477	0.3418	0.0558	-0.932
Mof_Ga	Ga	0.6801	0.7821	0.4619	4.283
Mof_Ga	Ga	0.8366	0.826	0.6488	4.282
Mof_Ga	Ga	0.649	0.5943	0.4964	4.238
Mof_P 	P 	0.8595	0.9241	0.4836	1.028
Mof_P 	P 	0.6505	0.6683	0.3155	1.074
Mof_P 	P 	0.8796	0.683	0.5628	0.941
Mof_F 	F 	0.6733	0.8142	0.5807	-1.395
Mof_F 	F 	0.5844	0.6961	0.4986	-1.5
Mof_O 	O 	0.9989	0.9334	0.4445	-1.133
Mof_O 	O 	0.786	0.9963	0.4802	-0.99
Mof_O 	O 	0.8792	0.901	0.5768	-1.292
Mof_O 	O 	0.7846	0.8668	0.4314	-0.991
Mof_O 	O 	0.7352	0.6462	0.2394	-1.105
Mof_O 	O 	0.6836	0.7454	0.3454	-1.056
Mof_O 	O 	0.6861	0.61	0.382	-1.131
Mof_O 	O 	0.505	0.6618	0.2895	-1.009
Mof_O 	O 	0.7914	0.6145	0.5686	-1.052
Mof_O 	O 	0.8597	0.7258	0.6462	-1.143
Mof_O 	O 	0.8431	0.7292	0.4858	-1.124
Mof_O 	O 	0.023	0.6582	0.5558	-0.934
Mof_Ga	Ga	0.8199	0.2821	0.4619	4.283
Mof_Ga	Ga	0.6634	0.326	0.6488	4.292
Mof_Ga	Ga	0.851	0.0943	0.4964	4.232
Mof_P 	P 	0.6405	0.4241	0.4836	1.029
Mof_P 	P 	0.8495	0.1683	0.3155	1.072
Mof_P 	P 	0.6204	0.183	0.5628	0.942
Mof_F 	F 	0.8267	0.3142	0.5807	-1.396
Mof_F 	F 	0.9156	0.1961	0.4986	-1.5
Mof_O 	O 	0.5011	0.4334	0.4445	-1.134
Mof_O 	O 	0.714	0.4963	0.4802	-0.991
Mof_O 	O 	0.6208	0.401	0.5768	-1.292
Mof_O 	O 	0.7154	0.3668	0.4314	-0.992
Mof_O 	O 	0.7648	0.1462	0.2394	-1.103
Mof_O 	O 	0.8164	0.2454	0.3454	-1.056
Mof_O 	O 	0.8139	0.11	0.382	-1.131
Mof_O 	O 	0.995	0.1618	0.2895	-1.007
Mof_O 	O 	0.7086	0.1145	0.5686	-1.051
Mof_O 	O 	0.6403	0.2258	0.6462	-1.143
Mof_O 	O 	0.6569	0.2292	0.4858	-1.125
Mof_O 	O 	0.477	0.1582	0.5558	-0.933
Mof_Ga	Ga	0.6801	0.7179	0.9619	4.278
Mof_Ga	Ga	0.8366	0.674	0.1488	4.309
Mof_Ga	Ga	0.649	0.9057	0.9964	4.182
Mof_P 	P 	0.8595	0.5759	0.9836	1.025
Mof_P 	P 	0.6505	0.8317	0.8155	1.071
Mof_P 	P 	0.8796	0.817	0.0628	0.959
Mof_F 	F 	0.6733	0.6858	0.0807	-1.392
Mof_F 	F 	0.5844	0.8039	0.9986	-1.495
Mof_O 	O 	0.9989	0.5666	0.9445	-1.14
Mof_O 	O 	0.786	0.5037	0.9802	-0.99
Mof_O 	O 	0.8792	0.599	0.0768	-1.286
Mof_O 	O 	0.7846	0.6332	0.9314	-0.992
Mof_O 	O 	0.7352	0.8538	0.7394	-1.103
Mof_O 	O 	0.6836	0.7546	0.8454	-1.056
Mof_O 	O 	0.6861	0.89	0.882	-1.126
Mof_O 	O 	0.505	0.8382	0.7895	-1.009
Mof_O 	O 	0.7914	0.8855	0.0686	-1.035
Mof_O 	O 	0.8597	0.7742	0.1462	-1.145
Mof_O 	O 	0.8431	0.7708	0.9858	-1.134
Mof_O 	O 	0.023	0.8418	0.0558	-0.941
Mof_Ga	Ga	0.1801	0.7821	0.0381	4.291
Mof_Ga	Ga	0.3366	0.826	0.8512	4.29
Mof_Ga	Ga	0.149	0.5943	0.0036	4.244
Mof_P 	P 	0.3595	0.9241	0.0164	1.034
Mof_P 	P 	0.1505	0.6683	0.1845	1.074
Mof_P 	P 	0.3796	0.683	0.9372	0.941
Mof_F 	F 	0.1733	0.8142	0.9193	-1.395
Mof_F 	F 	0.0844	0.6961	0.0014	-1.502
Mof_O 	O 	0.4989	0.9334	0.0555	-1.117
Mof_O 	O 	0.286	0.9963	0.0198	-0.977
Mof_O 	O 	0.3792	0.901	0.9232	-1.296
Mof_O 	O 	0.2846	0.8668	0.0686	-0.992
Mof_O 	O 	0.2352	0.6462	0.2606	-1.104
Mof_O 	O 	0.1836	0.7454	0.1546	-1.059
Mof_O 	O 	0.1861	0.61	0.118	-1.134
Mof_O 	O 	0.005	0.6618	0.2105	-1.017
Mof_O 	O 	0.2914	0.6145	0.9314	-1.049
Mof_O 	O 	0.3597	0.7258	0.8538	-1.142
Mof_O 	O 	0.3431	0.7292	0.0142	-1.121
Mof_O 	O 	0.523	0.6582	0.9442	-0.932
Mof_Ga	Ga	0.3199	0.2179	0.5381	4.283
Mof_Ga	Ga	0.1634	0.174	0.3512	4.282
Mof_Ga	Ga	0.351	0.4057	0.5036	4.238
Mof_P 	P 	0.1405	0.0759	0.5164	1.028
Mof_P 	P 	0.3495	0.3317	0.6845	1.074
Mof_P 	P 	0.1204	0.317	0.4372	0.941
Mof_F 	F 	0.3267	0.1858	0.4193	-1.395
Mof_F 	F 	0.4156	0.3039	0.5014	-1.5
Mof_O 	O 	0.0011	0.0666	0.5555	-1.133
Mof_O 	O 	0.214	0.0037	0.5198	-0.99
Mof_O 	O 	0.1208	0.099	0.4232	-1.292
Mof_O 	O 	0.2154	0.1332	0.5686	-0.991
Mof_O 	O 	0.2648	0.3538	0.7606	-1.105
Mof_O 	O 	0.3164	0.2546	0.6546	-1.056
Mof_O 	O 	0.3139	0.39	0.618	-1.131
Mof_O 	O 	0.495	0.3382	0.7105	-1.009
Mof_O 	O 	0.2086	0.3855	0.4314	-1.052
Mof_O 	O 	0.1403	0.2742	0.3538	-1.143
Mof_O 	O 	0.1569	0.2708	0.5142	-1.124
Mof_O 	O 	0.977	0.3418	0.4442	-0.934
_end
