data_functionalizedCrystal
_audit_creation_method	'EQeq! by Chris Wilmer'
_symmetry_space_group_name_H-M	'P1'
_symmetry_Int_Tables_number	1
_symmetry_cell_setting	triclinic
loop_
_symmetry_equiv_pos_as_xyz
  x,y,z
_cell_length_a	10.5783
_cell_length_b	10.4271
_cell_length_c	16.921
_cell_angle_alpha	83.158
_cell_angle_beta	76.314
_cell_angle_gamma	70.023
loop_
_atom_site_label
_atom_site_type_symbol
_atom_site_fract_x
_atom_site_fract_y
_atom_site_fract_z
_atom_site_charge
Mof_Ce	Ce	0.37416	0.89457	0.98179	2.821
Mof_O 	O 	0.1663	0.9559	0.75827	-1.403
Mof_H 	H 	0.128	0.996	0.785	0.974
Mof_O 	O 	0.3076	0.9115	0.84407	-0.731
Mof_O 	O 	0.7793	0.2206	0.9244	-0.577
Mof_O 	O 	0.9928	0.1014	0.86819	-0.469
Mof_O 	O 	0.4035	0.1559	0.11215	-0.635
Mof_O 	O 	0.2944	0.0056	0.11323	-0.612
Mof_O 	O 	0.5869	0.8894	0.06084	-0.717
Mof_O 	O 	0.5304	0.7065	0.05623	-0.57
Mof_C 	C 	0.6851	0.5466	0.5318	-0.049
Mof_C 	C 	0.788	0.422	0.5445	-0.009
Mof_C 	C 	0.8783	0.3559	0.4761	-0.07
Mof_H 	H 	0.9468	0.2744	0.4841	0.055
Mof_C 	C 	0.8719	0.405	0.3961	-0.005
Mof_C 	C 	0.7665	0.5273	0.3837	-0.041
Mof_C 	C 	0.6767	0.5942	0.4522	-0.037
Mof_H 	H 	0.6074	0.6751	0.4441	0.044
Mof_C 	C 	0.5844	0.6329	0.5978	0.156
Mof_C 	C 	0.6229	0.6703	0.6632	-0.254
Mof_H 	H 	0.7148	0.6375	0.6672	0.124
Mof_C 	C 	0.5271	0.7546	0.7215	0.223
Mof_H 	H 	0.5543	0.777	0.765	-0.057
Mof_C 	C 	0.389	0.8064	0.7155	-0.361
Mof_C 	C 	0.3491	0.7725	0.6502	0.226
Mof_H 	H 	0.2577	0.8082	0.6452	-0.004
Mof_C 	C 	0.4454	0.6859	0.5928	-0.249
Mof_H 	H 	0.4175	0.6622	0.55	0.121
Mof_C 	C 	0.2846	0.8964	0.7789	0.854
Mof_C 	C 	0.8078	0.3591	0.6268	0.098
Mof_C 	C 	0.6981	0.35	0.6893	-0.179
Mof_H 	H 	0.6094	0.3805	0.6796	0.097
Mof_C 	C 	0.7195	0.296	0.7656	0.121
Mof_H 	H 	0.6447	0.2944	0.8073	-0.012
Mof_C 	C 	0.8521	0.2439	0.7806	-0.201
Mof_C 	C 	0.962	0.2501	0.718	0.096
Mof_H 	H 	0.0512	0.2151	0.7269	0.005
Mof_C 	C 	0.9394	0.3081	0.6426	-0.174
Mof_H 	H 	0.0139	0.313	0.6016	0.099
Mof_C 	C 	0.8761	0.184	0.8632	0.466
Mof_C 	C 	0.9803	0.3285	0.32844	0.076
Mof_C 	C 	0.0188	0.1861	0.3271	-0.136
Mof_H 	H 	0.9752	0.1386	0.3683	0.091
Mof_C 	C 	0.1206	0.1155	0.2653	0.108
Mof_H 	H 	0.1414	0.0216	0.2634	0.006
Mof_C 	C 	0.1925	0.184	0.2057	-0.22
Mof_C 	C 	0.1575	0.3246	0.2077	0.115
Mof_H 	H 	0.2058	0.371	0.1687	-0.009
Mof_C 	C 	0.0509	0.3965	0.2676	-0.164
Mof_H 	H 	0.0262	0.4912	0.2672	0.091
Mof_C 	C 	0.3059	0.1087	0.13871	0.549
Mof_C 	C 	0.7358	0.587	0.3026	0.122
Mof_C 	C 	0.7345	0.5063	0.2425	-0.207
Mof_H 	H 	0.7654	0.4117	0.2497	0.109
Mof_C 	C 	0.6882	0.5649	0.173	0.141
Mof_H 	H 	0.6843	0.5096	0.135	-0.026
Mof_C 	C 	0.6467	0.7071	0.1589	-0.244
Mof_C 	C 	0.6532	0.7879	0.2174	0.143
Mof_H 	H 	0.6289	0.8821	0.2084	-0.029
Mof_C 	C 	0.6953	0.7288	0.2882	-0.211
Mof_H 	H 	0.6967	0.784	0.327	0.109
Mof_C 	C 	0.586	0.7707	0.0871	0.51
Mof_O 	O 	0.1323	0.0673	0.98932	-1.35
Mof_H 	H 	0.12	0.15	0.969	0.513
Mof_H 	H 	0.066	0.066	0.031	0.654
Mof_O 	O 	0.13	0.3531	0.0152	-0.028
Mof_H 	H 	0.097	0.066	0.948	0.373
Mof_C 	C 	0.0329	0.1709	0.0412	-0.794
Mof_H 	H 	0.0465	0.1482	0.0965	0.223
Mof_H 	H 	0.9416	0.1702	0.0406	0.155
Mof_C 	C 	0.0387	0.3107	0.0182	0.407
Mof_H 	H 	0.127	0.3139	0.0213	-0.476
Mof_H 	H 	0.968	0.3742	0.0548	-0.124
Mof_H 	H 	0.0248	0.3346	0.9636	-0.124
Mof_H 	H 	0.1458	0.2704	0.0155	0.378
Mof_C 	C 	0.0254	0.4138	0.9866	-0.039
Mof_H 	H 	0.949	0.3815	0.0125	-0.02
Mof_H 	H 	0.0436	0.406	0.9281	0.006
Mof_C 	C 	-8.21519e-18	0.562	0.01	-0.142
Mof_H 	H 	0.9849	0.6234	0.9636	0.085
Mof_H 	H 	0.0789	0.5654	0.0273	0.098
Mof_H 	H 	0.9206	0.5885	0.0535	0.114
Mof_Ce	Ce	0.62584	0.10543	0.01821	2.823
Mof_O 	O 	0.8337	0.0441	0.24173	-1.403
Mof_H 	H 	0.872	0.004	0.215	0.972
Mof_O 	O 	0.6924	0.0885	0.15593	-0.731
Mof_O 	O 	0.2207	0.7794	0.0756	-0.576
Mof_O 	O 	0.0072	0.8986	0.13181	-0.464
Mof_O 	O 	0.5965	0.8441	0.88785	-0.637
Mof_O 	O 	0.7056	0.9944	0.88677	-0.615
Mof_O 	O 	0.4131	0.1106	0.93916	-0.716
Mof_O 	O 	0.4696	0.2935	0.94377	-0.57
Mof_C 	C 	0.3149	0.4534	0.4682	-0.045
Mof_C 	C 	0.212	0.578	0.4555	-0.012
Mof_C 	C 	0.1217	0.6441	0.5239	-0.06
Mof_H 	H 	0.0532	0.7256	0.5159	0.053
Mof_C 	C 	0.1281	0.595	0.6039	-0.022
Mof_C 	C 	0.2335	0.4727	0.6163	-0.032
Mof_C 	C 	0.3233	0.4058	0.5478	-0.042
Mof_H 	H 	0.3926	0.3249	0.5559	0.046
Mof_C 	C 	0.4156	0.3671	0.4022	0.155
Mof_C 	C 	0.3771	0.3297	0.3368	-0.253
Mof_H 	H 	0.2852	0.3625	0.3328	0.124
Mof_C 	C 	0.4729	0.2454	0.2785	0.223
Mof_H 	H 	0.4457	0.223	0.235	-0.056
Mof_C 	C 	0.611	0.1936	0.2845	-0.361
Mof_C 	C 	0.6509	0.2275	0.3498	0.226
Mof_H 	H 	0.7423	0.1918	0.3548	-0.004
Mof_C 	C 	0.5546	0.3141	0.4072	-0.248
Mof_H 	H 	0.5825	0.3378	0.45	0.121
Mof_C 	C 	0.7154	0.1036	0.2211	0.854
Mof_C 	C 	0.1922	0.6409	0.3732	0.096
Mof_C 	C 	0.3019	0.65	0.3107	-0.179
Mof_H 	H 	0.3906	0.6195	0.3204	0.097
Mof_C 	C 	0.2805	0.704	0.2344	0.122
Mof_H 	H 	0.3553	0.7056	0.1927	-0.012
Mof_C 	C 	0.1479	0.7561	0.2194	-0.204
Mof_C 	C 	0.038	0.7499	0.282	0.107
Mof_H 	H 	0.9488	0.7849	0.2731	-0.004
Mof_C 	C 	0.0606	0.6919	0.3574	-0.164
Mof_H 	H 	0.9861	0.687	0.3984	0.09
Mof_C 	C 	0.1239	0.816	0.1368	0.467
Mof_C 	C 	0.0197	0.6715	0.67156	0.122
Mof_C 	C 	0.9812	0.8139	0.6729	-0.195
Mof_H 	H 	0.0248	0.8614	0.6317	0.117
Mof_C 	C 	0.8794	0.8845	0.7347	0.146
Mof_H 	H 	0.8586	0.9784	0.7366	-0.008
Mof_C 	C 	0.8075	0.816	0.7943	-0.245
Mof_C 	C 	0.8425	0.6754	0.7923	0.145
Mof_H 	H 	0.7942	0.629	0.8313	-0.02
Mof_C 	C 	0.9491	0.6035	0.7324	-0.206
Mof_H 	H 	0.9738	0.5088	0.7328	0.103
Mof_C 	C 	0.6941	0.8913	0.86129	0.558
Mof_C 	C 	0.2642	0.413	0.6974	0.119
Mof_C 	C 	0.2655	0.4937	0.7575	-0.204
Mof_H 	H 	0.2346	0.5883	0.7503	0.109
Mof_C 	C 	0.3118	0.4351	0.827	0.139
Mof_H 	H 	0.3157	0.4904	0.865	-0.025
Mof_C 	C 	0.3533	0.2929	0.8411	-0.242
Mof_C 	C 	0.3468	0.2121	0.7826	0.141
Mof_H 	H 	0.3711	0.1179	0.7916	-0.028
Mof_C 	C 	0.3047	0.2712	0.7118	-0.207
Mof_H 	H 	0.3033	0.216	0.673	0.108
Mof_C 	C 	0.414	0.2293	0.9129	0.51
Mof_O 	O 	0.8677	0.9327	0.01068	-1.346
Mof_H 	H 	0.88	0.85	0.031	0.512
Mof_H 	H 	0.934	0.934	0.969	0.651
Mof_O 	O 	0.87	0.6469	0.9848	-0.024
Mof_H 	H 	0.903	0.934	0.052	0.369
Mof_C 	C 	0.9671	0.8291	0.9588	-0.799
Mof_H 	H 	0.9535	0.8518	0.9035	0.222
Mof_H 	H 	0.0584	0.8298	0.9594	0.161
Mof_C 	C 	0.9613	0.6893	0.9818	0.384
Mof_H 	H 	0.873	0.6861	0.9787	-0.477
Mof_H 	H 	0.032	0.6258	0.9452	-0.111
Mof_H 	H 	0.9752	0.6654	0.0364	-0.116
Mof_H 	H 	0.8542	0.7296	0.9845	0.382
Mof_C 	C 	0.9746	0.5862	0.0134	-0.043
Mof_H 	H 	0.051	0.6185	0.9875	-0.012
Mof_H 	H 	0.9564	0.594	0.0719	-0.005
Mof_C 	C 	-1.0432e-16	0.438	0.99	-0.128
Mof_H 	H 	0.0151	0.3766	0.0364	0.087
Mof_H 	H 	0.9211	0.4346	0.9727	0.092
Mof_H 	H 	0.0794	0.4115	0.9465	0.101
_end
