data_functionalizedCrystal
_audit_creation_method	'EQeq! by Chris Wilmer'
_symmetry_space_group_name_H-M	'P1'
_symmetry_Int_Tables_number	1
_symmetry_cell_setting	triclinic
loop_
_symmetry_equiv_pos_as_xyz
  x,y,z
_cell_length_a	9.6008
_cell_length_b	11.5422
_cell_length_c	14.2886
_cell_angle_alpha	90
_cell_angle_beta	122.46
_cell_angle_gamma	90
loop_
_atom_site_label
_atom_site_type_symbol
_atom_site_fract_x
_atom_site_fract_y
_atom_site_fract_z
_atom_site_charge
Mof_Y 	Y 	0.6177	0.98846	0.33257	1.518
Mof_O 	O 	0.7049	0.7899	0.34286	-0.32
Mof_O 	O 	0.6167	0.60733	0.295	-0.316
Mof_O 	O 	0.3054	0.68334	0.17013	-0.331
Mof_O 	O 	0.3959	0.86535	0.20743	-0.332
Mof_O 	O 	0.5198	0.88268	0.4319	-0.324
Mof_O 	O 	0.4613	0.88762	0.5633	-0.313
Mof_O 	O 	0.8892	0.99123	0.3564	-0.319
Mof_O 	O 	0.1611	0.01036	0.47848	-0.328
Mof_C 	C 	0.596	0.7148	0.2919	0.253
Mof_C 	C 	0.4163	0.7587	0.2166	0.271
Mof_C 	C 	0.4947	0.9335	0.4984	0.269
Mof_C 	C 	0.0151	0.0005	0.4524	0.27
Mof_Y 	Y 	0.3823	0.48846	0.16743	1.519
Mof_O 	O 	0.2951	0.2899	0.15714	-0.318
Mof_O 	O 	0.3833	0.10733	0.205	-0.315
Mof_O 	O 	0.6946	0.18334	0.32987	-0.33
Mof_O 	O 	0.6041	0.36535	0.29257	-0.332
Mof_O 	O 	0.4802	0.38268	0.0681	-0.324
Mof_O 	O 	0.5387	0.38762	0.9367	-0.314
Mof_O 	O 	0.1108	0.49123	0.1436	-0.318
Mof_O 	O 	0.8389	0.51036	0.02152	-0.328
Mof_C 	C 	0.404	0.2148	0.2081	0.253
Mof_C 	C 	0.5837	0.2587	0.2834	0.271
Mof_C 	C 	0.5053	0.4335	0.0016	0.268
Mof_C 	C 	0.9849	0.5005	0.0476	0.269
Mof_Y 	Y 	0.3823	0.01154	0.66743	1.519
Mof_O 	O 	0.2951	0.2101	0.65714	-0.319
Mof_O 	O 	0.3833	0.39267	0.705	-0.316
Mof_O 	O 	0.6946	0.31666	0.82987	-0.331
Mof_O 	O 	0.6041	0.13465	0.79257	-0.332
Mof_O 	O 	0.4802	0.11732	0.5681	-0.324
Mof_O 	O 	0.5387	0.11238	0.4367	-0.313
Mof_O 	O 	0.1108	0.00877	0.6436	-0.319
Mof_O 	O 	0.8389	0.98964	0.52152	-0.328
Mof_C 	C 	0.404	0.2852	0.7081	0.253
Mof_C 	C 	0.5837	0.2413	0.7834	0.271
Mof_C 	C 	0.5053	0.0665	0.5016	0.269
Mof_C 	C 	0.9849	0.9995	0.5476	0.27
Mof_Y 	Y 	0.6177	0.51154	0.83257	1.519
Mof_O 	O 	0.7049	0.7101	0.84286	-0.318
Mof_O 	O 	0.6167	0.89267	0.795	-0.315
Mof_O 	O 	0.3054	0.81666	0.67013	-0.33
Mof_O 	O 	0.3959	0.63465	0.70743	-0.332
Mof_O 	O 	0.5198	0.61732	0.9319	-0.324
Mof_O 	O 	0.4613	0.61238	0.0633	-0.314
Mof_O 	O 	0.8892	0.50877	0.8564	-0.318
Mof_O 	O 	0.1611	0.48964	0.97848	-0.328
Mof_C 	C 	0.596	0.7852	0.7919	0.253
Mof_C 	C 	0.4163	0.7413	0.7166	0.271
Mof_C 	C 	0.4947	0.5665	0.9984	0.268
Mof_C 	C 	0.0151	0.4995	0.9524	0.269
_end
