data_functionalizedCrystal
_audit_creation_method	'EQeq! by Chris Wilmer'
_symmetry_space_group_name_H-M	'P1'
_symmetry_Int_Tables_number	1
_symmetry_cell_setting	triclinic
loop_
_symmetry_equiv_pos_as_xyz
  x,y,z
_cell_length_a	13.644
_cell_length_b	15.3339
_cell_length_c	15.3339
_cell_angle_alpha	99.1727
_cell_angle_beta	102.332
_cell_angle_gamma	77.6685
loop_
_atom_site_label
_atom_site_type_symbol
_atom_site_fract_x
_atom_site_fract_y
_atom_site_fract_z
_atom_site_charge
Mof_Co	Co	0.5	0.5	-0	1.143
Mof_Co	Co	4.67475e-18	9.34949e-18	0.5	1.136
Mof_Co	Co	0.25	0.81207	0.81207	1.127
Mof_Co	Co	0.75	0.18793	0.18793	1.113
Mof_H 	H 	0.1812	0.7944	0.6094	-0.031
Mof_H 	H 	0.2365	0.7532	0.478	0.118
Mof_H 	H 	0.7039	0.3715	0.9845	0.067
Mof_H 	H 	0.5012	0.7053	0.2959	0.104
Mof_H 	H 	0.6555	0.6307	0.0429	0.013
Mof_H 	H 	0.4787	0.4271	0.1663	-0.013
Mof_H 	H 	0.5272	0.6594	0.1512	-0.008
Mof_H 	H 	0.5173	0.5937	0.4573	0.068
Mof_H 	H 	0.4025	0.5863	0.4231	0.069
Mof_H 	H 	0.8709	0.3642	0.0046	0.053
Mof_H 	H 	0.5198	0.7199	0.6141	0.113
Mof_H 	H 	0.4529	0.4635	0.3105	0.099
Mof_H 	H 	0.4546	0.7598	0.7444	-0.011
Mof_H 	H 	0.4833	0.7426	0.4508	0.086
Mof_H 	H 	0.3721	0.7397	0.3981	0.091
Mof_H 	H 	0.8264	0.6312	0.0664	0.079
Mof_H 	H 	0.0002	0.5499	0.0867	0.016
Mof_H 	H 	0.024	0.4446	0.0706	0.016
Mof_H 	H 	0.3188	0.6094	0.7944	-0.028
Mof_H 	H 	0.2635	0.478	0.7532	0.115
Mof_H 	H 	0.7961	0.9845	0.3715	0.06
Mof_H 	H 	0.9988	0.2959	0.7053	0.15
Mof_H 	H 	0.8445	0.0429	0.6307	0.007
Mof_H 	H 	0.0213	0.1663	0.4271	-0.027
Mof_H 	H 	0.9728	0.1512	0.6594	-0.032
Mof_H 	H 	0.9827	0.4573	0.5937	0.104
Mof_H 	H 	0.0975	0.4231	0.5863	0.094
Mof_H 	H 	0.6291	0.0046	0.3642	0.067
Mof_H 	H 	0.9802	0.6141	0.7199	0.127
Mof_H 	H 	0.0471	0.3105	0.4635	0.114
Mof_H 	H 	0.0454	0.7444	0.7598	-0.018
Mof_H 	H 	0.0167	0.4508	0.7426	0.063
Mof_H 	H 	0.1279	0.3981	0.7397	0.074
Mof_H 	H 	0.6736	0.0664	0.6312	0.091
Mof_H 	H 	0.4998	0.0867	0.5499	0.076
Mof_H 	H 	0.476	0.0706	0.4446	0.076
Mof_H 	H 	0.8188	0.2056	0.3906	-0.027
Mof_H 	H 	0.7635	0.2468	0.522	0.12
Mof_H 	H 	0.2961	0.6285	0.0155	-0.07
Mof_H 	H 	0.4988	0.2947	0.7041	0.1
Mof_H 	H 	0.3445	0.3693	0.9571	-0.002
Mof_H 	H 	0.5213	0.5729	0.8337	-0.004
Mof_H 	H 	0.4728	0.3406	0.8488	-0.002
Mof_H 	H 	0.4827	0.4063	0.5427	0.067
Mof_H 	H 	0.5975	0.4137	0.5769	0.072
Mof_H 	H 	0.1291	0.6358	0.9954	0.145
Mof_H 	H 	0.4802	0.2801	0.3859	0.106
Mof_H 	H 	0.5471	0.5365	0.6895	0.101
Mof_H 	H 	0.5454	0.2402	0.2556	-0.022
Mof_H 	H 	0.5167	0.2574	0.5492	0.082
Mof_H 	H 	0.6279	0.2603	0.6019	0.091
Mof_H 	H 	0.1736	0.3688	0.9336	0.121
Mof_H 	H 	0.9998	0.4501	0.9133	0.135
Mof_H 	H 	0.976	0.5554	0.9294	0.139
Mof_H 	H 	0.6812	0.3906	0.2056	-0.03
Mof_H 	H 	0.7365	0.522	0.2468	0.121
Mof_H 	H 	0.2039	0.0155	0.6285	-0.063
Mof_H 	H 	0.0012	0.7041	0.2947	0.054
Mof_H 	H 	0.1555	0.9571	0.3693	0.004
Mof_H 	H 	0.9787	0.8337	0.5729	0.01
Mof_H 	H 	0.0272	0.8488	0.3406	0.021
Mof_H 	H 	0.0173	0.5427	0.4063	0.03
Mof_H 	H 	0.9025	0.5769	0.4137	0.047
Mof_H 	H 	0.3709	0.9954	0.6358	0.131
Mof_H 	H 	0.0198	0.3859	0.2801	0.089
Mof_H 	H 	0.9529	0.6895	0.5365	0.086
Mof_H 	H 	0.9546	0.2556	0.2402	-0.014
Mof_H 	H 	0.9833	0.5492	0.2574	0.105
Mof_H 	H 	0.8721	0.6019	0.2603	0.108
Mof_H 	H 	0.3264	0.9336	0.3688	0.108
Mof_H 	H 	0.5002	0.9133	0.4501	0.079
Mof_H 	H 	0.524	0.9294	0.5554	0.084
Mof_C 	C 	0.2512	0.7775	0.6113	0.161
Mof_C 	C 	0.2833	0.7548	0.5318	-0.257
Mof_C 	C 	0.475	0.5916	0.3216	0.153
Mof_C 	C 	0.7292	0.4245	0.0025	-0.011
Mof_C 	C 	0.3865	0.734	0.5318	0.2
Mof_C 	C 	0.4958	0.6468	0.271	-0.208
Mof_C 	C 	0.7003	0.576	0.0368	0.072
Mof_C 	C 	0.4815	0.4858	0.1924	0.127
Mof_C 	C 	0.5096	0.6196	0.1824	0.117
Mof_C 	C 	0.4556	0.6167	0.4165	-0.152
Mof_C 	C 	0.8289	0.4202	0.0126	-0.099
Mof_C 	C 	0.8727	0.4963	0.0343	0.051
Mof_C 	C 	0.4495	0.7348	0.6112	-0.246
Mof_C 	C 	0.4672	0.506	0.2802	-0.214
Mof_C 	C 	0.4095	0.7579	0.6895	0.129
Mof_C 	C 	0.4251	0.7138	0.4448	-0.211
Mof_C 	C 	0.803	0.5772	0.0488	-0.136
Mof_C 	C 	0.9843	0.498	0.045	-0.025
Mof_C 	C 	0.2488	0.6113	0.7775	0.157
Mof_C 	C 	0.2167	0.5318	0.7548	-0.249
Mof_C 	C 	0.025	0.3216	0.5916	0.223
Mof_C 	C 	0.7708	0.0025	0.4245	0.014
Mof_C 	C 	0.1135	0.5318	0.734	0.188
Mof_C 	C 	0.0042	0.271	0.6468	-0.314
Mof_C 	C 	0.7997	0.0368	0.576	0.094
Mof_C 	C 	0.0185	0.1924	0.4858	0.155
Mof_C 	C 	0.9904	0.1824	0.6196	0.196
Mof_C 	C 	0.0444	0.4165	0.6167	-0.243
Mof_C 	C 	0.6711	0.0126	0.4202	-0.146
Mof_C 	C 	0.6273	0.0343	0.4963	0.118
Mof_C 	C 	0.0505	0.6112	0.7348	-0.266
Mof_C 	C 	0.0328	0.2802	0.506	-0.266
Mof_C 	C 	0.0905	0.6895	0.7579	0.137
Mof_C 	C 	0.0749	0.4448	0.7138	-0.16
Mof_C 	C 	0.697	0.0488	0.5772	-0.179
Mof_C 	C 	0.5157	0.045	0.498	-0.195
Mof_C 	C 	0.7488	0.2225	0.3887	0.157
Mof_C 	C 	0.7167	0.2452	0.4682	-0.253
Mof_C 	C 	0.525	0.4084	0.6784	0.152
Mof_C 	C 	0.2708	0.5755	0.9975	0.233
Mof_C 	C 	0.6135	0.266	0.4682	0.198
Mof_C 	C 	0.5042	0.3532	0.729	-0.204
Mof_C 	C 	0.2997	0.424	0.9632	0.146
Mof_C 	C 	0.5185	0.5142	0.8076	0.13
Mof_C 	C 	0.4904	0.3804	0.8176	0.115
Mof_C 	C 	0.5444	0.3833	0.5835	-0.152
Mof_C 	C 	0.1711	0.5798	0.9874	-0.305
Mof_C 	C 	0.1273	0.5037	0.9657	0.238
Mof_C 	C 	0.5505	0.2652	0.3888	-0.246
Mof_C 	C 	0.5328	0.494	0.7198	-0.21
Mof_C 	C 	0.5905	0.2421	0.3105	0.127
Mof_C 	C 	0.5749	0.2862	0.5552	-0.209
Mof_C 	C 	0.197	0.4228	0.9512	-0.25
Mof_C 	C 	0.0157	0.502	0.955	-0.32
Mof_C 	C 	0.7512	0.3887	0.2225	0.16
Mof_C 	C 	0.7833	0.4682	0.2452	-0.259
Mof_C 	C 	0.975	0.6784	0.4084	0.083
Mof_C 	C 	0.2292	0.9975	0.5755	0.209
Mof_C 	C 	0.8865	0.4682	0.266	0.208
Mof_C 	C 	0.9958	0.729	0.3532	-0.1
Mof_C 	C 	0.2003	0.9632	0.424	0.124
Mof_C 	C 	0.9815	0.8076	0.5142	0.102
Mof_C 	C 	0.0096	0.8176	0.3804	0.038
Mof_C 	C 	0.9556	0.5835	0.3833	-0.063
Mof_C 	C 	0.3289	0.9874	0.5798	-0.259
Mof_C 	C 	0.3727	0.9657	0.5037	0.173
Mof_C 	C 	0.9495	0.3888	0.2652	-0.22
Mof_C 	C 	0.9672	0.7198	0.494	-0.158
Mof_C 	C 	0.9095	0.3105	0.2421	0.117
Mof_C 	C 	0.9251	0.5552	0.2862	-0.258
Mof_C 	C 	0.303	0.9512	0.4228	-0.209
Mof_C 	C 	0.4843	0.955	0.502	-0.157
Mof_S 	S 	0.4386	0.73021	0.97351	0.842
Mof_S 	S 	0.0614	0.97351	0.73021	0.829
Mof_S 	S 	0.5614	0.26979	0.02649	0.666
Mof_S 	S 	0.9386	0.02649	0.26979	0.682
Mof_N 	N 	0.4984	0.5388	0.142	-0.253
Mof_N 	N 	0.6619	0.502	0.0172	-0.219
Mof_N 	N 	0.3098	0.7778	0.6898	-0.264
Mof_N 	N 	0.0016	0.142	0.5388	-0.28
Mof_N 	N 	0.8381	0.0172	0.502	-0.225
Mof_N 	N 	0.1902	0.6898	0.7778	-0.265
Mof_N 	N 	0.5016	0.4612	0.858	-0.242
Mof_N 	N 	0.3381	0.498	0.9828	-0.258
Mof_N 	N 	0.6902	0.2222	0.3102	-0.267
Mof_N 	N 	0.9984	0.858	0.4612	-0.215
Mof_N 	N 	0.1619	0.9828	0.498	-0.25
Mof_N 	N 	0.8098	0.3102	0.2222	-0.266
Mof_O 	O 	0.3874	0.74779	0.88261	-0.488
Mof_O 	O 	0.4665	0.63336	0.97684	-0.463
Mof_O 	O 	0.3642	0.7672	0.0346	-0.356
Mof_O 	O 	0.5291	0.7694	0.0014	-0.345
Mof_O 	O 	0.1126	0.88261	0.74779	-0.488
Mof_O 	O 	0.0335	0.97684	0.63336	-0.465
Mof_O 	O 	0.1358	0.0346	0.7672	-0.357
Mof_O 	O 	0.9709	0.0014	0.7694	-0.333
Mof_O 	O 	0.6126	0.25221	0.11739	-0.473
Mof_O 	O 	0.5335	0.36664	0.02316	-0.466
Mof_O 	O 	0.6358	0.2328	0.9654	-0.287
Mof_O 	O 	0.4709	0.2306	0.9986	-0.269
Mof_O 	O 	0.8874	0.11739	0.25221	-0.473
Mof_O 	O 	0.9665	0.02316	0.36664	-0.461
Mof_O 	O 	0.8642	0.9654	0.2328	-0.286
Mof_O 	O 	0.0291	0.9986	0.2306	-0.281
_end
