data_functionalizedCrystal
_audit_creation_method	'EQeq! by Chris Wilmer'
_symmetry_space_group_name_H-M	'P1'
_symmetry_Int_Tables_number	1
_symmetry_cell_setting	triclinic
loop_
_symmetry_equiv_pos_as_xyz
  x,y,z
_cell_length_a	15.9346
_cell_length_b	7.4039
_cell_length_c	16.2092
_cell_angle_alpha	90
_cell_angle_beta	111.885
_cell_angle_gamma	90
loop_
_atom_site_label
_atom_site_type_symbol
_atom_site_fract_x
_atom_site_fract_y
_atom_site_fract_z
_atom_site_charge
Mof_P 	P 	0.137	0.2766	0.69	0.553
Mof_P 	P 	0.4166	0.3187	0.6663	0.554
Mof_P 	P 	0.4339	0.2492	0.3893	0.57
Mof_P 	P 	0.2189	0.8323	0.4683	0.526
Mof_O 	O 	0.4106	0.4366	0.4123	-0.512
Mof_O 	O 	0.2811	0.7281	0.4329	-0.487
Mof_O 	O 	0.3571	0.4659	0.6011	-0.664
Mof_O 	O 	0.4637	0.7778	0.56	-0.664
Mof_O 	O 	0.3568	0.2152	0.7036	-0.514
Mof_O 	O 	0.156	0.0964	0.6537	-0.491
Mof_O 	O 	0.1918	0.282	0.7919	-0.662
Mof_O 	O 	0.2778	0.981	0.5337	-0.622
Mof_O 	O 	0.165	0.4385	0.6489	-0.5
Mof_O 	O 	0.1805	0.7102	0.5223	-0.476
Mof_O 	O 	0.4592	0.1998	0.6163	-0.507
Mof_O 	O 	0.3834	0.0995	0.4144	-0.478
Mof_O 	O 	0.411	0.2364	0.2895	-0.445
Mof_O 	O 	0.0363	0.2952	0.6718	-0.445
Mof_O 	O 	0.4913	0.4102	0.7422	-0.437
Mof_O 	O 	0.1436	0.9264	0.3942	-0.41
Mof_Zn	Zn	0.38239	0.5695	0.4991	1.216
Mof_Zn	Zn	0.27152	0.0233	0.65319	1.216
Mof_Zn	Zn	0.24494	0.0741	0.87277	1.214
Mof_Zn	Zn	0.40192	0.014	0.53171	1.214
Mof_Zn	Zn	0.95924	0.1474	0.71148	1.238
Mof_P 	P 	0.363	0.7766	0.81	0.553
Mof_P 	P 	0.0834	0.8187	0.8337	0.554
Mof_P 	P 	0.0661	0.7492	0.1107	0.567
Mof_P 	P 	0.2811	0.3323	0.0317	0.522
Mof_O 	O 	0.0894	0.9366	0.0877	-0.512
Mof_O 	O 	0.2189	0.2281	0.0671	-0.489
Mof_O 	O 	0.1429	0.9659	0.8989	-0.657
Mof_O 	O 	0.0363	0.2778	0.94	-0.662
Mof_O 	O 	0.1432	0.7152	0.7964	-0.512
Mof_O 	O 	0.344	0.5964	0.8463	-0.487
Mof_O 	O 	0.3082	0.782	0.7081	-0.659
Mof_O 	O 	0.2222	0.481	0.9663	-0.622
Mof_O 	O 	0.335	0.9385	0.8511	-0.496
Mof_O 	O 	0.3195	0.2102	0.9777	-0.475
Mof_O 	O 	0.0408	0.6998	0.8837	-0.503
Mof_O 	O 	0.1166	0.5995	0.0856	-0.48
Mof_O 	O 	0.089	0.7364	0.2105	-0.446
Mof_O 	O 	0.4637	0.7952	0.8282	-0.442
Mof_O 	O 	0.0087	0.9102	0.7578	-0.432
Mof_O 	O 	0.3564	0.4264	0.1058	-0.411
Mof_Zn	Zn	0.11761	0.0695	0.0009	1.213
Mof_Zn	Zn	0.22848	0.5233	0.84681	1.218
Mof_Zn	Zn	0.25506	0.5741	0.62723	1.216
Mof_Zn	Zn	0.09808	0.514	0.96829	1.217
Mof_Zn	Zn	0.54076	0.6474	0.78852	1.238
Mof_P 	P 	0.863	0.7234	0.31	0.553
Mof_P 	P 	0.5834	0.6813	0.3337	0.554
Mof_P 	P 	0.5661	0.7508	0.6107	0.57
Mof_P 	P 	0.7811	0.1677	0.5317	0.526
Mof_O 	O 	0.5894	0.5634	0.5877	-0.512
Mof_O 	O 	0.7189	0.2719	0.5671	-0.487
Mof_O 	O 	0.6429	0.5341	0.3989	-0.664
Mof_O 	O 	0.5363	0.2222	0.44	-0.664
Mof_O 	O 	0.6432	0.7848	0.2964	-0.514
Mof_O 	O 	0.844	0.9036	0.3463	-0.491
Mof_O 	O 	0.8082	0.718	0.2081	-0.662
Mof_O 	O 	0.7222	0.019	0.4663	-0.622
Mof_O 	O 	0.835	0.5615	0.3511	-0.5
Mof_O 	O 	0.8195	0.2898	0.4777	-0.476
Mof_O 	O 	0.5408	0.8002	0.3837	-0.507
Mof_O 	O 	0.6166	0.9005	0.5856	-0.478
Mof_O 	O 	0.589	0.7636	0.7105	-0.445
Mof_O 	O 	0.9637	0.7048	0.3282	-0.445
Mof_O 	O 	0.5087	0.5898	0.2578	-0.437
Mof_O 	O 	0.8564	0.0736	0.6058	-0.41
Mof_Zn	Zn	0.61761	0.4305	0.5009	1.216
Mof_Zn	Zn	0.72848	0.9767	0.34681	1.216
Mof_Zn	Zn	0.75506	0.9259	0.12723	1.214
Mof_Zn	Zn	0.59808	0.986	0.46829	1.214
Mof_Zn	Zn	0.04076	0.8526	0.28852	1.238
Mof_P 	P 	0.637	0.2234	0.19	0.553
Mof_P 	P 	0.9166	0.1813	0.1663	0.554
Mof_P 	P 	0.9339	0.2508	0.8893	0.567
Mof_P 	P 	0.7189	0.6677	0.9683	0.522
Mof_O 	O 	0.9106	0.0634	0.9123	-0.512
Mof_O 	O 	0.7811	0.7719	0.9329	-0.489
Mof_O 	O 	0.8571	0.0341	0.1011	-0.657
Mof_O 	O 	0.9637	0.7222	0.06	-0.662
Mof_O 	O 	0.8568	0.2848	0.2036	-0.512
Mof_O 	O 	0.656	0.4036	0.1537	-0.487
Mof_O 	O 	0.6918	0.218	0.2919	-0.659
Mof_O 	O 	0.7778	0.519	0.0337	-0.622
Mof_O 	O 	0.665	0.0615	0.1489	-0.496
Mof_O 	O 	0.6805	0.7898	0.0223	-0.475
Mof_O 	O 	0.9592	0.3002	0.1163	-0.503
Mof_O 	O 	0.8834	0.4005	0.9144	-0.48
Mof_O 	O 	0.911	0.2636	0.7895	-0.446
Mof_O 	O 	0.5363	0.2048	0.1718	-0.442
Mof_O 	O 	0.9913	0.0898	0.2422	-0.432
Mof_O 	O 	0.6436	0.5736	0.8942	-0.411
Mof_Zn	Zn	0.88239	0.9305	0.9991	1.213
Mof_Zn	Zn	0.77152	0.4767	0.15319	1.218
Mof_Zn	Zn	0.74494	0.4259	0.37277	1.216
Mof_Zn	Zn	0.90192	0.486	0.03171	1.217
Mof_Zn	Zn	0.45924	0.3526	0.21148	1.238
_end
