data_functionalizedCrystal
_audit_creation_method	'EQeq! by Chris Wilmer'
_symmetry_space_group_name_H-M	'P1'
_symmetry_Int_Tables_number	1
_symmetry_cell_setting	triclinic
loop_
_symmetry_equiv_pos_as_xyz
  x,y,z
_cell_length_a	14.4562
_cell_length_b	14.9113
_cell_length_c	14.9113
_cell_angle_alpha	108.097
_cell_angle_beta	94.8855
_cell_angle_gamma	85.1145
loop_
_atom_site_label
_atom_site_type_symbol
_atom_site_fract_x
_atom_site_fract_y
_atom_site_fract_z
_atom_site_charge
Mof_Co	Co	0.78418	0.86295	0.26133	1.152
Mof_Co	Co	0.71582	0.26133	0.86295	1.152
Mof_Co	Co	0.21582	0.13705	0.73867	1.152
Mof_Co	Co	0.28418	0.73867	0.13705	1.152
Mof_Co	Co	0.25	0.60808	0.60808	1.149
Mof_Co	Co	0.75	0.39192	0.39192	1.149
Mof_H 	H 	0.823	0.0363	0.0335	0.071
Mof_H 	H 	0.0471	0.8948	0.7734	0.081
Mof_H 	H 	0.1484	0.7987	0.6673	0.011
Mof_H 	H 	0.1431	0.5947	0.7821	0.015
Mof_H 	H 	0.0388	0.6843	0.8899	0.103
Mof_H 	H 	0.8237	0.164	0.5192	0.082
Mof_H 	H 	0.1173	0.0468	0.331	0.072
Mof_H 	H 	0.2395	0.9529	0.2527	0.012
Mof_H 	H 	0.115	0.7217	0.2307	0.018
Mof_H 	H 	0.9893	0.8085	0.3073	0.067
Mof_H 	H 	0.4409	0.3066	0.4998	0.058
Mof_H 	H 	0.308	0.442	0.237	0.076
Mof_H 	H 	0.2804	0.5359	0.1387	0.001
Mof_H 	H 	0.3506	0.7622	0.3454	0.01
Mof_H 	H 	0.3804	0.6745	0.4495	0.074
Mof_H 	H 	0.677	0.0335	0.0363	0.07
Mof_H 	H 	0.4529	0.7734	0.8948	0.082
Mof_H 	H 	0.3516	0.6673	0.7987	0.011
Mof_H 	H 	0.3569	0.7821	0.5947	0.014
Mof_H 	H 	0.4612	0.8899	0.6843	0.104
Mof_H 	H 	0.6763	0.5192	0.164	0.082
Mof_H 	H 	0.3827	0.331	0.0468	0.072
Mof_H 	H 	0.2605	0.2527	0.9529	0.012
Mof_H 	H 	0.385	0.2307	0.7217	0.018
Mof_H 	H 	0.5107	0.3073	0.8085	0.067
Mof_H 	H 	0.0591	0.4998	0.3066	0.058
Mof_H 	H 	0.192	0.237	0.442	0.076
Mof_H 	H 	0.2196	0.1387	0.5359	0.001
Mof_H 	H 	0.1494	0.3454	0.7622	0.009
Mof_H 	H 	0.1196	0.4495	0.6745	0.074
Mof_H 	H 	0.177	0.9637	0.9665	0.071
Mof_H 	H 	0.9529	0.1052	0.2266	0.081
Mof_H 	H 	0.8516	0.2013	0.3327	0.011
Mof_H 	H 	0.8569	0.4053	0.2179	0.015
Mof_H 	H 	0.9612	0.3157	0.1101	0.103
Mof_H 	H 	0.1763	0.836	0.4808	0.082
Mof_H 	H 	0.8827	0.9532	0.669	0.072
Mof_H 	H 	0.7605	0.0471	0.7473	0.012
Mof_H 	H 	0.885	0.2783	0.7693	0.018
Mof_H 	H 	0.0107	0.1915	0.6927	0.067
Mof_H 	H 	0.5591	0.6934	0.5002	0.058
Mof_H 	H 	0.692	0.558	0.763	0.076
Mof_H 	H 	0.7196	0.4641	0.8613	0.001
Mof_H 	H 	0.6494	0.2378	0.6546	0.01
Mof_H 	H 	0.6196	0.3255	0.5505	0.074
Mof_H 	H 	0.323	0.9665	0.9637	0.07
Mof_H 	H 	0.5471	0.2266	0.1052	0.082
Mof_H 	H 	0.6484	0.3327	0.2013	0.011
Mof_H 	H 	0.6431	0.2179	0.4053	0.014
Mof_H 	H 	0.5388	0.1101	0.3157	0.104
Mof_H 	H 	0.3237	0.4808	0.836	0.082
Mof_H 	H 	0.6173	0.669	0.9532	0.072
Mof_H 	H 	0.7395	0.7473	0.0471	0.012
Mof_H 	H 	0.615	0.7693	0.2783	0.018
Mof_H 	H 	0.4893	0.6927	0.1915	0.067
Mof_H 	H 	0.9409	0.5002	0.6934	0.058
Mof_H 	H 	0.808	0.763	0.558	0.076
Mof_H 	H 	0.7804	0.8613	0.4641	0.001
Mof_H 	H 	0.8506	0.6546	0.2378	0.009
Mof_H 	H 	0.8804	0.5505	0.3255	0.074
Mof_C 	C 	0.84471	0.89596	0.12296	0.272
Mof_C 	C 	0.8826	0.90696	0.03724	0.006
Mof_C 	C 	0.86214	0.98243	0.00421	-0.055
Mof_C 	C 	0.96585	0.85881	0.91207	0.026
Mof_C 	C 	0.03055	0.80013	0.84343	0.077
Mof_C 	C 	0.06511	0.83287	0.77605	-0.129
Mof_C 	C 	0.12571	0.77502	0.71296	0.074
Mof_C 	C 	0.12226	0.65613	0.77955	0.077
Mof_C 	C 	0.06045	0.70942	0.84484	-0.129
Mof_C 	C 	0.71111	0.02034	0.40914	0.294
Mof_C 	C 	0.81329	0.0356	0.41734	-0.036
Mof_C 	C 	0.85462	0.11256	0.47476	-0.039
Mof_C 	C 	0.95747	0.9948	0.37186	0.034
Mof_C 	C 	0.03717	0.93788	0.32432	0.05
Mof_C 	C 	0.11456	0.98008	0.30928	-0.115
Mof_C 	C 	0.18713	0.92342	0.26236	0.075
Mof_C 	C 	0.11438	0.78874	0.2495	0.073
Mof_C 	C 	0.03927	0.83996	0.29546	-0.1
Mof_C 	C 	0.36001	0.45325	0.64583	0.301
Mof_C 	C 	0.37934	0.441	0.54524	-0.041
Mof_C 	C 	0.41795	0.36184	0.4842	-0.038
Mof_C 	C 	0.36778	0.48885	0.41765	0.036
Mof_C 	C 	0.34793	0.54828	0.35458	0.056
Mof_C 	C 	0.31746	0.50766	0.2607	-0.12
Mof_C 	C 	0.30126	0.56424	0.20266	0.075
Mof_C 	C 	0.34219	0.69617	0.32311	0.075
Mof_C 	C 	0.36	0.64445	0.38563	-0.11
Mof_C 	C 	0.65529	0.12296	0.89596	0.272
Mof_C 	C 	0.6174	0.03724	0.90696	0.007
Mof_C 	C 	0.63786	0.00421	0.98243	-0.053
Mof_C 	C 	0.53415	0.91207	0.85881	0.025
Mof_C 	C 	0.46945	0.84343	0.80013	0.079
Mof_C 	C 	0.43489	0.77605	0.83287	-0.13
Mof_C 	C 	0.37429	0.71296	0.77502	0.074
Mof_C 	C 	0.37774	0.77955	0.65613	0.078
Mof_C 	C 	0.43955	0.84484	0.70942	-0.13
Mof_C 	C 	0.78889	0.40914	0.02034	0.293
Mof_C 	C 	0.68671	0.41734	0.0356	-0.036
Mof_C 	C 	0.64538	0.47476	0.11256	-0.039
Mof_C 	C 	0.54253	0.37186	0.9948	0.034
Mof_C 	C 	0.46283	0.32432	0.93788	0.051
Mof_C 	C 	0.38544	0.30928	0.98008	-0.116
Mof_C 	C 	0.31287	0.26236	0.92342	0.075
Mof_C 	C 	0.38562	0.2495	0.78874	0.074
Mof_C 	C 	0.46073	0.29546	0.83996	-0.102
Mof_C 	C 	0.13999	0.64583	0.45325	0.301
Mof_C 	C 	0.12066	0.54524	0.441	-0.041
Mof_C 	C 	0.08205	0.4842	0.36184	-0.038
Mof_C 	C 	0.13222	0.41765	0.48885	0.036
Mof_C 	C 	0.15207	0.35458	0.54828	0.056
Mof_C 	C 	0.18254	0.2607	0.50766	-0.12
Mof_C 	C 	0.19874	0.20266	0.56424	0.075
Mof_C 	C 	0.15781	0.32311	0.69617	0.075
Mof_C 	C 	0.14	0.38563	0.64445	-0.11
Mof_C 	C 	0.15529	0.10404	0.87704	0.272
Mof_C 	C 	0.1174	0.09304	0.96276	0.006
Mof_C 	C 	0.13786	0.01757	0.99579	-0.055
Mof_C 	C 	0.03415	0.14119	0.08793	0.026
Mof_C 	C 	0.96945	0.19987	0.15657	0.077
Mof_C 	C 	0.93489	0.16713	0.22395	-0.129
Mof_C 	C 	0.87429	0.22498	0.28704	0.074
Mof_C 	C 	0.87774	0.34387	0.22045	0.077
Mof_C 	C 	0.93955	0.29058	0.15516	-0.129
Mof_C 	C 	0.28889	0.97966	0.59086	0.294
Mof_C 	C 	0.18671	0.9644	0.58266	-0.036
Mof_C 	C 	0.14538	0.88744	0.52524	-0.039
Mof_C 	C 	0.04253	0.0052	0.62814	0.034
Mof_C 	C 	0.96283	0.06212	0.67568	0.05
Mof_C 	C 	0.88544	0.01992	0.69072	-0.115
Mof_C 	C 	0.81287	0.07658	0.73764	0.075
Mof_C 	C 	0.88562	0.21126	0.7505	0.073
Mof_C 	C 	0.96073	0.16004	0.70454	-0.1
Mof_C 	C 	0.63999	0.54675	0.35417	0.301
Mof_C 	C 	0.62066	0.559	0.45476	-0.041
Mof_C 	C 	0.58205	0.63816	0.5158	-0.038
Mof_C 	C 	0.63222	0.51115	0.58235	0.036
Mof_C 	C 	0.65207	0.45172	0.64542	0.056
Mof_C 	C 	0.68254	0.49234	0.7393	-0.12
Mof_C 	C 	0.69874	0.43576	0.79734	0.075
Mof_C 	C 	0.65781	0.30383	0.67689	0.075
Mof_C 	C 	0.64	0.35555	0.61437	-0.11
Mof_C 	C 	0.34471	0.87704	0.10404	0.272
Mof_C 	C 	0.3826	0.96276	0.09304	0.007
Mof_C 	C 	0.36214	0.99579	0.01757	-0.053
Mof_C 	C 	0.46585	0.08793	0.14119	0.025
Mof_C 	C 	0.53055	0.15657	0.19987	0.079
Mof_C 	C 	0.56511	0.22395	0.16713	-0.13
Mof_C 	C 	0.62571	0.28704	0.22498	0.074
Mof_C 	C 	0.62226	0.22045	0.34387	0.078
Mof_C 	C 	0.56045	0.15516	0.29058	-0.13
Mof_C 	C 	0.21111	0.59086	0.97966	0.293
Mof_C 	C 	0.31329	0.58266	0.9644	-0.036
Mof_C 	C 	0.35462	0.52524	0.88744	-0.039
Mof_C 	C 	0.45747	0.62814	0.0052	0.034
Mof_C 	C 	0.53717	0.67568	0.06212	0.051
Mof_C 	C 	0.61456	0.69072	0.01992	-0.116
Mof_C 	C 	0.68713	0.73764	0.07658	0.075
Mof_C 	C 	0.61438	0.7505	0.21126	0.074
Mof_C 	C 	0.53927	0.70454	0.16004	-0.102
Mof_C 	C 	0.86001	0.35417	0.54675	0.301
Mof_C 	C 	0.87934	0.45476	0.559	-0.041
Mof_C 	C 	0.91795	0.5158	0.63816	-0.038
Mof_C 	C 	0.86778	0.58235	0.51115	0.036
Mof_C 	C 	0.84793	0.64542	0.45172	0.056
Mof_C 	C 	0.81746	0.7393	0.49234	-0.12
Mof_C 	C 	0.80126	0.79734	0.43576	0.075
Mof_C 	C 	0.84219	0.67689	0.30383	0.075
Mof_C 	C 	0.86	0.61437	0.35555	-0.11
Mof_S 	S 	0.91624	0.96668	0.90346	0.014
Mof_S 	S 	0.97024	0.10409	0.45591	0.01
Mof_S 	S 	0.41918	0.37607	0.37525	-0.005
Mof_S 	S 	0.58376	0.90346	0.96668	0.012
Mof_S 	S 	0.52976	0.45591	0.10409	0.01
Mof_S 	S 	0.08082	0.37525	0.37607	-0.004
Mof_S 	S 	0.08376	0.03332	0.09654	0.014
Mof_S 	S 	0.02976	0.89591	0.54409	0.01
Mof_S 	S 	0.58082	0.62393	0.62475	-0.005
Mof_S 	S 	0.41624	0.09654	0.03332	0.012
Mof_S 	S 	0.47024	0.54409	0.89591	0.01
Mof_S 	S 	0.91918	0.62475	0.62393	-0.004
Mof_N 	N 	0.94226	0.83703	0.98483	-0.095
Mof_N 	N 	0.15414	0.6868	0.7129	-0.228
Mof_N 	N 	0.87157	0.96821	0.35881	-0.198
Mof_N 	N 	0.18716	0.82879	0.22985	-0.227
Mof_N 	N 	0.35069	0.51318	0.50754	-0.192
Mof_N 	N 	0.3134	0.6575	0.23198	-0.238
Mof_N 	N 	0.55774	0.98483	0.83703	-0.095
Mof_N 	N 	0.34586	0.7129	0.6868	-0.228
Mof_N 	N 	0.62843	0.35881	0.96821	-0.198
Mof_N 	N 	0.31284	0.22985	0.82879	-0.227
Mof_N 	N 	0.14931	0.50754	0.51318	-0.192
Mof_N 	N 	0.1866	0.23198	0.6575	-0.238
Mof_N 	N 	0.05774	0.16297	0.01517	-0.095
Mof_N 	N 	0.84586	0.3132	0.2871	-0.228
Mof_N 	N 	0.12843	0.03179	0.64119	-0.198
Mof_N 	N 	0.81284	0.17121	0.77015	-0.227
Mof_N 	N 	0.64931	0.48682	0.49246	-0.192
Mof_N 	N 	0.6866	0.3425	0.76802	-0.238
Mof_N 	N 	0.44226	0.01517	0.16297	-0.095
Mof_N 	N 	0.65414	0.2871	0.3132	-0.228
Mof_N 	N 	0.37157	0.64119	0.03179	-0.198
Mof_N 	N 	0.68716	0.77015	0.17121	-0.227
Mof_N 	N 	0.85069	0.49246	0.48682	-0.192
Mof_N 	N 	0.8134	0.76802	0.3425	-0.238
Mof_O 	O 	0.87717	0.82779	0.15257	-0.372
Mof_O 	O 	0.78092	0.95231	0.16273	-0.348
Mof_O 	O 	0.68592	0.9454	0.34448	-0.387
Mof_O 	O 	0.6603	0.07948	0.46248	-0.24
Mof_O 	O 	0.30187	0.52219	0.68259	-0.412
Mof_O 	O 	0.3988	0.39784	0.68526	-0.249
Mof_O 	O 	0.62283	0.15257	0.82779	-0.372
Mof_O 	O 	0.71908	0.16273	0.95231	-0.347
Mof_O 	O 	0.81408	0.34448	0.9454	-0.386
Mof_O 	O 	0.8397	0.46248	0.07948	-0.24
Mof_O 	O 	0.19813	0.68259	0.52219	-0.412
Mof_O 	O 	0.1012	0.68526	0.39784	-0.249
Mof_O 	O 	0.12283	0.17221	0.84743	-0.372
Mof_O 	O 	0.21908	0.04769	0.83727	-0.348
Mof_O 	O 	0.31408	0.0546	0.65552	-0.387
Mof_O 	O 	0.3397	0.92052	0.53752	-0.24
Mof_O 	O 	0.69813	0.47781	0.31741	-0.412
Mof_O 	O 	0.6012	0.60216	0.31474	-0.249
Mof_O 	O 	0.37717	0.84743	0.17221	-0.372
Mof_O 	O 	0.28092	0.83727	0.04769	-0.347
Mof_O 	O 	0.18592	0.65552	0.0546	-0.386
Mof_O 	O 	0.1603	0.53752	0.92052	-0.24
Mof_O 	O 	0.80187	0.31741	0.47781	-0.412
Mof_O 	O 	0.8988	0.31474	0.60216	-0.249
_end
