data_functionalizedCrystal
_audit_creation_method	'EQeq! by Chris Wilmer'
_symmetry_space_group_name_H-M	'P1'
_symmetry_Int_Tables_number	1
_symmetry_cell_setting	triclinic
loop_
_symmetry_equiv_pos_as_xyz
  x,y,z
_cell_length_a	15.1902
_cell_length_b	17.5096
_cell_length_c	17.5096
_cell_angle_alpha	90
_cell_angle_beta	90
_cell_angle_gamma	90
loop_
_atom_site_label
_atom_site_type_symbol
_atom_site_fract_x
_atom_site_fract_y
_atom_site_fract_z
_atom_site_charge
Mof_Co	Co	0.96782	0.13965	0.10233	1.18
Mof_Co	Co	0.03218	0.10233	0.86035	1.18
Mof_Co	Co	0.25	0.14943	0.85057	1.177
Mof_Co	Co	0.53218	0.89767	0.86035	1.18
Mof_Co	Co	0.75	0.85057	0.85057	1.177
Mof_Co	Co	0.03218	0.89767	0.13965	1.18
Mof_Co	Co	0.96782	0.86035	0.89767	1.18
Mof_Co	Co	0.46782	0.13965	0.89767	1.18
Mof_Co	Co	0.53218	0.10233	0.13965	1.18
Mof_Co	Co	0.46782	0.86035	0.10233	1.18
Mof_Co	Co	0.25	0.85057	0.14943	1.177
Mof_Co	Co	0.75	0.14943	0.14943	1.177
Mof_H 	H 	0.955	0.6637	0.1303	0.024
Mof_H 	H 	0.2814	0.7678	0.9198	0.191
Mof_H 	H 	0.7737	0.1093	0.9831	-0.017
Mof_H 	H 	0.9059	0.9642	0.2545	-0.01
Mof_H 	H 	0.6583	0.013	0.7348	0.177
Mof_H 	H 	0.2835	0.861	0.3896	0.027
Mof_H 	H 	0.6293	0.6161	0.0424	0.071
Mof_H 	H 	0.1583	0.987	0.7348	0.177
Mof_H 	H 	0.7186	0.9198	0.2322	0.191
Mof_H 	H 	0.455	0.6637	0.8697	0.024
Mof_H 	H 	0.2814	0.2322	0.0802	0.191
Mof_H 	H 	0.078	0.1174	0.4648	0.06
Mof_H 	H 	0.8829	0.7142	0.839	-0.017
Mof_H 	H 	0.7591	0.0032	0.2443	0.169
Mof_H 	H 	0.2409	0.7557	0.0032	0.169
Mof_H 	H 	0.7737	0.8907	0.0169	-0.017
Mof_H 	H 	0.1171	0.161	0.7142	-0.017
Mof_H 	H 	0.7165	0.3896	0.139	0.027
Mof_H 	H 	0.6293	0.3839	0.9576	0.071
Mof_H 	H 	0.7409	0.2443	0.0032	0.169
Mof_H 	H 	0.7263	0.9831	0.1093	-0.017
Mof_H 	H 	0.1293	0.3839	0.0424	0.071
Mof_H 	H 	0.9059	0.0358	0.7455	-0.01
Mof_H 	H 	0.3417	0.7348	0.987	0.177
Mof_H 	H 	0.8707	0.9576	0.3839	0.071
Mof_H 	H 	0.922	0.4648	0.8826	0.06
Mof_H 	H 	0.9137	0.5834	0.8274	0.073
Mof_H 	H 	0.2165	0.3896	0.861	0.027
Mof_H 	H 	0.8829	0.2858	0.161	-0.017
Mof_H 	H 	0.3221	0.1163	0.4821	0.058
Mof_H 	H 	0.455	0.3363	0.1303	0.024
Mof_H 	H 	0.922	0.5352	0.1174	0.06
Mof_H 	H 	0.1293	0.6161	0.9576	0.071
Mof_H 	H 	0.2186	0.9198	0.7678	0.191
Mof_H 	H 	0.2263	0.9831	0.8907	-0.017
Mof_H 	H 	0.7263	0.0169	0.8907	-0.017
Mof_H 	H 	0.0941	0.2545	0.0358	-0.01
Mof_H 	H 	0.3707	0.0424	0.3839	0.071
Mof_H 	H 	0.6171	0.839	0.7142	-0.017
Mof_H 	H 	0.7814	0.2322	0.9198	0.191
Mof_H 	H 	0.5941	0.2545	0.9642	-0.01
Mof_H 	H 	0.3221	0.8837	0.5179	0.058
Mof_H 	H 	0.4059	0.9642	0.7455	-0.01
Mof_H 	H 	0.3829	0.2858	0.839	-0.017
Mof_H 	H 	0.2835	0.139	0.6104	0.027
Mof_H 	H 	0.6171	0.161	0.2858	-0.017
Mof_H 	H 	0.045	0.8697	0.6637	0.024
Mof_H 	H 	0.9137	0.4166	0.1726	0.073
Mof_H 	H 	0.0863	0.1726	0.5834	0.073
Mof_H 	H 	0.3417	0.2652	0.013	0.177
Mof_H 	H 	0.2263	0.0169	0.1093	-0.017
Mof_H 	H 	0.6779	0.4821	0.8837	0.058
Mof_H 	H 	0.8417	0.7348	0.013	0.177
Mof_H 	H 	0.8417	0.2652	0.987	0.177
Mof_H 	H 	0.422	0.4648	0.1174	0.06
Mof_H 	H 	0.3829	0.7142	0.161	-0.017
Mof_H 	H 	0.545	0.1303	0.6637	0.024
Mof_H 	H 	0.6583	0.987	0.2652	0.177
Mof_H 	H 	0.078	0.8826	0.5352	0.06
Mof_H 	H 	0.2737	0.8907	0.9831	-0.017
Mof_H 	H 	0.545	0.8697	0.3363	0.024
Mof_H 	H 	0.2186	0.0802	0.2322	0.191
Mof_H 	H 	0.6779	0.5179	0.1163	0.058
Mof_H 	H 	0.4137	0.5834	0.1726	0.073
Mof_H 	H 	0.2409	0.2443	0.9968	0.169
Mof_H 	H 	0.7409	0.7557	0.9968	0.169
Mof_H 	H 	0.8221	0.8837	0.4821	0.058
Mof_H 	H 	0.4059	0.0358	0.2545	-0.01
Mof_H 	H 	0.1583	0.013	0.2652	0.177
Mof_H 	H 	0.7835	0.139	0.3896	0.027
Mof_H 	H 	0.422	0.5352	0.8826	0.06
Mof_H 	H 	0.8707	0.0424	0.6161	0.071
Mof_H 	H 	0.578	0.8826	0.4648	0.06
Mof_H 	H 	0.7835	0.861	0.6104	0.027
Mof_H 	H 	0.0863	0.8274	0.4166	0.073
Mof_H 	H 	0.7165	0.6104	0.861	0.027
Mof_H 	H 	0.2591	0.0032	0.7557	0.169
Mof_H 	H 	0.578	0.1174	0.5352	0.06
Mof_H 	H 	0.1171	0.839	0.2858	-0.017
Mof_H 	H 	0.1779	0.4821	0.1163	0.058
Mof_H 	H 	0.2591	0.9968	0.2443	0.169
Mof_H 	H 	0.7814	0.7678	0.0802	0.191
Mof_H 	H 	0.045	0.1303	0.3363	0.024
Mof_H 	H 	0.955	0.3363	0.8697	0.024
Mof_H 	H 	0.7186	0.0802	0.7678	0.191
Mof_H 	H 	0.1779	0.5179	0.8837	0.058
Mof_H 	H 	0.5941	0.7455	0.0358	-0.01
Mof_H 	H 	0.2165	0.6104	0.139	0.027
Mof_H 	H 	0.3707	0.9576	0.6161	0.071
Mof_H 	H 	0.4137	0.4166	0.8274	0.073
Mof_H 	H 	0.5863	0.8274	0.5834	0.073
Mof_H 	H 	0.7591	0.9968	0.7557	0.169
Mof_H 	H 	0.0941	0.7455	0.9642	-0.01
Mof_H 	H 	0.2737	0.1093	0.0169	-0.017
Mof_H 	H 	0.8221	0.1163	0.5179	0.058
Mof_H 	H 	0.5863	0.1726	0.4166	0.073
Mof_C 	C 	0.6329	0.4805	0.1207	-0.097
Mof_C 	C 	0.0961	0.0496	0.1278	0.238
Mof_C 	C 	0.5786	0.3652	0.932	-0.129
Mof_C 	C 	0.4116	0.1323	0.6523	-0.124
Mof_C 	C 	0.5884	0.6523	0.8677	-0.124
Mof_C 	C 	0.0884	0.3477	0.8677	-0.124
Mof_C 	C 	0.1158	0.2657	0.8579	0.398
Mof_C 	C 	0.557	0.7124	0.0644	0.072
Mof_C 	C 	0.048	0.8558	0.3845	-0.13
Mof_C 	C 	0.4214	0.068	0.3652	-0.129
Mof_C 	C 	0.4116	0.8677	0.3477	-0.124
Mof_C 	C 	0.5015	0.6274	0.8721	0.043
Mof_C 	C 	0.4529	0.1159	0.4971	0.035
Mof_C 	C 	0.4818	0.4491	0.12	-0.104
Mof_C 	C 	0.1567	0.4038	0.8681	0.028
Mof_C 	C 	0.4742	0.1089	0.4143	0.06
Mof_C 	C 	0.9344	0.6946	0.8627	0.074
Mof_C 	C 	0.0471	0.5029	0.8841	0.035
Mof_C 	C 	0.1329	0.5195	0.1207	-0.097
Mof_C 	C 	0.943	0.9356	0.2876	0.072
Mof_C 	C 	0.0656	0.8627	0.3054	0.074
Mof_C 	C 	0.4039	0.1278	0.0496	0.238
Mof_C 	C 	0.9818	0.4491	0.88	-0.104
Mof_C 	C 	0.0258	0.5857	0.8911	0.06
Mof_C 	C 	0.4985	0.1279	0.6274	0.043
Mof_C 	C 	0.4529	0.8841	0.5029	0.035
Mof_C 	C 	0.6782	0.0029	0.8544	0.145
Mof_C 	C 	0.6158	0.7343	0.8579	0.398
Mof_C 	C 	0.5015	0.3726	0.1279	0.043
Mof_C 	C 	0.2938	0.2299	0.0254	-0.526
Mof_C 	C 	0.9818	0.5509	0.12	-0.104
Mof_C 	C 	0.8433	0.8681	0.5962	0.028
Mof_C 	C 	0.443	0.9356	0.7124	0.072
Mof_C 	C 	0.6158	0.2657	0.1421	0.398
Mof_C 	C 	0.0015	0.6274	0.1279	0.043
Mof_C 	C 	0.8671	0.1207	0.4805	-0.097
Mof_C 	C 	0.3433	0.1319	0.5962	0.028
Mof_C 	C 	0.943	0.0644	0.7124	0.072
Mof_C 	C 	0.0182	0.12	0.4491	-0.104
Mof_C 	C 	0.4818	0.5509	0.88	-0.104
Mof_C 	C 	0.0786	0.6348	0.932	-0.13
Mof_C 	C 	0.1329	0.4805	0.8793	-0.097
Mof_C 	C 	0.048	0.1442	0.6155	-0.13
Mof_C 	C 	0.8842	0.8579	0.7343	0.398
Mof_C 	C 	0.9985	0.8721	0.6274	0.043
Mof_C 	C 	0.452	0.6155	0.1442	-0.13
Mof_C 	C 	0.1158	0.7343	0.1421	0.398
Mof_C 	C 	0.9039	0.1278	0.9504	0.238
Mof_C 	C 	0.5656	0.8627	0.6946	0.074
Mof_C 	C 	0.5258	0.5857	0.1089	0.06
Mof_C 	C 	0.5182	0.12	0.5509	-0.104
Mof_C 	C 	0.0471	0.4971	0.1159	0.035
Mof_C 	C 	0.5258	0.4143	0.8911	0.06
Mof_C 	C 	0.548	0.8558	0.6155	-0.13
Mof_C 	C 	0.4344	0.6946	0.1373	0.074
Mof_C 	C 	0.557	0.2876	0.9356	0.072
Mof_C 	C 	0.4344	0.3054	0.8627	0.074
Mof_C 	C 	0.952	0.6155	0.8558	-0.13
Mof_C 	C 	0.9742	0.8911	0.4143	0.06
Mof_C 	C 	0.3218	0.1456	0.0029	0.145
Mof_C 	C 	0.2062	0.9746	0.7701	-0.526
Mof_C 	C 	0.1782	0.9971	0.8544	0.145
Mof_C 	C 	0.9214	0.068	0.6348	-0.13
Mof_C 	C 	0.2062	0.0254	0.2299	-0.526
Mof_C 	C 	0.952	0.3845	0.1442	-0.13
Mof_C 	C 	0.548	0.1442	0.3845	-0.13
Mof_C 	C 	0.9529	0.1159	0.5029	0.035
Mof_C 	C 	0.3842	0.8579	0.2657	0.398
Mof_C 	C 	0.5471	0.5029	0.1159	0.035
Mof_C 	C 	0.8218	0.1456	0.9971	0.145
Mof_C 	C 	0.6567	0.5962	0.8681	0.028
Mof_C 	C 	0.3671	0.8793	0.4805	-0.097
Mof_C 	C 	0.5961	0.0496	0.8722	0.238
Mof_C 	C 	0.9344	0.3054	0.1373	0.074
Mof_C 	C 	0.8671	0.8793	0.5195	-0.097
Mof_C 	C 	0.3671	0.1207	0.5195	-0.097
Mof_C 	C 	0.057	0.2876	0.0644	0.072
Mof_C 	C 	0.9529	0.8841	0.4971	0.035
Mof_C 	C 	0.057	0.7124	0.9356	0.072
Mof_C 	C 	0.3218	0.8544	0.9971	0.145
Mof_C 	C 	0.7938	0.7701	0.0254	-0.526
Mof_C 	C 	0.0884	0.6523	0.1323	-0.124
Mof_C 	C 	0.5656	0.1373	0.3054	0.074
Mof_C 	C 	0.443	0.0644	0.2876	0.072
Mof_C 	C 	0.9116	0.8677	0.6523	-0.124
Mof_C 	C 	0.5182	0.88	0.4491	-0.104
Mof_C 	C 	0.4039	0.8722	0.9504	0.238
Mof_C 	C 	0.6329	0.5195	0.8793	-0.097
Mof_C 	C 	0.9214	0.932	0.3652	-0.13
Mof_C 	C 	0.5786	0.6348	0.068	-0.129
Mof_C 	C 	0.0961	0.9504	0.8722	0.238
Mof_C 	C 	0.5884	0.3477	0.1323	-0.124
Mof_C 	C 	0.8218	0.8544	0.0029	0.145
Mof_C 	C 	0.0656	0.1373	0.6946	0.074
Mof_C 	C 	0.0258	0.4143	0.1089	0.06
Mof_C 	C 	0.0015	0.3726	0.8721	0.043
Mof_C 	C 	0.7062	0.0254	0.7701	-0.526
Mof_C 	C 	0.2938	0.7701	0.9746	-0.526
Mof_C 	C 	0.7062	0.9746	0.2299	-0.526
Mof_C 	C 	0.9985	0.1279	0.3726	0.043
Mof_C 	C 	0.5961	0.9504	0.1278	0.238
Mof_C 	C 	0.1782	0.0029	0.1456	0.145
Mof_C 	C 	0.1567	0.5962	0.1319	0.028
Mof_C 	C 	0.9039	0.8722	0.0496	0.238
Mof_C 	C 	0.7938	0.2299	0.9746	-0.526
Mof_C 	C 	0.3433	0.8681	0.4038	0.028
Mof_C 	C 	0.9742	0.1089	0.5857	0.06
Mof_C 	C 	0.8433	0.1319	0.4038	0.028
Mof_C 	C 	0.4985	0.8721	0.3726	0.043
Mof_C 	C 	0.0182	0.88	0.5509	-0.104
Mof_C 	C 	0.6782	0.9971	0.1456	0.145
Mof_C 	C 	0.6567	0.4038	0.1319	0.028
Mof_C 	C 	0.0786	0.3652	0.068	-0.13
Mof_C 	C 	0.4214	0.932	0.6348	-0.129
Mof_C 	C 	0.3842	0.1421	0.7343	0.398
Mof_C 	C 	0.452	0.3845	0.8558	-0.13
Mof_C 	C 	0.8842	0.1421	0.2657	0.398
Mof_C 	C 	0.4742	0.8911	0.5857	0.06
Mof_C 	C 	0.9116	0.1323	0.3477	-0.124
Mof_C 	C 	0.5471	0.4971	0.8841	0.035
Mof_N 	N 	0.014	0.9004	0.2573	-0.24
Mof_N 	N 	0.486	0.7427	0.0996	-0.24
Mof_N 	N 	0.014	0.0996	0.7427	-0.24
Mof_N 	N 	0.514	0.9004	0.7427	-0.24
Mof_N 	N 	0.486	0.2573	0.9004	-0.24
Mof_N 	N 	0.986	0.7427	0.9004	-0.24
Mof_N 	N 	0.986	0.2573	0.0996	-0.24
Mof_N 	N 	0.514	0.0996	0.2573	-0.24
Mof_O 	O 	0.841	0.1386	0.0749	-0.553
Mof_O 	O 	0.3979	0.8808	0.8795	-0.372
Mof_O 	O 	0.6933	0.7498	0.8515	-0.489
Mof_O 	O 	0.9771	0.8777	0.0167	-0.459
Mof_O 	O 	0.0229	0.9833	0.8777	-0.459
Mof_O 	O 	0.0508	0.2187	0.8596	-0.444
Mof_O 	O 	0.9492	0.1404	0.2187	-0.444
Mof_O 	O 	0.8979	0.8808	0.1205	-0.372
Mof_O 	O 	0.341	0.1386	0.9251	-0.553
Mof_O 	O 	0.8979	0.1192	0.8795	-0.372
Mof_O 	O 	0.8067	0.8515	0.7498	-0.489
Mof_O 	O 	0.659	0.0749	0.1386	-0.553
Mof_O 	O 	0.841	0.8614	0.9251	-0.553
Mof_O 	O 	0.6021	0.8795	0.1192	-0.372
Mof_O 	O 	0.4771	0.8777	0.9833	-0.459
Mof_O 	O 	0.5508	0.7813	0.8596	-0.444
Mof_O 	O 	0.5229	0.0167	0.8777	-0.459
Mof_O 	O 	0.659	0.9251	0.8614	-0.553
Mof_O 	O 	0.5229	0.9833	0.1223	-0.459
Mof_O 	O 	0.1021	0.8795	0.8808	-0.372
Mof_O 	O 	0.9492	0.8596	0.7813	-0.444
Mof_O 	O 	0.1021	0.1205	0.1192	-0.372
Mof_O 	O 	0.9771	0.1223	0.9833	-0.459
Mof_O 	O 	0.0229	0.0167	0.1223	-0.459
Mof_O 	O 	0.4492	0.1404	0.7813	-0.444
Mof_O 	O 	0.4492	0.8596	0.2187	-0.444
Mof_O 	O 	0.5508	0.2187	0.1404	-0.444
Mof_O 	O 	0.6021	0.1205	0.8808	-0.372
Mof_O 	O 	0.1933	0.7498	0.1485	-0.489
Mof_O 	O 	0.3067	0.1485	0.7498	-0.489
Mof_O 	O 	0.8067	0.1485	0.2502	-0.489
Mof_O 	O 	0.3979	0.1192	0.1205	-0.372
Mof_O 	O 	0.6933	0.2502	0.1485	-0.489
Mof_O 	O 	0.0508	0.7813	0.1404	-0.444
Mof_O 	O 	0.1933	0.2502	0.8515	-0.489
Mof_O 	O 	0.341	0.8614	0.0749	-0.553
Mof_O 	O 	0.4771	0.1223	0.0167	-0.459
Mof_O 	O 	0.159	0.0749	0.8614	-0.553
Mof_O 	O 	0.3067	0.8515	0.2502	-0.489
Mof_O 	O 	0.159	0.9251	0.1386	-0.553
_end
