data_functionalizedCrystal
_audit_creation_method	'EQeq! by Chris Wilmer'
_symmetry_space_group_name_H-M	'P1'
_symmetry_Int_Tables_number	1
_symmetry_cell_setting	triclinic
loop_
_symmetry_equiv_pos_as_xyz
  x,y,z
_cell_length_a	7.788
_cell_length_b	14.259
_cell_length_c	36.544
_cell_angle_alpha	90
_cell_angle_beta	90
_cell_angle_gamma	90
loop_
_atom_site_label
_atom_site_type_symbol
_atom_site_fract_x
_atom_site_fract_y
_atom_site_fract_z
_atom_site_charge
Mof_Ag	Ag	0.5871	0.39392	0.55853	0.585
Mof_Ag	Ag	0.92016	0.11557	0.64808	0.573
Mof_Ag	Ag	0.4518	0.68627	0.31906	0.497
Mof_N 	N 	0.959	0.0907	0.8051	-0.104
Mof_N 	N 	0.892	0.1653	0.806	-0.133
Mof_N 	N 	0.7754	0.2953	0.5971	-0.141
Mof_N 	N 	0.7291	0.2111	0.6048	-0.139
Mof_N 	N 	0.572	0.3818	0.4074	-0.103
Mof_N 	N 	0.607	0.3415	0.3771	-0.145
Mof_N 	N 	0.0992	0.9158	0.8708	-0.167
Mof_N 	N 	0.033	0.106	0.8677	-0.176
Mof_N 	N 	0.854	0.1808	0.7038	-0.155
Mof_N 	N 	0.744	0.2711	0.7685	-0.176
Mof_N 	N 	0.0743	0.4648	0.6363	-0.174
Mof_N 	N 	0.0321	0.2665	0.6303	-0.172
Mof_N 	N 	0.4269	0.0465	0.5664	-0.179
Mof_N 	N 	0.4781	0.2471	0.5697	-0.176
Mof_N 	N 	0.668	0.3274	0.5017	-0.167
Mof_N 	N 	0.792	0.2798	0.433	-0.162
Mof_N 	N 	0.423	0.5291	0.3203	-0.158
Mof_N 	N 	0.473	0.3416	0.3198	-0.195
Mof_C 	C 	0.004	0.0562	0.84	0.111
Mof_C 	C 	0.038	0.9526	0.8415	-0.029
Mof_H 	H 	0.0142	0.9152	0.8212	0.012
Mof_C 	C 	0.131	0.9718	0.9015	-0.03
Mof_H 	H 	0.1756	0.9476	0.9232	0.024
Mof_C 	C 	0.093	0.0654	0.8972	0.036
Mof_H 	H 	0.1108	0.1038	0.9174	0.007
Mof_C 	C 	0.842	0.1939	0.7689	0.118
Mof_C 	C 	0.9	0.1499	0.7407	-0.081
Mof_H 	H 	0.9713	0.0982	0.7438	0.053
Mof_C 	C 	0.744	0.2552	0.7032	-0.011
Mof_H 	H 	0.6974	0.2741	0.681	0.017
Mof_C 	C 	0.699	0.3037	0.7349	0.002
Mof_H 	H 	0.6379	0.3594	0.733	0.008
Mof_C 	C 	0.9264	0.3275	0.6167	0.092
Mof_C 	C 	0.9494	0.4242	0.617	-0.043
Mof_H 	H 	0.8756	0.4617	0.6034	0.005
Mof_C 	C 	0.197	0.3999	0.6513	-0.026
Mof_H 	H 	0.2935	0.4222	0.6635	0.012
Mof_C 	C 	0.173	0.309	0.6477	0.003
Mof_H 	H 	0.2562	0.2696	0.6575	0.01
Mof_C 	C 	0.5832	0.1825	0.5867	0.09
Mof_C 	C 	0.553	0.0886	0.5849	-0.041
Mof_H 	H 	0.6268	0.05	0.598	0.008
Mof_C 	C 	0.321	0.1074	0.5511	-0.002
Mof_H 	H 	0.2233	0.0848	0.5394	0.005
Mof_C 	C 	0.349	0.2062	0.5518	0.004
Mof_H 	H 	0.2731	0.2443	0.539	0.01
Mof_C 	C 	0.665	0.3419	0.4361	0.093
Mof_C 	C 	0.603	0.3667	0.4725	-0.029
Mof_H 	H 	0.516	0.4111	0.475	0.022
Mof_C 	C 	0.788	0.2728	0.4976	0.035
Mof_H 	H 	0.8353	0.2472	0.5187	0.004
Mof_C 	C 	0.86	0.2453	0.4642	-0.021
Mof_H 	H 	0.9534	0.2045	0.4636	0.02
Mof_C 	C 	0.528	0.3922	0.3452	0.121
Mof_C 	C 	0.506	0.4875	0.3493	-0.058
Mof_H 	H 	0.5445	0.5206	0.3697	0.037
Mof_C 	C 	0.381	0.4786	0.2911	-0.004
Mof_H 	H 	0.3376	0.5085	0.2704	0.014
Mof_C 	C 	0.402	0.374	0.2909	0.028
Mof_H 	H 	0.3672	0.3363	0.2715	0
Mof_Ag	Ag	0.1214	0.75637	0.86938	0.537
Mof_Ag	Ag	0.4129	0.89392	0.55853	0.585
Mof_Ag	Ag	0.07984	0.61557	0.64808	0.575
Mof_Ag	Ag	0.5482	0.18627	0.31906	0.498
Mof_N 	N 	0.041	0.5907	0.8051	-0.102
Mof_N 	N 	0.108	0.6653	0.806	-0.132
Mof_N 	N 	0.2246	0.7953	0.5971	-0.141
Mof_N 	N 	0.2709	0.7111	0.6048	-0.139
Mof_N 	N 	0.428	0.8818	0.4074	-0.103
Mof_N 	N 	0.393	0.8415	0.3771	-0.145
Mof_N 	N 	0.9008	0.4158	0.8708	-0.168
Mof_N 	N 	0.967	0.606	0.8677	-0.175
Mof_N 	N 	0.146	0.6808	0.7038	-0.155
Mof_N 	N 	0.256	0.7711	0.7685	-0.176
Mof_N 	N 	0.9257	0.9648	0.6363	-0.173
Mof_N 	N 	0.9679	0.7665	0.6303	-0.172
Mof_N 	N 	0.5731	0.5465	0.5664	-0.179
Mof_N 	N 	0.5219	0.7471	0.5697	-0.176
Mof_N 	N 	0.332	0.8274	0.5017	-0.167
Mof_N 	N 	0.208	0.7798	0.433	-0.162
Mof_N 	N 	0.577	0.0291	0.3203	-0.158
Mof_N 	N 	0.527	0.8416	0.3198	-0.195
Mof_C 	C 	0.996	0.5562	0.84	0.109
Mof_C 	C 	0.962	0.4526	0.8415	-0.027
Mof_H 	H 	0.9858	0.4152	0.8212	0.011
Mof_C 	C 	0.869	0.4718	0.9015	-0.028
Mof_H 	H 	0.8244	0.4476	0.9232	0.024
Mof_C 	C 	0.907	0.5654	0.8972	0.034
Mof_H 	H 	0.8892	0.6038	0.9174	0.008
Mof_C 	C 	0.158	0.6939	0.7689	0.118
Mof_C 	C 	0.1	0.6499	0.7407	-0.081
Mof_H 	H 	0.0287	0.5982	0.7438	0.054
Mof_C 	C 	0.256	0.7552	0.7032	-0.011
Mof_H 	H 	0.3026	0.7741	0.681	0.017
Mof_C 	C 	0.301	0.8037	0.7349	0.002
Mof_H 	H 	0.3621	0.8594	0.733	0.008
Mof_C 	C 	0.0736	0.8275	0.6167	0.093
Mof_C 	C 	0.0506	0.9242	0.617	-0.044
Mof_H 	H 	0.1244	0.9617	0.6034	0.006
Mof_C 	C 	0.803	0.8999	0.6513	-0.026
Mof_H 	H 	0.7065	0.9222	0.6635	0.012
Mof_C 	C 	0.827	0.809	0.6477	0.003
Mof_H 	H 	0.7438	0.7696	0.6575	0.01
Mof_C 	C 	0.4168	0.6825	0.5867	0.09
Mof_C 	C 	0.447	0.5886	0.5849	-0.041
Mof_H 	H 	0.3732	0.55	0.598	0.008
Mof_C 	C 	0.679	0.6074	0.5511	-0.002
Mof_H 	H 	0.7767	0.5848	0.5394	0.005
Mof_C 	C 	0.651	0.7062	0.5518	0.003
Mof_H 	H 	0.7269	0.7443	0.539	0.01
Mof_C 	C 	0.335	0.8419	0.4361	0.093
Mof_C 	C 	0.397	0.8667	0.4725	-0.029
Mof_H 	H 	0.484	0.9111	0.475	0.022
Mof_C 	C 	0.212	0.7728	0.4976	0.035
Mof_H 	H 	0.1647	0.7472	0.5187	0.004
Mof_C 	C 	0.14	0.7453	0.4642	-0.021
Mof_H 	H 	0.0466	0.7045	0.4636	0.02
Mof_C 	C 	0.472	0.8922	0.3452	0.121
Mof_C 	C 	0.494	0.9875	0.3493	-0.059
Mof_H 	H 	0.4555	0.0206	0.3697	0.037
Mof_C 	C 	0.619	0.9786	0.2911	-0.004
Mof_H 	H 	0.6624	0.0085	0.2704	0.014
Mof_C 	C 	0.598	0.874	0.2909	0.027
Mof_H 	H 	0.6328	0.8363	0.2715	0
Mof_Ag	Ag	0.8786	0.25637	0.86938	0.537
Mof_Ag	Ag	0.8786	0.24363	0.36938	0.537
Mof_Ag	Ag	0.4129	0.60608	0.05853	0.586
Mof_Ag	Ag	0.07984	0.88443	0.14808	0.574
Mof_Ag	Ag	0.5482	0.31373	0.81906	0.498
Mof_N 	N 	0.041	0.9093	0.3051	-0.103
Mof_N 	N 	0.108	0.8347	0.306	-0.133
Mof_N 	N 	0.2246	0.7047	0.0971	-0.141
Mof_N 	N 	0.2709	0.7889	0.1048	-0.139
Mof_N 	N 	0.428	0.6182	0.9074	-0.103
Mof_N 	N 	0.393	0.6585	0.8771	-0.145
Mof_N 	N 	0.9008	0.0842	0.3708	-0.167
Mof_N 	N 	0.967	0.894	0.3677	-0.176
Mof_N 	N 	0.146	0.8192	0.2038	-0.155
Mof_N 	N 	0.256	0.7289	0.2685	-0.176
Mof_N 	N 	0.9257	0.5352	0.1363	-0.174
Mof_N 	N 	0.9679	0.7335	0.1303	-0.172
Mof_N 	N 	0.5731	0.9535	0.0664	-0.179
Mof_N 	N 	0.5219	0.7529	0.0697	-0.176
Mof_N 	N 	0.332	0.6726	0.0017	-0.166
Mof_N 	N 	0.208	0.7202	0.933	-0.162
Mof_N 	N 	0.577	0.4709	0.8203	-0.158
Mof_N 	N 	0.527	0.6584	0.8198	-0.195
Mof_C 	C 	0.996	0.9438	0.34	0.111
Mof_C 	C 	0.962	0.0474	0.3415	-0.029
Mof_H 	H 	0.9858	0.0848	0.3212	0.012
Mof_C 	C 	0.869	0.0282	0.4015	-0.03
Mof_H 	H 	0.8244	0.0524	0.4232	0.024
Mof_C 	C 	0.907	0.9346	0.3972	0.036
Mof_H 	H 	0.8892	0.8962	0.4174	0.007
Mof_C 	C 	0.158	0.8061	0.2689	0.118
Mof_C 	C 	0.1	0.8501	0.2407	-0.081
Mof_H 	H 	0.0287	0.9018	0.2438	0.053
Mof_C 	C 	0.256	0.7448	0.2032	-0.011
Mof_H 	H 	0.3026	0.7259	0.181	0.017
Mof_C 	C 	0.301	0.6963	0.2349	0.002
Mof_H 	H 	0.3621	0.6406	0.233	0.008
Mof_C 	C 	0.0736	0.6725	0.1167	0.092
Mof_C 	C 	0.0506	0.5758	0.117	-0.043
Mof_H 	H 	0.1244	0.5383	0.1034	0.005
Mof_C 	C 	0.803	0.6001	0.1513	-0.026
Mof_H 	H 	0.7065	0.5778	0.1635	0.012
Mof_C 	C 	0.827	0.691	0.1477	0.003
Mof_H 	H 	0.7438	0.7304	0.1575	0.01
Mof_C 	C 	0.4168	0.8175	0.0867	0.09
Mof_C 	C 	0.447	0.9114	0.0849	-0.041
Mof_H 	H 	0.3732	0.95	0.098	0.008
Mof_C 	C 	0.679	0.8926	0.0511	-0.002
Mof_H 	H 	0.7767	0.9152	0.0394	0.005
Mof_C 	C 	0.651	0.7938	0.0518	0.004
Mof_H 	H 	0.7269	0.7557	0.039	0.01
Mof_C 	C 	0.335	0.6581	0.9361	0.093
Mof_C 	C 	0.397	0.6333	0.9725	-0.029
Mof_H 	H 	0.484	0.5889	0.975	0.022
Mof_C 	C 	0.212	0.7272	0.9976	0.033
Mof_H 	H 	0.1647	0.7528	0.0187	0.005
Mof_C 	C 	0.14	0.7547	0.9642	-0.021
Mof_H 	H 	0.0466	0.7955	0.9636	0.02
Mof_C 	C 	0.472	0.6078	0.8452	0.121
Mof_C 	C 	0.494	0.5125	0.8493	-0.058
Mof_H 	H 	0.4555	0.4794	0.8697	0.037
Mof_C 	C 	0.619	0.5214	0.7911	-0.004
Mof_H 	H 	0.6624	0.4915	0.7704	0.014
Mof_C 	C 	0.598	0.626	0.7909	0.028
Mof_H 	H 	0.6328	0.6637	0.7715	0
Mof_Ag	Ag	0.1214	0.74363	0.36938	0.537
Mof_Ag	Ag	0.5871	0.10608	0.05853	0.585
Mof_Ag	Ag	0.92016	0.38443	0.14808	0.575
Mof_Ag	Ag	0.4518	0.81373	0.81906	0.498
Mof_N 	N 	0.959	0.4093	0.3051	-0.102
Mof_N 	N 	0.892	0.3347	0.306	-0.132
Mof_N 	N 	0.7754	0.2047	0.0971	-0.141
Mof_N 	N 	0.7291	0.2889	0.1048	-0.139
Mof_N 	N 	0.572	0.1182	0.9074	-0.104
Mof_N 	N 	0.607	0.1585	0.8771	-0.145
Mof_N 	N 	0.0992	0.5842	0.3708	-0.168
Mof_N 	N 	0.033	0.394	0.3677	-0.175
Mof_N 	N 	0.854	0.3192	0.2038	-0.155
Mof_N 	N 	0.744	0.2289	0.2685	-0.176
Mof_N 	N 	0.0743	0.0352	0.1363	-0.173
Mof_N 	N 	0.0321	0.2335	0.1303	-0.172
Mof_N 	N 	0.4269	0.4535	0.0664	-0.179
Mof_N 	N 	0.4781	0.2529	0.0697	-0.176
Mof_N 	N 	0.668	0.1726	0.0017	-0.166
Mof_N 	N 	0.792	0.2202	0.933	-0.162
Mof_N 	N 	0.423	0.9709	0.8203	-0.158
Mof_N 	N 	0.473	0.1584	0.8198	-0.195
Mof_C 	C 	0.004	0.4438	0.34	0.109
Mof_C 	C 	0.038	0.5474	0.3415	-0.027
Mof_H 	H 	0.0142	0.5848	0.3212	0.011
Mof_C 	C 	0.131	0.5282	0.4015	-0.028
Mof_H 	H 	0.1756	0.5524	0.4232	0.024
Mof_C 	C 	0.093	0.4346	0.3972	0.034
Mof_H 	H 	0.1108	0.3962	0.4174	0.008
Mof_C 	C 	0.842	0.3061	0.2689	0.118
Mof_C 	C 	0.9	0.3501	0.2407	-0.081
Mof_H 	H 	0.9713	0.4018	0.2438	0.054
Mof_C 	C 	0.744	0.2448	0.2032	-0.011
Mof_H 	H 	0.6974	0.2259	0.181	0.017
Mof_C 	C 	0.699	0.1963	0.2349	0.002
Mof_H 	H 	0.6379	0.1406	0.233	0.008
Mof_C 	C 	0.9264	0.1725	0.1167	0.093
Mof_C 	C 	0.9494	0.0758	0.117	-0.044
Mof_H 	H 	0.8756	0.0383	0.1034	0.006
Mof_C 	C 	0.197	0.1001	0.1513	-0.026
Mof_H 	H 	0.2935	0.0778	0.1635	0.012
Mof_C 	C 	0.173	0.191	0.1477	0.003
Mof_H 	H 	0.2562	0.2304	0.1575	0.01
Mof_C 	C 	0.5832	0.3175	0.0867	0.09
Mof_C 	C 	0.553	0.4114	0.0849	-0.041
Mof_H 	H 	0.6268	0.45	0.098	0.008
Mof_C 	C 	0.321	0.3926	0.0511	-0.002
Mof_H 	H 	0.2233	0.4152	0.0394	0.005
Mof_C 	C 	0.349	0.2938	0.0518	0.004
Mof_H 	H 	0.2731	0.2557	0.039	0.01
Mof_C 	C 	0.665	0.1581	0.9361	0.093
Mof_C 	C 	0.603	0.1333	0.9725	-0.029
Mof_H 	H 	0.516	0.0889	0.975	0.022
Mof_C 	C 	0.788	0.2272	0.9976	0.033
Mof_H 	H 	0.8353	0.2528	0.0187	0.005
Mof_C 	C 	0.86	0.2547	0.9642	-0.021
Mof_H 	H 	0.9534	0.2955	0.9636	0.02
Mof_C 	C 	0.528	0.1078	0.8452	0.121
Mof_C 	C 	0.506	0.0125	0.8493	-0.059
Mof_H 	H 	0.5445	0.9794	0.8697	0.037
Mof_C 	C 	0.381	0.0214	0.7911	-0.004
Mof_H 	H 	0.3376	0.9915	0.7704	0.014
Mof_C 	C 	0.402	0.126	0.7909	0.027
Mof_H 	H 	0.3672	0.1637	0.7715	0
_end
