data_functionalizedCrystal
_audit_creation_method	'EQeq! by Chris Wilmer'
_symmetry_space_group_name_H-M	'P1'
_symmetry_Int_Tables_number	1
_symmetry_cell_setting	triclinic
loop_
_symmetry_equiv_pos_as_xyz
  x,y,z
_cell_length_a	20.15
_cell_length_b	10.299
_cell_length_c	17.849
_cell_angle_alpha	90
_cell_angle_beta	99.88
_cell_angle_gamma	90
loop_
_atom_site_label
_atom_site_type_symbol
_atom_site_fract_x
_atom_site_fract_y
_atom_site_fract_z
_atom_site_charge
Mof_Cd	Cd	0.41123	0.99375	0.10976	0.349
Mof_Cd	Cd	0.18192	0.99113	0.87252	0.26
Mof_Cd	Cd	0.64734	0.01604	0.33694	0.318
Mof_Cd	Cd	0.25967	0.01729	0.35607	0.281
Mof_C 	C 	0.48304	0.9833	0.02263	-0.064
Mof_N 	N 	0.31663	0.9905	0.0142	-0.138
Mof_C 	C 	0.27138	0.9944	0.96583	-0.02
Mof_N 	N 	0.40068	0.7719	0.12438	-0.14
Mof_C 	C 	0.37559	0.6748	0.12665	-0.013
Mof_N 	N 	0.40206	0.2178	0.10985	-0.137
Mof_C 	C 	0.37681	0.3117	0.11607	-0.008
Mof_N 	N 	0.50527	0.0035	0.2108	-0.133
Mof_C 	C 	0.55109	0.0058	0.25717	-0.004
Mof_N 	N 	0.34475	0.0058	0.21058	-0.123
Mof_C 	C 	0.31763	0.0146	0.26187	-0.009
Mof_C 	C 	0.23149	0.988	0.76878	-0.064
Mof_C 	C 	0.26692	0.9946	0.72705	-0.066
Mof_C 	C 	0.66538	0.0114	0.46186	-0.05
Mof_C 	C 	0.68377	0.0122	0.52746	-0.063
Mof_N 	N 	0.67044	0.2407	0.34129	-0.139
Mof_C 	C 	0.69711	0.3382	0.34634	-0.007
Mof_N 	N 	0.65373	0.7686	0.34792	-0.138
Mof_C 	C 	0.68867	0.6839	0.35151	-0.009
Mof_Cd	Cd	0.91123	0.49375	0.10976	0.359
Mof_Cd	Cd	0.68192	0.49113	0.87252	0.267
Mof_Cd	Cd	0.14734	0.51604	0.33694	0.31
Mof_Cd	Cd	0.75967	0.51729	0.35607	0.273
Mof_C 	C 	0.98304	0.4833	0.02263	-0.06
Mof_N 	N 	0.81663	0.4905	0.0142	-0.137
Mof_C 	C 	0.77138	0.4944	0.96583	-0.016
Mof_N 	N 	0.90068	0.2719	0.12438	-0.14
Mof_C 	C 	0.87559	0.1748	0.12665	-0.003
Mof_N 	N 	0.90206	0.7178	0.10985	-0.14
Mof_C 	C 	0.87681	0.8117	0.11607	-0.008
Mof_N 	N 	0.00527	0.5035	0.2108	-0.137
Mof_C 	C 	0.05109	0.5058	0.25717	-0.008
Mof_N 	N 	0.84475	0.5058	0.21058	-0.126
Mof_C 	C 	0.81763	0.5146	0.26187	-0.012
Mof_C 	C 	0.73149	0.488	0.76878	-0.064
Mof_C 	C 	0.76692	0.4946	0.72705	-0.058
Mof_C 	C 	0.16538	0.5114	0.46186	-0.053
Mof_C 	C 	0.18377	0.5122	0.52746	-0.065
Mof_N 	N 	0.17044	0.7407	0.34129	-0.138
Mof_C 	C 	0.19711	0.8382	0.34634	-0.015
Mof_N 	N 	0.15373	0.2686	0.34792	-0.134
Mof_C 	C 	0.18867	0.1839	0.35151	-0.006
Mof_Cd	Cd	0.58877	0.99375	0.89024	0.349
Mof_Cd	Cd	0.81808	0.99113	0.12748	0.26
Mof_Cd	Cd	0.35266	0.01604	0.66306	0.318
Mof_Cd	Cd	0.74033	0.01729	0.64393	0.281
Mof_C 	C 	0.51696	0.9833	0.97737	-0.064
Mof_N 	N 	0.68337	0.9905	0.9858	-0.138
Mof_C 	C 	0.72862	0.9944	0.03417	-0.02
Mof_N 	N 	0.59932	0.7719	0.87562	-0.14
Mof_C 	C 	0.62441	0.6748	0.87335	-0.013
Mof_N 	N 	0.59794	0.2178	0.89015	-0.137
Mof_C 	C 	0.62319	0.3117	0.88393	-0.008
Mof_N 	N 	0.49473	0.0035	0.7892	-0.133
Mof_C 	C 	0.44891	0.0058	0.74283	-0.004
Mof_N 	N 	0.65525	0.0058	0.78942	-0.123
Mof_C 	C 	0.68237	0.0146	0.73813	-0.009
Mof_C 	C 	0.76851	0.988	0.23122	-0.064
Mof_C 	C 	0.73308	0.9946	0.27295	-0.066
Mof_C 	C 	0.33462	0.0114	0.53814	-0.05
Mof_C 	C 	0.31623	0.0122	0.47254	-0.063
Mof_N 	N 	0.32956	0.2407	0.65871	-0.139
Mof_C 	C 	0.30289	0.3382	0.65366	-0.007
Mof_N 	N 	0.34627	0.7686	0.65208	-0.138
Mof_C 	C 	0.31133	0.6839	0.64849	-0.009
Mof_Cd	Cd	0.08877	0.49375	0.89024	0.359
Mof_Cd	Cd	0.31808	0.49113	0.12748	0.267
Mof_Cd	Cd	0.85266	0.51604	0.66306	0.31
Mof_Cd	Cd	0.24033	0.51729	0.64393	0.273
Mof_C 	C 	0.01696	0.4833	0.97737	-0.06
Mof_N 	N 	0.18337	0.4905	0.9858	-0.137
Mof_C 	C 	0.22862	0.4944	0.03417	-0.016
Mof_N 	N 	0.09932	0.2719	0.87562	-0.14
Mof_C 	C 	0.12441	0.1748	0.87335	-0.003
Mof_N 	N 	0.09794	0.7178	0.89015	-0.14
Mof_C 	C 	0.12319	0.8117	0.88393	-0.008
Mof_N 	N 	0.99473	0.5035	0.7892	-0.137
Mof_C 	C 	0.94891	0.5058	0.74283	-0.008
Mof_N 	N 	0.15525	0.5058	0.78942	-0.126
Mof_C 	C 	0.18237	0.5146	0.73813	-0.012
Mof_C 	C 	0.26851	0.488	0.23122	-0.064
Mof_C 	C 	0.23308	0.4946	0.27295	-0.058
Mof_C 	C 	0.83462	0.5114	0.53814	-0.053
Mof_C 	C 	0.81623	0.5122	0.47254	-0.065
Mof_N 	N 	0.82956	0.7407	0.65871	-0.138
Mof_C 	C 	0.80289	0.8382	0.65366	-0.015
Mof_N 	N 	0.84627	0.2686	0.65208	-0.134
Mof_C 	C 	0.81133	0.1839	0.64849	-0.006
Mof_Cd	Cd	0.55061	0.48934	0.15509	0.317
Mof_C 	C 	0.50452	0.4991	0.0316	-0.063
Mof_C 	C 	0.50246	0.4643	0.25566	-0.007
Mof_N 	N 	0.47745	0.4402	0.30259	-0.112
Mof_N 	N 	0.5794	0.2713	0.1324	-0.264
Mof_C 	C 	0.6462	0.2614	0.1269	0.017
Mof_C 	C 	0.67555	0.3761	0.0972	-0.106
Mof_N 	N 	0.66304	0.4953	0.13778	-0.156
Mof_C 	C 	0.6726	0.6203	0.1004	-0.084
Mof_C 	C 	0.6468	0.7317	0.1385	-0.028
Mof_N 	N 	0.57618	0.7145	0.14962	-0.255
Mof_H 	H 	0.57065	0.2206	0.1706	0.115
Mof_H 	H 	0.55408	0.2431	0.0889	0.115
Mof_H 	H 	0.6517	0.1882	0.0944	0.019
Mof_H 	H 	0.6714	0.2425	0.177	0.019
Mof_H 	H 	0.65676	0.3859	0.04372	0.057
Mof_H 	H 	0.72376	0.3636	0.1014	0.061
Mof_H 	H 	0.68989	0.4944	0.18431	0.087
Mof_H 	H 	0.72024	0.633	0.1	0.052
Mof_H 	H 	0.64969	0.6169	0.048	0.051
Mof_H 	H 	0.6498	0.8092	0.1084	0.03
Mof_H 	H 	0.6752	0.7447	0.1876	0.031
Mof_H 	H 	0.54816	0.7519	0.11094	0.112
Mof_H 	H 	0.5702	0.7534	0.19311	0.112
Mof_Cd	Cd	0.44939	0.48934	0.84491	0.317
Mof_C 	C 	0.49548	0.4991	0.9684	-0.063
Mof_C 	C 	0.49754	0.4643	0.74434	-0.007
Mof_N 	N 	0.52255	0.4402	0.69741	-0.112
Mof_N 	N 	0.4206	0.2713	0.8676	-0.264
Mof_C 	C 	0.3538	0.2614	0.8731	0.017
Mof_C 	C 	0.32445	0.3761	0.9028	-0.106
Mof_N 	N 	0.33696	0.4953	0.86222	-0.156
Mof_C 	C 	0.3274	0.6203	0.8996	-0.084
Mof_C 	C 	0.3532	0.7317	0.8615	-0.028
Mof_N 	N 	0.42382	0.7145	0.85038	-0.255
Mof_H 	H 	0.42935	0.2206	0.8294	0.115
Mof_H 	H 	0.44592	0.2431	0.9111	0.115
Mof_H 	H 	0.3483	0.1882	0.9056	0.019
Mof_H 	H 	0.3286	0.2425	0.823	0.019
Mof_H 	H 	0.34324	0.3859	0.95628	0.057
Mof_H 	H 	0.27624	0.3636	0.8986	0.061
Mof_H 	H 	0.31011	0.4944	0.81569	0.087
Mof_H 	H 	0.27976	0.633	0.9	0.052
Mof_H 	H 	0.35031	0.6169	0.952	0.051
Mof_H 	H 	0.3502	0.8092	0.8916	0.03
Mof_H 	H 	0.3248	0.7447	0.8124	0.031
Mof_H 	H 	0.45184	0.7519	0.88906	0.112
Mof_H 	H 	0.4298	0.7534	0.80689	0.112
Mof_Cd	Cd	0.05061	0.98934	0.15509	0.311
Mof_C 	C 	0.00452	0.9991	0.0316	-0.066
Mof_C 	C 	0.00246	0.9643	0.25566	-0.01
Mof_N 	N 	0.97745	0.9402	0.30259	-0.112
Mof_N 	N 	0.0794	0.7713	0.1324	-0.263
Mof_C 	C 	0.1462	0.7614	0.1269	0.019
Mof_C 	C 	0.17555	0.8761	0.0972	-0.106
Mof_N 	N 	0.16304	0.9953	0.13778	-0.16
Mof_C 	C 	0.1726	0.1203	0.1004	-0.074
Mof_C 	C 	0.1468	0.2317	0.1385	-0.031
Mof_N 	N 	0.07618	0.2145	0.14962	-0.253
Mof_H 	H 	0.07065	0.7206	0.1706	0.114
Mof_H 	H 	0.05408	0.7431	0.0889	0.113
Mof_H 	H 	0.1517	0.6882	0.0944	0.015
Mof_H 	H 	0.1714	0.7425	0.177	0.016
Mof_H 	H 	0.15676	0.8859	0.04372	0.056
Mof_H 	H 	0.22376	0.8636	0.1014	0.059
Mof_H 	H 	0.18989	0.9944	0.18431	0.083
Mof_H 	H 	0.22024	0.133	0.1	0.052
Mof_H 	H 	0.14969	0.1169	0.048	0.052
Mof_H 	H 	0.1498	0.3092	0.1084	0.031
Mof_H 	H 	0.1752	0.2447	0.1876	0.033
Mof_H 	H 	0.04816	0.2519	0.11094	0.114
Mof_H 	H 	0.0702	0.2534	0.19311	0.115
Mof_Cd	Cd	0.94939	0.98934	0.84491	0.311
Mof_C 	C 	0.99548	0.9991	0.9684	-0.066
Mof_C 	C 	0.99754	0.9643	0.74434	-0.01
Mof_N 	N 	0.02255	0.9402	0.69741	-0.112
Mof_N 	N 	0.9206	0.7713	0.8676	-0.263
Mof_C 	C 	0.8538	0.7614	0.8731	0.019
Mof_C 	C 	0.82445	0.8761	0.9028	-0.106
Mof_N 	N 	0.83696	0.9953	0.86222	-0.16
Mof_C 	C 	0.8274	0.1203	0.8996	-0.074
Mof_C 	C 	0.8532	0.2317	0.8615	-0.031
Mof_N 	N 	0.92382	0.2145	0.85038	-0.253
Mof_H 	H 	0.92935	0.7206	0.8294	0.114
Mof_H 	H 	0.94592	0.7431	0.9111	0.113
Mof_H 	H 	0.8483	0.6882	0.9056	0.015
Mof_H 	H 	0.8286	0.7425	0.823	0.016
Mof_H 	H 	0.84324	0.8859	0.95628	0.056
Mof_H 	H 	0.77624	0.8636	0.8986	0.059
Mof_H 	H 	0.81011	0.9944	0.81569	0.083
Mof_H 	H 	0.77976	0.133	0.9	0.052
Mof_H 	H 	0.85031	0.1169	0.952	0.052
Mof_H 	H 	0.8502	0.3092	0.8916	0.031
Mof_H 	H 	0.8248	0.2447	0.8124	0.033
Mof_H 	H 	0.95184	0.2519	0.88906	0.114
Mof_H 	H 	0.9298	0.2534	0.80689	0.115
_end
