data_functionalizedCrystal
_audit_creation_method	'EQeq! by Chris Wilmer'
_symmetry_space_group_name_H-M	'P1'
_symmetry_Int_Tables_number	1
_symmetry_cell_setting	triclinic
loop_
_symmetry_equiv_pos_as_xyz
  x,y,z
_cell_length_a	8.842
_cell_length_b	14.318
_cell_length_c	14.498
_cell_angle_alpha	113.084
_cell_angle_beta	107.754
_cell_angle_gamma	90
loop_
_atom_site_label
_atom_site_type_symbol
_atom_site_fract_x
_atom_site_fract_y
_atom_site_fract_z
_atom_site_charge
Mof_La	La	0.50159	0.00353	0.54858	2.212
Mof_La	La	0.95301	0.99647	0.45142	2.117
Mof_H 	H 	0.4409	0.7853	0.67	-0.025
Mof_H 	H 	0.4516	0.6327	0.6816	0.07
Mof_H 	H 	0.9767	0.5544	0.533	0.022
Mof_H 	H 	0.9632	0.71	0.5192	-0.052
Mof_H 	H 	0.4082	0.5207	0.7524	0.076
Mof_H 	H 	0.4595	0.3583	0.7454	0.008
Mof_H 	H 	0.0811	0.2335	0.4818	-0.04
Mof_H 	H 	0.0438	0.3918	0.4802	0.101
Mof_H 	H 	0.3824	0.717	0.2158	-0.058
Mof_H 	H 	0.3128	0.5645	0.074	0.13
Mof_H 	H 	0.8566	0.5647	0.0698	0.172
Mof_H 	H 	0.9299	0.7255	0.2064	-0.156
Mof_H 	H 	0.7709	0.2147	0.33	-0.031
Mof_H 	H 	0.77	0.3673	0.3184	0.068
Mof_H 	H 	0.4437	0.4456	0.467	0.082
Mof_H 	H 	0.444	0.29	0.4808	0.005
Mof_H 	H 	0.6558	0.4793	0.2476	0.068
Mof_H 	H 	0.7141	0.6417	0.2546	0.008
Mof_H 	H 	0.5993	0.7665	0.5182	-0.054
Mof_H 	H 	0.5636	0.6082	0.5198	0.08
Mof_H 	H 	0.1666	0.283	0.7842	-0.041
Mof_H 	H 	0.2388	0.4355	0.926	0.106
Mof_H 	H 	0.7868	0.4353	0.9302	0.101
Mof_H 	H 	0.7235	0.2745	0.7936	-0.034
Mof_C 	C 	0.1883	0.8622	0.5746	0.498
Mof_C 	C 	0.1997	0.7614	0.5876	-0.208
Mof_C 	C 	0.3485	0.7383	0.6406	0.101
Mof_C 	C 	0.3535	0.6476	0.6474	-0.148
Mof_C 	C 	0.2189	0.5745	0.6058	0.033
Mof_C 	C 	0.0693	0.6	0.5586	-0.077
Mof_C 	C 	0.0618	0.6932	0.5502	0.154
Mof_C 	C 	0.2319	0.4739	0.613	0.08
Mof_C 	C 	0.3469	0.4626	0.6946	-0.149
Mof_C 	C 	0.3744	0.3653	0.693	0.077
Mof_C 	C 	0.2712	0.2795	0.611	-0.173
Mof_C 	C 	0.151	0.291	0.535	0.128
Mof_C 	C 	0.1283	0.3861	0.5338	-0.172
Mof_C 	C 	0.3107	0.1736	0.6038	0.411
Mof_C 	C 	0.2111	0.8378	0.324	0.591
Mof_C 	C 	0.1662	0.7387	0.2262	-0.394
Mof_C 	C 	0.2753	0.6882	0.1846	0.288
Mof_C 	C 	0.2334	0.5969	0.0988	-0.309
Mof_C 	C 	0.0742	0.5495	0.0464	0.218
Mof_C 	C 	0.9614	0.5971	0.0948	-0.467
Mof_C 	C 	0.0071	0.6918	0.1796	0.451
Mof_C 	C 	0.6137	0.1378	0.4254	0.492
Mof_C 	C 	0.6121	0.2386	0.4124	-0.197
Mof_C 	C 	0.7079	0.2617	0.3594	0.096
Mof_C 	C 	0.7061	0.3524	0.3526	-0.161
Mof_C 	C 	0.6131	0.4255	0.3942	0.055
Mof_C 	C 	0.5107	0.4	0.4414	-0.147
Mof_C 	C 	0.5116	0.3068	0.4498	0.09
Mof_C 	C 	0.6189	0.5261	0.387	0.059
Mof_C 	C 	0.6523	0.5374	0.3054	-0.14
Mof_C 	C 	0.6814	0.6347	0.307	0.068
Mof_C 	C 	0.6602	0.7205	0.389	-0.176
Mof_C 	C 	0.616	0.709	0.465	0.119
Mof_C 	C 	0.5945	0.6139	0.4662	-0.166
Mof_C 	C 	0.7069	0.8264	0.3962	0.408
Mof_C 	C 	0.8871	0.1622	0.676	0.567
Mof_C 	C 	0.94	0.2613	0.7738	-0.345
Mof_C 	C 	0.0907	0.3118	0.8154	0.261
Mof_C 	C 	0.1346	0.4031	0.9012	-0.231
Mof_C 	C 	0.0278	0.4505	0.9536	0.108
Mof_C 	C 	0.8666	0.4029	0.9052	-0.251
Mof_C 	C 	0.8275	0.3082	0.8204	0.186
Mof_O 	O 	0.3214	0.9101	0.5892	-0.57
Mof_O 	O 	0.0544	0.89	0.55	-0.488
Mof_O 	O 	0.2288	0.0958	0.5238	-0.587
Mof_O 	O 	0.4282	0.1677	0.6752	-0.461
Mof_O 	O 	0.3611	0.8715	0.3696	-0.543
Mof_O 	O 	0.1084	0.8807	0.3572	-0.581
Mof_O 	O 	0.7322	0.0899	0.4108	-0.573
Mof_O 	O 	0.5044	0.11	0.45	-0.527
Mof_O 	O 	0.705	0.9042	0.4762	-0.601
Mof_O 	O 	0.753	0.8323	0.3248	-0.46
Mof_O 	O 	0.9915	0.1285	0.6304	-0.559
Mof_O 	O 	0.7512	0.1193	0.6428	-0.613
_end
