data_functionalizedCrystal
_audit_creation_method	'EQeq! by Chris Wilmer'
_symmetry_space_group_name_H-M	'P1'
_symmetry_Int_Tables_number	1
_symmetry_cell_setting	triclinic
loop_
_symmetry_equiv_pos_as_xyz
  x,y,z
_cell_length_a	10.9718
_cell_length_b	19.7821
_cell_length_c	20.2668
_cell_angle_alpha	90
_cell_angle_beta	90
_cell_angle_gamma	99.312
loop_
_atom_site_label
_atom_site_type_symbol
_atom_site_fract_x
_atom_site_fract_y
_atom_site_fract_z
_atom_site_charge
Mof_Ce	Ce	0.34233	0.58167	0.37558	1.591
Mof_Ce	Ce	0.03741	0.8442	0.37361	2.033
Mof_Ce	Ce	0.84233	0.08167	0.12442	1.579
Mof_Ce	Ce	0.46259	0.6558	0.87361	2.046
Mof_Ce	Ce	0.15767	0.91833	0.87558	1.579
Mof_Ce	Ce	0.53741	0.3442	0.12639	2.046
Mof_Ce	Ce	0.65767	0.41833	0.62442	1.591
Mof_Ce	Ce	0.96259	0.1558	0.62639	2.033
Mof_Cu	Cu	0.29567	0.58821	0.17389	0.914
Mof_Cu	Cu	0.58106	0.3309	0.32671	0.872
Mof_Cu	Cu	0.08106	0.8309	0.17329	0.872
Mof_Cu	Cu	0.20433	0.91179	0.67389	0.913
Mof_Cu	Cu	0.70433	0.41179	0.82611	0.915
Mof_Cu	Cu	0.91894	0.1691	0.82671	0.873
Mof_Cu	Cu	0.41894	0.6691	0.67329	0.873
Mof_Cu	Cu	0.79567	0.08821	0.32611	0.914
Mof_H 	H 	0.6089	0.7452	0.3101	0.032
Mof_H 	H 	0.2312	0.3248	0.6821	0.02
Mof_H 	H 	0.3716	0.9947	0.3053	0.036
Mof_H 	H 	0.4166	0.0652	0.5772	0.056
Mof_H 	H 	0.1089	0.2452	0.1899	0.031
Mof_H 	H 	0.9876	0.5745	0.6855	0.006
Mof_H 	H 	0.1284	0.5053	0.8053	0.037
Mof_H 	H 	0.2688	0.1752	0.1821	0.02
Mof_H 	H 	0.8716	0.4947	0.1947	0.037
Mof_H 	H 	0.0124	0.4255	0.3145	0.006
Mof_H 	H 	0.5834	0.9348	0.4228	0.056
Mof_H 	H 	0.8911	0.7548	0.8101	0.031
Mof_H 	H 	0.7688	0.6752	0.3179	0.02
Mof_H 	H 	0.6284	0.0053	0.6947	0.036
Mof_H 	H 	0.5124	0.9255	0.1855	0.007
Mof_H 	H 	0.3911	0.2548	0.6899	0.032
Mof_H 	H 	0.4876	0.0745	0.8145	0.007
Mof_H 	H 	0.0834	0.4348	0.0772	0.056
Mof_H 	H 	0.7312	0.8248	0.8179	0.02
Mof_H 	H 	0.9166	0.5652	0.9228	0.056
Mof_C 	C 	0.0764	0.5515	0.9656	-0.067
Mof_C 	C 	0.4503	0.0388	0.5462	0.008
Mof_C 	C 	0.65	0.9689	0.7187	0.004
Mof_C 	C 	0.4681	0.1107	0.7896	0.017
Mof_C 	C 	0.8894	0.6502	0.2501	-0.121
Mof_C 	C 	0.6106	0.8498	0.7501	-0.12
Mof_C 	C 	0.4875	0.7698	0.2427	-0.087
Mof_C 	C 	0.8232	0.0511	0.7672	0.43
Mof_C 	C 	0.7536	0.9798	0.7594	-0.097
Mof_C 	C 	0.7972	0.5284	0.7589	0.421
Mof_C 	C 	0.0497	0.4612	0.0462	0.009
Mof_C 	C 	0.0898	0.2813	0.2153	0.007
Mof_C 	C 	0.8363	0.6549	0.7894	-0.036
Mof_C 	C 	0.8441	0.3948	0.0739	0.379
Mof_C 	C 	0.8421	0.3217	0.3346	0.339
Mof_C 	C 	0.7464	0.5202	0.2594	-0.1
Mof_C 	C 	0.9102	0.7187	0.7847	0.007
Mof_C 	C 	0.874	0.4878	0.987	-0.031
Mof_C 	C 	0.581	0.3006	0.7666	0.387
Mof_C 	C 	0.2856	0.4245	0.7041	-0.057
Mof_C 	C 	0.7834	0.8527	0.3274	0.315
Mof_C 	C 	0.919	0.1994	0.2666	0.387
Mof_C 	C 	0.2972	0.0284	0.7411	0.426
Mof_C 	C 	0.419	0.6994	0.2334	0.387
Mof_C 	C 	0.2613	0.523	0.0299	0.317
Mof_C 	C 	0.1768	0.9489	0.2328	0.43
Mof_C 	C 	0.7856	0.9245	0.7959	-0.057
Mof_C 	C 	0.9503	0.5388	0.9538	0.009
Mof_C 	C 	0.6559	0.1052	0.5739	0.378
Mof_C 	C 	0.0125	0.7302	0.7427	-0.092
Mof_C 	C 	0.4067	0.4308	0.6686	0.297
Mof_C 	C 	0.3653	0.1002	0.7483	-0.105
Mof_C 	C 	0.3363	0.1549	0.7106	-0.034
Mof_C 	C 	0.5374	0.1053	0.3278	0.329
Mof_C 	C 	0.3894	0.1502	0.2499	-0.12
Mof_C 	C 	0.5125	0.2302	0.7573	-0.087
Mof_C 	C 	0.2166	0.1473	0.6726	0.315
Mof_C 	C 	0.9567	0.7214	0.2405	0.433
Mof_C 	C 	0.7876	0.6394	0.2922	0.006
Mof_C 	C 	0.0374	0.6053	0.1722	0.328
Mof_C 	C 	0.9067	0.9308	0.8314	0.297
Mof_C 	C 	0.4626	0.8947	0.6722	0.329
Mof_C 	C 	0.2124	0.3606	0.7078	0.006
Mof_C 	C 	0.4567	0.2214	0.2595	0.43
Mof_C 	C 	0.0933	0.0692	0.1686	0.297
Mof_C 	C 	0.8653	0.6002	0.7517	-0.104
Mof_C 	C 	0.0319	0.3893	0.2896	0.019
Mof_C 	C 	0.1106	0.3498	0.7499	-0.121
Mof_C 	C 	0.2144	0.0755	0.2041	-0.057
Mof_C 	C 	0.626	0.0122	0.487	-0.032
Mof_C 	C 	0.0433	0.2786	0.7595	0.433
Mof_C 	C 	0.3421	0.8217	0.1654	0.339
Mof_C 	C 	0.6637	0.8451	0.2894	-0.034
Mof_C 	C 	0.7124	0.8606	0.7922	0.006
Mof_C 	C 	0.6579	0.1783	0.8346	0.339
Mof_C 	C 	0.7166	0.6473	0.8274	0.317
Mof_C 	C 	0.5933	0.5692	0.3314	0.297
Mof_C 	C 	0.7028	0.9716	0.2589	0.426
Mof_C 	C 	0.7387	0.477	0.9701	0.317
Mof_C 	C 	0.374	0.9878	0.513	-0.032
Mof_C 	C 	0.1579	0.6783	0.6654	0.339
Mof_C 	C 	0.9626	0.3947	0.8278	0.328
Mof_C 	C 	0.9681	0.6107	0.7104	0.019
Mof_C 	C 	0.9875	0.2698	0.2573	-0.092
Mof_C 	C 	0.0415	0.6743	0.706	-0.066
Mof_C 	C 	0.5784	0.9042	0.7136	-0.046
Mof_C 	C 	0.9585	0.3257	0.294	-0.066
Mof_C 	C 	0.85	0.5311	0.2187	0.002
Mof_C 	C 	0.4236	0.9485	0.4656	-0.065
Mof_C 	C 	0.7613	0.023	0.4701	0.311
Mof_C 	C 	0.2834	0.3527	0.1726	0.317
Mof_C 	C 	0.3441	0.8948	0.4261	0.378
Mof_C 	C 	0.2876	0.1394	0.2078	0.006
Mof_C 	C 	0.2536	0.4798	0.7406	-0.1
Mof_C 	C 	0.15	0.4689	0.7813	0.002
Mof_C 	C 	0.126	0.5122	0.013	-0.031
Mof_C 	C 	0.4216	0.0958	0.2864	-0.046
Mof_C 	C 	0.6347	0.8998	0.2517	-0.105
Mof_C 	C 	0.2387	0.977	0.5299	0.311
Mof_C 	C 	0.2464	0.0202	0.2406	-0.097
Mof_C 	C 	0.2028	0.4716	0.2411	0.421
Mof_C 	C 	0.6768	0.4489	0.2672	0.434
Mof_C 	C 	0.35	0.0311	0.2813	0.004
Mof_C 	C 	0.5764	0.0515	0.5344	-0.065
Mof_C 	C 	0.4102	0.2187	0.7153	0.001
Mof_C 	C 	0.0784	0.4042	0.7864	-0.044
Mof_C 	C 	0.5497	0.9612	0.4538	0.008
Mof_C 	C 	0.7144	0.5755	0.2959	-0.057
Mof_C 	C 	0.9236	0.4485	0.0344	-0.067
Mof_C 	C 	0.1347	0.3998	0.2483	-0.104
Mof_C 	C 	0.5898	0.7813	0.2847	0.001
Mof_C 	C 	0.5415	0.1743	0.794	-0.065
Mof_C 	C 	0.4585	0.8257	0.206	-0.065
Mof_C 	C 	0.5433	0.7786	0.7405	0.43
Mof_C 	C 	0.1559	0.6052	0.9261	0.379
Mof_C 	C 	0.081	0.8006	0.7334	0.387
Mof_C 	C 	0.3232	0.5511	0.7328	0.434
Mof_C 	C 	0.9216	0.5958	0.2136	-0.044
Mof_C 	C 	0.5319	0.8893	0.2104	0.017
Mof_C 	C 	0.1637	0.3451	0.2106	-0.036
Mof_O 	O 	0.679	0.5225	0.9904	-0.29
Mof_O 	O 	0.0824	0.1054	0.11803	-0.447
Mof_O 	O 	0.1237	0.816	0.67686	-0.414
Mof_O 	O 	0.8371	0.0736	0.8257	-0.462
Mof_O 	O 	0.1408	0.9151	0.28308	-0.542
Mof_O 	O 	0.7204	0.993	0.3172	-0.414
Mof_O 	O 	0.1232	0.11068	0.69868	-0.433
Mof_O 	O 	0.7312	0.0065	0.2079	-0.54
Mof_O 	O 	0.9999	0.2637	0.8158	-0.446
Mof_O 	O 	0.2587	0.6976	0.69707	-0.391
Mof_O 	O 	0.3592	0.5849	0.78308	-0.543
Mof_O 	O 	0.7283	0.3956	0.07398	-0.536
Mof_O 	O 	0.8763	0.184	0.32314	-0.414
Mof_O 	O 	0.4999	0.7637	0.6842	-0.443
Mof_O 	O 	0.5296	0.1019	0.3881	-0.262
Mof_O 	O 	0.2283	0.8956	0.42602	-0.534
Mof_O 	O 	0.821	0.9775	0.4904	-0.285
Mof_O 	O 	0.2312	0.5065	0.2921	-0.537
Mof_O 	O 	0.6629	0.4264	0.3257	-0.462
Mof_O 	O 	0.1502	0.6601	0.6072	-0.346
Mof_O 	O 	0.3945	0.8524	0.394	-0.323
Mof_O 	O 	0.9998	0.9687	0.80619	-0.408
Mof_O 	O 	0.6375	0.1136	0.295	-0.388
Mof_O 	O 	0.3371	0.5736	0.6743	-0.462
Mof_O 	O 	0.3768	0.38932	0.19868	-0.437
Mof_O 	O 	0.4176	0.3946	0.61803	-0.451
Mof_O 	O 	0.2688	0.9935	0.7921	-0.54
Mof_O 	O 	0.0001	0.7363	0.1842	-0.446
Mof_O 	O 	0.8592	0.0849	0.71692	-0.542
Mof_O 	O 	0.7796	0.507	0.8172	-0.415
Mof_O 	O 	0.8498	0.3399	0.3928	-0.346
Mof_O 	O 	0.8945	0.3524	0.106	-0.324
Mof_O 	O 	0.5002	0.5313	0.30619	-0.413
Mof_O 	O 	0.4102	0.6587	0.28142	-0.509
Mof_O 	O 	0.1932	0.926	0.56485	-0.36
Mof_O 	O 	0.6408	0.4151	0.21692	-0.543
Mof_O 	O 	0.3625	0.8864	0.705	-0.388
Mof_O 	O 	0.0002	0.0313	0.19381	-0.408
Mof_O 	O 	0.6502	0.1601	0.8928	-0.345
Mof_O 	O 	0.2078	0.1789	0.61966	-0.436
Mof_O 	O 	0.7922	0.8211	0.38034	-0.436
Mof_O 	O 	0.5379	0.7374	0.7876	-0.587
Mof_O 	O 	0.4998	0.4687	0.69381	-0.413
Mof_O 	O 	0.7688	0.4935	0.7079	-0.537
Mof_O 	O 	0.0898	0.8413	0.78142	-0.511
Mof_O 	O 	0.9704	0.3981	0.8881	-0.262
Mof_O 	O 	0.7717	0.1044	0.57398	-0.534
Mof_O 	O 	0.8068	0.074	0.43515	-0.36
Mof_O 	O 	0.6237	0.316	0.82314	-0.413
Mof_O 	O 	0.1055	0.6476	0.894	-0.324
Mof_O 	O 	0.5898	0.3413	0.71858	-0.509
Mof_O 	O 	0.0296	0.6019	0.1119	-0.262
Mof_O 	O 	0.5824	0.6054	0.38197	-0.451
Mof_O 	O 	0.6055	0.1476	0.606	-0.323
Mof_O 	O 	0.3498	0.8399	0.1072	-0.345
Mof_O 	O 	0.2717	0.6044	0.92602	-0.536
Mof_O 	O 	0.7413	0.3024	0.30293	-0.391
Mof_O 	O 	0.4704	0.8981	0.6119	-0.262
Mof_O 	O 	0.8625	0.3864	0.795	-0.388
Mof_O 	O 	0.2922	0.3211	0.11966	-0.439
Mof_O 	O 	0.7078	0.6789	0.88034	-0.439
Mof_O 	O 	0.9102	0.1587	0.21858	-0.511
Mof_O 	O 	0.0379	0.2374	0.7124	-0.584
Mof_O 	O 	0.2796	0.007	0.6828	-0.414
Mof_O 	O 	0.1375	0.6136	0.205	-0.388
Mof_O 	O 	0.2413	0.8024	0.19707	-0.391
Mof_O 	O 	0.9176	0.8946	0.88197	-0.447
Mof_O 	O 	0.1629	0.9264	0.1743	-0.462
Mof_O 	O 	0.179	0.0225	0.5096	-0.285
Mof_O 	O 	0.321	0.4775	0.0096	-0.29
Mof_O 	O 	0.8768	0.88932	0.30132	-0.433
Mof_O 	O 	0.7587	0.1976	0.80293	-0.391
Mof_O 	O 	0.5001	0.2363	0.3158	-0.443
Mof_O 	O 	0.9621	0.7626	0.2876	-0.584
Mof_O 	O 	0.2204	0.493	0.1828	-0.415
Mof_O 	O 	0.3068	0.574	0.06485	-0.359
Mof_O 	O 	0.3763	0.684	0.17686	-0.413
Mof_O 	O 	0.6232	0.61068	0.80132	-0.437
Mof_O 	O 	0.4621	0.2626	0.2124	-0.587
Mof_O 	O 	0.6932	0.426	0.93515	-0.359
_end
