data_functionalizedCrystal
_audit_creation_method	'EQeq! by Chris Wilmer'
_symmetry_space_group_name_H-M	'P1'
_symmetry_Int_Tables_number	1
_symmetry_cell_setting	triclinic
loop_
_symmetry_equiv_pos_as_xyz
  x,y,z
_cell_length_a	10.1514
_cell_length_b	18.9094
_cell_length_c	21.102
_cell_angle_alpha	115.324
_cell_angle_beta	101.694
_cell_angle_gamma	94.8454
loop_
_atom_site_label
_atom_site_type_symbol
_atom_site_fract_x
_atom_site_fract_y
_atom_site_fract_z
_atom_site_charge
Mof_Tb	Tb	0.05676	0.06323	0.61436	2.036
Mof_Tb	Tb	0.12645	0.10949	0.93874	1.797
Mof_Tb	Tb	0.0576	0.55113	0.61436	2.054
Mof_Tb	Tb	0.31229	0.82925	0.93874	1.822
Mof_Tb	Tb	0.94324	0.93677	0.38564	2.036
Mof_Tb	Tb	0.87355	0.89051	0.06126	1.797
Mof_Tb	Tb	0.9424	0.44887	0.38564	2.054
Mof_Tb	Tb	0.68771	0.17075	0.06126	1.822
Mof_Tb	Tb	0.03099	0.28099	0.56198	2.115
Mof_Tb	Tb	0.96901	0.71901	0.43802	2.115
Mof_S 	S 	0.16184	0.10195	0.4662	0.828
Mof_S 	S 	0.38655	0.02383	0.92918	0.758
Mof_S 	S 	0.76603	0.09156	0.49648	0.879
Mof_S 	S 	0.07617	0.09062	0.77618	0.65
Mof_S 	S 	0.2125	0.24699	0.68658	0.673
Mof_S 	S 	0.40711	0.27352	0.04672	0.508
Mof_S 	S 	0.80436	0.36425	0.4662	0.829
Mof_S 	S 	0.04263	0.90535	0.92918	0.766
Mof_S 	S 	0.23045	0.40492	0.49648	0.881
Mof_S 	S 	0.20001	0.68556	0.77618	0.66
Mof_S 	S 	0.97408	0.43959	0.68658	0.68
Mof_S 	S 	0.13961	0.7732	0.04672	0.511
Mof_S 	S 	0.83816	0.89805	0.5338	0.828
Mof_S 	S 	0.61345	0.97617	0.07082	0.758
Mof_S 	S 	0.23397	0.90844	0.50352	0.879
Mof_S 	S 	0.92383	0.90938	0.22382	0.65
Mof_S 	S 	0.7875	0.75301	0.31342	0.673
Mof_S 	S 	0.59289	0.72648	0.95328	0.508
Mof_S 	S 	0.19564	0.63575	0.5338	0.829
Mof_S 	S 	0.95737	0.09465	0.07082	0.766
Mof_S 	S 	0.76955	0.59508	0.50352	0.881
Mof_S 	S 	0.79999	0.31444	0.22382	0.66
Mof_S 	S 	0.02592	0.56041	0.31342	0.68
Mof_S 	S 	0.86039	0.2268	0.95328	0.511
Mof_O 	O 	0.82323	0.07823	0.55998	-0.511
Mof_O 	O 	0.0823	0.0703	0.50432	-0.636
Mof_O 	O 	0.7857	0.0279	0.43	-0.524
Mof_O 	O 	0.29615	0.03355	0.8703	-0.436
Mof_O 	O 	0.1344	0.1819	0.47972	-0.513
Mof_O 	O 	0.06096	0.21676	0.65022	-0.56
Mof_O 	O 	0.83615	0.16995	0.5089	-0.52
Mof_O 	O 	0.61836	0.09166	0.48892	-0.329
Mof_O 	O 	0.15737	0.16017	0.84534	-0.424
Mof_O 	O 	0.53072	0.06102	0.94324	-0.464
Mof_O 	O 	0.10571	0.04651	0.38804	-0.485
Mof_O 	O 	0.27279	0.17509	0.67378	-0.446
Mof_O 	O 	0.97674	0.11824	0.73468	-0.42
Mof_O 	O 	0.00811	0.03531	0.79742	-0.423
Mof_O 	O 	0.30745	0.10565	0.4907	-0.333
Mof_O 	O 	0.33702	0.06472	0.99504	-0.471
Mof_O 	O 	0.3794	0.9382	0.9077	-0.471
Mof_O 	O 	0.16621	0.05291	0.72962	-0.44
Mof_O 	O 	0.25962	0.29022	0.64904	-0.441
Mof_O 	O 	0.23532	0.29792	0.76364	-0.325
Mof_O 	O 	0.359	0.2166	0.9692	-0.367
Mof_O 	O 	0.4035	0.3327	0.0126	-0.238
Mof_O 	O 	0.2752	0.2352	0.051	-0.385
Mof_O 	O 	0.4335	0.341	0.1176	-0.295
Mof_O 	O 	0.23675	0.48175	0.55998	-0.516
Mof_O 	O 	0.92202	0.43402	0.50432	-0.636
Mof_O 	O 	0.1443	0.4021	0.43	-0.53
Mof_O 	O 	0.07415	0.83675	0.8703	-0.435
Mof_O 	O 	0.84532	0.29782	0.47972	-0.511
Mof_O 	O 	0.08926	0.43346	0.65022	-0.561
Mof_O 	O 	0.17275	0.33895	0.5089	-0.523
Mof_O 	O 	0.37056	0.39726	0.48892	-0.329
Mof_O 	O 	0.18797	0.68517	0.84534	-0.426
Mof_O 	O 	0.91252	0.88222	0.94324	-0.463
Mof_O 	O 	0.78233	0.34153	0.38804	-0.484
Mof_O 	O 	0.90099	0.49869	0.67378	-0.448
Mof_O 	O 	0.25794	0.61644	0.73468	-0.431
Mof_O 	O 	0.28931	0.76211	0.79742	-0.42
Mof_O 	O 	0.68325	0.38505	0.4907	-0.333
Mof_O 	O 	0.15802	0.93032	0.99504	-0.468
Mof_O 	O 	0.0283	0.9695	0.9077	-0.469
Mof_O 	O 	0.06341	0.67671	0.72962	-0.44
Mof_O 	O 	0.88942	0.35882	0.64904	-0.441
Mof_O 	O 	0.02832	0.46572	0.76364	-0.328
Mof_O 	O 	0.1102	0.7526	0.9692	-0.367
Mof_O 	O 	0.1091	0.6799	0.0126	-0.237
Mof_O 	O 	0.2758	0.8158	0.051	-0.389
Mof_O 	O 	0.1841	0.7766	0.1176	-0.294
Mof_O 	O 	0.17677	0.92177	0.44002	-0.511
Mof_O 	O 	0.9177	0.9297	0.49568	-0.636
Mof_O 	O 	0.2143	0.9721	0.57	-0.524
Mof_O 	O 	0.70385	0.96645	0.1297	-0.436
Mof_O 	O 	0.8656	0.8181	0.52028	-0.513
Mof_O 	O 	0.93904	0.78324	0.34978	-0.56
Mof_O 	O 	0.16385	0.83005	0.4911	-0.52
Mof_O 	O 	0.38164	0.90834	0.51108	-0.329
Mof_O 	O 	0.84263	0.83983	0.15466	-0.424
Mof_O 	O 	0.46928	0.93898	0.05676	-0.464
Mof_O 	O 	0.89429	0.95349	0.61196	-0.485
Mof_O 	O 	0.72721	0.82491	0.32622	-0.446
Mof_O 	O 	0.02326	0.88176	0.26532	-0.42
Mof_O 	O 	0.99189	0.96469	0.20258	-0.423
Mof_O 	O 	0.69255	0.89435	0.5093	-0.333
Mof_O 	O 	0.66298	0.93528	0.00496	-0.471
Mof_O 	O 	0.6206	0.0618	0.0923	-0.471
Mof_O 	O 	0.83379	0.94709	0.27038	-0.44
Mof_O 	O 	0.74038	0.70978	0.35096	-0.441
Mof_O 	O 	0.76468	0.70208	0.23636	-0.325
Mof_O 	O 	0.641	0.7834	0.0308	-0.367
Mof_O 	O 	0.5965	0.6673	0.9874	-0.238
Mof_O 	O 	0.7248	0.7648	0.949	-0.385
Mof_O 	O 	0.5665	0.659	0.8824	-0.295
Mof_O 	O 	0.76325	0.51825	0.44002	-0.516
Mof_O 	O 	0.07798	0.56598	0.49568	-0.636
Mof_O 	O 	0.8557	0.5979	0.57	-0.53
Mof_O 	O 	0.92585	0.16325	0.1297	-0.435
Mof_O 	O 	0.15468	0.70218	0.52028	-0.511
Mof_O 	O 	0.91074	0.56654	0.34978	-0.561
Mof_O 	O 	0.82725	0.66105	0.4911	-0.523
Mof_O 	O 	0.62944	0.60274	0.51108	-0.329
Mof_O 	O 	0.81203	0.31483	0.15466	-0.426
Mof_O 	O 	0.08748	0.11778	0.05676	-0.463
Mof_O 	O 	0.21767	0.65847	0.61196	-0.484
Mof_O 	O 	0.09901	0.50131	0.32622	-0.448
Mof_O 	O 	0.74206	0.38356	0.26532	-0.431
Mof_O 	O 	0.71069	0.23789	0.20258	-0.42
Mof_O 	O 	0.31675	0.61495	0.5093	-0.333
Mof_O 	O 	0.84198	0.06968	0.00496	-0.468
Mof_O 	O 	0.9717	0.0305	0.0923	-0.469
Mof_O 	O 	0.93659	0.32329	0.27038	-0.44
Mof_O 	O 	0.11058	0.64118	0.35096	-0.441
Mof_O 	O 	0.97168	0.53428	0.23636	-0.328
Mof_O 	O 	0.8898	0.2474	0.0308	-0.367
Mof_O 	O 	0.8909	0.3201	0.9874	-0.237
Mof_O 	O 	0.7242	0.1842	0.949	-0.389
Mof_O 	O 	0.8159	0.2234	0.8824	-0.294
Mof_H 	H 	0.0279	0.3949	0.1772	0.126
Mof_H 	H 	0.0238	0.3293	0.108	0.135
Mof_H 	H 	0.0638	0.4411	0.1056	0.149
Mof_H 	H 	0.1968	0.4665	0.1692	0.148
Mof_H 	H 	0.1859	0.3959	0.0928	0.154
Mof_H 	H 	0.1099	0.3027	0.1966	0.165
Mof_H 	H 	0.217	0.3045	0.153	0.172
Mof_H 	H 	0.2272	0.3777	0.2278	0.149
Mof_C 	C 	0.1358	0.4222	0.1274	-0.354
Mof_C 	C 	0.1654	0.336	0.1842	-0.378
Mof_N 	N 	0.0805	0.3698	0.1482	-0.127
Mof_H 	H 	0.5762	0.4439	0.4036	0.139
Mof_H 	H 	0.4637	0.4158	0.4252	0.156
Mof_H 	H 	0.5231	0.3092	0.3418	0.155
Mof_H 	H 	0.3731	0.3152	0.3106	0.133
Mof_H 	H 	0.4944	0.3455	0.2872	0.143
Mof_H 	H 	0.4223	0.524	0.4122	0.178
Mof_H 	H 	0.4327	0.4808	0.3318	0.143
Mof_H 	H 	0.3106	0.4497	0.3542	0.151
Mof_C 	C 	0.4677	0.3407	0.3266	-0.337
Mof_C 	C 	0.4062	0.4733	0.37	-0.354
Mof_N 	N 	0.48691	0.42091	0.38822	-0.161
Mof_H 	H 	0.7694	0.943	0.9004	0.142
Mof_H 	H 	0.7344	0.0343	0.86	0.105
Mof_H 	H 	0.759	0.9571	0.7984	0.113
Mof_H 	H 	0.6096	0.9727	0.7976	0.112
Mof_H 	H 	0.631	0.9574	0.9004	0.142
Mof_H 	H 	0.6256	0.8257	0.86	0.102
Mof_H 	H 	0.5394	0.8413	0.7984	0.112
Mof_H 	H 	0.688	0.8249	0.7976	0.109
Mof_C 	C 	0.6983	0.9787	0.828	-0.269
Mof_C 	C 	0.6297	0.8493	0.828	-0.262
Mof_N 	N 	0.68583	0.93583	0.87166	-0.184
Mof_H 	H 	0.8734	0.0748	0.2248	0.13
Mof_H 	H 	0.6928	0.1072	0.2642	0.137
Mof_H 	H 	0.8088	0.1066	0.3254	0.137
Mof_H 	H 	0.7847	0.1877	0.326	0.146
Mof_H 	H 	0.8514	0.15	0.2248	0.128
Mof_H 	H 	0.0714	0.157	0.2642	0.137
Mof_H 	H 	0.0166	0.2188	0.3254	0.135
Mof_H 	H 	0.0413	0.1383	0.326	0.146
Mof_C 	C 	0.7833	0.1325	0.2956	-0.314
Mof_C 	C 	0.0123	0.1631	0.2956	-0.318
Mof_N 	N 	0.8767	0.1267	0.2534	-0.147
Mof_H 	H 	0.9519	0.2535	0.8394	0.126
Mof_H 	H 	0.0437	0.2572	0.7964	0.12
Mof_H 	H 	0.837	0.2569	0.7448	0.141
Mof_H 	H 	0.8396	0.3358	0.8134	0.143
Mof_H 	H 	0.9367	0.3356	0.7644	0.158
Mof_H 	H 	0.1543	0.3241	0.9144	0.152
Mof_H 	H 	0.1483	0.3823	0.8792	0.153
Mof_H 	H 	0.0466	0.3801	0.9254	0.148
Mof_C 	C 	0.8942	0.305	0.7838	-0.343
Mof_C 	C 	0.0948	0.3486	0.892	-0.372
Mof_N 	N 	0.9949	0.286	0.8258	-0.131
Mof_H 	H 	0.6493	0.7823	0.1772	0.125
Mof_H 	H 	0.5842	0.7787	0.108	0.135
Mof_H 	H 	0.5418	0.6645	0.1056	0.147
Mof_H 	H 	0.4724	0.7027	0.1692	0.147
Mof_H 	H 	0.4069	0.6969	0.0928	0.153
Mof_H 	H 	0.5867	0.8939	0.1966	0.164
Mof_H 	H 	0.436	0.8485	0.153	0.172
Mof_H 	H 	0.5006	0.8501	0.2278	0.149
Mof_C 	C 	0.4916	0.7052	0.1274	-0.352
Mof_C 	C 	0.5188	0.8482	0.1842	-0.378
Mof_N 	N 	0.5677	0.7784	0.1482	-0.127
Mof_H 	H 	0.3274	0.9597	0.4036	0.14
Mof_H 	H 	0.4615	0.0094	0.4252	0.155
Mof_H 	H 	0.3187	0.0326	0.3418	0.153
Mof_H 	H 	0.4375	0.9954	0.3106	0.13
Mof_H 	H 	0.2928	0.9417	0.2872	0.142
Mof_H 	H 	0.4899	0.8882	0.4122	0.177
Mof_H 	H 	0.3991	0.851	0.3318	0.143
Mof_H 	H 	0.5436	0.9045	0.3542	0.151
Mof_C 	C 	0.3589	0.9859	0.3266	-0.331
Mof_C 	C 	0.4638	0.8967	0.37	-0.354
Mof_N 	N 	0.40131	0.96731	0.38822	-0.162
Mof_H 	H 	0.3875	0.5859	0.8394	0.126
Mof_H 	H 	0.2527	0.5392	0.7964	0.126
Mof_H 	H 	0.4078	0.4879	0.7448	0.137
Mof_H 	H 	0.4738	0.4776	0.8134	0.14
Mof_H 	H 	0.3277	0.4288	0.7644	0.154
Mof_H 	H 	0.2601	0.5903	0.9144	0.149
Mof_H 	H 	0.2309	0.4969	0.8792	0.149
Mof_H 	H 	0.3788	0.5453	0.9254	0.147
Mof_C 	C 	0.3896	0.4788	0.7838	-0.336
Mof_C 	C 	0.2972	0.5434	0.892	-0.36
Mof_N 	N 	0.3309	0.5398	0.8258	-0.141
Mof_H 	H 	0.9721	0.6051	0.8228	0.126
Mof_H 	H 	0.9762	0.6707	0.892	0.135
Mof_H 	H 	0.9362	0.5589	0.8944	0.149
Mof_H 	H 	0.8032	0.5335	0.8308	0.148
Mof_H 	H 	0.8141	0.6041	0.9072	0.154
Mof_H 	H 	0.8901	0.6973	0.8034	0.165
Mof_H 	H 	0.783	0.6955	0.847	0.172
Mof_H 	H 	0.7728	0.6223	0.7722	0.149
Mof_C 	C 	0.8642	0.5778	0.8726	-0.354
Mof_C 	C 	0.8346	0.664	0.8158	-0.378
Mof_N 	N 	0.9195	0.6302	0.8518	-0.127
Mof_H 	H 	0.4238	0.5561	0.5964	0.139
Mof_H 	H 	0.5363	0.5842	0.5748	0.156
Mof_H 	H 	0.4769	0.6908	0.6582	0.155
Mof_H 	H 	0.6269	0.6848	0.6894	0.133
Mof_H 	H 	0.5056	0.6545	0.7128	0.143
Mof_H 	H 	0.5777	0.476	0.5878	0.178
Mof_H 	H 	0.5673	0.5192	0.6682	0.143
Mof_H 	H 	0.6894	0.5503	0.6458	0.151
Mof_C 	C 	0.5323	0.6593	0.6734	-0.337
Mof_C 	C 	0.5938	0.5267	0.63	-0.354
Mof_N 	N 	0.51309	0.57909	0.61178	-0.161
Mof_H 	H 	0.2306	0.057	0.0996	0.142
Mof_H 	H 	0.2656	0.9657	0.14	0.105
Mof_H 	H 	0.241	0.0429	0.2016	0.113
Mof_H 	H 	0.3904	0.0273	0.2024	0.112
Mof_H 	H 	0.369	0.0426	0.0996	0.142
Mof_H 	H 	0.3744	0.1743	0.14	0.102
Mof_H 	H 	0.4606	0.1587	0.2016	0.112
Mof_H 	H 	0.312	0.1751	0.2024	0.109
Mof_C 	C 	0.3017	0.0213	0.172	-0.269
Mof_C 	C 	0.3703	0.1507	0.172	-0.262
Mof_N 	N 	0.31417	0.06417	0.12834	-0.184
Mof_H 	H 	0.1266	0.9252	0.7752	0.13
Mof_H 	H 	0.3072	0.8928	0.7358	0.137
Mof_H 	H 	0.1912	0.8934	0.6746	0.137
Mof_H 	H 	0.2153	0.8123	0.674	0.146
Mof_H 	H 	0.1486	0.85	0.7752	0.128
Mof_H 	H 	0.9286	0.843	0.7358	0.137
Mof_H 	H 	0.9834	0.7812	0.6746	0.135
Mof_H 	H 	0.9587	0.8617	0.674	0.146
Mof_C 	C 	0.2167	0.8675	0.7044	-0.314
Mof_C 	C 	0.9877	0.8369	0.7044	-0.318
Mof_N 	N 	0.1233	0.8733	0.7466	-0.147
Mof_H 	H 	0.0481	0.7465	0.1606	0.126
Mof_H 	H 	0.9563	0.7428	0.2036	0.12
Mof_H 	H 	0.163	0.7431	0.2552	0.141
Mof_H 	H 	0.1604	0.6642	0.1866	0.143
Mof_H 	H 	0.0633	0.6644	0.2356	0.158
Mof_H 	H 	0.8457	0.6759	0.0856	0.152
Mof_H 	H 	0.8517	0.6177	0.1208	0.153
Mof_H 	H 	0.9534	0.6199	0.0746	0.148
Mof_C 	C 	0.1058	0.695	0.2162	-0.343
Mof_C 	C 	0.9052	0.6514	0.108	-0.372
Mof_N 	N 	0.0051	0.714	0.1742	-0.131
Mof_H 	H 	0.3507	0.2177	0.8228	0.125
Mof_H 	H 	0.4158	0.2213	0.892	0.135
Mof_H 	H 	0.4582	0.3355	0.8944	0.147
Mof_H 	H 	0.5276	0.2973	0.8308	0.147
Mof_H 	H 	0.5931	0.3031	0.9072	0.153
Mof_H 	H 	0.4133	0.1061	0.8034	0.164
Mof_H 	H 	0.564	0.1515	0.847	0.172
Mof_H 	H 	0.4994	0.1499	0.7722	0.149
Mof_C 	C 	0.5084	0.2948	0.8726	-0.352
Mof_C 	C 	0.4812	0.1518	0.8158	-0.378
Mof_N 	N 	0.4323	0.2216	0.8518	-0.127
Mof_H 	H 	0.6726	0.0403	0.5964	0.14
Mof_H 	H 	0.5385	0.9906	0.5748	0.155
Mof_H 	H 	0.6813	0.9674	0.6582	0.153
Mof_H 	H 	0.5625	0.0046	0.6894	0.13
Mof_H 	H 	0.7072	0.0583	0.7128	0.142
Mof_H 	H 	0.5101	0.1118	0.5878	0.177
Mof_H 	H 	0.6009	0.149	0.6682	0.143
Mof_H 	H 	0.4564	0.0955	0.6458	0.151
Mof_C 	C 	0.6411	0.0141	0.6734	-0.331
Mof_C 	C 	0.5362	0.1033	0.63	-0.354
Mof_N 	N 	0.59869	0.03269	0.61178	-0.162
Mof_H 	H 	0.6125	0.4141	0.1606	0.126
Mof_H 	H 	0.7473	0.4608	0.2036	0.126
Mof_H 	H 	0.5922	0.5121	0.2552	0.137
Mof_H 	H 	0.5262	0.5224	0.1866	0.14
Mof_H 	H 	0.6723	0.5712	0.2356	0.154
Mof_H 	H 	0.7399	0.4097	0.0856	0.149
Mof_H 	H 	0.7691	0.5031	0.1208	0.149
Mof_H 	H 	0.6212	0.4547	0.0746	0.147
Mof_C 	C 	0.6104	0.5212	0.2162	-0.336
Mof_C 	C 	0.7028	0.4566	0.108	-0.36
Mof_N 	N 	0.6691	0.4602	0.1742	-0.141
_end
