data_functionalizedCrystal
_audit_creation_method	'EQeq! by Chris Wilmer'
_symmetry_space_group_name_H-M	'P1'
_symmetry_Int_Tables_number	1
_symmetry_cell_setting	triclinic
loop_
_symmetry_equiv_pos_as_xyz
  x,y,z
_cell_length_a	11.9464
_cell_length_b	11.9464
_cell_length_c	11.9464
_cell_angle_alpha	113.14
_cell_angle_beta	113.14
_cell_angle_gamma	113.14
loop_
_atom_site_label
_atom_site_type_symbol
_atom_site_fract_x
_atom_site_fract_y
_atom_site_fract_z
_atom_site_charge
Mof_P 	P 	0.2258	0.1347	0.3829	0.524
Mof_C 	C 	0.2679	0.0018	0.3135	-0.32
Mof_C 	C 	0.3167	0.8308	0.3424	-0.053
Mof_C 	C 	0.5302	0.1441	0.5731	-0.111
Mof_N 	N 	0.3792	0.9992	0.4181	0.031
Mof_O 	O 	0.3651	0.3034	0.4553	-0.722
Mof_O 	O 	0.1951	0.1285	0.499	-0.297
Mof_O 	O 	0.0868	0.0705	0.2132	-0.818
Mof_H 	H 	0.31192	0.02562	0.25006	0.059
Mof_H 	H 	0.23917	0.77226	0.36697	0.036
Mof_H 	H 	0.55651	0.2391	0.56075	0.062
Mof_H 	H 	0.75121	0.2458	0.79144	0.062
Mof_H 	H 	0.50003	0.83214	0.3455	0.036
Mof_H 	H 	0.84924	0.12661	0.77958	0.019
Mof_H 	H 	0.8715	0.40997	0.76913	0.177
Mof_P 	P 	0.3829	0.2258	0.1347	0.543
Mof_C 	C 	0.3135	0.2679	0.0018	-0.325
Mof_C 	C 	0.3424	0.3167	0.8308	-0.055
Mof_C 	C 	0.5731	0.5302	0.1441	-0.107
Mof_N 	N 	0.4181	0.3792	0.9992	0.029
Mof_O 	O 	0.4553	0.3651	0.3034	-0.725
Mof_O 	O 	0.499	0.1951	0.1285	-0.39
Mof_O 	O 	0.2132	0.0868	0.0705	-0.821
Mof_H 	H 	0.25006	0.31192	0.02562	0.06
Mof_H 	H 	0.36697	0.23917	0.77226	0.058
Mof_H 	H 	0.56075	0.55651	0.2391	0.063
Mof_H 	H 	0.79144	0.75121	0.2458	0.075
Mof_H 	H 	0.3455	0.50003	0.83214	0.031
Mof_H 	H 	0.77958	0.84924	0.12661	0.023
Mof_P 	P 	0.1347	0.3829	0.2258	0.543
Mof_C 	C 	0.0018	0.3135	0.2679	-0.325
Mof_C 	C 	0.8308	0.3424	0.3167	-0.053
Mof_C 	C 	0.1441	0.5731	0.5302	-0.11
Mof_N 	N 	0.9992	0.4181	0.3792	0.03
Mof_O 	O 	0.3034	0.4553	0.3651	-0.725
Mof_O 	O 	0.1285	0.499	0.1951	-0.39
Mof_O 	O 	0.0705	0.2132	0.0868	-0.821
Mof_H 	H 	0.02562	0.25006	0.31192	0.061
Mof_H 	H 	0.77226	0.36697	0.23917	0.035
Mof_H 	H 	0.2391	0.56075	0.55651	0.061
Mof_H 	H 	0.2458	0.79144	0.75121	0.062
Mof_H 	H 	0.83214	0.3455	0.50003	0.032
Mof_H 	H 	0.12661	0.77958	0.84924	0.02
Mof_H 	H 	0.40997	0.76913	0.8715	0.177
Mof_P 	P 	0.7742	0.8653	0.6171	0.511
Mof_C 	C 	0.7321	0.9982	0.6865	0.034
Mof_C 	C 	0.6833	0.1692	0.6576	-0.015
Mof_C 	C 	0.4698	0.8559	0.4269	0.075
Mof_N 	N 	0.6208	0.0008	0.5819	-0.19
Mof_O 	O 	0.6349	0.6966	0.5447	-0.723
Mof_O 	O 	0.8049	0.8715	0.501	-0.182
Mof_O 	O 	0.9132	0.9295	0.7868	-0.6
Mof_H 	H 	0.68808	0.97438	0.74994	0.08
Mof_H 	H 	0.76083	0.22774	0.63303	0.028
Mof_H 	H 	0.44349	0.7609	0.43925	0.028
Mof_H 	H 	0.24879	0.7542	0.20856	0.023
Mof_H 	H 	0.49997	0.16786	0.6545	0.057
Mof_H 	H 	0.15076	0.87339	0.22042	0.113
Mof_H 	H 	0.1285	0.59003	0.23087	0.14
Mof_P 	P 	0.6171	0.7742	0.8653	0.535
Mof_C 	C 	0.6865	0.7321	0.9982	0.026
Mof_C 	C 	0.6576	0.6833	0.1692	-0.017
Mof_C 	C 	0.4269	0.4698	0.8559	0.077
Mof_N 	N 	0.5819	0.6208	0.0008	-0.19
Mof_O 	O 	0.5447	0.6349	0.6966	-0.727
Mof_O 	O 	0.501	0.8049	0.8715	-0.299
Mof_O 	O 	0.7868	0.9132	0.9295	-0.603
Mof_H 	H 	0.74994	0.68808	0.97438	0.082
Mof_H 	H 	0.63303	0.76083	0.22774	0.056
Mof_H 	H 	0.43925	0.44349	0.7609	0.029
Mof_H 	H 	0.20856	0.24879	0.7542	0.034
Mof_H 	H 	0.6545	0.49997	0.16786	0.053
Mof_H 	H 	0.22042	0.15076	0.87339	0.115
Mof_P 	P 	0.8653	0.6171	0.7742	0.534
Mof_C 	C 	0.9982	0.6865	0.7321	0.027
Mof_C 	C 	0.1692	0.6576	0.6833	-0.015
Mof_C 	C 	0.8559	0.4269	0.4698	0.075
Mof_N 	N 	0.0008	0.5819	0.6208	-0.19
Mof_O 	O 	0.6966	0.5447	0.6349	-0.727
Mof_O 	O 	0.8715	0.501	0.8049	-0.3
Mof_O 	O 	0.9295	0.7868	0.9132	-0.603
Mof_H 	H 	0.97438	0.74994	0.68808	0.082
Mof_H 	H 	0.22774	0.63303	0.76083	0.027
Mof_H 	H 	0.7609	0.43925	0.44349	0.028
Mof_H 	H 	0.7542	0.20856	0.24879	0.024
Mof_H 	H 	0.16786	0.6545	0.49997	0.054
Mof_H 	H 	0.87339	0.22042	0.15076	0.113
Mof_H 	H 	0.59003	0.23087	0.1285	0.14
Mof_Zr	Zr	-0	0	-0	3.196
Mof_Zr	Zr	0.5	0.5	0.5	3.244
_end
