data_functionalizedCrystal
_audit_creation_method	'EQeq! by Chris Wilmer'
_symmetry_space_group_name_H-M	'P1'
_symmetry_Int_Tables_number	1
_symmetry_cell_setting	triclinic
loop_
_symmetry_equiv_pos_as_xyz
  x,y,z
_cell_length_a	8.8994
_cell_length_b	10.719
_cell_length_c	13.656
_cell_angle_alpha	69.08
_cell_angle_beta	78.07
_cell_angle_gamma	79.98
loop_
_atom_site_label
_atom_site_type_symbol
_atom_site_fract_x
_atom_site_fract_y
_atom_site_fract_z
_atom_site_charge
Mof_Ni	Ni	0.81105	0.90161	0.14884	1.1
Mof_P 	P 	0.71883	0.71816	0.04872	0.393
Mof_P 	P 	0.03281	0.81838	0.96776	0.428
Mof_O 	O 	0.7767	0.5912	0.0236	-0.386
Mof_O 	O 	0.7348	0.7256	0.154	-0.363
Mof_O 	O 	0.5414	0.7549	0.0379	-0.427
Mof_H 	H 	0.511	0.715	0.006	0.251
Mof_O 	O 	0.0903	0.676	0.9698	-0.346
Mof_O 	O 	0.0337	0.841	0.0731	-0.437
Mof_O 	O 	0.1133	0.9212	0.8731	-0.387
Mof_O 	O 	0.7664	0.9719	0.9888	-0.433
Mof_H 	H 	0.819	0.034	0.958	0.261
Mof_C 	C 	0.8243	0.8565	0.9528	0.038
Mof_C 	C 	0.8075	0.8959	0.8366	-0.082
Mof_H 	H 	0.8632	0.9734	0.7966	0.074
Mof_H 	H 	0.8575	0.8227	0.8114	0.075
Mof_N 	N 	0.6496	0.9282	0.8123	-0.09
Mof_C 	C 	0.5331	0.0121	0.8434	0.091
Mof_H 	H 	0.5411	0.0594	0.8871	0.055
Mof_N 	N 	0.4057	0.0191	0.804	-0.216
Mof_C 	C 	0.4447	0.9355	0.7454	0.035
Mof_H 	H 	0.3785	0.919	0.708	0.018
Mof_C 	C 	0.5918	0.8801	0.7489	-0.014
Mof_H 	H 	0.6444	0.8204	0.7148	0.044
Mof_N 	N 	0.9847	0.556	0.8378	-0.181
Mof_C 	C 	0.8471	0.5646	0.7022	-0.14
Mof_H 	H 	0.7673	0.5359	0.684	0.082
Mof_C 	C 	0.9423	0.6524	0.6249	0.089
Mof_C 	C 	0.0616	0.6862	0.6572	-0.178
Mof_H 	H 	0.1299	0.7433	0.6078	0.081
Mof_C 	C 	0.0801	0.6358	0.7628	0.047
Mof_H 	H 	0.1629	0.6586	0.7823	0.021
Mof_C 	C 	0.9137	0.7087	0.5128	0.087
Mof_C 	C 	0.8678	0.6327	0.4632	-0.048
Mof_H 	H 	0.8513	0.5436	0.5006	0.051
Mof_C 	C 	0.8464	0.6888	0.3584	0.045
Mof_H 	H 	0.8203	0.6345	0.3259	0.025
Mof_C 	C 	0.8982	0.8937	0.3514	0.06
Mof_H 	H 	0.9049	0.9846	0.3143	0.012
Mof_C 	C 	0.9263	0.8425	0.455	-0.057
Mof_H 	H 	0.9536	0.8983	0.4857	0.057
Mof_N 	N 	0.8614	0.8175	0.3017	-0.219
Mof_C 	C 	0.8713	0.5201	0.8062	0.09
Mof_H 	H 	0.8053	0.462	0.8571	0.028
Mof_C 	C 	0.746	0.786	0.3839	0.028
Mof_H 	H 	0.6455	0.8078	0.3694	0.01
Mof_C 	C 	0.767	0.724	0.489	-0.106
Mof_H 	H 	0.6841	0.6943	0.5414	0.062
Mof_C 	C 	0.0073	0.788	0.324	-0.011
Mof_H 	H 	0.0906	0.8008	0.2688	0.026
Mof_C 	C 	0.033	0.738	0.4281	-0.138
Mof_H 	H 	0.134	0.7233	0.4416	0.068
Mof_Ni	Ni	0.18895	0.09839	0.85116	1.107
Mof_P 	P 	0.28117	0.28184	0.95128	0.468
Mof_P 	P 	0.96719	0.18162	0.03224	0.386
Mof_O 	O 	0.2233	0.4088	0.9764	-0.355
Mof_O 	O 	0.2652	0.2744	0.846	-0.37
Mof_O 	O 	0.4586	0.2451	0.9621	-0.414
Mof_H 	H 	0.489	0.285	0.994	0.288
Mof_O 	O 	0.9097	0.324	0.0302	-0.375
Mof_O 	O 	0.9663	0.159	0.9269	-0.327
Mof_O 	O 	0.8867	0.0788	0.1269	-0.378
Mof_O 	O 	0.2336	0.0281	0.0112	-0.487
Mof_H 	H 	0.181	0.966	0.042	0.255
Mof_C 	C 	0.1757	0.1435	0.0472	-0.078
Mof_C 	C 	0.1925	0.1041	0.1634	-0.035
Mof_H 	H 	0.1368	0.0266	0.2034	0.043
Mof_H 	H 	0.1425	0.1773	0.1886	0.034
Mof_N 	N 	0.3504	0.0718	0.1877	-0.107
Mof_C 	C 	0.4669	0.9879	0.1566	0.081
Mof_H 	H 	0.4589	0.9406	0.1129	0.038
Mof_N 	N 	0.5943	0.9809	0.196	-0.224
Mof_C 	C 	0.5553	0.0645	0.2546	0.022
Mof_H 	H 	0.6215	0.081	0.292	0.019
Mof_C 	C 	0.4082	0.1199	0.2511	-0.022
Mof_H 	H 	0.3556	0.1796	0.2852	0.039
Mof_N 	N 	0.0153	0.444	0.1622	-0.244
Mof_C 	C 	0.1529	0.4354	0.2978	-0.11
Mof_H 	H 	0.2327	0.4641	0.316	0.067
Mof_C 	C 	0.0577	0.3476	0.3751	-0.008
Mof_C 	C 	0.9384	0.3138	0.3428	-0.073
Mof_H 	H 	0.8701	0.2567	0.3922	0.06
Mof_C 	C 	0.9199	0.3642	0.2372	0.098
Mof_H 	H 	0.8371	0.3414	0.2177	0.008
Mof_C 	C 	0.0863	0.2913	0.4872	0.054
Mof_C 	C 	0.1322	0.3673	0.5368	-0.034
Mof_H 	H 	0.1487	0.4564	0.4994	0.034
Mof_C 	C 	0.1536	0.3112	0.6416	-0.055
Mof_H 	H 	0.1797	0.3655	0.6741	0.048
Mof_C 	C 	0.1018	0.1063	0.6486	-0.042
Mof_H 	H 	0.0951	0.0154	0.6857	0.027
Mof_C 	C 	0.0737	0.1575	0.545	-0.075
Mof_H 	H 	0.0464	0.1017	0.5143	0.037
Mof_N 	N 	0.1386	0.1825	0.6983	-0.244
Mof_C 	C 	0.1287	0.4799	0.1938	0.054
Mof_H 	H 	0.1947	0.538	0.1429	0.009
Mof_C 	C 	0.254	0.214	0.6161	0.106
Mof_H 	H 	0.3545	0.1922	0.6306	-0.017
Mof_C 	C 	0.233	0.276	0.511	-0.127
Mof_H 	H 	0.3159	0.3057	0.4586	0.071
Mof_C 	C 	0.9927	0.212	0.676	0.125
Mof_H 	H 	0.9094	0.1992	0.7312	-0.009
Mof_C 	C 	0.967	0.262	0.5719	-0.067
Mof_H 	H 	0.866	0.2767	0.5584	0.057
Mof_Ni	Ni	-0	0.5	-0	1.069
_end
