data_functionalizedCrystal
_audit_creation_method	'EQeq! by Chris Wilmer'
_symmetry_space_group_name_H-M	'P1'
_symmetry_Int_Tables_number	1
_symmetry_cell_setting	triclinic
loop_
_symmetry_equiv_pos_as_xyz
  x,y,z
_cell_length_a	13.2909
_cell_length_b	13.2909
_cell_length_c	14.356
_cell_angle_alpha	90
_cell_angle_beta	90
_cell_angle_gamma	90
loop_
_atom_site_label
_atom_site_type_symbol
_atom_site_fract_x
_atom_site_fract_y
_atom_site_fract_z
_atom_site_charge
Mof_N 	N 	0.11116	0.99282	0.20313	-0.255
Mof_N 	N 	0.86751	0.01515	0.29506	-0.255
Mof_C 	C 	0.20793	0.9892	0.1755	0.024
Mof_H 	H 	0.2286	0.9806	0.1141	-0.013
Mof_C 	C 	0.43648	0.0233	0.32953	-0.067
Mof_H 	H 	0.402	0.0402	0.3837	0.047
Mof_C 	C 	0.5417	0.0219	0.32961	-0.062
Mof_H 	H 	0.5759	0.0361	0.3846	0.046
Mof_C 	C 	0.77138	0.0245	0.3216	0.023
Mof_H 	H 	0.7508	0.0449	0.3806	-0.01
Mof_N 	N 	0.88884	0.00718	0.70313	-0.256
Mof_N 	N 	0.13249	0.98485	0.79506	-0.256
Mof_C 	C 	0.79207	0.0108	0.6755	0.025
Mof_H 	H 	0.7714	0.0194	0.6141	-0.013
Mof_C 	C 	0.56352	0.9767	0.82953	-0.068
Mof_H 	H 	0.598	0.9598	0.8837	0.047
Mof_C 	C 	0.4583	0.9781	0.82961	-0.063
Mof_H 	H 	0.4241	0.9639	0.8846	0.045
Mof_C 	C 	0.22862	0.9755	0.8216	0.022
Mof_H 	H 	0.2492	0.9551	0.8806	-0.01
Mof_N 	N 	0.00718	0.11116	0.95313	-0.256
Mof_N 	N 	0.98485	0.86751	0.04506	-0.256
Mof_C 	C 	0.0108	0.20793	0.9255	0.019
Mof_H 	H 	0.0194	0.2286	0.8641	-0.012
Mof_C 	C 	0.9767	0.43648	0.07953	-0.071
Mof_H 	H 	0.9598	0.402	0.1337	0.048
Mof_C 	C 	0.9781	0.5417	0.07961	-0.066
Mof_H 	H 	0.9639	0.5759	0.1346	0.046
Mof_C 	C 	0.9755	0.77138	0.0716	0.016
Mof_H 	H 	0.9551	0.7508	0.1306	-0.009
Mof_N 	N 	0.99282	0.88884	0.45313	-0.257
Mof_N 	N 	0.01515	0.13249	0.54506	-0.255
Mof_C 	C 	0.9892	0.79207	0.4255	0.023
Mof_H 	H 	0.9806	0.7714	0.3641	-0.013
Mof_C 	C 	0.0233	0.56352	0.57953	-0.067
Mof_H 	H 	0.0402	0.598	0.6337	0.047
Mof_C 	C 	0.0219	0.4583	0.57961	-0.062
Mof_H 	H 	0.0361	0.4241	0.6346	0.046
Mof_C 	C 	0.0245	0.22862	0.5716	0.023
Mof_H 	H 	0.0449	0.2492	0.6306	-0.01
Mof_N 	N 	0.88884	0.99282	0.79687	-0.257
Mof_N 	N 	0.13249	0.01515	0.70494	-0.255
Mof_C 	C 	0.79207	0.9892	0.8245	0.023
Mof_H 	H 	0.7714	0.9806	0.8859	-0.013
Mof_C 	C 	0.56352	0.0233	0.67047	-0.067
Mof_H 	H 	0.598	0.0402	0.6163	0.047
Mof_C 	C 	0.4583	0.0219	0.67039	-0.062
Mof_H 	H 	0.4241	0.0361	0.6154	0.046
Mof_C 	C 	0.22862	0.0245	0.6784	0.023
Mof_H 	H 	0.2492	0.0449	0.6194	-0.01
Mof_N 	N 	0.11116	0.00718	0.29687	-0.255
Mof_N 	N 	0.86751	0.98485	0.20494	-0.256
Mof_C 	C 	0.20793	0.0108	0.3245	0.025
Mof_H 	H 	0.2286	0.0194	0.3859	-0.013
Mof_C 	C 	0.43648	0.9767	0.17047	-0.068
Mof_H 	H 	0.402	0.9598	0.1163	0.047
Mof_C 	C 	0.5417	0.9781	0.17039	-0.063
Mof_H 	H 	0.5759	0.9639	0.1154	0.045
Mof_C 	C 	0.77138	0.9755	0.1784	0.022
Mof_H 	H 	0.7508	0.9551	0.1194	-0.01
Mof_N 	N 	0.99282	0.11116	0.04687	-0.256
Mof_N 	N 	0.01515	0.86751	0.95494	-0.255
Mof_C 	C 	0.9892	0.20793	0.0745	0.018
Mof_H 	H 	0.9806	0.2286	0.1359	-0.012
Mof_C 	C 	0.0233	0.43648	0.92047	-0.07
Mof_H 	H 	0.0402	0.402	0.8663	0.048
Mof_C 	C 	0.0219	0.5417	0.92039	-0.065
Mof_H 	H 	0.0361	0.5759	0.8654	0.046
Mof_C 	C 	0.0245	0.77138	0.9284	0.017
Mof_H 	H 	0.0449	0.7508	0.8694	-0.009
Mof_N 	N 	0.00718	0.88884	0.54687	-0.256
Mof_N 	N 	0.98485	0.13249	0.45494	-0.256
Mof_C 	C 	0.0108	0.79207	0.5745	0.025
Mof_H 	H 	0.0194	0.7714	0.6359	-0.013
Mof_C 	C 	0.9767	0.56352	0.42047	-0.068
Mof_H 	H 	0.9598	0.598	0.3663	0.047
Mof_C 	C 	0.9781	0.4583	0.42039	-0.063
Mof_H 	H 	0.9639	0.4241	0.3654	0.046
Mof_C 	C 	0.9755	0.22862	0.4284	0.022
Mof_H 	H 	0.9551	0.2492	0.3694	-0.01
Mof_Co	Co	0.98912	0.98912	0.125	1.076
Mof_Co	Co	0.01088	0.01088	0.625	1.078
Mof_Co	Co	0.01088	0.98912	0.875	1.077
Mof_Co	Co	0.98912	0.01088	0.375	1.077
Mof_C 	C 	0.2724	0	0.25	-0.048
Mof_C 	C 	0.3835	0	0.25	0.038
Mof_C 	C 	0.5961	0	0.25	0.033
Mof_C 	C 	0.7071	0	0.25	-0.047
Mof_C 	C 	0.7276	0	0.75	-0.048
Mof_C 	C 	0.6165	0	0.75	0.037
Mof_C 	C 	0.4039	0	0.75	0.033
Mof_C 	C 	0.2929	0	0.75	-0.047
Mof_C 	C 	-0	0.2724	-0	-0.042
Mof_C 	C 	-0	0.3835	-0	0.041
Mof_C 	C 	-4.97712e-33	0.5961	-0	0.036
Mof_C 	C 	-0	0.7071	-0	-0.04
Mof_C 	C 	2.02493e-33	0.7276	0.5	-0.048
Mof_C 	C 	-2.95219e-33	0.6165	0.5	0.037
Mof_C 	C 	2.02493e-33	0.4039	0.5	0.033
Mof_C 	C 	-2.95219e-33	0.2929	0.5	-0.046
_end
