data_functionalizedCrystal
_audit_creation_method	'EQeq! by Chris Wilmer'
_symmetry_space_group_name_H-M	'P1'
_symmetry_Int_Tables_number	1
_symmetry_cell_setting	triclinic
loop_
_symmetry_equiv_pos_as_xyz
  x,y,z
_cell_length_a	29.1148
_cell_length_b	16.012
_cell_length_c	16.7097
_cell_angle_alpha	90
_cell_angle_beta	90
_cell_angle_gamma	90
loop_
_atom_site_label
_atom_site_type_symbol
_atom_site_fract_x
_atom_site_fract_y
_atom_site_fract_z
_atom_site_charge
Mof_Cd	Cd	0.45574	0.79545	0.16173	0.46
Mof_C 	C 	0.6343	0.7826	0.1428	0.019
Mof_H 	H 	0.6298	0.793	0.1976	0.052
Mof_N 	N 	0.45672	0.6485	0.1669	-0.155
Mof_O 	O 	0.54076	0.7956	0.196	-0.295
Mof_C 	C 	0.54901	0.7896	0.1226	0.312
Mof_N 	N 	0.45506	0.94	0.167	-0.157
Mof_O 	O 	0.87564	0.7086	0.8358	-0.29
Mof_O 	O 	0.51724	0.7925	0.0722	-0.282
Mof_C 	C 	0.4538	0.4751	0.17	0.097
Mof_C 	C 	0.4526	0.1138	0.171	0.116
Mof_O 	O 	0.90465	0.7121	0.9534	-0.281
Mof_C 	C 	0.8715	0.713	0.9091	0.34
Mof_C 	C 	0.6869	0.7573	0.0362	0.036
Mof_C 	C 	0.4387	0.6078	0.2287	0.098
Mof_H 	H 	0.4274	0.6395	0.2717	0.013
Mof_C 	C 	0.452	0.3841	0.172	-0.023
Mof_C 	C 	0.4521	0.2077	0.1721	-0.032
Mof_C 	C 	0.4399	0.9819	0.2311	0.109
Mof_H 	H 	0.43	0.9514	0.2759	0.01
Mof_C 	C 	0.415	0.3384	0.2035	-0.018
Mof_C 	C 	0.7347	0.7453	0.0039	0.057
Mof_C 	C 	0.8236	0.7245	0.9434	-0.108
Mof_C 	C 	0.4147	0.2513	0.2024	-0.004
Mof_C 	C 	0.4702	0.9863	0.1063	0.109
Mof_H 	H 	0.483	0.9588	0.0619	0.005
Mof_C 	C 	0.59748	0.7781	0.0938	-0.092
Mof_C 	C 	0.4355	0.5222	0.2336	-0.154
Mof_H 	H 	0.4217	0.4962	0.2779	0.089
Mof_C 	C 	0.4729	0.5178	0.1069	-0.157
Mof_H 	H 	0.4854	0.4889	0.063	0.083
Mof_C 	C 	0.4732	0.6056	0.1091	0.101
Mof_H 	H 	0.4864	0.6344	0.0657	0.01
Mof_C 	C 	0.4383	0.0662	0.234	-0.173
Mof_H 	H 	0.4271	0.0926	0.2803	0.096
Mof_C 	C 	0.4683	0.0712	0.1051	-0.177
Mof_H 	H 	0.4778	0.1006	0.0593	0.106
Mof_C 	C 	0.7867	0.7306	0.8929	0.047
Mof_H 	H 	0.7913	0.728	0.8373	0.034
Mof_C 	C 	0.4896	0.2516	0.1409	-0.035
Mof_H 	H 	0.5149	0.2225	0.1198	0.056
Mof_C 	C 	0.6788	0.7722	0.1144	-0.089
Mof_H 	H 	0.7037	0.7757	0.1502	0.069
Mof_C 	C 	0.4894	0.3373	0.1413	-0.038
Mof_H 	H 	0.5149	0.366	0.1205	0.05
Mof_C 	C 	0.8156	0.7278	0.0224	0.048
Mof_H 	H 	0.8404	0.7219	0.0579	0.039
Mof_C 	C 	0.6496	0.7499	0.9864	-0.089
Mof_H 	H 	0.6543	0.7375	0.9321	0.069
Mof_C 	C 	0.7428	0.7406	0.923	-0.112
Mof_H 	H 	0.718	0.7443	0.8872	0.082
Mof_C 	C 	0.605	0.7602	0.0146	0.02
Mof_H 	H 	0.5801	0.7549	0.9793	0.041
Mof_C 	C 	0.7715	0.7396	0.0536	-0.11
Mof_H 	H 	0.7673	0.7436	0.1093	0.084
Mof_O 	O 	0.3366	0.2516	0.2587	-0.137
Mof_C 	C 	0.3698	0.2126	0.2296	0.065
Mof_H 	H 	0.3667	0.1545	0.2241	0.023
Mof_C 	C 	0.3691	0.3695	0.2306	0.09
Mof_H 	H 	0.365	0.4272	0.223	0.017
Mof_O 	O 	0.336	0.3356	0.26	-0.144
Mof_Cd	Cd	0.04426	0.70455	0.66173	0.461
Mof_C 	C 	0.8657	0.7174	0.6428	0.023
Mof_H 	H 	0.8702	0.707	0.6976	0.051
Mof_N 	N 	0.04328	0.8515	0.6669	-0.155
Mof_O 	O 	0.95924	0.7044	0.696	-0.295
Mof_C 	C 	0.95099	0.7104	0.6226	0.313
Mof_N 	N 	0.04494	0.56	0.667	-0.158
Mof_O 	O 	0.62436	0.7914	0.3358	-0.29
Mof_O 	O 	0.98276	0.7075	0.5722	-0.282
Mof_C 	C 	0.0462	0.0249	0.67	0.094
Mof_C 	C 	0.0474	0.3862	0.671	0.118
Mof_O 	O 	0.59535	0.7879	0.4534	-0.282
Mof_C 	C 	0.6285	0.787	0.4091	0.341
Mof_C 	C 	0.8131	0.7427	0.5362	0.039
Mof_C 	C 	0.0613	0.8922	0.7287	0.096
Mof_H 	H 	0.0726	0.8605	0.7717	0.013
Mof_C 	C 	0.048	0.1159	0.672	-0.022
Mof_C 	C 	0.0479	0.2923	0.6721	-0.033
Mof_C 	C 	0.0601	0.5181	0.7311	0.111
Mof_H 	H 	0.07	0.5486	0.7759	0.009
Mof_C 	C 	0.085	0.1616	0.7035	-0.019
Mof_C 	C 	0.7653	0.7547	0.5039	0.058
Mof_C 	C 	0.6764	0.7755	0.4434	-0.11
Mof_C 	C 	0.0853	0.2487	0.7024	-0.004
Mof_C 	C 	0.0298	0.5137	0.6063	0.112
Mof_H 	H 	0.017	0.5412	0.5619	0.004
Mof_C 	C 	0.90252	0.7219	0.5938	-0.095
Mof_C 	C 	0.0645	0.9778	0.7336	-0.15
Mof_H 	H 	0.0783	0.0038	0.7779	0.087
Mof_C 	C 	0.0271	0.9822	0.6069	-0.154
Mof_H 	H 	0.0146	0.0111	0.563	0.082
Mof_C 	C 	0.0268	0.8944	0.6091	0.099
Mof_H 	H 	0.0136	0.8656	0.5657	0.011
Mof_C 	C 	0.0617	0.4338	0.734	-0.176
Mof_H 	H 	0.0729	0.4074	0.7803	0.097
Mof_C 	C 	0.0317	0.4288	0.6051	-0.181
Mof_H 	H 	0.0222	0.3994	0.5593	0.107
Mof_C 	C 	0.7133	0.7694	0.3929	0.049
Mof_H 	H 	0.7087	0.772	0.3373	0.034
Mof_C 	C 	0.0104	0.2484	0.6409	-0.034
Mof_H 	H 	0.9851	0.2775	0.6198	0.056
Mof_C 	C 	0.8212	0.7278	0.6144	-0.091
Mof_H 	H 	0.7963	0.7243	0.6502	0.07
Mof_C 	C 	0.0106	0.1627	0.6413	-0.04
Mof_H 	H 	0.9851	0.134	0.6205	0.05
Mof_C 	C 	0.6844	0.7722	0.5224	0.05
Mof_H 	H 	0.6596	0.7781	0.5579	0.039
Mof_C 	C 	0.8504	0.7501	0.4864	-0.095
Mof_H 	H 	0.8457	0.7625	0.4321	0.07
Mof_C 	C 	0.7572	0.7594	0.423	-0.113
Mof_H 	H 	0.782	0.7557	0.3872	0.083
Mof_C 	C 	0.895	0.7398	0.5146	0.026
Mof_H 	H 	0.9199	0.7451	0.4793	0.038
Mof_C 	C 	0.7285	0.7604	0.5536	-0.111
Mof_H 	H 	0.7327	0.7564	0.6093	0.084
Mof_O 	O 	0.1634	0.2484	0.7587	-0.137
Mof_C 	C 	0.1302	0.2874	0.7296	0.064
Mof_H 	H 	0.1333	0.3455	0.7241	0.023
Mof_C 	C 	0.1309	0.1305	0.7306	0.09
Mof_H 	H 	0.135	0.0728	0.723	0.017
Mof_O 	O 	0.164	0.1644	0.76	-0.145
Mof_Cd	Cd	0.54426	0.79545	0.33827	0.461
Mof_C 	C 	0.3657	0.7826	0.3572	0.023
Mof_H 	H 	0.3702	0.793	0.3024	0.051
Mof_N 	N 	0.54328	0.6485	0.3331	-0.155
Mof_O 	O 	0.45924	0.7956	0.304	-0.295
Mof_C 	C 	0.45099	0.7896	0.3774	0.313
Mof_N 	N 	0.54494	0.94	0.333	-0.157
Mof_O 	O 	0.12436	0.7086	0.6642	-0.29
Mof_O 	O 	0.48276	0.7925	0.4278	-0.282
Mof_C 	C 	0.5462	0.4751	0.33	0.097
Mof_C 	C 	0.5474	0.1138	0.329	0.117
Mof_O 	O 	0.09535	0.7121	0.5466	-0.282
Mof_C 	C 	0.1285	0.713	0.5909	0.341
Mof_C 	C 	0.3131	0.7573	0.4638	0.039
Mof_C 	C 	0.5613	0.6078	0.2713	0.098
Mof_H 	H 	0.5726	0.6395	0.2283	0.013
Mof_C 	C 	0.548	0.3841	0.328	-0.023
Mof_C 	C 	0.5479	0.2077	0.3279	-0.032
Mof_C 	C 	0.5601	0.9819	0.2689	0.109
Mof_H 	H 	0.57	0.9514	0.2241	0.009
Mof_C 	C 	0.585	0.3384	0.2965	-0.018
Mof_C 	C 	0.2653	0.7453	0.4961	0.058
Mof_C 	C 	0.1764	0.7245	0.5566	-0.11
Mof_C 	C 	0.5853	0.2513	0.2976	-0.004
Mof_C 	C 	0.5298	0.9863	0.3937	0.111
Mof_H 	H 	0.517	0.9588	0.4381	0.005
Mof_C 	C 	0.40252	0.7781	0.4062	-0.095
Mof_C 	C 	0.5645	0.5222	0.2664	-0.154
Mof_H 	H 	0.5783	0.4962	0.2221	0.089
Mof_C 	C 	0.5271	0.5178	0.3931	-0.157
Mof_H 	H 	0.5146	0.4889	0.437	0.083
Mof_C 	C 	0.5268	0.6056	0.3909	0.101
Mof_H 	H 	0.5136	0.6344	0.4343	0.011
Mof_C 	C 	0.5617	0.0662	0.266	-0.174
Mof_H 	H 	0.5729	0.0926	0.2197	0.097
Mof_C 	C 	0.5317	0.0712	0.3949	-0.179
Mof_H 	H 	0.5222	0.1006	0.4407	0.107
Mof_C 	C 	0.2133	0.7306	0.6071	0.049
Mof_H 	H 	0.2087	0.728	0.6627	0.034
Mof_C 	C 	0.5104	0.2516	0.3591	-0.035
Mof_H 	H 	0.4851	0.2225	0.3802	0.056
Mof_C 	C 	0.3212	0.7722	0.3856	-0.091
Mof_H 	H 	0.2963	0.7757	0.3498	0.07
Mof_C 	C 	0.5106	0.3373	0.3587	-0.039
Mof_H 	H 	0.4851	0.366	0.3795	0.05
Mof_C 	C 	0.1844	0.7278	0.4776	0.05
Mof_H 	H 	0.1596	0.7219	0.4421	0.039
Mof_C 	C 	0.3504	0.7499	0.5136	-0.095
Mof_H 	H 	0.3457	0.7375	0.5679	0.07
Mof_C 	C 	0.2572	0.7406	0.577	-0.113
Mof_H 	H 	0.282	0.7443	0.6128	0.083
Mof_C 	C 	0.395	0.7602	0.4854	0.026
Mof_H 	H 	0.4199	0.7549	0.5207	0.038
Mof_C 	C 	0.2285	0.7396	0.4464	-0.111
Mof_H 	H 	0.2327	0.7436	0.3907	0.084
Mof_O 	O 	0.6634	0.2516	0.2413	-0.137
Mof_C 	C 	0.6302	0.2126	0.2704	0.065
Mof_H 	H 	0.6333	0.1545	0.2759	0.023
Mof_C 	C 	0.6309	0.3695	0.2694	0.09
Mof_H 	H 	0.635	0.4272	0.277	0.017
Mof_O 	O 	0.664	0.3356	0.24	-0.144
Mof_Cd	Cd	0.95574	0.70455	0.83827	0.461
Mof_C 	C 	0.1343	0.7174	0.8572	0.025
Mof_H 	H 	0.1298	0.707	0.8024	0.05
Mof_N 	N 	0.95672	0.8515	0.8331	-0.154
Mof_O 	O 	0.04076	0.7044	0.804	-0.295
Mof_C 	C 	0.04901	0.7104	0.8774	0.314
Mof_N 	N 	0.95506	0.56	0.833	-0.158
Mof_O 	O 	0.37564	0.7914	0.1642	-0.291
Mof_O 	O 	0.01724	0.7075	0.9278	-0.282
Mof_C 	C 	0.9538	0.0249	0.83	0.091
Mof_C 	C 	0.9526	0.3862	0.829	0.119
Mof_O 	O 	0.40465	0.7879	0.0466	-0.282
Mof_C 	C 	0.3715	0.787	0.0909	0.341
Mof_C 	C 	0.1869	0.7427	0.9638	0.041
Mof_C 	C 	0.9387	0.8922	0.7713	0.095
Mof_H 	H 	0.9274	0.8605	0.7283	0.014
Mof_C 	C 	0.952	0.1159	0.828	-0.02
Mof_C 	C 	0.9521	0.2923	0.8279	-0.033
Mof_C 	C 	0.9399	0.5181	0.7689	0.111
Mof_H 	H 	0.93	0.5486	0.7241	0.009
Mof_C 	C 	0.915	0.1616	0.7965	-0.02
Mof_C 	C 	0.2347	0.7547	0.9961	0.059
Mof_C 	C 	0.3236	0.7755	0.0566	-0.112
Mof_C 	C 	0.9147	0.2487	0.7976	-0.003
Mof_C 	C 	0.9702	0.5137	0.8937	0.112
Mof_H 	H 	0.983	0.5412	0.9381	0.005
Mof_C 	C 	0.09748	0.7219	0.9062	-0.098
Mof_C 	C 	0.9355	0.9778	0.7664	-0.148
Mof_H 	H 	0.9217	0.0038	0.7221	0.087
Mof_C 	C 	0.9729	0.9822	0.8931	-0.15
Mof_H 	H 	0.9854	0.0111	0.937	0.08
Mof_C 	C 	0.9732	0.8944	0.8909	0.097
Mof_H 	H 	0.9864	0.8656	0.9343	0.012
Mof_C 	C 	0.9383	0.4338	0.766	-0.176
Mof_H 	H 	0.9271	0.4074	0.7197	0.097
Mof_C 	C 	0.9683	0.4288	0.8949	-0.181
Mof_H 	H 	0.9778	0.3994	0.9407	0.107
Mof_C 	C 	0.2867	0.7694	0.1071	0.05
Mof_H 	H 	0.2913	0.772	0.1627	0.033
Mof_C 	C 	0.9896	0.2484	0.8591	-0.033
Mof_H 	H 	0.0149	0.2775	0.8802	0.055
Mof_C 	C 	0.1788	0.7278	0.8856	-0.093
Mof_H 	H 	0.2037	0.7243	0.8498	0.071
Mof_C 	C 	0.9894	0.1627	0.8587	-0.041
Mof_H 	H 	0.0149	0.134	0.8795	0.05
Mof_C 	C 	0.3156	0.7722	0.9776	0.052
Mof_H 	H 	0.3404	0.7781	0.9421	0.038
Mof_C 	C 	0.1496	0.7501	0.0136	-0.099
Mof_H 	H 	0.1543	0.7625	0.0679	0.072
Mof_C 	C 	0.2428	0.7594	0.077	-0.115
Mof_H 	H 	0.218	0.7557	0.1128	0.083
Mof_C 	C 	0.105	0.7398	0.9854	0.03
Mof_H 	H 	0.0801	0.7451	0.0207	0.037
Mof_C 	C 	0.2715	0.7604	0.9464	-0.113
Mof_H 	H 	0.2673	0.7564	0.8907	0.084
Mof_O 	O 	0.8366	0.2484	0.7413	-0.137
Mof_C 	C 	0.8698	0.2874	0.7704	0.064
Mof_H 	H 	0.8667	0.3455	0.7759	0.023
Mof_C 	C 	0.8691	0.1305	0.7694	0.09
Mof_H 	H 	0.865	0.0728	0.777	0.017
Mof_O 	O 	0.836	0.1644	0.74	-0.145
Mof_Cd	Cd	0.54426	0.20455	0.83827	0.461
Mof_C 	C 	0.3657	0.2174	0.8572	0.02
Mof_H 	H 	0.3702	0.207	0.8024	0.052
Mof_N 	N 	0.54328	0.3515	0.8331	-0.155
Mof_O 	O 	0.45924	0.2044	0.804	-0.295
Mof_C 	C 	0.45099	0.2104	0.8774	0.312
Mof_N 	N 	0.54494	0.06	0.833	-0.157
Mof_O 	O 	0.12436	0.2914	0.1642	-0.29
Mof_O 	O 	0.48276	0.2075	0.9278	-0.282
Mof_C 	C 	0.5462	0.5249	0.83	0.097
Mof_C 	C 	0.5474	0.8862	0.829	0.116
Mof_O 	O 	0.09535	0.2879	0.0466	-0.281
Mof_C 	C 	0.1285	0.287	0.0909	0.34
Mof_C 	C 	0.3131	0.2427	0.9638	0.036
Mof_C 	C 	0.5613	0.3922	0.7713	0.098
Mof_H 	H 	0.5726	0.3605	0.7283	0.013
Mof_C 	C 	0.548	0.6159	0.828	-0.023
Mof_C 	C 	0.5479	0.7923	0.8279	-0.032
Mof_C 	C 	0.5601	0.0181	0.7689	0.109
Mof_H 	H 	0.57	0.0486	0.7241	0.01
Mof_C 	C 	0.585	0.6616	0.7965	-0.018
Mof_C 	C 	0.2653	0.2547	0.9961	0.057
Mof_C 	C 	0.1764	0.2755	0.0566	-0.108
Mof_C 	C 	0.5853	0.7487	0.7976	-0.004
Mof_C 	C 	0.5298	0.0137	0.8937	0.109
Mof_H 	H 	0.517	0.0412	0.9381	0.005
Mof_C 	C 	0.40252	0.2219	0.9062	-0.092
Mof_C 	C 	0.5645	0.4778	0.7664	-0.154
Mof_H 	H 	0.5783	0.5038	0.7221	0.089
Mof_C 	C 	0.5271	0.4822	0.8931	-0.157
Mof_H 	H 	0.5146	0.5111	0.937	0.083
Mof_C 	C 	0.5268	0.3944	0.8909	0.101
Mof_H 	H 	0.5136	0.3656	0.9343	0.01
Mof_C 	C 	0.5617	0.9338	0.766	-0.173
Mof_H 	H 	0.5729	0.9074	0.7197	0.096
Mof_C 	C 	0.5317	0.9288	0.8949	-0.177
Mof_H 	H 	0.5222	0.8994	0.9407	0.106
Mof_C 	C 	0.2133	0.2694	0.1071	0.047
Mof_H 	H 	0.2087	0.272	0.1627	0.034
Mof_C 	C 	0.5104	0.7484	0.8591	-0.035
Mof_H 	H 	0.4851	0.7775	0.8802	0.056
Mof_C 	C 	0.3212	0.2278	0.8856	-0.089
Mof_H 	H 	0.2963	0.2243	0.8498	0.069
Mof_C 	C 	0.5106	0.6627	0.8587	-0.038
Mof_H 	H 	0.4851	0.634	0.8795	0.05
Mof_C 	C 	0.1844	0.2722	0.9776	0.048
Mof_H 	H 	0.1596	0.2781	0.9421	0.039
Mof_C 	C 	0.3504	0.2501	0.0136	-0.089
Mof_H 	H 	0.3457	0.2625	0.0679	0.069
Mof_C 	C 	0.2572	0.2594	0.077	-0.112
Mof_H 	H 	0.282	0.2557	0.1128	0.082
Mof_C 	C 	0.395	0.2398	0.9854	0.02
Mof_H 	H 	0.4199	0.2451	0.0207	0.041
Mof_C 	C 	0.2285	0.2604	0.9464	-0.11
Mof_H 	H 	0.2327	0.2564	0.8907	0.084
Mof_O 	O 	0.6634	0.7484	0.7413	-0.137
Mof_C 	C 	0.6302	0.7874	0.7704	0.065
Mof_H 	H 	0.6333	0.8455	0.7759	0.023
Mof_C 	C 	0.6309	0.6305	0.7694	0.09
Mof_H 	H 	0.635	0.5728	0.777	0.017
Mof_O 	O 	0.664	0.6644	0.74	-0.144
Mof_Cd	Cd	0.95574	0.29545	0.33827	0.461
Mof_C 	C 	0.1343	0.2826	0.3572	0.023
Mof_H 	H 	0.1298	0.293	0.3024	0.051
Mof_N 	N 	0.95672	0.1485	0.3331	-0.155
Mof_O 	O 	0.04076	0.2956	0.304	-0.295
Mof_C 	C 	0.04901	0.2896	0.3774	0.313
Mof_N 	N 	0.95506	0.44	0.333	-0.158
Mof_O 	O 	0.37564	0.2086	0.6642	-0.29
Mof_O 	O 	0.01724	0.2925	0.4278	-0.282
Mof_C 	C 	0.9538	0.9751	0.33	0.094
Mof_C 	C 	0.9526	0.6138	0.329	0.118
Mof_O 	O 	0.40465	0.2121	0.5466	-0.282
Mof_C 	C 	0.3715	0.213	0.5909	0.341
Mof_C 	C 	0.1869	0.2573	0.4638	0.039
Mof_C 	C 	0.9387	0.1078	0.2713	0.096
Mof_H 	H 	0.9274	0.1395	0.2283	0.013
Mof_C 	C 	0.952	0.8841	0.328	-0.022
Mof_C 	C 	0.9521	0.7077	0.3279	-0.033
Mof_C 	C 	0.9399	0.4819	0.2689	0.111
Mof_H 	H 	0.93	0.4514	0.2241	0.009
Mof_C 	C 	0.915	0.8384	0.2965	-0.019
Mof_C 	C 	0.2347	0.2453	0.4961	0.058
Mof_C 	C 	0.3236	0.2245	0.5566	-0.11
Mof_C 	C 	0.9147	0.7513	0.2976	-0.004
Mof_C 	C 	0.9702	0.4863	0.3937	0.112
Mof_H 	H 	0.983	0.4588	0.4381	0.004
Mof_C 	C 	0.09748	0.2781	0.4062	-0.095
Mof_C 	C 	0.9355	0.0222	0.2664	-0.15
Mof_H 	H 	0.9217	0.9962	0.2221	0.087
Mof_C 	C 	0.9729	0.0178	0.3931	-0.154
Mof_H 	H 	0.9854	0.9889	0.437	0.082
Mof_C 	C 	0.9732	0.1056	0.3909	0.099
Mof_H 	H 	0.9864	0.1344	0.4343	0.011
Mof_C 	C 	0.9383	0.5662	0.266	-0.176
Mof_H 	H 	0.9271	0.5926	0.2197	0.097
Mof_C 	C 	0.9683	0.5712	0.3949	-0.181
Mof_H 	H 	0.9778	0.6006	0.4407	0.107
Mof_C 	C 	0.2867	0.2306	0.6071	0.049
Mof_H 	H 	0.2913	0.228	0.6627	0.034
Mof_C 	C 	0.9896	0.7516	0.3591	-0.034
Mof_H 	H 	0.0149	0.7225	0.3802	0.056
Mof_C 	C 	0.1788	0.2722	0.3856	-0.091
Mof_H 	H 	0.2037	0.2757	0.3498	0.07
Mof_C 	C 	0.9894	0.8373	0.3587	-0.04
Mof_H 	H 	0.0149	0.866	0.3795	0.05
Mof_C 	C 	0.3156	0.2278	0.4776	0.05
Mof_H 	H 	0.3404	0.2219	0.4421	0.039
Mof_C 	C 	0.1496	0.2499	0.5136	-0.095
Mof_H 	H 	0.1543	0.2375	0.5679	0.07
Mof_C 	C 	0.2428	0.2406	0.577	-0.113
Mof_H 	H 	0.218	0.2443	0.6128	0.083
Mof_C 	C 	0.105	0.2602	0.4854	0.026
Mof_H 	H 	0.0801	0.2549	0.5207	0.038
Mof_C 	C 	0.2715	0.2396	0.4464	-0.111
Mof_H 	H 	0.2673	0.2436	0.3907	0.084
Mof_O 	O 	0.8366	0.7516	0.2413	-0.137
Mof_C 	C 	0.8698	0.7126	0.2704	0.064
Mof_H 	H 	0.8667	0.6545	0.2759	0.023
Mof_C 	C 	0.8691	0.8695	0.2694	0.09
Mof_H 	H 	0.865	0.9272	0.277	0.017
Mof_O 	O 	0.836	0.8356	0.24	-0.145
Mof_Cd	Cd	0.45574	0.20455	0.66173	0.461
Mof_C 	C 	0.6343	0.2174	0.6428	0.023
Mof_H 	H 	0.6298	0.207	0.6976	0.051
Mof_N 	N 	0.45672	0.3515	0.6669	-0.155
Mof_O 	O 	0.54076	0.2044	0.696	-0.295
Mof_C 	C 	0.54901	0.2104	0.6226	0.313
Mof_N 	N 	0.45506	0.06	0.667	-0.157
Mof_O 	O 	0.87564	0.2914	0.3358	-0.29
Mof_O 	O 	0.51724	0.2075	0.5722	-0.282
Mof_C 	C 	0.4538	0.5249	0.67	0.097
Mof_C 	C 	0.4526	0.8862	0.671	0.117
Mof_O 	O 	0.90465	0.2879	0.4534	-0.282
Mof_C 	C 	0.8715	0.287	0.4091	0.341
Mof_C 	C 	0.6869	0.2427	0.5362	0.039
Mof_C 	C 	0.4387	0.3922	0.7287	0.098
Mof_H 	H 	0.4274	0.3605	0.7717	0.013
Mof_C 	C 	0.452	0.6159	0.672	-0.023
Mof_C 	C 	0.4521	0.7923	0.6721	-0.032
Mof_C 	C 	0.4399	0.0181	0.7311	0.109
Mof_H 	H 	0.43	0.0486	0.7759	0.009
Mof_C 	C 	0.415	0.6616	0.7035	-0.018
Mof_C 	C 	0.7347	0.2547	0.5039	0.058
Mof_C 	C 	0.8236	0.2755	0.4434	-0.11
Mof_C 	C 	0.4147	0.7487	0.7024	-0.004
Mof_C 	C 	0.4702	0.0137	0.6063	0.111
Mof_H 	H 	0.483	0.0412	0.5619	0.005
Mof_C 	C 	0.59748	0.2219	0.5938	-0.095
Mof_C 	C 	0.4355	0.4778	0.7336	-0.154
Mof_H 	H 	0.4217	0.5038	0.7779	0.089
Mof_C 	C 	0.4729	0.4822	0.6069	-0.157
Mof_H 	H 	0.4854	0.5111	0.563	0.083
Mof_C 	C 	0.4732	0.3944	0.6091	0.101
Mof_H 	H 	0.4864	0.3656	0.5657	0.011
Mof_C 	C 	0.4383	0.9338	0.734	-0.174
Mof_H 	H 	0.4271	0.9074	0.7803	0.097
Mof_C 	C 	0.4683	0.9288	0.6051	-0.179
Mof_H 	H 	0.4778	0.8994	0.5593	0.107
Mof_C 	C 	0.7867	0.2694	0.3929	0.049
Mof_H 	H 	0.7913	0.272	0.3373	0.034
Mof_C 	C 	0.4896	0.7484	0.6409	-0.035
Mof_H 	H 	0.5149	0.7775	0.6198	0.056
Mof_C 	C 	0.6788	0.2278	0.6144	-0.091
Mof_H 	H 	0.7037	0.2243	0.6502	0.07
Mof_C 	C 	0.4894	0.6627	0.6413	-0.039
Mof_H 	H 	0.5149	0.634	0.6205	0.05
Mof_C 	C 	0.8156	0.2722	0.5224	0.05
Mof_H 	H 	0.8404	0.2781	0.5579	0.039
Mof_C 	C 	0.6496	0.2501	0.4864	-0.095
Mof_H 	H 	0.6543	0.2625	0.4321	0.07
Mof_C 	C 	0.7428	0.2594	0.423	-0.113
Mof_H 	H 	0.718	0.2557	0.3872	0.083
Mof_C 	C 	0.605	0.2398	0.5146	0.026
Mof_H 	H 	0.5801	0.2451	0.4793	0.038
Mof_C 	C 	0.7715	0.2604	0.5536	-0.111
Mof_H 	H 	0.7673	0.2564	0.6093	0.084
Mof_O 	O 	0.3366	0.7484	0.7587	-0.137
Mof_C 	C 	0.3698	0.7874	0.7296	0.065
Mof_H 	H 	0.3667	0.8455	0.7241	0.023
Mof_C 	C 	0.3691	0.6305	0.7306	0.09
Mof_H 	H 	0.365	0.5728	0.723	0.017
Mof_O 	O 	0.336	0.6644	0.76	-0.144
Mof_Cd	Cd	0.04426	0.29545	0.16173	0.461
Mof_C 	C 	0.8657	0.2826	0.1428	0.025
Mof_H 	H 	0.8702	0.293	0.1976	0.05
Mof_N 	N 	0.04328	0.1485	0.1669	-0.154
Mof_O 	O 	0.95924	0.2956	0.196	-0.295
Mof_C 	C 	0.95099	0.2896	0.1226	0.314
Mof_N 	N 	0.04494	0.44	0.167	-0.158
Mof_O 	O 	0.62436	0.2086	0.8358	-0.291
Mof_O 	O 	0.98276	0.2925	0.0722	-0.282
Mof_C 	C 	0.0462	0.9751	0.17	0.091
Mof_C 	C 	0.0474	0.6138	0.171	0.119
Mof_O 	O 	0.59535	0.2121	0.9534	-0.282
Mof_C 	C 	0.6285	0.213	0.9091	0.341
Mof_C 	C 	0.8131	0.2573	0.0362	0.041
Mof_C 	C 	0.0613	0.1078	0.2287	0.095
Mof_H 	H 	0.0726	0.1395	0.2717	0.014
Mof_C 	C 	0.048	0.8841	0.172	-0.02
Mof_C 	C 	0.0479	0.7077	0.1721	-0.033
Mof_C 	C 	0.0601	0.4819	0.2311	0.111
Mof_H 	H 	0.07	0.4514	0.2759	0.009
Mof_C 	C 	0.085	0.8384	0.2035	-0.02
Mof_C 	C 	0.7653	0.2453	0.0039	0.059
Mof_C 	C 	0.6764	0.2245	0.9434	-0.112
Mof_C 	C 	0.0853	0.7513	0.2024	-0.003
Mof_C 	C 	0.0298	0.4863	0.1063	0.112
Mof_H 	H 	0.017	0.4588	0.0619	0.005
Mof_C 	C 	0.90252	0.2781	0.0938	-0.098
Mof_C 	C 	0.0645	0.0222	0.2336	-0.148
Mof_H 	H 	0.0783	0.9962	0.2779	0.087
Mof_C 	C 	0.0271	0.0178	0.1069	-0.15
Mof_H 	H 	0.0146	0.9889	0.063	0.08
Mof_C 	C 	0.0268	0.1056	0.1091	0.097
Mof_H 	H 	0.0136	0.1344	0.0657	0.012
Mof_C 	C 	0.0617	0.5662	0.234	-0.176
Mof_H 	H 	0.0729	0.5926	0.2803	0.097
Mof_C 	C 	0.0317	0.5712	0.1051	-0.181
Mof_H 	H 	0.0222	0.6006	0.0593	0.107
Mof_C 	C 	0.7133	0.2306	0.8929	0.05
Mof_H 	H 	0.7087	0.228	0.8373	0.033
Mof_C 	C 	0.0104	0.7516	0.1409	-0.033
Mof_H 	H 	0.9851	0.7225	0.1198	0.055
Mof_C 	C 	0.8212	0.2722	0.1144	-0.093
Mof_H 	H 	0.7963	0.2757	0.1502	0.071
Mof_C 	C 	0.0106	0.8373	0.1413	-0.041
Mof_H 	H 	0.9851	0.866	0.1205	0.05
Mof_C 	C 	0.6844	0.2278	0.0224	0.052
Mof_H 	H 	0.6596	0.2219	0.0579	0.038
Mof_C 	C 	0.8504	0.2499	0.9864	-0.099
Mof_H 	H 	0.8457	0.2375	0.9321	0.072
Mof_C 	C 	0.7572	0.2406	0.923	-0.115
Mof_H 	H 	0.782	0.2443	0.8872	0.083
Mof_C 	C 	0.895	0.2602	0.0146	0.03
Mof_H 	H 	0.9199	0.2549	0.9793	0.037
Mof_C 	C 	0.7285	0.2396	0.0536	-0.113
Mof_H 	H 	0.7327	0.2436	0.1093	0.084
Mof_O 	O 	0.1634	0.7516	0.2587	-0.137
Mof_C 	C 	0.1302	0.7126	0.2296	0.064
Mof_H 	H 	0.1333	0.6545	0.2241	0.023
Mof_C 	C 	0.1309	0.8695	0.2306	0.09
Mof_H 	H 	0.135	0.9272	0.223	0.017
Mof_O 	O 	0.164	0.8356	0.26	-0.145
_end
