data_functionalizedCrystal
_audit_creation_method	'EQeq! by Chris Wilmer'
_symmetry_space_group_name_H-M	'P1'
_symmetry_Int_Tables_number	1
_symmetry_cell_setting	triclinic
loop_
_symmetry_equiv_pos_as_xyz
  x,y,z
_cell_length_a	15.3332
_cell_length_b	32.852
_cell_length_c	10.1075
_cell_angle_alpha	90
_cell_angle_beta	106.565
_cell_angle_gamma	90
loop_
_atom_site_label
_atom_site_type_symbol
_atom_site_fract_x
_atom_site_fract_y
_atom_site_fract_z
_atom_site_charge
Mof_Cu	Cu	0.57981	0.21666	0.22383	0.929
Mof_Cu	Cu	0.50667	0.21733	0.48218	0.936
Mof_Cu	Cu	0.65344	0.27473	0.45904	0.932
Mof_O 	O 	0.6172	0.21805	0.4237	-0.741
Mof_H 	H 	0.6573	0.2006	0.4628	0.29
Mof_O 	O 	0.5319	0.158	0.2335	-0.368
Mof_O 	O 	0.4715	0.16262	0.4134	-0.378
Mof_O 	O 	0.7049	0.22826	0.2105	-0.456
Mof_O 	O 	0.7619	0.26697	0.3987	-0.405
Mof_O 	O 	0.5437	0.2752	0.5267	-0.72
Mof_H 	H 	0.5036	0.2921	0.4839	0.283
Mof_O 	O 	0.0466	0.3345	0.4569	-0.075
Mof_O 	O 	0.0968	0.3369	0.2912	-0.057
Mof_O 	O 	0.0034	0.3045	0.0009	-0.013
Mof_O 	O 	0.1174	0.3457	0.0047	0.128
Mof_O 	O 	0.2742	0.9964	0.387	-0.047
Mof_O 	O 	0.277	0.0509	0.475	-0.054
Mof_O 	O 	0.2941	0.0184	0.008	-0.069
Mof_O 	O 	0.2941	0.9697	0.8716	-0
Mof_O 	O 	0.4012	0.27866	0.0478	-0.4
Mof_O 	O 	0.454	0.23979	0.2346	-0.456
Mof_O 	O 	0.4013	0.81978	0.2702	-0.368
Mof_O 	O 	0.337	0.83251	0.0473	-0.376
Mof_C 	C 	0.4924	0.1438	0.3167	0.336
Mof_C 	C 	0.4652	0.1	0.2989	-0.051
Mof_C 	C 	0.511	0.0737	0.2367	0.005
Mof_H 	H 	0.5581	0.0835	0.2044	0.063
Mof_C 	C 	0.4879	0.0326	0.2214	-0.06
Mof_H 	H 	0.522	0.015	0.1836	0.089
Mof_C 	C 	0.4143	0.0173	0.2617	0.019
Mof_C 	C 	0.3699	0.0445	0.3252	0.083
Mof_C 	C 	0.3951	0.0849	0.346	-0.057
Mof_H 	H 	0.3649	0.102	0.3917	0.096
Mof_C 	C 	0.3933	0.9732	0.2402	0.025
Mof_C 	C 	0.3514	0.9564	0.1128	0.076
Mof_C 	C 	0.3427	0.915	0.0888	-0.05
Mof_H 	H 	0.3136	0.905	0.0012	0.092
Mof_C 	C 	0.3779	0.8887	0.1971	-0.048
Mof_C 	C 	0.421	0.9047	0.3243	-0
Mof_H 	H 	0.4453	0.8873	0.398	0.054
Mof_C 	C 	0.4291	0.9461	0.3448	-0.058
Mof_H 	H 	0.4596	0.956	0.4319	0.074
Mof_C 	C 	0.3732	0.8433	0.1753	0.325
Mof_C 	C 	0.7683	0.24786	0.2959	0.366
Mof_C 	C 	0.8588	0.2483	0.2681	-0.078
Mof_C 	C 	0.9169	0.2806	0.3217	-0.035
Mof_H 	H 	0.8996	0.3009	0.3732	0.083
Mof_C 	C 	0.0003	0.2819	0.2969	0.072
Mof_C 	C 	0.0306	0.2521	0.2194	0.034
Mof_C 	C 	0.9727	0.2193	0.175	-0.072
Mof_H 	H 	0.9918	0.1977	0.1307	0.095
Mof_C 	C 	0.8864	0.218	0.1951	0.029
Mof_H 	H 	0.8474	0.1965	0.1591	0.048
Mof_C 	C 	0.1207	0.2535	0.1907	0.032
Mof_C 	C 	0.1845	0.223	0.2453	-0.072
Mof_H 	H 	0.1672	0.2012	0.2911	0.093
Mof_C 	C 	0.2709	0.2239	0.2339	0.027
Mof_H 	H 	0.3121	0.2037	0.2753	0.046
Mof_C 	C 	0.2976	0.2551	0.1603	-0.076
Mof_C 	C 	0.2334	0.2844	0.0959	-0.035
Mof_H 	H 	0.249	0.3047	0.0428	0.086
Mof_C 	C 	0.1468	0.2831	0.1112	0.075
Mof_C 	C 	0.3935	0.25801	0.1493	0.382
Mof_N 	N 	0.3142	0.0287	0.4111	-0.029
Mof_N 	N 	0.061	0.3157	0.3609	0.015
Mof_N 	N 	0.0835	0.3148	0.036	-0.003
Mof_N 	N 	0.3114	0.983	0.9892	-0.002
Mof_O 	O 	0.0254	0.3459	0.3929	-0.023
Mof_O 	O 	0.1423	0.3071	0.3995	-0.086
Mof_O 	O 	0.0044	0.3143	0.0377	-0.075
Mof_O 	O 	0.1058	0.3364	0.9525	-0.222
Mof_O 	O 	0.2409	0.0026	0.296	-0.046
Mof_O 	O 	0.2258	0.0587	0.366	-0.05
Mof_O 	O 	0.2649	0.0096	0.021	-0.01
Mof_O 	O 	0.3387	0.9734	0.8909	-0.105
Mof_N 	N 	0.2793	0.034	0.344	0.021
Mof_Cu	Cu	0.42019	0.71666	0.27617	0.93
Mof_Cu	Cu	0.49333	0.71733	0.01782	0.934
Mof_Cu	Cu	0.34656	0.77473	0.04096	0.93
Mof_O 	O 	0.3828	0.71805	0.0763	-0.742
Mof_H 	H 	0.3427	0.7006	0.0372	0.288
Mof_O 	O 	0.4681	0.658	0.2665	-0.37
Mof_O 	O 	0.5285	0.66262	0.0866	-0.38
Mof_O 	O 	0.2951	0.72826	0.2895	-0.458
Mof_O 	O 	0.2381	0.76697	0.1013	-0.407
Mof_O 	O 	0.4563	0.7752	0.9733	-0.708
Mof_H 	H 	0.4964	0.7921	0.0161	0.274
Mof_O 	O 	0.9534	0.8345	0.0431	-0.079
Mof_O 	O 	0.9032	0.8369	0.2088	-0.055
Mof_O 	O 	0.9966	0.8045	0.4991	0.007
Mof_O 	O 	0.8826	0.8457	0.4953	0.068
Mof_O 	O 	0.7258	0.4964	0.113	-0.046
Mof_O 	O 	0.723	0.5509	0.025	-0.055
Mof_O 	O 	0.7059	0.5184	0.492	-0.073
Mof_O 	O 	0.7059	0.4697	0.6284	-0.002
Mof_O 	O 	0.5988	0.77866	0.4522	-0.403
Mof_O 	O 	0.546	0.73979	0.2654	-0.457
Mof_O 	O 	0.5987	0.31978	0.2298	-0.367
Mof_O 	O 	0.663	0.33251	0.4527	-0.374
Mof_C 	C 	0.5076	0.6438	0.1833	0.337
Mof_C 	C 	0.5348	0.6	0.2011	-0.052
Mof_C 	C 	0.489	0.5737	0.2633	0.005
Mof_H 	H 	0.4419	0.5835	0.2956	0.062
Mof_C 	C 	0.5121	0.5326	0.2786	-0.061
Mof_H 	H 	0.478	0.515	0.3164	0.089
Mof_C 	C 	0.5857	0.5173	0.2383	0.02
Mof_C 	C 	0.6301	0.5445	0.1748	0.082
Mof_C 	C 	0.6049	0.5849	0.154	-0.056
Mof_H 	H 	0.6351	0.602	0.1083	0.094
Mof_C 	C 	0.6067	0.4732	0.2598	0.024
Mof_C 	C 	0.6486	0.4564	0.3872	0.078
Mof_C 	C 	0.6573	0.415	0.4112	-0.052
Mof_H 	H 	0.6864	0.405	0.4988	0.094
Mof_C 	C 	0.6221	0.3887	0.3029	-0.045
Mof_C 	C 	0.579	0.4047	0.1757	-0.002
Mof_H 	H 	0.5547	0.3873	0.102	0.056
Mof_C 	C 	0.5709	0.4461	0.1552	-0.056
Mof_H 	H 	0.5404	0.456	0.0681	0.074
Mof_C 	C 	0.6268	0.3433	0.3247	0.324
Mof_C 	C 	0.2317	0.74786	0.2041	0.367
Mof_C 	C 	0.1412	0.7483	0.2319	-0.079
Mof_C 	C 	0.0831	0.7806	0.1783	-0.036
Mof_H 	H 	0.1004	0.8009	0.1268	0.082
Mof_C 	C 	0.9997	0.7819	0.2031	0.073
Mof_C 	C 	0.9694	0.7521	0.2806	0.034
Mof_C 	C 	0.0273	0.7193	0.325	-0.074
Mof_H 	H 	0.0082	0.6977	0.3693	0.094
Mof_C 	C 	0.1136	0.718	0.3049	0.03
Mof_H 	H 	0.1526	0.6965	0.3409	0.046
Mof_C 	C 	0.8793	0.7535	0.3093	0.032
Mof_C 	C 	0.8155	0.723	0.2547	-0.075
Mof_H 	H 	0.8328	0.7012	0.2089	0.095
Mof_C 	C 	0.7291	0.7239	0.2661	0.028
Mof_H 	H 	0.6879	0.7037	0.2247	0.044
Mof_C 	C 	0.7024	0.7551	0.3397	-0.078
Mof_C 	C 	0.7666	0.7844	0.4041	-0.034
Mof_H 	H 	0.751	0.8047	0.4572	0.084
Mof_C 	C 	0.8532	0.7831	0.3888	0.073
Mof_C 	C 	0.6065	0.75801	0.3507	0.383
Mof_N 	N 	0.6858	0.5287	0.0889	-0.029
Mof_N 	N 	0.939	0.8157	0.1391	0.015
Mof_N 	N 	0.9165	0.8148	0.464	-0.003
Mof_N 	N 	0.6886	0.483	0.5108	-0.003
Mof_O 	O 	0.9746	0.8459	0.1071	-0.021
Mof_O 	O 	0.8577	0.8071	0.1005	-0.087
Mof_O 	O 	0.9956	0.8143	0.4623	-0.098
Mof_O 	O 	0.8942	0.8364	0.5475	-0.16
Mof_O 	O 	0.7591	0.5026	0.204	-0.046
Mof_O 	O 	0.7742	0.5587	0.134	-0.051
Mof_O 	O 	0.7351	0.5096	0.479	-0.007
Mof_O 	O 	0.6613	0.4734	0.6091	-0.104
Mof_N 	N 	0.7207	0.534	0.156	0.021
Mof_Cu	Cu	0.42019	0.78334	0.77617	0.93
Mof_Cu	Cu	0.49333	0.78267	0.51782	0.937
Mof_Cu	Cu	0.34656	0.72527	0.54096	0.932
Mof_O 	O 	0.3828	0.78195	0.5763	-0.741
Mof_H 	H 	0.3427	0.7994	0.5372	0.29
Mof_O 	O 	0.4681	0.842	0.7665	-0.368
Mof_O 	O 	0.5285	0.83738	0.5866	-0.378
Mof_O 	O 	0.2951	0.77174	0.7895	-0.456
Mof_O 	O 	0.2381	0.73303	0.6013	-0.405
Mof_O 	O 	0.4563	0.7248	0.4733	-0.72
Mof_H 	H 	0.4964	0.7079	0.5161	0.283
Mof_O 	O 	0.9534	0.6655	0.5431	-0.075
Mof_O 	O 	0.9032	0.6631	0.7088	-0.057
Mof_O 	O 	0.9966	0.6955	0.9991	-0.013
Mof_O 	O 	0.8826	0.6543	0.9953	0.128
Mof_O 	O 	0.7258	0.0036	0.613	-0.047
Mof_O 	O 	0.723	0.9491	0.525	-0.054
Mof_O 	O 	0.7059	0.9816	0.992	-0.069
Mof_O 	O 	0.7059	0.0303	0.1284	-0
Mof_O 	O 	0.5988	0.72134	0.9522	-0.4
Mof_O 	O 	0.546	0.76021	0.7654	-0.456
Mof_O 	O 	0.5987	0.18022	0.7298	-0.368
Mof_O 	O 	0.663	0.16749	0.9527	-0.376
Mof_C 	C 	0.5076	0.8562	0.6833	0.336
Mof_C 	C 	0.5348	0.9	0.7011	-0.051
Mof_C 	C 	0.489	0.9263	0.7633	0.005
Mof_H 	H 	0.4419	0.9165	0.7956	0.063
Mof_C 	C 	0.5121	0.9674	0.7786	-0.06
Mof_H 	H 	0.478	0.985	0.8164	0.089
Mof_C 	C 	0.5857	0.9827	0.7383	0.019
Mof_C 	C 	0.6301	0.9555	0.6748	0.083
Mof_C 	C 	0.6049	0.9151	0.654	-0.057
Mof_H 	H 	0.6351	0.898	0.6083	0.096
Mof_C 	C 	0.6067	0.0268	0.7598	0.025
Mof_C 	C 	0.6486	0.0436	0.8872	0.076
Mof_C 	C 	0.6573	0.085	0.9112	-0.05
Mof_H 	H 	0.6864	0.095	0.9988	0.092
Mof_C 	C 	0.6221	0.1113	0.8029	-0.048
Mof_C 	C 	0.579	0.0953	0.6757	-0
Mof_H 	H 	0.5547	0.1127	0.602	0.054
Mof_C 	C 	0.5709	0.0539	0.6552	-0.058
Mof_H 	H 	0.5404	0.044	0.5681	0.074
Mof_C 	C 	0.6268	0.1567	0.8247	0.325
Mof_C 	C 	0.2317	0.75214	0.7041	0.366
Mof_C 	C 	0.1412	0.7517	0.7319	-0.078
Mof_C 	C 	0.0831	0.7194	0.6783	-0.035
Mof_H 	H 	0.1004	0.6991	0.6268	0.083
Mof_C 	C 	0.9997	0.7181	0.7031	0.072
Mof_C 	C 	0.9694	0.7479	0.7806	0.034
Mof_C 	C 	0.0273	0.7807	0.825	-0.072
Mof_H 	H 	0.0082	0.8023	0.8693	0.095
Mof_C 	C 	0.1136	0.782	0.8049	0.029
Mof_H 	H 	0.1526	0.8035	0.8409	0.048
Mof_C 	C 	0.8793	0.7465	0.8093	0.032
Mof_C 	C 	0.8155	0.777	0.7547	-0.072
Mof_H 	H 	0.8328	0.7988	0.7089	0.093
Mof_C 	C 	0.7291	0.7761	0.7661	0.027
Mof_H 	H 	0.6879	0.7963	0.7247	0.046
Mof_C 	C 	0.7024	0.7449	0.8397	-0.076
Mof_C 	C 	0.7666	0.7156	0.9041	-0.035
Mof_H 	H 	0.751	0.6953	0.9572	0.086
Mof_C 	C 	0.8532	0.7169	0.8888	0.075
Mof_C 	C 	0.6065	0.74199	0.8507	0.382
Mof_N 	N 	0.6858	0.9713	0.5889	-0.029
Mof_N 	N 	0.939	0.6843	0.6391	0.015
Mof_N 	N 	0.9165	0.6852	0.964	-0.003
Mof_N 	N 	0.6886	0.017	0.0108	-0.002
Mof_O 	O 	0.9746	0.6541	0.6071	-0.023
Mof_O 	O 	0.8577	0.6929	0.6005	-0.086
Mof_O 	O 	0.9956	0.6857	0.9623	-0.075
Mof_O 	O 	0.8942	0.6636	0.0475	-0.222
Mof_O 	O 	0.7591	0.9974	0.704	-0.046
Mof_O 	O 	0.7742	0.9413	0.634	-0.05
Mof_O 	O 	0.7351	0.9904	0.979	-0.01
Mof_O 	O 	0.6613	0.0266	0.1091	-0.105
Mof_N 	N 	0.7207	0.966	0.656	0.021
Mof_Cu	Cu	0.57981	0.28334	0.72383	0.93
Mof_Cu	Cu	0.50667	0.28267	0.98218	0.934
Mof_Cu	Cu	0.65344	0.22527	0.95904	0.93
Mof_O 	O 	0.6172	0.28195	0.9237	-0.742
Mof_H 	H 	0.6573	0.2994	0.9628	0.288
Mof_O 	O 	0.5319	0.342	0.7335	-0.37
Mof_O 	O 	0.4715	0.33738	0.9134	-0.38
Mof_O 	O 	0.7049	0.27174	0.7105	-0.458
Mof_O 	O 	0.7619	0.23303	0.8987	-0.407
Mof_O 	O 	0.5437	0.2248	0.0267	-0.708
Mof_H 	H 	0.5036	0.2079	0.9839	0.274
Mof_O 	O 	0.0466	0.1655	0.9569	-0.079
Mof_O 	O 	0.0968	0.1631	0.7912	-0.055
Mof_O 	O 	0.0034	0.1955	0.5009	0.007
Mof_O 	O 	0.1174	0.1543	0.5047	0.068
Mof_O 	O 	0.2742	0.5036	0.887	-0.046
Mof_O 	O 	0.277	0.4491	0.975	-0.055
Mof_O 	O 	0.2941	0.4816	0.508	-0.073
Mof_O 	O 	0.2941	0.5303	0.3716	-0.002
Mof_O 	O 	0.4012	0.22134	0.5478	-0.403
Mof_O 	O 	0.454	0.26021	0.7346	-0.457
Mof_O 	O 	0.4013	0.68022	0.7702	-0.367
Mof_O 	O 	0.337	0.66749	0.5473	-0.374
Mof_C 	C 	0.4924	0.3562	0.8167	0.337
Mof_C 	C 	0.4652	0.4	0.7989	-0.052
Mof_C 	C 	0.511	0.4263	0.7367	0.005
Mof_H 	H 	0.5581	0.4165	0.7044	0.062
Mof_C 	C 	0.4879	0.4674	0.7214	-0.061
Mof_H 	H 	0.522	0.485	0.6836	0.089
Mof_C 	C 	0.4143	0.4827	0.7617	0.02
Mof_C 	C 	0.3699	0.4555	0.8252	0.082
Mof_C 	C 	0.3951	0.4151	0.846	-0.056
Mof_H 	H 	0.3649	0.398	0.8917	0.094
Mof_C 	C 	0.3933	0.5268	0.7402	0.024
Mof_C 	C 	0.3514	0.5436	0.6128	0.078
Mof_C 	C 	0.3427	0.585	0.5888	-0.052
Mof_H 	H 	0.3136	0.595	0.5012	0.094
Mof_C 	C 	0.3779	0.6113	0.6971	-0.045
Mof_C 	C 	0.421	0.5953	0.8243	-0.002
Mof_H 	H 	0.4453	0.6127	0.898	0.056
Mof_C 	C 	0.4291	0.5539	0.8448	-0.056
Mof_H 	H 	0.4596	0.544	0.9319	0.074
Mof_C 	C 	0.3732	0.6567	0.6753	0.324
Mof_C 	C 	0.7683	0.25214	0.7959	0.367
Mof_C 	C 	0.8588	0.2517	0.7681	-0.079
Mof_C 	C 	0.9169	0.2194	0.8217	-0.036
Mof_H 	H 	0.8996	0.1991	0.8732	0.082
Mof_C 	C 	0.0003	0.2181	0.7969	0.073
Mof_C 	C 	0.0306	0.2479	0.7194	0.034
Mof_C 	C 	0.9727	0.2807	0.675	-0.074
Mof_H 	H 	0.9918	0.3023	0.6307	0.094
Mof_C 	C 	0.8864	0.282	0.6951	0.03
Mof_H 	H 	0.8474	0.3035	0.6591	0.046
Mof_C 	C 	0.1207	0.2465	0.6907	0.032
Mof_C 	C 	0.1845	0.277	0.7453	-0.075
Mof_H 	H 	0.1672	0.2988	0.7911	0.095
Mof_C 	C 	0.2709	0.2761	0.7339	0.028
Mof_H 	H 	0.3121	0.2963	0.7753	0.044
Mof_C 	C 	0.2976	0.2449	0.6603	-0.078
Mof_C 	C 	0.2334	0.2156	0.5959	-0.034
Mof_H 	H 	0.249	0.1953	0.5428	0.084
Mof_C 	C 	0.1468	0.2169	0.6112	0.073
Mof_C 	C 	0.3935	0.24199	0.6493	0.383
Mof_N 	N 	0.3142	0.4713	0.9111	-0.029
Mof_N 	N 	0.061	0.1843	0.8609	0.015
Mof_N 	N 	0.0835	0.1852	0.536	-0.003
Mof_N 	N 	0.3114	0.517	0.4892	-0.003
Mof_O 	O 	0.0254	0.1541	0.8929	-0.021
Mof_O 	O 	0.1423	0.1929	0.8995	-0.087
Mof_O 	O 	0.0044	0.1857	0.5377	-0.098
Mof_O 	O 	0.1058	0.1636	0.4525	-0.16
Mof_O 	O 	0.2409	0.4974	0.796	-0.046
Mof_O 	O 	0.2258	0.4413	0.866	-0.051
Mof_O 	O 	0.2649	0.4904	0.521	-0.007
Mof_O 	O 	0.3387	0.5266	0.3909	-0.104
Mof_N 	N 	0.2793	0.466	0.844	0.021
_end
