data_functionalizedCrystal
_audit_creation_method	'EQeq! by Chris Wilmer'
_symmetry_space_group_name_H-M	'P1'
_symmetry_Int_Tables_number	1
_symmetry_cell_setting	triclinic
loop_
_symmetry_equiv_pos_as_xyz
  x,y,z
_cell_length_a	17.7992
_cell_length_b	17.7992
_cell_length_c	12.7145
_cell_angle_alpha	90
_cell_angle_beta	90
_cell_angle_gamma	120
loop_
_atom_site_label
_atom_site_type_symbol
_atom_site_fract_x
_atom_site_fract_y
_atom_site_fract_z
_atom_site_charge
Mof_Cu	Cu	0.1368	0.5538	0.2662	0.911
Mof_Cu	Cu	0.1377	0.5548	0.00411	0.888
Mof_O 	O 	0.1767	0.534	0.129	-0.512
Mof_N 	N 	0.0888	0.5951	0.365	-0.214
Mof_N 	N 	0.8984	0.4016	0.3894	-0.215
Mof_O 	O 	0.2348	0.6747	0.2695	-0.516
Mof_O 	O 	0.0232	0.4481	0.283	-0.342
Mof_O 	O 	0.2942	0.8032	0.3618	-0.352
Mof_O 	O 	0.7599	0.3245	0.5	-0.475
Mof_O 	O 	0.9801	0.561	0.486	-0.296
Mof_O 	O 	0.7171	0.2019	0.4267	-0.357
Mof_C 	C 	0.2361	0.724	0.338	0.35
Mof_C 	C 	0.145	0.695	0.398	-0.093
Mof_H 	H 	0.1532	0.7013	0.4762	0.072
Mof_C 	C 	0.981	0.4537	0.36	0.125
Mof_C 	C 	0.021	0.539	0.417	0.099
Mof_C 	C 	0.775	0.275	0.431	0.343
Mof_C 	C 	0.8485	0.3163	0.363	-0.125
Mof_H 	H 	0.8206	0.3215	0.2969	0.067
Mof_C 	C 	0.094	0.738	0.36	-0.064
Mof_H 	H 	0.0369	0.7101	0.396	0.063
Mof_H 	H 	0.1255	0.7997	0.3813	0.041
Mof_C 	C 	0.08	0.733	0.248	-0.089
Mof_H 	H 	0.1351	0.7805	0.2199	0.052
Mof_H 	H 	0.0374	0.7532	0.2389	0.043
Mof_C 	C 	0.108	0.753	0.067	-0.522
Mof_H 	H 	0.1082	0.7392	0.9924	0.221
Mof_H 	H 	0.1683	0.7857	0.0924	0.169
Mof_H 	H 	0.0802	0.7878	0.0762	0.162
Mof_C 	C 	0.9048	0.2769	0.3168	-0.072
Mof_H 	H 	0.951	0.3254	0.2759	0.075
Mof_H 	H 	0.8663	0.2343	0.2637	0.044
Mof_C 	C 	0.9541	0.2303	0.3707	-0.154
Mof_H 	H 	0.0128	0.282	0.3753	0.077
Mof_H 	H 	0.9574	0.1994	0.3077	0.064
Mof_C 	C 	0.026	0.124	0.388	-0.383
Mof_H 	H 	0.0377	0.0874	0.4349	0.123
Mof_H 	H 	0.0807	0.1719	0.3618	0.126
Mof_H 	H 	0.99	0.0895	0.3292	0.119
Mof_S 	S 	0.0457	0.6461	0.147	-0.044
Mof_S 	S 	0.967	0.1689	0.4631	0.016
Mof_Cu	Cu	0.4462	0.583	0.2662	0.912
Mof_Cu	Cu	0.4452	0.5829	0.00411	0.889
Mof_O 	O 	0.466	0.6427	0.129	-0.512
Mof_N 	N 	0.4049	0.4937	0.365	-0.213
Mof_N 	N 	0.5984	0.4968	0.3894	-0.215
Mof_O 	O 	0.3253	0.5601	0.2695	-0.516
Mof_O 	O 	0.5519	0.5751	0.283	-0.343
Mof_O 	O 	0.1968	0.491	0.3618	-0.352
Mof_O 	O 	0.6755	0.4354	0.5	-0.475
Mof_O 	O 	0.439	0.4191	0.486	-0.296
Mof_O 	O 	0.7981	0.5152	0.4267	-0.357
Mof_C 	C 	0.276	0.5121	0.338	0.35
Mof_C 	C 	0.305	0.45	0.398	-0.093
Mof_H 	H 	0.2987	0.4519	0.4762	0.072
Mof_C 	C 	0.5463	0.5273	0.36	0.126
Mof_C 	C 	0.461	0.482	0.417	0.099
Mof_C 	C 	0.725	0.5	0.431	0.343
Mof_C 	C 	0.6837	0.5322	0.363	-0.125
Mof_H 	H 	0.6785	0.4991	0.2969	0.067
Mof_C 	C 	0.262	0.356	0.36	-0.064
Mof_H 	H 	0.2899	0.3268	0.396	0.063
Mof_H 	H 	0.2003	0.3258	0.3813	0.041
Mof_C 	C 	0.267	0.347	0.248	-0.089
Mof_H 	H 	0.2195	0.3546	0.2199	0.052
Mof_H 	H 	0.2468	0.2842	0.2389	0.043
Mof_C 	C 	0.247	0.355	0.067	-0.523
Mof_H 	H 	0.2608	0.369	0.9924	0.222
Mof_H 	H 	0.2143	0.3826	0.0924	0.169
Mof_H 	H 	0.2122	0.2924	0.0762	0.162
Mof_C 	C 	0.7231	0.6279	0.3168	-0.072
Mof_H 	H 	0.6746	0.6256	0.2759	0.075
Mof_H 	H 	0.7657	0.632	0.2637	0.044
Mof_C 	C 	0.7697	0.7238	0.3707	-0.153
Mof_H 	H 	0.718	0.7308	0.3753	0.077
Mof_H 	H 	0.8006	0.758	0.3077	0.064
Mof_C 	C 	0.876	0.902	0.388	-0.384
Mof_H 	H 	0.9126	0.9503	0.4349	0.123
Mof_H 	H 	0.8281	0.9088	0.3618	0.126
Mof_H 	H 	0.9105	0.9005	0.3292	0.119
Mof_S 	S 	0.3539	0.3996	0.147	-0.045
Mof_S 	S 	0.8311	0.7981	0.4631	0.016
Mof_Cu	Cu	0.417	0.8632	0.2662	0.912
Mof_Cu	Cu	0.4171	0.8623	0.00411	0.889
Mof_O 	O 	0.3573	0.8233	0.129	-0.511
Mof_N 	N 	0.5063	0.9112	0.365	-0.213
Mof_N 	N 	0.5032	0.1016	0.3894	-0.215
Mof_O 	O 	0.4399	0.7652	0.2695	-0.516
Mof_O 	O 	0.4249	0.9768	0.283	-0.342
Mof_O 	O 	0.509	0.7058	0.3618	-0.352
Mof_O 	O 	0.5646	0.2401	0.5	-0.475
Mof_O 	O 	0.5809	0.0199	0.486	-0.296
Mof_O 	O 	0.4848	0.2829	0.4267	-0.357
Mof_C 	C 	0.4879	0.7639	0.338	0.35
Mof_C 	C 	0.55	0.855	0.398	-0.093
Mof_H 	H 	0.5481	0.8468	0.4762	0.072
Mof_C 	C 	0.4727	0.019	0.36	0.126
Mof_C 	C 	0.518	0.979	0.417	0.099
Mof_C 	C 	0.5	0.225	0.431	0.343
Mof_C 	C 	0.4678	0.1515	0.363	-0.125
Mof_H 	H 	0.5009	0.1794	0.2969	0.067
Mof_C 	C 	0.644	0.906	0.36	-0.064
Mof_H 	H 	0.6732	0.9631	0.396	0.063
Mof_H 	H 	0.6742	0.8745	0.3813	0.041
Mof_C 	C 	0.653	0.92	0.248	-0.089
Mof_H 	H 	0.6454	0.8649	0.2199	0.052
Mof_H 	H 	0.7158	0.9626	0.2389	0.043
Mof_C 	C 	0.645	0.892	0.067	-0.522
Mof_H 	H 	0.631	0.8918	0.9924	0.221
Mof_H 	H 	0.6174	0.8317	0.0924	0.169
Mof_H 	H 	0.7076	0.9198	0.0762	0.162
Mof_C 	C 	0.3721	0.0952	0.3168	-0.072
Mof_H 	H 	0.3744	0.049	0.2759	0.075
Mof_H 	H 	0.368	0.1337	0.2637	0.044
Mof_C 	C 	0.2762	0.0459	0.3707	-0.154
Mof_H 	H 	0.2692	0.9872	0.3753	0.077
Mof_H 	H 	0.242	0.0426	0.3077	0.064
Mof_C 	C 	0.098	0.974	0.388	-0.384
Mof_H 	H 	0.0497	0.9623	0.4349	0.123
Mof_H 	H 	0.0912	0.9193	0.3618	0.126
Mof_H 	H 	0.0995	0.01	0.3292	0.119
Mof_S 	S 	0.6004	0.9543	0.147	-0.044
Mof_S 	S 	0.2019	0.033	0.4631	0.016
Mof_Cu	Cu	0.8632	0.4462	0.7662	0.913
Mof_Cu	Cu	0.8623	0.4452	0.50411	0.91
Mof_O 	O 	0.8233	0.466	0.629	-0.502
Mof_N 	N 	0.9112	0.4049	0.865	-0.212
Mof_N 	N 	0.1016	0.5984	0.8894	-0.2
Mof_O 	O 	0.7652	0.3253	0.7695	-0.516
Mof_O 	O 	0.9768	0.5519	0.783	-0.336
Mof_O 	O 	0.7058	0.1968	0.8618	-0.347
Mof_O 	O 	0.2401	0.6755	-0	-0.516
Mof_O 	O 	0.0199	0.439	0.986	-0.274
Mof_O 	O 	0.2829	0.7981	0.9267	-0.35
Mof_C 	C 	0.7639	0.276	0.838	0.354
Mof_C 	C 	0.855	0.305	0.898	-0.094
Mof_H 	H 	0.8468	0.2987	0.9762	0.082
Mof_C 	C 	0.019	0.5463	0.86	0.13
Mof_C 	C 	0.979	0.461	0.917	0.103
Mof_C 	C 	0.225	0.725	0.931	0.397
Mof_C 	C 	0.1515	0.6837	0.863	-0.145
Mof_H 	H 	0.1794	0.6785	0.7969	0.08
Mof_C 	C 	0.906	0.262	0.86	-0.06
Mof_H 	H 	0.9631	0.2899	0.896	0.066
Mof_H 	H 	0.8745	0.2003	0.8813	0.044
Mof_C 	C 	0.92	0.267	0.748	-0.098
Mof_H 	H 	0.8649	0.2195	0.7199	0.055
Mof_H 	H 	0.9626	0.2468	0.7389	0.05
Mof_C 	C 	0.892	0.247	0.567	-0.404
Mof_H 	H 	0.8918	0.2608	0.4924	0.159
Mof_H 	H 	0.8317	0.2143	0.5924	0.147
Mof_H 	H 	0.9198	0.2122	0.5762	0.146
Mof_C 	C 	0.0952	0.7231	0.8168	-0.063
Mof_H 	H 	0.049	0.6746	0.7759	0.078
Mof_H 	H 	0.1337	0.7657	0.7637	0.049
Mof_C 	C 	0.0459	0.7697	0.8707	-0.169
Mof_H 	H 	0.9872	0.718	0.8753	0.085
Mof_H 	H 	0.0426	0.8006	0.8077	0.072
Mof_C 	C 	0.974	0.876	0.888	-0.406
Mof_H 	H 	0.9623	0.9126	0.9349	0.135
Mof_H 	H 	0.9193	0.8281	0.8618	0.137
Mof_H 	H 	0.01	0.9105	0.8292	0.13
Mof_S 	S 	0.9543	0.3539	0.647	-0.034
Mof_S 	S 	0.033	0.8311	0.9631	0.051
Mof_Cu	Cu	0.5538	0.417	0.7662	0.913
Mof_Cu	Cu	0.5548	0.4171	0.50411	0.91
Mof_O 	O 	0.534	0.3573	0.629	-0.502
Mof_N 	N 	0.5951	0.5063	0.865	-0.212
Mof_N 	N 	0.4016	0.5032	0.8894	-0.199
Mof_O 	O 	0.6747	0.4399	0.7695	-0.516
Mof_O 	O 	0.4481	0.4249	0.783	-0.336
Mof_O 	O 	0.8032	0.509	0.8618	-0.347
Mof_O 	O 	0.3245	0.5646	-0	-0.516
Mof_O 	O 	0.561	0.5809	0.986	-0.274
Mof_O 	O 	0.2019	0.4848	0.9267	-0.351
Mof_C 	C 	0.724	0.4879	0.838	0.354
Mof_C 	C 	0.695	0.55	0.898	-0.094
Mof_H 	H 	0.7013	0.5481	0.9762	0.083
Mof_C 	C 	0.4537	0.4727	0.86	0.13
Mof_C 	C 	0.539	0.518	0.917	0.104
Mof_C 	C 	0.275	0.5	0.931	0.397
Mof_C 	C 	0.3163	0.4678	0.863	-0.146
Mof_H 	H 	0.3215	0.5009	0.7969	0.08
Mof_C 	C 	0.738	0.644	0.86	-0.06
Mof_H 	H 	0.7101	0.6732	0.896	0.067
Mof_H 	H 	0.7997	0.6742	0.8813	0.044
Mof_C 	C 	0.733	0.653	0.748	-0.098
Mof_H 	H 	0.7805	0.6454	0.7199	0.055
Mof_H 	H 	0.7532	0.7158	0.7389	0.05
Mof_C 	C 	0.753	0.645	0.567	-0.404
Mof_H 	H 	0.7392	0.631	0.4924	0.159
Mof_H 	H 	0.7857	0.6174	0.5924	0.147
Mof_H 	H 	0.7878	0.7076	0.5762	0.146
Mof_C 	C 	0.2769	0.3721	0.8168	-0.063
Mof_H 	H 	0.3254	0.3744	0.7759	0.077
Mof_H 	H 	0.2343	0.368	0.7637	0.048
Mof_C 	C 	0.2303	0.2762	0.8707	-0.169
Mof_H 	H 	0.282	0.2692	0.8753	0.085
Mof_H 	H 	0.1994	0.242	0.8077	0.072
Mof_C 	C 	0.124	0.098	0.888	-0.406
Mof_H 	H 	0.0874	0.0497	0.9349	0.135
Mof_H 	H 	0.1719	0.0912	0.8618	0.137
Mof_H 	H 	0.0895	0.0995	0.8292	0.13
Mof_S 	S 	0.6461	0.6004	0.647	-0.033
Mof_S 	S 	0.1689	0.2019	0.9631	0.051
Mof_Cu	Cu	0.583	0.1368	0.7662	0.913
Mof_Cu	Cu	0.5829	0.1377	0.50411	0.91
Mof_O 	O 	0.6427	0.1767	0.629	-0.502
Mof_N 	N 	0.4937	0.0888	0.865	-0.212
Mof_N 	N 	0.4968	0.8984	0.8894	-0.2
Mof_O 	O 	0.5601	0.2348	0.7695	-0.516
Mof_O 	O 	0.5751	0.0232	0.783	-0.337
Mof_O 	O 	0.491	0.2942	0.8618	-0.346
Mof_O 	O 	0.4354	0.7599	-0	-0.516
Mof_O 	O 	0.4191	0.9801	0.986	-0.274
Mof_O 	O 	0.5152	0.7171	0.9267	-0.35
Mof_C 	C 	0.5121	0.2361	0.838	0.354
Mof_C 	C 	0.45	0.145	0.898	-0.094
Mof_H 	H 	0.4519	0.1532	0.9762	0.083
Mof_C 	C 	0.5273	0.981	0.86	0.13
Mof_C 	C 	0.482	0.021	0.917	0.103
Mof_C 	C 	0.5	0.775	0.931	0.397
Mof_C 	C 	0.5322	0.8485	0.863	-0.145
Mof_H 	H 	0.4991	0.8206	0.7969	0.08
Mof_C 	C 	0.356	0.094	0.86	-0.06
Mof_H 	H 	0.3268	0.0369	0.896	0.067
Mof_H 	H 	0.3258	0.1255	0.8813	0.044
Mof_C 	C 	0.347	0.08	0.748	-0.098
Mof_H 	H 	0.3546	0.1351	0.7199	0.055
Mof_H 	H 	0.2842	0.0374	0.7389	0.05
Mof_C 	C 	0.355	0.108	0.567	-0.404
Mof_H 	H 	0.369	0.1082	0.4924	0.159
Mof_H 	H 	0.3826	0.1683	0.5924	0.147
Mof_H 	H 	0.2924	0.0802	0.5762	0.146
Mof_C 	C 	0.6279	0.9048	0.8168	-0.063
Mof_H 	H 	0.6256	0.951	0.7759	0.078
Mof_H 	H 	0.632	0.8663	0.7637	0.049
Mof_C 	C 	0.7238	0.9541	0.8707	-0.168
Mof_H 	H 	0.7308	0.0128	0.8753	0.085
Mof_H 	H 	0.758	0.9574	0.8077	0.072
Mof_C 	C 	0.902	0.026	0.888	-0.408
Mof_H 	H 	0.9503	0.0377	0.9349	0.135
Mof_H 	H 	0.9088	0.0807	0.8618	0.138
Mof_H 	H 	0.9005	0.99	0.8292	0.131
Mof_S 	S 	0.3996	0.0457	0.647	-0.034
Mof_S 	S 	0.7981	0.967	0.9631	0.052
Mof_Ca	Ca	0.33333	0.66667	0.1346	1.387
Mof_Ca	Ca	0.66667	0.33333	0.6346	1.386
_end
