data_functionalizedCrystal
_audit_creation_method	'EQeq! by Chris Wilmer'
_symmetry_space_group_name_H-M	'P1'
_symmetry_Int_Tables_number	1
_symmetry_cell_setting	triclinic
loop_
_symmetry_equiv_pos_as_xyz
  x,y,z
_cell_length_a	28.6841
_cell_length_b	9.2655
_cell_length_c	9.3005
_cell_angle_alpha	90
_cell_angle_beta	116.369
_cell_angle_gamma	90
loop_
_atom_site_label
_atom_site_type_symbol
_atom_site_fract_x
_atom_site_fract_y
_atom_site_fract_z
_atom_site_charge
Mof_Cu	Cu	0.188	0.8292	0.314	0.886
Mof_O 	O 	0.1284	0.0703	0.3384	-0.28
Mof_O 	O 	0.1379	0.178	0.5668	-0.342
Mof_N 	N 	0.2204	0.0125	0.7372	-0.166
Mof_N 	N 	0.2571	0.9096	0.7932	-0.052
Mof_N 	N 	0.2513	0.8265	0.6706	-0.126
Mof_N 	N 	0.2117	0.8745	0.5379	-0.188
Mof_N 	N 	0.1432	0.6607	0.3229	-0.231
Mof_C 	C 	0.1491	0.0869	0.4848	0.267
Mof_C 	C 	0.1933	0.9885	0.5813	0.019
Mof_C 	C 	0.1121	0.72	0.3808	0.103
Mof_C 	C 	0.0746	0.645	0.4069	-0.221
Mof_C 	C 	0.06924	0.4987	0.3699	0.222
Mof_C 	C 	0.1007	0.4339	0.31	-0.232
Mof_C 	C 	0.1371	0.5187	0.2883	0.128
Mof_C 	C 	0.02929	0.41	0.39526	-0.389
Mof_H 	H 	0.11617	0.82114	0.40582	-0.017
Mof_H 	H 	0.05337	0.69211	0.44851	0.104
Mof_H 	H 	0.0974	0.33292	0.28422	0.133
Mof_H 	H 	0.15878	0.47405	0.24685	0.001
Mof_H 	H 	0.04647	0.35031	0.4885	0.158
Mof_H 	H 	0.00531	0.47325	0.41038	0.139
Mof_H 	H 	0.02417	0.256	0.2317	-0.016
Mof_Cu	Cu	0.688	0.3292	0.314	0.887
Mof_O 	O 	0.6284	0.5703	0.3384	-0.278
Mof_O 	O 	0.6379	0.678	0.5668	-0.342
Mof_N 	N 	0.7204	0.5125	0.7372	-0.165
Mof_N 	N 	0.7571	0.4096	0.7932	-0.052
Mof_N 	N 	0.7513	0.3265	0.6706	-0.126
Mof_N 	N 	0.7117	0.3745	0.5379	-0.188
Mof_N 	N 	0.6432	0.1607	0.3229	-0.233
Mof_C 	C 	0.6491	0.5869	0.4848	0.268
Mof_C 	C 	0.6933	0.4885	0.5813	0.018
Mof_C 	C 	0.6121	0.22	0.3808	0.108
Mof_C 	C 	0.5746	0.145	0.4069	-0.231
Mof_C 	C 	0.56924	0.9987	0.3699	0.239
Mof_C 	C 	0.6007	0.9339	0.31	-0.243
Mof_C 	C 	0.6371	0.0187	0.2883	0.134
Mof_C 	C 	0.52929	0.91	0.39526	-0.428
Mof_H 	H 	0.61617	0.32114	0.40582	-0.018
Mof_H 	H 	0.55337	0.19211	0.44851	0.109
Mof_H 	H 	0.5974	0.83292	0.28422	0.137
Mof_H 	H 	0.65878	0.97405	0.24685	-0.002
Mof_H 	H 	0.54647	0.85031	0.4885	0.171
Mof_H 	H 	0.50531	0.97325	0.41038	0.153
Mof_H 	H 	0.52417	0.756	0.2317	-0.034
Mof_Cu	Cu	0.812	0.8292	0.186	0.887
Mof_O 	O 	0.8716	0.0703	0.1616	-0.278
Mof_O 	O 	0.8621	0.178	0.9332	-0.343
Mof_N 	N 	0.7796	0.0125	0.7628	-0.166
Mof_N 	N 	0.7429	0.9096	0.7068	-0.052
Mof_N 	N 	0.7487	0.8265	0.8294	-0.126
Mof_N 	N 	0.7883	0.8745	0.9621	-0.188
Mof_N 	N 	0.8568	0.6607	0.1771	-0.231
Mof_C 	C 	0.8509	0.0869	0.0152	0.269
Mof_C 	C 	0.8067	0.9885	0.9187	0.019
Mof_C 	C 	0.8879	0.72	0.1192	0.105
Mof_C 	C 	0.9254	0.645	0.0931	-0.221
Mof_C 	C 	0.93076	0.4987	0.1301	0.225
Mof_C 	C 	0.8993	0.4339	0.19	-0.232
Mof_C 	C 	0.8629	0.5187	0.2117	0.129
Mof_C 	C 	0.97071	0.41	0.10474	-0.386
Mof_H 	H 	0.88383	0.82114	0.09418	-0.016
Mof_H 	H 	0.94663	0.69211	0.05149	0.107
Mof_H 	H 	0.9026	0.33292	0.21578	0.134
Mof_H 	H 	0.84122	0.47405	0.25315	0.001
Mof_H 	H 	0.95353	0.35031	0.0115	0.16
Mof_H 	H 	0.99469	0.47325	0.08962	0.145
Mof_H 	H 	0.97583	0.256	0.2683	-0.009
Mof_Cu	Cu	0.312	0.3292	0.186	0.887
Mof_O 	O 	0.3716	0.5703	0.1616	-0.278
Mof_O 	O 	0.3621	0.678	0.9332	-0.342
Mof_N 	N 	0.2796	0.5125	0.7628	-0.165
Mof_N 	N 	0.2429	0.4096	0.7068	-0.052
Mof_N 	N 	0.2487	0.3265	0.8294	-0.126
Mof_N 	N 	0.2883	0.3745	0.9621	-0.188
Mof_N 	N 	0.3568	0.1607	0.1771	-0.233
Mof_C 	C 	0.3509	0.5869	0.0152	0.267
Mof_C 	C 	0.3067	0.4885	0.9187	0.018
Mof_C 	C 	0.3879	0.22	0.1192	0.108
Mof_C 	C 	0.4254	0.145	0.0931	-0.23
Mof_C 	C 	0.43076	0.9987	0.1301	0.237
Mof_C 	C 	0.3993	0.9339	0.19	-0.243
Mof_C 	C 	0.3629	0.0187	0.2117	0.134
Mof_C 	C 	0.47071	0.91	0.10474	-0.428
Mof_H 	H 	0.38383	0.32114	0.09418	-0.017
Mof_H 	H 	0.44663	0.19211	0.05149	0.108
Mof_H 	H 	0.4026	0.83292	0.21578	0.137
Mof_H 	H 	0.34122	0.97405	0.25315	-0.002
Mof_H 	H 	0.45353	0.85031	0.0115	0.171
Mof_H 	H 	0.49469	0.97325	0.08962	0.153
Mof_H 	H 	0.47583	0.756	0.2683	-0.033
Mof_Cu	Cu	0.812	0.1708	0.686	0.887
Mof_O 	O 	0.8716	0.9297	0.6616	-0.278
Mof_O 	O 	0.8621	0.822	0.4332	-0.342
Mof_N 	N 	0.7796	0.9875	0.2628	-0.166
Mof_N 	N 	0.7429	0.0904	0.2068	-0.052
Mof_N 	N 	0.7487	0.1735	0.3294	-0.126
Mof_N 	N 	0.7883	0.1255	0.4621	-0.188
Mof_N 	N 	0.8568	0.3393	0.6771	-0.231
Mof_C 	C 	0.8509	0.9131	0.5152	0.267
Mof_C 	C 	0.8067	0.0115	0.4187	0.019
Mof_C 	C 	0.8879	0.28	0.6192	0.105
Mof_C 	C 	0.9254	0.355	0.5931	-0.221
Mof_C 	C 	0.93076	0.5013	0.6301	0.224
Mof_C 	C 	0.8993	0.5661	0.69	-0.232
Mof_C 	C 	0.8629	0.4813	0.7117	0.128
Mof_C 	C 	0.97071	0.59	0.60474	-0.385
Mof_H 	H 	0.88383	0.17886	0.59418	-0.016
Mof_H 	H 	0.94663	0.30789	0.55149	0.107
Mof_H 	H 	0.9026	0.66708	0.71578	0.133
Mof_H 	H 	0.84122	0.52595	0.75315	0.001
Mof_H 	H 	0.95353	0.64969	0.5115	0.16
Mof_H 	H 	0.99469	0.52675	0.58962	0.145
Mof_H 	H 	0.97583	0.744	0.7683	-0.009
Mof_Cu	Cu	0.312	0.6708	0.686	0.887
Mof_O 	O 	0.3716	0.4297	0.6616	-0.278
Mof_O 	O 	0.3621	0.322	0.4332	-0.342
Mof_N 	N 	0.2796	0.4875	0.2628	-0.165
Mof_N 	N 	0.2429	0.5904	0.2068	-0.052
Mof_N 	N 	0.2487	0.6735	0.3294	-0.126
Mof_N 	N 	0.2883	0.6255	0.4621	-0.188
Mof_N 	N 	0.3568	0.8393	0.6771	-0.233
Mof_C 	C 	0.3509	0.4131	0.5152	0.268
Mof_C 	C 	0.3067	0.5115	0.4187	0.018
Mof_C 	C 	0.3879	0.78	0.6192	0.108
Mof_C 	C 	0.4254	0.855	0.5931	-0.231
Mof_C 	C 	0.43076	0.0013	0.6301	0.239
Mof_C 	C 	0.3993	0.0661	0.69	-0.243
Mof_C 	C 	0.3629	0.9813	0.7117	0.135
Mof_C 	C 	0.47071	0.09	0.60474	-0.428
Mof_H 	H 	0.38383	0.67886	0.59418	-0.018
Mof_H 	H 	0.44663	0.80789	0.55149	0.109
Mof_H 	H 	0.4026	0.16708	0.71578	0.137
Mof_H 	H 	0.34122	0.02595	0.75315	-0.002
Mof_H 	H 	0.45353	0.14969	0.5115	0.171
Mof_H 	H 	0.49469	0.02675	0.58962	0.153
Mof_H 	H 	0.47583	0.244	0.7683	-0.034
Mof_Cu	Cu	0.188	0.1708	0.814	0.887
Mof_O 	O 	0.1284	0.9297	0.8384	-0.279
Mof_O 	O 	0.1379	0.822	0.0668	-0.343
Mof_N 	N 	0.2204	0.9875	0.2372	-0.166
Mof_N 	N 	0.2571	0.0904	0.2932	-0.052
Mof_N 	N 	0.2513	0.1735	0.1706	-0.126
Mof_N 	N 	0.2117	0.1255	0.0379	-0.188
Mof_N 	N 	0.1432	0.3393	0.8229	-0.231
Mof_C 	C 	0.1491	0.9131	0.9848	0.268
Mof_C 	C 	0.1933	0.0115	0.0813	0.019
Mof_C 	C 	0.1121	0.28	0.8808	0.103
Mof_C 	C 	0.0746	0.355	0.9069	-0.221
Mof_C 	C 	0.06924	0.5013	0.8699	0.222
Mof_C 	C 	0.1007	0.5661	0.81	-0.232
Mof_C 	C 	0.1371	0.4813	0.7883	0.128
Mof_C 	C 	0.02929	0.59	0.89526	-0.388
Mof_H 	H 	0.11617	0.17886	0.90582	-0.017
Mof_H 	H 	0.05337	0.30789	0.94851	0.104
Mof_H 	H 	0.0974	0.66708	0.78422	0.133
Mof_H 	H 	0.15878	0.52595	0.74685	0.001
Mof_H 	H 	0.04647	0.64969	0.9885	0.158
Mof_H 	H 	0.00531	0.52675	0.91038	0.138
Mof_H 	H 	0.02417	0.744	0.7317	-0.016
Mof_Cu	Cu	0.688	0.6708	0.814	0.887
Mof_O 	O 	0.6284	0.4297	0.8384	-0.278
Mof_O 	O 	0.6379	0.322	0.0668	-0.342
Mof_N 	N 	0.7204	0.4875	0.2372	-0.165
Mof_N 	N 	0.7571	0.5904	0.2932	-0.052
Mof_N 	N 	0.7513	0.6735	0.1706	-0.126
Mof_N 	N 	0.7117	0.6255	0.0379	-0.188
Mof_N 	N 	0.6432	0.8393	0.8229	-0.233
Mof_C 	C 	0.6491	0.4131	0.9848	0.267
Mof_C 	C 	0.6933	0.5115	0.0813	0.018
Mof_C 	C 	0.6121	0.78	0.8808	0.108
Mof_C 	C 	0.5746	0.855	0.9069	-0.23
Mof_C 	C 	0.56924	0.0013	0.8699	0.237
Mof_C 	C 	0.6007	0.0661	0.81	-0.243
Mof_C 	C 	0.6371	0.9813	0.7883	0.135
Mof_C 	C 	0.52929	0.09	0.89526	-0.428
Mof_H 	H 	0.61617	0.67886	0.90582	-0.017
Mof_H 	H 	0.55337	0.80789	0.94851	0.109
Mof_H 	H 	0.5974	0.16708	0.78422	0.137
Mof_H 	H 	0.65878	0.02595	0.74685	-0.002
Mof_H 	H 	0.54647	0.14969	0.9885	0.171
Mof_H 	H 	0.50531	0.02675	0.91038	0.153
Mof_H 	H 	0.52417	0.244	0.7317	-0.034
Mof_C 	C 	4.38914e-34	0.3159	0.25	0.169
Mof_C 	C 	0.5	0.8159	0.25	0.231
Mof_C 	C 	-1.28336e-17	0.6841	0.75	0.168
Mof_C 	C 	0.5	0.1841	0.75	0.231
_end
