data_functionalizedCrystal
_audit_creation_method	'EQeq! by Chris Wilmer'
_symmetry_space_group_name_H-M	'P1'
_symmetry_Int_Tables_number	1
_symmetry_cell_setting	triclinic
loop_
_symmetry_equiv_pos_as_xyz
  x,y,z
_cell_length_a	14.3239
_cell_length_b	15.3167
_cell_length_c	25.468
_cell_angle_alpha	87.994
_cell_angle_beta	85.151
_cell_angle_gamma	63.419
loop_
_atom_site_label
_atom_site_type_symbol
_atom_site_fract_x
_atom_site_fract_y
_atom_site_fract_z
_atom_site_charge
Mof_Gd	Gd	0.46018	0.24288	0.32299	1.566
Mof_Gd	Gd	0.54482	0.14896	0.15259	1.615
Mof_Gd	Gd	0.17023	0.45465	0.9827	1.641
Mof_Gd	Gd	0.15342	0.9287	0.47523	1.732
Mof_O 	O 	0.2635	0.0106	0.4922	-0.409
Mof_O 	O 	0.3747	0.2727	0.1794	-0.49
Mof_O 	O 	0.4861	0.0616	0.21087	-0.474
Mof_C 	C 	0.6362	0.4336	0.1608	0.019
Mof_H 	H 	0.6454	0.3953	0.1305	0.052
Mof_O 	O 	0.8659	0.2179	0.50211	-0.428
Mof_O 	O 	0.2608	0.8295	0.3908	-0.346
Mof_O 	O 	0.5387	0.31	0.25758	-0.468
Mof_O 	O 	0.3221	0.1347	0.4199	-0.263
Mof_O 	O 	0.6211	0.1153	0.29537	-0.492
Mof_O 	O 	0.2112	0.9876	0.39733	-0.38
Mof_O 	O 	0.053	0.851	0.1743	-0.06
Mof_O 	O 	0.6614	0.9845	0.11162	-0.37
Mof_O 	O 	0.0838	0.437	0.05924	-0.516
Mof_O 	O 	0.4185	0.1229	0.2907	-0.45
Mof_O 	O 	0.8364	0.5445	0.4671	-0.107
Mof_O 	O 	0.6799	0.0764	0.21163	-0.437
Mof_O 	O 	0.3978	0.6976	0.2076	-0.1
Mof_O 	O 	0.9716	0.5641	0.4396	-0.096
Mof_O 	O 	0.598	0.6818	0.2874	-0.096
Mof_O 	O 	0.085	0.0041	0.0519	-0.062
Mof_O 	O 	0.3339	0.3226	0.26343	-0.46
Mof_O 	O 	0.4698	0.7686	0.1563	-0.113
Mof_O 	O 	0.5889	0.57	0.3376	-0.112
Mof_O 	O 	0.8485	0.5282	0.2813	-0.094
Mof_O 	O 	0.5814	0.28	0.17047	-0.45
Mof_O 	O 	0.7099	0.6143	0.09908	-0.362
Mof_O 	O 	0.8947	0.6546	0.0391	-0.468
Mof_O 	O 	0.7153	0.0987	0.10131	-0.365
Mof_O 	O 	0.0587	0.6178	0.00747	-0.459
Mof_O 	O 	0.922	0.4758	0.093	-0.432
Mof_O 	O 	0.0369	0.9321	0.41243	-0.443
Mof_O 	O 	0.7263	0.4762	0.06691	-0.394
Mof_O 	O 	0.3021	0.2721	0.37755	-0.418
Mof_O 	O 	0.8678	0.034	0.43305	-0.474
Mof_N 	N 	0.9406	0.4887	0.2895	-0.009
Mof_N 	N 	0.5994	0.6024	0.2941	-0.005
Mof_O 	O 	0.0141	0.0888	0.47889	-0.507
Mof_C 	C 	0.8192	0.0194	0.3299	0.067
Mof_H 	H 	0.7631	0.0586	0.3543	0.008
Mof_C 	C 	0.7005	0.5369	0.1038	0.307
Mof_C 	C 	0.6596	0.5127	0.1562	-0.037
Mof_C 	C 	0.9438	0.9789	0.4022	0.448
Mof_C 	C 	0.0554	0.4312	0.1513	-0.145
Mof_C 	C 	0.1536	0.2676	0.4236	-0.056
Mof_C 	C 	0.1237	0.406	0.2521	-0.004
Mof_H 	H 	0.1464	0.3991	0.2867	0.066
Mof_C 	C 	0.0179	0.8908	0.0525	0.095
Mof_N 	N 	0.0659	0.8426	0.2216	-0.012
Mof_C 	C 	0.9585	0.1802	0.4822	0.392
Mof_C 	C 	0.9532	0.7746	0.0422	-0.103
Mof_C 	C 	0.8545	0.8445	0.0612	0.025
Mof_H 	H 	0.7973	0.8286	0.0641	0.042
Mof_C 	C 	0.5891	0.4648	0.2532	-0.031
Mof_H 	H 	0.5657	0.4491	0.2865	0.055
Mof_C 	C 	0.0364	0.7984	0.0375	-0.025
Mof_H 	H 	0.1042	0.7523	0.0243	0.071
Mof_C 	C 	0.3499	0.981	0.312	0.012
Mof_H 	H 	0.3326	0.0305	0.3377	0.063
Mof_C 	C 	0.4276	0.9123	0.2262	-0.034
Mof_H 	H 	0.4637	0.9139	0.1934	0.072
Mof_C 	C 	0.571	0.3261	0.2128	0.431
Mof_C 	C 	0.0186	0.452	0.2439	0.061
Mof_N 	N 	0.1054	0.9172	0.0481	-0.006
Mof_N 	N 	0.9293	0.5123	0.451	-0.005
Mof_C 	C 	0.9908	0.4065	0.447	0.103
Mof_C 	C 	0.8383	0.9371	0.0761	-0.041
Mof_C 	C 	0.4378	0.0631	0.2548	0.45
Mof_C 	C 	0.1068	0.2076	0.44	0.021
Mof_H 	H 	0.1459	0.1389	0.4363	0.058
Mof_C 	C 	0.691	0.0734	0.2597	0.467
Mof_C 	C 	0.1618	0.3839	0.1582	0.088
Mof_H 	H 	0.2111	0.3614	0.1284	-0.015
Mof_C 	C 	0.9823	0.4657	0.1943	-0.006
Mof_H 	H 	0.9094	0.4978	0.1898	0.071
Mof_C 	C 	0.7999	0.0138	0.2774	-0.129
Mof_C 	C 	0.3111	0.3176	0.2175	0.46
Mof_C 	C 	0.0011	0.9091	0.3109	-0.018
Mof_H 	H 	0.0701	0.8728	0.3216	0.076
Mof_C 	C 	0.3198	0.9069	0.3217	-0.033
Mof_C 	C 	0.9205	0.961	0.0712	-0.046
Mof_H 	H 	0.9106	0.0242	0.0805	0.092
Mof_C 	C 	0.4056	0.9824	0.2645	-0.095
Mof_C 	C 	0.9454	0.3473	0.4655	-0.042
Mof_H 	H 	0.8752	0.375	0.4804	0.083
Mof_C 	C 	0.2605	0.9063	0.3739	0.304
Mof_C 	C 	0.0946	0.3679	0.4267	-0.043
Mof_H 	H 	0.1247	0.4099	0.415	0.085
Mof_C 	C 	0.613	0.5424	0.2478	0.095
Mof_C 	C 	0.7313	0.0114	0.0975	0.297
Mof_C 	C 	0.0177	0.4489	0.0972	0.466
Mof_C 	C 	0.3441	0.8344	0.2847	-0.057
Mof_H 	H 	0.3259	0.7824	0.2918	0.097
Mof_C 	C 	0.9798	0.9043	0.2595	0.067
Mof_C 	C 	0.9701	0.674	0.0283	0.449
Mof_C 	C 	0.5999	0.4096	0.2085	-0.097
Mof_C 	C 	0.9199	0.968	0.3469	-0.117
Mof_N 	N 	0.4211	0.7638	0.1974	-0.007
Mof_C 	C 	0.1961	0.3696	0.2085	-0.142
Mof_C 	C 	0.881	0.9563	0.2418	-0.008
Mof_H 	H 	0.8692	0.9526	0.2059	0.071
Mof_C 	C 	0.6481	0.568	0.2001	-0.052
Mof_H 	H 	0.6637	0.6221	0.1976	0.099
Mof_C 	C 	0.3959	0.8396	0.2368	0.098
Mof_C 	C 	0.0043	0.2465	0.4618	-0.079
Mof_C 	C 	0.2688	0.2206	0.405	0.349
Mof_O 	O 	0.9661	0.4636	0.3331	-0.032
Mof_O 	O 	0.1481	0.7853	0.2405	-0.025
Mof_O 	O 	0.1941	0.8492	0.0414	-0.04
Mof_H 	H 	0.2777	0.0244	0.5248	0.195
Mof_O 	O 	0.9765	0.494	0.3332	-0.065
Mof_O 	O 	0.0922	0.9881	0.0749	-0.047
Mof_O 	O 	0.1844	0.8653	0.0198	-0.073
Mof_O 	O 	0.959	0.164	0.8226	-0.034
Mof_O 	O 	0.8435	0.1898	0.7663	-0.072
Mof_Gd	Gd	0.53982	0.75712	0.677	1.567
Mof_Gd	Gd	0.45518	0.85104	0.84741	1.615
Mof_Gd	Gd	0.82977	0.54535	0.0173	1.641
Mof_Gd	Gd	0.84658	0.0713	0.52476	1.732
Mof_O 	O 	0.7365	0.9894	0.5078	-0.409
Mof_O 	O 	0.6253	0.7273	0.8206	-0.49
Mof_O 	O 	0.5139	0.9384	0.78913	-0.474
Mof_C 	C 	0.3638	0.5664	0.8392	0.019
Mof_H 	H 	0.3546	0.6047	0.8695	0.052
Mof_O 	O 	0.1341	0.7821	0.49789	-0.428
Mof_O 	O 	0.7392	0.1705	0.6092	-0.346
Mof_O 	O 	0.4613	0.69	0.74242	-0.468
Mof_O 	O 	0.6779	0.8653	0.5801	-0.263
Mof_O 	O 	0.3789	0.8847	0.70463	-0.492
Mof_O 	O 	0.7888	0.0124	0.60267	-0.38
Mof_O 	O 	0.947	0.149	0.8257	-0.06
Mof_O 	O 	0.3386	0.0155	0.88838	-0.37
Mof_O 	O 	0.9162	0.563	0.94076	-0.516
Mof_O 	O 	0.5815	0.8771	0.7093	-0.45
Mof_O 	O 	0.1636	0.4555	0.5329	-0.107
Mof_O 	O 	0.3201	0.9236	0.78837	-0.437
Mof_O 	O 	0.6022	0.3024	0.7924	-0.1
Mof_O 	O 	0.0284	0.4359	0.5604	-0.096
Mof_O 	O 	0.402	0.3182	0.7126	-0.096
Mof_O 	O 	0.915	0.9959	0.9481	-0.062
Mof_O 	O 	0.6661	0.6774	0.73657	-0.46
Mof_O 	O 	0.5302	0.2314	0.8437	-0.113
Mof_O 	O 	0.4111	0.43	0.6624	-0.112
Mof_O 	O 	0.1515	0.4718	0.7187	-0.094
Mof_O 	O 	0.4186	0.72	0.82953	-0.45
Mof_O 	O 	0.2901	0.3857	0.90092	-0.362
Mof_O 	O 	0.1053	0.3454	0.9609	-0.468
Mof_O 	O 	0.2847	0.9013	0.89869	-0.365
Mof_O 	O 	0.9413	0.3822	0.99253	-0.459
Mof_O 	O 	0.078	0.5242	0.907	-0.432
Mof_O 	O 	0.9631	0.0679	0.58757	-0.443
Mof_O 	O 	0.2737	0.5238	0.93309	-0.394
Mof_O 	O 	0.6979	0.7279	0.62245	-0.418
Mof_O 	O 	0.1322	0.966	0.56695	-0.474
Mof_N 	N 	0.0594	0.5113	0.7105	-0.009
Mof_N 	N 	0.4006	0.3976	0.7059	-0.005
Mof_O 	O 	0.9859	0.9112	0.52111	-0.507
Mof_C 	C 	0.1808	0.9806	0.6701	0.067
Mof_H 	H 	0.2369	0.9414	0.6457	0.008
Mof_C 	C 	0.2995	0.4631	0.8962	0.307
Mof_C 	C 	0.3404	0.4873	0.8438	-0.037
Mof_C 	C 	0.0562	0.0211	0.5978	0.448
Mof_C 	C 	0.9446	0.5688	0.8487	-0.145
Mof_C 	C 	0.8464	0.7324	0.5764	-0.056
Mof_C 	C 	0.8763	0.594	0.7479	-0.004
Mof_H 	H 	0.8536	0.6009	0.7133	0.066
Mof_C 	C 	0.9821	0.1092	0.9475	0.095
Mof_N 	N 	0.9341	0.1574	0.7784	-0.012
Mof_C 	C 	0.0415	0.8198	0.5178	0.392
Mof_C 	C 	0.0468	0.2254	0.9578	-0.103
Mof_C 	C 	0.1455	0.1555	0.9388	0.025
Mof_H 	H 	0.2027	0.1714	0.9359	0.042
Mof_C 	C 	0.4109	0.5352	0.7468	-0.031
Mof_H 	H 	0.4343	0.5509	0.7135	0.055
Mof_C 	C 	0.9636	0.2016	0.9625	-0.025
Mof_H 	H 	0.8958	0.2477	0.9757	0.071
Mof_C 	C 	0.6501	0.019	0.688	0.012
Mof_H 	H 	0.6674	0.9695	0.6623	0.063
Mof_C 	C 	0.5724	0.0877	0.7738	-0.034
Mof_H 	H 	0.5363	0.0861	0.8066	0.072
Mof_C 	C 	0.429	0.6739	0.7872	0.431
Mof_C 	C 	0.9814	0.548	0.7561	0.061
Mof_N 	N 	0.8946	0.0828	0.9519	-0.006
Mof_N 	N 	0.0707	0.4877	0.549	-0.005
Mof_C 	C 	0.0092	0.5935	0.553	0.103
Mof_C 	C 	0.1617	0.0629	0.9239	-0.041
Mof_C 	C 	0.5622	0.9369	0.7452	0.45
Mof_C 	C 	0.8932	0.7924	0.56	0.021
Mof_H 	H 	0.8541	0.8611	0.5637	0.058
Mof_C 	C 	0.309	0.9266	0.7403	0.467
Mof_C 	C 	0.8382	0.6161	0.8418	0.088
Mof_H 	H 	0.7889	0.6386	0.8716	-0.015
Mof_C 	C 	0.0177	0.5343	0.8057	-0.006
Mof_H 	H 	0.0906	0.5022	0.8102	0.071
Mof_C 	C 	0.2001	0.9862	0.7226	-0.129
Mof_C 	C 	0.6889	0.6824	0.7825	0.46
Mof_C 	C 	0.9989	0.0909	0.6891	-0.018
Mof_H 	H 	0.9299	0.1272	0.6784	0.076
Mof_C 	C 	0.6802	0.0931	0.6783	-0.033
Mof_C 	C 	0.0795	0.039	0.9288	-0.046
Mof_H 	H 	0.0894	0.9758	0.9195	0.092
Mof_C 	C 	0.5944	0.0176	0.7355	-0.095
Mof_C 	C 	0.0546	0.6527	0.5345	-0.042
Mof_H 	H 	0.1248	0.625	0.5196	0.083
Mof_C 	C 	0.7395	0.0937	0.6261	0.304
Mof_C 	C 	0.9054	0.6321	0.5733	-0.043
Mof_H 	H 	0.8753	0.5901	0.585	0.085
Mof_C 	C 	0.387	0.4576	0.7522	0.095
Mof_C 	C 	0.2687	0.9886	0.9025	0.297
Mof_C 	C 	0.9823	0.5511	0.9028	0.466
Mof_C 	C 	0.6559	0.1656	0.7153	-0.057
Mof_H 	H 	0.6741	0.2176	0.7082	0.097
Mof_C 	C 	0.0202	0.0957	0.7405	0.067
Mof_C 	C 	0.0299	0.326	0.9717	0.449
Mof_C 	C 	0.4001	0.5904	0.7915	-0.097
Mof_C 	C 	0.0801	0.032	0.6531	-0.117
Mof_N 	N 	0.5789	0.2362	0.8026	-0.007
Mof_C 	C 	0.8039	0.6304	0.7915	-0.142
Mof_C 	C 	0.119	0.0437	0.7582	-0.008
Mof_H 	H 	0.1308	0.0474	0.7941	0.071
Mof_C 	C 	0.3519	0.432	0.7999	-0.052
Mof_H 	H 	0.3363	0.3779	0.8024	0.099
Mof_C 	C 	0.6041	0.1604	0.7632	0.098
Mof_C 	C 	0.9957	0.7535	0.5382	-0.079
Mof_C 	C 	0.7312	0.7794	0.595	0.349
Mof_O 	O 	0.0339	0.5364	0.6669	-0.032
Mof_O 	O 	0.8519	0.2147	0.7595	-0.025
Mof_O 	O 	0.8059	0.1508	0.9586	-0.04
Mof_H 	H 	0.7223	0.9756	0.4752	0.196
Mof_O 	O 	0.0235	0.506	0.6668	-0.065
Mof_O 	O 	0.9078	0.0119	0.9251	-0.047
Mof_O 	O 	0.8156	0.1347	0.9802	-0.073
Mof_O 	O 	0.041	0.836	0.1774	-0.034
Mof_O 	O 	0.1565	0.8102	0.2337	-0.072
_end
