data_functionalizedCrystal
_audit_creation_method	'EQeq! by Chris Wilmer'
_symmetry_space_group_name_H-M	'P1'
_symmetry_Int_Tables_number	1
_symmetry_cell_setting	triclinic
loop_
_symmetry_equiv_pos_as_xyz
  x,y,z
_cell_length_a	8.3957
_cell_length_b	8.3957
_cell_length_c	21.7332
_cell_angle_alpha	90
_cell_angle_beta	90
_cell_angle_gamma	120
loop_
_atom_site_label
_atom_site_type_symbol
_atom_site_fract_x
_atom_site_fract_y
_atom_site_fract_z
_atom_site_charge
Mof_O 	O 	0.2006	0.212	0.05282	-0.578
Mof_O 	O 	0.325	0.4622	0.11004	-0.514
Mof_C 	C 	0.1977	0.3244	0.0885	0.648
Mof_H 	H 	0.0813	0.2999	0.1006	-0.219
Mof_O 	O 	0.86727	0.54533	0.38615	-0.435
Mof_O 	O 	0.99167	0.79553	0.44337	-0.376
Mof_C 	C 	0.86437	0.65773	0.42183	0.587
Mof_H 	H 	0.74797	0.63323	0.43393	-0.125
Mof_O 	O 	0.53393	0.87867	0.71949	-0.499
Mof_O 	O 	0.65833	0.12887	0.77671	-0.6
Mof_C 	C 	0.53103	0.99107	0.75517	0.83
Mof_H 	H 	0.41463	0.96657	0.76727	-0.192
Mof_O 	O 	0.788	0.9886	0.05282	-0.399
Mof_O 	O 	0.5378	0.8628	0.11004	-0.451
Mof_C 	C 	0.6756	0.8733	0.0885	0.593
Mof_H 	H 	0.7001	0.7814	0.1006	-0.123
Mof_O 	O 	0.45467	0.32193	0.38615	-0.498
Mof_O 	O 	0.20447	0.19613	0.44337	-0.557
Mof_C 	C 	0.34227	0.20663	0.42183	0.64
Mof_H 	H 	0.36677	0.11473	0.43393	-0.201
Mof_O 	O 	0.12133	0.65527	0.71949	-0.435
Mof_O 	O 	0.87113	0.52947	0.77671	-0.348
Mof_C 	C 	0.00893	0.53997	0.75517	0.411
Mof_H 	H 	0.03343	0.44807	0.76727	-0.119
Mof_O 	O 	0.0114	0.7994	0.05282	-0.525
Mof_O 	O 	0.1372	0.675	0.11004	-0.519
Mof_C 	C 	0.1267	0.8023	0.0885	0.619
Mof_H 	H 	0.2186	0.9187	0.1006	-0.127
Mof_O 	O 	0.67807	0.13273	0.38615	-0.498
Mof_O 	O 	0.80387	0.00833	0.44337	-0.514
Mof_C 	C 	0.79337	0.13563	0.42183	0.62
Mof_H 	H 	0.88527	0.25203	0.43393	-0.125
Mof_O 	O 	0.34473	0.46607	0.71949	-0.496
Mof_O 	O 	0.47053	0.34167	0.77671	-0.51
Mof_C 	C 	0.46003	0.46897	0.75517	0.618
Mof_H 	H 	0.55193	0.58537	0.76727	-0.139
Mof_O 	O 	0.7994	0.788	0.94718	-0.372
Mof_O 	O 	0.675	0.5378	0.88996	-0.456
Mof_C 	C 	0.8023	0.6756	0.9115	0.582
Mof_H 	H 	0.9187	0.7001	0.8994	-0.081
Mof_O 	O 	0.46607	0.12133	0.28051	-0.451
Mof_O 	O 	0.34167	0.87113	0.22329	-0.357
Mof_C 	C 	0.46897	0.00893	0.24483	0.385
Mof_H 	H 	0.58537	0.03343	0.23273	-0.103
Mof_O 	O 	0.13273	0.45467	0.61385	-0.518
Mof_O 	O 	0.00833	0.20447	0.55663	-0.589
Mof_C 	C 	0.13563	0.34227	0.57817	0.645
Mof_H 	H 	0.25203	0.36677	0.56607	-0.175
Mof_O 	O 	0.212	0.0114	0.94718	-0.546
Mof_O 	O 	0.4622	0.1372	0.88996	-0.516
Mof_C 	C 	0.3244	0.1267	0.9115	0.637
Mof_H 	H 	0.2999	0.2186	0.8994	-0.177
Mof_O 	O 	0.87867	0.34473	0.28051	-0.517
Mof_O 	O 	0.12887	0.47053	0.22329	-0.618
Mof_C 	C 	0.99107	0.46003	0.24483	0.819
Mof_H 	H 	0.96657	0.55193	0.23273	-0.182
Mof_O 	O 	0.54533	0.67807	0.61385	-0.455
Mof_O 	O 	0.79553	0.80387	0.55663	-0.407
Mof_C 	C 	0.65773	0.79337	0.57817	0.591
Mof_H 	H 	0.63323	0.88527	0.56607	-0.099
Mof_O 	O 	0.9886	0.2006	0.94718	-0.409
Mof_O 	O 	0.8628	0.325	0.88996	-0.446
Mof_C 	C 	0.8733	0.1977	0.9115	0.606
Mof_H 	H 	0.7814	0.0813	0.8994	-0.165
Mof_O 	O 	0.65527	0.53393	0.28051	-0.458
Mof_O 	O 	0.52947	0.65833	0.22329	-0.459
Mof_C 	C 	0.53997	0.53103	0.24483	0.616
Mof_H 	H 	0.44807	0.41463	0.23273	-0.163
Mof_O 	O 	0.32193	0.86727	0.61385	-0.453
Mof_O 	O 	0.19613	0.99167	0.55663	-0.441
Mof_C 	C 	0.20663	0.86437	0.57817	0.608
Mof_H 	H 	0.11473	0.74797	0.56607	-0.171
Mof_Mg	Mg	-0	0	-0	1.456
Mof_Mg	Mg	0.66667	0.33333	0.33333	1.483
Mof_Mg	Mg	0.33333	0.66667	0.66667	1.483
Mof_Mg	Mg	0.33333	0.66667	0.16667	1.483
Mof_Mg	Mg	-9.51376e-33	0	0.5	1.463
Mof_Mg	Mg	0.66667	0.33333	0.83333	1.483
_end
