data_functionalizedCrystal
_audit_creation_method	'EQeq! by Chris Wilmer'
_symmetry_space_group_name_H-M	'P1'
_symmetry_Int_Tables_number	1
_symmetry_cell_setting	triclinic
loop_
_symmetry_equiv_pos_as_xyz
  x,y,z
_cell_length_a	13.7461
_cell_length_b	24.402
_cell_length_c	24.402
_cell_angle_alpha	120
_cell_angle_beta	90
_cell_angle_gamma	90
loop_
_atom_site_label
_atom_site_type_symbol
_atom_site_fract_x
_atom_site_fract_y
_atom_site_fract_z
_atom_site_charge
Mof_Ag	Ag	0.90779	0.09474	0.32485	0.676
Mof_Ag	Ag	0.75371	0.16454	0.8205	0.673
Mof_Ag	Ag	0.24112	0.23011	0.90526	0.665
Mof_Ag	Ag	0.08704	0.65596	0.83546	0.661
Mof_Ag	Ag	0.57446	0.67515	0.76989	0.672
Mof_Ag	Ag	0.42038	0.1795	0.34404	0.672
Mof_H 	H 	0.7313	0.9057	0.0977	0.086
Mof_H 	H 	0.7293	0.1159	0.1507	0.084
Mof_H 	H 	0.5634	0.0252	0.0295	0.083
Mof_H 	H 	0.5901	0.0961	0.0815	0.094
Mof_H 	H 	0.7215	0.1505	0.066	0.064
Mof_H 	H 	0.7367	0.9936	0.8542	0.149
Mof_H 	H 	0.5977	0.9419	0.8704	0.109
Mof_H 	H 	0.5686	0.9595	0.9408	0.088
Mof_H 	H 	0.7404	0.8857	0.8243	0.111
Mof_H 	H 	0.7628	0.8287	0.9783	0.069
Mof_H 	H 	0.615	0.878	0.019	0.088
Mof_H 	H 	0.5719	0.9293	0.0031	0.091
Mof_H 	H 	0.7958	0.9001	0.1987	0.141
Mof_H 	H 	0.911	0.9032	0.1908	0.18
Mof_H 	H 	0.8402	0.8869	0.1326	0.142
Mof_H 	H 	0.7628	0.1793	0.256	0.052
Mof_H 	H 	0.864	0.174	0.2201	0.049
Mof_H 	H 	0.8488	0.2187	0.3512	0.028
Mof_H 	H 	0.0178	0.1606	0.2813	0.116
Mof_H 	H 	0.0102	0.2048	0.3589	0.132
Mof_H 	H 	0.7644	0.2471	0.0723	0.091
Mof_H 	H 	0.876	0.2623	0.0668	0.095
Mof_H 	H 	0.8487	0.2086	0.0835	0.081
Mof_H 	H 	0.7803	0.0257	0.7945	0.082
Mof_H 	H 	0.8885	0.0138	0.8113	0.088
Mof_H 	H 	0.8806	0.0535	0.7312	0.007
Mof_H 	H 	0.9322	0.1528	0.8465	0.175
Mof_H 	H 	0.9512	0.1455	0.7765	0.187
Mof_H 	H 	0.8137	0.8063	0.7264	0.187
Mof_H 	H 	0.9264	0.7875	0.7152	0.158
Mof_H 	H 	0.8946	0.8571	0.7687	0.163
Mof_H 	H 	0.83	0.7407	0.9455	0.134
Mof_H 	H 	0.9421	0.7631	0.9541	0.141
Mof_H 	H 	0.9775	0.6833	0.9575	0.414
Mof_H 	H 	0.9928	0.6116	0.8968	0.394
Mof_H 	H 	0.9106	0.64	0.8389	-0.233
Mof_H 	H 	0.2177	0.1657	0.5115	0.079
Mof_H 	H 	0.2153	0.3636	0.5281	0.075
Mof_H 	H 	0.3988	0.3523	0.6187	0.085
Mof_H 	H 	0.3592	0.3922	0.5876	0.086
Mof_H 	H 	0.2313	0.4663	0.6352	0.078
Mof_H 	H 	0.2544	0.4477	0.8148	0.086
Mof_H 	H 	0.4089	0.3441	0.6953	0.089
Mof_H 	H 	0.3933	0.3782	0.7703	0.095
Mof_H 	H 	0.2488	0.3517	0.8108	0.078
Mof_H 	H 	0.2244	0.1605	0.6182	0.071
Mof_H 	H 	0.3528	0.1923	0.5792	0.087
Mof_H 	H 	0.3968	0.2623	0.6156	0.086
Mof_H 	H 	0.146	0.3622	0.4584	0.078
Mof_H 	H 	0.037	0.3693	0.4841	0.073
Mof_H 	H 	0.0567	0.338	0.4098	0.085
Mof_H 	H 	0.0512	0.1015	0.4407	0.031
Mof_H 	H 	0.1654	0.0992	0.4254	0.044
Mof_H 	H 	0.1077	0.0807	0.3165	0.002
Mof_H 	H 	0.9875	0.0102	0.3533	0.179
Mof_H 	H 	0.0026	0.9956	0.2803	0.183
Mof_H 	H 	0.1351	0.5019	0.8812	0.053
Mof_H 	H 	0.1059	0.5752	0.9198	0.064
Mof_H 	H 	0.2179	0.5551	0.9051	0.067
Mof_H 	H 	0.0895	0.5538	0.6612	0.017
Mof_H 	H 	0.2029	0.5679	0.6775	0.017
Mof_H 	H 	0.168	0.6808	0.7373	0.041
Mof_H 	H 	0.9697	0.6548	0.749	0.131
Mof_H 	H 	0.0167	0.7254	0.774	0.143
Mof_H 	H 	0.1024	0.1145	0.6219	0.07
Mof_H 	H 	0.0559	0.0819	0.6587	0.082
Mof_H 	H 	0.1715	0.0831	0.6515	0.08
Mof_H 	H 	0.0885	0.356	0.8717	0.046
Mof_H 	H 	0.2019	0.3473	0.8818	0.028
Mof_H 	H 	0.1214	0.3483	0.9741	-0.006
Mof_H 	H 	0.0591	0.2312	0.8772	0.147
Mof_H 	H 	0.0545	0.2561	0.9535	0.147
Mof_H 	H 	0.06463	0.192	0.0943	0.088
Mof_H 	H 	0.06263	0.0348	0.8841	0.065
Mof_H 	H 	0.89673	0.0043	0.9748	0.033
Mof_H 	H 	0.92343	0.9854	0.9039	0.071
Mof_H 	H 	0.05483	0.9155	0.8495	0.063
Mof_H 	H 	0.07003	0.8606	0.0064	0.146
Mof_H 	H 	0.93103	0.9285	0.0581	0.096
Mof_H 	H 	0.90193	0.9813	0.0405	0.087
Mof_H 	H 	0.07373	0.9386	0.1143	0.08
Mof_H 	H 	0.09613	0.1496	0.1713	0.088
Mof_H 	H 	0.94833	0.141	0.122	0.098
Mof_H 	H 	0.90523	0.0738	0.0707	0.099
Mof_H 	H 	0.12913	0.2986	0.0999	0.133
Mof_H 	H 	0.24433	0.2876	0.0968	0.172
Mof_H 	H 	0.17353	0.2457	0.1131	0.133
Mof_H 	H 	0.09613	0.0767	0.8207	0.054
Mof_H 	H 	0.19733	0.0461	0.826	0.048
Mof_H 	H 	0.18213	0.1325	0.7813	0.014
Mof_H 	H 	0.35113	0.1207	0.8394	0.144
Mof_H 	H 	0.34353	0.1541	0.7952	0.16
Mof_H 	H 	0.09773	0.8252	0.7529	0.093
Mof_H 	H 	0.20933	0.8045	0.7377	0.096
Mof_H 	H 	0.18203	0.8749	0.7914	0.088
Mof_H 	H 	0.11363	0.7688	0.9743	0.08
Mof_H 	H 	0.22183	0.7975	0.9862	0.086
Mof_H 	H 	0.21393	0.6777	0.9465	0.007
Mof_H 	H 	0.26553	0.6937	0.8472	0.171
Mof_H 	H 	0.28453	0.631	0.8545	0.183
Mof_H 	H 	0.14703	0.9201	0.1937	0.182
Mof_H 	H 	0.25973	0.9277	0.2125	0.153
Mof_H 	H 	0.22793	0.9116	0.1429	0.156
Mof_H 	H 	0.16333	0.2048	0.2593	0.133
Mof_H 	H 	0.27543	0.191	0.2369	0.139
Mof_H 	H 	0.31083	0.2742	0.3167	0.412
Mof_H 	H 	0.32613	0.2852	0.3884	0.388
Mof_H 	H 	0.24393	0.1989	0.36	-0.231
Mof_H 	H 	0.55103	0.3458	0.8343	0.079
Mof_H 	H 	0.54863	0.1645	0.6364	0.075
Mof_H 	H 	0.73213	0.2664	0.6477	0.085
Mof_H 	H 	0.69253	0.1954	0.6078	0.086
Mof_H 	H 	0.56463	0.1689	0.5337	0.078
Mof_H 	H 	0.58773	0.3671	0.5523	0.086
Mof_H 	H 	0.74223	0.3512	0.6559	0.089
Mof_H 	H 	0.72663	0.3921	0.6218	0.095
Mof_H 	H 	0.58213	0.4591	0.6483	0.079
Mof_H 	H 	0.55773	0.4577	0.8395	0.071
Mof_H 	H 	0.68613	0.3869	0.8077	0.088
Mof_H 	H 	0.73013	0.3533	0.7377	0.086
Mof_H 	H 	0.47933	0.0962	0.6378	0.077
Mof_H 	H 	0.37033	0.1148	0.6307	0.074
Mof_H 	H 	0.39003	0.0718	0.662	0.084
Mof_H 	H 	0.38453	0.3392	0.8985	0.032
Mof_H 	H 	0.49873	0.3262	0.9008	0.043
Mof_H 	H 	0.44103	0.2358	0.9193	0.005
Mof_H 	H 	0.32083	0.3431	0.9898	0.166
Mof_H 	H 	0.33593	0.2847	0.0044	0.182
Mof_H 	H 	0.46843	0.3793	0.4981	0.059
Mof_H 	H 	0.43923	0.3446	0.4248	0.072
Mof_H 	H 	0.55123	0.35	0.4449	0.072
Mof_H 	H 	0.42283	0.1074	0.4462	0.015
Mof_H 	H 	0.53623	0.1096	0.4321	0.013
Mof_H 	H 	0.50133	0.0565	0.3192	0.043
Mof_H 	H 	0.30303	0.0942	0.3452	0.114
Mof_H 	H 	0.35003	0.0486	0.2746	0.133
Mof_H 	H 	0.43573	0.5074	0.8855	0.073
Mof_H 	H 	0.38923	0.5768	0.9181	0.086
Mof_H 	H 	0.50483	0.5684	0.9169	0.082
Mof_H 	H 	0.42183	0.5157	0.644	0.05
Mof_H 	H 	0.53523	0.5345	0.6527	0.03
Mof_H 	H 	0.45473	0.6258	0.6517	-0.002
Mof_H 	H 	0.39243	0.646	0.7688	0.151
Mof_H 	H 	0.38783	0.6974	0.7439	0.155
Mof_H 	H 	0.39797	0.9023	0.808	0.08
Mof_H 	H 	0.39597	0.8493	0.9652	0.081
Mof_H 	H 	0.23007	0.9705	0.9957	0.062
Mof_H 	H 	0.25677	0.9185	0.0146	0.087
Mof_H 	H 	0.38817	0.934	0.0845	0.067
Mof_H 	H 	0.40337	0.1458	0.1394	0.12
Mof_H 	H 	0.26437	0.1296	0.0715	0.097
Mof_H 	H 	0.23527	0.0592	0.0187	0.082
Mof_H 	H 	0.40707	0.1757	0.0614	0.085
Mof_H 	H 	0.42947	0.0217	0.8504	0.079
Mof_H 	H 	0.28167	0.981	0.859	0.092
Mof_H 	H 	0.23857	0.9969	0.9262	0.09
Mof_H 	H 	0.46247	0.8013	0.7014	0.134
Mof_H 	H 	0.57767	0.8092	0.7124	0.172
Mof_H 	H 	0.50687	0.8674	0.7543	0.138
Mof_H 	H 	0.42947	0.744	0.9233	0.055
Mof_H 	H 	0.53067	0.7799	0.9539	0.048
Mof_H 	H 	0.51547	0.6488	0.8675	0.015
Mof_H 	H 	0.68447	0.7187	0.8793	0.144
Mof_H 	H 	0.67687	0.6411	0.8459	0.16
Mof_H 	H 	0.43107	0.9277	0.1748	0.091
Mof_H 	H 	0.54267	0.9332	0.1955	0.093
Mof_H 	H 	0.51537	0.9165	0.1251	0.082
Mof_H 	H 	0.44697	0.2055	0.2312	0.09
Mof_H 	H 	0.55517	0.1887	0.2025	0.095
Mof_H 	H 	0.54727	0.2688	0.3223	0.008
Mof_H 	H 	0.59887	0.1535	0.3063	0.173
Mof_H 	H 	0.61787	0.2235	0.369	0.185
Mof_H 	H 	0.48037	0.2736	0.0799	0.182
Mof_H 	H 	0.59307	0.2848	0.0723	0.152
Mof_H 	H 	0.56127	0.2313	0.0884	0.154
Mof_H 	H 	0.49667	0.0545	0.7952	0.128
Mof_H 	H 	0.60877	0.0459	0.809	0.131
Mof_H 	H 	0.64417	0.0425	0.7258	0.397
Mof_H 	H 	0.65947	0.1032	0.7148	0.376
Mof_H 	H 	0.57727	0.1611	0.8011	-0.222
Mof_H 	H 	0.88437	0.4885	0.6542	0.083
Mof_H 	H 	0.88197	0.4719	0.8355	0.077
Mof_H 	H 	0.06547	0.3813	0.7336	0.089
Mof_H 	H 	0.02587	0.4124	0.8046	0.089
Mof_H 	H 	0.89797	0.3648	0.8311	0.081
Mof_H 	H 	0.92107	0.1852	0.6329	0.089
Mof_H 	H 	0.07557	0.3047	0.6488	0.093
Mof_H 	H 	0.05997	0.2297	0.6079	0.098
Mof_H 	H 	0.91547	0.1892	0.5409	0.081
Mof_H 	H 	0.89107	0.3818	0.5423	0.075
Mof_H 	H 	0.01947	0.4208	0.6131	0.091
Mof_H 	H 	0.06347	0.3844	0.6467	0.09
Mof_H 	H 	0.81267	0.5416	0.9038	0.078
Mof_H 	H 	0.70367	0.5159	0.8852	0.075
Mof_H 	H 	0.72337	0.5902	0.9282	0.086
Mof_H 	H 	0.71787	0.5593	0.6608	0.027
Mof_H 	H 	0.83207	0.5746	0.6738	0.039
Mof_H 	H 	0.77437	0.6835	0.7642	0.02
Mof_H 	H 	0.65417	0.6467	0.6569	0.146
Mof_H 	H 	0.66927	0.7197	0.7153	0.142
Mof_H 	H 	0.80177	0.1188	0.6207	0.057
Mof_H 	H 	0.77257	0.0802	0.6554	0.069
Mof_H 	H 	0.88457	0.0949	0.65	0.071
Mof_H 	H 	0.75617	0.3388	0.8926	0.016
Mof_H 	H 	0.86957	0.3225	0.8904	0.015
Mof_H 	H 	0.83467	0.2627	0.9435	0.044
Mof_H 	H 	0.63637	0.251	0.9058	0.114
Mof_H 	H 	0.68337	0.226	0.9514	0.133
Mof_H 	H 	0.76907	0.3781	0.4926	0.077
Mof_H 	H 	0.72257	0.3413	0.4232	0.09
Mof_H 	H 	0.83817	0.3485	0.4316	0.088
Mof_H 	H 	0.75517	0.1283	0.4843	0.049
Mof_H 	H 	0.86857	0.1182	0.4655	0.03
Mof_H 	H 	0.78807	0.0259	0.3742	-0.006
Mof_H 	H 	0.72577	0.1228	0.354	0.15
Mof_H 	H 	0.72117	0.0465	0.3026	0.149
Mof_C 	C 	0.6816	0.9655	0.0701	0.083
Mof_C 	C 	0.7318	0.9487	0.1077	-0.152
Mof_C 	C 	0.7828	0.9924	0.1593	0.11
Mof_C 	C 	0.7802	0.0563	0.1753	0.101
Mof_C 	C 	0.7296	0.0726	0.1397	-0.147
Mof_C 	C 	0.6773	0.03	0.0874	0.037
Mof_C 	C 	0.6183	0.0546	0.0507	-0.195
Mof_C 	C 	0.6723	0.0622	0.0024	0.05
Mof_C 	C 	0.7232	0.1184	0.0227	-0.085
Mof_C 	C 	0.7784	0.1276	0.978	0.037
Mof_C 	C 	0.7793	0.0812	0.9146	0.165
Mof_C 	C 	0.7316	0.0266	0.897	-0.232
Mof_C 	C 	0.6753	0.0159	0.9381	0.067
Mof_C 	C 	0.6241	0.9543	0.9128	-0.209
Mof_C 	C 	0.6911	0.9004	0.9075	0.075
Mof_C 	C 	0.7452	0.873	0.8552	-0.147
Mof_C 	C 	0.8122	0.8228	0.8468	0.09
Mof_C 	C 	0.8184	0.806	0.8924	0.08
Mof_C 	C 	0.7586	0.8389	0.9456	-0.128
Mof_C 	C 	0.693	0.8858	0.9529	0.03
Mof_C 	C 	0.6329	0.9126	0.0108	-0.185
Mof_C 	C 	0.8473	0.9118	0.1787	-0.27
Mof_C 	C 	0.8309	0.1643	0.2503	-0.046
Mof_C 	C 	0.8848	0.1935	0.3134	0.022
Mof_C 	C 	0.9802	0.1855	0.3183	-0.3
Mof_C 	C 	0.8295	0.2288	0.0591	-0.143
Mof_C 	C 	0.8434	0.0462	0.813	-0.104
Mof_C 	C 	0.8856	0.0762	0.776	0.159
Mof_C 	C 	0.9262	0.1291	0.8018	-0.466
Mof_C 	C 	0.877	0.8122	0.7471	-0.3
Mof_C 	C 	0.8915	0.7372	0.9229	-0.345
Mof_C 	C 	0.9673	0.6532	0.9141	-1.124
Mof_C 	C 	0.9241	0.6671	0.8826	0.716
Mof_C 	C 	0.2748	0.2552	0.562	0.052
Mof_C 	C 	0.2146	0.2068	0.5164	-0.145
Mof_C 	C 	0.1511	0.2178	0.4788	0.109
Mof_C 	C 	0.1505	0.2764	0.4834	0.09
Mof_C 	C 	0.2136	0.3239	0.5264	-0.139
Mof_C 	C 	0.2729	0.3139	0.5659	0.052
Mof_C 	C 	0.3393	0.3693	0.6097	-0.198
Mof_C 	C 	0.2911	0.4152	0.6714	0.049
Mof_C 	C 	0.236	0.4629	0.6723	-0.14
Mof_C 	C 	0.1855	0.5075	0.7288	0.107
Mof_C 	C 	0.1957	0.5035	0.7854	0.124
Mof_C 	C 	0.2504	0.4533	0.779	-0.168
Mof_C 	C 	0.2982	0.412	0.7271	0.072
Mof_C 	C 	0.3591	0.3599	0.7291	-0.214
Mof_C 	C 	0.2952	0.305	0.7205	0.064
Mof_C 	C 	0.243	0.313	0.7719	-0.151
Mof_C 	C 	0.183	0.2668	0.7688	0.108
Mof_C 	C 	0.1763	0.2067	0.7112	0.092
Mof_C 	C 	0.2282	0.1991	0.6573	-0.13
Mof_C 	C 	0.2851	0.2496	0.6629	0.049
Mof_C 	C 	0.3355	0.2377	0.604	-0.198
Mof_C 	C 	0.0814	0.3426	0.4496	-0.136
Mof_C 	C 	0.1002	0.1096	0.4159	-0.031
Mof_C 	C 	0.0784	0.0703	0.3454	0.077
Mof_C 	C 	0.0167	0.0204	0.3243	-0.462
Mof_C 	C 	0.1513	0.5443	0.8888	-0.082
Mof_C 	C 	0.1368	0.5766	0.696	0.066
Mof_C 	C 	0.115	0.6535	0.7317	-0.032
Mof_C 	C 	0.0242	0.6807	0.7538	-0.307
Mof_C 	C 	0.111	0.1067	0.6573	-0.139
Mof_C 	C 	0.1366	0.3278	0.8752	-0.045
Mof_C 	C 	0.1095	0.3163	0.9317	0.072
Mof_C 	C 	0.071	0.2632	0.9198	-0.39
Mof_C 	C 	0.01493	0.1046	0.0345	0.109
Mof_C 	C 	0.06513	0.159	0.0513	-0.176
Mof_C 	C 	0.11613	0.1669	0.0076	0.123
Mof_C 	C 	0.11353	0.119	0.9437	0.079
Mof_C 	C 	0.06293	0.0671	0.9274	-0.109
Mof_C 	C 	0.01063	0.0574	0.97	-0.028
Mof_C 	C 	0.95163	0.9961	0.9454	-0.08
Mof_C 	C 	0.00563	0.9402	0.9378	-0.001
Mof_C 	C 	0.05653	0.9043	0.8816	-0.088
Mof_C 	C 	0.11173	0.8504	0.8724	0.049
Mof_C 	C 	0.11263	0.8334	0.9188	0.163
Mof_C 	C 	0.06493	0.8704	0.9734	-0.232
Mof_C 	C 	0.00863	0.9222	0.9841	0.078
Mof_C 	C 	0.95743	0.9585	0.0457	-0.144
Mof_C 	C 	0.02443	0.0071	0.0996	-0.024
Mof_C 	C 	0.07853	0.9822	0.127	-0.054
Mof_C 	C 	0.14553	0.024	0.1772	0.038
Mof_C 	C 	0.15173	0.0864	0.194	0.112
Mof_C 	C 	0.09193	0.1067	0.1611	-0.173
Mof_C 	C 	0.02633	0.0671	0.1142	0.096
Mof_C 	C 	0.96623	0.0982	0.0874	-0.237
Mof_C 	C 	0.18063	0.2669	0.0882	-0.256
Mof_C 	C 	0.16423	0.086	0.8357	-0.064
Mof_C 	C 	0.21813	0.1199	0.8065	0.057
Mof_C 	C 	0.31353	0.1328	0.8145	-0.369
Mof_C 	C 	0.16283	0.8303	0.7712	-0.174
Mof_C 	C 	0.17673	0.7668	0.9538	-0.101
Mof_C 	C 	0.21893	0.6998	0.9238	0.154
Mof_C 	C 	0.25953	0.6727	0.8709	-0.46
Mof_C 	C 	0.21033	0.9349	0.1878	-0.276
Mof_C 	C 	0.22483	0.1857	0.2628	-0.337
Mof_C 	C 	0.30063	0.2609	0.3468	-1.115
Mof_C 	C 	0.25743	0.2155	0.3329	0.705
Mof_C 	C 	0.60813	0.3068	0.7448	0.052
Mof_C 	C 	0.54793	0.3096	0.7932	-0.145
Mof_C 	C 	0.48443	0.261	0.7822	0.11
Mof_C 	C 	0.48383	0.207	0.7236	0.09
Mof_C 	C 	0.54693	0.2025	0.6761	-0.138
Mof_C 	C 	0.60623	0.252	0.6861	0.052
Mof_C 	C 	0.67263	0.2404	0.6307	-0.198
Mof_C 	C 	0.62443	0.2562	0.5848	0.05
Mof_C 	C 	0.56933	0.2094	0.5371	-0.141
Mof_C 	C 	0.51883	0.2213	0.4925	0.109
Mof_C 	C 	0.52903	0.2819	0.4965	0.122
Mof_C 	C 	0.58373	0.3257	0.5467	-0.167
Mof_C 	C 	0.63153	0.3151	0.588	0.072
Mof_C 	C 	0.69243	0.3692	0.6401	-0.214
Mof_C 	C 	0.62853	0.4155	0.695	0.065
Mof_C 	C 	0.57633	0.4589	0.687	-0.151
Mof_C 	C 	0.51633	0.502	0.7332	0.109
Mof_C 	C 	0.50963	0.5045	0.7933	0.092
Mof_C 	C 	0.56153	0.4582	0.8009	-0.129
Mof_C 	C 	0.61843	0.4133	0.7504	0.049
Mof_C 	C 	0.66883	0.3663	0.7623	-0.198
Mof_C 	C 	0.41473	0.107	0.6574	-0.135
Mof_C 	C 	0.43353	0.3063	0.8904	-0.027
Mof_C 	C 	0.41173	0.2751	0.9297	0.068
Mof_C 	C 	0.35003	0.3039	0.9796	-0.44
Mof_C 	C 	0.48463	0.3445	0.4557	-0.092
Mof_C 	C 	0.47013	0.1194	0.4234	0.074
Mof_C 	C 	0.44833	0.0782	0.3465	-0.048
Mof_C 	C 	0.35753	0.0731	0.3193	-0.276
Mof_C 	C 	0.44433	0.5506	0.8933	-0.144
Mof_C 	C 	0.46993	0.5474	0.6722	-0.048
Mof_C 	C 	0.44283	0.6154	0.6837	0.078
Mof_C 	C 	0.40433	0.6566	0.7368	-0.395
Mof_C 	C 	0.34827	0.9299	0.8954	0.064
Mof_C 	C 	0.39847	0.8923	0.841	-0.139
Mof_C 	C 	0.44947	0.8407	0.8331	0.079
Mof_C 	C 	0.44687	0.8247	0.881	0.125
Mof_C 	C 	0.39627	0.8603	0.9329	-0.156
Mof_C 	C 	0.34397	0.9126	0.9426	0.036
Mof_C 	C 	0.28497	0.9493	0.0039	-0.144
Mof_C 	C 	0.33897	0.9976	0.0598	0.046
Mof_C 	C 	0.38987	0.9773	0.0957	-0.086
Mof_C 	C 	0.44507	0.022	0.1496	0.043
Mof_C 	C 	0.44597	0.0854	0.1666	0.148
Mof_C 	C 	0.39827	0.103	0.1296	-0.19
Mof_C 	C 	0.34197	0.0619	0.0778	0.067
Mof_C 	C 	0.29077	0.0872	0.0415	-0.177
Mof_C 	C 	0.35777	0.0925	0.9929	-0.004
Mof_C 	C 	0.41187	0.1448	0.0178	-0.063
Mof_C 	C 	0.47887	0.1532	0.976	0.042
Mof_C 	C 	0.48507	0.1076	0.9136	0.105
Mof_C 	C 	0.42527	0.0544	0.8933	-0.16
Mof_C 	C 	0.35967	0.0471	0.9329	0.067
Mof_C 	C 	0.29957	0.9892	0.9018	-0.203
Mof_C 	C 	0.51397	0.8213	0.7331	-0.262
Mof_C 	C 	0.49757	0.7497	0.914	-0.062
Mof_C 	C 	0.55147	0.6866	0.8801	0.057
Mof_C 	C 	0.64687	0.6817	0.8672	-0.369
Mof_C 	C 	0.49617	0.9409	0.1697	-0.143
Mof_C 	C 	0.51007	0.187	0.2332	-0.111
Mof_C 	C 	0.55227	0.224	0.3002	0.162
Mof_C 	C 	0.59287	0.1982	0.3273	-0.468
Mof_C 	C 	0.54367	0.2529	0.0651	-0.272
Mof_C 	C 	0.55817	0.0771	0.8143	-0.323
Mof_C 	C 	0.63397	0.0859	0.7391	-1.083
Mof_C 	C 	0.59077	0.1174	0.7845	0.678
Mof_C 	C 	0.94147	0.438	0.6932	0.062
Mof_C 	C 	0.88127	0.4836	0.6904	-0.15
Mof_C 	C 	0.81777	0.5212	0.739	0.114
Mof_C 	C 	0.81717	0.5166	0.793	0.09
Mof_C 	C 	0.88027	0.4736	0.7975	-0.14
Mof_C 	C 	0.93957	0.4341	0.748	0.06
Mof_C 	C 	0.00597	0.3903	0.7596	-0.218
Mof_C 	C 	0.95777	0.3286	0.7438	0.059
Mof_C 	C 	0.90267	0.3277	0.7906	-0.144
Mof_C 	C 	0.85217	0.2712	0.7787	0.11
Mof_C 	C 	0.86237	0.2146	0.7181	0.124
Mof_C 	C 	0.91707	0.221	0.6743	-0.17
Mof_C 	C 	0.96487	0.2729	0.6849	0.08
Mof_C 	C 	0.02577	0.2709	0.6308	-0.233
Mof_C 	C 	0.96187	0.2795	0.5845	0.072
Mof_C 	C 	0.90967	0.2281	0.5411	-0.154
Mof_C 	C 	0.84967	0.2312	0.498	0.11
Mof_C 	C 	0.84297	0.2888	0.4955	0.094
Mof_C 	C 	0.89487	0.3427	0.5418	-0.133
Mof_C 	C 	0.95177	0.3371	0.5867	0.06
Mof_C 	C 	0.00217	0.396	0.6337	-0.22
Mof_C 	C 	0.74807	0.5504	0.893	-0.137
Mof_C 	C 	0.76687	0.5841	0.6937	-0.005
Mof_C 	C 	0.74507	0.6546	0.7249	0.029
Mof_C 	C 	0.68337	0.6757	0.6961	-0.364
Mof_C 	C 	0.81797	0.1112	0.6555	-0.088
Mof_C 	C 	0.80347	0.304	0.8806	0.073
Mof_C 	C 	0.78167	0.2683	0.9218	-0.047
Mof_C 	C 	0.69087	0.2462	0.9269	-0.276
Mof_C 	C 	0.77767	0.3427	0.4494	-0.151
Mof_C 	C 	0.80327	0.1248	0.4526	-0.047
Mof_C 	C 	0.77617	0.0683	0.3846	0.076
Mof_C 	C 	0.73767	0.0802	0.3434	-0.393
Mof_O 	O 	0.8396	0.979	0.1993	-0.167
Mof_O 	O 	0.8357	0.0946	0.2285	-0.245
Mof_O 	O 	0.8285	0.1835	0.9944	-0.171
Mof_O 	O 	0.8304	0.0956	0.8766	-0.232
Mof_O 	O 	0.8712	0.7903	0.794	-0.144
Mof_O 	O 	0.8788	0.7555	0.8773	-0.151
Mof_O 	O 	0.0876	0.2846	0.4444	-0.174
Mof_O 	O 	0.0968	0.1714	0.4304	-0.213
Mof_O 	O 	0.1155	0.1635	0.7131	-0.177
Mof_O 	O 	0.1358	0.2679	0.8203	-0.216
Mof_O 	O 	0.1445	0.5451	0.8343	-0.243
Mof_O 	O 	0.13	0.5569	0.7351	-0.279
Mof_O 	O 	0.17293	0.2203	0.021	-0.175
Mof_O 	O 	0.16903	0.1339	0.9054	-0.239
Mof_O 	O 	0.16183	0.8109	0.8165	-0.157
Mof_O 	O 	0.16373	0.781	0.9044	-0.233
Mof_O 	O 	0.20453	0.0037	0.2097	-0.15
Mof_O 	O 	0.21213	0.1218	0.2445	-0.161
Mof_O 	O 	0.42093	0.1598	0.7154	-0.174
Mof_O 	O 	0.43013	0.259	0.8286	-0.213
Mof_O 	O 	0.44883	0.5496	0.8365	-0.174
Mof_O 	O 	0.46913	0.5524	0.7321	-0.215
Mof_O 	O 	0.47783	0.2892	0.4549	-0.239
Mof_O 	O 	0.46333	0.1782	0.4431	-0.281
Mof_O 	O 	0.50627	0.8007	0.7797	-0.173
Mof_O 	O 	0.50237	0.7715	0.8661	-0.246
Mof_O 	O 	0.49517	0.0056	0.1891	-0.173
Mof_O 	O 	0.49707	0.1234	0.219	-0.226
Mof_O 	O 	0.53787	0.206	0.9963	-0.152
Mof_O 	O 	0.54547	0.1227	0.8782	-0.162
Mof_O 	O 	0.75427	0.5556	0.8402	-0.173
Mof_O 	O 	0.76347	0.5696	0.741	-0.218
Mof_O 	O 	0.78217	0.2869	0.4504	-0.172
Mof_O 	O 	0.80247	0.1797	0.4476	-0.215
Mof_O 	O 	0.81117	0.1657	0.7108	-0.24
Mof_O 	O 	0.79667	0.2649	0.8218	-0.281
Mof_Sb	Sb	0.0435	0.74453	0.10477	2.129
Mof_F 	F 	0.103	0.6842	0.045	-0.603
Mof_F 	F 	0.961	0.734	0.129	-0.776
Mof_F 	F 	0.019	0.7944	0.0753	-0.57
Mof_F 	F 	0.035	0.8186	0.1686	-0.506
Mof_F 	F 	0.168	0.792	0.0974	-0.381
Mof_F 	F 	0.126	0.723	0.1506	-0.434
Mof_Sb	Sb	0.37683	0.36024	0.25547	2.141
Mof_F 	F 	0.43633	0.3608	0.3158	-0.612
Mof_F 	F 	0.29433	0.395	0.266	-0.791
Mof_F 	F 	0.35233	0.2809	0.2056	-0.573
Mof_F 	F 	0.36833	0.35	0.1814	-0.503
Mof_F 	F 	0.50133	0.3054	0.208	-0.386
Mof_F 	F 	0.45933	0.4276	0.277	-0.435
Mof_Sb	Sb	0.71017	0.89523	0.63976	2.145
Mof_F 	F 	0.76967	0.955	0.6392	-0.602
Mof_F 	F 	0.62767	0.871	0.605	-0.788
Mof_F 	F 	0.68567	0.9247	0.7191	-0.568
Mof_F 	F 	0.70167	0.8314	0.65	-0.505
Mof_F 	F 	0.83467	0.9026	0.6946	-0.381
Mof_F 	F 	0.79267	0.8494	0.5724	-0.433
_end
