data_functionalizedCrystal
_audit_creation_method	'EQeq! by Chris Wilmer'
_symmetry_space_group_name_H-M	'P1'
_symmetry_Int_Tables_number	1
_symmetry_cell_setting	triclinic
loop_
_symmetry_equiv_pos_as_xyz
  x,y,z
_cell_length_a	10.3733
_cell_length_b	14.1908
_cell_length_c	34.2152
_cell_angle_alpha	78.3007
_cell_angle_beta	81.281
_cell_angle_gamma	68.562
loop_
_atom_site_label
_atom_site_type_symbol
_atom_site_fract_x
_atom_site_fract_y
_atom_site_fract_z
_atom_site_charge
Mof_Mn	Mn	0.39962	0.82683	0.83793	1.024
Mof_Mn	Mn	0.02523	0.94114	0.85526	0.783
Mof_Mn	Mn	0.77482	0.7132	0.81838	0.777
Mof_Mn	Mn	0.93562	0.32683	0.33793	0.985
Mof_Mn	Mn	0.17837	0.44114	0.35526	0.808
Mof_Mn	Mn	0.6936	0.2132	0.31838	0.782
Mof_H 	H 	0.7391	0.8013	0.1173	0.035
Mof_H 	H 	0.6585	0.8178	0.1596	0.032
Mof_H 	H 	0.4699	0.8086	0.0826	0.045
Mof_H 	H 	0.4218	0.9254	0.0636	0.039
Mof_H 	H 	0.5904	0.0058	0.1268	0.092
Mof_H 	H 	0.6555	0.976	0.0846	0.067
Mof_H 	H 	0.3219	0.9692	0.1292	0.034
Mof_H 	H 	0.375	0.854	0.1502	0.039
Mof_H 	H 	0.7854	0.6779	0.1947	0.128
Mof_H 	H 	0.8166	0.5448	0.2488	-0.018
Mof_H 	H 	0.551	0.4499	0.2091	-0.016
Mof_H 	H 	0.5212	0.5794	0.1542	0.14
Mof_H 	H 	0.4215	0.8237	0.0161	0.11
Mof_H 	H 	0.4364	0.7892	0.9512	-0.002
Mof_H 	H 	0.8176	0.8084	0.9296	0.001
Mof_H 	H 	0.8072	0.8347	0.9943	0.12
Mof_H 	H 	0.4427	0.0409	0.2271	0.13
Mof_H 	H 	0.27	0.1256	0.2724	-0.006
Mof_H 	H 	0.9911	0.0508	0.2278	-0.06
Mof_H 	H 	0.1623	0.9683	0.1817	0.148
Mof_H 	H 	0.1828	0.2758	0.0314	0.042
Mof_H 	H 	0.2449	0.1611	0.0527	0.043
Mof_H 	H 	0.4396	0.3249	0.0141	0.041
Mof_H 	H 	0.4464	0.3595	0.0545	0.045
Mof_H 	H 	0.2445	0.2178	0.1164	0.046
Mof_H 	H 	0.1765	0.3317	0.0955	0.049
Mof_H 	H 	0.5327	0.1788	0.0918	0.057
Mof_H 	H 	0.5492	0.1519	0.0485	0.058
Mof_H 	H 	0.1151	0.1701	0.9977	0.135
Mof_H 	H 	0.0704	0.0944	0.9496	-0.003
Mof_H 	H 	0.463	0.0304	0.902	-0.003
Mof_H 	H 	0.5052	0.1128	0.947	0.138
Mof_H 	H 	0.4479	0.475	0.981	0.126
Mof_H 	H 	0.4075	0.6089	0.9267	-0.004
Mof_H 	H 	0.0009	0.6938	0.9604	-0.001
Mof_H 	H 	0.0406	0.5558	0.012	0.131
Mof_H 	H 	0.0952	0.3241	0.1655	0.133
Mof_H 	H 	0.031	0.3596	0.2296	-0.004
Mof_H 	H 	0.4169	0.3527	0.2385	0.004
Mof_H 	H 	0.4773	0.3281	0.1725	0.13
Mof_H 	H 	0.3423	0.3013	0.6173	0.044
Mof_H 	H 	0.3641	0.3178	0.6596	0.038
Mof_H 	H 	0.6389	0.3086	0.5826	0.041
Mof_H 	H 	0.5892	0.4254	0.5636	0.039
Mof_H 	H 	0.277	0.5058	0.6268	0.063
Mof_H 	H 	0.2839	0.476	0.5846	0.058
Mof_H 	H 	0.5797	0.4692	0.6292	0.034
Mof_H 	H 	0.6208	0.354	0.6502	0.035
Mof_H 	H 	0.342	0.1779	0.6947	0.139
Mof_H 	H 	0.3898	0.0448	0.7488	-0.012
Mof_H 	H 	0.79	0.9499	0.7091	-0.014
Mof_H 	H 	0.7452	0.0794	0.6542	0.132
Mof_H 	H 	0.7387	0.3237	0.5161	0.129
Mof_H 	H 	0.8232	0.2892	0.4512	-0.017
Mof_H 	H 	0.4444	0.3084	0.4296	-0
Mof_H 	H 	0.3638	0.3347	0.4943	0.14
Mof_H 	H 	0.2893	0.5409	0.7271	0.136
Mof_H 	H 	0.332	0.6256	0.7724	-0.01
Mof_H 	H 	0.7303	0.5508	0.7278	-0.02
Mof_H 	H 	0.6877	0.4683	0.6817	0.127
Mof_H 	H 	0.51	0.7758	0.5314	0.033
Mof_H 	H 	0.5413	0.6611	0.5527	0.034
Mof_H 	H 	0.2214	0.8249	0.5141	0.039
Mof_H 	H 	0.1396	0.8595	0.5545	0.044
Mof_H 	H 	0.4213	0.7178	0.6164	0.037
Mof_H 	H 	0.3963	0.8317	0.5955	0.039
Mof_H 	H 	0.1967	0.6788	0.5918	0.056
Mof_H 	H 	0.2504	0.6519	0.5485	0.056
Mof_H 	H 	0.7171	0.6701	0.4977	0.13
Mof_H 	H 	0.8856	0.5944	0.4496	-0.027
Mof_H 	H 	0.6046	0.5304	0.402	-0.019
Mof_H 	H 	0.435	0.6128	0.447	0.144
Mof_H 	H 	0.0961	0.975	0.481	0.111
Mof_H 	H 	0.0569	0.1089	0.4267	0.006
Mof_H 	H 	0.3449	0.1938	0.4604	-0.016
Mof_H 	H 	0.3916	0.0558	0.512	0.15
Mof_H 	H 	0.4152	0.8241	0.6655	0.136
Mof_H 	H 	0.3798	0.8596	0.7296	-0.025
Mof_H 	H 	0.9919	0.8527	0.7385	-0.038
Mof_H 	H 	0.0221	0.8281	0.6725	0.152
Mof_C 	C 	0.531	0.89461	0.11299	0.037
Mof_C 	C 	0.6518	0.80601	0.13319	0.019
Mof_C 	C 	0.4975	0.86865	0.07575	0
Mof_C 	C 	0.5728	0.98934	0.10266	-0.104
Mof_C 	C 	0.3991	0.91545	0.14195	0.009
Mof_C 	C 	0.6487	0.64259	0.16961	0.29
Mof_C 	C 	0.7378	0.63228	0.19752	-0.285
Mof_C 	C 	0.7558	0.55251	0.23009	0.165
Mof_C 	C 	0.6848	0.48563	0.23477	-0.218
Mof_C 	C 	0.598	0.49595	0.20625	0.166
Mof_C 	C 	0.5793	0.57359	0.17341	-0.281
Mof_C 	C 	0.7001	0.40046	0.27054	0.413
Mof_C 	C 	0.6127	0.83192	0.01128	0.244
Mof_C 	C 	0.5014	0.81929	0.99891	-0.23
Mof_C 	C 	0.5103	0.79969	0.95971	0.125
Mof_C 	C 	0.627	0.79576	0.93384	-0.183
Mof_C 	C 	0.7388	0.81009	0.94691	0.119
Mof_C 	C 	0.7319	0.82678	0.98542	-0.236
Mof_C 	C 	0.6387	0.77474	0.89206	0.372
Mof_C 	C 	0.3186	0.99505	0.20055	0.279
Mof_C 	C 	0.3519	0.04294	0.22726	-0.246
Mof_C 	C 	0.24825	0.09405	0.25425	0.15
Mof_C 	C 	0.11291	0.09808	0.2543	-0.198
Mof_C 	C 	0.0815	0.04955	0.22745	0.245
Mof_C 	C 	0.1841	0.99912	0.20008	-0.337
Mof_C 	C 	0.99995	0.15517	0.28333	0.363
Mof_C 	C 	0.3503	0.25117	0.06303	0.032
Mof_C 	C 	0.2683	0.21956	0.03804	0.008
Mof_C 	C 	0.3889	0.34153	0.03947	0
Mof_C 	C 	0.2641	0.27732	0.10128	0.001
Mof_C 	C 	0.487	0.16275	0.07265	-0.039
Mof_C 	C 	0.3157	0.149	0.977	0.293
Mof_C 	C 	0.1844	0.14337	0.97823	-0.272
Mof_C 	C 	0.159	0.09651	0.94949	0.15
Mof_C 	C 	0.2603	0.05375	0.92105	-0.178
Mof_C 	C 	0.3922	0.05962	0.92078	0.153
Mof_C 	C 	0.4178	0.10781	0.94799	-0.269
Mof_C 	C 	0.2331	0.99953	0.89127	0.372
Mof_C 	C 	0.2488	0.50286	0.00074	0.266
Mof_C 	C 	0.3575	0.51828	0.97632	-0.26
Mof_C 	C 	0.3334	0.59937	0.94403	0.146
Mof_C 	C 	0.198	0.66595	0.93785	-0.201
Mof_C 	C 	0.0914	0.64894	0.96386	0.149
Mof_C 	C 	0.1145	0.56706	0.99514	-0.244
Mof_C 	C 	0.1695	0.75061	0.90319	0.407
Mof_C 	C 	0.2922	0.32449	0.16251	0.27
Mof_C 	C 	0.1585	0.33201	0.17999	-0.263
Mof_C 	C 	0.1212	0.35143	0.21857	0.156
Mof_C 	C 	0.21574	0.35908	0.24144	-0.193
Mof_C 	C 	0.3517	0.34881	0.22359	0.132
Mof_C 	C 	0.3887	0.33298	0.18422	-0.253
Mof_C 	C 	0.17897	0.37815	0.28311	0.373
Mof_C 	C 	0.4614	0.39461	0.61299	0.022
Mof_C 	C 	0.409	0.30601	0.63319	0.021
Mof_C 	C 	0.5581	0.36865	0.57575	0.012
Mof_C 	C 	0.3352	0.48934	0.60266	-0.037
Mof_C 	C 	0.5435	0.41545	0.64195	0.017
Mof_C 	C 	0.5391	0.14259	0.66961	0.288
Mof_C 	C 	0.4324	0.13228	0.69752	-0.288
Mof_C 	C 	0.4616	0.05251	0.73009	0.194
Mof_C 	C 	0.5948	0.98563	0.73477	-0.233
Mof_C 	C 	0.6998	0.99595	0.70625	0.142
Mof_C 	C 	0.6737	0.07359	0.67341	-0.253
Mof_C 	C 	0.6289	0.90046	0.77054	0.419
Mof_C 	C 	0.5441	0.33192	0.51128	0.286
Mof_C 	C 	0.6804	0.31929	0.49891	-0.277
Mof_C 	C 	0.7303	0.29969	0.45971	0.158
Mof_C 	C 	0.6434	0.29576	0.43384	-0.202
Mof_C 	C 	0.5042	0.31009	0.44691	0.149
Mof_C 	C 	0.4559	0.32678	0.48542	-0.267
Mof_C 	C 	0.6945	0.27474	0.39206	0.381
Mof_C 	C 	0.4858	0.49505	0.70055	0.284
Mof_C 	C 	0.3779	0.54294	0.72726	-0.267
Mof_C 	C 	0.40345	0.59405	0.75425	0.158
Mof_C 	C 	0.53471	0.59808	0.7543	-0.21
Mof_C 	C 	0.6415	0.54955	0.72745	0.159
Mof_C 	C 	0.6167	0.49912	0.70008	-0.282
Mof_C 	C 	0.56155	0.65517	0.78333	0.417
Mof_C 	C 	0.3355	0.75117	0.56303	0.019
Mof_C 	C 	0.4741	0.71956	0.53804	0.019
Mof_C 	C 	0.2301	0.84153	0.53947	0.013
Mof_C 	C 	0.3573	0.77732	0.60128	0.017
Mof_C 	C 	0.2776	0.66275	0.57265	-0.025
Mof_C 	C 	0.5583	0.649	0.477	0.298
Mof_C 	C 	0.694	0.64337	0.47823	-0.296
Mof_C 	C 	0.795	0.59651	0.44949	0.175
Mof_C 	C 	0.7649	0.55375	0.42105	-0.227
Mof_C 	C 	0.6274	0.55962	0.42078	0.179
Mof_C 	C 	0.5264	0.60781	0.44799	-0.292
Mof_C 	C 	0.8761	0.49953	0.39127	0.425
Mof_C 	C 	0.2476	0.00286	0.50074	0.307
Mof_C 	C 	0.1479	0.01828	0.47632	-0.248
Mof_C 	C 	0.1232	0.09937	0.44403	0.148
Mof_C 	C 	0.1982	0.16595	0.43785	-0.208
Mof_C 	C 	0.2958	0.14894	0.46386	0.172
Mof_C 	C 	0.3233	0.06706	0.49514	-0.287
Mof_C 	C 	0.1767	0.25061	0.40319	0.41
Mof_C 	C 	0.2208	0.82449	0.66251	0.294
Mof_C 	C 	0.3295	0.83201	0.67999	-0.293
Mof_C 	C 	0.3088	0.85143	0.71857	0.185
Mof_C 	C 	0.18374	0.85908	0.74144	-0.23
Mof_C 	C 	0.0759	0.84881	0.72359	0.203
Mof_C 	C 	0.0941	0.83298	0.68422	-0.298
Mof_C 	C 	0.15977	0.87815	0.78311	0.389
Mof_O 	O 	0.45434	0.07372	0.0888	-0.135
Mof_O 	O 	0.62359	0.71501	0.13601	-0.249
Mof_O 	O 	0.62061	0.84907	0.04851	-0.236
Mof_O 	O 	0.42876	0.94606	0.17562	-0.252
Mof_O 	O 	0.77525	0.39489	0.29681	-0.4
Mof_O 	O 	0.63423	0.34137	0.27197	-0.381
Mof_O 	O 	0.55185	0.74439	0.88151	-0.394
Mof_O 	O 	0.74121	0.78748	0.8687	-0.387
Mof_O 	O 	0.88013	0.15095	0.28339	-0.392
Mof_O 	O 	0.03286	0.20224	0.30484	-0.357
Mof_O 	O 	0.35581	0.19365	0.00233	-0.249
Mof_O 	O 	0.25878	0.42559	0.03305	-0.234
Mof_O 	O 	0.34068	0.30954	0.1237	-0.237
Mof_O 	O 	0.33613	0.95344	0.8695	-0.391
Mof_O 	O 	0.10943	0.00618	0.89036	-0.367
Mof_O 	O 	0.26739	0.75598	0.87744	-0.396
Mof_O 	O 	0.04618	0.81336	0.90168	-0.373
Mof_O 	O 	0.05363	0.41151	0.29683	-0.382
Mof_O 	O 	0.27633	0.36559	0.30455	-0.374
Mof_O 	O 	0.38314	0.57372	0.5888	-0.161
Mof_O 	O 	0.52539	0.21501	0.63601	-0.246
Mof_O 	O 	0.48181	0.34907	0.54851	-0.24
Mof_O 	O 	0.44956	0.44606	0.67562	-0.246
Mof_O 	O 	0.53305	0.89489	0.79681	-0.404
Mof_O 	O 	0.75243	0.84137	0.77197	-0.385
Mof_O 	O 	0.82225	0.24439	0.38151	-0.399
Mof_O 	O 	0.60261	0.28748	0.3687	-0.383
Mof_O 	O 	0.68553	0.65095	0.78339	-0.403
Mof_O 	O 	0.46006	0.70224	0.80484	-0.398
Mof_O 	O 	0.44821	0.69365	0.50233	-0.251
Mof_O 	O 	0.28258	0.92559	0.53305	-0.256
Mof_O 	O 	0.22608	0.80954	0.6237	-0.245
Mof_O 	O 	0.84093	0.45344	0.3695	-0.401
Mof_O 	O 	0.99403	0.50618	0.39036	-0.423
Mof_O 	O 	0.09919	0.25598	0.37744	-0.382
Mof_O 	O 	0.23878	0.31336	0.40168	-0.375
Mof_O 	O 	0.23803	0.91151	0.79683	-0.403
Mof_O 	O 	0.05353	0.86559	0.80455	-0.371
_end
