data_functionalizedCrystal
_audit_creation_method	'EQeq! by Chris Wilmer'
_symmetry_space_group_name_H-M	'P1'
_symmetry_Int_Tables_number	1
_symmetry_cell_setting	triclinic
loop_
_symmetry_equiv_pos_as_xyz
  x,y,z
_cell_length_a	22.65
_cell_length_b	16.34
_cell_length_c	12.57
_cell_angle_alpha	90
_cell_angle_beta	118.6
_cell_angle_gamma	90
loop_
_atom_site_label
_atom_site_type_symbol
_atom_site_fract_x
_atom_site_fract_y
_atom_site_fract_z
_atom_site_charge
Mof_S 	S 	0.07841	0.97053	0.14012	0.016
Mof_S 	S 	0.96442	0.3597	0.5142	-0.023
Mof_S 	S 	0.20098	0.44765	0.2331	-0.057
Mof_O 	O 	0.9749	0.5842	0.6352	-0.18
Mof_N 	N 	0.1896	0.1589	0.0359	-0.229
Mof_N 	N 	0.1591	0.2893	0.8418	-0.274
Mof_N 	N 	0.2338	0.338	0.1036	-0.269
Mof_C 	C 	0.1554	0.1812	0.0915	0.073
Mof_H 	H 	0.1556	0.2375	0.1103	-0.012
Mof_C 	C 	0.12	0.1292	0.1239	-0.128
Mof_H 	H 	0.0965	0.1495	0.1639	0.068
Mof_C 	C 	0.1826	0.0808	0.0007	0
Mof_H 	H 	0.2024	0.0639	0.9527	0.049
Mof_C 	C 	0.1482	0.0234	0.03	-0.097
Mof_H 	H 	0.1452	0.9684	0.0032	0.051
Mof_C 	C 	0.1182	0.0462	0.0984	0.047
Mof_C 	C 	0.0356	0.0328	0.1996	-0.283
Mof_H 	H 	0.0685	0.0686	0.2643	0.106
Mof_H 	H 	0.0025	0.0682	0.1344	0.101
Mof_C 	C 	0.1146	0.2386	0.7714	0.164
Mof_H 	H 	0.1232	0.1821	0.7898	-0.023
Mof_C 	C 	0.0557	0.2592	0.672	-0.241
Mof_H 	H 	0.0252	0.2174	0.6249	0.127
Mof_C 	C 	0.1433	0.3633	0.8197	0.162
Mof_H 	H 	0.1725	0.4028	0.8755	-0.026
Mof_C 	C 	0.0877	0.3902	0.7217	-0.215
Mof_H 	H 	0.0797	0.4471	0.7063	0.121
Mof_C 	C 	0.0415	0.3322	0.6421	0.167
Mof_C 	C 	0.9811	0.4674	0.4874	-0.064
Mof_C 	C 	0.9362	0.453	0.5602	-0.024
Mof_C 	C 	0.9775	0.5246	0.5707	0.15
Mof_C 	C 	0.2187	0.3829	0.1557	0.102
Mof_S 	S 	0.57841	0.47053	0.14012	0.009
Mof_S 	S 	0.46442	0.8597	0.5142	-0.021
Mof_S 	S 	0.70098	0.94765	0.2331	-0.055
Mof_O 	O 	0.4749	0.0842	0.6352	-0.179
Mof_N 	N 	0.6896	0.6589	0.0359	-0.228
Mof_N 	N 	0.6591	0.7893	0.8418	-0.273
Mof_N 	N 	0.7338	0.838	0.1036	-0.269
Mof_C 	C 	0.6554	0.6812	0.0915	0.073
Mof_H 	H 	0.6556	0.7375	0.1103	-0.012
Mof_C 	C 	0.62	0.6292	0.1239	-0.128
Mof_H 	H 	0.5965	0.6495	0.1639	0.068
Mof_C 	C 	0.6826	0.5808	0.0007	-0.005
Mof_H 	H 	0.7024	0.5639	0.9527	0.053
Mof_C 	C 	0.6482	0.5234	0.03	-0.091
Mof_H 	H 	0.6452	0.4684	0.0032	0.047
Mof_C 	C 	0.6182	0.5462	0.0984	0.048
Mof_C 	C 	0.5356	0.5328	0.1996	-0.27
Mof_H 	H 	0.5685	0.5686	0.2643	0.103
Mof_H 	H 	0.5025	0.5682	0.1344	0.096
Mof_C 	C 	0.6146	0.7386	0.7714	0.163
Mof_H 	H 	0.6232	0.6821	0.7898	-0.023
Mof_C 	C 	0.5557	0.7592	0.672	-0.239
Mof_H 	H 	0.5252	0.7174	0.6249	0.125
Mof_C 	C 	0.6433	0.8633	0.8197	0.161
Mof_H 	H 	0.6725	0.9028	0.8755	-0.025
Mof_C 	C 	0.5877	0.8902	0.7217	-0.213
Mof_H 	H 	0.5797	0.9471	0.7063	0.121
Mof_C 	C 	0.5415	0.8322	0.6421	0.164
Mof_C 	C 	0.4811	0.9674	0.4874	-0.056
Mof_C 	C 	0.4362	0.953	0.5602	-0.022
Mof_C 	C 	0.4775	0.0246	0.5707	0.148
Mof_C 	C 	0.7187	0.8829	0.1557	0.102
Mof_S 	S 	0.92159	0.97053	0.35988	0.021
Mof_S 	S 	0.03558	0.3597	0.9858	0.041
Mof_S 	S 	0.79902	0.44765	0.2669	-0.054
Mof_O 	O 	0.0251	0.5842	0.8648	-0.175
Mof_N 	N 	0.8104	0.1589	0.4641	-0.238
Mof_N 	N 	0.8409	0.2893	0.6582	-0.279
Mof_N 	N 	0.7662	0.338	0.3964	-0.263
Mof_C 	C 	0.8446	0.1812	0.4085	0.085
Mof_H 	H 	0.8444	0.2375	0.3897	-0.01
Mof_C 	C 	0.88	0.1292	0.3761	-0.14
Mof_H 	H 	0.9035	0.1495	0.3361	0.073
Mof_C 	C 	0.8174	0.0808	0.4993	0.086
Mof_H 	H 	0.7976	0.0639	0.5473	-0.005
Mof_C 	C 	0.8518	0.0234	0.47	-0.14
Mof_H 	H 	0.8548	0.9684	0.4968	0.078
Mof_C 	C 	0.8818	0.0462	0.4016	0.068
Mof_C 	C 	0.9644	0.0328	0.3004	-0.286
Mof_H 	H 	0.9315	0.0686	0.2357	0.1
Mof_H 	H 	0.9975	0.0682	0.3656	0.107
Mof_C 	C 	0.8854	0.2386	0.7286	0.159
Mof_H 	H 	0.8768	0.1821	0.7102	-0.027
Mof_C 	C 	0.9443	0.2592	0.828	-0.228
Mof_H 	H 	0.9748	0.2174	0.8751	0.126
Mof_C 	C 	0.8567	0.3633	0.6803	0.157
Mof_H 	H 	0.8275	0.4028	0.6245	-0.031
Mof_C 	C 	0.9123	0.3902	0.7783	-0.201
Mof_H 	H 	0.9203	0.4471	0.7937	0.117
Mof_C 	C 	0.9585	0.3322	0.8579	0.15
Mof_C 	C 	0.0189	0.4674	0.0126	-0.155
Mof_C 	C 	0.0638	0.453	0.9398	-0.001
Mof_C 	C 	0.0225	0.5246	0.9293	0.167
Mof_C 	C 	0.7813	0.3829	0.3443	0.109
Mof_S 	S 	0.42159	0.47053	0.35988	0.016
Mof_S 	S 	0.53558	0.8597	0.9858	0.038
Mof_S 	S 	0.29902	0.94765	0.2669	-0.052
Mof_O 	O 	0.5251	0.0842	0.8648	-0.176
Mof_N 	N 	0.3104	0.6589	0.4641	-0.238
Mof_N 	N 	0.3409	0.7893	0.6582	-0.28
Mof_N 	N 	0.2662	0.838	0.3964	-0.263
Mof_C 	C 	0.3446	0.6812	0.4085	0.086
Mof_H 	H 	0.3444	0.7375	0.3897	-0.01
Mof_C 	C 	0.38	0.6292	0.3761	-0.14
Mof_H 	H 	0.4035	0.6495	0.3361	0.074
Mof_C 	C 	0.3174	0.5808	0.4993	0.084
Mof_H 	H 	0.2976	0.5639	0.5473	-0.003
Mof_C 	C 	0.3518	0.5234	0.47	-0.134
Mof_H 	H 	0.3548	0.4684	0.4968	0.074
Mof_C 	C 	0.3818	0.5462	0.4016	0.07
Mof_C 	C 	0.4644	0.5328	0.3004	-0.272
Mof_H 	H 	0.4315	0.5686	0.2357	0.098
Mof_H 	H 	0.4975	0.5682	0.3656	0.105
Mof_C 	C 	0.3854	0.7386	0.7286	0.162
Mof_H 	H 	0.3768	0.6821	0.7102	-0.027
Mof_C 	C 	0.4443	0.7592	0.828	-0.232
Mof_H 	H 	0.4748	0.7174	0.8751	0.129
Mof_C 	C 	0.3567	0.8633	0.6803	0.159
Mof_H 	H 	0.3275	0.9028	0.6245	-0.032
Mof_C 	C 	0.4123	0.8902	0.7783	-0.204
Mof_H 	H 	0.4203	0.9471	0.7937	0.119
Mof_C 	C 	0.4585	0.8322	0.8579	0.155
Mof_C 	C 	0.5189	0.9674	0.0126	-0.156
Mof_C 	C 	0.5638	0.953	0.9398	0.004
Mof_C 	C 	0.5225	0.0246	0.9293	0.161
Mof_C 	C 	0.2813	0.8829	0.3443	0.108
Mof_S 	S 	0.92159	0.02947	0.85988	0.022
Mof_S 	S 	0.03558	0.6403	0.4858	-0.014
Mof_S 	S 	0.79902	0.55235	0.7669	-0.038
Mof_O 	O 	0.0251	0.4158	0.3648	-0.181
Mof_N 	N 	0.8104	0.8411	0.9641	-0.243
Mof_N 	N 	0.8409	0.7107	0.1582	-0.286
Mof_N 	N 	0.7662	0.662	0.8964	-0.251
Mof_C 	C 	0.8446	0.8188	0.9085	0.101
Mof_H 	H 	0.8444	0.7625	0.8897	-0.005
Mof_C 	C 	0.88	0.8708	0.8761	-0.15
Mof_H 	H 	0.9035	0.8505	0.8361	0.084
Mof_C 	C 	0.8174	0.9192	0.9993	0.17
Mof_H 	H 	0.7976	0.9361	0.0473	-0.057
Mof_C 	C 	0.8518	0.9766	0.97	-0.168
Mof_H 	H 	0.8548	0.0316	0.9968	0.095
Mof_C 	C 	0.8818	0.9538	0.9016	0.093
Mof_C 	C 	0.9644	0.9672	0.8004	-0.274
Mof_H 	H 	0.9315	0.9314	0.7357	0.104
Mof_H 	H 	0.9975	0.9318	0.8656	0.115
Mof_C 	C 	0.8854	0.7614	0.2286	0.162
Mof_H 	H 	0.8768	0.8179	0.2102	-0.034
Mof_C 	C 	0.9443	0.7408	0.328	-0.24
Mof_H 	H 	0.9748	0.7826	0.3751	0.124
Mof_C 	C 	0.8567	0.6367	0.1803	0.163
Mof_H 	H 	0.8275	0.5972	0.1245	-0.04
Mof_C 	C 	0.9123	0.6098	0.2783	-0.214
Mof_H 	H 	0.9203	0.5529	0.2937	0.119
Mof_C 	C 	0.9585	0.6678	0.3579	0.161
Mof_C 	C 	0.0189	0.5326	0.5126	-0.055
Mof_C 	C 	0.0638	0.547	0.4398	-0.026
Mof_C 	C 	0.0225	0.4754	0.4293	0.156
Mof_C 	C 	0.7813	0.6171	0.8443	0.116
Mof_S 	S 	0.42159	0.52947	0.85988	0.031
Mof_S 	S 	0.53558	0.1403	0.4858	-0.016
Mof_S 	S 	0.29902	0.05235	0.7669	-0.041
Mof_O 	O 	0.5251	0.9158	0.3648	-0.183
Mof_N 	N 	0.3104	0.3411	0.9641	-0.244
Mof_N 	N 	0.3409	0.2107	0.1582	-0.287
Mof_N 	N 	0.2662	0.162	0.8964	-0.252
Mof_C 	C 	0.3446	0.3188	0.9085	0.101
Mof_H 	H 	0.3444	0.2625	0.8897	-0.005
Mof_C 	C 	0.38	0.3708	0.8761	-0.149
Mof_H 	H 	0.4035	0.3505	0.8361	0.083
Mof_C 	C 	0.3174	0.4192	0.9993	0.172
Mof_H 	H 	0.2976	0.4361	0.0473	-0.058
Mof_C 	C 	0.3518	0.4766	0.97	-0.175
Mof_H 	H 	0.3548	0.5316	0.9968	0.1
Mof_C 	C 	0.3818	0.4538	0.9016	0.092
Mof_C 	C 	0.4644	0.4672	0.8004	-0.283
Mof_H 	H 	0.4315	0.4314	0.7357	0.107
Mof_H 	H 	0.4975	0.4318	0.8656	0.118
Mof_C 	C 	0.3854	0.2614	0.2286	0.164
Mof_H 	H 	0.3768	0.3179	0.2102	-0.034
Mof_C 	C 	0.4443	0.2408	0.328	-0.242
Mof_H 	H 	0.4748	0.2826	0.3751	0.126
Mof_C 	C 	0.3567	0.1367	0.1803	0.164
Mof_H 	H 	0.3275	0.0972	0.1245	-0.041
Mof_C 	C 	0.4123	0.1098	0.2783	-0.216
Mof_H 	H 	0.4203	0.0529	0.2937	0.119
Mof_C 	C 	0.4585	0.1678	0.3579	0.165
Mof_C 	C 	0.5189	0.0326	0.5126	-0.063
Mof_C 	C 	0.5638	0.047	0.4398	-0.028
Mof_C 	C 	0.5225	0.9754	0.4293	0.157
Mof_C 	C 	0.2813	0.1171	0.8443	0.116
Mof_S 	S 	0.07841	0.02947	0.64012	0.018
Mof_S 	S 	0.96442	0.6403	0.0142	-0.079
Mof_S 	S 	0.20098	0.55235	0.7331	-0.042
Mof_O 	O 	0.9749	0.4158	0.1352	-0.187
Mof_N 	N 	0.1896	0.8411	0.5359	-0.237
Mof_N 	N 	0.1591	0.7107	0.3418	-0.285
Mof_N 	N 	0.2338	0.662	0.6036	-0.262
Mof_C 	C 	0.1554	0.8188	0.5915	0.089
Mof_H 	H 	0.1556	0.7625	0.6103	-0.008
Mof_C 	C 	0.12	0.8708	0.6239	-0.138
Mof_H 	H 	0.0965	0.8505	0.6639	0.079
Mof_C 	C 	0.1826	0.9192	0.5007	0.082
Mof_H 	H 	0.2024	0.9361	0.4527	-0.002
Mof_C 	C 	0.1482	0.9766	0.53	-0.126
Mof_H 	H 	0.1452	0.0316	0.5032	0.069
Mof_C 	C 	0.1182	0.9538	0.5984	0.072
Mof_C 	C 	0.0356	0.9672	0.6996	-0.271
Mof_H 	H 	0.0685	0.9314	0.7643	0.111
Mof_H 	H 	0.0025	0.9318	0.6344	0.108
Mof_C 	C 	0.1146	0.7614	0.2714	0.168
Mof_H 	H 	0.1232	0.8179	0.2898	-0.031
Mof_C 	C 	0.0557	0.7408	0.172	-0.254
Mof_H 	H 	0.0252	0.7826	0.1249	0.125
Mof_C 	C 	0.1433	0.6367	0.3197	0.169
Mof_H 	H 	0.1725	0.5972	0.3755	-0.036
Mof_C 	C 	0.0877	0.6098	0.2217	-0.229
Mof_H 	H 	0.0797	0.5529	0.2063	0.124
Mof_C 	C 	0.0415	0.6678	0.1421	0.181
Mof_C 	C 	0.9811	0.5326	0.9874	0.037
Mof_C 	C 	0.9362	0.547	0.0602	-0.049
Mof_C 	C 	0.9775	0.4754	0.0707	0.138
Mof_C 	C 	0.2187	0.6171	0.6557	0.11
Mof_S 	S 	0.57841	0.52947	0.64012	0.024
Mof_S 	S 	0.46442	0.1403	0.0142	-0.073
Mof_S 	S 	0.70098	0.05235	0.7331	-0.045
Mof_O 	O 	0.4749	0.9158	0.1352	-0.186
Mof_N 	N 	0.6896	0.3411	0.5359	-0.237
Mof_N 	N 	0.6591	0.2107	0.3418	-0.284
Mof_N 	N 	0.7338	0.162	0.6036	-0.262
Mof_C 	C 	0.6554	0.3188	0.5915	0.088
Mof_H 	H 	0.6556	0.2625	0.6103	-0.008
Mof_C 	C 	0.62	0.3708	0.6239	-0.138
Mof_H 	H 	0.5965	0.3505	0.6639	0.078
Mof_C 	C 	0.6826	0.4192	0.5007	0.084
Mof_H 	H 	0.7024	0.4361	0.4527	-0.003
Mof_C 	C 	0.6482	0.4766	0.53	-0.133
Mof_H 	H 	0.6452	0.5316	0.5032	0.073
Mof_C 	C 	0.6182	0.4538	0.5984	0.07
Mof_C 	C 	0.5356	0.4672	0.6996	-0.281
Mof_H 	H 	0.5685	0.4314	0.7643	0.112
Mof_H 	H 	0.5025	0.4318	0.6344	0.109
Mof_C 	C 	0.6146	0.2614	0.2714	0.166
Mof_H 	H 	0.6232	0.3179	0.2898	-0.031
Mof_C 	C 	0.5557	0.2408	0.172	-0.25
Mof_H 	H 	0.5252	0.2826	0.1249	0.123
Mof_C 	C 	0.6433	0.1367	0.3197	0.167
Mof_H 	H 	0.6725	0.0972	0.3755	-0.036
Mof_C 	C 	0.5877	0.1098	0.2217	-0.226
Mof_H 	H 	0.5797	0.0529	0.2063	0.121
Mof_C 	C 	0.5415	0.1678	0.1421	0.174
Mof_C 	C 	0.4811	0.0326	0.9874	0.036
Mof_C 	C 	0.4362	0.047	0.0602	-0.052
Mof_C 	C 	0.4775	0.9754	0.0707	0.144
Mof_C 	C 	0.7187	0.1171	0.6557	0.11
Mof_Co	Co	0.25	0.25	-0	1.107
Mof_Co	Co	0.75	0.25	0.5	1.123
Mof_Co	Co	0.75	0.75	-0	1.107
Mof_Co	Co	0.25	0.75	0.5	1.123
Mof_O 	O 	-1.39168e-17	0.9077	0.25	-0.26
Mof_C 	C 	-1.39168e-17	0.9812	0.25	0.281
Mof_O 	O 	0.5	0.4077	0.25	-0.257
Mof_C 	C 	0.5	0.4812	0.25	0.268
Mof_O 	O 	2.30764e-33	0.0923	0.75	-0.249
Mof_C 	C 	2.30764e-33	0.0188	0.75	0.275
Mof_O 	O 	0.5	0.5923	0.75	-0.252
Mof_C 	C 	0.5	0.5188	0.75	0.284
_end
