data_functionalizedCrystal
_audit_creation_method	'EQeq! by Chris Wilmer'
_symmetry_space_group_name_H-M	'P1'
_symmetry_Int_Tables_number	1
_symmetry_cell_setting	triclinic
loop_
_symmetry_equiv_pos_as_xyz
  x,y,z
_cell_length_a	7.497
_cell_length_b	7.7376
_cell_length_c	7.7376
_cell_angle_alpha	116.72
_cell_angle_beta	102.892
_cell_angle_gamma	102.892
loop_
_atom_site_label
_atom_site_type_symbol
_atom_site_fract_x
_atom_site_fract_y
_atom_site_fract_z
_atom_site_charge
Mof_Co	Co	0.49958	0.85837	0.13712	1.058
Mof_Co	Co	0.99958	0.13712	0.85837	0.961
Mof_H 	H 	0.2768	0.682	0.4752	0.037
Mof_H 	H 	0.2191	0.3873	0.4949	0.061
Mof_H 	H 	0.7768	0.4752	0.682	-0.023
Mof_H 	H 	0.7191	0.4949	0.3873	0.01
Mof_C 	C 	0.2693	0.88061	0.77659	0.338
Mof_C 	C 	0.2648	0.67879	0.61281	-0.056
Mof_C 	C 	0.2206	0.49905	0.60515	-0.173
Mof_C 	C 	0.1712	0.46114	0.76386	0.384
Mof_C 	C 	0.7693	0.77659	0.88061	0.332
Mof_C 	C 	0.7648	0.61281	0.67879	-0.122
Mof_C 	C 	0.7206	0.60515	0.49905	-0.223
Mof_C 	C 	0.6712	0.76386	0.46114	0.371
Mof_O 	O 	0.3881	0.97648	0.96072	-0.306
Mof_O 	O 	0.1527	0.9506	0.7092	-0.236
Mof_O 	O 	0.2407	0.59957	0.95283	-0.331
Mof_O 	O 	0.0578	0.27727	0.69273	-0.379
Mof_O 	O 	0.8881	0.96072	0.97648	-0.405
Mof_O 	O 	0.6527	0.7092	0.9506	-0.352
Mof_O 	O 	0.7407	0.95283	0.59957	-0.432
Mof_O 	O 	0.5578	0.69273	0.27727	-0.514
_end
