data_functionalizedCrystal
_audit_creation_method	'EQeq! by Chris Wilmer'
_symmetry_space_group_name_H-M	'P1'
_symmetry_Int_Tables_number	1
_symmetry_cell_setting	triclinic
loop_
_symmetry_equiv_pos_as_xyz
  x,y,z
_cell_length_a	14.5049
_cell_length_b	17.1616
_cell_length_c	18.1389
_cell_angle_alpha	90
_cell_angle_beta	90
_cell_angle_gamma	90
loop_
_atom_site_label
_atom_site_type_symbol
_atom_site_fract_x
_atom_site_fract_y
_atom_site_fract_z
_atom_site_charge
Mof_Zn	Zn	0.55479	0.93828	0.45225	1.18
Mof_Zn	Zn	0.3467	0.94612	0.39756	1.225
Mof_Zn	Zn	0.44521	0.43828	0.04775	1.18
Mof_Zn	Zn	0.6533	0.44612	0.10244	1.226
Mof_Zn	Zn	0.44521	0.06172	0.54775	1.18
Mof_Zn	Zn	0.6533	0.05388	0.60244	1.225
Mof_Zn	Zn	0.55479	0.56172	0.95225	1.181
Mof_Zn	Zn	0.3467	0.55388	0.89756	1.227
Mof_H 	H 	0.0786	0.0623	0.4065	0.053
Mof_H 	H 	0.0634	0.8912	0.5557	0.049
Mof_H 	H 	0.338	0.7308	0.2651	0.046
Mof_H 	H 	0.5951	0.7232	0.3463	0.041
Mof_H 	H 	0.6251	0.6141	0.277	0.046
Mof_H 	H 	0.3671	0.6215	0.1962	0.036
Mof_H 	H 	0.391	0.938	0.519	0.334
Mof_H 	H 	0.9214	0.5623	0.0935	0.053
Mof_H 	H 	0.9366	0.3912	0.9443	0.051
Mof_H 	H 	0.662	0.2308	0.2349	0.046
Mof_H 	H 	0.4049	0.2232	0.1537	0.041
Mof_H 	H 	0.3749	0.1141	0.223	0.046
Mof_H 	H 	0.6329	0.1215	0.3038	0.037
Mof_H 	H 	0.609	0.438	0.981	0.332
Mof_H 	H 	0.9214	0.9377	0.5935	0.053
Mof_H 	H 	0.9366	0.1088	0.4443	0.049
Mof_H 	H 	0.662	0.2692	0.7349	0.046
Mof_H 	H 	0.4049	0.2768	0.6537	0.041
Mof_H 	H 	0.3749	0.3859	0.723	0.046
Mof_H 	H 	0.6329	0.3785	0.8038	0.036
Mof_H 	H 	0.609	0.062	0.481	0.334
Mof_H 	H 	0.0786	0.4377	0.9065	0.053
Mof_H 	H 	0.0634	0.6088	0.0557	0.051
Mof_H 	H 	0.338	0.7692	0.7651	0.046
Mof_H 	H 	0.5951	0.7768	0.8463	0.041
Mof_H 	H 	0.6251	0.8859	0.777	0.046
Mof_H 	H 	0.3671	0.8785	0.6962	0.037
Mof_H 	H 	0.391	0.562	0.019	0.332
Mof_C 	C 	0.1807	0.9444	0.4565	0.316
Mof_C 	C 	0.0868	0.9729	0.4779	-0.075
Mof_C 	C 	0.0474	0.0372	0.4444	-0.018
Mof_C 	C 	0.0384	0.9351	0.5334	-0.03
Mof_C 	C 	0.4476	0.8135	0.3551	0.385
Mof_C 	C 	0.4635	0.7398	0.3119	-0.087
Mof_C 	C 	0.3959	0.7076	0.2672	-0.02
Mof_C 	C 	0.5496	0.7031	0.3157	-0.021
Mof_C 	C 	0.5213	0.5392	0.1791	0.378
Mof_C 	C 	0.4998	0.6062	0.2286	-0.095
Mof_C 	C 	0.5674	0.6376	0.2744	-0.017
Mof_C 	C 	0.4132	0.6421	0.226	-0.017
Mof_C 	C 	0.8193	0.4444	0.0435	0.313
Mof_C 	C 	0.9132	0.4729	0.0221	-0.064
Mof_C 	C 	0.9526	0.5372	0.0556	-0.018
Mof_C 	C 	0.9616	0.4351	0.9666	-0.04
Mof_C 	C 	0.5524	0.3135	0.1449	0.385
Mof_C 	C 	0.5365	0.2398	0.1881	-0.087
Mof_C 	C 	0.6041	0.2076	0.2328	-0.02
Mof_C 	C 	0.4504	0.2031	0.1843	-0.02
Mof_C 	C 	0.4787	0.0392	0.3209	0.377
Mof_C 	C 	0.5002	0.1062	0.2714	-0.095
Mof_C 	C 	0.4326	0.1376	0.2256	-0.017
Mof_C 	C 	0.5868	0.1421	0.274	-0.017
Mof_C 	C 	0.8193	0.0556	0.5435	0.316
Mof_C 	C 	0.9132	0.0271	0.5221	-0.075
Mof_C 	C 	0.9526	0.9628	0.5556	-0.018
Mof_C 	C 	0.9616	0.0649	0.4666	-0.03
Mof_C 	C 	0.5524	0.1865	0.6449	0.385
Mof_C 	C 	0.5365	0.2602	0.6881	-0.087
Mof_C 	C 	0.6041	0.2924	0.7328	-0.02
Mof_C 	C 	0.4504	0.2969	0.6843	-0.021
Mof_C 	C 	0.4787	0.4608	0.8209	0.378
Mof_C 	C 	0.5002	0.3938	0.7714	-0.095
Mof_C 	C 	0.4326	0.3624	0.7256	-0.017
Mof_C 	C 	0.5868	0.3579	0.774	-0.017
Mof_C 	C 	0.1807	0.5556	0.9565	0.313
Mof_C 	C 	0.0868	0.5271	0.9779	-0.064
Mof_C 	C 	0.0474	0.4628	0.9444	-0.018
Mof_C 	C 	0.0384	0.5649	0.0334	-0.04
Mof_C 	C 	0.4476	0.6865	0.8551	0.385
Mof_C 	C 	0.4635	0.7602	0.8119	-0.087
Mof_C 	C 	0.3959	0.7924	0.7672	-0.02
Mof_C 	C 	0.5496	0.7969	0.8157	-0.02
Mof_C 	C 	0.5213	0.9608	0.6791	0.377
Mof_C 	C 	0.4998	0.8938	0.7286	-0.095
Mof_C 	C 	0.5674	0.8624	0.7744	-0.017
Mof_C 	C 	0.4132	0.8579	0.726	-0.017
Mof_O 	O 	0.5145	0.8412	0.3887	-0.501
Mof_O 	O 	0.3667	0.84174	0.3535	-0.469
Mof_O 	O 	0.2188	0.9795	0.4027	-0.459
Mof_O 	O 	0.2168	0.8903	0.4892	-0.352
Mof_O 	O 	0.4578	0.51274	0.13956	-0.494
Mof_O 	O 	0.6031	0.5145	0.18011	-0.48
Mof_O 	O 	0.4188	0.96085	0.4871	-0.96
Mof_O 	O 	0.4855	0.3412	0.1113	-0.501
Mof_O 	O 	0.6333	0.34174	0.1465	-0.468
Mof_O 	O 	0.7812	0.4795	0.0973	-0.457
Mof_O 	O 	0.7832	0.3903	0.0108	-0.349
Mof_O 	O 	0.5422	0.01274	0.36044	-0.494
Mof_O 	O 	0.3969	0.0145	0.31989	-0.479
Mof_O 	O 	0.5812	0.46085	0.0129	-0.958
Mof_O 	O 	0.4855	0.1588	0.6113	-0.501
Mof_O 	O 	0.6333	0.15826	0.6465	-0.469
Mof_O 	O 	0.7812	0.0205	0.5973	-0.459
Mof_O 	O 	0.7832	0.1097	0.5108	-0.352
Mof_O 	O 	0.5422	0.48726	0.86044	-0.494
Mof_O 	O 	0.3969	0.4855	0.81989	-0.48
Mof_O 	O 	0.5812	0.03915	0.5129	-0.96
Mof_O 	O 	0.5145	0.6588	0.8887	-0.501
Mof_O 	O 	0.3667	0.65826	0.8535	-0.468
Mof_O 	O 	0.2188	0.5205	0.9027	-0.457
Mof_O 	O 	0.2168	0.6097	0.9892	-0.349
Mof_O 	O 	0.4578	0.98726	0.63956	-0.494
Mof_O 	O 	0.6031	0.9855	0.68011	-0.479
Mof_O 	O 	0.4188	0.53915	0.9871	-0.958
Mof_Zn	Zn	0.94521	0.06172	0.95225	1.178
Mof_Zn	Zn	0.1533	0.05388	0.89756	1.227
Mof_Zn	Zn	0.05479	0.56172	0.54775	1.181
Mof_Zn	Zn	0.8467	0.55388	0.60244	1.226
Mof_Zn	Zn	0.05479	0.93828	0.04775	1.178
Mof_Zn	Zn	0.8467	0.94612	0.10244	1.227
Mof_Zn	Zn	0.94521	0.43828	0.45225	1.181
Mof_Zn	Zn	0.1533	0.44612	0.39756	1.226
Mof_H 	H 	0.4214	0.9377	0.9065	0.054
Mof_H 	H 	0.4366	0.1088	0.0557	0.047
Mof_H 	H 	0.162	0.2692	0.7651	0.045
Mof_H 	H 	0.9049	0.2768	0.8463	0.04
Mof_H 	H 	0.8749	0.3859	0.777	0.048
Mof_H 	H 	0.1329	0.3785	0.6962	0.038
Mof_H 	H 	0.109	0.062	0.019	0.331
Mof_H 	H 	0.5786	0.4377	0.5935	0.055
Mof_H 	H 	0.5634	0.6088	0.4443	0.048
Mof_H 	H 	0.838	0.7692	0.7349	0.046
Mof_H 	H 	0.0951	0.7768	0.6537	0.041
Mof_H 	H 	0.1251	0.8859	0.723	0.046
Mof_H 	H 	0.8671	0.8785	0.8038	0.037
Mof_H 	H 	0.891	0.562	0.481	0.334
Mof_H 	H 	0.5786	0.0623	0.0935	0.054
Mof_H 	H 	0.5634	0.8912	0.9443	0.047
Mof_H 	H 	0.838	0.7308	0.2349	0.045
Mof_H 	H 	0.0951	0.7232	0.1537	0.04
Mof_H 	H 	0.1251	0.6141	0.223	0.048
Mof_H 	H 	0.8671	0.6215	0.3038	0.038
Mof_H 	H 	0.891	0.938	0.981	0.331
Mof_H 	H 	0.4214	0.5623	0.4065	0.055
Mof_H 	H 	0.4366	0.3912	0.5557	0.048
Mof_H 	H 	0.162	0.2308	0.2651	0.046
Mof_H 	H 	0.9049	0.2232	0.3463	0.041
Mof_H 	H 	0.8749	0.1141	0.277	0.046
Mof_H 	H 	0.1329	0.1215	0.1962	0.037
Mof_H 	H 	0.109	0.438	0.519	0.334
Mof_C 	C 	0.3193	0.0556	0.9565	0.316
Mof_C 	C 	0.4132	0.0271	0.9779	-0.074
Mof_C 	C 	0.4526	0.9628	0.9444	-0.024
Mof_C 	C 	0.4616	0.0649	0.0334	-0.024
Mof_C 	C 	0.0524	0.1865	0.8551	0.393
Mof_C 	C 	0.0365	0.2602	0.8119	-0.086
Mof_C 	C 	0.1041	0.2924	0.7672	-0.017
Mof_C 	C 	0.9504	0.2969	0.8157	-0.023
Mof_C 	C 	0.9787	0.4608	0.6791	0.371
Mof_C 	C 	0.0002	0.3938	0.7286	-0.087
Mof_C 	C 	0.9326	0.3624	0.7744	-0.023
Mof_C 	C 	0.0868	0.3579	0.726	-0.021
Mof_C 	C 	0.6807	0.5556	0.5435	0.315
Mof_C 	C 	0.5868	0.5271	0.5221	-0.07
Mof_C 	C 	0.5474	0.4628	0.5556	-0.027
Mof_C 	C 	0.5384	0.5649	0.4666	-0.026
Mof_C 	C 	0.9476	0.6865	0.6449	0.385
Mof_C 	C 	0.9635	0.7602	0.6881	-0.087
Mof_C 	C 	0.8959	0.7924	0.7328	-0.02
Mof_C 	C 	0.0496	0.7969	0.6843	-0.02
Mof_C 	C 	0.0213	0.9608	0.8209	0.378
Mof_C 	C 	0.9998	0.8938	0.7714	-0.095
Mof_C 	C 	0.0674	0.8624	0.7256	-0.017
Mof_C 	C 	0.9132	0.8579	0.774	-0.017
Mof_C 	C 	0.6807	0.9444	0.0435	0.316
Mof_C 	C 	0.5868	0.9729	0.0221	-0.074
Mof_C 	C 	0.5474	0.0372	0.0556	-0.024
Mof_C 	C 	0.5384	0.9351	0.9666	-0.024
Mof_C 	C 	0.9476	0.8135	0.1449	0.393
Mof_C 	C 	0.9635	0.7398	0.1881	-0.086
Mof_C 	C 	0.8959	0.7076	0.2328	-0.017
Mof_C 	C 	0.0496	0.7031	0.1843	-0.023
Mof_C 	C 	0.0213	0.5392	0.3209	0.371
Mof_C 	C 	0.9998	0.6062	0.2714	-0.087
Mof_C 	C 	0.0674	0.6376	0.2256	-0.023
Mof_C 	C 	0.9132	0.6421	0.274	-0.021
Mof_C 	C 	0.3193	0.4444	0.4565	0.315
Mof_C 	C 	0.4132	0.4729	0.4779	-0.07
Mof_C 	C 	0.4526	0.5372	0.4444	-0.027
Mof_C 	C 	0.4616	0.4351	0.5334	-0.026
Mof_C 	C 	0.0524	0.3135	0.3551	0.385
Mof_C 	C 	0.0365	0.2398	0.3119	-0.087
Mof_C 	C 	0.1041	0.2076	0.2672	-0.02
Mof_C 	C 	0.9504	0.2031	0.3157	-0.02
Mof_C 	C 	0.9787	0.0392	0.1791	0.378
Mof_C 	C 	0.0002	0.1062	0.2286	-0.095
Mof_C 	C 	0.9326	0.1376	0.2744	-0.017
Mof_C 	C 	0.0868	0.1421	0.226	-0.017
Mof_O 	O 	0.9855	0.1588	0.8887	-0.509
Mof_O 	O 	0.1333	0.15826	0.8535	-0.469
Mof_O 	O 	0.2812	0.0205	0.9027	-0.457
Mof_O 	O 	0.2832	0.1097	0.9892	-0.351
Mof_O 	O 	0.0422	0.48726	0.63956	-0.491
Mof_O 	O 	0.8969	0.4855	0.68011	-0.479
Mof_O 	O 	0.0812	0.03915	0.9871	-0.954
Mof_O 	O 	0.0145	0.6588	0.6113	-0.501
Mof_O 	O 	0.8667	0.65826	0.6465	-0.468
Mof_O 	O 	0.7188	0.5205	0.5973	-0.457
Mof_O 	O 	0.7168	0.6097	0.5108	-0.351
Mof_O 	O 	0.9578	0.98726	0.86044	-0.493
Mof_O 	O 	0.1031	0.9855	0.81989	-0.48
Mof_O 	O 	0.9188	0.53915	0.5129	-0.96
Mof_O 	O 	0.0145	0.8412	0.1113	-0.509
Mof_O 	O 	0.8667	0.84174	0.1465	-0.469
Mof_O 	O 	0.7188	0.9795	0.0973	-0.457
Mof_O 	O 	0.7168	0.8903	0.0108	-0.351
Mof_O 	O 	0.9578	0.51274	0.36044	-0.491
Mof_O 	O 	0.1031	0.5145	0.31989	-0.479
Mof_O 	O 	0.9188	0.96085	0.0129	-0.954
Mof_O 	O 	0.9855	0.3412	0.3887	-0.501
Mof_O 	O 	0.1333	0.34174	0.3535	-0.468
Mof_O 	O 	0.2812	0.4795	0.4027	-0.457
Mof_O 	O 	0.2832	0.3903	0.4892	-0.351
Mof_O 	O 	0.0422	0.01274	0.13956	-0.493
Mof_O 	O 	0.8969	0.0145	0.18011	-0.48
Mof_O 	O 	0.0812	0.46085	0.4871	-0.96
_end
