data_functionalizedCrystal
_audit_creation_method	'EQeq! by Chris Wilmer'
_symmetry_space_group_name_H-M	'P1'
_symmetry_Int_Tables_number	1
_symmetry_cell_setting	triclinic
loop_
_symmetry_equiv_pos_as_xyz
  x,y,z
_cell_length_a	10.9204
_cell_length_b	10.9603
_cell_length_c	11.0587
_cell_angle_alpha	83.328
_cell_angle_beta	87.023
_cell_angle_gamma	70.33
loop_
_atom_site_label
_atom_site_type_symbol
_atom_site_fract_x
_atom_site_fract_y
_atom_site_fract_z
_atom_site_charge
Mof_Co	Co	0.09325	0.8952	0.25067	1.152
Mof_Co	Co	0.85082	0.01647	0.48239	1.12
Mof_Co	Co	0.97085	0.86353	0.00176	1.12
Mof_N 	N 	0.8003	0.9371	0.3348	-0.207
Mof_N 	N 	0.8815	0.9313	0.2392	-0.188
Mof_N 	N 	0.8347	0.9031	0.1412	-0.225
Mof_N 	N 	0.0757	0.178	0.1632	-0.217
Mof_N 	N 	0.094	0.0852	0.2571	-0.193
Mof_N 	N 	0.1142	0.1256	0.3609	-0.211
Mof_C 	C 	0.6962	0.9106	0.2968	0.039
Mof_C 	C 	0.7183	0.8887	0.1734	0.072
Mof_C 	C 	0.6259	0.8612	0.1068	-0.136
Mof_H 	H 	0.6399	0.8472	0.0233	0.059
Mof_C 	C 	0.5157	0.8555	0.167	0.032
Mof_H 	H 	0.4524	0.836	0.1244	0.017
Mof_C 	C 	0.4925	0.8777	0.2911	-0.092
Mof_C 	C 	0.581	0.9043	0.3579	-0.05
Mof_H 	H 	0.5658	0.9178	0.4415	0.057
Mof_C 	C 	0.3645	0.8746	0.3471	0.357
Mof_C 	C 	0.0863	0.2855	0.2099	0.039
Mof_C 	C 	0.1081	0.2517	0.3354	0.067
Mof_C 	C 	0.1211	0.3406	0.4114	-0.134
Mof_H 	H 	0.1368	0.3171	0.496	0.063
Mof_C 	C 	0.11	0.4628	0.3577	0.03
Mof_H 	H 	0.1161	0.5259	0.407	0.025
Mof_C 	C 	0.0896	0.4986	0.2305	-0.088
Mof_C 	C 	0.0777	0.4102	0.1561	-0.055
Mof_H 	H 	0.0642	0.4333	0.0711	0.061
Mof_C 	C 	0.0819	0.634	0.18	0.358
Mof_O 	O 	0.1009	0.9299	0.066	-0.746
Mof_H 	H 	0.187	0.883	0.047	0.191
Mof_O 	O 	0.0457	0.9001	0.4296	-0.738
Mof_H 	H 	0.046	0.819	0.467	0.186
Mof_O 	O 	0.3376	0.9097	0.4538	-0.444
Mof_O 	O 	0.2944	0.8357	0.2855	-0.435
Mof_O 	O 	0.0471	0.6711	0.0698	-0.446
Mof_O 	O 	0.1079	0.702	0.2525	-0.44
Mof_Co	Co	0.90675	0.1048	0.74933	1.152
Mof_Co	Co	0.14918	0.98353	0.51761	1.12
Mof_Co	Co	0.02915	0.13647	0.99824	1.12
Mof_N 	N 	0.1997	0.0629	0.6652	-0.207
Mof_N 	N 	0.1185	0.0687	0.7608	-0.188
Mof_N 	N 	0.1653	0.0969	0.8588	-0.225
Mof_N 	N 	0.9243	0.822	0.8368	-0.217
Mof_N 	N 	0.906	0.9148	0.7429	-0.193
Mof_N 	N 	0.8858	0.8744	0.6391	-0.211
Mof_C 	C 	0.3038	0.0894	0.7032	0.039
Mof_C 	C 	0.2817	0.1113	0.8266	0.072
Mof_C 	C 	0.3741	0.1388	0.8932	-0.136
Mof_H 	H 	0.3601	0.1528	0.9767	0.059
Mof_C 	C 	0.4843	0.1445	0.833	0.032
Mof_H 	H 	0.5476	0.164	0.8756	0.017
Mof_C 	C 	0.5075	0.1223	0.7089	-0.092
Mof_C 	C 	0.419	0.0957	0.6421	-0.05
Mof_H 	H 	0.4342	0.0822	0.5585	0.057
Mof_C 	C 	0.6355	0.1254	0.6529	0.357
Mof_C 	C 	0.9137	0.7145	0.7901	0.039
Mof_C 	C 	0.8919	0.7483	0.6646	0.067
Mof_C 	C 	0.8789	0.6594	0.5886	-0.134
Mof_H 	H 	0.8632	0.6829	0.504	0.063
Mof_C 	C 	0.89	0.5372	0.6423	0.03
Mof_H 	H 	0.8839	0.4741	0.593	0.025
Mof_C 	C 	0.9104	0.5014	0.7695	-0.088
Mof_C 	C 	0.9223	0.5898	0.8439	-0.055
Mof_H 	H 	0.9358	0.5667	0.9289	0.061
Mof_C 	C 	0.9181	0.366	0.82	0.358
Mof_O 	O 	0.8991	0.0701	0.934	-0.746
Mof_H 	H 	0.813	0.117	0.953	0.191
Mof_O 	O 	0.9543	0.0999	0.5704	-0.738
Mof_H 	H 	0.954	0.181	0.533	0.186
Mof_O 	O 	0.6624	0.0903	0.5462	-0.444
Mof_O 	O 	0.7056	0.1643	0.7145	-0.435
Mof_O 	O 	0.9529	0.3289	0.9302	-0.446
Mof_O 	O 	0.8921	0.298	0.7475	-0.44
_end
