data_functionalizedCrystal
_audit_creation_method	'EQeq! by Chris Wilmer'
_symmetry_space_group_name_H-M	'P1'
_symmetry_Int_Tables_number	1
_symmetry_cell_setting	triclinic
loop_
_symmetry_equiv_pos_as_xyz
  x,y,z
_cell_length_a	13.0479
_cell_length_b	19.1477
_cell_length_c	19.9355
_cell_angle_alpha	73.216
_cell_angle_beta	84.32
_cell_angle_gamma	73.012
loop_
_atom_site_label
_atom_site_type_symbol
_atom_site_fract_x
_atom_site_fract_y
_atom_site_fract_z
_atom_site_charge
Mof_Ag	Ag	0.69637	0.51426	0.78954	0.601
Mof_Ag	Ag	0.72661	0.17215	0.47953	0.611
Mof_Ag	Ag	0.98057	0.01942	0.52387	0.347
Mof_Ag	Ag	0.30363	0.48574	0.21046	0.601
Mof_Ag	Ag	0.27339	0.82785	0.52047	0.611
Mof_Ag	Ag	0.01943	0.98058	0.47613	0.347
Mof_H 	H 	0.5483	0.8031	0.1232	0.057
Mof_H 	H 	0.5613	0.8584	0.1952	0.053
Mof_H 	H 	0.7039	0.0635	0.123	0.059
Mof_H 	H 	0.706	0.119	0.02	0.052
Mof_H 	H 	0.6676	0.9968	0.8582	0.074
Mof_H 	H 	0.6334	0.8992	0.8901	0.071
Mof_H 	H 	0.7036	0.6687	0.963	0.064
Mof_H 	H 	0.7509	0.6063	0.8755	0.034
Mof_H 	H 	0.5735	0.7928	0.7375	0.066
Mof_H 	H 	0.5283	0.8552	0.8263	0.062
Mof_H 	H 	0.603	0.7474	0.6544	0.172
Mof_H 	H 	0.6468	0.6769	0.6217	0.161
Mof_H 	H 	0.5521	0.6773	0.6792	0.153
Mof_H 	H 	0.4216	0.7393	0.9722	0.043
Mof_H 	H 	0.378	0.6243	0.0038	0.056
Mof_H 	H 	0.5656	0.5491	0.173	0.095
Mof_H 	H 	0.6168	0.6619	0.139	0.058
Mof_H 	H 	0.5597	0.4168	0.1954	0.173
Mof_H 	H 	0.5484	0.3649	0.148	0.148
Mof_H 	H 	0.6185	0.4238	0.1204	0.174
Mof_H 	H 	0.637	0.7892	0.3131	0.052
Mof_H 	H 	0.5845	0.7461	0.4269	0.054
Mof_H 	H 	0.4556	0.9636	0.434	0.075
Mof_H 	H 	0.5164	0.0041	0.3214	0.084
Mof_H 	H 	0.412	0.9352	0.548	0.156
Mof_H 	H 	0.4466	0.8713	0.6202	0.151
Mof_H 	H 	0.5363	0.8967	0.5656	0.185
Mof_H 	H 	0.7857	0.9125	0.3189	0.049
Mof_H 	H 	0.8711	0.9543	0.392	0.056
Mof_H 	H 	0.729	0.1724	0.288	0.074
Mof_H 	H 	0.6512	0.1304	0.2112	0.04
Mof_H 	H 	0.8743	0.2054	0.3125	0.207
Mof_H 	H 	0.9654	0.188	0.3679	0.222
Mof_H 	H 	0.9827	0.139	0.3128	0.227
Mof_H 	H 	0.8621	0.1674	0.9721	0.053
Mof_H 	H 	0.9195	0.2776	0.932	0.059
Mof_H 	H 	0.7043	0.36	0.7776	0.036
Mof_H 	H 	0.6499	0.249	0.8141	0.05
Mof_H 	H 	0.8803	0.4057	0.7056	0.121
Mof_H 	H 	0.972	0.4381	0.7224	0.155
Mof_H 	H 	0.9839	0.3489	0.748	0.143
Mof_H 	H 	0.8919	0.1219	0.8093	0.052
Mof_H 	H 	0.9513	0.1439	0.6946	0.049
Mof_H 	H 	0.6808	0.1148	0.6366	0.047
Mof_H 	H 	0.6217	0.0927	0.7529	0.056
Mof_H 	H 	0.9854	0.1973	0.5875	0.132
Mof_H 	H 	0.9694	0.2144	0.5051	0.152
Mof_H 	H 	0.8792	0.2577	0.551	0.135
Mof_H 	H 	0.648	0.476	0.674	0.263
Mof_H 	H 	0.546	0.505	0.676	0.303
Mof_H 	H 	0.4517	0.1969	0.8768	0.057
Mof_H 	H 	0.4387	0.1416	0.8048	0.053
Mof_H 	H 	0.2961	0.9365	0.877	0.059
Mof_H 	H 	0.294	0.881	0.98	0.052
Mof_H 	H 	0.3324	0.0032	0.1418	0.074
Mof_H 	H 	0.3666	0.1008	0.1099	0.071
Mof_H 	H 	0.2964	0.3313	0.037	0.064
Mof_H 	H 	0.2491	0.3937	0.1245	0.034
Mof_H 	H 	0.4265	0.2072	0.2625	0.066
Mof_H 	H 	0.4717	0.1448	0.1737	0.062
Mof_H 	H 	0.397	0.2526	0.3456	0.172
Mof_H 	H 	0.3532	0.3231	0.3783	0.161
Mof_H 	H 	0.4479	0.3227	0.3208	0.153
Mof_H 	H 	0.5784	0.2607	0.0278	0.043
Mof_H 	H 	0.622	0.3757	0.9962	0.056
Mof_H 	H 	0.4344	0.4509	0.827	0.095
Mof_H 	H 	0.3832	0.3381	0.861	0.058
Mof_H 	H 	0.4403	0.5832	0.8046	0.173
Mof_H 	H 	0.4516	0.6351	0.852	0.148
Mof_H 	H 	0.3815	0.5762	0.8796	0.174
Mof_H 	H 	0.363	0.2108	0.6869	0.052
Mof_H 	H 	0.4155	0.2539	0.5731	0.054
Mof_H 	H 	0.5444	0.0364	0.566	0.075
Mof_H 	H 	0.4836	0.9959	0.6786	0.084
Mof_H 	H 	0.588	0.0648	0.452	0.156
Mof_H 	H 	0.5534	0.1287	0.3798	0.151
Mof_H 	H 	0.4637	0.1033	0.4344	0.185
Mof_H 	H 	0.2143	0.0875	0.6811	0.049
Mof_H 	H 	0.1289	0.0457	0.608	0.056
Mof_H 	H 	0.271	0.8276	0.712	0.074
Mof_H 	H 	0.3488	0.8696	0.7888	0.04
Mof_H 	H 	0.1257	0.7946	0.6875	0.207
Mof_H 	H 	0.0346	0.812	0.6321	0.222
Mof_H 	H 	0.0173	0.861	0.6872	0.227
Mof_H 	H 	0.1379	0.8326	0.0279	0.053
Mof_H 	H 	0.0805	0.7224	0.068	0.059
Mof_H 	H 	0.2957	0.64	0.2224	0.036
Mof_H 	H 	0.3501	0.751	0.1859	0.05
Mof_H 	H 	0.1197	0.5943	0.2944	0.121
Mof_H 	H 	0.028	0.5619	0.2776	0.155
Mof_H 	H 	0.0161	0.6511	0.252	0.143
Mof_H 	H 	0.1081	0.8781	0.1907	0.052
Mof_H 	H 	0.0487	0.8561	0.3054	0.049
Mof_H 	H 	0.3192	0.8852	0.3634	0.047
Mof_H 	H 	0.3783	0.9073	0.2471	0.056
Mof_H 	H 	0.0146	0.8027	0.4125	0.132
Mof_H 	H 	0.0306	0.7856	0.4949	0.152
Mof_H 	H 	0.1208	0.7423	0.449	0.135
Mof_H 	H 	0.352	0.524	0.326	0.263
Mof_H 	H 	0.454	0.495	0.324	0.303
Mof_C 	C 	0.5921	0.8111	0.9575	0.003
Mof_C 	C 	0.5614	0.783	0.028	0.009
Mof_C 	C 	0.5663	0.8228	0.0755	-0.071
Mof_C 	C 	0.5961	0.8901	0.0565	0.014
Mof_C 	C 	0.6101	0.9278	0.1081	0.004
Mof_C 	C 	0.5917	0.8999	0.18	-0.066
Mof_C 	C 	0.6154	0.9296	0.2299	-0.001
Mof_C 	C 	0.6631	0.9903	0.2082	0.015
Mof_C 	C 	0.6757	0.021	0.1376	-0.082
Mof_C 	C 	0.6493	0.9931	0.0859	0.017
Mof_C 	C 	0.6688	0.0261	0.0113	0.002
Mof_C 	C 	0.7002	0.0932	0.9871	-0.063
Mof_C 	C 	0.7231	0.1234	0.9174	-0.001
Mof_C 	C 	0.7138	0.0853	0.868	0.01
Mof_C 	C 	0.6772	0.021	0.8916	-0.078
Mof_C 	C 	0.6536	0.99	0.9624	0.018
Mof_C 	C 	0.6194	0.921	0.9848	0.008
Mof_C 	C 	0.6169	0.8792	0.9381	-0.068
Mof_C 	C 	0.6121	0.769	0.9033	0.03
Mof_C 	C 	0.6778	0.6944	0.917	-0.055
Mof_C 	C 	0.7061	0.657	0.8652	-0.037
Mof_C 	C 	0.668	0.6949	0.7979	0.018
Mof_C 	C 	0.601	0.7678	0.7833	-0.022
Mof_C 	C 	0.5738	0.8048	0.8365	-0.052
Mof_C 	C 	0.6183	0.6922	0.6642	-0.405
Mof_C 	C 	0.5284	0.7106	0.0515	0.006
Mof_C 	C 	0.4536	0.7	0.0118	-0.036
Mof_C 	C 	0.4273	0.632	0.031	-0.073
Mof_C 	C 	0.4718	0.5753	0.0893	0.041
Mof_C 	C 	0.5391	0.5867	0.131	-0.079
Mof_C 	C 	0.5683	0.6544	0.111	-0.029
Mof_C 	C 	0.5543	0.4149	0.1473	-0.401
Mof_C 	C 	0.5823	0.9003	0.3044	0.02
Mof_C 	C 	0.6006	0.8251	0.338	-0.051
Mof_C 	C 	0.5693	0.7991	0.4052	-0.058
Mof_C 	C 	0.5138	0.8516	0.4426	0.029
Mof_C 	C 	0.4939	0.9275	0.4099	-0.05
Mof_C 	C 	0.5288	0.9512	0.3428	-0.041
Mof_C 	C 	0.4652	0.888	0.5704	-0.405
Mof_C 	C 	0.7102	0.0169	0.2584	0.001
Mof_C 	C 	0.7751	0.9653	0.312	-0.032
Mof_C 	C 	0.8254	0.9898	0.3559	-0.071
Mof_C 	C 	0.8071	0.0666	0.3458	0.05
Mof_C 	C 	0.7416	0.1197	0.2934	-0.092
Mof_C 	C 	0.6943	0.0947	0.2485	-0.029
Mof_C 	C 	0.9298	0.1654	0.3422	-0.449
Mof_C 	C 	0.7534	0.1956	0.8956	0.018
Mof_C 	C 	0.8313	0.2056	0.9315	-0.053
Mof_C 	C 	0.8645	0.2716	0.9081	-0.058
Mof_C 	C 	0.8185	0.3275	0.8514	0.019
Mof_C 	C 	0.7375	0.3201	0.8164	-0.062
Mof_C 	C 	0.7052	0.2544	0.8383	-0.049
Mof_C 	C 	0.9332	0.3995	0.7401	-0.362
Mof_C 	C 	0.7495	0.1053	0.7929	0.017
Mof_C 	C 	0.8489	0.1204	0.7743	-0.04
Mof_C 	C 	0.8843	0.1328	0.7065	-0.059
Mof_C 	C 	0.8236	0.1295	0.6541	0.04
Mof_C 	C 	0.7242	0.1156	0.6717	-0.042
Mof_C 	C 	0.689	0.1031	0.7409	-0.038
Mof_C 	C 	0.9329	0.2096	0.5509	-0.342
Mof_C 	C 	0.7806	0.3914	0.3049	0.687
Mof_C 	C 	0.2264	0.1026	0.358	0.751
Mof_C 	C 	0.4079	0.1889	0.0425	0.003
Mof_C 	C 	0.4386	0.217	0.972	0.009
Mof_C 	C 	0.4337	0.1772	0.9245	-0.071
Mof_C 	C 	0.4039	0.1099	0.9435	0.014
Mof_C 	C 	0.3899	0.0722	0.8919	0.004
Mof_C 	C 	0.4083	0.1001	0.82	-0.066
Mof_C 	C 	0.3846	0.0704	0.7701	-0.001
Mof_C 	C 	0.3369	0.0097	0.7918	0.015
Mof_C 	C 	0.3243	0.979	0.8624	-0.082
Mof_C 	C 	0.3507	0.0069	0.9141	0.017
Mof_C 	C 	0.3312	0.9739	0.9887	0.002
Mof_C 	C 	0.2998	0.9068	0.0129	-0.063
Mof_C 	C 	0.2769	0.8766	0.0826	-0.001
Mof_C 	C 	0.2862	0.9147	0.132	0.01
Mof_C 	C 	0.3228	0.979	0.1084	-0.078
Mof_C 	C 	0.3464	0.01	0.0376	0.018
Mof_C 	C 	0.3806	0.079	0.0152	0.008
Mof_C 	C 	0.3831	0.1208	0.0619	-0.068
Mof_C 	C 	0.3879	0.231	0.0967	0.03
Mof_C 	C 	0.3222	0.3056	0.083	-0.055
Mof_C 	C 	0.2939	0.343	0.1348	-0.037
Mof_C 	C 	0.332	0.3051	0.2021	0.018
Mof_C 	C 	0.399	0.2322	0.2167	-0.022
Mof_C 	C 	0.4262	0.1952	0.1635	-0.052
Mof_C 	C 	0.3817	0.3078	0.3358	-0.405
Mof_C 	C 	0.4716	0.2894	0.9485	0.006
Mof_C 	C 	0.5464	0.3	0.9882	-0.036
Mof_C 	C 	0.5727	0.368	0.969	-0.073
Mof_C 	C 	0.5282	0.4247	0.9107	0.041
Mof_C 	C 	0.4609	0.4133	0.869	-0.079
Mof_C 	C 	0.4317	0.3456	0.889	-0.029
Mof_C 	C 	0.4457	0.5851	0.8527	-0.401
Mof_C 	C 	0.4177	0.0997	0.6956	0.02
Mof_C 	C 	0.3994	0.1749	0.662	-0.051
Mof_C 	C 	0.4307	0.2009	0.5948	-0.058
Mof_C 	C 	0.4862	0.1484	0.5574	0.029
Mof_C 	C 	0.5061	0.0725	0.5901	-0.05
Mof_C 	C 	0.4712	0.0488	0.6572	-0.041
Mof_C 	C 	0.5348	0.112	0.4296	-0.405
Mof_C 	C 	0.2898	0.9831	0.7416	0.001
Mof_C 	C 	0.2249	0.0347	0.688	-0.032
Mof_C 	C 	0.1746	0.0102	0.6441	-0.071
Mof_C 	C 	0.1929	0.9334	0.6542	0.05
Mof_C 	C 	0.2584	0.8803	0.7066	-0.092
Mof_C 	C 	0.3057	0.9053	0.7515	-0.029
Mof_C 	C 	0.0702	0.8346	0.6578	-0.449
Mof_C 	C 	0.2466	0.8044	0.1044	0.018
Mof_C 	C 	0.1687	0.7944	0.0685	-0.053
Mof_C 	C 	0.1355	0.7284	0.0919	-0.058
Mof_C 	C 	0.1815	0.6725	0.1486	0.019
Mof_C 	C 	0.2625	0.6799	0.1836	-0.062
Mof_C 	C 	0.2948	0.7456	0.1617	-0.049
Mof_C 	C 	0.0668	0.6005	0.2599	-0.362
Mof_C 	C 	0.2505	0.8947	0.2071	0.017
Mof_C 	C 	0.1511	0.8796	0.2257	-0.04
Mof_C 	C 	0.1157	0.8672	0.2935	-0.059
Mof_C 	C 	0.1764	0.8705	0.3459	0.04
Mof_C 	C 	0.2758	0.8844	0.3283	-0.042
Mof_C 	C 	0.311	0.8969	0.2591	-0.038
Mof_C 	C 	0.0671	0.7904	0.4491	-0.342
Mof_C 	C 	0.2194	0.6086	0.6951	0.687
Mof_C 	C 	0.7736	0.8974	0.642	0.751
Mof_S 	S 	0.21277	0.07159	0.44933	0.31
Mof_S 	S 	0.71478	0.64672	0.73219	-0.002
Mof_S 	S 	0.43551	0.48831	0.10653	-0.067
Mof_S 	S 	0.46647	0.81523	0.52842	-0.07
Mof_S 	S 	0.86884	0.09815	0.40382	-0.113
Mof_S 	S 	0.86592	0.41012	0.82114	-0.069
Mof_S 	S 	0.87113	0.13898	0.56706	-0.109
Mof_S 	S 	0.6918	0.34101	0.34695	0.313
Mof_S 	S 	0.78723	0.92841	0.55067	0.31
Mof_S 	S 	0.28522	0.35328	0.26781	-0.002
Mof_S 	S 	0.56449	0.51169	0.89347	-0.067
Mof_S 	S 	0.53353	0.18477	0.47158	-0.07
Mof_S 	S 	0.13116	0.90185	0.59618	-0.113
Mof_S 	S 	0.13408	0.58988	0.17886	-0.069
Mof_S 	S 	0.12887	0.86102	0.43294	-0.109
Mof_S 	S 	0.3082	0.65899	0.65305	0.313
Mof_O 	O 	0.1016	0.0988	0.467	-0.265
Mof_O 	O 	0.26	0.9922	0.4699	-0.268
Mof_O 	O 	0.2793	0.1135	0.4713	-0.188
Mof_O 	O 	0.7492	0.2977	0.4147	-0.251
Mof_O 	O 	0.597	0.3991	0.3538	-0.214
Mof_O 	O 	0.6788	0.295	0.307	-0.238
Mof_O 	O 	0.6021	0.5004	0.6985	-0.644
Mof_O 	O 	0.8984	0.9012	0.533	-0.265
Mof_O 	O 	0.74	0.0078	0.5301	-0.268
Mof_O 	O 	0.7207	0.8865	0.5287	-0.188
Mof_O 	O 	0.2508	0.7023	0.5853	-0.251
Mof_O 	O 	0.403	0.6009	0.6462	-0.214
Mof_O 	O 	0.3212	0.705	0.693	-0.238
Mof_O 	O 	0.3979	0.4996	0.3015	-0.644
Mof_F 	F 	0.8785	0.3467	0.2892	-0.438
Mof_F 	F 	0.7407	0.4408	0.2407	-0.446
Mof_F 	F 	0.8042	0.4365	0.3391	-0.44
Mof_F 	F 	0.1713	0.0652	0.3305	-0.479
Mof_F 	F 	0.3272	0.0888	0.3367	-0.503
Mof_F 	F 	0.1782	0.1756	0.33	-0.466
Mof_F 	F 	0.1215	0.6533	0.7108	-0.438
Mof_F 	F 	0.2593	0.5592	0.7593	-0.446
Mof_F 	F 	0.1958	0.5635	0.6609	-0.44
Mof_F 	F 	0.8287	0.9348	0.6695	-0.479
Mof_F 	F 	0.6728	0.9112	0.6633	-0.503
Mof_F 	F 	0.8218	0.8244	0.67	-0.466
_end
