data_functionalizedCrystal
_audit_creation_method	'EQeq! by Chris Wilmer'
_symmetry_space_group_name_H-M	'P1'
_symmetry_Int_Tables_number	1
_symmetry_cell_setting	triclinic
loop_
_symmetry_equiv_pos_as_xyz
  x,y,z
_cell_length_a	17.0549
_cell_length_b	15.3986
_cell_length_c	23.0104
_cell_angle_alpha	90
_cell_angle_beta	102.754
_cell_angle_gamma	90
loop_
_atom_site_label
_atom_site_type_symbol
_atom_site_fract_x
_atom_site_fract_y
_atom_site_fract_z
_atom_site_charge
Mof_Zn	Zn	0.98123	0.22561	0.57224	1.148
Mof_Zn	Zn	0.8854	0.33108	0.4325	1.188
Mof_Zn	Zn	0.5903	0.03125	0.6239	1.186
Mof_Zn	Zn	0.5465	0.82961	0.66745	1.174
Mof_O 	O 	0.82	0.22954	0.43963	-0.525
Mof_O 	O 	0.95395	0.7136	0.48311	-0.535
Mof_O 	O 	0.91645	0.15346	0.5009	-0.522
Mof_O 	O 	0.00814	0.69934	0.5802	-0.519
Mof_O 	O 	0.88346	0.42177	0.4911	-0.525
Mof_O 	O 	0.89311	0.32072	0.56132	-0.541
Mof_O 	O 	0.55069	0.11308	0.37757	-0.569
Mof_O 	O 	0.67065	0.94862	0.60799	-0.522
Mof_O 	O 	0.90939	0.40819	0.76648	-0.58
Mof_O 	O 	0.886	0.54467	0.78995	-0.55
Mof_O 	O 	0.51383	0.99705	0.42271	-0.565
Mof_O 	O 	0.62308	0.81415	0.61746	-0.548
Mof_C 	C 	0.80772	0.01882	0.50725	0.013
Mof_H 	H 	0.8621	0.0118	0.5279	0.005
Mof_C 	C 	0.86784	0.55346	0.57081	0.033
Mof_H 	H 	0.8639	0.5683	0.5302	0.024
Mof_C 	C 	0.785	0.0946	0.4747	-0.168
Mof_C 	C 	0.6496	0.0402	0.4469	-0.185
Mof_C 	C 	0.7687	0.7474	0.6036	-0.045
Mof_H 	H 	0.7408	0.7185	0.6295	0.034
Mof_C 	C 	0.8835	0.4688	0.5892	-0.173
Mof_C 	C 	0.74168	0.82818	0.58072	-0.116
Mof_C 	C 	0.95218	0.71835	0.53622	0.422
Mof_C 	C 	0.8873	0.39763	0.54381	0.407
Mof_C 	C 	0.67262	0.96523	0.47936	0.025
Mof_H 	H 	0.6339	0.9214	0.4808	0.016
Mof_C 	C 	0.8464	0.1638	0.4722	0.399
Mof_C 	C 	0.8655	0.59574	0.67089	0.034
Mof_H 	H 	0.8586	0.6388	0.6989	0.012
Mof_C 	C 	0.78065	0.87092	0.54107	0.038
Mof_C 	C 	0.75255	0.95342	0.51011	-0.053
Mof_C 	C 	0.8834	0.51018	0.68943	-0.183
Mof_C 	C 	0.84764	0.83134	0.52708	-0.031
Mof_H 	H 	0.8746	0.8595	0.5003	0.01
Mof_C 	C 	0.8763	0.7509	0.5516	-0.133
Mof_C 	C 	0.70511	0.10491	0.44399	0.078
Mof_H 	H 	0.689	0.156	0.4213	-0.002
Mof_C 	C 	0.83624	0.70722	0.58962	0.054
Mof_C 	C 	0.89215	0.44707	0.64874	0.088
Mof_H 	H 	0.9041	0.3889	0.6615	-0.029
Mof_C 	C 	0.8578	0.6174	0.6114	-0.06
Mof_C 	C 	0.5642	0.0514	0.4136	0.442
Mof_C 	C 	0.6725	0.8663	0.6033	0.403
Mof_C 	C 	0.8949	0.4854	0.75395	0.445
Mof_Zn	Zn	0.51877	0.72561	0.92776	1.149
Mof_Zn	Zn	0.6146	0.83108	0.0675	1.189
Mof_Zn	Zn	0.9097	0.53125	0.8761	1.187
Mof_Zn	Zn	0.9535	0.32961	0.83255	1.175
Mof_O 	O 	0.68	0.72954	0.06037	-0.525
Mof_O 	O 	0.54605	0.2136	0.01689	-0.535
Mof_O 	O 	0.58355	0.65346	0.9991	-0.522
Mof_O 	O 	0.49186	0.19934	0.9198	-0.519
Mof_O 	O 	0.61654	0.92177	0.0089	-0.525
Mof_O 	O 	0.60689	0.82072	0.93868	-0.541
Mof_O 	O 	0.94931	0.61308	0.12243	-0.568
Mof_O 	O 	0.82935	0.44862	0.89201	-0.523
Mof_O 	O 	0.59061	0.90819	0.73352	-0.58
Mof_O 	O 	0.614	0.04467	0.71005	-0.55
Mof_O 	O 	0.98617	0.49705	0.07729	-0.563
Mof_O 	O 	0.87692	0.31415	0.88254	-0.549
Mof_C 	C 	0.69228	0.51882	0.99275	0.013
Mof_H 	H 	0.6379	0.5118	0.9721	0.005
Mof_C 	C 	0.63216	0.05346	0.92919	0.032
Mof_H 	H 	0.6361	0.0683	0.9698	0.023
Mof_C 	C 	0.715	0.5946	0.0253	-0.168
Mof_C 	C 	0.8504	0.5402	0.0531	-0.185
Mof_C 	C 	0.7313	0.2474	0.8964	-0.044
Mof_H 	H 	0.7592	0.2185	0.8705	0.034
Mof_C 	C 	0.6165	0.9688	0.9108	-0.173
Mof_C 	C 	0.75832	0.32818	0.91928	-0.117
Mof_C 	C 	0.54782	0.21835	0.96378	0.421
Mof_C 	C 	0.6127	0.89763	0.95619	0.406
Mof_C 	C 	0.82738	0.46523	0.02064	0.028
Mof_H 	H 	0.8661	0.4214	0.0192	0.016
Mof_C 	C 	0.6536	0.6638	0.0278	0.399
Mof_C 	C 	0.6345	0.09574	0.82911	0.034
Mof_H 	H 	0.6414	0.1388	0.8011	0.012
Mof_C 	C 	0.71935	0.37092	0.95893	0.039
Mof_C 	C 	0.74745	0.45342	0.98989	-0.057
Mof_C 	C 	0.6166	0.01018	0.81057	-0.184
Mof_C 	C 	0.65236	0.33134	0.97292	-0.032
Mof_H 	H 	0.6254	0.3595	0.9997	0.009
Mof_C 	C 	0.6237	0.2509	0.9484	-0.133
Mof_C 	C 	0.79489	0.60491	0.05601	0.078
Mof_H 	H 	0.811	0.656	0.0787	-0.002
Mof_C 	C 	0.66376	0.20722	0.91038	0.054
Mof_C 	C 	0.60785	0.94707	0.85126	0.089
Mof_H 	H 	0.5959	0.8889	0.8385	-0.029
Mof_C 	C 	0.6422	0.1174	0.8886	-0.06
Mof_C 	C 	0.9358	0.5514	0.0864	0.442
Mof_C 	C 	0.8275	0.3663	0.8967	0.403
Mof_C 	C 	0.6051	0.9854	0.74605	0.446
Mof_Zn	Zn	0.01877	0.77439	0.42776	1.149
Mof_Zn	Zn	0.1146	0.66892	0.5675	1.189
Mof_Zn	Zn	0.4097	0.96875	0.3761	1.187
Mof_Zn	Zn	0.4535	0.17039	0.33255	1.175
Mof_O 	O 	0.18	0.77046	0.56037	-0.525
Mof_O 	O 	0.04605	0.2864	0.51689	-0.535
Mof_O 	O 	0.08355	0.84654	0.4991	-0.522
Mof_O 	O 	0.99186	0.30066	0.4198	-0.519
Mof_O 	O 	0.11654	0.57823	0.5089	-0.525
Mof_O 	O 	0.10689	0.67928	0.43868	-0.541
Mof_O 	O 	0.44931	0.88692	0.62243	-0.569
Mof_O 	O 	0.32935	0.05138	0.39201	-0.522
Mof_O 	O 	0.09061	0.59181	0.23352	-0.58
Mof_O 	O 	0.114	0.45533	0.21005	-0.55
Mof_O 	O 	0.48617	0.00295	0.57729	-0.565
Mof_O 	O 	0.37692	0.18585	0.38254	-0.548
Mof_C 	C 	0.19228	0.98118	0.49275	0.013
Mof_H 	H 	0.1379	0.9882	0.4721	0.005
Mof_C 	C 	0.13216	0.44654	0.42919	0.033
Mof_H 	H 	0.1361	0.4317	0.4698	0.024
Mof_C 	C 	0.215	0.9054	0.5253	-0.168
Mof_C 	C 	0.3504	0.9598	0.5531	-0.185
Mof_C 	C 	0.2313	0.2526	0.3964	-0.045
Mof_H 	H 	0.2592	0.2815	0.3705	0.034
Mof_C 	C 	0.1165	0.5312	0.4108	-0.173
Mof_C 	C 	0.25832	0.17182	0.41928	-0.116
Mof_C 	C 	0.04782	0.28165	0.46378	0.422
Mof_C 	C 	0.1127	0.60237	0.45619	0.407
Mof_C 	C 	0.32738	0.03477	0.52064	0.025
Mof_H 	H 	0.3661	0.0786	0.5192	0.016
Mof_C 	C 	0.1536	0.8362	0.5278	0.399
Mof_C 	C 	0.1345	0.40426	0.32911	0.034
Mof_H 	H 	0.1414	0.3612	0.3011	0.012
Mof_C 	C 	0.21935	0.12908	0.45893	0.038
Mof_C 	C 	0.24745	0.04658	0.48989	-0.053
Mof_C 	C 	0.1166	0.48982	0.31057	-0.183
Mof_C 	C 	0.15236	0.16866	0.47292	-0.031
Mof_H 	H 	0.1254	0.1405	0.4997	0.01
Mof_C 	C 	0.1237	0.2491	0.4484	-0.133
Mof_C 	C 	0.29489	0.89509	0.55601	0.078
Mof_H 	H 	0.311	0.844	0.5787	-0.002
Mof_C 	C 	0.16376	0.29278	0.41038	0.054
Mof_C 	C 	0.10785	0.55293	0.35126	0.088
Mof_H 	H 	0.0959	0.6111	0.3385	-0.029
Mof_C 	C 	0.1422	0.3826	0.3886	-0.06
Mof_C 	C 	0.4358	0.9486	0.5864	0.442
Mof_C 	C 	0.3275	0.1337	0.3967	0.403
Mof_C 	C 	0.1051	0.5146	0.24605	0.445
Mof_Zn	Zn	0.48123	0.27439	0.07224	1.149
Mof_Zn	Zn	0.3854	0.16892	0.9325	1.189
Mof_Zn	Zn	0.0903	0.46875	0.1239	1.187
Mof_Zn	Zn	0.0465	0.67039	0.16745	1.175
Mof_O 	O 	0.32	0.27046	0.93963	-0.525
Mof_O 	O 	0.45395	0.7864	0.98311	-0.535
Mof_O 	O 	0.41645	0.34654	0.0009	-0.522
Mof_O 	O 	0.50814	0.80066	0.0802	-0.519
Mof_O 	O 	0.38346	0.07823	0.9911	-0.525
Mof_O 	O 	0.39311	0.17928	0.06132	-0.541
Mof_O 	O 	0.05069	0.38692	0.87757	-0.568
Mof_O 	O 	0.17065	0.55138	0.10799	-0.523
Mof_O 	O 	0.40939	0.09181	0.26648	-0.58
Mof_O 	O 	0.386	0.95533	0.28995	-0.55
Mof_O 	O 	0.01383	0.50295	0.92271	-0.563
Mof_O 	O 	0.12308	0.68585	0.11746	-0.549
Mof_C 	C 	0.30772	0.48118	0.00725	0.013
Mof_H 	H 	0.3621	0.4882	0.0279	0.005
Mof_C 	C 	0.36784	0.94654	0.07081	0.032
Mof_H 	H 	0.3639	0.9317	0.0302	0.023
Mof_C 	C 	0.285	0.4054	0.9747	-0.168
Mof_C 	C 	0.1496	0.4598	0.9469	-0.185
Mof_C 	C 	0.2687	0.7526	0.1036	-0.044
Mof_H 	H 	0.2408	0.7815	0.1295	0.034
Mof_C 	C 	0.3835	0.0312	0.0892	-0.173
Mof_C 	C 	0.24168	0.67182	0.08072	-0.117
Mof_C 	C 	0.45218	0.78165	0.03622	0.421
Mof_C 	C 	0.3873	0.10237	0.04381	0.406
Mof_C 	C 	0.17262	0.53477	0.97936	0.028
Mof_H 	H 	0.1339	0.5786	0.9808	0.016
Mof_C 	C 	0.3464	0.3362	0.9722	0.399
Mof_C 	C 	0.3655	0.90426	0.17089	0.034
Mof_H 	H 	0.3586	0.8612	0.1989	0.012
Mof_C 	C 	0.28065	0.62908	0.04107	0.039
Mof_C 	C 	0.25255	0.54658	0.01011	-0.057
Mof_C 	C 	0.3834	0.98982	0.18943	-0.184
Mof_C 	C 	0.34764	0.66866	0.02708	-0.032
Mof_H 	H 	0.3746	0.6405	0.0003	0.009
Mof_C 	C 	0.3763	0.7491	0.0516	-0.133
Mof_C 	C 	0.20511	0.39509	0.94399	0.078
Mof_H 	H 	0.189	0.344	0.9213	-0.002
Mof_C 	C 	0.33624	0.79278	0.08962	0.054
Mof_C 	C 	0.39215	0.05293	0.14874	0.089
Mof_H 	H 	0.4041	0.1111	0.1615	-0.029
Mof_C 	C 	0.3578	0.8826	0.1114	-0.06
Mof_C 	C 	0.0642	0.4486	0.9136	0.442
Mof_C 	C 	0.1725	0.6337	0.1033	0.403
Mof_C 	C 	0.3949	0.0146	0.25395	0.446
_end
