data_functionalizedCrystal
_audit_creation_method	'EQeq! by Chris Wilmer'
_symmetry_space_group_name_H-M	'P1'
_symmetry_Int_Tables_number	1
_symmetry_cell_setting	triclinic
loop_
_symmetry_equiv_pos_as_xyz
  x,y,z
_cell_length_a	13.3282
_cell_length_b	13.3282
_cell_length_c	13.0501
_cell_angle_alpha	90
_cell_angle_beta	90
_cell_angle_gamma	120
loop_
_atom_site_label
_atom_site_type_symbol
_atom_site_fract_x
_atom_site_fract_y
_atom_site_fract_z
_atom_site_charge
Mof_N 	N 	0.0743	0.6488	0.5521	-0.12
Mof_N 	N 	0.1827	0.6377	0.6732	-0.178
Mof_C 	C 	0.1804	0.6702	0.5789	0.093
Mof_H 	H 	0.2445	0.7041	0.5358	-0.009
Mof_N 	N 	0.5177	0.2112	0.3642	-0.173
Mof_C 	C 	0.0046	0.5989	0.6346	-0.014
Mof_H 	H 	0.926	0.5741	0.6393	0.032
Mof_N 	N 	0.3434	0.0823	0.4144	-0.123
Mof_C 	C 	0.0394	0.6722	0.452	-0.049
Mof_H 	H 	0.9571	0.6196	0.4428	0.048
Mof_H 	H 	0.0798	0.6559	0.3986	0.043
Mof_C 	C 	0.0714	0.5926	0.7075	0.012
Mof_H 	H 	0.0458	0.562	0.7726	0.02
Mof_C 	C 	0.522	0.1798	0.4639	0.01
Mof_H 	H 	0.5889	0.2089	0.5035	0.02
Mof_C 	C 	0.416	0.1015	0.4953	-0.012
Mof_H 	H 	0.3955	0.0668	0.5595	0.034
Mof_C 	C 	0.4076	0.1479	0.3369	0.091
Mof_H 	H 	0.3789	0.1491	0.2723	-0.004
Mof_C 	C 	0.2185	0.0007	0.414	-0.034
Mof_H 	H 	0.1816	0.0227	0.4665	0.037
Mof_H 	H 	0.1864	0.004	0.3482	0.036
Mof_C 	C 	0.0631	0.7926	0.4394	-0.095
Mof_H 	H 	0.03	0.8124	0.4967	0.058
Mof_H 	H 	0.0259	0.7977	0.3772	0.051
Mof_C 	C 	0.1937	0.8801	0.4334	-0.117
Mof_H 	H 	0.2276	0.8572	0.3789	0.065
Mof_H 	H 	0.23	0.8783	0.4973	0.07
Mof_N 	N 	0.3512	0.4255	0.5521	-0.119
Mof_N 	N 	0.3623	0.545	0.6732	-0.177
Mof_C 	C 	0.3298	0.5102	0.5789	0.094
Mof_H 	H 	0.2959	0.5404	0.5358	-0.008
Mof_N 	N 	0.7888	0.3065	0.3642	-0.173
Mof_C 	C 	0.4011	0.4057	0.6346	-0.015
Mof_H 	H 	0.4259	0.3519	0.6393	0.032
Mof_N 	N 	0.9177	0.2611	0.4144	-0.123
Mof_C 	C 	0.3278	0.3672	0.452	-0.048
Mof_H 	H 	0.3804	0.3375	0.4428	0.047
Mof_H 	H 	0.3441	0.4239	0.3986	0.043
Mof_C 	C 	0.4074	0.4788	0.7075	0.012
Mof_H 	H 	0.438	0.4838	0.7726	0.02
Mof_C 	C 	0.8202	0.3422	0.4639	0.01
Mof_H 	H 	0.7911	0.38	0.5035	0.02
Mof_C 	C 	0.8985	0.3145	0.4953	-0.012
Mof_H 	H 	0.9332	0.3287	0.5595	0.034
Mof_C 	C 	0.8521	0.2597	0.3369	0.091
Mof_H 	H 	0.8509	0.2298	0.2723	-0.004
Mof_C 	C 	0.9993	0.2178	0.414	-0.035
Mof_H 	H 	0.9773	0.1589	0.4665	0.037
Mof_H 	H 	0.996	0.1824	0.3482	0.036
Mof_C 	C 	0.2074	0.2705	0.4394	-0.095
Mof_H 	H 	0.1876	0.2176	0.4967	0.058
Mof_H 	H 	0.2023	0.2282	0.3772	0.051
Mof_C 	C 	0.1199	0.3136	0.4334	-0.117
Mof_H 	H 	0.1428	0.3704	0.3789	0.065
Mof_H 	H 	0.1217	0.3517	0.4973	0.07
Mof_N 	N 	0.5745	0.9257	0.5521	-0.119
Mof_N 	N 	0.455	0.8173	0.6732	-0.177
Mof_C 	C 	0.4898	0.8196	0.5789	0.094
Mof_H 	H 	0.4596	0.7555	0.5358	-0.008
Mof_N 	N 	0.6935	0.4823	0.3642	-0.173
Mof_C 	C 	0.5943	0.9954	0.6346	-0.014
Mof_H 	H 	0.6481	0.074	0.6393	0.032
Mof_N 	N 	0.7389	0.6566	0.4144	-0.123
Mof_C 	C 	0.6328	0.9606	0.452	-0.049
Mof_H 	H 	0.6625	0.0429	0.4428	0.048
Mof_H 	H 	0.5761	0.9202	0.3986	0.043
Mof_C 	C 	0.5212	0.9286	0.7075	0.012
Mof_H 	H 	0.5162	0.9542	0.7726	0.02
Mof_C 	C 	0.6578	0.478	0.4639	0.01
Mof_H 	H 	0.62	0.4111	0.5035	0.02
Mof_C 	C 	0.6855	0.584	0.4953	-0.012
Mof_H 	H 	0.6713	0.6045	0.5595	0.034
Mof_C 	C 	0.7403	0.5924	0.3369	0.09
Mof_H 	H 	0.7702	0.6211	0.2723	-0.004
Mof_C 	C 	0.7822	0.7815	0.414	-0.035
Mof_H 	H 	0.8411	0.8184	0.4665	0.037
Mof_H 	H 	0.8176	0.8136	0.3482	0.036
Mof_C 	C 	0.7295	0.9369	0.4394	-0.095
Mof_H 	H 	0.7824	0.97	0.4967	0.058
Mof_H 	H 	0.7718	0.9741	0.3772	0.051
Mof_C 	C 	0.6864	0.8063	0.4334	-0.117
Mof_H 	H 	0.6296	0.7724	0.3789	0.065
Mof_H 	H 	0.6483	0.77	0.4973	0.07
Mof_N 	N 	0.6488	0.0743	0.0521	-0.119
Mof_N 	N 	0.6377	0.1827	0.1732	-0.177
Mof_C 	C 	0.6702	0.1804	0.0789	0.093
Mof_H 	H 	0.7041	0.2445	0.0358	-0.008
Mof_N 	N 	0.2112	0.5177	0.8642	-0.173
Mof_C 	C 	0.5989	0.0046	0.1346	-0.013
Mof_H 	H 	0.5741	0.926	0.1393	0.031
Mof_N 	N 	0.0823	0.3434	0.9144	-0.123
Mof_C 	C 	0.6722	0.0394	0.952	-0.052
Mof_H 	H 	0.6196	0.9571	0.9428	0.049
Mof_H 	H 	0.6559	0.0798	0.8986	0.044
Mof_C 	C 	0.5926	0.0714	0.2075	0.011
Mof_H 	H 	0.562	0.0458	0.2726	0.02
Mof_C 	C 	0.1798	0.522	0.9639	0.011
Mof_H 	H 	0.2089	0.5889	0.0035	0.019
Mof_C 	C 	0.1015	0.416	0.9953	-0.011
Mof_H 	H 	0.0668	0.3955	0.0595	0.032
Mof_C 	C 	0.1479	0.4076	0.8369	0.091
Mof_H 	H 	0.1491	0.3789	0.7723	-0.004
Mof_C 	C 	0.0007	0.2185	0.914	-0.033
Mof_H 	H 	0.0227	0.1816	0.9665	0.037
Mof_H 	H 	0.004	0.1864	0.8482	0.036
Mof_C 	C 	0.7926	0.0631	0.9394	-0.092
Mof_H 	H 	0.8124	0.03	0.9967	0.057
Mof_H 	H 	0.7977	0.0259	0.8772	0.05
Mof_C 	C 	0.8801	0.1937	0.9334	-0.12
Mof_H 	H 	0.8572	0.2276	0.8789	0.065
Mof_H 	H 	0.8783	0.23	0.9973	0.07
Mof_N 	N 	0.4255	0.3512	0.0521	-0.119
Mof_N 	N 	0.545	0.3623	0.1732	-0.177
Mof_C 	C 	0.5102	0.3298	0.0789	0.094
Mof_H 	H 	0.5404	0.2959	0.0358	-0.008
Mof_N 	N 	0.3065	0.7888	0.8642	-0.173
Mof_C 	C 	0.4057	0.4011	0.1346	-0.015
Mof_H 	H 	0.3519	0.4259	0.1393	0.032
Mof_N 	N 	0.2611	0.9177	0.9144	-0.123
Mof_C 	C 	0.3672	0.3278	0.952	-0.048
Mof_H 	H 	0.3375	0.3804	0.9428	0.047
Mof_H 	H 	0.4239	0.3441	0.8986	0.043
Mof_C 	C 	0.4788	0.4074	0.2075	0.012
Mof_H 	H 	0.4838	0.438	0.2726	0.02
Mof_C 	C 	0.3422	0.8202	0.9639	0.011
Mof_H 	H 	0.38	0.7911	0.0035	0.019
Mof_C 	C 	0.3145	0.8985	0.9953	-0.01
Mof_H 	H 	0.3287	0.9332	0.0595	0.032
Mof_C 	C 	0.2597	0.8521	0.8369	0.091
Mof_H 	H 	0.2298	0.8509	0.7723	-0.004
Mof_C 	C 	0.2178	0.9993	0.914	-0.034
Mof_H 	H 	0.1589	0.9773	0.9665	0.037
Mof_H 	H 	0.1824	0.996	0.8482	0.036
Mof_C 	C 	0.2705	0.2074	0.9394	-0.095
Mof_H 	H 	0.2176	0.1876	0.9967	0.058
Mof_H 	H 	0.2282	0.2023	0.8772	0.051
Mof_C 	C 	0.3136	0.1199	0.9334	-0.118
Mof_H 	H 	0.3704	0.1428	0.8789	0.065
Mof_H 	H 	0.3517	0.1217	0.9973	0.07
Mof_N 	N 	0.9257	0.5745	0.0521	-0.119
Mof_N 	N 	0.8173	0.455	0.1732	-0.177
Mof_C 	C 	0.8196	0.4898	0.0789	0.094
Mof_H 	H 	0.7555	0.4596	0.0358	-0.008
Mof_N 	N 	0.4823	0.6935	0.8642	-0.173
Mof_C 	C 	0.9954	0.5943	0.1346	-0.013
Mof_H 	H 	0.074	0.6481	0.1393	0.031
Mof_N 	N 	0.6566	0.7389	0.9144	-0.123
Mof_C 	C 	0.9606	0.6328	0.952	-0.05
Mof_H 	H 	0.0429	0.6625	0.9428	0.049
Mof_H 	H 	0.9202	0.5761	0.8986	0.044
Mof_C 	C 	0.9286	0.5212	0.2075	0.011
Mof_H 	H 	0.9542	0.5162	0.2726	0.02
Mof_C 	C 	0.478	0.6578	0.9639	0.011
Mof_H 	H 	0.4111	0.62	0.0035	0.019
Mof_C 	C 	0.584	0.6855	0.9953	-0.012
Mof_H 	H 	0.6045	0.6713	0.0595	0.033
Mof_C 	C 	0.5924	0.7403	0.8369	0.09
Mof_H 	H 	0.6211	0.7702	0.7723	-0.004
Mof_C 	C 	0.7815	0.7822	0.914	-0.034
Mof_H 	H 	0.8184	0.8411	0.9665	0.037
Mof_H 	H 	0.8136	0.8176	0.8482	0.036
Mof_C 	C 	0.9369	0.7295	0.9394	-0.094
Mof_H 	H 	0.97	0.7824	0.9967	0.057
Mof_H 	H 	0.9741	0.7718	0.8772	0.051
Mof_C 	C 	0.8063	0.6864	0.9334	-0.118
Mof_H 	H 	0.7724	0.6296	0.8789	0.065
Mof_H 	H 	0.77	0.6483	0.9973	0.07
Mof_Fe	Fe	0.33333	0.66667	0.76689	0.621
Mof_Fe	Fe	0.66667	0.33333	0.26689	0.621
_end
