data_functionalizedCrystal
_audit_creation_method	'EQeq! by Chris Wilmer'
_symmetry_space_group_name_H-M	'P1'
_symmetry_Int_Tables_number	1
_symmetry_cell_setting	triclinic
loop_
_symmetry_equiv_pos_as_xyz
  x,y,z
_cell_length_a	12.083
_cell_length_b	14.893
_cell_length_c	11.784
_cell_angle_alpha	90
_cell_angle_beta	98.16
_cell_angle_gamma	90
loop_
_atom_site_label
_atom_site_type_symbol
_atom_site_fract_x
_atom_site_fract_y
_atom_site_fract_z
_atom_site_charge
Mof_Zn	Zn	0.40399	0.73576	0.08798	1.232
Mof_Zn	Zn	0.29531	0.61343	0.54504	1.2
Mof_P 	P 	0.33025	0.73789	0.34463	0.527
Mof_P 	P 	0.2486	0.91163	0.03598	0.524
Mof_O 	O 	0.26403	0.99241	0.96169	-0.437
Mof_O 	O 	0.44014	0.75183	0.42348	-0.51
Mof_O 	O 	0.3381	0.84333	0.0158	-0.447
Mof_O 	O 	0.13247	0.86882	0.01236	-0.475
Mof_O 	O 	0.25706	0.66877	0.39727	-0.465
Mof_O 	O 	0.26477	0.8276	0.32788	-0.437
Mof_O 	O 	0.26579	0.9448	0.16424	-0.25
Mof_O 	O 	0.34927	0.70107	0.22692	-0.462
Mof_Zn	Zn	0.90399	0.23576	0.08798	1.232
Mof_Zn	Zn	0.79531	0.11343	0.54504	1.2
Mof_P 	P 	0.83025	0.23789	0.34463	0.527
Mof_P 	P 	0.7486	0.41163	0.03598	0.523
Mof_O 	O 	0.76403	0.49241	0.96169	-0.436
Mof_O 	O 	0.94014	0.25183	0.42348	-0.511
Mof_O 	O 	0.8381	0.34333	0.0158	-0.447
Mof_O 	O 	0.63247	0.36882	0.01236	-0.475
Mof_O 	O 	0.75706	0.16877	0.39727	-0.465
Mof_O 	O 	0.76477	0.3276	0.32788	-0.437
Mof_O 	O 	0.76579	0.4448	0.16424	-0.249
Mof_O 	O 	0.84927	0.20107	0.22692	-0.463
Mof_Zn	Zn	0.59601	0.73576	0.41202	1.232
Mof_Zn	Zn	0.70469	0.61343	0.95496	1.201
Mof_P 	P 	0.66975	0.73789	0.15537	0.527
Mof_P 	P 	0.7514	0.91163	0.46402	0.525
Mof_O 	O 	0.73597	0.99241	0.53831	-0.439
Mof_O 	O 	0.55986	0.75183	0.07652	-0.511
Mof_O 	O 	0.6619	0.84333	0.4842	-0.446
Mof_O 	O 	0.86753	0.86882	0.48764	-0.476
Mof_O 	O 	0.74294	0.66877	0.10273	-0.467
Mof_O 	O 	0.73523	0.8276	0.17212	-0.439
Mof_O 	O 	0.73421	0.9448	0.33576	-0.25
Mof_O 	O 	0.65073	0.70107	0.27308	-0.463
Mof_Zn	Zn	0.09601	0.23576	0.41202	1.233
Mof_Zn	Zn	0.20469	0.11343	0.95496	1.198
Mof_P 	P 	0.16975	0.23789	0.15537	0.527
Mof_P 	P 	0.2514	0.41163	0.46402	0.525
Mof_O 	O 	0.23597	0.49241	0.53831	-0.439
Mof_O 	O 	0.05986	0.25183	0.07652	-0.507
Mof_O 	O 	0.1619	0.34333	0.4842	-0.446
Mof_O 	O 	0.36753	0.36882	0.48764	-0.476
Mof_O 	O 	0.24294	0.16877	0.10273	-0.462
Mof_O 	O 	0.23523	0.3276	0.17212	-0.436
Mof_O 	O 	0.23421	0.4448	0.33576	-0.248
Mof_O 	O 	0.15073	0.20107	0.27308	-0.462
Mof_Zn	Zn	0.59601	0.26424	0.91202	1.232
Mof_Zn	Zn	0.70469	0.38657	0.45496	1.2
Mof_P 	P 	0.66975	0.26211	0.65537	0.527
Mof_P 	P 	0.7514	0.08837	0.96402	0.524
Mof_O 	O 	0.73597	0.00759	0.03831	-0.437
Mof_O 	O 	0.55986	0.24817	0.57652	-0.51
Mof_O 	O 	0.6619	0.15667	0.9842	-0.447
Mof_O 	O 	0.86753	0.13118	0.98764	-0.475
Mof_O 	O 	0.74294	0.33123	0.60273	-0.465
Mof_O 	O 	0.73523	0.1724	0.67212	-0.437
Mof_O 	O 	0.73421	0.0552	0.83576	-0.25
Mof_O 	O 	0.65073	0.29893	0.77308	-0.462
Mof_Zn	Zn	0.09601	0.76424	0.91202	1.232
Mof_Zn	Zn	0.20469	0.88657	0.45496	1.2
Mof_P 	P 	0.16975	0.76211	0.65537	0.527
Mof_P 	P 	0.2514	0.58837	0.96402	0.523
Mof_O 	O 	0.23597	0.50759	0.03831	-0.436
Mof_O 	O 	0.05986	0.74817	0.57652	-0.511
Mof_O 	O 	0.1619	0.65667	0.9842	-0.447
Mof_O 	O 	0.36753	0.63118	0.98764	-0.475
Mof_O 	O 	0.24294	0.83123	0.60273	-0.465
Mof_O 	O 	0.23523	0.6724	0.67212	-0.437
Mof_O 	O 	0.23421	0.5552	0.83576	-0.249
Mof_O 	O 	0.15073	0.79893	0.77308	-0.463
Mof_Zn	Zn	0.40399	0.26424	0.58798	1.232
Mof_Zn	Zn	0.29531	0.38657	0.04504	1.201
Mof_P 	P 	0.33025	0.26211	0.84463	0.527
Mof_P 	P 	0.2486	0.08837	0.53598	0.525
Mof_O 	O 	0.26403	0.00759	0.46169	-0.439
Mof_O 	O 	0.44014	0.24817	0.92348	-0.511
Mof_O 	O 	0.3381	0.15667	0.5158	-0.446
Mof_O 	O 	0.13247	0.13118	0.51236	-0.476
Mof_O 	O 	0.25706	0.33123	0.89727	-0.467
Mof_O 	O 	0.26477	0.1724	0.82788	-0.439
Mof_O 	O 	0.26579	0.0552	0.66424	-0.25
Mof_O 	O 	0.34927	0.29893	0.72692	-0.463
Mof_Zn	Zn	0.90399	0.76424	0.58798	1.233
Mof_Zn	Zn	0.79531	0.88657	0.04504	1.198
Mof_P 	P 	0.83025	0.76211	0.84463	0.527
Mof_P 	P 	0.7486	0.58837	0.53598	0.525
Mof_O 	O 	0.76403	0.50759	0.46169	-0.439
Mof_O 	O 	0.94014	0.74817	0.92348	-0.507
Mof_O 	O 	0.8381	0.65667	0.5158	-0.446
Mof_O 	O 	0.63247	0.63118	0.51236	-0.476
Mof_O 	O 	0.75706	0.83123	0.89727	-0.462
Mof_O 	O 	0.76477	0.6724	0.82788	-0.436
Mof_O 	O 	0.76579	0.5552	0.66424	-0.248
Mof_O 	O 	0.84927	0.79893	0.72692	-0.462
_end
