data_functionalizedCrystal
_audit_creation_method	'EQeq! by Chris Wilmer'
_symmetry_space_group_name_H-M	'P1'
_symmetry_Int_Tables_number	1
_symmetry_cell_setting	triclinic
loop_
_symmetry_equiv_pos_as_xyz
  x,y,z
_cell_length_a	4.9327
_cell_length_b	12.8892
_cell_length_c	19.808
_cell_angle_alpha	107.046
_cell_angle_beta	90
_cell_angle_gamma	101.032
loop_
_atom_site_label
_atom_site_type_symbol
_atom_site_fract_x
_atom_site_fract_y
_atom_site_fract_z
_atom_site_charge
Mof_Zn	Zn	0.2338	0.8822	0.76277	1.22
Mof_Zn	Zn	0.78774	0.11148	0.73683	1.203
Mof_Zn	Zn	0.3516	0.1178	0.23723	1.206
Mof_Zn	Zn	0.67626	0.88852	0.26317	1.215
Mof_Zn	Zn	0.9568	0	-0	1.151
Mof_Zn	Zn	0.0701	0	0.5	1.178
Mof_P 	P 	0.26174	0.01568	0.65099	0.387
Mof_P 	P 	0.75881	0.97462	0.84874	0.613
Mof_P 	P 	0.24606	0.98432	0.34901	0.63
Mof_P 	P 	0.78419	0.02538	0.15126	0.369
Mof_H 	H 	0.8625	0.7348	0.6884	0.096
Mof_H 	H 	0.855	0.7238	0.7609	0.101
Mof_H 	H 	0.2331	0.6464	0.6653	0.014
Mof_H 	H 	0.2154	0.632	0.7427	0.018
Mof_H 	H 	0.7785	0.511	0.7104	0.052
Mof_H 	H 	0.7759	0.5306	0.6342	0.054
Mof_H 	H 	0.1553	0.4202	0.6828	0.039
Mof_H 	H 	0.1812	0.448	0.6093	0.04
Mof_H 	H 	0.7417	0.295	0.6418	0.043
Mof_H 	H 	0.7393	0.329	0.5702	0.05
Mof_H 	H 	0.1467	0.2222	0.6106	0.008
Mof_H 	H 	0.16	0.261	0.5408	0.015
Mof_H 	H 	0.7246	0.1058	0.5608	0.084
Mof_H 	H 	0.7782	0.134	0.494	0.092
Mof_H 	H 	0.2596	0.8718	0.011	0.073
Mof_H 	H 	0.2928	0.8876	0.9401	0.123
Mof_H 	H 	0.8621	0.745	0.9735	0.038
Mof_H 	H 	0.8867	0.7642	0.8976	0.022
Mof_H 	H 	0.2562	0.664	0.9564	0.061
Mof_H 	H 	0.2854	0.6844	0.8807	0.048
Mof_H 	H 	0.8441	0.5636	0.8436	0.046
Mof_H 	H 	0.8444	0.537	0.9174	0.053
Mof_H 	H 	0.2362	0.4846	0.8154	0.047
Mof_H 	H 	0.2209	0.4536	0.8879	0.054
Mof_H 	H 	0.8035	0.366	0.776	0.017
Mof_H 	H 	0.7931	0.334	0.848	0.018
Mof_H 	H 	0.1594	0.2776	0.7452	0.096
Mof_H 	H 	0.17	0.2532	0.8137	0.09
Mof_H 	H 	0.1277	0.2652	0.3116	0.088
Mof_H 	H 	0.1312	0.2762	0.2391	0.103
Mof_H 	H 	0.5867	0.3536	0.3347	0.009
Mof_H 	H 	0.5834	0.368	0.2573	0.011
Mof_H 	H 	0.2675	0.489	0.2896	0.06
Mof_H 	H 	0.2453	0.4694	0.3658	0.058
Mof_H 	H 	0.7351	0.5798	0.3172	0.029
Mof_H 	H 	0.7332	0.552	0.3907	0.033
Mof_H 	H 	0.4467	0.705	0.3582	0.055
Mof_H 	H 	0.4103	0.671	0.4298	0.06
Mof_H 	H 	0.9245	0.7778	0.3894	0.01
Mof_H 	H 	0.899	0.739	0.4592	0.017
Mof_H 	H 	0.6188	0.8942	0.4392	0.124
Mof_H 	H 	0.6442	0.866	0.506	0.117
Mof_H 	H 	0.3878	0.1282	0.989	0.145
Mof_H 	H 	0.4052	0.1124	0.0599	0.087
Mof_H 	H 	0.1171	0.255	0.0265	-0.01
Mof_H 	H 	0.1225	0.2358	0.1024	0.002
Mof_H 	H 	0.5922	0.336	0.0436	0.046
Mof_H 	H 	0.601	0.3156	0.1193	0.058
Mof_H 	H 	0.2805	0.4364	0.1564	0.028
Mof_H 	H 	0.3074	0.463	0.0826	0.02
Mof_H 	H 	0.7516	0.5154	0.1846	0.06
Mof_H 	H 	0.7673	0.5464	0.1121	0.052
Mof_H 	H 	0.4375	0.634	0.224	0.008
Mof_H 	H 	0.4591	0.666	0.152	0.002
Mof_H 	H 	0.8818	0.7224	0.2548	0.098
Mof_H 	H 	0.9168	0.7468	0.1863	0.088
Mof_C 	C 	0.105	0.636	0.7022	-0.032
Mof_C 	C 	0.8967	0.5254	0.6725	-0.115
Mof_C 	C 	0.0484	0.4288	0.6432	-0.078
Mof_C 	C 	0.861	0.32	0.607	-0.105
Mof_C 	C 	0.0325	0.233	0.573	-0.047
Mof_C 	C 	0.995	0.762	0.939	-0.056
Mof_C 	C 	0.151	0.668	0.915	-0.089
Mof_C 	C 	0.9652	0.5564	0.8812	-0.099
Mof_C 	C 	0.1079	0.4638	0.8499	-0.092
Mof_C 	C 	0.9194	0.3548	0.8131	-0.042
Mof_C 	C 	0.469	0.364	0.2978	-0.018
Mof_C 	C 	0.3713	0.4746	0.3275	-0.14
Mof_C 	C 	0.6196	0.5712	0.3568	-0.043
Mof_C 	C 	0.541	0.68	0.393	-0.143
Mof_C 	C 	0.7995	0.767	0.427	-0.015
Mof_C 	C 	0.233	0.238	0.061	-0.003
Mof_C 	C 	0.483	0.332	0.085	-0.154
Mof_C 	C 	0.4088	0.4436	0.1188	-0.03
Mof_C 	C 	0.6441	0.5362	0.1501	-0.148
Mof_C 	C 	0.5646	0.6452	0.1869	-0.007
Mof_N 	N 	0.9706	0.7332	0.7258	-0.349
Mof_N 	N 	0.8617	0.1254	0.533	-0.353
Mof_N 	N 	0.1644	0.8728	0.9714	-0.296
Mof_N 	N 	0.0524	0.2608	0.7801	-0.342
Mof_N 	N 	0.2374	0.2668	0.2742	-0.351
Mof_N 	N 	0.7363	0.8746	0.467	-0.35
Mof_N 	N 	0.2916	0.1272	0.0286	-0.405
Mof_N 	N 	0.7916	0.7392	0.2199	-0.349
Mof_O 	O 	0.3134	0.9168	0.6754	-0.434
Mof_O 	O 	0.4458	0.1256	0.6953	-0.497
Mof_O 	O 	0.3177	0.9914	0.5718	-0.373
Mof_O 	O 	0.9592	0.0224	0.6578	-0.531
Mof_O 	O 	0.6914	0.0008	0.9264	-0.535
Mof_O 	O 	0.5722	0.8644	0.8046	-0.492
Mof_O 	O 	0.6968	0.0696	0.8218	-0.572
Mof_O 	O 	0.0656	0.9672	0.8414	-0.479
Mof_O 	O 	0.3966	0.0832	0.3246	-0.573
Mof_O 	O 	0.3202	0.8744	0.3047	-0.505
Mof_O 	O 	0.3263	0.0086	0.4282	-0.564
Mof_O 	O 	0.9368	0.9776	0.3422	-0.481
Mof_O 	O 	0.6906	0.9992	0.0736	-0.376
Mof_O 	O 	0.7078	0.1356	0.1954	-0.489
Mof_O 	O 	0.6272	0.9304	0.1782	-0.437
Mof_O 	O 	0.0984	0.0328	0.1586	-0.533
_end
