data_functionalizedCrystal
_audit_creation_method	'EQeq! by Chris Wilmer'
_symmetry_space_group_name_H-M	'P1'
_symmetry_Int_Tables_number	1
_symmetry_cell_setting	triclinic
loop_
_symmetry_equiv_pos_as_xyz
  x,y,z
_cell_length_a	10.8532
_cell_length_b	13.0158
_cell_length_c	13.0158
_cell_angle_alpha	120
_cell_angle_beta	90
_cell_angle_gamma	90
loop_
_atom_site_label
_atom_site_type_symbol
_atom_site_fract_x
_atom_site_fract_y
_atom_site_fract_z
_atom_site_charge
Mof_Mn	Mn	3.96333e-33	0.33333	0.66666	0.639
Mof_Mn	Mn	-9.90833e-33	0.66667	0.33334	0.639
Mof_H 	H 	0.6046	0.61	0.1802	0.057
Mof_H 	H 	0.6046	0.5702	0.39	0.057
Mof_H 	H 	0.6046	0.8198	0.4298	0.058
Mof_H 	H 	0.3954	0.5702	0.1802	0.053
Mof_H 	H 	0.3954	0.8198	0.39	0.054
Mof_H 	H 	0.3954	0.61	0.4298	0.052
Mof_H 	H 	0.3954	0.39	0.8198	0.054
Mof_H 	H 	0.3954	0.4298	0.61	0.052
Mof_H 	H 	0.3954	0.1802	0.5702	0.053
Mof_H 	H 	0.6046	0.4298	0.8198	0.058
Mof_H 	H 	0.6046	0.1802	0.61	0.057
Mof_H 	H 	0.6046	0.39	0.5702	0.057
Mof_C 	C 	0.8258	0.5035	0.895	0.136
Mof_C 	C 	0.5623	0.565	0.107	-0.069
Mof_C 	C 	0.8258	0.3915	0.4965	0.145
Mof_C 	C 	0.5623	0.542	0.435	-0.069
Mof_C 	C 	0.8258	0.105	0.6085	0.144
Mof_C 	C 	0.5623	0.893	0.458	-0.075
Mof_C 	C 	0.1742	0.3915	0.895	0.094
Mof_C 	C 	0.4377	0.542	0.107	-0.064
Mof_C 	C 	0.1742	0.105	0.4965	0.102
Mof_C 	C 	0.4377	0.893	0.435	-0.07
Mof_C 	C 	0.1742	0.5035	0.6085	0.102
Mof_C 	C 	0.4377	0.565	0.458	-0.064
Mof_C 	C 	0.1742	0.4965	0.105	0.102
Mof_C 	C 	0.4377	0.435	0.893	-0.07
Mof_C 	C 	0.1742	0.6085	0.5035	0.102
Mof_C 	C 	0.4377	0.458	0.565	-0.064
Mof_C 	C 	0.1742	0.895	0.3915	0.094
Mof_C 	C 	0.4377	0.107	0.542	-0.064
Mof_C 	C 	0.8258	0.6085	0.105	0.144
Mof_C 	C 	0.5623	0.458	0.893	-0.075
Mof_C 	C 	0.8258	0.895	0.5035	0.136
Mof_C 	C 	0.5623	0.107	0.565	-0.069
Mof_C 	C 	0.8258	0.4965	0.3915	0.145
Mof_C 	C 	0.5623	0.435	0.542	-0.069
Mof_C 	C 	0.7605	0.546	-0	-0.119
Mof_C 	C 	0.6264	0.5223	-0	0.076
Mof_C 	C 	0.7605	0.454	0.454	-0.125
Mof_C 	C 	0.6264	0.4777	0.4777	0.071
Mof_C 	C 	0.7605	-3.56985e-17	0.546	-0.119
Mof_C 	C 	0.6264	-3.56985e-17	0.5223	0.076
Mof_C 	C 	0.2395	0.454	-0	-0.119
Mof_C 	C 	0.3736	0.4777	-0	0.066
Mof_C 	C 	0.2395	0	0.454	-0.119
Mof_C 	C 	0.3736	0	0.4777	0.066
Mof_C 	C 	0.2395	0.546	0.546	-0.126
Mof_C 	C 	0.3736	0.5223	0.5223	0.06
Mof_N 	N 	0.88	0.4676	0.807	-0.166
Mof_N 	N 	0.88	0.3394	0.5324	-0.167
Mof_N 	N 	0.88	0.193	0.6606	-0.167
Mof_N 	N 	0.12	0.3394	0.807	-0.208
Mof_N 	N 	0.12	0.193	0.5324	-0.208
Mof_N 	N 	0.12	0.4676	0.6606	-0.21
Mof_N 	N 	0.12	0.5324	0.193	-0.208
Mof_N 	N 	0.12	0.6606	0.4676	-0.21
Mof_N 	N 	0.12	0.807	0.3394	-0.208
Mof_N 	N 	0.88	0.6606	0.193	-0.167
Mof_N 	N 	0.88	0.807	0.4676	-0.166
Mof_N 	N 	0.88	0.5324	0.3394	-0.167
_end
