data_functionalizedCrystal
_audit_creation_method	'EQeq! by Chris Wilmer'
_symmetry_space_group_name_H-M	'P1'
_symmetry_Int_Tables_number	1
_symmetry_cell_setting	triclinic
loop_
_symmetry_equiv_pos_as_xyz
  x,y,z
_cell_length_a	8.903
_cell_length_b	12.3722
_cell_length_c	12.3722
_cell_angle_alpha	93.0949
_cell_angle_beta	110.844
_cell_angle_gamma	110.844
loop_
_atom_site_label
_atom_site_type_symbol
_atom_site_fract_x
_atom_site_fract_y
_atom_site_fract_z
_atom_site_charge
Mof_Na	Na	0.1675	0.30291	0.47895	2.559
Mof_Na	Na	0.183	0.5729	0.58922	2.101
Mof_Na	Na	0.6675	0.47895	0.30291	2.725
Mof_Na	Na	0.683	0.58922	0.5729	2.302
Mof_H 	H 	0.022	0.424	0.364	0.348
Mof_H 	H 	0.157	0.492	0.352	0.536
Mof_H 	H 	0.091	0.375	0.685	0.479
Mof_H 	H 	0.938	0.324	0.598	0.42
Mof_H 	H 	0.454	0.467	0.689	0.239
Mof_H 	H 	0.515	0.39	0.638	0.28
Mof_H 	H 	0.522	0.364	0.424	0.396
Mof_H 	H 	0.657	0.352	0.492	0.57
Mof_H 	H 	0.591	0.685	0.375	0.475
Mof_H 	H 	0.438	0.598	0.324	0.342
Mof_H 	H 	0.954	0.689	0.467	0.218
Mof_H 	H 	0.015	0.638	0.39	0.184
Mof_C 	C 	0.4988	0.0437	0.6017	-0.074
Mof_C 	C 	0.5917	0.1751	0.6043	0.323
Mof_C 	C 	0.3877	0.8434	0.4954	-0.153
Mof_C 	C 	0.5318	0.807	0.569	0.39
Mof_C 	C 	0.3234	0.9972	0.3888	0.009
Mof_C 	C 	0.1356	0.938	0.3824	-0.109
Mof_C 	C 	0.0045	0.9661	0.2815	-0.089
Mof_C 	C 	0.0093	0.9265	0.1647	-0.052
Mof_C 	C 	0.1924	0.9883	0.1689	-0.028
Mof_C 	C 	0.3317	0.9653	0.2709	0.038
Mof_C 	C 	0.5398	0.9613	0.1861	-0.026
Mof_C 	C 	0.5545	0.8469	0.2161	0.302
Mof_C 	C 	0.5515	0.1523	0.2599	-0.133
Mof_C 	C 	0.7471	0.232	0.3038	0.502
Mof_C 	C 	0.9988	0.6017	0.0437	0.028
Mof_C 	C 	0.0917	0.6043	0.1751	0.229
Mof_C 	C 	0.8877	0.4954	0.8434	-0.059
Mof_C 	C 	0.0318	0.569	0.807	0.202
Mof_C 	C 	0.8234	0.3888	0.9972	0.018
Mof_C 	C 	0.6356	0.3824	0.938	-0.095
Mof_C 	C 	0.5045	0.2815	0.9661	-0.059
Mof_C 	C 	0.5093	0.1647	0.9265	-0.028
Mof_C 	C 	0.6924	0.1689	0.9883	-0.007
Mof_C 	C 	0.8317	0.2709	0.9653	0.099
Mof_C 	C 	0.0398	0.1861	0.9613	-0.068
Mof_C 	C 	0.0545	0.2161	0.8469	0.297
Mof_C 	C 	0.0515	0.2599	0.1523	-0.173
Mof_C 	C 	0.2471	0.3038	0.232	0.518
Mof_N 	N 	0.4549	0.9704	0.4876	-0.073
Mof_N 	N 	0.5143	0.0283	0.2759	-0.069
Mof_N 	N 	0.9549	0.4876	0.9704	-0.073
Mof_N 	N 	0.0143	0.2759	0.0283	-0.098
Mof_O 	O 	0.693	0.2025	0.5509	-0.355
Mof_O 	O 	0.5607	0.2462	0.6598	-0.394
Mof_O 	O 	0.6874	0.8727	0.5949	-0.354
Mof_O 	O 	0.4811	0.7088	0.5992	-0.74
Mof_O 	O 	0.6011	0.8399	0.3249	-0.309
Mof_O 	O 	0.5316	0.771	0.1348	-0.295
Mof_O 	O 	0.8588	0.194	0.3588	-0.599
Mof_O 	O 	0.7809	0.3338	0.2802	-0.72
Mof_O 	O 	0.1316	0.4669	0.4053	-1.503
Mof_O 	O 	0.0551	0.374	0.6144	-1.421
Mof_O 	O 	0.4655	0.4425	0.6249	-1.173
Mof_O 	O 	0.193	0.5509	0.2025	-0.358
Mof_O 	O 	0.0607	0.6598	0.2462	-0.396
Mof_O 	O 	0.1874	0.5949	0.8727	-0.346
Mof_O 	O 	0.9811	0.5992	0.7088	-0.633
Mof_O 	O 	0.1011	0.3249	0.8399	-0.346
Mof_O 	O 	0.0316	0.1348	0.771	-0.335
Mof_O 	O 	0.3588	0.3588	0.194	-0.669
Mof_O 	O 	0.2809	0.2802	0.3338	-0.75
Mof_O 	O 	0.6316	0.4053	0.4669	-1.574
Mof_O 	O 	0.5551	0.6144	0.374	-1.358
Mof_O 	O 	0.9655	0.6249	0.4425	-1.035
_end
