data_functionalizedCrystal
_audit_creation_method	'EQeq! by Chris Wilmer'
_symmetry_space_group_name_H-M	'P1'
_symmetry_Int_Tables_number	1
_symmetry_cell_setting	triclinic
loop_
_symmetry_equiv_pos_as_xyz
  x,y,z
_cell_length_a	10.8285
_cell_length_b	11.1933
_cell_length_c	14.799
_cell_angle_alpha	90
_cell_angle_beta	90
_cell_angle_gamma	90
loop_
_atom_site_label
_atom_site_type_symbol
_atom_site_fract_x
_atom_site_fract_y
_atom_site_fract_z
_atom_site_charge
Mof_Zn	Zn	0.34279	0.81577	0.1584	1.188
Mof_O 	O 	0.26005	0.24718	0.56238	-0.474
Mof_O 	O 	0.10602	0.37047	0.5249	-0.318
Mof_O 	O 	0.40304	0.70387	0.2479	-0.472
Mof_O 	O 	0.21025	0.69836	0.29872	-0.334
Mof_N 	N 	0.49701	0.39689	0.37997	-0.276
Mof_C 	C 	0.46436	0.49909	0.33816	0.074
Mof_H 	H 	0.522	0.5363	0.2988	-0.018
Mof_C 	C 	0.41604	0.34601	0.43704	0.078
Mof_H 	H 	0.4386	0.2739	0.4667	0.015
Mof_C 	C 	0.30105	0.3949	0.45414	-0.126
Mof_C 	C 	0.2672	0.4995	0.4098	0.062
Mof_H 	H 	0.1885	0.5345	0.4201	0.034
Mof_C 	C 	0.3502	0.55179	0.35045	-0.127
Mof_C 	C 	0.212	0.3356	0.51874	0.346
Mof_C 	C 	0.3158	0.6609	0.29602	0.347
Mof_Zn	Zn	0.15721	0.18423	0.6584	1.188
Mof_O 	O 	0.23995	0.75282	0.06238	-0.473
Mof_O 	O 	0.39398	0.62953	0.0249	-0.318
Mof_O 	O 	0.09696	0.29613	0.7479	-0.472
Mof_O 	O 	0.28975	0.30164	0.79872	-0.334
Mof_N 	N 	0.00299	0.60311	0.87997	-0.276
Mof_C 	C 	0.03564	0.50091	0.83816	0.075
Mof_H 	H 	0.978	0.4637	0.7988	-0.019
Mof_C 	C 	0.08396	0.65399	0.93704	0.078
Mof_H 	H 	0.0614	0.7261	0.9667	0.015
Mof_C 	C 	0.19895	0.6051	0.95414	-0.126
Mof_C 	C 	0.2328	0.5005	0.9098	0.062
Mof_H 	H 	0.3115	0.4655	0.9201	0.033
Mof_C 	C 	0.1498	0.44821	0.85045	-0.127
Mof_C 	C 	0.288	0.6644	0.01874	0.346
Mof_C 	C 	0.1842	0.3391	0.79602	0.347
Mof_Zn	Zn	0.65721	0.31577	0.3416	1.189
Mof_O 	O 	0.73995	0.74718	0.93762	-0.473
Mof_O 	O 	0.89398	0.87047	0.9751	-0.318
Mof_O 	O 	0.59696	0.20387	0.2521	-0.471
Mof_O 	O 	0.78975	0.19836	0.20128	-0.334
Mof_N 	N 	0.50299	0.89689	0.12003	-0.275
Mof_C 	C 	0.53564	0.99909	0.16184	0.071
Mof_H 	H 	0.478	0.0363	0.2012	-0.017
Mof_C 	C 	0.58396	0.84601	0.06296	0.077
Mof_H 	H 	0.5614	0.7739	0.0333	0.015
Mof_C 	C 	0.69895	0.8949	0.04586	-0.125
Mof_C 	C 	0.7328	0.9995	0.0902	0.058
Mof_H 	H 	0.8115	0.0345	0.0799	0.036
Mof_C 	C 	0.6498	0.05179	0.14955	-0.123
Mof_C 	C 	0.788	0.8356	0.98126	0.346
Mof_C 	C 	0.6842	0.1609	0.20398	0.346
Mof_Zn	Zn	0.84279	0.68423	0.8416	1.188
Mof_O 	O 	0.76005	0.25282	0.43762	-0.473
Mof_O 	O 	0.60602	0.12953	0.4751	-0.318
Mof_O 	O 	0.90304	0.79613	0.7521	-0.472
Mof_O 	O 	0.71025	0.80164	0.70128	-0.334
Mof_N 	N 	0.99701	0.10311	0.62003	-0.275
Mof_C 	C 	0.96436	0.00091	0.66184	0.071
Mof_H 	H 	0.022	0.9637	0.7012	-0.016
Mof_C 	C 	0.91604	0.15399	0.56296	0.078
Mof_H 	H 	0.9386	0.2261	0.5333	0.015
Mof_C 	C 	0.80105	0.1051	0.54586	-0.126
Mof_C 	C 	0.7672	0.0005	0.5902	0.062
Mof_H 	H 	0.6885	0.9655	0.5799	0.034
Mof_C 	C 	0.8502	0.94821	0.64955	-0.126
Mof_C 	C 	0.712	0.1644	0.48126	0.346
Mof_C 	C 	0.8158	0.8391	0.70398	0.346
_end
