data_functionalizedCrystal
_audit_creation_method	'EQeq! by Chris Wilmer'
_symmetry_space_group_name_H-M	'P1'
_symmetry_Int_Tables_number	1
_symmetry_cell_setting	triclinic
loop_
_symmetry_equiv_pos_as_xyz
  x,y,z
_cell_length_a	13.8078
_cell_length_b	13.249
_cell_length_c	13.842
_cell_angle_alpha	90
_cell_angle_beta	91.328
_cell_angle_gamma	90
loop_
_atom_site_label
_atom_site_type_symbol
_atom_site_fract_x
_atom_site_fract_y
_atom_site_fract_z
_atom_site_charge
Mof_Ga	Ga	0.1233	0.8607	0.2243	2.418
Mof_Co	Co	0.0264	0.7391	0.6228	1.155
Mof_Co	Co	0.8767	0.1393	0.7757	1.19
Mof_P 	P 	0.9682	0.2609	0.606	0.676
Mof_P 	P 	0.8558	0.6227	0.7159	0.564
Mof_O 	O 	0.9257	0.2641	0.5028	-0.403
Mof_O 	O 	0.0081	0.3659	0.633	-0.524
Mof_O 	O 	0.8819	0.5171	0.751	-0.405
Mof_O 	O 	0.921	0.65	0.6338	-0.422
Mof_O 	O 	0.9099	0.0013	0.7444	-0.371
Mof_O 	O 	0.8665	0.6997	0.797	-0.443
Mof_O 	O 	0.003	0.8731	0.8418	-0.48
Mof_O 	O 	0.8841	0.236	0.6726	-0.452
Mof_O 	O 	0.7521	0.6219	0.6766	-0.404
Mof_O 	O 	0.0477	0.1824	0.612	-0.543
Mof_Ga	Ga	0.6233	0.3607	0.2243	2.498
Mof_Co	Co	0.5264	0.2391	0.6228	1.201
Mof_Co	Co	0.3767	0.6393	0.7757	1.182
Mof_P 	P 	0.4682	0.7609	0.606	0.539
Mof_P 	P 	0.3558	0.1227	0.7159	0.565
Mof_O 	O 	0.4257	0.7641	0.5028	-0.417
Mof_O 	O 	0.5081	0.8659	0.633	-0.438
Mof_O 	O 	0.3819	0.0171	0.751	-0.441
Mof_O 	O 	0.421	0.15	0.6338	-0.47
Mof_O 	O 	0.4099	0.5013	0.7444	-0.443
Mof_O 	O 	0.3665	0.1997	0.797	-0.462
Mof_O 	O 	0.503	0.3731	0.8418	-0.442
Mof_O 	O 	0.3841	0.736	0.6726	-0.455
Mof_O 	O 	0.2521	0.1219	0.6766	-0.412
Mof_O 	O 	0.5477	0.6824	0.612	-0.462
Mof_Ga	Ga	0.8767	0.8607	0.2757	2.549
Mof_Co	Co	0.9736	0.7391	0.8772	1.247
Mof_Co	Co	0.1233	0.1393	0.7243	1.174
Mof_P 	P 	0.0318	0.2609	0.894	0.404
Mof_P 	P 	0.1442	0.6227	0.7841	0.565
Mof_O 	O 	0.0743	0.2641	0.9972	-0.417
Mof_O 	O 	0.9919	0.3659	0.867	-0.333
Mof_O 	O 	0.1181	0.5171	0.749	-0.457
Mof_O 	O 	0.079	0.65	0.8662	-0.507
Mof_O 	O 	0.0901	0.0013	0.7556	-0.443
Mof_O 	O 	0.1335	0.6997	0.703	-0.48
Mof_O 	O 	0.997	0.8731	0.6582	-0.34
Mof_O 	O 	0.1159	0.236	0.8274	-0.45
Mof_O 	O 	0.2479	0.6219	0.8234	-0.408
Mof_O 	O 	0.9523	0.1824	0.888	-0.379
Mof_Ga	Ga	0.3767	0.3607	0.2757	2.489
Mof_Co	Co	0.4736	0.2391	0.8772	1.205
Mof_Co	Co	0.6233	0.6393	0.7243	1.183
Mof_P 	P 	0.5318	0.7609	0.894	0.539
Mof_P 	P 	0.6442	0.1227	0.7841	0.565
Mof_O 	O 	0.5743	0.7641	0.9972	-0.408
Mof_O 	O 	0.4919	0.8659	0.867	-0.437
Mof_O 	O 	0.6181	0.0171	0.749	-0.438
Mof_O 	O 	0.579	0.15	0.8662	-0.463
Mof_O 	O 	0.5901	0.5013	0.7556	-0.441
Mof_O 	O 	0.6335	0.1997	0.703	-0.461
Mof_O 	O 	0.497	0.3731	0.6582	-0.445
Mof_O 	O 	0.6159	0.736	0.8274	-0.45
Mof_O 	O 	0.7479	0.1219	0.8234	-0.402
Mof_O 	O 	0.4523	0.6824	0.888	-0.46
Mof_Co	Co	0.9736	0.2609	0.3772	1.244
Mof_P 	P 	0.0318	0.7391	0.394	0.517
Mof_P 	P 	0.1442	0.3773	0.2841	0.637
Mof_O 	O 	0.0743	0.7359	0.4972	-0.444
Mof_O 	O 	0.9919	0.6341	0.367	-0.376
Mof_O 	O 	0.1181	0.4829	0.249	-0.49
Mof_O 	O 	0.079	0.35	0.3662	-0.524
Mof_O 	O 	0.0901	0.9987	0.2556	-0.754
Mof_O 	O 	0.1335	0.3003	0.203	-0.52
Mof_O 	O 	0.997	0.1269	0.1582	-0.375
Mof_O 	O 	0.1159	0.764	0.3274	-0.762
Mof_O 	O 	0.2479	0.3781	0.3234	-0.702
Mof_O 	O 	0.9523	0.8176	0.388	-0.705
Mof_Co	Co	0.4736	0.7609	0.3772	1.199
Mof_P 	P 	0.5318	0.2391	0.394	0.657
Mof_P 	P 	0.6442	0.8773	0.2841	0.64
Mof_O 	O 	0.5743	0.2359	0.4972	-0.431
Mof_O 	O 	0.4919	0.1341	0.367	-0.483
Mof_O 	O 	0.6181	0.9829	0.249	-0.47
Mof_O 	O 	0.579	0.85	0.3662	-0.479
Mof_O 	O 	0.5901	0.4987	0.2556	-0.768
Mof_O 	O 	0.6335	0.8003	0.203	-0.502
Mof_O 	O 	0.497	0.6269	0.1582	-0.483
Mof_O 	O 	0.6159	0.264	0.3274	-0.776
Mof_O 	O 	0.7479	0.8781	0.3234	-0.706
Mof_O 	O 	0.4523	0.3176	0.388	-0.781
Mof_Co	Co	0.0264	0.2609	0.1228	1.148
Mof_P 	P 	0.9682	0.7391	0.106	0.796
Mof_P 	P 	0.8558	0.3773	0.2159	0.637
Mof_O 	O 	0.9257	0.7359	0.0028	-0.427
Mof_O 	O 	0.0081	0.6341	0.133	-0.571
Mof_O 	O 	0.8819	0.4829	0.251	-0.436
Mof_O 	O 	0.921	0.35	0.1338	-0.437
Mof_O 	O 	0.9099	0.9987	0.2444	-0.701
Mof_O 	O 	0.8665	0.3003	0.297	-0.481
Mof_O 	O 	0.003	0.1269	0.3418	-0.519
Mof_O 	O 	0.8841	0.764	0.1726	-0.786
Mof_O 	O 	0.7521	0.3781	0.1766	-0.7
Mof_O 	O 	0.0477	0.8176	0.112	-0.854
Mof_Co	Co	0.5264	0.7609	0.1228	1.196
Mof_P 	P 	0.4682	0.2391	0.106	0.657
Mof_P 	P 	0.3558	0.8773	0.2159	0.635
Mof_O 	O 	0.4257	0.2359	0.0028	-0.445
Mof_O 	O 	0.5081	0.1341	0.133	-0.486
Mof_O 	O 	0.3819	0.9829	0.251	-0.471
Mof_O 	O 	0.421	0.85	0.1338	-0.483
Mof_O 	O 	0.4099	0.4987	0.2444	-0.77
Mof_O 	O 	0.3665	0.8003	0.297	-0.501
Mof_O 	O 	0.503	0.6269	0.3418	-0.48
Mof_O 	O 	0.3841	0.264	0.1726	-0.78
Mof_O 	O 	0.2521	0.8781	0.1766	-0.692
Mof_O 	O 	0.5477	0.3176	0.112	-0.785
Mof_Co	Co	2.88435e-33	0.4412	0.75	1.153
Mof_P 	P 	-2.80673e-18	0.9379	0.75	0.44
Mof_Co	Co	0.5	0.9412	0.75	1.195
Mof_P 	P 	0.5	0.4379	0.75	0.575
Mof_Co	Co	9.61449e-34	0.5588	0.25	1.139
Mof_P 	P 	9.61449e-34	0.0621	0.25	0.573
Mof_Co	Co	0.5	0.0588	0.25	1.181
Mof_P 	P 	0.5	0.5621	0.25	0.717
_end
