data_functionalizedCrystal
_audit_creation_method	'EQeq! by Chris Wilmer'
_symmetry_space_group_name_H-M	'P1'
_symmetry_Int_Tables_number	1
_symmetry_cell_setting	triclinic
loop_
_symmetry_equiv_pos_as_xyz
  x,y,z
_cell_length_a	10.212
_cell_length_b	17.229
_cell_length_c	18.2382
_cell_angle_alpha	118.186
_cell_angle_beta	90
_cell_angle_gamma	90
loop_
_atom_site_label
_atom_site_type_symbol
_atom_site_fract_x
_atom_site_fract_y
_atom_site_fract_z
_atom_site_charge
Mof_Rb	Rb	0.03951	0.09241	0.33032	3.182
Mof_Rb	Rb	0.53951	0.90759	0.66968	2.961
Mof_Rb	Rb	0.53951	0.23791	0.33032	2.964
Mof_Rb	Rb	0.03951	0.76209	0.66968	3.148
Mof_Ga	Ga	0.21106	0.99298	0.8388	4.285
Mof_Ga	Ga	0.20083	0.84508	0.51374	3.917
Mof_Ga	Ga	0.8927	0.0087	0.66312	3.911
Mof_Ga	Ga	0.8677	0.96214	0.45046	4.48
Mof_Ga	Ga	0.78734	0.05093	-0	4.123
Mof_Ga	Ga	0.71106	0.00702	0.1612	4.298
Mof_Ga	Ga	0.70083	0.15492	0.48626	3.911
Mof_Ga	Ga	0.3927	0.9913	0.33688	3.961
Mof_Ga	Ga	0.3677	0.03786	0.54954	4.609
Mof_Ga	Ga	0.28734	0.94907	-0	4.162
Mof_Ga	Ga	0.71106	0.84582	0.8388	4.345
Mof_Ga	Ga	0.70083	0.66866	0.51374	3.91
Mof_Ga	Ga	0.3927	0.65442	0.66312	3.983
Mof_Ga	Ga	0.3677	0.48832	0.45046	4.567
Mof_Ga	Ga	0.21106	0.15418	0.1612	4.276
Mof_Ga	Ga	0.20083	0.33134	0.48626	3.919
Mof_Ga	Ga	0.8927	0.34558	0.33688	3.869
Mof_Ga	Ga	0.8677	0.51168	0.54954	4.477
Mof_P 	P 	0.8954	0.81756	0.50988	1.042
Mof_P 	P 	0.68379	0.97376	0.31668	1.034
Mof_P 	P 	0.90432	0.97681	0.81798	1.042
Mof_P 	P 	0.66533	0.06728	0.59384	0.973
Mof_P 	P 	0.33745	0.12742	-0	0.728
Mof_P 	P 	0.3954	0.18244	0.49012	1.081
Mof_P 	P 	0.18379	0.02624	0.68332	1.054
Mof_P 	P 	0.40432	0.02319	0.18202	1.106
Mof_P 	P 	0.16533	0.93272	0.40616	0.959
Mof_P 	P 	0.83745	0.87258	-0	0.718
Mof_P 	P 	0.3954	0.69232	0.50988	1.08
Mof_P 	P 	0.18379	0.34292	0.31668	1.037
Mof_P 	P 	0.40432	0.84117	0.81798	1.093
Mof_P 	P 	0.16533	0.52656	0.59384	0.968
Mof_P 	P 	0.8954	0.30768	0.49012	1.036
Mof_P 	P 	0.68379	0.65708	0.68332	1.037
Mof_P 	P 	0.90432	0.15883	0.18202	1.055
Mof_P 	P 	0.66533	0.47344	0.40616	0.965
Mof_H 	H 	0.53553	0.15888	0.99922	0.488
Mof_H 	H 	0.03553	0.84112	0.00078	0.265
Mof_O 	O 	0.7072	0.98702	0.51512	-1.227
Mof_O 	O 	0.8736	0.84834	0.44428	-1.132
Mof_O 	O 	0.3009	0.74657	0.48918	-1.183
Mof_O 	O 	0.0245	0.94415	0.3848	-1.206
Mof_O 	O 	0.7642	0.92369	0.3518	-1.111
Mof_O 	O 	0.0347	0.78442	0.50676	-1.173
Mof_O 	O 	0.18	0.84827	0.41514	-1.103
Mof_O 	O 	0.6632	0.07207	0.379	-1.442
Mof_O 	O 	0.0483	0.95732	0.78998	-1.419
Mof_O 	O 	0.7526	0.07889	0.6683	-1.144
Mof_O 	O 	0.8352	0.01132	0.766	-1.159
Mof_O 	O 	0.8952	0.04431	0.90994	-0.975
Mof_O 	O 	0.2569	0.03411	0.75948	-1.146
Mof_O 	O 	0.3462	0.91245	0.79884	-1.491
Mof_O 	O 	0.0471	0.06934	0.70834	-1.032
Mof_O 	O 	0.861	0.88837	0.59894	-1.446
Mof_O 	O 	0.8938	0.95472	-0	-1.127
Mof_O 	O 	0.2532	0.10521	0.9228	-0.968
Mof_O 	O 	0.4525	0.1866	-0	-0.653
Mof_O 	O 	0.2072	0.01298	0.48488	-1.228
Mof_O 	O 	0.3736	0.15166	0.55572	-1.149
Mof_O 	O 	0.8009	0.25343	0.51082	-1.18
Mof_O 	O 	0.5245	0.05585	0.6152	-1.233
Mof_O 	O 	0.2642	0.07631	0.6482	-1.122
Mof_O 	O 	0.5347	0.21558	0.49324	-1.191
Mof_O 	O 	0.68	0.15173	0.58486	-1.105
Mof_O 	O 	0.1632	0.92793	0.621	-1.452
Mof_O 	O 	0.5483	0.04268	0.21002	-1.447
Mof_O 	O 	0.2526	0.92111	0.3317	-1.165
Mof_O 	O 	0.3352	0.98868	0.234	-1.202
Mof_O 	O 	0.3952	0.95569	0.09006	-1.113
Mof_O 	O 	0.7569	0.96589	0.24052	-1.175
Mof_O 	O 	0.8462	0.08755	0.20116	-1.519
Mof_O 	O 	0.5471	0.93066	0.29166	-1.084
Mof_O 	O 	0.361	0.11163	0.40106	-1.445
Mof_O 	O 	0.3938	0.04528	-0	-1.134
Mof_O 	O 	0.7532	0.89479	0.0772	-1.132
Mof_O 	O 	0.9525	0.8134	-0	-0.522
Mof_O 	O 	0.2072	0.5281	0.51512	-1.235
Mof_O 	O 	0.3736	0.59594	0.44428	-1.143
Mof_O 	O 	0.8009	0.74261	0.48918	-1.18
Mof_O 	O 	0.5245	0.44065	0.3848	-1.231
Mof_O 	O 	0.2642	0.42811	0.3518	-1.117
Mof_O 	O 	0.5347	0.72234	0.50676	-1.191
Mof_O 	O 	0.68	0.56687	0.41514	-1.106
Mof_O 	O 	0.1632	0.30693	0.379	-1.439
Mof_O 	O 	0.5483	0.83266	0.78998	-1.446
Mof_O 	O 	0.2526	0.58941	0.6683	-1.159
Mof_O 	O 	0.3352	0.75468	0.766	-1.182
Mof_O 	O 	0.3952	0.86563	0.90994	-0.99
Mof_O 	O 	0.7569	0.72537	0.75948	-1.176
Mof_O 	O 	0.8462	0.88639	0.79884	-1.511
Mof_O 	O 	0.5471	0.639	0.70834	-1.077
Mof_O 	O 	0.361	0.71057	0.59894	-1.452
Mof_O 	O 	0.7532	0.81759	0.9228	-1.005
Mof_O 	O 	0.7072	0.4719	0.48488	-1.22
Mof_O 	O 	0.8736	0.40406	0.55572	-1.131
Mof_O 	O 	0.3009	0.25739	0.51082	-1.183
Mof_O 	O 	0.0245	0.55935	0.6152	-1.198
Mof_O 	O 	0.7642	0.57189	0.6482	-1.109
Mof_O 	O 	0.0347	0.27766	0.49324	-1.17
Mof_O 	O 	0.18	0.43313	0.58486	-1.101
Mof_O 	O 	0.6632	0.69307	0.621	-1.447
Mof_O 	O 	0.0483	0.16734	0.21002	-1.421
Mof_O 	O 	0.7526	0.41059	0.3317	-1.145
Mof_O 	O 	0.8352	0.24532	0.234	-1.182
Mof_O 	O 	0.8952	0.13437	0.09006	-1.113
Mof_O 	O 	0.2569	0.27463	0.24052	-1.16
Mof_O 	O 	0.3462	0.11361	0.20116	-1.501
Mof_O 	O 	0.0471	0.361	0.29166	-1.04
Mof_O 	O 	0.861	0.28943	0.40106	-1.436
Mof_O 	O 	0.2532	0.18241	0.0772	-1.121
Mof_F 	F 	0.3712	0.91552	0.53214	-1.527
Mof_F 	F 	0.1684	0.95159	0.91786	-1.43
Mof_F 	F 	0.9578	0.01027	0.55736	-1.45
Mof_F 	F 	0.6915	0.14686	-0	-1.076
Mof_F 	F 	0.8712	0.08448	0.46786	-1.534
Mof_F 	F 	0.6684	0.04841	0.08214	-1.532
Mof_F 	F 	0.4578	0.98973	0.44264	-1.454
Mof_F 	F 	0.1915	0.85314	-0	-1.028
Mof_F 	F 	0.8712	0.61662	0.53214	-1.533
Mof_F 	F 	0.6684	0.96627	0.91786	-1.443
Mof_F 	F 	0.4578	0.54709	0.55736	-1.447
Mof_F 	F 	0.3712	0.38338	0.46786	-1.519
Mof_F 	F 	0.1684	0.03373	0.08214	-1.519
Mof_F 	F 	0.9578	0.45291	0.44264	-1.449
Mof_H 	H 	0.9302	0.2657	0.6576	-0.138
Mof_H 	H 	0.9949	0.2222	0.7072	-0.148
Mof_H 	H 	0.166	0.3139	0.7458	0.148
Mof_H 	H 	0.1393	0.342	0.6774	0.137
Mof_H 	H 	0.0178	0.4035	0.83	0.002
Mof_H 	H 	0.9481	0.4141	0.76	-0.056
Mof_H 	H 	0.1498	0.5208	0.8604	0.103
Mof_H 	H 	0.1034	0.5255	0.7788	0.1
Mof_H 	H 	0.8927	0.4832	0.8368	0.069
Mof_H 	H 	0.9554	0.5586	0.9166	0.102
Mof_H 	H 	0.8416	0.6486	0.8962	0.079
Mof_H 	H 	0.7953	0.5743	0.8094	0.039
Mof_H 	H 	0.05266	0.1173	0.58568	0.113
Mof_H 	H 	0.03634	0.1871	0.5431	0.03
Mof_H 	H 	0.1753	0.1905	0.59676	0.062
Mof_H 	H 	0.98626	0.5929	0.74436	0.035
Mof_H 	H 	0.89034	0.68583	0.79087	0.027
Mof_H 	H 	0.02798	0.67779	0.84017	0.091
Mof_C 	C 	0.0131	0.24807	0.67117	0.411
Mof_C 	C 	0.0972	0.32906	0.71816	-0.4
Mof_C 	C 	0.0337	0.4134	0.7826	0.185
Mof_C 	C 	0.0806	0.5067	0.8196	-0.163
Mof_C 	C 	0.9467	0.5356	0.857	-0.153
Mof_C 	C 	0.8718	0.6024	0.843	0.014
Mof_N 	N 	0.0736	0.18043	0.5935	-0.282
Mof_N 	N 	0.95	0.6423	0.8012	-0.24
Mof_H 	H 	0.4302	0.7343	0.3424	-0.03
Mof_H 	H 	0.4949	0.7778	0.2928	-0.036
Mof_H 	H 	0.666	0.6861	0.2542	0.085
Mof_H 	H 	0.6393	0.658	0.3226	0.085
Mof_H 	H 	0.5178	0.5965	0.17	-0.004
Mof_H 	H 	0.4481	0.5859	0.24	0.017
Mof_H 	H 	0.6498	0.4792	0.1396	0.038
Mof_H 	H 	0.6034	0.4745	0.2212	0.075
Mof_H 	H 	0.3927	0.5168	0.1632	0.025
Mof_H 	H 	0.4554	0.4414	0.0834	0.001
Mof_H 	H 	0.3416	0.3514	0.1038	0.028
Mof_H 	H 	0.2953	0.4257	0.1906	0.033
Mof_H 	H 	0.55266	0.8827	0.41432	0.089
Mof_H 	H 	0.53634	0.8129	0.4569	0.018
Mof_H 	H 	0.6753	0.8095	0.40324	0.063
Mof_H 	H 	0.48626	0.4071	0.25564	0.052
Mof_H 	H 	0.39034	0.31417	0.20913	0.027
Mof_H 	H 	0.52798	0.32221	0.15983	0.017
Mof_C 	C 	0.5131	0.75193	0.32883	0.131
Mof_C 	C 	0.5972	0.67094	0.28184	-0.225
Mof_C 	C 	0.5337	0.5866	0.2174	0.015
Mof_C 	C 	0.5806	0.4933	0.1804	-0.149
Mof_C 	C 	0.4467	0.4644	0.143	-0.072
Mof_C 	C 	0.3718	0.3976	0.157	-0.013
Mof_N 	N 	0.5736	0.81957	0.4065	-0.244
Mof_N 	N 	0.45	0.3577	0.1988	-0.213
Mof_H 	H 	0.4302	0.3919	0.6576	-0.022
Mof_H 	H 	0.4949	0.485	0.7072	-0.02
Mof_H 	H 	0.666	0.4319	0.7458	0.086
Mof_H 	H 	0.6393	0.3354	0.6774	0.077
Mof_H 	H 	0.5178	0.4265	0.83	0.045
Mof_H 	H 	0.4481	0.3459	0.76	0.031
Mof_H 	H 	0.6498	0.3396	0.8604	0.078
Mof_H 	H 	0.6034	0.2533	0.7788	0.072
Mof_H 	H 	0.3927	0.3536	0.8368	0.064
Mof_H 	H 	0.4554	0.358	0.9166	0.109
Mof_H 	H 	0.3416	0.2476	0.8962	0.094
Mof_H 	H 	0.2953	0.2351	0.8094	0.044
Mof_H 	H 	0.55266	0.46838	0.58568	0.09
Mof_H 	H 	0.53634	0.356	0.5431	0.018
Mof_H 	H 	0.6753	0.40626	0.59676	0.063
Mof_H 	H 	0.48626	0.15146	0.74436	0.056
Mof_H 	H 	0.39034	0.10504	0.79087	0.039
Mof_H 	H 	0.52798	0.16238	0.84017	0.06
Mof_C 	C 	0.5131	0.4231	0.67117	0.11
Mof_C 	C 	0.5972	0.3891	0.71816	-0.192
Mof_C 	C 	0.5337	0.3692	0.7826	-0.026
Mof_C 	C 	0.5806	0.3129	0.8196	-0.107
Mof_C 	C 	0.4467	0.3214	0.857	-0.125
Mof_C 	C 	0.3718	0.2406	0.843	0.002
Mof_N 	N 	0.5736	0.41307	0.5935	-0.241
Mof_N 	N 	0.45	0.1589	0.8012	-0.218
Mof_H 	H 	0.9302	0.6081	0.3424	-0.135
Mof_H 	H 	0.9949	0.515	0.2928	-0.152
Mof_H 	H 	0.166	0.5681	0.2542	0.141
Mof_H 	H 	0.1393	0.6646	0.3226	0.139
Mof_H 	H 	0.0178	0.5735	0.17	-0.041
Mof_H 	H 	0.9481	0.6541	0.24	-0.061
Mof_H 	H 	0.1498	0.6604	0.1396	0.062
Mof_H 	H 	0.1034	0.7467	0.2212	0.1
Mof_H 	H 	0.8927	0.6464	0.1632	0.029
Mof_H 	H 	0.9554	0.642	0.0834	-0.002
Mof_H 	H 	0.8416	0.7524	0.1038	0.017
Mof_H 	H 	0.7953	0.7649	0.1906	0.028
Mof_H 	H 	0.05266	0.53162	0.41432	0.11
Mof_H 	H 	0.03634	0.644	0.4569	0.029
Mof_H 	H 	0.1753	0.59374	0.40324	0.062
Mof_H 	H 	0.98626	0.84854	0.25564	0.033
Mof_H 	H 	0.89034	0.89496	0.20913	0.017
Mof_H 	H 	0.02798	0.83762	0.15983	0.048
Mof_C 	C 	0.0131	0.5769	0.32883	0.402
Mof_C 	C 	0.0972	0.6109	0.28184	-0.412
Mof_C 	C 	0.0337	0.6308	0.2174	0.206
Mof_C 	C 	0.0806	0.6871	0.1804	-0.199
Mof_C 	C 	0.9467	0.6786	0.143	-0.097
Mof_C 	C 	0.8718	0.7594	0.157	-0.002
Mof_N 	N 	0.0736	0.58693	0.4065	-0.281
Mof_N 	N 	0.95	0.8411	0.1988	-0.233
_end
