data_functionalizedCrystal
_audit_creation_method	'EQeq! by Chris Wilmer'
_symmetry_space_group_name_H-M	'P1'
_symmetry_Int_Tables_number	1
_symmetry_cell_setting	triclinic
loop_
_symmetry_equiv_pos_as_xyz
  x,y,z
_cell_length_a	14.2719
_cell_length_b	14.272
_cell_length_c	17.5688
_cell_angle_alpha	76.4632
_cell_angle_beta	76.4631
_cell_angle_gamma	115.07
loop_
_atom_site_label
_atom_site_type_symbol
_atom_site_fract_x
_atom_site_fract_y
_atom_site_fract_z
_atom_site_charge
Mof_Ni	Ni	0.19325	0.21499	0.81474	1.123
Mof_Ni	Ni	0.99201	0.97027	0.81474	1.08
Mof_Ni	Ni	0.96499	0.44325	0.31474	1.094
Mof_Ni	Ni	0.72027	0.24201	0.31474	1.123
Mof_H 	H 	0.107	0.155	0.702	0.346
Mof_H 	H 	0.4044	0.2876	0.8486	0.005
Mof_H 	H 	0.4982	0.3866	0.919	0.084
Mof_H 	H 	0.2383	0.4283	0.0066	0.091
Mof_H 	H 	0.1519	0.3287	0.9348	0.02
Mof_H 	H 	0.4249	0.5437	0.0164	0.048
Mof_H 	H 	0.3557	0.3263	0.1348	0.055
Mof_H 	H 	0.163	0.2552	0.1984	0.103
Mof_H 	H 	0.0149	0.2701	0.2702	0.032
Mof_H 	H 	0.2144	0.58	0.2312	-0.004
Mof_H 	H 	0.3667	0.5733	0.161	0.085
Mof_H 	H 	0.3146	0.054	0.9598	0.092
Mof_H 	H 	0.3513	0.9647	0.0654	0.031
Mof_H 	H 	0.2224	0.7842	0.1582	0.042
Mof_H 	H 	0.0217	0.7753	0.027	0.073
Mof_H 	H 	0.191	0.143	0.702	0.341
Mof_H 	H 	0.747	0.8638	0.8486	-0.002
Mof_H 	H 	0.5828	0.6944	0.919	0.087
Mof_H 	H 	0.7551	0.5651	0.0066	0.085
Mof_H 	H 	0.9133	0.7365	0.9348	-0.02
Mof_H 	H 	0.5587	0.4399	0.0164	0.049
Mof_H 	H 	0.5095	0.5389	0.1348	0.048
Mof_H 	H 	0.6386	0.5464	0.1984	0.086
Mof_H 	H 	0.7149	0.4597	0.2702	-0.002
Mof_H 	H 	0.5544	0.1888	0.2312	0
Mof_H 	H 	0.4723	0.2657	0.161	0.09
Mof_H 	H 	0.7256	0.9862	0.9598	-0.001
Mof_H 	H 	0.5833	0.9699	0.0654	0.021
Mof_H 	H 	0.6194	0.0576	0.1582	0.049
Mof_H 	H 	0.9513	0.1977	0.027	0.024
Mof_H 	H 	0.905	0.357	0.202	0.332
Mof_H 	H 	0.0376	0.6544	0.3486	0.02
Mof_H 	H 	0.1366	0.7482	0.419	0.09
Mof_H 	H 	0.1783	0.4883	0.5066	0.095
Mof_H 	H 	0.0787	0.4019	0.4348	0.021
Mof_H 	H 	0.2937	0.6749	0.5164	0.053
Mof_H 	H 	0.0763	0.6057	0.6348	0.056
Mof_H 	H 	0.0052	0.413	0.6984	0.107
Mof_H 	H 	0.0201	0.2649	0.7702	0.023
Mof_H 	H 	0.33	0.4644	0.7312	-0.005
Mof_H 	H 	0.3233	0.6167	0.661	0.085
Mof_H 	H 	0.804	0.5646	0.4598	0.012
Mof_H 	H 	0.7147	0.6013	0.5654	0.058
Mof_H 	H 	0.5342	0.4724	0.6582	0.027
Mof_H 	H 	0.5253	0.2717	0.527	0.041
Mof_H 	H 	0.893	0.441	0.202	0.337
Mof_H 	H 	0.6138	0.997	0.3486	0.013
Mof_H 	H 	0.4444	0.8328	0.419	0.064
Mof_H 	H 	0.3151	0.0051	0.5066	0.08
Mof_H 	H 	0.4865	0.1633	0.4348	0.019
Mof_H 	H 	0.1899	0.8087	0.5164	0.04
Mof_H 	H 	0.2889	0.7595	0.6348	0.06
Mof_H 	H 	0.2964	0.8886	0.6984	0.1
Mof_H 	H 	0.2097	0.9649	0.7702	-0.013
Mof_H 	H 	0.9388	0.8044	0.7312	-0.113
Mof_H 	H 	0.0157	0.7223	0.661	0.141
Mof_H 	H 	0.7362	0.9756	0.4598	0.062
Mof_H 	H 	0.7199	0.8333	0.5654	0.02
Mof_H 	H 	0.8076	0.8694	0.6582	0.067
Mof_H 	H 	0.9477	0.2013	0.527	0.045
Mof_C 	C 	0.37007	0.31607	0.88146	0.099
Mof_C 	C 	0.4265	0.3745	0.9242	-0.161
Mof_C 	C 	0.37699	0.41499	0.97462	0.106
Mof_C 	C 	0.27357	0.39877	0.97566	-0.145
Mof_C 	C 	0.22266	0.34026	0.93188	0.088
Mof_C 	C 	0.42835	0.47415	0.0265	-0.067
Mof_C 	C 	0.37787	0.40547	0.12406	-0.07
Mof_C 	C 	0.28334	0.41214	0.17452	0.115
Mof_C 	C 	0.176	0.3224	0.2054	-0.159
Mof_C 	C 	0.0873	0.3329	0.2472	0.105
Mof_C 	C 	0.2034	0.513	0.2248	0.1
Mof_C 	C 	0.2953	0.5091	0.1834	-0.168
Mof_C 	C 	0.16216	0.92596	0.98568	-0.044
Mof_C 	C 	0.2612	0.9796	0.9964	-0.071
Mof_C 	C 	0.283	0.9264	0.0594	-0.037
Mof_C 	C 	0.2078	0.8186	0.1136	-0.005
Mof_C 	C 	0.10808	0.75968	0.10164	-0.086
Mof_C 	C 	0.08715	0.81435	0.0365	0.008
Mof_C 	C 	0.02605	0.63745	0.1585	0.426
Mof_C 	C 	0.13722	0.98742	0.91756	0.306
Mof_C 	C 	0.74847	0.80247	0.88146	0.099
Mof_C 	C 	0.6493	0.7013	0.9242	-0.17
Mof_C 	C 	0.64839	0.61039	0.97462	0.109
Mof_C 	C 	0.75077	0.62557	0.97566	-0.165
Mof_C 	C 	0.84546	0.72786	0.93188	0.086
Mof_C 	C 	0.54515	0.49935	0.0265	-0.073
Mof_C 	C 	0.49807	0.47047	0.12406	-0.066
Mof_C 	C 	0.54214	0.41334	0.17452	0.111
Mof_C 	C 	0.6186	0.4722	0.2054	-0.164
Mof_C 	C 	0.6655	0.4199	0.2472	0.098
Mof_C 	C 	0.5718	0.2622	0.2248	0.096
Mof_C 	C 	0.5213	0.3075	0.1834	-0.167
Mof_C 	C 	0.85216	0.08836	0.98568	-0.099
Mof_C 	C 	0.7424	0.024	0.9964	0.063
Mof_C 	C 	0.6576	0.0142	0.0594	-0.048
Mof_C 	C 	0.6786	0.0678	0.1136	0.002
Mof_C 	C 	0.79028	0.13868	0.10164	-0.093
Mof_C 	C 	0.87635	0.14915	0.0365	0.026
Mof_C 	C 	0.81545	0.20405	0.1585	0.345
Mof_C 	C 	0.94522	0.09502	0.91756	0.279
Mof_C 	C 	0.06607	0.62007	0.38146	0.105
Mof_C 	C 	0.1245	0.6765	0.4242	-0.162
Mof_C 	C 	0.16499	0.62699	0.47462	0.113
Mof_C 	C 	0.14877	0.52357	0.47566	-0.161
Mof_C 	C 	0.09026	0.47266	0.43188	0.097
Mof_C 	C 	0.22415	0.67835	0.5265	-0.081
Mof_C 	C 	0.15547	0.62787	0.62406	-0.055
Mof_C 	C 	0.16214	0.53334	0.67452	0.112
Mof_C 	C 	0.0724	0.426	0.7054	-0.157
Mof_C 	C 	0.0829	0.3373	0.7472	0.099
Mof_C 	C 	0.263	0.4534	0.7248	0.098
Mof_C 	C 	0.2591	0.5453	0.6834	-0.166
Mof_C 	C 	0.67596	0.41216	0.48568	-0.124
Mof_C 	C 	0.7296	0.5112	0.4964	0.046
Mof_C 	C 	0.6764	0.533	0.5594	-0.115
Mof_C 	C 	0.5686	0.4578	0.6136	0.036
Mof_C 	C 	0.50968	0.35808	0.60164	-0.106
Mof_C 	C 	0.56435	0.33715	0.5365	0.051
Mof_C 	C 	0.38745	0.27605	0.6585	0.348
Mof_C 	C 	0.73742	0.38722	0.41756	0.377
Mof_C 	C 	0.55247	0.99847	0.38146	0.031
Mof_C 	C 	0.4513	0.8993	0.4242	-0.112
Mof_C 	C 	0.36039	0.89839	0.47462	0.031
Mof_C 	C 	0.37557	0.00077	0.47566	-0.079
Mof_C 	C 	0.47786	0.09546	0.43188	0.06
Mof_C 	C 	0.24935	0.79515	0.5265	-0.031
Mof_C 	C 	0.22047	0.74807	0.62406	-0.103
Mof_C 	C 	0.16334	0.79214	0.67452	0.172
Mof_C 	C 	0.2222	0.8686	0.7054	-0.207
Mof_C 	C 	0.1699	0.9155	0.7472	0.125
Mof_C 	C 	0.0122	0.8218	0.7248	0.279
Mof_C 	C 	0.0575	0.7713	0.6834	-0.273
Mof_C 	C 	0.83836	0.10216	0.48568	-0.023
Mof_C 	C 	0.774	0.9924	0.4964	-0.093
Mof_C 	C 	0.7642	0.9076	0.5594	0.003
Mof_C 	C 	0.8178	0.9286	0.6136	-0.101
Mof_C 	C 	0.88868	0.04028	0.60164	-0.005
Mof_C 	C 	0.89915	0.12635	0.5365	-0.038
Mof_C 	C 	0.95405	0.06545	0.6585	0.268
Mof_C 	C 	0.84502	0.19522	0.41756	0.34
Mof_N 	N 	0.2705	0.29828	0.88442	-0.222
Mof_N 	N 	0.09953	0.42653	0.25614	-0.216
Mof_N 	N 	0.84508	0.8173	0.88442	-0.237
Mof_N 	N 	0.64433	0.31733	0.25614	-0.232
Mof_N 	N 	0.04828	0.5205	0.38442	-0.207
Mof_N 	N 	0.17653	0.34953	0.75614	-0.23
Mof_N 	N 	0.5673	0.09508	0.38442	-0.194
Mof_N 	N 	0.06733	0.89433	0.75614	-0.253
Mof_O 	O 	0.21419	0.08763	0.87138	-0.364
Mof_O 	O 	0.04638	0.9352	0.91082	-0.372
Mof_O 	O 	0.94695	0.58135	0.1401	-0.387
Mof_O 	O 	0.04496	0.60178	0.22266	-0.39
Mof_O 	O 	0.91443	0.04099	0.87138	-0.387
Mof_O 	O 	0.0428	0.15398	0.91082	-0.338
Mof_O 	O 	0.91295	0.27855	0.1401	-0.336
Mof_O 	O 	0.73238	0.17556	0.22266	-0.393
Mof_O 	O 	0.83763	0.46419	0.37138	-0.427
Mof_O 	O 	0.6852	0.29638	0.41082	-0.418
Mof_O 	O 	0.33135	0.19695	0.6401	-0.305
Mof_O 	O 	0.35178	0.29496	0.72266	-0.396
Mof_O 	O 	0.79099	0.16443	0.37138	-0.398
Mof_O 	O 	0.90398	0.2928	0.41082	-0.434
Mof_O 	O 	0.02855	0.16295	0.6401	-0.237
Mof_O 	O 	0.92556	0.98238	0.72266	-0.419
Mof_O 	O 	0.13042	0.13042	0.73916	-0.848
Mof_O 	O 	0.88042	0.38042	0.23916	-0.883
_end
