data_functionalizedCrystal
_audit_creation_method	'EQeq! by Chris Wilmer'
_symmetry_space_group_name_H-M	'P1'
_symmetry_Int_Tables_number	1
_symmetry_cell_setting	triclinic
loop_
_symmetry_equiv_pos_as_xyz
  x,y,z
_cell_length_a	36.417
_cell_length_b	9.831
_cell_length_c	10.995
_cell_angle_alpha	90
_cell_angle_beta	106.189
_cell_angle_gamma	90
loop_
_atom_site_label
_atom_site_type_symbol
_atom_site_fract_x
_atom_site_fract_y
_atom_site_fract_z
_atom_site_charge
Mof_Cd	Cd	0.21025	0.66823	0.3666	0.387
Mof_O 	O 	0.15334	0.6973	0.2034	-0.293
Mof_C 	C 	0.0206	0.5151	0.0356	0.049
Mof_C 	C 	0.13757	0.5943	0.235	0.34
Mof_C 	C 	0.0975	0.5622	0.1638	-0.113
Mof_C 	C 	0.0415	0.6119	0.9949	-0.11
Mof_H 	H 	0.0299	0.6625	0.923	0.068
Mof_C 	C 	0.0789	0.636	0.057	0.046
Mof_H 	H 	0.0921	0.7032	0.0272	0.03
Mof_C 	C 	0.0771	0.4667	0.2054	0.048
Mof_H 	H 	0.0886	0.4169	0.278	0.028
Mof_N 	N 	0.2362	0.5683	0.5555	-0.151
Mof_C 	C 	0.0394	0.4429	0.1407	-0.111
Mof_H 	H 	0.0263	0.3748	0.1697	0.066
Mof_C 	C 	0.22233	0.4654	0.6052	0.22
Mof_O 	O 	0.15402	0.5229	0.3235	-0.298
Mof_N 	N 	0.23355	0.4656	0.7322	-0.18
Mof_N 	N 	0.25814	0.6412	0.657	-0.131
Mof_C 	C 	0.25539	0.579	0.7581	0.1
Mof_H 	H 	0.2672	0.6091	0.8398	-0.004
Mof_N 	N 	0.2	0.3652	0.5361	-0.341
Mof_H 	H 	0.1942	0.367	0.4547	0.179
Mof_H 	H 	0.1917	0.3004	0.5739	0.179
Mof_Cd	Cd	0.71025	0.16823	0.3666	0.386
Mof_O 	O 	0.65334	0.1973	0.2034	-0.294
Mof_C 	C 	0.5206	0.0151	0.0356	0.049
Mof_C 	C 	0.63757	0.0943	0.235	0.339
Mof_C 	C 	0.5975	0.0622	0.1638	-0.114
Mof_C 	C 	0.5415	0.1119	0.9949	-0.112
Mof_H 	H 	0.5299	0.1625	0.923	0.067
Mof_C 	C 	0.5789	0.136	0.057	0.046
Mof_H 	H 	0.5921	0.2032	0.0272	0.029
Mof_C 	C 	0.5771	0.9667	0.2054	0.047
Mof_H 	H 	0.5886	0.9169	0.278	0.028
Mof_N 	N 	0.7362	0.0683	0.5555	-0.151
Mof_C 	C 	0.5394	0.9429	0.1407	-0.111
Mof_H 	H 	0.5263	0.8748	0.1697	0.066
Mof_C 	C 	0.72233	0.9654	0.6052	0.22
Mof_O 	O 	0.65402	0.0229	0.3235	-0.298
Mof_N 	N 	0.73355	0.9656	0.7322	-0.18
Mof_N 	N 	0.75814	0.1412	0.657	-0.131
Mof_C 	C 	0.75539	0.079	0.7581	0.1
Mof_H 	H 	0.7672	0.1091	0.8398	-0.004
Mof_N 	N 	0.7	0.8652	0.5361	-0.341
Mof_H 	H 	0.6942	0.867	0.4547	0.179
Mof_H 	H 	0.6917	0.8004	0.5739	0.179
Mof_Cd	Cd	0.78975	0.66823	0.1334	0.386
Mof_O 	O 	0.84666	0.6973	0.2966	-0.294
Mof_C 	C 	0.9794	0.5151	0.4644	0.048
Mof_C 	C 	0.86243	0.5943	0.265	0.339
Mof_C 	C 	0.9025	0.5622	0.3362	-0.114
Mof_C 	C 	0.9585	0.6119	0.5051	-0.112
Mof_H 	H 	0.9701	0.6625	0.577	0.067
Mof_C 	C 	0.9211	0.636	0.443	0.046
Mof_H 	H 	0.9079	0.7032	0.4728	0.029
Mof_C 	C 	0.9229	0.4667	0.2946	0.047
Mof_H 	H 	0.9114	0.4169	0.222	0.028
Mof_N 	N 	0.7638	0.5683	0.9445	-0.15
Mof_C 	C 	0.9606	0.4429	0.3593	-0.111
Mof_H 	H 	0.9737	0.3748	0.3303	0.066
Mof_C 	C 	0.77767	0.4654	0.8948	0.22
Mof_O 	O 	0.84598	0.5229	0.1765	-0.298
Mof_N 	N 	0.76645	0.4656	0.7678	-0.18
Mof_N 	N 	0.74186	0.6412	0.843	-0.131
Mof_C 	C 	0.74461	0.579	0.7419	0.1
Mof_H 	H 	0.7328	0.6091	0.6602	-0.004
Mof_N 	N 	0.8	0.3652	0.9639	-0.341
Mof_H 	H 	0.8058	0.367	0.0453	0.179
Mof_H 	H 	0.8083	0.3004	0.9261	0.179
Mof_Cd	Cd	0.28975	0.16823	0.1334	0.387
Mof_O 	O 	0.34666	0.1973	0.2966	-0.294
Mof_C 	C 	0.4794	0.0151	0.4644	0.048
Mof_C 	C 	0.36243	0.0943	0.265	0.339
Mof_C 	C 	0.4025	0.0622	0.3362	-0.114
Mof_C 	C 	0.4585	0.1119	0.5051	-0.111
Mof_H 	H 	0.4701	0.1625	0.577	0.067
Mof_C 	C 	0.4211	0.136	0.443	0.045
Mof_H 	H 	0.4079	0.2032	0.4728	0.029
Mof_C 	C 	0.4229	0.9667	0.2946	0.047
Mof_H 	H 	0.4114	0.9169	0.222	0.028
Mof_N 	N 	0.2638	0.0683	0.9445	-0.151
Mof_C 	C 	0.4606	0.9429	0.3593	-0.111
Mof_H 	H 	0.4737	0.8748	0.3303	0.066
Mof_C 	C 	0.27767	0.9654	0.8948	0.22
Mof_O 	O 	0.34598	0.0229	0.1765	-0.298
Mof_N 	N 	0.26645	0.9656	0.7678	-0.18
Mof_N 	N 	0.24186	0.1412	0.843	-0.131
Mof_C 	C 	0.24461	0.079	0.7419	0.1
Mof_H 	H 	0.2328	0.1091	0.6602	-0.004
Mof_N 	N 	0.3	0.8652	0.9639	-0.341
Mof_H 	H 	0.3058	0.867	0.0453	0.179
Mof_H 	H 	0.3083	0.8004	0.9261	0.179
Mof_Cd	Cd	0.78975	0.33177	0.6334	0.386
Mof_O 	O 	0.84666	0.3027	0.7966	-0.294
Mof_C 	C 	0.9794	0.4849	0.9644	0.048
Mof_C 	C 	0.86243	0.4057	0.765	0.339
Mof_C 	C 	0.9025	0.4378	0.8362	-0.114
Mof_C 	C 	0.9585	0.3881	0.0051	-0.111
Mof_H 	H 	0.9701	0.3375	0.077	0.067
Mof_C 	C 	0.9211	0.364	0.943	0.045
Mof_H 	H 	0.9079	0.2968	0.9728	0.029
Mof_C 	C 	0.9229	0.5333	0.7946	0.047
Mof_H 	H 	0.9114	0.5831	0.722	0.028
Mof_N 	N 	0.7638	0.4317	0.4445	-0.151
Mof_C 	C 	0.9606	0.5571	0.8593	-0.111
Mof_H 	H 	0.9737	0.6252	0.8303	0.066
Mof_C 	C 	0.77767	0.5346	0.3948	0.22
Mof_O 	O 	0.84598	0.4771	0.6765	-0.298
Mof_N 	N 	0.76645	0.5344	0.2678	-0.18
Mof_N 	N 	0.74186	0.3588	0.343	-0.131
Mof_C 	C 	0.74461	0.421	0.2419	0.1
Mof_H 	H 	0.7328	0.3909	0.1602	-0.004
Mof_N 	N 	0.8	0.6348	0.4639	-0.341
Mof_H 	H 	0.8058	0.633	0.5453	0.179
Mof_H 	H 	0.8083	0.6996	0.4261	0.179
Mof_Cd	Cd	0.28975	0.83177	0.6334	0.386
Mof_O 	O 	0.34666	0.8027	0.7966	-0.294
Mof_C 	C 	0.4794	0.9849	0.9644	0.049
Mof_C 	C 	0.36243	0.9057	0.765	0.339
Mof_C 	C 	0.4025	0.9378	0.8362	-0.114
Mof_C 	C 	0.4585	0.8881	0.0051	-0.112
Mof_H 	H 	0.4701	0.8375	0.077	0.067
Mof_C 	C 	0.4211	0.864	0.943	0.046
Mof_H 	H 	0.4079	0.7968	0.9728	0.029
Mof_C 	C 	0.4229	0.0333	0.7946	0.047
Mof_H 	H 	0.4114	0.0831	0.722	0.028
Mof_N 	N 	0.2638	0.9317	0.4445	-0.151
Mof_C 	C 	0.4606	0.0571	0.8593	-0.111
Mof_H 	H 	0.4737	0.1252	0.8303	0.066
Mof_C 	C 	0.27767	0.0346	0.3948	0.22
Mof_O 	O 	0.34598	0.9771	0.6765	-0.298
Mof_N 	N 	0.26645	0.0344	0.2678	-0.18
Mof_N 	N 	0.24186	0.8588	0.343	-0.131
Mof_C 	C 	0.24461	0.921	0.2419	0.1
Mof_H 	H 	0.2328	0.8909	0.1602	-0.004
Mof_N 	N 	0.3	0.1348	0.4639	-0.341
Mof_H 	H 	0.3058	0.133	0.5453	0.179
Mof_H 	H 	0.3083	0.1996	0.4261	0.179
Mof_Cd	Cd	0.21025	0.33177	0.8666	0.386
Mof_O 	O 	0.15334	0.3027	0.7034	-0.294
Mof_C 	C 	0.0206	0.4849	0.5356	0.048
Mof_C 	C 	0.13757	0.4057	0.735	0.339
Mof_C 	C 	0.0975	0.4378	0.6638	-0.114
Mof_C 	C 	0.0415	0.3881	0.4949	-0.112
Mof_H 	H 	0.0299	0.3375	0.423	0.067
Mof_C 	C 	0.0789	0.364	0.557	0.046
Mof_H 	H 	0.0921	0.2968	0.5272	0.029
Mof_C 	C 	0.0771	0.5333	0.7054	0.047
Mof_H 	H 	0.0886	0.5831	0.778	0.028
Mof_N 	N 	0.2362	0.4317	0.0555	-0.15
Mof_C 	C 	0.0394	0.5571	0.6407	-0.111
Mof_H 	H 	0.0263	0.6252	0.6697	0.066
Mof_C 	C 	0.22233	0.5346	0.1052	0.22
Mof_O 	O 	0.15402	0.4771	0.8235	-0.298
Mof_N 	N 	0.23355	0.5344	0.2322	-0.18
Mof_N 	N 	0.25814	0.3588	0.157	-0.131
Mof_C 	C 	0.25539	0.421	0.2581	0.1
Mof_H 	H 	0.2672	0.3909	0.3398	-0.004
Mof_N 	N 	0.2	0.6348	0.0361	-0.341
Mof_H 	H 	0.1942	0.633	0.9547	0.179
Mof_H 	H 	0.1917	0.6996	0.0739	0.179
Mof_Cd	Cd	0.71025	0.83177	0.8666	0.387
Mof_O 	O 	0.65334	0.8027	0.7034	-0.294
Mof_C 	C 	0.5206	0.9849	0.5356	0.048
Mof_C 	C 	0.63757	0.9057	0.735	0.339
Mof_C 	C 	0.5975	0.9378	0.6638	-0.114
Mof_C 	C 	0.5415	0.8881	0.4949	-0.111
Mof_H 	H 	0.5299	0.8375	0.423	0.067
Mof_C 	C 	0.5789	0.864	0.557	0.045
Mof_H 	H 	0.5921	0.7968	0.5272	0.029
Mof_C 	C 	0.5771	0.0333	0.7054	0.047
Mof_H 	H 	0.5886	0.0831	0.778	0.028
Mof_N 	N 	0.7362	0.9317	0.0555	-0.151
Mof_C 	C 	0.5394	0.0571	0.6407	-0.111
Mof_H 	H 	0.5263	0.1252	0.6697	0.066
Mof_C 	C 	0.72233	0.0346	0.1052	0.22
Mof_O 	O 	0.65402	0.9771	0.8235	-0.298
Mof_N 	N 	0.73355	0.0344	0.2322	-0.18
Mof_N 	N 	0.75814	0.8588	0.157	-0.131
Mof_C 	C 	0.75539	0.921	0.2581	0.1
Mof_H 	H 	0.7672	0.8909	0.3398	-0.004
Mof_N 	N 	0.7	0.1348	0.0361	-0.341
Mof_H 	H 	0.6942	0.133	0.9547	0.179
Mof_H 	H 	0.6917	0.1996	0.0739	0.179
_end
