data_functionalizedCrystal
_audit_creation_method	'EQeq! by Chris Wilmer'
_symmetry_space_group_name_H-M	'P1'
_symmetry_Int_Tables_number	1
_symmetry_cell_setting	triclinic
loop_
_symmetry_equiv_pos_as_xyz
  x,y,z
_cell_length_a	13.4334
_cell_length_b	13.4334
_cell_length_c	26.677
_cell_angle_alpha	87.0573
_cell_angle_beta	87.0573
_cell_angle_gamma	81.581
loop_
_atom_site_label
_atom_site_type_symbol
_atom_site_fract_x
_atom_site_fract_y
_atom_site_fract_z
_atom_site_charge
Mof_Fe	Fe	0.29232	0.29704	0.55196	1.029
Mof_Fe	Fe	0.70296	0.70768	0.94804	1.029
Mof_Ag	Ag	0.85251	0.85779	0.61926	0.641
Mof_Ag	Ag	0.43167	0.47425	0.23009	0.483
Mof_Ag	Ag	0.14221	0.14749	0.88074	0.641
Mof_Ag	Ag	0.52575	0.56833	0.26991	0.483
Mof_H 	H 	0.9404	0.6198	0.6477	0.001
Mof_H 	H 	0.287	0.477	0.6763	0.14
Mof_H 	H 	0.3151	0.7945	0.6391	0.031
Mof_H 	H 	0.5889	0.1675	0.575	0.084
Mof_H 	H 	0.9211	0.7573	0.5168	0.015
Mof_H 	H 	0.7467	0.0865	0.5834	0.023
Mof_H 	H 	0.6581	0.8287	0.5651	0.016
Mof_H 	H 	0.4955	0.9057	0.5555	0.071
Mof_H 	H 	0.2826	0.6304	0.6585	0.071
Mof_H 	H 	0.2911	0.1499	0.699	0.079
Mof_H 	H 	0.1939	0.4291	0.7446	0.067
Mof_H 	H 	0.9067	0.7475	0.7217	-0.008
Mof_H 	H 	0.6426	0.8546	0.6799	-0.002
Mof_H 	H 	0.0525	0.1583	0.5844	0.095
Mof_H 	H 	0.2215	0.8983	0.5511	0.071
Mof_H 	H 	0.9246	0.0706	0.6116	0.02
Mof_H 	H 	0.0855	0.8173	0.5759	0.009
Mof_H 	H 	0.4301	0.5509	0.5286	0.076
Mof_H 	H 	0.3483	0.9837	0.5772	0.138
Mof_H 	H 	0.0451	0.6433	0.4834	0.092
Mof_H 	H 	0.1834	0.5568	0.4666	0.158
Mof_H 	H 	0.4552	0.7164	0.5136	0.04
Mof_H 	H 	0.0579	0.4941	0.6167	0.087
Mof_H 	H 	0.4718	0.3416	0.326	0.01
Mof_H 	H 	0.1731	0.5361	0.3716	0.101
Mof_H 	H 	0.2286	0.5352	0.289	0.001
Mof_H 	H 	0.4159	0.3465	0.4083	0.088
Mof_H 	H 	0.3802	0.0596	0.8523	-0
Mof_H 	H 	0.523	0.713	0.8237	0.139
Mof_H 	H 	0.2055	0.6849	0.8609	0.03
Mof_H 	H 	0.8325	0.4111	0.925	0.083
Mof_H 	H 	0.2427	0.0789	0.9832	0.014
Mof_H 	H 	0.9135	0.2533	0.9166	0.022
Mof_H 	H 	0.1713	0.3419	0.9349	0.016
Mof_H 	H 	0.0943	0.5045	0.9445	0.071
Mof_H 	H 	0.3696	0.7174	0.8415	0.071
Mof_H 	H 	0.8501	0.7089	0.801	0.079
Mof_H 	H 	0.5709	0.8061	0.7554	0.067
Mof_H 	H 	0.2525	0.0933	0.7783	-0.008
Mof_H 	H 	0.1454	0.3574	0.8201	-0.002
Mof_H 	H 	0.8417	0.9475	0.9156	0.095
Mof_H 	H 	0.1017	0.7785	0.9489	0.071
Mof_H 	H 	0.9294	0.0754	0.8884	0.02
Mof_H 	H 	0.1827	0.9145	0.9241	0.009
Mof_H 	H 	0.4491	0.5699	0.9714	0.076
Mof_H 	H 	0.0163	0.6517	0.9228	0.138
Mof_H 	H 	0.3567	0.9549	0.0166	0.092
Mof_H 	H 	0.4432	0.8166	0.0334	0.158
Mof_H 	H 	0.2836	0.5448	0.9864	0.04
Mof_H 	H 	0.5059	0.9421	0.8833	0.087
Mof_H 	H 	0.6584	0.5282	0.174	0.01
Mof_H 	H 	0.4639	0.8269	0.1284	0.101
Mof_H 	H 	0.4648	0.7714	0.211	0.001
Mof_H 	H 	0.6535	0.5841	0.0917	0.088
Mof_C 	C 	0.5236	0.0468	0.5643	-0.011
Mof_C 	C 	0.1497	0.4761	0.5279	0.265
Mof_C 	C 	0.0676	0.5562	0.5467	0.002
Mof_C 	C 	0.1532	0.0374	0.5715	-0.014
Mof_C 	C 	0.42	0.1006	0.5583	0.248
Mof_C 	C 	0.2371	0.0943	0.5597	0.257
Mof_C 	C 	0.9609	0.6237	0.6139	0.069
Mof_C 	C 	0.299	0.432	0.6506	-0.337
Mof_C 	C 	0.3395	0.4635	0.6051	0.264
Mof_C 	C 	0.3372	0.745	0.6163	0.046
Mof_C 	C 	0.6011	0.0979	0.5728	-0.088
Mof_C 	C 	0.2453	0.2971	0.7106	-0.017
Mof_C 	C 	0.2754	0.3346	0.6594	0.26
Mof_C 	C 	0.9508	0.7048	0.5376	0.077
Mof_C 	C 	0.6957	0.0487	0.5782	0.057
Mof_C 	C 	0.6439	0.8981	0.5674	0.056
Mof_C 	C 	0.5457	0.9439	0.5614	-0.092
Mof_C 	C 	0.3183	0.6457	0.629	-0.08
Mof_C 	C 	0.262	0.1952	0.7227	-0.098
Mof_C 	C 	0.2029	0.3593	0.7496	-0.101
Mof_C 	C 	0.8383	0.7647	0.7298	0.075
Mof_C 	C 	0.6845	0.8251	0.7049	0.073
Mof_C 	C 	0.0627	0.0883	0.5849	-0.087
Mof_C 	C 	0.1625	0.9339	0.5647	-0.092
Mof_C 	C 	0.9849	0.0347	0.5996	0.062
Mof_C 	C 	0.0796	0.8866	0.5791	0.057
Mof_C 	C 	0.4057	0.5991	0.5518	-0.069
Mof_C 	C 	0.3368	0.0512	0.5664	-0.304
Mof_C 	C 	0.0244	0.6362	0.517	-0.107
Mof_C 	C 	0.1993	0.4943	0.4831	-0.313
Mof_C 	C 	0.4196	0.6994	0.5428	0.04
Mof_C 	C 	0.3552	0.5728	0.5958	-0.02
Mof_C 	C 	0.033	0.5488	0.5958	-0.1
Mof_C 	C 	0.2738	0.4224	0.4604	0.249
Mof_C 	C 	0.4116	0.382	0.3347	0.085
Mof_C 	C 	0.2894	0.4404	0.3981	0.032
Mof_C 	C 	0.2336	0.4972	0.3623	-0.117
Mof_C 	C 	0.2672	0.4964	0.3128	0.071
Mof_C 	C 	0.3776	0.3842	0.384	-0.116
Mof_C 	C 	0.9532	0.4764	0.9357	-0.011
Mof_C 	C 	0.5239	0.8503	0.9721	0.264
Mof_C 	C 	0.4438	0.9324	0.9533	0.002
Mof_C 	C 	0.9626	0.8468	0.9285	-0.014
Mof_C 	C 	0.8994	0.58	0.9417	0.248
Mof_C 	C 	0.9057	0.7629	0.9403	0.257
Mof_C 	C 	0.3763	0.0391	0.8861	0.069
Mof_C 	C 	0.568	0.701	0.8494	-0.337
Mof_C 	C 	0.5365	0.6605	0.8949	0.264
Mof_C 	C 	0.255	0.6628	0.8837	0.046
Mof_C 	C 	0.9021	0.3989	0.9272	-0.088
Mof_C 	C 	0.7029	0.7547	0.7894	-0.017
Mof_C 	C 	0.6654	0.7246	0.8406	0.26
Mof_C 	C 	0.2952	0.0492	0.9624	0.077
Mof_C 	C 	0.9513	0.3043	0.9218	0.057
Mof_C 	C 	0.1019	0.3561	0.9326	0.056
Mof_C 	C 	0.0561	0.4543	0.9386	-0.092
Mof_C 	C 	0.3543	0.6817	0.871	-0.08
Mof_C 	C 	0.8048	0.738	0.7773	-0.098
Mof_C 	C 	0.6407	0.7971	0.7504	-0.101
Mof_C 	C 	0.2353	0.1617	0.7702	0.075
Mof_C 	C 	0.1749	0.3155	0.7951	0.073
Mof_C 	C 	0.9117	0.9373	0.9151	-0.087
Mof_C 	C 	0.0661	0.8375	0.9353	-0.093
Mof_C 	C 	0.9653	0.0151	0.9004	0.062
Mof_C 	C 	0.1134	0.9204	0.9209	0.057
Mof_C 	C 	0.4009	0.5943	0.9482	-0.069
Mof_C 	C 	0.9488	0.6632	0.9336	-0.304
Mof_C 	C 	0.3638	0.9756	0.983	-0.108
Mof_C 	C 	0.5057	0.8007	0.0169	-0.313
Mof_C 	C 	0.3006	0.5804	0.9572	0.04
Mof_C 	C 	0.4272	0.6448	0.9042	-0.02
Mof_C 	C 	0.4512	0.967	0.9042	-0.101
Mof_C 	C 	0.5776	0.7262	0.0396	0.249
Mof_C 	C 	0.618	0.5884	0.1653	0.085
Mof_C 	C 	0.5596	0.7106	0.1019	0.032
Mof_C 	C 	0.5028	0.7664	0.1377	-0.117
Mof_C 	C 	0.5036	0.7328	0.1872	0.071
Mof_C 	C 	0.6158	0.6224	0.116	-0.116
Mof_N 	N 	0.7826	0.8122	0.6949	-0.197
Mof_N 	N 	0.9902	0.9354	0.5977	-0.187
Mof_N 	N 	0.3844	0.7718	0.5739	-0.126
Mof_N 	N 	0.9189	0.7011	0.5854	-0.184
Mof_N 	N 	0.7199	0.9489	0.5765	-0.181
Mof_N 	N 	0.3577	0.4389	0.2974	-0.192
Mof_N 	N 	0.4845	0.5523	0.1656	-0.162
Mof_N 	N 	0.1878	0.2174	0.8051	-0.197
Mof_N 	N 	0.0646	0.0098	0.9023	-0.187
Mof_N 	N 	0.2282	0.6156	0.9261	-0.126
Mof_N 	N 	0.2989	0.0811	0.9146	-0.184
Mof_N 	N 	0.0511	0.2801	0.9235	-0.181
Mof_N 	N 	0.5611	0.6423	0.2026	-0.192
Mof_N 	N 	0.4477	0.5155	0.3344	-0.162
Mof_N 	N 	0.6586	0.3414	0.25	0.06
Mof_O 	O 	0.3659	0.4089	0.5677	-0.349
Mof_O 	O 	0.4158	0.1958	0.5464	-0.339
Mof_O 	O 	0.2135	0.1867	0.5451	-0.347
Mof_O 	O 	0.1642	0.3958	0.5548	-0.338
Mof_O 	O 	0.2807	0.2701	0.6262	-0.344
Mof_O 	O 	0.3041	0.3367	0.4803	-0.356
Mof_O 	O 	0.679	0.4274	0.2512	-0.201
Mof_O 	O 	0.5911	0.6341	0.9323	-0.349
Mof_O 	O 	0.8042	0.5842	0.9536	-0.339
Mof_O 	O 	0.8133	0.7865	0.9549	-0.347
Mof_O 	O 	0.6042	0.8358	0.9452	-0.338
Mof_O 	O 	0.7299	0.7193	0.8738	-0.344
Mof_O 	O 	0.6633	0.6959	0.0197	-0.356
Mof_O 	O 	0.5726	0.321	0.2488	-0.201
Mof_O 	O 	0.7291	0.2709	0.25	-0.136
Mof_Fe	Fe	0.70768	0.70296	0.44804	1.028
Mof_Fe	Fe	0.29704	0.29232	0.05196	1.028
Mof_Ag	Ag	0.14749	0.14221	0.38074	0.64
Mof_Ag	Ag	0.56833	0.52575	0.76991	0.482
Mof_Ag	Ag	0.85779	0.85251	0.11926	0.64
Mof_Ag	Ag	0.47425	0.43167	0.73009	0.482
Mof_H 	H 	0.0596	0.3802	0.3523	0
Mof_H 	H 	0.713	0.523	0.3237	0.139
Mof_H 	H 	0.6849	0.2055	0.3609	0.03
Mof_H 	H 	0.4111	0.8325	0.425	0.083
Mof_H 	H 	0.0789	0.2427	0.4832	0.014
Mof_H 	H 	0.2533	0.9135	0.4166	0.022
Mof_H 	H 	0.3419	0.1713	0.4349	0.016
Mof_H 	H 	0.5045	0.0943	0.4445	0.071
Mof_H 	H 	0.7174	0.3696	0.3415	0.071
Mof_H 	H 	0.7089	0.8501	0.301	0.079
Mof_H 	H 	0.8061	0.5709	0.2554	0.067
Mof_H 	H 	0.0933	0.2525	0.2783	-0.008
Mof_H 	H 	0.3574	0.1454	0.3201	-0.002
Mof_H 	H 	0.9475	0.8417	0.4156	0.095
Mof_H 	H 	0.7785	0.1017	0.4489	0.071
Mof_H 	H 	0.0754	0.9294	0.3884	0.02
Mof_H 	H 	0.9145	0.1827	0.4241	0.009
Mof_H 	H 	0.5699	0.4491	0.4714	0.076
Mof_H 	H 	0.6517	0.0163	0.4228	0.138
Mof_H 	H 	0.9549	0.3567	0.5166	0.092
Mof_H 	H 	0.8166	0.4432	0.5334	0.158
Mof_H 	H 	0.5448	0.2836	0.4864	0.04
Mof_H 	H 	0.9421	0.5059	0.3833	0.087
Mof_H 	H 	0.5282	0.6584	0.674	0.01
Mof_H 	H 	0.8269	0.4639	0.6284	0.101
Mof_H 	H 	0.7714	0.4648	0.711	0.001
Mof_H 	H 	0.5841	0.6535	0.5917	0.088
Mof_H 	H 	0.6198	0.9404	0.1477	-0
Mof_H 	H 	0.477	0.287	0.1763	0.139
Mof_H 	H 	0.7945	0.3151	0.1391	0.03
Mof_H 	H 	0.1675	0.5889	0.075	0.083
Mof_H 	H 	0.7573	0.9211	0.0168	0.014
Mof_H 	H 	0.0865	0.7467	0.0834	0.022
Mof_H 	H 	0.8287	0.6581	0.0651	0.016
Mof_H 	H 	0.9057	0.4955	0.0555	0.071
Mof_H 	H 	0.6304	0.2826	0.1585	0.071
Mof_H 	H 	0.1499	0.2911	0.199	0.079
Mof_H 	H 	0.4291	0.1939	0.2446	0.067
Mof_H 	H 	0.7475	0.9067	0.2217	-0.008
Mof_H 	H 	0.8546	0.6426	0.1799	-0.002
Mof_H 	H 	0.1583	0.0525	0.0844	0.095
Mof_H 	H 	0.8983	0.2215	0.0511	0.071
Mof_H 	H 	0.0706	0.9246	0.1116	0.02
Mof_H 	H 	0.8173	0.0855	0.0759	0.009
Mof_H 	H 	0.5509	0.4301	0.0286	0.076
Mof_H 	H 	0.9837	0.3483	0.0772	0.138
Mof_H 	H 	0.6433	0.0451	0.9834	0.092
Mof_H 	H 	0.5568	0.1834	0.9666	0.158
Mof_H 	H 	0.7164	0.4552	0.0136	0.04
Mof_H 	H 	0.4941	0.0579	0.1167	0.087
Mof_H 	H 	0.3416	0.4718	0.826	0.01
Mof_H 	H 	0.5361	0.1731	0.8716	0.101
Mof_H 	H 	0.5352	0.2286	0.789	0.001
Mof_H 	H 	0.3465	0.4159	0.9083	0.088
Mof_C 	C 	0.4764	0.9532	0.4357	-0.011
Mof_C 	C 	0.8503	0.5239	0.4721	0.265
Mof_C 	C 	0.9324	0.4438	0.4533	0.002
Mof_C 	C 	0.8468	0.9626	0.4285	-0.014
Mof_C 	C 	0.58	0.8994	0.4417	0.248
Mof_C 	C 	0.7629	0.9057	0.4403	0.257
Mof_C 	C 	0.0391	0.3763	0.3861	0.069
Mof_C 	C 	0.701	0.568	0.3494	-0.337
Mof_C 	C 	0.6605	0.5365	0.3949	0.264
Mof_C 	C 	0.6628	0.255	0.3837	0.046
Mof_C 	C 	0.3989	0.9021	0.4272	-0.088
Mof_C 	C 	0.7547	0.7029	0.2894	-0.017
Mof_C 	C 	0.7246	0.6654	0.3406	0.26
Mof_C 	C 	0.0492	0.2952	0.4624	0.077
Mof_C 	C 	0.3043	0.9513	0.4218	0.057
Mof_C 	C 	0.3561	0.1019	0.4326	0.056
Mof_C 	C 	0.4543	0.0561	0.4386	-0.092
Mof_C 	C 	0.6817	0.3543	0.371	-0.08
Mof_C 	C 	0.738	0.8048	0.2773	-0.098
Mof_C 	C 	0.7971	0.6407	0.2504	-0.101
Mof_C 	C 	0.1617	0.2353	0.2702	0.075
Mof_C 	C 	0.3155	0.1749	0.2951	0.073
Mof_C 	C 	0.9373	0.9117	0.4151	-0.087
Mof_C 	C 	0.8375	0.0661	0.4353	-0.092
Mof_C 	C 	0.0151	0.9653	0.4004	0.062
Mof_C 	C 	0.9204	0.1134	0.4209	0.057
Mof_C 	C 	0.5943	0.4009	0.4482	-0.069
Mof_C 	C 	0.6632	0.9488	0.4336	-0.304
Mof_C 	C 	0.9756	0.3638	0.483	-0.107
Mof_C 	C 	0.8007	0.5057	0.5169	-0.313
Mof_C 	C 	0.5804	0.3006	0.4572	0.04
Mof_C 	C 	0.6448	0.4272	0.4042	-0.02
Mof_C 	C 	0.967	0.4512	0.4042	-0.1
Mof_C 	C 	0.7262	0.5776	0.5396	0.249
Mof_C 	C 	0.5884	0.618	0.6653	0.085
Mof_C 	C 	0.7106	0.5596	0.6019	0.032
Mof_C 	C 	0.7664	0.5028	0.6377	-0.117
Mof_C 	C 	0.7328	0.5036	0.6872	0.071
Mof_C 	C 	0.6224	0.6158	0.616	-0.116
Mof_C 	C 	0.0468	0.5236	0.0643	-0.011
Mof_C 	C 	0.4761	0.1497	0.0279	0.264
Mof_C 	C 	0.5562	0.0676	0.0467	0.002
Mof_C 	C 	0.0374	0.1532	0.0715	-0.014
Mof_C 	C 	0.1006	0.42	0.0583	0.248
Mof_C 	C 	0.0943	0.2371	0.0597	0.257
Mof_C 	C 	0.6237	0.9609	0.1139	0.069
Mof_C 	C 	0.432	0.299	0.1506	-0.337
Mof_C 	C 	0.4635	0.3395	0.1051	0.264
Mof_C 	C 	0.745	0.3372	0.1163	0.046
Mof_C 	C 	0.0979	0.6011	0.0728	-0.088
Mof_C 	C 	0.2971	0.2453	0.2106	-0.017
Mof_C 	C 	0.3346	0.2754	0.1594	0.26
Mof_C 	C 	0.7048	0.9508	0.0376	0.077
Mof_C 	C 	0.0487	0.6957	0.0782	0.057
Mof_C 	C 	0.8981	0.6439	0.0674	0.056
Mof_C 	C 	0.9439	0.5457	0.0614	-0.092
Mof_C 	C 	0.6457	0.3183	0.129	-0.08
Mof_C 	C 	0.1952	0.262	0.2227	-0.098
Mof_C 	C 	0.3593	0.2029	0.2496	-0.101
Mof_C 	C 	0.7647	0.8383	0.2298	0.075
Mof_C 	C 	0.8251	0.6845	0.2049	0.073
Mof_C 	C 	0.0883	0.0627	0.0849	-0.087
Mof_C 	C 	0.9339	0.1625	0.0647	-0.093
Mof_C 	C 	0.0347	0.9849	0.0996	0.062
Mof_C 	C 	0.8866	0.0796	0.0791	0.057
Mof_C 	C 	0.5991	0.4057	0.0518	-0.069
Mof_C 	C 	0.0512	0.3368	0.0664	-0.304
Mof_C 	C 	0.6362	0.0244	0.017	-0.108
Mof_C 	C 	0.4943	0.1993	0.9831	-0.313
Mof_C 	C 	0.6994	0.4196	0.0428	0.04
Mof_C 	C 	0.5728	0.3552	0.0958	-0.02
Mof_C 	C 	0.5488	0.033	0.0958	-0.101
Mof_C 	C 	0.4224	0.2738	0.9604	0.249
Mof_C 	C 	0.382	0.4116	0.8347	0.085
Mof_C 	C 	0.4404	0.2894	0.8981	0.032
Mof_C 	C 	0.4972	0.2336	0.8623	-0.117
Mof_C 	C 	0.4964	0.2672	0.8128	0.071
Mof_C 	C 	0.3842	0.3776	0.884	-0.116
Mof_N 	N 	0.2174	0.1878	0.3051	-0.197
Mof_N 	N 	0.0098	0.0646	0.4023	-0.187
Mof_N 	N 	0.6156	0.2282	0.4261	-0.126
Mof_N 	N 	0.0811	0.2989	0.4146	-0.184
Mof_N 	N 	0.2801	0.0511	0.4235	-0.181
Mof_N 	N 	0.6423	0.5611	0.7026	-0.192
Mof_N 	N 	0.5155	0.4477	0.8344	-0.162
Mof_N 	N 	0.8122	0.7826	0.1949	-0.197
Mof_N 	N 	0.9354	0.9902	0.0977	-0.187
Mof_N 	N 	0.7718	0.3844	0.0739	-0.126
Mof_N 	N 	0.7011	0.9189	0.0854	-0.184
Mof_N 	N 	0.9489	0.7199	0.0765	-0.181
Mof_N 	N 	0.4389	0.3577	0.7974	-0.192
Mof_N 	N 	0.5523	0.4845	0.6656	-0.162
Mof_N 	N 	0.3414	0.6586	0.75	0.06
Mof_O 	O 	0.6341	0.5911	0.4323	-0.349
Mof_O 	O 	0.5842	0.8042	0.4536	-0.339
Mof_O 	O 	0.7865	0.8133	0.4549	-0.347
Mof_O 	O 	0.8358	0.6042	0.4452	-0.338
Mof_O 	O 	0.7193	0.7299	0.3738	-0.344
Mof_O 	O 	0.6959	0.6633	0.5197	-0.356
Mof_O 	O 	0.321	0.5726	0.7488	-0.201
Mof_O 	O 	0.4089	0.3659	0.0677	-0.349
Mof_O 	O 	0.1958	0.4158	0.0464	-0.339
Mof_O 	O 	0.1867	0.2135	0.0451	-0.347
Mof_O 	O 	0.3958	0.1642	0.0548	-0.338
Mof_O 	O 	0.2701	0.2807	0.1262	-0.344
Mof_O 	O 	0.3367	0.3041	0.9803	-0.356
Mof_O 	O 	0.4274	0.679	0.7512	-0.201
Mof_O 	O 	0.2709	0.7291	0.75	-0.136
Mof_N 	N 	0.1437	0.7283	0.3895	0.054
Mof_O 	O 	0.1863	0.7495	0.426	-0.14
Mof_O 	O 	0.087	0.665	0.3926	-0.142
Mof_O 	O 	0.161	0.7696	0.3476	-0.132
Mof_N 	N 	0.2717	0.8563	0.1105	0.054
Mof_O 	O 	0.2505	0.8137	0.074	-0.14
Mof_O 	O 	0.335	0.913	0.1074	-0.142
Mof_O 	O 	0.2304	0.839	0.1524	-0.132
Mof_N 	N 	0.8563	0.2717	0.6105	0.054
Mof_O 	O 	0.8137	0.2505	0.574	-0.14
Mof_O 	O 	0.913	0.335	0.6074	-0.142
Mof_O 	O 	0.839	0.2304	0.6524	-0.132
Mof_N 	N 	0.7283	0.1437	0.8895	0.054
Mof_O 	O 	0.7495	0.1863	0.926	-0.14
Mof_O 	O 	0.665	0.087	0.8926	-0.142
Mof_O 	O 	0.7696	0.161	0.8476	-0.132
_end
