data_functionalizedCrystal
_audit_creation_method	'EQeq! by Chris Wilmer'
_symmetry_space_group_name_H-M	'P1'
_symmetry_Int_Tables_number	1
_symmetry_cell_setting	triclinic
loop_
_symmetry_equiv_pos_as_xyz
  x,y,z
_cell_length_a	10.8818
_cell_length_b	12.9515
_cell_length_c	12.9515
_cell_angle_alpha	120
_cell_angle_beta	90
_cell_angle_gamma	90
loop_
_atom_site_label
_atom_site_type_symbol
_atom_site_fract_x
_atom_site_fract_y
_atom_site_fract_z
_atom_site_charge
Mof_Cd	Cd	0.5	0.66667	0.33334	0.408
Mof_Cd	Cd	0.5	0.33333	0.66666	0.408
Mof_H 	H 	0.8973	0.5666	0.1789	0.058
Mof_H 	H 	0.8973	0.6123	0.4334	0.058
Mof_H 	H 	0.8973	0.8211	0.3877	0.059
Mof_H 	H 	0.1027	0.6123	0.1789	0.058
Mof_H 	H 	0.1027	0.8211	0.4334	0.059
Mof_H 	H 	0.1027	0.5666	0.3877	0.058
Mof_H 	H 	0.1027	0.4334	0.8211	0.059
Mof_H 	H 	0.1027	0.3877	0.5666	0.058
Mof_H 	H 	0.1027	0.1789	0.6123	0.058
Mof_H 	H 	0.8973	0.3877	0.8211	0.058
Mof_H 	H 	0.8973	0.1789	0.5666	0.057
Mof_H 	H 	0.8973	0.4334	0.6123	0.057
Mof_C 	C 	0.9385	0.5386	0.1049	-0.067
Mof_C 	C 	0.678	0.4844	0.1061	0.126
Mof_C 	C 	0.9385	0.5663	0.4614	-0.066
Mof_C 	C 	0.678	0.6217	0.5156	0.126
Mof_C 	C 	0.9385	0.8951	0.4337	-0.072
Mof_C 	C 	0.678	0.8939	0.3783	0.119
Mof_C 	C 	0.0615	0.5663	0.1049	-0.067
Mof_C 	C 	0.322	0.6217	0.1061	0.126
Mof_C 	C 	0.0615	0.8951	0.4614	-0.072
Mof_C 	C 	0.322	0.8939	0.5156	0.119
Mof_C 	C 	0.0615	0.5386	0.4337	-0.067
Mof_C 	C 	0.322	0.4844	0.3783	0.127
Mof_C 	C 	0.0615	0.4614	0.8951	-0.072
Mof_C 	C 	0.322	0.5156	0.8939	0.119
Mof_C 	C 	0.0615	0.4337	0.5386	-0.067
Mof_C 	C 	0.322	0.3783	0.4844	0.127
Mof_C 	C 	0.0615	0.1049	0.5663	-0.067
Mof_C 	C 	0.322	0.1061	0.6217	0.126
Mof_C 	C 	0.9385	0.4337	0.8951	-0.072
Mof_C 	C 	0.678	0.3783	0.8939	0.119
Mof_C 	C 	0.9385	0.1049	0.5386	-0.067
Mof_C 	C 	0.678	0.1061	0.4844	0.126
Mof_C 	C 	0.9385	0.4614	0.5663	-0.066
Mof_C 	C 	0.678	0.5156	0.6217	0.126
Mof_C 	C 	0.7436	0.4419	-0	-0.115
Mof_C 	C 	0.8742	0.4713	-0	0.075
Mof_C 	C 	0.7436	0.5581	0.5581	-0.121
Mof_C 	C 	0.8742	0.5287	0.5287	0.07
Mof_C 	C 	0.7436	0	0.4419	-0.115
Mof_C 	C 	0.8742	0	0.4713	0.075
Mof_C 	C 	0.2564	0.5581	-0	-0.115
Mof_C 	C 	0.1258	0.5287	-0	0.075
Mof_C 	C 	0.2564	0	0.5581	-0.115
Mof_C 	C 	0.1258	3.59591e-17	0.5287	0.075
Mof_C 	C 	0.2564	0.4419	0.4419	-0.12
Mof_C 	C 	0.1258	0.4713	0.4713	0.07
Mof_N 	N 	0.6242	0.518	0.192	-0.159
Mof_N 	N 	0.6242	0.674	0.482	-0.161
Mof_N 	N 	0.6242	0.808	0.326	-0.159
Mof_N 	N 	0.3758	0.674	0.192	-0.16
Mof_N 	N 	0.3758	0.808	0.482	-0.159
Mof_N 	N 	0.3758	0.518	0.326	-0.16
Mof_N 	N 	0.3758	0.482	0.808	-0.159
Mof_N 	N 	0.3758	0.326	0.518	-0.16
Mof_N 	N 	0.3758	0.192	0.674	-0.16
Mof_N 	N 	0.6242	0.326	0.808	-0.159
Mof_N 	N 	0.6242	0.192	0.518	-0.159
Mof_N 	N 	0.6242	0.482	0.674	-0.161
_end
