data_functionalizedCrystal
_audit_creation_method	'EQeq! by Chris Wilmer'
_symmetry_space_group_name_H-M	'P1'
_symmetry_Int_Tables_number	1
_symmetry_cell_setting	triclinic
loop_
_symmetry_equiv_pos_as_xyz
  x,y,z
_cell_length_a	26.852
_cell_length_b	26.852
_cell_length_c	9.6735
_cell_angle_alpha	90
_cell_angle_beta	90
_cell_angle_gamma	120
loop_
_atom_site_label
_atom_site_type_symbol
_atom_site_fract_x
_atom_site_fract_y
_atom_site_fract_z
_atom_site_charge
Mof_N 	N 	0.5577	0.9993	0.1514	-0.17
Mof_C 	C 	0.4815	0.8763	0.994	0.049
Mof_H 	H 	0.5215	0.8965	0.99	0.015
Mof_C 	C 	0.4532	0.8178	0.999	-0.064
Mof_H 	H 	0.4745	0.7991	0.9987	0.067
Mof_C 	C 	0.597	0.0104	0.22	0.029
Mof_N 	N 	0.22437	0.33263	0.48473	-0.177
Mof_C 	C 	0.14817	0.20963	0.32733	0.086
Mof_H 	H 	0.18817	0.22983	0.32333	-0.004
Mof_C 	C 	0.11987	0.15113	0.33233	-0.14
Mof_H 	H 	0.14117	0.13243	0.33203	0.086
Mof_C 	C 	0.26367	0.34373	0.55333	0.042
Mof_N 	N 	0.89103	0.66597	0.81807	-0.182
Mof_C 	C 	0.81483	0.54297	0.66067	0.084
Mof_H 	H 	0.85483	0.56317	0.65667	-0.001
Mof_C 	C 	0.78653	0.48447	0.66567	-0.131
Mof_H 	H 	0.80783	0.46577	0.66537	0.087
Mof_C 	C 	0.93033	0.67707	0.88667	0.07
Mof_N 	N 	0.0007	0.5584	0.1514	-0.186
Mof_C 	C 	0.1237	0.6052	0.994	0.049
Mof_H 	H 	0.1035	0.625	0.99	0.015
Mof_C 	C 	0.1822	0.6354	0.999	-0.064
Mof_H 	H 	0.2009	0.6754	0.9987	0.067
Mof_C 	C 	0.9896	0.5866	0.22	0.05
Mof_N 	N 	0.66737	0.89173	0.48473	-0.177
Mof_C 	C 	0.79037	0.93853	0.32733	0.069
Mof_H 	H 	0.77017	0.95833	0.32333	0.005
Mof_C 	C 	0.84887	0.96873	0.33233	-0.105
Mof_H 	H 	0.86757	0.00873	0.33203	0.069
Mof_C 	C 	0.65627	0.91993	0.55333	0.044
Mof_N 	N 	0.33403	0.22507	0.81807	-0.181
Mof_C 	C 	0.45703	0.27187	0.66067	0.084
Mof_H 	H 	0.43683	0.29167	0.65667	-0.002
Mof_C 	C 	0.51553	0.30207	0.66567	-0.131
Mof_H 	H 	0.53423	0.34207	0.66537	0.087
Mof_C 	C 	0.32293	0.25327	0.88667	0.062
Mof_N 	N 	0.4416	0.4423	0.1514	-0.179
Mof_C 	C 	0.3948	0.5185	0.994	0.05
Mof_H 	H 	0.375	0.4785	0.99	0.015
Mof_C 	C 	0.3646	0.5468	0.999	-0.064
Mof_H 	H 	0.3246	0.5255	0.9987	0.067
Mof_C 	C 	0.4134	0.403	0.22	0.04
Mof_N 	N 	0.10827	0.77563	0.48473	-0.178
Mof_C 	C 	0.06147	0.85183	0.32733	0.089
Mof_H 	H 	0.04167	0.81183	0.32333	-0.007
Mof_C 	C 	0.03127	0.88013	0.33233	-0.15
Mof_H 	H 	0.99127	0.85883	0.33203	0.096
Mof_C 	C 	0.08007	0.73633	0.55333	0.041
Mof_N 	N 	0.77493	0.10897	0.81807	-0.181
Mof_C 	C 	0.72813	0.18517	0.66067	0.084
Mof_H 	H 	0.70833	0.14517	0.65667	-0.002
Mof_C 	C 	0.69793	0.21347	0.66567	-0.132
Mof_H 	H 	0.65793	0.19217	0.66537	0.087
Mof_C 	C 	0.74673	0.06967	0.88667	0.063
Mof_N 	N 	0.9993	0.5577	0.8486	-0.161
Mof_C 	C 	0.8763	0.4815	0.006	0.112
Mof_H 	H 	0.8965	0.5215	0.01	-0.015
Mof_C 	C 	0.8178	0.4532	0.001	-0.195
Mof_H 	H 	0.7991	0.4745	0.0013	0.102
Mof_C 	C 	0.0104	0.597	0.78	0.034
Mof_N 	N 	0.66597	0.89103	0.18193	-0.182
Mof_C 	C 	0.54297	0.81483	0.33933	0.081
Mof_H 	H 	0.56317	0.85483	0.34333	-0.002
Mof_C 	C 	0.48447	0.78653	0.33433	-0.132
Mof_H 	H 	0.46577	0.80783	0.33463	0.084
Mof_C 	C 	0.67707	0.93033	0.11333	0.052
Mof_N 	N 	0.33263	0.22437	0.51527	-0.179
Mof_C 	C 	0.20963	0.14817	0.67267	0.088
Mof_H 	H 	0.22983	0.18817	0.67667	-0.003
Mof_C 	C 	0.15113	0.11987	0.66767	-0.139
Mof_H 	H 	0.13243	0.14117	0.66797	0.089
Mof_C 	C 	0.34373	0.26367	0.44667	0.041
Mof_N 	N 	0.5584	0.0007	0.8486	-0.177
Mof_C 	C 	0.6052	0.1237	0.006	0.112
Mof_H 	H 	0.625	0.1035	0.01	-0.017
Mof_C 	C 	0.6354	0.1822	0.001	-0.196
Mof_H 	H 	0.6754	0.2009	0.0013	0.102
Mof_C 	C 	0.5866	0.9896	0.78	0.054
Mof_N 	N 	0.22507	0.33403	0.18193	-0.18
Mof_C 	C 	0.27187	0.45703	0.33933	0.081
Mof_H 	H 	0.29167	0.43683	0.34333	-0.003
Mof_C 	C 	0.30207	0.51553	0.33433	-0.132
Mof_H 	H 	0.34207	0.53423	0.33463	0.083
Mof_C 	C 	0.25327	0.32293	0.11333	0.042
Mof_N 	N 	0.89173	0.66737	0.51527	-0.178
Mof_C 	C 	0.93853	0.79037	0.67267	0.072
Mof_H 	H 	0.95833	0.77017	0.67667	0.006
Mof_C 	C 	0.96873	0.84887	0.66767	-0.106
Mof_H 	H 	0.00873	0.86757	0.66797	0.073
Mof_C 	C 	0.91993	0.65627	0.44667	0.043
Mof_N 	N 	0.4423	0.4416	0.8486	-0.17
Mof_C 	C 	0.5185	0.3948	0.006	0.112
Mof_H 	H 	0.4785	0.375	0.01	-0.016
Mof_C 	C 	0.5468	0.3646	0.001	-0.196
Mof_H 	H 	0.5255	0.3246	0.0013	0.102
Mof_C 	C 	0.403	0.4134	0.78	0.044
Mof_N 	N 	0.10897	0.77493	0.18193	-0.181
Mof_C 	C 	0.18517	0.72813	0.33933	0.081
Mof_H 	H 	0.14517	0.70833	0.34333	-0.004
Mof_C 	C 	0.21347	0.69793	0.33433	-0.132
Mof_H 	H 	0.19217	0.65793	0.33463	0.083
Mof_C 	C 	0.06967	0.74673	0.11333	0.043
Mof_N 	N 	0.77563	0.10827	0.51527	-0.179
Mof_C 	C 	0.85183	0.06147	0.67267	0.092
Mof_H 	H 	0.81183	0.04167	0.67667	-0.006
Mof_C 	C 	0.88013	0.03127	0.66767	-0.149
Mof_H 	H 	0.85883	0.99127	0.66797	0.098
Mof_C 	C 	0.73633	0.08007	0.44667	0.039
Mof_N 	N 	0.4423	0.0007	0.8486	-0.177
Mof_C 	C 	0.5185	0.1237	0.006	0.112
Mof_H 	H 	0.4785	0.1035	0.01	-0.017
Mof_C 	C 	0.5468	0.1822	0.001	-0.196
Mof_H 	H 	0.5255	0.2009	0.0013	0.102
Mof_C 	C 	0.403	0.9896	0.78	0.054
Mof_N 	N 	0.10897	0.33403	0.18193	-0.181
Mof_C 	C 	0.18517	0.45703	0.33933	0.081
Mof_H 	H 	0.14517	0.43683	0.34333	-0.004
Mof_C 	C 	0.21347	0.51553	0.33433	-0.133
Mof_H 	H 	0.19217	0.53423	0.33463	0.083
Mof_C 	C 	0.06967	0.32293	0.11333	0.043
Mof_N 	N 	0.77563	0.66737	0.51527	-0.179
Mof_C 	C 	0.85183	0.79037	0.67267	0.079
Mof_H 	H 	0.81183	0.77017	0.67667	0
Mof_C 	C 	0.88013	0.84887	0.66767	-0.124
Mof_H 	H 	0.85883	0.86757	0.66797	0.084
Mof_C 	C 	0.73633	0.65627	0.44667	0.041
Mof_N 	N 	0.9993	0.4416	0.8486	-0.161
Mof_C 	C 	0.8763	0.3948	0.006	0.112
Mof_H 	H 	0.8965	0.375	0.01	-0.015
Mof_C 	C 	0.8178	0.3646	0.001	-0.195
Mof_H 	H 	0.7991	0.3246	0.0013	0.102
Mof_C 	C 	0.0104	0.4134	0.78	0.034
Mof_N 	N 	0.66597	0.77493	0.18193	-0.18
Mof_C 	C 	0.54297	0.72813	0.33933	0.081
Mof_H 	H 	0.56317	0.70833	0.34333	-0.003
Mof_C 	C 	0.48447	0.69793	0.33433	-0.132
Mof_H 	H 	0.46577	0.65793	0.33463	0.083
Mof_C 	C 	0.67707	0.74673	0.11333	0.042
Mof_N 	N 	0.33263	0.10827	0.51527	-0.179
Mof_C 	C 	0.20963	0.06147	0.67267	0.096
Mof_H 	H 	0.22983	0.04167	0.67667	-0.007
Mof_C 	C 	0.15113	0.03127	0.66767	-0.156
Mof_H 	H 	0.13243	0.99127	0.66797	0.101
Mof_C 	C 	0.34373	0.08007	0.44667	0.039
Mof_N 	N 	0.5584	0.5577	0.8486	-0.171
Mof_C 	C 	0.6052	0.4815	0.006	0.112
Mof_H 	H 	0.625	0.5215	0.01	-0.016
Mof_C 	C 	0.6354	0.4532	0.001	-0.196
Mof_H 	H 	0.6754	0.4745	0.0013	0.102
Mof_C 	C 	0.5866	0.597	0.78	0.044
Mof_N 	N 	0.22507	0.89103	0.18193	-0.182
Mof_C 	C 	0.27187	0.81483	0.33933	0.081
Mof_H 	H 	0.29167	0.85483	0.34333	-0.002
Mof_C 	C 	0.30207	0.78653	0.33433	-0.132
Mof_H 	H 	0.34207	0.80783	0.33463	0.084
Mof_C 	C 	0.25327	0.93033	0.11333	0.052
Mof_N 	N 	0.89173	0.22437	0.51527	-0.178
Mof_C 	C 	0.93853	0.14817	0.67267	0.076
Mof_H 	H 	0.95833	0.18817	0.67667	0.004
Mof_C 	C 	0.96873	0.11987	0.66767	-0.113
Mof_H 	H 	0.00873	0.14117	0.66797	0.075
Mof_C 	C 	0.91993	0.26367	0.44667	0.043
Mof_N 	N 	0.0007	0.4423	0.1514	-0.186
Mof_C 	C 	0.1237	0.5185	0.994	0.049
Mof_H 	H 	0.1035	0.4785	0.99	0.015
Mof_C 	C 	0.1822	0.5468	0.999	-0.064
Mof_H 	H 	0.2009	0.5255	0.9987	0.067
Mof_C 	C 	0.9896	0.403	0.22	0.05
Mof_N 	N 	0.66737	0.77563	0.48473	-0.177
Mof_C 	C 	0.79037	0.85183	0.32733	0.077
Mof_H 	H 	0.77017	0.81183	0.32333	-0.001
Mof_C 	C 	0.84887	0.88013	0.33233	-0.124
Mof_H 	H 	0.86757	0.85883	0.33203	0.082
Mof_C 	C 	0.65627	0.73633	0.55333	0.042
Mof_N 	N 	0.33403	0.10897	0.81807	-0.181
Mof_C 	C 	0.45703	0.18517	0.66067	0.084
Mof_H 	H 	0.43683	0.14517	0.65667	-0.002
Mof_C 	C 	0.51553	0.21347	0.66567	-0.132
Mof_H 	H 	0.53423	0.19217	0.66537	0.087
Mof_C 	C 	0.32293	0.06967	0.88667	0.063
Mof_N 	N 	0.4416	0.9993	0.1514	-0.169
Mof_C 	C 	0.3948	0.8763	0.994	0.05
Mof_H 	H 	0.375	0.8965	0.99	0.017
Mof_C 	C 	0.3646	0.8178	0.999	-0.064
Mof_H 	H 	0.3246	0.7991	0.9987	0.067
Mof_C 	C 	0.4134	0.0104	0.22	0.029
Mof_N 	N 	0.10827	0.33263	0.48473	-0.178
Mof_C 	C 	0.06147	0.20963	0.32733	0.093
Mof_H 	H 	0.04167	0.22983	0.32333	-0.009
Mof_C 	C 	0.03127	0.15113	0.33233	-0.158
Mof_H 	H 	0.99127	0.13243	0.33203	0.098
Mof_C 	C 	0.08007	0.34373	0.55333	0.041
Mof_N 	N 	0.77493	0.66597	0.81807	-0.18
Mof_C 	C 	0.72813	0.54297	0.66067	0.084
Mof_H 	H 	0.70833	0.56317	0.65667	-0.002
Mof_C 	C 	0.69793	0.48447	0.66567	-0.131
Mof_H 	H 	0.65793	0.46577	0.66537	0.087
Mof_C 	C 	0.74673	0.67707	0.88667	0.062
Mof_N 	N 	0.5577	0.5584	0.1514	-0.179
Mof_C 	C 	0.4815	0.6052	0.994	0.05
Mof_H 	H 	0.5215	0.625	0.99	0.015
Mof_C 	C 	0.4532	0.6354	0.999	-0.064
Mof_H 	H 	0.4745	0.6754	0.9987	0.067
Mof_C 	C 	0.597	0.5866	0.22	0.04
Mof_N 	N 	0.22437	0.89173	0.48473	-0.177
Mof_C 	C 	0.14817	0.93853	0.32733	0.073
Mof_H 	H 	0.18817	0.95833	0.32333	0.003
Mof_C 	C 	0.11987	0.96873	0.33233	-0.113
Mof_H 	H 	0.14117	0.00873	0.33203	0.071
Mof_C 	C 	0.26367	0.91993	0.55333	0.044
Mof_N 	N 	0.89103	0.22507	0.81807	-0.182
Mof_C 	C 	0.81483	0.27187	0.66067	0.084
Mof_H 	H 	0.85483	0.29167	0.65667	-0.001
Mof_C 	C 	0.78653	0.30207	0.66567	-0.131
Mof_H 	H 	0.80783	0.34207	0.66537	0.087
Mof_C 	C 	0.93033	0.25327	0.88667	0.071
Mof_Au	Au	0.66667	0.03973	0.33333	0.04
Mof_Au	Au	0.96027	0.62693	0.33333	0.049
Mof_Au	Au	0.37307	0.33333	0.33333	0.043
Mof_Au	Au	0.03973	0.66667	0.66667	0.048
Mof_Au	Au	0.7064	0	-0	0.001
Mof_Au	Au	0.62693	0.96027	0.66667	0.057
Mof_Au	Au	0.2936	0.2936	-0	0.015
Mof_Au	Au	0.33333	0.37307	0.66667	0.052
Mof_Au	Au	-0	0.7064	-0	0.003
Mof_Au	Au	0.33333	0.96027	0.66667	0.057
Mof_Au	Au	-0	0.2936	-0	0.002
Mof_Au	Au	0.03973	0.37307	0.66667	0.048
Mof_Au	Au	0.7064	0.7064	-0	0.016
Mof_Au	Au	0.62693	0.66667	0.66667	0.052
Mof_Au	Au	0.2936	0	-0	0
Mof_Au	Au	0.96027	0.33333	0.33333	0.049
Mof_Au	Au	0.37307	0.03973	0.33333	0.04
Mof_Au	Au	0.66667	0.62693	0.33333	0.044
Mof_Fe	Fe	0.5	0	-0	0.622
Mof_Fe	Fe	0.16667	0.33333	0.33333	0.655
Mof_Fe	Fe	0.83333	0.66667	0.66667	0.66
Mof_Fe	Fe	-0	0.5	-0	0.623
Mof_Fe	Fe	0.66667	0.83333	0.33333	0.656
Mof_Fe	Fe	0.33333	0.16667	0.66667	0.659
Mof_Fe	Fe	0.5	0.5	-0	0.633
Mof_Fe	Fe	0.16667	0.83333	0.33333	0.656
Mof_Fe	Fe	0.83333	0.16667	0.66667	0.66
Mof_N 	N 	0.45275	0.9055	0.996	-0.162
Mof_C 	C 	0.3921	0.7842	0.005	-0.028
Mof_C 	C 	0.36175	0.7235	0.996	0.131
Mof_N 	N 	0.11942	0.23883	0.32933	-0.186
Mof_C 	C 	0.05877	0.11753	0.33833	0.068
Mof_C 	C 	0.02842	0.05683	0.32933	0.076
Mof_N 	N 	0.78608	0.57217	0.66267	-0.183
Mof_C 	C 	0.72543	0.45087	0.67167	0.06
Mof_C 	C 	0.69508	0.39017	0.66267	0.092
Mof_N 	N 	0.0945	0.54725	0.996	-0.164
Mof_C 	C 	0.2158	0.6079	0.005	-0.029
Mof_C 	C 	0.2765	0.63825	0.996	0.132
Mof_N 	N 	0.76117	0.88058	0.32933	-0.18
Mof_C 	C 	0.88247	0.94123	0.33833	0.046
Mof_C 	C 	0.94317	0.97158	0.32933	0.102
Mof_N 	N 	0.42783	0.21392	0.66267	-0.183
Mof_C 	C 	0.54913	0.27457	0.67167	0.06
Mof_C 	C 	0.60983	0.30492	0.66267	0.092
Mof_N 	N 	0.45275	0.54725	0.996	-0.164
Mof_C 	C 	0.3921	0.6079	0.005	-0.029
Mof_C 	C 	0.36175	0.63825	0.996	0.132
Mof_N 	N 	0.11942	0.88058	0.32933	-0.183
Mof_C 	C 	0.05877	0.94123	0.33833	0.057
Mof_C 	C 	0.02842	0.97158	0.32933	0.09
Mof_N 	N 	0.78608	0.21392	0.66267	-0.183
Mof_C 	C 	0.72543	0.27457	0.67167	0.06
Mof_C 	C 	0.69508	0.30492	0.66267	0.092
Mof_N 	N 	0.9055	0.45275	0.004	-0.194
Mof_C 	C 	0.7842	0.3921	0.995	0.141
Mof_C 	C 	0.7235	0.36175	0.004	0.051
Mof_N 	N 	0.57217	0.78608	0.33733	-0.183
Mof_C 	C 	0.45087	0.72543	0.32833	0.056
Mof_C 	C 	0.39017	0.69508	0.33733	0.088
Mof_N 	N 	0.23883	0.11942	0.67067	-0.186
Mof_C 	C 	0.11753	0.05877	0.66167	0.07
Mof_C 	C 	0.05683	0.02842	0.67067	0.08
Mof_N 	N 	0.54725	0.0945	0.004	-0.196
Mof_C 	C 	0.6079	0.2158	0.995	0.142
Mof_C 	C 	0.63825	0.2765	0.004	0.051
Mof_N 	N 	0.21392	0.42783	0.33733	-0.184
Mof_C 	C 	0.27457	0.54913	0.32833	0.056
Mof_C 	C 	0.30492	0.60983	0.33733	0.088
Mof_N 	N 	0.88058	0.76117	0.67067	-0.18
Mof_C 	C 	0.94123	0.88247	0.66167	0.048
Mof_C 	C 	0.97158	0.94317	0.67067	0.104
Mof_N 	N 	0.54725	0.45275	0.004	-0.196
Mof_C 	C 	0.6079	0.3921	0.995	0.141
Mof_C 	C 	0.63825	0.36175	0.004	0.051
Mof_N 	N 	0.21392	0.78608	0.33733	-0.184
Mof_C 	C 	0.27457	0.72543	0.32833	0.056
Mof_C 	C 	0.30492	0.69508	0.33733	0.088
Mof_N 	N 	0.88058	0.11942	0.67067	-0.183
Mof_C 	C 	0.94123	0.05877	0.66167	0.059
Mof_C 	C 	0.97158	0.02842	0.67067	0.092
Mof_N 	N 	0.3027	0.6973	0.997	-0.139
Mof_N 	N 	0.96937	0.03063	0.33033	-0.131
Mof_N 	N 	0.63603	0.36397	0.66367	-0.129
Mof_N 	N 	0.3027	0.6054	0.997	-0.139
Mof_N 	N 	0.96937	0.93873	0.33033	-0.128
Mof_N 	N 	0.63603	0.27207	0.66367	-0.129
Mof_N 	N 	0.3946	0.6973	0.997	-0.139
Mof_N 	N 	0.06127	0.03063	0.33033	-0.134
Mof_N 	N 	0.72793	0.36397	0.66367	-0.129
Mof_N 	N 	0.6973	0.3027	0.003	-0.122
Mof_N 	N 	0.36397	0.63603	0.33633	-0.131
Mof_N 	N 	0.03063	0.96937	0.66967	-0.129
Mof_N 	N 	0.6054	0.3027	0.003	-0.122
Mof_N 	N 	0.27207	0.63603	0.33633	-0.131
Mof_N 	N 	0.93873	0.96937	0.66967	-0.127
Mof_N 	N 	0.6973	0.3946	0.003	-0.122
Mof_N 	N 	0.36397	0.72793	0.33633	-0.131
Mof_N 	N 	0.03063	0.06127	0.66967	-0.132
_end
