data_functionalizedCrystal
_audit_creation_method	'EQeq! by Chris Wilmer'
_symmetry_space_group_name_H-M	'P1'
_symmetry_Int_Tables_number	1
_symmetry_cell_setting	triclinic
loop_
_symmetry_equiv_pos_as_xyz
  x,y,z
_cell_length_a	10.4255
_cell_length_b	10.5301
_cell_length_c	6.2943
_cell_angle_alpha	90
_cell_angle_beta	115.135
_cell_angle_gamma	90
loop_
_atom_site_label
_atom_site_type_symbol
_atom_site_fract_x
_atom_site_fract_y
_atom_site_fract_z
_atom_site_charge
Mof_C 	C 	0.3166	0.2104	0.5461	-0.063
Mof_H 	H 	0.3974	0.2651	0.5767	0.016
Mof_H 	H 	0.3291	0.1717	0.6935	-0.002
Mof_N 	N 	0.3125	0.1104	0.3811	-0.27
Mof_H 	H 	0.2981	0.1464	0.2431	0.06
Mof_H 	H 	0.2386	0.0588	0.3558	0.053
Mof_C 	C 	0.8166	0.7104	0.5461	-0.067
Mof_H 	H 	0.8974	0.7651	0.5767	0.043
Mof_H 	H 	0.8291	0.6717	0.6935	0.022
Mof_N 	N 	0.8125	0.6104	0.3811	-0.264
Mof_H 	H 	0.7981	0.6464	0.2431	0.084
Mof_H 	H 	0.7386	0.5588	0.3558	0.082
Mof_C 	C 	0.6834	0.2104	0.9539	0.03
Mof_H 	H 	0.6026	0.2651	0.9233	-0.008
Mof_H 	H 	0.6709	0.1717	0.8065	-0.028
Mof_N 	N 	0.6875	0.1104	0.1189	-0.295
Mof_H 	H 	0.7019	0.1464	0.2569	0.076
Mof_H 	H 	0.7614	0.0588	0.1442	0.072
Mof_C 	C 	0.1834	0.7104	0.9539	0.034
Mof_H 	H 	0.1026	0.7651	0.9233	-0.019
Mof_H 	H 	0.1709	0.6717	0.8065	-0.03
Mof_N 	N 	0.1875	0.6104	0.1189	-0.297
Mof_H 	H 	0.2019	0.6464	0.2569	0.077
Mof_H 	H 	0.2614	0.5588	0.1442	0.081
Mof_C 	C 	0.6834	0.7896	0.4539	-0.024
Mof_H 	H 	0.6026	0.7349	0.4233	0.007
Mof_H 	H 	0.6709	0.8283	0.3065	0.005
Mof_N 	N 	0.6875	0.8896	0.6189	-0.28
Mof_H 	H 	0.7019	0.8536	0.7569	0.1
Mof_H 	H 	0.7614	0.9412	0.6442	0.116
Mof_C 	C 	0.1834	0.2896	0.4539	-0.021
Mof_H 	H 	0.1026	0.2349	0.4233	-0.021
Mof_H 	H 	0.1709	0.3283	0.3065	-0.021
Mof_N 	N 	0.1875	0.3896	0.6189	-0.287
Mof_H 	H 	0.2019	0.3536	0.7569	0.077
Mof_H 	H 	0.2614	0.4412	0.6442	0.086
Mof_C 	C 	0.3166	0.7896	0.0461	-0.118
Mof_H 	H 	0.3974	0.7349	0.0767	0.03
Mof_H 	H 	0.3291	0.8283	0.1935	0.027
Mof_N 	N 	0.3125	0.8896	0.8811	-0.247
Mof_H 	H 	0.2981	0.8536	0.7431	0.084
Mof_H 	H 	0.2386	0.9412	0.8558	0.097
Mof_C 	C 	0.8166	0.2896	0.0461	-0.122
Mof_H 	H 	0.8974	0.2349	0.0767	0.042
Mof_H 	H 	0.8291	0.3283	0.1935	0.028
Mof_N 	N 	0.8125	0.3896	0.8811	-0.245
Mof_H 	H 	0.7981	0.3536	0.7431	0.082
Mof_H 	H 	0.7386	0.4412	0.8558	0.087
Mof_Ag	Ag	0.5	-5.04413e-33	0.5	0.305
Mof_Ag	Ag	1.61258e-33	0.5	0.5	0.307
Mof_Ag	Ag	0.5	0	-0	0.258
Mof_Ag	Ag	-5.04413e-33	0.5	-0	0.261
_end
