data_functionalizedCrystal
_audit_creation_method	'EQeq! by Chris Wilmer'
_symmetry_space_group_name_H-M	'P1'
_symmetry_Int_Tables_number	1
_symmetry_cell_setting	triclinic
loop_
_symmetry_equiv_pos_as_xyz
  x,y,z
_cell_length_a	13.1317
_cell_length_b	12.1256
_cell_length_c	7.8119
_cell_angle_alpha	90
_cell_angle_beta	99.734
_cell_angle_gamma	90
loop_
_atom_site_label
_atom_site_type_symbol
_atom_site_fract_x
_atom_site_fract_y
_atom_site_fract_z
_atom_site_charge
Mof_Mn	Mn	0.73682	0.48229	0.9014	0.849
Mof_O 	O 	0.13662	0.09007	0.4808	-0.359
Mof_N 	N 	0.33549	0.1488	0.5839	-0.184
Mof_C 	C 	0.161	0.1873	0.4379	0.292
Mof_O 	O 	0.10638	0.24991	0.3349	-0.277
Mof_C 	C 	0.2682	0.2281	0.519	0.031
Mof_O 	O 	0.15329	0.44222	0.5772	-0.37
Mof_C 	C 	0.2949	0.3391	0.5234	-0.117
Mof_O 	O 	0.21979	0.48848	0.3447	-0.391
Mof_C 	C 	0.3958	0.3675	0.5957	0.063
Mof_H 	H 	0.414	0.44	0.606	0.029
Mof_O 	O 	0.59326	0.41408	0.7798	-0.361
Mof_C 	C 	0.4661	0.2859	0.6607	-0.128
Mof_O 	O 	0.63734	0.23609	0.7861	-0.278
Mof_C 	C 	0.4324	0.177	0.651	0.097
Mof_H 	H 	0.475	0.118	0.687	0.009
Mof_C 	C 	0.2161	0.4289	0.4724	0.387
Mof_C 	C 	0.5747	0.3133	0.7481	0.352
Mof_Mn	Mn	0.26318	0.98229	0.5986	0.841
Mof_O 	O 	0.86338	0.59007	0.0192	-0.311
Mof_N 	N 	0.66451	0.6488	0.9161	-0.178
Mof_C 	C 	0.839	0.6873	0.0621	0.266
Mof_O 	O 	0.89362	0.74991	0.1651	-0.215
Mof_C 	C 	0.7318	0.7281	0.981	0.044
Mof_O 	O 	0.84671	0.94222	0.9228	-0.282
Mof_C 	C 	0.7051	0.8391	0.9766	-0.084
Mof_O 	O 	0.78021	0.98848	0.1553	-0.338
Mof_C 	C 	0.6042	0.8675	0.9043	0.044
Mof_H 	H 	0.586	0.94	0.894	0.048
Mof_O 	O 	0.40674	0.91408	0.7202	-0.354
Mof_C 	C 	0.5339	0.7859	0.8393	-0.115
Mof_O 	O 	0.36266	0.73609	0.7139	-0.286
Mof_C 	C 	0.5676	0.677	0.849	0.09
Mof_H 	H 	0.525	0.618	0.813	0.017
Mof_C 	C 	0.7839	0.9289	0.0276	0.336
Mof_C 	C 	0.4253	0.8133	0.7519	0.348
Mof_Mn	Mn	0.26318	0.51771	0.0986	0.782
Mof_O 	O 	0.86338	0.90993	0.5192	-0.284
Mof_N 	N 	0.66451	0.8512	0.4161	-0.173
Mof_C 	C 	0.839	0.8127	0.5621	0.276
Mof_O 	O 	0.89362	0.75009	0.6651	-0.212
Mof_C 	C 	0.7318	0.7719	0.481	0.04
Mof_O 	O 	0.84671	0.55778	0.4228	-0.327
Mof_C 	C 	0.7051	0.6609	0.4766	-0.118
Mof_O 	O 	0.78021	0.51152	0.6553	-0.368
Mof_C 	C 	0.6042	0.6325	0.4043	0.059
Mof_H 	H 	0.586	0.56	0.394	0.029
Mof_O 	O 	0.40674	0.58592	0.2202	-0.363
Mof_C 	C 	0.5339	0.7141	0.3393	-0.128
Mof_O 	O 	0.36266	0.76391	0.2139	-0.291
Mof_C 	C 	0.5676	0.823	0.349	0.09
Mof_H 	H 	0.525	0.882	0.313	0.02
Mof_C 	C 	0.7839	0.5711	0.5276	0.384
Mof_C 	C 	0.4253	0.6867	0.2519	0.347
Mof_Mn	Mn	0.73682	0.01771	0.4014	0.788
Mof_O 	O 	0.13662	0.40993	0.9808	-0.338
Mof_N 	N 	0.33549	0.3512	0.0839	-0.18
Mof_C 	C 	0.161	0.3127	0.9379	0.304
Mof_O 	O 	0.10638	0.25009	0.8349	-0.271
Mof_C 	C 	0.2682	0.2719	0.019	0.024
Mof_O 	O 	0.15329	0.05778	0.0772	-0.397
Mof_C 	C 	0.2949	0.1609	0.0234	-0.151
Mof_O 	O 	0.21979	0.01152	0.8447	-0.412
Mof_C 	C 	0.3958	0.1325	0.0957	0.077
Mof_H 	H 	0.414	0.06	0.106	0.01
Mof_O 	O 	0.59326	0.08592	0.2798	-0.37
Mof_C 	C 	0.4661	0.2141	0.1607	-0.14
Mof_O 	O 	0.63734	0.26391	0.2861	-0.282
Mof_C 	C 	0.4324	0.323	0.151	0.096
Mof_H 	H 	0.475	0.382	0.187	0.011
Mof_C 	C 	0.2161	0.0711	0.9724	0.435
Mof_C 	C 	0.5747	0.1867	0.2481	0.351
Mof_Mn	Mn	1.3038e-33	0.5	0.5	0.607
Mof_Mn	Mn	-0	0	-0	0.56
_end
