data_functionalizedCrystal
_audit_creation_method	'EQeq! by Chris Wilmer'
_symmetry_space_group_name_H-M	'P1'
_symmetry_Int_Tables_number	1
_symmetry_cell_setting	triclinic
loop_
_symmetry_equiv_pos_as_xyz
  x,y,z
_cell_length_a	29.5497
_cell_length_b	29.5497
_cell_length_c	29.5497
_cell_angle_alpha	109.471
_cell_angle_beta	109.471
_cell_angle_gamma	109.471
loop_
_atom_site_label
_atom_site_type_symbol
_atom_site_fract_x
_atom_site_fract_y
_atom_site_fract_z
_atom_site_charge
Mof_Cu	Cu	0.25705	0.75705	0.5	0.903
Mof_Cu	Cu	0.74295	0.24295	0.5	0.903
Mof_Cu	Cu	0.24295	0.5	0.74295	0.903
Mof_Cu	Cu	0.16644	0.5	0.66644	0.894
Mof_Cu	Cu	0.66644	0.16644	0.5	0.894
Mof_Cu	Cu	0.5	0.74295	0.24295	0.903
Mof_Cu	Cu	0.75705	0.5	0.25705	0.903
Mof_Cu	Cu	0.83356	0.5	0.33356	0.894
Mof_Cu	Cu	0.5	0.25705	0.75705	0.903
Mof_Cu	Cu	0.5	0.66644	0.16644	0.894
Mof_Cu	Cu	0.33356	0.83356	0.5	0.894
Mof_Cu	Cu	0.5	0.33356	0.83356	0.894
Mof_H 	H 	0.4008	0.9652	0.9062	0.123
Mof_H 	H 	0.059	0.9652	0.5644	0.123
Mof_H 	H 	0.5087	0.7401	0.0596	0.049
Mof_H 	H 	0.9136	0.3869	0.7661	0.063
Mof_H 	H 	0.2339	0.0864	0.6131	0.063
Mof_H 	H 	0.5008	0.0216	0.2238	0.063
Mof_H 	H 	0.8144	0.4854	0.144	0.053
Mof_H 	H 	0.5509	0.0596	0.3195	0.049
Mof_H 	H 	0.941	0.0348	0.4356	0.123
Mof_H 	H 	0.4913	0.5509	0.2314	0.049
Mof_H 	H 	0.9652	0.9062	0.4008	0.123
Mof_H 	H 	0.8525	0.7661	0.3792	0.063
Mof_H 	H 	0.4792	0.2022	0.9784	0.063
Mof_H 	H 	0.5267	0.3792	0.6131	0.063
Mof_H 	H 	0.5992	0.0348	0.0938	0.123
Mof_H 	H 	0.4491	0.7686	0.5087	0.049
Mof_H 	H 	0.5509	0.2314	0.4913	0.049
Mof_H 	H 	0.7401	0.2314	0.6805	0.049
Mof_H 	H 	0.4356	0.4008	0.4946	0.123
Mof_H 	H 	0.723	0.2238	0.2022	0.063
Mof_H 	H 	0.8525	0.4733	0.0864	0.063
Mof_H 	H 	0.4733	0.0864	0.8525	0.063
Mof_H 	H 	0.4356	0.941	0.0348	0.123
Mof_H 	H 	0.277	0.7762	0.7978	0.063
Mof_H 	H 	0.4913	0.2599	0.9404	0.049
Mof_H 	H 	0.3296	0.144	0.6586	0.053
Mof_H 	H 	0.2339	0.6208	0.1475	0.063
Mof_H 	H 	0.7661	0.3792	0.8525	0.063
Mof_H 	H 	0.277	0.4792	0.5008	0.063
Mof_H 	H 	0.9404	0.4913	0.2599	0.049
Mof_H 	H 	0.3195	0.2599	0.7686	0.049
Mof_H 	H 	0.6131	0.5267	0.3792	0.063
Mof_H 	H 	0.144	0.8144	0.4854	0.053
Mof_H 	H 	0.9062	0.4008	0.9652	0.123
Mof_H 	H 	0.671	0.3414	0.4854	0.053
Mof_H 	H 	0.6586	0.5146	0.329	0.053
Mof_H 	H 	0.5054	0.5644	0.5992	0.123
Mof_H 	H 	0.329	0.8144	0.6704	0.053
Mof_H 	H 	0.5008	0.277	0.4792	0.063
Mof_H 	H 	0.2022	0.723	0.2238	0.063
Mof_H 	H 	0.9784	0.7762	0.4992	0.063
Mof_H 	H 	0.4946	0.4356	0.4008	0.123
Mof_H 	H 	0.6586	0.3296	0.144	0.052
Mof_H 	H 	0.5208	0.4992	0.723	0.062
Mof_H 	H 	0.0864	0.8525	0.4733	0.062
Mof_H 	H 	0.7401	0.0596	0.5087	0.048
Mof_H 	H 	0.4992	0.9784	0.7762	0.062
Mof_H 	H 	0.5644	0.5992	0.5054	0.122
Mof_H 	H 	0.1856	0.5146	0.856	0.052
Mof_H 	H 	0.6704	0.856	0.3414	0.052
Mof_H 	H 	0.0938	0.5992	0.0348	0.122
Mof_H 	H 	0.059	0.4946	0.0938	0.122
Mof_H 	H 	0.6805	0.4491	0.9404	0.048
Mof_H 	H 	0.2599	0.9404	0.4913	0.048
Mof_H 	H 	0.5054	0.9062	0.941	0.122
Mof_H 	H 	0.3195	0.5509	0.0596	0.048
Mof_H 	H 	0.5146	0.329	0.6586	0.052
Mof_H 	H 	0.0216	0.2238	0.5008	0.062
Mof_H 	H 	0.3869	0.7661	0.9136	0.062
Mof_H 	H 	0.5146	0.856	0.1856	0.052
Mof_H 	H 	0.3792	0.8525	0.7661	0.062
Mof_H 	H 	0.856	0.1856	0.5146	0.052
Mof_H 	H 	0.4733	0.6208	0.3869	0.062
Mof_H 	H 	0.941	0.5054	0.9062	0.122
Mof_H 	H 	0.2314	0.4913	0.5509	0.048
Mof_H 	H 	0.4946	0.0938	0.059	0.122
Mof_H 	H 	0.0864	0.6131	0.2339	0.062
Mof_H 	H 	0.329	0.6586	0.5146	0.052
Mof_H 	H 	0.2238	0.5008	0.0216	0.062
Mof_H 	H 	0.9784	0.4792	0.2022	0.062
Mof_H 	H 	0.144	0.6586	0.3296	0.052
Mof_H 	H 	0.4792	0.5008	0.277	0.062
Mof_H 	H 	0.8144	0.6704	0.329	0.052
Mof_H 	H 	0.7978	0.0216	0.5208	0.062
Mof_H 	H 	0.9136	0.1475	0.5267	0.062
Mof_H 	H 	0.9062	0.941	0.5054	0.122
Mof_H 	H 	0.4008	0.4946	0.4356	0.122
Mof_H 	H 	0.2314	0.6805	0.7401	0.048
Mof_H 	H 	0.0348	0.4356	0.941	0.122
Mof_H 	H 	0.1475	0.2339	0.6208	0.062
Mof_H 	H 	0.4854	0.671	0.3414	0.052
Mof_H 	H 	0.5992	0.5054	0.5644	0.122
Mof_H 	H 	0.7686	0.5087	0.4491	0.048
Mof_H 	H 	0.2022	0.9784	0.4792	0.062
Mof_H 	H 	0.5644	0.059	0.9652	0.122
Mof_H 	H 	0.6805	0.7401	0.2314	0.048
Mof_H 	H 	0.9404	0.6805	0.4491	0.048
Mof_H 	H 	0.3296	0.671	0.1856	0.052
Mof_H 	H 	0.0216	0.5208	0.7978	0.062
Mof_H 	H 	0.6704	0.329	0.8144	0.052
Mof_H 	H 	0.2599	0.7686	0.3195	0.048
Mof_H 	H 	0.671	0.1856	0.3296	0.052
Mof_H 	H 	0.3869	0.4733	0.6208	0.062
Mof_H 	H 	0.6208	0.3869	0.4733	0.062
Mof_H 	H 	0.0348	0.0938	0.5992	0.122
Mof_H 	H 	0.0596	0.3195	0.5509	0.048
Mof_H 	H 	0.0596	0.5087	0.7401	0.048
Mof_H 	H 	0.3792	0.6131	0.5267	0.062
Mof_H 	H 	0.5267	0.9136	0.1475	0.062
Mof_H 	H 	0.723	0.5208	0.4992	0.062
Mof_H 	H 	0.1475	0.5267	0.9136	0.062
Mof_H 	H 	0.4992	0.723	0.5208	0.062
Mof_H 	H 	0.4854	0.144	0.8144	0.052
Mof_H 	H 	0.7762	0.4992	0.9784	0.062
Mof_H 	H 	0.0938	0.059	0.4946	0.122
Mof_H 	H 	0.9652	0.5644	0.059	0.122
Mof_H 	H 	0.1856	0.3296	0.671	0.052
Mof_H 	H 	0.5208	0.7978	0.0216	0.062
Mof_H 	H 	0.5087	0.4491	0.7686	0.048
Mof_H 	H 	0.7686	0.3195	0.2599	0.048
Mof_H 	H 	0.6208	0.1475	0.2339	0.062
Mof_H 	H 	0.2238	0.2022	0.723	0.062
Mof_H 	H 	0.4491	0.9404	0.6805	0.048
Mof_H 	H 	0.7661	0.9136	0.3869	0.062
Mof_H 	H 	0.3414	0.6704	0.856	0.052
Mof_H 	H 	0.3414	0.4854	0.671	0.052
Mof_H 	H 	0.7978	0.277	0.7762	0.062
Mof_H 	H 	0.856	0.3414	0.6704	0.052
Mof_H 	H 	0.6131	0.2339	0.0864	0.062
Mof_H 	H 	0.7762	0.7978	0.277	0.062
Mof_C 	C 	0.38429	0.71806	0.51055	-0.04
Mof_C 	C 	0.6391	0.1603	0.1074	0.012
Mof_C 	C 	0.0546	0.5195	0.8095	-0.083
Mof_C 	C 	0.4962	0.2435	0.8429	0.29
Mof_C 	C 	0.8095	0.0546	0.5195	-0.083
Mof_C 	C 	0.44403	0.9191	0.78033	0.037
Mof_C 	C 	0.7489	0.8787	0.3556	-0.081
Mof_C 	C 	0.33377	0.61571	0.12626	-0.04
Mof_C 	C 	0.6978	0.4351	0.9227	-0.003
Mof_C 	C 	0.9654	0.4138	0.9438	0.187
Mof_C 	C 	0.8853	0.5029	0.9604	-0.083
Mof_C 	C 	0.52493	0.44403	0.6637	0.037
Mof_C 	C 	0.86123	0.3363	0.78033	0.037
Mof_C 	C 	0.4006	0.6533	0.1571	0.29
Mof_C 	C 	0.0346	0.5862	0.0562	0.187
Mof_C 	C 	0.79249	0.28194	0.66623	-0.04
Mof_C 	C 	0.5813	0.526	0.5609	-0.246
Mof_C 	C 	0.5029	0.9604	0.8853	-0.083
Mof_C 	C 	0.9654	0.0216	0.5516	0.187
Mof_C 	C 	0.3609	0.8397	0.8926	0.012
Mof_C 	C 	0.20751	0.71806	0.33377	-0.04
Mof_C 	C 	0.0809	0.52493	0.86123	0.037
Mof_C 	C 	0.4841	0.1558	0.8475	-0.007
Mof_C 	C 	0.8397	0.8926	0.3609	0.012
Mof_C 	C 	0.0562	0.0346	0.5862	0.187
Mof_C 	C 	0.5231	0.3933	0.6444	-0.081
Mof_C 	C 	0.5425	0.5029	0.6176	-0.083
Mof_C 	C 	0.474	0.0553	0.0349	-0.246
Mof_C 	C 	0.0529	0.1603	0.5212	0.012
Mof_C 	C 	0.5351	0.29	0.4805	-0.083
Mof_C 	C 	0.6366	0.1525	0.3083	-0.007
Mof_C 	C 	0.3083	0.1558	0.6717	-0.007
Mof_C 	C 	0.2249	0.9227	0.4876	-0.003
Mof_C 	C 	0.8429	0.5994	0.3467	0.29
Mof_C 	C 	0.61571	0.28194	0.48945	-0.04
Mof_C 	C 	0.66623	0.79249	0.28194	-0.04
Mof_C 	C 	0.3283	0.6917	0.8442	-0.007
Mof_C 	C 	0.8787	0.1298	0.5231	-0.081
Mof_C 	C 	0.5195	0.4649	0.71	-0.083
Mof_C 	C 	0.8442	0.1525	0.5159	-0.007
Mof_C 	C 	0.4138	0.9438	0.9654	0.187
Mof_C 	C 	0.2511	0.6067	0.1298	-0.081
Mof_C 	C 	0.1213	0.6444	0.2511	-0.081
Mof_C 	C 	0.3363	0.78033	0.86123	0.037
Mof_C 	C 	0.6444	0.2511	0.1213	-0.081
Mof_C 	C 	0.4138	0.4484	0.47	0.187
Mof_C 	C 	0.0553	0.5813	0.0204	-0.246
Mof_C 	C 	0.3609	0.4683	0.5212	0.012
Mof_C 	C 	0.6717	0.3083	0.1558	-0.007
Mof_C 	C 	0.2527	0.4962	0.6533	0.29
Mof_C 	C 	0.71806	0.33377	0.20751	-0.04
Mof_C 	C 	0.6444	0.5231	0.3933	-0.081
Mof_C 	C 	0.0773	0.5124	0.7751	-0.003
Mof_C 	C 	0.71806	0.51055	0.38429	-0.04
Mof_C 	C 	0.7565	0.1571	0.5038	0.29
Mof_C 	C 	0.0204	0.0553	0.5813	-0.246
Mof_C 	C 	0.8702	0.4769	0.1213	-0.081
Mof_C 	C 	0.1905	0.71	0.2451	-0.083
Mof_C 	C 	0.4805	0.5351	0.29	-0.083
Mof_C 	C 	0.4805	0.1905	0.9454	-0.083
Mof_C 	C 	0.9604	0.8853	0.5029	-0.083
Mof_C 	C 	0.4841	0.6366	0.3283	-0.007
Mof_C 	C 	0.21967	0.13877	0.6637	0.037
Mof_C 	C 	0.4683	0.5212	0.3609	0.012
Mof_C 	C 	0.3467	0.7473	0.5038	0.29
Mof_C 	C 	0.47507	0.13877	0.9191	0.037
Mof_C 	C 	0.8853	0.9249	0.3824	-0.083
Mof_C 	C 	0.2511	0.1213	0.6444	-0.081
Mof_C 	C 	0.20751	0.87374	0.48945	-0.04
Mof_C 	C 	0.9651	0.526	0.9447	-0.246
Mof_C 	C 	0.9471	0.8397	0.4788	0.012
Mof_C 	C 	0.48945	0.20751	0.87374	-0.04
Mof_C 	C 	0.3022	0.5649	0.0773	-0.003
Mof_C 	C 	0.44403	0.6637	0.52493	0.037
Mof_C 	C 	0.71	0.2451	0.1905	-0.083
Mof_C 	C 	0.7373	0.5124	0.4351	-0.003
Mof_C 	C 	0.1603	0.1074	0.6391	0.012
Mof_C 	C 	0.13877	0.9191	0.47507	0.037
Mof_C 	C 	0.1147	0.0751	0.6176	-0.083
Mof_C 	C 	0.33377	0.20751	0.71806	-0.04
Mof_C 	C 	0.4187	0.474	0.4391	-0.246
Mof_C 	C 	0.3363	0.47507	0.55597	0.037
Mof_C 	C 	0.5649	0.2627	0.4876	-0.003
Mof_C 	C 	0.79249	0.12626	0.51055	-0.04
Mof_C 	C 	0.4971	0.0396	0.1147	-0.083
Mof_C 	C 	0.1558	0.8475	0.4841	-0.007
Mof_C 	C 	0.29	0.4805	0.5351	-0.083
Mof_C 	C 	0.47	0.4138	0.4484	0.187
Mof_C 	C 	0.71	0.5195	0.4649	-0.083
Mof_C 	C 	0.0751	0.9604	0.4575	-0.083
Mof_C 	C 	0.4187	0.9796	0.9447	-0.246
Mof_C 	C 	0.4649	0.71	0.5195	-0.083
Mof_C 	C 	0.7565	0.2527	0.5994	0.29
Mof_C 	C 	0.6917	0.3634	0.8475	-0.007
Mof_C 	C 	0.4769	0.6067	0.3556	-0.081
Mof_C 	C 	0.0773	0.3022	0.5649	-0.003
Mof_C 	C 	0.9604	0.4575	0.0751	-0.083
Mof_C 	C 	0.5862	0.5516	0.53	0.187
Mof_C 	C 	0.3634	0.6717	0.5159	-0.007
Mof_C 	C 	0.9438	0.9654	0.4138	0.187
Mof_C 	C 	0.5231	0.8787	0.1298	-0.081
Mof_C 	C 	0.1074	0.9471	0.4683	0.012
Mof_C 	C 	0.3634	0.8475	0.6917	-0.007
Mof_C 	C 	0.5516	0.9654	0.0216	0.187
Mof_C 	C 	0.55597	0.0809	0.21967	0.037
Mof_C 	C 	0.0396	0.5425	0.9249	-0.083
Mof_C 	C 	0.1571	0.4006	0.6533	0.29
Mof_C 	C 	0.4351	0.7373	0.5124	-0.003
Mof_C 	C 	0.5994	0.7565	0.2527	0.29
Mof_C 	C 	0.21967	0.55597	0.0809	0.037
Mof_C 	C 	0.4788	0.6391	0.5317	0.012
Mof_C 	C 	0.6978	0.7751	0.2627	-0.003
Mof_C 	C 	0.6533	0.2527	0.4962	0.29
Mof_C 	C 	0.9438	0.53	0.9784	0.187
Mof_C 	C 	0.0546	0.2451	0.5351	-0.083
Mof_C 	C 	0.87374	0.66623	0.38429	-0.04
Mof_C 	C 	0.4683	0.1074	0.9471	0.012
Mof_C 	C 	0.3556	0.7489	0.8787	-0.081
Mof_C 	C 	0.6067	0.3556	0.4769	-0.081
Mof_C 	C 	0.1298	0.2511	0.6067	-0.081
Mof_C 	C 	0.6391	0.5317	0.4788	0.012
Mof_C 	C 	0.6637	0.52493	0.44403	0.037
Mof_C 	C 	0.9454	0.7549	0.4649	-0.083
Mof_C 	C 	0.6717	0.5159	0.3634	-0.007
Mof_C 	C 	0.3022	0.2249	0.7373	-0.003
Mof_C 	C 	0.0751	0.6176	0.1147	-0.083
Mof_C 	C 	0.48945	0.61571	0.28194	-0.04
Mof_C 	C 	0.7751	0.2627	0.6978	-0.003
Mof_C 	C 	0.3283	0.4841	0.6366	-0.007
Mof_C 	C 	0.9454	0.4805	0.1905	-0.083
Mof_C 	C 	0.4649	0.9454	0.7549	-0.083
Mof_C 	C 	0.9796	0.5609	0.0349	-0.246
Mof_C 	C 	0.1147	0.4971	0.0396	-0.083
Mof_C 	C 	0.4484	0.0346	0.9784	0.187
Mof_C 	C 	0.9651	0.0204	0.4391	-0.246
Mof_C 	C 	0.51055	0.38429	0.71806	-0.04
Mof_C 	C 	0.0553	0.0349	0.474	-0.246
Mof_C 	C 	0.2249	0.7373	0.3022	-0.003
Mof_C 	C 	0.4876	0.5649	0.2627	-0.003
Mof_C 	C 	0.47	0.0216	0.0562	0.187
Mof_C 	C 	0.4391	0.4187	0.474	-0.246
Mof_C 	C 	0.66623	0.38429	0.87374	-0.04
Mof_C 	C 	0.8702	0.7489	0.3933	-0.081
Mof_C 	C 	0.5994	0.3467	0.8429	0.29
Mof_C 	C 	0.9447	0.4187	0.9796	-0.246
Mof_C 	C 	0.9191	0.47507	0.13877	0.037
Mof_C 	C 	0.4788	0.9471	0.8397	0.012
Mof_C 	C 	0.5609	0.5813	0.526	-0.246
Mof_C 	C 	0.53	0.5862	0.5516	0.187
Mof_C 	C 	0.0529	0.5317	0.8926	0.012
Mof_C 	C 	0.5195	0.8095	0.0546	-0.083
Mof_C 	C 	0.53	0.9784	0.9438	0.187
Mof_C 	C 	0.4006	0.2435	0.7473	0.29
Mof_C 	C 	0.1905	0.9454	0.4805	-0.083
Mof_C 	C 	0.5038	0.3467	0.7473	0.29
Mof_C 	C 	0.3933	0.8702	0.7489	-0.081
Mof_C 	C 	0.78033	0.86123	0.3363	0.037
Mof_C 	C 	0.7473	0.4006	0.2435	0.29
Mof_C 	C 	0.6176	0.1147	0.0751	-0.083
Mof_C 	C 	0.38429	0.87374	0.66623	-0.04
Mof_C 	C 	0.1074	0.6391	0.1603	0.012
Mof_C 	C 	0.2451	0.1905	0.71	-0.083
Mof_C 	C 	0.0562	0.47	0.0216	0.187
Mof_C 	C 	0.5212	0.3609	0.4683	0.012
Mof_C 	C 	0.3467	0.8429	0.5994	0.29
Mof_C 	C 	0.1525	0.3083	0.6366	-0.007
Mof_C 	C 	0.0346	0.9784	0.4484	0.187
Mof_C 	C 	0.2451	0.5351	0.0546	-0.083
Mof_C 	C 	0.4962	0.6533	0.2527	0.29
Mof_C 	C 	0.4971	0.3824	0.4575	-0.083
Mof_C 	C 	0.28194	0.48945	0.61571	-0.04
Mof_C 	C 	0.1213	0.8702	0.4769	-0.081
Mof_C 	C 	0.5124	0.7751	0.0773	-0.003
Mof_C 	C 	0.78033	0.44403	0.9191	0.037
Mof_C 	C 	0.9227	0.6978	0.4351	-0.003
Mof_C 	C 	0.3083	0.6366	0.1525	-0.007
Mof_C 	C 	0.5351	0.0546	0.2451	-0.083
Mof_C 	C 	0.474	0.4391	0.4187	-0.246
Mof_C 	C 	0.4391	0.9651	0.0204	-0.246
Mof_C 	C 	0.2435	0.8429	0.4962	0.29
Mof_C 	C 	0.61571	0.12626	0.33377	-0.04
Mof_C 	C 	0.8475	0.4841	0.1558	-0.007
Mof_C 	C 	0.28194	0.66623	0.79249	-0.04
Mof_C 	C 	0.12626	0.33377	0.61571	-0.04
Mof_C 	C 	0.3933	0.6444	0.5231	-0.081
Mof_C 	C 	0.8095	0.29	0.7549	-0.083
Mof_C 	C 	0.5862	0.0562	0.0346	0.187
Mof_C 	C 	0.8926	0.0529	0.5317	0.012
Mof_C 	C 	0.7751	0.0773	0.5124	-0.003
Mof_C 	C 	0.9784	0.9438	0.53	0.187
Mof_C 	C 	0.6176	0.5425	0.5029	-0.083
Mof_C 	C 	0.6637	0.21967	0.13877	0.037
Mof_C 	C 	0.9784	0.4484	0.0346	0.187
Mof_C 	C 	0.0396	0.1147	0.4971	-0.083
Mof_C 	C 	0.4351	0.9227	0.6978	-0.003
Mof_C 	C 	0.3824	0.4575	0.4971	-0.083
Mof_C 	C 	0.6533	0.1571	0.4006	0.29
Mof_C 	C 	0.9796	0.9447	0.4187	-0.246
Mof_C 	C 	0.6366	0.3283	0.4841	-0.007
Mof_C 	C 	0.3556	0.4769	0.6067	-0.081
Mof_C 	C 	0.8397	0.4788	0.9471	0.012
Mof_C 	C 	0.8926	0.3609	0.8397	0.012
Mof_C 	C 	0.51055	0.79249	0.12626	-0.04
Mof_C 	C 	0.86123	0.0809	0.52493	0.037
Mof_C 	C 	0.4876	0.2249	0.9227	-0.003
Mof_C 	C 	0.7549	0.8095	0.29	-0.083
Mof_C 	C 	0.55597	0.3363	0.47507	0.037
Mof_C 	C 	0.7549	0.4649	0.9454	-0.083
Mof_C 	C 	0.52493	0.86123	0.0809	0.037
Mof_C 	C 	0.1571	0.5038	0.7565	0.29
Mof_C 	C 	0.9191	0.78033	0.44403	0.037
Mof_C 	C 	0.5813	0.0204	0.0553	-0.246
Mof_C 	C 	0.5317	0.4788	0.6391	0.012
Mof_C 	C 	0.5212	0.0529	0.1603	0.012
Mof_C 	C 	0.12626	0.51055	0.79249	-0.04
Mof_C 	C 	0.8442	0.3283	0.6917	-0.007
Mof_C 	C 	0.4575	0.0751	0.9604	-0.083
Mof_C 	C 	0.5038	0.7565	0.1571	0.29
Mof_C 	C 	0.6067	0.1298	0.2511	-0.081
Mof_C 	C 	0.2527	0.5994	0.7565	0.29
Mof_C 	C 	0.0204	0.4391	0.9651	-0.246
Mof_C 	C 	0.2435	0.7473	0.4006	0.29
Mof_C 	C 	0.13877	0.6637	0.21967	0.037
Mof_C 	C 	0.47507	0.55597	0.3363	0.037
Mof_C 	C 	0.29	0.7549	0.8095	-0.083
Mof_C 	C 	0.9249	0.0396	0.5425	-0.083
Mof_C 	C 	0.8475	0.6917	0.3634	-0.007
Mof_C 	C 	0.87374	0.48945	0.20751	-0.04
Mof_C 	C 	0.4575	0.4971	0.3824	-0.083
Mof_C 	C 	0.4484	0.47	0.4138	0.187
Mof_C 	C 	0.7489	0.3933	0.8702	-0.081
Mof_C 	C 	0.2627	0.6978	0.7751	-0.003
Mof_C 	C 	0.526	0.9447	0.9651	-0.246
Mof_C 	C 	0.1525	0.5159	0.8442	-0.007
Mof_C 	C 	0.526	0.5609	0.5813	-0.246
Mof_C 	C 	0.0216	0.5516	0.9654	0.187
Mof_C 	C 	0.7473	0.5038	0.3467	0.29
Mof_C 	C 	0.5609	0.0349	0.9796	-0.246
Mof_C 	C 	0.1558	0.6717	0.3083	-0.007
Mof_C 	C 	0.4769	0.1213	0.8702	-0.081
Mof_C 	C 	0.0349	0.9796	0.5609	-0.246
Mof_C 	C 	0.5159	0.8442	0.1525	-0.007
Mof_C 	C 	0.0216	0.0562	0.47	0.187
Mof_C 	C 	0.3824	0.8853	0.9249	-0.083
Mof_C 	C 	0.1603	0.5212	0.0529	0.012
Mof_C 	C 	0.9471	0.4683	0.1074	0.012
Mof_C 	C 	0.5159	0.3634	0.6717	-0.007
Mof_C 	C 	0.9227	0.4876	0.2249	-0.003
Mof_C 	C 	0.2627	0.4876	0.5649	-0.003
Mof_C 	C 	0.5029	0.6176	0.5425	-0.083
Mof_C 	C 	0.5317	0.8926	0.0529	0.012
Mof_C 	C 	0.0349	0.474	0.0553	-0.246
Mof_C 	C 	0.6917	0.8442	0.3283	-0.007
Mof_C 	C 	0.5124	0.4351	0.7373	-0.003
Mof_C 	C 	0.9447	0.9651	0.526	-0.246
Mof_C 	C 	0.0809	0.21967	0.55597	0.037
Mof_C 	C 	0.8429	0.4962	0.2435	0.29
Mof_C 	C 	0.1298	0.5231	0.8787	-0.081
Mof_C 	C 	0.7373	0.3022	0.2249	-0.003
Mof_C 	C 	0.5649	0.0773	0.3022	-0.003
Mof_C 	C 	0.8787	0.3556	0.7489	-0.081
Mof_C 	C 	0.5516	0.53	0.5862	0.187
Mof_C 	C 	0.9249	0.3824	0.8853	-0.083
Mof_C 	C 	0.5425	0.9249	0.0396	-0.083
Mof_O 	O 	0.70063	0.28018	0.50079	-0.39
Mof_O 	O 	0.78974	0.50133	0.37091	-0.39
Mof_O 	O 	0.78974	0.41883	0.28841	-0.39
Mof_O 	O 	0.19984	0.42045	0.70063	-0.39
Mof_O 	O 	0.58117	0.37091	0.86958	-0.39
Mof_O 	O 	0.49921	0.29937	0.71982	-0.39
Mof_O 	O 	0.37091	0.78974	0.50133	-0.39
Mof_O 	O 	0.57955	0.29937	0.80016	-0.39
Mof_O 	O 	0.50079	0.22061	0.80016	-0.39
Mof_O 	O 	0.62909	0.13042	0.41883	-0.39
Mof_O 	O 	0.28018	0.50079	0.70063	-0.39
Mof_O 	O 	0.22061	0.71982	0.42045	-0.39
Mof_O 	O 	0.80016	0.57955	0.29937	-0.39
Mof_O 	O 	0.28841	0.78974	0.41883	-0.39
Mof_O 	O 	0.49867	0.28841	0.86958	-0.39
Mof_O 	O 	0.42045	0.22061	0.71982	-0.39
Mof_O 	O 	0.86958	0.58117	0.37091	-0.39
Mof_O 	O 	0.41883	0.62909	0.13042	-0.39
Mof_O 	O 	0.62909	0.21026	0.49867	-0.39
Mof_O 	O 	0.29937	0.80016	0.57955	-0.39
Mof_O 	O 	0.41883	0.28841	0.78974	-0.39
Mof_O 	O 	0.71159	0.21026	0.58117	-0.39
Mof_O 	O 	0.42045	0.70063	0.19984	-0.39
Mof_O 	O 	0.28841	0.86958	0.49867	-0.39
Mof_O 	O 	0.50079	0.70063	0.28018	-0.39
Mof_O 	O 	0.58117	0.71159	0.21026	-0.39
Mof_O 	O 	0.28018	0.57955	0.77939	-0.39
Mof_O 	O 	0.21026	0.58117	0.71159	-0.39
Mof_O 	O 	0.13042	0.41883	0.62909	-0.39
Mof_O 	O 	0.21026	0.49867	0.62909	-0.39
Mof_O 	O 	0.29937	0.71982	0.49921	-0.39
Mof_O 	O 	0.50133	0.37091	0.78974	-0.39
Mof_O 	O 	0.50133	0.71159	0.13042	-0.39
Mof_O 	O 	0.77939	0.28018	0.57955	-0.39
Mof_O 	O 	0.13042	0.50133	0.71159	-0.39
Mof_O 	O 	0.77939	0.19984	0.49921	-0.39
Mof_O 	O 	0.86958	0.49867	0.28841	-0.39
Mof_O 	O 	0.49867	0.62909	0.21026	-0.39
Mof_O 	O 	0.71982	0.42045	0.22061	-0.39
Mof_O 	O 	0.49921	0.77939	0.19984	-0.39
Mof_O 	O 	0.70063	0.19984	0.42045	-0.39
Mof_O 	O 	0.37091	0.86958	0.58117	-0.39
Mof_O 	O 	0.71159	0.13042	0.50133	-0.39
Mof_O 	O 	0.19984	0.49921	0.77939	-0.39
Mof_O 	O 	0.22061	0.80016	0.50079	-0.39
Mof_O 	O 	0.57955	0.77939	0.28018	-0.39
Mof_O 	O 	0.80016	0.50079	0.22061	-0.39
Mof_O 	O 	0.71982	0.49921	0.29937	-0.39
_end
