data_functionalizedCrystal
_audit_creation_method	'EQeq! by Chris Wilmer'
_symmetry_space_group_name_H-M	'P1'
_symmetry_Int_Tables_number	1
_symmetry_cell_setting	triclinic
loop_
_symmetry_equiv_pos_as_xyz
  x,y,z
_cell_length_a	24.225
_cell_length_b	9.6254
_cell_length_c	16.37
_cell_angle_alpha	90
_cell_angle_beta	118.54
_cell_angle_gamma	90
loop_
_atom_site_label
_atom_site_type_symbol
_atom_site_fract_x
_atom_site_fract_y
_atom_site_fract_z
_atom_site_charge
Mof_Cu	Cu	0.04177	0.38001	0.37793	0.82
Mof_Cu	Cu	0.04178	0.18003	0.03391	0.825
Mof_N 	N 	0.13637	0.0155	0.5255	-0.114
Mof_N 	N 	0.07839	0.0027	0.5174	-0.169
Mof_N 	N 	0.04587	0.1161	0.4808	-0.177
Mof_N 	N 	0.08105	0.2062	0.4632	-0.212
Mof_N 	N 	0.14096	0.2142	0.244	-0.11
Mof_N 	N 	0.08322	0.2375	0.1744	-0.167
Mof_N 	N 	0.04843	0.2956	0.2062	-0.179
Mof_N 	N 	0.08235	0.3099	0.2987	-0.21
Mof_N 	N 	0.0406	0.4388	0.9251	-0.227
Mof_C 	C 	0.2513	0.3018	0.4226	-0.047
Mof_H 	H 	0.2521	0.3366	0.3701	0.045
Mof_C 	C 	0.1946	0.2544	0.4143	-0.037
Mof_C 	C 	0.1928	0.201	0.4928	-0.04
Mof_C 	C 	0.1363	0.1417	0.4914	0.106
Mof_C 	C 	0.1389	0.2581	0.3201	0.103
Mof_C 	C 	0.0394	0.3361	0.9579	-0.208
Mof_Cu	Cu	0.54177	0.88001	0.37793	0.819
Mof_Cu	Cu	0.54178	0.68003	0.03391	0.825
Mof_N 	N 	0.63637	0.5155	0.5255	-0.115
Mof_N 	N 	0.57839	0.5027	0.5174	-0.17
Mof_N 	N 	0.54587	0.6161	0.4808	-0.177
Mof_N 	N 	0.58105	0.7062	0.4632	-0.212
Mof_N 	N 	0.64096	0.7142	0.244	-0.11
Mof_N 	N 	0.58322	0.7375	0.1744	-0.167
Mof_N 	N 	0.54843	0.7956	0.2062	-0.179
Mof_N 	N 	0.58235	0.8099	0.2987	-0.21
Mof_N 	N 	0.5406	0.9388	0.9251	-0.227
Mof_C 	C 	0.7513	0.8018	0.4226	-0.047
Mof_H 	H 	0.7521	0.8366	0.3701	0.045
Mof_C 	C 	0.6946	0.7544	0.4143	-0.037
Mof_C 	C 	0.6928	0.701	0.4928	-0.04
Mof_C 	C 	0.6363	0.6417	0.4914	0.106
Mof_C 	C 	0.6389	0.7581	0.3201	0.103
Mof_C 	C 	0.5394	0.8361	0.9579	-0.209
Mof_Cu	Cu	0.95823	0.38001	0.12207	0.82
Mof_Cu	Cu	0.95822	0.18003	0.46609	0.825
Mof_N 	N 	0.86363	0.0155	0.9745	-0.116
Mof_N 	N 	0.92161	0.0027	0.9826	-0.172
Mof_N 	N 	0.95413	0.1161	0.0192	-0.175
Mof_N 	N 	0.91895	0.2062	0.0368	-0.211
Mof_N 	N 	0.85904	0.2142	0.256	-0.11
Mof_N 	N 	0.91678	0.2375	0.3256	-0.166
Mof_N 	N 	0.95157	0.2956	0.2938	-0.178
Mof_N 	N 	0.91765	0.3099	0.2013	-0.21
Mof_N 	N 	0.9594	0.4388	0.5749	-0.227
Mof_C 	C 	0.7487	0.3018	0.0774	-0.044
Mof_H 	H 	0.7479	0.3366	0.1299	0.044
Mof_C 	C 	0.8054	0.2544	0.0857	-0.039
Mof_C 	C 	0.8072	0.201	0.0072	-0.037
Mof_C 	C 	0.8637	0.1417	0.0086	0.107
Mof_C 	C 	0.8611	0.2581	0.1799	0.104
Mof_C 	C 	0.9606	0.3361	0.5421	-0.209
Mof_Cu	Cu	0.45823	0.88001	0.12207	0.819
Mof_Cu	Cu	0.45822	0.68003	0.46609	0.825
Mof_N 	N 	0.36363	0.5155	0.9745	-0.114
Mof_N 	N 	0.42161	0.5027	0.9826	-0.17
Mof_N 	N 	0.45413	0.6161	0.0192	-0.177
Mof_N 	N 	0.41895	0.7062	0.0368	-0.212
Mof_N 	N 	0.35904	0.7142	0.256	-0.11
Mof_N 	N 	0.41678	0.7375	0.3256	-0.167
Mof_N 	N 	0.45157	0.7956	0.2938	-0.179
Mof_N 	N 	0.41765	0.8099	0.2013	-0.21
Mof_N 	N 	0.4594	0.9388	0.5749	-0.227
Mof_C 	C 	0.2487	0.8018	0.0774	-0.05
Mof_H 	H 	0.2479	0.8366	0.1299	0.046
Mof_C 	C 	0.3054	0.7544	0.0857	-0.036
Mof_C 	C 	0.3072	0.701	0.0072	-0.042
Mof_C 	C 	0.3637	0.6417	0.0086	0.106
Mof_C 	C 	0.3611	0.7581	0.1799	0.103
Mof_C 	C 	0.4606	0.8361	0.5421	-0.209
Mof_Cu	Cu	0.95823	0.61999	0.62207	0.819
Mof_Cu	Cu	0.95822	0.81997	0.96609	0.824
Mof_N 	N 	0.86363	0.9845	0.4745	-0.115
Mof_N 	N 	0.92161	0.9973	0.4826	-0.17
Mof_N 	N 	0.95413	0.8839	0.5192	-0.177
Mof_N 	N 	0.91895	0.7938	0.5368	-0.212
Mof_N 	N 	0.85904	0.7858	0.756	-0.11
Mof_N 	N 	0.91678	0.7625	0.8256	-0.167
Mof_N 	N 	0.95157	0.7044	0.7938	-0.179
Mof_N 	N 	0.91765	0.6901	0.7013	-0.21
Mof_N 	N 	0.9594	0.5612	0.0749	-0.227
Mof_C 	C 	0.7487	0.6982	0.5774	-0.047
Mof_H 	H 	0.7479	0.6634	0.6299	0.045
Mof_C 	C 	0.8054	0.7456	0.5857	-0.037
Mof_C 	C 	0.8072	0.799	0.5072	-0.04
Mof_C 	C 	0.8637	0.8583	0.5086	0.106
Mof_C 	C 	0.8611	0.7419	0.6799	0.103
Mof_C 	C 	0.9606	0.6639	0.0421	-0.208
Mof_Cu	Cu	0.45823	0.11999	0.62207	0.819
Mof_Cu	Cu	0.45822	0.31997	0.96609	0.825
Mof_N 	N 	0.36363	0.4845	0.4745	-0.115
Mof_N 	N 	0.42161	0.4973	0.4826	-0.17
Mof_N 	N 	0.45413	0.3839	0.5192	-0.177
Mof_N 	N 	0.41895	0.2938	0.5368	-0.212
Mof_N 	N 	0.35904	0.2858	0.756	-0.11
Mof_N 	N 	0.41678	0.2625	0.8256	-0.167
Mof_N 	N 	0.45157	0.2044	0.7938	-0.179
Mof_N 	N 	0.41765	0.1901	0.7013	-0.21
Mof_N 	N 	0.4594	0.0612	0.0749	-0.227
Mof_C 	C 	0.2487	0.1982	0.5774	-0.047
Mof_H 	H 	0.2479	0.1634	0.6299	0.045
Mof_C 	C 	0.3054	0.2456	0.5857	-0.037
Mof_C 	C 	0.3072	0.299	0.5072	-0.04
Mof_C 	C 	0.3637	0.3583	0.5086	0.106
Mof_C 	C 	0.3611	0.2419	0.6799	0.103
Mof_C 	C 	0.4606	0.1639	0.0421	-0.209
Mof_Cu	Cu	0.04177	0.61999	0.87793	0.82
Mof_Cu	Cu	0.04178	0.81997	0.53391	0.825
Mof_N 	N 	0.13637	0.9845	0.0255	-0.116
Mof_N 	N 	0.07839	0.9973	0.0174	-0.172
Mof_N 	N 	0.04587	0.8839	0.9808	-0.175
Mof_N 	N 	0.08105	0.7938	0.9632	-0.211
Mof_N 	N 	0.14096	0.7858	0.744	-0.11
Mof_N 	N 	0.08322	0.7625	0.6744	-0.166
Mof_N 	N 	0.04843	0.7044	0.7062	-0.178
Mof_N 	N 	0.08235	0.6901	0.7987	-0.21
Mof_N 	N 	0.0406	0.5612	0.4251	-0.227
Mof_C 	C 	0.2513	0.6982	0.9226	-0.044
Mof_H 	H 	0.2521	0.6634	0.8701	0.044
Mof_C 	C 	0.1946	0.7456	0.9143	-0.039
Mof_C 	C 	0.1928	0.799	0.9928	-0.037
Mof_C 	C 	0.1363	0.8583	0.9914	0.107
Mof_C 	C 	0.1389	0.7419	0.8201	0.104
Mof_C 	C 	0.0394	0.6639	0.4579	-0.209
Mof_Cu	Cu	0.54177	0.11999	0.87793	0.819
Mof_Cu	Cu	0.54178	0.31997	0.53391	0.825
Mof_N 	N 	0.63637	0.4845	0.0255	-0.114
Mof_N 	N 	0.57839	0.4973	0.0174	-0.17
Mof_N 	N 	0.54587	0.3839	0.9808	-0.177
Mof_N 	N 	0.58105	0.2938	0.9632	-0.212
Mof_N 	N 	0.64096	0.2858	0.744	-0.11
Mof_N 	N 	0.58322	0.2625	0.6744	-0.167
Mof_N 	N 	0.54843	0.2044	0.7062	-0.179
Mof_N 	N 	0.58235	0.1901	0.7987	-0.21
Mof_N 	N 	0.5406	0.0612	0.4251	-0.227
Mof_C 	C 	0.7513	0.1982	0.9226	-0.05
Mof_H 	H 	0.7521	0.1634	0.8701	0.046
Mof_C 	C 	0.6946	0.2456	0.9143	-0.036
Mof_C 	C 	0.6928	0.299	0.9928	-0.042
Mof_C 	C 	0.6363	0.3583	0.9914	0.106
Mof_C 	C 	0.6389	0.2419	0.8201	0.103
Mof_C 	C 	0.5394	0.1639	0.4579	-0.209
_end
