data_functionalizedCrystal
_audit_creation_method	'EQeq! by Chris Wilmer'
_symmetry_space_group_name_H-M	'P1'
_symmetry_Int_Tables_number	1
_symmetry_cell_setting	triclinic
loop_
_symmetry_equiv_pos_as_xyz
  x,y,z
_cell_length_a	14.084
_cell_length_b	21.632
_cell_length_c	25.794
_cell_angle_alpha	106.27
_cell_angle_beta	90
_cell_angle_gamma	90
loop_
_atom_site_label
_atom_site_type_symbol
_atom_site_fract_x
_atom_site_fract_y
_atom_site_fract_z
_atom_site_charge
Mof_Zn	Zn	0.87154	0.6101	0.71156	1.207
Mof_Zn	Zn	0.37719	0.88139	0.7737	1.19
Mof_Zn	Zn	0.37167	0.5755	0.6007	1.188
Mof_Zn	Zn	0.8577	0.91621	0.87629	1.187
Mof_Zn	Zn	0.37154	0.3899	0.78844	1.207
Mof_Zn	Zn	0.87719	0.11861	0.7263	1.189
Mof_Zn	Zn	0.87167	0.4245	0.8993	1.188
Mof_Zn	Zn	0.3577	0.08379	0.62371	1.187
Mof_Zn	Zn	0.12846	0.3899	0.28844	1.207
Mof_Zn	Zn	0.62281	0.11861	0.2263	1.19
Mof_Zn	Zn	0.62833	0.4245	0.3993	1.188
Mof_Zn	Zn	0.1423	0.08379	0.12371	1.187
Mof_Zn	Zn	0.62846	0.6101	0.21156	1.207
Mof_Zn	Zn	0.12281	0.88139	0.2737	1.189
Mof_Zn	Zn	0.12833	0.5755	0.1007	1.188
Mof_Zn	Zn	0.6423	0.91621	0.37629	1.187
Mof_H 	H 	0.6695	0.5819	0.6627	0.009
Mof_H 	H 	0.6656	0.4385	0.7619	0.064
Mof_H 	H 	0.7995	0.4957	0.756	0.033
Mof_H 	H 	0.0754	0.6016	0.6689	0.014
Mof_H 	H 	0.083	0.814	0.762	0.065
Mof_H 	H 	0.9452	0.7518	0.758	0.033
Mof_H 	H 	0.1945	0.9133	0.8334	-0.008
Mof_H 	H 	0.155	0.031	0.713	0.065
Mof_H 	H 	0.2913	0.9762	0.7168	0.002
Mof_H 	H 	0.5755	0.8801	0.809	-0.005
Mof_H 	H 	0.5813	0.6904	0.6767	0.076
Mof_H 	H 	0.4452	0.7492	0.6978	0.019
Mof_H 	H 	0.903	0.4799	0.6336	-0.002
Mof_H 	H 	0.968	0.4331	0.5508	0.075
Mof_H 	H 	0.9712	0.6063	0.5239	0.076
Mof_H 	H 	0.9054	0.6477	0.6073	0.008
Mof_H 	H 	0.6293	0.7708	0.3582	0.001
Mof_H 	H 	0.5713	0.6991	0.4001	0.097
Mof_H 	H 	0.5075	0.6331	0.4386	0.085
Mof_H 	H 	0.4466	0.5675	0.4859	-0.039
Mof_H 	H 	0.3802	0.7146	0.6058	0.009
Mof_H 	H 	0.443	0.7839	0.5633	0.084
Mof_H 	H 	0.4927	0.8457	0.5243	0.08
Mof_H 	H 	0.5515	0.9145	0.4795	-0.028
Mof_H 	H 	0.1695	0.4181	0.8373	0.009
Mof_H 	H 	0.1656	0.5615	0.7381	0.064
Mof_H 	H 	0.2995	0.5043	0.744	0.033
Mof_H 	H 	0.5754	0.3984	0.8311	0.014
Mof_H 	H 	0.583	0.186	0.738	0.065
Mof_H 	H 	0.4452	0.2482	0.742	0.032
Mof_H 	H 	0.6945	0.0867	0.6666	-0.008
Mof_H 	H 	0.655	0.969	0.787	0.065
Mof_H 	H 	0.7913	0.0238	0.7832	0.002
Mof_H 	H 	0.0755	0.1199	0.691	-0.006
Mof_H 	H 	0.0813	0.3096	0.8233	0.077
Mof_H 	H 	0.9452	0.2508	0.8022	0.017
Mof_H 	H 	0.403	0.5201	0.8664	-0.002
Mof_H 	H 	0.468	0.5669	0.9492	0.076
Mof_H 	H 	0.4712	0.3937	0.9761	0.076
Mof_H 	H 	0.4054	0.3523	0.8927	0.008
Mof_H 	H 	0.1293	0.2292	0.1418	0.001
Mof_H 	H 	0.0713	0.3009	0.0999	0.096
Mof_H 	H 	0.0075	0.3669	0.0614	0.082
Mof_H 	H 	0.9466	0.4325	0.0141	-0.036
Mof_H 	H 	0.8802	0.2854	0.8942	0.009
Mof_H 	H 	0.943	0.2161	0.9367	0.084
Mof_H 	H 	0.9927	0.1543	0.9757	0.079
Mof_H 	H 	0.0515	0.0855	0.0205	-0.028
Mof_H 	H 	0.3305	0.4181	0.3373	0.009
Mof_H 	H 	0.3344	0.5615	0.2381	0.064
Mof_H 	H 	0.2005	0.5043	0.244	0.033
Mof_H 	H 	0.9246	0.3984	0.3311	0.014
Mof_H 	H 	0.917	0.186	0.238	0.065
Mof_H 	H 	0.0548	0.2482	0.242	0.033
Mof_H 	H 	0.8055	0.0867	0.1666	-0.008
Mof_H 	H 	0.845	0.969	0.287	0.065
Mof_H 	H 	0.7087	0.0238	0.2832	0.002
Mof_H 	H 	0.4245	0.1199	0.191	-0.005
Mof_H 	H 	0.4187	0.3096	0.3233	0.076
Mof_H 	H 	0.5548	0.2508	0.3022	0.019
Mof_H 	H 	0.097	0.5201	0.3664	-0.002
Mof_H 	H 	0.032	0.5669	0.4492	0.075
Mof_H 	H 	0.0288	0.3937	0.4761	0.076
Mof_H 	H 	0.0946	0.3523	0.3927	0.008
Mof_H 	H 	0.3707	0.2292	0.6418	0.001
Mof_H 	H 	0.4287	0.3009	0.5999	0.097
Mof_H 	H 	0.4925	0.3669	0.5614	0.085
Mof_H 	H 	0.5534	0.4325	0.5141	-0.039
Mof_H 	H 	0.6198	0.2854	0.3942	0.009
Mof_H 	H 	0.557	0.2161	0.4367	0.084
Mof_H 	H 	0.5073	0.1543	0.4757	0.08
Mof_H 	H 	0.4485	0.0855	0.5205	-0.028
Mof_H 	H 	0.8305	0.5819	0.1627	0.009
Mof_H 	H 	0.8344	0.4385	0.2619	0.064
Mof_H 	H 	0.7005	0.4957	0.256	0.033
Mof_H 	H 	0.4246	0.6016	0.1689	0.014
Mof_H 	H 	0.417	0.814	0.262	0.065
Mof_H 	H 	0.5548	0.7518	0.258	0.032
Mof_H 	H 	0.3055	0.9133	0.3334	-0.008
Mof_H 	H 	0.345	0.031	0.213	0.065
Mof_H 	H 	0.2087	0.9762	0.2168	0.002
Mof_H 	H 	0.9245	0.8801	0.309	-0.006
Mof_H 	H 	0.9187	0.6904	0.1767	0.077
Mof_H 	H 	0.0548	0.7492	0.1978	0.017
Mof_H 	H 	0.597	0.4799	0.1336	-0.002
Mof_H 	H 	0.532	0.4331	0.0508	0.076
Mof_H 	H 	0.5288	0.6063	0.0239	0.076
Mof_H 	H 	0.5946	0.6477	0.1073	0.008
Mof_H 	H 	0.8707	0.7708	0.8582	0.001
Mof_H 	H 	0.9287	0.6991	0.9001	0.096
Mof_H 	H 	0.9925	0.6331	0.9386	0.082
Mof_H 	H 	0.0534	0.5675	0.9859	-0.036
Mof_H 	H 	0.1198	0.7146	0.1058	0.009
Mof_H 	H 	0.057	0.7839	0.0633	0.084
Mof_H 	H 	0.0073	0.8457	0.0243	0.079
Mof_H 	H 	0.9485	0.9145	0.9795	-0.028
Mof_C 	C 	0.6683	0.5529	0.6834	0.065
Mof_C 	C 	0.5841	0.5208	0.6858	-0.085
Mof_C 	C 	0.4954	0.5379	0.6596	0.338
Mof_C 	C 	0.5811	0.476	0.7155	-0.014
Mof_C 	C 	0.4954	0.4358	0.7191	0.341
Mof_C 	C 	0.6643	0.4678	0.7415	-0.066
Mof_C 	C 	0.7451	0.5023	0.7378	0.041
Mof_C 	C 	0.0765	0.645	0.6881	0.066
Mof_C 	C 	0.1609	0.6782	0.6887	-0.085
Mof_C 	C 	0.2459	0.6432	0.6602	0.326
Mof_C 	C 	0.1627	0.7435	0.7167	-0.007
Mof_C 	C 	0.2482	0.7864	0.7194	0.327
Mof_C 	C 	0.08	0.7705	0.7423	-0.068
Mof_C 	C 	0.9996	0.7328	0.74	0.048
Mof_C 	C 	0.1858	0.9377	0.8093	0.065
Mof_C 	C 	0.1003	0.9695	0.811	-0.091
Mof_C 	C 	0.0248	0.9572	0.8483	0.347
Mof_C 	C 	0.0872	0.0063	0.7752	0
Mof_C 	C 	0.9998	0.0476	0.7755	0.334
Mof_C 	C 	0.1606	0.0078	0.7395	-0.082
Mof_C 	C 	0.243	0.9744	0.741	0.066
Mof_C 	C 	0.5775	0.8415	0.7816	0.067
Mof_C 	C 	0.6633	0.8099	0.7712	-0.094
Mof_C 	C 	0.7485	0.8411	0.8025	0.336
Mof_C 	C 	0.6665	0.7513	0.731	0.009
Mof_C 	C 	0.753	0.7091	0.7155	0.306
Mof_C 	C 	0.5822	0.7293	0.7037	-0.092
Mof_C 	C 	0.5005	0.7648	0.7167	0.068
Mof_C 	C 	0.9168	0.5057	0.6112	0.08
Mof_C 	C 	0.956	0.4772	0.5614	-0.135
Mof_C 	C 	0.9776	0.5144	0.527	0.055
Mof_C 	C 	0.9579	0.5793	0.5454	-0.132
Mof_C 	C 	0.9184	0.6038	0.5958	0.075
Mof_C 	C 	0.6015	0.7863	0.3921	0.085
Mof_C 	C 	0.5667	0.743	0.4173	-0.144
Mof_C 	C 	0.5251	0.763	0.4674	0.065
Mof_C 	C 	0.4852	0.7177	0.4957	0.06
Mof_C 	C 	0.4833	0.651	0.4731	-0.147
Mof_C 	C 	0.4458	0.6118	0.5017	0.088
Mof_C 	C 	0.4075	0.6977	0.5719	0.076
Mof_C 	C 	0.4449	0.7399	0.5463	-0.133
Mof_C 	C 	0.5202	0.8292	0.4904	-0.14
Mof_C 	C 	0.556	0.8704	0.4633	0.083
Mof_C 	C 	0.1683	0.4471	0.8166	0.065
Mof_C 	C 	0.0841	0.4792	0.8142	-0.083
Mof_C 	C 	0.9954	0.4621	0.8404	0.335
Mof_C 	C 	0.0811	0.524	0.7845	-0.014
Mof_C 	C 	0.9954	0.5642	0.7809	0.341
Mof_C 	C 	0.1643	0.5322	0.7585	-0.066
Mof_C 	C 	0.2451	0.4977	0.7622	0.041
Mof_C 	C 	0.5765	0.355	0.8119	0.066
Mof_C 	C 	0.6609	0.3218	0.8113	-0.086
Mof_C 	C 	0.7459	0.3568	0.8398	0.326
Mof_C 	C 	0.6627	0.2565	0.7833	-0.007
Mof_C 	C 	0.7482	0.2136	0.7806	0.327
Mof_C 	C 	0.58	0.2295	0.7577	-0.069
Mof_C 	C 	0.4996	0.2672	0.76	0.049
Mof_C 	C 	0.6858	0.0623	0.6907	0.065
Mof_C 	C 	0.6003	0.0305	0.689	-0.09
Mof_C 	C 	0.5248	0.0428	0.6517	0.346
Mof_C 	C 	0.5872	0.9937	0.7248	-0.001
Mof_C 	C 	0.4998	0.9524	0.7245	0.335
Mof_C 	C 	0.6606	0.9922	0.7605	-0.082
Mof_C 	C 	0.743	0.0256	0.759	0.065
Mof_C 	C 	0.0775	0.1585	0.7184	0.069
Mof_C 	C 	0.1633	0.1901	0.7288	-0.095
Mof_C 	C 	0.2485	0.1589	0.6975	0.337
Mof_C 	C 	0.1665	0.2487	0.769	0.01
Mof_C 	C 	0.253	0.2909	0.7845	0.306
Mof_C 	C 	0.0822	0.2707	0.7963	-0.094
Mof_C 	C 	0.0005	0.2352	0.7833	0.072
Mof_C 	C 	0.4168	0.4943	0.8888	0.08
Mof_C 	C 	0.456	0.5228	0.9386	-0.135
Mof_C 	C 	0.4776	0.4856	0.973	0.055
Mof_C 	C 	0.4579	0.4207	0.9546	-0.132
Mof_C 	C 	0.4184	0.3962	0.9042	0.076
Mof_C 	C 	0.1015	0.2137	0.1079	0.085
Mof_C 	C 	0.0667	0.257	0.0827	-0.144
Mof_C 	C 	0.0251	0.237	0.0326	0.064
Mof_C 	C 	0.9852	0.2823	0.0043	0.061
Mof_C 	C 	0.9833	0.349	0.0269	-0.141
Mof_C 	C 	0.9458	0.3882	0.9983	0.081
Mof_C 	C 	0.9075	0.3023	0.9281	0.077
Mof_C 	C 	0.9449	0.2601	0.9537	-0.134
Mof_C 	C 	0.0202	0.1708	0.0096	-0.139
Mof_C 	C 	0.056	0.1296	0.0367	0.082
Mof_C 	C 	0.3317	0.4471	0.3166	0.065
Mof_C 	C 	0.4159	0.4792	0.3142	-0.085
Mof_C 	C 	0.5046	0.4621	0.3404	0.338
Mof_C 	C 	0.4189	0.524	0.2845	-0.014
Mof_C 	C 	0.5046	0.5642	0.2809	0.341
Mof_C 	C 	0.3357	0.5322	0.2585	-0.066
Mof_C 	C 	0.2549	0.4977	0.2622	0.041
Mof_C 	C 	0.9235	0.355	0.3119	0.066
Mof_C 	C 	0.8391	0.3218	0.3113	-0.085
Mof_C 	C 	0.7541	0.3568	0.3398	0.326
Mof_C 	C 	0.8373	0.2565	0.2833	-0.007
Mof_C 	C 	0.7518	0.2136	0.2806	0.327
Mof_C 	C 	0.92	0.2295	0.2577	-0.068
Mof_C 	C 	0.0004	0.2672	0.26	0.048
Mof_C 	C 	0.8142	0.0623	0.1907	0.065
Mof_C 	C 	0.8997	0.0305	0.189	-0.091
Mof_C 	C 	0.9752	0.0428	0.1517	0.347
Mof_C 	C 	0.9128	0.9937	0.2248	0
Mof_C 	C 	0.0002	0.9524	0.2245	0.334
Mof_C 	C 	0.8394	0.9922	0.2605	-0.082
Mof_C 	C 	0.757	0.0256	0.259	0.066
Mof_C 	C 	0.4225	0.1585	0.2184	0.067
Mof_C 	C 	0.3367	0.1901	0.2288	-0.094
Mof_C 	C 	0.2515	0.1589	0.1975	0.336
Mof_C 	C 	0.3335	0.2487	0.269	0.009
Mof_C 	C 	0.247	0.2909	0.2845	0.306
Mof_C 	C 	0.4178	0.2707	0.2963	-0.092
Mof_C 	C 	0.4995	0.2352	0.2833	0.068
Mof_C 	C 	0.0832	0.4943	0.3888	0.08
Mof_C 	C 	0.044	0.5228	0.4386	-0.135
Mof_C 	C 	0.0224	0.4856	0.473	0.055
Mof_C 	C 	0.0421	0.4207	0.4546	-0.132
Mof_C 	C 	0.0816	0.3962	0.4042	0.075
Mof_C 	C 	0.3985	0.2137	0.6079	0.085
Mof_C 	C 	0.4333	0.257	0.5827	-0.144
Mof_C 	C 	0.4749	0.237	0.5326	0.065
Mof_C 	C 	0.5148	0.2823	0.5043	0.06
Mof_C 	C 	0.5167	0.349	0.5269	-0.147
Mof_C 	C 	0.5542	0.3882	0.4983	0.088
Mof_C 	C 	0.5925	0.3023	0.4281	0.076
Mof_C 	C 	0.5551	0.2601	0.4537	-0.133
Mof_C 	C 	0.4798	0.1708	0.5096	-0.14
Mof_C 	C 	0.444	0.1296	0.5367	0.083
Mof_C 	C 	0.8317	0.5529	0.1834	0.065
Mof_C 	C 	0.9159	0.5208	0.1858	-0.083
Mof_C 	C 	0.0046	0.5379	0.1596	0.335
Mof_C 	C 	0.9189	0.476	0.2155	-0.014
Mof_C 	C 	0.0046	0.4358	0.2191	0.341
Mof_C 	C 	0.8357	0.4678	0.2415	-0.066
Mof_C 	C 	0.7549	0.5023	0.2378	0.041
Mof_C 	C 	0.4235	0.645	0.1881	0.066
Mof_C 	C 	0.3391	0.6782	0.1887	-0.086
Mof_C 	C 	0.2541	0.6432	0.1602	0.326
Mof_C 	C 	0.3373	0.7435	0.2167	-0.007
Mof_C 	C 	0.2518	0.7864	0.2194	0.327
Mof_C 	C 	0.42	0.7705	0.2423	-0.069
Mof_C 	C 	0.5004	0.7328	0.24	0.049
Mof_C 	C 	0.3142	0.9377	0.3093	0.065
Mof_C 	C 	0.3997	0.9695	0.311	-0.09
Mof_C 	C 	0.4752	0.9572	0.3483	0.346
Mof_C 	C 	0.4128	0.0063	0.2752	-0.001
Mof_C 	C 	0.5002	0.0476	0.2755	0.335
Mof_C 	C 	0.3394	0.0078	0.2395	-0.082
Mof_C 	C 	0.257	0.9744	0.241	0.065
Mof_C 	C 	0.9225	0.8415	0.2816	0.069
Mof_C 	C 	0.8367	0.8099	0.2712	-0.095
Mof_C 	C 	0.7515	0.8411	0.3025	0.337
Mof_C 	C 	0.8335	0.7513	0.231	0.01
Mof_C 	C 	0.747	0.7091	0.2155	0.306
Mof_C 	C 	0.9178	0.7293	0.2037	-0.094
Mof_C 	C 	0.9995	0.7648	0.2167	0.072
Mof_C 	C 	0.5832	0.5057	0.1112	0.08
Mof_C 	C 	0.544	0.4772	0.0614	-0.135
Mof_C 	C 	0.5224	0.5144	0.027	0.055
Mof_C 	C 	0.5421	0.5793	0.0454	-0.132
Mof_C 	C 	0.5816	0.6038	0.0958	0.076
Mof_C 	C 	0.8985	0.7863	0.8921	0.085
Mof_C 	C 	0.9333	0.743	0.9173	-0.144
Mof_C 	C 	0.9749	0.763	0.9674	0.064
Mof_C 	C 	0.0148	0.7177	0.9957	0.061
Mof_C 	C 	0.0167	0.651	0.9731	-0.141
Mof_C 	C 	0.0542	0.6118	0.0017	0.081
Mof_C 	C 	0.0925	0.6977	0.0719	0.077
Mof_C 	C 	0.0551	0.7399	0.0463	-0.134
Mof_C 	C 	0.9798	0.8292	0.9904	-0.139
Mof_C 	C 	0.944	0.8704	0.9633	0.082
Mof_N 	N 	0.7479	0.5449	0.70876	-0.218
Mof_N 	N 	0.9971	0.6705	0.71312	-0.224
Mof_N 	N 	0.257	0.9397	0.77546	-0.249
Mof_N 	N 	0.4967	0.8207	0.75508	-0.249
Mof_N 	N 	0.8978	0.5682	0.62893	-0.251
Mof_N 	N 	0.597	0.8501	0.4146	-0.275
Mof_N 	N 	0.4081	0.6339	0.5511	-0.266
Mof_N 	N 	0.2479	0.4551	0.79124	-0.218
Mof_N 	N 	0.4971	0.3295	0.78688	-0.224
Mof_N 	N 	0.757	0.0603	0.72454	-0.249
Mof_N 	N 	0.9967	0.1793	0.74492	-0.25
Mof_N 	N 	0.3978	0.4318	0.87107	-0.251
Mof_N 	N 	0.097	0.1499	0.0854	-0.275
Mof_N 	N 	0.9081	0.3661	0.9489	-0.265
Mof_N 	N 	0.2521	0.4551	0.29124	-0.218
Mof_N 	N 	0.0029	0.3295	0.28688	-0.224
Mof_N 	N 	0.743	0.0603	0.22454	-0.249
Mof_N 	N 	0.5033	0.1793	0.24492	-0.249
Mof_N 	N 	0.1022	0.4318	0.37107	-0.251
Mof_N 	N 	0.403	0.1499	0.5854	-0.275
Mof_N 	N 	0.5919	0.3661	0.4489	-0.266
Mof_N 	N 	0.7521	0.5449	0.20876	-0.218
Mof_N 	N 	0.5029	0.6705	0.21312	-0.224
Mof_N 	N 	0.243	0.9397	0.27546	-0.249
Mof_N 	N 	0.0033	0.8207	0.25508	-0.25
Mof_N 	N 	0.6022	0.5682	0.12893	-0.251
Mof_N 	N 	0.903	0.8501	0.9146	-0.275
Mof_N 	N 	0.0919	0.6339	0.0511	-0.265
Mof_O 	O 	0.5063	0.5656	0.62317	-0.457
Mof_O 	O 	0.4172	0.5259	0.6744	-0.352
Mof_O 	O 	0.4755	0.3909	0.67973	-0.297
Mof_O 	O 	0.4541	0.45141	0.76406	-0.44
Mof_O 	O 	0.2329	0.5919	0.62324	-0.444
Mof_O 	O 	0.3267	0.6652	0.67258	-0.357
Mof_O 	O 	0.2715	0.8027	0.6791	-0.298
Mof_O 	O 	0.2867	0.80483	0.76502	-0.437
Mof_O 	O 	0.048	0.9537	0.8935	-0.339
Mof_O 	O 	0.9421	0.94939	0.82987	-0.46
Mof_O 	O 	0.9759	0.0839	0.8193	-0.297
Mof_O 	O 	0.9627	0.04383	0.73088	-0.446
Mof_O 	O 	0.7327	0.88881	0.84402	-0.472
Mof_O 	O 	0.8283	0.82157	0.78776	-0.327
Mof_O 	O 	0.7839	0.7007	0.6694	-0.306
Mof_O 	O 	0.7832	0.68144	0.7493	-0.425
Mof_O 	O 	0.0063	0.4344	0.87683	-0.455
Mof_O 	O 	0.9172	0.4741	0.8256	-0.352
Mof_O 	O 	0.9755	0.6091	0.82027	-0.297
Mof_O 	O 	0.9541	0.54859	0.73594	-0.44
Mof_O 	O 	0.7329	0.4081	0.87676	-0.444
Mof_O 	O 	0.8267	0.3348	0.82742	-0.357
Mof_O 	O 	0.7715	0.1973	0.8209	-0.298
Mof_O 	O 	0.7867	0.19517	0.73498	-0.437
Mof_O 	O 	0.548	0.0463	0.6065	-0.34
Mof_O 	O 	0.4421	0.05061	0.67013	-0.459
Mof_O 	O 	0.4759	0.9161	0.6807	-0.297
Mof_O 	O 	0.4627	0.95617	0.76912	-0.446
Mof_O 	O 	0.2327	0.11119	0.65598	-0.473
Mof_O 	O 	0.3283	0.17843	0.71224	-0.327
Mof_O 	O 	0.2839	0.2993	0.8306	-0.306
Mof_O 	O 	0.2832	0.31856	0.7507	-0.425
Mof_O 	O 	0.4937	0.4344	0.37683	-0.457
Mof_O 	O 	0.5828	0.4741	0.3256	-0.352
Mof_O 	O 	0.5245	0.6091	0.32027	-0.297
Mof_O 	O 	0.5459	0.54859	0.23594	-0.44
Mof_O 	O 	0.7671	0.4081	0.37676	-0.444
Mof_O 	O 	0.6733	0.3348	0.32742	-0.357
Mof_O 	O 	0.7285	0.1973	0.3209	-0.298
Mof_O 	O 	0.7133	0.19517	0.23498	-0.437
Mof_O 	O 	0.952	0.0463	0.1065	-0.339
Mof_O 	O 	0.0579	0.05061	0.17013	-0.46
Mof_O 	O 	0.0241	0.9161	0.1807	-0.297
Mof_O 	O 	0.0373	0.95617	0.26912	-0.446
Mof_O 	O 	0.2673	0.11119	0.15598	-0.472
Mof_O 	O 	0.1717	0.17843	0.21224	-0.327
Mof_O 	O 	0.2161	0.2993	0.3306	-0.306
Mof_O 	O 	0.2168	0.31856	0.2507	-0.425
Mof_O 	O 	0.9937	0.5656	0.12317	-0.455
Mof_O 	O 	0.0828	0.5259	0.1744	-0.352
Mof_O 	O 	0.0245	0.3909	0.17973	-0.297
Mof_O 	O 	0.0459	0.45141	0.26406	-0.44
Mof_O 	O 	0.2671	0.5919	0.12324	-0.444
Mof_O 	O 	0.1733	0.6652	0.17258	-0.357
Mof_O 	O 	0.2285	0.8027	0.1791	-0.298
Mof_O 	O 	0.2133	0.80483	0.26502	-0.437
Mof_O 	O 	0.452	0.9537	0.3935	-0.34
Mof_O 	O 	0.5579	0.94939	0.32987	-0.459
Mof_O 	O 	0.5241	0.0839	0.3193	-0.297
Mof_O 	O 	0.5373	0.04383	0.23088	-0.446
Mof_O 	O 	0.7673	0.88881	0.34402	-0.473
Mof_O 	O 	0.6717	0.82157	0.28776	-0.327
Mof_O 	O 	0.7161	0.7007	0.1694	-0.306
Mof_O 	O 	0.7168	0.68144	0.2493	-0.425
_end
