data_functionalizedCrystal
_audit_creation_method	'EQeq! by Chris Wilmer'
_symmetry_space_group_name_H-M	'P1'
_symmetry_Int_Tables_number	1
_symmetry_cell_setting	triclinic
loop_
_symmetry_equiv_pos_as_xyz
  x,y,z
_cell_length_a	6.965
_cell_length_b	26.433
_cell_length_c	17.879
_cell_angle_alpha	90
_cell_angle_beta	97.9
_cell_angle_gamma	90
loop_
_atom_site_label
_atom_site_type_symbol
_atom_site_fract_x
_atom_site_fract_y
_atom_site_fract_z
_atom_site_charge
Mof_O 	O 	0.5799	0.98011	0.10114	-0.561
Mof_Tb	Tb	0.68186	0.07002	0.93359	1.915
Mof_Tb	Tb	0.23679	0.93173	0.45074	2.062
Mof_O 	O 	0.8164	0.98167	0.91948	-0.42
Mof_O 	O 	0.7069	0.3436	0.01452	-0.459
Mof_O 	O 	0.6921	0.0516	0.05906	-0.554
Mof_C 	C 	0.6068	0.10432	0.1864	0.107
Mof_H 	H 	0.627	0.1231	0.1442	-0.001
Mof_C 	C 	0.9489	0.93236	0.6713	-0.202
Mof_C 	C 	0.897	0.90067	0.8168	0.045
Mof_H 	H 	0.8788	0.8902	0.865	0.019
Mof_C 	C 	0.5187	0.01812	0.3827	0.531
Mof_C 	C 	0.5727	0.02311	0.2456	0.166
Mof_H 	H 	0.5663	0.988	0.2427	-0.043
Mof_O 	O 	0.3917	0.11827	0.9598	-0.421
Mof_C 	C 	0.581	0.12921	0.2535	-0.128
Mof_O 	O 	0.8467	0.03839	0.83212	-0.481
Mof_O 	O 	0.45	0.38381	0.042	-0.427
Mof_C 	C 	0.6023	0.05142	0.1822	-0.234
Mof_C 	C 	0.8946	0.95229	0.7994	-0.137
Mof_C 	C 	0.8528	0.99258	0.8539	0.339
Mof_O 	O 	0.0436	0.92006	0.54993	-0.525
Mof_C 	C 	0.9191	0.96755	0.7264	0.116
Mof_H 	H 	0.9154	0.0018	0.7144	-0.024
Mof_C 	C 	0.4884	0.15826	0.9714	0.32
Mof_O 	O 	0.4339	0.97607	0.37413	-0.543
Mof_O 	O 	0.939	0.99638	0.57851	-0.595
Mof_C 	C 	0.4963	0.2514	0.9959	0.04
Mof_H 	H 	0.6309	0.2495	0.004	0.034
Mof_C 	C 	0.9263	0.86474	0.7624	-0.084
Mof_C 	C 	0.0134	0.7909	0.8506	-0.173
Mof_H 	H 	0.0518	0.8131	0.8902	0.093
Mof_C 	C 	0.1861	0.21111	0.966	0.043
Mof_H 	H 	0.1113	0.1822	0.9548	0.006
Mof_C 	C 	0.978	0.9511	0.5937	0.525
Mof_O 	O 	0.5746	0.03769	0.44595	-0.569
Mof_C 	C 	0.3889	0.20746	0.979	-0.117
Mof_C 	C 	0.0969	0.25805	0.9698	-0.117
Mof_H 	H 	0.9625	0.2604	0.9607	0.073
Mof_C 	C 	0.9361	0.80966	0.7796	0.122
Mof_N 	N 	0.5925	0.29116	0.2696	-0.167
Mof_C 	C 	0.6547	0.26176	0.3283	0.109
Mof_H 	H 	0.7028	0.2773	0.3737	-0.01
Mof_C 	C 	0.5297	0.268	0.2045	0.109
Mof_H 	H 	0.4877	0.2878	0.1625	-0.008
Mof_C 	C 	0.6259	0.02607	0.1087	0.539
Mof_C 	C 	0.5271	0.34467	0.0203	0.322
Mof_C 	C 	0.4066	0.29812	0.0009	-0.111
Mof_C 	C 	0.9516	0.88133	0.6892	0.07
Mof_H 	H 	0.9704	0.8576	0.6525	0.015
Mof_C 	C 	0.6523	0.20955	0.3259	-0.195
Mof_H 	H 	0.6943	0.1909	0.3691	0.107
Mof_C 	C 	0.5863	0.18503	0.2582	0.148
Mof_C 	C 	0.5241	0.21573	0.1965	-0.188
Mof_H 	H 	0.4789	0.2013	0.15	0.103
Mof_C 	C 	0.557	0.0997	0.3169	0.118
Mof_H 	H 	0.5439	0.1157	0.3622	-0.011
Mof_C 	C 	0.8773	0.7729	0.7247	-0.169
Mof_H 	H 	0.8226	0.7827	0.6765	0.096
Mof_N 	N 	0.9785	0.70442	0.8099	-0.162
Mof_C 	C 	0.0326	0.7392	0.8618	0.094
Mof_H 	H 	0.0875	0.7281	0.9093	0.001
Mof_C 	C 	0.9008	0.7216	0.7423	0.098
Mof_H 	H 	0.8598	0.6981	0.7048	-0.011
Mof_C 	C 	0.5526	0.04786	0.3136	-0.239
Mof_C 	C 	0.2064	0.30139	0.9872	0.038
Mof_H 	H 	0.1456	0.3325	0.9895	0.022
Mof_O 	O 	0.6721	0.15759	0.97298	-0.458
Mof_O 	O 	0.4201	0.48011	0.39886	-0.561
Mof_Tb	Tb	0.31814	0.57002	0.56641	1.914
Mof_Tb	Tb	0.76321	0.43173	0.04926	2.061
Mof_O 	O 	0.1836	0.48167	0.58052	-0.421
Mof_O 	O 	0.2931	0.8436	0.48548	-0.459
Mof_O 	O 	0.3079	0.5516	0.44094	-0.553
Mof_C 	C 	0.3932	0.60432	0.3136	0.106
Mof_H 	H 	0.373	0.6231	0.3558	-0.001
Mof_C 	C 	0.0511	0.43236	0.8287	-0.2
Mof_C 	C 	0.103	0.40067	0.6832	0.044
Mof_H 	H 	0.1212	0.3902	0.635	0.019
Mof_C 	C 	0.4813	0.51812	0.1173	0.531
Mof_C 	C 	0.4273	0.52311	0.2544	0.165
Mof_H 	H 	0.4337	0.488	0.2573	-0.042
Mof_O 	O 	0.6083	0.61827	0.5402	-0.421
Mof_C 	C 	0.419	0.62921	0.2465	-0.127
Mof_O 	O 	0.1533	0.53839	0.66788	-0.481
Mof_O 	O 	0.55	0.88381	0.458	-0.427
Mof_C 	C 	0.3977	0.55142	0.3178	-0.233
Mof_C 	C 	0.1054	0.45229	0.7006	-0.136
Mof_C 	C 	0.1472	0.49258	0.6461	0.337
Mof_O 	O 	0.9564	0.42006	0.95007	-0.523
Mof_C 	C 	0.0809	0.46755	0.7736	0.113
Mof_H 	H 	0.0846	0.5018	0.7856	-0.023
Mof_C 	C 	0.5116	0.65826	0.5286	0.32
Mof_O 	O 	0.5661	0.47607	0.12587	-0.542
Mof_O 	O 	0.061	0.49638	0.92149	-0.595
Mof_C 	C 	0.5037	0.7514	0.5041	0.04
Mof_H 	H 	0.3691	0.7495	0.496	0.033
Mof_C 	C 	0.0737	0.36474	0.7376	-0.083
Mof_C 	C 	0.9866	0.2909	0.6494	-0.171
Mof_H 	H 	0.9482	0.3131	0.6098	0.092
Mof_C 	C 	0.8139	0.71111	0.534	0.041
Mof_H 	H 	0.8887	0.6822	0.5452	0.007
Mof_C 	C 	0.022	0.4511	0.9063	0.523
Mof_O 	O 	0.4254	0.53769	0.05405	-0.569
Mof_C 	C 	0.6111	0.70746	0.521	-0.117
Mof_C 	C 	0.9031	0.75805	0.5302	-0.114
Mof_H 	H 	0.0375	0.7604	0.5393	0.072
Mof_C 	C 	0.0639	0.30966	0.7204	0.12
Mof_N 	N 	0.4075	0.79116	0.2304	-0.167
Mof_C 	C 	0.3453	0.76176	0.1717	0.109
Mof_H 	H 	0.2972	0.7773	0.1263	-0.009
Mof_C 	C 	0.4703	0.768	0.2955	0.109
Mof_H 	H 	0.5123	0.7878	0.3375	-0.008
Mof_C 	C 	0.3741	0.52607	0.3913	0.539
Mof_C 	C 	0.4729	0.84467	0.4797	0.322
Mof_C 	C 	0.5934	0.79812	0.4991	-0.112
Mof_C 	C 	0.0484	0.38133	0.8108	0.069
Mof_H 	H 	0.0296	0.3576	0.8475	0.015
Mof_C 	C 	0.3477	0.70955	0.1741	-0.195
Mof_H 	H 	0.3057	0.6909	0.1309	0.107
Mof_C 	C 	0.4137	0.68503	0.2418	0.148
Mof_C 	C 	0.4759	0.71573	0.3035	-0.188
Mof_H 	H 	0.5211	0.7013	0.35	0.103
Mof_C 	C 	0.443	0.5997	0.1831	0.117
Mof_H 	H 	0.4561	0.6157	0.1378	-0.01
Mof_C 	C 	0.1227	0.2729	0.7753	-0.168
Mof_H 	H 	0.1774	0.2827	0.8235	0.096
Mof_N 	N 	0.0215	0.20442	0.6901	-0.162
Mof_C 	C 	0.9674	0.2392	0.6382	0.094
Mof_H 	H 	0.9125	0.2281	0.5907	0.001
Mof_C 	C 	0.0992	0.2216	0.7577	0.098
Mof_H 	H 	0.1402	0.1981	0.7952	-0.01
Mof_C 	C 	0.4474	0.54786	0.1864	-0.238
Mof_C 	C 	0.7936	0.80139	0.5128	0.037
Mof_H 	H 	0.8544	0.8325	0.5105	0.023
Mof_O 	O 	0.3279	0.65759	0.52702	-0.458
Mof_O 	O 	0.4201	0.01989	0.89886	-0.562
Mof_Tb	Tb	0.31814	0.92998	0.06641	1.914
Mof_Tb	Tb	0.76321	0.06827	0.54926	2.061
Mof_O 	O 	0.1836	0.01833	0.08052	-0.421
Mof_O 	O 	0.2931	0.6564	0.98548	-0.459
Mof_O 	O 	0.3079	0.9484	0.94094	-0.554
Mof_C 	C 	0.3932	0.89568	0.8136	0.107
Mof_H 	H 	0.373	0.8769	0.8558	-0.001
Mof_C 	C 	0.0511	0.06764	0.3287	-0.202
Mof_C 	C 	0.103	0.09933	0.1832	0.045
Mof_H 	H 	0.1212	0.1098	0.135	0.019
Mof_C 	C 	0.4813	0.98188	0.6173	0.531
Mof_C 	C 	0.4273	0.97689	0.7544	0.166
Mof_H 	H 	0.4337	0.012	0.7573	-0.043
Mof_O 	O 	0.6083	0.88173	0.0402	-0.421
Mof_C 	C 	0.419	0.87079	0.7465	-0.128
Mof_O 	O 	0.1533	0.96161	0.16788	-0.481
Mof_O 	O 	0.55	0.61619	0.958	-0.427
Mof_C 	C 	0.3977	0.94858	0.8178	-0.234
Mof_C 	C 	0.1054	0.04771	0.2006	-0.137
Mof_C 	C 	0.1472	0.00742	0.1461	0.339
Mof_O 	O 	0.9564	0.07994	0.45007	-0.525
Mof_C 	C 	0.0809	0.03245	0.2736	0.116
Mof_H 	H 	0.0846	0.9982	0.2856	-0.024
Mof_C 	C 	0.5116	0.84174	0.0286	0.32
Mof_O 	O 	0.5661	0.02393	0.62587	-0.543
Mof_O 	O 	0.061	0.00362	0.42149	-0.595
Mof_C 	C 	0.5037	0.7486	0.0041	0.04
Mof_H 	H 	0.3691	0.7505	0.996	0.034
Mof_C 	C 	0.0737	0.13526	0.2376	-0.084
Mof_C 	C 	0.9866	0.2091	0.1494	-0.173
Mof_H 	H 	0.9482	0.1869	0.1098	0.093
Mof_C 	C 	0.8139	0.78889	0.034	0.043
Mof_H 	H 	0.8887	0.8178	0.0452	0.006
Mof_C 	C 	0.022	0.0489	0.4063	0.525
Mof_O 	O 	0.4254	0.96231	0.55405	-0.569
Mof_C 	C 	0.6111	0.79254	0.021	-0.117
Mof_C 	C 	0.9031	0.74195	0.0302	-0.117
Mof_H 	H 	0.0375	0.7396	0.0393	0.073
Mof_C 	C 	0.0639	0.19034	0.2204	0.122
Mof_N 	N 	0.4075	0.70884	0.7304	-0.167
Mof_C 	C 	0.3453	0.73824	0.6717	0.109
Mof_H 	H 	0.2972	0.7227	0.6263	-0.01
Mof_C 	C 	0.4703	0.732	0.7955	0.109
Mof_H 	H 	0.5123	0.7122	0.8375	-0.008
Mof_C 	C 	0.3741	0.97393	0.8913	0.539
Mof_C 	C 	0.4729	0.65533	0.9797	0.322
Mof_C 	C 	0.5934	0.70188	0.9991	-0.111
Mof_C 	C 	0.0484	0.11867	0.3108	0.07
Mof_H 	H 	0.0296	0.1424	0.3475	0.015
Mof_C 	C 	0.3477	0.79045	0.6741	-0.195
Mof_H 	H 	0.3057	0.8091	0.6309	0.107
Mof_C 	C 	0.4137	0.81497	0.7418	0.148
Mof_C 	C 	0.4759	0.78427	0.8035	-0.188
Mof_H 	H 	0.5211	0.7987	0.85	0.103
Mof_C 	C 	0.443	0.9003	0.6831	0.118
Mof_H 	H 	0.4561	0.8843	0.6378	-0.011
Mof_C 	C 	0.1227	0.2271	0.2753	-0.169
Mof_H 	H 	0.1774	0.2173	0.3235	0.096
Mof_N 	N 	0.0215	0.29558	0.1901	-0.162
Mof_C 	C 	0.9674	0.2608	0.1382	0.094
Mof_H 	H 	0.9125	0.2719	0.0907	0.001
Mof_C 	C 	0.0992	0.2784	0.2577	0.098
Mof_H 	H 	0.1402	0.3019	0.2952	-0.011
Mof_C 	C 	0.4474	0.95214	0.6864	-0.239
Mof_C 	C 	0.7936	0.69861	0.0128	0.038
Mof_H 	H 	0.8544	0.6675	0.0105	0.022
Mof_O 	O 	0.3279	0.84241	0.02702	-0.458
Mof_O 	O 	0.5799	0.51989	0.60114	-0.561
Mof_Tb	Tb	0.68186	0.42998	0.43359	1.914
Mof_Tb	Tb	0.23679	0.56827	0.95074	2.061
Mof_O 	O 	0.8164	0.51833	0.41948	-0.421
Mof_O 	O 	0.7069	0.1564	0.51452	-0.459
Mof_O 	O 	0.6921	0.4484	0.55906	-0.553
Mof_C 	C 	0.6068	0.39568	0.6864	0.106
Mof_H 	H 	0.627	0.3769	0.6442	-0.001
Mof_C 	C 	0.9489	0.56764	0.1713	-0.2
Mof_C 	C 	0.897	0.59933	0.3168	0.044
Mof_H 	H 	0.8788	0.6098	0.365	0.019
Mof_C 	C 	0.5187	0.48188	0.8827	0.531
Mof_C 	C 	0.5727	0.47689	0.7456	0.165
Mof_H 	H 	0.5663	0.512	0.7427	-0.042
Mof_O 	O 	0.3917	0.38173	0.4598	-0.421
Mof_C 	C 	0.581	0.37079	0.7535	-0.127
Mof_O 	O 	0.8467	0.46161	0.33212	-0.481
Mof_O 	O 	0.45	0.11619	0.542	-0.427
Mof_C 	C 	0.6023	0.44858	0.6822	-0.233
Mof_C 	C 	0.8946	0.54771	0.2994	-0.136
Mof_C 	C 	0.8528	0.50742	0.3539	0.337
Mof_O 	O 	0.0436	0.57994	0.04993	-0.523
Mof_C 	C 	0.9191	0.53245	0.2264	0.113
Mof_H 	H 	0.9154	0.4982	0.2144	-0.023
Mof_C 	C 	0.4884	0.34174	0.4714	0.32
Mof_O 	O 	0.4339	0.52393	0.87413	-0.542
Mof_O 	O 	0.939	0.50362	0.07851	-0.595
Mof_C 	C 	0.4963	0.2486	0.4959	0.04
Mof_H 	H 	0.6309	0.2505	0.504	0.033
Mof_C 	C 	0.9263	0.63526	0.2624	-0.083
Mof_C 	C 	0.0134	0.7091	0.3506	-0.171
Mof_H 	H 	0.0518	0.6869	0.3902	0.092
Mof_C 	C 	0.1861	0.28889	0.466	0.041
Mof_H 	H 	0.1113	0.3178	0.4548	0.007
Mof_C 	C 	0.978	0.5489	0.0937	0.523
Mof_O 	O 	0.5746	0.46231	0.94595	-0.569
Mof_C 	C 	0.3889	0.29254	0.479	-0.117
Mof_C 	C 	0.0969	0.24195	0.4698	-0.114
Mof_H 	H 	0.9625	0.2396	0.4607	0.072
Mof_C 	C 	0.9361	0.69034	0.2796	0.12
Mof_N 	N 	0.5925	0.20884	0.7696	-0.167
Mof_C 	C 	0.6547	0.23824	0.8283	0.109
Mof_H 	H 	0.7028	0.2227	0.8737	-0.009
Mof_C 	C 	0.5297	0.232	0.7045	0.109
Mof_H 	H 	0.4877	0.2122	0.6625	-0.008
Mof_C 	C 	0.6259	0.47393	0.6087	0.539
Mof_C 	C 	0.5271	0.15533	0.5203	0.322
Mof_C 	C 	0.4066	0.20188	0.5009	-0.112
Mof_C 	C 	0.9516	0.61867	0.1892	0.069
Mof_H 	H 	0.9704	0.6424	0.1525	0.015
Mof_C 	C 	0.6523	0.29045	0.8259	-0.195
Mof_H 	H 	0.6943	0.3091	0.8691	0.107
Mof_C 	C 	0.5863	0.31497	0.7582	0.148
Mof_C 	C 	0.5241	0.28427	0.6965	-0.188
Mof_H 	H 	0.4789	0.2987	0.65	0.103
Mof_C 	C 	0.557	0.4003	0.8169	0.117
Mof_H 	H 	0.5439	0.3843	0.8622	-0.01
Mof_C 	C 	0.8773	0.7271	0.2247	-0.168
Mof_H 	H 	0.8226	0.7173	0.1765	0.096
Mof_N 	N 	0.9785	0.79558	0.3099	-0.162
Mof_C 	C 	0.0326	0.7608	0.3618	0.094
Mof_H 	H 	0.0875	0.7719	0.4093	0.001
Mof_C 	C 	0.9008	0.7784	0.2423	0.098
Mof_H 	H 	0.8598	0.8019	0.2048	-0.01
Mof_C 	C 	0.5526	0.45214	0.8136	-0.238
Mof_C 	C 	0.2064	0.19861	0.4872	0.037
Mof_H 	H 	0.1456	0.1675	0.4895	0.023
Mof_O 	O 	0.6721	0.34241	0.47298	-0.458
_end
