data_functionalizedCrystal
_audit_creation_method	'EQeq! by Chris Wilmer'
_symmetry_space_group_name_H-M	'P1'
_symmetry_Int_Tables_number	1
_symmetry_cell_setting	triclinic
loop_
_symmetry_equiv_pos_as_xyz
  x,y,z
_cell_length_a	8.1219
_cell_length_b	11.0982
_cell_length_c	13.7649
_cell_angle_alpha	91.3904
_cell_angle_beta	100.821
_cell_angle_gamma	103.378
loop_
_atom_site_label
_atom_site_type_symbol
_atom_site_fract_x
_atom_site_fract_y
_atom_site_fract_z
_atom_site_charge
Mof_Cu	Cu	0.4683	0.9991	0.8124	0.787
Mof_Cu	Cu	0.3368	0.1548	0.7175	0.8
Mof_N 	N 	0.4912	0.0047	0.9577	-0.223
Mof_C 	C 	0.2169	0.9651	0.7384	-0.331
Mof_C 	C 	0.5848	0.2023	0.7762	-0.319
Mof_C 	C 	0.6053	0.9027	0.7566	-0.213
Mof_N 	N 	0.2639	0.1698	0.5742	-0.203
Mof_N 	N 	0.2051	0.2629	0.7752	-0.202
Mof_N 	N 	0.0823	0.9008	0.7091	-0.175
Mof_C 	C 	0.2169	0.1861	0.4926	-0.187
Mof_C 	C 	0.1195	0.3231	0.7938	-0.205
Mof_Cu	Cu	0.8506	0.7822	0.6457	0.833
Mof_Cu	Cu	0.944	0.4037	0.8221	0.829
Mof_N 	N 	0.6896	0.853	0.7221	-0.189
Mof_C 	C 	0.8634	0.6217	0.6929	-0.207
Mof_N 	N 	0.7172	0.2668	0.7983	-0.179
Mof_N 	N 	0.8875	0.5366	0.7325	-0.204
Mof_C 	C 	0.9855	0.4772	0.9601	-0.213
Mof_Cu	Cu	0.5317	0.0009	0.1876	0.788
Mof_Cu	Cu	0.6632	0.8452	0.2825	0.801
Mof_N 	N 	0.5088	0.9953	0.0423	-0.222
Mof_C 	C 	0.7831	0.0349	0.2616	-0.33
Mof_C 	C 	0.4152	0.7977	0.2238	-0.319
Mof_C 	C 	0.3947	0.0973	0.2434	-0.213
Mof_N 	N 	0.7361	0.8302	0.4258	-0.203
Mof_N 	N 	0.7949	0.7371	0.2248	-0.202
Mof_N 	N 	0.9177	0.0992	0.2909	-0.175
Mof_C 	C 	0.7831	0.8139	0.5074	-0.187
Mof_C 	C 	0.8805	0.6769	0.2062	-0.205
Mof_Cu	Cu	0.1494	0.2178	0.3543	0.833
Mof_Cu	Cu	0.056	0.5963	0.1779	0.829
Mof_N 	N 	0.3104	0.147	0.2779	-0.189
Mof_C 	C 	0.1366	0.3783	0.3071	-0.207
Mof_N 	N 	0.2828	0.7332	0.2017	-0.179
Mof_N 	N 	0.1125	0.4634	0.2675	-0.204
Mof_C 	C 	0.0145	0.5228	0.0399	-0.213
Mof_C 	C 	0.8083	0.2731	0.5315	-0.333
Mof_N 	N 	0.8679	0.1025	0.6342	-0.26
Mof_C 	C 	0.7462	0.137	0.5462	0.074
Mof_C 	C 	0.6098	0.4888	0.3611	0.216
Mof_C 	C 	0.7395	0.4467	0.4343	-0.418
Mof_C 	C 	0.6876	0.3137	0.4535	0.206
Mof_N 	N 	0.5509	0.4276	0.2726	-0.306
Mof_H 	H 	0.8316	0.0158	0.6443	0.058
Mof_H 	H 	0.86591	0.15101	0.69249	0.071
Mof_H 	H 	0.98302	0.12032	0.62152	0.07
Mof_H 	H 	0.63049	0.12073	0.55797	-0.021
Mof_H 	H 	0.74761	0.09004	0.487	-0.019
Mof_H 	H 	0.81229	0.31981	0.59192	0.1
Mof_H 	H 	0.92178	0.28871	0.51654	0.101
Mof_H 	H 	0.68684	0.26817	0.39315	-0.058
Mof_H 	H 	0.57369	0.29467	0.46798	-0.058
Mof_H 	H 	0.84543	0.46081	0.4102	0.131
Mof_H 	H 	0.76018	0.48939	0.49854	0.133
Mof_H 	H 	0.51145	0.488	0.39057	-0.061
Mof_H 	H 	0.65989	0.57219	0.34726	-0.068
Mof_H 	H 	0.46815	0.46427	0.23235	0.078
Mof_H 	H 	0.49678	0.3437	0.28294	0.086
Mof_H 	H 	0.64522	0.4279	0.23962	0.077
Mof_C 	C 	0.1917	0.7269	0.4685	-0.333
Mof_N 	N 	0.1321	0.8975	0.3658	-0.26
Mof_C 	C 	0.2538	0.863	0.4538	0.074
Mof_C 	C 	0.3902	0.5112	0.6389	0.216
Mof_C 	C 	0.2605	0.5533	0.5657	-0.418
Mof_C 	C 	0.3124	0.6863	0.5465	0.206
Mof_N 	N 	0.4491	0.5724	0.7274	-0.306
Mof_H 	H 	0.1684	0.9842	0.3557	0.058
Mof_H 	H 	0.13409	0.84899	0.30751	0.071
Mof_H 	H 	0.01698	0.87968	0.37848	0.07
Mof_H 	H 	0.36951	0.87927	0.44203	-0.021
Mof_H 	H 	0.25239	0.90996	0.513	-0.019
Mof_H 	H 	0.18771	0.68019	0.40808	0.1
Mof_H 	H 	0.07822	0.71129	0.48346	0.101
Mof_H 	H 	0.31316	0.73183	0.60685	-0.058
Mof_H 	H 	0.42631	0.70533	0.53202	-0.058
Mof_H 	H 	0.15457	0.53919	0.5898	0.131
Mof_H 	H 	0.23982	0.51061	0.50146	0.133
Mof_H 	H 	0.48855	0.512	0.60943	-0.061
Mof_H 	H 	0.34011	0.42781	0.65274	-0.068
Mof_H 	H 	0.53185	0.53573	0.76765	0.078
Mof_H 	H 	0.50322	0.6563	0.71706	0.086
Mof_H 	H 	0.35478	0.5721	0.76038	0.077
_end
