data_functionalizedCrystal
_audit_creation_method	'EQeq! by Chris Wilmer'
_symmetry_space_group_name_H-M	'P1'
_symmetry_Int_Tables_number	1
_symmetry_cell_setting	triclinic
loop_
_symmetry_equiv_pos_as_xyz
  x,y,z
_cell_length_a	10.4021
_cell_length_b	10.541
_cell_length_c	6.2832
_cell_angle_alpha	90
_cell_angle_beta	115.06
_cell_angle_gamma	90
loop_
_atom_site_label
_atom_site_type_symbol
_atom_site_fract_x
_atom_site_fract_y
_atom_site_fract_z
_atom_site_charge
Mof_C 	C 	0.3167	0.2105	0.5459	-0.066
Mof_H 	H 	0.3975	0.2652	0.5755	0.016
Mof_H 	H 	0.3295	0.1722	0.6939	-0.002
Mof_N 	N 	0.3123	0.1102	0.3808	-0.271
Mof_H 	H 	0.2978	0.146	0.2424	0.06
Mof_H 	H 	0.2383	0.0588	0.3561	0.053
Mof_C 	C 	0.8167	0.7105	0.5459	-0.067
Mof_H 	H 	0.8975	0.7652	0.5755	0.043
Mof_H 	H 	0.8295	0.6722	0.6939	0.023
Mof_N 	N 	0.8123	0.6102	0.3808	-0.264
Mof_H 	H 	0.7978	0.646	0.2424	0.084
Mof_H 	H 	0.7383	0.5588	0.3561	0.083
Mof_C 	C 	0.6833	0.2105	0.9541	0.03
Mof_H 	H 	0.6025	0.2652	0.9245	-0.007
Mof_H 	H 	0.6705	0.1722	0.8061	-0.028
Mof_N 	N 	0.6877	0.1102	0.1192	-0.295
Mof_H 	H 	0.7022	0.146	0.2576	0.076
Mof_H 	H 	0.7617	0.0588	0.1439	0.072
Mof_C 	C 	0.1833	0.7105	0.9541	0.034
Mof_H 	H 	0.1025	0.7652	0.9245	-0.019
Mof_H 	H 	0.1705	0.6722	0.8061	-0.03
Mof_N 	N 	0.1877	0.6102	0.1192	-0.297
Mof_H 	H 	0.2022	0.646	0.2576	0.077
Mof_H 	H 	0.2617	0.5588	0.1439	0.081
Mof_C 	C 	0.6833	0.7895	0.4541	-0.024
Mof_H 	H 	0.6025	0.7348	0.4245	0.007
Mof_H 	H 	0.6705	0.8278	0.3061	0.005
Mof_N 	N 	0.6877	0.8898	0.6192	-0.28
Mof_H 	H 	0.7022	0.854	0.7576	0.101
Mof_H 	H 	0.7617	0.9412	0.6439	0.116
Mof_C 	C 	0.1833	0.2895	0.4541	-0.021
Mof_H 	H 	0.1025	0.2348	0.4245	-0.021
Mof_H 	H 	0.1705	0.3278	0.3061	-0.021
Mof_N 	N 	0.1877	0.3898	0.6192	-0.288
Mof_H 	H 	0.2022	0.354	0.7576	0.077
Mof_H 	H 	0.2617	0.4412	0.6439	0.086
Mof_C 	C 	0.3167	0.7895	0.0459	-0.119
Mof_H 	H 	0.3975	0.7348	0.0755	0.03
Mof_H 	H 	0.3295	0.8278	0.1939	0.027
Mof_N 	N 	0.3123	0.8898	0.8808	-0.247
Mof_H 	H 	0.2978	0.854	0.7424	0.084
Mof_H 	H 	0.2383	0.9412	0.8561	0.097
Mof_C 	C 	0.8167	0.2895	0.0459	-0.122
Mof_H 	H 	0.8975	0.2348	0.0755	0.042
Mof_H 	H 	0.8295	0.3278	0.1939	0.029
Mof_N 	N 	0.8123	0.3898	0.8808	-0.246
Mof_H 	H 	0.7978	0.354	0.7424	0.082
Mof_H 	H 	0.7383	0.4412	0.8561	0.087
Mof_Ag	Ag	0.5	0	0.5	0.306
Mof_Ag	Ag	1.61202e-33	0.5	0.5	0.308
Mof_Ag	Ag	0.5	0	-0	0.258
Mof_Ag	Ag	-0	0.5	-0	0.261
_end
