data_functionalizedCrystal
_audit_creation_method	'EQeq! by Chris Wilmer'
_symmetry_space_group_name_H-M	'P1'
_symmetry_Int_Tables_number	1
_symmetry_cell_setting	triclinic
loop_
_symmetry_equiv_pos_as_xyz
  x,y,z
_cell_length_a	13.335
_cell_length_b	13.335
_cell_length_c	18.4109
_cell_angle_alpha	68.7677
_cell_angle_beta	68.7677
_cell_angle_gamma	89.9999
loop_
_atom_site_label
_atom_site_type_symbol
_atom_site_fract_x
_atom_site_fract_y
_atom_site_fract_z
_atom_site_charge
Mof_Cu	Cu	0.54556	0.54555	0.90889	0.935
Mof_Cu	Cu	0.45445	0.45444	0.09111	0.937
Mof_Cu	Cu	0.20444	0.70445	0.59111	0.937
Mof_Cu	Cu	0.29555	0.79555	0.4089	0.936
Mof_H 	H 	0.6238	0.8877	0.8594	0.024
Mof_H 	H 	0.6767	0.054	0.8598	0.075
Mof_H 	H 	0.6885	0.897	0.0878	0.113
Mof_H 	H 	0.6209	0.7346	0.0918	0.022
Mof_H 	H 	0.8115	0.1062	0.9486	0.1
Mof_H 	H 	0.7137	0.1579	0.9294	0.093
Mof_H 	H 	0.5486	0.1448	0.048	0.032
Mof_H 	H 	0.477	0.16	0.1774	0.102
Mof_H 	H 	0.752	0.0756	0.2104	0.067
Mof_H 	H 	0.8192	0.0696	0.078	0.037
Mof_H 	H 	0.5168	0.2529	0.8594	0.02
Mof_H 	H 	0.4635	0.0862	0.8598	0.087
Mof_H 	H 	0.2237	0.0152	0.0878	0.106
Mof_H 	H 	0.2873	0.1736	0.0918	0.024
Mof_H 	H 	0.2399	0.9452	0.9486	0.102
Mof_H 	H 	0.3569	0.9127	0.9294	0.09
Mof_H 	H 	0.4034	0.8072	0.048	0.031
Mof_H 	H 	0.3456	0.6626	0.1774	0.106
Mof_H 	H 	0.0376	0.714	0.2104	0.083
Mof_H 	H 	0.1028	0.8524	0.078	0.047
Mof_H 	H 	0.1123	0.4832	0.1406	0.034
Mof_H 	H 	0.946	0.5365	0.1402	0.057
Mof_H 	H 	0.103	0.7763	0.9122	0.122
Mof_H 	H 	0.2654	0.7127	0.9082	0.027
Mof_H 	H 	0.8938	0.7601	0.0514	0.106
Mof_H 	H 	0.8421	0.6431	0.0706	0.098
Mof_H 	H 	0.8552	0.5966	0.952	0.024
Mof_H 	H 	0.84	0.6544	0.8226	0.101
Mof_H 	H 	0.9244	0.9624	0.7896	0.07
Mof_H 	H 	0.9304	0.8972	0.922	0.037
Mof_H 	H 	0.7471	0.3762	0.1406	0.026
Mof_H 	H 	0.9138	0.3233	0.1402	0.077
Mof_H 	H 	0.9848	0.3115	0.9122	0.093
Mof_H 	H 	0.8264	0.3791	0.9082	0.03
Mof_H 	H 	0.0548	0.1885	0.0514	0.097
Mof_H 	H 	0.0873	0.2863	0.0706	0.084
Mof_H 	H 	0.1928	0.4514	0.952	0.026
Mof_H 	H 	0.3374	0.523	0.8226	0.105
Mof_H 	H 	0.286	0.248	0.7896	0.073
Mof_H 	H 	0.1476	0.1808	0.922	0.04
Mof_H 	H 	0.2332	0.3623	0.6406	0.02
Mof_H 	H 	0.2865	0.196	0.6402	0.094
Mof_H 	H 	0.5263	0.353	0.4122	0.114
Mof_H 	H 	0.4627	0.5154	0.4082	0.023
Mof_H 	H 	0.5101	0.1438	0.5514	0.103
Mof_H 	H 	0.3931	0.0921	0.5706	0.09
Mof_H 	H 	0.3466	0.1052	0.452	0.028
Mof_H 	H 	0.4044	0.09	0.3226	0.101
Mof_H 	H 	0.7124	0.1744	0.2896	0.069
Mof_H 	H 	0.6472	0.1804	0.422	0.042
Mof_H 	H 	0.1262	0.9971	0.6406	0.04
Mof_H 	H 	0.0733	0.1638	0.6402	0.087
Mof_H 	H 	0.0615	0.2348	0.4122	0.11
Mof_H 	H 	0.1291	0.0764	0.4082	0.029
Mof_H 	H 	0.9385	0.3048	0.5514	0.065
Mof_H 	H 	0.0363	0.3373	0.5706	0.078
Mof_H 	H 	0.2014	0.4428	0.452	0.029
Mof_H 	H 	0.273	0.5874	0.3226	0.101
Mof_H 	H 	0.998	0.536	0.2896	0.036
Mof_H 	H 	0.9308	0.3976	0.422	0.014
Mof_H 	H 	0.0029	0.7668	0.3594	0.059
Mof_H 	H 	0.8362	0.7135	0.3598	0.079
Mof_H 	H 	0.7652	0.4737	0.5878	0.11
Mof_H 	H 	0.9236	0.5373	0.5918	0.017
Mof_H 	H 	0.6952	0.4899	0.4486	0.102
Mof_H 	H 	0.6627	0.6069	0.4294	0.09
Mof_H 	H 	0.5572	0.6534	0.548	0.029
Mof_H 	H 	0.4126	0.5956	0.6774	0.103
Mof_H 	H 	0.464	0.2876	0.7104	0.07
Mof_H 	H 	0.6024	0.3528	0.578	0.043
Mof_H 	H 	0.6377	0.8738	0.3594	0.021
Mof_H 	H 	0.804	0.9267	0.3598	0.089
Mof_H 	H 	0.647	0.9385	0.5878	0.112
Mof_H 	H 	0.4846	0.8709	0.5918	0.026
Mof_H 	H 	0.8562	0.0615	0.4486	0.083
Mof_H 	H 	0.9079	0.9637	0.4294	0.079
Mof_H 	H 	0.8948	0.7986	0.548	0.027
Mof_H 	H 	0.91	0.727	0.6774	0.096
Mof_H 	H 	0.8256	0.002	0.7104	0.054
Mof_H 	H 	0.8196	0.0692	0.578	0.03
Mof_C 	C 	0.57478	0.68778	0.97904	0.347
Mof_C 	C 	0.61564	0.79384	0.97592	-0.137
Mof_C 	C 	0.63414	0.88974	0.90612	0.073
Mof_C 	C 	0.66824	0.98974	0.90552	-0.159
Mof_C 	C 	0.68904	0.99244	0.97292	0.156
Mof_C 	C 	0.67317	0.89577	0.04266	-0.161
Mof_C 	C 	0.6345	0.7982	0.0442	0.096
Mof_C 	C 	0.73282	0.09862	0.96916	-0.199
Mof_C 	C 	0.5895	0.1324	0.0812	0.075
Mof_C 	C 	0.5459	0.1406	0.1588	-0.11
Mof_C 	C 	0.6065	0.1195	0.2086	0.061
Mof_C 	C 	0.71016	0.09126	0.17788	-0.109
Mof_C 	C 	0.74972	0.08682	0.09916	0.051
Mof_C 	C 	0.44618	0.33318	0.97904	0.346
Mof_C 	C 	0.40844	0.23024	0.97592	-0.139
Mof_C 	C 	0.45974	0.20414	0.90612	0.078
Mof_C 	C 	0.42624	0.10474	0.90552	-0.174
Mof_C 	C 	0.33804	0.03464	0.97292	0.132
Mof_C 	C 	0.28417	0.06157	0.04266	-0.15
Mof_C 	C 	0.3213	0.1576	0.0442	0.091
Mof_C 	C 	0.29802	0.93222	0.96916	-0.171
Mof_C 	C 	0.3293	0.7864	0.0812	0.083
Mof_C 	C 	0.2953	0.7006	0.1588	-0.118
Mof_C 	C 	0.1849	0.6719	0.2086	0.075
Mof_C 	C 	0.11196	0.73086	0.17788	-0.116
Mof_C 	C 	0.15112	0.81402	0.09916	0.06
Mof_C 	C 	0.31222	0.55382	0.02096	0.362
Mof_C 	C 	0.20616	0.59156	0.02408	-0.116
Mof_C 	C 	0.11026	0.54026	0.09388	0.058
Mof_C 	C 	0.01026	0.57376	0.09448	-0.128
Mof_C 	C 	0.00756	0.66196	0.02708	0.18
Mof_C 	C 	0.10423	0.71583	0.95734	-0.177
Mof_C 	C 	0.2018	0.6787	0.9558	0.077
Mof_C 	C 	0.90138	0.70198	0.03084	-0.207
Mof_C 	C 	0.8676	0.6707	0.9188	0.073
Mof_C 	C 	0.8594	0.7047	0.8412	-0.115
Mof_C 	C 	0.8805	0.8151	0.7914	0.064
Mof_C 	C 	0.90874	0.88804	0.82212	-0.113
Mof_C 	C 	0.91318	0.84888	0.90084	0.049
Mof_C 	C 	0.66682	0.42522	0.02096	0.36
Mof_C 	C 	0.76976	0.38436	0.02408	-0.113
Mof_C 	C 	0.79586	0.36586	0.09388	0.062
Mof_C 	C 	0.89526	0.33176	0.09448	-0.157
Mof_C 	C 	0.96536	0.31096	0.02708	0.116
Mof_C 	C 	0.93843	0.32683	0.95734	-0.149
Mof_C 	C 	0.8424	0.3655	0.9558	0.058
Mof_C 	C 	0.06778	0.26718	0.03084	-0.129
Mof_C 	C 	0.2136	0.4105	0.9188	0.084
Mof_C 	C 	0.2994	0.4541	0.8412	-0.115
Mof_C 	C 	0.3281	0.3935	0.7914	0.066
Mof_C 	C 	0.26914	0.28984	0.82212	-0.112
Mof_C 	C 	0.18598	0.25028	0.90084	0.06
Mof_C 	C 	0.30382	0.56222	0.52096	0.358
Mof_C 	C 	0.34156	0.45616	0.52408	-0.136
Mof_C 	C 	0.29026	0.36026	0.59388	0.086
Mof_C 	C 	0.32376	0.26026	0.59448	-0.187
Mof_C 	C 	0.41196	0.25756	0.52708	0.162
Mof_C 	C 	0.46583	0.35423	0.45734	-0.171
Mof_C 	C 	0.4287	0.4518	0.4558	0.092
Mof_C 	C 	0.45198	0.15138	0.53084	-0.185
Mof_C 	C 	0.4207	0.1176	0.4188	0.076
Mof_C 	C 	0.4547	0.1094	0.3412	-0.111
Mof_C 	C 	0.5651	0.1305	0.2914	0.061
Mof_C 	C 	0.63804	0.15874	0.32212	-0.109
Mof_C 	C 	0.59888	0.16318	0.40084	0.05
Mof_C 	C 	0.17522	0.91682	0.52096	0.362
Mof_C 	C 	0.13436	0.01976	0.52408	-0.126
Mof_C 	C 	0.11586	0.04586	0.59388	0.054
Mof_C 	C 	0.08176	0.14526	0.59448	-0.153
Mof_C 	C 	0.06096	0.21536	0.52708	0.134
Mof_C 	C 	0.07683	0.18843	0.45734	-0.145
Mof_C 	C 	0.1155	0.0924	0.4558	0.079
Mof_C 	C 	0.01718	0.31778	0.53084	-0.113
Mof_C 	C 	0.1605	0.4636	0.4188	0.079
Mof_C 	C 	0.2041	0.5494	0.3412	-0.104
Mof_C 	C 	0.1435	0.5781	0.2914	0.048
Mof_C 	C 	0.03984	0.51914	0.32212	-0.068
Mof_C 	C 	0.00028	0.43598	0.40084	0.09
Mof_C 	C 	0.08318	0.69618	0.47904	0.377
Mof_C 	C 	0.98024	0.65844	0.47592	-0.143
Mof_C 	C 	0.95414	0.70974	0.40612	0.024
Mof_C 	C 	0.85474	0.67624	0.40552	-0.156
Mof_C 	C 	0.78464	0.58804	0.47292	0.147
Mof_C 	C 	0.81157	0.53417	0.54266	-0.163
Mof_C 	C 	0.9076	0.5713	0.5442	0.086
Mof_C 	C 	0.68222	0.54802	0.46916	-0.177
Mof_C 	C 	0.5364	0.5793	0.5812	0.077
Mof_C 	C 	0.4506	0.5453	0.6588	-0.11
Mof_C 	C 	0.4219	0.4349	0.7086	0.061
Mof_C 	C 	0.48086	0.36196	0.67788	-0.108
Mof_C 	C 	0.56402	0.40112	0.59916	0.052
Mof_C 	C 	0.43778	0.82478	0.47904	0.356
Mof_C 	C 	0.54384	0.86564	0.47592	-0.13
Mof_C 	C 	0.63974	0.88414	0.40612	0.081
Mof_C 	C 	0.73974	0.91824	0.40552	-0.175
Mof_C 	C 	0.74244	0.93904	0.47292	0.15
Mof_C 	C 	0.64577	0.92317	0.54266	-0.16
Mof_C 	C 	0.5482	0.8845	0.5442	0.086
Mof_C 	C 	0.84862	0.98282	0.46916	-0.152
Mof_C 	C 	0.8824	0.8395	0.5812	0.073
Mof_C 	C 	0.8906	0.7959	0.6588	-0.108
Mof_C 	C 	0.8695	0.8565	0.7086	0.052
Mof_C 	C 	0.84126	0.96016	0.67788	-0.092
Mof_C 	C 	0.83682	0.99972	0.59916	0.063
Mof_N 	N 	0.68957	0.10687	0.05286	-0.099
Mof_N 	N 	0.25757	0.84027	0.05286	-0.102
Mof_N 	N 	0.89313	0.74243	0.94714	-0.105
Mof_N 	N 	0.15973	0.31043	0.94714	-0.112
Mof_N 	N 	0.49243	0.14313	0.44714	-0.103
Mof_N 	N 	0.06043	0.40973	0.44714	-0.114
Mof_N 	N 	0.59027	0.50757	0.55286	-0.103
Mof_N 	N 	0.85687	0.93957	0.55286	-0.108
Mof_N 	N 	0.63457	0.63457	0.73086	0.087
Mof_N 	N 	0.36543	0.36543	0.26914	0.087
Mof_N 	N 	0.11543	0.61543	0.76914	0.086
Mof_N 	N 	0.38457	0.88457	0.23086	0.086
Mof_O 	O 	0.59358	0.68148	0.90864	-0.38
Mof_O 	O 	0.5245	0.6131	0.0512	-0.372
Mof_O 	O 	0.5468	0.6345	0.7744	-0.183
Mof_O 	O 	0.49778	0.40988	0.90864	-0.381
Mof_O 	O 	0.4243	0.3357	0.0512	-0.371
Mof_O 	O 	0.6788	0.5911	0.7744	-0.184
Mof_O 	O 	0.31852	0.50222	0.09136	-0.382
Mof_O 	O 	0.3869	0.5757	0.9488	-0.386
Mof_O 	O 	0.3655	0.3212	0.2256	-0.182
Mof_O 	O 	0.59012	0.40642	0.09136	-0.383
Mof_O 	O 	0.6643	0.4755	0.9488	-0.387
Mof_O 	O 	0.4089	0.4532	0.2256	-0.183
Mof_O 	O 	0.25222	0.56852	0.59136	-0.381
Mof_O 	O 	0.3257	0.6369	0.4488	-0.38
Mof_O 	O 	0.0712	0.6155	0.7256	-0.172
Mof_O 	O 	0.15642	0.84012	0.59136	-0.378
Mof_O 	O 	0.2255	0.9143	0.4488	-0.376
Mof_O 	O 	0.2032	0.6589	0.7256	-0.181
Mof_O 	O 	0.15988	0.74778	0.40864	-0.383
Mof_O 	O 	0.0857	0.6743	0.5512	-0.375
Mof_O 	O 	0.3411	0.9288	0.2744	-0.178
Mof_O 	O 	0.43148	0.84358	0.40864	-0.381
Mof_O 	O 	0.3631	0.7745	0.5512	-0.379
Mof_O 	O 	0.3845	0.7968	0.2744	-0.182
Mof_O 	O 	0.67237	0.67237	0.65526	-0.124
Mof_O 	O 	0.32763	0.32763	0.34474	-0.124
Mof_O 	O 	0.07763	0.57763	0.84474	-0.114
Mof_O 	O 	0.42237	0.92237	0.15526	-0.119
Mof_Cl	Cl	-0	0	-0	-0.325
Mof_Cl	Cl	0.75	0.25	0.5	-0.352
_end
