data_functionalizedCrystal
_audit_creation_method	'EQeq! by Chris Wilmer'
_symmetry_space_group_name_H-M	'P1'
_symmetry_Int_Tables_number	1
_symmetry_cell_setting	triclinic
loop_
_symmetry_equiv_pos_as_xyz
  x,y,z
_cell_length_a	22.2357
_cell_length_b	22.2357
_cell_length_c	23.1424
_cell_angle_alpha	118.712
_cell_angle_beta	118.712
_cell_angle_gamma	90
loop_
_atom_site_label
_atom_site_type_symbol
_atom_site_fract_x
_atom_site_fract_y
_atom_site_fract_z
_atom_site_charge
Mof_Co	Co	0.7897	0.80618	0.754	1.162
Mof_Co	Co	0.9643	0.94782	0.754	1.14
Mof_Co	Co	0.9643	0.80618	0.754	1.14
Mof_Co	Co	0.7897	0.94782	0.754	1.161
Mof_Co	Co	0.88187	0.07683	0.76374	1.087
Mof_Co	Co	0.88187	0.68691	0.76374	1.087
Mof_H 	H 	0.7668	0.8319	0.9002	-0.01
Mof_H 	H 	0.8981	0.716	0.9328	-0.004
Mof_H 	H 	0.9504	0.8143	0.077	0.079
Mof_H 	H 	0.9578	0.8402	0.192	0.048
Mof_H 	H 	0.7459	0.8108	0.0858	0.042
Mof_H 	H 	0.7394	0.7956	0.9784	0.065
Mof_H 	H 	0.9125	0.8735	0.271	0.058
Mof_H 	H 	0.8619	0.7958	0.2236	0.057
Mof_H 	H 	0.803	0.9088	0.2358	0.064
Mof_H 	H 	0.7678	0.8345	0.2162	0.062
Mof_H 	H 	0.8332	0.8083	0.3154	0.028
Mof_H 	H 	0.8545	0.8386	0.4352	0.092
Mof_H 	H 	0.8954	0.0446	0.5046	0.056
Mof_H 	H 	0.869	0.0082	0.3804	0.035
Mof_H 	H 	0.8636	0.0573	0.5962	-0.03
Mof_H 	H 	0.9304	0.8883	0.5754	0.017
Mof_H 	H 	0.1334	0.0683	0.9002	-0.009
Mof_H 	H 	0.0347	0.2168	0.9328	-0.002
Mof_H 	H 	0.1266	0.2627	0.077	0.097
Mof_H 	H 	0.2342	0.3518	0.192	0.063
Mof_H 	H 	0.3399	0.275	0.0858	0.042
Mof_H 	H 	0.239	0.1828	0.9784	0.069
Mof_H 	H 	0.3585	0.3975	0.271	0.071
Mof_H 	H 	0.3617	0.4278	0.2236	0.063
Mof_H 	H 	0.4328	0.327	0.2358	0.065
Mof_H 	H 	0.4484	0.3817	0.2162	0.059
Mof_H 	H 	0.4822	0.5071	0.3154	0.027
Mof_H 	H 	0.5807	0.5966	0.4352	0.094
Mof_H 	H 	0.6092	0.46	0.5046	0.065
Mof_H 	H 	0.5114	0.3722	0.3804	0.041
Mof_H 	H 	0.7326	0.5389	0.5962	-0.028
Mof_H 	H 	0.645	0.6871	0.5754	0.024
Mof_H 	H 	0.1334	0.8319	0.9002	-0.008
Mof_H 	H 	0.0347	0.716	0.9328	-0.002
Mof_H 	H 	0.1266	0.8143	0.077	0.097
Mof_H 	H 	0.2342	0.8402	0.192	0.063
Mof_H 	H 	0.3399	0.8108	0.0858	0.042
Mof_H 	H 	0.239	0.7956	0.9784	0.068
Mof_H 	H 	0.3585	0.8735	0.271	0.072
Mof_H 	H 	0.3617	0.7958	0.2236	0.063
Mof_H 	H 	0.4328	0.9088	0.2358	0.065
Mof_H 	H 	0.4484	0.8345	0.2162	0.059
Mof_H 	H 	0.4822	0.8083	0.3154	0.027
Mof_H 	H 	0.5807	0.8386	0.4352	0.094
Mof_H 	H 	0.6092	0.0446	0.5046	0.065
Mof_H 	H 	0.5114	0.0082	0.3804	0.04
Mof_H 	H 	0.7326	0.0573	0.5962	-0.028
Mof_H 	H 	0.645	0.8883	0.5754	0.024
Mof_H 	H 	0.7668	0.0683	0.9002	-0.01
Mof_H 	H 	0.8981	0.2168	0.9328	-0.003
Mof_H 	H 	0.9504	0.2627	0.077	0.079
Mof_H 	H 	0.9578	0.3518	0.192	0.047
Mof_H 	H 	0.7459	0.275	0.0858	0.041
Mof_H 	H 	0.7394	0.1828	0.9784	0.068
Mof_H 	H 	0.9125	0.3975	0.271	0.057
Mof_H 	H 	0.8619	0.4278	0.2236	0.056
Mof_H 	H 	0.803	0.327	0.2358	0.065
Mof_H 	H 	0.7678	0.3817	0.2162	0.062
Mof_H 	H 	0.8332	0.5071	0.3154	0.028
Mof_H 	H 	0.8545	0.5966	0.4352	0.092
Mof_H 	H 	0.8954	0.46	0.5046	0.056
Mof_H 	H 	0.869	0.3722	0.3804	0.036
Mof_H 	H 	0.8636	0.5389	0.5962	-0.03
Mof_H 	H 	0.9304	0.6871	0.5754	0.017
Mof_H 	H 	0.6208	0.8624	0.7248	-0.098
Mof_H 	H 	0.104	0.8624	0.7248	-0.093
Mof_C 	C 	0.797	0.8038	0.8944	0.124
Mof_C 	C 	0.86899	0.73959	0.91218	0.104
Mof_C 	C 	0.8406	0.8	0.0154	0.112
Mof_C 	C 	0.9101	0.8146	0.0798	-0.094
Mof_C 	C 	0.9137	0.8296	0.148	-0.048
Mof_C 	C 	0.8532	0.8289	0.151	0.032
Mof_C 	C 	0.7874	0.8134	0.0852	-0.04
Mof_C 	C 	0.7831	0.8021	0.0204	-0.099
Mof_C 	C 	0.8645	0.8414	0.2276	-0.121
Mof_C 	C 	0.8128	0.8717	0.2468	-0.127
Mof_C 	C 	0.8505	0.9046	0.339	0.022
Mof_C 	C 	0.8455	0.8564	0.354	-0.027
Mof_C 	C 	0.858	0.8742	0.4258	-0.131
Mof_C 	C 	0.875	0.9428	0.481	0.115
Mof_C 	C 	0.8817	0.9962	0.4662	-0.109
Mof_C 	C 	0.8672	0.9743	0.3926	-0.047
Mof_C 	C 	0.88105	0.02325	0.6063	0.095
Mof_C 	C 	0.91793	0.93023	0.59526	0.101
Mof_C 	C 	0.0974	0.0906	0.8944	0.127
Mof_C 	C 	0.04319	0.17259	0.91218	0.161
Mof_C 	C 	0.1748	0.2154	0.0154	0.117
Mof_C 	C 	0.1697	0.2652	0.0798	-0.093
Mof_C 	C 	0.2343	0.3184	0.148	-0.047
Mof_C 	C 	0.2978	0.3221	0.151	0.038
Mof_C 	C 	0.2978	0.2718	0.0852	-0.039
Mof_C 	C 	0.2373	0.2183	0.0204	-0.104
Mof_C 	C 	0.3631	0.3862	0.2276	-0.131
Mof_C 	C 	0.434	0.3751	0.2468	-0.12
Mof_C 	C 	0.4885	0.4344	0.339	0.023
Mof_C 	C 	0.5085	0.4976	0.354	-0.022
Mof_C 	C 	0.5678	0.5516	0.4258	-0.131
Mof_C 	C 	0.606	0.5382	0.481	0.124
Mof_C 	C 	0.5845	0.47	0.4662	-0.107
Mof_C 	C 	0.5254	0.4183	0.3926	-0.041
Mof_C 	C 	0.72525	0.58305	0.6063	0.103
Mof_C 	C 	0.67733	0.66503	0.59526	0.11
Mof_C 	C 	0.0974	0.8038	0.8944	0.127
Mof_C 	C 	0.04319	0.73959	0.91218	0.163
Mof_C 	C 	0.1748	0.8	0.0154	0.117
Mof_C 	C 	0.1697	0.8146	0.0798	-0.093
Mof_C 	C 	0.2343	0.8296	0.148	-0.048
Mof_C 	C 	0.2978	0.8289	0.151	0.039
Mof_C 	C 	0.2978	0.8134	0.0852	-0.04
Mof_C 	C 	0.2373	0.8021	0.0204	-0.102
Mof_C 	C 	0.3631	0.8414	0.2276	-0.132
Mof_C 	C 	0.434	0.8717	0.2468	-0.119
Mof_C 	C 	0.4885	0.9046	0.339	0.022
Mof_C 	C 	0.5085	0.8564	0.354	-0.021
Mof_C 	C 	0.5678	0.8742	0.4258	-0.132
Mof_C 	C 	0.606	0.9428	0.481	0.124
Mof_C 	C 	0.5845	0.9962	0.4662	-0.107
Mof_C 	C 	0.5254	0.9743	0.3926	-0.039
Mof_C 	C 	0.72525	0.02325	0.6063	0.102
Mof_C 	C 	0.67733	0.93023	0.59526	0.11
Mof_C 	C 	0.797	0.0906	0.8944	0.124
Mof_C 	C 	0.86899	0.17259	0.91218	0.104
Mof_C 	C 	0.8406	0.2154	0.0154	0.112
Mof_C 	C 	0.9101	0.2652	0.0798	-0.096
Mof_C 	C 	0.9137	0.3184	0.148	-0.047
Mof_C 	C 	0.8532	0.3221	0.151	0.03
Mof_C 	C 	0.7874	0.2718	0.0852	-0.038
Mof_C 	C 	0.7831	0.2183	0.0204	-0.103
Mof_C 	C 	0.8645	0.3862	0.2276	-0.12
Mof_C 	C 	0.8128	0.3751	0.2468	-0.128
Mof_C 	C 	0.8505	0.4344	0.339	0.023
Mof_C 	C 	0.8455	0.4976	0.354	-0.028
Mof_C 	C 	0.858	0.5516	0.4258	-0.13
Mof_C 	C 	0.875	0.5382	0.481	0.115
Mof_C 	C 	0.8817	0.47	0.4662	-0.109
Mof_C 	C 	0.8672	0.4183	0.3926	-0.049
Mof_C 	C 	0.88105	0.58305	0.6063	0.095
Mof_C 	C 	0.91793	0.66503	0.59526	0.101
Mof_C 	C 	0.6667	0.867	0.734	0.468
Mof_C 	C 	0.89639	0.95659	0.91318	0.54
Mof_C 	C 	0.0673	0.867	0.734	0.463
Mof_C 	C 	0.01679	0.95659	0.91318	0.519
Mof_N 	N 	0.80765	0.77925	0.8379	-0.201
Mof_N 	N 	0.85363	0.73603	0.84866	-0.222
Mof_N 	N 	0.83596	0.78316	0.94392	-0.154
Mof_N 	N 	0.89977	0.02377	0.67094	-0.234
Mof_N 	N 	0.92292	0.96332	0.66144	-0.219
Mof_N 	N 	0.89142	0.96572	0.55844	-0.156
Mof_N 	N 	0.03025	0.05865	0.8379	-0.176
Mof_N 	N 	0.99503	0.11263	0.84866	-0.266
Mof_N 	N 	0.10796	0.16076	0.94392	-0.16
Mof_N 	N 	0.77117	0.64717	0.67094	-0.229
Mof_N 	N 	0.73852	0.69812	0.66144	-0.212
Mof_N 	N 	0.66702	0.59272	0.55844	-0.155
Mof_N 	N 	0.03025	0.77925	0.8379	-0.174
Mof_N 	N 	0.99503	0.73603	0.84866	-0.267
Mof_N 	N 	0.10796	0.78316	0.94392	-0.16
Mof_N 	N 	0.77117	0.02377	0.67094	-0.229
Mof_N 	N 	0.73852	0.96332	0.66144	-0.212
Mof_N 	N 	0.66702	0.96572	0.55844	-0.155
Mof_N 	N 	0.80765	0.05865	0.8379	-0.201
Mof_N 	N 	0.85363	0.11263	0.84866	-0.222
Mof_N 	N 	0.83596	0.16076	0.94392	-0.154
Mof_N 	N 	0.89977	0.64717	0.67094	-0.234
Mof_N 	N 	0.92292	0.69812	0.66144	-0.219
Mof_N 	N 	0.89142	0.59272	0.55844	-0.156
Mof_O 	O 	0.693	0.81882	0.73924	-0.462
Mof_O 	O 	0.9273	0.016	0.9328	-0.287
Mof_O 	O 	0.04624	0.92042	0.73924	-0.44
Mof_O 	O 	0.0055	0.9168	0.9328	-0.227
Mof_O 	O 	0.04624	0.81882	0.73924	-0.44
Mof_O 	O 	0.0055	0.016	0.9328	-0.229
Mof_O 	O 	0.693	0.92042	0.73924	-0.462
Mof_O 	O 	0.9273	0.9168	0.9328	-0.289
Mof_O 	O 	0.88899	0.98949	0.77798	-0.562
Mof_O 	O 	0.88899	0.78849	0.77798	-0.562
Mof_O 	O 	0.78388	0.84188	0.68376	-0.422
Mof_O 	O 	0.84124	0.92264	0.84528	-0.536
Mof_O 	O 	0.89988	0.84188	0.68376	-0.432
Mof_O 	O 	0.00404	0.92264	0.84528	-0.501
Mof_Co	Co	0.05618	0.7143	0.254	1.17
Mof_Co	Co	0.19782	0.5397	0.254	1.161
Mof_Co	Co	0.19782	0.7143	0.254	1.161
Mof_Co	Co	0.05618	0.5397	0.254	1.17
Mof_Co	Co	0.32683	0.63187	0.26374	1.092
Mof_Co	Co	0.93691	0.63187	0.26374	1.082
Mof_H 	H 	0.0819	0.8834	0.4002	-0.006
Mof_H 	H 	0.966	0.7847	0.4328	0.018
Mof_H 	H 	0.0643	0.8766	0.577	0.102
Mof_H 	H 	0.0902	0.9842	0.692	0.065
Mof_H 	H 	0.0608	0.0899	0.5858	0.049
Mof_H 	H 	0.0456	0.989	0.4784	0.081
Mof_H 	H 	0.1235	0.1085	0.771	0.073
Mof_H 	H 	0.0458	0.1117	0.7236	0.075
Mof_H 	H 	0.1588	0.1828	0.7358	0.066
Mof_H 	H 	0.0845	0.1984	0.7162	0.066
Mof_H 	H 	0.0583	0.2322	0.8154	0.036
Mof_H 	H 	0.0886	0.3307	0.9352	0.097
Mof_H 	H 	0.2946	0.3592	0.0046	0.07
Mof_H 	H 	0.2582	0.2614	0.8804	0.041
Mof_H 	H 	0.3073	0.4826	0.0962	-0.025
Mof_H 	H 	0.1383	0.395	0.0754	0.025
Mof_H 	H 	0.3183	0.5168	0.4002	-0.008
Mof_H 	H 	0.4668	0.6481	0.4328	0.009
Mof_H 	H 	0.5127	0.7004	0.577	0.092
Mof_H 	H 	0.6018	0.7078	0.692	0.062
Mof_H 	H 	0.525	0.4959	0.5858	0.041
Mof_H 	H 	0.4328	0.4894	0.4784	0.072
Mof_H 	H 	0.6475	0.6625	0.771	0.071
Mof_H 	H 	0.6778	0.6119	0.7236	0.062
Mof_H 	H 	0.577	0.553	0.7358	0.065
Mof_H 	H 	0.6317	0.5178	0.7162	0.058
Mof_H 	H 	0.7571	0.5832	0.8154	0.025
Mof_H 	H 	0.8466	0.6045	0.9352	0.083
Mof_H 	H 	0.71	0.6454	0.0046	0.071
Mof_H 	H 	0.6222	0.619	0.8804	0.04
Mof_H 	H 	0.7889	0.6136	0.0962	-0.025
Mof_H 	H 	0.9371	0.6804	0.0754	0.01
Mof_H 	H 	0.3183	0.8834	0.4002	-0.008
Mof_H 	H 	0.4668	0.7847	0.4328	0.009
Mof_H 	H 	0.5127	0.8766	0.577	0.092
Mof_H 	H 	0.6018	0.9842	0.692	0.062
Mof_H 	H 	0.525	0.0899	0.5858	0.041
Mof_H 	H 	0.4328	0.989	0.4784	0.072
Mof_H 	H 	0.6475	0.1085	0.771	0.071
Mof_H 	H 	0.6778	0.1117	0.7236	0.062
Mof_H 	H 	0.577	0.1828	0.7358	0.065
Mof_H 	H 	0.6317	0.1984	0.7162	0.058
Mof_H 	H 	0.7571	0.2322	0.8154	0.025
Mof_H 	H 	0.8466	0.3307	0.9352	0.084
Mof_H 	H 	0.71	0.3592	0.0046	0.07
Mof_H 	H 	0.6222	0.2614	0.8804	0.04
Mof_H 	H 	0.7889	0.4826	0.0962	-0.025
Mof_H 	H 	0.9371	0.395	0.0754	0.01
Mof_H 	H 	0.0819	0.5168	0.4002	-0.006
Mof_H 	H 	0.966	0.6481	0.4328	0.018
Mof_H 	H 	0.0643	0.7004	0.577	0.102
Mof_H 	H 	0.0902	0.7078	0.692	0.065
Mof_H 	H 	0.0608	0.4959	0.5858	0.048
Mof_H 	H 	0.0456	0.4894	0.4784	0.081
Mof_H 	H 	0.1235	0.6625	0.771	0.074
Mof_H 	H 	0.0458	0.6119	0.7236	0.076
Mof_H 	H 	0.1588	0.553	0.7358	0.066
Mof_H 	H 	0.0845	0.5178	0.7162	0.066
Mof_H 	H 	0.0583	0.5832	0.8154	0.036
Mof_H 	H 	0.0886	0.6045	0.9352	0.097
Mof_H 	H 	0.2946	0.6454	0.0046	0.07
Mof_H 	H 	0.2582	0.619	0.8804	0.041
Mof_H 	H 	0.3073	0.6136	0.0962	-0.025
Mof_H 	H 	0.1383	0.6804	0.0754	0.025
Mof_H 	H 	0.1124	0.854	0.2248	-0.087
Mof_H 	H 	0.1124	0.3708	0.2248	-0.087
Mof_C 	C 	0.0538	0.8474	0.3944	0.135
Mof_C 	C 	0.98959	0.79319	0.41218	0.05
Mof_C 	C 	0.05	0.9248	0.5154	0.123
Mof_C 	C 	0.0646	0.9197	0.5798	-0.087
Mof_C 	C 	0.0796	0.9843	0.648	-0.042
Mof_C 	C 	0.0789	0.0478	0.651	0.044
Mof_C 	C 	0.0634	0.0478	0.5852	-0.036
Mof_C 	C 	0.0521	0.9873	0.5204	-0.101
Mof_C 	C 	0.0914	0.1131	0.7276	-0.135
Mof_C 	C 	0.1217	0.184	0.7468	-0.121
Mof_C 	C 	0.1546	0.2385	0.839	0.025
Mof_C 	C 	0.1064	0.2585	0.854	-0.024
Mof_C 	C 	0.1242	0.3178	0.9258	-0.128
Mof_C 	C 	0.1928	0.356	0.981	0.123
Mof_C 	C 	0.2462	0.3345	0.9662	-0.111
Mof_C 	C 	0.2243	0.2754	0.8926	-0.039
Mof_C 	C 	0.27325	0.47525	0.1063	0.103
Mof_C 	C 	0.18023	0.42733	0.09526	0.112
Mof_C 	C 	0.3406	0.547	0.3944	0.125
Mof_C 	C 	0.42259	0.61899	0.41218	0.106
Mof_C 	C 	0.4654	0.5906	0.5154	0.114
Mof_C 	C 	0.5152	0.6601	0.5798	-0.092
Mof_C 	C 	0.5684	0.6637	0.648	-0.048
Mof_C 	C 	0.5721	0.6032	0.651	0.037
Mof_C 	C 	0.5218	0.5374	0.5852	-0.037
Mof_C 	C 	0.4683	0.5331	0.5204	-0.108
Mof_C 	C 	0.6362	0.6145	0.7276	-0.131
Mof_C 	C 	0.6251	0.5628	0.7468	-0.12
Mof_C 	C 	0.6844	0.6005	0.839	0.022
Mof_C 	C 	0.7476	0.5955	0.854	-0.024
Mof_C 	C 	0.8016	0.608	0.9258	-0.128
Mof_C 	C 	0.7882	0.625	0.981	0.119
Mof_C 	C 	0.72	0.6317	0.9662	-0.114
Mof_C 	C 	0.6683	0.6172	0.8926	-0.038
Mof_C 	C 	0.83305	0.63105	0.1063	0.102
Mof_C 	C 	0.91503	0.66793	0.09526	0.109
Mof_C 	C 	0.3406	0.8474	0.3944	0.125
Mof_C 	C 	0.42259	0.79319	0.41218	0.106
Mof_C 	C 	0.4654	0.9248	0.5154	0.114
Mof_C 	C 	0.5152	0.9197	0.5798	-0.092
Mof_C 	C 	0.5684	0.9843	0.648	-0.048
Mof_C 	C 	0.5721	0.0478	0.651	0.037
Mof_C 	C 	0.5218	0.0478	0.5852	-0.039
Mof_C 	C 	0.4683	0.9873	0.5204	-0.106
Mof_C 	C 	0.6362	0.1131	0.7276	-0.131
Mof_C 	C 	0.6251	0.184	0.7468	-0.12
Mof_C 	C 	0.6844	0.2385	0.839	0.023
Mof_C 	C 	0.7476	0.2585	0.854	-0.025
Mof_C 	C 	0.8016	0.3178	0.9258	-0.128
Mof_C 	C 	0.7882	0.356	0.981	0.119
Mof_C 	C 	0.72	0.3345	0.9662	-0.112
Mof_C 	C 	0.6683	0.2754	0.8926	-0.039
Mof_C 	C 	0.83305	0.47525	0.1063	0.102
Mof_C 	C 	0.91503	0.42733	0.09526	0.109
Mof_C 	C 	0.0538	0.547	0.3944	0.135
Mof_C 	C 	0.98959	0.61899	0.41218	0.05
Mof_C 	C 	0.05	0.5906	0.5154	0.124
Mof_C 	C 	0.0646	0.6601	0.5798	-0.086
Mof_C 	C 	0.0796	0.6637	0.648	-0.043
Mof_C 	C 	0.0789	0.6032	0.651	0.046
Mof_C 	C 	0.0634	0.5374	0.5852	-0.033
Mof_C 	C 	0.0521	0.5331	0.5204	-0.104
Mof_C 	C 	0.0914	0.6145	0.7276	-0.136
Mof_C 	C 	0.1217	0.5628	0.7468	-0.12
Mof_C 	C 	0.1546	0.6005	0.839	0.025
Mof_C 	C 	0.1064	0.5955	0.854	-0.023
Mof_C 	C 	0.1242	0.608	0.9258	-0.128
Mof_C 	C 	0.1928	0.625	0.981	0.123
Mof_C 	C 	0.2462	0.6317	0.9662	-0.113
Mof_C 	C 	0.2243	0.6172	0.8926	-0.038
Mof_C 	C 	0.27325	0.63105	0.1063	0.103
Mof_C 	C 	0.18023	0.66793	0.09526	0.112
Mof_C 	C 	0.117	0.8173	0.234	0.462
Mof_C 	C 	0.20659	0.76679	0.41318	0.532
Mof_C 	C 	0.117	0.4167	0.234	0.462
Mof_C 	C 	0.20659	0.64639	0.41318	0.532
Mof_N 	N 	0.02925	0.78025	0.3379	-0.179
Mof_N 	N 	0.98603	0.74503	0.34866	-0.231
Mof_N 	N 	0.03316	0.85796	0.44392	-0.125
Mof_N 	N 	0.27377	0.52117	0.17094	-0.228
Mof_N 	N 	0.21332	0.48852	0.16144	-0.212
Mof_N 	N 	0.21572	0.41702	0.05844	-0.154
Mof_N 	N 	0.30865	0.55765	0.3379	-0.2
Mof_N 	N 	0.36263	0.60363	0.34866	-0.218
Mof_N 	N 	0.41076	0.58596	0.44392	-0.152
Mof_N 	N 	0.89717	0.64977	0.17094	-0.233
Mof_N 	N 	0.94812	0.67292	0.16144	-0.229
Mof_N 	N 	0.84272	0.64142	0.05844	-0.154
Mof_N 	N 	0.30865	0.78025	0.3379	-0.2
Mof_N 	N 	0.36263	0.74503	0.34866	-0.218
Mof_N 	N 	0.41076	0.85796	0.44392	-0.152
Mof_N 	N 	0.89717	0.52117	0.17094	-0.233
Mof_N 	N 	0.94812	0.48852	0.16144	-0.229
Mof_N 	N 	0.84272	0.41702	0.05844	-0.154
Mof_N 	N 	0.02925	0.55765	0.3379	-0.179
Mof_N 	N 	0.98603	0.60363	0.34866	-0.231
Mof_N 	N 	0.03316	0.58596	0.44392	-0.125
Mof_N 	N 	0.27377	0.64977	0.17094	-0.228
Mof_N 	N 	0.21332	0.67292	0.16144	-0.212
Mof_N 	N 	0.21572	0.64142	0.05844	-0.154
Mof_O 	O 	0.06882	0.79624	0.23924	-0.443
Mof_O 	O 	0.266	0.7555	0.4328	-0.26
Mof_O 	O 	0.17042	0.443	0.23924	-0.458
Mof_O 	O 	0.1668	0.6773	0.4328	-0.256
Mof_O 	O 	0.17042	0.79624	0.23924	-0.458
Mof_O 	O 	0.1668	0.7555	0.4328	-0.256
Mof_O 	O 	0.06882	0.443	0.23924	-0.443
Mof_O 	O 	0.266	0.6773	0.4328	-0.26
Mof_O 	O 	0.23949	0.63899	0.27798	-0.553
Mof_O 	O 	0.03849	0.63899	0.27798	-0.53
Mof_O 	O 	0.09188	0.64988	0.18376	-0.413
Mof_O 	O 	0.17264	0.75404	0.34528	-0.53
Mof_O 	O 	0.09188	0.53388	0.18376	-0.413
Mof_O 	O 	0.17264	0.59124	0.34528	-0.53
Mof_Cl	Cl	0.58063	0.75714	0.51428	-0.346
Mof_Cl	Cl	0.93365	0.75714	0.51428	-0.369
Mof_Cl	Cl	0.00714	0.68365	0.01428	-0.308
Mof_Cl	Cl	0.00714	0.33063	0.01428	-0.308
_end
