data_functionalizedCrystal
_audit_creation_method	'EQeq! by Chris Wilmer'
_symmetry_space_group_name_H-M	'P1'
_symmetry_Int_Tables_number	1
_symmetry_cell_setting	triclinic
loop_
_symmetry_equiv_pos_as_xyz
  x,y,z
_cell_length_a	15.199
_cell_length_b	15.199
_cell_length_c	15.589
_cell_angle_alpha	90
_cell_angle_beta	90
_cell_angle_gamma	120
loop_
_atom_site_label
_atom_site_type_symbol
_atom_site_fract_x
_atom_site_fract_y
_atom_site_fract_z
_atom_site_charge
Mof_Tb	Tb	0.66667	0.33334	0.75	2.084
Mof_Tb	Tb	0.33333	0.66666	0.75	2.084
Mof_Tb	Tb	0.33333	0.66666	0.25	2.071
Mof_Tb	Tb	0.66667	0.33334	0.25	2.071
Mof_Fe	Fe	0.5	0	-0	0.631
Mof_Fe	Fe	0.5	0.5	-0	0.701
Mof_Fe	Fe	3.64528e-17	0.5	-0	0.631
Mof_Fe	Fe	0.5	0	0.5	0.752
Mof_Fe	Fe	1.01021e-17	0.5	0.5	0.752
Mof_Fe	Fe	0.5	0.5	0.5	0.823
Mof_H 	H 	0.2879	0.0555	0.8447	0.051
Mof_H 	H 	0.7676	0.7121	0.8447	0.071
Mof_H 	H 	0.9445	0.2324	0.8447	0.076
Mof_H 	H 	0.7121	0.9445	0.8447	0.081
Mof_H 	H 	0.2324	0.2879	0.8447	0.06
Mof_H 	H 	0.0555	0.7676	0.8447	0.057
Mof_H 	H 	0.2324	0.9445	0.6553	0.063
Mof_H 	H 	0.0555	0.2879	0.6553	0.037
Mof_H 	H 	0.7121	0.7676	0.6553	0.057
Mof_H 	H 	0.7676	0.0555	0.6553	0.043
Mof_H 	H 	0.9445	0.7121	0.6553	0.068
Mof_H 	H 	0.2879	0.2324	0.6553	0.046
Mof_H 	H 	0.7121	0.9445	0.1553	0.056
Mof_H 	H 	0.2324	0.2879	0.1553	0.034
Mof_H 	H 	0.0555	0.7676	0.1553	0.031
Mof_H 	H 	0.2879	0.0555	0.1553	0.025
Mof_H 	H 	0.7676	0.7121	0.1553	0.045
Mof_H 	H 	0.9445	0.2324	0.1553	0.051
Mof_H 	H 	0.7676	0.0555	0.3447	0.041
Mof_H 	H 	0.9445	0.7121	0.3447	0.066
Mof_H 	H 	0.2879	0.2324	0.3447	0.044
Mof_H 	H 	0.2324	0.9445	0.3447	0.061
Mof_H 	H 	0.0555	0.2879	0.3447	0.035
Mof_H 	H 	0.7121	0.7676	0.3447	0.055
Mof_H 	H 	0.1987	0.09935	0.75	0.026
Mof_H 	H 	0.90065	0.8013	0.75	0.058
Mof_H 	H 	0.90065	0.09935	0.75	0.041
Mof_H 	H 	0.8013	0.90065	0.75	0.058
Mof_H 	H 	0.09935	0.1987	0.75	0.026
Mof_H 	H 	0.09935	0.90065	0.75	0.041
Mof_H 	H 	0.8013	0.90065	0.25	0.055
Mof_H 	H 	0.09935	0.1987	0.25	0.022
Mof_H 	H 	0.09935	0.90065	0.25	0.038
Mof_H 	H 	0.1987	0.09935	0.25	0.022
Mof_H 	H 	0.90065	0.8013	0.25	0.055
Mof_H 	H 	0.90065	0.09935	0.25	0.038
Mof_C 	C 	0.3222	0.1085	0.806	-0.033
Mof_C 	C 	0.4264	0.1617	0.8039	-0.024
Mof_C 	C 	0.4918	0.1389	0.8612	0.358
Mof_C 	C 	0.7863	0.6778	0.806	-0.026
Mof_C 	C 	0.7353	0.5736	0.8039	-0.014
Mof_C 	C 	0.6471	0.5082	0.8612	0.362
Mof_C 	C 	0.8915	0.2137	0.806	-0.031
Mof_C 	C 	0.8383	0.2647	0.8039	-0.011
Mof_C 	C 	0.8611	0.3529	0.8612	0.355
Mof_C 	C 	0.6778	0.8915	0.806	-0.027
Mof_C 	C 	0.5736	0.8383	0.8039	-0.008
Mof_C 	C 	0.5082	0.8611	0.8612	0.355
Mof_C 	C 	0.2137	0.3222	0.806	-0.033
Mof_C 	C 	0.2647	0.4264	0.8039	-0.021
Mof_C 	C 	0.3529	0.4918	0.8612	0.361
Mof_C 	C 	0.1085	0.7863	0.806	-0.031
Mof_C 	C 	0.1617	0.7353	0.8039	-0.02
Mof_C 	C 	0.1389	0.6471	0.8612	0.359
Mof_C 	C 	0.2137	0.8915	0.694	-0.029
Mof_C 	C 	0.2647	0.8383	0.6961	-0.022
Mof_C 	C 	0.3529	0.8611	0.6388	0.364
Mof_C 	C 	0.1085	0.3222	0.694	-0.031
Mof_C 	C 	0.1617	0.4264	0.6961	-0.036
Mof_C 	C 	0.1389	0.4918	0.6388	0.368
Mof_C 	C 	0.6778	0.7863	0.694	-0.024
Mof_C 	C 	0.5736	0.7353	0.6961	-0.026
Mof_C 	C 	0.5082	0.6471	0.6388	0.371
Mof_C 	C 	0.7863	0.1085	0.694	-0.028
Mof_C 	C 	0.7353	0.1617	0.6961	-0.032
Mof_C 	C 	0.6471	0.1389	0.6388	0.368
Mof_C 	C 	0.8915	0.6778	0.694	-0.025
Mof_C 	C 	0.8383	0.5736	0.6961	-0.019
Mof_C 	C 	0.8611	0.5082	0.6388	0.365
Mof_C 	C 	0.3222	0.2137	0.694	-0.03
Mof_C 	C 	0.4264	0.2647	0.6961	-0.033
Mof_C 	C 	0.4918	0.3529	0.6388	0.37
Mof_C 	C 	0.6778	0.8915	0.194	-0.02
Mof_C 	C 	0.5736	0.8383	0.1961	-0.028
Mof_C 	C 	0.5082	0.8611	0.1388	0.361
Mof_C 	C 	0.2137	0.3222	0.194	-0.025
Mof_C 	C 	0.2647	0.4264	0.1961	-0.043
Mof_C 	C 	0.3529	0.4918	0.1388	0.366
Mof_C 	C 	0.1085	0.7863	0.194	-0.023
Mof_C 	C 	0.1617	0.7353	0.1961	-0.041
Mof_C 	C 	0.1389	0.6471	0.1388	0.364
Mof_C 	C 	0.3222	0.1085	0.194	-0.026
Mof_C 	C 	0.4264	0.1617	0.1961	-0.045
Mof_C 	C 	0.4918	0.1389	0.1388	0.364
Mof_C 	C 	0.7863	0.6778	0.194	-0.019
Mof_C 	C 	0.7353	0.5736	0.1961	-0.035
Mof_C 	C 	0.6471	0.5082	0.1388	0.367
Mof_C 	C 	0.8915	0.2137	0.194	-0.023
Mof_C 	C 	0.8383	0.2647	0.1961	-0.031
Mof_C 	C 	0.8611	0.3529	0.1388	0.36
Mof_C 	C 	0.7863	0.1085	0.306	-0.023
Mof_C 	C 	0.7353	0.1617	0.3039	-0.036
Mof_C 	C 	0.6471	0.1389	0.3612	0.369
Mof_C 	C 	0.8915	0.6778	0.306	-0.019
Mof_C 	C 	0.8383	0.5736	0.3039	-0.024
Mof_C 	C 	0.8611	0.5082	0.3612	0.366
Mof_C 	C 	0.3222	0.2137	0.306	-0.024
Mof_C 	C 	0.4264	0.2647	0.3039	-0.038
Mof_C 	C 	0.4918	0.3529	0.3612	0.371
Mof_C 	C 	0.2137	0.8915	0.306	-0.023
Mof_C 	C 	0.2647	0.8383	0.3039	-0.027
Mof_C 	C 	0.3529	0.8611	0.3612	0.365
Mof_C 	C 	0.1085	0.3222	0.306	-0.025
Mof_C 	C 	0.1617	0.4264	0.3039	-0.041
Mof_C 	C 	0.1389	0.4918	0.3612	0.369
Mof_C 	C 	0.6778	0.7863	0.306	-0.018
Mof_C 	C 	0.5736	0.7353	0.3039	-0.03
Mof_C 	C 	0.5082	0.6471	0.3612	0.372
Mof_C 	C 	0.2694	0.1347	0.75	-0.04
Mof_C 	C 	0.8653	0.7306	0.75	-0.026
Mof_C 	C 	0.8653	0.1347	0.75	-0.032
Mof_C 	C 	0.7306	0.8653	0.75	-0.026
Mof_C 	C 	0.1347	0.2694	0.75	-0.04
Mof_C 	C 	0.1347	0.8653	0.75	-0.032
Mof_C 	C 	0.7306	0.8653	0.25	-0.04
Mof_C 	C 	0.1347	0.2694	0.25	-0.055
Mof_C 	C 	0.1347	0.8653	0.25	-0.046
Mof_C 	C 	0.2694	0.1347	0.25	-0.055
Mof_C 	C 	0.8653	0.7306	0.25	-0.041
Mof_C 	C 	0.8653	0.1347	0.25	-0.046
Mof_N 	N 	0.4778	0.2389	0.75	-0.202
Mof_N 	N 	0.7611	0.5222	0.75	-0.202
Mof_N 	N 	0.7611	0.2389	0.75	-0.202
Mof_N 	N 	0.5222	0.7611	0.75	-0.202
Mof_N 	N 	0.2389	0.4778	0.75	-0.202
Mof_N 	N 	0.2389	0.7611	0.75	-0.202
Mof_N 	N 	0.5222	0.7611	0.25	-0.199
Mof_N 	N 	0.2389	0.4778	0.25	-0.199
Mof_N 	N 	0.2389	0.7611	0.25	-0.199
Mof_N 	N 	0.4778	0.2389	0.25	-0.199
Mof_N 	N 	0.7611	0.5222	0.25	-0.199
Mof_N 	N 	0.7611	0.2389	0.25	-0.199
Mof_O 	O 	0.5864	0.1989	0.85652	-0.432
Mof_O 	O 	0.4479	0.0631	0.908	-0.315
Mof_O 	O 	0.6125	0.4136	0.85652	-0.428
Mof_O 	O 	0.6152	0.5521	0.908	-0.305
Mof_O 	O 	0.8011	0.3875	0.85652	-0.419
Mof_O 	O 	0.9369	0.3848	0.908	-0.275
Mof_O 	O 	0.4136	0.8011	0.85652	-0.418
Mof_O 	O 	0.5521	0.9369	0.908	-0.273
Mof_O 	O 	0.3875	0.5864	0.85652	-0.429
Mof_O 	O 	0.3848	0.4479	0.908	-0.309
Mof_O 	O 	0.1989	0.6125	0.85652	-0.431
Mof_O 	O 	0.0631	0.6152	0.908	-0.313
Mof_O 	O 	0.3875	0.8011	0.64348	-0.442
Mof_O 	O 	0.3848	0.9369	0.592	-0.33
Mof_O 	O 	0.1989	0.5864	0.64348	-0.456
Mof_O 	O 	0.0631	0.4479	0.592	-0.371
Mof_O 	O 	0.4136	0.6125	0.64348	-0.452
Mof_O 	O 	0.5521	0.6152	0.592	-0.361
Mof_O 	O 	0.6125	0.1989	0.64348	-0.455
Mof_O 	O 	0.6152	0.0631	0.592	-0.368
Mof_O 	O 	0.8011	0.4136	0.64348	-0.442
Mof_O 	O 	0.9369	0.5521	0.592	-0.328
Mof_O 	O 	0.5864	0.3875	0.64348	-0.453
Mof_O 	O 	0.4479	0.3848	0.592	-0.365
Mof_O 	O 	0.4136	0.8011	0.14348	-0.449
Mof_O 	O 	0.5521	0.9369	0.092	-0.334
Mof_O 	O 	0.3875	0.5864	0.14348	-0.461
Mof_O 	O 	0.3848	0.4479	0.092	-0.372
Mof_O 	O 	0.1989	0.6125	0.14348	-0.463
Mof_O 	O 	0.0631	0.6152	0.092	-0.376
Mof_O 	O 	0.5864	0.1989	0.14348	-0.464
Mof_O 	O 	0.4479	0.0631	0.092	-0.378
Mof_O 	O 	0.6125	0.4136	0.14348	-0.46
Mof_O 	O 	0.6152	0.5521	0.092	-0.368
Mof_O 	O 	0.8011	0.3875	0.14348	-0.45
Mof_O 	O 	0.9369	0.3848	0.092	-0.336
Mof_O 	O 	0.6125	0.1989	0.35652	-0.454
Mof_O 	O 	0.6152	0.0631	0.408	-0.369
Mof_O 	O 	0.8011	0.4136	0.35652	-0.44
Mof_O 	O 	0.9369	0.5521	0.408	-0.328
Mof_O 	O 	0.5864	0.3875	0.35652	-0.452
Mof_O 	O 	0.4479	0.3848	0.408	-0.365
Mof_O 	O 	0.3875	0.8011	0.35652	-0.441
Mof_O 	O 	0.3848	0.9369	0.408	-0.33
Mof_O 	O 	0.1989	0.5864	0.35652	-0.455
Mof_O 	O 	0.0631	0.4479	0.408	-0.371
Mof_O 	O 	0.4136	0.6125	0.35652	-0.451
Mof_O 	O 	0.5521	0.6152	0.408	-0.361
_end
