data_functionalizedCrystal
_audit_creation_method	'EQeq! by Chris Wilmer'
_symmetry_space_group_name_H-M	'P1'
_symmetry_Int_Tables_number	1
_symmetry_cell_setting	triclinic
loop_
_symmetry_equiv_pos_as_xyz
  x,y,z
_cell_length_a	5.4241
_cell_length_b	13.8293
_cell_length_c	11.1181
_cell_angle_alpha	90
_cell_angle_beta	102.79
_cell_angle_gamma	90
loop_
_atom_site_label
_atom_site_type_symbol
_atom_site_fract_x
_atom_site_fract_y
_atom_site_fract_z
_atom_site_charge
Mof_O 	O 	0.8239	0.04677	0.40884	-2.136
Mof_N 	N 	0.677	0.31769	0.09896	-0.672
Mof_O 	O 	0.4195	0.08635	0.38962	-1.644
Mof_C 	C 	0.6306	0.09647	0.36576	1.248
Mof_C 	C 	0.6532	0.17512	0.27395	-0.546
Mof_C 	C 	0.8392	0.17284	0.20564	0.156
Mof_H 	H 	0.9634	0.1232	0.2186	-0.149
Mof_C 	C 	0.5018	0.32024	0.1674	-0.063
Mof_H 	H 	0.3849	0.3724	0.1553	-0.231
Mof_C 	C 	0.8397	0.24413	0.11856	-0.052
Mof_H 	H 	0.9631	0.2405	0.0699	-0.096
Mof_C 	C 	0.4827	0.25137	0.25404	0.182
Mof_H 	H 	0.3544	0.2559	0.2997	-0.145
Mof_Li	Li	0.1829	0.0656	0.485	4.142
Mof_O 	O 	0.6761	0.54677	0.09116	-2.173
Mof_N 	N 	0.823	0.81769	0.40104	-0.659
Mof_O 	O 	0.0805	0.58635	0.11038	-1.668
Mof_C 	C 	0.8694	0.59647	0.13424	1.272
Mof_C 	C 	0.8468	0.67512	0.22605	-0.575
Mof_C 	C 	0.6608	0.67284	0.29436	0.173
Mof_H 	H 	0.5366	0.6232	0.2814	-0.162
Mof_C 	C 	0.9982	0.82024	0.3326	-0.103
Mof_H 	H 	0.1151	0.8724	0.3447	-0.209
Mof_C 	C 	0.6603	0.74413	0.38144	-0.067
Mof_H 	H 	0.5369	0.7405	0.4301	-0.096
Mof_C 	C 	0.0173	0.75137	0.24596	0.221
Mof_H 	H 	0.1456	0.7559	0.2003	-0.157
Mof_Li	Li	0.3171	0.5656	0.015	4.21
Mof_O 	O 	0.1761	0.95323	0.59116	-2.137
Mof_N 	N 	0.323	0.68231	0.90104	-0.673
Mof_O 	O 	0.5805	0.91365	0.61038	-1.644
Mof_C 	C 	0.3694	0.90353	0.63424	1.248
Mof_C 	C 	0.3468	0.82488	0.72605	-0.546
Mof_C 	C 	0.1608	0.82716	0.79436	0.156
Mof_H 	H 	0.0366	0.8768	0.7814	-0.149
Mof_C 	C 	0.4982	0.67976	0.8326	-0.063
Mof_H 	H 	0.6151	0.6276	0.8447	-0.231
Mof_C 	C 	0.1603	0.75587	0.88144	-0.052
Mof_H 	H 	0.0369	0.7595	0.9301	-0.096
Mof_C 	C 	0.5173	0.74863	0.74596	0.182
Mof_H 	H 	0.6456	0.7441	0.7003	-0.145
Mof_Li	Li	0.8171	0.9344	0.515	4.142
Mof_O 	O 	0.3239	0.45323	0.90884	-2.173
Mof_N 	N 	0.177	0.18231	0.59896	-0.659
Mof_O 	O 	0.9195	0.41365	0.88962	-1.668
Mof_C 	C 	0.1306	0.40353	0.86576	1.272
Mof_C 	C 	0.1532	0.32488	0.77395	-0.575
Mof_C 	C 	0.3392	0.32716	0.70564	0.173
Mof_H 	H 	0.4634	0.3768	0.7186	-0.162
Mof_C 	C 	0.0018	0.17976	0.6674	-0.103
Mof_H 	H 	0.8849	0.1276	0.6553	-0.209
Mof_C 	C 	0.3397	0.25587	0.61856	-0.067
Mof_H 	H 	0.4631	0.2595	0.5699	-0.096
Mof_C 	C 	0.9827	0.24863	0.75404	0.221
Mof_H 	H 	0.8544	0.2441	0.7997	-0.157
Mof_Li	Li	0.6829	0.4344	0.985	4.21
_end
