data_functionalizedCrystal
_audit_creation_method	'EQeq! by Chris Wilmer'
_symmetry_space_group_name_H-M	'P1'
_symmetry_Int_Tables_number	1
_symmetry_cell_setting	triclinic
loop_
_symmetry_equiv_pos_as_xyz
  x,y,z
_cell_length_a	11.4002
_cell_length_b	15.1863
_cell_length_c	15.1863
_cell_angle_alpha	62.0119
_cell_angle_beta	67.9543
_cell_angle_gamma	67.9542
loop_
_atom_site_label
_atom_site_type_symbol
_atom_site_fract_x
_atom_site_fract_y
_atom_site_fract_z
_atom_site_charge
Mof_Cd	Cd	-0	0	-0	0.339
Mof_Cd	Cd	0.5	0.5	0.5	0.389
Mof_Cd	Cd	0.8809	0.6191	0.1191	0.314
Mof_Cd	Cd	0.1191	0.8809	0.3809	0.304
Mof_Cd	Cd	0.1191	0.3809	0.8809	0.304
Mof_Cd	Cd	0.8809	0.1191	0.6191	0.314
Mof_Cd	Cd	0.46147	0.13499	0.13499	0.276
Mof_Cd	Cd	0.23145	0.36501	0.36501	0.275
Mof_Cd	Cd	0.76855	0.63499	0.63499	0.282
Mof_Cd	Cd	0.53853	0.86501	0.86501	0.282
Mof_C 	C 	0.93471	0.76652	0.06866	0.014
Mof_C 	C 	0.36424	0.24086	0.01146	-0.023
Mof_C 	C 	0.26989	0.73348	0.43134	0.007
Mof_C 	C 	0.11656	0.25914	0.48854	-0.001
Mof_C 	C 	0.73011	0.56866	0.26652	0.013
Mof_C 	C 	0.88344	0.51146	0.74086	0.009
Mof_C 	C 	0.06529	0.93134	0.23348	0.006
Mof_C 	C 	0.63576	0.98854	0.75914	0.026
Mof_C 	C 	0.06529	0.23348	0.93134	0.006
Mof_C 	C 	0.63576	0.75914	0.98854	0.026
Mof_C 	C 	0.73011	0.26652	0.56866	0.013
Mof_C 	C 	0.88344	0.74086	0.51146	0.009
Mof_C 	C 	0.26989	0.43134	0.73348	0.007
Mof_C 	C 	0.11656	0.48854	0.25914	-0.001
Mof_C 	C 	0.93471	0.06866	0.76652	0.014
Mof_C 	C 	0.36424	0.01146	0.24086	-0.023
Mof_C 	C 	0.97587	0.52413	0.02413	-0.05
Mof_C 	C 	0.02413	0.97587	0.47587	-0.068
Mof_C 	C 	0.02413	0.47587	0.97587	-0.068
Mof_C 	C 	0.97587	0.02413	0.52413	-0.05
Mof_C 	C 	0.67278	0.08602	0.08602	-0.008
Mof_C 	C 	0.4228	0.2259	0.2259	-0.064
Mof_C 	C 	0.34482	0.41398	0.41398	0
Mof_C 	C 	0.3746	0.2741	0.2741	-0.062
Mof_C 	C 	0.65518	0.58602	0.58602	0.003
Mof_C 	C 	0.6254	0.7259	0.7259	-0.059
Mof_C 	C 	0.32722	0.91398	0.91398	0.009
Mof_C 	C 	0.5772	0.7741	0.7741	-0.057
Mof_N 	N 	0.96363	0.83832	0.04942	-0.122
Mof_N 	N 	0.70065	0.70715	0.03895	-0.153
Mof_N 	N 	0.35137	0.66168	0.45058	-0.133
Mof_N 	N 	0.94675	0.79285	0.46105	-0.134
Mof_N 	N 	0.64863	0.54942	0.33832	-0.132
Mof_N 	N 	0.05325	0.53895	0.20715	-0.148
Mof_N 	N 	0.03637	0.95058	0.16168	-0.13
Mof_N 	N 	0.29935	0.96105	0.29285	-0.124
Mof_N 	N 	0.03637	0.16168	0.95058	-0.13
Mof_N 	N 	0.29935	0.29285	0.96105	-0.124
Mof_N 	N 	0.64863	0.33832	0.54942	-0.132
Mof_N 	N 	0.05325	0.20715	0.53895	-0.148
Mof_N 	N 	0.35137	0.45058	0.66168	-0.133
Mof_N 	N 	0.94675	0.46105	0.79285	-0.134
Mof_N 	N 	0.96363	0.04942	0.83832	-0.122
Mof_N 	N 	0.70065	0.03895	0.70715	-0.153
Mof_N 	N 	0.78132	0.06008	0.06008	-0.132
Mof_N 	N 	0.40148	0.43992	0.43992	-0.134
Mof_N 	N 	0.59852	0.56008	0.56008	-0.133
Mof_N 	N 	0.21868	0.93992	0.93992	-0.124
Mof_H 	H 	0.4977	0.5722	0.2106	0.011
Mof_H 	H 	0.6032	0.4732	0.1134	0.076
Mof_H 	H 	0.2195	0.7106	0.0722	0.002
Mof_H 	H 	0.3102	0.6134	0.9732	0.096
Mof_H 	H 	0.5023	0.4278	0.7894	0.015
Mof_H 	H 	0.3968	0.5268	0.8866	0.072
Mof_H 	H 	0.7805	0.2894	0.9278	0.027
Mof_H 	H 	0.6898	0.3866	0.0268	0.052
Mof_C 	C 	0.46085	0.58055	0.16115	0.084
Mof_C 	C 	0.52416	0.52044	0.10364	-0.145
Mof_C 	C 	0.29745	0.66115	0.08055	0.097
Mof_C 	C 	0.35176	0.60364	0.02044	-0.177
Mof_C 	C 	0.53915	0.41945	0.83885	0.077
Mof_C 	C 	0.47584	0.47956	0.89636	-0.13
Mof_C 	C 	0.70255	0.33885	0.91945	0.063
Mof_C 	C 	0.64824	0.39636	0.97956	-0.097
Mof_C 	C 	0.46882	0.53118	0.03118	0.06
Mof_C 	C 	0.2884	0.7116	0.2116	0.016
Mof_C 	C 	0.53118	0.46882	0.96882	0.049
Mof_C 	C 	0.7116	0.2884	0.7884	0.023
Mof_N 	N 	0.35166	0.64834	0.14834	-0.149
Mof_N 	N 	0.64834	0.35166	0.85166	-0.138
Mof_H 	H 	0.7805	0.9278	0.2894	0.027
Mof_H 	H 	0.6898	0.0268	0.3866	0.052
Mof_H 	H 	0.5023	0.7894	0.4278	0.015
Mof_H 	H 	0.3968	0.8866	0.5268	0.072
Mof_H 	H 	0.2195	0.0722	0.7106	0.002
Mof_H 	H 	0.3102	0.9732	0.6134	0.096
Mof_H 	H 	0.4977	0.2106	0.5722	0.011
Mof_H 	H 	0.6032	0.1134	0.4732	0.076
Mof_C 	C 	0.70255	0.91945	0.33885	0.063
Mof_C 	C 	0.64824	0.97956	0.39636	-0.097
Mof_C 	C 	0.53915	0.83885	0.41945	0.077
Mof_C 	C 	0.47584	0.89636	0.47956	-0.13
Mof_C 	C 	0.29745	0.08055	0.66115	0.097
Mof_C 	C 	0.35176	0.02044	0.60364	-0.177
Mof_C 	C 	0.46085	0.16115	0.58055	0.084
Mof_C 	C 	0.52416	0.10364	0.52044	-0.145
Mof_C 	C 	0.53118	0.96882	0.46882	0.049
Mof_C 	C 	0.7116	0.7884	0.2884	0.023
Mof_C 	C 	0.46882	0.03118	0.53118	0.06
Mof_C 	C 	0.2884	0.2116	0.7116	0.016
Mof_N 	N 	0.64834	0.85166	0.35166	-0.138
Mof_N 	N 	0.35166	0.14834	0.64834	-0.149
_end
