data_functionalizedCrystal
_audit_creation_method	'EQeq! by Chris Wilmer'
_symmetry_space_group_name_H-M	'P1'
_symmetry_Int_Tables_number	1
_symmetry_cell_setting	triclinic
loop_
_symmetry_equiv_pos_as_xyz
  x,y,z
_cell_length_a	20.287
_cell_length_b	23.0173
_cell_length_c	23.0173
_cell_angle_alpha	78.8015
_cell_angle_beta	63.852
_cell_angle_gamma	63.8521
loop_
_atom_site_label
_atom_site_type_symbol
_atom_site_fract_x
_atom_site_fract_y
_atom_site_fract_z
_atom_site_charge
Mof_Cd	Cd	0.42267	0.84417	0.62565	0.338
Mof_Cd	Cd	0.7331	0.8442	0.37432	0.34
Mof_Cd	Cd	0.89249	0.15583	0.37435	0.339
Mof_Cd	Cd	0.95162	0.1558	0.62568	0.342
Mof_Cd	Cd	0.04832	0.37435	0.84417	0.338
Mof_Cd	Cd	0.10742	0.62568	0.8442	0.341
Mof_Cd	Cd	0.26684	0.62565	0.15583	0.339
Mof_Cd	Cd	0.5773	0.37432	0.1558	0.341
Mof_Cd	Cd	0.57733	0.15583	0.37435	0.339
Mof_Cd	Cd	0.2669	0.1558	0.62568	0.341
Mof_Cd	Cd	0.10751	0.84417	0.62565	0.34
Mof_Cd	Cd	0.04838	0.8442	0.37432	0.343
Mof_Cd	Cd	0.95168	0.62565	0.15583	0.338
Mof_Cd	Cd	0.89258	0.37432	0.1558	0.341
Mof_Cd	Cd	0.73316	0.37435	0.84417	0.339
Mof_Cd	Cd	0.4227	0.62568	0.8442	0.341
Mof_H 	H 	0.3969	0.828	0.4942	0.021
Mof_H 	H 	0.4843	0.6991	0.6381	0.277
Mof_H 	H 	0.4424	0.6568	0.6892	0.277
Mof_H 	H 	0.5274	0.6485	0.6799	0.276
Mof_H 	H 	0.7743	0.8303	0.5067	0.022
Mof_H 	H 	0.2667	0.0429	0.5765	0.269
Mof_H 	H 	0.2631	0.9769	0.6075	0.264
Mof_H 	H 	0.3386	0.9777	0.5459	0.267
Mof_H 	H 	0.3777	0.0624	0.7032	0.021
Mof_H 	H 	0.4409	0.9393	0.7013	0.021
Mof_H 	H 	0.731	0.7237	0.4803	0.012
Mof_H 	H 	0.6193	0.7262	0.578	0.024
Mof_H 	H 	0.3953	0.862	0.7772	0.026
Mof_H 	H 	0.3973	0.7774	0.8604	0.026
Mof_H 	H 	0.7191	0.172	0.5058	0.021
Mof_H 	H 	0.8215	0.3009	0.3619	0.277
Mof_H 	H 	0.7884	0.3432	0.3108	0.277
Mof_H 	H 	0.8558	0.3515	0.3201	0.276
Mof_H 	H 	0.1113	0.1697	0.4933	0.022
Mof_H 	H 	0.8861	0.9571	0.4235	0.263
Mof_H 	H 	0.8475	0.0231	0.3925	0.259
Mof_H 	H 	0.8622	0.0223	0.4541	0.262
Mof_H 	H 	0.1433	0.9376	0.2968	0.019
Mof_H 	H 	0.0815	0.0607	0.2987	0.023
Mof_H 	H 	0.935	0.2763	0.5197	0.012
Mof_H 	H 	0.9235	0.2738	0.422	0.024
Mof_H 	H 	0.0345	0.138	0.2228	0.024
Mof_H 	H 	0.0351	0.2226	0.1396	0.026
Mof_H 	H 	0.8911	0.5058	0.828	0.021
Mof_H 	H 	0.1224	0.3619	0.6991	0.277
Mof_H 	H 	0.1316	0.3108	0.6568	0.276
Mof_H 	H 	0.2073	0.3201	0.6485	0.275
Mof_H 	H 	0.281	0.4933	0.8303	0.022
Mof_H 	H 	0.8432	0.4235	0.0429	0.268
Mof_H 	H 	0.8706	0.3925	0.9769	0.264
Mof_H 	H 	0.8845	0.4541	0.9777	0.267
Mof_H 	H 	0.0809	0.2968	0.0624	0.019
Mof_H 	H 	0.1422	0.2987	0.9393	0.022
Mof_H 	H 	0.2113	0.5197	0.7237	0.012
Mof_H 	H 	0.1973	0.422	0.7262	0.024
Mof_H 	H 	0.1725	0.2228	0.862	0.025
Mof_H 	H 	0.2577	0.1396	0.7774	0.026
Mof_H 	H 	0.2249	0.4942	0.172	0.021
Mof_H 	H 	0.1834	0.6381	0.3009	0.277
Mof_H 	H 	0.0992	0.6892	0.3432	0.277
Mof_H 	H 	0.1759	0.6799	0.3515	0.276
Mof_H 	H 	0.6046	0.5067	0.1697	0.022
Mof_H 	H 	0.3096	0.5765	0.9571	0.27
Mof_H 	H 	0.24	0.6075	0.0231	0.265
Mof_H 	H 	0.3163	0.5459	0.0223	0.268
Mof_H 	H 	0.4401	0.7032	0.9376	0.021
Mof_H 	H 	0.3802	0.7013	0.0607	0.021
Mof_H 	H 	0.4547	0.4803	0.2763	0.012
Mof_H 	H 	0.3455	0.578	0.2738	0.024
Mof_H 	H 	0.2573	0.7772	0.138	0.026
Mof_H 	H 	0.1747	0.8604	0.2226	0.026
Mof_H 	H 	0.6031	0.172	0.5058	0.021
Mof_H 	H 	0.5157	0.3009	0.3619	0.277
Mof_H 	H 	0.5576	0.3432	0.3108	0.277
Mof_H 	H 	0.4726	0.3515	0.3201	0.276
Mof_H 	H 	0.2257	0.1697	0.4933	0.022
Mof_H 	H 	0.7333	0.9571	0.4235	0.269
Mof_H 	H 	0.7369	0.0231	0.3925	0.264
Mof_H 	H 	0.6614	0.0223	0.4541	0.267
Mof_H 	H 	0.6223	0.9376	0.2968	0.021
Mof_H 	H 	0.5591	0.0607	0.2987	0.021
Mof_H 	H 	0.269	0.2763	0.5197	0.012
Mof_H 	H 	0.3807	0.2738	0.422	0.024
Mof_H 	H 	0.6047	0.138	0.2228	0.026
Mof_H 	H 	0.6027	0.2226	0.1396	0.026
Mof_H 	H 	0.2809	0.828	0.4942	0.021
Mof_H 	H 	0.1785	0.6991	0.6381	0.277
Mof_H 	H 	0.2116	0.6568	0.6892	0.277
Mof_H 	H 	0.1442	0.6485	0.6799	0.276
Mof_H 	H 	0.8887	0.8303	0.5067	0.022
Mof_H 	H 	0.1139	0.0429	0.5765	0.263
Mof_H 	H 	0.1525	0.9769	0.6075	0.259
Mof_H 	H 	0.1378	0.9777	0.5459	0.262
Mof_H 	H 	0.8567	0.0624	0.7032	0.019
Mof_H 	H 	0.9185	0.9393	0.7013	0.023
Mof_H 	H 	0.065	0.7237	0.4803	0.012
Mof_H 	H 	0.0765	0.7262	0.578	0.024
Mof_H 	H 	0.9655	0.862	0.7772	0.024
Mof_H 	H 	0.9649	0.7774	0.8604	0.026
Mof_H 	H 	0.1089	0.4942	0.172	0.021
Mof_H 	H 	0.8776	0.6381	0.3009	0.277
Mof_H 	H 	0.8684	0.6892	0.3432	0.276
Mof_H 	H 	0.7927	0.6799	0.3515	0.275
Mof_H 	H 	0.719	0.5067	0.1697	0.022
Mof_H 	H 	0.1568	0.5765	0.9571	0.268
Mof_H 	H 	0.1294	0.6075	0.0231	0.264
Mof_H 	H 	0.1155	0.5459	0.0223	0.267
Mof_H 	H 	0.9191	0.7032	0.9376	0.019
Mof_H 	H 	0.8578	0.7013	0.0607	0.022
Mof_H 	H 	0.7887	0.4803	0.2763	0.012
Mof_H 	H 	0.8027	0.578	0.2738	0.024
Mof_H 	H 	0.8275	0.7772	0.138	0.025
Mof_H 	H 	0.7423	0.8604	0.2226	0.026
Mof_H 	H 	0.7751	0.5058	0.828	0.021
Mof_H 	H 	0.8166	0.3619	0.6991	0.277
Mof_H 	H 	0.9008	0.3108	0.6568	0.277
Mof_H 	H 	0.8241	0.3201	0.6485	0.276
Mof_H 	H 	0.3954	0.4933	0.8303	0.022
Mof_H 	H 	0.6904	0.4235	0.0429	0.27
Mof_H 	H 	0.76	0.3925	0.9769	0.265
Mof_H 	H 	0.6837	0.4541	0.9777	0.268
Mof_H 	H 	0.5599	0.2968	0.0624	0.021
Mof_H 	H 	0.6198	0.2987	0.9393	0.021
Mof_H 	H 	0.5453	0.5197	0.7237	0.012
Mof_H 	H 	0.6545	0.422	0.7262	0.024
Mof_H 	H 	0.7427	0.2228	0.862	0.026
Mof_H 	H 	0.8253	0.1396	0.7774	0.026
Mof_C 	C 	0.5793	0.8443	0.4997	0.08
Mof_C 	C 	0.3518	0.8289	0.5311	-0.014
Mof_C 	C 	0.4765	0.679	0.6798	-0.875
Mof_C 	C 	0.4394	0.7278	0.7286	0.324
Mof_C 	C 	0.819	0.8302	0.4698	-0.018
Mof_C 	C 	0.2976	0.9995	0.5857	-0.846
Mof_C 	C 	0.335	0.0008	0.6274	0.327
Mof_C 	C 	0.3715	0.0355	0.6825	-0.002
Mof_C 	C 	0.4065	0.9661	0.6815	-0.001
Mof_C 	C 	0.6786	0.7547	0.4921	-0.005
Mof_C 	C 	0.6169	0.7557	0.5443	-0.033
Mof_C 	C 	0.4045	0.8196	0.7724	-0.003
Mof_C 	C 	0.4052	0.7724	0.8184	-0.003
Mof_C 	C 	0.9233	0.1557	0.5003	0.08
Mof_C 	C 	0.7118	0.1711	0.4689	-0.014
Mof_C 	C 	0.8353	0.321	0.3202	-0.875
Mof_C 	C 	0.8958	0.2722	0.2714	0.324
Mof_C 	C 	0.119	0.1698	0.5302	-0.018
Mof_C 	C 	0.8828	0.0005	0.4143	-0.829
Mof_C 	C 	0.9632	0.9992	0.3726	0.318
Mof_C 	C 	0.0895	0.9645	0.3175	0.004
Mof_C 	C 	0.0541	0.0339	0.3185	-0.009
Mof_C 	C 	0.9254	0.2453	0.5079	-0.005
Mof_C 	C 	0.9169	0.2443	0.4557	-0.033
Mof_C 	C 	0.9965	0.1804	0.2276	-0.001
Mof_C 	C 	0.996	0.2276	0.1816	-0.004
Mof_C 	C 	0.079	0.5003	0.8443	0.079
Mof_C 	C 	0.8829	0.4689	0.8289	-0.014
Mof_C 	C 	0.1563	0.3202	0.679	-0.874
Mof_C 	C 	0.168	0.2714	0.7278	0.324
Mof_C 	C 	0.2888	0.5302	0.8302	-0.018
Mof_C 	C 	0.8833	0.4143	0.9995	-0.845
Mof_C 	C 	0.9624	0.3726	0.0008	0.327
Mof_C 	C 	0.054	0.3175	0.0355	0.002
Mof_C 	C 	0.088	0.3185	0.9661	-0.006
Mof_C 	C 	0.1707	0.5079	0.7547	-0.005
Mof_C 	C 	0.1612	0.4557	0.7557	-0.033
Mof_C 	C 	0.1769	0.2276	0.8196	-0.003
Mof_C 	C 	0.2236	0.1816	0.7724	-0.003
Mof_C 	C 	0.4236	0.4997	0.1557	0.08
Mof_C 	C 	0.1807	0.5311	0.1711	-0.014
Mof_C 	C 	0.1555	0.6798	0.321	-0.876
Mof_C 	C 	0.1672	0.7286	0.2722	0.324
Mof_C 	C 	0.6492	0.4698	0.1698	-0.018
Mof_C 	C 	0.2971	0.5857	0.0005	-0.85
Mof_C 	C 	0.3358	0.6274	0.9992	0.328
Mof_C 	C 	0.407	0.6825	0.9645	-0.002
Mof_C 	C 	0.3726	0.6815	0.0339	-0.002
Mof_C 	C 	0.4333	0.4921	0.2453	-0.005
Mof_C 	C 	0.3726	0.5443	0.2443	-0.033
Mof_C 	C 	0.2241	0.7724	0.1804	-0.003
Mof_C 	C 	0.1776	0.8184	0.2276	-0.003
Mof_C 	C 	0.4207	0.1557	0.5003	0.08
Mof_C 	C 	0.6482	0.1711	0.4689	-0.014
Mof_C 	C 	0.5235	0.321	0.3202	-0.875
Mof_C 	C 	0.5606	0.2722	0.2714	0.324
Mof_C 	C 	0.181	0.1698	0.5302	-0.018
Mof_C 	C 	0.7024	0.0005	0.4143	-0.846
Mof_C 	C 	0.665	0.9992	0.3726	0.327
Mof_C 	C 	0.6285	0.9645	0.3175	-0.002
Mof_C 	C 	0.5935	0.0339	0.3185	-0.001
Mof_C 	C 	0.3214	0.2453	0.5079	-0.005
Mof_C 	C 	0.3831	0.2443	0.4557	-0.033
Mof_C 	C 	0.5955	0.1804	0.2276	-0.003
Mof_C 	C 	0.5948	0.2276	0.1816	-0.003
Mof_C 	C 	0.0767	0.8443	0.4997	0.08
Mof_C 	C 	0.2882	0.8289	0.5311	-0.014
Mof_C 	C 	0.1647	0.679	0.6798	-0.875
Mof_C 	C 	0.1042	0.7278	0.7286	0.324
Mof_C 	C 	0.881	0.8302	0.4698	-0.018
Mof_C 	C 	0.1172	0.9995	0.5857	-0.829
Mof_C 	C 	0.0368	0.0008	0.6274	0.318
Mof_C 	C 	0.9105	0.0355	0.6825	0.004
Mof_C 	C 	0.9459	0.9661	0.6815	-0.009
Mof_C 	C 	0.0746	0.7547	0.4921	-0.005
Mof_C 	C 	0.0831	0.7557	0.5443	-0.033
Mof_C 	C 	0.0035	0.8196	0.7724	-0.001
Mof_C 	C 	0.004	0.7724	0.8184	-0.004
Mof_C 	C 	0.921	0.4997	0.1557	0.079
Mof_C 	C 	0.1171	0.5311	0.1711	-0.014
Mof_C 	C 	0.8437	0.6798	0.321	-0.874
Mof_C 	C 	0.832	0.7286	0.2722	0.324
Mof_C 	C 	0.7112	0.4698	0.1698	-0.018
Mof_C 	C 	0.1167	0.5857	0.0005	-0.845
Mof_C 	C 	0.0376	0.6274	0.9992	0.327
Mof_C 	C 	0.946	0.6825	0.9645	0.002
Mof_C 	C 	0.912	0.6815	0.0339	-0.006
Mof_C 	C 	0.8293	0.4921	0.2453	-0.005
Mof_C 	C 	0.8388	0.5443	0.2443	-0.033
Mof_C 	C 	0.8231	0.7724	0.1804	-0.003
Mof_C 	C 	0.7764	0.8184	0.2276	-0.003
Mof_C 	C 	0.5764	0.5003	0.8443	0.08
Mof_C 	C 	0.8193	0.4689	0.8289	-0.014
Mof_C 	C 	0.8445	0.3202	0.679	-0.876
Mof_C 	C 	0.8328	0.2714	0.7278	0.324
Mof_C 	C 	0.3508	0.5302	0.8302	-0.018
Mof_C 	C 	0.7029	0.4143	0.9995	-0.85
Mof_C 	C 	0.6642	0.3726	0.0008	0.328
Mof_C 	C 	0.593	0.3175	0.0355	-0.002
Mof_C 	C 	0.6274	0.3185	0.9661	-0.002
Mof_C 	C 	0.5667	0.5079	0.7547	-0.005
Mof_C 	C 	0.6274	0.4557	0.7557	-0.033
Mof_C 	C 	0.7759	0.2276	0.8196	-0.003
Mof_C 	C 	0.8224	0.1816	0.7724	-0.003
Mof_C 	C 	0.2314	0.8335	0.7037	-0.064
Mof_C 	C 	0.2682	0.832	0.6316	0.091
Mof_C 	C 	0.7686	0.1665	0.2963	-0.064
Mof_C 	C 	0.7318	0.168	0.3684	0.091
Mof_C 	C 	0.9351	0.2963	0.8335	-0.063
Mof_C 	C 	0.8998	0.3684	0.832	0.091
Mof_C 	C 	0.0649	0.7037	0.1665	-0.063
Mof_C 	C 	0.1002	0.6316	0.168	0.091
Mof_C 	C 	0.9348	0.8322	0.2982	-0.068
Mof_C 	C 	0.8985	0.8337	0.3693	0.098
Mof_C 	C 	0.0652	0.1678	0.7018	-0.068
Mof_C 	C 	0.1015	0.1663	0.6307	0.098
Mof_C 	C 	0.233	0.7018	0.8322	-0.066
Mof_C 	C 	0.2678	0.6307	0.8337	0.098
Mof_C 	C 	0.767	0.2982	0.1678	-0.066
Mof_C 	C 	0.7322	0.3693	0.1663	0.098
Mof_N 	N 	0.65	0.8109	0.4559	-0.159
Mof_N 	N 	0.5396	0.8111	0.5439	-0.156
Mof_N 	N 	0.3432	0.8306	0.594	-0.159
Mof_N 	N 	0.4201	0.7922	0.7172	-0.196
Mof_N 	N 	0.4193	0.7164	0.7936	-0.196
Mof_N 	N 	0.8272	0.83	0.406	-0.163
Mof_N 	N 	0.3278	0.0533	0.6471	-0.208
Mof_N 	N 	0.3812	0.9466	0.6472	-0.203
Mof_N 	N 	0.9168	0.1891	0.5441	-0.159
Mof_N 	N 	0.8946	0.1889	0.4561	-0.156
Mof_N 	N 	0.7678	0.1694	0.406	-0.159
Mof_N 	N 	0.9295	0.2078	0.2828	-0.197
Mof_N 	N 	0.9293	0.2836	0.2064	-0.196
Mof_N 	N 	0.0632	0.17	0.594	-0.164
Mof_N 	N 	0.0282	0.9467	0.3529	-0.205
Mof_N 	N 	0.975	0.0534	0.3528	-0.198
Mof_N 	N 	0.1059	0.5441	0.8109	-0.159
Mof_N 	N 	0.0835	0.4561	0.8111	-0.156
Mof_N 	N 	0.9372	0.406	0.8306	-0.159
Mof_N 	N 	0.1373	0.2828	0.7922	-0.196
Mof_N 	N 	0.2129	0.2064	0.7164	-0.196
Mof_N 	N 	0.2332	0.594	0.83	-0.163
Mof_N 	N 	0.9749	0.3529	0.0533	-0.209
Mof_N 	N 	0.0284	0.3528	0.9466	-0.203
Mof_N 	N 	0.4609	0.4559	0.1891	-0.159
Mof_N 	N 	0.3507	0.5439	0.1889	-0.156
Mof_N 	N 	0.1738	0.594	0.1694	-0.159
Mof_N 	N 	0.2123	0.7172	0.2078	-0.196
Mof_N 	N 	0.1357	0.7936	0.2836	-0.196
Mof_N 	N 	0.6572	0.406	0.17	-0.163
Mof_N 	N 	0.3811	0.6471	0.9467	-0.208
Mof_N 	N 	0.3278	0.6472	0.0534	-0.203
Mof_N 	N 	0.35	0.1891	0.5441	-0.159
Mof_N 	N 	0.4604	0.1889	0.4561	-0.156
Mof_N 	N 	0.6568	0.1694	0.406	-0.159
Mof_N 	N 	0.5799	0.2078	0.2828	-0.196
Mof_N 	N 	0.5807	0.2836	0.2064	-0.196
Mof_N 	N 	0.1728	0.17	0.594	-0.163
Mof_N 	N 	0.6722	0.9467	0.3529	-0.208
Mof_N 	N 	0.6188	0.0534	0.3528	-0.203
Mof_N 	N 	0.0832	0.8109	0.4559	-0.159
Mof_N 	N 	0.1054	0.8111	0.5439	-0.156
Mof_N 	N 	0.2322	0.8306	0.594	-0.159
Mof_N 	N 	0.0705	0.7922	0.7172	-0.197
Mof_N 	N 	0.0707	0.7164	0.7936	-0.196
Mof_N 	N 	0.9368	0.83	0.406	-0.164
Mof_N 	N 	0.9718	0.0533	0.6471	-0.205
Mof_N 	N 	0.025	0.9466	0.6472	-0.198
Mof_N 	N 	0.8941	0.4559	0.1891	-0.159
Mof_N 	N 	0.9165	0.5439	0.1889	-0.156
Mof_N 	N 	0.0628	0.594	0.1694	-0.159
Mof_N 	N 	0.8627	0.7172	0.2078	-0.196
Mof_N 	N 	0.7871	0.7936	0.2836	-0.196
Mof_N 	N 	0.7668	0.406	0.17	-0.163
Mof_N 	N 	0.0251	0.6471	0.9467	-0.209
Mof_N 	N 	0.9716	0.6472	0.0534	-0.203
Mof_N 	N 	0.5391	0.5441	0.8109	-0.159
Mof_N 	N 	0.6493	0.4561	0.8111	-0.156
Mof_N 	N 	0.8262	0.406	0.8306	-0.159
Mof_N 	N 	0.7877	0.2828	0.7922	-0.196
Mof_N 	N 	0.8643	0.2064	0.7164	-0.196
Mof_N 	N 	0.3428	0.594	0.83	-0.163
Mof_N 	N 	0.6189	0.3529	0.0533	-0.208
Mof_N 	N 	0.6722	0.3528	0.9466	-0.203
_end
