data_functionalizedCrystal
_audit_creation_method	'EQeq! by Chris Wilmer'
_symmetry_space_group_name_H-M	'P1'
_symmetry_Int_Tables_number	1
_symmetry_cell_setting	triclinic
loop_
_symmetry_equiv_pos_as_xyz
  x,y,z
_cell_length_a	8.4208
_cell_length_b	8.4933
_cell_length_c	16.3164
_cell_angle_alpha	89.152
_cell_angle_beta	78.185
_cell_angle_gamma	70.295
loop_
_atom_site_label
_atom_site_type_symbol
_atom_site_fract_x
_atom_site_fract_y
_atom_site_fract_z
_atom_site_charge
Mof_Li	Li	0.5167	0.7703	0.6274	1.831
Mof_Li	Li	0.1638	0.8269	0.6835	4.418
Mof_Li	Li	0.846	0.7936	0.623	4.459
Mof_Li	Li	0.5161	0.8065	0.1507	4.799
Mof_Zr	Zr	0.3992	0.2707	0.415	3.196
Mof_Zr	Zr	0.623	0.3432	0.8876	3.196
Mof_C 	C 	0.3683	0.1775	0.9819	0.213
Mof_C 	C 	0.6575	0.4388	0.326	0.098
Mof_C 	C 	0.5351	0.039	0.5497	0.489
Mof_C 	C 	0.4768	0.6239	0.0243	0.221
Mof_C 	C 	0.9673	0.066	0.8089	0.166
Mof_C 	C 	0.8359	0.0483	0.7598	0.626
Mof_C 	C 	0.6734	0.5699	0.0169	0.148
Mof_C 	C 	0.0506	0.5459	0.4926	0.161
Mof_C 	C 	0.3477	0.0434	0.559	0.493
Mof_C 	C 	0.3538	0.0416	0.2859	0.317
Mof_C 	C 	0.4767	0.574	0.7537	0.449
Mof_C 	C 	0.5046	0.4982	0.2809	0.56
Mof_C 	C 	0.55	0.9894	0.2794	0.143
Mof_C 	C 	0.1808	0.5756	0.539	0.569
Mof_C 	C 	0.6618	0.5762	0.7442	0.472
Mof_C 	C 	0.5251	0.1152	0.024	0.469
Mof_O 	O 	0.2911	0.9567	0.6113	-1.459
Mof_O 	O 	0.5763	0.139	0.4968	-0.701
Mof_O 	O 	0.1159	0.4253	0.4358	-0.516
Mof_O 	O 	0.4988	0.5935	0.2237	-0.985
Mof_O 	O 	0.8962	0.6379	0.5126	-0.938
Mof_O 	O 	0.6267	0.3562	0.3919	-0.538
Mof_O 	O 	0.3843	0.4338	0.3117	-0.698
Mof_O 	O 	0.2656	0.1421	0.5095	-0.73
Mof_O 	O 	0.338	0.4794	0.5119	-0.768
Mof_O 	O 	0.2956	0.9692	0.2406	-0.913
Mof_O 	O 	0.7916	0.469	0.3004	-0.198
Mof_O 	O 	0.9029	0.1872	0.8662	-0.516
Mof_O 	O 	0.2657	0.1632	0.342	-0.569
Mof_O 	O 	0.6434	0.1807	0.9918	-0.632
Mof_O 	O 	0.1187	0.9685	0.7912	-0.98
Mof_O 	O 	0.6508	0.8782	0.2272	-0.949
Mof_O 	O 	0.6829	0.1535	0.7831	-0.758
Mof_O 	O 	0.1241	0.6867	0.5969	-1.777
Mof_O 	O 	0.733	0.6411	0.0622	-0.865
Mof_O 	O 	0.5916	0.0732	0.3325	-0.565
Mof_O 	O 	0.7456	0.4857	0.7954	-0.737
Mof_O 	O 	0.6295	0.9432	0.5924	-1.475
Mof_O 	O 	0.8905	0.9355	0.7022	-1.887
Mof_O 	O 	0.437	0.4785	0.8092	-0.672
Mof_O 	O 	0.7146	0.6619	0.6896	-1.449
Mof_O 	O 	0.3829	0.6614	0.7079	-1.423
Mof_O 	O 	0.2325	0.1527	0.0115	-0.234
Mof_O 	O 	0.3976	0.2569	0.9149	-0.549
Mof_O 	O 	0.4328	0.5427	0.9713	-0.569
Mof_O 	O 	0.3776	0.7345	0.0775	-0.976
Mof_O 	O 	0.7598	0.4485	0.9607	-0.501
Mof_O 	O 	0.5354	0.0176	0.0803	-0.966
_end
