data_functionalizedCrystal
_audit_creation_method	'EQeq! by Chris Wilmer'
_symmetry_space_group_name_H-M	'P1'
_symmetry_Int_Tables_number	1
_symmetry_cell_setting	triclinic
loop_
_symmetry_equiv_pos_as_xyz
  x,y,z
_cell_length_a	11.2644
_cell_length_b	12.7025
_cell_length_c	13.2365
_cell_angle_alpha	97.922
_cell_angle_beta	112.939
_cell_angle_gamma	109.088
loop_
_atom_site_label
_atom_site_type_symbol
_atom_site_fract_x
_atom_site_fract_y
_atom_site_fract_z
_atom_site_charge
Mof_Mn	Mn	0.89498	0.0699	0.22334	0.887
Mof_C 	C 	0.9711	0.2288	0.1267	0.335
Mof_C 	C 	0.9807	0.318	0.0625	-0.07
Mof_C 	C 	0.0057	0.4283	0.1152	-0.009
Mof_H 	H 	0.0215	0.4482	0.191	0.072
Mof_C 	C 	0.0082	0.5134	0.0561	-0.055
Mof_C 	C 	0.0313	0.63	0.1052	0.112
Mof_C 	C 	0.9602	0.2869	0.9495	0.009
Mof_H 	H 	0.9412	0.2111	0.9126	0.07
Mof_C 	C 	0.1656	0.0314	0.2669	0.439
Mof_C 	C 	0.2939	0.0066	0.3336	-0.009
Mof_C 	C 	0.3457	0.0403	0.4516	0.132
Mof_H 	H 	0.3006	0.0728	0.4837	-0.078
Mof_C 	C 	0.5262	0.0608	0.6463	0.052
Mof_C 	C 	0.4643	0.0262	0.5229	0.045
Mof_C 	C 	0.3602	0.9555	0.2838	0.121
Mof_H 	H 	0.3265	0.9335	0.2044	0.06
Mof_C 	C 	0.2911	0.0391	0.3831	-0.244
Mof_C 	C 	0.3285	0.0892	0.4971	0.114
Mof_H 	H 	0.2758	0.1243	0.5154	0.044
Mof_C 	C 	0.4446	0.086	0.5826	-0.025
Mof_C 	C 	0.5192	0.0258	0.5566	-0.138
Mof_C 	C 	0.3594	0.9816	0.3529	0.058
Mof_H 	H 	0.33	0.947	0.2756	-0.071
Mof_C 	C 	0.7816	0.8232	0.0582	0.369
Mof_C 	C 	0.6814	0.6957	0.024	-0.1
Mof_C 	C 	0.6075	0.6592	0.0803	0.018
Mof_H 	H 	0.6202	0.7129	0.1432	0.073
Mof_C 	C 	0.5103	0.541	0.0469	-0.056
Mof_C 	C 	0.66	0.6165	0.9289	0.01
Mof_H 	H 	0.7111	0.6404	0.8892	0.074
Mof_C 	C 	0.4359	0.4964	0.1065	0.12
Mof_O 	O 	0.9944	0.2602	0.2279	-0.33
Mof_O 	O 	0.9314	0.1225	0.0724	-0.413
Mof_O 	O 	0.0986	0.0708	0.3104	-0.394
Mof_O 	O 	0.1384	0.0041	0.168	-0.43
Mof_O 	O 	0.7996	0.8893	0.1463	-0.376
Mof_O 	O 	0.8337	0.8499	0.9928	-0.322
Mof_N 	N 	0.0456	0.6651	0.221	0.018
Mof_O 	O 	0.9505	0.5926	0.2391	-0.094
Mof_O 	O 	0.1289	0.755	0.2837	-0.044
Mof_N 	N 	0.4736	0.13	0.7026	0.036
Mof_O 	O 	0.4221	0.1888	0.6666	-0.082
Mof_O 	O 	0.4677	0.0992	0.7893	-0.105
Mof_O 	O 	0.376	0.1246	0.7135	-0.083
Mof_O 	O 	0.6023	0.2035	0.7739	-0.073
Mof_N 	N 	0.4929	0.5679	0.234	-0.006
Mof_O 	O 	0.618	0.6337	0.2972	-0.122
Mof_O 	O 	0.3995	0.5539	0.2624	-0.05
Mof_S 	S 	0.9201	0.1779	0.493	0.159
Mof_O 	O 	0.8641	0.0933	0.3783	-0.031
Mof_C 	C 	0.991	0.3213	0.4839	0.208
Mof_H 	H 	0.9165	0.3349	0.4283	-0.05
Mof_H 	H 	0.0632	0.3291	0.4607	-0.483
Mof_H 	H 	0.0307	0.3774	0.5578	-0.002
Mof_C 	C 	0.074	0.176	0.6	-0.461
Mof_H 	H 	0.0511	0.1015	0.6136	0.299
Mof_H 	H 	0.111	0.2368	0.6696	0.114
Mof_H 	H 	0.1449	0.1886	0.5734	0.19
Mof_C 	C 	0.058	0.324	0.5066	-0.021
Mof_C 	C 	0.059	0.149	0.595	-0.33
Mof_H 	H 	0.0512	0.355	0.4435	0.43
Mof_H 	H 	0.1394	0.3787	0.5761	0.052
Mof_H 	H 	0.9738	0.3101	0.5153	-0.092
Mof_H 	H 	0.1401	0.196	0.6677	0.175
Mof_H 	H 	0.0578	0.0723	0.5754	-0.045
Mof_H 	H 	0.9742	0.1418	0.5987	0.18
Mof_N 	N 	0.6463	0.4193	0.8661	0.001
Mof_O 	O 	0.6596	0.3353	0.8979	-0.071
Mof_O 	O 	0.668	0.4411	0.79	-0.043
Mof_O 	O 	0.9344	0.1231	0.3891	-0.334
Mof_O 	O 	0.024	0.7439	0.2499	-0.119
Mof_O 	O 	0.144	0.6473	0.3087	-0.088
Mof_S 	S 	0.0714	0.2164	0.4842	0.238
Mof_Mn	Mn	0.10502	0.9301	0.77666	0.945
Mof_C 	C 	0.0289	0.7712	0.8733	0.308
Mof_C 	C 	0.0193	0.682	0.9375	-0.001
Mof_C 	C 	0.9943	0.5717	0.8848	-0.047
Mof_H 	H 	0.9785	0.5518	0.809	0.103
Mof_C 	C 	0.9918	0.4866	0.9439	0.101
Mof_C 	C 	0.9687	0.37	0.8948	0.05
Mof_C 	C 	0.0398	0.7131	0.0505	-0.118
Mof_H 	H 	0.0588	0.7889	0.0874	0.106
Mof_C 	C 	0.8344	0.9686	0.7331	0.406
Mof_C 	C 	0.7061	0.9934	0.6664	-0.113
Mof_C 	C 	0.6543	0.9597	0.5484	0.007
Mof_H 	H 	0.6994	0.9272	0.5163	-0.079
Mof_C 	C 	0.4738	0.9392	0.3537	-0.048
Mof_C 	C 	0.5357	0.9738	0.4771	-0.027
Mof_C 	C 	0.6398	0.0445	0.7162	0.149
Mof_H 	H 	0.6735	0.0665	0.7956	0.042
Mof_C 	C 	0.7089	0.9609	0.6169	0.021
Mof_C 	C 	0.6715	0.9108	0.5029	0.127
Mof_H 	H 	0.7242	0.8757	0.4846	0.042
Mof_C 	C 	0.5554	0.914	0.4174	0.049
Mof_C 	C 	0.4808	0.9742	0.4434	0.082
Mof_C 	C 	0.6406	0.0184	0.6471	0.049
Mof_H 	H 	0.67	0.053	0.7244	-0.098
Mof_C 	C 	0.2184	0.1768	0.9418	0.4
Mof_C 	C 	0.3186	0.3043	0.976	0.001
Mof_C 	C 	0.3925	0.3408	0.9197	-0.075
Mof_H 	H 	0.3798	0.2871	0.8568	0.103
Mof_C 	C 	0.4897	0.459	0.9531	0.079
Mof_C 	C 	0.34	0.3835	0.0711	-0.125
Mof_H 	H 	0.2889	0.3596	0.1108	0.106
Mof_C 	C 	0.5641	0.5036	0.8935	0.047
Mof_O 	O 	0.0056	0.7398	0.7721	-0.344
Mof_O 	O 	0.0686	0.8775	0.9276	-0.38
Mof_O 	O 	0.9014	0.9292	0.6896	-0.362
Mof_O 	O 	0.8616	0.9959	0.832	-0.35
Mof_O 	O 	0.2004	0.1107	0.8537	-0.427
Mof_O 	O 	0.1663	0.1501	0.0072	-0.406
Mof_N 	N 	0.9544	0.3349	0.779	0.044
Mof_O 	O 	0.0495	0.4074	0.7609	-0.128
Mof_O 	O 	0.8711	0.245	0.7163	-0.061
Mof_N 	N 	0.5264	0.87	0.2974	0.042
Mof_O 	O 	0.5779	0.8112	0.3334	-0.092
Mof_O 	O 	0.5323	0.9008	0.2107	-0.089
Mof_O 	O 	0.624	0.8754	0.2865	-0.064
Mof_O 	O 	0.3977	0.7965	0.2261	-0.069
Mof_N 	N 	0.5071	0.4321	0.766	0.003
Mof_O 	O 	0.382	0.3663	0.7028	-0.122
Mof_O 	O 	0.6005	0.4461	0.7376	-0.05
Mof_S 	S 	0.0799	0.8221	0.507	0.102
Mof_O 	O 	0.1359	0.9067	0.6217	0.125
Mof_C 	C 	0.009	0.6787	0.5161	0.266
Mof_H 	H 	0.0835	0.6651	0.5717	-0.073
Mof_H 	H 	0.9368	0.6709	0.5393	-0.51
Mof_H 	H 	0.9693	0.6226	0.4422	0.035
Mof_C 	C 	0.926	0.824	0.4	-0.434
Mof_H 	H 	0.9489	0.8985	0.3864	0.299
Mof_H 	H 	0.889	0.7632	0.3304	0.12
Mof_H 	H 	0.8551	0.8114	0.4266	0.154
Mof_C 	C 	0.942	0.676	0.4934	-0.088
Mof_C 	C 	0.941	0.851	0.405	-0.316
Mof_H 	H 	0.9488	0.645	0.5565	0.476
Mof_H 	H 	0.8606	0.6213	0.4239	0.062
Mof_H 	H 	0.0262	0.6899	0.4847	-0.14
Mof_H 	H 	0.8599	0.804	0.3323	0.173
Mof_H 	H 	0.9422	0.9277	0.4246	-0.008
Mof_H 	H 	0.0258	0.8582	0.4013	0.169
Mof_N 	N 	0.3537	0.5807	0.1339	-0.007
Mof_O 	O 	0.3404	0.6647	0.1021	-0.082
Mof_O 	O 	0.332	0.5589	0.21	-0.048
Mof_O 	O 	0.0656	0.8769	0.6109	-0.499
Mof_O 	O 	0.976	0.2561	0.7501	-0.104
Mof_O 	O 	0.856	0.3527	0.6913	-0.081
Mof_S 	S 	0.9286	0.7836	0.5158	0.394
Mof_Mn	Mn	-0	0	-0	0.913
_end
