data_functionalizedCrystal
_audit_creation_method	'EQeq! by Chris Wilmer'
_symmetry_space_group_name_H-M	'P1'
_symmetry_Int_Tables_number	1
_symmetry_cell_setting	triclinic
loop_
_symmetry_equiv_pos_as_xyz
  x,y,z
_cell_length_a	10.5059
_cell_length_b	11.1476
_cell_length_c	12.7931
_cell_angle_alpha	100.955
_cell_angle_beta	110.45
_cell_angle_gamma	99.939
loop_
_atom_site_label
_atom_site_type_symbol
_atom_site_fract_x
_atom_site_fract_y
_atom_site_fract_z
_atom_site_charge
Mof_Dy	Dy	0.39328	0.95091	0.82415	1.886
Mof_O 	O 	0.3418	0.9944	0.9857	-0.569
Mof_O 	O 	0.3809	0.0584	0.1699	-0.465
Mof_O 	O 	0.4326	0.7803	0.9034	-0.472
Mof_O 	O 	0.5008	0.8307	0.0961	-0.511
Mof_O 	O 	0.1677	0.793	0.7379	-0.423
Mof_O 	O 	0.3183	0.765	0.6595	-0.408
Mof_C 	C 	0.2981	0.0228	0.0651	0.453
Mof_C 	C 	0.1443	0.0126	0.0326	-0.139
Mof_C 	C 	0.0932	0.0577	0.1158	0.123
Mof_C 	C 	0.0511	0.9549	0.9185	-0.048
Mof_H 	H 	0.0856	0.9241	0.8639	0.051
Mof_C 	C 	0.4711	0.7545	0.998	0.456
Mof_C 	C 	0.4839	0.6216	0.998	-0.122
Mof_C 	C 	0.486	0.5407	0.9005	0.054
Mof_C 	C 	0.4974	0.58	0.0953	-0.028
Mof_H 	H 	0.4955	0.6338	0.1596	0.049
Mof_C 	C 	0.2007	0.7294	0.665	0.346
Mof_C 	C 	0.0976	0.6102	0.5804	-0.115
Mof_C 	C 	0.1363	0.5313	0.5048	0.074
Mof_C 	C 	0.9614	0.5791	0.5754	0.073
Mof_N 	N 	0.1758	0.1163	0.2248	-0.104
Mof_N 	N 	0.279	0.534	0.5216	-0.079
Mof_N 	N 	0.905	0.653	0.643	-0.081
Mof_Dy	Dy	0.60672	0.04909	0.17585	1.885
Mof_O 	O 	0.6582	0.0056	0.0143	-0.57
Mof_O 	O 	0.6191	0.9416	0.8301	-0.465
Mof_O 	O 	0.5674	0.2197	0.0966	-0.472
Mof_O 	O 	0.4992	0.1693	0.9039	-0.511
Mof_O 	O 	0.8323	0.207	0.2621	-0.423
Mof_O 	O 	0.6817	0.235	0.3405	-0.408
Mof_C 	C 	0.7019	0.9772	0.9349	0.453
Mof_C 	C 	0.8557	0.9874	0.9674	-0.139
Mof_C 	C 	0.9068	0.9423	0.8842	0.123
Mof_C 	C 	0.9489	0.0451	0.0815	-0.048
Mof_H 	H 	0.9144	0.0759	0.1361	0.051
Mof_C 	C 	0.5289	0.2455	0.002	0.456
Mof_C 	C 	0.5161	0.3784	0.002	-0.122
Mof_C 	C 	0.514	0.4593	0.0995	0.054
Mof_C 	C 	0.5026	0.42	0.9047	-0.028
Mof_H 	H 	0.5045	0.3662	0.8404	0.049
Mof_C 	C 	0.7993	0.2706	0.335	0.346
Mof_C 	C 	0.9024	0.3898	0.4196	-0.115
Mof_C 	C 	0.8637	0.4687	0.4952	0.074
Mof_C 	C 	0.0386	0.4209	0.4246	0.073
Mof_N 	N 	0.8242	0.8837	0.7752	-0.104
Mof_N 	N 	0.721	0.466	0.4784	-0.079
Mof_N 	N 	0.095	0.347	0.357	-0.081
_end
