data_functionalizedCrystal
_audit_creation_method	'EQeq! by Chris Wilmer'
_symmetry_space_group_name_H-M	'P1'
_symmetry_Int_Tables_number	1
_symmetry_cell_setting	triclinic
loop_
_symmetry_equiv_pos_as_xyz
  x,y,z
_cell_length_a	17.1126
_cell_length_b	27.766
_cell_length_c	9.3275
_cell_angle_alpha	90
_cell_angle_beta	92.046
_cell_angle_gamma	90
loop_
_atom_site_label
_atom_site_type_symbol
_atom_site_fract_x
_atom_site_fract_y
_atom_site_fract_z
_atom_site_charge
Mof_Zn	Zn	0.00208	0.29272	0.92829	1.212
Mof_C 	C 	0.4292	0.42116	0.7524	-0.177
Mof_C 	C 	0.5086	0.62545	0.6237	0.15
Mof_H 	H 	0.5147	0.6418	0.5378	-0.009
Mof_C 	C 	0.4294	0.47116	0.7527	0.14
Mof_O 	O 	0.5037	0.72458	0.6325	-0.515
Mof_C 	C 	0.3531	0.39523	0.7529	0.246
Mof_C 	C 	0.508	0.57617	0.6246	-0.235
Mof_H 	H 	0.5132	0.5596	0.5387	0.12
Mof_C 	C 	0.2074	0.34955	0.7554	-0.302
Mof_C 	C 	0.1289	0.32665	0.7561	0.545
Mof_O 	O 	0.1036	0.3151	0.8709	-0.575
Mof_N 	N 	0.9997	0.2808	0.1326	-0.292
Mof_O 	O 	0.0923	0.3229	0.6403	-0.583
Mof_C 	C 	0.259	0.3438	0.6544	0.162
Mof_H 	H 	0.2448	0.3244	0.5766	-0.024
Mof_C 	C 	0.2325	0.3809	0.868	-0.021
Mof_H 	H 	0.1988	0.3879	0.9411	0.036
Mof_C 	C 	0.3323	0.3644	0.656	-0.206
Mof_H 	H 	0.3672	0.356	0.586	0.109
Mof_C 	C 	0.3043	0.4005	0.8698	-0.044
Mof_H 	H 	0.322	0.4178	0.9499	0.051
Mof_C 	C 	0.9315	0.2448	0.183	0.007
Mof_C 	C 	0.0761	0.248	0.188	-0.031
Mof_C 	C 	0.2605	0.341	0.8536	0.212
Mof_H 	H 	0.2491	0.3199	0.9274	-0.037
Mof_C 	C 	0.2226	0.3828	0.6443	0.033
Mof_H 	H 	0.1847	0.3897	0.5734	0.021
Mof_C 	C 	0.2958	0.4047	0.6441	-0.108
Mof_H 	H 	0.3072	0.426	0.5707	0.073
Mof_C 	C 	0.3338	0.3622	0.8532	-0.242
Mof_H 	H 	0.371	0.3535	0.9237	0.121
Mof_N 	N 	0.3587	0.4976	0.7538	-0.125
Mof_Zn	Zn	0.50208	0.79272	0.92829	1.222
Mof_C 	C 	0.9292	0.92116	0.7524	-0.154
Mof_C 	C 	0.0086	0.12545	0.6237	0.147
Mof_H 	H 	0.0147	0.1418	0.5378	-0.01
Mof_C 	C 	0.9294	0.97116	0.7527	0.153
Mof_O 	O 	0.0037	0.22458	0.6325	-0.517
Mof_C 	C 	0.8531	0.89523	0.7529	0.238
Mof_C 	C 	0.008	0.07617	0.6246	-0.231
Mof_H 	H 	0.0132	0.0596	0.5387	0.116
Mof_C 	C 	0.7074	0.84955	0.7554	-0.296
Mof_C 	C 	0.6289	0.82665	0.7561	0.542
Mof_O 	O 	0.6036	0.8151	0.8709	-0.569
Mof_N 	N 	0.4997	0.7808	0.1326	-0.313
Mof_O 	O 	0.5923	0.8229	0.6403	-0.575
Mof_C 	C 	0.759	0.8438	0.6544	0.158
Mof_H 	H 	0.7448	0.8244	0.5766	-0.022
Mof_C 	C 	0.7325	0.8809	0.868	-0.019
Mof_H 	H 	0.6988	0.8879	0.9411	0.038
Mof_C 	C 	0.8323	0.8644	0.656	-0.2
Mof_H 	H 	0.8672	0.856	0.586	0.109
Mof_C 	C 	0.8043	0.9005	0.8698	-0.045
Mof_H 	H 	0.822	0.9178	0.9499	0.054
Mof_C 	C 	0.4315	0.7448	0.183	0.004
Mof_C 	C 	0.5761	0.748	0.188	-0.022
Mof_C 	C 	0.7605	0.841	0.8536	0.205
Mof_H 	H 	0.7491	0.8199	0.9274	-0.033
Mof_C 	C 	0.7226	0.8828	0.6443	0.031
Mof_H 	H 	0.6847	0.8897	0.5734	0.023
Mof_C 	C 	0.7958	0.9047	0.6441	-0.106
Mof_H 	H 	0.8072	0.926	0.5707	0.074
Mof_C 	C 	0.8338	0.8622	0.8532	-0.235
Mof_H 	H 	0.871	0.8535	0.9237	0.124
Mof_N 	N 	0.8587	0.9976	0.7538	-0.123
Mof_Zn	Zn	0.99792	0.29272	0.57171	1.23
Mof_C 	C 	0.5708	0.42116	0.7476	-0.175
Mof_C 	C 	0.4914	0.62545	0.8763	0.15
Mof_H 	H 	0.4853	0.6418	0.9622	-0.009
Mof_C 	C 	0.5706	0.47116	0.7473	0.139
Mof_O 	O 	0.4963	0.72458	0.8675	-0.515
Mof_C 	C 	0.6469	0.39523	0.7471	0.243
Mof_C 	C 	0.492	0.57617	0.8754	-0.235
Mof_H 	H 	0.4868	0.5596	0.9613	0.12
Mof_C 	C 	0.7926	0.34955	0.7446	-0.295
Mof_C 	C 	0.8711	0.32665	0.7439	0.54
Mof_O 	O 	0.8964	0.3151	0.6291	-0.562
Mof_N 	N 	0.0003	0.2808	0.3674	-0.316
Mof_O 	O 	0.9077	0.3229	0.8597	-0.567
Mof_C 	C 	0.741	0.3438	0.8456	0.159
Mof_H 	H 	0.7552	0.3244	0.9234	-0.021
Mof_C 	C 	0.7675	0.3809	0.632	-0.021
Mof_H 	H 	0.8012	0.3879	0.5589	0.041
Mof_C 	C 	0.6677	0.3644	0.844	-0.203
Mof_H 	H 	0.6328	0.356	0.914	0.108
Mof_C 	C 	0.6957	0.4005	0.6302	-0.042
Mof_H 	H 	0.678	0.4178	0.5501	0.052
Mof_C 	C 	0.0685	0.2448	0.317	0.004
Mof_C 	C 	0.9239	0.248	0.312	-0.008
Mof_C 	C 	0.7395	0.341	0.6464	0.207
Mof_H 	H 	0.7509	0.3199	0.5726	-0.034
Mof_C 	C 	0.7774	0.3828	0.8557	0.032
Mof_H 	H 	0.8153	0.3897	0.9266	0.025
Mof_C 	C 	0.7042	0.4047	0.8559	-0.105
Mof_H 	H 	0.6928	0.426	0.9293	0.074
Mof_C 	C 	0.6662	0.3622	0.6468	-0.24
Mof_H 	H 	0.629	0.3535	0.5763	0.121
Mof_N 	N 	0.6413	0.4976	0.7462	-0.124
Mof_Zn	Zn	0.49792	0.79272	0.57171	1.222
Mof_C 	C 	0.0708	0.92116	0.7476	-0.17
Mof_C 	C 	0.9914	0.12545	0.8763	0.167
Mof_H 	H 	0.9853	0.1418	0.9622	-0.008
Mof_C 	C 	0.0706	0.97116	0.7473	0.137
Mof_O 	O 	0.9963	0.22458	0.8675	-0.489
Mof_C 	C 	0.1469	0.89523	0.7471	0.239
Mof_C 	C 	0.992	0.07617	0.8754	-0.21
Mof_H 	H 	0.9868	0.0596	0.9613	0.12
Mof_C 	C 	0.2926	0.84955	0.7446	-0.297
Mof_C 	C 	0.3711	0.82665	0.7439	0.542
Mof_O 	O 	0.3964	0.8151	0.6291	-0.569
Mof_N 	N 	0.5003	0.7808	0.3674	-0.313
Mof_O 	O 	0.4077	0.8229	0.8597	-0.576
Mof_C 	C 	0.241	0.8438	0.8456	0.157
Mof_H 	H 	0.2552	0.8244	0.9234	-0.022
Mof_C 	C 	0.2675	0.8809	0.632	-0.023
Mof_H 	H 	0.3012	0.8879	0.5589	0.039
Mof_C 	C 	0.1677	0.8644	0.844	-0.2
Mof_H 	H 	0.1328	0.856	0.914	0.106
Mof_C 	C 	0.1957	0.9005	0.6302	-0.041
Mof_H 	H 	0.178	0.9178	0.5501	0.049
Mof_C 	C 	0.5685	0.7448	0.317	0.003
Mof_C 	C 	0.4239	0.748	0.312	-0.023
Mof_C 	C 	0.2395	0.841	0.6464	0.208
Mof_H 	H 	0.2509	0.8199	0.5726	-0.035
Mof_C 	C 	0.2774	0.8828	0.8557	0.033
Mof_H 	H 	0.3153	0.8897	0.9266	0.022
Mof_C 	C 	0.2042	0.9047	0.8559	-0.107
Mof_H 	H 	0.1928	0.926	0.9293	0.073
Mof_C 	C 	0.1662	0.8622	0.6468	-0.239
Mof_H 	H 	0.129	0.8535	0.5763	0.117
Mof_N 	N 	0.1413	0.9976	0.7462	-0.125
Mof_C 	C 	8.02126e-19	0.29386	0.25	0.195
Mof_C 	C 	0.5	0.79386	0.25	0.222
Mof_C 	C 	0.5	0.4971	0.75	-0.153
Mof_C 	C 	0.5	0.3966	0.75	0.139
Mof_C 	C 	0.5	0.5503	0.75	0.197
Mof_C 	C 	0.5	0.6513	0.75	-0.226
Mof_C 	C 	0.5	0.7044	0.75	0.48
Mof_N 	N 	0.5	0.3434	0.75	-0.116
Mof_C 	C 	1.58748e-33	0.9971	0.75	-0.167
Mof_C 	C 	1.58748e-33	0.8966	0.75	0.113
Mof_C 	C 	1.58748e-33	0.0503	0.75	0.175
Mof_C 	C 	1.58748e-33	0.1513	0.75	-0.241
Mof_C 	C 	3.2085e-18	0.2044	0.75	0.456
Mof_N 	N 	1.58748e-33	0.8434	0.75	-0.122
Mof_Zn	Zn	0.99792	0.70728	0.07171	1.23
Mof_C 	C 	0.5708	0.57884	0.2476	-0.175
Mof_C 	C 	0.4914	0.37455	0.3763	0.15
Mof_H 	H 	0.4853	0.3582	0.4622	-0.009
Mof_C 	C 	0.5706	0.52884	0.2473	0.14
Mof_O 	O 	0.4963	0.27542	0.3675	-0.515
Mof_C 	C 	0.6469	0.60477	0.2471	0.243
Mof_C 	C 	0.492	0.42383	0.3754	-0.235
Mof_H 	H 	0.4868	0.4404	0.4613	0.12
Mof_C 	C 	0.7926	0.65045	0.2446	-0.296
Mof_C 	C 	0.8711	0.67335	0.2439	0.54
Mof_O 	O 	0.8964	0.6849	0.1291	-0.563
Mof_N 	N 	0.0003	0.7192	0.8674	-0.316
Mof_O 	O 	0.9077	0.6771	0.3597	-0.568
Mof_C 	C 	0.741	0.6562	0.3456	0.159
Mof_H 	H 	0.7552	0.6756	0.4234	-0.022
Mof_C 	C 	0.7675	0.6191	0.132	-0.021
Mof_H 	H 	0.8012	0.6121	0.0589	0.041
Mof_C 	C 	0.6677	0.6356	0.344	-0.203
Mof_H 	H 	0.6328	0.644	0.414	0.108
Mof_C 	C 	0.6957	0.5995	0.1302	-0.042
Mof_H 	H 	0.678	0.5822	0.0501	0.052
Mof_C 	C 	0.0685	0.7552	0.817	0.003
Mof_C 	C 	0.9239	0.752	0.812	-0.007
Mof_C 	C 	0.7395	0.659	0.1464	0.208
Mof_H 	H 	0.7509	0.6801	0.0726	-0.034
Mof_C 	C 	0.7774	0.6172	0.3557	0.032
Mof_H 	H 	0.8153	0.6103	0.4266	0.025
Mof_C 	C 	0.7042	0.5953	0.3559	-0.106
Mof_H 	H 	0.6928	0.574	0.4293	0.074
Mof_C 	C 	0.6662	0.6378	0.1468	-0.24
Mof_H 	H 	0.629	0.6465	0.0763	0.121
Mof_N 	N 	0.6413	0.5024	0.2462	-0.124
Mof_Zn	Zn	0.49792	0.20728	0.07171	1.222
Mof_C 	C 	0.0708	0.07884	0.2476	-0.171
Mof_C 	C 	0.9914	0.87455	0.3763	0.165
Mof_H 	H 	0.9853	0.8582	0.4622	-0.007
Mof_C 	C 	0.0706	0.02884	0.2473	0.138
Mof_O 	O 	0.9963	0.77542	0.3675	-0.491
Mof_C 	C 	0.1469	0.10477	0.2471	0.239
Mof_C 	C 	0.992	0.92383	0.3754	-0.212
Mof_H 	H 	0.9868	0.9404	0.4613	0.12
Mof_C 	C 	0.2926	0.15045	0.2446	-0.297
Mof_C 	C 	0.3711	0.17335	0.2439	0.542
Mof_O 	O 	0.3964	0.1849	0.1291	-0.568
Mof_N 	N 	0.5003	0.2192	0.8674	-0.314
Mof_O 	O 	0.4077	0.1771	0.3597	-0.576
Mof_C 	C 	0.241	0.1562	0.3456	0.157
Mof_H 	H 	0.2552	0.1756	0.4234	-0.022
Mof_C 	C 	0.2675	0.1191	0.132	-0.023
Mof_H 	H 	0.3012	0.1121	0.0589	0.039
Mof_C 	C 	0.1677	0.1356	0.344	-0.2
Mof_H 	H 	0.1328	0.144	0.414	0.107
Mof_C 	C 	0.1957	0.0995	0.1302	-0.041
Mof_H 	H 	0.178	0.0822	0.0501	0.05
Mof_C 	C 	0.5685	0.2552	0.817	0.003
Mof_C 	C 	0.4239	0.252	0.812	-0.023
Mof_C 	C 	0.2395	0.159	0.1464	0.209
Mof_H 	H 	0.2509	0.1801	0.0726	-0.035
Mof_C 	C 	0.2774	0.1172	0.3557	0.033
Mof_H 	H 	0.3153	0.1103	0.4266	0.022
Mof_C 	C 	0.2042	0.0953	0.3559	-0.107
Mof_H 	H 	0.1928	0.074	0.4293	0.073
Mof_C 	C 	0.1662	0.1378	0.1468	-0.24
Mof_H 	H 	0.129	0.1465	0.0763	0.118
Mof_N 	N 	0.1413	0.0024	0.2462	-0.125
Mof_Zn	Zn	0.00208	0.70728	0.42829	1.214
Mof_C 	C 	0.4292	0.57884	0.2524	-0.176
Mof_C 	C 	0.5086	0.37455	0.1237	0.15
Mof_H 	H 	0.5147	0.3582	0.0378	-0.008
Mof_C 	C 	0.4294	0.52884	0.2527	0.14
Mof_O 	O 	0.5037	0.27542	0.1325	-0.515
Mof_C 	C 	0.3531	0.60477	0.2529	0.245
Mof_C 	C 	0.508	0.42383	0.1246	-0.234
Mof_H 	H 	0.5132	0.4404	0.0387	0.121
Mof_C 	C 	0.2074	0.65045	0.2554	-0.302
Mof_C 	C 	0.1289	0.67335	0.2561	0.544
Mof_O 	O 	0.1036	0.6849	0.3709	-0.574
Mof_N 	N 	0.9997	0.7192	0.6326	-0.29
Mof_O 	O 	0.0923	0.6771	0.1403	-0.581
Mof_C 	C 	0.259	0.6562	0.1544	0.162
Mof_H 	H 	0.2448	0.6756	0.0766	-0.023
Mof_C 	C 	0.2325	0.6191	0.368	-0.021
Mof_H 	H 	0.1988	0.6121	0.4411	0.037
Mof_C 	C 	0.3323	0.6356	0.156	-0.205
Mof_H 	H 	0.3672	0.644	0.086	0.109
Mof_C 	C 	0.3043	0.5995	0.3698	-0.044
Mof_H 	H 	0.322	0.5822	0.4499	0.051
Mof_C 	C 	0.9315	0.7552	0.683	0.008
Mof_C 	C 	0.0761	0.752	0.688	-0.033
Mof_C 	C 	0.2605	0.659	0.3536	0.211
Mof_H 	H 	0.2491	0.6801	0.4274	-0.036
Mof_C 	C 	0.2226	0.6172	0.1443	0.033
Mof_H 	H 	0.1847	0.6103	0.0734	0.021
Mof_C 	C 	0.2958	0.5953	0.1441	-0.108
Mof_H 	H 	0.3072	0.574	0.0707	0.074
Mof_C 	C 	0.3338	0.6378	0.3532	-0.242
Mof_H 	H 	0.371	0.6465	0.4237	0.121
Mof_N 	N 	0.3587	0.5024	0.2538	-0.125
Mof_Zn	Zn	0.50208	0.20728	0.42829	1.222
Mof_C 	C 	0.9292	0.07884	0.2524	-0.157
Mof_C 	C 	0.0086	0.87455	0.1237	0.147
Mof_H 	H 	0.0147	0.8582	0.0378	-0.009
Mof_C 	C 	0.9294	0.02884	0.2527	0.152
Mof_O 	O 	0.0037	0.77542	0.1325	-0.516
Mof_C 	C 	0.8531	0.10477	0.2529	0.239
Mof_C 	C 	0.008	0.92383	0.1246	-0.231
Mof_H 	H 	0.0132	0.9404	0.0387	0.117
Mof_C 	C 	0.7074	0.15045	0.2554	-0.297
Mof_C 	C 	0.6289	0.17335	0.2561	0.542
Mof_O 	O 	0.6036	0.1849	0.3709	-0.568
Mof_N 	N 	0.4997	0.2192	0.6326	-0.313
Mof_O 	O 	0.5923	0.1771	0.1403	-0.575
Mof_C 	C 	0.759	0.1562	0.1544	0.159
Mof_H 	H 	0.7448	0.1756	0.0766	-0.022
Mof_C 	C 	0.7325	0.1191	0.368	-0.018
Mof_H 	H 	0.6988	0.1121	0.4411	0.038
Mof_C 	C 	0.8323	0.1356	0.156	-0.201
Mof_H 	H 	0.8672	0.144	0.086	0.109
Mof_C 	C 	0.8043	0.0995	0.3698	-0.045
Mof_H 	H 	0.822	0.0822	0.4499	0.054
Mof_C 	C 	0.4315	0.2552	0.683	0.003
Mof_C 	C 	0.5761	0.252	0.688	-0.022
Mof_C 	C 	0.7605	0.159	0.3536	0.205
Mof_H 	H 	0.7491	0.1801	0.4274	-0.033
Mof_C 	C 	0.7226	0.1172	0.1443	0.031
Mof_H 	H 	0.6847	0.1103	0.0734	0.023
Mof_C 	C 	0.7958	0.0953	0.1441	-0.105
Mof_H 	H 	0.8072	0.074	0.0707	0.073
Mof_C 	C 	0.8338	0.1378	0.3532	-0.235
Mof_H 	H 	0.871	0.1465	0.4237	0.124
Mof_N 	N 	0.8587	0.0024	0.2538	-0.124
Mof_C 	C 	1.58748e-33	0.70614	0.75	0.191
Mof_C 	C 	0.5	0.20614	0.75	0.222
Mof_C 	C 	0.5	0.5029	0.25	-0.153
Mof_C 	C 	0.5	0.6034	0.25	0.139
Mof_C 	C 	0.5	0.4497	0.25	0.198
Mof_C 	C 	0.5	0.3487	0.25	-0.226
Mof_C 	C 	0.5	0.2956	0.25	0.48
Mof_N 	N 	0.5	0.6566	0.25	-0.116
Mof_C 	C 	5.29158e-34	0.0029	0.25	-0.165
Mof_C 	C 	8.02126e-19	0.1034	0.25	0.116
Mof_C 	C 	5.29158e-34	0.9497	0.25	0.177
Mof_C 	C 	8.02126e-19	0.8487	0.25	-0.239
Mof_C 	C 	5.29158e-34	0.7956	0.25	0.459
Mof_N 	N 	8.02126e-19	0.1566	0.25	-0.121
_end
