data_functionalizedCrystal
_audit_creation_method	'EQeq! by Chris Wilmer'
_symmetry_space_group_name_H-M	'P1'
_symmetry_Int_Tables_number	1
_symmetry_cell_setting	triclinic
loop_
_symmetry_equiv_pos_as_xyz
  x,y,z
_cell_length_a	15.1589
_cell_length_b	16.8609
_cell_length_c	16.97
_cell_angle_alpha	110.902
_cell_angle_beta	92.49
_cell_angle_gamma	98.552
loop_
_atom_site_label
_atom_site_type_symbol
_atom_site_fract_x
_atom_site_fract_y
_atom_site_fract_z
_atom_site_charge
Mof_Dy	Dy	0.05844	0.62189	0.02839	2.188
Mof_Dy	Dy	0.01232	0.86119	0.14583	2.161
Mof_Dy	Dy	0.95016	0.97072	0.38134	2.249
Mof_O 	O 	0.9268	0.0289	0.70913	-0.594
Mof_O 	O 	0.8357	0.0608	0.8094	-0.453
Mof_O 	O 	0.2024	0.6956	0.128	-0.405
Mof_O 	O 	0.0821	0.7534	0.16426	-0.635
Mof_O 	O 	0.0766	0.9646	0.4617	-0.636
Mof_O 	O 	0.175	0.9625	0.56	-0.452
Mof_O 	O 	0.0355	0.0143	0.845	-0.54
Mof_O 	O 	0.0972	0.9803	0.7221	-0.534
Mof_O 	O 	0.0741	0.8507	0.02388	-0.563
Mof_O 	O 	0.1213	0.724	0.9749	-0.52
Mof_O 	O 	0.9983	0.4395	0.1159	-0.495
Mof_O 	O 	0.0667	0.5754	0.1422	-0.525
Mof_O 	O 	0.8634	0.8158	0.0715	-0.456
Mof_O 	O 	0.9474	0.7146	0.0346	-0.59
Mof_O 	O 	0.1924	0.1311	0.6899	-0.424
Mof_O 	O 	0.07	0.1644	0.74877	-0.637
Mof_O 	O 	0.0779	0.4635	0.9665	-0.607
Mof_O 	O 	0.1843	0.5647	0.9604	-0.44
Mof_O 	O 	0.9241	0.8497	0.4266	-0.522
Mof_O 	O 	0.9874	0.8825	0.5597	-0.546
Mof_N 	N 	0.4697	0.8775	0.4789	-0.225
Mof_H 	H 	0.4485	0.9133	0.5224	0.13
Mof_N 	N 	0.4805	0.7859	0.3532	-0.089
Mof_N 	N 	0.5618	0.8021	0.3995	-0.085
Mof_N 	N 	0.1372	0.5433	0.5621	-0.09
Mof_N 	N 	0.144	0.5913	0.6485	-0.095
Mof_N 	N 	0.0989	0.666	0.5765	-0.224
Mof_H 	H 	0.0813	0.7082	0.5645	0.131
Mof_N 	N 	0.4916	0.3521	0.7989	-0.089
Mof_N 	N 	0.5776	0.3982	0.8169	-0.087
Mof_N 	N 	0.4815	0.4823	0.8795	-0.224
Mof_H 	H 	0.4605	0.5284	0.9102	0.131
Mof_C 	C 	0.847	0.0216	0.7332	0.396
Mof_C 	C 	0.7689	0.9714	0.6701	-0.141
Mof_C 	C 	0.7825	0.9166	0.5898	0.068
Mof_H 	H 	0.8412	0.9057	0.5782	0.008
Mof_C 	C 	0.712	0.878	0.5268	-0.106
Mof_H 	H 	0.7219	0.8408	0.4722	0.085
Mof_C 	C 	0.6253	0.8945	0.5445	0.031
Mof_C 	C 	0.6118	0.9469	0.6254	-0.1
Mof_H 	H 	0.553	0.9569	0.638	0.071
Mof_C 	C 	0.6825	0.9847	0.6875	0.055
Mof_H 	H 	0.6723	0.0201	0.7428	0.03
Mof_C 	C 	0.5517	0.858	0.4754	0.119
Mof_C 	C 	0.4264	0.8308	0.4019	0.155
Mof_C 	C 	0.3337	0.8317	0.377	-0.082
Mof_C 	C 	0.2936	0.7863	0.2942	0.05
Mof_H 	H 	0.3272	0.7537	0.2524	0.044
Mof_C 	C 	0.2038	0.7887	0.2725	-0.166
Mof_C 	C 	0.163	0.7434	0.1834	0.411
Mof_C 	C 	0.1541	0.835	0.3348	0.12
Mof_H 	H 	0.0926	0.8346	0.3209	-0.038
Mof_C 	C 	0.1942	0.8816	0.4168	-0.179
Mof_C 	C 	0.1469	0.9385	0.4831	0.428
Mof_C 	C 	0.2835	0.8798	0.4376	0.058
Mof_H 	H 	0.3107	0.9117	0.4938	0.027
Mof_C 	C 	0.1005	0.7904	0.9662	0.52
Mof_C 	C 	0.1045	0.7997	0.8817	-0.187
Mof_C 	C 	0.0907	0.8756	0.8742	0.124
Mof_H 	H 	0.0807	0.9223	0.9226	0.021
Mof_C 	C 	0.0914	0.8838	0.7953	-0.182
Mof_C 	C 	0.0734	0.9661	0.7872	0.506
Mof_C 	C 	0.1042	0.816	0.7242	0.078
Mof_H 	H 	0.1049	0.8222	0.6708	0.019
Mof_C 	C 	0.1163	0.7372	0.7313	-0.095
Mof_C 	C 	0.1172	0.7297	0.8102	0.076
Mof_H 	H 	0.1264	0.6773	0.8157	0.031
Mof_C 	C 	0.1214	0.6651	0.6536	0.16
Mof_C 	C 	0.1092	0.5886	0.5218	0.121
Mof_C 	C 	0.0916	0.5675	0.4294	0.037
Mof_C 	C 	0.0774	0.4815	0.3713	-0.104
Mof_H 	H 	0.08	0.436	0.3915	0.079
Mof_C 	C 	0.0597	0.4626	0.2859	0.075
Mof_H 	H 	0.0504	0.4045	0.2473	0.015
Mof_C 	C 	0.0555	0.5289	0.2564	-0.168
Mof_C 	C 	0.0382	0.5136	0.1651	0.474
Mof_C 	C 	0.0721	0.6145	0.3135	0.07
Mof_H 	H 	0.0718	0.66	0.2929	0.018
Mof_C 	C 	0.0888	0.6335	0.3998	-0.104
Mof_H 	H 	0.0982	0.6917	0.4384	0.068
Mof_C 	C 	0.8712	0.7393	0.0297	0.409
Mof_C 	C 	0.7922	0.6767	0.9785	-0.152
Mof_C 	C 	0.8032	0.5959	0.9213	0.065
Mof_H 	H 	0.8619	0.5849	0.9094	0.005
Mof_C 	C 	0.7293	0.5315	0.8818	-0.105
Mof_H 	H 	0.7374	0.4771	0.8428	0.082
Mof_C 	C 	0.6437	0.5472	0.8997	0.028
Mof_C 	C 	0.6325	0.6294	0.9544	-0.094
Mof_H 	H 	0.5739	0.6414	0.9646	0.068
Mof_C 	C 	0.7062	0.6927	0.9932	0.044
Mof_H 	H 	0.698	0.7479	0.0304	0.038
Mof_C 	C 	0.5674	0.4761	0.8642	0.119
Mof_C 	C 	0.4359	0.4035	0.8378	0.156
Mof_C 	C 	0.3387	0.3778	0.8354	-0.08
Mof_C 	C 	0.2946	0.2959	0.7883	0.052
Mof_H 	H 	0.3269	0.2536	0.7556	0.045
Mof_C 	C 	0.2011	0.2748	0.7887	-0.161
Mof_C 	C 	0.1535	0.1847	0.7392	0.419
Mof_C 	C 	0.1542	0.337	0.835	0.121
Mof_H 	H 	0.0909	0.3232	0.8333	-0.031
Mof_C 	C 	0.1985	0.4196	0.884	-0.169
Mof_C 	C 	0.1518	0.4866	0.9394	0.428
Mof_C 	C 	0.2908	0.4395	0.8832	0.059
Mof_H 	H 	0.3216	0.4961	0.9158	0.029
Mof_C 	C 	0.9517	0.8302	0.4875	0.568
Mof_H 	H 	0.9449	0.7705	0.4782	-0.141
Mof_Dy	Dy	0.94156	0.37811	0.97161	2.187
Mof_Dy	Dy	0.98768	0.13881	0.85417	2.16
Mof_Dy	Dy	0.04984	0.02928	0.61866	2.248
Mof_O 	O 	0.0732	0.9711	0.29087	-0.595
Mof_O 	O 	0.1643	0.9392	0.1906	-0.454
Mof_O 	O 	0.7976	0.3044	0.872	-0.406
Mof_O 	O 	0.9179	0.2466	0.83574	-0.636
Mof_O 	O 	0.9234	0.0354	0.5383	-0.637
Mof_O 	O 	0.825	0.0375	0.44	-0.453
Mof_O 	O 	0.9645	0.9857	0.155	-0.541
Mof_O 	O 	0.9028	0.0197	0.2779	-0.535
Mof_O 	O 	0.9259	0.1493	0.97612	-0.564
Mof_O 	O 	0.8787	0.276	0.0251	-0.52
Mof_O 	O 	0.0017	0.5605	0.8841	-0.495
Mof_O 	O 	0.9333	0.4246	0.8578	-0.525
Mof_O 	O 	0.1366	0.1842	0.9285	-0.456
Mof_O 	O 	0.0526	0.2854	0.9654	-0.59
Mof_O 	O 	0.8076	0.8689	0.3101	-0.424
Mof_O 	O 	0.93	0.8356	0.25123	-0.637
Mof_O 	O 	0.9221	0.5365	0.0335	-0.607
Mof_O 	O 	0.8157	0.4353	0.0396	-0.44
Mof_O 	O 	0.0759	0.1503	0.5734	-0.522
Mof_O 	O 	0.0126	0.1175	0.4403	-0.546
Mof_N 	N 	0.5303	0.1225	0.5211	-0.225
Mof_H 	H 	0.5515	0.0867	0.4776	0.13
Mof_N 	N 	0.5195	0.2141	0.6468	-0.089
Mof_N 	N 	0.4382	0.1979	0.6005	-0.085
Mof_N 	N 	0.8628	0.4567	0.4379	-0.09
Mof_N 	N 	0.856	0.4087	0.3515	-0.095
Mof_N 	N 	0.9011	0.334	0.4235	-0.224
Mof_H 	H 	0.9187	0.2918	0.4355	0.131
Mof_N 	N 	0.5084	0.6479	0.2011	-0.089
Mof_N 	N 	0.4224	0.6018	0.1831	-0.087
Mof_N 	N 	0.5185	0.5177	0.1205	-0.224
Mof_H 	H 	0.5395	0.4716	0.0898	0.131
Mof_C 	C 	0.153	0.9784	0.2668	0.396
Mof_C 	C 	0.2311	0.0286	0.3299	-0.141
Mof_C 	C 	0.2175	0.0834	0.4102	0.068
Mof_H 	H 	0.1588	0.0943	0.4218	0.008
Mof_C 	C 	0.288	0.122	0.4732	-0.106
Mof_H 	H 	0.2781	0.1592	0.5278	0.085
Mof_C 	C 	0.3747	0.1055	0.4555	0.031
Mof_C 	C 	0.3882	0.0531	0.3746	-0.1
Mof_H 	H 	0.447	0.0431	0.362	0.071
Mof_C 	C 	0.3175	0.0153	0.3125	0.055
Mof_H 	H 	0.3277	0.9799	0.2572	0.03
Mof_C 	C 	0.4483	0.142	0.5246	0.119
Mof_C 	C 	0.5736	0.1692	0.5981	0.155
Mof_C 	C 	0.6663	0.1683	0.623	-0.082
Mof_C 	C 	0.7064	0.2137	0.7058	0.05
Mof_H 	H 	0.6728	0.2463	0.7476	0.044
Mof_C 	C 	0.7962	0.2113	0.7275	-0.166
Mof_C 	C 	0.837	0.2566	0.8166	0.411
Mof_C 	C 	0.8459	0.165	0.6652	0.12
Mof_H 	H 	0.9074	0.1654	0.6791	-0.038
Mof_C 	C 	0.8058	0.1184	0.5832	-0.179
Mof_C 	C 	0.8531	0.0615	0.5169	0.428
Mof_C 	C 	0.7165	0.1202	0.5624	0.058
Mof_H 	H 	0.6893	0.0883	0.5062	0.027
Mof_C 	C 	0.8995	0.2096	0.0338	0.52
Mof_C 	C 	0.8955	0.2003	0.1183	-0.187
Mof_C 	C 	0.9093	0.1244	0.1258	0.124
Mof_H 	H 	0.9193	0.0777	0.0774	0.021
Mof_C 	C 	0.9086	0.1162	0.2047	-0.182
Mof_C 	C 	0.9266	0.0339	0.2128	0.506
Mof_C 	C 	0.8958	0.184	0.2758	0.078
Mof_H 	H 	0.8951	0.1778	0.3292	0.019
Mof_C 	C 	0.8837	0.2628	0.2687	-0.095
Mof_C 	C 	0.8828	0.2703	0.1898	0.076
Mof_H 	H 	0.8736	0.3227	0.1843	0.031
Mof_C 	C 	0.8786	0.3349	0.3464	0.16
Mof_C 	C 	0.8908	0.4114	0.4782	0.121
Mof_C 	C 	0.9084	0.4325	0.5706	0.037
Mof_C 	C 	0.9226	0.5185	0.6287	-0.104
Mof_H 	H 	0.92	0.564	0.6085	0.079
Mof_C 	C 	0.9403	0.5374	0.7141	0.075
Mof_H 	H 	0.9496	0.5955	0.7527	0.015
Mof_C 	C 	0.9445	0.4711	0.7436	-0.168
Mof_C 	C 	0.9618	0.4864	0.8349	0.474
Mof_C 	C 	0.9279	0.3855	0.6865	0.07
Mof_H 	H 	0.9282	0.34	0.7071	0.018
Mof_C 	C 	0.9112	0.3665	0.6002	-0.104
Mof_H 	H 	0.9018	0.3083	0.5616	0.068
Mof_C 	C 	0.1288	0.2607	0.9703	0.409
Mof_C 	C 	0.2078	0.3233	0.0215	-0.152
Mof_C 	C 	0.1968	0.4041	0.0787	0.065
Mof_H 	H 	0.1381	0.4151	0.0906	0.005
Mof_C 	C 	0.2707	0.4685	0.1182	-0.105
Mof_H 	H 	0.2626	0.5229	0.1572	0.082
Mof_C 	C 	0.3563	0.4528	0.1003	0.028
Mof_C 	C 	0.3675	0.3706	0.0456	-0.094
Mof_H 	H 	0.4261	0.3586	0.0354	0.068
Mof_C 	C 	0.2938	0.3073	0.0068	0.044
Mof_H 	H 	0.302	0.2521	0.9696	0.038
Mof_C 	C 	0.4326	0.5239	0.1358	0.119
Mof_C 	C 	0.5641	0.5965	0.1622	0.156
Mof_C 	C 	0.6613	0.6222	0.1646	-0.08
Mof_C 	C 	0.7054	0.7041	0.2117	0.052
Mof_H 	H 	0.6731	0.7464	0.2444	0.045
Mof_C 	C 	0.7989	0.7252	0.2113	-0.161
Mof_C 	C 	0.8465	0.8153	0.2608	0.419
Mof_C 	C 	0.8458	0.663	0.165	0.121
Mof_H 	H 	0.9091	0.6768	0.1667	-0.031
Mof_C 	C 	0.8015	0.5804	0.116	-0.169
Mof_C 	C 	0.8482	0.5134	0.0606	0.428
Mof_C 	C 	0.7092	0.5605	0.1168	0.059
Mof_H 	H 	0.6784	0.5039	0.0842	0.029
Mof_C 	C 	0.0483	0.1698	0.5125	0.568
Mof_H 	H 	0.0551	0.2295	0.5218	-0.141
_end
