data_functionalizedCrystal
_audit_creation_method	'EQeq! by Chris Wilmer'
_symmetry_space_group_name_H-M	'P1'
_symmetry_Int_Tables_number	1
_symmetry_cell_setting	triclinic
loop_
_symmetry_equiv_pos_as_xyz
  x,y,z
_cell_length_a	12.946
_cell_length_b	17.321
_cell_length_c	22.153
_cell_angle_alpha	70.13
_cell_angle_beta	76.08
_cell_angle_gamma	73.31
loop_
_atom_site_label
_atom_site_type_symbol
_atom_site_fract_x
_atom_site_fract_y
_atom_site_fract_z
_atom_site_charge
Mof_Cd	Cd	0.16515	0.54865	0.0131	0.489
Mof_Cd	Cd	0.17809	0.73405	0.09075	0.488
Mof_Cd	Cd	0.17465	0.77685	0.24808	0.482
Mof_Cd	Cd	0.17631	0.81187	0.40831	0.492
Mof_Cd	Cd	0.16746	0.00526	0.48319	0.529
Mof_Cl	Cl	0.29231	0.6203	0.03149	-0.35
Mof_Cl	Cl	0.05532	0.83723	0.15491	-0.381
Mof_Cl	Cl	0.27952	0.70458	0.34725	-0.354
Mof_Cl	Cl	0.05536	0.91954	0.4681	-0.378
Mof_N 	N 	0.1399	0.636	0.5252	-0.085
Mof_N 	N 	0.1631	0.713	0.511	-0.101
Mof_N 	N 	0.1628	0.6536	0.6143	-0.164
Mof_N 	N 	0.0168	0.6263	0.065	-0.109
Mof_N 	N 	0.0159	0.6898	0.0888	-0.105
Mof_N 	N 	0.8474	0.6819	0.0978	-0.163
Mof_N 	N 	0.1874	0.6242	0.1903	-0.103
Mof_N 	N 	0.1737	0.6428	0.2474	-0.106
Mof_N 	N 	0.173	0.5104	0.2702	-0.162
Mof_N 	N 	0.1809	0.9094	0.2505	-0.105
Mof_N 	N 	0.1791	0.9253	0.3073	-0.099
Mof_N 	N 	0.1795	0.0424	0.228	-0.161
Mof_N 	N 	0.0112	0.8028	0.3815	-0.103
Mof_N 	N 	0.0117	0.7923	0.3222	-0.106
Mof_N 	N 	0.8427	0.8181	0.3719	-0.161
Mof_N 	N 	0.1409	0.9193	0.9795	-0.079
Mof_N 	N 	0.1591	0.8325	0.9919	-0.103
Mof_N 	N 	0.1583	0.8902	0.8882	-0.162
Mof_C 	C 	0.142	0.6032	0.5863	0.116
Mof_H 	H 	0.1303	0.5496	0.6091	0.006
Mof_C 	C 	0.1761	0.7222	0.5631	0.115
Mof_H 	H 	0.1926	0.7697	0.5657	0.037
Mof_C 	C 	0.1673	0.6388	0.6821	0.19
Mof_C 	C 	0.1252	0.7038	0.7097	-0.202
Mof_H 	H 	0.096	0.7573	0.6842	0.125
Mof_C 	C 	0.1258	0.6905	0.7744	0.099
Mof_H 	H 	0.0961	0.7344	0.793	0.016
Mof_C 	C 	0.1714	0.6103	0.8118	-0.134
Mof_C 	C 	0.2138	0.5452	0.7832	0.098
Mof_H 	H 	0.2439	0.4916	0.808	0.019
Mof_C 	C 	0.2114	0.5598	0.7181	-0.201
Mof_H 	H 	0.2396	0.5163	0.699	0.113
Mof_C 	C 	0.1726	0.5943	0.883	0.327
Mof_C 	C 	0.9152	0.6216	0.0712	0.095
Mof_H 	H 	0.893	0.583	0.0592	0.037
Mof_C 	C 	0.9145	0.7218	0.1082	0.104
Mof_H 	H 	0.8912	0.7659	0.1268	0.021
Mof_C 	C 	0.7299	0.7008	0.1078	0.202
Mof_C 	C 	0.6722	0.7051	0.1668	-0.214
Mof_H 	H 	0.7078	0.695	0.2014	0.115
Mof_C 	C 	0.5592	0.7247	0.1747	0.114
Mof_H 	H 	0.5185	0.7289	0.2146	0.023
Mof_C 	C 	0.5065	0.7379	0.1236	-0.15
Mof_C 	C 	0.5683	0.7242	0.0676	0.124
Mof_H 	H 	0.5337	0.7246	0.0352	0.023
Mof_C 	C 	0.6803	0.7098	0.0574	-0.213
Mof_H 	H 	0.721	0.7063	0.0173	0.125
Mof_C 	C 	0.3823	0.7576	0.1336	0.381
Mof_C 	C 	0.1872	0.5452	0.204	0.107
Mof_H 	H 	0.1954	0.5167	0.1738	0.029
Mof_C 	C 	0.1656	0.5739	0.2947	0.114
Mof_H 	H 	0.1562	0.5691	0.3387	0.016
Mof_C 	C 	0.1668	0.4247	0.306	0.193
Mof_C 	C 	0.1984	0.3904	0.3658	-0.205
Mof_H 	H 	0.2203	0.4226	0.3844	0.12
Mof_C 	C 	0.1971	0.3059	0.3987	0.109
Mof_H 	H 	0.2199	0.2814	0.4391	0.016
Mof_C 	C 	0.1628	0.2592	0.3723	-0.143
Mof_C 	C 	0.1274	0.2958	0.3126	0.106
Mof_H 	H 	0.1032	0.2642	0.2944	0.012
Mof_C 	C 	0.128	0.3793	0.2801	-0.207
Mof_H 	H 	0.1022	0.4047	0.2406	0.118
Mof_C 	C 	0.1643	0.1677	0.4072	0.329
Mof_C 	C 	0.1787	0.0053	0.293	0.1
Mof_H 	H 	0.1779	0.0326	0.3228	0.033
Mof_C 	C 	0.1801	0.9802	0.2035	0.11
Mof_H 	H 	0.18	0.9868	0.1601	0.017
Mof_C 	C 	0.1759	0.1297	0.193	0.184
Mof_C 	C 	0.1103	0.1688	0.1465	-0.196
Mof_H 	H 	0.0684	0.1394	0.1378	0.113
Mof_C 	C 	0.1067	0.2531	0.1124	0.09
Mof_H 	H 	0.0625	0.2801	0.0804	0.027
Mof_C 	C 	0.168	0.2971	0.1254	-0.136
Mof_C 	C 	0.2352	0.255	0.1724	0.091
Mof_H 	H 	0.2774	0.2838	0.1815	0.022
Mof_C 	C 	0.2403	0.1708	0.206	-0.195
Mof_H 	H 	0.2865	0.1427	0.2369	0.116
Mof_C 	C 	0.1598	0.3905	0.0904	0.331
Mof_C 	C 	0.9074	0.8033	0.3178	0.102
Mof_H 	H 	0.8829	0.801	0.2825	0.016
Mof_C 	C 	0.9118	0.8175	0.4098	0.107
Mof_H 	H 	0.8899	0.8265	0.4505	0.037
Mof_C 	C 	0.725	0.8325	0.3865	0.188
Mof_C 	C 	0.6691	0.8898	0.4192	-0.209
Mof_H 	H 	0.7068	0.9178	0.4325	0.138
Mof_C 	C 	0.5565	0.9062	0.4324	0.111
Mof_H 	H 	0.5181	0.9451	0.4547	0.017
Mof_C 	C 	0.5007	0.864	0.412	-0.138
Mof_C 	C 	0.5584	0.8074	0.3777	0.096
Mof_H 	H 	0.5209	0.7807	0.3629	0.027
Mof_C 	C 	0.6721	0.7898	0.3649	-0.191
Mof_H 	H 	0.7113	0.7508	0.3427	0.108
Mof_C 	C 	0.3773	0.8836	0.4244	0.358
Mof_C 	C 	0.1402	0.9504	0.9186	0.117
Mof_H 	H 	0.1287	0.0078	0.8972	0.024
Mof_C 	C 	0.1676	0.8178	0.9378	0.109
Mof_H 	H 	0.1787	0.7645	0.9333	0.032
Mof_C 	C 	0.1697	0.8985	0.8207	0.182
Mof_C 	C 	0.105	0.9666	0.7818	-0.193
Mof_H 	H 	0.0534	0.0063	0.7995	0.121
Mof_C 	C 	0.1191	0.9744	0.716	0.103
Mof_H 	H 	0.0788	0.021	0.6888	0.023
Mof_C 	C 	0.192	0.9136	0.6908	-0.133
Mof_C 	C 	0.2551	0.8449	0.7309	0.092
Mof_H 	H 	0.3041	0.8037	0.7137	0.02
Mof_C 	C 	0.2452	0.8376	0.7958	-0.194
Mof_H 	H 	0.2885	0.7926	0.8224	0.12
Mof_C 	C 	0.2058	0.9199	0.6195	0.327
Mof_O 	O 	0.2025	0.5196	0.9168	-0.271
Mof_O 	O 	0.1436	0.6548	0.9063	-0.268
Mof_O 	O 	0.3414	0.756	0.0888	-0.279
Mof_O 	O 	0.336	0.7729	0.1838	-0.296
Mof_O 	O 	0.1973	0.1374	0.4615	-0.27
Mof_O 	O 	0.1357	0.1248	0.3817	-0.262
Mof_O 	O 	0.2142	0.4283	0.1036	-0.272
Mof_O 	O 	0.098	0.4247	0.0492	-0.28
Mof_O 	O 	0.3333	0.8297	0.4231	-0.28
Mof_O 	O 	0.331	0.9535	0.4341	-0.288
Mof_O 	O 	0.2442	0.857	0.6002	-0.253
Mof_O 	O 	0.1716	0.9937	0.5837	-0.269
Mof_Cd	Cd	0.83485	0.45135	0.9869	0.488
Mof_Cd	Cd	0.82191	0.26595	0.90925	0.487
Mof_Cd	Cd	0.82535	0.22315	0.75192	0.482
Mof_Cd	Cd	0.82369	0.18813	0.59169	0.492
Mof_Cd	Cd	0.83254	0.99474	0.51681	0.529
Mof_Cl	Cl	0.70769	0.3797	0.96851	-0.35
Mof_Cl	Cl	0.94468	0.16277	0.84509	-0.381
Mof_Cl	Cl	0.72048	0.29542	0.65275	-0.354
Mof_Cl	Cl	0.94464	0.08046	0.5319	-0.378
Mof_N 	N 	0.8601	0.364	0.4748	-0.085
Mof_N 	N 	0.8369	0.287	0.489	-0.101
Mof_N 	N 	0.8372	0.3464	0.3857	-0.164
Mof_N 	N 	0.9832	0.3737	0.935	-0.109
Mof_N 	N 	0.9841	0.3102	0.9112	-0.105
Mof_N 	N 	0.1526	0.3181	0.9022	-0.163
Mof_N 	N 	0.8126	0.3758	0.8097	-0.103
Mof_N 	N 	0.8263	0.3572	0.7526	-0.106
Mof_N 	N 	0.827	0.4896	0.7298	-0.162
Mof_N 	N 	0.8191	0.0906	0.7495	-0.105
Mof_N 	N 	0.8209	0.0747	0.6927	-0.099
Mof_N 	N 	0.8205	0.9576	0.772	-0.161
Mof_N 	N 	0.9888	0.1972	0.6185	-0.103
Mof_N 	N 	0.9883	0.2077	0.6778	-0.106
Mof_N 	N 	0.1573	0.1819	0.6281	-0.161
Mof_N 	N 	0.8591	0.0807	0.0205	-0.079
Mof_N 	N 	0.8409	0.1675	0.0081	-0.103
Mof_N 	N 	0.8417	0.1098	0.1118	-0.162
Mof_C 	C 	0.858	0.3968	0.4137	0.116
Mof_H 	H 	0.8697	0.4504	0.3909	0.006
Mof_C 	C 	0.8239	0.2778	0.4369	0.115
Mof_H 	H 	0.8074	0.2303	0.4343	0.037
Mof_C 	C 	0.8327	0.3612	0.3179	0.19
Mof_C 	C 	0.8748	0.2962	0.2903	-0.202
Mof_H 	H 	0.904	0.2427	0.3158	0.125
Mof_C 	C 	0.8742	0.3095	0.2256	0.099
Mof_H 	H 	0.9039	0.2656	0.207	0.016
Mof_C 	C 	0.8286	0.3897	0.1882	-0.134
Mof_C 	C 	0.7862	0.4548	0.2168	0.098
Mof_H 	H 	0.7561	0.5084	0.192	0.019
Mof_C 	C 	0.7886	0.4402	0.2819	-0.201
Mof_H 	H 	0.7604	0.4837	0.301	0.113
Mof_C 	C 	0.8274	0.4057	0.117	0.327
Mof_C 	C 	0.0848	0.3784	0.9288	0.095
Mof_H 	H 	0.107	0.417	0.9408	0.037
Mof_C 	C 	0.0855	0.2782	0.8918	0.104
Mof_H 	H 	0.1088	0.2341	0.8732	0.021
Mof_C 	C 	0.2701	0.2992	0.8922	0.202
Mof_C 	C 	0.3278	0.2949	0.8332	-0.214
Mof_H 	H 	0.2922	0.305	0.7986	0.115
Mof_C 	C 	0.4408	0.2753	0.8253	0.114
Mof_H 	H 	0.4815	0.2711	0.7854	0.023
Mof_C 	C 	0.4935	0.2621	0.8764	-0.15
Mof_C 	C 	0.4317	0.2758	0.9324	0.124
Mof_H 	H 	0.4663	0.2754	0.9648	0.023
Mof_C 	C 	0.3197	0.2902	0.9426	-0.213
Mof_H 	H 	0.279	0.2937	0.9827	0.125
Mof_C 	C 	0.6177	0.2424	0.8664	0.381
Mof_C 	C 	0.8128	0.4548	0.796	0.107
Mof_H 	H 	0.8046	0.4833	0.8262	0.029
Mof_C 	C 	0.8344	0.4261	0.7053	0.114
Mof_H 	H 	0.8438	0.4309	0.6613	0.016
Mof_C 	C 	0.8332	0.5753	0.694	0.193
Mof_C 	C 	0.8016	0.6096	0.6342	-0.205
Mof_H 	H 	0.7797	0.5774	0.6156	0.12
Mof_C 	C 	0.8029	0.6941	0.6013	0.109
Mof_H 	H 	0.7801	0.7186	0.5609	0.016
Mof_C 	C 	0.8372	0.7408	0.6277	-0.143
Mof_C 	C 	0.8726	0.7042	0.6874	0.106
Mof_H 	H 	0.8968	0.7358	0.7056	0.012
Mof_C 	C 	0.872	0.6207	0.7199	-0.207
Mof_H 	H 	0.8978	0.5953	0.7594	0.118
Mof_C 	C 	0.8357	0.8323	0.5928	0.329
Mof_C 	C 	0.8213	0.9947	0.707	0.1
Mof_H 	H 	0.8221	0.9674	0.6772	0.033
Mof_C 	C 	0.8199	0.0198	0.7965	0.11
Mof_H 	H 	0.82	0.0132	0.8399	0.017
Mof_C 	C 	0.8241	0.8703	0.807	0.184
Mof_C 	C 	0.8897	0.8312	0.8535	-0.196
Mof_H 	H 	0.9316	0.8606	0.8622	0.113
Mof_C 	C 	0.8933	0.7469	0.8876	0.09
Mof_H 	H 	0.9375	0.7199	0.9196	0.027
Mof_C 	C 	0.832	0.7029	0.8746	-0.136
Mof_C 	C 	0.7648	0.745	0.8276	0.091
Mof_H 	H 	0.7226	0.7162	0.8185	0.022
Mof_C 	C 	0.7597	0.8292	0.794	-0.195
Mof_H 	H 	0.7135	0.8573	0.7631	0.116
Mof_C 	C 	0.8402	0.6095	0.9096	0.331
Mof_C 	C 	0.0926	0.1967	0.6822	0.102
Mof_H 	H 	0.1171	0.199	0.7175	0.016
Mof_C 	C 	0.0882	0.1825	0.5902	0.107
Mof_H 	H 	0.1101	0.1735	0.5495	0.037
Mof_C 	C 	0.275	0.1675	0.6135	0.188
Mof_C 	C 	0.3309	0.1102	0.5808	-0.209
Mof_H 	H 	0.2932	0.0822	0.5675	0.138
Mof_C 	C 	0.4435	0.0938	0.5676	0.111
Mof_H 	H 	0.4819	0.0549	0.5453	0.017
Mof_C 	C 	0.4993	0.136	0.588	-0.138
Mof_C 	C 	0.4416	0.1926	0.6223	0.096
Mof_H 	H 	0.4791	0.2193	0.6371	0.027
Mof_C 	C 	0.3279	0.2102	0.6351	-0.191
Mof_H 	H 	0.2887	0.2492	0.6573	0.108
Mof_C 	C 	0.6227	0.1164	0.5756	0.358
Mof_C 	C 	0.8598	0.0496	0.0814	0.117
Mof_H 	H 	0.8713	0.9922	0.1028	0.024
Mof_C 	C 	0.8324	0.1822	0.0622	0.109
Mof_H 	H 	0.8213	0.2355	0.0667	0.032
Mof_C 	C 	0.8303	0.1015	0.1793	0.182
Mof_C 	C 	0.895	0.0334	0.2182	-0.193
Mof_H 	H 	0.9466	0.9937	0.2005	0.121
Mof_C 	C 	0.8809	0.0256	0.284	0.103
Mof_H 	H 	0.9212	0.979	0.3112	0.023
Mof_C 	C 	0.808	0.0864	0.3092	-0.133
Mof_C 	C 	0.7449	0.1551	0.2691	0.092
Mof_H 	H 	0.6959	0.1963	0.2863	0.02
Mof_C 	C 	0.7548	0.1624	0.2042	-0.194
Mof_H 	H 	0.7115	0.2074	0.1776	0.12
Mof_C 	C 	0.7942	0.0801	0.3805	0.327
Mof_O 	O 	0.7975	0.4804	0.0832	-0.271
Mof_O 	O 	0.8564	0.3452	0.0937	-0.268
Mof_O 	O 	0.6586	0.244	0.9112	-0.279
Mof_O 	O 	0.664	0.2271	0.8162	-0.296
Mof_O 	O 	0.8027	0.8626	0.5385	-0.27
Mof_O 	O 	0.8643	0.8752	0.6183	-0.262
Mof_O 	O 	0.7858	0.5717	0.8964	-0.272
Mof_O 	O 	0.902	0.5753	0.9508	-0.28
Mof_O 	O 	0.6667	0.1703	0.5769	-0.28
Mof_O 	O 	0.669	0.0465	0.5659	-0.288
Mof_O 	O 	0.7558	0.143	0.3998	-0.253
Mof_O 	O 	0.8284	0.0063	0.4163	-0.269
_end
