data_functionalizedCrystal
_audit_creation_method	'EQeq! by Chris Wilmer'
_symmetry_space_group_name_H-M	'P1'
_symmetry_Int_Tables_number	1
_symmetry_cell_setting	triclinic
loop_
_symmetry_equiv_pos_as_xyz
  x,y,z
_cell_length_a	10.4024
_cell_length_b	11.4246
_cell_length_c	12.9388
_cell_angle_alpha	106.928
_cell_angle_beta	90.122
_cell_angle_gamma	92.989
loop_
_atom_site_label
_atom_site_type_symbol
_atom_site_fract_x
_atom_site_fract_y
_atom_site_fract_z
_atom_site_charge
Mof_Sm	Sm	0.52347	0.54606	0.66258	2.064
Mof_O 	O 	0.61359	0.71976	0.81154	-0.469
Mof_O 	O 	0.40382	0.71487	0.78316	-0.439
Mof_O 	O 	0.64292	0.49124	0.49277	-0.619
Mof_O 	O 	0.71409	0.52495	0.34397	-0.456
Mof_O 	O 	0.51046	0.33042	0.58566	-0.558
Mof_O 	O 	0.464	0.27511	0.4084	-0.504
Mof_C 	C 	0.5053	0.76635	0.83152	0.326
Mof_C 	C 	0.5003	0.88743	0.91713	-0.099
Mof_C 	C 	0.5539	0.99475	0.89815	0.043
Mof_C 	C 	0.6051	0.9949	0.79531	-0.071
Mof_H 	H 	0.6043	0.9205	0.7383	0.071
Mof_C 	C 	0.6547	0.1	0.7782	-0.033
Mof_H 	H 	0.6875	0.0983	0.7093	0.042
Mof_C 	C 	0.6581	0.2127	0.863	-0.029
Mof_H 	H 	0.6941	0.2854	0.8505	0.013
Mof_C 	C 	0.6101	0.2169	0.9616	-0.071
Mof_H 	H 	0.6129	0.2928	0.0171	0.039
Mof_C 	C 	0.5553	0.10893	0.98316	0.036
Mof_C 	C 	0.73469	0.51077	0.43367	0.414
Mof_C 	C 	0.87133	0.5058	0.46901	-0.149
Mof_C 	C 	0.9243	0.5966	0.55818	0.027
Mof_C 	C 	0.8526	0.697	0.6184	-0.076
Mof_H 	H 	0.7663	0.7028	0.5971	0.031
Mof_C 	C 	0.9055	0.7843	0.7054	-0.042
Mof_H 	H 	0.8558	0.8496	0.7447	0.045
Mof_C 	C 	0.0349	0.7779	0.7375	-0.023
Mof_H 	H 	0.0712	0.8393	0.7983	0.04
Mof_C 	C 	0.1076	0.6853	0.6826	-0.089
Mof_H 	H 	0.1941	0.6829	0.7054	0.073
Mof_C 	C 	0.0558	0.5912	0.59076	0.047
Mof_C 	C 	0.48904	0.25333	0.49537	0.489
Mof_C 	C 	0.49379	0.12099	0.4951	-0.147
Mof_C 	C 	0.3857	0.0628	0.5257	0.016
Mof_C 	C 	0.2665	0.1217	0.5499	-0.017
Mof_H 	H 	0.2617	0.2042	0.5491	0.011
Mof_C 	C 	0.1603	0.061	0.5739	0.013
Mof_H 	H 	0.0818	0.1012	0.5883	0.011
Mof_C 	C 	0.1652	0.9384	0.5776	0.009
Mof_H 	H 	0.0899	0.897	0.594	0.015
Mof_C 	C 	0.2772	0.8798	0.5579	-0.009
Mof_H 	H 	0.2799	0.7986	0.5626	0.064
Mof_C 	C 	0.3905	0.9387	0.5302	0.026
Mof_C 	C 	0.378	0.051	0.5025	0.023
Mof_C 	C 	0.2553	0.1011	0.511	-0.041
Mof_H 	H 	0.2465	0.1829	0.5092	0.038
Mof_C 	C 	0.1503	0.0302	0.5216	-0.055
Mof_H 	H 	0.0676	0.0626	0.5254	0.035
Mof_C 	C 	0.1609	0.9099	0.5272	-0.048
Mof_H 	H 	0.085	0.8636	0.5352	0.033
Mof_C 	C 	0.2731	0.8594	0.5216	-0.047
Mof_H 	H 	0.2776	0.7785	0.5271	-0.02
Mof_C 	C 	0.391	0.929	0.5069	0.014
Mof_Sm	Sm	0.47653	0.45394	0.33742	2.065
Mof_O 	O 	0.38641	0.28024	0.18846	-0.468
Mof_O 	O 	0.59618	0.28513	0.21684	-0.438
Mof_O 	O 	0.35708	0.50876	0.50723	-0.618
Mof_O 	O 	0.28591	0.47505	0.65603	-0.455
Mof_O 	O 	0.48954	0.66958	0.41434	-0.557
Mof_O 	O 	0.536	0.72489	0.5916	-0.504
Mof_C 	C 	0.4947	0.23365	0.16848	0.326
Mof_C 	C 	0.4997	0.11257	0.08287	-0.099
Mof_C 	C 	0.4461	0.00525	0.10185	0.043
Mof_C 	C 	0.3949	0.0051	0.20469	-0.071
Mof_H 	H 	0.3957	0.0795	0.2617	0.071
Mof_C 	C 	0.3453	0.9	0.2218	-0.033
Mof_H 	H 	0.3125	0.9017	0.2907	0.042
Mof_C 	C 	0.3419	0.7873	0.137	-0.029
Mof_H 	H 	0.3059	0.7146	0.1495	0.013
Mof_C 	C 	0.3899	0.7831	0.0384	-0.071
Mof_H 	H 	0.3871	0.7072	0.9829	0.039
Mof_C 	C 	0.4447	0.89107	0.01684	0.036
Mof_C 	C 	0.26531	0.48923	0.56633	0.414
Mof_C 	C 	0.12867	0.4942	0.53099	-0.149
Mof_C 	C 	0.0757	0.4034	0.44182	0.027
Mof_C 	C 	0.1474	0.303	0.3816	-0.076
Mof_H 	H 	0.2337	0.2972	0.4029	0.031
Mof_C 	C 	0.0945	0.2157	0.2946	-0.042
Mof_H 	H 	0.1442	0.1504	0.2553	0.045
Mof_C 	C 	0.9651	0.2221	0.2625	-0.023
Mof_H 	H 	0.9288	0.1607	0.2017	0.04
Mof_C 	C 	0.8924	0.3147	0.3174	-0.089
Mof_H 	H 	0.8059	0.3171	0.2946	0.073
Mof_C 	C 	0.9442	0.4088	0.40924	0.047
Mof_C 	C 	0.51096	0.74667	0.50463	0.489
Mof_C 	C 	0.50621	0.87901	0.5049	-0.147
Mof_C 	C 	0.6143	0.9372	0.4743	0.016
Mof_C 	C 	0.7335	0.8783	0.4501	-0.017
Mof_H 	H 	0.7383	0.7958	0.4509	0.011
Mof_C 	C 	0.8397	0.939	0.4261	0.013
Mof_H 	H 	0.9182	0.8988	0.4117	0.011
Mof_C 	C 	0.8348	0.0616	0.4224	0.009
Mof_H 	H 	0.9101	0.103	0.406	0.015
Mof_C 	C 	0.7228	0.1202	0.4421	-0.009
Mof_H 	H 	0.7201	0.2014	0.4374	0.064
Mof_C 	C 	0.6095	0.0613	0.4698	0.026
Mof_C 	C 	0.622	0.949	0.4975	0.023
Mof_C 	C 	0.7447	0.8989	0.489	-0.041
Mof_H 	H 	0.7535	0.8171	0.4908	0.038
Mof_C 	C 	0.8497	0.9698	0.4784	-0.055
Mof_H 	H 	0.9324	0.9374	0.4746	0.035
Mof_C 	C 	0.8391	0.0901	0.4728	-0.048
Mof_H 	H 	0.915	0.1364	0.4648	0.033
Mof_C 	C 	0.7269	0.1406	0.4784	-0.047
Mof_H 	H 	0.7224	0.2215	0.4729	-0.02
Mof_C 	C 	0.609	0.071	0.4931	0.014
_end
