data_functionalizedCrystal
_audit_creation_method	'EQeq! by Chris Wilmer'
_symmetry_space_group_name_H-M	'P1'
_symmetry_Int_Tables_number	1
_symmetry_cell_setting	triclinic
loop_
_symmetry_equiv_pos_as_xyz
  x,y,z
_cell_length_a	20.4692
_cell_length_b	20.4692
_cell_length_c	20.909
_cell_angle_alpha	108.127
_cell_angle_beta	108.127
_cell_angle_gamma	111.369
loop_
_atom_site_label
_atom_site_type_symbol
_atom_site_fract_x
_atom_site_fract_y
_atom_site_fract_z
_atom_site_charge
Mof_Sm	Sm	0.61562	0.85032	0.71978	2.403
Mof_Sm	Sm	0.86946	0.60416	0.21978	2.403
Mof_H 	H 	0.7718	0.8972	0.9122	0.024
Mof_H 	H 	0.8398	0.8557	0.9877	0.12
Mof_H 	H 	0.6355	0.6606	0.9017	0.168
Mof_H 	H 	0.5112	0.6328	0.8086	0.28
Mof_H 	H 	0.5247	0.668	0.7541	0.28
Mof_H 	H 	0.5108	0.712	0.8202	0.29
Mof_H 	H 	0.6964	0.6106	0.949	0.102
Mof_H 	H 	0.7597	0.572	0.0271	0.017
Mof_H 	H 	0.8894	0.8293	0.0759	0.139
Mof_H 	H 	0.004	0.779	0.2008	0.259
Mof_H 	H 	0.9899	0.8513	0.214	0.277
Mof_H 	H 	0.0241	0.8287	0.1586	0.275
Mof_H 	H 	0.5839	0.7265	0.5338	0.004
Mof_H 	H 	0.6289	0.6585	0.4574	0.109
Mof_H 	H 	0.8168	0.8716	0.5438	0.176
Mof_H 	H 	0.7541	0.9709	0.6648	0.316
Mof_H 	H 	0.7874	0.9906	0.6108	0.332
Mof_H 	H 	0.8369	0.9797	0.6766	0.329
Mof_H 	H 	0.6499	0.6193	0.3686	0.185
Mof_H 	H 	0.9078	0.7415	0.4187	0.014
Mof_H 	H 	0.8735	0.8097	0.492	0.121
Mof_H 	H 	0.6976	0.5082	0.2468	0.356
Mof_H 	H 	0.6279	0.5261	0.2372	0.374
Mof_H 	H 	0.651	0.4918	0.2924	0.362
Mof_H 	H 	0.015	0.6404	0.4122	0.024
Mof_H 	H 	0.132	0.6479	0.4877	0.121
Mof_H 	H 	0.2411	0.7662	0.4017	0.168
Mof_H 	H 	0.1758	0.7974	0.3086	0.28
Mof_H 	H 	0.0861	0.7294	0.2541	0.28
Mof_H 	H 	0.1082	0.8094	0.3202	0.29
Mof_H 	H 	0.3384	0.7526	0.449	0.101
Mof_H 	H 	0.4551	0.7674	0.5271	0.017
Mof_H 	H 	0.2466	0.6865	0.5759	0.139
Mof_H 	H 	0.4218	0.6968	0.7008	0.265
Mof_H 	H 	0.3627	0.7241	0.714	0.282
Mof_H 	H 	0.3299	0.6345	0.6586	0.281
Mof_H 	H 	0.8073	0.4499	0.0338	0.004
Mof_H 	H 	0.7989	0.3285	0.9574	0.109
Mof_H 	H 	0.6722	0.227	0.0438	0.175
Mof_H 	H 	0.6939	0.4107	0.1648	0.315
Mof_H 	H 	0.6202	0.3234	0.1108	0.331
Mof_H 	H 	0.6969	0.3397	0.1766	0.328
Mof_H 	H 	0.7493	0.2187	0.8686	0.185
Mof_H 	H 	0.6772	0.0109	0.9187	0.013
Mof_H 	H 	0.6823	0.1185	0.992	0.121
Mof_H 	H 	0.7386	0.0492	0.7468	0.356
Mof_H 	H 	0.7111	0.1093	0.7372	0.374
Mof_H 	H 	0.8006	0.1414	0.7924	0.361
Mof_C 	C 	0.7444	0.8481	0.9097	0.13
Mof_C 	C 	0.785	0.8228	0.9554	-0.185
Mof_C 	C 	0.7465	0.7523	0.9534	0.159
Mof_C 	C 	0.6648	0.7091	0.9041	-0.346
Mof_C 	C 	0.6253	0.7302	0.8607	0.388
Mof_C 	C 	0.5344	0.6811	0.8057	-0.841
Mof_C 	C 	0.7854	0.7249	0.0013	0.083
Mof_C 	C 	0.7481	0.6474	0.9891	-0.14
Mof_C 	C 	0.7867	0.624	0.0355	0.097
Mof_C 	C 	0.9025	0.7513	0.1096	0.319
Mof_C 	C 	0.8631	0.776	0.0641	-0.25
Mof_C 	C 	0.9882	0.8079	0.1771	-0.779
Mof_C 	C 	0.6321	0.7562	0.5359	0.133
Mof_C 	C 	0.6579	0.7138	0.4877	-0.176
Mof_C 	C 	0.7269	0.7605	0.4902	0.141
Mof_C 	C 	0.7686	0.8399	0.5405	-0.362
Mof_C 	C 	0.7439	0.876	0.5865	0.435
Mof_C 	C 	0.784	0.9617	0.6393	-0.975
Mof_C 	C 	0.7517	0.7193	0.44	0.151
Mof_C 	C 	0.7031	0.6453	0.38	-0.396
Mof_C 	C 	0.7264	0.6047	0.3335	0.522
Mof_C 	C 	0.855	0.7174	0.4092	0.158
Mof_C 	C 	0.8358	0.7576	0.453	-0.197
Mof_C 	C 	0.6713	0.5266	0.2727	-1.13
Mof_C 	C 	0.0616	0.6653	0.4097	0.13
Mof_C 	C 	0.1326	0.6704	0.4554	-0.186
Mof_C 	C 	0.2011	0.7069	0.4534	0.161
Mof_C 	C 	0.195	0.7393	0.4041	-0.347
Mof_C 	C 	0.1305	0.7354	0.3607	0.388
Mof_C 	C 	0.1246	0.7713	0.3057	-0.841
Mof_C 	C 	0.2764	0.7159	0.5013	0.081
Mof_C 	C 	0.3417	0.741	0.4891	-0.137
Mof_C 	C 	0.4115	0.7488	0.5355	0.095
Mof_C 	C 	0.3583	0.7071	0.6096	0.322
Mof_C 	C 	0.2881	0.701	0.5641	-0.251
Mof_C 	C 	0.3692	0.6889	0.6771	-0.795
Mof_C 	C 	0.7797	0.4038	0.0359	0.134
Mof_C 	C 	0.7739	0.3298	0.9877	-0.177
Mof_C 	C 	0.7297	0.2633	0.9902	0.139
Mof_C 	C 	0.7006	0.2719	0.0405	-0.36
Mof_C 	C 	0.7105	0.3426	0.0865	0.434
Mof_C 	C 	0.6776	0.3553	0.1393	-0.973
Mof_C 	C 	0.7207	0.1883	0.94	0.151
Mof_C 	C 	0.7347	0.1769	0.88	-0.396
Mof_C 	C 	0.7288	0.1071	0.8335	0.522
Mof_C 	C 	0.6918	0.0542	0.9092	0.158
Mof_C 	C 	0.6954	0.1172	0.953	-0.198
Mof_C 	C 	0.7461	0.1014	0.7727	-1.129
Mof_N 	N 	0.6677	0.8013	0.8642	-0.116
Mof_N 	N 	0.8628	0.6744	0.0932	-0.103
Mof_N 	N 	0.6714	0.8293	0.5789	-0.143
Mof_N 	N 	0.8041	0.6436	0.3513	-0.15
Mof_N 	N 	0.0629	0.6965	0.3642	-0.117
Mof_N 	N 	0.4188	0.7304	0.5932	-0.103
Mof_N 	N 	0.7496	0.4075	0.0789	-0.143
Mof_N 	N 	0.7077	0.0472	0.8513	-0.151
Mof_O 	O 	0.6305	0.8279	0.8238	-0.373
Mof_O 	O 	0.8968	0.6486	0.1344	-0.372
Mof_O 	O 	0.6406	0.8612	0.6194	-0.374
Mof_O 	O 	0.8264	0.6017	0.3097	-0.376
Mof_O 	O 	0.6189	0.7278	0.6749	-0.342
Mof_O 	O 	0.7547	0.8775	0.7638	-0.308
Mof_O 	O 	0.5348	0.8842	0.7782	-0.301
Mof_O 	O 	0.5525	0.9127	0.6606	-0.34
Mof_O 	O 	0.9959	0.6933	0.3238	-0.372
Mof_O 	O 	0.4858	0.7376	0.6344	-0.372
Mof_O 	O 	0.7582	0.4788	0.1194	-0.374
Mof_O 	O 	0.708	0.9833	0.8097	-0.375
Mof_O 	O 	0.9471	0.556	0.1749	-0.342
Mof_O 	O 	0.8863	0.5091	0.2638	-0.308
Mof_O 	O 	0.894	0.7434	0.2782	-0.301
Mof_O 	O 	0.7479	0.6081	0.1606	-0.34
Mof_Sm	Sm	0.13054	0.39584	0.78022	2.403
Mof_Sm	Sm	0.38438	0.14968	0.28022	2.403
Mof_H 	H 	0.985	0.3596	0.5878	0.024
Mof_H 	H 	0.868	0.3521	0.5123	0.121
Mof_H 	H 	0.7589	0.2338	0.5983	0.168
Mof_H 	H 	0.8242	0.2026	0.6914	0.28
Mof_H 	H 	0.9139	0.2706	0.7459	0.28
Mof_H 	H 	0.8918	0.1906	0.6798	0.29
Mof_H 	H 	0.6616	0.2474	0.551	0.101
Mof_H 	H 	0.5449	0.2326	0.4729	0.017
Mof_H 	H 	0.7534	0.3135	0.4241	0.139
Mof_H 	H 	0.5782	0.3032	0.2992	0.265
Mof_H 	H 	0.6373	0.2759	0.286	0.282
Mof_H 	H 	0.6701	0.3655	0.3414	0.281
Mof_H 	H 	0.1927	0.5501	0.9662	0.004
Mof_H 	H 	0.2011	0.6715	0.0426	0.109
Mof_H 	H 	0.3278	0.773	0.9562	0.175
Mof_H 	H 	0.3061	0.5893	0.8352	0.315
Mof_H 	H 	0.3798	0.6766	0.8892	0.331
Mof_H 	H 	0.3031	0.6603	0.8234	0.328
Mof_H 	H 	0.2507	0.7813	0.1314	0.185
Mof_H 	H 	0.3228	0.9891	0.0813	0.013
Mof_H 	H 	0.3177	0.8815	0.008	0.121
Mof_H 	H 	0.2614	0.9508	0.2532	0.356
Mof_H 	H 	0.2889	0.8907	0.2628	0.374
Mof_H 	H 	0.1994	0.8586	0.2076	0.361
Mof_H 	H 	0.2282	0.1028	0.0878	0.024
Mof_H 	H 	0.1602	0.1443	0.0123	0.12
Mof_H 	H 	0.3645	0.3394	0.0983	0.168
Mof_H 	H 	0.4888	0.3672	0.1914	0.28
Mof_H 	H 	0.4753	0.332	0.2459	0.28
Mof_H 	H 	0.4892	0.288	0.1798	0.29
Mof_H 	H 	0.3036	0.3894	0.051	0.102
Mof_H 	H 	0.2403	0.428	0.9729	0.017
Mof_H 	H 	0.1106	0.1707	0.9241	0.139
Mof_H 	H 	0.996	0.221	0.7992	0.259
Mof_H 	H 	0.0101	0.1487	0.786	0.277
Mof_H 	H 	0.9759	0.1713	0.8414	0.275
Mof_H 	H 	0.4161	0.2735	0.4662	0.004
Mof_H 	H 	0.3711	0.3415	0.5426	0.109
Mof_H 	H 	0.1832	0.1284	0.4562	0.176
Mof_H 	H 	0.2459	0.0291	0.3352	0.316
Mof_H 	H 	0.2126	0.0094	0.3892	0.332
Mof_H 	H 	0.1631	0.0203	0.3234	0.329
Mof_H 	H 	0.3501	0.3807	0.6314	0.185
Mof_H 	H 	0.0922	0.2585	0.5813	0.014
Mof_H 	H 	0.1265	0.1903	0.508	0.121
Mof_H 	H 	0.3024	0.4918	0.7532	0.356
Mof_H 	H 	0.3721	0.4739	0.7628	0.374
Mof_H 	H 	0.349	0.5082	0.7076	0.362
Mof_C 	C 	0.9384	0.3347	0.5903	0.13
Mof_C 	C 	0.8674	0.3296	0.5446	-0.186
Mof_C 	C 	0.7989	0.2931	0.5466	0.161
Mof_C 	C 	0.805	0.2607	0.5959	-0.347
Mof_C 	C 	0.8695	0.2646	0.6393	0.388
Mof_C 	C 	0.8754	0.2287	0.6943	-0.841
Mof_C 	C 	0.7236	0.2841	0.4987	0.081
Mof_C 	C 	0.6583	0.259	0.5109	-0.137
Mof_C 	C 	0.5885	0.2512	0.4645	0.095
Mof_C 	C 	0.6417	0.2929	0.3904	0.322
Mof_C 	C 	0.7119	0.299	0.4359	-0.251
Mof_C 	C 	0.6308	0.3111	0.3229	-0.795
Mof_C 	C 	0.2203	0.5962	0.9641	0.134
Mof_C 	C 	0.2261	0.6702	0.0123	-0.177
Mof_C 	C 	0.2703	0.7367	0.0098	0.139
Mof_C 	C 	0.2994	0.7281	0.9595	-0.36
Mof_C 	C 	0.2895	0.6574	0.9135	0.434
Mof_C 	C 	0.3224	0.6447	0.8607	-0.973
Mof_C 	C 	0.2793	0.8117	0.06	0.151
Mof_C 	C 	0.2653	0.8231	0.12	-0.396
Mof_C 	C 	0.2712	0.8929	0.1665	0.522
Mof_C 	C 	0.3082	0.9458	0.0908	0.158
Mof_C 	C 	0.3046	0.8828	0.047	-0.198
Mof_C 	C 	0.2539	0.8986	0.2273	-1.129
Mof_C 	C 	0.2556	0.1519	0.0903	0.13
Mof_C 	C 	0.215	0.1772	0.0446	-0.185
Mof_C 	C 	0.2535	0.2477	0.0466	0.159
Mof_C 	C 	0.3352	0.2909	0.0959	-0.346
Mof_C 	C 	0.3747	0.2698	0.1393	0.388
Mof_C 	C 	0.4656	0.3189	0.1943	-0.841
Mof_C 	C 	0.2146	0.2751	0.9987	0.083
Mof_C 	C 	0.2519	0.3526	0.0109	-0.14
Mof_C 	C 	0.2133	0.376	0.9645	0.097
Mof_C 	C 	0.0975	0.2487	0.8904	0.319
Mof_C 	C 	0.1369	0.224	0.9359	-0.25
Mof_C 	C 	0.0118	0.1921	0.8229	-0.779
Mof_C 	C 	0.3679	0.2438	0.4641	0.133
Mof_C 	C 	0.3421	0.2862	0.5123	-0.176
Mof_C 	C 	0.2731	0.2395	0.5098	0.141
Mof_C 	C 	0.2314	0.1601	0.4595	-0.362
Mof_C 	C 	0.2561	0.124	0.4135	0.435
Mof_C 	C 	0.216	0.0383	0.3607	-0.975
Mof_C 	C 	0.2483	0.2807	0.56	0.151
Mof_C 	C 	0.2969	0.3547	0.62	-0.396
Mof_C 	C 	0.2736	0.3953	0.6665	0.522
Mof_C 	C 	0.145	0.2826	0.5908	0.158
Mof_C 	C 	0.1642	0.2424	0.547	-0.197
Mof_C 	C 	0.3287	0.4734	0.7273	-1.13
Mof_N 	N 	0.9371	0.3035	0.6358	-0.117
Mof_N 	N 	0.5812	0.2696	0.4068	-0.103
Mof_N 	N 	0.2504	0.5925	0.9211	-0.143
Mof_N 	N 	0.2923	0.9528	0.1487	-0.151
Mof_N 	N 	0.3323	0.1987	0.1358	-0.116
Mof_N 	N 	0.1372	0.3256	0.9068	-0.103
Mof_N 	N 	0.3286	0.1707	0.4211	-0.143
Mof_N 	N 	0.1959	0.3564	0.6487	-0.15
Mof_O 	O 	0.0041	0.3067	0.6762	-0.372
Mof_O 	O 	0.5142	0.2624	0.3656	-0.372
Mof_O 	O 	0.2418	0.5212	0.8806	-0.374
Mof_O 	O 	0.292	0.0167	0.1903	-0.375
Mof_O 	O 	0.0529	0.444	0.8251	-0.342
Mof_O 	O 	0.1137	0.4909	0.7362	-0.308
Mof_O 	O 	0.106	0.2566	0.7218	-0.301
Mof_O 	O 	0.2521	0.3919	0.8394	-0.34
Mof_O 	O 	0.3695	0.1721	0.1762	-0.373
Mof_O 	O 	0.1032	0.3514	0.8656	-0.372
Mof_O 	O 	0.3594	0.1388	0.3806	-0.374
Mof_O 	O 	0.1736	0.3983	0.6903	-0.376
Mof_O 	O 	0.3811	0.2722	0.3251	-0.342
Mof_O 	O 	0.2453	0.1225	0.2362	-0.308
Mof_O 	O 	0.4652	0.1158	0.2218	-0.301
Mof_O 	O 	0.4475	0.0873	0.3394	-0.34
Mof_Cl	Cl	0.7168	0.2951	0.7447	-0.251
Mof_O 	O 	0.6812	0.2164	0.689	-0.048
Mof_O 	O 	0.7008	0.2924	0.799	-0.004
Mof_O 	O 	0.7998	0.34	0.7688	-0.028
Mof_O 	O 	0.6809	0.3266	0.7105	0.013
Mof_Cl	Cl	0.9233	0.0733	0.5524	-0.23
Mof_O 	O 	0.9068	0.9952	0.519	-0.012
Mof_O 	O 	0.8506	0.0662	0.533	-0.03
Mof_O 	O 	0.966	0.131	0.543	0.01
Mof_O 	O 	0.9584	0.1132	0.6366	-0.058
Mof_Cl	Cl	0.9243	0.0749	0.9264	-0.227
Mof_O 	O 	0.8843	0.023	0.9481	-0.002
Mof_O 	O 	0.8914	0.0323	0.8461	-0.042
Mof_O 	O 	0.919	0.1422	0.9424	-0.028
Mof_O 	O 	0.005	0.1052	0.965	-0.016
Mof_Cl	Cl	0.5504	0.4721	0.7553	-0.251
Mof_O 	O 	0.5274	0.4922	0.811	-0.048
Mof_O 	O 	0.4934	0.4018	0.701	-0.004
Mof_O 	O 	0.5712	0.531	0.7312	-0.027
Mof_O 	O 	0.6161	0.4704	0.7895	0.013
Mof_Cl	Cl	0.5209	0.8709	0.9476	-0.229
Mof_O 	O 	0.4762	0.8878	0.981	-0.013
Mof_O 	O 	0.5332	0.8176	0.967	-0.03
Mof_O 	O 	0.588	0.923	0.957	0.01
Mof_O 	O 	0.4766	0.8218	0.8634	-0.058
Mof_Cl	Cl	0.1485	0.4979	0.5736	-0.225
Mof_O 	O 	0.0749	0.4362	0.5519	-0.001
Mof_O 	O 	0.1862	0.5453	0.6539	-0.042
Mof_O 	O 	0.1998	0.4766	0.5576	-0.027
Mof_O 	O 	0.1402	0.54	0.535	-0.018
Mof_Cl	Cl	0.2832	0.7049	0.2553	-0.251
Mof_O 	O 	0.3188	0.7836	0.311	-0.048
Mof_O 	O 	0.2992	0.7076	0.201	-0.004
Mof_O 	O 	0.2002	0.66	0.2312	-0.028
Mof_O 	O 	0.3191	0.6734	0.2895	0.013
Mof_Cl	Cl	0.0767	0.9267	0.4476	-0.23
Mof_O 	O 	0.0932	0.0048	0.481	-0.012
Mof_O 	O 	0.1494	0.9338	0.467	-0.03
Mof_O 	O 	0.034	0.869	0.457	0.01
Mof_O 	O 	0.0416	0.8868	0.3634	-0.058
Mof_Cl	Cl	0.0757	0.9251	0.0736	-0.227
Mof_O 	O 	0.1157	0.977	0.0519	-0.002
Mof_O 	O 	0.1086	0.9677	0.1539	-0.042
Mof_O 	O 	0.081	0.8578	0.0576	-0.028
Mof_O 	O 	0.995	0.8948	0.035	-0.016
Mof_Cl	Cl	0.4496	0.5279	0.2447	-0.251
Mof_O 	O 	0.4726	0.5078	0.189	-0.048
Mof_O 	O 	0.5066	0.5982	0.299	-0.004
Mof_O 	O 	0.4288	0.469	0.2688	-0.027
Mof_O 	O 	0.3839	0.5296	0.2105	0.013
Mof_Cl	Cl	0.4791	0.1291	0.0524	-0.229
Mof_O 	O 	0.5238	0.1122	0.019	-0.013
Mof_O 	O 	0.4668	0.1824	0.033	-0.03
Mof_O 	O 	0.412	0.077	0.043	0.01
Mof_O 	O 	0.5234	0.1782	0.1366	-0.058
Mof_Cl	Cl	0.8515	0.5021	0.4264	-0.225
Mof_O 	O 	0.9251	0.5638	0.4481	-0.001
Mof_O 	O 	0.8138	0.4547	0.3461	-0.042
Mof_O 	O 	0.8002	0.5234	0.4424	-0.027
Mof_O 	O 	0.8598	0.46	0.465	-0.018
_end
