data_functionalizedCrystal
_audit_creation_method	'EQeq! by Chris Wilmer'
_symmetry_space_group_name_H-M	'P1'
_symmetry_Int_Tables_number	1
_symmetry_cell_setting	triclinic
loop_
_symmetry_equiv_pos_as_xyz
  x,y,z
_cell_length_a	8.9813
_cell_length_b	19.7126
_cell_length_c	19.7126
_cell_angle_alpha	90
_cell_angle_beta	90
_cell_angle_gamma	90
loop_
_atom_site_label
_atom_site_type_symbol
_atom_site_fract_x
_atom_site_fract_y
_atom_site_fract_z
_atom_site_charge
Mof_Ba	Ba	0.77256	0.81713	0.64536	1.723
Mof_Ba	Ba	0.7663	0.69162	0.86647	1.712
Mof_Ba	Ba	0.77256	0.18287	0.35464	1.723
Mof_Ba	Ba	0.7663	0.30838	0.13353	1.712
Mof_Ba	Ba	0.77256	0.35464	0.81713	1.723
Mof_Ba	Ba	0.7663	0.13353	0.69162	1.712
Mof_Ba	Ba	0.77256	0.64536	0.18287	1.723
Mof_Ba	Ba	0.7663	0.86647	0.30838	1.712
Mof_Ba	Ba	0.27256	0.31713	0.85464	1.799
Mof_Ba	Ba	0.2663	0.19162	0.63353	1.781
Mof_Ba	Ba	0.27256	0.68287	0.14536	1.799
Mof_Ba	Ba	0.2663	0.80838	0.36647	1.781
Mof_Ba	Ba	0.27256	0.85464	0.68287	1.799
Mof_Ba	Ba	0.2663	0.63353	0.80838	1.781
Mof_Ba	Ba	0.27256	0.14536	0.31713	1.799
Mof_Ba	Ba	0.2663	0.36647	0.19162	1.781
Mof_H 	H 	0.667	0.887	0.001	0.043
Mof_H 	H 	0.757	0.826	0.016	0.048
Mof_H 	H 	0.478	0.797	0.027	0.105
Mof_H 	H 	0.448	0.742	0.968	0.097
Mof_H 	H 	0.445	0.867	0.917	0.139
Mof_H 	H 	0.572	0.871	0.875	0.154
Mof_H 	H 	0.899	0.9	0.966	0.016
Mof_H 	H 	0.824	0.89	0.899	0.026
Mof_H 	H 	0.102	0.797	0.846	0.057
Mof_H 	H 	0.066	0.87	0.863	0.108
Mof_H 	H 	0.002	0.795	0.017	0.109
Mof_H 	H 	0.118	0.823	0.978	0.084
Mof_H 	H 	0.667	0.113	0.999	0.043
Mof_H 	H 	0.757	0.174	0.984	0.048
Mof_H 	H 	0.478	0.203	0.973	0.105
Mof_H 	H 	0.448	0.258	0.032	0.097
Mof_H 	H 	0.445	0.133	0.083	0.139
Mof_H 	H 	0.572	0.129	0.125	0.154
Mof_H 	H 	0.899	0.1	0.034	0.016
Mof_H 	H 	0.824	0.11	0.101	0.026
Mof_H 	H 	0.102	0.203	0.154	0.057
Mof_H 	H 	0.066	0.13	0.137	0.108
Mof_H 	H 	0.002	0.205	0.983	0.109
Mof_H 	H 	0.118	0.177	0.022	0.084
Mof_H 	H 	0.667	0.999	0.887	0.043
Mof_H 	H 	0.757	0.984	0.826	0.048
Mof_H 	H 	0.478	0.973	0.797	0.105
Mof_H 	H 	0.448	0.032	0.742	0.097
Mof_H 	H 	0.445	0.083	0.867	0.139
Mof_H 	H 	0.572	0.125	0.871	0.154
Mof_H 	H 	0.899	0.034	0.9	0.016
Mof_H 	H 	0.824	0.101	0.89	0.026
Mof_H 	H 	0.102	0.154	0.797	0.057
Mof_H 	H 	0.066	0.137	0.87	0.108
Mof_H 	H 	0.002	0.983	0.795	0.109
Mof_H 	H 	0.118	0.022	0.823	0.084
Mof_H 	H 	0.667	0.001	0.113	0.043
Mof_H 	H 	0.757	0.016	0.174	0.048
Mof_H 	H 	0.478	0.027	0.203	0.105
Mof_H 	H 	0.448	0.968	0.258	0.097
Mof_H 	H 	0.445	0.917	0.133	0.139
Mof_H 	H 	0.572	0.875	0.129	0.154
Mof_H 	H 	0.899	0.966	0.1	0.016
Mof_H 	H 	0.824	0.899	0.11	0.026
Mof_H 	H 	0.102	0.846	0.203	0.057
Mof_H 	H 	0.066	0.863	0.13	0.108
Mof_H 	H 	0.002	0.017	0.205	0.109
Mof_H 	H 	0.118	0.978	0.177	0.084
Mof_H 	H 	0.167	0.387	0.499	0.045
Mof_H 	H 	0.257	0.326	0.484	0.042
Mof_H 	H 	0.978	0.297	0.473	-0.003
Mof_H 	H 	0.948	0.242	0.532	-0.021
Mof_H 	H 	0.945	0.367	0.583	0.051
Mof_H 	H 	0.072	0.371	0.625	0.102
Mof_H 	H 	0.399	0.4	0.534	0.035
Mof_H 	H 	0.324	0.39	0.601	0.042
Mof_H 	H 	0.602	0.297	0.654	0.089
Mof_H 	H 	0.566	0.37	0.637	0.14
Mof_H 	H 	0.502	0.295	0.483	0.105
Mof_H 	H 	0.618	0.323	0.522	0.09
Mof_H 	H 	0.167	0.613	0.501	0.045
Mof_H 	H 	0.257	0.674	0.516	0.042
Mof_H 	H 	0.978	0.703	0.527	-0.003
Mof_H 	H 	0.948	0.758	0.468	-0.021
Mof_H 	H 	0.945	0.633	0.417	0.051
Mof_H 	H 	0.072	0.629	0.375	0.102
Mof_H 	H 	0.399	0.6	0.466	0.035
Mof_H 	H 	0.324	0.61	0.399	0.042
Mof_H 	H 	0.602	0.703	0.346	0.089
Mof_H 	H 	0.566	0.63	0.363	0.14
Mof_H 	H 	0.502	0.705	0.517	0.105
Mof_H 	H 	0.618	0.677	0.478	0.09
Mof_H 	H 	0.167	0.499	0.613	0.045
Mof_H 	H 	0.257	0.484	0.674	0.042
Mof_H 	H 	0.978	0.473	0.703	-0.003
Mof_H 	H 	0.948	0.532	0.758	-0.021
Mof_H 	H 	0.945	0.583	0.633	0.051
Mof_H 	H 	0.072	0.625	0.629	0.102
Mof_H 	H 	0.399	0.534	0.6	0.035
Mof_H 	H 	0.324	0.601	0.61	0.042
Mof_H 	H 	0.602	0.654	0.703	0.089
Mof_H 	H 	0.566	0.637	0.63	0.14
Mof_H 	H 	0.502	0.483	0.705	0.105
Mof_H 	H 	0.618	0.522	0.677	0.09
Mof_H 	H 	0.167	0.501	0.387	0.045
Mof_H 	H 	0.257	0.516	0.326	0.042
Mof_H 	H 	0.978	0.527	0.297	-0.003
Mof_H 	H 	0.948	0.468	0.242	-0.021
Mof_H 	H 	0.945	0.417	0.367	0.051
Mof_H 	H 	0.072	0.375	0.371	0.102
Mof_H 	H 	0.399	0.466	0.4	0.035
Mof_H 	H 	0.324	0.399	0.39	0.042
Mof_H 	H 	0.602	0.346	0.297	0.089
Mof_H 	H 	0.566	0.363	0.37	0.14
Mof_H 	H 	0.502	0.517	0.295	0.105
Mof_H 	H 	0.618	0.478	0.323	0.09
Mof_C 	C 	0.7136	0.8458	0.9818	-0.111
Mof_C 	C 	0.5186	0.7643	0.9939	-0.362
Mof_C 	C 	0.6044	0.7097	0.0321	0.458
Mof_C 	C 	0.5201	0.8383	0.8967	-0.43
Mof_C 	C 	0.4429	0.7945	0.8443	0.504
Mof_C 	C 	0.8467	0.8663	0.9401	-0.054
Mof_C 	C 	0.0256	0.8285	0.8581	-0.245
Mof_C 	C 	0.9331	0.8301	0.793	0.373
Mof_C 	C 	0.0373	0.7868	0.9736	-0.274
Mof_C 	C 	0.1045	0.7157	0.9646	0.443
Mof_C 	C 	0.7136	0.1542	0.0182	-0.111
Mof_C 	C 	0.5186	0.2357	0.0061	-0.362
Mof_C 	C 	0.6044	0.2903	0.9679	0.458
Mof_C 	C 	0.5201	0.1617	0.1033	-0.43
Mof_C 	C 	0.4429	0.2055	0.1557	0.504
Mof_C 	C 	0.8467	0.1337	0.0599	-0.054
Mof_C 	C 	0.0256	0.1715	0.1419	-0.245
Mof_C 	C 	0.9331	0.1699	0.207	0.373
Mof_C 	C 	0.0373	0.2132	0.0264	-0.274
Mof_C 	C 	0.1045	0.2843	0.0354	0.443
Mof_C 	C 	0.7136	0.0182	0.8458	-0.111
Mof_C 	C 	0.5186	0.0061	0.7643	-0.362
Mof_C 	C 	0.6044	0.9679	0.7097	0.458
Mof_C 	C 	0.5201	0.1033	0.8383	-0.43
Mof_C 	C 	0.4429	0.1557	0.7945	0.504
Mof_C 	C 	0.8467	0.0599	0.8663	-0.054
Mof_C 	C 	0.0256	0.1419	0.8285	-0.245
Mof_C 	C 	0.9331	0.207	0.8301	0.373
Mof_C 	C 	0.0373	0.0264	0.7868	-0.274
Mof_C 	C 	0.1045	0.0354	0.7157	0.443
Mof_C 	C 	0.7136	0.9818	0.1542	-0.111
Mof_C 	C 	0.5186	0.9939	0.2357	-0.362
Mof_C 	C 	0.6044	0.0321	0.2903	0.458
Mof_C 	C 	0.5201	0.8967	0.1617	-0.43
Mof_C 	C 	0.4429	0.8443	0.2055	0.504
Mof_C 	C 	0.8467	0.9401	0.1337	-0.054
Mof_C 	C 	0.0256	0.8581	0.1715	-0.245
Mof_C 	C 	0.9331	0.793	0.1699	0.373
Mof_C 	C 	0.0373	0.9736	0.2132	-0.274
Mof_C 	C 	0.1045	0.9646	0.2843	0.443
Mof_C 	C 	0.2136	0.3458	0.5182	-0.081
Mof_C 	C 	0.0186	0.2643	0.5061	-0.102
Mof_C 	C 	0.1044	0.2097	0.4679	0.388
Mof_C 	C 	0.0201	0.3383	0.6033	-0.223
Mof_C 	C 	0.9429	0.2945	0.6557	0.413
Mof_C 	C 	0.3467	0.3663	0.5599	-0.078
Mof_C 	C 	0.5256	0.3285	0.6419	-0.377
Mof_C 	C 	0.4331	0.3301	0.707	0.435
Mof_C 	C 	0.5373	0.2868	0.5264	-0.323
Mof_C 	C 	0.6045	0.2157	0.5354	0.451
Mof_C 	C 	0.2136	0.6542	0.4818	-0.081
Mof_C 	C 	0.0186	0.7357	0.4939	-0.102
Mof_C 	C 	0.1044	0.7903	0.5321	0.388
Mof_C 	C 	0.0201	0.6617	0.3967	-0.223
Mof_C 	C 	0.9429	0.7055	0.3443	0.413
Mof_C 	C 	0.3467	0.6337	0.4401	-0.078
Mof_C 	C 	0.5256	0.6715	0.3581	-0.377
Mof_C 	C 	0.4331	0.6699	0.293	0.435
Mof_C 	C 	0.5373	0.7132	0.4736	-0.323
Mof_C 	C 	0.6045	0.7843	0.4646	0.451
Mof_C 	C 	0.2136	0.5182	0.6542	-0.081
Mof_C 	C 	0.0186	0.5061	0.7357	-0.102
Mof_C 	C 	0.1044	0.4679	0.7903	0.388
Mof_C 	C 	0.0201	0.6033	0.6617	-0.223
Mof_C 	C 	0.9429	0.6557	0.7055	0.413
Mof_C 	C 	0.3467	0.5599	0.6337	-0.078
Mof_C 	C 	0.5256	0.6419	0.6715	-0.377
Mof_C 	C 	0.4331	0.707	0.6699	0.435
Mof_C 	C 	0.5373	0.5264	0.7132	-0.323
Mof_C 	C 	0.6045	0.5354	0.7843	0.451
Mof_C 	C 	0.2136	0.4818	0.3458	-0.081
Mof_C 	C 	0.0186	0.4939	0.2643	-0.102
Mof_C 	C 	0.1044	0.5321	0.2097	0.388
Mof_C 	C 	0.0201	0.3967	0.3383	-0.223
Mof_C 	C 	0.9429	0.3443	0.2945	0.413
Mof_C 	C 	0.3467	0.4401	0.3663	-0.078
Mof_C 	C 	0.5256	0.3581	0.3285	-0.377
Mof_C 	C 	0.4331	0.293	0.3301	0.435
Mof_C 	C 	0.5373	0.4736	0.2868	-0.323
Mof_C 	C 	0.6045	0.4646	0.2157	0.451
Mof_N 	N 	0.6106	0.8005	0.9456	-0.061
Mof_N 	N 	0.9386	0.8092	0.9188	-0.136
Mof_N 	N 	0.6106	0.1995	0.0544	-0.061
Mof_N 	N 	0.9386	0.1908	0.0812	-0.136
Mof_N 	N 	0.6106	0.0544	0.8005	-0.061
Mof_N 	N 	0.9386	0.0812	0.8092	-0.136
Mof_N 	N 	0.6106	0.9456	0.1995	-0.061
Mof_N 	N 	0.9386	0.9188	0.1908	-0.136
Mof_N 	N 	0.1106	0.3005	0.5544	-0.116
Mof_N 	N 	0.4386	0.3092	0.5812	-0.085
Mof_N 	N 	0.1106	0.6995	0.4456	-0.116
Mof_N 	N 	0.4386	0.6908	0.4188	-0.085
Mof_N 	N 	0.1106	0.5544	0.6995	-0.116
Mof_N 	N 	0.4386	0.5812	0.6908	-0.085
Mof_N 	N 	0.1106	0.4456	0.3005	-0.116
Mof_N 	N 	0.4386	0.4188	0.3092	-0.085
Mof_O 	O 	0.7147	0.6844	0.002	-0.565
Mof_O 	O 	0.5597	0.6922	0.0889	-0.62
Mof_O 	O 	0.4765	0.7329	0.84	-0.617
Mof_O 	O 	0.35	0.8243	0.8079	-0.548
Mof_O 	O 	0.8005	0.81055	0.79331	-0.534
Mof_O 	O 	0.9989	0.8518	0.74151	-0.607
Mof_O 	O 	0.1883	0.6956	0.0109	-0.536
Mof_O 	O 	0.0714	0.6837	0.9117	-0.57
Mof_O 	O 	0.7147	0.3156	0.998	-0.565
Mof_O 	O 	0.5597	0.3078	0.9111	-0.62
Mof_O 	O 	0.4765	0.2671	0.16	-0.617
Mof_O 	O 	0.35	0.1757	0.1921	-0.548
Mof_O 	O 	0.8005	0.18945	0.20669	-0.534
Mof_O 	O 	0.9989	0.1482	0.25849	-0.607
Mof_O 	O 	0.1883	0.3044	0.9891	-0.536
Mof_O 	O 	0.0714	0.3163	0.0883	-0.57
Mof_O 	O 	0.7147	0.998	0.6844	-0.565
Mof_O 	O 	0.5597	0.9111	0.6922	-0.62
Mof_O 	O 	0.4765	0.16	0.7329	-0.617
Mof_O 	O 	0.35	0.1921	0.8243	-0.548
Mof_O 	O 	0.8005	0.20669	0.81055	-0.534
Mof_O 	O 	0.9989	0.25849	0.8518	-0.607
Mof_O 	O 	0.1883	0.9891	0.6956	-0.536
Mof_O 	O 	0.0714	0.0883	0.6837	-0.57
Mof_O 	O 	0.7147	0.002	0.3156	-0.565
Mof_O 	O 	0.5597	0.0889	0.3078	-0.62
Mof_O 	O 	0.4765	0.84	0.2671	-0.617
Mof_O 	O 	0.35	0.8079	0.1757	-0.548
Mof_O 	O 	0.8005	0.79331	0.18945	-0.534
Mof_O 	O 	0.9989	0.74151	0.1482	-0.607
Mof_O 	O 	0.1883	0.0109	0.3044	-0.536
Mof_O 	O 	0.0714	0.9117	0.3163	-0.57
Mof_O 	O 	0.2147	0.1844	0.498	-0.538
Mof_O 	O 	0.0597	0.1922	0.4111	-0.573
Mof_O 	O 	0.9765	0.2329	0.66	-0.616
Mof_O 	O 	0.85	0.3243	0.6921	-0.527
Mof_O 	O 	0.3005	0.31055	0.70669	-0.546
Mof_O 	O 	0.4989	0.3518	0.75849	-0.594
Mof_O 	O 	0.6883	0.1956	0.4891	-0.542
Mof_O 	O 	0.5714	0.1837	0.5883	-0.592
Mof_O 	O 	0.2147	0.8156	0.502	-0.538
Mof_O 	O 	0.0597	0.8078	0.5889	-0.573
Mof_O 	O 	0.9765	0.7671	0.34	-0.616
Mof_O 	O 	0.85	0.6757	0.3079	-0.527
Mof_O 	O 	0.3005	0.68945	0.29331	-0.546
Mof_O 	O 	0.4989	0.6482	0.24151	-0.594
Mof_O 	O 	0.6883	0.8044	0.5109	-0.542
Mof_O 	O 	0.5714	0.8163	0.4117	-0.592
Mof_O 	O 	0.2147	0.498	0.8156	-0.538
Mof_O 	O 	0.0597	0.4111	0.8078	-0.573
Mof_O 	O 	0.9765	0.66	0.7671	-0.616
Mof_O 	O 	0.85	0.6921	0.6757	-0.527
Mof_O 	O 	0.3005	0.70669	0.68945	-0.546
Mof_O 	O 	0.4989	0.75849	0.6482	-0.594
Mof_O 	O 	0.6883	0.4891	0.8044	-0.542
Mof_O 	O 	0.5714	0.5883	0.8163	-0.592
Mof_O 	O 	0.2147	0.502	0.1844	-0.538
Mof_O 	O 	0.0597	0.5889	0.1922	-0.573
Mof_O 	O 	0.9765	0.34	0.2329	-0.616
Mof_O 	O 	0.85	0.3079	0.3243	-0.527
Mof_O 	O 	0.3005	0.29331	0.31055	-0.546
Mof_O 	O 	0.4989	0.24151	0.3518	-0.594
Mof_O 	O 	0.6883	0.5109	0.1956	-0.542
Mof_O 	O 	0.5714	0.4117	0.1837	-0.592
_end
