data_functionalizedCrystal
_audit_creation_method	'EQeq! by Chris Wilmer'
_symmetry_space_group_name_H-M	'P1'
_symmetry_Int_Tables_number	1
_symmetry_cell_setting	triclinic
loop_
_symmetry_equiv_pos_as_xyz
  x,y,z
_cell_length_a	24.4031
_cell_length_b	17.1178
_cell_length_c	16.0742
_cell_angle_alpha	90
_cell_angle_beta	94.521
_cell_angle_gamma	90
loop_
_atom_site_label
_atom_site_type_symbol
_atom_site_fract_x
_atom_site_fract_y
_atom_site_fract_z
_atom_site_charge
Mof_Zn	Zn	0.43142	0.2848	0.8033	1.209
Mof_Zn	Zn	0.07741	0.30486	0.20304	1.21
Mof_Zn	Zn	0.74124	0.34069	0.46968	1.212
Mof_N 	N 	0.4448	0.3068	0.9264	-0.263
Mof_N 	N 	0.4833	0.3542	0.0418	-0.137
Mof_N 	N 	0.6278	0.3602	0.2693	-0.137
Mof_N 	N 	0.6881	0.3202	0.3724	-0.241
Mof_N 	N 	0.3636	0.3232	0.7381	-0.269
Mof_N 	N 	0.3068	0.3801	0.6445	-0.122
Mof_N 	N 	0.2001	0.389	0.3723	-0.124
Mof_N 	N 	0.144	0.3357	0.2763	-0.271
Mof_N 	N 	0.7803	0.2545	0.5342	-0.269
Mof_N 	N 	0.8459	0.1772	0.5825	-0.122
Mof_N 	N 	0.9227	0.9254	0.518	-0.124
Mof_N 	N 	0.9173	0.8436	0.4142	-0.268
Mof_O 	O 	0.43438	0.1701	0.7858	-0.451
Mof_O 	O 	0.36151	0.1639	0.8599	-0.327
Mof_O 	O 	0.53101	0.9332	0.715	-0.338
Mof_O 	O 	0.50317	0.8174	0.7538	-0.449
Mof_O 	O 	0.3467	0.802	0.9328	-0.329
Mof_O 	O 	0.29743	0.9075	0.9539	-0.453
Mof_O 	O 	0.00978	0.3438	0.2485	-0.456
Mof_O 	O 	0.04426	0.4613	0.2348	-0.32
Mof_O 	O 	0.8257	0.314	0.3599	-0.332
Mof_O 	O 	0.79587	0.4143	0.4302	-0.451
Mof_O 	O 	0.85554	0.6788	0.3519	-0.326
Mof_O 	O 	0.93464	0.6918	0.2934	-0.453
Mof_C 	C 	0.482	0.3538	0.9585	0.106
Mof_H 	H 	0.5049	0.3836	0.9277	-0.011
Mof_C 	C 	0.4197	0.2761	0.9925	-0.007
Mof_H 	H 	0.3906	0.2408	0.9887	0.032
Mof_C 	C 	0.4441	0.3053	0.0632	0.019
Mof_H 	H 	0.4353	0.2939	0.1172	0.022
Mof_C 	C 	0.5207	0.4024	0.0974	0.075
Mof_H 	H 	0.4993	0.4376	0.1293	0.026
Mof_H 	H 	0.544	0.4336	0.0643	0.016
Mof_C 	C 	0.5552	0.3517	0.1552	-0.341
Mof_H 	H 	0.5308	0.3212	0.1873	0.149
Mof_H 	H 	0.5744	0.3152	0.1216	0.144
Mof_C 	C 	0.5915	0.3846	0.2075	0.158
Mof_H 	H 	0.5703	0.4238	0.2344	0.015
Mof_H 	H 	0.6142	0.4137	0.1714	-0.008
Mof_C 	C 	0.6503	0.3769	0.3476	-1.783
Mof_H 	H 	0.6414	0.4198	0.3793	0.653
Mof_C 	C 	0.7046	0.2879	0.2967	-0.5
Mof_H 	H 	0.7366	0.2598	0.2902	0.223
Mof_C 	C 	0.6633	0.3064	0.2335	-0.289
Mof_H 	H 	0.66	0.2872	0.1792	0.162
Mof_C 	C 	0.311	0.3026	0.7508	0.011
Mof_H 	H 	0.3011	0.2692	0.7926	0.022
Mof_C 	C 	0.3588	0.3708	0.6753	0.108
Mof_H 	H 	0.3884	0.3959	0.6538	-0.016
Mof_C 	C 	0.2756	0.3375	0.6942	-0.011
Mof_H 	H 	0.2374	0.3333	0.69	0.055
Mof_C 	C 	0.2851	0.4296	0.5747	-0.023
Mof_H 	H 	0.3153	0.4568	0.5516	0.031
Mof_H 	H 	0.2606	0.4685	0.5952	0.052
Mof_C 	C 	0.2544	0.3818	0.5069	-0.149
Mof_H 	H 	0.2805	0.3521	0.4771	0.091
Mof_H 	H 	0.2303	0.3451	0.5321	0.092
Mof_C 	C 	0.2209	0.4332	0.4463	-0.031
Mof_H 	H 	0.1901	0.4549	0.4735	0.055
Mof_H 	H 	0.2434	0.4763	0.4295	0.058
Mof_C 	C 	0.2308	0.3624	0.3132	-0.006
Mof_H 	H 	0.2688	0.367	0.3126	0.051
Mof_C 	C 	0.1965	0.3275	0.2544	0.006
Mof_H 	H 	0.207	0.3023	0.207	0.02
Mof_C 	C 	0.1488	0.3744	0.3453	0.118
Mof_H 	H 	0.1188	0.3906	0.3732	-0.013
Mof_C 	C 	0.8257	0.2199	0.5196	0.104
Mof_H 	H 	0.8423	0.2249	0.4698	-0
Mof_C 	C 	0.7758	0.2391	0.6152	0.012
Mof_H 	H 	0.749	0.2596	0.6469	0.021
Mof_C 	C 	0.8157	0.1897	0.644	0
Mof_H 	H 	0.8207	0.1687	0.6974	0.049
Mof_C 	C 	0.8967	0.1304	0.5866	-0.036
Mof_H 	H 	0.9162	0.1359	0.6412	0.052
Mof_H 	H 	0.9204	0.1487	0.5451	0.044
Mof_C 	C 	0.8816	0.0413	0.57	-0.146
Mof_H 	H 	0.8627	0.0203	0.616	0.084
Mof_H 	H 	0.8576	0.0362	0.5192	0.084
Mof_C 	C 	0.9338	0.9989	0.5619	-0.022
Mof_H 	H 	0.9582	0.0307	0.5314	0.041
Mof_H 	H 	0.9516	0.9886	0.6169	0.047
Mof_C 	C 	0.9153	0.855	0.5508	-0.003
Mof_H 	H 	0.9125	0.8435	0.6069	0.036
Mof_C 	C 	0.9126	0.8037	0.4866	0.011
Mof_H 	H 	0.9082	0.7499	0.4911	0.023
Mof_C 	C 	0.9239	0.9148	0.4363	0.098
Mof_H 	H 	0.929	0.9551	0.399	-0.004
Mof_C 	C 	0.3987	0.1331	0.823	0.337
Mof_C 	C 	0.4035	0.0452	0.8234	-0.112
Mof_C 	C 	0.4449	0.0085	0.7858	0.048
Mof_H 	H 	0.4694	0.0384	0.7577	0.041
Mof_C 	C 	0.4512	0.9285	0.7883	-0.113
Mof_C 	C 	0.4989	0.8921	0.7493	0.334
Mof_C 	C 	0.4153	0.8845	0.8309	0.049
Mof_H 	H 	0.4192	0.8305	0.8331	0.036
Mof_C 	C 	0.373	0.9204	0.8709	-0.11
Mof_C 	C 	0.3369	0.8714	0.9223	0.338
Mof_C 	C 	0.3673	0.0007	0.8655	0.044
Mof_H 	H 	0.3387	0.025	0.8905	0.036
Mof_C 	C 	0.0076	0.4168	0.2542	0.341
Mof_C 	C 	0.9564	0.4508	0.2875	-0.111
Mof_C 	C 	0.9162	0.4036	0.315	0.046
Mof_H 	H 	0.9198	0.3496	0.312	0.042
Mof_C 	C 	0.8702	0.4356	0.3473	-0.113
Mof_C 	C 	0.8277	0.3829	0.3801	0.346
Mof_C 	C 	0.8649	0.5162	0.3499	0.05
Mof_H 	H 	0.8344	0.5379	0.3724	0.038
Mof_C 	C 	0.9037	0.565	0.3199	-0.111
Mof_C 	C 	0.9505	0.5315	0.2889	0.041
Mof_H 	H 	0.9775	0.5633	0.2693	0.046
Mof_C 	C 	0.8966	0.6518	0.3225	0.339
Mof_C 	C 	0.6796	0.3701	0.3077	1.989
Mof_H 	H 	0.7052	0.406	0.2914	-0.663
Mof_C 	C 	0.6393	0.2752	0.3809	0.194
Mof_H 	H 	0.6332	0.2389	0.4222	-0.04
Mof_C 	C 	0.6026	0.2979	0.3132	0.21
Mof_H 	H 	0.5681	0.2765	0.2993	-0.04
Mof_Zn	Zn	0.56858	0.7848	0.6967	1.208
Mof_Zn	Zn	0.92259	0.80486	0.29696	1.209
Mof_Zn	Zn	0.25876	0.84069	0.03032	1.21
Mof_N 	N 	0.5552	0.8068	0.5736	-0.264
Mof_N 	N 	0.5167	0.8542	0.4582	-0.139
Mof_N 	N 	0.3722	0.8602	0.2307	-0.138
Mof_N 	N 	0.3119	0.8202	0.1276	-0.242
Mof_N 	N 	0.6364	0.8232	0.7619	-0.27
Mof_N 	N 	0.6932	0.8801	0.8555	-0.121
Mof_N 	N 	0.7999	0.889	0.1277	-0.123
Mof_N 	N 	0.856	0.8357	0.2237	-0.271
Mof_N 	N 	0.2197	0.7545	0.9658	-0.269
Mof_N 	N 	0.1541	0.6772	0.9175	-0.123
Mof_N 	N 	0.0773	0.4254	0.982	-0.123
Mof_N 	N 	0.0827	0.3436	0.0858	-0.268
Mof_O 	O 	0.56562	0.6701	0.7142	-0.451
Mof_O 	O 	0.63849	0.6639	0.6401	-0.328
Mof_O 	O 	0.46899	0.4332	0.785	-0.338
Mof_O 	O 	0.49683	0.3174	0.7462	-0.449
Mof_O 	O 	0.6533	0.302	0.5672	-0.33
Mof_O 	O 	0.70257	0.4075	0.5461	-0.455
Mof_O 	O 	0.99022	0.8438	0.2515	-0.456
Mof_O 	O 	0.95574	0.9613	0.2652	-0.321
Mof_O 	O 	0.1743	0.814	0.1401	-0.332
Mof_O 	O 	0.20413	0.9143	0.0698	-0.452
Mof_O 	O 	0.14446	0.1788	0.1481	-0.326
Mof_O 	O 	0.06536	0.1918	0.2066	-0.454
Mof_C 	C 	0.518	0.8538	0.5415	0.107
Mof_H 	H 	0.4951	0.8836	0.5723	-0.011
Mof_C 	C 	0.5803	0.7761	0.5075	-0.005
Mof_H 	H 	0.6094	0.7408	0.5113	0.031
Mof_C 	C 	0.5559	0.8053	0.4368	0.017
Mof_H 	H 	0.5647	0.7939	0.3828	0.022
Mof_C 	C 	0.4793	0.9024	0.4026	0.076
Mof_H 	H 	0.5007	0.9376	0.3707	0.026
Mof_H 	H 	0.456	0.9336	0.4357	0.015
Mof_C 	C 	0.4448	0.8517	0.3448	-0.342
Mof_H 	H 	0.4692	0.8212	0.3127	0.149
Mof_H 	H 	0.4256	0.8152	0.3784	0.144
Mof_C 	C 	0.4085	0.8846	0.2925	0.16
Mof_H 	H 	0.4297	0.9238	0.2656	0.014
Mof_H 	H 	0.3858	0.9137	0.3286	-0.009
Mof_C 	C 	0.3497	0.8769	0.1524	-1.782
Mof_H 	H 	0.3586	0.9198	0.1207	0.652
Mof_C 	C 	0.2954	0.7879	0.2033	-0.5
Mof_H 	H 	0.2634	0.7598	0.2098	0.223
Mof_C 	C 	0.3367	0.8064	0.2665	-0.289
Mof_H 	H 	0.34	0.7872	0.3208	0.162
Mof_C 	C 	0.689	0.8026	0.7492	0.011
Mof_H 	H 	0.6989	0.7692	0.7074	0.022
Mof_C 	C 	0.6412	0.8708	0.8247	0.108
Mof_H 	H 	0.6116	0.8959	0.8462	-0.015
Mof_C 	C 	0.7244	0.8375	0.8058	-0.012
Mof_H 	H 	0.7626	0.8333	0.81	0.055
Mof_C 	C 	0.7149	0.9296	0.9253	-0.028
Mof_H 	H 	0.6847	0.9568	0.9484	0.033
Mof_H 	H 	0.7394	0.9685	0.9048	0.054
Mof_C 	C 	0.7456	0.8818	0.9931	-0.14
Mof_H 	H 	0.7195	0.8521	0.0229	0.088
Mof_H 	H 	0.7697	0.8451	0.9679	0.089
Mof_C 	C 	0.7791	0.9332	0.0537	-0.036
Mof_H 	H 	0.8099	0.9549	0.0265	0.056
Mof_H 	H 	0.7566	0.9763	0.0705	0.058
Mof_C 	C 	0.7692	0.8624	0.1868	-0.006
Mof_H 	H 	0.7312	0.867	0.1874	0.051
Mof_C 	C 	0.8035	0.8275	0.2456	0.006
Mof_H 	H 	0.793	0.8023	0.293	0.02
Mof_C 	C 	0.8512	0.8744	0.1547	0.118
Mof_H 	H 	0.8812	0.8906	0.1268	-0.013
Mof_C 	C 	0.1743	0.7199	0.9804	0.108
Mof_H 	H 	0.1577	0.7249	0.0302	-0.003
Mof_C 	C 	0.2242	0.7391	0.8848	0.012
Mof_H 	H 	0.251	0.7596	0.8531	0.022
Mof_C 	C 	0.1843	0.6897	0.856	0
Mof_H 	H 	0.1793	0.6687	0.8026	0.049
Mof_C 	C 	0.1033	0.6304	0.9134	-0.036
Mof_H 	H 	0.0838	0.6359	0.8588	0.052
Mof_H 	H 	0.0796	0.6487	0.9549	0.045
Mof_C 	C 	0.1184	0.5413	0.93	-0.146
Mof_H 	H 	0.1373	0.5203	0.884	0.084
Mof_H 	H 	0.1424	0.5362	0.9808	0.085
Mof_C 	C 	0.0662	0.4989	0.9381	-0.022
Mof_H 	H 	0.0418	0.5307	0.9686	0.041
Mof_H 	H 	0.0484	0.4886	0.8831	0.047
Mof_C 	C 	0.0847	0.355	0.9492	-0.003
Mof_H 	H 	0.0875	0.3435	0.8931	0.036
Mof_C 	C 	0.0874	0.3037	0.0134	0.011
Mof_H 	H 	0.0918	0.2499	0.0089	0.023
Mof_C 	C 	0.0761	0.4148	0.0637	0.097
Mof_H 	H 	0.071	0.4551	0.101	-0.004
Mof_C 	C 	0.6013	0.6331	0.677	0.339
Mof_C 	C 	0.5965	0.5452	0.6766	-0.116
Mof_C 	C 	0.5551	0.5085	0.7142	0.053
Mof_H 	H 	0.5306	0.5384	0.7423	0.039
Mof_C 	C 	0.5488	0.4285	0.7117	-0.118
Mof_C 	C 	0.5011	0.3921	0.7507	0.336
Mof_C 	C 	0.5847	0.3845	0.6691	0.053
Mof_H 	H 	0.5808	0.3305	0.6669	0.034
Mof_C 	C 	0.627	0.4204	0.6291	-0.116
Mof_C 	C 	0.6631	0.3714	0.5777	0.34
Mof_C 	C 	0.6327	0.5007	0.6345	0.05
Mof_H 	H 	0.6613	0.525	0.6095	0.035
Mof_C 	C 	0.9924	0.9168	0.2458	0.343
Mof_C 	C 	0.0436	0.9508	0.2125	-0.116
Mof_C 	C 	0.0838	0.9036	0.185	0.05
Mof_H 	H 	0.0802	0.8496	0.188	0.04
Mof_C 	C 	0.1298	0.9356	0.1527	-0.117
Mof_C 	C 	0.1723	0.8829	0.1199	0.348
Mof_C 	C 	0.1351	0.0162	0.1501	0.056
Mof_H 	H 	0.1656	0.0379	0.1276	0.037
Mof_C 	C 	0.0963	0.065	0.1801	-0.114
Mof_C 	C 	0.0495	0.0315	0.2111	0.046
Mof_H 	H 	0.0225	0.0633	0.2307	0.045
Mof_C 	C 	0.1034	0.1518	0.1775	0.34
Mof_C 	C 	0.3204	0.8701	0.1923	1.988
Mof_H 	H 	0.2948	0.906	0.2086	-0.663
Mof_C 	C 	0.3607	0.7752	0.1191	0.194
Mof_H 	H 	0.3668	0.7389	0.0778	-0.04
Mof_C 	C 	0.3974	0.7979	0.1868	0.209
Mof_H 	H 	0.4319	0.7765	0.2007	-0.04
Mof_Zn	Zn	0.56858	0.7152	0.1967	1.208
Mof_Zn	Zn	0.92259	0.69514	0.79696	1.209
Mof_Zn	Zn	0.25876	0.65931	0.53032	1.211
Mof_N 	N 	0.5552	0.6932	0.0736	-0.264
Mof_N 	N 	0.5167	0.6458	0.9582	-0.138
Mof_N 	N 	0.3722	0.6398	0.7307	-0.138
Mof_N 	N 	0.3119	0.6798	0.6276	-0.242
Mof_N 	N 	0.6364	0.6768	0.2619	-0.27
Mof_N 	N 	0.6932	0.6199	0.3555	-0.122
Mof_N 	N 	0.7999	0.611	0.6277	-0.124
Mof_N 	N 	0.856	0.6643	0.7237	-0.271
Mof_N 	N 	0.2197	0.7455	0.4658	-0.269
Mof_N 	N 	0.1541	0.8228	0.4175	-0.122
Mof_N 	N 	0.0773	0.0746	0.482	-0.124
Mof_N 	N 	0.0827	0.1564	0.5858	-0.268
Mof_O 	O 	0.56562	0.8299	0.2142	-0.451
Mof_O 	O 	0.63849	0.8361	0.1401	-0.327
Mof_O 	O 	0.46899	0.0668	0.285	-0.338
Mof_O 	O 	0.49683	0.1826	0.2462	-0.449
Mof_O 	O 	0.6533	0.198	0.0672	-0.329
Mof_O 	O 	0.70257	0.0925	0.0461	-0.453
Mof_O 	O 	0.99022	0.6562	0.7515	-0.456
Mof_O 	O 	0.95574	0.5387	0.7652	-0.32
Mof_O 	O 	0.1743	0.686	0.6401	-0.332
Mof_O 	O 	0.20413	0.5857	0.5698	-0.451
Mof_O 	O 	0.14446	0.3212	0.6481	-0.326
Mof_O 	O 	0.06536	0.3082	0.7066	-0.453
Mof_C 	C 	0.518	0.6462	0.0415	0.106
Mof_H 	H 	0.4951	0.6164	0.0723	-0.011
Mof_C 	C 	0.5803	0.7239	0.0075	-0.007
Mof_H 	H 	0.6094	0.7592	0.0113	0.032
Mof_C 	C 	0.5559	0.6947	0.9368	0.019
Mof_H 	H 	0.5647	0.7061	0.8828	0.022
Mof_C 	C 	0.4793	0.5976	0.9026	0.075
Mof_H 	H 	0.5007	0.5624	0.8707	0.026
Mof_H 	H 	0.456	0.5664	0.9357	0.016
Mof_C 	C 	0.4448	0.6483	0.8448	-0.341
Mof_H 	H 	0.4692	0.6788	0.8127	0.149
Mof_H 	H 	0.4256	0.6848	0.8784	0.144
Mof_C 	C 	0.4085	0.6154	0.7925	0.158
Mof_H 	H 	0.4297	0.5762	0.7656	0.015
Mof_H 	H 	0.3858	0.5863	0.8286	-0.008
Mof_C 	C 	0.3497	0.6231	0.6524	-1.783
Mof_H 	H 	0.3586	0.5802	0.6207	0.653
Mof_C 	C 	0.2954	0.7121	0.7033	-0.5
Mof_H 	H 	0.2634	0.7402	0.7098	0.223
Mof_C 	C 	0.3367	0.6936	0.7665	-0.289
Mof_H 	H 	0.34	0.7128	0.8208	0.162
Mof_C 	C 	0.689	0.6974	0.2492	0.011
Mof_H 	H 	0.6989	0.7308	0.2074	0.022
Mof_C 	C 	0.6412	0.6292	0.3247	0.108
Mof_H 	H 	0.6116	0.6041	0.3462	-0.016
Mof_C 	C 	0.7244	0.6625	0.3058	-0.011
Mof_H 	H 	0.7626	0.6667	0.31	0.055
Mof_C 	C 	0.7149	0.5704	0.4253	-0.023
Mof_H 	H 	0.6847	0.5432	0.4484	0.031
Mof_H 	H 	0.7394	0.5315	0.4048	0.052
Mof_C 	C 	0.7456	0.6182	0.4931	-0.149
Mof_H 	H 	0.7195	0.6479	0.5229	0.091
Mof_H 	H 	0.7697	0.6549	0.4679	0.092
Mof_C 	C 	0.7791	0.5668	0.5537	-0.031
Mof_H 	H 	0.8099	0.5451	0.5265	0.055
Mof_H 	H 	0.7566	0.5237	0.5705	0.058
Mof_C 	C 	0.7692	0.6376	0.6868	-0.006
Mof_H 	H 	0.7312	0.633	0.6874	0.051
Mof_C 	C 	0.8035	0.6725	0.7456	0.006
Mof_H 	H 	0.793	0.6977	0.793	0.02
Mof_C 	C 	0.8512	0.6256	0.6547	0.118
Mof_H 	H 	0.8812	0.6094	0.6268	-0.013
Mof_C 	C 	0.1743	0.7801	0.4804	0.104
Mof_H 	H 	0.1577	0.7751	0.5302	-0
Mof_C 	C 	0.2242	0.7609	0.3848	0.012
Mof_H 	H 	0.251	0.7404	0.3531	0.021
Mof_C 	C 	0.1843	0.8103	0.356	0
Mof_H 	H 	0.1793	0.8313	0.3026	0.049
Mof_C 	C 	0.1033	0.8696	0.4134	-0.036
Mof_H 	H 	0.0838	0.8641	0.3588	0.052
Mof_H 	H 	0.0796	0.8513	0.4549	0.044
Mof_C 	C 	0.1184	0.9587	0.43	-0.146
Mof_H 	H 	0.1373	0.9797	0.384	0.084
Mof_H 	H 	0.1424	0.9638	0.4808	0.084
Mof_C 	C 	0.0662	0.0011	0.4381	-0.022
Mof_H 	H 	0.0418	0.9693	0.4686	0.041
Mof_H 	H 	0.0484	0.0114	0.3831	0.047
Mof_C 	C 	0.0847	0.145	0.4492	-0.003
Mof_H 	H 	0.0875	0.1565	0.3931	0.036
Mof_C 	C 	0.0874	0.1963	0.5134	0.011
Mof_H 	H 	0.0918	0.2501	0.5089	0.023
Mof_C 	C 	0.0761	0.0852	0.5637	0.098
Mof_H 	H 	0.071	0.0449	0.601	-0.004
Mof_C 	C 	0.6013	0.8669	0.177	0.337
Mof_C 	C 	0.5965	0.9548	0.1766	-0.112
Mof_C 	C 	0.5551	0.9915	0.2142	0.048
Mof_H 	H 	0.5306	0.9616	0.2423	0.041
Mof_C 	C 	0.5488	0.0715	0.2117	-0.113
Mof_C 	C 	0.5011	0.1079	0.2507	0.334
Mof_C 	C 	0.5847	0.1155	0.1691	0.049
Mof_H 	H 	0.5808	0.1695	0.1669	0.036
Mof_C 	C 	0.627	0.0796	0.1291	-0.11
Mof_C 	C 	0.6631	0.1286	0.0777	0.338
Mof_C 	C 	0.6327	0.9993	0.1345	0.044
Mof_H 	H 	0.6613	0.975	0.1095	0.036
Mof_C 	C 	0.9924	0.5832	0.7458	0.341
Mof_C 	C 	0.0436	0.5492	0.7125	-0.111
Mof_C 	C 	0.0838	0.5964	0.685	0.046
Mof_H 	H 	0.0802	0.6504	0.688	0.042
Mof_C 	C 	0.1298	0.5644	0.6527	-0.113
Mof_C 	C 	0.1723	0.6171	0.6199	0.346
Mof_C 	C 	0.1351	0.4838	0.6501	0.05
Mof_H 	H 	0.1656	0.4621	0.6276	0.038
Mof_C 	C 	0.0963	0.435	0.6801	-0.111
Mof_C 	C 	0.0495	0.4685	0.7111	0.041
Mof_H 	H 	0.0225	0.4367	0.7307	0.046
Mof_C 	C 	0.1034	0.3482	0.6775	0.339
Mof_C 	C 	0.3204	0.6299	0.6923	1.989
Mof_H 	H 	0.2948	0.594	0.7086	-0.663
Mof_C 	C 	0.3607	0.7248	0.6191	0.194
Mof_H 	H 	0.3668	0.7611	0.5778	-0.04
Mof_C 	C 	0.3974	0.7021	0.6868	0.21
Mof_H 	H 	0.4319	0.7235	0.7007	-0.04
Mof_Zn	Zn	0.43142	0.2152	0.3033	1.208
Mof_Zn	Zn	0.07741	0.19514	0.70304	1.209
Mof_Zn	Zn	0.74124	0.15931	0.96968	1.21
Mof_N 	N 	0.4448	0.1932	0.4264	-0.264
Mof_N 	N 	0.4833	0.1458	0.5418	-0.139
Mof_N 	N 	0.6278	0.1398	0.7693	-0.138
Mof_N 	N 	0.6881	0.1798	0.8724	-0.242
Mof_N 	N 	0.3636	0.1768	0.2381	-0.27
Mof_N 	N 	0.3068	0.1199	0.1445	-0.121
Mof_N 	N 	0.2001	0.111	0.8723	-0.123
Mof_N 	N 	0.144	0.1643	0.7763	-0.271
Mof_N 	N 	0.7803	0.2455	0.0342	-0.269
Mof_N 	N 	0.8459	0.3228	0.0825	-0.123
Mof_N 	N 	0.9227	0.5746	0.018	-0.123
Mof_N 	N 	0.9173	0.6564	0.9142	-0.268
Mof_O 	O 	0.43438	0.3299	0.2858	-0.451
Mof_O 	O 	0.36151	0.3361	0.3599	-0.328
Mof_O 	O 	0.53101	0.5668	0.215	-0.338
Mof_O 	O 	0.50317	0.6826	0.2538	-0.449
Mof_O 	O 	0.3467	0.698	0.4328	-0.33
Mof_O 	O 	0.29743	0.5925	0.4539	-0.455
Mof_O 	O 	0.00978	0.1562	0.7485	-0.456
Mof_O 	O 	0.04426	0.0387	0.7348	-0.321
Mof_O 	O 	0.8257	0.186	0.8599	-0.332
Mof_O 	O 	0.79587	0.0857	0.9302	-0.452
Mof_O 	O 	0.85554	0.8212	0.8519	-0.326
Mof_O 	O 	0.93464	0.8082	0.7934	-0.454
Mof_C 	C 	0.482	0.1462	0.4585	0.107
Mof_H 	H 	0.5049	0.1164	0.4277	-0.011
Mof_C 	C 	0.4197	0.2239	0.4925	-0.005
Mof_H 	H 	0.3906	0.2592	0.4887	0.031
Mof_C 	C 	0.4441	0.1947	0.5632	0.017
Mof_H 	H 	0.4353	0.2061	0.6172	0.022
Mof_C 	C 	0.5207	0.0976	0.5974	0.076
Mof_H 	H 	0.4993	0.0624	0.6293	0.026
Mof_H 	H 	0.544	0.0664	0.5643	0.015
Mof_C 	C 	0.5552	0.1483	0.6552	-0.342
Mof_H 	H 	0.5308	0.1788	0.6873	0.149
Mof_H 	H 	0.5744	0.1848	0.6216	0.144
Mof_C 	C 	0.5915	0.1154	0.7075	0.16
Mof_H 	H 	0.5703	0.0762	0.7344	0.014
Mof_H 	H 	0.6142	0.0863	0.6714	-0.009
Mof_C 	C 	0.6503	0.1231	0.8476	-1.782
Mof_H 	H 	0.6414	0.0802	0.8793	0.652
Mof_C 	C 	0.7046	0.2121	0.7967	-0.5
Mof_H 	H 	0.7366	0.2402	0.7902	0.223
Mof_C 	C 	0.6633	0.1936	0.7335	-0.289
Mof_H 	H 	0.66	0.2128	0.6792	0.162
Mof_C 	C 	0.311	0.1974	0.2508	0.011
Mof_H 	H 	0.3011	0.2308	0.2926	0.022
Mof_C 	C 	0.3588	0.1292	0.1753	0.108
Mof_H 	H 	0.3884	0.1041	0.1538	-0.015
Mof_C 	C 	0.2756	0.1625	0.1942	-0.012
Mof_H 	H 	0.2374	0.1667	0.19	0.055
Mof_C 	C 	0.2851	0.0704	0.0747	-0.028
Mof_H 	H 	0.3153	0.0432	0.0516	0.033
Mof_H 	H 	0.2606	0.0315	0.0952	0.054
Mof_C 	C 	0.2544	0.1182	0.0069	-0.14
Mof_H 	H 	0.2805	0.1479	0.9771	0.088
Mof_H 	H 	0.2303	0.1549	0.0321	0.089
Mof_C 	C 	0.2209	0.0668	0.9463	-0.036
Mof_H 	H 	0.1901	0.0451	0.9735	0.056
Mof_H 	H 	0.2434	0.0237	0.9295	0.058
Mof_C 	C 	0.2308	0.1376	0.8132	-0.006
Mof_H 	H 	0.2688	0.133	0.8126	0.051
Mof_C 	C 	0.1965	0.1725	0.7544	0.006
Mof_H 	H 	0.207	0.1977	0.707	0.02
Mof_C 	C 	0.1488	0.1256	0.8453	0.118
Mof_H 	H 	0.1188	0.1094	0.8732	-0.013
Mof_C 	C 	0.8257	0.2801	0.0196	0.108
Mof_H 	H 	0.8423	0.2751	0.9698	-0.003
Mof_C 	C 	0.7758	0.2609	0.1152	0.012
Mof_H 	H 	0.749	0.2404	0.1469	0.022
Mof_C 	C 	0.8157	0.3103	0.144	0
Mof_H 	H 	0.8207	0.3313	0.1974	0.049
Mof_C 	C 	0.8967	0.3696	0.0866	-0.036
Mof_H 	H 	0.9162	0.3641	0.1412	0.052
Mof_H 	H 	0.9204	0.3513	0.0451	0.045
Mof_C 	C 	0.8816	0.4587	0.07	-0.146
Mof_H 	H 	0.8627	0.4797	0.116	0.084
Mof_H 	H 	0.8576	0.4638	0.0192	0.085
Mof_C 	C 	0.9338	0.5011	0.0619	-0.022
Mof_H 	H 	0.9582	0.4693	0.0314	0.041
Mof_H 	H 	0.9516	0.5114	0.1169	0.047
Mof_C 	C 	0.9153	0.645	0.0508	-0.003
Mof_H 	H 	0.9125	0.6565	0.1069	0.036
Mof_C 	C 	0.9126	0.6963	0.9866	0.011
Mof_H 	H 	0.9082	0.7501	0.9911	0.023
Mof_C 	C 	0.9239	0.5852	0.9363	0.097
Mof_H 	H 	0.929	0.5449	0.899	-0.004
Mof_C 	C 	0.3987	0.3669	0.323	0.339
Mof_C 	C 	0.4035	0.4548	0.3234	-0.116
Mof_C 	C 	0.4449	0.4915	0.2858	0.053
Mof_H 	H 	0.4694	0.4616	0.2577	0.039
Mof_C 	C 	0.4512	0.5715	0.2883	-0.118
Mof_C 	C 	0.4989	0.6079	0.2493	0.336
Mof_C 	C 	0.4153	0.6155	0.3309	0.053
Mof_H 	H 	0.4192	0.6695	0.3331	0.034
Mof_C 	C 	0.373	0.5796	0.3709	-0.116
Mof_C 	C 	0.3369	0.6286	0.4223	0.34
Mof_C 	C 	0.3673	0.4993	0.3655	0.05
Mof_H 	H 	0.3387	0.475	0.3905	0.035
Mof_C 	C 	0.0076	0.0832	0.7542	0.343
Mof_C 	C 	0.9564	0.0492	0.7875	-0.116
Mof_C 	C 	0.9162	0.0964	0.815	0.05
Mof_H 	H 	0.9198	0.1504	0.812	0.04
Mof_C 	C 	0.8702	0.0644	0.8473	-0.117
Mof_C 	C 	0.8277	0.1171	0.8801	0.348
Mof_C 	C 	0.8649	0.9838	0.8499	0.056
Mof_H 	H 	0.8344	0.9621	0.8724	0.037
Mof_C 	C 	0.9037	0.935	0.8199	-0.114
Mof_C 	C 	0.9505	0.9685	0.7889	0.046
Mof_H 	H 	0.9775	0.9367	0.7693	0.045
Mof_C 	C 	0.8966	0.8482	0.8225	0.34
Mof_C 	C 	0.6796	0.1299	0.8077	1.988
Mof_H 	H 	0.7052	0.094	0.7914	-0.663
Mof_C 	C 	0.6393	0.2248	0.8809	0.194
Mof_H 	H 	0.6332	0.2611	0.9222	-0.04
Mof_C 	C 	0.6026	0.2021	0.8132	0.209
Mof_H 	H 	0.5681	0.2235	0.7993	-0.04
_end
