data_functionalizedCrystal
_audit_creation_method	'EQeq! by Chris Wilmer'
_symmetry_space_group_name_H-M	'P1'
_symmetry_Int_Tables_number	1
_symmetry_cell_setting	triclinic
loop_
_symmetry_equiv_pos_as_xyz
  x,y,z
_cell_length_a	17.15
_cell_length_b	17.15
_cell_length_c	17.15
_cell_angle_alpha	90
_cell_angle_beta	90
_cell_angle_gamma	90
loop_
_atom_site_label
_atom_site_type_symbol
_atom_site_fract_x
_atom_site_fract_y
_atom_site_fract_z
_atom_site_charge
Mof_C 	C 	0.36668	0.89333	0.68072	-0.005
Mof_H 	H 	0.37465	0.85197	0.71756	0.011
Mof_H 	H 	0.455	0.07916	0.56967	0.025
Mof_H 	H 	0.3694	0.10306	0.54804	0.059
Mof_N 	N 	0.40824	0.96247	0.67749	-0.208
Mof_C 	C 	0.86264	0.39737	0.18476	-0.012
Mof_H 	H 	0.87062	0.356	0.2216	0.012
Mof_H 	H 	0.95096	0.57512	0.0737	0.069
Mof_H 	H 	0.86536	0.59903	0.05208	0.101
Mof_N 	N 	0.9042	0.46651	0.18152	-0.273
Mof_C 	C 	0.62525	0.0986	0.68072	-0.021
Mof_H 	H 	0.61728	0.13996	0.71756	0.006
Mof_H 	H 	0.53693	0.91278	0.56967	0.083
Mof_H 	H 	0.62254	0.88887	0.54804	0.161
Mof_N 	N 	0.58369	0.02946	0.67749	-0.373
Mof_C 	C 	0.12929	0.59456	0.18476	-0.03
Mof_H 	H 	0.12131	0.63593	0.2216	-0.008
Mof_H 	H 	0.04097	0.41681	0.0737	0.007
Mof_H 	H 	0.12657	0.3929	0.05208	0.046
Mof_N 	N 	0.08773	0.52543	0.18152	-0.322
Mof_C 	C 	0.62525	0.89333	0.31121	-0.003
Mof_H 	H 	0.61728	0.85197	0.27437	0.01
Mof_H 	H 	0.53693	0.07916	0.42227	0.026
Mof_H 	H 	0.62254	0.10306	0.44389	0.06
Mof_N 	N 	0.58369	0.96247	0.31444	-0.208
Mof_C 	C 	0.12929	0.39737	0.80717	-0.026
Mof_H 	H 	0.12131	0.356	0.77033	-0.006
Mof_H 	H 	0.04097	0.57512	0.91823	0.041
Mof_H 	H 	0.12657	0.59903	0.93985	0.132
Mof_N 	N 	0.08773	0.46651	0.81041	-0.328
Mof_C 	C 	0.36668	0.0986	0.31121	-0.027
Mof_H 	H 	0.37465	0.13996	0.27437	-0.001
Mof_H 	H 	0.455	0.91278	0.42227	0.083
Mof_H 	H 	0.3694	0.88887	0.44389	0.16
Mof_N 	N 	0.40824	0.02946	0.31444	-0.375
Mof_C 	C 	0.86264	0.59456	0.80717	-0.002
Mof_H 	H 	0.87062	0.63593	0.77033	0.026
Mof_H 	H 	0.95096	0.41681	0.91823	0.101
Mof_H 	H 	0.86536	0.3929	0.93985	0.175
Mof_N 	N 	0.9042	0.52543	0.81041	-0.278
Mof_C 	C 	0.68072	0.36668	0.89333	-0.004
Mof_H 	H 	0.71756	0.37465	0.85197	0.012
Mof_H 	H 	0.56967	0.455	0.07916	0.026
Mof_H 	H 	0.54804	0.3694	0.10306	0.06
Mof_N 	N 	0.67749	0.40824	0.96247	-0.207
Mof_C 	C 	0.18476	0.86264	0.39737	-0.011
Mof_H 	H 	0.2216	0.87062	0.356	0.013
Mof_H 	H 	0.0737	0.95096	0.57512	0.07
Mof_H 	H 	0.05208	0.86536	0.59903	0.102
Mof_N 	N 	0.18152	0.9042	0.46651	-0.273
Mof_C 	C 	0.68072	0.62525	0.0986	-0.021
Mof_H 	H 	0.71756	0.61728	0.13996	0.006
Mof_H 	H 	0.56967	0.53693	0.91278	0.083
Mof_H 	H 	0.54804	0.62254	0.88887	0.161
Mof_N 	N 	0.67749	0.58369	0.02946	-0.373
Mof_C 	C 	0.18476	0.12929	0.59456	-0.03
Mof_H 	H 	0.2216	0.12131	0.63593	-0.008
Mof_H 	H 	0.0737	0.04097	0.41681	0.007
Mof_H 	H 	0.05208	0.12657	0.3929	0.046
Mof_N 	N 	0.18152	0.08773	0.52543	-0.322
Mof_C 	C 	0.31121	0.62525	0.89333	-0.003
Mof_H 	H 	0.27437	0.61728	0.85197	0.01
Mof_H 	H 	0.42227	0.53693	0.07916	0.026
Mof_H 	H 	0.44389	0.62254	0.10306	0.06
Mof_N 	N 	0.31444	0.58369	0.96247	-0.208
Mof_C 	C 	0.80717	0.12929	0.39737	-0.026
Mof_H 	H 	0.77033	0.12131	0.356	-0.006
Mof_H 	H 	0.91823	0.04097	0.57512	0.041
Mof_H 	H 	0.93985	0.12657	0.59903	0.132
Mof_N 	N 	0.81041	0.08773	0.46651	-0.328
Mof_C 	C 	0.31121	0.36668	0.0986	-0.027
Mof_H 	H 	0.27437	0.37465	0.13996	-0.001
Mof_H 	H 	0.42227	0.455	0.91278	0.083
Mof_H 	H 	0.44389	0.3694	0.88887	0.16
Mof_N 	N 	0.31444	0.40824	0.02946	-0.375
Mof_C 	C 	0.80717	0.86264	0.59456	-0.002
Mof_H 	H 	0.77033	0.87062	0.63593	0.026
Mof_H 	H 	0.91823	0.95096	0.41681	0.101
Mof_H 	H 	0.93985	0.86536	0.3929	0.175
Mof_N 	N 	0.81041	0.9042	0.52543	-0.278
Mof_C 	C 	0.89333	0.68072	0.36668	-0.004
Mof_H 	H 	0.85197	0.71756	0.37465	0.012
Mof_H 	H 	0.07916	0.56967	0.455	0.026
Mof_H 	H 	0.10306	0.54804	0.3694	0.06
Mof_N 	N 	0.96247	0.67749	0.40824	-0.207
Mof_C 	C 	0.39737	0.18476	0.86264	-0.011
Mof_H 	H 	0.356	0.2216	0.87062	0.013
Mof_H 	H 	0.57512	0.0737	0.95096	0.07
Mof_H 	H 	0.59903	0.05208	0.86536	0.102
Mof_N 	N 	0.46651	0.18152	0.9042	-0.273
Mof_C 	C 	0.0986	0.68072	0.62525	-0.021
Mof_H 	H 	0.13996	0.71756	0.61728	0.006
Mof_H 	H 	0.91278	0.56967	0.53693	0.083
Mof_H 	H 	0.88887	0.54804	0.62254	0.161
Mof_N 	N 	0.02946	0.67749	0.58369	-0.373
Mof_C 	C 	0.59456	0.18476	0.12929	-0.03
Mof_H 	H 	0.63593	0.2216	0.12131	-0.008
Mof_H 	H 	0.41681	0.0737	0.04097	0.007
Mof_H 	H 	0.3929	0.05208	0.12657	0.046
Mof_N 	N 	0.52543	0.18152	0.08773	-0.322
Mof_C 	C 	0.89333	0.31121	0.62525	-0.003
Mof_H 	H 	0.85197	0.27437	0.61728	0.01
Mof_H 	H 	0.07916	0.42227	0.53693	0.026
Mof_H 	H 	0.10306	0.44389	0.62254	0.06
Mof_N 	N 	0.96247	0.31444	0.58369	-0.208
Mof_C 	C 	0.39737	0.80717	0.12929	-0.026
Mof_H 	H 	0.356	0.77033	0.12131	-0.006
Mof_H 	H 	0.57512	0.91823	0.04097	0.041
Mof_H 	H 	0.59903	0.93985	0.12657	0.132
Mof_N 	N 	0.46651	0.81041	0.08773	-0.328
Mof_C 	C 	0.0986	0.31121	0.36668	-0.027
Mof_H 	H 	0.13996	0.27437	0.37465	-0.001
Mof_H 	H 	0.91278	0.42227	0.455	0.083
Mof_H 	H 	0.88887	0.44389	0.3694	0.16
Mof_N 	N 	0.02946	0.31444	0.40824	-0.375
Mof_C 	C 	0.59456	0.80717	0.86264	-0.002
Mof_H 	H 	0.63593	0.77033	0.87062	0.026
Mof_H 	H 	0.41681	0.91823	0.95096	0.101
Mof_H 	H 	0.3929	0.93985	0.86536	0.175
Mof_N 	N 	0.52543	0.81041	0.9042	-0.278
Mof_C 	C 	0.89333	0.36668	0.68072	-0.004
Mof_H 	H 	0.85197	0.37465	0.71756	0.012
Mof_H 	H 	0.07916	0.455	0.56967	0.026
Mof_H 	H 	0.10306	0.3694	0.54804	0.06
Mof_N 	N 	0.96247	0.40824	0.67749	-0.207
Mof_C 	C 	0.39737	0.86264	0.18476	-0.011
Mof_H 	H 	0.356	0.87062	0.2216	0.013
Mof_H 	H 	0.57512	0.95096	0.0737	0.07
Mof_H 	H 	0.59903	0.86536	0.05208	0.102
Mof_N 	N 	0.46651	0.9042	0.18152	-0.273
Mof_C 	C 	0.0986	0.62525	0.68072	-0.021
Mof_H 	H 	0.13996	0.61728	0.71756	0.006
Mof_H 	H 	0.91278	0.53693	0.56967	0.083
Mof_H 	H 	0.88887	0.62254	0.54804	0.161
Mof_N 	N 	0.02946	0.58369	0.67749	-0.373
Mof_C 	C 	0.59456	0.12929	0.18476	-0.03
Mof_H 	H 	0.63593	0.12131	0.2216	-0.008
Mof_H 	H 	0.41681	0.04097	0.0737	0.007
Mof_H 	H 	0.3929	0.12657	0.05208	0.046
Mof_N 	N 	0.52543	0.08773	0.18152	-0.322
Mof_C 	C 	0.89333	0.62525	0.31121	-0.003
Mof_H 	H 	0.85197	0.61728	0.27437	0.01
Mof_H 	H 	0.07916	0.53693	0.42227	0.026
Mof_H 	H 	0.10306	0.62254	0.44389	0.06
Mof_N 	N 	0.96247	0.58369	0.31444	-0.208
Mof_C 	C 	0.39737	0.12929	0.80717	-0.026
Mof_H 	H 	0.356	0.12131	0.77033	-0.006
Mof_H 	H 	0.57512	0.04097	0.91823	0.041
Mof_H 	H 	0.59903	0.12657	0.93985	0.132
Mof_N 	N 	0.46651	0.08773	0.81041	-0.328
Mof_C 	C 	0.0986	0.36668	0.31121	-0.027
Mof_H 	H 	0.13996	0.37465	0.27437	-0.001
Mof_H 	H 	0.91278	0.455	0.42227	0.083
Mof_H 	H 	0.88887	0.3694	0.44389	0.16
Mof_N 	N 	0.02946	0.40824	0.31444	-0.375
Mof_C 	C 	0.59456	0.86264	0.80717	-0.002
Mof_H 	H 	0.63593	0.87062	0.77033	0.026
Mof_H 	H 	0.41681	0.95096	0.91823	0.101
Mof_H 	H 	0.3929	0.86536	0.93985	0.175
Mof_N 	N 	0.52543	0.9042	0.81041	-0.278
Mof_C 	C 	0.36668	0.68072	0.89333	-0.004
Mof_H 	H 	0.37465	0.71756	0.85197	0.012
Mof_H 	H 	0.455	0.56967	0.07916	0.026
Mof_H 	H 	0.3694	0.54804	0.10306	0.06
Mof_N 	N 	0.40824	0.67749	0.96247	-0.207
Mof_C 	C 	0.86264	0.18476	0.39737	-0.011
Mof_H 	H 	0.87062	0.2216	0.356	0.013
Mof_H 	H 	0.95096	0.0737	0.57512	0.07
Mof_H 	H 	0.86536	0.05208	0.59903	0.102
Mof_N 	N 	0.9042	0.18152	0.46651	-0.273
Mof_C 	C 	0.62525	0.68072	0.0986	-0.021
Mof_H 	H 	0.61728	0.71756	0.13996	0.006
Mof_H 	H 	0.53693	0.56967	0.91278	0.083
Mof_H 	H 	0.62254	0.54804	0.88887	0.161
Mof_N 	N 	0.58369	0.67749	0.02946	-0.373
Mof_C 	C 	0.12929	0.18476	0.59456	-0.03
Mof_H 	H 	0.12131	0.2216	0.63593	-0.008
Mof_H 	H 	0.04097	0.0737	0.41681	0.007
Mof_H 	H 	0.12657	0.05208	0.3929	0.046
Mof_N 	N 	0.08773	0.18152	0.52543	-0.322
Mof_C 	C 	0.62525	0.31121	0.89333	-0.003
Mof_H 	H 	0.61728	0.27437	0.85197	0.01
Mof_H 	H 	0.53693	0.42227	0.07916	0.026
Mof_H 	H 	0.62254	0.44389	0.10306	0.06
Mof_N 	N 	0.58369	0.31444	0.96247	-0.208
Mof_C 	C 	0.12929	0.80717	0.39737	-0.026
Mof_H 	H 	0.12131	0.77033	0.356	-0.006
Mof_H 	H 	0.04097	0.91823	0.57512	0.041
Mof_H 	H 	0.12657	0.93985	0.59903	0.132
Mof_N 	N 	0.08773	0.81041	0.46651	-0.328
Mof_C 	C 	0.36668	0.31121	0.0986	-0.027
Mof_H 	H 	0.37465	0.27437	0.13996	-0.001
Mof_H 	H 	0.455	0.42227	0.91278	0.083
Mof_H 	H 	0.3694	0.44389	0.88887	0.16
Mof_N 	N 	0.40824	0.31444	0.02946	-0.375
Mof_C 	C 	0.86264	0.80717	0.59456	-0.002
Mof_H 	H 	0.87062	0.77033	0.63593	0.026
Mof_H 	H 	0.95096	0.91823	0.41681	0.101
Mof_H 	H 	0.86536	0.93985	0.3929	0.175
Mof_N 	N 	0.9042	0.81041	0.52543	-0.278
Mof_C 	C 	0.68072	0.89333	0.36668	-0.004
Mof_H 	H 	0.71756	0.85197	0.37465	0.012
Mof_H 	H 	0.56967	0.07916	0.455	0.026
Mof_H 	H 	0.54804	0.10306	0.3694	0.06
Mof_N 	N 	0.67749	0.96247	0.40824	-0.207
Mof_C 	C 	0.18476	0.39737	0.86264	-0.011
Mof_H 	H 	0.2216	0.356	0.87062	0.013
Mof_H 	H 	0.0737	0.57512	0.95096	0.07
Mof_H 	H 	0.05208	0.59903	0.86536	0.102
Mof_N 	N 	0.18152	0.46651	0.9042	-0.273
Mof_C 	C 	0.68072	0.0986	0.62525	-0.021
Mof_H 	H 	0.71756	0.13996	0.61728	0.006
Mof_H 	H 	0.56967	0.91278	0.53693	0.083
Mof_H 	H 	0.54804	0.88887	0.62254	0.161
Mof_N 	N 	0.67749	0.02946	0.58369	-0.373
Mof_C 	C 	0.18476	0.59456	0.12929	-0.03
Mof_H 	H 	0.2216	0.63593	0.12131	-0.008
Mof_H 	H 	0.0737	0.41681	0.04097	0.007
Mof_H 	H 	0.05208	0.3929	0.12657	0.046
Mof_N 	N 	0.18152	0.52543	0.08773	-0.322
Mof_C 	C 	0.31121	0.89333	0.62525	-0.003
Mof_H 	H 	0.27437	0.85197	0.61728	0.01
Mof_H 	H 	0.42227	0.07916	0.53693	0.026
Mof_H 	H 	0.44389	0.10306	0.62254	0.06
Mof_N 	N 	0.31444	0.96247	0.58369	-0.208
Mof_C 	C 	0.80717	0.39737	0.12929	-0.026
Mof_H 	H 	0.77033	0.356	0.12131	-0.006
Mof_H 	H 	0.91823	0.57512	0.04097	0.041
Mof_H 	H 	0.93985	0.59903	0.12657	0.132
Mof_N 	N 	0.81041	0.46651	0.08773	-0.328
Mof_C 	C 	0.31121	0.0986	0.36668	-0.027
Mof_H 	H 	0.27437	0.13996	0.37465	-0.001
Mof_H 	H 	0.42227	0.91278	0.455	0.083
Mof_H 	H 	0.44389	0.88887	0.3694	0.16
Mof_N 	N 	0.31444	0.02946	0.40824	-0.375
Mof_C 	C 	0.80717	0.59456	0.86264	-0.002
Mof_H 	H 	0.77033	0.63593	0.87062	0.026
Mof_H 	H 	0.91823	0.41681	0.95096	0.101
Mof_H 	H 	0.93985	0.3929	0.86536	0.175
Mof_N 	N 	0.81041	0.52543	0.9042	-0.278
Mof_Zn	Zn	0.49597	1.00089e-32	0.74395	1.14
Mof_Zn	Zn	0.49597	0	0.24798	1.138
Mof_Zn	Zn	0.74395	0.49597	-0	1.14
Mof_Zn	Zn	0.24798	0.49597	-0	1.138
Mof_Zn	Zn	1.18685e-32	0.74395	0.49597	1.14
Mof_Zn	Zn	-8.14935e-33	0.24798	0.49597	1.138
Mof_Zn	Zn	1.27983e-32	0.49597	0.74395	1.14
Mof_Zn	Zn	-4.07469e-33	0.49597	0.24798	1.138
Mof_Zn	Zn	0.49597	0.74395	-0	1.14
Mof_Zn	Zn	0.49597	0.24798	-0	1.138
Mof_Zn	Zn	0.74395	0	0.49597	1.14
Mof_Zn	Zn	0.24798	0	0.49597	1.138
Mof_C 	C 	0.37356	0.00813	0.61837	-0.058
Mof_C 	C 	0.40124	0.0861	0.5907	-0.297
Mof_C 	C 	0.86953	0.5041	0.1224	0.188
Mof_C 	C 	0.8972	0.58207	0.09473	-0.47
Mof_C 	C 	0.61837	0.9838	0.61837	0.333
Mof_C 	C 	0.5907	0.90583	0.5907	-0.588
Mof_C 	C 	0.1224	0.48783	0.1224	0.131
Mof_C 	C 	0.09473	0.40987	0.09473	-0.348
Mof_C 	C 	0.61837	0.00813	0.37356	-0.058
Mof_C 	C 	0.5907	0.0861	0.40124	-0.297
Mof_C 	C 	0.1224	0.5041	0.86953	0.188
Mof_C 	C 	0.09473	0.58207	0.8972	-0.47
Mof_C 	C 	0.37356	0.9838	0.37356	0.329
Mof_C 	C 	0.40124	0.90583	0.40124	-0.59
Mof_C 	C 	0.86953	0.48783	0.86953	0.242
Mof_C 	C 	0.8972	0.40987	0.8972	-0.582
Mof_C 	C 	0.61837	0.37356	0.00813	-0.058
Mof_C 	C 	0.5907	0.40124	0.0861	-0.297
Mof_C 	C 	0.1224	0.86953	0.5041	0.188
Mof_C 	C 	0.09473	0.8972	0.58207	-0.47
Mof_C 	C 	0.61837	0.61837	0.9838	0.333
Mof_C 	C 	0.5907	0.5907	0.90583	-0.588
Mof_C 	C 	0.1224	0.1224	0.48783	0.131
Mof_C 	C 	0.09473	0.09473	0.40987	-0.348
Mof_C 	C 	0.37356	0.61837	0.00813	-0.058
Mof_C 	C 	0.40124	0.5907	0.0861	-0.297
Mof_C 	C 	0.86953	0.1224	0.5041	0.188
Mof_C 	C 	0.8972	0.09473	0.58207	-0.47
Mof_C 	C 	0.37356	0.37356	0.9838	0.329
Mof_C 	C 	0.40124	0.40124	0.90583	-0.59
Mof_C 	C 	0.86953	0.86953	0.48783	0.242
Mof_C 	C 	0.8972	0.8972	0.40987	-0.582
Mof_C 	C 	0.00813	0.61837	0.37356	-0.058
Mof_C 	C 	0.0861	0.5907	0.40124	-0.297
Mof_C 	C 	0.5041	0.1224	0.86953	0.188
Mof_C 	C 	0.58207	0.09473	0.8972	-0.47
Mof_C 	C 	0.9838	0.61837	0.61837	0.333
Mof_C 	C 	0.90583	0.5907	0.5907	-0.588
Mof_C 	C 	0.48783	0.1224	0.1224	0.131
Mof_C 	C 	0.40987	0.09473	0.09473	-0.348
Mof_C 	C 	0.00813	0.37356	0.61837	-0.058
Mof_C 	C 	0.0861	0.40124	0.5907	-0.297
Mof_C 	C 	0.5041	0.86953	0.1224	0.188
Mof_C 	C 	0.58207	0.8972	0.09473	-0.47
Mof_C 	C 	0.9838	0.37356	0.37356	0.329
Mof_C 	C 	0.90583	0.40124	0.40124	-0.59
Mof_C 	C 	0.48783	0.86953	0.86953	0.242
Mof_C 	C 	0.40987	0.8972	0.8972	-0.582
_end
