data_functionalizedCrystal
_audit_creation_method	'EQeq! by Chris Wilmer'
_symmetry_space_group_name_H-M	'P1'
_symmetry_Int_Tables_number	1
_symmetry_cell_setting	triclinic
loop_
_symmetry_equiv_pos_as_xyz
  x,y,z
_cell_length_a	13.8848
_cell_length_b	7.9026
_cell_length_c	13.8314
_cell_angle_alpha	90
_cell_angle_beta	108.21
_cell_angle_gamma	90
loop_
_atom_site_label
_atom_site_type_symbol
_atom_site_fract_x
_atom_site_fract_y
_atom_site_fract_z
_atom_site_charge
Mof_N 	N 	0.4366	0.177	0.4363	-0.299
Mof_N 	N 	0.656	0.9406	0.3018	-0.291
Mof_N 	N 	0.661	0.4149	0.403	-0.29
Mof_C 	C 	0.6334	0.2058	0.0401	-0.37
Mof_C 	C 	0.8075	0.0419	0.0614	-0.295
Mof_C 	C 	0.69	0.1316	0.8761	-0.243
Mof_N 	N 	0.9366	0.677	0.4363	-0.133
Mof_N 	N 	0.156	0.4406	0.3018	-0.263
Mof_N 	N 	0.161	0.9149	0.403	-0.266
Mof_C 	C 	0.1334	0.7058	0.0401	-0.386
Mof_C 	C 	0.3075	0.5419	0.0614	-0.35
Mof_C 	C 	0.19	0.6316	0.8761	-0.282
Mof_N 	N 	0.5634	0.177	0.0637	-0.313
Mof_N 	N 	0.344	0.9406	0.1982	-0.297
Mof_N 	N 	0.339	0.4149	0.097	-0.311
Mof_C 	C 	0.3666	0.2058	0.4599	-0.32
Mof_C 	C 	0.1925	0.0419	0.4386	-0.316
Mof_C 	C 	0.31	0.1316	0.6239	-0.329
Mof_N 	N 	0.0634	0.677	0.0637	-0.303
Mof_N 	N 	0.844	0.4406	0.1982	-0.176
Mof_N 	N 	0.839	0.9149	0.097	-0.192
Mof_C 	C 	0.8666	0.7058	0.4599	-0.239
Mof_C 	C 	0.6925	0.5419	0.4386	-0.278
Mof_C 	C 	0.81	0.6316	0.6239	-0.267
Mof_N 	N 	0.5634	0.823	0.5637	-0.307
Mof_N 	N 	0.344	0.0594	0.6982	-0.299
Mof_N 	N 	0.339	0.5851	0.597	-0.31
Mof_C 	C 	0.3666	0.7942	0.9599	-0.244
Mof_C 	C 	0.1925	0.9581	0.9386	-0.258
Mof_C 	C 	0.31	0.8684	0.1239	-0.369
Mof_N 	N 	0.0634	0.323	0.5637	-0.297
Mof_N 	N 	0.844	0.5594	0.6982	-0.184
Mof_N 	N 	0.839	0.0851	0.597	-0.182
Mof_C 	C 	0.8666	0.2942	0.9599	-0.159
Mof_C 	C 	0.6925	0.4581	0.9386	-0.201
Mof_C 	C 	0.81	0.3684	0.1239	-0.306
Mof_N 	N 	0.4366	0.823	0.9363	-0.298
Mof_N 	N 	0.656	0.0594	0.8018	-0.3
Mof_N 	N 	0.661	0.5851	0.903	-0.295
Mof_C 	C 	0.6334	0.7942	0.5401	-0.315
Mof_C 	C 	0.8075	0.9581	0.5614	-0.253
Mof_C 	C 	0.69	0.8684	0.3761	-0.309
Mof_N 	N 	0.9366	0.323	0.9363	-0.133
Mof_N 	N 	0.156	0.5594	0.8018	-0.277
Mof_N 	N 	0.161	0.0851	0.903	-0.259
Mof_C 	C 	0.1334	0.2942	0.5401	-0.331
Mof_C 	C 	0.3075	0.4581	0.5614	-0.297
Mof_C 	C 	0.19	0.3684	0.3761	-0.343
Mof_Rb	Rb	0.5	0.21132	0.25	2.62
Mof_Rb	Rb	1.22554e-33	0.71132	0.25	1.665
Mof_Rb	Rb	0.5	0.78868	0.75	2.754
Mof_Rb	Rb	-3.94293e-17	0.28868	0.75	1.829
Mof_Co	Co	0.75	0.25	-0	1.09
Mof_Co	Co	0.25	0.25	0.5	1.142
Mof_Co	Co	0.25	0.75	-0	1.09
Mof_Co	Co	0.75	0.75	0.5	1.145
_end
