data_functionalizedCrystal
_audit_creation_method	'EQeq! by Chris Wilmer'
_symmetry_space_group_name_H-M	'P1'
_symmetry_Int_Tables_number	1
_symmetry_cell_setting	triclinic
loop_
_symmetry_equiv_pos_as_xyz
  x,y,z
_cell_length_a	20.3864
_cell_length_b	20.3864
_cell_length_c	20.3864
_cell_angle_alpha	90
_cell_angle_beta	90
_cell_angle_gamma	90
loop_
_atom_site_label
_atom_site_type_symbol
_atom_site_fract_x
_atom_site_fract_y
_atom_site_fract_z
_atom_site_charge
Mof_O 	O 	0.1346	0.8123	0.2432	-0.456
Mof_O 	O 	0.0585	0.8839	0.2119	-0.341
Mof_N 	N 	0.9961	0.6509	0.0128	-0.255
Mof_H 	H 	0.9586	0.6635	0.9957	0.164
Mof_N 	N 	0.9883	0.5746	0.9325	-0.18
Mof_C 	C 	0.0868	0.83	0.2067	0.376
Mof_C 	C 	0.0645	0.7818	0.1566	-0.191
Mof_C 	C 	0.013	0.7968	0.115	0.13
Mof_H 	H 	0.9917	0.8381	0.1187	-0.011
Mof_C 	C 	0.9924	0.7531	0.0688	-0.235
Mof_H 	H 	0.9578	0.765	0.04	0.114
Mof_C 	C 	0.0208	0.6917	0.0631	0.213
Mof_C 	C 	0.0717	0.6754	0.1053	-0.226
Mof_H 	H 	0.092	0.6336	0.1022	0.12
Mof_C 	C 	0.0926	0.7197	0.1517	0.126
Mof_H 	H 	0.1269	0.7078	0.181	0.001
Mof_C 	C 	0.0218	0.5949	0.9869	0.195
Mof_O 	O 	0.3654	0.1877	0.7432	-0.456
Mof_O 	O 	0.4415	0.1161	0.7119	-0.341
Mof_N 	N 	0.5039	0.3491	0.5128	-0.255
Mof_H 	H 	0.5414	0.3365	0.4957	0.164
Mof_N 	N 	0.5117	0.4254	0.4325	-0.18
Mof_C 	C 	0.4132	0.17	0.7067	0.376
Mof_C 	C 	0.4355	0.2182	0.6566	-0.19
Mof_C 	C 	0.487	0.2032	0.615	0.128
Mof_H 	H 	0.5083	0.1619	0.6187	-0.011
Mof_C 	C 	0.5076	0.2469	0.5688	-0.233
Mof_H 	H 	0.5422	0.235	0.54	0.113
Mof_C 	C 	0.4792	0.3083	0.5631	0.212
Mof_C 	C 	0.4283	0.3246	0.6053	-0.225
Mof_H 	H 	0.408	0.3664	0.6022	0.119
Mof_C 	C 	0.4074	0.2803	0.6517	0.125
Mof_H 	H 	0.3731	0.2922	0.681	0.001
Mof_C 	C 	0.4782	0.4051	0.4869	0.195
Mof_O 	O 	0.8654	0.3123	0.2568	-0.456
Mof_O 	O 	0.9415	0.3839	0.2881	-0.341
Mof_N 	N 	0.0039	0.1509	0.4872	-0.254
Mof_H 	H 	0.0414	0.1635	0.5043	0.164
Mof_N 	N 	0.0117	0.0746	0.5675	-0.18
Mof_C 	C 	0.9132	0.33	0.2933	0.375
Mof_C 	C 	0.9355	0.2818	0.3434	-0.189
Mof_C 	C 	0.987	0.2968	0.385	0.126
Mof_H 	H 	0.0083	0.3381	0.3813	-0.01
Mof_C 	C 	0.0076	0.2531	0.4312	-0.231
Mof_H 	H 	0.0422	0.265	0.46	0.113
Mof_C 	C 	0.9792	0.1917	0.4369	0.211
Mof_C 	C 	0.9283	0.1754	0.3947	-0.224
Mof_H 	H 	0.908	0.1336	0.3978	0.119
Mof_C 	C 	0.9074	0.2197	0.3483	0.124
Mof_H 	H 	0.8731	0.2078	0.319	0.001
Mof_C 	C 	0.9782	0.0949	0.5131	0.195
Mof_O 	O 	0.6346	0.6877	0.7568	-0.456
Mof_O 	O 	0.5585	0.6161	0.7881	-0.341
Mof_N 	N 	0.4961	0.8491	0.9872	-0.255
Mof_H 	H 	0.4586	0.8365	0.0043	0.164
Mof_N 	N 	0.4883	0.9254	0.0675	-0.18
Mof_C 	C 	0.5868	0.67	0.7933	0.376
Mof_C 	C 	0.5645	0.7182	0.8434	-0.19
Mof_C 	C 	0.513	0.7032	0.885	0.128
Mof_H 	H 	0.4917	0.6619	0.8813	-0.011
Mof_C 	C 	0.4924	0.7469	0.9312	-0.233
Mof_H 	H 	0.4578	0.735	0.96	0.113
Mof_C 	C 	0.5208	0.8083	0.9369	0.212
Mof_C 	C 	0.5717	0.8246	0.8947	-0.225
Mof_H 	H 	0.592	0.8664	0.8978	0.119
Mof_C 	C 	0.5926	0.7803	0.8483	0.125
Mof_H 	H 	0.6269	0.7922	0.819	0.001
Mof_C 	C 	0.5218	0.9051	0.0131	0.195
Mof_O 	O 	0.2432	0.1346	0.8123	-0.456
Mof_O 	O 	0.2119	0.0585	0.8839	-0.341
Mof_N 	N 	0.0128	0.9961	0.6509	-0.255
Mof_H 	H 	0.9957	0.9586	0.6635	0.164
Mof_N 	N 	0.9325	0.9883	0.5746	-0.18
Mof_C 	C 	0.2067	0.0868	0.83	0.376
Mof_C 	C 	0.1566	0.0645	0.7818	-0.191
Mof_C 	C 	0.115	0.013	0.7968	0.13
Mof_H 	H 	0.1187	0.9917	0.8381	-0.011
Mof_C 	C 	0.0688	0.9924	0.7531	-0.235
Mof_H 	H 	0.04	0.9578	0.765	0.114
Mof_C 	C 	0.0631	0.0208	0.6917	0.213
Mof_C 	C 	0.1053	0.0717	0.6754	-0.226
Mof_H 	H 	0.1022	0.092	0.6336	0.12
Mof_C 	C 	0.1517	0.0926	0.7197	0.126
Mof_H 	H 	0.181	0.1269	0.7078	0.001
Mof_C 	C 	0.9869	0.0218	0.5949	0.195
Mof_O 	O 	0.7432	0.3654	0.1877	-0.456
Mof_O 	O 	0.7119	0.4415	0.1161	-0.341
Mof_N 	N 	0.5128	0.5039	0.3491	-0.255
Mof_H 	H 	0.4957	0.5414	0.3365	0.164
Mof_N 	N 	0.4325	0.5117	0.4254	-0.18
Mof_C 	C 	0.7067	0.4132	0.17	0.376
Mof_C 	C 	0.6566	0.4355	0.2182	-0.19
Mof_C 	C 	0.615	0.487	0.2032	0.128
Mof_H 	H 	0.6187	0.5083	0.1619	-0.011
Mof_C 	C 	0.5688	0.5076	0.2469	-0.233
Mof_H 	H 	0.54	0.5422	0.235	0.113
Mof_C 	C 	0.5631	0.4792	0.3083	0.212
Mof_C 	C 	0.6053	0.4283	0.3246	-0.225
Mof_H 	H 	0.6022	0.408	0.3664	0.119
Mof_C 	C 	0.6517	0.4074	0.2803	0.125
Mof_H 	H 	0.681	0.3731	0.2922	0.001
Mof_C 	C 	0.4869	0.4782	0.4051	0.195
Mof_O 	O 	0.2568	0.8654	0.3123	-0.456
Mof_O 	O 	0.2881	0.9415	0.3839	-0.341
Mof_N 	N 	0.4872	0.0039	0.1509	-0.254
Mof_H 	H 	0.5043	0.0414	0.1635	0.164
Mof_N 	N 	0.5675	0.0117	0.0746	-0.18
Mof_C 	C 	0.2933	0.9132	0.33	0.375
Mof_C 	C 	0.3434	0.9355	0.2818	-0.189
Mof_C 	C 	0.385	0.987	0.2968	0.126
Mof_H 	H 	0.3813	0.0083	0.3381	-0.01
Mof_C 	C 	0.4312	0.0076	0.2531	-0.231
Mof_H 	H 	0.46	0.0422	0.265	0.113
Mof_C 	C 	0.4369	0.9792	0.1917	0.211
Mof_C 	C 	0.3947	0.9283	0.1754	-0.224
Mof_H 	H 	0.3978	0.908	0.1336	0.119
Mof_C 	C 	0.3483	0.9074	0.2197	0.124
Mof_H 	H 	0.319	0.8731	0.2078	0.001
Mof_C 	C 	0.5131	0.9782	0.0949	0.195
Mof_O 	O 	0.7568	0.6346	0.6877	-0.456
Mof_O 	O 	0.7881	0.5585	0.6161	-0.341
Mof_N 	N 	0.9872	0.4961	0.8491	-0.255
Mof_H 	H 	0.0043	0.4586	0.8365	0.164
Mof_N 	N 	0.0675	0.4883	0.9254	-0.18
Mof_C 	C 	0.7933	0.5868	0.67	0.376
Mof_C 	C 	0.8434	0.5645	0.7182	-0.19
Mof_C 	C 	0.885	0.513	0.7032	0.128
Mof_H 	H 	0.8813	0.4917	0.6619	-0.011
Mof_C 	C 	0.9312	0.4924	0.7469	-0.233
Mof_H 	H 	0.96	0.4578	0.735	0.113
Mof_C 	C 	0.9369	0.5208	0.8083	0.212
Mof_C 	C 	0.8947	0.5717	0.8246	-0.225
Mof_H 	H 	0.8978	0.592	0.8664	0.119
Mof_C 	C 	0.8483	0.5926	0.7803	0.125
Mof_H 	H 	0.819	0.6269	0.7922	0.001
Mof_C 	C 	0.0131	0.5218	0.9051	0.195
Mof_O 	O 	0.8123	0.2432	0.1346	-0.456
Mof_O 	O 	0.8839	0.2119	0.0585	-0.341
Mof_N 	N 	0.6509	0.0128	0.9961	-0.255
Mof_H 	H 	0.6635	0.9957	0.9586	0.164
Mof_N 	N 	0.5746	0.9325	0.9883	-0.18
Mof_C 	C 	0.83	0.2067	0.0868	0.376
Mof_C 	C 	0.7818	0.1566	0.0645	-0.191
Mof_C 	C 	0.7968	0.115	0.013	0.13
Mof_H 	H 	0.8381	0.1187	0.9917	-0.011
Mof_C 	C 	0.7531	0.0688	0.9924	-0.235
Mof_H 	H 	0.765	0.04	0.9578	0.114
Mof_C 	C 	0.6917	0.0631	0.0208	0.213
Mof_C 	C 	0.6754	0.1053	0.0717	-0.226
Mof_H 	H 	0.6336	0.1022	0.092	0.12
Mof_C 	C 	0.7197	0.1517	0.0926	0.126
Mof_H 	H 	0.7078	0.181	0.1269	0.001
Mof_C 	C 	0.5949	0.9869	0.0218	0.195
Mof_O 	O 	0.1877	0.7432	0.3654	-0.456
Mof_O 	O 	0.1161	0.7119	0.4415	-0.341
Mof_N 	N 	0.3491	0.5128	0.5039	-0.255
Mof_H 	H 	0.3365	0.4957	0.5414	0.164
Mof_N 	N 	0.4254	0.4325	0.5117	-0.18
Mof_C 	C 	0.17	0.7067	0.4132	0.376
Mof_C 	C 	0.2182	0.6566	0.4355	-0.19
Mof_C 	C 	0.2032	0.615	0.487	0.128
Mof_H 	H 	0.1619	0.6187	0.5083	-0.011
Mof_C 	C 	0.2469	0.5688	0.5076	-0.233
Mof_H 	H 	0.235	0.54	0.5422	0.113
Mof_C 	C 	0.3083	0.5631	0.4792	0.212
Mof_C 	C 	0.3246	0.6053	0.4283	-0.225
Mof_H 	H 	0.3664	0.6022	0.408	0.119
Mof_C 	C 	0.2803	0.6517	0.4074	0.125
Mof_H 	H 	0.2922	0.681	0.3731	0.001
Mof_C 	C 	0.4051	0.4869	0.4782	0.195
Mof_O 	O 	0.3123	0.2568	0.8654	-0.456
Mof_O 	O 	0.3839	0.2881	0.9415	-0.341
Mof_N 	N 	0.1509	0.4872	0.0039	-0.254
Mof_H 	H 	0.1635	0.5043	0.0414	0.164
Mof_N 	N 	0.0746	0.5675	0.0117	-0.18
Mof_C 	C 	0.33	0.2933	0.9132	0.375
Mof_C 	C 	0.2818	0.3434	0.9355	-0.189
Mof_C 	C 	0.2968	0.385	0.987	0.126
Mof_H 	H 	0.3381	0.3813	0.0083	-0.01
Mof_C 	C 	0.2531	0.4312	0.0076	-0.231
Mof_H 	H 	0.265	0.46	0.0422	0.113
Mof_C 	C 	0.1917	0.4369	0.9792	0.211
Mof_C 	C 	0.1754	0.3947	0.9283	-0.224
Mof_H 	H 	0.1336	0.3978	0.908	0.119
Mof_C 	C 	0.2197	0.3483	0.9074	0.124
Mof_H 	H 	0.2078	0.319	0.8731	0.001
Mof_C 	C 	0.0949	0.5131	0.9782	0.195
Mof_O 	O 	0.6877	0.7568	0.6346	-0.456
Mof_O 	O 	0.6161	0.7881	0.5585	-0.341
Mof_N 	N 	0.8491	0.9872	0.4961	-0.255
Mof_H 	H 	0.8365	0.0043	0.4586	0.164
Mof_N 	N 	0.9254	0.0675	0.4883	-0.18
Mof_C 	C 	0.67	0.7933	0.5868	0.376
Mof_C 	C 	0.7182	0.8434	0.5645	-0.19
Mof_C 	C 	0.7032	0.885	0.513	0.128
Mof_H 	H 	0.6619	0.8813	0.4917	-0.011
Mof_C 	C 	0.7469	0.9312	0.4924	-0.233
Mof_H 	H 	0.735	0.96	0.4578	0.113
Mof_C 	C 	0.8083	0.9369	0.5208	0.212
Mof_C 	C 	0.8246	0.8947	0.5717	-0.225
Mof_H 	H 	0.8664	0.8978	0.592	0.119
Mof_C 	C 	0.7803	0.8483	0.5926	0.125
Mof_H 	H 	0.7922	0.819	0.6269	0.001
Mof_C 	C 	0.9051	0.0131	0.5218	0.195
Mof_Er	Er	0.15499	0.84501	0.34501	1.373
Mof_Er	Er	0.34501	0.15499	0.84501	1.373
Mof_Er	Er	0.84501	0.34501	0.15499	1.373
Mof_Er	Er	0.65499	0.65499	0.65499	1.373
Mof_O 	O 	0.2377	0.619	0.1805	-0.508
Mof_O 	O 	0.2117	0.5356	0.1153	-0.338
Mof_N 	N 	0.0092	0.49	0.3504	-0.258
Mof_H 	H 	0.9913	0.4522	0.3398	0.158
Mof_N 	N 	0.0118	0.5711	0.4307	-0.183
Mof_C 	C 	0.2042	0.5683	0.1666	0.412
Mof_C 	C 	0.1546	0.5486	0.2164	-0.2
Mof_C 	C 	0.1492	0.5803	0.2754	0.131
Mof_H 	H 	0.1781	0.6156	0.2851	-0.002
Mof_C 	C 	0.1021	0.5621	0.3216	-0.22
Mof_H 	H 	0.0995	0.5847	0.3623	0.12
Mof_C 	C 	0.0586	0.5105	0.3083	0.21
Mof_C 	C 	0.0649	0.4789	0.2483	-0.229
Mof_H 	H 	0.036	0.4437	0.2384	0.102
Mof_C 	C 	0.1108	0.4965	0.203	0.125
Mof_H 	H 	0.1134	0.4738	0.1625	-0.012
Mof_C 	C 	0.9839	0.5178	0.4048	0.204
Mof_O 	O 	0.2623	0.381	0.6805	-0.508
Mof_O 	O 	0.2883	0.4644	0.6153	-0.338
Mof_N 	N 	0.4908	0.51	0.8504	-0.258
Mof_H 	H 	0.5087	0.5478	0.8398	0.158
Mof_N 	N 	0.4882	0.4289	0.9307	-0.183
Mof_C 	C 	0.2958	0.4317	0.6666	0.412
Mof_C 	C 	0.3454	0.4514	0.7164	-0.2
Mof_C 	C 	0.3508	0.4197	0.7754	0.131
Mof_H 	H 	0.3219	0.3844	0.7851	-0.002
Mof_C 	C 	0.3979	0.4379	0.8216	-0.221
Mof_H 	H 	0.4005	0.4153	0.8623	0.12
Mof_C 	C 	0.4414	0.4895	0.8083	0.21
Mof_C 	C 	0.4351	0.5211	0.7483	-0.229
Mof_H 	H 	0.464	0.5563	0.7384	0.102
Mof_C 	C 	0.3892	0.5035	0.703	0.125
Mof_H 	H 	0.3866	0.5262	0.6625	-0.012
Mof_C 	C 	0.5161	0.4822	0.9048	0.204
Mof_O 	O 	0.7623	0.119	0.3195	-0.508
Mof_O 	O 	0.7883	0.0356	0.3847	-0.338
Mof_N 	N 	0.9908	0.99	0.1496	-0.259
Mof_H 	H 	0.0087	0.9522	0.1602	0.159
Mof_N 	N 	0.9882	0.0711	0.0693	-0.184
Mof_C 	C 	0.7958	0.0683	0.3334	0.412
Mof_C 	C 	0.8454	0.0486	0.2836	-0.2
Mof_C 	C 	0.8508	0.0803	0.2246	0.131
Mof_H 	H 	0.8219	0.1156	0.2149	-0.002
Mof_C 	C 	0.8979	0.0621	0.1784	-0.221
Mof_H 	H 	0.9005	0.0847	0.1377	0.121
Mof_C 	C 	0.9414	0.0105	0.1917	0.211
Mof_C 	C 	0.9351	0.9789	0.2517	-0.229
Mof_H 	H 	0.964	0.9437	0.2616	0.102
Mof_C 	C 	0.8892	0.9965	0.297	0.125
Mof_H 	H 	0.8866	0.9738	0.3375	-0.012
Mof_C 	C 	0.0161	0.0178	0.0952	0.206
Mof_O 	O 	0.7377	0.881	0.8195	-0.508
Mof_O 	O 	0.7117	0.9644	0.8847	-0.338
Mof_N 	N 	0.5092	0.01	0.6496	-0.258
Mof_H 	H 	0.4913	0.0478	0.6602	0.158
Mof_N 	N 	0.5118	0.9289	0.5693	-0.183
Mof_C 	C 	0.7042	0.9317	0.8334	0.412
Mof_C 	C 	0.6546	0.9514	0.7836	-0.2
Mof_C 	C 	0.6492	0.9197	0.7246	0.13
Mof_H 	H 	0.6781	0.8844	0.7149	-0.002
Mof_C 	C 	0.6021	0.9379	0.6784	-0.22
Mof_H 	H 	0.5995	0.9153	0.6377	0.12
Mof_C 	C 	0.5586	0.9895	0.6917	0.21
Mof_C 	C 	0.5649	0.0211	0.7517	-0.229
Mof_H 	H 	0.536	0.0563	0.7616	0.102
Mof_C 	C 	0.6108	0.0035	0.797	0.125
Mof_H 	H 	0.6134	0.0262	0.8375	-0.012
Mof_C 	C 	0.4839	0.9822	0.5952	0.204
Mof_O 	O 	0.1805	0.2377	0.619	-0.508
Mof_O 	O 	0.1153	0.2117	0.5356	-0.338
Mof_N 	N 	0.3504	0.0092	0.49	-0.258
Mof_H 	H 	0.3398	0.9913	0.4522	0.158
Mof_N 	N 	0.4307	0.0118	0.5711	-0.183
Mof_C 	C 	0.1666	0.2042	0.5683	0.412
Mof_C 	C 	0.2164	0.1546	0.5486	-0.2
Mof_C 	C 	0.2754	0.1492	0.5803	0.131
Mof_H 	H 	0.2851	0.1781	0.6156	-0.002
Mof_C 	C 	0.3216	0.1021	0.5621	-0.22
Mof_H 	H 	0.3623	0.0995	0.5847	0.12
Mof_C 	C 	0.3083	0.0586	0.5105	0.21
Mof_C 	C 	0.2483	0.0649	0.4789	-0.229
Mof_H 	H 	0.2384	0.036	0.4437	0.102
Mof_C 	C 	0.203	0.1108	0.4965	0.125
Mof_H 	H 	0.1625	0.1134	0.4738	-0.012
Mof_C 	C 	0.4048	0.9839	0.5178	0.204
Mof_O 	O 	0.6805	0.2623	0.381	-0.508
Mof_O 	O 	0.6153	0.2883	0.4644	-0.338
Mof_N 	N 	0.8504	0.4908	0.51	-0.258
Mof_H 	H 	0.8398	0.5087	0.5478	0.158
Mof_N 	N 	0.9307	0.4882	0.4289	-0.183
Mof_C 	C 	0.6666	0.2958	0.4317	0.412
Mof_C 	C 	0.7164	0.3454	0.4514	-0.2
Mof_C 	C 	0.7754	0.3508	0.4197	0.131
Mof_H 	H 	0.7851	0.3219	0.3844	-0.002
Mof_C 	C 	0.8216	0.3979	0.4379	-0.221
Mof_H 	H 	0.8623	0.4005	0.4153	0.12
Mof_C 	C 	0.8083	0.4414	0.4895	0.21
Mof_C 	C 	0.7483	0.4351	0.5211	-0.229
Mof_H 	H 	0.7384	0.464	0.5563	0.102
Mof_C 	C 	0.703	0.3892	0.5035	0.125
Mof_H 	H 	0.6625	0.3866	0.5262	-0.012
Mof_C 	C 	0.9048	0.5161	0.4822	0.204
Mof_O 	O 	0.3195	0.7623	0.119	-0.508
Mof_O 	O 	0.3847	0.7883	0.0356	-0.338
Mof_N 	N 	0.1496	0.9908	0.99	-0.259
Mof_H 	H 	0.1602	0.0087	0.9522	0.159
Mof_N 	N 	0.0693	0.9882	0.0711	-0.184
Mof_C 	C 	0.3334	0.7958	0.0683	0.412
Mof_C 	C 	0.2836	0.8454	0.0486	-0.2
Mof_C 	C 	0.2246	0.8508	0.0803	0.131
Mof_H 	H 	0.2149	0.8219	0.1156	-0.002
Mof_C 	C 	0.1784	0.8979	0.0621	-0.221
Mof_H 	H 	0.1377	0.9005	0.0847	0.121
Mof_C 	C 	0.1917	0.9414	0.0105	0.211
Mof_C 	C 	0.2517	0.9351	0.9789	-0.229
Mof_H 	H 	0.2616	0.964	0.9437	0.102
Mof_C 	C 	0.297	0.8892	0.9965	0.125
Mof_H 	H 	0.3375	0.8866	0.9738	-0.012
Mof_C 	C 	0.0952	0.0161	0.0178	0.206
Mof_O 	O 	0.8195	0.7377	0.881	-0.508
Mof_O 	O 	0.8847	0.7117	0.9644	-0.338
Mof_N 	N 	0.6496	0.5092	0.01	-0.258
Mof_H 	H 	0.6602	0.4913	0.0478	0.158
Mof_N 	N 	0.5693	0.5118	0.9289	-0.183
Mof_C 	C 	0.8334	0.7042	0.9317	0.412
Mof_C 	C 	0.7836	0.6546	0.9514	-0.2
Mof_C 	C 	0.7246	0.6492	0.9197	0.13
Mof_H 	H 	0.7149	0.6781	0.8844	-0.002
Mof_C 	C 	0.6784	0.6021	0.9379	-0.22
Mof_H 	H 	0.6377	0.5995	0.9153	0.12
Mof_C 	C 	0.6917	0.5586	0.9895	0.21
Mof_C 	C 	0.7517	0.5649	0.0211	-0.229
Mof_H 	H 	0.7616	0.536	0.0563	0.102
Mof_C 	C 	0.797	0.6108	0.0035	0.125
Mof_H 	H 	0.8375	0.6134	0.0262	-0.012
Mof_C 	C 	0.5952	0.4839	0.9822	0.204
Mof_O 	O 	0.619	0.1805	0.2377	-0.508
Mof_O 	O 	0.5356	0.1153	0.2117	-0.338
Mof_N 	N 	0.49	0.3504	0.0092	-0.258
Mof_H 	H 	0.4522	0.3398	0.9913	0.158
Mof_N 	N 	0.5711	0.4307	0.0118	-0.183
Mof_C 	C 	0.5683	0.1666	0.2042	0.412
Mof_C 	C 	0.5486	0.2164	0.1546	-0.2
Mof_C 	C 	0.5803	0.2754	0.1492	0.131
Mof_H 	H 	0.6156	0.2851	0.1781	-0.002
Mof_C 	C 	0.5621	0.3216	0.1021	-0.22
Mof_H 	H 	0.5847	0.3623	0.0995	0.12
Mof_C 	C 	0.5105	0.3083	0.0586	0.21
Mof_C 	C 	0.4789	0.2483	0.0649	-0.229
Mof_H 	H 	0.4437	0.2384	0.036	0.102
Mof_C 	C 	0.4965	0.203	0.1108	0.125
Mof_H 	H 	0.4738	0.1625	0.1134	-0.012
Mof_C 	C 	0.5178	0.4048	0.9839	0.204
Mof_O 	O 	0.381	0.6805	0.2623	-0.508
Mof_O 	O 	0.4644	0.6153	0.2883	-0.338
Mof_N 	N 	0.51	0.8504	0.4908	-0.258
Mof_H 	H 	0.5478	0.8398	0.5087	0.158
Mof_N 	N 	0.4289	0.9307	0.4882	-0.183
Mof_C 	C 	0.4317	0.6666	0.2958	0.412
Mof_C 	C 	0.4514	0.7164	0.3454	-0.2
Mof_C 	C 	0.4197	0.7754	0.3508	0.131
Mof_H 	H 	0.3844	0.7851	0.3219	-0.002
Mof_C 	C 	0.4379	0.8216	0.3979	-0.221
Mof_H 	H 	0.4153	0.8623	0.4005	0.12
Mof_C 	C 	0.4895	0.8083	0.4414	0.21
Mof_C 	C 	0.5211	0.7483	0.4351	-0.229
Mof_H 	H 	0.5563	0.7384	0.464	0.102
Mof_C 	C 	0.5035	0.703	0.3892	0.125
Mof_H 	H 	0.5262	0.6625	0.3866	-0.012
Mof_C 	C 	0.4822	0.9048	0.5161	0.204
Mof_O 	O 	0.119	0.3195	0.7623	-0.508
Mof_O 	O 	0.0356	0.3847	0.7883	-0.338
Mof_N 	N 	0.99	0.1496	0.9908	-0.259
Mof_H 	H 	0.9522	0.1602	0.0087	0.159
Mof_N 	N 	0.0711	0.0693	0.9882	-0.184
Mof_C 	C 	0.0683	0.3334	0.7958	0.412
Mof_C 	C 	0.0486	0.2836	0.8454	-0.2
Mof_C 	C 	0.0803	0.2246	0.8508	0.131
Mof_H 	H 	0.1156	0.2149	0.8219	-0.002
Mof_C 	C 	0.0621	0.1784	0.8979	-0.221
Mof_H 	H 	0.0847	0.1377	0.9005	0.121
Mof_C 	C 	0.0105	0.1917	0.9414	0.211
Mof_C 	C 	0.9789	0.2517	0.9351	-0.229
Mof_H 	H 	0.9437	0.2616	0.964	0.102
Mof_C 	C 	0.9965	0.297	0.8892	0.125
Mof_H 	H 	0.9738	0.3375	0.8866	-0.012
Mof_C 	C 	0.0178	0.0952	0.0161	0.206
Mof_O 	O 	0.881	0.8195	0.7377	-0.508
Mof_O 	O 	0.9644	0.8847	0.7117	-0.338
Mof_N 	N 	0.01	0.6496	0.5092	-0.258
Mof_H 	H 	0.0478	0.6602	0.4913	0.158
Mof_N 	N 	0.9289	0.5693	0.5118	-0.183
Mof_C 	C 	0.9317	0.8334	0.7042	0.412
Mof_C 	C 	0.9514	0.7836	0.6546	-0.2
Mof_C 	C 	0.9197	0.7246	0.6492	0.13
Mof_H 	H 	0.8844	0.7149	0.6781	-0.002
Mof_C 	C 	0.9379	0.6784	0.6021	-0.22
Mof_H 	H 	0.9153	0.6377	0.5995	0.12
Mof_C 	C 	0.9895	0.6917	0.5586	0.21
Mof_C 	C 	0.0211	0.7517	0.5649	-0.229
Mof_H 	H 	0.0563	0.7616	0.536	0.102
Mof_C 	C 	0.0035	0.797	0.6108	0.125
Mof_H 	H 	0.0262	0.8375	0.6134	-0.012
Mof_C 	C 	0.9822	0.5952	0.4839	0.204
Mof_Er	Er	0.33326	0.66674	0.16674	1.463
Mof_Er	Er	0.16674	0.33326	0.66674	1.463
Mof_Er	Er	0.66674	0.16674	0.33326	1.463
Mof_Er	Er	0.83326	0.83326	0.83326	1.462
_end
