data_functionalizedCrystal
_audit_creation_method	'EQeq! by Chris Wilmer'
_symmetry_space_group_name_H-M	'P1'
_symmetry_Int_Tables_number	1
_symmetry_cell_setting	triclinic
loop_
_symmetry_equiv_pos_as_xyz
  x,y,z
_cell_length_a	25.847
_cell_length_b	16.9043
_cell_length_c	13.2251
_cell_angle_alpha	90
_cell_angle_beta	105.9
_cell_angle_gamma	90
loop_
_atom_site_label
_atom_site_type_symbol
_atom_site_fract_x
_atom_site_fract_y
_atom_site_fract_z
_atom_site_charge
Mof_O 	O 	0.896	0.6035	0.1439	-0.042
Mof_C 	C 	0.06735	0.9563	0.4504	0.364
Mof_C 	C 	0.02018	0.9007	0.4202	-0.074
Mof_C 	C 	0.02475	0.8243	0.4612	-0.037
Mof_H 	H 	0.0563	0.8079	0.5095	0.088
Mof_C 	C 	0.98195	0.7734	0.4293	0.081
Mof_C 	C 	0.9331	0.7948	0.3567	0.03
Mof_C 	C 	0.92941	0.8721	0.3173	-0.093
Mof_C 	C 	0.97272	0.9239	0.3485	0.029
Mof_H 	H 	0.9698	0.9748	0.3209	0.038
Mof_C 	C 	0.88362	0.7447	0.3355	0.047
Mof_C 	C 	0.8673	0.6905	0.2536	0.068
Mof_C 	C 	0.81875	0.6508	0.2338	-0.018
Mof_H 	H 	0.8086	0.6158	0.1775	0.07
Mof_C 	C 	0.78536	0.6635	0.2983	-0.099
Mof_C 	C 	0.80141	0.7163	0.3823	0.051
Mof_H 	H 	0.7796	0.7243	0.4268	0.03
Mof_C 	C 	0.84952	0.7569	0.3995	-0.116
Mof_C 	C 	0.8657	0.8127	0.4919	0.373
Mof_C 	C 	0.73213	0.6227	0.2773	0.39
Mof_C 	C 	0.87906	0.9004	0.2371	0.334
Mof_Mn	Mn	0.13609	0.07142	0.35519	0.852
Mof_N 	N 	0.9904	0.693	0.4719	-0.005
Mof_N 	N 	0.9026	0.6715	0.1882	0.003
Mof_O 	O 	0.07029	0.00753	0.3835	-0.374
Mof_O 	O 	0.10079	0.94692	0.5394	-0.36
Mof_O 	O 	0.9416	0.7076	0.1926	-0.073
Mof_O 	O 	0.0218	0.684	0.5597	-0.078
Mof_O 	O 	0.9659	0.6385	0.4202	-0.066
Mof_O 	O 	0.71495	0.5893	0.1895	-0.397
Mof_O 	O 	0.7089	0.6232	0.349	-0.395
Mof_O 	O 	0.8502	0.8825	0.4813	-0.452
Mof_O 	O 	0.8958	0.7872	0.5759	-0.276
Mof_O 	O 	0.86089	0.96826	0.2555	-0.425
Mof_O 	O 	0.85893	0.8602	0.1582	-0.257
Mof_Mn	Mn	0.17446	0.0108	0.61609	0.838
Mof_O 	O 	0.881	0.6401	0.0992	-0.059
Mof_O 	O 	0.396	0.1035	0.1439	-0.041
Mof_C 	C 	0.56735	0.4563	0.4504	0.365
Mof_C 	C 	0.52018	0.4007	0.4202	-0.074
Mof_C 	C 	0.52475	0.3243	0.4612	-0.036
Mof_H 	H 	0.5563	0.3079	0.5095	0.089
Mof_C 	C 	0.48195	0.2734	0.4293	0.082
Mof_C 	C 	0.4331	0.2948	0.3567	0.031
Mof_C 	C 	0.42941	0.3721	0.3173	-0.092
Mof_C 	C 	0.47272	0.4239	0.3485	0.03
Mof_H 	H 	0.4698	0.4748	0.3209	0.04
Mof_C 	C 	0.38362	0.2447	0.3355	0.047
Mof_C 	C 	0.3673	0.1905	0.2536	0.068
Mof_C 	C 	0.31875	0.1508	0.2338	-0.018
Mof_H 	H 	0.3086	0.1158	0.1775	0.071
Mof_C 	C 	0.28536	0.1635	0.2983	-0.098
Mof_C 	C 	0.30141	0.2163	0.3823	0.05
Mof_H 	H 	0.2796	0.2243	0.4268	0.03
Mof_C 	C 	0.34952	0.2569	0.3995	-0.116
Mof_C 	C 	0.3657	0.3127	0.4919	0.373
Mof_C 	C 	0.23213	0.1227	0.2773	0.39
Mof_C 	C 	0.37906	0.4004	0.2371	0.334
Mof_Mn	Mn	0.63609	0.57142	0.35519	0.851
Mof_N 	N 	0.4904	0.193	0.4719	-0.005
Mof_N 	N 	0.4026	0.1715	0.1882	0.002
Mof_O 	O 	0.57029	0.50753	0.3835	-0.375
Mof_O 	O 	0.60079	0.44692	0.5394	-0.36
Mof_O 	O 	0.4416	0.2076	0.1926	-0.073
Mof_O 	O 	0.5218	0.184	0.5597	-0.078
Mof_O 	O 	0.4659	0.1385	0.4202	-0.065
Mof_O 	O 	0.21495	0.0893	0.1895	-0.396
Mof_O 	O 	0.2089	0.1232	0.349	-0.395
Mof_O 	O 	0.3502	0.3825	0.4813	-0.452
Mof_O 	O 	0.3958	0.2872	0.5759	-0.276
Mof_O 	O 	0.36089	0.46826	0.2555	-0.424
Mof_O 	O 	0.35893	0.3602	0.1582	-0.256
Mof_Mn	Mn	0.67446	0.5108	0.61609	0.839
Mof_O 	O 	0.381	0.1401	0.0992	-0.058
Mof_O 	O 	0.104	0.6035	0.3561	-0.041
Mof_C 	C 	0.93265	0.9563	0.0496	0.358
Mof_C 	C 	0.97982	0.9007	0.0798	-0.07
Mof_C 	C 	0.97525	0.8243	0.0388	-0.043
Mof_H 	H 	0.9437	0.8079	0.9905	0.093
Mof_C 	C 	0.01805	0.7734	0.0707	0.084
Mof_C 	C 	0.0669	0.7948	0.1433	0.029
Mof_C 	C 	0.07059	0.8721	0.1827	-0.091
Mof_C 	C 	0.02728	0.9239	0.1515	0.028
Mof_H 	H 	0.0302	0.9748	0.1791	0.04
Mof_C 	C 	0.11638	0.7447	0.1645	0.047
Mof_C 	C 	0.1327	0.6905	0.2464	0.068
Mof_C 	C 	0.18125	0.6508	0.2662	-0.018
Mof_H 	H 	0.1914	0.6158	0.3225	0.07
Mof_C 	C 	0.21464	0.6635	0.2017	-0.099
Mof_C 	C 	0.19859	0.7163	0.1177	0.05
Mof_H 	H 	0.2204	0.7243	0.0732	0.03
Mof_C 	C 	0.15048	0.7569	0.1005	-0.115
Mof_C 	C 	0.1343	0.8127	0.0081	0.371
Mof_C 	C 	0.26787	0.6227	0.2227	0.39
Mof_C 	C 	0.12094	0.9004	0.2629	0.334
Mof_Mn	Mn	0.86391	0.07142	0.14481	0.853
Mof_N 	N 	0.0096	0.693	0.0281	-0.006
Mof_N 	N 	0.0974	0.6715	0.3118	0.003
Mof_O 	O 	0.92971	0.00753	0.1165	-0.371
Mof_O 	O 	0.89921	0.94692	0.9606	-0.356
Mof_O 	O 	0.0584	0.7076	0.3074	-0.073
Mof_O 	O 	0.9782	0.684	0.9403	-0.078
Mof_O 	O 	0.0341	0.6385	0.0798	-0.066
Mof_O 	O 	0.28505	0.5893	0.3105	-0.397
Mof_O 	O 	0.2911	0.6232	0.151	-0.395
Mof_O 	O 	0.1498	0.8825	0.0187	-0.453
Mof_O 	O 	0.1042	0.7872	0.9241	-0.274
Mof_O 	O 	0.13911	0.96826	0.2445	-0.424
Mof_O 	O 	0.14107	0.8602	0.3418	-0.256
Mof_Mn	Mn	0.82554	0.0108	0.88391	0.836
Mof_O 	O 	0.119	0.6401	0.4008	-0.059
Mof_O 	O 	0.604	0.1035	0.3561	-0.041
Mof_C 	C 	0.43265	0.4563	0.0496	0.366
Mof_C 	C 	0.47982	0.4007	0.0798	-0.075
Mof_C 	C 	0.47525	0.3243	0.0388	-0.033
Mof_H 	H 	0.4437	0.3079	0.9905	0.087
Mof_C 	C 	0.51805	0.2734	0.0707	0.081
Mof_C 	C 	0.5669	0.2948	0.1433	0.031
Mof_C 	C 	0.57059	0.3721	0.1827	-0.093
Mof_C 	C 	0.52728	0.4239	0.1515	0.031
Mof_H 	H 	0.5302	0.4748	0.1791	0.039
Mof_C 	C 	0.61638	0.2447	0.1645	0.047
Mof_C 	C 	0.6327	0.1905	0.2464	0.068
Mof_C 	C 	0.68125	0.1508	0.2662	-0.018
Mof_H 	H 	0.6914	0.1158	0.3225	0.071
Mof_C 	C 	0.71464	0.1635	0.2017	-0.098
Mof_C 	C 	0.69859	0.2163	0.1177	0.051
Mof_H 	H 	0.7204	0.2243	0.0732	0.031
Mof_C 	C 	0.65048	0.2569	0.1005	-0.116
Mof_C 	C 	0.6343	0.3127	0.0081	0.374
Mof_C 	C 	0.76787	0.1227	0.2227	0.39
Mof_C 	C 	0.62094	0.4004	0.2629	0.334
Mof_Mn	Mn	0.36391	0.57142	0.14481	0.851
Mof_N 	N 	0.5096	0.193	0.0281	-0.004
Mof_N 	N 	0.5974	0.1715	0.3118	0.003
Mof_O 	O 	0.42971	0.50753	0.1165	-0.375
Mof_O 	O 	0.39921	0.44692	0.9606	-0.361
Mof_O 	O 	0.5584	0.2076	0.3074	-0.073
Mof_O 	O 	0.4782	0.184	0.9403	-0.08
Mof_O 	O 	0.5341	0.1385	0.0798	-0.065
Mof_O 	O 	0.78505	0.0893	0.3105	-0.397
Mof_O 	O 	0.7911	0.1232	0.151	-0.395
Mof_O 	O 	0.6498	0.3825	0.0187	-0.452
Mof_O 	O 	0.6042	0.2872	0.9241	-0.277
Mof_O 	O 	0.63911	0.46826	0.2445	-0.424
Mof_O 	O 	0.64107	0.3602	0.3418	-0.256
Mof_Mn	Mn	0.32554	0.5108	0.88391	0.839
Mof_O 	O 	0.619	0.1401	0.4008	-0.059
Mof_O 	O 	0.104	0.3965	0.8561	-0.041
Mof_C 	C 	0.93265	0.0437	0.5496	0.365
Mof_C 	C 	0.97982	0.0993	0.5798	-0.073
Mof_C 	C 	0.97525	0.1757	0.5388	-0.036
Mof_H 	H 	0.9437	0.1921	0.4905	0.089
Mof_C 	C 	0.01805	0.2266	0.5707	0.082
Mof_C 	C 	0.0669	0.2052	0.6433	0.031
Mof_C 	C 	0.07059	0.1279	0.6827	-0.092
Mof_C 	C 	0.02728	0.0761	0.6515	0.03
Mof_H 	H 	0.0302	0.0252	0.6791	0.039
Mof_C 	C 	0.11638	0.2553	0.6645	0.047
Mof_C 	C 	0.1327	0.3095	0.7464	0.068
Mof_C 	C 	0.18125	0.3492	0.7662	-0.018
Mof_H 	H 	0.1914	0.3842	0.8225	0.07
Mof_C 	C 	0.21464	0.3365	0.7017	-0.099
Mof_C 	C 	0.19859	0.2837	0.6177	0.051
Mof_H 	H 	0.2204	0.2757	0.5732	0.03
Mof_C 	C 	0.15048	0.2431	0.6005	-0.116
Mof_C 	C 	0.1343	0.1873	0.5081	0.373
Mof_C 	C 	0.26787	0.3773	0.7227	0.39
Mof_C 	C 	0.12094	0.0996	0.7629	0.334
Mof_Mn	Mn	0.86391	0.92858	0.64481	0.852
Mof_N 	N 	0.0096	0.307	0.5281	-0.005
Mof_N 	N 	0.0974	0.3285	0.8118	0.003
Mof_O 	O 	0.92971	0.99247	0.6165	-0.374
Mof_O 	O 	0.89921	0.05308	0.4606	-0.36
Mof_O 	O 	0.0584	0.2924	0.8074	-0.073
Mof_O 	O 	0.9782	0.316	0.4403	-0.078
Mof_O 	O 	0.0341	0.3615	0.5798	-0.066
Mof_O 	O 	0.28505	0.4107	0.8105	-0.397
Mof_O 	O 	0.2911	0.3768	0.651	-0.395
Mof_O 	O 	0.1498	0.1175	0.5187	-0.452
Mof_O 	O 	0.1042	0.2128	0.4241	-0.276
Mof_O 	O 	0.13911	0.03174	0.7445	-0.425
Mof_O 	O 	0.14107	0.1398	0.8418	-0.257
Mof_Mn	Mn	0.82554	0.9892	0.38391	0.838
Mof_O 	O 	0.119	0.3599	0.9008	-0.059
Mof_O 	O 	0.604	0.8965	0.8561	-0.041
Mof_C 	C 	0.43265	0.5437	0.5496	0.365
Mof_C 	C 	0.47982	0.5993	0.5798	-0.074
Mof_C 	C 	0.47525	0.6757	0.5388	-0.036
Mof_H 	H 	0.4437	0.6921	0.4905	0.089
Mof_C 	C 	0.51805	0.7266	0.5707	0.082
Mof_C 	C 	0.5669	0.7052	0.6433	0.031
Mof_C 	C 	0.57059	0.6279	0.6827	-0.092
Mof_C 	C 	0.52728	0.5761	0.6515	0.03
Mof_H 	H 	0.5302	0.5252	0.6791	0.04
Mof_C 	C 	0.61638	0.7553	0.6645	0.047
Mof_C 	C 	0.6327	0.8095	0.7464	0.068
Mof_C 	C 	0.68125	0.8492	0.7662	-0.018
Mof_H 	H 	0.6914	0.8842	0.8225	0.071
Mof_C 	C 	0.71464	0.8365	0.7017	-0.098
Mof_C 	C 	0.69859	0.7837	0.6177	0.05
Mof_H 	H 	0.7204	0.7757	0.5732	0.03
Mof_C 	C 	0.65048	0.7431	0.6005	-0.116
Mof_C 	C 	0.6343	0.6873	0.5081	0.373
Mof_C 	C 	0.76787	0.8773	0.7227	0.39
Mof_C 	C 	0.62094	0.5996	0.7629	0.334
Mof_Mn	Mn	0.36391	0.42858	0.64481	0.851
Mof_N 	N 	0.5096	0.807	0.5281	-0.005
Mof_N 	N 	0.5974	0.8285	0.8118	0.002
Mof_O 	O 	0.42971	0.49247	0.6165	-0.375
Mof_O 	O 	0.39921	0.55308	0.4606	-0.36
Mof_O 	O 	0.5584	0.7924	0.8074	-0.073
Mof_O 	O 	0.4782	0.816	0.4403	-0.078
Mof_O 	O 	0.5341	0.8615	0.5798	-0.065
Mof_O 	O 	0.78505	0.9107	0.8105	-0.396
Mof_O 	O 	0.7911	0.8768	0.651	-0.395
Mof_O 	O 	0.6498	0.6175	0.5187	-0.452
Mof_O 	O 	0.6042	0.7128	0.4241	-0.276
Mof_O 	O 	0.63911	0.53174	0.7445	-0.424
Mof_O 	O 	0.64107	0.6398	0.8418	-0.256
Mof_Mn	Mn	0.32554	0.4892	0.38391	0.839
Mof_O 	O 	0.619	0.8599	0.9008	-0.058
Mof_O 	O 	0.896	0.3965	0.6439	-0.041
Mof_C 	C 	0.06735	0.0437	0.9504	0.358
Mof_C 	C 	0.02018	0.0993	0.9202	-0.07
Mof_C 	C 	0.02475	0.1757	0.9612	-0.043
Mof_H 	H 	0.0563	0.1921	0.0095	0.093
Mof_C 	C 	0.98195	0.2266	0.9293	0.084
Mof_C 	C 	0.9331	0.2052	0.8567	0.029
Mof_C 	C 	0.92941	0.1279	0.8173	-0.091
Mof_C 	C 	0.97272	0.0761	0.8485	0.028
Mof_H 	H 	0.9698	0.0252	0.8209	0.04
Mof_C 	C 	0.88362	0.2553	0.8355	0.047
Mof_C 	C 	0.8673	0.3095	0.7536	0.068
Mof_C 	C 	0.81875	0.3492	0.7338	-0.018
Mof_H 	H 	0.8086	0.3842	0.6775	0.07
Mof_C 	C 	0.78536	0.3365	0.7983	-0.099
Mof_C 	C 	0.80141	0.2837	0.8823	0.05
Mof_H 	H 	0.7796	0.2757	0.9268	0.03
Mof_C 	C 	0.84952	0.2431	0.8995	-0.115
Mof_C 	C 	0.8657	0.1873	0.9919	0.371
Mof_C 	C 	0.73213	0.3773	0.7773	0.39
Mof_C 	C 	0.87906	0.0996	0.7371	0.334
Mof_Mn	Mn	0.13609	0.92858	0.85519	0.853
Mof_N 	N 	0.9904	0.307	0.9719	-0.006
Mof_N 	N 	0.9026	0.3285	0.6882	0.003
Mof_O 	O 	0.07029	0.99247	0.8835	-0.371
Mof_O 	O 	0.10079	0.05308	0.0394	-0.356
Mof_O 	O 	0.9416	0.2924	0.6926	-0.073
Mof_O 	O 	0.0218	0.316	0.0597	-0.078
Mof_O 	O 	0.9659	0.3615	0.9202	-0.066
Mof_O 	O 	0.71495	0.4107	0.6895	-0.397
Mof_O 	O 	0.7089	0.3768	0.849	-0.395
Mof_O 	O 	0.8502	0.1175	0.9813	-0.453
Mof_O 	O 	0.8958	0.2128	0.0759	-0.274
Mof_O 	O 	0.86089	0.03174	0.7555	-0.424
Mof_O 	O 	0.85893	0.1398	0.6582	-0.256
Mof_Mn	Mn	0.17446	0.9892	0.11609	0.836
Mof_O 	O 	0.881	0.3599	0.5992	-0.059
Mof_O 	O 	0.396	0.8965	0.6439	-0.041
Mof_C 	C 	0.56735	0.5437	0.9504	0.366
Mof_C 	C 	0.52018	0.5993	0.9202	-0.075
Mof_C 	C 	0.52475	0.6757	0.9612	-0.033
Mof_H 	H 	0.5563	0.6921	0.0095	0.087
Mof_C 	C 	0.48195	0.7266	0.9293	0.081
Mof_C 	C 	0.4331	0.7052	0.8567	0.031
Mof_C 	C 	0.42941	0.6279	0.8173	-0.093
Mof_C 	C 	0.47272	0.5761	0.8485	0.031
Mof_H 	H 	0.4698	0.5252	0.8209	0.039
Mof_C 	C 	0.38362	0.7553	0.8355	0.047
Mof_C 	C 	0.3673	0.8095	0.7536	0.068
Mof_C 	C 	0.31875	0.8492	0.7338	-0.018
Mof_H 	H 	0.3086	0.8842	0.6775	0.071
Mof_C 	C 	0.28536	0.8365	0.7983	-0.098
Mof_C 	C 	0.30141	0.7837	0.8823	0.051
Mof_H 	H 	0.2796	0.7757	0.9268	0.031
Mof_C 	C 	0.34952	0.7431	0.8995	-0.116
Mof_C 	C 	0.3657	0.6873	0.9919	0.374
Mof_C 	C 	0.23213	0.8773	0.7773	0.39
Mof_C 	C 	0.37906	0.5996	0.7371	0.334
Mof_Mn	Mn	0.63609	0.42858	0.85519	0.851
Mof_N 	N 	0.4904	0.807	0.9719	-0.004
Mof_N 	N 	0.4026	0.8285	0.6882	0.003
Mof_O 	O 	0.57029	0.49247	0.8835	-0.375
Mof_O 	O 	0.60079	0.55308	0.0394	-0.361
Mof_O 	O 	0.4416	0.7924	0.6926	-0.073
Mof_O 	O 	0.5218	0.816	0.0597	-0.08
Mof_O 	O 	0.4659	0.8615	0.9202	-0.065
Mof_O 	O 	0.21495	0.9107	0.6895	-0.397
Mof_O 	O 	0.2089	0.8768	0.849	-0.395
Mof_O 	O 	0.3502	0.6175	0.9813	-0.452
Mof_O 	O 	0.3958	0.7128	0.0759	-0.277
Mof_O 	O 	0.36089	0.53174	0.7555	-0.424
Mof_O 	O 	0.35893	0.6398	0.6582	-0.256
Mof_Mn	Mn	0.67446	0.4892	0.11609	0.839
Mof_O 	O 	0.381	0.8599	0.5992	-0.059
_end
