data_functionalizedCrystal
_audit_creation_method	'EQeq! by Chris Wilmer'
_symmetry_space_group_name_H-M	'P1'
_symmetry_Int_Tables_number	1
_symmetry_cell_setting	triclinic
loop_
_symmetry_equiv_pos_as_xyz
  x,y,z
_cell_length_a	27.72
_cell_length_b	27.72
_cell_length_c	9.7135
_cell_angle_alpha	90
_cell_angle_beta	90
_cell_angle_gamma	120
loop_
_atom_site_label
_atom_site_type_symbol
_atom_site_fract_x
_atom_site_fract_y
_atom_site_fract_z
_atom_site_charge
Mof_N 	N 	0.54532	0.01378	0.175	-0.23
Mof_N 	N 	0.59619	0.0534	0.2205	-0.102
Mof_N 	N 	0.55461	0.98687	0.3855	-0.119
Mof_N 	N 	0.44402	0.92958	0.1282	-0.231
Mof_N 	N 	0.74893	0.12611	0.5765	-0.24
Mof_C 	C 	0.3918	0.8898	0.1023	0.084
Mof_H 	H 	0.3769	0.8889	0.0159	-0.011
Mof_C 	C 	0.3591	0.8505	0.197	-0.144
Mof_H 	H 	0.3226	0.824	0.1757	0.08
Mof_C 	C 	0.3811	0.8506	0.3246	0.055
Mof_H 	H 	0.3597	0.8237	0.3897	0.01
Mof_C 	C 	0.4343	0.8903	0.3544	-0.117
Mof_H 	H 	0.4496	0.8912	0.4402	0.077
Mof_C 	C 	0.4656	0.9296	0.2545	0.046
Mof_C 	C 	0.5219	0.9755	0.2745	0.084
Mof_C 	C 	0.5993	0.0347	0.3464	0.065
Mof_C 	C 	0.65019	0.0667	0.4294	0.076
Mof_C 	C 	0.6915	0.1183	0.3878	-0.154
Mof_H 	H 	0.6871	0.1341	0.3078	0.086
Mof_C 	C 	0.7391	0.1463	0.4635	0.09
Mof_H 	H 	0.7661	0.1815	0.4341	-0.011
Mof_C 	C 	0.7086	0.0758	0.6164	0.086
Mof_H 	H 	0.7143	0.0604	0.6955	-0.005
Mof_C 	C 	0.6593	0.0457	0.5471	-0.15
Mof_H 	H 	0.6322	0.0111	0.5801	0.089
Mof_N 	N 	0.21199	0.34711	0.50833	-0.216
Mof_N 	N 	0.26286	0.38673	0.55383	-0.099
Mof_N 	N 	0.22128	0.3202	0.71883	-0.124
Mof_N 	N 	0.11069	0.26291	0.46153	-0.241
Mof_N 	N 	0.4156	0.45944	0.90983	-0.243
Mof_C 	C 	0.05847	0.22313	0.43563	0.112
Mof_H 	H 	0.04357	0.22223	0.34923	-0.021
Mof_C 	C 	0.02577	0.18383	0.53033	-0.202
Mof_H 	H 	0.98927	0.15733	0.50903	0.111
Mof_C 	C 	0.04777	0.18393	0.65793	0.093
Mof_H 	H 	0.02637	0.15703	0.72303	-0.008
Mof_C 	C 	0.10097	0.22363	0.68773	-0.145
Mof_H 	H 	0.11627	0.22453	0.77353	0.087
Mof_C 	C 	0.13227	0.26293	0.58783	0.058
Mof_C 	C 	0.18857	0.30883	0.60783	0.068
Mof_C 	C 	0.26597	0.36803	0.67973	0.075
Mof_C 	C 	0.31686	0.40003	0.76273	0.089
Mof_C 	C 	0.35817	0.45163	0.72113	-0.163
Mof_H 	H 	0.35377	0.46743	0.64113	0.092
Mof_C 	C 	0.40577	0.47963	0.79683	0.098
Mof_H 	H 	0.43277	0.51483	0.76743	-0.011
Mof_C 	C 	0.37527	0.40913	0.94973	0.133
Mof_H 	H 	0.38097	0.39373	0.02883	-0.031
Mof_C 	C 	0.32597	0.37903	0.88043	-0.175
Mof_H 	H 	0.29887	0.34443	0.91343	0.109
Mof_N 	N 	0.87865	0.68045	0.84167	-0.215
Mof_N 	N 	0.92952	0.72007	0.88717	-0.088
Mof_N 	N 	0.88794	0.65354	0.05217	-0.128
Mof_N 	N 	0.77735	0.59625	0.79487	-0.251
Mof_N 	N 	0.08226	0.79278	0.24317	-0.245
Mof_C 	C 	0.72513	0.55647	0.76897	0.135
Mof_H 	H 	0.71023	0.55557	0.68257	-0.024
Mof_C 	C 	0.69243	0.51717	0.86367	-0.231
Mof_H 	H 	0.65593	0.49067	0.84237	0.115
Mof_C 	C 	0.71443	0.51727	0.99127	0.198
Mof_H 	H 	0.69303	0.49037	0.05637	-0.051
Mof_C 	C 	0.76763	0.55697	0.02107	-0.242
Mof_H 	H 	0.78293	0.55787	0.10687	0.116
Mof_C 	C 	0.79893	0.59627	0.92117	0.102
Mof_C 	C 	0.85523	0.64217	0.94117	0.068
Mof_C 	C 	0.93263	0.70137	0.01307	0.054
Mof_C 	C 	0.98352	0.73337	0.09607	0.114
Mof_C 	C 	0.02483	0.78497	0.05447	-0.231
Mof_H 	H 	0.02043	0.80077	0.97447	0.123
Mof_C 	C 	0.07243	0.81297	0.13017	0.124
Mof_H 	H 	0.09943	0.84817	0.10077	-0.026
Mof_C 	C 	0.04193	0.74247	0.28307	0.075
Mof_H 	H 	0.04763	0.72707	0.36217	-0.003
Mof_C 	C 	0.99263	0.71237	0.21377	-0.147
Mof_H 	H 	0.96553	0.67777	0.24677	0.095
Mof_N 	N 	0.98622	0.53154	0.175	-0.208
Mof_N 	N 	0.9466	0.54279	0.2205	-0.102
Mof_N 	N 	0.01313	0.56774	0.3855	-0.134
Mof_N 	N 	0.07042	0.51444	0.1282	-0.238
Mof_N 	N 	0.87389	0.62282	0.5765	-0.238
Mof_C 	C 	0.1102	0.502	0.1023	0.084
Mof_H 	H 	0.1111	0.488	0.0159	-0.014
Mof_C 	C 	0.1495	0.5086	0.197	-0.147
Mof_H 	H 	0.176	0.4986	0.1757	0.08
Mof_C 	C 	0.1494	0.5305	0.3246	0.058
Mof_H 	H 	0.1763	0.536	0.3897	0.009
Mof_C 	C 	0.1097	0.544	0.3544	-0.124
Mof_H 	H 	0.1088	0.5584	0.4402	0.078
Mof_C 	C 	0.0704	0.536	0.2545	0.051
Mof_C 	C 	0.0245	0.5464	0.2745	0.056
Mof_C 	C 	0.9653	0.5646	0.3464	0.093
Mof_C 	C 	0.9333	0.58349	0.4294	0.07
Mof_C 	C 	0.8817	0.5732	0.3878	-0.148
Mof_H 	H 	0.8659	0.553	0.3078	0.085
Mof_C 	C 	0.8537	0.5928	0.4635	0.088
Mof_H 	H 	0.8185	0.5846	0.4341	-0.01
Mof_C 	C 	0.9242	0.6328	0.6164	0.085
Mof_H 	H 	0.9396	0.6539	0.6955	0
Mof_C 	C 	0.9543	0.6136	0.5471	-0.143
Mof_H 	H 	0.9889	0.6211	0.5801	0.097
Mof_N 	N 	0.65289	0.86487	0.50833	-0.217
Mof_N 	N 	0.61327	0.87612	0.55383	-0.099
Mof_N 	N 	0.6798	0.90107	0.71883	-0.123
Mof_N 	N 	0.73709	0.84777	0.46153	-0.233
Mof_N 	N 	0.54056	0.95615	0.90983	-0.24
Mof_C 	C 	0.77687	0.83533	0.43563	0.085
Mof_H 	H 	0.77777	0.82133	0.34923	-0.007
Mof_C 	C 	0.81617	0.84193	0.53033	-0.143
Mof_H 	H 	0.84267	0.83193	0.50903	0.083
Mof_C 	C 	0.81607	0.86383	0.65793	0.057
Mof_H 	H 	0.84297	0.86933	0.72303	0.013
Mof_C 	C 	0.77637	0.87733	0.68773	-0.12
Mof_H 	H 	0.77547	0.89173	0.77353	0.081
Mof_C 	C 	0.73707	0.86933	0.58783	0.049
Mof_C 	C 	0.69117	0.87973	0.60783	0.072
Mof_C 	C 	0.63197	0.89793	0.67973	0.077
Mof_C 	C 	0.59997	0.91682	0.76273	0.09
Mof_C 	C 	0.54837	0.90653	0.72113	-0.161
Mof_H 	H 	0.53257	0.88633	0.64113	0.092
Mof_C 	C 	0.52037	0.92613	0.79683	0.099
Mof_H 	H 	0.48517	0.91793	0.76743	-0.01
Mof_C 	C 	0.59087	0.96613	0.94973	0.132
Mof_H 	H 	0.60627	0.98723	0.02883	-0.024
Mof_C 	C 	0.62097	0.94693	0.88043	-0.171
Mof_H 	H 	0.65557	0.95443	0.91343	0.11
Mof_N 	N 	0.31955	0.19821	0.84167	-0.216
Mof_N 	N 	0.27993	0.20946	0.88717	-0.09
Mof_N 	N 	0.34646	0.23441	0.05217	-0.129
Mof_N 	N 	0.40375	0.18111	0.79487	-0.252
Mof_N 	N 	0.20722	0.28949	0.24317	-0.247
Mof_C 	C 	0.44353	0.16867	0.76897	0.137
Mof_H 	H 	0.44443	0.15467	0.68257	-0.025
Mof_C 	C 	0.48283	0.17527	0.86367	-0.235
Mof_H 	H 	0.50933	0.16527	0.84237	0.117
Mof_C 	C 	0.48273	0.19717	0.99127	0.203
Mof_H 	H 	0.50963	0.20267	0.05637	-0.052
Mof_C 	C 	0.44303	0.21067	0.02107	-0.247
Mof_H 	H 	0.44213	0.22507	0.10687	0.118
Mof_C 	C 	0.40373	0.20267	0.92117	0.104
Mof_C 	C 	0.35783	0.21307	0.94117	0.068
Mof_C 	C 	0.29863	0.23127	0.01307	0.054
Mof_C 	C 	0.26663	0.25016	0.09607	0.101
Mof_C 	C 	0.21503	0.23987	0.05447	-0.211
Mof_H 	H 	0.19923	0.21967	0.97447	0.119
Mof_C 	C 	0.18703	0.25947	0.13017	0.118
Mof_H 	H 	0.15183	0.25127	0.10077	-0.025
Mof_C 	C 	0.25753	0.29947	0.28307	0.097
Mof_H 	H 	0.27293	0.32057	0.36217	-0.007
Mof_C 	C 	0.28763	0.28027	0.21377	-0.168
Mof_H 	H 	0.32223	0.28777	0.24677	0.1
Mof_N 	N 	0.46846	0.45468	0.175	-0.219
Mof_N 	N 	0.45721	0.40381	0.2205	-0.102
Mof_N 	N 	0.43226	0.44539	0.3855	-0.127
Mof_N 	N 	0.48556	0.55598	0.1282	-0.235
Mof_N 	N 	0.37718	0.25107	0.5765	-0.239
Mof_C 	C 	0.498	0.6082	0.1023	0.084
Mof_H 	H 	0.512	0.6231	0.0159	-0.013
Mof_C 	C 	0.4914	0.6409	0.197	-0.146
Mof_H 	H 	0.5014	0.6774	0.1757	0.08
Mof_C 	C 	0.4695	0.6189	0.3246	0.057
Mof_H 	H 	0.464	0.6403	0.3897	0.009
Mof_C 	C 	0.456	0.5657	0.3544	-0.121
Mof_H 	H 	0.4416	0.5504	0.4402	0.077
Mof_C 	C 	0.464	0.5344	0.2545	0.048
Mof_C 	C 	0.4536	0.4781	0.2745	0.07
Mof_C 	C 	0.4354	0.4007	0.3464	0.079
Mof_C 	C 	0.41651	0.34981	0.4294	0.073
Mof_C 	C 	0.4268	0.3085	0.3878	-0.151
Mof_H 	H 	0.447	0.3129	0.3078	0.085
Mof_C 	C 	0.4072	0.2609	0.4635	0.089
Mof_H 	H 	0.4154	0.2339	0.4341	-0.01
Mof_C 	C 	0.3672	0.2914	0.6164	0.085
Mof_H 	H 	0.3461	0.2857	0.6955	-0.002
Mof_C 	C 	0.3864	0.3407	0.5471	-0.147
Mof_H 	H 	0.3789	0.3678	0.5801	0.093
Mof_N 	N 	0.13513	0.78801	0.50833	-0.218
Mof_N 	N 	0.12388	0.73714	0.55383	-0.1
Mof_N 	N 	0.09893	0.77872	0.71883	-0.126
Mof_N 	N 	0.15223	0.88931	0.46153	-0.226
Mof_N 	N 	0.04385	0.5844	0.90983	-0.245
Mof_C 	C 	0.16467	0.94153	0.43563	0.056
Mof_H 	H 	0.17867	0.95643	0.34923	0.006
Mof_C 	C 	0.15807	0.97423	0.53033	-0.086
Mof_H 	H 	0.16807	0.01073	0.50903	0.05
Mof_C 	C 	0.13617	0.95223	0.65793	0.019
Mof_H 	H 	0.13067	0.97363	0.72303	0.027
Mof_C 	C 	0.12267	0.89903	0.68773	-0.097
Mof_H 	H 	0.10827	0.88373	0.77353	0.071
Mof_C 	C 	0.13067	0.86773	0.58783	0.039
Mof_C 	C 	0.12027	0.81143	0.60783	0.073
Mof_C 	C 	0.10207	0.73403	0.67973	0.074
Mof_C 	C 	0.08318	0.68314	0.76273	0.088
Mof_C 	C 	0.09347	0.64183	0.72113	-0.164
Mof_H 	H 	0.11367	0.64623	0.64113	0.092
Mof_C 	C 	0.07387	0.59423	0.79683	0.097
Mof_H 	H 	0.08207	0.56723	0.76743	-0.011
Mof_C 	C 	0.03387	0.62473	0.94973	0.132
Mof_H 	H 	0.01277	0.61903	0.02883	-0.036
Mof_C 	C 	0.05307	0.67403	0.88043	-0.177
Mof_H 	H 	0.04557	0.70113	0.91343	0.106
Mof_N 	N 	0.80179	0.12135	0.84167	-0.216
Mof_N 	N 	0.79054	0.07048	0.88717	-0.092
Mof_N 	N 	0.76559	0.11206	0.05217	-0.13
Mof_N 	N 	0.81889	0.22265	0.79487	-0.251
Mof_N 	N 	0.71051	0.91774	0.24317	-0.247
Mof_C 	C 	0.83133	0.27487	0.76897	0.135
Mof_H 	H 	0.84533	0.28977	0.68257	-0.024
Mof_C 	C 	0.82473	0.30757	0.86367	-0.232
Mof_H 	H 	0.83473	0.34407	0.84237	0.116
Mof_C 	C 	0.80283	0.28557	0.99127	0.198
Mof_H 	H 	0.79733	0.30697	0.05637	-0.051
Mof_C 	C 	0.78933	0.23237	0.02107	-0.243
Mof_H 	H 	0.77493	0.21707	0.10687	0.116
Mof_C 	C 	0.79733	0.20107	0.92117	0.103
Mof_C 	C 	0.78693	0.14477	0.94117	0.068
Mof_C 	C 	0.76873	0.06737	0.01307	0.056
Mof_C 	C 	0.74984	0.01648	0.09607	0.086
Mof_C 	C 	0.76013	0.97517	0.05447	-0.184
Mof_H 	H 	0.78033	0.97957	0.97447	0.115
Mof_C 	C 	0.74053	0.92757	0.13017	0.11
Mof_H 	H 	0.74873	0.90057	0.10077	-0.019
Mof_C 	C 	0.70053	0.95807	0.28307	0.12
Mof_H 	H 	0.67943	0.95237	0.36217	-0.011
Mof_C 	C 	0.71973	0.00737	0.21377	-0.188
Mof_H 	H 	0.71223	0.03447	0.24677	0.104
Mof_N 	N 	0.45468	0.98622	0.825	-0.202
Mof_N 	N 	0.40381	0.9466	0.7795	-0.098
Mof_N 	N 	0.44539	0.01313	0.6145	-0.134
Mof_N 	N 	0.55598	0.07042	0.8718	-0.232
Mof_N 	N 	0.25107	0.87389	0.4235	-0.239
Mof_C 	C 	0.6082	0.1102	0.8977	0.085
Mof_H 	H 	0.6231	0.1111	0.9841	-0.002
Mof_C 	C 	0.6409	0.1495	0.803	-0.144
Mof_H 	H 	0.6774	0.176	0.8243	0.083
Mof_C 	C 	0.6189	0.1494	0.6754	0.058
Mof_H 	H 	0.6403	0.1763	0.6103	0.009
Mof_C 	C 	0.5657	0.1097	0.6456	-0.124
Mof_H 	H 	0.5504	0.1088	0.5598	0.078
Mof_C 	C 	0.5344	0.0704	0.7455	0.051
Mof_C 	C 	0.4781	0.0245	0.7255	0.058
Mof_C 	C 	0.4007	0.9653	0.6536	0.093
Mof_C 	C 	0.34981	0.9333	0.5706	0.073
Mof_C 	C 	0.3085	0.8817	0.6122	-0.15
Mof_H 	H 	0.3129	0.8659	0.6922	0.09
Mof_C 	C 	0.2609	0.8537	0.5365	0.09
Mof_H 	H 	0.2339	0.8185	0.5659	-0.009
Mof_C 	C 	0.2914	0.9242	0.3836	0.087
Mof_H 	H 	0.2857	0.9396	0.3045	-0.002
Mof_C 	C 	0.3407	0.9543	0.4529	-0.146
Mof_H 	H 	0.3678	0.9889	0.4199	0.099
Mof_N 	N 	0.12135	0.31955	0.15833	-0.219
Mof_N 	N 	0.07048	0.27993	0.11283	-0.113
Mof_N 	N 	0.11206	0.34646	0.94783	-0.124
Mof_N 	N 	0.22265	0.40375	0.20513	-0.214
Mof_N 	N 	0.91774	0.20722	0.75683	-0.233
Mof_C 	C 	0.27487	0.44353	0.23103	0.031
Mof_H 	H 	0.28977	0.44443	0.31743	0.011
Mof_C 	C 	0.30757	0.48283	0.13633	-0.051
Mof_H 	H 	0.34407	0.50933	0.15763	0.046
Mof_C 	C 	0.28557	0.48273	0.00873	-0.094
Mof_H 	H 	0.30697	0.50963	0.94363	0.073
Mof_C 	C 	0.23237	0.44303	0.97893	0.01
Mof_H 	H 	0.21707	0.44213	0.89313	0.036
Mof_C 	C 	0.20107	0.40373	0.07883	-0.009
Mof_C 	C 	0.14477	0.35783	0.05883	0.072
Mof_C 	C 	0.06737	0.29863	0.98693	0.105
Mof_C 	C 	0.01648	0.26663	0.90393	0.037
Mof_C 	C 	0.97517	0.21503	0.94553	-0.077
Mof_H 	H 	0.97957	0.19923	0.02553	0.056
Mof_C 	C 	0.92757	0.18703	0.86983	0.058
Mof_H 	H 	0.90057	0.15183	0.89923	0.005
Mof_C 	C 	0.95807	0.25753	0.71693	0.098
Mof_H 	H 	0.95237	0.27293	0.63783	-0.003
Mof_C 	C 	0.00737	0.28763	0.78623	-0.149
Mof_H 	H 	0.03447	0.32223	0.75323	0.092
Mof_N 	N 	0.78801	0.65289	0.49167	-0.218
Mof_N 	N 	0.73714	0.61327	0.44617	-0.1
Mof_N 	N 	0.77872	0.6798	0.28117	-0.129
Mof_N 	N 	0.88931	0.73709	0.53847	-0.226
Mof_N 	N 	0.5844	0.54056	0.09017	-0.233
Mof_C 	C 	0.94153	0.77687	0.56437	0.057
Mof_H 	H 	0.95643	0.77777	0.65077	0.007
Mof_C 	C 	0.97423	0.81617	0.46967	-0.086
Mof_H 	H 	0.01073	0.84267	0.49097	0.052
Mof_C 	C 	0.95223	0.81607	0.34207	0.02
Mof_H 	H 	0.97363	0.84297	0.27697	0.027
Mof_C 	C 	0.89903	0.77637	0.31227	-0.096
Mof_H 	H 	0.88373	0.77547	0.22647	0.068
Mof_C 	C 	0.86773	0.73707	0.41217	0.038
Mof_C 	C 	0.81143	0.69117	0.39217	0.073
Mof_C 	C 	0.73403	0.63197	0.32027	0.083
Mof_C 	C 	0.68314	0.59997	0.23727	0.06
Mof_C 	C 	0.64183	0.54837	0.27887	-0.141
Mof_H 	H 	0.64623	0.53257	0.35887	0.085
Mof_C 	C 	0.59423	0.52037	0.20317	0.082
Mof_H 	H 	0.56723	0.48517	0.23257	-0.009
Mof_C 	C 	0.62473	0.59087	0.05027	0.042
Mof_H 	H 	0.61903	0.60627	0.97117	0.023
Mof_C 	C 	0.67403	0.62097	0.11957	-0.122
Mof_H 	H 	0.70113	0.65557	0.08657	0.079
Mof_N 	N 	0.01378	0.46846	0.825	-0.222
Mof_N 	N 	0.0534	0.45721	0.7795	-0.097
Mof_N 	N 	0.98687	0.43226	0.6145	-0.119
Mof_N 	N 	0.92958	0.48556	0.8718	-0.226
Mof_N 	N 	0.12611	0.37718	0.4235	-0.24
Mof_C 	C 	0.8898	0.498	0.8977	0.084
Mof_H 	H 	0.8889	0.512	0.9841	0
Mof_C 	C 	0.8505	0.4914	0.803	-0.141
Mof_H 	H 	0.824	0.5014	0.8243	0.082
Mof_C 	C 	0.8506	0.4695	0.6754	0.055
Mof_H 	H 	0.8237	0.464	0.6103	0.01
Mof_C 	C 	0.8903	0.456	0.6456	-0.118
Mof_H 	H 	0.8912	0.4416	0.5598	0.077
Mof_C 	C 	0.9296	0.464	0.7455	0.047
Mof_C 	C 	0.9755	0.4536	0.7255	0.085
Mof_C 	C 	0.0347	0.4354	0.6536	0.065
Mof_C 	C 	0.0667	0.41651	0.5706	0.079
Mof_C 	C 	0.1183	0.4268	0.6122	-0.156
Mof_H 	H 	0.1341	0.447	0.6922	0.092
Mof_C 	C 	0.1463	0.4072	0.5365	0.092
Mof_H 	H 	0.1815	0.4154	0.5659	-0.01
Mof_C 	C 	0.0758	0.3672	0.3836	0.088
Mof_H 	H 	0.0604	0.3461	0.3045	-0.007
Mof_C 	C 	0.0457	0.3864	0.4529	-0.153
Mof_H 	H 	0.0111	0.3789	0.4199	0.09
Mof_N 	N 	0.68045	0.80179	0.15833	-0.218
Mof_N 	N 	0.72007	0.79054	0.11283	-0.109
Mof_N 	N 	0.65354	0.76559	0.94783	-0.124
Mof_N 	N 	0.59625	0.81889	0.20513	-0.215
Mof_N 	N 	0.79278	0.71051	0.75683	-0.232
Mof_C 	C 	0.55647	0.83133	0.23103	0.033
Mof_H 	H 	0.55557	0.84533	0.31743	0.011
Mof_C 	C 	0.51717	0.82473	0.13633	-0.054
Mof_H 	H 	0.49067	0.83473	0.15763	0.047
Mof_C 	C 	0.51727	0.80283	0.00873	-0.089
Mof_H 	H 	0.49037	0.79733	0.94363	0.071
Mof_C 	C 	0.55697	0.78933	0.97893	0.005
Mof_H 	H 	0.55787	0.77493	0.89313	0.037
Mof_C 	C 	0.59627	0.79733	0.07883	-0.007
Mof_C 	C 	0.64217	0.78693	0.05883	0.073
Mof_C 	C 	0.70137	0.76873	0.98693	0.103
Mof_C 	C 	0.73337	0.74984	0.90393	0.049
Mof_C 	C 	0.78497	0.76013	0.94553	-0.097
Mof_H 	H 	0.80077	0.78033	0.02553	0.06
Mof_C 	C 	0.81297	0.74053	0.86983	0.064
Mof_H 	H 	0.84817	0.74873	0.89923	0.004
Mof_C 	C 	0.74247	0.70053	0.71693	0.076
Mof_H 	H 	0.72707	0.67943	0.63783	0
Mof_C 	C 	0.71237	0.71973	0.78623	-0.129
Mof_H 	H 	0.67777	0.71223	0.75323	0.088
Mof_N 	N 	0.34711	0.13513	0.49167	-0.217
Mof_N 	N 	0.38673	0.12388	0.44617	-0.101
Mof_N 	N 	0.3202	0.09893	0.28117	-0.13
Mof_N 	N 	0.26291	0.15223	0.53847	-0.233
Mof_N 	N 	0.45944	0.04385	0.09017	-0.235
Mof_C 	C 	0.22313	0.16467	0.56437	0.084
Mof_H 	H 	0.22223	0.17867	0.65077	-0.007
Mof_C 	C 	0.18383	0.15807	0.46967	-0.145
Mof_H 	H 	0.15733	0.16807	0.49097	0.08
Mof_C 	C 	0.18393	0.13617	0.34207	0.056
Mof_H 	H 	0.15703	0.13067	0.27697	0.005
Mof_C 	C 	0.22363	0.12267	0.31227	-0.121
Mof_H 	H 	0.22453	0.10827	0.22647	0.073
Mof_C 	C 	0.26293	0.13067	0.41217	0.047
Mof_C 	C 	0.30883	0.12027	0.39217	0.069
Mof_C 	C 	0.36803	0.10207	0.32027	0.081
Mof_C 	C 	0.40003	0.08318	0.23727	0.057
Mof_C 	C 	0.45163	0.09347	0.27887	-0.142
Mof_H 	H 	0.46743	0.11367	0.35887	0.084
Mof_C 	C 	0.47963	0.07387	0.20317	0.08
Mof_H 	H 	0.51483	0.08207	0.23257	-0.009
Mof_C 	C 	0.40913	0.03387	0.05027	0.038
Mof_H 	H 	0.39373	0.01277	0.97117	0.02
Mof_C 	C 	0.37903	0.05307	0.11957	-0.123
Mof_H 	H 	0.34443	0.04557	0.08657	0.076
Mof_N 	N 	0.53154	0.54532	0.825	-0.213
Mof_N 	N 	0.54279	0.59619	0.7795	-0.098
Mof_N 	N 	0.56774	0.55461	0.6145	-0.126
Mof_N 	N 	0.51444	0.44402	0.8718	-0.229
Mof_N 	N 	0.62282	0.74893	0.4235	-0.239
Mof_C 	C 	0.502	0.3918	0.8977	0.085
Mof_H 	H 	0.488	0.3769	0.9841	-0.001
Mof_C 	C 	0.5086	0.3591	0.803	-0.142
Mof_H 	H 	0.4986	0.3226	0.8243	0.083
Mof_C 	C 	0.5305	0.3811	0.6754	0.056
Mof_H 	H 	0.536	0.3597	0.6103	0.009
Mof_C 	C 	0.544	0.4343	0.6456	-0.12
Mof_H 	H 	0.5584	0.4496	0.5598	0.077
Mof_C 	C 	0.536	0.4656	0.7455	0.049
Mof_C 	C 	0.5464	0.5219	0.7255	0.071
Mof_C 	C 	0.5646	0.5993	0.6536	0.079
Mof_C 	C 	0.58349	0.65019	0.5706	0.076
Mof_C 	C 	0.5732	0.6915	0.6122	-0.153
Mof_H 	H 	0.553	0.6871	0.6922	0.091
Mof_C 	C 	0.5928	0.7391	0.5365	0.091
Mof_H 	H 	0.5846	0.7661	0.5659	-0.009
Mof_C 	C 	0.6328	0.7086	0.3836	0.087
Mof_H 	H 	0.6539	0.7143	0.3045	-0.005
Mof_C 	C 	0.6136	0.6593	0.4529	-0.15
Mof_H 	H 	0.6211	0.6322	0.4199	0.094
Mof_N 	N 	0.19821	0.87865	0.15833	-0.219
Mof_N 	N 	0.20946	0.92952	0.11283	-0.108
Mof_N 	N 	0.23441	0.88794	0.94783	-0.123
Mof_N 	N 	0.18111	0.77735	0.20513	-0.214
Mof_N 	N 	0.28949	0.08226	0.75683	-0.23
Mof_C 	C 	0.16867	0.72513	0.23103	0.031
Mof_H 	H 	0.15467	0.71023	0.31743	0.011
Mof_C 	C 	0.17527	0.69243	0.13633	-0.052
Mof_H 	H 	0.16527	0.65593	0.15763	0.046
Mof_C 	C 	0.19717	0.71443	0.00873	-0.092
Mof_H 	H 	0.20267	0.69303	0.94363	0.073
Mof_C 	C 	0.21067	0.76763	0.97893	0.008
Mof_H 	H 	0.22507	0.78293	0.89313	0.036
Mof_C 	C 	0.20267	0.79893	0.07883	-0.009
Mof_C 	C 	0.21307	0.85523	0.05883	0.074
Mof_C 	C 	0.23127	0.93263	0.98693	0.104
Mof_C 	C 	0.25016	0.98352	0.90393	0.059
Mof_C 	C 	0.23987	0.02483	0.94553	-0.114
Mof_H 	H 	0.21967	0.02043	0.02553	0.058
Mof_C 	C 	0.25947	0.07243	0.86983	0.067
Mof_H 	H 	0.25127	0.09943	0.89923	0.001
Mof_C 	C 	0.29947	0.04193	0.71693	0.053
Mof_H 	H 	0.32057	0.04763	0.63783	0.005
Mof_C 	C 	0.28027	0.99263	0.78623	-0.107
Mof_H 	H 	0.28777	0.96553	0.75323	0.083
Mof_N 	N 	0.86487	0.21199	0.49167	-0.216
Mof_N 	N 	0.87612	0.26286	0.44617	-0.1
Mof_N 	N 	0.90107	0.22128	0.28117	-0.127
Mof_N 	N 	0.84777	0.11069	0.53847	-0.24
Mof_N 	N 	0.95615	0.4156	0.09017	-0.23
Mof_C 	C 	0.83533	0.05847	0.56437	0.113
Mof_H 	H 	0.82133	0.04357	0.65077	-0.02
Mof_C 	C 	0.84193	0.02577	0.46967	-0.202
Mof_H 	H 	0.83193	0.98927	0.49097	0.113
Mof_C 	C 	0.86383	0.04777	0.34207	0.094
Mof_H 	H 	0.86933	0.02637	0.27697	-0.009
Mof_C 	C 	0.87733	0.10097	0.31227	-0.144
Mof_H 	H 	0.89173	0.11627	0.22647	0.084
Mof_C 	C 	0.86933	0.13227	0.41217	0.058
Mof_C 	C 	0.87973	0.18857	0.39217	0.068
Mof_C 	C 	0.89793	0.26597	0.32027	0.084
Mof_C 	C 	0.91682	0.31686	0.23727	0.061
Mof_C 	C 	0.90653	0.35817	0.27887	-0.14
Mof_H 	H 	0.88633	0.35377	0.35887	0.085
Mof_C 	C 	0.92613	0.40577	0.20317	0.084
Mof_H 	H 	0.91793	0.43277	0.23257	-0.008
Mof_C 	C 	0.96613	0.37527	0.05027	0.044
Mof_H 	H 	0.98723	0.38097	0.97117	0.028
Mof_C 	C 	0.94693	0.32597	0.11957	-0.121
Mof_H 	H 	0.95443	0.29887	0.08657	0.082
Mof_Co	Co	0.5	0	-0	1.108
Mof_Co	Co	0.16667	0.33333	0.33333	1.122
Mof_Co	Co	0.83333	0.66667	0.66667	1.122
Mof_Co	Co	-0	0.5	-0	1.108
Mof_Co	Co	0.66667	0.83333	0.33333	1.122
Mof_Co	Co	0.33333	0.16667	0.66667	1.122
Mof_Co	Co	0.5	0.5	-0	1.115
Mof_Co	Co	0.16667	0.83333	0.33333	1.122
Mof_Co	Co	0.83333	0.16667	0.66667	1.122
_end
