data_functionalizedCrystal
_audit_creation_method	'EQeq! by Chris Wilmer'
_symmetry_space_group_name_H-M	'P1'
_symmetry_Int_Tables_number	1
_symmetry_cell_setting	triclinic
loop_
_symmetry_equiv_pos_as_xyz
  x,y,z
_cell_length_a	17.5515
_cell_length_b	14.2875
_cell_length_c	18.7456
_cell_angle_alpha	90
_cell_angle_beta	97.436
_cell_angle_gamma	90
loop_
_atom_site_label
_atom_site_type_symbol
_atom_site_fract_x
_atom_site_fract_y
_atom_site_fract_z
_atom_site_charge
Mof_Mn	Mn	0.61625	0.42877	0.99503	0.934
Mof_Mn	Mn	0.86809	0.57665	0.99526	0.932
Mof_N 	N 	0.67734	0.3145	0.93175	-0.187
Mof_O 	O 	0.81902	0.02526	0.55842	-0.387
Mof_O 	O 	0.71168	0.09745	0.57963	-0.377
Mof_C 	C 	0.77789	0.0667	0.59802	0.386
Mof_C 	C 	0.812	0.0838	0.6759	-0.104
Mof_C 	C 	0.77181	0.1349	0.72134	-0.001
Mof_H 	H 	0.7228	0.1583	0.704	0.041
Mof_C 	C 	0.8028	0.1525	0.79267	-0.036
Mof_C 	C 	0.8758	0.1177	0.8166	-0.024
Mof_H 	H 	0.8983	0.1302	0.8639	0.038
Mof_C 	C 	0.9154	0.0652	0.7719	-0.067
Mof_H 	H 	0.9642	0.0413	0.7893	0.054
Mof_C 	C 	0.8839	0.0473	0.70132	0.008
Mof_H 	H 	0.9109	0.011	0.6711	0.04
Mof_C 	C 	0.6426	0.2495	0.88742	0.095
Mof_H 	H 	0.5895	0.2401	0.8872	-0.002
Mof_C 	C 	0.6806	0.1952	0.84187	-0.16
Mof_H 	H 	0.6534	0.1505	0.8117	0.083
Mof_C 	C 	0.75941	0.2072	0.84102	0.097
Mof_C 	C 	0.7956	0.2726	0.88914	-0.159
Mof_H 	H 	0.849	0.2813	0.8925	0.091
Mof_C 	C 	0.75332	0.3246	0.93178	0.094
Mof_H 	H 	0.7791	0.3695	0.9626	0.008
Mof_N 	N 	0.54667	0.1631	0.56534	-0.194
Mof_O 	O 	0.41321	0.45687	0.93929	-0.379
Mof_O 	O 	0.52415	0.40372	0.90899	-0.383
Mof_C 	C 	0.45392	0.422	0.89601	0.378
Mof_C 	C 	0.41505	0.3967	0.82127	-0.101
Mof_C 	C 	0.45475	0.3469	0.77391	-0.003
Mof_H 	H 	0.5062	0.3298	0.7882	0.04
Mof_C 	C 	0.41927	0.322	0.70539	-0.036
Mof_C 	C 	0.3434	0.35	0.68424	-0.023
Mof_H 	H 	0.3193	0.335	0.6379	0.039
Mof_C 	C 	0.3036	0.3995	0.7309	-0.066
Mof_H 	H 	0.2525	0.4178	0.7163	0.053
Mof_C 	C 	0.33903	0.4225	0.79954	0.01
Mof_H 	H 	0.3115	0.4555	0.8313	0.039
Mof_C 	C 	0.5569	0.1511	0.63686	0.1
Mof_H 	H 	0.5933	0.1067	0.6564	-0.002
Mof_C 	C 	0.5169	0.2003	0.68327	-0.161
Mof_H 	H 	0.5264	0.1889	0.733	0.085
Mof_C 	C 	0.46221	0.2671	0.65645	0.102
Mof_C 	C 	0.4495	0.2761	0.58254	-0.166
Mof_H 	H 	0.4118	0.3178	0.5612	0.085
Mof_C 	C 	0.4922	0.2236	0.53989	0.105
Mof_H 	H 	0.482	0.2311	0.4898	-0.007
Mof_N 	N 	0.07156	0.18186	0.57069	-0.19
Mof_O 	O 	0.9236	0.46787	0.94136	-0.377
Mof_O 	O 	0.03529	0.40654	0.92003	-0.371
Mof_C 	C 	0.96777	0.434	0.90108	0.377
Mof_C 	C 	0.93696	0.421	0.82231	-0.102
Mof_C 	C 	0.97793	0.3691	0.77756	-0.009
Mof_H 	H 	0.0265	0.3453	0.7958	0.042
Mof_C 	C 	0.94854	0.3514	0.70607	-0.033
Mof_C 	C 	0.8769	0.3888	0.67996	-0.026
Mof_H 	H 	0.8557	0.3772	0.6321	0.04
Mof_C 	C 	0.8369	0.4425	0.7238	-0.064
Mof_H 	H 	0.7892	0.4684	0.705	0.056
Mof_C 	C 	0.8661	0.4588	0.79533	0.007
Mof_H 	H 	0.8383	0.4949	0.825	0.04
Mof_C 	C 	0.10807	0.2435	0.61723	0.095
Mof_H 	H 	0.1617	0.2487	0.6196	-0
Mof_C 	C 	0.07096	0.2995	0.66164	-0.16
Mof_H 	H 	0.0992	0.3415	0.6934	0.084
Mof_C 	C 	0.99137	0.2937	0.65937	0.094
Mof_C 	C 	0.9533	0.2307	0.61027	-0.155
Mof_H 	H 	0.8995	0.2257	0.6056	0.09
Mof_C 	C 	0.9946	0.176	0.56874	0.088
Mof_H 	H 	0.9679	0.1324	0.5374	0.013
Mof_N 	N 	0.80893	0.80721	0.55458	-0.19
Mof_O 	O 	0.66441	0.52839	0.92957	-0.381
Mof_O 	O 	0.77515	0.59036	0.9071	-0.38
Mof_C 	C 	0.70787	0.5617	0.88826	0.384
Mof_C 	C 	0.67728	0.5699	0.80889	-0.099
Mof_C 	C 	0.71694	0.6219	0.7631	-0.004
Mof_H 	H 	0.7635	0.6508	0.7813	0.04
Mof_C 	C 	0.68854	0.6321	0.68998	-0.033
Mof_C 	C 	0.6196	0.5876	0.66384	-0.026
Mof_H 	H 	0.5994	0.5941	0.6152	0.036
Mof_C 	C 	0.581	0.5342	0.7091	-0.064
Mof_H 	H 	0.5353	0.5034	0.6906	0.052
Mof_C 	C 	0.60894	0.5255	0.78194	0.007
Mof_H 	H 	0.5819	0.49	0.8126	0.043
Mof_C 	C 	0.84671	0.751	0.60451	0.093
Mof_H 	H 	0.9007	0.7509	0.6095	0.001
Mof_C 	C 	0.8109	0.6931	0.64897	-0.16
Mof_H 	H 	0.8404	0.6563	0.6837	0.085
Mof_C 	C 	0.73092	0.6895	0.6422	0.094
Mof_C 	C 	0.69202	0.7458	0.58887	-0.152
Mof_H 	H 	0.638	0.7448	0.581	0.086
Mof_C 	C 	0.7319	0.8031	0.54733	0.087
Mof_H 	H 	0.7038	0.8411	0.5124	0.014
Mof_Mn	Mn	0.38375	0.92877	0.50497	0.936
Mof_Mn	Mn	0.13191	0.07665	0.50474	0.937
Mof_N 	N 	0.32266	0.8145	0.56825	-0.185
Mof_O 	O 	0.18098	0.52526	0.94158	-0.384
Mof_O 	O 	0.28832	0.59745	0.92037	-0.376
Mof_C 	C 	0.22211	0.5667	0.90198	0.386
Mof_C 	C 	0.188	0.5838	0.8241	-0.104
Mof_C 	C 	0.22819	0.6349	0.77866	-0.002
Mof_H 	H 	0.2772	0.6583	0.796	0.041
Mof_C 	C 	0.1972	0.6525	0.70733	-0.035
Mof_C 	C 	0.1242	0.6177	0.6834	-0.023
Mof_H 	H 	0.1017	0.6302	0.6361	0.039
Mof_C 	C 	0.0846	0.5652	0.7281	-0.067
Mof_H 	H 	0.0358	0.5413	0.7107	0.056
Mof_C 	C 	0.1161	0.5473	0.79868	0.008
Mof_H 	H 	0.0891	0.511	0.8289	0.04
Mof_C 	C 	0.3574	0.7495	0.61258	0.095
Mof_H 	H 	0.4105	0.7401	0.6128	-0.002
Mof_C 	C 	0.3194	0.6952	0.65813	-0.16
Mof_H 	H 	0.3466	0.6505	0.6883	0.083
Mof_C 	C 	0.24059	0.7072	0.65898	0.097
Mof_C 	C 	0.2044	0.7726	0.61086	-0.158
Mof_H 	H 	0.151	0.7813	0.6075	0.092
Mof_C 	C 	0.24668	0.8246	0.56822	0.094
Mof_H 	H 	0.2209	0.8695	0.5374	0.008
Mof_N 	N 	0.45333	0.6631	0.93466	-0.193
Mof_O 	O 	0.58679	0.95687	0.56071	-0.379
Mof_O 	O 	0.47585	0.90372	0.59101	-0.383
Mof_C 	C 	0.54608	0.922	0.60399	0.379
Mof_C 	C 	0.58495	0.8967	0.67873	-0.101
Mof_C 	C 	0.54525	0.8469	0.72609	-0.003
Mof_H 	H 	0.4938	0.8298	0.7118	0.04
Mof_C 	C 	0.58073	0.822	0.79461	-0.036
Mof_C 	C 	0.6566	0.85	0.81576	-0.023
Mof_H 	H 	0.6807	0.835	0.8621	0.038
Mof_C 	C 	0.6964	0.8995	0.7691	-0.066
Mof_H 	H 	0.7475	0.9178	0.7837	0.053
Mof_C 	C 	0.66097	0.9225	0.70046	0.01
Mof_H 	H 	0.6885	0.9555	0.6687	0.039
Mof_C 	C 	0.4431	0.6511	0.86314	0.099
Mof_H 	H 	0.4067	0.6067	0.8436	-0.001
Mof_C 	C 	0.4831	0.7003	0.81673	-0.161
Mof_H 	H 	0.4736	0.6889	0.767	0.085
Mof_C 	C 	0.53779	0.7671	0.84355	0.102
Mof_C 	C 	0.5505	0.7761	0.91746	-0.166
Mof_H 	H 	0.5882	0.8178	0.9388	0.085
Mof_C 	C 	0.5078	0.7236	0.96011	0.105
Mof_H 	H 	0.518	0.7311	0.0102	-0.007
Mof_N 	N 	0.92844	0.68186	0.92931	-0.194
Mof_O 	O 	0.0764	0.96787	0.55864	-0.379
Mof_O 	O 	0.96471	0.90654	0.57997	-0.376
Mof_C 	C 	0.03223	0.934	0.59892	0.384
Mof_C 	C 	0.06304	0.921	0.67769	-0.109
Mof_C 	C 	0.02207	0.8691	0.72244	0.005
Mof_H 	H 	0.9735	0.8453	0.7042	0.036
Mof_C 	C 	0.05146	0.8514	0.79393	-0.042
Mof_C 	C 	0.1231	0.8888	0.82004	-0.019
Mof_H 	H 	0.1443	0.8772	0.8679	0.038
Mof_C 	C 	0.1631	0.9425	0.7762	-0.07
Mof_H 	H 	0.2108	0.9684	0.795	0.058
Mof_C 	C 	0.1339	0.9588	0.70467	0.013
Mof_H 	H 	0.1617	0.9949	0.675	0.038
Mof_C 	C 	0.89193	0.7435	0.88277	0.099
Mof_H 	H 	0.8383	0.7487	0.8804	-0.002
Mof_C 	C 	0.92904	0.7995	0.83836	-0.17
Mof_H 	H 	0.9008	0.8415	0.8066	0.088
Mof_C 	C 	0.00863	0.7937	0.84063	0.104
Mof_C 	C 	0.0467	0.7307	0.88973	-0.162
Mof_H 	H 	0.1005	0.7257	0.8944	0.093
Mof_C 	C 	0.0054	0.676	0.93126	0.096
Mof_H 	H 	0.0321	0.6324	0.9626	0.012
Mof_N 	N 	0.19107	0.30721	0.94542	-0.189
Mof_O 	O 	0.33559	0.02839	0.57043	-0.38
Mof_O 	O 	0.22485	0.09036	0.5929	-0.38
Mof_C 	C 	0.29213	0.0617	0.61174	0.385
Mof_C 	C 	0.32272	0.0699	0.69111	-0.099
Mof_C 	C 	0.28306	0.1219	0.7369	-0.004
Mof_H 	H 	0.2365	0.1508	0.7187	0.04
Mof_C 	C 	0.31146	0.1321	0.81002	-0.033
Mof_C 	C 	0.3804	0.0876	0.83616	-0.026
Mof_H 	H 	0.4006	0.0941	0.8848	0.037
Mof_C 	C 	0.419	0.0342	0.7909	-0.064
Mof_H 	H 	0.4647	0.0034	0.8094	0.052
Mof_C 	C 	0.39106	0.0255	0.71806	0.007
Mof_H 	H 	0.4181	0.99	0.6874	0.043
Mof_C 	C 	0.15329	0.251	0.89549	0.093
Mof_H 	H 	0.0993	0.2509	0.8905	0.002
Mof_C 	C 	0.1891	0.1931	0.85103	-0.16
Mof_H 	H 	0.1596	0.1563	0.8163	0.086
Mof_C 	C 	0.26908	0.1895	0.8578	0.094
Mof_C 	C 	0.30798	0.2458	0.91113	-0.151
Mof_H 	H 	0.362	0.2448	0.919	0.086
Mof_C 	C 	0.2681	0.3031	0.95267	0.087
Mof_H 	H 	0.2962	0.3411	0.9876	0.015
Mof_Mn	Mn	0.38375	0.57123	0.00497	0.935
Mof_Mn	Mn	0.13191	0.42335	0.00474	0.933
Mof_N 	N 	0.32266	0.6855	0.06825	-0.186
Mof_O 	O 	0.18098	0.97474	0.44158	-0.386
Mof_O 	O 	0.28832	0.90255	0.42037	-0.377
Mof_C 	C 	0.22211	0.9333	0.40198	0.386
Mof_C 	C 	0.188	0.9162	0.3241	-0.104
Mof_C 	C 	0.22819	0.8651	0.27866	-0.001
Mof_H 	H 	0.2772	0.8417	0.296	0.041
Mof_C 	C 	0.1972	0.8475	0.20733	-0.036
Mof_C 	C 	0.1242	0.8823	0.1834	-0.024
Mof_H 	H 	0.1017	0.8698	0.1361	0.038
Mof_C 	C 	0.0846	0.9348	0.2281	-0.067
Mof_H 	H 	0.0358	0.9587	0.2107	0.054
Mof_C 	C 	0.1161	0.9527	0.29868	0.008
Mof_H 	H 	0.0891	0.989	0.3289	0.04
Mof_C 	C 	0.3574	0.7505	0.11258	0.095
Mof_H 	H 	0.4105	0.7599	0.1128	-0.002
Mof_C 	C 	0.3194	0.8048	0.15813	-0.16
Mof_H 	H 	0.3466	0.8495	0.1883	0.083
Mof_C 	C 	0.24059	0.7928	0.15898	0.097
Mof_C 	C 	0.2044	0.7274	0.11086	-0.159
Mof_H 	H 	0.151	0.7187	0.1075	0.091
Mof_C 	C 	0.24668	0.6754	0.06822	0.094
Mof_H 	H 	0.2209	0.6305	0.0374	0.008
Mof_N 	N 	0.45333	0.8369	0.43466	-0.194
Mof_O 	O 	0.58679	0.54313	0.06071	-0.379
Mof_O 	O 	0.47585	0.59628	0.09101	-0.383
Mof_C 	C 	0.54608	0.578	0.10399	0.378
Mof_C 	C 	0.58495	0.6033	0.17873	-0.101
Mof_C 	C 	0.54525	0.6531	0.22609	-0.003
Mof_H 	H 	0.4938	0.6702	0.2118	0.04
Mof_C 	C 	0.58073	0.678	0.29461	-0.036
Mof_C 	C 	0.6566	0.65	0.31576	-0.023
Mof_H 	H 	0.6807	0.665	0.3621	0.039
Mof_C 	C 	0.6964	0.6005	0.2691	-0.066
Mof_H 	H 	0.7475	0.5822	0.2837	0.053
Mof_C 	C 	0.66097	0.5775	0.20046	0.01
Mof_H 	H 	0.6885	0.5445	0.1687	0.039
Mof_C 	C 	0.4431	0.8489	0.36314	0.1
Mof_H 	H 	0.4067	0.8933	0.3436	-0.002
Mof_C 	C 	0.4831	0.7997	0.31673	-0.161
Mof_H 	H 	0.4736	0.8111	0.267	0.085
Mof_C 	C 	0.53779	0.7329	0.34355	0.102
Mof_C 	C 	0.5505	0.7239	0.41746	-0.166
Mof_H 	H 	0.5882	0.6822	0.4388	0.085
Mof_C 	C 	0.5078	0.7764	0.46011	0.105
Mof_H 	H 	0.518	0.7689	0.5102	-0.007
Mof_N 	N 	0.92844	0.81814	0.42931	-0.19
Mof_O 	O 	0.0764	0.53213	0.05864	-0.377
Mof_O 	O 	0.96471	0.59346	0.07997	-0.371
Mof_C 	C 	0.03223	0.566	0.09892	0.377
Mof_C 	C 	0.06304	0.579	0.17769	-0.102
Mof_C 	C 	0.02207	0.6309	0.22244	-0.009
Mof_H 	H 	0.9735	0.6547	0.2042	0.042
Mof_C 	C 	0.05146	0.6486	0.29393	-0.033
Mof_C 	C 	0.1231	0.6112	0.32004	-0.026
Mof_H 	H 	0.1443	0.6228	0.3679	0.04
Mof_C 	C 	0.1631	0.5575	0.2762	-0.064
Mof_H 	H 	0.2108	0.5316	0.295	0.056
Mof_C 	C 	0.1339	0.5412	0.20467	0.007
Mof_H 	H 	0.1617	0.5051	0.175	0.04
Mof_C 	C 	0.89193	0.7565	0.38277	0.095
Mof_H 	H 	0.8383	0.7513	0.3804	-0
Mof_C 	C 	0.92904	0.7005	0.33836	-0.16
Mof_H 	H 	0.9008	0.6585	0.3066	0.084
Mof_C 	C 	0.00863	0.7063	0.34063	0.094
Mof_C 	C 	0.0467	0.7693	0.38973	-0.155
Mof_H 	H 	0.1005	0.7743	0.3944	0.09
Mof_C 	C 	0.0054	0.824	0.43126	0.088
Mof_H 	H 	0.0321	0.8676	0.4626	0.013
Mof_N 	N 	0.19107	0.19279	0.44542	-0.19
Mof_O 	O 	0.33559	0.47161	0.07043	-0.381
Mof_O 	O 	0.22485	0.40964	0.0929	-0.38
Mof_C 	C 	0.29213	0.4383	0.11174	0.384
Mof_C 	C 	0.32272	0.4301	0.19111	-0.099
Mof_C 	C 	0.28306	0.3781	0.2369	-0.004
Mof_H 	H 	0.2365	0.3492	0.2187	0.04
Mof_C 	C 	0.31146	0.3679	0.31002	-0.033
Mof_C 	C 	0.3804	0.4124	0.33616	-0.026
Mof_H 	H 	0.4006	0.4059	0.3848	0.036
Mof_C 	C 	0.419	0.4658	0.2909	-0.064
Mof_H 	H 	0.4647	0.4966	0.3094	0.052
Mof_C 	C 	0.39106	0.4745	0.21806	0.007
Mof_H 	H 	0.4181	0.51	0.1874	0.043
Mof_C 	C 	0.15329	0.249	0.39549	0.093
Mof_H 	H 	0.0993	0.2491	0.3905	0.001
Mof_C 	C 	0.1891	0.3069	0.35103	-0.16
Mof_H 	H 	0.1596	0.3437	0.3163	0.085
Mof_C 	C 	0.26908	0.3105	0.3578	0.094
Mof_C 	C 	0.30798	0.2542	0.41113	-0.152
Mof_H 	H 	0.362	0.2552	0.419	0.086
Mof_C 	C 	0.2681	0.1969	0.45267	0.087
Mof_H 	H 	0.2962	0.1589	0.4876	0.014
Mof_Mn	Mn	0.61625	0.07123	0.49503	0.936
Mof_Mn	Mn	0.86809	0.92335	0.49526	0.937
Mof_N 	N 	0.67734	0.1855	0.43175	-0.185
Mof_O 	O 	0.81902	0.47474	0.05842	-0.384
Mof_O 	O 	0.71168	0.40255	0.07963	-0.376
Mof_C 	C 	0.77789	0.4333	0.09802	0.386
Mof_C 	C 	0.812	0.4162	0.1759	-0.104
Mof_C 	C 	0.77181	0.3651	0.22134	-0.002
Mof_H 	H 	0.7228	0.3417	0.204	0.041
Mof_C 	C 	0.8028	0.3475	0.29267	-0.035
Mof_C 	C 	0.8758	0.3823	0.3166	-0.023
Mof_H 	H 	0.8983	0.3698	0.3639	0.039
Mof_C 	C 	0.9154	0.4348	0.2719	-0.067
Mof_H 	H 	0.9642	0.4587	0.2893	0.056
Mof_C 	C 	0.8839	0.4527	0.20132	0.008
Mof_H 	H 	0.9109	0.489	0.1711	0.04
Mof_C 	C 	0.6426	0.2505	0.38742	0.095
Mof_H 	H 	0.5895	0.2599	0.3872	-0.002
Mof_C 	C 	0.6806	0.3048	0.34187	-0.16
Mof_H 	H 	0.6534	0.3495	0.3117	0.083
Mof_C 	C 	0.75941	0.2928	0.34102	0.097
Mof_C 	C 	0.7956	0.2274	0.38914	-0.158
Mof_H 	H 	0.849	0.2187	0.3925	0.092
Mof_C 	C 	0.75332	0.1754	0.43178	0.094
Mof_H 	H 	0.7791	0.1305	0.4626	0.008
Mof_N 	N 	0.54667	0.3369	0.06534	-0.193
Mof_O 	O 	0.41321	0.04313	0.43929	-0.379
Mof_O 	O 	0.52415	0.09628	0.40899	-0.383
Mof_C 	C 	0.45392	0.078	0.39601	0.379
Mof_C 	C 	0.41505	0.1033	0.32127	-0.101
Mof_C 	C 	0.45475	0.1531	0.27391	-0.003
Mof_H 	H 	0.5062	0.1702	0.2882	0.04
Mof_C 	C 	0.41927	0.178	0.20539	-0.036
Mof_C 	C 	0.3434	0.15	0.18424	-0.023
Mof_H 	H 	0.3193	0.165	0.1379	0.038
Mof_C 	C 	0.3036	0.1005	0.2309	-0.066
Mof_H 	H 	0.2525	0.0822	0.2163	0.053
Mof_C 	C 	0.33903	0.0775	0.29954	0.01
Mof_H 	H 	0.3115	0.0445	0.3313	0.039
Mof_C 	C 	0.5569	0.3489	0.13686	0.099
Mof_H 	H 	0.5933	0.3933	0.1564	-0.001
Mof_C 	C 	0.5169	0.2997	0.18327	-0.161
Mof_H 	H 	0.5264	0.3111	0.233	0.085
Mof_C 	C 	0.46221	0.2329	0.15645	0.102
Mof_C 	C 	0.4495	0.2239	0.08254	-0.166
Mof_H 	H 	0.4118	0.1822	0.0612	0.085
Mof_C 	C 	0.4922	0.2764	0.03989	0.105
Mof_H 	H 	0.482	0.2689	0.9898	-0.007
Mof_N 	N 	0.07156	0.31814	0.07069	-0.194
Mof_O 	O 	0.9236	0.03213	0.44136	-0.379
Mof_O 	O 	0.03529	0.09346	0.42003	-0.376
Mof_C 	C 	0.96777	0.066	0.40108	0.384
Mof_C 	C 	0.93696	0.079	0.32231	-0.109
Mof_C 	C 	0.97793	0.1309	0.27756	0.005
Mof_H 	H 	0.0265	0.1547	0.2958	0.036
Mof_C 	C 	0.94854	0.1486	0.20607	-0.042
Mof_C 	C 	0.8769	0.1112	0.17996	-0.019
Mof_H 	H 	0.8557	0.1228	0.1321	0.038
Mof_C 	C 	0.8369	0.0575	0.2238	-0.07
Mof_H 	H 	0.7892	0.0316	0.205	0.058
Mof_C 	C 	0.8661	0.0412	0.29533	0.013
Mof_H 	H 	0.8383	0.0051	0.325	0.038
Mof_C 	C 	0.10807	0.2565	0.11723	0.099
Mof_H 	H 	0.1617	0.2513	0.1196	-0.002
Mof_C 	C 	0.07096	0.2005	0.16164	-0.17
Mof_H 	H 	0.0992	0.1585	0.1934	0.088
Mof_C 	C 	0.99137	0.2063	0.15937	0.104
Mof_C 	C 	0.9533	0.2693	0.11027	-0.162
Mof_H 	H 	0.8995	0.2743	0.1056	0.093
Mof_C 	C 	0.9946	0.324	0.06874	0.096
Mof_H 	H 	0.9679	0.3676	0.0374	0.012
Mof_N 	N 	0.80893	0.69279	0.05458	-0.189
Mof_O 	O 	0.66441	0.97161	0.42957	-0.38
Mof_O 	O 	0.77515	0.90964	0.4071	-0.38
Mof_C 	C 	0.70787	0.9383	0.38826	0.385
Mof_C 	C 	0.67728	0.9301	0.30889	-0.099
Mof_C 	C 	0.71694	0.8781	0.2631	-0.004
Mof_H 	H 	0.7635	0.8492	0.2813	0.04
Mof_C 	C 	0.68854	0.8679	0.18998	-0.033
Mof_C 	C 	0.6196	0.9124	0.16384	-0.026
Mof_H 	H 	0.5994	0.9059	0.1152	0.037
Mof_C 	C 	0.581	0.9658	0.2091	-0.064
Mof_H 	H 	0.5353	0.9966	0.1906	0.052
Mof_C 	C 	0.60894	0.9745	0.28194	0.007
Mof_H 	H 	0.5819	0.01	0.3126	0.043
Mof_C 	C 	0.84671	0.749	0.10451	0.093
Mof_H 	H 	0.9007	0.7491	0.1095	0.002
Mof_C 	C 	0.8109	0.8069	0.14897	-0.16
Mof_H 	H 	0.8404	0.8437	0.1837	0.086
Mof_C 	C 	0.73092	0.8105	0.1422	0.094
Mof_C 	C 	0.69202	0.7542	0.08887	-0.151
Mof_H 	H 	0.638	0.7552	0.081	0.086
Mof_C 	C 	0.7319	0.6969	0.04733	0.087
Mof_H 	H 	0.7038	0.6589	0.0124	0.015
_end
