data_functionalizedCrystal
_audit_creation_method	'EQeq! by Chris Wilmer'
_symmetry_space_group_name_H-M	'P1'
_symmetry_Int_Tables_number	1
_symmetry_cell_setting	triclinic
loop_
_symmetry_equiv_pos_as_xyz
  x,y,z
_cell_length_a	17.859
_cell_length_b	17.086
_cell_length_c	7.9378
_cell_angle_alpha	90
_cell_angle_beta	111.577
_cell_angle_gamma	90
loop_
_atom_site_label
_atom_site_type_symbol
_atom_site_fract_x
_atom_site_fract_y
_atom_site_fract_z
_atom_site_charge
Mof_O 	O 	0.3234	0.1905	0.208	-0.343
Mof_O 	O 	0.2594	0.0927	0.016	-0.265
Mof_O 	O 	0.4298	0.0745	0.391	0.251
Mof_O 	O 	0.2428	0.071	0.069	-0.06
Mof_O 	O 	0.3163	0.1711	0.166	-0.007
Mof_C 	C 	0.313	0.1229	0.167	0.081
Mof_C 	C 	0.3708	0.059	0.288	-0.055
Mof_C 	C 	0.4492	0.0982	0.394	-0.471
Mof_H 	H 	0.4537	0.1541	0.3889	0.2
Mof_C 	C 	0.5185	0.0518	0.509	0.017
Mof_H 	H 	0.5681	0.0773	0.5789	0.071
Mof_C 	C 	0.4904	0.0259	0.4866	0.018
Mof_C 	C 	0.561	0.0617	0.5844	0.031
Mof_H 	H 	0.5655	0.1176	0.5796	0.001
Mof_C 	C 	0.3741	0.9813	0.3087	-0.453
Mof_H 	H 	0.3245	0.9558	0.2384	0.133
Mof_C 	C 	0.367	0.037	0.269	-0.041
Mof_H 	H 	0.3794	0.0013	0.1905	0.169
Mof_H 	H 	0.3403	0.0093	0.3363	0.212
Mof_C 	C 	0.305	0.1011	0.155	0.148
Mof_N 	N 	0.1606	0.2391	0.0943	-0.305
Mof_C 	C 	0.1704	0.2578	0.2621	0.161
Mof_H 	H 	0.2214	0.2733	0.3392	-0.035
Mof_C 	C 	0.1094	0.2557	0.3307	-0.26
Mof_H 	H 	0.1196	0.2696	0.4504	0.127
Mof_C 	C 	0.0342	0.2328	0.2196	0.201
Mof_C 	C 	0.0243	0.2123	0.044	-0.467
Mof_H 	H 	0.9744	0.1956	0.9636	0.232
Mof_C 	C 	0.0889	0.217	0.9892	0.341
Mof_H 	H 	0.0808	0.2036	0.8702	-0.093
Mof_O 	O 	0.8234	0.6905	0.208	-0.343
Mof_O 	O 	0.7594	0.5927	0.016	-0.266
Mof_O 	O 	0.9298	0.5745	0.391	0.249
Mof_O 	O 	0.7428	0.571	0.069	-0.057
Mof_O 	O 	0.8163	0.6711	0.166	-0.006
Mof_C 	C 	0.813	0.6229	0.167	0.08
Mof_C 	C 	0.8708	0.559	0.288	-0.052
Mof_C 	C 	0.9492	0.5982	0.394	-0.439
Mof_H 	H 	0.9537	0.6541	0.3889	0.195
Mof_C 	C 	0.0185	0.5518	0.509	0.101
Mof_H 	H 	0.0681	0.5773	0.5789	0.027
Mof_C 	C 	0.9904	0.5259	0.4866	-0.107
Mof_C 	C 	0.061	0.5617	0.5844	0.038
Mof_H 	H 	0.0655	0.6176	0.5796	0.009
Mof_C 	C 	0.8741	0.4813	0.3087	-0.459
Mof_H 	H 	0.8245	0.4558	0.2384	0.132
Mof_C 	C 	0.867	0.537	0.269	-0.043
Mof_H 	H 	0.8794	0.5013	0.1905	0.177
Mof_H 	H 	0.8403	0.5093	0.3363	0.219
Mof_C 	C 	0.805	0.6011	0.155	0.147
Mof_N 	N 	0.6606	0.7391	0.0943	-0.298
Mof_C 	C 	0.6704	0.7578	0.2621	0.156
Mof_H 	H 	0.7214	0.7733	0.3392	-0.033
Mof_C 	C 	0.6094	0.7557	0.3307	-0.25
Mof_H 	H 	0.6196	0.7696	0.4504	0.126
Mof_C 	C 	0.5342	0.7328	0.2196	0.194
Mof_C 	C 	0.5243	0.7123	0.044	-0.41
Mof_H 	H 	0.4744	0.6956	0.9636	0.199
Mof_C 	C 	0.5889	0.717	0.9892	0.315
Mof_H 	H 	0.5808	0.7036	0.8702	-0.08
Mof_O 	O 	0.6766	0.1905	0.292	-0.324
Mof_O 	O 	0.7406	0.0927	0.484	-0.238
Mof_O 	O 	0.5702	0.0745	0.109	0.254
Mof_O 	O 	0.7572	0.071	0.431	-0.069
Mof_O 	O 	0.6837	0.1711	0.334	-0.027
Mof_C 	C 	0.687	0.1229	0.333	0.073
Mof_C 	C 	0.6292	0.059	0.212	-0.052
Mof_C 	C 	0.5508	0.0982	0.106	-0.531
Mof_H 	H 	0.5463	0.1541	0.1111	0.211
Mof_C 	C 	0.4815	0.0518	0.991	-0.12
Mof_H 	H 	0.4319	0.0773	0.9211	0.126
Mof_C 	C 	0.5096	0.0259	0.0134	0.232
Mof_C 	C 	0.439	0.0617	0.9156	0.029
Mof_H 	H 	0.4345	0.1176	0.9204	-0.002
Mof_C 	C 	0.6259	0.9813	0.1913	-0.493
Mof_H 	H 	0.6755	0.9558	0.2616	0.146
Mof_C 	C 	0.633	0.037	0.231	-0.041
Mof_H 	H 	0.6206	0.0013	0.3095	0.182
Mof_H 	H 	0.6597	0.0093	0.1637	0.215
Mof_C 	C 	0.695	0.1011	0.345	0.157
Mof_N 	N 	0.8394	0.2391	0.4057	-0.217
Mof_C 	C 	0.8296	0.2578	0.2379	0.068
Mof_H 	H 	0.7786	0.2733	0.1608	-0.011
Mof_C 	C 	0.8906	0.2557	0.1693	-0.104
Mof_H 	H 	0.8804	0.2696	0.0496	0.06
Mof_C 	C 	0.9658	0.2328	0.2804	-0.01
Mof_C 	C 	0.9757	0.2123	0.456	-0.058
Mof_H 	H 	0.0256	0.1956	0.5364	0.038
Mof_C 	C 	0.9111	0.217	0.5108	0.06
Mof_H 	H 	0.9192	0.2036	0.6298	0.006
Mof_O 	O 	0.1766	0.6905	0.292	-0.322
Mof_O 	O 	0.2406	0.5927	0.484	-0.236
Mof_O 	O 	0.0702	0.5745	0.109	0.248
Mof_O 	O 	0.2572	0.571	0.431	-0.072
Mof_O 	O 	0.1837	0.6711	0.334	-0.029
Mof_C 	C 	0.187	0.6229	0.333	0.07
Mof_C 	C 	0.1292	0.559	0.212	-0.047
Mof_C 	C 	0.0508	0.5982	0.106	-0.553
Mof_H 	H 	0.0463	0.6541	0.1111	0.212
Mof_C 	C 	0.9815	0.5518	0.991	-0.179
Mof_H 	H 	0.9319	0.5773	0.9211	0.146
Mof_C 	C 	0.0096	0.5259	0.0134	0.338
Mof_C 	C 	0.939	0.5617	0.9156	0.027
Mof_H 	H 	0.9345	0.6176	0.9204	-0.003
Mof_C 	C 	0.1259	0.4813	0.1913	-0.536
Mof_H 	H 	0.1755	0.4558	0.2616	0.154
Mof_C 	C 	0.133	0.537	0.231	-0.04
Mof_H 	H 	0.1206	0.5013	0.3095	0.19
Mof_H 	H 	0.1597	0.5093	0.1637	0.23
Mof_C 	C 	0.195	0.6011	0.345	0.157
Mof_N 	N 	0.3394	0.7391	0.4057	-0.224
Mof_C 	C 	0.3296	0.7578	0.2379	0.074
Mof_H 	H 	0.2786	0.7733	0.1608	-0.013
Mof_C 	C 	0.3906	0.7557	0.1693	-0.113
Mof_H 	H 	0.3804	0.7696	0.0496	0.062
Mof_C 	C 	0.4658	0.7328	0.2804	-0.002
Mof_C 	C 	0.4757	0.7123	0.456	-0.116
Mof_H 	H 	0.5256	0.6956	0.5364	0.073
Mof_C 	C 	0.4111	0.717	0.5108	0.086
Mof_H 	H 	0.4192	0.7036	0.6298	-0.007
Mof_O 	O 	0.6766	0.8095	0.792	-0.319
Mof_O 	O 	0.7406	0.9073	0.984	-0.22
Mof_O 	O 	0.5702	0.9255	0.609	0.246
Mof_O 	O 	0.7572	0.929	0.931	-0.063
Mof_O 	O 	0.6837	0.8289	0.834	-0.015
Mof_C 	C 	0.687	0.8771	0.833	0.071
Mof_C 	C 	0.6292	0.941	0.712	-0.046
Mof_C 	C 	0.5508	0.9018	0.606	-0.466
Mof_H 	H 	0.5463	0.8459	0.6111	0.198
Mof_C 	C 	0.4815	0.9482	0.491	0.033
Mof_H 	H 	0.4319	0.9227	0.4211	0.042
Mof_C 	C 	0.5096	0.9741	0.5134	0.007
Mof_C 	C 	0.439	0.9383	0.4156	0.042
Mof_H 	H 	0.4345	0.8824	0.4204	0.009
Mof_C 	C 	0.6259	0.0187	0.6913	-0.516
Mof_H 	H 	0.6755	0.0442	0.7616	0.154
Mof_C 	C 	0.633	0.963	0.731	-0.04
Mof_H 	H 	0.6206	0.9987	0.8095	0.197
Mof_H 	H 	0.6597	0.9907	0.6637	0.237
Mof_C 	C 	0.695	0.8989	0.845	0.153
Mof_N 	N 	0.8394	0.7609	0.9057	-0.156
Mof_C 	C 	0.8296	0.7422	0.7379	0.041
Mof_H 	H 	0.7786	0.7267	0.6608	0.011
Mof_C 	C 	0.8906	0.7443	0.6693	-0.056
Mof_H 	H 	0.8804	0.7304	0.5496	0.06
Mof_C 	C 	0.9658	0.7672	0.7804	-0.057
Mof_C 	C 	0.9757	0.7877	0.956	0.144
Mof_H 	H 	0.0256	0.8044	0.0364	-0.058
Mof_C 	C 	0.9111	0.783	0.0108	-0.119
Mof_H 	H 	0.9192	0.7964	0.1298	0.061
Mof_O 	O 	0.1766	0.3095	0.792	-0.319
Mof_O 	O 	0.2406	0.4073	0.984	-0.22
Mof_O 	O 	0.0702	0.4255	0.609	0.247
Mof_O 	O 	0.2572	0.429	0.931	-0.066
Mof_O 	O 	0.1837	0.3289	0.834	-0.016
Mof_C 	C 	0.187	0.3771	0.833	0.071
Mof_C 	C 	0.1292	0.441	0.712	-0.048
Mof_C 	C 	0.0508	0.4018	0.606	-0.497
Mof_H 	H 	0.0463	0.3459	0.6111	0.203
Mof_C 	C 	0.9815	0.4482	0.491	-0.05
Mof_H 	H 	0.9319	0.4227	0.4211	0.085
Mof_C 	C 	0.0096	0.4741	0.5134	0.131
Mof_C 	C 	0.939	0.4383	0.4156	0.035
Mof_H 	H 	0.9345	0.3824	0.4204	0.001
Mof_C 	C 	0.1259	0.5187	0.6913	-0.515
Mof_H 	H 	0.1755	0.5442	0.7616	0.155
Mof_C 	C 	0.133	0.463	0.731	-0.038
Mof_H 	H 	0.1206	0.4987	0.8095	0.191
Mof_H 	H 	0.1597	0.4907	0.6637	0.232
Mof_C 	C 	0.195	0.3989	0.845	0.154
Mof_N 	N 	0.3394	0.2609	0.9057	-0.161
Mof_C 	C 	0.3296	0.2422	0.7379	0.045
Mof_H 	H 	0.2786	0.2267	0.6608	0.009
Mof_C 	C 	0.3906	0.2443	0.6693	-0.062
Mof_H 	H 	0.3804	0.2304	0.5496	0.06
Mof_C 	C 	0.4658	0.2672	0.7804	-0.055
Mof_C 	C 	0.4757	0.2877	0.956	0.095
Mof_H 	H 	0.5256	0.3044	0.0364	-0.029
Mof_C 	C 	0.4111	0.283	0.0108	-0.1
Mof_H 	H 	0.4192	0.2964	0.1298	0.049
Mof_O 	O 	0.3234	0.8095	0.708	-0.342
Mof_O 	O 	0.2594	0.9073	0.516	-0.252
Mof_O 	O 	0.4298	0.9255	0.891	0.245
Mof_O 	O 	0.2428	0.929	0.569	-0.052
Mof_O 	O 	0.3163	0.8289	0.666	0.002
Mof_C 	C 	0.313	0.8771	0.667	0.079
Mof_C 	C 	0.3708	0.941	0.788	-0.05
Mof_C 	C 	0.4492	0.9018	0.894	-0.409
Mof_H 	H 	0.4537	0.8459	0.8889	0.189
Mof_C 	C 	0.5185	0.9482	0.009	0.156
Mof_H 	H 	0.5681	0.9227	0.0789	-0.009
Mof_C 	C 	0.4904	0.9741	0.9866	-0.197
Mof_C 	C 	0.561	0.9383	0.0844	0.046
Mof_H 	H 	0.5655	0.8824	0.0796	0.012
Mof_C 	C 	0.3741	0.0187	0.8087	-0.474
Mof_H 	H 	0.3245	0.0442	0.7384	0.141
Mof_C 	C 	0.367	0.963	0.769	-0.041
Mof_H 	H 	0.3794	0.9987	0.6905	0.184
Mof_H 	H 	0.3403	0.9907	0.8363	0.234
Mof_C 	C 	0.305	0.8989	0.655	0.146
Mof_N 	N 	0.1606	0.7609	0.5943	-0.247
Mof_C 	C 	0.1704	0.7422	0.7621	0.133
Mof_H 	H 	0.2214	0.7267	0.8392	-0.014
Mof_C 	C 	0.1094	0.7443	0.8307	-0.21
Mof_H 	H 	0.1196	0.7304	0.9504	0.125
Mof_C 	C 	0.0342	0.7672	0.7196	0.149
Mof_C 	C 	0.0243	0.7877	0.544	-0.261
Mof_H 	H 	0.9744	0.8044	0.4636	0.134
Mof_C 	C 	0.0889	0.783	0.4892	0.159
Mof_H 	H 	0.0808	0.7964	0.3702	-0.039
Mof_O 	O 	0.8234	0.3095	0.708	-0.345
Mof_O 	O 	0.7594	0.4073	0.516	-0.254
Mof_O 	O 	0.9298	0.4255	0.891	0.248
Mof_O 	O 	0.7428	0.429	0.569	-0.049
Mof_O 	O 	0.8163	0.3289	0.666	0.005
Mof_C 	C 	0.813	0.3771	0.667	0.082
Mof_C 	C 	0.8708	0.441	0.788	-0.054
Mof_C 	C 	0.9492	0.4018	0.894	-0.383
Mof_H 	H 	0.9537	0.3459	0.8889	0.186
Mof_C 	C 	0.0185	0.4482	0.009	0.231
Mof_H 	H 	0.0681	0.4227	0.0789	-0.034
Mof_C 	C 	0.9904	0.4741	0.9866	-0.314
Mof_C 	C 	0.061	0.4383	0.0844	0.046
Mof_H 	H 	0.0655	0.3824	0.0796	0.014
Mof_C 	C 	0.8741	0.5187	0.8087	-0.437
Mof_H 	H 	0.8245	0.5442	0.7384	0.133
Mof_C 	C 	0.867	0.463	0.769	-0.041
Mof_H 	H 	0.8794	0.4987	0.6905	0.178
Mof_H 	H 	0.8403	0.4907	0.8363	0.222
Mof_C 	C 	0.805	0.3989	0.655	0.146
Mof_N 	N 	0.6606	0.2609	0.5943	-0.241
Mof_C 	C 	0.6704	0.2422	0.7621	0.128
Mof_H 	H 	0.7214	0.2267	0.8392	-0.012
Mof_C 	C 	0.6094	0.2443	0.8307	-0.202
Mof_H 	H 	0.6196	0.2304	0.9504	0.125
Mof_C 	C 	0.5342	0.2672	0.7196	0.146
Mof_C 	C 	0.5243	0.2877	0.544	-0.204
Mof_H 	H 	0.4744	0.3044	0.4636	0.1
Mof_C 	C 	0.5889	0.283	0.4892	0.134
Mof_H 	H 	0.5808	0.2964	0.3702	-0.026
Mof_Cu	Cu	0.25	0.25	-0	0.886
Mof_Cu	Cu	0.75	0.25	0.5	0.903
Mof_Cu	Cu	0.75	0.75	-0	0.886
Mof_Cu	Cu	0.25	0.75	0.5	0.903
_end
