data_functionalizedCrystal
_audit_creation_method	'EQeq! by Chris Wilmer'
_symmetry_space_group_name_H-M	'P1'
_symmetry_Int_Tables_number	1
_symmetry_cell_setting	triclinic
loop_
_symmetry_equiv_pos_as_xyz
  x,y,z
_cell_length_a	8.838
_cell_length_b	15.987
_cell_length_c	16.92
_cell_angle_alpha	90
_cell_angle_beta	90
_cell_angle_gamma	90
loop_
_atom_site_label
_atom_site_type_symbol
_atom_site_fract_x
_atom_site_fract_y
_atom_site_fract_z
_atom_site_charge
Mof_Cu	Cu	0.0704	0.19389	0.78161	0.899
Mof_Cu	Cu	0.0704	0.69389	0.71839	0.899
Mof_Cu	Cu	0.5704	0.80611	0.21839	0.904
Mof_Cu	Cu	0.5704	0.30611	0.28161	0.904
Mof_H 	H 	0.9996	0.6543	0.2957	0.072
Mof_H 	H 	0.6577	0.5186	0.3494	0.036
Mof_H 	H 	0.6104	0.2384	0.6222	0.067
Mof_H 	H 	0.9293	0.019	0.3107	0.143
Mof_H 	H 	0.6281	0.9005	0.6045	0.037
Mof_H 	H 	0.5373	0.7181	0.5577	0.084
Mof_H 	H 	0.6577	0.0186	0.1506	0.038
Mof_H 	H 	0.3628	0.6803	0.1525	0.037
Mof_H 	H 	0.7493	0.4517	0.457	0.069
Mof_H 	H 	0.4293	0.481	0.8107	0.133
Mof_H 	H 	0.1765	0.8791	0.1274	0.048
Mof_H 	H 	0.3827	0.4813	0.4492	0.043
Mof_H 	H 	0.8454	0.7352	0.4285	0.049
Mof_H 	H 	0.9293	0.519	0.1893	0.143
Mof_H 	H 	0.5373	0.2181	0.9423	0.084
Mof_H 	H 	0.3141	0.0857	0.7271	-0.006
Mof_H 	H 	0.7869	0.7656	0.0929	0.016
Mof_H 	H 	0.2493	0.5483	0.543	0.066
Mof_H 	H 	0.1281	0.5995	0.1045	0.037
Mof_H 	H 	0.8628	0.8197	0.6525	0.039
Mof_H 	H 	0.4293	0.981	0.6893	0.133
Mof_H 	H 	0.6765	0.1209	0.8726	0.036
Mof_H 	H 	0.8628	0.3197	0.8475	0.039
Mof_H 	H 	0.8141	0.9143	0.2729	-0.005
Mof_H 	H 	0.4996	0.3457	0.7043	0.055
Mof_H 	H 	0.7493	0.9517	0.043	0.066
Mof_H 	H 	0.8827	0.5187	0.5508	0.045
Mof_H 	H 	0.1577	0.4814	0.6506	0.034
Mof_H 	H 	0.3628	0.1803	0.3475	0.037
Mof_H 	H 	0.6765	0.6209	0.6274	0.036
Mof_H 	H 	0.6281	0.4005	0.8955	0.037
Mof_H 	H 	0.3454	0.7648	0.9285	0.048
Mof_H 	H 	0.3341	0.3271	0.1584	0.018
Mof_H 	H 	0.8341	0.1729	0.6584	0.019
Mof_H 	H 	0.3341	0.8271	0.3416	0.018
Mof_H 	H 	0.3454	0.2648	0.5715	0.047
Mof_H 	H 	0.8341	0.6729	0.8416	0.019
Mof_H 	H 	0.8141	0.4143	0.2271	-0.005
Mof_H 	H 	0.4996	0.8457	0.7957	0.055
Mof_H 	H 	0.1577	0.9814	0.8494	0.037
Mof_H 	H 	0.2869	0.7344	0.5929	0.005
Mof_H 	H 	0.6104	0.7384	0.8778	0.068
Mof_H 	H 	0.1104	0.7616	0.3778	0.06
Mof_H 	H 	0.1281	0.0995	0.3955	0.037
Mof_H 	H 	0.3827	0.9813	0.0508	0.046
Mof_H 	H 	0.1104	0.2616	0.1222	0.06
Mof_H 	H 	0.0373	0.2819	0.4423	0.055
Mof_H 	H 	0.9996	0.1543	0.2043	0.072
Mof_H 	H 	0.3141	0.5857	0.7729	-0.006
Mof_H 	H 	0.1765	0.3791	0.3726	0.049
Mof_H 	H 	0.0373	0.7819	0.0577	0.057
Mof_H 	H 	0.8454	0.2352	0.0715	0.05
Mof_H 	H 	0.7869	0.2656	0.4071	0.017
Mof_H 	H 	0.2493	0.0483	0.957	0.06
Mof_H 	H 	0.8827	0.0187	0.9492	0.047
Mof_H 	H 	0.2869	0.2344	0.9071	0.005
Mof_C 	C 	0.8076	0.3039	0.8016	0.022
Mof_C 	C 	0.8491	0.3002	0.3751	0.063
Mof_C 	C 	0.9739	0.6827	0.5581	0.332
Mof_C 	C 	0.3612	0.1121	0.7709	0.066
Mof_C 	C 	0.8612	0.8879	0.2291	0.073
Mof_C 	C 	0.675	0.8452	0.7137	0.009
Mof_C 	C 	0.6144	0.9047	0.66	0.017
Mof_C 	C 	0.675	0.3452	0.7863	0.009
Mof_C 	C 	0.7679	0.5099	0.4511	-0.086
Mof_C 	C 	0.575	0.1326	0.8572	0.052
Mof_C 	C 	0.7679	0.0099	0.0489	-0.077
Mof_C 	C 	0.4739	0.3173	0.4419	0.315
Mof_C 	C 	0.7397	0.1354	0.1199	-0.071
Mof_C 	C 	0.3785	0.8669	0.9983	-0.078
Mof_C 	C 	0.1144	0.0953	0.34	0.01
Mof_C 	C 	0.2133	0.9515	0.8882	0.009
Mof_C 	C 	0.7133	0.5485	0.3882	0.019
Mof_C 	C 	0.66	0.755	0.8306	-0.066
Mof_C 	C 	0.6144	0.4047	0.84	0.017
Mof_C 	C 	0.8612	0.3879	0.2709	0.073
Mof_C 	C 	0.2397	0.3646	0.6199	-0.075
Mof_C 	C 	0.3491	0.6998	0.6249	0.09
Mof_C 	C 	0.1144	0.5953	0.16	0.01
Mof_C 	C 	0.175	0.1548	0.2863	0.019
Mof_C 	C 	0.2929	0.2834	0.1897	0.037
Mof_C 	C 	0.3076	0.1961	0.3016	0.015
Mof_C 	C 	0.1011	0.4742	0.2429	0.235
Mof_C 	C 	0.8076	0.8039	0.6984	0.022
Mof_C 	C 	0.2397	0.8646	0.8801	-0.071
Mof_C 	C 	0.175	0.6548	0.2137	0.019
Mof_C 	C 	0.8243	0.1772	0.0656	0.014
Mof_C 	C 	0.2133	0.4515	0.6118	0.016
Mof_C 	C 	0.3076	0.6961	0.1984	0.015
Mof_C 	C 	0.8785	0.1331	0.0017	-0.082
Mof_C 	C 	0.7929	0.2166	0.6897	0.045
Mof_C 	C 	0.6011	0.5258	0.7571	0.238
Mof_C 	C 	0.575	0.6326	0.6428	0.052
Mof_C 	C 	0.9952	0.8116	0.101	-0.076
Mof_C 	C 	0.4739	0.8173	0.0581	0.313
Mof_C 	C 	0.093	0.6795	0.2821	-0.053
Mof_C 	C 	0.0147	0.4087	0.2921	-0.089
Mof_C 	C 	0.6725	0.6874	0.3091	0.31
Mof_C 	C 	0.593	0.8205	0.7821	-0.025
Mof_C 	C 	0.5147	0.0913	0.7921	-0.092
Mof_C 	C 	0.3243	0.3228	0.5656	0.014
Mof_C 	C 	0.9952	0.3116	0.399	-0.072
Mof_C 	C 	0.3243	0.8228	0.9344	0.01
Mof_C 	C 	0.075	0.8674	0.1428	0.011
Mof_C 	C 	0.8243	0.6772	0.4344	0.017
Mof_C 	C 	0.3472	0.4513	0.494	0.021
Mof_C 	C 	0.3785	0.3669	0.5017	-0.084
Mof_C 	C 	0.5147	0.5913	0.7079	-0.092
Mof_C 	C 	0.8472	0.0487	0.994	0.017
Mof_C 	C 	0.66	0.255	0.6694	-0.066
Mof_C 	C 	0.0147	0.9087	0.2079	-0.09
Mof_C 	C 	0.2679	0.9901	0.9511	-0.073
Mof_C 	C 	0.16	0.745	0.3306	-0.054
Mof_C 	C 	0.7133	0.0485	0.1118	0.014
Mof_C 	C 	0.8472	0.5487	0.506	0.025
Mof_C 	C 	0.4952	0.1884	0.899	-0.136
Mof_C 	C 	0.093	0.1795	0.2179	-0.053
Mof_C 	C 	0.9739	0.1827	0.9419	0.331
Mof_C 	C 	0.3612	0.6121	0.7291	0.067
Mof_C 	C 	0.6725	0.1874	0.1909	0.309
Mof_C 	C 	0.3491	0.1998	0.8751	0.09
Mof_C 	C 	0.8491	0.8002	0.1249	0.065
Mof_C 	C 	0.7397	0.6354	0.3801	-0.075
Mof_C 	C 	0.2679	0.4901	0.5489	-0.085
Mof_C 	C 	0.3472	0.9513	0.006	0.012
Mof_C 	C 	0.4952	0.6884	0.601	-0.136
Mof_C 	C 	0.1011	0.9742	0.2571	0.236
Mof_C 	C 	0.16	0.245	0.1694	-0.054
Mof_C 	C 	0.593	0.3205	0.7179	-0.025
Mof_C 	C 	0.1725	0.8126	0.8091	0.307
Mof_C 	C 	0.6011	0.0258	0.7429	0.237
Mof_C 	C 	0.8785	0.6331	0.4983	-0.086
Mof_C 	C 	0.1725	0.3126	0.6909	0.309
Mof_C 	C 	0.7929	0.7166	0.8103	0.045
Mof_C 	C 	0.2929	0.7834	0.3103	0.036
Mof_C 	C 	0.075	0.3674	0.3572	0.008
Mof_N 	N 	0.8641	0.7435	0.7431	-0.19
Mof_N 	N 	0.3641	0.7565	0.2431	-0.191
Mof_N 	N 	0.7879	0.3326	0.3124	-0.215
Mof_N 	N 	0.5269	0.9748	0.6976	-0.223
Mof_N 	N 	0.8641	0.2435	0.7569	-0.19
Mof_N 	N 	0.0269	0.0252	0.3024	-0.233
Mof_N 	N 	0.2879	0.6674	0.6876	-0.221
Mof_N 	N 	0.5269	0.4748	0.8024	-0.224
Mof_N 	N 	0.2879	0.1674	0.8124	-0.221
Mof_N 	N 	0.0269	0.5252	0.1976	-0.232
Mof_N 	N 	0.7879	0.8326	0.1876	-0.215
Mof_N 	N 	0.3641	0.2565	0.2569	-0.191
Mof_O 	O 	0.019	0.7533	0.5462	-0.3
Mof_O 	O 	0.2383	0.9784	0.2409	-0.229
Mof_O 	O 	0.1565	0.3511	0.7563	-0.294
Mof_O 	O 	0.1474	0.2381	0.6795	-0.391
Mof_O 	O 	0.7383	0.0216	0.7591	-0.228
Mof_O 	O 	0.9896	0.6419	0.6243	-0.383
Mof_O 	O 	0.1565	0.8511	0.7437	-0.293
Mof_O 	O 	0.7383	0.5216	0.7409	-0.227
Mof_O 	O 	0.6474	0.2619	0.1795	-0.387
Mof_O 	O 	0.6565	0.1489	0.2563	-0.29
Mof_O 	O 	0.6474	0.7619	0.3205	-0.387
Mof_O 	O 	0.519	0.7467	0.0462	-0.285
Mof_O 	O 	0.9896	0.1419	0.8757	-0.382
Mof_O 	O 	0.519	0.2467	0.4538	-0.285
Mof_O 	O 	0.2383	0.4784	0.2591	-0.229
Mof_O 	O 	0.1474	0.7381	0.8205	-0.39
Mof_O 	O 	0.4896	0.8581	0.1243	-0.385
Mof_O 	O 	0.6565	0.6489	0.2437	-0.29
Mof_O 	O 	0.019	0.2533	0.9538	-0.301
Mof_O 	O 	0.4896	0.3581	0.3757	-0.385
_end
