data_functionalizedCrystal
_audit_creation_method	'EQeq! by Chris Wilmer'
_symmetry_space_group_name_H-M	'P1'
_symmetry_Int_Tables_number	1
_symmetry_cell_setting	triclinic
loop_
_symmetry_equiv_pos_as_xyz
  x,y,z
_cell_length_a	15.1376
_cell_length_b	15.2092
_cell_length_c	26.3
_cell_angle_alpha	73.271
_cell_angle_beta	77.508
_cell_angle_gamma	82.596
loop_
_atom_site_label
_atom_site_type_symbol
_atom_site_fract_x
_atom_site_fract_y
_atom_site_fract_z
_atom_site_charge
Mof_Zn	Zn	0.68199	0.25709	0.58084	1.216
Mof_Zn	Zn	0.64653	0.20099	0.70098	1.213
Mof_Mn	Mn	0.64323	0.26865	0.13389	2.13
Mof_Mn	Mn	0.63483	0.21559	0.15067	-1.101
Mof_Cl	Cl	0.64859	0.17638	0.15523	-0.187
Mof_Cl	Cl	0.6377	0.055	0.1992	-0.182
Mof_O 	O 	0.65444	0.34371	0.67865	-0.468
Mof_O 	O 	0.65779	0.38663	0.59	-0.446
Mof_O 	O 	0.65018	0.06998	0.69013	-0.444
Mof_O 	O 	0.70757	0.11372	0.602	-0.469
Mof_O 	O 	0.81474	0.26198	0.58887	-0.436
Mof_O 	O 	0.78346	0.18827	0.67852	-0.459
Mof_O 	O 	0.55018	0.23848	0.61138	-0.501
Mof_O 	O 	0.51234	0.21667	0.69958	-0.472
Mof_O 	O 	0.72226	0.20277	0.08449	-0.426
Mof_O 	O 	0.72728	0.25001	0.18117	-0.636
Mof_N 	N 	0.64924	0.18006	0.7822	-0.235
Mof_N 	N 	0.53142	0.22361	0.11304	-0.175
Mof_N 	N 	0.53797	0.26638	0.20162	-0.206
Mof_N 	N 	0.68784	0.27161	0.50345	-0.303
Mof_C 	C 	0.65902	0.40459	0.63608	0.392
Mof_C 	C 	0.65858	0.50082	0.6365	-0.161
Mof_C 	C 	0.66665	0.51363	0.68267	0.058
Mof_H 	H 	0.6693	0.4633	0.7138	0.022
Mof_C 	C 	0.67143	0.61024	0.6843	-0.118
Mof_H 	H 	0.6757	0.6219	0.7172	0.063
Mof_C 	C 	0.66979	0.68049	0.63998	0.06
Mof_C 	C 	0.66184	0.66083	0.59096	-0.133
Mof_H 	H 	0.658	0.7088	0.5589	0.076
Mof_C 	C 	0.65999	0.57258	0.59195	0.083
Mof_H 	H 	0.6596	0.5595	0.5588	0.015
Mof_C 	C 	0.67853	0.77396	0.64209	0.025
Mof_C 	C 	0.64729	0.80429	0.6879	-0.099
Mof_H 	H 	0.6258	0.76	0.7206	0.058
Mof_C 	C 	0.64507	0.89143	0.68944	0.046
Mof_H 	H 	0.6162	0.9082	0.7215	0.028
Mof_C 	C 	0.68509	0.95889	0.64403	-0.126
Mof_C 	C 	0.72224	0.93789	0.59692	0.032
Mof_H 	H 	0.751	0.983	0.5668	0.036
Mof_C 	C 	0.7173	0.84338	0.59308	-0.085
Mof_H 	H 	0.7387	0.8279	0.5598	0.06
Mof_C 	C 	0.68148	0.05662	0.64368	0.411
Mof_C 	C 	0.83907	0.22204	0.63448	0.39
Mof_C 	C 	0.9352	0.21859	0.63883	-0.206
Mof_C 	C 	0.96554	0.16853	0.68059	0.176
Mof_H 	H 	0.9257	0.1336	0.7105	-0.011
Mof_C 	C 	0.06106	0.1656	0.68174	-0.236
Mof_H 	H 	0.0845	0.1222	0.7105	0.096
Mof_C 	C 	0.11954	0.2242	0.64225	0.158
Mof_C 	C 	0.08626	0.27941	0.60286	-0.239
Mof_H 	H 	0.1241	0.322	0.5761	0.109
Mof_C 	C 	0.99098	0.2789	0.59774	0.151
Mof_H 	H 	0.9683	0.3184	0.5674	-0.001
Mof_C 	C 	0.2108	0.22448	0.64396	-0.039
Mof_C 	C 	0.23726	0.20198	0.69433	-0.048
Mof_H 	H 	0.1929	0.1836	0.7262	0.036
Mof_C 	C 	0.32909	0.20584	0.69918	-0.004
Mof_H 	H 	0.3455	0.1954	0.7334	0.044
Mof_C 	C 	0.3921	0.22528	0.6522	-0.081
Mof_C 	C 	0.36338	0.24057	0.60401	0.002
Mof_H 	H 	0.4067	0.2541	0.5713	0.046
Mof_C 	C 	0.27903	0.23711	0.60182	-0.052
Mof_H 	H 	0.265	0.2442	0.5673	0.051
Mof_C 	C 	0.49566	0.22592	0.65493	0.408
Mof_C 	C 	0.57736	0.22537	0.81041	0.045
Mof_H 	H 	0.5248	0.2544	0.7966	0.013
Mof_C 	C 	0.59323	0.22261	0.86445	-0.134
Mof_H 	H 	0.5486	0.2532	0.8861	0.09
Mof_C 	C 	0.6679	0.17899	0.88549	0.114
Mof_C 	C 	0.73228	0.1454	0.85131	-0.151
Mof_H 	H 	0.7893	0.1257	0.8619	0.076
Mof_C 	C 	0.7231	0.13645	0.80043	0.074
Mof_H 	H 	0.7667	0.1017	0.7807	0.003
Mof_C 	C 	0.67977	0.17896	0.9387	-0.102
Mof_C 	C 	0.60224	0.19328	0.97669	0.023
Mof_H 	H 	0.542	0.1977	0.9706	0.046
Mof_C 	C 	0.62513	0.201	0.02819	-0.148
Mof_C 	C 	0.70675	0.19415	0.04145	0.282
Mof_C 	C 	0.78347	0.191	0.99399	-0.286
Mof_C 	C 	0.76414	0.17402	0.94949	0.114
Mof_H 	H 	0.8137	0.1574	0.9241	-0.024
Mof_C 	C 	0.53403	0.207	0.06775	0.061
Mof_H 	H 	0.4793	0.1983	0.0583	0.024
Mof_C 	C 	0.87989	0.1723	0.01055	0.636
Mof_C 	C 	0.8971	0.2576	0.02632	-0.791
Mof_H 	H 	0.848	0.2686	0.0554	0.204
Mof_H 	H 	0.8993	0.3113	0.9948	0.234
Mof_H 	H 	0.9551	0.2473	0.0388	0.208
Mof_C 	C 	0.95521	0.1619	0.9599	-0.742
Mof_H 	H 	0.943	0.1104	0.9477	0.236
Mof_H 	H 	0.015	0.1502	0.9702	0.198
Mof_H 	H 	0.9542	0.2188	0.9306	0.237
Mof_C 	C 	0.9002	0.1013	0.05535	-1.014
Mof_H 	H 	0.8576	0.1079	0.0881	0.317
Mof_H 	H 	0.9623	0.1051	0.0595	0.288
Mof_H 	H 	0.8949	0.0415	0.0496	0.309
Mof_C 	C 	0.44613	0.2227	0.15079	0.023
Mof_H 	H 	0.4439	0.1579	0.174	0.058
Mof_C 	C 	0.44489	0.2773	0.18757	0.04
Mof_H 	H 	0.4449	0.3408	0.1626	-0.01
Mof_C 	C 	0.36749	0.2867	0.22914	-0.137
Mof_H 	H 	0.375	0.3366	0.2448	0.067
Mof_H 	H 	0.3613	0.2287	0.2584	0.067
Mof_C 	C 	0.27876	0.3108	0.20159	-0.104
Mof_H 	H 	0.2234	0.306	0.23	0.021
Mof_H 	H 	0.2791	0.3747	0.1782	0.045
Mof_C 	C 	0.27768	0.245	0.1682	-0.005
Mof_H 	H 	0.2696	0.1825	0.1929	0.004
Mof_H 	H 	0.2244	0.2631	0.1503	-0.032
Mof_C 	C 	0.35948	0.2407	0.12647	-0.174
Mof_H 	H 	0.3623	0.2995	0.0977	0.081
Mof_H 	H 	0.3559	0.1909	0.1098	0.077
Mof_C 	C 	0.54769	0.28336	0.24495	0.16
Mof_H 	H 	0.4956	0.302	0.2679	-0.026
Mof_C 	C 	0.63508	0.2752	0.26014	-0.32
Mof_C 	C 	0.62866	0.28476	0.31498	0.217
Mof_H 	H 	0.571	0.2943	0.3365	-0.039
Mof_C 	C 	0.71006	0.27955	0.33594	-0.39
Mof_C 	C 	0.79666	0.26442	0.30002	0.735
Mof_H 	H 	0.8512	0.2603	0.3132	-0.275
Mof_C 	C 	0.80318	0.2562	0.25034	-1.356
Mof_C 	C 	0.72675	0.2538	0.2292	0.732
Mof_C 	C 	0.8965	0.25738	0.21262	3.029
Mof_C 	C 	0.9725	0.2644	0.2358	-2.955
Mof_H 	H 	0.9767	0.2116	0.2673	0.849
Mof_H 	H 	0.9641	0.3214	0.2471	0.841
Mof_H 	H 	0.0285	0.2649	0.2088	0.797
Mof_C 	C 	0.917	0.1773	0.19491	-3.326
Mof_H 	H 	0.9132	0.1233	0.2263	0.957
Mof_H 	H 	0.9786	0.1781	0.1734	0.933
Mof_H 	H 	0.8736	0.1746	0.1727	0.98
Mof_C 	C 	0.9096	0.3274	0.16482	-3.307
Mof_H 	H 	0.8613	0.3296	0.1449	0.927
Mof_H 	H 	0.9685	0.3157	0.1427	0.926
Mof_H 	H 	0.9081	0.3864	0.1732	0.923
Mof_C 	C 	0.702	0.27814	0.39085	0.294
Mof_C 	C 	0.61742	0.27896	0.42664	-0.255
Mof_H 	H 	0.5616	0.2828	0.4149	0.128
Mof_C 	C 	0.62085	0.27364	0.4819	0.162
Mof_H 	H 	0.5636	0.2713	0.5057	-0.025
Mof_C 	C 	0.76559	0.27689	0.4675	0.163
Mof_H 	H 	0.8196	0.2824	0.4789	-0.032
Mof_C 	C 	0.77163	0.27483	0.41508	-0.293
Mof_H 	H 	0.8308	0.2707	0.3941	0.12
Mof_Zn	Zn	0.38984	0.53879	0.36188	1.22
Mof_Zn	Zn	0.35417	0.48278	0.48185	1.216
Mof_Mn	Mn	0.3984	0.449	0.93156	1.048
Mof_Cl	Cl	0.38584	0.30768	0.96209	-0.531
Mof_O 	O 	0.524	0.51999	0.36268	-0.428
Mof_O 	O 	0.49158	0.50159	0.4547	-0.453
Mof_O 	O 	0.25181	0.54558	0.38745	-0.479
Mof_O 	O 	0.22846	0.47491	0.47532	-0.471
Mof_O 	O 	0.37879	0.35176	0.47344	-0.472
Mof_O 	O 	0.38001	0.40041	0.38539	-0.482
Mof_O 	O 	0.33291	0.62423	0.46351	-0.458
Mof_O 	O 	0.39303	0.66114	0.37489	-0.479
Mof_O 	O 	0.31393	0.47961	0.98937	-0.4
Mof_O 	O 	0.30518	0.46788	0.88771	-0.363
Mof_N 	N 	0.38921	0.55712	0.28342	-0.282
Mof_N 	N 	0.50676	0.44879	0.96532	-0.21
Mof_N 	N 	0.50089	0.46786	0.86569	-0.224
Mof_N 	N 	0.34707	0.4656	0.56293	-0.241
Mof_C 	C 	0.54663	0.51306	0.40979	0.35
Mof_C 	C 	0.63912	0.51744	0.41164	-0.117
Mof_C 	C 	0.70711	0.5366	0.36322	0.043
Mof_H 	H 	0.6893	0.5506	0.3291	0.021
Mof_C 	C 	0.79457	0.53517	0.36497	-0.113
Mof_H 	H 	0.8384	0.5449	0.3324	0.052
Mof_C 	C 	0.82286	0.5193	0.41504	0.05
Mof_C 	C 	0.75712	0.49576	0.46674	-0.101
Mof_H 	H 	0.7756	0.4789	0.5008	0.071
Mof_C 	C 	0.66213	0.50011	0.46209	0.031
Mof_H 	H 	0.616	0.4911	0.4936	0.04
Mof_C 	C 	0.92282	0.51888	0.42023	-0.021
Mof_C 	C 	0.97966	0.57939	0.37894	-0.005
Mof_H 	H 	0.9576	0.6199	0.3487	0.027
Mof_C 	C 	0.06788	0.57715	0.38431	-0.069
Mof_H 	H 	0.1075	0.6177	0.3574	0.052
Mof_C 	C 	0.10245	0.51562	0.4293	-0.058
Mof_C 	C 	0.04359	0.45868	0.46861	-0.065
Mof_H 	H 	0.0649	0.4186	0.4992	0.052
Mof_C 	C 	0.95722	0.45872	0.4645	-0.002
Mof_H 	H 	0.9184	0.4177	0.4917	0.04
Mof_C 	C 	0.20441	0.50943	0.43015	0.388
Mof_C 	C 	0.37899	0.34008	0.42932	0.41
Mof_C 	C 	0.37112	0.24343	0.42673	-0.119
Mof_C 	C 	0.3726	0.21719	0.37884	0.042
Mof_H 	H 	0.3771	0.2624	0.345	0.021
Mof_C 	C 	0.36777	0.13014	0.3815	-0.103
Mof_H 	H 	0.3725	0.1156	0.3482	0.059
Mof_C 	C 	0.35698	0.06113	0.4256	0.022
Mof_C 	C 	0.36164	0.07839	0.47155	-0.089
Mof_H 	H 	0.3569	0.0289	0.5035	0.057
Mof_C 	C 	0.37345	0.1674	0.47532	0.021
Mof_H 	H 	0.3824	0.1769	0.5079	0.033
Mof_C 	C 	0.357	0.95937	0.42545	0.101
Mof_C 	C 	0.4042	0.93458	0.37677	-0.148
Mof_H 	H 	0.4384	0.9769	0.3476	0.086
Mof_C 	C 	0.39609	0.84366	0.37538	0.079
Mof_H 	H 	0.4178	0.826	0.3428	0.02
Mof_C 	C 	0.35813	0.78292	0.41973	-0.161
Mof_C 	C 	0.3238	0.81506	0.46368	0.137
Mof_H 	H 	0.3008	0.7717	0.4965	-0.004
Mof_C 	C 	0.3202	0.89728	0.46423	-0.216
Mof_H 	H 	0.2879	0.9138	0.4957	0.096
Mof_C 	C 	0.3622	0.67885	0.41851	0.405
Mof_C 	C 	0.44814	0.52382	0.25187	0.133
Mof_H 	H 	0.5013	0.4976	0.2659	-0.03
Mof_C 	C 	0.45028	0.51804	0.20039	-0.194
Mof_H 	H 	0.5028	0.4945	0.1799	0.063
Mof_C 	C 	0.37385	0.5475	0.18089	0.111
Mof_C 	C 	0.30414	0.60158	0.21117	-0.174
Mof_H 	H 	0.2553	0.6384	0.1965	0.072
Mof_C 	C 	0.31711	0.59309	0.26104	0.1
Mof_H 	H 	0.2677	0.6161	0.2839	-0.016
Mof_C 	C 	0.361	0.5314	0.12917	-0.103
Mof_C 	C 	0.42842	0.5112	0.09135	0.047
Mof_H 	H 	0.4881	0.5079	0.0982	-0.022
Mof_C 	C 	0.4218	0.495	0.04464	-0.154
Mof_C 	C 	0.33074	0.5011	0.03449	0.224
Mof_C 	C 	0.2529	0.5463	0.06323	-0.274
Mof_C 	C 	0.26612	0.5459	0.11242	0.071
Mof_H 	H 	0.2143	0.555	0.1386	-0.021
Mof_C 	C 	0.50076	0.47427	0.01063	0.07
Mof_H 	H 	0.5564	0.4786	0.0206	-0.031
Mof_C 	C 	0.152	0.5328	0.06108	0.713
Mof_C 	C 	0.1515	0.6194	0.00602	-0.868
Mof_H 	H 	0.0949	0.6227	0.993	0.252
Mof_H 	H 	0.2032	0.6098	0.978	0.286
Mof_H 	H 	0.1562	0.6771	0.0145	0.257
Mof_C 	C 	0.0886	0.5317	0.1145	-0.874
Mof_H 	H 	0.0272	0.5216	0.1121	0.213
Mof_H 	H 	0.0881	0.5908	0.1226	0.247
Mof_H 	H 	0.1096	0.482	0.1433	0.232
Mof_C 	C 	0.1356	0.4501	0.05529	-1.128
Mof_H 	H 	0.0755	0.4547	0.0461	0.298
Mof_H 	H 	0.1379	0.4023	0.0892	0.303
Mof_H 	H 	0.1818	0.4341	0.0263	0.363
Mof_C 	C 	0.58983	0.4294	0.9292	-0.025
Mof_H 	H 	0.5918	0.3628	0.9306	0.043
Mof_C 	C 	0.58375	0.4793	0.8758	0.062
Mof_H 	H 	0.5786	0.545	0.8769	0.004
Mof_C 	C 	0.67371	0.4719	0.83286	-0.167
Mof_H 	H 	0.6791	0.4106	0.8259	0.081
Mof_H 	H 	0.6675	0.5186	0.7985	0.071
Mof_C 	C 	0.75816	0.4844	0.84805	-0.024
Mof_H 	H 	0.8107	0.4662	0.8225	0.029
Mof_H 	H 	0.761	0.5502	0.8455	0.03
Mof_C 	C 	0.7637	0.4294	0.90291	-0.111
Mof_H 	H 	0.82	0.4426	0.9118	0.04
Mof_H 	H 	0.7694	0.3637	0.9033	0.058
Mof_C 	C 	0.6844	0.4437	0.9478	-0.077
Mof_H 	H 	0.6824	0.5064	0.9523	0.035
Mof_H 	H 	0.6911	0.3985	0.9825	0.014
Mof_C 	C 	0.48285	0.47595	0.81652	0.047
Mof_H 	H 	0.5323	0.4917	0.7872	0.013
Mof_C 	C 	0.39948	0.46422	0.80191	-0.106
Mof_C 	C 	0.40261	0.46681	0.75014	-0.008
Mof_H 	H 	0.46	0.4724	0.7266	0.036
Mof_C 	C 	0.33143	0.46217	0.72946	-0.026
Mof_C 	C 	0.25007	0.4555	0.7645	-0.036
Mof_H 	H 	0.1981	0.4489	0.7515	0.036
Mof_C 	C 	0.2382	0.4577	0.81837	-0.058
Mof_C 	C 	0.32054	0.46333	0.83708	0.189
Mof_C 	C 	0.33432	0.45684	0.67102	0.077
Mof_C 	C 	0.41771	0.4542	0.63707	-0.116
Mof_H 	H 	0.4709	0.4508	0.6514	0.077
Mof_C 	C 	0.42761	0.45623	0.58292	0.053
Mof_H 	H 	0.4856	0.4516	0.5607	0.015
Mof_C 	C 	0.26666	0.47345	0.59398	0.077
Mof_H 	H 	0.2139	0.4851	0.5783	-0.005
Mof_C 	C 	0.25731	0.46507	0.64913	-0.131
Mof_H 	H 	0.1988	0.465	0.6714	0.07
_end
