data_functionalizedCrystal
_audit_creation_method	'EQeq! by Chris Wilmer'
_symmetry_space_group_name_H-M	'P1'
_symmetry_Int_Tables_number	1
_symmetry_cell_setting	triclinic
loop_
_symmetry_equiv_pos_as_xyz
  x,y,z
_cell_length_a	18.968
_cell_length_b	18.968
_cell_length_c	5.773
_cell_angle_alpha	90
_cell_angle_beta	90
_cell_angle_gamma	90
loop_
_atom_site_label
_atom_site_type_symbol
_atom_site_fract_x
_atom_site_fract_y
_atom_site_fract_z
_atom_site_charge
Mof_O 	O 	0.2426	0.6854	0.434	-0.568
Mof_O 	O 	0.2244	0.5928	0.231	-0.299
Mof_C 	C 	0.2384	0.625	0.408	0.471
Mof_C 	C 	0.2499	0.5757	0.632	-0.11
Mof_H 	H 	0.2062	0.5478	0.6643	0.101
Mof_O 	O 	0.2639	0.6261	0.825	-0.233
Mof_C 	C 	0.3152	0.5256	0.615	0.114
Mof_H 	H 	0.3069	0.4945	0.4776	0.051
Mof_O 	O 	0.3736	0.5622	0.57	-0.13
Mof_C 	C 	0.3161	0.4786	0.823	0.002
Mof_H 	H 	0.3243	0.5088	0.9621	0.116
Mof_O 	O 	0.3798	0.4314	0.793	-0.084
Mof_C 	C 	0.252	0.4292	0.876	-0.013
Mof_H 	H 	0.21	0.4586	0.9158	0.089
Mof_O 	O 	0.2711	0.3864	0.073	-0.287
Mof_C 	C 	0.2372	0.3887	0.669	0.293
Mof_O 	O 	0.2455	0.3204	0.689	-0.476
Mof_O 	O 	0.2142	0.4222	0.482	-0.219
Mof_O 	O 	0.7574	0.3146	0.934	-0.547
Mof_O 	O 	0.7756	0.4072	0.731	-0.278
Mof_C 	C 	0.7616	0.375	0.908	0.501
Mof_C 	C 	0.7501	0.4243	0.132	-0.123
Mof_H 	H 	0.7938	0.4522	0.1643	0.088
Mof_O 	O 	0.7361	0.3739	0.325	-0.249
Mof_C 	C 	0.6848	0.4744	0.115	0.041
Mof_H 	H 	0.6931	0.5055	0.9776	0.108
Mof_O 	O 	0.6264	0.4378	0.07	-0.131
Mof_C 	C 	0.6839	0.5214	0.323	0.029
Mof_H 	H 	0.6757	0.4912	0.4621	0.097
Mof_O 	O 	0.6202	0.5686	0.293	-0.113
Mof_C 	C 	0.748	0.5708	0.376	-0.052
Mof_H 	H 	0.79	0.5414	0.4158	0.084
Mof_O 	O 	0.7289	0.6136	0.573	-0.244
Mof_C 	C 	0.7628	0.6113	0.169	0.249
Mof_O 	O 	0.7545	0.6796	0.189	-0.49
Mof_O 	O 	0.7858	0.5778	0.982	-0.17
Mof_O 	O 	0.8146	0.7426	0.684	-0.547
Mof_O 	O 	0.9072	0.7244	0.481	-0.278
Mof_C 	C 	0.875	0.7384	0.658	0.46
Mof_C 	C 	0.9243	0.7499	0.882	-0.069
Mof_H 	H 	0.9522	0.7062	0.9143	0.101
Mof_O 	O 	0.8739	0.7639	0.075	-0.283
Mof_C 	C 	0.9744	0.8152	0.865	0.131
Mof_H 	H 	0.0055	0.8069	0.7276	0.057
Mof_O 	O 	0.9378	0.8736	0.82	-0.113
Mof_C 	C 	0.0214	0.8161	0.073	-0.008
Mof_H 	H 	0.9912	0.8243	0.2121	0.097
Mof_O 	O 	0.0686	0.8798	0.043	-0.119
Mof_C 	C 	0.0708	0.752	0.126	-0.104
Mof_H 	H 	0.0414	0.71	0.1658	0.089
Mof_O 	O 	0.1136	0.7711	0.323	-0.243
Mof_C 	C 	0.1113	0.7372	0.919	0.35
Mof_O 	O 	0.1796	0.7455	0.939	-0.479
Mof_O 	O 	0.0778	0.7142	0.732	-0.222
Mof_O 	O 	0.1854	0.2574	0.184	-0.551
Mof_O 	O 	0.0928	0.2756	0.981	-0.217
Mof_C 	C 	0.125	0.2616	0.158	0.396
Mof_C 	C 	0.0757	0.2501	0.382	-0.089
Mof_H 	H 	0.0478	0.2938	0.4143	0.09
Mof_O 	O 	0.1261	0.2361	0.575	-0.247
Mof_C 	C 	0.0256	0.1848	0.365	0.108
Mof_H 	H 	0.9945	0.1931	0.2276	0.044
Mof_O 	O 	0.0622	0.1264	0.32	-0.134
Mof_C 	C 	0.9786	0.1839	0.573	0.013
Mof_H 	H 	0.0088	0.1757	0.7121	0.105
Mof_O 	O 	0.9314	0.1202	0.543	-0.104
Mof_C 	C 	0.9292	0.248	0.626	-0.065
Mof_H 	H 	0.9586	0.29	0.6658	0.094
Mof_O 	O 	0.8864	0.2289	0.823	-0.23
Mof_C 	C 	0.8887	0.2628	0.419	0.306
Mof_O 	O 	0.8204	0.2545	0.439	-0.497
Mof_O 	O 	0.9222	0.2858	0.232	-0.238
Mof_O 	O 	0.2574	0.1854	0.816	-0.564
Mof_O 	O 	0.2756	0.0928	0.019	-0.331
Mof_C 	C 	0.2616	0.125	0.842	0.529
Mof_C 	C 	0.2501	0.0757	0.618	-0.109
Mof_H 	H 	0.2938	0.0478	0.5857	0.101
Mof_O 	O 	0.2361	0.1261	0.425	-0.25
Mof_C 	C 	0.1848	0.0256	0.635	0.092
Mof_H 	H 	0.1931	0.9945	0.7724	0.075
Mof_O 	O 	0.1264	0.0622	0.68	-0.113
Mof_C 	C 	0.1839	0.9786	0.427	0.03
Mof_H 	H 	0.1757	0.0088	0.2879	0.085
Mof_O 	O 	0.1202	0.9314	0.457	-0.1
Mof_C 	C 	0.248	0.9292	0.374	-0.063
Mof_H 	H 	0.29	0.9586	0.3342	0.086
Mof_O 	O 	0.2289	0.8864	0.177	-0.261
Mof_C 	C 	0.2628	0.8887	0.581	0.303
Mof_O 	O 	0.2545	0.8204	0.561	-0.487
Mof_O 	O 	0.2858	0.9222	0.768	-0.2
Mof_O 	O 	0.7426	0.8146	0.316	-0.568
Mof_O 	O 	0.7244	0.9072	0.519	-0.273
Mof_C 	C 	0.7384	0.875	0.342	0.468
Mof_C 	C 	0.7499	0.9243	0.118	-0.13
Mof_H 	H 	0.7062	0.9522	0.0857	0.09
Mof_O 	O 	0.7639	0.8739	0.925	-0.206
Mof_C 	C 	0.8152	0.9744	0.135	0.068
Mof_H 	H 	0.8069	0.0055	0.2724	0.062
Mof_O 	O 	0.8736	0.9378	0.18	-0.133
Mof_C 	C 	0.8161	0.0214	0.927	0.052
Mof_H 	H 	0.8243	0.9912	0.7879	0.093
Mof_O 	O 	0.8798	0.0686	0.957	-0.084
Mof_C 	C 	0.752	0.0708	0.874	-0.022
Mof_H 	H 	0.71	0.0414	0.8342	0.09
Mof_O 	O 	0.7711	0.1136	0.677	-0.249
Mof_C 	C 	0.7372	0.1113	0.081	0.256
Mof_O 	O 	0.7455	0.1796	0.061	-0.506
Mof_O 	O 	0.7142	0.0778	0.268	-0.215
Mof_O 	O 	0.6854	0.2426	0.566	-0.554
Mof_O 	O 	0.5928	0.2244	0.769	-0.252
Mof_C 	C 	0.625	0.2384	0.592	0.458
Mof_C 	C 	0.5757	0.2499	0.368	-0.09
Mof_H 	H 	0.5478	0.2062	0.3357	0.09
Mof_O 	O 	0.6261	0.2639	0.175	-0.264
Mof_C 	C 	0.5256	0.3152	0.385	0.087
Mof_H 	H 	0.4945	0.3069	0.5224	0.068
Mof_O 	O 	0.5622	0.3736	0.43	-0.117
Mof_C 	C 	0.4786	0.3161	0.177	0.04
Mof_H 	H 	0.5088	0.3243	0.0379	0.074
Mof_O 	O 	0.4314	0.3798	0.207	-0.119
Mof_C 	C 	0.4292	0.252	0.124	-0.115
Mof_H 	H 	0.4586	0.21	0.0842	0.091
Mof_O 	O 	0.3864	0.2711	0.927	-0.198
Mof_C 	C 	0.3887	0.2372	0.331	0.315
Mof_O 	O 	0.3204	0.2455	0.311	-0.501
Mof_O 	O 	0.4222	0.2142	0.518	-0.217
Mof_O 	O 	0.3146	0.7574	0.066	-0.574
Mof_O 	O 	0.4072	0.7756	0.269	-0.274
Mof_C 	C 	0.375	0.7616	0.092	0.43
Mof_C 	C 	0.4243	0.7501	0.868	-0.079
Mof_H 	H 	0.4522	0.7938	0.8357	0.103
Mof_O 	O 	0.3739	0.7361	0.675	-0.248
Mof_C 	C 	0.4744	0.6848	0.885	0.158
Mof_H 	H 	0.5055	0.6931	0.0224	0.013
Mof_O 	O 	0.4378	0.6264	0.93	-0.117
Mof_C 	C 	0.5214	0.6839	0.677	0.013
Mof_H 	H 	0.4912	0.6757	0.5379	0.094
Mof_O 	O 	0.5686	0.6202	0.707	-0.091
Mof_C 	C 	0.5708	0.748	0.624	-0.075
Mof_H 	H 	0.5414	0.79	0.5842	0.095
Mof_O 	O 	0.6136	0.7289	0.427	-0.247
Mof_C 	C 	0.6113	0.7628	0.831	0.356
Mof_O 	O 	0.6796	0.7545	0.811	-0.486
Mof_O 	O 	0.5778	0.7858	0.018	-0.264
Mof_Co	Co	0.27032	0.72968	0.75	1.211
Mof_Co	Co	0.72968	0.27032	0.25	1.196
Mof_Co	Co	0.77032	0.77032	-0	1.182
Mof_Co	Co	0.22968	0.22968	0.5	1.204
Mof_Co	Co	0.27992	0.27992	-0	1.175
Mof_Co	Co	0.72008	0.72008	0.5	1.197
Mof_Co	Co	0.22008	0.77992	0.25	1.189
Mof_Co	Co	0.77992	0.22008	0.75	1.205
_end
