data_functionalizedCrystal
_audit_creation_method	'EQeq! by Chris Wilmer'
_symmetry_space_group_name_H-M	'P1'
_symmetry_Int_Tables_number	1
_symmetry_cell_setting	triclinic
loop_
_symmetry_equiv_pos_as_xyz
  x,y,z
_cell_length_a	6.8727
_cell_length_b	11.462
_cell_length_c	24.986
_cell_angle_alpha	98.79
_cell_angle_beta	90
_cell_angle_gamma	90
loop_
_atom_site_label
_atom_site_type_symbol
_atom_site_fract_x
_atom_site_fract_y
_atom_site_fract_z
_atom_site_charge
Mof_Ag	Ag	0.13626	0.91774	0.4518	0.726
Mof_Ag	Ag	0.50473	0.82281	0.55133	0.711
Mof_Ag	Ag	0.13626	0.08226	0.0482	0.725
Mof_Ag	Ag	0.50473	0.17719	0.94867	0.711
Mof_Ag	Ag	0.86374	0.08226	0.5482	0.726
Mof_Ag	Ag	0.49527	0.17719	0.44867	0.711
Mof_Ag	Ag	0.86374	0.91774	0.9518	0.725
Mof_Ag	Ag	0.49527	0.82281	0.05133	0.711
Mof_H 	H 	0.2854	0.1392	0.6834	0.028
Mof_H 	H 	0.0569	0.2553	0.7352	0.046
Mof_H 	H 	0.106	0.272	0.5503	0.032
Mof_H 	H 	0.8665	0.3818	0.602	0.036
Mof_H 	H 	0.0101	0.5461	0.729	0.123
Mof_H 	H 	0.7561	0.5359	0.6572	0.121
Mof_H 	H 	0.591	0.4361	0.6523	0.123
Mof_H 	H 	0.7503	0.2951	0.7648	0.12
Mof_H 	H 	0.5851	0.2895	0.7193	0.122
Mof_H 	H 	0.3301	0.5536	0.7746	0.122
Mof_H 	H 	0.4736	0.8085	0.7145	0.04
Mof_H 	H 	0.2832	0.4909	0.6406	0.048
Mof_H 	H 	0.2583	0.9017	0.6636	0.037
Mof_H 	H 	0.0661	0.5835	0.5895	0.025
Mof_H 	H 	0.2854	0.8608	0.8166	0.028
Mof_H 	H 	0.0569	0.7447	0.7648	0.046
Mof_H 	H 	0.106	0.728	0.9497	0.032
Mof_H 	H 	0.8665	0.6182	0.898	0.036
Mof_H 	H 	0.0101	0.4539	0.771	0.123
Mof_H 	H 	0.7561	0.4641	0.8428	0.121
Mof_H 	H 	0.591	0.5639	0.8477	0.123
Mof_H 	H 	0.7503	0.7049	0.7352	0.12
Mof_H 	H 	0.5851	0.7105	0.7807	0.122
Mof_H 	H 	0.3301	0.4464	0.7254	0.122
Mof_H 	H 	0.4736	0.1915	0.7855	0.04
Mof_H 	H 	0.2832	0.5091	0.8594	0.048
Mof_H 	H 	0.2583	0.0983	0.8364	0.038
Mof_H 	H 	0.0661	0.4165	0.9105	0.025
Mof_H 	H 	0.7146	0.8608	0.3166	0.028
Mof_H 	H 	0.9431	0.7447	0.2648	0.046
Mof_H 	H 	0.894	0.728	0.4497	0.032
Mof_H 	H 	0.1335	0.6182	0.398	0.036
Mof_H 	H 	0.9899	0.4539	0.271	0.123
Mof_H 	H 	0.2439	0.4641	0.3428	0.121
Mof_H 	H 	0.409	0.5639	0.3477	0.123
Mof_H 	H 	0.2497	0.7049	0.2352	0.12
Mof_H 	H 	0.4149	0.7105	0.2807	0.122
Mof_H 	H 	0.6699	0.4464	0.2254	0.122
Mof_H 	H 	0.5264	0.1915	0.2855	0.04
Mof_H 	H 	0.7168	0.5091	0.3594	0.048
Mof_H 	H 	0.7417	0.0983	0.3364	0.037
Mof_H 	H 	0.9339	0.4165	0.4105	0.025
Mof_H 	H 	0.7146	0.1392	0.1834	0.028
Mof_H 	H 	0.9431	0.2553	0.2352	0.046
Mof_H 	H 	0.894	0.272	0.0503	0.032
Mof_H 	H 	0.1335	0.3818	0.102	0.036
Mof_H 	H 	0.9899	0.5461	0.229	0.123
Mof_H 	H 	0.2439	0.5359	0.1572	0.121
Mof_H 	H 	0.409	0.4361	0.1523	0.123
Mof_H 	H 	0.2497	0.2951	0.2648	0.12
Mof_H 	H 	0.4149	0.2895	0.2193	0.122
Mof_H 	H 	0.6699	0.5536	0.2746	0.122
Mof_H 	H 	0.5264	0.8085	0.2145	0.04
Mof_H 	H 	0.7168	0.4909	0.1406	0.048
Mof_H 	H 	0.7417	0.9017	0.1636	0.038
Mof_H 	H 	0.9339	0.5835	0.0895	0.025
Mof_C 	C 	0.2189	0.1954	0.6119	-0.12
Mof_C 	C 	0.2027	0.1898	0.6669	0.01
Mof_C 	C 	0.0653	0.2586	0.6975	-0.066
Mof_C 	C 	0.0948	0.2679	0.5878	-0.051
Mof_C 	C 	0.9378	0.333	0.6746	-0.052
Mof_C 	C 	0.9536	0.3345	0.6189	-0.047
Mof_C 	C 	0.6722	0.4891	0.6782	-0.323
Mof_C 	C 	0.8005	0.4149	0.7108	0.215
Mof_C 	C 	0.5394	0.5733	0.7165	0.211
Mof_C 	C 	0.6685	0.3435	0.7441	-0.322
Mof_C 	C 	0.4033	0.6395	0.6833	-0.046
Mof_C 	C 	0.3916	0.7622	0.689	-0.062
Mof_C 	C 	0.2789	0.5747	0.6453	-0.076
Mof_C 	C 	0.2641	0.818	0.6586	-0.012
Mof_C 	C 	0.1439	0.7516	0.6207	-0.133
Mof_C 	C 	0.15	0.6294	0.6146	0.008
Mof_C 	C 	0.2189	0.8046	0.8881	-0.12
Mof_C 	C 	0.2027	0.8102	0.8331	0.01
Mof_C 	C 	0.0653	0.7414	0.8025	-0.066
Mof_C 	C 	0.0948	0.7321	0.9122	-0.05
Mof_C 	C 	0.9378	0.667	0.8254	-0.051
Mof_C 	C 	0.9536	0.6655	0.8811	-0.048
Mof_C 	C 	0.6722	0.5109	0.8218	-0.323
Mof_C 	C 	0.8005	0.5851	0.7892	0.215
Mof_C 	C 	0.5394	0.4267	0.7835	0.211
Mof_C 	C 	0.6685	0.6565	0.7559	-0.322
Mof_C 	C 	0.4033	0.3605	0.8167	-0.046
Mof_C 	C 	0.3916	0.2378	0.811	-0.062
Mof_C 	C 	0.2789	0.4253	0.8547	-0.076
Mof_C 	C 	0.2641	0.182	0.8414	-0.012
Mof_C 	C 	0.1439	0.2484	0.8793	-0.132
Mof_C 	C 	0.15	0.3706	0.8854	0.008
Mof_C 	C 	0.7811	0.8046	0.3881	-0.12
Mof_C 	C 	0.7973	0.8102	0.3331	0.01
Mof_C 	C 	0.9347	0.7414	0.3025	-0.066
Mof_C 	C 	0.9052	0.7321	0.4122	-0.051
Mof_C 	C 	0.0622	0.667	0.3254	-0.052
Mof_C 	C 	0.0464	0.6655	0.3811	-0.047
Mof_C 	C 	0.3278	0.5109	0.3218	-0.323
Mof_C 	C 	0.1995	0.5851	0.2892	0.215
Mof_C 	C 	0.4606	0.4267	0.2835	0.211
Mof_C 	C 	0.3315	0.6565	0.2559	-0.322
Mof_C 	C 	0.5967	0.3605	0.3167	-0.046
Mof_C 	C 	0.6084	0.2378	0.311	-0.062
Mof_C 	C 	0.7211	0.4253	0.3547	-0.076
Mof_C 	C 	0.7359	0.182	0.3414	-0.012
Mof_C 	C 	0.8561	0.2484	0.3793	-0.133
Mof_C 	C 	0.85	0.3706	0.3854	0.008
Mof_C 	C 	0.7811	0.1954	0.1119	-0.12
Mof_C 	C 	0.7973	0.1898	0.1669	0.01
Mof_C 	C 	0.9347	0.2586	0.1975	-0.066
Mof_C 	C 	0.9052	0.2679	0.0878	-0.05
Mof_C 	C 	0.0622	0.333	0.1746	-0.051
Mof_C 	C 	0.0464	0.3345	0.1189	-0.048
Mof_C 	C 	0.3278	0.4891	0.1782	-0.323
Mof_C 	C 	0.1995	0.4149	0.2108	0.215
Mof_C 	C 	0.4606	0.5733	0.2165	0.211
Mof_C 	C 	0.3315	0.3435	0.2441	-0.322
Mof_C 	C 	0.5967	0.6395	0.1833	-0.046
Mof_C 	C 	0.6084	0.7622	0.189	-0.062
Mof_C 	C 	0.7211	0.5747	0.1453	-0.076
Mof_C 	C 	0.7359	0.818	0.1586	-0.012
Mof_C 	C 	0.8561	0.7516	0.1207	-0.132
Mof_C 	C 	0.85	0.6294	0.1146	0.008
Mof_C 	C 	0.9253	0.5	0.75	-0.33
Mof_C 	C 	0.4149	0.5	0.75	-0.324
Mof_C 	C 	0.0747	0.5	0.25	-0.33
Mof_C 	C 	0.5851	0.5	0.25	-0.324
Mof_S 	S 	0.3965	0.11293	0.57116	0.544
Mof_S 	S 	0.9992	0.81822	0.57529	0.56
Mof_S 	S 	0.3965	0.88707	0.92884	0.544
Mof_S 	S 	0.9992	0.18178	0.92471	0.558
Mof_S 	S 	0.6035	0.88707	0.42884	0.544
Mof_S 	S 	0.0008	0.18178	0.42471	0.56
Mof_S 	S 	0.6035	0.11293	0.07116	0.544
Mof_S 	S 	0.0008	0.81822	0.07529	0.558
Mof_O 	O 	0.4527	0.015	0.59896	-0.381
Mof_O 	O 	0.305	0.0757	0.51933	-0.431
Mof_O 	O 	0.5588	0.1922	0.5671	-0.384
Mof_O 	O 	0.9654	0.9403	0.5992	-0.387
Mof_O 	O 	0.123	0.8099	0.5272	-0.413
Mof_O 	O 	0.8253	0.7483	0.5656	-0.376
Mof_O 	O 	0.4527	0.985	0.90104	-0.381
Mof_O 	O 	0.305	0.9243	0.98067	-0.43
Mof_O 	O 	0.5588	0.8078	0.9329	-0.384
Mof_O 	O 	0.9654	0.0597	0.9008	-0.387
Mof_O 	O 	0.123	0.1901	0.9728	-0.412
Mof_O 	O 	0.8253	0.2517	0.9344	-0.376
Mof_O 	O 	0.5473	0.985	0.40104	-0.381
Mof_O 	O 	0.695	0.9243	0.48067	-0.431
Mof_O 	O 	0.4412	0.8078	0.4329	-0.384
Mof_O 	O 	0.0346	0.0597	0.4008	-0.387
Mof_O 	O 	0.877	0.1901	0.4728	-0.413
Mof_O 	O 	0.1747	0.2517	0.4344	-0.376
Mof_O 	O 	0.5473	0.015	0.09896	-0.381
Mof_O 	O 	0.695	0.0757	0.01933	-0.43
Mof_O 	O 	0.4412	0.1922	0.0671	-0.384
Mof_O 	O 	0.0346	0.9403	0.0992	-0.387
Mof_O 	O 	0.877	0.8099	0.0272	-0.412
Mof_O 	O 	0.1747	0.7483	0.0656	-0.376
_end
