data_functionalizedCrystal
_audit_creation_method	'EQeq! by Chris Wilmer'
_symmetry_space_group_name_H-M	'P1'
_symmetry_Int_Tables_number	1
_symmetry_cell_setting	triclinic
loop_
_symmetry_equiv_pos_as_xyz
  x,y,z
_cell_length_a	13.063
_cell_length_b	13.129
_cell_length_c	22.324
_cell_angle_alpha	90
_cell_angle_beta	90
_cell_angle_gamma	95.149
loop_
_atom_site_label
_atom_site_type_symbol
_atom_site_fract_x
_atom_site_fract_y
_atom_site_fract_z
_atom_site_charge
Mof_Zn	Zn	0.23831	0.63069	0.20672	1.216
Mof_Zn	Zn	0.2141	0.6087	0.077	1.213
Mof_H 	H 	0.1698	0.4917	0.307	0.004
Mof_H 	H 	0.1615	0.4913	0.4119	0.113
Mof_H 	H 	0.2887	0.7853	0.41	0.113
Mof_H 	H 	0.2917	0.7769	0.3052	-0.007
Mof_H 	H 	0.4644	0.6466	0.5915	0.06
Mof_H 	H 	0.4602	0.6382	0.698	0.058
Mof_H 	H 	0.9649	0.6426	0.6922	0.06
Mof_H 	H 	0.9678	0.6478	0.5864	0.058
Mof_H 	H 	0.9158	0.6122	0.2504	0.044
Mof_H 	H 	0.7428	0.6243	0.2617	0.068
Mof_H 	H 	0.5672	0.6289	0.2154	0.063
Mof_H 	H 	0.5371	0.6216	0.0343	0.039
Mof_H 	H 	0.7111	0.6066	0.0237	0.058
Mof_H 	H 	0.8861	0.5983	0.0697	0.056
Mof_H 	H 	0.3001	0.3211	0.24	0.046
Mof_H 	H 	0.314	0.1466	0.2512	0.065
Mof_H 	H 	0.2842	0.9682	0.2107	0.059
Mof_H 	H 	0.1834	0.9231	0.0397	0.036
Mof_H 	H 	0.1858	0.0978	0.0253	0.059
Mof_H 	H 	0.207	0.275	0.0675	0.056
Mof_H 	H 	0.1202	0.4842	0.9741	0.011
Mof_H 	H 	0.116	0.4905	0.8697	0.118
Mof_H 	H 	0.2964	0.7584	0.8772	0.119
Mof_H 	H 	0.2958	0.7456	0.9818	0.008
Mof_C 	C 	0.237	0.4249	0.1451	0.374
Mof_C 	C 	0.0305	0.6058	0.1503	0.385
Mof_C 	C 	0.228	0.8159	0.1361	0.386
Mof_C 	C 	0.4221	0.6318	0.1341	0.401
Mof_C 	C 	0.1943	0.5514	0.3284	0.114
Mof_C 	C 	0.1879	0.5506	0.3907	-0.188
Mof_C 	C 	0.2217	0.6397	0.4202	0.2
Mof_C 	C 	0.2631	0.7248	0.3895	-0.189
Mof_C 	C 	0.2659	0.7184	0.3274	0.113
Mof_C 	C 	0.3139	0.6514	0.5144	0.21
Mof_C 	C 	0.3114	0.6468	0.5811	-0.052
Mof_C 	C 	0.4008	0.645	0.6122	-0.025
Mof_C 	C 	0.3984	0.6409	0.6758	-0.021
Mof_C 	C 	0.306	0.6409	0.705	-0.057
Mof_C 	C 	0.305	0.6343	0.7712	0.21
Mof_C 	C 	0.2087	0.632	0.7994	-0.183
Mof_C 	C 	0.1128	0.633	0.7693	0.21
Mof_C 	C 	0.1178	0.6417	0.7031	-0.055
Mof_C 	C 	0.0285	0.6432	0.6715	-0.022
Mof_C 	C 	0.0299	0.6458	0.6083	-0.021
Mof_C 	C 	0.1217	0.6454	0.5788	-0.055
Mof_C 	C 	0.1215	0.6404	0.5122	0.216
Mof_C 	C 	0.2151	0.6467	0.6103	0.029
Mof_C 	C 	0.2137	0.6422	0.6738	0.031
Mof_C 	C 	0.916	0.6061	0.1585	-0.082
Mof_C 	C 	0.8729	0.6124	0.2161	0.02
Mof_C 	C 	0.7707	0.6187	0.2227	-0.084
Mof_C 	C 	0.7038	0.6169	0.1716	0.028
Mof_C 	C 	0.597	0.6243	0.1768	-0.028
Mof_C 	C 	0.5358	0.625	0.1271	-0.088
Mof_C 	C 	0.5795	0.6197	0.0687	0.017
Mof_C 	C 	0.6826	0.6117	0.0626	-0.082
Mof_C 	C 	0.7472	0.611	0.1128	0.025
Mof_C 	C 	0.8556	0.6042	0.108	-0.03
Mof_C 	C 	0.2504	0.3126	0.152	-0.081
Mof_C 	C 	0.2831	0.2754	0.2078	0.012
Mof_C 	C 	0.2897	0.172	0.2145	-0.078
Mof_C 	C 	0.2608	0.1027	0.1671	0.023
Mof_C 	C 	0.2618	0.9951	0.174	-0.026
Mof_C 	C 	0.231	0.9297	0.1282	-0.086
Mof_C 	C 	0.2026	0.9687	0.0716	0.017
Mof_C 	C 	0.2032	0.0719	0.0634	-0.085
Mof_C 	C 	0.2297	0.1414	0.1114	0.027
Mof_C 	C 	0.2263	0.2479	0.1049	-0.034
Mof_C 	C 	0.1564	0.5401	0.9539	0.121
Mof_C 	C 	0.1537	0.5428	0.8921	-0.192
Mof_C 	C 	0.208	0.6251	0.8637	0.207
Mof_C 	C 	0.2604	0.7015	0.8965	-0.19
Mof_C 	C 	0.25954	0.69356	0.95856	0.116
Mof_N 	N 	0.2336	0.633	0.2977	-0.259
Mof_N 	N 	0.2191	0.6415	0.4857	-0.191
Mof_N 	N 	0.2082	0.6134	0.9864	-0.248
Mof_O 	O 	0.2375	0.4769	0.1929	-0.457
Mof_O 	O 	0.226	0.4596	0.0935	-0.464
Mof_O 	O 	0.0843	0.6201	0.1972	-0.461
Mof_O 	O 	0.0633	0.5923	0.0989	-0.466
Mof_O 	O 	0.2428	0.7832	0.188	-0.45
Mof_O 	O 	0.2114	0.7621	0.0903	-0.47
Mof_O 	O 	0.3891	0.6385	0.1857	-0.466
Mof_O 	O 	0.3703	0.6307	0.0871	-0.47
Mof_O 	O 	0.3943	0.657	0.4862	-0.219
Mof_O 	O 	0.3827	0.6328	0.8012	-0.22
Mof_O 	O 	0.0328	0.6295	0.7974	-0.221
Mof_O 	O 	0.0446	0.6365	0.4821	-0.228
Mof_Zn	Zn	0.76169	0.36931	0.70672	1.217
Mof_Zn	Zn	0.7859	0.3913	0.577	1.218
Mof_H 	H 	0.8302	0.5083	0.807	0.004
Mof_H 	H 	0.8385	0.5087	0.9119	0.119
Mof_H 	H 	0.7113	0.2147	0.91	0.119
Mof_H 	H 	0.7083	0.2231	0.8052	-0.006
Mof_H 	H 	0.5356	0.3534	0.0915	0.063
Mof_H 	H 	0.5398	0.3618	0.198	0.051
Mof_H 	H 	0.0351	0.3574	0.1922	0.055
Mof_H 	H 	0.0322	0.3522	0.0864	0.062
Mof_H 	H 	0.0842	0.3878	0.7504	0.046
Mof_H 	H 	0.2572	0.3757	0.7617	0.07
Mof_H 	H 	0.4328	0.3711	0.7154	0.065
Mof_H 	H 	0.4629	0.3784	0.5343	0.047
Mof_H 	H 	0.2889	0.3934	0.5237	0.067
Mof_H 	H 	0.1139	0.4017	0.5697	0.063
Mof_H 	H 	0.6999	0.6789	0.74	0.048
Mof_H 	H 	0.686	0.8534	0.7512	0.067
Mof_H 	H 	0.7158	0.0318	0.7107	0.061
Mof_H 	H 	0.8166	0.0769	0.5397	0.044
Mof_H 	H 	0.8142	0.9022	0.5253	0.067
Mof_H 	H 	0.793	0.725	0.5675	0.063
Mof_H 	H 	0.8798	0.5158	0.4741	0.003
Mof_H 	H 	0.884	0.5095	0.3697	0.118
Mof_H 	H 	0.7036	0.2416	0.3772	0.116
Mof_H 	H 	0.7042	0.2544	0.4818	-0.004
Mof_C 	C 	0.763	0.5751	0.6451	0.372
Mof_C 	C 	0.9695	0.3942	0.6503	0.381
Mof_C 	C 	0.772	0.1841	0.6361	0.384
Mof_C 	C 	0.5779	0.3682	0.6341	0.399
Mof_C 	C 	0.8057	0.4486	0.8284	0.115
Mof_C 	C 	0.8121	0.4494	0.8907	-0.186
Mof_C 	C 	0.7783	0.3603	0.9202	0.202
Mof_C 	C 	0.7369	0.2752	0.8895	-0.187
Mof_C 	C 	0.7341	0.2816	0.8274	0.115
Mof_C 	C 	0.6861	0.3486	0.0144	0.13
Mof_C 	C 	0.6886	0.3532	0.0811	-0.019
Mof_C 	C 	0.5992	0.355	0.1122	-0.05
Mof_C 	C 	0.6016	0.3591	0.1758	-0.006
Mof_C 	C 	0.694	0.3591	0.205	-0.07
Mof_C 	C 	0.695	0.3657	0.2712	0.216
Mof_C 	C 	0.7913	0.368	0.2994	-0.189
Mof_C 	C 	0.8872	0.367	0.2693	0.215
Mof_C 	C 	0.8822	0.3583	0.2031	-0.067
Mof_C 	C 	0.9715	0.3568	0.1715	-0.008
Mof_C 	C 	0.9701	0.3542	0.1083	-0.046
Mof_C 	C 	0.8783	0.3546	0.0788	-0.022
Mof_C 	C 	0.8785	0.3596	0.0122	0.136
Mof_C 	C 	0.7849	0.3533	0.1103	0
Mof_C 	C 	0.7863	0.3578	0.1738	0.047
Mof_C 	C 	0.084	0.3939	0.6585	-0.077
Mof_C 	C 	0.1271	0.3876	0.7161	0.018
Mof_C 	C 	0.2293	0.3813	0.7227	-0.083
Mof_C 	C 	0.2962	0.3831	0.6716	0.028
Mof_C 	C 	0.403	0.3757	0.6768	-0.028
Mof_C 	C 	0.4642	0.375	0.6271	-0.085
Mof_C 	C 	0.4205	0.3803	0.5687	0.019
Mof_C 	C 	0.3174	0.3883	0.5626	-0.082
Mof_C 	C 	0.2528	0.389	0.6128	0.029
Mof_C 	C 	0.1444	0.3958	0.608	-0.033
Mof_C 	C 	0.7496	0.6874	0.652	-0.077
Mof_C 	C 	0.7169	0.7246	0.7078	0.011
Mof_C 	C 	0.7103	0.828	0.7145	-0.076
Mof_C 	C 	0.7392	0.8973	0.6671	0.024
Mof_C 	C 	0.7382	0.0049	0.674	-0.026
Mof_C 	C 	0.769	0.0703	0.6282	-0.081
Mof_C 	C 	0.7974	0.0313	0.5716	0.018
Mof_C 	C 	0.7968	0.9281	0.5634	-0.083
Mof_C 	C 	0.7703	0.8586	0.6114	0.031
Mof_C 	C 	0.7737	0.7521	0.6049	-0.036
Mof_C 	C 	0.8436	0.4599	0.4539	0.118
Mof_C 	C 	0.8463	0.4572	0.3921	-0.195
Mof_C 	C 	0.792	0.3749	0.3637	0.208
Mof_C 	C 	0.7396	0.2985	0.3965	-0.195
Mof_C 	C 	0.74046	0.30644	0.45856	0.113
Mof_N 	N 	0.7664	0.367	0.7977	-0.259
Mof_N 	N 	0.7809	0.3585	0.9857	-0.143
Mof_N 	N 	0.7918	0.3866	0.4864	-0.26
Mof_O 	O 	0.7625	0.5231	0.6929	-0.456
Mof_O 	O 	0.774	0.5404	0.5935	-0.456
Mof_O 	O 	0.9157	0.3799	0.6972	-0.46
Mof_O 	O 	0.9367	0.4077	0.5989	-0.459
Mof_O 	O 	0.7572	0.2168	0.688	-0.448
Mof_O 	O 	0.7886	0.2379	0.5903	-0.462
Mof_O 	O 	0.6109	0.3615	0.6857	-0.464
Mof_O 	O 	0.6297	0.3693	0.5871	-0.462
Mof_O 	O 	0.6057	0.343	0.9862	-0.167
Mof_O 	O 	0.6173	0.3672	0.3012	-0.226
Mof_O 	O 	0.9672	0.3705	0.2974	-0.226
Mof_O 	O 	0.9554	0.3635	0.9821	-0.178
_end
