data_functionalizedCrystal
_audit_creation_method	'EQeq! by Chris Wilmer'
_symmetry_space_group_name_H-M	'P1'
_symmetry_Int_Tables_number	1
_symmetry_cell_setting	triclinic
loop_
_symmetry_equiv_pos_as_xyz
  x,y,z
_cell_length_a	11.1688
_cell_length_b	11.1688
_cell_length_c	24.9014
_cell_angle_alpha	82.7315
_cell_angle_beta	77.9136
_cell_angle_gamma	104.542
loop_
_atom_site_label
_atom_site_type_symbol
_atom_site_fract_x
_atom_site_fract_y
_atom_site_fract_z
_atom_site_charge
Mof_Cu	Cu	0.5	0.5	-0	0.899
Mof_Cu	Cu	9.84479e-18	0.5	0.5	0.898
Mof_Mo	Mo	0.58664	0.57705	0.82769	2.158
Mof_Mo	Mo	0.09476	0.66252	0.70896	2.172
Mof_Mo	Mo	0.90474	0.41433	0.67231	2.181
Mof_Mo	Mo	0.87148	0.80372	0.79104	2.22
Mof_Mo	Mo	0.41336	0.42295	0.17231	2.158
Mof_Mo	Mo	0.90524	0.33748	0.29104	2.222
Mof_Mo	Mo	0.09526	0.58567	0.32769	2.136
Mof_Mo	Mo	0.12852	0.19628	0.20896	2.173
Mof_Mo	Mo	0.60247	0.35247	0.75	2.159
Mof_Mo	Mo	0.39753	0.64753	0.25	2.158
Mof_P 	P 	0.7834	0.66319	0.69101	0.663
Mof_P 	P 	0.8542	0.47441	0.80899	0.664
Mof_P 	P 	0.2166	0.33681	0.30899	0.663
Mof_P 	P 	0.1458	0.52559	0.19101	0.662
Mof_H 	H 	0.7033	0.7114	0.6305	0.284
Mof_H 	H 	0.4316	0.6631	0.0791	0.03
Mof_H 	H 	0.4165	0.8583	0.0808	0.08
Mof_H 	H 	0.6035	0.957	0.9205	0.079
Mof_H 	H 	0.6197	0.76	0.9231	0.005
Mof_H 	H 	0.2344	0.3886	0.0728	0.008
Mof_H 	H 	0.0304	0.3856	0.0744	0.109
Mof_H 	H 	0.1515	0.5937	0.9214	0.1
Mof_H 	H 	0.3562	0.589	0.9222	0.006
Mof_H 	H 	0.8419	0.3338	0.8695	0.288
Mof_H 	H 	0.2422	0.5107	0.4209	0.02
Mof_H 	H 	0.4391	0.4973	0.4192	0.097
Mof_H 	H 	0.3775	0.524	0.5795	0.096
Mof_H 	H 	0.1831	0.5428	0.5769	-0.003
Mof_H 	H 	0.9614	0.3072	0.4272	0.004
Mof_H 	H 	0.96	0.1048	0.4256	0.126
Mof_H 	H 	0.0151	0.0729	0.5786	0.114
Mof_H 	H 	0.0112	0.2784	0.5778	-0.002
Mof_H 	H 	0.2967	0.2886	0.3695	0.283
Mof_H 	H 	0.5684	0.3369	0.9209	0.012
Mof_H 	H 	0.5835	0.1417	0.9192	0.113
Mof_H 	H 	0.3965	0.043	0.0795	0.113
Mof_H 	H 	0.3803	0.24	0.0769	-0.005
Mof_H 	H 	0.7656	0.6114	0.9272	0.009
Mof_H 	H 	0.9696	0.6144	0.9256	0.102
Mof_H 	H 	0.8485	0.4063	0.0786	0.097
Mof_H 	H 	0.6438	0.411	0.0778	0.012
Mof_H 	H 	0.1581	0.6662	0.1305	0.281
Mof_H 	H 	0.7578	0.4893	0.5791	0.022
Mof_H 	H 	0.5609	0.5027	0.5808	0.096
Mof_H 	H 	0.6225	0.476	0.4205	0.096
Mof_H 	H 	0.8169	0.4572	0.4231	0.004
Mof_H 	H 	0.0386	0.6928	0.5728	0.014
Mof_H 	H 	0.04	0.8952	0.5744	0.085
Mof_H 	H 	0.9849	0.9271	0.4214	0.082
Mof_H 	H 	0.9888	0.7216	0.4222	0.02
Mof_C 	C 	0.4664	0.7231	0.0463	0.075
Mof_C 	C 	0.457	0.8406	0.0474	-0.096
Mof_C 	C 	0.5054	0.9364	0.0006	-0.007
Mof_C 	C 	0.5671	0.8986	0.9537	-0.086
Mof_C 	C 	0.5754	0.7795	0.9553	0.103
Mof_C 	C 	0.2179	0.4301	0.0416	0.109
Mof_C 	C 	0.0951	0.4305	0.043	-0.173
Mof_C 	C 	0.0635	0.495	0.9999	0.105
Mof_C 	C 	0.1661	0.5522	0.9531	-0.15
Mof_C 	C 	0.2897	0.5479	0.9534	0.111
Mof_C 	C 	0.2694	0.5127	0.4537	0.102
Mof_C 	C 	0.388	0.5044	0.4526	-0.139
Mof_C 	C 	0.437	0.506	0.4994	0.07
Mof_C 	C 	0.3523	0.5208	0.5463	-0.146
Mof_C 	C 	0.2348	0.5307	0.5447	0.11
Mof_C 	C 	0.9717	0.2595	0.4584	0.15
Mof_C 	C 	0.9735	0.1381	0.457	-0.183
Mof_C 	C 	0.9949	0.0634	0.5001	0.156
Mof_C 	C 	0.0053	0.1192	0.5469	-0.198
Mof_C 	C 	0.0013	0.2431	0.5466	0.104
Mof_C 	C 	0.5336	0.2769	0.9537	0.132
Mof_C 	C 	0.543	0.1594	0.9526	-0.181
Mof_C 	C 	0.4946	0.0636	0.9994	0.145
Mof_C 	C 	0.4329	0.1014	0.0463	-0.204
Mof_C 	C 	0.4246	0.2205	0.0447	0.117
Mof_C 	C 	0.7821	0.5699	0.9584	0.126
Mof_C 	C 	0.9049	0.5695	0.957	-0.1
Mof_C 	C 	0.9365	0.505	0.0001	0.035
Mof_C 	C 	0.8339	0.4478	0.0469	-0.116
Mof_C 	C 	0.7103	0.4521	0.0466	0.089
Mof_C 	C 	0.7306	0.4873	0.5463	0.104
Mof_C 	C 	0.612	0.4956	0.5474	-0.138
Mof_C 	C 	0.563	0.494	0.5006	0.069
Mof_C 	C 	0.6477	0.4792	0.4537	-0.144
Mof_C 	C 	0.7652	0.4693	0.4553	0.11
Mof_C 	C 	0.0283	0.7405	0.5416	0.086
Mof_C 	C 	0.0265	0.8619	0.543	-0.089
Mof_C 	C 	0.0051	0.9366	0.4999	-0.016
Mof_C 	C 	0.9947	0.8808	0.4531	-0.069
Mof_C 	C 	0.9987	0.7569	0.4534	0.096
Mof_N 	N 	0.5229	0.6882	0.0009	-0.224
Mof_N 	N 	0.3156	0.4864	0.9972	-0.211
Mof_N 	N 	0.1891	0.5238	0.4991	-0.224
Mof_N 	N 	0.9836	0.3128	0.5028	-0.216
Mof_N 	N 	0.4771	0.3118	0.9991	-0.216
Mof_N 	N 	0.6844	0.5136	0.0028	-0.231
Mof_N 	N 	0.8109	0.4762	0.5009	-0.217
Mof_N 	N 	0.0164	0.6872	0.4972	-0.226
Mof_O 	O 	0.6629	0.5753	0.7328	-0.561
Mof_O 	O 	0.5632	0.405	0.8198	-0.773
Mof_O 	O 	0.8957	0.6052	0.6861	-0.595
Mof_O 	O 	0.6861	0.7537	0.8114	-0.735
Mof_O 	O 	0.5585	0.55	0.8997	-0.642
Mof_O 	O 	0.4495	0.6021	0.8158	-0.554
Mof_O 	O 	0.4697	0.354	0.7265	-0.553
Mof_O 	O 	0.8213	0.7895	0.7076	-0.43
Mof_O 	O 	0.1523	0.7588	0.6449	-0.577
Mof_O 	O 	0.2318	0.6701	0.7297	-0.537
Mof_O 	O 	0.7605	0.6777	0.6312	-0.477
Mof_O 	O 	0.8081	0.3957	0.7672	-0.56
Mof_O 	O 	0.7248	0.383	0.6802	-0.776
Mof_O 	O 	0.7913	0.5818	0.8139	-0.603
Mof_O 	O 	0.0651	0.4975	0.6886	-0.747
Mof_O 	O 	0.9497	0.4582	0.6003	-0.636
Mof_O 	O 	0.9179	0.2653	0.6842	-0.548
Mof_O 	O 	0.5805	0.1962	0.7735	-0.552
Mof_O 	O 	0.9971	0.5289	0.7924	-0.42
Mof_O 	O 	0.9037	0.7972	0.8551	-0.574
Mof_O 	O 	0.8998	0.9615	0.7703	-0.534
Mof_O 	O 	0.8089	0.3917	0.8688	-0.48
Mof_O 	O 	0.3371	0.4247	0.2672	-0.56
Mof_O 	O 	0.4368	0.595	0.1802	-0.772
Mof_O 	O 	0.1043	0.3948	0.3139	-0.613
Mof_O 	O 	0.3139	0.2463	0.1886	-0.73
Mof_O 	O 	0.4415	0.45	0.1003	-0.647
Mof_O 	O 	0.5505	0.3979	0.1842	-0.551
Mof_O 	O 	0.5303	0.646	0.2735	-0.548
Mof_O 	O 	0.1787	0.2105	0.2924	-0.441
Mof_O 	O 	0.8477	0.2412	0.3551	-0.58
Mof_O 	O 	0.7682	0.3299	0.2703	-0.54
Mof_O 	O 	0.2395	0.3223	0.3688	-0.486
Mof_O 	O 	0.1919	0.6043	0.2328	-0.561
Mof_O 	O 	0.2752	0.617	0.3198	-0.769
Mof_O 	O 	0.2087	0.4182	0.1861	-0.604
Mof_O 	O 	0.9349	0.5025	0.3114	-0.718
Mof_O 	O 	0.0503	0.5418	0.3997	-0.653
Mof_O 	O 	0.0821	0.7347	0.3158	-0.556
Mof_O 	O 	0.4195	0.8038	0.2265	-0.549
Mof_O 	O 	0.0029	0.4711	0.2076	-0.45
Mof_O 	O 	0.0963	0.2028	0.1449	-0.583
Mof_O 	O 	0.1002	0.0385	0.2297	-0.544
Mof_O 	O 	0.1911	0.6083	0.1312	-0.483
Mof_O 	O 	0.0214	0.7714	0.75	-0.798
Mof_O 	O 	0.9786	0.2286	0.25	-0.767
_end
