data_functionalizedCrystal
_audit_creation_method	'EQeq! by Chris Wilmer'
_symmetry_space_group_name_H-M	'P1'
_symmetry_Int_Tables_number	1
_symmetry_cell_setting	triclinic
loop_
_symmetry_equiv_pos_as_xyz
  x,y,z
_cell_length_a	10.2882
_cell_length_b	14.4724
_cell_length_c	31.03
_cell_angle_alpha	90
_cell_angle_beta	91.991
_cell_angle_gamma	90
loop_
_atom_site_label
_atom_site_type_symbol
_atom_site_fract_x
_atom_site_fract_y
_atom_site_fract_z
_atom_site_charge
Mof_Na	Na	0.2156	0.4682	0.52409	3.022
Mof_Na	Na	0.2886	0.7059	0.48229	1.957
Mof_Na	Na	0.7844	0.9682	0.97591	3.005
Mof_Na	Na	0.7114	0.2059	0.01771	1.952
Mof_Na	Na	0.7844	0.5318	0.47591	3.022
Mof_Na	Na	0.7114	0.2941	0.51771	1.957
Mof_Na	Na	0.2156	0.0318	0.02409	3.004
Mof_Na	Na	0.2886	0.7941	0.98229	1.951
Mof_Ag	Ag	0.66491	0.85187	0.24147	0.491
Mof_Ag	Ag	0.33509	0.35187	0.25853	0.486
Mof_Ag	Ag	0.33509	0.14813	0.75853	0.491
Mof_Ag	Ag	0.66491	0.64813	0.74147	0.486
Mof_H 	H 	0.9202	0.1415	0.2799	-0.012
Mof_H 	H 	0.8571	0.0832	0.351	-0.017
Mof_H 	H 	0.8115	0.7386	0.4063	-0.138
Mof_H 	H 	0.4697	0.8733	0.4061	-0.184
Mof_H 	H 	0.5649	0.0516	0.3333	-0.31
Mof_H 	H 	0.4649	0.1277	0.3791	0.545
Mof_H 	H 	0.3572	0.0518	0.383	0.5
Mof_H 	H 	0.4866	0.0446	0.411	0.499
Mof_H 	H 	0.3501	0.0251	0.309	0.491
Mof_H 	H 	0.4479	0.9516	0.292	0.472
Mof_H 	H 	0.3578	0.9267	0.3301	0.464
Mof_H 	H 	0.9531	0.8794	0.3245	-0.133
Mof_H 	H 	0.8723	0.7276	0.3053	0.254
Mof_H 	H 	0.0246	0.7332	0.308	0.268
Mof_H 	H 	0.9493	0.6886	0.3458	0.275
Mof_H 	H 	0.0398	0.7915	0.4024	0.202
Mof_H 	H 	0.1306	0.839	0.3695	0.197
Mof_H 	H 	0.0373	0.8991	0.3968	0.197
Mof_H 	H 	0.0439	0.9708	0.1382	-0.14
Mof_H 	H 	0.7114	0.1108	0.12	-0.146
Mof_H 	H 	0.0269	0.9504	0.2515	-0.189
Mof_H 	H 	0.2076	0.0013	0.1898	0.298
Mof_H 	H 	0.1859	0.0487	0.2344	0.303
Mof_H 	H 	0.2537	0.9518	0.2326	0.302
Mof_H 	H 	0.9649	0.8171	0.2169	0.339
Mof_H 	H 	0.0747	0.8294	0.1835	0.345
Mof_H 	H 	0.1115	0.8095	0.2321	0.344
Mof_H 	H 	0.6324	0.1199	0.2323	-0.211
Mof_H 	H 	0.6085	0.2391	0.1603	0.359
Mof_H 	H 	0.5644	0.2609	0.2071	0.36
Mof_H 	H 	0.7128	0.2556	0.1975	0.349
Mof_H 	H 	0.5008	0.0852	0.1533	0.374
Mof_H 	H 	0.5093	0.0158	0.1921	0.367
Mof_H 	H 	0.4327	0.1088	0.1964	0.373
Mof_H 	H 	0.0798	0.6415	0.2201	-0.011
Mof_H 	H 	0.1429	0.5832	0.149	-0.018
Mof_H 	H 	0.1885	0.2386	0.0937	-0.14
Mof_H 	H 	0.5303	0.3733	0.0939	-0.191
Mof_H 	H 	0.4351	0.5516	0.1667	-0.329
Mof_H 	H 	0.5351	0.6277	0.1209	0.569
Mof_H 	H 	0.6428	0.5518	0.117	0.523
Mof_H 	H 	0.5134	0.5446	0.089	0.522
Mof_H 	H 	0.6499	0.5251	0.191	0.52
Mof_H 	H 	0.5521	0.4516	0.208	0.498
Mof_H 	H 	0.6422	0.4267	0.1699	0.49
Mof_H 	H 	0.0469	0.3794	0.1755	-0.134
Mof_H 	H 	0.1277	0.2276	0.1947	0.256
Mof_H 	H 	0.9754	0.2332	0.192	0.269
Mof_H 	H 	0.0507	0.1886	0.1542	0.277
Mof_H 	H 	0.9602	0.2915	0.0976	0.204
Mof_H 	H 	0.8694	0.339	0.1305	0.197
Mof_H 	H 	0.9627	0.3991	0.1032	0.197
Mof_H 	H 	0.9561	0.4708	0.3618	-0.15
Mof_H 	H 	0.2886	0.6108	0.38	-0.148
Mof_H 	H 	0.9731	0.4504	0.2485	-0.207
Mof_H 	H 	0.7924	0.5013	0.3102	0.333
Mof_H 	H 	0.8141	0.5487	0.2656	0.337
Mof_H 	H 	0.7463	0.4518	0.2674	0.329
Mof_H 	H 	0.0351	0.3171	0.2831	0.358
Mof_H 	H 	0.9253	0.3294	0.3165	0.362
Mof_H 	H 	0.8885	0.3095	0.2679	0.361
Mof_H 	H 	0.3676	0.6199	0.2677	-0.214
Mof_H 	H 	0.3915	0.7391	0.3397	0.363
Mof_H 	H 	0.4356	0.7609	0.2929	0.365
Mof_H 	H 	0.2872	0.7556	0.3025	0.355
Mof_H 	H 	0.4992	0.5852	0.3467	0.379
Mof_H 	H 	0.4907	0.5158	0.3079	0.372
Mof_H 	H 	0.5673	0.6088	0.3036	0.376
Mof_H 	H 	0.0798	0.8585	0.7201	-0.012
Mof_H 	H 	0.1429	0.9168	0.649	-0.017
Mof_H 	H 	0.1885	0.2614	0.5937	-0.138
Mof_H 	H 	0.5303	0.1267	0.5939	-0.184
Mof_H 	H 	0.4351	0.9484	0.6667	-0.31
Mof_H 	H 	0.5351	0.8723	0.6209	0.545
Mof_H 	H 	0.6428	0.9482	0.617	0.5
Mof_H 	H 	0.5134	0.9554	0.589	0.499
Mof_H 	H 	0.6499	0.9749	0.691	0.491
Mof_H 	H 	0.5521	0.0484	0.708	0.472
Mof_H 	H 	0.6422	0.0733	0.6699	0.464
Mof_H 	H 	0.0469	0.1206	0.6755	-0.133
Mof_H 	H 	0.1277	0.2724	0.6947	0.254
Mof_H 	H 	0.9754	0.2668	0.692	0.268
Mof_H 	H 	0.0507	0.3114	0.6542	0.275
Mof_H 	H 	0.9602	0.2085	0.5976	0.202
Mof_H 	H 	0.8694	0.161	0.6305	0.197
Mof_H 	H 	0.9627	0.1009	0.6032	0.197
Mof_H 	H 	0.9561	0.0292	0.8618	-0.14
Mof_H 	H 	0.2886	0.8892	0.88	-0.146
Mof_H 	H 	0.9731	0.0496	0.7485	-0.189
Mof_H 	H 	0.7924	0.9987	0.8102	0.298
Mof_H 	H 	0.8141	0.9513	0.7656	0.303
Mof_H 	H 	0.7463	0.0482	0.7674	0.302
Mof_H 	H 	0.0351	0.1829	0.7831	0.339
Mof_H 	H 	0.9253	0.1706	0.8165	0.345
Mof_H 	H 	0.8885	0.1905	0.7679	0.344
Mof_H 	H 	0.3676	0.8801	0.7677	-0.211
Mof_H 	H 	0.3915	0.7609	0.8397	0.359
Mof_H 	H 	0.4356	0.7391	0.7929	0.36
Mof_H 	H 	0.2872	0.7444	0.8025	0.349
Mof_H 	H 	0.4992	0.9148	0.8467	0.374
Mof_H 	H 	0.4907	0.9842	0.8079	0.367
Mof_H 	H 	0.5673	0.8912	0.8036	0.373
Mof_H 	H 	0.9202	0.3585	0.7799	-0.011
Mof_H 	H 	0.8571	0.4168	0.851	-0.018
Mof_H 	H 	0.8115	0.7614	0.9063	-0.14
Mof_H 	H 	0.4697	0.6267	0.9061	-0.191
Mof_H 	H 	0.5649	0.4484	0.8333	-0.329
Mof_H 	H 	0.4649	0.3723	0.8791	0.569
Mof_H 	H 	0.3572	0.4482	0.883	0.523
Mof_H 	H 	0.4866	0.4554	0.911	0.522
Mof_H 	H 	0.3501	0.4749	0.809	0.52
Mof_H 	H 	0.4479	0.5484	0.792	0.498
Mof_H 	H 	0.3578	0.5733	0.8301	0.49
Mof_H 	H 	0.9531	0.6206	0.8245	-0.134
Mof_H 	H 	0.8723	0.7724	0.8053	0.256
Mof_H 	H 	0.0246	0.7668	0.808	0.269
Mof_H 	H 	0.9493	0.8114	0.8458	0.277
Mof_H 	H 	0.0398	0.7085	0.9024	0.204
Mof_H 	H 	0.1306	0.661	0.8695	0.197
Mof_H 	H 	0.0373	0.6009	0.8968	0.197
Mof_H 	H 	0.0439	0.5292	0.6382	-0.15
Mof_H 	H 	0.7114	0.3892	0.62	-0.148
Mof_H 	H 	0.0269	0.5496	0.7515	-0.207
Mof_H 	H 	0.2076	0.4987	0.6898	0.333
Mof_H 	H 	0.1859	0.4513	0.7344	0.337
Mof_H 	H 	0.2537	0.5482	0.7326	0.329
Mof_H 	H 	0.9649	0.6829	0.7169	0.358
Mof_H 	H 	0.0747	0.6706	0.6835	0.362
Mof_H 	H 	0.1115	0.6905	0.7321	0.361
Mof_H 	H 	0.6324	0.3801	0.7323	-0.214
Mof_H 	H 	0.6085	0.2609	0.6603	0.363
Mof_H 	H 	0.5644	0.2391	0.7071	0.365
Mof_H 	H 	0.7128	0.2444	0.6975	0.355
Mof_H 	H 	0.5008	0.4148	0.6533	0.379
Mof_H 	H 	0.5093	0.4842	0.6921	0.372
Mof_H 	H 	0.4327	0.3912	0.6964	0.376
Mof_C 	C 	0.7571	0.9588	0.274	-0.051
Mof_C 	C 	0.8718	0.0886	0.2853	0.01
Mof_C 	C 	0.837	0.0568	0.3243	0.018
Mof_C 	C 	0.7193	0.9166	0.3491	0.307
Mof_C 	C 	0.8035	0.8457	0.3636	-0.377
Mof_C 	C 	0.7587	0.786	0.3955	0.299
Mof_C 	C 	0.636	0.7984	0.4107	-0.442
Mof_C 	C 	0.5531	0.8682	0.3956	0.378
Mof_C 	C 	0.5951	0.9301	0.3649	-0.584
Mof_C 	C 	0.5092	0.0091	0.3489	1.164
Mof_C 	C 	0.4492	0.063	0.3836	-1.725
Mof_C 	C 	0.4071	0.9751	0.3172	-1.613
Mof_C 	C 	0.9388	0.8318	0.3463	0.497
Mof_C 	C 	0.947	0.7362	0.3243	-0.894
Mof_C 	C 	0.047	0.8413	0.3822	-0.776
Mof_C 	C 	0.8424	0.0353	0.2093	0.288
Mof_C 	C 	0.9539	0.9931	0.1938	-0.437
Mof_C 	C 	0.971	0.9979	0.1498	0.346
Mof_C 	C 	0.8812	0.0426	0.1227	-0.48
Mof_C 	C 	0.7713	0.082	0.1386	0.355
Mof_C 	C 	0.749	0.079	0.1832	-0.455
Mof_C 	C 	0.054	0.9429	0.2217	0.707
Mof_C 	C 	0.188	0.9907	0.2194	-1.053
Mof_C 	C 	0.051	0.8404	0.2127	-1.153
Mof_C 	C 	0.6284	0.1266	0.2009	0.804
Mof_C 	C 	0.6286	0.2303	0.1905	-1.21
Mof_C 	C 	0.5069	0.0799	0.1842	-1.258
Mof_C 	C 	0.369	0.717	0.6018	-0.155
Mof_C 	C 	0.5375	0.5872	0.5824	-0.17
Mof_C 	C 	0.2429	0.4588	0.226	-0.053
Mof_C 	C 	0.1282	0.5886	0.2147	0.01
Mof_C 	C 	0.163	0.5568	0.1757	0.023
Mof_C 	C 	0.2807	0.4166	0.1509	0.318
Mof_C 	C 	0.1965	0.3457	0.1364	-0.384
Mof_C 	C 	0.2413	0.286	0.1045	0.306
Mof_C 	C 	0.364	0.2984	0.0893	-0.449
Mof_C 	C 	0.4469	0.3682	0.1044	0.394
Mof_C 	C 	0.4049	0.4301	0.1351	-0.613
Mof_C 	C 	0.4908	0.5091	0.1511	1.231
Mof_C 	C 	0.5508	0.563	0.1164	-1.8
Mof_C 	C 	0.5929	0.4751	0.1828	-1.704
Mof_C 	C 	0.0612	0.3318	0.1537	0.503
Mof_C 	C 	0.053	0.2362	0.1757	-0.9
Mof_C 	C 	0.953	0.3413	0.1178	-0.781
Mof_C 	C 	0.1576	0.5353	0.2907	0.303
Mof_C 	C 	0.0461	0.4931	0.3062	-0.463
Mof_C 	C 	0.029	0.4979	0.3502	0.359
Mof_C 	C 	0.1188	0.5426	0.3773	-0.485
Mof_C 	C 	0.2287	0.582	0.3614	0.363
Mof_C 	C 	0.251	0.579	0.3168	-0.464
Mof_C 	C 	0.946	0.4429	0.2783	0.76
Mof_C 	C 	0.812	0.4907	0.2806	-1.153
Mof_C 	C 	0.949	0.3404	0.2873	-1.212
Mof_C 	C 	0.3716	0.6266	0.2991	0.815
Mof_C 	C 	0.3714	0.7303	0.3095	-1.222
Mof_C 	C 	0.4931	0.5799	0.3158	-1.27
Mof_C 	C 	0.631	0.217	0.8982	-0.155
Mof_C 	C 	0.4625	0.0872	0.9176	-0.167
Mof_C 	C 	0.2429	0.0412	0.726	-0.051
Mof_C 	C 	0.1282	0.9114	0.7147	0.01
Mof_C 	C 	0.163	0.9432	0.6757	0.018
Mof_C 	C 	0.2807	0.0834	0.6509	0.307
Mof_C 	C 	0.1965	0.1543	0.6364	-0.377
Mof_C 	C 	0.2413	0.214	0.6045	0.299
Mof_C 	C 	0.364	0.2016	0.5893	-0.442
Mof_C 	C 	0.4469	0.1318	0.6044	0.378
Mof_C 	C 	0.4049	0.0699	0.6351	-0.584
Mof_C 	C 	0.4908	0.9909	0.6511	1.164
Mof_C 	C 	0.5508	0.937	0.6164	-1.725
Mof_C 	C 	0.5929	0.0249	0.6828	-1.613
Mof_C 	C 	0.0612	0.1682	0.6537	0.497
Mof_C 	C 	0.053	0.2638	0.6757	-0.894
Mof_C 	C 	0.953	0.1587	0.6178	-0.776
Mof_C 	C 	0.1576	0.9647	0.7907	0.288
Mof_C 	C 	0.0461	0.0069	0.8062	-0.437
Mof_C 	C 	0.029	0.0021	0.8502	0.346
Mof_C 	C 	0.1188	0.9574	0.8773	-0.48
Mof_C 	C 	0.2287	0.918	0.8614	0.355
Mof_C 	C 	0.251	0.921	0.8168	-0.455
Mof_C 	C 	0.946	0.0571	0.7783	0.707
Mof_C 	C 	0.812	0.0093	0.7806	-1.053
Mof_C 	C 	0.949	0.1596	0.7873	-1.153
Mof_C 	C 	0.3716	0.8734	0.7991	0.804
Mof_C 	C 	0.3714	0.7697	0.8095	-1.21
Mof_C 	C 	0.4931	0.9201	0.8158	-1.258
Mof_C 	C 	0.631	0.283	0.3982	-0.155
Mof_C 	C 	0.4625	0.4128	0.4176	-0.17
Mof_C 	C 	0.7571	0.5412	0.774	-0.053
Mof_C 	C 	0.8718	0.4114	0.7853	0.01
Mof_C 	C 	0.837	0.4432	0.8243	0.023
Mof_C 	C 	0.7193	0.5834	0.8491	0.318
Mof_C 	C 	0.8035	0.6543	0.8636	-0.384
Mof_C 	C 	0.7587	0.714	0.8955	0.306
Mof_C 	C 	0.636	0.7016	0.9107	-0.449
Mof_C 	C 	0.5531	0.6318	0.8956	0.394
Mof_C 	C 	0.5951	0.5699	0.8649	-0.613
Mof_C 	C 	0.5092	0.4909	0.8489	1.231
Mof_C 	C 	0.4492	0.437	0.8836	-1.8
Mof_C 	C 	0.4071	0.5249	0.8172	-1.704
Mof_C 	C 	0.9388	0.6682	0.8463	0.503
Mof_C 	C 	0.947	0.7638	0.8243	-0.9
Mof_C 	C 	0.047	0.6587	0.8822	-0.781
Mof_C 	C 	0.8424	0.4647	0.7093	0.303
Mof_C 	C 	0.9539	0.5069	0.6938	-0.463
Mof_C 	C 	0.971	0.5021	0.6498	0.359
Mof_C 	C 	0.8812	0.4574	0.6227	-0.485
Mof_C 	C 	0.7713	0.418	0.6386	0.363
Mof_C 	C 	0.749	0.421	0.6832	-0.464
Mof_C 	C 	0.054	0.5571	0.7217	0.76
Mof_C 	C 	0.188	0.5093	0.7194	-1.153
Mof_C 	C 	0.051	0.6596	0.7127	-1.212
Mof_C 	C 	0.6284	0.3734	0.7009	0.815
Mof_C 	C 	0.6286	0.2697	0.6905	-1.222
Mof_C 	C 	0.5069	0.4201	0.6842	-1.27
Mof_C 	C 	0.369	0.783	0.1018	-0.155
Mof_C 	C 	0.5375	0.9128	0.0824	-0.167
Mof_S 	S 	0.5767	0.72092	0.45097	0.972
Mof_S 	S 	0.91138	0.05164	0.06688	1.198
Mof_S 	S 	0.3699	0.6043	0.58821	0.051
Mof_S 	S 	0.4233	0.22092	0.04903	0.974
Mof_S 	S 	0.08862	0.55164	0.43312	1.206
Mof_S 	S 	0.6301	0.1043	0.91179	0.056
Mof_S 	S 	0.4233	0.27908	0.54903	0.972
Mof_S 	S 	0.08862	0.94836	0.93312	1.198
Mof_S 	S 	0.6301	0.3957	0.41179	0.051
Mof_S 	S 	0.5767	0.77908	0.95097	0.974
Mof_S 	S 	0.91138	0.44836	0.56688	1.206
Mof_S 	S 	0.3699	0.8957	0.08821	0.056
Mof_N 	N 	0.7665	0.9781	0.31651	-0.15
Mof_N 	N 	0.8224	0.0286	0.25556	-0.148
Mof_N 	N 	0.2335	0.4781	0.18349	-0.154
Mof_N 	N 	0.1776	0.5286	0.24444	-0.148
Mof_N 	N 	0.2335	0.0219	0.68349	-0.15
Mof_N 	N 	0.1776	0.9714	0.74444	-0.148
Mof_N 	N 	0.7665	0.5219	0.81651	-0.154
Mof_N 	N 	0.8224	0.4714	0.75556	-0.148
Mof_Cl	Cl	0.5617	0.7381	0.20157	-0.54
Mof_Cl	Cl	0.4383	0.2381	0.29843	-0.54
Mof_Cl	Cl	0.4383	0.2619	0.79843	-0.54
Mof_Cl	Cl	0.5617	0.7619	0.70157	-0.54
Mof_O 	O 	0.6692	0.6529	0.4577	-0.975
Mof_O 	O 	0.5548	0.7751	0.4885	-0.594
Mof_O 	O 	0.4548	0.686	0.4343	-0.733
Mof_O 	O 	0.0404	0.0261	0.0623	-1.052
Mof_O 	O 	0.819	0.9927	0.046	-1.031
Mof_O 	O 	0.8882	0.1433	0.0551	-0.887
Mof_O 	O 	0.318	0.6074	0.5415	-0.927
Mof_O 	O 	0.3308	0.1529	0.0423	-0.973
Mof_O 	O 	0.4452	0.2751	0.0115	-0.595
Mof_O 	O 	0.5452	0.186	0.0657	-0.734
Mof_O 	O 	0.9596	0.5261	0.4377	-1.054
Mof_O 	O 	0.181	0.4927	0.454	-1.04
Mof_O 	O 	0.1118	0.6433	0.4449	-0.89
Mof_O 	O 	0.682	0.1074	0.9585	-0.921
Mof_O 	O 	0.3308	0.3471	0.5423	-0.975
Mof_O 	O 	0.4452	0.2249	0.5115	-0.594
Mof_O 	O 	0.5452	0.314	0.5657	-0.733
Mof_O 	O 	0.9596	0.9739	0.9377	-1.052
Mof_O 	O 	0.181	0.0073	0.954	-1.031
Mof_O 	O 	0.1118	0.8567	0.9449	-0.887
Mof_O 	O 	0.682	0.3926	0.4585	-0.927
Mof_O 	O 	0.6692	0.8471	0.9577	-0.973
Mof_O 	O 	0.5548	0.7249	0.9885	-0.595
Mof_O 	O 	0.4548	0.814	0.9343	-0.734
Mof_O 	O 	0.0404	0.4739	0.5623	-1.054
Mof_O 	O 	0.819	0.5073	0.546	-1.04
Mof_O 	O 	0.8882	0.3567	0.5551	-0.89
Mof_O 	O 	0.318	0.8926	0.0415	-0.921
_end
