data_functionalizedCrystal
_audit_creation_method	'EQeq! by Chris Wilmer'
_symmetry_space_group_name_H-M	'P1'
_symmetry_Int_Tables_number	1
_symmetry_cell_setting	triclinic
loop_
_symmetry_equiv_pos_as_xyz
  x,y,z
_cell_length_a	7.1728
_cell_length_b	23.7537
_cell_length_c	30.701
_cell_angle_alpha	90
_cell_angle_beta	90
_cell_angle_gamma	90
loop_
_atom_site_label
_atom_site_type_symbol
_atom_site_fract_x
_atom_site_fract_y
_atom_site_fract_z
_atom_site_charge
Mof_Ag	Ag	0.19537	0.76997	0.29077	0.555
Mof_Ag	Ag	0.53058	0.44286	0.4843	0.569
Mof_O 	O 	0.345	0.69583	0.31401	-0.379
Mof_O 	O 	0.4538	0.6672	0.24919	-0.394
Mof_O 	O 	0.4823	0.58781	0.44642	-0.372
Mof_O 	O 	0.6612	0.51125	0.44156	-0.404
Mof_N 	N 	0.1076	0.81258	0.35764	-0.154
Mof_N 	N 	0.0172	0.87425	0.43158	-0.163
Mof_C 	C 	0.9996	0.8583	0.35558	0.008
Mof_H 	H 	0.9526	0.8703	0.3282	0.034
Mof_C 	C 	0.955	0.88851	0.39264	0.013
Mof_H 	H 	0.8768	0.9206	0.39	0.026
Mof_C 	C 	0.1243	0.82818	0.43372	0.013
Mof_H 	H 	0.1705	0.8163	0.4612	0.015
Mof_C 	C 	0.1691	0.79756	0.39699	0.008
Mof_H 	H 	0.2454	0.7651	0.3998	0.029
Mof_C 	C 	0.435	0.66348	0.28982	0.337
Mof_C 	C 	0.5307	0.61453	0.31173	-0.13
Mof_C 	C 	0.6394	0.57706	0.28768	0.038
Mof_H 	H 	0.6501	0.5814	0.257	0.025
Mof_C 	C 	0.7321	0.53338	0.30865	-0.11
Mof_H 	H 	0.8067	0.5079	0.2924	0.068
Mof_C 	C 	0.7157	0.52709	0.35285	0.041
Mof_H 	H 	0.7813	0.4976	0.367	0.024
Mof_C 	C 	0.6047	0.56322	0.37733	-0.124
Mof_C 	C 	0.5134	0.60724	0.35645	0.053
Mof_H 	H 	0.4387	0.6325	0.3729	0.032
Mof_C 	C 	0.581	0.55366	0.4254	0.346
Mof_Ag	Ag	0.69537	0.26997	0.79077	0.554
Mof_Ag	Ag	0.03058	0.94286	0.9843	0.568
Mof_O 	O 	0.845	0.19583	0.81401	-0.38
Mof_O 	O 	0.9538	0.1672	0.74919	-0.395
Mof_O 	O 	0.9823	0.08781	0.94642	-0.372
Mof_O 	O 	0.1612	0.01125	0.94156	-0.404
Mof_N 	N 	0.6076	0.31258	0.85764	-0.154
Mof_N 	N 	0.5172	0.37425	0.93158	-0.163
Mof_C 	C 	0.4996	0.3583	0.85558	0.009
Mof_H 	H 	0.4526	0.3703	0.8282	0.034
Mof_C 	C 	0.455	0.38851	0.89264	0.013
Mof_H 	H 	0.3768	0.4206	0.89	0.026
Mof_C 	C 	0.6243	0.32818	0.93372	0.013
Mof_H 	H 	0.6705	0.3163	0.9612	0.015
Mof_C 	C 	0.6691	0.29756	0.89699	0.008
Mof_H 	H 	0.7454	0.2651	0.8998	0.029
Mof_C 	C 	0.935	0.16348	0.78982	0.338
Mof_C 	C 	0.0307	0.11453	0.81173	-0.13
Mof_C 	C 	0.1394	0.07706	0.78768	0.038
Mof_H 	H 	0.1501	0.0814	0.757	0.025
Mof_C 	C 	0.2321	0.03338	0.80865	-0.11
Mof_H 	H 	0.3067	0.0079	0.7924	0.067
Mof_C 	C 	0.2157	0.02709	0.85285	0.041
Mof_H 	H 	0.2813	0.9976	0.867	0.024
Mof_C 	C 	0.1047	0.06322	0.87733	-0.124
Mof_C 	C 	0.0134	0.10724	0.85645	0.052
Mof_H 	H 	0.9387	0.1325	0.8729	0.033
Mof_C 	C 	0.081	0.05366	0.9254	0.345
Mof_Ag	Ag	0.30463	0.23003	0.79077	0.554
Mof_Ag	Ag	0.96942	0.55714	0.9843	0.568
Mof_O 	O 	0.155	0.30417	0.81401	-0.38
Mof_O 	O 	0.0462	0.3328	0.74919	-0.395
Mof_O 	O 	0.0177	0.41219	0.94642	-0.372
Mof_O 	O 	0.8388	0.48875	0.94156	-0.404
Mof_N 	N 	0.3924	0.18742	0.85764	-0.154
Mof_N 	N 	0.4828	0.12575	0.93158	-0.163
Mof_C 	C 	0.5004	0.1417	0.85558	0.009
Mof_H 	H 	0.5474	0.1297	0.8282	0.034
Mof_C 	C 	0.545	0.11149	0.89264	0.013
Mof_H 	H 	0.6232	0.0794	0.89	0.026
Mof_C 	C 	0.3757	0.17182	0.93372	0.013
Mof_H 	H 	0.3295	0.1837	0.9612	0.015
Mof_C 	C 	0.3309	0.20244	0.89699	0.008
Mof_H 	H 	0.2546	0.2349	0.8998	0.029
Mof_C 	C 	0.065	0.33652	0.78982	0.338
Mof_C 	C 	0.9693	0.38547	0.81173	-0.13
Mof_C 	C 	0.8606	0.42294	0.78768	0.038
Mof_H 	H 	0.8499	0.4186	0.757	0.025
Mof_C 	C 	0.7679	0.46662	0.80865	-0.11
Mof_H 	H 	0.6933	0.4921	0.7924	0.067
Mof_C 	C 	0.7843	0.47291	0.85285	0.041
Mof_H 	H 	0.7187	0.5024	0.867	0.024
Mof_C 	C 	0.8953	0.43678	0.87733	-0.124
Mof_C 	C 	0.9866	0.39276	0.85645	0.052
Mof_H 	H 	0.0613	0.3675	0.8729	0.033
Mof_C 	C 	0.919	0.44634	0.9254	0.345
Mof_Ag	Ag	0.80463	0.73003	0.29077	0.554
Mof_Ag	Ag	0.46942	0.05714	0.4843	0.568
Mof_O 	O 	0.655	0.80417	0.31401	-0.38
Mof_O 	O 	0.5462	0.8328	0.24919	-0.395
Mof_O 	O 	0.5177	0.91219	0.44642	-0.372
Mof_O 	O 	0.3388	0.98875	0.44156	-0.404
Mof_N 	N 	0.8924	0.68742	0.35764	-0.154
Mof_N 	N 	0.9828	0.62575	0.43158	-0.163
Mof_C 	C 	0.0004	0.6417	0.35558	0.008
Mof_H 	H 	0.0474	0.6297	0.3282	0.034
Mof_C 	C 	0.045	0.61149	0.39264	0.013
Mof_H 	H 	0.1232	0.5794	0.39	0.026
Mof_C 	C 	0.8757	0.67182	0.43372	0.013
Mof_H 	H 	0.8295	0.6837	0.4612	0.015
Mof_C 	C 	0.8309	0.70244	0.39699	0.008
Mof_H 	H 	0.7546	0.7349	0.3998	0.029
Mof_C 	C 	0.565	0.83652	0.28982	0.337
Mof_C 	C 	0.4693	0.88547	0.31173	-0.13
Mof_C 	C 	0.3606	0.92294	0.28768	0.038
Mof_H 	H 	0.3499	0.9186	0.257	0.025
Mof_C 	C 	0.2679	0.96662	0.30865	-0.11
Mof_H 	H 	0.1933	0.9921	0.2924	0.068
Mof_C 	C 	0.2843	0.97291	0.35285	0.041
Mof_H 	H 	0.2187	0.0024	0.367	0.024
Mof_C 	C 	0.3953	0.93678	0.37733	-0.124
Mof_C 	C 	0.4866	0.89276	0.35645	0.053
Mof_H 	H 	0.5613	0.8675	0.3729	0.032
Mof_C 	C 	0.419	0.94634	0.4254	0.346
Mof_Ag	Ag	0.80463	0.26997	0.20923	0.554
Mof_Ag	Ag	0.46942	0.94286	0.0157	0.568
Mof_O 	O 	0.655	0.19583	0.18599	-0.38
Mof_O 	O 	0.5462	0.1672	0.25081	-0.395
Mof_O 	O 	0.5177	0.08781	0.05358	-0.372
Mof_O 	O 	0.3388	0.01125	0.05844	-0.404
Mof_N 	N 	0.8924	0.31258	0.14236	-0.154
Mof_N 	N 	0.9828	0.37425	0.06842	-0.163
Mof_C 	C 	0.0004	0.3583	0.14442	0.008
Mof_H 	H 	0.0474	0.3703	0.1718	0.034
Mof_C 	C 	0.045	0.38851	0.10736	0.013
Mof_H 	H 	0.1232	0.4206	0.11	0.026
Mof_C 	C 	0.8757	0.32818	0.06628	0.013
Mof_H 	H 	0.8295	0.3163	0.0388	0.015
Mof_C 	C 	0.8309	0.29756	0.10301	0.008
Mof_H 	H 	0.7546	0.2651	0.1002	0.029
Mof_C 	C 	0.565	0.16348	0.21018	0.337
Mof_C 	C 	0.4693	0.11453	0.18827	-0.13
Mof_C 	C 	0.3606	0.07706	0.21232	0.038
Mof_H 	H 	0.3499	0.0814	0.243	0.025
Mof_C 	C 	0.2679	0.03338	0.19135	-0.11
Mof_H 	H 	0.1933	0.0079	0.2076	0.068
Mof_C 	C 	0.2843	0.02709	0.14715	0.041
Mof_H 	H 	0.2187	0.9976	0.133	0.024
Mof_C 	C 	0.3953	0.06322	0.12267	-0.124
Mof_C 	C 	0.4866	0.10724	0.14355	0.053
Mof_H 	H 	0.5613	0.1325	0.1271	0.032
Mof_C 	C 	0.419	0.05366	0.0746	0.346
Mof_Ag	Ag	0.30463	0.76997	0.70923	0.554
Mof_Ag	Ag	0.96942	0.44286	0.5157	0.567
Mof_O 	O 	0.155	0.69583	0.68599	-0.38
Mof_O 	O 	0.0462	0.6672	0.75081	-0.395
Mof_O 	O 	0.0177	0.58781	0.55358	-0.372
Mof_O 	O 	0.8388	0.51125	0.55844	-0.404
Mof_N 	N 	0.3924	0.81258	0.64236	-0.154
Mof_N 	N 	0.4828	0.87425	0.56842	-0.163
Mof_C 	C 	0.5004	0.8583	0.64442	0.009
Mof_H 	H 	0.5474	0.8703	0.6718	0.034
Mof_C 	C 	0.545	0.88851	0.60736	0.013
Mof_H 	H 	0.6232	0.9206	0.61	0.026
Mof_C 	C 	0.3757	0.82818	0.56628	0.013
Mof_H 	H 	0.3295	0.8163	0.5388	0.015
Mof_C 	C 	0.3309	0.79756	0.60301	0.008
Mof_H 	H 	0.2546	0.7651	0.6002	0.029
Mof_C 	C 	0.065	0.66348	0.71018	0.338
Mof_C 	C 	0.9693	0.61453	0.68827	-0.13
Mof_C 	C 	0.8606	0.57706	0.71232	0.038
Mof_H 	H 	0.8499	0.5814	0.743	0.025
Mof_C 	C 	0.7679	0.53338	0.69135	-0.11
Mof_H 	H 	0.6933	0.5079	0.7076	0.067
Mof_C 	C 	0.7843	0.52709	0.64715	0.041
Mof_H 	H 	0.7187	0.4976	0.633	0.024
Mof_C 	C 	0.8953	0.56322	0.62267	-0.124
Mof_C 	C 	0.9866	0.60724	0.64355	0.052
Mof_H 	H 	0.0613	0.6325	0.6271	0.033
Mof_C 	C 	0.919	0.55366	0.5746	0.345
Mof_Ag	Ag	0.69537	0.73003	0.70923	0.554
Mof_Ag	Ag	0.03058	0.05714	0.5157	0.567
Mof_O 	O 	0.845	0.80417	0.68599	-0.38
Mof_O 	O 	0.9538	0.8328	0.75081	-0.395
Mof_O 	O 	0.9823	0.91219	0.55358	-0.372
Mof_O 	O 	0.1612	0.98875	0.55844	-0.404
Mof_N 	N 	0.6076	0.68742	0.64236	-0.154
Mof_N 	N 	0.5172	0.62575	0.56842	-0.163
Mof_C 	C 	0.4996	0.6417	0.64442	0.009
Mof_H 	H 	0.4526	0.6297	0.6718	0.034
Mof_C 	C 	0.455	0.61149	0.60736	0.013
Mof_H 	H 	0.3768	0.5794	0.61	0.026
Mof_C 	C 	0.6243	0.67182	0.56628	0.013
Mof_H 	H 	0.6705	0.6837	0.5388	0.015
Mof_C 	C 	0.6691	0.70244	0.60301	0.008
Mof_H 	H 	0.7454	0.7349	0.6002	0.029
Mof_C 	C 	0.935	0.83652	0.71018	0.338
Mof_C 	C 	0.0307	0.88547	0.68827	-0.13
Mof_C 	C 	0.1394	0.92294	0.71232	0.038
Mof_H 	H 	0.1501	0.9186	0.743	0.025
Mof_C 	C 	0.2321	0.96662	0.69135	-0.11
Mof_H 	H 	0.3067	0.9921	0.7076	0.067
Mof_C 	C 	0.2157	0.97291	0.64715	0.041
Mof_H 	H 	0.2813	0.0024	0.633	0.024
Mof_C 	C 	0.1047	0.93678	0.62267	-0.124
Mof_C 	C 	0.0134	0.89276	0.64355	0.052
Mof_H 	H 	0.9387	0.8675	0.6271	0.033
Mof_C 	C 	0.081	0.94634	0.5746	0.345
Mof_Ag	Ag	0.19537	0.23003	0.20923	0.554
Mof_Ag	Ag	0.53058	0.55714	0.0157	0.568
Mof_O 	O 	0.345	0.30417	0.18599	-0.38
Mof_O 	O 	0.4538	0.3328	0.25081	-0.395
Mof_O 	O 	0.4823	0.41219	0.05358	-0.372
Mof_O 	O 	0.6612	0.48875	0.05844	-0.404
Mof_N 	N 	0.1076	0.18742	0.14236	-0.154
Mof_N 	N 	0.0172	0.12575	0.06842	-0.163
Mof_C 	C 	0.9996	0.1417	0.14442	0.008
Mof_H 	H 	0.9526	0.1297	0.1718	0.034
Mof_C 	C 	0.955	0.11149	0.10736	0.013
Mof_H 	H 	0.8768	0.0794	0.11	0.026
Mof_C 	C 	0.1243	0.17182	0.06628	0.013
Mof_H 	H 	0.1705	0.1837	0.0388	0.015
Mof_C 	C 	0.1691	0.20244	0.10301	0.008
Mof_H 	H 	0.2454	0.2349	0.1002	0.029
Mof_C 	C 	0.435	0.33652	0.21018	0.337
Mof_C 	C 	0.5307	0.38547	0.18827	-0.13
Mof_C 	C 	0.6394	0.42294	0.21232	0.038
Mof_H 	H 	0.6501	0.4186	0.243	0.025
Mof_C 	C 	0.7321	0.46662	0.19135	-0.11
Mof_H 	H 	0.8067	0.4921	0.2076	0.068
Mof_C 	C 	0.7157	0.47291	0.14715	0.041
Mof_H 	H 	0.7813	0.5024	0.133	0.024
Mof_C 	C 	0.6047	0.43678	0.12267	-0.124
Mof_C 	C 	0.5134	0.39276	0.14355	0.053
Mof_H 	H 	0.4387	0.3675	0.1271	0.032
Mof_C 	C 	0.581	0.44634	0.0746	0.346
Mof_Ag	Ag	0.80463	0.23003	0.70923	0.554
Mof_Ag	Ag	0.46942	0.55714	0.5157	0.568
Mof_O 	O 	0.655	0.30417	0.68599	-0.38
Mof_O 	O 	0.5462	0.3328	0.75081	-0.395
Mof_O 	O 	0.5177	0.41219	0.55358	-0.372
Mof_O 	O 	0.3388	0.48875	0.55844	-0.404
Mof_N 	N 	0.8924	0.18742	0.64236	-0.154
Mof_N 	N 	0.9828	0.12575	0.56842	-0.163
Mof_C 	C 	0.0004	0.1417	0.64442	0.008
Mof_H 	H 	0.0474	0.1297	0.6718	0.034
Mof_C 	C 	0.045	0.11149	0.60736	0.013
Mof_H 	H 	0.1232	0.0794	0.61	0.026
Mof_C 	C 	0.8757	0.17182	0.56628	0.013
Mof_H 	H 	0.8295	0.1837	0.5388	0.015
Mof_C 	C 	0.8309	0.20244	0.60301	0.008
Mof_H 	H 	0.7546	0.2349	0.6002	0.029
Mof_C 	C 	0.565	0.33652	0.71018	0.337
Mof_C 	C 	0.4693	0.38547	0.68827	-0.13
Mof_C 	C 	0.3606	0.42294	0.71232	0.038
Mof_H 	H 	0.3499	0.4186	0.743	0.025
Mof_C 	C 	0.2679	0.46662	0.69135	-0.11
Mof_H 	H 	0.1933	0.4921	0.7076	0.068
Mof_C 	C 	0.2843	0.47291	0.64715	0.041
Mof_H 	H 	0.2187	0.5024	0.633	0.024
Mof_C 	C 	0.3953	0.43678	0.62267	-0.124
Mof_C 	C 	0.4866	0.39276	0.64355	0.053
Mof_H 	H 	0.5613	0.3675	0.6271	0.032
Mof_C 	C 	0.419	0.44634	0.5746	0.346
Mof_Ag	Ag	0.30463	0.73003	0.20923	0.554
Mof_Ag	Ag	0.96942	0.05714	0.0157	0.568
Mof_O 	O 	0.155	0.80417	0.18599	-0.38
Mof_O 	O 	0.0462	0.8328	0.25081	-0.395
Mof_O 	O 	0.0177	0.91219	0.05358	-0.372
Mof_O 	O 	0.8388	0.98875	0.05844	-0.404
Mof_N 	N 	0.3924	0.68742	0.14236	-0.154
Mof_N 	N 	0.4828	0.62575	0.06842	-0.163
Mof_C 	C 	0.5004	0.6417	0.14442	0.009
Mof_H 	H 	0.5474	0.6297	0.1718	0.034
Mof_C 	C 	0.545	0.61149	0.10736	0.013
Mof_H 	H 	0.6232	0.5794	0.11	0.026
Mof_C 	C 	0.3757	0.67182	0.06628	0.013
Mof_H 	H 	0.3295	0.6837	0.0388	0.015
Mof_C 	C 	0.3309	0.70244	0.10301	0.008
Mof_H 	H 	0.2546	0.7349	0.1002	0.029
Mof_C 	C 	0.065	0.83652	0.21018	0.338
Mof_C 	C 	0.9693	0.88547	0.18827	-0.13
Mof_C 	C 	0.8606	0.92294	0.21232	0.038
Mof_H 	H 	0.8499	0.9186	0.243	0.025
Mof_C 	C 	0.7679	0.96662	0.19135	-0.11
Mof_H 	H 	0.6933	0.9921	0.2076	0.067
Mof_C 	C 	0.7843	0.97291	0.14715	0.041
Mof_H 	H 	0.7187	0.0024	0.133	0.024
Mof_C 	C 	0.8953	0.93678	0.12267	-0.124
Mof_C 	C 	0.9866	0.89276	0.14355	0.052
Mof_H 	H 	0.0613	0.8675	0.1271	0.033
Mof_C 	C 	0.919	0.94634	0.0746	0.345
Mof_Ag	Ag	0.69537	0.76997	0.20923	0.554
Mof_Ag	Ag	0.03058	0.44286	0.0157	0.568
Mof_O 	O 	0.845	0.69583	0.18599	-0.38
Mof_O 	O 	0.9538	0.6672	0.25081	-0.395
Mof_O 	O 	0.9823	0.58781	0.05358	-0.372
Mof_O 	O 	0.1612	0.51125	0.05844	-0.404
Mof_N 	N 	0.6076	0.81258	0.14236	-0.154
Mof_N 	N 	0.5172	0.87425	0.06842	-0.163
Mof_C 	C 	0.4996	0.8583	0.14442	0.009
Mof_H 	H 	0.4526	0.8703	0.1718	0.034
Mof_C 	C 	0.455	0.88851	0.10736	0.013
Mof_H 	H 	0.3768	0.9206	0.11	0.026
Mof_C 	C 	0.6243	0.82818	0.06628	0.013
Mof_H 	H 	0.6705	0.8163	0.0388	0.015
Mof_C 	C 	0.6691	0.79756	0.10301	0.008
Mof_H 	H 	0.7454	0.7651	0.1002	0.029
Mof_C 	C 	0.935	0.66348	0.21018	0.338
Mof_C 	C 	0.0307	0.61453	0.18827	-0.13
Mof_C 	C 	0.1394	0.57706	0.21232	0.038
Mof_H 	H 	0.1501	0.5814	0.243	0.025
Mof_C 	C 	0.2321	0.53338	0.19135	-0.11
Mof_H 	H 	0.3067	0.5079	0.2076	0.067
Mof_C 	C 	0.2157	0.52709	0.14715	0.041
Mof_H 	H 	0.2813	0.4976	0.133	0.024
Mof_C 	C 	0.1047	0.56322	0.12267	-0.124
Mof_C 	C 	0.0134	0.60724	0.14355	0.052
Mof_H 	H 	0.9387	0.6325	0.1271	0.033
Mof_C 	C 	0.081	0.55366	0.0746	0.345
Mof_Ag	Ag	0.19537	0.26997	0.70923	0.554
Mof_Ag	Ag	0.53058	0.94286	0.5157	0.568
Mof_O 	O 	0.345	0.19583	0.68599	-0.38
Mof_O 	O 	0.4538	0.1672	0.75081	-0.395
Mof_O 	O 	0.4823	0.08781	0.55358	-0.372
Mof_O 	O 	0.6612	0.01125	0.55844	-0.404
Mof_N 	N 	0.1076	0.31258	0.64236	-0.154
Mof_N 	N 	0.0172	0.37425	0.56842	-0.163
Mof_C 	C 	0.9996	0.3583	0.64442	0.008
Mof_H 	H 	0.9526	0.3703	0.6718	0.034
Mof_C 	C 	0.955	0.38851	0.60736	0.013
Mof_H 	H 	0.8768	0.4206	0.61	0.026
Mof_C 	C 	0.1243	0.32818	0.56628	0.013
Mof_H 	H 	0.1705	0.3163	0.5388	0.015
Mof_C 	C 	0.1691	0.29756	0.60301	0.008
Mof_H 	H 	0.2454	0.2651	0.6002	0.029
Mof_C 	C 	0.435	0.16348	0.71018	0.337
Mof_C 	C 	0.5307	0.11453	0.68827	-0.13
Mof_C 	C 	0.6394	0.07706	0.71232	0.038
Mof_H 	H 	0.6501	0.0814	0.743	0.025
Mof_C 	C 	0.7321	0.03338	0.69135	-0.11
Mof_H 	H 	0.8067	0.0079	0.7076	0.068
Mof_C 	C 	0.7157	0.02709	0.64715	0.041
Mof_H 	H 	0.7813	0.9976	0.633	0.024
Mof_C 	C 	0.6047	0.06322	0.62267	-0.124
Mof_C 	C 	0.5134	0.10724	0.64355	0.053
Mof_H 	H 	0.4387	0.1325	0.6271	0.032
Mof_C 	C 	0.581	0.05366	0.5746	0.346
Mof_Ag	Ag	0.19537	0.73003	0.79077	0.554
Mof_Ag	Ag	0.53058	0.05714	0.9843	0.568
Mof_O 	O 	0.345	0.80417	0.81401	-0.38
Mof_O 	O 	0.4538	0.8328	0.74919	-0.395
Mof_O 	O 	0.4823	0.91219	0.94642	-0.372
Mof_O 	O 	0.6612	0.98875	0.94156	-0.404
Mof_N 	N 	0.1076	0.68742	0.85764	-0.154
Mof_N 	N 	0.0172	0.62575	0.93158	-0.163
Mof_C 	C 	0.9996	0.6417	0.85558	0.008
Mof_H 	H 	0.9526	0.6297	0.8282	0.034
Mof_C 	C 	0.955	0.61149	0.89264	0.013
Mof_H 	H 	0.8768	0.5794	0.89	0.026
Mof_C 	C 	0.1243	0.67182	0.93372	0.013
Mof_H 	H 	0.1705	0.6837	0.9612	0.015
Mof_C 	C 	0.1691	0.70244	0.89699	0.008
Mof_H 	H 	0.2454	0.7349	0.8998	0.029
Mof_C 	C 	0.435	0.83652	0.78982	0.337
Mof_C 	C 	0.5307	0.88547	0.81173	-0.13
Mof_C 	C 	0.6394	0.92294	0.78768	0.038
Mof_H 	H 	0.6501	0.9186	0.757	0.025
Mof_C 	C 	0.7321	0.96662	0.80865	-0.11
Mof_H 	H 	0.8067	0.9921	0.7924	0.068
Mof_C 	C 	0.7157	0.97291	0.85285	0.041
Mof_H 	H 	0.7813	0.0024	0.867	0.024
Mof_C 	C 	0.6047	0.93678	0.87733	-0.124
Mof_C 	C 	0.5134	0.89276	0.85645	0.053
Mof_H 	H 	0.4387	0.8675	0.8729	0.032
Mof_C 	C 	0.581	0.94634	0.9254	0.346
Mof_Ag	Ag	0.69537	0.23003	0.29077	0.554
Mof_Ag	Ag	0.03058	0.55714	0.4843	0.567
Mof_O 	O 	0.845	0.30417	0.31401	-0.38
Mof_O 	O 	0.9538	0.3328	0.24919	-0.395
Mof_O 	O 	0.9823	0.41219	0.44642	-0.372
Mof_O 	O 	0.1612	0.48875	0.44156	-0.404
Mof_N 	N 	0.6076	0.18742	0.35764	-0.154
Mof_N 	N 	0.5172	0.12575	0.43158	-0.163
Mof_C 	C 	0.4996	0.1417	0.35558	0.009
Mof_H 	H 	0.4526	0.1297	0.3282	0.034
Mof_C 	C 	0.455	0.11149	0.39264	0.013
Mof_H 	H 	0.3768	0.0794	0.39	0.026
Mof_C 	C 	0.6243	0.17182	0.43372	0.013
Mof_H 	H 	0.6705	0.1837	0.4612	0.015
Mof_C 	C 	0.6691	0.20244	0.39699	0.008
Mof_H 	H 	0.7454	0.2349	0.3998	0.029
Mof_C 	C 	0.935	0.33652	0.28982	0.338
Mof_C 	C 	0.0307	0.38547	0.31173	-0.13
Mof_C 	C 	0.1394	0.42294	0.28768	0.038
Mof_H 	H 	0.1501	0.4186	0.257	0.025
Mof_C 	C 	0.2321	0.46662	0.30865	-0.11
Mof_H 	H 	0.3067	0.4921	0.2924	0.067
Mof_C 	C 	0.2157	0.47291	0.35285	0.041
Mof_H 	H 	0.2813	0.5024	0.367	0.024
Mof_C 	C 	0.1047	0.43678	0.37733	-0.124
Mof_C 	C 	0.0134	0.39276	0.35645	0.052
Mof_H 	H 	0.9387	0.3675	0.3729	0.033
Mof_C 	C 	0.081	0.44634	0.4254	0.345
Mof_Ag	Ag	0.30463	0.26997	0.29077	0.554
Mof_Ag	Ag	0.96942	0.94286	0.4843	0.567
Mof_O 	O 	0.155	0.19583	0.31401	-0.38
Mof_O 	O 	0.0462	0.1672	0.24919	-0.395
Mof_O 	O 	0.0177	0.08781	0.44642	-0.372
Mof_O 	O 	0.8388	0.01125	0.44156	-0.404
Mof_N 	N 	0.3924	0.31258	0.35764	-0.154
Mof_N 	N 	0.4828	0.37425	0.43158	-0.163
Mof_C 	C 	0.5004	0.3583	0.35558	0.009
Mof_H 	H 	0.5474	0.3703	0.3282	0.034
Mof_C 	C 	0.545	0.38851	0.39264	0.013
Mof_H 	H 	0.6232	0.4206	0.39	0.026
Mof_C 	C 	0.3757	0.32818	0.43372	0.013
Mof_H 	H 	0.3295	0.3163	0.4612	0.015
Mof_C 	C 	0.3309	0.29756	0.39699	0.008
Mof_H 	H 	0.2546	0.2651	0.3998	0.029
Mof_C 	C 	0.065	0.16348	0.28982	0.338
Mof_C 	C 	0.9693	0.11453	0.31173	-0.13
Mof_C 	C 	0.8606	0.07706	0.28768	0.038
Mof_H 	H 	0.8499	0.0814	0.257	0.025
Mof_C 	C 	0.7679	0.03338	0.30865	-0.11
Mof_H 	H 	0.6933	0.0079	0.2924	0.067
Mof_C 	C 	0.7843	0.02709	0.35285	0.041
Mof_H 	H 	0.7187	0.9976	0.367	0.024
Mof_C 	C 	0.8953	0.06322	0.37733	-0.124
Mof_C 	C 	0.9866	0.10724	0.35645	0.052
Mof_H 	H 	0.0613	0.1325	0.3729	0.033
Mof_C 	C 	0.919	0.05366	0.4254	0.345
Mof_Ag	Ag	0.80463	0.76997	0.79077	0.554
Mof_Ag	Ag	0.46942	0.44286	0.9843	0.568
Mof_O 	O 	0.655	0.69583	0.81401	-0.38
Mof_O 	O 	0.5462	0.6672	0.74919	-0.395
Mof_O 	O 	0.5177	0.58781	0.94642	-0.372
Mof_O 	O 	0.3388	0.51125	0.94156	-0.404
Mof_N 	N 	0.8924	0.81258	0.85764	-0.154
Mof_N 	N 	0.9828	0.87425	0.93158	-0.163
Mof_C 	C 	0.0004	0.8583	0.85558	0.008
Mof_H 	H 	0.0474	0.8703	0.8282	0.034
Mof_C 	C 	0.045	0.88851	0.89264	0.013
Mof_H 	H 	0.1232	0.9206	0.89	0.026
Mof_C 	C 	0.8757	0.82818	0.93372	0.013
Mof_H 	H 	0.8295	0.8163	0.9612	0.015
Mof_C 	C 	0.8309	0.79756	0.89699	0.008
Mof_H 	H 	0.7546	0.7651	0.8998	0.029
Mof_C 	C 	0.565	0.66348	0.78982	0.337
Mof_C 	C 	0.4693	0.61453	0.81173	-0.13
Mof_C 	C 	0.3606	0.57706	0.78768	0.038
Mof_H 	H 	0.3499	0.5814	0.757	0.025
Mof_C 	C 	0.2679	0.53338	0.80865	-0.11
Mof_H 	H 	0.1933	0.5079	0.7924	0.068
Mof_C 	C 	0.2843	0.52709	0.85285	0.041
Mof_H 	H 	0.2187	0.4976	0.867	0.024
Mof_C 	C 	0.3953	0.56322	0.87733	-0.124
Mof_C 	C 	0.4866	0.60724	0.85645	0.053
Mof_H 	H 	0.5613	0.6325	0.8729	0.032
Mof_C 	C 	0.419	0.55366	0.9254	0.346
_end
