data_functionalizedCrystal
_audit_creation_method	'EQeq! by Chris Wilmer'
_symmetry_space_group_name_H-M	'P1'
_symmetry_Int_Tables_number	1
_symmetry_cell_setting	triclinic
loop_
_symmetry_equiv_pos_as_xyz
  x,y,z
_cell_length_a	9.2994
_cell_length_b	9.751
_cell_length_c	14.3348
_cell_angle_alpha	90
_cell_angle_beta	90.974
_cell_angle_gamma	90
loop_
_atom_site_label
_atom_site_type_symbol
_atom_site_fract_x
_atom_site_fract_y
_atom_site_fract_z
_atom_site_charge
Mof_Zn	Zn	0.5323	0.8853	0.2673	1.218
Mof_Zn	Zn	0.2284	0.3769	0.3755	1.232
Mof_Zn	Zn	0.7563	0.904	0.87	1.21
Mof_Zn	Zn	0.9294	0.1135	0.2456	1.229
Mof_Zn	Zn	0.923	0.7396	0.227	1.189
Mof_P 	P 	0.7954	0.9262	0.3935	0.475
Mof_P 	P 	0.7562	0.9165	0.0986	0.474
Mof_P 	P 	0.9556	0.4289	0.2378	0.523
Mof_P 	P 	0.2646	0.122	0.2423	0.567
Mof_P 	P 	0.4444	0.5628	0.2725	0.556
Mof_O 	O 	0.6282	0.8606	0.1506	-0.487
Mof_O 	O 	0.6389	0.9699	0.3709	-0.484
Mof_O 	O 	0.4755	0.7045	0.3087	-0.45
Mof_O 	O 	0.3645	0.0012	0.2483	-0.373
Mof_O 	O 	0.2416	0.1857	0.3378	-0.463
Mof_O 	O 	0.4123	0.4629	0.3518	-0.442
Mof_O 	O 	0.8166	0.8883	0.4955	-0.439
Mof_O 	O 	0.0582	0.4608	0.3193	-0.505
Mof_O 	O 	0.0377	0.4074	0.1467	-0.481
Mof_O 	O 	0.7137	0.9401	0.9974	-0.458
Mof_O 	O 	0.3242	0.5618	0.1994	-0.502
Mof_O 	O 	0.3238	0.2292	0.174	-0.454
Mof_O 	O 	0.899	0.0443	0.37	-0.372
Mof_O 	O 	0.8631	0.3025	0.2579	-0.405
Mof_O 	O 	0.1196	0.0699	0.203	-0.451
Mof_O 	O 	0.806	0.054	0.1425	-0.381
Mof_O 	O 	0.8313	0.7987	0.3363	-0.515
Mof_O 	O 	0.8822	0.8135	0.1043	-0.489
Mof_O 	O 	0.8529	0.5511	0.225	-0.392
Mof_O 	O 	0.582	0.5024	0.2219	-0.399
Mof_H 	H 	0.5636	0.4232	0.2019	0.243
Mof_Zn	Zn	0.4677	0.3853	0.7327	1.239
Mof_Zn	Zn	0.7716	0.8769	0.6245	1.225
Mof_Zn	Zn	0.2437	0.404	0.13	1.227
Mof_Zn	Zn	0.0706	0.6135	0.7544	1.22
Mof_Zn	Zn	0.077	0.2396	0.773	1.203
Mof_P 	P 	0.2046	0.4262	0.6065	0.552
Mof_P 	P 	0.2438	0.4165	0.9014	0.554
Mof_P 	P 	0.0444	0.9289	0.7622	0.423
Mof_P 	P 	0.7354	0.622	0.7577	0.57
Mof_P 	P 	0.5556	0.0628	0.7275	0.617
Mof_O 	O 	0.3718	0.3606	0.8494	-0.466
Mof_O 	O 	0.3611	0.4699	0.6291	-0.443
Mof_O 	O 	0.5245	0.2045	0.6913	-0.426
Mof_O 	O 	0.6355	0.5012	0.7517	-0.436
Mof_O 	O 	0.7584	0.6857	0.6622	-0.481
Mof_O 	O 	0.5877	0.9629	0.6482	-0.526
Mof_O 	O 	0.1834	0.3883	0.5045	-0.421
Mof_O 	O 	0.9418	0.9608	0.6807	-0.523
Mof_O 	O 	0.9623	0.9074	0.8533	-0.491
Mof_O 	O 	0.2863	0.4401	0.0026	-0.43
Mof_O 	O 	0.6758	0.0618	0.8006	-0.436
Mof_O 	O 	0.6762	0.7292	0.826	-0.475
Mof_O 	O 	0.101	0.5443	0.63	-0.464
Mof_O 	O 	0.1369	0.8025	0.7421	-0.424
Mof_O 	O 	0.8804	0.5699	0.797	-0.474
Mof_O 	O 	0.194	0.554	0.8575	-0.472
Mof_O 	O 	0.1687	0.2987	0.6637	-0.498
Mof_O 	O 	0.1178	0.3135	0.8957	-0.467
Mof_O 	O 	0.1471	0.0511	0.775	-0.309
Mof_O 	O 	0.418	0.0024	0.7781	-0.246
Mof_H 	H 	0.4364	0.9232	0.7981	0.104
_end
