data_functionalizedCrystal
_audit_creation_method	'EQeq! by Chris Wilmer'
_symmetry_space_group_name_H-M	'P1'
_symmetry_Int_Tables_number	1
_symmetry_cell_setting	triclinic
loop_
_symmetry_equiv_pos_as_xyz
  x,y,z
_cell_length_a	12.2048
_cell_length_b	12.2048
_cell_length_c	16.3122
_cell_angle_alpha	77.6399
_cell_angle_beta	70.5099
_cell_angle_gamma	105.544
loop_
_atom_site_label
_atom_site_type_symbol
_atom_site_fract_x
_atom_site_fract_y
_atom_site_fract_z
_atom_site_charge
Mof_Cd	Cd	0.30056	0.17434	0.3687	0.42
Mof_Cd	Cd	0.95696	0.33074	0.8687	0.422
Mof_Cd	Cd	0.04304	0.66926	0.1313	0.421
Mof_Cd	Cd	0.69944	0.82566	0.6313	0.419
Mof_H 	H 	0.5395	0.8655	0.8186	0.031
Mof_H 	H 	0.9151	0.7473	0.9806	0.045
Mof_H 	H 	0.8403	0.8385	0.1598	0.058
Mof_H 	H 	0.3041	0.6323	0.1234	0.016
Mof_H 	H 	0.3085	0.9519	0.7798	0.073
Mof_H 	H 	0.5017	0.9999	0.6598	0.057
Mof_H 	H 	0.988	0.851	0.6246	0.032
Mof_H 	H 	0.5574	0.4478	0.0486	0.073
Mof_H 	H 	0.9274	0.3079	0.3697	0.051
Mof_H 	H 	0.3429	0.198	0.7109	0.072
Mof_H 	H 	0.4426	0.5522	0.9514	0.073
Mof_H 	H 	0.7743	0.7296	0.4305	0.088
Mof_H 	H 	0.0244	0.3874	0.1246	0.033
Mof_H 	H 	0.6915	0.0481	0.2202	0.073
Mof_H 	H 	0.7683	0.9117	0.2798	0.073
Mof_H 	H 	0.5911	0.9462	0.2109	0.072
Mof_H 	H 	0.0708	0.1063	0.5783	0.022
Mof_H 	H 	0.628	0.6281	0.8225	0.056
Mof_H 	H 	0.0128	0.0579	0.1361	0.038
Mof_H 	H 	0.9506	0.4505	0.6775	0.057
Mof_H 	H 	0.734	0.8516	0.1294	0.057
Mof_H 	H 	0.0726	0.6921	0.6303	0.051
Mof_H 	H 	0.7721	0.1043	0.4806	0.04
Mof_H 	H 	0.5632	0.4879	0.8521	0.054
Mof_H 	H 	0.306	0.8511	0.6361	0.047
Mof_H 	H 	0.3399	0.7952	0.9305	0.089
Mof_H 	H 	0.6571	0.802	0.2891	0.072
Mof_H 	H 	0.6601	0.2048	0.0695	0.089
Mof_H 	H 	0.1597	0.1615	0.8402	0.058
Mof_H 	H 	0.1846	0.6491	0.9217	0.02
Mof_H 	H 	0.0849	0.2527	0.0194	0.045
Mof_H 	H 	0.266	0.1484	0.8706	0.057
Mof_H 	H 	0.694	0.1489	0.3639	0.047
Mof_H 	H 	0.16	0.5847	0.3521	0.054
Mof_H 	H 	0.4089	0.0538	0.7891	0.072
Mof_H 	H 	0.9075	0.4771	0.4678	0.073
Mof_H 	H 	0.9756	0.6126	0.8754	0.033
Mof_H 	H 	0.8224	0.7029	0.8697	0.049
Mof_H 	H 	0.2279	0.8957	0.5194	0.04
Mof_H 	H 	0.1841	0.3581	0.6814	0.033
Mof_H 	H 	0.012	0.149	0.3754	0.032
Mof_H 	H 	0.84	0.4153	0.6479	0.054
Mof_H 	H 	0.4605	0.1345	0.1814	0.031
Mof_H 	H 	0.8159	0.6419	0.3186	0.033
Mof_H 	H 	0.2317	0.0883	0.7202	0.073
Mof_H 	H 	0.6959	0.3677	0.8766	0.016
Mof_H 	H 	0.9964	0.606	0.4514	0.073
Mof_H 	H 	0.9872	0.9421	0.8639	0.038
Mof_H 	H 	0.9292	0.8937	0.4217	0.022
Mof_H 	H 	0.0494	0.5495	0.3225	0.057
Mof_H 	H 	0.7443	0.5725	0.6234	0.016
Mof_H 	H 	0.2127	0.9525	0.9882	0.018
Mof_H 	H 	0.481	0.8634	0.3706	0.057
Mof_H 	H 	0.1776	0.2971	0.1303	0.049
Mof_H 	H 	0.372	0.3719	0.1775	0.056
Mof_H 	H 	0.519	0.1366	0.6294	0.057
Mof_H 	H 	0.0036	0.394	0.5486	0.073
Mof_H 	H 	0.2257	0.2704	0.5695	0.088
Mof_H 	H 	0.4368	0.5121	0.1479	0.054
Mof_H 	H 	0.4983	0.0001	0.3402	0.057
Mof_H 	H 	0.4449	0.3753	0.0322	0.072
Mof_H 	H 	0.7873	0.0475	0.0118	0.018
Mof_H 	H 	0.8154	0.3509	0.0783	0.02
Mof_H 	H 	0.5551	0.6247	0.9678	0.072
Mof_H 	H 	0.5593	0.7991	0.4882	0.018
Mof_H 	H 	0.4407	0.2009	0.5118	0.018
Mof_H 	H 	0.2557	0.4275	0.3766	0.016
Mof_H 	H 	0.0925	0.5229	0.5322	0.073
Mof_C 	C 	0.1839	0.3754	0.1285	-0.006
Mof_C 	C 	0.0513	0.226	0.3749	0.024
Mof_C 	C 	0.0891	0.8292	0.2509	0.018
Mof_C 	C 	0.5336	0.3998	0.319	0.298
Mof_C 	C 	0.9854	0.8135	0.9673	0.001
Mof_C 	C 	0.8803	0.704	0.3179	0.067
Mof_C 	C 	0.7043	0.3791	0.1884	-0.098
Mof_C 	C 	0.8543	0.758	0.3835	-0.13
Mof_C 	C 	0.1846	0.3769	0.3753	0.096
Mof_C 	C 	0.267	0.6739	0.8791	0.051
Mof_C 	C 	0.9916	0.5237	0.4579	-0.101
Mof_C 	C 	0.4199	0.66	0.7509	0.02
Mof_C 	C 	0.6038	0.8811	0.4715	0.092
Mof_C 	C 	0.5801	0.34	0.2491	0.02
Mof_C 	C 	0.2957	0.6209	0.8116	-0.098
Mof_C 	C 	0.677	0.0729	0.4029	-0.007
Mof_C 	C 	0.6357	0.9641	0.2486	-0.102
Mof_C 	C 	0.2808	0.9527	0.5327	0.017
Mof_C 	C 	0.3585	0.7622	0.8835	-0.134
Mof_C 	C 	0.7478	0.4401	0.8753	0.096
Mof_C 	C 	0.0084	0.4763	0.5421	-0.101
Mof_C 	C 	0.0782	0.5248	0.3696	-0.045
Mof_C 	C 	0.9487	0.774	0.6251	0.024
Mof_C 	C 	0.2102	0.1131	0.8447	-0.049
Mof_C 	C 	0.7192	0.0473	0.4673	0.017
Mof_C 	C 	0.835	0.9986	0.6928	0.34
Mof_C 	C 	0.4816	0.4495	0.0421	-0.101
Mof_C 	C 	0.1914	0.5278	0.8072	0.348
Mof_C 	C 	0.733	0.3261	0.1209	0.051
Mof_C 	C 	0.5184	0.5505	0.9579	-0.101
Mof_C 	C 	0.323	0.9271	0.5971	-0.007
Mof_C 	C 	0.9758	0.0799	0.0971	0.009
Mof_C 	C 	0.1009	0.4262	0.1251	0.023
Mof_C 	C 	0.2188	0.8526	0.181	0.299
Mof_C 	C 	0.4578	0.0549	0.6553	-0.048
Mof_C 	C 	0.2873	0.1157	0.7486	-0.102
Mof_C 	C 	0.1197	0.296	0.6821	0.067
Mof_C 	C 	0.165	0.0014	0.3072	0.34
Mof_C 	C 	0.4781	0.8018	0.8179	0.069
Mof_C 	C 	0.9109	0.1708	0.7491	0.018
Mof_C 	C 	0.947	0.8539	0.3791	0.045
Mof_C 	C 	0.9218	0.4752	0.6304	-0.045
Mof_C 	C 	0.1457	0.242	0.6165	-0.13
Mof_C 	C 	0.8991	0.5738	0.8749	0.023
Mof_C 	C 	0.8526	0.0753	0.0285	0.091
Mof_C 	C 	0.5219	0.1982	0.1821	0.069
Mof_C 	C 	0.5422	0.9451	0.3447	-0.048
Mof_C 	C 	0.3962	0.1189	0.5285	0.092
Mof_C 	C 	0.0675	0.8927	0.3116	-0.09
Mof_C 	C 	0.9961	0.6876	0.6285	-0.009
Mof_C 	C 	0.0146	0.1865	0.0327	0.001
Mof_C 	C 	0.053	0.1461	0.6209	0.045
Mof_C 	C 	0.6056	0.5522	0.8696	-0.045
Mof_C 	C 	0.2522	0.5599	0.1247	0.096
Mof_C 	C 	0.7127	0.8843	0.2514	-0.102
Mof_C 	C 	0.9325	0.1073	0.6884	-0.09
Mof_C 	C 	0.8154	0.6231	0.6247	0.096
Mof_C 	C 	0.4664	0.6002	0.681	0.298
Mof_C 	C 	0.8161	0.6246	0.8715	-0.006
Mof_C 	C 	0.8086	0.4722	0.1928	0.348
Mof_C 	C 	0.3944	0.4478	0.1304	-0.045
Mof_C 	C 	0.1474	0.9247	0.9715	0.091
Mof_C 	C 	0.6415	0.2378	0.1165	-0.134
Mof_C 	C 	0.7812	0.1474	0.819	0.299
Mof_C 	C 	0.0039	0.3124	0.3715	-0.009
Mof_C 	C 	0.7898	0.8869	0.1553	-0.049
Mof_C 	C 	0.0242	0.9201	0.9029	0.009
Mof_C 	C 	0.3643	0.0359	0.7514	-0.102
Mof_N 	N 	0.5085	0.7516	0.7533	-0.143
Mof_N 	N 	0.0622	0.815	0.0104	-0.139
Mof_N 	N 	0.3958	0.0348	0.594	-0.115
Mof_N 	N 	0.9089	0.5919	0.6288	-0.115
Mof_N 	N 	0.6042	0.9652	0.406	-0.115
Mof_N 	N 	0.7207	0.5377	0.8712	-0.115
Mof_N 	N 	0.8573	0.4577	0.8774	-0.147
Mof_N 	N 	0.1649	0.2653	0.3774	-0.148
Mof_N 	N 	0.0049	0.2618	0.7467	-0.143
Mof_N 	N 	0.0911	0.4081	0.3712	-0.115
Mof_N 	N 	0.2793	0.4623	0.1288	-0.115
Mof_N 	N 	0.6746	0.9274	0.5104	-0.144
Mof_N 	N 	0.1427	0.5423	0.1226	-0.147
Mof_N 	N 	0.8712	0.0102	0.094	-0.117
Mof_N 	N 	0.4915	0.2484	0.2467	-0.143
Mof_N 	N 	0.9951	0.7382	0.2533	-0.143
Mof_N 	N 	0.3254	0.0726	0.4896	-0.144
Mof_N 	N 	0.9378	0.185	0.9896	-0.139
Mof_N 	N 	0.1288	0.9898	0.906	-0.117
Mof_N 	N 	0.8351	0.7347	0.6226	-0.148
Mof_O 	O 	0.794	0.9033	0.7577	-0.268
Mof_O 	O 	0.8083	0.009	0.6267	-0.296
Mof_O 	O 	0.3957	0.5025	0.6916	-0.241
Mof_O 	O 	0.573	0.6547	0.6183	-0.277
Mof_O 	O 	0.8643	0.565	0.1267	-0.301
Mof_O 	O 	0.6043	0.4975	0.3084	-0.241
Mof_O 	O 	0.839	0.4483	0.2577	-0.269
Mof_O 	O 	0.427	0.3453	0.3817	-0.277
Mof_O 	O 	0.161	0.5517	0.7423	-0.269
Mof_O 	O 	0.227	0.8087	0.1183	-0.277
Mof_O 	O 	0.3059	0.9127	0.1916	-0.24
Mof_O 	O 	0.206	0.0967	0.2423	-0.268
Mof_O 	O 	0.773	0.1913	0.8817	-0.277
Mof_O 	O 	0.1357	0.435	0.8733	-0.301
Mof_O 	O 	0.6941	0.0873	0.8084	-0.24
Mof_O 	O 	0.1917	0.991	0.3733	-0.296
_end
