data_functionalizedCrystal
_audit_creation_method	'EQeq! by Chris Wilmer'
_symmetry_space_group_name_H-M	'P1'
_symmetry_Int_Tables_number	1
_symmetry_cell_setting	triclinic
loop_
_symmetry_equiv_pos_as_xyz
  x,y,z
_cell_length_a	6.3632
_cell_length_b	9.4906
_cell_length_c	15.1002
_cell_angle_alpha	96.575
_cell_angle_beta	93.094
_cell_angle_gamma	100.221
loop_
_atom_site_label
_atom_site_type_symbol
_atom_site_fract_x
_atom_site_fract_y
_atom_site_fract_z
_atom_site_charge
Mof_Ag	Ag	0.62477	0.1398	0.98749	0.684
Mof_Ag	Ag	0.13808	0.58685	0.57397	0.541
Mof_Ag	Ag	0.4451	0.59046	0.41613	0.626
Mof_Ag	Ag	0.37523	0.8602	0.01251	0.684
Mof_Ag	Ag	0.86192	0.41315	0.42603	0.542
Mof_Ag	Ag	0.5549	0.40954	0.58387	0.627
Mof_H 	H 	0.178	0.601	0.201	0.244
Mof_H 	H 	0.549	0.11	0.423	0.287
Mof_H 	H 	0.114	0.115	0.1	0.282
Mof_H 	H 	0.7698	0.0032	0.2653	0.098
Mof_H 	H 	0.7776	0.7694	0.2578	0.09
Mof_H 	H 	0.8674	0.9058	0.3901	0.083
Mof_H 	H 	0.1858	0.0066	0.4565	0.083
Mof_H 	H 	0.0005	0.1367	0.3809	0.06
Mof_H 	H 	0.0143	0.1897	0.2421	0.065
Mof_H 	H 	0.822	0.399	0.799	0.244
Mof_H 	H 	0.451	0.89	0.577	0.287
Mof_H 	H 	0.886	0.885	0.9	0.282
Mof_H 	H 	0.2302	0.9968	0.7347	0.098
Mof_H 	H 	0.2224	0.2306	0.7422	0.09
Mof_H 	H 	0.1326	0.0942	0.6099	0.083
Mof_H 	H 	0.8142	0.9934	0.5435	0.083
Mof_H 	H 	0.9995	0.8633	0.6191	0.06
Mof_H 	H 	0.9857	0.8103	0.7579	0.065
Mof_C 	C 	0.8834	0.9746	0.2298	-0.106
Mof_C 	C 	0.918	0.8333	0.264	-0.104
Mof_C 	C 	0.9856	0.8648	0.3651	-0.098
Mof_C 	C 	0.181	0.9854	0.3913	-0.114
Mof_C 	C 	0.1341	0.1228	0.3547	-0.091
Mof_C 	C 	0.0722	0.1039	0.2534	-0.115
Mof_C 	C 	0.7838	0.9527	0.1345	0.344
Mof_C 	C 	0.0617	0.7571	0.207	0.395
Mof_C 	C 	0.9861	0.7312	0.4119	0.369
Mof_C 	C 	0.3935	0.9368	0.3716	0.397
Mof_C 	C 	0.2877	0.2632	0.3889	0.336
Mof_C 	C 	0.2688	0.1077	0.2004	0.385
Mof_C 	C 	0.1166	0.0254	0.7702	-0.106
Mof_C 	C 	0.082	0.1667	0.736	-0.104
Mof_C 	C 	0.0144	0.1352	0.6349	-0.098
Mof_C 	C 	0.819	0.0146	0.6087	-0.114
Mof_C 	C 	0.8659	0.8772	0.6453	-0.091
Mof_C 	C 	0.9278	0.8961	0.7466	-0.115
Mof_C 	C 	0.2162	0.0473	0.8655	0.344
Mof_C 	C 	0.9383	0.2429	0.793	0.395
Mof_C 	C 	0.0139	0.2688	0.5881	0.369
Mof_C 	C 	0.6065	0.0632	0.6284	0.397
Mof_C 	C 	0.7123	0.7368	0.6111	0.336
Mof_C 	C 	0.7312	0.8923	0.7996	0.385
Mof_O 	O 	0.8339	0.0522	0.086	-0.38
Mof_O 	O 	0.6465	0.8402	0.11	-0.347
Mof_O 	O 	0.1505	0.8093	0.1468	-0.338
Mof_O 	O 	0.0695	0.6246	0.225	-0.455
Mof_O 	O 	0.1215	0.7393	0.4764	-0.404
Mof_O 	O 	0.8393	0.625	0.3866	-0.422
Mof_O 	O 	0.4058	0.8207	0.3327	-0.312
Mof_O 	O 	0.5698	0.0256	0.4073	-0.469
Mof_O 	O 	0.4348	0.2621	0.4479	-0.408
Mof_O 	O 	0.2493	0.3763	0.3601	-0.409
Mof_O 	O 	0.4452	0.1151	0.2362	-0.291
Mof_O 	O 	0.2454	0.1182	0.1144	-0.507
Mof_O 	O 	0.1661	0.9478	0.914	-0.38
Mof_O 	O 	0.3535	0.1598	0.89	-0.347
Mof_O 	O 	0.8495	0.1907	0.8532	-0.338
Mof_O 	O 	0.9305	0.3754	0.775	-0.455
Mof_O 	O 	0.8785	0.2607	0.5236	-0.404
Mof_O 	O 	0.1607	0.375	0.6134	-0.422
Mof_O 	O 	0.5942	0.1793	0.6673	-0.312
Mof_O 	O 	0.4302	0.9744	0.5927	-0.469
Mof_O 	O 	0.5652	0.7379	0.5521	-0.408
Mof_O 	O 	0.7507	0.6237	0.6399	-0.409
Mof_O 	O 	0.5548	0.8849	0.7638	-0.291
Mof_O 	O 	0.7546	0.8818	0.8856	-0.507
_end
