data_functionalizedCrystal
_audit_creation_method	'EQeq! by Chris Wilmer'
_symmetry_space_group_name_H-M	'P1'
_symmetry_Int_Tables_number	1
_symmetry_cell_setting	triclinic
loop_
_symmetry_equiv_pos_as_xyz
  x,y,z
_cell_length_a	6.547
_cell_length_b	6.6323
_cell_length_c	6.6323
_cell_angle_alpha	115.205
_cell_angle_beta	106.371
_cell_angle_gamma	73.6293
loop_
_atom_site_label
_atom_site_type_symbol
_atom_site_fract_x
_atom_site_fract_y
_atom_site_fract_z
_atom_site_charge
Mof_Er	Er	-0	0	-0	1.183
Mof_H 	H 	0.116	0.843	0.461	-0.243
Mof_H 	H 	0.884	0.461	0.843	0.023
Mof_H 	H 	0.5	0.07	0.07	-0.241
Mof_C 	C 	0.9666	0.9374	0.4686	0.771
Mof_C 	C 	0.0334	0.4686	0.9374	0.353
Mof_C 	C 	0.5	0.9344	0.9344	0.671
Mof_O 	O 	0.8792	0.0045	0.3133	-0.493
Mof_O 	O 	0.8849	0.9753	0.6311	-0.397
Mof_O 	O 	0.6651	0.8607	0.8461	-0.359
Mof_O 	O 	0.1208	0.3133	0.0045	-0.497
Mof_O 	O 	0.1151	0.6311	0.9753	-0.368
Mof_O 	O 	0.3349	0.8461	0.8607	-0.403
_end
