data_functionalizedCrystal
_audit_creation_method	'EQeq! by Chris Wilmer'
_symmetry_space_group_name_H-M	'P1'
_symmetry_Int_Tables_number	1
_symmetry_cell_setting	triclinic
loop_
_symmetry_equiv_pos_as_xyz
  x,y,z
_cell_length_a	18.8072
_cell_length_b	18.8072
_cell_length_c	18.8072
_cell_angle_alpha	60
_cell_angle_beta	60
_cell_angle_gamma	60
loop_
_atom_site_label
_atom_site_type_symbol
_atom_site_fract_x
_atom_site_fract_y
_atom_site_fract_z
_atom_site_charge
Mof_Mn	Mn	0.08566	0.5	0.91434	0.979
Mof_Mn	Mn	0.5	0.08566	0.5	0.981
Mof_Mn	Mn	0.91434	0.5	0.08566	0.979
Mof_Mn	Mn	0.5	0.91434	0.5	0.981
Mof_Mn	Mn	0.08566	0.91434	0.5	0.979
Mof_Mn	Mn	0.5	0.5	0.91434	0.981
Mof_Mn	Mn	0.91434	0.08566	0.5	0.979
Mof_Mn	Mn	0.5	0.5	0.08566	0.981
Mof_Mn	Mn	0.08566	0.5	0.5	0.981
Mof_Mn	Mn	0.5	0.91434	0.08566	0.979
Mof_Mn	Mn	0.91434	0.5	0.5	0.981
Mof_Mn	Mn	0.5	0.08566	0.91434	0.979
Mof_H 	H 	0.2293	0.2293	0.0123	0.044
Mof_H 	H 	0.2293	0.2293	0.5291	0.044
Mof_H 	H 	0.0123	0.5291	0.2293	0.043
Mof_H 	H 	0.5291	0.0123	0.2293	0.043
Mof_H 	H 	0.2293	0.0123	0.5291	0.043
Mof_H 	H 	0.2293	0.5291	0.0123	0.043
Mof_H 	H 	0.0123	0.2293	0.2293	0.044
Mof_H 	H 	0.5291	0.2293	0.2293	0.044
Mof_H 	H 	0.2293	0.5291	0.2293	0.044
Mof_H 	H 	0.2293	0.0123	0.2293	0.044
Mof_H 	H 	0.0123	0.2293	0.5291	0.043
Mof_H 	H 	0.5291	0.2293	0.0123	0.043
Mof_H 	H 	0.7707	0.7707	0.9877	0.044
Mof_H 	H 	0.7707	0.7707	0.4709	0.044
Mof_H 	H 	0.4709	0.9877	0.7707	0.043
Mof_H 	H 	0.9877	0.4709	0.7707	0.043
Mof_H 	H 	0.9877	0.7707	0.4709	0.043
Mof_H 	H 	0.4709	0.7707	0.9877	0.043
Mof_H 	H 	0.7707	0.9877	0.7707	0.044
Mof_H 	H 	0.7707	0.4709	0.7707	0.044
Mof_H 	H 	0.4709	0.7707	0.7707	0.044
Mof_H 	H 	0.9877	0.7707	0.7707	0.044
Mof_H 	H 	0.7707	0.9877	0.4709	0.043
Mof_H 	H 	0.7707	0.4709	0.9877	0.043
Mof_C 	C 	0.2001	0.2001	0.0705	0.077
Mof_C 	C 	0.2001	0.2001	0.5293	0.087
Mof_C 	C 	0.0705	0.5293	0.2001	0.085
Mof_C 	C 	0.5293	0.0705	0.2001	0.085
Mof_C 	C 	0.2001	0.0705	0.5293	0.085
Mof_C 	C 	0.2001	0.5293	0.0705	0.085
Mof_C 	C 	0.0705	0.2001	0.2001	0.077
Mof_C 	C 	0.5293	0.2001	0.2001	0.087
Mof_C 	C 	0.2001	0.5293	0.2001	0.087
Mof_C 	C 	0.2001	0.0705	0.2001	0.077
Mof_C 	C 	0.0705	0.2001	0.5293	0.085
Mof_C 	C 	0.5293	0.2001	0.0705	0.085
Mof_C 	C 	0.7999	0.7999	0.9295	0.077
Mof_C 	C 	0.7999	0.7999	0.4707	0.087
Mof_C 	C 	0.4707	0.9295	0.7999	0.085
Mof_C 	C 	0.9295	0.4707	0.7999	0.085
Mof_C 	C 	0.9295	0.7999	0.4707	0.085
Mof_C 	C 	0.4707	0.7999	0.9295	0.085
Mof_C 	C 	0.7999	0.9295	0.7999	0.077
Mof_C 	C 	0.7999	0.4707	0.7999	0.087
Mof_C 	C 	0.4707	0.7999	0.7999	0.087
Mof_C 	C 	0.9295	0.7999	0.7999	0.077
Mof_C 	C 	0.7999	0.9295	0.4707	0.085
Mof_C 	C 	0.7999	0.4707	0.9295	0.085
Mof_C 	C 	0.1139	0.2427	0.1139	-0.136
Mof_C 	C 	0.0698	0.334	0.0698	0.393
Mof_C 	C 	0.2427	0.1139	0.5295	-0.145
Mof_C 	C 	0.334	0.0698	0.5264	0.417
Mof_C 	C 	0.1139	0.5295	0.1139	-0.141
Mof_C 	C 	0.0698	0.5264	0.0698	0.403
Mof_C 	C 	0.5295	0.1139	0.2427	-0.145
Mof_C 	C 	0.5264	0.0698	0.334	0.417
Mof_C 	C 	0.1139	0.1139	0.5295	-0.141
Mof_C 	C 	0.0698	0.0698	0.5264	0.403
Mof_C 	C 	0.2427	0.5295	0.1139	-0.145
Mof_C 	C 	0.334	0.5264	0.0698	0.417
Mof_C 	C 	0.1139	0.1139	0.2427	-0.136
Mof_C 	C 	0.0698	0.0698	0.334	0.393
Mof_C 	C 	0.5295	0.2427	0.1139	-0.145
Mof_C 	C 	0.5264	0.334	0.0698	0.417
Mof_C 	C 	0.1139	0.5295	0.2427	-0.145
Mof_C 	C 	0.0698	0.5264	0.334	0.417
Mof_C 	C 	0.2427	0.1139	0.1139	-0.136
Mof_C 	C 	0.334	0.0698	0.0698	0.393
Mof_C 	C 	0.1139	0.2427	0.5295	-0.145
Mof_C 	C 	0.0698	0.334	0.5264	0.417
Mof_C 	C 	0.5295	0.1139	0.1139	-0.141
Mof_C 	C 	0.5264	0.0698	0.0698	0.403
Mof_C 	C 	0.7573	0.8861	0.8861	-0.136
Mof_C 	C 	0.666	0.9302	0.9302	0.393
Mof_C 	C 	0.8861	0.7573	0.4705	-0.145
Mof_C 	C 	0.9302	0.666	0.4736	0.417
Mof_C 	C 	0.4705	0.8861	0.8861	-0.141
Mof_C 	C 	0.4736	0.9302	0.9302	0.403
Mof_C 	C 	0.8861	0.4705	0.7573	-0.145
Mof_C 	C 	0.9302	0.4736	0.666	0.417
Mof_C 	C 	0.8861	0.8861	0.4705	-0.141
Mof_C 	C 	0.9302	0.9302	0.4736	0.403
Mof_C 	C 	0.4705	0.7573	0.8861	-0.145
Mof_C 	C 	0.4736	0.666	0.9302	0.417
Mof_C 	C 	0.8861	0.8861	0.7573	-0.136
Mof_C 	C 	0.9302	0.9302	0.666	0.393
Mof_C 	C 	0.7573	0.4705	0.8861	-0.145
Mof_C 	C 	0.666	0.4736	0.9302	0.417
Mof_C 	C 	0.4705	0.8861	0.7573	-0.145
Mof_C 	C 	0.4736	0.9302	0.666	0.417
Mof_C 	C 	0.8861	0.7573	0.8861	-0.136
Mof_C 	C 	0.9302	0.666	0.9302	0.393
Mof_C 	C 	0.7573	0.8861	0.4705	-0.145
Mof_C 	C 	0.666	0.9302	0.4736	0.417
Mof_C 	C 	0.8861	0.4705	0.8861	-0.141
Mof_C 	C 	0.9302	0.4736	0.9302	0.403
Mof_O 	O 	0.1128	0.3696	0.9944	-0.378
Mof_O 	O 	0.3696	0.1128	0.5232	-0.392
Mof_O 	O 	0.9944	0.5232	0.1128	-0.383
Mof_O 	O 	0.5232	0.9944	0.3696	-0.39
Mof_O 	O 	0.1128	0.9944	0.5232	-0.383
Mof_O 	O 	0.3696	0.5232	0.9944	-0.39
Mof_O 	O 	0.9944	0.1128	0.3696	-0.378
Mof_O 	O 	0.5232	0.3696	0.1128	-0.392
Mof_O 	O 	0.1128	0.5232	0.3696	-0.392
Mof_O 	O 	0.3696	0.9944	0.1128	-0.378
Mof_O 	O 	0.9944	0.3696	0.5232	-0.39
Mof_O 	O 	0.5232	0.1128	0.9944	-0.383
Mof_O 	O 	0.6304	0.8872	0.0056	-0.378
Mof_O 	O 	0.8872	0.6304	0.4768	-0.392
Mof_O 	O 	0.4768	0.0056	0.8872	-0.383
Mof_O 	O 	0.0056	0.4768	0.6304	-0.39
Mof_O 	O 	0.0056	0.8872	0.4768	-0.383
Mof_O 	O 	0.4768	0.6304	0.0056	-0.39
Mof_O 	O 	0.8872	0.0056	0.6304	-0.378
Mof_O 	O 	0.6304	0.4768	0.8872	-0.392
Mof_O 	O 	0.4768	0.8872	0.6304	-0.392
Mof_O 	O 	0.0056	0.6304	0.8872	-0.378
Mof_O 	O 	0.6304	0.0056	0.4768	-0.39
Mof_O 	O 	0.8872	0.4768	0.0056	-0.383
Mof_O 	O 	0.8872	0.6304	0.0056	-0.378
Mof_O 	O 	0.6304	0.8872	0.4768	-0.392
Mof_O 	O 	0.0056	0.4768	0.8872	-0.383
Mof_O 	O 	0.4768	0.0056	0.6304	-0.39
Mof_O 	O 	0.8872	0.0056	0.4768	-0.383
Mof_O 	O 	0.6304	0.4768	0.0056	-0.39
Mof_O 	O 	0.0056	0.8872	0.6304	-0.378
Mof_O 	O 	0.4768	0.6304	0.8872	-0.392
Mof_O 	O 	0.8872	0.4768	0.6304	-0.392
Mof_O 	O 	0.6304	0.0056	0.8872	-0.378
Mof_O 	O 	0.0056	0.6304	0.4768	-0.39
Mof_O 	O 	0.4768	0.8872	0.0056	-0.383
Mof_O 	O 	0.3696	0.1128	0.9944	-0.378
Mof_O 	O 	0.1128	0.3696	0.5232	-0.392
Mof_O 	O 	0.5232	0.9944	0.1128	-0.383
Mof_O 	O 	0.9944	0.5232	0.3696	-0.39
Mof_O 	O 	0.9944	0.1128	0.5232	-0.383
Mof_O 	O 	0.5232	0.3696	0.9944	-0.39
Mof_O 	O 	0.1128	0.9944	0.3696	-0.378
Mof_O 	O 	0.3696	0.5232	0.1128	-0.392
Mof_O 	O 	0.5232	0.1128	0.3696	-0.392
Mof_O 	O 	0.9944	0.3696	0.1128	-0.378
Mof_O 	O 	0.3696	0.9944	0.5232	-0.39
Mof_O 	O 	0.1128	0.5232	0.9944	-0.383
Mof_O 	O 	0.1852	0.5224	0.77	-0.111
Mof_O 	O 	0.5224	0.1852	0.5224	-0.111
Mof_O 	O 	0.77	0.5224	0.1852	-0.111
Mof_O 	O 	0.5224	0.77	0.5224	-0.112
Mof_O 	O 	0.1852	0.77	0.5224	-0.111
Mof_O 	O 	0.5224	0.5224	0.77	-0.112
Mof_O 	O 	0.77	0.1852	0.5224	-0.111
Mof_O 	O 	0.5224	0.5224	0.1852	-0.111
Mof_O 	O 	0.1852	0.5224	0.5224	-0.111
Mof_O 	O 	0.5224	0.77	0.1852	-0.111
Mof_O 	O 	0.77	0.5224	0.5224	-0.112
Mof_O 	O 	0.5224	0.1852	0.77	-0.111
Mof_O 	O 	0.4776	0.8148	0.23	-0.111
Mof_O 	O 	0.8148	0.4776	0.4776	-0.111
Mof_O 	O 	0.4776	0.23	0.8148	-0.111
Mof_O 	O 	0.23	0.4776	0.4776	-0.112
Mof_O 	O 	0.23	0.8148	0.4776	-0.111
Mof_O 	O 	0.4776	0.4776	0.23	-0.112
Mof_O 	O 	0.8148	0.23	0.4776	-0.111
Mof_O 	O 	0.4776	0.4776	0.8148	-0.111
Mof_O 	O 	0.4776	0.8148	0.4776	-0.111
Mof_O 	O 	0.23	0.4776	0.8148	-0.111
Mof_O 	O 	0.4776	0.23	0.4776	-0.112
Mof_O 	O 	0.8148	0.4776	0.23	-0.111
_end
