data_functionalizedCrystal
_audit_creation_method	'EQeq! by Chris Wilmer'
_symmetry_space_group_name_H-M	'P1'
_symmetry_Int_Tables_number	1
_symmetry_cell_setting	triclinic
loop_
_symmetry_equiv_pos_as_xyz
  x,y,z
_cell_length_a	9.3619
_cell_length_b	10.1158
_cell_length_c	12.6456
_cell_angle_alpha	98.485
_cell_angle_beta	107.018
_cell_angle_gamma	105.424
loop_
_atom_site_label
_atom_site_type_symbol
_atom_site_fract_x
_atom_site_fract_y
_atom_site_fract_z
_atom_site_charge
Mof_Ga	Ga	0.77725	0.09779	0.51184	4.732
Mof_Ga	Ga	0.78445	0.60168	0.51664	4.651
Mof_Ga	Ga	0.49811	0.20143	0.22769	4.294
Mof_Ga	Ga	0.51244	0.69117	0.21973	4.333
Mof_P 	P 	0.417	0.9546	0.3245	1.187
Mof_P 	P 	0.4229	0.4647	0.335	1.127
Mof_P 	P 	0.8408	0.3394	0.3923	1.079
Mof_P 	P 	0.155	0.1613	0.6044	1.111
Mof_P 	P 	0.4957	0.1896	0.9829	0.761
Mof_O 	O 	0.5608	0.0559	0.4198	-1.376
Mof_O 	O 	0.2683	0.9261	0.3572	-1.242
Mof_O 	O 	0.8304	0.2849	0.498	-1.336
Mof_O 	O 	0.9955	0.1416	0.6191	-1.048
Mof_O 	O 	0.1909	0.0222	0.5984	-1.316
Mof_O 	O 	0.5678	0.5703	0.4274	-1.32
Mof_O 	O 	0.2728	0.4566	0.3641	-1.218
Mof_O 	O 	0.8217	0.4864	0.4057	-1.286
Mof_O 	O 	0.9966	0.3478	0.3733	-1.024
Mof_O 	O 	0.1623	0.212	0.4975	-1.345
Mof_O 	O 	0.3844	0.0217	0.2212	-1.233
Mof_O 	O 	0.433	0.3153	0.3137	-1.339
Mof_O 	O 	0.7107	0.2384	0.2836	-1.268
Mof_O 	O 	0.4458	0.2315	0.0838	-1.147
Mof_O 	O 	0.4305	0.8087	0.2861	-1.32
Mof_O 	O 	0.4003	0.5156	0.2234	-1.24
Mof_O 	O 	0.2758	0.2699	0.7134	-1.287
Mof_O 	O 	0.5302	0.3184	0.9321	-1.157
Mof_O 	O 	0.659	0.1662	0.0284	-0.431
Mof_O 	O 	0.372	0.0606	0.8971	-0.468
Mof_H 	H 	0.636	0.076	0.055	0.128
Mof_Ga	Ga	0.22275	0.90221	0.48816	4.731
Mof_Ga	Ga	0.21555	0.39832	0.48336	4.65
Mof_Ga	Ga	0.50189	0.79857	0.77231	4.293
Mof_Ga	Ga	0.48756	0.30883	0.78027	4.332
Mof_P 	P 	0.583	0.0454	0.6755	1.187
Mof_P 	P 	0.5771	0.5353	0.665	1.127
Mof_P 	P 	0.1592	0.6606	0.6077	1.079
Mof_P 	P 	0.845	0.8387	0.3956	1.111
Mof_P 	P 	0.5043	0.8104	0.0171	0.761
Mof_O 	O 	0.4392	0.9441	0.5802	-1.376
Mof_O 	O 	0.7317	0.0739	0.6428	-1.242
Mof_O 	O 	0.1696	0.7151	0.502	-1.336
Mof_O 	O 	0.0045	0.8584	0.3809	-1.048
Mof_O 	O 	0.8091	0.9778	0.4016	-1.316
Mof_O 	O 	0.4322	0.4297	0.5726	-1.32
Mof_O 	O 	0.7272	0.5434	0.6359	-1.218
Mof_O 	O 	0.1783	0.5136	0.5943	-1.286
Mof_O 	O 	0.0034	0.6522	0.6267	-1.024
Mof_O 	O 	0.8377	0.788	0.5025	-1.345
Mof_O 	O 	0.6156	0.9783	0.7788	-1.233
Mof_O 	O 	0.567	0.6847	0.6863	-1.339
Mof_O 	O 	0.2893	0.7616	0.7164	-1.268
Mof_O 	O 	0.5542	0.7685	0.9162	-1.147
Mof_O 	O 	0.5695	0.1913	0.7139	-1.32
Mof_O 	O 	0.5997	0.4844	0.7766	-1.24
Mof_O 	O 	0.7242	0.7301	0.2866	-1.287
Mof_O 	O 	0.4698	0.6816	0.0679	-1.157
Mof_O 	O 	0.341	0.8338	0.9716	-0.431
Mof_O 	O 	0.628	0.9394	0.1029	-0.468
Mof_H 	H 	0.364	0.924	0.945	0.128
_end
