data_functionalizedCrystal
_audit_creation_method	'EQeq! by Chris Wilmer'
_symmetry_space_group_name_H-M	'P1'
_symmetry_Int_Tables_number	1
_symmetry_cell_setting	triclinic
loop_
_symmetry_equiv_pos_as_xyz
  x,y,z
_cell_length_a	10.0848
_cell_length_b	19.368
_cell_length_c	16.211
_cell_angle_alpha	114.701
_cell_angle_beta	90
_cell_angle_gamma	90
loop_
_atom_site_label
_atom_site_type_symbol
_atom_site_fract_x
_atom_site_fract_y
_atom_site_fract_z
_atom_site_charge
Mof_Zn	Zn	0.02808	0.54684	0.68154	1.181
Mof_Zn	Zn	0.02	0.9901	0.33609	1.187
Mof_Zn	Zn	0.52808	0.45316	0.81846	1.181
Mof_Zn	Zn	0.52	0.0099	0.16391	1.188
Mof_Zn	Zn	0.97192	0.45316	0.31846	1.182
Mof_Zn	Zn	0.98	0.0099	0.66391	1.188
Mof_Zn	Zn	0.47192	0.54684	0.18154	1.182
Mof_Zn	Zn	0.48	0.9901	0.83609	1.189
Mof_H 	H 	0.2958	0.9668	0.5401	0.019
Mof_H 	H 	0.9749	0.6451	0.5887	0.009
Mof_H 	H 	0.7268	0.5834	0.7334	0.009
Mof_H 	H 	0.6195	0.7737	0.3313	0.033
Mof_H 	H 	0.9772	0.871	0.4121	-0.003
Mof_H 	H 	0.5884	0.6992	0.5961	0.036
Mof_H 	H 	0.5528	0.6418	0.6954	0.074
Mof_H 	H 	0.7612	0.9291	0.2487	0.003
Mof_H 	H 	0.5923	0.8493	0.2498	0.068
Mof_H 	H 	0.5927	0.7797	0.5647	0.148
Mof_H 	H 	0.5978	0.8209	0.5027	0.152
Mof_H 	H 	0.1682	0.57	0.9723	0.044
Mof_H 	H 	0.7958	0.0332	0.9599	0.019
Mof_H 	H 	0.4749	0.3549	0.9113	0.008
Mof_H 	H 	0.2268	0.4166	0.7666	0.009
Mof_H 	H 	0.1195	0.2263	0.1687	0.034
Mof_H 	H 	0.4772	0.129	0.0879	-0.004
Mof_H 	H 	0.0884	0.3008	0.9039	0.037
Mof_H 	H 	0.0528	0.3582	0.8046	0.074
Mof_H 	H 	0.2612	0.0709	0.2513	0.004
Mof_H 	H 	0.0923	0.1507	0.2502	0.069
Mof_H 	H 	0.0927	0.2203	0.9353	0.148
Mof_H 	H 	0.0978	0.1791	0.9973	0.152
Mof_H 	H 	0.6682	0.43	0.5277	0.044
Mof_H 	H 	0.7042	0.0332	0.4599	0.019
Mof_H 	H 	0.0251	0.3549	0.4113	0.009
Mof_H 	H 	0.2732	0.4166	0.2666	0.009
Mof_H 	H 	0.3805	0.2263	0.6687	0.033
Mof_H 	H 	0.0228	0.129	0.5879	-0.003
Mof_H 	H 	0.4116	0.3008	0.4039	0.036
Mof_H 	H 	0.4472	0.3582	0.3046	0.074
Mof_H 	H 	0.2388	0.0709	0.7513	0.003
Mof_H 	H 	0.4077	0.1507	0.7502	0.068
Mof_H 	H 	0.4073	0.2203	0.4353	0.148
Mof_H 	H 	0.4022	0.1791	0.4973	0.152
Mof_H 	H 	0.8318	0.43	0.0277	0.044
Mof_H 	H 	0.2042	0.9668	0.0401	0.019
Mof_H 	H 	0.5251	0.6451	0.0887	0.008
Mof_H 	H 	0.7732	0.5834	0.2334	0.009
Mof_H 	H 	0.8805	0.7737	0.8313	0.034
Mof_H 	H 	0.5228	0.871	0.9121	-0.004
Mof_H 	H 	0.9116	0.6992	0.0961	0.037
Mof_H 	H 	0.9472	0.6418	0.1954	0.074
Mof_H 	H 	0.7388	0.9291	0.7487	0.004
Mof_H 	H 	0.9077	0.8493	0.7498	0.069
Mof_H 	H 	0.9073	0.7797	0.0647	0.148
Mof_H 	H 	0.9022	0.8209	0.0027	0.152
Mof_H 	H 	0.3318	0.57	0.4723	0.044
Mof_C 	C 	0.379	0.9803	0.5236	0.009
Mof_C 	C 	0.3855	0.0005	0.4513	-0.053
Mof_C 	C 	0.9734	0.5649	0.8672	0.341
Mof_C 	C 	0.8872	0.6434	0.6091	0.022
Mof_C 	C 	0.2596	0.0074	0.4063	0.318
Mof_C 	C 	0.7861	0.6768	0.5801	-0.043
Mof_C 	C 	0.7427	0.6082	0.6947	0.058
Mof_C 	C 	0.8029	0.8145	0.3792	-0.049
Mof_C 	C 	0.6872	0.8079	0.3313	0.006
Mof_C 	C 	0.8322	0.7664	0.4256	0.114
Mof_C 	C 	0.898	0.8659	0.3783	0.034
Mof_C 	C 	0.66	0.6762	0.6133	0.012
Mof_C 	C 	0.6388	0.6419	0.6715	-0.093
Mof_C 	C 	0.8223	0.7057	0.5134	0.119
Mof_C 	C 	0.7716	0.9005	0.2837	0.051
Mof_C 	C 	0.6715	0.8524	0.2829	-0.091
Mof_C 	C 	0.9803	0.5311	0.9364	-0.048
Mof_C 	C 	0.8779	0.4902	0.9547	-0.041
Mof_C 	C 	0.744	0.4804	0.9089	0.289
Mof_C 	C 	0.5073	0.0207	0.4268	-0.062
Mof_C 	C 	0.5258	0.0392	0.3456	0.349
Mof_C 	C 	0.0999	0.5411	0.9831	-0.012
Mof_C 	C 	0.879	0.0197	0.9764	0.007
Mof_C 	C 	0.8855	0.9995	0.0487	-0.05
Mof_C 	C 	0.4734	0.4351	0.6328	0.342
Mof_C 	C 	0.3872	0.3566	0.8909	0.022
Mof_C 	C 	0.7596	0.9926	0.0937	0.316
Mof_C 	C 	0.2861	0.3232	0.9199	-0.043
Mof_C 	C 	0.2427	0.3918	0.8053	0.058
Mof_C 	C 	0.3029	0.1855	0.1208	-0.049
Mof_C 	C 	0.1872	0.1921	0.1687	0.007
Mof_C 	C 	0.3322	0.2336	0.0744	0.114
Mof_C 	C 	0.398	0.1341	0.1217	0.034
Mof_C 	C 	0.16	0.3238	0.8867	0.011
Mof_C 	C 	0.1388	0.3581	0.8285	-0.093
Mof_C 	C 	0.3223	0.2943	0.9866	0.118
Mof_C 	C 	0.2716	0.0995	0.2163	0.052
Mof_C 	C 	0.1715	0.1476	0.2171	-0.091
Mof_C 	C 	0.4803	0.4689	0.5636	-0.049
Mof_C 	C 	0.3779	0.5098	0.5453	-0.042
Mof_C 	C 	0.244	0.5196	0.5911	0.289
Mof_C 	C 	0.0073	0.9793	0.0732	-0.064
Mof_C 	C 	0.0258	0.9608	0.1544	0.35
Mof_C 	C 	0.5999	0.4589	0.5169	-0.011
Mof_C 	C 	0.621	0.0197	0.4764	0.009
Mof_C 	C 	0.6145	0.9995	0.5487	-0.053
Mof_C 	C 	0.0266	0.4351	0.1328	0.341
Mof_C 	C 	0.1128	0.3566	0.3909	0.022
Mof_C 	C 	0.7404	0.9926	0.5937	0.318
Mof_C 	C 	0.2139	0.3232	0.4199	-0.043
Mof_C 	C 	0.2573	0.3918	0.3053	0.058
Mof_C 	C 	0.1971	0.1855	0.6208	-0.049
Mof_C 	C 	0.3128	0.1921	0.6687	0.006
Mof_C 	C 	0.1678	0.2336	0.5744	0.114
Mof_C 	C 	0.102	0.1341	0.6217	0.034
Mof_C 	C 	0.34	0.3238	0.3867	0.012
Mof_C 	C 	0.3612	0.3581	0.3285	-0.093
Mof_C 	C 	0.1777	0.2943	0.4866	0.119
Mof_C 	C 	0.2284	0.0995	0.7163	0.051
Mof_C 	C 	0.3285	0.1476	0.7171	-0.091
Mof_C 	C 	0.0197	0.4689	0.0636	-0.048
Mof_C 	C 	0.1221	0.5098	0.0453	-0.041
Mof_C 	C 	0.256	0.5196	0.0911	0.289
Mof_C 	C 	0.4927	0.9793	0.5732	-0.062
Mof_C 	C 	0.4742	0.9608	0.6544	0.349
Mof_C 	C 	0.9001	0.4589	0.0169	-0.012
Mof_C 	C 	0.121	0.9803	0.0236	0.007
Mof_C 	C 	0.1145	0.0005	0.9513	-0.05
Mof_C 	C 	0.5266	0.5649	0.3672	0.342
Mof_C 	C 	0.6128	0.6434	0.1091	0.022
Mof_C 	C 	0.2404	0.0074	0.9063	0.316
Mof_C 	C 	0.7139	0.6768	0.0801	-0.043
Mof_C 	C 	0.7573	0.6082	0.1947	0.058
Mof_C 	C 	0.6971	0.8145	0.8792	-0.049
Mof_C 	C 	0.8128	0.8079	0.8313	0.007
Mof_C 	C 	0.6678	0.7664	0.9256	0.114
Mof_C 	C 	0.602	0.8659	0.8783	0.034
Mof_C 	C 	0.84	0.6762	0.1133	0.011
Mof_C 	C 	0.8612	0.6419	0.1715	-0.093
Mof_C 	C 	0.6777	0.7057	0.0134	0.118
Mof_C 	C 	0.7284	0.9005	0.7837	0.052
Mof_C 	C 	0.8285	0.8524	0.7829	-0.091
Mof_C 	C 	0.5197	0.5311	0.4364	-0.049
Mof_C 	C 	0.6221	0.4902	0.4547	-0.042
Mof_C 	C 	0.756	0.4804	0.4089	0.289
Mof_C 	C 	0.9927	0.0207	0.9268	-0.064
Mof_C 	C 	0.9742	0.0392	0.8456	0.35
Mof_C 	C 	0.4001	0.5411	0.4831	-0.011
Mof_N 	N 	0.8667	0.609	0.6643	-0.253
Mof_N 	N 	0.8832	0.9091	0.3316	-0.258
Mof_N 	N 	0.9399	0.7243	0.4117	-0.099
Mof_N 	N 	0.934	0.6871	0.4663	-0.104
Mof_N 	N 	0.7553	0.7553	0.4886	-0.096
Mof_N 	N 	0.6336	0.7895	0.5228	-0.227
Mof_N 	N 	0.3667	0.391	0.8357	-0.253
Mof_N 	N 	0.3832	0.0909	0.1684	-0.258
Mof_N 	N 	0.4399	0.2757	0.0883	-0.099
Mof_N 	N 	0.434	0.3129	0.0337	-0.104
Mof_N 	N 	0.2553	0.2447	0.0114	-0.096
Mof_N 	N 	0.1336	0.2105	0.9772	-0.228
Mof_N 	N 	0.1333	0.391	0.3357	-0.253
Mof_N 	N 	0.1168	0.0909	0.6684	-0.258
Mof_N 	N 	0.0601	0.2757	0.5883	-0.099
Mof_N 	N 	0.066	0.3129	0.5337	-0.104
Mof_N 	N 	0.2447	0.2447	0.5114	-0.096
Mof_N 	N 	0.3664	0.2105	0.4772	-0.227
Mof_N 	N 	0.6333	0.609	0.1643	-0.253
Mof_N 	N 	0.6168	0.9091	0.8316	-0.258
Mof_N 	N 	0.5601	0.7243	0.9117	-0.099
Mof_N 	N 	0.566	0.6871	0.9663	-0.104
Mof_N 	N 	0.7447	0.7553	0.9886	-0.096
Mof_N 	N 	0.8664	0.7895	0.0228	-0.228
Mof_O 	O 	0.9899	0.5183	0.7853	-0.451
Mof_O 	O 	0.2424	0.0617	0.3855	-0.342
Mof_O 	O 	0.9672	0.6348	0.896	-0.291
Mof_O 	O 	0.1687	0.9588	0.3923	-0.468
Mof_O 	O 	0.722	0.5059	0.8515	-0.398
Mof_O 	O 	0.6553	0.4441	0.9303	-0.4
Mof_O 	O 	0.4901	0.988	0.2698	-0.472
Mof_O 	O 	0.5762	0.0986	0.3539	-0.331
Mof_O 	O 	0.4899	0.4817	0.7147	-0.451
Mof_O 	O 	0.7424	0.9383	0.1145	-0.342
Mof_O 	O 	0.4672	0.3652	0.604	-0.292
Mof_O 	O 	0.6687	0.0412	0.1077	-0.468
Mof_O 	O 	0.222	0.4941	0.6485	-0.398
Mof_O 	O 	0.1553	0.5559	0.5697	-0.4
Mof_O 	O 	0.9901	0.012	0.2302	-0.473
Mof_O 	O 	0.0762	0.9014	0.1461	-0.331
Mof_O 	O 	0.0101	0.4817	0.2147	-0.451
Mof_O 	O 	0.7576	0.9383	0.6145	-0.342
Mof_O 	O 	0.0328	0.3652	0.104	-0.291
Mof_O 	O 	0.8313	0.0412	0.6077	-0.468
Mof_O 	O 	0.278	0.4941	0.1485	-0.398
Mof_O 	O 	0.3447	0.5559	0.0697	-0.4
Mof_O 	O 	0.5099	0.012	0.7302	-0.472
Mof_O 	O 	0.4238	0.9014	0.6461	-0.331
Mof_O 	O 	0.5101	0.5183	0.2853	-0.451
Mof_O 	O 	0.2576	0.0617	0.8855	-0.342
Mof_O 	O 	0.5328	0.6348	0.396	-0.292
Mof_O 	O 	0.3313	0.9588	0.8923	-0.468
Mof_O 	O 	0.778	0.5059	0.3515	-0.398
Mof_O 	O 	0.8447	0.4441	0.4303	-0.4
Mof_O 	O 	0.0099	0.988	0.7698	-0.473
Mof_O 	O 	0.9238	0.0986	0.8539	-0.331
_end
