data_functionalizedCrystal
_audit_creation_method	'EQeq! by Chris Wilmer'
_symmetry_space_group_name_H-M	'P1'
_symmetry_Int_Tables_number	1
_symmetry_cell_setting	triclinic
loop_
_symmetry_equiv_pos_as_xyz
  x,y,z
_cell_length_a	6.9149
_cell_length_b	22.113
_cell_length_c	7.7209
_cell_angle_alpha	90
_cell_angle_beta	90
_cell_angle_gamma	90
loop_
_atom_site_label
_atom_site_type_symbol
_atom_site_fract_x
_atom_site_fract_y
_atom_site_fract_z
_atom_site_charge
Mof_Co	Co	0.5417	0.28748	0.75775	1.183
Mof_Co	Co	0.4583	0.71252	0.75775	1.183
Mof_Co	Co	0.0417	0.21252	0.24225	1.179
Mof_Co	Co	0.9583	0.78748	0.24225	1.179
Mof_H 	H 	0.3371	0.1964	0.8608	0.132
Mof_H 	H 	0.3885	0.1847	0.6754	0.119
Mof_H 	H 	0.5574	0.1254	0.8981	0.038
Mof_H 	H 	0.6479	0.1123	0.6186	0.134
Mof_H 	H 	0.8412	0.1235	0.7264	0.139
Mof_H 	H 	0.492	0.4242	0.6623	0.013
Mof_H 	H 	0.6806	0.5116	0.6369	0.066
Mof_H 	H 	0.1568	0.416	0.7734	0.082
Mof_H 	H 	0.9682	0.3286	0.7988	0.016
Mof_H 	H 	0.6629	0.8036	0.8608	0.132
Mof_H 	H 	0.6115	0.8153	0.6754	0.119
Mof_H 	H 	0.4426	0.8746	0.8981	0.038
Mof_H 	H 	0.3521	0.8877	0.6186	0.134
Mof_H 	H 	0.1588	0.8765	0.7264	0.139
Mof_H 	H 	0.508	0.5758	0.6623	0.013
Mof_H 	H 	0.3194	0.4884	0.6369	0.066
Mof_H 	H 	0.8432	0.584	0.7734	0.082
Mof_H 	H 	0.0318	0.6714	0.7988	0.016
Mof_H 	H 	0.8371	0.3036	0.1392	0.133
Mof_H 	H 	0.8885	0.3153	0.3246	0.121
Mof_H 	H 	0.0574	0.3746	0.1019	0.039
Mof_H 	H 	0.1479	0.3877	0.3814	0.133
Mof_H 	H 	0.3412	0.3765	0.2736	0.138
Mof_H 	H 	0.992	0.0758	0.3377	0.02
Mof_H 	H 	0.1806	0.9884	0.3631	0.064
Mof_H 	H 	0.6568	0.084	0.2266	0.079
Mof_H 	H 	0.4682	0.1714	0.2012	0.016
Mof_H 	H 	0.1629	0.6964	0.1392	0.133
Mof_H 	H 	0.1115	0.6847	0.3246	0.121
Mof_H 	H 	0.9426	0.6254	0.1019	0.039
Mof_H 	H 	0.8521	0.6123	0.3814	0.133
Mof_H 	H 	0.6588	0.6235	0.2736	0.138
Mof_H 	H 	0.008	0.9242	0.3377	0.02
Mof_H 	H 	0.8194	0.0116	0.3631	0.064
Mof_H 	H 	0.3432	0.916	0.2266	0.079
Mof_H 	H 	0.5318	0.8286	0.2012	0.016
Mof_C 	C 	0.7313	0.1987	0.9592	0.297
Mof_C 	C 	0.6042	0.1624	0.8364	-0.01
Mof_C 	C 	0.7222	0.1433	0.683	-0.348
Mof_C 	C 	0.784	0.1945	0.5504	0.461
Mof_C 	C 	0.627	0.4226	0.6849	0.055
Mof_C 	C 	0.739	0.4745	0.6697	-0.116
Mof_C 	C 	0.9365	0.472	0.7027	0.049
Mof_C 	C 	0.0219	0.4177	0.7508	-0.126
Mof_C 	C 	0.91	0.3658	0.766	0.057
Mof_C 	C 	0.2687	0.8013	0.9592	0.297
Mof_C 	C 	0.3958	0.8376	0.8364	-0.01
Mof_C 	C 	0.2778	0.8567	0.683	-0.348
Mof_C 	C 	0.216	0.8055	0.5504	0.461
Mof_C 	C 	0.373	0.5774	0.6849	0.055
Mof_C 	C 	0.261	0.5255	0.6697	-0.116
Mof_C 	C 	0.0635	0.528	0.7027	0.049
Mof_C 	C 	0.9781	0.5823	0.7508	-0.126
Mof_C 	C 	0.09	0.6342	0.766	0.057
Mof_C 	C 	0.2313	0.3013	0.0408	0.3
Mof_C 	C 	0.1042	0.3376	0.1636	-0.016
Mof_C 	C 	0.2222	0.3567	0.317	-0.345
Mof_C 	C 	0.284	0.3055	0.4496	0.459
Mof_C 	C 	0.127	0.0774	0.3151	0.044
Mof_C 	C 	0.239	0.0255	0.3303	-0.11
Mof_C 	C 	0.4365	0.028	0.2973	0.043
Mof_C 	C 	0.5219	0.0823	0.2492	-0.113
Mof_C 	C 	0.41	0.1342	0.234	0.048
Mof_C 	C 	0.7687	0.6987	0.0408	0.3
Mof_C 	C 	0.8958	0.6624	0.1636	-0.016
Mof_C 	C 	0.7778	0.6433	0.317	-0.345
Mof_C 	C 	0.716	0.6945	0.4496	0.459
Mof_C 	C 	0.873	0.9226	0.3151	0.044
Mof_C 	C 	0.761	0.9745	0.3303	-0.11
Mof_C 	C 	0.5635	0.972	0.2973	0.043
Mof_C 	C 	0.4781	0.9177	0.2492	-0.113
Mof_C 	C 	0.59	0.8658	0.234	0.048
Mof_N 	N 	0.4347	0.1983	0.7801	-0.326
Mof_N 	N 	0.712	0.3682	0.733	-0.206
Mof_N 	N 	0.5653	0.8017	0.7801	-0.326
Mof_N 	N 	0.288	0.6318	0.733	-0.206
Mof_N 	N 	0.9347	0.3017	0.2199	-0.322
Mof_N 	N 	0.212	0.1318	0.267	-0.204
Mof_N 	N 	0.0653	0.6983	0.2199	-0.322
Mof_N 	N 	0.788	0.8682	0.267	-0.204
Mof_O 	O 	0.8437	0.1708	0.0615	-0.375
Mof_O 	O 	0.704	0.2551	0.9633	-0.415
Mof_O 	O 	0.7464	0.247	0.5814	-0.455
Mof_O 	O 	0.8856	0.1729	0.4332	-0.456
Mof_O 	O 	0.1563	0.8292	0.0615	-0.375
Mof_O 	O 	0.296	0.7449	0.9633	-0.415
Mof_O 	O 	0.2536	0.753	0.5814	-0.455
Mof_O 	O 	0.1144	0.8271	0.4332	-0.456
Mof_O 	O 	0.3437	0.3292	0.9385	-0.38
Mof_O 	O 	0.204	0.2449	0.0367	-0.418
Mof_O 	O 	0.2464	0.253	0.4186	-0.457
Mof_O 	O 	0.3856	0.3271	0.5668	-0.459
Mof_O 	O 	0.6563	0.6708	0.9385	-0.38
Mof_O 	O 	0.796	0.7551	0.0367	-0.418
Mof_O 	O 	0.7536	0.747	0.4186	-0.457
Mof_O 	O 	0.6144	0.6729	0.5668	-0.459
_end
