data_functionalizedCrystal
_audit_creation_method	'EQeq! by Chris Wilmer'
_symmetry_space_group_name_H-M	'P1'
_symmetry_Int_Tables_number	1
_symmetry_cell_setting	triclinic
loop_
_symmetry_equiv_pos_as_xyz
  x,y,z
_cell_length_a	24.1908
_cell_length_b	9.1472
_cell_length_c	18.9567
_cell_angle_alpha	90
_cell_angle_beta	114.252
_cell_angle_gamma	90
loop_
_atom_site_label
_atom_site_type_symbol
_atom_site_fract_x
_atom_site_fract_y
_atom_site_fract_z
_atom_site_charge
Mof_Eu	Eu	0.54162	0.30572	0.4943	2.266
Mof_Zn	Zn	0.71222	0.50981	0.33624	1.204
Mof_O 	O 	0.5472	0.5658	0.49616	-0.692
Mof_O 	O 	0.54097	0.8028	0.4824	-0.54
Mof_O 	O 	0.61555	0.3512	0.4579	-0.624
Mof_O 	O 	0.66468	0.3647	0.3823	-0.457
Mof_O 	O 	0.80454	0.4821	0.42683	-0.442
Mof_O 	O 	0.89239	0.3772	0.4463	-0.571
Mof_O 	O 	0.92363	0.1336	0.3788	-0.567
Mof_O 	O 	0.87961	0.0424	0.2612	-0.443
Mof_N 	N 	0.642	0.8186	0.4485	-0.247
Mof_H 	H 	0.6327	0.9048	0.4612	0.14
Mof_N 	N 	0.68457	0.6511	0.4044	-0.271
Mof_N 	N 	0.74324	0.3323	0.2964	-0.277
Mof_N 	N 	0.77168	0.1639	0.2331	-0.285
Mof_C 	C 	0.566	0.6848	0.4804	0.391
Mof_C 	C 	0.6176	0.6859	0.4563	-0.028
Mof_C 	C 	0.6451	0.5834	0.4298	-0.109
Mof_C 	C 	0.641	0.422	0.4225	0.442
Mof_C 	C 	0.6824	0.7927	0.418	0.339
Mof_C 	C 	0.7177	0.9101	0.4011	-0.889
Mof_H 	H 	0.7006	0.9291	0.3465	0.275
Mof_H 	H 	0.7591	0.8795	0.4176	0.278
Mof_H 	H 	0.7161	0.9975	0.4282	0.294
Mof_C 	C 	0.8356	0.3909	0.4088	0.389
Mof_C 	C 	0.8034	0.3032	0.3384	-0.081
Mof_C 	C 	0.8209	0.1985	0.2995	-0.086
Mof_C 	C 	0.8783	0.1213	0.3141	0.386
Mof_C 	C 	0.7261	0.2458	0.2341	0.288
Mof_C 	C 	0.6636	0.2442	0.1721	-0.78
Mof_H 	H 	0.6392	0.1764	0.1856	0.223
Mof_H 	H 	0.6649	0.215	0.1242	0.24
Mof_H 	H 	0.6463	0.3403	0.1666	0.226
Mof_Eu	Eu	0.04162	0.80572	0.4943	2.27
Mof_Zn	Zn	0.21222	0.00981	0.33624	1.205
Mof_O 	O 	0.0472	0.0658	0.49616	-0.692
Mof_O 	O 	0.04097	0.3028	0.4824	-0.54
Mof_O 	O 	0.11555	0.8512	0.4579	-0.624
Mof_O 	O 	0.16468	0.8647	0.3823	-0.457
Mof_O 	O 	0.30454	0.9821	0.42683	-0.442
Mof_O 	O 	0.39239	0.8772	0.4463	-0.571
Mof_O 	O 	0.42363	0.6336	0.3788	-0.567
Mof_O 	O 	0.37961	0.5424	0.2612	-0.442
Mof_N 	N 	0.142	0.3186	0.4485	-0.247
Mof_H 	H 	0.1327	0.4048	0.4612	0.141
Mof_N 	N 	0.18457	0.1511	0.4044	-0.271
Mof_N 	N 	0.24324	0.8323	0.2964	-0.278
Mof_N 	N 	0.27168	0.6639	0.2331	-0.285
Mof_C 	C 	0.066	0.1848	0.4804	0.391
Mof_C 	C 	0.1176	0.1859	0.4563	-0.028
Mof_C 	C 	0.1451	0.0834	0.4298	-0.11
Mof_C 	C 	0.141	0.922	0.4225	0.443
Mof_C 	C 	0.1824	0.2927	0.418	0.34
Mof_C 	C 	0.2177	0.4101	0.4011	-0.89
Mof_H 	H 	0.2006	0.4291	0.3465	0.276
Mof_H 	H 	0.2591	0.3795	0.4176	0.279
Mof_H 	H 	0.2161	0.4975	0.4282	0.294
Mof_C 	C 	0.3356	0.8909	0.4088	0.389
Mof_C 	C 	0.3034	0.8032	0.3384	-0.081
Mof_C 	C 	0.3209	0.6985	0.2995	-0.086
Mof_C 	C 	0.3783	0.6213	0.3141	0.386
Mof_C 	C 	0.2261	0.7458	0.2341	0.29
Mof_C 	C 	0.1636	0.7442	0.1721	-0.784
Mof_H 	H 	0.1392	0.6764	0.1856	0.226
Mof_H 	H 	0.1649	0.715	0.1242	0.243
Mof_H 	H 	0.1463	0.8403	0.1666	0.228
Mof_Eu	Eu	0.45838	0.30572	0.0057	2.268
Mof_Zn	Zn	0.28778	0.50981	0.16376	1.205
Mof_O 	O 	0.4528	0.5658	0.00384	-0.692
Mof_O 	O 	0.45903	0.8028	0.0176	-0.54
Mof_O 	O 	0.38445	0.3512	0.0421	-0.623
Mof_O 	O 	0.33532	0.3647	0.1177	-0.457
Mof_O 	O 	0.19546	0.4821	0.07317	-0.441
Mof_O 	O 	0.10761	0.3772	0.0537	-0.568
Mof_O 	O 	0.07637	0.1336	0.1212	-0.564
Mof_O 	O 	0.12039	0.0424	0.2388	-0.442
Mof_N 	N 	0.358	0.8186	0.0515	-0.247
Mof_H 	H 	0.3673	0.9048	0.0388	0.141
Mof_N 	N 	0.31543	0.6511	0.0956	-0.271
Mof_N 	N 	0.25676	0.3323	0.2036	-0.278
Mof_N 	N 	0.22832	0.1639	0.2669	-0.285
Mof_C 	C 	0.434	0.6848	0.0196	0.391
Mof_C 	C 	0.3824	0.6859	0.0437	-0.028
Mof_C 	C 	0.3549	0.5834	0.0702	-0.109
Mof_C 	C 	0.359	0.422	0.0775	0.442
Mof_C 	C 	0.3176	0.7927	0.082	0.341
Mof_C 	C 	0.2823	0.9101	0.0989	-0.892
Mof_H 	H 	0.2994	0.9291	0.1535	0.276
Mof_H 	H 	0.2409	0.8795	0.0824	0.28
Mof_H 	H 	0.2839	0.9975	0.0718	0.296
Mof_C 	C 	0.1644	0.3909	0.0912	0.388
Mof_C 	C 	0.1966	0.3032	0.1616	-0.08
Mof_C 	C 	0.1791	0.1985	0.2005	-0.086
Mof_C 	C 	0.1217	0.1213	0.1859	0.386
Mof_C 	C 	0.2739	0.2458	0.2659	0.288
Mof_C 	C 	0.3364	0.2442	0.3279	-0.78
Mof_H 	H 	0.3608	0.1764	0.3144	0.224
Mof_H 	H 	0.3351	0.215	0.3758	0.24
Mof_H 	H 	0.3537	0.3403	0.3334	0.226
Mof_Eu	Eu	0.95838	0.80572	0.0057	2.264
Mof_Zn	Zn	0.78778	0.00981	0.16376	1.205
Mof_O 	O 	0.9528	0.0658	0.00384	-0.693
Mof_O 	O 	0.95903	0.3028	0.0176	-0.54
Mof_O 	O 	0.88445	0.8512	0.0421	-0.624
Mof_O 	O 	0.83532	0.8647	0.1177	-0.457
Mof_O 	O 	0.69546	0.9821	0.07317	-0.442
Mof_O 	O 	0.60761	0.8772	0.0537	-0.571
Mof_O 	O 	0.57637	0.6336	0.1212	-0.567
Mof_O 	O 	0.62039	0.5424	0.2388	-0.442
Mof_N 	N 	0.858	0.3186	0.0515	-0.247
Mof_H 	H 	0.8673	0.4048	0.0388	0.14
Mof_N 	N 	0.81543	0.1511	0.0956	-0.271
Mof_N 	N 	0.75676	0.8323	0.2036	-0.277
Mof_N 	N 	0.72832	0.6639	0.2669	-0.285
Mof_C 	C 	0.934	0.1848	0.0196	0.391
Mof_C 	C 	0.8824	0.1859	0.0437	-0.028
Mof_C 	C 	0.8549	0.0834	0.0702	-0.11
Mof_C 	C 	0.859	0.922	0.0775	0.443
Mof_C 	C 	0.8176	0.2927	0.082	0.339
Mof_C 	C 	0.7823	0.4101	0.0989	-0.889
Mof_H 	H 	0.7994	0.4291	0.1535	0.275
Mof_H 	H 	0.7409	0.3795	0.0824	0.278
Mof_H 	H 	0.7839	0.4975	0.0718	0.294
Mof_C 	C 	0.6644	0.8909	0.0912	0.389
Mof_C 	C 	0.6966	0.8032	0.1616	-0.081
Mof_C 	C 	0.6791	0.6985	0.2005	-0.086
Mof_C 	C 	0.6217	0.6213	0.1859	0.386
Mof_C 	C 	0.7739	0.7458	0.2659	0.288
Mof_C 	C 	0.8364	0.7442	0.3279	-0.781
Mof_H 	H 	0.8608	0.6764	0.3144	0.224
Mof_H 	H 	0.8351	0.715	0.3758	0.241
Mof_H 	H 	0.8537	0.8403	0.3334	0.226
Mof_Eu	Eu	0.45838	0.69428	0.5057	2.267
Mof_Zn	Zn	0.28778	0.49019	0.66376	1.205
Mof_O 	O 	0.4528	0.4342	0.50384	-0.692
Mof_O 	O 	0.45903	0.1972	0.5176	-0.54
Mof_O 	O 	0.38445	0.6488	0.5421	-0.624
Mof_O 	O 	0.33532	0.6353	0.6177	-0.457
Mof_O 	O 	0.19546	0.5179	0.57317	-0.442
Mof_O 	O 	0.10761	0.6228	0.5537	-0.571
Mof_O 	O 	0.07637	0.8664	0.6212	-0.567
Mof_O 	O 	0.12039	0.9576	0.7388	-0.443
Mof_N 	N 	0.358	0.1814	0.5515	-0.247
Mof_H 	H 	0.3673	0.0952	0.5388	0.14
Mof_N 	N 	0.31543	0.3489	0.5956	-0.271
Mof_N 	N 	0.25676	0.6677	0.7036	-0.277
Mof_N 	N 	0.22832	0.8361	0.7669	-0.285
Mof_C 	C 	0.434	0.3152	0.5196	0.391
Mof_C 	C 	0.3824	0.3141	0.5437	-0.028
Mof_C 	C 	0.3549	0.4166	0.5702	-0.109
Mof_C 	C 	0.359	0.578	0.5775	0.442
Mof_C 	C 	0.3176	0.2073	0.582	0.339
Mof_C 	C 	0.2823	0.0899	0.5989	-0.889
Mof_H 	H 	0.2994	0.0709	0.6535	0.275
Mof_H 	H 	0.2409	0.1205	0.5824	0.278
Mof_H 	H 	0.2839	0.0025	0.5718	0.294
Mof_C 	C 	0.1644	0.6091	0.5912	0.389
Mof_C 	C 	0.1966	0.6968	0.6616	-0.081
Mof_C 	C 	0.1791	0.8015	0.7005	-0.086
Mof_C 	C 	0.1217	0.8787	0.6859	0.386
Mof_C 	C 	0.2739	0.7542	0.7659	0.288
Mof_C 	C 	0.3364	0.7558	0.8279	-0.78
Mof_H 	H 	0.3608	0.8236	0.8144	0.223
Mof_H 	H 	0.3351	0.785	0.8758	0.24
Mof_H 	H 	0.3537	0.6597	0.8334	0.226
Mof_Eu	Eu	0.95838	0.19428	0.5057	2.27
Mof_Zn	Zn	0.78778	0.99019	0.66376	1.205
Mof_O 	O 	0.9528	0.9342	0.50384	-0.692
Mof_O 	O 	0.95903	0.6972	0.5176	-0.54
Mof_O 	O 	0.88445	0.1488	0.5421	-0.624
Mof_O 	O 	0.83532	0.1353	0.6177	-0.457
Mof_O 	O 	0.69546	0.0179	0.57317	-0.442
Mof_O 	O 	0.60761	0.1228	0.5537	-0.571
Mof_O 	O 	0.57637	0.3664	0.6212	-0.567
Mof_O 	O 	0.62039	0.4576	0.7388	-0.442
Mof_N 	N 	0.858	0.6814	0.5515	-0.247
Mof_H 	H 	0.8673	0.5952	0.5388	0.141
Mof_N 	N 	0.81543	0.8489	0.5956	-0.271
Mof_N 	N 	0.75676	0.1677	0.7036	-0.278
Mof_N 	N 	0.72832	0.3361	0.7669	-0.285
Mof_C 	C 	0.934	0.8152	0.5196	0.391
Mof_C 	C 	0.8824	0.8141	0.5437	-0.028
Mof_C 	C 	0.8549	0.9166	0.5702	-0.11
Mof_C 	C 	0.859	0.078	0.5775	0.443
Mof_C 	C 	0.8176	0.7073	0.582	0.34
Mof_C 	C 	0.7823	0.5899	0.5989	-0.89
Mof_H 	H 	0.7994	0.5709	0.6535	0.276
Mof_H 	H 	0.7409	0.6205	0.5824	0.279
Mof_H 	H 	0.7839	0.5025	0.5718	0.294
Mof_C 	C 	0.6644	0.1091	0.5912	0.389
Mof_C 	C 	0.6966	0.1968	0.6616	-0.081
Mof_C 	C 	0.6791	0.3015	0.7005	-0.086
Mof_C 	C 	0.6217	0.3787	0.6859	0.386
Mof_C 	C 	0.7739	0.2542	0.7659	0.29
Mof_C 	C 	0.8364	0.2558	0.8279	-0.784
Mof_H 	H 	0.8608	0.3236	0.8144	0.226
Mof_H 	H 	0.8351	0.285	0.8758	0.243
Mof_H 	H 	0.8537	0.1597	0.8334	0.228
Mof_Eu	Eu	0.54162	0.69428	0.9943	2.268
Mof_Zn	Zn	0.71222	0.49019	0.83624	1.205
Mof_O 	O 	0.5472	0.4342	0.99616	-0.692
Mof_O 	O 	0.54097	0.1972	0.9824	-0.54
Mof_O 	O 	0.61555	0.6488	0.9579	-0.623
Mof_O 	O 	0.66468	0.6353	0.8823	-0.457
Mof_O 	O 	0.80454	0.5179	0.92683	-0.441
Mof_O 	O 	0.89239	0.6228	0.9463	-0.568
Mof_O 	O 	0.92363	0.8664	0.8788	-0.564
Mof_O 	O 	0.87961	0.9576	0.7612	-0.442
Mof_N 	N 	0.642	0.1814	0.9485	-0.247
Mof_H 	H 	0.6327	0.0952	0.9612	0.141
Mof_N 	N 	0.68457	0.3489	0.9044	-0.271
Mof_N 	N 	0.74324	0.6677	0.7964	-0.278
Mof_N 	N 	0.77168	0.8361	0.7331	-0.285
Mof_C 	C 	0.566	0.3152	0.9804	0.391
Mof_C 	C 	0.6176	0.3141	0.9563	-0.028
Mof_C 	C 	0.6451	0.4166	0.9298	-0.109
Mof_C 	C 	0.641	0.578	0.9225	0.442
Mof_C 	C 	0.6824	0.2073	0.918	0.341
Mof_C 	C 	0.7177	0.0899	0.9011	-0.892
Mof_H 	H 	0.7006	0.0709	0.8465	0.276
Mof_H 	H 	0.7591	0.1205	0.9176	0.28
Mof_H 	H 	0.7161	0.0025	0.9282	0.296
Mof_C 	C 	0.8356	0.6091	0.9088	0.388
Mof_C 	C 	0.8034	0.6968	0.8384	-0.08
Mof_C 	C 	0.8209	0.8015	0.7995	-0.086
Mof_C 	C 	0.8783	0.8787	0.8141	0.386
Mof_C 	C 	0.7261	0.7542	0.7341	0.288
Mof_C 	C 	0.6636	0.7558	0.6721	-0.78
Mof_H 	H 	0.6392	0.8236	0.6856	0.224
Mof_H 	H 	0.6649	0.785	0.6242	0.24
Mof_H 	H 	0.6463	0.6597	0.6666	0.226
Mof_Eu	Eu	0.04162	0.19428	0.9943	2.264
Mof_Zn	Zn	0.21222	0.99019	0.83624	1.205
Mof_O 	O 	0.0472	0.9342	0.99616	-0.693
Mof_O 	O 	0.04097	0.6972	0.9824	-0.54
Mof_O 	O 	0.11555	0.1488	0.9579	-0.624
Mof_O 	O 	0.16468	0.1353	0.8823	-0.457
Mof_O 	O 	0.30454	0.0179	0.92683	-0.442
Mof_O 	O 	0.39239	0.1228	0.9463	-0.571
Mof_O 	O 	0.42363	0.3664	0.8788	-0.567
Mof_O 	O 	0.37961	0.4576	0.7612	-0.442
Mof_N 	N 	0.142	0.6814	0.9485	-0.247
Mof_H 	H 	0.1327	0.5952	0.9612	0.14
Mof_N 	N 	0.18457	0.8489	0.9044	-0.271
Mof_N 	N 	0.24324	0.1677	0.7964	-0.277
Mof_N 	N 	0.27168	0.3361	0.7331	-0.285
Mof_C 	C 	0.066	0.8152	0.9804	0.391
Mof_C 	C 	0.1176	0.8141	0.9563	-0.028
Mof_C 	C 	0.1451	0.9166	0.9298	-0.11
Mof_C 	C 	0.141	0.078	0.9225	0.443
Mof_C 	C 	0.1824	0.7073	0.918	0.339
Mof_C 	C 	0.2177	0.5899	0.9011	-0.889
Mof_H 	H 	0.2006	0.5709	0.8465	0.275
Mof_H 	H 	0.2591	0.6205	0.9176	0.278
Mof_H 	H 	0.2161	0.5025	0.9282	0.294
Mof_C 	C 	0.3356	0.1091	0.9088	0.389
Mof_C 	C 	0.3034	0.1968	0.8384	-0.081
Mof_C 	C 	0.3209	0.3015	0.7995	-0.086
Mof_C 	C 	0.3783	0.3787	0.8141	0.386
Mof_C 	C 	0.2261	0.2542	0.7341	0.288
Mof_C 	C 	0.1636	0.2558	0.6721	-0.781
Mof_H 	H 	0.1392	0.3236	0.6856	0.224
Mof_H 	H 	0.1649	0.285	0.6242	0.241
Mof_H 	H 	0.1463	0.1597	0.6666	0.226
_end
