data_functionalizedCrystal
_audit_creation_method	'EQeq! by Chris Wilmer'
_symmetry_space_group_name_H-M	'P1'
_symmetry_Int_Tables_number	1
_symmetry_cell_setting	triclinic
loop_
_symmetry_equiv_pos_as_xyz
  x,y,z
_cell_length_a	18.7843
_cell_length_b	18.7843
_cell_length_c	25.0267
_cell_angle_alpha	90
_cell_angle_beta	90
_cell_angle_gamma	120
loop_
_atom_site_label
_atom_site_type_symbol
_atom_site_fract_x
_atom_site_fract_y
_atom_site_fract_z
_atom_site_charge
Mof_O 	O 	0.53379	0.18743	0.68827	-0.736
Mof_O 	O 	0.6536	0.18757	0.68829	-0.739
Mof_O 	O 	0.9425	0.057	0.7012	-0.467
Mof_C 	C 	0.4634	0.0484	0.5488	0.044
Mof_H 	H 	0.4126	0.0328	0.5335	-0.035
Mof_C 	C 	0.5861	0.0487	0.5491	0.041
Mof_H 	H 	0.6217	0.0333	0.5339	-0.026
Mof_C 	C 	0.4856	0.0939	0.5952	-0.041
Mof_H 	H 	0.4502	0.1095	0.6101	0.034
Mof_C 	C 	0.6081	0.0937	0.5953	-0.037
Mof_H 	H 	0.659	0.1091	0.6105	0.038
Mof_C 	C 	0.8165	0.1834	0.7075	0.172
Mof_H 	H 	0.803	0.1987	0.6755	-0.056
Mof_C 	C 	0.5581	0.1163	0.6194	-0.133
Mof_C 	C 	0.5133	0.0262	0.5253	-0.234
Mof_C 	C 	0.5841	0.168	0.66988	0.564
Mof_C 	C 	0.8595	0.1376	0.7042	-0.211
Mof_H 	H 	0.8722	0.1214	0.6722	0.1
Mof_O 	O 	0.81257	0.34636	0.68827	-0.757
Mof_O 	O 	0.81243	0.46603	0.68829	-0.761
Mof_O 	O 	0.943	0.8855	0.7012	-0.411
Mof_C 	C 	0.9516	0.415	0.5488	-0.457
Mof_H 	H 	0.9672	0.3798	0.5335	0.208
Mof_C 	C 	0.9513	0.5374	0.5491	-0.452
Mof_H 	H 	0.9667	0.5884	0.5339	0.21
Mof_C 	C 	0.9061	0.3917	0.5952	0.374
Mof_H 	H 	0.8905	0.3407	0.6101	-0.091
Mof_C 	C 	0.9063	0.5144	0.5953	0.375
Mof_H 	H 	0.8909	0.5499	0.6105	-0.086
Mof_C 	C 	0.8166	0.6331	0.7075	0.187
Mof_H 	H 	0.8013	0.6043	0.6755	-0.054
Mof_C 	C 	0.8837	0.4418	0.6194	-0.426
Mof_C 	C 	0.9738	0.4871	0.5253	0.422
Mof_C 	C 	0.832	0.4161	0.66988	0.679
Mof_C 	C 	0.8624	0.7219	0.7042	-0.221
Mof_H 	H 	0.8786	0.7508	0.6722	0.121
Mof_O 	O 	0.65364	0.46621	0.68827	-0.748
Mof_O 	O 	0.53397	0.3464	0.68829	-0.75
Mof_O 	O 	0.1145	0.0575	0.7012	-0.533
Mof_C 	C 	0.585	0.5366	0.5488	-0.206
Mof_H 	H 	0.6202	0.5874	0.5335	0.096
Mof_C 	C 	0.4626	0.4139	0.5491	-0.206
Mof_H 	H 	0.4116	0.3783	0.5339	0.082
Mof_C 	C 	0.6083	0.5144	0.5952	0.169
Mof_H 	H 	0.6593	0.5498	0.6101	-0.022
Mof_C 	C 	0.4856	0.3919	0.5953	0.166
Mof_H 	H 	0.4501	0.341	0.6105	-0.031
Mof_C 	C 	0.3669	0.1835	0.7075	0.155
Mof_H 	H 	0.3957	0.197	0.6755	-0.058
Mof_C 	C 	0.5582	0.4419	0.6194	-0.28
Mof_C 	C 	0.5129	0.4867	0.5253	0.094
Mof_C 	C 	0.5839	0.4159	0.66988	0.621
Mof_C 	C 	0.2781	0.1405	0.7042	-0.201
Mof_H 	H 	0.2492	0.1278	0.6722	0.079
Mof_O 	O 	0.81257	0.46621	0.81173	-0.757
Mof_O 	O 	0.81243	0.3464	0.81171	-0.76
Mof_O 	O 	0.943	0.0575	0.7988	-0.468
Mof_C 	C 	0.9516	0.5366	0.9512	-0.454
Mof_H 	H 	0.9672	0.5874	0.9665	0.212
Mof_C 	C 	0.9513	0.4139	0.9509	-0.45
Mof_H 	H 	0.9667	0.3783	0.9661	0.204
Mof_C 	C 	0.9061	0.5144	0.9048	0.373
Mof_H 	H 	0.8905	0.5498	0.8899	-0.086
Mof_C 	C 	0.9063	0.3919	0.9047	0.372
Mof_H 	H 	0.8909	0.341	0.8895	-0.089
Mof_C 	C 	0.8166	0.1835	0.7925	0.172
Mof_H 	H 	0.8013	0.197	0.8245	-0.056
Mof_C 	C 	0.8837	0.4419	0.8806	-0.424
Mof_C 	C 	0.9738	0.4867	0.9747	0.419
Mof_C 	C 	0.832	0.4159	0.83012	0.678
Mof_C 	C 	0.8624	0.1405	0.7958	-0.211
Mof_H 	H 	0.8786	0.1278	0.8278	0.102
Mof_O 	O 	0.65364	0.18743	0.81173	-0.738
Mof_O 	O 	0.53397	0.18757	0.81171	-0.74
Mof_O 	O 	0.1145	0.057	0.7988	-0.532
Mof_C 	C 	0.585	0.0484	0.9512	0.042
Mof_H 	H 	0.6202	0.0328	0.9665	-0.026
Mof_C 	C 	0.4626	0.0487	0.9509	0.037
Mof_H 	H 	0.4116	0.0333	0.9661	-0.032
Mof_C 	C 	0.6083	0.0939	0.9048	-0.037
Mof_H 	H 	0.6593	0.1095	0.8899	0.038
Mof_C 	C 	0.4856	0.0937	0.9047	-0.037
Mof_H 	H 	0.4501	0.1091	0.8895	0.033
Mof_C 	C 	0.3669	0.1834	0.7925	0.155
Mof_H 	H 	0.3957	0.1987	0.8245	-0.058
Mof_C 	C 	0.5582	0.1163	0.8806	-0.135
Mof_C 	C 	0.5129	0.0262	0.9747	-0.231
Mof_C 	C 	0.5839	0.168	0.83012	0.565
Mof_C 	C 	0.2781	0.1376	0.7958	-0.201
Mof_H 	H 	0.2492	0.1214	0.8278	0.079
Mof_O 	O 	0.53379	0.34636	0.81173	-0.747
Mof_O 	O 	0.6536	0.46603	0.81171	-0.751
Mof_O 	O 	0.9425	0.8855	0.7988	-0.412
Mof_C 	C 	0.4634	0.415	0.9512	-0.207
Mof_H 	H 	0.4126	0.3798	0.9665	0.083
Mof_C 	C 	0.5861	0.5374	0.9509	-0.205
Mof_H 	H 	0.6217	0.5884	0.9661	0.095
Mof_C 	C 	0.4856	0.3917	0.9048	0.165
Mof_H 	H 	0.4502	0.3407	0.8899	-0.031
Mof_C 	C 	0.6081	0.5144	0.9047	0.17
Mof_H 	H 	0.659	0.5499	0.8895	-0.022
Mof_C 	C 	0.8165	0.6331	0.7925	0.187
Mof_H 	H 	0.803	0.6043	0.8245	-0.054
Mof_C 	C 	0.5581	0.4418	0.8806	-0.28
Mof_C 	C 	0.5133	0.4871	0.9747	0.094
Mof_C 	C 	0.5841	0.4161	0.83012	0.621
Mof_C 	C 	0.8595	0.7219	0.7958	-0.22
Mof_H 	H 	0.8722	0.7508	0.8278	0.12
Mof_O 	O 	0.46621	0.81257	0.31173	-0.758
Mof_O 	O 	0.3464	0.81243	0.31171	-0.76
Mof_O 	O 	0.0575	0.943	0.2988	-0.468
Mof_C 	C 	0.5366	0.9516	0.4512	-0.457
Mof_H 	H 	0.5874	0.9672	0.4665	0.213
Mof_C 	C 	0.4139	0.9513	0.4509	-0.452
Mof_H 	H 	0.3783	0.9667	0.4661	0.205
Mof_C 	C 	0.5144	0.9061	0.4048	0.375
Mof_H 	H 	0.5498	0.8905	0.3899	-0.086
Mof_C 	C 	0.3919	0.9063	0.4047	0.374
Mof_H 	H 	0.341	0.8909	0.3895	-0.09
Mof_C 	C 	0.1835	0.8166	0.2925	0.172
Mof_H 	H 	0.197	0.8013	0.3245	-0.056
Mof_C 	C 	0.4419	0.8837	0.3806	-0.426
Mof_C 	C 	0.4867	0.9738	0.4747	0.422
Mof_C 	C 	0.4159	0.832	0.33012	0.679
Mof_C 	C 	0.1405	0.8624	0.2958	-0.212
Mof_H 	H 	0.1278	0.8786	0.3278	0.102
Mof_O 	O 	0.18743	0.65364	0.31173	-0.737
Mof_O 	O 	0.18757	0.53397	0.31171	-0.74
Mof_O 	O 	0.057	0.1145	0.2988	-0.533
Mof_C 	C 	0.0484	0.585	0.4512	0.044
Mof_H 	H 	0.0328	0.6202	0.4665	-0.027
Mof_C 	C 	0.0487	0.4626	0.4509	0.04
Mof_H 	H 	0.0333	0.4116	0.4661	-0.034
Mof_C 	C 	0.0939	0.6083	0.4048	-0.04
Mof_H 	H 	0.1095	0.6593	0.3899	0.039
Mof_C 	C 	0.0937	0.4856	0.4047	-0.039
Mof_H 	H 	0.1091	0.4501	0.3895	0.033
Mof_C 	C 	0.1834	0.3669	0.2925	0.155
Mof_H 	H 	0.1987	0.3957	0.3245	-0.058
Mof_C 	C 	0.1163	0.5582	0.3806	-0.133
Mof_C 	C 	0.0262	0.5129	0.4747	-0.234
Mof_C 	C 	0.168	0.5839	0.33012	0.564
Mof_C 	C 	0.1376	0.2781	0.2958	-0.201
Mof_H 	H 	0.1214	0.2492	0.3278	0.079
Mof_O 	O 	0.34636	0.53379	0.31173	-0.747
Mof_O 	O 	0.46603	0.6536	0.31171	-0.751
Mof_O 	O 	0.8855	0.9425	0.2988	-0.411
Mof_C 	C 	0.415	0.4634	0.4512	-0.207
Mof_H 	H 	0.3798	0.4126	0.4665	0.083
Mof_C 	C 	0.5374	0.5861	0.4509	-0.205
Mof_H 	H 	0.5884	0.6217	0.4661	0.096
Mof_C 	C 	0.3917	0.4856	0.4048	0.165
Mof_H 	H 	0.3407	0.4502	0.3899	-0.031
Mof_C 	C 	0.5144	0.6081	0.4047	0.17
Mof_H 	H 	0.5499	0.659	0.3895	-0.022
Mof_C 	C 	0.6331	0.8165	0.2925	0.187
Mof_H 	H 	0.6043	0.803	0.3245	-0.053
Mof_C 	C 	0.4418	0.5581	0.3806	-0.28
Mof_C 	C 	0.4871	0.5133	0.4747	0.094
Mof_C 	C 	0.4161	0.5841	0.33012	0.622
Mof_C 	C 	0.7219	0.8595	0.2958	-0.22
Mof_H 	H 	0.7508	0.8722	0.3278	0.12
Mof_O 	O 	0.18743	0.53379	0.18827	-0.737
Mof_O 	O 	0.18757	0.6536	0.18829	-0.74
Mof_O 	O 	0.057	0.9425	0.2012	-0.468
Mof_C 	C 	0.0484	0.4634	0.0488	0.041
Mof_H 	H 	0.0328	0.4126	0.0335	-0.034
Mof_C 	C 	0.0487	0.5861	0.0491	0.038
Mof_H 	H 	0.0333	0.6217	0.0339	-0.025
Mof_C 	C 	0.0939	0.4856	0.0952	-0.039
Mof_H 	H 	0.1095	0.4502	0.1101	0.034
Mof_C 	C 	0.0937	0.6081	0.0953	-0.035
Mof_H 	H 	0.1091	0.659	0.1105	0.037
Mof_C 	C 	0.1834	0.8165	0.2075	0.172
Mof_H 	H 	0.1987	0.803	0.1755	-0.056
Mof_C 	C 	0.1163	0.5581	0.1194	-0.135
Mof_C 	C 	0.0262	0.5133	0.0253	-0.23
Mof_C 	C 	0.168	0.5841	0.16988	0.565
Mof_C 	C 	0.1376	0.8595	0.2042	-0.211
Mof_H 	H 	0.1214	0.8722	0.1722	0.101
Mof_O 	O 	0.34636	0.81257	0.18827	-0.757
Mof_O 	O 	0.46603	0.81243	0.18829	-0.761
Mof_O 	O 	0.8855	0.943	0.2012	-0.412
Mof_C 	C 	0.415	0.9516	0.0488	-0.455
Mof_H 	H 	0.3798	0.9672	0.0335	0.207
Mof_C 	C 	0.5374	0.9513	0.0491	-0.449
Mof_H 	H 	0.5884	0.9667	0.0339	0.209
Mof_C 	C 	0.3917	0.9061	0.0952	0.372
Mof_H 	H 	0.3407	0.8905	0.1101	-0.09
Mof_C 	C 	0.5144	0.9063	0.0953	0.373
Mof_H 	H 	0.5499	0.8909	0.1105	-0.085
Mof_C 	C 	0.6331	0.8166	0.2075	0.187
Mof_H 	H 	0.6043	0.8013	0.1755	-0.054
Mof_C 	C 	0.4418	0.8837	0.1194	-0.424
Mof_C 	C 	0.4871	0.9738	0.0253	0.419
Mof_C 	C 	0.4161	0.832	0.16988	0.678
Mof_C 	C 	0.7219	0.8624	0.2042	-0.221
Mof_H 	H 	0.7508	0.8786	0.1722	0.121
Mof_O 	O 	0.46621	0.65364	0.18827	-0.748
Mof_O 	O 	0.3464	0.53397	0.18829	-0.75
Mof_O 	O 	0.0575	0.1145	0.2012	-0.532
Mof_C 	C 	0.5366	0.585	0.0488	-0.206
Mof_H 	H 	0.5874	0.6202	0.0335	0.096
Mof_C 	C 	0.4139	0.4626	0.0491	-0.206
Mof_H 	H 	0.3783	0.4116	0.0339	0.082
Mof_C 	C 	0.5144	0.6083	0.0952	0.168
Mof_H 	H 	0.5498	0.6593	0.1101	-0.022
Mof_C 	C 	0.3919	0.4856	0.0953	0.166
Mof_H 	H 	0.341	0.4501	0.1105	-0.031
Mof_C 	C 	0.1835	0.3669	0.2075	0.155
Mof_H 	H 	0.197	0.3957	0.1755	-0.058
Mof_C 	C 	0.4419	0.5582	0.1194	-0.28
Mof_C 	C 	0.4867	0.5129	0.0253	0.094
Mof_C 	C 	0.4159	0.5839	0.16988	0.621
Mof_C 	C 	0.1405	0.2781	0.2042	-0.201
Mof_H 	H 	0.1278	0.2492	0.1722	0.079
Mof_In	In	0.72901	0.27099	0.75	2.786
Mof_N 	N 	0.79555	0.20445	0.75	-0.428
Mof_C 	C 	0.8778	0.1222	0.75	0.097
Mof_C 	C 	0.9253	0.0747	0.75	0.24
Mof_In	In	0.72901	0.45802	0.75	2.804
Mof_N 	N 	0.79555	0.5911	0.75	-0.432
Mof_C 	C 	0.8778	0.7556	0.75	0.122
Mof_C 	C 	0.9253	0.8506	0.75	0.244
Mof_In	In	0.54198	0.27099	0.75	2.768
Mof_N 	N 	0.4089	0.20445	0.75	-0.424
Mof_C 	C 	0.2444	0.1222	0.75	0.068
Mof_C 	C 	0.1494	0.0747	0.75	0.236
Mof_In	In	0.27099	0.72901	0.25	2.786
Mof_N 	N 	0.20445	0.79555	0.25	-0.428
Mof_C 	C 	0.1222	0.8778	0.25	0.097
Mof_C 	C 	0.0747	0.9253	0.25	0.24
Mof_In	In	0.27099	0.54198	0.25	2.768
Mof_N 	N 	0.20445	0.4089	0.25	-0.424
Mof_C 	C 	0.1222	0.2444	0.25	0.068
Mof_C 	C 	0.0747	0.1494	0.25	0.236
Mof_In	In	0.45802	0.72901	0.25	2.804
Mof_N 	N 	0.5911	0.79555	0.25	-0.432
Mof_C 	C 	0.7556	0.8778	0.25	0.122
Mof_C 	C 	0.8506	0.9253	0.25	0.244
Mof_Zn	Zn	1.32034e-32	0	0.67797	1.124
Mof_Zn	Zn	2.64068e-32	0	0.82203	1.124
Mof_Zn	Zn	-0	-6.60171e-33	0.32203	1.124
Mof_Zn	Zn	1.65043e-33	-3.30085e-33	0.17797	1.124
Mof_O 	O 	0.66667	0.33333	0.75	-1.458
Mof_O 	O 	0.33333	0.66667	0.25	-1.458
_end
