data_functionalizedCrystal
_audit_creation_method	'EQeq! by Chris Wilmer'
_symmetry_space_group_name_H-M	'P1'
_symmetry_Int_Tables_number	1
_symmetry_cell_setting	triclinic
loop_
_symmetry_equiv_pos_as_xyz
  x,y,z
_cell_length_a	17.5091
_cell_length_b	41.2555
_cell_length_c	41.2555
_cell_angle_alpha	120
_cell_angle_beta	90
_cell_angle_gamma	90
loop_
_atom_site_label
_atom_site_type_symbol
_atom_site_fract_x
_atom_site_fract_y
_atom_site_fract_z
_atom_site_charge
Mof_Zn	Zn	0.83733	0.59522	0.96853	1.248
Mof_Zn	Zn	0.83148	0.37355	0.40545	1.247
Mof_Zn	Zn	0.8357	0.03132	0.62776	1.247
Mof_Zn	Zn	0.33744	0.40455	0.03159	1.246
Mof_Zn	Zn	0.33159	0.62733	0.59546	1.247
Mof_Zn	Zn	0.33867	0.96869	0.37185	1.246
Mof_Zn	Zn	0.16586	0.40481	0.0316	1.246
Mof_Zn	Zn	0.16013	0.62665	0.59551	1.246
Mof_Zn	Zn	0.16707	0.96806	0.37343	1.246
Mof_Zn	Zn	0.66581	0.5949	0.96833	1.246
Mof_Zn	Zn	0.66005	0.3735	0.40496	1.246
Mof_Zn	Zn	0.66451	0.03174	0.62606	1.247
Mof_Zn	Zn	0.75246	0.57017	0.89693	1.247
Mof_Zn	Zn	0.75161	0.52229	0.93295	1.249
Mof_Zn	Zn	0.74473	0.32689	0.43012	1.247
Mof_Zn	Zn	0.74582	0.41073	0.47799	1.249
Mof_Zn	Zn	0.7503	0.10304	0.6734	1.247
Mof_Zn	Zn	0.75384	0.06709	0.58958	1.249
Mof_Zn	Zn	0.25207	0.42935	0.10301	1.247
Mof_Zn	Zn	0.25152	0.47744	0.06722	1.249
Mof_Zn	Zn	0.24455	0.67345	0.57035	1.247
Mof_Zn	Zn	0.24607	0.58957	0.52273	1.249
Mof_Zn	Zn	0.25318	0.89698	0.32551	1.247
Mof_Zn	Zn	0.25702	0.93221	0.40911	1.25
Mof_C 	C 	0.89833	0.60364	0.90969	0.399
Mof_C 	C 	0.96733	0.61216	0.89384	-0.12
Mof_C 	C 	0.03113	0.63031	0.91652	0.029
Mof_C 	C 	0.09938	0.63428	0.90092	-0.069
Mof_C 	C 	0.10643	0.61981	0.86204	0.025
Mof_C 	C 	0.0418	0.60241	0.83952	-0.07
Mof_C 	C 	0.9733	0.59884	0.8552	0.029
Mof_C 	C 	0.181	0.62187	0.84487	0.016
Mof_C 	C 	0.18183	0.62555	0.81268	-0.061
Mof_C 	C 	0.30993	0.64261	0.74903	-0.07
Mof_C 	C 	0.88736	0.53289	0.97381	0.396
Mof_C 	C 	0.94543	0.5163	0.98773	-0.097
Mof_C 	C 	0.93997	0.47864	0.97873	-0.003
Mof_C 	C 	0.00721	0.53771	0.00989	-0.004
Mof_C 	C 	0.7261	0.42383	0.80958	0.035
Mof_C 	C 	0.72519	0.39324	0.77302	-0.072
Mof_C 	C 	0.3093	0.64283	0.71509	0.031
Mof_C 	C 	0.89109	0.30595	0.39692	0.397
Mof_C 	C 	0.95941	0.28121	0.38795	-0.114
Mof_C 	C 	0.02328	0.28527	0.3697	0.027
Mof_C 	C 	0.0914	0.26571	0.36605	-0.067
Mof_C 	C 	0.09935	0.2417	0.38102	0.023
Mof_C 	C 	0.03567	0.23639	0.39884	-0.066
Mof_C 	C 	0.96633	0.25478	0.40223	0.022
Mof_C 	C 	0.17447	0.22279	0.37878	0.017
Mof_C 	C 	0.17636	0.18684	0.37493	-0.062
Mof_C 	C 	0.30725	0.10663	0.35658	-0.07
Mof_C 	C 	0.88246	0.44061	0.46797	0.397
Mof_C 	C 	0.94093	0.47089	0.4846	-0.098
Mof_C 	C 	0.93555	0.49958	0.52223	-0.002
Mof_C 	C 	0.00278	0.47148	0.46314	-0.003
Mof_C 	C 	0.70599	0.32166	0.57062	-0.073
Mof_C 	C 	0.70595	0.32728	0.5399	0.036
Mof_C 	C 	0.30879	0.07252	0.35643	0.031
Mof_C 	C 	0.89584	0.09062	0.69487	0.398
Mof_C 	C 	0.96419	0.10646	0.71956	-0.115
Mof_C 	C 	0.02812	0.08419	0.71552	0.027
Mof_C 	C 	0.09636	0.10018	0.73491	-0.067
Mof_C 	C 	0.1043	0.13919	0.75872	0.023
Mof_C 	C 	0.04058	0.16228	0.76399	-0.066
Mof_C 	C 	0.97115	0.14721	0.74577	0.022
Mof_C 	C 	0.17943	0.15594	0.7775	0.017
Mof_C 	C 	0.18126	0.18809	0.81339	-0.062
Mof_C 	C 	0.31162	0.25085	0.89342	-0.07
Mof_C 	C 	0.88793	0.025	0.56014	0.416
Mof_C 	C 	0.94461	0.00992	0.52962	-0.135
Mof_C 	C 	0.95034	0.01677	0.49812	0.037
Mof_C 	C 	0.00641	0.98959	0.52607	0.059
Mof_C 	C 	0.72092	0.2491	0.67934	-0.072
Mof_C 	C 	0.72044	0.21281	0.67371	0.036
Mof_C 	C 	0.31225	0.28485	0.92753	0.031
Mof_C 	C 	0.39875	0.39679	0.09077	0.399
Mof_C 	C 	0.468	0.38904	0.10705	-0.121
Mof_C 	C 	0.53137	0.37011	0.08446	0.03
Mof_C 	C 	0.59968	0.3666	0.10033	-0.069
Mof_C 	C 	0.60731	0.3824	0.13939	0.025
Mof_C 	C 	0.54325	0.40085	0.16186	-0.069
Mof_C 	C 	0.47463	0.40388	0.14593	0.029
Mof_C 	C 	0.68161	0.3799	0.15651	0.017
Mof_C 	C 	0.68216	0.37718	0.18928	-0.061
Mof_C 	C 	0.81081	0.389	0.26766	-0.07
Mof_C 	C 	0.38737	0.467	0.02645	0.396
Mof_C 	C 	0.44549	0.48361	0.01257	-0.098
Mof_C 	C 	0.44015	0.52129	0.02163	-0.002
Mof_C 	C 	0.50721	0.46218	0.99037	-0.002
Mof_C 	C 	0.22439	0.57556	0.19054	0.036
Mof_C 	C 	0.22358	0.60618	0.22707	-0.072
Mof_C 	C 	0.80999	0.38826	0.3013	0.031
Mof_C 	C 	0.39139	0.69446	0.603	0.398
Mof_C 	C 	0.46033	0.71887	0.61148	-0.12
Mof_C 	C 	0.52353	0.71472	0.63022	0.03
Mof_C 	C 	0.59187	0.73423	0.63433	-0.069
Mof_C 	C 	0.59967	0.75826	0.61946	0.025
Mof_C 	C 	0.53562	0.76309	0.60152	-0.069
Mof_C 	C 	0.46696	0.74385	0.59777	0.029
Mof_C 	C 	0.67453	0.77734	0.62172	0.017
Mof_C 	C 	0.67602	0.81319	0.62533	-0.061
Mof_C 	C 	0.80594	0.89373	0.64366	-0.07
Mof_C 	C 	0.38264	0.55992	0.53315	0.397
Mof_C 	C 	0.44103	0.52957	0.51644	-0.099
Mof_C 	C 	0.43556	0.501	0.47874	-0.002
Mof_C 	C 	0.50294	0.52881	0.53777	-0.002
Mof_C 	C 	0.20605	0.6783	0.42973	-0.073
Mof_C 	C 	0.20606	0.67279	0.46051	0.036
Mof_C 	C 	0.80693	0.92783	0.64379	0.031
Mof_C 	C 	0.39896	0.90966	0.30449	0.398
Mof_C 	C 	0.46789	0.89381	0.28009	-0.12
Mof_C 	C 	0.53144	0.91658	0.28446	0.03
Mof_C 	C 	0.59981	0.90102	0.26501	-0.069
Mof_C 	C 	0.60721	0.86211	0.24088	0.025
Mof_C 	C 	0.5428	0.83951	0.23586	-0.069
Mof_C 	C 	0.47418	0.85513	0.25499	0.029
Mof_C 	C 	0.68199	0.84504	0.22191	0.017
Mof_C 	C 	0.68327	0.81274	0.18613	-0.061
Mof_C 	C 	0.8126	0.74914	0.10597	-0.07
Mof_C 	C 	0.39165	0.9739	0.43898	0.398
Mof_C 	C 	0.44957	0.98797	0.46954	-0.099
Mof_C 	C 	0.44393	0.97873	0.49801	-0.001
Mof_C 	C 	0.51099	0.01049	0.47068	-0.001
Mof_C 	C 	0.2254	0.7502	0.31853	-0.073
Mof_C 	C 	0.22516	0.78644	0.32403	0.036
Mof_C 	C 	0.81268	0.71504	0.07196	0.031
Mof_C 	C 	0.10574	0.3961	0.09054	0.396
Mof_C 	C 	0.03737	0.38718	0.10637	-0.115
Mof_C 	C 	0.97325	0.3691	0.08418	0.028
Mof_C 	C 	0.90524	0.36548	0.10022	-0.067
Mof_C 	C 	0.89759	0.38036	0.13922	0.023
Mof_C 	C 	0.96153	0.39801	0.16221	-0.064
Mof_C 	C 	0.03078	0.40133	0.14707	0.02
Mof_C 	C 	0.82248	0.37827	0.15604	0.017
Mof_C 	C 	0.82058	0.37461	0.18828	-0.061
Mof_C 	C 	0.68912	0.35717	0.25076	-0.07
Mof_C 	C 	0.11503	0.4675	0.02719	0.398
Mof_C 	C 	0.05664	0.48423	0.01358	-0.101
Mof_C 	C 	0.06204	0.5219	0.02263	-0.001
Mof_C 	C 	0.99479	0.46283	0.99147	-0
Mof_C 	C 	0.2876	0.56897	0.24924	-0.073
Mof_C 	C 	0.28687	0.53823	0.21295	0.036
Mof_C 	C 	0.68748	0.35731	0.28487	0.031
Mof_C 	C 	0.09836	0.69379	0.60361	0.398
Mof_C 	C 	0.02909	0.71791	0.61152	-0.121
Mof_C 	C 	0.96557	0.71414	0.63029	0.03
Mof_C 	C 	0.89732	0.7336	0.63386	-0.069
Mof_C 	C 	0.88985	0.75708	0.61828	0.025
Mof_C 	C 	0.95411	0.76127	0.60006	-0.068
Mof_C 	C 	0.02266	0.74221	0.59696	0.028
Mof_C 	C 	0.81541	0.77659	0.62062	0.017
Mof_C 	C 	0.81452	0.8121	0.62332	-0.061
Mof_C 	C 	0.68505	0.87825	0.61111	-0.07
Mof_C 	C 	0.11034	0.55917	0.53304	0.398
Mof_C 	C 	0.05224	0.52871	0.51648	-0.101
Mof_C 	C 	0.05767	0.49999	0.47886	-0.001
Mof_C 	C 	0.99044	0.52809	0.53795	-0
Mof_C 	C 	0.27405	0.61444	0.42432	0.036
Mof_C 	C 	0.27564	0.62037	0.39371	-0.072
Mof_C 	C 	0.68522	0.91275	0.61208	0.031
Mof_C 	C 	0.10566	0.90928	0.30601	0.398
Mof_C 	C 	0.03642	0.89312	0.28188	-0.121
Mof_C 	C 	0.97321	0.91579	0.28554	0.031
Mof_C 	C 	0.90506	0.90003	0.26594	-0.069
Mof_C 	C 	0.89731	0.86099	0.24247	0.025
Mof_C 	C 	0.96127	0.83844	0.2384	-0.068
Mof_C 	C 	0.02979	0.85428	0.25757	0.028
Mof_C 	C 	0.82282	0.844	0.22287	0.017
Mof_C 	C 	0.82168	0.81106	0.18745	-0.061
Mof_C 	C 	0.6905	0.7333	0.12161	-0.07
Mof_C 	C 	0.12068	0.97148	0.44054	0.402
Mof_C 	C 	0.06421	0.98431	0.47119	-0.101
Mof_C 	C 	0.06786	0.97505	0.50092	-0.027
Mof_C 	C 	0.0003	0.0058	0.47454	0.024
Mof_C 	C 	0.2888	0.80909	0.38354	0.036
Mof_C 	C 	0.29051	0.77257	0.37767	-0.073
Mof_C 	C 	0.68978	0.69969	0.08722	0.031
Mof_C 	C 	0.60514	0.60237	0.9087	0.397
Mof_C 	C 	0.53594	0.61027	0.89243	-0.119
Mof_C 	C 	0.47293	0.62951	0.91514	0.029
Mof_C 	C 	0.40465	0.63328	0.89943	-0.069
Mof_C 	C 	0.39657	0.61746	0.86038	0.025
Mof_C 	C 	0.46035	0.59883	0.83776	-0.069
Mof_C 	C 	0.52901	0.5955	0.85355	0.028
Mof_C 	C 	0.32185	0.61998	0.84352	0.016
Mof_C 	C 	0.32025	0.62256	0.81063	-0.061
Mof_C 	C 	0.18789	0.61109	0.73341	-0.07
Mof_C 	C 	0.61515	0.53235	0.97304	0.397
Mof_C 	C 	0.55677	0.51566	0.98672	-0.099
Mof_C 	C 	0.56207	0.47797	0.97763	-0.002
Mof_C 	C 	0.49501	0.53709	0.00889	-0.002
Mof_C 	C 	0.78985	0.43041	0.75098	-0.072
Mof_C 	C 	0.78925	0.46111	0.78729	0.036
Mof_C 	C 	0.18647	0.61217	0.69995	0.031
Mof_C 	C 	0.59825	0.30663	0.39729	0.399
Mof_C 	C 	0.52892	0.28262	0.3895	-0.121
Mof_C 	C 	0.46546	0.28641	0.3707	0.03
Mof_C 	C 	0.39716	0.267	0.36714	-0.069
Mof_C 	C 	0.38964	0.24356	0.38275	0.025
Mof_C 	C 	0.45378	0.2394	0.40106	-0.069
Mof_C 	C 	0.52238	0.2584	0.40415	0.029
Mof_C 	C 	0.31534	0.22391	0.38021	0.017
Mof_C 	C 	0.31479	0.18833	0.3773	-0.061
Mof_C 	C 	0.18624	0.1217	0.38903	-0.069
Mof_C 	C 	0.61024	0.44113	0.46747	0.396
Mof_C 	C 	0.55222	0.47166	0.48417	-0.099
Mof_C 	C 	0.55775	0.50026	0.52186	-0.002
Mof_C 	C 	0.49037	0.47246	0.46284	-0.002
Mof_C 	C 	0.77593	0.38505	0.57581	0.036
Mof_C 	C 	0.77767	0.37898	0.60633	-0.072
Mof_C 	C 	0.18696	0.08719	0.38803	0.031
Mof_C 	C 	0.60287	0.09087	0.69311	0.398
Mof_C 	C 	0.53358	0.10712	0.71716	-0.12
Mof_C 	C 	0.47019	0.08454	0.71347	0.03
Mof_C 	C 	0.40203	0.10039	0.73303	-0.069
Mof_C 	C 	0.39454	0.13943	0.75651	0.025
Mof_C 	C 	0.45863	0.1619	0.76057	-0.069
Mof_C 	C 	0.52712	0.14598	0.74142	0.029
Mof_C 	C 	0.32026	0.15653	0.77624	0.017
Mof_C 	C 	0.31965	0.18932	0.81176	-0.061
Mof_C 	C 	0.18988	0.26734	0.8781	-0.07
Mof_C 	C 	0.61717	0.02763	0.55862	0.397
Mof_C 	C 	0.55959	0.01404	0.52795	-0.098
Mof_C 	C 	0.56533	0.02335	0.4995	-0.002
Mof_C 	C 	0.49809	0.99158	0.52678	-0.002
Mof_C 	C 	0.78759	0.19055	0.61513	0.035
Mof_C 	C 	0.7896	0.22716	0.62117	-0.072
Mof_C 	C 	0.1897	0.30084	0.91259	0.031
Mof_C 	C 	0.75475	0.49147	0.85498	0.412
Mof_C 	C 	0.75721	0.45821	0.81696	-0.13
Mof_C 	C 	0.75686	0.39613	0.74312	0.028
Mof_C 	C 	0.75494	0.36384	0.70391	0.016
Mof_C 	C 	0.74706	0.36991	0.67339	-0.061
Mof_C 	C 	0.74326	0.36359	0.50882	0.413
Mof_C 	C 	0.74114	0.35892	0.54211	-0.13
Mof_C 	C 	0.74301	0.34707	0.60414	0.028
Mof_C 	C 	0.74704	0.33992	0.63629	0.016
Mof_C 	C 	0.75123	0.30312	0.63006	-0.061
Mof_C 	C 	0.75381	0.14504	0.63668	0.412
Mof_C 	C 	0.75365	0.18313	0.64158	-0.129
Mof_C 	C 	0.75623	0.25701	0.65342	0.028
Mof_C 	C 	0.75665	0.29616	0.66008	0.016
Mof_C 	C 	0.76066	0.32685	0.69678	-0.061
Mof_C 	C 	0.25328	0.508	0.14516	0.413
Mof_C 	C 	0.25526	0.54117	0.18322	-0.13
Mof_C 	C 	0.25519	0.60332	0.25699	0.028
Mof_C 	C 	0.25429	0.63584	0.29607	0.015
Mof_C 	C 	0.2455	0.63003	0.32679	-0.06
Mof_C 	C 	0.24283	0.63644	0.49162	0.413
Mof_C 	C 	0.24041	0.64094	0.45822	-0.13
Mof_C 	C 	0.24208	0.65256	0.39605	0.028
Mof_C 	C 	0.24661	0.65983	0.36401	0.015
Mof_C 	C 	0.25299	0.69657	0.37055	-0.058
Mof_C 	C 	0.25671	0.85442	0.3616	0.413
Mof_C 	C 	0.25669	0.8163	0.35658	-0.13
Mof_C 	C 	0.25878	0.74256	0.34504	0.03
Mof_C 	C 	0.25877	0.70363	0.33878	0.012
Mof_C 	C 	0.26194	0.67252	0.3025	-0.059
Mof_C 	C 	0.25156	0.61909	0.85991	-0.061
Mof_C 	C 	0.25068	0.62506	0.79461	0.016
Mof_C 	C 	0.24946	0.62646	0.75875	0.026
Mof_C 	C 	0.24741	0.62776	0.69018	-0.122
Mof_C 	C 	0.24678	0.62777	0.65402	0.399
Mof_C 	C 	0.24456	0.24094	0.38141	-0.061
Mof_C 	C 	0.24586	0.16947	0.37493	0.017
Mof_C 	C 	0.24629	0.13209	0.37324	0.026
Mof_C 	C 	0.24858	0.06232	0.37206	-0.122
Mof_C 	C 	0.25029	0.02619	0.37208	0.399
Mof_C 	C 	0.2495	0.14053	0.7593	-0.061
Mof_C 	C 	0.25064	0.20571	0.83063	0.017
Mof_C 	C 	0.25065	0.24156	0.86788	0.026
Mof_C 	C 	0.25114	0.31019	0.93761	-0.123
Mof_C 	C 	0.25154	0.3463	0.97379	0.4
Mof_C 	C 	0.75236	0.38093	0.14056	-0.061
Mof_C 	C 	0.75106	0.3748	0.20578	0.017
Mof_C 	C 	0.7505	0.37336	0.24163	0.026
Mof_C 	C 	0.74802	0.37273	0.31052	-0.122
Mof_C 	C 	0.74675	0.37282	0.34672	0.399
Mof_C 	C 	0.74478	0.75943	0.61936	-0.061
Mof_C 	C 	0.74536	0.83073	0.62542	0.016
Mof_C 	C 	0.74532	0.86807	0.62697	0.026
Mof_C 	C 	0.74649	0.93783	0.62809	-0.122
Mof_C 	C 	0.74781	0.97391	0.62791	0.4
Mof_C 	C 	0.7523	0.86028	0.2399	-0.061
Mof_C 	C 	0.75237	0.79481	0.16878	0.016
Mof_C 	C 	0.75176	0.75882	0.13163	0.026
Mof_C 	C 	0.75114	0.68995	0.06209	-0.122
Mof_C 	C 	0.75126	0.65366	0.02606	0.4
Mof_O 	O 	0.83773	0.59129	0.89011	-0.519
Mof_O 	O 	0.8328	0.51257	0.95347	-0.523
Mof_O 	O 	0.90252	0.60685	0.94195	-0.524
Mof_O 	O 	0.89315	0.56696	0.98213	-0.52
Mof_O 	O 	0.30985	0.62834	0.63892	-0.523
Mof_O 	O 	0.83075	0.29912	0.4098	-0.517
Mof_O 	O 	0.82742	0.44078	0.48813	-0.524
Mof_O 	O 	0.8955	0.33481	0.39336	-0.523
Mof_O 	O 	0.88823	0.41487	0.43393	-0.522
Mof_O 	O 	0.31428	0.01094	0.37094	-0.522
Mof_O 	O 	0.83564	0.11037	0.70154	-0.518
Mof_O 	O 	0.83498	0.04581	0.55973	-0.525
Mof_O 	O 	0.90008	0.05808	0.66622	-0.524
Mof_O 	O 	0.89259	0.01693	0.58609	-0.522
Mof_O 	O 	0.31498	0.36114	0.98919	-0.523
Mof_O 	O 	0.33793	0.40893	0.11018	-0.52
Mof_O 	O 	0.33285	0.48731	0.04686	-0.523
Mof_O 	O 	0.40289	0.39322	0.05835	-0.524
Mof_O 	O 	0.3931	0.43289	0.01803	-0.52
Mof_O 	O 	0.80964	0.37372	0.36266	-0.524
Mof_O 	O 	0.33077	0.7013	0.59029	-0.517
Mof_O 	O 	0.32777	0.55974	0.51291	-0.525
Mof_O 	O 	0.39571	0.66576	0.60681	-0.525
Mof_O 	O 	0.38829	0.5857	0.56723	-0.519
Mof_O 	O 	0.81164	0.98925	0.62905	-0.522
Mof_O 	O 	0.33861	0.88994	0.29756	-0.518
Mof_O 	O 	0.33829	0.95295	0.43877	-0.526
Mof_O 	O 	0.40307	0.94211	0.33331	-0.525
Mof_O 	O 	0.39603	0.98265	0.41349	-0.518
Mof_O 	O 	0.81466	0.63861	0.01083	-0.523
Mof_O 	O 	0.16606	0.40892	0.11026	-0.517
Mof_O 	O 	0.17	0.48763	0.04728	-0.524
Mof_O 	O 	0.10146	0.39259	0.05812	-0.523
Mof_O 	O 	0.10926	0.43341	0.01877	-0.522
Mof_O 	O 	0.68303	0.37241	0.36146	-0.522
Mof_O 	O 	0.15878	0.70094	0.59108	-0.52
Mof_O 	O 	0.16508	0.55917	0.5128	-0.523
Mof_O 	O 	0.09458	0.66499	0.60733	-0.522
Mof_O 	O 	0.1044	0.58493	0.56707	-0.522
Mof_O 	O 	0.68519	0.98869	0.62614	-0.522
Mof_O 	O 	0.16667	0.88994	0.29838	-0.519
Mof_O 	O 	0.1764	0.95145	0.43986	-0.524
Mof_O 	O 	0.10139	0.94149	0.33522	-0.521
Mof_O 	O 	0.11262	0.98042	0.41535	-0.518
Mof_O 	O 	0.68802	0.63796	0.0112	-0.523
Mof_O 	O 	0.66576	0.58976	0.88915	-0.518
Mof_O 	O 	0.67	0.51215	0.95289	-0.524
Mof_O 	O 	0.6011	0.60642	0.94135	-0.522
Mof_O 	O 	0.60946	0.56644	0.98145	-0.521
Mof_O 	O 	0.18325	0.62671	0.63844	-0.522
Mof_O 	O 	0.65887	0.29938	0.40958	-0.52
Mof_O 	O 	0.66469	0.44098	0.48778	-0.523
Mof_O 	O 	0.59437	0.33543	0.39361	-0.524
Mof_O 	O 	0.6045	0.41548	0.43333	-0.52
Mof_O 	O 	0.18775	0.01125	0.37368	-0.522
Mof_O 	O 	0.66374	0.11028	0.70055	-0.52
Mof_O 	O 	0.67267	0.04766	0.55896	-0.521
Mof_O 	O 	0.59877	0.05849	0.66415	-0.522
Mof_O 	O 	0.61009	0.01911	0.58417	-0.522
Mof_O 	O 	0.18835	0.36208	0.9886	-0.524
Mof_O 	O 	0.75178	0.57064	0.9417	-1.02
Mof_O 	O 	0.75515	0.52364	0.8581	-0.533
Mof_O 	O 	0.75237	0.48762	0.88368	-0.524
Mof_O 	O 	0.74547	0.37118	0.42963	-1.02
Mof_O 	O 	0.74287	0.33451	0.47667	-0.532
Mof_O 	O 	0.74532	0.39612	0.51263	-0.524
Mof_O 	O 	0.75105	0.05828	0.62917	-1.02
Mof_O 	O 	0.75066	0.14185	0.66566	-0.533
Mof_O 	O 	0.75659	0.11636	0.60413	-0.522
Mof_O 	O 	0.25171	0.42904	0.05834	-1.02
Mof_O 	O 	0.25342	0.4758	0.14194	-0.534
Mof_O 	O 	0.25178	0.51196	0.11652	-0.524
Mof_O 	O 	0.24553	0.62924	0.57102	-1.02
Mof_O 	O 	0.24209	0.66559	0.52371	-0.533
Mof_O 	O 	0.24552	0.60398	0.48794	-0.524
Mof_O 	O 	0.25392	0.94152	0.36998	-1.02
Mof_O 	O 	0.25357	0.85782	0.33274	-0.533
Mof_O 	O 	0.25947	0.88296	0.39421	-0.524
Mof_H 	H 	0.02878	0.64097	0.9464	0.034
Mof_H 	H 	0.14683	0.64856	0.91944	0.046
Mof_H 	H 	0.04468	0.59027	0.80945	0.046
Mof_H 	H 	0.9259	0.58426	0.83674	0.033
Mof_H 	H 	0.12831	0.62938	0.80196	0.045
Mof_H 	H 	0.35772	0.65554	0.76777	0.047
Mof_H 	H 	0.89326	0.46125	0.96173	0.044
Mof_H 	H 	0.01338	0.56675	0.01737	0.043
Mof_H 	H 	0.70054	0.42091	0.83189	0.031
Mof_H 	H 	0.69811	0.3676	0.76814	0.047
Mof_H 	H 	0.35692	0.65534	0.70855	0.032
Mof_H 	H 	0.02126	0.30425	0.35873	0.035
Mof_H 	H 	0.13868	0.26972	0.35151	0.046
Mof_H 	H 	0.03987	0.21864	0.41114	0.045
Mof_H 	H 	0.91898	0.25062	0.41664	0.036
Mof_H 	H 	0.12323	0.17205	0.37132	0.046
Mof_H 	H 	0.35383	0.11274	0.34325	0.047
Mof_H 	H 	0.88877	0.50006	0.53964	0.044
Mof_H 	H 	0.00886	0.44988	0.43411	0.043
Mof_H 	H 	0.67668	0.29737	0.56797	0.048
Mof_H 	H 	0.6778	0.3069	0.51436	0.031
Mof_H 	H 	0.35677	0.05383	0.34356	0.032
Mof_H 	H 	0.02607	0.05422	0.69668	0.035
Mof_H 	H 	0.14372	0.08169	0.73093	0.046
Mof_H 	H 	0.04481	0.19235	0.78159	0.045
Mof_H 	H 	0.92377	0.16574	0.74988	0.036
Mof_H 	H 	0.12811	0.19912	0.82822	0.045
Mof_H 	H 	0.35882	0.23176	0.88741	0.047
Mof_H 	H 	0.69261	0.2709	0.70394	0.047
Mof_H 	H 	0.69304	0.20786	0.69439	0.031
Mof_H 	H 	0.36018	0.29105	0.94634	0.031
Mof_H 	H 	0.52854	0.35834	0.05442	0.034
Mof_H 	H 	0.64665	0.35148	0.08184	0.046
Mof_H 	H 	0.54653	0.4141	0.19203	0.047
Mof_H 	H 	0.4276	0.41919	0.16431	0.033
Mof_H 	H 	0.62843	0.37715	0.20213	0.045
Mof_H 	H 	0.85836	0.40259	0.26257	0.046
Mof_H 	H 	0.3935	0.5387	0.03867	0.044
Mof_H 	H 	0.5133	0.43312	0.98284	0.043
Mof_H 	H 	0.1991	0.5785	0.16818	0.031
Mof_H 	H 	0.19683	0.63186	0.23188	0.047
Mof_H 	H 	0.85729	0.40067	0.32058	0.032
Mof_H 	H 	0.52066	0.69581	0.64125	0.034
Mof_H 	H 	0.63882	0.73025	0.64905	0.046
Mof_H 	H 	0.53913	0.7808	0.58914	0.046
Mof_H 	H 	0.42	0.74746	0.58279	0.034
Mof_H 	H 	0.62269	0.82776	0.6287	0.045
Mof_H 	H 	0.85268	0.88779	0.65705	0.047
Mof_H 	H 	0.38876	0.50063	0.4614	0.044
Mof_H 	H 	0.50911	0.55032	0.56683	0.043
Mof_H 	H 	0.17763	0.70284	0.43248	0.048
Mof_H 	H 	0.17875	0.69345	0.48617	0.031
Mof_H 	H 	0.85469	0.94668	0.65667	0.032
Mof_H 	H 	0.52885	0.94649	0.30349	0.034
Mof_H 	H 	0.6471	0.9196	0.26916	0.047
Mof_H 	H 	0.54598	0.80942	0.21811	0.046
Mof_H 	H 	0.42695	0.83662	0.25122	0.034
Mof_H 	H 	0.62992	0.80182	0.17146	0.045
Mof_H 	H 	0.86015	0.768	0.1118	0.047
Mof_H 	H 	0.39747	0.96146	0.49813	0.044
Mof_H 	H 	0.51721	0.01815	0.44925	0.043
Mof_H 	H 	0.19829	0.72827	0.2936	0.047
Mof_H 	H 	0.19917	0.79121	0.30295	0.031
Mof_H 	H 	0.86057	0.70853	0.05308	0.032
Mof_H 	H 	0.97501	0.35823	0.05426	0.035
Mof_H 	H 	0.85779	0.35106	0.08175	0.046
Mof_H 	H 	0.95763	0.41025	0.19226	0.045
Mof_H 	H 	0.07831	0.41562	0.16556	0.036
Mof_H 	H 	0.8737	0.37099	0.19946	0.045
Mof_H 	H 	0.64229	0.34396	0.23145	0.047
Mof_H 	H 	0.10881	0.53927	0.03961	0.043
Mof_H 	H 	0.98866	0.43378	0.98395	0.043
Mof_H 	H 	0.31424	0.56579	0.27117	0.047
Mof_H 	H 	0.31186	0.51214	0.20806	0.031
Mof_H 	H 	0.63925	0.34477	0.29094	0.031
Mof_H 	H 	0.96821	0.69568	0.64185	0.034
Mof_H 	H 	0.85022	0.73009	0.64882	0.046
Mof_H 	H 	0.95103	0.77837	0.58701	0.047
Mof_H 	H 	0.06979	0.74543	0.5818	0.034
Mof_H 	H 	0.86812	0.82519	0.62357	0.045
Mof_H 	H 	0.63807	0.85929	0.59714	0.046
Mof_H 	H 	0.10441	0.49953	0.46145	0.044
Mof_H 	H 	0.98431	0.54971	0.56697	0.043
Mof_H 	H 	0.30133	0.58975	0.42188	0.031
Mof_H 	H 	0.30505	0.60015	0.36858	0.047
Mof_H 	H 	0.63808	0.91941	0.59941	0.032
Mof_H 	H 	0.97608	0.9458	0.30397	0.035
Mof_H 	H 	0.85827	0.91861	0.26933	0.047
Mof_H 	H 	0.95797	0.8083	0.22131	0.047
Mof_H 	H 	0.07673	0.83583	0.25444	0.033
Mof_H 	H 	0.87513	0.79789	0.17448	0.045
Mof_H 	H 	0.64333	0.7388	0.14061	0.046
Mof_H 	H 	0.1126	0.95826	0.50331	0.051
Mof_H 	H 	0.31404	0.83156	0.40876	0.031
Mof_H 	H 	0.31782	0.76789	0.3985	0.048
Mof_H 	H 	0.64183	0.68082	0.08067	0.032
Mof_H 	H 	0.47598	0.64131	0.94518	0.034
Mof_H 	H 	0.35799	0.64859	0.91805	0.046
Mof_H 	H 	0.45677	0.58566	0.80761	0.047
Mof_H 	H 	0.57579	0.58004	0.83507	0.034
Mof_H 	H 	0.37354	0.62242	0.79737	0.045
Mof_H 	H 	0.14099	0.59746	0.73892	0.046
Mof_H 	H 	0.60876	0.46058	0.96061	0.044
Mof_H 	H 	0.48896	0.56615	0.01644	0.043
Mof_H 	H 	0.81666	0.4336	0.7291	0.047
Mof_H 	H 	0.81451	0.48716	0.79222	0.031
Mof_H 	H 	0.13828	0.59995	0.68123	0.032
Mof_H 	H 	0.46821	0.30481	0.35909	0.034
Mof_H 	H 	0.35011	0.27048	0.35214	0.046
Mof_H 	H 	0.45059	0.22233	0.41415	0.047
Mof_H 	H 	0.56947	0.2552	0.41934	0.034
Mof_H 	H 	0.36851	0.17535	0.37711	0.045
Mof_H 	H 	0.13901	0.14051	0.40295	0.046
Mof_H 	H 	0.60453	0.5006	0.5392	0.044
Mof_H 	H 	0.48413	0.45094	0.43378	0.043
Mof_H 	H 	0.80394	0.40954	0.57816	0.03
Mof_H 	H 	0.80793	0.39891	0.6313	0.047
Mof_H 	H 	0.13995	0.08036	0.40062	0.033
Mof_H 	H 	0.47291	0.05452	0.69505	0.034
Mof_H 	H 	0.35508	0.08188	0.72962	0.046
Mof_H 	H 	0.45549	0.19205	0.77766	0.047
Mof_H 	H 	0.57418	0.16436	0.74456	0.033
Mof_H 	H 	0.3733	0.20226	0.82467	0.045
Mof_H 	H 	0.14267	0.26214	0.8592	0.046
Mof_H 	H 	0.6119	0.04061	0.49948	0.045
Mof_H 	H 	0.49171	0.98384	0.54814	0.043
Mof_H 	H 	0.81415	0.16822	0.59025	0.032
Mof_H 	H 	0.81839	0.23205	0.6008	0.048
Mof_H 	H 	0.14207	0.31991	0.9193	0.032
Mof_H 	H 	0.73929	0.39812	0.67855	0.046
Mof_H 	H 	0.74991	0.27976	0.60175	0.045
Mof_H 	H 	0.76946	0.32191	0.71991	0.046
Mof_H 	H 	0.23634	0.60191	0.32162	0.045
Mof_H 	H 	0.25394	0.71993	0.39885	0.044
Mof_H 	H 	0.27131	0.67684	0.27901	0.045
Mof_H 	H 	0.25174	0.61495	0.88381	0.046
Mof_H 	H 	0.24401	0.26904	0.38569	0.046
Mof_H 	H 	0.2489	0.11665	0.73123	0.046
Mof_H 	H 	0.75286	0.38509	0.11667	0.046
Mof_H 	H 	0.74446	0.73139	0.61523	0.046
Mof_H 	H 	0.75206	0.88424	0.26791	0.046
_end
