data_functionalizedCrystal
_audit_creation_method	'EQeq! by Chris Wilmer'
_symmetry_space_group_name_H-M	'P1'
_symmetry_Int_Tables_number	1
_symmetry_cell_setting	triclinic
loop_
_symmetry_equiv_pos_as_xyz
  x,y,z
_cell_length_a	12.126
_cell_length_b	12.6787
_cell_length_c	21.568
_cell_angle_alpha	82.7587
_cell_angle_beta	74.717
_cell_angle_gamma	61.4318
loop_
_atom_site_label
_atom_site_type_symbol
_atom_site_fract_x
_atom_site_fract_y
_atom_site_fract_z
_atom_site_charge
Mof_Ho	Ho	0.76999	0.73928	0.47432	1.869
Mof_Ho	Ho	0.49073	0.73928	0.02568	1.866
Mof_Ho	Ho	0.23001	0.26072	0.52568	1.869
Mof_Ho	Ho	0.50927	0.26072	0.97432	1.866
Mof_Ho	Ho	0.78511	0.42978	0.25	1.524
Mof_Ho	Ho	0.21489	0.57022	0.75	1.524
Mof_Ho	Ho	0.24689	0.50622	0.25	1.981
Mof_Ho	Ho	0.75311	0.49378	0.75	1.981
Mof_H 	H 	0.0291	0.8694	0.4148	0.045
Mof_H 	H 	0.42	0.701	0.3806	0.054
Mof_H 	H 	0.0637	0.0422	0.4056	0.055
Mof_H 	H 	0.3681	0.8072	0.4798	0.064
Mof_H 	H 	0.5927	0.8788	0.3367	0.056
Mof_H 	H 	0.4203	0.0598	0.3467	0.062
Mof_H 	H 	0.1015	0.8694	0.0852	0.044
Mof_H 	H 	0.879	0.701	0.1194	0.054
Mof_H 	H 	0.8941	0.0422	0.0944	0.055
Mof_H 	H 	0.8247	0.8072	0.0202	0.063
Mof_H 	H 	0.5285	0.8788	0.1633	0.055
Mof_H 	H 	0.5199	0.0598	0.1533	0.062
Mof_H 	H 	0.9709	0.1306	0.5852	0.045
Mof_H 	H 	0.58	0.299	0.6194	0.054
Mof_H 	H 	0.9363	0.9578	0.5944	0.055
Mof_H 	H 	0.6319	0.1928	0.5202	0.064
Mof_H 	H 	0.4073	0.1212	0.6633	0.056
Mof_H 	H 	0.5797	0.9402	0.6533	0.062
Mof_H 	H 	0.8985	0.1306	0.9148	0.044
Mof_H 	H 	0.121	0.299	0.8806	0.054
Mof_H 	H 	0.1059	0.9578	0.9056	0.055
Mof_H 	H 	0.1753	0.1928	0.9798	0.063
Mof_H 	H 	0.4715	0.1212	0.8367	0.055
Mof_H 	H 	0.4801	0.9402	0.8467	0.062
Mof_C 	C 	0.7195	0.635	0.3521	0.426
Mof_C 	C 	0.2788	0.3044	0.3613	0.421
Mof_C 	C 	0.0053	0.7164	0.348	0.391
Mof_C 	C 	0.122	0.7208	0.3597	-0.043
Mof_C 	C 	0.1118	0.8086	0.3949	-0.036
Mof_C 	C 	0.2227	0.809	0.4015	0.001
Mof_C 	C 	0.3413	0.7094	0.3746	-0.038
Mof_C 	C 	0.3434	0.6252	0.34	-0.032
Mof_C 	C 	0.4623	0.5174	0.3041	0.399
Mof_C 	C 	0.0302	0.2456	0.456	0.35
Mof_C 	C 	0.1266	0.1128	0.4587	-0.012
Mof_C 	C 	0.1263	0.0234	0.4298	-0.066
Mof_C 	C 	0.2166	0.9048	0.4357	0.035
Mof_C 	C 	0.3048	0.8864	0.4729	-0.086
Mof_C 	C 	0.2994	0.9812	0.4986	0.049
Mof_C 	C 	0.3717	0.0024	0.5397	0.247
Mof_C 	C 	0.6584	0.7152	0.2997	-0.037
Mof_C 	C 	0.5991	0.8378	0.3009	-0.037
Mof_C 	C 	0.3575	0.223	0.3042	-0.039
Mof_C 	C 	0.4198	0.1004	0.3066	-0.043
Mof_C 	C 	0.6455	0.635	0.1479	0.426
Mof_C 	C 	0.4168	0.3044	0.1387	0.421
Mof_C 	C 	0.2783	0.7164	0.152	0.392
Mof_C 	C 	0.1572	0.7208	0.1403	-0.043
Mof_C 	C 	0.0796	0.8086	0.1051	-0.037
Mof_C 	C 	0.9683	0.809	0.0985	0.003
Mof_C 	C 	0.9493	0.7094	0.1254	-0.038
Mof_C 	C 	0.0314	0.6252	0.16	-0.032
Mof_C 	C 	0.0203	0.5174	0.1959	0.399
Mof_C 	C 	0.7242	0.2456	0.044	0.35
Mof_C 	C 	0.7606	0.1128	0.0413	-0.013
Mof_C 	C 	0.8503	0.0234	0.0702	-0.063
Mof_C 	C 	0.8786	0.9048	0.0643	0.032
Mof_C 	C 	0.8088	0.8864	0.0271	-0.084
Mof_C 	C 	0.7194	0.9812	0.0014	0.046
Mof_C 	C 	0.6259	0.0024	0.9603	0.244
Mof_C 	C 	0.6264	0.7152	0.2003	-0.037
Mof_C 	C 	0.5631	0.8378	0.1991	-0.037
Mof_C 	C 	0.4195	0.223	0.1958	-0.039
Mof_C 	C 	0.4798	0.1004	0.1934	-0.043
Mof_C 	C 	0.2805	0.365	0.6479	0.426
Mof_C 	C 	0.7212	0.6956	0.6387	0.421
Mof_C 	C 	0.9947	0.2836	0.652	0.391
Mof_C 	C 	0.878	0.2792	0.6403	-0.043
Mof_C 	C 	0.8882	0.1914	0.6051	-0.036
Mof_C 	C 	0.7773	0.191	0.5985	0.001
Mof_C 	C 	0.6587	0.2906	0.6254	-0.038
Mof_C 	C 	0.6566	0.3748	0.66	-0.032
Mof_C 	C 	0.5377	0.4826	0.6959	0.399
Mof_C 	C 	0.9698	0.7544	0.544	0.35
Mof_C 	C 	0.8734	0.8872	0.5413	-0.012
Mof_C 	C 	0.8737	0.9766	0.5702	-0.066
Mof_C 	C 	0.7834	0.0952	0.5643	0.035
Mof_C 	C 	0.6952	0.1136	0.5271	-0.086
Mof_C 	C 	0.7006	0.0188	0.5014	0.049
Mof_C 	C 	0.6283	0.9976	0.4603	0.247
Mof_C 	C 	0.3416	0.2848	0.7003	-0.037
Mof_C 	C 	0.4009	0.1622	0.6991	-0.037
Mof_C 	C 	0.6425	0.777	0.6958	-0.039
Mof_C 	C 	0.5802	0.8996	0.6934	-0.043
Mof_C 	C 	0.3545	0.365	0.8521	0.426
Mof_C 	C 	0.5832	0.6956	0.8613	0.421
Mof_C 	C 	0.7217	0.2836	0.848	0.392
Mof_C 	C 	0.8428	0.2792	0.8597	-0.043
Mof_C 	C 	0.9204	0.1914	0.8949	-0.037
Mof_C 	C 	0.0317	0.191	0.9015	0.003
Mof_C 	C 	0.0507	0.2906	0.8746	-0.038
Mof_C 	C 	0.9686	0.3748	0.84	-0.032
Mof_C 	C 	0.9797	0.4826	0.8041	0.399
Mof_C 	C 	0.2758	0.7544	0.956	0.35
Mof_C 	C 	0.2394	0.8872	0.9587	-0.013
Mof_C 	C 	0.1497	0.9766	0.9298	-0.063
Mof_C 	C 	0.1214	0.0952	0.9357	0.032
Mof_C 	C 	0.1912	0.1136	0.9729	-0.084
Mof_C 	C 	0.2806	0.0188	0.9986	0.046
Mof_C 	C 	0.3741	0.9976	0.0397	0.244
Mof_C 	C 	0.3736	0.2848	0.7997	-0.037
Mof_C 	C 	0.4369	0.1622	0.8009	-0.037
Mof_C 	C 	0.5805	0.777	0.8042	-0.039
Mof_C 	C 	0.5202	0.8996	0.8066	-0.043
Mof_C 	C 	0.5491	0.9018	0.25	0.01
Mof_C 	C 	0.4815	0.037	0.25	0.018
Mof_C 	C 	0.4509	0.0982	0.75	0.01
Mof_C 	C 	0.5185	0.963	0.75	0.018
Mof_N 	N 	0.2346	0.6324	0.3306	-0.2
Mof_N 	N 	0.2115	0.0886	0.4938	-0.203
Mof_N 	N 	0.133	0.6324	0.1694	-0.2
Mof_N 	N 	0.6999	0.0886	0.0062	-0.201
Mof_N 	N 	0.7654	0.3676	0.6694	-0.2
Mof_N 	N 	0.7885	0.9114	0.5062	-0.203
Mof_N 	N 	0.867	0.3676	0.8306	-0.2
Mof_N 	N 	0.3001	0.9114	0.9938	-0.201
Mof_N 	N 	0.6728	0.6544	0.25	-0.159
Mof_N 	N 	0.3575	0.285	0.25	-0.198
Mof_N 	N 	0.3272	0.3456	0.75	-0.159
Mof_N 	N 	0.6425	0.715	0.75	-0.198
Mof_O 	O 	0.0313	0.6488	0.3021	-0.454
Mof_O 	O 	0.8958	0.7772	0.382	-0.483
Mof_O 	O 	0.4481	0.4518	0.2743	-0.489
Mof_O 	O 	0.5694	0.5092	0.3099	-0.445
Mof_O 	O 	0.0418	0.3144	0.4888	-0.459
Mof_O 	O 	0.9531	0.2778	0.4226	-0.294
Mof_O 	O 	0.4033	0.0894	0.5315	-0.436
Mof_O 	O 	0.3858	0.9124	0.5804	-0.237
Mof_O 	O 	0.7797	0.5266	0.3423	-0.448
Mof_O 	O 	0.6911	0.691	0.4038	-0.51
Mof_O 	O 	0.2181	0.414	0.3524	-0.492
Mof_O 	O 	0.2872	0.2496	0.4144	-0.492
Mof_O 	O 	0.3199	0.6488	0.1979	-0.454
Mof_O 	O 	0.327	0.7772	0.118	-0.483
Mof_O 	O 	0.1001	0.4518	0.2257	-0.489
Mof_O 	O 	0.9214	0.5092	0.1901	-0.445
Mof_O 	O 	0.6438	0.3144	0.0112	-0.458
Mof_O 	O 	0.7691	0.2778	0.0774	-0.294
Mof_O 	O 	0.5073	0.0894	0.9685	-0.436
Mof_O 	O 	0.7018	0.9124	0.9196	-0.234
Mof_O 	O 	0.6937	0.5266	0.1577	-0.448
Mof_O 	O 	0.6179	0.691	0.0962	-0.51
Mof_O 	O 	0.3679	0.414	0.1476	-0.492
Mof_O 	O 	0.4632	0.2496	0.0856	-0.491
Mof_O 	O 	0.9687	0.3512	0.6979	-0.454
Mof_O 	O 	0.1042	0.2228	0.618	-0.483
Mof_O 	O 	0.5519	0.5482	0.7257	-0.489
Mof_O 	O 	0.4306	0.4908	0.6901	-0.445
Mof_O 	O 	0.9582	0.6856	0.5112	-0.459
Mof_O 	O 	0.0469	0.7222	0.5774	-0.294
Mof_O 	O 	0.5967	0.9106	0.4685	-0.436
Mof_O 	O 	0.6142	0.0876	0.4196	-0.237
Mof_O 	O 	0.2203	0.4734	0.6577	-0.448
Mof_O 	O 	0.3089	0.309	0.5962	-0.51
Mof_O 	O 	0.7819	0.586	0.6476	-0.492
Mof_O 	O 	0.7128	0.7504	0.5856	-0.492
Mof_O 	O 	0.6801	0.3512	0.8021	-0.454
Mof_O 	O 	0.673	0.2228	0.882	-0.483
Mof_O 	O 	0.8999	0.5482	0.7743	-0.489
Mof_O 	O 	0.0786	0.4908	0.8099	-0.445
Mof_O 	O 	0.3562	0.6856	0.9888	-0.458
Mof_O 	O 	0.2309	0.7222	0.9226	-0.294
Mof_O 	O 	0.4927	0.9106	0.0315	-0.436
Mof_O 	O 	0.2982	0.0876	0.0804	-0.234
Mof_O 	O 	0.3063	0.4734	0.8423	-0.448
Mof_O 	O 	0.3821	0.309	0.9038	-0.51
Mof_O 	O 	0.6321	0.586	0.8524	-0.492
Mof_O 	O 	0.5368	0.7504	0.9144	-0.491
_end
