data_functionalizedCrystal
_audit_creation_method	'EQeq! by Chris Wilmer'
_symmetry_space_group_name_H-M	'P1'
_symmetry_Int_Tables_number	1
_symmetry_cell_setting	triclinic
loop_
_symmetry_equiv_pos_as_xyz
  x,y,z
_cell_length_a	9.59
_cell_length_b	22.621
_cell_length_c	10.129
_cell_angle_alpha	90
_cell_angle_beta	101.61
_cell_angle_gamma	90
loop_
_atom_site_label
_atom_site_type_symbol
_atom_site_fract_x
_atom_site_fract_y
_atom_site_fract_z
_atom_site_charge
Mof_Sm	Sm	0.24947	0.27703	0.04694	2.068
Mof_Sm	Sm	0.72018	0.43443	0.85643	2.313
Mof_N 	N 	0.5989	0.41469	0.6207	-0.264
Mof_N 	N 	0.5339	0.41381	0.4008	-0.202
Mof_H 	H 	0.52324	0.42261	0.31665	0.15
Mof_N 	N 	0.7742	0.50658	0.6422	-0.22
Mof_O 	O 	0.065	0.33834	0.1094	-0.464
Mof_O 	O 	0.0333	0.28809	0.8657	-0.459
Mof_O 	O 	0.8335	0.34115	0.7955	-0.441
Mof_O 	O 	0.8505	0.38014	0.0494	-0.446
Mof_O 	O 	0.5236	0.35958	0.817	-0.511
Mof_O 	O 	0.378	0.29633	0.6896	-0.574
Mof_O 	O 	0.2789	0.29513	0.3888	-0.589
Mof_O 	O 	0.3682	0.33901	0.2274	-0.528
Mof_O 	O 	0.5986	0.4363	0.0496	-0.438
Mof_O 	O 	0.4682	0.49065	0.1637	-0.467
Mof_O 	O 	0.9786	0.44933	0.8682	-0.469
Mof_O 	O 	0.1774	0.48099	0.004	-0.466
Mof_C 	C 	0.4573	0.36966	0.4468	-0.042
Mof_C 	C 	0.4996	0.37089	0.5862	-0.073
Mof_C 	C 	0.6187	0.43971	0.508	0.115
Mof_C 	C 	0.7213	0.48841	0.5143	0.035
Mof_C 	C 	0.7616	0.51294	0.4011	-0.103
Mof_H 	H 	0.72438	0.49833	0.31318	0.074
Mof_C 	C 	0.8586	0.5597	0.4219	0.029
Mof_H 	H 	0.8889	0.5778	0.34778	0.011
Mof_C 	C 	0.9098	0.57925	0.5516	-0.126
Mof_H 	H 	0.97429	0.61156	0.5676	0.063
Mof_C 	C 	0.8667	0.55152	0.6577	0.093
Mof_H 	H 	0.90464	0.56503	0.74644	-0.001
Mof_C 	C 	0.3606	0.33164	0.3484	0.439
Mof_C 	C 	0.4625	0.33891	0.7031	0.426
Mof_C 	C 	0.5198	0.4787	0.061	0.267
Mof_C 	C 	0.0446	0.47983	0.9623	0.279
Mof_C 	C 	0.9523	0.34923	0.0276	0.27
Mof_C 	C 	0.9376	0.32376	0.8826	0.245
Mof_Sm	Sm	0.75053	0.77703	0.45306	2.077
Mof_Sm	Sm	0.27982	0.93443	0.64357	2.309
Mof_N 	N 	0.4011	0.91469	0.8793	-0.262
Mof_N 	N 	0.4661	0.91381	0.0992	-0.2
Mof_H 	H 	0.47676	0.92261	0.18335	0.152
Mof_N 	N 	0.2258	0.00658	0.8578	-0.215
Mof_O 	O 	0.935	0.83834	0.3906	-0.459
Mof_O 	O 	0.9667	0.78809	0.6343	-0.466
Mof_O 	O 	0.1665	0.84115	0.7045	-0.442
Mof_O 	O 	0.1495	0.88014	0.4506	-0.445
Mof_O 	O 	0.4764	0.85958	0.683	-0.512
Mof_O 	O 	0.622	0.79633	0.8104	-0.575
Mof_O 	O 	0.7211	0.79513	0.1112	-0.586
Mof_O 	O 	0.6318	0.83901	0.2726	-0.528
Mof_O 	O 	0.4014	0.9363	0.4504	-0.439
Mof_O 	O 	0.5318	0.99065	0.3363	-0.466
Mof_O 	O 	0.0214	0.94933	0.6318	-0.467
Mof_O 	O 	0.8226	0.98099	0.496	-0.462
Mof_C 	C 	0.5427	0.86966	0.0532	-0.037
Mof_C 	C 	0.5004	0.87089	0.9138	-0.078
Mof_C 	C 	0.3813	0.93971	0.992	0.114
Mof_C 	C 	0.2787	0.98841	0.9857	0.031
Mof_C 	C 	0.2384	0.01294	0.0989	-0.099
Mof_H 	H 	0.27562	0.99833	0.18682	0.073
Mof_C 	C 	0.1414	0.0597	0.0781	0.015
Mof_H 	H 	0.1111	0.0778	0.15222	0.014
Mof_C 	C 	0.0902	0.07925	0.9484	-0.11
Mof_H 	H 	0.02571	0.11156	0.9324	0.06
Mof_C 	C 	0.1333	0.05152	0.8423	0.087
Mof_H 	H 	0.09536	0.06503	0.75356	0.002
Mof_C 	C 	0.6394	0.83164	0.1516	0.438
Mof_C 	C 	0.5375	0.83891	0.7969	0.427
Mof_C 	C 	0.4802	0.9787	0.439	0.266
Mof_C 	C 	0.9554	0.97983	0.5377	0.273
Mof_C 	C 	0.0477	0.84923	0.4724	0.261
Mof_C 	C 	0.0624	0.82376	0.6174	0.252
Mof_Sm	Sm	0.75053	0.72297	0.95306	2.069
Mof_Sm	Sm	0.27982	0.56557	0.14357	2.314
Mof_N 	N 	0.4011	0.58531	0.3793	-0.263
Mof_N 	N 	0.4661	0.58619	0.5992	-0.201
Mof_H 	H 	0.47676	0.57739	0.68335	0.151
Mof_N 	N 	0.2258	0.49342	0.3578	-0.219
Mof_O 	O 	0.935	0.66166	0.8906	-0.464
Mof_O 	O 	0.9667	0.71191	0.1343	-0.459
Mof_O 	O 	0.1665	0.65885	0.2045	-0.441
Mof_O 	O 	0.1495	0.61986	0.9506	-0.446
Mof_O 	O 	0.4764	0.64042	0.183	-0.511
Mof_O 	O 	0.622	0.70367	0.3104	-0.574
Mof_O 	O 	0.7211	0.70487	0.6112	-0.589
Mof_O 	O 	0.6318	0.66099	0.7726	-0.528
Mof_O 	O 	0.4014	0.5637	0.9504	-0.438
Mof_O 	O 	0.5318	0.50935	0.8363	-0.467
Mof_O 	O 	0.0214	0.55067	0.1318	-0.469
Mof_O 	O 	0.8226	0.51901	0.996	-0.466
Mof_C 	C 	0.5427	0.63034	0.5532	-0.042
Mof_C 	C 	0.5004	0.62911	0.4138	-0.073
Mof_C 	C 	0.3813	0.56029	0.492	0.115
Mof_C 	C 	0.2787	0.51159	0.4857	0.035
Mof_C 	C 	0.2384	0.48706	0.5989	-0.103
Mof_H 	H 	0.27562	0.50167	0.68682	0.074
Mof_C 	C 	0.1414	0.4403	0.5781	0.029
Mof_H 	H 	0.1111	0.4222	0.65222	0.011
Mof_C 	C 	0.0902	0.42075	0.4484	-0.126
Mof_H 	H 	0.02571	0.38844	0.4324	0.063
Mof_C 	C 	0.1333	0.44848	0.3423	0.093
Mof_H 	H 	0.09536	0.43497	0.25356	-0.001
Mof_C 	C 	0.6394	0.66836	0.6516	0.439
Mof_C 	C 	0.5375	0.66109	0.2969	0.426
Mof_C 	C 	0.4802	0.5213	0.939	0.267
Mof_C 	C 	0.9554	0.52017	0.0377	0.279
Mof_C 	C 	0.0477	0.65077	0.9724	0.27
Mof_C 	C 	0.0624	0.67624	0.1174	0.245
Mof_Sm	Sm	0.24947	0.22297	0.54694	2.077
Mof_Sm	Sm	0.72018	0.06557	0.35643	2.309
Mof_N 	N 	0.5989	0.08531	0.1207	-0.262
Mof_N 	N 	0.5339	0.08619	0.9008	-0.2
Mof_H 	H 	0.52324	0.07739	0.81665	0.152
Mof_N 	N 	0.7742	0.99342	0.1422	-0.215
Mof_O 	O 	0.065	0.16166	0.6094	-0.459
Mof_O 	O 	0.0333	0.21191	0.3657	-0.466
Mof_O 	O 	0.8335	0.15885	0.2955	-0.442
Mof_O 	O 	0.8505	0.11986	0.5494	-0.445
Mof_O 	O 	0.5236	0.14042	0.317	-0.512
Mof_O 	O 	0.378	0.20367	0.1896	-0.575
Mof_O 	O 	0.2789	0.20487	0.8888	-0.586
Mof_O 	O 	0.3682	0.16099	0.7274	-0.528
Mof_O 	O 	0.5986	0.0637	0.5496	-0.439
Mof_O 	O 	0.4682	0.00935	0.6637	-0.466
Mof_O 	O 	0.9786	0.05067	0.3682	-0.467
Mof_O 	O 	0.1774	0.01901	0.504	-0.462
Mof_C 	C 	0.4573	0.13034	0.9468	-0.037
Mof_C 	C 	0.4996	0.12911	0.0862	-0.078
Mof_C 	C 	0.6187	0.06029	0.008	0.114
Mof_C 	C 	0.7213	0.01159	0.0143	0.031
Mof_C 	C 	0.7616	0.98706	0.9011	-0.099
Mof_H 	H 	0.72438	0.00167	0.81318	0.073
Mof_C 	C 	0.8586	0.9403	0.9219	0.015
Mof_H 	H 	0.8889	0.9222	0.84778	0.014
Mof_C 	C 	0.9098	0.92075	0.0516	-0.11
Mof_H 	H 	0.97429	0.88844	0.0676	0.06
Mof_C 	C 	0.8667	0.94848	0.1577	0.087
Mof_H 	H 	0.90464	0.93497	0.24644	0.002
Mof_C 	C 	0.3606	0.16836	0.8484	0.438
Mof_C 	C 	0.4625	0.16109	0.2031	0.427
Mof_C 	C 	0.5198	0.0213	0.561	0.266
Mof_C 	C 	0.0446	0.02017	0.4623	0.273
Mof_C 	C 	0.9523	0.15077	0.5276	0.261
Mof_C 	C 	0.9376	0.17624	0.3826	0.252
_end
