data_functionalizedCrystal
_audit_creation_method	'EQeq! by Chris Wilmer'
_symmetry_space_group_name_H-M	'P1'
_symmetry_Int_Tables_number	1
_symmetry_cell_setting	triclinic
loop_
_symmetry_equiv_pos_as_xyz
  x,y,z
_cell_length_a	10.429
_cell_length_b	10.429
_cell_length_c	8.99
_cell_angle_alpha	90
_cell_angle_beta	90
_cell_angle_gamma	90
loop_
_atom_site_label
_atom_site_type_symbol
_atom_site_fract_x
_atom_site_fract_y
_atom_site_fract_z
_atom_site_charge
Mof_Fe	Fe	0.11891	0.61886	0.15615	1.081
Mof_P 	P 	0.8976	0.39759	0.20202	0.727
Mof_O 	O 	0.9969	0.4972	0.2452	-0.342
Mof_O 	O 	0.9359	0.2817	0.316	-0.264
Mof_O 	O 	0.0707	0.7688	0.2888	-0.224
Mof_O 	O 	0.7691	0.4319	0.2116	-0.246
Mof_O 	O 	0.282	0.5623	0.1842	-0.239
Mof_O 	O 	0.9409	0.3359	0.0461	-0.263
Mof_O 	O 	0.1631	0.5589	0.9531	-0.268
Mof_Zn	Zn	0.88109	0.11886	0.34385	1.276
Mof_Fe	Fe	0.38109	0.88114	0.15615	1.08
Mof_P 	P 	0.6024	0.10241	0.20202	0.726
Mof_O 	O 	0.5031	0.0028	0.2452	-0.343
Mof_O 	O 	0.5641	0.2183	0.316	-0.265
Mof_O 	O 	0.4293	0.7312	0.2888	-0.225
Mof_O 	O 	0.7309	0.0681	0.2116	-0.245
Mof_O 	O 	0.218	0.9377	0.1842	-0.241
Mof_O 	O 	0.5591	0.1641	0.0461	-0.265
Mof_O 	O 	0.3369	0.9411	0.9531	-0.266
Mof_Zn	Zn	0.61891	0.38114	0.34385	1.275
Mof_P 	P 	0.1024	0.89759	0.29798	0.729
Mof_O 	O 	0.0031	0.9972	0.2548	-0.386
Mof_O 	O 	0.0641	0.7817	0.184	-0.244
Mof_O 	O 	0.9293	0.2688	0.2112	-0.249
Mof_O 	O 	0.2309	0.9319	0.2884	-0.22
Mof_O 	O 	0.718	0.0623	0.3158	-0.262
Mof_O 	O 	0.0591	0.8359	0.4539	-0.3
Mof_O 	O 	0.8369	0.0589	0.5469	-0.303
Mof_P 	P 	0.3976	0.60241	0.29798	0.729
Mof_O 	O 	0.4969	0.5028	0.2548	-0.383
Mof_O 	O 	0.4359	0.7183	0.184	-0.242
Mof_O 	O 	0.5707	0.2312	0.2112	-0.25
Mof_O 	O 	0.2691	0.5681	0.2884	-0.221
Mof_O 	O 	0.782	0.4377	0.3158	-0.262
Mof_O 	O 	0.4409	0.6641	0.4539	-0.3
Mof_O 	O 	0.6631	0.4411	0.5469	-0.303
Mof_Fe	Fe	0.88109	0.38114	0.84385	1.08
Mof_P 	P 	0.1024	0.60241	0.79798	0.726
Mof_O 	O 	0.0031	0.5028	0.7548	-0.343
Mof_O 	O 	0.0641	0.7183	0.684	-0.265
Mof_O 	O 	0.9293	0.2312	0.7112	-0.224
Mof_O 	O 	0.2309	0.5681	0.7884	-0.246
Mof_O 	O 	0.718	0.4377	0.8158	-0.239
Mof_O 	O 	0.0591	0.6641	0.9539	-0.263
Mof_O 	O 	0.8369	0.4411	0.0469	-0.268
Mof_Zn	Zn	0.11891	0.88114	0.65615	1.276
Mof_Fe	Fe	0.61891	0.11886	0.84385	1.08
Mof_P 	P 	0.3976	0.89759	0.79798	0.726
Mof_O 	O 	0.4969	0.9972	0.7548	-0.343
Mof_O 	O 	0.4359	0.7817	0.684	-0.265
Mof_O 	O 	0.5707	0.2688	0.7112	-0.225
Mof_O 	O 	0.2691	0.9319	0.7884	-0.245
Mof_O 	O 	0.782	0.0623	0.8158	-0.241
Mof_O 	O 	0.4409	0.8359	0.9539	-0.265
Mof_O 	O 	0.6631	0.0589	0.0469	-0.266
Mof_Zn	Zn	0.38109	0.61886	0.65615	1.275
Mof_P 	P 	0.8976	0.10241	0.70202	0.729
Mof_O 	O 	0.9969	0.0028	0.7452	-0.386
Mof_O 	O 	0.9359	0.2183	0.816	-0.244
Mof_O 	O 	0.0707	0.7312	0.7888	-0.249
Mof_O 	O 	0.7691	0.0681	0.7116	-0.22
Mof_O 	O 	0.282	0.9377	0.6842	-0.262
Mof_O 	O 	0.9409	0.1641	0.5461	-0.3
Mof_O 	O 	0.1631	0.9411	0.4531	-0.303
Mof_P 	P 	0.6024	0.39759	0.70202	0.729
Mof_O 	O 	0.5031	0.4972	0.7452	-0.383
Mof_O 	O 	0.5641	0.2817	0.816	-0.242
Mof_O 	O 	0.4293	0.7688	0.7888	-0.25
Mof_O 	O 	0.7309	0.4319	0.7116	-0.221
Mof_O 	O 	0.218	0.5623	0.6842	-0.262
Mof_O 	O 	0.5591	0.3359	0.5461	-0.3
Mof_O 	O 	0.3369	0.5589	0.4531	-0.303
_end
