data_functionalizedCrystal
_audit_creation_method	'EQeq! by Chris Wilmer'
_symmetry_space_group_name_H-M	'P1'
_symmetry_Int_Tables_number	1
_symmetry_cell_setting	triclinic
loop_
_symmetry_equiv_pos_as_xyz
  x,y,z
_cell_length_a	6.5677
_cell_length_b	16.4042
_cell_length_c	13.1657
_cell_angle_alpha	90
_cell_angle_beta	90
_cell_angle_gamma	90
loop_
_atom_site_label
_atom_site_type_symbol
_atom_site_fract_x
_atom_site_fract_y
_atom_site_fract_z
_atom_site_charge
Mof_O 	O 	0.17	0.16765	0.83945	-1.654
Mof_C 	C 	0.8067	0.0287	0.956	0.017
Mof_O 	O 	0.67	0.66765	0.33945	-1.643
Mof_C 	C 	0.3067	0.5287	0.456	0.066
Mof_O 	O 	0.83	0.33235	0.83945	-1.674
Mof_C 	C 	0.1933	0.4713	0.956	0.053
Mof_O 	O 	0.33	0.83235	0.33945	-1.643
Mof_C 	C 	0.6933	0.9713	0.456	0.044
Mof_O 	O 	0.83	0.66765	0.16055	-1.674
Mof_C 	C 	0.1933	0.5287	0.044	0.053
Mof_O 	O 	0.33	0.16765	0.66055	-1.643
Mof_C 	C 	0.6933	0.0287	0.544	0.044
Mof_O 	O 	0.17	0.83235	0.16055	-1.653
Mof_C 	C 	0.8067	0.9713	0.044	0.018
Mof_O 	O 	0.67	0.33235	0.66055	-1.642
Mof_C 	C 	0.3067	0.4713	0.544	0.067
Mof_O 	O 	0.83	0.83235	0.16055	-1.673
Mof_C 	C 	0.1933	0.9713	0.044	0.052
Mof_O 	O 	0.33	0.33235	0.66055	-1.643
Mof_C 	C 	0.6933	0.4713	0.544	0.044
Mof_O 	O 	0.17	0.66765	0.16055	-1.653
Mof_C 	C 	0.8067	0.5287	0.044	0.018
Mof_O 	O 	0.67	0.16765	0.66055	-1.642
Mof_C 	C 	0.3067	0.0287	0.544	0.066
Mof_O 	O 	0.17	0.33235	0.83945	-1.653
Mof_C 	C 	0.8067	0.4713	0.956	0.018
Mof_O 	O 	0.67	0.83235	0.33945	-1.642
Mof_C 	C 	0.3067	0.9713	0.456	0.066
Mof_O 	O 	0.83	0.16765	0.83945	-1.673
Mof_C 	C 	0.1933	0.0287	0.956	0.052
Mof_O 	O 	0.33	0.66765	0.33945	-1.643
Mof_C 	C 	0.6933	0.5287	0.456	0.044
Mof_Al	Al	0.25	0.25	0.75	6.997
Mof_Al	Al	0.75	0.25	0.75	6.898
Mof_Al	Al	0.75	0.75	0.25	6.898
Mof_Al	Al	0.25	0.75	0.25	6.997
Mof_F 	F 	5.20941e-33	0.25	0.6931	-2.324
Mof_F 	F 	0.5	0.75	0.1931	-2.347
Mof_F 	F 	1.56542e-32	0.75	0.3069	-2.324
Mof_F 	F 	0.5	0.25	0.8069	-2.347
Mof_C 	C 	-1.06646e-32	0.0633	0.9489	-0.238
Mof_C 	C 	-1.12524e-32	0.138	0.8707	1.191
Mof_C 	C 	0.5	0.5633	0.4489	-0.278
Mof_C 	C 	0.5	0.638	0.3707	1.144
Mof_C 	C 	-2.84613e-32	0.4367	0.9489	-0.237
Mof_C 	C 	-1.12524e-32	0.362	0.8707	1.191
Mof_C 	C 	0.5	0.9367	0.4489	-0.278
Mof_C 	C 	0.5	0.862	0.3707	1.144
Mof_C 	C 	-7.28218e-34	0.5633	0.0511	-0.237
Mof_C 	C 	1.65439e-32	0.638	0.1293	1.191
Mof_C 	C 	0.5	0.0633	0.5511	-0.278
Mof_C 	C 	0.5	0.138	0.6293	1.144
Mof_C 	C 	-7.28218e-34	0.9367	0.0511	-0.238
Mof_C 	C 	-1.25275e-33	0.862	0.1293	1.191
Mof_C 	C 	0.5	0.4367	0.5511	-0.278
Mof_C 	C 	0.5	0.362	0.6293	1.144
_end
