data_functionalizedCrystal
_audit_creation_method	'EQeq! by Chris Wilmer'
_symmetry_space_group_name_H-M	'P1'
_symmetry_Int_Tables_number	1
_symmetry_cell_setting	triclinic
loop_
_symmetry_equiv_pos_as_xyz
  x,y,z
_cell_length_a	15.8792
_cell_length_b	15.8792
_cell_length_c	21.594
_cell_angle_alpha	90
_cell_angle_beta	90
_cell_angle_gamma	90
loop_
_atom_site_label
_atom_site_type_symbol
_atom_site_fract_x
_atom_site_fract_y
_atom_site_fract_z
_atom_site_charge
Mof_C 	C 	0.5902	0.6402	0.3594	0.086
Mof_H 	H 	0.5425	0.61	0.3479	0.008
Mof_C 	C 	0.6168	0.7019	0.3199	-0.144
Mof_H 	H 	0.5868	0.7144	0.2841	0.082
Mof_C 	C 	0.6919	0.7466	0.335	0.068
Mof_C 	C 	0.7338	0.7186	0.387	-0.143
Mof_H 	H 	0.786	0.7416	0.3969	0.076
Mof_C 	C 	0.7	0.6577	0.4243	0.076
Mof_H 	H 	0.7295	0.6417	0.4596	0.005
Mof_C 	C 	0.7213	0.8187	0.2977	0.025
Mof_C 	C 	0.6931	0.8354	0.2387	-0.093
Mof_H 	H 	0.654	0.7995	0.2205	0.064
Mof_C 	C 	0.7215	0.9041	0.206	0.012
Mof_H 	H 	0.7011	0.9138	0.1663	0.023
Mof_C 	C 	0.7795	0.9586	0.2309	-0.088
Mof_H 	H 	0.7971	0.0061	0.2092	0.068
Mof_C 	C 	0.8117	0.9407	0.2901	0.023
Mof_C 	C 	0.7819	0.8719	0.323	-0.091
Mof_H 	H 	0.8028	0.8611	0.3624	0.061
Mof_C 	C 	0.8748	0.9962	0.3207	0.095
Mof_C 	C 	0.9249	0.0922	0.383	0.089
Mof_C 	C 	0.9336	0.1617	0.4275	0.031
Mof_C 	C 	0.0071	0.1657	0.4633	-0.095
Mof_H 	H 	0.048	0.124	0.4601	0.067
Mof_C 	C 	0.0175	0.232	0.503	0.02
Mof_H 	H 	0.0655	0.2348	0.5276	0.018
Mof_C 	C 	0.9585	0.2938	0.5068	-0.097
Mof_H 	H 	0.9668	0.338	0.5344	0.062
Mof_C 	C 	0.8866	0.2929	0.471	0.03
Mof_C 	C 	0.8744	0.2269	0.4317	-0.097
Mof_H 	H 	0.8262	0.2251	0.4073	0.068
Mof_C 	C 	0.8191	0.3579	0.4778	0.066
Mof_C 	C 	0.8084	0.4043	0.5321	-0.138
Mof_H 	H 	0.8462	0.3978	0.5646	0.076
Mof_C 	C 	0.7416	0.4599	0.5375	0.078
Mof_H 	H 	0.7346	0.4885	0.5748	0.006
Mof_C 	C 	0.6975	0.4324	0.4396	0.082
Mof_H 	H 	0.6596	0.4412	0.4074	0.01
Mof_C 	C 	0.7626	0.3758	0.4308	-0.137
Mof_H 	H 	0.7686	0.3494	0.3926	0.075
Mof_N 	N 	0.6257	0.6198	0.4123	-0.156
Mof_N 	N 	0.9553	0.9942	0.3164	-0.117
Mof_N 	N 	0.9888	0.0547	0.3555	-0.101
Mof_N 	N 	0.8525	0.0569	0.3618	-0.108
Mof_N 	N 	0.7705	0.0768	0.3832	-0.224
Mof_H 	H 	0.7447	0.0282	0.3914	0.119
Mof_H 	H 	0.7416	0.1045	0.3547	0.118
Mof_N 	N 	0.6867	0.4746	0.4919	-0.152
Mof_C 	C 	0.4098	0.3598	0.8594	0.087
Mof_H 	H 	0.4575	0.39	0.8479	0.01
Mof_C 	C 	0.3832	0.2981	0.8199	-0.143
Mof_H 	H 	0.4132	0.2856	0.7841	0.082
Mof_C 	C 	0.3081	0.2534	0.835	0.068
Mof_C 	C 	0.2662	0.2814	0.887	-0.142
Mof_H 	H 	0.214	0.2584	0.8969	0.077
Mof_C 	C 	0.3	0.3423	0.9243	0.077
Mof_H 	H 	0.2705	0.3583	0.9596	0.007
Mof_C 	C 	0.2787	0.1813	0.7977	0.025
Mof_C 	C 	0.3069	0.1646	0.7387	-0.093
Mof_H 	H 	0.346	0.2005	0.7205	0.064
Mof_C 	C 	0.2785	0.0959	0.706	0.012
Mof_H 	H 	0.2989	0.0862	0.6663	0.024
Mof_C 	C 	0.2205	0.0414	0.7309	-0.088
Mof_H 	H 	0.2029	0.9939	0.7092	0.068
Mof_C 	C 	0.1883	0.0593	0.7901	0.023
Mof_C 	C 	0.2181	0.1281	0.823	-0.091
Mof_H 	H 	0.1972	0.1389	0.8624	0.061
Mof_C 	C 	0.1252	0.0038	0.8207	0.095
Mof_C 	C 	0.0751	0.9078	0.883	0.09
Mof_C 	C 	0.0664	0.8383	0.9275	0.03
Mof_C 	C 	0.9929	0.8343	0.9633	-0.086
Mof_H 	H 	0.952	0.876	0.9601	0.065
Mof_C 	C 	0.9825	0.768	0.003	0.013
Mof_H 	H 	0.9345	0.7652	0.0276	0.019
Mof_C 	C 	0.0415	0.7062	0.0068	-0.103
Mof_H 	H 	0.0332	0.662	0.0344	0.062
Mof_C 	C 	0.1134	0.7071	0.971	0.035
Mof_C 	C 	0.1256	0.7731	0.9317	-0.096
Mof_H 	H 	0.1738	0.7749	0.9073	0.068
Mof_C 	C 	0.1809	0.6421	0.9778	0.073
Mof_C 	C 	0.1916	0.5957	0.0321	-0.146
Mof_H 	H 	0.1538	0.6022	0.0646	0.078
Mof_C 	C 	0.2584	0.5401	0.0375	0.074
Mof_H 	H 	0.2654	0.5115	0.0748	0.007
Mof_C 	C 	0.3025	0.5676	0.9396	0.084
Mof_H 	H 	0.3404	0.5588	0.9074	0.01
Mof_C 	C 	0.2374	0.6242	0.9308	-0.14
Mof_H 	H 	0.2314	0.6506	0.8926	0.075
Mof_N 	N 	0.3743	0.3802	0.9123	-0.154
Mof_N 	N 	0.0447	0.0058	0.8164	-0.117
Mof_N 	N 	0.0112	0.9453	0.8555	-0.101
Mof_N 	N 	0.1475	0.9431	0.8618	-0.107
Mof_N 	N 	0.2295	0.9232	0.8832	-0.224
Mof_H 	H 	0.2553	0.9718	0.8914	0.12
Mof_H 	H 	0.2584	0.8955	0.8547	0.118
Mof_N 	N 	0.3133	0.5254	0.9919	-0.148
Mof_C 	C 	0.8598	0.0902	0.6094	0.087
Mof_H 	H 	0.89	0.0425	0.5979	0.009
Mof_C 	C 	0.7981	0.1168	0.5699	-0.143
Mof_H 	H 	0.7856	0.0868	0.5341	0.082
Mof_C 	C 	0.7534	0.1919	0.585	0.068
Mof_C 	C 	0.7814	0.2338	0.637	-0.142
Mof_H 	H 	0.7584	0.286	0.6469	0.076
Mof_C 	C 	0.8423	0.2	0.6743	0.076
Mof_H 	H 	0.8583	0.2295	0.7096	0.005
Mof_C 	C 	0.6813	0.2213	0.5477	0.025
Mof_C 	C 	0.6646	0.1931	0.4887	-0.094
Mof_H 	H 	0.7005	0.154	0.4705	0.064
Mof_C 	C 	0.5959	0.2215	0.456	0.013
Mof_H 	H 	0.5862	0.2011	0.4163	0.023
Mof_C 	C 	0.5414	0.2795	0.4809	-0.09
Mof_H 	H 	0.4939	0.2971	0.4592	0.069
Mof_C 	C 	0.5593	0.3117	0.5401	0.024
Mof_C 	C 	0.6281	0.2819	0.573	-0.091
Mof_H 	H 	0.6389	0.3028	0.6124	0.061
Mof_C 	C 	0.5038	0.3748	0.5707	0.094
Mof_C 	C 	0.4078	0.4249	0.633	0.089
Mof_C 	C 	0.3383	0.4336	0.6775	0.032
Mof_C 	C 	0.3343	0.5071	0.7133	-0.096
Mof_H 	H 	0.376	0.548	0.7101	0.067
Mof_C 	C 	0.268	0.5175	0.753	0.02
Mof_H 	H 	0.2652	0.5655	0.7776	0.018
Mof_C 	C 	0.2062	0.4585	0.7568	-0.096
Mof_H 	H 	0.162	0.4668	0.7844	0.062
Mof_C 	C 	0.2071	0.3866	0.721	0.029
Mof_C 	C 	0.2731	0.3744	0.6817	-0.097
Mof_H 	H 	0.2749	0.3262	0.6573	0.068
Mof_C 	C 	0.1421	0.3191	0.7278	0.066
Mof_C 	C 	0.0957	0.3084	0.7821	-0.138
Mof_H 	H 	0.1022	0.3462	0.8146	0.077
Mof_C 	C 	0.0401	0.2416	0.7875	0.078
Mof_H 	H 	0.0115	0.2346	0.8248	0.007
Mof_C 	C 	0.0676	0.1975	0.6896	0.082
Mof_H 	H 	0.0588	0.1596	0.6574	0.01
Mof_C 	C 	0.1242	0.2626	0.6808	-0.137
Mof_H 	H 	0.1506	0.2686	0.6426	0.075
Mof_N 	N 	0.8802	0.1257	0.6623	-0.156
Mof_N 	N 	0.5058	0.4553	0.5664	-0.118
Mof_N 	N 	0.4453	0.4888	0.6055	-0.1
Mof_N 	N 	0.4431	0.3525	0.6118	-0.107
Mof_N 	N 	0.4232	0.2705	0.6332	-0.224
Mof_H 	H 	0.4718	0.2447	0.6414	0.119
Mof_H 	H 	0.3955	0.2416	0.6047	0.118
Mof_N 	N 	0.0254	0.1867	0.7419	-0.152
Mof_C 	C 	0.1402	0.9098	0.1094	0.09
Mof_H 	H 	0.11	0.9575	0.0979	0.007
Mof_C 	C 	0.2019	0.8832	0.0699	-0.15
Mof_H 	H 	0.2144	0.9132	0.0341	0.082
Mof_C 	C 	0.2466	0.8081	0.085	0.078
Mof_C 	C 	0.2186	0.7662	0.137	-0.149
Mof_H 	H 	0.2416	0.714	0.1469	0.079
Mof_C 	C 	0.1577	0.8	0.1743	0.08
Mof_H 	H 	0.1417	0.7705	0.2096	0.003
Mof_C 	C 	0.3187	0.7787	0.0477	0.002
Mof_C 	C 	0.3354	0.8069	0.9887	-0.064
Mof_H 	H 	0.2995	0.846	0.9705	0.056
Mof_C 	C 	0.4041	0.7785	0.956	-0.012
Mof_H 	H 	0.4138	0.7989	0.9163	0.032
Mof_C 	C 	0.4586	0.7205	0.9809	-0.062
Mof_H 	H 	0.5061	0.7029	0.9592	0.061
Mof_C 	C 	0.4407	0.6883	0.0401	0.003
Mof_C 	C 	0.3719	0.7181	0.073	-0.073
Mof_H 	H 	0.3611	0.6972	0.1124	0.054
Mof_C 	C 	0.4962	0.6252	0.0707	0.099
Mof_C 	C 	0.5922	0.5751	0.133	0.089
Mof_C 	C 	0.6617	0.5664	0.1775	0.032
Mof_C 	C 	0.6657	0.4929	0.2133	-0.096
Mof_H 	H 	0.624	0.452	0.2101	0.067
Mof_C 	C 	0.732	0.4825	0.253	0.02
Mof_H 	H 	0.7348	0.4345	0.2776	0.018
Mof_C 	C 	0.7938	0.5415	0.2568	-0.096
Mof_H 	H 	0.838	0.5332	0.2844	0.061
Mof_C 	C 	0.7929	0.6134	0.221	0.029
Mof_C 	C 	0.7269	0.6256	0.1817	-0.097
Mof_H 	H 	0.7251	0.6738	0.1573	0.068
Mof_C 	C 	0.8579	0.6809	0.2278	0.066
Mof_C 	C 	0.9043	0.6916	0.2821	-0.138
Mof_H 	H 	0.8978	0.6538	0.3146	0.076
Mof_C 	C 	0.9599	0.7584	0.2875	0.078
Mof_H 	H 	0.9885	0.7654	0.3248	0.007
Mof_C 	C 	0.9324	0.8025	0.1896	0.081
Mof_H 	H 	0.9412	0.8404	0.1574	0.01
Mof_C 	C 	0.8758	0.7374	0.1808	-0.137
Mof_H 	H 	0.8494	0.7314	0.1426	0.074
Mof_N 	N 	0.1198	0.8743	0.1623	-0.157
Mof_N 	N 	0.4942	0.5447	0.0664	-0.119
Mof_N 	N 	0.5547	0.5112	0.1055	-0.1
Mof_N 	N 	0.5569	0.6475	0.1118	-0.108
Mof_N 	N 	0.5768	0.7295	0.1332	-0.224
Mof_H 	H 	0.5282	0.7553	0.1414	0.118
Mof_H 	H 	0.6045	0.7584	0.1047	0.117
Mof_N 	N 	0.9746	0.8133	0.2419	-0.152
Mof_C 	C 	0.9098	0.1402	0.8906	0.084
Mof_H 	H 	0.9575	0.11	0.9021	0.011
Mof_C 	C 	0.8832	0.2019	0.9301	-0.137
Mof_H 	H 	0.9132	0.2144	0.9659	0.082
Mof_C 	C 	0.8081	0.2466	0.915	0.059
Mof_C 	C 	0.7662	0.2186	0.863	-0.136
Mof_H 	H 	0.714	0.2416	0.8531	0.074
Mof_C 	C 	0.8	0.1577	0.8257	0.073
Mof_H 	H 	0.7705	0.1417	0.7904	0.006
Mof_C 	C 	0.7787	0.3187	0.9523	0.047
Mof_C 	C 	0.8069	0.3354	0.0113	-0.121
Mof_H 	H 	0.846	0.2995	0.0295	0.072
Mof_C 	C 	0.7785	0.4041	0.044	0.037
Mof_H 	H 	0.7989	0.4138	0.0837	0.015
Mof_C 	C 	0.7205	0.4586	0.0191	-0.116
Mof_H 	H 	0.7029	0.5061	0.0408	0.077
Mof_C 	C 	0.6883	0.4407	0.9599	0.044
Mof_C 	C 	0.7181	0.3719	0.927	-0.108
Mof_H 	H 	0.6972	0.3611	0.8876	0.067
Mof_C 	C 	0.6252	0.4962	0.9293	0.089
Mof_C 	C 	0.5751	0.5922	0.867	0.09
Mof_C 	C 	0.5664	0.6617	0.8225	0.032
Mof_C 	C 	0.4929	0.6657	0.7867	-0.096
Mof_H 	H 	0.452	0.624	0.7899	0.067
Mof_C 	C 	0.4825	0.732	0.747	0.02
Mof_H 	H 	0.4345	0.7348	0.7224	0.018
Mof_C 	C 	0.5415	0.7938	0.7432	-0.096
Mof_H 	H 	0.5332	0.838	0.7156	0.061
Mof_C 	C 	0.6134	0.7929	0.779	0.029
Mof_C 	C 	0.6256	0.7269	0.8183	-0.097
Mof_H 	H 	0.6738	0.7251	0.8427	0.069
Mof_C 	C 	0.6809	0.8579	0.7722	0.066
Mof_C 	C 	0.6916	0.9043	0.7179	-0.138
Mof_H 	H 	0.6538	0.8978	0.6854	0.076
Mof_C 	C 	0.7584	0.9599	0.7125	0.078
Mof_H 	H 	0.7654	0.9885	0.6752	0.007
Mof_C 	C 	0.8025	0.9324	0.8104	0.082
Mof_H 	H 	0.8404	0.9412	0.8426	0.011
Mof_C 	C 	0.7374	0.8758	0.8192	-0.137
Mof_H 	H 	0.7314	0.8494	0.8574	0.075
Mof_N 	N 	0.8743	0.1198	0.8377	-0.155
Mof_N 	N 	0.5447	0.4942	0.9336	-0.115
Mof_N 	N 	0.5112	0.5547	0.8945	-0.1
Mof_N 	N 	0.6475	0.5569	0.8882	-0.106
Mof_N 	N 	0.7295	0.5768	0.8668	-0.224
Mof_H 	H 	0.7553	0.5282	0.8586	0.119
Mof_H 	H 	0.7584	0.6045	0.8953	0.119
Mof_N 	N 	0.8133	0.9746	0.7581	-0.152
Mof_C 	C 	0.0902	0.8598	0.3906	0.087
Mof_H 	H 	0.0425	0.89	0.4021	0.009
Mof_C 	C 	0.1168	0.7981	0.4301	-0.143
Mof_H 	H 	0.0868	0.7856	0.4659	0.082
Mof_C 	C 	0.1919	0.7534	0.415	0.068
Mof_C 	C 	0.2338	0.7814	0.363	-0.142
Mof_H 	H 	0.286	0.7584	0.3531	0.076
Mof_C 	C 	0.2	0.8423	0.3257	0.076
Mof_H 	H 	0.2295	0.8583	0.2904	0.005
Mof_C 	C 	0.2213	0.6813	0.4523	0.025
Mof_C 	C 	0.1931	0.6646	0.5113	-0.094
Mof_H 	H 	0.154	0.7005	0.5295	0.064
Mof_C 	C 	0.2215	0.5959	0.544	0.013
Mof_H 	H 	0.2011	0.5862	0.5837	0.023
Mof_C 	C 	0.2795	0.5414	0.5191	-0.09
Mof_H 	H 	0.2971	0.4939	0.5408	0.069
Mof_C 	C 	0.3117	0.5593	0.4599	0.024
Mof_C 	C 	0.2819	0.6281	0.427	-0.091
Mof_H 	H 	0.3028	0.6389	0.3876	0.061
Mof_C 	C 	0.3748	0.5038	0.4293	0.094
Mof_C 	C 	0.4249	0.4078	0.367	0.089
Mof_C 	C 	0.4336	0.3383	0.3225	0.032
Mof_C 	C 	0.5071	0.3343	0.2867	-0.096
Mof_H 	H 	0.548	0.376	0.2899	0.067
Mof_C 	C 	0.5175	0.268	0.247	0.019
Mof_H 	H 	0.5655	0.2652	0.2224	0.018
Mof_C 	C 	0.4585	0.2062	0.2432	-0.096
Mof_H 	H 	0.4668	0.162	0.2156	0.061
Mof_C 	C 	0.3866	0.2071	0.279	0.029
Mof_C 	C 	0.3744	0.2731	0.3183	-0.097
Mof_H 	H 	0.3262	0.2749	0.3427	0.068
Mof_C 	C 	0.3191	0.1421	0.2722	0.066
Mof_C 	C 	0.3084	0.0957	0.2179	-0.138
Mof_H 	H 	0.3462	0.1022	0.1854	0.076
Mof_C 	C 	0.2416	0.0401	0.2125	0.078
Mof_H 	H 	0.2346	0.0115	0.1752	0.006
Mof_C 	C 	0.1975	0.0676	0.3104	0.082
Mof_H 	H 	0.1596	0.0588	0.3426	0.01
Mof_C 	C 	0.2626	0.1242	0.3192	-0.137
Mof_H 	H 	0.2686	0.1506	0.3574	0.075
Mof_N 	N 	0.1257	0.8802	0.3377	-0.156
Mof_N 	N 	0.4553	0.5058	0.4336	-0.118
Mof_N 	N 	0.4888	0.4453	0.3945	-0.1
Mof_N 	N 	0.3525	0.4431	0.3882	-0.107
Mof_N 	N 	0.2705	0.4232	0.3668	-0.224
Mof_H 	H 	0.2447	0.4718	0.3586	0.119
Mof_H 	H 	0.2416	0.3955	0.3953	0.118
Mof_N 	N 	0.1867	0.0254	0.2581	-0.152
Mof_C 	C 	0.6402	0.5902	0.6406	0.087
Mof_H 	H 	0.61	0.5425	0.6521	0.009
Mof_C 	C 	0.7019	0.6168	0.6801	-0.144
Mof_H 	H 	0.7144	0.5868	0.7159	0.082
Mof_C 	C 	0.7466	0.6919	0.665	0.069
Mof_C 	C 	0.7186	0.7338	0.613	-0.143
Mof_H 	H 	0.7416	0.786	0.6031	0.076
Mof_C 	C 	0.6577	0.7	0.5757	0.077
Mof_H 	H 	0.6417	0.7295	0.5404	0.005
Mof_C 	C 	0.8187	0.7213	0.7023	0.025
Mof_C 	C 	0.8354	0.6931	0.7613	-0.093
Mof_H 	H 	0.7995	0.654	0.7795	0.064
Mof_C 	C 	0.9041	0.7215	0.794	0.012
Mof_H 	H 	0.9138	0.7011	0.8337	0.024
Mof_C 	C 	0.9586	0.7795	0.7691	-0.088
Mof_H 	H 	0.0061	0.7971	0.7908	0.068
Mof_C 	C 	0.9407	0.8117	0.7099	0.023
Mof_C 	C 	0.8719	0.7819	0.677	-0.091
Mof_H 	H 	0.8611	0.8028	0.6376	0.061
Mof_C 	C 	0.9962	0.8748	0.6793	0.094
Mof_C 	C 	0.0922	0.9249	0.617	0.089
Mof_C 	C 	0.1617	0.9336	0.5725	0.031
Mof_C 	C 	0.1657	0.0071	0.5367	-0.095
Mof_H 	H 	0.124	0.048	0.5399	0.066
Mof_C 	C 	0.232	0.0175	0.497	0.02
Mof_H 	H 	0.2348	0.0655	0.4724	0.018
Mof_C 	C 	0.2938	0.9585	0.4932	-0.097
Mof_H 	H 	0.338	0.9668	0.4656	0.061
Mof_C 	C 	0.2929	0.8866	0.529	0.029
Mof_C 	C 	0.2269	0.8744	0.5683	-0.097
Mof_H 	H 	0.2251	0.8262	0.5927	0.068
Mof_C 	C 	0.3579	0.8191	0.5222	0.066
Mof_C 	C 	0.4043	0.8084	0.4679	-0.138
Mof_H 	H 	0.3978	0.8462	0.4354	0.076
Mof_C 	C 	0.4599	0.7416	0.4625	0.078
Mof_H 	H 	0.4885	0.7346	0.4252	0.006
Mof_C 	C 	0.4324	0.6975	0.5604	0.082
Mof_H 	H 	0.4412	0.6596	0.5926	0.01
Mof_C 	C 	0.3758	0.7626	0.5692	-0.137
Mof_H 	H 	0.3494	0.7686	0.6074	0.075
Mof_N 	N 	0.6198	0.6257	0.5877	-0.156
Mof_N 	N 	0.9942	0.9553	0.6836	-0.117
Mof_N 	N 	0.0547	0.9888	0.6445	-0.101
Mof_N 	N 	0.0569	0.8525	0.6382	-0.107
Mof_N 	N 	0.0768	0.7705	0.6168	-0.224
Mof_H 	H 	0.0282	0.7447	0.6086	0.119
Mof_H 	H 	0.1045	0.7416	0.6453	0.118
Mof_N 	N 	0.4746	0.6867	0.5081	-0.152
Mof_C 	C 	0.3598	0.4098	0.1406	0.087
Mof_H 	H 	0.39	0.4575	0.1521	0.009
Mof_C 	C 	0.2981	0.3832	0.1801	-0.144
Mof_H 	H 	0.2856	0.4132	0.2159	0.082
Mof_C 	C 	0.2534	0.3081	0.165	0.068
Mof_C 	C 	0.2814	0.2662	0.113	-0.143
Mof_H 	H 	0.2584	0.214	0.1031	0.075
Mof_C 	C 	0.3423	0.3	0.0757	0.076
Mof_H 	H 	0.3583	0.2705	0.0404	0.003
Mof_C 	C 	0.1813	0.2787	0.2023	0.024
Mof_C 	C 	0.1646	0.3069	0.2613	-0.093
Mof_H 	H 	0.2005	0.346	0.2795	0.064
Mof_C 	C 	0.0959	0.2785	0.294	0.012
Mof_H 	H 	0.0862	0.2989	0.3337	0.024
Mof_C 	C 	0.0414	0.2205	0.2691	-0.088
Mof_H 	H 	0.9939	0.2029	0.2908	0.068
Mof_C 	C 	0.0593	0.1883	0.2099	0.023
Mof_C 	C 	0.1281	0.2181	0.177	-0.09
Mof_H 	H 	0.1389	0.1972	0.1376	0.06
Mof_C 	C 	0.0038	0.1252	0.1793	0.094
Mof_C 	C 	0.9078	0.0751	0.117	0.087
Mof_C 	C 	0.8383	0.0664	0.0725	0.036
Mof_C 	C 	0.8343	0.9929	0.0367	-0.11
Mof_H 	H 	0.876	0.952	0.0399	0.07
Mof_C 	C 	0.768	0.9825	0.997	0.035
Mof_H 	H 	0.7652	0.9345	0.9724	0.015
Mof_C 	C 	0.7062	0.0415	0.9932	-0.097
Mof_H 	H 	0.662	0.0332	0.9656	0.063
Mof_C 	C 	0.7071	0.1134	0.029	0.029
Mof_C 	C 	0.7731	0.1256	0.0683	-0.101
Mof_H 	H 	0.7749	0.1738	0.0927	0.069
Mof_C 	C 	0.6421	0.1809	0.0222	0.057
Mof_C 	C 	0.5957	0.1916	0.9679	-0.129
Mof_H 	H 	0.6022	0.1538	0.9354	0.074
Mof_C 	C 	0.5401	0.2584	0.9625	0.081
Mof_H 	H 	0.5115	0.2654	0.9252	0.006
Mof_C 	C 	0.5676	0.3025	0.0604	0.079
Mof_H 	H 	0.5588	0.3404	0.0926	0.011
Mof_C 	C 	0.6242	0.2374	0.0692	-0.134
Mof_H 	H 	0.6506	0.2314	0.1074	0.073
Mof_N 	N 	0.3802	0.3743	0.0877	-0.156
Mof_N 	N 	0.0058	0.0447	0.1836	-0.117
Mof_N 	N 	0.9453	0.0112	0.1445	-0.1
Mof_N 	N 	0.9431	0.1475	0.1382	-0.107
Mof_N 	N 	0.9232	0.2295	0.1168	-0.224
Mof_H 	H 	0.9718	0.2553	0.1086	0.118
Mof_H 	H 	0.8955	0.2584	0.1453	0.118
Mof_N 	N 	0.5254	0.3133	0.0081	-0.155
Mof_Cd	Cd	0.05839	0.94161	0.25	0.38
Mof_Cd	Cd	0.94161	0.05839	0.75	0.38
Mof_Cd	Cd	0.55839	0.55839	0.5	0.382
Mof_Cd	Cd	0.44161	0.44161	-0	0.375
_end
