data_functionalizedCrystal
_audit_creation_method	'EQeq! by Chris Wilmer'
_symmetry_space_group_name_H-M	'P1'
_symmetry_Int_Tables_number	1
_symmetry_cell_setting	triclinic
loop_
_symmetry_equiv_pos_as_xyz
  x,y,z
_cell_length_a	11.5585
_cell_length_b	11.5585
_cell_length_c	25.819
_cell_angle_alpha	90
_cell_angle_beta	90
_cell_angle_gamma	90
loop_
_atom_site_label
_atom_site_type_symbol
_atom_site_fract_x
_atom_site_fract_y
_atom_site_fract_z
_atom_site_charge
Mof_Zn	Zn	0.90122	0.09878	0.79186	1.171
Mof_Zn	Zn	0.09878	0.90122	0.79186	1.171
Mof_Zn	Zn	0.90122	0.90122	0.29186	1.165
Mof_Zn	Zn	0.09878	0.09878	0.29186	1.178
Mof_Zn	Zn	0.09878	0.09878	0.70814	1.178
Mof_Zn	Zn	0.90122	0.90122	0.70814	1.165
Mof_Zn	Zn	0.09878	0.90122	0.20814	1.171
Mof_Zn	Zn	0.90122	0.09878	0.20814	1.171
Mof_H 	H 	0.6793	0.1761	0.8397	0.129
Mof_H 	H 	0.562	0.2097	0.8104	0.154
Mof_H 	H 	0.5629	0.1055	0.8512	0.164
Mof_H 	H 	0.3207	0.8239	0.8397	0.116
Mof_H 	H 	0.438	0.7903	0.8104	0.14
Mof_H 	H 	0.4371	0.8945	0.8512	0.14
Mof_H 	H 	0.8239	0.6793	0.3397	0.116
Mof_H 	H 	0.7903	0.562	0.3104	0.14
Mof_H 	H 	0.8945	0.5629	0.3512	0.141
Mof_H 	H 	0.1761	0.3207	0.3397	0.129
Mof_H 	H 	0.2097	0.438	0.3104	0.153
Mof_H 	H 	0.1055	0.4371	0.3512	0.163
Mof_H 	H 	0.3207	0.1761	0.6603	0.129
Mof_H 	H 	0.438	0.2097	0.6896	0.153
Mof_H 	H 	0.4371	0.1055	0.6488	0.163
Mof_H 	H 	0.6793	0.8239	0.6603	0.116
Mof_H 	H 	0.562	0.7903	0.6896	0.14
Mof_H 	H 	0.5629	0.8945	0.6488	0.141
Mof_H 	H 	0.1761	0.6793	0.1603	0.129
Mof_H 	H 	0.2097	0.562	0.1896	0.154
Mof_H 	H 	0.1055	0.5629	0.1488	0.164
Mof_H 	H 	0.8239	0.3207	0.1603	0.116
Mof_H 	H 	0.7903	0.438	0.1896	0.14
Mof_H 	H 	0.8945	0.4371	0.1488	0.14
Mof_H 	H 	0.3207	0.8239	0.1603	0.116
Mof_H 	H 	0.438	0.7903	0.1896	0.14
Mof_H 	H 	0.4371	0.8945	0.1488	0.14
Mof_H 	H 	0.6793	0.1761	0.1603	0.129
Mof_H 	H 	0.562	0.2097	0.1896	0.154
Mof_H 	H 	0.5629	0.1055	0.1488	0.164
Mof_H 	H 	0.1761	0.3207	0.6603	0.129
Mof_H 	H 	0.2097	0.438	0.6896	0.153
Mof_H 	H 	0.1055	0.4371	0.6488	0.163
Mof_H 	H 	0.8239	0.6793	0.6603	0.116
Mof_H 	H 	0.7903	0.562	0.6896	0.14
Mof_H 	H 	0.8945	0.5629	0.6488	0.141
Mof_H 	H 	0.6793	0.8239	0.3397	0.116
Mof_H 	H 	0.562	0.7903	0.3104	0.14
Mof_H 	H 	0.5629	0.8945	0.3512	0.141
Mof_H 	H 	0.3207	0.1761	0.3397	0.129
Mof_H 	H 	0.438	0.2097	0.3104	0.153
Mof_H 	H 	0.4371	0.1055	0.3512	0.163
Mof_H 	H 	0.8239	0.3207	0.8397	0.116
Mof_H 	H 	0.7903	0.438	0.8104	0.14
Mof_H 	H 	0.8945	0.4371	0.8512	0.14
Mof_H 	H 	0.1761	0.6793	0.8397	0.129
Mof_H 	H 	0.2097	0.562	0.8104	0.154
Mof_H 	H 	0.1055	0.5629	0.8512	0.164
Mof_H 	H 	0.8763	0.1237	0.9556	0.031
Mof_H 	H 	0.1237	0.8763	0.9556	0.031
Mof_H 	H 	0.8763	0.8763	0.4556	0.032
Mof_H 	H 	0.1237	0.1237	0.4556	0.029
Mof_H 	H 	0.1237	0.1237	0.5444	0.029
Mof_H 	H 	0.8763	0.8763	0.5444	0.032
Mof_H 	H 	0.1237	0.8763	0.0444	0.031
Mof_H 	H 	0.8763	0.1237	0.0444	0.031
Mof_C 	C 	0.6368	0.0633	0.78219	0.181
Mof_C 	C 	0.6078	0.1457	0.8245	-0.528
Mof_C 	C 	0.3632	0.9367	0.78219	0.145
Mof_C 	C 	0.3922	0.8543	0.8245	-0.491
Mof_C 	C 	0.9367	0.6368	0.28219	0.145
Mof_C 	C 	0.8543	0.6078	0.3245	-0.492
Mof_C 	C 	0.0633	0.3632	0.28219	0.182
Mof_C 	C 	0.1457	0.3922	0.3245	-0.527
Mof_C 	C 	0.3632	0.0633	0.71781	0.182
Mof_C 	C 	0.3922	0.1457	0.6755	-0.527
Mof_C 	C 	0.6368	0.9367	0.71781	0.145
Mof_C 	C 	0.6078	0.8543	0.6755	-0.492
Mof_C 	C 	0.0633	0.6368	0.21781	0.181
Mof_C 	C 	0.1457	0.6078	0.1755	-0.528
Mof_C 	C 	0.9367	0.3632	0.21781	0.145
Mof_C 	C 	0.8543	0.3922	0.1755	-0.491
Mof_C 	C 	0.3632	0.9367	0.21781	0.145
Mof_C 	C 	0.3922	0.8543	0.1755	-0.491
Mof_C 	C 	0.6368	0.0633	0.21781	0.181
Mof_C 	C 	0.6078	0.1457	0.1755	-0.528
Mof_C 	C 	0.0633	0.3632	0.71781	0.182
Mof_C 	C 	0.1457	0.3922	0.6755	-0.527
Mof_C 	C 	0.9367	0.6368	0.71781	0.145
Mof_C 	C 	0.8543	0.6078	0.6755	-0.492
Mof_C 	C 	0.6368	0.9367	0.28219	0.145
Mof_C 	C 	0.6078	0.8543	0.3245	-0.492
Mof_C 	C 	0.3632	0.0633	0.28219	0.182
Mof_C 	C 	0.3922	0.1457	0.3245	-0.527
Mof_C 	C 	0.9367	0.3632	0.78219	0.145
Mof_C 	C 	0.8543	0.3922	0.8245	-0.491
Mof_C 	C 	0.0633	0.6368	0.78219	0.181
Mof_C 	C 	0.1457	0.6078	0.8245	-0.528
Mof_C 	C 	0.9282	0.0718	0.9739	-0.041
Mof_C 	C 	0.0718	0.9282	0.9739	-0.041
Mof_C 	C 	0.9282	0.9282	0.4739	-0.064
Mof_C 	C 	0.0718	0.0718	0.4739	-0.017
Mof_C 	C 	0.0718	0.0718	0.5261	-0.017
Mof_C 	C 	0.9282	0.9282	0.5261	-0.064
Mof_C 	C 	0.0718	0.9282	0.0261	-0.041
Mof_C 	C 	0.9282	0.0718	0.0261	-0.041
Mof_C 	C 	-7.1976e-33	0	0.8882	0.427
Mof_C 	C 	-6.71769e-33	0	0.9455	-0.066
Mof_C 	C 	3.25129e-33	0	0.3882	0.426
Mof_C 	C 	3.73119e-33	7.31826e-33	0.4455	-0.067
Mof_C 	C 	5.124e-33	0	0.6118	0.426
Mof_C 	C 	4.6441e-33	0	0.5545	-0.067
Mof_C 	C 	-8.93209e-34	0	0.1118	0.427
Mof_C 	C 	1.37124e-33	9.14783e-34	0.0545	-0.066
Mof_C 	C 	0.5638	0	0.75	-0.096
Mof_C 	C 	0.4362	0	0.75	-0.095
Mof_C 	C 	-5.22444e-33	0.5638	0.25	-0.096
Mof_C 	C 	9.41208e-33	0.4362	0.25	-0.095
Mof_C 	C 	0.4362	0	0.25	-0.095
Mof_C 	C 	0.5638	0	0.25	-0.096
Mof_C 	C 	6.28146e-33	0.4362	0.75	-0.095
Mof_C 	C 	-8.35506e-33	0.5638	0.75	-0.096
Mof_N 	N 	0.7476	0.0395	0.77	-0.291
Mof_N 	N 	0.2524	0.9605	0.77	-0.306
Mof_N 	N 	0.9605	0.7476	0.27	-0.308
Mof_N 	N 	0.0395	0.2524	0.27	-0.287
Mof_N 	N 	0.2524	0.0395	0.73	-0.287
Mof_N 	N 	0.7476	0.9605	0.73	-0.308
Mof_N 	N 	0.0395	0.7476	0.23	-0.291
Mof_N 	N 	0.9605	0.2524	0.23	-0.306
Mof_N 	N 	0.2524	0.9605	0.23	-0.306
Mof_N 	N 	0.7476	0.0395	0.23	-0.291
Mof_N 	N 	0.0395	0.2524	0.73	-0.287
Mof_N 	N 	0.9605	0.7476	0.73	-0.308
Mof_N 	N 	0.7476	0.9605	0.27	-0.308
Mof_N 	N 	0.2524	0.0395	0.27	-0.287
Mof_N 	N 	0.9605	0.2524	0.77	-0.306
Mof_N 	N 	0.0395	0.7476	0.77	-0.291
Mof_O 	O 	0.9308	0.0692	0.86526	-0.563
Mof_O 	O 	0.0692	0.9308	0.86526	-0.563
Mof_O 	O 	0.9308	0.9308	0.36526	-0.585
Mof_O 	O 	0.0692	0.0692	0.36526	-0.54
Mof_O 	O 	0.0692	0.0692	0.63474	-0.54
Mof_O 	O 	0.9308	0.9308	0.63474	-0.585
Mof_O 	O 	0.0692	0.9308	0.13474	-0.563
Mof_O 	O 	0.9308	0.0692	0.13474	-0.563
Mof_O 	O 	6.28146e-33	0	0.75	-0.948
Mof_O 	O 	2.09382e-33	0	0.25	-0.948
_end
