data_functionalizedCrystal
_audit_creation_method	'EQeq! by Chris Wilmer'
_symmetry_space_group_name_H-M	'P1'
_symmetry_Int_Tables_number	1
_symmetry_cell_setting	triclinic
loop_
_symmetry_equiv_pos_as_xyz
  x,y,z
_cell_length_a	13.643
_cell_length_b	19.7598
_cell_length_c	22.1834
_cell_angle_alpha	77.8882
_cell_angle_beta	72.0911
_cell_angle_gamma	69.8047
loop_
_atom_site_label
_atom_site_type_symbol
_atom_site_fract_x
_atom_site_fract_y
_atom_site_fract_z
_atom_site_charge
Mof_Mn	Mn	0.28511	0.45281	0.47359	0.916
Mof_Mn	Mn	0.71151	0.04719	0.02641	0.884
Mof_Mn	Mn	0.71489	0.54719	0.52641	0.92
Mof_Mn	Mn	0.28849	0.95281	0.97359	0.948
Mof_Mn	Mn	0.5	0.5	0.5	1.049
Mof_Mn	Mn	-0	0	-0	0.964
Mof_H 	H 	0.1291	0.6791	0.3975	-0.058
Mof_H 	H 	0.0631	0.8005	0.3661	0.226
Mof_H 	H 	0.2646	0.8432	0.439	0.278
Mof_H 	H 	0.3391	0.72	0.4648	-0.045
Mof_H 	H 	0.086	0.5581	0.4149	0.031
Mof_H 	H 	0.9181	0.4468	0.3874	0.069
Mof_H 	H 	0.9727	0.3033	0.4273	0.103
Mof_H 	H 	0.9669	0.0167	0.2045	-0.062
Mof_H 	H 	0.9617	0.0026	0.3102	0.288
Mof_H 	H 	0.2495	0.8533	0.2793	0.221
Mof_H 	H 	0.2605	0.8707	0.1721	-0.061
Mof_H 	H 	0.5472	0.3875	0.2783	-0.017
Mof_H 	H 	0.7136	0.3246	0.2204	0.217
Mof_H 	H 	0.8315	0.2853	0.3725	0.249
Mof_H 	H 	0.6658	0.3505	0.4295	-0.035
Mof_H 	H 	0.9441	0.5516	0.385	0.077
Mof_H 	H 	0.3977	0.2861	0.5309	0.031
Mof_H 	H 	0.2501	0.153	0.5092	0.123
Mof_H 	H 	0.373	0.169	0.5474	0.082
Mof_H 	H 	0.0942	0.2097	0.4533	0.155
Mof_H 	H 	0.7057	0.8209	0.1025	-0.053
Mof_H 	H 	0.7297	0.6995	0.1339	0.225
Mof_H 	H 	0.0468	0.6568	0.061	0.254
Mof_H 	H 	0.0239	0.78	0.0352	-0.064
Mof_H 	H 	0.559	0.9419	0.0851	0.029
Mof_H 	H 	0.2523	0.0532	0.1126	0.083
Mof_H 	H 	0.2033	0.1967	0.0727	0.088
Mof_H 	H 	0.6881	0.4833	0.2955	-0.051
Mof_H 	H 	0.7745	0.4974	0.1898	0.292
Mof_H 	H 	0.8821	0.6467	0.2207	0.219
Mof_H 	H 	0.8033	0.6293	0.3279	-0.056
Mof_H 	H 	0.713	0.1125	0.2217	-0.02
Mof_H 	H 	0.7586	0.1754	0.2796	0.218
Mof_H 	H 	0.9893	0.2147	0.1275	0.25
Mof_H 	H 	0.9458	0.1495	0.0705	-0.038
Mof_H 	H 	0.3807	0.9484	0.115	0.061
Mof_H 	H 	0.7147	0.2139	0.9691	0.023
Mof_H 	H 	0.4123	0.347	0.9908	0.112
Mof_H 	H 	0.5894	0.331	0.9526	0.104
Mof_H 	H 	0.2572	0.2903	0.0467	0.145
Mof_H 	H 	0.8709	0.3209	0.6025	-0.049
Mof_H 	H 	0.9369	0.1995	0.6339	0.23
Mof_H 	H 	0.7354	0.1568	0.561	0.272
Mof_H 	H 	0.6609	0.28	0.5352	-0.042
Mof_H 	H 	0.914	0.4419	0.5851	0.013
Mof_H 	H 	0.0819	0.5532	0.6126	0.052
Mof_H 	H 	0.0273	0.6967	0.5727	0.033
Mof_H 	H 	0.0331	0.9833	0.7955	-0.045
Mof_H 	H 	0.0383	0.9974	0.6898	0.296
Mof_H 	H 	0.7505	0.1467	0.7207	0.214
Mof_H 	H 	0.7395	0.1293	0.8279	-0.055
Mof_H 	H 	0.4528	0.6125	0.7217	-0.013
Mof_H 	H 	0.2864	0.6754	0.7796	0.216
Mof_H 	H 	0.1685	0.7147	0.6275	0.243
Mof_H 	H 	0.3342	0.6495	0.5705	-0.032
Mof_H 	H 	0.0559	0.4484	0.615	0.101
Mof_H 	H 	0.6023	0.7139	0.4691	0.036
Mof_H 	H 	0.7499	0.847	0.4908	0.142
Mof_H 	H 	0.627	0.831	0.4526	0.079
Mof_H 	H 	0.9058	0.7903	0.5467	0.201
Mof_H 	H 	0.2943	0.1791	0.8975	-0.052
Mof_H 	H 	0.2703	0.3005	0.8661	0.23
Mof_H 	H 	0.9532	0.3432	0.939	0.295
Mof_H 	H 	0.9761	0.22	0.9648	-0.021
Mof_H 	H 	0.441	0.0581	0.9149	0.016
Mof_H 	H 	0.7477	0.9468	0.8874	0.042
Mof_H 	H 	0.7967	0.8033	0.9273	0.054
Mof_H 	H 	0.3119	0.5167	0.7045	-0.052
Mof_H 	H 	0.2255	0.5026	0.8102	0.295
Mof_H 	H 	0.1179	0.3533	0.7793	0.216
Mof_H 	H 	0.1967	0.3707	0.6721	-0.061
Mof_H 	H 	0.287	0.8875	0.7783	-0.01
Mof_H 	H 	0.2414	0.8246	0.7204	0.214
Mof_H 	H 	0.0107	0.7853	0.8725	0.239
Mof_H 	H 	0.0542	0.8505	0.9295	-0.026
Mof_H 	H 	0.6193	0.0516	0.885	0.113
Mof_H 	H 	0.2853	0.7861	0.0309	0.042
Mof_H 	H 	0.5877	0.653	0.0092	0.15
Mof_H 	H 	0.4106	0.669	0.0474	0.061
Mof_H 	H 	0.7428	0.7097	0.9533	0.206
Mof_C 	C 	0.289	0.60673	0.45427	0.483
Mof_C 	C 	0.24153	0.68656	0.43518	-0.315
Mof_C 	C 	0.15814	0.71172	0.4052	0.317
Mof_C 	C 	0.11846	0.78458	0.3867	-0.448
Mof_C 	C 	0.15757	0.83432	0.39774	0.501
Mof_C 	C 	0.23877	0.81016	0.4291	-0.419
Mof_C 	C 	0.28164	0.73622	0.4459	0.316
Mof_C 	C 	0.0754	0.5132	0.4188	0.049
Mof_C 	C 	0.974	0.448	0.4024	0.007
Mof_C 	C 	0.0311	0.3092	0.4364	-0.009
Mof_C 	C 	0.1251	0.3898	0.4474	0.06
Mof_C 	C 	0.1925	0.3283	0.4737	0.02
Mof_C 	C 	0.02512	0.98439	0.21917	0.363
Mof_C 	C 	0.02146	0.97498	0.2825	-0.431
Mof_C 	C 	0.10382	0.92594	0.30622	0.517
Mof_C 	C 	0.19274	0.88702	0.2641	-0.432
Mof_C 	C 	0.19924	0.89702	0.1999	0.327
Mof_C 	C 	0.11528	0.94597	0.17667	-0.324
Mof_C 	C 	0.12238	0.95742	0.10702	0.483
Mof_C 	C 	0.1056	0.9157	0.3767	-0.64
Mof_C 	C 	0.99389	0.93862	0.4222	1.043
Mof_C 	C 	0.1664	0.9645	0.3821	1.036
Mof_C 	C 	0.47773	0.41064	0.3995	0.419
Mof_C 	C 	0.58931	0.37415	0.36043	-0.259
Mof_C 	C 	0.60425	0.36661	0.29749	0.263
Mof_C 	C 	0.70373	0.32822	0.26312	-0.383
Mof_C 	C 	0.7891	0.29504	0.29096	0.455
Mof_C 	C 	0.77429	0.305	0.35342	-0.377
Mof_C 	C 	0.67498	0.34416	0.38748	0.27
Mof_C 	C 	0.9556	0.304	0.2102	1.025
Mof_C 	C 	0.9908	0.509	0.4	-0.062
Mof_C 	C 	0.0397	0.3836	0.4274	-0.003
Mof_C 	C 	0.3424	0.28	0.5184	0.05
Mof_C 	C 	0.2539	0.1997	0.5069	-0.057
Mof_C 	C 	0.3288	0.2083	0.5273	-0.037
Mof_C 	C 	0.0968	0.2556	0.4554	-0.082
Mof_C 	C 	0.1762	0.2614	0.4804	0.069
Mof_C 	C 	0.85	0.89327	0.04573	0.476
Mof_C 	C 	0.86327	0.81344	0.06482	-0.312
Mof_C 	C 	0.77506	0.78828	0.0948	0.309
Mof_C 	C 	0.78974	0.71542	0.1133	-0.434
Mof_C 	C 	0.88963	0.66568	0.10226	0.483
Mof_C 	C 	0.97803	0.68984	0.0709	-0.387
Mof_C 	C 	0.96376	0.76378	0.0541	0.328
Mof_C 	C 	0.5074	0.9868	0.0812	0.07
Mof_C 	C 	0.3244	0.052	0.0976	-0.071
Mof_C 	C 	0.2767	0.1908	0.0636	-0.014
Mof_C 	C 	0.4623	0.1102	0.0526	0.04
Mof_C 	C 	0.4945	0.1717	0.0263	0.037
Mof_C 	C 	0.72868	0.51561	0.28083	0.344
Mof_C 	C 	0.77894	0.52502	0.2175	-0.426
Mof_C 	C 	0.83598	0.57406	0.19378	0.505
Mof_C 	C 	0.84386	0.61298	0.2359	-0.42
Mof_C 	C 	0.79616	0.60298	0.3001	0.318
Mof_C 	C 	0.73792	0.55403	0.32333	-0.315
Mof_C 	C 	0.68682	0.54258	0.39298	0.481
Mof_C 	C 	0.898	0.5843	0.1233	-0.6
Mof_C 	C 	0.85471	0.56138	0.0778	1.005
Mof_C 	C 	0.013	0.5355	0.1179	1.001
Mof_C 	C 	0.78787	0.08936	0.1005	0.416
Mof_C 	C 	0.82389	0.12585	0.13957	-0.262
Mof_C 	C 	0.76835	0.13339	0.20251	0.264
Mof_C 	C 	0.79507	0.17178	0.23688	-0.385
Mof_C 	C 	0.8751	0.20496	0.20904	0.457
Mof_C 	C 	0.93271	0.195	0.14658	-0.38
Mof_C 	C 	0.90662	0.15584	0.11252	0.272
Mof_C 	C 	0.9698	0.196	0.2898	1.035
Mof_C 	C 	0.3998	0.991	0.1	-0.024
Mof_C 	C 	0.3507	0.1164	0.0726	0.033
Mof_C 	C 	0.6408	0.22	0.9816	0.096
Mof_C 	C 	0.4605	0.3003	0.9931	0.006
Mof_C 	C 	0.5644	0.2917	0.9727	-0.079
Mof_C 	C 	0.3078	0.2444	0.0446	-0.06
Mof_C 	C 	0.418	0.2386	0.0196	0.022
Mof_C 	C 	0.711	0.39327	0.54573	0.481
Mof_C 	C 	0.75847	0.31344	0.56482	-0.307
Mof_C 	C 	0.84186	0.28828	0.5948	0.31
Mof_C 	C 	0.88154	0.21542	0.6133	-0.433
Mof_C 	C 	0.84243	0.16568	0.60226	0.49
Mof_C 	C 	0.76123	0.18984	0.5709	-0.406
Mof_C 	C 	0.71836	0.26378	0.5541	0.307
Mof_C 	C 	0.9246	0.4868	0.5812	0.125
Mof_C 	C 	0.026	0.552	0.5976	0.041
Mof_C 	C 	0.9689	0.6908	0.5636	0.132
Mof_C 	C 	0.8749	0.6102	0.5526	0.09
Mof_C 	C 	0.8075	0.6717	0.5263	-0.007
Mof_C 	C 	0.97488	0.01561	0.78083	0.334
Mof_C 	C 	0.97854	0.02502	0.7175	-0.428
Mof_C 	C 	0.89618	0.07406	0.69378	0.499
Mof_C 	C 	0.80726	0.11298	0.7359	-0.417
Mof_C 	C 	0.80076	0.10298	0.8001	0.31
Mof_C 	C 	0.88472	0.05403	0.82333	-0.308
Mof_C 	C 	0.87762	0.04258	0.89298	0.47
Mof_C 	C 	0.8944	0.0843	0.6233	-0.596
Mof_C 	C 	0.00611	0.06138	0.5778	0.978
Mof_C 	C 	0.8336	0.0355	0.6179	0.994
Mof_C 	C 	0.52227	0.58936	0.6005	0.417
Mof_C 	C 	0.41069	0.62585	0.63957	-0.253
Mof_C 	C 	0.39575	0.63339	0.70251	0.257
Mof_C 	C 	0.29627	0.67178	0.73688	-0.374
Mof_C 	C 	0.2109	0.70496	0.70904	0.444
Mof_C 	C 	0.22571	0.695	0.64658	-0.367
Mof_C 	C 	0.32502	0.65584	0.61252	0.263
Mof_C 	C 	0.0444	0.696	0.7898	0.993
Mof_C 	C 	0.0092	0.491	0.6	-0.151
Mof_C 	C 	0.9603	0.6164	0.5726	-0.035
Mof_C 	C 	0.6576	0.72	0.4816	0.04
Mof_C 	C 	0.7461	0.8003	0.4931	-0.09
Mof_C 	C 	0.6712	0.7917	0.4727	-0.011
Mof_C 	C 	0.9032	0.7444	0.5446	-0.19
Mof_C 	C 	0.8238	0.7386	0.5196	0.126
Mof_C 	C 	0.15	0.10673	0.95427	0.476
Mof_C 	C 	0.13673	0.18656	0.93518	-0.301
Mof_C 	C 	0.22494	0.21172	0.9052	0.312
Mof_C 	C 	0.21026	0.28458	0.8867	-0.442
Mof_C 	C 	0.11037	0.33432	0.89774	0.504
Mof_C 	C 	0.02197	0.31016	0.9291	-0.434
Mof_C 	C 	0.03624	0.23622	0.9459	0.291
Mof_C 	C 	0.4926	0.0132	0.9188	0.104
Mof_C 	C 	0.6756	0.948	0.9024	0.105
Mof_C 	C 	0.7233	0.8092	0.9364	0.121
Mof_C 	C 	0.5377	0.8898	0.9474	0.104
Mof_C 	C 	0.5055	0.8283	0.9737	-0.018
Mof_C 	C 	0.27132	0.48439	0.71917	0.35
Mof_C 	C 	0.22106	0.47498	0.7825	-0.436
Mof_C 	C 	0.16402	0.42594	0.80622	0.512
Mof_C 	C 	0.15614	0.38702	0.7641	-0.431
Mof_C 	C 	0.20384	0.39702	0.6999	0.322
Mof_C 	C 	0.26208	0.44597	0.67667	-0.32
Mof_C 	C 	0.31318	0.45742	0.60702	0.482
Mof_C 	C 	0.102	0.4157	0.8767	-0.633
Mof_C 	C 	0.14529	0.43862	0.9222	1.01
Mof_C 	C 	0.987	0.4645	0.8821	1.03
Mof_C 	C 	0.21213	0.91064	0.8995	0.411
Mof_C 	C 	0.17611	0.87415	0.86043	-0.245
Mof_C 	C 	0.23165	0.86661	0.79749	0.251
Mof_C 	C 	0.20493	0.82822	0.76312	-0.368
Mof_C 	C 	0.1249	0.79504	0.79096	0.439
Mof_C 	C 	0.06729	0.805	0.85342	-0.362
Mof_C 	C 	0.09338	0.84416	0.88748	0.257
Mof_C 	C 	0.0302	0.804	0.7102	0.98
Mof_C 	C 	0.6002	0.009	0.9	-0.177
Mof_C 	C 	0.6493	0.8836	0.9274	-0.061
Mof_C 	C 	0.3592	0.78	0.0184	0.002
Mof_C 	C 	0.5395	0.6997	0.0069	-0.141
Mof_C 	C 	0.4356	0.7083	0.0273	0.022
Mof_C 	C 	0.6922	0.7556	0.9554	-0.197
Mof_C 	C 	0.582	0.7614	0.9804	0.161
Mof_C 	C 	0.8985	0.25	0.25	-0.61
Mof_C 	C 	0.1015	0.75	0.75	-0.586
Mof_N 	N 	0.14231	0.45438	0.4426	-0.174
Mof_N 	N 	0.27505	0.3373	0.4922	-0.161
Mof_N 	N 	0.53929	0.04562	0.0574	-0.182
Mof_N 	N 	0.60455	0.1627	0.0078	-0.181
Mof_N 	N 	0.85769	0.54562	0.5574	-0.188
Mof_N 	N 	0.72495	0.6627	0.5078	-0.154
Mof_N 	N 	0.46071	0.95438	0.9426	-0.181
Mof_N 	N 	0.39545	0.8373	0.9922	-0.138
Mof_O 	O 	0.37314	0.58838	0.47134	-0.416
Mof_O 	O 	0.23863	0.56527	0.45147	-0.415
Mof_O 	O 	0.46684	0.42131	0.45555	-0.438
Mof_O 	O 	0.40008	0.42641	0.37683	-0.343
Mof_O 	O 	0.0362	0.97882	0.09018	-0.396
Mof_O 	O 	0.21648	0.9443	0.07074	-0.429
Mof_O 	O 	0.93286	0.91162	0.02866	-0.392
Mof_O 	O 	0.75537	0.93473	0.04853	-0.399
Mof_O 	O 	0.8437	0.07869	0.04445	-0.434
Mof_O 	O 	0.70332	0.07359	0.12317	-0.344
Mof_O 	O 	0.6052	0.52118	0.40982	-0.405
Mof_O 	O 	0.73152	0.5557	0.42926	-0.423
Mof_O 	O 	0.62686	0.41162	0.52866	-0.415
Mof_O 	O 	0.76137	0.43473	0.54853	-0.411
Mof_O 	O 	0.53316	0.57869	0.54445	-0.437
Mof_O 	O 	0.59992	0.57359	0.62317	-0.34
Mof_O 	O 	0.9638	0.02118	0.90982	-0.386
Mof_O 	O 	0.78352	0.0557	0.92926	-0.409
Mof_O 	O 	0.06714	0.08838	0.97134	-0.406
Mof_O 	O 	0.24463	0.06527	0.95147	-0.417
Mof_O 	O 	0.1563	0.92131	0.95555	-0.419
Mof_O 	O 	0.29668	0.92641	0.87683	-0.336
Mof_O 	O 	0.3948	0.47882	0.59018	-0.406
Mof_O 	O 	0.26848	0.4443	0.57074	-0.424
Mof_F 	F 	0.27171	0.94092	0.35026	-0.491
Mof_F 	F 	0.16702	0.96781	0.44095	-0.422
Mof_F 	F 	0.13072	0.03219	0.35657	-0.43
Mof_F 	F 	0.94622	0.01078	0.41858	-0.412
Mof_F 	F 	0.99552	0.91691	0.48245	-0.414
Mof_F 	F 	0.92455	0.91115	0.41115	-0.506
Mof_F 	F 	0.95766	0.35092	0.24516	-0.444
Mof_F 	F 	0.90683	0.34487	0.16507	-0.462
Mof_F 	F 	0.05804	0.27411	0.17981	-0.468
Mof_F 	F 	0.06289	0.55908	0.14974	-0.496
Mof_F 	F 	0.07578	0.53219	0.05905	-0.428
Mof_F 	F 	0.01948	0.46781	0.14343	-0.417
Mof_F 	F 	0.87558	0.48922	0.08142	-0.398
Mof_F 	F 	0.89488	0.58309	0.01755	-0.423
Mof_F 	F 	0.74685	0.58885	0.08885	-0.513
Mof_F 	F 	0.05374	0.14908	0.25484	-0.462
Mof_F 	F 	0.91677	0.15513	0.33493	-0.463
Mof_F 	F 	0.01196	0.22589	0.32019	-0.47
Mof_F 	F 	0.72829	0.05908	0.64974	-0.494
Mof_F 	F 	0.83298	0.03219	0.55905	-0.423
Mof_F 	F 	0.86928	0.96781	0.64343	-0.391
Mof_F 	F 	0.05378	0.98922	0.58142	-0.386
Mof_F 	F 	0.00448	0.08309	0.51755	-0.424
Mof_F 	F 	0.07545	0.08885	0.58885	-0.514
Mof_F 	F 	0.04234	0.64908	0.75484	-0.45
Mof_F 	F 	0.09317	0.65513	0.83493	-0.459
Mof_F 	F 	0.94196	0.72589	0.82019	-0.439
Mof_F 	F 	0.93711	0.44092	0.85026	-0.489
Mof_F 	F 	0.92422	0.46781	0.94095	-0.415
Mof_F 	F 	0.98052	0.53219	0.85657	-0.405
Mof_F 	F 	0.12442	0.51078	0.91858	-0.398
Mof_F 	F 	0.10512	0.41691	0.98245	-0.415
Mof_F 	F 	0.25315	0.41115	0.91115	-0.507
Mof_F 	F 	0.94626	0.85092	0.74516	-0.43
Mof_F 	F 	0.08323	0.84487	0.66507	-0.459
Mof_F 	F 	0.98804	0.77411	0.67981	-0.437
_end
