data_functionalizedCrystal
_audit_creation_method	'EQeq! by Chris Wilmer'
_symmetry_space_group_name_H-M	'P1'
_symmetry_Int_Tables_number	1
_symmetry_cell_setting	triclinic
loop_
_symmetry_equiv_pos_as_xyz
  x,y,z
_cell_length_a	9.6398
_cell_length_b	13.065
_cell_length_c	21.054
_cell_angle_alpha	102.46
_cell_angle_beta	102.39
_cell_angle_gamma	99.52
loop_
_atom_site_label
_atom_site_type_symbol
_atom_site_fract_x
_atom_site_fract_y
_atom_site_fract_z
_atom_site_charge
Mof_Cd	Cd	0.08026	0.83052	0.1042	0.439
Mof_Cd	Cd	0.83287	0.10745	0.54436	0.446
Mof_Cd	Cd	0.91974	0.16948	0.8958	0.44
Mof_Cd	Cd	0.16713	0.89255	0.45564	0.447
Mof_H 	H 	0.5426	0.7348	0.1712	0.047
Mof_H 	H 	0.7537	0.7259	0.2441	0.045
Mof_H 	H 	0.4667	0.952	0.318	0.049
Mof_H 	H 	0.7663	0.6469	0.1072	0.008
Mof_H 	H 	0.1612	0.6198	0.172	0.016
Mof_H 	H 	0.0591	0.4025	0.1786	0.025
Mof_H 	H 	0.0923	0.4845	0.2491	0.019
Mof_H 	H 	0.9983	0.5623	0.3102	0.306
Mof_H 	H 	0.8534	0.5696	0.3316	0.297
Mof_H 	H 	0.9722	0.5237	0.3731	0.299
Mof_H 	H 	0.929	0.2052	0.115	0.324
Mof_H 	H 	0.7681	0.2052	0.0803	0.334
Mof_H 	H 	0.8901	0.3103	0.0991	0.33
Mof_H 	H 	0.5531	0.2046	0.3186	0.308
Mof_H 	H 	0.5075	0.1261	0.2462	0.306
Mof_H 	H 	0.6389	0.115	0.3009	0.314
Mof_H 	H 	0.6064	0.3594	0.3596	0.005
Mof_H 	H 	0.7326	0.4624	0.3805	0.011
Mof_H 	H 	0.6373	0.2488	0.4472	0.002
Mof_H 	H 	0.0557	0.3191	0.5127	0.021
Mof_H 	H 	0.6421	0.0963	0.1099	0.021
Mof_H 	H 	0.5821	0.0634	0.1679	0.026
Mof_H 	H 	0.8061	0.9715	0.0739	0.029
Mof_H 	H 	0.9735	0.9224	0.2456	0.028
Mof_H 	H 	0.9141	0.5822	0.9853	0.011
Mof_H 	H 	0.845	0.8587	0.9671	0.039
Mof_H 	H 	0.5478	0.6944	0.8553	0.015
Mof_H 	H 	0.6502	0.8004	0.8545	0.021
Mof_H 	H 	0.5112	0.4323	0.781	0.32
Mof_H 	H 	0.5107	0.5397	0.8314	0.324
Mof_H 	H 	0.3875	0.494	0.764	0.308
Mof_H 	H 	0.7769	0.8894	0.7643	0.324
Mof_H 	H 	0.8338	0.8573	0.8311	0.324
Mof_H 	H 	0.924	0.8514	0.7772	0.321
Mof_H 	H 	0.7646	0.4939	0.5821	0.281
Mof_H 	H 	0.5939	0.4652	0.5595	0.28
Mof_H 	H 	0.6801	0.5757	0.5559	0.284
Mof_H 	H 	0.4453	0.4014	0.6042	0.006
Mof_H 	H 	0.4299	0.3822	0.6737	0.014
Mof_H 	H 	0.5233	0.2285	0.5518	0.009
Mof_H 	H 	0.8445	0.2358	0.6989	0.026
Mof_H 	H 	0.8827	0.6817	0.6202	0.023
Mof_H 	H 	0.9504	0.7697	0.6885	0.017
Mof_H 	H 	0.9803	0.919	0.6205	0.027
Mof_H 	H 	0.5695	0.9117	0.5586	0.032
Mof_H 	H 	0.4574	0.2652	0.8288	0.047
Mof_H 	H 	0.2463	0.2741	0.7559	0.045
Mof_H 	H 	0.5333	0.048	0.682	0.049
Mof_H 	H 	0.2337	0.3531	0.8928	0.008
Mof_H 	H 	0.8388	0.3802	0.828	0.016
Mof_H 	H 	0.9409	0.5975	0.8214	0.025
Mof_H 	H 	0.9077	0.5155	0.7509	0.019
Mof_H 	H 	0.0017	0.4377	0.6898	0.306
Mof_H 	H 	0.1466	0.4304	0.6684	0.297
Mof_H 	H 	0.0278	0.4763	0.6269	0.299
Mof_H 	H 	0.071	0.7948	0.885	0.324
Mof_H 	H 	0.2319	0.7948	0.9197	0.334
Mof_H 	H 	0.1099	0.6897	0.9009	0.33
Mof_H 	H 	0.4469	0.7954	0.6814	0.308
Mof_H 	H 	0.4925	0.8739	0.7538	0.306
Mof_H 	H 	0.3611	0.885	0.6991	0.314
Mof_H 	H 	0.3936	0.6406	0.6404	0.005
Mof_H 	H 	0.2674	0.5376	0.6195	0.011
Mof_H 	H 	0.3627	0.7512	0.5528	0.002
Mof_H 	H 	0.9443	0.6809	0.4873	0.021
Mof_H 	H 	0.3579	0.9037	0.8901	0.021
Mof_H 	H 	0.4179	0.9366	0.8321	0.026
Mof_H 	H 	0.1939	0.0285	0.9261	0.029
Mof_H 	H 	0.0265	0.0776	0.7544	0.028
Mof_H 	H 	0.0859	0.4178	0.0147	0.011
Mof_H 	H 	0.155	0.1413	0.0329	0.039
Mof_H 	H 	0.4522	0.3056	0.1447	0.015
Mof_H 	H 	0.3498	0.1996	0.1455	0.021
Mof_H 	H 	0.4888	0.5677	0.219	0.32
Mof_H 	H 	0.4893	0.4603	0.1686	0.324
Mof_H 	H 	0.6125	0.506	0.236	0.308
Mof_H 	H 	0.2231	0.1106	0.2357	0.324
Mof_H 	H 	0.1662	0.1427	0.1689	0.324
Mof_H 	H 	0.076	0.1486	0.2228	0.321
Mof_H 	H 	0.2354	0.5061	0.4179	0.281
Mof_H 	H 	0.4061	0.5348	0.4405	0.28
Mof_H 	H 	0.3199	0.4243	0.4441	0.284
Mof_H 	H 	0.5547	0.5986	0.3958	0.006
Mof_H 	H 	0.5701	0.6178	0.3263	0.014
Mof_H 	H 	0.4767	0.7715	0.4482	0.009
Mof_H 	H 	0.1555	0.7642	0.3011	0.026
Mof_H 	H 	0.1173	0.3183	0.3798	0.023
Mof_H 	H 	0.0496	0.2303	0.3115	0.017
Mof_H 	H 	0.0197	0.081	0.3795	0.027
Mof_H 	H 	0.4305	0.0883	0.4414	0.032
Mof_C 	C 	0.3385	0.8404	0.1917	0.289
Mof_C 	C 	0.4816	0.8424	0.2376	-0.06
Mof_C 	C 	0.5692	0.7762	0.2156	-0.02
Mof_C 	C 	0.6959	0.7712	0.2591	-0.044
Mof_C 	C 	0.7374	0.8336	0.32536	-0.034
Mof_C 	C 	0.6544	0.9058	0.34714	-0.049
Mof_C 	C 	0.5252	0.9071	0.30325	-0.009
Mof_C 	C 	0.8677	0.8196	0.3734	0.302
Mof_C 	C 	0.7078	0.982	0.41615	0.287
Mof_C 	C 	0.8459	0.6225	0.127	0.088
Mof_C 	C 	0.0603	0.6093	0.1621	0.093
Mof_C 	C 	0.0171	0.4491	0.2078	0.044
Mof_C 	C 	0.8944	0.3807	0.2244	-0.28
Mof_C 	C 	0.8563	0.4165	0.2842	0.359
Mof_C 	C 	0.7527	0.3468	0.3024	-0.275
Mof_C 	C 	0.6913	0.2418	0.2614	0.37
Mof_C 	C 	0.7281	0.2088	0.2006	-0.282
Mof_C 	C 	0.8265	0.2796	0.1809	0.379
Mof_C 	C 	0.9264	0.5282	0.3288	-0.893
Mof_C 	C 	0.8561	0.2471	0.1126	-0.951
Mof_C 	C 	0.5882	0.1648	0.2838	-0.905
Mof_C 	C 	0.7105	0.3845	0.3671	0.059
Mof_C 	C 	0.7357	0.278	0.4539	0.084
Mof_C 	C 	0.962	0.3175	0.4887	0.081
Mof_C 	C 	0.6691	0.0949	0.1568	0.056
Mof_C 	C 	0.8296	0.9732	0.1193	0.071
Mof_C 	C 	0.919	0.948	0.2129	0.075
Mof_C 	C 	0.877	0.6347	0.968	0.082
Mof_C 	C 	0.8416	0.7854	0.9594	0.069
Mof_C 	C 	0.643	0.7242	0.8506	0.049
Mof_C 	C 	0.656	0.6706	0.78186	-0.282
Mof_C 	C 	0.579	0.5645	0.75	0.381
Mof_C 	C 	0.5869	0.5167	0.6846	-0.275
Mof_C 	C 	0.6742	0.5728	0.6523	0.348
Mof_C 	C 	0.7558	0.6767	0.6863	-0.272
Mof_C 	C 	0.7457	0.7264	0.7501	0.369
Mof_C 	C 	0.489	0.502	0.7848	-0.937
Mof_C 	C 	0.8276	0.8417	0.7838	-0.938
Mof_C 	C 	0.6786	0.5223	0.5809	-0.847
Mof_C 	C 	0.4994	0.4031	0.6491	0.061
Mof_C 	C 	0.5909	0.2468	0.5935	0.098
Mof_C 	C 	0.7633	0.2521	0.6738	0.08
Mof_C 	C 	0.8603	0.7344	0.6544	0.051
Mof_C 	C 	0.8793	0.8994	0.6106	0.095
Mof_C 	C 	0.6556	0.8935	0.5771	0.085
Mof_C 	C 	0.6615	0.1596	0.8083	0.289
Mof_C 	C 	0.5184	0.1576	0.7624	-0.06
Mof_C 	C 	0.4308	0.2238	0.7844	-0.02
Mof_C 	C 	0.3041	0.2288	0.7409	-0.044
Mof_C 	C 	0.2626	0.1664	0.67464	-0.034
Mof_C 	C 	0.3456	0.0942	0.65286	-0.049
Mof_C 	C 	0.4748	0.0929	0.69675	-0.009
Mof_C 	C 	0.1323	0.1804	0.6266	0.302
Mof_C 	C 	0.2922	0.018	0.58385	0.287
Mof_C 	C 	0.1541	0.3775	0.873	0.088
Mof_C 	C 	0.9397	0.3907	0.8379	0.093
Mof_C 	C 	0.9829	0.5509	0.7922	0.044
Mof_C 	C 	0.1056	0.6193	0.7756	-0.28
Mof_C 	C 	0.1437	0.5835	0.7158	0.359
Mof_C 	C 	0.2473	0.6532	0.6976	-0.275
Mof_C 	C 	0.3087	0.7582	0.7386	0.37
Mof_C 	C 	0.2719	0.7912	0.7994	-0.282
Mof_C 	C 	0.1735	0.7204	0.8191	0.379
Mof_C 	C 	0.0736	0.4718	0.6712	-0.893
Mof_C 	C 	0.1439	0.7529	0.8874	-0.951
Mof_C 	C 	0.4118	0.8352	0.7162	-0.905
Mof_C 	C 	0.2895	0.6155	0.6329	0.059
Mof_C 	C 	0.2643	0.722	0.5461	0.084
Mof_C 	C 	0.038	0.6825	0.5113	0.081
Mof_C 	C 	0.3309	0.9051	0.8432	0.056
Mof_C 	C 	0.1704	0.0268	0.8807	0.071
Mof_C 	C 	0.081	0.052	0.7871	0.075
Mof_C 	C 	0.123	0.3653	0.032	0.082
Mof_C 	C 	0.1584	0.2146	0.0406	0.069
Mof_C 	C 	0.357	0.2758	0.1494	0.049
Mof_C 	C 	0.344	0.3294	0.21814	-0.282
Mof_C 	C 	0.421	0.4355	0.25	0.381
Mof_C 	C 	0.4131	0.4833	0.3154	-0.275
Mof_C 	C 	0.3258	0.4272	0.3477	0.348
Mof_C 	C 	0.2442	0.3233	0.3137	-0.272
Mof_C 	C 	0.2543	0.2736	0.2499	0.369
Mof_C 	C 	0.511	0.498	0.2152	-0.937
Mof_C 	C 	0.1724	0.1583	0.2162	-0.938
Mof_C 	C 	0.3214	0.4777	0.4191	-0.847
Mof_C 	C 	0.5006	0.5969	0.3509	0.061
Mof_C 	C 	0.4091	0.7532	0.4065	0.098
Mof_C 	C 	0.2367	0.7479	0.3262	0.08
Mof_C 	C 	0.1397	0.2656	0.3456	0.051
Mof_C 	C 	0.1207	0.1006	0.3894	0.095
Mof_C 	C 	0.3444	0.1065	0.4229	0.085
Mof_N 	N 	0.984	0.6702	0.13335	-0.15
Mof_N 	N 	0.9728	0.5318	0.17457	-0.108
Mof_N 	N 	0.8336	0.5371	0.1514	-0.101
Mof_N 	N 	0.7876	0.345	0.42144	-0.109
Mof_N 	N 	0.9357	0.3729	0.444	-0.103
Mof_N 	N 	0.8419	0.2582	0.49701	-0.15
Mof_N 	N 	0.7757	0.0283	0.16566	-0.102
Mof_N 	N 	0.8325	0.0139	0.2268	-0.094
Mof_N 	N 	0.9221	0.921	0.14791	-0.149
Mof_N 	N 	0.9211	0.7408	0.99997	-0.15
Mof_N 	N 	0.7559	0.7106	0.9059	-0.104
Mof_N 	N 	0.7776	0.612	0.9104	-0.099
Mof_N 	N 	0.5937	0.3265	0.64421	-0.108
Mof_N 	N 	0.7051	0.3307	0.69796	-0.097
Mof_N 	N 	0.6953	0.196	0.60874	-0.146
Mof_N 	N 	0.8034	0.8145	0.62358	-0.104
Mof_N 	N 	0.6585	0.8084	0.6013	-0.102
Mof_N 	N 	0.7878	0.9514	0.58135	-0.137
Mof_N 	N 	0.016	0.3298	0.86665	-0.15
Mof_N 	N 	0.0272	0.4682	0.82543	-0.108
Mof_N 	N 	0.1664	0.4629	0.8486	-0.101
Mof_N 	N 	0.2124	0.655	0.57856	-0.109
Mof_N 	N 	0.0643	0.6271	0.556	-0.103
Mof_N 	N 	0.1581	0.7418	0.50299	-0.15
Mof_N 	N 	0.2243	0.9717	0.83434	-0.102
Mof_N 	N 	0.1675	0.9861	0.7732	-0.094
Mof_N 	N 	0.0779	0.079	0.85209	-0.149
Mof_N 	N 	0.0789	0.2592	3e-05	-0.15
Mof_N 	N 	0.2441	0.2894	0.0941	-0.104
Mof_N 	N 	0.2224	0.388	0.0896	-0.099
Mof_N 	N 	0.4063	0.6735	0.35579	-0.108
Mof_N 	N 	0.2949	0.6693	0.30204	-0.097
Mof_N 	N 	0.3047	0.804	0.39126	-0.146
Mof_N 	N 	0.1966	0.1855	0.37642	-0.104
Mof_N 	N 	0.3415	0.1916	0.3987	-0.102
Mof_N 	N 	0.2122	0.0486	0.41865	-0.137
Mof_Cl	Cl	0.20325	0.96675	0.0521	-0.383
Mof_Cl	Cl	0.79675	0.03325	0.9479	-0.383
Mof_O 	O 	0.3013	0.7773	0.1325	-0.262
Mof_O 	O 	0.2567	0.8972	0.21214	-0.279
Mof_O 	O 	0.6196	0.0114	0.44739	-0.267
Mof_O 	O 	0.844	0.015	0.44016	-0.263
Mof_O 	O 	0.8451	0.7805	0.4199	-0.261
Mof_O 	O 	0.9877	0.8428	0.3608	-0.286
Mof_O 	O 	0.6987	0.2227	0.8675	-0.262
Mof_O 	O 	0.7433	0.1028	0.78786	-0.279
Mof_O 	O 	0.3804	0.9886	0.55261	-0.267
Mof_O 	O 	0.156	0.985	0.55984	-0.263
Mof_O 	O 	0.1549	0.2195	0.5801	-0.261
Mof_O 	O 	0.0123	0.1572	0.6392	-0.286
_end
