data_functionalizedCrystal
_audit_creation_method	'EQeq! by Chris Wilmer'
_symmetry_space_group_name_H-M	'P1'
_symmetry_Int_Tables_number	1
_symmetry_cell_setting	triclinic
loop_
_symmetry_equiv_pos_as_xyz
  x,y,z
_cell_length_a	25.654
_cell_length_b	25.654
_cell_length_c	25.654
_cell_angle_alpha	90
_cell_angle_beta	90
_cell_angle_gamma	90
loop_
_atom_site_label
_atom_site_type_symbol
_atom_site_fract_x
_atom_site_fract_y
_atom_site_fract_z
_atom_site_charge
Mof_O 	O 	0.2146	0.1334	0.2146	-0.445
Mof_C 	C 	0.2189	0.023	0.2189	-0.016
Mof_O 	O 	0.2146	0.6334	0.7146	-0.445
Mof_C 	C 	0.2189	0.523	0.7189	-0.016
Mof_O 	O 	0.7146	0.1334	0.7146	-0.445
Mof_C 	C 	0.7189	0.023	0.7189	-0.016
Mof_O 	O 	0.7146	0.6334	0.2146	-0.445
Mof_C 	C 	0.7189	0.523	0.2189	-0.016
Mof_O 	O 	0.7854	0.8666	0.2146	-0.445
Mof_C 	C 	0.7811	0.977	0.2189	-0.016
Mof_O 	O 	0.7854	0.3666	0.7146	-0.445
Mof_C 	C 	0.7811	0.477	0.7189	-0.016
Mof_O 	O 	0.2854	0.8666	0.7146	-0.445
Mof_C 	C 	0.2811	0.977	0.7189	-0.016
Mof_O 	O 	0.2854	0.3666	0.2146	-0.445
Mof_C 	C 	0.2811	0.477	0.2189	-0.016
Mof_O 	O 	0.7854	0.1334	0.7854	-0.445
Mof_C 	C 	0.7811	0.023	0.7811	-0.016
Mof_O 	O 	0.7854	0.6334	0.2854	-0.445
Mof_C 	C 	0.7811	0.523	0.2811	-0.016
Mof_O 	O 	0.2854	0.1334	0.2854	-0.445
Mof_C 	C 	0.2811	0.023	0.2811	-0.016
Mof_O 	O 	0.2854	0.6334	0.7854	-0.445
Mof_C 	C 	0.2811	0.523	0.7811	-0.016
Mof_O 	O 	0.2146	0.8666	0.7854	-0.445
Mof_C 	C 	0.2189	0.977	0.7811	-0.016
Mof_O 	O 	0.2146	0.3666	0.2854	-0.445
Mof_C 	C 	0.2189	0.477	0.2811	-0.016
Mof_O 	O 	0.7146	0.8666	0.2854	-0.445
Mof_C 	C 	0.7189	0.977	0.2811	-0.016
Mof_O 	O 	0.7146	0.3666	0.7854	-0.445
Mof_C 	C 	0.7189	0.477	0.7811	-0.016
Mof_O 	O 	0.2146	0.2146	0.1334	-0.444
Mof_C 	C 	0.2189	0.2189	0.023	-0.015
Mof_O 	O 	0.2146	0.7146	0.6334	-0.444
Mof_C 	C 	0.2189	0.7189	0.523	-0.015
Mof_O 	O 	0.7146	0.2146	0.6334	-0.444
Mof_C 	C 	0.7189	0.2189	0.523	-0.015
Mof_O 	O 	0.7146	0.7146	0.1334	-0.444
Mof_C 	C 	0.7189	0.7189	0.023	-0.015
Mof_O 	O 	0.2146	0.7854	0.8666	-0.444
Mof_C 	C 	0.2189	0.7811	0.977	-0.015
Mof_O 	O 	0.2146	0.2854	0.3666	-0.444
Mof_C 	C 	0.2189	0.2811	0.477	-0.015
Mof_O 	O 	0.7146	0.7854	0.3666	-0.444
Mof_C 	C 	0.7189	0.7811	0.477	-0.015
Mof_O 	O 	0.7146	0.2854	0.8666	-0.444
Mof_C 	C 	0.7189	0.2811	0.977	-0.015
Mof_O 	O 	0.7854	0.7854	0.1334	-0.444
Mof_C 	C 	0.7811	0.7811	0.023	-0.015
Mof_O 	O 	0.7854	0.2854	0.6334	-0.444
Mof_C 	C 	0.7811	0.2811	0.523	-0.015
Mof_O 	O 	0.2854	0.7854	0.6334	-0.444
Mof_C 	C 	0.2811	0.7811	0.523	-0.015
Mof_O 	O 	0.2854	0.2854	0.1334	-0.444
Mof_C 	C 	0.2811	0.2811	0.023	-0.015
Mof_O 	O 	0.7854	0.2146	0.8666	-0.444
Mof_C 	C 	0.7811	0.2189	0.977	-0.015
Mof_O 	O 	0.7854	0.7146	0.3666	-0.444
Mof_C 	C 	0.7811	0.7189	0.477	-0.015
Mof_O 	O 	0.2854	0.2146	0.3666	-0.444
Mof_C 	C 	0.2811	0.2189	0.477	-0.015
Mof_O 	O 	0.2854	0.7146	0.8666	-0.444
Mof_C 	C 	0.2811	0.7189	0.977	-0.015
Mof_O 	O 	0.1334	0.2146	0.2146	-0.444
Mof_C 	C 	0.023	0.2189	0.2189	-0.015
Mof_O 	O 	0.1334	0.7146	0.7146	-0.444
Mof_C 	C 	0.023	0.7189	0.7189	-0.015
Mof_O 	O 	0.6334	0.2146	0.7146	-0.444
Mof_C 	C 	0.523	0.2189	0.7189	-0.015
Mof_O 	O 	0.6334	0.7146	0.2146	-0.444
Mof_C 	C 	0.523	0.7189	0.2189	-0.015
Mof_O 	O 	0.8666	0.2146	0.7854	-0.444
Mof_C 	C 	0.977	0.2189	0.7811	-0.015
Mof_O 	O 	0.8666	0.7146	0.2854	-0.444
Mof_C 	C 	0.977	0.7189	0.2811	-0.015
Mof_O 	O 	0.3666	0.2146	0.2854	-0.444
Mof_C 	C 	0.477	0.2189	0.2811	-0.015
Mof_O 	O 	0.3666	0.7146	0.7854	-0.444
Mof_C 	C 	0.477	0.7189	0.7811	-0.015
Mof_O 	O 	0.1334	0.7854	0.7854	-0.444
Mof_C 	C 	0.023	0.7811	0.7811	-0.015
Mof_O 	O 	0.1334	0.2854	0.2854	-0.444
Mof_C 	C 	0.023	0.2811	0.2811	-0.015
Mof_O 	O 	0.6334	0.7854	0.2854	-0.444
Mof_C 	C 	0.523	0.7811	0.2811	-0.015
Mof_O 	O 	0.6334	0.2854	0.7854	-0.444
Mof_C 	C 	0.523	0.2811	0.7811	-0.015
Mof_O 	O 	0.8666	0.7854	0.2146	-0.444
Mof_C 	C 	0.977	0.7811	0.2189	-0.015
Mof_O 	O 	0.8666	0.2854	0.7146	-0.444
Mof_C 	C 	0.977	0.2811	0.7189	-0.015
Mof_O 	O 	0.3666	0.7854	0.7146	-0.444
Mof_C 	C 	0.477	0.7811	0.7189	-0.015
Mof_O 	O 	0.3666	0.2854	0.2146	-0.444
Mof_C 	C 	0.477	0.2811	0.2189	-0.015
Mof_O 	O 	0.1334	0.2146	0.7854	-0.444
Mof_C 	C 	0.023	0.2189	0.7811	-0.015
Mof_O 	O 	0.1334	0.7146	0.2854	-0.444
Mof_C 	C 	0.023	0.7189	0.2811	-0.015
Mof_O 	O 	0.6334	0.2146	0.2854	-0.444
Mof_C 	C 	0.523	0.2189	0.2811	-0.015
Mof_O 	O 	0.6334	0.7146	0.7854	-0.444
Mof_C 	C 	0.523	0.7189	0.7811	-0.015
Mof_O 	O 	0.8666	0.7854	0.7854	-0.444
Mof_C 	C 	0.977	0.7811	0.7811	-0.015
Mof_O 	O 	0.8666	0.2854	0.2854	-0.444
Mof_C 	C 	0.977	0.2811	0.2811	-0.015
Mof_O 	O 	0.3666	0.7854	0.2854	-0.444
Mof_C 	C 	0.477	0.7811	0.2811	-0.015
Mof_O 	O 	0.3666	0.2854	0.7854	-0.444
Mof_C 	C 	0.477	0.2811	0.7811	-0.015
Mof_O 	O 	0.1334	0.7854	0.2146	-0.444
Mof_C 	C 	0.023	0.7811	0.2189	-0.015
Mof_O 	O 	0.1334	0.2854	0.7146	-0.444
Mof_C 	C 	0.023	0.2811	0.7189	-0.015
Mof_O 	O 	0.6334	0.7854	0.7146	-0.444
Mof_C 	C 	0.523	0.7811	0.7189	-0.015
Mof_O 	O 	0.6334	0.2854	0.2146	-0.444
Mof_C 	C 	0.523	0.2811	0.2189	-0.015
Mof_O 	O 	0.8666	0.2146	0.2146	-0.444
Mof_C 	C 	0.977	0.2189	0.2189	-0.015
Mof_O 	O 	0.8666	0.7146	0.7146	-0.444
Mof_C 	C 	0.977	0.7189	0.7189	-0.015
Mof_O 	O 	0.3666	0.2146	0.7146	-0.444
Mof_C 	C 	0.477	0.2189	0.7189	-0.015
Mof_O 	O 	0.3666	0.7146	0.2146	-0.444
Mof_C 	C 	0.477	0.7189	0.2189	-0.015
Mof_O 	O 	0.2146	0.2146	0.8666	-0.444
Mof_C 	C 	0.2189	0.2189	0.977	-0.015
Mof_O 	O 	0.2146	0.7146	0.3666	-0.444
Mof_C 	C 	0.2189	0.7189	0.477	-0.015
Mof_O 	O 	0.7146	0.2146	0.3666	-0.444
Mof_C 	C 	0.7189	0.2189	0.477	-0.015
Mof_O 	O 	0.7146	0.7146	0.8666	-0.444
Mof_C 	C 	0.7189	0.7189	0.977	-0.015
Mof_O 	O 	0.7854	0.2146	0.1334	-0.444
Mof_C 	C 	0.7811	0.2189	0.023	-0.015
Mof_O 	O 	0.7854	0.7146	0.6334	-0.444
Mof_C 	C 	0.7811	0.7189	0.523	-0.015
Mof_O 	O 	0.2854	0.2146	0.6334	-0.444
Mof_C 	C 	0.2811	0.2189	0.523	-0.015
Mof_O 	O 	0.2854	0.7146	0.1334	-0.444
Mof_C 	C 	0.2811	0.7189	0.023	-0.015
Mof_O 	O 	0.7854	0.7854	0.8666	-0.444
Mof_C 	C 	0.7811	0.7811	0.977	-0.015
Mof_O 	O 	0.7854	0.2854	0.3666	-0.444
Mof_C 	C 	0.7811	0.2811	0.477	-0.015
Mof_O 	O 	0.2854	0.7854	0.3666	-0.444
Mof_C 	C 	0.2811	0.7811	0.477	-0.015
Mof_O 	O 	0.2854	0.2854	0.8666	-0.444
Mof_C 	C 	0.2811	0.2811	0.977	-0.015
Mof_O 	O 	0.2146	0.7854	0.1334	-0.444
Mof_C 	C 	0.2189	0.7811	0.023	-0.015
Mof_O 	O 	0.2146	0.2854	0.6334	-0.444
Mof_C 	C 	0.2189	0.2811	0.523	-0.015
Mof_O 	O 	0.7146	0.7854	0.6334	-0.444
Mof_C 	C 	0.7189	0.7811	0.523	-0.015
Mof_O 	O 	0.7146	0.2854	0.1334	-0.444
Mof_C 	C 	0.7189	0.2811	0.023	-0.015
Mof_O 	O 	0.2146	0.1334	0.7854	-0.444
Mof_C 	C 	0.2189	0.023	0.7811	-0.015
Mof_O 	O 	0.2146	0.6334	0.2854	-0.444
Mof_C 	C 	0.2189	0.523	0.2811	-0.015
Mof_O 	O 	0.7146	0.1334	0.2854	-0.444
Mof_C 	C 	0.7189	0.023	0.2811	-0.015
Mof_O 	O 	0.7146	0.6334	0.7854	-0.444
Mof_C 	C 	0.7189	0.523	0.7811	-0.015
Mof_O 	O 	0.2146	0.8666	0.2146	-0.444
Mof_C 	C 	0.2189	0.977	0.2189	-0.015
Mof_O 	O 	0.2146	0.3666	0.7146	-0.444
Mof_C 	C 	0.2189	0.477	0.7189	-0.015
Mof_O 	O 	0.7146	0.8666	0.7146	-0.444
Mof_C 	C 	0.7189	0.977	0.7189	-0.015
Mof_O 	O 	0.7146	0.3666	0.2146	-0.444
Mof_C 	C 	0.7189	0.477	0.2189	-0.015
Mof_O 	O 	0.7854	0.1334	0.2146	-0.444
Mof_C 	C 	0.7811	0.023	0.2189	-0.015
Mof_O 	O 	0.7854	0.6334	0.7146	-0.444
Mof_C 	C 	0.7811	0.523	0.7189	-0.015
Mof_O 	O 	0.2854	0.1334	0.7146	-0.444
Mof_C 	C 	0.2811	0.023	0.7189	-0.015
Mof_O 	O 	0.2854	0.6334	0.2146	-0.444
Mof_C 	C 	0.2811	0.523	0.2189	-0.015
Mof_O 	O 	0.7854	0.8666	0.7854	-0.444
Mof_C 	C 	0.7811	0.977	0.7811	-0.015
Mof_O 	O 	0.7854	0.3666	0.2854	-0.444
Mof_C 	C 	0.7811	0.477	0.2811	-0.015
Mof_O 	O 	0.2854	0.8666	0.2854	-0.444
Mof_C 	C 	0.2811	0.977	0.2811	-0.015
Mof_O 	O 	0.2854	0.3666	0.7854	-0.444
Mof_C 	C 	0.2811	0.477	0.7811	-0.015
Mof_O 	O 	0.25	0.25	0.25	-0.988
Mof_O 	O 	0.75	0.75	0.25	-0.988
Mof_O 	O 	0.75	0.25	0.75	-0.988
Mof_O 	O 	0.25	0.75	0.75	-0.988
Mof_O 	O 	0.25	0.25	0.75	-0.988
Mof_O 	O 	0.75	0.75	0.75	-0.988
Mof_O 	O 	0.75	0.25	0.25	-0.988
Mof_O 	O 	0.25	0.75	0.25	-0.988
Mof_C 	C 	0.25	0.1152	0.25	0.209
Mof_C 	C 	0.25	0.0562	0.25	-0.027
Mof_C 	C 	0.25	0.6152	0.75	0.209
Mof_C 	C 	0.25	0.5562	0.75	-0.027
Mof_C 	C 	0.75	0.8848	0.25	0.209
Mof_C 	C 	0.75	0.9438	0.25	-0.027
Mof_C 	C 	0.75	0.3848	0.75	0.209
Mof_C 	C 	0.75	0.4438	0.75	-0.027
Mof_C 	C 	0.25	0.3848	0.25	0.209
Mof_C 	C 	0.25	0.4438	0.25	-0.027
Mof_C 	C 	0.75	0.1152	0.75	0.209
Mof_C 	C 	0.75	0.0562	0.75	-0.027
Mof_C 	C 	0.75	0.6152	0.25	0.209
Mof_C 	C 	0.75	0.5562	0.25	-0.027
Mof_C 	C 	0.25	0.8848	0.75	0.209
Mof_C 	C 	0.25	0.9438	0.75	-0.027
Mof_C 	C 	0.25	0.25	0.1152	0.209
Mof_C 	C 	0.25	0.25	0.0562	-0.027
Mof_C 	C 	0.25	0.75	0.6152	0.209
Mof_C 	C 	0.25	0.75	0.5562	-0.027
Mof_C 	C 	0.25	0.75	0.8848	0.209
Mof_C 	C 	0.25	0.75	0.9438	-0.027
Mof_C 	C 	0.25	0.25	0.3848	0.209
Mof_C 	C 	0.25	0.25	0.4438	-0.027
Mof_C 	C 	0.75	0.75	0.1152	0.209
Mof_C 	C 	0.75	0.75	0.0562	-0.027
Mof_C 	C 	0.75	0.25	0.6152	0.209
Mof_C 	C 	0.75	0.25	0.5562	-0.027
Mof_C 	C 	0.75	0.25	0.8848	0.209
Mof_C 	C 	0.75	0.25	0.9438	-0.027
Mof_C 	C 	0.75	0.75	0.3848	0.209
Mof_C 	C 	0.75	0.75	0.4438	-0.027
Mof_C 	C 	0.1152	0.25	0.25	0.209
Mof_C 	C 	0.0562	0.25	0.25	-0.027
Mof_C 	C 	0.6152	0.25	0.75	0.209
Mof_C 	C 	0.5562	0.25	0.75	-0.027
Mof_C 	C 	0.8848	0.25	0.75	0.209
Mof_C 	C 	0.9438	0.25	0.75	-0.027
Mof_C 	C 	0.3848	0.25	0.25	0.209
Mof_C 	C 	0.4438	0.25	0.25	-0.027
Mof_C 	C 	0.1152	0.75	0.75	0.209
Mof_C 	C 	0.0562	0.75	0.75	-0.027
Mof_C 	C 	0.6152	0.75	0.25	0.209
Mof_C 	C 	0.5562	0.75	0.25	-0.027
Mof_C 	C 	0.8848	0.75	0.25	0.209
Mof_C 	C 	0.9438	0.75	0.25	-0.027
Mof_C 	C 	0.3848	0.75	0.75	0.209
Mof_C 	C 	0.4438	0.75	0.75	-0.027
Mof_C 	C 	0.1152	0.25	0.75	0.209
Mof_C 	C 	0.0562	0.25	0.75	-0.027
Mof_C 	C 	0.6152	0.25	0.25	0.209
Mof_C 	C 	0.5562	0.25	0.25	-0.027
Mof_C 	C 	0.8848	0.75	0.75	0.209
Mof_C 	C 	0.9438	0.75	0.75	-0.027
Mof_C 	C 	0.8848	0.25	0.25	0.209
Mof_C 	C 	0.9438	0.25	0.25	-0.027
Mof_C 	C 	0.3848	0.75	0.25	0.209
Mof_C 	C 	0.4438	0.75	0.25	-0.027
Mof_C 	C 	0.1152	0.75	0.25	0.209
Mof_C 	C 	0.0562	0.75	0.25	-0.027
Mof_C 	C 	0.6152	0.75	0.75	0.209
Mof_C 	C 	0.5562	0.75	0.75	-0.027
Mof_C 	C 	0.3848	0.25	0.75	0.209
Mof_C 	C 	0.4438	0.25	0.75	-0.027
Mof_C 	C 	0.25	0.25	0.8848	0.209
Mof_C 	C 	0.25	0.25	0.9438	-0.027
Mof_C 	C 	0.25	0.75	0.3848	0.209
Mof_C 	C 	0.25	0.75	0.4438	-0.027
Mof_C 	C 	0.75	0.25	0.1152	0.209
Mof_C 	C 	0.75	0.25	0.0562	-0.027
Mof_C 	C 	0.75	0.75	0.6152	0.209
Mof_C 	C 	0.75	0.75	0.5562	-0.027
Mof_C 	C 	0.25	0.25	0.6152	0.209
Mof_C 	C 	0.25	0.25	0.5562	-0.027
Mof_C 	C 	0.75	0.75	0.8848	0.209
Mof_C 	C 	0.75	0.75	0.9438	-0.027
Mof_C 	C 	0.75	0.25	0.3848	0.209
Mof_C 	C 	0.75	0.25	0.4438	-0.027
Mof_C 	C 	0.25	0.75	0.1152	0.209
Mof_C 	C 	0.25	0.75	0.0562	-0.027
Mof_C 	C 	0.25	0.1152	0.75	0.209
Mof_C 	C 	0.25	0.0562	0.75	-0.027
Mof_C 	C 	0.25	0.6152	0.25	0.209
Mof_C 	C 	0.25	0.5562	0.25	-0.027
Mof_C 	C 	0.25	0.8848	0.25	0.209
Mof_C 	C 	0.25	0.9438	0.25	-0.027
Mof_C 	C 	0.25	0.3848	0.75	0.209
Mof_C 	C 	0.25	0.4438	0.75	-0.027
Mof_C 	C 	0.75	0.1152	0.25	0.209
Mof_C 	C 	0.75	0.0562	0.25	-0.027
Mof_C 	C 	0.75	0.6152	0.75	0.209
Mof_C 	C 	0.75	0.5562	0.75	-0.027
Mof_C 	C 	0.75	0.8848	0.75	0.209
Mof_C 	C 	0.75	0.9438	0.75	-0.027
Mof_C 	C 	0.75	0.3848	0.25	0.209
Mof_C 	C 	0.75	0.4438	0.25	-0.027
Mof_Zn	Zn	0.20639	0.20639	0.20639	1.208
Mof_Zn	Zn	0.20639	0.70639	0.70639	1.208
Mof_Zn	Zn	0.70639	0.20639	0.70639	1.208
Mof_Zn	Zn	0.70639	0.70639	0.20639	1.208
Mof_Zn	Zn	0.79361	0.79361	0.20639	1.208
Mof_Zn	Zn	0.79361	0.29361	0.70639	1.208
Mof_Zn	Zn	0.29361	0.79361	0.70639	1.208
Mof_Zn	Zn	0.29361	0.29361	0.20639	1.208
Mof_Zn	Zn	0.79361	0.20639	0.79361	1.208
Mof_Zn	Zn	0.79361	0.70639	0.29361	1.208
Mof_Zn	Zn	0.29361	0.20639	0.29361	1.208
Mof_Zn	Zn	0.29361	0.70639	0.79361	1.208
Mof_Zn	Zn	0.20639	0.79361	0.79361	1.208
Mof_Zn	Zn	0.20639	0.29361	0.29361	1.208
Mof_Zn	Zn	0.70639	0.79361	0.29361	1.208
Mof_Zn	Zn	0.70639	0.29361	0.79361	1.208
Mof_Zn	Zn	0.20639	0.20639	0.79361	1.208
Mof_Zn	Zn	0.20639	0.70639	0.29361	1.208
Mof_Zn	Zn	0.70639	0.20639	0.29361	1.208
Mof_Zn	Zn	0.70639	0.70639	0.79361	1.208
Mof_Zn	Zn	0.79361	0.79361	0.79361	1.208
Mof_Zn	Zn	0.79361	0.29361	0.29361	1.208
Mof_Zn	Zn	0.29361	0.79361	0.29361	1.208
Mof_Zn	Zn	0.29361	0.29361	0.79361	1.208
Mof_Zn	Zn	0.20639	0.79361	0.20639	1.208
Mof_Zn	Zn	0.20639	0.29361	0.70639	1.208
Mof_Zn	Zn	0.70639	0.79361	0.70639	1.208
Mof_Zn	Zn	0.70639	0.29361	0.20639	1.208
Mof_Zn	Zn	0.79361	0.20639	0.20639	1.208
Mof_Zn	Zn	0.79361	0.70639	0.70639	1.208
Mof_Zn	Zn	0.29361	0.20639	0.70639	1.208
Mof_Zn	Zn	0.29361	0.70639	0.20639	1.208
Mof_H 	H 	0.18997	0.04033	0.18997	0.048
Mof_H 	H 	0.18997	0.54033	0.68997	0.048
Mof_H 	H 	0.68997	0.04033	0.68997	0.048
Mof_H 	H 	0.68997	0.54033	0.18997	0.048
Mof_H 	H 	0.81003	0.95967	0.18997	0.048
Mof_H 	H 	0.81003	0.45967	0.68997	0.048
Mof_H 	H 	0.31003	0.95967	0.68997	0.048
Mof_H 	H 	0.31003	0.45967	0.18997	0.048
Mof_H 	H 	0.81003	0.04033	0.81003	0.048
Mof_H 	H 	0.81003	0.54033	0.31003	0.048
Mof_H 	H 	0.31003	0.04033	0.31003	0.048
Mof_H 	H 	0.31003	0.54033	0.81003	0.048
Mof_H 	H 	0.18997	0.95967	0.81003	0.048
Mof_H 	H 	0.18997	0.45967	0.31003	0.048
Mof_H 	H 	0.68997	0.95967	0.31003	0.048
Mof_H 	H 	0.68997	0.45967	0.81003	0.048
Mof_H 	H 	0.18997	0.18997	0.04033	0.048
Mof_H 	H 	0.18997	0.68997	0.54033	0.048
Mof_H 	H 	0.68997	0.18997	0.54033	0.048
Mof_H 	H 	0.68997	0.68997	0.04033	0.048
Mof_H 	H 	0.18997	0.81003	0.95967	0.048
Mof_H 	H 	0.18997	0.31003	0.45967	0.048
Mof_H 	H 	0.68997	0.81003	0.45967	0.048
Mof_H 	H 	0.68997	0.31003	0.95967	0.048
Mof_H 	H 	0.81003	0.81003	0.04033	0.048
Mof_H 	H 	0.81003	0.31003	0.54033	0.048
Mof_H 	H 	0.31003	0.81003	0.54033	0.048
Mof_H 	H 	0.31003	0.31003	0.04033	0.048
Mof_H 	H 	0.81003	0.18997	0.95967	0.048
Mof_H 	H 	0.81003	0.68997	0.45967	0.048
Mof_H 	H 	0.31003	0.18997	0.45967	0.048
Mof_H 	H 	0.31003	0.68997	0.95967	0.048
Mof_H 	H 	0.04033	0.18997	0.18997	0.048
Mof_H 	H 	0.04033	0.68997	0.68997	0.048
Mof_H 	H 	0.54033	0.18997	0.68997	0.048
Mof_H 	H 	0.54033	0.68997	0.18997	0.048
Mof_H 	H 	0.95967	0.18997	0.81003	0.048
Mof_H 	H 	0.95967	0.68997	0.31003	0.048
Mof_H 	H 	0.45967	0.18997	0.31003	0.048
Mof_H 	H 	0.45967	0.68997	0.81003	0.048
Mof_H 	H 	0.04033	0.81003	0.81003	0.048
Mof_H 	H 	0.04033	0.31003	0.31003	0.048
Mof_H 	H 	0.54033	0.81003	0.31003	0.048
Mof_H 	H 	0.54033	0.31003	0.81003	0.048
Mof_H 	H 	0.95967	0.81003	0.18997	0.048
Mof_H 	H 	0.95967	0.31003	0.68997	0.048
Mof_H 	H 	0.45967	0.81003	0.68997	0.048
Mof_H 	H 	0.45967	0.31003	0.18997	0.048
Mof_H 	H 	0.04033	0.18997	0.81003	0.048
Mof_H 	H 	0.04033	0.68997	0.31003	0.048
Mof_H 	H 	0.54033	0.18997	0.31003	0.048
Mof_H 	H 	0.54033	0.68997	0.81003	0.048
Mof_H 	H 	0.95967	0.81003	0.81003	0.048
Mof_H 	H 	0.95967	0.31003	0.31003	0.048
Mof_H 	H 	0.45967	0.81003	0.31003	0.048
Mof_H 	H 	0.45967	0.31003	0.81003	0.048
Mof_H 	H 	0.04033	0.81003	0.18997	0.048
Mof_H 	H 	0.04033	0.31003	0.68997	0.048
Mof_H 	H 	0.54033	0.81003	0.68997	0.048
Mof_H 	H 	0.54033	0.31003	0.18997	0.048
Mof_H 	H 	0.95967	0.18997	0.18997	0.048
Mof_H 	H 	0.95967	0.68997	0.68997	0.048
Mof_H 	H 	0.45967	0.18997	0.68997	0.048
Mof_H 	H 	0.45967	0.68997	0.18997	0.048
Mof_H 	H 	0.18997	0.18997	0.95967	0.048
Mof_H 	H 	0.18997	0.68997	0.45967	0.048
Mof_H 	H 	0.68997	0.18997	0.45967	0.048
Mof_H 	H 	0.68997	0.68997	0.95967	0.048
Mof_H 	H 	0.81003	0.18997	0.04033	0.048
Mof_H 	H 	0.81003	0.68997	0.54033	0.048
Mof_H 	H 	0.31003	0.18997	0.54033	0.048
Mof_H 	H 	0.31003	0.68997	0.04033	0.048
Mof_H 	H 	0.81003	0.81003	0.95967	0.048
Mof_H 	H 	0.81003	0.31003	0.45967	0.048
Mof_H 	H 	0.31003	0.81003	0.45967	0.048
Mof_H 	H 	0.31003	0.31003	0.95967	0.048
Mof_H 	H 	0.18997	0.81003	0.04033	0.048
Mof_H 	H 	0.18997	0.31003	0.54033	0.048
Mof_H 	H 	0.68997	0.81003	0.54033	0.048
Mof_H 	H 	0.68997	0.31003	0.04033	0.048
Mof_H 	H 	0.18997	0.04033	0.81003	0.048
Mof_H 	H 	0.18997	0.54033	0.31003	0.048
Mof_H 	H 	0.68997	0.04033	0.31003	0.048
Mof_H 	H 	0.68997	0.54033	0.81003	0.048
Mof_H 	H 	0.18997	0.95967	0.18997	0.048
Mof_H 	H 	0.18997	0.45967	0.68997	0.048
Mof_H 	H 	0.68997	0.95967	0.68997	0.048
Mof_H 	H 	0.68997	0.45967	0.18997	0.048
Mof_H 	H 	0.81003	0.04033	0.18997	0.048
Mof_H 	H 	0.81003	0.54033	0.68997	0.048
Mof_H 	H 	0.31003	0.04033	0.68997	0.048
Mof_H 	H 	0.31003	0.54033	0.18997	0.048
Mof_H 	H 	0.81003	0.95967	0.81003	0.048
Mof_H 	H 	0.81003	0.45967	0.31003	0.048
Mof_H 	H 	0.31003	0.95967	0.31003	0.048
Mof_H 	H 	0.31003	0.45967	0.81003	0.048
_end
