data_functionalizedCrystal
_audit_creation_method	'EQeq! by Chris Wilmer'
_symmetry_space_group_name_H-M	'P1'
_symmetry_Int_Tables_number	1
_symmetry_cell_setting	triclinic
loop_
_symmetry_equiv_pos_as_xyz
  x,y,z
_cell_length_a	11.075
_cell_length_b	15.438
_cell_length_c	19.18
_cell_angle_alpha	95.796
_cell_angle_beta	90
_cell_angle_gamma	90
loop_
_atom_site_label
_atom_site_type_symbol
_atom_site_fract_x
_atom_site_fract_y
_atom_site_fract_z
_atom_site_charge
Mof_Cd	Cd	0.45496	0.5	0.25	0.52
Mof_Cd	Cd	0.44237	0.54395	0.92226	0.47
Mof_Cd	Cd	0.55763	0.45605	0.07774	0.47
Mof_Cd	Cd	0.54504	0.5	0.75	0.52
Mof_Cd	Cd	0.44237	0.45605	0.57774	0.471
Mof_Cd	Cd	0.55763	0.54395	0.42226	0.471
Mof_H 	H 	0.7661	0.9067	0.2599	0.15
Mof_H 	H 	0.1925	0.1576	0.4471	0.159
Mof_H 	H 	0.0792	0.8075	0.5118	0.16
Mof_H 	H 	0.1376	0.3275	0.2117	-0.01
Mof_H 	H 	0.2869	0.8342	0.2539	0.151
Mof_H 	H 	0.6042	0.7073	0.7234	-0.002
Mof_H 	H 	0.8712	0.9324	0.8765	0.22
Mof_H 	H 	0.021	0.842	0.668	0.216
Mof_H 	H 	0.2339	0.0933	0.7401	0.15
Mof_H 	H 	0.7726	0.9785	0.415	0.225
Mof_H 	H 	0.7187	0.8154	0.3444	-0.006
Mof_H 	H 	0.287	0.7109	0.6096	0.155
Mof_H 	H 	0.7041	0.7131	0.5226	0.003
Mof_H 	H 	0.0792	0.1925	0.9882	0.157
Mof_H 	H 	0.979	0.158	0.332	0.216
Mof_H 	H 	0.3291	0.6189	0.6942	-0.006
Mof_H 	H 	0.8624	0.6725	0.7883	-0.01
Mof_H 	H 	0.1925	0.8424	0.0529	0.158
Mof_H 	H 	0.6709	0.6189	0.1942	-0.006
Mof_H 	H 	0.3291	0.3811	0.8058	-0.006
Mof_H 	H 	0.8624	0.3275	0.7117	-0.011
Mof_H 	H 	0.979	0.842	0.168	0.214
Mof_H 	H 	0.0151	0.2261	0.6901	0.149
Mof_H 	H 	0.2274	0.0215	0.585	0.225
Mof_H 	H 	0.2959	0.2869	0.4774	0.003
Mof_H 	H 	0.713	0.7109	0.1096	0.155
Mof_H 	H 	0.287	0.2891	0.8904	0.155
Mof_H 	H 	0.9208	0.8075	0.0118	0.157
Mof_H 	H 	0.2339	0.9067	0.7599	0.15
Mof_H 	H 	0.2274	0.9785	0.915	0.223
Mof_H 	H 	0.1288	0.9324	0.3765	0.221
Mof_H 	H 	0.7131	0.8342	0.7539	0.152
Mof_H 	H 	0.7041	0.2869	0.9774	0.003
Mof_H 	H 	0.9849	0.2261	0.1901	0.148
Mof_H 	H 	0.021	0.158	0.832	0.214
Mof_H 	H 	0.7665	0.7061	0.99	-0.012
Mof_H 	H 	0.9208	0.1925	0.4882	0.16
Mof_H 	H 	0.2335	0.7061	0.49	-0.014
Mof_H 	H 	0.8712	0.0676	0.6235	0.221
Mof_H 	H 	0.8075	0.8424	0.5529	0.159
Mof_H 	H 	0.3958	0.7073	0.2234	-0.002
Mof_H 	H 	0.2813	0.8154	0.8444	-0.006
Mof_H 	H 	0.6709	0.3811	0.3058	-0.006
Mof_H 	H 	0.8075	0.1576	0.9471	0.158
Mof_H 	H 	0.2813	0.1846	0.6556	-0.006
Mof_H 	H 	0.1376	0.6725	0.2883	-0.011
Mof_H 	H 	0.7665	0.2939	0.51	-0.014
Mof_H 	H 	0.7661	0.0933	0.2401	0.15
Mof_H 	H 	0.713	0.2891	0.3904	0.155
Mof_H 	H 	0.7726	0.0215	0.085	0.223
Mof_H 	H 	0.0151	0.7739	0.8099	0.148
Mof_H 	H 	0.2335	0.2939	0.01	-0.012
Mof_H 	H 	0.7187	0.1846	0.1556	-0.006
Mof_H 	H 	0.7131	0.1658	0.7461	0.151
Mof_H 	H 	0.9849	0.7739	0.3099	0.149
Mof_H 	H 	0.1288	0.0676	0.1235	0.22
Mof_H 	H 	0.2959	0.7131	0.0226	0.003
Mof_H 	H 	0.6042	0.2927	0.7766	-0.002
Mof_H 	H 	0.2869	0.1658	0.2461	0.152
Mof_H 	H 	0.3958	0.2927	0.2766	-0.002
Mof_C 	C 	0.2592	0.1816	0.8227	0.328
Mof_C 	C 	0.7042	0.7377	0.5689	0.168
Mof_C 	C 	0.3548	0.7339	0.189	0.162
Mof_C 	C 	0.8614	0.0752	0.3725	0.442
Mof_C 	C 	0.2899	0.8102	0.2075	-0.284
Mof_C 	C 	0.3137	0.2926	0.7222	-0.199
Mof_C 	C 	0.2958	0.2623	0.4311	0.168
Mof_C 	C 	0.8739	0.3003	0.6667	0.172
Mof_C 	C 	0.2899	0.1898	0.2925	-0.285
Mof_C 	C 	0.7447	0.1509	0.2533	-0.313
Mof_C 	C 	0.6877	0.3228	0.2924	0.173
Mof_C 	C 	0.8614	0.9248	0.1275	0.437
Mof_C 	C 	0.7701	0.1502	0.8443	0.325
Mof_C 	C 	0.2299	0.1502	0.3443	0.325
Mof_C 	C 	0.9384	0.9685	0.8759	-0.481
Mof_C 	C 	0.2553	0.1509	0.7533	-0.313
Mof_C 	C 	0.8002	0.321	0.6128	-0.193
Mof_C 	C 	0.5721	0.615	0.6026	0.362
Mof_C 	C 	0.2326	0.8148	0.0871	-0.303
Mof_C 	C 	0.847	0.004	0.1012	-0.47
Mof_C 	C 	0.306	0.6171	0.3711	0.348
Mof_C 	C 	0.8002	0.679	0.8872	-0.191
Mof_C 	C 	0.6452	0.7339	0.689	0.162
Mof_C 	C 	0.1386	0.0752	0.8725	0.437
Mof_C 	C 	0.2863	0.7318	0.6568	-0.3
Mof_C 	C 	0.3522	0.3515	0.6694	0.352
Mof_C 	C 	0.641	0.697	0.6197	-0.193
Mof_C 	C 	0.847	0.996	0.3988	-0.476
Mof_C 	C 	0.2553	0.8491	0.7467	-0.313
Mof_C 	C 	0.1386	0.9248	0.6275	0.442
Mof_C 	C 	0.0507	0.9433	0.9001	0.425
Mof_C 	C 	0.5721	0.385	0.8974	0.362
Mof_C 	C 	0.359	0.697	0.1197	-0.193
Mof_C 	C 	0.8739	0.6997	0.8333	0.17
Mof_C 	C 	0.0507	0.0567	0.5999	0.429
Mof_C 	C 	0.1261	0.3003	0.1667	0.17
Mof_C 	C 	0.1998	0.321	0.1128	-0.191
Mof_C 	C 	0.3137	0.7074	0.7778	-0.199
Mof_C 	C 	0.306	0.3829	0.1289	0.347
Mof_C 	C 	0.3123	0.6772	0.7076	0.173
Mof_C 	C 	0.0616	0.9685	0.3759	-0.487
Mof_C 	C 	0.9317	0.9513	0.6487	0.455
Mof_C 	C 	0.0917	0.2192	0.0333	-0.306
Mof_C 	C 	0.9797	0.8012	0.9129	0.33
Mof_C 	C 	0.7137	0.2682	0.3432	-0.3
Mof_C 	C 	0.7137	0.7318	0.1568	-0.3
Mof_C 	C 	0.0354	0.2395	0.154	-0.306
Mof_C 	C 	0.9646	0.2395	0.654	-0.309
Mof_C 	C 	0.6863	0.2926	0.2222	-0.199
Mof_C 	C 	0.7447	0.8491	0.2467	-0.313
Mof_C 	C 	0.0203	0.8012	0.4129	0.332
Mof_C 	C 	0.0683	0.0487	0.3513	0.455
Mof_C 	C 	0.6877	0.6772	0.2076	0.173
Mof_C 	C 	0.6452	0.2661	0.811	0.162
Mof_C 	C 	0.641	0.303	0.8803	-0.193
Mof_C 	C 	0.4279	0.385	0.3974	0.362
Mof_C 	C 	0.153	0.996	0.8988	-0.47
Mof_C 	C 	0.9317	0.0487	0.8513	0.451
Mof_C 	C 	0.0917	0.7808	0.4667	-0.312
Mof_C 	C 	0.694	0.6171	0.8711	0.347
Mof_C 	C 	0.2831	0.7942	0.7972	0.171
Mof_C 	C 	0.7169	0.7942	0.2972	0.171
Mof_C 	C 	0.1261	0.6997	0.3333	0.172
Mof_C 	C 	0.9493	0.0567	0.0999	0.425
Mof_C 	C 	0.8166	0.7196	0.9537	0.174
Mof_C 	C 	0.7674	0.1852	0.9129	-0.303
Mof_C 	C 	0.8166	0.2804	0.5463	0.178
Mof_C 	C 	0.359	0.303	0.3803	-0.193
Mof_C 	C 	0.2592	0.8184	0.6773	0.328
Mof_C 	C 	0.153	0.004	0.6012	-0.476
Mof_C 	C 	0.1998	0.679	0.3872	-0.193
Mof_C 	C 	0.9713	0.8961	0.1512	-0.505
Mof_C 	C 	0.9384	0.0315	0.6241	-0.487
Mof_C 	C 	0.7042	0.2623	0.9311	0.168
Mof_C 	C 	0.4279	0.615	0.1026	0.362
Mof_C 	C 	0.7701	0.8498	0.6557	0.325
Mof_C 	C 	0.0616	0.0315	0.1241	-0.481
Mof_C 	C 	0.7169	0.2058	0.2028	0.171
Mof_C 	C 	0.9083	0.2192	0.5333	-0.312
Mof_C 	C 	0.0354	0.7605	0.346	-0.309
Mof_C 	C 	0.2299	0.8498	0.1557	0.325
Mof_C 	C 	0.6478	0.3515	0.1694	0.352
Mof_C 	C 	0.6478	0.6485	0.3306	0.352
Mof_C 	C 	0.6863	0.7074	0.2778	-0.199
Mof_C 	C 	0.0287	0.1039	0.8488	-0.505
Mof_C 	C 	0.2326	0.1852	0.4129	-0.304
Mof_C 	C 	0.7408	0.8184	0.1773	0.328
Mof_C 	C 	0.7101	0.1898	0.7925	-0.284
Mof_C 	C 	0.0203	0.1988	0.0871	0.33
Mof_C 	C 	0.2863	0.2682	0.8432	-0.3
Mof_C 	C 	0.0287	0.8961	0.6512	-0.508
Mof_C 	C 	0.3123	0.3228	0.7924	0.173
Mof_C 	C 	0.9083	0.7808	0.9667	-0.306
Mof_C 	C 	0.694	0.3829	0.6289	0.348
Mof_C 	C 	0.3548	0.2661	0.311	0.162
Mof_C 	C 	0.7101	0.8102	0.7075	-0.285
Mof_C 	C 	0.1834	0.2804	0.0463	0.174
Mof_C 	C 	0.7408	0.1816	0.3227	0.328
Mof_C 	C 	0.9713	0.1039	0.3488	-0.508
Mof_C 	C 	0.9646	0.7605	0.846	-0.306
Mof_C 	C 	0.7674	0.8148	0.5871	-0.304
Mof_C 	C 	0.2831	0.2058	0.7028	0.171
Mof_C 	C 	0.0683	0.9513	0.1487	0.451
Mof_C 	C 	0.9493	0.9433	0.4001	0.429
Mof_C 	C 	0.2958	0.7377	0.0689	0.168
Mof_C 	C 	0.3522	0.6485	0.8306	0.352
Mof_C 	C 	0.9797	0.1988	0.5871	0.332
Mof_C 	C 	0.1834	0.7196	0.4537	0.178
Mof_O 	O 	0.3266	0.5916	0.3084	-0.292
Mof_O 	O 	0.6734	0.5916	0.8084	-0.292
Mof_O 	O 	0.6108	0.5728	0.309	-0.307
Mof_O 	O 	0.4674	0.4266	0.3487	-0.31
Mof_O 	O 	0.5326	0.5734	0.6513	-0.31
Mof_O 	O 	0.7602	0.8719	0.1243	-0.348
Mof_O 	O 	0.4674	0.5734	0.1513	-0.31
Mof_O 	O 	0.3892	0.5728	0.809	-0.307
Mof_O 	O 	0.9305	0.8637	0.4268	-0.345
Mof_O 	O 	0.6319	0.4019	0.576	-0.275
Mof_O 	O 	0.1804	0.0698	0.3237	-0.338
Mof_O 	O 	0.4476	0.4132	0.4602	-0.303
Mof_O 	O 	0.3485	0.6723	0.8946	-0.281
Mof_O 	O 	0.5524	0.5868	0.5398	-0.303
Mof_O 	O 	0.9305	0.1363	0.0732	-0.343
Mof_O 	O 	0.4476	0.5868	0.0398	-0.303
Mof_O 	O 	0.3681	0.4019	0.076	-0.275
Mof_O 	O 	0.5524	0.4132	0.9602	-0.303
Mof_O 	O 	0.3266	0.4084	0.1916	-0.292
Mof_O 	O 	0.7602	0.1281	0.3757	-0.349
Mof_O 	O 	0.3485	0.3277	0.6054	-0.281
Mof_O 	O 	0.0695	0.1363	0.5732	-0.345
Mof_O 	O 	0.6515	0.3277	0.1054	-0.281
Mof_O 	O 	0.2398	0.8719	0.6243	-0.349
Mof_O 	O 	0.1804	0.9302	0.1763	-0.338
Mof_O 	O 	0.2398	0.1281	0.8757	-0.348
Mof_O 	O 	0.3892	0.4272	0.691	-0.307
Mof_O 	O 	0.6108	0.4272	0.191	-0.307
Mof_O 	O 	0.8196	0.0698	0.8237	-0.338
Mof_O 	O 	0.6319	0.5981	0.924	-0.275
Mof_O 	O 	0.5326	0.4266	0.8487	-0.31
Mof_O 	O 	0.6734	0.4084	0.6916	-0.292
Mof_O 	O 	0.3681	0.5981	0.424	-0.275
Mof_O 	O 	0.6515	0.6723	0.3946	-0.281
Mof_O 	O 	0.8196	0.9302	0.6763	-0.338
Mof_O 	O 	0.0695	0.8637	0.9268	-0.343
_end
