data_functionalizedCrystal
_audit_creation_method	'EQeq! by Chris Wilmer'
_symmetry_space_group_name_H-M	'P1'
_symmetry_Int_Tables_number	1
_symmetry_cell_setting	triclinic
loop_
_symmetry_equiv_pos_as_xyz
  x,y,z
_cell_length_a	9.341
_cell_length_b	19.1699
_cell_length_c	19.1699
_cell_angle_alpha	62.5853
_cell_angle_beta	80.6524
_cell_angle_gamma	99.3476
loop_
_atom_site_label
_atom_site_type_symbol
_atom_site_fract_x
_atom_site_fract_y
_atom_site_fract_z
_atom_site_charge
Mof_Mn	Mn	-0	0.5	-0	0.787
Mof_Mn	Mn	1.96394e-17	0	0.5	0.786
Mof_Mn	Mn	0.5	0.5	0.5	0.841
Mof_H 	H 	0.7464	0.6472	0.7801	0.059
Mof_H 	H 	0.5814	0.5068	0.8572	0.07
Mof_H 	H 	0.4134	0.764	0.8852	0.075
Mof_H 	H 	0.2433	0.804	0.798	0.058
Mof_H 	H 	0.6163	0.5928	0.9846	0.082
Mof_H 	H 	0.8242	0.6688	0.9892	0.038
Mof_H 	H 	0.5964	0.7862	0.0556	0.001
Mof_H 	H 	0.3812	0.7165	0.054	0.093
Mof_H 	H 	0.1615	0.7422	0.6834	0.092
Mof_H 	H 	0.8335	0.1418	0.4315	-0.023
Mof_H 	H 	0.1278	0.0911	0.3097	-0.027
Mof_H 	H 	0.8502	0.7918	0.8095	0.1
Mof_H 	H 	0.5265	0.7801	0.5727	0.063
Mof_H 	H 	0.4386	0.8572	0.636	0.067
Mof_H 	H 	0.2986	0.8852	0.3508	0.063
Mof_H 	H 	0.0413	0.798	0.398	0.075
Mof_H 	H 	0.6009	0.9846	0.4226	0.083
Mof_H 	H 	0.8134	0.9892	0.342	0.034
Mof_H 	H 	0.652	0.0556	0.1582	-0.003
Mof_H 	H 	0.4352	0.054	0.2295	0.093
Mof_H 	H 	0.8449	0.6834	0.5744	0.114
Mof_H 	H 	0.265	0.4315	0.4267	-0.018
Mof_H 	H 	0.4375	0.3097	0.5992	-0.021
Mof_H 	H 	0.6597	0.8095	0.3987	0.118
Mof_H 	H 	0.0992	0.5727	0.6472	0.057
Mof_H 	H 	0.0746	0.636	0.5068	0.064
Mof_H 	H 	0.6494	0.3508	0.764	0.065
Mof_H 	H 	0.4393	0.398	0.804	0.068
Mof_H 	H 	0.0235	0.4226	0.5928	0.052
Mof_H 	H 	0.1554	0.342	0.6688	0.024
Mof_H 	H 	0.8102	0.1582	0.7862	0.003
Mof_H 	H 	0.6647	0.2295	0.7165	0.092
Mof_H 	H 	0.4193	0.5744	0.7422	0.103
Mof_H 	H 	0.6917	0.4267	0.1418	-0.019
Mof_H 	H 	0.0367	0.5992	0.0911	-0.054
Mof_H 	H 	0.0584	0.3987	0.7918	0.098
Mof_H 	H 	0.2536	0.3528	0.2199	0.066
Mof_H 	H 	0.4186	0.4932	0.1428	0.06
Mof_H 	H 	0.5866	0.236	0.1148	0.054
Mof_H 	H 	0.7567	0.196	0.202	0.079
Mof_H 	H 	0.3837	0.4072	0.0154	0.142
Mof_H 	H 	0.1758	0.3312	0.0108	-0.059
Mof_H 	H 	0.4036	0.2138	0.9444	-0.018
Mof_H 	H 	0.6188	0.2835	0.946	0.126
Mof_H 	H 	0.8385	0.2578	0.3166	0.123
Mof_H 	H 	0.1665	0.8582	0.5685	-0.008
Mof_H 	H 	0.8722	0.9089	0.6903	-0.013
Mof_H 	H 	0.1498	0.2082	0.1905	0.127
Mof_H 	H 	0.4735	0.2199	0.4273	0.061
Mof_H 	H 	0.5614	0.1428	0.364	0.064
Mof_H 	H 	0.7014	0.1148	0.6492	0.067
Mof_H 	H 	0.9587	0.202	0.602	0.059
Mof_H 	H 	0.3991	0.0154	0.5774	0.142
Mof_H 	H 	0.1866	0.0108	0.658	-0.057
Mof_H 	H 	0.348	0.9444	0.8418	-0.014
Mof_H 	H 	0.5648	0.946	0.7705	0.127
Mof_H 	H 	0.1551	0.3166	0.4256	0.099
Mof_H 	H 	0.735	0.5685	0.5733	-0.016
Mof_H 	H 	0.5625	0.6903	0.4008	-0.022
Mof_H 	H 	0.3403	0.1905	0.6013	0.108
Mof_H 	H 	0.9008	0.4273	0.3528	0.068
Mof_H 	H 	0.9254	0.364	0.4932	0.067
Mof_H 	H 	0.3506	0.6492	0.236	0.065
Mof_H 	H 	0.5607	0.602	0.196	0.068
Mof_H 	H 	0.9765	0.5774	0.4072	0.169
Mof_H 	H 	0.8446	0.658	0.3312	-0.044
Mof_H 	H 	0.1898	0.8418	0.2138	-0.019
Mof_H 	H 	0.3353	0.7705	0.2835	0.126
Mof_H 	H 	0.5807	0.4256	0.2578	0.11
Mof_H 	H 	0.3083	0.5733	0.8582	-0.012
Mof_H 	H 	0.9633	0.4008	0.9089	0.014
Mof_H 	H 	0.9416	0.6013	0.2082	0.128
Mof_C 	C 	0.1254	0.3933	0.1355	0.136
Mof_C 	C 	0.7583	0.604	0.826	-0.073
Mof_C 	C 	0.6674	0.5268	0.8682	-0.104
Mof_C 	C 	0.73	0.4821	0.933	0.132
Mof_C 	C 	0.6725	0.3993	0.9885	-0.155
Mof_C 	C 	0.7392	0.3549	0.0482	0.105
Mof_C 	C 	0.324	0.7304	0.8903	-0.107
Mof_C 	C 	0.2319	0.7525	0.8419	-0.06
Mof_C 	C 	0.1107	0.6793	0.8725	0.077
Mof_C 	C 	0.0053	0.3241	0.1632	-0.22
Mof_C 	C 	0.4704	0.6461	0.0172	0.112
Mof_C 	C 	0.6078	0.6324	0.999	-0.125
Mof_C 	C 	0.7321	0.6785	0.0022	0.039
Mof_C 	C 	0.6002	0.7465	0.0408	0.103
Mof_C 	C 	0.471	0.7052	0.0397	-0.189
Mof_C 	C 	0.9971	0.2477	0.2395	0.242
Mof_C 	C 	0.9006	0.2256	0.3131	-0.259
Mof_C 	C 	0.8967	0.1549	0.3819	0.147
Mof_C 	C 	0.0688	0.1253	0.3115	0.139
Mof_C 	C 	0.9168	0.8039	0.7613	-0.172
Mof_C 	C 	0.2609	0.1355	0.4712	0.107
Mof_C 	C 	0.5843	0.826	0.57	-0.092
Mof_C 	C 	0.5356	0.8682	0.605	-0.097
Mof_C 	C 	0.663	0.933	0.5849	0.131
Mof_C 	C 	0.661	0.9885	0.6122	-0.161
Mof_C 	C 	0.7874	0.0482	0.5969	0.12
Mof_C 	C 	0.2143	0.8903	0.3793	-0.078
Mof_C 	C 	0.0738	0.8419	0.4056	-0.121
Mof_C 	C 	0.9832	0.8725	0.4482	0.156
Mof_C 	C 	0.1685	0.1632	0.5127	-0.137
Mof_C 	C 	0.4876	0.0172	0.3367	0.114
Mof_C 	C 	0.6068	0.999	0.3686	-0.132
Mof_C 	C 	0.7343	0.0022	0.3193	0.046
Mof_C 	C 	0.641	0.0408	0.2127	0.104
Mof_C 	C 	0.5107	0.0397	0.2551	-0.191
Mof_C 	C 	0.2366	0.2395	0.5128	0.156
Mof_C 	C 	0.2137	0.3131	0.4613	-0.216
Mof_C 	C 	0.2786	0.3819	0.4632	0.117
Mof_C 	C 	0.3803	0.3115	0.5632	0.134
Mof_C 	C 	0.6781	0.7613	0.4348	-0.231
Mof_C 	C 	0.7321	0.4712	0.3933	0.121
Mof_C 	C 	0.1543	0.57	0.604	-0.086
Mof_C 	C 	0.1406	0.605	0.5268	-0.106
Mof_C 	C 	0.2479	0.5849	0.4821	0.135
Mof_C 	C 	0.2732	0.6122	0.3993	-0.185
Mof_C 	C 	0.3843	0.5969	0.3549	0.133
Mof_C 	C 	0.5936	0.3793	0.7304	-0.085
Mof_C 	C 	0.4794	0.4056	0.7525	-0.087
Mof_C 	C 	0.4314	0.4482	0.6793	0.115
Mof_C 	C 	0.6812	0.5127	0.3241	-0.159
Mof_C 	C 	0.8243	0.3367	0.6461	0.109
Mof_C 	C 	0.9754	0.3686	0.6324	-0.096
Mof_C 	C 	0.0536	0.3193	0.6785	0.025
Mof_C 	C 	0.8537	0.2127	0.7465	0.102
Mof_C 	C 	0.7658	0.2551	0.7052	-0.179
Mof_C 	C 	0.7494	0.5128	0.2477	0.184
Mof_C 	C 	0.675	0.4613	0.2256	-0.232
Mof_C 	C 	0.7418	0.4632	0.1549	0.13
Mof_C 	C 	0.9435	0.5632	0.1253	0.189
Mof_C 	C 	0.1129	0.4348	0.8039	-0.196
Mof_C 	C 	0.8746	0.6067	0.8645	0.099
Mof_C 	C 	0.2417	0.396	0.174	-0.109
Mof_C 	C 	0.3326	0.4732	0.1318	-0.089
Mof_C 	C 	0.27	0.5179	0.067	0.118
Mof_C 	C 	0.3275	0.6007	0.0115	-0.161
Mof_C 	C 	0.2608	0.6451	0.9518	0.144
Mof_C 	C 	0.676	0.2696	0.1097	-0.073
Mof_C 	C 	0.7681	0.2475	0.1581	-0.112
Mof_C 	C 	0.8893	0.3207	0.1275	0.16
Mof_C 	C 	0.9947	0.6759	0.8368	-0.091
Mof_C 	C 	0.5296	0.3539	0.9828	0.226
Mof_C 	C 	0.3922	0.3676	0.001	-0.33
Mof_C 	C 	0.2679	0.3215	0.9978	0.233
Mof_C 	C 	0.3998	0.2535	0.9592	0.161
Mof_C 	C 	0.529	0.2948	0.9603	-0.266
Mof_C 	C 	0.0029	0.7523	0.7605	0.102
Mof_C 	C 	0.0994	0.7744	0.6869	-0.185
Mof_C 	C 	0.1033	0.8451	0.6181	0.1
Mof_C 	C 	0.9312	0.8747	0.6885	0.138
Mof_C 	C 	0.0832	0.1961	0.2387	-0.28
Mof_C 	C 	0.7391	0.8645	0.5288	0.124
Mof_C 	C 	0.4157	0.174	0.43	-0.087
Mof_C 	C 	0.4644	0.1318	0.395	-0.098
Mof_C 	C 	0.337	0.067	0.4151	0.121
Mof_C 	C 	0.339	0.0115	0.3878	-0.16
Mof_C 	C 	0.2126	0.9518	0.4031	0.133
Mof_C 	C 	0.7857	0.1097	0.6207	-0.107
Mof_C 	C 	0.9262	0.1581	0.5944	-0.043
Mof_C 	C 	0.0168	0.1275	0.5518	0.072
Mof_C 	C 	0.8315	0.8368	0.4873	-0.165
Mof_C 	C 	0.5124	0.9828	0.6633	0.226
Mof_C 	C 	0.3932	0.001	0.6314	-0.329
Mof_C 	C 	0.2657	0.9978	0.6807	0.231
Mof_C 	C 	0.359	0.9592	0.7873	0.161
Mof_C 	C 	0.4893	0.9603	0.7449	-0.266
Mof_C 	C 	0.7634	0.7605	0.4872	0.18
Mof_C 	C 	0.7863	0.6869	0.5387	-0.226
Mof_C 	C 	0.7214	0.6181	0.5368	0.128
Mof_C 	C 	0.6197	0.6885	0.4368	0.146
Mof_C 	C 	0.3219	0.2387	0.5652	-0.218
Mof_C 	C 	0.2679	0.5288	0.6067	0.113
Mof_C 	C 	0.8457	0.43	0.396	-0.095
Mof_C 	C 	0.8594	0.395	0.4732	-0.088
Mof_C 	C 	0.7521	0.4151	0.5179	0.116
Mof_C 	C 	0.7268	0.3878	0.6007	-0.135
Mof_C 	C 	0.6157	0.4031	0.6451	0.116
Mof_C 	C 	0.4064	0.6207	0.2696	-0.097
Mof_C 	C 	0.5206	0.5944	0.2475	-0.084
Mof_C 	C 	0.5686	0.5518	0.3207	0.119
Mof_C 	C 	0.3188	0.4873	0.6759	-0.149
Mof_C 	C 	0.1757	0.6633	0.3539	0.227
Mof_C 	C 	0.0246	0.6314	0.3676	-0.354
Mof_C 	C 	0.9464	0.6807	0.3215	0.24
Mof_C 	C 	0.1463	0.7873	0.2535	0.161
Mof_C 	C 	0.2342	0.7449	0.2948	-0.274
Mof_C 	C 	0.2506	0.4872	0.7523	0.154
Mof_C 	C 	0.325	0.5387	0.7744	-0.209
Mof_C 	C 	0.2582	0.5368	0.8451	0.115
Mof_C 	C 	0.0565	0.4368	0.8747	0.09
Mof_C 	C 	0.8871	0.5652	0.1961	-0.252
Mof_N 	N 	0.14467	0.46894	0.06813	-0.236
Mof_N 	N 	0.87107	0.38614	0.05883	-0.23
Mof_N 	N 	0.7319	0.734	0.0223	-0.134
Mof_N 	N 	0.9792	0.1036	0.3813	-0.203
Mof_N 	N 	0.2128	0.06813	0.46293	-0.23
Mof_N 	N 	0.9299	0.05883	0.55503	-0.213
Mof_N 	N 	0.7542	0.0223	0.2437	-0.137
Mof_N 	N 	0.3605	0.3813	0.5151	-0.211
Mof_N 	N 	0.67573	0.46293	0.46894	-0.232
Mof_N 	N 	0.48493	0.55503	0.38614	-0.236
Mof_N 	N 	0.9979	0.2437	0.734	-0.12
Mof_N 	N 	0.8756	0.5151	0.1036	-0.217
Mof_N 	N 	0.85533	0.53106	0.93187	-0.216
Mof_N 	N 	0.12893	0.61386	0.94117	-0.224
Mof_N 	N 	0.2681	0.266	0.9777	-0.182
Mof_N 	N 	0.0208	0.8964	0.6187	-0.208
Mof_N 	N 	0.7872	0.93187	0.53707	-0.222
Mof_N 	N 	0.0701	0.94117	0.44497	-0.239
Mof_N 	N 	0.2458	0.9777	0.7563	-0.18
Mof_N 	N 	0.6395	0.6187	0.4849	-0.213
Mof_N 	N 	0.32427	0.53707	0.53106	-0.234
Mof_N 	N 	0.51507	0.44497	0.61386	-0.233
Mof_N 	N 	0.0021	0.7563	0.266	-0.194
Mof_N 	N 	0.1244	0.4849	0.8964	-0.197
_end
