data_functionalizedCrystal
_audit_creation_method	'EQeq! by Chris Wilmer'
_symmetry_space_group_name_H-M	'P1'
_symmetry_Int_Tables_number	1
_symmetry_cell_setting	triclinic
loop_
_symmetry_equiv_pos_as_xyz
  x,y,z
_cell_length_a	9.096
_cell_length_b	11.996
_cell_length_c	15.144
_cell_angle_alpha	90
_cell_angle_beta	99.4
_cell_angle_gamma	90
loop_
_atom_site_label
_atom_site_type_symbol
_atom_site_fract_x
_atom_site_fract_y
_atom_site_fract_z
_atom_site_charge
Mof_In	In	0.0511	0.9174	0.0029	2.717
Mof_K 	K 	0.4441	0.0318	0.3643	6.798
Mof_O 	O 	0.1137	0.0269	0.1126	-0.81
Mof_O 	O 	0.2803	0.063	0.232	-1.508
Mof_O 	O 	0.2612	0.8946	0.9479	-1.431
Mof_O 	O 	0.4404	0.7748	0.9274	-1.121
Mof_O 	O 	0.8176	0.9796	0.9717	-0.929
Mof_O 	O 	0.5941	0.9973	0.0123	-1.299
Mof_O 	O 	0.9785	0.7796	0.9191	-0.979
Mof_O 	O 	0.8191	0.6407	0.8897	-1.299
Mof_N 	N 	0.2211	0.8081	0.1044	-0.221
Mof_N 	N 	0.9014	0.8161	0.0901	-0.248
Mof_C 	C 	0.2285	0.0023	0.171	0.757
Mof_C 	C 	0.3111	0.8941	0.1604	-0.569
Mof_C 	C 	0.3414	0.8077	0.9699	0.414
Mof_C 	C 	0.3156	0.744	0.0515	-0.198
Mof_C 	C 	0.1422	0.734	0.1599	-0.053
Mof_C 	C 	0.9964	0.7827	0.1761	-0.343
Mof_C 	C 	0.7801	0.8911	0.1047	-0.305
Mof_C 	C 	0.7222	0.9606	0.0234	0.471
Mof_C 	C 	0.8416	0.7188	0.0348	-0.353
Mof_C 	C 	0.881	0.7139	0.9408	0.575
Mof_In	In	0.5511	0.4174	0.0029	2.327
Mof_K 	K 	0.9441	0.5318	0.3643	6.294
Mof_O 	O 	0.6137	0.5269	0.1126	-0.79
Mof_O 	O 	0.7803	0.563	0.232	-1.449
Mof_O 	O 	0.7612	0.3946	0.9479	-1.355
Mof_O 	O 	0.9404	0.2748	0.9274	-1.124
Mof_O 	O 	0.3176	0.4796	0.9717	-0.784
Mof_O 	O 	0.0941	0.4973	0.0123	-1.155
Mof_O 	O 	0.4785	0.2796	0.9191	-0.859
Mof_O 	O 	0.3191	0.1407	0.8897	-1.329
Mof_N 	N 	0.7211	0.3081	0.1044	-0.193
Mof_N 	N 	0.4014	0.3161	0.0901	-0.227
Mof_C 	C 	0.7285	0.5023	0.171	0.729
Mof_C 	C 	0.8111	0.3941	0.1604	-0.574
Mof_C 	C 	0.8414	0.3077	0.9699	0.408
Mof_C 	C 	0.8156	0.244	0.0515	-0.247
Mof_C 	C 	0.6422	0.234	0.1599	-0.191
Mof_C 	C 	0.4964	0.2827	0.1761	-0.212
Mof_C 	C 	0.2801	0.3911	0.1047	-0.236
Mof_C 	C 	0.2222	0.4606	0.0234	0.411
Mof_C 	C 	0.3416	0.2188	0.0348	-0.327
Mof_C 	C 	0.381	0.2139	0.9408	0.593
Mof_In	In	0.0511	0.0826	0.5029	2.911
Mof_K 	K 	0.4441	0.9682	0.8643	6.922
Mof_O 	O 	0.1137	0.9731	0.6126	-0.824
Mof_O 	O 	0.2803	0.937	0.732	-1.527
Mof_O 	O 	0.2612	0.1054	0.4479	-1.457
Mof_O 	O 	0.4404	0.2252	0.4274	-1.118
Mof_O 	O 	0.8176	0.0204	0.4717	-1.014
Mof_O 	O 	0.5941	0.0027	0.5123	-1.275
Mof_O 	O 	0.9785	0.2204	0.4191	-1.01
Mof_O 	O 	0.8191	0.3593	0.3897	-1.285
Mof_N 	N 	0.2211	0.1919	0.6044	-0.233
Mof_N 	N 	0.9014	0.1839	0.5901	-0.258
Mof_C 	C 	0.2285	0.9977	0.671	0.773
Mof_C 	C 	0.3111	0.1059	0.6604	-0.577
Mof_C 	C 	0.3414	0.1923	0.4699	0.356
Mof_C 	C 	0.3156	0.256	0.5515	-0.142
Mof_C 	C 	0.1422	0.266	0.6599	-0.047
Mof_C 	C 	0.9964	0.2173	0.6761	-0.353
Mof_C 	C 	0.7801	0.1089	0.6047	-0.318
Mof_C 	C 	0.7222	0.0394	0.5234	0.538
Mof_C 	C 	0.8416	0.2812	0.5348	-0.303
Mof_C 	C 	0.881	0.2861	0.4408	0.519
Mof_In	In	0.5511	0.5826	0.5029	2.554
Mof_K 	K 	0.9441	0.4682	0.8643	6.427
Mof_O 	O 	0.6137	0.4731	0.6126	-0.813
Mof_O 	O 	0.7803	0.437	0.732	-1.47
Mof_O 	O 	0.7612	0.6054	0.4479	-1.384
Mof_O 	O 	0.9404	0.7252	0.4274	-1.12
Mof_O 	O 	0.3176	0.5204	0.4717	-0.892
Mof_O 	O 	0.0941	0.5027	0.5123	-1.128
Mof_O 	O 	0.4785	0.7204	0.4191	-0.897
Mof_O 	O 	0.3191	0.8593	0.3897	-1.316
Mof_N 	N 	0.7211	0.6919	0.6044	-0.205
Mof_N 	N 	0.4014	0.6839	0.5901	-0.238
Mof_C 	C 	0.7285	0.4977	0.671	0.742
Mof_C 	C 	0.8111	0.6059	0.6604	-0.581
Mof_C 	C 	0.8414	0.6923	0.4699	0.346
Mof_C 	C 	0.8156	0.756	0.5515	-0.189
Mof_C 	C 	0.6422	0.766	0.6599	-0.19
Mof_C 	C 	0.4964	0.7173	0.6761	-0.214
Mof_C 	C 	0.2801	0.6089	0.6047	-0.25
Mof_C 	C 	0.2222	0.5394	0.5234	0.501
Mof_C 	C 	0.3416	0.7812	0.5348	-0.259
Mof_C 	C 	0.381	0.7861	0.4408	0.522
_end
