data_functionalizedCrystal
_audit_creation_method	'EQeq! by Chris Wilmer'
_symmetry_space_group_name_H-M	'P1'
_symmetry_Int_Tables_number	1
_symmetry_cell_setting	triclinic
loop_
_symmetry_equiv_pos_as_xyz
  x,y,z
_cell_length_a	10.2846
_cell_length_b	10.2846
_cell_length_c	20.0277
_cell_angle_alpha	90
_cell_angle_beta	90
_cell_angle_gamma	120
loop_
_atom_site_label
_atom_site_type_symbol
_atom_site_fract_x
_atom_site_fract_y
_atom_site_fract_z
_atom_site_charge
Mof_O 	O 	0.5426	0.4961	0.6811	-0.512
Mof_O 	O 	0.4379	0.2625	0.6454	-0.518
Mof_C 	C 	0.4898	0.3964	0.6354	0.441
Mof_C 	C 	0.4951	0.4516	0.565	-0.12
Mof_C 	C 	0.4513	0.3507	0.5132	-0.021
Mof_H 	H 	0.4168	0.2477	0.5219	0.038
Mof_C 	C 	0.458	0.3997	0.4481	-0
Mof_H 	H 	0.4292	0.3302	0.4123	0.01
Mof_O 	O 	0.5039	0.0465	0.6811	-0.512
Mof_O 	O 	0.7375	0.1754	0.6454	-0.518
Mof_C 	C 	0.6036	0.0934	0.6354	0.441
Mof_C 	C 	0.5484	0.0435	0.565	-0.12
Mof_C 	C 	0.6493	0.1006	0.5132	-0.021
Mof_H 	H 	0.7523	0.1691	0.5219	0.038
Mof_C 	C 	0.6003	0.0583	0.4481	0
Mof_H 	H 	0.6698	0.099	0.4123	0.01
Mof_O 	O 	0.9535	0.4574	0.6811	-0.512
Mof_O 	O 	0.8246	0.5621	0.6454	-0.518
Mof_C 	C 	0.9066	0.5102	0.6354	0.441
Mof_C 	C 	0.9565	0.5049	0.565	-0.12
Mof_C 	C 	0.8994	0.5487	0.5132	-0.021
Mof_H 	H 	0.8309	0.5832	0.5219	0.038
Mof_C 	C 	0.9417	0.542	0.4481	0
Mof_H 	H 	0.901	0.5708	0.4123	0.01
Mof_O 	O 	0.4574	0.5039	0.1811	-0.512
Mof_O 	O 	0.5621	0.7375	0.1454	-0.518
Mof_C 	C 	0.5102	0.6036	0.1354	0.441
Mof_C 	C 	0.5049	0.5484	0.065	-0.12
Mof_C 	C 	0.5487	0.6493	0.0132	-0.021
Mof_H 	H 	0.5832	0.7523	0.0219	0.038
Mof_C 	C 	0.542	0.6003	0.9481	-0
Mof_H 	H 	0.5708	0.6698	0.9123	0.01
Mof_O 	O 	0.4961	0.9535	0.1811	-0.512
Mof_O 	O 	0.2625	0.8246	0.1454	-0.518
Mof_C 	C 	0.3964	0.9066	0.1354	0.441
Mof_C 	C 	0.4516	0.9565	0.065	-0.12
Mof_C 	C 	0.3507	0.8994	0.0132	-0.021
Mof_H 	H 	0.2477	0.8309	0.0219	0.038
Mof_C 	C 	0.3997	0.9417	0.9481	-0
Mof_H 	H 	0.3302	0.901	0.9123	0.01
Mof_O 	O 	0.0465	0.5426	0.1811	-0.512
Mof_O 	O 	0.1754	0.4379	0.1454	-0.518
Mof_C 	C 	0.0934	0.4898	0.1354	0.441
Mof_C 	C 	0.0435	0.4951	0.065	-0.12
Mof_C 	C 	0.1006	0.4513	0.0132	-0.021
Mof_H 	H 	0.1691	0.4168	0.0219	0.038
Mof_C 	C 	0.0583	0.458	0.9481	-0
Mof_H 	H 	0.099	0.4292	0.9123	0.01
Mof_O 	O 	0.4574	0.5039	0.3189	-0.512
Mof_O 	O 	0.5621	0.7375	0.3546	-0.518
Mof_C 	C 	0.5102	0.6036	0.3646	0.441
Mof_C 	C 	0.5049	0.5484	0.435	-0.12
Mof_C 	C 	0.5487	0.6493	0.4868	-0.021
Mof_H 	H 	0.5832	0.7523	0.4781	0.038
Mof_C 	C 	0.542	0.6003	0.5519	-0
Mof_H 	H 	0.5708	0.6698	0.5877	0.01
Mof_O 	O 	0.4961	0.9535	0.3189	-0.512
Mof_O 	O 	0.2625	0.8246	0.3546	-0.518
Mof_C 	C 	0.3964	0.9066	0.3646	0.441
Mof_C 	C 	0.4516	0.9565	0.435	-0.12
Mof_C 	C 	0.3507	0.8994	0.4868	-0.021
Mof_H 	H 	0.2477	0.8309	0.4781	0.038
Mof_C 	C 	0.3997	0.9417	0.5519	0
Mof_H 	H 	0.3302	0.901	0.5877	0.01
Mof_O 	O 	0.0465	0.5426	0.3189	-0.512
Mof_O 	O 	0.1754	0.4379	0.3546	-0.518
Mof_C 	C 	0.0934	0.4898	0.3646	0.441
Mof_C 	C 	0.0435	0.4951	0.435	-0.12
Mof_C 	C 	0.1006	0.4513	0.4868	-0.021
Mof_H 	H 	0.1691	0.4168	0.4781	0.038
Mof_C 	C 	0.0583	0.458	0.5519	0
Mof_H 	H 	0.099	0.4292	0.5877	0.01
Mof_O 	O 	0.5426	0.4961	0.8189	-0.512
Mof_O 	O 	0.4379	0.2625	0.8546	-0.518
Mof_C 	C 	0.4898	0.3964	0.8646	0.441
Mof_C 	C 	0.4951	0.4516	0.935	-0.12
Mof_C 	C 	0.4513	0.3507	0.9868	-0.021
Mof_H 	H 	0.4168	0.2477	0.9781	0.038
Mof_C 	C 	0.458	0.3997	0.0519	-0
Mof_H 	H 	0.4292	0.3302	0.0877	0.01
Mof_O 	O 	0.5039	0.0465	0.8189	-0.512
Mof_O 	O 	0.7375	0.1754	0.8546	-0.518
Mof_C 	C 	0.6036	0.0934	0.8646	0.441
Mof_C 	C 	0.5484	0.0435	0.935	-0.12
Mof_C 	C 	0.6493	0.1006	0.9868	-0.021
Mof_H 	H 	0.7523	0.1691	0.9781	0.038
Mof_C 	C 	0.6003	0.0583	0.0519	-0
Mof_H 	H 	0.6698	0.099	0.0877	0.01
Mof_O 	O 	0.9535	0.4574	0.8189	-0.512
Mof_O 	O 	0.8246	0.5621	0.8546	-0.518
Mof_C 	C 	0.9066	0.5102	0.8646	0.441
Mof_C 	C 	0.9565	0.5049	0.935	-0.12
Mof_C 	C 	0.8994	0.5487	0.9868	-0.021
Mof_H 	H 	0.8309	0.5832	0.9781	0.038
Mof_C 	C 	0.9417	0.542	0.0519	-0
Mof_H 	H 	0.901	0.5708	0.0877	0.01
Mof_Er	Er	0.74683	0.5853	0.75	1.569
Mof_Er	Er	0.4147	0.16153	0.75	1.569
Mof_Er	Er	0.83847	0.25317	0.75	1.569
Mof_Er	Er	0.25317	0.4147	0.25	1.569
Mof_Er	Er	0.5853	0.83847	0.25	1.569
Mof_Er	Er	0.16153	0.74683	0.25	1.569
Mof_O 	O 	0.66667	0.33333	0.75	-0.615
Mof_O 	O 	0.33333	0.66667	0.25	-0.615
_end
