data_functionalizedCrystal
_audit_creation_method	'EQeq! by Chris Wilmer'
_symmetry_space_group_name_H-M	'P1'
_symmetry_Int_Tables_number	1
_symmetry_cell_setting	triclinic
loop_
_symmetry_equiv_pos_as_xyz
  x,y,z
_cell_length_a	18.263
_cell_length_b	6.852
_cell_length_c	9.564
_cell_angle_alpha	90
_cell_angle_beta	90
_cell_angle_gamma	90
loop_
_atom_site_label
_atom_site_type_symbol
_atom_site_fract_x
_atom_site_fract_y
_atom_site_fract_z
_atom_site_charge
Mof_O 	O 	0.0765	0.5925	0.244	-0.36
Mof_O 	O 	0.171	0.395	0.091	-0.145
Mof_O 	O 	0.0535	0.906	0.5855	-0.516
Mof_C 	C 	0.2075	0.5745	0.093	0.183
Mof_C 	C 	0.275	0.571	0.022	-0.074
Mof_O 	O 	0.4235	0.4075	0.744	-0.362
Mof_O 	O 	0.329	0.605	0.591	-0.146
Mof_O 	O 	0.4465	0.094	0.0855	-0.515
Mof_C 	C 	0.2925	0.4255	0.593	0.182
Mof_C 	C 	0.225	0.429	0.522	-0.072
Mof_O 	O 	0.9235	0.0925	0.756	-0.361
Mof_O 	O 	0.829	0.895	0.909	-0.143
Mof_O 	O 	0.9465	0.406	0.4145	-0.517
Mof_C 	C 	0.7925	0.0745	0.907	0.181
Mof_C 	C 	0.725	0.071	0.978	-0.076
Mof_O 	O 	0.5765	0.9075	0.256	-0.363
Mof_O 	O 	0.671	0.105	0.409	-0.144
Mof_O 	O 	0.5535	0.594	0.9145	-0.517
Mof_C 	C 	0.7075	0.9255	0.407	0.18
Mof_C 	C 	0.775	0.929	0.478	-0.073
Mof_O 	O 	0.9235	0.4075	0.756	-0.361
Mof_O 	O 	0.829	0.605	0.909	-0.146
Mof_O 	O 	0.9465	0.094	0.4145	-0.516
Mof_C 	C 	0.7925	0.4255	0.907	0.183
Mof_C 	C 	0.725	0.429	0.978	-0.074
Mof_O 	O 	0.5765	0.5925	0.256	-0.362
Mof_O 	O 	0.671	0.395	0.409	-0.146
Mof_O 	O 	0.5535	0.906	0.9145	-0.515
Mof_C 	C 	0.7075	0.5745	0.407	0.182
Mof_C 	C 	0.775	0.571	0.478	-0.072
Mof_O 	O 	0.0765	0.9075	0.244	-0.361
Mof_O 	O 	0.171	0.105	0.091	-0.143
Mof_O 	O 	0.0535	0.594	0.5855	-0.517
Mof_C 	C 	0.2075	0.9255	0.093	0.181
Mof_C 	C 	0.275	0.929	0.022	-0.076
Mof_O 	O 	0.4235	0.0925	0.744	-0.363
Mof_O 	O 	0.329	0.895	0.591	-0.144
Mof_O 	O 	0.4465	0.406	0.0855	-0.517
Mof_C 	C 	0.2925	0.0745	0.593	0.18
Mof_C 	C 	0.225	0.071	0.522	-0.073
Mof_Ca	Ca	0.9805	0.75	0.3942	1.383
Mof_N 	N 	0.378	0.75	0.917	-0.158
Mof_C 	C 	0.105	0.75	0.209	0.383
Mof_C 	C 	0.174	0.75	0.127	-0.196
Mof_C 	C 	0.307	0.75	0.98	0.085
Mof_C 	C 	0.073	0.75	0.639	0.442
Mof_C 	C 	0.126	0.75	0.767	-0.106
Mof_Ca	Ca	0.5195	0.25	0.8942	1.382
Mof_N 	N 	0.122	0.25	0.417	-0.159
Mof_C 	C 	0.395	0.25	0.709	0.383
Mof_C 	C 	0.326	0.25	0.627	-0.196
Mof_C 	C 	0.193	0.25	0.48	0.08
Mof_C 	C 	0.427	0.25	0.139	0.442
Mof_C 	C 	0.374	0.25	0.267	-0.106
Mof_Ca	Ca	0.0195	0.25	0.6058	1.383
Mof_N 	N 	0.622	0.25	0.083	-0.158
Mof_C 	C 	0.895	0.25	0.791	0.383
Mof_C 	C 	0.826	0.25	0.873	-0.196
Mof_C 	C 	0.693	0.25	0.02	0.085
Mof_C 	C 	0.927	0.25	0.361	0.442
Mof_C 	C 	0.874	0.25	0.233	-0.106
Mof_Ca	Ca	0.4805	0.75	0.1058	1.382
Mof_N 	N 	0.878	0.75	0.583	-0.159
Mof_C 	C 	0.605	0.75	0.291	0.383
Mof_C 	C 	0.674	0.75	0.373	-0.196
Mof_C 	C 	0.807	0.75	0.52	0.08
Mof_C 	C 	0.573	0.75	0.861	0.442
Mof_C 	C 	0.626	0.75	0.733	-0.106
_end
