data_functionalizedCrystal
_audit_creation_method	'EQeq! by Chris Wilmer'
_symmetry_space_group_name_H-M	'P1'
_symmetry_Int_Tables_number	1
_symmetry_cell_setting	triclinic
loop_
_symmetry_equiv_pos_as_xyz
  x,y,z
_cell_length_a	28.566
_cell_length_b	9.264
_cell_length_c	26.188
_cell_angle_alpha	90
_cell_angle_beta	117.254
_cell_angle_gamma	90
loop_
_atom_site_label
_atom_site_type_symbol
_atom_site_fract_x
_atom_site_fract_y
_atom_site_fract_z
_atom_site_charge
Mof_Zn	Zn	0.73303	0.13839	0.02823	1.215
Mof_O 	O 	0.71076	0.0657	0.94645	-0.483
Mof_O 	O 	0.73669	0.2287	0.90275	-0.465
Mof_O 	O 	0.30765	0.4343	0.55082	-0.463
Mof_O 	O 	0.33171	0.269	0.50559	-0.464
Mof_N 	N 	0.70438	0.9638	0.05149	-0.229
Mof_C 	C 	0.68972	0.0245	0.8503	-0.143
Mof_C 	C 	0.70112	0.0525	0.8054	0.066
Mof_H 	H 	0.7239	0.1276	0.8085	0.021
Mof_C 	C 	0.65572	0.9131	0.8447	0.064
Mof_H 	H 	0.6481	0.8925	0.8749	0.02
Mof_C 	C 	0.67902	0.9698	0.75583	-0.132
Mof_H 	H 	0.6875	0.9892	0.7262	0.077
Mof_C 	C 	0.63266	0.8315	0.79509	-0.13
Mof_H 	H 	0.6092	0.7584	0.7919	0.075
Mof_C 	C 	0.64444	0.8584	0.74976	0.061
Mof_C 	C 	0.62085	0.7702	0.696	0.023
Mof_C 	C 	0.64796	0.7508	0.66376	-0.086
Mof_H 	H 	0.6814	0.7903	0.6765	0.062
Mof_C 	C 	0.62564	0.6731	0.61286	0.002
Mof_H 	H 	0.6436	0.663	0.591	0.035
Mof_C 	C 	0.57152	0.7074	0.67674	-0.096
Mof_H 	H 	0.5533	0.7192	0.6981	0.061
Mof_C 	C 	0.57673	0.6111	0.59477	-0.089
Mof_H 	H 	0.5621	0.5577	0.561	0.058
Mof_C 	C 	0.54872	0.627	0.62626	0.022
Mof_C 	C 	0.49552	0.5631	0.60503	0.053
Mof_C 	C 	0.48253	0.4363	0.57279	-0.126
Mof_H 	H 	0.5079	0.3905	0.5656	0.068
Mof_C 	C 	0.45597	0.6273	0.6148	-0.126
Mof_H 	H 	0.4635	0.7115	0.6364	0.07
Mof_C 	C 	0.43226	0.377	0.55119	0.055
Mof_H 	H 	0.4244	0.2922	0.5299	0.02
Mof_C 	C 	0.40623	0.5687	0.59306	0.058
Mof_H 	H 	0.3806	0.614	0.5999	0.023
Mof_C 	C 	0.39421	0.4427	0.56114	-0.138
Mof_C 	C 	0.34104	0.3759	0.53907	0.396
Mof_C 	C 	0.72322	0.8315	0.0502	0.037
Mof_H 	H 	0.7518	0.8229	0.0424	0.017
Mof_C 	C 	0.66329	0.9744	0.06214	-0.011
Mof_H 	H 	0.6498	0.0658	0.0622	0.027
Mof_C 	C 	0.7016	0.7094	0.0599	-0.057
Mof_H 	H 	0.7155	0.6191	0.059	0.062
Mof_C 	C 	0.6589	0.722	0.071	-0.065
Mof_H 	H 	0.6434	0.6399	0.077	0.057
Mof_C 	C 	0.6395	0.8571	0.07309	0.046
Mof_C 	C 	0.71326	0.1148	0.90395	0.412
Mof_C 	C 	0.5935	0.8813	0.0857	-0.147
Mof_H 	H 	0.5916	0.8453	0.1178	0.081
Mof_C 	C 	0.55269	0.9678	0.04137	0.088
Mof_H 	H 	0.5692	0.0552	0.036	0.008
Mof_C 	C 	0.52741	0.8929	0.9866	-0.147
Mof_H 	H 	0.5106	0.8057	0.9907	0.075
Mof_H 	H 	0.5537	0.8653	0.9747	0.076
Mof_C 	C 	0.48694	0.9884	0.94167	-0.151
Mof_H 	H 	0.504	0.0733	0.9362	0.074
Mof_H 	H 	0.4702	0.9369	0.9054	0.076
Mof_Zn	Zn	0.23303	0.63839	0.02823	1.216
Mof_O 	O 	0.21076	0.5657	0.94645	-0.482
Mof_O 	O 	0.23669	0.7287	0.90275	-0.464
Mof_O 	O 	0.80765	0.9343	0.55082	-0.462
Mof_O 	O 	0.83171	0.769	0.50559	-0.463
Mof_N 	N 	0.20438	0.4638	0.05149	-0.228
Mof_C 	C 	0.18972	0.5245	0.8503	-0.143
Mof_C 	C 	0.20112	0.5525	0.8054	0.065
Mof_H 	H 	0.2239	0.6276	0.8085	0.021
Mof_C 	C 	0.15572	0.4131	0.8447	0.065
Mof_H 	H 	0.1481	0.3925	0.8749	0.02
Mof_C 	C 	0.17902	0.4698	0.75583	-0.131
Mof_H 	H 	0.1875	0.4892	0.7262	0.076
Mof_C 	C 	0.13266	0.3315	0.79509	-0.13
Mof_H 	H 	0.1092	0.2584	0.7919	0.075
Mof_C 	C 	0.14444	0.3584	0.74976	0.061
Mof_C 	C 	0.12085	0.2702	0.696	0.023
Mof_C 	C 	0.14796	0.2508	0.66376	-0.086
Mof_H 	H 	0.1814	0.2903	0.6765	0.062
Mof_C 	C 	0.12564	0.1731	0.61286	0.002
Mof_H 	H 	0.1436	0.163	0.591	0.035
Mof_C 	C 	0.07152	0.2074	0.67674	-0.096
Mof_H 	H 	0.0533	0.2192	0.6981	0.061
Mof_C 	C 	0.07673	0.1111	0.59477	-0.089
Mof_H 	H 	0.0621	0.0577	0.561	0.058
Mof_C 	C 	0.04872	0.127	0.62626	0.022
Mof_C 	C 	0.99552	0.0631	0.60503	0.053
Mof_C 	C 	0.98253	0.9363	0.57279	-0.126
Mof_H 	H 	0.0079	0.8905	0.5656	0.068
Mof_C 	C 	0.95597	0.1273	0.6148	-0.127
Mof_H 	H 	0.9635	0.2115	0.6364	0.07
Mof_C 	C 	0.93226	0.877	0.55119	0.055
Mof_H 	H 	0.9244	0.7922	0.5299	0.02
Mof_C 	C 	0.90623	0.0687	0.59306	0.059
Mof_H 	H 	0.8806	0.114	0.5999	0.023
Mof_C 	C 	0.89421	0.9427	0.56114	-0.138
Mof_C 	C 	0.84104	0.8759	0.53907	0.396
Mof_C 	C 	0.22322	0.3315	0.0502	0.037
Mof_H 	H 	0.2518	0.3229	0.0424	0.017
Mof_C 	C 	0.16329	0.4744	0.06214	-0.012
Mof_H 	H 	0.1498	0.5658	0.0622	0.028
Mof_C 	C 	0.2016	0.2094	0.0599	-0.057
Mof_H 	H 	0.2155	0.1191	0.059	0.062
Mof_C 	C 	0.1589	0.222	0.071	-0.065
Mof_H 	H 	0.1434	0.1399	0.077	0.057
Mof_C 	C 	0.1395	0.3571	0.07309	0.046
Mof_C 	C 	0.21326	0.6148	0.90395	0.412
Mof_C 	C 	0.0935	0.3813	0.0857	-0.146
Mof_H 	H 	0.0916	0.3453	0.1178	0.081
Mof_C 	C 	0.05269	0.4678	0.04137	0.085
Mof_H 	H 	0.0692	0.5552	0.036	0.009
Mof_C 	C 	0.02741	0.3929	0.9866	-0.145
Mof_H 	H 	0.0106	0.3057	0.9907	0.074
Mof_H 	H 	0.0537	0.3653	0.9747	0.076
Mof_C 	C 	0.98694	0.4884	0.94167	-0.15
Mof_H 	H 	0.004	0.5733	0.9362	0.074
Mof_H 	H 	0.9702	0.4369	0.9054	0.076
Mof_Zn	Zn	0.26697	0.13839	0.47177	1.216
Mof_O 	O 	0.28924	0.0657	0.55355	-0.482
Mof_O 	O 	0.26331	0.2287	0.59725	-0.464
Mof_O 	O 	0.69235	0.4343	0.94918	-0.461
Mof_O 	O 	0.66829	0.269	0.99441	-0.463
Mof_N 	N 	0.29562	0.9638	0.44851	-0.228
Mof_C 	C 	0.31028	0.0245	0.6497	-0.143
Mof_C 	C 	0.29888	0.0525	0.6946	0.066
Mof_H 	H 	0.2761	0.1276	0.6915	0.021
Mof_C 	C 	0.34428	0.9131	0.6553	0.065
Mof_H 	H 	0.3519	0.8925	0.6251	0.02
Mof_C 	C 	0.32098	0.9698	0.74417	-0.132
Mof_H 	H 	0.3125	0.9892	0.7738	0.077
Mof_C 	C 	0.36734	0.8315	0.70491	-0.13
Mof_H 	H 	0.3908	0.7584	0.7081	0.075
Mof_C 	C 	0.35556	0.8584	0.75024	0.061
Mof_C 	C 	0.37915	0.7702	0.804	0.023
Mof_C 	C 	0.35204	0.7508	0.83624	-0.086
Mof_H 	H 	0.3186	0.7903	0.8235	0.062
Mof_C 	C 	0.37436	0.6731	0.88714	0.002
Mof_H 	H 	0.3564	0.663	0.909	0.035
Mof_C 	C 	0.42848	0.7074	0.82326	-0.096
Mof_H 	H 	0.4467	0.7192	0.8019	0.061
Mof_C 	C 	0.42327	0.6111	0.90523	-0.089
Mof_H 	H 	0.4379	0.5577	0.939	0.058
Mof_C 	C 	0.45128	0.627	0.87374	0.022
Mof_C 	C 	0.50448	0.5631	0.89497	0.053
Mof_C 	C 	0.51747	0.4363	0.92721	-0.126
Mof_H 	H 	0.4921	0.3905	0.9344	0.068
Mof_C 	C 	0.54403	0.6273	0.8852	-0.126
Mof_H 	H 	0.5365	0.7115	0.8636	0.07
Mof_C 	C 	0.56774	0.377	0.94881	0.055
Mof_H 	H 	0.5756	0.2922	0.9701	0.02
Mof_C 	C 	0.59377	0.5687	0.90694	0.058
Mof_H 	H 	0.6194	0.614	0.9001	0.023
Mof_C 	C 	0.60579	0.4427	0.93886	-0.138
Mof_C 	C 	0.65896	0.3759	0.96093	0.396
Mof_C 	C 	0.27678	0.8315	0.4498	0.037
Mof_H 	H 	0.2482	0.8229	0.4576	0.017
Mof_C 	C 	0.33671	0.9744	0.43786	-0.012
Mof_H 	H 	0.3502	0.0658	0.4378	0.028
Mof_C 	C 	0.2984	0.7094	0.4401	-0.057
Mof_H 	H 	0.2845	0.6191	0.441	0.062
Mof_C 	C 	0.3411	0.722	0.429	-0.065
Mof_H 	H 	0.3566	0.6399	0.423	0.057
Mof_C 	C 	0.3605	0.8571	0.42691	0.046
Mof_C 	C 	0.28674	0.1148	0.59605	0.412
Mof_C 	C 	0.4065	0.8813	0.4143	-0.146
Mof_H 	H 	0.4084	0.8453	0.3822	0.081
Mof_C 	C 	0.44731	0.9678	0.45863	0.086
Mof_H 	H 	0.4308	0.0552	0.464	0.009
Mof_C 	C 	0.47259	0.8929	0.5134	-0.146
Mof_H 	H 	0.4894	0.8057	0.5093	0.075
Mof_H 	H 	0.4463	0.8653	0.5253	0.076
Mof_C 	C 	0.51306	0.9884	0.55833	-0.149
Mof_H 	H 	0.496	0.0733	0.5638	0.073
Mof_H 	H 	0.5298	0.9369	0.5946	0.075
Mof_Zn	Zn	0.76698	0.63839	0.47177	1.216
Mof_O 	O 	0.78924	0.5657	0.55355	-0.482
Mof_O 	O 	0.76331	0.7287	0.59725	-0.464
Mof_O 	O 	0.19235	0.9343	0.94918	-0.462
Mof_O 	O 	0.16829	0.769	0.99441	-0.463
Mof_N 	N 	0.79562	0.4638	0.44851	-0.228
Mof_C 	C 	0.81028	0.5245	0.6497	-0.143
Mof_C 	C 	0.79888	0.5525	0.6946	0.065
Mof_H 	H 	0.7761	0.6276	0.6915	0.021
Mof_C 	C 	0.84428	0.4131	0.6553	0.065
Mof_H 	H 	0.8519	0.3925	0.6251	0.02
Mof_C 	C 	0.82098	0.4698	0.74417	-0.131
Mof_H 	H 	0.8125	0.4892	0.7738	0.077
Mof_C 	C 	0.86734	0.3315	0.70491	-0.131
Mof_H 	H 	0.8908	0.2584	0.7081	0.075
Mof_C 	C 	0.85556	0.3584	0.75024	0.062
Mof_C 	C 	0.87915	0.2702	0.804	0.023
Mof_C 	C 	0.85204	0.2508	0.83624	-0.086
Mof_H 	H 	0.8186	0.2903	0.8235	0.062
Mof_C 	C 	0.87436	0.1731	0.88714	0.002
Mof_H 	H 	0.8564	0.163	0.909	0.035
Mof_C 	C 	0.92848	0.2074	0.82326	-0.095
Mof_H 	H 	0.9467	0.2192	0.8019	0.06
Mof_C 	C 	0.92327	0.1111	0.90523	-0.088
Mof_H 	H 	0.9379	0.0577	0.939	0.058
Mof_C 	C 	0.95128	0.127	0.87374	0.021
Mof_C 	C 	0.00448	0.0631	0.89497	0.055
Mof_C 	C 	0.01747	0.9363	0.92721	-0.127
Mof_H 	H 	0.9921	0.8905	0.9344	0.068
Mof_C 	C 	0.04403	0.1273	0.8852	-0.128
Mof_H 	H 	0.0365	0.2115	0.8636	0.071
Mof_C 	C 	0.06774	0.877	0.94881	0.056
Mof_H 	H 	0.0756	0.7922	0.9701	0.02
Mof_C 	C 	0.09377	0.0687	0.90694	0.06
Mof_H 	H 	0.1194	0.114	0.9001	0.022
Mof_C 	C 	0.10579	0.9427	0.93886	-0.139
Mof_C 	C 	0.15896	0.8759	0.96093	0.396
Mof_C 	C 	0.77678	0.3315	0.4498	0.037
Mof_H 	H 	0.7482	0.3229	0.4576	0.017
Mof_C 	C 	0.83671	0.4744	0.43786	-0.012
Mof_H 	H 	0.8502	0.5658	0.4378	0.028
Mof_C 	C 	0.7984	0.2094	0.4401	-0.057
Mof_H 	H 	0.7845	0.1191	0.441	0.062
Mof_C 	C 	0.8411	0.222	0.429	-0.065
Mof_H 	H 	0.8566	0.1399	0.423	0.057
Mof_C 	C 	0.8605	0.3571	0.42691	0.046
Mof_C 	C 	0.78674	0.6148	0.59605	0.412
Mof_C 	C 	0.9065	0.3813	0.4143	-0.146
Mof_H 	H 	0.9084	0.3453	0.3822	0.081
Mof_C 	C 	0.94731	0.4678	0.45863	0.085
Mof_H 	H 	0.9308	0.5552	0.464	0.009
Mof_C 	C 	0.97259	0.3929	0.5134	-0.146
Mof_H 	H 	0.9894	0.3057	0.5093	0.075
Mof_H 	H 	0.9463	0.3653	0.5253	0.076
Mof_C 	C 	0.01306	0.4884	0.55833	-0.148
Mof_H 	H 	0.996	0.5733	0.5638	0.073
Mof_H 	H 	0.0298	0.4369	0.5946	0.075
Mof_Zn	Zn	0.26697	0.86161	0.97177	1.216
Mof_O 	O 	0.28924	0.9343	0.05355	-0.482
Mof_O 	O 	0.26331	0.7713	0.09725	-0.464
Mof_O 	O 	0.69235	0.5657	0.44918	-0.461
Mof_O 	O 	0.66829	0.731	0.49441	-0.463
Mof_N 	N 	0.29562	0.0362	0.94851	-0.228
Mof_C 	C 	0.31028	0.9755	0.1497	-0.143
Mof_C 	C 	0.29888	0.9475	0.1946	0.066
Mof_H 	H 	0.2761	0.8724	0.1915	0.021
Mof_C 	C 	0.34428	0.0869	0.1553	0.064
Mof_H 	H 	0.3519	0.1075	0.1251	0.02
Mof_C 	C 	0.32098	0.0302	0.24417	-0.132
Mof_H 	H 	0.3125	0.0108	0.2738	0.077
Mof_C 	C 	0.36734	0.1685	0.20491	-0.13
Mof_H 	H 	0.3908	0.2416	0.2081	0.075
Mof_C 	C 	0.35556	0.1416	0.25024	0.061
Mof_C 	C 	0.37915	0.2298	0.304	0.023
Mof_C 	C 	0.35204	0.2492	0.33624	-0.086
Mof_H 	H 	0.3186	0.2097	0.3235	0.062
Mof_C 	C 	0.37436	0.3269	0.38714	0.002
Mof_H 	H 	0.3564	0.337	0.409	0.035
Mof_C 	C 	0.42848	0.2926	0.32326	-0.096
Mof_H 	H 	0.4467	0.2808	0.3019	0.061
Mof_C 	C 	0.42327	0.3889	0.40523	-0.089
Mof_H 	H 	0.4379	0.4423	0.439	0.058
Mof_C 	C 	0.45128	0.373	0.37374	0.022
Mof_C 	C 	0.50448	0.4369	0.39497	0.053
Mof_C 	C 	0.51747	0.5637	0.42721	-0.126
Mof_H 	H 	0.4921	0.6095	0.4344	0.068
Mof_C 	C 	0.54403	0.3727	0.3852	-0.126
Mof_H 	H 	0.5365	0.2885	0.3636	0.07
Mof_C 	C 	0.56774	0.623	0.44881	0.055
Mof_H 	H 	0.5756	0.7078	0.4701	0.02
Mof_C 	C 	0.59377	0.4313	0.40694	0.058
Mof_H 	H 	0.6194	0.386	0.4001	0.023
Mof_C 	C 	0.60579	0.5573	0.43886	-0.138
Mof_C 	C 	0.65896	0.6241	0.46093	0.396
Mof_C 	C 	0.27678	0.1685	0.9498	0.037
Mof_H 	H 	0.2482	0.1771	0.9576	0.017
Mof_C 	C 	0.33671	0.0256	0.93786	-0.011
Mof_H 	H 	0.3502	0.9342	0.9378	0.027
Mof_C 	C 	0.2984	0.2906	0.9401	-0.057
Mof_H 	H 	0.2845	0.3809	0.941	0.062
Mof_C 	C 	0.3411	0.278	0.929	-0.065
Mof_H 	H 	0.3566	0.3601	0.923	0.057
Mof_C 	C 	0.3605	0.1429	0.92691	0.046
Mof_C 	C 	0.28674	0.8852	0.09605	0.412
Mof_C 	C 	0.4065	0.1187	0.9143	-0.147
Mof_H 	H 	0.4084	0.1547	0.8822	0.081
Mof_C 	C 	0.44731	0.0322	0.95863	0.088
Mof_H 	H 	0.4308	0.9448	0.964	0.008
Mof_C 	C 	0.47259	0.1071	0.0134	-0.147
Mof_H 	H 	0.4894	0.1943	0.0093	0.075
Mof_H 	H 	0.4463	0.1347	0.0253	0.076
Mof_C 	C 	0.51306	0.0116	0.05833	-0.151
Mof_H 	H 	0.496	0.9267	0.0638	0.074
Mof_H 	H 	0.5298	0.0631	0.0946	0.076
Mof_Zn	Zn	0.76698	0.36161	0.97177	1.216
Mof_O 	O 	0.78924	0.4343	0.05355	-0.482
Mof_O 	O 	0.76331	0.2713	0.09725	-0.464
Mof_O 	O 	0.19235	0.0657	0.44918	-0.462
Mof_O 	O 	0.16829	0.231	0.49441	-0.463
Mof_N 	N 	0.79562	0.5362	0.94851	-0.228
Mof_C 	C 	0.81028	0.4755	0.1497	-0.143
Mof_C 	C 	0.79888	0.4475	0.1946	0.065
Mof_H 	H 	0.7761	0.3724	0.1915	0.021
Mof_C 	C 	0.84428	0.5869	0.1553	0.065
Mof_H 	H 	0.8519	0.6075	0.1251	0.02
Mof_C 	C 	0.82098	0.5302	0.24417	-0.131
Mof_H 	H 	0.8125	0.5108	0.2738	0.076
Mof_C 	C 	0.86734	0.6685	0.20491	-0.13
Mof_H 	H 	0.8908	0.7416	0.2081	0.075
Mof_C 	C 	0.85556	0.6416	0.25024	0.061
Mof_C 	C 	0.87915	0.7298	0.304	0.023
Mof_C 	C 	0.85204	0.7492	0.33624	-0.086
Mof_H 	H 	0.8186	0.7097	0.3235	0.062
Mof_C 	C 	0.87436	0.8269	0.38714	0.002
Mof_H 	H 	0.8564	0.837	0.409	0.035
Mof_C 	C 	0.92848	0.7926	0.32326	-0.096
Mof_H 	H 	0.9467	0.7808	0.3019	0.061
Mof_C 	C 	0.92327	0.8889	0.40523	-0.089
Mof_H 	H 	0.9379	0.9423	0.439	0.058
Mof_C 	C 	0.95128	0.873	0.37374	0.022
Mof_C 	C 	0.00448	0.9369	0.39497	0.053
Mof_C 	C 	0.01747	0.0637	0.42721	-0.126
Mof_H 	H 	0.9921	0.1095	0.4344	0.068
Mof_C 	C 	0.04403	0.8727	0.3852	-0.127
Mof_H 	H 	0.0365	0.7885	0.3636	0.07
Mof_C 	C 	0.06774	0.123	0.44881	0.055
Mof_H 	H 	0.0756	0.2078	0.4701	0.02
Mof_C 	C 	0.09377	0.9313	0.40694	0.059
Mof_H 	H 	0.1194	0.886	0.4001	0.023
Mof_C 	C 	0.10579	0.0573	0.43886	-0.138
Mof_C 	C 	0.15896	0.1241	0.46093	0.396
Mof_C 	C 	0.77678	0.6685	0.9498	0.037
Mof_H 	H 	0.7482	0.6771	0.9576	0.017
Mof_C 	C 	0.83671	0.5256	0.93786	-0.012
Mof_H 	H 	0.8502	0.4342	0.9378	0.028
Mof_C 	C 	0.7984	0.7906	0.9401	-0.057
Mof_H 	H 	0.7845	0.8809	0.941	0.062
Mof_C 	C 	0.8411	0.778	0.929	-0.065
Mof_H 	H 	0.8566	0.8601	0.923	0.057
Mof_C 	C 	0.8605	0.6429	0.92691	0.046
Mof_C 	C 	0.78674	0.3852	0.09605	0.412
Mof_C 	C 	0.9065	0.6187	0.9143	-0.146
Mof_H 	H 	0.9084	0.6547	0.8822	0.081
Mof_C 	C 	0.94731	0.5322	0.95863	0.085
Mof_H 	H 	0.9308	0.4448	0.964	0.009
Mof_C 	C 	0.97259	0.6071	0.0134	-0.145
Mof_H 	H 	0.9894	0.6943	0.0093	0.074
Mof_H 	H 	0.9463	0.6347	0.0253	0.076
Mof_C 	C 	0.01306	0.5116	0.05833	-0.15
Mof_H 	H 	0.996	0.4267	0.0638	0.074
Mof_H 	H 	0.0298	0.5631	0.0946	0.076
Mof_Zn	Zn	0.73303	0.86161	0.52823	1.216
Mof_O 	O 	0.71076	0.9343	0.44645	-0.482
Mof_O 	O 	0.73669	0.7713	0.40275	-0.464
Mof_O 	O 	0.30765	0.5657	0.05082	-0.462
Mof_O 	O 	0.33171	0.731	0.00559	-0.463
Mof_N 	N 	0.70438	0.0362	0.55149	-0.228
Mof_C 	C 	0.68972	0.9755	0.3503	-0.143
Mof_C 	C 	0.70112	0.9475	0.3054	0.066
Mof_H 	H 	0.7239	0.8724	0.3085	0.021
Mof_C 	C 	0.65572	0.0869	0.3447	0.065
Mof_H 	H 	0.6481	0.1075	0.3749	0.02
Mof_C 	C 	0.67902	0.0302	0.25583	-0.132
Mof_H 	H 	0.6875	0.0108	0.2262	0.077
Mof_C 	C 	0.63266	0.1685	0.29509	-0.13
Mof_H 	H 	0.6092	0.2416	0.2919	0.075
Mof_C 	C 	0.64444	0.1416	0.24976	0.061
Mof_C 	C 	0.62085	0.2298	0.196	0.023
Mof_C 	C 	0.64796	0.2492	0.16376	-0.086
Mof_H 	H 	0.6814	0.2097	0.1765	0.062
Mof_C 	C 	0.62564	0.3269	0.11286	0.002
Mof_H 	H 	0.6436	0.337	0.091	0.035
Mof_C 	C 	0.57152	0.2926	0.17674	-0.096
Mof_H 	H 	0.5533	0.2808	0.1981	0.061
Mof_C 	C 	0.57673	0.3889	0.09477	-0.089
Mof_H 	H 	0.5621	0.4423	0.061	0.058
Mof_C 	C 	0.54872	0.373	0.12626	0.022
Mof_C 	C 	0.49552	0.4369	0.10503	0.053
Mof_C 	C 	0.48253	0.5637	0.07279	-0.126
Mof_H 	H 	0.5079	0.6095	0.0656	0.068
Mof_C 	C 	0.45597	0.3727	0.1148	-0.126
Mof_H 	H 	0.4635	0.2885	0.1364	0.07
Mof_C 	C 	0.43226	0.623	0.05119	0.055
Mof_H 	H 	0.4244	0.7078	0.0299	0.02
Mof_C 	C 	0.40623	0.4313	0.09306	0.058
Mof_H 	H 	0.3806	0.386	0.0999	0.023
Mof_C 	C 	0.39421	0.5573	0.06114	-0.138
Mof_C 	C 	0.34104	0.6241	0.03907	0.396
Mof_C 	C 	0.72322	0.1685	0.5502	0.037
Mof_H 	H 	0.7518	0.1771	0.5424	0.017
Mof_C 	C 	0.66329	0.0256	0.56214	-0.012
Mof_H 	H 	0.6498	0.9342	0.5622	0.028
Mof_C 	C 	0.7016	0.2906	0.5599	-0.057
Mof_H 	H 	0.7155	0.3809	0.559	0.062
Mof_C 	C 	0.6589	0.278	0.571	-0.065
Mof_H 	H 	0.6434	0.3601	0.577	0.057
Mof_C 	C 	0.6395	0.1429	0.57309	0.046
Mof_C 	C 	0.71326	0.8852	0.40395	0.412
Mof_C 	C 	0.5935	0.1187	0.5857	-0.146
Mof_H 	H 	0.5916	0.1547	0.6178	0.081
Mof_C 	C 	0.55269	0.0322	0.54137	0.086
Mof_H 	H 	0.5692	0.9448	0.536	0.009
Mof_C 	C 	0.52741	0.1071	0.4866	-0.146
Mof_H 	H 	0.5106	0.1943	0.4907	0.075
Mof_H 	H 	0.5537	0.1347	0.4747	0.076
Mof_C 	C 	0.48694	0.0116	0.44167	-0.149
Mof_H 	H 	0.504	0.9267	0.4362	0.073
Mof_H 	H 	0.4702	0.0631	0.4054	0.075
Mof_Zn	Zn	0.23303	0.36161	0.52823	1.216
Mof_O 	O 	0.21076	0.4343	0.44645	-0.482
Mof_O 	O 	0.23669	0.2713	0.40275	-0.464
Mof_O 	O 	0.80765	0.0657	0.05082	-0.462
Mof_O 	O 	0.83171	0.231	0.00559	-0.463
Mof_N 	N 	0.20438	0.5362	0.55149	-0.228
Mof_C 	C 	0.18972	0.4755	0.3503	-0.143
Mof_C 	C 	0.20112	0.4475	0.3054	0.065
Mof_H 	H 	0.2239	0.3724	0.3085	0.021
Mof_C 	C 	0.15572	0.5869	0.3447	0.065
Mof_H 	H 	0.1481	0.6075	0.3749	0.02
Mof_C 	C 	0.17902	0.5302	0.25583	-0.131
Mof_H 	H 	0.1875	0.5108	0.2262	0.077
Mof_C 	C 	0.13266	0.6685	0.29509	-0.131
Mof_H 	H 	0.1092	0.7416	0.2919	0.075
Mof_C 	C 	0.14444	0.6416	0.24976	0.062
Mof_C 	C 	0.12085	0.7298	0.196	0.023
Mof_C 	C 	0.14796	0.7492	0.16376	-0.086
Mof_H 	H 	0.1814	0.7097	0.1765	0.062
Mof_C 	C 	0.12564	0.8269	0.11286	0.002
Mof_H 	H 	0.1436	0.837	0.091	0.035
Mof_C 	C 	0.07152	0.7926	0.17674	-0.095
Mof_H 	H 	0.0533	0.7808	0.1981	0.06
Mof_C 	C 	0.07673	0.8889	0.09477	-0.088
Mof_H 	H 	0.0621	0.9423	0.061	0.058
Mof_C 	C 	0.04872	0.873	0.12626	0.021
Mof_C 	C 	0.99552	0.9369	0.10503	0.055
Mof_C 	C 	0.98253	0.0637	0.07279	-0.127
Mof_H 	H 	0.0079	0.1095	0.0656	0.068
Mof_C 	C 	0.95597	0.8727	0.1148	-0.128
Mof_H 	H 	0.9635	0.7885	0.1364	0.071
Mof_C 	C 	0.93226	0.123	0.05119	0.056
Mof_H 	H 	0.9244	0.2078	0.0299	0.02
Mof_C 	C 	0.90623	0.9313	0.09306	0.06
Mof_H 	H 	0.8806	0.886	0.0999	0.022
Mof_C 	C 	0.89421	0.0573	0.06114	-0.139
Mof_C 	C 	0.84104	0.1241	0.03907	0.396
Mof_C 	C 	0.22322	0.6685	0.5502	0.037
Mof_H 	H 	0.2518	0.6771	0.5424	0.017
Mof_C 	C 	0.16329	0.5256	0.56214	-0.012
Mof_H 	H 	0.1498	0.4342	0.5622	0.028
Mof_C 	C 	0.2016	0.7906	0.5599	-0.057
Mof_H 	H 	0.2155	0.8809	0.559	0.062
Mof_C 	C 	0.1589	0.778	0.571	-0.065
Mof_H 	H 	0.1434	0.8601	0.577	0.057
Mof_C 	C 	0.1395	0.6429	0.57309	0.046
Mof_C 	C 	0.21326	0.3852	0.40395	0.412
Mof_C 	C 	0.0935	0.6187	0.5857	-0.146
Mof_H 	H 	0.0916	0.6547	0.6178	0.081
Mof_C 	C 	0.05269	0.5322	0.54137	0.085
Mof_H 	H 	0.0692	0.4448	0.536	0.009
Mof_C 	C 	0.02741	0.6071	0.4866	-0.146
Mof_H 	H 	0.0106	0.6943	0.4907	0.075
Mof_H 	H 	0.0537	0.6347	0.4747	0.076
Mof_C 	C 	0.98694	0.5116	0.44167	-0.148
Mof_H 	H 	0.004	0.4267	0.4362	0.073
Mof_H 	H 	0.9702	0.5631	0.4054	0.075
_end
