data_functionalizedCrystal
_audit_creation_method	'EQeq! by Chris Wilmer'
_symmetry_space_group_name_H-M	'P1'
_symmetry_Int_Tables_number	1
_symmetry_cell_setting	triclinic
loop_
_symmetry_equiv_pos_as_xyz
  x,y,z
_cell_length_a	8.1901
_cell_length_b	8.9629
_cell_length_c	20.1869
_cell_angle_alpha	90
_cell_angle_beta	90
_cell_angle_gamma	90.8456
loop_
_atom_site_label
_atom_site_type_symbol
_atom_site_fract_x
_atom_site_fract_y
_atom_site_fract_z
_atom_site_charge
Mof_Fe	Fe	0.5	0.5	0.5	0.678
Mof_Fe	Fe	-0	0	-0	0.583
Mof_H 	H 	0.8959	0.6471	0.4981	0.029
Mof_H 	H 	0.9894	0.801	0.1345	0.045
Mof_H 	H 	0.5283	0.6739	0.3563	0.017
Mof_H 	H 	0.4894	0.301	0.3655	0.01
Mof_H 	H 	0.0329	0.67	0.6472	0.021
Mof_H 	H 	0.8184	0.4604	0.999	0.046
Mof_H 	H 	0.0283	0.1739	0.1437	-0.019
Mof_H 	H 	0.3959	0.1471	0.0019	0.013
Mof_H 	H 	0.0106	0.199	0.8655	-0.014
Mof_H 	H 	0.9717	0.8261	0.8563	0.047
Mof_H 	H 	0.3184	0.9604	0.501	0.07
Mof_H 	H 	0.9441	0.3747	0.6659	0.032
Mof_H 	H 	0.5329	0.17	0.8528	0.024
Mof_H 	H 	0.4441	0.8747	0.8341	0.032
Mof_H 	H 	0.4717	0.3261	0.6437	0.01
Mof_H 	H 	0.6041	0.8529	0.9981	0.039
Mof_H 	H 	0.4671	0.83	0.1472	0.03
Mof_H 	H 	0.0559	0.6253	0.3341	0.02
Mof_H 	H 	0.5106	0.699	0.6345	0.017
Mof_H 	H 	0.1816	0.5396	0.001	0.025
Mof_H 	H 	0.6816	0.0396	0.499	-0.002
Mof_H 	H 	0.9671	0.33	0.3528	0.032
Mof_H 	H 	0.1041	0.3529	0.5019	0.016
Mof_H 	H 	0.5559	0.1253	0.1659	0.02
Mof_C 	C 	0.1603	0.6227	0.3521	0.105
Mof_C 	C 	0.183	0.2793	0.5022	0.107
Mof_C 	C 	0.817	0.7207	0.4978	0.114
Mof_C 	C 	0.3607	0.8373	0.1315	0.107
Mof_C 	C 	0.6393	0.1627	0.8685	0.104
Mof_C 	C 	0.6603	0.1227	0.1479	0.102
Mof_C 	C 	0.1988	0.4373	0.0016	0.093
Mof_C 	C 	0.3012	0.0627	0.5016	0.041
Mof_C 	C 	0.317	0.2207	0.0022	0.104
Mof_C 	C 	0.8012	0.5627	0.9984	0.104
Mof_C 	C 	0.8397	0.3773	0.6479	0.106
Mof_C 	C 	0.4014	0.6794	0.6248	0.113
Mof_C 	C 	0.9014	0.1794	0.8752	0.153
Mof_C 	C 	0.5986	0.3206	0.3752	0.112
Mof_C 	C 	0.9192	0.1491	0.1364	0.154
Mof_C 	C 	0.6988	0.9373	0.4984	0.153
Mof_C 	C 	0.5808	0.3509	0.6364	0.113
Mof_C 	C 	0.8607	0.3373	0.3685	0.106
Mof_C 	C 	0.0986	0.8206	0.1248	0.073
Mof_C 	C 	0.3397	0.8773	0.8521	0.109
Mof_C 	C 	0.683	0.7793	0.9978	0.114
Mof_C 	C 	0.4192	0.6491	0.3636	0.113
Mof_C 	C 	0.0808	0.8509	0.8636	0.078
Mof_C 	C 	0.1393	0.6627	0.6315	0.105
Mof_N 	N 	0.1522	0.8879	0.0722	-0.129
Mof_N 	N 	0.198	0.7243	0.227	-0.039
Mof_N 	N 	0.802	0.2757	0.773	-0.033
Mof_N 	N 	0.3261	0.7248	0.2561	-0.034
Mof_N 	N 	0.6596	0.6972	0.4966	-0.143
Mof_N 	N 	0.9156	0.6668	0.9971	-0.077
Mof_N 	N 	0.6937	0.0765	0.0888	-0.098
Mof_N 	N 	0.6739	0.2752	0.7439	-0.038
Mof_N 	N 	0.8063	0.4235	0.5888	-0.087
Mof_N 	N 	0.4156	0.1668	0.5029	-0.085
Mof_N 	N 	0.8404	0.8028	0.9966	-0.12
Mof_N 	N 	0.2027	0.8334	0.8201	-0.097
Mof_N 	N 	0.4968	0.5693	-0	-0.046
Mof_N 	N 	0.8478	0.1121	0.9278	-0.138
Mof_N 	N 	0.1739	0.7752	0.7561	-0.038
Mof_N 	N 	0.8598	0.0919	0.0823	-0.145
Mof_N 	N 	0.5844	0.8332	0.4971	-0.098
Mof_N 	N 	0.3468	0.3699	0.0012	-0.102
Mof_N 	N 	0.8468	0.8699	0.4988	-0.099
Mof_N 	N 	0.7267	0.2834	0.3367	-0.104
Mof_N 	N 	0.3063	0.9235	0.9112	-0.078
Mof_N 	N 	0.9968	0.0693	0.5	-0.033
Mof_N 	N 	0.2973	0.6666	0.3201	-0.104
Mof_N 	N 	0.8261	0.2248	0.2439	-0.034
Mof_N 	N 	0.1792	0.6	0.5763	-0.093
Mof_N 	N 	0.3598	0.5919	0.4177	-0.143
Mof_N 	N 	0.7027	0.3334	0.6799	-0.105
Mof_N 	N 	0.3208	0.9	0.0763	-0.086
Mof_N 	N 	0.3478	0.6121	0.5722	-0.144
Mof_N 	N 	0.1402	0.9081	0.9177	-0.12
Mof_N 	N 	0.5032	0.4307	-0	-0.041
Mof_N 	N 	0.1596	0.1972	0.0034	-0.147
Mof_N 	N 	0.0032	0.9307	0.5	-0.037
Mof_N 	N 	0.8208	0.4	0.4237	-0.086
Mof_N 	N 	0.6402	0.4081	0.5823	-0.143
Mof_N 	N 	0.6532	0.6301	0.9988	-0.09
Mof_N 	N 	0.0844	0.3332	0.0029	-0.103
Mof_N 	N 	0.3404	0.3028	0.5034	-0.144
Mof_N 	N 	0.302	0.7757	0.727	-0.034
Mof_N 	N 	0.1937	0.5765	0.4112	-0.093
Mof_N 	N 	0.7973	0.1666	0.1799	-0.112
Mof_N 	N 	0.2733	0.7166	0.6633	-0.102
Mof_N 	N 	0.6792	0.1	0.9237	-0.09
Mof_N 	N 	0.2267	0.7834	0.1633	-0.097
Mof_N 	N 	0.6522	0.3879	0.4278	-0.144
Mof_N 	N 	0.7733	0.2166	0.8367	-0.109
Mof_N 	N 	0.1532	0.1301	0.5012	-0.103
Mof_N 	N 	0.698	0.2243	0.273	-0.039
_end
