data_functionalizedCrystal
_audit_creation_method	'EQeq! by Chris Wilmer'
_symmetry_space_group_name_H-M	'P1'
_symmetry_Int_Tables_number	1
_symmetry_cell_setting	triclinic
loop_
_symmetry_equiv_pos_as_xyz
  x,y,z
_cell_length_a	14.3319
_cell_length_b	14.3319
_cell_length_c	14.3319
_cell_angle_alpha	108.954
_cell_angle_beta	108.954
_cell_angle_gamma	110.51
loop_
_atom_site_label
_atom_site_type_symbol
_atom_site_fract_x
_atom_site_fract_y
_atom_site_fract_z
_atom_site_charge
Mof_Cu	Cu	0.04851	0.5648	0.41197	0.888
Mof_Cu	Cu	0.86346	0.45149	0.01629	0.887
Mof_Cu	Cu	0.13654	0.54851	0.98371	0.888
Mof_Cu	Cu	0.9352	0.84717	0.48371	0.888
Mof_Cu	Cu	0.34717	0.36346	0.91197	0.889
Mof_Cu	Cu	0.95149	0.4352	0.58803	0.889
Mof_Cu	Cu	0.0648	0.15283	0.51629	0.888
Mof_Cu	Cu	0.65283	0.63654	0.08803	0.889
Mof_H 	H 	0.7326	0.7982	0.552	0.072
Mof_H 	H 	0.1352	0.0368	0.1186	0.041
Mof_H 	H 	0.6806	0.2326	0.4344	0.072
Mof_H 	H 	0.5368	0.9182	0.9016	0.043
Mof_H 	H 	0.7462	0.1806	0.948	0.072
Mof_H 	H 	0.7003	0.1244	0.5997	0.053
Mof_H 	H 	0.7018	0.7538	0.9344	0.072
Mof_H 	H 	0.9753	0.8994	0.0997	0.051
Mof_H 	H 	0.0247	0.1006	0.9003	0.051
Mof_H 	H 	0.3994	0.7997	0.9241	0.054
Mof_H 	H 	0.4834	0.3648	0.4016	0.043
Mof_H 	H 	0.2733	0.9963	0.0964	0.023
Mof_H 	H 	0.8648	0.9632	0.8814	0.041
Mof_H 	H 	0.6244	0.5247	0.4241	0.054
Mof_H 	H 	0.3999	0.1769	0.4036	0.022
Mof_H 	H 	0.4632	0.0818	0.0984	0.043
Mof_H 	H 	0.2997	0.8756	0.4003	0.053
Mof_H 	H 	0.4182	0.0166	0.3814	0.043
Mof_H 	H 	0.3231	0.2267	0.223	0.022
Mof_H 	H 	0.2982	0.2462	0.0656	0.072
Mof_H 	H 	0.5166	0.6352	0.5984	0.043
Mof_H 	H 	0.2674	0.2018	0.448	0.072
Mof_H 	H 	0.6006	0.2003	0.0759	0.054
Mof_H 	H 	0.7267	0.0037	0.9036	0.023
Mof_H 	H 	0.6769	0.7733	0.777	0.022
Mof_H 	H 	0.4963	0.8999	0.723	0.021
Mof_H 	H 	0.3756	0.4753	0.5759	0.054
Mof_H 	H 	0.3194	0.7674	0.5656	0.072
Mof_H 	H 	0.6001	0.8231	0.5964	0.022
Mof_H 	H 	0.5037	0.1001	0.277	0.021
Mof_H 	H 	0.2538	0.8194	0.052	0.072
Mof_H 	H 	0.5818	0.9834	0.6186	0.043
Mof_C 	C 	0.8643	0.4211	0.1962	0.322
Mof_C 	C 	0.4765	0.375	0.3393	-0.055
Mof_C 	C 	0.6215	0.7088	0.7697	0.006
Mof_C 	C 	0.9211	0.2249	0.5568	0.323
Mof_C 	C 	0.1357	0.5789	0.8038	0.322
Mof_C 	C 	0.2731	0.7097	0.7568	0.024
Mof_C 	C 	0.4643	0.8628	0.8393	-0.055
Mof_C 	C 	0.5471	0.4837	0.2568	0.024
Mof_C 	C 	0.0995	0.7491	0.0478	0.077
Mof_C 	C 	0.3785	0.2912	0.2303	0.006
Mof_C 	C 	0.3879	0.4364	0.7647	-0.069
Mof_C 	C 	0.7269	0.2903	0.2432	0.024
Mof_C 	C 	0.03	0.8831	0.0901	-0.058
Mof_C 	C 	0.0636	0.3283	0.9515	-0.071
Mof_C 	C 	0.0163	0.7731	0.0634	0.026
Mof_C 	C 	0.6121	0.5636	0.2353	-0.069
Mof_C 	C 	0.5609	0.1482	0.2697	0.006
Mof_C 	C 	0.9364	0.6717	0.0485	-0.071
Mof_C 	C 	0.875	0.0357	0.8985	-0.052
Mof_C 	C 	0.4529	0.5163	0.7432	0.024
Mof_C 	C 	0.7267	0.8629	0.561	-0.129
Mof_C 	C 	0.5517	0.5995	0.8504	0.077
Mof_C 	C 	0.7912	0.0609	0.9127	0.005
Mof_C 	C 	0.125	0.9643	0.1015	-0.052
Mof_C 	C 	0.8319	0.6357	0.0568	0.322
Mof_C 	C 	0.1681	0.3643	0.9432	0.322
Mof_C 	C 	0.2088	0.9391	0.0873	0.005
Mof_C 	C 	0.7509	0.2987	0.3504	0.077
Mof_C 	C 	0.6372	0.9765	0.6015	-0.057
Mof_C 	C 	0.6657	0.2267	0.3638	-0.129
Mof_C 	C 	0.293	0.9399	0.4099	-0.059
Mof_C 	C 	0.3629	0.3019	0.1362	-0.129
Mof_C 	C 	0.4399	0.53	0.6469	-0.06
Mof_C 	C 	0.2751	0.3319	0.6962	0.322
Mof_C 	C 	0.7987	0.9483	0.5478	0.076
Mof_C 	C 	0.5235	0.625	0.6607	-0.055
Mof_C 	C 	0.3518	0.1215	0.4127	0.006
Mof_C 	C 	0.9837	0.2269	0.9366	0.026
Mof_C 	C 	0.3343	0.7733	0.6362	-0.129
Mof_C 	C 	0.0789	0.7751	0.4432	0.323
Mof_C 	C 	0.2733	0.1371	0.439	-0.129
Mof_C 	C 	0.1981	0.8343	0.061	-0.128
Mof_C 	C 	0.3628	0.0235	0.3985	-0.057
Mof_C 	C 	0.6371	0.6981	0.8638	-0.129
Mof_C 	C 	0.6482	0.8785	0.5873	0.006
Mof_C 	C 	0.2097	0.9529	0.4366	0.025
Mof_C 	C 	0.7249	0.6681	0.3038	0.322
Mof_C 	C 	0.5357	0.1372	0.1607	-0.055
Mof_C 	C 	0.8283	0.3768	0.2647	-0.069
Mof_C 	C 	0.2491	0.7013	0.6496	0.077
Mof_C 	C 	0.5601	0.47	0.3531	-0.06
Mof_C 	C 	0.8019	0.1657	0.939	-0.128
Mof_C 	C 	0.7903	0.0471	0.5634	0.025
Mof_C 	C 	0.8768	0.1121	0.5485	-0.069
Mof_C 	C 	0.6169	0.207	0.1469	-0.06
Mof_C 	C 	0.2013	0.0517	0.4522	0.076
Mof_C 	C 	0.1717	0.6232	0.7353	-0.069
Mof_C 	C 	0.4483	0.4005	0.1496	0.077
Mof_C 	C 	0.707	0.0601	0.5901	-0.059
Mof_C 	C 	0.3831	0.793	0.8531	-0.06
Mof_C 	C 	0.97	0.1169	0.9099	-0.058
Mof_C 	C 	0.9005	0.2509	0.9522	0.077
Mof_C 	C 	0.4391	0.8518	0.7303	0.006
Mof_C 	C 	0.1232	0.8879	0.4515	-0.069
Mof_N 	N 	0.9301	0.0566	0.5235	-0.178
Mof_N 	N 	0.5566	0.5331	0.1265	-0.179
Mof_N 	N 	0.0699	0.9434	0.4765	-0.178
Mof_N 	N 	0.138	0.6157	0.5707	-0.21
Mof_N 	N 	0.9327	0.362	0.9777	-0.209
Mof_N 	N 	0.9669	0.5934	0.0235	-0.179
Mof_N 	N 	0.0934	0.5699	0.6265	-0.179
Mof_N 	N 	0.1157	0.045	0.4777	-0.211
Mof_N 	N 	0.0673	0.638	0.0223	-0.209
Mof_N 	N 	0.8843	0.955	0.5223	-0.211
Mof_N 	N 	0.862	0.3843	0.4293	-0.21
Mof_N 	N 	0.455	0.4327	0.0707	-0.21
Mof_N 	N 	0.545	0.5673	0.9293	-0.21
Mof_N 	N 	0.0331	0.4066	0.9765	-0.179
Mof_N 	N 	0.4434	0.4669	0.8735	-0.179
Mof_N 	N 	0.9066	0.4301	0.3735	-0.179
Mof_O 	O 	0.12962	0.72067	0.42867	-0.385
Mof_O 	O 	0.87038	0.27933	0.57133	-0.385
Mof_O 	O 	0.99059	0.73862	0.45283	-0.422
Mof_O 	O 	0.23862	0.28579	0.74803	-0.421
Mof_O 	O 	0.77933	0.708	0.40895	-0.385
Mof_O 	O 	0.792	0.70095	0.07133	-0.385
Mof_O 	O 	0.208	0.29905	0.92867	-0.385
Mof_O 	O 	0.78579	0.53776	0.04717	-0.421
Mof_O 	O 	0.20095	0.62962	0.90895	-0.385
Mof_O 	O 	0.22067	0.292	0.59105	-0.385
Mof_O 	O 	0.76138	0.71421	0.25197	-0.421
Mof_O 	O 	0.00941	0.26138	0.54717	-0.422
Mof_O 	O 	0.03776	0.49059	0.75197	-0.421
Mof_O 	O 	0.79905	0.37038	0.09105	-0.385
Mof_O 	O 	0.21421	0.46224	0.95283	-0.421
Mof_O 	O 	0.96224	0.50941	0.24803	-0.421
_end
