data_functionalizedCrystal
_audit_creation_method	'EQeq! by Chris Wilmer'
_symmetry_space_group_name_H-M	'P1'
_symmetry_Int_Tables_number	1
_symmetry_cell_setting	triclinic
loop_
_symmetry_equiv_pos_as_xyz
  x,y,z
_cell_length_a	22.805
_cell_length_b	22.805
_cell_length_c	44.0727
_cell_angle_alpha	90
_cell_angle_beta	90
_cell_angle_gamma	90
loop_
_atom_site_label
_atom_site_type_symbol
_atom_site_fract_x
_atom_site_fract_y
_atom_site_fract_z
_atom_site_charge
Mof_Cu	Cu	0.55582	0.48451	0.36105	0.912
Mof_O 	O 	0.5322	0.4296	0.33004	-0.39
Mof_O 	O 	0.4347	0.4555	0.32993	-0.396
Mof_O 	O 	0.0703	0.0329	0.89206	-0.403
Mof_O 	O 	0.04305	0.9387	0.89259	-0.408
Mof_N 	N 	0.4319	0.2544	0.2284	-0.103
Mof_N 	N 	0.3766	0.2523	0.2141	-0.046
Mof_N 	N 	0.3814	0.211	0.194	-0.079
Mof_N 	N 	0.2757	0.8915	0.0325	-0.081
Mof_N 	N 	0.2337	0.8904	0.0133	-0.044
Mof_N 	N 	0.2423	0.9352	0.99593	-0.102
Mof_C 	C 	0.4773	0.4246	0.32022	0.35
Mof_C 	C 	0.4652	0.3785	0.29707	-0.191
Mof_C 	C 	0.5087	0.3465	0.2869	0.174
Mof_H 	H 	0.546	0.351	0.29511	-0.009
Mof_C 	C 	0.4998	0.3072	0.2645	-0.265
Mof_H 	H 	0.53115	0.28485	0.25748	0.128
Mof_C 	C 	0.4479	0.2997	0.2524	0.208
Mof_C 	C 	0.3993	0.332	0.2618	-0.224
Mof_H 	H 	0.36232	0.32719	0.25328	0.128
Mof_C 	C 	0.4099	0.3716	0.2847	0.138
Mof_H 	H 	0.37914	0.39422	0.29206	0.002
Mof_C 	C 	0.4665	0.2153	0.2137	-0.006
Mof_H 	H 	0.50647	0.21021	0.21696	0.036
Mof_C 	C 	0.4331	0.1845	0.1933	0.059
Mof_C 	C 	0.4523	0.1393	0.17346	-0.012
Mof_C 	C 	0.5078	0.1146	0.17375	-0.016
Mof_H 	H 	0.5356	0.12782	0.18759	0.038
Mof_C 	C 	0.5213	0.0727	0.15458	-0.094
Mof_H 	H 	0.55882	0.05687	0.1555	0.068
Mof_C 	C 	0.4815	0.0499	0.13228	0.062
Mof_C 	C 	0.4266	0.0744	0.1325	-0.095
Mof_H 	H 	0.39767	0.05948	0.11977	0.069
Mof_C 	C 	0.4137	0.1223	0.1519	-0.021
Mof_H 	H 	0.37834	0.14219	0.14982	0.051
Mof_C 	C 	0.4483	0.9829	0.08983	0.068
Mof_C 	C 	0.4234	0.9287	0.08913	-0.1
Mof_H 	H 	0.43728	0.90075	0.10271	0.071
Mof_C 	C 	0.3791	0.9124	0.06981	-0.017
Mof_H 	H 	0.36448	0.87435	0.07041	0.049
Mof_C 	C 	0.3568	0.9516	0.0499	-0.007
Mof_C 	C 	0.3809	0.0095	0.04813	-0.026
Mof_H 	H 	0.3661	0.03775	0.03499	0.041
Mof_C 	C 	0.4291	0.0208	0.06786	-0.094
Mof_H 	H 	0.44875	0.05631	0.06569	0.069
Mof_C 	C 	0.3055	0.9403	0.029	0.064
Mof_C 	C 	0.2831	0.9701	0.00668	-0.012
Mof_H 	H 	0.29362	0.00723	0.99991	0.038
Mof_C 	C 	0.2006	0.944	0.9731	0.158
Mof_C 	C 	0.162	0.9037	0.96135	-0.175
Mof_H 	H 	0.16253	0.86616	0.96956	0.114
Mof_C 	C 	0.1218	0.9148	0.93777	0.093
Mof_H 	H 	0.09757	0.88512	0.93059	0.022
Mof_C 	C 	0.119	0.9696	0.92569	-0.145
Mof_C 	C 	0.1576	0.013	0.93543	0.081
Mof_H 	H 	0.1575	0.04963	0.92615	0.021
Mof_C 	C 	0.1971	0.0011	0.95973	-0.16
Mof_H 	H 	0.22117	0.0309	0.96698	0.093
Mof_C 	C 	0.0751	0.9802	0.9017	0.373
Mof_Cu	Cu	0.44418	0.51549	0.36105	0.911
Mof_O 	O 	0.4678	0.5704	0.33004	-0.391
Mof_O 	O 	0.5653	0.5445	0.32993	-0.397
Mof_O 	O 	0.9297	0.9671	0.89206	-0.406
Mof_O 	O 	0.95695	0.0613	0.89259	-0.41
Mof_N 	N 	0.5681	0.7456	0.2284	-0.104
Mof_N 	N 	0.6234	0.7477	0.2141	-0.047
Mof_N 	N 	0.6186	0.789	0.194	-0.08
Mof_N 	N 	0.7243	0.1085	0.0325	-0.081
Mof_N 	N 	0.7663	0.1096	0.0133	-0.045
Mof_N 	N 	0.7577	0.0648	0.99593	-0.103
Mof_C 	C 	0.5227	0.5754	0.32022	0.35
Mof_C 	C 	0.5348	0.6215	0.29707	-0.191
Mof_C 	C 	0.4913	0.6535	0.2869	0.174
Mof_H 	H 	0.454	0.649	0.29511	-0.009
Mof_C 	C 	0.5002	0.6928	0.2645	-0.265
Mof_H 	H 	0.46885	0.71515	0.25748	0.128
Mof_C 	C 	0.5521	0.7003	0.2524	0.208
Mof_C 	C 	0.6007	0.668	0.2618	-0.224
Mof_H 	H 	0.63768	0.67281	0.25328	0.127
Mof_C 	C 	0.5901	0.6284	0.2847	0.138
Mof_H 	H 	0.62086	0.60578	0.29206	0.002
Mof_C 	C 	0.5335	0.7847	0.2137	-0.006
Mof_H 	H 	0.49353	0.78979	0.21696	0.036
Mof_C 	C 	0.5669	0.8155	0.1933	0.059
Mof_C 	C 	0.5477	0.8607	0.17346	-0.011
Mof_C 	C 	0.4922	0.8854	0.17375	-0.016
Mof_H 	H 	0.4644	0.87218	0.18759	0.038
Mof_C 	C 	0.4787	0.9273	0.15458	-0.093
Mof_H 	H 	0.44118	0.94313	0.1555	0.067
Mof_C 	C 	0.5185	0.9501	0.13228	0.061
Mof_C 	C 	0.5734	0.9256	0.1325	-0.095
Mof_H 	H 	0.60233	0.94052	0.11977	0.069
Mof_C 	C 	0.5863	0.8777	0.1519	-0.021
Mof_H 	H 	0.62166	0.85781	0.14982	0.051
Mof_C 	C 	0.5517	0.0171	0.08983	0.071
Mof_C 	C 	0.5766	0.0713	0.08913	-0.101
Mof_H 	H 	0.56272	0.09925	0.10271	0.071
Mof_C 	C 	0.6209	0.0876	0.06981	-0.018
Mof_H 	H 	0.63552	0.12565	0.07041	0.049
Mof_C 	C 	0.6432	0.0484	0.0499	-0.004
Mof_C 	C 	0.6191	0.9905	0.04813	-0.028
Mof_H 	H 	0.6339	0.96225	0.03499	0.041
Mof_C 	C 	0.5709	0.9792	0.06786	-0.097
Mof_H 	H 	0.55125	0.94369	0.06569	0.07
Mof_C 	C 	0.6945	0.0597	0.029	0.061
Mof_C 	C 	0.7169	0.0299	0.00668	-0.007
Mof_H 	H 	0.70638	0.99277	0.99991	0.034
Mof_C 	C 	0.7994	0.056	0.9731	0.16
Mof_C 	C 	0.838	0.0963	0.96135	-0.176
Mof_H 	H 	0.83747	0.13384	0.96956	0.114
Mof_C 	C 	0.8782	0.0852	0.93777	0.093
Mof_H 	H 	0.90243	0.11488	0.93059	0.022
Mof_C 	C 	0.881	0.0304	0.92569	-0.144
Mof_C 	C 	0.8424	0.987	0.93543	0.08
Mof_H 	H 	0.8425	0.95037	0.92615	0.021
Mof_C 	C 	0.8029	0.9989	0.95973	-0.162
Mof_H 	H 	0.77883	0.9691	0.96698	0.093
Mof_C 	C 	0.9249	0.0198	0.9017	0.375
Mof_Cu	Cu	0.01549	0.05582	0.86105	0.911
Mof_O 	O 	0.0704	0.0322	0.83004	-0.391
Mof_O 	O 	0.0445	0.9347	0.82993	-0.397
Mof_O 	O 	0.4671	0.5703	0.39206	-0.404
Mof_O 	O 	0.5613	0.54305	0.39259	-0.41
Mof_N 	N 	0.2456	0.9319	0.7284	-0.104
Mof_N 	N 	0.2477	0.8766	0.7141	-0.047
Mof_N 	N 	0.289	0.8814	0.694	-0.08
Mof_N 	N 	0.6085	0.7757	0.5325	-0.082
Mof_N 	N 	0.6096	0.7337	0.5133	-0.045
Mof_N 	N 	0.5648	0.7423	0.49593	-0.103
Mof_C 	C 	0.0754	0.9773	0.82022	0.35
Mof_C 	C 	0.1215	0.9652	0.79707	-0.193
Mof_C 	C 	0.1535	0.0087	0.7869	0.177
Mof_H 	H 	0.149	0.046	0.79511	-0.01
Mof_C 	C 	0.1928	0.9998	0.7645	-0.268
Mof_H 	H 	0.21515	0.03115	0.75748	0.13
Mof_C 	C 	0.2003	0.9479	0.7524	0.21
Mof_C 	C 	0.168	0.8993	0.7618	-0.225
Mof_H 	H 	0.17281	0.86232	0.75328	0.128
Mof_C 	C 	0.1284	0.9099	0.7847	0.14
Mof_H 	H 	0.10578	0.87914	0.79206	0.002
Mof_C 	C 	0.2847	0.9665	0.7137	-0.007
Mof_H 	H 	0.28979	0.00647	0.71696	0.037
Mof_C 	C 	0.3155	0.9331	0.6933	0.059
Mof_C 	C 	0.3607	0.9523	0.67346	-0.013
Mof_C 	C 	0.3854	0.0078	0.67375	-0.015
Mof_H 	H 	0.37218	0.0356	0.68759	0.038
Mof_C 	C 	0.4273	0.0213	0.65458	-0.092
Mof_H 	H 	0.44313	0.05882	0.6555	0.067
Mof_C 	C 	0.4501	0.9815	0.63228	0.061
Mof_C 	C 	0.4256	0.9266	0.6325	-0.095
Mof_H 	H 	0.44052	0.89767	0.61977	0.069
Mof_C 	C 	0.3777	0.9137	0.6519	-0.021
Mof_H 	H 	0.35781	0.87834	0.64982	0.051
Mof_C 	C 	0.5171	0.9483	0.58983	0.069
Mof_C 	C 	0.5713	0.9234	0.58913	-0.1
Mof_H 	H 	0.59925	0.93728	0.60271	0.07
Mof_C 	C 	0.5876	0.8791	0.56981	-0.017
Mof_H 	H 	0.62565	0.86448	0.57041	0.049
Mof_C 	C 	0.5484	0.8568	0.5499	-0.006
Mof_C 	C 	0.4905	0.8809	0.54813	-0.027
Mof_H 	H 	0.46225	0.8661	0.53499	0.041
Mof_C 	C 	0.4792	0.9291	0.56786	-0.095
Mof_H 	H 	0.44369	0.94875	0.56569	0.069
Mof_C 	C 	0.5597	0.8055	0.529	0.063
Mof_C 	C 	0.5299	0.7831	0.50668	-0.011
Mof_H 	H 	0.49277	0.79362	0.49991	0.037
Mof_C 	C 	0.556	0.7006	0.4731	0.158
Mof_C 	C 	0.5963	0.662	0.46135	-0.176
Mof_H 	H 	0.63384	0.66253	0.46956	0.114
Mof_C 	C 	0.5852	0.6218	0.43777	0.093
Mof_H 	H 	0.61488	0.59757	0.43059	0.022
Mof_C 	C 	0.5304	0.619	0.42569	-0.145
Mof_C 	C 	0.487	0.6576	0.43543	0.081
Mof_H 	H 	0.45037	0.6575	0.42615	0.02
Mof_C 	C 	0.4989	0.6971	0.45973	-0.161
Mof_H 	H 	0.4691	0.72117	0.46698	0.093
Mof_C 	C 	0.5198	0.5751	0.4017	0.373
Mof_Cu	Cu	0.98451	0.94418	0.86105	0.91
Mof_O 	O 	0.9296	0.9678	0.83004	-0.392
Mof_O 	O 	0.9555	0.0653	0.82993	-0.397
Mof_O 	O 	0.5329	0.4297	0.39206	-0.404
Mof_O 	O 	0.4387	0.45695	0.39259	-0.41
Mof_N 	N 	0.7544	0.0681	0.7284	-0.103
Mof_N 	N 	0.7523	0.1234	0.7141	-0.047
Mof_N 	N 	0.711	0.1186	0.694	-0.08
Mof_N 	N 	0.3915	0.2243	0.5325	-0.082
Mof_N 	N 	0.3904	0.2663	0.5133	-0.045
Mof_N 	N 	0.4352	0.2577	0.49593	-0.102
Mof_C 	C 	0.9246	0.0227	0.82022	0.348
Mof_C 	C 	0.8785	0.0348	0.79707	-0.179
Mof_C 	C 	0.8465	0.9913	0.7869	0.155
Mof_H 	H 	0.851	0.954	0.79511	-0.004
Mof_C 	C 	0.8072	0.0002	0.7645	-0.247
Mof_H 	H 	0.78485	0.96885	0.75748	0.121
Mof_C 	C 	0.7997	0.0521	0.7524	0.199
Mof_C 	C 	0.832	0.1007	0.7618	-0.214
Mof_H 	H 	0.82719	0.13768	0.75328	0.124
Mof_C 	C 	0.8716	0.0901	0.7847	0.128
Mof_H 	H 	0.89422	0.12086	0.79206	0.006
Mof_C 	C 	0.7153	0.0335	0.7137	-0.003
Mof_H 	H 	0.71021	0.99353	0.71696	0.034
Mof_C 	C 	0.6845	0.0669	0.6933	0.057
Mof_C 	C 	0.6393	0.0477	0.67346	-0.009
Mof_C 	C 	0.6146	0.9922	0.67375	-0.018
Mof_H 	H 	0.62782	0.9644	0.68759	0.038
Mof_C 	C 	0.5727	0.9787	0.65458	-0.094
Mof_H 	H 	0.55687	0.94118	0.6555	0.067
Mof_C 	C 	0.5499	0.0185	0.63228	0.063
Mof_C 	C 	0.5744	0.0734	0.6325	-0.094
Mof_H 	H 	0.55948	0.10233	0.61977	0.069
Mof_C 	C 	0.6223	0.0863	0.6519	-0.022
Mof_H 	H 	0.64219	0.12166	0.64982	0.051
Mof_C 	C 	0.4829	0.0517	0.58983	0.07
Mof_C 	C 	0.4287	0.0766	0.58913	-0.101
Mof_H 	H 	0.40075	0.06272	0.60271	0.071
Mof_C 	C 	0.4124	0.1209	0.56981	-0.016
Mof_H 	H 	0.37435	0.13552	0.57041	0.049
Mof_C 	C 	0.4516	0.1432	0.5499	-0.006
Mof_C 	C 	0.5095	0.1191	0.54813	-0.026
Mof_H 	H 	0.53775	0.1339	0.53499	0.041
Mof_C 	C 	0.5208	0.0709	0.56786	-0.096
Mof_H 	H 	0.55631	0.05125	0.56569	0.07
Mof_C 	C 	0.4403	0.1945	0.529	0.063
Mof_C 	C 	0.4701	0.2169	0.50668	-0.011
Mof_H 	H 	0.50723	0.20638	0.49991	0.037
Mof_C 	C 	0.444	0.2994	0.4731	0.159
Mof_C 	C 	0.4037	0.338	0.46135	-0.176
Mof_H 	H 	0.36616	0.33747	0.46956	0.114
Mof_C 	C 	0.4148	0.3782	0.43777	0.093
Mof_H 	H 	0.38512	0.40243	0.43059	0.022
Mof_C 	C 	0.4696	0.381	0.42569	-0.145
Mof_C 	C 	0.513	0.3424	0.43543	0.081
Mof_H 	H 	0.54963	0.3425	0.42615	0.02
Mof_C 	C 	0.5011	0.3029	0.45973	-0.161
Mof_H 	H 	0.5309	0.27883	0.46698	0.093
Mof_C 	C 	0.4802	0.4249	0.4017	0.373
Mof_C 	C 	0.5	0	0.1101	-0.089
Mof_C 	C 	0.5	8.8107e-33	0.6101	-0.089
Mof_Cu	Cu	0.94418	0.98451	0.13895	0.91
Mof_O 	O 	0.9678	0.9296	0.16996	-0.392
Mof_O 	O 	0.0653	0.9555	0.17007	-0.397
Mof_O 	O 	0.4297	0.5329	0.60794	-0.404
Mof_O 	O 	0.45695	0.4387	0.60741	-0.41
Mof_N 	N 	0.0681	0.7544	0.2716	-0.103
Mof_N 	N 	0.1234	0.7523	0.2859	-0.047
Mof_N 	N 	0.1186	0.711	0.306	-0.08
Mof_N 	N 	0.2243	0.3915	0.4675	-0.082
Mof_N 	N 	0.2663	0.3904	0.4867	-0.045
Mof_N 	N 	0.2577	0.4352	0.50407	-0.102
Mof_C 	C 	0.0227	0.9246	0.17978	0.348
Mof_C 	C 	0.0348	0.8785	0.20293	-0.179
Mof_C 	C 	0.9913	0.8465	0.2131	0.155
Mof_H 	H 	0.954	0.851	0.20489	-0.004
Mof_C 	C 	0.0002	0.8072	0.2355	-0.247
Mof_H 	H 	0.96885	0.78485	0.24252	0.121
Mof_C 	C 	0.0521	0.7997	0.2476	0.199
Mof_C 	C 	0.1007	0.832	0.2382	-0.214
Mof_H 	H 	0.13768	0.82719	0.24672	0.124
Mof_C 	C 	0.0901	0.8716	0.2153	0.128
Mof_H 	H 	0.12086	0.89422	0.20794	0.006
Mof_C 	C 	0.0335	0.7153	0.2863	-0.003
Mof_H 	H 	0.99353	0.71021	0.28304	0.034
Mof_C 	C 	0.0669	0.6845	0.3067	0.057
Mof_C 	C 	0.0477	0.6393	0.32654	-0.009
Mof_C 	C 	0.9922	0.6146	0.32625	-0.018
Mof_H 	H 	0.9644	0.62782	0.31241	0.038
Mof_C 	C 	0.9787	0.5727	0.34542	-0.094
Mof_H 	H 	0.94118	0.55687	0.3445	0.067
Mof_C 	C 	0.0185	0.5499	0.36772	0.063
Mof_C 	C 	0.0734	0.5744	0.3675	-0.094
Mof_H 	H 	0.10233	0.55948	0.38023	0.069
Mof_C 	C 	0.0863	0.6223	0.3481	-0.022
Mof_H 	H 	0.12166	0.64219	0.35018	0.051
Mof_C 	C 	0.0517	0.4829	0.41017	0.07
Mof_C 	C 	0.0766	0.4287	0.41087	-0.101
Mof_H 	H 	0.06272	0.40075	0.39729	0.071
Mof_C 	C 	0.1209	0.4124	0.43019	-0.016
Mof_H 	H 	0.13552	0.37435	0.42959	0.049
Mof_C 	C 	0.1432	0.4516	0.4501	-0.006
Mof_C 	C 	0.1191	0.5095	0.45187	-0.026
Mof_H 	H 	0.1339	0.53775	0.46501	0.041
Mof_C 	C 	0.0709	0.5208	0.43214	-0.096
Mof_H 	H 	0.05125	0.55631	0.43431	0.07
Mof_C 	C 	0.1945	0.4403	0.471	0.063
Mof_C 	C 	0.2169	0.4701	0.49332	-0.011
Mof_H 	H 	0.20638	0.50723	0.50009	0.037
Mof_C 	C 	0.2994	0.444	0.5269	0.159
Mof_C 	C 	0.338	0.4037	0.53865	-0.176
Mof_H 	H 	0.33747	0.36616	0.53044	0.114
Mof_C 	C 	0.3782	0.4148	0.56223	0.093
Mof_H 	H 	0.40243	0.38512	0.56941	0.022
Mof_C 	C 	0.381	0.4696	0.57431	-0.145
Mof_C 	C 	0.3424	0.513	0.56457	0.081
Mof_H 	H 	0.3425	0.54963	0.57385	0.02
Mof_C 	C 	0.3029	0.5011	0.54027	-0.161
Mof_H 	H 	0.27883	0.5309	0.53302	0.093
Mof_C 	C 	0.4249	0.4802	0.5983	0.373
Mof_Cu	Cu	0.05582	0.01549	0.13895	0.911
Mof_O 	O 	0.0322	0.0704	0.16996	-0.391
Mof_O 	O 	0.9347	0.0445	0.17007	-0.397
Mof_O 	O 	0.5703	0.4671	0.60794	-0.404
Mof_O 	O 	0.54305	0.5613	0.60741	-0.41
Mof_N 	N 	0.9319	0.2456	0.2716	-0.104
Mof_N 	N 	0.8766	0.2477	0.2859	-0.047
Mof_N 	N 	0.8814	0.289	0.306	-0.08
Mof_N 	N 	0.7757	0.6085	0.4675	-0.082
Mof_N 	N 	0.7337	0.6096	0.4867	-0.045
Mof_N 	N 	0.7423	0.5648	0.50407	-0.103
Mof_C 	C 	0.9773	0.0754	0.17978	0.35
Mof_C 	C 	0.9652	0.1215	0.20293	-0.193
Mof_C 	C 	0.0087	0.1535	0.2131	0.177
Mof_H 	H 	0.046	0.149	0.20489	-0.01
Mof_C 	C 	0.9998	0.1928	0.2355	-0.268
Mof_H 	H 	0.03115	0.21515	0.24252	0.13
Mof_C 	C 	0.9479	0.2003	0.2476	0.21
Mof_C 	C 	0.8993	0.168	0.2382	-0.225
Mof_H 	H 	0.86232	0.17281	0.24672	0.128
Mof_C 	C 	0.9099	0.1284	0.2153	0.14
Mof_H 	H 	0.87914	0.10578	0.20794	0.002
Mof_C 	C 	0.9665	0.2847	0.2863	-0.007
Mof_H 	H 	0.00647	0.28979	0.28304	0.037
Mof_C 	C 	0.9331	0.3155	0.3067	0.059
Mof_C 	C 	0.9523	0.3607	0.32654	-0.013
Mof_C 	C 	0.0078	0.3854	0.32625	-0.015
Mof_H 	H 	0.0356	0.37218	0.31241	0.038
Mof_C 	C 	0.0213	0.4273	0.34542	-0.092
Mof_H 	H 	0.05882	0.44313	0.3445	0.067
Mof_C 	C 	0.9815	0.4501	0.36772	0.061
Mof_C 	C 	0.9266	0.4256	0.3675	-0.095
Mof_H 	H 	0.89767	0.44052	0.38023	0.069
Mof_C 	C 	0.9137	0.3777	0.3481	-0.021
Mof_H 	H 	0.87834	0.35781	0.35018	0.051
Mof_C 	C 	0.9483	0.5171	0.41017	0.069
Mof_C 	C 	0.9234	0.5713	0.41087	-0.1
Mof_H 	H 	0.93728	0.59925	0.39729	0.07
Mof_C 	C 	0.8791	0.5876	0.43019	-0.017
Mof_H 	H 	0.86448	0.62565	0.42959	0.049
Mof_C 	C 	0.8568	0.5484	0.4501	-0.006
Mof_C 	C 	0.8809	0.4905	0.45187	-0.027
Mof_H 	H 	0.8661	0.46225	0.46501	0.041
Mof_C 	C 	0.9291	0.4792	0.43214	-0.095
Mof_H 	H 	0.94875	0.44369	0.43431	0.069
Mof_C 	C 	0.8055	0.5597	0.471	0.063
Mof_C 	C 	0.7831	0.5299	0.49332	-0.011
Mof_H 	H 	0.79362	0.49277	0.50009	0.037
Mof_C 	C 	0.7006	0.556	0.5269	0.158
Mof_C 	C 	0.662	0.5963	0.53865	-0.176
Mof_H 	H 	0.66253	0.63384	0.53044	0.114
Mof_C 	C 	0.6218	0.5852	0.56223	0.093
Mof_H 	H 	0.59757	0.61488	0.56941	0.022
Mof_C 	C 	0.619	0.5304	0.57431	-0.145
Mof_C 	C 	0.6576	0.487	0.56457	0.081
Mof_H 	H 	0.6575	0.45037	0.57385	0.02
Mof_C 	C 	0.6971	0.4989	0.54027	-0.161
Mof_H 	H 	0.72117	0.4691	0.53302	0.093
Mof_C 	C 	0.5751	0.5198	0.5983	0.373
Mof_Cu	Cu	0.48451	0.55582	0.63895	0.911
Mof_O 	O 	0.4296	0.5322	0.66996	-0.391
Mof_O 	O 	0.4555	0.4347	0.67007	-0.397
Mof_O 	O 	0.0329	0.0703	0.10794	-0.404
Mof_O 	O 	0.9387	0.04305	0.10741	-0.409
Mof_N 	N 	0.2544	0.4319	0.7716	-0.104
Mof_N 	N 	0.2523	0.3766	0.7859	-0.047
Mof_N 	N 	0.211	0.3814	0.806	-0.08
Mof_N 	N 	0.8915	0.2757	0.9675	-0.082
Mof_N 	N 	0.8904	0.2337	0.9867	-0.045
Mof_N 	N 	0.9352	0.2423	0.00407	-0.102
Mof_C 	C 	0.4246	0.4773	0.67978	0.35
Mof_C 	C 	0.3785	0.4652	0.70293	-0.191
Mof_C 	C 	0.3465	0.5087	0.7131	0.174
Mof_H 	H 	0.351	0.546	0.70489	-0.009
Mof_C 	C 	0.3072	0.4998	0.7355	-0.265
Mof_H 	H 	0.28485	0.53115	0.74252	0.128
Mof_C 	C 	0.2997	0.4479	0.7476	0.208
Mof_C 	C 	0.332	0.3993	0.7382	-0.224
Mof_H 	H 	0.32719	0.36232	0.74672	0.128
Mof_C 	C 	0.3716	0.4099	0.7153	0.138
Mof_H 	H 	0.39422	0.37914	0.70794	0.002
Mof_C 	C 	0.2153	0.4665	0.7863	-0.006
Mof_H 	H 	0.21021	0.50647	0.78304	0.036
Mof_C 	C 	0.1845	0.4331	0.8067	0.059
Mof_C 	C 	0.1393	0.4523	0.82654	-0.012
Mof_C 	C 	0.1146	0.5078	0.82625	-0.016
Mof_H 	H 	0.12782	0.5356	0.81241	0.038
Mof_C 	C 	0.0727	0.5213	0.84542	-0.094
Mof_H 	H 	0.05687	0.55882	0.8445	0.068
Mof_C 	C 	0.0499	0.4815	0.86772	0.062
Mof_C 	C 	0.0744	0.4266	0.8675	-0.095
Mof_H 	H 	0.05948	0.39767	0.88023	0.069
Mof_C 	C 	0.1223	0.4137	0.8481	-0.021
Mof_H 	H 	0.14219	0.37834	0.85018	0.051
Mof_C 	C 	0.9829	0.4483	0.91017	0.068
Mof_C 	C 	0.9287	0.4234	0.91087	-0.1
Mof_H 	H 	0.90075	0.43728	0.89729	0.071
Mof_C 	C 	0.9124	0.3791	0.93019	-0.017
Mof_H 	H 	0.87435	0.36448	0.92959	0.049
Mof_C 	C 	0.9516	0.3568	0.9501	-0.007
Mof_C 	C 	0.0095	0.3809	0.95187	-0.026
Mof_H 	H 	0.03775	0.3661	0.96501	0.041
Mof_C 	C 	0.0208	0.4291	0.93214	-0.094
Mof_H 	H 	0.05631	0.44875	0.93431	0.069
Mof_C 	C 	0.9403	0.3055	0.971	0.064
Mof_C 	C 	0.9701	0.2831	0.99332	-0.012
Mof_H 	H 	0.00723	0.29362	9e-05	0.038
Mof_C 	C 	0.944	0.2006	0.0269	0.158
Mof_C 	C 	0.9037	0.162	0.03865	-0.175
Mof_H 	H 	0.86616	0.16253	0.03044	0.114
Mof_C 	C 	0.9148	0.1218	0.06223	0.093
Mof_H 	H 	0.88512	0.09757	0.06941	0.022
Mof_C 	C 	0.9696	0.119	0.07431	-0.145
Mof_C 	C 	0.013	0.1576	0.06457	0.081
Mof_H 	H 	0.04963	0.1575	0.07385	0.021
Mof_C 	C 	0.0011	0.1971	0.04027	-0.16
Mof_H 	H 	0.0309	0.22117	0.03302	0.093
Mof_C 	C 	0.9802	0.0751	0.0983	0.373
Mof_Cu	Cu	0.51549	0.44418	0.63895	0.911
Mof_O 	O 	0.5704	0.4678	0.66996	-0.391
Mof_O 	O 	0.5445	0.5653	0.67007	-0.397
Mof_O 	O 	0.9671	0.9297	0.10794	-0.406
Mof_O 	O 	0.0613	0.95695	0.10741	-0.41
Mof_N 	N 	0.7456	0.5681	0.7716	-0.104
Mof_N 	N 	0.7477	0.6234	0.7859	-0.047
Mof_N 	N 	0.789	0.6186	0.806	-0.08
Mof_N 	N 	0.1085	0.7243	0.9675	-0.081
Mof_N 	N 	0.1096	0.7663	0.9867	-0.045
Mof_N 	N 	0.0648	0.7577	0.00407	-0.103
Mof_C 	C 	0.5754	0.5227	0.67978	0.35
Mof_C 	C 	0.6215	0.5348	0.70293	-0.191
Mof_C 	C 	0.6535	0.4913	0.7131	0.174
Mof_H 	H 	0.649	0.454	0.70489	-0.009
Mof_C 	C 	0.6928	0.5002	0.7355	-0.265
Mof_H 	H 	0.71515	0.46885	0.74252	0.128
Mof_C 	C 	0.7003	0.5521	0.7476	0.208
Mof_C 	C 	0.668	0.6007	0.7382	-0.224
Mof_H 	H 	0.67281	0.63768	0.74672	0.127
Mof_C 	C 	0.6284	0.5901	0.7153	0.138
Mof_H 	H 	0.60578	0.62086	0.70794	0.002
Mof_C 	C 	0.7847	0.5335	0.7863	-0.006
Mof_H 	H 	0.78979	0.49353	0.78304	0.036
Mof_C 	C 	0.8155	0.5669	0.8067	0.059
Mof_C 	C 	0.8607	0.5477	0.82654	-0.011
Mof_C 	C 	0.8854	0.4922	0.82625	-0.016
Mof_H 	H 	0.87218	0.4644	0.81241	0.038
Mof_C 	C 	0.9273	0.4787	0.84542	-0.093
Mof_H 	H 	0.94313	0.44118	0.8445	0.067
Mof_C 	C 	0.9501	0.5185	0.86772	0.061
Mof_C 	C 	0.9256	0.5734	0.8675	-0.095
Mof_H 	H 	0.94052	0.60233	0.88023	0.069
Mof_C 	C 	0.8777	0.5863	0.8481	-0.021
Mof_H 	H 	0.85781	0.62166	0.85018	0.051
Mof_C 	C 	0.0171	0.5517	0.91017	0.071
Mof_C 	C 	0.0713	0.5766	0.91087	-0.101
Mof_H 	H 	0.09925	0.56272	0.89729	0.071
Mof_C 	C 	0.0876	0.6209	0.93019	-0.018
Mof_H 	H 	0.12565	0.63552	0.92959	0.049
Mof_C 	C 	0.0484	0.6432	0.9501	-0.004
Mof_C 	C 	0.9905	0.6191	0.95187	-0.028
Mof_H 	H 	0.96225	0.6339	0.96501	0.041
Mof_C 	C 	0.9792	0.5709	0.93214	-0.097
Mof_H 	H 	0.94369	0.55125	0.93431	0.07
Mof_C 	C 	0.0597	0.6945	0.971	0.061
Mof_C 	C 	0.0299	0.7169	0.99332	-0.007
Mof_H 	H 	0.99277	0.70638	9e-05	0.034
Mof_C 	C 	0.056	0.7994	0.0269	0.16
Mof_C 	C 	0.0963	0.838	0.03865	-0.176
Mof_H 	H 	0.13384	0.83747	0.03044	0.114
Mof_C 	C 	0.0852	0.8782	0.06223	0.093
Mof_H 	H 	0.11488	0.90243	0.06941	0.022
Mof_C 	C 	0.0304	0.881	0.07431	-0.144
Mof_C 	C 	0.987	0.8424	0.06457	0.08
Mof_H 	H 	0.95037	0.8425	0.07385	0.021
Mof_C 	C 	0.9989	0.8029	0.04027	-0.162
Mof_H 	H 	0.9691	0.77883	0.03302	0.093
Mof_C 	C 	0.0198	0.9249	0.0983	0.375
Mof_C 	C 	-1.47962e-32	0.5	0.3899	-0.089
Mof_C 	C 	2.40697e-32	0.5	0.8899	-0.089
_end
