data_functionalizedCrystal
_audit_creation_method	'EQeq! by Chris Wilmer'
_symmetry_space_group_name_H-M	'P1'
_symmetry_Int_Tables_number	1
_symmetry_cell_setting	triclinic
loop_
_symmetry_equiv_pos_as_xyz
  x,y,z
_cell_length_a	13.306
_cell_length_b	13.306
_cell_length_c	14.528
_cell_angle_alpha	90
_cell_angle_beta	90
_cell_angle_gamma	120
loop_
_atom_site_label
_atom_site_type_symbol
_atom_site_fract_x
_atom_site_fract_y
_atom_site_fract_z
_atom_site_charge
Mof_Eu	Eu	0.33333	0.66666	0.83186	2.503
Mof_Eu	Eu	0.66667	0.33334	0.66814	2.502
Mof_Eu	Eu	0.66667	0.33334	0.16814	2.495
Mof_Eu	Eu	0.33333	0.66666	0.33186	2.495
Mof_Cu	Cu	0.5	0	-0	0.872
Mof_Cu	Cu	0.5	0.5	-0	0.903
Mof_Cu	Cu	-0	0.5	-0	0.874
Mof_Cu	Cu	0.5	0	0.5	0.899
Mof_Cu	Cu	3.52167e-17	0.5	0.5	0.901
Mof_Cu	Cu	0.5	0.5	0.5	0.93
Mof_H 	H 	0.6754	0.0247	0.078	0.033
Mof_H 	H 	0.6821	0.8615	0.0204	0.044
Mof_H 	H 	0.7073	0.9609	0.9501	0.114
Mof_H 	H 	0.6028	0.9166	0.1927	0.169
Mof_H 	H 	0.5409	0.8075	0.1285	0.151
Mof_H 	H 	0.3493	0.3246	0.078	0.089
Mof_H 	H 	0.1794	0.3179	0.0204	0
Mof_H 	H 	0.2536	0.2927	0.9501	0.06
Mof_H 	H 	0.3138	0.3972	0.1927	0.136
Mof_H 	H 	0.2666	0.4591	0.1285	0.141
Mof_H 	H 	0.9753	0.6507	0.078	0.154
Mof_H 	H 	0.1385	0.8206	0.0204	0.022
Mof_H 	H 	0.0391	0.7464	0.9501	0.053
Mof_H 	H 	0.0834	0.6862	0.1927	0.125
Mof_H 	H 	0.1925	0.7334	0.1285	0.146
Mof_H 	H 	0.6507	0.9753	0.422	0.158
Mof_H 	H 	0.8206	0.1385	0.4796	0.123
Mof_H 	H 	0.7464	0.0391	0.5499	0.1
Mof_H 	H 	0.6862	0.0834	0.3073	0.128
Mof_H 	H 	0.7334	0.1925	0.3715	0.159
Mof_H 	H 	0.0247	0.6754	0.422	0.038
Mof_H 	H 	0.8615	0.6821	0.4796	0.143
Mof_H 	H 	0.9609	0.7073	0.5499	0.16
Mof_H 	H 	0.9166	0.6028	0.3073	0.171
Mof_H 	H 	0.8075	0.5409	0.3715	0.164
Mof_H 	H 	0.3246	0.3493	0.422	0.09
Mof_H 	H 	0.3179	0.1794	0.4796	0.106
Mof_H 	H 	0.2927	0.2536	0.5499	0.11
Mof_H 	H 	0.3972	0.3138	0.3073	0.14
Mof_H 	H 	0.4591	0.2666	0.3715	0.154
Mof_H 	H 	0.3246	0.9753	0.922	0.154
Mof_H 	H 	0.3179	0.1385	0.9796	0.21
Mof_H 	H 	0.2927	0.0391	0.0499	0.136
Mof_H 	H 	0.3972	0.0834	0.8073	0.125
Mof_H 	H 	0.4591	0.1925	0.8715	0.166
Mof_H 	H 	0.6507	0.6754	0.922	0.1
Mof_H 	H 	0.8206	0.6821	0.9796	0.243
Mof_H 	H 	0.7464	0.7073	0.0499	0.185
Mof_H 	H 	0.6862	0.6028	0.8073	0.157
Mof_H 	H 	0.7334	0.5409	0.8715	0.177
Mof_H 	H 	0.0247	0.3493	0.922	0.039
Mof_H 	H 	0.8615	0.1794	0.9796	0.224
Mof_H 	H 	0.9609	0.2536	0.0499	0.193
Mof_H 	H 	0.9166	0.3138	0.8073	0.166
Mof_H 	H 	0.8075	0.2666	0.8715	0.17
Mof_H 	H 	0.3493	0.0247	0.578	0.032
Mof_H 	H 	0.1794	0.8615	0.5204	0.126
Mof_H 	H 	0.2536	0.9609	0.4501	0.148
Mof_H 	H 	0.3138	0.9166	0.6927	0.166
Mof_H 	H 	0.2666	0.8075	0.6285	0.159
Mof_H 	H 	0.9753	0.3246	0.578	0.151
Mof_H 	H 	0.1385	0.3179	0.5204	0.105
Mof_H 	H 	0.0391	0.2927	0.4501	0.087
Mof_H 	H 	0.0834	0.3972	0.6927	0.123
Mof_H 	H 	0.1925	0.4591	0.6285	0.154
Mof_H 	H 	0.6754	0.6507	0.578	0.098
Mof_H 	H 	0.6821	0.8206	0.5204	0.144
Mof_H 	H 	0.7073	0.7464	0.4501	0.137
Mof_H 	H 	0.6028	0.6862	0.6927	0.155
Mof_H 	H 	0.5409	0.7334	0.6285	0.165
Mof_C 	C 	0.5468	0.8162	0.9301	0.376
Mof_C 	C 	0.6482	0.902	0.9893	-0.126
Mof_C 	C 	0.5529	0.8847	0.1393	-0.395
Mof_C 	C 	0.4382	0.8758	0.1594	0.522
Mof_C 	C 	0.2694	0.4532	0.9301	0.355
Mof_C 	C 	0.2538	0.3518	0.9893	-0.079
Mof_C 	C 	0.3318	0.4471	0.1393	-0.382
Mof_C 	C 	0.4376	0.5618	0.1594	0.512
Mof_C 	C 	0.1838	0.7306	0.9301	0.353
Mof_C 	C 	0.098	0.7462	0.9893	-0.085
Mof_C 	C 	0.1153	0.6682	0.1393	-0.379
Mof_C 	C 	0.1242	0.5624	0.1594	0.507
Mof_C 	C 	0.7306	0.1838	0.5699	0.402
Mof_C 	C 	0.7462	0.098	0.5107	-0.289
Mof_C 	C 	0.6682	0.1153	0.3607	-0.388
Mof_C 	C 	0.5624	0.1242	0.3406	0.515
Mof_C 	C 	0.8162	0.5468	0.5699	0.424
Mof_C 	C 	0.902	0.6482	0.5107	-0.324
Mof_C 	C 	0.8847	0.5529	0.3607	-0.406
Mof_C 	C 	0.8758	0.4382	0.3406	0.529
Mof_C 	C 	0.4532	0.2694	0.5699	0.406
Mof_C 	C 	0.3518	0.2538	0.5107	-0.291
Mof_C 	C 	0.4471	0.3318	0.3607	-0.393
Mof_C 	C 	0.5618	0.4376	0.3406	0.52
Mof_C 	C 	0.4532	0.1838	0.0699	0.448
Mof_C 	C 	0.3518	0.098	0.0107	-0.486
Mof_C 	C 	0.4471	0.1153	0.8607	-0.392
Mof_C 	C 	0.5618	0.1242	0.8406	0.52
Mof_C 	C 	0.7306	0.5468	0.0699	0.465
Mof_C 	C 	0.7462	0.6482	0.0107	-0.512
Mof_C 	C 	0.6682	0.5529	0.8607	-0.409
Mof_C 	C 	0.5624	0.4382	0.8406	0.53
Mof_C 	C 	0.8162	0.2694	0.0699	0.468
Mof_C 	C 	0.902	0.2538	0.0107	-0.508
Mof_C 	C 	0.8847	0.3318	0.8607	-0.407
Mof_C 	C 	0.8758	0.4376	0.8406	0.533
Mof_C 	C 	0.2694	0.8162	0.4301	0.42
Mof_C 	C 	0.2538	0.902	0.4893	-0.312
Mof_C 	C 	0.3318	0.8847	0.6393	-0.402
Mof_C 	C 	0.4376	0.8758	0.6594	0.528
Mof_C 	C 	0.1838	0.4532	0.4301	0.397
Mof_C 	C 	0.098	0.3518	0.4893	-0.279
Mof_C 	C 	0.1153	0.4471	0.6393	-0.386
Mof_C 	C 	0.1242	0.5618	0.6594	0.514
Mof_C 	C 	0.5468	0.7306	0.4301	0.416
Mof_C 	C 	0.6482	0.7462	0.4893	-0.315
Mof_C 	C 	0.5529	0.6682	0.6393	-0.403
Mof_C 	C 	0.4382	0.5624	0.6594	0.525
Mof_N 	N 	0.6117	0.9583	0.0584	-0.136
Mof_N 	N 	0.3466	0.3883	0.0584	-0.205
Mof_N 	N 	0.0417	0.6534	0.0584	-0.253
Mof_N 	N 	0.6534	0.0417	0.4416	-0.206
Mof_N 	N 	0.9583	0.6117	0.4416	-0.091
Mof_N 	N 	0.3883	0.3466	0.4416	-0.154
Mof_N 	N 	0.3883	0.0417	0.9416	-0.15
Mof_N 	N 	0.6534	0.6117	0.9416	-0.095
Mof_N 	N 	0.9583	0.3466	0.9416	-0.042
Mof_N 	N 	0.3466	0.9583	0.5584	-0.091
Mof_N 	N 	0.0417	0.3883	0.5584	-0.205
Mof_N 	N 	0.6117	0.6534	0.5584	-0.149
Mof_O 	O 	0.4519	0.8127	0.9421	-0.526
Mof_O 	O 	0.5609	0.7554	0.8731	-0.409
Mof_O 	O 	0.4022	0.9261	0.107	-0.422
Mof_O 	O 	0.3823	0.8195	0.2278	-0.574
Mof_O 	O 	0.3608	0.5481	0.9421	-0.532
Mof_O 	O 	0.1945	0.4391	0.8731	-0.418
Mof_O 	O 	0.5239	0.5978	0.107	-0.452
Mof_O 	O 	0.4372	0.6177	0.2278	-0.58
Mof_O 	O 	0.1873	0.6392	0.9421	-0.535
Mof_O 	O 	0.2446	0.8055	0.8731	-0.405
Mof_O 	O 	0.0739	0.4761	0.107	-0.477
Mof_O 	O 	0.1805	0.5628	0.2278	-0.589
Mof_O 	O 	0.6392	0.1873	0.5579	-0.57
Mof_O 	O 	0.8055	0.2446	0.6269	-0.428
Mof_O 	O 	0.4761	0.0739	0.393	-0.469
Mof_O 	O 	0.5628	0.1805	0.2722	-0.589
Mof_O 	O 	0.8127	0.4519	0.5579	-0.559
Mof_O 	O 	0.7554	0.5609	0.6269	-0.431
Mof_O 	O 	0.9261	0.4022	0.393	-0.415
Mof_O 	O 	0.8195	0.3823	0.2722	-0.574
Mof_O 	O 	0.5481	0.3608	0.5579	-0.567
Mof_O 	O 	0.4391	0.1945	0.6269	-0.441
Mof_O 	O 	0.5978	0.5239	0.393	-0.444
Mof_O 	O 	0.6177	0.4372	0.2722	-0.579
Mof_O 	O 	0.5481	0.1873	0.0579	-0.597
Mof_O 	O 	0.4391	0.2446	0.1269	-0.459
Mof_O 	O 	0.5978	0.0739	0.893	-0.448
Mof_O 	O 	0.6177	0.1805	0.7722	-0.588
Mof_O 	O 	0.6392	0.4519	0.0579	-0.595
Mof_O 	O 	0.8055	0.5609	0.1269	-0.446
Mof_O 	O 	0.4761	0.4022	0.893	-0.429
Mof_O 	O 	0.5628	0.3823	0.7722	-0.584
Mof_O 	O 	0.8127	0.3608	0.0579	-0.586
Mof_O 	O 	0.7554	0.1945	0.1269	-0.46
Mof_O 	O 	0.9261	0.5239	0.893	-0.396
Mof_O 	O 	0.8195	0.4372	0.7722	-0.574
Mof_O 	O 	0.3608	0.8127	0.4421	-0.557
Mof_O 	O 	0.1945	0.7554	0.3731	-0.438
Mof_O 	O 	0.5239	0.9261	0.607	-0.411
Mof_O 	O 	0.4372	0.8195	0.7278	-0.574
Mof_O 	O 	0.1873	0.5481	0.4421	-0.568
Mof_O 	O 	0.2446	0.4391	0.3731	-0.437
Mof_O 	O 	0.0739	0.5978	0.607	-0.465
Mof_O 	O 	0.1805	0.6177	0.7278	-0.588
Mof_O 	O 	0.4519	0.6392	0.4421	-0.567
Mof_O 	O 	0.5609	0.8055	0.3731	-0.425
Mof_O 	O 	0.4022	0.4761	0.607	-0.448
Mof_O 	O 	0.3823	0.5628	0.7278	-0.585
_end
