data_functionalizedCrystal
_audit_creation_method	'EQeq! by Chris Wilmer'
_symmetry_space_group_name_H-M	'P1'
_symmetry_Int_Tables_number	1
_symmetry_cell_setting	triclinic
loop_
_symmetry_equiv_pos_as_xyz
  x,y,z
_cell_length_a	6.2966
_cell_length_b	16.3614
_cell_length_c	16.3614
_cell_angle_alpha	61.6201
_cell_angle_beta	82.6297
_cell_angle_gamma	97.3703
loop_
_atom_site_label
_atom_site_type_symbol
_atom_site_fract_x
_atom_site_fract_y
_atom_site_fract_z
_atom_site_charge
Mof_Mg	Mg	0.45523	0.74686	0.58052	1.461
Mof_Mg	Mg	0.03575	0.58052	0.67262	1.46
Mof_Mg	Mg	0.70837	0.67262	0.74686	1.461
Mof_Mg	Mg	0.54477	0.25314	0.41948	1.461
Mof_Mg	Mg	0.96425	0.41948	0.32738	1.46
Mof_Mg	Mg	0.29163	0.32738	0.25314	1.461
Mof_P 	P 	0.00873	0.80387	0.53559	0.461
Mof_P 	P 	0.54432	0.53559	0.66054	0.461
Mof_P 	P 	0.20486	0.66054	0.80387	0.461
Mof_P 	P 	0.99127	0.19613	0.46441	0.461
Mof_P 	P 	0.45568	0.46441	0.33946	0.461
Mof_P 	P 	0.79514	0.33946	0.19613	0.461
Mof_H 	H 	0.1238	0.9471	0.532	0.117
Mof_H 	H 	0.1155	0.8617	0.6332	0.083
Mof_H 	H 	0.4127	0.9436	0.4004	0.035
Mof_H 	H 	0.6453	0.9599	0.4215	0.029
Mof_H 	H 	0.6664	0.9281	0.5865	0.025
Mof_H 	H 	0.4455	0.8937	0.6613	0.035
Mof_H 	H 	0.6558	0.532	0.5209	0.117
Mof_H 	H 	0.7487	0.6332	0.5051	0.083
Mof_H 	H 	0.8131	0.4004	0.656	0.035
Mof_H 	H 	0.0668	0.4215	0.6186	0.028
Mof_H 	H 	0.2529	0.5865	0.4854	0.025
Mof_H 	H 	0.1068	0.6613	0.445	0.036
Mof_H 	H 	0.1767	0.5209	0.9471	0.117
Mof_H 	H 	0.2538	0.5051	0.8617	0.083
Mof_H 	H 	0.4691	0.656	0.9436	0.035
Mof_H 	H 	0.6854	0.6186	0.9599	0.029
Mof_H 	H 	0.7383	0.4854	0.9281	0.025
Mof_H 	H 	0.5518	0.445	0.8937	0.036
Mof_H 	H 	0.8762	0.0529	0.468	0.117
Mof_H 	H 	0.8845	0.1383	0.3668	0.083
Mof_H 	H 	0.5873	0.0564	0.5996	0.035
Mof_H 	H 	0.3547	0.0401	0.5785	0.029
Mof_H 	H 	0.3336	0.0719	0.4135	0.025
Mof_H 	H 	0.5545	0.1063	0.3387	0.035
Mof_H 	H 	0.3442	0.468	0.4791	0.117
Mof_H 	H 	0.2513	0.3668	0.4949	0.083
Mof_H 	H 	0.1869	0.5996	0.344	0.035
Mof_H 	H 	0.9332	0.5785	0.3814	0.028
Mof_H 	H 	0.7471	0.4135	0.5146	0.025
Mof_H 	H 	0.8932	0.3387	0.555	0.036
Mof_H 	H 	0.8233	0.4791	0.0529	0.117
Mof_H 	H 	0.7462	0.4949	0.1383	0.083
Mof_H 	H 	0.5309	0.344	0.0564	0.035
Mof_H 	H 	0.3146	0.3814	0.0401	0.029
Mof_H 	H 	0.2617	0.5146	0.0719	0.025
Mof_H 	H 	0.4482	0.555	0.1063	0.036
Mof_C 	C 	0.16001	0.88527	0.56554	-0.287
Mof_C 	C 	0.49397	0.96342	0.43681	-0.072
Mof_C 	C 	0.51423	0.9332	0.59421	-0.065
Mof_C 	C 	0.72555	0.56554	0.54919	-0.287
Mof_C 	C 	0.93078	0.43681	0.59977	-0.071
Mof_C 	C 	0.10844	0.59421	0.47259	-0.066
Mof_C 	C 	0.27474	0.54919	0.88527	-0.287
Mof_C 	C 	0.53055	0.59977	0.96342	-0.072
Mof_C 	C 	0.58103	0.47259	0.9332	-0.065
Mof_C 	C 	0.83999	0.11473	0.43446	-0.287
Mof_C 	C 	0.50603	0.03658	0.56319	-0.072
Mof_C 	C 	0.48577	0.0668	0.40579	-0.065
Mof_C 	C 	0.27445	0.43446	0.45081	-0.287
Mof_C 	C 	0.06922	0.56319	0.40023	-0.071
Mof_C 	C 	0.89156	0.40579	0.52741	-0.066
Mof_C 	C 	0.72526	0.45081	0.11473	-0.287
Mof_C 	C 	0.46945	0.40023	0.03658	-0.072
Mof_C 	C 	0.41897	0.52741	0.0668	-0.065
Mof_N 	N 	0.40313	0.89588	0.53979	-0.174
Mof_N 	N 	0.94292	0.53979	0.56433	-0.174
Mof_N 	N 	0.50725	0.56433	0.89588	-0.174
Mof_N 	N 	0.59687	0.10412	0.46021	-0.174
Mof_N 	N 	0.05708	0.46021	0.43567	-0.174
Mof_N 	N 	0.49275	0.43567	0.10412	-0.174
Mof_O 	O 	0.0054	0.85259	0.43119	-0.298
Mof_O 	O 	0.77675	0.76815	0.5986	-0.675
Mof_O 	O 	0.13274	0.72296	0.56694	-0.675
Mof_O 	O 	0.43659	0.43119	0.71622	-0.298
Mof_O 	O 	0.37535	0.5986	0.63325	-0.675
Mof_O 	O 	0.69968	0.56694	0.7101	-0.675
Mof_O 	O 	0.15281	0.71622	0.85259	-0.298
Mof_O 	O 	0.0086	0.63325	0.76815	-0.675
Mof_O 	O 	0.40978	0.7101	0.72296	-0.675
Mof_O 	O 	0.9946	0.14741	0.56881	-0.298
Mof_O 	O 	0.22325	0.23185	0.4014	-0.675
Mof_O 	O 	0.86726	0.27704	0.43306	-0.675
Mof_O 	O 	0.56341	0.56881	0.28378	-0.298
Mof_O 	O 	0.62465	0.4014	0.36675	-0.675
Mof_O 	O 	0.30032	0.43306	0.2899	-0.675
Mof_O 	O 	0.84719	0.28378	0.14741	-0.298
Mof_O 	O 	0.9914	0.36675	0.23185	-0.675
Mof_O 	O 	0.59022	0.2899	0.27704	-0.675
_end
