data_functionalizedCrystal
_audit_creation_method	'EQeq! by Chris Wilmer'
_symmetry_space_group_name_H-M	'P1'
_symmetry_Int_Tables_number	1
_symmetry_cell_setting	triclinic
loop_
_symmetry_equiv_pos_as_xyz
  x,y,z
_cell_length_a	26.1535
_cell_length_b	13.6168
_cell_length_c	17.1807
_cell_angle_alpha	90
_cell_angle_beta	126.056
_cell_angle_gamma	90
loop_
_atom_site_label
_atom_site_type_symbol
_atom_site_fract_x
_atom_site_fract_y
_atom_site_fract_z
_atom_site_charge
Mof_Co	Co	0.12292	0.22335	0.18843	1.138
Mof_O 	O 	0.1189	0.3533	0.1112	-0.408
Mof_O 	O 	0.0976	0.3691	0.2146	-0.406
Mof_N 	N 	0.7195	0.2553	0.8035	-0.243
Mof_N 	N 	0.0261	0.1964	0.0753	-0.235
Mof_N 	N 	0.9251	0.1545	0.0005	-0.317
Mof_N 	N 	0.8503	0.8781	0.8709	-0.25
Mof_N 	N 	0.8116	0.191	0.9199	-0.32
Mof_N 	N 	0.8852	0.1393	0.2167	-0.247
Mof_N 	N 	0.8749	0.1054	0.0817	-0.312
Mof_N 	N 	0.8464	0.016	0.9356	-0.316
Mof_C 	C 	0.0822	0.5114	0.1194	-0.312
Mof_H 	H 	0.0682	0.5416	0.1563	0.126
Mof_H 	H 	0.1199	0.5479	0.1347	0.121
Mof_C 	C 	0.0306	0.5211	0.0142	-0.012
Mof_H 	H 	0.0244	0.5916	0.9965	0.035
Mof_H 	H 	0.0438	0.4877	0.9774	0.042
Mof_C 	C 	0.8163	0.2925	0.9304	0.04
Mof_H 	H 	0.8524	0.3287	0.9787	0.004
Mof_C 	C 	0.9815	0.1664	0.0849	0.133
Mof_H 	H 	0.989	0.1548	0.1454	-0.033
Mof_C 	C 	0.9343	0.182	0.9322	0.043
Mof_H 	H 	0.903	0.1835	0.8645	-0.002
Mof_C 	C 	0.7519	0.1756	0.841	0.152
Mof_H 	H 	0.7353	0.1122	0.8155	-0.036
Mof_C 	C 	0.8765	0.9646	0.907	0.135
Mof_H 	H 	0.9126	0.988	0.9121	-0.042
Mof_C 	C 	0.9953	0.2063	0.9785	-0.019
Mof_H 	H 	0.0143	0.2274	0.9483	0.027
Mof_C 	C 	0.7605	0.3292	0.8599	-0.02
Mof_H 	H 	0.7504	0.3972	0.85	0.021
Mof_C 	C 	0.8667	0.1716	0.1318	0.138
Mof_H 	H 	0.8494	0.2351	0.1081	-0.037
Mof_C 	C 	0.7974	0.9562	0.9169	0.04
Mof_H 	H 	0.7674	0.971	0.9296	0.004
Mof_C 	C 	0.9067	0.0462	0.2224	-0.017
Mof_H 	H 	0.9237	0.0032	0.2759	0.017
Mof_C 	C 	0.9002	0.0248	0.1404	0.044
Mof_H 	H 	0.9112	0.9645	0.1259	0.001
Mof_C 	C 	0.8006	0.8726	0.8772	-0.014
Mof_H 	H 	0.7726	0.8184	0.8567	0.023
Mof_C 	C 	0.1007	0.4043	0.1509	0.378
Mof_B 	B 	0.8642	0.1173	0.9837	0.949
Mof_Co	Co	0.62292	0.72335	0.18843	1.137
Mof_O 	O 	0.6189	0.8533	0.1112	-0.409
Mof_O 	O 	0.5976	0.8691	0.2146	-0.407
Mof_N 	N 	0.2195	0.7553	0.8035	-0.244
Mof_N 	N 	0.5261	0.6964	0.0753	-0.236
Mof_N 	N 	0.4251	0.6545	0.0005	-0.319
Mof_N 	N 	0.3503	0.3781	0.8709	-0.251
Mof_N 	N 	0.3116	0.691	0.9199	-0.322
Mof_N 	N 	0.3852	0.6393	0.2167	-0.249
Mof_N 	N 	0.3749	0.6054	0.0817	-0.314
Mof_N 	N 	0.3464	0.516	0.9356	-0.317
Mof_C 	C 	0.5822	0.0114	0.1194	-0.314
Mof_H 	H 	0.5682	0.0416	0.1563	0.126
Mof_H 	H 	0.6199	0.0479	0.1347	0.12
Mof_C 	C 	0.5306	0.0211	0.0142	-0.009
Mof_H 	H 	0.5244	0.0916	0.9965	0.032
Mof_H 	H 	0.5438	0.9877	0.9774	0.041
Mof_C 	C 	0.3163	0.7925	0.9304	0.04
Mof_H 	H 	0.3524	0.8287	0.9787	0.005
Mof_C 	C 	0.4815	0.6664	0.0849	0.132
Mof_H 	H 	0.489	0.6548	0.1454	-0.033
Mof_C 	C 	0.4343	0.682	0.9322	0.044
Mof_H 	H 	0.403	0.6835	0.8645	-0.002
Mof_C 	C 	0.2519	0.6756	0.841	0.152
Mof_H 	H 	0.2353	0.6122	0.8155	-0.036
Mof_C 	C 	0.3765	0.4646	0.907	0.135
Mof_H 	H 	0.4126	0.488	0.9121	-0.042
Mof_C 	C 	0.4953	0.7063	0.9785	-0.017
Mof_H 	H 	0.5143	0.7274	0.9483	0.027
Mof_C 	C 	0.2605	0.8292	0.8599	-0.02
Mof_H 	H 	0.2504	0.8972	0.85	0.022
Mof_C 	C 	0.3667	0.6716	0.1318	0.138
Mof_H 	H 	0.3494	0.7351	0.1081	-0.037
Mof_C 	C 	0.2974	0.4562	0.9169	0.04
Mof_H 	H 	0.2674	0.471	0.9296	0.004
Mof_C 	C 	0.4067	0.5462	0.2224	-0.016
Mof_H 	H 	0.4237	0.5032	0.2759	0.017
Mof_C 	C 	0.4002	0.5248	0.1404	0.042
Mof_H 	H 	0.4112	0.4645	0.1259	0.002
Mof_C 	C 	0.3006	0.3726	0.8772	-0.013
Mof_H 	H 	0.2726	0.3184	0.8567	0.023
Mof_C 	C 	0.6007	0.9043	0.1509	0.378
Mof_B 	B 	0.3642	0.6173	0.9837	0.952
Mof_Co	Co	0.87708	0.22335	0.31157	1.137
Mof_O 	O 	0.8811	0.3533	0.3888	-0.409
Mof_O 	O 	0.9024	0.3691	0.2854	-0.407
Mof_N 	N 	0.2805	0.2553	0.6965	-0.244
Mof_N 	N 	0.9739	0.1964	0.4247	-0.236
Mof_N 	N 	0.0749	0.1545	0.4995	-0.319
Mof_N 	N 	0.1497	0.8781	0.6291	-0.251
Mof_N 	N 	0.1884	0.191	0.5801	-0.322
Mof_N 	N 	0.1148	0.1393	0.2833	-0.249
Mof_N 	N 	0.1251	0.1054	0.4183	-0.314
Mof_N 	N 	0.1536	0.016	0.5644	-0.317
Mof_C 	C 	0.9178	0.5114	0.3806	-0.314
Mof_H 	H 	0.9318	0.5416	0.3437	0.126
Mof_H 	H 	0.8801	0.5479	0.3653	0.12
Mof_C 	C 	0.9694	0.5211	0.4858	-0.011
Mof_H 	H 	0.9756	0.5916	0.5035	0.033
Mof_H 	H 	0.9562	0.4877	0.5226	0.041
Mof_C 	C 	0.1837	0.2925	0.5696	0.04
Mof_H 	H 	0.1476	0.3287	0.5213	0.005
Mof_C 	C 	0.0185	0.1664	0.4151	0.132
Mof_H 	H 	0.011	0.1548	0.3546	-0.033
Mof_C 	C 	0.0657	0.182	0.5678	0.044
Mof_H 	H 	0.097	0.1835	0.6355	-0.002
Mof_C 	C 	0.2481	0.1756	0.659	0.152
Mof_H 	H 	0.2647	0.1122	0.6845	-0.036
Mof_C 	C 	0.1235	0.9646	0.593	0.135
Mof_H 	H 	0.0874	0.988	0.5879	-0.042
Mof_C 	C 	0.0047	0.2063	0.5215	-0.019
Mof_H 	H 	0.9857	0.2274	0.5517	0.027
Mof_C 	C 	0.2395	0.3292	0.6401	-0.021
Mof_H 	H 	0.2496	0.3972	0.65	0.021
Mof_C 	C 	0.1333	0.1716	0.3682	0.138
Mof_H 	H 	0.1506	0.2351	0.3919	-0.037
Mof_C 	C 	0.2026	0.9562	0.5831	0.04
Mof_H 	H 	0.2326	0.971	0.5704	0.004
Mof_C 	C 	0.0933	0.0462	0.2776	-0.016
Mof_H 	H 	0.0763	0.0032	0.2241	0.017
Mof_C 	C 	0.0998	0.0248	0.3596	0.042
Mof_H 	H 	0.0888	0.9645	0.3741	0.002
Mof_C 	C 	0.1994	0.8726	0.6228	-0.013
Mof_H 	H 	0.2274	0.8184	0.6433	0.023
Mof_C 	C 	0.8993	0.4043	0.3491	0.379
Mof_B 	B 	0.1358	0.1173	0.5163	0.951
Mof_Co	Co	0.37708	0.72335	0.31157	1.137
Mof_O 	O 	0.3811	0.8533	0.3888	-0.409
Mof_O 	O 	0.4024	0.8691	0.2854	-0.407
Mof_N 	N 	0.7805	0.7553	0.6965	-0.244
Mof_N 	N 	0.4739	0.6964	0.4247	-0.236
Mof_N 	N 	0.5749	0.6545	0.4995	-0.319
Mof_N 	N 	0.6497	0.3781	0.6291	-0.251
Mof_N 	N 	0.6884	0.691	0.5801	-0.322
Mof_N 	N 	0.6148	0.6393	0.2833	-0.249
Mof_N 	N 	0.6251	0.6054	0.4183	-0.314
Mof_N 	N 	0.6536	0.516	0.5644	-0.317
Mof_C 	C 	0.4178	0.0114	0.3806	-0.314
Mof_H 	H 	0.4318	0.0416	0.3437	0.126
Mof_H 	H 	0.3801	0.0479	0.3653	0.12
Mof_C 	C 	0.4694	0.0211	0.4858	-0.011
Mof_H 	H 	0.4756	0.0916	0.5035	0.033
Mof_H 	H 	0.4562	0.9877	0.5226	0.041
Mof_C 	C 	0.6837	0.7925	0.5696	0.04
Mof_H 	H 	0.6476	0.8287	0.5213	0.005
Mof_C 	C 	0.5185	0.6664	0.4151	0.132
Mof_H 	H 	0.511	0.6548	0.3546	-0.033
Mof_C 	C 	0.5657	0.682	0.5678	0.044
Mof_H 	H 	0.597	0.6835	0.6355	-0.002
Mof_C 	C 	0.7481	0.6756	0.659	0.152
Mof_H 	H 	0.7647	0.6122	0.6845	-0.036
Mof_C 	C 	0.6235	0.4646	0.593	0.135
Mof_H 	H 	0.5874	0.488	0.5879	-0.042
Mof_C 	C 	0.5047	0.7063	0.5215	-0.018
Mof_H 	H 	0.4857	0.7274	0.5517	0.027
Mof_C 	C 	0.7395	0.8292	0.6401	-0.021
Mof_H 	H 	0.7496	0.8972	0.65	0.021
Mof_C 	C 	0.6333	0.6716	0.3682	0.138
Mof_H 	H 	0.6506	0.7351	0.3919	-0.037
Mof_C 	C 	0.7026	0.4562	0.5831	0.039
Mof_H 	H 	0.7326	0.471	0.5704	0.004
Mof_C 	C 	0.5933	0.5462	0.2776	-0.016
Mof_H 	H 	0.5763	0.5032	0.2241	0.017
Mof_C 	C 	0.5998	0.5248	0.3596	0.042
Mof_H 	H 	0.5888	0.4645	0.3741	0.002
Mof_C 	C 	0.6994	0.3726	0.6228	-0.013
Mof_H 	H 	0.7274	0.3184	0.6433	0.023
Mof_C 	C 	0.3993	0.9043	0.3491	0.378
Mof_B 	B 	0.6358	0.6173	0.5163	0.951
Mof_Co	Co	0.87708	0.77665	0.81157	1.137
Mof_O 	O 	0.8811	0.6467	0.8888	-0.409
Mof_O 	O 	0.9024	0.6309	0.7854	-0.407
Mof_N 	N 	0.2805	0.7447	0.1965	-0.244
Mof_N 	N 	0.9739	0.8036	0.9247	-0.236
Mof_N 	N 	0.0749	0.8455	0.9995	-0.318
Mof_N 	N 	0.1497	0.1219	0.1291	-0.251
Mof_N 	N 	0.1884	0.809	0.0801	-0.321
Mof_N 	N 	0.1148	0.8607	0.7833	-0.248
Mof_N 	N 	0.1251	0.8946	0.9183	-0.313
Mof_N 	N 	0.1536	0.984	0.0644	-0.317
Mof_C 	C 	0.9178	0.4886	0.8806	-0.313
Mof_H 	H 	0.9318	0.4584	0.8437	0.125
Mof_H 	H 	0.8801	0.4521	0.8653	0.12
Mof_C 	C 	0.9694	0.4789	0.9858	-0.013
Mof_H 	H 	0.9756	0.4084	0.0035	0.034
Mof_H 	H 	0.9562	0.5123	0.0226	0.042
Mof_C 	C 	0.1837	0.7075	0.0696	0.04
Mof_H 	H 	0.1476	0.6713	0.0213	0.004
Mof_C 	C 	0.0185	0.8336	0.9151	0.133
Mof_H 	H 	0.011	0.8452	0.8546	-0.033
Mof_C 	C 	0.0657	0.818	0.0678	0.043
Mof_H 	H 	0.097	0.8165	0.1355	-0.002
Mof_C 	C 	0.2481	0.8244	0.159	0.152
Mof_H 	H 	0.2647	0.8878	0.1845	-0.036
Mof_C 	C 	0.1235	0.0354	0.093	0.135
Mof_H 	H 	0.0874	0.012	0.0879	-0.042
Mof_C 	C 	0.0047	0.7937	0.0215	-0.019
Mof_H 	H 	0.9857	0.7726	0.0517	0.027
Mof_C 	C 	0.2395	0.6708	0.1401	-0.02
Mof_H 	H 	0.2496	0.6028	0.15	0.021
Mof_C 	C 	0.1333	0.8284	0.8682	0.138
Mof_H 	H 	0.1506	0.7649	0.8919	-0.037
Mof_C 	C 	0.2026	0.0438	0.0831	0.04
Mof_H 	H 	0.2326	0.029	0.0704	0.004
Mof_C 	C 	0.0933	0.9538	0.7776	-0.017
Mof_H 	H 	0.0763	0.9968	0.7241	0.017
Mof_C 	C 	0.0998	0.9752	0.8596	0.044
Mof_H 	H 	0.0888	0.0355	0.8741	0.001
Mof_C 	C 	0.1994	0.1274	0.1228	-0.014
Mof_H 	H 	0.2274	0.1816	0.1433	0.023
Mof_C 	C 	0.8993	0.5957	0.8491	0.378
Mof_B 	B 	0.1358	0.8827	0.0163	0.949
Mof_Co	Co	0.37708	0.27665	0.81157	1.137
Mof_O 	O 	0.3811	0.1467	0.8888	-0.409
Mof_O 	O 	0.4024	0.1309	0.7854	-0.407
Mof_N 	N 	0.7805	0.2447	0.1965	-0.244
Mof_N 	N 	0.4739	0.3036	0.9247	-0.236
Mof_N 	N 	0.5749	0.3455	0.9995	-0.319
Mof_N 	N 	0.6497	0.6219	0.1291	-0.251
Mof_N 	N 	0.6884	0.309	0.0801	-0.322
Mof_N 	N 	0.6148	0.3607	0.7833	-0.249
Mof_N 	N 	0.6251	0.3946	0.9183	-0.314
Mof_N 	N 	0.6536	0.484	0.0644	-0.317
Mof_C 	C 	0.4178	0.9886	0.8806	-0.314
Mof_H 	H 	0.4318	0.9584	0.8437	0.126
Mof_H 	H 	0.3801	0.9521	0.8653	0.12
Mof_C 	C 	0.4694	0.9789	0.9858	-0.009
Mof_H 	H 	0.4756	0.9084	0.0035	0.032
Mof_H 	H 	0.4562	0.0123	0.0226	0.041
Mof_C 	C 	0.6837	0.2075	0.0696	0.04
Mof_H 	H 	0.6476	0.1713	0.0213	0.005
Mof_C 	C 	0.5185	0.3336	0.9151	0.132
Mof_H 	H 	0.511	0.3452	0.8546	-0.033
Mof_C 	C 	0.5657	0.318	0.0678	0.044
Mof_H 	H 	0.597	0.3165	0.1355	-0.002
Mof_C 	C 	0.7481	0.3244	0.159	0.152
Mof_H 	H 	0.7647	0.3878	0.1845	-0.036
Mof_C 	C 	0.6235	0.5354	0.093	0.135
Mof_H 	H 	0.5874	0.512	0.0879	-0.042
Mof_C 	C 	0.5047	0.2937	0.0215	-0.017
Mof_H 	H 	0.4857	0.2726	0.0517	0.027
Mof_C 	C 	0.7395	0.1708	0.1401	-0.02
Mof_H 	H 	0.7496	0.1028	0.15	0.022
Mof_C 	C 	0.6333	0.3284	0.8682	0.138
Mof_H 	H 	0.6506	0.2649	0.8919	-0.037
Mof_C 	C 	0.7026	0.5438	0.0831	0.04
Mof_H 	H 	0.7326	0.529	0.0704	0.004
Mof_C 	C 	0.5933	0.4538	0.7776	-0.016
Mof_H 	H 	0.5763	0.4968	0.7241	0.017
Mof_C 	C 	0.5998	0.4752	0.8596	0.042
Mof_H 	H 	0.5888	0.5355	0.8741	0.002
Mof_C 	C 	0.6994	0.6274	0.1228	-0.013
Mof_H 	H 	0.7274	0.6816	0.1433	0.023
Mof_C 	C 	0.3993	0.0957	0.8491	0.378
Mof_B 	B 	0.6358	0.3827	0.0163	0.952
Mof_Co	Co	0.12292	0.77665	0.68843	1.137
Mof_O 	O 	0.1189	0.6467	0.6112	-0.409
Mof_O 	O 	0.0976	0.6309	0.7146	-0.407
Mof_N 	N 	0.7195	0.7447	0.3035	-0.244
Mof_N 	N 	0.0261	0.8036	0.5753	-0.236
Mof_N 	N 	0.9251	0.8455	0.5005	-0.319
Mof_N 	N 	0.8503	0.1219	0.3709	-0.251
Mof_N 	N 	0.8116	0.809	0.4199	-0.322
Mof_N 	N 	0.8852	0.8607	0.7167	-0.249
Mof_N 	N 	0.8749	0.8946	0.5817	-0.314
Mof_N 	N 	0.8464	0.984	0.4356	-0.317
Mof_C 	C 	0.0822	0.4886	0.6194	-0.314
Mof_H 	H 	0.0682	0.4584	0.6563	0.126
Mof_H 	H 	0.1199	0.4521	0.6347	0.12
Mof_C 	C 	0.0306	0.4789	0.5142	-0.011
Mof_H 	H 	0.0244	0.4084	0.4965	0.033
Mof_H 	H 	0.0438	0.5123	0.4774	0.041
Mof_C 	C 	0.8163	0.7075	0.4304	0.04
Mof_H 	H 	0.8524	0.6713	0.4787	0.005
Mof_C 	C 	0.9815	0.8336	0.5849	0.132
Mof_H 	H 	0.989	0.8452	0.6454	-0.033
Mof_C 	C 	0.9343	0.818	0.4322	0.044
Mof_H 	H 	0.903	0.8165	0.3645	-0.002
Mof_C 	C 	0.7519	0.8244	0.341	0.152
Mof_H 	H 	0.7353	0.8878	0.3155	-0.036
Mof_C 	C 	0.8765	0.0354	0.407	0.135
Mof_H 	H 	0.9126	0.012	0.4121	-0.042
Mof_C 	C 	0.9953	0.7937	0.4785	-0.019
Mof_H 	H 	0.0143	0.7726	0.4483	0.027
Mof_C 	C 	0.7605	0.6708	0.3599	-0.021
Mof_H 	H 	0.7504	0.6028	0.35	0.021
Mof_C 	C 	0.8667	0.8284	0.6318	0.138
Mof_H 	H 	0.8494	0.7649	0.6081	-0.037
Mof_C 	C 	0.7974	0.0438	0.4169	0.04
Mof_H 	H 	0.7674	0.029	0.4296	0.004
Mof_C 	C 	0.9067	0.9538	0.7224	-0.016
Mof_H 	H 	0.9237	0.9968	0.7759	0.017
Mof_C 	C 	0.9002	0.9752	0.6404	0.042
Mof_H 	H 	0.9112	0.0355	0.6259	0.002
Mof_C 	C 	0.8006	0.1274	0.3772	-0.013
Mof_H 	H 	0.7726	0.1816	0.3567	0.023
Mof_C 	C 	0.1007	0.5957	0.6509	0.379
Mof_B 	B 	0.8642	0.8827	0.4837	0.951
Mof_Co	Co	0.62292	0.27665	0.68843	1.137
Mof_O 	O 	0.6189	0.1467	0.6112	-0.409
Mof_O 	O 	0.5976	0.1309	0.7146	-0.407
Mof_N 	N 	0.2195	0.2447	0.3035	-0.244
Mof_N 	N 	0.5261	0.3036	0.5753	-0.236
Mof_N 	N 	0.4251	0.3455	0.5005	-0.319
Mof_N 	N 	0.3503	0.6219	0.3709	-0.251
Mof_N 	N 	0.3116	0.309	0.4199	-0.322
Mof_N 	N 	0.3852	0.3607	0.7167	-0.249
Mof_N 	N 	0.3749	0.3946	0.5817	-0.314
Mof_N 	N 	0.3464	0.484	0.4356	-0.317
Mof_C 	C 	0.5822	0.9886	0.6194	-0.314
Mof_H 	H 	0.5682	0.9584	0.6563	0.126
Mof_H 	H 	0.6199	0.9521	0.6347	0.12
Mof_C 	C 	0.5306	0.9789	0.5142	-0.011
Mof_H 	H 	0.5244	0.9084	0.4965	0.033
Mof_H 	H 	0.5438	0.0123	0.4774	0.041
Mof_C 	C 	0.3163	0.2075	0.4304	0.04
Mof_H 	H 	0.3524	0.1713	0.4787	0.005
Mof_C 	C 	0.4815	0.3336	0.5849	0.132
Mof_H 	H 	0.489	0.3452	0.6454	-0.033
Mof_C 	C 	0.4343	0.318	0.4322	0.044
Mof_H 	H 	0.403	0.3165	0.3645	-0.002
Mof_C 	C 	0.2519	0.3244	0.341	0.152
Mof_H 	H 	0.2353	0.3878	0.3155	-0.036
Mof_C 	C 	0.3765	0.5354	0.407	0.135
Mof_H 	H 	0.4126	0.512	0.4121	-0.042
Mof_C 	C 	0.4953	0.2937	0.4785	-0.018
Mof_H 	H 	0.5143	0.2726	0.4483	0.027
Mof_C 	C 	0.2605	0.1708	0.3599	-0.021
Mof_H 	H 	0.2504	0.1028	0.35	0.021
Mof_C 	C 	0.3667	0.3284	0.6318	0.138
Mof_H 	H 	0.3494	0.2649	0.6081	-0.037
Mof_C 	C 	0.2974	0.5438	0.4169	0.039
Mof_H 	H 	0.2674	0.529	0.4296	0.004
Mof_C 	C 	0.4067	0.4538	0.7224	-0.016
Mof_H 	H 	0.4237	0.4968	0.7759	0.017
Mof_C 	C 	0.4002	0.4752	0.6404	0.042
Mof_H 	H 	0.4112	0.5355	0.6259	0.002
Mof_C 	C 	0.3006	0.6274	0.3772	-0.013
Mof_H 	H 	0.2726	0.6816	0.3567	0.023
Mof_C 	C 	0.6007	0.0957	0.6509	0.378
Mof_B 	B 	0.3642	0.3827	0.4837	0.951
_end
