data_functionalizedCrystal
_audit_creation_method	'EQeq! by Chris Wilmer'
_symmetry_space_group_name_H-M	'P1'
_symmetry_Int_Tables_number	1
_symmetry_cell_setting	triclinic
loop_
_symmetry_equiv_pos_as_xyz
  x,y,z
_cell_length_a	16.5813
_cell_length_b	16.5813
_cell_length_c	40.8681
_cell_angle_alpha	78.2947
_cell_angle_beta	78.2947
_cell_angle_gamma	89.998
loop_
_atom_site_label
_atom_site_type_symbol
_atom_site_fract_x
_atom_site_fract_y
_atom_site_fract_z
_atom_site_charge
Mof_Zr	Zr	0.09388	0.34388	0.31224	3.22
Mof_Zr	Zr	0.01848	0.48152	0.25	3.174
Mof_Zr	Zr	0.23152	0.26848	0.25	3.174
Mof_Zr	Zr	0.76848	0.51848	0.75	3.174
Mof_Zr	Zr	0.98152	0.51848	0.75	3.173
Mof_Zr	Zr	0.98152	0.73152	0.75	3.174
Mof_Zr	Zr	0.15612	0.40612	0.18776	3.221
Mof_Zr	Zr	0.90612	0.65612	0.68776	3.221
Mof_Zr	Zr	0.84388	0.59388	0.81224	3.221
Mof_Zr	Zr	0.76848	0.73152	0.75	3.175
Mof_Zr	Zr	0.01848	0.26848	0.25	3.174
Mof_Zr	Zr	0.23152	0.48152	0.25	3.175
Mof_H 	H 	0.6807	0.4207	0.6652	-0.048
Mof_H 	H 	0.8883	0.2888	0.9382	0.106
Mof_H 	H 	0.2075	0.3686	0.3948	-0.01
Mof_H 	H 	0.4141	0.6541	0.1652	-0.048
Mof_H 	H 	0.0133	0.0154	0.9692	0.109
Mof_H 	H 	0.7925	0.7634	0.6052	-0.011
Mof_H 	H 	0.5175	0.0154	0.9692	0.11
Mof_H 	H 	0.3514	0.8663	0.121	0.048
Mof_H 	H 	0.7925	0.6314	0.6052	-0.011
Mof_H 	H 	0.5154	0.0175	0.4692	0.111
Mof_H 	H 	0.273	0.1735	0.4382	0.106
Mof_H 	H 	0.2149	0.0301	0.4692	0.061
Mof_H 	H 	0.4825	0.9846	0.0308	0.11
Mof_H 	H 	0.8159	0.5007	0.4692	0.061
Mof_H 	H 	0.3193	0.0859	0.3348	-0.048
Mof_H 	H 	0.2634	0.6023	0.1052	-0.01
Mof_H 	H 	0.4873	0.4724	0.379	0.049
Mof_H 	H 	0.3193	0.5793	0.3348	-0.049
Mof_H 	H 	0.5714	0.5	0.5	0.111
Mof_H 	H 	0.0793	0.8193	0.8348	-0.046
Mof_H 	H 	0.7851	0.9699	0.5308	0.062
Mof_H 	H 	0.273	0.3883	0.4382	0.106
Mof_H 	H 	0.3663	0.5276	0.621	0.05
Mof_H 	H 	0.4286	0.5	0.5	0.111
Mof_H 	H 	0.6174	0.3991	0.6212	0.096
Mof_H 	H 	0.2614	0.9797	0.6212	0.096
Mof_H 	H 	0.7888	0.1735	0.4382	0.106
Mof_H 	H 	0.1023	0.6314	0.6052	-0.01
Mof_H 	H 	0.9993	0.2851	0.0308	0.059
Mof_H 	H 	0.9993	0.6841	0.0308	0.067
Mof_H 	H 	0.6486	0.9873	0.879	0.042
Mof_H 	H 	0.8686	0.3977	0.8948	-0.011
Mof_H 	H 	0.5154	0.5133	0.4692	0.111
Mof_H 	H 	0.0276	0.8663	0.121	0.052
Mof_H 	H 	0.8883	0.773	0.9382	0.101
Mof_H 	H 	0.9207	0.1807	0.1652	-0.048
Mof_H 	H 	0.6735	0.773	0.9382	0.105
Mof_H 	H 	0.6337	0.1486	0.379	0.05
Mof_H 	H 	0.3663	0.8514	0.621	0.049
Mof_H 	H 	0.2075	0.2366	0.3948	-0.01
Mof_H 	H 	0.4141	0.1807	0.1652	-0.049
Mof_H 	H 	0.5859	0.8193	0.8348	-0.048
Mof_H 	H 	0.8459	0.0859	0.3348	-0.048
Mof_H 	H 	0.3826	0.6009	0.3788	0.096
Mof_H 	H 	0.3826	0.0203	0.3788	0.096
Mof_H 	H 	0.1541	0.4207	0.6652	-0.048
Mof_H 	H 	0.9867	0.9846	0.0308	0.109
Mof_H 	H 	0.1117	0.227	0.0618	0.104
Mof_H 	H 	0.0007	0.7149	0.9692	0.054
Mof_H 	H 	0.7386	0.6009	0.3788	0.096
Mof_H 	H 	0.9207	0.6541	0.1652	-0.05
Mof_H 	H 	0.1023	0.7634	0.6052	-0.01
Mof_H 	H 	0.4846	0.9825	0.5308	0.11
Mof_H 	H 	0.8159	0.0301	0.4692	0.06
Mof_H 	H 	0.1009	0.2386	0.8788	0.096
Mof_H 	H 	0.8977	0.3686	0.3948	-0.01
Mof_H 	H 	0.8991	0.1174	0.1212	0.095
Mof_H 	H 	0.5127	0.5276	0.621	0.05
Mof_H 	H 	0.5203	0.2386	0.8788	0.096
Mof_H 	H 	0.1841	0.9699	0.5308	0.062
Mof_H 	H 	0.5	0.0714	-0	0.112
Mof_H 	H 	0.4797	0.1174	0.1212	0.097
Mof_H 	H 	0.2614	0.3991	0.6212	0.096
Mof_H 	H 	0.1541	0.9141	0.6652	-0.048
Mof_H 	H 	0.5301	0.3159	0.9692	0.062
Mof_H 	H 	0.5301	0.7149	0.9692	0.061
Mof_H 	H 	0.6807	0.9141	0.6652	-0.049
Mof_H 	H 	0.9724	0.9873	0.879	0.034
Mof_H 	H 	-3.22324e-22	0.0714	-0	0.111
Mof_H 	H 	0.2634	0.2925	0.1052	-0.011
Mof_H 	H 	0.3514	0.0127	0.121	0.053
Mof_H 	H 	0.1117	0.7112	0.0618	0.108
Mof_H 	H 	0.1009	0.8826	0.8788	0.091
Mof_H 	H 	0.5714	0	0.5	0.111
Mof_H 	H 	0.3265	0.227	0.0618	0.106
Mof_H 	H 	0.0276	0.0127	0.121	0.046
Mof_H 	H 	0.5	0.9286	-0	0.11
Mof_H 	H 	0.3265	0.7112	0.0618	0.106
Mof_H 	H 	0.8977	0.2366	0.3948	-0.01
Mof_H 	H 	0.6337	0.4724	0.379	0.05
Mof_H 	H 	0.4846	0.4867	0.5308	0.111
Mof_H 	H 	0.1314	0.6023	0.1052	-0.012
Mof_H 	H 	0.7366	0.3977	0.8948	-0.011
Mof_H 	H 	0.727	0.6117	0.5618	0.106
Mof_H 	H 	0.9724	0.1337	0.879	0.055
Mof_H 	H 	0.2112	0.6117	0.5618	0.106
Mof_H 	H 	0.5203	0.8826	0.8788	0.095
Mof_H 	H 	0.1314	0.2925	0.1052	-0.01
Mof_H 	H 	0.4699	0.6841	0.0308	0.06
Mof_H 	H 	0.7851	0.4993	0.5308	0.061
Mof_H 	H 	0.6174	0.9797	0.6212	0.096
Mof_H 	H 	0.7888	0.3883	0.4382	0.106
Mof_H 	H 	0.8459	0.5793	0.3348	-0.048
Mof_H 	H 	0.5127	0.8514	0.621	0.05
Mof_H 	H 	0.5859	0.3459	0.8348	-0.048
Mof_H 	H 	-0	0.9286	-0	0.111
Mof_H 	H 	0.0007	0.3159	0.9692	0.062
Mof_H 	H 	0.0793	0.3459	0.8348	-0.049
Mof_H 	H 	0.8991	0.7614	0.1212	0.098
Mof_H 	H 	0.8686	0.7075	0.8948	-0.008
Mof_H 	H 	0.2149	0.5007	0.4692	0.061
Mof_H 	H 	0.6735	0.2888	0.9382	0.106
Mof_H 	H 	0.1841	0.4993	0.5308	0.061
Mof_H 	H 	0.727	0.8265	0.5618	0.106
Mof_H 	H 	0.6486	0.1337	0.879	0.053
Mof_H 	H 	0.4699	0.2851	0.0308	0.061
Mof_H 	H 	0.7366	0.7075	0.8948	-0.01
Mof_H 	H 	0.7386	0.0203	0.3788	0.096
Mof_H 	H 	0.4797	0.7614	0.1212	0.096
Mof_H 	H 	0.4286	0	0.5	0.111
Mof_H 	H 	0.4873	0.1486	0.379	0.05
Mof_H 	H 	0.2112	0.8265	0.5618	0.106
Mof_C 	C 	0.92719	0.78269	0.91722	-0.216
Mof_C 	C 	0.02715	0.24265	0.1391	-0.283
Mof_C 	C 	0.40768	0.74838	0.08744	0.172
Mof_C 	C 	0.95674	0.72144	0.83252	0.6
Mof_C 	C 	0.75162	0.09232	0.41256	0.172
Mof_C 	C 	0.24346	0.41556	0.39148	0.164
Mof_C 	C 	0.00232	0.17822	0.93856	-0.156
Mof_C 	C 	0.7458	0.9834	0.5168	-0.099
Mof_C 	C 	0.52768	0.18778	0.97244	0.13
Mof_C 	C 	0.69296	0.36506	0.89148	0.164
Mof_C 	C 	0.39739	0.50089	0.57122	0.128
Mof_C 	C 	0.61678	0.94088	0.56144	-0.158
Mof_C 	C 	0.38322	0.50232	0.43856	-0.157
Mof_C 	C 	0.53139	0.50089	0.57122	0.128
Mof_C 	C 	0.30943	0.10333	0.35594	0.162
Mof_C 	C 	0.00232	0.88322	0.93856	-0.126
Mof_C 	C 	0.04326	0.55396	0.16748	0.602
Mof_C 	C 	0.62088	0.09118	0.89704	-0.098
Mof_C 	C 	0.83463	0.10333	0.35594	0.162
Mof_C 	C 	0.94701	0.15201	0.11798	-0.226
Mof_C 	C 	0.00089	0.89739	0.07122	0.136
Mof_C 	C 	0.95927	0.66537	0.14406	0.166
Mof_C 	C 	0.07281	0.21731	0.08278	-0.225
Mof_C 	C 	0.19991	0.84441	0.58278	-0.228
Mof_C 	C 	0.92719	0.30009	0.91722	-0.229
Mof_C 	C 	0.00089	0.03139	0.07122	0.122
Mof_C 	C 	0.33582	0.09232	0.41256	0.173
Mof_C 	C 	0.31222	0.50012	0.52756	0.13
Mof_C 	C 	0.91556	0.74346	0.89148	0.157
Mof_C 	C 	0.95927	0.19057	0.14406	0.162
Mof_C 	C 	0.01792	0.98822	0.10296	-0.083
Mof_C 	C 	0.16537	0.89667	0.64406	0.162
Mof_C 	C 	0.0002	0.2626	0.9832	-0.095
Mof_C 	C 	0.99768	0.82178	0.06144	-0.169
Mof_C 	C 	0.43501	0.15201	0.11798	-0.233
Mof_C 	C 	0.65559	0.78269	0.91722	-0.228
Mof_C 	C 	0.4834	0.2458	0.0168	-0.089
Mof_C 	C 	0.31222	0.97232	0.52756	0.129
Mof_C 	C 	0.44088	0.11678	0.06144	-0.159
Mof_C 	C 	0.99768	0.11678	0.06144	-0.147
Mof_C 	C 	0.05396	0.54326	0.66748	0.6
Mof_C 	C 	0.48822	0.51792	0.60296	-0.089
Mof_C 	C 	0.13494	0.80704	0.60852	0.163
Mof_C 	C 	0.60261	0.49911	0.42878	0.128
Mof_C 	C 	0.60261	0.07211	0.42878	0.128
Mof_C 	C 	0.86506	0.41556	0.39148	0.164
Mof_C 	C 	0.7458	0.4998	0.5168	-0.091
Mof_C 	C 	0.52768	0.83978	0.97244	0.127
Mof_C 	C 	0.74265	0.83375	0.6391	-0.282
Mof_C 	C 	0.46861	0.49911	0.42878	0.128
Mof_C 	C 	0.99512	0.25162	0.91256	0.171
Mof_C 	C 	0.48822	0.87912	0.60296	-0.09
Mof_C 	C 	0.55912	0.88322	0.93856	-0.154
Mof_C 	C 	0.32178	0.49768	0.56144	-0.157
Mof_C 	C 	0.28926	0.55396	0.16748	0.601
Mof_C 	C 	0.34799	0.06499	0.38202	-0.232
Mof_C 	C 	0.08444	0.25654	0.10852	0.162
Mof_C 	C 	0.13494	0.58444	0.60852	0.164
Mof_C 	C 	0.71731	0.84441	0.58278	-0.229
Mof_C 	C 	0.33978	0.49988	0.47244	0.13
Mof_C 	C 	0.99911	0.10261	0.92878	0.132
Mof_C 	C 	0.66625	0.75735	0.8609	-0.281
Mof_C 	C 	0.56499	0.84799	0.88202	-0.231
Mof_C 	C 	0.00012	0.81222	0.02756	0.141
Mof_C 	C 	0.05299	0.26999	0.88202	-0.231
Mof_C 	C 	0.74265	0.52715	0.6391	-0.282
Mof_C 	C 	0.02715	0.61825	0.1391	-0.285
Mof_C 	C 	0.33582	0.49512	0.41256	0.173
Mof_C 	C 	0.68778	0.49988	0.47244	0.13
Mof_C 	C 	0.04073	0.33463	0.85594	0.166
Mof_C 	C 	0.56499	0.26999	0.88202	-0.233
Mof_C 	C 	0.22144	0.45674	0.33252	0.601
Mof_C 	C 	0.00012	0.16022	0.02756	0.123
Mof_C 	C 	0.23001	0.44701	0.61798	-0.232
Mof_C 	C 	0.9998	0.2458	0.0168	-0.085
Mof_C 	C 	0.66418	0.50488	0.58744	0.173
Mof_C 	C 	0.83463	0.54073	0.35594	0.162
Mof_C 	C 	0.07281	0.69991	0.08278	-0.235
Mof_C 	C 	0.77856	0.78926	0.66748	0.601
Mof_C 	C 	0.40882	0.87912	0.60296	-0.089
Mof_C 	C 	0.77856	0.54326	0.66748	0.601
Mof_C 	C 	0.98208	0.01178	0.89704	-0.058
Mof_C 	C 	0.80009	0.15559	0.41722	-0.228
Mof_C 	C 	0.75654	0.80704	0.60852	0.164
Mof_C 	C 	0.39667	0.19057	0.14406	0.163
Mof_C 	C 	0.65201	0.93501	0.61798	-0.233
Mof_C 	C 	0.75654	0.58444	0.60852	0.164
Mof_C 	C 	0.67822	0.05912	0.43856	-0.156
Mof_C 	C 	0.2374	0.4998	0.5168	-0.092
Mof_C 	C 	0.57211	0.10261	0.92878	0.131
Mof_C 	C 	0.30704	0.25654	0.10852	0.164
Mof_C 	C 	0.39739	0.92789	0.57122	0.128
Mof_C 	C 	0.94604	0.45674	0.33252	0.601
Mof_C 	C 	0.66022	0.97232	0.52756	0.129
Mof_C 	C 	0.25735	0.47285	0.3609	-0.282
Mof_C 	C 	0.95674	0.44604	0.83252	0.602
Mof_C 	C 	0.5166	0.7542	0.9832	-0.093
Mof_C 	C 	0.99988	0.83978	0.97244	0.105
Mof_C 	C 	0.55912	0.17822	0.93856	-0.159
Mof_C 	C 	0.05396	0.78926	0.66748	0.6
Mof_C 	C 	0.32178	0.94088	0.56144	-0.157
Mof_C 	C 	0.66022	0.50012	0.52756	0.13
Mof_C 	C 	0.33375	0.24265	0.1391	-0.282
Mof_C 	C 	0.65559	0.30009	0.91722	-0.23
Mof_C 	C 	0.71074	0.44604	0.83252	0.601
Mof_C 	C 	0.08444	0.63494	0.10852	0.168
Mof_C 	C 	0.30704	0.63494	0.10852	0.164
Mof_C 	C 	0.91556	0.36506	0.89148	0.165
Mof_C 	C 	0.25735	0.16625	0.3609	-0.282
Mof_C 	C 	0.2374	0.9834	0.5168	-0.093
Mof_C 	C 	0.04073	0.80943	0.85594	0.16
Mof_C 	C 	0.67822	0.50232	0.43856	-0.157
Mof_C 	C 	0.34441	0.69991	0.08278	-0.229
Mof_C 	C 	0.00488	0.16418	0.08744	0.164
Mof_C 	C 	0.86506	0.19296	0.39148	0.163
Mof_C 	C 	0.28269	0.15559	0.41722	-0.229
Mof_C 	C 	0.43501	0.73001	0.11798	-0.232
Mof_C 	C 	0.7626	0.0166	0.4832	-0.084
Mof_C 	C 	0.34799	0.55299	0.38202	-0.232
Mof_C 	C 	0.61678	0.49768	0.56144	-0.157
Mof_C 	C 	0.40768	0.16418	0.08744	0.174
Mof_C 	C 	0.66418	0.90768	0.58744	0.173
Mof_C 	C 	0.01792	0.90882	0.10296	-0.096
Mof_C 	C 	0.60333	0.33463	0.85594	0.162
Mof_C 	C 	0.00488	0.74838	0.08744	0.181
Mof_C 	C 	0.97285	0.75735	0.8609	-0.282
Mof_C 	C 	0.99911	0.96861	0.92878	0.098
Mof_C 	C 	0.71731	0.57281	0.58278	-0.229
Mof_C 	C 	0.47232	0.16022	0.02756	0.13
Mof_C 	C 	0.68778	0.02768	0.47244	0.128
Mof_C 	C 	0.11825	0.52715	0.6391	-0.28
Mof_C 	C 	0.46861	0.07211	0.42878	0.128
Mof_C 	C 	0.98208	0.09118	0.89704	-0.106
Mof_C 	C 	0.53139	0.92789	0.57122	0.128
Mof_C 	C 	0.59232	0.83582	0.91256	0.171
Mof_C 	C 	0.37912	0.90882	0.10296	-0.085
Mof_C 	C 	0.4834	0.7374	0.0168	-0.089
Mof_C 	C 	0.28926	0.27856	0.16748	0.601
Mof_C 	C 	0.94604	0.21074	0.33252	0.6
Mof_C 	C 	0.94701	0.73001	0.11798	-0.239
Mof_C 	C 	0.40882	0.51792	0.60296	-0.089
Mof_C 	C 	0.38322	0.05912	0.43856	-0.157
Mof_C 	C 	0.42789	0.03139	0.07122	0.133
Mof_C 	C 	0.99512	0.83582	0.91256	0.149
Mof_C 	C 	0.19991	0.57281	0.58278	-0.229
Mof_C 	C 	0.05299	0.84799	0.88202	-0.215
Mof_C 	C 	0.80009	0.42719	0.41722	-0.229
Mof_C 	C 	0.71074	0.72144	0.83252	0.601
Mof_C 	C 	0.23001	0.93501	0.61798	-0.231
Mof_C 	C 	0.51178	0.48208	0.39704	-0.089
Mof_C 	C 	0.33978	0.02768	0.47244	0.13
Mof_C 	C 	0.33375	0.61825	0.1391	-0.281
Mof_C 	C 	0.57211	0.96861	0.92878	0.118
Mof_C 	C 	0.7626	0.5002	0.4832	-0.092
Mof_C 	C 	0.28269	0.42719	0.41722	-0.229
Mof_C 	C 	0.24838	0.50488	0.58744	0.173
Mof_C 	C 	0.76999	0.55299	0.38202	-0.232
Mof_C 	C 	0.99988	0.18778	0.97244	0.129
Mof_C 	C 	0.11825	0.83375	0.6391	-0.28
Mof_C 	C 	0.2542	0.0166	0.4832	-0.089
Mof_C 	C 	0.69296	0.74346	0.89148	0.163
Mof_C 	C 	0.69057	0.89667	0.64406	0.162
Mof_C 	C 	0.60333	0.80943	0.85594	0.161
Mof_C 	C 	0.88175	0.16625	0.3609	-0.28
Mof_C 	C 	0.97285	0.38175	0.8609	-0.285
Mof_C 	C 	0.51178	0.12088	0.39704	-0.09
Mof_C 	C 	0.39667	0.66537	0.14406	0.162
Mof_C 	C 	0.69057	0.45927	0.64406	0.162
Mof_C 	C 	0.04326	0.27856	0.16748	0.601
Mof_C 	C 	0.24838	0.90768	0.58744	0.172
Mof_C 	C 	0.24346	0.19296	0.39148	0.164
Mof_C 	C 	0.22144	0.21074	0.33252	0.601
Mof_C 	C 	0.66625	0.38175	0.8609	-0.282
Mof_C 	C 	0.76999	0.06499	0.38202	-0.231
Mof_C 	C 	0.0002	0.7542	0.9832	-0.068
Mof_C 	C 	0.59118	0.12088	0.39704	-0.089
Mof_C 	C 	0.62088	0.01178	0.89704	-0.074
Mof_C 	C 	0.5166	0.2626	0.9832	-0.094
Mof_C 	C 	0.75162	0.49512	0.41256	0.173
Mof_C 	C 	0.59118	0.48208	0.39704	-0.089
Mof_C 	C 	0.2542	0.5002	0.4832	-0.091
Mof_C 	C 	0.16537	0.45927	0.64406	0.162
Mof_C 	C 	0.88175	0.47285	0.3609	-0.281
Mof_C 	C 	0.9998	0.7374	0.0168	-0.11
Mof_C 	C 	0.59232	0.25162	0.91256	0.174
Mof_C 	C 	0.65201	0.44701	0.61798	-0.232
Mof_C 	C 	0.30943	0.54073	0.35594	0.162
Mof_C 	C 	0.34441	0.21731	0.08278	-0.23
Mof_C 	C 	0.37912	0.98822	0.10296	-0.097
Mof_C 	C 	0.44088	0.82178	0.06144	-0.156
Mof_C 	C 	0.47232	0.81222	0.02756	0.129
Mof_C 	C 	0.42789	0.89739	0.07122	0.127
Mof_N 	N 	0.5	0.1244	-0	-0.219
Mof_N 	N 	0.5	0.8756	-0	-0.218
Mof_N 	N 	-0	0.1244	-0	-0.218
Mof_N 	N 	0.6244	0.5	0.5	-0.219
Mof_N 	N 	0.99415	0.97405	0.0519	-0.223
Mof_N 	N 	0.47405	0.95395	0.5519	-0.22
Mof_N 	N 	0.45395	0.97405	0.0519	-0.222
Mof_N 	N 	0.3756	0	0.5	-0.218
Mof_N 	N 	0.6244	0	0.5	-0.218
Mof_N 	N 	0.54605	0.02595	0.9481	-0.218
Mof_N 	N 	0.00585	0.02595	0.9481	-0.214
Mof_N 	N 	0.3756	0.5	0.5	-0.219
Mof_N 	N 	0.52595	0.04605	0.4481	-0.22
Mof_N 	N 	0.47405	0.49415	0.5519	-0.22
Mof_N 	N 	-5.15718e-21	0.8756	-0	-0.215
Mof_N 	N 	0.52595	0.50585	0.4481	-0.22
Mof_O 	O 	0.8397	0.59233	0.65886	-0.692
Mof_O 	O 	0.2645	0.39221	0.21558	-1.142
Mof_O 	O 	0.8615	0.70172	0.777	-1.515
Mof_O 	O 	0.90767	0.6603	0.84114	-0.692
Mof_O 	O 	0.79828	0.6385	0.723	-1.514
Mof_O 	O 	0.74517	0.79269	0.69762	-0.794
Mof_O 	O 	0.89221	0.7645	0.71558	-1.143
Mof_O 	O 	0.8397	0.74881	0.65886	-0.693
Mof_O 	O 	0.99856	0.25119	0.34114	-0.69
Mof_O 	O 	0.10779	0.48008	0.28442	-1.142
Mof_O 	O 	0.05721	0.50969	0.69762	-0.792
Mof_O 	O 	0.1385	0.47872	0.223	-1.514
Mof_O 	O 	0.75119	0.6603	0.84114	-0.692
Mof_O 	O 	0.02128	0.3615	0.277	-1.515
Mof_O 	O 	0.1385	0.29828	0.223	-1.515
Mof_O 	O 	0.01992	0.39221	0.21558	-1.142
Mof_O 	O 	0.09233	0.3397	0.15886	-0.692
Mof_O 	O 	0.70731	0.75483	0.80238	-0.794
Mof_O 	O 	0.00969	0.55721	0.19762	-0.794
Mof_O 	O 	0.24881	0.3397	0.15886	-0.692
Mof_O 	O 	0.99031	0.44279	0.80238	-0.795
Mof_O 	O 	0.89221	0.51992	0.71558	-1.143
Mof_O 	O 	0.29269	0.55721	0.19762	-0.794
Mof_O 	O 	0.05721	0.79269	0.69762	-0.791
Mof_O 	O 	0.10779	0.2355	0.28442	-1.142
Mof_O 	O 	0.8615	0.52128	0.777	-1.514
Mof_O 	O 	0.25483	0.20731	0.30238	-0.794
Mof_O 	O 	0.29269	0.24517	0.19762	-0.794
Mof_O 	O 	0.94279	0.20731	0.30238	-0.792
Mof_O 	O 	0.1603	0.40767	0.34114	-0.692
Mof_O 	O 	0.00144	0.59233	0.65886	-0.689
Mof_O 	O 	0.74517	0.50969	0.69762	-0.794
Mof_O 	O 	0.25483	0.49031	0.30238	-0.794
Mof_O 	O 	0.90767	0.49856	0.84114	-0.692
Mof_O 	O 	0.97872	0.6385	0.723	-1.516
Mof_O 	O 	0.7355	0.60779	0.78442	-1.142
Mof_O 	O 	0.99856	0.40767	0.34114	-0.69
Mof_O 	O 	0.00969	0.24517	0.19762	-0.795
Mof_O 	O 	0.09233	0.50144	0.15886	-0.692
Mof_O 	O 	0.24881	0.50144	0.15886	-0.692
Mof_O 	O 	0.75119	0.49856	0.84114	-0.692
Mof_O 	O 	0.98008	0.60779	0.78442	-1.143
Mof_O 	O 	0.20172	0.3615	0.277	-1.514
Mof_O 	O 	0.1603	0.25119	0.34114	-0.692
Mof_O 	O 	0.99031	0.75483	0.80238	-0.796
Mof_O 	O 	0.94279	0.49031	0.30238	-0.793
Mof_O 	O 	0.70731	0.44279	0.80238	-0.794
Mof_O 	O 	0.00144	0.74881	0.65886	-0.689
_end
