data_functionalizedCrystal
_audit_creation_method	'EQeq! by Chris Wilmer'
_symmetry_space_group_name_H-M	'P1'
_symmetry_Int_Tables_number	1
_symmetry_cell_setting	triclinic
loop_
_symmetry_equiv_pos_as_xyz
  x,y,z
_cell_length_a	15.468
_cell_length_b	15.785
_cell_length_c	18.038
_cell_angle_alpha	107.27
_cell_angle_beta	103.949
_cell_angle_gamma	107.163
loop_
_atom_site_label
_atom_site_type_symbol
_atom_site_fract_x
_atom_site_fract_y
_atom_site_fract_z
_atom_site_charge
Mof_Co	Co	0.02536	0.17788	0.91484	1.162
Mof_O 	O 	0.9583	0.1046	0.062	-0.429
Mof_O 	O 	0.9768	0.228	0.0128	-0.389
Mof_O 	O 	0.9489	0.0201	0.8804	-0.468
Mof_O 	O 	0.0249	0.0648	0.7974	-0.396
Mof_O 	O 	0.8904	0.1782	0.8214	-0.338
Mof_O 	O 	0.0359	0.2921	0.8705	-0.385
Mof_O 	O 	0.1724	0.2273	0.9879	-0.391
Mof_O 	O 	0.142	0.1037	0.0282	-0.443
Mof_C 	C 	0.9716	0.9996	0.8128	0.385
Mof_C 	C 	0.9243	0.8973	0.7563	-0.136
Mof_C 	C 	0.8637	0.8266	0.7741	0.089
Mof_H 	H 	0.8486	0.845	0.8217	0.016
Mof_C 	C 	0.8268	0.7316	0.7229	-0.173
Mof_H 	H 	0.785	0.6864	0.7351	0.097
Mof_C 	C 	0.8501	0.7003	0.6528	0.124
Mof_C 	C 	0.9065	0.7676	0.6317	-0.157
Mof_H 	H 	0.9185	0.7471	0.5827	0.099
Mof_C 	C 	0.9466	0.8675	0.6826	0.069
Mof_H 	H 	0.9862	0.9124	0.6686	0.035
Mof_C 	C 	0.821	0.5946	0.6059	-0.086
Mof_C 	C 	0.8411	0.5407	0.6504	0.006
Mof_H 	H 	0.8701	0.5714	0.7081	0.037
Mof_O 	O 	0.7636	0.5968	0.4703	-0.154
Mof_C 	C 	0.8199	0.4421	0.6129	-0.099
Mof_O 	O 	0.7536	0.2972	0.4859	-0.16
Mof_C 	C 	0.7799	0.3967	0.5298	0.119
Mof_O 	O 	0.5615	0.3922	0.3783	-0.172
Mof_C 	C 	0.7589	0.4491	0.4814	-0.042
Mof_O 	O 	0.8795	0.4116	0.3963	-0.18
Mof_C 	C 	0.7826	0.5464	0.5204	0.119
Mof_C 	C 	0.6847	0.6337	0.4748	-0.274
Mof_H 	H 	0.6848	0.6746	0.4446	0.124
Mof_H 	H 	0.6962	0.67	0.5319	0.12
Mof_H 	H 	0.623	0.5801	0.4507	0.13
Mof_C 	C 	0.8379	0.2692	0.4842	-0.271
Mof_H 	H 	0.8172	0.2008	0.469	0.12
Mof_H 	H 	0.8882	0.3027	0.5382	0.12
Mof_H 	H 	0.8623	0.2861	0.4441	0.129
Mof_C 	C 	0.9477	0.2553	0.8229	0.361
Mof_C 	C 	0.9124	0.3033	0.7725	-0.169
Mof_C 	C 	0.8214	0.2622	0.7135	0.122
Mof_H 	H 	0.7786	0.2039	0.7093	0.005
Mof_C 	C 	0.7903	0.3014	0.661	-0.2
Mof_H 	H 	0.7296	0.2674	0.6188	0.11
Mof_C 	C 	0.8483	0.3921	0.6695	0.144
Mof_C 	C 	0.9412	0.4395	0.7336	-0.209
Mof_H 	H 	0.9799	0.5018	0.7423	0.113
Mof_C 	C 	0.9754	0.3976	0.7821	0.149
Mof_H 	H 	0.0383	0.4285	0.8211	-0.014
Mof_C 	C 	0.9544	0.18	0.063	0.336
Mof_C 	C 	0.9125	0.2372	0.1173	-0.092
Mof_C 	C 	0.9142	0.2208	0.1897	0.027
Mof_H 	H 	0.9437	0.1812	0.2035	0.043
Mof_C 	C 	0.8712	0.2642	0.2414	-0.114
Mof_H 	H 	0.8778	0.2585	0.2921	0.083
Mof_C 	C 	0.8166	0.3178	0.2165	0.088
Mof_C 	C 	0.8184	0.3369	0.1453	-0.128
Mof_H 	H 	0.7892	0.3766	0.1313	0.076
Mof_C 	C 	0.865	0.2953	0.0949	0.033
Mof_H 	H 	0.8643	0.306	0.0468	0.032
Mof_C 	C 	0.7514	0.3427	0.2598	-0.082
Mof_C 	C 	0.7853	0.3866	0.3491	0.132
Mof_C 	C 	0.9406	0.5072	0.4086	-0.173
Mof_H 	H 	0.0074	0.517	0.4304	0.084
Mof_H 	H 	0.9278	0.5543	0.4472	0.1
Mof_H 	H 	0.9272	0.5141	0.3564	0.095
Mof_C 	C 	0.7198	0.4018	0.3877	-0.055
Mof_C 	C 	0.6238	0.3727	0.3401	0.146
Mof_C 	C 	0.5911	0.3311	0.2533	-0.115
Mof_C 	C 	0.6578	0.3202	0.216	0.018
Mof_H 	H 	0.6372	0.2962	0.1583	0.024
Mof_C 	C 	0.5266	0.3313	0.4217	-0.223
Mof_H 	H 	0.4811	0.35	0.4433	0.101
Mof_H 	H 	0.5806	0.3393	0.4668	0.11
Mof_H 	H 	0.4956	0.2648	0.3834	0.099
Mof_C 	C 	0.4895	0.2966	0.1997	0.179
Mof_C 	C 	0.4618	0.3353	0.1381	-0.213
Mof_H 	H 	0.5078	0.3835	0.132	0.106
Mof_C 	C 	0.3652	0.2982	0.0892	0.14
Mof_H 	H 	0.3461	0.3284	0.055	-0.01
Mof_C 	C 	0.2977	0.2224	0.0876	-0.21
Mof_C 	C 	0.3259	0.1862	0.1416	0.145
Mof_H 	H 	0.2805	0.1324	0.1418	-0.011
Mof_C 	C 	0.4219	0.2252	0.1992	-0.236
Mof_H 	H 	0.4365	0.1986	0.2378	0.113
Mof_C 	C 	0.1961	0.1844	0.0306	0.364
Mof_Co	Co	0.97464	0.82212	0.08516	1.162
Mof_O 	O 	0.0417	0.8954	0.938	-0.404
Mof_O 	O 	0.0232	0.772	0.9872	-0.367
Mof_O 	O 	0.0511	0.9799	0.1196	-0.412
Mof_O 	O 	0.9751	0.9352	0.2026	-0.281
Mof_O 	O 	0.1096	0.8218	0.1786	-0.33
Mof_O 	O 	0.9641	0.7079	0.1295	-0.353
Mof_O 	O 	0.8276	0.7727	0.0121	-0.474
Mof_O 	O 	0.858	0.8963	0.9718	-0.409
Mof_C 	C 	0.0284	0.0004	0.1872	0.192
Mof_C 	C 	0.0757	0.1027	0.2437	-0.079
Mof_C 	C 	0.1363	0.1734	0.2259	0.029
Mof_H 	H 	0.1514	0.155	0.1783	0.026
Mof_C 	C 	0.1732	0.2684	0.2771	-0.137
Mof_H 	H 	0.215	0.3136	0.2649	0.081
Mof_C 	C 	0.1499	0.2997	0.3472	0.092
Mof_C 	C 	0.0935	0.2324	0.3683	-0.13
Mof_H 	H 	0.0815	0.2529	0.4173	0.079
Mof_C 	C 	0.0534	0.1325	0.3174	0.014
Mof_H 	H 	0.0138	0.0876	0.3314	0.025
Mof_C 	C 	0.179	0.4054	0.3941	-0.073
Mof_C 	C 	0.1589	0.4593	0.3496	-0.013
Mof_H 	H 	0.1299	0.4286	0.2919	0.037
Mof_O 	O 	0.2364	0.4032	0.5297	-0.157
Mof_C 	C 	0.1801	0.5579	0.3871	-0.075
Mof_O 	O 	0.2464	0.7028	0.5141	-0.152
Mof_C 	C 	0.2201	0.6033	0.4702	0.108
Mof_O 	O 	0.4385	0.6078	0.6217	-0.169
Mof_C 	C 	0.2411	0.5509	0.5186	-0.037
Mof_O 	O 	0.1205	0.5884	0.6037	-0.157
Mof_C 	C 	0.2174	0.4536	0.4796	0.111
Mof_C 	C 	0.3153	0.3663	0.5252	-0.265
Mof_H 	H 	0.3152	0.3254	0.5554	0.117
Mof_H 	H 	0.3038	0.33	0.4681	0.115
Mof_H 	H 	0.377	0.4199	0.5493	0.127
Mof_C 	C 	0.1621	0.7308	0.5158	-0.27
Mof_H 	H 	0.1828	0.7992	0.531	0.125
Mof_H 	H 	0.1118	0.6973	0.4618	0.117
Mof_H 	H 	0.1377	0.7139	0.5559	0.127
Mof_C 	C 	0.0523	0.7447	0.1771	0.284
Mof_C 	C 	0.0876	0.6967	0.2275	-0.094
Mof_C 	C 	0.1786	0.7378	0.2865	0.049
Mof_H 	H 	0.2214	0.7961	0.2907	0.033
Mof_C 	C 	0.2097	0.6986	0.339	-0.137
Mof_H 	H 	0.2704	0.7326	0.3812	0.092
Mof_C 	C 	0.1517	0.6079	0.3305	0.086
Mof_C 	C 	0.0588	0.5605	0.2664	-0.116
Mof_H 	H 	0.0201	0.4982	0.2577	0.067
Mof_C 	C 	0.0246	0.6024	0.2179	-0.002
Mof_H 	H 	0.9617	0.5715	0.1789	0.057
Mof_C 	C 	0.0456	0.82	0.937	0.331
Mof_C 	C 	0.0875	0.7628	0.8827	-0.084
Mof_C 	C 	0.0858	0.7792	0.8103	0.026
Mof_H 	H 	0.0563	0.8188	0.7965	0.039
Mof_C 	C 	0.1288	0.7358	0.7586	-0.111
Mof_H 	H 	0.1222	0.7415	0.7079	0.08
Mof_C 	C 	0.1834	0.6822	0.7835	0.085
Mof_C 	C 	0.1816	0.6631	0.8547	-0.123
Mof_H 	H 	0.2108	0.6234	0.8687	0.081
Mof_C 	C 	0.135	0.7047	0.9051	0.031
Mof_H 	H 	0.1357	0.694	0.9532	0.047
Mof_C 	C 	0.2486	0.6573	0.7402	-0.075
Mof_C 	C 	0.2147	0.6134	0.6509	0.124
Mof_C 	C 	0.0594	0.4928	0.5914	-0.328
Mof_H 	H 	0.9926	0.483	0.5696	0.156
Mof_H 	H 	0.0722	0.4457	0.5528	0.137
Mof_H 	H 	0.0728	0.4859	0.6436	0.13
Mof_C 	C 	0.2802	0.5982	0.6123	-0.052
Mof_C 	C 	0.3762	0.6273	0.6599	0.146
Mof_C 	C 	0.4089	0.6689	0.7467	-0.113
Mof_C 	C 	0.3422	0.6798	0.784	0.018
Mof_H 	H 	0.3628	0.7038	0.8417	0.037
Mof_C 	C 	0.4734	0.6687	0.5783	-0.236
Mof_H 	H 	0.5189	0.65	0.5567	0.106
Mof_H 	H 	0.4194	0.6607	0.5332	0.116
Mof_H 	H 	0.5044	0.7352	0.6166	0.109
Mof_C 	C 	0.5105	0.7034	0.8003	0.195
Mof_C 	C 	0.5382	0.6647	0.8619	-0.225
Mof_H 	H 	0.4922	0.6165	0.868	0.12
Mof_C 	C 	0.6348	0.7018	0.9108	0.174
Mof_H 	H 	0.6539	0.6716	0.945	0.002
Mof_C 	C 	0.7023	0.7776	0.9124	-0.238
Mof_C 	C 	0.6741	0.8138	0.8584	0.177
Mof_H 	H 	0.7195	0.8676	0.8582	-0.005
Mof_C 	C 	0.5781	0.7748	0.8008	-0.248
Mof_H 	H 	0.5635	0.8014	0.7622	0.128
Mof_C 	C 	0.8039	0.8156	0.9694	0.465
Mof_Co	Co	-0	0	-0	1.138
_end
