data_functionalizedCrystal
_audit_creation_method	'EQeq! by Chris Wilmer'
_symmetry_space_group_name_H-M	'P1'
_symmetry_Int_Tables_number	1
_symmetry_cell_setting	triclinic
loop_
_symmetry_equiv_pos_as_xyz
  x,y,z
_cell_length_a	13.868
_cell_length_b	26.591
_cell_length_c	7.84
_cell_angle_alpha	90
_cell_angle_beta	90
_cell_angle_gamma	90
loop_
_atom_site_label
_atom_site_type_symbol
_atom_site_fract_x
_atom_site_fract_y
_atom_site_fract_z
_atom_site_charge
Mof_Cd	Cd	0.67515	0.5	0.6213	0.372
Mof_Cd	Cd	0.75433	0.76473	0.618	0.372
Mof_Ni	Ni	0.7327	0.63186	0.1108	1.057
Mof_N 	N 	0.701	0.5564	0.834	-0.077
Mof_N 	N 	0.694	0.5557	0.383	-0.07
Mof_N 	N 	0.8316	0.4672	0.605	-0.072
Mof_N 	N 	0.639	0.4407	0.405	-0.112
Mof_N 	N 	0.5075	0.5032	0.593	-0.124
Mof_N 	N 	0.764	0.7112	0.838	-0.081
Mof_N 	N 	0.769	0.7075	0.395	-0.079
Mof_N 	N 	0.908	0.7987	0.618	-0.073
Mof_N 	N 	0.723	0.824	0.395	-0.111
Mof_N 	N 	0.584	0.7587	0.575	-0.126
Mof_C 	C 	0.711	0.5841	0.94	-0.223
Mof_C 	C 	0.709	0.5841	0.274	-0.249
Mof_C 	C 	0.881	0.4344	0.564	-0.218
Mof_C 	C 	0.754	0.6813	0.943	-0.226
Mof_C 	C 	0.758	0.6788	0.29	-0.218
Mof_C 	C 	0.958	0.8293	0.573	-0.215
Mof_C 	C 	0.538	0.446	0.357	-0.026
Mof_C 	C 	0.477	0.464	0.465	0.036
Mof_C 	C 	0.369	0.4672	0.432	-0.026
Mof_C 	C 	0.618	0.824	0.357	-0.026
Mof_C 	C 	0.554	0.795	0.456	0.044
Mof_C 	C 	0.449	0.796	0.402	-0.029
Mof_Cd	Cd	0.32485	1.09143e-33	0.3787	0.356
Mof_Cd	Cd	0.24567	0.26473	0.382	0.371
Mof_Ni	Ni	0.2673	0.13186	0.8892	1.057
Mof_N 	N 	0.299	0.0564	0.166	-0.079
Mof_N 	N 	0.306	0.0557	0.617	-0.072
Mof_N 	N 	0.1684	0.9672	0.395	-0.066
Mof_N 	N 	0.361	0.9407	0.595	-0.108
Mof_N 	N 	0.4925	0.0032	0.407	-0.134
Mof_N 	N 	0.236	0.2112	0.162	-0.081
Mof_N 	N 	0.231	0.2075	0.605	-0.079
Mof_N 	N 	0.092	0.2987	0.382	-0.073
Mof_N 	N 	0.277	0.324	0.605	-0.111
Mof_N 	N 	0.416	0.2587	0.425	-0.126
Mof_C 	C 	0.289	0.0841	0.06	-0.225
Mof_C 	C 	0.291	0.0841	0.726	-0.253
Mof_C 	C 	0.119	0.9344	0.436	-0.216
Mof_C 	C 	0.246	0.1813	0.057	-0.226
Mof_C 	C 	0.242	0.1788	0.71	-0.219
Mof_C 	C 	0.042	0.3293	0.427	-0.216
Mof_C 	C 	0.462	0.946	0.643	-0.025
Mof_C 	C 	0.523	0.964	0.535	0.046
Mof_C 	C 	0.631	0.9672	0.568	-0.02
Mof_C 	C 	0.382	0.324	0.643	-0.026
Mof_C 	C 	0.446	0.295	0.544	0.045
Mof_C 	C 	0.551	0.296	0.598	-0.03
Mof_Ni	Ni	0.9621	0.38259	0.4945	1.065
Mof_N 	N 	0.131	0.4339	0.663	-0.063
Mof_N 	N 	0.2081	0.8321	0.675	-0.065
Mof_C 	C 	0.067	0.415	0.593	-0.22
Mof_C 	C 	0.146	0.8512	0.605	-0.212
Mof_Ni	Ni	0.0379	0.88259	0.5055	1.065
Mof_N 	N 	0.869	0.9339	0.337	-0.059
Mof_N 	N 	0.7919	0.3321	0.325	-0.065
Mof_C 	C 	0.933	0.915	0.407	-0.217
Mof_C 	C 	0.854	0.3512	0.395	-0.212
Mof_Ni	Ni	0.4621	0.38259	0.0055	1.063
Mof_N 	N 	0.631	0.4339	0.837	-0.063
Mof_N 	N 	0.7081	0.8321	0.825	-0.065
Mof_C 	C 	0.567	0.415	0.907	-0.218
Mof_C 	C 	0.646	0.8512	0.895	-0.213
Mof_Ni	Ni	0.5379	0.88259	0.9945	1.063
Mof_N 	N 	0.369	0.9339	0.163	-0.059
Mof_N 	N 	0.2919	0.3321	0.175	-0.065
Mof_C 	C 	0.433	0.915	0.093	-0.214
Mof_C 	C 	0.354	0.3512	0.105	-0.213
Mof_Cd	Cd	0.17515	0.5	0.8787	0.374
Mof_Cd	Cd	0.25433	0.76473	0.882	0.369
Mof_Ni	Ni	0.2327	0.63186	0.3892	1.059
Mof_N 	N 	0.201	0.5564	0.666	-0.077
Mof_N 	N 	0.194	0.5557	0.117	-0.072
Mof_N 	N 	0.3316	0.4672	0.895	-0.072
Mof_N 	N 	0.139	0.4407	0.095	-0.114
Mof_N 	N 	0.0075	0.5032	0.907	-0.121
Mof_N 	N 	0.264	0.7112	0.662	-0.081
Mof_N 	N 	0.269	0.7075	0.105	-0.079
Mof_N 	N 	0.408	0.7987	0.882	-0.073
Mof_N 	N 	0.223	0.824	0.105	-0.109
Mof_N 	N 	0.084	0.7587	0.925	-0.128
Mof_C 	C 	0.211	0.5841	0.56	-0.227
Mof_C 	C 	0.209	0.5841	0.226	-0.248
Mof_C 	C 	0.381	0.4344	0.936	-0.215
Mof_C 	C 	0.254	0.6813	0.557	-0.228
Mof_C 	C 	0.258	0.6788	0.21	-0.218
Mof_C 	C 	0.458	0.8293	0.927	-0.218
Mof_C 	C 	0.038	0.446	0.143	-0.022
Mof_C 	C 	0.977	0.464	0.035	0.029
Mof_C 	C 	0.869	0.4672	0.068	-0.028
Mof_C 	C 	0.118	0.824	0.143	-0.026
Mof_C 	C 	0.054	0.795	0.044	0.047
Mof_C 	C 	0.949	0.796	0.098	-0.029
Mof_Cd	Cd	0.82485	-2.72857e-34	0.1213	0.359
Mof_Cd	Cd	0.74567	0.26473	0.118	0.37
Mof_Ni	Ni	0.7673	0.13186	0.6108	1.059
Mof_N 	N 	0.799	0.0564	0.334	-0.079
Mof_N 	N 	0.806	0.0557	0.883	-0.074
Mof_N 	N 	0.6684	0.9672	0.105	-0.066
Mof_N 	N 	0.861	0.9407	0.905	-0.11
Mof_N 	N 	0.9925	0.0032	0.093	-0.13
Mof_N 	N 	0.736	0.2112	0.338	-0.081
Mof_N 	N 	0.731	0.2075	0.895	-0.079
Mof_N 	N 	0.592	0.2987	0.118	-0.073
Mof_N 	N 	0.777	0.324	0.895	-0.11
Mof_N 	N 	0.916	0.2587	0.075	-0.127
Mof_C 	C 	0.789	0.0841	0.44	-0.231
Mof_C 	C 	0.791	0.0841	0.774	-0.252
Mof_C 	C 	0.619	0.9344	0.064	-0.212
Mof_C 	C 	0.746	0.1813	0.443	-0.229
Mof_C 	C 	0.742	0.1788	0.79	-0.219
Mof_C 	C 	0.542	0.3293	0.073	-0.217
Mof_C 	C 	0.962	0.946	0.857	-0.018
Mof_C 	C 	0.023	0.964	0.965	0.035
Mof_C 	C 	0.131	0.9672	0.932	-0.022
Mof_C 	C 	0.882	0.324	0.857	-0.026
Mof_C 	C 	0.946	0.295	0.956	0.047
Mof_C 	C 	0.051	0.296	0.902	-0.031
_end
