data_functionalizedCrystal
_audit_creation_method	'EQeq! by Chris Wilmer'
_symmetry_space_group_name_H-M	'P1'
_symmetry_Int_Tables_number	1
_symmetry_cell_setting	triclinic
loop_
_symmetry_equiv_pos_as_xyz
  x,y,z
_cell_length_a	4.968
_cell_length_b	11.621
_cell_length_c	19.669
_cell_angle_alpha	107.16
_cell_angle_beta	90
_cell_angle_gamma	90
loop_
_atom_site_label
_atom_site_type_symbol
_atom_site_fract_x
_atom_site_fract_y
_atom_site_fract_z
_atom_site_charge
Mof_Mn	Mn	0.72526	0.6173	0.73122	0.848
Mof_Mn	Mn	0.72065	0.87847	0.25697	0.847
Mof_Mn	Mn	0.22395	0.87868	0.75777	0.679
Mof_Mn	Mn	0.2259	0.6186	0.234	0.673
Mof_Mn	Mn	0.72526	0.3827	0.26878	0.847
Mof_Mn	Mn	0.72065	0.12153	0.74303	0.846
Mof_Mn	Mn	0.22395	0.12132	0.24223	0.679
Mof_Mn	Mn	0.2259	0.3814	0.766	0.673
Mof_P 	P 	0.2882	0.6732	0.83625	0.312
Mof_P 	P 	0.2833	0.8322	0.15535	0.272
Mof_P 	P 	0.7845	0.3267	0.6626	0.4
Mof_P 	P 	0.7869	0.1675	0.3425	0.438
Mof_P 	P 	0.2882	0.3268	0.16375	0.312
Mof_P 	P 	0.2833	0.1678	0.84465	0.272
Mof_P 	P 	0.7845	0.6733	0.3374	0.4
Mof_P 	P 	0.7869	0.8325	0.6575	0.438
Mof_H 	H 	0.75726	0.76122	0.93202	0.09
Mof_H 	H 	0.76093	0.80588	0.06421	0.098
Mof_H 	H 	0.84766	0.07616	0.5649	0.025
Mof_H 	H 	0.96171	0.02587	0.43491	0.046
Mof_H 	H 	0.75726	0.23878	0.06798	0.09
Mof_H 	H 	0.76093	0.19412	0.93579	0.098
Mof_H 	H 	0.84766	0.92384	0.4351	0.025
Mof_H 	H 	0.96171	0.97413	0.56509	0.046
Mof_C 	C 	0.347	0.7329	0.9303	-0.056
Mof_C 	C 	0.3607	0.7938	0.0633	-0.042
Mof_C 	C 	0.5982	0.7611	0.9597	-0.014
Mof_C 	C 	0.5995	0.7904	0.0362	-0.022
Mof_C 	C 	0.833	0.1878	0.4357	-0.073
Mof_C 	C 	0.847	0.2663	0.5685	-0.051
Mof_C 	C 	0.8607	0.1329	0.5381	-0.024
Mof_C 	C 	0.8961	0.1029	0.463	-0.008
Mof_C 	C 	0.347	0.2671	0.0697	-0.056
Mof_C 	C 	0.3607	0.2062	0.9367	-0.042
Mof_C 	C 	0.5982	0.2389	0.0403	-0.014
Mof_C 	C 	0.5995	0.2096	0.9638	-0.022
Mof_C 	C 	0.833	0.8122	0.5643	-0.073
Mof_C 	C 	0.847	0.7337	0.4315	-0.051
Mof_C 	C 	0.8607	0.8671	0.4619	-0.024
Mof_C 	C 	0.8961	0.8971	0.537	-0.008
Mof_S 	S 	0.1143	0.7443	0.99681	-0.127
Mof_S 	S 	0.8067	0.3277	0.5028	0.028
Mof_S 	S 	0.1143	0.2557	0.00319	-0.127
Mof_S 	S 	0.8067	0.6723	0.4972	0.028
Mof_O 	O 	0.432	0.7494	0.799	-0.418
Mof_O 	O 	0.435	0.5485	0.807	-0.389
Mof_O 	O 	0.9922	0.6656	0.8218	-0.252
Mof_O 	O 	0.429	0.7333	0.1847	-0.388
Mof_O 	O 	0.43	0.9541	0.1903	-0.4
Mof_O 	O 	0.9805	0.8358	0.1672	-0.248
Mof_O 	O 	0.928	0.2399	0.6992	-0.363
Mof_O 	O 	0.932	0.4506	0.6863	-0.343
Mof_O 	O 	0.484	0.3339	0.6746	-0.396
Mof_O 	O 	0.923	0.2583	0.3146	-0.365
Mof_O 	O 	0.92	0.0452	0.3033	-0.374
Mof_O 	O 	0.487	0.1667	0.3314	-0.402
Mof_O 	O 	0.432	0.2506	0.201	-0.418
Mof_O 	O 	0.435	0.4515	0.193	-0.389
Mof_O 	O 	0.9922	0.3344	0.1782	-0.252
Mof_O 	O 	0.429	0.2667	0.8153	-0.388
Mof_O 	O 	0.43	0.0459	0.8097	-0.4
Mof_O 	O 	0.9805	0.1642	0.8328	-0.248
Mof_O 	O 	0.928	0.7601	0.3008	-0.363
Mof_O 	O 	0.932	0.5494	0.3137	-0.343
Mof_O 	O 	0.484	0.6661	0.3254	-0.396
Mof_O 	O 	0.923	0.7417	0.6854	-0.365
Mof_O 	O 	0.92	0.9548	0.6967	-0.374
Mof_O 	O 	0.487	0.8333	0.6686	-0.402
_end
