data_functionalizedCrystal
_audit_creation_method	'EQeq! by Chris Wilmer'
_symmetry_space_group_name_H-M	'P1'
_symmetry_Int_Tables_number	1
_symmetry_cell_setting	triclinic
loop_
_symmetry_equiv_pos_as_xyz
  x,y,z
_cell_length_a	30.8099
_cell_length_b	30.8099
_cell_length_c	16.4605
_cell_angle_alpha	90
_cell_angle_beta	90
_cell_angle_gamma	120
loop_
_atom_site_label
_atom_site_type_symbol
_atom_site_fract_x
_atom_site_fract_y
_atom_site_fract_z
_atom_site_charge
Mof_Fe	Fe	0.79768	0.16959	0.75417	1.081
Mof_Fe	Fe	0.90811	0.27433	0.75249	0.924
Mof_Fe	Fe	0.89855	0.16102	0.74673	0.999
Mof_Fe	Fe	0.64325	0.26275	0.25354	0.978
Mof_Cl	Cl	0.72042	0.24929	0.67053	-0.196
Mof_Cl	Cl	0.67424	0.27493	0.52104	-0.192
Mof_Cl	Cl	0.83099	0.30674	0.33886	-0.196
Mof_Cl	Cl	0.8775	0.27922	0.48653	-0.196
Mof_Cl	Cl	0.80016	0.14667	0.48153	-0.199
Mof_Cl	Cl	0.74783	0.07106	0.33552	-0.197
Mof_Cl	Cl	0.73048	0.92185	0.523	-0.196
Mof_Cl	Cl	0.78377	0.99666	0.66707	-0.189
Mof_Cl	Cl	0.71591	0.00882	0.83684	-0.193
Mof_Cl	Cl	0.66958	0.93677	0.98455	-0.196
Mof_Cl	Cl	0.82769	0.06332	0.16877	-0.191
Mof_Cl	Cl	0.87361	0.13545	0.01972	-0.195
Mof_Cl	Cl	0.81389	0.20114	0.02776	-0.193
Mof_Cl	Cl	0.76136	0.22396	0.17125	-0.199
Mof_Cl	Cl	0.74173	0.35507	0.98277	-0.196
Mof_Cl	Cl	0.795	0.33178	0.83902	-0.197
Mof_O 	O 	0.8639	0.1982	0.753	-0.554
Mof_O 	O 	0.7925	0.205	0.6586	-0.349
Mof_O 	O 	0.8564	0.283	0.6752	-0.336
Mof_O 	O 	0.6971	0.2668	0.3301	-0.356
Mof_O 	O 	0.7515	0.3491	0.3532	-0.323
Mof_O 	O 	0.7841	0.1132	0.6766	-0.35
Mof_O 	O 	0.857	0.1175	0.6502	-0.362
Mof_O 	O 	0.6737	0.9494	0.3515	-0.314
Mof_O 	O 	0.7484	0.9532	0.3327	-0.351
Mof_O 	O 	0.7907	0.1272	0.8517	-0.354
Mof_O 	O 	0.8498	0.1055	0.8249	-0.329
Mof_O 	O 	0.7509	0.9458	0.1556	-0.339
Mof_O 	O 	0.6918	0.9643	0.1719	-0.361
Mof_O 	O 	0.7925	0.2169	0.831	-0.357
Mof_O 	O 	0.8705	0.2814	0.8539	-0.325
Mof_O 	O 	0.6854	0.2667	0.1516	-0.353
Mof_O 	O 	0.7561	0.3376	0.174	-0.333
Mof_C 	C 	0.7287	0.2966	0.1383	0.477
Mof_C 	C 	0.8179	0.2528	0.6423	0.455
Mof_C 	C 	0.796	0.26565	0.5707	-0.133
Mof_C 	C 	0.7505	0.26473	0.5782	0.174
Mof_C 	C 	0.7306	0.27662	0.5118	0.165
Mof_C 	C 	0.7558	0.2894	0.438	-0.114
Mof_C 	C 	0.8012	0.2902	0.4308	0.168
Mof_C 	C 	0.8215	0.2785	0.4971	0.174
Mof_C 	C 	0.7317	0.3015	0.3654	0.445
Mof_C 	C 	0.8144	0.1042	0.6354	0.473
Mof_C 	C 	0.78875	0.0672	0.5651	-0.126
Mof_C 	C 	0.78102	0.0843	0.4915	0.17
Mof_C 	C 	0.7579	0.0513	0.4277	0.17
Mof_C 	C 	0.7424	0.0008	0.4368	-0.127
Mof_C 	C 	0.7499	0.9835	0.5106	0.173
Mof_C 	C 	0.773	0.0165	0.575	0.168
Mof_C 	C 	0.7194	0.9642	0.3676	0.443
Mof_C 	C 	0.8141	0.1048	0.8655	0.441
Mof_C 	C 	0.7919	0.0679	0.9361	-0.119
Mof_C 	C 	0.7464	0.0235	0.9285	0.168
Mof_C 	C 	0.7261	0.9916	0.9948	0.175
Mof_C 	C 	0.7514	0.0041	0.0689	-0.147
Mof_C 	C 	0.7969	0.0486	0.0764	0.181
Mof_C 	C 	0.8171	0.0805	0.0096	0.166
Mof_C 	C 	0.7268	0.968	0.1371	0.49
Mof_C 	C 	0.8248	0.2555	0.8685	0.445
Mof_C 	C 	0.8015	0.2677	0.9418	-0.116
Mof_C 	C 	0.79405	0.24347	0.016	0.168
Mof_C 	C 	0.77067	0.2536	0.0794	0.174
Mof_C 	C 	0.7545	0.2881	0.0688	-0.143
Mof_C 	C 	0.7619	0.3125	0.9946	0.18
Mof_C 	C 	0.7856	0.3024	0.9313	0.162
Mof_Fe	Fe	0.83041	0.62809	0.75417	1.08
Mof_Fe	Fe	0.72567	0.63378	0.75249	0.923
Mof_Fe	Fe	0.83898	0.73753	0.74673	0.998
Mof_Fe	Fe	0.73725	0.3805	0.25354	0.977
Mof_Cl	Cl	0.75071	0.47113	0.67053	-0.197
Mof_Cl	Cl	0.72507	0.39931	0.52104	-0.193
Mof_Cl	Cl	0.69326	0.52425	0.33886	-0.197
Mof_Cl	Cl	0.72078	0.59828	0.48653	-0.197
Mof_Cl	Cl	0.85333	0.65349	0.48153	-0.2
Mof_Cl	Cl	0.92894	0.67677	0.33552	-0.198
Mof_Cl	Cl	0.07815	0.80863	0.523	-0.197
Mof_Cl	Cl	0.00334	0.78711	0.66707	-0.19
Mof_Cl	Cl	0.99118	0.70709	0.83684	-0.194
Mof_Cl	Cl	0.06323	0.73281	0.98455	-0.197
Mof_Cl	Cl	0.93668	0.76437	0.16877	-0.192
Mof_Cl	Cl	0.86455	0.73816	0.01972	-0.196
Mof_Cl	Cl	0.79886	0.61275	0.02776	-0.194
Mof_Cl	Cl	0.77604	0.5374	0.17125	-0.2
Mof_Cl	Cl	0.64493	0.38666	0.98277	-0.197
Mof_Cl	Cl	0.66822	0.46322	0.83902	-0.198
Mof_O 	O 	0.8018	0.6657	0.753	-0.555
Mof_O 	O 	0.795	0.5875	0.6586	-0.35
Mof_O 	O 	0.717	0.5734	0.6752	-0.336
Mof_O 	O 	0.7332	0.4303	0.3301	-0.356
Mof_O 	O 	0.6509	0.4024	0.3532	-0.323
Mof_O 	O 	0.8868	0.6709	0.6766	-0.35
Mof_O 	O 	0.8825	0.7395	0.6502	-0.362
Mof_O 	O 	0.0506	0.7243	0.3515	-0.314
Mof_O 	O 	0.0468	0.7952	0.3327	-0.351
Mof_O 	O 	0.8728	0.6635	0.8517	-0.353
Mof_O 	O 	0.8945	0.7443	0.8249	-0.329
Mof_O 	O 	0.0542	0.8051	0.1556	-0.339
Mof_O 	O 	0.0357	0.7275	0.1719	-0.361
Mof_O 	O 	0.7831	0.5756	0.831	-0.357
Mof_O 	O 	0.7186	0.5891	0.8539	-0.325
Mof_O 	O 	0.7333	0.4187	0.1516	-0.353
Mof_O 	O 	0.6624	0.4185	0.174	-0.333
Mof_C 	C 	0.7034	0.4321	0.1383	0.477
Mof_C 	C 	0.7472	0.5651	0.6423	0.455
Mof_C 	C 	0.73435	0.53035	0.5707	-0.133
Mof_C 	C 	0.73527	0.48577	0.5782	0.174
Mof_C 	C 	0.72338	0.45398	0.5118	0.165
Mof_C 	C 	0.7106	0.4664	0.438	-0.114
Mof_C 	C 	0.7098	0.511	0.4308	0.168
Mof_C 	C 	0.7215	0.543	0.4971	0.174
Mof_C 	C 	0.6985	0.4302	0.3654	0.445
Mof_C 	C 	0.8958	0.7102	0.6354	0.473
Mof_C 	C 	0.9328	0.72155	0.5651	-0.126
Mof_C 	C 	0.9157	0.69672	0.4915	0.17
Mof_C 	C 	0.9487	0.7066	0.4277	0.17
Mof_C 	C 	0.9992	0.7416	0.4368	-0.127
Mof_C 	C 	0.0165	0.7664	0.5106	0.173
Mof_C 	C 	0.9835	0.7565	0.575	0.168
Mof_C 	C 	0.0358	0.7552	0.3676	0.443
Mof_C 	C 	0.8952	0.7093	0.8655	0.441
Mof_C 	C 	0.9321	0.724	0.9361	-0.118
Mof_C 	C 	0.9765	0.7229	0.9285	0.168
Mof_C 	C 	0.0084	0.7345	0.9948	0.176
Mof_C 	C 	0.9959	0.7473	0.0689	-0.147
Mof_C 	C 	0.9514	0.7483	0.0764	0.181
Mof_C 	C 	0.9195	0.7366	0.0096	0.165
Mof_C 	C 	0.032	0.7588	0.1371	0.491
Mof_C 	C 	0.7445	0.5693	0.8685	0.445
Mof_C 	C 	0.7323	0.5338	0.9418	-0.116
Mof_C 	C 	0.75653	0.55058	0.016	0.167
Mof_C 	C 	0.7464	0.51707	0.0794	0.174
Mof_C 	C 	0.7119	0.4664	0.0688	-0.144
Mof_C 	C 	0.6875	0.4494	0.9946	0.18
Mof_C 	C 	0.6976	0.4832	0.9313	0.161
Mof_Fe	Fe	0.37191	0.20232	0.75417	1.08
Mof_Fe	Fe	0.36622	0.09189	0.75249	0.923
Mof_Fe	Fe	0.26247	0.10145	0.74673	0.998
Mof_Fe	Fe	0.6195	0.35675	0.25354	0.977
Mof_Cl	Cl	0.52887	0.27958	0.67053	-0.197
Mof_Cl	Cl	0.60069	0.32576	0.52104	-0.193
Mof_Cl	Cl	0.47575	0.16901	0.33886	-0.197
Mof_Cl	Cl	0.40172	0.1225	0.48653	-0.197
Mof_Cl	Cl	0.34651	0.19984	0.48153	-0.2
Mof_Cl	Cl	0.32323	0.25217	0.33552	-0.198
Mof_Cl	Cl	0.19137	0.26952	0.523	-0.197
Mof_Cl	Cl	0.21289	0.21623	0.66707	-0.19
Mof_Cl	Cl	0.29291	0.28409	0.83684	-0.194
Mof_Cl	Cl	0.26719	0.33042	0.98455	-0.197
Mof_Cl	Cl	0.23563	0.17231	0.16877	-0.192
Mof_Cl	Cl	0.26184	0.12639	0.01972	-0.196
Mof_Cl	Cl	0.38725	0.18611	0.02776	-0.194
Mof_Cl	Cl	0.4626	0.23864	0.17125	-0.2
Mof_Cl	Cl	0.61334	0.25827	0.98277	-0.197
Mof_Cl	Cl	0.53678	0.205	0.83902	-0.198
Mof_O 	O 	0.3343	0.1361	0.753	-0.555
Mof_O 	O 	0.4125	0.2075	0.6586	-0.35
Mof_O 	O 	0.4266	0.1436	0.6752	-0.336
Mof_O 	O 	0.5697	0.3029	0.3301	-0.356
Mof_O 	O 	0.5976	0.2485	0.3532	-0.323
Mof_O 	O 	0.3291	0.2159	0.6766	-0.35
Mof_O 	O 	0.2605	0.143	0.6502	-0.362
Mof_O 	O 	0.2757	0.3263	0.3515	-0.314
Mof_O 	O 	0.2048	0.2516	0.3327	-0.351
Mof_O 	O 	0.3365	0.2093	0.8517	-0.353
Mof_O 	O 	0.2557	0.1502	0.8249	-0.329
Mof_O 	O 	0.1949	0.2491	0.1556	-0.339
Mof_O 	O 	0.2725	0.3082	0.1719	-0.361
Mof_O 	O 	0.4244	0.2075	0.831	-0.357
Mof_O 	O 	0.4109	0.1295	0.8539	-0.325
Mof_O 	O 	0.5813	0.3146	0.1516	-0.353
Mof_O 	O 	0.5815	0.2439	0.174	-0.333
Mof_C 	C 	0.5679	0.2713	0.1383	0.477
Mof_C 	C 	0.4349	0.1821	0.6423	0.455
Mof_C 	C 	0.46965	0.204	0.5707	-0.133
Mof_C 	C 	0.51423	0.2495	0.5782	0.174
Mof_C 	C 	0.54602	0.2694	0.5118	0.165
Mof_C 	C 	0.5336	0.2442	0.438	-0.114
Mof_C 	C 	0.489	0.1988	0.4308	0.168
Mof_C 	C 	0.457	0.1785	0.4971	0.174
Mof_C 	C 	0.5698	0.2683	0.3654	0.445
Mof_C 	C 	0.2898	0.1856	0.6354	0.473
Mof_C 	C 	0.27845	0.21125	0.5651	-0.126
Mof_C 	C 	0.30328	0.21898	0.4915	0.17
Mof_C 	C 	0.2934	0.2421	0.4277	0.17
Mof_C 	C 	0.2584	0.2576	0.4368	-0.127
Mof_C 	C 	0.2336	0.2501	0.5106	0.173
Mof_C 	C 	0.2435	0.227	0.575	0.168
Mof_C 	C 	0.2448	0.2806	0.3676	0.443
Mof_C 	C 	0.2907	0.1859	0.8655	0.441
Mof_C 	C 	0.276	0.2081	0.9361	-0.118
Mof_C 	C 	0.2771	0.2536	0.9285	0.169
Mof_C 	C 	0.2655	0.2739	0.9948	0.175
Mof_C 	C 	0.2527	0.2486	0.0689	-0.147
Mof_C 	C 	0.2517	0.2031	0.0764	0.181
Mof_C 	C 	0.2634	0.1829	0.0096	0.165
Mof_C 	C 	0.2412	0.2732	0.1371	0.491
Mof_C 	C 	0.4307	0.1752	0.8685	0.445
Mof_C 	C 	0.4662	0.1985	0.9418	-0.116
Mof_C 	C 	0.44942	0.20595	0.016	0.167
Mof_C 	C 	0.48293	0.22933	0.0794	0.174
Mof_C 	C 	0.5336	0.2455	0.0688	-0.144
Mof_C 	C 	0.5506	0.2381	0.9946	0.18
Mof_C 	C 	0.5168	0.2144	0.9313	0.161
Mof_Fe	Fe	0.20232	0.83041	0.24583	1.08
Mof_Fe	Fe	0.09189	0.72567	0.24751	0.923
Mof_Fe	Fe	0.10145	0.83898	0.25327	0.998
Mof_Fe	Fe	0.35675	0.73725	0.74646	0.977
Mof_Cl	Cl	0.27958	0.75071	0.32947	-0.197
Mof_Cl	Cl	0.32576	0.72507	0.47896	-0.193
Mof_Cl	Cl	0.16901	0.69326	0.66114	-0.197
Mof_Cl	Cl	0.1225	0.72078	0.51347	-0.197
Mof_Cl	Cl	0.19984	0.85333	0.51847	-0.2
Mof_Cl	Cl	0.25217	0.92894	0.66448	-0.198
Mof_Cl	Cl	0.26952	0.07815	0.477	-0.197
Mof_Cl	Cl	0.21623	0.00334	0.33293	-0.19
Mof_Cl	Cl	0.28409	0.99118	0.16316	-0.194
Mof_Cl	Cl	0.33042	0.06323	0.01545	-0.197
Mof_Cl	Cl	0.17231	0.93668	0.83123	-0.192
Mof_Cl	Cl	0.12639	0.86455	0.98028	-0.196
Mof_Cl	Cl	0.18611	0.79886	0.97224	-0.194
Mof_Cl	Cl	0.23864	0.77604	0.82875	-0.2
Mof_Cl	Cl	0.25827	0.64493	0.01723	-0.197
Mof_Cl	Cl	0.205	0.66822	0.16098	-0.198
Mof_O 	O 	0.1361	0.8018	0.247	-0.555
Mof_O 	O 	0.2075	0.795	0.3414	-0.35
Mof_O 	O 	0.1436	0.717	0.3248	-0.336
Mof_O 	O 	0.3029	0.7332	0.6699	-0.356
Mof_O 	O 	0.2485	0.6509	0.6468	-0.323
Mof_O 	O 	0.2159	0.8868	0.3234	-0.35
Mof_O 	O 	0.143	0.8825	0.3498	-0.362
Mof_O 	O 	0.3263	0.0506	0.6485	-0.314
Mof_O 	O 	0.2516	0.0468	0.6673	-0.351
Mof_O 	O 	0.2093	0.8728	0.1483	-0.354
Mof_O 	O 	0.1502	0.8945	0.1751	-0.329
Mof_O 	O 	0.2491	0.0542	0.8444	-0.339
Mof_O 	O 	0.3082	0.0357	0.8281	-0.361
Mof_O 	O 	0.2075	0.7831	0.169	-0.357
Mof_O 	O 	0.1295	0.7186	0.1461	-0.325
Mof_O 	O 	0.3146	0.7333	0.8484	-0.353
Mof_O 	O 	0.2439	0.6624	0.826	-0.333
Mof_C 	C 	0.2713	0.7034	0.8617	0.477
Mof_C 	C 	0.1821	0.7472	0.3577	0.455
Mof_C 	C 	0.204	0.73435	0.4293	-0.133
Mof_C 	C 	0.2495	0.73527	0.4218	0.174
Mof_C 	C 	0.2694	0.72338	0.4882	0.165
Mof_C 	C 	0.2442	0.7106	0.562	-0.114
Mof_C 	C 	0.1988	0.7098	0.5692	0.168
Mof_C 	C 	0.1785	0.7215	0.5029	0.174
Mof_C 	C 	0.2683	0.6985	0.6346	0.445
Mof_C 	C 	0.1856	0.8958	0.3646	0.473
Mof_C 	C 	0.21125	0.9328	0.4349	-0.126
Mof_C 	C 	0.21898	0.9157	0.5085	0.17
Mof_C 	C 	0.2421	0.9487	0.5723	0.17
Mof_C 	C 	0.2576	0.9992	0.5632	-0.127
Mof_C 	C 	0.2501	0.0165	0.4894	0.173
Mof_C 	C 	0.227	0.9835	0.425	0.168
Mof_C 	C 	0.2806	0.0358	0.6324	0.443
Mof_C 	C 	0.1859	0.8952	0.1345	0.441
Mof_C 	C 	0.2081	0.9321	0.0639	-0.119
Mof_C 	C 	0.2536	0.9765	0.0715	0.168
Mof_C 	C 	0.2739	0.0084	0.0052	0.175
Mof_C 	C 	0.2486	0.9959	0.9311	-0.147
Mof_C 	C 	0.2031	0.9514	0.9236	0.181
Mof_C 	C 	0.1829	0.9195	0.9904	0.166
Mof_C 	C 	0.2732	0.032	0.8629	0.49
Mof_C 	C 	0.1752	0.7445	0.1315	0.445
Mof_C 	C 	0.1985	0.7323	0.0582	-0.116
Mof_C 	C 	0.20595	0.75653	0.984	0.168
Mof_C 	C 	0.22933	0.7464	0.9206	0.174
Mof_C 	C 	0.2455	0.7119	0.9312	-0.143
Mof_C 	C 	0.2381	0.6875	0.0054	0.18
Mof_C 	C 	0.2144	0.6976	0.0687	0.162
Mof_Fe	Fe	0.16959	0.37191	0.24583	1.08
Mof_Fe	Fe	0.27433	0.36622	0.24751	0.923
Mof_Fe	Fe	0.16102	0.26247	0.25327	0.998
Mof_Fe	Fe	0.26275	0.6195	0.74646	0.977
Mof_Cl	Cl	0.24929	0.52887	0.32947	-0.197
Mof_Cl	Cl	0.27493	0.60069	0.47896	-0.193
Mof_Cl	Cl	0.30674	0.47575	0.66114	-0.197
Mof_Cl	Cl	0.27922	0.40172	0.51347	-0.197
Mof_Cl	Cl	0.14667	0.34651	0.51847	-0.2
Mof_Cl	Cl	0.07106	0.32323	0.66448	-0.198
Mof_Cl	Cl	0.92185	0.19137	0.477	-0.197
Mof_Cl	Cl	0.99666	0.21289	0.33293	-0.19
Mof_Cl	Cl	0.00882	0.29291	0.16316	-0.194
Mof_Cl	Cl	0.93677	0.26719	0.01545	-0.197
Mof_Cl	Cl	0.06332	0.23563	0.83123	-0.192
Mof_Cl	Cl	0.13545	0.26184	0.98028	-0.196
Mof_Cl	Cl	0.20114	0.38725	0.97224	-0.194
Mof_Cl	Cl	0.22396	0.4626	0.82875	-0.2
Mof_Cl	Cl	0.35507	0.61334	0.01723	-0.197
Mof_Cl	Cl	0.33178	0.53678	0.16098	-0.198
Mof_O 	O 	0.1982	0.3343	0.247	-0.555
Mof_O 	O 	0.205	0.4125	0.3414	-0.35
Mof_O 	O 	0.283	0.4266	0.3248	-0.336
Mof_O 	O 	0.2668	0.5697	0.6699	-0.356
Mof_O 	O 	0.3491	0.5976	0.6468	-0.323
Mof_O 	O 	0.1132	0.3291	0.3234	-0.35
Mof_O 	O 	0.1175	0.2605	0.3498	-0.362
Mof_O 	O 	0.9494	0.2757	0.6485	-0.314
Mof_O 	O 	0.9532	0.2048	0.6673	-0.351
Mof_O 	O 	0.1272	0.3365	0.1483	-0.353
Mof_O 	O 	0.1055	0.2557	0.1751	-0.329
Mof_O 	O 	0.9458	0.1949	0.8444	-0.339
Mof_O 	O 	0.9643	0.2725	0.8281	-0.361
Mof_O 	O 	0.2169	0.4244	0.169	-0.357
Mof_O 	O 	0.2814	0.4109	0.1461	-0.325
Mof_O 	O 	0.2667	0.5813	0.8484	-0.353
Mof_O 	O 	0.3376	0.5815	0.826	-0.333
Mof_C 	C 	0.2966	0.5679	0.8617	0.477
Mof_C 	C 	0.2528	0.4349	0.3577	0.455
Mof_C 	C 	0.26565	0.46965	0.4293	-0.133
Mof_C 	C 	0.26473	0.51423	0.4218	0.174
Mof_C 	C 	0.27662	0.54602	0.4882	0.165
Mof_C 	C 	0.2894	0.5336	0.562	-0.114
Mof_C 	C 	0.2902	0.489	0.5692	0.168
Mof_C 	C 	0.2785	0.457	0.5029	0.174
Mof_C 	C 	0.3015	0.5698	0.6346	0.445
Mof_C 	C 	0.1042	0.2898	0.3646	0.473
Mof_C 	C 	0.0672	0.27845	0.4349	-0.126
Mof_C 	C 	0.0843	0.30328	0.5085	0.17
Mof_C 	C 	0.0513	0.2934	0.5723	0.17
Mof_C 	C 	0.0008	0.2584	0.5632	-0.127
Mof_C 	C 	0.9835	0.2336	0.4894	0.173
Mof_C 	C 	0.0165	0.2435	0.425	0.168
Mof_C 	C 	0.9642	0.2448	0.6324	0.443
Mof_C 	C 	0.1048	0.2907	0.1345	0.441
Mof_C 	C 	0.0679	0.276	0.0639	-0.118
Mof_C 	C 	0.0235	0.2771	0.0715	0.168
Mof_C 	C 	0.9916	0.2655	0.0052	0.176
Mof_C 	C 	0.0041	0.2527	0.9311	-0.147
Mof_C 	C 	0.0486	0.2517	0.9236	0.181
Mof_C 	C 	0.0805	0.2634	0.9904	0.165
Mof_C 	C 	0.968	0.2412	0.8629	0.491
Mof_C 	C 	0.2555	0.4307	0.1315	0.445
Mof_C 	C 	0.2677	0.4662	0.0582	-0.116
Mof_C 	C 	0.24347	0.44942	0.984	0.167
Mof_C 	C 	0.2536	0.48293	0.9206	0.174
Mof_C 	C 	0.2881	0.5336	0.9312	-0.144
Mof_C 	C 	0.3125	0.5506	0.0054	0.18
Mof_C 	C 	0.3024	0.5168	0.0687	0.161
Mof_Fe	Fe	0.62809	0.79768	0.24583	1.08
Mof_Fe	Fe	0.63378	0.90811	0.24751	0.923
Mof_Fe	Fe	0.73753	0.89855	0.25327	0.998
Mof_Fe	Fe	0.3805	0.64325	0.74646	0.977
Mof_Cl	Cl	0.47113	0.72042	0.32947	-0.197
Mof_Cl	Cl	0.39931	0.67424	0.47896	-0.193
Mof_Cl	Cl	0.52425	0.83099	0.66114	-0.197
Mof_Cl	Cl	0.59828	0.8775	0.51347	-0.197
Mof_Cl	Cl	0.65349	0.80016	0.51847	-0.2
Mof_Cl	Cl	0.67677	0.74783	0.66448	-0.198
Mof_Cl	Cl	0.80863	0.73048	0.477	-0.197
Mof_Cl	Cl	0.78711	0.78377	0.33293	-0.19
Mof_Cl	Cl	0.70709	0.71591	0.16316	-0.194
Mof_Cl	Cl	0.73281	0.66958	0.01545	-0.197
Mof_Cl	Cl	0.76437	0.82769	0.83123	-0.192
Mof_Cl	Cl	0.73816	0.87361	0.98028	-0.196
Mof_Cl	Cl	0.61275	0.81389	0.97224	-0.194
Mof_Cl	Cl	0.5374	0.76136	0.82875	-0.2
Mof_Cl	Cl	0.38666	0.74173	0.01723	-0.197
Mof_Cl	Cl	0.46322	0.795	0.16098	-0.198
Mof_O 	O 	0.6657	0.8639	0.247	-0.555
Mof_O 	O 	0.5875	0.7925	0.3414	-0.35
Mof_O 	O 	0.5734	0.8564	0.3248	-0.336
Mof_O 	O 	0.4303	0.6971	0.6699	-0.356
Mof_O 	O 	0.4024	0.7515	0.6468	-0.323
Mof_O 	O 	0.6709	0.7841	0.3234	-0.35
Mof_O 	O 	0.7395	0.857	0.3498	-0.362
Mof_O 	O 	0.7243	0.6737	0.6485	-0.314
Mof_O 	O 	0.7952	0.7484	0.6673	-0.351
Mof_O 	O 	0.6635	0.7907	0.1483	-0.353
Mof_O 	O 	0.7443	0.8498	0.1751	-0.329
Mof_O 	O 	0.8051	0.7509	0.8444	-0.339
Mof_O 	O 	0.7275	0.6918	0.8281	-0.361
Mof_O 	O 	0.5756	0.7925	0.169	-0.357
Mof_O 	O 	0.5891	0.8705	0.1461	-0.325
Mof_O 	O 	0.4187	0.6854	0.8484	-0.353
Mof_O 	O 	0.4185	0.7561	0.826	-0.333
Mof_C 	C 	0.4321	0.7287	0.8617	0.477
Mof_C 	C 	0.5651	0.8179	0.3577	0.455
Mof_C 	C 	0.53035	0.796	0.4293	-0.133
Mof_C 	C 	0.48577	0.7505	0.4218	0.174
Mof_C 	C 	0.45398	0.7306	0.4882	0.165
Mof_C 	C 	0.4664	0.7558	0.562	-0.114
Mof_C 	C 	0.511	0.8012	0.5692	0.168
Mof_C 	C 	0.543	0.8215	0.5029	0.174
Mof_C 	C 	0.4302	0.7317	0.6346	0.445
Mof_C 	C 	0.7102	0.8144	0.3646	0.473
Mof_C 	C 	0.72155	0.78875	0.4349	-0.126
Mof_C 	C 	0.69672	0.78102	0.5085	0.17
Mof_C 	C 	0.7066	0.7579	0.5723	0.17
Mof_C 	C 	0.7416	0.7424	0.5632	-0.127
Mof_C 	C 	0.7664	0.7499	0.4894	0.173
Mof_C 	C 	0.7565	0.773	0.425	0.168
Mof_C 	C 	0.7552	0.7194	0.6324	0.443
Mof_C 	C 	0.7093	0.8141	0.1345	0.441
Mof_C 	C 	0.724	0.7919	0.0639	-0.118
Mof_C 	C 	0.7229	0.7464	0.0715	0.169
Mof_C 	C 	0.7345	0.7261	0.0052	0.175
Mof_C 	C 	0.7473	0.7514	0.9311	-0.147
Mof_C 	C 	0.7483	0.7969	0.9236	0.181
Mof_C 	C 	0.7366	0.8171	0.9904	0.165
Mof_C 	C 	0.7588	0.7268	0.8629	0.491
Mof_C 	C 	0.5693	0.8248	0.1315	0.445
Mof_C 	C 	0.5338	0.8015	0.0582	-0.116
Mof_C 	C 	0.55058	0.79405	0.984	0.167
Mof_C 	C 	0.51707	0.77067	0.9206	0.174
Mof_C 	C 	0.4664	0.7545	0.9312	-0.144
Mof_C 	C 	0.4494	0.7619	0.0054	0.18
Mof_C 	C 	0.4832	0.7856	0.0687	0.161
Mof_O 	O 	0.66667	0.33333	0.253	-0.53
Mof_O 	O 	0.33333	0.66667	0.747	-0.53
_end
