data_functionalizedCrystal
_audit_creation_method	'EQeq! by Chris Wilmer'
_symmetry_space_group_name_H-M	'P1'
_symmetry_Int_Tables_number	1
_symmetry_cell_setting	triclinic
loop_
_symmetry_equiv_pos_as_xyz
  x,y,z
_cell_length_a	6.88
_cell_length_b	14.36
_cell_length_c	15.8
_cell_angle_alpha	90
_cell_angle_beta	101.69
_cell_angle_gamma	90
loop_
_atom_site_label
_atom_site_type_symbol
_atom_site_fract_x
_atom_site_fract_y
_atom_site_fract_z
_atom_site_charge
Mof_Sr	Sr	0.76629	0.91528	0.54858	1.475
Mof_Sr	Sr	0.23371	0.41528	0.95142	1.48
Mof_Sr	Sr	0.23371	0.08472	0.45142	1.475
Mof_Sr	Sr	0.76629	0.58472	0.04858	1.48
Mof_Co	Co	0.77507	0.7373	0.79696	1.151
Mof_Co	Co	0.22493	0.2373	0.70304	1.151
Mof_Co	Co	0.22493	0.2627	0.20304	1.151
Mof_Co	Co	0.77507	0.7627	0.29696	1.151
Mof_H 	H 	0.1645	0.9368	0.8474	0.238
Mof_H 	H 	0.2923	0.8841	0.7925	0.243
Mof_H 	H 	0.3098	0.541	0.7666	0.238
Mof_H 	H 	0.5105	0.538	0.7352	0.219
Mof_H 	H 	0.8355	0.4368	0.6526	0.237
Mof_H 	H 	0.7077	0.3841	0.7075	0.242
Mof_H 	H 	0.6902	0.041	0.7334	0.238
Mof_H 	H 	0.4895	0.038	0.7648	0.218
Mof_H 	H 	0.8355	0.0632	0.1526	0.238
Mof_H 	H 	0.7077	0.1159	0.2075	0.243
Mof_H 	H 	0.6902	0.459	0.2334	0.238
Mof_H 	H 	0.4895	0.462	0.2648	0.219
Mof_H 	H 	0.1645	0.5632	0.3474	0.237
Mof_H 	H 	0.2923	0.6159	0.2925	0.242
Mof_H 	H 	0.3098	0.959	0.2666	0.238
Mof_H 	H 	0.5105	0.962	0.2352	0.218
Mof_C 	C 	0.0056	0.8914	0.7346	0.555
Mof_C 	C 	0.169	0.8811	0.8132	-0.751
Mof_C 	C 	0.1909	0.8015	0.8752	0.549
Mof_C 	C 	0.3746	0.6639	0.7151	0.528
Mof_C 	C 	0.4309	0.5754	0.7663	-0.739
Mof_C 	C 	0.5432	0.5835	0.8592	0.584
Mof_C 	C 	0.9944	0.3914	0.7654	0.553
Mof_C 	C 	0.831	0.3811	0.6868	-0.75
Mof_C 	C 	0.8091	0.3015	0.6248	0.548
Mof_C 	C 	0.6254	0.1639	0.7849	0.528
Mof_C 	C 	0.5691	0.0754	0.7337	-0.738
Mof_C 	C 	0.4568	0.0835	0.6408	0.583
Mof_C 	C 	0.9944	0.1086	0.2654	0.555
Mof_C 	C 	0.831	0.1189	0.1868	-0.751
Mof_C 	C 	0.8091	0.1985	0.1248	0.549
Mof_C 	C 	0.6254	0.3361	0.2849	0.528
Mof_C 	C 	0.5691	0.4246	0.2337	-0.739
Mof_C 	C 	0.4568	0.4165	0.1408	0.584
Mof_C 	C 	0.0056	0.6086	0.2346	0.553
Mof_C 	C 	0.169	0.6189	0.3132	-0.75
Mof_C 	C 	0.1909	0.6985	0.3752	0.548
Mof_C 	C 	0.3746	0.8361	0.2151	0.528
Mof_C 	C 	0.4309	0.9246	0.2663	-0.738
Mof_C 	C 	0.5432	0.9165	0.3592	0.583
Mof_O 	O 	0.8862	0.0844	0.5123	-0.353
Mof_O 	O 	0.8632	0.8359	0.717	-0.59
Mof_O 	O 	0.0222	0.9594	0.6872	-0.478
Mof_O 	O 	0.0517	0.7442	0.8746	-0.487
Mof_O 	O 	0.3507	0.7984	0.9279	-0.369
Mof_O 	O 	0.4953	0.7307	0.7216	-0.504
Mof_O 	O 	0.2089	0.6662	0.6659	-0.354
Mof_O 	O 	0.6852	0.6393	0.8791	-0.587
Mof_O 	O 	0.4911	0.5302	0.9127	-0.567
Mof_O 	O 	0.1138	0.5844	0.9877	-0.355
Mof_O 	O 	0.1368	0.3359	0.783	-0.588
Mof_O 	O 	0.9778	0.4594	0.8128	-0.48
Mof_O 	O 	0.9483	0.2442	0.6254	-0.486
Mof_O 	O 	0.6493	0.2984	0.5721	-0.369
Mof_O 	O 	0.5047	0.2307	0.7784	-0.504
Mof_O 	O 	0.7911	0.1662	0.8341	-0.354
Mof_O 	O 	0.3148	0.1393	0.6209	-0.588
Mof_O 	O 	0.5089	0.0302	0.5873	-0.567
Mof_O 	O 	0.1138	0.9156	0.4877	-0.353
Mof_O 	O 	0.1368	0.1641	0.283	-0.59
Mof_O 	O 	0.9778	0.0406	0.3128	-0.478
Mof_O 	O 	0.9483	0.2558	0.1254	-0.487
Mof_O 	O 	0.6493	0.2016	0.0721	-0.369
Mof_O 	O 	0.5047	0.2693	0.2784	-0.504
Mof_O 	O 	0.7911	0.3338	0.3341	-0.354
Mof_O 	O 	0.3148	0.3607	0.1209	-0.587
Mof_O 	O 	0.5089	0.4698	0.0873	-0.567
Mof_O 	O 	0.8862	0.4156	0.0123	-0.355
Mof_O 	O 	0.8632	0.6641	0.217	-0.588
Mof_O 	O 	0.0222	0.5406	0.1872	-0.48
Mof_O 	O 	0.0517	0.7558	0.3746	-0.486
Mof_O 	O 	0.3507	0.7016	0.4279	-0.369
Mof_O 	O 	0.4953	0.7693	0.2216	-0.504
Mof_O 	O 	0.2089	0.8338	0.1659	-0.354
Mof_O 	O 	0.6852	0.8607	0.3791	-0.588
Mof_O 	O 	0.4911	0.9698	0.4127	-0.567
_end
