data_functionalizedCrystal
_audit_creation_method	'EQeq! by Chris Wilmer'
_symmetry_space_group_name_H-M	'P1'
_symmetry_Int_Tables_number	1
_symmetry_cell_setting	triclinic
loop_
_symmetry_equiv_pos_as_xyz
  x,y,z
_cell_length_a	9.271
_cell_length_b	19.781
_cell_length_c	27.045
_cell_angle_alpha	90
_cell_angle_beta	90
_cell_angle_gamma	90
loop_
_atom_site_label
_atom_site_type_symbol
_atom_site_fract_x
_atom_site_fract_y
_atom_site_fract_z
_atom_site_charge
Mof_P 	P 	0.0227	0.25325	0.59284	0.389
Mof_P 	P 	0.3443	0.10703	0.47842	0.54
Mof_O 	O 	0.1039	0.2113	0.55483	-0.386
Mof_O 	O 	0.3183	0.1811	0.46694	-0.412
Mof_O 	O 	0.9024	0.2118	0.61622	-0.318
Mof_O 	O 	0.4576	0.08	0.4444	-0.428
Mof_O 	O 	0.9553	0.3165	0.5686	-0.13
Mof_O 	O 	0.1301	0.2771	0.6335	-0.354
Mof_H 	H 	0.087	0.3	0.654	0.171
Mof_O 	O 	0.3785	0.096	0.5337	-0.217
Mof_O 	O 	0.1982	0.0656	0.4716	-0.432
Mof_H 	H 	0.1701	0.0692	0.443	0.217
Mof_P 	P 	0.0227	0.75325	0.09284	0.393
Mof_P 	P 	0.3443	0.60703	0.97842	0.557
Mof_O 	O 	0.1039	0.7113	0.05483	-0.384
Mof_O 	O 	0.3183	0.6811	0.96694	-0.401
Mof_O 	O 	0.9024	0.7118	0.11622	-0.312
Mof_O 	O 	0.4576	0.58	0.9444	-0.405
Mof_O 	O 	0.9553	0.8165	0.0686	-0.127
Mof_O 	O 	0.1301	0.7771	0.1335	-0.35
Mof_H 	H 	0.087	0.8	0.154	0.174
Mof_O 	O 	0.3785	0.596	0.0337	-0.209
Mof_O 	O 	0.1982	0.5656	0.9716	-0.396
Mof_H 	H 	0.1701	0.5692	0.943	0.216
Mof_P 	P 	0.5227	0.25325	0.09284	0.52
Mof_P 	P 	0.8443	0.10703	0.97842	0.556
Mof_O 	O 	0.6039	0.2113	0.05483	-0.385
Mof_O 	O 	0.8183	0.1811	0.96694	-0.387
Mof_O 	O 	0.4024	0.2118	0.11622	-0.401
Mof_O 	O 	0.9576	0.08	0.9444	-0.381
Mof_O 	O 	0.4553	0.3165	0.0686	-0.234
Mof_O 	O 	0.6301	0.2771	0.1335	-0.367
Mof_H 	H 	0.587	0.3	0.154	0.205
Mof_O 	O 	0.8785	0.096	0.0337	-0.193
Mof_O 	O 	0.6982	0.0656	0.9716	-0.401
Mof_H 	H 	0.6701	0.0692	0.943	0.221
Mof_P 	P 	0.5227	0.75325	0.59284	0.52
Mof_P 	P 	0.8443	0.60703	0.47842	0.541
Mof_O 	O 	0.6039	0.7113	0.55483	-0.37
Mof_O 	O 	0.8183	0.6811	0.46694	-0.391
Mof_O 	O 	0.4024	0.7118	0.61622	-0.389
Mof_O 	O 	0.9576	0.58	0.4444	-0.362
Mof_O 	O 	0.4553	0.8165	0.5686	-0.218
Mof_O 	O 	0.6301	0.7771	0.6335	-0.361
Mof_H 	H 	0.587	0.8	0.654	0.207
Mof_O 	O 	0.8785	0.596	0.5337	-0.154
Mof_O 	O 	0.6982	0.5656	0.4716	-0.38
Mof_H 	H 	0.6701	0.5692	0.443	0.223
Mof_P 	P 	0.9773	0.74675	0.59284	0.647
Mof_P 	P 	0.6557	0.89297	0.47842	0.541
Mof_O 	O 	0.8961	0.7887	0.55483	-0.355
Mof_O 	O 	0.6817	0.8189	0.46694	-0.4
Mof_O 	O 	0.0976	0.7882	0.61622	-0.451
Mof_O 	O 	0.5424	0.92	0.4444	-0.38
Mof_O 	O 	0.0447	0.6835	0.5686	-0.312
Mof_O 	O 	0.8699	0.7229	0.6335	-0.385
Mof_H 	H 	0.913	0.7	0.654	0.237
Mof_O 	O 	0.6215	0.904	0.5337	-0.157
Mof_O 	O 	0.8018	0.9344	0.4716	-0.339
Mof_H 	H 	0.8299	0.9308	0.443	0.233
Mof_P 	P 	0.9773	0.24675	0.09284	0.65
Mof_P 	P 	0.6557	0.39297	0.97842	0.558
Mof_O 	O 	0.8961	0.2887	0.05483	-0.37
Mof_O 	O 	0.6817	0.3189	0.96694	-0.396
Mof_O 	O 	0.0976	0.2882	0.11622	-0.465
Mof_O 	O 	0.5424	0.42	0.9444	-0.413
Mof_O 	O 	0.0447	0.1835	0.0686	-0.328
Mof_O 	O 	0.8699	0.2229	0.1335	-0.392
Mof_H 	H 	0.913	0.2	0.154	0.236
Mof_O 	O 	0.6215	0.404	0.0337	-0.199
Mof_O 	O 	0.8018	0.4344	0.9716	-0.363
Mof_H 	H 	0.8299	0.4308	0.943	0.232
Mof_P 	P 	0.4773	0.74675	0.09284	0.52
Mof_P 	P 	0.1557	0.89297	0.97842	0.556
Mof_O 	O 	0.3961	0.7887	0.05483	-0.369
Mof_O 	O 	0.1817	0.8189	0.96694	-0.41
Mof_O 	O 	0.5976	0.7882	0.11622	-0.375
Mof_O 	O 	0.0424	0.92	0.9444	-0.41
Mof_O 	O 	0.5447	0.6835	0.0686	-0.22
Mof_O 	O 	0.3699	0.7229	0.1335	-0.374
Mof_H 	H 	0.413	0.7	0.154	0.204
Mof_O 	O 	0.1215	0.904	0.0337	-0.21
Mof_O 	O 	0.3018	0.9344	0.9716	-0.352
Mof_H 	H 	0.3299	0.9308	0.943	0.226
Mof_P 	P 	0.4773	0.24675	0.59284	0.52
Mof_P 	P 	0.1557	0.39297	0.47842	0.541
Mof_O 	O 	0.3961	0.2887	0.55483	-0.37
Mof_O 	O 	0.1817	0.3189	0.46694	-0.421
Mof_O 	O 	0.5976	0.2882	0.61622	-0.383
Mof_O 	O 	0.0424	0.42	0.4444	-0.449
Mof_O 	O 	0.5447	0.1835	0.5686	-0.225
Mof_O 	O 	0.3699	0.2229	0.6335	-0.379
Mof_H 	H 	0.413	0.2	0.654	0.202
Mof_O 	O 	0.1215	0.404	0.5337	-0.221
Mof_O 	O 	0.3018	0.4344	0.4716	-0.391
Mof_H 	H 	0.3299	0.4308	0.443	0.227
Mof_P 	P 	0.2727	0.99675	0.84284	0.67
Mof_P 	P 	0.5943	0.14297	0.72842	0.543
Mof_O 	O 	0.3539	0.0387	0.80483	-0.466
Mof_O 	O 	0.5683	0.0689	0.71694	-0.435
Mof_O 	O 	0.1524	0.0382	0.86622	-0.506
Mof_O 	O 	0.7076	0.17	0.6944	-0.409
Mof_O 	O 	0.2053	0.9335	0.8186	-0.234
Mof_O 	O 	0.3801	0.9729	0.8835	-0.346
Mof_H 	H 	0.337	0.95	0.904	0.209
Mof_O 	O 	0.6285	0.154	0.7837	-0.189
Mof_O 	O 	0.4482	0.1844	0.7216	-0.395
Mof_H 	H 	0.4201	0.1808	0.693	0.22
Mof_P 	P 	0.2727	0.49675	0.34284	0.521
Mof_P 	P 	0.5943	0.64297	0.22842	0.542
Mof_O 	O 	0.3539	0.5387	0.30483	-0.38
Mof_O 	O 	0.5683	0.5689	0.21694	-0.404
Mof_O 	O 	0.1524	0.5382	0.36622	-0.417
Mof_O 	O 	0.7076	0.67	0.1944	-0.4
Mof_O 	O 	0.2053	0.4335	0.3186	-0.242
Mof_O 	O 	0.3801	0.4729	0.3835	-0.37
Mof_H 	H 	0.337	0.45	0.404	0.203
Mof_O 	O 	0.6285	0.654	0.2837	-0.183
Mof_O 	O 	0.4482	0.6844	0.2216	-0.39
Mof_H 	H 	0.4201	0.6808	0.193	0.223
Mof_P 	P 	0.7727	0.99675	0.34284	0.665
Mof_P 	P 	0.0943	0.14297	0.22842	0.484
Mof_O 	O 	0.8539	0.0387	0.30483	-0.415
Mof_O 	O 	0.0683	0.0689	0.21694	-0.464
Mof_O 	O 	0.6524	0.0382	0.36622	-0.466
Mof_O 	O 	0.2076	0.17	0.1944	-0.426
Mof_O 	O 	0.7053	0.9335	0.3186	-0.211
Mof_O 	O 	0.8801	0.9729	0.3835	-0.308
Mof_H 	H 	0.837	0.95	0.404	0.202
Mof_O 	O 	0.1285	0.154	0.2837	-0.21
Mof_O 	O 	0.9482	0.1844	0.2216	-0.31
Mof_H 	H 	0.9201	0.1808	0.193	0.207
Mof_P 	P 	0.7727	0.49675	0.84284	0.519
Mof_P 	P 	0.0943	0.64297	0.72842	0.484
Mof_O 	O 	0.8539	0.5387	0.80483	-0.33
Mof_O 	O 	0.0683	0.5689	0.71694	-0.432
Mof_O 	O 	0.6524	0.5382	0.86622	-0.376
Mof_O 	O 	0.2076	0.67	0.6944	-0.416
Mof_O 	O 	0.7053	0.4335	0.8186	-0.218
Mof_O 	O 	0.8801	0.4729	0.8835	-0.328
Mof_H 	H 	0.837	0.45	0.904	0.198
Mof_O 	O 	0.1285	0.654	0.7837	-0.202
Mof_O 	O 	0.9482	0.6844	0.7216	-0.305
Mof_H 	H 	0.9201	0.6808	0.693	0.211
Mof_P 	P 	0.2273	0.50325	0.84284	0.521
Mof_P 	P 	0.9057	0.35703	0.72842	0.6
Mof_O 	O 	0.1461	0.4613	0.80483	-0.4
Mof_O 	O 	0.9317	0.4311	0.71694	-0.368
Mof_O 	O 	0.3476	0.4618	0.86622	-0.393
Mof_O 	O 	0.7924	0.33	0.6944	-0.407
Mof_O 	O 	0.2947	0.5665	0.8186	-0.224
Mof_O 	O 	0.1199	0.5271	0.8835	-0.408
Mof_H 	H 	0.163	0.55	0.904	0.212
Mof_O 	O 	0.8715	0.346	0.7837	-0.169
Mof_O 	O 	0.0518	0.3156	0.7216	-0.466
Mof_H 	H 	0.0799	0.3192	0.693	0.239
Mof_P 	P 	0.2273	0.00325	0.34284	0.372
Mof_P 	P 	0.9057	0.85703	0.22842	0.597
Mof_O 	O 	0.1461	0.9613	0.30483	-0.299
Mof_O 	O 	0.9317	0.9311	0.21694	-0.325
Mof_O 	O 	0.3476	0.9618	0.36622	-0.29
Mof_O 	O 	0.7924	0.83	0.1944	-0.397
Mof_O 	O 	0.2947	0.0665	0.3186	-0.227
Mof_O 	O 	0.1199	0.0271	0.3835	-0.429
Mof_H 	H 	0.163	0.05	0.404	0.206
Mof_O 	O 	0.8715	0.846	0.2837	-0.162
Mof_O 	O 	0.0518	0.8156	0.2216	-0.458
Mof_H 	H 	0.0799	0.8192	0.193	0.242
Mof_P 	P 	0.7273	0.50325	0.34284	0.519
Mof_P 	P 	0.4057	0.35703	0.22842	0.542
Mof_O 	O 	0.6461	0.4613	0.30483	-0.361
Mof_O 	O 	0.4317	0.4311	0.21694	-0.41
Mof_O 	O 	0.8476	0.4618	0.36622	-0.344
Mof_O 	O 	0.2924	0.33	0.1944	-0.424
Mof_O 	O 	0.7947	0.5665	0.3186	-0.2
Mof_O 	O 	0.6199	0.5271	0.3835	-0.369
Mof_H 	H 	0.663	0.55	0.404	0.207
Mof_O 	O 	0.3715	0.346	0.2837	-0.192
Mof_O 	O 	0.5518	0.3156	0.2216	-0.382
Mof_H 	H 	0.5799	0.3192	0.193	0.227
Mof_P 	P 	0.7273	0.00325	0.84284	0.373
Mof_P 	P 	0.4057	0.85703	0.72842	0.54
Mof_O 	O 	0.6461	0.9613	0.80483	-0.262
Mof_O 	O 	0.4317	0.9311	0.71694	-0.363
Mof_O 	O 	0.8476	0.9618	0.86622	-0.242
Mof_O 	O 	0.2924	0.83	0.6944	-0.412
Mof_O 	O 	0.7947	0.0665	0.8186	-0.202
Mof_O 	O 	0.6199	0.0271	0.8835	-0.389
Mof_H 	H 	0.663	0.05	0.904	0.204
Mof_O 	O 	0.3715	0.846	0.7837	-0.182
Mof_O 	O 	0.5518	0.8156	0.7216	-0.375
Mof_H 	H 	0.5799	0.8192	0.693	0.23
Mof_Zn	Zn	0.25	0.25	0.51073	1.246
Mof_Zn	Zn	0.25	0.75	0.01073	1.24
Mof_Zn	Zn	0.75	0.75	0.51073	1.252
Mof_Zn	Zn	0.75	0.25	0.01073	1.244
Mof_Zn	Zn	0.5	0	0.76073	1.215
Mof_Zn	Zn	0.5	0.5	0.26073	1.249
Mof_Zn	Zn	-3.23967e-32	0.5	0.76073	1.22
Mof_Zn	Zn	-7.32756e-33	0	0.26073	1.187
Mof_Zn	Zn	0.75	0.25	0.65647	1.249
Mof_Zn	Zn	0.75	0.75	0.15647	1.25
Mof_Zn	Zn	0.25	0.25	0.15647	1.242
Mof_Zn	Zn	0.25	0.75	0.65647	1.244
Mof_Zn	Zn	-1.0444e-32	0	0.90647	1.185
Mof_Zn	Zn	-5.73351e-33	0.5	0.40647	1.218
Mof_Zn	Zn	0.5	0.5	0.90647	1.247
Mof_Zn	Zn	0.5	-5.08966e-33	0.40647	1.213
_end
