data_functionalizedCrystal
_audit_creation_method	'EQeq! by Chris Wilmer'
_symmetry_space_group_name_H-M	'P1'
_symmetry_Int_Tables_number	1
_symmetry_cell_setting	triclinic
loop_
_symmetry_equiv_pos_as_xyz
  x,y,z
_cell_length_a	13.0484
_cell_length_b	13.0484
_cell_length_c	13.0484
_cell_angle_alpha	90
_cell_angle_beta	90
_cell_angle_gamma	90
loop_
_atom_site_label
_atom_site_type_symbol
_atom_site_fract_x
_atom_site_fract_y
_atom_site_fract_z
_atom_site_charge
Mof_N 	N 	0.43416	0.45478	0.1349	-0.264
Mof_N 	N 	0.47962	0.45946	0.21405	-0.059
Mof_N 	N 	0.52098	0.46214	0.2928	-0.368
Mof_N 	N 	0.06584	0.54522	0.6349	-0.213
Mof_N 	N 	0.02038	0.54054	0.71405	-0.165
Mof_N 	N 	0.97902	0.53786	0.7928	-0.02
Mof_N 	N 	0.56584	0.95478	0.3651	-0.125
Mof_N 	N 	0.52038	0.95946	0.28595	-0.019
Mof_N 	N 	0.47902	0.96214	0.2072	-0.189
Mof_N 	N 	0.93416	0.04522	0.8651	-0.021
Mof_N 	N 	0.97962	0.04054	0.78595	0.082
Mof_N 	N 	0.02098	0.03786	0.7072	-0.386
Mof_N 	N 	0.1349	0.43416	0.45478	-0.263
Mof_N 	N 	0.21405	0.47962	0.45946	-0.058
Mof_N 	N 	0.2928	0.52098	0.46214	-0.367
Mof_N 	N 	0.6349	0.06584	0.54522	-0.212
Mof_N 	N 	0.71405	0.02038	0.54054	-0.164
Mof_N 	N 	0.7928	0.97902	0.53786	-0.02
Mof_N 	N 	0.3651	0.56584	0.95478	-0.125
Mof_N 	N 	0.28595	0.52038	0.95946	-0.019
Mof_N 	N 	0.2072	0.47902	0.96214	-0.189
Mof_N 	N 	0.8651	0.93416	0.04522	-0.021
Mof_N 	N 	0.78595	0.97962	0.04054	0.082
Mof_N 	N 	0.7072	0.02098	0.03786	-0.386
Mof_N 	N 	0.45478	0.1349	0.43416	-0.263
Mof_N 	N 	0.45946	0.21405	0.47962	-0.058
Mof_N 	N 	0.46214	0.2928	0.52098	-0.367
Mof_N 	N 	0.54522	0.6349	0.06584	-0.212
Mof_N 	N 	0.54054	0.71405	0.02038	-0.164
Mof_N 	N 	0.53786	0.7928	0.97902	-0.02
Mof_N 	N 	0.95478	0.3651	0.56584	-0.125
Mof_N 	N 	0.95946	0.28595	0.52038	-0.019
Mof_N 	N 	0.96214	0.2072	0.47902	-0.189
Mof_N 	N 	0.04522	0.8651	0.93416	-0.021
Mof_N 	N 	0.04054	0.78595	0.97962	0.082
Mof_N 	N 	0.03786	0.7072	0.02098	-0.386
Mof_N 	N 	0.56584	0.54522	0.8651	-0.122
Mof_N 	N 	0.52038	0.54054	0.78595	-0.031
Mof_N 	N 	0.47902	0.53786	0.7072	-0.341
Mof_N 	N 	0.93416	0.45478	0.3651	-0.162
Mof_N 	N 	0.97962	0.45946	0.28595	0.086
Mof_N 	N 	0.02098	0.46214	0.2072	-0.397
Mof_N 	N 	0.43416	0.04522	0.6349	-0.241
Mof_N 	N 	0.47962	0.04054	0.71405	-0.065
Mof_N 	N 	0.52098	0.03786	0.7928	-0.221
Mof_N 	N 	0.06584	0.95478	0.1349	-0.093
Mof_N 	N 	0.02038	0.95946	0.21405	-0.144
Mof_N 	N 	0.97902	0.96214	0.2928	-0.007
Mof_N 	N 	0.8651	0.56584	0.54522	-0.122
Mof_N 	N 	0.78595	0.52038	0.54054	-0.031
Mof_N 	N 	0.7072	0.47902	0.53786	-0.341
Mof_N 	N 	0.3651	0.93416	0.45478	-0.162
Mof_N 	N 	0.28595	0.97962	0.45946	0.086
Mof_N 	N 	0.2072	0.02098	0.46214	-0.397
Mof_N 	N 	0.6349	0.43416	0.04522	-0.241
Mof_N 	N 	0.71405	0.47962	0.04054	-0.065
Mof_N 	N 	0.7928	0.52098	0.03786	-0.221
Mof_N 	N 	0.1349	0.06584	0.95478	-0.093
Mof_N 	N 	0.21405	0.02038	0.95946	-0.144
Mof_N 	N 	0.2928	0.97902	0.96214	-0.007
Mof_N 	N 	0.54522	0.8651	0.56584	-0.122
Mof_N 	N 	0.54054	0.78595	0.52038	-0.031
Mof_N 	N 	0.53786	0.7072	0.47902	-0.341
Mof_N 	N 	0.45478	0.3651	0.93416	-0.162
Mof_N 	N 	0.45946	0.28595	0.97962	0.086
Mof_N 	N 	0.46214	0.2072	0.02098	-0.397
Mof_N 	N 	0.04522	0.6349	0.43416	-0.241
Mof_N 	N 	0.04054	0.71405	0.47962	-0.065
Mof_N 	N 	0.03786	0.7928	0.52098	-0.221
Mof_N 	N 	0.95478	0.1349	0.06584	-0.093
Mof_N 	N 	0.95946	0.21405	0.02038	-0.144
Mof_N 	N 	0.96214	0.2928	0.97902	-0.007
Mof_Cr	Cr	0.5	0.5	-0	0.915
Mof_Cr	Cr	-9.48792e-33	0.5	0.5	0.915
Mof_Cr	Cr	0.5	-5.68131e-33	0.5	0.915
Mof_Cr	Cr	-0	0	-0	-0.007
Mof_K 	K 	0.5	0.5	0.5	3.099
Mof_K 	K 	-5.68131e-33	0.5	-0	1.536
Mof_K 	K 	0.5	0	-0	1.536
Mof_K 	K 	-3.80661e-33	-5.68131e-33	0.5	1.536
_end
