data_functionalizedCrystal
_audit_creation_method	'EQeq! by Chris Wilmer'
_symmetry_space_group_name_H-M	'P1'
_symmetry_Int_Tables_number	1
_symmetry_cell_setting	triclinic
loop_
_symmetry_equiv_pos_as_xyz
  x,y,z
_cell_length_a	10.8706
_cell_length_b	10.8706
_cell_length_c	13.959
_cell_angle_alpha	90
_cell_angle_beta	90
_cell_angle_gamma	90
loop_
_atom_site_label
_atom_site_type_symbol
_atom_site_fract_x
_atom_site_fract_y
_atom_site_fract_z
_atom_site_charge
Mof_Ag	Ag	0.5	0.5	0.18513	0.644
Mof_Ag	Ag	0.5	0.5	0.81487	0.63
Mof_N 	N 	0.1084	0.1084	0.5498	-0.159
Mof_N 	N 	0.35	0.35	0.7753	-0.168
Mof_N 	N 	0.1692	0.1692	0.7435	-0.141
Mof_C 	C 	0.1894	0.1894	0.5753	0.161
Mof_C 	C 	0.2265	0.2265	0.6719	-0.014
Mof_C 	C 	0.3144	0.3144	0.6874	0.02
Mof_H 	H 	0.3513	0.3513	0.6346	0.023
Mof_C 	C 	0.2926	0.2926	0.8455	0.009
Mof_H 	H 	0.3129	0.3129	0.9082	0.004
Mof_C 	C 	0.2041	0.2041	0.8303	-0.005
Mof_H 	H 	0.1673	0.1673	0.8832	0.003
Mof_N 	N 	0.8916	0.8916	0.5498	-0.108
Mof_N 	N 	0.65	0.65	0.7753	-0.164
Mof_N 	N 	0.8308	0.8308	0.7435	-0.106
Mof_C 	C 	0.8106	0.8106	0.5753	0.184
Mof_C 	C 	0.7735	0.7735	0.6719	0.006
Mof_C 	C 	0.6856	0.6856	0.6874	0.028
Mof_H 	H 	0.6487	0.6487	0.6346	0.028
Mof_C 	C 	0.7074	0.7074	0.8455	0.026
Mof_H 	H 	0.6871	0.6871	0.9082	0.01
Mof_C 	C 	0.7959	0.7959	0.8303	0.007
Mof_H 	H 	0.8327	0.8327	0.8832	0.043
Mof_N 	N 	0.8916	0.8916	0.4502	-0.108
Mof_N 	N 	0.65	0.65	0.2247	-0.164
Mof_N 	N 	0.8308	0.8308	0.2565	-0.104
Mof_C 	C 	0.8106	0.8106	0.4247	0.184
Mof_C 	C 	0.7735	0.7735	0.3281	0.007
Mof_C 	C 	0.6856	0.6856	0.3126	0.03
Mof_H 	H 	0.6487	0.6487	0.3654	0.027
Mof_C 	C 	0.7074	0.7074	0.1545	0.027
Mof_H 	H 	0.6871	0.6871	0.0918	0.025
Mof_C 	C 	0.7959	0.7959	0.1697	0.01
Mof_H 	H 	0.8327	0.8327	0.1168	0.054
Mof_N 	N 	0.1084	0.1084	0.4502	-0.159
Mof_N 	N 	0.35	0.35	0.2247	-0.167
Mof_N 	N 	0.1692	0.1692	0.2565	-0.14
Mof_C 	C 	0.1894	0.1894	0.4247	0.161
Mof_C 	C 	0.2265	0.2265	0.3281	-0.013
Mof_C 	C 	0.3144	0.3144	0.3126	0.021
Mof_H 	H 	0.3513	0.3513	0.3654	0.023
Mof_C 	C 	0.2926	0.2926	0.1545	0.01
Mof_H 	H 	0.3129	0.3129	0.0918	0.018
Mof_C 	C 	0.2041	0.2041	0.1697	-0.002
Mof_H 	H 	0.1673	0.1673	0.1168	0.014
Mof_O 	O 	0.2438	0.2438	0.5	-0.261
Mof_O 	O 	0.7562	0.7562	0.5	-0.253
Mof_Ag	Ag	-1.20048e-32	-1.53034e-32	0.68513	0.435
Mof_Ag	Ag	-6.13574e-33	-3.82586e-33	0.31487	0.44
Mof_N 	N 	0.6084	0.3916	0.0498	-0.14
Mof_N 	N 	0.85	0.15	0.2753	-0.14
Mof_N 	N 	0.6692	0.3308	0.2435	-0.139
Mof_C 	C 	0.6894	0.3106	0.0753	0.166
Mof_C 	C 	0.7265	0.2735	0.1719	0
Mof_C 	C 	0.8144	0.1856	0.1874	0.02
Mof_H 	H 	0.8513	0.1487	0.1346	0.038
Mof_C 	C 	0.7926	0.2074	0.3455	0.011
Mof_H 	H 	0.8129	0.1871	0.4082	0.027
Mof_C 	C 	0.7041	0.2959	0.3303	0.011
Mof_H 	H 	0.6673	0.3327	0.3832	0.022
Mof_N 	N 	0.3916	0.6084	0.0498	-0.14
Mof_N 	N 	0.15	0.85	0.2753	-0.14
Mof_N 	N 	0.3308	0.6692	0.2435	-0.139
Mof_C 	C 	0.3106	0.6894	0.0753	0.166
Mof_C 	C 	0.2735	0.7265	0.1719	0
Mof_C 	C 	0.1856	0.8144	0.1874	0.02
Mof_H 	H 	0.1487	0.8513	0.1346	0.038
Mof_C 	C 	0.2074	0.7926	0.3455	0.011
Mof_H 	H 	0.1871	0.8129	0.4082	0.027
Mof_C 	C 	0.2959	0.7041	0.3303	0.011
Mof_H 	H 	0.3327	0.6673	0.3832	0.022
Mof_N 	N 	0.3916	0.6084	0.9502	-0.16
Mof_N 	N 	0.15	0.85	0.7247	-0.141
Mof_N 	N 	0.3308	0.6692	0.7565	-0.139
Mof_C 	C 	0.3106	0.6894	0.9247	0.136
Mof_C 	C 	0.2735	0.7265	0.8281	0.002
Mof_C 	C 	0.1856	0.8144	0.8126	0.016
Mof_H 	H 	0.1487	0.8513	0.8654	0.029
Mof_C 	C 	0.2074	0.7926	0.6545	0.011
Mof_H 	H 	0.1871	0.8129	0.5918	0.027
Mof_C 	C 	0.2959	0.7041	0.6697	0.01
Mof_H 	H 	0.3327	0.6673	0.6168	0.022
Mof_N 	N 	0.6084	0.3916	0.9502	-0.16
Mof_N 	N 	0.85	0.15	0.7247	-0.141
Mof_N 	N 	0.6692	0.3308	0.7565	-0.139
Mof_C 	C 	0.6894	0.3106	0.9247	0.136
Mof_C 	C 	0.7265	0.2735	0.8281	0.002
Mof_C 	C 	0.8144	0.1856	0.8126	0.016
Mof_H 	H 	0.8513	0.1487	0.8654	0.029
Mof_C 	C 	0.7926	0.2074	0.6545	0.011
Mof_H 	H 	0.8129	0.1871	0.5918	0.027
Mof_C 	C 	0.7041	0.2959	0.6697	0.01
Mof_H 	H 	0.6673	0.3327	0.6168	0.022
Mof_O 	O 	0.7438	0.2562	-0	-0.227
Mof_O 	O 	0.2562	0.7438	-0	-0.227
_end
