data_functionalizedCrystal
_audit_creation_method	'EQeq! by Chris Wilmer'
_symmetry_space_group_name_H-M	'P1'
_symmetry_Int_Tables_number	1
_symmetry_cell_setting	triclinic
loop_
_symmetry_equiv_pos_as_xyz
  x,y,z
_cell_length_a	26.067
_cell_length_b	21.1688
_cell_length_c	7.6354
_cell_angle_alpha	90
_cell_angle_beta	90
_cell_angle_gamma	90
loop_
_atom_site_label
_atom_site_type_symbol
_atom_site_fract_x
_atom_site_fract_y
_atom_site_fract_z
_atom_site_charge
Mof_Cd	Cd	0.49826	0.52715	0.46004	0.225
Mof_C 	C 	0.60321	0.47407	0.3094	0.087
Mof_C 	C 	0.65789	0.48403	0.3279	-0.075
Mof_H 	H 	0.6838	0.4684	0.2519	0.058
Mof_C 	C 	0.66543	0.51959	0.4727	-0.075
Mof_H 	H 	0.6975	0.5337	0.5169	0.06
Mof_C 	C 	0.616	0.53215	0.5472	0.09
Mof_C 	C 	0.60621	0.5667	0.7032	-0.086
Mof_C 	C 	0.55813	0.5754	0.786	0.09
Mof_C 	C 	0.5486	0.61725	0.9328	-0.073
Mof_H 	H 	0.5735	0.6416	0.9937	0.065
Mof_C 	C 	0.4978	0.61516	0.9668	-0.074
Mof_H 	H 	0.4804	0.6377	0.0564	0.06
Mof_C 	C 	0.4749	0.57263	0.8427	0.092
Mof_C 	C 	0.57842	0.43924	0.1766	-0.086
Mof_N 	N 	0.57915	0.50422	0.4464	-0.172
Mof_N 	N 	0.51265	0.54848	0.7374	-0.172
Mof_C 	C 	0.65116	0.59628	0.7912	0.028
Mof_C 	C 	0.68128	0.6414	0.7094	-0.008
Mof_H 	H 	0.6733	0.6524	0.5919	0.06
Mof_N 	N 	0.72105	0.67039	0.7861	-0.121
Mof_C 	C 	0.732	0.6545	0.9533	0.049
Mof_H 	H 	0.7602	0.6745	0.0095	0.044
Mof_C 	C 	0.70415	0.6105	0.0461	-0.067
Mof_H 	H 	0.7127	0.6006	0.1639	0.065
Mof_C 	C 	0.66325	0.5808	0.9638	-0.041
Mof_H 	H 	0.6436	0.55	0.0248	0.048
Mof_C 	C 	0.61237	0.4062	0.0482	0.028
Mof_C 	C 	0.64711	0.36178	0.1101	-0.008
Mof_H 	H 	0.6487	0.3547	0.2329	0.061
Mof_N 	N 	0.67857	0.32836	0.0069	-0.12
Mof_C 	C 	0.67552	0.33784	0.8335	0.039
Mof_H 	H 	0.6977	0.3146	0.7585	0.049
Mof_C 	C 	0.64145	0.38	0.76	-0.057
Mof_H 	H 	0.64	0.3852	0.6365	0.063
Mof_C 	C 	0.60942	0.41471	0.8674	-0.05
Mof_H 	H 	0.5857	0.444	0.8188	0.047
Mof_Cd	Cd	0.00174	0.47285	0.96004	0.226
Mof_C 	C 	0.89679	0.52593	0.8094	0.09
Mof_C 	C 	0.84211	0.51597	0.8279	-0.08
Mof_H 	H 	0.8162	0.5316	0.7519	0.062
Mof_C 	C 	0.83457	0.48041	0.9727	-0.062
Mof_H 	H 	0.8025	0.4663	0.0169	0.054
Mof_C 	C 	0.884	0.46785	0.0472	0.084
Mof_C 	C 	0.89379	0.4333	0.2032	-0.085
Mof_C 	C 	0.94187	0.4246	0.286	0.091
Mof_C 	C 	0.9514	0.38275	0.4328	-0.072
Mof_H 	H 	0.9265	0.3584	0.4937	0.066
Mof_C 	C 	0.0022	0.38484	0.4668	-0.073
Mof_H 	H 	0.0196	0.3623	0.5564	0.061
Mof_C 	C 	0.0251	0.42737	0.3427	0.094
Mof_C 	C 	0.92158	0.56076	0.6766	-0.087
Mof_N 	N 	0.92085	0.49578	0.9464	-0.169
Mof_N 	N 	0.98735	0.45152	0.2374	-0.171
Mof_C 	C 	0.84884	0.40372	0.2912	0.036
Mof_C 	C 	0.81872	0.3586	0.2094	-0.012
Mof_H 	H 	0.8267	0.3476	0.0919	0.061
Mof_N 	N 	0.77895	0.32961	0.2861	-0.117
Mof_C 	C 	0.768	0.3455	0.4533	0.031
Mof_H 	H 	0.7398	0.3255	0.5095	0.053
Mof_C 	C 	0.79585	0.3895	0.5461	-0.045
Mof_H 	H 	0.7873	0.3994	0.6639	0.058
Mof_C 	C 	0.83675	0.4192	0.4638	-0.059
Mof_H 	H 	0.8564	0.45	0.5248	0.056
Mof_C 	C 	0.88763	0.5938	0.5482	0.033
Mof_C 	C 	0.85289	0.63822	0.6101	-0.01
Mof_H 	H 	0.8513	0.6453	0.7329	0.062
Mof_N 	N 	0.82143	0.67164	0.5069	-0.118
Mof_C 	C 	0.82448	0.66216	0.3335	0.034
Mof_H 	H 	0.8023	0.6854	0.2585	0.05
Mof_C 	C 	0.85855	0.62	0.26	-0.053
Mof_H 	H 	0.86	0.6148	0.1365	0.061
Mof_C 	C 	0.89058	0.58529	0.3674	-0.056
Mof_H 	H 	0.9143	0.556	0.3188	0.049
Mof_Cd	Cd	0.50174	0.02715	0.53996	0.226
Mof_C 	C 	0.39679	0.97407	0.6906	0.088
Mof_C 	C 	0.34211	0.98403	0.6721	-0.073
Mof_H 	H 	0.3162	0.9684	0.7481	0.059
Mof_C 	C 	0.33457	0.01959	0.5273	-0.075
Mof_H 	H 	0.3025	0.0337	0.4831	0.061
Mof_C 	C 	0.384	0.03215	0.4528	0.091
Mof_C 	C 	0.39379	0.0667	0.2968	-0.085
Mof_C 	C 	0.44187	0.0754	0.214	0.091
Mof_C 	C 	0.4514	0.11725	0.0672	-0.072
Mof_H 	H 	0.4265	0.1416	0.0063	0.066
Mof_C 	C 	0.5022	0.11516	0.0332	-0.073
Mof_H 	H 	0.5196	0.1377	0.9436	0.061
Mof_C 	C 	0.5251	0.07263	0.1573	0.093
Mof_C 	C 	0.42158	0.93924	0.8234	-0.084
Mof_N 	N 	0.42085	0.00422	0.5536	-0.171
Mof_N 	N 	0.48735	0.04848	0.2626	-0.171
Mof_C 	C 	0.34884	0.09628	0.2088	0.029
Mof_C 	C 	0.31872	0.1414	0.2906	-0.007
Mof_H 	H 	0.3267	0.1524	0.4081	0.06
Mof_N 	N 	0.27895	0.17039	0.2139	-0.121
Mof_C 	C 	0.268	0.1545	0.0467	0.049
Mof_H 	H 	0.2398	0.1745	0.9905	0.044
Mof_C 	C 	0.29585	0.1105	0.9539	-0.067
Mof_H 	H 	0.2873	0.1006	0.8361	0.065
Mof_C 	C 	0.33675	0.0808	0.0362	-0.04
Mof_H 	H 	0.3564	0.05	0.9752	0.048
Mof_C 	C 	0.38763	0.9062	0.9518	0.029
Mof_C 	C 	0.35289	0.86178	0.8899	-0.008
Mof_H 	H 	0.3513	0.8547	0.7671	0.061
Mof_N 	N 	0.32143	0.82836	0.9931	-0.12
Mof_C 	C 	0.32448	0.83784	0.1665	0.039
Mof_H 	H 	0.3023	0.8146	0.2415	0.049
Mof_C 	C 	0.35855	0.88	0.24	-0.057
Mof_H 	H 	0.36	0.8852	0.3635	0.063
Mof_C 	C 	0.39058	0.91471	0.1326	-0.05
Mof_H 	H 	0.4143	0.944	0.1812	0.047
Mof_Cd	Cd	0.99826	0.97285	0.03996	0.225
Mof_C 	C 	0.10321	0.02593	0.1906	0.09
Mof_C 	C 	0.15789	0.01597	0.1721	-0.081
Mof_H 	H 	0.1838	0.0316	0.2481	0.062
Mof_C 	C 	0.16543	0.98041	0.0273	-0.061
Mof_H 	H 	0.1975	0.9663	0.9831	0.055
Mof_C 	C 	0.116	0.96785	0.9528	0.085
Mof_C 	C 	0.10621	0.9333	0.7968	-0.085
Mof_C 	C 	0.05813	0.9246	0.714	0.091
Mof_C 	C 	0.0486	0.88275	0.5672	-0.071
Mof_H 	H 	0.0735	0.8584	0.5063	0.066
Mof_C 	C 	0.9978	0.88484	0.5332	-0.074
Mof_H 	H 	0.9804	0.8623	0.4436	0.061
Mof_C 	C 	0.9749	0.92737	0.6573	0.093
Mof_C 	C 	0.07842	0.06076	0.3234	-0.086
Mof_N 	N 	0.07915	0.99578	0.0536	-0.168
Mof_N 	N 	0.01265	0.95152	0.7626	-0.171
Mof_C 	C 	0.15116	0.90372	0.7088	0.036
Mof_C 	C 	0.18128	0.8586	0.7906	-0.012
Mof_H 	H 	0.1733	0.8476	0.9081	0.061
Mof_N 	N 	0.22105	0.82961	0.7139	-0.117
Mof_C 	C 	0.232	0.8455	0.5467	0.031
Mof_H 	H 	0.2602	0.8255	0.4905	0.053
Mof_C 	C 	0.20415	0.8895	0.4539	-0.045
Mof_H 	H 	0.2127	0.8994	0.3361	0.058
Mof_C 	C 	0.16325	0.9192	0.5362	-0.059
Mof_H 	H 	0.1436	0.95	0.4752	0.056
Mof_C 	C 	0.11237	0.0938	0.4518	0.033
Mof_C 	C 	0.14711	0.13822	0.3899	-0.009
Mof_H 	H 	0.1487	0.1453	0.2671	0.062
Mof_N 	N 	0.17857	0.17164	0.4931	-0.118
Mof_C 	C 	0.17552	0.16216	0.6665	0.034
Mof_H 	H 	0.1977	0.1854	0.7415	0.05
Mof_C 	C 	0.14145	0.12	0.74	-0.053
Mof_H 	H 	0.14	0.1148	0.8635	0.061
Mof_C 	C 	0.10942	0.08529	0.6326	-0.056
Mof_H 	H 	0.0857	0.056	0.6812	0.049
Mof_Cd	Cd	0.50174	0.47285	0.53996	0.226
Mof_C 	C 	0.39679	0.52593	0.6906	0.088
Mof_C 	C 	0.34211	0.51597	0.6721	-0.074
Mof_H 	H 	0.3162	0.5316	0.7481	0.059
Mof_C 	C 	0.33457	0.48041	0.5273	-0.074
Mof_H 	H 	0.3025	0.4663	0.4831	0.061
Mof_C 	C 	0.384	0.46785	0.4528	0.091
Mof_C 	C 	0.39379	0.4333	0.2968	-0.085
Mof_C 	C 	0.44187	0.4246	0.214	0.091
Mof_C 	C 	0.4514	0.38275	0.0672	-0.072
Mof_H 	H 	0.4265	0.3584	0.0063	0.066
Mof_C 	C 	0.5022	0.38484	0.0332	-0.073
Mof_H 	H 	0.5196	0.3623	0.9436	0.061
Mof_C 	C 	0.5251	0.42737	0.1573	0.093
Mof_C 	C 	0.42158	0.56076	0.8234	-0.085
Mof_N 	N 	0.42085	0.49578	0.5536	-0.171
Mof_N 	N 	0.48735	0.45152	0.2626	-0.171
Mof_C 	C 	0.34884	0.40372	0.2088	0.029
Mof_C 	C 	0.31872	0.3586	0.2906	-0.008
Mof_H 	H 	0.3267	0.3476	0.4081	0.06
Mof_N 	N 	0.27895	0.32961	0.2139	-0.121
Mof_C 	C 	0.268	0.3455	0.0467	0.049
Mof_H 	H 	0.2398	0.3255	0.9905	0.044
Mof_C 	C 	0.29585	0.3895	0.9539	-0.067
Mof_H 	H 	0.2873	0.3994	0.8361	0.065
Mof_C 	C 	0.33675	0.4192	0.0362	-0.041
Mof_H 	H 	0.3564	0.45	0.9752	0.048
Mof_C 	C 	0.38763	0.5938	0.9518	0.028
Mof_C 	C 	0.35289	0.63822	0.8899	-0.008
Mof_H 	H 	0.3513	0.6453	0.7671	0.061
Mof_N 	N 	0.32143	0.67164	0.9931	-0.12
Mof_C 	C 	0.32448	0.66216	0.1665	0.039
Mof_H 	H 	0.3023	0.6854	0.2415	0.049
Mof_C 	C 	0.35855	0.62	0.24	-0.057
Mof_H 	H 	0.36	0.6148	0.3635	0.063
Mof_C 	C 	0.39058	0.58529	0.1326	-0.05
Mof_H 	H 	0.4143	0.556	0.1812	0.047
Mof_Cd	Cd	0.99826	0.52715	0.03996	0.226
Mof_C 	C 	0.10321	0.47407	0.1906	0.09
Mof_C 	C 	0.15789	0.48403	0.1721	-0.08
Mof_H 	H 	0.1838	0.4684	0.2481	0.062
Mof_C 	C 	0.16543	0.51959	0.0273	-0.062
Mof_H 	H 	0.1975	0.5337	0.9831	0.054
Mof_C 	C 	0.116	0.53215	0.9528	0.084
Mof_C 	C 	0.10621	0.5667	0.7968	-0.085
Mof_C 	C 	0.05813	0.5754	0.714	0.091
Mof_C 	C 	0.0486	0.61725	0.5672	-0.072
Mof_H 	H 	0.0735	0.6416	0.5063	0.066
Mof_C 	C 	0.9978	0.61516	0.5332	-0.073
Mof_H 	H 	0.9804	0.6377	0.4436	0.061
Mof_C 	C 	0.9749	0.57263	0.6573	0.094
Mof_C 	C 	0.07842	0.43924	0.3234	-0.087
Mof_N 	N 	0.07915	0.50422	0.0536	-0.169
Mof_N 	N 	0.01265	0.54848	0.7626	-0.171
Mof_C 	C 	0.15116	0.59628	0.7088	0.036
Mof_C 	C 	0.18128	0.6414	0.7906	-0.012
Mof_H 	H 	0.1733	0.6524	0.9081	0.061
Mof_N 	N 	0.22105	0.67039	0.7139	-0.117
Mof_C 	C 	0.232	0.6545	0.5467	0.031
Mof_H 	H 	0.2602	0.6745	0.4905	0.053
Mof_C 	C 	0.20415	0.6105	0.4539	-0.045
Mof_H 	H 	0.2127	0.6006	0.3361	0.058
Mof_C 	C 	0.16325	0.5808	0.5362	-0.059
Mof_H 	H 	0.1436	0.55	0.4752	0.056
Mof_C 	C 	0.11237	0.4062	0.4518	0.033
Mof_C 	C 	0.14711	0.36178	0.3899	-0.01
Mof_H 	H 	0.1487	0.3547	0.2671	0.062
Mof_N 	N 	0.17857	0.32836	0.4931	-0.118
Mof_C 	C 	0.17552	0.33784	0.6665	0.034
Mof_H 	H 	0.1977	0.3146	0.7415	0.05
Mof_C 	C 	0.14145	0.38	0.74	-0.053
Mof_H 	H 	0.14	0.3852	0.8635	0.061
Mof_C 	C 	0.10942	0.41471	0.6326	-0.056
Mof_H 	H 	0.0857	0.444	0.6812	0.049
Mof_Cd	Cd	0.49826	0.97285	0.46004	0.226
Mof_C 	C 	0.60321	0.02593	0.3094	0.088
Mof_C 	C 	0.65789	0.01597	0.3279	-0.073
Mof_H 	H 	0.6838	0.0316	0.2519	0.059
Mof_C 	C 	0.66543	0.98041	0.4727	-0.075
Mof_H 	H 	0.6975	0.9663	0.5169	0.061
Mof_C 	C 	0.616	0.96785	0.5472	0.091
Mof_C 	C 	0.60621	0.9333	0.7032	-0.085
Mof_C 	C 	0.55813	0.9246	0.786	0.091
Mof_C 	C 	0.5486	0.88275	0.9328	-0.072
Mof_H 	H 	0.5735	0.8584	0.9937	0.066
Mof_C 	C 	0.4978	0.88484	0.9668	-0.073
Mof_H 	H 	0.4804	0.8623	0.0564	0.061
Mof_C 	C 	0.4749	0.92737	0.8427	0.093
Mof_C 	C 	0.57842	0.06076	0.1766	-0.084
Mof_N 	N 	0.57915	0.99578	0.4464	-0.171
Mof_N 	N 	0.51265	0.95152	0.7374	-0.171
Mof_C 	C 	0.65116	0.90372	0.7912	0.029
Mof_C 	C 	0.68128	0.8586	0.7094	-0.007
Mof_H 	H 	0.6733	0.8476	0.5919	0.06
Mof_N 	N 	0.72105	0.82961	0.7861	-0.121
Mof_C 	C 	0.732	0.8455	0.9533	0.049
Mof_H 	H 	0.7602	0.8255	0.0095	0.044
Mof_C 	C 	0.70415	0.8895	0.0461	-0.067
Mof_H 	H 	0.7127	0.8994	0.1639	0.065
Mof_C 	C 	0.66325	0.9192	0.9638	-0.04
Mof_H 	H 	0.6436	0.95	0.0248	0.048
Mof_C 	C 	0.61237	0.0938	0.0482	0.029
Mof_C 	C 	0.64711	0.13822	0.1101	-0.008
Mof_H 	H 	0.6487	0.1453	0.2329	0.061
Mof_N 	N 	0.67857	0.17164	0.0069	-0.12
Mof_C 	C 	0.67552	0.16216	0.8335	0.039
Mof_H 	H 	0.6977	0.1854	0.7585	0.049
Mof_C 	C 	0.64145	0.12	0.76	-0.057
Mof_H 	H 	0.64	0.1148	0.6365	0.063
Mof_C 	C 	0.60942	0.08529	0.8674	-0.05
Mof_H 	H 	0.5857	0.056	0.8188	0.047
Mof_Cd	Cd	0.00174	0.02715	0.96004	0.225
Mof_C 	C 	0.89679	0.97407	0.8094	0.09
Mof_C 	C 	0.84211	0.98403	0.8279	-0.081
Mof_H 	H 	0.8162	0.9684	0.7519	0.062
Mof_C 	C 	0.83457	0.01959	0.9727	-0.061
Mof_H 	H 	0.8025	0.0337	0.0169	0.055
Mof_C 	C 	0.884	0.03215	0.0472	0.085
Mof_C 	C 	0.89379	0.0667	0.2032	-0.085
Mof_C 	C 	0.94187	0.0754	0.286	0.091
Mof_C 	C 	0.9514	0.11725	0.4328	-0.071
Mof_H 	H 	0.9265	0.1416	0.4937	0.066
Mof_C 	C 	0.0022	0.11516	0.4668	-0.074
Mof_H 	H 	0.0196	0.1377	0.5564	0.061
Mof_C 	C 	0.0251	0.07263	0.3427	0.093
Mof_C 	C 	0.92158	0.93924	0.6766	-0.086
Mof_N 	N 	0.92085	0.00422	0.9464	-0.168
Mof_N 	N 	0.98735	0.04848	0.2374	-0.171
Mof_C 	C 	0.84884	0.09628	0.2912	0.036
Mof_C 	C 	0.81872	0.1414	0.2094	-0.012
Mof_H 	H 	0.8267	0.1524	0.0919	0.061
Mof_N 	N 	0.77895	0.17039	0.2861	-0.117
Mof_C 	C 	0.768	0.1545	0.4533	0.031
Mof_H 	H 	0.7398	0.1745	0.5095	0.053
Mof_C 	C 	0.79585	0.1105	0.5461	-0.045
Mof_H 	H 	0.7873	0.1006	0.6639	0.058
Mof_C 	C 	0.83675	0.0808	0.4638	-0.059
Mof_H 	H 	0.8564	0.05	0.5248	0.056
Mof_C 	C 	0.88763	0.9062	0.5482	0.033
Mof_C 	C 	0.85289	0.86178	0.6101	-0.009
Mof_H 	H 	0.8513	0.8547	0.7329	0.062
Mof_N 	N 	0.82143	0.82836	0.5069	-0.118
Mof_C 	C 	0.82448	0.83784	0.3335	0.034
Mof_H 	H 	0.8023	0.8146	0.2585	0.05
Mof_C 	C 	0.85855	0.88	0.26	-0.053
Mof_H 	H 	0.86	0.8852	0.1365	0.061
Mof_C 	C 	0.89058	0.91471	0.3674	-0.056
Mof_H 	H 	0.9143	0.944	0.3188	0.049
Mof_Cd	Cd	0.76912	0.75	0.63947	0.442
Mof_Cl	Cl	0.83424	0.75	0.90877	-0.363
Mof_Cl	Cl	0.70903	0.75	0.37341	-0.361
Mof_Cd	Cd	0.73088	0.25	0.13947	0.44
Mof_Cl	Cl	0.66576	0.25	0.40877	-0.366
Mof_Cl	Cl	0.79097	0.25	0.87341	-0.358
Mof_Cd	Cd	0.23088	0.25	0.36053	0.442
Mof_Cl	Cl	0.16576	0.25	0.09123	-0.363
Mof_Cl	Cl	0.29097	0.25	0.62659	-0.361
Mof_Cd	Cd	0.26912	0.75	0.86053	0.44
Mof_Cl	Cl	0.33424	0.75	0.59123	-0.366
Mof_Cl	Cl	0.20903	0.75	0.12659	-0.358
_end
