data_functionalizedCrystal
_audit_creation_method	'EQeq! by Chris Wilmer'
_symmetry_space_group_name_H-M	'P1'
_symmetry_Int_Tables_number	1
_symmetry_cell_setting	triclinic
loop_
_symmetry_equiv_pos_as_xyz
  x,y,z
_cell_length_a	13.6205
_cell_length_b	15.4151
_cell_length_c	15.9794
_cell_angle_alpha	88.44
_cell_angle_beta	65.051
_cell_angle_gamma	75.632
loop_
_atom_site_label
_atom_site_type_symbol
_atom_site_fract_x
_atom_site_fract_y
_atom_site_fract_z
_atom_site_charge
Mof_Cd	Cd	0.98868	0.18129	0.1905	0.415
Mof_Cd	Cd	0.01132	0.81871	0.8095	0.399
Mof_Cd	Cd	-0	0	-0	0.368
Mof_H 	H 	0.17	0.1068	0.8227	-0.004
Mof_H 	H 	0.1554	0.2772	0.0105	0.001
Mof_H 	H 	0.2973	0.1732	0.7046	0.171
Mof_H 	H 	0.1783	0.2423	0.7256	0.155
Mof_H 	H 	0.3221	0.2786	0.5885	-0.072
Mof_H 	H 	0.4735	0.2248	0.6286	0.189
Mof_H 	H 	0.4684	0.3259	0.6006	0.192
Mof_H 	H 	0.4953	0.3103	0.738	-0.083
Mof_H 	H 	0.352	0.2756	0.8751	0.18
Mof_H 	H 	0.4035	0.1935	0.7964	0.2
Mof_H 	H 	0.0974	0.3707	0.8475	0.179
Mof_H 	H 	0.1626	0.3844	0.9075	0.185
Mof_H 	H 	0.1675	0.4026	0.6826	0.176
Mof_H 	H 	0.2798	0.436	0.6325	0.193
Mof_H 	H 	0.3884	0.4546	0.7254	0.182
Mof_H 	H 	0.3413	0.4338	0.8322	0.168
Mof_H 	H 	0.1561	0.5296	0.9356	0.022
Mof_H 	H 	0.139	0.5787	0.698	0.01
Mof_H 	H 	0.0487	0.7253	0.6033	-0.008
Mof_H 	H 	0.2386	0.8861	0.4704	0.022
Mof_H 	H 	0.3206	0.751	0.3419	0.187
Mof_H 	H 	0.2955	0.6595	0.3855	0.196
Mof_H 	H 	0.3538	0.6419	0.2223	-0.081
Mof_H 	H 	0.2916	0.7966	0.2005	0.186
Mof_H 	H 	0.2439	0.736	0.1544	0.162
Mof_H 	H 	0.1636	0.884	0.3575	0.184
Mof_H 	H 	0.0358	0.8782	0.4095	0.168
Mof_H 	H 	0.0934	0.6491	0.4673	0.179
Mof_H 	H 	0.9932	0.735	0.4768	0.18
Mof_H 	H 	0.0247	0.6287	0.356	-0.081
Mof_H 	H 	0.201	0.5944	0.2224	0.181
Mof_H 	H 	0.22	0.5637	0.3123	0.176
Mof_H 	H 	0.9624	0.7852	0.3359	0.17
Mof_H 	H 	0.0423	0.7302	0.2366	0.164
Mof_H 	H 	0.081	0.8296	0.119	-0.01
Mof_H 	H 	0.0744	0.0022	0.3018	-0.019
Mof_H 	H 	0.2673	0.8901	0.9573	0.026
Mof_H 	H 	0.2875	0.7245	0.761	0.003
Mof_H 	H 	0.4027	0.6112	0.8131	0.167
Mof_H 	H 	0.4801	0.6603	0.7311	0.179
Mof_H 	H 	0.5952	0.5289	0.7585	-0.074
Mof_H 	H 	0.6013	0.5178	0.9055	0.173
Mof_H 	H 	0.4759	0.5252	0.9185	0.169
Mof_H 	H 	0.4723	0.6264	0.0305	-0.098
Mof_H 	H 	0.3587	0.7586	0.0032	0.161
Mof_H 	H 	0.3278	0.6714	0.979	0.168
Mof_H 	H 	0.5293	0.7974	0.7678	0.183
Mof_H 	H 	0.4812	0.8368	0.8737	0.195
Mof_H 	H 	0.7253	0.596	0.7765	0.178
Mof_H 	H 	0.6772	0.6513	0.7092	0.178
Mof_H 	H 	0.6494	0.6572	0.9445	0.189
Mof_H 	H 	0.5533	0.7501	0.9817	0.194
Mof_H 	H 	0.83	0.8932	0.1773	0.001
Mof_H 	H 	0.8446	0.7228	0.9895	0.031
Mof_H 	H 	0.7027	0.8268	0.2954	0.174
Mof_H 	H 	0.8217	0.7577	0.2744	0.158
Mof_H 	H 	0.6779	0.7214	0.4115	-0.071
Mof_H 	H 	0.5265	0.7752	0.3714	0.19
Mof_H 	H 	0.5316	0.6741	0.3994	0.193
Mof_H 	H 	0.5047	0.6897	0.262	-0.083
Mof_H 	H 	0.648	0.7244	0.1249	0.176
Mof_H 	H 	0.5965	0.8065	0.2036	0.199
Mof_H 	H 	0.9026	0.6293	0.1525	0.183
Mof_H 	H 	0.8374	0.6156	0.0925	0.182
Mof_H 	H 	0.8325	0.5974	0.3174	0.181
Mof_H 	H 	0.7202	0.564	0.3675	0.195
Mof_H 	H 	0.6116	0.5454	0.2746	0.181
Mof_H 	H 	0.6587	0.5662	0.1678	0.166
Mof_H 	H 	0.8439	0.4704	0.0644	0.017
Mof_H 	H 	0.861	0.4213	0.302	0.012
Mof_H 	H 	0.9513	0.2747	0.3967	-0.002
Mof_H 	H 	0.7614	0.1139	0.5296	0.021
Mof_H 	H 	0.6794	0.249	0.6581	0.182
Mof_H 	H 	0.7045	0.3405	0.6145	0.191
Mof_H 	H 	0.6462	0.3581	0.7777	-0.075
Mof_H 	H 	0.7084	0.2034	0.7995	0.181
Mof_H 	H 	0.7561	0.264	0.8456	0.159
Mof_H 	H 	0.8364	0.116	0.6425	0.175
Mof_H 	H 	0.9642	0.1218	0.5905	0.164
Mof_H 	H 	0.9066	0.3509	0.5327	0.163
Mof_H 	H 	0.0068	0.265	0.5232	0.143
Mof_H 	H 	0.9753	0.3713	0.644	-0.06
Mof_H 	H 	0.799	0.4056	0.7776	0.173
Mof_H 	H 	0.78	0.4363	0.6877	0.168
Mof_H 	H 	0.0376	0.2148	0.6641	0.134
Mof_H 	H 	0.9577	0.2698	0.7634	0.15
Mof_H 	H 	0.919	0.1704	0.881	-0.003
Mof_H 	H 	0.9256	0.9978	0.6982	0.022
Mof_H 	H 	0.7327	0.1099	0.0427	0.017
Mof_H 	H 	0.7125	0.2755	0.239	0.002
Mof_H 	H 	0.5973	0.3888	0.1869	0.166
Mof_H 	H 	0.5199	0.3397	0.2689	0.177
Mof_H 	H 	0.4048	0.4711	0.2415	-0.072
Mof_H 	H 	0.3987	0.4822	0.0945	0.165
Mof_H 	H 	0.5241	0.4748	0.0815	0.16
Mof_H 	H 	0.5277	0.3736	0.9695	-0.077
Mof_H 	H 	0.6413	0.2414	0.9968	0.18
Mof_H 	H 	0.6722	0.3286	0.021	0.167
Mof_H 	H 	0.4707	0.2026	0.2322	0.178
Mof_H 	H 	0.5188	0.1632	0.1263	0.189
Mof_H 	H 	0.2747	0.404	0.2235	0.174
Mof_H 	H 	0.3228	0.3487	0.2908	0.174
Mof_H 	H 	0.3506	0.3428	0.0555	0.18
Mof_H 	H 	0.4467	0.2499	0.0183	0.182
Mof_C 	C 	0.1541	0.1361	0.8803	0.113
Mof_C 	C 	0.1459	0.2285	0.9822	0.129
Mof_C 	C 	0.2431	0.2667	0.8172	0.358
Mof_C 	C 	0.2536	0.2368	0.7227	-0.454
Mof_C 	C 	0.3138	0.2977	0.6509	0.358
Mof_C 	C 	0.4289	0.2881	0.6474	-0.493
Mof_C 	C 	0.4188	0.3165	0.7414	0.376
Mof_C 	C 	0.3592	0.2571	0.8135	-0.48
Mof_C 	C 	0.1724	0.365	0.8453	-0.463
Mof_C 	C 	0.2341	0.4246	0.7729	0.366
Mof_C 	C 	0.2432	0.3968	0.6791	-0.475
Mof_C 	C 	0.3495	0.4152	0.7703	-0.474
Mof_C 	C 	0.1406	0.5596	0.8881	0.096
Mof_C 	C 	0.1309	0.5857	0.7596	0.114
Mof_C 	C 	0.0913	0.7684	0.5899	0.117
Mof_C 	C 	0.1939	0.8558	0.5184	0.096
Mof_C 	C 	0.1499	0.7618	0.4161	0.373
Mof_C 	C 	0.2704	0.7108	0.3543	-0.486
Mof_C 	C 	0.2754	0.6767	0.2629	0.37
Mof_C 	C 	0.2402	0.7573	0.2138	-0.467
Mof_C 	C 	0.1198	0.81	0.2772	0.362
Mof_C 	C 	0.1134	0.8439	0.3691	-0.468
Mof_C 	C 	0.0708	0.7013	0.4357	-0.49
Mof_C 	C 	0.0761	0.6687	0.344	0.362
Mof_C 	C 	0.1968	0.6164	0.2817	-0.48
Mof_C 	C 	0.0401	0.7507	0.2957	-0.474
Mof_C 	C 	0.0726	0.8839	0.151	0.104
Mof_C 	C 	0.0686	0.9777	0.2506	0.157
Mof_C 	C 	0.2501	0.8623	0.9147	0.095
Mof_C 	C 	0.2612	0.7724	0.8075	0.111
Mof_C 	C 	0.4192	0.7285	0.8608	0.36
Mof_C 	C 	0.4614	0.6441	0.7954	-0.467
Mof_C 	C 	0.5664	0.5845	0.8016	0.361
Mof_C 	C 	0.5349	0.5578	0.9009	-0.48
Mof_C 	C 	0.4923	0.6432	0.9656	0.378
Mof_C 	C 	0.3874	0.7036	0.9605	-0.459
Mof_C 	C 	0.5094	0.781	0.8322	-0.471
Mof_C 	C 	0.613	0.7193	0.8397	0.375
Mof_C 	C 	0.6572	0.6348	0.7736	-0.48
Mof_C 	C 	0.5822	0.6948	0.9393	-0.493
Mof_C 	C 	0.806	0.7416	0.8058	0.131
Mof_C 	C 	0.684	0.8634	0.8066	0.148
Mof_C 	C 	0.8459	0.8639	0.1197	0.116
Mof_C 	C 	0.8541	0.7715	0.0178	0.081
Mof_C 	C 	0.7569	0.7333	0.1828	0.357
Mof_C 	C 	0.7464	0.7632	0.2773	-0.456
Mof_C 	C 	0.6862	0.7023	0.3491	0.361
Mof_C 	C 	0.5711	0.7119	0.3526	-0.494
Mof_C 	C 	0.5812	0.6835	0.2586	0.376
Mof_C 	C 	0.6408	0.7429	0.1865	-0.478
Mof_C 	C 	0.8276	0.635	0.1547	-0.463
Mof_C 	C 	0.7659	0.5754	0.2271	0.368
Mof_C 	C 	0.7568	0.6032	0.3209	-0.478
Mof_C 	C 	0.6505	0.5848	0.2297	-0.473
Mof_C 	C 	0.8594	0.4404	0.1119	0.099
Mof_C 	C 	0.8691	0.4143	0.2404	0.116
Mof_C 	C 	0.9087	0.2316	0.4101	0.118
Mof_C 	C 	0.8061	0.1442	0.4816	0.095
Mof_C 	C 	0.8501	0.2382	0.5839	0.348
Mof_C 	C 	0.7296	0.2892	0.6457	-0.467
Mof_C 	C 	0.7246	0.3233	0.7371	0.35
Mof_C 	C 	0.7598	0.2427	0.7862	-0.449
Mof_C 	C 	0.8802	0.19	0.7228	0.336
Mof_C 	C 	0.8866	0.1561	0.6309	-0.445
Mof_C 	C 	0.9292	0.2987	0.5643	-0.421
Mof_C 	C 	0.9239	0.3313	0.656	0.316
Mof_C 	C 	0.8032	0.3836	0.7183	-0.452
Mof_C 	C 	0.9599	0.2493	0.7043	-0.406
Mof_C 	C 	0.9274	0.1161	0.849	0.106
Mof_C 	C 	0.9314	0.0223	0.7494	0.097
Mof_C 	C 	0.7499	0.1377	0.0853	0.092
Mof_C 	C 	0.7388	0.2276	0.1925	0.109
Mof_C 	C 	0.5808	0.2715	0.1392	0.36
Mof_C 	C 	0.5386	0.3559	0.2046	-0.462
Mof_C 	C 	0.4336	0.4155	0.1984	0.352
Mof_C 	C 	0.4651	0.4422	0.0991	-0.462
Mof_C 	C 	0.5077	0.3568	0.0344	0.347
Mof_C 	C 	0.6126	0.2964	0.0395	-0.477
Mof_C 	C 	0.4906	0.219	0.1678	-0.466
Mof_C 	C 	0.387	0.2807	0.1603	0.366
Mof_C 	C 	0.3428	0.3652	0.2264	-0.471
Mof_C 	C 	0.4178	0.3052	0.0607	-0.474
Mof_C 	C 	0.194	0.2584	0.1942	0.125
Mof_C 	C 	0.316	0.1366	0.1934	0.142
Mof_N 	N 	0.1001	0.1095	0.9612	-0.114
Mof_N 	N 	0.0941	0.1689	0.0272	-0.12
Mof_N 	N 	0.1841	0.2108	0.8896	-0.189
Mof_N 	N 	0.1678	0.5193	0.8044	-0.184
Mof_N 	N 	0.0904	0.645	0.8957	-0.093
Mof_N 	N 	0.0819	0.6618	0.8135	-0.115
Mof_N 	N 	0.1059	0.8111	0.651	-0.121
Mof_N 	N 	0.1713	0.8686	0.606	-0.089
Mof_N 	N 	0.1454	0.794	0.5048	-0.188
Mof_N 	N 	0.0864	0.8895	0.2297	-0.193
Mof_N 	N 	0.0458	0.9647	0.1257	-0.108
Mof_N 	N 	0.0421	0.025	0.1901	-0.127
Mof_N 	N 	0.1576	0.8907	0.9025	-0.109
Mof_N 	N 	0.1656	0.834	0.8335	-0.112
Mof_N 	N 	0.3173	0.7868	0.8567	-0.183
Mof_N 	N 	0.7009	0.7688	0.8131	-0.193
Mof_N 	N 	0.8536	0.8044	0.7956	-0.122
Mof_N 	N 	0.7768	0.8875	0.7959	-0.075
Mof_N 	N 	0.8999	0.8905	0.0388	-0.114
Mof_N 	N 	0.9059	0.8311	0.9728	-0.091
Mof_N 	N 	0.8159	0.7892	0.1104	-0.181
Mof_N 	N 	0.8322	0.4807	0.1956	-0.184
Mof_N 	N 	0.9096	0.355	0.1043	-0.092
Mof_N 	N 	0.9181	0.3382	0.1865	-0.113
Mof_N 	N 	0.8941	0.1889	0.349	-0.119
Mof_N 	N 	0.8287	0.1314	0.394	-0.09
Mof_N 	N 	0.8546	0.206	0.4952	-0.184
Mof_N 	N 	0.9136	0.1105	0.7703	-0.179
Mof_N 	N 	0.9542	0.0353	0.8743	-0.111
Mof_N 	N 	0.9579	0.975	0.8099	-0.093
Mof_N 	N 	0.8424	0.1093	0.0975	-0.112
Mof_N 	N 	0.8344	0.166	0.1665	-0.112
Mof_N 	N 	0.6827	0.2132	0.1433	-0.184
Mof_N 	N 	0.2991	0.2312	0.1869	-0.191
Mof_N 	N 	0.1464	0.1956	0.2044	-0.128
Mof_N 	N 	0.2232	0.1125	0.2041	-0.081
Mof_N 	N 	0.855	0.5168	0.8938	0.053
Mof_O 	O 	0.8469	0.5825	0.9401	-0.148
Mof_O 	O 	0.918	0.4985	0.811	-0.148
Mof_O 	O 	0.7947	0.4645	0.9357	-0.162
Mof_N 	N 	0.3594	0.5153	0.4604	0.051
Mof_O 	O 	0.4505	0.5316	0.4287	-0.138
Mof_O 	O 	0.2758	0.5678	0.5241	-0.146
Mof_O 	O 	0.3487	0.4462	0.431	-0.147
Mof_N 	N 	0.5878	0.046	0.6863	0.051
Mof_O 	O 	0.511	0.0186	0.7487	-0.118
Mof_O 	O 	0.6372	0.0896	0.7098	-0.135
Mof_O 	O 	0.5971	0.0394	0.6066	-0.134
Mof_N 	N 	0.3903	0.9488	0.0878	0.045
Mof_O 	O 	0.461	0.8902	0.1036	-0.119
Mof_O 	O 	0.3946	0.0279	0.0941	-0.1
Mof_O 	O 	0.3183	0.9585	0.0436	-0.113
Mof_N 	N 	0.145	0.4832	0.1062	0.054
Mof_O 	O 	0.1531	0.4175	0.0599	-0.158
Mof_O 	O 	0.082	0.5015	0.189	-0.157
Mof_O 	O 	0.2053	0.5355	0.0643	-0.171
Mof_N 	N 	0.6406	0.4847	0.5396	0.051
Mof_O 	O 	0.5495	0.4684	0.5713	-0.138
Mof_O 	O 	0.7242	0.4322	0.4759	-0.144
Mof_O 	O 	0.6513	0.5538	0.569	-0.146
Mof_N 	N 	0.4122	0.954	0.3137	0.05
Mof_O 	O 	0.489	0.9814	0.2513	-0.109
Mof_O 	O 	0.3628	0.9104	0.2902	-0.132
Mof_O 	O 	0.4029	0.9606	0.3934	-0.128
Mof_N 	N 	0.6097	0.0512	0.9122	0.035
Mof_O 	O 	0.539	0.1098	0.8964	-0.116
Mof_O 	O 	0.6054	0.9721	0.9059	-0.077
Mof_O 	O 	0.6817	0.0415	0.9564	-0.113
_end
