data_functionalizedCrystal
_audit_creation_method	'EQeq! by Chris Wilmer'
_symmetry_space_group_name_H-M	'P1'
_symmetry_Int_Tables_number	1
_symmetry_cell_setting	triclinic
loop_
_symmetry_equiv_pos_as_xyz
  x,y,z
_cell_length_a	10.063
_cell_length_b	13.0296
_cell_length_c	16.8373
_cell_angle_alpha	90
_cell_angle_beta	90
_cell_angle_gamma	109.821
loop_
_atom_site_label
_atom_site_type_symbol
_atom_site_fract_x
_atom_site_fract_y
_atom_site_fract_z
_atom_site_charge
Mof_Ba	Ba	0.52482	0.71135	0.70886	1.713
Mof_Ba	Ba	0.02482	0.21135	0.79114	1.706
Mof_Ba	Ba	0.47518	0.28865	0.29114	1.713
Mof_Ba	Ba	0.97518	0.78865	0.20886	1.706
Mof_Cd	Cd	0.63015	0.59996	0.29895	0.439
Mof_Cd	Cd	0.86985	0.90004	0.79895	0.435
Mof_Cd	Cd	0.36985	0.40004	0.70105	0.44
Mof_Cd	Cd	0.13015	0.09996	0.20105	0.436
Mof_H 	H 	0.9792	0.6804	0.497	0.101
Mof_H 	H 	0.382	0.6549	0.0843	0.092
Mof_H 	H 	0.618	0.3451	0.9157	0.092
Mof_H 	H 	0.3398	0.871	0.0473	-0.025
Mof_H 	H 	0.7409	0.8805	0.0546	-0.011
Mof_H 	H 	0.3982	0.6417	0.9479	-0.035
Mof_H 	H 	0.7396	0.6831	0.0322	-0.038
Mof_H 	H 	0.6888	0.4989	0.8377	-0.011
Mof_H 	H 	0.1602	0.629	0.5473	-0.04
Mof_H 	H 	0.1127	0.5766	0.3029	-0.054
Mof_H 	H 	0.2396	0.1831	0.4678	-0.038
Mof_H 	H 	0.1018	0.8583	0.4479	-0.036
Mof_H 	H 	0.8982	0.1417	0.5521	-0.036
Mof_H 	H 	0.7591	0.6195	0.5546	-0.021
Mof_H 	H 	0.2604	0.3169	0.9678	-0.038
Mof_H 	H 	0.8873	0.4234	0.6971	-0.054
Mof_H 	H 	0.2409	0.3805	0.4454	-0.021
Mof_H 	H 	0.118	0.8451	0.5843	0.092
Mof_H 	H 	0.2591	0.1195	0.9454	-0.011
Mof_H 	H 	0.5208	0.8196	0.997	0.084
Mof_H 	H 	0.0208	0.3196	0.503	0.101
Mof_H 	H 	0.6602	0.129	0.9527	-0.025
Mof_H 	H 	0.6127	0.0766	0.1971	-0.044
Mof_H 	H 	0.3112	0.5011	0.1623	-0.011
Mof_H 	H 	0.882	0.1549	0.4157	0.092
Mof_H 	H 	0.8398	0.371	0.4527	-0.04
Mof_H 	H 	0.6018	0.3583	0.0521	-0.035
Mof_H 	H 	0.1888	0.9989	0.6623	-0.008
Mof_H 	H 	0.4792	0.1804	0.003	0.084
Mof_H 	H 	0.3873	0.9234	0.8029	-0.044
Mof_H 	H 	0.7604	0.8169	0.5322	-0.038
Mof_H 	H 	0.8112	0.0011	0.3377	-0.008
Mof_C 	C 	0.3314	0.4776	0.9435	-0.244
Mof_C 	C 	0.6686	0.5224	0.0565	-0.244
Mof_C 	C 	0.3446	0.528	0.332	0.39
Mof_C 	C 	0.4617	0.1315	0.9608	-0.178
Mof_C 	C 	0.1554	0.972	0.832	0.379
Mof_C 	C 	0.2236	0.1069	0.5724	-0.209
Mof_C 	C 	0.5933	0.0226	0.1583	0.121
Mof_C 	C 	0.6852	0.5052	0.8926	0.122
Mof_C 	C 	0.5403	0.0191	0.8738	-0.213
Mof_C 	C 	0.7144	0.6145	0.0088	0.142
Mof_C 	C 	0.4067	0.9774	0.8417	0.121
Mof_C 	C 	0.9597	0.4809	0.3738	-0.249
Mof_C 	C 	0.9617	0.6315	0.5392	-0.217
Mof_C 	C 	0.5692	0.0985	0.9326	0.11
Mof_C 	C 	0.1686	0.0224	0.4435	-0.249
Mof_C 	C 	0.1852	0.0052	0.6074	0.115
Mof_C 	C 	0.2856	0.3855	0.9912	0.142
Mof_C 	C 	0.152	0.4754	0.654	0.431
Mof_C 	C 	0.4308	0.9015	0.0674	0.11
Mof_C 	C 	0.1323	0.9211	0.4788	0.144
Mof_C 	C 	0.7764	0.8931	0.4276	-0.209
Mof_C 	C 	0.3148	0.4948	0.1074	0.122
Mof_C 	C 	0.8677	0.0789	0.5212	0.144
Mof_C 	C 	0.6994	0.9839	0.1325	-0.19
Mof_C 	C 	0.2272	0.2923	0.1219	0.38
Mof_C 	C 	0.7856	0.8855	0.5088	0.143
Mof_C 	C 	0.0692	0.5985	0.5674	0.146
Mof_C 	C 	0.5383	0.8685	0.0392	-0.178
Mof_C 	C 	0.6416	0.4135	0.9393	-0.209
Mof_C 	C 	0.3677	0.5789	0.9788	0.136
Mof_C 	C 	0.652	0.9754	0.846	0.405
Mof_C 	C 	0.7272	0.7923	0.3781	0.379
Mof_C 	C 	0.3584	0.5865	0.0607	-0.209
Mof_C 	C 	0.7236	0.6069	0.9276	-0.21
Mof_C 	C 	0.0933	0.5226	0.3417	0.159
Mof_C 	C 	0.8148	0.9948	0.3926	0.115
Mof_C 	C 	0.6707	0.9064	0.0723	0.108
Mof_C 	C 	0.1416	0.9135	0.5607	-0.209
Mof_C 	C 	0.3293	0.0936	0.9277	0.108
Mof_C 	C 	0.1994	0.4839	0.3675	-0.215
Mof_C 	C 	0.2764	0.3931	0.0724	-0.21
Mof_C 	C 	0.9308	0.4015	0.4326	0.146
Mof_C 	C 	0.8314	0.9776	0.5565	-0.249
Mof_C 	C 	0.4597	0.9809	0.1262	-0.213
Mof_C 	C 	0.3006	0.0161	0.8675	-0.19
Mof_C 	C 	0.8293	0.5936	0.5723	0.138
Mof_C 	C 	0.8006	0.5161	0.6325	-0.215
Mof_C 	C 	0.8584	0.0865	0.4393	-0.209
Mof_C 	C 	0.6536	0.5337	0.1437	0.439
Mof_C 	C 	0.0403	0.5191	0.6262	-0.249
Mof_C 	C 	0.9067	0.4774	0.6583	0.159
Mof_C 	C 	0.1536	0.0337	0.3563	0.431
Mof_C 	C 	0.7728	0.7077	0.8781	0.38
Mof_C 	C 	0.2728	0.2077	0.6219	0.379
Mof_C 	C 	0.1707	0.4064	0.4277	0.138
Mof_C 	C 	0.6323	0.4211	0.0212	0.136
Mof_C 	C 	0.848	0.5246	0.346	0.431
Mof_C 	C 	0.8464	0.9663	0.6437	0.431
Mof_C 	C 	0.6554	0.472	0.668	0.39
Mof_C 	C 	0.8446	0.028	0.168	0.379
Mof_C 	C 	0.0383	0.3685	0.4608	-0.217
Mof_C 	C 	0.3464	0.4663	0.8563	0.439
Mof_C 	C 	0.2144	0.1145	0.4912	0.143
Mof_C 	C 	0.348	0.0246	0.154	0.405
Mof_O 	O 	0.2523	0.2968	0.1941	-0.413
Mof_O 	O 	0.0977	0.9514	0.3154	-0.457
Mof_O 	O 	0.4253	0.4732	0.3433	-0.431
Mof_O 	O 	0.3017	0.371	0.8281	-0.444
Mof_O 	O 	0.8828	0.1147	0.2062	-0.314
Mof_O 	O 	0.8856	0.6161	0.3122	-0.467
Mof_O 	O 	0.7523	0.7968	0.3059	-0.412
Mof_O 	O 	0.6144	0.8839	0.8122	-0.462
Mof_O 	O 	0.1609	0.2036	0.0874	-0.315
Mof_O 	O 	0.9253	0.9732	0.1567	-0.429
Mof_O 	O 	0.6172	0.3853	0.7062	-0.317
Mof_O 	O 	0.1144	0.3839	0.6878	-0.467
Mof_O 	O 	0.8017	0.871	0.6719	-0.443
Mof_O 	O 	0.2477	0.2032	0.6941	-0.412
Mof_O 	O 	0.6983	0.629	0.1719	-0.444
Mof_O 	O 	0.6609	0.7036	0.4126	-0.314
Mof_O 	O 	0.0747	0.0268	0.8433	-0.429
Mof_O 	O 	0.7205	0.4707	0.3576	-0.429
Mof_O 	O 	0.3828	0.6147	0.2938	-0.317
Mof_O 	O 	0.5977	0.4514	0.1846	-0.467
Mof_O 	O 	0.1172	0.8853	0.7938	-0.314
Mof_O 	O 	0.3391	0.2964	0.5874	-0.314
Mof_O 	O 	0.3856	0.1161	0.1878	-0.462
Mof_O 	O 	0.8391	0.7964	0.9126	-0.315
Mof_O 	O 	0.9023	0.0486	0.6846	-0.457
Mof_O 	O 	0.2795	0.5293	0.6424	-0.429
Mof_O 	O 	0.1983	0.129	0.3281	-0.443
Mof_O 	O 	0.2205	0.9707	0.1424	-0.414
Mof_O 	O 	0.7795	0.0293	0.8576	-0.414
Mof_O 	O 	0.7477	0.7032	0.8059	-0.413
Mof_O 	O 	0.5747	0.5268	0.6567	-0.431
Mof_O 	O 	0.4023	0.5486	0.8154	-0.467
_end
