data_functionalizedCrystal
_audit_creation_method	'EQeq! by Chris Wilmer'
_symmetry_space_group_name_H-M	'P1'
_symmetry_Int_Tables_number	1
_symmetry_cell_setting	triclinic
loop_
_symmetry_equiv_pos_as_xyz
  x,y,z
_cell_length_a	15.947
_cell_length_b	15.391
_cell_length_c	19.064
_cell_angle_alpha	90
_cell_angle_beta	101.182
_cell_angle_gamma	90
loop_
_atom_site_label
_atom_site_type_symbol
_atom_site_fract_x
_atom_site_fract_y
_atom_site_fract_z
_atom_site_charge
Mof_C 	C 	0.3754	0.982	0.1173	0.023
Mof_H 	H 	0.4199	0.9584	0.0985	0.022
Mof_C 	C 	0.3371	0.0583	0.0894	-0.088
Mof_C 	C 	0.2709	0.0942	0.1182	0.027
Mof_H 	H 	0.2466	0.1468	0.101	0.015
Mof_C 	C 	0.2409	0.0503	0.1734	-0.209
Mof_C 	C 	0.2817	0.9763	0.2034	0.092
Mof_H 	H 	0.2654	0.9508	0.2429	-0.023
Mof_C 	C 	0.347	0.9397	0.1745	-0.165
Mof_C 	C 	0.3929	0.858	0.2027	0.38
Mof_C 	C 	0.1668	0.0929	0.1992	0.463
Mof_C 	C 	0.3735	0.11	0.0366	0.072
Mof_C 	C 	0.3811	0.2	0.0326	-0.119
Mof_H 	H 	0.3709	0.2346	0.0701	0.035
Mof_C 	C 	0.4034	0.2383	0.9737	0.033
Mof_H 	H 	0.4106	0.2982	0.9734	-0.053
Mof_N 	N 	0.4158	0.1903	0.9143	-0.101
Mof_C 	C 	0.4129	0.107	0.9194	0.115
Mof_H 	H 	0.4305	0.0744	0.8839	-0.02
Mof_C 	C 	0.3852	0.0618	0.9747	-0.148
Mof_H 	H 	0.3747	0.0023	0.9713	0.061
Mof_O 	O 	0.1379	0.1586	0.1679	-0.557
Mof_O 	O 	0.14	0.0582	0.2513	-0.816
Mof_O 	O 	0.443	0.8262	0.1659	-0.481
Mof_O 	O 	0.3771	0.8249	0.2603	-0.426
Mof_Co	Co	0.54025	0.74172	0.17026	1.138
Mof_C 	C 	0.36	0.098	0.0209	0.025
Mof_C 	C 	0.4487	0.1114	0.0268	-0.04
Mof_H 	H 	0.4883	0.0942	0.0668	0.028
Mof_C 	C 	0.4721	0.1518	0.9694	-0.043
Mof_H 	H 	0.5304	0.1547	0.9696	0.008
Mof_C 	C 	0.3347	0.1689	0.9066	-0.034
Mof_H 	H 	0.2985	0.1847	0.8642	0.023
Mof_C 	C 	0.3012	0.1274	0.9631	-0.054
Mof_H 	H 	0.2427	0.1209	0.9607	0.003
Mof_N 	N 	0.4237	0.185	0.9168	-0.1
Mof_C 	C 	0.8754	0.482	0.1173	0.018
Mof_H 	H 	0.9199	0.4584	0.0985	0.038
Mof_C 	C 	0.8371	0.5583	0.0894	-0.078
Mof_C 	C 	0.7709	0.5942	0.1182	0.027
Mof_H 	H 	0.7466	0.6468	0.101	0.017
Mof_C 	C 	0.7409	0.5503	0.1734	-0.202
Mof_C 	C 	0.7817	0.4763	0.2034	0.089
Mof_H 	H 	0.7654	0.4508	0.2429	-0.018
Mof_C 	C 	0.847	0.4397	0.1745	-0.151
Mof_C 	C 	0.8929	0.358	0.2027	0.378
Mof_C 	C 	0.6668	0.5929	0.1992	0.47
Mof_C 	C 	0.8735	0.61	0.0366	0.03
Mof_C 	C 	0.8811	0.7	0.0326	0.016
Mof_H 	H 	0.8709	0.7346	0.0701	-0.003
Mof_C 	C 	0.9034	0.7383	0.9737	-0.125
Mof_H 	H 	0.9106	0.7982	0.9734	0.015
Mof_N 	N 	0.9158	0.6903	0.9143	-0.11
Mof_C 	C 	0.9129	0.607	0.9194	-0.205
Mof_H 	H 	0.9305	0.5744	0.8839	0.114
Mof_C 	C 	0.8852	0.5618	0.9747	0.083
Mof_H 	H 	0.8747	0.5023	0.9713	-0.013
Mof_O 	O 	0.6379	0.6586	0.1679	-0.558
Mof_O 	O 	0.64	0.5582	0.2513	-0.837
Mof_O 	O 	0.943	0.3262	0.1659	-0.445
Mof_O 	O 	0.8771	0.3249	0.2603	-0.412
Mof_Co	Co	0.04025	0.24172	0.17026	1.124
Mof_C 	C 	0.86	0.598	0.0209	0.08
Mof_C 	C 	0.9487	0.6114	0.0268	-0.31
Mof_H 	H 	0.9883	0.5942	0.0668	0.15
Mof_C 	C 	0.9721	0.6518	0.9694	0.358
Mof_H 	H 	0.0304	0.6547	0.9696	-0.177
Mof_C 	C 	0.8347	0.6689	0.9066	0.146
Mof_H 	H 	0.7985	0.6847	0.8642	-0.039
Mof_C 	C 	0.8012	0.6274	0.9631	-0.2
Mof_H 	H 	0.7427	0.6209	0.9607	0.056
Mof_N 	N 	0.9237	0.685	0.9168	-0.094
Mof_C 	C 	0.6246	0.982	0.3827	0.02
Mof_H 	H 	0.5801	0.9584	0.4015	0.025
Mof_C 	C 	0.6629	0.0583	0.4106	-0.08
Mof_C 	C 	0.7291	0.0942	0.3818	0.025
Mof_H 	H 	0.7534	0.1468	0.399	0.017
Mof_C 	C 	0.7591	0.0503	0.3266	-0.197
Mof_C 	C 	0.7183	0.9763	0.2966	0.088
Mof_H 	H 	0.7346	0.9508	0.2571	-0.015
Mof_C 	C 	0.653	0.9397	0.3255	-0.157
Mof_C 	C 	0.6071	0.858	0.2973	0.38
Mof_C 	C 	0.8332	0.0929	0.3008	0.462
Mof_C 	C 	0.6265	0.11	0.4634	0.06
Mof_C 	C 	0.6189	0.2	0.4674	-0.119
Mof_H 	H 	0.6291	0.2346	0.4299	0.033
Mof_C 	C 	0.5966	0.2383	0.5263	0.033
Mof_H 	H 	0.5894	0.2982	0.5266	-0.052
Mof_N 	N 	0.5842	0.1903	0.5857	-0.102
Mof_C 	C 	0.5871	0.107	0.5806	0.096
Mof_H 	H 	0.5695	0.0744	0.6161	-0.012
Mof_C 	C 	0.6148	0.0618	0.5253	-0.126
Mof_H 	H 	0.6253	0.0023	0.5287	0.058
Mof_O 	O 	0.8621	0.1586	0.3321	-0.541
Mof_O 	O 	0.86	0.0582	0.2487	-0.783
Mof_O 	O 	0.557	0.8262	0.3341	-0.479
Mof_O 	O 	0.6229	0.8249	0.2397	-0.422
Mof_Co	Co	0.45975	0.74172	0.32974	1.139
Mof_C 	C 	0.64	0.098	0.4791	0.034
Mof_C 	C 	0.5513	0.1114	0.4732	-0.063
Mof_H 	H 	0.5117	0.0942	0.4332	0.035
Mof_C 	C 	0.5279	0.1518	0.5306	-0.02
Mof_H 	H 	0.4696	0.1547	0.5304	0
Mof_C 	C 	0.6653	0.1689	0.5934	-0.025
Mof_H 	H 	0.7015	0.1847	0.6358	0.026
Mof_C 	C 	0.6988	0.1274	0.5369	-0.059
Mof_H 	H 	0.7573	0.1209	0.5393	0.016
Mof_N 	N 	0.5763	0.185	0.5832	-0.1
Mof_C 	C 	0.1246	0.482	0.3827	0.024
Mof_H 	H 	0.0801	0.4584	0.4015	0.011
Mof_C 	C 	0.1629	0.5583	0.4106	-0.09
Mof_C 	C 	0.2291	0.5942	0.3818	0.027
Mof_H 	H 	0.2534	0.6468	0.399	0.013
Mof_C 	C 	0.2591	0.5503	0.3266	-0.213
Mof_C 	C 	0.2183	0.4763	0.2966	0.094
Mof_H 	H 	0.2346	0.4508	0.2571	-0.026
Mof_C 	C 	0.153	0.4397	0.3255	-0.173
Mof_C 	C 	0.1071	0.358	0.2973	0.382
Mof_C 	C 	0.3332	0.5929	0.3008	0.469
Mof_C 	C 	0.1265	0.61	0.4634	0.105
Mof_C 	C 	0.1189	0.7	0.4674	-0.252
Mof_H 	H 	0.1291	0.7346	0.4299	0.076
Mof_C 	C 	0.0966	0.7383	0.5263	0.191
Mof_H 	H 	0.0894	0.7982	0.5266	-0.114
Mof_N 	N 	0.0842	0.6903	0.5857	-0.091
Mof_C 	C 	0.0871	0.607	0.5806	0.421
Mof_H 	H 	0.0695	0.5744	0.6161	-0.147
Mof_C 	C 	0.1148	0.5618	0.5253	-0.365
Mof_H 	H 	0.1253	0.5023	0.5287	0.133
Mof_O 	O 	0.3621	0.6586	0.3321	-0.56
Mof_O 	O 	0.36	0.5582	0.2487	-0.841
Mof_O 	O 	0.057	0.3262	0.3341	-0.509
Mof_O 	O 	0.1229	0.3249	0.2397	-0.435
Mof_Co	Co	0.95975	0.24172	0.32974	1.165
Mof_C 	C 	0.14	0.598	0.4791	-0.023
Mof_C 	C 	0.0513	0.6114	0.4732	0.216
Mof_H 	H 	0.0117	0.5942	0.4332	-0.087
Mof_C 	C 	0.0279	0.6518	0.5306	-0.429
Mof_H 	H 	0.9696	0.6547	0.5304	0.191
Mof_C 	C 	0.1653	0.6689	0.5934	-0.209
Mof_H 	H 	0.2015	0.6847	0.6358	0.086
Mof_C 	C 	0.1988	0.6274	0.5369	0.089
Mof_H 	H 	0.2573	0.6209	0.5393	-0.044
Mof_N 	N 	0.0763	0.685	0.5832	-0.105
Mof_C 	C 	0.6246	0.018	0.8827	0.02
Mof_H 	H 	0.5801	0.0416	0.9015	0.024
Mof_C 	C 	0.6629	0.9417	0.9106	-0.081
Mof_C 	C 	0.7291	0.9058	0.8818	0.024
Mof_H 	H 	0.7534	0.8532	0.899	0.016
Mof_C 	C 	0.7591	0.9497	0.8266	-0.198
Mof_C 	C 	0.7183	0.0237	0.7966	0.089
Mof_H 	H 	0.7346	0.0492	0.7571	-0.015
Mof_C 	C 	0.653	0.0603	0.8255	-0.158
Mof_C 	C 	0.6071	0.142	0.7973	0.38
Mof_C 	C 	0.8332	0.9071	0.8008	0.462
Mof_C 	C 	0.6265	0.89	0.9634	0.04
Mof_C 	C 	0.6189	0.8	0.9674	-0.116
Mof_H 	H 	0.6291	0.7654	0.9299	0.031
Mof_C 	C 	0.5966	0.7617	0.0263	0.031
Mof_H 	H 	0.5894	0.7018	0.0266	-0.049
Mof_N 	N 	0.5842	0.8097	0.0857	-0.103
Mof_C 	C 	0.5871	0.893	0.0806	0.066
Mof_H 	H 	0.5695	0.9256	0.1161	-0.001
Mof_C 	C 	0.6148	0.9382	0.0253	-0.095
Mof_H 	H 	0.6253	0.9977	0.0287	0.05
Mof_O 	O 	0.8621	0.8414	0.8321	-0.542
Mof_O 	O 	0.86	0.9418	0.7487	-0.783
Mof_O 	O 	0.557	0.1738	0.8341	-0.48
Mof_O 	O 	0.6229	0.1751	0.7397	-0.423
Mof_Co	Co	0.45975	0.25828	0.82974	1.138
Mof_C 	C 	0.64	0.902	0.9791	0.047
Mof_C 	C 	0.5513	0.8886	0.9732	-0.094
Mof_H 	H 	0.5117	0.9058	0.9332	0.045
Mof_C 	C 	0.5279	0.8482	0.0306	0.013
Mof_H 	H 	0.4696	0.8453	0.0304	-0.009
Mof_C 	C 	0.6653	0.8311	0.0934	-0.011
Mof_H 	H 	0.7015	0.8153	0.1358	0.021
Mof_C 	C 	0.6988	0.8726	0.0369	-0.067
Mof_H 	H 	0.7573	0.8791	0.0393	0.021
Mof_N 	N 	0.5763	0.815	0.0832	-0.1
Mof_C 	C 	0.1246	0.518	0.8827	0.022
Mof_H 	H 	0.0801	0.5416	0.9015	0.01
Mof_C 	C 	0.1629	0.4417	0.9106	-0.089
Mof_C 	C 	0.2291	0.4058	0.8818	0.026
Mof_H 	H 	0.2534	0.3532	0.899	0.013
Mof_C 	C 	0.2591	0.4497	0.8266	-0.213
Mof_C 	C 	0.2183	0.5237	0.7966	0.093
Mof_H 	H 	0.2346	0.5492	0.7571	-0.026
Mof_C 	C 	0.153	0.5603	0.8255	-0.173
Mof_C 	C 	0.1071	0.642	0.7973	0.382
Mof_C 	C 	0.3332	0.4071	0.8008	0.468
Mof_C 	C 	0.1265	0.39	0.9634	0.089
Mof_C 	C 	0.1189	0.3	0.9674	-0.249
Mof_H 	H 	0.1291	0.2654	0.9299	0.074
Mof_C 	C 	0.0966	0.2617	0.0263	0.188
Mof_H 	H 	0.0894	0.2018	0.0266	-0.111
Mof_N 	N 	0.0842	0.3097	0.0857	-0.092
Mof_C 	C 	0.0871	0.393	0.0806	0.398
Mof_H 	H 	0.0695	0.4256	0.1161	-0.139
Mof_C 	C 	0.1148	0.4382	0.0253	-0.341
Mof_H 	H 	0.1253	0.4977	0.0287	0.126
Mof_O 	O 	0.3621	0.3414	0.8321	-0.56
Mof_O 	O 	0.36	0.4418	0.7487	-0.841
Mof_O 	O 	0.057	0.6738	0.8341	-0.509
Mof_O 	O 	0.1229	0.6751	0.7397	-0.435
Mof_Co	Co	0.95975	0.75828	0.82974	1.164
Mof_C 	C 	0.14	0.402	0.9791	-0.013
Mof_C 	C 	0.0513	0.3886	0.9732	0.191
Mof_H 	H 	0.0117	0.4058	0.9332	-0.079
Mof_C 	C 	0.0279	0.3482	0.0306	-0.402
Mof_H 	H 	0.9696	0.3453	0.0304	0.183
Mof_C 	C 	0.1653	0.3311	0.0934	-0.198
Mof_H 	H 	0.2015	0.3153	0.1358	0.082
Mof_C 	C 	0.1988	0.3726	0.0369	0.082
Mof_H 	H 	0.2573	0.3791	0.0393	-0.04
Mof_N 	N 	0.0763	0.315	0.0832	-0.105
Mof_C 	C 	0.3754	0.018	0.6173	0.021
Mof_H 	H 	0.4199	0.0416	0.5985	0.024
Mof_C 	C 	0.3371	0.9417	0.5894	-0.084
Mof_C 	C 	0.2709	0.9058	0.6182	0.025
Mof_H 	H 	0.2466	0.8532	0.601	0.015
Mof_C 	C 	0.2409	0.9497	0.6734	-0.208
Mof_C 	C 	0.2817	0.0237	0.7034	0.09
Mof_H 	H 	0.2654	0.0492	0.7429	-0.023
Mof_C 	C 	0.347	0.0603	0.6745	-0.164
Mof_C 	C 	0.3929	0.142	0.7027	0.38
Mof_C 	C 	0.1668	0.9071	0.6992	0.462
Mof_C 	C 	0.3735	0.89	0.5366	0.059
Mof_C 	C 	0.3811	0.8	0.5326	-0.118
Mof_H 	H 	0.3709	0.7654	0.5701	0.033
Mof_C 	C 	0.4034	0.7617	0.4737	0.033
Mof_H 	H 	0.4106	0.7018	0.4734	-0.051
Mof_N 	N 	0.4158	0.8097	0.4143	-0.101
Mof_C 	C 	0.4129	0.893	0.4194	0.094
Mof_H 	H 	0.4305	0.9256	0.3839	-0.012
Mof_C 	C 	0.3852	0.9382	0.4747	-0.126
Mof_H 	H 	0.3747	0.9977	0.4713	0.055
Mof_O 	O 	0.1379	0.8414	0.6679	-0.557
Mof_O 	O 	0.14	0.9418	0.7513	-0.816
Mof_O 	O 	0.443	0.1738	0.6659	-0.481
Mof_O 	O 	0.3771	0.1751	0.7603	-0.426
Mof_Co	Co	0.54025	0.25828	0.67026	1.138
Mof_C 	C 	0.36	0.902	0.5209	0.034
Mof_C 	C 	0.4487	0.8886	0.5268	-0.062
Mof_H 	H 	0.4883	0.9058	0.5668	0.035
Mof_C 	C 	0.4721	0.8482	0.4694	-0.02
Mof_H 	H 	0.5304	0.8453	0.4696	0.002
Mof_C 	C 	0.3347	0.8311	0.4066	-0.025
Mof_H 	H 	0.2985	0.8153	0.3642	0.02
Mof_C 	C 	0.3012	0.8726	0.4631	-0.06
Mof_H 	H 	0.2427	0.8791	0.4607	0.007
Mof_N 	N 	0.4237	0.815	0.4168	-0.1
Mof_C 	C 	0.8754	0.518	0.6173	0.017
Mof_H 	H 	0.9199	0.5416	0.5985	0.038
Mof_C 	C 	0.8371	0.4417	0.5894	-0.077
Mof_C 	C 	0.7709	0.4058	0.6182	0.025
Mof_H 	H 	0.7466	0.3532	0.601	0.017
Mof_C 	C 	0.7409	0.4497	0.6734	-0.202
Mof_C 	C 	0.7817	0.5237	0.7034	0.088
Mof_H 	H 	0.7654	0.5492	0.7429	-0.019
Mof_C 	C 	0.847	0.5603	0.6745	-0.151
Mof_C 	C 	0.8929	0.642	0.7027	0.378
Mof_C 	C 	0.6668	0.4071	0.6992	0.469
Mof_C 	C 	0.8735	0.39	0.5366	0.012
Mof_C 	C 	0.8811	0.3	0.5326	0.02
Mof_H 	H 	0.8709	0.2654	0.5701	-0.006
Mof_C 	C 	0.9034	0.2617	0.4737	-0.129
Mof_H 	H 	0.9106	0.2018	0.4734	0.02
Mof_N 	N 	0.9158	0.3097	0.4143	-0.111
Mof_C 	C 	0.9129	0.393	0.4194	-0.239
Mof_H 	H 	0.9305	0.4256	0.3839	0.126
Mof_C 	C 	0.8852	0.4382	0.4747	0.117
Mof_H 	H 	0.8747	0.4977	0.4713	-0.022
Mof_O 	O 	0.6379	0.3414	0.6679	-0.558
Mof_O 	O 	0.64	0.4418	0.7513	-0.837
Mof_O 	O 	0.943	0.6738	0.6659	-0.446
Mof_O 	O 	0.8771	0.6751	0.7603	-0.412
Mof_Co	Co	0.04025	0.75828	0.67026	1.123
Mof_C 	C 	0.86	0.402	0.5209	0.093
Mof_C 	C 	0.9487	0.3886	0.5268	-0.345
Mof_H 	H 	0.9883	0.4058	0.5668	0.161
Mof_C 	C 	0.9721	0.3482	0.4694	0.398
Mof_H 	H 	0.0304	0.3453	0.4696	-0.189
Mof_C 	C 	0.8347	0.3311	0.4066	0.163
Mof_H 	H 	0.7985	0.3153	0.3642	-0.045
Mof_C 	C 	0.8012	0.3726	0.4631	-0.211
Mof_H 	H 	0.7427	0.3791	0.4607	0.062
Mof_N 	N 	0.9237	0.315	0.4168	-0.094
Mof_Na	Na	0.5	0.5502	0.25	3.14
Mof_O 	O 	0.5	0.6596	0.25	-1.296
Mof_Na	Na	1.33787e-33	0.0502	0.25	2.945
Mof_O 	O 	1.33787e-33	0.1596	0.25	-1.279
Mof_Na	Na	0.5	0.4498	0.75	3.133
Mof_O 	O 	0.5	0.3404	0.75	-1.295
Mof_Na	Na	4.01361e-33	0.9498	0.75	2.941
Mof_O 	O 	4.01361e-33	0.8404	0.75	-1.278
_end
