data_functionalizedCrystal
_audit_creation_method	'EQeq! by Chris Wilmer'
_symmetry_space_group_name_H-M	'P1'
_symmetry_Int_Tables_number	1
_symmetry_cell_setting	triclinic
loop_
_symmetry_equiv_pos_as_xyz
  x,y,z
_cell_length_a	6.7907
_cell_length_b	22.245
_cell_length_c	7.7387
_cell_angle_alpha	90
_cell_angle_beta	90
_cell_angle_gamma	90
loop_
_atom_site_label
_atom_site_type_symbol
_atom_site_fract_x
_atom_site_fract_y
_atom_site_fract_z
_atom_site_charge
Mof_Ni	Ni	0.94965	0.78723	0.74155	1.12
Mof_Ni	Ni	0.05035	0.21277	0.74155	1.12
Mof_Ni	Ni	0.44965	0.71277	0.25845	1.123
Mof_Ni	Ni	0.55035	0.28723	0.25845	1.123
Mof_H 	H 	0.1614	0.699	0.6566	0.145
Mof_H 	H 	0.0962	0.6882	0.8342	0.133
Mof_H 	H 	0.8317	0.6153	0.8795	0.152
Mof_H 	H 	0.645	0.6267	0.7664	0.157
Mof_H 	H 	0.9437	0.6282	0.6066	0.036
Mof_H 	H 	0.5292	0.8294	0.7759	0.005
Mof_H 	H 	0.3427	0.914	0.7823	0.093
Mof_H 	H 	0.8107	0.0045	0.6124	0.078
Mof_H 	H 	0.9796	0.9165	0.6098	0.006
Mof_H 	H 	0.8386	0.301	0.6566	0.145
Mof_H 	H 	0.9038	0.3118	0.8342	0.132
Mof_H 	H 	0.1683	0.3847	0.8795	0.151
Mof_H 	H 	0.355	0.3733	0.7664	0.156
Mof_H 	H 	0.0563	0.3718	0.6066	0.035
Mof_H 	H 	0.4708	0.1706	0.7759	0.004
Mof_H 	H 	0.6573	0.086	0.7823	0.092
Mof_H 	H 	0.1893	0.9955	0.6124	0.077
Mof_H 	H 	0.0204	0.0835	0.6098	0.005
Mof_H 	H 	0.6614	0.801	0.3434	0.143
Mof_H 	H 	0.5962	0.8118	0.1658	0.13
Mof_H 	H 	0.3317	0.8847	0.1205	0.152
Mof_H 	H 	0.145	0.8733	0.2336	0.157
Mof_H 	H 	0.4437	0.8718	0.3934	0.035
Mof_H 	H 	0.0292	0.6706	0.2241	0.003
Mof_H 	H 	0.8427	0.586	0.2177	0.096
Mof_H 	H 	0.3107	0.4955	0.3876	0.076
Mof_H 	H 	0.4796	0.5835	0.3902	0.006
Mof_H 	H 	0.3386	0.199	0.3434	0.143
Mof_H 	H 	0.4038	0.1882	0.1658	0.13
Mof_H 	H 	0.6683	0.1153	0.1205	0.152
Mof_H 	H 	0.855	0.1267	0.2336	0.157
Mof_H 	H 	0.5563	0.1282	0.3934	0.035
Mof_H 	H 	0.9708	0.3294	0.2241	0.003
Mof_H 	H 	0.1573	0.414	0.2177	0.096
Mof_H 	H 	0.6893	0.5045	0.3876	0.076
Mof_H 	H 	0.5204	0.4165	0.3902	0.006
Mof_C 	C 	0.6956	0.69511	0.9389	0.442
Mof_C 	C 	0.7619	0.64566	0.8134	-0.395
Mof_C 	C 	0.8918	0.6642	0.6636	-0.001
Mof_C 	C 	0.7708	0.70095	0.5333	0.31
Mof_C 	C 	0.591	0.86619	0.7579	0.092
Mof_C 	C 	0.4768	0.91691	0.7592	-0.151
Mof_C 	C 	0.5589	0.97154	0.7267	0.058
Mof_C 	C 	0.7539	0.9699	0.658	-0.136
Mof_C 	C 	0.8552	0.9176	0.66	0.071
Mof_C 	C 	0.3044	0.30489	0.9389	0.442
Mof_C 	C 	0.2381	0.35434	0.8134	-0.395
Mof_C 	C 	0.1082	0.3358	0.6636	-0.001
Mof_C 	C 	0.2292	0.29905	0.5333	0.31
Mof_C 	C 	0.409	0.13381	0.7579	0.092
Mof_C 	C 	0.5232	0.08309	0.7592	-0.151
Mof_C 	C 	0.4411	0.02846	0.7267	0.058
Mof_C 	C 	0.2461	0.0301	0.658	-0.136
Mof_C 	C 	0.1448	0.0824	0.66	0.071
Mof_C 	C 	0.1956	0.80489	0.0611	0.443
Mof_C 	C 	0.2619	0.85434	0.1866	-0.397
Mof_C 	C 	0.3918	0.8358	0.3364	0.006
Mof_C 	C 	0.2708	0.79905	0.4667	0.309
Mof_C 	C 	0.091	0.63381	0.2421	0.102
Mof_C 	C 	0.9768	0.58309	0.2408	-0.164
Mof_C 	C 	0.0589	0.52846	0.2733	0.063
Mof_C 	C 	0.2539	0.5301	0.342	-0.137
Mof_C 	C 	0.3552	0.5824	0.34	0.073
Mof_C 	C 	0.8044	0.19511	0.0611	0.443
Mof_C 	C 	0.7381	0.14566	0.1866	-0.397
Mof_C 	C 	0.6082	0.1642	0.3364	0.006
Mof_C 	C 	0.7292	0.20095	0.4667	0.309
Mof_C 	C 	0.909	0.36619	0.2421	0.102
Mof_C 	C 	0.0232	0.41691	0.2408	-0.164
Mof_C 	C 	0.9411	0.47154	0.2733	0.063
Mof_C 	C 	0.7461	0.4699	0.342	-0.137
Mof_C 	C 	0.6448	0.4176	0.34	0.073
Mof_N 	N 	0.058	0.70098	0.729	-0.338
Mof_N 	N 	0.7819	0.86618	0.733	-0.218
Mof_N 	N 	0.942	0.29902	0.729	-0.338
Mof_N 	N 	0.2181	0.13382	0.733	-0.218
Mof_N 	N 	0.558	0.79902	0.271	-0.342
Mof_N 	N 	0.2819	0.63382	0.267	-0.219
Mof_N 	N 	0.442	0.20098	0.271	-0.342
Mof_N 	N 	0.7181	0.36618	0.267	-0.219
Mof_O 	O 	0.7949	0.75689	0.5362	-0.414
Mof_O 	O 	0.6587	0.67301	0.434	-0.377
Mof_O 	O 	0.7358	0.74939	0.9127	-0.431
Mof_O 	O 	0.5996	0.67468	0.0645	-0.442
Mof_O 	O 	0.2051	0.24311	0.5362	-0.414
Mof_O 	O 	0.3413	0.32699	0.434	-0.377
Mof_O 	O 	0.2642	0.25061	0.9127	-0.431
Mof_O 	O 	0.4004	0.32532	0.0645	-0.442
Mof_O 	O 	0.2949	0.74311	0.4638	-0.411
Mof_O 	O 	0.1587	0.82699	0.566	-0.373
Mof_O 	O 	0.2358	0.75061	0.0873	-0.428
Mof_O 	O 	0.0996	0.82532	0.9355	-0.437
Mof_O 	O 	0.7051	0.25689	0.4638	-0.411
Mof_O 	O 	0.8413	0.17301	0.566	-0.373
Mof_O 	O 	0.7642	0.24939	0.0873	-0.428
Mof_O 	O 	0.9004	0.17468	0.9355	-0.437
_end
