data_functionalizedCrystal
_audit_creation_method	'EQeq! by Chris Wilmer'
_symmetry_space_group_name_H-M	'P1'
_symmetry_Int_Tables_number	1
_symmetry_cell_setting	triclinic
loop_
_symmetry_equiv_pos_as_xyz
  x,y,z
_cell_length_a	8.2336
_cell_length_b	9.697
_cell_length_c	19.402
_cell_angle_alpha	90
_cell_angle_beta	90
_cell_angle_gamma	101.727
loop_
_atom_site_label
_atom_site_type_symbol
_atom_site_fract_x
_atom_site_fract_y
_atom_site_fract_z
_atom_site_charge
Mof_Zn	Zn	0.28491	0.15703	0.29588	1.268
Mof_Zn	Zn	0.63815	0.05313	0.23975	1.22
Mof_Zn	Zn	0.71509	0.84297	0.79588	1.268
Mof_Zn	Zn	0.36185	0.94687	0.73975	1.222
Mof_H 	H 	0.1482	0.1977	0.3215	-0.218
Mof_H 	H 	0.9868	0.3663	0.3793	0.474
Mof_H 	H 	0.0169	0.2257	0.4094	0.477
Mof_H 	H 	0.2119	0.4695	0.4102	-0.277
Mof_H 	H 	0.2603	0.3286	0.4338	-0.293
Mof_H 	H 	0.1147	0.3817	0.4705	-0.298
Mof_H 	H 	0.8518	0.8023	0.8215	-0.219
Mof_H 	H 	0.0132	0.6337	0.8793	0.481
Mof_H 	H 	0.9831	0.7743	0.9094	0.486
Mof_H 	H 	0.7881	0.5305	0.9102	-0.281
Mof_H 	H 	0.7397	0.6714	0.9338	-0.295
Mof_H 	H 	0.8853	0.6183	0.9705	-0.298
Mof_C 	C 	0.4689	0.1901	0.0456	0.272
Mof_C 	C 	0.5154	0.1536	0.9816	0.335
Mof_C 	C 	0.4713	0.0159	0.9574	-0.17
Mof_C 	C 	0.3786	0.9184	0.0012	0.238
Mof_C 	C 	0.3307	0.956	0.0654	0.307
Mof_C 	C 	0.3762	0.0921	0.0895	-0.237
Mof_C 	C 	0.3248	0.133	0.1603	0.484
Mof_C 	C 	0.5206	0.9744	0.8865	0.506
Mof_C 	C 	0.8594	0.712	0.226	0.286
Mof_C 	C 	0.7829	0.5724	0.2258	0.295
Mof_C 	C 	0.7073	0.5078	0.2843	-0.213
Mof_C 	C 	0.7135	0.5888	0.3429	0.291
Mof_C 	C 	0.7944	0.7296	0.3428	0.308
Mof_C 	C 	0.8677	0.7934	0.2846	-0.254
Mof_C 	C 	0.9588	0.9473	0.2846	0.515
Mof_C 	C 	0.6127	0.3552	0.2828	0.504
Mof_C 	C 	0.0709	0.31	0.3854	-1.288
Mof_C 	C 	0.17	0.376	0.4273	1.374
Mof_C 	C 	0.5311	0.8099	0.5456	0.302
Mof_C 	C 	0.4846	0.8464	0.4816	0.31
Mof_C 	C 	0.5287	0.9841	0.4574	-0.194
Mof_C 	C 	0.6214	0.0816	0.5012	0.288
Mof_C 	C 	0.6693	0.044	0.5654	0.291
Mof_C 	C 	0.6238	0.9079	0.5895	-0.23
Mof_C 	C 	0.6752	0.867	0.6603	0.483
Mof_C 	C 	0.4794	0.0256	0.3865	0.507
Mof_C 	C 	0.1406	0.288	0.726	0.287
Mof_C 	C 	0.2171	0.4276	0.7258	0.296
Mof_C 	C 	0.2927	0.4922	0.7843	-0.213
Mof_C 	C 	0.2865	0.4112	0.8429	0.292
Mof_C 	C 	0.2056	0.2704	0.8428	0.308
Mof_C 	C 	0.1323	0.2066	0.7846	-0.253
Mof_C 	C 	0.0412	0.0527	0.7846	0.511
Mof_C 	C 	0.3873	0.6448	0.7828	0.504
Mof_C 	C 	0.9291	0.69	0.8854	-1.308
Mof_C 	C 	0.83	0.624	0.9273	1.395
Mof_O 	O 	0.3935	0.0865	0.21158	-0.553
Mof_O 	O 	0.2197	0.2038	0.1661	-0.276
Mof_O 	O 	0.627	0.9005	0.88553	-0.392
Mof_O 	O 	0.45	0.0169	0.83701	-0.423
Mof_O 	O 	0.1091	0.9672	0.295	-0.368
Mof_O 	O 	0.8766	0.0405	0.2742	-0.425
Mof_O 	O 	0.6959	0.2638	0.2702	-0.418
Mof_O 	O 	0.4612	0.3411	0.2933	-0.392
Mof_O 	O 	0.1028	0.2653	0.3188	0.168
Mof_O 	O 	0.6065	0.9135	0.71158	-0.55
Mof_O 	O 	0.7803	0.7962	0.6661	-0.272
Mof_O 	O 	0.373	0.0995	0.38553	-0.397
Mof_O 	O 	0.55	0.9831	0.33701	-0.421
Mof_O 	O 	0.8909	0.0328	0.795	-0.368
Mof_O 	O 	0.1234	0.9595	0.7742	-0.42
Mof_O 	O 	0.3041	0.7362	0.7702	-0.416
Mof_O 	O 	0.5388	0.6589	0.7933	-0.391
Mof_O 	O 	0.8972	0.7347	0.8188	0.174
Mof_F 	F 	0.5187	0.3238	0.066	-0.349
Mof_F 	F 	0.6057	0.2518	0.94062	-0.352
Mof_F 	F 	0.3301	0.7841	0.98046	-0.346
Mof_F 	F 	0.2364	0.8579	0.1051	-0.362
Mof_F 	F 	0.9263	0.7703	0.16662	-0.364
Mof_F 	F 	0.7795	0.4991	0.16716	-0.357
Mof_F 	F 	0.6462	0.5332	0.40196	-0.344
Mof_F 	F 	0.8003	0.8037	0.40179	-0.381
Mof_F 	F 	0.4813	0.6762	0.566	-0.345
Mof_F 	F 	0.3943	0.7482	0.44062	-0.353
Mof_F 	F 	0.6699	0.2159	0.48046	-0.368
Mof_F 	F 	0.7636	0.1421	0.6051	-0.355
Mof_F 	F 	0.0737	0.2297	0.66662	-0.36
Mof_F 	F 	0.2205	0.5009	0.66716	-0.353
Mof_F 	F 	0.3538	0.4668	0.90196	-0.34
Mof_F 	F 	0.1997	0.1963	0.90179	-0.377
_end
