data_functionalizedCrystal
_audit_creation_method	'EQeq! by Chris Wilmer'
_symmetry_space_group_name_H-M	'P1'
_symmetry_Int_Tables_number	1
_symmetry_cell_setting	triclinic
loop_
_symmetry_equiv_pos_as_xyz
  x,y,z
_cell_length_a	24.42
_cell_length_b	24.42
_cell_length_c	14.7231
_cell_angle_alpha	90
_cell_angle_beta	90
_cell_angle_gamma	90
loop_
_atom_site_label
_atom_site_type_symbol
_atom_site_fract_x
_atom_site_fract_y
_atom_site_fract_z
_atom_site_charge
Mof_F 	F 	0.376	0.3258	0.0542	-0.077
Mof_F 	F 	0.3466	0.3651	0.1731	-0.088
Mof_F 	F 	0.2912	0.3379	0.0717	-0.083
Mof_O 	O 	0.44546	0.14745	0.0906	-0.673
Mof_O 	O 	0.3976	0.0834	0.166	-0.721
Mof_C 	C 	0.4078	0.1316	0.1408	0.737
Mof_C 	C 	0.3697	0.175	0.1768	-0.643
Mof_C 	C 	0.3715	0.2263	0.1412	0.765
Mof_H 	H 	0.399	0.2356	0.0983	-0.113
Mof_C 	C 	0.3326	0.2654	0.1681	-0.87
Mof_C 	C 	0.2954	0.2535	0.2348	0.608
Mof_C 	C 	0.2969	0.2016	0.2756	-1.091
Mof_H 	H 	0.2729	0.1933	0.3246	1.458
Mof_C 	C 	0.3337	0.1619	0.2443	0.859
Mof_H 	H 	0.3336	0.1261	0.2697	-0.18
Mof_C 	C 	0.3355	0.3198	0.1202	-0.695
Mof_O 	O 	0.474	0.9073	0.3041	-0.168
Mof_C 	C 	0.4486	0.9555	0.4156	-0.027
Mof_C 	C 	0.4503	0.9535	0.313	0.363
Mof_H 	H 	0.4103	0.0295	0.4179	0.165
Mof_F 	F 	0.2699	0.2244	0.4347	0.024
Mof_F 	F 	0.2824	0.1409	0.4086	-0.046
Mof_H 	H 	0.3321	0.3004	0.1399	1.043
Mof_C 	C 	0.2674	0.1891	0.363	-1.232
Mof_F 	F 	0.2121	0.1795	0.3586	-0.115
Mof_F 	F 	0.624	0.6742	0.0542	-0.075
Mof_F 	F 	0.6534	0.6349	0.1731	-0.086
Mof_F 	F 	0.7088	0.6621	0.0717	-0.081
Mof_O 	O 	0.55454	0.85255	0.0906	-0.667
Mof_O 	O 	0.6024	0.9166	0.166	-0.656
Mof_C 	C 	0.5922	0.8684	0.1408	0.721
Mof_C 	C 	0.6303	0.825	0.1768	-0.616
Mof_C 	C 	0.6285	0.7737	0.1412	0.755
Mof_H 	H 	0.601	0.7644	0.0983	-0.109
Mof_C 	C 	0.6674	0.7346	0.1681	-0.864
Mof_C 	C 	0.7046	0.7465	0.2348	0.602
Mof_C 	C 	0.7031	0.7984	0.2756	-1.06
Mof_H 	H 	0.7271	0.8067	0.3246	1.444
Mof_C 	C 	0.6663	0.8381	0.2443	0.841
Mof_H 	H 	0.6664	0.8739	0.2697	-0.144
Mof_C 	C 	0.6645	0.6802	0.1202	-0.707
Mof_O 	O 	0.526	0.0927	0.3041	-0.142
Mof_C 	C 	0.5514	0.0445	0.4156	-0.069
Mof_C 	C 	0.5497	0.0465	0.313	0.224
Mof_H 	H 	0.5897	0.9705	0.4179	0.263
Mof_F 	F 	0.7301	0.7756	0.4347	0.03
Mof_F 	F 	0.7176	0.8591	0.4086	-0.008
Mof_H 	H 	0.6679	0.6996	0.1399	1.049
Mof_C 	C 	0.7326	0.8109	0.363	-1.22
Mof_F 	F 	0.7879	0.8205	0.3586	-0.061
Mof_F 	F 	0.6742	0.376	0.5542	-0.061
Mof_F 	F 	0.6349	0.3466	0.6731	-0.082
Mof_F 	F 	0.6621	0.2912	0.5717	-0.071
Mof_O 	O 	0.85255	0.44546	0.5906	-0.659
Mof_O 	O 	0.9166	0.3976	0.666	-0.656
Mof_C 	C 	0.8684	0.4078	0.6408	0.72
Mof_C 	C 	0.825	0.3697	0.6768	-0.613
Mof_C 	C 	0.7737	0.3715	0.6412	0.754
Mof_H 	H 	0.7644	0.399	0.5983	-0.102
Mof_C 	C 	0.7346	0.3326	0.6681	-0.859
Mof_C 	C 	0.7465	0.2954	0.7348	0.601
Mof_C 	C 	0.7984	0.2969	0.7756	-1.064
Mof_H 	H 	0.8067	0.2729	0.8246	1.45
Mof_C 	C 	0.8381	0.3337	0.7443	0.842
Mof_H 	H 	0.8739	0.3336	0.7697	-0.146
Mof_C 	C 	0.6802	0.3355	0.6202	-0.705
Mof_O 	O 	0.0927	0.474	0.8041	-0.138
Mof_C 	C 	0.0445	0.4486	0.9156	-0.054
Mof_C 	C 	0.0465	0.4503	0.813	0.222
Mof_H 	H 	0.9705	0.4103	0.9179	0.237
Mof_F 	F 	0.7756	0.2699	0.9347	0.037
Mof_F 	F 	0.8591	0.2824	0.9086	-0.007
Mof_H 	H 	0.6996	0.3321	0.6399	1.047
Mof_C 	C 	0.8109	0.2674	0.863	-1.229
Mof_F 	F 	0.8205	0.2121	0.8586	-0.08
Mof_F 	F 	0.3258	0.624	0.5542	-0.062
Mof_F 	F 	0.3651	0.6534	0.6731	-0.083
Mof_F 	F 	0.3379	0.7088	0.5717	-0.072
Mof_O 	O 	0.14745	0.55454	0.5906	-0.663
Mof_O 	O 	0.0834	0.6024	0.666	-0.713
Mof_C 	C 	0.1316	0.5922	0.6408	0.736
Mof_C 	C 	0.175	0.6303	0.6768	-0.632
Mof_C 	C 	0.2263	0.6285	0.6412	0.761
Mof_H 	H 	0.2356	0.601	0.5983	-0.105
Mof_C 	C 	0.2654	0.6674	0.6681	-0.863
Mof_C 	C 	0.2535	0.7046	0.7348	0.606
Mof_C 	C 	0.2016	0.7031	0.7756	-1.075
Mof_H 	H 	0.1933	0.7271	0.8246	1.447
Mof_C 	C 	0.1619	0.6663	0.7443	0.853
Mof_H 	H 	0.1261	0.6664	0.7697	-0.169
Mof_C 	C 	0.3198	0.6645	0.6202	-0.697
Mof_O 	O 	0.9073	0.526	0.8041	-0.164
Mof_C 	C 	0.9555	0.5514	0.9156	-0.014
Mof_C 	C 	0.9535	0.5497	0.813	0.364
Mof_H 	H 	0.0295	0.5897	0.9179	0.144
Mof_F 	F 	0.2244	0.7301	0.9347	0.038
Mof_F 	F 	0.1409	0.7176	0.9086	-0.029
Mof_H 	H 	0.3004	0.6679	0.6399	1.043
Mof_C 	C 	0.1891	0.7326	0.863	-1.222
Mof_F 	F 	0.1795	0.7879	0.8586	-0.084
Mof_F 	F 	0.624	0.3258	0.9458	-0.049
Mof_F 	F 	0.6534	0.3651	0.8269	-0.081
Mof_F 	F 	0.7088	0.3379	0.9283	-0.062
Mof_O 	O 	0.55454	0.14745	0.9094	-0.652
Mof_O 	O 	0.6024	0.0834	0.834	-0.707
Mof_C 	C 	0.5922	0.1316	0.8592	0.735
Mof_C 	C 	0.6303	0.175	0.8232	-0.628
Mof_C 	C 	0.6285	0.2263	0.8588	0.76
Mof_H 	H 	0.601	0.2356	0.9017	-0.099
Mof_C 	C 	0.6674	0.2654	0.8319	-0.859
Mof_C 	C 	0.7046	0.2535	0.7652	0.605
Mof_C 	C 	0.7031	0.2016	0.7244	-1.077
Mof_H 	H 	0.7271	0.1933	0.6754	1.451
Mof_C 	C 	0.6663	0.1619	0.7557	0.853
Mof_H 	H 	0.6664	0.1261	0.7303	-0.17
Mof_C 	C 	0.6645	0.3198	0.8798	-0.696
Mof_O 	O 	0.526	0.9073	0.6959	-0.168
Mof_C 	C 	0.5514	0.9555	0.5844	-0.028
Mof_C 	C 	0.5497	0.9535	0.687	0.363
Mof_H 	H 	0.5897	0.0295	0.5821	0.168
Mof_F 	F 	0.7301	0.2244	0.5653	0.028
Mof_F 	F 	0.7176	0.1409	0.5914	-0.036
Mof_H 	H 	0.6679	0.3004	0.8601	1.041
Mof_C 	C 	0.7326	0.1891	0.637	-1.227
Mof_F 	F 	0.7879	0.1795	0.6414	-0.087
Mof_F 	F 	0.376	0.6742	0.9458	-0.048
Mof_F 	F 	0.3466	0.6349	0.8269	-0.08
Mof_F 	F 	0.2912	0.6621	0.9283	-0.061
Mof_O 	O 	0.44546	0.85255	0.9094	-0.648
Mof_O 	O 	0.3976	0.9166	0.834	-0.651
Mof_C 	C 	0.4078	0.8684	0.8592	0.719
Mof_C 	C 	0.3697	0.825	0.8232	-0.61
Mof_C 	C 	0.3715	0.7737	0.8588	0.752
Mof_H 	H 	0.399	0.7644	0.9017	-0.096
Mof_C 	C 	0.3326	0.7346	0.8319	-0.854
Mof_C 	C 	0.2954	0.7465	0.7652	0.601
Mof_C 	C 	0.2969	0.7984	0.7244	-1.067
Mof_H 	H 	0.2729	0.8067	0.6754	1.455
Mof_C 	C 	0.3337	0.8381	0.7557	0.842
Mof_H 	H 	0.3336	0.8739	0.7303	-0.147
Mof_C 	C 	0.3355	0.6802	0.8798	-0.703
Mof_O 	O 	0.474	0.0927	0.6959	-0.143
Mof_C 	C 	0.4486	0.0445	0.5844	-0.067
Mof_C 	C 	0.4503	0.0465	0.687	0.223
Mof_H 	H 	0.4103	0.9705	0.5821	0.261
Mof_F 	F 	0.2699	0.7756	0.5653	0.027
Mof_F 	F 	0.2824	0.8591	0.5914	-0.015
Mof_H 	H 	0.3321	0.6996	0.8601	1.045
Mof_C 	C 	0.2674	0.8109	0.637	-1.234
Mof_F 	F 	0.2121	0.8205	0.6414	-0.084
Mof_F 	F 	0.3258	0.376	0.4458	-0.063
Mof_F 	F 	0.3651	0.3466	0.3269	-0.085
Mof_F 	F 	0.3379	0.2912	0.4283	-0.073
Mof_O 	O 	0.14745	0.44546	0.4094	-0.664
Mof_O 	O 	0.0834	0.3976	0.334	-0.719
Mof_C 	C 	0.1316	0.4078	0.3592	0.737
Mof_C 	C 	0.175	0.3697	0.3232	-0.64
Mof_C 	C 	0.2263	0.3715	0.3588	0.764
Mof_H 	H 	0.2356	0.399	0.4017	-0.107
Mof_C 	C 	0.2654	0.3326	0.3319	-0.866
Mof_C 	C 	0.2535	0.2954	0.2652	0.608
Mof_C 	C 	0.2016	0.2969	0.2244	-1.094
Mof_H 	H 	0.1933	0.2729	0.1754	1.462
Mof_C 	C 	0.1619	0.3337	0.2557	0.86
Mof_H 	H 	0.1261	0.3336	0.2303	-0.181
Mof_C 	C 	0.3198	0.3355	0.3798	-0.694
Mof_O 	O 	0.9073	0.474	0.1959	-0.168
Mof_C 	C 	0.9555	0.4486	0.0844	-0.009
Mof_C 	C 	0.9535	0.4503	0.187	0.357
Mof_H 	H 	0.0295	0.4103	0.0821	0.186
Mof_F 	F 	0.2244	0.2699	0.0653	0.015
Mof_F 	F 	0.1409	0.2824	0.0914	-0.053
Mof_H 	H 	0.3004	0.3321	0.3601	1.041
Mof_C 	C 	0.1891	0.2674	0.137	-1.238
Mof_F 	F 	0.1795	0.2121	0.1414	-0.118
Mof_F 	F 	0.6742	0.624	0.4458	-0.062
Mof_F 	F 	0.6349	0.6534	0.3269	-0.084
Mof_F 	F 	0.6621	0.7088	0.4283	-0.071
Mof_O 	O 	0.85255	0.55454	0.4094	-0.659
Mof_O 	O 	0.9166	0.6024	0.334	-0.653
Mof_C 	C 	0.8684	0.5922	0.3592	0.72
Mof_C 	C 	0.825	0.6303	0.3232	-0.613
Mof_C 	C 	0.7737	0.6285	0.3588	0.754
Mof_H 	H 	0.7644	0.601	0.4017	-0.102
Mof_C 	C 	0.7346	0.6674	0.3319	-0.859
Mof_C 	C 	0.7465	0.7046	0.2652	0.602
Mof_C 	C 	0.7984	0.7031	0.2244	-1.062
Mof_H 	H 	0.8067	0.7271	0.1754	1.449
Mof_C 	C 	0.8381	0.6663	0.2557	0.842
Mof_H 	H 	0.8739	0.6664	0.2303	-0.145
Mof_C 	C 	0.6802	0.6645	0.3798	-0.705
Mof_O 	O 	0.0927	0.526	0.1959	-0.142
Mof_C 	C 	0.0445	0.5514	0.0844	-0.051
Mof_C 	C 	0.0465	0.5497	0.187	0.217
Mof_H 	H 	0.9705	0.5897	0.0821	0.283
Mof_F 	F 	0.7756	0.7301	0.0653	0.02
Mof_F 	F 	0.8591	0.7176	0.0914	-0.016
Mof_H 	H 	0.6996	0.6679	0.3601	1.047
Mof_C 	C 	0.8109	0.7326	0.137	-1.226
Mof_F 	F 	0.8205	0.7879	0.1414	-0.065
Mof_F 	F 	0.624	0.6742	0.9458	-0.048
Mof_F 	F 	0.6534	0.6349	0.8269	-0.08
Mof_F 	F 	0.7088	0.6621	0.9283	-0.061
Mof_O 	O 	0.55454	0.85255	0.9094	-0.647
Mof_O 	O 	0.6024	0.9166	0.834	-0.647
Mof_C 	C 	0.5922	0.8684	0.8592	0.719
Mof_C 	C 	0.6303	0.825	0.8232	-0.606
Mof_C 	C 	0.6285	0.7737	0.8588	0.751
Mof_H 	H 	0.601	0.7644	0.9017	-0.095
Mof_C 	C 	0.6674	0.7346	0.8319	-0.853
Mof_C 	C 	0.7046	0.7465	0.7652	0.6
Mof_C 	C 	0.7031	0.7984	0.7244	-1.056
Mof_H 	H 	0.7271	0.8067	0.6754	1.446
Mof_C 	C 	0.6663	0.8381	0.7557	0.838
Mof_H 	H 	0.6664	0.8739	0.7303	-0.141
Mof_C 	C 	0.6645	0.6802	0.8798	-0.705
Mof_O 	O 	0.526	0.0927	0.6959	-0.143
Mof_C 	C 	0.5514	0.0445	0.5844	-0.069
Mof_C 	C 	0.5497	0.0465	0.687	0.224
Mof_H 	H 	0.5897	0.9705	0.5821	0.264
Mof_F 	F 	0.7301	0.7756	0.5653	0.03
Mof_F 	F 	0.7176	0.8591	0.5914	-0.007
Mof_H 	H 	0.6679	0.6996	0.8601	1.046
Mof_C 	C 	0.7326	0.8109	0.637	-1.224
Mof_F 	F 	0.7879	0.8205	0.6414	-0.058
Mof_F 	F 	0.376	0.3258	0.9458	-0.05
Mof_F 	F 	0.3466	0.3651	0.8269	-0.081
Mof_F 	F 	0.2912	0.3379	0.9283	-0.062
Mof_O 	O 	0.44546	0.14745	0.9094	-0.652
Mof_O 	O 	0.3976	0.0834	0.834	-0.711
Mof_C 	C 	0.4078	0.1316	0.8592	0.736
Mof_C 	C 	0.3697	0.175	0.8232	-0.633
Mof_C 	C 	0.3715	0.2263	0.8588	0.761
Mof_H 	H 	0.399	0.2356	0.9017	-0.1
Mof_C 	C 	0.3326	0.2654	0.8319	-0.86
Mof_C 	C 	0.2954	0.2535	0.7652	0.606
Mof_C 	C 	0.2969	0.2016	0.7244	-1.088
Mof_H 	H 	0.2729	0.1933	0.6754	1.46
Mof_C 	C 	0.3337	0.1619	0.7557	0.856
Mof_H 	H 	0.3336	0.1261	0.7303	-0.177
Mof_C 	C 	0.3355	0.3198	0.8798	-0.694
Mof_O 	O 	0.474	0.9073	0.6959	-0.168
Mof_C 	C 	0.4486	0.9555	0.5844	-0.026
Mof_C 	C 	0.4503	0.9535	0.687	0.363
Mof_H 	H 	0.4103	0.0295	0.5821	0.166
Mof_F 	F 	0.2699	0.2244	0.5653	0.025
Mof_F 	F 	0.2824	0.1409	0.5914	-0.044
Mof_H 	H 	0.3321	0.3004	0.8601	1.04
Mof_C 	C 	0.2674	0.1891	0.637	-1.237
Mof_F 	F 	0.2121	0.1795	0.6414	-0.112
Mof_F 	F 	0.3258	0.624	0.4458	-0.063
Mof_F 	F 	0.3651	0.6534	0.3269	-0.085
Mof_F 	F 	0.3379	0.7088	0.4283	-0.073
Mof_O 	O 	0.14745	0.55454	0.4094	-0.664
Mof_O 	O 	0.0834	0.6024	0.334	-0.715
Mof_C 	C 	0.1316	0.5922	0.3592	0.736
Mof_C 	C 	0.175	0.6303	0.3232	-0.636
Mof_C 	C 	0.2263	0.6285	0.3588	0.762
Mof_H 	H 	0.2356	0.601	0.4017	-0.106
Mof_C 	C 	0.2654	0.6674	0.3319	-0.865
Mof_C 	C 	0.2535	0.7046	0.2652	0.607
Mof_C 	C 	0.2016	0.7031	0.2244	-1.083
Mof_H 	H 	0.1933	0.7271	0.1754	1.454
Mof_C 	C 	0.1619	0.6663	0.2557	0.856
Mof_H 	H 	0.1261	0.6664	0.2303	-0.174
Mof_C 	C 	0.3198	0.6645	0.3798	-0.696
Mof_O 	O 	0.9073	0.526	0.1959	-0.168
Mof_C 	C 	0.9555	0.5514	0.0844	-0.01
Mof_C 	C 	0.9535	0.5497	0.187	0.357
Mof_H 	H 	0.0295	0.5897	0.0821	0.188
Mof_F 	F 	0.2244	0.7301	0.0653	0.017
Mof_F 	F 	0.1409	0.7176	0.0914	-0.045
Mof_H 	H 	0.3004	0.6679	0.3601	1.042
Mof_C 	C 	0.1891	0.7326	0.137	-1.228
Mof_F 	F 	0.1795	0.7879	0.1414	-0.094
Mof_F 	F 	0.6742	0.376	0.4458	-0.062
Mof_F 	F 	0.6349	0.3466	0.3269	-0.084
Mof_F 	F 	0.6621	0.2912	0.4283	-0.071
Mof_O 	O 	0.85255	0.44546	0.4094	-0.66
Mof_O 	O 	0.9166	0.3976	0.334	-0.658
Mof_C 	C 	0.8684	0.4078	0.3592	0.72
Mof_C 	C 	0.825	0.3697	0.3232	-0.617
Mof_C 	C 	0.7737	0.3715	0.3588	0.755
Mof_H 	H 	0.7644	0.399	0.4017	-0.103
Mof_C 	C 	0.7346	0.3326	0.3319	-0.86
Mof_C 	C 	0.7465	0.2954	0.2652	0.602
Mof_C 	C 	0.7984	0.2969	0.2244	-1.073
Mof_H 	H 	0.8067	0.2729	0.1754	1.457
Mof_C 	C 	0.8381	0.3337	0.2557	0.845
Mof_H 	H 	0.8739	0.3336	0.2303	-0.151
Mof_C 	C 	0.6802	0.3355	0.3798	-0.703
Mof_O 	O 	0.0927	0.474	0.1959	-0.142
Mof_C 	C 	0.0445	0.4486	0.0844	-0.05
Mof_C 	C 	0.0465	0.4503	0.187	0.216
Mof_H 	H 	0.9705	0.4103	0.0821	0.281
Mof_F 	F 	0.7756	0.2699	0.0653	0.017
Mof_F 	F 	0.8591	0.2824	0.0914	-0.023
Mof_H 	H 	0.6996	0.3321	0.3601	1.046
Mof_C 	C 	0.8109	0.2674	0.137	-1.235
Mof_F 	F 	0.8205	0.2121	0.1414	-0.09
Mof_F 	F 	0.376	0.6742	0.0542	-0.075
Mof_F 	F 	0.3466	0.6349	0.1731	-0.086
Mof_F 	F 	0.2912	0.6621	0.0717	-0.08
Mof_O 	O 	0.44546	0.85255	0.0906	-0.667
Mof_O 	O 	0.3976	0.9166	0.166	-0.66
Mof_C 	C 	0.4078	0.8684	0.1408	0.721
Mof_C 	C 	0.3697	0.825	0.1768	-0.621
Mof_C 	C 	0.3715	0.7737	0.1412	0.757
Mof_H 	H 	0.399	0.7644	0.0983	-0.109
Mof_C 	C 	0.3326	0.7346	0.1681	-0.865
Mof_C 	C 	0.2954	0.7465	0.2348	0.603
Mof_C 	C 	0.2969	0.7984	0.2756	-1.07
Mof_H 	H 	0.2729	0.8067	0.3246	1.452
Mof_C 	C 	0.3337	0.8381	0.2443	0.845
Mof_H 	H 	0.3336	0.8739	0.2697	-0.15
Mof_C 	C 	0.3355	0.6802	0.1202	-0.705
Mof_O 	O 	0.474	0.0927	0.3041	-0.142
Mof_C 	C 	0.4486	0.0445	0.4156	-0.068
Mof_C 	C 	0.4503	0.0465	0.313	0.224
Mof_H 	H 	0.4103	0.9705	0.4179	0.26
Mof_F 	F 	0.2699	0.7756	0.4347	0.027
Mof_F 	F 	0.2824	0.8591	0.4086	-0.016
Mof_H 	H 	0.3321	0.6996	0.1399	1.048
Mof_C 	C 	0.2674	0.8109	0.363	-1.23
Mof_F 	F 	0.2121	0.8205	0.3586	-0.086
Mof_F 	F 	0.624	0.3258	0.0542	-0.076
Mof_F 	F 	0.6534	0.3651	0.1731	-0.087
Mof_F 	F 	0.7088	0.3379	0.0717	-0.082
Mof_O 	O 	0.55454	0.14745	0.0906	-0.671
Mof_O 	O 	0.6024	0.0834	0.166	-0.716
Mof_C 	C 	0.5922	0.1316	0.1408	0.737
Mof_C 	C 	0.6303	0.175	0.1768	-0.639
Mof_C 	C 	0.6285	0.2263	0.1412	0.764
Mof_H 	H 	0.601	0.2356	0.0983	-0.112
Mof_C 	C 	0.6674	0.2654	0.1681	-0.869
Mof_C 	C 	0.7046	0.2535	0.2348	0.608
Mof_C 	C 	0.7031	0.2016	0.2756	-1.081
Mof_H 	H 	0.7271	0.1933	0.3246	1.449
Mof_C 	C 	0.6663	0.1619	0.2443	0.855
Mof_H 	H 	0.6664	0.1261	0.2697	-0.173
Mof_C 	C 	0.6645	0.3198	0.1202	-0.697
Mof_O 	O 	0.526	0.9073	0.3041	-0.168
Mof_C 	C 	0.5514	0.9555	0.4156	-0.028
Mof_C 	C 	0.5497	0.9535	0.313	0.364
Mof_H 	H 	0.5897	0.0295	0.4179	0.168
Mof_F 	F 	0.7301	0.2244	0.4347	0.027
Mof_F 	F 	0.7176	0.1409	0.4086	-0.038
Mof_H 	H 	0.6679	0.3004	0.1399	1.044
Mof_C 	C 	0.7326	0.1891	0.363	-1.222
Mof_F 	F 	0.7879	0.1795	0.3586	-0.09
Mof_F 	F 	0.6742	0.624	0.5542	-0.061
Mof_F 	F 	0.6349	0.6534	0.6731	-0.082
Mof_F 	F 	0.6621	0.7088	0.5717	-0.071
Mof_O 	O 	0.85255	0.55454	0.5906	-0.658
Mof_O 	O 	0.9166	0.6024	0.666	-0.652
Mof_C 	C 	0.8684	0.5922	0.6408	0.719
Mof_C 	C 	0.825	0.6303	0.6768	-0.609
Mof_C 	C 	0.7737	0.6285	0.6412	0.753
Mof_H 	H 	0.7644	0.601	0.5983	-0.101
Mof_C 	C 	0.7346	0.6674	0.6681	-0.858
Mof_C 	C 	0.7465	0.7046	0.7348	0.601
Mof_C 	C 	0.7984	0.7031	0.7756	-1.054
Mof_H 	H 	0.8067	0.7271	0.8246	1.442
Mof_C 	C 	0.8381	0.6663	0.7443	0.838
Mof_H 	H 	0.8739	0.6664	0.7697	-0.14
Mof_C 	C 	0.6802	0.6645	0.6202	-0.707
Mof_O 	O 	0.0927	0.526	0.8041	-0.138
Mof_C 	C 	0.0445	0.5514	0.9156	-0.055
Mof_C 	C 	0.0465	0.5497	0.813	0.223
Mof_H 	H 	0.9705	0.5897	0.9179	0.239
Mof_F 	F 	0.7756	0.7301	0.9347	0.04
Mof_F 	F 	0.8591	0.7176	0.9086	0.001
Mof_H 	H 	0.6996	0.6679	0.6399	1.048
Mof_C 	C 	0.8109	0.7326	0.863	-1.219
Mof_F 	F 	0.8205	0.7879	0.8586	-0.055
Mof_F 	F 	0.3258	0.376	0.5542	-0.063
Mof_F 	F 	0.3651	0.3466	0.6731	-0.083
Mof_F 	F 	0.3379	0.2912	0.5717	-0.072
Mof_O 	O 	0.14745	0.44546	0.5906	-0.664
Mof_O 	O 	0.0834	0.3976	0.666	-0.717
Mof_C 	C 	0.1316	0.4078	0.6408	0.736
Mof_C 	C 	0.175	0.3697	0.6768	-0.637
Mof_C 	C 	0.2263	0.3715	0.6412	0.763
Mof_H 	H 	0.2356	0.399	0.5983	-0.106
Mof_C 	C 	0.2654	0.3326	0.6681	-0.864
Mof_C 	C 	0.2535	0.2954	0.7348	0.606
Mof_C 	C 	0.2016	0.2969	0.7756	-1.086
Mof_H 	H 	0.1933	0.2729	0.8246	1.455
Mof_C 	C 	0.1619	0.3337	0.7443	0.856
Mof_H 	H 	0.1261	0.3336	0.7697	-0.175
Mof_C 	C 	0.3198	0.3355	0.6202	-0.696
Mof_O 	O 	0.9073	0.474	0.8041	-0.163
Mof_C 	C 	0.9555	0.4486	0.9156	-0.013
Mof_C 	C 	0.9535	0.4503	0.813	0.363
Mof_H 	H 	0.0295	0.4103	0.9179	0.141
Mof_F 	F 	0.2244	0.2699	0.9347	0.035
Mof_F 	F 	0.1409	0.2824	0.9086	-0.036
Mof_H 	H 	0.3004	0.3321	0.6399	1.042
Mof_C 	C 	0.1891	0.2674	0.863	-1.231
Mof_F 	F 	0.1795	0.2121	0.8586	-0.108
Mof_Zr	Zr	0.5	0.10036	-0	3.211
Mof_Zr	Zr	0.5	0.89964	-0	3.21
Mof_Zr	Zr	0.89964	0.5	0.5	3.213
Mof_Zr	Zr	0.10036	0.5	0.5	3.214
Mof_Zr	Zr	0.42779	7.18786e-34	0.12003	3.182
Mof_C 	C 	0.4254	2.87515e-33	0.4518	-0.311
Mof_O 	O 	0.4277	1.43757e-33	0.2696	-0.745
Mof_Zr	Zr	0.57221	7.18786e-34	0.12003	3.183
Mof_C 	C 	0.5746	2.87515e-33	0.4518	-0.311
Mof_O 	O 	0.5723	1.43757e-33	0.2696	-0.743
Mof_Zr	Zr	1.40161e-33	0.42779	0.62003	3.182
Mof_C 	C 	7.90189e-33	0.4254	0.9518	-0.225
Mof_O 	O 	7.49002e-33	0.4277	0.7696	-0.744
Mof_Zr	Zr	1.40161e-33	0.57221	0.62003	3.182
Mof_C 	C 	-3.59869e-33	0.5746	0.9518	-0.225
Mof_O 	O 	-9.76086e-33	0.5723	0.7696	-0.743
Mof_Zr	Zr	0.57221	5.75029e-33	0.87997	3.185
Mof_C 	C 	0.5746	2.87515e-33	0.5482	-0.313
Mof_O 	O 	0.5723	0	0.7304	-0.742
Mof_Zr	Zr	0.42779	5.75029e-33	0.87997	3.185
Mof_C 	C 	0.4254	2.87515e-33	0.5482	-0.313
Mof_O 	O 	0.4277	0	0.7304	-0.744
Mof_Zr	Zr	-2.0162e-33	0.42779	0.37997	3.182
Mof_C 	C 	-2.40679e-33	0.4254	0.0482	-0.405
Mof_O 	O 	-9.16741e-34	0.4277	0.2304	-0.745
Mof_Zr	Zr	3.73409e-33	0.57221	0.37997	3.182
Mof_C 	C 	3.3435e-33	0.5746	0.0482	-0.405
Mof_O 	O 	-6.66703e-33	0.5723	0.2304	-0.743
Mof_O 	O 	0.5	0.0492	0.1201	-1.298
Mof_O 	O 	0.5	0.9508	0.1201	-1.203
Mof_O 	O 	0.9508	0.5	0.6201	-1.2
Mof_O 	O 	0.0492	0.5	0.6201	-1.298
Mof_O 	O 	0.5	0.0492	0.8799	-1.285
Mof_O 	O 	0.5	0.9508	0.8799	-1.19
Mof_O 	O 	0.0492	0.5	0.3799	-1.297
Mof_O 	O 	0.9508	0.5	0.3799	-1.2
Mof_O 	O 	0.4274	0.0489	-0	-1.373
Mof_O 	O 	0.5726	0.9511	-0	-1.265
Mof_O 	O 	0.9511	0.4274	0.5	-1.25
Mof_O 	O 	0.0489	0.5726	0.5	-1.357
Mof_O 	O 	0.5726	0.0489	-0	-1.37
Mof_O 	O 	0.4274	0.9511	-0	-1.268
Mof_O 	O 	0.0489	0.4274	0.5	-1.36
Mof_O 	O 	0.9511	0.5726	0.5	-1.247
Mof_S 	S 	0.4693	0.9144	0.5	0.154
Mof_S 	S 	0.5307	0.0856	0.5	0.142
Mof_S 	S 	0.0856	0.4693	-0	0.113
Mof_S 	S 	0.9144	0.5307	-0	0.127
Mof_S 	S 	0.5307	0.9144	0.5	0.157
Mof_S 	S 	0.4693	0.0856	0.5	0.14
Mof_S 	S 	0.9144	0.4693	-0	0.126
Mof_S 	S 	0.0856	0.5307	-0	0.115
_end
