data_functionalizedCrystal
_audit_creation_method	'EQeq! by Chris Wilmer'
_symmetry_space_group_name_H-M	'P1'
_symmetry_Int_Tables_number	1
_symmetry_cell_setting	triclinic
loop_
_symmetry_equiv_pos_as_xyz
  x,y,z
_cell_length_a	21.5012
_cell_length_b	11.7251
_cell_length_c	25.7606
_cell_angle_alpha	90
_cell_angle_beta	103.492
_cell_angle_gamma	90
loop_
_atom_site_label
_atom_site_type_symbol
_atom_site_fract_x
_atom_site_fract_y
_atom_site_fract_z
_atom_site_charge
Mof_Ag	Ag	0.05399	0.30408	0.03052	0.485
Mof_Cr	Cr	0.23033	0.36263	0.33752	2.55
Mof_O 	O 	0.20132	0.23224	0.29112	-0.728
Mof_O 	O 	0.20606	0.46394	0.27661	-0.735
Mof_O 	O 	0.2617	0.50592	0.88181	-0.734
Mof_O 	O 	0.14658	0.6208	0.85297	-0.724
Mof_O 	O 	0.81633	0.15369	0.826	-0.725
Mof_O 	O 	0.75292	0.23721	0.89914	-0.73
Mof_N 	N 	0.08651	0.3112	0.11658	-0.274
Mof_N 	N 	0.12975	0.3643	0.98816	-0.26
Mof_N 	N 	0.9672	0.3269	0.96587	-0.271
Mof_C 	C 	0.15146	0.1172	0.21829	-0.919
Mof_H 	H 	0.1598	0.0581	0.2459	0.296
Mof_H 	H 	0.177	0.1019	0.1921	0.296
Mof_H 	H 	0.1059	0.117	0.2004	0.267
Mof_C 	C 	0.16927	0.23124	0.24335	0.644
Mof_C 	C 	0.15221	0.3321	0.213	-0.56
Mof_C 	C 	0.17239	0.4427	0.23087	0.643
Mof_C 	C 	0.15561	0.5437	0.19442	-0.898
Mof_H 	H 	0.1113	0.5664	0.1926	0.26
Mof_H 	H 	0.1603	0.5233	0.1586	0.266
Mof_H 	H 	0.1843	0.6072	0.2082	0.298
Mof_C 	C 	0.11528	0.3198	0.15978	0.217
Mof_C 	C 	0.27103	0.3541	0.94302	-0.868
Mof_H 	H 	0.3137	0.3498	0.9356	0.256
Mof_H 	H 	0.2752	0.3663	0.9813	0.247
Mof_H 	H 	0.248	0.2826	0.9322	0.251
Mof_C 	C 	0.23475	0.451	0.91243	0.624
Mof_C 	C 	0.17248	0.476	0.91807	-0.544
Mof_C 	C 	0.13025	0.5567	0.88698	0.617
Mof_C 	C 	0.06341	0.5677	0.893	-0.87
Mof_H 	H 	0.0366	0.5096	0.8712	0.251
Mof_H 	H 	0.0626	0.5571	0.9306	0.241
Mof_H 	H 	0.047	0.6437	0.8812	0.263
Mof_C 	C 	0.14893	0.4126	0.95656	0.199
Mof_C 	C 	0.80969	0.3438	0.972	-0.887
Mof_H 	H 	0.8368	0.3065	0.0032	0.262
Mof_H 	H 	0.8274	0.4191	0.9671	0.259
Mof_H 	H 	0.7663	0.3527	0.9774	0.279
Mof_C 	C 	0.80753	0.2722	0.9232	0.624
Mof_C 	C 	0.86368	0.2511	0.90559	-0.558
Mof_C 	C 	0.86579	0.19199	0.8579	0.624
Mof_C 	C 	0.92737	0.1741	0.84242	-0.891
Mof_H 	H 	0.9197	0.1311	0.8089	0.269
Mof_H 	H 	0.9464	0.2481	0.8376	0.251
Mof_H 	H 	0.9566	0.1311	0.8705	0.25
Mof_C 	C 	0.92182	0.2909	0.9384	0.205
Mof_Ag	Ag	0.55399	0.80408	0.03052	0.483
Mof_Cr	Cr	0.73033	0.86263	0.33752	2.549
Mof_O 	O 	0.70132	0.73224	0.29112	-0.729
Mof_O 	O 	0.70606	0.96394	0.27661	-0.736
Mof_O 	O 	0.7617	0.00592	0.88181	-0.736
Mof_O 	O 	0.64658	0.1208	0.85297	-0.725
Mof_O 	O 	0.31633	0.65369	0.826	-0.726
Mof_O 	O 	0.25292	0.73721	0.89914	-0.731
Mof_N 	N 	0.58651	0.8112	0.11658	-0.275
Mof_N 	N 	0.62975	0.8643	0.98816	-0.261
Mof_N 	N 	0.4672	0.8269	0.96587	-0.272
Mof_C 	C 	0.65146	0.6172	0.21829	-0.919
Mof_H 	H 	0.6598	0.5581	0.2459	0.295
Mof_H 	H 	0.677	0.6019	0.1921	0.295
Mof_H 	H 	0.6059	0.617	0.2004	0.266
Mof_C 	C 	0.66927	0.73124	0.24335	0.643
Mof_C 	C 	0.65221	0.8321	0.213	-0.561
Mof_C 	C 	0.67239	0.9427	0.23087	0.641
Mof_C 	C 	0.65561	0.0437	0.19442	-0.898
Mof_H 	H 	0.6113	0.0664	0.1926	0.259
Mof_H 	H 	0.6603	0.0233	0.1586	0.266
Mof_H 	H 	0.6843	0.1072	0.2082	0.298
Mof_C 	C 	0.61528	0.8198	0.15978	0.217
Mof_C 	C 	0.77103	0.8541	0.94302	-0.868
Mof_H 	H 	0.8137	0.8498	0.9356	0.257
Mof_H 	H 	0.7752	0.8663	0.9813	0.247
Mof_H 	H 	0.748	0.7826	0.9322	0.251
Mof_C 	C 	0.73475	0.951	0.91243	0.625
Mof_C 	C 	0.67248	0.976	0.91807	-0.544
Mof_C 	C 	0.63025	0.0567	0.88698	0.616
Mof_C 	C 	0.56341	0.0677	0.893	-0.869
Mof_H 	H 	0.5366	0.0096	0.8712	0.251
Mof_H 	H 	0.5626	0.0571	0.9306	0.241
Mof_H 	H 	0.547	0.1437	0.8812	0.263
Mof_C 	C 	0.64893	0.9126	0.95656	0.198
Mof_C 	C 	0.30969	0.8438	0.972	-0.885
Mof_H 	H 	0.3368	0.8065	0.0032	0.261
Mof_H 	H 	0.3274	0.9191	0.9671	0.258
Mof_H 	H 	0.2663	0.8527	0.9774	0.279
Mof_C 	C 	0.30753	0.7722	0.9232	0.623
Mof_C 	C 	0.36368	0.7511	0.90559	-0.557
Mof_C 	C 	0.36579	0.69199	0.8579	0.624
Mof_C 	C 	0.42737	0.6741	0.84242	-0.891
Mof_H 	H 	0.4197	0.6311	0.8089	0.269
Mof_H 	H 	0.4464	0.7481	0.8376	0.251
Mof_H 	H 	0.4566	0.6311	0.8705	0.25
Mof_C 	C 	0.42182	0.7909	0.9384	0.205
Mof_Ag	Ag	0.05399	0.69592	0.53052	0.483
Mof_Cr	Cr	0.23033	0.63737	0.83752	2.549
Mof_O 	O 	0.20132	0.76776	0.79112	-0.729
Mof_O 	O 	0.20606	0.53606	0.77661	-0.736
Mof_O 	O 	0.2617	0.49408	0.38181	-0.735
Mof_O 	O 	0.14658	0.3792	0.35297	-0.725
Mof_O 	O 	0.81633	0.84631	0.326	-0.726
Mof_O 	O 	0.75292	0.76279	0.39914	-0.731
Mof_N 	N 	0.08651	0.6888	0.61658	-0.275
Mof_N 	N 	0.12975	0.6357	0.48816	-0.261
Mof_N 	N 	0.9672	0.6731	0.46587	-0.272
Mof_C 	C 	0.15146	0.8828	0.71829	-0.92
Mof_H 	H 	0.1598	0.9419	0.7459	0.295
Mof_H 	H 	0.177	0.8981	0.6921	0.295
Mof_H 	H 	0.1059	0.883	0.7004	0.266
Mof_C 	C 	0.16927	0.76876	0.74335	0.643
Mof_C 	C 	0.15221	0.6679	0.713	-0.561
Mof_C 	C 	0.17239	0.5573	0.73087	0.642
Mof_C 	C 	0.15561	0.4563	0.69442	-0.899
Mof_H 	H 	0.1113	0.4336	0.6926	0.259
Mof_H 	H 	0.1603	0.4767	0.6586	0.266
Mof_H 	H 	0.1843	0.3928	0.7082	0.298
Mof_C 	C 	0.11528	0.6802	0.65978	0.217
Mof_C 	C 	0.27103	0.6459	0.44302	-0.868
Mof_H 	H 	0.3137	0.6502	0.4356	0.256
Mof_H 	H 	0.2752	0.6337	0.4813	0.247
Mof_H 	H 	0.248	0.7174	0.4322	0.251
Mof_C 	C 	0.23475	0.549	0.41243	0.624
Mof_C 	C 	0.17248	0.524	0.41807	-0.544
Mof_C 	C 	0.13025	0.4433	0.38698	0.617
Mof_C 	C 	0.06341	0.4323	0.393	-0.869
Mof_H 	H 	0.0366	0.4904	0.3712	0.251
Mof_H 	H 	0.0626	0.4429	0.4306	0.241
Mof_H 	H 	0.047	0.3563	0.3812	0.263
Mof_C 	C 	0.14893	0.5874	0.45656	0.198
Mof_C 	C 	0.80969	0.6562	0.472	-0.886
Mof_H 	H 	0.8368	0.6935	0.5032	0.261
Mof_H 	H 	0.8274	0.5809	0.4671	0.258
Mof_H 	H 	0.7663	0.6473	0.4774	0.279
Mof_C 	C 	0.80753	0.7278	0.4232	0.624
Mof_C 	C 	0.86368	0.7489	0.40559	-0.557
Mof_C 	C 	0.86579	0.80801	0.3579	0.624
Mof_C 	C 	0.92737	0.8259	0.34242	-0.891
Mof_H 	H 	0.9197	0.8689	0.3089	0.269
Mof_H 	H 	0.9464	0.7519	0.3376	0.251
Mof_H 	H 	0.9566	0.8689	0.3705	0.25
Mof_C 	C 	0.92182	0.7091	0.4384	0.205
Mof_Ag	Ag	0.55399	0.19592	0.53052	0.483
Mof_Cr	Cr	0.73033	0.13737	0.83752	2.549
Mof_O 	O 	0.70132	0.26776	0.79112	-0.729
Mof_O 	O 	0.70606	0.03606	0.77661	-0.736
Mof_O 	O 	0.7617	0.99408	0.38181	-0.736
Mof_O 	O 	0.64658	0.8792	0.35297	-0.725
Mof_O 	O 	0.31633	0.34631	0.326	-0.726
Mof_O 	O 	0.25292	0.26279	0.39914	-0.731
Mof_N 	N 	0.58651	0.1888	0.61658	-0.275
Mof_N 	N 	0.62975	0.1357	0.48816	-0.261
Mof_N 	N 	0.4672	0.1731	0.46587	-0.272
Mof_C 	C 	0.65146	0.3828	0.71829	-0.919
Mof_H 	H 	0.6598	0.4419	0.7459	0.295
Mof_H 	H 	0.677	0.3981	0.6921	0.295
Mof_H 	H 	0.6059	0.383	0.7004	0.266
Mof_C 	C 	0.66927	0.26876	0.74335	0.643
Mof_C 	C 	0.65221	0.1679	0.713	-0.561
Mof_C 	C 	0.67239	0.0573	0.73087	0.642
Mof_C 	C 	0.65561	0.9563	0.69442	-0.898
Mof_H 	H 	0.6113	0.9336	0.6926	0.259
Mof_H 	H 	0.6603	0.9767	0.6586	0.265
Mof_H 	H 	0.6843	0.8928	0.7082	0.298
Mof_C 	C 	0.61528	0.1802	0.65978	0.217
Mof_C 	C 	0.77103	0.1459	0.44302	-0.868
Mof_H 	H 	0.8137	0.1502	0.4356	0.256
Mof_H 	H 	0.7752	0.1337	0.4813	0.247
Mof_H 	H 	0.748	0.2174	0.4322	0.251
Mof_C 	C 	0.73475	0.049	0.41243	0.624
Mof_C 	C 	0.67248	0.024	0.41807	-0.544
Mof_C 	C 	0.63025	0.9433	0.38698	0.617
Mof_C 	C 	0.56341	0.9323	0.393	-0.869
Mof_H 	H 	0.5366	0.9904	0.3712	0.251
Mof_H 	H 	0.5626	0.9429	0.4306	0.241
Mof_H 	H 	0.547	0.8563	0.3812	0.263
Mof_C 	C 	0.64893	0.0874	0.45656	0.198
Mof_C 	C 	0.30969	0.1562	0.472	-0.886
Mof_H 	H 	0.3368	0.1935	0.5032	0.261
Mof_H 	H 	0.3274	0.0809	0.4671	0.258
Mof_H 	H 	0.2663	0.1473	0.4774	0.279
Mof_C 	C 	0.30753	0.2278	0.4232	0.624
Mof_C 	C 	0.36368	0.2489	0.40559	-0.557
Mof_C 	C 	0.36579	0.30801	0.3579	0.624
Mof_C 	C 	0.42737	0.3259	0.34242	-0.891
Mof_H 	H 	0.4197	0.3689	0.3089	0.269
Mof_H 	H 	0.4464	0.2519	0.3376	0.251
Mof_H 	H 	0.4566	0.3689	0.3705	0.25
Mof_C 	C 	0.42182	0.2091	0.4384	0.205
Mof_Ag	Ag	0.94601	0.30408	0.46948	0.483
Mof_Cr	Cr	0.76967	0.36263	0.16248	2.549
Mof_O 	O 	0.79868	0.23224	0.20888	-0.729
Mof_O 	O 	0.79394	0.46394	0.22339	-0.736
Mof_O 	O 	0.7383	0.50592	0.61819	-0.735
Mof_O 	O 	0.85342	0.6208	0.64703	-0.725
Mof_O 	O 	0.18367	0.15369	0.674	-0.726
Mof_O 	O 	0.24708	0.23721	0.60086	-0.731
Mof_N 	N 	0.91349	0.3112	0.38342	-0.275
Mof_N 	N 	0.87025	0.3643	0.51184	-0.261
Mof_N 	N 	0.0328	0.3269	0.53413	-0.272
Mof_C 	C 	0.84854	0.1172	0.28171	-0.92
Mof_H 	H 	0.8402	0.0581	0.2541	0.295
Mof_H 	H 	0.823	0.1019	0.3079	0.295
Mof_H 	H 	0.8941	0.117	0.2996	0.266
Mof_C 	C 	0.83073	0.23124	0.25665	0.643
Mof_C 	C 	0.84779	0.3321	0.287	-0.561
Mof_C 	C 	0.82761	0.4427	0.26913	0.642
Mof_C 	C 	0.84439	0.5437	0.30558	-0.899
Mof_H 	H 	0.8887	0.5664	0.3074	0.259
Mof_H 	H 	0.8397	0.5233	0.3414	0.266
Mof_H 	H 	0.8157	0.6072	0.2918	0.298
Mof_C 	C 	0.88472	0.3198	0.34022	0.217
Mof_C 	C 	0.72897	0.3541	0.55698	-0.868
Mof_H 	H 	0.6863	0.3498	0.5644	0.256
Mof_H 	H 	0.7248	0.3663	0.5187	0.247
Mof_H 	H 	0.752	0.2826	0.5678	0.251
Mof_C 	C 	0.76525	0.451	0.58757	0.624
Mof_C 	C 	0.82752	0.476	0.58193	-0.544
Mof_C 	C 	0.86975	0.5567	0.61302	0.617
Mof_C 	C 	0.93659	0.5677	0.607	-0.869
Mof_H 	H 	0.9634	0.5096	0.6288	0.251
Mof_H 	H 	0.9374	0.5571	0.5694	0.241
Mof_H 	H 	0.953	0.6437	0.6188	0.263
Mof_C 	C 	0.85107	0.4126	0.54344	0.198
Mof_C 	C 	0.19031	0.3438	0.528	-0.886
Mof_H 	H 	0.1632	0.3065	0.4968	0.261
Mof_H 	H 	0.1726	0.4191	0.5329	0.258
Mof_H 	H 	0.2337	0.3527	0.5226	0.279
Mof_C 	C 	0.19247	0.2722	0.5768	0.624
Mof_C 	C 	0.13632	0.2511	0.59441	-0.557
Mof_C 	C 	0.13421	0.19199	0.6421	0.624
Mof_C 	C 	0.07263	0.1741	0.65758	-0.891
Mof_H 	H 	0.0803	0.1311	0.6911	0.269
Mof_H 	H 	0.0536	0.2481	0.6624	0.251
Mof_H 	H 	0.0434	0.1311	0.6295	0.25
Mof_C 	C 	0.07818	0.2909	0.5616	0.205
Mof_Ag	Ag	0.44601	0.80408	0.46948	0.483
Mof_Cr	Cr	0.26967	0.86263	0.16248	2.549
Mof_O 	O 	0.29868	0.73224	0.20888	-0.729
Mof_O 	O 	0.29394	0.96394	0.22339	-0.736
Mof_O 	O 	0.2383	0.00592	0.61819	-0.736
Mof_O 	O 	0.35342	0.1208	0.64703	-0.725
Mof_O 	O 	0.68367	0.65369	0.674	-0.726
Mof_O 	O 	0.74708	0.73721	0.60086	-0.731
Mof_N 	N 	0.41349	0.8112	0.38342	-0.275
Mof_N 	N 	0.37025	0.8643	0.51184	-0.261
Mof_N 	N 	0.5328	0.8269	0.53413	-0.272
Mof_C 	C 	0.34854	0.6172	0.28171	-0.919
Mof_H 	H 	0.3402	0.5581	0.2541	0.295
Mof_H 	H 	0.323	0.6019	0.3079	0.295
Mof_H 	H 	0.3941	0.617	0.2996	0.266
Mof_C 	C 	0.33073	0.73124	0.25665	0.643
Mof_C 	C 	0.34779	0.8321	0.287	-0.561
Mof_C 	C 	0.32761	0.9427	0.26913	0.642
Mof_C 	C 	0.34439	0.0437	0.30558	-0.898
Mof_H 	H 	0.3887	0.0664	0.3074	0.259
Mof_H 	H 	0.3397	0.0233	0.3414	0.265
Mof_H 	H 	0.3157	0.1072	0.2918	0.298
Mof_C 	C 	0.38472	0.8198	0.34022	0.217
Mof_C 	C 	0.22897	0.8541	0.55698	-0.868
Mof_H 	H 	0.1863	0.8498	0.5644	0.256
Mof_H 	H 	0.2248	0.8663	0.5187	0.247
Mof_H 	H 	0.252	0.7826	0.5678	0.251
Mof_C 	C 	0.26525	0.951	0.58757	0.624
Mof_C 	C 	0.32752	0.976	0.58193	-0.544
Mof_C 	C 	0.36975	0.0567	0.61302	0.617
Mof_C 	C 	0.43659	0.0677	0.607	-0.869
Mof_H 	H 	0.4634	0.0096	0.6288	0.251
Mof_H 	H 	0.4374	0.0571	0.5694	0.241
Mof_H 	H 	0.453	0.1437	0.6188	0.263
Mof_C 	C 	0.35107	0.9126	0.54344	0.198
Mof_C 	C 	0.69031	0.8438	0.528	-0.886
Mof_H 	H 	0.6632	0.8065	0.4968	0.261
Mof_H 	H 	0.6726	0.9191	0.5329	0.258
Mof_H 	H 	0.7337	0.8527	0.5226	0.279
Mof_C 	C 	0.69247	0.7722	0.5768	0.624
Mof_C 	C 	0.63632	0.7511	0.59441	-0.557
Mof_C 	C 	0.63421	0.69199	0.6421	0.624
Mof_C 	C 	0.57263	0.6741	0.65758	-0.891
Mof_H 	H 	0.5803	0.6311	0.6911	0.269
Mof_H 	H 	0.5536	0.7481	0.6624	0.251
Mof_H 	H 	0.5434	0.6311	0.6295	0.25
Mof_C 	C 	0.57818	0.7909	0.5616	0.205
Mof_Ag	Ag	0.94601	0.69592	0.96948	0.484
Mof_Cr	Cr	0.76967	0.63737	0.66248	2.549
Mof_O 	O 	0.79868	0.76776	0.70888	-0.729
Mof_O 	O 	0.79394	0.53606	0.72339	-0.736
Mof_O 	O 	0.7383	0.49408	0.11819	-0.735
Mof_O 	O 	0.85342	0.3792	0.14703	-0.725
Mof_O 	O 	0.18367	0.84631	0.174	-0.726
Mof_O 	O 	0.24708	0.76279	0.10086	-0.731
Mof_N 	N 	0.91349	0.6888	0.88342	-0.275
Mof_N 	N 	0.87025	0.6357	0.01184	-0.261
Mof_N 	N 	0.0328	0.6731	0.03413	-0.272
Mof_C 	C 	0.84854	0.8828	0.78171	-0.92
Mof_H 	H 	0.8402	0.9419	0.7541	0.295
Mof_H 	H 	0.823	0.8981	0.8079	0.295
Mof_H 	H 	0.8941	0.883	0.7996	0.266
Mof_C 	C 	0.83073	0.76876	0.75665	0.643
Mof_C 	C 	0.84779	0.6679	0.787	-0.561
Mof_C 	C 	0.82761	0.5573	0.76913	0.642
Mof_C 	C 	0.84439	0.4563	0.80558	-0.899
Mof_H 	H 	0.8887	0.4336	0.8074	0.259
Mof_H 	H 	0.8397	0.4767	0.8414	0.266
Mof_H 	H 	0.8157	0.3928	0.7918	0.298
Mof_C 	C 	0.88472	0.6802	0.84022	0.217
Mof_C 	C 	0.72897	0.6459	0.05698	-0.868
Mof_H 	H 	0.6863	0.6502	0.0644	0.256
Mof_H 	H 	0.7248	0.6337	0.0187	0.247
Mof_H 	H 	0.752	0.7174	0.0678	0.251
Mof_C 	C 	0.76525	0.549	0.08757	0.624
Mof_C 	C 	0.82752	0.524	0.08193	-0.544
Mof_C 	C 	0.86975	0.4433	0.11302	0.617
Mof_C 	C 	0.93659	0.4323	0.107	-0.87
Mof_H 	H 	0.9634	0.4904	0.1288	0.251
Mof_H 	H 	0.9374	0.4429	0.0694	0.241
Mof_H 	H 	0.953	0.3563	0.1188	0.263
Mof_C 	C 	0.85107	0.5874	0.04344	0.199
Mof_C 	C 	0.19031	0.6562	0.028	-0.887
Mof_H 	H 	0.1632	0.6935	0.9968	0.262
Mof_H 	H 	0.1726	0.5809	0.0329	0.259
Mof_H 	H 	0.2337	0.6473	0.0226	0.279
Mof_C 	C 	0.19247	0.7278	0.0768	0.624
Mof_C 	C 	0.13632	0.7489	0.09441	-0.558
Mof_C 	C 	0.13421	0.80801	0.1421	0.624
Mof_C 	C 	0.07263	0.8259	0.15758	-0.891
Mof_H 	H 	0.0803	0.8689	0.1911	0.269
Mof_H 	H 	0.0536	0.7519	0.1624	0.251
Mof_H 	H 	0.0434	0.8689	0.1295	0.25
Mof_C 	C 	0.07818	0.7091	0.0616	0.205
Mof_Ag	Ag	0.44601	0.19592	0.96948	0.483
Mof_Cr	Cr	0.26967	0.13737	0.66248	2.549
Mof_O 	O 	0.29868	0.26776	0.70888	-0.729
Mof_O 	O 	0.29394	0.03606	0.72339	-0.736
Mof_O 	O 	0.2383	0.99408	0.11819	-0.736
Mof_O 	O 	0.35342	0.8792	0.14703	-0.725
Mof_O 	O 	0.68367	0.34631	0.174	-0.726
Mof_O 	O 	0.74708	0.26279	0.10086	-0.731
Mof_N 	N 	0.41349	0.1888	0.88342	-0.275
Mof_N 	N 	0.37025	0.1357	0.01184	-0.261
Mof_N 	N 	0.5328	0.1731	0.03413	-0.272
Mof_C 	C 	0.34854	0.3828	0.78171	-0.919
Mof_H 	H 	0.3402	0.4419	0.7541	0.295
Mof_H 	H 	0.323	0.3981	0.8079	0.295
Mof_H 	H 	0.3941	0.383	0.7996	0.266
Mof_C 	C 	0.33073	0.26876	0.75665	0.643
Mof_C 	C 	0.34779	0.1679	0.787	-0.561
Mof_C 	C 	0.32761	0.0573	0.76913	0.641
Mof_C 	C 	0.34439	0.9563	0.80558	-0.898
Mof_H 	H 	0.3887	0.9336	0.8074	0.259
Mof_H 	H 	0.3397	0.9767	0.8414	0.266
Mof_H 	H 	0.3157	0.8928	0.7918	0.298
Mof_C 	C 	0.38472	0.1802	0.84022	0.217
Mof_C 	C 	0.22897	0.1459	0.05698	-0.868
Mof_H 	H 	0.1863	0.1502	0.0644	0.257
Mof_H 	H 	0.2248	0.1337	0.0187	0.247
Mof_H 	H 	0.252	0.2174	0.0678	0.251
Mof_C 	C 	0.26525	0.049	0.08757	0.625
Mof_C 	C 	0.32752	0.024	0.08193	-0.544
Mof_C 	C 	0.36975	0.9433	0.11302	0.616
Mof_C 	C 	0.43659	0.9323	0.107	-0.869
Mof_H 	H 	0.4634	0.9904	0.1288	0.251
Mof_H 	H 	0.4374	0.9429	0.0694	0.241
Mof_H 	H 	0.453	0.8563	0.1188	0.263
Mof_C 	C 	0.35107	0.0874	0.04344	0.198
Mof_C 	C 	0.69031	0.1562	0.028	-0.885
Mof_H 	H 	0.6632	0.1935	0.9968	0.261
Mof_H 	H 	0.6726	0.0809	0.0329	0.258
Mof_H 	H 	0.7337	0.1473	0.0226	0.279
Mof_C 	C 	0.69247	0.2278	0.0768	0.623
Mof_C 	C 	0.63632	0.2489	0.09441	-0.557
Mof_C 	C 	0.63421	0.30801	0.1421	0.624
Mof_C 	C 	0.57263	0.3259	0.15758	-0.891
Mof_H 	H 	0.5803	0.3689	0.1911	0.269
Mof_H 	H 	0.5536	0.2519	0.1624	0.251
Mof_H 	H 	0.5434	0.3689	0.1295	0.25
Mof_C 	C 	0.57818	0.2091	0.0616	0.205
_end
