data_functionalizedCrystal
_audit_creation_method	'EQeq! by Chris Wilmer'
_symmetry_space_group_name_H-M	'P1'
_symmetry_Int_Tables_number	1
_symmetry_cell_setting	triclinic
loop_
_symmetry_equiv_pos_as_xyz
  x,y,z
_cell_length_a	15.2614
_cell_length_b	15.2614
_cell_length_c	15.2614
_cell_angle_alpha	76.2159
_cell_angle_beta	76.2159
_cell_angle_gamma	76.2159
loop_
_atom_site_label
_atom_site_type_symbol
_atom_site_fract_x
_atom_site_fract_y
_atom_site_fract_z
_atom_site_charge
Mof_Cu	Cu	0.57971	0.01224	0.01224	0.902
Mof_Cu	Cu	0.01224	0.57971	0.01224	0.902
Mof_Cu	Cu	0.01224	0.01224	0.57971	0.902
Mof_Cu	Cu	0.98776	0.42029	0.98776	0.902
Mof_Cu	Cu	0.42029	0.98776	0.98776	0.902
Mof_Cu	Cu	0.98776	0.98776	0.42029	0.902
Mof_H 	H 	0.5161	0.989	0.3006	0.061
Mof_H 	H 	0.3006	0.5161	0.989	0.061
Mof_H 	H 	0.989	0.3006	0.5161	0.061
Mof_H 	H 	0.011	0.4839	0.6994	0.061
Mof_H 	H 	0.4839	0.6994	0.011	0.061
Mof_H 	H 	0.6994	0.011	0.4839	0.061
Mof_H 	H 	0.4839	0.011	0.6994	0.061
Mof_H 	H 	0.6994	0.4839	0.011	0.061
Mof_H 	H 	0.011	0.6994	0.4839	0.061
Mof_H 	H 	0.989	0.5161	0.3006	0.061
Mof_H 	H 	0.5161	0.3006	0.989	0.061
Mof_H 	H 	0.3006	0.989	0.5161	0.061
Mof_H 	H 	0.2665	0.9757	0.2665	0.054
Mof_H 	H 	0.2665	0.2665	0.9757	0.054
Mof_H 	H 	0.9757	0.2665	0.2665	0.054
Mof_H 	H 	0.0243	0.7335	0.7335	0.054
Mof_H 	H 	0.7335	0.7335	0.0243	0.054
Mof_H 	H 	0.7335	0.0243	0.7335	0.054
Mof_C 	C 	0.39628	0.98262	0.26885	-0.077
Mof_C 	C 	0.45368	0.98742	0.325	-0.027
Mof_C 	C 	0.43463	0.98297	0.16937	0.355
Mof_C 	C 	0.26885	0.39628	0.98262	-0.077
Mof_C 	C 	0.325	0.45368	0.98742	-0.027
Mof_C 	C 	0.16937	0.43463	0.98297	0.355
Mof_C 	C 	0.98262	0.26885	0.39628	-0.077
Mof_C 	C 	0.98742	0.325	0.45368	-0.027
Mof_C 	C 	0.98297	0.16937	0.43463	0.355
Mof_C 	C 	0.01738	0.60372	0.73115	-0.077
Mof_C 	C 	0.01258	0.54632	0.675	-0.027
Mof_C 	C 	0.01703	0.56537	0.83063	0.355
Mof_C 	C 	0.60372	0.73115	0.01738	-0.077
Mof_C 	C 	0.54632	0.675	0.01258	-0.027
Mof_C 	C 	0.56537	0.83063	0.01703	0.355
Mof_C 	C 	0.73115	0.01738	0.60372	-0.077
Mof_C 	C 	0.675	0.01258	0.54632	-0.027
Mof_C 	C 	0.83063	0.01703	0.56537	0.355
Mof_C 	C 	0.60372	0.01738	0.73115	-0.077
Mof_C 	C 	0.54632	0.01258	0.675	-0.027
Mof_C 	C 	0.56537	0.01703	0.83063	0.355
Mof_C 	C 	0.73115	0.60372	0.01738	-0.077
Mof_C 	C 	0.675	0.54632	0.01258	-0.027
Mof_C 	C 	0.83063	0.56537	0.01703	0.355
Mof_C 	C 	0.01738	0.73115	0.60372	-0.077
Mof_C 	C 	0.01258	0.675	0.54632	-0.027
Mof_C 	C 	0.01703	0.83063	0.56537	0.355
Mof_C 	C 	0.98262	0.39628	0.26885	-0.077
Mof_C 	C 	0.98742	0.45368	0.325	-0.027
Mof_C 	C 	0.98297	0.43463	0.16937	0.355
Mof_C 	C 	0.39628	0.26885	0.98262	-0.077
Mof_C 	C 	0.45368	0.325	0.98742	-0.027
Mof_C 	C 	0.43463	0.16937	0.98297	0.355
Mof_C 	C 	0.26885	0.98262	0.39628	-0.077
Mof_C 	C 	0.325	0.98742	0.45368	-0.027
Mof_C 	C 	0.16937	0.98297	0.43463	0.355
Mof_C 	C 	0.47609	0.99749	0.47609	-0.013
Mof_C 	C 	0.30473	0.9797	0.30473	0.024
Mof_C 	C 	0.41845	0.98998	0.41845	0.019
Mof_C 	C 	0.47609	0.47609	0.99749	-0.013
Mof_C 	C 	0.30473	0.30473	0.9797	0.024
Mof_C 	C 	0.41845	0.41845	0.98998	0.019
Mof_C 	C 	0.99749	0.47609	0.47609	-0.013
Mof_C 	C 	0.9797	0.30473	0.30473	0.024
Mof_C 	C 	0.98998	0.41845	0.41845	0.019
Mof_C 	C 	0.00251	0.52391	0.52391	-0.013
Mof_C 	C 	0.0203	0.69527	0.69527	0.024
Mof_C 	C 	0.01002	0.58155	0.58155	0.019
Mof_C 	C 	0.52391	0.52391	0.00251	-0.013
Mof_C 	C 	0.69527	0.69527	0.0203	0.024
Mof_C 	C 	0.58155	0.58155	0.01002	0.019
Mof_C 	C 	0.52391	0.00251	0.52391	-0.013
Mof_C 	C 	0.69527	0.0203	0.69527	0.024
Mof_C 	C 	0.58155	0.01002	0.58155	0.019
Mof_O 	O 	0.51678	0.99496	0.14096	-0.403
Mof_O 	O 	0.38217	0.97628	0.12052	-0.402
Mof_O 	O 	0.14096	0.51678	0.99496	-0.403
Mof_O 	O 	0.12052	0.38217	0.97628	-0.402
Mof_O 	O 	0.99496	0.14096	0.51678	-0.403
Mof_O 	O 	0.97628	0.12052	0.38217	-0.402
Mof_O 	O 	0.00504	0.48322	0.85904	-0.403
Mof_O 	O 	0.02372	0.61783	0.87948	-0.402
Mof_O 	O 	0.48322	0.85904	0.00504	-0.403
Mof_O 	O 	0.61783	0.87948	0.02372	-0.402
Mof_O 	O 	0.85904	0.00504	0.48322	-0.403
Mof_O 	O 	0.87948	0.02372	0.61783	-0.402
Mof_O 	O 	0.48322	0.00504	0.85904	-0.403
Mof_O 	O 	0.61783	0.02372	0.87948	-0.402
Mof_O 	O 	0.85904	0.48322	0.00504	-0.403
Mof_O 	O 	0.87948	0.61783	0.02372	-0.402
Mof_O 	O 	0.00504	0.85904	0.48322	-0.403
Mof_O 	O 	0.02372	0.87948	0.61783	-0.402
Mof_O 	O 	0.99496	0.51678	0.14096	-0.403
Mof_O 	O 	0.97628	0.38217	0.12052	-0.402
Mof_O 	O 	0.51678	0.14096	0.99496	-0.403
Mof_O 	O 	0.38217	0.12052	0.97628	-0.402
Mof_O 	O 	0.14096	0.99496	0.51678	-0.403
Mof_O 	O 	0.12052	0.97628	0.38217	-0.402
_end
