data_functionalizedCrystal
_audit_creation_method	'EQeq! by Chris Wilmer'
_symmetry_space_group_name_H-M	'P1'
_symmetry_Int_Tables_number	1
_symmetry_cell_setting	triclinic
loop_
_symmetry_equiv_pos_as_xyz
  x,y,z
_cell_length_a	7.1897
_cell_length_b	10.63
_cell_length_c	11.543
_cell_angle_alpha	90
_cell_angle_beta	90
_cell_angle_gamma	90
loop_
_atom_site_label
_atom_site_type_symbol
_atom_site_fract_x
_atom_site_fract_y
_atom_site_fract_z
_atom_site_charge
Mof_Ni	Ni	0.73902	0.21483	0.30995	1.101
Mof_Ni	Ni	0.23902	0.78517	0.69005	1.094
Mof_Ni	Ni	0.73902	0.71483	0.19005	1.1
Mof_Ni	Ni	0.23902	0.28517	0.80995	1.094
Mof_H 	H 	0.9883	0.4281	0.9746	0.034
Mof_H 	H 	0.133	0.0738	0.968	0.055
Mof_H 	H 	0.9767	0.0426	0.1368	0.021
Mof_H 	H 	0.4883	0.5719	0.0254	0.029
Mof_H 	H 	0.633	0.9262	0.032	0.046
Mof_H 	H 	0.4767	0.9574	0.8632	0.031
Mof_H 	H 	0.9883	0.9281	0.5254	0.03
Mof_H 	H 	0.133	0.5738	0.532	0.062
Mof_H 	H 	0.9767	0.5426	0.3632	0.017
Mof_H 	H 	0.4883	0.0719	0.4746	0.031
Mof_H 	H 	0.633	0.4262	0.468	0.051
Mof_H 	H 	0.4767	0.4574	0.6368	0.03
Mof_C 	C 	0.7935	0.4318	0.1755	0.36
Mof_C 	C 	0.8979	0.3288	0.1101	-0.058
Mof_C 	C 	0.9896	0.3484	0.008	0.091
Mof_C 	C 	0.0738	0.1413	0.0037	-0.028
Mof_C 	C 	0.9804	0.123	0.1051	0.087
Mof_C 	C 	0.2935	0.5682	0.8245	0.356
Mof_C 	C 	0.3979	0.6712	0.8899	-0.062
Mof_C 	C 	0.4896	0.6516	0.992	0.068
Mof_C 	C 	0.5738	0.8587	0.9963	0.023
Mof_C 	C 	0.4804	0.877	0.8949	0.034
Mof_C 	C 	0.7935	0.9318	0.3245	0.357
Mof_C 	C 	0.8979	0.8288	0.3899	-0.059
Mof_C 	C 	0.9896	0.8484	0.492	0.097
Mof_C 	C 	0.0738	0.6413	0.4963	-0.043
Mof_C 	C 	0.9804	0.623	0.3949	0.096
Mof_C 	C 	0.2935	0.0682	0.6755	0.357
Mof_C 	C 	0.3979	0.1712	0.6101	-0.061
Mof_C 	C 	0.4896	0.1516	0.508	0.066
Mof_C 	C 	0.5738	0.3587	0.5037	0.016
Mof_C 	C 	0.4804	0.377	0.6051	0.037
Mof_N 	N 	0.8942	0.2163	0.1604	-0.194
Mof_N 	N 	0.0811	0.255	0.9554	-0.216
Mof_N 	N 	0.3942	0.7837	0.8396	-0.191
Mof_N 	N 	0.5811	0.745	0.0446	-0.205
Mof_N 	N 	0.8942	0.7163	0.3396	-0.196
Mof_N 	N 	0.0811	0.755	0.5446	-0.214
Mof_N 	N 	0.3942	0.2837	0.6604	-0.192
Mof_N 	N 	0.5811	0.245	0.4554	-0.203
Mof_Cl	Cl	0.469	0.1652	0.19045	-0.434
Mof_Cl	Cl	0.969	0.8348	0.80955	-0.4
Mof_Cl	Cl	0.469	0.6652	0.30955	-0.435
Mof_Cl	Cl	0.969	0.3348	0.69045	-0.4
Mof_O 	O 	0.7156	0.4007	0.2668	-0.404
Mof_O 	O 	0.8024	0.5393	0.1316	-0.407
Mof_O 	O 	0.2156	0.5993	0.7332	-0.414
Mof_O 	O 	0.3024	0.4607	0.8684	-0.416
Mof_O 	O 	0.7156	0.9007	0.2332	-0.404
Mof_O 	O 	0.8024	0.0393	0.3684	-0.404
Mof_O 	O 	0.2156	0.0993	0.7668	-0.414
Mof_O 	O 	0.3024	0.9607	0.6316	-0.417
_end
