data_functionalizedCrystal
_audit_creation_method	'EQeq! by Chris Wilmer'
_symmetry_space_group_name_H-M	'P1'
_symmetry_Int_Tables_number	1
_symmetry_cell_setting	triclinic
loop_
_symmetry_equiv_pos_as_xyz
  x,y,z
_cell_length_a	13.253
_cell_length_b	13.253
_cell_length_c	13.253
_cell_angle_alpha	90
_cell_angle_beta	90
_cell_angle_gamma	90
loop_
_atom_site_label
_atom_site_type_symbol
_atom_site_fract_x
_atom_site_fract_y
_atom_site_fract_z
_atom_site_charge
Mof_N 	N 	0.63679	0.93712	0.95602	-0.009
Mof_N 	N 	0.7159	0.9813	0.9631	0.104
Mof_N 	N 	0.7924	0.0206	0.9679	-0.198
Mof_N 	N 	0.86321	0.06288	0.45602	-0.085
Mof_N 	N 	0.7841	0.0187	0.4631	-0.15
Mof_N 	N 	0.7076	0.9794	0.4679	-0.138
Mof_N 	N 	0.36321	0.43712	0.54398	-0.17
Mof_N 	N 	0.2841	0.4813	0.5369	-0.052
Mof_N 	N 	0.2076	0.5206	0.5321	-0.303
Mof_N 	N 	0.13679	0.56288	0.04398	-0.194
Mof_N 	N 	0.2159	0.5187	0.0369	-0.07
Mof_N 	N 	0.2924	0.4794	0.0321	-0.329
Mof_N 	N 	0.95602	0.63679	0.93712	-0.008
Mof_N 	N 	0.9631	0.7159	0.9813	0.105
Mof_N 	N 	0.9679	0.7924	0.0206	-0.197
Mof_N 	N 	0.45602	0.86321	0.06288	-0.084
Mof_N 	N 	0.4631	0.7841	0.0187	-0.149
Mof_N 	N 	0.4679	0.7076	0.9794	-0.137
Mof_N 	N 	0.54398	0.36321	0.43712	-0.169
Mof_N 	N 	0.5369	0.2841	0.4813	-0.051
Mof_N 	N 	0.5321	0.2076	0.5206	-0.302
Mof_N 	N 	0.04398	0.13679	0.56288	-0.194
Mof_N 	N 	0.0369	0.2159	0.5187	-0.07
Mof_N 	N 	0.0321	0.2924	0.4794	-0.329
Mof_N 	N 	0.93712	0.95602	0.63679	-0.008
Mof_N 	N 	0.9813	0.9631	0.7159	0.105
Mof_N 	N 	0.0206	0.9679	0.7924	-0.197
Mof_N 	N 	0.06288	0.45602	0.86321	-0.084
Mof_N 	N 	0.0187	0.4631	0.7841	-0.149
Mof_N 	N 	0.9794	0.4679	0.7076	-0.137
Mof_N 	N 	0.43712	0.54398	0.36321	-0.169
Mof_N 	N 	0.4813	0.5369	0.2841	-0.051
Mof_N 	N 	0.5206	0.5321	0.2076	-0.302
Mof_N 	N 	0.56288	0.04398	0.13679	-0.194
Mof_N 	N 	0.5187	0.0369	0.2159	-0.07
Mof_N 	N 	0.4794	0.0321	0.2924	-0.329
Mof_N 	N 	0.36321	0.06288	0.04398	-0.18
Mof_N 	N 	0.2841	0.0187	0.0369	-0.183
Mof_N 	N 	0.2076	0.9794	0.0321	-0.103
Mof_N 	N 	0.13679	0.93712	0.54398	-0.116
Mof_N 	N 	0.2159	0.9813	0.5369	0.074
Mof_N 	N 	0.2924	0.0206	0.5321	-0.403
Mof_N 	N 	0.63679	0.56288	0.45602	-0.155
Mof_N 	N 	0.7159	0.5187	0.4631	-0.042
Mof_N 	N 	0.7924	0.4794	0.4679	-0.249
Mof_N 	N 	0.86321	0.43712	0.95602	-0.004
Mof_N 	N 	0.7841	0.4813	0.9631	-0.008
Mof_N 	N 	0.7076	0.5206	0.9679	-0.211
Mof_N 	N 	0.04398	0.36321	0.06288	-0.18
Mof_N 	N 	0.0369	0.2841	0.0187	-0.183
Mof_N 	N 	0.0321	0.2076	0.9794	-0.103
Mof_N 	N 	0.54398	0.13679	0.93712	-0.116
Mof_N 	N 	0.5369	0.2159	0.9813	0.074
Mof_N 	N 	0.5321	0.2924	0.0206	-0.403
Mof_N 	N 	0.45602	0.63679	0.56288	-0.155
Mof_N 	N 	0.4631	0.7159	0.5187	-0.042
Mof_N 	N 	0.4679	0.7924	0.4794	-0.249
Mof_N 	N 	0.95602	0.86321	0.43712	-0.004
Mof_N 	N 	0.9631	0.7841	0.4813	-0.008
Mof_N 	N 	0.9679	0.7076	0.5206	-0.211
Mof_N 	N 	0.06288	0.04398	0.36321	-0.18
Mof_N 	N 	0.0187	0.0369	0.2841	-0.183
Mof_N 	N 	0.9794	0.0321	0.2076	-0.103
Mof_N 	N 	0.93712	0.54398	0.13679	-0.116
Mof_N 	N 	0.9813	0.5369	0.2159	0.074
Mof_N 	N 	0.0206	0.5321	0.2924	-0.403
Mof_N 	N 	0.56288	0.45602	0.63679	-0.155
Mof_N 	N 	0.5187	0.4631	0.7159	-0.042
Mof_N 	N 	0.4794	0.4679	0.7924	-0.249
Mof_N 	N 	0.43712	0.95602	0.86321	-0.004
Mof_N 	N 	0.4813	0.9631	0.7841	-0.008
Mof_N 	N 	0.5206	0.9679	0.7076	-0.211
Mof_Fe	Fe	0.5	0	-0	0.252
Mof_Fe	Fe	1.8747e-33	0	0.5	0.252
Mof_Fe	Fe	0.5	0.5	0.5	0.697
Mof_Fe	Fe	-0	0.5	-0	0.252
Mof_K 	K 	-0	0	-0	1.067
Mof_K 	K 	0.5	0	0.5	2.328
Mof_K 	K 	1.8747e-33	0.5	0.5	2.328
Mof_K 	K 	0.5	0.5	-0	2.328
_end
