data_functionalizedCrystal
_audit_creation_method	'EQeq! by Chris Wilmer'
_symmetry_space_group_name_H-M	'P1'
_symmetry_Int_Tables_number	1
_symmetry_cell_setting	triclinic
loop_
_symmetry_equiv_pos_as_xyz
  x,y,z
_cell_length_a	6.8371
_cell_length_b	22.2721
_cell_length_c	7.7308
_cell_angle_alpha	90
_cell_angle_beta	90
_cell_angle_gamma	90
loop_
_atom_site_label
_atom_site_type_symbol
_atom_site_fract_x
_atom_site_fract_y
_atom_site_fract_z
_atom_site_charge
Mof_Ni	Ni	0.94392	0.78741	0.74172	1.118
Mof_Ni	Ni	0.05608	0.21259	0.74172	1.118
Mof_Ni	Ni	0.44392	0.71259	0.25828	1.121
Mof_Ni	Ni	0.55608	0.28741	0.25828	1.121
Mof_H 	H 	0.1554	0.6997	0.6501	0.136
Mof_H 	H 	0.095	0.6886	0.8334	0.124
Mof_H 	H 	0.8381	0.6158	0.8861	0.136
Mof_H 	H 	0.6452	0.625	0.7731	0.139
Mof_H 	H 	0.939	0.6281	0.6064	0.038
Mof_H 	H 	0.5241	0.8281	0.7657	0.01
Mof_H 	H 	0.3383	0.9147	0.7326	0.083
Mof_H 	H 	0.8191	0.0074	0.6529	0.068
Mof_H 	H 	0.9879	0.9181	0.6291	0.009
Mof_H 	H 	0.8446	0.3003	0.6501	0.137
Mof_H 	H 	0.905	0.3114	0.8334	0.125
Mof_H 	H 	0.1619	0.3842	0.8861	0.137
Mof_H 	H 	0.3548	0.375	0.7731	0.14
Mof_H 	H 	0.061	0.3719	0.6064	0.038
Mof_H 	H 	0.4759	0.1719	0.7657	0.01
Mof_H 	H 	0.6617	0.0853	0.7326	0.083
Mof_H 	H 	0.1809	0.9926	0.6529	0.068
Mof_H 	H 	0.0121	0.0819	0.6291	0.009
Mof_H 	H 	0.6554	0.8003	0.3499	0.136
Mof_H 	H 	0.595	0.8114	0.1666	0.123
Mof_H 	H 	0.3381	0.8842	0.1139	0.138
Mof_H 	H 	0.1452	0.875	0.2269	0.141
Mof_H 	H 	0.439	0.8719	0.3936	0.038
Mof_H 	H 	0.0241	0.6719	0.2343	0.01
Mof_H 	H 	0.8383	0.5853	0.2674	0.085
Mof_H 	H 	0.3191	0.4926	0.3471	0.067
Mof_H 	H 	0.4879	0.5819	0.3709	0.011
Mof_H 	H 	0.3446	0.1997	0.3499	0.136
Mof_H 	H 	0.405	0.1886	0.1666	0.123
Mof_H 	H 	0.6619	0.1158	0.1139	0.138
Mof_H 	H 	0.8548	0.125	0.2269	0.141
Mof_H 	H 	0.561	0.1281	0.3936	0.038
Mof_H 	H 	0.9759	0.3281	0.2343	0.01
Mof_H 	H 	0.1617	0.4147	0.2674	0.085
Mof_H 	H 	0.6809	0.5074	0.3471	0.067
Mof_H 	H 	0.5121	0.4181	0.3709	0.011
Mof_C 	C 	0.6959	0.69582	0.942	0.43
Mof_C 	C 	0.7631	0.64561	0.8182	-0.351
Mof_C 	C 	0.887	0.66473	0.6656	-0.012
Mof_C 	C 	0.7627	0.70098	0.5366	0.307
Mof_C 	C 	0.588	0.86578	0.7556	0.078
Mof_C 	C 	0.4738	0.91691	0.759	-0.129
Mof_C 	C 	0.5572	0.9717	0.7156	0.048
Mof_C 	C 	0.7542	0.9707	0.6779	-0.119
Mof_C 	C 	0.8591	0.9184	0.6753	0.058
Mof_C 	C 	0.3041	0.30418	0.942	0.43
Mof_C 	C 	0.2369	0.35439	0.8182	-0.351
Mof_C 	C 	0.113	0.33527	0.6656	-0.012
Mof_C 	C 	0.2373	0.29902	0.5366	0.307
Mof_C 	C 	0.412	0.13422	0.7556	0.078
Mof_C 	C 	0.5262	0.08309	0.759	-0.129
Mof_C 	C 	0.4428	0.0283	0.7156	0.048
Mof_C 	C 	0.2458	0.0293	0.6779	-0.119
Mof_C 	C 	0.1409	0.0816	0.6753	0.058
Mof_C 	C 	0.1959	0.80418	0.058	0.431
Mof_C 	C 	0.2631	0.85439	0.1818	-0.353
Mof_C 	C 	0.387	0.83527	0.3344	-0.006
Mof_C 	C 	0.2627	0.79902	0.4634	0.306
Mof_C 	C 	0.088	0.63422	0.2444	0.087
Mof_C 	C 	0.9738	0.58309	0.241	-0.14
Mof_C 	C 	0.0572	0.5283	0.2844	0.053
Mof_C 	C 	0.2542	0.5293	0.3221	-0.119
Mof_C 	C 	0.3591	0.5816	0.3247	0.06
Mof_C 	C 	0.8041	0.19582	0.058	0.431
Mof_C 	C 	0.7369	0.14561	0.1818	-0.353
Mof_C 	C 	0.613	0.16473	0.3344	-0.006
Mof_C 	C 	0.7373	0.20098	0.4634	0.306
Mof_C 	C 	0.912	0.36578	0.2444	0.087
Mof_C 	C 	0.0262	0.41691	0.241	-0.14
Mof_C 	C 	0.9428	0.4717	0.2844	0.053
Mof_C 	C 	0.7458	0.4707	0.3221	-0.119
Mof_C 	C 	0.6409	0.4184	0.3247	0.06
Mof_N 	N 	0.0527	0.70155	0.7268	-0.323
Mof_N 	N 	0.7794	0.86588	0.7391	-0.214
Mof_N 	N 	0.9473	0.29845	0.7268	-0.323
Mof_N 	N 	0.2206	0.13412	0.7391	-0.214
Mof_N 	N 	0.5527	0.79845	0.2732	-0.327
Mof_N 	N 	0.2794	0.63412	0.2609	-0.215
Mof_N 	N 	0.4473	0.20155	0.2732	-0.327
Mof_N 	N 	0.7206	0.36588	0.2609	-0.215
Mof_O 	O 	0.7363	0.74976	0.9172	-0.429
Mof_O 	O 	0.6	0.67495	0.0676	-0.434
Mof_O 	O 	0.6486	0.67299	0.4384	-0.374
Mof_O 	O 	0.7857	0.75705	0.5387	-0.412
Mof_O 	O 	0.2637	0.25024	0.9172	-0.429
Mof_O 	O 	0.4	0.32505	0.0676	-0.434
Mof_O 	O 	0.3514	0.32701	0.4384	-0.374
Mof_O 	O 	0.2143	0.24295	0.5387	-0.412
Mof_O 	O 	0.2363	0.75024	0.0828	-0.426
Mof_O 	O 	0.1	0.82505	0.9324	-0.429
Mof_O 	O 	0.1486	0.82701	0.5616	-0.37
Mof_O 	O 	0.2857	0.74295	0.4613	-0.409
Mof_O 	O 	0.7637	0.24976	0.0828	-0.426
Mof_O 	O 	0.9	0.17495	0.9324	-0.429
Mof_O 	O 	0.8514	0.17299	0.5616	-0.37
Mof_O 	O 	0.7143	0.25705	0.4613	-0.409
_end
