data_functionalizedCrystal
_audit_creation_method	'EQeq! by Chris Wilmer'
_symmetry_space_group_name_H-M	'P1'
_symmetry_Int_Tables_number	1
_symmetry_cell_setting	triclinic
loop_
_symmetry_equiv_pos_as_xyz
  x,y,z
_cell_length_a	18.033
_cell_length_b	18.033
_cell_length_c	24.743
_cell_angle_alpha	90
_cell_angle_beta	90
_cell_angle_gamma	120
loop_
_atom_site_label
_atom_site_type_symbol
_atom_site_fract_x
_atom_site_fract_y
_atom_site_fract_z
_atom_site_charge
Mof_Eu	Eu	-7.24538e-33	-7.24538e-33	0.37534	1.286
Mof_Eu	Eu	-0	0	0.12466	1.283
Mof_Eu	Eu	-1.44908e-32	-2.89815e-32	0.87534	1.317
Mof_Eu	Eu	-7.24538e-33	0	0.62466	1.285
Mof_Zn	Zn	4.21877e-17	0.66686	0.91407	1.177
Mof_Zn	Zn	0.7889	0.7889	0.85652	1.226
Mof_Zn	Zn	0.5	0.5	0.5	1.165
Mof_Zn	Zn	0.33333	0.66666	0.37254	1.147
Mof_Zn	Zn	-1.8756e-17	0.5	0.5	1.13
Mof_Zn	Zn	0.33314	-1.81135e-33	0.08593	1.173
Mof_Zn	Zn	0.2111	0.2111	0.35652	1.217
Mof_Zn	Zn	-3.69472e-17	0.33314	0.41407	1.175
Mof_Zn	Zn	0.5	0	0.5	1.131
Mof_Zn	Zn	0.33314	0	0.41407	1.175
Mof_Zn	Zn	0.2111	0.2111	0.14348	1.217
Mof_Zn	Zn	0.33333	0.66666	0.12746	1.147
Mof_Zn	Zn	3.20655e-17	0.66686	0.58593	1.175
Mof_Zn	Zn	0.66667	0.33334	0.62746	1.148
Mof_Zn	Zn	0.33314	0.33314	0.58593	1.209
Mof_Zn	Zn	6.08006e-18	0.2111	0.64348	1.178
Mof_Zn	Zn	0.33333	0.66666	0.87254	1.149
Mof_Zn	Zn	-0	0.5	-0	1.119
Mof_Zn	Zn	0.66667	0.33334	0.37254	1.148
Mof_Zn	Zn	0.66686	0.66686	0.08593	1.209
Mof_Zn	Zn	-1.44391e-17	0.33314	0.08593	1.173
Mof_Zn	Zn	-1.34026e-17	0.2111	0.85652	1.179
Mof_Zn	Zn	0.5	0	-0	1.119
Mof_Zn	Zn	0.7889	-3.62269e-33	0.14348	1.183
Mof_Zn	Zn	-2.41094e-17	0.7889	0.14348	1.183
Mof_Zn	Zn	0.5	0.5	-0	1.153
Mof_Zn	Zn	0.33333	0.66666	0.62746	1.148
Mof_Zn	Zn	0.66686	-2.89815e-32	0.91407	1.178
Mof_Zn	Zn	7.0614e-17	0.7889	0.35652	1.184
Mof_Zn	Zn	0.7889	0.7889	0.64348	1.226
Mof_Zn	Zn	0.7889	-1.44908e-32	0.35652	1.184
Mof_Zn	Zn	0.33314	0.33314	0.91407	1.211
Mof_Zn	Zn	0.66667	0.33334	0.87254	1.149
Mof_Zn	Zn	0.66686	0	0.58593	1.175
Mof_Zn	Zn	0.2111	-1.44908e-32	0.64348	1.178
Mof_Zn	Zn	0.66686	0.66686	0.41407	1.21
Mof_Zn	Zn	0.66667	0.33334	0.12746	1.147
Mof_Zn	Zn	0.2111	-2.89815e-32	0.85652	1.179
Mof_H 	H 	0.5138	0.7651	0.1637	0.127
Mof_H 	H 	0.7864	0.7864	0.5185	0.013
Mof_H 	H 	0.7651	0.5138	0.3363	0.128
Mof_H 	H 	0.8254	0.598	0.651	0.212
Mof_H 	H 	0.7864	-4.52837e-34	0.0185	-0.034
Mof_H 	H 	0.4615	0.8205	0.4462	-0.032
Mof_H 	H 	0.402	0.1746	0.349	0.182
Mof_H 	H 	0.2136	0.2136	0.4815	-0.031
Mof_H 	H 	0.5385	0.359	0.0538	-0.062
Mof_H 	H 	0.7726	0.598	0.151	0.201
Mof_H 	H 	0.4466	0.4466	0.374	0.134
Mof_H 	H 	0.3778	2.89815e-32	0.8407	0.083
Mof_H 	H 	0.8205	0.359	0.9462	-0.024
Mof_H 	H 	0.359	0.5385	0.4462	-0.055
Mof_H 	H 	0.5138	0.7487	0.6637	0.116
Mof_H 	H 	0.8205	0.4615	0.0538	-0.04
Mof_H 	H 	0.2513	0.4862	0.1637	0.105
Mof_H 	H 	0.2513	0.4862	0.3363	0.105
Mof_H 	H 	0.8205	0.4615	0.4462	-0.032
Mof_H 	H 	0.2274	0.402	0.849	0.183
Mof_H 	H 	0.359	0.5385	0.0538	-0.062
Mof_H 	H 	0.7651	0.2513	0.8363	0.128
Mof_H 	H 	0.6222	0.6222	0.8407	0.124
Mof_H 	H 	0.359	0.8205	0.9462	-0.024
Mof_H 	H 	0.4862	0.2349	0.8363	0.104
Mof_H 	H 	0.4466	0	0.874	0.094
Mof_H 	H 	0.5385	0.1795	0.9462	-0.047
Mof_H 	H 	0.2136	0	0.5185	-0.059
Mof_H 	H 	0.4862	0.2349	0.6637	0.104
Mof_H 	H 	0.4466	0.4466	0.126	0.134
Mof_H 	H 	0.7726	0.598	0.349	0.202
Mof_H 	H 	0.5385	0.359	0.4462	-0.055
Mof_H 	H 	0.2136	0.2136	0.0185	-0.028
Mof_H 	H 	-1.28934e-17	0.3778	0.6593	0.082
Mof_H 	H 	0.402	0.1746	0.151	0.182
Mof_H 	H 	0.7864	0.7864	0.9815	0.013
Mof_H 	H 	0.4615	0.8205	0.0538	-0.04
Mof_H 	H 	0.7864	-1.44908e-32	0.4815	-0.037
Mof_H 	H 	0.598	0.8254	0.849	0.213
Mof_H 	H 	1.45421e-17	0.2136	0.9815	-0.059
Mof_H 	H 	0.7651	0.5138	0.1637	0.127
Mof_H 	H 	0.1746	0.7726	0.651	0.2
Mof_H 	H 	0.5385	0.1795	0.5538	-0.055
Mof_H 	H 	0.5138	0.7651	0.3363	0.128
Mof_H 	H 	2.53324e-17	0.4466	0.626	0.093
Mof_H 	H 	0.2513	0.7651	0.8363	0.128
Mof_H 	H 	0.641	0.4615	0.5538	-0.051
Mof_H 	H 	0.3778	0.3778	0.1593	0.123
Mof_H 	H 	-2.11722e-17	0.5534	0.126	0.093
Mof_H 	H 	1.07657e-17	0.2136	0.5185	-0.059
Mof_H 	H 	0.4466	-1.44908e-32	0.626	0.093
Mof_H 	H 	0.8254	0.2274	0.349	0.21
Mof_H 	H 	-2.67677e-17	0.6222	0.1593	0.082
Mof_H 	H 	0.1795	0.641	0.0538	-0.06
Mof_H 	H 	0.402	0.2274	0.849	0.183
Mof_H 	H 	0.4615	0.641	0.9462	-0.043
Mof_H 	H 	0.641	0.1795	0.0538	-0.06
Mof_H 	H 	0.598	0.8254	0.651	0.212
Mof_H 	H 	0.598	0.7726	0.349	0.202
Mof_H 	H 	0.2513	0.7651	0.6637	0.127
Mof_H 	H 	0.641	0.4615	0.9462	-0.043
Mof_H 	H 	0.2274	0.8254	0.349	0.21
Mof_H 	H 	0.402	0.2274	0.651	0.182
Mof_H 	H 	-3.10862e-18	0.7864	0.0185	-0.034
Mof_H 	H 	0.1746	0.402	0.349	0.182
Mof_H 	H 	0.2349	0.7487	0.1637	0.113
Mof_H 	H 	0.4615	0.641	0.5538	-0.051
Mof_H 	H 	0.5534	0	0.374	0.093
Mof_H 	H 	0.2136	-2.89815e-32	0.9815	-0.059
Mof_H 	H 	0.5534	0.5534	0.626	0.135
Mof_H 	H 	0.7726	0.1746	0.651	0.2
Mof_H 	H 	0.4862	0.2513	0.1637	0.105
Mof_H 	H 	0.7487	0.2349	0.1637	0.113
Mof_H 	H 	0.7651	0.2513	0.6637	0.127
Mof_H 	H 	0.6222	-3.62269e-33	0.1593	0.082
Mof_H 	H 	-1.07443e-17	0.3778	0.8407	0.083
Mof_H 	H 	0.2349	0.4862	0.6637	0.104
Mof_H 	H 	0.1746	0.7726	0.849	0.2
Mof_H 	H 	0.2349	0.4862	0.8363	0.104
Mof_H 	H 	1.62905e-17	0.4466	0.874	0.094
Mof_H 	H 	0.3778	0	0.6593	0.082
Mof_H 	H 	0.6222	-7.24538e-33	0.3407	0.082
Mof_H 	H 	0.7487	0.2349	0.3363	0.113
Mof_H 	H 	0.4862	0.2513	0.3363	0.105
Mof_H 	H 	0.8205	0.359	0.5538	-0.032
Mof_H 	H 	0.8254	0.598	0.849	0.213
Mof_H 	H 	0.5138	0.7487	0.8363	0.116
Mof_H 	H 	0.1795	0.5385	0.5538	-0.055
Mof_H 	H 	0.7487	0.5138	0.8363	0.116
Mof_H 	H 	0.5534	0.5534	0.874	0.135
Mof_H 	H 	0.7726	0.1746	0.849	0.2
Mof_H 	H 	0.1746	0.402	0.151	0.182
Mof_H 	H 	4.96132e-17	0.7864	0.4815	-0.037
Mof_H 	H 	0.2274	0.8254	0.151	0.209
Mof_H 	H 	0.6222	0.6222	0.6593	0.124
Mof_H 	H 	0.359	0.8205	0.5538	-0.032
Mof_H 	H 	0.2349	0.7487	0.3363	0.113
Mof_H 	H 	0.598	0.7726	0.151	0.201
Mof_H 	H 	0.2274	0.402	0.651	0.182
Mof_H 	H 	0.641	0.1795	0.4462	-0.052
Mof_H 	H 	0.1795	0.641	0.4462	-0.052
Mof_H 	H 	0.5534	-3.62269e-33	0.126	0.093
Mof_H 	H 	8.0117e-18	0.6222	0.3407	0.082
Mof_H 	H 	0.1795	0.5385	0.9462	-0.047
Mof_H 	H 	0.8254	0.2274	0.151	0.209
Mof_H 	H 	3.50465e-17	0.5534	0.374	0.093
Mof_H 	H 	0.7487	0.5138	0.6637	0.116
Mof_H 	H 	0.3778	0.3778	0.3407	0.124
Mof_C 	C 	0.3205	0.495	0.6154	0.2
Mof_C 	C 	0.422	0.5884	0.9315	0.114
Mof_C 	C 	0.9503	0.1562	0.3888	0.47
Mof_C 	C 	0.495	0.1745	0.1154	0.196
Mof_C 	C 	0.5884	0.422	0.5685	0.111
Mof_C 	C 	0.2059	0.1562	0.6112	0.292
Mof_C 	C 	0.3205	0.495	0.8846	0.203
Mof_C 	C 	0.578	0.1664	0.9315	0.117
Mof_C 	C 	0.7381	0.7867	0.75	0.217
Mof_C 	C 	0.0486	0.2619	0.75	0.032
Mof_C 	C 	3.27259e-17	0.357	0.582	0.145
Mof_C 	C 	0.2133	0.2619	0.25	0.198
Mof_C 	C 	0.7941	0.9503	0.6112	0.468
Mof_C 	C 	0.422	0.8336	0.0685	0.122
Mof_C 	C 	0.7941	0.8438	0.1112	0.288
Mof_C 	C 	0.8255	0.3205	0.3846	0.23
Mof_C 	C 	0.505	0.8255	0.6154	0.23
Mof_C 	C 	0.0497	0.8438	0.8888	0.13
Mof_C 	C 	0.8255	0.3205	0.1154	0.227
Mof_C 	C 	0.7941	0.8438	0.3888	0.29
Mof_C 	C 	0.5884	0.422	0.9315	0.114
Mof_C 	C 	0.422	0.8336	0.4315	0.125
Mof_C 	C 	0.422	0.5884	0.5685	0.111
Mof_C 	C 	0.9503	0.7941	0.8888	0.469
Mof_C 	C 	0.9514	0.2133	0.75	0.385
Mof_C 	C 	0.7378	0.7378	0.969	0.151
Mof_C 	C 	-4.97727e-18	0.643	0.418	0.146
Mof_C 	C 	0.643	0.643	0.582	0.19
Mof_C 	C 	0.495	0.1745	0.3846	0.199
Mof_C 	C 	0.357	0	0.582	0.145
Mof_C 	C 	0.9503	0.1562	0.1112	0.467
Mof_C 	C 	0.9503	0.7941	0.6112	0.468
Mof_C 	C 	0.2059	0.1562	0.8888	0.295
Mof_C 	C 	2.49804e-17	0.2622	0.531	0.078
Mof_C 	C 	0.505	0.8255	0.8846	0.232
Mof_C 	C 	0.7867	0.0486	0.25	0.042
Mof_C 	C 	0.8336	0.4116	0.9315	0.129
Mof_C 	C 	4.15274e-17	0.357	0.918	0.147
Mof_C 	C 	0.8336	0.422	0.4315	0.125
Mof_C 	C 	0.1664	0.578	0.5685	0.114
Mof_C 	C 	0.1664	0.578	0.9315	0.117
Mof_C 	C 	0.357	0	0.918	0.147
Mof_C 	C 	0.8438	0.0497	0.6112	0.127
Mof_C 	C 	0.7381	0.9514	0.25	0.393
Mof_C 	C 	0.3205	0.8255	0.1154	0.227
Mof_C 	C 	0.7941	0.9503	0.8888	0.469
Mof_C 	C 	0.4116	0.8336	0.9315	0.129
Mof_C 	C 	0.1745	0.495	0.1154	0.196
Mof_C 	C 	0.643	0	0.082	0.144
Mof_C 	C 	0.8438	0.7941	0.3888	0.29
Mof_C 	C 	0.6795	0.505	0.3846	0.21
Mof_C 	C 	0.2622	0.2622	0.469	0.105
Mof_C 	C 	0.8336	0.4116	0.5685	0.125
Mof_C 	C 	0.578	0.4116	0.0685	0.109
Mof_C 	C 	0.7378	1.44908e-32	0.469	0.079
Mof_C 	C 	0.6795	0.1745	0.8846	0.211
Mof_C 	C 	0.4116	0.578	0.4315	0.113
Mof_C 	C 	0.5884	0.1664	0.0685	0.108
Mof_C 	C 	0.578	0.1664	0.5685	0.114
Mof_C 	C 	0.357	0.357	0.418	0.187
Mof_C 	C 	5.17137e-17	0.7378	0.469	0.079
Mof_C 	C 	0.0497	0.2059	0.3888	0.129
Mof_C 	C 	-1.37787e-17	0.643	0.082	0.144
Mof_C 	C 	0.1664	0.5884	0.0685	0.108
Mof_C 	C 	0.6795	0.1745	0.6154	0.208
Mof_C 	C 	0.2059	0.0497	0.1112	0.128
Mof_C 	C 	0.1745	0.6795	0.6154	0.208
Mof_C 	C 	0.643	0.643	0.918	0.192
Mof_C 	C 	3.27343e-19	0.2622	0.969	0.123
Mof_C 	C 	0.505	0.6795	0.1154	0.208
Mof_C 	C 	0.8255	0.505	0.6154	0.23
Mof_C 	C 	0.9514	0.7381	0.25	0.393
Mof_C 	C 	0.1562	0.9503	0.1112	0.467
Mof_C 	C 	0.1562	0.9503	0.3888	0.47
Mof_C 	C 	0.505	0.6795	0.3846	0.21
Mof_C 	C 	0.2059	0.0497	0.3888	0.129
Mof_C 	C 	0.1664	0.5884	0.4315	0.112
Mof_C 	C 	0.0497	0.2059	0.1112	0.128
Mof_C 	C 	0.1562	0.2059	0.8888	0.295
Mof_C 	C 	-5.20903e-18	0.7378	0.031	0.035
Mof_C 	C 	0.357	0.357	0.082	0.184
Mof_C 	C 	0.643	0	0.418	0.146
Mof_C 	C 	0.495	0.3205	0.8846	0.203
Mof_C 	C 	0.5884	0.1664	0.4315	0.112
Mof_C 	C 	0.4116	0.578	0.0685	0.109
Mof_C 	C 	0.578	0.4116	0.4315	0.113
Mof_C 	C 	0.2619	0.2133	0.25	0.198
Mof_C 	C 	0.2133	0.9514	0.75	0.385
Mof_C 	C 	0.4116	0.8336	0.5685	0.125
Mof_C 	C 	0.495	0.3205	0.6154	0.2
Mof_C 	C 	0.7378	0	0.031	0.035
Mof_C 	C 	0.2622	0.2622	0.031	0.06
Mof_C 	C 	0.6795	0.505	0.1154	0.208
Mof_C 	C 	0.7378	0.7378	0.531	0.106
Mof_C 	C 	0.0486	0.7867	0.25	0.042
Mof_C 	C 	0.8438	0.7941	0.1112	0.288
Mof_C 	C 	0.7867	0.7381	0.75	0.217
Mof_C 	C 	0.1745	0.495	0.3846	0.199
Mof_C 	C 	0.2622	0	0.969	0.123
Mof_C 	C 	0.0497	0.8438	0.6112	0.127
Mof_C 	C 	0.1562	0.2059	0.6112	0.292
Mof_C 	C 	0.3205	0.8255	0.3846	0.23
Mof_C 	C 	0.1745	0.6795	0.8846	0.211
Mof_C 	C 	0.2619	0.0486	0.75	0.032
Mof_C 	C 	0.8336	0.422	0.0685	0.122
Mof_C 	C 	0.8255	0.505	0.8846	0.232
Mof_C 	C 	0.2622	-2.89815e-32	0.531	0.078
Mof_C 	C 	0.8438	0.0497	0.8888	0.13
Mof_N 	N 	0.7966	0.2532	0.353	-0.347
Mof_N 	N 	0.6162	0	0.4677	-0.258
Mof_N 	N 	0.282	0	0.9173	-0.32
Mof_N 	N 	0.3235	-1.44908e-32	0.4994	-0.253
Mof_N 	N 	0.645	0.5444	0.0871	-0.249
Mof_N 	N 	0.7468	0.5434	0.353	-0.35
Mof_N 	N 	0.3613	0.7809	0.3957	-0.339
Mof_N 	N 	0.5444	0.8994	0.9129	-0.193
Mof_N 	N 	0.2191	0.6387	0.8957	-0.341
Mof_N 	N 	0.5434	0.7468	0.147	-0.35
Mof_N 	N 	0.718	0.718	0.9173	-0.296
Mof_N 	N 	0.5782	0.0977	0.9436	-0.25
Mof_N 	N 	0.5804	0.2191	0.1043	-0.344
Mof_N 	N 	0.1006	0.645	0.9129	-0.254
Mof_N 	N 	0.6765	0.6765	0.4994	-0.218
Mof_N 	N 	0.8994	0.5444	0.5871	-0.195
Mof_N 	N 	0.9023	0.4218	0.0564	-0.2
Mof_N 	N 	0.282	0.282	0.0827	-0.292
Mof_N 	N 	0.4196	0.7809	0.6043	-0.339
Mof_N 	N 	8.44684e-18	0.3838	0.5323	-0.259
Mof_N 	N 	0.3613	0.5804	0.8957	-0.34
Mof_N 	N 	0.0977	0.5195	0.4436	-0.26
Mof_N 	N 	0.0977	0.5195	0.0564	-0.266
Mof_N 	N 	0.282	0.282	0.4173	-0.297
Mof_N 	N 	0.9023	0.4218	0.4436	-0.193
Mof_N 	N 	0.601	0.601	0.6281	-0.331
Mof_N 	N 	0.4218	0.5195	0.5564	-0.248
Mof_N 	N 	0.6765	0.6765	0.0006	-0.257
Mof_N 	N 	0.5804	0.2191	0.3957	-0.343
Mof_N 	N 	0.7966	0.5434	0.853	-0.348
Mof_N 	N 	0.9023	0.4805	0.5564	-0.193
Mof_N 	N 	0.5434	0.7966	0.647	-0.348
Mof_N 	N 	-3.74112e-17	0.6765	0.9994	-0.21
Mof_N 	N 	0.6387	0.2191	0.8957	-0.341
Mof_N 	N 	0.5434	0.7468	0.353	-0.35
Mof_N 	N 	0.8994	0.5444	0.9129	-0.193
Mof_N 	N 	0.3613	0.7809	0.1043	-0.341
Mof_N 	N 	0.7468	0.5434	0.147	-0.35
Mof_N 	N 	0.4805	0.5782	0.0564	-0.255
Mof_N 	N 	4.1645e-17	0.282	0.9173	-0.32
Mof_N 	N 	1.66434e-17	0.399	0.8719	-0.318
Mof_N 	N 	0.3235	-1.41511e-35	0.0006	-0.291
Mof_N 	N 	0.3838	-2.89815e-32	0.9677	-0.236
Mof_N 	N 	0.4556	0.355	0.5871	-0.247
Mof_N 	N 	0.6162	0	0.0323	-0.278
Mof_N 	N 	0.7966	0.2532	0.147	-0.347
Mof_N 	N 	-5.42747e-18	0.6162	0.0323	-0.278
Mof_N 	N 	0.4556	0.1006	0.4129	-0.258
Mof_N 	N 	0.399	0.399	0.3719	-0.331
Mof_N 	N 	3.26083e-17	0.282	0.5827	-0.315
Mof_N 	N 	0.5444	0.8994	0.5871	-0.195
Mof_N 	N 	0.2532	0.4566	0.647	-0.342
Mof_N 	N 	0.7468	0.2034	0.853	-0.35
Mof_N 	N 	0.4566	0.2532	0.853	-0.342
Mof_N 	N 	0.4805	0.5782	0.4436	-0.248
Mof_N 	N 	0.399	0	0.8719	-0.318
Mof_N 	N 	0.355	0.4556	0.9129	-0.244
Mof_N 	N 	0.2532	0.7966	0.353	-0.347
Mof_N 	N 	0.7966	0.5434	0.647	-0.348
Mof_N 	N 	0.3838	0.3838	0.0323	-0.256
Mof_N 	N 	0.645	0.5444	0.4129	-0.246
Mof_N 	N 	0.3838	-1.44908e-32	0.5323	-0.259
Mof_N 	N 	0.601	0.601	0.8719	-0.331
Mof_N 	N 	0.8994	0.355	0.4129	-0.195
Mof_N 	N 	0.2191	0.5804	0.1043	-0.344
Mof_N 	N 	0.0977	0.5782	0.9436	-0.25
Mof_N 	N 	-8.67857e-17	0.601	0.1281	-0.318
Mof_N 	N 	0.6765	-1.44908e-32	0.5006	-0.249
Mof_N 	N 	0.3235	0.3235	0.9994	-0.186
Mof_N 	N 	0.4218	0.9023	0.4436	-0.193
Mof_N 	N 	0.7468	0.2034	0.647	-0.35
Mof_N 	N 	4.64038e-17	0.6765	0.5006	-0.249
Mof_N 	N 	0.1006	0.4556	0.4129	-0.258
Mof_N 	N 	0.5195	0.4218	0.9436	-0.239
Mof_N 	N 	0.2034	0.4566	0.353	-0.343
Mof_N 	N 	0.601	0	0.3719	-0.318
Mof_N 	N 	0.4566	0.2034	0.147	-0.343
Mof_N 	N 	0.7809	0.3613	0.3957	-0.339
Mof_N 	N 	1.39751e-17	0.3235	0.4994	-0.253
Mof_N 	N 	0.645	0.1006	0.5871	-0.257
Mof_N 	N 	0.718	0	0.0827	-0.307
Mof_N 	N 	0.718	0.718	0.5827	-0.292
Mof_N 	N 	0.3235	0.3235	0.5006	-0.226
Mof_N 	N 	0.2034	0.7468	0.853	-0.35
Mof_N 	N 	0.4805	0.9023	0.9436	-0.184
Mof_N 	N 	0.5195	0.4218	0.5564	-0.248
Mof_N 	N 	0.4196	0.6387	0.1043	-0.344
Mof_N 	N 	0.355	0.8994	0.0871	-0.198
Mof_N 	N 	0.5444	0.645	0.4129	-0.246
Mof_N 	N 	0.5195	0.0977	0.4436	-0.26
Mof_N 	N 	0.7809	0.4196	0.6043	-0.339
Mof_N 	N 	0.5782	0.4805	0.4436	-0.248
Mof_N 	N 	0.4218	0.5195	0.9436	-0.239
Mof_N 	N 	-1.38963e-17	0.718	0.0827	-0.307
Mof_N 	N 	6.0401e-17	0.718	0.4173	-0.312
Mof_N 	N 	0.2191	0.6387	0.6043	-0.343
Mof_N 	N 	0.6162	0.6162	0.9677	-0.212
Mof_N 	N 	0.0977	0.5782	0.5564	-0.26
Mof_N 	N 	0.5804	0.3613	0.8957	-0.34
Mof_N 	N 	0.6387	0.4196	0.1043	-0.344
Mof_N 	N 	0.6387	0.4196	0.3957	-0.342
Mof_N 	N 	0.6387	0.2191	0.6043	-0.343
Mof_N 	N 	0.1006	0.645	0.5871	-0.257
Mof_N 	N 	0.5782	0.4805	0.0564	-0.255
Mof_N 	N 	0.9023	0.4805	0.9436	-0.184
Mof_N 	N 	-7.65075e-18	0.399	0.6281	-0.318
Mof_N 	N 	0.5782	0.0977	0.5564	-0.26
Mof_N 	N 	0.5195	0.0977	0.0564	-0.266
Mof_N 	N 	0.5444	0.645	0.0871	-0.249
Mof_N 	N 	0.4556	0.355	0.9129	-0.244
Mof_N 	N 	0.355	0.8994	0.4129	-0.195
Mof_N 	N 	0.4196	0.6387	0.3957	-0.342
Mof_N 	N 	0.355	0.4556	0.5871	-0.247
Mof_N 	N 	0.6162	0.6162	0.5323	-0.234
Mof_N 	N 	0.5434	0.7966	0.853	-0.348
Mof_N 	N 	5.45786e-19	0.3838	0.9677	-0.236
Mof_N 	N 	0.4805	0.9023	0.5564	-0.193
Mof_N 	N 	0.399	0.399	0.1281	-0.331
Mof_N 	N 	0.3613	0.5804	0.6043	-0.342
Mof_N 	N 	0.718	0	0.4173	-0.312
Mof_N 	N 	0.5804	0.3613	0.6043	-0.342
Mof_N 	N 	0.645	0.1006	0.9129	-0.254
Mof_N 	N 	-1.0082e-19	0.3235	0.0006	-0.291
Mof_N 	N 	0.4196	0.7809	0.8957	-0.338
Mof_N 	N 	0.7809	0.3613	0.1043	-0.341
Mof_N 	N 	0.4566	0.2034	0.353	-0.343
Mof_N 	N 	0.601	0	0.1281	-0.318
Mof_N 	N 	0.2034	0.4566	0.147	-0.343
Mof_N 	N 	0.7809	0.4196	0.8957	-0.338
Mof_N 	N 	0.282	-1.44908e-32	0.5827	-0.315
Mof_N 	N 	0.1006	0.4556	0.0871	-0.26
Mof_N 	N 	0.4218	0.9023	0.0564	-0.2
Mof_N 	N 	2.76906e-18	0.601	0.3719	-0.318
Mof_N 	N 	0.2191	0.5804	0.3957	-0.343
Mof_N 	N 	0.8994	0.355	0.0871	-0.198
Mof_N 	N 	0.6765	-2.89815e-32	0.9994	-0.21
Mof_N 	N 	0.3838	0.3838	0.4677	-0.236
Mof_N 	N 	0.2532	0.4566	0.853	-0.342
Mof_N 	N 	0.2532	0.7966	0.147	-0.347
Mof_N 	N 	0.2034	0.7468	0.647	-0.35
Mof_N 	N 	0.399	0	0.6281	-0.318
Mof_N 	N 	0.4566	0.2532	0.647	-0.342
Mof_N 	N 	0.4556	0.1006	0.0871	-0.26
Mof_N 	N 	5.19321e-17	0.6162	0.4677	-0.258
Mof_Cl	Cl	0.6628	0.6628	0.1806	-0.444
Mof_Cl	Cl	-7.24538e-33	0	0.25	-0.743
Mof_Cl	Cl	0.6628	0	0.8194	-0.551
Mof_Cl	Cl	1.15908e-17	0.3372	0.3194	-0.556
Mof_Cl	Cl	0.3372	0.3372	0.8194	-0.455
Mof_Cl	Cl	0.3372	0	0.3194	-0.556
Mof_Cl	Cl	-7.16519e-18	0.6628	0.8194	-0.551
Mof_Cl	Cl	-0	0	-0	-0.765
Mof_Cl	Cl	0.6628	1.44908e-32	0.6806	-0.551
Mof_Cl	Cl	0.6628	0.6628	0.3194	-0.444
Mof_Cl	Cl	1.61578e-17	0.6628	0.6806	-0.551
Mof_Cl	Cl	0.3372	3.62269e-33	0.1806	-0.556
Mof_Cl	Cl	0.3372	0.3372	0.6806	-0.455
Mof_Cl	Cl	3.49138e-17	0.3372	0.1806	-0.556
Mof_Cl	Cl	-1.44908e-32	0	0.5	-0.733
Mof_Cl	Cl	-1.44908e-32	-1.44908e-32	0.75	-0.747
Mof_O 	O 	0.7195	0.806	0.7062	-0.341
Mof_O 	O 	0.2805	0.0865	0.7062	-0.347
Mof_O 	O 	0.7178	0.9136	0.9017	-0.374
Mof_O 	O 	0.1648	0.0797	0.6238	-0.54
Mof_O 	O 	0.2822	0.1958	0.9017	-0.407
Mof_O 	O 	0.2822	0.0864	0.4017	-0.384
Mof_O 	O 	0.0851	0.1648	0.1238	-0.49
Mof_O 	O 	0.9149	0.8352	0.8762	-0.438
Mof_O 	O 	0.8042	0.7178	0.0983	-0.381
Mof_O 	O 	0.7178	0.9136	0.5983	-0.379
Mof_O 	O 	0.9203	0.0851	0.6238	-0.378
Mof_O 	O 	0.1648	0.0851	0.1238	-0.49
Mof_O 	O 	0.8352	0.9149	0.8762	-0.438
Mof_O 	O 	0.8352	0.9149	0.6238	-0.438
Mof_O 	O 	0.806	0.0865	0.2062	-0.323
Mof_O 	O 	0.806	0.0865	0.2938	-0.323
Mof_O 	O 	0.1648	0.0851	0.3762	-0.488
Mof_O 	O 	0.8042	0.7178	0.4017	-0.376
Mof_O 	O 	0.0851	0.1648	0.3762	-0.488
Mof_O 	O 	0.2805	0.0865	0.7938	-0.347
Mof_O 	O 	0.806	0.7195	0.7062	-0.341
Mof_O 	O 	0.0797	0.1648	0.6238	-0.54
Mof_O 	O 	0.2805	0.194	0.2938	-0.374
Mof_O 	O 	0.0864	0.8042	0.5983	-0.354
Mof_O 	O 	0.194	0.9135	0.7938	-0.353
Mof_O 	O 	0.9135	0.7195	0.2062	-0.344
Mof_O 	O 	0.0864	0.8042	0.9017	-0.349
Mof_O 	O 	0.7195	0.9135	0.2062	-0.344
Mof_O 	O 	0.9136	0.1958	0.4017	-0.385
Mof_O 	O 	0.1958	0.9136	0.4017	-0.385
Mof_O 	O 	0.7178	0.8042	0.4017	-0.376
Mof_O 	O 	0.0864	0.2822	0.0983	-0.389
Mof_O 	O 	0.7195	0.806	0.7938	-0.341
Mof_O 	O 	0.194	0.2805	0.2938	-0.374
Mof_O 	O 	0.9149	0.0797	0.1238	-0.513
Mof_O 	O 	0.0865	0.806	0.2062	-0.323
Mof_O 	O 	0.1958	0.2822	0.9017	-0.407
Mof_O 	O 	0.8352	0.9203	0.3762	-0.357
Mof_O 	O 	0.0797	0.9149	0.1238	-0.513
Mof_O 	O 	0.9203	0.8352	0.1238	-0.359
Mof_O 	O 	0.1958	0.2822	0.5983	-0.412
Mof_O 	O 	0.9135	0.194	0.7938	-0.353
Mof_O 	O 	0.0797	0.1648	0.8762	-0.539
Mof_O 	O 	0.9136	0.7178	0.9017	-0.374
Mof_O 	O 	0.2822	0.1958	0.5983	-0.412
Mof_O 	O 	0.0865	0.2805	0.7062	-0.347
Mof_O 	O 	0.9203	0.0851	0.8762	-0.378
Mof_O 	O 	0.1648	0.0797	0.8762	-0.539
Mof_O 	O 	0.8042	0.0864	0.9017	-0.349
Mof_O 	O 	0.0865	0.2805	0.7938	-0.347
Mof_O 	O 	0.9203	0.8352	0.3762	-0.357
Mof_O 	O 	0.0797	0.9149	0.3762	-0.512
Mof_O 	O 	0.9135	0.194	0.7062	-0.353
Mof_O 	O 	0.8352	0.9203	0.1238	-0.359
Mof_O 	O 	0.0851	0.9203	0.8762	-0.378
Mof_O 	O 	0.2822	0.0864	0.0983	-0.389
Mof_O 	O 	0.9149	0.0797	0.3762	-0.512
Mof_O 	O 	0.194	0.2805	0.2062	-0.374
Mof_O 	O 	0.194	0.9135	0.7062	-0.353
Mof_O 	O 	0.9149	0.8352	0.6238	-0.438
Mof_O 	O 	0.0864	0.2822	0.4017	-0.384
Mof_O 	O 	0.7178	0.8042	0.0983	-0.381
Mof_O 	O 	0.8042	0.0864	0.5983	-0.354
Mof_O 	O 	0.1958	0.9136	0.0983	-0.39
Mof_O 	O 	0.9136	0.1958	0.0983	-0.39
Mof_O 	O 	0.7195	0.9135	0.2938	-0.344
Mof_O 	O 	0.9135	0.7195	0.2938	-0.344
Mof_O 	O 	0.0851	0.9203	0.6238	-0.378
Mof_O 	O 	0.2805	0.194	0.2062	-0.374
Mof_O 	O 	0.0865	0.806	0.2938	-0.323
Mof_O 	O 	0.806	0.7195	0.7938	-0.341
Mof_O 	O 	0.9136	0.7178	0.5983	-0.379
_end
