data_functionalizedCrystal
_audit_creation_method	'EQeq! by Chris Wilmer'
_symmetry_space_group_name_H-M	'P1'
_symmetry_Int_Tables_number	1
_symmetry_cell_setting	triclinic
loop_
_symmetry_equiv_pos_as_xyz
  x,y,z
_cell_length_a	12.145
_cell_length_b	30.72
_cell_length_c	22.75
_cell_angle_alpha	90
_cell_angle_beta	94
_cell_angle_gamma	90
loop_
_atom_site_label
_atom_site_type_symbol
_atom_site_fract_x
_atom_site_fract_y
_atom_site_fract_z
_atom_site_charge
Mof_Zn	Zn	0.31427	0.13252	0.48747	1.243
Mof_Zn	Zn	0.2588	0.0831	0.34284	1.243
Mof_O 	O 	0.2606	0.17288	0.42348	-0.473
Mof_O 	O 	0.1756	0.13581	0.34893	-0.494
Mof_O 	O 	0.1594	0.32299	0.45454	-0.455
Mof_O 	O 	0.0691	0.36042	0.3853	-0.291
Mof_O 	O 	0.2246	0.02983	0.38104	-0.467
Mof_O 	O 	0.0523	0.03438	0.34154	-0.475
Mof_O 	O 	0.7625	0.9394	0.427	-0.279
Mof_O 	O 	0.8163	0.90119	0.50493	-0.471
Mof_O 	O 	0.1223	0.9234	0.7285	-0.403
Mof_O 	O 	0.2979	0.92036	0.76138	-0.492
Mof_O 	O 	0.589	0.90365	0.62561	-0.49
Mof_O 	O 	0.546	0.89388	0.53066	-0.477
Mof_C 	C 	0.1977	0.17015	0.378	0.42
Mof_C 	C 	0.143	0.21065	0.3551	-0.131
Mof_C 	C 	0.1513	0.24828	0.3887	0.059
Mof_H 	H 	0.1902	0.2479	0.4254	0.044
Mof_C 	C 	0.1019	0.28647	0.3679	-0.112
Mof_C 	C 	0.0417	0.28636	0.3136	0.018
Mof_H 	H 	0.007	0.3118	0.3	0.036
Mof_C 	C 	0.0326	0.24882	0.2793	-0.066
Mof_C 	C 	0.0831	0.21121	0.3008	0.028
Mof_H 	H 	0.0769	0.1858	0.2786	0.03
Mof_C 	C 	0.1097	0.327	0.4045	0.379
Mof_C 	C 	0.1225	0.01769	0.3766	0.384
Mof_C 	C 	0.0908	0.98446	0.419	-0.146
Mof_C 	C 	0.9832	0.97038	0.4188	0.074
Mof_H 	H 	0.9312	0.9802	0.3899	0.033
Mof_C 	C 	0.9516	0.94147	0.4619	-0.052
Mof_C 	C 	0.0285	0.92735	0.5054	-0.072
Mof_H 	H 	0.0073	0.9083	0.5343	0.063
Mof_C 	C 	0.1383	0.94165	0.5063	0.021
Mof_C 	C 	0.168	0.96951	0.4627	-0.009
Mof_H 	H 	0.241	0.9786	0.4623	0.059
Mof_C 	C 	0.2186	0.92911	0.5554	-0.023
Mof_C 	C 	0.1858	0.9297	0.6128	0.029
Mof_H 	H 	0.1126	0.9355	0.6196	0.04
Mof_C 	C 	0.2624	0.9216	0.6603	-0.153
Mof_C 	C 	0.3731	0.91332	0.6501	0.084
Mof_H 	H 	0.4249	0.909	0.6816	0.04
Mof_C 	C 	0.4047	0.91151	0.5924	-0.129
Mof_C 	C 	0.3279	0.91904	0.5453	0.016
Mof_H 	H 	0.3494	0.9174	0.507	0.049
Mof_C 	C 	0.8334	0.9263	0.4636	0.363
Mof_C 	C 	0.2261	0.9245	0.7215	0.544
Mof_C 	C 	0.5223	0.90234	0.5822	0.433
Mof_O 	O 	0.1633	0.9607	0.7282	-0.322
Mof_Zn	Zn	0.81427	0.63252	0.48747	1.243
Mof_Zn	Zn	0.7588	0.5831	0.34284	1.244
Mof_O 	O 	0.7606	0.67288	0.42348	-0.468
Mof_O 	O 	0.6756	0.63581	0.34893	-0.488
Mof_O 	O 	0.6594	0.82299	0.45454	-0.45
Mof_O 	O 	0.5691	0.86042	0.3853	-0.28
Mof_O 	O 	0.7246	0.52983	0.38104	-0.461
Mof_O 	O 	0.5523	0.53438	0.34154	-0.456
Mof_O 	O 	0.2625	0.4394	0.427	-0.287
Mof_O 	O 	0.3163	0.40119	0.50493	-0.481
Mof_O 	O 	0.6223	0.4234	0.7285	-0.394
Mof_O 	O 	0.7979	0.42036	0.76138	-0.483
Mof_O 	O 	0.089	0.40365	0.62561	-0.489
Mof_O 	O 	0.046	0.39388	0.53066	-0.477
Mof_C 	C 	0.6977	0.67015	0.378	0.413
Mof_C 	C 	0.643	0.71065	0.3551	-0.104
Mof_C 	C 	0.6513	0.74828	0.3887	0.039
Mof_H 	H 	0.6902	0.7479	0.4254	0.053
Mof_C 	C 	0.6019	0.78647	0.3679	-0.085
Mof_C 	C 	0.5417	0.78636	0.3136	-0.019
Mof_H 	H 	0.507	0.8118	0.3	0.06
Mof_C 	C 	0.5326	0.74882	0.2793	0.004
Mof_C 	C 	0.5831	0.71121	0.3008	-0.009
Mof_H 	H 	0.5769	0.6858	0.2786	0.054
Mof_C 	C 	0.6097	0.827	0.4045	0.371
Mof_C 	C 	0.6225	0.51769	0.3766	0.372
Mof_C 	C 	0.5908	0.48446	0.419	-0.101
Mof_C 	C 	0.4832	0.47038	0.4188	0.032
Mof_H 	H 	0.4312	0.4802	0.3899	0.04
Mof_C 	C 	0.4516	0.44147	0.4619	-0.084
Mof_C 	C 	0.5285	0.42735	0.5054	-0.021
Mof_H 	H 	0.5073	0.4083	0.5343	0.06
Mof_C 	C 	0.6383	0.44165	0.5063	0.009
Mof_C 	C 	0.668	0.46951	0.4627	-0.013
Mof_H 	H 	0.741	0.4786	0.4623	0.064
Mof_C 	C 	0.7186	0.42911	0.5554	0.004
Mof_C 	C 	0.6858	0.4297	0.6128	0.007
Mof_H 	H 	0.6126	0.4355	0.6196	0.056
Mof_C 	C 	0.7624	0.4216	0.6603	-0.126
Mof_C 	C 	0.8731	0.41332	0.6501	0.053
Mof_H 	H 	0.9249	0.409	0.6816	0.061
Mof_C 	C 	0.9047	0.41151	0.5924	-0.072
Mof_C 	C 	0.8279	0.41904	0.5453	-0.015
Mof_H 	H 	0.8494	0.4174	0.507	0.07
Mof_C 	C 	0.3334	0.4263	0.4636	0.37
Mof_C 	C 	0.7261	0.4245	0.7215	0.532
Mof_C 	C 	0.0223	0.40234	0.5822	0.389
Mof_O 	O 	0.6633	0.4607	0.7282	-0.316
Mof_Zn	Zn	0.68573	0.13252	0.01253	1.242
Mof_Zn	Zn	0.7412	0.0831	0.15716	1.243
Mof_O 	O 	0.7394	0.17288	0.07652	-0.467
Mof_O 	O 	0.8244	0.13581	0.15107	-0.482
Mof_O 	O 	0.8406	0.32299	0.04546	-0.445
Mof_O 	O 	0.9309	0.36042	0.1147	-0.268
Mof_O 	O 	0.7754	0.02983	0.11896	-0.459
Mof_O 	O 	0.9477	0.03438	0.15846	-0.433
Mof_O 	O 	0.2375	0.9394	0.073	-0.286
Mof_O 	O 	0.1837	0.90119	0.99507	-0.49
Mof_O 	O 	0.8777	0.9234	0.7715	-0.383
Mof_O 	O 	0.7021	0.92036	0.73862	-0.488
Mof_O 	O 	0.411	0.90365	0.87439	-0.49
Mof_O 	O 	0.454	0.89388	0.96934	-0.476
Mof_C 	C 	0.8023	0.17015	0.122	0.405
Mof_C 	C 	0.857	0.21065	0.1449	-0.079
Mof_C 	C 	0.8487	0.24828	0.1113	0.018
Mof_H 	H 	0.8098	0.2479	0.0746	0.061
Mof_C 	C 	0.8981	0.28647	0.1321	-0.059
Mof_C 	C 	0.9583	0.28636	0.1864	-0.056
Mof_H 	H 	0.993	0.3118	0.2	0.085
Mof_C 	C 	0.9674	0.24882	0.2207	0.073
Mof_C 	C 	0.9169	0.21121	0.1992	-0.046
Mof_H 	H 	0.9231	0.1858	0.2214	0.076
Mof_C 	C 	0.8903	0.327	0.0955	0.362
Mof_C 	C 	0.8775	0.01769	0.1234	0.358
Mof_C 	C 	0.9092	0.98446	0.081	-0.054
Mof_C 	C 	0.0168	0.97038	0.0812	-0.016
Mof_H 	H 	0.0688	0.9802	0.1101	0.05
Mof_C 	C 	0.0484	0.94147	0.0381	-0.109
Mof_C 	C 	0.9715	0.92735	0.9946	0.019
Mof_H 	H 	0.9927	0.9083	0.9657	0.059
Mof_C 	C 	0.8617	0.94165	0.9937	0.008
Mof_C 	C 	0.832	0.96951	0.0373	-0.024
Mof_H 	H 	0.759	0.9786	0.0377	0.066
Mof_C 	C 	0.7814	0.92911	0.9446	-0.005
Mof_C 	C 	0.8142	0.9297	0.8872	0.015
Mof_H 	H 	0.8874	0.9355	0.8804	0.06
Mof_C 	C 	0.7376	0.9216	0.8397	-0.136
Mof_C 	C 	0.6269	0.91332	0.8499	0.075
Mof_H 	H 	0.5751	0.909	0.8184	0.043
Mof_C 	C 	0.5953	0.91151	0.9076	-0.121
Mof_C 	C 	0.6721	0.91904	0.9547	0.007
Mof_H 	H 	0.6506	0.9174	0.993	0.055
Mof_C 	C 	0.1666	0.9263	0.0364	0.375
Mof_C 	C 	0.7739	0.9245	0.7785	0.533
Mof_C 	C 	0.4777	0.90234	0.9178	0.431
Mof_O 	O 	0.8367	0.9607	0.7718	-0.311
Mof_Zn	Zn	0.18573	0.63252	0.01253	1.241
Mof_Zn	Zn	0.2412	0.5831	0.15716	1.242
Mof_O 	O 	0.2394	0.67288	0.07652	-0.473
Mof_O 	O 	0.3244	0.63581	0.15107	-0.489
Mof_O 	O 	0.3406	0.82299	0.04546	-0.451
Mof_O 	O 	0.4309	0.86042	0.1147	-0.279
Mof_O 	O 	0.2754	0.52983	0.11896	-0.467
Mof_O 	O 	0.4477	0.53438	0.15846	-0.456
Mof_O 	O 	0.7375	0.4394	0.073	-0.279
Mof_O 	O 	0.6837	0.40119	0.99507	-0.482
Mof_O 	O 	0.3777	0.4234	0.7715	-0.397
Mof_O 	O 	0.2021	0.42036	0.73862	-0.499
Mof_O 	O 	0.911	0.40365	0.87439	-0.492
Mof_O 	O 	0.954	0.39388	0.96934	-0.477
Mof_C 	C 	0.3023	0.67015	0.122	0.412
Mof_C 	C 	0.357	0.71065	0.1449	-0.107
Mof_C 	C 	0.3487	0.74828	0.1113	0.038
Mof_H 	H 	0.3098	0.7479	0.0746	0.051
Mof_C 	C 	0.3981	0.78647	0.1321	-0.086
Mof_C 	C 	0.4583	0.78636	0.1864	-0.019
Mof_H 	H 	0.493	0.8118	0.2	0.062
Mof_C 	C 	0.4674	0.74882	0.2207	0.003
Mof_C 	C 	0.4169	0.71121	0.1992	-0.009
Mof_H 	H 	0.4231	0.6858	0.2214	0.052
Mof_C 	C 	0.3903	0.827	0.0955	0.37
Mof_C 	C 	0.3775	0.51769	0.1234	0.371
Mof_C 	C 	0.4092	0.48446	0.081	-0.1
Mof_C 	C 	0.5168	0.47038	0.0812	0.028
Mof_H 	H 	0.5688	0.4802	0.1101	0.042
Mof_C 	C 	0.5484	0.44147	0.0381	-0.078
Mof_C 	C 	0.4715	0.42735	0.9946	-0.032
Mof_H 	H 	0.4927	0.4083	0.9657	0.062
Mof_C 	C 	0.3617	0.44165	0.9937	0.021
Mof_C 	C 	0.332	0.46951	0.0373	-0.02
Mof_H 	H 	0.259	0.4786	0.0377	0.061
Mof_C 	C 	0.2814	0.42911	0.9446	-0.032
Mof_C 	C 	0.3142	0.4297	0.8872	0.037
Mof_H 	H 	0.3874	0.4355	0.8804	0.045
Mof_C 	C 	0.2376	0.4216	0.8397	-0.164
Mof_C 	C 	0.1269	0.41332	0.8499	0.106
Mof_H 	H 	0.0751	0.409	0.8184	0.022
Mof_C 	C 	0.0953	0.41151	0.9076	-0.177
Mof_C 	C 	0.1721	0.41904	0.9547	0.038
Mof_H 	H 	0.1506	0.4174	0.993	0.034
Mof_C 	C 	0.6666	0.4263	0.0364	0.369
Mof_C 	C 	0.2739	0.4245	0.7785	0.547
Mof_C 	C 	0.9777	0.40234	0.9178	0.473
Mof_O 	O 	0.3367	0.4607	0.7718	-0.321
Mof_Zn	Zn	0.68573	0.86748	0.51253	1.242
Mof_Zn	Zn	0.7412	0.9169	0.65716	1.243
Mof_O 	O 	0.7394	0.82712	0.57652	-0.468
Mof_O 	O 	0.8244	0.86419	0.65107	-0.482
Mof_O 	O 	0.8406	0.67701	0.54546	-0.446
Mof_O 	O 	0.9309	0.63958	0.6147	-0.268
Mof_O 	O 	0.7754	0.97017	0.61896	-0.459
Mof_O 	O 	0.9477	0.96562	0.65846	-0.433
Mof_O 	O 	0.2375	0.0606	0.573	-0.287
Mof_O 	O 	0.1837	0.09881	0.49507	-0.489
Mof_O 	O 	0.8777	0.0766	0.2715	-0.382
Mof_O 	O 	0.7021	0.07964	0.23862	-0.488
Mof_O 	O 	0.411	0.09635	0.37439	-0.49
Mof_O 	O 	0.454	0.10612	0.46934	-0.476
Mof_C 	C 	0.8023	0.82985	0.622	0.406
Mof_C 	C 	0.857	0.78935	0.6449	-0.08
Mof_C 	C 	0.8487	0.75172	0.6113	0.018
Mof_H 	H 	0.8098	0.7521	0.5746	0.06
Mof_C 	C 	0.8981	0.71353	0.6321	-0.06
Mof_C 	C 	0.9583	0.71364	0.6864	-0.055
Mof_H 	H 	0.993	0.6882	0.7	0.085
Mof_C 	C 	0.9674	0.75118	0.7207	0.072
Mof_C 	C 	0.9169	0.78879	0.6992	-0.045
Mof_H 	H 	0.9231	0.8142	0.7214	0.075
Mof_C 	C 	0.8903	0.673	0.5955	0.362
Mof_C 	C 	0.8775	0.98231	0.6234	0.358
Mof_C 	C 	0.9092	0.01554	0.581	-0.055
Mof_C 	C 	0.0168	0.02962	0.5812	-0.015
Mof_H 	H 	0.0688	0.0198	0.6101	0.049
Mof_C 	C 	0.0484	0.05853	0.5381	-0.111
Mof_C 	C 	0.9715	0.07265	0.4946	0.021
Mof_H 	H 	0.9927	0.0917	0.4657	0.059
Mof_C 	C 	0.8617	0.05835	0.4937	0.01
Mof_C 	C 	0.832	0.03049	0.5373	-0.027
Mof_H 	H 	0.759	0.0214	0.5377	0.066
Mof_C 	C 	0.7814	0.07089	0.4446	-0.005
Mof_C 	C 	0.8142	0.0703	0.3872	0.015
Mof_H 	H 	0.8874	0.0645	0.3804	0.061
Mof_C 	C 	0.7376	0.0784	0.3397	-0.136
Mof_C 	C 	0.6269	0.08668	0.3499	0.075
Mof_H 	H 	0.5751	0.091	0.3184	0.043
Mof_C 	C 	0.5953	0.08849	0.4076	-0.12
Mof_C 	C 	0.6721	0.08096	0.4547	0.007
Mof_H 	H 	0.6506	0.0826	0.493	0.055
Mof_C 	C 	0.1666	0.0737	0.5364	0.375
Mof_C 	C 	0.7739	0.0755	0.2785	0.532
Mof_C 	C 	0.4777	0.09766	0.4178	0.431
Mof_O 	O 	0.8367	0.0393	0.2718	-0.311
Mof_Zn	Zn	0.18573	0.36748	0.51253	1.241
Mof_Zn	Zn	0.2412	0.4169	0.65716	1.242
Mof_O 	O 	0.2394	0.32712	0.57652	-0.473
Mof_O 	O 	0.3244	0.36419	0.65107	-0.49
Mof_O 	O 	0.3406	0.17701	0.54546	-0.452
Mof_O 	O 	0.4309	0.13958	0.6147	-0.28
Mof_O 	O 	0.2754	0.47017	0.61896	-0.467
Mof_O 	O 	0.4477	0.46562	0.65846	-0.456
Mof_O 	O 	0.7375	0.5606	0.573	-0.279
Mof_O 	O 	0.6837	0.59881	0.49507	-0.48
Mof_O 	O 	0.3777	0.5766	0.2715	-0.397
Mof_O 	O 	0.2021	0.57964	0.23862	-0.499
Mof_O 	O 	0.911	0.59635	0.37439	-0.492
Mof_O 	O 	0.954	0.60612	0.46934	-0.477
Mof_C 	C 	0.3023	0.32985	0.622	0.412
Mof_C 	C 	0.357	0.28935	0.6449	-0.107
Mof_C 	C 	0.3487	0.25172	0.6113	0.038
Mof_H 	H 	0.3098	0.2521	0.5746	0.051
Mof_C 	C 	0.3981	0.21353	0.6321	-0.086
Mof_C 	C 	0.4583	0.21364	0.6864	-0.019
Mof_H 	H 	0.493	0.1882	0.7	0.061
Mof_C 	C 	0.4674	0.25118	0.7207	0.003
Mof_C 	C 	0.4169	0.28879	0.6992	-0.009
Mof_H 	H 	0.4231	0.3142	0.7214	0.052
Mof_C 	C 	0.3903	0.173	0.5955	0.371
Mof_C 	C 	0.3775	0.48231	0.6234	0.371
Mof_C 	C 	0.4092	0.51554	0.581	-0.1
Mof_C 	C 	0.5168	0.52962	0.5812	0.027
Mof_H 	H 	0.5688	0.5198	0.6101	0.042
Mof_C 	C 	0.5484	0.55853	0.5381	-0.079
Mof_C 	C 	0.4715	0.57265	0.4946	-0.03
Mof_H 	H 	0.4927	0.5917	0.4657	0.062
Mof_C 	C 	0.3617	0.55835	0.4937	0.022
Mof_C 	C 	0.332	0.53049	0.5373	-0.022
Mof_H 	H 	0.259	0.5214	0.5377	0.061
Mof_C 	C 	0.2814	0.57089	0.4446	-0.033
Mof_C 	C 	0.3142	0.5703	0.3872	0.038
Mof_H 	H 	0.3874	0.5645	0.3804	0.045
Mof_C 	C 	0.2376	0.5784	0.3397	-0.164
Mof_C 	C 	0.1269	0.58668	0.3499	0.107
Mof_H 	H 	0.0751	0.591	0.3184	0.021
Mof_C 	C 	0.0953	0.58849	0.4076	-0.179
Mof_C 	C 	0.1721	0.58096	0.4547	0.039
Mof_H 	H 	0.1506	0.5826	0.493	0.034
Mof_C 	C 	0.6666	0.5737	0.5364	0.367
Mof_C 	C 	0.2739	0.5755	0.2785	0.547
Mof_C 	C 	0.9777	0.59766	0.4178	0.475
Mof_O 	O 	0.3367	0.5393	0.2718	-0.321
Mof_Zn	Zn	0.31427	0.86748	0.98747	1.242
Mof_Zn	Zn	0.2588	0.9169	0.84284	1.242
Mof_O 	O 	0.2606	0.82712	0.92348	-0.474
Mof_O 	O 	0.1756	0.86419	0.84893	-0.495
Mof_O 	O 	0.1594	0.67701	0.95454	-0.457
Mof_O 	O 	0.0691	0.63958	0.8853	-0.292
Mof_O 	O 	0.2246	0.97017	0.88104	-0.468
Mof_O 	O 	0.0523	0.96562	0.84154	-0.475
Mof_O 	O 	0.7625	0.0606	0.927	-0.28
Mof_O 	O 	0.8163	0.09881	0.00493	-0.471
Mof_O 	O 	0.1223	0.0766	0.2285	-0.405
Mof_O 	O 	0.2979	0.07964	0.26138	-0.493
Mof_O 	O 	0.589	0.09635	0.12561	-0.491
Mof_O 	O 	0.546	0.10612	0.03066	-0.478
Mof_C 	C 	0.1977	0.82985	0.878	0.42
Mof_C 	C 	0.143	0.78935	0.8551	-0.131
Mof_C 	C 	0.1513	0.75172	0.8887	0.059
Mof_H 	H 	0.1902	0.7521	0.9254	0.044
Mof_C 	C 	0.1019	0.71353	0.8679	-0.112
Mof_C 	C 	0.0417	0.71364	0.8136	0.017
Mof_H 	H 	0.007	0.6882	0.8	0.037
Mof_C 	C 	0.0326	0.75118	0.7793	-0.065
Mof_C 	C 	0.0831	0.78879	0.8008	0.028
Mof_H 	H 	0.0769	0.8142	0.7786	0.031
Mof_C 	C 	0.1097	0.673	0.9045	0.379
Mof_C 	C 	0.1225	0.98231	0.8766	0.383
Mof_C 	C 	0.0908	0.01554	0.919	-0.144
Mof_C 	C 	0.9832	0.02962	0.9188	0.073
Mof_H 	H 	0.9312	0.0198	0.8899	0.034
Mof_C 	C 	0.9516	0.05853	0.9619	-0.053
Mof_C 	C 	0.0285	0.07265	0.0054	-0.071
Mof_H 	H 	0.0073	0.0917	0.0343	0.063
Mof_C 	C 	0.1383	0.05835	0.0063	0.022
Mof_C 	C 	0.168	0.03049	0.9627	-0.01
Mof_H 	H 	0.241	0.0214	0.9623	0.059
Mof_C 	C 	0.2186	0.07089	0.0554	-0.023
Mof_C 	C 	0.1858	0.0703	0.1128	0.029
Mof_H 	H 	0.1126	0.0645	0.1196	0.04
Mof_C 	C 	0.2624	0.0784	0.1603	-0.153
Mof_C 	C 	0.3731	0.08668	0.1501	0.084
Mof_H 	H 	0.4249	0.091	0.1816	0.04
Mof_C 	C 	0.4047	0.08849	0.0924	-0.129
Mof_C 	C 	0.3279	0.08096	0.0453	0.016
Mof_H 	H 	0.3494	0.0826	0.007	0.05
Mof_C 	C 	0.8334	0.0737	0.9636	0.361
Mof_C 	C 	0.2261	0.0755	0.2215	0.544
Mof_C 	C 	0.5223	0.09766	0.0822	0.433
Mof_O 	O 	0.1633	0.0393	0.2282	-0.322
Mof_Zn	Zn	0.81427	0.36748	0.98747	1.242
Mof_Zn	Zn	0.7588	0.4169	0.84284	1.243
Mof_O 	O 	0.7606	0.32712	0.92348	-0.469
Mof_O 	O 	0.6756	0.36419	0.84893	-0.488
Mof_O 	O 	0.6594	0.17701	0.95454	-0.451
Mof_O 	O 	0.5691	0.13958	0.8853	-0.28
Mof_O 	O 	0.7246	0.47017	0.88104	-0.461
Mof_O 	O 	0.5523	0.46562	0.84154	-0.456
Mof_O 	O 	0.2625	0.5606	0.927	-0.287
Mof_O 	O 	0.3163	0.59881	0.00493	-0.48
Mof_O 	O 	0.6223	0.5766	0.2285	-0.394
Mof_O 	O 	0.7979	0.57964	0.26138	-0.482
Mof_O 	O 	0.089	0.59635	0.12561	-0.489
Mof_O 	O 	0.046	0.60612	0.03066	-0.477
Mof_C 	C 	0.6977	0.32985	0.878	0.413
Mof_C 	C 	0.643	0.28935	0.8551	-0.104
Mof_C 	C 	0.6513	0.25172	0.8887	0.039
Mof_H 	H 	0.6902	0.2521	0.9254	0.053
Mof_C 	C 	0.6019	0.21353	0.8679	-0.085
Mof_C 	C 	0.5417	0.21364	0.8136	-0.019
Mof_H 	H 	0.507	0.1882	0.8	0.06
Mof_C 	C 	0.5326	0.25118	0.7793	0.004
Mof_C 	C 	0.5831	0.28879	0.8008	-0.008
Mof_H 	H 	0.5769	0.3142	0.7786	0.054
Mof_C 	C 	0.6097	0.173	0.9045	0.371
Mof_C 	C 	0.6225	0.48231	0.8766	0.372
Mof_C 	C 	0.5908	0.51554	0.919	-0.101
Mof_C 	C 	0.4832	0.52962	0.9188	0.032
Mof_H 	H 	0.4312	0.5198	0.8899	0.04
Mof_C 	C 	0.4516	0.55853	0.9619	-0.085
Mof_C 	C 	0.5285	0.57265	0.0054	-0.019
Mof_H 	H 	0.5073	0.5917	0.0343	0.06
Mof_C 	C 	0.6383	0.55835	0.0063	0.011
Mof_C 	C 	0.668	0.53049	0.9627	-0.016
Mof_H 	H 	0.741	0.5214	0.9623	0.064
Mof_C 	C 	0.7186	0.57089	0.0554	0.004
Mof_C 	C 	0.6858	0.5703	0.1128	0.007
Mof_H 	H 	0.6126	0.5645	0.1196	0.056
Mof_C 	C 	0.7624	0.5784	0.1603	-0.126
Mof_C 	C 	0.8731	0.58668	0.1501	0.053
Mof_H 	H 	0.9249	0.591	0.1816	0.061
Mof_C 	C 	0.9047	0.58849	0.0924	-0.071
Mof_C 	C 	0.8279	0.58096	0.0453	-0.015
Mof_H 	H 	0.8494	0.5826	0.007	0.071
Mof_C 	C 	0.3334	0.5737	0.9636	0.369
Mof_C 	C 	0.7261	0.5755	0.2215	0.532
Mof_C 	C 	0.0223	0.59766	0.0822	0.389
Mof_O 	O 	0.6633	0.5393	0.2282	-0.316
Mof_Zn	Zn	-6.71335e-18	0.03794	0.25	1.225
Mof_Zn	Zn	0.5	0.53794	0.25	1.236
Mof_Zn	Zn	-1.34267e-17	0.96206	0.75	1.226
Mof_Zn	Zn	0.5	0.46206	0.75	1.236
_end
