data_functionalizedCrystal
_audit_creation_method	'EQeq! by Chris Wilmer'
_symmetry_space_group_name_H-M	'P1'
_symmetry_Int_Tables_number	1
_symmetry_cell_setting	triclinic
loop_
_symmetry_equiv_pos_as_xyz
  x,y,z
_cell_length_a	7.339
_cell_length_b	11.247
_cell_length_c	15.8458
_cell_angle_alpha	90
_cell_angle_beta	90
_cell_angle_gamma	90
loop_
_atom_site_label
_atom_site_type_symbol
_atom_site_fract_x
_atom_site_fract_y
_atom_site_fract_z
_atom_site_charge
Mof_Cd	Cd	0.4699	0.4893	0.2217	0.448
Mof_Cd	Cd	0.5301	0.9893	0.7783	0.384
Mof_Cd	Cd	0.9699	0.4893	0.2783	0.445
Mof_Cd	Cd	0.0301	0.9893	0.7217	0.385
Mof_H 	H 	0.3517	0.4353	0.4903	0.166
Mof_H 	H 	0.462	0.2404	0.6953	0.159
Mof_H 	H 	0.8119	0.2452	0.5007	0.104
Mof_H 	H 	0.1848	0.3473	0.6918	0.336
Mof_H 	H 	0.0987	0.3635	0.602	0.341
Mof_H 	H 	0.2038	0.469	0.6445	0.327
Mof_H 	H 	0.6483	0.9353	0.5097	0.141
Mof_H 	H 	0.538	0.7404	0.3047	0.143
Mof_H 	H 	0.1881	0.7452	0.4993	0.088
Mof_H 	H 	0.8152	0.8473	0.3082	0.308
Mof_H 	H 	0.9013	0.8635	0.398	0.311
Mof_H 	H 	0.7962	0.969	0.3555	0.289
Mof_H 	H 	0.8517	0.4353	0.0097	0.157
Mof_H 	H 	0.962	0.2404	0.8047	0.157
Mof_H 	H 	0.3119	0.2452	0.9993	0.103
Mof_H 	H 	0.6848	0.3473	0.8082	0.333
Mof_H 	H 	0.5987	0.3635	0.898	0.338
Mof_H 	H 	0.7038	0.469	0.8555	0.324
Mof_H 	H 	0.1483	0.9353	0.9903	0.136
Mof_H 	H 	0.038	0.7404	0.1953	0.14
Mof_H 	H 	0.6881	0.7452	0.0007	0.087
Mof_H 	H 	0.3152	0.8473	0.1918	0.307
Mof_H 	H 	0.4013	0.8635	0.102	0.309
Mof_H 	H 	0.2962	0.969	0.1445	0.287
Mof_C 	C 	0.646	0.4002	0.3983	0.255
Mof_C 	C 	0.588	0.3521	0.4822	0.104
Mof_C 	C 	0.428	0.3835	0.5193	-0.336
Mof_C 	C 	0.371	0.3428	0.5986	0.452
Mof_C 	C 	0.492	0.2664	0.6414	-0.333
Mof_C 	C 	0.651	0.2296	0.6073	0.108
Mof_C 	C 	0.704	0.2709	0.5253	-0.155
Mof_C 	C 	0.2	0.384	0.6376	-1.027
Mof_C 	C 	0.783	0.1421	0.6488	0.236
Mof_C 	C 	0.354	0.9002	0.6017	0.258
Mof_C 	C 	0.412	0.8521	0.5178	0.072
Mof_C 	C 	0.572	0.8835	0.4807	-0.307
Mof_C 	C 	0.629	0.8428	0.4014	0.402
Mof_C 	C 	0.508	0.7664	0.3586	-0.306
Mof_C 	C 	0.349	0.7296	0.3927	0.075
Mof_C 	C 	0.296	0.7709	0.4747	-0.139
Mof_C 	C 	0.8	0.884	0.3624	-0.95
Mof_C 	C 	0.217	0.6421	0.3512	0.247
Mof_C 	C 	0.146	0.4002	0.1017	0.258
Mof_C 	C 	0.088	0.3521	0.0178	0.096
Mof_C 	C 	0.928	0.3835	0.9807	-0.321
Mof_C 	C 	0.871	0.3428	0.9014	0.443
Mof_C 	C 	0.992	0.2664	0.8586	-0.326
Mof_C 	C 	0.151	0.2296	0.8927	0.103
Mof_C 	C 	0.204	0.2709	0.9747	-0.15
Mof_C 	C 	0.7	0.384	0.8624	-1.016
Mof_C 	C 	0.283	0.1421	0.8512	0.237
Mof_C 	C 	0.854	0.9002	0.8983	0.26
Mof_C 	C 	0.912	0.8521	0.9822	0.068
Mof_C 	C 	0.072	0.8835	0.0193	-0.295
Mof_C 	C 	0.129	0.8428	0.0986	0.394
Mof_C 	C 	0.008	0.7664	0.1414	-0.294
Mof_C 	C 	0.849	0.7296	0.1073	0.067
Mof_C 	C 	0.796	0.7709	0.0253	-0.137
Mof_C 	C 	0.3	0.884	0.1376	-0.942
Mof_C 	C 	0.717	0.6421	0.1488	0.249
Mof_O 	O 	0.5209	0.455	0.3588	-0.273
Mof_O 	O 	0.8085	0.393	0.378	-0.279
Mof_O 	O 	0.742	0.1124	0.7252	-0.249
Mof_O 	O 	0.9185	0.1056	0.614	-0.24
Mof_O 	O 	0.4791	0.955	0.6412	-0.296
Mof_O 	O 	0.1915	0.893	0.622	-0.295
Mof_O 	O 	0.258	0.6124	0.2748	-0.29
Mof_O 	O 	0.0815	0.6056	0.386	-0.278
Mof_O 	O 	0.0209	0.455	0.1412	-0.272
Mof_O 	O 	0.3085	0.393	0.122	-0.279
Mof_O 	O 	0.242	0.1124	0.7748	-0.249
Mof_O 	O 	0.4185	0.1056	0.886	-0.239
Mof_O 	O 	0.9791	0.955	0.8588	-0.296
Mof_O 	O 	0.6915	0.893	0.878	-0.295
Mof_O 	O 	0.758	0.6124	0.2252	-0.292
Mof_O 	O 	0.5815	0.6056	0.114	-0.281
_end
