data_functionalizedCrystal
_audit_creation_method	'EQeq! by Chris Wilmer'
_symmetry_space_group_name_H-M	'P1'
_symmetry_Int_Tables_number	1
_symmetry_cell_setting	triclinic
loop_
_symmetry_equiv_pos_as_xyz
  x,y,z
_cell_length_a	17.1711
_cell_length_b	22.9918
_cell_length_c	22.75
_cell_angle_alpha	90
_cell_angle_beta	90
_cell_angle_gamma	90
loop_
_atom_site_label
_atom_site_type_symbol
_atom_site_fract_x
_atom_site_fract_y
_atom_site_fract_z
_atom_site_charge
Mof_Ni	Ni	0.47897	0.2559	0.0068	1.08
Mof_Ni	Ni	0.49731	0.50589	0.25684	1.079
Mof_N 	N 	0.46648	0.16935	0.03355	-0.262
Mof_N 	N 	0.49485	0.22801	0.92041	-0.264
Mof_N 	N 	0.49015	0.34188	0.97805	-0.265
Mof_N 	N 	0.46531	0.28409	0.09316	-0.265
Mof_N 	N 	0.35884	0.26024	0.99316	-0.254
Mof_N 	N 	0.59948	0.25204	0.01975	-0.255
Mof_N 	N 	0.49074	0.41941	0.22917	-0.263
Mof_N 	N 	0.49676	0.59199	0.28504	-0.265
Mof_N 	N 	0.4881	0.47778	0.34405	-0.264
Mof_N 	N 	0.50614	0.53276	0.16916	-0.264
Mof_N 	N 	0.37722	0.51017	0.24858	-0.27
Mof_N 	N 	0.61958	0.50204	0.26111	-0.264
Mof_N 	N 	0.2324	0.253	0.9428	0.007
Mof_C 	C 	0.2973	0.2563	0.9713	0.064
Mof_C 	C 	0.6627	0.2519	0.0349	0.06
Mof_N 	N 	0.2322	0.2216	0.9575	-0.118
Mof_C 	C 	0.2961	0.2416	0.9839	-0.032
Mof_C 	C 	0.6631	0.2367	0.0215	0.064
Mof_N 	N 	0.2314	0.2871	0.9525	-0.146
Mof_C 	C 	0.2965	0.274	0.98	0.152
Mof_C 	C 	0.6632	0.2694	0.0278	0.062
Mof_N 	N 	0.748	0.4569	0.251	-0.146
Mof_C 	C 	0.6812	0.4831	0.2568	0.126
Mof_C 	C 	0.1834	0.9807	0.757	0.053
Mof_N 	N 	0.5226	0.19082	0.82177	-0.18
Mof_N 	N 	0.4583	0.32187	0.19349	-0.18
Mof_N 	N 	0.457	0.06658	0.06122	-0.179
Mof_N 	N 	0.4894	0.43831	0.9337	-0.183
Mof_C 	C 	0.4639	0.12212	0.04951	0.182
Mof_C 	C 	0.50681	0.20778	0.87529	0.182
Mof_C 	C 	0.4907	0.38561	0.9543	0.185
Mof_C 	C 	0.4634	0.30433	0.13909	0.183
Mof_C 	C 	0.4763	0.37462	0.20946	0.18
Mof_C 	C 	0.51096	0.13725	0.80508	0.184
Mof_C 	C 	0.4747	0.04551	0.11282	0.185
Mof_C 	C 	0.493	0.45053	0.87811	0.185
Mof_C 	C 	0.3158	0.5058	0.2295	0.165
Mof_C 	C 	0.6862	0.005	0.7743	0.063
Mof_Ni	Ni	0.02103	0.7441	0.0068	1.077
Mof_Ni	Ni	0.00269	0.49411	0.25684	1.078
Mof_N 	N 	0.03352	0.83065	0.03355	-0.262
Mof_N 	N 	0.00515	0.77199	0.92041	-0.258
Mof_N 	N 	0.00985	0.65812	0.97805	-0.264
Mof_N 	N 	0.03469	0.71591	0.09316	-0.266
Mof_N 	N 	0.14116	0.73976	0.99316	-0.253
Mof_N 	N 	0.90052	0.74796	0.01975	-0.255
Mof_N 	N 	0.00926	0.58059	0.22917	-0.263
Mof_N 	N 	0.00324	0.40801	0.28504	-0.265
Mof_N 	N 	0.0119	0.52222	0.34405	-0.264
Mof_N 	N 	0.99386	0.46724	0.16916	-0.263
Mof_N 	N 	0.12278	0.48983	0.24858	-0.27
Mof_N 	N 	0.88042	0.49796	0.26111	-0.263
Mof_N 	N 	0.2676	0.747	0.9428	0.007
Mof_C 	C 	0.2027	0.7437	0.9713	0.064
Mof_C 	C 	0.8373	0.7481	0.0349	0.06
Mof_N 	N 	0.2678	0.7784	0.9575	-0.118
Mof_C 	C 	0.2039	0.7584	0.9839	-0.032
Mof_C 	C 	0.8369	0.7633	0.0215	0.061
Mof_N 	N 	0.2686	0.7129	0.9525	-0.147
Mof_C 	C 	0.2035	0.726	0.98	0.151
Mof_C 	C 	0.8368	0.7306	0.0278	0.065
Mof_N 	N 	0.752	0.5431	0.251	-0.146
Mof_C 	C 	0.8188	0.5169	0.2568	0.126
Mof_C 	C 	0.3166	0.0193	0.757	0.133
Mof_N 	N 	0.9774	0.80918	0.82177	-0.18
Mof_N 	N 	0.0417	0.67813	0.19349	-0.18
Mof_N 	N 	0.043	0.93342	0.06122	-0.18
Mof_N 	N 	0.0106	0.56169	0.9337	-0.183
Mof_C 	C 	0.0361	0.87788	0.04951	0.181
Mof_C 	C 	0.99319	0.79222	0.87529	0.175
Mof_C 	C 	0.0093	0.61439	0.9543	0.186
Mof_C 	C 	0.0366	0.69567	0.13909	0.183
Mof_C 	C 	0.0237	0.62538	0.20946	0.179
Mof_C 	C 	0.98904	0.86275	0.80508	0.182
Mof_C 	C 	0.0253	0.95449	0.11282	0.183
Mof_C 	C 	0.007	0.54947	0.87811	0.187
Mof_C 	C 	0.1842	0.4942	0.2295	0.164
Mof_C 	C 	0.8138	0.995	0.7743	0.056
Mof_Ni	Ni	0.02103	0.7559	0.4932	1.079
Mof_Ni	Ni	0.00269	0.00589	0.24316	1.079
Mof_N 	N 	0.03352	0.66935	0.46645	-0.261
Mof_N 	N 	0.00515	0.72801	0.57959	-0.261
Mof_N 	N 	0.00985	0.84188	0.52195	-0.265
Mof_N 	N 	0.03469	0.78409	0.40684	-0.265
Mof_N 	N 	0.14116	0.76024	0.50684	-0.254
Mof_N 	N 	0.90052	0.75204	0.48025	-0.256
Mof_N 	N 	0.00926	0.91941	0.27083	-0.263
Mof_N 	N 	0.00324	0.09199	0.21496	-0.266
Mof_N 	N 	0.0119	0.97778	0.15595	-0.265
Mof_N 	N 	0.99386	0.03276	0.33084	-0.262
Mof_N 	N 	0.12278	0.01017	0.25142	-0.27
Mof_N 	N 	0.88042	0.00204	0.23889	-0.258
Mof_N 	N 	0.2676	0.753	0.5572	0.007
Mof_C 	C 	0.2027	0.7563	0.5287	0.063
Mof_C 	C 	0.8373	0.7519	0.4651	0.059
Mof_N 	N 	0.2678	0.7216	0.5425	-0.118
Mof_C 	C 	0.2039	0.7416	0.5161	-0.033
Mof_C 	C 	0.8369	0.7367	0.4785	0.063
Mof_N 	N 	0.2686	0.7871	0.5475	-0.147
Mof_C 	C 	0.2035	0.774	0.52	0.153
Mof_C 	C 	0.8368	0.7694	0.4722	0.063
Mof_N 	N 	0.752	0.9569	0.249	-0.122
Mof_C 	C 	0.8188	0.9831	0.2432	0.052
Mof_C 	C 	0.3166	0.4807	0.743	0.09
Mof_N 	N 	0.9774	0.69082	0.67823	-0.18
Mof_N 	N 	0.0417	0.82187	0.30651	-0.18
Mof_N 	N 	0.043	0.56658	0.43878	-0.179
Mof_N 	N 	0.0106	0.93831	0.5663	-0.184
Mof_C 	C 	0.0361	0.62212	0.45049	0.182
Mof_C 	C 	0.99319	0.70778	0.62471	0.18
Mof_C 	C 	0.0093	0.88561	0.5457	0.185
Mof_C 	C 	0.0366	0.80433	0.36091	0.184
Mof_C 	C 	0.0237	0.87462	0.29054	0.18
Mof_C 	C 	0.98904	0.63725	0.69492	0.183
Mof_C 	C 	0.0253	0.54551	0.38718	0.184
Mof_C 	C 	0.007	0.95053	0.62189	0.186
Mof_C 	C 	0.1842	0.0058	0.2705	0.165
Mof_C 	C 	0.8138	0.505	0.7257	0.062
Mof_Ni	Ni	0.47897	0.2441	0.4932	1.079
Mof_Ni	Ni	0.49731	0.99411	0.24316	1.078
Mof_N 	N 	0.46648	0.33065	0.46645	-0.262
Mof_N 	N 	0.49485	0.27199	0.57959	-0.264
Mof_N 	N 	0.49015	0.15812	0.52195	-0.265
Mof_N 	N 	0.46531	0.21591	0.40684	-0.265
Mof_N 	N 	0.35884	0.23976	0.50684	-0.254
Mof_N 	N 	0.59948	0.24796	0.48025	-0.255
Mof_N 	N 	0.49074	0.08059	0.27083	-0.262
Mof_N 	N 	0.49676	0.90801	0.21496	-0.264
Mof_N 	N 	0.4881	0.02222	0.15595	-0.262
Mof_N 	N 	0.50614	0.96724	0.33084	-0.265
Mof_N 	N 	0.37722	0.98983	0.25142	-0.27
Mof_N 	N 	0.61958	0.99796	0.23889	-0.268
Mof_N 	N 	0.2324	0.247	0.5572	0.007
Mof_C 	C 	0.2973	0.2437	0.5287	0.063
Mof_C 	C 	0.6627	0.2481	0.4651	0.06
Mof_N 	N 	0.2322	0.2784	0.5425	-0.117
Mof_C 	C 	0.2961	0.2584	0.5161	-0.035
Mof_C 	C 	0.6631	0.2633	0.4785	0.059
Mof_N 	N 	0.2314	0.2129	0.5475	-0.148
Mof_C 	C 	0.2965	0.226	0.52	0.155
Mof_C 	C 	0.6632	0.2306	0.4722	0.067
Mof_N 	N 	0.748	0.0431	0.249	-0.171
Mof_C 	C 	0.6812	0.0169	0.2432	0.195
Mof_C 	C 	0.1834	0.5193	0.743	0.091
Mof_N 	N 	0.5226	0.30918	0.67823	-0.18
Mof_N 	N 	0.4583	0.17813	0.30651	-0.18
Mof_N 	N 	0.457	0.43342	0.43878	-0.179
Mof_N 	N 	0.4894	0.06169	0.5663	-0.183
Mof_C 	C 	0.4639	0.37788	0.45049	0.182
Mof_C 	C 	0.50681	0.29222	0.62471	0.182
Mof_C 	C 	0.4907	0.11439	0.5457	0.185
Mof_C 	C 	0.4634	0.19567	0.36091	0.184
Mof_C 	C 	0.4763	0.12538	0.29054	0.18
Mof_C 	C 	0.51096	0.36275	0.69492	0.184
Mof_C 	C 	0.4747	0.45449	0.38718	0.184
Mof_C 	C 	0.493	0.04947	0.62189	0.186
Mof_C 	C 	0.3158	0.9942	0.2705	0.162
Mof_C 	C 	0.6862	0.495	0.7257	0.062
Mof_Ni	Ni	0.52103	0.7441	0.9932	1.079
Mof_Ni	Ni	0.50269	0.49411	0.74316	1.079
Mof_N 	N 	0.53352	0.83065	0.96645	-0.262
Mof_N 	N 	0.50515	0.77199	0.07959	-0.264
Mof_N 	N 	0.50985	0.65812	0.02195	-0.265
Mof_N 	N 	0.53469	0.71591	0.90684	-0.265
Mof_N 	N 	0.64116	0.73976	0.00684	-0.254
Mof_N 	N 	0.40052	0.74796	0.98025	-0.255
Mof_N 	N 	0.50926	0.58059	0.77083	-0.263
Mof_N 	N 	0.50324	0.40801	0.71496	-0.265
Mof_N 	N 	0.5119	0.52222	0.65595	-0.264
Mof_N 	N 	0.49386	0.46724	0.83084	-0.264
Mof_N 	N 	0.62278	0.48983	0.75142	-0.27
Mof_N 	N 	0.38042	0.49796	0.73889	-0.264
Mof_N 	N 	0.7676	0.747	0.0572	0.007
Mof_C 	C 	0.7027	0.7437	0.0287	0.064
Mof_C 	C 	0.3373	0.7481	0.9651	0.06
Mof_N 	N 	0.7678	0.7784	0.0425	-0.117
Mof_C 	C 	0.7039	0.7584	0.0161	-0.035
Mof_C 	C 	0.3369	0.7633	0.9785	0.061
Mof_N 	N 	0.7686	0.7129	0.0475	-0.147
Mof_C 	C 	0.7035	0.726	0.02	0.154
Mof_C 	C 	0.3368	0.7306	0.9722	0.065
Mof_N 	N 	0.252	0.5431	0.749	-0.146
Mof_C 	C 	0.3188	0.5169	0.7432	0.126
Mof_C 	C 	0.8166	0.0193	0.243	0.161
Mof_N 	N 	0.4774	0.80918	0.17823	-0.18
Mof_N 	N 	0.5417	0.67813	0.80651	-0.18
Mof_N 	N 	0.543	0.93342	0.93878	-0.18
Mof_N 	N 	0.5106	0.56169	0.0663	-0.183
Mof_C 	C 	0.5361	0.87788	0.95049	0.181
Mof_C 	C 	0.49319	0.79222	0.12471	0.182
Mof_C 	C 	0.5093	0.61439	0.0457	0.185
Mof_C 	C 	0.5366	0.69567	0.86091	0.183
Mof_C 	C 	0.5237	0.62538	0.79054	0.18
Mof_C 	C 	0.48904	0.86275	0.19492	0.184
Mof_C 	C 	0.5253	0.95449	0.88718	0.183
Mof_C 	C 	0.507	0.54947	0.12189	0.185
Mof_C 	C 	0.6842	0.4942	0.7705	0.165
Mof_C 	C 	0.3138	0.995	0.2257	0.058
Mof_Ni	Ni	0.97897	0.2559	0.9932	1.077
Mof_Ni	Ni	0.99731	0.50589	0.74316	1.078
Mof_N 	N 	0.96648	0.16935	0.96645	-0.262
Mof_N 	N 	0.99485	0.22801	0.07959	-0.258
Mof_N 	N 	0.99015	0.34188	0.02195	-0.264
Mof_N 	N 	0.96531	0.28409	0.90684	-0.266
Mof_N 	N 	0.85884	0.26024	0.00684	-0.253
Mof_N 	N 	0.09948	0.25204	0.98025	-0.254
Mof_N 	N 	0.99074	0.41941	0.77083	-0.263
Mof_N 	N 	0.99676	0.59199	0.71496	-0.265
Mof_N 	N 	0.9881	0.47778	0.65595	-0.264
Mof_N 	N 	0.00614	0.53276	0.83084	-0.263
Mof_N 	N 	0.87722	0.51017	0.75142	-0.27
Mof_N 	N 	0.11958	0.50204	0.73889	-0.263
Mof_N 	N 	0.7324	0.253	0.0572	0.007
Mof_C 	C 	0.7973	0.2563	0.0287	0.064
Mof_C 	C 	0.1627	0.2519	0.9651	0.06
Mof_N 	N 	0.7322	0.2216	0.0425	-0.118
Mof_C 	C 	0.7961	0.2416	0.0161	-0.029
Mof_C 	C 	0.1631	0.2367	0.9785	0.063
Mof_N 	N 	0.7314	0.2871	0.0475	-0.146
Mof_C 	C 	0.7965	0.274	0.02	0.149
Mof_C 	C 	0.1632	0.2694	0.9722	0.063
Mof_N 	N 	0.248	0.4569	0.749	-0.146
Mof_C 	C 	0.1812	0.4831	0.7432	0.126
Mof_C 	C 	0.6834	0.9807	0.243	0.025
Mof_N 	N 	0.0226	0.19082	0.17823	-0.18
Mof_N 	N 	0.9583	0.32187	0.80651	-0.18
Mof_N 	N 	0.957	0.06658	0.93878	-0.179
Mof_N 	N 	0.9894	0.43831	0.0663	-0.183
Mof_C 	C 	0.9639	0.12212	0.95049	0.182
Mof_C 	C 	0.00681	0.20778	0.12471	0.176
Mof_C 	C 	0.9907	0.38561	0.0457	0.186
Mof_C 	C 	0.9634	0.30433	0.86091	0.183
Mof_C 	C 	0.9763	0.37462	0.79054	0.179
Mof_C 	C 	0.01096	0.13725	0.19492	0.182
Mof_C 	C 	0.9747	0.04551	0.88718	0.185
Mof_C 	C 	0.993	0.45053	0.12189	0.187
Mof_C 	C 	0.8158	0.5058	0.7705	0.164
Mof_C 	C 	0.1862	0.005	0.2257	0.063
Mof_Ni	Ni	0.97897	0.2441	0.5068	1.079
Mof_Ni	Ni	0.99731	0.99411	0.75684	1.076
Mof_N 	N 	0.96648	0.33065	0.53355	-0.261
Mof_N 	N 	0.99485	0.27199	0.42041	-0.262
Mof_N 	N 	0.99015	0.15812	0.47805	-0.265
Mof_N 	N 	0.96531	0.21591	0.59316	-0.265
Mof_N 	N 	0.85884	0.23976	0.49316	-0.254
Mof_N 	N 	0.09948	0.24796	0.51975	-0.256
Mof_N 	N 	0.99074	0.08059	0.72917	-0.261
Mof_N 	N 	0.99676	0.90801	0.78504	-0.265
Mof_N 	N 	0.9881	0.02222	0.84405	-0.261
Mof_N 	N 	0.00614	0.96724	0.66916	-0.263
Mof_N 	N 	0.87722	0.98983	0.74858	-0.27
Mof_N 	N 	0.11958	0.99796	0.76111	-0.265
Mof_N 	N 	0.7324	0.247	0.4428	0.007
Mof_C 	C 	0.7973	0.2437	0.4713	0.063
Mof_C 	C 	0.1627	0.2481	0.5349	0.06
Mof_N 	N 	0.7322	0.2784	0.4575	-0.117
Mof_C 	C 	0.7961	0.2584	0.4839	-0.036
Mof_C 	C 	0.1631	0.2633	0.5215	0.06
Mof_N 	N 	0.7314	0.2129	0.4525	-0.148
Mof_C 	C 	0.7965	0.226	0.48	0.156
Mof_C 	C 	0.1632	0.2306	0.5278	0.066
Mof_N 	N 	0.248	0.0431	0.751	-0.161
Mof_C 	C 	0.1812	0.0169	0.7568	0.165
Mof_C 	C 	0.6834	0.5193	0.257	0.091
Mof_N 	N 	0.0226	0.30918	0.32177	-0.18
Mof_N 	N 	0.9583	0.17813	0.69349	-0.18
Mof_N 	N 	0.957	0.43342	0.56122	-0.179
Mof_N 	N 	0.9894	0.06169	0.4337	-0.182
Mof_C 	C 	0.9639	0.37788	0.54951	0.182
Mof_C 	C 	0.00681	0.29222	0.37529	0.18
Mof_C 	C 	0.9907	0.11439	0.4543	0.186
Mof_C 	C 	0.9634	0.19567	0.63909	0.184
Mof_C 	C 	0.9763	0.12538	0.70946	0.18
Mof_C 	C 	0.01096	0.36275	0.30508	0.183
Mof_C 	C 	0.9747	0.45449	0.61282	0.184
Mof_C 	C 	0.993	0.04947	0.37811	0.187
Mof_C 	C 	0.8158	0.9942	0.7295	0.16
Mof_C 	C 	0.1862	0.495	0.2743	0.062
Mof_Ni	Ni	0.52103	0.7559	0.5068	1.079
Mof_Ni	Ni	0.50269	0.00589	0.75684	1.08
Mof_N 	N 	0.53352	0.66935	0.53355	-0.262
Mof_N 	N 	0.50515	0.72801	0.42041	-0.264
Mof_N 	N 	0.50985	0.84188	0.47805	-0.265
Mof_N 	N 	0.53469	0.78409	0.59316	-0.265
Mof_N 	N 	0.64116	0.76024	0.49316	-0.254
Mof_N 	N 	0.40052	0.75204	0.51975	-0.256
Mof_N 	N 	0.50926	0.91941	0.72917	-0.264
Mof_N 	N 	0.50324	0.09199	0.78504	-0.265
Mof_N 	N 	0.5119	0.97778	0.84405	-0.265
Mof_N 	N 	0.49386	0.03276	0.66916	-0.264
Mof_N 	N 	0.62278	0.01017	0.74858	-0.269
Mof_N 	N 	0.38042	0.00204	0.76111	-0.261
Mof_N 	N 	0.7676	0.753	0.4428	0.008
Mof_C 	C 	0.7027	0.7563	0.4713	0.063
Mof_C 	C 	0.3373	0.7519	0.5349	0.06
Mof_N 	N 	0.7678	0.7216	0.4575	-0.118
Mof_C 	C 	0.7039	0.7416	0.4839	-0.032
Mof_C 	C 	0.3369	0.7367	0.5215	0.061
Mof_N 	N 	0.7686	0.7871	0.4525	-0.147
Mof_C 	C 	0.7035	0.774	0.48	0.152
Mof_C 	C 	0.3368	0.7694	0.5278	0.065
Mof_N 	N 	0.252	0.9569	0.751	-0.132
Mof_C 	C 	0.3188	0.9831	0.7568	0.081
Mof_C 	C 	0.8166	0.4807	0.257	0.091
Mof_N 	N 	0.4774	0.69082	0.32177	-0.18
Mof_N 	N 	0.5417	0.82187	0.69349	-0.18
Mof_N 	N 	0.543	0.56658	0.56122	-0.179
Mof_N 	N 	0.5106	0.93831	0.4337	-0.184
Mof_C 	C 	0.5361	0.62212	0.54951	0.182
Mof_C 	C 	0.49319	0.70778	0.37529	0.182
Mof_C 	C 	0.5093	0.88561	0.4543	0.184
Mof_C 	C 	0.5366	0.80433	0.63909	0.183
Mof_C 	C 	0.5237	0.87462	0.70946	0.179
Mof_C 	C 	0.48904	0.63725	0.30508	0.184
Mof_C 	C 	0.5253	0.54551	0.61282	0.184
Mof_C 	C 	0.507	0.95053	0.37811	0.184
Mof_C 	C 	0.6842	0.0058	0.7295	0.165
Mof_C 	C 	0.3138	0.505	0.2743	0.062
Mof_N 	N 	0.25	0.5	0.2034	-0.176
Mof_N 	N 	0.25	0	0.2966	-0.173
Mof_N 	N 	0.75	0.5	0.7966	-0.176
Mof_N 	N 	0.75	5.62119e-33	0.7034	-0.172
Mof_N 	N 	0.75	-5.62119e-33	0.8005	-0.13
Mof_N 	N 	0.75	0.5	0.6995	-0.135
Mof_N 	N 	0.25	-1.4053e-33	0.1995	-0.132
Mof_N 	N 	0.25	0.5	0.3005	-0.135
_end
