data_functionalizedCrystal
_audit_creation_method	'EQeq! by Chris Wilmer'
_symmetry_space_group_name_H-M	'P1'
_symmetry_Int_Tables_number	1
_symmetry_cell_setting	triclinic
loop_
_symmetry_equiv_pos_as_xyz
  x,y,z
_cell_length_a	18.224
_cell_length_b	18.239
_cell_length_c	20.808
_cell_angle_alpha	85.942
_cell_angle_beta	83.558
_cell_angle_gamma	63.398
loop_
_atom_site_label
_atom_site_type_symbol
_atom_site_fract_x
_atom_site_fract_y
_atom_site_fract_z
_atom_site_charge
Mof_Cd	Cd	0.42341	0.17257	0.71522	0.437
Mof_Cd	Cd	0.61851	0.58806	0.7231	0.437
Mof_Cd	Cd	0.97308	0.21422	0.25908	0.441
Mof_O 	O 	0.4901	0.0284	0.693	-0.279
Mof_O 	O 	0.558	0.0751	0.7463	-0.251
Mof_O 	O 	0.8644	0.8999	0.7397	-0.263
Mof_O 	O 	0.9191	0.7733	0.7057	-0.27
Mof_O 	O 	0.7263	0.6512	0.67	-0.271
Mof_O 	O 	0.5978	0.7198	0.7114	-0.267
Mof_O 	O 	0.463	0.2843	0.7483	-0.255
Mof_O 	O 	0.3353	0.3184	0.7282	-0.276
Mof_O 	O 	0.5533	0.503	0.7472	-0.279
Mof_O 	O 	0.4658	0.6334	0.7342	-0.264
Mof_O 	O 	0.163	0.7052	0.7496	-0.293
Mof_O 	O 	0.1317	0.6163	0.7106	-0.25
Mof_C 	C 	0.5541	0.0172	0.7179	0.292
Mof_C 	C 	0.6255	0.9347	0.7148	-0.089
Mof_C 	C 	0.7047	0.9249	0.7215	0.025
Mof_H 	H 	0.7119	0.97	0.7314	0.05
Mof_C 	C 	0.7729	0.8496	0.7136	-0.086
Mof_C 	C 	0.8574	0.8405	0.719	0.299
Mof_C 	C 	0.7611	0.7806	0.7007	0.02
Mof_H 	H 	0.8062	0.7298	0.6937	0.048
Mof_C 	C 	0.6816	0.7895	0.6987	-0.091
Mof_C 	C 	0.67	0.7153	0.6912	0.293
Mof_C 	C 	0.6143	0.8669	0.7043	0.028
Mof_H 	H 	0.5615	0.8726	0.701	0.041
Mof_C 	C 	0.3911	0.3377	0.7399	0.292
Mof_C 	C 	0.3706	0.4265	0.7408	-0.091
Mof_C 	C 	0.4313	0.4516	0.7433	0.024
Mof_H 	H 	0.4855	0.4123	0.7462	0.046
Mof_C 	C 	0.4132	0.5341	0.7417	-0.09
Mof_C 	C 	0.4802	0.5598	0.7409	0.291
Mof_C 	C 	0.331	0.5935	0.7392	0.022
Mof_H 	H 	0.318	0.649	0.739	0.043
Mof_C 	C 	0.2694	0.5689	0.7372	-0.094
Mof_C 	C 	0.1825	0.6337	0.7333	0.307
Mof_C 	C 	0.289	0.4859	0.7374	0.023
Mof_H 	H 	0.2476	0.4697	0.7352	0.044
Mof_C 	C 	0.2438	0.2558	0.6633	0.097
Mof_H 	H 	0.2489	0.3042	0.6634	0.013
Mof_C 	C 	0.2705	0.1275	0.6717	0.067
Mof_C 	C 	0.3061	0.0431	0.6807	-0.107
Mof_H 	H 	0.3608	0.0143	0.6899	0.083
Mof_C 	C 	0.2593	0.0037	0.6759	-0.005
Mof_H 	H 	0.2822	0.9471	0.6824	0.034
Mof_C 	C 	0.1764	0.0467	0.6612	-0.039
Mof_H 	H 	0.1455	0.0181	0.659	0.049
Mof_C 	C 	0.1408	0.1304	0.6503	-0.083
Mof_H 	H 	0.0867	0.1587	0.6395	0.056
Mof_C 	C 	0.1887	0.1707	0.6559	0.055
Mof_C 	C 	0.1007	0.3249	0.6367	0.234
Mof_C 	C 	0.0247	0.3287	0.6612	-0.285
Mof_H 	H 	0.0207	0.2858	0.6857	0.139
Mof_C 	C 	0.9555	0.3999	0.6473	0.244
Mof_C 	C 	0.9596	0.465	0.6134	-0.291
Mof_H 	H 	0.9115	0.5112	0.6046	0.144
Mof_C 	C 	0.0357	0.4619	0.5921	0.241
Mof_C 	C 	0.106	0.3902	0.6019	-0.285
Mof_H 	H 	0.1572	0.3859	0.5851	0.137
Mof_C 	C 	0.812	0.4771	0.6925	0.101
Mof_H 	H 	0.8146	0.527	0.6901	0.021
Mof_C 	C 	0.7689	0.3861	0.7106	0.067
Mof_C 	C 	0.7227	0.3421	0.7291	-0.097
Mof_H 	H 	0.6692	0.3682	0.7485	0.085
Mof_C 	C 	0.7588	0.2602	0.7176	-0.014
Mof_H 	H 	0.7297	0.23	0.7304	0.045
Mof_C 	C 	0.8387	0.2204	0.687	-0.024
Mof_H 	H 	0.8606	0.1649	0.6784	0.04
Mof_C 	C 	0.8854	0.2615	0.6696	-0.087
Mof_H 	H 	0.9387	0.2349	0.6497	0.058
Mof_C 	C 	0.8495	0.3452	0.6828	0.064
Mof_C 	C 	0.1153	0.5307	0.5352	0.104
Mof_H 	H 	0.1658	0.4847	0.5376	0.004
Mof_C 	C 	0.0256	0.6535	0.5183	0.067
Mof_C 	C 	0.9865	0.7347	0.5019	-0.084
Mof_H 	H 	0.0163	0.7622	0.4833	0.066
Mof_C 	C 	0.9027	0.775	0.5132	-0.02
Mof_H 	H 	0.875	0.83	0.5011	0.04
Mof_C 	C 	0.8581	0.7339	0.5429	-0.016
Mof_H 	H 	0.8012	0.7625	0.5508	0.043
Mof_C 	C 	0.8974	0.6511	0.5607	-0.09
Mof_H 	H 	0.8677	0.6237	0.5799	0.071
Mof_C 	C 	0.9817	0.6114	0.5488	0.072
Mof_C 	C 	0.5329	0.2314	0.6096	0.101
Mof_H 	H 	0.542	0.2561	0.6435	0.017
Mof_C 	C 	0.491	0.1635	0.5548	0.055
Mof_C 	C 	0.4542	0.1178	0.5336	-0.085
Mof_H 	H 	0.4225	0.0994	0.5619	0.072
Mof_C 	C 	0.4675	0.1014	0.4677	-0.033
Mof_H 	H 	0.444	0.0712	0.4518	0.05
Mof_C 	C 	0.5151	0.1292	0.4249	-0.013
Mof_H 	H 	0.5222	0.1172	0.3813	0.044
Mof_C 	C 	0.5521	0.1741	0.4455	-0.101
Mof_H 	H 	0.5836	0.1928	0.4171	0.075
Mof_C 	C 	0.5393	0.1895	0.5108	0.07
Mof_C 	C 	0.621	0.2662	0.5281	0.239
Mof_C 	C 	0.6946	0.2197	0.4926	-0.29
Mof_H 	H 	0.7066	0.1675	0.4796	0.139
Mof_C 	C 	0.7507	0.2522	0.4764	0.239
Mof_C 	C 	0.7336	0.3296	0.495	-0.297
Mof_H 	H 	0.7722	0.35	0.4854	0.151
Mof_C 	C 	0.6584	0.3765	0.5281	0.239
Mof_C 	C 	0.6008	0.346	0.5446	-0.286
Mof_H 	H 	0.5498	0.3783	0.5662	0.143
Mof_C 	C 	0.8637	0.2364	0.3928	0.101
Mof_H 	H 	0.8435	0.2923	0.3833	0.015
Mof_C 	C 	0.9394	0.1062	0.3902	0.063
Mof_C 	C 	0.0008	0.0268	0.3782	-0.094
Mof_H 	H 	0.044	0.0171	0.3463	0.075
Mof_C 	C 	0.9956	0.9627	0.4151	-0.021
Mof_H 	H 	0.0352	0.9091	0.4075	0.036
Mof_C 	C 	0.9314	0.9777	0.4636	-0.022
Mof_H 	H 	0.9301	0.9334	0.4879	0.04
Mof_C 	C 	0.8699	0.055	0.4773	-0.094
Mof_H 	H 	0.8275	0.0643	0.5098	0.066
Mof_C 	C 	0.8756	0.1185	0.4388	0.059
Mof_C 	C 	0.6596	0.7812	0.1405	0.108
Mof_H 	H 	0.6626	0.7297	0.1514	0.01
Mof_C 	C 	0.6316	0.91	0.1458	0.054
Mof_C 	C 	0.6021	0.9902	0.1639	-0.078
Mof_H 	H 	0.575	0.0077	0.2045	0.072
Mof_C 	C 	0.6148	0.0434	0.1184	-0.036
Mof_H 	H 	0.5972	0.098	0.1281	0.048
Mof_C 	C 	0.656	0.0126	0.0551	-0.013
Mof_H 	H 	0.6638	0.049	0.0246	0.042
Mof_C 	C 	0.6829	0.9355	0.0389	-0.098
Mof_H 	H 	0.7086	0.919	0.9977	0.071
Mof_C 	C 	0.6728	0.8766	0.0844	0.075
Mof_C 	C 	0.6189	0.4826	0.609	0.103
Mof_H 	H 	0.6071	0.4524	0.6429	0.013
Mof_C 	C 	0.638	0.578	0.5546	0.069
Mof_C 	C 	0.6441	0.6494	0.5335	-0.092
Mof_H 	H 	0.6343	0.6903	0.5622	0.08
Mof_C 	C 	0.6651	0.6572	0.4685	-0.017
Mof_H 	H 	0.6706	0.7039	0.4532	0.04
Mof_C 	C 	0.6784	0.5965	0.4253	-0.029
Mof_H 	H 	0.6922	0.6041	0.3818	0.052
Mof_C 	C 	0.6718	0.5254	0.4447	-0.091
Mof_H 	H 	0.6793	0.4856	0.4157	0.073
Mof_C 	C 	0.6534	0.5179	0.5098	0.065
Mof_C 	C 	0.674	0.6418	0.8485	0.11
Mof_H 	H 	0.6891	0.6752	0.8199	0.005
Mof_C 	C 	0.6313	0.5548	0.8866	0.061
Mof_C 	C 	0.5998	0.4971	0.8956	-0.091
Mof_H 	H 	0.5821	0.4806	0.8615	0.079
Mof_C 	C 	0.5964	0.4654	0.9593	-0.035
Mof_H 	H 	0.5763	0.4266	0.9675	0.049
Mof_C 	C 	0.6215	0.4902	0.008	-0.011
Mof_H 	H 	0.6181	0.4678	0.0491	0.037
Mof_C 	C 	0.6515	0.5457	0.0004	-0.103
Mof_H 	H 	0.6683	0.5618	0.0352	0.071
Mof_C 	C 	0.6562	0.5781	0.9389	0.064
Mof_C 	C 	0.7245	0.672	0.9437	0.237
Mof_C 	C 	0.6878	0.7144	0.0008	-0.296
Mof_H 	H 	0.6378	0.7178	0.0201	0.147
Mof_C 	C 	0.7288	0.7511	0.0274	0.248
Mof_C 	C 	0.804	0.7459	0.0005	-0.299
Mof_H 	H 	0.8308	0.7705	0.0197	0.143
Mof_C 	C 	0.8381	0.7028	0.9437	0.237
Mof_C 	C 	0.7989	0.6662	0.914	-0.293
Mof_H 	H 	0.8217	0.6387	0.8754	0.146
Mof_C 	C 	0.0357	0.0311	0.2037	0.098
Mof_H 	H 	0.0894	0.0209	0.2094	0.017
Mof_C 	C 	0.9041	0.0906	0.2023	0.067
Mof_C 	C 	0.8209	0.1435	0.2082	-0.104
Mof_H 	H 	0.8008	0.1943	0.2273	0.088
Mof_C 	C 	0.7689	0.1172	0.1845	-0.014
Mof_H 	H 	0.7126	0.1518	0.1866	0.041
Mof_C 	C 	0.799	0.0401	0.1574	-0.031
Mof_H 	H 	0.7618	0.0239	0.1436	0.044
Mof_C 	C 	0.8798	0.9885	0.1507	-0.083
Mof_H 	H 	0.8995	0.9386	0.1305	0.061
Mof_C 	C 	0.9326	0.0133	0.1755	0.057
Mof_C 	C 	0.0735	0.8955	0.1554	0.238
Mof_C 	C 	0.0524	0.8327	0.1678	-0.3
Mof_H 	H 	0.0042	0.8411	0.1934	0.139
Mof_C 	C 	0.103	0.7563	0.1424	0.242
Mof_C 	C 	0.1766	0.7436	0.1055	-0.3
Mof_H 	H 	0.2106	0.6928	0.0875	0.143
Mof_C 	C 	0.1978	0.8068	0.0961	0.248
Mof_C 	C 	0.1478	0.8838	0.1189	-0.295
Mof_H 	H 	0.1623	0.9266	0.1106	0.143
Mof_C 	C 	0.138	0.6091	0.1601	0.096
Mof_H 	H 	0.1948	0.5908	0.1545	0.009
Mof_C 	C 	0.0185	0.611	0.1769	0.058
Mof_C 	C 	0.9532	0.5903	0.1901	-0.083
Mof_H 	H 	0.9626	0.536	0.1976	0.075
Mof_C 	C 	0.8734	0.6536	0.1918	-0.026
Mof_H 	H 	0.8287	0.6417	0.201	0.052
Mof_C 	C 	0.86	0.7338	0.1798	-0.02
Mof_H 	H 	0.806	0.7747	0.1811	0.045
Mof_C 	C 	0.9236	0.7557	0.1661	-0.092
Mof_H 	H 	0.9135	0.8101	0.1578	0.06
Mof_C 	C 	0.004	0.6924	0.1654	0.058
Mof_C 	C 	0.3338	0.8105	0.08	0.104
Mof_H 	H 	0.3269	0.8379	0.1179	0.011
Mof_C 	C 	0.3821	0.7554	0.9882	0.041
Mof_C 	C 	0.4301	0.7242	0.9305	-0.068
Mof_H 	H 	0.4819	0.7228	0.9216	0.066
Mof_C 	C 	0.399	0.6971	0.8894	-0.047
Mof_H 	H 	0.4305	0.6741	0.8512	0.063
Mof_C 	C 	0.3217	0.7016	0.9009	-0.002
Mof_H 	H 	0.3016	0.6841	0.8691	0.035
Mof_C 	C 	0.2725	0.7308	0.9572	-0.115
Mof_H 	H 	0.2211	0.7311	0.9656	0.075
Mof_C 	C 	0.305	0.7591	0.9995	0.075
Mof_C 	C 	0.9195	0.7369	0.8549	0.103
Mof_H 	H 	0.8758	0.7635	0.8293	0.011
Mof_C 	C 	0.0392	0.6878	0.8887	0.069
Mof_C 	C 	0.1217	0.6607	0.8974	-0.098
Mof_H 	H 	0.1569	0.6711	0.8663	0.079
Mof_C 	C 	0.1495	0.6183	0.9533	-0.019
Mof_H 	H 	0.2042	0.6014	0.9608	0.036
Mof_C 	C 	0.0987	0.5996	0.9991	-0.022
Mof_H 	H 	0.1211	0.5688	0.0356	0.046
Mof_C 	C 	0.0171	0.6247	0.9927	-0.095
Mof_H 	H 	0.9829	0.613	0.0239	0.073
Mof_C 	C 	0.9887	0.6689	0.9362	0.066
Mof_N 	N 	0.3037	0.1835	0.676	-0.15
Mof_N 	N 	0.1738	0.2535	0.6499	-0.168
Mof_N 	N 	0.7459	0.4693	0.7163	-0.147
Mof_N 	N 	0.8761	0.406	0.6717	-0.166
Mof_N 	N 	0.1093	0.601	0.5096	-0.13
Mof_N 	N 	0.0426	0.5301	0.558	-0.167
Mof_N 	N 	0.4878	0.1902	0.6176	-0.144
Mof_N 	N 	0.5644	0.2341	0.5482	-0.171
Mof_N 	N 	0.9302	0.1808	0.3623	-0.146
Mof_N 	N 	0.8268	0.2045	0.4401	-0.169
Mof_N 	N 	0.6253	0.8423	0.1806	-0.146
Mof_N 	N 	0.6904	0.7979	0.0822	-0.181
Mof_N 	N 	0.6164	0.5545	0.6162	-0.144
Mof_N 	N 	0.6403	0.4568	0.547	-0.169
Mof_N 	N 	0.6413	0.597	0.8311	-0.151
Mof_N 	N 	0.6841	0.6353	0.9123	-0.172
Mof_N 	N 	0.9721	0.1001	0.2195	-0.152
Mof_N 	N 	0.0173	0.9755	0.1784	-0.169
Mof_N 	N 	0.1036	0.5595	0.1743	-0.127
Mof_N 	N 	0.0829	0.6904	0.1543	-0.17
Mof_N 	N 	0.4009	0.7852	0.0425	-0.125
Mof_N 	N 	0.2737	0.7946	0.0609	-0.174
Mof_N 	N 	0.9948	0.7305	0.8379	-0.147
Mof_N 	N 	0.9126	0.7011	0.9126	-0.172
Mof_Cd	Cd	0.57659	0.82743	0.28478	0.438
Mof_Cd	Cd	0.38149	0.41194	0.2769	0.438
Mof_Cd	Cd	0.02692	0.78578	0.74092	0.441
Mof_O 	O 	0.5099	0.9716	0.307	-0.279
Mof_O 	O 	0.442	0.9249	0.2537	-0.251
Mof_O 	O 	0.1356	0.1001	0.2603	-0.263
Mof_O 	O 	0.0809	0.2267	0.2943	-0.27
Mof_O 	O 	0.2737	0.3488	0.33	-0.271
Mof_O 	O 	0.4022	0.2802	0.2886	-0.267
Mof_O 	O 	0.537	0.7157	0.2517	-0.255
Mof_O 	O 	0.6647	0.6816	0.2718	-0.276
Mof_O 	O 	0.4467	0.497	0.2528	-0.279
Mof_O 	O 	0.5342	0.3666	0.2658	-0.264
Mof_O 	O 	0.837	0.2948	0.2504	-0.293
Mof_O 	O 	0.8683	0.3837	0.2894	-0.25
Mof_C 	C 	0.4459	0.9828	0.2821	0.292
Mof_C 	C 	0.3745	0.0653	0.2852	-0.089
Mof_C 	C 	0.2953	0.0751	0.2785	0.025
Mof_H 	H 	0.2881	0.03	0.2686	0.05
Mof_C 	C 	0.2271	0.1504	0.2864	-0.086
Mof_C 	C 	0.1426	0.1595	0.281	0.299
Mof_C 	C 	0.2389	0.2194	0.2993	0.02
Mof_H 	H 	0.1938	0.2702	0.3063	0.048
Mof_C 	C 	0.3184	0.2105	0.3013	-0.091
Mof_C 	C 	0.33	0.2847	0.3088	0.293
Mof_C 	C 	0.3857	0.1331	0.2957	0.028
Mof_H 	H 	0.4385	0.1274	0.299	0.041
Mof_C 	C 	0.6089	0.6623	0.2601	0.292
Mof_C 	C 	0.6294	0.5735	0.2592	-0.091
Mof_C 	C 	0.5687	0.5484	0.2567	0.024
Mof_H 	H 	0.5145	0.5877	0.2538	0.046
Mof_C 	C 	0.5868	0.4659	0.2583	-0.09
Mof_C 	C 	0.5198	0.4402	0.2591	0.291
Mof_C 	C 	0.669	0.4065	0.2608	0.022
Mof_H 	H 	0.682	0.351	0.261	0.043
Mof_C 	C 	0.7306	0.4311	0.2628	-0.094
Mof_C 	C 	0.8175	0.3663	0.2667	0.307
Mof_C 	C 	0.711	0.5141	0.2626	0.023
Mof_H 	H 	0.7524	0.5303	0.2648	0.044
Mof_C 	C 	0.7562	0.7442	0.3367	0.097
Mof_H 	H 	0.7511	0.6958	0.3366	0.013
Mof_C 	C 	0.7295	0.8725	0.3283	0.067
Mof_C 	C 	0.6939	0.9569	0.3193	-0.107
Mof_H 	H 	0.6392	0.9857	0.3101	0.083
Mof_C 	C 	0.7407	0.9963	0.3241	-0.005
Mof_H 	H 	0.7178	0.0529	0.3176	0.034
Mof_C 	C 	0.8236	0.9533	0.3388	-0.039
Mof_H 	H 	0.8545	0.9819	0.341	0.049
Mof_C 	C 	0.8592	0.8696	0.3497	-0.083
Mof_H 	H 	0.9133	0.8413	0.3605	0.056
Mof_C 	C 	0.8113	0.8293	0.3441	0.055
Mof_C 	C 	0.8993	0.6751	0.3633	0.234
Mof_C 	C 	0.9753	0.6713	0.3388	-0.285
Mof_H 	H 	0.9793	0.7142	0.3143	0.139
Mof_C 	C 	0.0445	0.6001	0.3527	0.244
Mof_C 	C 	0.0404	0.535	0.3866	-0.291
Mof_H 	H 	0.0885	0.4888	0.3954	0.144
Mof_C 	C 	0.9643	0.5381	0.4079	0.241
Mof_C 	C 	0.894	0.6098	0.3981	-0.285
Mof_H 	H 	0.8428	0.6141	0.4149	0.137
Mof_C 	C 	0.188	0.5229	0.3075	0.101
Mof_H 	H 	0.1854	0.473	0.3099	0.021
Mof_C 	C 	0.2311	0.6139	0.2894	0.067
Mof_C 	C 	0.2773	0.6579	0.2709	-0.097
Mof_H 	H 	0.3308	0.6318	0.2515	0.085
Mof_C 	C 	0.2412	0.7398	0.2824	-0.014
Mof_H 	H 	0.2703	0.77	0.2696	0.045
Mof_C 	C 	0.1613	0.7796	0.313	-0.024
Mof_H 	H 	0.1394	0.8351	0.3216	0.04
Mof_C 	C 	0.1146	0.7385	0.3304	-0.087
Mof_H 	H 	0.0613	0.7651	0.3503	0.058
Mof_C 	C 	0.1505	0.6548	0.3172	0.064
Mof_C 	C 	0.8847	0.4693	0.4648	0.104
Mof_H 	H 	0.8342	0.5153	0.4624	0.004
Mof_C 	C 	0.9744	0.3465	0.4817	0.067
Mof_C 	C 	0.0135	0.2653	0.4981	-0.084
Mof_H 	H 	0.9837	0.2378	0.5167	0.066
Mof_C 	C 	0.0973	0.225	0.4868	-0.02
Mof_H 	H 	0.125	0.17	0.4989	0.04
Mof_C 	C 	0.1419	0.2661	0.4571	-0.016
Mof_H 	H 	0.1988	0.2375	0.4492	0.043
Mof_C 	C 	0.1026	0.3489	0.4393	-0.09
Mof_H 	H 	0.1323	0.3763	0.4201	0.071
Mof_C 	C 	0.0183	0.3886	0.4512	0.072
Mof_C 	C 	0.4671	0.7686	0.3904	0.101
Mof_H 	H 	0.458	0.7439	0.3565	0.017
Mof_C 	C 	0.509	0.8365	0.4452	0.055
Mof_C 	C 	0.5458	0.8822	0.4664	-0.085
Mof_H 	H 	0.5775	0.9006	0.4381	0.072
Mof_C 	C 	0.5325	0.8986	0.5323	-0.033
Mof_H 	H 	0.556	0.9288	0.5482	0.05
Mof_C 	C 	0.4849	0.8708	0.5751	-0.013
Mof_H 	H 	0.4778	0.8828	0.6187	0.044
Mof_C 	C 	0.4479	0.8259	0.5545	-0.101
Mof_H 	H 	0.4164	0.8072	0.5829	0.075
Mof_C 	C 	0.4607	0.8105	0.4892	0.07
Mof_C 	C 	0.379	0.7338	0.4719	0.239
Mof_C 	C 	0.3054	0.7803	0.5074	-0.29
Mof_H 	H 	0.2934	0.8325	0.5204	0.139
Mof_C 	C 	0.2493	0.7478	0.5236	0.239
Mof_C 	C 	0.2664	0.6704	0.505	-0.297
Mof_H 	H 	0.2278	0.65	0.5146	0.151
Mof_C 	C 	0.3416	0.6235	0.4719	0.239
Mof_C 	C 	0.3992	0.654	0.4554	-0.286
Mof_H 	H 	0.4502	0.6217	0.4338	0.143
Mof_C 	C 	0.1363	0.7636	0.6072	0.101
Mof_H 	H 	0.1565	0.7077	0.6167	0.015
Mof_C 	C 	0.0606	0.8938	0.6098	0.063
Mof_C 	C 	0.9992	0.9732	0.6218	-0.094
Mof_H 	H 	0.956	0.9829	0.6537	0.075
Mof_C 	C 	0.0044	0.0373	0.5849	-0.021
Mof_H 	H 	0.9648	0.0909	0.5925	0.036
Mof_C 	C 	0.0686	0.0223	0.5364	-0.022
Mof_H 	H 	0.0699	0.0666	0.5121	0.04
Mof_C 	C 	0.1301	0.945	0.5227	-0.094
Mof_H 	H 	0.1725	0.9357	0.4902	0.066
Mof_C 	C 	0.1244	0.8815	0.5612	0.059
Mof_C 	C 	0.3404	0.2188	0.8595	0.108
Mof_H 	H 	0.3374	0.2703	0.8486	0.01
Mof_C 	C 	0.3684	0.09	0.8542	0.054
Mof_C 	C 	0.3979	0.0098	0.8361	-0.078
Mof_H 	H 	0.425	0.9923	0.7955	0.072
Mof_C 	C 	0.3852	0.9566	0.8816	-0.036
Mof_H 	H 	0.4028	0.902	0.8719	0.048
Mof_C 	C 	0.344	0.9874	0.9449	-0.013
Mof_H 	H 	0.3362	0.951	0.9754	0.042
Mof_C 	C 	0.3171	0.0645	0.9611	-0.098
Mof_H 	H 	0.2914	0.081	0.0023	0.071
Mof_C 	C 	0.3272	0.1234	0.9156	0.075
Mof_C 	C 	0.3811	0.5174	0.391	0.103
Mof_H 	H 	0.3929	0.5476	0.3571	0.013
Mof_C 	C 	0.362	0.422	0.4454	0.069
Mof_C 	C 	0.3559	0.3506	0.4665	-0.092
Mof_H 	H 	0.3657	0.3097	0.4378	0.08
Mof_C 	C 	0.3349	0.3428	0.5315	-0.017
Mof_H 	H 	0.3294	0.2961	0.5468	0.04
Mof_C 	C 	0.3216	0.4035	0.5747	-0.029
Mof_H 	H 	0.3078	0.3959	0.6182	0.052
Mof_C 	C 	0.3282	0.4746	0.5553	-0.091
Mof_H 	H 	0.3207	0.5144	0.5843	0.073
Mof_C 	C 	0.3466	0.4821	0.4902	0.065
Mof_C 	C 	0.326	0.3582	0.1515	0.11
Mof_H 	H 	0.3109	0.3248	0.1801	0.005
Mof_C 	C 	0.3687	0.4452	0.1134	0.061
Mof_C 	C 	0.4002	0.5029	0.1044	-0.091
Mof_H 	H 	0.4179	0.5194	0.1385	0.079
Mof_C 	C 	0.4036	0.5346	0.0407	-0.035
Mof_H 	H 	0.4237	0.5734	0.0325	0.049
Mof_C 	C 	0.3785	0.5098	0.992	-0.011
Mof_H 	H 	0.3819	0.5322	0.9509	0.037
Mof_C 	C 	0.3485	0.4543	0.9996	-0.103
Mof_H 	H 	0.3317	0.4382	0.9648	0.071
Mof_C 	C 	0.3438	0.4219	0.0611	0.064
Mof_C 	C 	0.2755	0.328	0.0563	0.237
Mof_C 	C 	0.3122	0.2856	0.9992	-0.296
Mof_H 	H 	0.3622	0.2822	0.9799	0.147
Mof_C 	C 	0.2712	0.2489	0.9726	0.248
Mof_C 	C 	0.196	0.2541	0.9995	-0.299
Mof_H 	H 	0.1692	0.2295	0.9803	0.143
Mof_C 	C 	0.1619	0.2972	0.0563	0.237
Mof_C 	C 	0.2011	0.3338	0.086	-0.293
Mof_H 	H 	0.1783	0.3613	0.1246	0.146
Mof_C 	C 	0.9643	0.9689	0.7963	0.098
Mof_H 	H 	0.9106	0.9791	0.7906	0.017
Mof_C 	C 	0.0959	0.9094	0.7977	0.067
Mof_C 	C 	0.1791	0.8565	0.7918	-0.104
Mof_H 	H 	0.1992	0.8057	0.7727	0.088
Mof_C 	C 	0.2311	0.8828	0.8155	-0.014
Mof_H 	H 	0.2874	0.8482	0.8134	0.041
Mof_C 	C 	0.201	0.9599	0.8426	-0.031
Mof_H 	H 	0.2382	0.9761	0.8564	0.044
Mof_C 	C 	0.1202	0.0115	0.8493	-0.083
Mof_H 	H 	0.1005	0.0614	0.8695	0.061
Mof_C 	C 	0.0674	0.9867	0.8245	0.057
Mof_C 	C 	0.9265	0.1045	0.8446	0.238
Mof_C 	C 	0.9476	0.1673	0.8322	-0.3
Mof_H 	H 	0.9958	0.1589	0.8066	0.139
Mof_C 	C 	0.897	0.2437	0.8576	0.242
Mof_C 	C 	0.8234	0.2564	0.8945	-0.3
Mof_H 	H 	0.7894	0.3072	0.9125	0.143
Mof_C 	C 	0.8022	0.1932	0.9039	0.248
Mof_C 	C 	0.8522	0.1162	0.8811	-0.295
Mof_H 	H 	0.8377	0.0734	0.8894	0.143
Mof_C 	C 	0.862	0.3909	0.8399	0.096
Mof_H 	H 	0.8052	0.4092	0.8455	0.009
Mof_C 	C 	0.9815	0.389	0.8231	0.058
Mof_C 	C 	0.0468	0.4097	0.8099	-0.083
Mof_H 	H 	0.0374	0.464	0.8024	0.075
Mof_C 	C 	0.1266	0.3464	0.8082	-0.026
Mof_H 	H 	0.1713	0.3583	0.799	0.052
Mof_C 	C 	0.14	0.2662	0.8202	-0.02
Mof_H 	H 	0.194	0.2253	0.8189	0.045
Mof_C 	C 	0.0764	0.2443	0.8339	-0.092
Mof_H 	H 	0.0865	0.1899	0.8422	0.06
Mof_C 	C 	0.996	0.3076	0.8346	0.058
Mof_C 	C 	0.6662	0.1895	0.92	0.104
Mof_H 	H 	0.6731	0.1621	0.8821	0.011
Mof_C 	C 	0.6179	0.2446	0.0118	0.041
Mof_C 	C 	0.5699	0.2758	0.0695	-0.068
Mof_H 	H 	0.5181	0.2772	0.0784	0.066
Mof_C 	C 	0.601	0.3029	0.1106	-0.047
Mof_H 	H 	0.5695	0.3259	0.1488	0.063
Mof_C 	C 	0.6783	0.2984	0.0991	-0.002
Mof_H 	H 	0.6984	0.3159	0.1309	0.035
Mof_C 	C 	0.7275	0.2692	0.0428	-0.115
Mof_H 	H 	0.7789	0.2689	0.0344	0.075
Mof_C 	C 	0.695	0.2409	0.0005	0.075
Mof_C 	C 	0.0805	0.2631	0.1451	0.103
Mof_H 	H 	0.1242	0.2365	0.1707	0.011
Mof_C 	C 	0.9608	0.3122	0.1113	0.069
Mof_C 	C 	0.8783	0.3393	0.1026	-0.098
Mof_H 	H 	0.8431	0.3289	0.1337	0.079
Mof_C 	C 	0.8505	0.3817	0.0467	-0.019
Mof_H 	H 	0.7958	0.3986	0.0392	0.036
Mof_C 	C 	0.9013	0.4004	0.0009	-0.022
Mof_H 	H 	0.8789	0.4312	0.9644	0.046
Mof_C 	C 	0.9829	0.3753	0.0073	-0.095
Mof_H 	H 	0.0171	0.387	0.9761	0.073
Mof_C 	C 	0.0113	0.3311	0.0638	0.066
Mof_N 	N 	0.6963	0.8165	0.324	-0.15
Mof_N 	N 	0.8262	0.7465	0.3501	-0.168
Mof_N 	N 	0.2541	0.5307	0.2837	-0.147
Mof_N 	N 	0.1239	0.594	0.3283	-0.166
Mof_N 	N 	0.8907	0.399	0.4904	-0.13
Mof_N 	N 	0.9574	0.4699	0.442	-0.167
Mof_N 	N 	0.5122	0.8098	0.3824	-0.144
Mof_N 	N 	0.4356	0.7659	0.4518	-0.171
Mof_N 	N 	0.0698	0.8192	0.6377	-0.146
Mof_N 	N 	0.1732	0.7955	0.5599	-0.169
Mof_N 	N 	0.3747	0.1577	0.8194	-0.146
Mof_N 	N 	0.3096	0.2021	0.9178	-0.181
Mof_N 	N 	0.3836	0.4455	0.3838	-0.144
Mof_N 	N 	0.3597	0.5432	0.453	-0.169
Mof_N 	N 	0.3587	0.403	0.1689	-0.151
Mof_N 	N 	0.3159	0.3647	0.0877	-0.172
Mof_N 	N 	0.0279	0.8999	0.7805	-0.152
Mof_N 	N 	0.9827	0.0245	0.8216	-0.169
Mof_N 	N 	0.8964	0.4405	0.8257	-0.127
Mof_N 	N 	0.9171	0.3096	0.8457	-0.17
Mof_N 	N 	0.5991	0.2148	0.9575	-0.125
Mof_N 	N 	0.7263	0.2054	0.9391	-0.174
Mof_N 	N 	0.0052	0.2695	0.1621	-0.147
Mof_N 	N 	0.0874	0.2989	0.0874	-0.172
_end
