data_functionalizedCrystal
_audit_creation_method	'EQeq! by Chris Wilmer'
_symmetry_space_group_name_H-M	'P1'
_symmetry_Int_Tables_number	1
_symmetry_cell_setting	triclinic
loop_
_symmetry_equiv_pos_as_xyz
  x,y,z
_cell_length_a	15.101
_cell_length_b	18.6528
_cell_length_c	30.2397
_cell_angle_alpha	100.155
_cell_angle_beta	90
_cell_angle_gamma	113.878
loop_
_atom_site_label
_atom_site_type_symbol
_atom_site_fract_x
_atom_site_fract_y
_atom_site_fract_z
_atom_site_charge
Mof_Zn	Zn	0.26907	0.7394	0.448	1.166
Mof_Zn	Zn	0.19823	0.15088	0.59948	1.166
Mof_Zn	Zn	0.82368	0.35946	0.28192	1.165
Mof_Zn	Zn	0.47033	0.7394	0.948	1.166
Mof_Zn	Zn	0.95265	0.15088	0.09948	1.164
Mof_Zn	Zn	0.53578	0.35946	0.78192	1.164
Mof_H 	H 	0.9908	0.02	0.5737	-0.006
Mof_H 	H 	0.852	0.0006	0.5311	0.072
Mof_H 	H 	0.0181	0.1878	0.4739	0.081
Mof_H 	H 	0.1506	0.2036	0.52	-0.012
Mof_H 	H 	0.5198	0.967	0.3916	0.08
Mof_H 	H 	0.9121	0.2724	0.4177	0.079
Mof_H 	H 	0.9241	0.3604	0.3687	-0.008
Mof_H 	H 	0.6637	0.1156	0.3462	0.083
Mof_H 	H 	0.0124	0.31	0.1621	-0.006
Mof_H 	H 	0.1268	0.3924	0.2197	0.075
Mof_H 	H 	0.2729	0.252	0.1892	0.092
Mof_H 	H 	0.1532	0.1746	0.1328	-0.005
Mof_H 	H 	0.2047	0.5318	0.307	0.087
Mof_H 	H 	0.1803	0.6278	0.359	0
Mof_H 	H 	0.4254	0.6804	0.4292	0.004
Mof_H 	H 	0.457	0.5866	0.3792	0.086
Mof_H 	H 	0.6034	0.496	0.3346	0.078
Mof_H 	H 	0.7432	0.4728	0.3357	-0.005
Mof_H 	H 	0.6251	0.2858	0.2371	-0.013
Mof_H 	H 	0.4809	0.3	0.2355	0.083
Mof_H 	H 	0.452	0.8376	0.514	-0.001
Mof_H 	H 	0.6053	0.9402	0.5112	0.079
Mof_H 	H 	0.3716	0.859	0.3939	-0.014
Mof_H 	H 	0.6869	0.2034	0.2973	-0.021
Mof_H 	H 	0.0292	0.02	0.0737	-0.005
Mof_H 	H 	0.1486	0.0006	0.0311	0.074
Mof_H 	H 	0.1697	0.1878	0.9739	0.082
Mof_H 	H 	0.053	0.2036	0.02	-0.012
Mof_H 	H 	0.4472	0.967	0.8916	0.079
Mof_H 	H 	0.3603	0.2724	0.9177	0.079
Mof_H 	H 	0.4363	0.3604	0.8687	-0.008
Mof_H 	H 	0.4519	0.1156	0.8462	0.083
Mof_H 	H 	0.2976	0.31	0.6621	-0.006
Mof_H 	H 	0.2656	0.3924	0.7197	0.075
Mof_H 	H 	0.9791	0.252	0.6892	0.09
Mof_H 	H 	0.0214	0.1746	0.6328	-0.005
Mof_H 	H 	0.3271	0.5318	0.807	0.087
Mof_H 	H 	0.4475	0.6278	0.859	0
Mof_H 	H 	0.255	0.6804	0.9292	0.004
Mof_H 	H 	0.1296	0.5866	0.8792	0.086
Mof_H 	H 	0.8926	0.496	0.8346	0.078
Mof_H 	H 	0.7296	0.4728	0.8357	-0.005
Mof_H 	H 	0.6607	0.2858	0.7371	-0.013
Mof_H 	H 	0.8191	0.3	0.7355	0.082
Mof_H 	H 	0.3856	0.8376	0.014	-0.001
Mof_H 	H 	0.3349	0.9402	0.0112	0.079
Mof_H 	H 	0.4874	0.859	0.8939	-0.014
Mof_H 	H 	0.5165	0.2034	0.7973	-0.021
Mof_C 	C 	0.9951	0.0554	0.5539	0.064
Mof_C 	C 	0.9126	0.043	0.5287	-0.113
Mof_C 	C 	0.9214	0.0956	0.4992	0.049
Mof_C 	C 	0.0104	0.154	0.495	-0.113
Mof_C 	C 	0.089	0.1624	0.5224	0.067
Mof_C 	C 	0.8343	0.0882	0.4716	0.088
Mof_C 	C 	0.6749	0.0258	0.4496	0.089
Mof_C 	C 	0.7722	0.1294	0.4188	0.1
Mof_C 	C 	0.5774	0.9632	0.4528	0.052
Mof_C 	C 	0.5075	0.9404	0.4164	-0.113
Mof_C 	C 	0.7836	0.1828	0.3869	0.061
Mof_C 	C 	0.864	0.2574	0.3936	-0.109
Mof_C 	C 	0.8715	0.3092	0.3639	0.071
Mof_C 	C 	0.7192	0.1652	0.3515	-0.118
Mof_C 	C 	0.0654	0.2974	0.1686	0.063
Mof_C 	C 	0.1334	0.3472	0.2026	-0.117
Mof_C 	C 	0.2138	0.3302	0.2118	0.055
Mof_C 	C 	0.2193	0.265	0.1849	-0.12
Mof_C 	C 	0.1468	0.2186	0.1515	0.084
Mof_C 	C 	0.289	0.38	0.2481	0.102
Mof_C 	C 	0.3485	0.4846	0.3065	0.086
Mof_C 	C 	0.4355	0.4126	0.284	0.105
Mof_C 	C 	0.3325	0.5478	0.3379	0.047
Mof_C 	C 	0.2508	0.5614	0.332	-0.12
Mof_C 	C 	0.2372	0.619	0.3631	0.069
Mof_C 	C 	0.3803	0.6498	0.404	0.066
Mof_C 	C 	0.3992	0.594	0.3747	-0.11
Mof_C 	C 	0.5253	0.3992	0.2862	0.052
Mof_C 	C 	0.6059	0.4514	0.3148	-0.114
Mof_C 	C 	0.69	0.4388	0.3144	0.061
Mof_C 	C 	0.6203	0.3292	0.2571	0.067
Mof_C 	C 	0.5337	0.3364	0.2561	-0.117
Mof_C 	C 	0.466	0.8628	0.4886	0.068
Mof_C 	C 	0.557	0.925	0.4871	-0.114
Mof_C 	C 	0.4194	0.8768	0.4185	0.063
Mof_C 	C 	0.7324	0.218	0.3225	0.078
Mof_C 	C 	0.0603	0.0554	0.0539	0.067
Mof_C 	C 	0.1304	0.043	0.0287	-0.115
Mof_C 	C 	0.1742	0.0956	0.9992	0.052
Mof_C 	C 	0.1436	0.154	0.995	-0.117
Mof_C 	C 	0.0734	0.1624	0.0224	0.069
Mof_C 	C 	0.2539	0.0882	0.9716	0.087
Mof_C 	C 	0.3509	0.0258	0.9496	0.091
Mof_C 	C 	0.3572	0.1294	0.9188	0.1
Mof_C 	C 	0.3858	0.9632	0.9528	0.05
Mof_C 	C 	0.4329	0.9404	0.9164	-0.112
Mof_C 	C 	0.3992	0.1828	0.8869	0.061
Mof_C 	C 	0.3934	0.2574	0.8936	-0.109
Mof_C 	C 	0.4377	0.3092	0.8639	0.071
Mof_C 	C 	0.446	0.1652	0.8515	-0.118
Mof_C 	C 	0.232	0.2974	0.6686	0.063
Mof_C 	C 	0.2138	0.3472	0.7026	-0.116
Mof_C 	C 	0.1164	0.3302	0.7118	0.054
Mof_C 	C 	0.0457	0.265	0.6849	-0.119
Mof_C 	C 	0.0718	0.2186	0.6515	0.083
Mof_C 	C 	0.091	0.38	0.7481	0.103
Mof_C 	C 	0.1361	0.4846	0.8065	0.086
Mof_C 	C 	0.9771	0.4126	0.784	0.105
Mof_C 	C 	0.2153	0.5478	0.8379	0.047
Mof_C 	C 	0.3106	0.5614	0.832	-0.12
Mof_C 	C 	0.3818	0.619	0.8631	0.069
Mof_C 	C 	0.2695	0.6498	0.904	0.066
Mof_C 	C 	0.1948	0.594	0.8747	-0.11
Mof_C 	C 	0.8739	0.3992	0.7862	0.052
Mof_C 	C 	0.8455	0.4514	0.8148	-0.114
Mof_C 	C 	0.7488	0.4388	0.8144	0.061
Mof_C 	C 	0.7089	0.3292	0.7571	0.067
Mof_C 	C 	0.8027	0.3364	0.7561	-0.117
Mof_C 	C 	0.3968	0.8628	0.9886	0.067
Mof_C 	C 	0.368	0.925	0.9871	-0.114
Mof_C 	C 	0.4574	0.8768	0.9185	0.062
Mof_C 	C 	0.4856	0.218	0.8225	0.079
Mof_I 	I 	0.17087	0.0381	0.64123	-0.351
Mof_I 	I 	0.35047	0.22858	0.56314	-0.371
Mof_I 	I 	0.81205	0.27092	0.20509	-0.392
Mof_I 	I 	0.9691	0.48868	0.31223	-0.379
Mof_I 	I 	0.13961	0.77136	0.41354	-0.377
Mof_I 	I 	0.26114	0.6823	0.51793	-0.376
Mof_I 	I 	0.86723	0.0381	0.14123	-0.355
Mof_I 	I 	0.87811	0.22858	0.06314	-0.373
Mof_I 	I 	0.45887	0.27092	0.70509	-0.392
Mof_I 	I 	0.51958	0.48868	0.81223	-0.378
Mof_I 	I 	0.63175	0.77136	0.91354	-0.377
Mof_I 	I 	0.42116	0.6823	0.01793	-0.376
Mof_N 	N 	0.0823	0.1158	0.5518	-0.268
Mof_N 	N 	0.748	0.0314	0.4767	-0.149
Mof_N 	N 	0.6834	0.0722	0.4201	-0.139
Mof_N 	N 	0.8492	0.1392	0.4437	-0.14
Mof_N 	N 	0.0691	0.2314	0.1438	-0.27
Mof_N 	N 	0.3662	0.3628	0.2524	-0.134
Mof_N 	N 	0.4303	0.4738	0.3124	-0.14
Mof_N 	N 	0.2784	0.4414	0.2733	-0.143
Mof_N 	N 	0.2996	0.6628	0.3984	-0.269
Mof_N 	N 	0.6985	0.379	0.2844	-0.271
Mof_N 	N 	0.8068	0.288	0.3293	-0.274
Mof_N 	N 	0.3991	0.8396	0.4539	-0.267
Mof_N 	N 	0.0335	0.1158	0.0518	-0.269
Mof_N 	N 	0.2834	0.0314	0.9767	-0.149
Mof_N 	N 	0.3888	0.0722	0.9201	-0.139
Mof_N 	N 	0.29	0.1392	0.9437	-0.14
Mof_N 	N 	0.1623	0.2314	0.6438	-0.27
Mof_N 	N 	0.9966	0.3628	0.7524	-0.134
Mof_N 	N 	0.0435	0.4738	0.8124	-0.14
Mof_N 	N 	0.163	0.4414	0.7733	-0.143
Mof_N 	N 	0.3632	0.6628	0.8984	-0.269
Mof_N 	N 	0.6805	0.379	0.7844	-0.271
Mof_N 	N 	0.4812	0.288	0.8293	-0.274
Mof_N 	N 	0.4405	0.8396	0.9539	-0.266
Mof_Zn	Zn	0.52967	0.2606	0.052	1.165
Mof_Zn	Zn	0.04735	0.84912	0.90052	1.164
Mof_Zn	Zn	0.46422	0.64054	0.21808	1.164
Mof_Zn	Zn	0.73093	0.2606	0.552	1.165
Mof_Zn	Zn	0.80177	0.84912	0.40052	1.165
Mof_Zn	Zn	0.17632	0.64054	0.71808	1.164
Mof_H 	H 	0.9708	0.98	0.9263	-0.005
Mof_H 	H 	0.8514	0.9994	0.9689	0.074
Mof_H 	H 	0.8303	0.8122	0.0261	0.082
Mof_H 	H 	0.947	0.7964	0.98	-0.012
Mof_H 	H 	0.5528	0.033	0.1084	0.079
Mof_H 	H 	0.6397	0.7276	0.0823	0.079
Mof_H 	H 	0.5637	0.6396	0.1313	-0.008
Mof_H 	H 	0.5481	0.8844	0.1538	0.083
Mof_H 	H 	0.7024	0.69	0.3379	-0.006
Mof_H 	H 	0.7344	0.6076	0.2803	0.075
Mof_H 	H 	0.0209	0.748	0.3108	0.09
Mof_H 	H 	0.9786	0.8254	0.3672	-0.005
Mof_H 	H 	0.6729	0.4682	0.193	0.087
Mof_H 	H 	0.5525	0.3722	0.141	0
Mof_H 	H 	0.745	0.3196	0.0708	0.004
Mof_H 	H 	0.8704	0.4134	0.1208	0.086
Mof_H 	H 	0.1074	0.504	0.1654	0.078
Mof_H 	H 	0.2704	0.5272	0.1643	-0.005
Mof_H 	H 	0.3393	0.7142	0.2629	-0.013
Mof_H 	H 	0.1809	0.7	0.2645	0.082
Mof_H 	H 	0.6144	0.1624	0.986	-0.001
Mof_H 	H 	0.6651	0.0598	0.9888	0.079
Mof_H 	H 	0.5126	0.141	0.1061	-0.014
Mof_H 	H 	0.4835	0.7966	0.2027	-0.021
Mof_H 	H 	0.0092	0.98	0.4263	-0.006
Mof_H 	H 	0.148	0.9994	0.4689	0.072
Mof_H 	H 	0.9819	0.8122	0.5261	0.081
Mof_H 	H 	0.8494	0.7964	0.48	-0.012
Mof_H 	H 	0.4802	0.033	0.6084	0.08
Mof_H 	H 	0.0879	0.7276	0.5823	0.079
Mof_H 	H 	0.0759	0.6396	0.6313	-0.008
Mof_H 	H 	0.3363	0.8844	0.6538	0.083
Mof_H 	H 	0.9876	0.69	0.8379	-0.006
Mof_H 	H 	0.8732	0.6076	0.7803	0.075
Mof_H 	H 	0.7271	0.748	0.8108	0.092
Mof_H 	H 	0.8468	0.8254	0.8672	-0.005
Mof_H 	H 	0.7953	0.4682	0.693	0.087
Mof_H 	H 	0.8197	0.3722	0.641	0
Mof_H 	H 	0.5746	0.3196	0.5708	0.004
Mof_H 	H 	0.543	0.4134	0.6208	0.086
Mof_H 	H 	0.3966	0.504	0.6654	0.078
Mof_H 	H 	0.2568	0.5272	0.6643	-0.005
Mof_H 	H 	0.3749	0.7142	0.7629	-0.013
Mof_H 	H 	0.5191	0.7	0.7645	0.083
Mof_H 	H 	0.548	0.1624	0.486	-0.001
Mof_H 	H 	0.3947	0.0598	0.4888	0.079
Mof_H 	H 	0.6284	0.141	0.6061	-0.014
Mof_H 	H 	0.3131	0.7966	0.7027	-0.021
Mof_C 	C 	0.9397	0.9446	0.9461	0.067
Mof_C 	C 	0.8696	0.957	0.9713	-0.115
Mof_C 	C 	0.8258	0.9044	0.0008	0.052
Mof_C 	C 	0.8564	0.846	0.005	-0.117
Mof_C 	C 	0.9266	0.8376	0.9776	0.069
Mof_C 	C 	0.7461	0.9118	0.0284	0.087
Mof_C 	C 	0.6491	0.9742	0.0504	0.091
Mof_C 	C 	0.6428	0.8706	0.0812	0.1
Mof_C 	C 	0.6142	0.0368	0.0472	0.05
Mof_C 	C 	0.5671	0.0596	0.0836	-0.112
Mof_C 	C 	0.6008	0.8172	0.1131	0.061
Mof_C 	C 	0.6066	0.7426	0.1064	-0.109
Mof_C 	C 	0.5623	0.6908	0.1361	0.071
Mof_C 	C 	0.554	0.8348	0.1485	-0.118
Mof_C 	C 	0.768	0.7026	0.3314	0.063
Mof_C 	C 	0.7862	0.6528	0.2974	-0.116
Mof_C 	C 	0.8836	0.6698	0.2882	0.054
Mof_C 	C 	0.9543	0.735	0.3151	-0.119
Mof_C 	C 	0.9282	0.7814	0.3485	0.083
Mof_C 	C 	0.909	0.62	0.2519	0.103
Mof_C 	C 	0.8639	0.5154	0.1935	0.086
Mof_C 	C 	0.0229	0.5874	0.216	0.105
Mof_C 	C 	0.7847	0.4522	0.1621	0.047
Mof_C 	C 	0.6894	0.4386	0.168	-0.12
Mof_C 	C 	0.6182	0.381	0.1369	0.069
Mof_C 	C 	0.7305	0.3502	0.096	0.066
Mof_C 	C 	0.8052	0.406	0.1253	-0.11
Mof_C 	C 	0.1261	0.6008	0.2138	0.052
Mof_C 	C 	0.1545	0.5486	0.1852	-0.114
Mof_C 	C 	0.2512	0.5612	0.1856	0.061
Mof_C 	C 	0.2911	0.6708	0.2429	0.067
Mof_C 	C 	0.1973	0.6636	0.2439	-0.117
Mof_C 	C 	0.6032	0.1372	0.0114	0.067
Mof_C 	C 	0.632	0.075	0.0129	-0.114
Mof_C 	C 	0.5426	0.1232	0.0815	0.062
Mof_C 	C 	0.5144	0.782	0.1775	0.079
Mof_C 	C 	0.0049	0.9446	0.4461	0.064
Mof_C 	C 	0.0874	0.957	0.4713	-0.113
Mof_C 	C 	0.0786	0.9044	0.5008	0.049
Mof_C 	C 	0.9896	0.846	0.505	-0.113
Mof_C 	C 	0.911	0.8376	0.4776	0.067
Mof_C 	C 	0.1657	0.9118	0.5284	0.088
Mof_C 	C 	0.3251	0.9742	0.5504	0.089
Mof_C 	C 	0.2278	0.8706	0.5812	0.1
Mof_C 	C 	0.4226	0.0368	0.5472	0.052
Mof_C 	C 	0.4925	0.0596	0.5836	-0.113
Mof_C 	C 	0.2164	0.8172	0.6131	0.061
Mof_C 	C 	0.136	0.7426	0.6064	-0.109
Mof_C 	C 	0.1285	0.6908	0.6361	0.071
Mof_C 	C 	0.2808	0.8348	0.6485	-0.118
Mof_C 	C 	0.9346	0.7026	0.8314	0.063
Mof_C 	C 	0.8666	0.6528	0.7974	-0.117
Mof_C 	C 	0.7862	0.6698	0.7882	0.055
Mof_C 	C 	0.7807	0.735	0.8151	-0.12
Mof_C 	C 	0.8532	0.7814	0.8485	0.084
Mof_C 	C 	0.711	0.62	0.7519	0.102
Mof_C 	C 	0.6515	0.5154	0.6935	0.086
Mof_C 	C 	0.5645	0.5874	0.716	0.105
Mof_C 	C 	0.6675	0.4522	0.6621	0.047
Mof_C 	C 	0.7492	0.4386	0.668	-0.12
Mof_C 	C 	0.7628	0.381	0.6369	0.069
Mof_C 	C 	0.6197	0.3502	0.596	0.066
Mof_C 	C 	0.6008	0.406	0.6253	-0.11
Mof_C 	C 	0.4747	0.6008	0.7138	0.052
Mof_C 	C 	0.3941	0.5486	0.6852	-0.114
Mof_C 	C 	0.31	0.5612	0.6856	0.061
Mof_C 	C 	0.3797	0.6708	0.7429	0.067
Mof_C 	C 	0.4663	0.6636	0.7439	-0.117
Mof_C 	C 	0.534	0.1372	0.5114	0.068
Mof_C 	C 	0.443	0.075	0.5129	-0.114
Mof_C 	C 	0.5806	0.1232	0.5815	0.063
Mof_C 	C 	0.2676	0.782	0.6775	0.078
Mof_I 	I 	0.13277	0.9619	0.85877	-0.355
Mof_I 	I 	0.12189	0.77142	0.93686	-0.373
Mof_I 	I 	0.54113	0.72908	0.29491	-0.392
Mof_I 	I 	0.48042	0.51132	0.18777	-0.378
Mof_I 	I 	0.36825	0.22864	0.08646	-0.377
Mof_I 	I 	0.57884	0.3177	0.98207	-0.376
Mof_I 	I 	0.82913	0.9619	0.35877	-0.351
Mof_I 	I 	0.64953	0.77142	0.43686	-0.371
Mof_I 	I 	0.18795	0.72908	0.79491	-0.392
Mof_I 	I 	0.0309	0.51132	0.68777	-0.379
Mof_I 	I 	0.86039	0.22864	0.58646	-0.377
Mof_I 	I 	0.73886	0.3177	0.48207	-0.376
Mof_N 	N 	0.9665	0.8842	0.9482	-0.269
Mof_N 	N 	0.7166	0.9686	0.0233	-0.149
Mof_N 	N 	0.6112	0.9278	0.0799	-0.139
Mof_N 	N 	0.71	0.8608	0.0563	-0.14
Mof_N 	N 	0.8377	0.7686	0.3562	-0.27
Mof_N 	N 	0.0034	0.6372	0.2476	-0.134
Mof_N 	N 	0.9565	0.5262	0.1876	-0.14
Mof_N 	N 	0.837	0.5586	0.2267	-0.143
Mof_N 	N 	0.6368	0.3372	0.1016	-0.269
Mof_N 	N 	0.3195	0.621	0.2156	-0.271
Mof_N 	N 	0.5188	0.712	0.1707	-0.274
Mof_N 	N 	0.5595	0.1604	0.0461	-0.266
Mof_N 	N 	0.9177	0.8842	0.4482	-0.268
Mof_N 	N 	0.252	0.9686	0.5233	-0.149
Mof_N 	N 	0.3166	0.9278	0.5799	-0.139
Mof_N 	N 	0.1508	0.8608	0.5563	-0.14
Mof_N 	N 	0.9309	0.7686	0.8562	-0.27
Mof_N 	N 	0.6338	0.6372	0.7476	-0.134
Mof_N 	N 	0.5697	0.5262	0.6876	-0.14
Mof_N 	N 	0.7216	0.5586	0.7267	-0.143
Mof_N 	N 	0.7004	0.3372	0.6016	-0.269
Mof_N 	N 	0.3015	0.621	0.7156	-0.271
Mof_N 	N 	0.1932	0.712	0.6707	-0.274
Mof_N 	N 	0.6009	0.1604	0.5461	-0.267
_end
