data_functionalizedCrystal
_audit_creation_method	'EQeq! by Chris Wilmer'
_symmetry_space_group_name_H-M	'P1'
_symmetry_Int_Tables_number	1
_symmetry_cell_setting	triclinic
loop_
_symmetry_equiv_pos_as_xyz
  x,y,z
_cell_length_a	5.6068
_cell_length_b	13.382
_cell_length_c	21.192
_cell_angle_alpha	90
_cell_angle_beta	95.892
_cell_angle_gamma	90
loop_
_atom_site_label
_atom_site_type_symbol
_atom_site_fract_x
_atom_site_fract_y
_atom_site_fract_z
_atom_site_charge
Mof_Pr	Pr	0.62969	0.13596	0.97105	2.162
Mof_Pr	Pr	0.37031	0.63596	0.52895	2.162
Mof_Pr	Pr	0.37031	0.86404	0.02895	2.162
Mof_Pr	Pr	0.62969	0.36404	0.47105	2.162
Mof_P 	P 	0.9104	0.02303	0.08661	0.519
Mof_P 	P 	0.0896	0.52303	0.41339	0.517
Mof_P 	P 	0.0896	0.97697	0.91339	0.519
Mof_P 	P 	0.9104	0.47697	0.58661	0.517
Mof_H 	H 	0.7569	0.976	0.1796	0.089
Mof_H 	H 	0.6727	0.0844	0.161	0.059
Mof_H 	H 	0.758	0.1044	0.2796	0.048
Mof_H 	H 	0.8803	0.999	0.2858	0.041
Mof_H 	H 	0.0263	0.1006	0.3706	0.001
Mof_H 	H 	0.2357	0.0702	0.3307	0.021
Mof_H 	H 	0.9948	0.2568	0.3214	0.064
Mof_H 	H 	0.2425	0.3022	0.2457	0.035
Mof_H 	H 	0.3704	0.1979	0.2514	0.042
Mof_H 	H 	0.0855	0.1977	0.1613	0.03
Mof_H 	H 	0.8809	0.2255	0.2035	0.032
Mof_H 	H 	0.2431	0.476	0.3204	0.09
Mof_H 	H 	0.3273	0.5844	0.339	0.059
Mof_H 	H 	0.242	0.6044	0.2204	0.048
Mof_H 	H 	0.1197	0.499	0.2142	0.041
Mof_H 	H 	0.9737	0.6006	0.1294	0.002
Mof_H 	H 	0.7643	0.5702	0.1693	0.022
Mof_H 	H 	0.0052	0.7568	0.1786	0.062
Mof_H 	H 	0.7575	0.8022	0.2543	0.036
Mof_H 	H 	0.6296	0.6979	0.2486	0.042
Mof_H 	H 	0.9145	0.6977	0.3387	0.029
Mof_H 	H 	0.1191	0.7255	0.2965	0.03
Mof_H 	H 	0.2431	0.024	0.8204	0.089
Mof_H 	H 	0.3273	0.9156	0.839	0.059
Mof_H 	H 	0.242	0.8956	0.7204	0.048
Mof_H 	H 	0.1197	0.001	0.7142	0.041
Mof_H 	H 	0.9737	0.8994	0.6294	0.001
Mof_H 	H 	0.7643	0.9298	0.6693	0.021
Mof_H 	H 	0.0052	0.7432	0.6786	0.064
Mof_H 	H 	0.7575	0.6978	0.7543	0.035
Mof_H 	H 	0.6296	0.8021	0.7486	0.042
Mof_H 	H 	0.9145	0.8023	0.8387	0.03
Mof_H 	H 	0.1191	0.7745	0.7965	0.032
Mof_H 	H 	0.7569	0.524	0.6796	0.09
Mof_H 	H 	0.6727	0.4156	0.661	0.059
Mof_H 	H 	0.758	0.3956	0.7796	0.048
Mof_H 	H 	0.8803	0.501	0.7858	0.041
Mof_H 	H 	0.0263	0.3994	0.8706	0.002
Mof_H 	H 	0.2357	0.4298	0.8307	0.022
Mof_H 	H 	0.9948	0.2432	0.8214	0.062
Mof_H 	H 	0.2425	0.1978	0.7457	0.036
Mof_H 	H 	0.3704	0.3021	0.7514	0.042
Mof_H 	H 	0.0855	0.3023	0.6613	0.029
Mof_H 	H 	0.8809	0.2745	0.7035	0.03
Mof_C 	C 	0.8105	0.0402	0.1651	-0.214
Mof_C 	C 	0.9086	0.0693	0.2782	-0.088
Mof_C 	C 	0.0888	0.1087	0.3299	-0.027
Mof_C 	C 	0.1445	0.2195	0.3197	-0.15
Mof_C 	C 	0.219	0.2318	0.2539	-0.053
Mof_C 	C 	0.03	0.1892	0.2028	-0.065
Mof_C 	C 	0.3257	0.2617	0.3704	0.346
Mof_C 	C 	0.1895	0.5402	0.3349	-0.214
Mof_C 	C 	0.0914	0.5693	0.2218	-0.087
Mof_C 	C 	0.9112	0.6087	0.1701	-0.029
Mof_C 	C 	0.8555	0.7195	0.1803	-0.148
Mof_C 	C 	0.781	0.7318	0.2461	-0.055
Mof_C 	C 	0.97	0.6892	0.2972	-0.062
Mof_C 	C 	0.6743	0.7617	0.1296	0.345
Mof_C 	C 	0.1895	0.9598	0.8349	-0.214
Mof_C 	C 	0.0914	0.9307	0.7218	-0.088
Mof_C 	C 	0.9112	0.8913	0.6701	-0.027
Mof_C 	C 	0.8555	0.7805	0.6803	-0.15
Mof_C 	C 	0.781	0.7682	0.7461	-0.053
Mof_C 	C 	0.97	0.8108	0.7972	-0.065
Mof_C 	C 	0.6743	0.7383	0.6296	0.346
Mof_C 	C 	0.8105	0.4598	0.6651	-0.214
Mof_C 	C 	0.9086	0.4307	0.7782	-0.087
Mof_C 	C 	0.0888	0.3913	0.8299	-0.029
Mof_C 	C 	0.1445	0.2805	0.8197	-0.148
Mof_C 	C 	0.219	0.2682	0.7539	-0.055
Mof_C 	C 	0.03	0.3108	0.7028	-0.062
Mof_C 	C 	0.3257	0.2383	0.8704	0.345
Mof_N 	N 	0.9897	0.0813	0.2147	-0.071
Mof_N 	N 	0.0103	0.5813	0.2853	-0.072
Mof_N 	N 	0.0103	0.9187	0.7853	-0.071
Mof_N 	N 	0.9897	0.4187	0.7147	-0.072
Mof_O 	O 	0.6857	0.9826	0.047	-0.702
Mof_O 	O 	0.9616	0.1231	0.0574	-0.559
Mof_O 	O 	0.1201	0.9525	0.0926	-0.546
Mof_O 	O 	0.3019	0.243	0.4282	-0.539
Mof_O 	O 	0.4949	0.3148	0.3568	-0.473
Mof_O 	O 	0.3143	0.4826	0.453	-0.702
Mof_O 	O 	0.0384	0.6231	0.4426	-0.561
Mof_O 	O 	0.8799	0.4525	0.4074	-0.545
Mof_O 	O 	0.6981	0.743	0.0718	-0.539
Mof_O 	O 	0.5051	0.8148	0.1432	-0.473
Mof_O 	O 	0.3143	0.0174	0.953	-0.702
Mof_O 	O 	0.0384	0.8769	0.9426	-0.559
Mof_O 	O 	0.8799	0.0475	0.9074	-0.546
Mof_O 	O 	0.6981	0.757	0.5718	-0.539
Mof_O 	O 	0.5051	0.6852	0.6432	-0.473
Mof_O 	O 	0.6857	0.5174	0.547	-0.702
Mof_O 	O 	0.9616	0.3769	0.5574	-0.561
Mof_O 	O 	0.1201	0.5475	0.5926	-0.545
Mof_O 	O 	0.3019	0.257	0.9282	-0.539
Mof_O 	O 	0.4949	0.1852	0.8568	-0.473
_end
