data_functionalizedCrystal
_audit_creation_method	'EQeq! by Chris Wilmer'
_symmetry_space_group_name_H-M	'P1'
_symmetry_Int_Tables_number	1
_symmetry_cell_setting	triclinic
loop_
_symmetry_equiv_pos_as_xyz
  x,y,z
_cell_length_a	15.905
_cell_length_b	15.905
_cell_length_c	21.548
_cell_angle_alpha	90
_cell_angle_beta	90
_cell_angle_gamma	90
loop_
_atom_site_label
_atom_site_type_symbol
_atom_site_fract_x
_atom_site_fract_y
_atom_site_fract_z
_atom_site_charge
Mof_C 	C 	0.037	0.7564	0.536	0.073
Mof_H 	H 	0.005	0.7607	0.5731	0.011
Mof_C 	C 	0.0943	0.69	0.5309	-0.125
Mof_H 	H 	0.1007	0.6508	0.5638	0.071
Mof_C 	C 	0.1422	0.6819	0.4766	0.061
Mof_C 	C 	0.1265	0.7406	0.4305	-0.123
Mof_H 	H 	0.1553	0.7365	0.3919	0.068
Mof_C 	C 	0.0693	0.8048	0.4398	0.07
Mof_H 	H 	0.0612	0.8448	0.4076	0.015
Mof_C 	C 	0.2078	0.6168	0.4708	0.017
Mof_C 	C 	0.2066	0.5439	0.5067	-0.076
Mof_H 	H 	0.1616	0.5351	0.5349	0.054
Mof_C 	C 	0.2693	0.4844	0.502	0.002
Mof_H 	H 	0.2672	0.4353	0.5271	0.025
Mof_C 	C 	0.3345	0.4956	0.4616	-0.078
Mof_H 	H 	0.3771	0.454	0.4582	0.059
Mof_C 	C 	0.3385	0.5679	0.4254	0.02
Mof_C 	C 	0.275	0.6268	0.4304	-0.08
Mof_H 	H 	0.2774	0.6759	0.4053	0.061
Mof_C 	C 	0.4083	0.5766	0.3817	0.093
Mof_C 	C 	0.1263	0.9951	0.5698	0.096
Mof_C 	C 	0.1884	0.9398	0.5398	0.013
Mof_C 	C 	0.2187	0.9564	0.4795	-0.071
Mof_H 	H 	0.2	0.0043	0.4571	0.061
Mof_C 	C 	0.2767	0.9008	0.4536	-0.004
Mof_H 	H 	0.2959	0.9098	0.4124	0.029
Mof_C 	C 	0.3067	0.8324	0.487	-0.077
Mof_H 	H 	0.3472	0.796	0.4688	0.058
Mof_C 	C 	0.2781	0.8167	0.5468	0.016
Mof_C 	C 	0.218	0.8711	0.5723	-0.077
Mof_H 	H 	0.1972	0.8604	0.6129	0.055
Mof_C 	C 	0.308	0.7442	0.5835	0.063
Mof_C 	C 	0.2653	0.7168	0.6365	-0.13
Mof_H 	H 	0.2119	0.74	0.6465	0.07
Mof_C 	C 	0.3004	0.6566	0.674	0.071
Mof_H 	H 	0.2703	0.6399	0.71	0.007
Mof_C 	C 	0.4128	0.6405	0.6102	0.073
Mof_H 	H 	0.4633	0.612	0.5997	0.014
Mof_C 	C 	0.3831	0.7013	0.5698	-0.127
Mof_H 	H 	0.4133	0.7139	0.5329	0.074
Mof_N 	N 	0.0246	0.8133	0.4924	-0.149
Mof_N 	N 	0.446	0.5122	0.3553	-0.101
Mof_N 	N 	0.0446	0.9931	0.5664	-0.116
Mof_N 	N 	0.4436	0.649	0.3603	-0.108
Mof_N 	N 	0.425	0.7311	0.381	-0.209
Mof_H 	H 	0.4735	0.7586	0.3903	0.111
Mof_H 	H 	0.3974	0.7592	0.3502	0.109
Mof_N 	N 	0.88	0.8746	0.4127	-0.153
Mof_C 	C 	0.963	0.2436	0.036	0.067
Mof_H 	H 	0.995	0.2393	0.0731	0.01
Mof_C 	C 	0.9057	0.31	0.0309	-0.134
Mof_H 	H 	0.8993	0.3492	0.0638	0.072
Mof_C 	C 	0.8578	0.3181	0.9766	0.069
Mof_C 	C 	0.8735	0.2594	0.9305	-0.126
Mof_H 	H 	0.8447	0.2635	0.8919	0.069
Mof_C 	C 	0.9307	0.1952	0.9398	0.072
Mof_H 	H 	0.9388	0.1552	0.9076	0.015
Mof_C 	C 	0.7922	0.3832	0.9708	0.02
Mof_C 	C 	0.7934	0.4561	0.0067	-0.079
Mof_H 	H 	0.8384	0.4649	0.0349	0.053
Mof_C 	C 	0.7307	0.5156	0.002	-0.01
Mof_H 	H 	0.7328	0.5647	0.0271	0.027
Mof_C 	C 	0.6655	0.5044	0.9616	-0.065
Mof_H 	H 	0.6229	0.546	0.9582	0.057
Mof_C 	C 	0.6615	0.4321	0.9254	0.017
Mof_C 	C 	0.725	0.3732	0.9304	-0.078
Mof_H 	H 	0.7226	0.3241	0.9053	0.061
Mof_C 	C 	0.5917	0.4234	0.8817	0.094
Mof_C 	C 	0.8737	0.0049	0.0698	0.099
Mof_C 	C 	0.8116	0.0602	0.0398	-0.006
Mof_C 	C 	0.7813	0.0436	0.9795	-0.048
Mof_H 	H 	0.8	0.9957	0.9571	0.054
Mof_C 	C 	0.7233	0.0992	0.9536	-0.022
Mof_H 	H 	0.7041	0.0902	0.9124	0.036
Mof_C 	C 	0.6933	0.1676	0.987	-0.053
Mof_H 	H 	0.6528	0.204	0.9688	0.052
Mof_C 	C 	0.7219	0.1833	0.0468	-0.003
Mof_C 	C 	0.782	0.1289	0.0723	-0.062
Mof_H 	H 	0.8028	0.1396	0.1129	0.05
Mof_C 	C 	0.692	0.2558	0.0835	0.069
Mof_C 	C 	0.7347	0.2832	0.1365	-0.135
Mof_H 	H 	0.7881	0.26	0.1465	0.072
Mof_C 	C 	0.6996	0.3434	0.174	0.073
Mof_H 	H 	0.7297	0.3601	0.21	0.007
Mof_C 	C 	0.5872	0.3595	0.1102	0.075
Mof_H 	H 	0.5367	0.388	0.0997	0.013
Mof_C 	C 	0.6169	0.2987	0.0698	-0.132
Mof_H 	H 	0.5867	0.2861	0.0329	0.074
Mof_N 	N 	0.9754	0.1867	0.9924	-0.144
Mof_N 	N 	0.554	0.4878	0.8553	-0.101
Mof_N 	N 	0.9554	0.0069	0.0664	-0.118
Mof_N 	N 	0.5564	0.351	0.8603	-0.108
Mof_N 	N 	0.575	0.2689	0.881	-0.209
Mof_H 	H 	0.5265	0.2414	0.8903	0.112
Mof_H 	H 	0.6026	0.2408	0.8502	0.109
Mof_N 	N 	0.12	0.1254	0.9127	-0.151
Mof_C 	C 	0.7436	0.537	0.286	0.072
Mof_H 	H 	0.7393	0.505	0.3231	0.009
Mof_C 	C 	0.81	0.5943	0.2809	-0.126
Mof_H 	H 	0.8492	0.6007	0.3138	0.07
Mof_C 	C 	0.8181	0.6422	0.2266	0.061
Mof_C 	C 	0.7594	0.6265	0.1805	-0.123
Mof_H 	H 	0.7635	0.6553	0.1419	0.067
Mof_C 	C 	0.6952	0.5693	0.1898	0.07
Mof_H 	H 	0.6552	0.5612	0.1576	0.015
Mof_C 	C 	0.8832	0.7078	0.2208	0.017
Mof_C 	C 	0.9561	0.7066	0.2567	-0.077
Mof_H 	H 	0.9649	0.6616	0.2849	0.054
Mof_C 	C 	0.0156	0.7693	0.252	0.002
Mof_H 	H 	0.0647	0.7672	0.2771	0.025
Mof_C 	C 	0.0044	0.8345	0.2116	-0.077
Mof_H 	H 	0.046	0.8771	0.2082	0.059
Mof_C 	C 	0.9321	0.8385	0.1754	0.019
Mof_C 	C 	0.8732	0.775	0.1804	-0.08
Mof_H 	H 	0.8241	0.7774	0.1553	0.061
Mof_C 	C 	0.9234	0.9083	0.1317	0.092
Mof_C 	C 	0.5049	0.6263	0.3198	0.095
Mof_C 	C 	0.5602	0.6884	0.2898	0.014
Mof_C 	C 	0.5436	0.7187	0.2295	-0.074
Mof_H 	H 	0.4957	0.7	0.2071	0.062
Mof_C 	C 	0.5992	0.7767	0.2036	-0.002
Mof_H 	H 	0.5902	0.7959	0.1624	0.028
Mof_C 	C 	0.6676	0.8067	0.237	-0.078
Mof_H 	H 	0.704	0.8472	0.2188	0.058
Mof_C 	C 	0.6833	0.7781	0.2968	0.017
Mof_C 	C 	0.6289	0.718	0.3223	-0.078
Mof_H 	H 	0.6396	0.6972	0.3629	0.055
Mof_C 	C 	0.7558	0.808	0.3335	0.062
Mof_C 	C 	0.7832	0.7653	0.3865	-0.13
Mof_H 	H 	0.76	0.7119	0.3965	0.07
Mof_C 	C 	0.8434	0.8004	0.424	0.071
Mof_H 	H 	0.8601	0.7703	0.46	0.007
Mof_C 	C 	0.8595	0.9128	0.3602	0.073
Mof_H 	H 	0.888	0.9633	0.3497	0.014
Mof_C 	C 	0.7987	0.8831	0.3198	-0.127
Mof_H 	H 	0.7861	0.9133	0.2829	0.074
Mof_N 	N 	0.6867	0.5246	0.2424	-0.149
Mof_N 	N 	0.9878	0.946	0.1053	-0.102
Mof_N 	N 	0.5069	0.5446	0.3164	-0.117
Mof_N 	N 	0.851	0.9436	0.1103	-0.109
Mof_N 	N 	0.7689	0.925	0.131	-0.209
Mof_H 	H 	0.7414	0.9735	0.1403	0.111
Mof_H 	H 	0.7408	0.8974	0.1002	0.108
Mof_N 	N 	0.6254	0.38	0.1627	-0.154
Mof_C 	C 	0.2564	0.463	0.786	0.072
Mof_H 	H 	0.2607	0.495	0.8231	0.009
Mof_C 	C 	0.19	0.4057	0.7809	-0.126
Mof_H 	H 	0.1508	0.3993	0.8138	0.071
Mof_C 	C 	0.1819	0.3578	0.7266	0.061
Mof_C 	C 	0.2406	0.3735	0.6805	-0.123
Mof_H 	H 	0.2365	0.3447	0.6419	0.068
Mof_C 	C 	0.3048	0.4307	0.6898	0.07
Mof_H 	H 	0.3448	0.4388	0.6576	0.015
Mof_C 	C 	0.1168	0.2922	0.7208	0.017
Mof_C 	C 	0.0439	0.2934	0.7567	-0.076
Mof_H 	H 	0.0351	0.3384	0.7849	0.054
Mof_C 	C 	0.9844	0.2307	0.752	0.001
Mof_H 	H 	0.9353	0.2328	0.7771	0.025
Mof_C 	C 	0.9956	0.1655	0.7116	-0.078
Mof_H 	H 	0.954	0.1229	0.7082	0.059
Mof_C 	C 	0.0679	0.1615	0.6754	0.02
Mof_C 	C 	0.1268	0.225	0.6804	-0.08
Mof_H 	H 	0.1759	0.2226	0.6553	0.061
Mof_C 	C 	0.0766	0.0917	0.6317	0.093
Mof_C 	C 	0.4951	0.3737	0.8198	0.095
Mof_C 	C 	0.4398	0.3116	0.7898	0.014
Mof_C 	C 	0.4564	0.2813	0.7295	-0.074
Mof_H 	H 	0.5043	0.3	0.7071	0.062
Mof_C 	C 	0.4008	0.2233	0.7036	-0.002
Mof_H 	H 	0.4098	0.2041	0.6624	0.029
Mof_C 	C 	0.3324	0.1933	0.737	-0.078
Mof_H 	H 	0.296	0.1528	0.7188	0.058
Mof_C 	C 	0.3167	0.2219	0.7968	0.017
Mof_C 	C 	0.3711	0.282	0.8223	-0.078
Mof_H 	H 	0.3604	0.3028	0.8629	0.056
Mof_C 	C 	0.2442	0.192	0.8335	0.062
Mof_C 	C 	0.2168	0.2347	0.8865	-0.129
Mof_H 	H 	0.24	0.2881	0.8965	0.071
Mof_C 	C 	0.1566	0.1996	0.924	0.072
Mof_H 	H 	0.1399	0.2297	0.96	0.01
Mof_C 	C 	0.1405	0.0872	0.8602	0.073
Mof_H 	H 	0.112	0.0367	0.8497	0.014
Mof_C 	C 	0.2013	0.1169	0.8198	-0.127
Mof_H 	H 	0.2139	0.0867	0.7829	0.074
Mof_N 	N 	0.3133	0.4754	0.7424	-0.149
Mof_N 	N 	0.0122	0.054	0.6053	-0.102
Mof_N 	N 	0.4931	0.4554	0.8164	-0.117
Mof_N 	N 	0.149	0.0564	0.6103	-0.109
Mof_N 	N 	0.2311	0.075	0.631	-0.209
Mof_H 	H 	0.2586	0.0265	0.6403	0.111
Mof_H 	H 	0.2592	0.1026	0.6002	0.109
Mof_N 	N 	0.3746	0.62	0.6627	-0.153
Mof_C 	C 	0.463	0.2564	0.214	0.072
Mof_H 	H 	0.495	0.2607	0.1769	0.009
Mof_C 	C 	0.4057	0.19	0.2191	-0.126
Mof_H 	H 	0.3993	0.1508	0.1862	0.07
Mof_C 	C 	0.3578	0.1819	0.2734	0.061
Mof_C 	C 	0.3735	0.2406	0.3195	-0.123
Mof_H 	H 	0.3447	0.2365	0.3581	0.068
Mof_C 	C 	0.4307	0.3048	0.3102	0.07
Mof_H 	H 	0.4388	0.3448	0.3424	0.015
Mof_C 	C 	0.2922	0.1168	0.2792	0.017
Mof_C 	C 	0.2934	0.0439	0.2433	-0.078
Mof_H 	H 	0.3384	0.0351	0.2151	0.054
Mof_C 	C 	0.2307	0.9844	0.248	0.003
Mof_H 	H 	0.2328	0.9353	0.2229	0.025
Mof_C 	C 	0.1655	0.9956	0.2884	-0.077
Mof_H 	H 	0.1229	0.954	0.2918	0.059
Mof_C 	C 	0.1615	0.0679	0.3246	0.019
Mof_C 	C 	0.225	0.1268	0.3196	-0.08
Mof_H 	H 	0.2226	0.1759	0.3447	0.061
Mof_C 	C 	0.0917	0.0766	0.3683	0.093
Mof_C 	C 	0.3737	0.4951	0.1802	0.095
Mof_C 	C 	0.3116	0.4398	0.2102	0.014
Mof_C 	C 	0.2813	0.4564	0.2705	-0.073
Mof_H 	H 	0.3	0.5043	0.2929	0.062
Mof_C 	C 	0.2233	0.4008	0.2964	-0.003
Mof_H 	H 	0.2041	0.4098	0.3376	0.029
Mof_C 	C 	0.1933	0.3324	0.263	-0.078
Mof_H 	H 	0.1528	0.296	0.2812	0.058
Mof_C 	C 	0.2219	0.3167	0.2032	0.017
Mof_C 	C 	0.282	0.3711	0.1777	-0.077
Mof_H 	H 	0.3028	0.3604	0.1371	0.055
Mof_C 	C 	0.192	0.2442	0.1665	0.062
Mof_C 	C 	0.2347	0.2168	0.1135	-0.13
Mof_H 	H 	0.2881	0.24	0.1035	0.069
Mof_C 	C 	0.1996	0.1566	0.076	0.071
Mof_H 	H 	0.2297	0.1399	0.04	0.005
Mof_C 	C 	0.0872	0.1405	0.1398	0.073
Mof_H 	H 	0.0367	0.112	0.1503	0.014
Mof_C 	C 	0.1169	0.2013	0.1802	-0.127
Mof_H 	H 	0.0867	0.2139	0.2171	0.074
Mof_N 	N 	0.4754	0.3133	0.2576	-0.149
Mof_N 	N 	0.054	0.0122	0.3947	-0.102
Mof_N 	N 	0.4554	0.4931	0.1836	-0.117
Mof_N 	N 	0.0564	0.149	0.3897	-0.108
Mof_N 	N 	0.075	0.2311	0.369	-0.209
Mof_H 	H 	0.0265	0.2586	0.3597	0.111
Mof_H 	H 	0.1026	0.2592	0.3998	0.109
Mof_N 	N 	0.62	0.3746	0.3373	-0.153
Mof_C 	C 	0.537	0.7436	0.714	0.072
Mof_H 	H 	0.505	0.7393	0.6769	0.009
Mof_C 	C 	0.5943	0.81	0.7191	-0.126
Mof_H 	H 	0.6007	0.8492	0.6862	0.07
Mof_C 	C 	0.6422	0.8181	0.7734	0.061
Mof_C 	C 	0.6265	0.7594	0.8195	-0.123
Mof_H 	H 	0.6553	0.7635	0.8581	0.068
Mof_C 	C 	0.5693	0.6952	0.8102	0.07
Mof_H 	H 	0.5612	0.6552	0.8424	0.015
Mof_C 	C 	0.7078	0.8832	0.7792	0.017
Mof_C 	C 	0.7066	0.9561	0.7433	-0.077
Mof_H 	H 	0.6616	0.9649	0.7151	0.054
Mof_C 	C 	0.7693	0.0156	0.748	0.002
Mof_H 	H 	0.7672	0.0647	0.7229	0.025
Mof_C 	C 	0.8345	0.0044	0.7884	-0.077
Mof_H 	H 	0.8771	0.046	0.7918	0.059
Mof_C 	C 	0.8385	0.9321	0.8246	0.019
Mof_C 	C 	0.775	0.8732	0.8196	-0.08
Mof_H 	H 	0.7774	0.8241	0.8447	0.062
Mof_C 	C 	0.9083	0.9234	0.8683	0.093
Mof_C 	C 	0.6263	0.5049	0.6802	0.095
Mof_C 	C 	0.6884	0.5602	0.7102	0.014
Mof_C 	C 	0.7187	0.5436	0.7705	-0.073
Mof_H 	H 	0.7	0.4957	0.7929	0.062
Mof_C 	C 	0.7767	0.5992	0.7964	-0.003
Mof_H 	H 	0.7959	0.5902	0.8376	0.029
Mof_C 	C 	0.8067	0.6676	0.763	-0.078
Mof_H 	H 	0.8472	0.704	0.7812	0.058
Mof_C 	C 	0.7781	0.6833	0.7032	0.017
Mof_C 	C 	0.718	0.6289	0.6777	-0.077
Mof_H 	H 	0.6972	0.6396	0.6371	0.055
Mof_C 	C 	0.808	0.7558	0.6665	0.062
Mof_C 	C 	0.7653	0.7832	0.6135	-0.13
Mof_H 	H 	0.7119	0.76	0.6035	0.07
Mof_C 	C 	0.8004	0.8434	0.576	0.071
Mof_H 	H 	0.7703	0.8601	0.54	0.007
Mof_C 	C 	0.9128	0.8595	0.6398	0.073
Mof_H 	H 	0.9633	0.888	0.6503	0.014
Mof_C 	C 	0.8831	0.7987	0.6802	-0.127
Mof_H 	H 	0.9133	0.7861	0.7171	0.074
Mof_N 	N 	0.5246	0.6867	0.7576	-0.149
Mof_N 	N 	0.946	0.9878	0.8947	-0.102
Mof_N 	N 	0.5446	0.5069	0.6836	-0.117
Mof_N 	N 	0.9436	0.851	0.8897	-0.108
Mof_N 	N 	0.925	0.7689	0.869	-0.21
Mof_H 	H 	0.9735	0.7414	0.8597	0.112
Mof_H 	H 	0.8974	0.7408	0.8998	0.11
Mof_N 	N 	0.38	0.6254	0.8373	-0.152
Mof_C 	C 	0.7564	0.037	0.464	0.072
Mof_H 	H 	0.7607	0.005	0.4269	0.009
Mof_C 	C 	0.69	0.0943	0.4691	-0.126
Mof_H 	H 	0.6508	0.1007	0.4362	0.07
Mof_C 	C 	0.6819	0.1422	0.5234	0.061
Mof_C 	C 	0.7406	0.1265	0.5695	-0.123
Mof_H 	H 	0.7365	0.1553	0.6081	0.068
Mof_C 	C 	0.8048	0.0693	0.5602	0.07
Mof_H 	H 	0.8448	0.0612	0.5924	0.015
Mof_C 	C 	0.6168	0.2078	0.5292	0.017
Mof_C 	C 	0.5439	0.2066	0.4933	-0.076
Mof_H 	H 	0.5351	0.1616	0.4651	0.054
Mof_C 	C 	0.4844	0.2693	0.498	0.002
Mof_H 	H 	0.4353	0.2672	0.4729	0.025
Mof_C 	C 	0.4956	0.3345	0.5384	-0.078
Mof_H 	H 	0.454	0.3771	0.5418	0.059
Mof_C 	C 	0.5679	0.3385	0.5746	0.02
Mof_C 	C 	0.6268	0.275	0.5696	-0.08
Mof_H 	H 	0.6759	0.2774	0.5947	0.061
Mof_C 	C 	0.5766	0.4083	0.6183	0.093
Mof_C 	C 	0.9951	0.1263	0.4302	0.095
Mof_C 	C 	0.9398	0.1884	0.4602	0.013
Mof_C 	C 	0.9564	0.2187	0.5205	-0.073
Mof_H 	H 	0.0043	0.2	0.5429	0.062
Mof_C 	C 	0.9008	0.2767	0.5464	-0.003
Mof_H 	H 	0.9098	0.2959	0.5876	0.029
Mof_C 	C 	0.8324	0.3067	0.513	-0.078
Mof_H 	H 	0.796	0.3472	0.5312	0.058
Mof_C 	C 	0.8167	0.2781	0.4532	0.017
Mof_C 	C 	0.8711	0.218	0.4277	-0.077
Mof_H 	H 	0.8604	0.1972	0.3871	0.055
Mof_C 	C 	0.7442	0.308	0.4165	0.062
Mof_C 	C 	0.7168	0.2653	0.3635	-0.13
Mof_H 	H 	0.74	0.2119	0.3535	0.07
Mof_C 	C 	0.6566	0.3004	0.326	0.071
Mof_H 	H 	0.6399	0.2703	0.29	0.007
Mof_C 	C 	0.6405	0.4128	0.3898	0.073
Mof_H 	H 	0.612	0.4633	0.4003	0.014
Mof_C 	C 	0.7013	0.3831	0.4302	-0.127
Mof_H 	H 	0.7139	0.4133	0.4671	0.074
Mof_N 	N 	0.8133	0.0246	0.5076	-0.149
Mof_N 	N 	0.5122	0.446	0.6447	-0.101
Mof_N 	N 	0.9931	0.0446	0.4336	-0.116
Mof_N 	N 	0.649	0.4436	0.6397	-0.108
Mof_N 	N 	0.7311	0.425	0.619	-0.209
Mof_H 	H 	0.7586	0.4735	0.6097	0.111
Mof_H 	H 	0.7592	0.3974	0.6498	0.109
Mof_N 	N 	0.8746	0.88	0.5873	-0.153
Mof_C 	C 	0.2436	0.963	0.964	0.076
Mof_H 	H 	0.2393	0.995	0.9269	0.009
Mof_C 	C 	0.31	0.9057	0.9691	-0.119
Mof_H 	H 	0.3492	0.8993	0.9362	0.069
Mof_C 	C 	0.3181	0.8578	0.0234	0.054
Mof_C 	C 	0.2594	0.8735	0.0695	-0.121
Mof_H 	H 	0.2635	0.8447	0.1081	0.067
Mof_C 	C 	0.1952	0.9307	0.0602	0.067
Mof_H 	H 	0.1552	0.9388	0.0924	0.016
Mof_C 	C 	0.3832	0.7922	0.0292	0.014
Mof_C 	C 	0.4561	0.7934	0.9933	-0.074
Mof_H 	H 	0.4649	0.8384	0.9651	0.054
Mof_C 	C 	0.5156	0.7307	0.998	0.013
Mof_H 	H 	0.5647	0.7328	0.9729	0.022
Mof_C 	C 	0.5044	0.6655	0.0384	-0.09
Mof_H 	H 	0.546	0.6229	0.0418	0.062
Mof_C 	C 	0.4321	0.6615	0.0746	0.024
Mof_C 	C 	0.3732	0.725	0.0696	-0.083
Mof_H 	H 	0.3241	0.7226	0.0947	0.062
Mof_C 	C 	0.4234	0.5917	0.1183	0.091
Mof_C 	C 	0.0049	0.8737	0.9302	0.093
Mof_C 	C 	0.0602	0.8116	0.9602	0.029
Mof_C 	C 	0.0436	0.7813	0.0205	-0.09
Mof_H 	H 	0.9957	0.8	0.0429	0.066
Mof_C 	C 	0.0992	0.7233	0.0464	0.012
Mof_H 	H 	0.0902	0.7041	0.0876	0.024
Mof_C 	C 	0.1676	0.6933	0.013	-0.097
Mof_H 	H 	0.204	0.6528	0.0312	0.063
Mof_C 	C 	0.1833	0.7219	0.9532	0.034
Mof_C 	C 	0.1289	0.782	0.9277	-0.089
Mof_H 	H 	0.1396	0.8028	0.8871	0.059
Mof_C 	C 	0.2558	0.692	0.9165	0.057
Mof_C 	C 	0.2832	0.7347	0.8635	-0.126
Mof_H 	H 	0.26	0.7881	0.8535	0.069
Mof_C 	C 	0.3434	0.6996	0.826	0.069
Mof_H 	H 	0.3601	0.7297	0.79	0.008
Mof_C 	C 	0.3595	0.5872	0.8898	0.072
Mof_H 	H 	0.388	0.5367	0.9003	0.015
Mof_C 	C 	0.2987	0.6169	0.9302	-0.123
Mof_H 	H 	0.2861	0.5867	0.9671	0.075
Mof_N 	N 	0.1867	0.9754	0.0076	-0.152
Mof_N 	N 	0.4878	0.554	0.1447	-0.101
Mof_N 	N 	0.0069	0.9554	0.9336	-0.114
Mof_N 	N 	0.351	0.5564	0.1397	-0.108
Mof_N 	N 	0.2689	0.575	0.119	-0.21
Mof_H 	H 	0.2414	0.5265	0.1097	0.111
Mof_H 	H 	0.2408	0.6026	0.1498	0.109
Mof_N 	N 	0.1254	0.12	0.0873	-0.153
Mof_Cd	Cd	0.94113	0.94113	0.5	0.381
Mof_Cd	Cd	0.05887	0.05887	-0	0.374
Mof_Cd	Cd	0.55887	0.44113	0.25	0.382
Mof_Cd	Cd	0.44113	0.55887	0.75	0.382
_end
