data_functionalizedCrystal
_audit_creation_method	'EQeq! by Chris Wilmer'
_symmetry_space_group_name_H-M	'P1'
_symmetry_Int_Tables_number	1
_symmetry_cell_setting	triclinic
loop_
_symmetry_equiv_pos_as_xyz
  x,y,z
_cell_length_a	18.698
_cell_length_b	18.698
_cell_length_c	9.395
_cell_angle_alpha	90
_cell_angle_beta	90
_cell_angle_gamma	90
loop_
_atom_site_label
_atom_site_type_symbol
_atom_site_fract_x
_atom_site_fract_y
_atom_site_fract_z
_atom_site_charge
Mof_P 	P 	0.56608	0.33397	0.0911	1.95
Mof_P 	P 	0.45084	0.16591	0.8393	1.922
Mof_P 	P 	0.56561	0.05626	0.3365	1.94
Mof_Al	Al	0.45454	0.33454	0.8412	7.144
Mof_Al	Al	0.56429	0.44771	0.3343	7.469
Mof_Al	Al	0.56381	0.16629	0.0844	7.989
Mof_O 	O 	0.4858	0.1582	0.9878	-2.566
Mof_O 	O 	0.3776	0.1273	0.8411	-2.26
Mof_O 	O 	0.4381	0.2457	0.805	-2.2
Mof_O 	O 	0.4967	0.3427	0.0039	-2.345
Mof_O 	O 	0.5569	0.371	0.2357	-2.328
Mof_O 	O 	0.6306	0.3661	0.0106	-2.386
Mof_O 	O 	0.5829	0.2545	0.1198	-2.367
Mof_O 	O 	0.5	0.1346	0.7232	-2.464
Mof_O 	O 	0.4948	0.0151	0.3232	-2.266
Mof_O 	O 	0.5783	0.0793	0.4916	-2.299
Mof_O 	O 	0.6291	0.0105	0.2873	-2.169
Mof_O 	O 	0.5594	0.1249	0.2466	-2.415
Mof_P 	P 	0.93392	0.16603	0.0911	1.812
Mof_P 	P 	0.04916	0.33409	0.8393	1.845
Mof_P 	P 	0.93439	0.44374	0.3365	1.82
Mof_Al	Al	0.04546	0.16546	0.8412	7.444
Mof_Al	Al	0.93571	0.05229	0.3343	6.891
Mof_Al	Al	0.93619	0.33371	0.0844	7.273
Mof_O 	O 	0.0142	0.3418	0.9878	-2.339
Mof_O 	O 	0.1224	0.3727	0.8411	-2.193
Mof_O 	O 	0.0619	0.2543	0.805	-2.222
Mof_O 	O 	0.0033	0.1573	0.0039	-2.256
Mof_O 	O 	0.9431	0.129	0.2357	-2.211
Mof_O 	O 	0.8694	0.1339	0.0106	-2.418
Mof_O 	O 	0.9171	0.2455	0.1198	-2.223
Mof_O 	O 	-6.32289e-33	0.3654	0.7232	-2.205
Mof_O 	O 	0.0052	0.4849	0.3232	-2.325
Mof_O 	O 	0.9217	0.4207	0.4916	-2.151
Mof_O 	O 	0.8709	0.4895	0.2873	-2.298
Mof_O 	O 	0.9406	0.3751	0.2466	-2.287
Mof_P 	P 	0.16603	0.56608	0.0911	1.964
Mof_P 	P 	0.33409	0.45084	0.8393	1.882
Mof_P 	P 	0.44374	0.56561	0.3365	1.962
Mof_Al	Al	0.16546	0.45454	0.8412	7.141
Mof_Al	Al	0.05229	0.56429	0.3343	7.477
Mof_Al	Al	0.33371	0.56381	0.0844	7.886
Mof_O 	O 	0.3418	0.4858	0.9878	-2.539
Mof_O 	O 	0.3727	0.3776	0.8411	-2.209
Mof_O 	O 	0.2543	0.4381	0.805	-2.193
Mof_O 	O 	0.1573	0.4967	0.0039	-2.331
Mof_O 	O 	0.129	0.5569	0.2357	-2.32
Mof_O 	O 	0.1339	0.6306	0.0106	-2.441
Mof_O 	O 	0.2455	0.5829	0.1198	-2.347
Mof_O 	O 	0.3654	0.5	0.7232	-2.388
Mof_O 	O 	0.4849	0.4948	0.3232	-2.44
Mof_O 	O 	0.4207	0.5783	0.4916	-2.242
Mof_O 	O 	0.4895	0.6291	0.2873	-2.338
Mof_O 	O 	0.3751	0.5594	0.2466	-2.407
Mof_P 	P 	0.33397	0.93392	0.0911	1.812
Mof_P 	P 	0.16591	0.04916	0.8393	1.876
Mof_P 	P 	0.05626	0.93439	0.3365	1.768
Mof_Al	Al	0.33454	0.04546	0.8412	7.411
Mof_Al	Al	0.44771	0.93571	0.3343	7.009
Mof_Al	Al	0.16629	0.93619	0.0844	7.345
Mof_O 	O 	0.1582	0.0142	0.9878	-2.353
Mof_O 	O 	0.1273	0.1224	0.8411	-2.247
Mof_O 	O 	0.2457	0.0619	0.805	-2.222
Mof_O 	O 	0.3427	0.0033	0.0039	-2.274
Mof_O 	O 	0.371	0.9431	0.2357	-2.243
Mof_O 	O 	0.3661	0.8694	0.0106	-2.377
Mof_O 	O 	0.2545	0.9171	0.1198	-2.237
Mof_O 	O 	0.1346	0	0.7232	-2.242
Mof_O 	O 	0.0151	0.0052	0.3232	-2.098
Mof_O 	O 	0.0793	0.9217	0.4916	-2.177
Mof_O 	O 	0.0105	0.8709	0.2873	-2.133
Mof_O 	O 	0.1249	0.9406	0.2466	-2.287
Mof_P 	P 	0.43392	0.66603	0.9089	1.95
Mof_P 	P 	0.54916	0.83409	0.1607	1.829
Mof_P 	P 	0.43439	0.94374	0.6635	1.944
Mof_Al	Al	0.54546	0.66546	0.1588	7.27
Mof_Al	Al	0.43571	0.55229	0.6657	7.455
Mof_Al	Al	0.43619	0.83371	0.9156	7.492
Mof_O 	O 	0.5142	0.8418	0.0122	-2.423
Mof_O 	O 	0.6224	0.8727	0.1589	-2.14
Mof_O 	O 	0.5619	0.7543	0.195	-2.209
Mof_O 	O 	0.5033	0.6573	0.9961	-2.402
Mof_O 	O 	0.4431	0.629	0.7643	-2.332
Mof_O 	O 	0.3694	0.6339	0.9894	-2.5
Mof_O 	O 	0.4171	0.7455	0.8802	-2.274
Mof_O 	O 	0.5	0.8654	0.2768	-2.292
Mof_O 	O 	0.5052	0.9849	0.6768	-2.576
Mof_O 	O 	0.4217	0.9207	0.5084	-2.165
Mof_O 	O 	0.3709	0.9895	0.7127	-2.435
Mof_O 	O 	0.4406	0.8751	0.7534	-2.336
Mof_P 	P 	0.06608	0.83397	0.9089	1.948
Mof_P 	P 	0.95084	0.66591	0.1607	1.782
Mof_P 	P 	0.06561	0.55626	0.6635	2
Mof_Al	Al	0.95454	0.83454	0.1588	6.707
Mof_Al	Al	0.06429	0.94771	0.6657	7.236
Mof_Al	Al	0.06381	0.66629	0.9156	7.837
Mof_O 	O 	0.9858	0.6582	0.0122	-2.549
Mof_O 	O 	0.8776	0.6273	0.1589	-2.202
Mof_O 	O 	0.9381	0.7457	0.195	-2.113
Mof_O 	O 	0.9967	0.8427	0.9961	-2.326
Mof_O 	O 	0.0569	0.871	0.7643	-2.269
Mof_O 	O 	0.1306	0.8661	0.9894	-2.382
Mof_O 	O 	0.0829	0.7545	0.8802	-2.329
Mof_O 	O 	-2.36053e-33	0.6346	0.2768	-2.293
Mof_O 	O 	0.9948	0.5151	0.6768	-2.426
Mof_O 	O 	0.0783	0.5793	0.5084	-2.232
Mof_O 	O 	0.1291	0.5105	0.7127	-2.309
Mof_O 	O 	0.0594	0.6249	0.7534	-2.385
Mof_P 	P 	0.83397	0.43392	0.9089	1.887
Mof_P 	P 	0.66591	0.54916	0.1607	1.871
Mof_P 	P 	0.55626	0.43439	0.6635	1.934
Mof_Al	Al	0.83454	0.54546	0.1588	7.14
Mof_Al	Al	0.94771	0.43571	0.6657	7.002
Mof_Al	Al	0.66629	0.43619	0.9156	7.499
Mof_O 	O 	0.6582	0.5142	0.0122	-2.423
Mof_O 	O 	0.6273	0.6224	0.1589	-2.23
Mof_O 	O 	0.7457	0.5619	0.195	-2.186
Mof_O 	O 	0.8427	0.5033	0.9961	-2.361
Mof_O 	O 	0.871	0.4431	0.7643	-2.232
Mof_O 	O 	0.8661	0.3694	0.9894	-2.361
Mof_O 	O 	0.7545	0.4171	0.8802	-2.268
Mof_O 	O 	0.6346	0.5	0.2768	-2.386
Mof_O 	O 	0.5151	0.5052	0.6768	-2.436
Mof_O 	O 	0.5793	0.4217	0.5084	-2.242
Mof_O 	O 	0.5105	0.3709	0.7127	-2.312
Mof_O 	O 	0.6249	0.4406	0.7534	-2.33
Mof_P 	P 	0.66603	0.06608	0.9089	2.02
Mof_P 	P 	0.83409	0.95084	0.1607	1.743
Mof_P 	P 	0.94374	0.06561	0.6635	1.974
Mof_Al	Al	0.66546	0.95454	0.1588	6.812
Mof_Al	Al	0.55229	0.06429	0.6657	7.829
Mof_Al	Al	0.83371	0.06381	0.9156	7.767
Mof_O 	O 	0.8418	0.9858	0.0122	-2.525
Mof_O 	O 	0.8727	0.8776	0.1589	-2.113
Mof_O 	O 	0.7543	0.9381	0.195	-2.129
Mof_O 	O 	0.6573	0.9967	0.9961	-2.37
Mof_O 	O 	0.629	0.0569	0.7643	-2.397
Mof_O 	O 	0.6339	0.1306	0.9894	-2.528
Mof_O 	O 	0.7455	0.0829	0.8802	-2.323
Mof_O 	O 	0.8654	9.60668e-34	0.2768	-2.182
Mof_O 	O 	0.9849	0.9948	0.6768	-2.503
Mof_O 	O 	0.9207	0.0783	0.5084	-2.128
Mof_O 	O 	0.9895	0.1291	0.7127	-2.441
Mof_O 	O 	0.8751	0.0594	0.7534	-2.377
_end
