data_functionalizedCrystal
_audit_creation_method	'EQeq! by Chris Wilmer'
_symmetry_space_group_name_H-M	'P1'
_symmetry_Int_Tables_number	1
_symmetry_cell_setting	triclinic
loop_
_symmetry_equiv_pos_as_xyz
  x,y,z
_cell_length_a	19.792
_cell_length_b	20.604
_cell_length_c	21.471
_cell_angle_alpha	115.799
_cell_angle_beta	98.322
_cell_angle_gamma	100.882
loop_
_atom_site_label
_atom_site_type_symbol
_atom_site_fract_x
_atom_site_fract_y
_atom_site_fract_z
_atom_site_charge
Mof_C 	C 	0.1106	0.3399	0.3651	-0.125
Mof_H 	H 	0.1259	0.3113	0.3256	0.073
Mof_C 	C 	0.1327	0.43	0.4932	-0.157
Mof_H 	H 	0.165	0.4605	0.5377	0.094
Mof_C 	C 	0.231	0.3945	0.4455	-0.025
Mof_H 	H 	0.2595	0.4315	0.4902	0.046
Mof_C 	C 	0.1566	0.3892	0.435	0.088
Mof_C 	C 	0.263	0.3577	0.4046	-0.161
Mof_H 	H 	0.2347	0.3243	0.3586	0.082
Mof_C 	C 	0.853	0.4262	0.5291	0.367
Mof_C 	C 	0.3871	0.4099	0.47	-0.274
Mof_H 	H 	0.375	0.4517	0.5008	0.137
Mof_C 	C 	0.3406	0.3568	0.4155	0.252
Mof_C 	C 	0.4606	0.4046	0.4842	0.146
Mof_H 	H 	0.4948	0.4427	0.5246	-0.022
Mof_C 	C 	0.3549	0.3038	0.3664	-0.272
Mof_H 	H 	0.3202	0.2693	0.3246	0.123
Mof_C 	C 	0.0353	0.34	0.3633	0.055
Mof_H 	H 	0.0009	0.3098	0.3201	0.012
Mof_C 	C 	0.8236	0.2137	0.3297	0.441
Mof_C 	C 	0.426	0.2983	0.3768	0.123
Mof_H 	H 	0.4382	0.2612	0.34	-0.007
Mof_C 	C 	0.926	0.501	0.6566	0.069
Mof_H 	H 	0.9662	0.4911	0.6412	0.02
Mof_C 	C 	0.8726	0.5604	0.7539	0.1
Mof_C 	C 	0.8306	0.1419	0.2811	-0.223
Mof_C 	C 	0.8818	0.4452	0.2643	-0.118
Mof_C 	C 	0.8864	0.4	0.3012	0.334
Mof_C 	C 	0.8774	0.6018	0.8298	-0.069
Mof_C 	C 	0.8783	0.5325	0.1929	0.095
Mof_C 	C 	0.8708	0.411	0.1887	0.038
Mof_H 	H 	0.8623	0.3593	0.1618	0.03
Mof_C 	C 	0.8912	0.5237	0.3037	0.053
Mof_H 	H 	0.8986	0.5472	0.3532	0.024
Mof_C 	C 	0.8728	0.4576	0.1547	-0.138
Mof_H 	H 	0.8705	0.4366	0.1061	0.078
Mof_C 	C 	0.7697	0.0804	0.2392	0.129
Mof_H 	H 	0.7243	0.0867	0.2376	0.003
Mof_C 	C 	0.859	0.4729	0.6076	-0.135
Mof_C 	C 	0.9304	0.5438	0.7282	-0.151
Mof_H 	H 	0.9746	0.5624	0.7607	0.091
Mof_C 	C 	0.9134	0.6531	0.1906	0.045
Mof_H 	H 	0.9354	0.676	0.2393	0.012
Mof_C 	C 	0.9266	0.63	0.9518	-0.157
Mof_H 	H 	0.9591	0.6263	0.9852	0.09
Mof_C 	C 	0.8815	0.6741	0.9748	0.139
Mof_C 	C 	0.7988	0.487	0.6311	0.062
Mof_H 	H 	0.7543	0.4669	0.5986	0.027
Mof_C 	C 	0.7794	0.0094	0.2	-0.208
Mof_H 	H 	0.7397	0.9677	0.1765	0.105
Mof_C 	C 	0.0626	0.4263	0.4864	0.086
Mof_H 	H 	0.0474	0.4541	0.5263	-0.008
Mof_C 	C 	0.8447	0.9993	0.195	0.167
Mof_C 	C 	0.8512	0.9211	0.1512	-0.116
Mof_C 	C 	0.8774	0.6644	0.0839	0.159
Mof_C 	C 	0.8212	0.7906	0.1209	-0.193
Mof_H 	H 	0.794	0.751	0.1245	0.1
Mof_C 	C 	0.9239	0.5922	0.8819	0.034
Mof_H 	H 	0.952	0.5598	0.8669	0.019
Mof_C 	C 	0.8054	0.5309	0.7027	-0.143
Mof_H 	H 	0.7654	0.5417	0.7181	0.086
Mof_C 	C 	0.9111	0.8399	0.0771	-0.182
Mof_H 	H 	0.9455	0.8344	0.0514	0.098
Mof_C 	C 	0.8464	0.5477	0.0868	0.061
Mof_H 	H 	0.8261	0.4959	0.0614	0.007
Mof_C 	C 	0.8369	0.6852	0.9254	-0.16
Mof_H 	H 	0.8101	0.7189	0.9412	0.088
Mof_C 	C 	0.8682	0.7775	0.0817	0.165
Mof_C 	C 	0.9009	0.059	0.2316	-0.23
Mof_H 	H 	0.9463	0.0537	0.2296	0.112
Mof_C 	C 	0.9165	0.6954	0.1543	-0.17
Mof_H 	H 	0.945	0.7449	0.1776	0.094
Mof_C 	C 	0.8331	0.6473	0.8557	0.04
Mof_H 	H 	0.7998	0.6513	0.8232	0.014
Mof_C 	C 	0.8783	0.5786	0.155	-0.086
Mof_C 	C 	0.8892	0.5637	0.2675	-0.144
Mof_H 	H 	0.8954	0.6151	0.2938	0.08
Mof_C 	C 	0.8111	0.8624	0.1571	0.061
Mof_H 	H 	0.7781	0.87	0.1844	0.01
Mof_C 	C 	0.842	0.5888	0.052	-0.186
Mof_H 	H 	0.8143	0.5653	0.0051	0.099
Mof_C 	C 	0.8926	0.1304	0.2734	0.161
Mof_H 	H 	0.933	0.1714	0.2968	-0.01
Mof_C 	C 	0.8974	0.9076	0.1133	0.075
Mof_H 	H 	0.924	0.948	0.1103	0.004
Mof_N 	N 	0.4775	0.3469	0.4403	-0.27
Mof_N 	N 	0.0144	0.3825	0.4222	-0.253
Mof_N 	N 	0.8836	0.709	0.0508	-0.186
Mof_O 	O 	0.7622	0.222	0.3303	-0.498
Mof_O 	O 	0.8809	0.2645	0.3701	-0.529
Mof_O 	O 	0.9089	0.4166	0.5117	-0.491
Mof_O 	O 	0.8851	0.4313	0.3662	-0.464
Mof_O 	O 	0.7895	0.4012	0.4868	-0.5
Mof_O 	O 	0.8933	0.3353	0.2695	-0.315
Mof_Zn	Zn	0.90931	0.37072	0.40987	1.219
Mof_Zn	Zn	0.73785	0.29748	0.41203	1.212
Mof_C 	C 	0.5882	0.2016	0.3764	0.375
Mof_C 	C 	0.5509	0.0768	0.272	0.156
Mof_H 	H 	0.5169	0.0923	0.2517	-0.01
Mof_C 	C 	0.6542	0.3812	0.3623	0.46
Mof_C 	C 	0.6514	0.4244	0.324	-0.203
Mof_C 	C 	0.6559	0.0335	0.3247	-0.24
Mof_H 	H 	0.6919	0.0191	0.3438	0.114
Mof_C 	C 	0.6468	0.512	0.2528	0.154
Mof_C 	C 	0.5983	0.1261	0.3368	-0.225
Mof_C 	C 	0.6275	0.6464	0.0317	0.131
Mof_C 	C 	0.6458	0.5565	0.2158	-0.112
Mof_C 	C 	0.6312	0.7584	0.1432	0.155
Mof_C 	C 	0.6503	0.1045	0.3619	0.172
Mof_H 	H 	0.6832	0.1382	0.4053	-0.042
Mof_C 	C 	0.6104	0.9842	0.2613	0.166
Mof_C 	C 	0.6037	0.4304	0.6619	-0.16
Mof_C 	C 	0.6169	0.9029	0.2174	-0.101
Mof_C 	C 	0.6591	0.678	0.9954	-0.156
Mof_H 	H 	0.6846	0.7286	0.0201	0.085
Mof_C 	C 	0.6559	0.8013	0.2178	-0.177
Mof_H 	H 	0.6783	0.781	0.2431	0.095
Mof_C 	C 	0.6159	0.5079	0.6948	0.089
Mof_H 	H 	0.6215	0.5328	0.6678	0.013
Mof_C 	C 	0.655	0.6383	0.9241	0.031
Mof_H 	H 	0.677	0.6619	0.9009	0.015
Mof_C 	C 	0.6983	0.476	0.2521	-0.202
Mof_H 	H 	0.7318	0.4788	0.2265	0.107
Mof_C 	C 	0.5936	0.4983	0.2851	-0.202
Mof_H 	H 	0.5558	0.5186	0.2822	0.105
Mof_C 	C 	0.5542	0.0048	0.2379	-0.224
Mof_H 	H 	0.5178	0.969	0.1982	0.11
Mof_C 	C 	0.6167	0.5605	0.8853	-0.066
Mof_C 	C 	0.6132	0.5163	0.8091	0.115
Mof_C 	C 	0.6001	0.7942	0.1095	-0.173
Mof_H 	H 	0.5852	0.7695	0.0598	0.093
Mof_C 	C 	0.5845	0.525	0.9217	0.016
Mof_H 	H 	0.5603	0.4741	0.8974	0.022
Mof_C 	C 	0.5904	0.8646	0.1464	0.056
Mof_H 	H 	0.5659	0.8847	0.1224	0.008
Mof_C 	C 	0.6389	0.6435	0.1452	0.173
Mof_C 	C 	0.6487	0.8708	0.2547	0.06
Mof_H 	H 	0.6648	0.8969	0.3043	0.007
Mof_C 	C 	0.6199	0.5481	0.766	-0.176
Mof_H 	H 	0.6276	0.5998	0.7858	0.09
Mof_C 	C 	0.7012	0.4346	0.29	0.129
Mof_H 	H 	0.7387	0.4137	0.2915	0.005
Mof_C 	C 	0.5948	0.3952	0.7049	0.083
Mof_H 	H 	0.5846	0.3433	0.6851	0.015
Mof_C 	C 	0.5898	0.5687	0.9958	-0.136
Mof_H 	H 	0.5688	0.5466	0.0206	0.082
Mof_C 	C 	0.5979	0.3855	0.5871	0.366
Mof_C 	C 	0.5872	0.6312	0.177	-0.199
Mof_H 	H 	0.5493	0.6514	0.1748	0.102
Mof_C 	C 	0.6948	0.5686	0.1836	0.072
Mof_H 	H 	0.7312	0.5458	0.183	0.005
Mof_C 	C 	0.5928	0.4577	0.3202	0.121
Mof_H 	H 	0.5561	0.451	0.3414	-0.002
Mof_C 	C 	0.6951	0.6145	0.1498	-0.192
Mof_H 	H 	0.7329	0.6246	0.1311	0.102
Mof_C 	C 	0.5894	0.5898	0.2121	0.071
Mof_H 	H 	0.5534	0.5831	0.234	0.005
Mof_C 	C 	0.6015	0.4388	0.7763	-0.166
Mof_H 	H 	0.598	0.4152	0.8045	0.086
Mof_N 	N 	0.6339	0.6849	0.1077	-0.186
Mof_O 	O 	0.6465	0.2562	0.4267	-0.561
Mof_O 	O 	0.6946	0.3391	0.3496	-0.468
Mof_O 	O 	0.6176	0.419	0.5525	-0.435
Mof_O 	O 	0.533	0.2158	0.3679	-0.415
Mof_O 	O 	0.5698	0.3184	0.5543	-0.374
Mof_O 	O 	0.6162	0.3888	0.4042	-0.504
Mof_Zn	Zn	0.5772	0.33341	0.45233	1.226
Mof_C 	C 	0.8894	0.6601	0.6349	-0.124
Mof_H 	H 	0.8741	0.6887	0.6744	0.074
Mof_C 	C 	0.8673	0.57	0.5068	-0.156
Mof_H 	H 	0.835	0.5395	0.4623	0.095
Mof_C 	C 	0.769	0.6055	0.5545	-0.024
Mof_H 	H 	0.7405	0.5685	0.5098	0.047
Mof_C 	C 	0.8434	0.6108	0.565	0.089
Mof_C 	C 	0.737	0.6423	0.5954	-0.16
Mof_H 	H 	0.7653	0.6757	0.6414	0.083
Mof_C 	C 	0.147	0.5738	0.4709	0.368
Mof_C 	C 	0.6129	0.5901	0.53	-0.273
Mof_H 	H 	0.625	0.5483	0.4992	0.138
Mof_C 	C 	0.6594	0.6432	0.5845	0.252
Mof_C 	C 	0.5394	0.5954	0.5158	0.146
Mof_H 	H 	0.5052	0.5573	0.4754	-0.022
Mof_C 	C 	0.6451	0.6962	0.6336	-0.272
Mof_H 	H 	0.6798	0.7307	0.6754	0.123
Mof_C 	C 	0.9647	0.66	0.6367	0.055
Mof_H 	H 	0.9991	0.6902	0.6799	0.012
Mof_C 	C 	0.1764	0.7863	0.6703	0.441
Mof_C 	C 	0.574	0.7017	0.6232	0.123
Mof_H 	H 	0.5618	0.7388	0.66	-0.007
Mof_C 	C 	0.074	0.499	0.3434	0.069
Mof_H 	H 	0.0338	0.5089	0.3588	0.02
Mof_C 	C 	0.1274	0.4396	0.2461	0.1
Mof_C 	C 	0.1694	0.8581	0.7189	-0.223
Mof_C 	C 	0.1182	0.5548	0.7357	-0.118
Mof_C 	C 	0.1136	0.6	0.6988	0.334
Mof_C 	C 	0.1226	0.3982	0.1702	-0.069
Mof_C 	C 	0.1217	0.4675	0.8071	0.095
Mof_C 	C 	0.1292	0.589	0.8113	0.038
Mof_H 	H 	0.1377	0.6407	0.8382	0.03
Mof_C 	C 	0.1088	0.4763	0.6963	0.053
Mof_H 	H 	0.1014	0.4528	0.6468	0.024
Mof_C 	C 	0.1272	0.5424	0.8453	-0.138
Mof_H 	H 	0.1295	0.5634	0.8939	0.078
Mof_C 	C 	0.2303	0.9196	0.7608	0.129
Mof_H 	H 	0.2757	0.9133	0.7624	0.003
Mof_C 	C 	0.141	0.5271	0.3924	-0.135
Mof_C 	C 	0.0696	0.4562	0.2718	-0.151
Mof_H 	H 	0.0254	0.4376	0.2393	0.091
Mof_C 	C 	0.0866	0.3469	0.8094	0.045
Mof_H 	H 	0.0646	0.324	0.7607	0.012
Mof_C 	C 	0.0734	0.37	0.0482	-0.157
Mof_H 	H 	0.0409	0.3737	0.0148	0.09
Mof_C 	C 	0.1185	0.3259	0.0252	0.139
Mof_C 	C 	0.2012	0.513	0.3689	0.062
Mof_H 	H 	0.2457	0.5331	0.4014	0.027
Mof_C 	C 	0.2206	0.9906	0.8	-0.208
Mof_H 	H 	0.2603	0.0323	0.8235	0.105
Mof_C 	C 	0.9374	0.5737	0.5136	0.086
Mof_H 	H 	0.9526	0.5459	0.4737	-0.008
Mof_C 	C 	0.1553	0.0007	0.805	0.167
Mof_C 	C 	0.1488	0.0789	0.8488	-0.116
Mof_C 	C 	0.1226	0.3356	0.9161	0.159
Mof_C 	C 	0.1788	0.2094	0.8791	-0.193
Mof_H 	H 	0.206	0.249	0.8755	0.1
Mof_C 	C 	0.0761	0.4078	0.1181	0.034
Mof_H 	H 	0.048	0.4402	0.1331	0.019
Mof_C 	C 	0.1946	0.4691	0.2973	-0.143
Mof_H 	H 	0.2346	0.4583	0.2819	0.086
Mof_C 	C 	0.0889	0.1601	0.9229	-0.182
Mof_H 	H 	0.0545	0.1656	0.9486	0.098
Mof_C 	C 	0.1536	0.4523	0.9132	0.061
Mof_H 	H 	0.1739	0.5041	0.9386	0.007
Mof_C 	C 	0.1631	0.3148	0.0746	-0.16
Mof_H 	H 	0.1899	0.2811	0.0588	0.088
Mof_C 	C 	0.1318	0.2225	0.9183	0.165
Mof_C 	C 	0.0991	0.941	0.7684	-0.23
Mof_H 	H 	0.0537	0.9463	0.7704	0.112
Mof_C 	C 	0.0835	0.3046	0.8457	-0.17
Mof_H 	H 	0.055	0.2551	0.8224	0.094
Mof_C 	C 	0.1669	0.3527	0.1443	0.04
Mof_H 	H 	0.2002	0.3487	0.1768	0.014
Mof_C 	C 	0.1217	0.4214	0.845	-0.086
Mof_C 	C 	0.1108	0.4363	0.7325	-0.144
Mof_H 	H 	0.1046	0.3849	0.7062	0.08
Mof_C 	C 	0.1889	0.1376	0.8429	0.061
Mof_H 	H 	0.2219	0.13	0.8156	0.01
Mof_C 	C 	0.158	0.4112	0.948	-0.186
Mof_H 	H 	0.1857	0.4347	0.9949	0.099
Mof_C 	C 	0.1074	0.8696	0.7266	0.161
Mof_H 	H 	0.067	0.8286	0.7032	-0.01
Mof_C 	C 	0.1026	0.0924	0.8867	0.075
Mof_H 	H 	0.076	0.052	0.8897	0.004
Mof_N 	N 	0.5225	0.6531	0.5597	-0.27
Mof_N 	N 	0.9856	0.6175	0.5778	-0.253
Mof_N 	N 	0.1164	0.291	0.9492	-0.186
Mof_O 	O 	0.2378	0.778	0.6697	-0.498
Mof_O 	O 	0.1191	0.7355	0.6299	-0.529
Mof_O 	O 	0.0911	0.5834	0.4883	-0.491
Mof_O 	O 	0.1149	0.5687	0.6338	-0.464
Mof_O 	O 	0.2105	0.5988	0.5132	-0.5
Mof_O 	O 	0.1067	0.6647	0.7305	-0.315
Mof_Zn	Zn	0.09069	0.62928	0.59013	1.219
Mof_Zn	Zn	0.26215	0.70252	0.58797	1.212
Mof_C 	C 	0.4118	0.7984	0.6236	0.375
Mof_C 	C 	0.4491	0.9232	0.728	0.156
Mof_H 	H 	0.4831	0.9077	0.7483	-0.01
Mof_C 	C 	0.3458	0.6188	0.6377	0.46
Mof_C 	C 	0.3486	0.5756	0.676	-0.203
Mof_C 	C 	0.3441	0.9665	0.6753	-0.24
Mof_H 	H 	0.3081	0.9809	0.6562	0.114
Mof_C 	C 	0.3532	0.488	0.7472	0.154
Mof_C 	C 	0.4017	0.8739	0.6632	-0.225
Mof_C 	C 	0.3725	0.3536	0.9683	0.131
Mof_C 	C 	0.3542	0.4435	0.7842	-0.112
Mof_C 	C 	0.3688	0.2416	0.8568	0.155
Mof_C 	C 	0.3497	0.8955	0.6381	0.172
Mof_H 	H 	0.3168	0.8618	0.5947	-0.042
Mof_C 	C 	0.3896	0.0158	0.7387	0.166
Mof_C 	C 	0.3963	0.5696	0.3381	-0.16
Mof_C 	C 	0.3831	0.0971	0.7826	-0.101
Mof_C 	C 	0.3409	0.322	0.0046	-0.156
Mof_H 	H 	0.3154	0.2714	0.9799	0.085
Mof_C 	C 	0.3441	0.1987	0.7822	-0.177
Mof_H 	H 	0.3217	0.219	0.7569	0.095
Mof_C 	C 	0.3841	0.4921	0.3052	0.089
Mof_H 	H 	0.3785	0.4672	0.3322	0.013
Mof_C 	C 	0.345	0.3617	0.0759	0.031
Mof_H 	H 	0.323	0.3381	0.0991	0.015
Mof_C 	C 	0.3017	0.524	0.7479	-0.202
Mof_H 	H 	0.2682	0.5212	0.7735	0.107
Mof_C 	C 	0.4064	0.5017	0.7149	-0.202
Mof_H 	H 	0.4442	0.4814	0.7178	0.105
Mof_C 	C 	0.4458	0.9952	0.7621	-0.224
Mof_H 	H 	0.4822	0.031	0.8018	0.11
Mof_C 	C 	0.3833	0.4395	0.1147	-0.066
Mof_C 	C 	0.3868	0.4837	0.1909	0.115
Mof_C 	C 	0.3999	0.2058	0.8905	-0.173
Mof_H 	H 	0.4148	0.2305	0.9402	0.093
Mof_C 	C 	0.4155	0.475	0.0783	0.016
Mof_H 	H 	0.4397	0.5259	0.1026	0.022
Mof_C 	C 	0.4096	0.1354	0.8536	0.056
Mof_H 	H 	0.4341	0.1153	0.8776	0.008
Mof_C 	C 	0.3611	0.3565	0.8548	0.173
Mof_C 	C 	0.3513	0.1292	0.7453	0.06
Mof_H 	H 	0.3352	0.1031	0.6957	0.007
Mof_C 	C 	0.3801	0.4519	0.234	-0.176
Mof_H 	H 	0.3724	0.4002	0.2142	0.09
Mof_C 	C 	0.2988	0.5654	0.71	0.129
Mof_H 	H 	0.2613	0.5863	0.7085	0.005
Mof_C 	C 	0.4052	0.6048	0.2951	0.083
Mof_H 	H 	0.4154	0.6567	0.3149	0.015
Mof_C 	C 	0.4102	0.4313	0.0042	-0.136
Mof_H 	H 	0.4312	0.4534	0.9794	0.082
Mof_C 	C 	0.4021	0.6145	0.4129	0.366
Mof_C 	C 	0.4128	0.3688	0.823	-0.199
Mof_H 	H 	0.4507	0.3486	0.8252	0.102
Mof_C 	C 	0.3052	0.4314	0.8164	0.072
Mof_H 	H 	0.2688	0.4542	0.817	0.005
Mof_C 	C 	0.4072	0.5423	0.6798	0.121
Mof_H 	H 	0.4439	0.549	0.6586	-0.002
Mof_C 	C 	0.3049	0.3855	0.8502	-0.192
Mof_H 	H 	0.2671	0.3754	0.8689	0.102
Mof_C 	C 	0.4106	0.4102	0.7879	0.071
Mof_H 	H 	0.4466	0.4169	0.766	0.005
Mof_C 	C 	0.3985	0.5612	0.2237	-0.166
Mof_H 	H 	0.402	0.5848	0.1955	0.086
Mof_N 	N 	0.3661	0.3151	0.8923	-0.186
Mof_O 	O 	0.3535	0.7438	0.5733	-0.561
Mof_O 	O 	0.3054	0.6609	0.6504	-0.468
Mof_O 	O 	0.3824	0.581	0.4475	-0.435
Mof_O 	O 	0.467	0.7842	0.6321	-0.415
Mof_O 	O 	0.4302	0.6816	0.4457	-0.374
Mof_O 	O 	0.3838	0.6112	0.5958	-0.504
Mof_Zn	Zn	0.4228	0.66659	0.54767	1.226
_end
