data_functionalizedCrystal
_audit_creation_method	'EQeq! by Chris Wilmer'
_symmetry_space_group_name_H-M	'P1'
_symmetry_Int_Tables_number	1
_symmetry_cell_setting	triclinic
loop_
_symmetry_equiv_pos_as_xyz
  x,y,z
_cell_length_a	8.8839
_cell_length_b	33.6507
_cell_length_c	8.8737
_cell_angle_alpha	90
_cell_angle_beta	108.061
_cell_angle_gamma	90
loop_
_atom_site_label
_atom_site_type_symbol
_atom_site_fract_x
_atom_site_fract_y
_atom_site_fract_z
_atom_site_charge
Mof_Cu	Cu	0.7413	0.2044	0.50962	0.949
Mof_Cu	Cu	0.74332	0.04543	0.50405	0.948
Mof_O 	O 	0.87963	0.15559	0.63219	-0.265
Mof_O 	O 	0.85803	0.09038	0.63416	-0.288
Mof_O 	O 	0.6133	0.15974	0.38692	-0.292
Mof_O 	O 	0.6159	0.09448	0.363	-0.265
Mof_O 	O 	0.61354	0.20848	0.67168	-0.264
Mof_O 	O 	0.5952	0.24936	0.8592	-0.248
Mof_O 	O 	0.8685	0.24638	0.6519	-0.294
Mof_O 	O 	0.8596	0.28712	0.8446	-0.275
Mof_O 	O 	0.9099	0.04002	0.38242	-0.272
Mof_O 	O 	0.0908	0.99851	0.3526	-0.258
Mof_O 	O 	0.5788	0.03951	0.62526	-0.276
Mof_O 	O 	0.3838	0.99843	0.6252	-0.291
Mof_C 	C 	0.8156	0.12405	0.5788	0.236
Mof_C 	C 	0.6674	0.12612	0.4284	0.238
Mof_C 	C 	0.8102	0.25913	0.7522	0.252
Mof_C 	C 	0.66	0.23736	0.7636	0.22
Mof_C 	C 	0.0014	0.01091	0.4235	0.235
Mof_C 	C 	0.4894	0.01116	0.5722	0.23
Mof_Cu	Cu	0.2587	0.7044	0.99038	0.942
Mof_Cu	Cu	0.25668	0.54543	0.99595	0.945
Mof_O 	O 	0.12037	0.65559	0.86781	-0.269
Mof_O 	O 	0.14197	0.59038	0.86584	-0.29
Mof_O 	O 	0.3867	0.65974	0.11308	-0.289
Mof_O 	O 	0.3841	0.59448	0.137	-0.265
Mof_O 	O 	0.38646	0.70848	0.82832	-0.269
Mof_O 	O 	0.4048	0.74936	0.6408	-0.255
Mof_O 	O 	0.1315	0.74638	0.8481	-0.301
Mof_O 	O 	0.1404	0.78712	0.6554	-0.284
Mof_O 	O 	0.0901	0.54002	0.11758	-0.264
Mof_O 	O 	0.9092	0.49851	0.1474	-0.258
Mof_O 	O 	0.4212	0.53951	0.87474	-0.277
Mof_O 	O 	0.6162	0.49843	0.8748	-0.289
Mof_C 	C 	0.1844	0.62405	0.9212	0.226
Mof_C 	C 	0.3326	0.62612	0.0716	0.249
Mof_C 	C 	0.1898	0.75913	0.7478	0.252
Mof_C 	C 	0.34	0.73736	0.7364	0.219
Mof_C 	C 	0.9986	0.51091	0.0765	0.231
Mof_C 	C 	0.5106	0.51116	0.9278	0.231
Mof_Cu	Cu	0.2587	0.7956	0.49038	0.948
Mof_Cu	Cu	0.25668	0.95457	0.49595	0.947
Mof_O 	O 	0.12037	0.84441	0.36781	-0.266
Mof_O 	O 	0.14197	0.90962	0.36584	-0.289
Mof_O 	O 	0.3867	0.84026	0.61308	-0.293
Mof_O 	O 	0.3841	0.90552	0.637	-0.266
Mof_O 	O 	0.38646	0.79152	0.32832	-0.265
Mof_O 	O 	0.4048	0.75064	0.1408	-0.249
Mof_O 	O 	0.1315	0.75362	0.3481	-0.295
Mof_O 	O 	0.1404	0.71288	0.1554	-0.276
Mof_O 	O 	0.0901	0.95998	0.61758	-0.272
Mof_O 	O 	0.9092	0.00149	0.6474	-0.258
Mof_O 	O 	0.4212	0.96049	0.37474	-0.276
Mof_O 	O 	0.6162	0.00157	0.3748	-0.291
Mof_C 	C 	0.1844	0.87595	0.4212	0.236
Mof_C 	C 	0.3326	0.87388	0.5716	0.238
Mof_C 	C 	0.1898	0.74087	0.2478	0.252
Mof_C 	C 	0.34	0.76264	0.2364	0.22
Mof_C 	C 	0.9986	0.98909	0.5765	0.235
Mof_C 	C 	0.5106	0.98884	0.4278	0.23
Mof_Cu	Cu	0.7413	0.2956	0.00962	0.942
Mof_Cu	Cu	0.74332	0.45457	0.00405	0.945
Mof_O 	O 	0.87963	0.34441	0.13219	-0.269
Mof_O 	O 	0.85803	0.40962	0.13416	-0.29
Mof_O 	O 	0.6133	0.34026	0.88692	-0.289
Mof_O 	O 	0.6159	0.40552	0.863	-0.265
Mof_O 	O 	0.61354	0.29152	0.17168	-0.269
Mof_O 	O 	0.5952	0.25064	0.3592	-0.255
Mof_O 	O 	0.8685	0.25362	0.1519	-0.301
Mof_O 	O 	0.8596	0.21288	0.3446	-0.284
Mof_O 	O 	0.9099	0.45998	0.88242	-0.264
Mof_O 	O 	0.0908	0.50149	0.8526	-0.258
Mof_O 	O 	0.5788	0.46049	0.12526	-0.277
Mof_O 	O 	0.3838	0.50157	0.1252	-0.289
Mof_C 	C 	0.8156	0.37595	0.0788	0.226
Mof_C 	C 	0.6674	0.37388	0.9284	0.249
Mof_C 	C 	0.8102	0.24087	0.2522	0.252
Mof_C 	C 	0.66	0.26264	0.2636	0.219
Mof_C 	C 	0.0014	0.48909	0.9235	0.231
Mof_C 	C 	0.4894	0.48884	0.0722	0.231
_end
