data_functionalizedCrystal
_audit_creation_method	'EQeq! by Chris Wilmer'
_symmetry_space_group_name_H-M	'P1'
_symmetry_Int_Tables_number	1
_symmetry_cell_setting	triclinic
loop_
_symmetry_equiv_pos_as_xyz
  x,y,z
_cell_length_a	12.795
_cell_length_b	13.032
_cell_length_c	20.864
_cell_angle_alpha	81.911
_cell_angle_beta	84.45
_cell_angle_gamma	70.545
loop_
_atom_site_label
_atom_site_type_symbol
_atom_site_fract_x
_atom_site_fract_y
_atom_site_fract_z
_atom_site_charge
Mof_Ag	Ag	0.9186	0.4329	0.30638	0.766
Mof_Ag	Ag	0.14855	0.32809	0.26204	0.627
Mof_Ag	Ag	0.80187	0.66095	0.26477	0.494
Mof_Ag	Ag	0.20669	0.52654	0.25698	0.64
Mof_Ag	Ag	0.11927	0.47778	0.13943	0.538
Mof_Ag	Ag	0.90926	0.65626	0.13812	0.538
Mof_Ag	Ag	0.99069	0.73702	0.24355	0.503
Mof_Ag	Ag	0.79101	0.97325	0.74098	0.812
Mof_Ag	Ag	0.59591	0.90004	0.72715	0.625
Mof_Ag	Ag	0.75074	0.21903	0.72844	0.48
Mof_Ag	Ag	0.43489	0.09629	0.74351	0.562
Mof_Ag	Ag	0.58107	0.03437	0.60031	0.615
Mof_Ag	Ag	0.69515	0.19372	0.60157	0.691
Mof_Ag	Ag	0.51216	0.29144	0.7113	0.697
Mof_Ag	Ag	0.26324	0.37908	0.99446	1.082
Mof_Ag	Ag	0.81637	0.31569	0.45734	1.249
Mof_C 	C 	0.0516	0.4979	0.2422	-0.358
Mof_C 	C 	0.9708	0.5764	0.2339	-0.321
Mof_C 	C 	0.6475	0.134	0.6997	-0.353
Mof_C 	C 	0.6028	0.0675	0.6987	-0.361
Mof_O 	O 	0.8747	0.3028	0.6656	-0.336
Mof_O 	O 	0.8248	0.2872	0.5688	-0.334
Mof_O 	O 	0.9591	0.6715	0.0318	-0.276
Mof_O 	O 	0.1068	0.5246	0.0306	-0.374
Mof_O 	O 	0.2259	0.1919	0.1937	-0.378
Mof_O 	O 	0.2354	0.3062	0.1072	-0.341
Mof_O 	O 	0.316	0.2431	0.3292	-0.294
Mof_O 	O 	0.364	0.1478	0.4257	-0.195
Mof_O 	O 	0.5011	0.8536	0.8159	-0.195
Mof_O 	O 	0.3623	0.0082	0.8279	-0.221
Mof_O 	O 	0.7764	0.4827	0.3896	-0.332
Mof_O 	O 	0.3323	0.3597	0.6591	-0.332
Mof_O 	O 	0.4578	0.4599	0.7425	-0.208
Mof_O 	O 	0.6369	0.4482	0.7279	-0.293
Mof_O 	O 	0.9593	0.2745	0.3769	-0.341
Mof_O 	O 	0.1136	0.1775	0.3244	-0.335
Mof_O 	O 	0.3539	0.269	0.7993	-0.375
Mof_O 	O 	0.2741	0.3329	0.8905	-0.341
Mof_O 	O 	0.9171	0.9091	0.2597	-0.249
Mof_O 	O 	0.0717	0.9533	0.2485	-0.302
Mof_O 	O 	0.6154	0.0869	0.4895	-0.218
Mof_O 	O 	0.6923	0.216	0.4934	-0.317
Mof_C 	C 	0.8832	0.3078	0.606	0.223
Mof_C 	C 	0.9801	0.3398	0.5745	0.792
Mof_F 	F 	0.0671	0.2519	0.565	-0.422
Mof_F 	F 	0.9623	0.3973	0.5164	-0.419
Mof_F 	F 	0.0174	0.3988	0.6078	-0.481
Mof_C 	C 	0.0419	0.6104	0.0107	0.198
Mof_C 	C 	0.0718	0.6428	0.9416	0.787
Mof_F 	F 	0.9959	0.7224	0.9089	-0.419
Mof_F 	F 	0.0995	0.5673	0.9011	-0.528
Mof_F 	F 	0.1581	0.6781	0.9322	-0.374
Mof_C 	C 	0.2441	0.2189	0.1365	0.255
Mof_C 	C 	0.2812	0.1244	0.097	0.767
Mof_F 	F 	0.2016	0.0948	0.077	-0.391
Mof_F 	F 	0.3461	0.0305	0.1251	-0.446
Mof_F 	F 	0.338	0.1414	0.0425	-0.406
Mof_C 	C 	0.3221	0.2305	0.3886	0.177
Mof_C 	C 	0.254	0.33	0.4201	0.817
Mof_F 	F 	0.2629	0.3219	0.4836	-0.385
Mof_F 	F 	0.1455	0.3624	0.4122	-0.458
Mof_F 	F 	0.2822	0.4183	0.3979	-0.435
Mof_C 	C 	0.4197	0.9142	0.8398	0.199
Mof_C 	C 	0.3839	0.8625	0.9031	0.817
Mof_F 	F 	0.2937	0.836	0.9001	-0.337
Mof_F 	F 	0.45	0.7696	0.932	-0.368
Mof_F 	F 	0.357	0.9227	0.952	-0.345
Mof_C 	C 	0.6902	0.5593	0.3839	0.214
Mof_C 	C 	0.5965	0.5609	0.4334	0.795
Mof_F 	F 	0.5423	0.6603	0.4501	-0.477
Mof_F 	F 	0.5211	0.5281	0.4104	-0.449
Mof_F 	F 	0.6275	0.497	0.4882	-0.431
Mof_C 	C 	0.5406	0.4895	0.7468	0.171
Mof_C 	C 	0.5113	0.5902	0.7809	0.814
Mof_F 	F 	0.5947	0.625	0.7886	-0.517
Mof_F 	F 	0.4353	0.6772	0.7532	-0.369
Mof_F 	F 	0.4673	0.5786	0.8407	-0.395
Mof_C 	C 	0.0361	0.1928	0.3683	0.229
Mof_C 	C 	0.0506	0.0926	0.416	0.789
Mof_F 	F 	0.1338	0.0728	0.4543	-0.453
Mof_F 	F 	0.0709	0.9976	0.3933	-0.492
Mof_F 	F 	0.9639	0.0997	0.4573	-0.441
Mof_C 	C 	0.3513	0.2873	0.8539	0.223
Mof_C 	C 	0.4592	0.2517	0.8861	0.755
Mof_F 	F 	0.5501	0.212	0.8493	-0.482
Mof_F 	F 	0.4729	0.173	0.9354	-0.355
Mof_F 	F 	0.4854	0.3261	0.9125	-0.426
Mof_C 	C 	0.9743	0.971	0.2509	0.195
Mof_C 	C 	0.9042	0.0852	0.2284	0.802
Mof_F 	F 	0.9275	0.1531	0.2619	-0.45
Mof_F 	F 	0.7945	0.1162	0.2357	-0.367
Mof_F 	F 	0.921	0.123	0.1674	-0.366
Mof_C 	C 	0.6528	0.1588	0.4673	0.211
Mof_C 	C 	0.6318	0.1995	0.3974	0.813
Mof_F 	F 	0.5349	0.2793	0.3898	-0.399
Mof_F 	F 	0.7074	0.2397	0.366	-0.449
Mof_F 	F 	0.6254	0.1226	0.3638	-0.45
Mof_Ag	Ag	0.0814	0.5671	0.69362	0.766
Mof_Ag	Ag	0.85145	0.67191	0.73796	0.627
Mof_Ag	Ag	0.19813	0.33905	0.73523	0.494
Mof_Ag	Ag	0.79331	0.47346	0.74302	0.64
Mof_Ag	Ag	0.88073	0.52222	0.86057	0.538
Mof_Ag	Ag	0.09074	0.34374	0.86188	0.538
Mof_Ag	Ag	0.00931	0.26298	0.75645	0.503
Mof_Ag	Ag	0.20899	0.02675	0.25902	0.812
Mof_Ag	Ag	0.40409	0.09996	0.27285	0.625
Mof_Ag	Ag	0.24926	0.78097	0.27156	0.48
Mof_Ag	Ag	0.56511	0.90371	0.25649	0.562
Mof_Ag	Ag	0.41893	0.96563	0.39969	0.615
Mof_Ag	Ag	0.30485	0.80628	0.39843	0.691
Mof_Ag	Ag	0.48784	0.70856	0.2887	0.697
Mof_Ag	Ag	0.73676	0.62092	0.00554	1.082
Mof_Ag	Ag	0.18363	0.68431	0.54266	1.249
Mof_C 	C 	0.9484	0.5021	0.7578	-0.358
Mof_C 	C 	0.0292	0.4236	0.7661	-0.321
Mof_C 	C 	0.3525	0.866	0.3003	-0.353
Mof_C 	C 	0.3972	0.9325	0.3013	-0.361
Mof_O 	O 	0.1253	0.6972	0.3344	-0.336
Mof_O 	O 	0.1752	0.7128	0.4312	-0.334
Mof_O 	O 	0.0409	0.3285	0.9682	-0.276
Mof_O 	O 	0.8932	0.4754	0.9694	-0.374
Mof_O 	O 	0.7741	0.8081	0.8063	-0.378
Mof_O 	O 	0.7646	0.6938	0.8928	-0.341
Mof_O 	O 	0.684	0.7569	0.6708	-0.294
Mof_O 	O 	0.636	0.8522	0.5743	-0.195
Mof_O 	O 	0.4989	0.1464	0.1841	-0.195
Mof_O 	O 	0.6377	0.9918	0.1721	-0.221
Mof_O 	O 	0.2236	0.5173	0.6104	-0.332
Mof_O 	O 	0.6677	0.6403	0.3409	-0.332
Mof_O 	O 	0.5422	0.5401	0.2575	-0.208
Mof_O 	O 	0.3631	0.5518	0.2721	-0.293
Mof_O 	O 	0.0407	0.7255	0.6231	-0.341
Mof_O 	O 	0.8864	0.8225	0.6756	-0.335
Mof_O 	O 	0.6461	0.731	0.2007	-0.375
Mof_O 	O 	0.7259	0.6671	0.1095	-0.341
Mof_O 	O 	0.0829	0.0909	0.7403	-0.249
Mof_O 	O 	0.9283	0.0467	0.7515	-0.302
Mof_O 	O 	0.3846	0.9131	0.5105	-0.218
Mof_O 	O 	0.3077	0.784	0.5066	-0.317
Mof_C 	C 	0.1168	0.6922	0.394	0.223
Mof_C 	C 	0.0199	0.6602	0.4255	0.792
Mof_F 	F 	0.9329	0.7481	0.435	-0.422
Mof_F 	F 	0.0377	0.6027	0.4836	-0.419
Mof_F 	F 	0.9826	0.6012	0.3922	-0.481
Mof_C 	C 	0.9581	0.3896	0.9893	0.198
Mof_C 	C 	0.9282	0.3572	0.0584	0.787
Mof_F 	F 	0.0041	0.2776	0.0911	-0.419
Mof_F 	F 	0.9005	0.4327	0.0989	-0.528
Mof_F 	F 	0.8419	0.3219	0.0678	-0.374
Mof_C 	C 	0.7559	0.7811	0.8635	0.255
Mof_C 	C 	0.7188	0.8756	0.903	0.767
Mof_F 	F 	0.7984	0.9052	0.923	-0.391
Mof_F 	F 	0.6539	0.9695	0.8749	-0.446
Mof_F 	F 	0.662	0.8586	0.9575	-0.406
Mof_C 	C 	0.6779	0.7695	0.6114	0.177
Mof_C 	C 	0.746	0.67	0.5799	0.817
Mof_F 	F 	0.7371	0.6781	0.5164	-0.385
Mof_F 	F 	0.8545	0.6376	0.5878	-0.458
Mof_F 	F 	0.7178	0.5817	0.6021	-0.435
Mof_C 	C 	0.5803	0.0858	0.1602	0.199
Mof_C 	C 	0.6161	0.1375	0.0969	0.817
Mof_F 	F 	0.7063	0.164	0.0999	-0.337
Mof_F 	F 	0.55	0.2304	0.068	-0.368
Mof_F 	F 	0.643	0.0773	0.048	-0.345
Mof_C 	C 	0.3098	0.4407	0.6161	0.214
Mof_C 	C 	0.4035	0.4391	0.5666	0.795
Mof_F 	F 	0.4577	0.3397	0.5499	-0.477
Mof_F 	F 	0.4789	0.4719	0.5896	-0.449
Mof_F 	F 	0.3725	0.503	0.5118	-0.431
Mof_C 	C 	0.4594	0.5105	0.2532	0.171
Mof_C 	C 	0.4887	0.4098	0.2191	0.814
Mof_F 	F 	0.4053	0.375	0.2114	-0.517
Mof_F 	F 	0.5647	0.3228	0.2468	-0.369
Mof_F 	F 	0.5327	0.4214	0.1593	-0.395
Mof_C 	C 	0.9639	0.8072	0.6317	0.229
Mof_C 	C 	0.9494	0.9074	0.584	0.789
Mof_F 	F 	0.8662	0.9272	0.5457	-0.453
Mof_F 	F 	0.9291	0.0024	0.6067	-0.492
Mof_F 	F 	0.0361	0.9003	0.5427	-0.441
Mof_C 	C 	0.6487	0.7127	0.1461	0.223
Mof_C 	C 	0.5408	0.7483	0.1139	0.755
Mof_F 	F 	0.4499	0.788	0.1507	-0.482
Mof_F 	F 	0.5271	0.827	0.0646	-0.355
Mof_F 	F 	0.5146	0.6739	0.0875	-0.426
Mof_C 	C 	0.0257	0.029	0.7491	0.195
Mof_C 	C 	0.0958	0.9148	0.7716	0.802
Mof_F 	F 	0.0725	0.8469	0.7381	-0.45
Mof_F 	F 	0.2055	0.8838	0.7643	-0.367
Mof_F 	F 	0.079	0.877	0.8326	-0.366
Mof_C 	C 	0.3472	0.8412	0.5327	0.211
Mof_C 	C 	0.3682	0.8005	0.6026	0.813
Mof_F 	F 	0.4651	0.7207	0.6102	-0.399
Mof_F 	F 	0.2926	0.7603	0.634	-0.449
Mof_F 	F 	0.3746	0.8774	0.6362	-0.45
_end
