data_functionalizedCrystal
_audit_creation_method	'EQeq! by Chris Wilmer'
_symmetry_space_group_name_H-M	'P1'
_symmetry_Int_Tables_number	1
_symmetry_cell_setting	triclinic
loop_
_symmetry_equiv_pos_as_xyz
  x,y,z
_cell_length_a	8.867
_cell_length_b	8.867
_cell_length_c	21.499
_cell_angle_alpha	90
_cell_angle_beta	90
_cell_angle_gamma	120
loop_
_atom_site_label
_atom_site_type_symbol
_atom_site_fract_x
_atom_site_fract_y
_atom_site_fract_z
_atom_site_charge
Mof_Rb	Rb	-0	1.72444e-32	0.5	1.608
Mof_Rb	Rb	0.66667	0.33333	0.83333	2.187
Mof_Rb	Rb	0.33333	0.66667	0.16667	2.177
Mof_Fe	Fe	0.33333	0.66667	0.66667	0.628
Mof_Fe	Fe	-0	0	-0	0.234
Mof_Fe	Fe	0.66667	0.33333	0.33333	0.628
Mof_C 	C 	0.2293	0.7707	0.615	-0.16
Mof_N 	N 	0.1703	0.8297	0.5854	-0.233
Mof_C 	C 	0.89597	0.10403	0.94833	-0.08
Mof_N 	N 	0.83697	0.16303	0.91873	-0.315
Mof_C 	C 	0.56263	0.43737	0.28167	-0.166
Mof_N 	N 	0.50363	0.49637	0.25207	-0.284
Mof_C 	C 	0.2293	0.4586	0.615	-0.181
Mof_N 	N 	0.1703	0.3406	0.5854	-0.267
Mof_C 	C 	0.89597	0.79193	0.94833	0.01
Mof_N 	N 	0.83697	0.67393	0.91873	-0.312
Mof_C 	C 	0.56263	0.12527	0.28167	-0.185
Mof_N 	N 	0.50363	0.00727	0.25207	-0.315
Mof_C 	C 	0.5414	0.7707	0.615	-0.141
Mof_N 	N 	0.6594	0.8297	0.5854	-0.203
Mof_C 	C 	0.20807	0.10403	0.94833	-0.171
Mof_N 	N 	0.32607	0.16303	0.91873	-0.316
Mof_C 	C 	0.87473	0.43737	0.28167	-0.146
Mof_N 	N 	0.99273	0.49637	0.25207	-0.25
Mof_C 	C 	0.7707	0.2293	0.385	-0.16
Mof_N 	N 	0.8297	0.1703	0.4146	-0.233
Mof_C 	C 	0.43737	0.56263	0.71833	-0.166
Mof_N 	N 	0.49637	0.50363	0.74793	-0.284
Mof_C 	C 	0.10403	0.89597	0.05167	-0.09
Mof_N 	N 	0.16303	0.83697	0.08127	-0.314
Mof_C 	C 	0.4586	0.2293	0.385	-0.181
Mof_N 	N 	0.3406	0.1703	0.4146	-0.267
Mof_C 	C 	0.12527	0.56263	0.71833	-0.184
Mof_N 	N 	0.00727	0.50363	0.74793	-0.315
Mof_C 	C 	0.79193	0.89597	0.05167	-0.003
Mof_N 	N 	0.67393	0.83697	0.08127	-0.312
Mof_C 	C 	0.7707	0.5414	0.385	-0.141
Mof_N 	N 	0.8297	0.6594	0.4146	-0.203
Mof_C 	C 	0.43737	0.87473	0.71833	-0.145
Mof_N 	N 	0.49637	0.99273	0.74793	-0.249
Mof_C 	C 	0.10403	0.20807	0.05167	-0.184
Mof_N 	N 	0.16303	0.32607	0.08127	-0.316
_end
