data_functionalizedCrystal
_audit_creation_method	'EQeq! by Chris Wilmer'
_symmetry_space_group_name_H-M	'P1'
_symmetry_Int_Tables_number	1
_symmetry_cell_setting	triclinic
loop_
_symmetry_equiv_pos_as_xyz
  x,y,z
_cell_length_a	30.057
_cell_length_b	16.187
_cell_length_c	21.894
_cell_angle_alpha	90
_cell_angle_beta	114.478
_cell_angle_gamma	90
loop_
_atom_site_label
_atom_site_type_symbol
_atom_site_fract_x
_atom_site_fract_y
_atom_site_fract_z
_atom_site_charge
Mof_Zn	Zn	0.70158	0.54852	0.47437	1.199
Mof_O 	O 	0.8512	0.0925	0.00273	-0.557
Mof_O 	O 	0.80627	0.1988	0.9835	-0.526
Mof_O 	O 	0.18156	0.0763	0.37863	-0.491
Mof_O 	O 	0.23874	0.17035	0.41953	-0.462
Mof_O 	O 	0.76653	0.53668	0.54644	-0.514
Mof_O 	O 	0.79696	0.66605	0.56158	-0.458
Mof_N 	N 	0.99709	0.36424	0.97809	-0.156
Mof_C 	C 	0.84463	0.1675	0.99102	0.543
Mof_C 	C 	0.88368	0.21879	0.98488	-0.255
Mof_C 	C 	0.92691	0.18349	0.99048	0.186
Mof_H 	H 	0.9311	0.1267	0.9963	-0.015
Mof_C 	C 	0.9639	0.23101	0.98756	-0.261
Mof_H 	H 	0.9928	0.2062	0.9913	0.13
Mof_C 	C 	0.95827	0.31554	0.9791	0.223
Mof_C 	C 	0.91495	0.35175	0.97285	-0.256
Mof_H 	H 	0.9108	0.4086	0.967	0.131
Mof_C 	C 	0.87786	0.30366	0.97522	0.18
Mof_H 	H 	0.8486	0.3283	0.9703	-0.01
Mof_C 	C 	0.04619	0.36007	0.02401	0.084
Mof_C 	C 	0.06695	0.31479	0.08354	-0.138
Mof_H 	H 	0.0476	0.2818	0.0976	0.072
Mof_C 	C 	0.11695	0.32004	0.12113	0.037
Mof_C 	C 	0.14536	0.37267	0.09991	-0.096
Mof_H 	H 	0.1789	0.3763	0.1256	0.053
Mof_C 	C 	0.12424	0.41886	0.0417	-0.007
Mof_H 	H 	0.1434	0.4535	0.0285	0.02
Mof_C 	C 	0.07421	0.41301	0.00306	-0.073
Mof_C 	C 	0.04083	0.45131	0.94146	0.035
Mof_C 	C 	0.04661	0.50795	0.89724	-0.063
Mof_H 	H 	0.0772	0.5298	0.9057	0.067
Mof_C 	C 	0.00596	0.53107	0.84067	-0.044
Mof_H 	H 	0.0095	0.5699	0.8117	0.047
Mof_C 	C 	0.95959	0.49767	0.82565	0.016
Mof_C 	C 	0.95318	0.44227	0.8697	-0.115
Mof_H 	H 	0.9225	0.4205	0.861	0.074
Mof_C 	C 	0.99381	0.42024	0.92719	0.081
Mof_C 	C 	0.1403	0.27133	0.18449	0.046
Mof_C 	C 	0.11941	0.19857	0.19353	-0.122
Mof_H 	H 	0.0912	0.1786	0.1589	0.064
Mof_C 	C 	0.13993	0.15518	0.25331	0.051
Mof_H 	H 	0.1253	0.1066	0.2585	0.02
Mof_C 	C 	0.18238	0.18391	0.30585	-0.141
Mof_C 	C 	0.2034	0.2541	0.2968	0.057
Mof_H 	H 	0.2319	0.2732	0.3314	0.023
Mof_C 	C 	0.18331	0.29829	0.23687	-0.119
Mof_H 	H 	0.1987	0.346	0.2317	0.069
Mof_C 	C 	0.20199	0.1409	0.37243	0.39
Mof_C 	C 	0.9177	0.52077	0.7616	0.066
Mof_C 	C 	0.91467	0.60015	0.73544	-0.133
Mof_H 	H 	0.9386	0.639	0.7585	0.076
Mof_C 	C 	0.87628	0.62179	0.67525	0.067
Mof_H 	H 	0.8747	0.6749	0.6583	0.022
Mof_C 	C 	0.84039	0.56508	0.6403	-0.151
Mof_C 	C 	0.84328	0.48587	0.66511	0.067
Mof_H 	H 	0.8194	0.4472	0.6416	0.011
Mof_C 	C 	0.88196	0.4638	0.72542	-0.135
Mof_H 	H 	0.8838	0.4102	0.7416	0.076
Mof_C 	C 	0.79757	0.59188	0.57769	0.42
Mof_Zn	Zn	0.20158	0.04852	0.47437	1.2
Mof_O 	O 	0.3512	0.5925	0.00273	-0.556
Mof_O 	O 	0.30627	0.6988	0.9835	-0.527
Mof_O 	O 	0.68156	0.5763	0.37863	-0.491
Mof_O 	O 	0.73874	0.67035	0.41953	-0.462
Mof_O 	O 	0.26653	0.03668	0.54644	-0.514
Mof_O 	O 	0.29696	0.16605	0.56158	-0.458
Mof_N 	N 	0.49709	0.86424	0.97809	-0.156
Mof_C 	C 	0.34463	0.6675	0.99102	0.542
Mof_C 	C 	0.38368	0.71879	0.98488	-0.255
Mof_C 	C 	0.42691	0.68349	0.99048	0.186
Mof_H 	H 	0.4311	0.6267	0.9963	-0.015
Mof_C 	C 	0.4639	0.73101	0.98756	-0.261
Mof_H 	H 	0.4928	0.7062	0.9913	0.13
Mof_C 	C 	0.45827	0.81554	0.9791	0.223
Mof_C 	C 	0.41495	0.85175	0.97285	-0.256
Mof_H 	H 	0.4108	0.9086	0.967	0.131
Mof_C 	C 	0.37786	0.80366	0.97522	0.179
Mof_H 	H 	0.3486	0.8283	0.9703	-0.01
Mof_C 	C 	0.54619	0.86007	0.02401	0.082
Mof_C 	C 	0.56695	0.81479	0.08354	-0.136
Mof_H 	H 	0.5476	0.7818	0.0976	0.071
Mof_C 	C 	0.61695	0.82004	0.12113	0.036
Mof_C 	C 	0.64536	0.87267	0.09991	-0.094
Mof_H 	H 	0.6789	0.8763	0.1256	0.053
Mof_C 	C 	0.62424	0.91886	0.0417	-0.011
Mof_H 	H 	0.6434	0.9535	0.0285	0.022
Mof_C 	C 	0.57421	0.91301	0.00306	-0.068
Mof_C 	C 	0.54083	0.95131	0.94146	0.027
Mof_C 	C 	0.54661	0.00795	0.89724	-0.057
Mof_H 	H 	0.5772	0.0298	0.9057	0.064
Mof_C 	C 	0.50596	0.03107	0.84067	-0.05
Mof_H 	H 	0.5095	0.0699	0.8117	0.048
Mof_C 	C 	0.45959	0.99767	0.82565	0.019
Mof_C 	C 	0.45318	0.94227	0.8697	-0.119
Mof_H 	H 	0.4225	0.9205	0.861	0.075
Mof_C 	C 	0.49381	0.92024	0.92719	0.086
Mof_C 	C 	0.6403	0.77133	0.18449	0.047
Mof_C 	C 	0.61941	0.69857	0.19353	-0.122
Mof_H 	H 	0.5912	0.6786	0.1589	0.064
Mof_C 	C 	0.63993	0.65518	0.25331	0.051
Mof_H 	H 	0.6253	0.6066	0.2585	0.02
Mof_C 	C 	0.68238	0.68391	0.30585	-0.141
Mof_C 	C 	0.7034	0.7541	0.2968	0.057
Mof_H 	H 	0.7319	0.7732	0.3314	0.023
Mof_C 	C 	0.68331	0.79829	0.23687	-0.12
Mof_H 	H 	0.6987	0.846	0.2317	0.07
Mof_C 	C 	0.70199	0.6409	0.37243	0.391
Mof_C 	C 	0.4177	0.02077	0.7616	0.067
Mof_C 	C 	0.41467	0.10015	0.73544	-0.133
Mof_H 	H 	0.4386	0.139	0.7585	0.077
Mof_C 	C 	0.37628	0.12179	0.67525	0.067
Mof_H 	H 	0.3747	0.1749	0.6583	0.022
Mof_C 	C 	0.34039	0.06508	0.6403	-0.151
Mof_C 	C 	0.34328	0.98587	0.66511	0.066
Mof_H 	H 	0.3194	0.9472	0.6416	0.011
Mof_C 	C 	0.38196	0.9638	0.72542	-0.136
Mof_H 	H 	0.3838	0.9102	0.7416	0.076
Mof_C 	C 	0.29757	0.09188	0.57769	0.419
Mof_Zn	Zn	0.29842	0.54852	0.02563	1.192
Mof_O 	O 	0.1488	0.0925	0.49727	-0.513
Mof_O 	O 	0.19373	0.1988	0.5165	-0.528
Mof_O 	O 	0.81844	0.0763	0.12137	-0.497
Mof_O 	O 	0.76126	0.17035	0.08047	-0.471
Mof_O 	O 	0.23347	0.53668	0.95356	-0.496
Mof_O 	O 	0.20304	0.66605	0.93842	-0.442
Mof_N 	N 	0.00291	0.36424	0.52191	-0.172
Mof_C 	C 	0.15537	0.1675	0.50898	0.494
Mof_C 	C 	0.11632	0.21879	0.51512	-0.242
Mof_C 	C 	0.07309	0.18349	0.50952	0.169
Mof_H 	H 	0.0689	0.1267	0.5037	-0.019
Mof_C 	C 	0.0361	0.23101	0.51244	-0.255
Mof_H 	H 	0.0072	0.2062	0.5087	0.119
Mof_C 	C 	0.04173	0.31554	0.5209	0.212
Mof_C 	C 	0.08505	0.35175	0.52715	-0.251
Mof_H 	H 	0.0892	0.4086	0.533	0.124
Mof_C 	C 	0.12214	0.30366	0.52478	0.164
Mof_H 	H 	0.1514	0.3283	0.5297	-0.011
Mof_C 	C 	0.95381	0.36007	0.47599	0.095
Mof_C 	C 	0.93305	0.31479	0.41646	-0.134
Mof_H 	H 	0.9524	0.2818	0.4024	0.077
Mof_C 	C 	0.88305	0.32004	0.37887	0.031
Mof_C 	C 	0.85464	0.37267	0.40009	-0.077
Mof_H 	H 	0.8211	0.3763	0.3744	0.049
Mof_C 	C 	0.87576	0.41886	0.4583	-0.035
Mof_H 	H 	0.8566	0.4535	0.4715	0.038
Mof_C 	C 	0.92579	0.41301	0.49694	-0.023
Mof_C 	C 	0.95917	0.45131	0.55854	-0.028
Mof_C 	C 	0.95339	0.50795	0.60276	-0.025
Mof_H 	H 	0.9228	0.5298	0.5943	0.045
Mof_C 	C 	0.99404	0.53107	0.65933	-0.081
Mof_H 	H 	0.9905	0.5699	0.6883	0.057
Mof_C 	C 	0.04041	0.49767	0.67435	0.041
Mof_C 	C 	0.04682	0.44227	0.6303	-0.139
Mof_H 	H 	0.0775	0.4205	0.639	0.082
Mof_C 	C 	0.00619	0.42024	0.57281	0.104
Mof_C 	C 	0.8597	0.27133	0.31551	0.053
Mof_C 	C 	0.88059	0.19857	0.30647	-0.127
Mof_H 	H 	0.9088	0.1786	0.3411	0.069
Mof_C 	C 	0.86007	0.15518	0.24669	0.056
Mof_H 	H 	0.8747	0.1066	0.2415	0.018
Mof_C 	C 	0.81762	0.18391	0.19415	-0.145
Mof_C 	C 	0.7966	0.2541	0.2032	0.062
Mof_H 	H 	0.7681	0.2732	0.1686	0.021
Mof_C 	C 	0.81669	0.29829	0.26313	-0.124
Mof_H 	H 	0.8013	0.346	0.2683	0.071
Mof_C 	C 	0.79801	0.1409	0.12757	0.392
Mof_C 	C 	0.0823	0.52077	0.7384	0.052
Mof_C 	C 	0.08533	0.60015	0.76456	-0.12
Mof_H 	H 	0.0614	0.639	0.7415	0.072
Mof_C 	C 	0.12372	0.62179	0.82475	0.056
Mof_H 	H 	0.1253	0.6749	0.8417	0.029
Mof_C 	C 	0.15961	0.56508	0.8597	-0.139
Mof_C 	C 	0.15672	0.48587	0.83489	0.057
Mof_H 	H 	0.1806	0.4472	0.8584	0.018
Mof_C 	C 	0.11804	0.4638	0.77458	-0.122
Mof_H 	H 	0.1162	0.4102	0.7584	0.072
Mof_C 	C 	0.20243	0.59188	0.92231	0.414
Mof_Zn	Zn	0.79842	0.04852	0.02563	1.192
Mof_O 	O 	0.6488	0.5925	0.49727	-0.514
Mof_O 	O 	0.69373	0.6988	0.5165	-0.528
Mof_O 	O 	0.31844	0.5763	0.12137	-0.497
Mof_O 	O 	0.26126	0.67035	0.08047	-0.471
Mof_O 	O 	0.73347	0.03668	0.95356	-0.496
Mof_O 	O 	0.70304	0.16605	0.93842	-0.441
Mof_N 	N 	0.50291	0.86424	0.52191	-0.172
Mof_C 	C 	0.65537	0.6675	0.50898	0.494
Mof_C 	C 	0.61632	0.71879	0.51512	-0.242
Mof_C 	C 	0.57309	0.68349	0.50952	0.169
Mof_H 	H 	0.5689	0.6267	0.5037	-0.02
Mof_C 	C 	0.5361	0.73101	0.51244	-0.255
Mof_H 	H 	0.5072	0.7062	0.5087	0.119
Mof_C 	C 	0.54173	0.81554	0.5209	0.211
Mof_C 	C 	0.58505	0.85175	0.52715	-0.251
Mof_H 	H 	0.5892	0.9086	0.533	0.124
Mof_C 	C 	0.62214	0.80366	0.52478	0.164
Mof_H 	H 	0.6514	0.8283	0.5297	-0.011
Mof_C 	C 	0.45381	0.86007	0.47599	0.098
Mof_C 	C 	0.43305	0.81479	0.41646	-0.136
Mof_H 	H 	0.4524	0.7818	0.4024	0.078
Mof_C 	C 	0.38305	0.82004	0.37887	0.032
Mof_C 	C 	0.35464	0.87267	0.40009	-0.079
Mof_H 	H 	0.3211	0.8763	0.3744	0.05
Mof_C 	C 	0.37576	0.91886	0.4583	-0.032
Mof_H 	H 	0.3566	0.9535	0.4715	0.037
Mof_C 	C 	0.42579	0.91301	0.49694	-0.026
Mof_C 	C 	0.45917	0.95131	0.55854	-0.023
Mof_C 	C 	0.45339	0.00795	0.60276	-0.03
Mof_H 	H 	0.4228	0.0298	0.5943	0.047
Mof_C 	C 	0.49404	0.03107	0.65933	-0.073
Mof_H 	H 	0.4905	0.0699	0.6883	0.055
Mof_C 	C 	0.54041	0.99767	0.67435	0.034
Mof_C 	C 	0.54682	0.94227	0.6303	-0.134
Mof_H 	H 	0.5775	0.9205	0.639	0.08
Mof_C 	C 	0.50619	0.92024	0.57281	0.099
Mof_C 	C 	0.3597	0.77133	0.31551	0.052
Mof_C 	C 	0.38059	0.69857	0.30647	-0.126
Mof_H 	H 	0.4088	0.6786	0.3411	0.069
Mof_C 	C 	0.36007	0.65518	0.24669	0.056
Mof_H 	H 	0.3747	0.6066	0.2415	0.019
Mof_C 	C 	0.31762	0.68391	0.19415	-0.145
Mof_C 	C 	0.2966	0.7541	0.2032	0.061
Mof_H 	H 	0.2681	0.7732	0.1686	0.021
Mof_C 	C 	0.31669	0.79829	0.26313	-0.123
Mof_H 	H 	0.3013	0.846	0.2683	0.071
Mof_C 	C 	0.29801	0.6409	0.12757	0.392
Mof_C 	C 	0.5823	0.02077	0.7384	0.056
Mof_C 	C 	0.58533	0.10015	0.76456	-0.122
Mof_H 	H 	0.5614	0.139	0.7415	0.072
Mof_C 	C 	0.62372	0.12179	0.82475	0.057
Mof_H 	H 	0.6253	0.1749	0.8417	0.028
Mof_C 	C 	0.65961	0.06508	0.8597	-0.139
Mof_C 	C 	0.65672	0.98587	0.83489	0.057
Mof_H 	H 	0.6806	0.9472	0.8584	0.018
Mof_C 	C 	0.61804	0.9638	0.77458	-0.125
Mof_H 	H 	0.6162	0.9102	0.7584	0.073
Mof_C 	C 	0.70243	0.09188	0.92231	0.414
Mof_Zn	Zn	0.29842	0.45148	0.52563	1.2
Mof_O 	O 	0.1488	0.9075	0.99727	-0.471
Mof_O 	O 	0.19373	0.8012	0.0165	-0.526
Mof_O 	O 	0.81844	0.9237	0.62137	-0.49
Mof_O 	O 	0.76126	0.82965	0.58047	-0.462
Mof_O 	O 	0.23347	0.46332	0.45356	-0.513
Mof_O 	O 	0.20304	0.33395	0.43842	-0.457
Mof_N 	N 	0.00291	0.63576	0.02191	-0.188
Mof_C 	C 	0.15537	0.8325	0.00898	0.446
Mof_C 	C 	0.11632	0.78121	0.01512	-0.228
Mof_C 	C 	0.07309	0.81651	0.00952	0.151
Mof_H 	H 	0.0689	0.8733	0.0037	-0.023
Mof_C 	C 	0.0361	0.76899	0.01244	-0.249
Mof_H 	H 	0.0072	0.7938	0.0087	0.108
Mof_C 	C 	0.04173	0.68446	0.0209	0.199
Mof_C 	C 	0.08505	0.64825	0.02715	-0.245
Mof_H 	H 	0.0892	0.5914	0.033	0.116
Mof_C 	C 	0.12214	0.69634	0.02478	0.148
Mof_H 	H 	0.1514	0.6717	0.0297	-0.011
Mof_C 	C 	0.95381	0.63993	0.97599	0.112
Mof_C 	C 	0.93305	0.68521	0.91646	-0.135
Mof_H 	H 	0.9524	0.7182	0.9024	0.084
Mof_C 	C 	0.88305	0.67996	0.87887	0.028
Mof_C 	C 	0.85464	0.62733	0.90009	-0.062
Mof_H 	H 	0.8211	0.6237	0.8744	0.047
Mof_C 	C 	0.87576	0.58114	0.9583	-0.057
Mof_H 	H 	0.8566	0.5465	0.9715	0.055
Mof_C 	C 	0.92579	0.58699	0.99694	0.02
Mof_C 	C 	0.95917	0.54869	0.05854	-0.079
Mof_C 	C 	0.95339	0.49205	0.10276	0.002
Mof_H 	H 	0.9228	0.4702	0.0943	0.027
Mof_C 	C 	0.99404	0.46893	0.15933	-0.101
Mof_H 	H 	0.9905	0.4301	0.1883	0.062
Mof_C 	C 	0.04041	0.50233	0.17435	0.052
Mof_C 	C 	0.04682	0.55773	0.1303	-0.152
Mof_H 	H 	0.0775	0.5795	0.139	0.086
Mof_C 	C 	0.00619	0.57976	0.07281	0.115
Mof_C 	C 	0.8597	0.72867	0.81551	0.057
Mof_C 	C 	0.88059	0.80143	0.80647	-0.128
Mof_H 	H 	0.9088	0.8214	0.8411	0.074
Mof_C 	C 	0.86007	0.84482	0.74669	0.058
Mof_H 	H 	0.8747	0.8934	0.7415	0.021
Mof_C 	C 	0.81762	0.81609	0.69415	-0.144
Mof_C 	C 	0.7966	0.7459	0.7032	0.063
Mof_H 	H 	0.7681	0.7268	0.6686	0.022
Mof_C 	C 	0.81669	0.70171	0.76313	-0.125
Mof_H 	H 	0.8013	0.654	0.7683	0.073
Mof_C 	C 	0.79801	0.8591	0.62757	0.392
Mof_C 	C 	0.0823	0.47923	0.2384	0.047
Mof_C 	C 	0.08533	0.39985	0.26456	-0.119
Mof_H 	H 	0.0614	0.361	0.2415	0.069
Mof_C 	C 	0.12372	0.37821	0.32475	0.057
Mof_H 	H 	0.1253	0.3251	0.3417	0.025
Mof_C 	C 	0.15961	0.43492	0.3597	-0.144
Mof_C 	C 	0.15672	0.51413	0.33489	0.057
Mof_H 	H 	0.1806	0.5528	0.3584	0.014
Mof_C 	C 	0.11804	0.5362	0.27458	-0.121
Mof_H 	H 	0.1162	0.5898	0.2584	0.07
Mof_C 	C 	0.20243	0.40812	0.42231	0.417
Mof_Zn	Zn	0.79842	0.95148	0.52563	1.2
Mof_O 	O 	0.6488	0.4075	0.99727	-0.469
Mof_O 	O 	0.69373	0.3012	0.0165	-0.526
Mof_O 	O 	0.31844	0.4237	0.62137	-0.49
Mof_O 	O 	0.26126	0.32965	0.58047	-0.462
Mof_O 	O 	0.73347	0.96332	0.45356	-0.514
Mof_O 	O 	0.70304	0.83395	0.43842	-0.457
Mof_N 	N 	0.50291	0.13576	0.02191	-0.189
Mof_C 	C 	0.65537	0.3325	0.00898	0.444
Mof_C 	C 	0.61632	0.28121	0.01512	-0.227
Mof_C 	C 	0.57309	0.31651	0.00952	0.15
Mof_H 	H 	0.5689	0.3733	0.0037	-0.023
Mof_C 	C 	0.5361	0.26899	0.01244	-0.249
Mof_H 	H 	0.5072	0.2938	0.0087	0.106
Mof_C 	C 	0.54173	0.18446	0.0209	0.198
Mof_C 	C 	0.58505	0.14825	0.02715	-0.245
Mof_H 	H 	0.5892	0.0914	0.033	0.115
Mof_C 	C 	0.62214	0.19634	0.02478	0.147
Mof_H 	H 	0.6514	0.1717	0.0297	-0.01
Mof_C 	C 	0.45381	0.13993	0.97599	0.116
Mof_C 	C 	0.43305	0.18521	0.91646	-0.136
Mof_H 	H 	0.4524	0.2182	0.9024	0.086
Mof_C 	C 	0.38305	0.17996	0.87887	0.03
Mof_C 	C 	0.35464	0.12733	0.90009	-0.063
Mof_H 	H 	0.3211	0.1237	0.8744	0.047
Mof_C 	C 	0.37576	0.08114	0.9583	-0.056
Mof_H 	H 	0.3566	0.0465	0.9715	0.055
Mof_C 	C 	0.42579	0.08699	0.99694	0.02
Mof_C 	C 	0.45917	0.04869	0.05854	-0.077
Mof_C 	C 	0.45339	0.99205	0.10276	-0
Mof_H 	H 	0.4228	0.9702	0.0943	0.028
Mof_C 	C 	0.49404	0.96893	0.15933	-0.094
Mof_H 	H 	0.4905	0.9301	0.1883	0.061
Mof_C 	C 	0.54041	0.00233	0.17435	0.045
Mof_C 	C 	0.54682	0.05773	0.1303	-0.148
Mof_H 	H 	0.5775	0.0795	0.139	0.084
Mof_C 	C 	0.50619	0.07976	0.07281	0.112
Mof_C 	C 	0.3597	0.22867	0.81551	0.057
Mof_C 	C 	0.38059	0.30143	0.80647	-0.128
Mof_H 	H 	0.4088	0.3214	0.8411	0.074
Mof_C 	C 	0.36007	0.34482	0.74669	0.058
Mof_H 	H 	0.3747	0.3934	0.7415	0.021
Mof_C 	C 	0.31762	0.31609	0.69415	-0.143
Mof_C 	C 	0.2966	0.2459	0.7032	0.063
Mof_H 	H 	0.2681	0.2268	0.6686	0.022
Mof_C 	C 	0.31669	0.20171	0.76313	-0.125
Mof_H 	H 	0.3013	0.154	0.7683	0.073
Mof_C 	C 	0.29801	0.3591	0.62757	0.392
Mof_C 	C 	0.5823	0.97923	0.2384	0.052
Mof_C 	C 	0.58533	0.89985	0.26456	-0.122
Mof_H 	H 	0.5614	0.861	0.2415	0.07
Mof_C 	C 	0.62372	0.87821	0.32475	0.058
Mof_H 	H 	0.6253	0.8251	0.3417	0.024
Mof_C 	C 	0.65961	0.93492	0.3597	-0.145
Mof_C 	C 	0.65672	0.01413	0.33489	0.059
Mof_H 	H 	0.6806	0.0528	0.3584	0.013
Mof_C 	C 	0.61804	0.0362	0.27458	-0.125
Mof_H 	H 	0.6162	0.0898	0.2584	0.071
Mof_C 	C 	0.70243	0.90812	0.42231	0.417
Mof_Zn	Zn	0.70158	0.45148	0.97437	1.208
Mof_O 	O 	0.8512	0.9075	0.50273	-0.513
Mof_O 	O 	0.80627	0.8012	0.4835	-0.528
Mof_O 	O 	0.18156	0.9237	0.87863	-0.484
Mof_O 	O 	0.23874	0.82965	0.91953	-0.451
Mof_O 	O 	0.76653	0.46332	0.04644	-0.53
Mof_O 	O 	0.79696	0.33395	0.06158	-0.469
Mof_N 	N 	0.99709	0.63576	0.47809	-0.173
Mof_C 	C 	0.84463	0.8325	0.49102	0.494
Mof_C 	C 	0.88368	0.78121	0.48488	-0.242
Mof_C 	C 	0.92691	0.81651	0.49048	0.168
Mof_H 	H 	0.9311	0.8733	0.4963	-0.02
Mof_C 	C 	0.9639	0.76899	0.48756	-0.255
Mof_H 	H 	0.9928	0.7938	0.4913	0.118
Mof_C 	C 	0.95827	0.68446	0.4791	0.21
Mof_C 	C 	0.91495	0.64825	0.47285	-0.251
Mof_H 	H 	0.9108	0.5914	0.467	0.123
Mof_C 	C 	0.87786	0.69634	0.47522	0.164
Mof_H 	H 	0.8486	0.6717	0.4703	-0.011
Mof_C 	C 	0.04619	0.63993	0.52401	0.101
Mof_C 	C 	0.06695	0.68521	0.58354	-0.138
Mof_H 	H 	0.0476	0.7182	0.5976	0.08
Mof_C 	C 	0.11695	0.67996	0.62113	0.035
Mof_C 	C 	0.14536	0.62733	0.59991	-0.081
Mof_H 	H 	0.1789	0.6237	0.6256	0.051
Mof_C 	C 	0.12424	0.58114	0.5417	-0.03
Mof_H 	H 	0.1434	0.5465	0.5285	0.036
Mof_C 	C 	0.07421	0.58699	0.50306	-0.029
Mof_C 	C 	0.04083	0.54869	0.44146	-0.017
Mof_C 	C 	0.04661	0.49205	0.39724	-0.036
Mof_H 	H 	0.0772	0.4702	0.4057	0.049
Mof_C 	C 	0.00596	0.46893	0.34067	-0.066
Mof_H 	H 	0.0095	0.4301	0.3117	0.052
Mof_C 	C 	0.95959	0.50233	0.32565	0.027
Mof_C 	C 	0.95318	0.55773	0.3697	-0.13
Mof_H 	H 	0.9225	0.5795	0.361	0.078
Mof_C 	C 	0.99381	0.57976	0.42719	0.094
Mof_C 	C 	0.1403	0.72867	0.68449	0.05
Mof_C 	C 	0.11941	0.80143	0.69353	-0.123
Mof_H 	H 	0.0912	0.8214	0.6589	0.069
Mof_C 	C 	0.13993	0.84482	0.75331	0.053
Mof_H 	H 	0.1253	0.8934	0.7585	0.023
Mof_C 	C 	0.18238	0.81609	0.80585	-0.139
Mof_C 	C 	0.2034	0.7459	0.7968	0.058
Mof_H 	H 	0.2319	0.7268	0.8314	0.024
Mof_C 	C 	0.18331	0.70171	0.73687	-0.12
Mof_H 	H 	0.1987	0.654	0.7317	0.071
Mof_C 	C 	0.20199	0.8591	0.87243	0.389
Mof_C 	C 	0.9177	0.47923	0.2616	0.061
Mof_C 	C 	0.91467	0.39985	0.23544	-0.132
Mof_H 	H 	0.9386	0.361	0.2585	0.073
Mof_C 	C 	0.87628	0.37821	0.17525	0.067
Mof_H 	H 	0.8747	0.3251	0.1583	0.018
Mof_C 	C 	0.84039	0.43492	0.1403	-0.156
Mof_C 	C 	0.84328	0.51413	0.16511	0.066
Mof_H 	H 	0.8194	0.5528	0.1416	0.007
Mof_C 	C 	0.88196	0.5362	0.22542	-0.134
Mof_H 	H 	0.8838	0.5898	0.2416	0.073
Mof_C 	C 	0.79757	0.40812	0.07769	0.421
Mof_Zn	Zn	0.20158	0.95148	0.97437	1.207
Mof_O 	O 	0.3512	0.4075	0.50273	-0.513
Mof_O 	O 	0.30627	0.3012	0.4835	-0.528
Mof_O 	O 	0.68156	0.4237	0.87863	-0.484
Mof_O 	O 	0.73874	0.32965	0.91953	-0.451
Mof_O 	O 	0.26653	0.96332	0.04644	-0.529
Mof_O 	O 	0.29696	0.83395	0.06158	-0.469
Mof_N 	N 	0.49709	0.13576	0.47809	-0.172
Mof_C 	C 	0.34463	0.3325	0.49102	0.494
Mof_C 	C 	0.38368	0.28121	0.48488	-0.242
Mof_C 	C 	0.42691	0.31651	0.49048	0.168
Mof_H 	H 	0.4311	0.3733	0.4963	-0.019
Mof_C 	C 	0.4639	0.26899	0.48756	-0.255
Mof_H 	H 	0.4928	0.2938	0.4913	0.118
Mof_C 	C 	0.45827	0.18446	0.4791	0.211
Mof_C 	C 	0.41495	0.14825	0.47285	-0.251
Mof_H 	H 	0.4108	0.0914	0.467	0.123
Mof_C 	C 	0.37786	0.19634	0.47522	0.164
Mof_H 	H 	0.3486	0.1717	0.4703	-0.011
Mof_C 	C 	0.54619	0.13993	0.52401	0.099
Mof_C 	C 	0.56695	0.18521	0.58354	-0.137
Mof_H 	H 	0.5476	0.2182	0.5976	0.079
Mof_C 	C 	0.61695	0.17996	0.62113	0.034
Mof_C 	C 	0.64536	0.12733	0.59991	-0.08
Mof_H 	H 	0.6789	0.1237	0.6256	0.051
Mof_C 	C 	0.62424	0.08114	0.5417	-0.031
Mof_H 	H 	0.6434	0.0465	0.5285	0.037
Mof_C 	C 	0.57421	0.08699	0.50306	-0.027
Mof_C 	C 	0.54083	0.04869	0.44146	-0.021
Mof_C 	C 	0.54661	0.99205	0.39724	-0.032
Mof_H 	H 	0.5772	0.9702	0.4057	0.047
Mof_C 	C 	0.50596	0.96893	0.34067	-0.071
Mof_H 	H 	0.5095	0.9301	0.3117	0.054
Mof_C 	C 	0.45959	0.00233	0.32565	0.031
Mof_C 	C 	0.45318	0.05773	0.3697	-0.132
Mof_H 	H 	0.4225	0.0795	0.361	0.079
Mof_C 	C 	0.49381	0.07976	0.42719	0.097
Mof_C 	C 	0.6403	0.22867	0.68449	0.05
Mof_C 	C 	0.61941	0.30143	0.69353	-0.123
Mof_H 	H 	0.5912	0.3214	0.6589	0.069
Mof_C 	C 	0.63993	0.34482	0.75331	0.053
Mof_H 	H 	0.6253	0.3934	0.7585	0.023
Mof_C 	C 	0.68238	0.31609	0.80585	-0.139
Mof_C 	C 	0.7034	0.2459	0.7968	0.058
Mof_H 	H 	0.7319	0.2268	0.8314	0.024
Mof_C 	C 	0.68331	0.20171	0.73687	-0.12
Mof_H 	H 	0.6987	0.154	0.7317	0.071
Mof_C 	C 	0.70199	0.3591	0.87243	0.389
Mof_C 	C 	0.4177	0.97923	0.2616	0.061
Mof_C 	C 	0.41467	0.89985	0.23544	-0.131
Mof_H 	H 	0.4386	0.861	0.2585	0.074
Mof_C 	C 	0.37628	0.87821	0.17525	0.066
Mof_H 	H 	0.3747	0.8251	0.1583	0.019
Mof_C 	C 	0.34039	0.93492	0.1403	-0.154
Mof_C 	C 	0.34328	0.01413	0.16511	0.064
Mof_H 	H 	0.3194	0.0528	0.1416	0.007
Mof_C 	C 	0.38196	0.0362	0.22542	-0.133
Mof_H 	H 	0.3838	0.0898	0.2416	0.073
Mof_C 	C 	0.29757	0.90812	0.07769	0.42
Mof_Zn	Zn	0.75	0.75	0.5	1.259
Mof_Zn	Zn	0.25	0.75	-0	1.248
Mof_Zn	Zn	0.25	0.25	0.5	1.259
Mof_Zn	Zn	0.75	0.25	-0	1.248
_end
