data_functionalizedCrystal
_audit_creation_method	'EQeq! by Chris Wilmer'
_symmetry_space_group_name_H-M	'P1'
_symmetry_Int_Tables_number	1
_symmetry_cell_setting	triclinic
loop_
_symmetry_equiv_pos_as_xyz
  x,y,z
_cell_length_a	9.8474
_cell_length_b	11.3369
_cell_length_c	14.4507
_cell_angle_alpha	91.1417
_cell_angle_beta	90
_cell_angle_gamma	90
loop_
_atom_site_label
_atom_site_type_symbol
_atom_site_fract_x
_atom_site_fract_y
_atom_site_fract_z
_atom_site_charge
Mof_Fe	Fe	0.91782	0.75529	0.13235	0.963
Mof_Fe	Fe	0.89607	0.26095	0.68536	0.978
Mof_Fe	Fe	0.41782	0.74471	0.36765	0.932
Mof_Fe	Fe	0.39607	0.23905	0.81464	0.928
Mof_Fe	Fe	0.08218	0.24471	0.86765	0.889
Mof_Fe	Fe	0.10393	0.73905	0.31464	0.881
Mof_Fe	Fe	0.58218	0.25529	0.63235	0.912
Mof_Fe	Fe	0.60393	0.76095	0.18536	0.93
Mof_Fe	Fe	-0	0.5	-0	0.796
Mof_Fe	Fe	0.5	0	0.5	0.877
Mof_Fe	Fe	-0	0	-0	0.731
Mof_Fe	Fe	0.5	0.5	0.5	0.946
Mof_H 	H 	0.7472	0.8607	0.3684	-0.088
Mof_H 	H 	0.0222	0.4729	0.2699	-0.061
Mof_H 	H 	0.615	0.5572	0.0341	-0.079
Mof_H 	H 	0.1725	0.9905	0.2422	-0.125
Mof_H 	H 	0.1697	0.698	0.9315	-0.099
Mof_H 	H 	0.6987	0.9834	0.9967	0.019
Mof_H 	H 	0.2472	0.6393	0.1316	-0.11
Mof_H 	H 	0.5222	0.0271	0.2301	-0.193
Mof_H 	H 	0.115	0.9428	0.4659	-0.093
Mof_H 	H 	0.6725	0.5095	0.2578	-0.11
Mof_H 	H 	0.6697	0.802	0.5685	-0.08
Mof_H 	H 	0.1987	0.5166	0.5033	-0.098
Mof_H 	H 	0.2528	0.1393	0.6316	-0.116
Mof_H 	H 	0.9778	0.5271	0.7301	-0.128
Mof_H 	H 	0.385	0.4428	0.9659	-0.107
Mof_H 	H 	0.8275	0.0095	0.7578	-0.083
Mof_H 	H 	0.8303	0.302	0.0685	-0.069
Mof_H 	H 	0.3013	0.0166	0.0033	-0.174
Mof_H 	H 	0.7528	0.3607	0.8684	-0.092
Mof_H 	H 	0.4778	0.9729	0.7699	0.004
Mof_H 	H 	0.885	0.0572	0.5341	-0.096
Mof_H 	H 	0.3275	0.4905	0.7422	-0.111
Mof_H 	H 	0.3303	0.198	0.4315	-0.106
Mof_H 	H 	0.8013	0.4834	0.4967	-0.081
Mof_C 	C 	0.8197	0.8296	0.332	0.482
Mof_C 	C 	0.0054	0.5142	0.2145	0.315
Mof_C 	C 	0.7085	0.5748	0.0429	0.386
Mof_C 	C 	0.119	0.9595	0.1928	0.567
Mof_C 	C 	0.1115	0.7438	0.9705	0.567
Mof_C 	C 	0.7148	0.9269	0.0431	0.341
Mof_C 	C 	0.3197	0.6704	0.168	0.488
Mof_C 	C 	0.5054	0.9858	0.2855	0.671
Mof_C 	C 	0.2085	0.9252	0.4571	0.48
Mof_C 	C 	0.619	0.5405	0.3072	0.494
Mof_C 	C 	0.6115	0.7562	0.5295	0.488
Mof_C 	C 	0.2148	0.5731	0.4569	0.48
Mof_C 	C 	0.1803	0.1704	0.668	0.494
Mof_C 	C 	0.9946	0.4858	0.7855	0.638
Mof_C 	C 	0.2915	0.4252	0.9571	0.576
Mof_C 	C 	0.881	0.0405	0.8072	0.383
Mof_C 	C 	0.8885	0.2562	0.0295	0.385
Mof_C 	C 	0.2852	0.0731	0.9569	0.577
Mof_C 	C 	0.6803	0.3296	0.832	0.486
Mof_C 	C 	0.4946	0.0142	0.7145	0.294
Mof_C 	C 	0.7915	0.0748	0.5429	0.49
Mof_C 	C 	0.381	0.4595	0.6928	0.495
Mof_C 	C 	0.3885	0.2438	0.4705	0.5
Mof_C 	C 	0.7852	0.4269	0.5431	0.473
Mof_O 	O 	0.79525	0.80939	0.24629	-0.459
Mof_O 	O 	0.92869	0.81266	0.37206	-0.35
Mof_O 	O 	0.99955	0.62592	0.22092	-0.379
Mof_O 	O 	0.9911	0.45417	0.14267	-0.285
Mof_O 	O 	0.73809	0.65165	0.10505	-0.442
Mof_O 	O 	0.7905	0.52083	0.99273	-0.281
Mof_O 	O 	0.07955	0.85225	0.19885	-0.502
Mof_O 	O 	0.09391	0.02589	0.12899	-0.452
Mof_O 	O 	0.03007	0.6871	0.0231	-0.533
Mof_O 	O 	0.12115	0.85116	0.96586	-0.351
Mof_O 	O 	0.8383	0.89588	0.05688	-0.395
Mof_O 	O 	0.61433	0.88908	0.08538	-0.344
Mof_O 	O 	0.29525	0.69061	0.25371	-0.467
Mof_O 	O 	0.42869	0.68734	0.12794	-0.397
Mof_O 	O 	0.49955	0.87408	0.27908	-0.512
Mof_O 	O 	0.4911	0.04583	0.35733	-0.459
Mof_O 	O 	0.23809	0.84835	0.39495	-0.458
Mof_O 	O 	0.2905	0.97917	0.50727	-0.355
Mof_O 	O 	0.57955	0.64775	0.30115	-0.468
Mof_O 	O 	0.59391	0.47411	0.37101	-0.394
Mof_O 	O 	0.53007	0.8129	0.4769	-0.452
Mof_O 	O 	0.62115	0.64884	0.53414	-0.386
Mof_O 	O 	0.3383	0.60412	0.44312	-0.466
Mof_O 	O 	0.11433	0.61092	0.41462	-0.397
Mof_O 	O 	0.20475	0.19061	0.75371	-0.477
Mof_O 	O 	0.07131	0.18734	0.62794	-0.427
Mof_O 	O 	0.00045	0.37408	0.77908	-0.551
Mof_O 	O 	0.0089	0.54583	0.85733	-0.424
Mof_O 	O 	0.26191	0.34835	0.89495	-0.479
Mof_O 	O 	0.2095	0.47917	0.00727	-0.45
Mof_O 	O 	0.92045	0.14775	0.80115	-0.416
Mof_O 	O 	0.90609	0.97411	0.87101	-0.259
Mof_O 	O 	0.96993	0.3129	0.9769	-0.354
Mof_O 	O 	0.87885	0.14884	0.03414	-0.357
Mof_O 	O 	0.1617	0.10412	0.94312	-0.464
Mof_O 	O 	0.38567	0.11092	0.91462	-0.413
Mof_O 	O 	0.70475	0.30939	0.74629	-0.468
Mof_O 	O 	0.57131	0.31266	0.87206	-0.38
Mof_O 	O 	0.50045	0.12592	0.72092	-0.426
Mof_O 	O 	0.5089	0.95417	0.64267	-0.279
Mof_O 	O 	0.76191	0.15165	0.60505	-0.469
Mof_O 	O 	0.7095	0.02083	0.49273	-0.401
Mof_O 	O 	0.42045	0.35225	0.69885	-0.469
Mof_O 	O 	0.40609	0.52589	0.62899	-0.394
Mof_O 	O 	0.46993	0.1871	0.5231	-0.468
Mof_O 	O 	0.37885	0.35116	0.46586	-0.399
Mof_O 	O 	0.6617	0.39588	0.55688	-0.459
Mof_O 	O 	0.88567	0.38908	0.58538	-0.37
_end
