data_functionalizedCrystal
_audit_creation_method	'EQeq! by Chris Wilmer'
_symmetry_space_group_name_H-M	'P1'
_symmetry_Int_Tables_number	1
_symmetry_cell_setting	triclinic
loop_
_symmetry_equiv_pos_as_xyz
  x,y,z
_cell_length_a	12.068
_cell_length_b	13.909
_cell_length_c	22.742
_cell_angle_alpha	95.902
_cell_angle_beta	104.964
_cell_angle_gamma	103.97
loop_
_atom_site_label
_atom_site_type_symbol
_atom_site_fract_x
_atom_site_fract_y
_atom_site_fract_z
_atom_site_charge
Mof_Ag	Ag	0.3113	0.83225	0.93353	0.382
Mof_N 	N 	0.5312	0.6899	0.5764	-0.133
Mof_Ag	Ag	0.51264	0.94278	0.07947	0.43
Mof_C 	C 	0.244	0.059	0.5226	0.082
Mof_H 	H 	0.2909	0.0689	0.4957	0.001
Mof_Ag	Ag	0.81736	0.57572	0.44031	0.5
Mof_C 	C 	0.7734	0.2721	0.348	-0.12
Mof_H 	H 	0.8016	0.2191	0.3612	0.053
Mof_Ag	Ag	0.14328	0.01634	0.85413	0.449
Mof_N 	N 	0.9759	0.7899	0.498	-0.108
Mof_C 	C 	0.2152	0.0803	0.0101	0.101
Mof_Ag	Ag	0.97015	0.15706	0.30007	0.515
Mof_N 	N 	0.9042	0.7164	0.569	-0.081
Mof_Ag	Ag	0.39742	0.12121	0.17298	0.525
Mof_N 	N 	0.253	0.13	0.5653	-0.14
Mof_C 	C 	0.6831	0.1736	0.2431	0.075
Mof_C 	C 	0.105	0.0273	0.6041	-0.114
Mof_H 	H 	0.0589	0.0175	0.6314	0.037
Mof_N 	N 	0.966	0.2487	0.0118	-0.226
Mof_C 	C 	0.657	0.338	0.2748	-0.111
Mof_H 	H 	0.604	0.3317	0.2358	0.039
Mof_N 	N 	0.5255	0.805	0.0272	-0.13
Mof_C 	C 	0.1309	0.1395	0.0155	0.03
Mof_N 	N 	0.459	0.7674	0.9683	-0.126
Mof_C 	C 	0.07	0.273	0.0526	0.093
Mof_H 	H 	0.0876	0.3315	0.0812	-0.036
Mof_N 	N 	0.7275	0.0594	0.1898	-0.131
Mof_N 	N 	0.6195	0.0591	0.164	-0.141
Mof_N 	N 	0.7752	0.1282	0.2418	-0.165
Mof_N 	N 	0.8631	0.9289	0.8361	-0.079
Mof_N 	N 	0.3078	0.0789	0.0575	-0.141
Mof_C 	C 	0.504	0.755	0.6147	0.042
Mof_H 	H 	0.4305	0.7687	0.6031	0.013
Mof_N 	N 	0.3565	0.0107	0.0376	-0.132
Mof_C 	C 	0.637	0.6728	0.5912	0.045
Mof_H 	H 	0.6533	0.6263	0.5646	0.002
Mof_N 	N 	0.9482	0.9185	0.8116	-0.122
Mof_C 	C 	0.686	0.427	0.3156	0.044
Mof_H 	H 	0.6547	0.4795	0.3035	-0.015
Mof_C 	C 	0.5819	0.7997	0.6687	-0.087
Mof_H 	H 	0.5574	0.8373	0.6966	0.03
Mof_N 	N 	0.7614	0.4388	0.3742	-0.202
Mof_N 	N 	0.5893	0.1312	0.195	-0.176
Mof_C 	C 	0.7255	0.7231	0.6462	-0.088
Mof_H 	H 	0.7996	0.7102	0.6562	0.033
Mof_N 	N 	0.7597	0.8834	0.7936	-0.165
Mof_C 	C 	0.156	0.2251	0.0592	-0.141
Mof_H 	H 	0.2273	0.2479	0.091	0.064
Mof_N 	N 	0.9073	0.7099	0.5095	-0.123
Mof_C 	C 	0.9389	0.1631	0.9721	0.072
Mof_H 	H 	0.8626	0.1405	0.9443	-0.034
Mof_N 	N 	0.3016	0.9777	0.9794	-0.144
Mof_C 	C 	0.7009	0.2587	0.2884	0.005
Mof_N 	N 	0.9009	0.8629	0.754	-0.168
Mof_C 	C 	0.8053	0.3604	0.3884	0.056
Mof_H 	H 	0.8591	0.3671	0.4271	-0.02
Mof_N 	N 	0.2072	0.0175	0.9616	-0.158
Mof_C 	C 	0.0982	0.953	0.5572	0.041
Mof_N 	N 	0.9781	0.8074	0.5955	-0.155
Mof_C 	C 	0.0158	0.8489	0.5521	0.094
Mof_C 	C 	0.0163	0.1067	0.9701	-0.136
Mof_H 	H 	0.9955	0.0492	0.9403	0.061
Mof_C 	C 	0.161	0.9664	0.5179	-0.134
Mof_H 	H 	0.1503	0.9136	0.4865	0.072
Mof_C 	C 	0.19	0.122	0.6067	0.05
Mof_H 	H 	0.2015	0.1775	0.6366	-0.008
Mof_C 	C 	0.7003	0.7932	0.686	-0.015
Mof_C 	C 	0.7835	0.8419	0.7438	0.098
Mof_N 	N 	0.6022	0.7498	0.0455	-0.117
Mof_N 	N 	0.4882	0.688	0.9493	-0.11
Mof_C 	C 	0.571	0.677	0.9964	0.09
Mof_C 	C 	0.628	0.598	0.9943	0.053
Mof_C 	C 	0.597	0.5197	0.9471	-0.134
Mof_H 	H 	0.5386	0.5203	0.9116	0.069
Mof_C 	C 	0.719	0.597	0.0454	-0.149
Mof_H 	H 	0.7442	0.6466	0.0806	0.067
Mof_C 	C 	0.645	0.4401	0.947	0.065
Mof_H 	H 	0.6155	0.3866	0.9139	-0.022
Mof_C 	C 	0.77	0.518	0.0407	0.093
Mof_H 	H 	0.8367	0.5223	0.0735	-0.042
Mof_N 	N 	0.74	0.4411	0.9977	-0.214
Mof_Ag	Ag	0.84607	0.33904	0.00332	0.424
Mof_Ag	Ag	0.6887	0.16775	0.06647	0.381
Mof_N 	N 	0.4688	0.3101	0.4236	-0.134
Mof_Ag	Ag	0.48736	0.05722	0.92053	0.429
Mof_C 	C 	0.756	0.941	0.4774	0.081
Mof_H 	H 	0.7091	0.9311	0.5043	0.001
Mof_Ag	Ag	0.18264	0.42428	0.55969	0.5
Mof_C 	C 	0.2266	0.7279	0.652	-0.12
Mof_H 	H 	0.1984	0.7809	0.6388	0.053
Mof_Ag	Ag	0.85672	0.98366	0.14587	0.449
Mof_N 	N 	0.0241	0.2101	0.502	-0.108
Mof_C 	C 	0.7848	0.9197	0.9899	0.101
Mof_Ag	Ag	0.02985	0.84294	0.69993	0.515
Mof_N 	N 	0.0958	0.2836	0.431	-0.081
Mof_Ag	Ag	0.60258	0.87879	0.82702	0.525
Mof_N 	N 	0.747	0.87	0.4347	-0.14
Mof_C 	C 	0.3169	0.8264	0.7569	0.075
Mof_C 	C 	0.895	0.9727	0.3959	-0.114
Mof_H 	H 	0.9411	0.9825	0.3686	0.037
Mof_N 	N 	0.034	0.7513	0.9882	-0.226
Mof_C 	C 	0.343	0.662	0.7252	-0.111
Mof_H 	H 	0.396	0.6683	0.7642	0.039
Mof_N 	N 	0.4745	0.195	0.9728	-0.13
Mof_C 	C 	0.8691	0.8605	0.9845	0.03
Mof_N 	N 	0.541	0.2326	0.0317	-0.126
Mof_C 	C 	0.93	0.727	0.9474	0.093
Mof_H 	H 	0.9124	0.6685	0.9188	-0.036
Mof_N 	N 	0.2725	0.9406	0.8102	-0.131
Mof_N 	N 	0.3805	0.9409	0.836	-0.141
Mof_N 	N 	0.2248	0.8718	0.7582	-0.165
Mof_N 	N 	0.1369	0.0711	0.1639	-0.079
Mof_N 	N 	0.6922	0.9211	0.9425	-0.141
Mof_C 	C 	0.496	0.245	0.3853	0.042
Mof_H 	H 	0.5695	0.2313	0.3969	0.013
Mof_N 	N 	0.6435	0.9893	0.9624	-0.132
Mof_C 	C 	0.363	0.3272	0.4088	0.045
Mof_H 	H 	0.3467	0.3737	0.4354	0.002
Mof_N 	N 	0.0518	0.0815	0.1884	-0.122
Mof_C 	C 	0.314	0.573	0.6844	0.044
Mof_H 	H 	0.3453	0.5205	0.6965	-0.015
Mof_C 	C 	0.4181	0.2003	0.3313	-0.087
Mof_H 	H 	0.4426	0.1627	0.3034	0.03
Mof_N 	N 	0.2386	0.5612	0.6258	-0.202
Mof_N 	N 	0.4107	0.8688	0.805	-0.176
Mof_C 	C 	0.2745	0.2769	0.3538	-0.088
Mof_H 	H 	0.2004	0.2898	0.3438	0.033
Mof_N 	N 	0.2403	0.1166	0.2064	-0.165
Mof_C 	C 	0.844	0.7749	0.9408	-0.141
Mof_H 	H 	0.7727	0.7521	0.909	0.064
Mof_N 	N 	0.0927	0.2901	0.4905	-0.123
Mof_C 	C 	0.0611	0.8369	0.0279	0.072
Mof_H 	H 	0.1374	0.8595	0.0557	-0.034
Mof_N 	N 	0.6984	0.0223	0.0206	-0.144
Mof_C 	C 	0.2991	0.7413	0.7116	0.005
Mof_N 	N 	0.0991	0.1371	0.246	-0.168
Mof_C 	C 	0.1947	0.6396	0.6116	0.056
Mof_H 	H 	0.1409	0.6329	0.5729	-0.02
Mof_N 	N 	0.7928	0.9825	0.0384	-0.158
Mof_C 	C 	0.9018	0.047	0.4428	0.041
Mof_N 	N 	0.0219	0.1926	0.4045	-0.155
Mof_C 	C 	0.9842	0.1511	0.4479	0.094
Mof_C 	C 	0.9837	0.8933	0.0299	-0.136
Mof_H 	H 	0.0045	0.9508	0.0597	0.061
Mof_C 	C 	0.839	0.0336	0.4821	-0.134
Mof_H 	H 	0.8497	0.0864	0.5135	0.072
Mof_C 	C 	0.81	0.878	0.3933	0.05
Mof_H 	H 	0.7985	0.8225	0.3634	-0.008
Mof_C 	C 	0.2997	0.2068	0.314	-0.015
Mof_C 	C 	0.2165	0.1581	0.2562	0.098
Mof_N 	N 	0.3978	0.2502	0.9545	-0.117
Mof_N 	N 	0.5118	0.312	0.0507	-0.11
Mof_C 	C 	0.429	0.323	0.0036	0.09
Mof_C 	C 	0.372	0.402	0.0057	0.053
Mof_C 	C 	0.403	0.4803	0.0529	-0.134
Mof_H 	H 	0.4614	0.4797	0.0884	0.069
Mof_C 	C 	0.281	0.403	0.9546	-0.149
Mof_H 	H 	0.2558	0.3534	0.9194	0.067
Mof_C 	C 	0.355	0.5599	0.053	0.065
Mof_H 	H 	0.3845	0.6134	0.0861	-0.022
Mof_C 	C 	0.23	0.482	0.9593	0.093
Mof_H 	H 	0.1633	0.4777	0.9265	-0.042
Mof_N 	N 	0.26	0.5589	0.0023	-0.214
Mof_Ag	Ag	0.15393	0.66096	0.99668	0.424
_end
