data_functionalizedCrystal
_audit_creation_method	'EQeq! by Chris Wilmer'
_symmetry_space_group_name_H-M	'P1'
_symmetry_Int_Tables_number	1
_symmetry_cell_setting	triclinic
loop_
_symmetry_equiv_pos_as_xyz
  x,y,z
_cell_length_a	6.9117
_cell_length_b	34.4333
_cell_length_c	13.1416
_cell_angle_alpha	90
_cell_angle_beta	90
_cell_angle_gamma	90
loop_
_atom_site_label
_atom_site_type_symbol
_atom_site_fract_x
_atom_site_fract_y
_atom_site_fract_z
_atom_site_charge
Mof_Eu	Eu	0.1204	0.4823	0.8724	1.031
Mof_Eu	Eu	0.5997	0.0214	0.6337	1.044
Mof_N 	N 	0.8312	0.3044	0.1449	-0.245
Mof_N 	N 	0.513	0.3043	0.9379	-0.238
Mof_O 	O 	0.9797	0.4297	0.9721	-0.49
Mof_O 	O 	0.871	0.4504	0.1234	-0.491
Mof_O 	O 	0.4005	0.4461	0.8837	-0.523
Mof_O 	O 	0.56	0.4281	0.743	-0.504
Mof_O 	O 	0.7727	0.4981	0.792	-0.58
Mof_O 	O 	0.8063	0.5048	0.9562	-0.607
Mof_C 	C 	0.915	0.4246	0.0586	0.446
Mof_C 	C 	0.88	0.3821	0.0898	-0.074
Mof_C 	C 	0.789	0.3726	0.1787	-0.041
Mof_H 	H 	0.7438	0.3923	0.2236	0.053
Mof_C 	C 	0.945	0.3525	0.0252	-0.062
Mof_H 	H 	0.0076	0.3582	0.9626	0.062
Mof_C 	C 	0.764	0.3332	0.202	0.024
Mof_H 	H 	0.6955	0.3267	0.2622	0.009
Mof_C 	C 	0.914	0.3144	0.0565	0.03
Mof_H 	H 	0.9542	0.2942	0.0122	-0.033
Mof_C 	C 	0.483	0.4223	0.8301	0.478
Mof_C 	C 	0.501	0.3813	0.8685	-0.105
Mof_C 	C 	0.422	0.3708	0.9607	-0.019
Mof_H 	H 	0.3594	0.3896	0.0021	0.046
Mof_C 	C 	0.591	0.3527	0.8119	-0.02
Mof_H 	H 	0.6425	0.3586	0.7467	0.042
Mof_C 	C 	0.435	0.3321	0.9929	0.012
Mof_H 	H 	0.3857	0.3256	0.0581	0.017
Mof_C 	C 	0.606	0.3152	0.8514	0.004
Mof_H 	H 	0.6839	0.2967	0.8168	-0.018
Mof_C 	C 	0.707	0.5132	0.8767	0.516
Mof_C 	C 	0.581	0.5407	0.878	-0.086
Mof_C 	C 	0.006	0.9853	0.623	-0.167
Mof_Eu	Eu	0.3796	0.5177	0.3724	1.035
Mof_Eu	Eu	0.9003	0.9786	0.1337	1.038
Mof_N 	N 	0.6688	0.6956	0.6449	-0.242
Mof_N 	N 	0.987	0.6957	0.4379	-0.232
Mof_O 	O 	0.5203	0.5703	0.4721	-0.497
Mof_O 	O 	0.629	0.5496	0.6234	-0.493
Mof_O 	O 	0.0995	0.5539	0.3837	-0.52
Mof_O 	O 	0.94	0.5719	0.243	-0.499
Mof_O 	O 	0.7273	0.5019	0.292	-0.582
Mof_O 	O 	0.6937	0.4952	0.4562	-0.612
Mof_C 	C 	0.585	0.5754	0.5586	0.458
Mof_C 	C 	0.62	0.6179	0.5898	-0.083
Mof_C 	C 	0.711	0.6274	0.6787	-0.032
Mof_H 	H 	0.7562	0.6077	0.7236	0.053
Mof_C 	C 	0.555	0.6475	0.5252	-0.037
Mof_H 	H 	0.4924	0.6418	0.4626	0.049
Mof_C 	C 	0.736	0.6668	0.702	0.023
Mof_H 	H 	0.8045	0.6733	0.7622	0.014
Mof_C 	C 	0.586	0.6856	0.5565	0.022
Mof_H 	H 	0.5458	0.7058	0.5122	-0.025
Mof_C 	C 	0.017	0.5777	0.3301	0.467
Mof_C 	C 	0.999	0.6187	0.3685	-0.091
Mof_C 	C 	0.078	0.6292	0.4607	-0.027
Mof_H 	H 	0.1406	0.6104	0.5021	0.045
Mof_C 	C 	0.909	0.6473	0.3119	-0.026
Mof_H 	H 	0.8575	0.6414	0.2467	0.045
Mof_C 	C 	0.065	0.6679	0.4929	0.006
Mof_H 	H 	0.1143	0.6744	0.5581	0.014
Mof_C 	C 	0.894	0.6848	0.3514	0.008
Mof_H 	H 	0.8161	0.7033	0.3168	-0.018
Mof_C 	C 	0.793	0.4868	0.3767	0.518
Mof_C 	C 	0.919	0.4593	0.378	-0.091
Mof_C 	C 	0.494	0.0147	0.123	-0.167
Mof_Eu	Eu	0.8796	0.9823	0.1276	1.03
Mof_Eu	Eu	0.4003	0.5214	0.3663	1.043
Mof_N 	N 	0.1688	0.8044	0.8551	-0.246
Mof_N 	N 	0.487	0.8043	0.0621	-0.239
Mof_O 	O 	0.0203	0.9297	0.0279	-0.492
Mof_O 	O 	0.129	0.9504	0.8766	-0.492
Mof_O 	O 	0.5995	0.9461	0.1163	-0.523
Mof_O 	O 	0.44	0.9281	0.257	-0.504
Mof_O 	O 	0.2273	0.9981	0.208	-0.58
Mof_O 	O 	0.1937	0.0048	0.0438	-0.607
Mof_C 	C 	0.085	0.9246	0.9414	0.447
Mof_C 	C 	0.12	0.8821	0.9102	-0.075
Mof_C 	C 	0.211	0.8726	0.8213	-0.041
Mof_H 	H 	0.2562	0.8923	0.7764	0.053
Mof_C 	C 	0.055	0.8525	0.9748	-0.061
Mof_H 	H 	0.9924	0.8582	0.0374	0.061
Mof_C 	C 	0.236	0.8332	0.798	0.024
Mof_H 	H 	0.3045	0.8267	0.7378	0.009
Mof_C 	C 	0.086	0.8144	0.9435	0.03
Mof_H 	H 	0.0458	0.7942	0.9878	-0.032
Mof_C 	C 	0.517	0.9223	0.1699	0.478
Mof_C 	C 	0.499	0.8813	0.1315	-0.105
Mof_C 	C 	0.578	0.8708	0.0393	-0.02
Mof_H 	H 	0.6406	0.8896	0.9979	0.047
Mof_C 	C 	0.409	0.8527	0.1881	-0.021
Mof_H 	H 	0.3575	0.8586	0.2533	0.042
Mof_C 	C 	0.565	0.8321	0.0071	0.011
Mof_H 	H 	0.6143	0.8256	0.9419	0.018
Mof_C 	C 	0.394	0.8152	0.1486	0.004
Mof_H 	H 	0.3161	0.7967	0.1832	-0.018
Mof_C 	C 	0.293	0.0132	0.1233	0.517
Mof_C 	C 	0.419	0.0407	0.122	-0.086
Mof_C 	C 	0.994	0.4853	0.377	-0.167
Mof_Eu	Eu	0.6204	0.0177	0.6276	1.035
Mof_Eu	Eu	0.0997	0.4786	0.8663	1.039
Mof_N 	N 	0.3312	0.1956	0.3551	-0.242
Mof_N 	N 	0.013	0.1957	0.5621	-0.232
Mof_O 	O 	0.4797	0.0703	0.5279	-0.497
Mof_O 	O 	0.371	0.0496	0.3766	-0.493
Mof_O 	O 	0.9005	0.0539	0.6163	-0.52
Mof_O 	O 	0.06	0.0719	0.757	-0.499
Mof_O 	O 	0.2727	0.0019	0.708	-0.582
Mof_O 	O 	0.3063	0.9952	0.5438	-0.612
Mof_C 	C 	0.415	0.0754	0.4414	0.458
Mof_C 	C 	0.38	0.1179	0.4102	-0.083
Mof_C 	C 	0.289	0.1274	0.3213	-0.032
Mof_H 	H 	0.2438	0.1077	0.2764	0.053
Mof_C 	C 	0.445	0.1475	0.4748	-0.037
Mof_H 	H 	0.5076	0.1418	0.5374	0.049
Mof_C 	C 	0.264	0.1668	0.298	0.023
Mof_H 	H 	0.1955	0.1733	0.2378	0.014
Mof_C 	C 	0.414	0.1856	0.4435	0.022
Mof_H 	H 	0.4542	0.2058	0.4878	-0.025
Mof_C 	C 	0.983	0.0777	0.6699	0.467
Mof_C 	C 	0.001	0.1187	0.6315	-0.091
Mof_C 	C 	0.922	0.1292	0.5393	-0.027
Mof_H 	H 	0.8594	0.1104	0.4979	0.045
Mof_C 	C 	0.091	0.1473	0.6881	-0.025
Mof_H 	H 	0.1425	0.1414	0.7533	0.045
Mof_C 	C 	0.935	0.1679	0.5071	0.006
Mof_H 	H 	0.8857	0.1744	0.4419	0.014
Mof_C 	C 	0.106	0.1848	0.6486	0.008
Mof_H 	H 	0.1839	0.2033	0.6832	-0.018
Mof_C 	C 	0.207	0.9868	0.6233	0.519
Mof_C 	C 	0.081	0.9593	0.622	-0.091
Mof_C 	C 	0.506	0.5147	0.877	-0.168
Mof_Eu	Eu	0.8796	0.5177	0.1276	1.03
Mof_Eu	Eu	0.4003	0.9786	0.3663	1.043
Mof_N 	N 	0.1688	0.6956	0.8551	-0.246
Mof_N 	N 	0.487	0.6957	0.0621	-0.239
Mof_O 	O 	0.0203	0.5703	0.0279	-0.491
Mof_O 	O 	0.129	0.5496	0.8766	-0.492
Mof_O 	O 	0.5995	0.5539	0.1163	-0.523
Mof_O 	O 	0.44	0.5719	0.257	-0.504
Mof_O 	O 	0.2273	0.5019	0.208	-0.58
Mof_O 	O 	0.1937	0.4952	0.0438	-0.607
Mof_C 	C 	0.085	0.5754	0.9414	0.446
Mof_C 	C 	0.12	0.6179	0.9102	-0.074
Mof_C 	C 	0.211	0.6274	0.8213	-0.041
Mof_H 	H 	0.2562	0.6077	0.7764	0.053
Mof_C 	C 	0.055	0.6475	0.9748	-0.062
Mof_H 	H 	0.9924	0.6418	0.0374	0.062
Mof_C 	C 	0.236	0.6668	0.798	0.024
Mof_H 	H 	0.3045	0.6733	0.7378	0.009
Mof_C 	C 	0.086	0.6856	0.9435	0.03
Mof_H 	H 	0.0458	0.7058	0.9878	-0.033
Mof_C 	C 	0.517	0.5777	0.1699	0.478
Mof_C 	C 	0.499	0.6187	0.1315	-0.105
Mof_C 	C 	0.578	0.6292	0.0393	-0.019
Mof_H 	H 	0.6406	0.6104	0.9979	0.046
Mof_C 	C 	0.409	0.6473	0.1881	-0.02
Mof_H 	H 	0.3575	0.6414	0.2533	0.042
Mof_C 	C 	0.565	0.6679	0.0071	0.012
Mof_H 	H 	0.6143	0.6744	0.9419	0.017
Mof_C 	C 	0.394	0.6848	0.1486	0.004
Mof_H 	H 	0.3161	0.7033	0.1832	-0.018
Mof_C 	C 	0.293	0.4868	0.1233	0.516
Mof_C 	C 	0.419	0.4593	0.122	-0.086
Mof_C 	C 	0.994	0.0147	0.377	-0.167
Mof_Eu	Eu	0.6204	0.4823	0.6276	1.035
Mof_Eu	Eu	0.0997	0.0214	0.8663	1.038
Mof_N 	N 	0.3312	0.3044	0.3551	-0.242
Mof_N 	N 	0.013	0.3043	0.5621	-0.232
Mof_O 	O 	0.4797	0.4297	0.5279	-0.497
Mof_O 	O 	0.371	0.4504	0.3766	-0.493
Mof_O 	O 	0.9005	0.4461	0.6163	-0.52
Mof_O 	O 	0.06	0.4281	0.757	-0.499
Mof_O 	O 	0.2727	0.4981	0.708	-0.582
Mof_O 	O 	0.3063	0.5048	0.5438	-0.612
Mof_C 	C 	0.415	0.4246	0.4414	0.458
Mof_C 	C 	0.38	0.3821	0.4102	-0.083
Mof_C 	C 	0.289	0.3726	0.3213	-0.032
Mof_H 	H 	0.2438	0.3923	0.2764	0.053
Mof_C 	C 	0.445	0.3525	0.4748	-0.037
Mof_H 	H 	0.5076	0.3582	0.5374	0.049
Mof_C 	C 	0.264	0.3332	0.298	0.023
Mof_H 	H 	0.1955	0.3267	0.2378	0.014
Mof_C 	C 	0.414	0.3144	0.4435	0.022
Mof_H 	H 	0.4542	0.2942	0.4878	-0.025
Mof_C 	C 	0.983	0.4223	0.6699	0.467
Mof_C 	C 	0.001	0.3813	0.6315	-0.091
Mof_C 	C 	0.922	0.3708	0.5393	-0.027
Mof_H 	H 	0.8594	0.3896	0.4979	0.045
Mof_C 	C 	0.091	0.3527	0.6881	-0.026
Mof_H 	H 	0.1425	0.3586	0.7533	0.045
Mof_C 	C 	0.935	0.3321	0.5071	0.006
Mof_H 	H 	0.8857	0.3256	0.4419	0.014
Mof_C 	C 	0.106	0.3152	0.6486	0.008
Mof_H 	H 	0.1839	0.2967	0.6832	-0.018
Mof_C 	C 	0.207	0.5132	0.6233	0.518
Mof_C 	C 	0.081	0.5407	0.622	-0.091
Mof_C 	C 	0.506	0.9853	0.877	-0.167
Mof_Eu	Eu	0.1204	0.0177	0.8724	1.03
Mof_Eu	Eu	0.5997	0.4786	0.6337	1.043
Mof_N 	N 	0.8312	0.1956	0.1449	-0.246
Mof_N 	N 	0.513	0.1957	0.9379	-0.239
Mof_O 	O 	0.9797	0.0703	0.9721	-0.492
Mof_O 	O 	0.871	0.0496	0.1234	-0.492
Mof_O 	O 	0.4005	0.0539	0.8837	-0.523
Mof_O 	O 	0.56	0.0719	0.743	-0.504
Mof_O 	O 	0.7727	0.0019	0.792	-0.58
Mof_O 	O 	0.8063	0.9952	0.9562	-0.607
Mof_C 	C 	0.915	0.0754	0.0586	0.447
Mof_C 	C 	0.88	0.1179	0.0898	-0.075
Mof_C 	C 	0.789	0.1274	0.1787	-0.041
Mof_H 	H 	0.7438	0.1077	0.2236	0.053
Mof_C 	C 	0.945	0.1475	0.0252	-0.061
Mof_H 	H 	0.0076	0.1418	0.9626	0.061
Mof_C 	C 	0.764	0.1668	0.202	0.024
Mof_H 	H 	0.6955	0.1733	0.2622	0.009
Mof_C 	C 	0.914	0.1856	0.0565	0.03
Mof_H 	H 	0.9542	0.2058	0.0122	-0.032
Mof_C 	C 	0.483	0.0777	0.8301	0.478
Mof_C 	C 	0.501	0.1187	0.8685	-0.105
Mof_C 	C 	0.422	0.1292	0.9607	-0.02
Mof_H 	H 	0.3594	0.1104	0.0021	0.047
Mof_C 	C 	0.591	0.1473	0.8119	-0.021
Mof_H 	H 	0.6425	0.1414	0.7467	0.042
Mof_C 	C 	0.435	0.1679	0.9929	0.011
Mof_H 	H 	0.3857	0.1744	0.0581	0.018
Mof_C 	C 	0.606	0.1848	0.8514	0.004
Mof_H 	H 	0.6839	0.2033	0.8168	-0.018
Mof_C 	C 	0.707	0.9868	0.8767	0.517
Mof_C 	C 	0.581	0.9593	0.878	-0.086
Mof_C 	C 	0.006	0.5147	0.623	-0.167
Mof_Eu	Eu	0.3796	0.9823	0.3724	1.035
Mof_Eu	Eu	0.9003	0.5214	0.1337	1.039
Mof_N 	N 	0.6688	0.8044	0.6449	-0.242
Mof_N 	N 	0.987	0.8043	0.4379	-0.232
Mof_O 	O 	0.5203	0.9297	0.4721	-0.497
Mof_O 	O 	0.629	0.9504	0.6234	-0.493
Mof_O 	O 	0.0995	0.9461	0.3837	-0.52
Mof_O 	O 	0.94	0.9281	0.243	-0.499
Mof_O 	O 	0.7273	0.9981	0.292	-0.582
Mof_O 	O 	0.6937	0.0048	0.4562	-0.612
Mof_C 	C 	0.585	0.9246	0.5586	0.458
Mof_C 	C 	0.62	0.8821	0.5898	-0.083
Mof_C 	C 	0.711	0.8726	0.6787	-0.032
Mof_H 	H 	0.7562	0.8923	0.7236	0.053
Mof_C 	C 	0.555	0.8525	0.5252	-0.037
Mof_H 	H 	0.4924	0.8582	0.4626	0.049
Mof_C 	C 	0.736	0.8332	0.702	0.023
Mof_H 	H 	0.8045	0.8267	0.7622	0.014
Mof_C 	C 	0.586	0.8144	0.5565	0.022
Mof_H 	H 	0.5458	0.7942	0.5122	-0.025
Mof_C 	C 	0.017	0.9223	0.3301	0.467
Mof_C 	C 	0.999	0.8813	0.3685	-0.091
Mof_C 	C 	0.078	0.8708	0.4607	-0.027
Mof_H 	H 	0.1406	0.8896	0.5021	0.045
Mof_C 	C 	0.909	0.8527	0.3119	-0.025
Mof_H 	H 	0.8575	0.8586	0.2467	0.045
Mof_C 	C 	0.065	0.8321	0.4929	0.006
Mof_H 	H 	0.1143	0.8256	0.5581	0.014
Mof_C 	C 	0.894	0.8152	0.3514	0.008
Mof_H 	H 	0.8161	0.7967	0.3168	-0.018
Mof_C 	C 	0.793	0.0132	0.3767	0.519
Mof_C 	C 	0.919	0.0407	0.378	-0.091
Mof_C 	C 	0.494	0.4853	0.123	-0.168
Mof_Cu	Cu	0.484	0.25	0.9753	0.832
Mof_Cu	Cu	0.3122	0.25	0.3185	0.843
Mof_Cl	Cl	0.312	0.25	0.1362	-0.693
Mof_Cu	Cu	0.016	0.75	0.4753	0.827
Mof_Cu	Cu	0.1878	0.75	0.8185	0.839
Mof_Cl	Cl	0.188	0.75	0.6362	-0.705
Mof_Cu	Cu	0.516	0.75	0.0247	0.832
Mof_Cu	Cu	0.6878	0.75	0.6815	0.843
Mof_Cl	Cl	0.688	0.75	0.8638	-0.693
Mof_Cu	Cu	0.984	0.25	0.5247	0.827
Mof_Cu	Cu	0.8122	0.25	0.1815	0.839
Mof_Cl	Cl	0.812	0.25	0.3638	-0.705
_end
