data_functionalizedCrystal
_audit_creation_method	'EQeq! by Chris Wilmer'
_symmetry_space_group_name_H-M	'P1'
_symmetry_Int_Tables_number	1
_symmetry_cell_setting	triclinic
loop_
_symmetry_equiv_pos_as_xyz
  x,y,z
_cell_length_a	16.8014
_cell_length_b	14.173
_cell_length_c	33.1813
_cell_angle_alpha	90
_cell_angle_beta	96.641
_cell_angle_gamma	90
loop_
_atom_site_label
_atom_site_type_symbol
_atom_site_fract_x
_atom_site_fract_y
_atom_site_fract_z
_atom_site_charge
Mof_Co	Co	0.00688	0.09479	0.41734	1.13
Mof_Co	Co	0.92549	0.07049	0.50288	1.13
Mof_Co	Co	0.91897	0.9585	0.33322	1.129
Mof_Co	Co	0.09	0.06817	0.33554	1.122
Mof_C 	C 	0.1882	0.1368	0.2639	0.038
Mof_C 	C 	0.1869	0.1118	0.2238	0.063
Mof_C 	C 	0.2372	0.1512	0.1963	-0.128
Mof_H 	H 	0.2348	0.1339	0.1692	0.059
Mof_C 	C 	0.2907	0.2187	0.2147	0.014
Mof_H 	H 	0.3246	0.2504	0.199	0.03
Mof_C 	C 	0.2941	0.24	0.257	-0.077
Mof_C 	C 	0.2428	0.2007	0.2816	-0.069
Mof_H 	H 	0.245	0.2165	0.3089	0.065
Mof_C 	C 	0.3599	0.309	0.2739	0.359
Mof_C 	C 	0.3159	0.3977	0.4041	0.034
Mof_C 	C 	0.3164	0.4195	0.4444	0.067
Mof_C 	C 	0.2674	0.3801	0.4699	-0.144
Mof_H 	H 	0.2705	0.3961	0.4972	0.067
Mof_C 	C 	0.2124	0.3141	0.4522	0.033
Mof_H 	H 	0.1757	0.2876	0.4678	0.023
Mof_C 	C 	0.2108	0.2869	0.412	-0.094
Mof_C 	C 	0.2605	0.328	0.3881	-0.057
Mof_H 	H 	0.2585	0.3104	0.361	0.061
Mof_C 	C 	0.1484	0.2153	0.3949	0.379
Mof_C 	C 	0.1966	0.9168	0.3914	0.086
Mof_C 	C 	0.1989	0.8898	0.4316	0.026
Mof_C 	C 	0.3063	0.8148	0.3841	0.034
Mof_H 	H 	0.3441	0.7889	0.369	0.02
Mof_C 	C 	0.3081	0.792	0.4268	-0.088
Mof_C 	C 	0.2519	0.8275	0.4492	-0.056
Mof_H 	H 	0.2504	0.8089	0.4759	0.06
Mof_C 	C 	0.2497	0.8736	0.3664	-0.146
Mof_H 	H 	0.2454	0.8856	0.3386	0.068
Mof_C 	C 	0.3713	0.722	0.4443	0.363
Mof_N 	N 	0.1294	0.0815	0.28	-0.219
Mof_N 	N 	0.0944	0.0307	0.2495	-0.19
Mof_N 	N 	0.1254	0.0478	0.2154	-0.217
Mof_N 	N 	0.3723	0.451	0.3875	-0.224
Mof_N 	N 	0.4056	0.5036	0.4184	-0.191
Mof_N 	N 	0.3738	0.4915	0.4534	-0.221
Mof_N 	N 	0.1374	0.9785	0.3812	-0.227
Mof_N 	N 	0.1017	0.9897	0.415	-0.191
Mof_N 	N 	0.1367	0.9411	0.4465	-0.212
Mof_O 	O 	0.0237	0.9406	0.3117	-0.717
Mof_O 	O 	0.9854	0.0863	0.3556	-0.701
Mof_O 	O 	0.0293	0.0688	0.4776	-0.738
Mof_O 	O 	0.3537	0.3464	0.308	-0.457
Mof_O 	O 	0.4143	0.3262	0.252	-0.443
Mof_O 	O 	0.1532	0.183	0.3603	-0.466
Mof_O 	O 	0.0983	0.194	0.4183	-0.455
Mof_O 	O 	0.3655	0.6876	0.4785	-0.456
Mof_O 	O 	0.4277	0.7072	0.4227	-0.434
Mof_H 	H 	0.069	0.103	0.495	0.165
Mof_H 	H 	0.027	0.877	0.322	0.139
Mof_H 	H 	0.956	0.143	0.347	0.177
Mof_Co	Co	0.50688	0.59479	0.41734	1.15
Mof_Co	Co	0.42549	0.57049	0.50288	1.121
Mof_Co	Co	0.41897	0.4585	0.33322	1.12
Mof_Co	Co	0.59	0.56817	0.33554	1.133
Mof_C 	C 	0.6882	0.6368	0.2639	0.042
Mof_C 	C 	0.6869	0.6118	0.2238	0.064
Mof_C 	C 	0.7372	0.6512	0.1963	-0.124
Mof_H 	H 	0.7348	0.6339	0.1692	0.06
Mof_C 	C 	0.7907	0.7187	0.2147	0.014
Mof_H 	H 	0.8246	0.7504	0.199	0.033
Mof_C 	C 	0.7941	0.74	0.257	-0.071
Mof_C 	C 	0.7428	0.7007	0.2816	-0.069
Mof_H 	H 	0.745	0.7165	0.3089	0.068
Mof_C 	C 	0.8599	0.809	0.2739	0.358
Mof_C 	C 	0.8159	0.8977	0.4041	0.038
Mof_C 	C 	0.8164	0.9195	0.4444	0.068
Mof_C 	C 	0.7674	0.8801	0.4699	-0.139
Mof_H 	H 	0.7705	0.8961	0.4972	0.068
Mof_C 	C 	0.7124	0.8141	0.4522	0.033
Mof_H 	H 	0.6757	0.7876	0.4678	0.028
Mof_C 	C 	0.7108	0.7869	0.412	-0.089
Mof_C 	C 	0.7605	0.828	0.3881	-0.056
Mof_H 	H 	0.7585	0.8104	0.361	0.063
Mof_C 	C 	0.6484	0.7153	0.3949	0.38
Mof_C 	C 	0.6966	0.4168	0.3914	0.087
Mof_C 	C 	0.6989	0.3898	0.4316	0.031
Mof_C 	C 	0.8063	0.3148	0.3841	0.033
Mof_H 	H 	0.8441	0.2889	0.369	0.024
Mof_C 	C 	0.8081	0.292	0.4268	-0.082
Mof_C 	C 	0.7519	0.3275	0.4492	-0.057
Mof_H 	H 	0.7504	0.3089	0.4759	0.063
Mof_C 	C 	0.7497	0.3736	0.3664	-0.141
Mof_H 	H 	0.7454	0.3856	0.3386	0.069
Mof_C 	C 	0.8713	0.222	0.4443	0.361
Mof_N 	N 	0.6294	0.5815	0.28	-0.216
Mof_N 	N 	0.5944	0.5307	0.2495	-0.185
Mof_N 	N 	0.6254	0.5478	0.2154	-0.214
Mof_N 	N 	0.8723	0.951	0.3875	-0.221
Mof_N 	N 	0.9056	0.0036	0.4184	-0.181
Mof_N 	N 	0.8738	0.9915	0.4534	-0.217
Mof_N 	N 	0.6374	0.4785	0.3812	-0.224
Mof_N 	N 	0.6017	0.4897	0.415	-0.186
Mof_N 	N 	0.6367	0.4411	0.4465	-0.21
Mof_O 	O 	0.5237	0.4406	0.3117	-0.699
Mof_O 	O 	0.4854	0.5863	0.3556	-0.729
Mof_O 	O 	0.5293	0.5688	0.4776	-0.717
Mof_O 	O 	0.8537	0.8464	0.308	-0.449
Mof_O 	O 	0.9143	0.8262	0.252	-0.425
Mof_O 	O 	0.6532	0.683	0.3603	-0.459
Mof_O 	O 	0.5983	0.694	0.4183	-0.444
Mof_O 	O 	0.8655	0.1876	0.4785	-0.448
Mof_O 	O 	0.9277	0.2072	0.4227	-0.415
Mof_H 	H 	0.569	0.603	0.495	0.167
Mof_H 	H 	0.527	0.377	0.322	0.147
Mof_H 	H 	0.456	0.643	0.347	0.174
Mof_Co	Co	0.99312	0.09479	0.08266	1.17
Mof_Co	Co	0.07451	0.07049	0.99712	1.111
Mof_Co	Co	0.08103	0.9585	0.16678	1.111
Mof_Co	Co	0.91	0.06817	0.16446	1.142
Mof_C 	C 	0.8118	0.1368	0.2361	0.043
Mof_C 	C 	0.8131	0.1118	0.2762	0.064
Mof_C 	C 	0.7628	0.1512	0.3037	-0.125
Mof_H 	H 	0.7652	0.1339	0.3308	0.059
Mof_C 	C 	0.7093	0.2187	0.2853	0.015
Mof_H 	H 	0.6754	0.2504	0.301	0.03
Mof_C 	C 	0.7059	0.24	0.243	-0.074
Mof_C 	C 	0.7572	0.2007	0.2184	-0.067
Mof_H 	H 	0.755	0.2165	0.1911	0.067
Mof_C 	C 	0.6401	0.309	0.2261	0.359
Mof_C 	C 	0.6841	0.3977	0.0959	0.037
Mof_C 	C 	0.6836	0.4195	0.0556	0.067
Mof_C 	C 	0.7326	0.3801	0.0301	-0.138
Mof_H 	H 	0.7295	0.3961	0.0028	0.069
Mof_C 	C 	0.7876	0.3141	0.0478	0.032
Mof_H 	H 	0.8243	0.2876	0.0322	0.032
Mof_C 	C 	0.7892	0.2869	0.088	-0.087
Mof_C 	C 	0.7395	0.328	0.1119	-0.057
Mof_H 	H 	0.7415	0.3104	0.139	0.064
Mof_C 	C 	0.8516	0.2153	0.1051	0.38
Mof_C 	C 	0.8034	0.9168	0.1086	0.087
Mof_C 	C 	0.8011	0.8898	0.0684	0.03
Mof_C 	C 	0.6937	0.8148	0.1159	0.035
Mof_H 	H 	0.6559	0.7889	0.131	0.02
Mof_C 	C 	0.6919	0.792	0.0732	-0.086
Mof_C 	C 	0.7481	0.8275	0.0508	-0.055
Mof_H 	H 	0.7496	0.8089	0.0241	0.061
Mof_C 	C 	0.7503	0.8736	0.1336	-0.143
Mof_H 	H 	0.7546	0.8856	0.1614	0.068
Mof_C 	C 	0.6287	0.722	0.0557	0.364
Mof_N 	N 	0.8706	0.0815	0.22	-0.214
Mof_N 	N 	0.9056	0.0307	0.2505	-0.175
Mof_N 	N 	0.8746	0.0478	0.2846	-0.211
Mof_N 	N 	0.6277	0.451	0.1125	-0.224
Mof_N 	N 	0.5944	0.5036	0.0816	-0.191
Mof_N 	N 	0.6262	0.4915	0.0466	-0.22
Mof_N 	N 	0.8626	0.9785	0.1188	-0.223
Mof_N 	N 	0.8983	0.9897	0.085	-0.181
Mof_N 	N 	0.8633	0.9411	0.0535	-0.209
Mof_O 	O 	0.9763	0.9406	0.1883	-0.676
Mof_O 	O 	0.0146	0.0863	0.1444	-0.756
Mof_O 	O 	0.9707	0.0688	0.0224	-0.695
Mof_O 	O 	0.6463	0.3464	0.192	-0.455
Mof_O 	O 	0.5857	0.3262	0.248	-0.443
Mof_O 	O 	0.8468	0.183	0.1397	-0.454
Mof_O 	O 	0.9017	0.194	0.0817	-0.433
Mof_O 	O 	0.6345	0.6876	0.0215	-0.455
Mof_O 	O 	0.5723	0.7072	0.0773	-0.434
Mof_H 	H 	0.931	0.103	0.005	0.168
Mof_H 	H 	0.973	0.877	0.178	0.155
Mof_H 	H 	0.044	0.143	0.153	0.171
Mof_Co	Co	0.49312	0.59479	0.08266	1.15
Mof_Co	Co	0.57451	0.57049	0.99712	1.122
Mof_Co	Co	0.58103	0.4585	0.16678	1.12
Mof_Co	Co	0.41	0.56817	0.16446	1.132
Mof_C 	C 	0.3118	0.6368	0.2361	0.039
Mof_C 	C 	0.3131	0.6118	0.2762	0.063
Mof_C 	C 	0.2628	0.6512	0.3037	-0.128
Mof_H 	H 	0.2652	0.6339	0.3308	0.057
Mof_C 	C 	0.2093	0.7187	0.2853	0.014
Mof_H 	H 	0.1754	0.7504	0.301	0.027
Mof_C 	C 	0.2059	0.74	0.243	-0.079
Mof_C 	C 	0.2572	0.7007	0.2184	-0.068
Mof_H 	H 	0.255	0.7165	0.1911	0.065
Mof_C 	C 	0.1401	0.809	0.2261	0.359
Mof_C 	C 	0.1841	0.8977	0.0959	0.033
Mof_C 	C 	0.1836	0.9195	0.0556	0.066
Mof_C 	C 	0.2326	0.8801	0.0301	-0.142
Mof_H 	H 	0.2295	0.8961	0.0028	0.068
Mof_C 	C 	0.2876	0.8141	0.0478	0.033
Mof_H 	H 	0.3243	0.7876	0.0322	0.028
Mof_C 	C 	0.2892	0.7869	0.088	-0.092
Mof_C 	C 	0.2395	0.828	0.1119	-0.058
Mof_H 	H 	0.2415	0.8104	0.139	0.061
Mof_C 	C 	0.3516	0.7153	0.1051	0.379
Mof_C 	C 	0.3034	0.4168	0.1086	0.087
Mof_C 	C 	0.3011	0.3898	0.0684	0.026
Mof_C 	C 	0.1937	0.3148	0.1159	0.036
Mof_H 	H 	0.1559	0.2889	0.131	0.015
Mof_C 	C 	0.1919	0.292	0.0732	-0.092
Mof_C 	C 	0.2481	0.3275	0.0508	-0.054
Mof_H 	H 	0.2496	0.3089	0.0241	0.059
Mof_C 	C 	0.2503	0.3736	0.1336	-0.147
Mof_H 	H 	0.2546	0.3856	0.1614	0.067
Mof_C 	C 	0.1287	0.222	0.0557	0.365
Mof_N 	N 	0.3706	0.5815	0.22	-0.217
Mof_N 	N 	0.4056	0.5307	0.2505	-0.185
Mof_N 	N 	0.3746	0.5478	0.2846	-0.214
Mof_N 	N 	0.1277	0.951	0.1125	-0.227
Mof_N 	N 	0.0944	0.0036	0.0816	-0.199
Mof_N 	N 	0.1262	0.9915	0.0466	-0.224
Mof_N 	N 	0.3626	0.4785	0.1188	-0.225
Mof_N 	N 	0.3983	0.4897	0.085	-0.186
Mof_N 	N 	0.3633	0.4411	0.0535	-0.211
Mof_O 	O 	0.4763	0.4406	0.1883	-0.7
Mof_O 	O 	0.5146	0.5863	0.1444	-0.729
Mof_O 	O 	0.4707	0.5688	0.0224	-0.717
Mof_O 	O 	0.1463	0.8464	0.192	-0.462
Mof_O 	O 	0.0857	0.8262	0.248	-0.454
Mof_O 	O 	0.3468	0.683	0.1397	-0.461
Mof_O 	O 	0.4017	0.694	0.0817	-0.444
Mof_O 	O 	0.1345	0.1876	0.0215	-0.462
Mof_O 	O 	0.0723	0.2072	0.0773	-0.452
Mof_H 	H 	0.431	0.603	0.005	0.167
Mof_H 	H 	0.473	0.377	0.178	0.147
Mof_H 	H 	0.544	0.643	0.153	0.174
Mof_Co	Co	0.99312	0.90521	0.58266	1.17
Mof_Co	Co	0.07451	0.92951	0.49712	1.111
Mof_Co	Co	0.08103	0.0415	0.66678	1.111
Mof_Co	Co	0.91	0.93183	0.66446	1.142
Mof_C 	C 	0.8118	0.8632	0.7361	0.043
Mof_C 	C 	0.8131	0.8882	0.7762	0.064
Mof_C 	C 	0.7628	0.8488	0.8037	-0.125
Mof_H 	H 	0.7652	0.8661	0.8308	0.059
Mof_C 	C 	0.7093	0.7813	0.7853	0.015
Mof_H 	H 	0.6754	0.7496	0.801	0.03
Mof_C 	C 	0.7059	0.76	0.743	-0.074
Mof_C 	C 	0.7572	0.7993	0.7184	-0.067
Mof_H 	H 	0.755	0.7835	0.6911	0.067
Mof_C 	C 	0.6401	0.691	0.7261	0.359
Mof_C 	C 	0.6841	0.6023	0.5959	0.037
Mof_C 	C 	0.6836	0.5805	0.5556	0.067
Mof_C 	C 	0.7326	0.6199	0.5301	-0.138
Mof_H 	H 	0.7295	0.6039	0.5028	0.069
Mof_C 	C 	0.7876	0.6859	0.5478	0.032
Mof_H 	H 	0.8243	0.7124	0.5322	0.032
Mof_C 	C 	0.7892	0.7131	0.588	-0.087
Mof_C 	C 	0.7395	0.672	0.6119	-0.057
Mof_H 	H 	0.7415	0.6896	0.639	0.064
Mof_C 	C 	0.8516	0.7847	0.6051	0.38
Mof_C 	C 	0.8034	0.0832	0.6086	0.087
Mof_C 	C 	0.8011	0.1102	0.5684	0.031
Mof_C 	C 	0.6937	0.1852	0.6159	0.035
Mof_H 	H 	0.6559	0.2111	0.631	0.02
Mof_C 	C 	0.6919	0.208	0.5732	-0.086
Mof_C 	C 	0.7481	0.1725	0.5508	-0.055
Mof_H 	H 	0.7496	0.1911	0.5241	0.061
Mof_C 	C 	0.7503	0.1264	0.6336	-0.143
Mof_H 	H 	0.7546	0.1144	0.6614	0.068
Mof_C 	C 	0.6287	0.278	0.5557	0.364
Mof_N 	N 	0.8706	0.9185	0.72	-0.214
Mof_N 	N 	0.9056	0.9693	0.7505	-0.175
Mof_N 	N 	0.8746	0.9522	0.7846	-0.211
Mof_N 	N 	0.6277	0.549	0.6125	-0.224
Mof_N 	N 	0.5944	0.4964	0.5816	-0.191
Mof_N 	N 	0.6262	0.5085	0.5466	-0.22
Mof_N 	N 	0.8626	0.0215	0.6188	-0.223
Mof_N 	N 	0.8983	0.0103	0.585	-0.181
Mof_N 	N 	0.8633	0.0589	0.5535	-0.209
Mof_O 	O 	0.9763	0.0594	0.6883	-0.676
Mof_O 	O 	0.0146	0.9137	0.6444	-0.757
Mof_O 	O 	0.9707	0.9312	0.5224	-0.695
Mof_O 	O 	0.6463	0.6536	0.692	-0.455
Mof_O 	O 	0.5857	0.6738	0.748	-0.443
Mof_O 	O 	0.8468	0.817	0.6397	-0.454
Mof_O 	O 	0.9017	0.806	0.5817	-0.433
Mof_O 	O 	0.6345	0.3124	0.5215	-0.455
Mof_O 	O 	0.5723	0.2928	0.5773	-0.433
Mof_H 	H 	0.931	0.897	0.505	0.168
Mof_H 	H 	0.973	0.123	0.678	0.156
Mof_H 	H 	0.044	0.857	0.653	0.171
Mof_Co	Co	0.49312	0.40521	0.58266	1.15
Mof_Co	Co	0.57451	0.42951	0.49712	1.121
Mof_Co	Co	0.58103	0.5415	0.66678	1.12
Mof_Co	Co	0.41	0.43183	0.66446	1.132
Mof_C 	C 	0.3118	0.3632	0.7361	0.039
Mof_C 	C 	0.3131	0.3882	0.7762	0.063
Mof_C 	C 	0.2628	0.3488	0.8037	-0.128
Mof_H 	H 	0.2652	0.3661	0.8308	0.057
Mof_C 	C 	0.2093	0.2813	0.7853	0.014
Mof_H 	H 	0.1754	0.2496	0.801	0.027
Mof_C 	C 	0.2059	0.26	0.743	-0.079
Mof_C 	C 	0.2572	0.2993	0.7184	-0.068
Mof_H 	H 	0.255	0.2835	0.6911	0.065
Mof_C 	C 	0.1401	0.191	0.7261	0.359
Mof_C 	C 	0.1841	0.1023	0.5959	0.033
Mof_C 	C 	0.1836	0.0805	0.5556	0.066
Mof_C 	C 	0.2326	0.1199	0.5301	-0.142
Mof_H 	H 	0.2295	0.1039	0.5028	0.068
Mof_C 	C 	0.2876	0.1859	0.5478	0.032
Mof_H 	H 	0.3243	0.2124	0.5322	0.027
Mof_C 	C 	0.2892	0.2131	0.588	-0.092
Mof_C 	C 	0.2395	0.172	0.6119	-0.058
Mof_H 	H 	0.2415	0.1896	0.639	0.061
Mof_C 	C 	0.3516	0.2847	0.6051	0.379
Mof_C 	C 	0.3034	0.5832	0.6086	0.087
Mof_C 	C 	0.3011	0.6102	0.5684	0.026
Mof_C 	C 	0.1937	0.6852	0.6159	0.036
Mof_H 	H 	0.1559	0.7111	0.631	0.015
Mof_C 	C 	0.1919	0.708	0.5732	-0.093
Mof_C 	C 	0.2481	0.6725	0.5508	-0.054
Mof_H 	H 	0.2496	0.6911	0.5241	0.059
Mof_C 	C 	0.2503	0.6264	0.6336	-0.148
Mof_H 	H 	0.2546	0.6144	0.6614	0.067
Mof_C 	C 	0.1287	0.778	0.5557	0.366
Mof_N 	N 	0.3706	0.4185	0.72	-0.217
Mof_N 	N 	0.4056	0.4693	0.7505	-0.185
Mof_N 	N 	0.3746	0.4522	0.7846	-0.214
Mof_N 	N 	0.1277	0.049	0.6125	-0.227
Mof_N 	N 	0.0944	0.9964	0.5816	-0.2
Mof_N 	N 	0.1262	0.0085	0.5466	-0.224
Mof_N 	N 	0.3626	0.5215	0.6188	-0.225
Mof_N 	N 	0.3983	0.5103	0.585	-0.186
Mof_N 	N 	0.3633	0.5589	0.5535	-0.211
Mof_O 	O 	0.4763	0.5594	0.6883	-0.7
Mof_O 	O 	0.5146	0.4137	0.6444	-0.729
Mof_O 	O 	0.4707	0.4312	0.5224	-0.717
Mof_O 	O 	0.1463	0.1536	0.692	-0.462
Mof_O 	O 	0.0857	0.1738	0.748	-0.454
Mof_O 	O 	0.3468	0.317	0.6397	-0.461
Mof_O 	O 	0.4017	0.306	0.5817	-0.444
Mof_O 	O 	0.1345	0.8124	0.5215	-0.463
Mof_O 	O 	0.0723	0.7928	0.5773	-0.452
Mof_H 	H 	0.431	0.397	0.505	0.166
Mof_H 	H 	0.473	0.623	0.678	0.147
Mof_H 	H 	0.544	0.357	0.653	0.174
Mof_Co	Co	0.00688	0.90521	0.91734	1.131
Mof_Co	Co	0.92549	0.92951	0.00288	1.131
Mof_Co	Co	0.91897	0.0415	0.83322	1.13
Mof_Co	Co	0.09	0.93183	0.83554	1.123
Mof_C 	C 	0.1882	0.8632	0.7639	0.037
Mof_C 	C 	0.1869	0.8882	0.7238	0.063
Mof_C 	C 	0.2372	0.8488	0.6963	-0.128
Mof_H 	H 	0.2348	0.8661	0.6692	0.059
Mof_C 	C 	0.2907	0.7813	0.7147	0.014
Mof_H 	H 	0.3246	0.7496	0.699	0.03
Mof_C 	C 	0.2941	0.76	0.757	-0.077
Mof_C 	C 	0.2428	0.7993	0.7816	-0.069
Mof_H 	H 	0.245	0.7835	0.8089	0.065
Mof_C 	C 	0.3599	0.691	0.7739	0.359
Mof_C 	C 	0.3159	0.6023	0.9041	0.034
Mof_C 	C 	0.3164	0.5805	0.9444	0.067
Mof_C 	C 	0.2674	0.6199	0.9699	-0.144
Mof_H 	H 	0.2705	0.6039	0.9972	0.067
Mof_C 	C 	0.2124	0.6859	0.9522	0.033
Mof_H 	H 	0.1757	0.7124	0.9678	0.023
Mof_C 	C 	0.2108	0.7131	0.912	-0.094
Mof_C 	C 	0.2605	0.672	0.8881	-0.057
Mof_H 	H 	0.2585	0.6896	0.861	0.061
Mof_C 	C 	0.1484	0.7847	0.8949	0.379
Mof_C 	C 	0.1966	0.0832	0.8914	0.086
Mof_C 	C 	0.1989	0.1102	0.9316	0.026
Mof_C 	C 	0.3063	0.1852	0.8841	0.035
Mof_H 	H 	0.3441	0.2111	0.869	0.02
Mof_C 	C 	0.3081	0.208	0.9268	-0.088
Mof_C 	C 	0.2519	0.1725	0.9492	-0.056
Mof_H 	H 	0.2504	0.1911	0.9759	0.06
Mof_C 	C 	0.2497	0.1264	0.8664	-0.146
Mof_H 	H 	0.2454	0.1144	0.8386	0.068
Mof_C 	C 	0.3713	0.278	0.9443	0.363
Mof_N 	N 	0.1294	0.9185	0.78	-0.219
Mof_N 	N 	0.0944	0.9693	0.7495	-0.19
Mof_N 	N 	0.1254	0.9522	0.7154	-0.217
Mof_N 	N 	0.3723	0.549	0.8875	-0.224
Mof_N 	N 	0.4056	0.4964	0.9184	-0.191
Mof_N 	N 	0.3738	0.5085	0.9534	-0.221
Mof_N 	N 	0.1374	0.0215	0.8812	-0.227
Mof_N 	N 	0.1017	0.0103	0.915	-0.191
Mof_N 	N 	0.1367	0.0589	0.9465	-0.212
Mof_O 	O 	0.0237	0.0594	0.8117	-0.717
Mof_O 	O 	0.9854	0.9137	0.8556	-0.7
Mof_O 	O 	0.0293	0.9312	0.9776	-0.738
Mof_O 	O 	0.3537	0.6536	0.808	-0.457
Mof_O 	O 	0.4143	0.6738	0.752	-0.443
Mof_O 	O 	0.1532	0.817	0.8603	-0.466
Mof_O 	O 	0.0983	0.806	0.9183	-0.455
Mof_O 	O 	0.3655	0.3124	0.9785	-0.456
Mof_O 	O 	0.4277	0.2928	0.9227	-0.434
Mof_H 	H 	0.069	0.897	0.995	0.165
Mof_H 	H 	0.027	0.123	0.822	0.139
Mof_H 	H 	0.956	0.857	0.847	0.177
Mof_Co	Co	0.50688	0.40521	0.91734	1.15
Mof_Co	Co	0.42549	0.42951	0.00288	1.121
Mof_Co	Co	0.41897	0.5415	0.83322	1.12
Mof_Co	Co	0.59	0.43183	0.83554	1.133
Mof_C 	C 	0.6882	0.3632	0.7639	0.042
Mof_C 	C 	0.6869	0.3882	0.7238	0.064
Mof_C 	C 	0.7372	0.3488	0.6963	-0.124
Mof_H 	H 	0.7348	0.3661	0.6692	0.06
Mof_C 	C 	0.7907	0.2813	0.7147	0.014
Mof_H 	H 	0.8246	0.2496	0.699	0.033
Mof_C 	C 	0.7941	0.26	0.757	-0.071
Mof_C 	C 	0.7428	0.2993	0.7816	-0.069
Mof_H 	H 	0.745	0.2835	0.8089	0.068
Mof_C 	C 	0.8599	0.191	0.7739	0.358
Mof_C 	C 	0.8159	0.1023	0.9041	0.038
Mof_C 	C 	0.8164	0.0805	0.9444	0.068
Mof_C 	C 	0.7674	0.1199	0.9699	-0.139
Mof_H 	H 	0.7705	0.1039	0.9972	0.068
Mof_C 	C 	0.7124	0.1859	0.9522	0.033
Mof_H 	H 	0.6757	0.2124	0.9678	0.028
Mof_C 	C 	0.7108	0.2131	0.912	-0.089
Mof_C 	C 	0.7605	0.172	0.8881	-0.056
Mof_H 	H 	0.7585	0.1896	0.861	0.063
Mof_C 	C 	0.6484	0.2847	0.8949	0.38
Mof_C 	C 	0.6966	0.5832	0.8914	0.087
Mof_C 	C 	0.6989	0.6102	0.9316	0.031
Mof_C 	C 	0.8063	0.6852	0.8841	0.033
Mof_H 	H 	0.8441	0.7111	0.869	0.025
Mof_C 	C 	0.8081	0.708	0.9268	-0.081
Mof_C 	C 	0.7519	0.6725	0.9492	-0.057
Mof_H 	H 	0.7504	0.6911	0.9759	0.063
Mof_C 	C 	0.7497	0.6264	0.8664	-0.141
Mof_H 	H 	0.7454	0.6144	0.8386	0.069
Mof_C 	C 	0.8713	0.778	0.9443	0.361
Mof_N 	N 	0.6294	0.4185	0.78	-0.216
Mof_N 	N 	0.5944	0.4693	0.7495	-0.185
Mof_N 	N 	0.6254	0.4522	0.7154	-0.214
Mof_N 	N 	0.8723	0.049	0.8875	-0.221
Mof_N 	N 	0.9056	0.9964	0.9184	-0.181
Mof_N 	N 	0.8738	0.0085	0.9534	-0.217
Mof_N 	N 	0.6374	0.5215	0.8812	-0.224
Mof_N 	N 	0.6017	0.5103	0.915	-0.186
Mof_N 	N 	0.6367	0.5589	0.9465	-0.21
Mof_O 	O 	0.5237	0.5594	0.8117	-0.699
Mof_O 	O 	0.4854	0.4137	0.8556	-0.729
Mof_O 	O 	0.5293	0.4312	0.9776	-0.717
Mof_O 	O 	0.8537	0.1536	0.808	-0.449
Mof_O 	O 	0.9143	0.1738	0.752	-0.425
Mof_O 	O 	0.6532	0.317	0.8603	-0.459
Mof_O 	O 	0.5983	0.306	0.9183	-0.444
Mof_O 	O 	0.8655	0.8124	0.9785	-0.447
Mof_O 	O 	0.9277	0.7928	0.9227	-0.414
Mof_H 	H 	0.569	0.397	0.995	0.167
Mof_H 	H 	0.527	0.623	0.822	0.147
Mof_H 	H 	0.456	0.357	0.847	0.174
Mof_Co	Co	-7.24275e-18	0.92944	0.25	1.133
Mof_Co	Co	0.5	0.42944	0.25	1.152
Mof_Co	Co	6.19581e-33	0.07056	0.75	1.133
Mof_Co	Co	0.5	0.57056	0.75	1.152
_end
