data_functionalizedCrystal
_audit_creation_method	'EQeq! by Chris Wilmer'
_symmetry_space_group_name_H-M	'P1'
_symmetry_Int_Tables_number	1
_symmetry_cell_setting	triclinic
loop_
_symmetry_equiv_pos_as_xyz
  x,y,z
_cell_length_a	9.4537
_cell_length_b	9.1655
_cell_length_c	9.757
_cell_angle_alpha	90
_cell_angle_beta	117.448
_cell_angle_gamma	90
loop_
_atom_site_label
_atom_site_type_symbol
_atom_site_fract_x
_atom_site_fract_y
_atom_site_fract_z
_atom_site_charge
Mof_P 	P 	0.82937	0.89818	0.06219	0.775
Mof_P 	P 	0.14603	0.65534	0.47196	0.811
Mof_O 	O 	0.9986	0.8502	0.1135	-0.741
Mof_O 	O 	0.2489	0.7301	0.4109	-0.728
Mof_O 	O 	0.7435	0.9394	0.891	-0.688
Mof_O 	O 	0.2542	0.5501	0.5958	-0.727
Mof_O 	O 	0.9987	0.5836	0.3469	-0.756
Mof_O 	O 	0.7274	0.7805	0.0872	-0.669
Mof_O 	O 	0.8397	0.0353	0.1633	-0.515
Mof_H 	H 	0.8915	0.0995	0.1486	0.246
Mof_O 	O 	0.0883	0.7755	0.5524	-0.544
Mof_H 	H 	0.1661	0.816	0.6209	0.306
Mof_P 	P 	0.67063	0.89818	0.43781	0.785
Mof_P 	P 	0.35397	0.65534	0.02804	0.803
Mof_O 	O 	0.5014	0.8502	0.3865	-0.747
Mof_O 	O 	0.2511	0.7301	0.0891	-0.733
Mof_O 	O 	0.7565	0.9394	0.609	-0.695
Mof_O 	O 	0.2458	0.5501	0.9042	-0.721
Mof_O 	O 	0.5013	0.5836	0.1531	-0.757
Mof_O 	O 	0.7726	0.7805	0.4128	-0.668
Mof_O 	O 	0.6603	0.0353	0.3367	-0.52
Mof_H 	H 	0.6085	0.0995	0.3514	0.245
Mof_O 	O 	0.4117	0.7755	0.9476	-0.532
Mof_H 	H 	0.3339	0.816	0.8791	0.304
Mof_P 	P 	0.17063	0.10182	0.93781	0.775
Mof_P 	P 	0.85397	0.34466	0.52804	0.811
Mof_O 	O 	0.0014	0.1498	0.8865	-0.741
Mof_O 	O 	0.7511	0.2699	0.5891	-0.728
Mof_O 	O 	0.2565	0.0606	0.109	-0.688
Mof_O 	O 	0.7458	0.4499	0.4042	-0.727
Mof_O 	O 	0.0013	0.4164	0.6531	-0.756
Mof_O 	O 	0.2726	0.2195	0.9128	-0.669
Mof_O 	O 	0.1603	0.9647	0.8367	-0.515
Mof_H 	H 	0.1085	0.9005	0.8514	0.246
Mof_O 	O 	0.9117	0.2245	0.4476	-0.544
Mof_H 	H 	0.8339	0.184	0.3791	0.306
Mof_P 	P 	0.32937	0.10182	0.56219	0.785
Mof_P 	P 	0.64603	0.34466	0.97196	0.803
Mof_O 	O 	0.4986	0.1498	0.6135	-0.747
Mof_O 	O 	0.7489	0.2699	0.9109	-0.733
Mof_O 	O 	0.2435	0.0606	0.391	-0.695
Mof_O 	O 	0.7542	0.4499	0.0958	-0.721
Mof_O 	O 	0.4987	0.4164	0.8469	-0.757
Mof_O 	O 	0.2274	0.2195	0.5872	-0.668
Mof_O 	O 	0.3397	0.9647	0.6633	-0.52
Mof_H 	H 	0.3915	0.9005	0.6486	0.245
Mof_O 	O 	0.5883	0.2245	0.0524	-0.532
Mof_H 	H 	0.6661	0.184	0.1209	0.304
Mof_In	In	0.25	0.88312	0.25	3.168
Mof_In	In	0.75	0.11688	0.75	3.168
Mof_In	In	0.25	0.39082	0.75	3.298
Mof_In	In	0.75	0.60918	0.25	3.298
_end
