data_functionalizedCrystal
_audit_creation_method	'EQeq! by Chris Wilmer'
_symmetry_space_group_name_H-M	'P1'
_symmetry_Int_Tables_number	1
_symmetry_cell_setting	triclinic
loop_
_symmetry_equiv_pos_as_xyz
  x,y,z
_cell_length_a	16.055
_cell_length_b	17.9369
_cell_length_c	17.9369
_cell_angle_alpha	72.8827
_cell_angle_beta	63.4139
_cell_angle_gamma	63.4138
loop_
_atom_site_label
_atom_site_type_symbol
_atom_site_fract_x
_atom_site_fract_y
_atom_site_fract_z
_atom_site_charge
Mof_K 	K 	0.2589	0.58838	0.91162	3.094
Mof_K 	K 	0.2589	0.91162	0.58838	3.094
Mof_K 	K 	0.7411	0.41162	0.08838	3.094
Mof_K 	K 	0.7411	0.08838	0.41162	3.094
Mof_Cd	Cd	0.12341	0.26738	0.95502	0.423
Mof_Cd	Cd	0.38761	0.37067	0.82005	0.404
Mof_Cd	Cd	0.84581	0.23262	0.54498	0.426
Mof_Cd	Cd	0.07833	0.12933	0.67995	0.405
Mof_Cd	Cd	0.15419	0.45502	0.76738	0.426
Mof_Cd	Cd	0.92167	0.32005	0.87067	0.405
Mof_Cd	Cd	0.87659	0.04498	0.73262	0.423
Mof_Cd	Cd	0.61239	0.17995	0.62933	0.404
Mof_Cd	Cd	0.87659	0.73262	0.04498	0.423
Mof_Cd	Cd	0.61239	0.62933	0.17995	0.404
Mof_Cd	Cd	0.15419	0.76738	0.45502	0.426
Mof_Cd	Cd	0.92167	0.87067	0.32005	0.405
Mof_Cd	Cd	0.84581	0.54498	0.23262	0.426
Mof_Cd	Cd	0.07833	0.67995	0.12933	0.405
Mof_Cd	Cd	0.12341	0.95502	0.26738	0.423
Mof_Cd	Cd	0.38761	0.82005	0.37067	0.404
Mof_C 	C 	0.1024	0.4157	0.0267	-0.039
Mof_C 	C 	0.2002	0.399	0.9552	0.332
Mof_C 	C 	0.0013	0.1578	0.0926	-0.001
Mof_C 	C 	0.9264	0.217	0.0532	0.107
Mof_C 	C 	0.2403	0.8108	0.151	0.019
Mof_C 	C 	0.227	0.755	0.1212	-0.021
Mof_C 	C 	0.3225	0.8401	0.1321	0.283
Mof_C 	C 	0.289	0.6974	0.054	0.366
Mof_C 	C 	0.0448	0.0843	0.4733	-0.041
Mof_C 	C 	0.0544	0.101	0.5448	0.341
Mof_C 	C 	0.7517	0.3422	0.4074	-0.011
Mof_C 	C 	0.6966	0.283	0.4468	0.124
Mof_C 	C 	0.7021	0.6892	0.349	0.019
Mof_C 	C 	0.6032	0.745	0.3788	-0.021
Mof_C 	C 	0.7947	0.6599	0.3679	0.283
Mof_C 	C 	0.5404	0.8026	0.446	0.366
Mof_C 	C 	0.9552	0.5267	0.9157	-0.041
Mof_C 	C 	0.9456	0.4552	0.899	0.341
Mof_C 	C 	0.2483	0.5926	0.6578	-0.011
Mof_C 	C 	0.3034	0.5532	0.717	0.124
Mof_C 	C 	0.2979	0.651	0.3108	0.019
Mof_C 	C 	0.3968	0.6212	0.255	-0.021
Mof_C 	C 	0.2053	0.6321	0.3401	0.283
Mof_C 	C 	0.4596	0.554	0.1974	0.366
Mof_C 	C 	0.8976	0.9733	0.5843	-0.039
Mof_C 	C 	0.7998	0.0448	0.601	0.332
Mof_C 	C 	0.9987	0.9074	0.8422	-0.001
Mof_C 	C 	0.0736	0.9468	0.783	0.107
Mof_C 	C 	0.7597	0.849	0.1892	0.019
Mof_C 	C 	0.773	0.8788	0.245	-0.021
Mof_C 	C 	0.6775	0.8679	0.1599	0.283
Mof_C 	C 	0.711	0.946	0.3026	0.366
Mof_C 	C 	0.8976	0.5843	0.9733	-0.039
Mof_C 	C 	0.7998	0.601	0.0448	0.332
Mof_C 	C 	0.9987	0.8422	0.9074	-0.001
Mof_C 	C 	0.0736	0.783	0.9468	0.107
Mof_C 	C 	0.7597	0.1892	0.849	0.019
Mof_C 	C 	0.773	0.245	0.8788	-0.021
Mof_C 	C 	0.6775	0.1599	0.8679	0.283
Mof_C 	C 	0.711	0.3026	0.946	0.366
Mof_C 	C 	0.9552	0.9157	0.5267	-0.041
Mof_C 	C 	0.9456	0.899	0.4552	0.341
Mof_C 	C 	0.2483	0.6578	0.5926	-0.011
Mof_C 	C 	0.3034	0.717	0.5532	0.124
Mof_C 	C 	0.2979	0.3108	0.651	0.019
Mof_C 	C 	0.3968	0.255	0.6212	-0.021
Mof_C 	C 	0.2053	0.3401	0.6321	0.283
Mof_C 	C 	0.4596	0.1974	0.554	0.366
Mof_C 	C 	0.0448	0.4733	0.0843	-0.041
Mof_C 	C 	0.0544	0.5448	0.101	0.341
Mof_C 	C 	0.7517	0.4074	0.3422	-0.011
Mof_C 	C 	0.6966	0.4468	0.283	0.124
Mof_C 	C 	0.7021	0.349	0.6892	0.019
Mof_C 	C 	0.6032	0.3788	0.745	-0.021
Mof_C 	C 	0.7947	0.3679	0.6599	0.283
Mof_C 	C 	0.5404	0.446	0.8026	0.366
Mof_C 	C 	0.1024	0.0267	0.4157	-0.039
Mof_C 	C 	0.2002	0.9552	0.399	0.332
Mof_C 	C 	0.0013	0.0926	0.1578	-0.001
Mof_C 	C 	0.9264	0.0532	0.217	0.107
Mof_C 	C 	0.2403	0.151	0.8108	0.019
Mof_C 	C 	0.227	0.1212	0.755	-0.021
Mof_C 	C 	0.3225	0.1321	0.8401	0.283
Mof_C 	C 	0.289	0.054	0.6974	0.366
Mof_N 	N 	0.049	0.3689	0.0409	-0.114
Mof_N 	N 	0.0915	0.1645	0.0629	-0.099
Mof_N 	N 	0.1524	0.8444	0.213	-0.09
Mof_N 	N 	0.0863	0.814	0.2218	-0.061
Mof_N 	N 	0.1313	0.7594	0.1656	-0.085
Mof_N 	N 	0.9588	0.1311	0.4591	-0.12
Mof_N 	N 	0.8189	0.3355	0.4371	-0.1
Mof_N 	N 	0.7098	0.6556	0.287	-0.09
Mof_N 	N 	0.6221	0.686	0.2782	-0.06
Mof_N 	N 	0.5563	0.7406	0.3344	-0.085
Mof_N 	N 	0.0412	0.5409	0.8689	-0.12
Mof_N 	N 	0.1811	0.5629	0.6645	-0.1
Mof_N 	N 	0.2902	0.713	0.3444	-0.09
Mof_N 	N 	0.3779	0.7218	0.314	-0.06
Mof_N 	N 	0.4437	0.6656	0.2594	-0.085
Mof_N 	N 	0.951	0.9591	0.6311	-0.114
Mof_N 	N 	0.9085	0.9371	0.8355	-0.099
Mof_N 	N 	0.8476	0.787	0.1556	-0.09
Mof_N 	N 	0.9137	0.7782	0.186	-0.061
Mof_N 	N 	0.8687	0.8344	0.2406	-0.085
Mof_N 	N 	0.951	0.6311	0.9591	-0.114
Mof_N 	N 	0.9085	0.8355	0.9371	-0.099
Mof_N 	N 	0.8476	0.1556	0.787	-0.09
Mof_N 	N 	0.9137	0.186	0.7782	-0.061
Mof_N 	N 	0.8687	0.2406	0.8344	-0.085
Mof_N 	N 	0.0412	0.8689	0.5409	-0.12
Mof_N 	N 	0.1811	0.6645	0.5629	-0.1
Mof_N 	N 	0.2902	0.3444	0.713	-0.09
Mof_N 	N 	0.3779	0.314	0.7218	-0.06
Mof_N 	N 	0.4437	0.2594	0.6656	-0.085
Mof_N 	N 	0.9588	0.4591	0.1311	-0.12
Mof_N 	N 	0.8189	0.4371	0.3355	-0.1
Mof_N 	N 	0.7098	0.287	0.6556	-0.09
Mof_N 	N 	0.6221	0.2782	0.686	-0.06
Mof_N 	N 	0.5563	0.3344	0.7406	-0.085
Mof_N 	N 	0.049	0.0409	0.3689	-0.114
Mof_N 	N 	0.0915	0.0629	0.1645	-0.099
Mof_N 	N 	0.1524	0.213	0.8444	-0.09
Mof_N 	N 	0.0863	0.2218	0.814	-0.061
Mof_N 	N 	0.1313	0.1656	0.7594	-0.085
Mof_N 	N 	0.9609	0.395	0.105	-0.171
Mof_N 	N 	0.9609	0.105	0.395	-0.171
Mof_N 	N 	0.0391	0.605	0.895	-0.171
Mof_N 	N 	0.0391	0.895	0.605	-0.171
Mof_N 	N 	0.1452	0.1067	0.1067	-0.038
Mof_N 	N 	0.8586	0.3933	0.3933	-0.04
Mof_N 	N 	0.1414	0.6067	0.6067	-0.04
Mof_N 	N 	0.8548	0.8933	0.8933	-0.038
Mof_O 	O 	0.21577	0.35743	0.90043	-0.31
Mof_O 	O 	0.26345	0.42545	0.94905	-0.563
Mof_O 	O 	0.956	0.2678	0.9912	-0.38
Mof_O 	O 	0.8595	0.194	0.0588	-0.325
Mof_O 	O 	0.2977	0.9006	0.1694	-0.23
Mof_O 	O 	0.4077	0.8033	0.0833	-0.208
Mof_O 	O 	0.254	0.6473	0.0553	-0.518
Mof_O 	O 	0.3685	0.7042	0.0012	-0.33
Mof_O 	O 	0.97363	0.14257	0.59957	-0.315
Mof_O 	O 	0.13795	0.07455	0.55095	-0.563
Mof_O 	O 	0.715	0.2322	0.5088	-0.389
Mof_O 	O 	0.6123	0.306	0.4412	-0.325
Mof_O 	O 	0.8677	0.5994	0.3306	-0.23
Mof_O 	O 	0.7943	0.6967	0.4167	-0.208
Mof_O 	O 	0.4566	0.8527	0.4447	-0.519
Mof_O 	O 	0.5739	0.7958	0.4988	-0.331
Mof_O 	O 	0.02637	0.40043	0.85743	-0.315
Mof_O 	O 	0.86205	0.44905	0.92545	-0.563
Mof_O 	O 	0.285	0.4912	0.7678	-0.389
Mof_O 	O 	0.3877	0.5588	0.694	-0.325
Mof_O 	O 	0.1323	0.6694	0.4006	-0.23
Mof_O 	O 	0.2057	0.5833	0.3033	-0.208
Mof_O 	O 	0.5434	0.5553	0.1473	-0.519
Mof_O 	O 	0.4261	0.5012	0.2042	-0.331
Mof_O 	O 	0.78423	0.09957	0.64257	-0.31
Mof_O 	O 	0.73655	0.05095	0.57455	-0.563
Mof_O 	O 	0.044	0.0088	0.7322	-0.38
Mof_O 	O 	0.1405	0.9412	0.806	-0.325
Mof_O 	O 	0.7023	0.8306	0.0994	-0.23
Mof_O 	O 	0.5923	0.9167	0.1967	-0.208
Mof_O 	O 	0.746	0.9447	0.3527	-0.518
Mof_O 	O 	0.6315	0.9988	0.2958	-0.33
Mof_O 	O 	0.78423	0.64257	0.09957	-0.31
Mof_O 	O 	0.73655	0.57455	0.05095	-0.563
Mof_O 	O 	0.044	0.7322	0.0088	-0.38
Mof_O 	O 	0.1405	0.806	0.9412	-0.325
Mof_O 	O 	0.7023	0.0994	0.8306	-0.23
Mof_O 	O 	0.5923	0.1967	0.9167	-0.208
Mof_O 	O 	0.746	0.3527	0.9447	-0.518
Mof_O 	O 	0.6315	0.2958	0.9988	-0.33
Mof_O 	O 	0.02637	0.85743	0.40043	-0.315
Mof_O 	O 	0.86205	0.92545	0.44905	-0.563
Mof_O 	O 	0.285	0.7678	0.4912	-0.389
Mof_O 	O 	0.3877	0.694	0.5588	-0.325
Mof_O 	O 	0.1323	0.4006	0.6694	-0.23
Mof_O 	O 	0.2057	0.3033	0.5833	-0.208
Mof_O 	O 	0.5434	0.1473	0.5553	-0.519
Mof_O 	O 	0.4261	0.2042	0.5012	-0.331
Mof_O 	O 	0.97363	0.59957	0.14257	-0.315
Mof_O 	O 	0.13795	0.55095	0.07455	-0.563
Mof_O 	O 	0.715	0.5088	0.2322	-0.389
Mof_O 	O 	0.6123	0.4412	0.306	-0.325
Mof_O 	O 	0.8677	0.3306	0.5994	-0.23
Mof_O 	O 	0.7943	0.4167	0.6967	-0.208
Mof_O 	O 	0.4566	0.4447	0.8527	-0.519
Mof_O 	O 	0.5739	0.4988	0.7958	-0.331
Mof_O 	O 	0.21577	0.90043	0.35743	-0.31
Mof_O 	O 	0.26345	0.94905	0.42545	-0.563
Mof_O 	O 	0.956	0.9912	0.2678	-0.38
Mof_O 	O 	0.8595	0.0588	0.194	-0.325
Mof_O 	O 	0.2977	0.1694	0.9006	-0.23
Mof_O 	O 	0.4077	0.0833	0.8033	-0.208
Mof_O 	O 	0.254	0.0553	0.6473	-0.518
Mof_O 	O 	0.3685	0.0012	0.7042	-0.33
_end
