data_functionalizedCrystal
_audit_creation_method	'EQeq! by Chris Wilmer'
_symmetry_space_group_name_H-M	'P1'
_symmetry_Int_Tables_number	1
_symmetry_cell_setting	triclinic
loop_
_symmetry_equiv_pos_as_xyz
  x,y,z
_cell_length_a	21.1869
_cell_length_b	21.1869
_cell_length_c	6.7423
_cell_angle_alpha	90
_cell_angle_beta	90
_cell_angle_gamma	59.966
loop_
_atom_site_label
_atom_site_type_symbol
_atom_site_fract_x
_atom_site_fract_y
_atom_site_fract_z
_atom_site_charge
Mof_H 	H 	0.32147	0.20907	0.9443	0.098
Mof_H 	H 	0.67752	0.02892	0.9443	0.087
Mof_H 	H 	0.79232	0.0238	0.9443	0.139
Mof_C 	C 	0.29833	0.23221	0.07018	-0.115
Mof_C 	C 	0.70115	0.02787	0.07018	-0.058
Mof_C 	C 	0.76868	0.02486	0.07018	-0.171
Mof_O 	O 	0.43173	0.09881	0.08944	-0.812
Mof_O 	O 	0.56488	0.03394	0.08944	-0.815
Mof_O 	O 	0.90496	0.01878	0.08944	-0.374
Mof_H 	H 	0.5	0.9068	0.25	0.302
Mof_H 	H 	0.67853	0.79093	0.4443	0.045
Mof_H 	H 	0.32248	0.97108	0.4443	0.027
Mof_H 	H 	0.20768	0.9762	0.4443	0.081
Mof_C 	C 	0.70167	0.76779	0.57018	0.036
Mof_C 	C 	0.29885	0.97213	0.57018	0.084
Mof_C 	C 	0.23132	0.97514	0.57018	-0.052
Mof_O 	O 	0.56827	0.90119	0.58944	-0.674
Mof_O 	O 	0.43512	0.96606	0.58944	-0.689
Mof_O 	O 	0.09504	0.98122	0.58944	-0.355
Mof_H 	H 	0.5	0.0932	0.75	0.38
Mof_H 	H 	0.20907	0.32147	0.5557	0.011
Mof_H 	H 	0.02892	0.67752	0.5557	0.001
Mof_H 	H 	0.0238	0.79232	0.5557	0.057
Mof_C 	C 	0.23221	0.29833	0.42982	-0.01
Mof_C 	C 	0.02787	0.70115	0.42982	0.046
Mof_C 	C 	0.02486	0.76868	0.42982	-0.072
Mof_O 	O 	0.09881	0.43173	0.41056	-0.836
Mof_O 	O 	0.03394	0.56488	0.41056	-0.841
Mof_O 	O 	0.01878	0.90496	0.41056	-0.397
Mof_H 	H 	0.9068	0.5	0.25	0.302
Mof_H 	H 	0.79093	0.67853	0.0557	-0.042
Mof_H 	H 	0.97108	0.32248	0.0557	-0.059
Mof_H 	H 	0.9762	0.20768	0.0557	-0.003
Mof_C 	C 	0.76779	0.70167	0.92982	0.138
Mof_C 	C 	0.97213	0.29885	0.92982	0.185
Mof_C 	C 	0.97514	0.23132	0.92982	0.045
Mof_O 	O 	0.90119	0.56827	0.91056	-0.564
Mof_O 	O 	0.96606	0.43512	0.91056	-0.578
Mof_O 	O 	0.98122	0.09504	0.91056	-0.249
Mof_H 	H 	0.0932	0.5	0.75	0.38
Mof_H 	H 	0.67853	0.79093	0.0557	-0.042
Mof_H 	H 	0.32248	0.97108	0.0557	-0.059
Mof_H 	H 	0.20768	0.9762	0.0557	-0.003
Mof_C 	C 	0.70167	0.76779	0.92982	0.138
Mof_C 	C 	0.29885	0.97213	0.92982	0.185
Mof_C 	C 	0.23132	0.97514	0.92982	0.045
Mof_O 	O 	0.56827	0.90119	0.91056	-0.564
Mof_O 	O 	0.43512	0.96606	0.91056	-0.578
Mof_O 	O 	0.09504	0.98122	0.91056	-0.249
Mof_H 	H 	0.32147	0.20907	0.5557	0.011
Mof_H 	H 	0.67752	0.02892	0.5557	0.001
Mof_H 	H 	0.79232	0.0238	0.5557	0.057
Mof_C 	C 	0.29833	0.23221	0.42982	-0.01
Mof_C 	C 	0.70115	0.02787	0.42982	0.046
Mof_C 	C 	0.76868	0.02486	0.42982	-0.072
Mof_O 	O 	0.43173	0.09881	0.41056	-0.836
Mof_O 	O 	0.56488	0.03394	0.41056	-0.841
Mof_O 	O 	0.90496	0.01878	0.41056	-0.397
Mof_H 	H 	0.79093	0.67853	0.4443	0.045
Mof_H 	H 	0.97108	0.32248	0.4443	0.027
Mof_H 	H 	0.9762	0.20768	0.4443	0.081
Mof_C 	C 	0.76779	0.70167	0.57018	0.036
Mof_C 	C 	0.97213	0.29885	0.57018	0.084
Mof_C 	C 	0.97514	0.23132	0.57018	-0.052
Mof_O 	O 	0.90119	0.56827	0.58944	-0.674
Mof_O 	O 	0.96606	0.43512	0.58944	-0.689
Mof_O 	O 	0.98122	0.09504	0.58944	-0.355
Mof_H 	H 	0.20907	0.32147	0.9443	0.099
Mof_H 	H 	0.02892	0.67752	0.9443	0.088
Mof_H 	H 	0.0238	0.79232	0.9443	0.14
Mof_C 	C 	0.23221	0.29833	0.07018	-0.115
Mof_C 	C 	0.02787	0.70115	0.07018	-0.058
Mof_C 	C 	0.02486	0.76868	0.07018	-0.171
Mof_O 	O 	0.09881	0.43173	0.08944	-0.812
Mof_O 	O 	0.03394	0.56488	0.08944	-0.815
Mof_O 	O 	0.01878	0.90496	0.08944	-0.374
Mof_Ga	Ga	0.5	0	-0	2.32
Mof_Ga	Ga	0.5	0	0.5	2.75
Mof_Ga	Ga	3.68965e-17	0.5	0.5	2.75
Mof_Ga	Ga	4.33896e-17	0.5	-0	2.32
Mof_Ga	Ga	-0	0	-0	0.66
Mof_Ga	Ga	1.2043e-33	0	0.5	1.065
Mof_C 	C 	0.40222	0.12832	0.25	0.625
Mof_C 	C 	0.33138	0.19916	0.25	-0.186
Mof_C 	C 	0.59502	0.0326	0.25	0.636
Mof_C 	C 	0.66739	0.02937	0.25	-0.215
Mof_C 	C 	0.80245	0.02335	0.25	-0.045
Mof_C 	C 	0.87481	0.02013	0.25	0.392
Mof_O 	O 	0.5	0.954	0.25	-0.935
Mof_C 	C 	0.59778	0.87168	0.75	0.654
Mof_C 	C 	0.66862	0.80084	0.75	-0.162
Mof_C 	C 	0.40498	0.9674	0.75	0.667
Mof_C 	C 	0.33261	0.97063	0.75	-0.202
Mof_C 	C 	0.19755	0.97665	0.75	-0.042
Mof_C 	C 	0.12519	0.97987	0.75	0.372
Mof_O 	O 	0.5	0.046	0.75	-1.176
Mof_C 	C 	0.12832	0.40222	0.25	0.625
Mof_C 	C 	0.19916	0.33138	0.25	-0.186
Mof_C 	C 	0.0326	0.59502	0.25	0.636
Mof_C 	C 	0.02937	0.66739	0.25	-0.215
Mof_C 	C 	0.02335	0.80245	0.25	-0.045
Mof_C 	C 	0.02013	0.87481	0.25	0.392
Mof_O 	O 	0.954	0.5	0.25	-0.935
Mof_C 	C 	0.87168	0.59778	0.75	0.654
Mof_C 	C 	0.80084	0.66862	0.75	-0.162
Mof_C 	C 	0.9674	0.40498	0.75	0.667
Mof_C 	C 	0.97063	0.33261	0.75	-0.202
Mof_C 	C 	0.97665	0.19755	0.75	-0.042
Mof_C 	C 	0.97987	0.12519	0.75	0.372
Mof_O 	O 	0.046	0.5	0.75	-1.176
Mof_O 	O 	0.02563	0.02563	0.25	-0.713
Mof_O 	O 	0.97437	0.97437	0.75	0.087
_end
