data_functionalizedCrystal
_audit_creation_method	'EQeq! by Chris Wilmer'
_symmetry_space_group_name_H-M	'P1'
_symmetry_Int_Tables_number	1
_symmetry_cell_setting	triclinic
loop_
_symmetry_equiv_pos_as_xyz
  x,y,z
_cell_length_a	9.4469
_cell_length_b	11.5176
_cell_length_c	16.2456
_cell_angle_alpha	90
_cell_angle_beta	90
_cell_angle_gamma	97.027
loop_
_atom_site_label
_atom_site_type_symbol
_atom_site_fract_x
_atom_site_fract_y
_atom_site_fract_z
_atom_site_charge
Mof_Zn	Zn	0.36352	0.54689	0.92028	1.24
Mof_Zn	Zn	0.13648	0.95311	0.42028	1.238
Mof_Zn	Zn	0.63648	0.45311	0.07972	1.24
Mof_Zn	Zn	0.86352	0.04689	0.57972	1.238
Mof_H 	H 	0.9357	0.1684	0.2482	0.014
Mof_H 	H 	0.0586	0.3895	0.0643	0.015
Mof_H 	H 	0.3468	0.2213	0.1807	0.021
Mof_H 	H 	0.5643	0.3316	0.7482	0.025
Mof_H 	H 	0.4414	0.1105	0.5643	0.02
Mof_H 	H 	0.1532	0.2787	0.6807	0.024
Mof_H 	H 	0.0643	0.8316	0.7518	0.014
Mof_H 	H 	0.9414	0.6105	0.9357	0.015
Mof_H 	H 	0.6532	0.7787	0.8193	0.021
Mof_H 	H 	0.4357	0.6684	0.2518	0.025
Mof_H 	H 	0.5586	0.8895	0.4357	0.02
Mof_H 	H 	0.8468	0.7213	0.3193	0.024
Mof_C 	C 	0.0072	0.2056	0.21475	0.103
Mof_C 	C 	0.1466	0.1825	0.22491	-0.157
Mof_C 	C 	0.9737	0.2834	0.15522	-0.167
Mof_C 	C 	0.8245	0.3131	0.14735	0.38
Mof_C 	C 	0.2205	0.3156	0.11448	-0.177
Mof_C 	C 	0.081	0.3377	0.10488	0.105
Mof_C 	C 	0.185	0.1023	0.29253	0.368
Mof_C 	C 	0.2532	0.2372	0.17439	0.093
Mof_C 	C 	0.3362	0.3791	0.06281	0.44
Mof_C 	C 	0.4928	0.2944	0.71475	0.079
Mof_C 	C 	0.3534	0.3175	0.72491	-0.146
Mof_C 	C 	0.5263	0.2166	0.65522	-0.148
Mof_C 	C 	0.6755	0.1869	0.64735	0.374
Mof_C 	C 	0.2795	0.1844	0.61448	-0.168
Mof_C 	C 	0.419	0.1623	0.60488	0.089
Mof_C 	C 	0.315	0.3977	0.79253	0.364
Mof_C 	C 	0.2468	0.2628	0.67439	0.083
Mof_C 	C 	0.1638	0.1209	0.56281	0.436
Mof_C 	C 	0.9928	0.7944	0.78525	0.103
Mof_C 	C 	0.8534	0.8175	0.77509	-0.157
Mof_C 	C 	0.0263	0.7166	0.84478	-0.167
Mof_C 	C 	0.1755	0.6869	0.85265	0.38
Mof_C 	C 	0.7795	0.6844	0.88552	-0.177
Mof_C 	C 	0.919	0.6623	0.89512	0.105
Mof_C 	C 	0.815	0.8977	0.70747	0.368
Mof_C 	C 	0.7468	0.7628	0.82561	0.093
Mof_C 	C 	0.6638	0.6209	0.93719	0.44
Mof_C 	C 	0.5072	0.7056	0.28525	0.079
Mof_C 	C 	0.6466	0.6825	0.27509	-0.146
Mof_C 	C 	0.4737	0.7834	0.34478	-0.148
Mof_C 	C 	0.3245	0.8131	0.35265	0.374
Mof_C 	C 	0.7205	0.8156	0.38552	-0.168
Mof_C 	C 	0.581	0.8377	0.39512	0.089
Mof_C 	C 	0.685	0.6023	0.20747	0.364
Mof_C 	C 	0.7532	0.7372	0.32561	0.083
Mof_C 	C 	0.8362	0.8791	0.43719	0.436
Mof_O 	O 	0.30185	0.46017	0.0202	-0.506
Mof_O 	O 	0.45829	0.34747	0.06762	-0.489
Mof_O 	O 	0.3098	0.0946	0.30761	-0.328
Mof_O 	O 	0.0814	0.05086	0.33276	-0.466
Mof_O 	O 	0.738	0.2876	0.2031	-0.322
Mof_O 	O 	0.79664	0.36418	0.08156	-0.462
Mof_O 	O 	0.19815	0.03983	0.5202	-0.504
Mof_O 	O 	0.04171	0.15253	0.56762	-0.487
Mof_O 	O 	0.1902	0.4054	0.80761	-0.328
Mof_O 	O 	0.4186	0.44914	0.83276	-0.468
Mof_O 	O 	0.762	0.2124	0.7031	-0.321
Mof_O 	O 	0.70336	0.13582	0.58156	-0.461
Mof_O 	O 	0.69815	0.53983	0.9798	-0.506
Mof_O 	O 	0.54171	0.65253	0.93238	-0.489
Mof_O 	O 	0.6902	0.9054	0.69239	-0.328
Mof_O 	O 	0.9186	0.94914	0.66724	-0.466
Mof_O 	O 	0.262	0.7124	0.7969	-0.322
Mof_O 	O 	0.20336	0.63582	0.91844	-0.462
Mof_O 	O 	0.80185	0.96017	0.4798	-0.504
Mof_O 	O 	0.95829	0.84747	0.43238	-0.487
Mof_O 	O 	0.8098	0.5946	0.19239	-0.328
Mof_O 	O 	0.5814	0.55086	0.16724	-0.468
Mof_O 	O 	0.238	0.7876	0.2969	-0.321
Mof_O 	O 	0.29664	0.86418	0.41844	-0.461
Mof_H 	H 	0.6692	0.2906	0.3051	0.129
Mof_H 	H 	0.711	0.3351	0.3856	0.094
Mof_H 	H 	0.5476	0.4291	0.3422	0.151
Mof_H 	H 	0.4874	0.3509	0.4163	0.153
Mof_H 	H 	0.4492	0.3116	0.3257	0.164
Mof_H 	H 	0.7367	0.1564	0.3828	0.166
Mof_H 	H 	0.5785	0.1255	0.3535	0.185
Mof_H 	H 	0.6109	0.1734	0.4427	0.179
Mof_C 	C 	0.5222	0.3502	0.3608	-0.39
Mof_C 	C 	0.6419	0.1779	0.3864	-0.426
Mof_N 	N 	0.6415	0.2907	0.3581	-0.107
Mof_H 	H 	0.8308	0.2094	0.8051	0.127
Mof_H 	H 	0.789	0.1649	0.8856	0.092
Mof_H 	H 	0.9524	0.0709	0.8422	0.157
Mof_H 	H 	0.0126	0.1491	0.9163	0.162
Mof_H 	H 	0.0508	0.1884	0.8257	0.174
Mof_H 	H 	0.7633	0.3436	0.8828	0.168
Mof_H 	H 	0.9215	0.3745	0.8535	0.186
Mof_H 	H 	0.8891	0.3266	0.9427	0.18
Mof_C 	C 	0.9778	0.1498	0.8608	-0.416
Mof_C 	C 	0.8581	0.3221	0.8864	-0.433
Mof_N 	N 	0.8585	0.2093	0.8581	-0.101
Mof_H 	H 	0.3308	0.7094	0.6949	0.129
Mof_H 	H 	0.289	0.6649	0.6144	0.094
Mof_H 	H 	0.4524	0.5709	0.6578	0.151
Mof_H 	H 	0.5126	0.6491	0.5837	0.153
Mof_H 	H 	0.5508	0.6884	0.6743	0.164
Mof_H 	H 	0.2633	0.8436	0.6172	0.166
Mof_H 	H 	0.4215	0.8745	0.6465	0.185
Mof_H 	H 	0.3891	0.8266	0.5573	0.179
Mof_C 	C 	0.4778	0.6498	0.6392	-0.39
Mof_C 	C 	0.3581	0.8221	0.6136	-0.426
Mof_N 	N 	0.3585	0.7093	0.6419	-0.107
Mof_H 	H 	0.1692	0.7906	0.1949	0.127
Mof_H 	H 	0.211	0.8351	0.1144	0.092
Mof_H 	H 	0.0476	0.9291	0.1578	0.157
Mof_H 	H 	0.9874	0.8509	0.0837	0.162
Mof_H 	H 	0.9492	0.8116	0.1743	0.174
Mof_H 	H 	0.2367	0.6564	0.1172	0.168
Mof_H 	H 	0.0785	0.6255	0.1465	0.186
Mof_H 	H 	0.1109	0.6734	0.0573	0.18
Mof_C 	C 	0.0222	0.8502	0.1392	-0.416
Mof_C 	C 	0.1419	0.6779	0.1136	-0.433
Mof_N 	N 	0.1415	0.7907	0.1419	-0.101
_end
