data_functionalizedCrystal
_audit_creation_method	'EQeq! by Chris Wilmer'
_symmetry_space_group_name_H-M	'P1'
_symmetry_Int_Tables_number	1
_symmetry_cell_setting	triclinic
loop_
_symmetry_equiv_pos_as_xyz
  x,y,z
_cell_length_a	14.728
_cell_length_b	14.728
_cell_length_c	14.728
_cell_angle_alpha	90
_cell_angle_beta	90
_cell_angle_gamma	90
loop_
_atom_site_label
_atom_site_type_symbol
_atom_site_fract_x
_atom_site_fract_y
_atom_site_fract_z
_atom_site_charge
Mof_O 	O 	0.2065	0.1808	0.0505	-0.531
Mof_O 	O 	0.1587	0.0572	0.9752	-0.459
Mof_C 	C 	0.211	0.1248	0.9916	0.415
Mof_C 	C 	0.2898	0.1312	0.9219	-0.115
Mof_C 	C 	0.3486	0.2044	0.9349	0.05
Mof_N 	N 	0.9439	0.9315	0.9586	0.056
Mof_O 	O 	0.9267	0.9722	0.0116	-0.216
Mof_H 	H 	0.3384	0.2494	0.9809	0.036
Mof_O 	O 	0.2935	0.8192	0.5505	-0.529
Mof_O 	O 	0.3413	0.9428	0.4752	-0.459
Mof_C 	C 	0.289	0.8752	0.4916	0.413
Mof_C 	C 	0.2102	0.8688	0.4219	-0.115
Mof_C 	C 	0.1514	0.7956	0.4349	0.05
Mof_N 	N 	0.5561	0.0685	0.4586	0.074
Mof_O 	O 	0.5733	0.0278	0.5116	-0.221
Mof_H 	H 	0.1616	0.7506	0.4809	0.035
Mof_O 	O 	0.7935	0.6808	0.4495	-0.529
Mof_O 	O 	0.8413	0.5572	0.5248	-0.46
Mof_C 	C 	0.789	0.6248	0.5084	0.412
Mof_C 	C 	0.7102	0.6312	0.5781	-0.115
Mof_C 	C 	0.6514	0.7044	0.5651	0.049
Mof_N 	N 	0.0561	0.4315	0.5414	0.052
Mof_O 	O 	0.0733	0.4722	0.4884	-0.221
Mof_H 	H 	0.6616	0.7494	0.5191	0.035
Mof_O 	O 	0.7065	0.3192	0.9495	-0.531
Mof_O 	O 	0.6587	0.4428	0.0248	-0.459
Mof_C 	C 	0.711	0.3752	0.0084	0.415
Mof_C 	C 	0.7898	0.3688	0.0781	-0.115
Mof_C 	C 	0.8486	0.2956	0.0651	0.05
Mof_N 	N 	0.4439	0.5685	0.0414	0.052
Mof_O 	O 	0.4267	0.5278	0.9884	-0.216
Mof_H 	H 	0.8384	0.2506	0.0191	0.036
Mof_O 	O 	0.0505	0.2065	0.1808	-0.531
Mof_O 	O 	0.9752	0.1587	0.0572	-0.459
Mof_C 	C 	0.9916	0.211	0.1248	0.415
Mof_C 	C 	0.9219	0.2898	0.1312	-0.115
Mof_C 	C 	0.9349	0.3486	0.2044	0.05
Mof_N 	N 	0.9586	0.9439	0.9315	0.056
Mof_O 	O 	0.0116	0.9267	0.9722	-0.216
Mof_H 	H 	0.9809	0.3384	0.2494	0.036
Mof_O 	O 	0.5505	0.2935	0.8192	-0.529
Mof_O 	O 	0.4752	0.3413	0.9428	-0.459
Mof_C 	C 	0.4916	0.289	0.8752	0.413
Mof_C 	C 	0.4219	0.2102	0.8688	-0.115
Mof_C 	C 	0.4349	0.1514	0.7956	0.05
Mof_N 	N 	0.4586	0.5561	0.0685	0.074
Mof_O 	O 	0.5116	0.5733	0.0278	-0.221
Mof_H 	H 	0.4809	0.1616	0.7506	0.035
Mof_O 	O 	0.4495	0.7935	0.6808	-0.529
Mof_O 	O 	0.5248	0.8413	0.5572	-0.46
Mof_C 	C 	0.5084	0.789	0.6248	0.412
Mof_C 	C 	0.5781	0.7102	0.6312	-0.115
Mof_C 	C 	0.5651	0.6514	0.7044	0.049
Mof_N 	N 	0.5414	0.0561	0.4315	0.052
Mof_O 	O 	0.4884	0.0733	0.4722	-0.221
Mof_H 	H 	0.5191	0.6616	0.7494	0.035
Mof_O 	O 	0.9495	0.7065	0.3192	-0.531
Mof_O 	O 	0.0248	0.6587	0.4428	-0.459
Mof_C 	C 	0.0084	0.711	0.3752	0.415
Mof_C 	C 	0.0781	0.7898	0.3688	-0.115
Mof_C 	C 	0.0651	0.8486	0.2956	0.05
Mof_N 	N 	0.0414	0.4439	0.5685	0.052
Mof_O 	O 	0.9884	0.4267	0.5278	-0.216
Mof_H 	H 	0.0191	0.8384	0.2506	0.036
Mof_O 	O 	0.1808	0.0505	0.2065	-0.531
Mof_O 	O 	0.0572	0.9752	0.1587	-0.459
Mof_C 	C 	0.1248	0.9916	0.211	0.415
Mof_C 	C 	0.1312	0.9219	0.2898	-0.115
Mof_C 	C 	0.2044	0.9349	0.3486	0.05
Mof_N 	N 	0.9315	0.9586	0.9439	0.056
Mof_O 	O 	0.9722	0.0116	0.9267	-0.216
Mof_H 	H 	0.2494	0.9809	0.3384	0.036
Mof_O 	O 	0.8192	0.5505	0.2935	-0.529
Mof_O 	O 	0.9428	0.4752	0.3413	-0.459
Mof_C 	C 	0.8752	0.4916	0.289	0.413
Mof_C 	C 	0.8688	0.4219	0.2102	-0.115
Mof_C 	C 	0.7956	0.4349	0.1514	0.05
Mof_N 	N 	0.0685	0.4586	0.5561	0.074
Mof_O 	O 	0.0278	0.5116	0.5733	-0.221
Mof_H 	H 	0.7506	0.4809	0.1616	0.035
Mof_O 	O 	0.6808	0.4495	0.7935	-0.529
Mof_O 	O 	0.5572	0.5248	0.8413	-0.46
Mof_C 	C 	0.6248	0.5084	0.789	0.412
Mof_C 	C 	0.6312	0.5781	0.7102	-0.115
Mof_C 	C 	0.7044	0.5651	0.6514	0.049
Mof_N 	N 	0.4315	0.5414	0.0561	0.052
Mof_O 	O 	0.4722	0.4884	0.0733	-0.221
Mof_H 	H 	0.7494	0.5191	0.6616	0.035
Mof_O 	O 	0.3192	0.9495	0.7065	-0.531
Mof_O 	O 	0.4428	0.0248	0.6587	-0.459
Mof_C 	C 	0.3752	0.0084	0.711	0.415
Mof_C 	C 	0.3688	0.0781	0.7898	-0.115
Mof_C 	C 	0.2956	0.0651	0.8486	0.05
Mof_N 	N 	0.5685	0.0414	0.4439	0.052
Mof_O 	O 	0.5278	0.9884	0.4267	-0.216
Mof_H 	H 	0.2506	0.0191	0.8384	0.036
Mof_Zn	Zn	0.1867	0.1867	0.1867	1.179
Mof_Zn	Zn	0.0468	0.0468	0.0468	1.242
Mof_O 	O 	0.8953	0.8953	0.8953	-0.129
Mof_Zn	Zn	0.3133	0.8133	0.6867	1.179
Mof_Zn	Zn	0.4532	0.9532	0.5468	1.243
Mof_O 	O 	0.6047	0.1047	0.3953	-0.125
Mof_Zn	Zn	0.8133	0.6867	0.3133	1.179
Mof_Zn	Zn	0.9532	0.5468	0.4532	1.243
Mof_O 	O 	0.1047	0.3953	0.6047	-0.125
Mof_Zn	Zn	0.6867	0.3133	0.8133	1.179
Mof_Zn	Zn	0.5468	0.4532	0.9532	1.243
Mof_O 	O 	0.3953	0.6047	0.1047	-0.125
_end
