data_functionalizedCrystal
_audit_creation_method	'EQeq! by Chris Wilmer'
_symmetry_space_group_name_H-M	'P1'
_symmetry_Int_Tables_number	1
_symmetry_cell_setting	triclinic
loop_
_symmetry_equiv_pos_as_xyz
  x,y,z
_cell_length_a	7.1795
_cell_length_b	11.484
_cell_length_c	14.794
_cell_angle_alpha	93.96
_cell_angle_beta	90
_cell_angle_gamma	90
loop_
_atom_site_label
_atom_site_type_symbol
_atom_site_fract_x
_atom_site_fract_y
_atom_site_fract_z
_atom_site_charge
Mof_Co	Co	0.42477	0.24406	0.85767	1.16
Mof_Co	Co	0.82636	0.82222	0.34314	1.156
Mof_Co	Co	0.59001	0.60576	0.19818	1.164
Mof_Co	Co	0.92477	0.75594	0.14233	1.147
Mof_Co	Co	0.32636	0.17778	0.65686	1.175
Mof_Co	Co	0.09001	0.39424	0.80182	1.175
Mof_H 	H 	0.5659	0.899	0.9338	0.047
Mof_H 	H 	0.3259	0.7935	0.6975	0.062
Mof_H 	H 	0.3416	0.6013	0.7369	0.053
Mof_H 	H 	0.6538	0.3502	0.4073	0.042
Mof_H 	H 	0.7068	0.6437	0.5675	0.048
Mof_H 	H 	0.7175	0.5348	0.6926	0.03
Mof_H 	H 	0.0659	0.101	0.0662	0.041
Mof_H 	H 	0.8259	0.2065	0.3025	0.048
Mof_H 	H 	0.8416	0.3987	0.2631	0.05
Mof_H 	H 	0.1538	0.6498	0.5927	0.049
Mof_H 	H 	0.2068	0.3563	0.4325	0.063
Mof_H 	H 	0.2175	0.4652	0.3074	0.047
Mof_C 	C 	0.4657	0.6339	0.8597	-0.052
Mof_C 	C 	0.5349	0.7251	0.9184	-0.065
Mof_C 	C 	0.5208	0.8388	0.8945	0.017
Mof_C 	C 	0.4402	0.8656	0.8123	-0.081
Mof_C 	C 	0.3762	0.7767	0.753	-0.003
Mof_C 	C 	0.387	0.661	0.7766	-0.046
Mof_C 	C 	0.4938	0.5088	0.8825	0.338
Mof_C 	C 	0.6205	0.7079	0.0108	0.376
Mof_C 	C 	0.4229	0.9915	0.7904	0.364
Mof_C 	C 	0.685	0.3758	0.6258	-0.107
Mof_C 	C 	0.6626	0.3205	0.5402	-0.06
Mof_C 	C 	0.6628	0.3873	0.465	0.014
Mof_C 	C 	0.6764	0.508	0.4747	-0.095
Mof_C 	C 	0.6968	0.5629	0.5603	-0.015
Mof_C 	C 	0.7022	0.4976	0.6352	-0.019
Mof_C 	C 	0.6889	0.3168	0.714	0.391
Mof_C 	C 	0.6455	0.1886	0.5205	0.312
Mof_C 	C 	0.6795	0.5816	0.3945	0.381
Mof_C 	C 	0.9657	0.3661	0.1403	-0.088
Mof_C 	C 	0.0349	0.2749	0.0816	-0.026
Mof_C 	C 	0.0208	0.1612	0.1055	0.088
Mof_C 	C 	0.9402	0.1344	0.1877	-0.152
Mof_C 	C 	0.8762	0.2233	0.247	0.017
Mof_C 	C 	0.887	0.339	0.2234	-0.063
Mof_C 	C 	0.9938	0.4912	0.1175	0.275
Mof_C 	C 	0.1205	0.2921	0.9892	0.365
Mof_C 	C 	0.9229	0.0085	0.2096	0.377
Mof_C 	C 	0.185	0.6242	0.3742	-0.09
Mof_C 	C 	0.1626	0.6795	0.4598	-0.047
Mof_C 	C 	0.1628	0.6127	0.535	0.019
Mof_C 	C 	0.1764	0.492	0.5253	-0.078
Mof_C 	C 	0.1968	0.4371	0.4397	-0.005
Mof_C 	C 	0.2022	0.5024	0.3648	-0.01
Mof_C 	C 	0.1889	0.6832	0.286	0.387
Mof_C 	C 	0.1455	0.8114	0.4795	0.311
Mof_C 	C 	0.1795	0.4184	0.6055	0.386
Mof_O 	O 	0.7277	0.6853	0.4095	-0.464
Mof_O 	O 	0.6332	0.5323	0.31802	-0.45
Mof_O 	O 	0.7608	0.1419	0.466	-0.252
Mof_O 	O 	0.5165	0.1326	0.5556	-0.372
Mof_O 	O 	0.5582	0.2468	0.73068	-0.539
Mof_O 	O 	0.8141	0.3428	0.7705	-0.451
Mof_O 	O 	0.4397	0.0651	0.8579	-0.419
Mof_O 	O 	0.3961	0.0137	0.71039	-0.394
Mof_O 	O 	0.5224	0.6638	0.0687	-0.406
Mof_O 	O 	0.7831	0.7471	0.02184	-0.434
Mof_O 	O 	0.632	0.4875	0.9299	-0.292
Mof_O 	O 	0.381	0.4302	0.84967	-0.502
Mof_O 	O 	0.1919	0.2309	0.77373	-0.567
Mof_O 	O 	0.2277	0.3147	0.5905	-0.442
Mof_O 	O 	0.1332	0.4677	0.68198	-0.433
Mof_O 	O 	0.2608	0.8581	0.534	-0.234
Mof_O 	O 	0.0165	0.8674	0.4444	-0.34
Mof_O 	O 	0.0582	0.7532	0.26932	-0.499
Mof_O 	O 	0.3141	0.6572	0.2295	-0.417
Mof_O 	O 	0.9397	0.9349	0.1421	-0.44
Mof_O 	O 	0.8961	0.9863	0.28961	-0.413
Mof_O 	O 	0.0224	0.3362	0.9313	-0.385
Mof_O 	O 	0.2831	0.2529	0.97816	-0.419
Mof_O 	O 	0.132	0.5125	0.0701	-0.229
Mof_O 	O 	0.881	0.5698	0.15033	-0.5
Mof_O 	O 	0.6919	0.7691	0.22627	-0.58
_end
