data_functionalizedCrystal
_audit_creation_method	'EQeq! by Chris Wilmer'
_symmetry_space_group_name_H-M	'P1'
_symmetry_Int_Tables_number	1
_symmetry_cell_setting	triclinic
loop_
_symmetry_equiv_pos_as_xyz
  x,y,z
_cell_length_a	18.196
_cell_length_b	18.196
_cell_length_c	15.127
_cell_angle_alpha	90
_cell_angle_beta	90
_cell_angle_gamma	120
loop_
_atom_site_label
_atom_site_type_symbol
_atom_site_fract_x
_atom_site_fract_y
_atom_site_fract_z
_atom_site_charge
Mof_C 	C 	0.0567	0.3248	0.8219	0.341
Mof_C 	C 	0.9661	0.2716	0.8533	-0.147
Mof_C 	C 	0.9414	0.1981	0.8997	0.097
Mof_H 	H 	0.9817	0.1813	0.9137	0.011
Mof_C 	C 	0.9092	0.2976	0.8386	0.102
Mof_H 	H 	0.9266	0.3498	0.8089	0.016
Mof_C 	C 	0.8575	0.1484	0.9262	-0.185
Mof_H 	H 	0.8398	0.0968	0.9572	0.109
Mof_C 	C 	0.826	0.249	0.8665	-0.193
Mof_H 	H 	0.7867	0.2681	0.8567	0.106
Mof_C 	C 	0.8008	0.1745	0.9074	0.181
Mof_C 	C 	0.6785	0.1523	0.9898	0.092
Mof_H 	H 	0.7121	0.2086	0.0114	0.043
Mof_C 	C 	0.6686	0.0415	0.9114	0.091
Mof_H 	H 	0.6953	0.017	0.8782	0.023
Mof_C 	C 	0.5962	0.1052	0.0171	-0.132
Mof_H 	H 	0.5744	0.1284	0.0589	0.115
Mof_C 	C 	0.5845	0.9928	0.935	-0.128
Mof_H 	H 	0.553	0.9355	0.9159	0.107
Mof_C 	C 	0.5453	0.026	0.9857	0.068
Mof_N 	N 	0.7123	0.1225	0.9351	-0.163
Mof_O 	O 	0.1139	0.3151	0.8547	-0.272
Mof_O 	O 	0.0718	0.3772	0.7633	-0.281
Mof_Cl	Cl	0.2297	0.54043	0.64607	-0.362
Mof_C 	C 	0.6752	0.7319	0.8219	0.34
Mof_C 	C 	0.7284	0.6945	0.8533	-0.144
Mof_C 	C 	0.8019	0.7433	0.8997	0.097
Mof_H 	H 	0.8187	0.8004	0.9137	0.013
Mof_C 	C 	0.7024	0.6116	0.8386	0.101
Mof_H 	H 	0.6502	0.5768	0.8089	0.017
Mof_C 	C 	0.8516	0.7091	0.9262	-0.184
Mof_H 	H 	0.9032	0.743	0.9572	0.11
Mof_C 	C 	0.751	0.577	0.8665	-0.192
Mof_H 	H 	0.7319	0.5186	0.8567	0.106
Mof_C 	C 	0.8255	0.6263	0.9074	0.181
Mof_C 	C 	0.8477	0.5262	0.9898	0.095
Mof_H 	H 	0.7914	0.5035	0.0114	0.041
Mof_C 	C 	0.9585	0.6271	0.9114	0.092
Mof_H 	H 	0.983	0.6783	0.8782	0.023
Mof_C 	C 	0.8948	0.491	0.0171	-0.135
Mof_H 	H 	0.8716	0.446	0.0589	0.116
Mof_C 	C 	0.0072	0.5917	0.935	-0.128
Mof_H 	H 	0.0645	0.6175	0.9159	0.107
Mof_C 	C 	0.974	0.5193	0.9857	0.068
Mof_N 	N 	0.8775	0.5898	0.9351	-0.163
Mof_O 	O 	0.6849	0.7988	0.8547	-0.272
Mof_O 	O 	0.6228	0.6946	0.7633	-0.281
Mof_Cl	Cl	0.45957	0.68927	0.64607	-0.362
Mof_C 	C 	0.2681	0.9433	0.8219	0.342
Mof_C 	C 	0.3055	0.0339	0.8533	-0.147
Mof_C 	C 	0.2567	0.0586	0.8997	0.098
Mof_H 	H 	0.1996	0.0183	0.9137	0.012
Mof_C 	C 	0.3884	0.0908	0.8386	0.103
Mof_H 	H 	0.4232	0.0734	0.8089	0.016
Mof_C 	C 	0.2909	0.1425	0.9262	-0.186
Mof_H 	H 	0.257	0.1602	0.9572	0.11
Mof_C 	C 	0.423	0.174	0.8665	-0.194
Mof_H 	H 	0.4814	0.2133	0.8567	0.106
Mof_C 	C 	0.3737	0.1992	0.9074	0.182
Mof_C 	C 	0.4738	0.3215	0.9898	0.101
Mof_H 	H 	0.4965	0.2879	0.0114	0.039
Mof_C 	C 	0.3729	0.3314	0.9114	0.098
Mof_H 	H 	0.3217	0.3047	0.8782	0.021
Mof_C 	C 	0.509	0.4038	0.0171	-0.143
Mof_H 	H 	0.554	0.4256	0.0589	0.118
Mof_C 	C 	0.4083	0.4155	0.935	-0.137
Mof_H 	H 	0.3825	0.447	0.9159	0.11
Mof_C 	C 	0.4807	0.4547	0.9857	0.074
Mof_N 	N 	0.4102	0.2877	0.9351	-0.166
Mof_O 	O 	0.2012	0.8861	0.8547	-0.271
Mof_O 	O 	0.3054	0.9282	0.7633	-0.281
Mof_Cl	Cl	0.31073	0.7703	0.64607	-0.362
Mof_C 	C 	0.6752	0.9433	0.6781	0.341
Mof_C 	C 	0.7284	0.0339	0.6467	-0.146
Mof_C 	C 	0.8019	0.0586	0.6003	0.098
Mof_H 	H 	0.8187	0.0183	0.5863	0.012
Mof_C 	C 	0.7024	0.0908	0.6614	0.102
Mof_H 	H 	0.6502	0.0734	0.6911	0.017
Mof_C 	C 	0.8516	0.1425	0.5738	-0.185
Mof_H 	H 	0.9032	0.1602	0.5428	0.11
Mof_C 	C 	0.751	0.174	0.6335	-0.193
Mof_H 	H 	0.7319	0.2133	0.6433	0.106
Mof_C 	C 	0.8255	0.1992	0.5926	0.182
Mof_C 	C 	0.8477	0.3215	0.5102	0.104
Mof_H 	H 	0.7914	0.2879	0.4886	0.037
Mof_C 	C 	0.9585	0.3314	0.5886	0.098
Mof_H 	H 	0.983	0.3047	0.6218	0.021
Mof_C 	C 	0.8948	0.4038	0.4829	-0.145
Mof_H 	H 	0.8716	0.4256	0.4411	0.119
Mof_C 	C 	0.0072	0.4155	0.565	-0.137
Mof_H 	H 	0.0645	0.447	0.5841	0.11
Mof_C 	C 	0.974	0.4547	0.5143	0.075
Mof_N 	N 	0.8775	0.2877	0.5649	-0.166
Mof_O 	O 	0.6849	0.8861	0.6453	-0.272
Mof_O 	O 	0.6228	0.9282	0.7367	-0.281
Mof_Cl	Cl	0.45957	0.7703	0.85393	-0.361
Mof_C 	C 	0.2681	0.3248	0.6781	0.34
Mof_C 	C 	0.3055	0.2716	0.6467	-0.145
Mof_C 	C 	0.2567	0.1981	0.6003	0.097
Mof_H 	H 	0.1996	0.1813	0.5863	0.013
Mof_C 	C 	0.3884	0.2976	0.6614	0.102
Mof_H 	H 	0.4232	0.3498	0.6911	0.017
Mof_C 	C 	0.2909	0.1484	0.5738	-0.185
Mof_H 	H 	0.257	0.0968	0.5428	0.11
Mof_C 	C 	0.423	0.249	0.6335	-0.193
Mof_H 	H 	0.4814	0.2681	0.6433	0.106
Mof_C 	C 	0.3737	0.1745	0.5926	0.182
Mof_C 	C 	0.4738	0.1523	0.5102	0.104
Mof_H 	H 	0.4965	0.2086	0.4886	0.037
Mof_C 	C 	0.3729	0.0415	0.5886	0.098
Mof_H 	H 	0.3217	0.017	0.6218	0.021
Mof_C 	C 	0.509	0.1052	0.4829	-0.145
Mof_H 	H 	0.554	0.1284	0.4411	0.119
Mof_C 	C 	0.4083	0.9928	0.565	-0.137
Mof_H 	H 	0.3825	0.9355	0.5841	0.11
Mof_C 	C 	0.4807	0.026	0.5143	0.075
Mof_N 	N 	0.4102	0.1225	0.5649	-0.166
Mof_O 	O 	0.2012	0.3151	0.6453	-0.272
Mof_O 	O 	0.3054	0.3772	0.7367	-0.281
Mof_Cl	Cl	0.31073	0.54043	0.85393	-0.362
Mof_C 	C 	0.0567	0.7319	0.6781	0.341
Mof_C 	C 	0.9661	0.6945	0.6467	-0.146
Mof_C 	C 	0.9414	0.7433	0.6003	0.098
Mof_H 	H 	0.9817	0.8004	0.5863	0.012
Mof_C 	C 	0.9092	0.6116	0.6614	0.102
Mof_H 	H 	0.9266	0.5768	0.6911	0.016
Mof_C 	C 	0.8575	0.7091	0.5738	-0.185
Mof_H 	H 	0.8398	0.743	0.5428	0.11
Mof_C 	C 	0.826	0.577	0.6335	-0.193
Mof_H 	H 	0.7867	0.5186	0.6433	0.106
Mof_C 	C 	0.8008	0.6263	0.5926	0.183
Mof_C 	C 	0.6785	0.5262	0.5102	0.104
Mof_H 	H 	0.7121	0.5035	0.4886	0.037
Mof_C 	C 	0.6686	0.6271	0.5886	0.099
Mof_H 	H 	0.6953	0.6783	0.6218	0.021
Mof_C 	C 	0.5962	0.491	0.4829	-0.146
Mof_H 	H 	0.5744	0.446	0.4411	0.119
Mof_C 	C 	0.5845	0.5917	0.565	-0.138
Mof_H 	H 	0.553	0.6175	0.5841	0.11
Mof_C 	C 	0.5453	0.5193	0.5143	0.075
Mof_N 	N 	0.7123	0.5898	0.5649	-0.166
Mof_O 	O 	0.1139	0.7988	0.6453	-0.272
Mof_O 	O 	0.0718	0.6946	0.7367	-0.281
Mof_Cl	Cl	0.2297	0.68927	0.85393	-0.361
Mof_C 	C 	0.9433	0.6752	0.1781	0.342
Mof_C 	C 	0.0339	0.7284	0.1467	-0.146
Mof_C 	C 	0.0586	0.8019	0.1003	0.098
Mof_H 	H 	0.0183	0.8187	0.0863	0.012
Mof_C 	C 	0.0908	0.7024	0.1614	0.102
Mof_H 	H 	0.0734	0.6502	0.1911	0.016
Mof_C 	C 	0.1425	0.8516	0.0738	-0.185
Mof_H 	H 	0.1602	0.9032	0.0428	0.109
Mof_C 	C 	0.174	0.751	0.1335	-0.193
Mof_H 	H 	0.2133	0.7319	0.1433	0.106
Mof_C 	C 	0.1992	0.8255	0.0926	0.181
Mof_C 	C 	0.3215	0.8477	0.0102	0.092
Mof_H 	H 	0.2879	0.7914	0.9886	0.043
Mof_C 	C 	0.3314	0.9585	0.0886	0.091
Mof_H 	H 	0.3047	0.983	0.1218	0.023
Mof_C 	C 	0.4038	0.8948	0.9829	-0.132
Mof_H 	H 	0.4256	0.8716	0.9411	0.115
Mof_C 	C 	0.4155	0.0072	0.065	-0.128
Mof_H 	H 	0.447	0.0645	0.0841	0.107
Mof_C 	C 	0.4547	0.974	0.0143	0.068
Mof_N 	N 	0.2877	0.8775	0.0649	-0.163
Mof_O 	O 	0.8861	0.6849	0.1453	-0.272
Mof_O 	O 	0.9282	0.6228	0.2367	-0.281
Mof_Cl	Cl	0.7703	0.45957	0.35393	-0.362
Mof_C 	C 	0.3248	0.2681	0.1781	0.34
Mof_C 	C 	0.2716	0.3055	0.1467	-0.144
Mof_C 	C 	0.1981	0.2567	0.1003	0.097
Mof_H 	H 	0.1813	0.1996	0.0863	0.013
Mof_C 	C 	0.2976	0.3884	0.1614	0.101
Mof_H 	H 	0.3498	0.4232	0.1911	0.017
Mof_C 	C 	0.1484	0.2909	0.0738	-0.184
Mof_H 	H 	0.0968	0.257	0.0428	0.11
Mof_C 	C 	0.249	0.423	0.1335	-0.192
Mof_H 	H 	0.2681	0.4814	0.1433	0.106
Mof_C 	C 	0.1745	0.3737	0.0926	0.181
Mof_C 	C 	0.1523	0.4738	0.0102	0.095
Mof_H 	H 	0.2086	0.4965	0.9886	0.041
Mof_C 	C 	0.0415	0.3729	0.0886	0.092
Mof_H 	H 	0.017	0.3217	0.1218	0.023
Mof_C 	C 	0.1052	0.509	0.9829	-0.135
Mof_H 	H 	0.1284	0.554	0.9411	0.116
Mof_C 	C 	0.9928	0.4083	0.065	-0.128
Mof_H 	H 	0.9355	0.3825	0.0841	0.107
Mof_C 	C 	0.026	0.4807	0.0143	0.068
Mof_N 	N 	0.1225	0.4102	0.0649	-0.163
Mof_O 	O 	0.3151	0.2012	0.1453	-0.272
Mof_O 	O 	0.3772	0.3054	0.2367	-0.281
Mof_Cl	Cl	0.54043	0.31073	0.35393	-0.362
Mof_C 	C 	0.7319	0.0567	0.1781	0.342
Mof_C 	C 	0.6945	0.9661	0.1467	-0.147
Mof_C 	C 	0.7433	0.9414	0.1003	0.098
Mof_H 	H 	0.8004	0.9817	0.0863	0.012
Mof_C 	C 	0.6116	0.9092	0.1614	0.103
Mof_H 	H 	0.5768	0.9266	0.1911	0.016
Mof_C 	C 	0.7091	0.8575	0.0738	-0.186
Mof_H 	H 	0.743	0.8398	0.0428	0.11
Mof_C 	C 	0.577	0.826	0.1335	-0.194
Mof_H 	H 	0.5186	0.7867	0.1433	0.106
Mof_C 	C 	0.6263	0.8008	0.0926	0.182
Mof_C 	C 	0.5262	0.6785	0.0102	0.101
Mof_H 	H 	0.5035	0.7121	0.9886	0.039
Mof_C 	C 	0.6271	0.6686	0.0886	0.098
Mof_H 	H 	0.6783	0.6953	0.1218	0.021
Mof_C 	C 	0.491	0.5962	0.9829	-0.143
Mof_H 	H 	0.446	0.5744	0.9411	0.118
Mof_C 	C 	0.5917	0.5845	0.065	-0.137
Mof_H 	H 	0.6175	0.553	0.0841	0.11
Mof_C 	C 	0.5193	0.5453	0.0143	0.074
Mof_N 	N 	0.5898	0.7123	0.0649	-0.166
Mof_O 	O 	0.7988	0.1139	0.1453	-0.271
Mof_O 	O 	0.6946	0.0718	0.2367	-0.281
Mof_Cl	Cl	0.68927	0.2297	0.35393	-0.362
Mof_C 	C 	0.3248	0.0567	0.3219	0.341
Mof_C 	C 	0.2716	0.9661	0.3533	-0.146
Mof_C 	C 	0.1981	0.9414	0.3997	0.098
Mof_H 	H 	0.1813	0.9817	0.4137	0.012
Mof_C 	C 	0.2976	0.9092	0.3386	0.102
Mof_H 	H 	0.3498	0.9266	0.3089	0.017
Mof_C 	C 	0.1484	0.8575	0.4262	-0.185
Mof_H 	H 	0.0968	0.8398	0.4572	0.11
Mof_C 	C 	0.249	0.826	0.3665	-0.193
Mof_H 	H 	0.2681	0.7867	0.3567	0.106
Mof_C 	C 	0.1745	0.8008	0.4074	0.182
Mof_C 	C 	0.1523	0.6785	0.4898	0.104
Mof_H 	H 	0.2086	0.7121	0.5114	0.037
Mof_C 	C 	0.0415	0.6686	0.4114	0.098
Mof_H 	H 	0.017	0.6953	0.3782	0.021
Mof_C 	C 	0.1052	0.5962	0.5171	-0.145
Mof_H 	H 	0.1284	0.5744	0.5589	0.119
Mof_C 	C 	0.9928	0.5845	0.435	-0.137
Mof_H 	H 	0.9355	0.553	0.4159	0.11
Mof_C 	C 	0.026	0.5453	0.4857	0.075
Mof_N 	N 	0.1225	0.7123	0.4351	-0.166
Mof_O 	O 	0.3151	0.1139	0.3547	-0.272
Mof_O 	O 	0.3772	0.0718	0.2633	-0.281
Mof_Cl	Cl	0.54043	0.2297	0.14607	-0.361
Mof_C 	C 	0.7319	0.6752	0.3219	0.34
Mof_C 	C 	0.6945	0.7284	0.3533	-0.145
Mof_C 	C 	0.7433	0.8019	0.3997	0.097
Mof_H 	H 	0.8004	0.8187	0.4137	0.013
Mof_C 	C 	0.6116	0.7024	0.3386	0.102
Mof_H 	H 	0.5768	0.6502	0.3089	0.017
Mof_C 	C 	0.7091	0.8516	0.4262	-0.185
Mof_H 	H 	0.743	0.9032	0.4572	0.11
Mof_C 	C 	0.577	0.751	0.3665	-0.193
Mof_H 	H 	0.5186	0.7319	0.3567	0.106
Mof_C 	C 	0.6263	0.8255	0.4074	0.182
Mof_C 	C 	0.5262	0.8477	0.4898	0.104
Mof_H 	H 	0.5035	0.7914	0.5114	0.037
Mof_C 	C 	0.6271	0.9585	0.4114	0.098
Mof_H 	H 	0.6783	0.983	0.3782	0.021
Mof_C 	C 	0.491	0.8948	0.5171	-0.145
Mof_H 	H 	0.446	0.8716	0.5589	0.119
Mof_C 	C 	0.5917	0.0072	0.435	-0.137
Mof_H 	H 	0.6175	0.0645	0.4159	0.11
Mof_C 	C 	0.5193	0.974	0.4857	0.075
Mof_N 	N 	0.5898	0.8775	0.4351	-0.166
Mof_O 	O 	0.7988	0.6849	0.3547	-0.272
Mof_O 	O 	0.6946	0.6228	0.2633	-0.281
Mof_Cl	Cl	0.68927	0.45957	0.14607	-0.362
Mof_C 	C 	0.9433	0.2681	0.3219	0.341
Mof_C 	C 	0.0339	0.3055	0.3533	-0.146
Mof_C 	C 	0.0586	0.2567	0.3997	0.098
Mof_H 	H 	0.0183	0.1996	0.4137	0.012
Mof_C 	C 	0.0908	0.3884	0.3386	0.102
Mof_H 	H 	0.0734	0.4232	0.3089	0.016
Mof_C 	C 	0.1425	0.2909	0.4262	-0.185
Mof_H 	H 	0.1602	0.257	0.4572	0.11
Mof_C 	C 	0.174	0.423	0.3665	-0.193
Mof_H 	H 	0.2133	0.4814	0.3567	0.106
Mof_C 	C 	0.1992	0.3737	0.4074	0.183
Mof_C 	C 	0.3215	0.4738	0.4898	0.104
Mof_H 	H 	0.2879	0.4965	0.5114	0.037
Mof_C 	C 	0.3314	0.3729	0.4114	0.099
Mof_H 	H 	0.3047	0.3217	0.3782	0.021
Mof_C 	C 	0.4038	0.509	0.5171	-0.146
Mof_H 	H 	0.4256	0.554	0.5589	0.119
Mof_C 	C 	0.4155	0.4083	0.435	-0.138
Mof_H 	H 	0.447	0.3825	0.4159	0.11
Mof_C 	C 	0.4547	0.4807	0.4857	0.075
Mof_N 	N 	0.2877	0.4102	0.4351	-0.166
Mof_O 	O 	0.8861	0.2012	0.3547	-0.272
Mof_O 	O 	0.9282	0.3054	0.2633	-0.281
Mof_Cl	Cl	0.7703	0.31073	0.14607	-0.361
Mof_Cd	Cd	0.33333	0.66667	0.75	0.571
Mof_Cd	Cd	0.66667	0.33333	0.25	0.571
Mof_Cd	Cd	0.2115	0.423	0.75	0.521
Mof_Cd	Cd	0.577	0.7885	0.75	0.521
Mof_Cd	Cd	0.2115	0.7885	0.75	0.521
Mof_Cd	Cd	0.7885	0.577	0.25	0.521
Mof_Cd	Cd	0.423	0.2115	0.25	0.521
Mof_Cd	Cd	0.7885	0.2115	0.25	0.521
_end
