data_functionalizedCrystal
_audit_creation_method	'EQeq! by Chris Wilmer'
_symmetry_space_group_name_H-M	'P1'
_symmetry_Int_Tables_number	1
_symmetry_cell_setting	triclinic
loop_
_symmetry_equiv_pos_as_xyz
  x,y,z
_cell_length_a	15.33
_cell_length_b	15.453
_cell_length_c	16.66
_cell_angle_alpha	90
_cell_angle_beta	90
_cell_angle_gamma	90
loop_
_atom_site_label
_atom_site_type_symbol
_atom_site_fract_x
_atom_site_fract_y
_atom_site_fract_z
_atom_site_charge
Mof_Na	Na	0.80439	0.79367	0.78314	4.407
Mof_Na	Na	0.69561	0.20633	0.28314	4.41
Mof_Na	Na	0.19561	0.29367	0.71686	4.41
Mof_Na	Na	0.30439	0.70633	0.21686	4.41
Mof_Ni	Ni	0.39161	0.09381	0.89981	1.139
Mof_Ni	Ni	0.10839	0.90619	0.39981	1.139
Mof_Ni	Ni	0.60839	0.59381	0.60019	1.14
Mof_Ni	Ni	0.89161	0.40619	0.10019	1.14
Mof_H 	H 	0.6476	0.0515	0.7357	0.061
Mof_H 	H 	0.6412	0.0709	0.828	0.078
Mof_H 	H 	0.635	0.9219	0.8582	0.066
Mof_H 	H 	0.6497	0.8881	0.6923	-0.107
Mof_H 	H 	0.505	0.8402	0.6913	-0.006
Mof_H 	H 	0.5154	0.9858	0.6648	0.105
Mof_H 	H 	0.4298	0.9703	0.7143	0.119
Mof_H 	H 	0.2109	0.8566	0.9883	0.16
Mof_H 	H 	0.3049	0.8512	0.9515	0.163
Mof_H 	H 	0.3674	0.8631	0.0767	-0.132
Mof_H 	H 	0.1964	0.8711	0.1426	0.001
Mof_H 	H 	0.2235	0.0144	0.1768	-0.048
Mof_H 	H 	0.161	0.0002	0.0514	0.151
Mof_H 	H 	0.2262	0.0785	0.0493	0.169
Mof_H 	H 	0.4385	0.2618	0.1394	0.144
Mof_H 	H 	0.4171	0.1634	0.1269	0.162
Mof_H 	H 	0.5668	0.1295	0.1186	-0.092
Mof_H 	H 	0.6	0.3077	0.1464	-0.048
Mof_H 	H 	0.6503	0.3212	0.0164	-0.026
Mof_H 	H 	0.5202	0.3011	0.9413	0.142
Mof_H 	H 	0.5017	0.3481	0.0232	0.129
Mof_H 	H 	0.4755	0.9593	0.859	0.244
Mof_H 	H 	0.7661	0.8896	0.8125	-0.81
Mof_H 	H 	0.6236	0.7548	0.7466	0.45
Mof_H 	H 	0.4739	0.8909	0.8371	0.162
Mof_H 	H 	0.3766	0.0154	0.0297	0.246
Mof_H 	H 	0.3225	0.7316	0.0464	0.398
Mof_H 	H 	0.2755	0.891	0.2546	0.397
Mof_H 	H 	0.3671	0.0228	0.0936	0.176
Mof_H 	H 	0.5321	0.142	0.9736	0.256
Mof_H 	H 	0.5255	0.137	0.2434	0.369
Mof_H 	H 	0.736	0.2481	0.117	0.461
Mof_H 	H 	0.601	0.1663	0.9721	0.166
Mof_H 	H 	0.8524	0.9485	0.2357	0.061
Mof_H 	H 	0.8588	0.9291	0.328	0.079
Mof_H 	H 	0.865	0.0781	0.3582	0.066
Mof_H 	H 	0.8503	0.1119	0.1923	-0.106
Mof_H 	H 	0.995	0.1598	0.1913	-0.008
Mof_H 	H 	0.9846	0.0142	0.1648	0.109
Mof_H 	H 	0.0702	0.0297	0.2143	0.121
Mof_H 	H 	0.2891	0.1434	0.4883	0.159
Mof_H 	H 	0.1951	0.1488	0.4515	0.163
Mof_H 	H 	0.1326	0.1369	0.5767	-0.131
Mof_H 	H 	0.3036	0.1289	0.6426	-0
Mof_H 	H 	0.2765	0.9856	0.6768	-0.045
Mof_H 	H 	0.339	0.9998	0.5514	0.15
Mof_H 	H 	0.2738	0.9215	0.5493	0.167
Mof_H 	H 	0.0615	0.7382	0.6394	0.144
Mof_H 	H 	0.0829	0.8366	0.6269	0.162
Mof_H 	H 	0.9332	0.8705	0.6186	-0.092
Mof_H 	H 	0.9	0.6923	0.6464	-0.048
Mof_H 	H 	0.8497	0.6788	0.5164	-0.026
Mof_H 	H 	0.9798	0.6989	0.4413	0.142
Mof_H 	H 	0.9983	0.6519	0.5232	0.13
Mof_H 	H 	0.0245	0.0407	0.359	0.243
Mof_H 	H 	0.7339	0.1104	0.3125	-0.811
Mof_H 	H 	0.8764	0.2452	0.2466	0.45
Mof_H 	H 	0.0261	0.1091	0.3371	0.164
Mof_H 	H 	0.1234	0.9846	0.5297	0.247
Mof_H 	H 	0.1775	0.2684	0.5464	0.397
Mof_H 	H 	0.2245	0.109	0.7546	0.398
Mof_H 	H 	0.1329	0.9772	0.5936	0.175
Mof_H 	H 	0.9679	0.858	0.4736	0.254
Mof_H 	H 	0.9745	0.863	0.7434	0.368
Mof_H 	H 	0.764	0.7519	0.617	0.461
Mof_H 	H 	0.899	0.8337	0.4721	0.166
Mof_H 	H 	0.3524	0.5515	0.7643	0.061
Mof_H 	H 	0.3588	0.5709	0.672	0.079
Mof_H 	H 	0.365	0.4219	0.6418	0.067
Mof_H 	H 	0.3503	0.3881	0.8077	-0.107
Mof_H 	H 	0.495	0.3402	0.8087	-0.006
Mof_H 	H 	0.4846	0.4858	0.8352	0.105
Mof_H 	H 	0.5702	0.4703	0.7857	0.119
Mof_H 	H 	0.7891	0.3566	0.5117	0.159
Mof_H 	H 	0.6951	0.3512	0.5485	0.163
Mof_H 	H 	0.6326	0.3631	0.4233	-0.131
Mof_H 	H 	0.8036	0.3711	0.3574	0
Mof_H 	H 	0.7765	0.5144	0.3232	-0.046
Mof_H 	H 	0.839	0.5002	0.4486	0.151
Mof_H 	H 	0.7738	0.5785	0.4507	0.168
Mof_H 	H 	0.5615	0.7618	0.3606	0.145
Mof_H 	H 	0.5829	0.6634	0.3731	0.162
Mof_H 	H 	0.4332	0.6295	0.3814	-0.092
Mof_H 	H 	0.4	0.8077	0.3536	-0.048
Mof_H 	H 	0.3497	0.8212	0.4836	-0.026
Mof_H 	H 	0.4798	0.8011	0.5587	0.142
Mof_H 	H 	0.4983	0.8481	0.4768	0.13
Mof_H 	H 	0.5245	0.4593	0.641	0.245
Mof_H 	H 	0.2339	0.3896	0.6875	-0.811
Mof_H 	H 	0.3764	0.2548	0.7534	0.45
Mof_H 	H 	0.5261	0.3909	0.6629	0.162
Mof_H 	H 	0.6234	0.5154	0.4703	0.248
Mof_H 	H 	0.6775	0.2316	0.4536	0.398
Mof_H 	H 	0.7245	0.391	0.2454	0.397
Mof_H 	H 	0.6329	0.5228	0.4064	0.175
Mof_H 	H 	0.4679	0.642	0.5264	0.256
Mof_H 	H 	0.4745	0.637	0.2566	0.369
Mof_H 	H 	0.264	0.7481	0.383	0.461
Mof_H 	H 	0.399	0.6663	0.5279	0.165
Mof_H 	H 	0.1476	0.4485	0.2643	0.06
Mof_H 	H 	0.1412	0.4291	0.172	0.078
Mof_H 	H 	0.135	0.5781	0.1418	0.067
Mof_H 	H 	0.1497	0.6119	0.3077	-0.107
Mof_H 	H 	0.005	0.6598	0.3087	-0.006
Mof_H 	H 	0.0154	0.5142	0.3352	0.104
Mof_H 	H 	0.9298	0.5297	0.2857	0.118
Mof_H 	H 	0.7109	0.6434	0.0117	0.159
Mof_H 	H 	0.8049	0.6488	0.0485	0.163
Mof_H 	H 	0.8674	0.6369	0.9233	-0.131
Mof_H 	H 	0.6964	0.6289	0.8574	-0
Mof_H 	H 	0.7235	0.4856	0.8232	-0.046
Mof_H 	H 	0.661	0.4998	0.9486	0.15
Mof_H 	H 	0.7262	0.4215	0.9507	0.168
Mof_H 	H 	0.9385	0.2382	0.8606	0.145
Mof_H 	H 	0.9171	0.3366	0.8731	0.163
Mof_H 	H 	0.0668	0.3705	0.8814	-0.092
Mof_H 	H 	0.1	0.1923	0.8536	-0.047
Mof_H 	H 	0.1503	0.1788	0.9836	-0.027
Mof_H 	H 	0.0202	0.1989	0.0587	0.144
Mof_H 	H 	0.0017	0.1519	0.9768	0.133
Mof_H 	H 	0.9755	0.5407	0.141	0.245
Mof_H 	H 	0.2661	0.6104	0.1875	-0.811
Mof_H 	H 	0.1236	0.7452	0.2534	0.45
Mof_H 	H 	0.9739	0.6091	0.1629	0.162
Mof_H 	H 	0.8766	0.4846	0.9703	0.246
Mof_H 	H 	0.8225	0.7684	0.9536	0.397
Mof_H 	H 	0.7755	0.609	0.7454	0.397
Mof_H 	H 	0.8671	0.4772	0.9064	0.176
Mof_H 	H 	0.0321	0.358	0.0264	0.254
Mof_H 	H 	0.0255	0.363	0.7566	0.369
Mof_H 	H 	0.236	0.2519	0.883	0.461
Mof_H 	H 	0.101	0.3337	0.0279	0.166
Mof_C 	C 	0.524	0.0333	0.7798	0.153
Mof_C 	C 	0.6225	0.0319	0.7859	-0.156
Mof_C 	C 	0.6549	0.939	0.8046	-0.109
Mof_C 	C 	0.6229	0.8754	0.7443	0.229
Mof_C 	C 	0.5224	0.8784	0.7355	0.125
Mof_C 	C 	0.493	0.9689	0.7169	-0.305
Mof_C 	C 	0.4928	0.1269	0.7579	0.249
Mof_C 	C 	0.2715	0.9733	0.9844	0.275
Mof_C 	C 	0.2704	0.8771	0.9941	-0.47
Mof_C 	C 	0.3054	0.8477	0.0734	0.401
Mof_C 	C 	0.2571	0.8908	0.1427	-0.058
Mof_C 	C 	0.2586	0.9887	0.1338	0.274
Mof_C 	C 	0.2221	0.016	0.0542	-0.444
Mof_C 	C 	0.2317	0.0033	0.9016	0.214
Mof_C 	C 	0.457	0.2227	0.0222	0.245
Mof_C 	C 	0.4575	0.2092	0.1129	-0.407
Mof_C 	C 	0.5495	0.1853	0.1416	0.316
Mof_C 	C 	0.6139	0.2541	0.1177	0.034
Mof_C 	C 	0.6121	0.2719	0.0277	0.198
Mof_C 	C 	0.5202	0.2939	0.9992	-0.382
Mof_C 	C 	0.3609	0.2461	0.9953	0.227
Mof_C 	C 	0.976	0.9667	0.2798	0.154
Mof_C 	C 	0.8775	0.9681	0.2859	-0.16
Mof_C 	C 	0.8451	0.061	0.3046	-0.105
Mof_C 	C 	0.8771	0.1246	0.2443	0.225
Mof_C 	C 	0.9776	0.1216	0.2355	0.133
Mof_C 	C 	0.007	0.0311	0.2169	-0.315
Mof_C 	C 	0.0072	0.8731	0.2579	0.25
Mof_C 	C 	0.2285	0.0267	0.4844	0.272
Mof_C 	C 	0.2296	0.1229	0.4941	-0.466
Mof_C 	C 	0.1946	0.1523	0.5734	0.398
Mof_C 	C 	0.2429	0.1092	0.6427	-0.055
Mof_C 	C 	0.2414	0.0113	0.6338	0.266
Mof_C 	C 	0.2779	0.984	0.5542	-0.437
Mof_C 	C 	0.2683	0.9967	0.4016	0.216
Mof_C 	C 	0.043	0.7773	0.5222	0.247
Mof_C 	C 	0.0425	0.7908	0.6129	-0.406
Mof_C 	C 	0.9505	0.8147	0.6416	0.315
Mof_C 	C 	0.8861	0.7459	0.6177	0.034
Mof_C 	C 	0.8879	0.7281	0.5277	0.199
Mof_C 	C 	0.9798	0.7061	0.4992	-0.385
Mof_C 	C 	0.1391	0.7539	0.4953	0.226
Mof_C 	C 	0.476	0.5333	0.7202	0.153
Mof_C 	C 	0.3775	0.5319	0.7141	-0.157
Mof_C 	C 	0.3451	0.439	0.6954	-0.108
Mof_C 	C 	0.3771	0.3754	0.7557	0.228
Mof_C 	C 	0.4776	0.3784	0.7645	0.125
Mof_C 	C 	0.507	0.4689	0.7831	-0.305
Mof_C 	C 	0.5072	0.6269	0.7421	0.249
Mof_C 	C 	0.7285	0.4733	0.5156	0.274
Mof_C 	C 	0.7296	0.3771	0.5059	-0.468
Mof_C 	C 	0.6946	0.3477	0.4266	0.399
Mof_C 	C 	0.7429	0.3908	0.3573	-0.055
Mof_C 	C 	0.7414	0.4887	0.3662	0.268
Mof_C 	C 	0.7779	0.516	0.4458	-0.439
Mof_C 	C 	0.7683	0.5033	0.5984	0.214
Mof_C 	C 	0.543	0.7227	0.4778	0.247
Mof_C 	C 	0.5425	0.7092	0.3871	-0.408
Mof_C 	C 	0.4505	0.6853	0.3584	0.317
Mof_C 	C 	0.3861	0.7541	0.3823	0.034
Mof_C 	C 	0.3879	0.7719	0.4723	0.199
Mof_C 	C 	0.4798	0.7939	0.5008	-0.384
Mof_C 	C 	0.6391	0.7461	0.5047	0.226
Mof_C 	C 	0.024	0.4667	0.2202	0.151
Mof_C 	C 	0.1225	0.4681	0.2141	-0.156
Mof_C 	C 	0.1549	0.561	0.1954	-0.109
Mof_C 	C 	0.1229	0.6246	0.2557	0.229
Mof_C 	C 	0.0224	0.6216	0.2645	0.125
Mof_C 	C 	0.993	0.5311	0.2831	-0.303
Mof_C 	C 	0.9928	0.3731	0.2421	0.251
Mof_C 	C 	0.7715	0.5267	0.0156	0.274
Mof_C 	C 	0.7704	0.6229	0.0059	-0.466
Mof_C 	C 	0.8054	0.6523	0.9266	0.397
Mof_C 	C 	0.7571	0.6092	0.8573	-0.055
Mof_C 	C 	0.7586	0.5113	0.8662	0.268
Mof_C 	C 	0.7221	0.484	0.9458	-0.44
Mof_C 	C 	0.7317	0.4967	0.0984	0.215
Mof_C 	C 	0.957	0.2773	0.9778	0.249
Mof_C 	C 	0.9575	0.2908	0.8871	-0.41
Mof_C 	C 	0.0495	0.3147	0.8584	0.318
Mof_C 	C 	0.1139	0.2459	0.8823	0.032
Mof_C 	C 	0.1121	0.2281	0.9723	0.204
Mof_C 	C 	0.0202	0.2061	0.0008	-0.392
Mof_C 	C 	0.8609	0.2539	0.0047	0.226
Mof_O 	O 	0.4846	0.0115	0.857	-0.53
Mof_O 	O 	0.7482	0.9384	0.8023	-0.014
Mof_O 	O 	0.6509	0.7924	0.7706	-1.018
Mof_O 	O 	0.482	0.8496	0.8072	-0.33
Mof_O 	O 	0.4329	0.1592	0.8028	-0.43
Mof_O 	O 	0.5259	0.1621	0.6995	-0.257
Mof_O 	O 	0.3615	0.0034	0.9838	-0.555
Mof_O 	O 	0.2967	0.7563	0.0829	-1.1
Mof_O 	O 	0.2978	0.8646	0.2172	-0.916
Mof_O 	O 	0.3454	0.0219	0.1386	-0.39
Mof_O 	O 	0.2794	0.0446	0.8523	-0.4
Mof_O 	O 	0.1545	0.9838	0.8917	-0.277
Mof_O 	O 	0.4795	0.143	0.9823	-0.553
Mof_O 	O 	0.5515	0.1805	0.2285	-1.045
Mof_O 	O 	0.6978	0.2241	0.1434	-1.041
Mof_O 	O 	0.6423	0.1985	0.9818	-0.341
Mof_O 	O 	0.3253	0.1939	0.946	-0.416
Mof_O 	O 	0.3275	0.3105	0.0247	-0.253
Mof_O 	O 	0.0154	0.9885	0.357	-0.528
Mof_O 	O 	0.7518	0.0616	0.3023	-0.014
Mof_O 	O 	0.8491	0.2076	0.2706	-1.018
Mof_O 	O 	0.018	0.1504	0.3072	-0.333
Mof_O 	O 	0.0671	0.8408	0.3028	-0.43
Mof_O 	O 	0.9741	0.8379	0.1995	-0.259
Mof_O 	O 	0.1385	0.9966	0.4838	-0.556
Mof_O 	O 	0.2033	0.2437	0.5829	-1.1
Mof_O 	O 	0.2022	0.1354	0.7172	-0.917
Mof_O 	O 	0.1546	0.9781	0.6386	-0.387
Mof_O 	O 	0.2206	0.9554	0.3523	-0.4
Mof_O 	O 	0.3455	0.0162	0.3917	-0.277
Mof_O 	O 	0.0205	0.857	0.4823	-0.552
Mof_O 	O 	0.9485	0.8195	0.7285	-1.044
Mof_O 	O 	0.8022	0.7759	0.6434	-1.041
Mof_O 	O 	0.8577	0.8015	0.4818	-0.341
Mof_O 	O 	0.1747	0.8061	0.446	-0.416
Mof_O 	O 	0.1725	0.6895	0.5247	-0.252
Mof_O 	O 	0.5154	0.5115	0.643	-0.531
Mof_O 	O 	0.2518	0.4384	0.6977	-0.013
Mof_O 	O 	0.3491	0.2924	0.7294	-1.019
Mof_O 	O 	0.518	0.3496	0.6928	-0.329
Mof_O 	O 	0.5671	0.6592	0.6972	-0.43
Mof_O 	O 	0.4741	0.6621	0.8005	-0.258
Mof_O 	O 	0.6385	0.5034	0.5162	-0.557
Mof_O 	O 	0.7033	0.2563	0.4171	-1.1
Mof_O 	O 	0.7022	0.3646	0.2828	-0.916
Mof_O 	O 	0.6546	0.5219	0.3614	-0.388
Mof_O 	O 	0.7206	0.5446	0.6477	-0.4
Mof_O 	O 	0.8455	0.4838	0.6083	-0.277
Mof_O 	O 	0.5205	0.643	0.5177	-0.554
Mof_O 	O 	0.4485	0.6805	0.2715	-1.045
Mof_O 	O 	0.3022	0.7241	0.3566	-1.041
Mof_O 	O 	0.3577	0.6985	0.5182	-0.341
Mof_O 	O 	0.6747	0.6939	0.554	-0.415
Mof_O 	O 	0.6725	0.8105	0.4753	-0.252
Mof_O 	O 	0.9846	0.4885	0.143	-0.53
Mof_O 	O 	0.2482	0.5616	0.1977	-0.013
Mof_O 	O 	0.1509	0.7076	0.2294	-1.019
Mof_O 	O 	0.982	0.6504	0.1928	-0.329
Mof_O 	O 	0.9329	0.3408	0.1972	-0.43
Mof_O 	O 	0.0259	0.3379	0.3005	-0.259
Mof_O 	O 	0.8615	0.4966	0.0162	-0.555
Mof_O 	O 	0.7967	0.7437	0.9171	-1.099
Mof_O 	O 	0.7978	0.6354	0.7828	-0.916
Mof_O 	O 	0.8454	0.4781	0.8614	-0.388
Mof_O 	O 	0.7794	0.4554	0.1477	-0.4
Mof_O 	O 	0.6545	0.5162	0.1083	-0.277
Mof_O 	O 	0.9795	0.357	0.0177	-0.552
Mof_O 	O 	0.0515	0.3195	0.7715	-1.045
Mof_O 	O 	0.1978	0.2759	0.8566	-1.041
Mof_O 	O 	0.1423	0.3015	0.0182	-0.343
Mof_O 	O 	0.8253	0.3061	0.054	-0.415
Mof_O 	O 	0.8275	0.1895	0.9753	-0.252
_end
