data_functionalizedCrystal
_audit_creation_method	'EQeq! by Chris Wilmer'
_symmetry_space_group_name_H-M	'P1'
_symmetry_Int_Tables_number	1
_symmetry_cell_setting	triclinic
loop_
_symmetry_equiv_pos_as_xyz
  x,y,z
_cell_length_a	14.4317
_cell_length_b	17.5615
_cell_length_c	7.4864
_cell_angle_alpha	90
_cell_angle_beta	90
_cell_angle_gamma	90
loop_
_atom_site_label
_atom_site_type_symbol
_atom_site_fract_x
_atom_site_fract_y
_atom_site_fract_z
_atom_site_charge
Mof_N 	N 	0.14434	0.77077	0.286	-0.211
Mof_C 	C 	0.10339	0.7753	0.1684	0.131
Mof_N 	N 	0.64434	0.27077	0.286	-0.211
Mof_C 	C 	0.60339	0.2753	0.1684	0.131
Mof_N 	N 	0.85566	0.22923	0.286	-0.211
Mof_C 	C 	0.89661	0.2247	0.1684	0.132
Mof_N 	N 	0.35566	0.72923	0.286	-0.211
Mof_C 	C 	0.39661	0.7247	0.1684	0.13
Mof_N 	N 	0.85566	0.77077	0.714	-0.208
Mof_C 	C 	0.89661	0.7753	0.8316	0.099
Mof_N 	N 	0.35566	0.27077	0.714	-0.208
Mof_C 	C 	0.39661	0.2753	0.8316	0.101
Mof_N 	N 	0.14434	0.22923	0.714	-0.207
Mof_C 	C 	0.10339	0.2247	0.8316	0.102
Mof_N 	N 	0.64434	0.72923	0.714	-0.208
Mof_C 	C 	0.60339	0.7247	0.8316	0.1
Mof_N 	N 	0.85566	0.22923	0.714	-0.207
Mof_C 	C 	0.89661	0.2247	0.8316	0.102
Mof_N 	N 	0.35566	0.72923	0.714	-0.208
Mof_C 	C 	0.39661	0.7247	0.8316	0.1
Mof_N 	N 	0.14434	0.77077	0.714	-0.208
Mof_C 	C 	0.10339	0.7753	0.8316	0.099
Mof_N 	N 	0.64434	0.27077	0.714	-0.208
Mof_C 	C 	0.60339	0.2753	0.8316	0.101
Mof_N 	N 	0.14434	0.22923	0.286	-0.211
Mof_C 	C 	0.10339	0.2247	0.1684	0.132
Mof_N 	N 	0.64434	0.72923	0.286	-0.211
Mof_C 	C 	0.60339	0.7247	0.1684	0.13
Mof_N 	N 	0.85566	0.77077	0.286	-0.212
Mof_C 	C 	0.89661	0.7753	0.1684	0.13
Mof_N 	N 	0.35566	0.27077	0.286	-0.211
Mof_C 	C 	0.39661	0.2753	0.1684	0.131
Mof_Mn	Mn	0.25	0.75	0.5	0.764
Mof_Mn	Mn	0.75	0.25	0.5	0.767
Mof_Mn	Mn	0.75	0.75	0.5	0.764
Mof_Mn	Mn	0.25	0.25	0.5	0.767
Mof_C 	C 	0.05127	0.77448	-0	-0.062
Mof_C 	C 	0.55127	0.27448	-0	-0.061
Mof_C 	C 	0.94873	0.22552	-0	-0.061
Mof_C 	C 	0.44873	0.72552	-0	-0.061
Mof_C 	C 	0.94873	0.77448	-0	-0.062
Mof_C 	C 	0.44873	0.27448	-0	-0.061
Mof_C 	C 	0.05127	0.22552	-0	-0.061
Mof_C 	C 	0.55127	0.72552	-0	-0.061
Mof_N 	N 	0.28466	0.87251	0.5	-0.212
Mof_C 	C 	0.31845	0.9286	0.5	0.122
Mof_N 	N 	0.78466	0.37251	0.5	-0.216
Mof_C 	C 	0.81845	0.4286	0.5	0.141
Mof_N 	N 	0.71534	0.12749	0.5	-0.214
Mof_C 	C 	0.68155	0.0714	0.5	0.138
Mof_N 	N 	0.21534	0.62749	0.5	-0.216
Mof_C 	C 	0.18155	0.5714	0.5	0.141
Mof_N 	N 	0.71534	0.87251	0.5	-0.212
Mof_C 	C 	0.68155	0.9286	0.5	0.122
Mof_N 	N 	0.21534	0.37251	0.5	-0.216
Mof_C 	C 	0.18155	0.4286	0.5	0.141
Mof_N 	N 	0.28466	0.12749	0.5	-0.214
Mof_C 	C 	0.31845	0.0714	0.5	0.138
Mof_N 	N 	0.78466	0.62749	0.5	-0.216
Mof_C 	C 	0.81845	0.5714	0.5	0.141
Mof_C 	C 	0.3628	0	0.5	-0.101
Mof_C 	C 	0.8628	0.5	0.5	-0.119
Mof_C 	C 	0.6372	0	0.5	-0.101
Mof_C 	C 	0.1372	0.5	0.5	-0.119
_end
