data_functionalizedCrystal
_audit_creation_method	'EQeq! by Chris Wilmer'
_symmetry_space_group_name_H-M	'P1'
_symmetry_Int_Tables_number	1
_symmetry_cell_setting	triclinic
loop_
_symmetry_equiv_pos_as_xyz
  x,y,z
_cell_length_a	8.4884
_cell_length_b	25.37
_cell_length_c	17.806
_cell_angle_alpha	90
_cell_angle_beta	90
_cell_angle_gamma	90
loop_
_atom_site_label
_atom_site_type_symbol
_atom_site_fract_x
_atom_site_fract_y
_atom_site_fract_z
_atom_site_charge
Mof_Ho	Ho	0.16574	0.02336	0.78249	2.208
Mof_Ho	Ho	0.66574	0.97664	0.71751	2.21
Mof_Ho	Ho	0.66574	0.52336	0.21751	2.208
Mof_Ho	Ho	0.16574	0.47664	0.28249	2.209
Mof_Ag	Ag	0.46163	0.72731	0.95174	0.536
Mof_Ag	Ag	0.96163	0.27269	0.54826	0.534
Mof_Ag	Ag	0.96163	0.22731	0.04826	0.533
Mof_Ag	Ag	0.46163	0.77269	0.45174	0.536
Mof_H 	H 	0.0598	0.9037	0.3577	0.143
Mof_H 	H 	0.7208	0.8693	0.1059	0.158
Mof_H 	H 	0.9647	0.9549	0.4926	0.073
Mof_H 	H 	0.2469	0.8379	0.3272	-0.02
Mof_H 	H 	0.4011	0.8607	0.5824	0.036
Mof_H 	H 	0.8828	0.9329	0.9967	0.07
Mof_H 	H 	0.5565	0.7949	0.1004	-0.014
Mof_H 	H 	0.6879	0.7981	0.8405	0.033
Mof_H 	H 	0.5598	0.0963	0.1423	0.143
Mof_H 	H 	0.2208	0.1307	0.3941	0.158
Mof_H 	H 	0.4647	0.0451	0.0074	0.074
Mof_H 	H 	0.7469	0.1621	0.1728	-0.02
Mof_H 	H 	0.9011	0.1393	0.9176	0.036
Mof_H 	H 	0.3828	0.0671	0.5033	0.07
Mof_H 	H 	0.0565	0.2051	0.3996	-0.014
Mof_H 	H 	0.1879	0.2019	0.6595	0.033
Mof_H 	H 	0.5598	0.4037	0.6423	0.143
Mof_H 	H 	0.2208	0.3693	0.8941	0.158
Mof_H 	H 	0.4647	0.4549	0.5074	0.074
Mof_H 	H 	0.7469	0.3379	0.6728	-0.02
Mof_H 	H 	0.9011	0.3607	0.4176	0.035
Mof_H 	H 	0.3828	0.4329	0.0033	0.07
Mof_H 	H 	0.0565	0.2949	0.8996	-0.014
Mof_H 	H 	0.1879	0.2981	0.1595	0.033
Mof_H 	H 	0.0598	0.5963	0.8577	0.142
Mof_H 	H 	0.7208	0.6307	0.6059	0.158
Mof_H 	H 	0.9647	0.5451	0.9926	0.074
Mof_H 	H 	0.2469	0.6621	0.8272	-0.02
Mof_H 	H 	0.4011	0.6393	0.0824	0.036
Mof_H 	H 	0.8828	0.5671	0.4967	0.07
Mof_H 	H 	0.5565	0.7051	0.6004	-0.014
Mof_H 	H 	0.6879	0.7019	0.3405	0.033
Mof_C 	C 	0.0102	0.98272	0.6293	0.451
Mof_C 	C 	0.1054	0.94435	0.5832	-0.063
Mof_C 	C 	0.0535	0.93741	0.5103	-0.073
Mof_C 	C 	0.1383	0.90334	0.4642	0.097
Mof_C 	C 	0.2323	0.85281	0.3744	0.128
Mof_C 	C 	0.2607	0.8725	0.4921	0.021
Mof_C 	C 	0.3157	0.87999	0.5645	-0.038
Mof_C 	C 	0.2411	0.9169	0.61	-0.09
Mof_C 	C 	0.3108	0.92663	0.6859	0.449
Mof_C 	C 	0.952	0.95335	0.854	0.366
Mof_C 	C 	0.866	0.9077	0.8879	-0.053
Mof_C 	C 	0.8417	0.90684	0.9656	-0.086
Mof_C 	C 	0.7531	0.86514	0.9943	0.068
Mof_C 	C 	0.6083	0.81011	0.0598	0.134
Mof_C 	C 	0.6914	0.82586	0.9476	0.017
Mof_C 	C 	0.7234	0.82545	0.8709	-0.068
Mof_C 	C 	0.809	0.8667	0.8409	-0.086
Mof_C 	C 	0.8427	0.86473	0.7578	0.369
Mof_C 	C 	0.5102	0.01728	0.8707	0.449
Mof_C 	C 	0.6054	0.05565	0.9168	-0.062
Mof_C 	C 	0.5535	0.06259	0.9897	-0.075
Mof_C 	C 	0.6383	0.09666	0.0358	0.098
Mof_C 	C 	0.7323	0.14719	0.1256	0.128
Mof_C 	C 	0.7607	0.1275	0.0079	0.02
Mof_C 	C 	0.8157	0.12001	0.9355	-0.037
Mof_C 	C 	0.7411	0.0831	0.89	-0.091
Mof_C 	C 	0.8108	0.07337	0.8141	0.449
Mof_C 	C 	0.452	0.04665	0.646	0.366
Mof_C 	C 	0.366	0.0923	0.6121	-0.053
Mof_C 	C 	0.3417	0.09316	0.5344	-0.086
Mof_C 	C 	0.2531	0.13486	0.5057	0.067
Mof_C 	C 	0.1083	0.18989	0.4402	0.134
Mof_C 	C 	0.1914	0.17414	0.5524	0.017
Mof_C 	C 	0.2234	0.17455	0.6291	-0.068
Mof_C 	C 	0.309	0.1333	0.6591	-0.086
Mof_C 	C 	0.3427	0.13527	0.7422	0.369
Mof_C 	C 	0.5102	0.48272	0.3707	0.45
Mof_C 	C 	0.6054	0.44435	0.4168	-0.062
Mof_C 	C 	0.5535	0.43741	0.4897	-0.074
Mof_C 	C 	0.6383	0.40334	0.5358	0.097
Mof_C 	C 	0.7323	0.35281	0.6256	0.128
Mof_C 	C 	0.7607	0.3725	0.5079	0.02
Mof_C 	C 	0.8157	0.37999	0.4355	-0.038
Mof_C 	C 	0.7411	0.4169	0.39	-0.09
Mof_C 	C 	0.8108	0.42663	0.3141	0.449
Mof_C 	C 	0.452	0.45335	0.146	0.366
Mof_C 	C 	0.366	0.4077	0.1121	-0.053
Mof_C 	C 	0.3417	0.40684	0.0344	-0.086
Mof_C 	C 	0.2531	0.36514	0.0057	0.068
Mof_C 	C 	0.1083	0.31011	0.9402	0.133
Mof_C 	C 	0.1914	0.32586	0.0524	0.017
Mof_C 	C 	0.2234	0.32545	0.1291	-0.068
Mof_C 	C 	0.309	0.3667	0.1591	-0.086
Mof_C 	C 	0.3427	0.36473	0.2422	0.369
Mof_C 	C 	0.0102	0.51728	0.1293	0.449
Mof_C 	C 	0.1054	0.55565	0.0832	-0.062
Mof_C 	C 	0.0535	0.56259	0.0103	-0.074
Mof_C 	C 	0.1383	0.59666	0.9642	0.097
Mof_C 	C 	0.2323	0.64719	0.8744	0.128
Mof_C 	C 	0.2607	0.6275	0.9921	0.02
Mof_C 	C 	0.3157	0.62001	0.0645	-0.037
Mof_C 	C 	0.2411	0.5831	0.11	-0.091
Mof_C 	C 	0.3108	0.57337	0.1859	0.449
Mof_C 	C 	0.952	0.54665	0.354	0.366
Mof_C 	C 	0.866	0.5923	0.3879	-0.053
Mof_C 	C 	0.8417	0.59316	0.4656	-0.085
Mof_C 	C 	0.7531	0.63486	0.4943	0.067
Mof_C 	C 	0.6083	0.68989	0.5598	0.134
Mof_C 	C 	0.6914	0.67414	0.4476	0.017
Mof_C 	C 	0.7234	0.67455	0.3709	-0.068
Mof_C 	C 	0.809	0.6333	0.3409	-0.086
Mof_C 	C 	0.8427	0.63527	0.2578	0.369
Mof_N 	N 	0.1251	0.89028	0.38929	-0.227
Mof_N 	N 	0.3146	0.83955	0.43452	-0.214
Mof_N 	N 	0.5995	0.79178	0.99055	-0.213
Mof_N 	N 	0.6992	0.85255	0.06521	-0.232
Mof_N 	N 	0.6251	0.10972	0.11071	-0.227
Mof_N 	N 	0.8146	0.16045	0.06548	-0.213
Mof_N 	N 	0.0995	0.20822	0.50945	-0.213
Mof_N 	N 	0.1992	0.14745	0.43479	-0.231
Mof_N 	N 	0.6251	0.39028	0.61071	-0.227
Mof_N 	N 	0.8146	0.33955	0.56548	-0.214
Mof_N 	N 	0.0995	0.29178	0.00945	-0.212
Mof_N 	N 	0.1992	0.35255	0.93479	-0.231
Mof_N 	N 	0.1251	0.60972	0.88929	-0.227
Mof_N 	N 	0.3146	0.66045	0.93452	-0.214
Mof_N 	N 	0.5995	0.70822	0.49055	-0.213
Mof_N 	N 	0.6992	0.64745	0.56521	-0.231
Mof_O 	O 	0.0779	0.02106	0.66116	-0.542
Mof_O 	O 	0.8639	0.97599	0.62882	-0.518
Mof_O 	O 	0.2244	0.94015	0.74011	-0.523
Mof_O 	O 	0.4578	0.92025	0.69172	-0.516
Mof_O 	O 	0.0646	0.97478	0.88761	-0.449
Mof_O 	O 	0.9119	0.96901	0.78855	-0.571
Mof_O 	O 	0.7478	0.88979	0.7146	-0.478
Mof_O 	O 	0.9497	0.83663	0.73435	-0.282
Mof_O 	O 	0.5779	0.97894	0.83884	-0.541
Mof_O 	O 	0.3639	0.02401	0.87118	-0.517
Mof_O 	O 	0.7244	0.05985	0.75989	-0.523
Mof_O 	O 	0.9578	0.07975	0.80828	-0.515
Mof_O 	O 	0.5646	0.02522	0.61239	-0.449
Mof_O 	O 	0.4119	0.03099	0.71145	-0.571
Mof_O 	O 	0.2478	0.11021	0.7854	-0.478
Mof_O 	O 	0.4497	0.16337	0.76565	-0.283
Mof_O 	O 	0.5779	0.52106	0.33884	-0.541
Mof_O 	O 	0.3639	0.47599	0.37118	-0.517
Mof_O 	O 	0.7244	0.44015	0.25989	-0.523
Mof_O 	O 	0.9578	0.42025	0.30828	-0.516
Mof_O 	O 	0.5646	0.47478	0.11239	-0.449
Mof_O 	O 	0.4119	0.46901	0.21145	-0.571
Mof_O 	O 	0.2478	0.38979	0.2854	-0.478
Mof_O 	O 	0.4497	0.33663	0.26565	-0.283
Mof_O 	O 	0.0779	0.47894	0.16116	-0.541
Mof_O 	O 	0.8639	0.52401	0.12882	-0.517
Mof_O 	O 	0.2244	0.55985	0.24011	-0.523
Mof_O 	O 	0.4578	0.57975	0.19172	-0.516
Mof_O 	O 	0.0646	0.52522	0.38761	-0.45
Mof_O 	O 	0.9119	0.53099	0.28855	-0.571
Mof_O 	O 	0.7478	0.61021	0.2146	-0.478
Mof_O 	O 	0.9497	0.66337	0.23435	-0.283
Mof_Ho	Ho	0.33426	0.47664	0.78249	2.208
Mof_Ho	Ho	0.83426	0.52336	0.71751	2.209
Mof_Ho	Ho	0.83426	0.97664	0.21751	2.207
Mof_Ho	Ho	0.33426	0.02336	0.28249	2.209
Mof_Ag	Ag	0.03837	0.77269	0.95174	0.533
Mof_Ag	Ag	0.53837	0.22731	0.54826	0.536
Mof_Ag	Ag	0.53837	0.27269	0.04826	0.536
Mof_Ag	Ag	0.03837	0.72731	0.45174	0.534
Mof_H 	H 	0.4402	0.5963	0.3577	0.143
Mof_H 	H 	0.7792	0.6307	0.1059	0.158
Mof_H 	H 	0.5353	0.5451	0.4926	0.074
Mof_H 	H 	0.2531	0.6621	0.3272	-0.02
Mof_H 	H 	0.0989	0.6393	0.5824	0.035
Mof_H 	H 	0.6172	0.5671	0.9967	0.07
Mof_H 	H 	0.9435	0.7051	0.1004	-0.014
Mof_H 	H 	0.8121	0.7019	0.8405	0.033
Mof_H 	H 	0.9402	0.4037	0.1423	0.142
Mof_H 	H 	0.2792	0.3693	0.3941	0.158
Mof_H 	H 	0.0353	0.4549	0.0074	0.074
Mof_H 	H 	0.7531	0.3379	0.1728	-0.02
Mof_H 	H 	0.5989	0.3607	0.9176	0.036
Mof_H 	H 	0.1172	0.4329	0.5033	0.07
Mof_H 	H 	0.4435	0.2949	0.3996	-0.014
Mof_H 	H 	0.3121	0.2981	0.6595	0.033
Mof_H 	H 	0.9402	0.0963	0.6423	0.143
Mof_H 	H 	0.2792	0.1307	0.8941	0.158
Mof_H 	H 	0.0353	0.0451	0.5074	0.073
Mof_H 	H 	0.7531	0.1621	0.6728	-0.02
Mof_H 	H 	0.5989	0.1393	0.4176	0.036
Mof_H 	H 	0.1172	0.0671	0.0033	0.07
Mof_H 	H 	0.4435	0.2051	0.8996	-0.014
Mof_H 	H 	0.3121	0.2019	0.1595	0.033
Mof_H 	H 	0.4402	0.9037	0.8577	0.143
Mof_H 	H 	0.7792	0.8693	0.6059	0.158
Mof_H 	H 	0.5353	0.9549	0.9926	0.074
Mof_H 	H 	0.2531	0.8379	0.8272	-0.02
Mof_H 	H 	0.0989	0.8607	0.0824	0.036
Mof_H 	H 	0.6172	0.9329	0.4967	0.07
Mof_H 	H 	0.9435	0.7949	0.6004	-0.014
Mof_H 	H 	0.8121	0.7981	0.3405	0.033
Mof_C 	C 	0.4898	0.51728	0.6293	0.45
Mof_C 	C 	0.3946	0.55565	0.5832	-0.062
Mof_C 	C 	0.4465	0.56259	0.5103	-0.074
Mof_C 	C 	0.3617	0.59666	0.4642	0.097
Mof_C 	C 	0.2677	0.64719	0.3744	0.128
Mof_C 	C 	0.2393	0.6275	0.4921	0.02
Mof_C 	C 	0.1843	0.62001	0.5645	-0.038
Mof_C 	C 	0.2589	0.5831	0.61	-0.09
Mof_C 	C 	0.1892	0.57337	0.6859	0.449
Mof_C 	C 	0.548	0.54665	0.854	0.366
Mof_C 	C 	0.634	0.5923	0.8879	-0.053
Mof_C 	C 	0.6583	0.59316	0.9656	-0.086
Mof_C 	C 	0.7469	0.63486	0.9943	0.068
Mof_C 	C 	0.8917	0.68989	0.0598	0.133
Mof_C 	C 	0.8086	0.67414	0.9476	0.017
Mof_C 	C 	0.7766	0.67455	0.8709	-0.068
Mof_C 	C 	0.691	0.6333	0.8409	-0.086
Mof_C 	C 	0.6573	0.63527	0.7578	0.369
Mof_C 	C 	0.9898	0.48272	0.8707	0.449
Mof_C 	C 	0.8946	0.44435	0.9168	-0.062
Mof_C 	C 	0.9465	0.43741	0.9897	-0.074
Mof_C 	C 	0.8617	0.40334	0.0358	0.097
Mof_C 	C 	0.7677	0.35281	0.1256	0.128
Mof_C 	C 	0.7393	0.3725	0.0079	0.02
Mof_C 	C 	0.6843	0.37999	0.9355	-0.037
Mof_C 	C 	0.7589	0.4169	0.89	-0.091
Mof_C 	C 	0.6892	0.42663	0.8141	0.449
Mof_C 	C 	0.048	0.45335	0.646	0.366
Mof_C 	C 	0.134	0.4077	0.6121	-0.053
Mof_C 	C 	0.1583	0.40684	0.5344	-0.085
Mof_C 	C 	0.2469	0.36514	0.5057	0.067
Mof_C 	C 	0.3917	0.31011	0.4402	0.134
Mof_C 	C 	0.3086	0.32586	0.5524	0.017
Mof_C 	C 	0.2766	0.32545	0.6291	-0.068
Mof_C 	C 	0.191	0.3667	0.6591	-0.086
Mof_C 	C 	0.1573	0.36473	0.7422	0.369
Mof_C 	C 	0.9898	0.01728	0.3707	0.451
Mof_C 	C 	0.8946	0.05565	0.4168	-0.063
Mof_C 	C 	0.9465	0.06259	0.4897	-0.073
Mof_C 	C 	0.8617	0.09666	0.5358	0.097
Mof_C 	C 	0.7677	0.14719	0.6256	0.128
Mof_C 	C 	0.7393	0.1275	0.5079	0.021
Mof_C 	C 	0.6843	0.12001	0.4355	-0.038
Mof_C 	C 	0.7589	0.0831	0.39	-0.09
Mof_C 	C 	0.6892	0.07337	0.3141	0.449
Mof_C 	C 	0.048	0.04665	0.146	0.366
Mof_C 	C 	0.134	0.0923	0.1121	-0.053
Mof_C 	C 	0.1583	0.09316	0.0344	-0.086
Mof_C 	C 	0.2469	0.13486	0.0057	0.068
Mof_C 	C 	0.3917	0.18989	0.9402	0.134
Mof_C 	C 	0.3086	0.17414	0.0524	0.017
Mof_C 	C 	0.2766	0.17455	0.1291	-0.068
Mof_C 	C 	0.191	0.1333	0.1591	-0.086
Mof_C 	C 	0.1573	0.13527	0.2422	0.369
Mof_C 	C 	0.4898	0.98272	0.1293	0.449
Mof_C 	C 	0.3946	0.94435	0.0832	-0.062
Mof_C 	C 	0.4465	0.93741	0.0103	-0.075
Mof_C 	C 	0.3617	0.90334	0.9642	0.098
Mof_C 	C 	0.2677	0.85281	0.8744	0.128
Mof_C 	C 	0.2393	0.8725	0.9921	0.02
Mof_C 	C 	0.1843	0.87999	0.0645	-0.037
Mof_C 	C 	0.2589	0.9169	0.11	-0.091
Mof_C 	C 	0.1892	0.92663	0.1859	0.449
Mof_C 	C 	0.548	0.95335	0.354	0.366
Mof_C 	C 	0.634	0.9077	0.3879	-0.053
Mof_C 	C 	0.6583	0.90684	0.4656	-0.086
Mof_C 	C 	0.7469	0.86514	0.4943	0.067
Mof_C 	C 	0.8917	0.81011	0.5598	0.134
Mof_C 	C 	0.8086	0.82586	0.4476	0.017
Mof_C 	C 	0.7766	0.82545	0.3709	-0.068
Mof_C 	C 	0.691	0.8667	0.3409	-0.086
Mof_C 	C 	0.6573	0.86473	0.2578	0.369
Mof_N 	N 	0.3749	0.60972	0.38929	-0.227
Mof_N 	N 	0.1854	0.66045	0.43452	-0.214
Mof_N 	N 	0.9005	0.70822	0.99055	-0.212
Mof_N 	N 	0.8008	0.64745	0.06521	-0.231
Mof_N 	N 	0.8749	0.39028	0.11071	-0.227
Mof_N 	N 	0.6854	0.33955	0.06548	-0.214
Mof_N 	N 	0.4005	0.29178	0.50945	-0.213
Mof_N 	N 	0.3008	0.35255	0.43479	-0.231
Mof_N 	N 	0.8749	0.10972	0.61071	-0.227
Mof_N 	N 	0.6854	0.16045	0.56548	-0.214
Mof_N 	N 	0.4005	0.20822	0.00945	-0.213
Mof_N 	N 	0.3008	0.14745	0.93479	-0.232
Mof_N 	N 	0.3749	0.89028	0.88929	-0.227
Mof_N 	N 	0.1854	0.83955	0.93452	-0.213
Mof_N 	N 	0.9005	0.79178	0.49055	-0.213
Mof_N 	N 	0.8008	0.85255	0.56521	-0.231
Mof_O 	O 	0.4221	0.47894	0.66116	-0.541
Mof_O 	O 	0.6361	0.52401	0.62882	-0.517
Mof_O 	O 	0.2756	0.55985	0.74011	-0.523
Mof_O 	O 	0.0422	0.57975	0.69172	-0.516
Mof_O 	O 	0.4354	0.52522	0.88761	-0.449
Mof_O 	O 	0.5881	0.53099	0.78855	-0.571
Mof_O 	O 	0.7522	0.61021	0.7146	-0.478
Mof_O 	O 	0.5503	0.66337	0.73435	-0.283
Mof_O 	O 	0.9221	0.52106	0.83884	-0.541
Mof_O 	O 	0.1361	0.47599	0.87118	-0.517
Mof_O 	O 	0.7756	0.44015	0.75989	-0.523
Mof_O 	O 	0.5422	0.42025	0.80828	-0.516
Mof_O 	O 	0.9354	0.47478	0.61239	-0.45
Mof_O 	O 	0.0881	0.46901	0.71145	-0.571
Mof_O 	O 	0.2522	0.38979	0.7854	-0.478
Mof_O 	O 	0.0503	0.33663	0.76565	-0.283
Mof_O 	O 	0.9221	0.97894	0.33884	-0.542
Mof_O 	O 	0.1361	0.02401	0.37118	-0.518
Mof_O 	O 	0.7756	0.05985	0.25989	-0.523
Mof_O 	O 	0.5422	0.07975	0.30828	-0.516
Mof_O 	O 	0.9354	0.02522	0.11239	-0.449
Mof_O 	O 	0.0881	0.03099	0.21145	-0.571
Mof_O 	O 	0.2522	0.11021	0.2854	-0.478
Mof_O 	O 	0.0503	0.16337	0.26565	-0.282
Mof_O 	O 	0.4221	0.02106	0.16116	-0.541
Mof_O 	O 	0.6361	0.97599	0.12882	-0.517
Mof_O 	O 	0.2756	0.94015	0.24011	-0.523
Mof_O 	O 	0.0422	0.92025	0.19172	-0.515
Mof_O 	O 	0.4354	0.97478	0.38761	-0.449
Mof_O 	O 	0.5881	0.96901	0.28855	-0.571
Mof_O 	O 	0.7522	0.88979	0.2146	-0.478
Mof_O 	O 	0.5503	0.83663	0.23435	-0.283
_end
