data_functionalizedCrystal
_audit_creation_method	'EQeq! by Chris Wilmer'
_symmetry_space_group_name_H-M	'P1'
_symmetry_Int_Tables_number	1
_symmetry_cell_setting	triclinic
loop_
_symmetry_equiv_pos_as_xyz
  x,y,z
_cell_length_a	9.7904
_cell_length_b	17.366
_cell_length_c	15.2569
_cell_angle_alpha	90
_cell_angle_beta	95.4829
_cell_angle_gamma	90
loop_
_atom_site_label
_atom_site_type_symbol
_atom_site_fract_x
_atom_site_fract_y
_atom_site_fract_z
_atom_site_charge
Mof_Cd	Cd	0.8645	0.58085	0.51929	0.458
Mof_O 	O 	0.7539	0.53452	0.39227	-0.287
Mof_O 	O 	0.6783	0.66685	0.52914	-0.281
Mof_O 	O 	0.8387	0.66548	0.64016	-0.277
Mof_O 	O 	0.9368	0.46188	0.40215	-0.301
Mof_N 	N 	0.9981	0.16348	0.05289	-0.153
Mof_N 	N 	0.2478	0.9874	0.9051	-0.152
Mof_C 	C 	0.8216	0.47784	0.36912	0.319
Mof_C 	C 	0.7533	0.42788	0.2965	-0.059
Mof_C 	C 	0.8275	0.37218	0.2557	-0.035
Mof_H 	H 	0.9192	0.3639	0.2752	0.064
Mof_C 	C 	0.7657	0.3286	0.1859	-0.014
Mof_C 	C 	0.6269	0.3403	0.1592	-0.044
Mof_H 	H 	0.5847	0.3119	0.1125	0.05
Mof_C 	C 	0.5514	0.3937	0.2018	-0.037
Mof_H 	H 	0.4582	0.3998	0.1848	0.049
Mof_C 	C 	0.6143	0.4381	0.2696	-0.02
Mof_H 	H 	0.5638	0.4747	0.2972	0.056
Mof_C 	C 	0.0133	0.1713	0.1397	0.096
Mof_H 	H 	0.0758	0.1394	0.1719	0.011
Mof_C 	C 	0.9414	0.2241	0.185	-0.16
Mof_H 	H 	0.9576	0.2279	0.2459	0.095
Mof_C 	C 	0.8457	0.2712	0.1398	0.097
Mof_C 	C 	0.8275	0.2622	0.0489	-0.157
Mof_H 	H 	0.7632	0.2922	0.0155	0.085
Mof_C 	C 	0.9045	0.2092	0.0083	0.095
Mof_H 	H 	0.8913	0.2047	0.9474	0.008
Mof_C 	C 	0.7236	0.6867	0.6054	0.304
Mof_C 	C 	0.6374	0.738	0.6571	-0.089
Mof_C 	C 	0.508	0.7623	0.6227	0.019
Mof_H 	H 	0.4725	0.7458	0.5672	0.032
Mof_C 	C 	0.4316	0.811	0.6709	-0.088
Mof_H 	H 	0.3456	0.8273	0.6467	0.058
Mof_C 	C 	0.4803	0.83583	0.754	0.025
Mof_C 	C 	0.6079	0.81	0.7884	-0.094
Mof_H 	H 	0.6426	0.8257	0.8445	0.082
Mof_C 	C 	0.6847	0.7611	0.7406	0.023
Mof_H 	H 	0.7695	0.7437	0.7655	0.037
Mof_C 	C 	0.2221	0.9813	0.8182	0.097
Mof_H 	H 	0.1523	0.0114	0.7904	0.011
Mof_C 	C 	0.2928	0.9329	0.7668	-0.154
Mof_H 	H 	0.2698	0.9306	0.7063	0.084
Mof_C 	C 	0.3987	0.88769	0.8059	0.086
Mof_C 	C 	0.425	0.8943	0.8965	-0.162
Mof_H 	H 	0.4942	0.865	0.9262	0.11
Mof_C 	C 	0.3497	0.9437	0.9422	0.106
Mof_H 	H 	0.3706	0.9471	0.0028	0.01
Mof_Cd	Cd	0.1355	0.08085	0.98071	0.455
Mof_O 	O 	0.2461	0.03452	0.10773	-0.285
Mof_O 	O 	0.3217	0.16685	0.97086	-0.282
Mof_O 	O 	0.1613	0.16548	0.85984	-0.278
Mof_O 	O 	0.0632	0.96188	0.09785	-0.3
Mof_N 	N 	0.0019	0.66348	0.44711	-0.153
Mof_N 	N 	0.7522	0.4874	0.5949	-0.151
Mof_C 	C 	0.1784	0.97784	0.13088	0.317
Mof_C 	C 	0.2467	0.92788	0.2035	-0.058
Mof_C 	C 	0.1725	0.87218	0.2443	-0.036
Mof_H 	H 	0.0808	0.8639	0.2248	0.065
Mof_C 	C 	0.2343	0.8286	0.3141	-0.013
Mof_C 	C 	0.3731	0.8403	0.3408	-0.045
Mof_H 	H 	0.4153	0.8119	0.3875	0.05
Mof_C 	C 	0.4486	0.8937	0.2982	-0.037
Mof_H 	H 	0.5418	0.8998	0.3152	0.048
Mof_C 	C 	0.3857	0.9381	0.2304	-0.021
Mof_H 	H 	0.4362	0.9747	0.2028	0.056
Mof_C 	C 	0.9867	0.6713	0.3603	0.094
Mof_H 	H 	0.9242	0.6394	0.3281	0.011
Mof_C 	C 	0.0586	0.7241	0.315	-0.158
Mof_H 	H 	0.0424	0.7279	0.2541	0.094
Mof_C 	C 	0.1543	0.7712	0.3602	0.096
Mof_C 	C 	0.1725	0.7622	0.4511	-0.155
Mof_H 	H 	0.2368	0.7922	0.4845	0.084
Mof_C 	C 	0.0955	0.7092	0.4917	0.092
Mof_H 	H 	0.1087	0.7047	0.5526	0.009
Mof_C 	C 	0.2764	0.1867	0.8946	0.304
Mof_C 	C 	0.3626	0.238	0.8429	-0.09
Mof_C 	C 	0.492	0.2623	0.8773	0.021
Mof_H 	H 	0.5275	0.2458	0.9328	0.032
Mof_C 	C 	0.5684	0.311	0.8291	-0.089
Mof_H 	H 	0.6544	0.3273	0.8533	0.059
Mof_C 	C 	0.5197	0.33583	0.746	0.027
Mof_C 	C 	0.3921	0.31	0.7116	-0.095
Mof_H 	H 	0.3574	0.3257	0.6555	0.082
Mof_C 	C 	0.3153	0.2611	0.7594	0.024
Mof_H 	H 	0.2305	0.2437	0.7345	0.036
Mof_C 	C 	0.7779	0.4813	0.6818	0.09
Mof_H 	H 	0.8477	0.5114	0.7096	0.016
Mof_C 	C 	0.7072	0.4329	0.7332	-0.149
Mof_H 	H 	0.7302	0.4306	0.7937	0.082
Mof_C 	C 	0.6013	0.38769	0.6941	0.083
Mof_C 	C 	0.575	0.3943	0.6035	-0.157
Mof_H 	H 	0.5058	0.365	0.5738	0.108
Mof_C 	C 	0.6503	0.4437	0.5578	0.1
Mof_H 	H 	0.6294	0.4471	0.4972	0.014
Mof_Cd	Cd	0.1355	0.41915	0.48071	0.458
Mof_O 	O 	0.2461	0.46548	0.60773	-0.287
Mof_O 	O 	0.3217	0.33315	0.47086	-0.281
Mof_O 	O 	0.1613	0.33452	0.35984	-0.277
Mof_O 	O 	0.0632	0.53812	0.59785	-0.301
Mof_N 	N 	0.0019	0.83652	0.94711	-0.153
Mof_N 	N 	0.7522	0.0126	0.0949	-0.152
Mof_C 	C 	0.1784	0.52216	0.63088	0.319
Mof_C 	C 	0.2467	0.57212	0.7035	-0.059
Mof_C 	C 	0.1725	0.62782	0.7443	-0.035
Mof_H 	H 	0.0808	0.6361	0.7248	0.064
Mof_C 	C 	0.2343	0.6714	0.8141	-0.014
Mof_C 	C 	0.3731	0.6597	0.8408	-0.044
Mof_H 	H 	0.4153	0.6881	0.8875	0.05
Mof_C 	C 	0.4486	0.6063	0.7982	-0.037
Mof_H 	H 	0.5418	0.6002	0.8152	0.049
Mof_C 	C 	0.3857	0.5619	0.7304	-0.02
Mof_H 	H 	0.4362	0.5253	0.7028	0.056
Mof_C 	C 	0.9867	0.8287	0.8603	0.096
Mof_H 	H 	0.9242	0.8606	0.8281	0.011
Mof_C 	C 	0.0586	0.7759	0.815	-0.16
Mof_H 	H 	0.0424	0.7721	0.7541	0.095
Mof_C 	C 	0.1543	0.7288	0.8602	0.097
Mof_C 	C 	0.1725	0.7378	0.9511	-0.157
Mof_H 	H 	0.2368	0.7078	0.9845	0.085
Mof_C 	C 	0.0955	0.7908	0.9917	0.095
Mof_H 	H 	0.1087	0.7953	0.0526	0.008
Mof_C 	C 	0.2764	0.3133	0.3946	0.304
Mof_C 	C 	0.3626	0.262	0.3429	-0.089
Mof_C 	C 	0.492	0.2377	0.3773	0.019
Mof_H 	H 	0.5275	0.2542	0.4328	0.032
Mof_C 	C 	0.5684	0.189	0.3291	-0.088
Mof_H 	H 	0.6544	0.1727	0.3533	0.058
Mof_C 	C 	0.5197	0.16417	0.246	0.025
Mof_C 	C 	0.3921	0.19	0.2116	-0.094
Mof_H 	H 	0.3574	0.1743	0.1555	0.082
Mof_C 	C 	0.3153	0.2389	0.2594	0.023
Mof_H 	H 	0.2305	0.2563	0.2345	0.037
Mof_C 	C 	0.7779	0.0187	0.1818	0.097
Mof_H 	H 	0.8477	0.9886	0.2096	0.011
Mof_C 	C 	0.7072	0.0671	0.2332	-0.154
Mof_H 	H 	0.7302	0.0694	0.2937	0.084
Mof_C 	C 	0.6013	0.11231	0.1941	0.086
Mof_C 	C 	0.575	0.1057	0.1035	-0.162
Mof_H 	H 	0.5058	0.135	0.0738	0.11
Mof_C 	C 	0.6503	0.0563	0.0578	0.106
Mof_H 	H 	0.6294	0.0529	0.9972	0.01
Mof_Cd	Cd	0.8645	0.91915	0.01929	0.455
Mof_O 	O 	0.7539	0.96548	0.89227	-0.285
Mof_O 	O 	0.6783	0.83315	0.02914	-0.282
Mof_O 	O 	0.8387	0.83452	0.14016	-0.278
Mof_O 	O 	0.9368	0.03812	0.90215	-0.3
Mof_N 	N 	0.9981	0.33652	0.55289	-0.153
Mof_N 	N 	0.2478	0.5126	0.4051	-0.151
Mof_C 	C 	0.8216	0.02216	0.86912	0.317
Mof_C 	C 	0.7533	0.07212	0.7965	-0.058
Mof_C 	C 	0.8275	0.12782	0.7557	-0.036
Mof_H 	H 	0.9192	0.1361	0.7752	0.065
Mof_C 	C 	0.7657	0.1714	0.6859	-0.013
Mof_C 	C 	0.6269	0.1597	0.6592	-0.045
Mof_H 	H 	0.5847	0.1881	0.6125	0.05
Mof_C 	C 	0.5514	0.1063	0.7018	-0.037
Mof_H 	H 	0.4582	0.1002	0.6848	0.048
Mof_C 	C 	0.6143	0.0619	0.7696	-0.021
Mof_H 	H 	0.5638	0.0253	0.7972	0.056
Mof_C 	C 	0.0133	0.3287	0.6397	0.094
Mof_H 	H 	0.0758	0.3606	0.6719	0.011
Mof_C 	C 	0.9414	0.2759	0.685	-0.158
Mof_H 	H 	0.9576	0.2721	0.7459	0.094
Mof_C 	C 	0.8457	0.2288	0.6398	0.096
Mof_C 	C 	0.8275	0.2378	0.5489	-0.155
Mof_H 	H 	0.7632	0.2078	0.5155	0.084
Mof_C 	C 	0.9045	0.2908	0.5083	0.092
Mof_H 	H 	0.8913	0.2953	0.4474	0.009
Mof_C 	C 	0.7236	0.8133	0.1054	0.304
Mof_C 	C 	0.6374	0.762	0.1571	-0.09
Mof_C 	C 	0.508	0.7377	0.1227	0.021
Mof_H 	H 	0.4725	0.7542	0.0672	0.032
Mof_C 	C 	0.4316	0.689	0.1709	-0.089
Mof_H 	H 	0.3456	0.6727	0.1467	0.059
Mof_C 	C 	0.4803	0.66417	0.254	0.027
Mof_C 	C 	0.6079	0.69	0.2884	-0.095
Mof_H 	H 	0.6426	0.6743	0.3445	0.082
Mof_C 	C 	0.6847	0.7389	0.2406	0.024
Mof_H 	H 	0.7695	0.7563	0.2655	0.036
Mof_C 	C 	0.2221	0.5187	0.3182	0.09
Mof_H 	H 	0.1523	0.4886	0.2904	0.016
Mof_C 	C 	0.2928	0.5671	0.2668	-0.149
Mof_H 	H 	0.2698	0.5694	0.2063	0.082
Mof_C 	C 	0.3987	0.61231	0.3059	0.083
Mof_C 	C 	0.425	0.6057	0.3965	-0.157
Mof_H 	H 	0.4942	0.635	0.4262	0.108
Mof_C 	C 	0.3497	0.5563	0.4422	0.1
Mof_H 	H 	0.3706	0.5529	0.5028	0.014
_end
