data_functionalizedCrystal
_audit_creation_method	'EQeq! by Chris Wilmer'
_symmetry_space_group_name_H-M	'P1'
_symmetry_Int_Tables_number	1
_symmetry_cell_setting	triclinic
loop_
_symmetry_equiv_pos_as_xyz
  x,y,z
_cell_length_a	11.135
_cell_length_b	12.38
_cell_length_c	14.607
_cell_angle_alpha	84.662
_cell_angle_beta	89.537
_cell_angle_gamma	67.261
loop_
_atom_site_label
_atom_site_type_symbol
_atom_site_fract_x
_atom_site_fract_y
_atom_site_fract_z
_atom_site_charge
Mof_Ag	Ag	0.27092	0.51881	0.73996	0.456
Mof_Ag	Ag	0.82223	0.90341	0.91585	0.529
Mof_Ag	Ag	0.24109	0.09228	0.59621	0.516
Mof_N 	N 	0.096	0.6276	0.6337	-0.172
Mof_N 	N 	0.8955	0.776	0.5133	-0.168
Mof_N 	N 	0.1044	0.0334	0.7003	-0.154
Mof_N 	N 	0.96	0.9615	0.8291	-0.185
Mof_S 	S 	0.01157	0.75436	0.77545	-0.145
Mof_C 	C 	0.0834	0.6032	0.5486	0.003
Mof_H 	H 	0.1439	0.5342	0.5289	0.003
Mof_C 	C 	0.985	0.6755	0.4884	-0.011
Mof_H 	H 	0.9805	0.6543	0.4295	0.009
Mof_C 	C 	0.9043	0.799	0.5984	-0.027
Mof_H 	H 	0.8414	0.8664	0.6186	0.017
Mof_C 	C 	0.0027	0.7274	0.6582	0.053
Mof_C 	C 	0.0237	0.8937	0.7646	0.055
Mof_C 	C 	0.0964	0.928	0.7016	-0.036
Mof_H 	H 	0.1414	0.8772	0.6587	0.014
Mof_C 	C 	0.0416	0.1009	0.7655	-0.01
Mof_H 	H 	0.0461	0.1741	0.7673	0.012
Mof_C 	C 	0.9706	0.0657	0.83	-0.001
Mof_H 	H 	0.9293	0.1147	0.875	-0.006
Mof_N 	N 	0.6342	0.951	0.8165	-0.156
Mof_N 	N 	0.4227	0.0227	0.693	-0.18
Mof_N 	N 	0.2472	0.39	0.8511	-0.179
Mof_N 	N 	0.1976	0.2311	0.978	-0.168
Mof_S 	S 	0.33227	0.24516	0.72383	-0.156
Mof_C 	C 	0.6127	0.876	0.7656	-0.005
Mof_H 	H 	0.6702	0.7975	0.7721	0.01
Mof_C 	C 	0.5087	0.9098	0.7034	-0.007
Mof_H 	H 	0.498	0.8546	0.6688	-0.003
Mof_C 	C 	0.4425	0.0963	0.745	0.06
Mof_C 	C 	0.547	0.0626	0.8056	-0.036
Mof_H 	H 	0.5576	0.1182	0.8398	0.017
Mof_C 	C 	0.2498	0.2002	0.8965	-0.035
Mof_H 	H 	0.2695	0.1238	0.8819	0.021
Mof_C 	C 	0.2747	0.2787	0.8343	0.06
Mof_C 	C 	0.1935	0.4212	0.9319	-0.002
Mof_H 	H 	0.1709	0.4983	0.9456	0.004
Mof_C 	C 	0.1713	0.3431	0.994	-0.002
Mof_H 	H 	0.1365	0.368	0.0501	0.006
Mof_Ag	Ag	0.72908	0.48119	0.26004	0.455
Mof_Ag	Ag	0.17777	0.09659	0.08415	0.528
Mof_Ag	Ag	0.75891	0.90772	0.40379	0.516
Mof_N 	N 	0.904	0.3724	0.3663	-0.172
Mof_N 	N 	0.1045	0.224	0.4867	-0.168
Mof_N 	N 	0.8956	0.9666	0.2997	-0.154
Mof_N 	N 	0.04	0.0385	0.1709	-0.185
Mof_S 	S 	0.98843	0.24564	0.22455	-0.145
Mof_C 	C 	0.9166	0.3968	0.4514	0.003
Mof_H 	H 	0.8561	0.4658	0.4711	0.003
Mof_C 	C 	0.015	0.3245	0.5116	-0.011
Mof_H 	H 	0.0195	0.3457	0.5705	0.009
Mof_C 	C 	0.0957	0.201	0.4016	-0.027
Mof_H 	H 	0.1586	0.1336	0.3814	0.017
Mof_C 	C 	0.9973	0.2726	0.3418	0.053
Mof_C 	C 	0.9763	0.1063	0.2354	0.055
Mof_C 	C 	0.9036	0.072	0.2984	-0.036
Mof_H 	H 	0.8586	0.1228	0.3413	0.014
Mof_C 	C 	0.9584	0.8991	0.2345	-0.01
Mof_H 	H 	0.9539	0.8259	0.2327	0.012
Mof_C 	C 	0.0294	0.9343	0.17	-0.001
Mof_H 	H 	0.0707	0.8853	0.125	-0.006
Mof_N 	N 	0.3658	0.049	0.1835	-0.156
Mof_N 	N 	0.5773	0.9773	0.307	-0.18
Mof_N 	N 	0.7528	0.61	0.1489	-0.179
Mof_N 	N 	0.8024	0.7689	0.022	-0.168
Mof_S 	S 	0.66773	0.75484	0.27617	-0.156
Mof_C 	C 	0.3873	0.124	0.2344	-0.005
Mof_H 	H 	0.3298	0.2025	0.2279	0.01
Mof_C 	C 	0.4913	0.0902	0.2966	-0.007
Mof_H 	H 	0.502	0.1454	0.3312	-0.003
Mof_C 	C 	0.5575	0.9037	0.255	0.06
Mof_C 	C 	0.453	0.9374	0.1944	-0.036
Mof_H 	H 	0.4424	0.8818	0.1602	0.017
Mof_C 	C 	0.7502	0.7998	0.1035	-0.035
Mof_H 	H 	0.7305	0.8762	0.1181	0.021
Mof_C 	C 	0.7253	0.7213	0.1657	0.06
Mof_C 	C 	0.8065	0.5788	0.0681	-0.002
Mof_H 	H 	0.8291	0.5017	0.0544	0.004
Mof_C 	C 	0.8287	0.6569	0.006	-0.002
Mof_H 	H 	0.8635	0.632	0.9499	0.006
_end
