data_functionalizedCrystal
_audit_creation_method	'EQeq! by Chris Wilmer'
_symmetry_space_group_name_H-M	'P1'
_symmetry_Int_Tables_number	1
_symmetry_cell_setting	triclinic
loop_
_symmetry_equiv_pos_as_xyz
  x,y,z
_cell_length_a	7.6391
_cell_length_b	21.127
_cell_length_c	19.578
_cell_angle_alpha	90
_cell_angle_beta	98.306
_cell_angle_gamma	90
loop_
_atom_site_label
_atom_site_type_symbol
_atom_site_fract_x
_atom_site_fract_y
_atom_site_fract_z
_atom_site_charge
Mof_Pr	Pr	0.9892	0.27663	0.25526	2.509
Mof_O 	O 	0.8281	0.32661	0.14707	-0.495
Mof_O 	O 	0.7006	0.23927	0.17447	-0.674
Mof_C 	C 	0.7164	0.2844	0.1317	0.454
Mof_C 	C 	0.602	0.2848	0.064	-0.168
Mof_C 	C 	0.5529	0.3413	0.032	0.1
Mof_C 	C 	0.5484	0.2282	0.032	0.107
Mof_O 	O 	0.3157	0.28991	0.32307	-0.686
Mof_O 	O 	0.0916	0.3179	0.37393	-0.494
Mof_C 	C 	0.2556	0.3107	0.3762	0.451
Mof_C 	C 	0.3786	0.3223	0.4399	-0.141
Mof_C 	C 	0.5583	0.3245	0.4372	-0.019
Mof_H 	H 	0.5974	0.3253	0.3944	0.036
Mof_C 	C 	0.3175	0.3254	0.5033	0.118
Mof_O 	O 	0.2327	0.16728	0.28596	-0.624
Mof_O 	O 	0.982	0.16238	0.2177	-0.511
Mof_C 	C 	0.1115	0.1355	0.2505	0.481
Mof_C 	C 	0.1211	0.0656	0.2499	-0.182
Mof_C 	C 	0.2409	0.0331	0.2972	0.084
Mof_C 	C 	0.0046	0.0319	0.2024	0.102
Mof_N 	N 	0.633	0.4004	0.0523	-0.071
Mof_N 	N 	0.361	0.0574	0.3497	-0.101
Mof_N 	N 	0.148	0.3388	0.5092	-0.083
Mof_N 	N 	0.598	0.1766	0.0564	-0.099
Mof_N 	N 	0.88	0.0598	0.1608	-0.093
Mof_Pr	Pr	0.4892	0.77663	0.25526	2.518
Mof_O 	O 	0.3281	0.82661	0.14707	-0.496
Mof_O 	O 	0.2006	0.73927	0.17447	-0.673
Mof_C 	C 	0.2164	0.7844	0.1317	0.453
Mof_C 	C 	0.102	0.7848	0.064	-0.168
Mof_C 	C 	0.0529	0.8413	0.032	0.099
Mof_C 	C 	0.0484	0.7282	0.032	0.106
Mof_O 	O 	0.8157	0.78991	0.32307	-0.688
Mof_O 	O 	0.5916	0.8179	0.37393	-0.497
Mof_C 	C 	0.7556	0.8107	0.3762	0.451
Mof_C 	C 	0.8786	0.8223	0.4399	-0.143
Mof_C 	C 	0.0583	0.8245	0.4372	-0.016
Mof_H 	H 	0.0974	0.8253	0.3944	0.036
Mof_C 	C 	0.8175	0.8254	0.5033	0.117
Mof_O 	O 	0.7327	0.66728	0.28596	-0.623
Mof_O 	O 	0.482	0.66238	0.2177	-0.507
Mof_C 	C 	0.6115	0.6355	0.2505	0.475
Mof_C 	C 	0.6211	0.5656	0.2499	-0.18
Mof_C 	C 	0.7409	0.5331	0.2972	0.084
Mof_C 	C 	0.5046	0.5319	0.2024	0.099
Mof_N 	N 	0.133	0.9004	0.0523	-0.07
Mof_N 	N 	0.861	0.5574	0.3497	-0.101
Mof_N 	N 	0.648	0.8388	0.5092	-0.083
Mof_N 	N 	0.098	0.6766	0.0564	-0.098
Mof_N 	N 	0.38	0.5598	0.1608	-0.09
Mof_Pr	Pr	0.0108	0.27663	0.74474	2.508
Mof_O 	O 	0.1719	0.32661	0.85293	-0.496
Mof_O 	O 	0.2994	0.23927	0.82553	-0.675
Mof_C 	C 	0.2836	0.2844	0.8683	0.453
Mof_C 	C 	0.398	0.2848	0.936	-0.169
Mof_C 	C 	0.4471	0.3413	0.968	0.099
Mof_C 	C 	0.4516	0.2282	0.968	0.106
Mof_O 	O 	0.6843	0.28991	0.67693	-0.687
Mof_O 	O 	0.9084	0.3179	0.62607	-0.494
Mof_C 	C 	0.7444	0.3107	0.6238	0.451
Mof_C 	C 	0.6214	0.3223	0.5601	-0.141
Mof_C 	C 	0.4417	0.3245	0.5628	-0.019
Mof_H 	H 	0.4026	0.3253	0.6056	0.036
Mof_C 	C 	0.6825	0.3254	0.4967	0.118
Mof_O 	O 	0.7673	0.16728	0.71404	-0.624
Mof_O 	O 	0.018	0.16238	0.7823	-0.511
Mof_C 	C 	0.8885	0.1355	0.7495	0.481
Mof_C 	C 	0.8789	0.0656	0.7501	-0.182
Mof_C 	C 	0.7591	0.0331	0.7028	0.084
Mof_C 	C 	0.9954	0.0319	0.7976	0.102
Mof_N 	N 	0.367	0.4004	0.9477	-0.071
Mof_N 	N 	0.639	0.0574	0.6503	-0.101
Mof_N 	N 	0.852	0.3388	0.4908	-0.083
Mof_N 	N 	0.402	0.1766	0.9436	-0.099
Mof_N 	N 	0.12	0.0598	0.8392	-0.093
Mof_Pr	Pr	0.5108	0.77663	0.74474	2.518
Mof_O 	O 	0.6719	0.82661	0.85293	-0.496
Mof_O 	O 	0.7994	0.73927	0.82553	-0.673
Mof_C 	C 	0.7836	0.7844	0.8683	0.453
Mof_C 	C 	0.898	0.7848	0.936	-0.168
Mof_C 	C 	0.9471	0.8413	0.968	0.099
Mof_C 	C 	0.9516	0.7282	0.968	0.106
Mof_O 	O 	0.1843	0.78991	0.67693	-0.688
Mof_O 	O 	0.4084	0.8179	0.62607	-0.497
Mof_C 	C 	0.2444	0.8107	0.6238	0.451
Mof_C 	C 	0.1214	0.8223	0.5601	-0.143
Mof_C 	C 	0.9417	0.8245	0.5628	-0.016
Mof_H 	H 	0.9026	0.8253	0.6056	0.036
Mof_C 	C 	0.1825	0.8254	0.4967	0.117
Mof_O 	O 	0.2673	0.66728	0.71404	-0.623
Mof_O 	O 	0.518	0.66238	0.7823	-0.507
Mof_C 	C 	0.3885	0.6355	0.7495	0.475
Mof_C 	C 	0.3789	0.5656	0.7501	-0.18
Mof_C 	C 	0.2591	0.5331	0.7028	0.084
Mof_C 	C 	0.4954	0.5319	0.7976	0.099
Mof_N 	N 	0.867	0.9004	0.9477	-0.07
Mof_N 	N 	0.139	0.5574	0.6503	-0.101
Mof_N 	N 	0.352	0.8388	0.4908	-0.083
Mof_N 	N 	0.902	0.6766	0.9436	-0.098
Mof_N 	N 	0.62	0.5598	0.8392	-0.09
Mof_Pr	Pr	0.0108	0.72337	0.74474	2.508
Mof_O 	O 	0.1719	0.67339	0.85293	-0.496
Mof_O 	O 	0.2994	0.76073	0.82553	-0.675
Mof_C 	C 	0.2836	0.7156	0.8683	0.453
Mof_C 	C 	0.398	0.7152	0.936	-0.169
Mof_C 	C 	0.4471	0.6587	0.968	0.099
Mof_C 	C 	0.4516	0.7718	0.968	0.106
Mof_O 	O 	0.6843	0.71009	0.67693	-0.687
Mof_O 	O 	0.9084	0.6821	0.62607	-0.494
Mof_C 	C 	0.7444	0.6893	0.6238	0.451
Mof_C 	C 	0.6214	0.6777	0.5601	-0.141
Mof_C 	C 	0.4417	0.6755	0.5628	-0.019
Mof_H 	H 	0.4026	0.6747	0.6056	0.036
Mof_C 	C 	0.6825	0.6746	0.4967	0.118
Mof_O 	O 	0.7673	0.83272	0.71404	-0.624
Mof_O 	O 	0.018	0.83762	0.7823	-0.511
Mof_C 	C 	0.8885	0.8645	0.7495	0.481
Mof_C 	C 	0.8789	0.9344	0.7501	-0.182
Mof_C 	C 	0.7591	0.9669	0.7028	0.084
Mof_C 	C 	0.9954	0.9681	0.7976	0.102
Mof_N 	N 	0.367	0.5996	0.9477	-0.071
Mof_N 	N 	0.639	0.9426	0.6503	-0.101
Mof_N 	N 	0.852	0.6612	0.4908	-0.083
Mof_N 	N 	0.402	0.8234	0.9436	-0.099
Mof_N 	N 	0.12	0.9402	0.8392	-0.093
Mof_Pr	Pr	0.5108	0.22337	0.74474	2.518
Mof_O 	O 	0.6719	0.17339	0.85293	-0.496
Mof_O 	O 	0.7994	0.26073	0.82553	-0.673
Mof_C 	C 	0.7836	0.2156	0.8683	0.453
Mof_C 	C 	0.898	0.2152	0.936	-0.168
Mof_C 	C 	0.9471	0.1587	0.968	0.099
Mof_C 	C 	0.9516	0.2718	0.968	0.106
Mof_O 	O 	0.1843	0.21009	0.67693	-0.688
Mof_O 	O 	0.4084	0.1821	0.62607	-0.497
Mof_C 	C 	0.2444	0.1893	0.6238	0.451
Mof_C 	C 	0.1214	0.1777	0.5601	-0.143
Mof_C 	C 	0.9417	0.1755	0.5628	-0.016
Mof_H 	H 	0.9026	0.1747	0.6056	0.036
Mof_C 	C 	0.1825	0.1746	0.4967	0.117
Mof_O 	O 	0.2673	0.33272	0.71404	-0.623
Mof_O 	O 	0.518	0.33762	0.7823	-0.507
Mof_C 	C 	0.3885	0.3645	0.7495	0.475
Mof_C 	C 	0.3789	0.4344	0.7501	-0.18
Mof_C 	C 	0.2591	0.4669	0.7028	0.084
Mof_C 	C 	0.4954	0.4681	0.7976	0.099
Mof_N 	N 	0.867	0.0996	0.9477	-0.07
Mof_N 	N 	0.139	0.4426	0.6503	-0.101
Mof_N 	N 	0.352	0.1612	0.4908	-0.083
Mof_N 	N 	0.902	0.3234	0.9436	-0.098
Mof_N 	N 	0.62	0.4402	0.8392	-0.09
Mof_Pr	Pr	0.9892	0.72337	0.25526	2.508
Mof_O 	O 	0.8281	0.67339	0.14707	-0.496
Mof_O 	O 	0.7006	0.76073	0.17447	-0.675
Mof_C 	C 	0.7164	0.7156	0.1317	0.453
Mof_C 	C 	0.602	0.7152	0.064	-0.169
Mof_C 	C 	0.5529	0.6587	0.032	0.099
Mof_C 	C 	0.5484	0.7718	0.032	0.106
Mof_O 	O 	0.3157	0.71009	0.32307	-0.687
Mof_O 	O 	0.0916	0.6821	0.37393	-0.494
Mof_C 	C 	0.2556	0.6893	0.3762	0.451
Mof_C 	C 	0.3786	0.6777	0.4399	-0.141
Mof_C 	C 	0.5583	0.6755	0.4372	-0.019
Mof_H 	H 	0.5974	0.6747	0.3944	0.036
Mof_C 	C 	0.3175	0.6746	0.5033	0.118
Mof_O 	O 	0.2327	0.83272	0.28596	-0.624
Mof_O 	O 	0.982	0.83762	0.2177	-0.511
Mof_C 	C 	0.1115	0.8645	0.2505	0.481
Mof_C 	C 	0.1211	0.9344	0.2499	-0.182
Mof_C 	C 	0.2409	0.9669	0.2972	0.084
Mof_C 	C 	0.0046	0.9681	0.2024	0.102
Mof_N 	N 	0.633	0.5996	0.0523	-0.071
Mof_N 	N 	0.361	0.9426	0.3497	-0.101
Mof_N 	N 	0.148	0.6612	0.5092	-0.083
Mof_N 	N 	0.598	0.8234	0.0564	-0.099
Mof_N 	N 	0.88	0.9402	0.1608	-0.093
Mof_Pr	Pr	0.4892	0.22337	0.25526	2.518
Mof_O 	O 	0.3281	0.17339	0.14707	-0.496
Mof_O 	O 	0.2006	0.26073	0.17447	-0.673
Mof_C 	C 	0.2164	0.2156	0.1317	0.453
Mof_C 	C 	0.102	0.2152	0.064	-0.168
Mof_C 	C 	0.0529	0.1587	0.032	0.099
Mof_C 	C 	0.0484	0.2718	0.032	0.106
Mof_O 	O 	0.8157	0.21009	0.32307	-0.688
Mof_O 	O 	0.5916	0.1821	0.37393	-0.497
Mof_C 	C 	0.7556	0.1893	0.3762	0.451
Mof_C 	C 	0.8786	0.1777	0.4399	-0.143
Mof_C 	C 	0.0583	0.1755	0.4372	-0.016
Mof_H 	H 	0.0974	0.1747	0.3944	0.036
Mof_C 	C 	0.8175	0.1746	0.5033	0.117
Mof_O 	O 	0.7327	0.33272	0.28596	-0.623
Mof_O 	O 	0.482	0.33762	0.2177	-0.507
Mof_C 	C 	0.6115	0.3645	0.2505	0.475
Mof_C 	C 	0.6211	0.4344	0.2499	-0.18
Mof_C 	C 	0.7409	0.4669	0.2972	0.084
Mof_C 	C 	0.5046	0.4681	0.2024	0.099
Mof_N 	N 	0.133	0.0996	0.0523	-0.07
Mof_N 	N 	0.861	0.4426	0.3497	-0.101
Mof_N 	N 	0.648	0.1612	0.5092	-0.083
Mof_N 	N 	0.098	0.3234	0.0564	-0.098
Mof_N 	N 	0.38	0.4402	0.1608	-0.09
_end
