data_functionalizedCrystal
_audit_creation_method	'EQeq! by Chris Wilmer'
_symmetry_space_group_name_H-M	'P1'
_symmetry_Int_Tables_number	1
_symmetry_cell_setting	triclinic
loop_
_symmetry_equiv_pos_as_xyz
  x,y,z
_cell_length_a	10.4562
_cell_length_b	10.4562
_cell_length_c	14.264
_cell_angle_alpha	83.3213
_cell_angle_beta	83.3213
_cell_angle_gamma	85.3259
loop_
_atom_site_label
_atom_site_type_symbol
_atom_site_fract_x
_atom_site_fract_y
_atom_site_fract_z
_atom_site_charge
Mof_Gd	Gd	0.2288	0.7712	0.25	1.376
Mof_Gd	Gd	0.7712	0.2288	0.75	1.376
Mof_H 	H 	0.2902	0.168	0.4596	0.202
Mof_H 	H 	0.8041	0.7377	0.4087	0.035
Mof_H 	H 	0.6464	0.6828	0.4116	0.026
Mof_H 	H 	0.561	0.883	0.3531	0.032
Mof_H 	H 	0.7154	0.869	0.2878	0.037
Mof_H 	H 	0.6899	0.1895	0.3336	0.028
Mof_H 	H 	0.6532	0.0814	0.2569	0.037
Mof_H 	H 	0.4646	0.2106	0.3003	0.052
Mof_H 	H 	0.4446	0.0496	0.354	0.053
Mof_H 	H 	0.5196	0.2732	0.4453	0.02
Mof_H 	H 	0.5032	0.1146	0.4993	0.031
Mof_H 	H 	0.6903	0.6711	0.661	0.011
Mof_H 	H 	0.6821	0.5765	0.5691	0.012
Mof_H 	H 	0.905	0.6324	0.5071	0.113
Mof_H 	H 	0.91	0.7084	0.6108	0.097
Mof_H 	H 	0.8823	0.9143	0.4135	0.032
Mof_H 	H 	0.876	0.0314	0.3132	0.011
Mof_H 	H 	0.9677	0.1169	0.4344	0.098
Mof_H 	H 	0.8186	0.2008	0.4172	0.082
Mof_H 	H 	0.832	0.7098	0.0404	0.201
Mof_H 	H 	0.2623	0.1959	0.0913	0.034
Mof_H 	H 	0.3172	0.3536	0.0884	0.025
Mof_H 	H 	0.117	0.439	0.1469	0.031
Mof_H 	H 	0.131	0.2846	0.2122	0.036
Mof_H 	H 	0.8105	0.3101	0.1664	0.027
Mof_H 	H 	0.9186	0.3468	0.2431	0.036
Mof_H 	H 	0.7894	0.5354	0.1997	0.051
Mof_H 	H 	0.9504	0.5554	0.146	0.053
Mof_H 	H 	0.7268	0.4804	0.0547	0.02
Mof_H 	H 	0.8854	0.4968	0.0007	0.032
Mof_H 	H 	0.3289	0.3097	0.839	0.011
Mof_H 	H 	0.4235	0.3179	0.9309	0.012
Mof_H 	H 	0.3676	0.095	0.9929	0.112
Mof_H 	H 	0.2916	0.09	0.8892	0.097
Mof_H 	H 	0.0857	0.1177	0.0865	0.031
Mof_H 	H 	0.9686	0.124	0.1868	0.011
Mof_H 	H 	0.8831	0.0323	0.0656	0.098
Mof_H 	H 	0.7992	0.1814	0.0828	0.082
Mof_H 	H 	0.7098	0.832	0.5404	0.201
Mof_H 	H 	0.1959	0.2623	0.5913	0.034
Mof_H 	H 	0.3536	0.3172	0.5884	0.025
Mof_H 	H 	0.439	0.117	0.6469	0.031
Mof_H 	H 	0.2846	0.131	0.7122	0.036
Mof_H 	H 	0.3101	0.8105	0.6664	0.027
Mof_H 	H 	0.3468	0.9186	0.7431	0.036
Mof_H 	H 	0.5354	0.7894	0.6997	0.051
Mof_H 	H 	0.5554	0.9504	0.646	0.053
Mof_H 	H 	0.4804	0.7268	0.5547	0.02
Mof_H 	H 	0.4968	0.8854	0.5007	0.031
Mof_H 	H 	0.3097	0.3289	0.339	0.011
Mof_H 	H 	0.3179	0.4235	0.4309	0.012
Mof_H 	H 	0.095	0.3676	0.4929	0.113
Mof_H 	H 	0.09	0.2916	0.3892	0.097
Mof_H 	H 	0.1177	0.0857	0.5865	0.032
Mof_H 	H 	0.124	0.9686	0.6868	0.011
Mof_H 	H 	0.0323	0.8831	0.5656	0.098
Mof_H 	H 	0.1814	0.7992	0.5828	0.082
Mof_H 	H 	0.168	0.2902	0.9596	0.201
Mof_H 	H 	0.7377	0.8041	0.9087	0.034
Mof_H 	H 	0.6828	0.6464	0.9116	0.025
Mof_H 	H 	0.883	0.561	0.8531	0.031
Mof_H 	H 	0.869	0.7154	0.7878	0.036
Mof_H 	H 	0.1895	0.6899	0.8336	0.027
Mof_H 	H 	0.0814	0.6532	0.7569	0.036
Mof_H 	H 	0.2106	0.4646	0.8003	0.051
Mof_H 	H 	0.0496	0.4446	0.854	0.053
Mof_H 	H 	0.2732	0.5196	0.9453	0.02
Mof_H 	H 	0.1146	0.5032	0.9993	0.032
Mof_H 	H 	0.6711	0.6903	0.161	0.011
Mof_H 	H 	0.5765	0.6821	0.0691	0.012
Mof_H 	H 	0.6324	0.905	0.0071	0.112
Mof_H 	H 	0.7084	0.91	0.1108	0.097
Mof_H 	H 	0.9143	0.8823	0.9135	0.031
Mof_H 	H 	0.0314	0.876	0.8132	0.011
Mof_H 	H 	0.1169	0.9677	0.9344	0.098
Mof_H 	H 	0.2008	0.8186	0.9172	0.082
Mof_C 	C 	0.297	0.241	0.5742	-0.008
Mof_C 	C 	0.336	0.124	0.6428	-0.048
Mof_C 	C 	0.3596	0.8936	0.6711	-0.023
Mof_C 	C 	0.502	0.864	0.6478	-0.099
Mof_C 	C 	0.5321	0.8107	0.554	0.002
Mof_C 	C 	0.28	0.342	0.4119	0.069
Mof_C 	C 	0.136	0.364	0.421	-0.277
Mof_C 	C 	0.1	0.492	0.365	0.401
Mof_C 	C 	0.8374	0.0054	0.3866	0.033
Mof_C 	C 	0.863	0.109	0.446	-0.245
Mof_C 	C 	0.8216	0.0836	0.553	0.409
Mof_C 	C 	0.759	0.703	0.9258	-0.009
Mof_C 	C 	0.876	0.664	0.8572	-0.048
Mof_C 	C 	0.1064	0.6404	0.8289	-0.022
Mof_C 	C 	0.136	0.498	0.8522	-0.099
Mof_C 	C 	0.1893	0.4679	0.946	0.002
Mof_C 	C 	0.658	0.72	0.0881	0.069
Mof_C 	C 	0.636	0.864	0.079	-0.276
Mof_C 	C 	0.508	0.9	0.135	0.399
Mof_C 	C 	0.9946	0.1626	0.1134	0.036
Mof_C 	C 	0.891	0.137	0.054	-0.24
Mof_C 	C 	0.9164	0.1784	0.947	0.402
Mof_C 	C 	0.703	0.759	0.4258	-0.008
Mof_C 	C 	0.664	0.876	0.3572	-0.048
Mof_C 	C 	0.6404	0.1064	0.3289	-0.023
Mof_C 	C 	0.498	0.136	0.3522	-0.099
Mof_C 	C 	0.4679	0.1893	0.446	0.002
Mof_C 	C 	0.72	0.658	0.5881	0.069
Mof_C 	C 	0.864	0.636	0.579	-0.277
Mof_C 	C 	0.9	0.508	0.635	0.401
Mof_C 	C 	0.1626	0.9946	0.6134	0.033
Mof_C 	C 	0.137	0.891	0.554	-0.245
Mof_C 	C 	0.1784	0.9164	0.447	0.409
Mof_C 	C 	0.241	0.297	0.0742	-0.009
Mof_C 	C 	0.124	0.336	0.1428	-0.048
Mof_C 	C 	0.8936	0.3596	0.1711	-0.022
Mof_C 	C 	0.864	0.502	0.1478	-0.099
Mof_C 	C 	0.8107	0.5321	0.054	0.002
Mof_C 	C 	0.342	0.28	0.9119	0.069
Mof_C 	C 	0.364	0.136	0.921	-0.276
Mof_C 	C 	0.492	0.1	0.865	0.399
Mof_C 	C 	0.0054	0.8374	0.8866	0.036
Mof_C 	C 	0.109	0.863	0.946	-0.24
Mof_C 	C 	0.0836	0.8216	0.053	0.402
Mof_N 	N 	0.327	0.2214	0.4728	-0.25
Mof_N 	N 	0.3042	0.0028	0.6106	-0.108
Mof_N 	N 	0.7786	0.673	0.0272	-0.25
Mof_N 	N 	0.9972	0.6958	0.8894	-0.11
Mof_N 	N 	0.673	0.7786	0.5272	-0.25
Mof_N 	N 	0.6958	0.9972	0.3894	-0.108
Mof_N 	N 	0.2214	0.327	0.9728	-0.25
Mof_N 	N 	0.0028	0.3042	0.1106	-0.11
Mof_O 	O 	0.0208	0.477	0.6364	-0.305
Mof_O 	O 	0.1868	0.5568	0.3215	-0.456
Mof_O 	O 	0.8017	0.9717	0.5871	-0.329
Mof_O 	O 	0.862	0.158	0.6	-0.458
Mof_O 	O 	0.523	0.9792	0.8636	-0.304
Mof_O 	O 	0.4432	0.8132	0.1785	-0.456
Mof_O 	O 	0.0283	0.1983	0.9129	-0.326
Mof_O 	O 	0.842	0.138	0.9	-0.457
Mof_O 	O 	0.9792	0.523	0.3636	-0.305
Mof_O 	O 	0.8132	0.4432	0.6785	-0.456
Mof_O 	O 	0.1983	0.0283	0.4129	-0.329
Mof_O 	O 	0.138	0.842	0.4	-0.458
Mof_O 	O 	0.477	0.0208	0.1364	-0.304
Mof_O 	O 	0.5568	0.1868	0.8215	-0.456
Mof_O 	O 	0.9717	0.8017	0.0871	-0.326
Mof_O 	O 	0.158	0.862	0.1	-0.457
_end
