data_functionalizedCrystal
_audit_creation_method	'EQeq! by Chris Wilmer'
_symmetry_space_group_name_H-M	'P1'
_symmetry_Int_Tables_number	1
_symmetry_cell_setting	triclinic
loop_
_symmetry_equiv_pos_as_xyz
  x,y,z
_cell_length_a	10.3749
_cell_length_b	13.8983
_cell_length_c	17.946
_cell_angle_alpha	99.717
_cell_angle_beta	90
_cell_angle_gamma	90
loop_
_atom_site_label
_atom_site_type_symbol
_atom_site_fract_x
_atom_site_fract_y
_atom_site_fract_z
_atom_site_charge
Mof_Eu	Eu	0.75099	0.39801	0.70851	2.255
Mof_Eu	Eu	0.72998	0.34817	0.34413	2.395
Mof_Eu	Eu	0.25099	0.10199	0.79149	2.255
Mof_Eu	Eu	0.22998	0.15183	0.15587	2.396
Mof_Eu	Eu	0.24901	0.60199	0.29149	2.254
Mof_Eu	Eu	0.27002	0.65183	0.65587	2.394
Mof_Eu	Eu	0.74901	0.89801	0.20851	2.254
Mof_Eu	Eu	0.77002	0.84817	0.84413	2.395
Mof_H 	H 	0.6068	0.636	0.5093	0.018
Mof_H 	H 	0.9815	0.6311	0.5319	0.012
Mof_H 	H 	0.4868	0.6381	0.9268	0.015
Mof_H 	H 	0.3459	0.3743	0.8981	0.022
Mof_H 	H 	0.551	0.17	0.5688	0.011
Mof_H 	H 	0.3552	0.0932	0.3826	0.003
Mof_H 	H 	0.1068	0.864	0.9907	0.018
Mof_H 	H 	0.4815	0.8689	0.9681	0.012
Mof_H 	H 	0.9868	0.8619	0.5732	0.014
Mof_H 	H 	0.8459	0.1257	0.6019	0.023
Mof_H 	H 	0.051	0.33	0.9312	0.012
Mof_H 	H 	0.8552	0.4068	0.1174	0.003
Mof_H 	H 	0.3932	0.364	0.4907	0.018
Mof_H 	H 	0.0185	0.3689	0.4681	0.012
Mof_H 	H 	0.5132	0.3619	0.0732	0.015
Mof_H 	H 	0.6541	0.6257	0.1019	0.022
Mof_H 	H 	0.449	0.83	0.4312	0.011
Mof_H 	H 	0.6448	0.9068	0.6174	0.003
Mof_H 	H 	0.8932	0.136	0.0093	0.018
Mof_H 	H 	0.5185	0.1311	0.0319	0.012
Mof_H 	H 	0.0132	0.1381	0.4268	0.014
Mof_H 	H 	0.1541	0.8743	0.3981	0.023
Mof_H 	H 	0.949	0.67	0.0688	0.012
Mof_H 	H 	0.1448	0.5932	0.8826	0.003
Mof_C 	C 	0.668	0.5504	0.5821	-0.08
Mof_C 	C 	0.6806	0.6143	0.5308	0.072
Mof_C 	C 	0.8995	0.6118	0.5444	0.084
Mof_C 	C 	0.8855	0.5493	0.5962	-0.107
Mof_C 	C 	0.5404	0.5143	0.6089	0.419
Mof_C 	C 	0.9966	0.5096	0.636	0.499
Mof_C 	C 	0.575	0.5457	0.8451	-0.125
Mof_C 	C 	0.4875	0.5736	0.9023	0.078
Mof_C 	C 	0.4042	0.4196	0.8852	0.067
Mof_C 	C 	0.4901	0.3912	0.8268	-0.104
Mof_C 	C 	0.6739	0.6099	0.8188	0.474
Mof_C 	C 	0.4937	0.2915	0.7786	0.441
Mof_C 	C 	0.6106	0.2347	0.4835	-0.095
Mof_C 	C 	0.5358	0.1735	0.5182	0.072
Mof_C 	C 	0.4202	0.1296	0.4097	0.085
Mof_C 	C 	0.4904	0.1923	0.3749	-0.12
Mof_C 	C 	0.719	0.2985	0.5202	0.462
Mof_C 	C 	0.4686	0.2136	0.2964	0.482
Mof_C 	C 	0.168	0.9496	0.9179	-0.079
Mof_C 	C 	0.1806	0.8857	0.9692	0.071
Mof_C 	C 	0.3995	0.8882	0.9556	0.084
Mof_C 	C 	0.3855	0.9507	0.9038	-0.107
Mof_C 	C 	0.0404	0.9857	0.8911	0.414
Mof_C 	C 	0.4966	0.9904	0.864	0.5
Mof_C 	C 	0.075	0.9543	0.6549	-0.13
Mof_C 	C 	0.9875	0.9264	0.5977	0.082
Mof_C 	C 	0.9042	0.0804	0.6148	0.065
Mof_C 	C 	0.9901	0.1088	0.6732	-0.106
Mof_C 	C 	0.1739	0.8901	0.6812	0.475
Mof_C 	C 	0.9937	0.2085	0.7214	0.44
Mof_C 	C 	0.1106	0.2653	0.0165	-0.089
Mof_C 	C 	0.0358	0.3265	0.9818	0.067
Mof_C 	C 	0.9202	0.3704	0.0903	0.085
Mof_C 	C 	0.9904	0.3077	0.1251	-0.122
Mof_C 	C 	0.219	0.2015	0.9798	0.456
Mof_C 	C 	0.9686	0.2864	0.2036	0.48
Mof_C 	C 	0.332	0.4496	0.4179	-0.08
Mof_C 	C 	0.3194	0.3857	0.4692	0.072
Mof_C 	C 	0.1005	0.3882	0.4556	0.084
Mof_C 	C 	0.1145	0.4507	0.4038	-0.107
Mof_C 	C 	0.4596	0.4857	0.3911	0.419
Mof_C 	C 	0.0034	0.4904	0.364	0.499
Mof_C 	C 	0.425	0.4543	0.1549	-0.125
Mof_C 	C 	0.5125	0.4264	0.0977	0.078
Mof_C 	C 	0.5958	0.5804	0.1148	0.067
Mof_C 	C 	0.5099	0.6088	0.1732	-0.104
Mof_C 	C 	0.3261	0.3901	0.1812	0.474
Mof_C 	C 	0.5063	0.7085	0.2214	0.441
Mof_C 	C 	0.3894	0.7653	0.5165	-0.095
Mof_C 	C 	0.4642	0.8265	0.4818	0.072
Mof_C 	C 	0.5798	0.8704	0.5903	0.085
Mof_C 	C 	0.5096	0.8077	0.6251	-0.12
Mof_C 	C 	0.281	0.7015	0.4798	0.462
Mof_C 	C 	0.5314	0.7864	0.7036	0.482
Mof_C 	C 	0.832	0.0504	0.0821	-0.079
Mof_C 	C 	0.8194	0.1143	0.0308	0.071
Mof_C 	C 	0.6005	0.1118	0.0444	0.084
Mof_C 	C 	0.6145	0.0493	0.0962	-0.107
Mof_C 	C 	0.9596	0.0143	0.1089	0.414
Mof_C 	C 	0.5034	0.0096	0.136	0.5
Mof_C 	C 	0.925	0.0457	0.3451	-0.13
Mof_C 	C 	0.0125	0.0736	0.4023	0.082
Mof_C 	C 	0.0958	0.9196	0.3852	0.065
Mof_C 	C 	0.0099	0.8912	0.3268	-0.106
Mof_C 	C 	0.8261	0.1099	0.3188	0.475
Mof_C 	C 	0.0063	0.7915	0.2786	0.44
Mof_C 	C 	0.8894	0.7347	0.9835	-0.089
Mof_C 	C 	0.9642	0.6735	0.0182	0.067
Mof_C 	C 	0.0798	0.6296	0.9097	0.085
Mof_C 	C 	0.0096	0.6923	0.8749	-0.122
Mof_C 	C 	0.781	0.7985	0.0202	0.456
Mof_C 	C 	0.0314	0.7136	0.7964	0.48
Mof_N 	N 	0.7704	0.5164	0.6137	-0.181
Mof_N 	N 	0.7948	0.6453	0.5117	-0.133
Mof_N 	N 	0.5765	0.4539	0.8073	-0.2
Mof_N 	N 	0.4032	0.5105	0.9235	-0.133
Mof_N 	N 	0.5878	0.2432	0.4117	-0.191
Mof_N 	N 	0.4414	0.1188	0.4814	-0.137
Mof_N 	N 	0.2704	0.9836	0.8863	-0.181
Mof_N 	N 	0.2948	0.8547	0.9883	-0.134
Mof_N 	N 	0.0765	0.0461	0.6927	-0.198
Mof_N 	N 	0.9032	0.9895	0.5765	-0.132
Mof_N 	N 	0.0878	0.2568	0.0883	-0.191
Mof_N 	N 	0.9414	0.3812	0.0186	-0.136
Mof_N 	N 	0.2296	0.4836	0.3863	-0.181
Mof_N 	N 	0.2052	0.3547	0.4883	-0.133
Mof_N 	N 	0.4235	0.5461	0.1927	-0.2
Mof_N 	N 	0.5968	0.4895	0.0765	-0.133
Mof_N 	N 	0.4122	0.7568	0.5883	-0.191
Mof_N 	N 	0.5586	0.8812	0.5186	-0.137
Mof_N 	N 	0.7296	0.0164	0.1137	-0.181
Mof_N 	N 	0.7052	0.1453	0.0117	-0.134
Mof_N 	N 	0.9235	0.9539	0.3073	-0.198
Mof_N 	N 	0.0968	0.0105	0.4235	-0.132
Mof_N 	N 	0.9122	0.7432	0.9117	-0.191
Mof_N 	N 	0.0586	0.6188	0.9814	-0.136
Mof_O 	O 	0.5465	0.451	0.6505	-0.495
Mof_O 	O 	0.4391	0.5526	0.5881	-0.525
Mof_O 	O 	0.9671	0.4547	0.681	-0.521
Mof_O 	O 	0.1073	0.5355	0.6215	-0.568
Mof_O 	O 	0.7523	0.571	0.7705	-0.541
Mof_O 	O 	0.6704	0.6986	0.8481	-0.559
Mof_O 	O 	0.5882	0.2756	0.7331	-0.495
Mof_O 	O 	0.4038	0.2346	0.7882	-0.51
Mof_O 	O 	0.7777	0.3475	0.4785	-0.495
Mof_O 	O 	0.7411	0.2977	0.5885	-0.525
Mof_O 	O 	0.5478	0.2703	0.273	-0.559
Mof_O 	O 	0.3725	0.1731	0.2613	-0.565
Mof_O 	O 	0.0465	0.049	0.8495	-0.493
Mof_O 	O 	0.9391	0.9474	0.9119	-0.521
Mof_O 	O 	0.4671	0.0453	0.819	-0.522
Mof_O 	O 	0.6073	0.9645	0.8785	-0.568
Mof_O 	O 	0.2523	0.929	0.7295	-0.541
Mof_O 	O 	0.1704	0.8014	0.6519	-0.559
Mof_O 	O 	0.0882	0.2244	0.7669	-0.495
Mof_O 	O 	0.9038	0.2654	0.7118	-0.51
Mof_O 	O 	0.2777	0.1525	0.0215	-0.492
Mof_O 	O 	0.2411	0.2023	0.9115	-0.524
Mof_O 	O 	0.0478	0.2297	0.227	-0.557
Mof_O 	O 	0.8725	0.3269	0.2387	-0.565
Mof_O 	O 	0.4535	0.549	0.3495	-0.495
Mof_O 	O 	0.5609	0.4474	0.4119	-0.525
Mof_O 	O 	0.0329	0.5453	0.319	-0.521
Mof_O 	O 	0.8927	0.4645	0.3785	-0.568
Mof_O 	O 	0.2477	0.429	0.2295	-0.541
Mof_O 	O 	0.3296	0.3014	0.1519	-0.559
Mof_O 	O 	0.4118	0.7244	0.2669	-0.495
Mof_O 	O 	0.5962	0.7654	0.2118	-0.51
Mof_O 	O 	0.2223	0.6525	0.5215	-0.495
Mof_O 	O 	0.2589	0.7023	0.4115	-0.525
Mof_O 	O 	0.4522	0.7297	0.727	-0.559
Mof_O 	O 	0.6275	0.8269	0.7387	-0.565
Mof_O 	O 	0.9535	0.951	0.1505	-0.493
Mof_O 	O 	0.0609	0.0526	0.0881	-0.521
Mof_O 	O 	0.5329	0.9547	0.181	-0.522
Mof_O 	O 	0.3927	0.0355	0.1215	-0.568
Mof_O 	O 	0.7477	0.071	0.2705	-0.541
Mof_O 	O 	0.8296	0.1986	0.3481	-0.559
Mof_O 	O 	0.9118	0.7756	0.2331	-0.495
Mof_O 	O 	0.0962	0.7346	0.2882	-0.51
Mof_O 	O 	0.7223	0.8475	0.9785	-0.492
Mof_O 	O 	0.7589	0.7977	0.0885	-0.524
Mof_O 	O 	0.9522	0.7703	0.773	-0.557
Mof_O 	O 	0.1275	0.6731	0.7613	-0.565
_end
