data_functionalizedCrystal
_audit_creation_method	'EQeq! by Chris Wilmer'
_symmetry_space_group_name_H-M	'P1'
_symmetry_Int_Tables_number	1
_symmetry_cell_setting	triclinic
loop_
_symmetry_equiv_pos_as_xyz
  x,y,z
_cell_length_a	10.8304
_cell_length_b	11.9985
_cell_length_c	15.496
_cell_angle_alpha	90
_cell_angle_beta	95.227
_cell_angle_gamma	90
loop_
_atom_site_label
_atom_site_type_symbol
_atom_site_fract_x
_atom_site_fract_y
_atom_site_fract_z
_atom_site_charge
Mof_Cu	Cu	0.02377	0.62882	0.65866	0.91
Mof_Cu	Cu	0.52377	0.87118	0.15866	0.911
Mof_Cu	Cu	0.3637	0.00379	0.00584	0.926
Mof_Cu	Cu	0.97623	0.37118	0.34134	0.91
Mof_Cu	Cu	0.47623	0.12882	0.84134	0.911
Mof_Cu	Cu	0.6363	0.99621	0.99416	0.926
Mof_Cu	Cu	0.8637	0.49621	0.50584	0.931
Mof_Cu	Cu	0.1363	0.50379	0.49416	0.931
Mof_H 	H 	0.5116	0.5889	0.5786	0.044
Mof_H 	H 	0.9968	0.6723	0.4995	0.16
Mof_H 	H 	0.0116	0.9111	0.0786	0.045
Mof_H 	H 	0.9884	0.0889	0.9214	0.045
Mof_H 	H 	0.349	0.7803	0.7508	0.031
Mof_H 	H 	0.2798	0.2114	0.2559	0.032
Mof_H 	H 	0.2202	0.7114	0.2441	0.033
Mof_H 	H 	0.0032	0.3277	0.5005	0.16
Mof_H 	H 	0.7202	0.7886	0.7441	0.032
Mof_H 	H 	0.5032	0.1723	0.0005	0.155
Mof_H 	H 	0.4968	0.8277	0.9995	0.155
Mof_H 	H 	0.7798	0.2886	0.7559	0.033
Mof_H 	H 	0.151	0.2803	0.7492	0.032
Mof_H 	H 	0.651	0.2197	0.2492	0.031
Mof_H 	H 	0.849	0.7197	0.2508	0.032
Mof_H 	H 	0.4884	0.4111	0.4214	0.044
Mof_C 	C 	0.7502	0.6404	0.6202	0.381
Mof_C 	C 	0.4109	0.6767	0.66028	-0.131
Mof_C 	C 	0.3656	0.3183	0.344	-0.128
Mof_C 	C 	0.2502	0.8596	0.1202	0.38
Mof_C 	C 	0.3586	0.2396	0.2774	0.061
Mof_C 	C 	0.8586	0.2604	0.7774	0.06
Mof_C 	C 	0.9571	0.3889	0.6736	0.334
Mof_C 	C 	0.982	0.1413	0.8752	0.064
Mof_C 	C 	0.5783	0.2445	0.2734	0.061
Mof_C 	C 	0.5429	0.8889	0.8264	0.336
Mof_C 	C 	0.9217	0.7445	0.2266	0.06
Mof_C 	C 	0.9639	0.2986	0.7416	-0.121
Mof_C 	C 	0.4639	0.2014	0.2416	-0.122
Mof_C 	C 	0.6344	0.6817	0.656	-0.128
Mof_C 	C 	0.2849	0.6345	0.62622	0.39
Mof_C 	C 	0.7151	0.3655	0.37378	0.39
Mof_C 	C 	0.0891	0.1767	0.83972	-0.128
Mof_C 	C 	0.6414	0.7604	0.7226	0.061
Mof_C 	C 	0.2151	0.1345	0.87378	0.389
Mof_C 	C 	0.1344	0.8183	0.156	-0.126
Mof_C 	C 	0.0783	0.2555	0.7734	0.06
Mof_C 	C 	0.1414	0.7396	0.2226	0.06
Mof_C 	C 	0.7498	0.1404	0.8798	0.38
Mof_C 	C 	0.482	0.3587	0.3752	0.065
Mof_C 	C 	0.518	0.6413	0.6248	0.065
Mof_C 	C 	0.018	0.8587	0.1248	0.064
Mof_C 	C 	0.0429	0.6111	0.3264	0.334
Mof_C 	C 	0.7849	0.8655	0.12622	0.389
Mof_C 	C 	0.5361	0.7986	0.7584	-0.122
Mof_C 	C 	0.9109	0.8233	0.16028	-0.128
Mof_C 	C 	0.4571	0.1111	0.1736	0.336
Mof_C 	C 	0.5891	0.3233	0.33972	-0.131
Mof_C 	C 	0.8656	0.1817	0.844	-0.126
Mof_C 	C 	0.0361	0.7014	0.2584	-0.121
Mof_C 	C 	0.4217	0.7555	0.7266	0.061
Mof_C 	C 	0.2498	0.3596	0.3798	0.381
Mof_O 	O 	0.4493	0.951	0.82584	-0.401
Mof_O 	O 	0.65157	0.1534	0.83122	-0.432
Mof_O 	O 	0.3041	0.1713	0.83612	-0.434
Mof_O 	O 	0.85976	0.39711	0.62387	-0.36
Mof_O 	O 	0.8041	0.3287	0.33612	-0.436
Mof_O 	O 	0.73872	0.59634	0.54642	-0.391
Mof_O 	O 	0.34843	0.8466	0.16878	-0.432
Mof_O 	O 	0.4938	0.10172	0.96625	-0.603
Mof_O 	O 	0.23872	0.90366	0.04642	-0.388
Mof_O 	O 	0.9938	0.39828	0.46625	-0.61
Mof_O 	O 	0.1959	0.6713	0.66388	-0.436
Mof_O 	O 	0.64024	0.89711	0.87613	-0.363
Mof_O 	O 	0.2799	0.5697	0.56303	-0.394
Mof_O 	O 	0.9493	0.549	0.32584	-0.398
Mof_O 	O 	0.26128	0.40366	0.45358	-0.391
Mof_O 	O 	0.15157	0.3466	0.33122	-0.434
Mof_O 	O 	0.5507	0.049	0.17416	-0.401
Mof_O 	O 	0.7201	0.4303	0.43697	-0.394
Mof_O 	O 	0.84843	0.6534	0.66878	-0.434
Mof_O 	O 	0.76128	0.09634	0.95358	-0.388
Mof_O 	O 	0.7799	0.9303	0.06303	-0.391
Mof_O 	O 	0.35976	0.10289	0.12387	-0.363
Mof_O 	O 	0.2201	0.0697	0.93697	-0.391
Mof_O 	O 	0.0062	0.60172	0.53375	-0.61
Mof_O 	O 	0.6959	0.8287	0.16388	-0.434
Mof_O 	O 	0.14024	0.60289	0.37613	-0.36
Mof_O 	O 	0.5062	0.89828	0.03375	-0.603
Mof_O 	O 	0.0507	0.451	0.67416	-0.398
_end
