data_functionalizedCrystal
_audit_creation_method	'EQeq! by Chris Wilmer'
_symmetry_space_group_name_H-M	'P1'
_symmetry_Int_Tables_number	1
_symmetry_cell_setting	triclinic
loop_
_symmetry_equiv_pos_as_xyz
  x,y,z
_cell_length_a	9.984
_cell_length_b	12.354
_cell_length_c	12.834
_cell_angle_alpha	88.32
_cell_angle_beta	74.57
_cell_angle_gamma	75.81
loop_
_atom_site_label
_atom_site_type_symbol
_atom_site_fract_x
_atom_site_fract_y
_atom_site_fract_z
_atom_site_charge
Mof_Zn	Zn	0.14229	0.73851	0.23476	1.222
Mof_Zn	Zn	0.93247	0.97599	0.3803	1.196
Mof_Zn	Zn	0.52642	0.73893	0.25653	1.229
Mof_Zn	Zn	0.85309	0.57195	0.40013	1.225
Mof_Zn	Zn	0.34002	0.61074	0.46378	1.225
Mof_Zn	Zn	0.45874	0.44227	0.15085	1.232
Mof_P 	P 	0.812	0.79527	0.29361	0.53
Mof_P 	P 	0.22059	0.85946	0.41431	0.549
Mof_P 	P 	0.62959	0.4928	0.31305	0.54
Mof_P 	P 	0.1995	0.49768	0.34943	0.533
Mof_P 	P 	0.41204	0.6851	0.06067	0.513
Mof_O 	O 	0.1084	0.8564	0.3495	-0.643
Mof_O 	O 	0.9572	0.7403	0.2163	-0.489
Mof_O 	O 	0.2729	0.7769	0.1058	-0.447
Mof_O 	O 	0.2172	0.6129	0.3138	-0.59
Mof_O 	O 	0.8028	0.9181	0.3215	-0.457
Mof_O 	O 	0.1678	0.9718	0.4763	-0.51
Mof_O 	O 	0.6948	0.7965	0.2373	-0.425
Mof_O 	O 	0.5182	0.6071	0.347	-0.65
Mof_O 	O 	0.528	0.7004	0.1121	-0.469
Mof_O 	O 	0.3655	0.8521	0.3358	-0.485
Mof_O 	O 	0.79	0.732	0.4002	-0.489
Mof_O 	O 	0.7802	0.5132	0.292	-0.456
Mof_O 	O 	0.0482	0.4833	0.3647	-0.483
Mof_O 	O 	0.2234	0.7642	0.4923	-0.5
Mof_O 	O 	0.2391	0.4872	0.4605	-0.6
Mof_O 	O 	0.5991	0.4155	0.4053	-0.499
Mof_O 	O 	0.6193	0.4463	0.2083	-0.446
Mof_O 	O 	0.3055	0.4048	0.2709	-0.425
Mof_O 	O 	0.3762	0.5718	0.0822	-0.528
Mof_O 	O 	0.467	0.6963	0.9379	-0.403
Mof_Zn	Zn	0.85771	0.26149	0.76524	1.222
Mof_Zn	Zn	0.06753	0.02401	0.6197	1.196
Mof_Zn	Zn	0.47358	0.26107	0.74347	1.229
Mof_Zn	Zn	0.14691	0.42805	0.59987	1.225
Mof_Zn	Zn	0.65998	0.38926	0.53622	1.225
Mof_Zn	Zn	0.54126	0.55773	0.84915	1.232
Mof_P 	P 	0.188	0.20473	0.70639	0.53
Mof_P 	P 	0.77941	0.14054	0.58569	0.549
Mof_P 	P 	0.37041	0.5072	0.68695	0.54
Mof_P 	P 	0.8005	0.50232	0.65057	0.533
Mof_P 	P 	0.58796	0.3149	0.93933	0.513
Mof_O 	O 	0.8916	0.1436	0.6505	-0.643
Mof_O 	O 	0.0428	0.2597	0.7837	-0.489
Mof_O 	O 	0.7271	0.2231	0.8942	-0.447
Mof_O 	O 	0.7828	0.3871	0.6862	-0.59
Mof_O 	O 	0.1972	0.0819	0.6785	-0.457
Mof_O 	O 	0.8322	0.0282	0.5237	-0.51
Mof_O 	O 	0.3052	0.2035	0.7627	-0.425
Mof_O 	O 	0.4818	0.3929	0.653	-0.65
Mof_O 	O 	0.472	0.2996	0.8879	-0.469
Mof_O 	O 	0.6345	0.1479	0.6642	-0.485
Mof_O 	O 	0.21	0.268	0.5998	-0.489
Mof_O 	O 	0.2198	0.4868	0.708	-0.456
Mof_O 	O 	0.9518	0.5167	0.6353	-0.483
Mof_O 	O 	0.7766	0.2358	0.5077	-0.5
Mof_O 	O 	0.7609	0.5128	0.5395	-0.6
Mof_O 	O 	0.4009	0.5845	0.5947	-0.499
Mof_O 	O 	0.3807	0.5537	0.7917	-0.446
Mof_O 	O 	0.6945	0.5952	0.7291	-0.425
Mof_O 	O 	0.6238	0.4282	0.9178	-0.528
Mof_O 	O 	0.533	0.3037	0.0621	-0.403
_end
