data_functionalizedCrystal
_audit_creation_method	'EQeq! by Chris Wilmer'
_symmetry_space_group_name_H-M	'P1'
_symmetry_Int_Tables_number	1
_symmetry_cell_setting	triclinic
loop_
_symmetry_equiv_pos_as_xyz
  x,y,z
_cell_length_a	9.081
_cell_length_b	9.9179
_cell_length_c	14.5781
_cell_angle_alpha	81.8023
_cell_angle_beta	71.8527
_cell_angle_gamma	62.7544
loop_
_atom_site_label
_atom_site_type_symbol
_atom_site_fract_x
_atom_site_fract_y
_atom_site_fract_z
_atom_site_charge
Mof_Co	Co	0.59239	0.57008	0.87396	1.095
Mof_Co	Co	0.03643	0.42992	0.12604	1.103
Mof_Co	Co	0.21635	0.07008	0.62604	1.098
Mof_Co	Co	0.91247	0.92992	0.37396	1.084
Mof_H 	H 	0.8464	0.2424	0.7702	-0.056
Mof_H 	H 	0.171	0.4092	0.6388	-0.017
Mof_H 	H 	0.9228	0.604	0.7418	0.012
Mof_H 	H 	0.8986	0.4632	0.953	-0.067
Mof_H 	H 	0.6143	0.6508	0.202	-0.008
Mof_H 	H 	0.4274	0.7086	0.0986	0.005
Mof_H 	H 	0.859	0.7576	0.2298	-0.047
Mof_H 	H 	0.219	0.5908	0.3612	-0
Mof_H 	H 	0.2686	0.396	0.2582	0.001
Mof_H 	H 	0.3148	0.5368	0.047	-0.056
Mof_H 	H 	0.4671	0.3492	0.798	-0.006
Mof_H 	H 	0.2346	0.2914	0.9014	0.008
Mof_H 	H 	0.3666	0.7424	0.7298	-0.059
Mof_H 	H 	0.5598	0.9092	0.8612	-0.004
Mof_H 	H 	0.4146	0.104	0.7582	0.001
Mof_H 	H 	0.6016	0.9632	0.547	-0.066
Mof_H 	H 	0.5663	0.1508	0.298	-0.006
Mof_H 	H 	0.276	0.2086	0.4014	0.006
Mof_H 	H 	0.8388	0.2576	0.2702	-0.048
Mof_H 	H 	0.3302	0.0908	0.1388	-0.003
Mof_H 	H 	0.2768	0.896	0.2418	0.003
Mof_H 	H 	0.1118	0.0368	0.453	-0.067
Mof_H 	H 	0.0151	0.8492	0.702	-0.016
Mof_H 	H 	0.886	0.7914	0.5986	0.017
Mof_C 	C 	0.89593	0.3094	0.74954	0.067
Mof_C 	C 	0.074	0.399	0.678	0.045
Mof_C 	C 	0.9367	0.5068	0.7346	-0.069
Mof_C 	C 	0.8032	0.519	0.0026	0.087
Mof_C 	C 	0.6507	0.6192	0.1384	-0
Mof_C 	C 	0.5467	0.6524	0.0812	-0.016
Mof_C 	C 	0.95487	0.6906	0.25046	0.035
Mof_C 	C 	0.151	0.601	0.322	-0.004
Mof_C 	C 	0.1781	0.4932	0.2654	-0.015
Mof_C 	C 	0.3248	0.481	0.9974	0.084
Mof_C 	C 	0.4083	0.3808	0.8616	0.002
Mof_C 	C 	0.2803	0.3476	0.9188	-0.015
Mof_C 	C 	0.39547	0.8094	0.75046	0.095
Mof_C 	C 	0.502	0.899	0.822	-0.01
Mof_C 	C 	0.4213	0.0068	0.7654	-0.014
Mof_C 	C 	0.5558	0.019	0.4974	0.094
Mof_C 	C 	0.5391	0.1192	0.3616	0
Mof_C 	C 	0.3779	0.1524	0.4188	-0.015
Mof_C 	C 	0.95533	0.1906	0.24954	0.045
Mof_C 	C 	0.223	0.101	0.178	-0.002
Mof_C 	C 	0.1935	0.9932	0.2346	-0.019
Mof_C 	C 	0.0722	0.981	0.5026	0.121
Mof_C 	C 	0.0199	0.8808	0.6384	0.056
Mof_C 	C 	0.9491	0.8476	0.5812	-0.072
Mof_N 	N 	0.81826	0.4516	0.78068	-0.269
Mof_N 	N 	0.04962	0.2714	0.68676	-0.274
Mof_N 	N 	0.64836	0.589	0.99288	-0.277
Mof_N 	N 	0.81504	0.5332	0.08932	-0.288
Mof_N 	N 	0.05054	0.5484	0.21932	-0.257
Mof_N 	N 	0.00778	0.7286	0.31324	-0.255
Mof_N 	N 	0.23024	0.411	0.00712	-0.271
Mof_N 	N 	0.43756	0.4668	0.91068	-0.281
Mof_N 	N 	0.34894	0.9516	0.71932	-0.279
Mof_N 	N 	0.48638	0.7714	0.81324	-0.28
Mof_N 	N 	0.39124	0.089	0.50712	-0.276
Mof_N 	N 	0.65436	0.0332	0.41068	-0.282
Mof_N 	N 	0.01986	0.0484	0.28068	-0.255
Mof_N 	N 	0.07102	0.2286	0.18676	-0.263
Mof_N 	N 	0.98736	0.911	0.49288	-0.289
Mof_N 	N 	0.09824	0.9668	0.58932	-0.291
_end
