data_functionalizedCrystal
_audit_creation_method	'EQeq! by Chris Wilmer'
_symmetry_space_group_name_H-M	'P1'
_symmetry_Int_Tables_number	1
_symmetry_cell_setting	triclinic
loop_
_symmetry_equiv_pos_as_xyz
  x,y,z
_cell_length_a	11.6396
_cell_length_b	11.7565
_cell_length_c	13.0034
_cell_angle_alpha	101.04
_cell_angle_beta	93.708
_cell_angle_gamma	114.402
loop_
_atom_site_label
_atom_site_type_symbol
_atom_site_fract_x
_atom_site_fract_y
_atom_site_fract_z
_atom_site_charge
Mof_Bi	Bi	0.44888	0.24851	0.61455	0.937
Mof_Bi	Bi	0.69853	0.45503	0.84412	1.579
Mof_Bi	Bi	0.38459	0.41811	0.88219	0.732
Mof_Bi	Bi	0.55185	0.58533	0.62978	1.164
Mof_O 	O 	0.5426	0.4353	0.7372	-0.56
Mof_O 	O 	0.4636	0.3953	0.5342	-0.548
Mof_O 	O 	0.5803	0.4797	0.9511	-0.598
Mof_C 	C 	0.8185	0.2061	0.6061	-0.124
Mof_C 	C 	0.8535	0.1573	0.5163	0.008
Mof_C 	C 	0.9687	0.1558	0.5125	-0.102
Mof_H 	H 	0.9869	0.1183	0.4498	0.217
Mof_C 	C 	0.0596	0.2119	0.6047	-0.03
Mof_C 	C 	0.0287	0.2623	0.6963	0.028
Mof_H 	H 	0.0882	0.2971	0.7583	0.049
Mof_C 	C 	0.9093	0.2623	0.6981	-0.099
Mof_H 	H 	0.8902	0.2996	0.7603	0.226
Mof_C 	C 	0.6862	0.1995	0.6141	0.306
Mof_C 	C 	0.1896	0.216	0.5985	0.346
Mof_N 	N 	0.7614	0.1044	0.4152	-0.009
Mof_O 	O 	0.5939	0.0925	0.5995	-0.306
Mof_O 	O 	0.677	0.3054	0.6373	-0.258
Mof_O 	O 	0.2128	0.1619	0.5165	-0.287
Mof_O 	O 	0.275	0.2743	0.6829	-0.398
Mof_O 	O 	0.7634	0.017	0.3511	-0.103
Mof_O 	O 	0.6924	0.1571	0.4	-0.181
Mof_C 	C 	0.8815	0.5056	0.5022	-8.253
Mof_C 	C 	0.9758	0.5576	0.5906	36.807
Mof_C 	C 	0.9075	0.4473	0.4096	-14.572
Mof_H 	H 	0.8448	0.4109	0.3464	4.8
Mof_C 	C 	0.7524	0.5096	0.5021	3.843
Mof_O 	O 	0.7346	0.5664	0.5887	-0.902
Mof_O 	O 	0.6745	0.453	0.4158	-1.151
Mof_C 	C 	0.9199	0.8666	0.9717	0.886
Mof_C 	C 	0.9342	0.9434	0.9	-4.103
Mof_C 	C 	0.9868	0.9263	0.0737	1.563
Mof_H 	H 	0.9781	0.8765	0.1257	-0.487
Mof_C 	C 	0.8391	0.7238	0.9441	-0.073
Mof_O 	O 	0.777	0.6695	0.8506	-0.271
Mof_O 	O 	0.8362	0.6635	0.0115	-0.198
Mof_N 	N 	0.879	0.8862	0.7853	-5.319
Mof_O 	O 	0.771	0.869	0.762	0.544
Mof_O 	O 	0.948	0.863	0.727	2.139
Mof_N 	N 	0.9681	0.6261	0.6954	46.975
Mof_O 	O 	0.9959	0.7406	0.7074	-8.913
Mof_O 	O 	0.9439	0.5677	0.7639	-9.244
Mof_H 	H 	0.959	0.599	0.655	-51.981
Mof_H 	H 	0.8876	0.9034	0.8292	5.851
Mof_O 	O 	0.775	0.828	0.682	0.068
Mof_Bi	Bi	0.55112	0.75149	0.38545	0.938
Mof_Bi	Bi	0.30147	0.54497	0.15588	1.58
Mof_Bi	Bi	0.61541	0.58189	0.11781	0.733
Mof_Bi	Bi	0.44815	0.41467	0.37022	1.165
Mof_O 	O 	0.4574	0.5647	0.2628	-0.56
Mof_O 	O 	0.5364	0.6047	0.4658	-0.548
Mof_O 	O 	0.4197	0.5203	0.0489	-0.598
Mof_C 	C 	0.1815	0.7939	0.3939	-0.124
Mof_C 	C 	0.1465	0.8427	0.4837	0.008
Mof_C 	C 	0.0313	0.8442	0.4875	-0.102
Mof_H 	H 	0.0131	0.8817	0.5502	0.217
Mof_C 	C 	0.9404	0.7881	0.3953	-0.03
Mof_C 	C 	0.9713	0.7377	0.3037	0.028
Mof_H 	H 	0.9118	0.7029	0.2417	0.049
Mof_C 	C 	0.0907	0.7377	0.3019	-0.099
Mof_H 	H 	0.1098	0.7004	0.2397	0.226
Mof_C 	C 	0.3138	0.8005	0.3859	0.306
Mof_C 	C 	0.8104	0.784	0.4015	0.346
Mof_N 	N 	0.2386	0.8956	0.5848	-0.009
Mof_O 	O 	0.4061	0.9075	0.4005	-0.306
Mof_O 	O 	0.323	0.6946	0.3627	-0.258
Mof_O 	O 	0.7872	0.8381	0.4835	-0.287
Mof_O 	O 	0.725	0.7257	0.3171	-0.398
Mof_O 	O 	0.2366	0.983	0.6489	-0.103
Mof_O 	O 	0.3076	0.8429	0.6	-0.181
Mof_C 	C 	0.1185	0.4944	0.4978	-8.253
Mof_C 	C 	0.0242	0.4424	0.4094	36.807
Mof_C 	C 	0.0925	0.5527	0.5904	-14.572
Mof_H 	H 	0.1552	0.5891	0.6536	4.8
Mof_C 	C 	0.2476	0.4904	0.4979	3.843
Mof_O 	O 	0.2654	0.4336	0.4113	-0.902
Mof_O 	O 	0.3255	0.547	0.5842	-1.151
Mof_C 	C 	0.0801	0.1334	0.0283	0.886
Mof_C 	C 	0.0658	0.0566	0.1	-4.103
Mof_C 	C 	0.0132	0.0737	0.9263	1.563
Mof_H 	H 	0.0219	0.1235	0.8743	-0.487
Mof_C 	C 	0.1609	0.2762	0.0559	-0.073
Mof_O 	O 	0.223	0.3305	0.1494	-0.271
Mof_O 	O 	0.1638	0.3365	0.9885	-0.198
Mof_N 	N 	0.121	0.1138	0.2147	-5.319
Mof_O 	O 	0.229	0.131	0.238	0.544
Mof_O 	O 	0.052	0.137	0.273	2.139
Mof_N 	N 	0.0319	0.3739	0.3046	46.975
Mof_O 	O 	0.0041	0.2594	0.2926	-8.913
Mof_O 	O 	0.0561	0.4323	0.2361	-9.244
Mof_H 	H 	0.041	0.401	0.345	-51.981
Mof_H 	H 	0.1124	0.0966	0.1708	5.851
Mof_O 	O 	0.225	0.172	0.318	0.068
_end
