data_functionalizedCrystal
_audit_creation_method	'EQeq! by Chris Wilmer'
_symmetry_space_group_name_H-M	'P1'
_symmetry_Int_Tables_number	1
_symmetry_cell_setting	triclinic
loop_
_symmetry_equiv_pos_as_xyz
  x,y,z
_cell_length_a	7.152
_cell_length_b	18.283
_cell_length_c	19.947
_cell_angle_alpha	90
_cell_angle_beta	90.395
_cell_angle_gamma	90
loop_
_atom_site_label
_atom_site_type_symbol
_atom_site_fract_x
_atom_site_fract_y
_atom_site_fract_z
_atom_site_charge
Mof_Cd	Cd	0.52822	0.26454	0.35267	0.436
Mof_Cd	Cd	0.04045	0.23978	0.32701	0.446
Mof_O 	O 	0.7154	0.2003	0.2807	-0.276
Mof_O 	O 	0.9665	0.1326	0.2681	-0.276
Mof_O 	O 	0.8983	0.8761	0.1853	-0.262
Mof_O 	O 	0.6268	0.8387	0.1447	-0.272
Mof_O 	O 	0.9004	0.1801	0.414	-0.265
Mof_O 	O 	0.1852	0.0439	0.1894	-0.438
Mof_H 	H 	0.1411	0.0719	0.2172	0.283
Mof_O 	O 	0.6471	0.2353	0.4533	-0.266
Mof_O 	O 	0.5458	0.206	0.7073	-0.268
Mof_O 	O 	0.7975	0.2317	0.7655	-0.302
Mof_O 	O 	0.3258	0.1553	0.6082	-0.445
Mof_H 	H 	0.3712	0.1756	0.6411	0.293
Mof_C 	C 	0.7922	0.1413	0.2635	0.278
Mof_C 	C 	0.6742	0.0802	0.2361	0.045
Mof_C 	C 	0.7534	0.0127	0.2206	-0.093
Mof_H 	H 	0.8803	0.0046	0.2279	0.102
Mof_C 	C 	0.4825	0.092	0.2258	-0.225
Mof_H 	H 	0.4297	0.1373	0.2353	0.13
Mof_C 	C 	0.6404	0.9575	0.1942	0.05
Mof_C 	C 	0.4509	0.9685	0.1848	-0.21
Mof_H 	H 	0.3764	0.9312	0.1676	0.14
Mof_C 	C 	0.3724	0.0355	0.2013	0.311
Mof_C 	C 	0.7264	0.8861	0.1741	0.269
Mof_C 	C 	0.803	0.2041	0.4613	0.276
Mof_C 	C 	0.8773	0.1943	0.5313	0.052
Mof_C 	C 	0.7635	0.2058	0.5866	-0.096
Mof_H 	H 	0.6375	0.2168	0.5807	0.099
Mof_C 	C 	0.8397	0.2004	0.6507	0.049
Mof_C 	C 	0.0298	0.1845	0.6597	-0.229
Mof_H 	H 	0.0818	0.1824	0.7026	0.143
Mof_C 	C 	0.1397	0.1716	0.6037	0.319
Mof_C 	C 	0.064	0.1758	0.5399	-0.219
Mof_H 	H 	0.1381	0.1662	0.5028	0.141
Mof_C 	C 	0.7195	0.2128	0.7111	0.276
Mof_Cd	Cd	0.97178	0.76454	0.14733	0.436
Mof_Cd	Cd	0.45955	0.73978	0.17299	0.449
Mof_O 	O 	0.7846	0.7003	0.2193	-0.276
Mof_O 	O 	0.5335	0.6326	0.2319	-0.276
Mof_O 	O 	0.6017	0.3761	0.3147	-0.261
Mof_O 	O 	0.8732	0.3387	0.3553	-0.27
Mof_O 	O 	0.5996	0.6801	0.086	-0.265
Mof_O 	O 	0.3148	0.5439	0.3106	-0.438
Mof_H 	H 	0.3589	0.5719	0.2828	0.284
Mof_O 	O 	0.8529	0.7353	0.0467	-0.266
Mof_O 	O 	0.9542	0.706	0.7927	-0.269
Mof_O 	O 	0.7025	0.7317	0.7345	-0.303
Mof_O 	O 	0.1742	0.6553	0.8918	-0.444
Mof_H 	H 	0.1288	0.6756	0.8589	0.293
Mof_C 	C 	0.7078	0.6413	0.2365	0.278
Mof_C 	C 	0.8258	0.5802	0.2639	0.045
Mof_C 	C 	0.7466	0.5127	0.2794	-0.094
Mof_H 	H 	0.6197	0.5046	0.2721	0.102
Mof_C 	C 	0.0175	0.592	0.2742	-0.226
Mof_H 	H 	0.0703	0.6373	0.2647	0.13
Mof_C 	C 	0.8596	0.4575	0.3058	0.051
Mof_C 	C 	0.0491	0.4685	0.3152	-0.212
Mof_H 	H 	0.1236	0.4312	0.3324	0.141
Mof_C 	C 	0.1276	0.5355	0.2987	0.312
Mof_C 	C 	0.7736	0.3861	0.3259	0.269
Mof_C 	C 	0.697	0.7041	0.0387	0.277
Mof_C 	C 	0.6227	0.6943	0.9687	0.049
Mof_C 	C 	0.7365	0.7058	0.9134	-0.094
Mof_H 	H 	0.8625	0.7168	0.9193	0.098
Mof_C 	C 	0.6603	0.7004	0.8493	0.047
Mof_C 	C 	0.4702	0.6845	0.8403	-0.227
Mof_H 	H 	0.4182	0.6824	0.7974	0.142
Mof_C 	C 	0.3603	0.6716	0.8963	0.318
Mof_C 	C 	0.436	0.6758	0.9601	-0.216
Mof_H 	H 	0.3619	0.6662	0.9972	0.14
Mof_C 	C 	0.7805	0.7128	0.7889	0.277
Mof_Cd	Cd	0.47178	0.73546	0.64733	0.437
Mof_Cd	Cd	0.95955	0.76022	0.67299	0.447
Mof_O 	O 	0.2846	0.7997	0.7193	-0.275
Mof_O 	O 	0.0335	0.8674	0.7319	-0.275
Mof_O 	O 	0.1017	0.1239	0.8147	-0.261
Mof_O 	O 	0.3732	0.1613	0.8553	-0.271
Mof_O 	O 	0.0996	0.8199	0.586	-0.265
Mof_O 	O 	0.8148	0.9561	0.8106	-0.438
Mof_H 	H 	0.8589	0.9281	0.7828	0.283
Mof_O 	O 	0.3529	0.7647	0.5467	-0.266
Mof_O 	O 	0.4542	0.794	0.2927	-0.268
Mof_O 	O 	0.2025	0.7683	0.2345	-0.302
Mof_O 	O 	0.6742	0.8447	0.3918	-0.445
Mof_H 	H 	0.6288	0.8244	0.3589	0.293
Mof_C 	C 	0.2078	0.8587	0.7365	0.278
Mof_C 	C 	0.3258	0.9198	0.7639	0.045
Mof_C 	C 	0.2466	0.9873	0.7794	-0.093
Mof_H 	H 	0.1197	0.9954	0.7721	0.102
Mof_C 	C 	0.5175	0.908	0.7742	-0.225
Mof_H 	H 	0.5703	0.8627	0.7647	0.13
Mof_C 	C 	0.3596	0.0425	0.8058	0.05
Mof_C 	C 	0.5491	0.0315	0.8152	-0.21
Mof_H 	H 	0.6236	0.0688	0.8324	0.14
Mof_C 	C 	0.6276	0.9645	0.7987	0.311
Mof_C 	C 	0.2736	0.1139	0.8259	0.269
Mof_C 	C 	0.197	0.7959	0.5387	0.276
Mof_C 	C 	0.1227	0.8057	0.4687	0.052
Mof_C 	C 	0.2365	0.7942	0.4134	-0.096
Mof_H 	H 	0.3625	0.7832	0.4193	0.099
Mof_C 	C 	0.1603	0.7996	0.3493	0.049
Mof_C 	C 	0.9702	0.8155	0.3403	-0.229
Mof_H 	H 	0.9182	0.8176	0.2974	0.143
Mof_C 	C 	0.8603	0.8284	0.3963	0.319
Mof_C 	C 	0.936	0.8242	0.4601	-0.219
Mof_H 	H 	0.8619	0.8338	0.4972	0.141
Mof_C 	C 	0.2805	0.7872	0.2889	0.276
Mof_Cd	Cd	0.02822	0.23546	0.85267	0.436
Mof_Cd	Cd	0.54045	0.26022	0.82701	0.449
Mof_O 	O 	0.2154	0.2997	0.7807	-0.276
Mof_O 	O 	0.4665	0.3674	0.7681	-0.276
Mof_O 	O 	0.3983	0.6239	0.6853	-0.261
Mof_O 	O 	0.1268	0.6613	0.6447	-0.27
Mof_O 	O 	0.4004	0.3199	0.914	-0.265
Mof_O 	O 	0.6852	0.4561	0.6894	-0.438
Mof_H 	H 	0.6411	0.4281	0.7172	0.284
Mof_O 	O 	0.1471	0.2647	0.9533	-0.266
Mof_O 	O 	0.0458	0.294	0.2073	-0.269
Mof_O 	O 	0.2975	0.2683	0.2655	-0.303
Mof_O 	O 	0.8258	0.3447	0.1082	-0.444
Mof_H 	H 	0.8712	0.3244	0.1411	0.293
Mof_C 	C 	0.2922	0.3587	0.7635	0.278
Mof_C 	C 	0.1742	0.4198	0.7361	0.045
Mof_C 	C 	0.2534	0.4873	0.7206	-0.094
Mof_H 	H 	0.3803	0.4954	0.7279	0.102
Mof_C 	C 	0.9825	0.408	0.7258	-0.226
Mof_H 	H 	0.9297	0.3627	0.7353	0.13
Mof_C 	C 	0.1404	0.5425	0.6942	0.051
Mof_C 	C 	0.9509	0.5315	0.6848	-0.212
Mof_H 	H 	0.8764	0.5688	0.6676	0.141
Mof_C 	C 	0.8724	0.4645	0.7013	0.312
Mof_C 	C 	0.2264	0.6139	0.6741	0.269
Mof_C 	C 	0.303	0.2959	0.9613	0.277
Mof_C 	C 	0.3773	0.3057	0.0313	0.049
Mof_C 	C 	0.2635	0.2942	0.0866	-0.094
Mof_H 	H 	0.1375	0.2832	0.0807	0.098
Mof_C 	C 	0.3397	0.2996	0.1507	0.047
Mof_C 	C 	0.5298	0.3155	0.1597	-0.227
Mof_H 	H 	0.5818	0.3176	0.2026	0.142
Mof_C 	C 	0.6397	0.3284	0.1037	0.318
Mof_C 	C 	0.564	0.3242	0.0399	-0.216
Mof_H 	H 	0.6381	0.3338	0.0028	0.14
Mof_C 	C 	0.2195	0.2872	0.2111	0.277
_end
