data_functionalizedCrystal
_audit_creation_method	'EQeq! by Chris Wilmer'
_symmetry_space_group_name_H-M	'P1'
_symmetry_Int_Tables_number	1
_symmetry_cell_setting	triclinic
loop_
_symmetry_equiv_pos_as_xyz
  x,y,z
_cell_length_a	18.3855
_cell_length_b	18.3855
_cell_length_c	52.2463
_cell_angle_alpha	90
_cell_angle_beta	90
_cell_angle_gamma	120
loop_
_atom_site_label
_atom_site_type_symbol
_atom_site_fract_x
_atom_site_fract_y
_atom_site_fract_z
_atom_site_charge
Mof_O 	O 	0.7741	0.9604	0.33277	-0.59
Mof_O 	O 	0.7025	0.9181	0.30111	-0.578
Mof_C 	C 	0.7556	0.9612	0.31319	0.735
Mof_C 	C 	0.8114	0.0452	0.29941	-0.183
Mof_C 	C 	0.8	0.068	0.27448	0.049
Mof_H 	H 	0.7505	0.0315	0.266	0.039
Mof_C 	C 	0.7599	0.1271	0.2268	-0.005
Mof_C 	C 	0.915	0.1967	0.2184	-0.004
Mof_C 	C 	0.7609	0.1292	0.1975	0.001
Mof_C 	C 	0.9122	0.1963	0.1904	0
Mof_O 	O 	0.44077	0.29373	0.6661	-0.59
Mof_O 	O 	0.36917	0.25143	0.63444	-0.578
Mof_C 	C 	0.42227	0.29453	0.64652	0.736
Mof_C 	C 	0.47807	0.37853	0.63274	-0.185
Mof_C 	C 	0.46667	0.40133	0.60781	0.05
Mof_H 	H 	0.41717	0.36483	0.59933	0.039
Mof_C 	C 	0.42657	0.46043	0.56013	-0.005
Mof_C 	C 	0.58167	0.53003	0.55173	-0.004
Mof_C 	C 	0.42757	0.46253	0.53083	0.001
Mof_C 	C 	0.57887	0.52963	0.52373	0
Mof_O 	O 	0.10743	0.62707	0.99944	-0.59
Mof_O 	O 	0.03583	0.58477	0.96778	-0.578
Mof_C 	C 	0.08893	0.62787	0.97986	0.736
Mof_C 	C 	0.14473	0.71187	0.96608	-0.185
Mof_C 	C 	0.13333	0.73467	0.94115	0.051
Mof_H 	H 	0.08383	0.69817	0.93267	0.04
Mof_C 	C 	0.09323	0.79377	0.89347	-0.004
Mof_C 	C 	0.24833	0.86337	0.88507	-0.003
Mof_C 	C 	0.09423	0.79587	0.86417	0.002
Mof_C 	C 	0.24553	0.86297	0.85707	0.001
Mof_O 	O 	0.0396	0.8137	0.33277	-0.589
Mof_O 	O 	0.0819	0.7844	0.30111	-0.577
Mof_C 	C 	0.0388	0.7944	0.31319	0.736
Mof_C 	C 	0.9548	0.7662	0.29941	-0.183
Mof_C 	C 	0.932	0.732	0.27448	0.05
Mof_H 	H 	0.9685	0.719	0.266	0.04
Mof_C 	C 	0.8729	0.6328	0.2268	-0.004
Mof_C 	C 	0.8033	0.7183	0.2184	-0.004
Mof_C 	C 	0.8708	0.6317	0.1975	0.002
Mof_C 	C 	0.8037	0.7159	0.1904	0.001
Mof_O 	O 	0.70627	0.14703	0.6661	-0.589
Mof_O 	O 	0.74857	0.11773	0.63444	-0.577
Mof_C 	C 	0.70547	0.12773	0.64652	0.737
Mof_C 	C 	0.62147	0.09953	0.63274	-0.184
Mof_C 	C 	0.59867	0.06533	0.60781	0.051
Mof_H 	H 	0.63517	0.05233	0.59933	0.04
Mof_C 	C 	0.53957	0.96613	0.56013	-0.003
Mof_C 	C 	0.46997	0.05163	0.55173	-0.004
Mof_C 	C 	0.53747	0.96503	0.53083	0.002
Mof_C 	C 	0.47037	0.04923	0.52373	0.001
Mof_O 	O 	0.37293	0.48037	0.99944	-0.589
Mof_O 	O 	0.41523	0.45107	0.96778	-0.577
Mof_C 	C 	0.37213	0.46107	0.97986	0.737
Mof_C 	C 	0.28813	0.43287	0.96608	-0.184
Mof_C 	C 	0.26533	0.39867	0.94115	0.051
Mof_H 	H 	0.30183	0.38567	0.93267	0.04
Mof_C 	C 	0.20623	0.29947	0.89347	-0.004
Mof_C 	C 	0.13663	0.38497	0.88507	-0.003
Mof_C 	C 	0.20413	0.29837	0.86417	0.002
Mof_C 	C 	0.13703	0.38257	0.85707	0.001
Mof_O 	O 	0.1863	0.2259	0.33277	-0.589
Mof_O 	O 	0.2156	0.2975	0.30111	-0.577
Mof_C 	C 	0.2056	0.2444	0.31319	0.737
Mof_C 	C 	0.2338	0.1886	0.29941	-0.184
Mof_C 	C 	0.268	0.2	0.27448	0.051
Mof_H 	H 	0.281	0.2495	0.266	0.04
Mof_C 	C 	0.3672	0.2401	0.2268	-0.004
Mof_C 	C 	0.2817	0.085	0.2184	-0.003
Mof_C 	C 	0.3683	0.2391	0.1975	0.002
Mof_C 	C 	0.2841	0.0878	0.1904	0.001
Mof_O 	O 	0.85297	0.55923	0.6661	-0.589
Mof_O 	O 	0.88227	0.63083	0.63444	-0.577
Mof_C 	C 	0.87227	0.57773	0.64652	0.737
Mof_C 	C 	0.90047	0.52193	0.63274	-0.184
Mof_C 	C 	0.93467	0.53333	0.60781	0.051
Mof_H 	H 	0.94767	0.58283	0.59933	0.04
Mof_C 	C 	0.03387	0.57343	0.56013	-0.003
Mof_C 	C 	0.94837	0.41833	0.55173	-0.004
Mof_C 	C 	0.03497	0.57243	0.53083	0.002
Mof_C 	C 	0.95077	0.42113	0.52373	0.001
Mof_O 	O 	0.51963	0.89257	0.99944	-0.589
Mof_O 	O 	0.54893	0.96417	0.96778	-0.577
Mof_C 	C 	0.53893	0.91107	0.97986	0.737
Mof_C 	C 	0.56713	0.85527	0.96608	-0.184
Mof_C 	C 	0.60133	0.86667	0.94115	0.051
Mof_H 	H 	0.61433	0.91617	0.93267	0.04
Mof_C 	C 	0.70053	0.90677	0.89347	-0.004
Mof_C 	C 	0.61503	0.75167	0.88507	-0.003
Mof_C 	C 	0.70163	0.90577	0.86417	0.002
Mof_C 	C 	0.61743	0.75447	0.85707	0.001
Mof_O 	O 	0.9604	0.7741	0.66723	-0.589
Mof_O 	O 	0.9181	0.7025	0.69889	-0.577
Mof_C 	C 	0.9612	0.7556	0.68681	0.736
Mof_C 	C 	0.0452	0.8114	0.70059	-0.182
Mof_C 	C 	0.068	0.8	0.72552	0.05
Mof_H 	H 	0.0315	0.7505	0.734	0.04
Mof_C 	C 	0.1271	0.7599	0.7732	-0.004
Mof_C 	C 	0.1967	0.915	0.7816	-0.003
Mof_C 	C 	0.1292	0.7609	0.8025	0.002
Mof_C 	C 	0.1963	0.9122	0.8096	0.001
Mof_O 	O 	0.62707	0.10743	0.00056	-0.589
Mof_O 	O 	0.58477	0.03583	0.03222	-0.577
Mof_C 	C 	0.62787	0.08893	0.02014	0.737
Mof_C 	C 	0.71187	0.14473	0.03392	-0.184
Mof_C 	C 	0.73467	0.13333	0.05885	0.051
Mof_H 	H 	0.69817	0.08383	0.06733	0.04
Mof_C 	C 	0.79377	0.09323	0.10653	-0.004
Mof_C 	C 	0.86337	0.24833	0.11493	-0.003
Mof_C 	C 	0.79587	0.09423	0.13583	0.002
Mof_C 	C 	0.86297	0.24553	0.14293	0.001
Mof_O 	O 	0.29373	0.44077	0.3339	-0.589
Mof_O 	O 	0.25143	0.36917	0.36556	-0.577
Mof_C 	C 	0.29453	0.42227	0.35348	0.737
Mof_C 	C 	0.37853	0.47807	0.36726	-0.184
Mof_C 	C 	0.40133	0.46667	0.39219	0.051
Mof_H 	H 	0.36483	0.41717	0.40067	0.04
Mof_C 	C 	0.46043	0.42657	0.43987	-0.004
Mof_C 	C 	0.53003	0.58167	0.44827	-0.003
Mof_C 	C 	0.46253	0.42757	0.46917	0.002
Mof_C 	C 	0.52963	0.57887	0.47627	0.001
Mof_O 	O 	0.8137	0.0396	0.66723	-0.589
Mof_O 	O 	0.7844	0.0819	0.69889	-0.577
Mof_C 	C 	0.7944	0.0388	0.68681	0.736
Mof_C 	C 	0.7662	0.9548	0.70059	-0.183
Mof_C 	C 	0.732	0.932	0.72552	0.05
Mof_H 	H 	0.719	0.9685	0.734	0.04
Mof_C 	C 	0.6328	0.8729	0.7732	-0.004
Mof_C 	C 	0.7183	0.8033	0.7816	-0.004
Mof_C 	C 	0.6317	0.8708	0.8025	0.002
Mof_C 	C 	0.7159	0.8037	0.8096	0.001
Mof_O 	O 	0.48037	0.37293	0.00056	-0.589
Mof_O 	O 	0.45107	0.41523	0.03222	-0.577
Mof_C 	C 	0.46107	0.37213	0.02014	0.737
Mof_C 	C 	0.43287	0.28813	0.03392	-0.184
Mof_C 	C 	0.39867	0.26533	0.05885	0.051
Mof_H 	H 	0.38567	0.30183	0.06733	0.04
Mof_C 	C 	0.29947	0.20623	0.10653	-0.004
Mof_C 	C 	0.38497	0.13663	0.11493	-0.003
Mof_C 	C 	0.29837	0.20413	0.13583	0.002
Mof_C 	C 	0.38257	0.13703	0.14293	0.001
Mof_O 	O 	0.14703	0.70627	0.3339	-0.589
Mof_O 	O 	0.11773	0.74857	0.36556	-0.577
Mof_C 	C 	0.12773	0.70547	0.35348	0.737
Mof_C 	C 	0.09953	0.62147	0.36726	-0.184
Mof_C 	C 	0.06533	0.59867	0.39219	0.051
Mof_H 	H 	0.05233	0.63517	0.40067	0.04
Mof_C 	C 	0.96613	0.53957	0.43987	-0.003
Mof_C 	C 	0.05163	0.46997	0.44827	-0.004
Mof_C 	C 	0.96503	0.53747	0.46917	0.002
Mof_C 	C 	0.04923	0.47037	0.47627	0.001
Mof_O 	O 	0.2259	0.1863	0.66723	-0.589
Mof_O 	O 	0.2975	0.2156	0.69889	-0.577
Mof_C 	C 	0.2444	0.2056	0.68681	0.737
Mof_C 	C 	0.1886	0.2338	0.70059	-0.184
Mof_C 	C 	0.2	0.268	0.72552	0.051
Mof_H 	H 	0.2495	0.281	0.734	0.04
Mof_C 	C 	0.2401	0.3672	0.7732	-0.004
Mof_C 	C 	0.085	0.2817	0.7816	-0.003
Mof_C 	C 	0.2391	0.3683	0.8025	0.002
Mof_C 	C 	0.0878	0.2841	0.8096	0.001
Mof_O 	O 	0.89257	0.51963	0.00056	-0.589
Mof_O 	O 	0.96417	0.54893	0.03222	-0.577
Mof_C 	C 	0.91107	0.53893	0.02014	0.737
Mof_C 	C 	0.85527	0.56713	0.03392	-0.184
Mof_C 	C 	0.86667	0.60133	0.05885	0.051
Mof_H 	H 	0.91617	0.61433	0.06733	0.04
Mof_C 	C 	0.90677	0.70053	0.10653	-0.004
Mof_C 	C 	0.75167	0.61503	0.11493	-0.003
Mof_C 	C 	0.90577	0.70163	0.13583	0.002
Mof_C 	C 	0.75447	0.61743	0.14293	0.001
Mof_O 	O 	0.55923	0.85297	0.3339	-0.589
Mof_O 	O 	0.63083	0.88227	0.36556	-0.577
Mof_C 	C 	0.57773	0.87227	0.35348	0.737
Mof_C 	C 	0.52193	0.90047	0.36726	-0.184
Mof_C 	C 	0.53333	0.93467	0.39219	0.051
Mof_H 	H 	0.58283	0.94767	0.40067	0.04
Mof_C 	C 	0.57343	0.03387	0.43987	-0.003
Mof_C 	C 	0.41833	0.94837	0.44827	-0.004
Mof_C 	C 	0.57243	0.03497	0.46917	0.002
Mof_C 	C 	0.42113	0.95077	0.47627	0.001
Mof_O 	O 	0.2259	0.0396	0.66723	-0.589
Mof_O 	O 	0.2975	0.0819	0.69889	-0.577
Mof_C 	C 	0.2444	0.0388	0.68681	0.736
Mof_C 	C 	0.1886	0.9548	0.70059	-0.182
Mof_C 	C 	0.2	0.932	0.72552	0.05
Mof_H 	H 	0.2495	0.9685	0.734	0.04
Mof_C 	C 	0.2401	0.8729	0.7732	-0.004
Mof_C 	C 	0.085	0.8033	0.7816	-0.003
Mof_C 	C 	0.2391	0.8708	0.8025	0.002
Mof_C 	C 	0.0878	0.8037	0.8096	0.001
Mof_O 	O 	0.89257	0.37293	0.00056	-0.589
Mof_O 	O 	0.96417	0.41523	0.03222	-0.577
Mof_C 	C 	0.91107	0.37213	0.02014	0.737
Mof_C 	C 	0.85527	0.28813	0.03392	-0.184
Mof_C 	C 	0.86667	0.26533	0.05885	0.051
Mof_H 	H 	0.91617	0.30183	0.06733	0.04
Mof_C 	C 	0.90677	0.20623	0.10653	-0.004
Mof_C 	C 	0.75167	0.13663	0.11493	-0.003
Mof_C 	C 	0.90577	0.20413	0.13583	0.002
Mof_C 	C 	0.75447	0.13703	0.14293	0.001
Mof_O 	O 	0.55923	0.70627	0.3339	-0.589
Mof_O 	O 	0.63083	0.74857	0.36556	-0.577
Mof_C 	C 	0.57773	0.70547	0.35348	0.737
Mof_C 	C 	0.52193	0.62147	0.36726	-0.184
Mof_C 	C 	0.53333	0.59867	0.39219	0.051
Mof_H 	H 	0.58283	0.63517	0.40067	0.04
Mof_C 	C 	0.57343	0.53957	0.43987	-0.004
Mof_C 	C 	0.41833	0.46997	0.44827	-0.003
Mof_C 	C 	0.57243	0.53747	0.46917	0.002
Mof_C 	C 	0.42113	0.47037	0.47627	0.001
Mof_O 	O 	0.9604	0.1863	0.66723	-0.589
Mof_O 	O 	0.9181	0.2156	0.69889	-0.577
Mof_C 	C 	0.9612	0.2056	0.68681	0.736
Mof_C 	C 	0.0452	0.2338	0.70059	-0.183
Mof_C 	C 	0.068	0.268	0.72552	0.05
Mof_H 	H 	0.0315	0.281	0.734	0.04
Mof_C 	C 	0.1271	0.3672	0.7732	-0.004
Mof_C 	C 	0.1967	0.2817	0.7816	-0.004
Mof_C 	C 	0.1292	0.3683	0.8025	0.002
Mof_C 	C 	0.1963	0.2841	0.8096	0.001
Mof_O 	O 	0.62707	0.51963	0.00056	-0.589
Mof_O 	O 	0.58477	0.54893	0.03222	-0.577
Mof_C 	C 	0.62787	0.53893	0.02014	0.737
Mof_C 	C 	0.71187	0.56713	0.03392	-0.184
Mof_C 	C 	0.73467	0.60133	0.05885	0.051
Mof_H 	H 	0.69817	0.61433	0.06733	0.04
Mof_C 	C 	0.79377	0.70053	0.10653	-0.004
Mof_C 	C 	0.86337	0.61503	0.11493	-0.003
Mof_C 	C 	0.79587	0.70163	0.13583	0.002
Mof_C 	C 	0.86297	0.61743	0.14293	0.001
Mof_O 	O 	0.29373	0.85297	0.3339	-0.589
Mof_O 	O 	0.25143	0.88227	0.36556	-0.577
Mof_C 	C 	0.29453	0.87227	0.35348	0.737
Mof_C 	C 	0.37853	0.90047	0.36726	-0.184
Mof_C 	C 	0.40133	0.93467	0.39219	0.051
Mof_H 	H 	0.36483	0.94767	0.40067	0.04
Mof_C 	C 	0.46043	0.03387	0.43987	-0.003
Mof_C 	C 	0.53003	0.94837	0.44827	-0.004
Mof_C 	C 	0.46253	0.03497	0.46917	0.002
Mof_C 	C 	0.52963	0.95077	0.47627	0.001
Mof_O 	O 	0.8137	0.7741	0.66723	-0.589
Mof_O 	O 	0.7844	0.7025	0.69889	-0.577
Mof_C 	C 	0.7944	0.7556	0.68681	0.737
Mof_C 	C 	0.7662	0.8114	0.70059	-0.184
Mof_C 	C 	0.732	0.8	0.72552	0.051
Mof_H 	H 	0.719	0.7505	0.734	0.04
Mof_C 	C 	0.6328	0.7599	0.7732	-0.004
Mof_C 	C 	0.7183	0.915	0.7816	-0.003
Mof_C 	C 	0.6317	0.7609	0.8025	0.002
Mof_C 	C 	0.7159	0.9122	0.8096	0.001
Mof_O 	O 	0.48037	0.10743	0.00056	-0.589
Mof_O 	O 	0.45107	0.03583	0.03222	-0.577
Mof_C 	C 	0.46107	0.08893	0.02014	0.737
Mof_C 	C 	0.43287	0.14473	0.03392	-0.184
Mof_C 	C 	0.39867	0.13333	0.05885	0.051
Mof_H 	H 	0.38567	0.08383	0.06733	0.04
Mof_C 	C 	0.29947	0.09323	0.10653	-0.004
Mof_C 	C 	0.38497	0.24833	0.11493	-0.003
Mof_C 	C 	0.29837	0.09423	0.13583	0.002
Mof_C 	C 	0.38257	0.24553	0.14293	0.001
Mof_O 	O 	0.14703	0.44077	0.3339	-0.589
Mof_O 	O 	0.11773	0.36917	0.36556	-0.577
Mof_C 	C 	0.12773	0.42227	0.35348	0.737
Mof_C 	C 	0.09953	0.47807	0.36726	-0.184
Mof_C 	C 	0.06533	0.46667	0.39219	0.051
Mof_H 	H 	0.05233	0.41717	0.40067	0.04
Mof_C 	C 	0.96613	0.42657	0.43987	-0.003
Mof_C 	C 	0.05163	0.58167	0.44827	-0.004
Mof_C 	C 	0.96503	0.42757	0.46917	0.002
Mof_C 	C 	0.04923	0.57887	0.47627	0.001
Mof_O 	O 	0.0396	0.2259	0.33277	-0.589
Mof_O 	O 	0.0819	0.2975	0.30111	-0.577
Mof_C 	C 	0.0388	0.2444	0.31319	0.736
Mof_C 	C 	0.9548	0.1886	0.29941	-0.182
Mof_C 	C 	0.932	0.2	0.27448	0.05
Mof_H 	H 	0.9685	0.2495	0.266	0.04
Mof_C 	C 	0.8729	0.2401	0.2268	-0.004
Mof_C 	C 	0.8033	0.085	0.2184	-0.003
Mof_C 	C 	0.8708	0.2391	0.1975	0.002
Mof_C 	C 	0.8037	0.0878	0.1904	0.001
Mof_O 	O 	0.70627	0.55923	0.6661	-0.589
Mof_O 	O 	0.74857	0.63083	0.63444	-0.577
Mof_C 	C 	0.70547	0.57773	0.64652	0.737
Mof_C 	C 	0.62147	0.52193	0.63274	-0.184
Mof_C 	C 	0.59867	0.53333	0.60781	0.051
Mof_H 	H 	0.63517	0.58283	0.59933	0.04
Mof_C 	C 	0.53957	0.57343	0.56013	-0.004
Mof_C 	C 	0.46997	0.41833	0.55173	-0.003
Mof_C 	C 	0.53747	0.57243	0.53083	0.002
Mof_C 	C 	0.47037	0.42113	0.52373	0.001
Mof_O 	O 	0.37293	0.89257	0.99944	-0.589
Mof_O 	O 	0.41523	0.96417	0.96778	-0.577
Mof_C 	C 	0.37213	0.91107	0.97986	0.737
Mof_C 	C 	0.28813	0.85527	0.96608	-0.184
Mof_C 	C 	0.26533	0.86667	0.94115	0.051
Mof_H 	H 	0.30183	0.91617	0.93267	0.04
Mof_C 	C 	0.20623	0.90677	0.89347	-0.004
Mof_C 	C 	0.13663	0.75167	0.88507	-0.003
Mof_C 	C 	0.20413	0.90577	0.86417	0.002
Mof_C 	C 	0.13703	0.75447	0.85707	0.001
Mof_O 	O 	0.1863	0.9604	0.33277	-0.589
Mof_O 	O 	0.2156	0.9181	0.30111	-0.577
Mof_C 	C 	0.2056	0.9612	0.31319	0.736
Mof_C 	C 	0.2338	0.0452	0.29941	-0.183
Mof_C 	C 	0.268	0.068	0.27448	0.05
Mof_H 	H 	0.281	0.0315	0.266	0.04
Mof_C 	C 	0.3672	0.1271	0.2268	-0.004
Mof_C 	C 	0.2817	0.1967	0.2184	-0.004
Mof_C 	C 	0.3683	0.1292	0.1975	0.002
Mof_C 	C 	0.2841	0.1963	0.1904	0.001
Mof_O 	O 	0.85297	0.29373	0.6661	-0.589
Mof_O 	O 	0.88227	0.25143	0.63444	-0.577
Mof_C 	C 	0.87227	0.29453	0.64652	0.737
Mof_C 	C 	0.90047	0.37853	0.63274	-0.184
Mof_C 	C 	0.93467	0.40133	0.60781	0.051
Mof_H 	H 	0.94767	0.36483	0.59933	0.04
Mof_C 	C 	0.03387	0.46043	0.56013	-0.003
Mof_C 	C 	0.94837	0.53003	0.55173	-0.004
Mof_C 	C 	0.03497	0.46253	0.53083	0.002
Mof_C 	C 	0.95077	0.52963	0.52373	0.001
Mof_O 	O 	0.51963	0.62707	0.99944	-0.589
Mof_O 	O 	0.54893	0.58477	0.96778	-0.577
Mof_C 	C 	0.53893	0.62787	0.97986	0.737
Mof_C 	C 	0.56713	0.71187	0.96608	-0.184
Mof_C 	C 	0.60133	0.73467	0.94115	0.051
Mof_H 	H 	0.61433	0.69817	0.93267	0.04
Mof_C 	C 	0.70053	0.79377	0.89347	-0.004
Mof_C 	C 	0.61503	0.86337	0.88507	-0.003
Mof_C 	C 	0.70163	0.79587	0.86417	0.002
Mof_C 	C 	0.61743	0.86297	0.85707	0.001
Mof_O 	O 	0.7741	0.8137	0.33277	-0.589
Mof_O 	O 	0.7025	0.7844	0.30111	-0.577
Mof_C 	C 	0.7556	0.7944	0.31319	0.737
Mof_C 	C 	0.8114	0.7662	0.29941	-0.184
Mof_C 	C 	0.8	0.732	0.27448	0.051
Mof_H 	H 	0.7505	0.719	0.266	0.04
Mof_C 	C 	0.7599	0.6328	0.2268	-0.004
Mof_C 	C 	0.915	0.7183	0.2184	-0.003
Mof_C 	C 	0.7609	0.6317	0.1975	0.002
Mof_C 	C 	0.9122	0.7159	0.1904	0.001
Mof_O 	O 	0.44077	0.14703	0.6661	-0.589
Mof_O 	O 	0.36917	0.11773	0.63444	-0.577
Mof_C 	C 	0.42227	0.12773	0.64652	0.737
Mof_C 	C 	0.47807	0.09953	0.63274	-0.184
Mof_C 	C 	0.46667	0.06533	0.60781	0.051
Mof_H 	H 	0.41717	0.05233	0.59933	0.04
Mof_C 	C 	0.42657	0.96613	0.56013	-0.003
Mof_C 	C 	0.58167	0.05163	0.55173	-0.004
Mof_C 	C 	0.42757	0.96503	0.53083	0.002
Mof_C 	C 	0.57887	0.04923	0.52373	0.001
Mof_O 	O 	0.10743	0.48037	0.99944	-0.589
Mof_O 	O 	0.03583	0.45107	0.96778	-0.577
Mof_C 	C 	0.08893	0.46107	0.97986	0.737
Mof_C 	C 	0.14473	0.43287	0.96608	-0.184
Mof_C 	C 	0.13333	0.39867	0.94115	0.051
Mof_H 	H 	0.08383	0.38567	0.93267	0.04
Mof_C 	C 	0.09323	0.29947	0.89347	-0.004
Mof_C 	C 	0.24833	0.38497	0.88507	-0.003
Mof_C 	C 	0.09423	0.29837	0.86417	0.002
Mof_C 	C 	0.24553	0.38257	0.85707	0.001
Mof_Cu	Cu	0.71618	0.85809	0.35385	0.943
Mof_Cu	Cu	0.38285	0.19142	0.68718	0.943
Mof_Cu	Cu	0.04951	0.52476	0.02052	0.943
Mof_Cu	Cu	0.14191	0.85809	0.35385	0.943
Mof_Cu	Cu	0.80858	0.19142	0.68718	0.943
Mof_Cu	Cu	0.47524	0.52476	0.02052	0.943
Mof_Cu	Cu	0.14191	0.28382	0.35385	0.943
Mof_Cu	Cu	0.80858	0.61715	0.68718	0.943
Mof_Cu	Cu	0.47524	0.95049	0.02052	0.943
Mof_Cu	Cu	0.85809	0.71618	0.64615	0.943
Mof_Cu	Cu	0.52476	0.04951	0.97948	0.943
Mof_Cu	Cu	0.19142	0.38285	0.31282	0.943
Mof_Cu	Cu	0.85809	0.14191	0.64615	0.943
Mof_Cu	Cu	0.52476	0.47524	0.97948	0.943
Mof_Cu	Cu	0.19142	0.80858	0.31282	0.943
Mof_Cu	Cu	0.28382	0.14191	0.64615	0.943
Mof_Cu	Cu	0.95049	0.47524	0.97948	0.943
Mof_Cu	Cu	0.61715	0.80858	0.31282	0.943
Mof_C 	C 	0.8901	0.1099	0.3122	0.097
Mof_H 	H 	0.8995	0.1005	0.3291	0.038
Mof_C 	C 	0.8581	0.1419	0.2615	-0.033
Mof_C 	C 	0.8418	0.1582	0.2342	0.01
Mof_C 	C 	0.8007	0.1993	0.1888	-0
Mof_C 	C 	0.839	0.161	0.1809	-0.002
Mof_C 	C 	0.881	0.119	0.1755	0.001
Mof_C 	C 	0.55677	0.44323	0.64553	0.098
Mof_H 	H 	0.56617	0.43383	0.66243	0.037
Mof_C 	C 	0.52477	0.47523	0.59483	-0.034
Mof_C 	C 	0.50847	0.49153	0.56753	0.011
Mof_C 	C 	0.46737	0.53263	0.52213	-0.001
Mof_C 	C 	0.50567	0.49433	0.51423	-0.001
Mof_C 	C 	0.54767	0.45233	0.50883	0.001
Mof_C 	C 	0.22343	0.77657	0.97887	0.098
Mof_H 	H 	0.23283	0.76717	0.99577	0.037
Mof_C 	C 	0.19143	0.80857	0.92817	-0.034
Mof_C 	C 	0.17513	0.82487	0.90087	0.011
Mof_C 	C 	0.13403	0.86597	0.85547	-0.001
Mof_C 	C 	0.17233	0.82767	0.84757	-0.001
Mof_C 	C 	0.21433	0.78567	0.84217	0.001
Mof_C 	C 	0.8901	0.7802	0.3122	0.097
Mof_H 	H 	0.8995	0.799	0.3291	0.038
Mof_C 	C 	0.8581	0.7162	0.2615	-0.034
Mof_C 	C 	0.8418	0.6836	0.2342	0.011
Mof_C 	C 	0.8007	0.6014	0.1888	-0.001
Mof_C 	C 	0.839	0.678	0.1809	-0.001
Mof_C 	C 	0.881	0.762	0.1755	0.001
Mof_C 	C 	0.55677	0.11353	0.64553	0.098
Mof_H 	H 	0.56617	0.13233	0.66243	0.037
Mof_C 	C 	0.52477	0.04953	0.59483	-0.034
Mof_C 	C 	0.50847	0.01693	0.56753	0.01
Mof_C 	C 	0.46737	0.93473	0.52213	-0.001
Mof_C 	C 	0.50567	0.01133	0.51423	-0.001
Mof_C 	C 	0.54767	0.09533	0.50883	0.001
Mof_C 	C 	0.22343	0.44687	0.97887	0.098
Mof_H 	H 	0.23283	0.46567	0.99577	0.037
Mof_C 	C 	0.19143	0.38287	0.92817	-0.034
Mof_C 	C 	0.17513	0.35027	0.90087	0.011
Mof_C 	C 	0.13403	0.26807	0.85547	-0.001
Mof_C 	C 	0.17233	0.34467	0.84757	-0.001
Mof_C 	C 	0.21433	0.42867	0.84217	0.001
Mof_C 	C 	0.2198	0.1099	0.3122	0.097
Mof_H 	H 	0.201	0.1005	0.3291	0.038
Mof_C 	C 	0.2838	0.1419	0.2615	-0.034
Mof_C 	C 	0.3164	0.1582	0.2342	0.011
Mof_C 	C 	0.3986	0.1993	0.1888	-0.001
Mof_C 	C 	0.322	0.161	0.1809	-0.001
Mof_C 	C 	0.238	0.119	0.1755	0.001
Mof_C 	C 	0.88647	0.44323	0.64553	0.098
Mof_H 	H 	0.86767	0.43383	0.66243	0.037
Mof_C 	C 	0.95047	0.47523	0.59483	-0.034
Mof_C 	C 	0.98307	0.49153	0.56753	0.01
Mof_C 	C 	0.06527	0.53263	0.52213	-0.001
Mof_C 	C 	0.98867	0.49433	0.51423	-0.001
Mof_C 	C 	0.90467	0.45233	0.50883	0.001
Mof_C 	C 	0.55313	0.77657	0.97887	0.098
Mof_H 	H 	0.53433	0.76717	0.99577	0.037
Mof_C 	C 	0.61713	0.80857	0.92817	-0.034
Mof_C 	C 	0.64973	0.82487	0.90087	0.011
Mof_C 	C 	0.73193	0.86597	0.85547	-0.001
Mof_C 	C 	0.65533	0.82767	0.84757	-0.001
Mof_C 	C 	0.57133	0.78567	0.84217	0.001
Mof_C 	C 	0.1099	0.8901	0.6878	0.097
Mof_H 	H 	0.1005	0.8995	0.6709	0.038
Mof_C 	C 	0.1419	0.8581	0.7385	-0.033
Mof_C 	C 	0.1582	0.8418	0.7658	0.01
Mof_C 	C 	0.1993	0.8007	0.8112	-0
Mof_C 	C 	0.161	0.839	0.8191	-0.002
Mof_C 	C 	0.119	0.881	0.8245	0.001
Mof_C 	C 	0.77657	0.22343	0.02113	0.098
Mof_H 	H 	0.76717	0.23283	0.00423	0.037
Mof_C 	C 	0.80857	0.19143	0.07183	-0.034
Mof_C 	C 	0.82487	0.17513	0.09913	0.011
Mof_C 	C 	0.86597	0.13403	0.14453	-0.001
Mof_C 	C 	0.82767	0.17233	0.15243	-0.001
Mof_C 	C 	0.78567	0.21433	0.15783	0.001
Mof_C 	C 	0.44323	0.55677	0.35447	0.098
Mof_H 	H 	0.43383	0.56617	0.33757	0.037
Mof_C 	C 	0.47523	0.52477	0.40517	-0.034
Mof_C 	C 	0.49153	0.50847	0.43247	0.011
Mof_C 	C 	0.53263	0.46737	0.47787	-0.001
Mof_C 	C 	0.49433	0.50567	0.48577	-0.001
Mof_C 	C 	0.45233	0.54767	0.49117	0.001
Mof_C 	C 	0.7802	0.8901	0.6878	0.097
Mof_H 	H 	0.799	0.8995	0.6709	0.038
Mof_C 	C 	0.7162	0.8581	0.7385	-0.034
Mof_C 	C 	0.6836	0.8418	0.7658	0.011
Mof_C 	C 	0.6014	0.8007	0.8112	-0.001
Mof_C 	C 	0.678	0.839	0.8191	-0.001
Mof_C 	C 	0.762	0.881	0.8245	0.001
Mof_C 	C 	0.44687	0.22343	0.02113	0.098
Mof_H 	H 	0.46567	0.23283	0.00423	0.037
Mof_C 	C 	0.38287	0.19143	0.07183	-0.034
Mof_C 	C 	0.35027	0.17513	0.09913	0.011
Mof_C 	C 	0.26807	0.13403	0.14453	-0.001
Mof_C 	C 	0.34467	0.17233	0.15243	-0.001
Mof_C 	C 	0.42867	0.21433	0.15783	0.001
Mof_C 	C 	0.11353	0.55677	0.35447	0.098
Mof_H 	H 	0.13233	0.56617	0.33757	0.037
Mof_C 	C 	0.04953	0.52477	0.40517	-0.034
Mof_C 	C 	0.01693	0.50847	0.43247	0.01
Mof_C 	C 	0.93473	0.46737	0.47787	-0.001
Mof_C 	C 	0.01133	0.50567	0.48577	-0.001
Mof_C 	C 	0.09533	0.54767	0.49117	0.001
Mof_C 	C 	0.1099	0.2198	0.6878	0.097
Mof_H 	H 	0.1005	0.201	0.6709	0.038
Mof_C 	C 	0.1419	0.2838	0.7385	-0.034
Mof_C 	C 	0.1582	0.3164	0.7658	0.011
Mof_C 	C 	0.1993	0.3986	0.8112	-0.001
Mof_C 	C 	0.161	0.322	0.8191	-0.001
Mof_C 	C 	0.119	0.238	0.8245	0.001
Mof_C 	C 	0.77657	0.55313	0.02113	0.098
Mof_H 	H 	0.76717	0.53433	0.00423	0.037
Mof_C 	C 	0.80857	0.61713	0.07183	-0.034
Mof_C 	C 	0.82487	0.64973	0.09913	0.011
Mof_C 	C 	0.86597	0.73193	0.14453	-0.001
Mof_C 	C 	0.82767	0.65533	0.15243	-0.001
Mof_C 	C 	0.78567	0.57133	0.15783	0.001
Mof_C 	C 	0.44323	0.88647	0.35447	0.098
Mof_H 	H 	0.43383	0.86767	0.33757	0.037
Mof_C 	C 	0.47523	0.95047	0.40517	-0.034
Mof_C 	C 	0.49153	0.98307	0.43247	0.01
Mof_C 	C 	0.53263	0.06527	0.47787	-0.001
Mof_C 	C 	0.49433	0.98867	0.48577	-0.001
Mof_C 	C 	0.45233	0.90467	0.49117	0.001
_end
