data_functionalizedCrystal
_audit_creation_method	'EQeq! by Chris Wilmer'
_symmetry_space_group_name_H-M	'P1'
_symmetry_Int_Tables_number	1
_symmetry_cell_setting	triclinic
loop_
_symmetry_equiv_pos_as_xyz
  x,y,z
_cell_length_a	10.459
_cell_length_b	10.46
_cell_length_c	11.54
_cell_angle_alpha	83.159
_cell_angle_beta	82.12
_cell_angle_gamma	88.964
loop_
_atom_site_label
_atom_site_type_symbol
_atom_site_fract_x
_atom_site_fract_y
_atom_site_fract_z
_atom_site_charge
Mof_Mn	Mn	0.25187	0.69491	0.88363	0.558
Mof_Mn	Mn	0.20248	0.7643	0.38654	0.56
Mof_Mn	Mn	0.74813	0.30509	0.11637	0.558
Mof_Mn	Mn	0.79752	0.2357	0.61346	0.56
Mof_Nb	Nb	0.22485	0.27952	0.24797	1.077
Mof_Nb	Nb	0.77515	0.72048	0.75203	1.077
Mof_C 	C 	0.2727	0.1584	0.097	-0.138
Mof_C 	C 	0.0622	0.2575	0.4036	-0.124
Mof_C 	C 	0.1986	0.4739	0.3083	-0.144
Mof_C 	C 	0.2315	0.0738	0.3246	-0.144
Mof_C 	C 	0.435	0.3159	0.1871	-0.137
Mof_C 	C 	0.0414	0.2609	0.172	-0.146
Mof_C 	C 	0.2311	0.4299	0.0885	-0.127
Mof_C 	C 	0.3334	0.2749	0.4055	-0.136
Mof_C 	C 	0.7273	0.8416	0.903	-0.138
Mof_C 	C 	0.9378	0.7425	0.5964	-0.124
Mof_C 	C 	0.8014	0.5261	0.6917	-0.144
Mof_C 	C 	0.7685	0.9262	0.6754	-0.144
Mof_C 	C 	0.565	0.6841	0.8129	-0.137
Mof_C 	C 	0.9586	0.7391	0.828	-0.146
Mof_C 	C 	0.7689	0.5701	0.9115	-0.127
Mof_C 	C 	0.6666	0.7251	0.5945	-0.136
Mof_N 	N 	0.4005	0.2743	0.4753	-0.094
Mof_N 	N 	0.9749	0.2446	0.4762	-0.149
Mof_N 	N 	0.2315	0.9692	0.3704	-0.155
Mof_N 	N 	0.231	0.5176	0.0157	-0.146
Mof_N 	N 	0.9517	0.2631	0.1237	-0.154
Mof_N 	N 	0.1847	0.5688	0.3483	-0.154
Mof_N 	N 	0.5414	0.3311	0.1526	-0.153
Mof_N 	N 	0.2935	0.0844	0.0312	-0.094
Mof_N 	N 	0.5995	0.7257	0.5247	-0.094
Mof_N 	N 	0.0251	0.7554	0.5238	-0.149
Mof_N 	N 	0.7685	0.0308	0.6296	-0.155
Mof_N 	N 	0.769	0.4824	0.9843	-0.146
Mof_N 	N 	0.0483	0.7369	0.8763	-0.154
Mof_N 	N 	0.8153	0.4312	0.6517	-0.154
Mof_N 	N 	0.4586	0.6689	0.8474	-0.153
Mof_N 	N 	0.7065	0.9156	0.9688	-0.094
_end
