data_functionalizedCrystal
_audit_creation_method	'EQeq! by Chris Wilmer'
_symmetry_space_group_name_H-M	'P1'
_symmetry_Int_Tables_number	1
_symmetry_cell_setting	triclinic
loop_
_symmetry_equiv_pos_as_xyz
  x,y,z
_cell_length_a	7.1319
_cell_length_b	24.327
_cell_length_c	18.849
_cell_angle_alpha	90
_cell_angle_beta	90
_cell_angle_gamma	90
loop_
_atom_site_label
_atom_site_type_symbol
_atom_site_fract_x
_atom_site_fract_y
_atom_site_fract_z
_atom_site_charge
Mof_Zn	Zn	0.15675	0.08266	0.03783	1.147
Mof_O 	O 	0.2198	0.0699	0.1773	-0.369
Mof_O 	O 	0.2527	0.01555	0.0848	-0.77
Mof_O 	O 	0.2521	0.9893	0.4207	-0.64
Mof_O 	O 	0.3994	0.9097	0.4352	-0.547
Mof_O 	O 	0.3021	0.15129	0.0475	-0.535
Mof_O 	O 	0.5455	0.1025	0.0068	-0.633
Mof_C 	C 	0.3091	0.9844	0.2727	0.221
Mof_H 	H 	0.2661	0.0174	0.2916	-0.107
Mof_C 	C 	0.2608	0.0244	0.1518	0.314
Mof_C 	C 	0.3214	0.9777	0.199	-0.091
Mof_C 	C 	0.3808	0.9274	0.1719	-0.071
Mof_H 	H 	0.3826	0.9222	0.1231	0.01
Mof_C 	C 	0.5024	0.8307	0.1859	-0.532
Mof_H 	H 	0.4552	0.8264	0.1385	0.157
Mof_H 	H 	0.637	0.8298	0.1851	0.153
Mof_H 	H 	0.4565	0.8013	0.2152	0.139
Mof_C 	C 	0.4371	0.8853	0.2158	0.117
Mof_C 	C 	0.429	0.8936	0.2891	-0.064
Mof_H 	H 	0.4703	0.866	0.3195	0.028
Mof_C 	C 	0.3609	0.9421	0.3172	-0.17
Mof_C 	C 	0.337	0.9483	0.397	0.453
Mof_C 	C 	0.47	0.147	0.0223	0.413
Mof_C 	C 	0.5714	0.2001	0.0084	-0.221
Mof_C 	C 	0.7491	0.2012	0.9767	-0.081
Mof_H 	H 	0.8091	0.1682	0.9665	0.08
Mof_H 	H 	0.0113	0.2637	0.8757	0.223
Mof_H 	H 	0.0742	0.2132	0.9217	0.222
Mof_H 	H 	0.1113	0.2731	0.9488	0.258
Mof_Zn	Zn	0.34325	0.91734	0.53783	1.173
Mof_O 	O 	0.2802	0.9301	0.6773	-0.37
Mof_O 	O 	0.2473	0.98445	0.5848	-0.735
Mof_O 	O 	0.2479	0.0107	0.9207	-0.637
Mof_O 	O 	0.1006	0.0903	0.9352	-0.497
Mof_O 	O 	0.1979	0.84871	0.5475	-0.466
Mof_O 	O 	0.9545	0.8975	0.5068	-0.52
Mof_C 	C 	0.1909	0.0156	0.7727	-0.088
Mof_H 	H 	0.2339	0.9826	0.7916	0.128
Mof_C 	C 	0.2392	0.9756	0.6518	0.474
Mof_C 	C 	0.1786	0.0223	0.699	-0.196
Mof_C 	C 	0.1192	0.0726	0.6719	0.026
Mof_H 	H 	0.1174	0.0778	0.6231	-0.042
Mof_C 	C 	0.9976	0.1693	0.6859	-0.152
Mof_H 	H 	0.0448	0.1736	0.6385	0.045
Mof_H 	H 	0.863	0.1702	0.6851	0.062
Mof_H 	H 	0.0435	0.1987	0.7152	0.028
Mof_C 	C 	0.0629	0.1147	0.7158	-0.015
Mof_C 	C 	0.071	0.1064	0.7891	-0.034
Mof_H 	H 	0.0297	0.134	0.8195	0.022
Mof_C 	C 	0.1391	0.0579	0.8172	-0.091
Mof_C 	C 	0.163	0.0517	0.897	0.392
Mof_C 	C 	0.03	0.853	0.5223	0.226
Mof_C 	C 	0.9286	0.7999	0.5084	0.221
Mof_C 	C 	0.7509	0.7988	0.4767	-0.547
Mof_H 	H 	0.6909	0.8318	0.4665	0.198
Mof_H 	H 	0.4887	0.7363	0.3757	0.274
Mof_H 	H 	0.4258	0.7868	0.4217	0.28
Mof_H 	H 	0.3887	0.7269	0.4488	0.287
Mof_Zn	Zn	0.84325	0.58266	0.96217	1.193
Mof_O 	O 	0.7802	0.5699	0.8227	-0.347
Mof_O 	O 	0.7473	0.51555	0.9152	-0.722
Mof_O 	O 	0.7479	0.4893	0.5793	-0.721
Mof_O 	O 	0.6006	0.4097	0.5648	-0.544
Mof_O 	O 	0.6979	0.65129	0.9525	-0.441
Mof_O 	O 	0.4545	0.6025	0.9932	-0.515
Mof_C 	C 	0.6909	0.4844	0.7273	0.014
Mof_H 	H 	0.7339	0.5174	0.7084	0.034
Mof_C 	C 	0.7392	0.5244	0.8482	0.373
Mof_C 	C 	0.6786	0.4777	0.801	-0.072
Mof_C 	C 	0.6192	0.4274	0.8281	-0.136
Mof_H 	H 	0.6174	0.4222	0.8769	0.049
Mof_C 	C 	0.4976	0.3307	0.8141	-0.699
Mof_H 	H 	0.5448	0.3264	0.8615	0.239
Mof_H 	H 	0.363	0.3298	0.8149	0.221
Mof_H 	H 	0.5435	0.3013	0.7848	0.208
Mof_C 	C 	0.5629	0.3853	0.7842	0.226
Mof_C 	C 	0.571	0.3936	0.7109	-0.144
Mof_H 	H 	0.5297	0.366	0.6805	0.071
Mof_C 	C 	0.6391	0.4421	0.6828	-0.074
Mof_C 	C 	0.663	0.4483	0.603	0.433
Mof_C 	C 	0.53	0.647	0.9777	0.261
Mof_C 	C 	0.4286	0.7001	0.9916	0.342
Mof_C 	C 	0.2509	0.7012	0.0233	-0.743
Mof_H 	H 	0.1909	0.6682	0.0335	0.224
Mof_H 	H 	0.9887	0.7637	0.1243	0.285
Mof_H 	H 	0.9258	0.7132	0.0783	0.294
Mof_H 	H 	0.8887	0.7731	0.0512	0.275
Mof_Zn	Zn	0.65675	0.41734	0.46217	1.167
Mof_O 	O 	0.7198	0.4301	0.3227	-0.359
Mof_O 	O 	0.7527	0.48445	0.4152	-0.792
Mof_O 	O 	0.7521	0.5107	0.0793	-0.706
Mof_O 	O 	0.8994	0.5903	0.0648	-0.58
Mof_O 	O 	0.8021	0.34871	0.4525	-0.519
Mof_O 	O 	0.0455	0.3975	0.4932	-0.683
Mof_C 	C 	0.8091	0.5156	0.2273	-0.021
Mof_H 	H 	0.7661	0.4826	0.2084	0.044
Mof_C 	C 	0.7608	0.4756	0.3482	0.378
Mof_C 	C 	0.8214	0.5223	0.301	-0.045
Mof_C 	C 	0.8808	0.5726	0.3281	-0.212
Mof_H 	H 	0.8826	0.5778	0.3769	0.046
Mof_C 	C 	0.0024	0.6693	0.3141	-1.061
Mof_H 	H 	0.9552	0.6736	0.3615	0.341
Mof_H 	H 	0.137	0.6702	0.3149	0.306
Mof_H 	H 	0.9565	0.6987	0.2848	0.312
Mof_C 	C 	0.9371	0.6147	0.2842	0.366
Mof_C 	C 	0.929	0.6064	0.2109	-0.235
Mof_H 	H 	0.9703	0.634	0.1805	0.094
Mof_C 	C 	0.8609	0.5579	0.1828	-0.032
Mof_C 	C 	0.837	0.5517	0.103	0.411
Mof_C 	C 	0.97	0.353	0.4777	0.485
Mof_C 	C 	0.0714	0.2999	0.4916	-0.134
Mof_C 	C 	0.2491	0.2988	0.5233	-0.243
Mof_H 	H 	0.3091	0.3318	0.5335	0.097
Mof_H 	H 	0.5113	0.2363	0.6243	0.222
Mof_H 	H 	0.5742	0.2868	0.5783	0.227
Mof_H 	H 	0.6113	0.2269	0.5512	0.234
Mof_Zn	Zn	0.84325	0.91734	0.96217	1.202
Mof_O 	O 	0.7802	0.9301	0.8227	-0.339
Mof_O 	O 	0.7473	0.98445	0.9152	-0.646
Mof_O 	O 	0.7479	0.0107	0.5793	-0.702
Mof_O 	O 	0.6006	0.0903	0.5648	-0.535
Mof_O 	O 	0.6979	0.84871	0.9525	-0.429
Mof_O 	O 	0.4545	0.8975	0.9932	-0.453
Mof_C 	C 	0.6909	0.0156	0.7273	-0.181
Mof_H 	H 	0.7339	0.9826	0.7084	0.164
Mof_C 	C 	0.7392	0.9756	0.8482	0.419
Mof_C 	C 	0.6786	0.0223	0.801	-0.065
Mof_C 	C 	0.6192	0.0726	0.8281	-0.169
Mof_H 	H 	0.6174	0.0778	0.8769	0.06
Mof_C 	C 	0.4976	0.1693	0.8141	-0.749
Mof_H 	H 	0.5448	0.1736	0.8615	0.255
Mof_H 	H 	0.363	0.1702	0.8149	0.237
Mof_H 	H 	0.5435	0.1987	0.7848	0.223
Mof_C 	C 	0.5629	0.1147	0.7842	0.27
Mof_C 	C 	0.571	0.1064	0.7109	-0.202
Mof_H 	H 	0.5297	0.134	0.6805	0.09
Mof_C 	C 	0.6391	0.0579	0.6828	0.007
Mof_C 	C 	0.663	0.0517	0.603	0.383
Mof_C 	C 	0.53	0.853	0.9777	0.24
Mof_C 	C 	0.4286	0.7999	0.9916	0.35
Mof_C 	C 	0.2509	0.7988	0.0233	-0.746
Mof_H 	H 	0.1909	0.8318	0.0335	0.231
Mof_H 	H 	0.9887	0.7363	0.1243	0.284
Mof_H 	H 	0.9258	0.7868	0.0783	0.295
Mof_H 	H 	0.8887	0.7269	0.0512	0.275
Mof_Zn	Zn	0.65675	0.08266	0.46217	1.168
Mof_O 	O 	0.7198	0.0699	0.3227	-0.35
Mof_O 	O 	0.7527	0.01555	0.4152	-0.767
Mof_O 	O 	0.7521	0.9893	0.0793	-0.606
Mof_O 	O 	0.8994	0.9097	0.0648	-0.564
Mof_O 	O 	0.8021	0.15129	0.4525	-0.514
Mof_O 	O 	0.0455	0.1025	0.4932	-0.652
Mof_C 	C 	0.8091	0.9844	0.2273	0.143
Mof_H 	H 	0.7661	0.0174	0.2084	-0.072
Mof_C 	C 	0.7608	0.0244	0.3482	0.293
Mof_C 	C 	0.8214	0.9777	0.301	-0.002
Mof_C 	C 	0.8808	0.9274	0.3281	-0.222
Mof_H 	H 	0.8826	0.9222	0.3769	0.074
Mof_C 	C 	0.0024	0.8307	0.3141	-1.04
Mof_H 	H 	0.9552	0.8264	0.3615	0.336
Mof_H 	H 	0.137	0.8298	0.3149	0.301
Mof_H 	H 	0.9565	0.8013	0.2848	0.305
Mof_C 	C 	0.9371	0.8853	0.2842	0.354
Mof_C 	C 	0.929	0.8936	0.2109	-0.208
Mof_H 	H 	0.9703	0.866	0.1805	0.086
Mof_C 	C 	0.8609	0.9421	0.1828	-0.077
Mof_C 	C 	0.837	0.9483	0.103	0.419
Mof_C 	C 	0.97	0.147	0.4777	0.472
Mof_C 	C 	0.0714	0.2001	0.4916	-0.13
Mof_C 	C 	0.2491	0.2012	0.5233	-0.246
Mof_H 	H 	0.3091	0.1682	0.5335	0.097
Mof_H 	H 	0.5113	0.2637	0.6243	0.223
Mof_H 	H 	0.5742	0.2132	0.5783	0.226
Mof_H 	H 	0.6113	0.2731	0.5512	0.234
Mof_Zn	Zn	0.15675	0.41734	0.03783	1.145
Mof_O 	O 	0.2198	0.4301	0.1773	-0.38
Mof_O 	O 	0.2527	0.48445	0.0848	-0.798
Mof_O 	O 	0.2521	0.5107	0.4207	-0.74
Mof_O 	O 	0.3994	0.5903	0.4352	-0.564
Mof_O 	O 	0.3021	0.34871	0.0475	-0.541
Mof_O 	O 	0.5455	0.3975	0.0068	-0.664
Mof_C 	C 	0.3091	0.5156	0.2727	0.059
Mof_H 	H 	0.2661	0.4826	0.2916	0.008
Mof_C 	C 	0.2608	0.4756	0.1518	0.402
Mof_C 	C 	0.3214	0.5223	0.199	-0.141
Mof_C 	C 	0.3808	0.5726	0.1719	-0.055
Mof_H 	H 	0.3826	0.5778	0.1231	-0.022
Mof_C 	C 	0.5024	0.6693	0.1859	-0.53
Mof_H 	H 	0.4552	0.6736	0.1385	0.154
Mof_H 	H 	0.637	0.6702	0.1851	0.152
Mof_H 	H 	0.4565	0.6987	0.2152	0.138
Mof_C 	C 	0.4371	0.6147	0.2158	0.118
Mof_C 	C 	0.429	0.6064	0.2891	-0.085
Mof_H 	H 	0.4703	0.634	0.3195	0.033
Mof_C 	C 	0.3609	0.5579	0.3172	-0.129
Mof_C 	C 	0.337	0.5517	0.397	0.445
Mof_C 	C 	0.47	0.353	0.0223	0.426
Mof_C 	C 	0.5714	0.2999	0.0084	-0.224
Mof_C 	C 	0.7491	0.2988	0.9767	-0.079
Mof_H 	H 	0.8091	0.3318	0.9665	0.08
Mof_H 	H 	0.0113	0.2363	0.8757	0.222
Mof_H 	H 	0.0742	0.2868	0.9217	0.223
Mof_H 	H 	0.1113	0.2269	0.9488	0.259
Mof_Zn	Zn	0.34325	0.58266	0.53783	1.163
Mof_O 	O 	0.2802	0.5699	0.6773	-0.379
Mof_O 	O 	0.2473	0.51555	0.5848	-0.814
Mof_O 	O 	0.2479	0.4893	0.9207	-0.659
Mof_O 	O 	0.1006	0.4097	0.9352	-0.508
Mof_O 	O 	0.1979	0.65129	0.5475	-0.478
Mof_O 	O 	0.9545	0.6025	0.5068	-0.581
Mof_C 	C 	0.1909	0.4844	0.7727	0.107
Mof_H 	H 	0.2339	0.5174	0.7916	-0.002
Mof_C 	C 	0.2392	0.5244	0.6518	0.424
Mof_C 	C 	0.1786	0.4777	0.699	-0.198
Mof_C 	C 	0.1192	0.4274	0.6719	0.058
Mof_H 	H 	0.1174	0.4222	0.6231	-0.053
Mof_C 	C 	0.9976	0.3307	0.6859	-0.098
Mof_H 	H 	0.0448	0.3264	0.6385	0.028
Mof_H 	H 	0.863	0.3298	0.6851	0.045
Mof_H 	H 	0.0435	0.3013	0.7152	0.011
Mof_C 	C 	0.0629	0.3853	0.7158	-0.061
Mof_C 	C 	0.071	0.3936	0.7891	0.024
Mof_H 	H 	0.0297	0.366	0.8195	0.003
Mof_C 	C 	0.1391	0.4421	0.8172	-0.174
Mof_C 	C 	0.163	0.4483	0.897	0.443
Mof_C 	C 	0.03	0.647	0.5223	0.243
Mof_C 	C 	0.9286	0.7001	0.5084	0.213
Mof_C 	C 	0.7509	0.7012	0.4767	-0.543
Mof_H 	H 	0.6909	0.6682	0.4665	0.192
Mof_H 	H 	0.4887	0.7637	0.3757	0.275
Mof_H 	H 	0.4258	0.7132	0.4217	0.279
Mof_H 	H 	0.3887	0.7731	0.4488	0.287
Mof_Na	Na	0.5	0	-0	2.089
Mof_Na	Na	4.95467e-33	0	0.5	2.405
Mof_Na	Na	0.5	0.5	-0	2.46
Mof_Na	Na	4.95467e-33	0.5	0.5	2.77
Mof_C 	C 	0.4848	0.25	0.0242	0.061
Mof_H 	H 	0.3674	0.25	0.0457	-0.002
Mof_C 	C 	0.8369	0.25	0.9602	0.38
Mof_C 	C 	0.0258	0.25	0.9232	-1.373
Mof_C 	C 	0.0152	0.75	0.5242	-0.343
Mof_H 	H 	0.1326	0.75	0.5457	0.147
Mof_C 	C 	0.6631	0.75	0.4602	0.7
Mof_C 	C 	0.4742	0.75	0.4232	-1.73
Mof_C 	C 	0.5152	0.75	0.9758	-0.359
Mof_H 	H 	0.6326	0.75	0.9543	0.174
Mof_C 	C 	0.1631	0.75	0.0398	0.785
Mof_C 	C 	0.9742	0.75	0.0768	-1.781
Mof_C 	C 	0.9848	0.25	0.4758	0.085
Mof_H 	H 	0.8674	0.25	0.4543	0.013
Mof_C 	C 	0.3369	0.25	0.5398	0.424
Mof_C 	C 	0.5258	0.25	0.5768	-1.356
_end
