data_functionalizedCrystal
_audit_creation_method	'EQeq! by Chris Wilmer'
_symmetry_space_group_name_H-M	'P1'
_symmetry_Int_Tables_number	1
_symmetry_cell_setting	triclinic
loop_
_symmetry_equiv_pos_as_xyz
  x,y,z
_cell_length_a	8.6801
_cell_length_b	13.9279
_cell_length_c	28.708
_cell_angle_alpha	90
_cell_angle_beta	90
_cell_angle_gamma	90.91
loop_
_atom_site_label
_atom_site_type_symbol
_atom_site_fract_x
_atom_site_fract_y
_atom_site_fract_z
_atom_site_charge
Mof_Mn	Mn	0.02907	0.94851	0.12671	0.87
Mof_Mn	Mn	0.42118	0.93774	0.1649	0.869
Mof_Mn	Mn	0.97093	0.55149	0.62671	0.87
Mof_Mn	Mn	0.57882	0.56226	0.6649	0.869
Mof_Mn	Mn	0.97093	0.05149	0.87329	0.871
Mof_Mn	Mn	0.57882	0.06226	0.8351	0.87
Mof_Mn	Mn	0.02907	0.44851	0.37329	0.871
Mof_Mn	Mn	0.42118	0.43774	0.3351	0.87
Mof_H 	H 	0.9652	0.7038	0.1324	0.093
Mof_H 	H 	0.8868	0.4878	0.2229	0.092
Mof_H 	H 	0.2647	0.6546	0.2366	0.059
Mof_H 	H 	0.8819	0.4805	0.1068	0.046
Mof_H 	H 	0.8244	0.5756	0.084	0.052
Mof_H 	H 	0.7595	0.3772	0.0455	0.066
Mof_H 	H 	0.5479	0.2864	0.0257	0.068
Mof_H 	H 	0.2884	0.4783	0.0931	0.05
Mof_H 	H 	0.5087	0.5571	0.1187	0.076
Mof_H 	H 	0.1375	0.19	0.9571	0.095
Mof_H 	H 	0.3571	0.2676	0.9845	0.045
Mof_H 	H 	0.12	0.3634	0.0952	0.038
Mof_H 	H 	0.9106	0.2692	0.0717	0.072
Mof_H 	H 	0.5689	0.193	0.9354	0.076
Mof_H 	H 	0.1954	0.049	0.9815	0.039
Mof_H 	H 	0.5352	0.1201	0.071	0.077
Mof_H 	H 	0.8733	0.1101	0.9996	0.075
Mof_H 	H 	0.8585	0.1859	0.9598	0.073
Mof_H 	H 	0.0348	0.7962	0.6324	0.092
Mof_H 	H 	0.1132	0.0122	0.7229	0.091
Mof_H 	H 	0.7353	0.8454	0.7366	0.059
Mof_H 	H 	0.1181	0.0195	0.6068	0.045
Mof_H 	H 	0.1756	0.9244	0.584	0.051
Mof_H 	H 	0.2405	0.1228	0.5455	0.065
Mof_H 	H 	0.4521	0.2136	0.5257	0.069
Mof_H 	H 	0.7116	0.0217	0.5931	0.051
Mof_H 	H 	0.4913	0.9429	0.6187	0.075
Mof_H 	H 	0.8625	0.31	0.4571	0.095
Mof_H 	H 	0.6429	0.2324	0.4845	0.045
Mof_H 	H 	0.88	0.1366	0.5952	0.037
Mof_H 	H 	0.0894	0.2308	0.5717	0.072
Mof_H 	H 	0.4311	0.307	0.4354	0.076
Mof_H 	H 	0.8046	0.451	0.4815	0.039
Mof_H 	H 	0.4648	0.3799	0.571	0.077
Mof_H 	H 	0.1267	0.3899	0.4996	0.075
Mof_H 	H 	0.1415	0.3141	0.4598	0.072
Mof_H 	H 	0.0348	0.2962	0.8676	0.093
Mof_H 	H 	0.1132	0.5122	0.7771	0.092
Mof_H 	H 	0.7353	0.3454	0.7634	0.059
Mof_H 	H 	0.1181	0.5195	0.8932	0.046
Mof_H 	H 	0.1756	0.4244	0.916	0.052
Mof_H 	H 	0.2405	0.6228	0.9545	0.066
Mof_H 	H 	0.4521	0.7136	0.9743	0.068
Mof_H 	H 	0.7116	0.5217	0.9069	0.05
Mof_H 	H 	0.4913	0.4429	0.8813	0.076
Mof_H 	H 	0.8625	0.81	0.0429	0.095
Mof_H 	H 	0.6429	0.7324	0.0155	0.045
Mof_H 	H 	0.88	0.6366	0.9048	0.038
Mof_H 	H 	0.0894	0.7308	0.9283	0.072
Mof_H 	H 	0.4311	0.807	0.0646	0.076
Mof_H 	H 	0.8046	0.951	0.0185	0.039
Mof_H 	H 	0.4648	0.8799	0.929	0.077
Mof_H 	H 	0.1267	0.8899	0.0004	0.075
Mof_H 	H 	0.1415	0.8141	0.0402	0.073
Mof_H 	H 	0.9652	0.2038	0.3676	0.092
Mof_H 	H 	0.8868	0.9878	0.2771	0.091
Mof_H 	H 	0.2647	0.1546	0.2634	0.059
Mof_H 	H 	0.8819	0.9805	0.3932	0.045
Mof_H 	H 	0.8244	0.0756	0.416	0.051
Mof_H 	H 	0.7595	0.8772	0.4545	0.065
Mof_H 	H 	0.5479	0.7864	0.4743	0.069
Mof_H 	H 	0.2884	0.9783	0.4069	0.051
Mof_H 	H 	0.5087	0.0571	0.3813	0.075
Mof_H 	H 	0.1375	0.69	0.5429	0.095
Mof_H 	H 	0.3571	0.7676	0.5155	0.045
Mof_H 	H 	0.12	0.8634	0.4048	0.037
Mof_H 	H 	0.9106	0.7692	0.4283	0.072
Mof_H 	H 	0.5689	0.693	0.5646	0.076
Mof_H 	H 	0.1954	0.549	0.5185	0.039
Mof_H 	H 	0.5352	0.6201	0.429	0.077
Mof_H 	H 	0.8733	0.6101	0.5004	0.075
Mof_H 	H 	0.8585	0.6859	0.5402	0.072
Mof_C 	C 	0.128	0.6925	0.18294	-0.042
Mof_C 	C 	0.9939	0.669	0.15854	-0.12
Mof_C 	C 	0.9035	0.5914	0.1746	0.177
Mof_C 	C 	0.9479	0.5391	0.21281	-0.125
Mof_C 	C 	0.0839	0.5622	0.23655	-0.047
Mof_C 	C 	0.1735	0.6389	0.22119	-0.019
Mof_C 	C 	0.2194	0.77806	0.1673	0.332
Mof_C 	C 	0.1171	0.5084	0.2801	0.343
Mof_C 	C 	0.7963	0.5244	0.10541	-0.036
Mof_C 	C 	0.6605	0.4724	0.08683	0.05
Mof_C 	C 	0.6641	0.3949	0.05707	-0.07
Mof_C 	C 	0.5382	0.3421	0.04329	-0.049
Mof_C 	C 	0.3959	0.3753	0.05674	0.023
Mof_C 	C 	0.3848	0.456	0.08456	-0.047
Mof_C 	C 	0.517	0.5035	0.09965	-0.069
Mof_C 	C 	0.1341	0.2238	0.98502	-0.118
Mof_C 	C 	0.2656	0.2707	0.00128	-0.009
Mof_C 	C 	0.2606	0.3227	0.04291	-0.009
Mof_C 	C 	0.1255	0.3264	0.06834	-0.025
Mof_C 	C 	0.9976	0.2734	0.05285	-0.102
Mof_C 	C 	0.9965	0.227	0.01023	0.087
Mof_C 	C 	0.5771	0.1625	0.00433	0.143
Mof_C 	C 	0.5149	0.1635	0.95962	-0.094
Mof_C 	C 	0.3712	0.1203	0.95109	-0.091
Mof_C 	C 	0.2915	0.077	0.98712	0.01
Mof_C 	C 	0.3535	0.0749	0.03181	-0.058
Mof_C 	C 	0.4954	0.1193	0.04097	-0.101
Mof_C 	C 	0.3093	0.1214	0.90416	0.361
Mof_C 	C 	0.2741	0.0268	0.07218	0.352
Mof_C 	C 	0.8623	0.1781	0.99337	-0.082
Mof_C 	C 	0.872	0.8075	0.68294	-0.043
Mof_C 	C 	0.0061	0.831	0.65854	-0.119
Mof_C 	C 	0.0965	0.9086	0.6746	0.177
Mof_C 	C 	0.0521	0.9609	0.71281	-0.122
Mof_C 	C 	0.9161	0.9378	0.73655	-0.048
Mof_C 	C 	0.8265	0.8611	0.72119	-0.018
Mof_C 	C 	0.7806	0.72194	0.6673	0.332
Mof_C 	C 	0.8829	0.9916	0.7801	0.344
Mof_C 	C 	0.2037	0.9756	0.60541	-0.033
Mof_C 	C 	0.3395	0.0276	0.58683	0.046
Mof_C 	C 	0.3359	0.1051	0.55707	-0.067
Mof_C 	C 	0.4618	0.1579	0.54329	-0.051
Mof_C 	C 	0.6041	0.1247	0.55674	0.025
Mof_C 	C 	0.6152	0.044	0.58456	-0.049
Mof_C 	C 	0.483	0.9965	0.59965	-0.066
Mof_C 	C 	0.8659	0.2762	0.48502	-0.116
Mof_C 	C 	0.7344	0.2293	0.50128	-0.01
Mof_C 	C 	0.7394	0.1773	0.54291	-0.01
Mof_C 	C 	0.8745	0.1736	0.56834	-0.025
Mof_C 	C 	0.0024	0.2266	0.55285	-0.102
Mof_C 	C 	0.0035	0.273	0.51023	0.085
Mof_C 	C 	0.4229	0.3375	0.50433	0.142
Mof_C 	C 	0.4851	0.3365	0.45962	-0.093
Mof_C 	C 	0.6288	0.3797	0.45109	-0.091
Mof_C 	C 	0.7085	0.423	0.48712	0.011
Mof_C 	C 	0.6465	0.4251	0.53181	-0.058
Mof_C 	C 	0.5046	0.3807	0.54097	-0.101
Mof_C 	C 	0.6907	0.3786	0.40416	0.361
Mof_C 	C 	0.7259	0.4732	0.57218	0.351
Mof_C 	C 	0.1377	0.3219	0.49337	-0.08
Mof_C 	C 	0.872	0.3075	0.81706	-0.042
Mof_C 	C 	0.0061	0.331	0.84146	-0.12
Mof_C 	C 	0.0965	0.4086	0.8254	0.177
Mof_C 	C 	0.0521	0.4609	0.78719	-0.125
Mof_C 	C 	0.9161	0.4378	0.76345	-0.047
Mof_C 	C 	0.8265	0.3611	0.77881	-0.019
Mof_C 	C 	0.7806	0.22194	0.8327	0.332
Mof_C 	C 	0.8829	0.4916	0.7199	0.343
Mof_C 	C 	0.2037	0.4756	0.89459	-0.036
Mof_C 	C 	0.3395	0.5276	0.91317	0.05
Mof_C 	C 	0.3359	0.6051	0.94293	-0.07
Mof_C 	C 	0.4618	0.6579	0.95671	-0.049
Mof_C 	C 	0.6041	0.6247	0.94326	0.023
Mof_C 	C 	0.6152	0.544	0.91544	-0.047
Mof_C 	C 	0.483	0.4965	0.90035	-0.069
Mof_C 	C 	0.8659	0.7762	0.01498	-0.118
Mof_C 	C 	0.7344	0.7293	0.99872	-0.009
Mof_C 	C 	0.7394	0.6773	0.95709	-0.009
Mof_C 	C 	0.8745	0.6736	0.93166	-0.025
Mof_C 	C 	0.0024	0.7266	0.94715	-0.102
Mof_C 	C 	0.0035	0.773	0.98977	0.087
Mof_C 	C 	0.4229	0.8375	0.99567	0.143
Mof_C 	C 	0.4851	0.8365	0.04038	-0.094
Mof_C 	C 	0.6288	0.8797	0.04891	-0.091
Mof_C 	C 	0.7085	0.923	0.01288	0.01
Mof_C 	C 	0.6465	0.9251	0.96819	-0.058
Mof_C 	C 	0.5046	0.8807	0.95903	-0.101
Mof_C 	C 	0.6907	0.8786	0.09584	0.361
Mof_C 	C 	0.7259	0.9732	0.92782	0.352
Mof_C 	C 	0.1377	0.8219	0.00663	-0.082
Mof_C 	C 	0.128	0.1925	0.31706	-0.043
Mof_C 	C 	0.9939	0.169	0.34146	-0.119
Mof_C 	C 	0.9035	0.0914	0.3254	0.177
Mof_C 	C 	0.9479	0.0391	0.28719	-0.122
Mof_C 	C 	0.0839	0.0622	0.26345	-0.048
Mof_C 	C 	0.1735	0.1389	0.27881	-0.018
Mof_C 	C 	0.2194	0.27806	0.3327	0.332
Mof_C 	C 	0.1171	0.0084	0.2199	0.344
Mof_C 	C 	0.7963	0.0244	0.39459	-0.033
Mof_C 	C 	0.6605	0.9724	0.41317	0.046
Mof_C 	C 	0.6641	0.8949	0.44293	-0.067
Mof_C 	C 	0.5382	0.8421	0.45671	-0.051
Mof_C 	C 	0.3959	0.8753	0.44326	0.025
Mof_C 	C 	0.3848	0.956	0.41544	-0.049
Mof_C 	C 	0.517	0.0035	0.40035	-0.066
Mof_C 	C 	0.1341	0.7238	0.51498	-0.116
Mof_C 	C 	0.2656	0.7707	0.49872	-0.01
Mof_C 	C 	0.2606	0.8227	0.45709	-0.01
Mof_C 	C 	0.1255	0.8264	0.43166	-0.025
Mof_C 	C 	0.9976	0.7734	0.44715	-0.102
Mof_C 	C 	0.9965	0.727	0.48977	0.085
Mof_C 	C 	0.5771	0.6625	0.49567	0.142
Mof_C 	C 	0.5149	0.6635	0.54038	-0.093
Mof_C 	C 	0.3712	0.6203	0.54891	-0.091
Mof_C 	C 	0.2915	0.577	0.51288	0.011
Mof_C 	C 	0.3535	0.5749	0.46819	-0.058
Mof_C 	C 	0.4954	0.6193	0.45903	-0.101
Mof_C 	C 	0.3093	0.6214	0.59584	0.361
Mof_C 	C 	0.2741	0.5268	0.42782	0.351
Mof_C 	C 	0.8623	0.6781	0.50663	-0.08
Mof_O 	O 	0.1705	0.8281	0.13331	-0.386
Mof_O 	O 	0.3424	0.79897	0.18834	-0.352
Mof_O 	O 	0.262	0.51154	0.28819	-0.372
Mof_O 	O 	0.0241	0.45552	0.30016	-0.396
Mof_O 	O 	0.7736	0.56525	0.15109	-0.212
Mof_O 	O 	0.7146	0.20856	0.01277	-0.21
Mof_O 	O 	0.3952	0.12884	0.8685	-0.38
Mof_O 	O 	0.1624	0.1186	0.9012	-0.394
Mof_O 	O 	0.142	0.99436	0.06379	-0.385
Mof_O 	O 	0.3488	0.02258	0.11017	-0.411
Mof_O 	O 	0.8295	0.6719	0.63331	-0.386
Mof_O 	O 	0.6576	0.70103	0.68834	-0.352
Mof_O 	O 	0.738	0.98846	0.78819	-0.372
Mof_O 	O 	0.9759	0.04448	0.80016	-0.396
Mof_O 	O 	0.2264	0.93475	0.65109	-0.212
Mof_O 	O 	0.2854	0.29144	0.51277	-0.21
Mof_O 	O 	0.6048	0.37116	0.3685	-0.38
Mof_O 	O 	0.8376	0.3814	0.4012	-0.394
Mof_O 	O 	0.858	0.50564	0.56379	-0.384
Mof_O 	O 	0.6512	0.47742	0.61017	-0.411
Mof_O 	O 	0.8295	0.1719	0.86669	-0.386
Mof_O 	O 	0.6576	0.20103	0.81166	-0.352
Mof_O 	O 	0.738	0.48846	0.71181	-0.372
Mof_O 	O 	0.9759	0.54448	0.69984	-0.396
Mof_O 	O 	0.2264	0.43475	0.84891	-0.212
Mof_O 	O 	0.2854	0.79144	0.98723	-0.21
Mof_O 	O 	0.6048	0.87116	0.1315	-0.38
Mof_O 	O 	0.8376	0.8814	0.0988	-0.394
Mof_O 	O 	0.858	0.00564	0.93621	-0.385
Mof_O 	O 	0.6512	0.97742	0.88983	-0.411
Mof_O 	O 	0.1705	0.3281	0.36669	-0.386
Mof_O 	O 	0.3424	0.29897	0.31166	-0.352
Mof_O 	O 	0.262	0.01154	0.21181	-0.372
Mof_O 	O 	0.0241	0.95552	0.19984	-0.396
Mof_O 	O 	0.7736	0.06525	0.34891	-0.212
Mof_O 	O 	0.7146	0.70856	0.48723	-0.21
Mof_O 	O 	0.3952	0.62884	0.6315	-0.38
Mof_O 	O 	0.1624	0.6186	0.5988	-0.394
Mof_O 	O 	0.142	0.49436	0.43621	-0.384
Mof_O 	O 	0.3488	0.52258	0.38983	-0.411
_end
