data_functionalizedCrystal
_audit_creation_method	'EQeq! by Chris Wilmer'
_symmetry_space_group_name_H-M	'P1'
_symmetry_Int_Tables_number	1
_symmetry_cell_setting	triclinic
loop_
_symmetry_equiv_pos_as_xyz
  x,y,z
_cell_length_a	10.9944
_cell_length_b	24.2069
_cell_length_c	26.6499
_cell_angle_alpha	67.578
_cell_angle_beta	78.0959
_cell_angle_gamma	76.8741
loop_
_atom_site_label
_atom_site_type_symbol
_atom_site_fract_x
_atom_site_fract_y
_atom_site_fract_z
_atom_site_charge
Mof_Eu	Eu	0.16172	0.01607	0.41763	2.135
Mof_Eu	Eu	0.17408	0.96881	0.56286	1.748
Mof_Eu	Eu	0.98048	0.11305	0.49028	1.788
Mof_Eu	Eu	0.59542	0.48393	0.08237	2.112
Mof_Eu	Eu	0.70575	0.53119	0.93714	1.732
Mof_Eu	Eu	0.58381	0.38695	0.00972	1.825
Mof_Eu	Eu	0.83828	0.98393	0.58237	2.074
Mof_Eu	Eu	0.82592	0.03119	0.43714	1.776
Mof_Eu	Eu	0.01952	0.88695	0.50972	1.804
Mof_Eu	Eu	0.40458	0.51606	0.91764	2.106
Mof_Eu	Eu	0.29425	0.46881	0.06286	1.786
Mof_Eu	Eu	0.41619	0.61305	0.99028	1.766
Mof_H 	H 	0.6678	0.0027	0.0613	0.166
Mof_H 	H 	0.4714	0.9548	0.2088	0.061
Mof_H 	H 	0.4568	0.8825	0.1653	0.067
Mof_H 	H 	0.8153	0.2075	0.0563	0.031
Mof_H 	H 	0.6537	0.164	0.1328	0.044
Mof_H 	H 	0.8304	0.0456	0.9828	0.163
Mof_H 	H 	0.0905	0.0631	0.8543	0.063
Mof_H 	H 	0.1251	0.1258	0.904	0.065
Mof_H 	H 	0.5908	0.8791	0.9617	0.069
Mof_H 	H 	0.737	0.9298	0.8814	0.047
Mof_H 	H 	0.377	0.099	0.1756	0.088
Mof_H 	H 	0.2966	0.1119	0.2599	0.016
Mof_H 	H 	0.6359	0.0394	0.3114	-0.016
Mof_H 	H 	0.7142	0.0242	0.2288	0.096
Mof_H 	H 	0.0619	0.1517	0.0567	0.09
Mof_H 	H 	0.1496	0.2364	0.0436	0.009
Mof_H 	H 	0.0636	0.3109	0.8881	0.021
Mof_H 	H 	0.9819	0.225	0.901	0.088
Mof_H 	H 	0.0756	0.934	0.8712	0.09
Mof_H 	H 	0.1226	0.9024	0.7956	0.002
Mof_H 	H 	0.8269	0.0229	0.7297	0.005
Mof_H 	H 	0.782	0.0551	0.8045	0.089
Mof_H 	H 	0.3371	0.8914	0.0724	0.099
Mof_H 	H 	0.2592	0.8026	0.088	0.009
Mof_H 	H 	0.6116	0.7093	0.0933	0.014
Mof_H 	H 	0.6886	0.7977	0.0761	0.102
Mof_H 	H 	0.0066	0.0442	0.6082	0.346
Mof_H 	H 	0.7297	0.101	0.5106	0.392
Mof_H 	H 	0.9946	0.1284	0.38	0.28
Mof_H 	H 	0.2593	0.0689	0.4711	0.379
Mof_H 	H 	0.7318	0.4973	0.4387	0.152
Mof_H 	H 	0.635	0.5452	0.2912	0.066
Mof_H 	H 	0.5046	0.6175	0.3347	0.065
Mof_H 	H 	0.0791	0.2925	0.4437	0.02
Mof_H 	H 	0.9505	0.336	0.3672	0.052
Mof_H 	H 	0.8588	0.4544	0.5172	0.165
Mof_H 	H 	0.0079	0.4369	0.6457	0.082
Mof_H 	H 	0.1549	0.3742	0.596	0.056
Mof_H 	H 	0.4316	0.6209	0.5383	0.061
Mof_H 	H 	0.5482	0.5702	0.6186	0.059
Mof_H 	H 	0.6516	0.401	0.3244	0.089
Mof_H 	H 	0.6684	0.3881	0.2401	0.014
Mof_H 	H 	0.9867	0.4606	0.1886	-0.02
Mof_H 	H 	0.9672	0.4758	0.2712	0.095
Mof_H 	H 	0.2703	0.3483	0.4433	0.088
Mof_H 	H 	0.4296	0.2636	0.4564	0.011
Mof_H 	H 	0.2626	0.1891	0.6119	0.021
Mof_H 	H 	0.1079	0.275	0.599	0.098
Mof_H 	H 	0.8808	0.566	0.6288	0.1
Mof_H 	H 	0.8206	0.5976	0.7044	-0.004
Mof_H 	H 	0.5795	0.4771	0.7703	0
Mof_H 	H 	0.6416	0.4449	0.6955	0.101
Mof_H 	H 	0.3009	0.6086	0.4276	0.097
Mof_H 	H 	0.1498	0.6974	0.412	0.011
Mof_H 	H 	0.4142	0.7907	0.4067	0.014
Mof_H 	H 	0.5624	0.7023	0.4239	0.099
Mof_H 	H 	0.659	0.4558	0.8918	0.336
Mof_H 	H 	0.3413	0.399	0.9894	0.394
Mof_H 	H 	0.503	0.3716	0.12	0.281
Mof_H 	H 	0.7993	0.4311	0.0289	0.379
Mof_H 	H 	0.3322	0.9973	0.9387	0.139
Mof_H 	H 	0.5286	0.0452	0.7912	0.073
Mof_H 	H 	0.5432	0.1175	0.8347	0.063
Mof_H 	H 	0.1847	0.7925	0.9437	0.025
Mof_H 	H 	0.3463	0.836	0.8672	0.048
Mof_H 	H 	0.1696	0.9544	0.0172	0.169
Mof_H 	H 	0.9095	0.9369	0.1457	0.066
Mof_H 	H 	0.8749	0.8742	0.096	0.064
Mof_H 	H 	0.4092	0.1209	0.0383	0.056
Mof_H 	H 	0.263	0.0702	0.1186	0.067
Mof_H 	H 	0.623	0.901	0.8244	0.089
Mof_H 	H 	0.7034	0.8881	0.7401	0.012
Mof_H 	H 	0.3641	0.9606	0.6886	-0.02
Mof_H 	H 	0.2858	0.9758	0.7712	0.096
Mof_H 	H 	0.9381	0.8483	0.9433	0.089
Mof_H 	H 	0.8504	0.7636	0.9564	0.01
Mof_H 	H 	0.9364	0.6891	0.1119	0.016
Mof_H 	H 	0.0181	0.775	0.099	0.108
Mof_H 	H 	0.9244	0.066	0.1288	0.11
Mof_H 	H 	0.8774	0.0976	0.2044	-0.004
Mof_H 	H 	0.1731	0.9771	0.2703	-0.003
Mof_H 	H 	0.218	0.9449	0.1955	0.109
Mof_H 	H 	0.6629	0.1086	0.9276	0.097
Mof_H 	H 	0.7408	0.1974	0.912	0.009
Mof_H 	H 	0.3884	0.2907	0.9067	0.015
Mof_H 	H 	0.3114	0.2023	0.9239	0.098
Mof_H 	H 	0.9934	0.9558	0.3918	0.323
Mof_H 	H 	0.2703	0.899	0.4894	0.394
Mof_H 	H 	0.0054	0.8716	0.62	0.282
Mof_H 	H 	0.7407	0.9311	0.5289	0.38
Mof_H 	H 	0.2682	0.5027	0.5613	0.153
Mof_H 	H 	0.365	0.4548	0.7088	0.066
Mof_H 	H 	0.4954	0.3825	0.6653	0.065
Mof_H 	H 	0.9209	0.7075	0.5563	0.037
Mof_H 	H 	0.0495	0.664	0.6328	0.039
Mof_H 	H 	0.1412	0.5456	0.4828	0.165
Mof_H 	H 	0.9921	0.5631	0.3543	0.048
Mof_H 	H 	0.8451	0.6258	0.404	0.073
Mof_H 	H 	0.5684	0.3791	0.4617	0.061
Mof_H 	H 	0.4518	0.4298	0.3814	0.059
Mof_H 	H 	0.3484	0.599	0.6756	0.088
Mof_H 	H 	0.3316	0.6119	0.7599	0.015
Mof_H 	H 	0.0133	0.5394	0.8114	-0.015
Mof_H 	H 	0.0328	0.5242	0.7288	0.097
Mof_H 	H 	0.7297	0.6517	0.5567	0.091
Mof_H 	H 	0.5704	0.7364	0.5436	0.008
Mof_H 	H 	0.7374	0.8109	0.3881	0.016
Mof_H 	H 	0.8921	0.725	0.401	0.098
Mof_H 	H 	0.1192	0.434	0.3712	0.103
Mof_H 	H 	0.1794	0.4024	0.2956	0
Mof_H 	H 	0.4205	0.5229	0.2297	0.001
Mof_H 	H 	0.3584	0.5551	0.3045	0.1
Mof_H 	H 	0.6991	0.3914	0.5724	0.097
Mof_H 	H 	0.8502	0.3026	0.588	0.007
Mof_H 	H 	0.5858	0.2093	0.5933	0.015
Mof_H 	H 	0.4376	0.2977	0.5761	0.1
Mof_H 	H 	0.341	0.5442	0.1082	0.335
Mof_H 	H 	0.6587	0.601	0.0106	0.392
Mof_H 	H 	0.497	0.6284	0.88	0.28
Mof_H 	H 	0.2007	0.5689	0.9711	0.379
Mof_C 	C 	0.57986	0.99975	0.13473	0.121
Mof_C 	C 	0.50778	0.95616	0.17288	-0.081
Mof_C 	C 	0.49981	0.91635	0.14903	-0.094
Mof_C 	C 	0.56738	0.93484	0.0954	0.144
Mof_C 	C 	0.60722	0.05008	0.14088	-0.122
Mof_C 	C 	0.68448	0.0903	0.10274	0.102
Mof_C 	C 	0.83042	0.12788	0.03548	0.113
Mof_C 	C 	0.78683	0.17032	0.06482	-0.082
Mof_C 	C 	0.69848	0.14678	0.10626	-0.091
Mof_C 	C 	0.93187	0.13287	0.99299	-0.142
Mof_C 	C 	0.96087	0.09797	0.95929	0.134
Mof_C 	C 	0.93221	0.04039	0.91539	0.114
Mof_C 	C 	0.04066	0.06805	0.88643	-0.065
Mof_C 	C 	0.05913	0.10275	0.91359	-0.083
Mof_C 	C 	0.87284	0.00467	0.90025	-0.088
Mof_C 	C 	0.77263	0.97482	0.93192	0.075
Mof_C 	C 	0.64305	0.93014	0.00236	0.147
Mof_C 	C 	0.63987	0.90782	0.95944	-0.114
Mof_C 	C 	0.71929	0.93518	0.91584	-0.052
Mof_C 	C 	0.57757	0.90933	0.05513	-0.148
Mof_C 	C 	0.554	0.0598	0.1938	0.131
Mof_C 	C 	0.42988	0.0861	0.20334	-0.171
Mof_C 	C 	0.38184	0.09387	0.25345	0.086
Mof_C 	C 	0.45905	0.07523	0.29327	-0.169
Mof_C 	C 	0.58243	0.05064	0.2841	0.108
Mof_C 	C 	0.6289	0.0423	0.2347	-0.18
Mof_C 	C 	0.00471	0.18186	0.98132	0.118
Mof_C 	C 	0.05987	0.18467	0.02279	-0.158
Mof_C 	C 	0.1118	0.23498	0.01522	0.083
Mof_C 	C 	0.10796	0.28279	0.96589	-0.158
Mof_C 	C 	0.06129	0.27902	0.9226	0.067
Mof_C 	C 	0.01167	0.22827	0.93059	-0.148
Mof_C 	C 	0.91963	0.99467	0.84687	0.084
Mof_C 	C 	0.02325	0.95114	0.84296	-0.157
Mof_C 	C 	0.05166	0.93237	0.79811	0.104
Mof_C 	C 	0.97525	0.95798	0.75712	-0.199
Mof_C 	C 	0.87637	0.00406	0.759	0.112
Mof_C 	C 	0.84912	0.02287	0.80349	-0.149
Mof_C 	C 	0.52156	0.85364	0.07024	0.15
Mof_C 	C 	0.39394	0.85452	0.0754	-0.182
Mof_C 	C 	0.34722	0.80176	0.085	0.103
Mof_C 	C 	0.4288	0.74908	0.09012	-0.171
Mof_C 	C 	0.55549	0.74672	0.0879	0.106
Mof_C 	C 	0.60073	0.79934	0.0778	-0.185
Mof_C 	C 	0.71434	0.50025	0.36527	0.136
Mof_C 	C 	0.63682	0.54384	0.32712	-0.089
Mof_C 	C 	0.56519	0.58365	0.35097	-0.086
Mof_C 	C 	0.59762	0.56516	0.4046	0.136
Mof_C 	C 	0.79818	0.44992	0.35912	-0.139
Mof_C 	C 	0.87752	0.4097	0.39726	0.112
Mof_C 	C 	0.99378	0.37212	0.46452	0.076
Mof_C 	C 	0.02197	0.32968	0.43518	-0.046
Mof_C 	C 	0.95152	0.35322	0.39374	-0.118
Mof_C 	C 	0.05773	0.36713	0.50701	-0.109
Mof_C 	C 	0.01813	0.40203	0.54071	0.132
Mof_C 	C 	0.88799	0.45961	0.58461	0.147
Mof_C 	C 	0.99514	0.43195	0.61357	-0.119
Mof_C 	C 	0.07547	0.39725	0.58641	-0.058
Mof_C 	C 	0.77776	0.49533	0.59975	-0.141
Mof_C 	C 	0.67937	0.52518	0.56808	0.112
Mof_C 	C 	0.57555	0.56986	0.49764	0.116
Mof_C 	C 	0.50713	0.59218	0.54056	-0.077
Mof_C 	C 	0.57031	0.56482	0.58416	-0.079
Mof_C 	C 	0.54203	0.59067	0.44487	-0.134
Mof_C 	C 	0.8076	0.4402	0.3062	0.136
Mof_C 	C 	0.71932	0.4139	0.29666	-0.178
Mof_C 	C 	0.72916	0.40613	0.24655	0.089
Mof_C 	C 	0.82755	0.42477	0.20673	-0.173
Mof_C 	C 	0.91717	0.44936	0.2159	0.11
Mof_C 	C 	0.9059	0.4577	0.2653	-0.187
Mof_C 	C 	0.16789	0.31814	0.51868	0.115
Mof_C 	C 	0.26733	0.31533	0.47721	-0.159
Mof_C 	C 	0.362	0.26502	0.48478	0.068
Mof_C 	C 	0.35664	0.21721	0.53411	-0.147
Mof_C 	C 	0.26291	0.22098	0.5774	0.068
Mof_C 	C 	0.17053	0.27173	0.56941	-0.156
Mof_C 	C 	0.76117	0.50533	0.65313	0.145
Mof_C 	C 	0.81735	0.54886	0.65704	-0.195
Mof_C 	C 	0.78214	0.56763	0.70189	0.11
Mof_C 	C 	0.69035	0.54202	0.74288	-0.192
Mof_C 	C 	0.63943	0.49594	0.741	0.114
Mof_C 	C 	0.67548	0.47713	0.69651	-0.19
Mof_C 	C 	0.44544	0.64636	0.42976	0.141
Mof_C 	C 	0.32386	0.64548	0.4246	-0.178
Mof_C 	C 	0.23398	0.69824	0.415	0.099
Mof_C 	C 	0.268	0.75092	0.40988	-0.17
Mof_C 	C 	0.39011	0.75328	0.4121	0.102
Mof_C 	C 	0.47787	0.70066	0.4222	-0.181
Mof_C 	C 	0.42014	0.00025	0.86527	0.153
Mof_C 	C 	0.49222	0.04384	0.82712	-0.096
Mof_C 	C 	0.50019	0.08365	0.85097	-0.078
Mof_C 	C 	0.43262	0.06516	0.9046	0.131
Mof_C 	C 	0.39278	0.94992	0.85912	-0.153
Mof_C 	C 	0.31552	0.9097	0.89726	0.112
Mof_C 	C 	0.16958	0.87212	0.96452	0.084
Mof_C 	C 	0.21317	0.82968	0.93518	-0.068
Mof_C 	C 	0.30152	0.85322	0.89374	-0.102
Mof_C 	C 	0.06813	0.86713	0.00701	-0.11
Mof_C 	C 	0.03913	0.90203	0.04071	0.142
Mof_C 	C 	0.06779	0.95961	0.08461	0.156
Mof_C 	C 	0.95934	0.93195	0.11357	-0.1
Mof_C 	C 	0.94087	0.89725	0.08641	-0.086
Mof_C 	C 	0.12716	0.99533	0.09975	-0.167
Mof_C 	C 	0.22737	0.02518	0.06808	0.133
Mof_C 	C 	0.35695	0.06986	0.99764	0.095
Mof_C 	C 	0.36013	0.09218	0.04056	-0.053
Mof_C 	C 	0.28071	0.06482	0.08416	-0.094
Mof_C 	C 	0.42243	0.09067	0.94487	-0.124
Mof_C 	C 	0.446	0.9402	0.8062	0.14
Mof_C 	C 	0.57012	0.9139	0.79666	-0.182
Mof_C 	C 	0.61816	0.90613	0.74655	0.09
Mof_C 	C 	0.54095	0.92477	0.70673	-0.175
Mof_C 	C 	0.41757	0.94936	0.7159	0.112
Mof_C 	C 	0.3711	0.9577	0.7653	-0.19
Mof_C 	C 	0.99529	0.81814	0.01868	0.131
Mof_C 	C 	0.94013	0.81533	0.97721	-0.177
Mof_C 	C 	0.8882	0.76502	0.98478	0.056
Mof_C 	C 	0.89204	0.71721	0.03411	-0.137
Mof_C 	C 	0.93871	0.72098	0.0774	0.074
Mof_C 	C 	0.98833	0.77173	0.06941	-0.177
Mof_C 	C 	0.08037	0.00533	0.15313	0.183
Mof_C 	C 	0.97675	0.04886	0.15704	-0.216
Mof_C 	C 	0.94834	0.06763	0.20189	0.115
Mof_C 	C 	0.02475	0.04202	0.24288	-0.185
Mof_C 	C 	0.12363	0.99594	0.241	0.116
Mof_C 	C 	0.15088	0.97713	0.19651	-0.214
Mof_C 	C 	0.47844	0.14636	0.92976	0.136
Mof_C 	C 	0.60606	0.14548	0.9246	-0.177
Mof_C 	C 	0.65278	0.19824	0.915	0.097
Mof_C 	C 	0.5712	0.25092	0.90988	-0.171
Mof_C 	C 	0.44451	0.25328	0.9121	0.1
Mof_C 	C 	0.39927	0.20066	0.9222	-0.179
Mof_C 	C 	0.28566	0.49975	0.63473	0.134
Mof_C 	C 	0.36318	0.45616	0.67288	-0.087
Mof_C 	C 	0.43481	0.41635	0.64903	-0.087
Mof_C 	C 	0.40238	0.43484	0.5954	0.137
Mof_C 	C 	0.20182	0.55008	0.64088	-0.132
Mof_C 	C 	0.12248	0.5903	0.60274	0.1
Mof_C 	C 	0.00622	0.62788	0.53548	0.124
Mof_C 	C 	0.97803	0.67032	0.56482	-0.111
Mof_C 	C 	0.04848	0.64678	0.60626	-0.07
Mof_C 	C 	0.94227	0.63287	0.49299	-0.144
Mof_C 	C 	0.98187	0.59797	0.45929	0.142
Mof_C 	C 	0.11201	0.54039	0.41539	0.127
Mof_C 	C 	0.00486	0.56805	0.38643	-0.049
Mof_C 	C 	0.92453	0.60275	0.41359	-0.11
Mof_C 	C 	0.22224	0.50467	0.40025	-0.131
Mof_C 	C 	0.32063	0.47482	0.43192	0.108
Mof_C 	C 	0.42445	0.43014	0.50236	0.116
Mof_C 	C 	0.49287	0.40782	0.45944	-0.079
Mof_C 	C 	0.42969	0.43518	0.41584	-0.077
Mof_C 	C 	0.45797	0.40933	0.55513	-0.134
Mof_C 	C 	0.1924	0.5598	0.6938	0.133
Mof_C 	C 	0.28068	0.5861	0.70334	-0.175
Mof_C 	C 	0.27084	0.59387	0.75345	0.087
Mof_C 	C 	0.17245	0.57523	0.79327	-0.17
Mof_C 	C 	0.08283	0.55064	0.7841	0.109
Mof_C 	C 	0.0941	0.5423	0.7347	-0.183
Mof_C 	C 	0.83211	0.68186	0.48132	0.13
Mof_C 	C 	0.73267	0.68467	0.52279	-0.17
Mof_C 	C 	0.638	0.73498	0.51522	0.075
Mof_C 	C 	0.64336	0.78279	0.46589	-0.153
Mof_C 	C 	0.73709	0.77902	0.4226	0.074
Mof_C 	C 	0.82947	0.72827	0.43059	-0.169
Mof_C 	C 	0.23883	0.49467	0.34687	0.143
Mof_C 	C 	0.18265	0.45114	0.34296	-0.191
Mof_C 	C 	0.21786	0.43237	0.29811	0.11
Mof_C 	C 	0.30965	0.45798	0.25712	-0.189
Mof_C 	C 	0.36057	0.50406	0.259	0.113
Mof_C 	C 	0.32452	0.52287	0.30349	-0.187
Mof_C 	C 	0.55456	0.35364	0.57024	0.142
Mof_C 	C 	0.67614	0.35452	0.5754	-0.18
Mof_C 	C 	0.76602	0.30176	0.585	0.1
Mof_C 	C 	0.732	0.24908	0.59012	-0.171
Mof_C 	C 	0.60989	0.24672	0.5879	0.102
Mof_C 	C 	0.52213	0.29934	0.5778	-0.181
Mof_S 	S 	0.3997	0.08603	0.35645	0.513
Mof_S 	S 	0.14927	0.35155	0.95983	0.527
Mof_S 	S 	0.99982	0.92779	0.70439	0.606
Mof_S 	S 	0.37575	0.68165	0.09931	0.586
Mof_S 	S 	0.84218	0.41397	0.14355	0.514
Mof_S 	S 	0.46065	0.14845	0.54017	0.523
Mof_S 	S 	0.632	0.57221	0.79561	0.63
Mof_S 	S 	0.15671	0.81835	0.40069	0.588
Mof_S 	S 	0.6003	0.91397	0.64355	0.515
Mof_S 	S 	0.85073	0.64845	0.04017	0.521
Mof_S 	S 	0.00018	0.07221	0.29561	0.646
Mof_S 	S 	0.62425	0.31835	0.90069	0.589
Mof_S 	S 	0.15782	0.58603	0.85645	0.513
Mof_S 	S 	0.53935	0.85155	0.45983	0.526
Mof_S 	S 	0.368	0.42779	0.20439	0.631
Mof_S 	S 	0.84329	0.18165	0.59931	0.587
Mof_N 	N 	0.61625	0.98502	0.08828	-0.242
Mof_N 	N 	0.76293	0.08092	0.05822	-0.143
Mof_N 	N 	0.89027	0.05781	0.96005	-0.244
Mof_N 	N 	0.72217	0.9718	0.98426	-0.158
Mof_N 	N 	0.68955	0.51498	0.41172	-0.233
Mof_N 	N 	0.90207	0.41908	0.44178	-0.144
Mof_N 	N 	0.90813	0.44219	0.53995	-0.252
Mof_N 	N 	0.67823	0.5282	0.51574	-0.147
Mof_N 	N 	0.38375	0.01498	0.91172	-0.223
Mof_N 	N 	0.23707	0.91908	0.94178	-0.148
Mof_N 	N 	0.10973	0.94219	0.03995	-0.252
Mof_N 	N 	0.27783	0.0282	0.01574	-0.138
Mof_N 	N 	0.31045	0.48502	0.58828	-0.233
Mof_N 	N 	0.09793	0.58092	0.55822	-0.147
Mof_N 	N 	0.09187	0.55781	0.46005	-0.245
Mof_N 	N 	0.32177	0.4718	0.48426	-0.146
Mof_O 	O 	0.99364	0.04023	0.57909	-0.978
Mof_O 	O 	0.78764	0.073	0.50772	-1.049
Mof_O 	O 	0.98149	0.0949	0.40852	-0.957
Mof_O 	O 	0.19045	0.05767	0.48163	-1.045
Mof_O 	O 	0.42034	0.02747	0.40045	-0.434
Mof_O 	O 	0.26413	0.10735	0.35619	-0.471
Mof_O 	O 	0.46652	0.13006	0.3593	-0.306
Mof_O 	O 	0.24974	0.33617	0.99255	-0.359
Mof_O 	O 	0.03418	0.38447	0.98137	-0.344
Mof_O 	O 	0.18404	0.3834	0.90172	-0.294
Mof_O 	O 	0.01116	0.86231	0.73217	-0.301
Mof_O 	O 	0.11563	0.94488	0.66886	-0.473
Mof_O 	O 	0.88773	0.95367	0.67687	-0.507
Mof_O 	O 	0.42719	0.63454	0.14648	-0.308
Mof_O 	O 	0.42738	0.66877	0.04887	-0.502
Mof_O 	O 	0.23925	0.69347	0.10683	-0.311
Mof_O 	O 	0.61296	0.45977	0.92091	-0.983
Mof_O 	O 	0.36836	0.427	0.99228	-1.068
Mof_O 	O 	0.48491	0.4051	0.09148	-0.956
Mof_O 	O 	0.72975	0.44233	0.01837	-1.047
Mof_O 	O 	0.84826	0.47253	0.09955	-0.437
Mof_O 	O 	0.72767	0.39265	0.14381	-0.471
Mof_O 	O 	0.95588	0.36994	0.1407	-0.309
Mof_O 	O 	0.57846	0.16383	0.50745	-0.354
Mof_O 	O 	0.40002	0.11553	0.51863	-0.339
Mof_O 	O 	0.46916	0.1166	0.59828	-0.289
Mof_O 	O 	0.60564	0.63769	0.76783	-0.313
Mof_O 	O 	0.72937	0.55512	0.83114	-0.482
Mof_O 	O 	0.51827	0.54633	0.82313	-0.509
Mof_O 	O 	0.20821	0.86546	0.35352	-0.31
Mof_O 	O 	0.14502	0.83123	0.45113	-0.51
Mof_O 	O 	0.03955	0.80653	0.39317	-0.311
Mof_O 	O 	0.00636	0.95977	0.42091	-0.976
Mof_O 	O 	0.21236	0.927	0.49228	-1.063
Mof_O 	O 	0.01851	0.9051	0.59148	-0.945
Mof_O 	O 	0.80955	0.94233	0.51837	-1.058
Mof_O 	O 	0.57966	0.97253	0.59955	-0.439
Mof_O 	O 	0.73587	0.89265	0.64381	-0.47
Mof_O 	O 	0.53348	0.86994	0.6407	-0.308
Mof_O 	O 	0.75026	0.66383	0.00745	-0.349
Mof_O 	O 	0.96582	0.61553	0.01863	-0.339
Mof_O 	O 	0.81596	0.6166	0.09828	-0.293
Mof_O 	O 	0.98884	0.13769	0.26783	-0.32
Mof_O 	O 	0.88437	0.05512	0.33114	-0.487
Mof_O 	O 	0.11227	0.04633	0.32313	-0.51
Mof_O 	O 	0.57281	0.36546	0.85352	-0.31
Mof_O 	O 	0.57262	0.33123	0.95113	-0.517
Mof_O 	O 	0.76075	0.30653	0.89317	-0.318
Mof_O 	O 	0.38704	0.54023	0.07909	-0.975
Mof_O 	O 	0.63164	0.573	0.00772	-1.044
Mof_O 	O 	0.51509	0.5949	0.90852	-0.946
Mof_O 	O 	0.27025	0.55767	0.98163	-1.054
Mof_O 	O 	0.15174	0.52747	0.90045	-0.437
Mof_O 	O 	0.27233	0.60735	0.85619	-0.47
Mof_O 	O 	0.04412	0.63006	0.8593	-0.304
Mof_O 	O 	0.42154	0.83617	0.49255	-0.356
Mof_O 	O 	0.59998	0.88447	0.48137	-0.346
Mof_O 	O 	0.53084	0.8834	0.40172	-0.297
Mof_O 	O 	0.39436	0.36231	0.23217	-0.312
Mof_O 	O 	0.27063	0.44488	0.16886	-0.482
Mof_O 	O 	0.48173	0.45367	0.17687	-0.51
Mof_O 	O 	0.79179	0.13454	0.64648	-0.308
Mof_O 	O 	0.85498	0.16877	0.54887	-0.509
Mof_O 	O 	0.96045	0.19347	0.60683	-0.317
Mof_O 	O 	3.59287e-17	-3.59287e-17	0.5	-0.84
Mof_O 	O 	0.5	0.5	-0	-0.843
_end
