data_functionalizedCrystal
_audit_creation_method	'EQeq! by Chris Wilmer'
_symmetry_space_group_name_H-M	'P1'
_symmetry_Int_Tables_number	1
_symmetry_cell_setting	triclinic
loop_
_symmetry_equiv_pos_as_xyz
  x,y,z
_cell_length_a	10.3803
_cell_length_b	11.3508
_cell_length_c	12.9894
_cell_angle_alpha	72.435
_cell_angle_beta	89.867
_cell_angle_gamma	87.372
loop_
_atom_site_label
_atom_site_type_symbol
_atom_site_fract_x
_atom_site_fract_y
_atom_site_fract_z
_atom_site_charge
Mof_Dy	Dy	0.479	0.04557	0.3397	1.826
Mof_C 	C 	0.4947	0.2659	0.1705	0.331
Mof_C 	C 	0.5093	0.7547	0.5059	0.466
Mof_C 	C 	0.2665	0.0091	0.5646	0.397
Mof_C 	C 	0.4982	0.3853	0.0857	-0.109
Mof_C 	C 	0.5054	0.6217	0.5055	-0.153
Mof_C 	C 	0.1295	0.0046	0.5301	-0.145
Mof_C 	C 	0.4481	0.4949	0.1021	0.052
Mof_C 	C 	0.3894	0.5608	0.5277	0.049
Mof_C 	C 	0.0767	0.0977	0.4408	0.027
Mof_C 	C 	0.3984	0.4961	0.2058	-0.082
Mof_H 	H 	0.4	0.4227	0.2625	0.078
Mof_C 	C 	0.2743	0.6203	0.5525	-0.076
Mof_H 	H 	0.2762	0.7008	0.5559	0.058
Mof_C 	C 	0.1497	0.1989	0.38	-0.073
Mof_H 	H 	0.2346	0.204	0.4003	0.04
Mof_C 	C 	0.3498	0.6011	0.2222	-0.023
Mof_H 	H 	0.3189	0.5997	0.2898	0.039
Mof_C 	C 	0.1619	0.5607	0.5711	-0.036
Mof_H 	H 	0.0875	0.601	0.5862	0.045
Mof_C 	C 	0.0974	0.2876	0.2933	-0.045
Mof_H 	H 	0.1468	0.3522	0.2544	0.051
Mof_C 	C 	0.3455	0.7148	0.1357	-0.035
Mof_H 	H 	0.3103	0.7865	0.1472	0.024
Mof_C 	C 	0.1576	0.4371	0.5676	-0.02
Mof_H 	H 	0.0803	0.397	0.5809	0.037
Mof_C 	C 	0.9673	0.2817	0.2619	-0.015
Mof_H 	H 	0.9324	0.3426	0.2023	0.04
Mof_C 	C 	0.3923	0.7191	0.0372	-0.066
Mof_H 	H 	0.3895	0.794	0.9823	0.044
Mof_C 	C 	0.2649	0.3765	0.5451	-0.089
Mof_H 	H 	0.2606	0.295	0.5446	0.066
Mof_C 	C 	0.8933	0.1886	0.3176	-0.098
Mof_H 	H 	0.8082	0.187	0.296	0.083
Mof_C 	C 	0.4461	0.6103	0.0161	0.036
Mof_C 	C 	0.3842	0.4366	0.5221	0.056
Mof_C 	C 	0.9448	0.0924	0.4095	0.054
Mof_O 	O 	0.38672	0.21701	0.19472	-0.442
Mof_O 	O 	0.49139	0.83365	0.41492	-0.524
Mof_O 	O 	0.35951	0.99366	0.50523	-0.568
Mof_O 	O 	0.59665	0.2137	0.21748	-0.412
Mof_O 	O 	0.53038	0.77575	0.59375	-0.467
Mof_O 	O 	0.28755	0.01943	0.65607	-0.424
Mof_Dy	Dy	0.521	0.95443	0.6603	1.827
Mof_C 	C 	0.5053	0.7341	0.8295	0.332
Mof_C 	C 	0.4907	0.2453	0.4941	0.467
Mof_C 	C 	0.7335	0.9909	0.4354	0.398
Mof_C 	C 	0.5018	0.6147	0.9143	-0.108
Mof_C 	C 	0.4946	0.3783	0.4945	-0.152
Mof_C 	C 	0.8705	0.9954	0.4699	-0.145
Mof_C 	C 	0.5519	0.5051	0.8979	0.052
Mof_C 	C 	0.6106	0.4392	0.4723	0.049
Mof_C 	C 	0.9233	0.9023	0.5592	0.027
Mof_C 	C 	0.6016	0.5039	0.7942	-0.082
Mof_H 	H 	0.6	0.5773	0.7375	0.078
Mof_C 	C 	0.7257	0.3797	0.4475	-0.076
Mof_H 	H 	0.7238	0.2992	0.4441	0.058
Mof_C 	C 	0.8503	0.8011	0.62	-0.073
Mof_H 	H 	0.7654	0.796	0.5997	0.04
Mof_C 	C 	0.6502	0.3989	0.7778	-0.023
Mof_H 	H 	0.6811	0.4003	0.7102	0.039
Mof_C 	C 	0.8381	0.4393	0.4289	-0.036
Mof_H 	H 	0.9125	0.399	0.4138	0.045
Mof_C 	C 	0.9026	0.7124	0.7067	-0.045
Mof_H 	H 	0.8532	0.6478	0.7456	0.051
Mof_C 	C 	0.6545	0.2852	0.8643	-0.035
Mof_H 	H 	0.6897	0.2135	0.8528	0.024
Mof_C 	C 	0.8424	0.5629	0.4324	-0.02
Mof_H 	H 	0.9197	0.603	0.4191	0.037
Mof_C 	C 	0.0327	0.7183	0.7381	-0.015
Mof_H 	H 	0.0676	0.6574	0.7977	0.04
Mof_C 	C 	0.6077	0.2809	0.9628	-0.066
Mof_H 	H 	0.6105	0.206	0.0177	0.044
Mof_C 	C 	0.7351	0.6235	0.4549	-0.089
Mof_H 	H 	0.7394	0.705	0.4554	0.066
Mof_C 	C 	0.1067	0.8114	0.6824	-0.098
Mof_H 	H 	0.1918	0.813	0.704	0.083
Mof_C 	C 	0.5539	0.3897	0.9839	0.036
Mof_C 	C 	0.6158	0.5634	0.4779	0.056
Mof_C 	C 	0.0552	0.9076	0.5905	0.054
Mof_O 	O 	0.61328	0.78299	0.80528	-0.442
Mof_O 	O 	0.50861	0.16635	0.58508	-0.524
Mof_O 	O 	0.64049	0.00634	0.49477	-0.568
Mof_O 	O 	0.40335	0.7863	0.78252	-0.412
Mof_O 	O 	0.46962	0.22425	0.40625	-0.467
Mof_O 	O 	0.71245	0.98057	0.34393	-0.424
_end
