data_functionalizedCrystal
_audit_creation_method	'EQeq! by Chris Wilmer'
_symmetry_space_group_name_H-M	'P1'
_symmetry_Int_Tables_number	1
_symmetry_cell_setting	triclinic
loop_
_symmetry_equiv_pos_as_xyz
  x,y,z
_cell_length_a	16.9958
_cell_length_b	16.9958
_cell_length_c	16.9958
_cell_angle_alpha	90
_cell_angle_beta	90
_cell_angle_gamma	90
loop_
_atom_site_label
_atom_site_type_symbol
_atom_site_fract_x
_atom_site_fract_y
_atom_site_fract_z
_atom_site_charge
Mof_N 	N 	0.90942	0.52734	0.18204	-0.318
Mof_H 	H 	0.9573	0.401	0.1068	0.228
Mof_C 	C 	0.8712	0.5973	0.1846	0.068
Mof_H 	H 	0.8818	0.6383	0.2192	-0.026
Mof_N 	N 	0.8154	0.5973	0.1288	-0.16
Mof_N 	N 	0.40942	0.02734	0.68204	-0.433
Mof_H 	H 	0.4573	0.901	0.6068	0.294
Mof_C 	C 	0.3712	0.0973	0.6846	0.052
Mof_H 	H 	0.3818	0.1383	0.7192	-0.038
Mof_N 	N 	0.3154	0.0973	0.6288	-0.16
Mof_N 	N 	0.09058	0.47266	0.18204	-0.344
Mof_H 	H 	0.0427	0.599	0.1068	0.122
Mof_C 	C 	0.1288	0.4027	0.1846	0.042
Mof_H 	H 	0.1182	0.3617	0.2192	-0.053
Mof_N 	N 	0.1846	0.4027	0.1288	-0.161
Mof_N 	N 	0.59058	0.97266	0.68204	-0.238
Mof_H 	H 	0.5427	0.099	0.6068	0.135
Mof_C 	C 	0.6288	0.9027	0.6846	0.078
Mof_H 	H 	0.6182	0.8617	0.7192	-0.037
Mof_N 	N 	0.6846	0.9027	0.6288	-0.154
Mof_N 	N 	0.09058	0.52734	0.81796	-0.353
Mof_H 	H 	0.0427	0.401	0.8932	0.191
Mof_C 	C 	0.1288	0.5973	0.8154	0.06
Mof_H 	H 	0.1182	0.6383	0.7808	-0.044
Mof_N 	N 	0.1846	0.5973	0.8712	-0.154
Mof_N 	N 	0.59058	0.02734	0.31796	-0.433
Mof_H 	H 	0.5427	0.901	0.3932	0.295
Mof_C 	C 	0.6288	0.0973	0.3154	0.051
Mof_H 	H 	0.6182	0.1383	0.2808	-0.037
Mof_N 	N 	0.6846	0.0973	0.3712	-0.16
Mof_N 	N 	0.90942	0.47266	0.81796	-0.328
Mof_H 	H 	0.9573	0.599	0.8932	0.319
Mof_C 	C 	0.8712	0.4027	0.8154	0.081
Mof_H 	H 	0.8818	0.3617	0.7808	-0.027
Mof_N 	N 	0.8154	0.4027	0.8712	-0.154
Mof_N 	N 	0.40942	0.97266	0.31796	-0.238
Mof_H 	H 	0.4573	0.099	0.3932	0.135
Mof_C 	C 	0.3712	0.9027	0.3154	0.071
Mof_H 	H 	0.3818	0.8617	0.2808	-0.038
Mof_N 	N 	0.3154	0.9027	0.3712	-0.155
Mof_N 	N 	0.18204	0.90942	0.52734	-0.317
Mof_H 	H 	0.1068	0.9573	0.401	0.229
Mof_C 	C 	0.1846	0.8712	0.5973	0.069
Mof_H 	H 	0.2192	0.8818	0.6383	-0.026
Mof_N 	N 	0.1288	0.8154	0.5973	-0.16
Mof_N 	N 	0.68204	0.40942	0.02734	-0.433
Mof_H 	H 	0.6068	0.4573	0.901	0.294
Mof_C 	C 	0.6846	0.3712	0.0973	0.052
Mof_H 	H 	0.7192	0.3818	0.1383	-0.038
Mof_N 	N 	0.6288	0.3154	0.0973	-0.16
Mof_N 	N 	0.18204	0.09058	0.47266	-0.344
Mof_H 	H 	0.1068	0.0427	0.599	0.122
Mof_C 	C 	0.1846	0.1288	0.4027	0.042
Mof_H 	H 	0.2192	0.1182	0.3617	-0.053
Mof_N 	N 	0.1288	0.1846	0.4027	-0.161
Mof_N 	N 	0.68204	0.59058	0.97266	-0.238
Mof_H 	H 	0.6068	0.5427	0.099	0.135
Mof_C 	C 	0.6846	0.6288	0.9027	0.078
Mof_H 	H 	0.7192	0.6182	0.8617	-0.037
Mof_N 	N 	0.6288	0.6846	0.9027	-0.154
Mof_N 	N 	0.81796	0.09058	0.52734	-0.353
Mof_H 	H 	0.8932	0.0427	0.401	0.191
Mof_C 	C 	0.8154	0.1288	0.5973	0.06
Mof_H 	H 	0.7808	0.1182	0.6383	-0.044
Mof_N 	N 	0.8712	0.1846	0.5973	-0.154
Mof_N 	N 	0.31796	0.59058	0.02734	-0.433
Mof_H 	H 	0.3932	0.5427	0.901	0.295
Mof_C 	C 	0.3154	0.6288	0.0973	0.051
Mof_H 	H 	0.2808	0.6182	0.1383	-0.037
Mof_N 	N 	0.3712	0.6846	0.0973	-0.16
Mof_N 	N 	0.81796	0.90942	0.47266	-0.328
Mof_H 	H 	0.8932	0.9573	0.599	0.319
Mof_C 	C 	0.8154	0.8712	0.4027	0.081
Mof_H 	H 	0.7808	0.8818	0.3617	-0.027
Mof_N 	N 	0.8712	0.8154	0.4027	-0.154
Mof_N 	N 	0.31796	0.40942	0.97266	-0.238
Mof_H 	H 	0.3932	0.4573	0.099	0.135
Mof_C 	C 	0.3154	0.3712	0.9027	0.071
Mof_H 	H 	0.2808	0.3818	0.8617	-0.038
Mof_N 	N 	0.3712	0.3154	0.9027	-0.155
Mof_N 	N 	0.52734	0.18204	0.90942	-0.317
Mof_H 	H 	0.401	0.1068	0.9573	0.229
Mof_C 	C 	0.5973	0.1846	0.8712	0.069
Mof_H 	H 	0.6383	0.2192	0.8818	-0.026
Mof_N 	N 	0.5973	0.1288	0.8154	-0.16
Mof_N 	N 	0.02734	0.68204	0.40942	-0.433
Mof_H 	H 	0.901	0.6068	0.4573	0.294
Mof_C 	C 	0.0973	0.6846	0.3712	0.052
Mof_H 	H 	0.1383	0.7192	0.3818	-0.038
Mof_N 	N 	0.0973	0.6288	0.3154	-0.16
Mof_N 	N 	0.47266	0.18204	0.09058	-0.344
Mof_H 	H 	0.599	0.1068	0.0427	0.122
Mof_C 	C 	0.4027	0.1846	0.1288	0.042
Mof_H 	H 	0.3617	0.2192	0.1182	-0.053
Mof_N 	N 	0.4027	0.1288	0.1846	-0.161
Mof_N 	N 	0.97266	0.68204	0.59058	-0.238
Mof_H 	H 	0.099	0.6068	0.5427	0.135
Mof_C 	C 	0.9027	0.6846	0.6288	0.078
Mof_H 	H 	0.8617	0.7192	0.6182	-0.037
Mof_N 	N 	0.9027	0.6288	0.6846	-0.154
Mof_N 	N 	0.52734	0.81796	0.09058	-0.353
Mof_H 	H 	0.401	0.8932	0.0427	0.191
Mof_C 	C 	0.5973	0.8154	0.1288	0.06
Mof_H 	H 	0.6383	0.7808	0.1182	-0.044
Mof_N 	N 	0.5973	0.8712	0.1846	-0.154
Mof_N 	N 	0.02734	0.31796	0.59058	-0.433
Mof_H 	H 	0.901	0.3932	0.5427	0.295
Mof_C 	C 	0.0973	0.3154	0.6288	0.051
Mof_H 	H 	0.1383	0.2808	0.6182	-0.037
Mof_N 	N 	0.0973	0.3712	0.6846	-0.16
Mof_N 	N 	0.47266	0.81796	0.90942	-0.328
Mof_H 	H 	0.599	0.8932	0.9573	0.319
Mof_C 	C 	0.4027	0.8154	0.8712	0.081
Mof_H 	H 	0.3617	0.7808	0.8818	-0.027
Mof_N 	N 	0.4027	0.8712	0.8154	-0.154
Mof_N 	N 	0.97266	0.31796	0.40942	-0.238
Mof_H 	H 	0.099	0.3932	0.4573	0.135
Mof_C 	C 	0.9027	0.3154	0.3712	0.071
Mof_H 	H 	0.8617	0.2808	0.3818	-0.038
Mof_N 	N 	0.9027	0.3712	0.3154	-0.155
Mof_N 	N 	0.52734	0.90942	0.18204	-0.279
Mof_H 	H 	0.401	0.9573	0.1068	0.229
Mof_H 	H 	0.6383	0.8818	0.2192	0.064
Mof_N 	N 	0.02734	0.40942	0.68204	-0.397
Mof_H 	H 	0.901	0.4573	0.6068	0.294
Mof_H 	H 	0.1383	0.3818	0.7192	0.048
Mof_N 	N 	0.47266	0.09058	0.18204	-0.311
Mof_H 	H 	0.599	0.0427	0.1068	0.122
Mof_H 	H 	0.3617	0.1182	0.2192	0.029
Mof_N 	N 	0.97266	0.59058	0.68204	-0.199
Mof_H 	H 	0.099	0.5427	0.6068	0.135
Mof_H 	H 	0.8617	0.6182	0.7192	0.056
Mof_N 	N 	0.52734	0.09058	0.81796	-0.317
Mof_H 	H 	0.401	0.0427	0.8932	0.191
Mof_H 	H 	0.6383	0.1182	0.7808	0.044
Mof_N 	N 	0.02734	0.59058	0.31796	-0.398
Mof_H 	H 	0.901	0.5427	0.3932	0.295
Mof_H 	H 	0.1383	0.6182	0.2808	0.048
Mof_N 	N 	0.47266	0.90942	0.81796	-0.288
Mof_H 	H 	0.599	0.9573	0.8932	0.319
Mof_H 	H 	0.3617	0.8818	0.7808	0.068
Mof_N 	N 	0.97266	0.40942	0.31796	-0.201
Mof_H 	H 	0.099	0.4573	0.3932	0.135
Mof_H 	H 	0.8617	0.3818	0.2808	0.052
Mof_N 	N 	0.90942	0.18204	0.52734	-0.279
Mof_H 	H 	0.9573	0.1068	0.401	0.229
Mof_H 	H 	0.8818	0.2192	0.6383	0.064
Mof_N 	N 	0.40942	0.68204	0.02734	-0.397
Mof_H 	H 	0.4573	0.6068	0.901	0.294
Mof_H 	H 	0.3818	0.7192	0.1383	0.048
Mof_N 	N 	0.09058	0.18204	0.47266	-0.311
Mof_H 	H 	0.0427	0.1068	0.599	0.122
Mof_H 	H 	0.1182	0.2192	0.3617	0.029
Mof_N 	N 	0.59058	0.68204	0.97266	-0.199
Mof_H 	H 	0.5427	0.6068	0.099	0.135
Mof_H 	H 	0.6182	0.7192	0.8617	0.056
Mof_N 	N 	0.09058	0.81796	0.52734	-0.317
Mof_H 	H 	0.0427	0.8932	0.401	0.191
Mof_H 	H 	0.1182	0.7808	0.6383	0.044
Mof_N 	N 	0.59058	0.31796	0.02734	-0.398
Mof_H 	H 	0.5427	0.3932	0.901	0.295
Mof_H 	H 	0.6182	0.2808	0.1383	0.048
Mof_N 	N 	0.90942	0.81796	0.47266	-0.288
Mof_H 	H 	0.9573	0.8932	0.599	0.319
Mof_H 	H 	0.8818	0.7808	0.3617	0.068
Mof_N 	N 	0.40942	0.31796	0.97266	-0.201
Mof_H 	H 	0.4573	0.3932	0.099	0.135
Mof_H 	H 	0.3818	0.2808	0.8617	0.052
Mof_N 	N 	0.18204	0.52734	0.90942	-0.279
Mof_H 	H 	0.1068	0.401	0.9573	0.229
Mof_H 	H 	0.2192	0.6383	0.8818	0.064
Mof_N 	N 	0.68204	0.02734	0.40942	-0.397
Mof_H 	H 	0.6068	0.901	0.4573	0.294
Mof_H 	H 	0.7192	0.1383	0.3818	0.048
Mof_N 	N 	0.18204	0.47266	0.09058	-0.311
Mof_H 	H 	0.1068	0.599	0.0427	0.122
Mof_H 	H 	0.2192	0.3617	0.1182	0.029
Mof_N 	N 	0.68204	0.97266	0.59058	-0.199
Mof_H 	H 	0.6068	0.099	0.5427	0.135
Mof_H 	H 	0.7192	0.8617	0.6182	0.056
Mof_N 	N 	0.81796	0.52734	0.09058	-0.317
Mof_H 	H 	0.8932	0.401	0.0427	0.191
Mof_H 	H 	0.7808	0.6383	0.1182	0.044
Mof_N 	N 	0.31796	0.02734	0.59058	-0.398
Mof_H 	H 	0.3932	0.901	0.5427	0.295
Mof_H 	H 	0.2808	0.1383	0.6182	0.048
Mof_N 	N 	0.81796	0.47266	0.90942	-0.288
Mof_H 	H 	0.8932	0.599	0.9573	0.319
Mof_H 	H 	0.7808	0.3617	0.8818	0.068
Mof_N 	N 	0.31796	0.97266	0.40942	-0.201
Mof_H 	H 	0.3932	0.099	0.4573	0.135
Mof_H 	H 	0.2808	0.8617	0.3818	0.052
Mof_Zn	Zn	3.50831e-33	0.5	0.25	1.139
Mof_Zn	Zn	7.95397e-33	0.5	0.75	1.141
Mof_Zn	Zn	0.25	0	0.5	1.139
Mof_Zn	Zn	0.75	0	0.5	1.141
Mof_Zn	Zn	0.5	0.25	-0	1.139
Mof_Zn	Zn	0.5	0.75	-0	1.141
Mof_Zn	Zn	0.5	0	0.25	1.139
Mof_Zn	Zn	0.5	5.14192e-33	0.75	1.141
Mof_Zn	Zn	1.8747e-33	0.25	0.5	1.139
Mof_Zn	Zn	7.01662e-33	0.75	0.5	1.141
Mof_Zn	Zn	0.25	0.5	-0	1.139
Mof_Zn	Zn	0.75	0.5	-0	1.141
Mof_C 	C 	0.87594	0.4884	0.12406	0.263
Mof_C 	C 	0.9018	0.4069	0.0982	-0.772
Mof_H 	H 	0.8734	0.3674	0.1266	0.225
Mof_C 	C 	0.37594	0.9884	0.62406	0.502
Mof_C 	C 	0.4018	0.9069	0.5982	-1.009
Mof_H 	H 	0.3734	0.8674	0.6266	0.302
Mof_C 	C 	0.12406	0.5116	0.12406	0.2
Mof_C 	C 	0.0982	0.5931	0.0982	-0.626
Mof_H 	H 	0.1266	0.6326	0.1266	0.169
Mof_C 	C 	0.62406	0.0116	0.62406	0.032
Mof_C 	C 	0.5982	0.0931	0.5982	-0.556
Mof_H 	H 	0.6266	0.1326	0.6266	0.16
Mof_C 	C 	0.12406	0.4884	0.87594	0.263
Mof_C 	C 	0.0982	0.4069	0.9018	-0.772
Mof_H 	H 	0.1266	0.3674	0.8734	0.225
Mof_C 	C 	0.62406	0.9884	0.37594	0.502
Mof_C 	C 	0.5982	0.9069	0.4018	-1.009
Mof_H 	H 	0.6266	0.8674	0.3734	0.302
Mof_C 	C 	0.87594	0.5116	0.87594	0.338
Mof_C 	C 	0.9018	0.5931	0.9018	-0.96
Mof_H 	H 	0.8734	0.6326	0.8734	0.307
Mof_C 	C 	0.37594	0.0116	0.37594	0.029
Mof_C 	C 	0.4018	0.0931	0.4018	-0.553
Mof_H 	H 	0.3734	0.1326	0.3734	0.158
Mof_C 	C 	0.12406	0.87594	0.4884	0.263
Mof_C 	C 	0.0982	0.9018	0.4069	-0.772
Mof_H 	H 	0.1266	0.8734	0.3674	0.225
Mof_C 	C 	0.62406	0.37594	0.9884	0.502
Mof_C 	C 	0.5982	0.4018	0.9069	-1.009
Mof_H 	H 	0.6266	0.3734	0.8674	0.302
Mof_C 	C 	0.12406	0.12406	0.5116	0.2
Mof_C 	C 	0.0982	0.0982	0.5931	-0.626
Mof_H 	H 	0.1266	0.1266	0.6326	0.169
Mof_C 	C 	0.62406	0.62406	0.0116	0.032
Mof_C 	C 	0.5982	0.5982	0.0931	-0.556
Mof_H 	H 	0.6266	0.6266	0.1326	0.16
Mof_C 	C 	0.87594	0.12406	0.4884	0.263
Mof_C 	C 	0.9018	0.0982	0.4069	-0.772
Mof_H 	H 	0.8734	0.1266	0.3674	0.225
Mof_C 	C 	0.37594	0.62406	0.9884	0.502
Mof_C 	C 	0.4018	0.5982	0.9069	-1.009
Mof_H 	H 	0.3734	0.6266	0.8674	0.302
Mof_C 	C 	0.87594	0.87594	0.5116	0.338
Mof_C 	C 	0.9018	0.9018	0.5931	-0.96
Mof_H 	H 	0.8734	0.8734	0.6326	0.307
Mof_C 	C 	0.37594	0.37594	0.0116	0.029
Mof_C 	C 	0.4018	0.4018	0.0931	-0.553
Mof_H 	H 	0.3734	0.3734	0.1326	0.158
Mof_C 	C 	0.4884	0.12406	0.87594	0.263
Mof_C 	C 	0.4069	0.0982	0.9018	-0.772
Mof_H 	H 	0.3674	0.1266	0.8734	0.225
Mof_C 	C 	0.9884	0.62406	0.37594	0.502
Mof_C 	C 	0.9069	0.5982	0.4018	-1.009
Mof_H 	H 	0.8674	0.6266	0.3734	0.302
Mof_C 	C 	0.5116	0.12406	0.12406	0.2
Mof_C 	C 	0.5931	0.0982	0.0982	-0.626
Mof_H 	H 	0.6326	0.1266	0.1266	0.169
Mof_C 	C 	0.0116	0.62406	0.62406	0.032
Mof_C 	C 	0.0931	0.5982	0.5982	-0.556
Mof_H 	H 	0.1326	0.6266	0.6266	0.16
Mof_C 	C 	0.4884	0.87594	0.12406	0.263
Mof_C 	C 	0.4069	0.9018	0.0982	-0.772
Mof_H 	H 	0.3674	0.8734	0.1266	0.225
Mof_C 	C 	0.9884	0.37594	0.62406	0.502
Mof_C 	C 	0.9069	0.4018	0.5982	-1.009
Mof_H 	H 	0.8674	0.3734	0.6266	0.302
Mof_C 	C 	0.5116	0.87594	0.87594	0.338
Mof_C 	C 	0.5931	0.9018	0.9018	-0.96
Mof_H 	H 	0.6326	0.8734	0.8734	0.307
Mof_C 	C 	0.0116	0.37594	0.37594	0.029
Mof_C 	C 	0.0931	0.4018	0.4018	-0.553
Mof_H 	H 	0.1326	0.3734	0.3734	0.158
_end
