data_functionalizedCrystal
_audit_creation_method	'EQeq! by Chris Wilmer'
_symmetry_space_group_name_H-M	'P1'
_symmetry_Int_Tables_number	1
_symmetry_cell_setting	triclinic
loop_
_symmetry_equiv_pos_as_xyz
  x,y,z
_cell_length_a	7.0465
_cell_length_b	15.646
_cell_length_c	17.396
_cell_angle_alpha	90
_cell_angle_beta	90
_cell_angle_gamma	90
loop_
_atom_site_label
_atom_site_type_symbol
_atom_site_fract_x
_atom_site_fract_y
_atom_site_fract_z
_atom_site_charge
Mof_P 	P 	0.2533	0.13322	0.40057	0.527
Mof_O 	O 	0.2924	0.1463	0.3151	-0.521
Mof_O 	O 	0.4343	0.1043	0.4417	-0.493
Mof_O 	O 	0.0902	0.0711	0.4126	-0.559
Mof_O 	O 	0.3594	0.3599	0.4608	-0.297
Mof_O 	O 	0.2991	0.3249	0.3417	-0.549
Mof_C 	C 	0.289	0.3116	0.4143	0.5
Mof_C 	C 	0.1794	0.2338	0.4403	-0.602
Mof_H 	H 	0.0468	0.2424	0.4275	0.153
Mof_H 	H 	0.1883	0.2302	0.4958	0.194
Mof_P 	P 	0.2467	0.86678	0.40057	0.543
Mof_O 	O 	0.2076	0.8537	0.3151	-0.49
Mof_O 	O 	0.0657	0.8957	0.4417	-0.487
Mof_O 	O 	0.4098	0.9289	0.4126	-0.407
Mof_O 	O 	0.1406	0.6401	0.4608	-0.344
Mof_O 	O 	0.2009	0.6751	0.3417	-0.566
Mof_C 	C 	0.211	0.6884	0.4143	0.527
Mof_C 	C 	0.3206	0.7662	0.4403	-0.652
Mof_H 	H 	0.4532	0.7576	0.4275	0.226
Mof_H 	H 	0.3117	0.7698	0.4958	0.228
Mof_P 	P 	0.2467	0.63322	0.09943	0.527
Mof_O 	O 	0.2076	0.6463	0.1849	-0.51
Mof_O 	O 	0.0657	0.6043	0.0583	-0.587
Mof_O 	O 	0.4098	0.5711	0.0874	-0.5
Mof_O 	O 	0.1406	0.8599	0.0392	-0.372
Mof_O 	O 	0.2009	0.8249	0.1583	-0.554
Mof_C 	C 	0.211	0.8116	0.0857	0.507
Mof_C 	C 	0.3206	0.7338	0.0597	-0.627
Mof_H 	H 	0.4532	0.7424	0.0725	0.191
Mof_H 	H 	0.3117	0.7302	0.0042	0.163
Mof_P 	P 	0.2533	0.36678	0.09943	0.515
Mof_O 	O 	0.2924	0.3537	0.1849	-0.498
Mof_O 	O 	0.4343	0.3957	0.0583	-0.525
Mof_O 	O 	0.0902	0.4289	0.0874	-0.551
Mof_O 	O 	0.3594	0.1401	0.0392	-0.39
Mof_O 	O 	0.2991	0.1751	0.1583	-0.578
Mof_C 	C 	0.289	0.1884	0.0857	0.488
Mof_C 	C 	0.1794	0.2662	0.0597	-0.584
Mof_H 	H 	0.0468	0.2576	0.0725	0.115
Mof_H 	H 	0.1883	0.2698	0.0042	0.131
Mof_P 	P 	0.7467	0.86678	0.59943	0.549
Mof_O 	O 	0.7076	0.8537	0.6849	-0.466
Mof_O 	O 	0.5657	0.8957	0.5583	-0.437
Mof_O 	O 	0.9098	0.9289	0.5874	-0.358
Mof_O 	O 	0.6406	0.6401	0.5392	-0.284
Mof_O 	O 	0.7009	0.6751	0.6583	-0.547
Mof_C 	C 	0.711	0.6884	0.5857	0.542
Mof_C 	C 	0.8206	0.7662	0.5597	-0.668
Mof_H 	H 	0.9532	0.7576	0.5725	0.264
Mof_H 	H 	0.8117	0.7698	0.5042	0.279
Mof_P 	P 	0.7533	0.13322	0.59943	0.533
Mof_O 	O 	0.7924	0.1463	0.6849	-0.497
Mof_O 	O 	0.9343	0.1043	0.5583	-0.426
Mof_O 	O 	0.5902	0.0711	0.5874	-0.522
Mof_O 	O 	0.8594	0.3599	0.5392	-0.237
Mof_O 	O 	0.7991	0.3249	0.6583	-0.53
Mof_C 	C 	0.789	0.3116	0.5857	0.516
Mof_C 	C 	0.6794	0.2338	0.5597	-0.619
Mof_H 	H 	0.5468	0.2424	0.5725	0.193
Mof_H 	H 	0.6883	0.2302	0.5042	0.248
Mof_P 	P 	0.7533	0.36678	0.90057	0.548
Mof_O 	O 	0.7924	0.3537	0.8151	-0.481
Mof_O 	O 	0.9343	0.3957	0.9417	-0.351
Mof_O 	O 	0.5902	0.4289	0.9126	-0.451
Mof_O 	O 	0.8594	0.1401	0.9608	-0.208
Mof_O 	O 	0.7991	0.1751	0.8417	-0.541
Mof_C 	C 	0.789	0.1884	0.9143	0.535
Mof_C 	C 	0.6794	0.2662	0.9403	-0.645
Mof_H 	H 	0.5468	0.2576	0.9275	0.227
Mof_H 	H 	0.6883	0.2698	0.9958	0.31
Mof_P 	P 	0.7467	0.63322	0.90057	0.559
Mof_O 	O 	0.7076	0.6463	0.8151	-0.492
Mof_O 	O 	0.5657	0.6043	0.9417	-0.428
Mof_O 	O 	0.9098	0.5711	0.9126	-0.386
Mof_O 	O 	0.6406	0.8599	0.9608	-0.191
Mof_O 	O 	0.7009	0.8249	0.8417	-0.518
Mof_C 	C 	0.711	0.8116	0.9143	0.553
Mof_C 	C 	0.8206	0.7338	0.9403	-0.686
Mof_H 	H 	0.9532	0.7424	0.9275	0.3
Mof_H 	H 	0.8117	0.7302	0.9958	0.339
Mof_V 	V 	0.2469	0.25	0.25	1.701
Mof_V 	V 	0.2531	0.75	0.25	1.712
Mof_V 	V 	0.7531	0.75	0.75	1.723
Mof_V 	V 	0.7469	0.25	0.75	1.712
Mof_V 	V 	0.5	0	0.5	1.776
Mof_V 	V 	4.62815e-33	0	0.5	1.721
Mof_V 	V 	-1.31621e-32	0.5	-0	1.7
Mof_V 	V 	0.5	0.5	-0	1.753
Mof_O 	O 	0.75	0	0.4582	-0.649
Mof_O 	O 	0.75	0.5	0.0418	-0.64
Mof_O 	O 	0.25	0	0.5418	-0.743
Mof_O 	O 	0.25	0.5	0.9582	-0.584
_end
