data_functionalizedCrystal
_audit_creation_method	'EQeq! by Chris Wilmer'
_symmetry_space_group_name_H-M	'P1'
_symmetry_Int_Tables_number	1
_symmetry_cell_setting	triclinic
loop_
_symmetry_equiv_pos_as_xyz
  x,y,z
_cell_length_a	17.54
_cell_length_b	17.54
_cell_length_c	21.383
_cell_angle_alpha	90
_cell_angle_beta	90
_cell_angle_gamma	90
loop_
_atom_site_label
_atom_site_type_symbol
_atom_site_fract_x
_atom_site_fract_y
_atom_site_fract_z
_atom_site_charge
Mof_O 	O 	0.3616	0.069	0.0037	-0.237
Mof_N 	N 	0.3626	0.2626	0.0588	-0.216
Mof_N 	N 	0.2941	0.1223	0.0782	-0.163
Mof_N 	N 	0.2689	0.0459	0.0712	-0.107
Mof_C 	C 	0.3972	0.3298	0.0498	0.07
Mof_H 	H 	0.3824	0.3716	0.0736	-0.001
Mof_C 	C 	0.4541	0.3381	0.0062	-0.117
Mof_H 	H 	0.476	0.3858	0.0004	0.071
Mof_C 	C 	0.4791	0.2791	0.9717	0.033
Mof_H 	H 	0.5175	0.2856	0.9422	0.026
Mof_C 	C 	0.4448	0.2058	0.9815	-0.097
Mof_H 	H 	0.4603	0.163	0.9592	0.08
Mof_C 	C 	0.3882	0.2023	0.0252	0.04
Mof_C 	C 	0.3469	0.1302	0.0377	0.146
Mof_C 	C 	0.3084	0.018	0.0267	0.148
Mof_C 	C 	0.3037	0.9432	0.9973	0.046
Mof_C 	C 	0.2538	0.8888	0.0195	-0.136
Mof_H 	H 	0.2254	0.897	0.0556	0.086
Mof_C 	C 	0.3476	0.9245	0.9442	-0.121
Mof_H 	H 	0.3843	0.9582	0.9293	0.089
Mof_N 	N 	0.2827	0.806	0.9346	-0.229
Mof_C 	C 	0.2475	0.8225	0.9864	0.094
Mof_H 	H 	0.2149	0.7856	0.0025	-0.006
Mof_C 	C 	0.336	0.8577	0.9156	0.071
Mof_H 	H 	0.3658	0.8459	0.8809	0.002
Mof_O 	O 	0.8616	0.569	0.5037	-0.238
Mof_N 	N 	0.8626	0.7626	0.5588	-0.217
Mof_N 	N 	0.7941	0.6223	0.5782	-0.164
Mof_N 	N 	0.7689	0.5459	0.5712	-0.108
Mof_C 	C 	0.8972	0.8298	0.5498	0.069
Mof_H 	H 	0.8824	0.8716	0.5736	-0.002
Mof_C 	C 	0.9541	0.8381	0.5062	-0.118
Mof_H 	H 	0.976	0.8858	0.5004	0.07
Mof_C 	C 	0.9791	0.7791	0.4717	0.033
Mof_H 	H 	0.0175	0.7856	0.4422	0.026
Mof_C 	C 	0.9448	0.7058	0.4815	-0.097
Mof_H 	H 	0.9603	0.663	0.4592	0.08
Mof_C 	C 	0.8882	0.7023	0.5252	0.04
Mof_C 	C 	0.8469	0.6302	0.5377	0.146
Mof_C 	C 	0.8084	0.518	0.5267	0.148
Mof_C 	C 	0.8037	0.4432	0.4973	0.046
Mof_C 	C 	0.7538	0.3888	0.5195	-0.136
Mof_H 	H 	0.7254	0.397	0.5556	0.086
Mof_C 	C 	0.8476	0.4245	0.4442	-0.121
Mof_H 	H 	0.8843	0.4582	0.4293	0.089
Mof_N 	N 	0.7827	0.306	0.4346	-0.229
Mof_C 	C 	0.7475	0.3225	0.4864	0.094
Mof_H 	H 	0.7149	0.2856	0.5025	-0.006
Mof_C 	C 	0.836	0.3577	0.4156	0.071
Mof_H 	H 	0.8658	0.3459	0.3809	0.002
Mof_O 	O 	0.6384	0.931	0.0037	-0.238
Mof_N 	N 	0.6374	0.7374	0.0588	-0.217
Mof_N 	N 	0.7059	0.8777	0.0782	-0.164
Mof_N 	N 	0.7311	0.9541	0.0712	-0.108
Mof_C 	C 	0.6028	0.6702	0.0498	0.069
Mof_H 	H 	0.6176	0.6284	0.0736	-0.002
Mof_C 	C 	0.5459	0.6619	0.0062	-0.118
Mof_H 	H 	0.524	0.6142	0.0004	0.07
Mof_C 	C 	0.5209	0.7209	0.9717	0.033
Mof_H 	H 	0.4825	0.7144	0.9422	0.026
Mof_C 	C 	0.5552	0.7942	0.9815	-0.097
Mof_H 	H 	0.5397	0.837	0.9592	0.08
Mof_C 	C 	0.6118	0.7977	0.0252	0.04
Mof_C 	C 	0.6531	0.8698	0.0377	0.146
Mof_C 	C 	0.6916	0.982	0.0267	0.148
Mof_C 	C 	0.6963	0.0568	0.9973	0.046
Mof_C 	C 	0.7462	0.1112	0.0195	-0.136
Mof_H 	H 	0.7746	0.103	0.0556	0.086
Mof_C 	C 	0.6524	0.0755	0.9442	-0.121
Mof_H 	H 	0.6157	0.0418	0.9293	0.089
Mof_N 	N 	0.7173	0.194	0.9346	-0.229
Mof_C 	C 	0.7525	0.1775	0.9864	0.094
Mof_H 	H 	0.7851	0.2144	0.0025	-0.006
Mof_C 	C 	0.664	0.1423	0.9156	0.071
Mof_H 	H 	0.6342	0.1541	0.8809	0.002
Mof_O 	O 	0.1384	0.431	0.5037	-0.238
Mof_N 	N 	0.1374	0.2374	0.5588	-0.217
Mof_N 	N 	0.2059	0.3777	0.5782	-0.164
Mof_N 	N 	0.2311	0.4541	0.5712	-0.108
Mof_C 	C 	0.1028	0.1702	0.5498	0.069
Mof_H 	H 	0.1176	0.1284	0.5736	-0.002
Mof_C 	C 	0.0459	0.1619	0.5062	-0.118
Mof_H 	H 	0.024	0.1142	0.5004	0.07
Mof_C 	C 	0.0209	0.2209	0.4717	0.033
Mof_H 	H 	0.9825	0.2144	0.4422	0.026
Mof_C 	C 	0.0552	0.2942	0.4815	-0.097
Mof_H 	H 	0.0397	0.337	0.4592	0.08
Mof_C 	C 	0.1118	0.2977	0.5252	0.04
Mof_C 	C 	0.1531	0.3698	0.5377	0.146
Mof_C 	C 	0.1916	0.482	0.5267	0.148
Mof_C 	C 	0.1963	0.5568	0.4973	0.046
Mof_C 	C 	0.2462	0.6112	0.5195	-0.136
Mof_H 	H 	0.2746	0.603	0.5556	0.086
Mof_C 	C 	0.1524	0.5755	0.4442	-0.121
Mof_H 	H 	0.1157	0.5418	0.4293	0.089
Mof_N 	N 	0.2173	0.694	0.4346	-0.229
Mof_C 	C 	0.2525	0.6775	0.4864	0.094
Mof_H 	H 	0.2851	0.7144	0.5025	-0.006
Mof_C 	C 	0.164	0.6423	0.4156	0.071
Mof_H 	H 	0.1342	0.6541	0.3809	0.002
Mof_O 	O 	0.069	0.6384	0.9963	-0.238
Mof_N 	N 	0.2626	0.6374	0.9412	-0.217
Mof_N 	N 	0.1223	0.7059	0.9218	-0.164
Mof_N 	N 	0.0459	0.7311	0.9288	-0.108
Mof_C 	C 	0.3298	0.6028	0.9502	0.069
Mof_H 	H 	0.3716	0.6176	0.9264	-0.002
Mof_C 	C 	0.3381	0.5459	0.9938	-0.118
Mof_H 	H 	0.3858	0.524	0.9996	0.07
Mof_C 	C 	0.2791	0.5209	0.0283	0.033
Mof_H 	H 	0.2856	0.4825	0.0578	0.026
Mof_C 	C 	0.2058	0.5552	0.0185	-0.097
Mof_H 	H 	0.163	0.5397	0.0408	0.08
Mof_C 	C 	0.2023	0.6118	0.9748	0.04
Mof_C 	C 	0.1302	0.6531	0.9623	0.146
Mof_C 	C 	0.018	0.6916	0.9733	0.148
Mof_C 	C 	0.9432	0.6963	0.0027	0.046
Mof_C 	C 	0.8888	0.7462	0.9805	-0.136
Mof_H 	H 	0.897	0.7746	0.9444	0.086
Mof_C 	C 	0.9245	0.6524	0.0558	-0.121
Mof_H 	H 	0.9582	0.6157	0.0707	0.089
Mof_N 	N 	0.806	0.7173	0.0654	-0.229
Mof_C 	C 	0.8225	0.7525	0.0136	0.094
Mof_H 	H 	0.7856	0.7851	0.9975	-0.006
Mof_C 	C 	0.8577	0.664	0.0844	0.071
Mof_H 	H 	0.8459	0.6342	0.1191	0.002
Mof_O 	O 	0.569	0.1384	0.4963	-0.238
Mof_N 	N 	0.7626	0.1374	0.4412	-0.217
Mof_N 	N 	0.6223	0.2059	0.4218	-0.164
Mof_N 	N 	0.5459	0.2311	0.4288	-0.108
Mof_C 	C 	0.8298	0.1028	0.4502	0.069
Mof_H 	H 	0.8716	0.1176	0.4264	-0.002
Mof_C 	C 	0.8381	0.0459	0.4938	-0.118
Mof_H 	H 	0.8858	0.024	0.4996	0.07
Mof_C 	C 	0.7791	0.0209	0.5283	0.033
Mof_H 	H 	0.7856	0.9825	0.5578	0.026
Mof_C 	C 	0.7058	0.0552	0.5185	-0.097
Mof_H 	H 	0.663	0.0397	0.5408	0.08
Mof_C 	C 	0.7023	0.1118	0.4748	0.04
Mof_C 	C 	0.6302	0.1531	0.4623	0.146
Mof_C 	C 	0.518	0.1916	0.4733	0.148
Mof_C 	C 	0.4432	0.1963	0.5027	0.046
Mof_C 	C 	0.3888	0.2462	0.4805	-0.136
Mof_H 	H 	0.397	0.2746	0.4444	0.086
Mof_C 	C 	0.4245	0.1524	0.5558	-0.121
Mof_H 	H 	0.4582	0.1157	0.5707	0.089
Mof_N 	N 	0.306	0.2173	0.5654	-0.229
Mof_C 	C 	0.3225	0.2525	0.5136	0.094
Mof_H 	H 	0.2856	0.2851	0.4975	-0.006
Mof_C 	C 	0.3577	0.164	0.5844	0.071
Mof_H 	H 	0.3459	0.1342	0.6191	0.002
Mof_O 	O 	0.931	0.3616	0.9963	-0.238
Mof_N 	N 	0.7374	0.3626	0.9412	-0.217
Mof_N 	N 	0.8777	0.2941	0.9218	-0.164
Mof_N 	N 	0.9541	0.2689	0.9288	-0.108
Mof_C 	C 	0.6702	0.3972	0.9502	0.069
Mof_H 	H 	0.6284	0.3824	0.9264	-0.002
Mof_C 	C 	0.6619	0.4541	0.9938	-0.118
Mof_H 	H 	0.6142	0.476	0.9996	0.07
Mof_C 	C 	0.7209	0.4791	0.0283	0.033
Mof_H 	H 	0.7144	0.5175	0.0578	0.026
Mof_C 	C 	0.7942	0.4448	0.0185	-0.097
Mof_H 	H 	0.837	0.4603	0.0408	0.08
Mof_C 	C 	0.7977	0.3882	0.9748	0.04
Mof_C 	C 	0.8698	0.3469	0.9623	0.146
Mof_C 	C 	0.982	0.3084	0.9733	0.148
Mof_C 	C 	0.0568	0.3037	0.0027	0.046
Mof_C 	C 	0.1112	0.2538	0.9805	-0.136
Mof_H 	H 	0.103	0.2254	0.9444	0.086
Mof_C 	C 	0.0755	0.3476	0.0558	-0.121
Mof_H 	H 	0.0418	0.3843	0.0707	0.089
Mof_N 	N 	0.194	0.2827	0.0654	-0.229
Mof_C 	C 	0.1775	0.2475	0.0136	0.094
Mof_H 	H 	0.2144	0.2149	0.9975	-0.006
Mof_C 	C 	0.1423	0.336	0.0844	0.071
Mof_H 	H 	0.1541	0.3658	0.1191	0.002
Mof_O 	O 	0.431	0.8616	0.4963	-0.238
Mof_N 	N 	0.2374	0.8626	0.4412	-0.217
Mof_N 	N 	0.3777	0.7941	0.4218	-0.164
Mof_N 	N 	0.4541	0.7689	0.4288	-0.108
Mof_C 	C 	0.1702	0.8972	0.4502	0.069
Mof_H 	H 	0.1284	0.8824	0.4264	-0.002
Mof_C 	C 	0.1619	0.9541	0.4938	-0.118
Mof_H 	H 	0.1142	0.976	0.4996	0.07
Mof_C 	C 	0.2209	0.9791	0.5283	0.033
Mof_H 	H 	0.2144	0.0175	0.5578	0.026
Mof_C 	C 	0.2942	0.9448	0.5185	-0.097
Mof_H 	H 	0.337	0.9603	0.5408	0.08
Mof_C 	C 	0.2977	0.8882	0.4748	0.04
Mof_C 	C 	0.3698	0.8469	0.4623	0.146
Mof_C 	C 	0.482	0.8084	0.4733	0.148
Mof_C 	C 	0.5568	0.8037	0.5027	0.046
Mof_C 	C 	0.6112	0.7538	0.4805	-0.136
Mof_H 	H 	0.603	0.7254	0.4444	0.086
Mof_C 	C 	0.5755	0.8476	0.5558	-0.121
Mof_H 	H 	0.5418	0.8843	0.5707	0.089
Mof_N 	N 	0.694	0.7827	0.5654	-0.229
Mof_C 	C 	0.6775	0.7475	0.5136	0.094
Mof_H 	H 	0.7144	0.7149	0.4975	-0.006
Mof_C 	C 	0.6423	0.836	0.5844	0.071
Mof_H 	H 	0.6541	0.8658	0.6191	0.002
Mof_O 	O 	0.1384	0.069	0.7463	-0.238
Mof_N 	N 	0.1374	0.2626	0.6912	-0.217
Mof_N 	N 	0.2059	0.1223	0.6718	-0.164
Mof_N 	N 	0.2311	0.0459	0.6788	-0.108
Mof_C 	C 	0.1028	0.3298	0.7002	0.069
Mof_H 	H 	0.1176	0.3716	0.6764	-0.002
Mof_C 	C 	0.0459	0.3381	0.7438	-0.118
Mof_H 	H 	0.024	0.3858	0.7496	0.07
Mof_C 	C 	0.0209	0.2791	0.7783	0.033
Mof_H 	H 	0.9825	0.2856	0.8078	0.026
Mof_C 	C 	0.0552	0.2058	0.7685	-0.097
Mof_H 	H 	0.0397	0.163	0.7908	0.08
Mof_C 	C 	0.1118	0.2023	0.7248	0.04
Mof_C 	C 	0.1531	0.1302	0.7123	0.146
Mof_C 	C 	0.1916	0.018	0.7233	0.148
Mof_C 	C 	0.1963	0.9432	0.7527	0.046
Mof_C 	C 	0.2462	0.8888	0.7305	-0.136
Mof_H 	H 	0.2746	0.897	0.6944	0.086
Mof_C 	C 	0.1524	0.9245	0.8058	-0.121
Mof_H 	H 	0.1157	0.9582	0.8207	0.089
Mof_N 	N 	0.2173	0.806	0.8154	-0.229
Mof_C 	C 	0.2525	0.8225	0.7636	0.094
Mof_H 	H 	0.2851	0.7856	0.7475	-0.006
Mof_C 	C 	0.164	0.8577	0.8344	0.071
Mof_H 	H 	0.1342	0.8459	0.8691	0.002
Mof_O 	O 	0.6384	0.569	0.2463	-0.238
Mof_N 	N 	0.6374	0.7626	0.1912	-0.217
Mof_N 	N 	0.7059	0.6223	0.1718	-0.164
Mof_N 	N 	0.7311	0.5459	0.1788	-0.108
Mof_C 	C 	0.6028	0.8298	0.2002	0.069
Mof_H 	H 	0.6176	0.8716	0.1764	-0.002
Mof_C 	C 	0.5459	0.8381	0.2438	-0.118
Mof_H 	H 	0.524	0.8858	0.2496	0.07
Mof_C 	C 	0.5209	0.7791	0.2783	0.033
Mof_H 	H 	0.4825	0.7856	0.3078	0.026
Mof_C 	C 	0.5552	0.7058	0.2685	-0.097
Mof_H 	H 	0.5397	0.663	0.2908	0.08
Mof_C 	C 	0.6118	0.7023	0.2248	0.04
Mof_C 	C 	0.6531	0.6302	0.2123	0.146
Mof_C 	C 	0.6916	0.518	0.2233	0.148
Mof_C 	C 	0.6963	0.4432	0.2527	0.046
Mof_C 	C 	0.7462	0.3888	0.2305	-0.136
Mof_H 	H 	0.7746	0.397	0.1944	0.086
Mof_C 	C 	0.6524	0.4245	0.3058	-0.121
Mof_H 	H 	0.6157	0.4582	0.3207	0.089
Mof_N 	N 	0.7173	0.306	0.3154	-0.229
Mof_C 	C 	0.7525	0.3225	0.2636	0.094
Mof_H 	H 	0.7851	0.2856	0.2475	-0.006
Mof_C 	C 	0.664	0.3577	0.3344	0.071
Mof_H 	H 	0.6342	0.3459	0.3691	0.002
Mof_O 	O 	0.8616	0.931	0.7463	-0.238
Mof_N 	N 	0.8626	0.7374	0.6912	-0.217
Mof_N 	N 	0.7941	0.8777	0.6718	-0.164
Mof_N 	N 	0.7689	0.9541	0.6788	-0.108
Mof_C 	C 	0.8972	0.6702	0.7002	0.069
Mof_H 	H 	0.8824	0.6284	0.6764	-0.002
Mof_C 	C 	0.9541	0.6619	0.7438	-0.118
Mof_H 	H 	0.976	0.6142	0.7496	0.07
Mof_C 	C 	0.9791	0.7209	0.7783	0.033
Mof_H 	H 	0.0175	0.7144	0.8078	0.026
Mof_C 	C 	0.9448	0.7942	0.7685	-0.097
Mof_H 	H 	0.9603	0.837	0.7908	0.08
Mof_C 	C 	0.8882	0.7977	0.7248	0.04
Mof_C 	C 	0.8469	0.8698	0.7123	0.146
Mof_C 	C 	0.8084	0.982	0.7233	0.148
Mof_C 	C 	0.8037	0.0568	0.7527	0.046
Mof_C 	C 	0.7538	0.1112	0.7305	-0.136
Mof_H 	H 	0.7254	0.103	0.6944	0.086
Mof_C 	C 	0.8476	0.0755	0.8058	-0.121
Mof_H 	H 	0.8843	0.0418	0.8207	0.089
Mof_N 	N 	0.7827	0.194	0.8154	-0.229
Mof_C 	C 	0.7475	0.1775	0.7636	0.094
Mof_H 	H 	0.7149	0.2144	0.7475	-0.006
Mof_C 	C 	0.836	0.1423	0.8344	0.071
Mof_H 	H 	0.8658	0.1541	0.8691	0.002
Mof_O 	O 	0.3616	0.431	0.2463	-0.238
Mof_N 	N 	0.3626	0.2374	0.1912	-0.217
Mof_N 	N 	0.2941	0.3777	0.1718	-0.164
Mof_N 	N 	0.2689	0.4541	0.1788	-0.108
Mof_C 	C 	0.3972	0.1702	0.2002	0.069
Mof_H 	H 	0.3824	0.1284	0.1764	-0.002
Mof_C 	C 	0.4541	0.1619	0.2438	-0.118
Mof_H 	H 	0.476	0.1142	0.2496	0.07
Mof_C 	C 	0.4791	0.2209	0.2783	0.033
Mof_H 	H 	0.5175	0.2144	0.3078	0.026
Mof_C 	C 	0.4448	0.2942	0.2685	-0.097
Mof_H 	H 	0.4603	0.337	0.2908	0.08
Mof_C 	C 	0.3882	0.2977	0.2248	0.04
Mof_C 	C 	0.3469	0.3698	0.2123	0.146
Mof_C 	C 	0.3084	0.482	0.2233	0.148
Mof_C 	C 	0.3037	0.5568	0.2527	0.046
Mof_C 	C 	0.2538	0.6112	0.2305	-0.136
Mof_H 	H 	0.2254	0.603	0.1944	0.086
Mof_C 	C 	0.3476	0.5755	0.3058	-0.121
Mof_H 	H 	0.3843	0.5418	0.3207	0.089
Mof_N 	N 	0.2827	0.694	0.3154	-0.229
Mof_C 	C 	0.2475	0.6775	0.2636	0.094
Mof_H 	H 	0.2149	0.7144	0.2475	-0.006
Mof_C 	C 	0.336	0.6423	0.3344	0.071
Mof_H 	H 	0.3658	0.6541	0.3691	0.002
Mof_O 	O 	0.431	0.6384	0.7537	-0.238
Mof_N 	N 	0.2374	0.6374	0.8088	-0.217
Mof_N 	N 	0.3777	0.7059	0.8282	-0.164
Mof_N 	N 	0.4541	0.7311	0.8212	-0.108
Mof_C 	C 	0.1702	0.6028	0.7998	0.069
Mof_H 	H 	0.1284	0.6176	0.8236	-0.002
Mof_C 	C 	0.1619	0.5459	0.7562	-0.118
Mof_H 	H 	0.1142	0.524	0.7504	0.07
Mof_C 	C 	0.2209	0.5209	0.7217	0.033
Mof_H 	H 	0.2144	0.4825	0.6922	0.026
Mof_C 	C 	0.2942	0.5552	0.7315	-0.097
Mof_H 	H 	0.337	0.5397	0.7092	0.08
Mof_C 	C 	0.2977	0.6118	0.7752	0.04
Mof_C 	C 	0.3698	0.6531	0.7877	0.146
Mof_C 	C 	0.482	0.6916	0.7767	0.148
Mof_C 	C 	0.5568	0.6963	0.7473	0.046
Mof_C 	C 	0.6112	0.7462	0.7695	-0.136
Mof_H 	H 	0.603	0.7746	0.8056	0.086
Mof_C 	C 	0.5755	0.6524	0.6942	-0.121
Mof_H 	H 	0.5418	0.6157	0.6793	0.089
Mof_N 	N 	0.694	0.7173	0.6846	-0.229
Mof_C 	C 	0.6775	0.7525	0.7364	0.094
Mof_H 	H 	0.7144	0.7851	0.7525	-0.006
Mof_C 	C 	0.6423	0.664	0.6656	0.071
Mof_H 	H 	0.6541	0.6342	0.6309	0.002
Mof_O 	O 	0.931	0.1384	0.2537	-0.238
Mof_N 	N 	0.7374	0.1374	0.3088	-0.217
Mof_N 	N 	0.8777	0.2059	0.3282	-0.164
Mof_N 	N 	0.9541	0.2311	0.3212	-0.108
Mof_C 	C 	0.6702	0.1028	0.2998	0.069
Mof_H 	H 	0.6284	0.1176	0.3236	-0.002
Mof_C 	C 	0.6619	0.0459	0.2562	-0.118
Mof_H 	H 	0.6142	0.024	0.2504	0.07
Mof_C 	C 	0.7209	0.0209	0.2217	0.033
Mof_H 	H 	0.7144	0.9825	0.1922	0.026
Mof_C 	C 	0.7942	0.0552	0.2315	-0.097
Mof_H 	H 	0.837	0.0397	0.2092	0.08
Mof_C 	C 	0.7977	0.1118	0.2752	0.04
Mof_C 	C 	0.8698	0.1531	0.2877	0.146
Mof_C 	C 	0.982	0.1916	0.2767	0.148
Mof_C 	C 	0.0568	0.1963	0.2473	0.046
Mof_C 	C 	0.1112	0.2462	0.2695	-0.136
Mof_H 	H 	0.103	0.2746	0.3056	0.086
Mof_C 	C 	0.0755	0.1524	0.1942	-0.121
Mof_H 	H 	0.0418	0.1157	0.1793	0.089
Mof_N 	N 	0.194	0.2173	0.1846	-0.229
Mof_C 	C 	0.1775	0.2525	0.2364	0.094
Mof_H 	H 	0.2144	0.2851	0.2525	-0.006
Mof_C 	C 	0.1423	0.164	0.1656	0.071
Mof_H 	H 	0.1541	0.1342	0.1309	0.002
Mof_O 	O 	0.569	0.3616	0.7537	-0.238
Mof_N 	N 	0.7626	0.3626	0.8088	-0.217
Mof_N 	N 	0.6223	0.2941	0.8282	-0.164
Mof_N 	N 	0.5459	0.2689	0.8212	-0.108
Mof_C 	C 	0.8298	0.3972	0.7998	0.069
Mof_H 	H 	0.8716	0.3824	0.8236	-0.002
Mof_C 	C 	0.8381	0.4541	0.7562	-0.118
Mof_H 	H 	0.8858	0.476	0.7504	0.07
Mof_C 	C 	0.7791	0.4791	0.7217	0.033
Mof_H 	H 	0.7856	0.5175	0.6922	0.026
Mof_C 	C 	0.7058	0.4448	0.7315	-0.097
Mof_H 	H 	0.663	0.4603	0.7092	0.08
Mof_C 	C 	0.7023	0.3882	0.7752	0.04
Mof_C 	C 	0.6302	0.3469	0.7877	0.146
Mof_C 	C 	0.518	0.3084	0.7767	0.148
Mof_C 	C 	0.4432	0.3037	0.7473	0.046
Mof_C 	C 	0.3888	0.2538	0.7695	-0.136
Mof_H 	H 	0.397	0.2254	0.8056	0.086
Mof_C 	C 	0.4245	0.3476	0.6942	-0.121
Mof_H 	H 	0.4582	0.3843	0.6793	0.089
Mof_N 	N 	0.306	0.2827	0.6846	-0.229
Mof_C 	C 	0.3225	0.2475	0.7364	0.094
Mof_H 	H 	0.2856	0.2149	0.7525	-0.006
Mof_C 	C 	0.3577	0.336	0.6656	0.071
Mof_H 	H 	0.3459	0.3658	0.6309	0.002
Mof_O 	O 	0.069	0.8616	0.2537	-0.238
Mof_N 	N 	0.2626	0.8626	0.3088	-0.217
Mof_N 	N 	0.1223	0.7941	0.3282	-0.164
Mof_N 	N 	0.0459	0.7689	0.3212	-0.108
Mof_C 	C 	0.3298	0.8972	0.2998	0.069
Mof_H 	H 	0.3716	0.8824	0.3236	-0.002
Mof_C 	C 	0.3381	0.9541	0.2562	-0.118
Mof_H 	H 	0.3858	0.976	0.2504	0.07
Mof_C 	C 	0.2791	0.9791	0.2217	0.033
Mof_H 	H 	0.2856	0.0175	0.1922	0.026
Mof_C 	C 	0.2058	0.9448	0.2315	-0.097
Mof_H 	H 	0.163	0.9603	0.2092	0.08
Mof_C 	C 	0.2023	0.8882	0.2752	0.04
Mof_C 	C 	0.1302	0.8469	0.2877	0.146
Mof_C 	C 	0.018	0.8084	0.2767	0.148
Mof_C 	C 	0.9432	0.8037	0.2473	0.046
Mof_C 	C 	0.8888	0.7538	0.2695	-0.136
Mof_H 	H 	0.897	0.7254	0.3056	0.086
Mof_C 	C 	0.9245	0.8476	0.1942	-0.121
Mof_H 	H 	0.9582	0.8843	0.1793	0.089
Mof_N 	N 	0.806	0.7827	0.1846	-0.229
Mof_C 	C 	0.8225	0.7475	0.2364	0.094
Mof_H 	H 	0.7856	0.7149	0.2525	-0.006
Mof_C 	C 	0.8577	0.836	0.1656	0.071
Mof_H 	H 	0.8459	0.8658	0.1309	0.002
Mof_Cu	Cu	0.27912	0.25	0.125	0.871
Mof_Cu	Cu	0.72088	0.75	0.125	0.871
Mof_Cu	Cu	0.22088	0.25	0.625	0.871
Mof_Cu	Cu	0.25	0.72088	0.875	0.871
Mof_Cu	Cu	0.75	0.22088	0.375	0.871
Mof_Cu	Cu	0.75	0.27912	0.875	0.871
Mof_Cu	Cu	0.25	0.77912	0.375	0.871
Mof_Cu	Cu	0.77912	0.75	0.625	0.871
_end
