data_functionalizedCrystal
_audit_creation_method	'EQeq! by Chris Wilmer'
_symmetry_space_group_name_H-M	'P1'
_symmetry_Int_Tables_number	1
_symmetry_cell_setting	triclinic
loop_
_symmetry_equiv_pos_as_xyz
  x,y,z
_cell_length_a	15.1185
_cell_length_b	15.1185
_cell_length_c	19.734
_cell_angle_alpha	107.507
_cell_angle_beta	107.507
_cell_angle_gamma	100.533
loop_
_atom_site_label
_atom_site_type_symbol
_atom_site_fract_x
_atom_site_fract_y
_atom_site_fract_z
_atom_site_charge
Mof_Ag	Ag	0.56706	0.32684	0.64743	0.664
Mof_Ag	Ag	0.67316	0.43294	0.85257	0.664
Mof_Ag	Ag	0.43294	0.67316	0.35257	0.664
Mof_Ag	Ag	0.32684	0.56706	0.14743	0.664
Mof_H 	H 	0.8857	0.5337	0.9302	0.042
Mof_H 	H 	0.0039	0.6333	0.0498	0.043
Mof_H 	H 	0.0865	0.7915	0.0699	0.088
Mof_H 	H 	0.9355	0.7433	0.8501	0.081
Mof_H 	H 	0.2315	0.1043	0.1068	0.067
Mof_H 	H 	0.3032	0.2624	0.1259	0.051
Mof_H 	H 	0.1546	0.2056	0.9041	0.044
Mof_H 	H 	0.0807	0.0499	0.8878	0.067
Mof_H 	H 	0.5911	0.4509	0.5597	0.048
Mof_H 	H 	0.5706	0.4442	0.4383	0.037
Mof_H 	H 	0.6995	0.4979	0.4069	0.097
Mof_H 	H 	0.8767	0.5725	0.6265	0.084
Mof_H 	H 	0.1371	0.6785	0.5884	0.065
Mof_H 	H 	0.2771	0.7427	0.5739	0.046
Mof_H 	H 	0.1288	0.6766	0.351	0.063
Mof_H 	H 	0.9842	0.6154	0.3648	0.065
Mof_H 	H 	0.4663	0.1143	0.5698	0.046
Mof_H 	H 	0.3667	0.9961	0.4502	0.04
Mof_H 	H 	0.2085	0.9135	0.4301	0.091
Mof_H 	H 	0.2567	0.0645	0.6499	0.083
Mof_H 	H 	0.8957	0.7685	0.3932	0.068
Mof_H 	H 	0.7376	0.6968	0.3741	0.051
Mof_H 	H 	0.7944	0.8454	0.5959	0.044
Mof_H 	H 	0.9501	0.9193	0.6122	0.068
Mof_H 	H 	0.5491	0.4089	0.9403	0.048
Mof_H 	H 	0.5558	0.4294	0.0617	0.037
Mof_H 	H 	0.5021	0.3005	0.0931	0.097
Mof_H 	H 	0.4275	0.1233	0.8735	0.084
Mof_H 	H 	0.3215	0.8629	0.9116	0.065
Mof_H 	H 	0.2573	0.7229	0.9261	0.046
Mof_H 	H 	0.3234	0.8712	0.149	0.063
Mof_H 	H 	0.3846	0.0158	0.1352	0.065
Mof_H 	H 	0.1143	0.4663	0.0698	0.043
Mof_H 	H 	0.9961	0.3667	0.9502	0.044
Mof_H 	H 	0.9135	0.2085	0.9301	0.088
Mof_H 	H 	0.0645	0.2567	0.1499	0.081
Mof_H 	H 	0.7685	0.8957	0.8932	0.067
Mof_H 	H 	0.6968	0.7376	0.8741	0.051
Mof_H 	H 	0.8454	0.7944	0.0959	0.044
Mof_H 	H 	0.9193	0.9501	0.1122	0.067
Mof_H 	H 	0.4089	0.5491	0.4403	0.048
Mof_H 	H 	0.4294	0.5558	0.5617	0.037
Mof_H 	H 	0.3005	0.5021	0.5931	0.097
Mof_H 	H 	0.1233	0.4275	0.3735	0.084
Mof_H 	H 	0.8629	0.3215	0.4116	0.065
Mof_H 	H 	0.7229	0.2573	0.4261	0.046
Mof_H 	H 	0.8712	0.3234	0.649	0.063
Mof_H 	H 	0.0158	0.3846	0.6352	0.065
Mof_H 	H 	0.5337	0.8857	0.4302	0.046
Mof_H 	H 	0.6333	0.0039	0.5498	0.04
Mof_H 	H 	0.7915	0.0865	0.5699	0.091
Mof_H 	H 	0.7433	0.9355	0.3501	0.083
Mof_H 	H 	0.1043	0.2315	0.6068	0.068
Mof_H 	H 	0.2624	0.3032	0.6259	0.051
Mof_H 	H 	0.2056	0.1546	0.4041	0.044
Mof_H 	H 	0.0499	0.0807	0.3878	0.068
Mof_H 	H 	0.4509	0.5911	0.0597	0.048
Mof_H 	H 	0.4442	0.5706	0.9383	0.037
Mof_H 	H 	0.4979	0.6995	0.9069	0.097
Mof_H 	H 	0.5725	0.8767	0.1265	0.084
Mof_H 	H 	0.6785	0.1371	0.0884	0.065
Mof_H 	H 	0.7427	0.2771	0.0739	0.046
Mof_H 	H 	0.6766	0.1288	0.851	0.063
Mof_H 	H 	0.6154	0.9842	0.8648	0.065
Mof_C 	C 	0.8257	0.5641	0.8023	0.186
Mof_C 	C 	0.9014	0.6292	0.88	-0.003
Mof_C 	C 	0.92	0.5962	0.9385	-0.063
Mof_C 	C 	0.9897	0.6559	0.0101	0.003
Mof_C 	C 	0.039	0.751	0.0221	-0.099
Mof_C 	C 	0.0168	0.7846	0.9631	0.066
Mof_C 	C 	0.9489	0.7223	0.8908	-0.092
Mof_C 	C 	0.0662	0.88	0.9754	-0.026
Mof_C 	C 	0.1031	0.9599	0.9833	-0.015
Mof_C 	C 	0.1495	0.0607	0.9949	0.052
Mof_C 	C 	0.216	0.125	0.0661	-0.082
Mof_C 	C 	0.2592	0.2188	0.0776	-0.02
Mof_C 	C 	0.2363	0.2479	0.016	-0.024
Mof_C 	C 	0.2772	0.3488	0.0294	0.086
Mof_C 	C 	0.17	0.1854	0.9451	-0.015
Mof_C 	C 	0.1267	0.0925	0.9356	-0.085
Mof_C 	C 	0.752	0.5142	0.6823	0.178
Mof_C 	C 	0.7381	0.5113	0.6055	0.002
Mof_C 	C 	0.6445	0.4733	0.5486	-0.077
Mof_C 	C 	0.633	0.4698	0.4761	0.025
Mof_C 	C 	0.7093	0.5023	0.4568	-0.116
Mof_C 	C 	0.8025	0.5421	0.5146	0.074
Mof_C 	C 	0.8147	0.5457	0.5881	-0.097
Mof_C 	C 	0.8866	0.5752	0.4989	-0.029
Mof_C 	C 	0.9552	0.6036	0.4888	-0.01
Mof_C 	C 	0.0439	0.6407	0.4776	0.043
Mof_C 	C 	0.1346	0.6786	0.5407	-0.076
Mof_C 	C 	0.2184	0.7154	0.5318	-0.019
Mof_C 	C 	0.2159	0.7119	0.4608	-0.023
Mof_C 	C 	0.3049	0.7429	0.4508	0.096
Mof_C 	C 	0.1297	0.6765	0.3984	-0.028
Mof_C 	C 	0.0429	0.6401	0.4069	-0.073
Mof_C 	C 	0.4359	0.1743	0.6977	0.184
Mof_C 	C 	0.3708	0.0986	0.62	0.002
Mof_C 	C 	0.4038	0.08	0.5615	-0.071
Mof_C 	C 	0.3441	0.0103	0.4899	0.013
Mof_C 	C 	0.249	0.961	0.4779	-0.108
Mof_C 	C 	0.2154	0.9832	0.5369	0.073
Mof_C 	C 	0.2777	0.0511	0.6092	-0.098
Mof_C 	C 	0.12	0.9338	0.5246	-0.028
Mof_C 	C 	0.0401	0.8969	0.5167	-0.014
Mof_C 	C 	0.9393	0.8505	0.5051	0.053
Mof_C 	C 	0.875	0.784	0.4339	-0.084
Mof_C 	C 	0.7812	0.7408	0.4224	-0.018
Mof_C 	C 	0.7521	0.7637	0.484	-0.026
Mof_C 	C 	0.6512	0.7228	0.4706	0.086
Mof_C 	C 	0.8146	0.83	0.5549	-0.013
Mof_C 	C 	0.9075	0.8733	0.5644	-0.086
Mof_C 	C 	0.4858	0.248	0.8177	0.178
Mof_C 	C 	0.4887	0.2619	0.8945	0.001
Mof_C 	C 	0.5267	0.3555	0.9514	-0.077
Mof_C 	C 	0.5302	0.367	0.0239	0.024
Mof_C 	C 	0.4977	0.2907	0.0432	-0.115
Mof_C 	C 	0.4579	0.1975	0.9854	0.073
Mof_C 	C 	0.4543	0.1853	0.9119	-0.097
Mof_C 	C 	0.4248	0.1134	0.0011	-0.028
Mof_C 	C 	0.3964	0.0448	0.0112	-0.011
Mof_C 	C 	0.3593	0.9561	0.0224	0.043
Mof_C 	C 	0.3214	0.8654	0.9593	-0.076
Mof_C 	C 	0.2846	0.7816	0.9682	-0.02
Mof_C 	C 	0.2881	0.7841	0.0392	-0.023
Mof_C 	C 	0.2571	0.6951	0.0492	0.096
Mof_C 	C 	0.3235	0.8703	0.1016	-0.028
Mof_C 	C 	0.3599	0.9571	0.0931	-0.074
Mof_C 	C 	0.1743	0.4359	0.1977	0.186
Mof_C 	C 	0.0986	0.3708	0.12	-0.003
Mof_C 	C 	0.08	0.4038	0.0615	-0.063
Mof_C 	C 	0.0103	0.3441	0.9899	0.003
Mof_C 	C 	0.961	0.249	0.9779	-0.099
Mof_C 	C 	0.9832	0.2154	0.0369	0.066
Mof_C 	C 	0.0511	0.2777	0.1092	-0.092
Mof_C 	C 	0.9338	0.12	0.0246	-0.026
Mof_C 	C 	0.8969	0.0401	0.0167	-0.015
Mof_C 	C 	0.8505	0.9393	0.0051	0.052
Mof_C 	C 	0.784	0.875	0.9339	-0.082
Mof_C 	C 	0.7408	0.7812	0.9224	-0.02
Mof_C 	C 	0.7637	0.7521	0.984	-0.024
Mof_C 	C 	0.7228	0.6512	0.9706	0.086
Mof_C 	C 	0.83	0.8146	0.0549	-0.015
Mof_C 	C 	0.8733	0.9075	0.0644	-0.085
Mof_C 	C 	0.248	0.4858	0.3177	0.178
Mof_C 	C 	0.2619	0.4887	0.3945	0.002
Mof_C 	C 	0.3555	0.5267	0.4514	-0.077
Mof_C 	C 	0.367	0.5302	0.5239	0.025
Mof_C 	C 	0.2907	0.4977	0.5432	-0.116
Mof_C 	C 	0.1975	0.4579	0.4854	0.074
Mof_C 	C 	0.1853	0.4543	0.4119	-0.097
Mof_C 	C 	0.1134	0.4248	0.5011	-0.029
Mof_C 	C 	0.0448	0.3964	0.5112	-0.01
Mof_C 	C 	0.9561	0.3593	0.5224	0.043
Mof_C 	C 	0.8654	0.3214	0.4593	-0.076
Mof_C 	C 	0.7816	0.2846	0.4682	-0.019
Mof_C 	C 	0.7841	0.2881	0.5392	-0.023
Mof_C 	C 	0.6951	0.2571	0.5492	0.096
Mof_C 	C 	0.8703	0.3235	0.6016	-0.028
Mof_C 	C 	0.9571	0.3599	0.5931	-0.073
Mof_C 	C 	0.5641	0.8257	0.3023	0.184
Mof_C 	C 	0.6292	0.9014	0.38	0.002
Mof_C 	C 	0.5962	0.92	0.4385	-0.071
Mof_C 	C 	0.6559	0.9897	0.5101	0.013
Mof_C 	C 	0.751	0.039	0.5221	-0.108
Mof_C 	C 	0.7846	0.0168	0.4631	0.073
Mof_C 	C 	0.7223	0.9489	0.3908	-0.098
Mof_C 	C 	0.88	0.0662	0.4754	-0.028
Mof_C 	C 	0.9599	0.1031	0.4833	-0.014
Mof_C 	C 	0.0607	0.1495	0.4949	0.053
Mof_C 	C 	0.125	0.216	0.5661	-0.084
Mof_C 	C 	0.2188	0.2592	0.5776	-0.018
Mof_C 	C 	0.2479	0.2363	0.516	-0.026
Mof_C 	C 	0.3488	0.2772	0.5294	0.086
Mof_C 	C 	0.1854	0.17	0.4451	-0.013
Mof_C 	C 	0.0925	0.1267	0.4356	-0.086
Mof_C 	C 	0.5142	0.752	0.1823	0.178
Mof_C 	C 	0.5113	0.7381	0.1055	0.001
Mof_C 	C 	0.4733	0.6445	0.0486	-0.077
Mof_C 	C 	0.4698	0.633	0.9761	0.024
Mof_C 	C 	0.5023	0.7093	0.9568	-0.115
Mof_C 	C 	0.5421	0.8025	0.0146	0.073
Mof_C 	C 	0.5457	0.8147	0.0881	-0.097
Mof_C 	C 	0.5752	0.8866	0.9989	-0.028
Mof_C 	C 	0.6036	0.9552	0.9888	-0.011
Mof_C 	C 	0.6407	0.0439	0.9776	0.043
Mof_C 	C 	0.6786	0.1346	0.0407	-0.076
Mof_C 	C 	0.7154	0.2184	0.0318	-0.02
Mof_C 	C 	0.7119	0.2159	0.9608	-0.023
Mof_C 	C 	0.7429	0.3049	0.9508	0.096
Mof_C 	C 	0.6765	0.1297	0.8984	-0.028
Mof_C 	C 	0.6401	0.0429	0.9069	-0.074
Mof_N 	N 	0.6999	0.4633	0.7051	-0.173
Mof_N 	N 	0.7497	0.4983	0.7862	-0.176
Mof_N 	N 	0.3095	0.4279	0.0396	-0.176
Mof_N 	N 	0.3743	0.7671	0.4438	-0.178
Mof_N 	N 	0.5367	0.3001	0.7949	-0.174
Mof_N 	N 	0.5017	0.2503	0.7138	-0.176
Mof_N 	N 	0.5721	0.6905	0.4604	-0.177
Mof_N 	N 	0.2329	0.6257	0.0562	-0.178
Mof_N 	N 	0.3001	0.5367	0.2949	-0.173
Mof_N 	N 	0.2503	0.5017	0.2138	-0.176
Mof_N 	N 	0.6905	0.5721	0.9604	-0.176
Mof_N 	N 	0.6257	0.2329	0.5562	-0.178
Mof_N 	N 	0.4633	0.6999	0.2051	-0.174
Mof_N 	N 	0.4983	0.7497	0.2862	-0.176
Mof_N 	N 	0.4279	0.3095	0.5396	-0.177
Mof_N 	N 	0.7671	0.3743	0.9438	-0.178
Mof_O 	O 	0.8336	0.5808	0.7408	-0.253
Mof_O 	O 	0.4192	0.1664	0.7592	-0.252
Mof_O 	O 	0.1664	0.4192	0.2592	-0.253
Mof_O 	O 	0.5808	0.8336	0.2408	-0.252
Mof_Cl	Cl	0.5258	0.4742	0.25	-0.216
Mof_O 	O 	0.6181	0.4789	0.259	-0.035
Mof_O 	O 	0.5215	0.5273	0.3145	-0.08
Mof_O 	O 	0.5211	0.3819	0.241	-0.034
Mof_O 	O 	0.4727	0.4785	0.1855	-0.08
Mof_Cl	Cl	0.4742	0.5258	0.75	-0.216
Mof_O 	O 	0.3819	0.5211	0.741	-0.035
Mof_O 	O 	0.4785	0.4727	0.6855	-0.08
Mof_O 	O 	0.4789	0.6181	0.759	-0.034
Mof_O 	O 	0.5273	0.5215	0.8145	-0.08
Mof_Cl	Cl	0.7758	0.2242	0.75	-0.223
Mof_O 	O 	0.8239	0.2071	0.8118	-0.04
Mof_O 	O 	0.6815	0.1955	0.7414	-0.061
Mof_O 	O 	0.7929	0.1761	0.6882	-0.04
Mof_O 	O 	0.8045	0.3185	0.7586	-0.061
Mof_Cl	Cl	0.2242	0.7758	0.25	-0.223
Mof_O 	O 	0.1761	0.7929	0.1882	-0.04
Mof_O 	O 	0.3185	0.8045	0.2586	-0.061
Mof_O 	O 	0.2071	0.8239	0.3118	-0.04
Mof_O 	O 	0.1955	0.6815	0.2414	-0.061
_end
