data_functionalizedCrystal
_audit_creation_method	'EQeq! by Chris Wilmer'
_symmetry_space_group_name_H-M	'P1'
_symmetry_Int_Tables_number	1
_symmetry_cell_setting	triclinic
loop_
_symmetry_equiv_pos_as_xyz
  x,y,z
_cell_length_a	20.9323
_cell_length_b	20.9322
_cell_length_c	17.122
_cell_angle_alpha	90
_cell_angle_beta	90
_cell_angle_gamma	60
loop_
_atom_site_label
_atom_site_type_symbol
_atom_site_fract_x
_atom_site_fract_y
_atom_site_fract_z
_atom_site_charge
Mof_O 	O 	0.03989	0.02267	0.91226	-1.551
Mof_O 	O 	0.11237	0.95175	0.01429	-1.398
Mof_O 	O 	0.16135	0.03484	0.93599	-0.527
Mof_O 	O 	0.18032	0.92328	0.86211	-0.561
Mof_O 	O 	0.95554	0.1082	0.99745	-1.167
Mof_O 	O 	0.93164	0.17324	0.85136	-0.638
Mof_O 	O 	0.04636	0.15023	0.92867	-0.509
Mof_O 	O 	0.02304	0.0403	0.10153	-1.734
Mof_O 	O 	0.0394	0.15681	0.07653	-0.641
Mof_O 	O 	0.92396	0.18128	0.13455	-0.586
Mof_O 	O 	0.17819	0.91781	0.14531	-0.715
Mof_O 	O 	0.15656	0.03475	0.08478	-0.659
Mof_Zr	Zr	0.06865	0.06444	0.00648	3.221
Mof_O 	O 	0.9802	0.96298	0.91226	-1.53
Mof_O 	O 	0.05112	0.8905	0.01429	-1.38
Mof_O 	O 	0.07951	0.82245	0.86213	-0.547
Mof_O 	O 	0.96803	0.84152	0.93599	-0.53
Mof_Zr	Zr	0.07546	0.92856	0.91369	3.249
Mof_O 	O 	0.89468	0.04733	0.99745	-1.178
Mof_O 	O 	0.85264	0.95651	0.92868	-0.518
Mof_O 	O 	0.83049	0.07209	0.85136	-0.65
Mof_Zr	Zr	0.92723	0.07564	0.89584	3.199
Mof_O 	O 	0.96258	0.97983	0.10153	-1.787
Mof_O 	O 	0.82711	0.08443	0.13441	-0.627
Mof_O 	O 	0.84606	0.96347	0.07653	-0.624
Mof_O 	O 	0.96813	0.84631	0.08478	-0.662
Mof_O 	O 	0.08517	0.8248	0.14531	-0.716
Mof_Zr	Zr	0.93728	0.06387	0.09809	3.253
Mof_Zr	Zr	0.93843	0.93422	0.00648	3.221
Mof_Zr	Zr	0.07463	0.92824	0.11499	3.209
Mof_H 	H 	0.94015	0.76168	0.42435	0.038
Mof_C 	C 	0.05522	0.50784	0.73984	-0.056
Mof_C 	C 	0.0574	0.44105	0.73925	-0.053
Mof_C 	C 	0.0244	0.43817	0.67022	0.1
Mof_N 	N 	0.00164	0.50102	0.62931	-0.162
Mof_C 	C 	0.02041	0.54358	0.67155	0.102
Mof_C 	C 	0.01023	0.37795	0.6478	-0.053
Mof_C 	C 	0.99813	0.36419	0.56553	0.05
Mof_C 	C 	0.97752	0.3137	0.54242	-0.059
Mof_C 	C 	0.97619	0.31482	0.46246	-0.062
Mof_C 	C 	0.99622	0.3658	0.43974	0.051
Mof_N 	N 	0.0105	0.39559	0.50271	-0.103
Mof_C 	C 	0.00637	0.38123	0.35752	-0.067
Mof_C 	C 	0.02598	0.43804	0.33668	0.096
Mof_C 	C 	0.06224	0.43835	0.26914	-0.069
Mof_C 	C 	0.06552	0.50239	0.27037	-0.069
Mof_C 	C 	0.03049	0.53921	0.33815	0.096
Mof_N 	N 	0.00645	0.49985	0.37838	-0.163
Mof_C 	C 	0.01717	0.61323	0.36068	-0.069
Mof_C 	C 	0.99777	0.64074	0.44168	0.06
Mof_C 	C 	0.96109	0.71438	0.46277	-0.06
Mof_C 	C 	0.9569	0.71591	0.5428	-0.06
Mof_C 	C 	0.99128	0.64314	0.5669	0.063
Mof_N 	N 	0.01656	0.59685	0.50522	-0.112
Mof_C 	C 	0.00372	0.61875	0.64933	-0.064
Mof_H 	H 	0.07604	0.52821	0.78559	0.069
Mof_H 	H 	0.07977	0.39998	0.78497	0.067
Mof_H 	H 	0.96608	0.27857	0.57914	0.029
Mof_H 	H 	0.96356	0.28077	0.42535	0.029
Mof_H 	H 	0.08327	0.39743	0.22322	0.032
Mof_H 	H 	0.08966	0.52055	0.22591	0.032
Mof_H 	H 	0.93228	0.76462	0.57935	0.039
Mof_C 	C 	0.00673	0.33044	0.70943	0.07
Mof_C 	C 	0.00014	0.3358	0.29517	0.101
Mof_C 	C 	0.02237	0.66135	0.30078	0.076
Mof_C 	C 	0.00787	0.66757	0.70917	0.07
Mof_C 	C 	0.07131	0.27619	0.74571	-0.066
Mof_C 	C 	0.068	0.22805	0.80003	0.003
Mof_C 	C 	0.00028	0.23244	0.81706	-0.008
Mof_C 	C 	0.93568	0.28729	0.78121	-0.017
Mof_C 	C 	0.93881	0.33647	0.72845	-0.084
Mof_C 	C 	0.06361	0.27976	0.25915	-0.12
Mof_C 	C 	0.05792	0.2339	0.2037	0.073
Mof_C 	C 	0.98874	0.24233	0.1847	-0.17
Mof_C 	C 	0.92524	0.29849	0.22104	0.044
Mof_C 	C 	0.9309	0.34523	0.27546	-0.143
Mof_C 	C 	0.07094	0.68857	0.31099	-0.098
Mof_C 	C 	0.07432	0.73578	0.25545	0.025
Mof_C 	C 	0.02833	0.75734	0.1894	-0.113
Mof_C 	C 	0.98013	0.72945	0.17916	0.017
Mof_C 	C 	0.97755	0.68149	0.23415	-0.114
Mof_C 	C 	0.05689	0.69412	0.69907	-0.082
Mof_C 	C 	0.06161	0.73993	0.7551	0.023
Mof_C 	C 	0.01695	0.76062	0.82226	-0.075
Mof_C 	C 	0.96761	0.73408	0.83222	0.024
Mof_C 	C 	0.96347	0.68749	0.77626	-0.088
Mof_H 	H 	0.1243	0.27028	0.7308	0.055
Mof_H 	H 	0.1186	0.18566	0.82639	0.057
Mof_H 	H 	0.88282	0.29185	0.79366	0.049
Mof_H 	H 	0.88856	0.37796	0.70067	0.053
Mof_H 	H 	0.1176	0.27079	0.27494	0.053
Mof_H 	H 	0.10793	0.19039	0.17746	0.016
Mof_H 	H 	0.87129	0.30617	0.20755	-0.002
Mof_H 	H 	0.88148	0.38785	0.30349	0.049
Mof_H 	H 	0.10595	0.67348	0.36217	0.048
Mof_H 	H 	0.1115	0.75688	0.26527	0.003
Mof_H 	H 	0.94394	0.74508	0.12893	0.01
Mof_H 	H 	0.93953	0.66121	0.22556	0.039
Mof_H 	H 	0.09184	0.67903	0.64782	0.052
Mof_H 	H 	0.0998	0.75976	0.74518	0.024
Mof_H 	H 	0.93238	0.74912	0.88319	0.07
Mof_H 	H 	0.92521	0.6675	0.78485	0.065
Mof_H 	H 	0.97453	0.51639	0.42905	0.082
Mof_H 	H 	0.97121	0.51595	0.57761	0.086
Mof_H 	H 	0.24118	0.06276	0.42435	0.04
Mof_C 	C 	0.49502	0.94766	0.73984	-0.059
Mof_C 	C 	0.56181	0.94548	0.73924	-0.057
Mof_C 	C 	0.5647	0.97848	0.67022	0.112
Mof_N 	N 	0.50184	0.00125	0.62931	-0.185
Mof_C 	C 	0.45928	0.98247	0.67155	0.112
Mof_C 	C 	0.62491	0.99264	0.6478	-0.069
Mof_C 	C 	0.63867	0.00475	0.56553	0.065
Mof_C 	C 	0.68917	0.02535	0.54242	-0.066
Mof_C 	C 	0.68804	0.02669	0.46247	-0.055
Mof_C 	C 	0.63707	0.00666	0.43974	0.048
Mof_N 	N 	0.60728	0.99238	0.50271	-0.109
Mof_C 	C 	0.62164	0.99651	0.35752	-0.033
Mof_C 	C 	0.56483	0.97691	0.33668	0.084
Mof_C 	C 	0.56451	0.94064	0.26914	-0.062
Mof_C 	C 	0.50047	0.93737	0.27037	-0.073
Mof_C 	C 	0.46365	0.97239	0.33815	0.098
Mof_N 	N 	0.50302	0.99644	0.37838	-0.165
Mof_C 	C 	0.38963	0.98572	0.36068	-0.076
Mof_C 	C 	0.36212	0.00512	0.44168	0.071
Mof_C 	C 	0.28849	0.0418	0.46277	-0.062
Mof_C 	C 	0.28696	0.046	0.5428	-0.062
Mof_C 	C 	0.35973	0.01161	0.5669	0.075
Mof_N 	N 	0.40602	0.98633	0.50522	-0.12
Mof_C 	C 	0.38411	0.99917	0.64933	-0.073
Mof_H 	H 	0.47465	0.92685	0.78558	0.069
Mof_H 	H 	0.60288	0.92311	0.78496	0.068
Mof_H 	H 	0.7243	0.03679	0.57914	0.032
Mof_H 	H 	0.7221	0.03932	0.42535	0.029
Mof_H 	H 	0.60544	0.91961	0.22323	0.031
Mof_H 	H 	0.48232	0.91323	0.22591	0.033
Mof_H 	H 	0.23824	0.07062	0.57934	0.042
Mof_C 	C 	0.67243	0.99615	0.70943	0.084
Mof_C 	C 	0.66707	0.00274	0.29517	0.003
Mof_C 	C 	0.34151	0.98051	0.30078	0.072
Mof_C 	C 	0.33529	0.99502	0.70916	0.066
Mof_C 	C 	0.6664	0.06406	0.72846	-0.102
Mof_C 	C 	0.71558	0.06719	0.78121	0.033
Mof_C 	C 	0.77043	0.00259	0.81706	-0.088
Mof_C 	C 	0.77482	0.93487	0.80003	0.047
Mof_C 	C 	0.72667	0.93156	0.74571	-0.089
Mof_C 	C 	0.72311	0.93927	0.25915	-0.057
Mof_C 	C 	0.76897	0.94495	0.2037	0.025
Mof_C 	C 	0.76054	0.01413	0.1847	-0.112
Mof_C 	C 	0.70438	0.07764	0.22104	-0.001
Mof_C 	C 	0.65764	0.07198	0.27546	-0.076
Mof_C 	C 	0.31429	0.93194	0.31099	-0.099
Mof_C 	C 	0.26708	0.92856	0.25545	0.026
Mof_C 	C 	0.24553	0.97455	0.1894	-0.118
Mof_C 	C 	0.27342	0.02275	0.17916	0.022
Mof_C 	C 	0.32138	0.02533	0.23414	-0.11
Mof_C 	C 	0.30874	0.946	0.69906	-0.083
Mof_C 	C 	0.26293	0.94128	0.75509	0.023
Mof_C 	C 	0.24225	0.98593	0.82225	-0.08
Mof_C 	C 	0.26879	0.03527	0.83222	0.029
Mof_C 	C 	0.31538	0.03941	0.77626	-0.083
Mof_H 	H 	0.62491	0.11431	0.70067	0.058
Mof_H 	H 	0.71102	0.12005	0.79366	0.039
Mof_H 	H 	0.8172	0.88427	0.82639	0.046
Mof_H 	H 	0.73259	0.87858	0.7308	0.06
Mof_H 	H 	0.73208	0.88528	0.27494	0.037
Mof_H 	H 	0.81248	0.89495	0.17747	0.028
Mof_H 	H 	0.6967	0.13158	0.20755	0.011
Mof_H 	H 	0.61502	0.1214	0.30349	0.034
Mof_H 	H 	0.32938	0.89694	0.36218	0.047
Mof_H 	H 	0.24599	0.89138	0.26528	0.002
Mof_H 	H 	0.25779	0.05893	0.12893	0.01
Mof_H 	H 	0.34166	0.06335	0.22555	0.039
Mof_H 	H 	0.32382	0.91106	0.64781	0.051
Mof_H 	H 	0.24309	0.90309	0.74516	0.024
Mof_H 	H 	0.25375	0.07049	0.8832	0.07
Mof_H 	H 	0.33537	0.07767	0.78485	0.066
Mof_H 	H 	0.48648	0.02836	0.42905	0.086
Mof_H 	H 	0.48691	0.03167	0.57761	0.097
Mof_C 	C 	0.98387	0.19068	0.12957	0.32
Mof_C 	C 	0.99737	0.17762	0.86849	0.235
Mof_C 	C 	0.02116	0.81111	0.87985	0.334
Mof_C 	C 	0.02726	0.81196	0.1339	0.356
Mof_C 	C 	0.81219	0.019	0.12957	0.242
Mof_C 	C 	0.19091	0.97562	0.1339	0.353
Mof_C 	C 	0.82525	0.0055	0.86849	0.267
Mof_C 	C 	0.19175	0.98172	0.87984	0.327
_end
