data_functionalizedCrystal
_audit_creation_method	'EQeq! by Chris Wilmer'
_symmetry_space_group_name_H-M	'P1'
_symmetry_Int_Tables_number	1
_symmetry_cell_setting	triclinic
loop_
_symmetry_equiv_pos_as_xyz
  x,y,z
_cell_length_a	14.796
_cell_length_b	12.4275
_cell_length_c	16.6266
_cell_angle_alpha	90
_cell_angle_beta	90
_cell_angle_gamma	90
loop_
_atom_site_label
_atom_site_type_symbol
_atom_site_fract_x
_atom_site_fract_y
_atom_site_fract_z
_atom_site_charge
Mof_O 	O 	0.52558	0.1198	0.00406	-0.373
Mof_O 	O 	0.5014	0.0825	0.87482	-0.348
Mof_C 	C 	0.7691	0.4236	0.9967	0.333
Mof_O 	O 	0.5945	0.3492	0.6682	-0.318
Mof_C 	C 	0.5964	0.2302	0.9055	-0.104
Mof_C 	C 	0.5933	0.2693	0.827	0.046
Mof_H 	H 	0.5572	0.2331	0.7882	0.058
Mof_C 	C 	0.6369	0.4005	0.7191	0.32
Mof_O 	O 	0.6725	0.4899	0.70368	-0.301
Mof_C 	C 	0.7035	0.3706	0.9388	-0.088
Mof_C 	C 	0.6526	0.2807	0.961	0.058
Mof_H 	H 	0.6564	0.2538	0.0144	0.039
Mof_C 	C 	0.6418	0.3601	0.8042	-0.082
Mof_C 	C 	0.6951	0.4115	0.8611	0.038
Mof_H 	H 	0.7262	0.4756	0.8469	0.058
Mof_C 	C 	0.538	0.1375	0.9298	0.363
Mof_O 	O 	0.7911	0.5172	0.986	-0.345
Mof_O 	O 	0.8016	0.3674	0.05218	-0.3
Mof_Mn	Mn	0.60452	0.48381	0.57981	0.947
Mof_O 	O 	0.97442	0.8802	0.50406	-0.369
Mof_O 	O 	0.9986	0.9175	0.37482	-0.348
Mof_C 	C 	0.7309	0.5764	0.4967	0.33
Mof_O 	O 	0.9055	0.6508	0.1682	-0.318
Mof_C 	C 	0.9036	0.7698	0.4055	-0.1
Mof_C 	C 	0.9067	0.7307	0.327	0.043
Mof_H 	H 	0.9428	0.7669	0.2882	0.059
Mof_C 	C 	0.8631	0.5995	0.2191	0.319
Mof_O 	O 	0.8275	0.5101	0.20368	-0.301
Mof_C 	C 	0.7965	0.6294	0.4388	-0.084
Mof_C 	C 	0.8474	0.7193	0.461	0.051
Mof_H 	H 	0.8436	0.7462	0.5144	0.043
Mof_C 	C 	0.8582	0.6399	0.3042	-0.08
Mof_C 	C 	0.8049	0.5885	0.3611	0.035
Mof_H 	H 	0.7738	0.5244	0.3469	0.059
Mof_C 	C 	0.962	0.8625	0.4298	0.357
Mof_O 	O 	0.7089	0.4828	0.486	-0.344
Mof_O 	O 	0.6984	0.6326	0.55218	-0.298
Mof_Mn	Mn	0.89548	0.51619	0.07981	0.946
Mof_O 	O 	0.47442	0.6198	0.49594	-0.368
Mof_O 	O 	0.4986	0.5825	0.62518	-0.348
Mof_C 	C 	0.2309	0.9236	0.5033	0.33
Mof_O 	O 	0.4055	0.8492	0.8318	-0.318
Mof_C 	C 	0.4036	0.7302	0.5945	-0.1
Mof_C 	C 	0.4067	0.7693	0.673	0.043
Mof_H 	H 	0.4428	0.7331	0.7118	0.059
Mof_C 	C 	0.3631	0.9005	0.7809	0.319
Mof_O 	O 	0.3275	0.9899	0.79632	-0.302
Mof_C 	C 	0.2965	0.8706	0.5612	-0.084
Mof_C 	C 	0.3474	0.7807	0.539	0.051
Mof_H 	H 	0.3436	0.7538	0.4856	0.043
Mof_C 	C 	0.3582	0.8601	0.6958	-0.081
Mof_C 	C 	0.3049	0.9115	0.6389	0.035
Mof_H 	H 	0.2738	0.9756	0.6531	0.059
Mof_C 	C 	0.462	0.6375	0.5702	0.357
Mof_O 	O 	0.2089	0.0172	0.514	-0.343
Mof_O 	O 	0.1984	0.8674	0.44782	-0.298
Mof_Mn	Mn	0.39548	0.98381	0.92019	0.941
Mof_O 	O 	0.02558	0.3802	0.99594	-0.366
Mof_O 	O 	0.0014	0.4175	0.12518	-0.348
Mof_C 	C 	0.2691	0.0764	0.0033	0.315
Mof_O 	O 	0.0945	0.1508	0.3318	-0.318
Mof_C 	C 	0.0964	0.2698	0.0945	-0.095
Mof_C 	C 	0.0933	0.2307	0.173	0.039
Mof_H 	H 	0.0572	0.2669	0.2118	0.06
Mof_C 	C 	0.1369	0.0995	0.2809	0.318
Mof_O 	O 	0.1725	0.0101	0.29632	-0.301
Mof_C 	C 	0.2035	0.1294	0.0612	-0.077
Mof_C 	C 	0.1526	0.2193	0.039	0.04
Mof_H 	H 	0.1564	0.2462	0.9856	0.049
Mof_C 	C 	0.1418	0.1399	0.1958	-0.078
Mof_C 	C 	0.1951	0.0885	0.1389	0.03
Mof_H 	H 	0.2262	0.0244	0.1531	0.06
Mof_C 	C 	0.038	0.3625	0.0702	0.353
Mof_O 	O 	0.2911	0.9828	0.014	-0.334
Mof_O 	O 	0.3016	0.1326	0.94782	-0.29
Mof_Mn	Mn	0.10452	0.01619	0.42019	0.946
Mof_O 	O 	0.47442	0.8802	0.99594	-0.372
Mof_O 	O 	0.4986	0.9175	0.12518	-0.347
Mof_C 	C 	0.2309	0.5764	0.0033	0.333
Mof_O 	O 	0.4055	0.6508	0.3318	-0.318
Mof_C 	C 	0.4036	0.7698	0.0945	-0.104
Mof_C 	C 	0.4067	0.7307	0.173	0.046
Mof_H 	H 	0.4428	0.7669	0.2118	0.058
Mof_C 	C 	0.3631	0.5995	0.2809	0.32
Mof_O 	O 	0.3275	0.5101	0.29632	-0.301
Mof_C 	C 	0.2965	0.6294	0.0612	-0.088
Mof_C 	C 	0.3474	0.7193	0.039	0.058
Mof_H 	H 	0.3436	0.7462	0.9856	0.039
Mof_C 	C 	0.3582	0.6399	0.1958	-0.082
Mof_C 	C 	0.3049	0.5885	0.1389	0.038
Mof_H 	H 	0.2738	0.5244	0.1531	0.058
Mof_C 	C 	0.462	0.8625	0.0702	0.363
Mof_O 	O 	0.2089	0.4828	0.014	-0.345
Mof_O 	O 	0.1984	0.6326	0.94782	-0.3
Mof_Mn	Mn	0.39548	0.51619	0.42019	0.947
Mof_O 	O 	0.02558	0.1198	0.49594	-0.369
Mof_O 	O 	0.0014	0.0825	0.62518	-0.348
Mof_C 	C 	0.2691	0.4236	0.5033	0.33
Mof_O 	O 	0.0945	0.3492	0.8318	-0.318
Mof_C 	C 	0.0964	0.2302	0.5945	-0.1
Mof_C 	C 	0.0933	0.2693	0.673	0.043
Mof_H 	H 	0.0572	0.2331	0.7118	0.059
Mof_C 	C 	0.1369	0.4005	0.7809	0.319
Mof_O 	O 	0.1725	0.4899	0.79632	-0.301
Mof_C 	C 	0.2035	0.3706	0.5612	-0.084
Mof_C 	C 	0.1526	0.2807	0.539	0.051
Mof_H 	H 	0.1564	0.2538	0.4856	0.043
Mof_C 	C 	0.1418	0.3601	0.6958	-0.08
Mof_C 	C 	0.1951	0.4115	0.6389	0.035
Mof_H 	H 	0.2262	0.4756	0.6531	0.059
Mof_C 	C 	0.038	0.1375	0.5702	0.357
Mof_O 	O 	0.2911	0.5172	0.514	-0.344
Mof_O 	O 	0.3016	0.3674	0.44782	-0.298
Mof_Mn	Mn	0.10452	0.48381	0.92019	0.946
Mof_O 	O 	0.52558	0.3802	0.50406	-0.368
Mof_O 	O 	0.5014	0.4175	0.37482	-0.348
Mof_C 	C 	0.7691	0.0764	0.4967	0.33
Mof_O 	O 	0.5945	0.1508	0.1682	-0.318
Mof_C 	C 	0.5964	0.2698	0.4055	-0.1
Mof_C 	C 	0.5933	0.2307	0.327	0.043
Mof_H 	H 	0.5572	0.2669	0.2882	0.059
Mof_C 	C 	0.6369	0.0995	0.2191	0.319
Mof_O 	O 	0.6725	0.0101	0.20368	-0.302
Mof_C 	C 	0.7035	0.1294	0.4388	-0.084
Mof_C 	C 	0.6526	0.2193	0.461	0.051
Mof_H 	H 	0.6564	0.2462	0.5144	0.043
Mof_C 	C 	0.6418	0.1399	0.3042	-0.081
Mof_C 	C 	0.6951	0.0885	0.3611	0.035
Mof_H 	H 	0.7262	0.0244	0.3469	0.059
Mof_C 	C 	0.538	0.3625	0.4298	0.357
Mof_O 	O 	0.7911	0.9828	0.486	-0.343
Mof_O 	O 	0.8016	0.1326	0.55218	-0.298
Mof_Mn	Mn	0.60452	0.01619	0.07981	0.941
Mof_O 	O 	0.97442	0.6198	0.00406	-0.366
Mof_O 	O 	0.9986	0.5825	0.87482	-0.348
Mof_C 	C 	0.7309	0.9236	0.9967	0.315
Mof_O 	O 	0.9055	0.8492	0.6682	-0.318
Mof_C 	C 	0.9036	0.7302	0.9055	-0.095
Mof_C 	C 	0.9067	0.7693	0.827	0.039
Mof_H 	H 	0.9428	0.7331	0.7882	0.06
Mof_C 	C 	0.8631	0.9005	0.7191	0.318
Mof_O 	O 	0.8275	0.9899	0.70368	-0.301
Mof_C 	C 	0.7965	0.8706	0.9388	-0.077
Mof_C 	C 	0.8474	0.7807	0.961	0.04
Mof_H 	H 	0.8436	0.7538	0.0144	0.049
Mof_C 	C 	0.8582	0.8601	0.8042	-0.078
Mof_C 	C 	0.8049	0.9115	0.8611	0.03
Mof_H 	H 	0.7738	0.9756	0.8469	0.06
Mof_C 	C 	0.962	0.6375	0.9298	0.353
Mof_O 	O 	0.7089	0.0172	0.986	-0.334
Mof_O 	O 	0.6984	0.8674	0.05218	-0.29
Mof_Mn	Mn	0.89548	0.98381	0.57981	0.946
_end
