data_functionalizedCrystal
_audit_creation_method	'EQeq! by Chris Wilmer'
_symmetry_space_group_name_H-M	'P1'
_symmetry_Int_Tables_number	1
_symmetry_cell_setting	triclinic
loop_
_symmetry_equiv_pos_as_xyz
  x,y,z
_cell_length_a	13.4071
_cell_length_b	15.794
_cell_length_c	17.8147
_cell_angle_alpha	93.021
_cell_angle_beta	90
_cell_angle_gamma	90
loop_
_atom_site_label
_atom_site_type_symbol
_atom_site_fract_x
_atom_site_fract_y
_atom_site_fract_z
_atom_site_charge
Mof_Cd	Cd	0.01316	0.74651	0.26068	0.489
Mof_Cd	Cd	0.51316	0.25349	0.23932	0.49
Mof_Ag	Ag	0.26962	0.70157	0.63086	0.702
Mof_Ag	Ag	0.76962	0.29843	0.86914	0.702
Mof_H 	H 	0.1278	0.8555	0.3982	0.093
Mof_H 	H 	0.6178	0.0869	0.4401	0.081
Mof_H 	H 	0.7319	0.2269	0.037	0.003
Mof_H 	H 	0.8918	0.5738	0.0544	0.099
Mof_H 	H 	0.4731	0.1026	0.6732	0.061
Mof_H 	H 	0.6278	0.1445	0.1018	0.092
Mof_H 	H 	0.8009	0.8859	0.4374	0.089
Mof_H 	H 	0.9012	0.9528	0.5848	0.059
Mof_H 	H 	0.9731	0.8974	0.8268	0.061
Mof_H 	H 	0.2635	0.9822	0.2482	0.072
Mof_H 	H 	0.5858	0.184	0.6147	0.064
Mof_H 	H 	0.9905	0.9118	0.4592	0.052
Mof_H 	H 	0.7081	0.2556	0.6865	0.012
Mof_H 	H 	0.757	0.5056	0.2435	0.072
Mof_H 	H 	0.1178	0.9131	0.0599	0.079
Mof_H 	H 	0.3993	0.0511	0.7908	0.071
Mof_H 	H 	0.2319	0.7731	0.463	0.002
Mof_H 	H 	0.8993	0.9489	0.7092	0.071
Mof_H 	H 	0.0858	0.816	0.8853	0.064
Mof_H 	H 	0.3918	0.4262	0.4456	0.097
Mof_H 	H 	0.4012	0.0472	0.9152	0.059
Mof_H 	H 	0.257	0.4944	0.2565	0.072
Mof_H 	H 	0.3009	0.1141	0.0626	0.088
Mof_H 	H 	0.1975	0.6189	0.4525	0.068
Mof_H 	H 	0.6975	0.3811	0.0475	0.069
Mof_H 	H 	0.7635	0.0178	0.2518	0.072
Mof_H 	H 	0.2081	0.7444	0.8135	0.012
Mof_H 	H 	0.4905	0.0882	0.0408	0.051
Mof_C 	C 	0.5966	0.1695	0.8985	0.045
Mof_C 	C 	0.9483	0.9187	0.6821	-0.057
Mof_C 	C 	0.1481	0.6228	0.3065	0.298
Mof_C 	C 	0.6598	0.0496	0.4131	-0.084
Mof_C 	C 	0.6311	0.1322	0.2998	0.288
Mof_C 	C 	0.1795	0.8	0.4887	0.072
Mof_C 	C 	0.3306	0.4475	0.3437	-0.009
Mof_C 	C 	0.3658	0.1165	0.2061	0.276
Mof_C 	C 	0.1171	0.8476	0.449	-0.094
Mof_C 	C 	0.5177	0.1289	0.7787	0.026
Mof_C 	C 	0.0177	0.8711	0.7213	0.025
Mof_C 	C 	0.3858	0.3794	0.2993	0.266
Mof_C 	C 	0.1588	0.7743	0.7895	0.061
Mof_C 	C 	0.749	0.0089	0.3018	-0.044
Mof_C 	C 	0.7159	0.4353	0.1523	-0.029
Mof_C 	C 	0.6588	0.2257	0.7105	0.061
Mof_C 	C 	0.0966	0.8305	0.6015	0.045
Mof_C 	C 	0.1311	0.8678	0.2002	0.289
Mof_C 	C 	0.5909	0.176	0.8195	0.026
Mof_C 	C 	0.2945	0.0566	0.1632	-0.015
Mof_C 	C 	0.5271	0.1211	0.9372	0.001
Mof_C 	C 	0.0869	0.8191	0.8333	-0.071
Mof_C 	C 	0.2317	0.5768	0.4246	-0.087
Mof_C 	C 	0.6815	0.0616	0.3408	-0.029
Mof_C 	C 	0.5384	0.1166	0.0139	-0.015
Mof_C 	C 	0.3479	0.4607	0.4208	-0.091
Mof_C 	C 	0.7013	0.9802	0.4467	0.08
Mof_C 	C 	0.0271	0.8789	0.5628	0.001
Mof_C 	C 	0.7989	0.4746	0.0411	0.093
Mof_C 	C 	0.4483	0.0813	0.8179	-0.057
Mof_C 	C 	0.249	0.9911	0.1982	-0.042
Mof_C 	C 	0.7704	0.9291	0.4122	-0.093
Mof_C 	C 	0.9502	0.9221	0.6084	-0.039
Mof_C 	C 	0.5869	0.1809	0.6667	-0.071
Mof_C 	C 	0.2013	0.0198	0.0533	0.077
Mof_C 	C 	0.6171	0.1524	0.051	-0.095
Mof_C 	C 	0.6795	0.2	0.0113	0.073
Mof_C 	C 	0.0909	0.824	0.6805	0.026
Mof_C 	C 	0.4502	0.0779	0.8916	-0.039
Mof_C 	C 	0.8479	0.5393	0.0792	-0.092
Mof_C 	C 	0.0384	0.8834	0.4861	-0.017
Mof_C 	C 	0.1598	0.9504	0.0869	-0.081
Mof_C 	C 	0.2662	0.5014	0.3082	-0.037
Mof_C 	C 	0.7945	0.9434	0.3368	-0.013
Mof_C 	C 	0.5198	0.1334	0.7019	-0.037
Mof_C 	C 	0.1815	0.9384	0.1592	-0.03
Mof_C 	C 	0.8658	0.8835	0.2939	0.275
Mof_C 	C 	0.2704	0.0709	0.0878	-0.091
Mof_C 	C 	0.2159	0.5647	0.3477	-0.03
Mof_C 	C 	0.2989	0.5254	0.4589	0.092
Mof_C 	C 	0.7317	0.4232	0.0754	-0.087
Mof_C 	C 	0.0198	0.8666	0.7981	-0.037
Mof_C 	C 	0.7662	0.4986	0.1918	-0.038
Mof_C 	C 	0.8858	0.6206	0.2007	0.266
Mof_C 	C 	0.8306	0.5525	0.1563	-0.009
Mof_C 	C 	0.6481	0.3772	0.1935	0.298
Mof_I 	I 	0.83135	0.45598	0.92471	-0.22
Mof_I 	I 	0.16028	0.04104	0.93957	-0.099
Mof_I 	I 	0.33135	0.54402	0.57529	-0.219
Mof_I 	I 	0.66028	0.95896	0.56043	-0.102
Mof_N 	N 	0.6715	0.2115	0.9364	-0.183
Mof_N 	N 	0.6583	0.2265	0.784	-0.17
Mof_N 	N 	0.1583	0.7735	0.716	-0.17
Mof_N 	N 	0.1715	0.7885	0.5636	-0.182
Mof_O 	O 	0.4072	0.1729	0.1688	-0.256
Mof_O 	O 	0.1388	0.615	0.2383	-0.3
Mof_O 	O 	0.4277	0.3217	0.3361	-0.242
Mof_O 	O 	0.3776	0.1081	0.2748	-0.221
Mof_O 	O 	0.6388	0.385	0.2617	-0.3
Mof_O 	O 	0.0923	0.8074	0.1584	-0.31
Mof_O 	O 	0.9072	0.8271	0.3312	-0.255
Mof_O 	O 	0.1245	0.8714	0.2678	-0.281
Mof_O 	O 	0.6027	0.3207	0.153	-0.272
Mof_O 	O 	0.6245	0.1286	0.2322	-0.281
Mof_O 	O 	0.5923	0.1926	0.3416	-0.309
Mof_O 	O 	0.3927	0.38	0.2289	-0.229
Mof_O 	O 	0.8776	0.8919	0.2252	-0.22
Mof_O 	O 	0.1027	0.6793	0.347	-0.272
Mof_O 	O 	0.8927	0.62	0.2711	-0.229
Mof_O 	O 	0.9277	0.6783	0.1639	-0.242
Mof_Cd	Cd	0.48684	0.74651	0.76068	0.489
Mof_Cd	Cd	0.98684	0.25349	0.73932	0.488
Mof_Ag	Ag	0.73038	0.29843	0.36914	0.701
Mof_Ag	Ag	0.23038	0.70157	0.13086	0.701
Mof_H 	H 	0.3025	0.6189	0.9525	0.069
Mof_H 	H 	0.1991	0.1141	0.5626	0.089
Mof_H 	H 	0.1082	0.4262	0.9456	0.098
Mof_H 	H 	0.6082	0.5738	0.5544	0.097
Mof_H 	H 	0.7681	0.2269	0.537	0.002
Mof_H 	H 	0.0988	0.0472	0.4152	0.059
Mof_H 	H 	0.6991	0.8859	0.9374	0.088
Mof_H 	H 	0.1007	0.0511	0.2908	0.071
Mof_H 	H 	0.3722	0.8555	0.8982	0.092
Mof_H 	H 	0.8722	0.1445	0.6018	0.092
Mof_H 	H 	0.2919	0.7444	0.3135	0.012
Mof_H 	H 	0.4142	0.816	0.3853	0.064
Mof_H 	H 	0.2365	0.9822	0.7482	0.072
Mof_H 	H 	0.5988	0.9528	0.0848	0.059
Mof_H 	H 	0.8822	0.0869	0.9401	0.079
Mof_H 	H 	0.5095	0.9118	0.9592	0.051
Mof_H 	H 	0.7365	0.0178	0.7518	0.072
Mof_H 	H 	0.0269	0.1026	0.1732	0.061
Mof_H 	H 	0.0095	0.0882	0.5408	0.052
Mof_H 	H 	0.5269	0.8974	0.3268	0.061
Mof_H 	H 	0.6007	0.9489	0.2092	0.071
Mof_H 	H 	0.2681	0.7731	0.963	0.002
Mof_H 	H 	0.8025	0.3811	0.5475	0.068
Mof_H 	H 	0.743	0.5056	0.7435	0.072
Mof_H 	H 	0.9142	0.184	0.1147	0.064
Mof_H 	H 	0.7919	0.2556	0.1865	0.012
Mof_H 	H 	0.243	0.4944	0.7565	0.072
Mof_H 	H 	0.3822	0.9131	0.5599	0.08
Mof_C 	C 	0.3205	0.8	0.9887	0.073
Mof_C 	C 	0.6142	0.6206	0.7007	0.266
Mof_C 	C 	0.3519	0.6228	0.8065	0.298
Mof_C 	C 	0.6342	0.8835	0.7939	0.276
Mof_C 	C 	0.7987	0.9802	0.9467	0.077
Mof_C 	C 	0.4091	0.824	0.1805	0.026
Mof_C 	C 	0.2841	0.5647	0.8477	-0.029
Mof_C 	C 	0.0517	0.0813	0.3179	-0.057
Mof_C 	C 	0.5498	0.9221	0.1084	-0.039
Mof_C 	C 	0.3402	0.9504	0.5869	-0.084
Mof_C 	C 	0.2296	0.0709	0.5878	-0.093
Mof_C 	C 	0.4616	0.8834	0.9861	-0.015
Mof_C 	C 	0.9802	0.1334	0.2019	-0.037
Mof_C 	C 	0.8205	0.2	0.5113	0.072
Mof_C 	C 	0.8402	0.0496	0.9131	-0.081
Mof_C 	C 	0.7841	0.4353	0.6523	-0.03
Mof_C 	C 	0.7683	0.4232	0.5754	-0.087
Mof_C 	C 	0.2055	0.0566	0.6632	-0.013
Mof_C 	C 	0.1142	0.3794	0.7993	0.266
Mof_C 	C 	0.3689	0.8678	0.7002	0.288
Mof_C 	C 	0.0498	0.0779	0.3916	-0.039
Mof_C 	C 	0.5517	0.9187	0.1821	-0.057
Mof_C 	C 	0.1521	0.4607	0.9208	-0.092
Mof_C 	C 	0.8689	0.1322	0.7998	0.289
Mof_C 	C 	0.4823	0.8711	0.2213	0.026
Mof_C 	C 	0.9131	0.1809	0.1667	-0.071
Mof_C 	C 	0.9823	0.1289	0.2787	0.025
Mof_C 	C 	0.8829	0.1524	0.551	-0.094
Mof_C 	C 	0.1342	0.1165	0.7061	0.275
Mof_C 	C 	0.7011	0.4746	0.5411	0.092
Mof_C 	C 	0.4131	0.8191	0.3333	-0.071
Mof_C 	C 	0.3829	0.8476	0.949	-0.095
Mof_C 	C 	0.751	0.0089	0.8018	-0.042
Mof_C 	C 	0.3412	0.7743	0.2895	0.061
Mof_C 	C 	0.9091	0.176	0.3195	0.026
Mof_C 	C 	0.7055	0.9434	0.8368	-0.015
Mof_C 	C 	0.4729	0.8789	0.0628	0.001
Mof_C 	C 	0.251	0.9911	0.6982	-0.044
Mof_C 	C 	0.7296	0.9291	0.9122	-0.091
Mof_C 	C 	0.9729	0.1211	0.4372	0.001
Mof_C 	C 	0.9034	0.1695	0.3985	0.045
Mof_C 	C 	0.6694	0.5525	0.6563	-0.009
Mof_C 	C 	0.2338	0.5014	0.8082	-0.038
Mof_C 	C 	0.1694	0.4475	0.8437	-0.009
Mof_C 	C 	0.4802	0.8666	0.2981	-0.037
Mof_C 	C 	0.8519	0.3772	0.6935	0.298
Mof_C 	C 	0.8412	0.2257	0.2105	0.061
Mof_C 	C 	0.8185	0.0616	0.8408	-0.03
Mof_C 	C 	0.3185	0.9384	0.6592	-0.029
Mof_C 	C 	0.2011	0.5254	0.9589	0.093
Mof_C 	C 	0.9616	0.1166	0.5139	-0.017
Mof_C 	C 	0.6521	0.5393	0.5792	-0.091
Mof_C 	C 	0.2683	0.5768	0.9246	-0.087
Mof_C 	C 	0.4034	0.8305	0.1015	0.045
Mof_C 	C 	0.7338	0.4986	0.6918	-0.037
Mof_C 	C 	0.2987	0.0198	0.5533	0.08
Mof_I 	I 	0.83972	0.95896	0.06043	-0.099
Mof_I 	I 	0.16865	0.54402	0.07529	-0.22
Mof_I 	I 	0.33972	0.04104	0.43957	-0.102
Mof_I 	I 	0.66865	0.45598	0.42471	-0.219
Mof_N 	N 	0.8285	0.2115	0.4364	-0.182
Mof_N 	N 	0.8417	0.2265	0.284	-0.17
Mof_N 	N 	0.3285	0.7885	0.0636	-0.183
Mof_N 	N 	0.3417	0.7735	0.216	-0.17
Mof_O 	O 	0.3755	0.8714	0.7678	-0.281
Mof_O 	O 	0.8755	0.1286	0.7322	-0.281
Mof_O 	O 	0.3612	0.615	0.7383	-0.3
Mof_O 	O 	0.4077	0.8074	0.6584	-0.309
Mof_O 	O 	0.0928	0.1729	0.6688	-0.255
Mof_O 	O 	0.9077	0.1926	0.8416	-0.31
Mof_O 	O 	0.1224	0.1081	0.7748	-0.22
Mof_O 	O 	0.8973	0.3207	0.653	-0.272
Mof_O 	O 	0.5723	0.6783	0.6639	-0.242
Mof_O 	O 	0.1073	0.38	0.7289	-0.229
Mof_O 	O 	0.6073	0.62	0.7711	-0.229
Mof_O 	O 	0.3973	0.6793	0.847	-0.272
Mof_O 	O 	0.6224	0.8919	0.7252	-0.221
Mof_O 	O 	0.5928	0.8271	0.8312	-0.256
Mof_O 	O 	0.8612	0.385	0.7617	-0.3
Mof_O 	O 	0.0723	0.3217	0.8361	-0.242
_end
