data_functionalizedCrystal
_audit_creation_method	'EQeq! by Chris Wilmer'
_symmetry_space_group_name_H-M	'P1'
_symmetry_Int_Tables_number	1
_symmetry_cell_setting	triclinic
loop_
_symmetry_equiv_pos_as_xyz
  x,y,z
_cell_length_a	8.429
_cell_length_b	8.429
_cell_length_c	39.6619
_cell_angle_alpha	90
_cell_angle_beta	90
_cell_angle_gamma	120
loop_
_atom_site_label
_atom_site_type_symbol
_atom_site_fract_x
_atom_site_fract_y
_atom_site_fract_z
_atom_site_charge
Mof_N 	N 	0.7772	0.65393	0.04338	-0.368
Mof_C 	C 	0.86104	0.78345	0.02763	0.002
Mof_N 	N 	0.44387	0.98726	0.37671	-0.25
Mof_C 	C 	0.52771	0.11678	0.36096	-0.287
Mof_N 	N 	0.11053	0.3206	0.71005	-0.313
Mof_C 	C 	0.19437	0.45012	0.6943	-0.189
Mof_N 	N 	0.34607	0.12327	0.04338	-0.371
Mof_C 	C 	0.21655	0.07759	0.02763	-0.194
Mof_N 	N 	0.01274	0.4566	0.37671	-0.432
Mof_C 	C 	0.88322	0.41092	0.36096	-0.057
Mof_N 	N 	0.6794	0.78994	0.71005	-0.237
Mof_C 	C 	0.54988	0.74426	0.6943	-0.149
Mof_N 	N 	0.87673	0.2228	0.04338	-0.361
Mof_C 	C 	0.92241	0.13896	0.02763	-0.085
Mof_N 	N 	0.5434	0.55613	0.37671	-0.331
Mof_C 	C 	0.58908	0.47229	0.36096	-0.167
Mof_N 	N 	0.21006	0.88947	0.71005	-0.259
Mof_C 	C 	0.25574	0.80563	0.6943	-0.162
Mof_N 	N 	0.65393	0.7772	0.45662	-0.369
Mof_C 	C 	0.78345	0.86104	0.47237	0.001
Mof_N 	N 	0.3206	0.11053	0.78995	-0.313
Mof_C 	C 	0.45012	0.19437	0.8057	-0.189
Mof_N 	N 	0.98726	0.44387	0.12329	-0.25
Mof_C 	C 	0.11678	0.52771	0.13904	-0.287
Mof_N 	N 	0.12327	0.34607	0.45662	-0.371
Mof_C 	C 	0.07759	0.21655	0.47237	-0.194
Mof_N 	N 	0.78994	0.6794	0.78995	-0.237
Mof_C 	C 	0.74426	0.54988	0.8057	-0.149
Mof_N 	N 	0.4566	0.01274	0.12329	-0.432
Mof_C 	C 	0.41092	0.88322	0.13904	-0.057
Mof_N 	N 	0.2228	0.87673	0.45662	-0.361
Mof_C 	C 	0.13896	0.92241	0.47237	-0.085
Mof_N 	N 	0.88947	0.21006	0.78995	-0.259
Mof_C 	C 	0.80563	0.25574	0.8057	-0.162
Mof_N 	N 	0.55613	0.5434	0.12329	-0.331
Mof_C 	C 	0.47229	0.58908	0.13904	-0.167
Mof_N 	N 	0.2228	0.34607	0.95662	-0.365
Mof_C 	C 	0.13896	0.21655	0.97237	-0.188
Mof_N 	N 	0.88947	0.6794	0.28995	-0.228
Mof_C 	C 	0.80563	0.54988	0.3057	-0.145
Mof_N 	N 	0.55613	0.01274	0.62329	-0.425
Mof_C 	C 	0.47229	0.88322	0.63904	-0.054
Mof_N 	N 	0.65393	0.87673	0.95662	-0.363
Mof_C 	C 	0.78345	0.92241	0.97237	0.006
Mof_N 	N 	0.3206	0.21006	0.28995	-0.304
Mof_C 	C 	0.45012	0.25574	0.3057	-0.185
Mof_N 	N 	0.98726	0.5434	0.62329	-0.244
Mof_C 	C 	0.11678	0.58908	0.63904	-0.282
Mof_N 	N 	0.12327	0.7772	0.95662	-0.373
Mof_C 	C 	0.07759	0.86104	0.97237	-0.092
Mof_N 	N 	0.78994	0.11053	0.28995	-0.278
Mof_C 	C 	0.74426	0.19437	0.3057	-0.17
Mof_N 	N 	0.4566	0.44387	0.62329	-0.344
Mof_C 	C 	0.41092	0.52771	0.63904	-0.176
Mof_N 	N 	0.34607	0.2228	0.54338	-0.364
Mof_C 	C 	0.21655	0.13896	0.52763	-0.189
Mof_N 	N 	0.01274	0.55613	0.87671	-0.425
Mof_C 	C 	0.88322	0.47229	0.86096	-0.054
Mof_N 	N 	0.6794	0.88947	0.21005	-0.228
Mof_C 	C 	0.54988	0.80563	0.1943	-0.145
Mof_N 	N 	0.87673	0.65393	0.54338	-0.362
Mof_C 	C 	0.92241	0.78345	0.52763	0.005
Mof_N 	N 	0.5434	0.98726	0.87671	-0.245
Mof_C 	C 	0.58908	0.11678	0.86096	-0.281
Mof_N 	N 	0.21006	0.3206	0.21005	-0.304
Mof_C 	C 	0.25574	0.45012	0.1943	-0.185
Mof_N 	N 	0.7772	0.12327	0.54338	-0.373
Mof_C 	C 	0.86104	0.07759	0.52763	-0.093
Mof_N 	N 	0.44387	0.4566	0.87671	-0.344
Mof_C 	C 	0.52771	0.41092	0.86096	-0.176
Mof_N 	N 	0.11053	0.78994	0.21005	-0.278
Mof_C 	C 	0.19437	0.74426	0.1943	-0.17
Mof_Fe	Fe	-0	0	-0	0.232
Mof_Fe	Fe	0.66667	0.33333	0.33333	0.637
Mof_Fe	Fe	0.33333	0.66667	0.66667	0.637
Mof_Fe	Fe	-2.06883e-32	0	0.5	0.234
Mof_Fe	Fe	0.66667	0.33333	0.83333	0.637
Mof_Fe	Fe	0.33333	0.66667	0.16667	0.637
Mof_K 	K 	0.66667	0.33333	0.08333	2.538
Mof_K 	K 	4.13765e-32	0	0.75	1.836
Mof_K 	K 	0.33333	0.66667	0.41667	2.539
Mof_K 	K 	0.33333	0.66667	0.91667	2.54
Mof_K 	K 	-1.03441e-32	0	0.25	1.837
Mof_K 	K 	0.66667	0.33333	0.58333	2.539
_end
