data_functionalizedCrystal
_audit_creation_method	'EQeq! by Chris Wilmer'
_symmetry_space_group_name_H-M	'P1'
_symmetry_Int_Tables_number	1
_symmetry_cell_setting	triclinic
loop_
_symmetry_equiv_pos_as_xyz
  x,y,z
_cell_length_a	15.482
_cell_length_b	16.212
_cell_length_c	19.631
_cell_angle_alpha	93.931
_cell_angle_beta	103.836
_cell_angle_gamma	106.406
loop_
_atom_site_label
_atom_site_type_symbol
_atom_site_fract_x
_atom_site_fract_y
_atom_site_fract_z
_atom_site_charge
Mof_Cd	Cd	0.07736	0.08852	0.19578	0.408
Mof_Cd	Cd	0.67644	0.55165	0.34865	0.458
Mof_C 	C 	0.9226	0.9551	0.2282	0.319
Mof_C 	C 	0.8223	0.8999	0.2196	-0.085
Mof_C 	C 	0.7512	0.9152	0.1725	0.027
Mof_H 	H 	0.7636	0.964	0.1498	0.046
Mof_C 	C 	0.6598	0.8597	0.1572	-0.081
Mof_C 	C 	0.6427	0.7833	0.187	0.026
Mof_H 	H 	0.5832	0.743	0.1744	0.054
Mof_C 	C 	0.7154	0.7679	0.2356	-0.087
Mof_C 	C 	0.8052	0.8262	0.2536	0.025
Mof_H 	H 	0.8531	0.8165	0.2876	0.056
Mof_C 	C 	0.5823	0.8768	0.1021	0.304
Mof_C 	C 	0.6994	0.6856	0.2697	0.343
Mof_C 	C 	0.1933	0.2342	0.2755	0.296
Mof_C 	C 	0.2572	0.3167	0.3239	-0.066
Mof_C 	C 	0.2409	0.3421	0.3861	0.008
Mof_H 	H 	0.1877	0.3093	0.3973	0.062
Mof_C 	C 	0.3002	0.4143	0.4331	-0.057
Mof_C 	C 	0.3766	0.4634	0.4166	0.009
Mof_H 	H 	0.4141	0.5143	0.4467	0.061
Mof_C 	C 	0.401	0.4399	0.3553	-0.065
Mof_C 	C 	0.3437	0.3627	0.3086	0.005
Mof_H 	H 	0.361	0.3427	0.27	0.057
Mof_C 	C 	0.4904	0.4886	0.3417	0.298
Mof_C 	C 	0.291	0.4329	0.5088	0.292
Mof_C 	C 	0.5912	0.8834	0.9151	0.026
Mof_H 	H 	0.5725	0.844	0.9451	0.038
Mof_C 	C 	0.6373	0.8628	0.869	-0.04
Mof_H 	H 	0.651	0.8105	0.8684	0.06
Mof_C 	C 	0.6631	0.918	0.824	-0.072
Mof_H 	H 	0.6932	0.9035	0.7915	0.066
Mof_C 	C 	0.6448	0.9947	0.8265	0.053
Mof_C 	C 	0.5982	0.0143	0.8718	-0.037
Mof_H 	H 	0.5835	0.0661	0.8711	0.054
Mof_C 	C 	0.6713	0.0591	0.7754	-0.114
Mof_H 	H 	0.6621	0.1137	0.7899	0.067
Mof_H 	H 	0.7367	0.0703	0.7771	0.065
Mof_C 	C 	0.6403	0.0731	0.6463	-0.081
Mof_H 	H 	0.6982	0.0678	0.6387	0.054
Mof_H 	H 	0.646	0.1341	0.657	0.03
Mof_C 	C 	0.5548	0.0258	0.582	-0.093
Mof_H 	H 	0.5497	0.9646	0.5756	0.065
Mof_H 	H 	0.4981	0.0306	0.5923	0.101
Mof_C 	C 	0.1153	0.084	0.0476	0.049
Mof_H 	H 	0.1073	0.1385	0.0535	0.012
Mof_C 	C 	0.1393	0.0588	0.9887	-0.077
Mof_H 	H 	0.144	0.0954	0.9544	0.066
Mof_C 	C 	0.1565	0.981	0.9789	-0.027
Mof_H 	H 	0.1743	0.9642	0.9394	0.054
Mof_C 	C 	0.1458	0.9289	0.0314	0.008
Mof_C 	C 	0.1186	0.9565	0.087	0.013
Mof_H 	H 	0.11	0.9199	0.1209	0.027
Mof_C 	C 	0.1678	0.8432	0.0238	-0.095
Mof_H 	H 	0.2005	0.8433	0.9874	0.068
Mof_H 	H 	0.2092	0.8387	0.0681	0.06
Mof_C 	C 	0.1005	0.684	0.9834	-0.041
Mof_H 	H 	0.161	0.6833	0.0113	0.024
Mof_H 	H 	0.0997	0.6788	0.9337	0.029
Mof_C 	C 	0.0209	0.6076	0.9962	-0.05
Mof_H 	H 	0.0156	0.6161	0.0442	0.137
Mof_H 	H 	0.9612	0.6018	0.9631	-0.076
Mof_N 	N 	0.1033	0.0328	0.0962	-0.147
Mof_N 	N 	0.0829	0.7659	0.0051	-0.236
Mof_H 	H 	0.0595	0.7597	0.0424	0.115
Mof_H 	H 	0.0401	0.7752	0.9699	0.122
Mof_N 	N 	0.5716	0.9601	0.9189	-0.116
Mof_N 	N 	0.6129	0.0233	0.702	-0.224
Mof_H 	H 	0.6147	0.9695	0.6922	0.12
Mof_H 	H 	0.554	0.0198	0.7002	0.113
Mof_O 	O 	0.9365	0.0165	0.1946	-0.304
Mof_O 	O 	0.9885	0.9386	0.2721	-0.243
Mof_O 	O 	0.126	0.1917	0.295	-0.272
Mof_O 	O 	0.213	0.2128	0.2196	-0.281
Mof_O 	O 	0.5952	0.954	0.0891	-0.278
Mof_O 	O 	0.5105	0.8141	0.0763	-0.251
Mof_O 	O 	0.5268	0.4514	0.3052	-0.262
Mof_O 	O 	0.3288	0.5082	0.5418	-0.256
Mof_O 	O 	0.2512	0.3693	0.535	-0.245
Mof_O 	O 	0.7571	0.6796	0.3201	-0.285
Mof_O 	O 	0.626	0.6264	0.2442	-0.265
Mof_O 	O 	0.5318	0.5664	0.3746	-0.237
Mof_C 	C 	0.563	0.0618	0.5127	-0.05
Mof_H 	H 	0.5694	0.1228	0.5172	0.041
Mof_H 	H 	0.6174	0.0527	0.5026	0.032
Mof_C 	C 	0.0532	0.5266	0.9832	-0.102
Mof_H 	H 	0.056	0.5211	0.9348	0.051
Mof_H 	H 	0.1136	0.5326	0.0141	0.055
Mof_C 	C 	0.4897	0.0098	0.5526	-0.204
Mof_H 	H 	0.4715	0.9676	0.5827	0.061
Mof_H 	H 	0.4719	0.0601	0.5638	0.058
Mof_C 	C 	0.5968	0.0336	0.5673	0.045
Mof_H 	H 	0.617	0.0775	0.5384	0.018
Mof_H 	H 	0.6166	0.9839	0.5558	0.01
Mof_C 	C 	0.024	0.5626	0.0357	-0.03
Mof_H 	H 	0.0844	0.5558	0.056	0.038
Mof_H 	H 	0.0136	0.6049	0.0666	-0.084
Mof_C 	C 	0.0264	0.5935	0.9638	-0.04
Mof_H 	H 	0.9659	0.6006	0.943	0.123
Mof_H 	H 	0.039	0.5539	0.931	0.03
Mof_H 	H 	0.1255	0.6936	0.9428	0.014
Mof_H 	H 	0.1508	0.6789	0.0215	0.015
Mof_H 	H 	0.7076	0.0871	0.6554	0.001
Mof_H 	H 	0.627	0.1277	0.6526	0.024
Mof_Cd	Cd	0.92264	0.91148	0.80422	0.412
Mof_Cd	Cd	0.32356	0.44835	0.65135	0.46
Mof_C 	C 	0.0774	0.0449	0.7718	0.305
Mof_C 	C 	0.1777	0.1001	0.7804	-0.082
Mof_C 	C 	0.2488	0.0848	0.8275	0.024
Mof_H 	H 	0.2364	0.036	0.8502	0.045
Mof_C 	C 	0.3402	0.1403	0.8428	-0.08
Mof_C 	C 	0.3573	0.2167	0.813	0.025
Mof_H 	H 	0.4168	0.257	0.8256	0.055
Mof_C 	C 	0.2846	0.2321	0.7644	-0.086
Mof_C 	C 	0.1948	0.1738	0.7464	0.023
Mof_H 	H 	0.1469	0.1835	0.7124	0.057
Mof_C 	C 	0.4177	0.1232	0.8979	0.304
Mof_C 	C 	0.3006	0.3144	0.7303	0.342
Mof_C 	C 	0.8067	0.7658	0.7245	0.296
Mof_C 	C 	0.7428	0.6833	0.6761	-0.064
Mof_C 	C 	0.7591	0.6579	0.6139	0.008
Mof_H 	H 	0.8123	0.6907	0.6027	0.063
Mof_C 	C 	0.6998	0.5857	0.5669	-0.057
Mof_C 	C 	0.6234	0.5366	0.5834	0.009
Mof_H 	H 	0.5859	0.4857	0.5533	0.061
Mof_C 	C 	0.599	0.5601	0.6447	-0.065
Mof_C 	C 	0.6563	0.6373	0.6914	0.005
Mof_H 	H 	0.639	0.6573	0.73	0.058
Mof_C 	C 	0.5096	0.5114	0.6583	0.298
Mof_C 	C 	0.709	0.5671	0.4912	0.291
Mof_C 	C 	0.4088	0.1166	0.0849	0.041
Mof_H 	H 	0.4275	0.156	0.0549	0.03
Mof_C 	C 	0.3627	0.1372	0.131	-0.071
Mof_H 	H 	0.349	0.1895	0.1316	0.069
Mof_C 	C 	0.3369	0.082	0.176	-0.035
Mof_H 	H 	0.3068	0.0965	0.2085	0.051
Mof_C 	C 	0.3552	0.0053	0.1735	-0
Mof_C 	C 	0.4018	0.9857	0.1282	0.011
Mof_H 	H 	0.4165	0.9339	0.1289	0.039
Mof_C 	C 	0.3287	0.9409	0.2246	-0.078
Mof_H 	H 	0.3379	0.8863	0.2101	0.056
Mof_H 	H 	0.2633	0.9297	0.2229	0.057
Mof_C 	C 	0.3597	0.9269	0.3537	-0.076
Mof_H 	H 	0.3018	0.9322	0.3613	0.027
Mof_H 	H 	0.354	0.8659	0.343	0.031
Mof_C 	C 	0.4452	0.9742	0.418	-0.071
Mof_H 	H 	0.4503	0.0354	0.4244	0.054
Mof_H 	H 	0.5019	0.9694	0.4077	0.089
Mof_C 	C 	0.8847	0.916	0.9524	0.046
Mof_H 	H 	0.8927	0.8615	0.9465	0.015
Mof_C 	C 	0.8607	0.9412	0.0113	-0.054
Mof_H 	H 	0.856	0.9046	0.0456	0.057
Mof_C 	C 	0.8435	0.019	0.0211	-0.068
Mof_H 	H 	0.8257	0.0358	0.0606	0.063
Mof_C 	C 	0.8542	0.0711	0.9686	0.031
Mof_C 	C 	0.8814	0.0435	0.913	-0.011
Mof_H 	H 	0.89	0.0801	0.8791	0.033
Mof_C 	C 	0.8322	0.1568	0.9762	-0.091
Mof_H 	H 	0.7995	0.1567	0.0126	0.06
Mof_H 	H 	0.7908	0.1613	0.9319	0.059
Mof_C 	C 	0.8995	0.316	0.0166	-0.057
Mof_H 	H 	0.839	0.3167	0.9887	0.027
Mof_H 	H 	0.9003	0.3212	0.0663	0.054
Mof_C 	C 	0.9791	0.3924	0.0038	-0.125
Mof_H 	H 	0.9844	0.3839	0.9558	0.274
Mof_H 	H 	0.0388	0.3982	0.0369	-0.339
Mof_N 	N 	0.8967	0.9672	0.9038	-0.136
Mof_N 	N 	0.9171	0.2341	0.9949	-0.225
Mof_H 	H 	0.9405	0.2403	0.9576	0.116
Mof_H 	H 	0.9599	0.2248	0.0301	0.112
Mof_N 	N 	0.4284	0.0399	0.0811	-0.135
Mof_N 	N 	0.3871	0.9767	0.298	-0.223
Mof_H 	H 	0.3853	0.0305	0.3078	0.112
Mof_H 	H 	0.446	0.9802	0.2998	0.117
Mof_O 	O 	0.0635	0.9835	0.8054	-0.289
Mof_O 	O 	0.0115	0.0614	0.7279	-0.242
Mof_O 	O 	0.874	0.8083	0.705	-0.27
Mof_O 	O 	0.787	0.7872	0.7804	-0.28
Mof_O 	O 	0.4048	0.046	0.9109	-0.28
Mof_O 	O 	0.4895	0.1859	0.9237	-0.249
Mof_O 	O 	0.4732	0.5486	0.6948	-0.261
Mof_O 	O 	0.6712	0.4918	0.4582	-0.256
Mof_O 	O 	0.7488	0.6307	0.465	-0.244
Mof_O 	O 	0.2429	0.3204	0.6799	-0.285
Mof_O 	O 	0.374	0.3736	0.7558	-0.264
Mof_O 	O 	0.4682	0.4336	0.6254	-0.237
Mof_C 	C 	0.437	0.9382	0.4873	-0.045
Mof_H 	H 	0.4306	0.8772	0.4828	0.039
Mof_H 	H 	0.3826	0.9473	0.4974	0.037
Mof_C 	C 	0.9468	0.4734	0.0168	-0.143
Mof_H 	H 	0.944	0.4789	0.0652	0.074
Mof_H 	H 	0.8864	0.4674	0.9859	0.07
Mof_C 	C 	0.5103	0.9902	0.4474	-0.167
Mof_H 	H 	0.5285	0.0324	0.4173	0.046
Mof_H 	H 	0.5281	0.9399	0.4362	0.053
Mof_C 	C 	0.4032	0.9664	0.4327	0.031
Mof_H 	H 	0.383	0.9225	0.4616	0.02
Mof_H 	H 	0.3834	0.0161	0.4442	0.01
Mof_C 	C 	0.976	0.4374	0.9643	0.047
Mof_H 	H 	0.9156	0.4442	0.944	0.021
Mof_H 	H 	0.9864	0.3951	0.9334	-0.211
Mof_C 	C 	0.9736	0.4065	0.0362	-0.007
Mof_H 	H 	0.0341	0.3994	0.057	0.388
Mof_H 	H 	0.961	0.4461	0.069	-0.005
Mof_H 	H 	0.8745	0.3064	0.0572	-0.014
Mof_H 	H 	0.8492	0.3211	0.9785	0.022
Mof_H 	H 	0.2924	0.9129	0.3446	0.029
Mof_H 	H 	0.373	0.8723	0.3474	0.02
Mof_Cd	Cd	0.5	0	-0	0.389
_end
