data_functionalizedCrystal
_audit_creation_method	'EQeq! by Chris Wilmer'
_symmetry_space_group_name_H-M	'P1'
_symmetry_Int_Tables_number	1
_symmetry_cell_setting	triclinic
loop_
_symmetry_equiv_pos_as_xyz
  x,y,z
_cell_length_a	11.567
_cell_length_b	11.8393
_cell_length_c	14.227
_cell_angle_alpha	112.497
_cell_angle_beta	90
_cell_angle_gamma	119.242
loop_
_atom_site_label
_atom_site_type_symbol
_atom_site_fract_x
_atom_site_fract_y
_atom_site_fract_z
_atom_site_charge
Mof_Zn	Zn	0.34514	0.71626	0.75624	1.206
Mof_Zn	Zn	0.37112	0.71626	0.25624	1.207
Mof_H 	H 	0.5308	0.4218	0.1461	0.095
Mof_H 	H 	0.1608	0.1864	0.9683	0.079
Mof_H 	H 	0.1897	0.0068	0.8701	0.052
Mof_H 	H 	0.4185	0.5538	0.5477	0.012
Mof_H 	H 	0.55	0.9738	0.7083	0.009
Mof_H 	H 	0.6567	0.9416	0.5535	0.028
Mof_H 	H 	0.6135	0.7032	0.3815	0.082
Mof_H 	H 	0.5369	0.5574	0.3908	0.083
Mof_H 	H 	0.6659	0.5286	0.5193	0.061
Mof_H 	H 	0.8788	0.5802	0.5838	0.056
Mof_H 	H 	0.0559	0.9052	0.5012	0.026
Mof_H 	H 	0.843	0.8536	0.4367	0.056
Mof_H 	H 	0.1359	0.763	0.6466	0.07
Mof_H 	H 	0.1955	0.8966	0.6204	0.064
Mof_H 	H 	0.315	0.8858	0.4622	0.003
Mof_H 	H 	0.1748	0.4566	0.3178	0.033
Mof_H 	H 	0.0712	0.4974	0.4736	0.043
Mof_H 	H 	0.6397	0.2094	0.996	0.195
Mof_H 	H 	0.6787	0.3426	0.0923	0.165
Mof_H 	H 	0.891	0.4218	0.6461	0.094
Mof_H 	H 	0.0256	0.1864	0.4683	0.055
Mof_H 	H 	0.8171	0.0068	0.3701	0.068
Mof_H 	H 	0.1353	0.5538	0.0477	0.011
Mof_H 	H 	0.4238	0.9738	0.2083	0.009
Mof_H 	H 	0.2849	0.9416	0.0535	0.029
Mof_H 	H 	0.0897	0.7032	0.8815	0.082
Mof_H 	H 	0.0205	0.5574	0.8908	0.081
Mof_H 	H 	0.8627	0.5286	0.0193	0.06
Mof_H 	H 	0.7014	0.5802	0.0838	0.057
Mof_H 	H 	0.8493	0.9052	0.0012	0.052
Mof_H 	H 	0.0106	0.8536	0.9367	0.032
Mof_H 	H 	0.6271	0.763	0.1466	0.07
Mof_H 	H 	0.7011	0.8966	0.1204	0.064
Mof_H 	H 	0.5708	0.8858	0.9622	0.003
Mof_H 	H 	0.2818	0.4566	0.8178	0.033
Mof_H 	H 	0.4262	0.4974	0.9736	0.044
Mof_H 	H 	0.5697	0.2094	0.496	0.198
Mof_H 	H 	0.6639	0.3426	0.5923	0.163
Mof_C 	C 	0.4041	0.9834	0.882	0.22
Mof_C 	C 	0.3896	0.11	0.946	-0.099
Mof_C 	C 	0.4962	0.2328	0.0279	0.214
Mof_C 	C 	0.4643	0.339	0.0891	-0.158
Mof_C 	C 	0.3398	0.323	0.067	0.02
Mof_C 	C 	0.2449	0.1978	0.9842	-0.098
Mof_C 	C 	0.2603	0.0904	0.924	0.04
Mof_C 	C 	0.3049	0.4316	0.1298	0.283
Mof_C 	C 	0.4604	0.6516	0.5663	0.062
Mof_C 	C 	0.5348	0.8872	0.6571	-0.007
Mof_C 	C 	0.5947	0.8688	0.5702	-0.01
Mof_C 	C 	0.6011	0.6602	0.4296	-0.154
Mof_C 	C 	0.7334	0.686	0.4716	0.083
Mof_C 	C 	0.7441	0.604	0.5156	-0.084
Mof_C 	C 	0.8717	0.635	0.5543	-0.064
Mof_C 	C 	0.9885	0.7478	0.5489	0.064
Mof_C 	C 	0.9778	0.8298	0.5048	-0.038
Mof_C 	C 	0.8502	0.7988	0.4662	-0.097
Mof_C 	C 	0.1336	0.7932	0.5925	-0.143
Mof_C 	C 	0.2655	0.7874	0.4434	0.036
Mof_C 	C 	0.1869	0.5444	0.3639	0.002
Mof_C 	C 	0.1264	0.566	0.4511	-0.017
Mof_C 	C 	0.5793	0.9834	0.382	0.213
Mof_C 	C 	0.7204	0.11	0.446	-0.076
Mof_C 	C 	0.7366	0.2328	0.5279	0.197
Mof_C 	C 	0.8747	0.339	0.5891	-0.144
Mof_C 	C 	0.9832	0.323	0.567	0.004
Mof_C 	C 	0.9529	0.1978	0.4842	-0.041
Mof_C 	C 	0.8301	0.0904	0.424	0.005
Mof_C 	C 	0.1267	0.4316	0.6298	0.279
Mof_C 	C 	0.1912	0.6516	0.0663	0.062
Mof_C 	C 	0.3524	0.8872	0.1571	-0.007
Mof_C 	C 	0.2741	0.8688	0.0702	-0.011
Mof_C 	C 	0.0591	0.6602	0.9296	-0.164
Mof_C 	C 	0.9526	0.686	0.9716	0.074
Mof_C 	C 	0.8599	0.604	0.0156	-0.069
Mof_C 	C 	0.7633	0.635	0.0543	-0.071
Mof_C 	C 	0.7593	0.7478	0.0489	0.066
Mof_C 	C 	0.852	0.8298	0.0048	-0.072
Mof_C 	C 	0.9486	0.7988	0.9662	-0.062
Mof_C 	C 	0.6596	0.7932	0.0925	-0.13
Mof_C 	C 	0.5219	0.7874	0.9434	0.037
Mof_C 	C 	0.3575	0.5444	0.8639	0.002
Mof_C 	C 	0.4396	0.566	0.9511	-0.017
Mof_N 	N 	0.4482	0.7498	0.6512	-0.266
Mof_N 	N 	0.5442	0.722	0.514	-0.098
Mof_N 	N 	0.2701	0.6796	0.3579	-0.267
Mof_N 	N 	0.1675	0.7146	0.4974	-0.093
Mof_N 	N 	0.6176	0.265	0.04	-0.351
Mof_N 	N 	0.3016	0.7498	0.1512	-0.266
Mof_N 	N 	0.1778	0.722	0.014	-0.095
Mof_N 	N 	0.4095	0.6796	0.8579	-0.267
Mof_N 	N 	0.5471	0.7146	0.9974	-0.096
Mof_N 	N 	0.6474	0.265	0.54	-0.352
Mof_O 	O 	0.5254	0.0114	0.8961	-0.247
Mof_O 	O 	0.302	0.8662	0.822	-0.447
Mof_O 	O 	0.4067	0.548	0.1907	-0.417
Mof_O 	O 	0.188	0.4176	0.1206	-0.295
Mof_O 	O 	0.486	0.0114	0.3961	-0.244
Mof_O 	O 	0.5642	0.8662	0.322	-0.444
Mof_O 	O 	0.1413	0.548	0.6907	-0.42
Mof_O 	O 	0.2296	0.4176	0.6206	-0.295
_end
