data_functionalizedCrystal
_audit_creation_method	'EQeq! by Chris Wilmer'
_symmetry_space_group_name_H-M	'P1'
_symmetry_Int_Tables_number	1
_symmetry_cell_setting	triclinic
loop_
_symmetry_equiv_pos_as_xyz
  x,y,z
_cell_length_a	12.3034
_cell_length_b	12.4408
_cell_length_c	12.8156
_cell_angle_alpha	90
_cell_angle_beta	91.19
_cell_angle_gamma	90
loop_
_atom_site_label
_atom_site_type_symbol
_atom_site_fract_x
_atom_site_fract_y
_atom_site_fract_z
_atom_site_charge
Mof_C 	C 	0.7192	0.50276	0.0229	0.501
Mof_C 	C 	0.7748	0.00123	0.9869	0.473
Mof_C 	C 	0.7369	0.2711	0.7553	0.515
Mof_C 	C 	0.7528	0.7808	0.2415	0.711
Mof_C 	C 	0.0105	0.7174	0.9965	0.444
Mof_C 	C 	0.4925	0.2295	0.0432	0.485
Mof_H 	H 	0.79	0.326	0.759	-0.115
Mof_H 	H 	0.797	0.833	0.244	-0.227
Mof_H 	H 	0.005	0.771	0.938	-0.069
Mof_H 	H 	0.496	0.305	0.077	-0.074
Mof_H 	H 	0.779	0.504	0.073	-0.098
Mof_H 	H 	0.71	0.996	0.941	-0.084
Mof_Mn	Mn	0.7403	0.25281	0.0078	1.085
Mof_Mn	Mn	0.75929	0.75241	0.99347	1.092
Mof_O 	O 	0.57821	0.19195	0.01782	-0.388
Mof_O 	O 	0.9217	0.68697	0.0297	-0.349
Mof_O 	O 	0.80603	0.09038	0.01845	-0.366
Mof_O 	O 	0.10034	0.68317	0.0252	-0.368
Mof_O 	O 	0.40137	0.18823	0.03794	-0.386
Mof_O 	O 	0.7069	0.23381	0.83995	-0.371
Mof_O 	O 	0.81761	0.91445	0.0094	-0.375
Mof_O 	O 	0.67444	0.41515	0.00262	-0.378
Mof_O 	O 	0.7025	0.24079	0.67021	-0.392
Mof_O 	O 	0.7275	0.74059	0.15771	-0.447
Mof_O 	O 	0.7211	0.75103	0.32746	-0.443
Mof_O 	O 	0.69965	0.5879	0.97976	-0.378
Mof_C 	C 	0.7808	0.00276	0.4771	0.493
Mof_C 	C 	0.7252	0.50123	0.5131	0.474
Mof_C 	C 	0.7631	0.7711	0.7447	0.517
Mof_C 	C 	0.7472	0.2808	0.2585	0.714
Mof_C 	C 	0.4895	0.2174	0.5035	0.451
Mof_C 	C 	0.0075	0.7295	0.4568	0.482
Mof_H 	H 	0.71	0.826	0.741	-0.114
Mof_H 	H 	0.703	0.333	0.256	-0.228
Mof_H 	H 	0.495	0.271	0.562	-0.07
Mof_H 	H 	0.004	0.805	0.423	-0.075
Mof_H 	H 	0.721	0.004	0.427	-0.096
Mof_H 	H 	0.79	0.496	0.559	-0.083
Mof_Mn	Mn	0.7597	0.75281	0.4922	1.086
Mof_Mn	Mn	0.74071	0.25241	0.50653	1.094
Mof_O 	O 	0.92179	0.69195	0.48218	-0.385
Mof_O 	O 	0.5783	0.18697	0.4703	-0.355
Mof_O 	O 	0.69397	0.59038	0.48155	-0.363
Mof_O 	O 	0.39966	0.18317	0.4748	-0.37
Mof_O 	O 	0.09863	0.68823	0.46206	-0.385
Mof_O 	O 	0.7931	0.73381	0.66005	-0.372
Mof_O 	O 	0.68239	0.41445	0.4906	-0.38
Mof_O 	O 	0.82556	0.91515	0.49738	-0.374
Mof_O 	O 	0.7975	0.74079	0.82979	-0.392
Mof_O 	O 	0.7725	0.24059	0.34229	-0.45
Mof_O 	O 	0.7789	0.25103	0.17254	-0.444
Mof_O 	O 	0.80035	0.0879	0.52024	-0.377
Mof_C 	C 	0.2808	0.49724	0.9771	0.502
Mof_C 	C 	0.2252	0.99877	0.0131	0.474
Mof_C 	C 	0.2631	0.7289	0.2447	0.516
Mof_C 	C 	0.2472	0.2192	0.7585	0.712
Mof_C 	C 	0.9895	0.2826	0.0035	0.445
Mof_C 	C 	0.5075	0.7705	0.9568	0.486
Mof_H 	H 	0.21	0.674	0.241	-0.114
Mof_H 	H 	0.203	0.167	0.756	-0.226
Mof_H 	H 	0.995	0.229	0.062	-0.069
Mof_H 	H 	0.504	0.695	0.923	-0.074
Mof_H 	H 	0.221	0.496	0.927	-0.098
Mof_H 	H 	0.29	0.004	0.059	-0.084
Mof_Mn	Mn	0.2597	0.74719	0.9922	1.085
Mof_Mn	Mn	0.24071	0.24759	0.00653	1.092
Mof_O 	O 	0.42179	0.80805	0.98218	-0.388
Mof_O 	O 	0.0783	0.31303	0.9703	-0.349
Mof_O 	O 	0.19397	0.90962	0.98155	-0.366
Mof_O 	O 	0.89966	0.31683	0.9748	-0.368
Mof_O 	O 	0.59863	0.81177	0.96206	-0.386
Mof_O 	O 	0.2931	0.76619	0.16005	-0.371
Mof_O 	O 	0.18239	0.08555	0.9906	-0.375
Mof_O 	O 	0.32556	0.58485	0.99738	-0.378
Mof_O 	O 	0.2975	0.75921	0.32979	-0.392
Mof_O 	O 	0.2725	0.25941	0.84229	-0.447
Mof_O 	O 	0.2789	0.24897	0.67254	-0.443
Mof_O 	O 	0.30035	0.4121	0.02024	-0.378
Mof_C 	C 	0.2192	0.99724	0.5229	0.493
Mof_C 	C 	0.2748	0.49877	0.4869	0.474
Mof_C 	C 	0.2369	0.2289	0.2553	0.517
Mof_C 	C 	0.2528	0.7192	0.7415	0.714
Mof_C 	C 	0.5105	0.7826	0.4965	0.451
Mof_C 	C 	0.9925	0.2705	0.5432	0.482
Mof_H 	H 	0.29	0.174	0.259	-0.114
Mof_H 	H 	0.297	0.667	0.744	-0.228
Mof_H 	H 	0.505	0.729	0.438	-0.07
Mof_H 	H 	0.996	0.195	0.577	-0.075
Mof_H 	H 	0.279	0.996	0.573	-0.096
Mof_H 	H 	0.21	0.504	0.441	-0.083
Mof_Mn	Mn	0.2403	0.24719	0.5078	1.086
Mof_Mn	Mn	0.25929	0.74759	0.49347	1.094
Mof_O 	O 	0.07821	0.30805	0.51782	-0.385
Mof_O 	O 	0.4217	0.81303	0.5297	-0.355
Mof_O 	O 	0.30603	0.40962	0.51845	-0.363
Mof_O 	O 	0.60034	0.81683	0.5252	-0.37
Mof_O 	O 	0.90137	0.31177	0.53794	-0.385
Mof_O 	O 	0.2069	0.26619	0.33995	-0.372
Mof_O 	O 	0.31761	0.58555	0.5094	-0.38
Mof_O 	O 	0.17444	0.08485	0.50262	-0.374
Mof_O 	O 	0.2025	0.25921	0.17021	-0.392
Mof_O 	O 	0.2275	0.75941	0.65771	-0.45
Mof_O 	O 	0.2211	0.74897	0.82746	-0.444
Mof_O 	O 	0.19965	0.9121	0.47976	-0.377
_end
