data_functionalizedCrystal
_audit_creation_method	'EQeq! by Chris Wilmer'
_symmetry_space_group_name_H-M	'P1'
_symmetry_Int_Tables_number	1
_symmetry_cell_setting	triclinic
loop_
_symmetry_equiv_pos_as_xyz
  x,y,z
_cell_length_a	18.794
_cell_length_b	18.794
_cell_length_c	19.9351
_cell_angle_alpha	61.8761
_cell_angle_beta	61.8761
_cell_angle_gamma	60
loop_
_atom_site_label
_atom_site_type_symbol
_atom_site_fract_x
_atom_site_fract_y
_atom_site_fract_z
_atom_site_charge
Mof_Cu	Cu	0.06767	0.49914	0.93405	0.903
Mof_Cu	Cu	0.49914	0.49914	0.93405	0.903
Mof_Cu	Cu	0.49914	0.06767	0.93405	0.903
Mof_Cu	Cu	0.93233	0.50086	0.06595	0.903
Mof_Cu	Cu	0.50086	0.93233	0.06595	0.903
Mof_Cu	Cu	0.50086	0.50086	0.06595	0.903
Mof_H 	H 	0.9792	0.4678	0.7936	0.117
Mof_H 	H 	0.4678	0.7594	0.7936	0.118
Mof_H 	H 	0.7594	0.9792	0.7936	0.116
Mof_H 	H 	0.0208	0.2406	0.2064	0.116
Mof_H 	H 	0.5322	0.0208	0.2064	0.117
Mof_H 	H 	0.2406	0.5322	0.2064	0.118
Mof_H 	H 	0.0208	0.5322	0.2064	0.117
Mof_H 	H 	0.5322	0.2406	0.2064	0.118
Mof_H 	H 	0.2406	0.0208	0.2064	0.116
Mof_H 	H 	0.9792	0.7594	0.7936	0.116
Mof_H 	H 	0.4678	0.9792	0.7936	0.117
Mof_H 	H 	0.7594	0.4678	0.7936	0.118
Mof_H 	H 	0.7694	0.4663	0.9949	0.082
Mof_H 	H 	0.4663	0.7694	0.9949	0.082
Mof_H 	H 	0.7694	0.7694	0.9949	0.082
Mof_H 	H 	0.2306	0.2306	0.0051	0.082
Mof_H 	H 	0.5337	0.2306	0.0051	0.082
Mof_H 	H 	0.2306	0.5337	0.0051	0.082
Mof_H 	H 	0.1263	0.5	0.5	0.075
Mof_H 	H 	0.5	0.8737	0.5	0.075
Mof_H 	H 	0.8737	0.1263	0.5	0.076
Mof_H 	H 	0.8737	0.5	0.5	0.075
Mof_H 	H 	0.5	0.1263	0.5	0.075
Mof_H 	H 	0.1263	0.8737	0.5	0.076
Mof_C 	C 	0.87907	0.46787	0.89899	-0
Mof_C 	C 	0.92316	0.46756	0.81982	-0.114
Mof_C 	C 	0.92608	0.47398	0.93976	0.299
Mof_C 	C 	0.9939	0.4636	0.6583	0.22
Mof_C 	C 	0.0032	0.4804	0.5692	-0.013
Mof_C 	C 	0.46787	0.75407	0.89899	-0.002
Mof_C 	C 	0.46756	0.78946	0.81982	-0.113
Mof_C 	C 	0.47398	0.66018	0.93976	0.309
Mof_C 	C 	0.4636	0.8842	0.6583	0.224
Mof_C 	C 	0.4804	0.9472	0.5692	-0.019
Mof_C 	C 	0.75407	0.87907	0.89899	0.001
Mof_C 	C 	0.78946	0.92316	0.81982	-0.115
Mof_C 	C 	0.66018	0.92608	0.93976	0.294
Mof_C 	C 	0.8842	0.9939	0.6583	0.213
Mof_C 	C 	0.9472	0.0032	0.5692	-0.012
Mof_C 	C 	0.12093	0.24593	0.10101	0.001
Mof_C 	C 	0.07684	0.21054	0.18018	-0.115
Mof_C 	C 	0.07392	0.33982	0.06024	0.294
Mof_C 	C 	0.0061	0.1158	0.3417	0.213
Mof_C 	C 	0.9968	0.0528	0.4308	-0.012
Mof_C 	C 	0.53213	0.12093	0.10101	-0
Mof_C 	C 	0.53244	0.07684	0.18018	-0.114
Mof_C 	C 	0.52602	0.07392	0.06024	0.299
Mof_C 	C 	0.5364	0.0061	0.3417	0.22
Mof_C 	C 	0.5196	0.9968	0.4308	-0.013
Mof_C 	C 	0.24593	0.53213	0.10101	-0.002
Mof_C 	C 	0.21054	0.53244	0.18018	-0.113
Mof_C 	C 	0.33982	0.52602	0.06024	0.309
Mof_C 	C 	0.1158	0.5364	0.3417	0.224
Mof_C 	C 	0.0528	0.5196	0.4308	-0.019
Mof_C 	C 	0.12093	0.53213	0.10101	-0
Mof_C 	C 	0.07684	0.53244	0.18018	-0.114
Mof_C 	C 	0.07392	0.52602	0.06024	0.299
Mof_C 	C 	0.0061	0.5364	0.3417	0.22
Mof_C 	C 	0.9968	0.5196	0.4308	-0.013
Mof_C 	C 	0.53213	0.24593	0.10101	-0.002
Mof_C 	C 	0.53244	0.21054	0.18018	-0.113
Mof_C 	C 	0.52602	0.33982	0.06024	0.309
Mof_C 	C 	0.5364	0.1158	0.3417	0.224
Mof_C 	C 	0.5196	0.0528	0.4308	-0.019
Mof_C 	C 	0.24593	0.12093	0.10101	0.001
Mof_C 	C 	0.21054	0.07684	0.18018	-0.115
Mof_C 	C 	0.33982	0.07392	0.06024	0.294
Mof_C 	C 	0.1158	0.0061	0.3417	0.213
Mof_C 	C 	0.0528	0.9968	0.4308	-0.012
Mof_C 	C 	0.87907	0.75407	0.89899	0.001
Mof_C 	C 	0.92316	0.78946	0.81982	-0.115
Mof_C 	C 	0.92608	0.66018	0.93976	0.294
Mof_C 	C 	0.9939	0.8842	0.6583	0.213
Mof_C 	C 	0.0032	0.9472	0.5692	-0.012
Mof_C 	C 	0.46787	0.87907	0.89899	-0
Mof_C 	C 	0.46756	0.92316	0.81982	-0.114
Mof_C 	C 	0.47398	0.92608	0.93976	0.299
Mof_C 	C 	0.4636	0.9939	0.6583	0.22
Mof_C 	C 	0.4804	0.0032	0.5692	-0.013
Mof_C 	C 	0.75407	0.46787	0.89899	-0.002
Mof_C 	C 	0.78946	0.46756	0.81982	-0.113
Mof_C 	C 	0.66018	0.47398	0.93976	0.309
Mof_C 	C 	0.8842	0.4636	0.6583	0.224
Mof_C 	C 	0.9472	0.4804	0.5692	-0.019
Mof_C 	C 	0.79556	0.46726	0.94162	-0.05
Mof_C 	C 	0.875	0.4672	0.7828	0.138
Mof_C 	C 	0.46726	0.79556	0.94162	-0.05
Mof_C 	C 	0.4672	0.875	0.7828	0.138
Mof_C 	C 	0.79556	0.79556	0.94162	-0.053
Mof_C 	C 	0.875	0.875	0.7828	0.137
Mof_C 	C 	0.20444	0.20444	0.05838	-0.053
Mof_C 	C 	0.125	0.125	0.2172	0.137
Mof_C 	C 	0.53274	0.20444	0.05838	-0.05
Mof_C 	C 	0.5328	0.125	0.2172	0.138
Mof_C 	C 	0.20444	0.53274	0.05838	-0.05
Mof_C 	C 	0.125	0.5328	0.2172	0.138
Mof_C 	C 	0.0768	0.5	0.5	-0.03
Mof_C 	C 	0.5	0.9232	0.5	-0.03
Mof_C 	C 	0.9232	0.0768	0.5	-0.032
Mof_C 	C 	0.9232	0.5	0.5	-0.03
Mof_C 	C 	0.5	0.0768	0.5	-0.03
Mof_C 	C 	0.0768	0.9232	0.5	-0.032
Mof_N 	N 	0.9154	0.4773	0.6919	-0.21
Mof_N 	N 	0.4773	0.9154	0.6919	-0.21
Mof_N 	N 	0.9154	0.9154	0.6919	-0.207
Mof_N 	N 	0.0846	0.0846	0.3081	-0.207
Mof_N 	N 	0.5227	0.0846	0.3081	-0.21
Mof_N 	N 	0.0846	0.5227	0.3081	-0.21
Mof_O 	O 	0.00085	0.47765	0.89785	-0.374
Mof_O 	O 	0.88533	0.47913	0.01071	-0.376
Mof_O 	O 	0.05	0.47	0.67	-0.21
Mof_O 	O 	0.47765	0.62365	0.89785	-0.38
Mof_O 	O 	0.47913	0.62483	0.01071	-0.38
Mof_O 	O 	0.47	0.81	0.67	-0.213
Mof_O 	O 	0.62365	0.00085	0.89785	-0.372
Mof_O 	O 	0.62483	0.88533	0.01071	-0.373
Mof_O 	O 	0.81	0.05	0.67	-0.206
Mof_O 	O 	0.99915	0.37635	0.10215	-0.372
Mof_O 	O 	0.11467	0.37517	0.98929	-0.373
Mof_O 	O 	0.95	0.19	0.33	-0.206
Mof_O 	O 	0.52235	0.99915	0.10215	-0.374
Mof_O 	O 	0.52087	0.11467	0.98929	-0.376
Mof_O 	O 	0.53	0.95	0.33	-0.21
Mof_O 	O 	0.37635	0.52235	0.10215	-0.38
Mof_O 	O 	0.37517	0.52087	0.98929	-0.38
Mof_O 	O 	0.19	0.53	0.33	-0.213
Mof_O 	O 	0.99915	0.52235	0.10215	-0.374
Mof_O 	O 	0.11467	0.52087	0.98929	-0.376
Mof_O 	O 	0.95	0.53	0.33	-0.21
Mof_O 	O 	0.52235	0.37635	0.10215	-0.38
Mof_O 	O 	0.52087	0.37517	0.98929	-0.38
Mof_O 	O 	0.53	0.19	0.33	-0.213
Mof_O 	O 	0.37635	0.99915	0.10215	-0.372
Mof_O 	O 	0.37517	0.11467	0.98929	-0.373
Mof_O 	O 	0.19	0.95	0.33	-0.206
Mof_O 	O 	0.00085	0.62365	0.89785	-0.372
Mof_O 	O 	0.88533	0.62483	0.01071	-0.373
Mof_O 	O 	0.05	0.81	0.67	-0.206
Mof_O 	O 	0.47765	0.00085	0.89785	-0.374
Mof_O 	O 	0.47913	0.88533	0.01071	-0.376
Mof_O 	O 	0.47	0.05	0.67	-0.21
Mof_O 	O 	0.62365	0.47765	0.89785	-0.38
Mof_O 	O 	0.62483	0.47913	0.01071	-0.38
Mof_O 	O 	0.81	0.47	0.67	-0.213
_end
