data_functionalizedCrystal
_audit_creation_method	'EQeq! by Chris Wilmer'
_symmetry_space_group_name_H-M	'P1'
_symmetry_Int_Tables_number	1
_symmetry_cell_setting	triclinic
loop_
_symmetry_equiv_pos_as_xyz
  x,y,z
_cell_length_a	8.2189
_cell_length_b	12.6831
_cell_length_c	23.755
_cell_angle_alpha	105.055
_cell_angle_beta	90
_cell_angle_gamma	90
loop_
_atom_site_label
_atom_site_type_symbol
_atom_site_fract_x
_atom_site_fract_y
_atom_site_fract_z
_atom_site_charge
Mof_Pr	Pr	0.99811	0.09608	0.88481	2.9
Mof_Pr	Pr	0.49811	0.40392	0.61519	2.907
Mof_Pr	Pr	0.00189	0.90392	0.11519	2.794
Mof_Pr	Pr	0.50189	0.59608	0.38481	2.906
Mof_Bi	Bi	0.17078	0.59608	0.86846	1.041
Mof_Bi	Bi	0.67078	0.90392	0.63154	1.052
Mof_Bi	Bi	0.82922	0.40392	0.13154	1.058
Mof_Bi	Bi	0.32922	0.09608	0.36846	1.047
Mof_H 	H 	0.1589	0.7115	0.7578	0.163
Mof_H 	H 	0.9769	0.7392	0.7475	0.189
Mof_H 	H 	0.7583	0.6019	0.7654	0.07
Mof_H 	H 	0.7957	0.6926	0.8228	0.068
Mof_H 	H 	0.6673	0.5468	0.8469	0.1
Mof_H 	H 	0.8001	0.4658	0.8132	0.082
Mof_H 	H 	0.9941	0.546	0.6981	0.194
Mof_H 	H 	0.9686	0.4597	0.7341	0.182
Mof_H 	H 	0.7785	0.4299	0.9091	0.187
Mof_H 	H 	0.9266	0.4769	0.9495	0.171
Mof_H 	H 	0.7322	0.6242	0.9577	0.193
Mof_H 	H 	0.7718	0.7058	0.9201	0.189
Mof_H 	H 	0.6589	0.7885	0.7422	0.154
Mof_H 	H 	0.4769	0.7608	0.7525	0.171
Mof_H 	H 	0.2583	0.8981	0.7346	0.067
Mof_H 	H 	0.2957	0.8074	0.6772	0.062
Mof_H 	H 	0.1673	0.9532	0.6531	0.098
Mof_H 	H 	0.3001	0.0342	0.6868	0.084
Mof_H 	H 	0.4941	0.954	0.8019	0.172
Mof_H 	H 	0.4686	0.0403	0.7659	0.159
Mof_H 	H 	0.2785	0.0701	0.5909	0.19
Mof_H 	H 	0.4266	0.0231	0.5505	0.17
Mof_H 	H 	0.2322	0.8758	0.5423	0.188
Mof_H 	H 	0.2718	0.7942	0.5799	0.185
Mof_H 	H 	0.8411	0.2885	0.2422	0.133
Mof_H 	H 	0.0231	0.2608	0.2525	0.137
Mof_H 	H 	0.2417	0.3981	0.2346	0.066
Mof_H 	H 	0.2043	0.3074	0.1772	0.059
Mof_H 	H 	0.3327	0.4532	0.1531	0.103
Mof_H 	H 	0.1999	0.5342	0.1868	0.083
Mof_H 	H 	0.0059	0.454	0.3019	0.125
Mof_H 	H 	0.0314	0.5403	0.2659	0.114
Mof_H 	H 	0.2215	0.5701	0.0909	0.186
Mof_H 	H 	0.0734	0.5231	0.0505	0.161
Mof_H 	H 	0.2678	0.3758	0.0423	0.19
Mof_H 	H 	0.2282	0.2942	0.0799	0.183
Mof_H 	H 	0.3411	0.2115	0.2578	0.153
Mof_H 	H 	0.5231	0.2392	0.2475	0.171
Mof_H 	H 	0.7417	0.1019	0.2654	0.069
Mof_H 	H 	0.7043	0.1926	0.3228	0.064
Mof_H 	H 	0.8327	0.0468	0.3469	0.108
Mof_H 	H 	0.6999	0.9658	0.3132	0.09
Mof_H 	H 	0.5059	0.046	0.1981	0.174
Mof_H 	H 	0.5314	0.9597	0.2341	0.163
Mof_H 	H 	0.7215	0.9299	0.4091	0.193
Mof_H 	H 	0.5734	0.9769	0.4495	0.171
Mof_H 	H 	0.7678	0.1242	0.4577	0.195
Mof_H 	H 	0.7282	0.2058	0.4201	0.19
Mof_C 	C 	0.0527	0.8076	0.8305	0.519
Mof_C 	C 	0.0509	0.7194	0.7749	-0.428
Mof_C 	C 	0.8228	0.619	0.8008	-0.075
Mof_C 	C 	0.7816	0.5398	0.8365	-0.104
Mof_C 	C 	0.0305	0.5237	0.7321	-0.422
Mof_C 	C 	0.2079	0.4951	0.7257	0.533
Mof_C 	C 	0.8873	0.4599	0.9097	-0.394
Mof_C 	C 	2.11132e-32	0.3736	0.8706	0.558
Mof_C 	C 	0.8184	0.6511	0.9373	-0.388
Mof_C 	C 	0.9487	0.7051	0.9813	0.527
Mof_C 	C 	0.5527	0.6924	0.6695	0.51
Mof_C 	C 	0.5509	0.7806	0.7251	-0.392
Mof_C 	C 	0.3228	0.881	0.6992	-0.069
Mof_C 	C 	0.2816	0.9602	0.6635	-0.109
Mof_C 	C 	0.5305	0.9763	0.7679	-0.363
Mof_C 	C 	0.7079	0.0049	0.7743	0.505
Mof_C 	C 	0.3873	0.0401	0.5903	-0.404
Mof_C 	C 	0.5	0.1264	0.6294	0.57
Mof_C 	C 	0.3184	0.8489	0.5627	-0.385
Mof_C 	C 	0.4487	0.7949	0.5187	0.518
Mof_C 	C 	0.9473	0.1924	0.1695	0.487
Mof_C 	C 	0.9491	0.2806	0.2251	-0.318
Mof_C 	C 	0.1772	0.381	0.1992	-0.063
Mof_C 	C 	0.2184	0.4602	0.1635	-0.112
Mof_C 	C 	0.9695	0.4763	0.2679	-0.253
Mof_C 	C 	0.7921	0.5049	0.2743	0.487
Mof_C 	C 	0.1127	0.5401	0.0903	-0.389
Mof_C 	C 	7.91746e-33	0.6264	0.1294	0.53
Mof_C 	C 	0.1816	0.3489	0.0627	-0.378
Mof_C 	C 	0.0513	0.2949	0.0187	0.492
Mof_C 	C 	0.4473	0.3076	0.3305	0.51
Mof_C 	C 	0.4491	0.2194	0.2749	-0.392
Mof_C 	C 	0.6772	0.119	0.3008	-0.066
Mof_C 	C 	0.7184	0.0398	0.3365	-0.118
Mof_C 	C 	0.4695	0.0237	0.2321	-0.37
Mof_C 	C 	0.2921	0.9951	0.2257	0.507
Mof_C 	C 	0.6127	0.9599	0.4097	-0.404
Mof_C 	C 	0.5	0.8736	0.3706	0.571
Mof_C 	C 	0.6816	0.1511	0.4373	-0.39
Mof_C 	C 	0.5513	0.2051	0.4813	0.52
Mof_N 	N 	0.9988	0.6135	0.7854	-0.044
Mof_N 	N 	0.8806	0.5598	0.8902	-0.04
Mof_N 	N 	0.4655	0.7742	0.8858	0.05
Mof_N 	N 	0.3365	0.067	0.9223	0.044
Mof_N 	N 	0.4988	0.8865	0.7146	-0.062
Mof_N 	N 	0.3806	0.9402	0.6098	-0.042
Mof_N 	N 	0.9655	0.7258	0.6142	0.057
Mof_N 	N 	0.8365	0.433	0.5777	0.043
Mof_N 	N 	0.0012	0.3865	0.2146	-0.099
Mof_N 	N 	0.1194	0.4402	0.1098	-0.049
Mof_N 	N 	0.5345	0.2258	0.1142	0.05
Mof_N 	N 	0.6635	0.933	0.0777	0.043
Mof_N 	N 	0.5012	0.1135	0.2854	-0.061
Mof_N 	N 	0.6194	0.0598	0.3902	-0.04
Mof_N 	N 	0.0345	0.2742	0.3858	0.041
Mof_N 	N 	0.1635	0.567	0.4223	0.044
Mof_O 	O 	0.0658	0.7796	0.8789	-0.366
Mof_O 	O 	0.857	0.9726	0.9369	-0.317
Mof_O 	O 	0.7492	0.1914	0.939	-0.297
Mof_O 	O 	0.0822	0.0812	0.7805	-0.343
Mof_O 	O 	0.0425	0.9029	0.8278	-0.561
Mof_O 	O 	0.296	0.5139	0.7704	-0.357
Mof_O 	O 	0.254	0.449	0.6751	-0.562
Mof_O 	O 	0.0992	0.4089	0.8397	-0.389
Mof_O 	O 	0.986	0.2776	0.8708	-0.599
Mof_O 	O 	0.0914	0.6679	0.9725	-0.361
Mof_O 	O 	0.9051	0.7832	0.0215	-0.512
Mof_O 	O 	0.4113	0.7129	0.8397	-0.185
Mof_O 	O 	0.5727	0.8392	0.883	-0.107
Mof_O 	O 	0.409	0.761	0.9316	-0.102
Mof_O 	O 	0.3099	0.1231	0.884	-0.311
Mof_O 	O 	0.214	0.0099	0.9372	-0.287
Mof_O 	O 	0.4676	0.0692	0.9505	-0.044
Mof_O 	O 	0.5658	0.7204	0.6211	-0.36
Mof_O 	O 	0.357	0.5274	0.5631	-0.327
Mof_O 	O 	0.2492	0.3086	0.561	-0.297
Mof_O 	O 	0.5822	0.4188	0.7195	-0.344
Mof_O 	O 	0.5425	0.5971	0.6722	-0.553
Mof_O 	O 	0.796	0.9861	0.7296	-0.343
Mof_O 	O 	0.754	0.051	0.8249	-0.553
Mof_O 	O 	0.5992	0.0911	0.6603	-0.393
Mof_O 	O 	0.486	0.2224	0.6292	-0.606
Mof_O 	O 	0.5914	0.8321	0.5275	-0.354
Mof_O 	O 	0.4051	0.7168	0.4785	-0.534
Mof_O 	O 	0.9113	0.7871	0.6603	-0.183
Mof_O 	O 	0.0727	0.6608	0.617	-0.12
Mof_O 	O 	0.909	0.739	0.5684	-0.099
Mof_O 	O 	0.8099	0.3769	0.616	-0.311
Mof_O 	O 	0.714	0.4901	0.5628	-0.286
Mof_O 	O 	0.9676	0.4308	0.5495	-0.035
Mof_O 	O 	0.9342	0.2204	0.1211	-0.346
Mof_O 	O 	0.143	0.0274	0.0631	-0.32
Mof_O 	O 	0.2508	0.8086	0.061	-0.29
Mof_O 	O 	0.9178	0.9188	0.2195	-0.318
Mof_O 	O 	0.9575	0.0971	0.1722	-0.528
Mof_O 	O 	0.704	0.4861	0.2296	-0.344
Mof_O 	O 	0.746	0.551	0.3249	-0.542
Mof_O 	O 	0.9008	0.5911	0.1603	-0.362
Mof_O 	O 	0.014	0.7224	0.1292	-0.595
Mof_O 	O 	0.9086	0.3321	0.0275	-0.335
Mof_O 	O 	0.0949	0.2168	0.9785	-0.527
Mof_O 	O 	0.5887	0.2871	0.1603	-0.187
Mof_O 	O 	0.4273	0.1608	0.117	-0.108
Mof_O 	O 	0.591	0.239	0.0684	-0.103
Mof_O 	O 	0.6901	0.8769	0.116	-0.298
Mof_O 	O 	0.786	0.9901	0.0628	-0.271
Mof_O 	O 	0.5324	0.9308	0.0495	-0.043
Mof_O 	O 	0.4342	0.2796	0.3789	-0.36
Mof_O 	O 	0.643	0.4726	0.4369	-0.325
Mof_O 	O 	0.7508	0.6914	0.439	-0.29
Mof_O 	O 	0.4178	0.5812	0.2805	-0.343
Mof_O 	O 	0.4575	0.4029	0.3278	-0.553
Mof_O 	O 	0.204	0.0139	0.2704	-0.351
Mof_O 	O 	0.246	0.949	0.1751	-0.548
Mof_O 	O 	0.4008	0.9089	0.3397	-0.393
Mof_O 	O 	0.514	0.7776	0.3708	-0.606
Mof_O 	O 	0.4086	0.1679	0.4725	-0.355
Mof_O 	O 	0.5949	0.2832	0.5215	-0.534
Mof_O 	O 	0.0887	0.2129	0.3397	-0.188
Mof_O 	O 	0.9273	0.3392	0.383	-0.093
Mof_O 	O 	0.091	0.261	0.4316	-0.106
Mof_O 	O 	0.1901	0.6231	0.384	-0.315
Mof_O 	O 	0.286	0.5099	0.4372	-0.288
Mof_O 	O 	0.0324	0.5692	0.4505	-0.051
Mof_N 	N 	0.4059	0.466	0.9343	0.055
Mof_O 	O 	0.447	0.486	0.889	-0.152
Mof_O 	O 	0.502	0.4161	0.9599	-0.087
Mof_O 	O 	0.2669	0.486	0.9535	-0.152
Mof_N 	N 	0.9059	0.034	0.5657	0.057
Mof_O 	O 	0.947	0.014	0.611	-0.155
Mof_O 	O 	0.002	0.0839	0.5401	-0.091
Mof_O 	O 	0.7669	0.014	0.5465	-0.155
Mof_N 	N 	0.5941	0.534	0.0657	0.054
Mof_O 	O 	0.553	0.514	0.111	-0.153
Mof_O 	O 	0.498	0.5839	0.0401	-0.085
Mof_O 	O 	0.7331	0.514	0.0465	-0.148
Mof_N 	N 	0.0941	0.966	0.4343	0.044
Mof_O 	O 	0.053	0.986	0.389	-0.165
Mof_O 	O 	0.998	0.9161	0.4599	-0.065
Mof_O 	O 	0.2331	0.986	0.4535	-0.155
_end
