data_functionalizedCrystal
_audit_creation_method	'EQeq! by Chris Wilmer'
_symmetry_space_group_name_H-M	'P1'
_symmetry_Int_Tables_number	1
_symmetry_cell_setting	triclinic
loop_
_symmetry_equiv_pos_as_xyz
  x,y,z
_cell_length_a	21.2401
_cell_length_b	7.2164
_cell_length_c	15.2493
_cell_angle_alpha	90
_cell_angle_beta	90
_cell_angle_gamma	90
loop_
_atom_site_label
_atom_site_type_symbol
_atom_site_fract_x
_atom_site_fract_y
_atom_site_fract_z
_atom_site_charge
Mof_N 	N 	0.06639	0.1549	0.56002	-0.22
Mof_C 	C 	0.11341	0.8998	0.39095	0.172
Mof_H 	H 	0.124	0.0225	0.3796	-0.091
Mof_C 	C 	0.2476	0.6382	0.3231	-0.062
Mof_C 	C 	0.1995	0.636	0.2321	-0.068
Mof_H 	H 	0.2445	0.5559	0.3724	0.046
Mof_H 	H 	0.1637	0.5602	0.2185	0.028
Mof_N 	N 	0.56639	0.6549	0.06002	-0.232
Mof_C 	C 	0.61341	0.3998	0.89095	0.106
Mof_H 	H 	0.624	0.5225	0.8796	-0.012
Mof_C 	C 	0.7476	0.1382	0.8231	-0.06
Mof_C 	C 	0.6995	0.136	0.7321	-0.067
Mof_H 	H 	0.7445	0.0559	0.8724	0.053
Mof_H 	H 	0.6637	0.0602	0.7185	0.037
Mof_N 	N 	0.93361	0.3451	0.56002	-0.2
Mof_C 	C 	0.88659	0.6002	0.39095	0.1
Mof_H 	H 	0.876	0.4775	0.3796	-0.027
Mof_C 	C 	0.7524	0.8618	0.3231	-0.067
Mof_C 	C 	0.8005	0.864	0.2321	-0.066
Mof_H 	H 	0.7555	0.9441	0.3724	0.06
Mof_H 	H 	0.8363	0.9398	0.2185	0.054
Mof_N 	N 	0.43361	0.8451	0.06002	-0.236
Mof_C 	C 	0.38659	0.1002	0.89095	0.03
Mof_H 	H 	0.376	0.9775	0.8796	0.04
Mof_C 	C 	0.2524	0.3618	0.8231	-0.065
Mof_C 	C 	0.3005	0.364	0.7321	-0.064
Mof_H 	H 	0.2555	0.4441	0.8724	0.063
Mof_H 	H 	0.3363	0.4398	0.7185	0.048
Mof_N 	N 	0.93361	0.6549	0.43998	-0.2
Mof_C 	C 	0.88659	0.3998	0.60905	0.101
Mof_H 	H 	0.876	0.5225	0.6204	-0.017
Mof_C 	C 	0.7524	0.1382	0.6769	-0.061
Mof_C 	C 	0.8005	0.136	0.7679	-0.063
Mof_H 	H 	0.7555	0.0559	0.6276	0.036
Mof_H 	H 	0.8363	0.0602	0.7815	0.05
Mof_N 	N 	0.43361	0.1549	0.93998	-0.187
Mof_C 	C 	0.38659	0.8998	0.10905	0.167
Mof_H 	H 	0.376	0.0225	0.1204	-0.097
Mof_C 	C 	0.2524	0.6382	0.1769	-0.065
Mof_C 	C 	0.3005	0.636	0.2679	-0.065
Mof_H 	H 	0.2555	0.5559	0.1276	0.028
Mof_H 	H 	0.3363	0.5602	0.2815	0.041
Mof_N 	N 	0.06639	0.8451	0.43998	-0.233
Mof_C 	C 	0.11341	0.1002	0.60905	0.013
Mof_H 	H 	0.124	0.9775	0.6204	0.029
Mof_C 	C 	0.2476	0.3618	0.6769	-0.057
Mof_C 	C 	0.1995	0.364	0.7679	-0.053
Mof_H 	H 	0.2445	0.4441	0.6276	0.047
Mof_H 	H 	0.1637	0.4398	0.7815	0.045
Mof_N 	N 	0.56639	0.3451	0.93998	-0.195
Mof_C 	C 	0.61341	0.6002	0.10905	0.086
Mof_H 	H 	0.624	0.4775	0.1204	-0.039
Mof_C 	C 	0.7476	0.8618	0.1769	-0.059
Mof_C 	C 	0.6995	0.864	0.2679	-0.056
Mof_H 	H 	0.7445	0.9441	0.1276	0.045
Mof_H 	H 	0.6637	0.9398	0.2815	0.052
Mof_N 	N 	0.93361	0.8451	0.43998	-0.204
Mof_C 	C 	0.88659	0.1002	0.60905	0.024
Mof_H 	H 	0.876	0.9775	0.6204	0.037
Mof_C 	C 	0.7524	0.3618	0.6769	-0.061
Mof_C 	C 	0.8005	0.364	0.7679	-0.057
Mof_H 	H 	0.7555	0.4441	0.6276	0.049
Mof_H 	H 	0.8363	0.4398	0.7815	0.06
Mof_N 	N 	0.43361	0.3451	0.93998	-0.195
Mof_C 	C 	0.38659	0.6002	0.10905	0.086
Mof_H 	H 	0.376	0.4775	0.1204	-0.04
Mof_C 	C 	0.2524	0.8618	0.1769	-0.064
Mof_C 	C 	0.3005	0.864	0.2679	-0.059
Mof_H 	H 	0.2555	0.9441	0.1276	0.042
Mof_H 	H 	0.3363	0.9398	0.2815	0.052
Mof_N 	N 	0.06639	0.6549	0.43998	-0.229
Mof_C 	C 	0.11341	0.3998	0.60905	0.091
Mof_H 	H 	0.124	0.5225	0.6204	-0.026
Mof_C 	C 	0.2476	0.1382	0.6769	-0.057
Mof_C 	C 	0.1995	0.136	0.7679	-0.059
Mof_H 	H 	0.2445	0.0559	0.6276	0.034
Mof_H 	H 	0.1637	0.0602	0.7815	0.034
Mof_N 	N 	0.56639	0.1549	0.93998	-0.187
Mof_C 	C 	0.61341	0.8998	0.10905	0.167
Mof_H 	H 	0.624	0.0225	0.1204	-0.095
Mof_C 	C 	0.7476	0.6382	0.1769	-0.059
Mof_C 	C 	0.6995	0.636	0.2679	-0.062
Mof_H 	H 	0.7445	0.5559	0.1276	0.032
Mof_H 	H 	0.6637	0.5602	0.2815	0.041
Mof_N 	N 	0.06639	0.3451	0.56002	-0.229
Mof_C 	C 	0.11341	0.6002	0.39095	0.091
Mof_H 	H 	0.124	0.4775	0.3796	-0.036
Mof_C 	C 	0.2476	0.8618	0.3231	-0.063
Mof_C 	C 	0.1995	0.864	0.2321	-0.063
Mof_H 	H 	0.2445	0.9441	0.3724	0.059
Mof_H 	H 	0.1637	0.9398	0.2185	0.039
Mof_N 	N 	0.56639	0.8451	0.06002	-0.236
Mof_C 	C 	0.61341	0.1002	0.89095	0.03
Mof_H 	H 	0.624	0.9775	0.8796	0.041
Mof_C 	C 	0.7476	0.3618	0.8231	-0.059
Mof_C 	C 	0.6995	0.364	0.7321	-0.061
Mof_H 	H 	0.7445	0.4441	0.8724	0.066
Mof_H 	H 	0.6637	0.4398	0.7185	0.047
Mof_N 	N 	0.93361	0.1549	0.56002	-0.192
Mof_C 	C 	0.88659	0.8998	0.39095	0.178
Mof_H 	H 	0.876	0.0225	0.3796	-0.081
Mof_C 	C 	0.7524	0.6382	0.3231	-0.067
Mof_C 	C 	0.8005	0.636	0.2321	-0.072
Mof_H 	H 	0.7555	0.5559	0.3724	0.047
Mof_H 	H 	0.8363	0.5602	0.2185	0.044
Mof_N 	N 	0.43361	0.6549	0.06002	-0.232
Mof_C 	C 	0.38659	0.3998	0.89095	0.105
Mof_H 	H 	0.376	0.5225	0.8796	-0.013
Mof_C 	C 	0.2524	0.1382	0.8231	-0.066
Mof_C 	C 	0.3005	0.136	0.7321	-0.07
Mof_H 	H 	0.2555	0.0559	0.8724	0.05
Mof_H 	H 	0.3363	0.0602	0.7185	0.037
Mof_Cu	Cu	1.34594e-33	0	0.5	0.778
Mof_Cu	Cu	0.5	0.5	-0	0.79
Mof_Cu	Cu	-1.35406e-33	0.5	0.5	0.796
Mof_Cu	Cu	0.5	0	-0	0.771
Mof_N 	N 	0.1441	0.75	0.3595	-0.176
Mof_C 	C 	0.19893	0.75	0.3026	0.127
Mof_N 	N 	0.6441	0.25	0.8595	-0.148
Mof_C 	C 	0.69893	0.25	0.8026	0.12
Mof_N 	N 	0.8559	0.75	0.3595	-0.175
Mof_C 	C 	0.80107	0.75	0.3026	0.136
Mof_N 	N 	0.3559	0.25	0.8595	-0.149
Mof_C 	C 	0.30107	0.25	0.8026	0.126
Mof_N 	N 	0.8559	0.25	0.6405	-0.147
Mof_C 	C 	0.80107	0.25	0.6974	0.117
Mof_N 	N 	0.3559	0.75	0.1405	-0.176
Mof_C 	C 	0.30107	0.75	0.1974	0.124
Mof_N 	N 	0.1441	0.25	0.6405	-0.147
Mof_C 	C 	0.19893	0.25	0.6974	0.107
Mof_N 	N 	0.6441	0.75	0.1405	-0.174
Mof_C 	C 	0.69893	0.75	0.1974	0.118
_end
