data_functionalizedCrystal
_audit_creation_method	'EQeq! by Chris Wilmer'
_symmetry_space_group_name_H-M	'P1'
_symmetry_Int_Tables_number	1
_symmetry_cell_setting	triclinic
loop_
_symmetry_equiv_pos_as_xyz
  x,y,z
_cell_length_a	10.0812
_cell_length_b	10.0812
_cell_length_c	6.199
_cell_angle_alpha	90
_cell_angle_beta	90
_cell_angle_gamma	90
loop_
_atom_site_label
_atom_site_type_symbol
_atom_site_fract_x
_atom_site_fract_y
_atom_site_fract_z
_atom_site_charge
Mof_C 	C 	0.0031	0.0938	0.6493	0.005
Mof_H 	H 	0.0018	0.1579	0.757	0.03
Mof_C 	C 	0.4969	0.4062	0.6493	0.006
Mof_H 	H 	0.4982	0.3421	0.757	0.031
Mof_C 	C 	0.4062	0.0031	0.6493	0.006
Mof_H 	H 	0.3421	0.0018	0.757	0.031
Mof_C 	C 	0.0938	0.4969	0.6493	0.006
Mof_H 	H 	0.1579	0.4982	0.757	0.031
Mof_C 	C 	0.4969	0.0938	0.3507	0.005
Mof_H 	H 	0.4982	0.1579	0.243	0.02
Mof_C 	C 	0.0031	0.4062	0.3507	0.005
Mof_H 	H 	0.0018	0.3421	0.243	0.021
Mof_C 	C 	0.0938	0.0031	0.3507	0.005
Mof_H 	H 	0.1579	0.0018	0.243	0.021
Mof_C 	C 	0.4062	0.4969	0.3507	0.005
Mof_H 	H 	0.3421	0.4982	0.243	0.02
Mof_C 	C 	0.9969	0.9062	0.3507	0.005
Mof_H 	H 	0.9982	0.8421	0.243	0.021
Mof_C 	C 	0.5031	0.5938	0.3507	0.005
Mof_H 	H 	0.5018	0.6579	0.243	0.02
Mof_C 	C 	0.5938	0.9969	0.3507	0.005
Mof_H 	H 	0.6579	0.9982	0.243	0.021
Mof_C 	C 	0.9062	0.5031	0.3507	0.005
Mof_H 	H 	0.8421	0.5018	0.243	0.02
Mof_C 	C 	0.5031	0.9062	0.6493	0.006
Mof_H 	H 	0.5018	0.8421	0.757	0.031
Mof_C 	C 	0.9969	0.5938	0.6493	0.006
Mof_H 	H 	0.9982	0.6579	0.757	0.031
Mof_C 	C 	0.9062	0.9969	0.6493	0.006
Mof_H 	H 	0.8421	0.9982	0.757	0.031
Mof_C 	C 	0.5938	0.5031	0.6493	0.006
Mof_H 	H 	0.6579	0.5018	0.757	0.031
Mof_Co	Co	0.25	0.25	0.5	1.149
Mof_Co	Co	0.75	0.75	0.5	1.149
Mof_N 	N 	0.0985	0.0985	0.5	-0.204
Mof_N 	N 	0.4015	0.4015	0.5	-0.204
Mof_N 	N 	0.4015	0.0985	0.5	-0.204
Mof_N 	N 	0.0985	0.4015	0.5	-0.204
Mof_N 	N 	0.9015	0.9015	0.5	-0.204
Mof_N 	N 	0.5985	0.5985	0.5	-0.204
Mof_N 	N 	0.5985	0.9015	0.5	-0.204
Mof_N 	N 	0.9015	0.5985	0.5	-0.204
Mof_O 	O 	0.25	0.25	0.1665	-0.372
Mof_O 	O 	0.25	0.25	0.8335	-0.348
Mof_O 	O 	0.75	0.75	0.8335	-0.348
Mof_O 	O 	0.75	0.75	0.1665	-0.372
Mof_N 	N 	0.25	0.25	-0	0.138
Mof_N 	N 	0.75	0.75	-0	0.138
_end
