data_functionalizedCrystal
_audit_creation_method	'EQeq! by Chris Wilmer'
_symmetry_space_group_name_H-M	'P1'
_symmetry_Int_Tables_number	1
_symmetry_cell_setting	triclinic
loop_
_symmetry_equiv_pos_as_xyz
  x,y,z
_cell_length_a	12.564
_cell_length_b	12.6461
_cell_length_c	12.6461
_cell_angle_alpha	91.6371
_cell_angle_beta	113.87
_cell_angle_gamma	113.87
loop_
_atom_site_label
_atom_site_type_symbol
_atom_site_fract_x
_atom_site_fract_y
_atom_site_fract_z
_atom_site_charge
Mof_Mn	Mn	0.25	0.6961	0.3039	1.003
Mof_Mn	Mn	0.75	0.3039	0.6961	1.007
Mof_Mn	Mn	-0	0.5	-0	0.937
Mof_Mn	Mn	0.5	0	0.5	0.95
Mof_H 	H 	0.5048	0.5772	0.3454	0.051
Mof_H 	H 	0.6006	0.4671	0.4509	0.055
Mof_H 	H 	0.2769	0.1676	0.246	0.047
Mof_H 	H 	0.1876	0.2771	0.1343	0.048
Mof_H 	H 	0.1366	0.7851	0.9643	0.106
Mof_H 	H 	0.0913	0.9391	0.9073	0.014
Mof_H 	H 	0.9534	0.9262	0.1434	0.031
Mof_H 	H 	0.0045	0.7746	0.199	0.063
Mof_H 	H 	0.9952	0.6546	0.4228	0.076
Mof_H 	H 	0.8994	0.5491	0.5329	0.036
Mof_H 	H 	0.2231	0.754	0.8324	0.042
Mof_H 	H 	0.3124	0.8657	0.7229	0.072
Mof_H 	H 	0.3634	0.0357	0.2149	-0.024
Mof_H 	H 	0.4087	0.0927	0.0609	0.114
Mof_H 	H 	0.5466	0.8566	0.0738	0.096
Mof_H 	H 	0.4955	0.801	0.2254	0.02
Mof_H 	H 	0.4952	0.4228	0.6546	0.05
Mof_H 	H 	0.3994	0.5329	0.5491	0.053
Mof_H 	H 	0.7231	0.8324	0.754	0.053
Mof_H 	H 	0.8124	0.7229	0.8657	0.063
Mof_H 	H 	0.8634	0.2149	0.0357	-0.009
Mof_H 	H 	0.9087	0.0609	0.0927	0.109
Mof_H 	H 	0.0466	0.0738	0.8566	0.098
Mof_H 	H 	0.9955	0.2254	0.801	0.02
Mof_H 	H 	0.0048	0.3454	0.5772	0.022
Mof_H 	H 	0.1006	0.4509	0.4671	0.078
Mof_H 	H 	0.7769	0.246	0.1676	0.064
Mof_H 	H 	0.6876	0.1343	0.2771	0.037
Mof_H 	H 	0.6366	0.9643	0.7851	0.098
Mof_H 	H 	0.5913	0.9073	0.9391	0.022
Mof_H 	H 	0.4534	0.1434	0.9262	0.044
Mof_H 	H 	0.5045	0.199	0.7746	0.054
Mof_C 	C 	0.2684	0.5104	0.1672	0.355
Mof_C 	C 	0.3339	0.43895	0.22965	-0.079
Mof_C 	C 	0.4589	0.4947	0.3249	-0.016
Mof_C 	C 	0.5158	0.4287	0.3895	-0.021
Mof_C 	C 	0.4467	0.3055	0.3629	-0.078
Mof_C 	C 	0.3234	0.2501	0.2663	-0.02
Mof_C 	C 	0.2693	0.3159	0.2001	-0.02
Mof_C 	C 	0.5063	0.2364	0.441	0.37
Mof_C 	C 	0.1009	0.8152	0.0014	-0.104
Mof_C 	C 	0.0727	0.9069	0.9665	0.074
Mof_C 	C 	0.0166	0.9519	0.0189	-0.111
Mof_C 	C 	0.9916	0.8995	0.1065	0.02
Mof_C 	C 	0.0222	0.8085	0.1401	-0.029
Mof_C 	C 	0.2316	0.8328	0.4896	0.341
Mof_C 	C 	0.1661	0.77035	0.56105	-0.042
Mof_C 	C 	0.0411	0.6751	0.5053	-0.075
Mof_C 	C 	0.9842	0.6105	0.5713	0.037
Mof_C 	C 	0.0533	0.6371	0.6945	-0.115
Mof_C 	C 	0.1766	0.7337	0.7499	0.017
Mof_C 	C 	0.2307	0.7999	0.6841	-0.051
Mof_C 	C 	0.9937	0.559	0.7636	0.389
Mof_C 	C 	0.3991	0.9986	0.1848	0.182
Mof_C 	C 	0.4273	0.0335	0.0931	-0.265
Mof_C 	C 	0.4834	0.9811	0.0481	0.161
Mof_C 	C 	0.5084	0.8935	0.1005	-0.188
Mof_C 	C 	0.4778	0.8599	0.1915	0.103
Mof_C 	C 	0.7316	0.4896	0.8328	0.352
Mof_C 	C 	0.6661	0.56105	0.77035	-0.07
Mof_C 	C 	0.5411	0.5053	0.6751	-0.019
Mof_C 	C 	0.4842	0.5713	0.6105	-0.017
Mof_C 	C 	0.5533	0.6945	0.6371	-0.077
Mof_C 	C 	0.6766	0.7499	0.7337	-0.013
Mof_C 	C 	0.7307	0.6841	0.7999	-0.022
Mof_C 	C 	0.4937	0.7636	0.559	0.369
Mof_C 	C 	0.8991	0.1848	0.9986	0.153
Mof_C 	C 	0.9273	0.0931	0.0335	-0.239
Mof_C 	C 	0.9834	0.0481	0.9811	0.163
Mof_C 	C 	0.0084	0.1005	0.8935	-0.197
Mof_C 	C 	0.9778	0.1915	0.8599	0.108
Mof_C 	C 	0.7684	0.1672	0.5104	0.37
Mof_C 	C 	0.8339	0.22965	0.43895	-0.114
Mof_C 	C 	0.9589	0.3249	0.4947	0.051
Mof_C 	C 	0.0158	0.3895	0.4287	-0.092
Mof_C 	C 	0.9467	0.3629	0.3055	-0.021
Mof_C 	C 	0.8234	0.2663	0.2501	-0.063
Mof_C 	C 	0.7693	0.2001	0.3159	0.02
Mof_C 	C 	0.0063	0.441	0.2364	0.331
Mof_C 	C 	0.6009	0.0014	0.8152	-0.085
Mof_C 	C 	0.5727	0.9665	0.9069	0.048
Mof_C 	C 	0.5166	0.0189	0.9519	-0.08
Mof_C 	C 	0.4916	0.1065	0.8995	-0.029
Mof_C 	C 	0.5222	0.1401	0.8085	0.003
Mof_N 	N 	0.0773	0.76938	0.08802	-0.024
Mof_N 	N 	0.4227	0.91198	0.23062	-0.096
Mof_N 	N 	0.9227	0.23062	0.91198	-0.091
Mof_N 	N 	0.5773	0.08802	0.76938	-0.033
Mof_O 	O 	0.323	0.62002	0.21322	-0.372
Mof_O 	O 	0.1626	0.4576	0.07248	-0.36
Mof_O 	O 	0.6187	0.29552	0.52406	-0.392
Mof_O 	O 	0.4369	0.12459	0.41729	-0.368
Mof_O 	O 	0.107	0.68209	0.12189	-0.299
Mof_O 	O 	0.177	0.78678	0.37998	-0.367
Mof_O 	O 	0.3374	0.92752	0.5424	-0.336
Mof_O 	O 	0.8813	0.47594	0.70448	-0.394
Mof_O 	O 	0.0631	0.58271	0.87541	-0.361
Mof_O 	O 	0.393	0.87811	0.31791	-0.278
Mof_O 	O 	0.677	0.37998	0.78678	-0.369
Mof_O 	O 	0.8374	0.5424	0.92752	-0.337
Mof_O 	O 	0.3813	0.70448	0.47594	-0.39
Mof_O 	O 	0.5631	0.87541	0.58271	-0.355
Mof_O 	O 	0.893	0.31791	0.87811	-0.278
Mof_O 	O 	0.823	0.21322	0.62002	-0.374
Mof_O 	O 	0.6626	0.07248	0.4576	-0.363
Mof_O 	O 	0.1187	0.52406	0.29552	-0.383
Mof_O 	O 	0.9369	0.41729	0.12459	-0.347
Mof_O 	O 	0.607	0.12189	0.68209	-0.298
_end
