data_functionalizedCrystal
_audit_creation_method	'EQeq! by Chris Wilmer'
_symmetry_space_group_name_H-M	'P1'
_symmetry_Int_Tables_number	1
_symmetry_cell_setting	triclinic
loop_
_symmetry_equiv_pos_as_xyz
  x,y,z
_cell_length_a	28.764
_cell_length_b	21.682
_cell_length_c	10.933
_cell_angle_alpha	90
_cell_angle_beta	90
_cell_angle_gamma	90
loop_
_atom_site_label
_atom_site_type_symbol
_atom_site_fract_x
_atom_site_fract_y
_atom_site_fract_z
_atom_site_charge
Mof_C 	C 	0.7451	0.1713	0.391	0.589
Mof_H 	H 	0.723	0.2024	0.3824	-0.174
Mof_C 	C 	0.791	0.1764	0.335	0.079
Mof_H 	H 	0.7982	0.1878	0.2553	0.026
Mof_C 	C 	0.8262	0.158	0.442	-0.675
Mof_H 	H 	0.8497	0.1835	0.4712	0.273
Mof_C 	C 	0.8567	0.069	0.5481	0.376
Mof_C 	C 	0.8179	0.1014	0.4836	-0.091
Mof_C 	C 	0.7723	0.0928	0.5185	0.103
Mof_H 	H 	0.7661	0.0682	0.5862	0.012
Mof_C 	C 	0.7357	0.1191	0.4573	-0.213
Mof_C 	C 	0.0125	0.1582	0.613	0.367
Mof_C 	C 	0.9855	0.2065	0.6834	-0.137
Mof_C 	C 	0.9369	0.2071	0.6846	0.065
Mof_H 	H 	0.9207	0.1776	0.6398	0.015
Mof_C 	C 	0.9368	0.0345	0.8458	0.418
Mof_C 	C 	0.9537	0.0583	0.9706	-0.153
Mof_C 	C 	0.9432	0.0256	0.0751	0.092
Mof_H 	H 	0.9249	0.9904	0.0694	0.02
Mof_C 	C 	0.9596	0.0444	0.19	-0.16
Mof_C 	C 	0.9505	0.0058	0.3016	0.41
Mof_C 	C 	0.9858	0.0979	0.1963	0.071
Mof_H 	H 	0.9961	0.1124	0.2716	-0.008
Mof_C 	C 	0.9967	0.1303	0.0886	-0.151
Mof_H 	H 	0.0148	0.1658	0.0925	0.07
Mof_C 	C 	0.9808	0.1096	0.9787	0.082
Mof_H 	H 	0.9886	0.1309	0.9078	0.017
Mof_C 	C 	0.687	0.1067	0.4934	0.464
Mof_Co	Co	0.95548	0.03592	0.57479	1.188
Mof_Co	Co	0.90923	0.91013	0.43605	1.171
Mof_Co	Co	0.86638	0.95605	0.71369	1.132
Mof_O 	O 	0.9233	0.949	0.5941	-0.826
Mof_O 	O 	0.68041	0.0874	0.5963	-0.515
Mof_O 	O 	0.65537	0.115	0.4162	-0.484
Mof_O 	O 	0.90593	0.9935	0.849	-0.481
Mof_O 	O 	0.95546	0.058	0.7554	-0.456
Mof_O 	O 	0.99244	0.1179	0.5493	-0.448
Mof_O 	O 	0.05661	0.1619	0.6217	-0.451
Mof_O 	O 	0.97699	0.01477	0.3931	-0.541
Mof_O 	O 	0.89706	0.0748	0.5061	-0.439
Mof_O 	O 	0.84531	0.0382	0.6394	-0.455
Mof_O 	O 	0.91744	0.9696	0.2991	-0.462
Mof_H 	H 	0.942	0.923	0.621	0.261
Mof_C 	C 	0.7448	0.1459	0.3366	-0.495
Mof_H 	H 	0.7208	0.1631	0.2912	0.173
Mof_C 	C 	0.7905	0.1452	0.29	-0.295
Mof_H 	H 	0.7964	0.1529	0.2077	0.113
Mof_C 	C 	0.8269	0.1325	0.372	0.658
Mof_H 	H 	0.8571	0.1446	0.353	-0.14
Mof_C 	C 	0.7549	0.8287	0.391	0.588
Mof_H 	H 	0.777	0.7976	0.3824	-0.175
Mof_C 	C 	0.709	0.8236	0.335	0.078
Mof_H 	H 	0.7018	0.8122	0.2553	0.025
Mof_C 	C 	0.6738	0.842	0.442	-0.676
Mof_H 	H 	0.6503	0.8165	0.4712	0.272
Mof_C 	C 	0.6433	0.931	0.5481	0.375
Mof_C 	C 	0.6821	0.8986	0.4836	-0.092
Mof_C 	C 	0.7277	0.9072	0.5185	0.102
Mof_H 	H 	0.7339	0.9318	0.5862	0.011
Mof_C 	C 	0.7643	0.8809	0.4573	-0.214
Mof_C 	C 	0.4875	0.8418	0.613	0.368
Mof_C 	C 	0.5145	0.7935	0.6834	-0.141
Mof_C 	C 	0.5631	0.7929	0.6846	0.066
Mof_H 	H 	0.5793	0.8224	0.6398	0.013
Mof_C 	C 	0.5632	0.9655	0.8458	0.416
Mof_C 	C 	0.5463	0.9417	0.9706	-0.153
Mof_C 	C 	0.5568	0.9744	0.0751	0.089
Mof_H 	H 	0.5751	0.0096	0.0694	0.021
Mof_C 	C 	0.5404	0.9556	0.19	-0.159
Mof_C 	C 	0.5495	0.9942	0.3016	0.409
Mof_C 	C 	0.5142	0.9021	0.1963	0.07
Mof_H 	H 	0.5039	0.8876	0.2716	-0.008
Mof_C 	C 	0.5033	0.8697	0.0886	-0.15
Mof_H 	H 	0.4852	0.8342	0.0925	0.07
Mof_C 	C 	0.5192	0.8904	0.9787	0.081
Mof_H 	H 	0.5114	0.8691	0.9078	0.018
Mof_C 	C 	0.813	0.8933	0.4934	0.464
Mof_Co	Co	0.54452	0.96408	0.57479	1.188
Mof_Co	Co	0.59077	0.08987	0.43605	1.171
Mof_Co	Co	0.63362	0.04395	0.71369	1.132
Mof_O 	O 	0.5767	0.051	0.5941	-0.825
Mof_O 	O 	0.81959	0.9126	0.5963	-0.515
Mof_O 	O 	0.84463	0.885	0.4162	-0.484
Mof_O 	O 	0.59407	0.0065	0.849	-0.48
Mof_O 	O 	0.54454	0.942	0.7554	-0.455
Mof_O 	O 	0.50756	0.8821	0.5493	-0.449
Mof_O 	O 	0.44339	0.8381	0.6217	-0.451
Mof_O 	O 	0.52301	0.98523	0.3931	-0.541
Mof_O 	O 	0.60294	0.9252	0.5061	-0.439
Mof_O 	O 	0.65469	0.9618	0.6394	-0.456
Mof_O 	O 	0.58256	0.0304	0.2991	-0.461
Mof_H 	H 	0.558	0.077	0.621	0.261
Mof_C 	C 	0.7552	0.8541	0.3366	-0.495
Mof_H 	H 	0.7792	0.8369	0.2912	0.173
Mof_C 	C 	0.7095	0.8548	0.29	-0.296
Mof_H 	H 	0.7036	0.8471	0.2077	0.113
Mof_C 	C 	0.6731	0.8675	0.372	0.658
Mof_H 	H 	0.6429	0.8554	0.353	-0.14
Mof_C 	C 	0.7549	0.6713	0.109	0.588
Mof_H 	H 	0.777	0.7024	0.1176	-0.175
Mof_C 	C 	0.709	0.6764	0.165	0.077
Mof_H 	H 	0.7018	0.6878	0.2447	0.025
Mof_C 	C 	0.6738	0.658	0.058	-0.675
Mof_H 	H 	0.6503	0.6835	0.0288	0.272
Mof_C 	C 	0.6433	0.569	0.9519	0.376
Mof_C 	C 	0.6821	0.6014	0.0164	-0.095
Mof_C 	C 	0.7277	0.5928	0.9815	0.106
Mof_H 	H 	0.7339	0.5682	0.9138	0.01
Mof_C 	C 	0.7643	0.6191	0.0427	-0.216
Mof_C 	C 	0.4875	0.6582	0.887	0.368
Mof_C 	C 	0.5145	0.7065	0.8166	-0.141
Mof_C 	C 	0.5631	0.7071	0.8154	0.066
Mof_H 	H 	0.5793	0.6776	0.8602	0.013
Mof_C 	C 	0.5632	0.5345	0.6542	0.417
Mof_C 	C 	0.5463	0.5583	0.5294	-0.154
Mof_C 	C 	0.5568	0.5256	0.4249	0.09
Mof_H 	H 	0.5751	0.4904	0.4306	0.02
Mof_C 	C 	0.5404	0.5444	0.31	-0.16
Mof_C 	C 	0.5495	0.5058	0.1984	0.409
Mof_C 	C 	0.5142	0.5979	0.3037	0.071
Mof_H 	H 	0.5039	0.6124	0.2284	-0.008
Mof_C 	C 	0.5033	0.6303	0.4114	-0.15
Mof_H 	H 	0.4852	0.6658	0.4075	0.07
Mof_C 	C 	0.5192	0.6096	0.5213	0.081
Mof_H 	H 	0.5114	0.6309	0.5922	0.018
Mof_C 	C 	0.813	0.6067	0.0066	0.463
Mof_Co	Co	0.54452	0.53592	0.92521	1.188
Mof_Co	Co	0.59077	0.41013	0.06395	1.171
Mof_Co	Co	0.63362	0.45605	0.78631	1.132
Mof_O 	O 	0.5767	0.449	0.9059	-0.825
Mof_O 	O 	0.81959	0.5874	0.9037	-0.514
Mof_O 	O 	0.84463	0.615	0.0838	-0.484
Mof_O 	O 	0.59407	0.4935	0.651	-0.481
Mof_O 	O 	0.54454	0.558	0.7446	-0.456
Mof_O 	O 	0.50756	0.6179	0.9507	-0.449
Mof_O 	O 	0.44339	0.6619	0.8783	-0.451
Mof_O 	O 	0.52301	0.51477	0.1069	-0.541
Mof_O 	O 	0.60294	0.5748	0.9939	-0.439
Mof_O 	O 	0.65469	0.5382	0.8606	-0.456
Mof_O 	O 	0.58256	0.4696	0.2009	-0.462
Mof_H 	H 	0.558	0.423	0.879	0.261
Mof_C 	C 	0.7552	0.6459	0.1634	-0.494
Mof_H 	H 	0.7792	0.6631	0.2088	0.173
Mof_C 	C 	0.7095	0.6452	0.21	-0.295
Mof_H 	H 	0.7036	0.6529	0.2923	0.113
Mof_C 	C 	0.6731	0.6325	0.128	0.658
Mof_H 	H 	0.6429	0.6446	0.147	-0.14
Mof_C 	C 	0.7451	0.3287	0.109	0.587
Mof_H 	H 	0.723	0.2976	0.1176	-0.175
Mof_C 	C 	0.791	0.3236	0.165	0.077
Mof_H 	H 	0.7982	0.3122	0.2447	0.025
Mof_C 	C 	0.8262	0.342	0.058	-0.674
Mof_H 	H 	0.8497	0.3165	0.0288	0.272
Mof_C 	C 	0.8567	0.431	0.9519	0.376
Mof_C 	C 	0.8179	0.3986	0.0164	-0.095
Mof_C 	C 	0.7723	0.4072	0.9815	0.106
Mof_H 	H 	0.7661	0.4318	0.9138	0.01
Mof_C 	C 	0.7357	0.3809	0.0427	-0.216
Mof_C 	C 	0.0125	0.3418	0.887	0.366
Mof_C 	C 	0.9855	0.2935	0.8166	-0.138
Mof_C 	C 	0.9369	0.2929	0.8154	0.064
Mof_H 	H 	0.9207	0.3224	0.8602	0.014
Mof_C 	C 	0.9368	0.4655	0.6542	0.417
Mof_C 	C 	0.9537	0.4417	0.5294	-0.154
Mof_C 	C 	0.9432	0.4744	0.4249	0.09
Mof_H 	H 	0.9249	0.5096	0.4306	0.02
Mof_C 	C 	0.9596	0.4556	0.31	-0.16
Mof_C 	C 	0.9505	0.4942	0.1984	0.409
Mof_C 	C 	0.9858	0.4021	0.3037	0.07
Mof_H 	H 	0.9961	0.3876	0.2284	-0.008
Mof_C 	C 	0.9967	0.3697	0.4114	-0.15
Mof_H 	H 	0.0148	0.3342	0.4075	0.07
Mof_C 	C 	0.9808	0.3904	0.5213	0.081
Mof_H 	H 	0.9886	0.3691	0.5922	0.018
Mof_C 	C 	0.687	0.3933	0.0066	0.464
Mof_Co	Co	0.95548	0.46408	0.92521	1.188
Mof_Co	Co	0.90923	0.58987	0.06395	1.171
Mof_Co	Co	0.86638	0.54395	0.78631	1.132
Mof_O 	O 	0.9233	0.551	0.9059	-0.825
Mof_O 	O 	0.68041	0.4126	0.9037	-0.514
Mof_O 	O 	0.65537	0.385	0.0838	-0.484
Mof_O 	O 	0.90593	0.5065	0.651	-0.481
Mof_O 	O 	0.95546	0.442	0.7446	-0.456
Mof_O 	O 	0.99244	0.3821	0.9507	-0.448
Mof_O 	O 	0.05661	0.3381	0.8783	-0.451
Mof_O 	O 	0.97699	0.48523	0.1069	-0.541
Mof_O 	O 	0.89706	0.4252	0.9939	-0.439
Mof_O 	O 	0.84531	0.4618	0.8606	-0.456
Mof_O 	O 	0.91744	0.5304	0.2009	-0.462
Mof_H 	H 	0.942	0.577	0.879	0.261
Mof_C 	C 	0.7448	0.3541	0.1634	-0.494
Mof_H 	H 	0.7208	0.3369	0.2088	0.172
Mof_C 	C 	0.7905	0.3548	0.21	-0.295
Mof_H 	H 	0.7964	0.3471	0.2923	0.113
Mof_C 	C 	0.8269	0.3675	0.128	0.658
Mof_H 	H 	0.8571	0.3554	0.147	-0.14
Mof_C 	C 	0.2549	0.8287	0.609	0.588
Mof_H 	H 	0.277	0.7976	0.6176	-0.175
Mof_C 	C 	0.209	0.8236	0.665	0.078
Mof_H 	H 	0.2018	0.8122	0.7447	0.025
Mof_C 	C 	0.1738	0.842	0.558	-0.676
Mof_H 	H 	0.1503	0.8165	0.5288	0.272
Mof_C 	C 	0.1433	0.931	0.4519	0.375
Mof_C 	C 	0.1821	0.8986	0.5164	-0.092
Mof_C 	C 	0.2277	0.9072	0.4815	0.102
Mof_H 	H 	0.2339	0.9318	0.4138	0.011
Mof_C 	C 	0.2643	0.8809	0.5427	-0.214
Mof_C 	C 	0.9875	0.8418	0.387	0.366
Mof_C 	C 	0.0145	0.7935	0.3166	-0.138
Mof_C 	C 	0.0631	0.7929	0.3154	0.064
Mof_H 	H 	0.0793	0.8224	0.3602	0.014
Mof_C 	C 	0.0632	0.9655	0.1542	0.417
Mof_C 	C 	0.0463	0.9417	0.0294	-0.154
Mof_C 	C 	0.0568	0.9744	0.9249	0.091
Mof_H 	H 	0.0751	0.0096	0.9306	0.02
Mof_C 	C 	0.0404	0.9556	0.81	-0.16
Mof_C 	C 	0.0495	0.9942	0.6984	0.41
Mof_C 	C 	0.0142	0.9021	0.8037	0.071
Mof_H 	H 	0.0039	0.8876	0.7284	-0.008
Mof_C 	C 	0.0033	0.8697	0.9114	-0.151
Mof_H 	H 	0.9852	0.8342	0.9075	0.07
Mof_C 	C 	0.0192	0.8904	0.0213	0.082
Mof_H 	H 	0.0114	0.8691	0.0922	0.017
Mof_C 	C 	0.313	0.8933	0.5066	0.464
Mof_Co	Co	0.04452	0.96408	0.42521	1.188
Mof_Co	Co	0.09077	0.08987	0.56395	1.171
Mof_Co	Co	0.13362	0.04395	0.28631	1.132
Mof_O 	O 	0.0767	0.051	0.4059	-0.826
Mof_O 	O 	0.31959	0.9126	0.4037	-0.515
Mof_O 	O 	0.34463	0.885	0.5838	-0.484
Mof_O 	O 	0.09407	0.0065	0.151	-0.481
Mof_O 	O 	0.04454	0.942	0.2446	-0.456
Mof_O 	O 	0.00756	0.8821	0.4507	-0.448
Mof_O 	O 	0.94339	0.8381	0.3783	-0.451
Mof_O 	O 	0.02301	0.98523	0.6069	-0.541
Mof_O 	O 	0.10294	0.9252	0.4939	-0.439
Mof_O 	O 	0.15469	0.9618	0.3606	-0.455
Mof_O 	O 	0.08256	0.0304	0.7009	-0.462
Mof_H 	H 	0.058	0.077	0.379	0.261
Mof_C 	C 	0.2552	0.8541	0.6634	-0.495
Mof_H 	H 	0.2792	0.8369	0.7088	0.173
Mof_C 	C 	0.2095	0.8548	0.71	-0.295
Mof_H 	H 	0.2036	0.8471	0.7923	0.113
Mof_C 	C 	0.1731	0.8675	0.628	0.658
Mof_H 	H 	0.1429	0.8554	0.647	-0.14
Mof_C 	C 	0.2451	0.1713	0.609	0.588
Mof_H 	H 	0.223	0.2024	0.6176	-0.175
Mof_C 	C 	0.291	0.1764	0.665	0.078
Mof_H 	H 	0.2982	0.1878	0.7447	0.025
Mof_C 	C 	0.3262	0.158	0.558	-0.676
Mof_H 	H 	0.3497	0.1835	0.5288	0.272
Mof_C 	C 	0.3567	0.069	0.4519	0.375
Mof_C 	C 	0.3179	0.1014	0.5164	-0.092
Mof_C 	C 	0.2723	0.0928	0.4815	0.102
Mof_H 	H 	0.2661	0.0682	0.4138	0.011
Mof_C 	C 	0.2357	0.1191	0.5427	-0.214
Mof_C 	C 	0.5125	0.1582	0.387	0.368
Mof_C 	C 	0.4855	0.2065	0.3166	-0.141
Mof_C 	C 	0.4369	0.2071	0.3154	0.066
Mof_H 	H 	0.4207	0.1776	0.3602	0.013
Mof_C 	C 	0.4368	0.0345	0.1542	0.416
Mof_C 	C 	0.4537	0.0583	0.0294	-0.153
Mof_C 	C 	0.4432	0.0256	0.9249	0.089
Mof_H 	H 	0.4249	0.9904	0.9306	0.021
Mof_C 	C 	0.4596	0.0444	0.81	-0.159
Mof_C 	C 	0.4505	0.0058	0.6984	0.409
Mof_C 	C 	0.4858	0.0979	0.8037	0.07
Mof_H 	H 	0.4961	0.1124	0.7284	-0.008
Mof_C 	C 	0.4967	0.1303	0.9114	-0.15
Mof_H 	H 	0.5148	0.1658	0.9075	0.07
Mof_C 	C 	0.4808	0.1096	0.0213	0.081
Mof_H 	H 	0.4886	0.1309	0.0922	0.018
Mof_C 	C 	0.187	0.1067	0.5066	0.464
Mof_Co	Co	0.45548	0.03592	0.42521	1.188
Mof_Co	Co	0.40923	0.91013	0.56395	1.171
Mof_Co	Co	0.36638	0.95605	0.28631	1.132
Mof_O 	O 	0.4233	0.949	0.4059	-0.825
Mof_O 	O 	0.18041	0.0874	0.4037	-0.515
Mof_O 	O 	0.15537	0.115	0.5838	-0.484
Mof_O 	O 	0.40593	0.9935	0.151	-0.48
Mof_O 	O 	0.45546	0.058	0.2446	-0.455
Mof_O 	O 	0.49244	0.1179	0.4507	-0.449
Mof_O 	O 	0.55661	0.1619	0.3783	-0.451
Mof_O 	O 	0.47699	0.01477	0.6069	-0.541
Mof_O 	O 	0.39706	0.0748	0.4939	-0.439
Mof_O 	O 	0.34531	0.0382	0.3606	-0.456
Mof_O 	O 	0.41744	0.9696	0.7009	-0.461
Mof_H 	H 	0.442	0.923	0.379	0.261
Mof_C 	C 	0.2448	0.1459	0.6634	-0.495
Mof_H 	H 	0.2208	0.1631	0.7088	0.173
Mof_C 	C 	0.2905	0.1452	0.71	-0.296
Mof_H 	H 	0.2964	0.1529	0.7923	0.113
Mof_C 	C 	0.3269	0.1325	0.628	0.658
Mof_H 	H 	0.3571	0.1446	0.647	-0.14
Mof_C 	C 	0.2451	0.3287	0.891	0.588
Mof_H 	H 	0.223	0.2976	0.8824	-0.175
Mof_C 	C 	0.291	0.3236	0.835	0.077
Mof_H 	H 	0.2982	0.3122	0.7553	0.025
Mof_C 	C 	0.3262	0.342	0.942	-0.675
Mof_H 	H 	0.3497	0.3165	0.9712	0.272
Mof_C 	C 	0.3567	0.431	0.0481	0.376
Mof_C 	C 	0.3179	0.3986	0.9836	-0.095
Mof_C 	C 	0.2723	0.4072	0.0185	0.106
Mof_H 	H 	0.2661	0.4318	0.0862	0.01
Mof_C 	C 	0.2357	0.3809	0.9573	-0.216
Mof_C 	C 	0.5125	0.3418	0.113	0.368
Mof_C 	C 	0.4855	0.2935	0.1834	-0.141
Mof_C 	C 	0.4369	0.2929	0.1846	0.066
Mof_H 	H 	0.4207	0.3224	0.1398	0.013
Mof_C 	C 	0.4368	0.4655	0.3458	0.417
Mof_C 	C 	0.4537	0.4417	0.4706	-0.154
Mof_C 	C 	0.4432	0.4744	0.5751	0.09
Mof_H 	H 	0.4249	0.5096	0.5694	0.02
Mof_C 	C 	0.4596	0.4556	0.69	-0.16
Mof_C 	C 	0.4505	0.4942	0.8016	0.409
Mof_C 	C 	0.4858	0.4021	0.6963	0.071
Mof_H 	H 	0.4961	0.3876	0.7716	-0.008
Mof_C 	C 	0.4967	0.3697	0.5886	-0.15
Mof_H 	H 	0.5148	0.3342	0.5925	0.07
Mof_C 	C 	0.4808	0.3904	0.4787	0.081
Mof_H 	H 	0.4886	0.3691	0.4078	0.018
Mof_C 	C 	0.187	0.3933	0.9934	0.463
Mof_Co	Co	0.45548	0.46408	0.07479	1.188
Mof_Co	Co	0.40923	0.58987	0.93605	1.171
Mof_Co	Co	0.36638	0.54395	0.21369	1.132
Mof_O 	O 	0.4233	0.551	0.0941	-0.825
Mof_O 	O 	0.18041	0.4126	0.0963	-0.514
Mof_O 	O 	0.15537	0.385	0.9162	-0.484
Mof_O 	O 	0.40593	0.5065	0.349	-0.481
Mof_O 	O 	0.45546	0.442	0.2554	-0.456
Mof_O 	O 	0.49244	0.3821	0.0493	-0.449
Mof_O 	O 	0.55661	0.3381	0.1217	-0.451
Mof_O 	O 	0.47699	0.48523	0.8931	-0.541
Mof_O 	O 	0.39706	0.4252	0.0061	-0.439
Mof_O 	O 	0.34531	0.4618	0.1394	-0.456
Mof_O 	O 	0.41744	0.5304	0.7991	-0.462
Mof_H 	H 	0.442	0.577	0.121	0.261
Mof_C 	C 	0.2448	0.3541	0.8366	-0.494
Mof_H 	H 	0.2208	0.3369	0.7912	0.173
Mof_C 	C 	0.2905	0.3548	0.79	-0.295
Mof_H 	H 	0.2964	0.3471	0.7077	0.113
Mof_C 	C 	0.3269	0.3675	0.872	0.658
Mof_H 	H 	0.3571	0.3554	0.853	-0.14
Mof_C 	C 	0.2549	0.6713	0.891	0.587
Mof_H 	H 	0.277	0.7024	0.8824	-0.175
Mof_C 	C 	0.209	0.6764	0.835	0.077
Mof_H 	H 	0.2018	0.6878	0.7553	0.025
Mof_C 	C 	0.1738	0.658	0.942	-0.674
Mof_H 	H 	0.1503	0.6835	0.9712	0.272
Mof_C 	C 	0.1433	0.569	0.0481	0.376
Mof_C 	C 	0.1821	0.6014	0.9836	-0.095
Mof_C 	C 	0.2277	0.5928	0.0185	0.106
Mof_H 	H 	0.2339	0.5682	0.0862	0.01
Mof_C 	C 	0.2643	0.6191	0.9573	-0.216
Mof_C 	C 	0.9875	0.6582	0.113	0.366
Mof_C 	C 	0.0145	0.7065	0.1834	-0.138
Mof_C 	C 	0.0631	0.7071	0.1846	0.064
Mof_H 	H 	0.0793	0.6776	0.1398	0.014
Mof_C 	C 	0.0632	0.5345	0.3458	0.417
Mof_C 	C 	0.0463	0.5583	0.4706	-0.154
Mof_C 	C 	0.0568	0.5256	0.5751	0.09
Mof_H 	H 	0.0751	0.4904	0.5694	0.02
Mof_C 	C 	0.0404	0.5444	0.69	-0.16
Mof_C 	C 	0.0495	0.5058	0.8016	0.409
Mof_C 	C 	0.0142	0.5979	0.6963	0.07
Mof_H 	H 	0.0039	0.6124	0.7716	-0.008
Mof_C 	C 	0.0033	0.6303	0.5886	-0.15
Mof_H 	H 	0.9852	0.6658	0.5925	0.07
Mof_C 	C 	0.0192	0.6096	0.4787	0.081
Mof_H 	H 	0.0114	0.6309	0.4078	0.018
Mof_C 	C 	0.313	0.6067	0.9934	0.464
Mof_Co	Co	0.04452	0.53592	0.07479	1.188
Mof_Co	Co	0.09077	0.41013	0.93605	1.171
Mof_Co	Co	0.13362	0.45605	0.21369	1.132
Mof_O 	O 	0.0767	0.449	0.0941	-0.825
Mof_O 	O 	0.31959	0.5874	0.0963	-0.514
Mof_O 	O 	0.34463	0.615	0.9162	-0.484
Mof_O 	O 	0.09407	0.4935	0.349	-0.481
Mof_O 	O 	0.04454	0.558	0.2554	-0.456
Mof_O 	O 	0.00756	0.6179	0.0493	-0.448
Mof_O 	O 	0.94339	0.6619	0.1217	-0.451
Mof_O 	O 	0.02301	0.51477	0.8931	-0.541
Mof_O 	O 	0.10294	0.5748	0.0061	-0.439
Mof_O 	O 	0.15469	0.5382	0.1394	-0.456
Mof_O 	O 	0.08256	0.4696	0.7991	-0.462
Mof_H 	H 	0.058	0.423	0.121	0.261
Mof_C 	C 	0.2552	0.6459	0.8366	-0.494
Mof_H 	H 	0.2792	0.6631	0.7912	0.172
Mof_C 	C 	0.2095	0.6452	0.79	-0.295
Mof_H 	H 	0.2036	0.6529	0.7077	0.113
Mof_C 	C 	0.1731	0.6325	0.872	0.658
Mof_H 	H 	0.1429	0.6446	0.853	-0.14
Mof_C 	C 	0.0086	0.25	0.75	0.071
Mof_H 	H 	0.0409	0.25	0.75	0.034
Mof_C 	C 	0.9128	0.25	0.75	-0.138
Mof_H 	H 	0.8805	0.25	0.75	0.076
Mof_C 	C 	0.4914	0.75	0.75	0.075
Mof_H 	H 	0.4591	0.75	0.75	0.033
Mof_C 	C 	0.5872	0.75	0.75	-0.14
Mof_H 	H 	0.6195	0.75	0.75	0.076
Mof_C 	C 	0.9914	0.75	0.25	0.071
Mof_H 	H 	0.9591	0.75	0.25	0.034
Mof_C 	C 	0.0872	0.75	0.25	-0.138
Mof_H 	H 	0.1195	0.75	0.25	0.076
Mof_C 	C 	0.5086	0.25	0.25	0.075
Mof_H 	H 	0.5409	0.25	0.25	0.033
Mof_C 	C 	0.4128	0.25	0.25	-0.14
Mof_H 	H 	0.3805	0.25	0.25	0.076
_end
