data_functionalizedCrystal
_audit_creation_method	'EQeq! by Chris Wilmer'
_symmetry_space_group_name_H-M	'P1'
_symmetry_Int_Tables_number	1
_symmetry_cell_setting	triclinic
loop_
_symmetry_equiv_pos_as_xyz
  x,y,z
_cell_length_a	6.6305
_cell_length_b	16.7759
_cell_length_c	12.7703
_cell_angle_alpha	90
_cell_angle_beta	90
_cell_angle_gamma	90
loop_
_atom_site_label
_atom_site_type_symbol
_atom_site_fract_x
_atom_site_fract_y
_atom_site_fract_z
_atom_site_charge
Mof_O 	O 	0.16765	0.1679	0.84281	-1.479
Mof_C 	C 	0.8091	0.03505	0.9686	0.031
Mof_O 	O 	0.66765	0.6679	0.34281	-1.471
Mof_C 	C 	0.3091	0.53505	0.4686	0.073
Mof_O 	O 	0.83235	0.3321	0.84281	-1.499
Mof_C 	C 	0.1909	0.46495	0.9686	0.062
Mof_O 	O 	0.33235	0.8321	0.34281	-1.47
Mof_C 	C 	0.6909	0.96495	0.4686	0.053
Mof_O 	O 	0.83235	0.6679	0.15719	-1.499
Mof_C 	C 	0.1909	0.53505	0.0314	0.062
Mof_O 	O 	0.33235	0.1679	0.65719	-1.47
Mof_C 	C 	0.6909	0.03505	0.5314	0.053
Mof_O 	O 	0.16765	0.8321	0.15719	-1.479
Mof_C 	C 	0.8091	0.96495	0.0314	0.031
Mof_O 	O 	0.66765	0.3321	0.65719	-1.471
Mof_C 	C 	0.3091	0.46495	0.5314	0.073
Mof_O 	O 	0.83235	0.8321	0.15719	-1.499
Mof_C 	C 	0.1909	0.96495	0.0314	0.061
Mof_O 	O 	0.33235	0.3321	0.65719	-1.47
Mof_C 	C 	0.6909	0.46495	0.5314	0.054
Mof_O 	O 	0.16765	0.6679	0.15719	-1.479
Mof_C 	C 	0.8091	0.53505	0.0314	0.031
Mof_O 	O 	0.66765	0.1679	0.65719	-1.471
Mof_C 	C 	0.3091	0.03505	0.5314	0.073
Mof_O 	O 	0.16765	0.3321	0.84281	-1.479
Mof_C 	C 	0.8091	0.46495	0.9686	0.031
Mof_O 	O 	0.66765	0.8321	0.34281	-1.471
Mof_C 	C 	0.3091	0.96495	0.4686	0.073
Mof_O 	O 	0.83235	0.1679	0.84281	-1.499
Mof_C 	C 	0.1909	0.03505	0.9686	0.061
Mof_O 	O 	0.33235	0.6679	0.34281	-1.47
Mof_C 	C 	0.6909	0.53505	0.4686	0.054
Mof_Al	Al	0.25	0.25	0.75	6.199
Mof_Al	Al	0.75	0.25	0.75	6.116
Mof_Al	Al	0.75	0.75	0.25	6.116
Mof_Al	Al	0.25	0.75	0.25	6.199
Mof_O 	O 	-1.28275e-32	0.25	0.6846	-2.135
Mof_O 	O 	0.5	0.75	0.1846	-2.16
Mof_O 	O 	-6.60801e-33	0.75	0.3154	-2.135
Mof_O 	O 	0.5	0.25	0.8154	-2.16
Mof_C 	C 	-1.09449e-32	0.06366	0.9453	-0.239
Mof_C 	C 	-1.14807e-32	0.13826	0.8711	1.123
Mof_C 	C 	0.5	0.56366	0.4453	-0.275
Mof_C 	C 	0.5	0.63826	0.3711	1.081
Mof_C 	C 	6.82631e-33	0.43634	0.9453	-0.239
Mof_C 	C 	-2.92519e-32	0.36174	0.8711	1.123
Mof_C 	C 	0.5	0.93634	0.4453	-0.275
Mof_C 	C 	0.5	0.86174	0.3711	1.081
Mof_C 	C 	1.50571e-33	0.56366	0.0547	-0.239
Mof_C 	C 	-7.95478e-33	0.63826	0.1289	1.123
Mof_C 	C 	0.5	0.06366	0.5547	-0.275
Mof_C 	C 	0.5	0.13826	0.6289	1.081
Mof_C 	C 	1.50571e-33	0.93634	0.0547	-0.239
Mof_C 	C 	-7.95478e-33	0.86174	0.1289	1.123
Mof_C 	C 	0.5	0.43634	0.5547	-0.275
Mof_C 	C 	0.5	0.36174	0.6289	1.081
_end
