data_functionalizedCrystal
_audit_creation_method	'EQeq! by Chris Wilmer'
_symmetry_space_group_name_H-M	'P1'
_symmetry_Int_Tables_number	1
_symmetry_cell_setting	triclinic
loop_
_symmetry_equiv_pos_as_xyz
  x,y,z
_cell_length_a	19.0697
_cell_length_b	19.0697
_cell_length_c	23.5335
_cell_angle_alpha	112.154
_cell_angle_beta	112.154
_cell_angle_gamma	93.9715
loop_
_atom_site_label
_atom_site_type_symbol
_atom_site_fract_x
_atom_site_fract_y
_atom_site_fract_z
_atom_site_charge
Mof_Zr	Zr	0.47823	0.09601	0.4738	3.185
Mof_Zr	Zr	0.08771	0.35419	0.87948	3.222
Mof_Zr	Zr	0.37134	0.2397	0.47328	3.199
Mof_Zr	Zr	0.7603	0.62866	0.52672	3.199
Mof_Zr	Zr	0.64581	0.91229	0.12052	3.222
Mof_Zr	Zr	0.58644	0.83978	0.8807	3.217
Mof_Zr	Zr	0.90399	0.52177	0.5262	3.185
Mof_Zr	Zr	0.9899	0.63966	0.47536	3.175
Mof_Zr	Zr	0.64806	0.01642	0.02672	3.169
Mof_Zr	Zr	0.47777	0.87979	0.97494	3.194
Mof_Zr	Zr	0.98358	0.35194	0.97328	3.169
Mof_Zr	Zr	0.12021	0.52223	0.02506	3.194
Mof_Zr	Zr	0.84515	0.74717	0.47494	3.195
Mof_Zr	Zr	0.25283	0.15485	0.52506	3.195
Mof_Zr	Zr	0.45574	0.20908	0.6193	3.217
Mof_Zr	Zr	0.5857	0.73546	0.97536	3.195
Mof_Zr	Zr	0.16022	0.41356	0.1193	3.216
Mof_Zr	Zr	0.95823	0.72471	0.62052	3.199
Mof_Zr	Zr	0.12779	0.24557	0.9738	3.197
Mof_Zr	Zr	0.26454	0.4143	0.02464	3.195
Mof_Zr	Zr	0.79092	0.54426	0.3807	3.217
Mof_Zr	Zr	0.27529	0.04177	0.37948	3.199
Mof_Zr	Zr	0.75443	0.87221	0.0262	3.197
Mof_Zr	Zr	0.36034	0.0101	0.52464	3.174
Mof_H 	H 	0.0272	0.483	0.7334	0.051
Mof_H 	H 	0.9101	0.6731	0.0202	0.003
Mof_H 	H 	0.339	0.119	0.6346	0.206
Mof_H 	H 	0.881	0.661	0.3654	0.206
Mof_H 	H 	0.5559	0.0187	0.0966	0.115
Mof_H 	H 	0.726	0.268	0.2314	0.015
Mof_H 	H 	0.2446	0.2866	0.2686	0.031
Mof_H 	H 	0.9813	0.4441	0.9034	0.115
Mof_H 	H 	0.2656	0.5456	0.1346	0.217
Mof_H 	H 	0.1695	0.7611	0.2252	0.046
Mof_H 	H 	0.7397	0.4679	0.4492	0.208
Mof_H 	H 	0.3783	0.9451	0.4028	0.273
Mof_H 	H 	0.7313	0.9595	0.9492	0.243
Mof_H 	H 	0.5133	0.4621	0.2274	0.036
Mof_H 	H 	0.0405	0.2687	0.0508	0.243
Mof_H 	H 	0.732	0.274	0.7686	0.015
Mof_H 	H 	0.3269	0.0899	0.9798	0.003
Mof_H 	H 	0.7255	0.7923	0.0972	0.28
Mof_H 	H 	0.5321	0.2603	0.5508	0.208
Mof_H 	H 	0.2141	0.3057	0.7252	0.028
Mof_H 	H 	0.8279	0.7907	0.5966	0.293
Mof_H 	H 	0.5153	0.9641	0.7274	0.327
Mof_H 	H 	0.7134	0.7554	0.7314	0.031
Mof_H 	H 	0.2389	0.8305	0.7748	0.046
Mof_H 	H 	0.0971	0.3601	0.5202	0.06
Mof_H 	H 	0.2093	0.1721	0.4034	0.293
Mof_H 	H 	0.0549	0.6217	0.5972	0.273
Mof_H 	H 	0.6399	0.9029	0.4798	0.06
Mof_H 	H 	0.5379	0.4867	0.7726	0.036
Mof_H 	H 	0.2077	0.2745	0.9028	0.28
Mof_H 	H 	0.517	0.9728	0.2666	0.051
Mof_H 	H 	0.4544	0.7344	0.8654	0.217
Mof_H 	H 	0.0438	0.9996	0.7666	0.39
Mof_H 	H 	0.0004	0.9562	0.2334	0.39
Mof_H 	H 	0.0359	0.4847	0.2726	0.327
Mof_H 	H 	0.6943	0.7859	0.2748	0.028
Mof_C 	C 	0.63744	0.70844	0.16928	-0.107
Mof_C 	C 	0.5465	0.8845	0.5038	-0.031
Mof_C 	C 	0.2622	0.1592	0.3106	0.503
Mof_C 	C 	0.2303	0.2339	0.2356	0.069
Mof_C 	C 	0.9073	0.5131	0.3122	0.426
Mof_C 	C 	0.1155	0.4535	0.4962	-0.031
Mof_C 	C 	0.0771	0.5179	0.8766	0.528
Mof_C 	C 	0.6121	0.8727	0.4922	0.042
Mof_C 	C 	0.8699	0.6305	0.0078	0.015
Mof_C 	C 	0.26671	0.32291	0.75922	0.068
Mof_C 	C 	0.3695	0.1301	0.9922	0.015
Mof_C 	C 	0.6232	0.1918	0.624	0.496
Mof_C 	C 	0.21816	0.78916	0.33072	-0.076
Mof_C 	C 	0.1087	0.0495	0.3766	0.399
Mof_C 	C 	0.5242	0.5056	0.7388	0.045
Mof_C 	C 	0.8301	0.9325	0.1906	0.373
Mof_C 	C 	0.4645	0.9617	0.234	0.1
Mof_C 	C 	0.7447	0.2483	0.2644	0.071
Mof_C 	C 	0.4179	0.4733	0.2522	-0.076
Mof_C 	C 	0.7927	0.6307	0.9962	-0.066
Mof_C 	C 	0.7492	0.8178	0.876	0.497
Mof_C 	C 	0.1273	0.3879	0.5078	0.042
Mof_C 	C 	0.4869	0.0927	0.6878	0.426
Mof_C 	C 	0.9014	0.2984	0.8106	0.508
Mof_C 	C 	0.21084	0.78184	0.66928	-0.076
Mof_C 	C 	0.9392	0.5158	0.0002	0.274
Mof_C 	C 	0.6003	0.0021	0.8734	0.184
Mof_C 	C 	0.6277	0.8089	0.5022	-0.062
Mof_C 	C 	0.6213	0.5231	0.3734	0.491
Mof_C 	C 	0.2506	0.3808	0.8738	0.509
Mof_C 	C 	0.3433	0.2747	0.6872	0.514
Mof_C 	C 	0.2354	0.169	0.2476	-0.114
Mof_C 	C 	0.33646	0.81606	0.75252	-0.094
Mof_C 	C 	0.9979	0.3997	0.1266	0.184
Mof_C 	C 	0.6192	0.7494	0.1262	0.509
Mof_C 	C 	0.9505	0.8913	0.6234	0.399
Mof_C 	C 	0.7661	0.7697	0.7644	0.069
Mof_C 	C 	0.7483	0.6917	0.9976	0.45
Mof_C 	C 	0.1268	0.757	0.6262	0.503
Mof_C 	C 	0.5354	0.0168	0.7612	-0.444
Mof_C 	C 	0.3083	0.2517	0.0024	0.45
Mof_C 	C 	0.3895	0.9919	0.3094	0.727
Mof_C 	C 	0.243	0.8732	0.3738	0.503
Mof_C 	C 	0.5356	0.5026	0.3292	-0.081
Mof_C 	C 	0.9832	0.4646	0.2388	-0.444
Mof_C 	C 	0.0081	0.6105	0.6906	0.727
Mof_C 	C 	0.0343	0.6007	0.7554	-0.117
Mof_C 	C 	0.0559	0.4993	0.4976	0.449
Mof_C 	C 	0.4769	0.3787	0.6266	0.491
Mof_C 	C 	0.7517	0.2553	0.7356	0.071
Mof_C 	C 	0.0675	0.1699	0.8094	0.373
Mof_C 	C 	0.0289	0.0953	0.7446	0.259
Mof_C 	C 	0.0383	0.5355	0.766	0.1
Mof_C 	C 	0.4433	0.1245	0.0022	-0.05
Mof_C 	C 	0.67709	0.73329	0.24078	0.068
Mof_C 	C 	0.4974	0.4644	0.6708	-0.081
Mof_C 	C 	0.4944	0.4758	0.2612	0.045
Mof_C 	C 	0.5007	0.9441	0.5024	0.449
Mof_C 	C 	0.3693	0.2073	0.0038	-0.066
Mof_C 	C 	0.7845	0.2915	0.3342	-0.122
Mof_C 	C 	0.7378	0.1714	0.2524	-0.139
Mof_C 	C 	0.1911	0.3723	0.4978	-0.062
Mof_C 	C 	0.8286	0.2622	0.7476	-0.139
Mof_C 	C 	0.1822	0.2508	0.124	0.497
Mof_C 	C 	0.9805	0.9777	0.266	-0.52
Mof_C 	C 	0.5491	0.6549	0.8122	0.488
Mof_C 	C 	0.689	0.7656	0.4998	0.483
Mof_C 	C 	0.18631	0.74251	0.25922	0.071
Mof_C 	C 	0.9047	0.9711	0.2554	0.259
Mof_C 	C 	0.7253	0.6567	0.3128	0.514
Mof_C 	C 	0.4061	0.8375	0.8128	0.525
Mof_C 	C 	0.8408	0.7378	0.6894	0.503
Mof_C 	C 	0.7016	0.0986	0.1894	0.508
Mof_C 	C 	0.9769	0.9779	0.6644	0.231
Mof_C 	C 	0.8755	0.5567	0.9978	-0.05
Mof_C 	C 	0.4842	0.0608	0.9998	0.274
Mof_C 	C 	0.3993	0.9657	0.2446	-0.117
Mof_C 	C 	0.2003	0.2073	0.1658	-0.096
Mof_C 	C 	0.68646	0.66606	0.25252	-0.117
Mof_C 	C 	0.4821	0.9229	0.1234	0.528
Mof_C 	C 	0.1625	0.5939	0.1872	0.525
Mof_C 	C 	0.831	0.7646	0.7524	-0.114
Mof_C 	C 	0.5267	0.5821	0.7478	-0.076
Mof_C 	C 	0.7927	0.7997	0.8342	-0.096
Mof_C 	C 	0.9564	0.4234	0.1708	0.107
Mof_C 	C 	0.2344	0.311	0.5002	0.483
Mof_C 	C 	0.9157	0.4711	0.2478	0.06
Mof_C 	C 	0.8082	0.3768	0.376	0.496
Mof_C 	C 	0.25749	0.81369	0.74078	0.071
Mof_C 	C 	0.5766	0.0436	0.8292	0.107
Mof_C 	C 	0.0223	0.0195	0.734	-0.52
Mof_C 	C 	0.7085	0.2155	0.6658	-0.122
Mof_C 	C 	0.4365	0.9375	0.1644	-0.076
Mof_C 	C 	0.5289	0.0843	0.7522	0.06
Mof_C 	C 	0.3451	0.4509	0.1878	0.488
Mof_C 	C 	0.0221	0.0231	0.3356	0.231
Mof_C 	C 	0.33394	0.31354	0.74748	-0.117
Mof_C 	C 	0.29156	0.36256	0.83072	-0.107
Mof_C 	C 	0.18394	0.66354	0.24748	-0.094
Mof_C 	C 	0.0625	0.5635	0.8356	-0.076
Mof_N 	N 	0.40046	0.34746	0.81172	-0.044
Mof_N 	N 	0.895	0.794	0.815	-0.07
Mof_N 	N 	0.4866	0.1946	0.0184	-0.052
Mof_N 	N 	0.9729	0.0409	0.363	-0.239
Mof_N 	N 	0.9007	0.0099	0.3144	-0.224
Mof_N 	N 	0.4129	0.4959	0.3102	-0.043
Mof_N 	N 	0.1731	0.4767	0.4808	-0.038
Mof_N 	N 	0.0545	0.6637	0.8144	-0.01
Mof_N 	N 	0.9591	0.0271	0.637	-0.239
Mof_N 	N 	0.206	0.105	0.185	-0.07
Mof_N 	N 	0.62231	0.62571	0.13682	-0.056
Mof_N 	N 	0.3599	0.9279	0.137	-0.031
Mof_N 	N 	0.8054	0.5134	0.9816	-0.052
Mof_N 	N 	0.0721	0.6401	0.863	-0.031
Mof_N 	N 	0.5925	0.1209	0.8564	-0.095
Mof_N 	N 	0.7541	0.5577	0.9808	-0.048
Mof_N 	N 	0.4423	0.2459	0.0192	-0.048
Mof_N 	N 	0.65254	0.59954	0.18828	-0.044
Mof_N 	N 	0.1846	0.1276	0.1348	-0.072
Mof_N 	N 	0.7998	0.2428	0.3652	-0.084
Mof_N 	N 	0.5041	0.5871	0.6898	-0.043
Mof_N 	N 	0.23549	0.73889	0.36318	-0.042
Mof_N 	N 	0.26111	0.76451	0.63682	-0.042
Mof_N 	N 	0.4855	0.5139	0.3564	-0.051
Mof_N 	N 	0.5738	0.7818	0.5184	-0.039
Mof_N 	N 	0.21426	0.66126	0.31172	-0.031
Mof_N 	N 	0.7572	0.2002	0.6348	-0.084
Mof_N 	N 	0.8527	0.4357	0.1898	-0.075
Mof_N 	N 	0.37429	0.37769	0.86318	-0.056
Mof_N 	N 	0.9901	0.0993	0.6856	-0.224
Mof_N 	N 	0.3363	0.9455	0.1856	-0.01
Mof_N 	N 	0.4861	0.5145	0.6436	-0.051
Mof_N 	N 	0.83	0.229	0.685	-0.075
Mof_N 	N 	0.5643	0.1473	0.8102	-0.075
Mof_N 	N 	0.771	0.17	0.315	-0.075
Mof_N 	N 	0.33874	0.78574	0.68828	-0.031
Mof_N 	N 	0.5233	0.8269	0.5192	-0.038
Mof_N 	N 	0.2182	0.4262	0.4816	-0.039
Mof_N 	N 	0.8724	0.8154	0.8652	-0.072
Mof_N 	N 	0.8791	0.4075	0.1436	-0.095
Mof_O 	O 	0.18353	0.30653	0.93146	-1.236
Mof_O 	O 	0.27924	0.89524	0.43688	-0.636
Mof_O 	O 	0.17708	0.36448	0.84276	-0.653
Mof_O 	O 	0.89822	0.55142	0.44984	-1.511
Mof_O 	O 	0.44366	0.90546	0.06112	-0.691
Mof_O 	O 	0.95652	0.37652	0.06464	-0.672
Mof_O 	O 	0.30528	0.22008	0.36476	-0.714
Mof_O 	O 	0.7765	0.4167	0.345	-0.658
Mof_O 	O 	0.09454	0.55634	0.93888	-0.691
Mof_O 	O 	0.02303	0.42663	0.93186	-1.041
Mof_O 	O 	0.19838	0.35158	0.05016	-1.457
Mof_O 	O 	0.28213	0.45093	0.19486	-0.648
Mof_O 	O 	0.7786	0.641	0.4492	-1.441
Mof_O 	O 	0.43812	0.35812	0.56464	-0.678
Mof_O 	O 	0.76709	0.93249	0.19658	-0.558
Mof_O 	O 	0.5632	0.6488	0.8664	-0.665
Mof_O 	O 	0.84117	0.74477	0.56814	-1.238
Mof_O 	O 	0.359	0.2214	0.5508	-1.441
Mof_O 	O 	0.62348	0.04348	0.93536	-0.672
Mof_O 	O 	0.22477	0.49897	0.09474	-1.252
Mof_O 	O 	0.17378	0.53278	0.19436	-0.634
Mof_O 	O 	0.07184	0.44684	0.84488	-0.629
Mof_O 	O 	0.24118	0.09138	0.30436	-0.697
Mof_O 	O 	0.08432	0.77172	0.65724	-0.58
Mof_O 	O 	0.27509	0.05189	0.47018	-1.534
Mof_O 	O 	0.2108	0.2604	0.5166	-0.636
Mof_O 	O 	0.59236	0.70836	0.06312	-0.704
Mof_O 	O 	0.0794	0.4418	0.0508	-1.398
Mof_O 	O 	0.34577	0.11997	0.59474	-1.26
Mof_O 	O 	0.7897	0.7591	0.0152	-0.651
Mof_O 	O 	0.70382	0.95222	0.07564	-1.41
Mof_O 	O 	0.37493	0.99793	0.43146	-1.116
Mof_O 	O 	0.75423	0.71883	0.36726	-0.685
Mof_O 	O 	0.14804	0.02304	0.34488	-0.703
Mof_O 	O 	0.00207	0.62507	0.56854	-1.116
Mof_O 	O 	0.64188	0.56188	0.43536	-0.678
Mof_O 	O 	0.5245	0.9939	0.4848	-0.544
Mof_O 	O 	0.13697	0.60157	0.13274	-0.666
Mof_O 	O 	0.45214	0.02074	0.36428	-0.953
Mof_O 	O 	0.91911	0.44211	0.98162	-0.673
Mof_O 	O 	0.72942	0.58842	0.30564	-0.645
Mof_O 	O 	0.57337	0.97697	0.06814	-1.041
Mof_O 	O 	0.4468	0.0324	0.6336	-0.727
Mof_O 	O 	0.46722	0.82622	0.80564	-0.634
Mof_O 	O 	0.50103	0.77523	0.90526	-1.252
Mof_O 	O 	0.64842	0.80162	0.94984	-1.457
Mof_O 	O 	0.69841	0.93581	0.96502	-1.236
Mof_O 	O 	0.7396	0.7892	0.4834	-0.636
Mof_O 	O 	0.67605	0.66925	0.9827	-0.662
Mof_O 	O 	0.37818	0.12658	0.42436	-1.513
Mof_O 	O 	0.54907	0.71787	0.80514	-0.648
Mof_O 	O 	0.32051	0.98591	0.30342	-0.617
Mof_O 	O 	0.16829	0.44509	0.97018	-1.469
Mof_O 	O 	0.9676	0.5532	0.3664	-0.727
Mof_O 	O 	0.3512	0.4368	0.1336	-0.665
Mof_O 	O 	0.69347	0.81647	0.06854	-1.236
Mof_O 	O 	0.39843	0.86303	0.86726	-0.666
Mof_O 	O 	0.48339	0.22079	0.53498	-1.266
Mof_O 	O 	0.69052	0.10532	0.13524	-0.775
Mof_O 	O 	0.87342	0.62182	0.57564	-1.513
Mof_O 	O 	0.55491	0.83171	0.02982	-1.469
Mof_O 	O 	0.83786	0.90646	0.13572	-0.687
Mof_O 	O 	0.04778	0.29618	0.92436	-1.41
Mof_O 	O 	0.59752	0.14432	0.56204	-0.751
Mof_O 	O 	0.07139	0.40759	0.15698	-0.468
Mof_O 	O 	0.89468	0.30948	0.86476	-0.775
Mof_O 	O 	0.49939	0.33559	0.65698	-0.652
Mof_O 	O 	0.83727	0.50607	0.30514	-0.643
Mof_O 	O 	0.44335	0.93655	0.5173	-0.592
Mof_O 	O 	0.13254	0.09434	0.43888	-0.679
Mof_O 	O 	0.63552	0.82292	0.15724	-0.653
Mof_O 	O 	0.2409	0.2103	0.9848	-0.651
Mof_O 	O 	0.22828	0.91568	0.34276	-0.58
Mof_O 	O 	0.90862	0.75882	0.69564	-0.697
Mof_O 	O 	0.94811	0.72491	0.52982	-1.534
Mof_O 	O 	0.09354	0.16214	0.86428	-0.687
Mof_O 	O 	0.0062	0.5558	0.0166	-0.455
Mof_O 	O 	0.06751	0.23291	0.80342	-0.558
Mof_O 	O 	0.68749	0.71049	0.51838	-0.667
Mof_O 	O 	0.55789	0.08089	0.01838	-0.673
Mof_O 	O 	0.77992	0.69472	0.63524	-0.714
Mof_O 	O 	0.68682	0.03702	0.19564	-0.767
Mof_O 	O 	0.77921	0.51661	0.46502	-1.266
Mof_O 	O 	0.41158	0.27058	0.69436	-0.645
Mof_O 	O 	0.6783	0.8185	0.845	-0.646
Mof_O 	O 	0.0061	0.4755	0.5152	-0.544
Mof_O 	O 	0.66441	0.50061	0.34302	-0.652
Mof_O 	O 	0.88003	0.65423	0.40526	-1.26
Mof_O 	O 	0.33075	0.32395	0.0173	-0.662
Mof_O 	O 	0.55316	0.92816	0.15512	-0.629
Mof_O 	O 	0.28117	0.24577	0.63274	-0.685
Mof_O 	O 	0.78548	0.83228	0.93796	-0.704
Mof_O 	O 	0.44858	0.10178	0.55016	-1.511
Mof_O 	O 	0.16772	0.21452	0.06204	-0.704
Mof_O 	O 	0.96298	0.31318	0.80436	-0.767
Mof_O 	O 	0.97696	0.85196	0.65512	-0.703
Mof_O 	O 	0.90566	0.86746	0.56112	-0.679
Mof_O 	O 	0.4442	0.9938	0.9834	-0.455
Mof_O 	O 	0.1815	0.3217	0.155	-0.646
Mof_O 	O 	0.28951	0.31251	0.48162	-0.667
Mof_O 	O 	0.49393	0.16273	0.69486	-0.643
Mof_O 	O 	0.06419	0.30159	0.03498	-1.236
Mof_O 	O 	0.97926	0.54786	0.63572	-0.953
Mof_O 	O 	0.29164	0.40764	0.93688	-0.704
Mof_O 	O 	0.06345	0.55665	0.4827	-0.592
Mof_O 	O 	0.25523	0.15883	0.43186	-1.238
Mof_O 	O 	0.5833	0.2235	0.655	-0.658
Mof_O 	O 	0.01409	0.67949	0.69658	-0.617
Mof_O 	O 	0.5582	0.9206	0.9492	-1.398
Mof_O 	O 	0.85568	0.40248	0.43796	-0.751
Mof_O 	O 	0.59241	0.92861	0.84302	-0.468
Mof_O 	O 	0.10476	0.72076	0.56312	-0.636
_end
