data_functionalizedCrystal
_audit_creation_method	'EQeq! by Chris Wilmer'
_symmetry_space_group_name_H-M	'P1'
_symmetry_Int_Tables_number	1
_symmetry_cell_setting	triclinic
loop_
_symmetry_equiv_pos_as_xyz
  x,y,z
_cell_length_a	11.506
_cell_length_b	6.638
_cell_length_c	17.148
_cell_angle_alpha	90
_cell_angle_beta	96.05
_cell_angle_gamma	90
loop_
_atom_site_label
_atom_site_type_symbol
_atom_site_fract_x
_atom_site_fract_y
_atom_site_fract_z
_atom_site_charge
Mof_Zr	Zr	0.40212	0.07149	0.13798	3.211
Mof_Zr	Zr	0.14752	0.57948	0.27762	3.218
Mof_P 	P 	0.14088	0.0744	0.22681	0.732
Mof_P 	P 	0.41307	0.57001	0.19047	0.772
Mof_P 	P 	0.66979	0.0974	0.04984	0.691
Mof_F 	F 	0.0706	0.5862	0.1685	-0.762
Mof_O 	O 	0.1559	0.2667	0.27693	-0.687
Mof_O 	O 	0.0182	0.0729	0.1815	-0.656
Mof_O 	O 	0.2341	0.0669	0.1687	-0.714
Mof_O 	O 	0.1545	0.8907	0.2828	-0.686
Mof_O 	O 	0.4122	0.7541	0.13562	-0.658
Mof_O 	O 	0.5254	0.5644	0.2466	-0.754
Mof_O 	O 	0.3083	0.5833	0.2379	-0.774
Mof_O 	O 	0.4035	0.3792	0.1381	-0.705
Mof_O 	O 	0.5635	0.0738	0.0941	-0.724
Mof_O 	O 	0.668	0.9526	0.9803	-0.64
Mof_O 	O 	0.7824	0.0696	0.1036	-0.639
Mof_O 	O 	0.6739	0.3207	0.0181	-0.224
Mof_Zr	Zr	0.59788	0.57149	0.36202	3.212
Mof_Zr	Zr	0.85248	0.07948	0.22238	3.218
Mof_P 	P 	0.85912	0.5744	0.27319	0.734
Mof_P 	P 	0.58693	0.07001	0.30953	0.768
Mof_P 	P 	0.33021	0.5974	0.45016	0.694
Mof_F 	F 	0.9294	0.0862	0.3315	-0.767
Mof_O 	O 	0.8441	0.7667	0.22307	-0.683
Mof_O 	O 	0.9818	0.5729	0.3185	-0.657
Mof_O 	O 	0.7659	0.5669	0.3313	-0.713
Mof_O 	O 	0.8455	0.3907	0.2172	-0.689
Mof_O 	O 	0.5878	0.2541	0.36438	-0.661
Mof_O 	O 	0.4746	0.0644	0.2534	-0.757
Mof_O 	O 	0.6917	0.0833	0.2621	-0.777
Mof_O 	O 	0.5965	0.8792	0.3619	-0.7
Mof_O 	O 	0.4365	0.5738	0.4059	-0.723
Mof_O 	O 	0.332	0.4526	0.5197	-0.641
Mof_O 	O 	0.2176	0.5696	0.3964	-0.636
Mof_O 	O 	0.3261	0.8207	0.4819	-0.224
Mof_Zr	Zr	0.59788	0.92851	0.86202	3.212
Mof_Zr	Zr	0.85248	0.42052	0.72238	3.219
Mof_P 	P 	0.85912	0.9256	0.77319	0.732
Mof_P 	P 	0.58693	0.42999	0.80953	0.772
Mof_P 	P 	0.33021	0.9026	0.95016	0.691
Mof_F 	F 	0.9294	0.4138	0.8315	-0.762
Mof_O 	O 	0.8441	0.7333	0.72307	-0.687
Mof_O 	O 	0.9818	0.9271	0.8185	-0.656
Mof_O 	O 	0.7659	0.9331	0.8313	-0.714
Mof_O 	O 	0.8455	0.1093	0.7172	-0.686
Mof_O 	O 	0.5878	0.2459	0.86438	-0.658
Mof_O 	O 	0.4746	0.4356	0.7534	-0.754
Mof_O 	O 	0.6917	0.4167	0.7621	-0.774
Mof_O 	O 	0.5965	0.6208	0.8619	-0.705
Mof_O 	O 	0.4365	0.9262	0.9059	-0.724
Mof_O 	O 	0.332	0.0474	0.0197	-0.64
Mof_O 	O 	0.2176	0.9304	0.8964	-0.639
Mof_O 	O 	0.3261	0.6793	0.9819	-0.224
Mof_Zr	Zr	0.40212	0.42851	0.63798	3.212
Mof_Zr	Zr	0.14752	0.92052	0.77762	3.218
Mof_P 	P 	0.14088	0.4256	0.72681	0.734
Mof_P 	P 	0.41307	0.92999	0.69047	0.768
Mof_P 	P 	0.66979	0.4026	0.54984	0.694
Mof_F 	F 	0.0706	0.9138	0.6685	-0.767
Mof_O 	O 	0.1559	0.2333	0.77693	-0.683
Mof_O 	O 	0.0182	0.4271	0.6815	-0.657
Mof_O 	O 	0.2341	0.4331	0.6687	-0.713
Mof_O 	O 	0.1545	0.6093	0.7828	-0.689
Mof_O 	O 	0.4122	0.7459	0.63562	-0.661
Mof_O 	O 	0.5254	0.9356	0.7466	-0.757
Mof_O 	O 	0.3083	0.9167	0.7379	-0.777
Mof_O 	O 	0.4035	0.1208	0.6381	-0.7
Mof_O 	O 	0.5635	0.4262	0.5941	-0.723
Mof_O 	O 	0.668	0.5474	0.4803	-0.641
Mof_O 	O 	0.7824	0.4304	0.6036	-0.636
Mof_O 	O 	0.6739	0.1793	0.5181	-0.224
_end
