data_functionalizedCrystal
_audit_creation_method	'EQeq! by Chris Wilmer'
_symmetry_space_group_name_H-M	'P1'
_symmetry_Int_Tables_number	1
_symmetry_cell_setting	triclinic
loop_
_symmetry_equiv_pos_as_xyz
  x,y,z
_cell_length_a	11.112
_cell_length_b	11.112
_cell_length_c	10.04
_cell_angle_alpha	90
_cell_angle_beta	90
_cell_angle_gamma	120
loop_
_atom_site_label
_atom_site_type_symbol
_atom_site_fract_x
_atom_site_fract_y
_atom_site_fract_z
_atom_site_charge
Mof_V 	V 	0.49208	0.06352	0.02786	1.796
Mof_P 	P 	0.22218	0.81621	0.8985	0.55
Mof_K 	K 	0.77202	0.30682	0.75267	2.521
Mof_O 	O 	0.2907	0.9518	0.9773	-0.647
Mof_O 	O 	0.4683	0.1051	0.1733	-1.092
Mof_O 	O 	0.1922	0.6944	0.9899	-0.902
Mof_O 	O 	0.3144	0.8177	0.7868	-0.837
Mof_O 	O 	0.5047	0.9242	0.0441	-1.084
Mof_C 	C 	0.0643	0.796	0.8353	-0.626
Mof_H 	H 	0.01	0.806	0.888	0.137
Mof_H 	H 	0.071	0.851	0.759	0.121
Mof_H 	H 	0.022	0.72	0.777	0.069
Mof_V 	V 	0.93648	0.42856	0.36119	1.795
Mof_P 	P 	0.18379	0.40597	0.23183	0.551
Mof_K 	K 	0.69318	0.4652	0.086	2.501
Mof_O 	O 	0.0482	0.3389	0.31063	-0.641
Mof_O 	O 	0.8949	0.3632	0.50663	-1.093
Mof_O 	O 	0.3056	0.4978	0.32323	-0.9
Mof_O 	O 	0.1823	0.4967	0.12013	-0.834
Mof_O 	O 	0.0758	0.5805	0.37743	-1.088
Mof_C 	C 	0.204	0.2683	0.16863	-0.635
Mof_H 	H 	0.194	0.204	0.22133	0.143
Mof_H 	H 	0.149	0.22	0.09233	0.126
Mof_H 	H 	0.28	0.302	0.11033	0.073
Mof_V 	V 	0.57144	0.50792	0.69453	1.796
Mof_P 	P 	0.59403	0.77782	0.56517	0.55
Mof_K 	K 	0.5348	0.22798	0.41934	2.504
Mof_O 	O 	0.6611	0.7093	0.64397	-0.643
Mof_O 	O 	0.6368	0.5317	0.83997	-1.09
Mof_O 	O 	0.5022	0.8078	0.65657	-0.9
Mof_O 	O 	0.5033	0.6856	0.45347	-0.836
Mof_O 	O 	0.4195	0.4953	0.71077	-1.087
Mof_C 	C 	0.7317	0.9357	0.50197	-0.631
Mof_H 	H 	0.796	0.99	0.55467	0.14
Mof_H 	H 	0.78	0.929	0.42567	0.123
Mof_H 	H 	0.698	0.978	0.44367	0.071
Mof_V 	V 	0.06352	0.49208	0.97214	1.795
Mof_P 	P 	0.81621	0.22218	0.1015	0.549
Mof_K 	K 	0.30682	0.77202	0.24733	2.521
Mof_O 	O 	0.9518	0.2907	0.0227	-0.647
Mof_O 	O 	0.1051	0.4683	0.8267	-1.092
Mof_O 	O 	0.6944	0.1922	0.0101	-0.902
Mof_O 	O 	0.8177	0.3144	0.2132	-0.837
Mof_O 	O 	0.9242	0.5047	0.9559	-1.084
Mof_C 	C 	0.796	0.0643	0.1647	-0.626
Mof_H 	H 	0.806	0.01	0.112	0.137
Mof_H 	H 	0.851	0.071	0.241	0.121
Mof_H 	H 	0.72	0.022	0.223	0.069
Mof_V 	V 	0.42856	0.93648	0.63881	1.795
Mof_P 	P 	0.40597	0.18379	0.76817	0.551
Mof_K 	K 	0.4652	0.69318	0.914	2.501
Mof_O 	O 	0.3389	0.0482	0.68937	-0.641
Mof_O 	O 	0.3632	0.8949	0.49337	-1.093
Mof_O 	O 	0.4978	0.3056	0.67677	-0.9
Mof_O 	O 	0.4967	0.1823	0.87987	-0.834
Mof_O 	O 	0.5805	0.0758	0.62257	-1.088
Mof_C 	C 	0.2683	0.204	0.83137	-0.635
Mof_H 	H 	0.204	0.194	0.77867	0.143
Mof_H 	H 	0.22	0.149	0.90767	0.126
Mof_H 	H 	0.302	0.28	0.88967	0.073
Mof_V 	V 	0.50792	0.57144	0.30547	1.796
Mof_P 	P 	0.77782	0.59403	0.43483	0.55
Mof_K 	K 	0.22798	0.5348	0.58066	2.504
Mof_O 	O 	0.7093	0.6611	0.35603	-0.643
Mof_O 	O 	0.5317	0.6368	0.16003	-1.09
Mof_O 	O 	0.8078	0.5022	0.34343	-0.9
Mof_O 	O 	0.6856	0.5033	0.54653	-0.836
Mof_O 	O 	0.4953	0.4195	0.28923	-1.087
Mof_C 	C 	0.9357	0.7317	0.49803	-0.631
Mof_H 	H 	0.99	0.796	0.44533	0.14
Mof_H 	H 	0.929	0.78	0.57433	0.123
Mof_H 	H 	0.978	0.698	0.55633	0.071
_end
