data_functionalizedCrystal
_audit_creation_method	'EQeq! by Chris Wilmer'
_symmetry_space_group_name_H-M	'P1'
_symmetry_Int_Tables_number	1
_symmetry_cell_setting	triclinic
loop_
_symmetry_equiv_pos_as_xyz
  x,y,z
_cell_length_a	18.6107
_cell_length_b	18.6107
_cell_length_c	4.8022
_cell_angle_alpha	90
_cell_angle_beta	90
_cell_angle_gamma	90
loop_
_atom_site_label
_atom_site_type_symbol
_atom_site_fract_x
_atom_site_fract_y
_atom_site_fract_z
_atom_site_charge
Mof_C 	C 	0.98349	0.69415	0.399	-0.093
Mof_H 	H 	0.9791	0.6792	0.594	0.111
Mof_C 	C 	0.96973	0.63145	0.2074	0.396
Mof_O 	O 	0.92162	0.63191	0.0267	-0.344
Mof_O 	O 	0.01337	0.57973	0.2436	-0.494
Mof_C 	C 	0.48349	0.19415	0.899	-0.036
Mof_H 	H 	0.4791	0.1792	0.094	0.037
Mof_C 	C 	0.46973	0.13145	0.7074	0.315
Mof_O 	O 	0.42162	0.13191	0.5267	-0.324
Mof_O 	O 	0.51337	0.07973	0.7436	-0.435
Mof_C 	C 	0.51651	0.30585	0.899	-0.033
Mof_H 	H 	0.5209	0.3208	0.094	0.039
Mof_C 	C 	0.53027	0.36855	0.7074	0.313
Mof_O 	O 	0.57838	0.36809	0.5267	-0.31
Mof_O 	O 	0.48663	0.42027	0.7436	-0.415
Mof_C 	C 	0.01651	0.80585	0.399	-0.127
Mof_H 	H 	0.0209	0.8208	0.594	0.092
Mof_C 	C 	0.03027	0.86855	0.2074	0.264
Mof_O 	O 	0.07838	0.86809	0.0267	-0.308
Mof_O 	O 	0.98663	0.92027	0.2436	-0.329
Mof_C 	C 	0.05585	0.23349	0.649	-0.153
Mof_H 	H 	0.0708	0.2291	0.844	0.104
Mof_C 	C 	0.11855	0.21973	0.4574	0.341
Mof_O 	O 	0.11809	0.17162	0.2767	-0.357
Mof_O 	O 	0.17027	0.26337	0.4936	-0.436
Mof_C 	C 	0.55585	0.73349	0.149	-0.102
Mof_H 	H 	0.5708	0.7291	0.344	0.083
Mof_C 	C 	0.61855	0.71973	0.9574	0.348
Mof_O 	O 	0.61809	0.67162	0.7767	-0.314
Mof_O 	O 	0.67027	0.76337	0.9936	-0.413
Mof_C 	C 	0.44415	0.76651	0.149	-0.102
Mof_H 	H 	0.4292	0.7709	0.344	0.084
Mof_C 	C 	0.38145	0.78027	0.9574	0.349
Mof_O 	O 	0.38191	0.82838	0.7767	-0.302
Mof_O 	O 	0.32973	0.73663	0.9936	-0.417
Mof_C 	C 	0.94415	0.26651	0.649	-0.079
Mof_H 	H 	0.9292	0.2709	0.844	0.101
Mof_C 	C 	0.88145	0.28027	0.4574	0.326
Mof_O 	O 	0.88191	0.32838	0.2767	-0.322
Mof_O 	O 	0.82973	0.23663	0.4936	-0.434
Mof_C 	C 	0.01651	0.30585	0.601	-0.087
Mof_H 	H 	0.0209	0.3208	0.406	0.052
Mof_C 	C 	0.03027	0.36855	0.7926	0.248
Mof_O 	O 	0.07838	0.36809	0.9733	-0.275
Mof_O 	O 	0.98663	0.42027	0.7564	-0.342
Mof_C 	C 	0.51651	0.80585	0.101	-0.138
Mof_H 	H 	0.5209	0.8208	0.906	0.121
Mof_C 	C 	0.53027	0.86855	0.2926	0.328
Mof_O 	O 	0.57838	0.86809	0.4733	-0.299
Mof_O 	O 	0.48663	0.92027	0.2564	-0.401
Mof_C 	C 	0.48349	0.69415	0.101	-0.144
Mof_H 	H 	0.4791	0.6792	0.906	0.118
Mof_C 	C 	0.46973	0.63145	0.2926	0.333
Mof_O 	O 	0.42162	0.63191	0.4733	-0.321
Mof_O 	O 	0.51337	0.57973	0.2564	-0.444
Mof_C 	C 	0.98349	0.19415	0.601	-0.052
Mof_H 	H 	0.9791	0.1792	0.406	0.072
Mof_C 	C 	0.96973	0.13145	0.7926	0.376
Mof_O 	O 	0.92162	0.13191	0.9733	-0.303
Mof_O 	O 	0.01337	0.07973	0.7564	-0.483
Mof_C 	C 	0.94415	0.76651	0.351	-0.037
Mof_H 	H 	0.9292	0.7709	0.156	0.065
Mof_C 	C 	0.88145	0.78027	0.5426	0.307
Mof_O 	O 	0.88191	0.82838	0.7233	-0.272
Mof_O 	O 	0.82973	0.73663	0.5064	-0.423
Mof_C 	C 	0.44415	0.26651	0.851	-0.08
Mof_H 	H 	0.4292	0.2709	0.656	0.081
Mof_C 	C 	0.38145	0.28027	0.0426	0.292
Mof_O 	O 	0.38191	0.32838	0.2233	-0.317
Mof_O 	O 	0.32973	0.23663	0.0064	-0.449
Mof_C 	C 	0.55585	0.23349	0.851	-0.08
Mof_H 	H 	0.5708	0.2291	0.656	0.08
Mof_C 	C 	0.61855	0.21973	0.0426	0.291
Mof_O 	O 	0.61809	0.17162	0.2233	-0.326
Mof_O 	O 	0.67027	0.26337	0.0064	-0.445
Mof_C 	C 	0.05585	0.73349	0.351	-0.111
Mof_H 	H 	0.0708	0.7291	0.156	0.067
Mof_C 	C 	0.11855	0.71973	0.5426	0.322
Mof_O 	O 	0.11809	0.67162	0.7233	-0.31
Mof_O 	O 	0.17027	0.76337	0.5064	-0.424
Mof_Cu	Cu	-0	0.5	-0	0.825
Mof_Cu	Cu	0.5	0	0.5	0.831
Mof_Cu	Cu	0.5	0.5	0.5	0.868
Mof_Cu	Cu	-0	0	-0	0.788
Mof_Cu	Cu	0.25	0.25	0.25	0.861
Mof_Cu	Cu	0.75	0.75	0.75	0.876
Mof_Cu	Cu	0.25	0.75	0.75	0.875
Mof_Cu	Cu	0.75	0.25	0.25	0.862
_end
