data_functionalizedCrystal
_audit_creation_method	'EQeq! by Chris Wilmer'
_symmetry_space_group_name_H-M	'P1'
_symmetry_Int_Tables_number	1
_symmetry_cell_setting	triclinic
loop_
_symmetry_equiv_pos_as_xyz
  x,y,z
_cell_length_a	13.3169
_cell_length_b	13.3169
_cell_length_c	14.297
_cell_angle_alpha	90
_cell_angle_beta	90
_cell_angle_gamma	120
loop_
_atom_site_label
_atom_site_type_symbol
_atom_site_fract_x
_atom_site_fract_y
_atom_site_fract_z
_atom_site_charge
Mof_Er	Er	0.33333	0.66666	0.84568	2.133
Mof_Er	Er	0.33333	0.66666	0.34568	2.131
Mof_Er	Er	0.66667	0.33334	0.18054	1.972
Mof_Er	Er	0.66667	0.33334	0.68054	1.974
Mof_Cu	Cu	0.0005	0.5002	0.0133	0.888
Mof_Cu	Cu	0.4997	0.9995	0.0133	0.888
Mof_Cu	Cu	0.4998	0.5003	0.0133	0.923
Mof_Cu	Cu	0.4997	0.5002	0.5133	0.931
Mof_Cu	Cu	0.4998	0.9995	0.5133	0.897
Mof_Cu	Cu	0.0005	0.5003	0.5133	0.897
Mof_H 	H 	0.0188	0.6691	0.9357	0.02
Mof_H 	H 	0.9736	0.3239	0.0934	0.172
Mof_H 	H 	0.922	0.6092	0.8229	0.154
Mof_H 	H 	0.8101	0.5484	0.8854	0.15
Mof_H 	H 	0.0975	0.4069	0.2115	0.164
Mof_H 	H 	0.2009	0.471	0.1416	0.188
Mof_H 	H 	0.9581	0.7013	0.0619	0.192
Mof_H 	H 	0.8583	0.6754	0.9915	0.191
Mof_H 	H 	0.0382	0.2905	0.9591	0.114
Mof_H 	H 	0.1353	0.3121	0.0324	0.113
Mof_H 	H 	0.6503	0.9812	0.9357	0.024
Mof_H 	H 	0.3503	0.0264	0.0934	0.167
Mof_H 	H 	0.6872	0.078	0.8229	0.162
Mof_H 	H 	0.7383	0.1899	0.8854	0.157
Mof_H 	H 	0.3094	0.9025	0.2115	0.157
Mof_H 	H 	0.2701	0.7991	0.1416	0.183
Mof_H 	H 	0.7432	0.0419	0.0619	0.207
Mof_H 	H 	0.8171	0.1417	0.9915	0.209
Mof_H 	H 	0.2523	0.9618	0.9591	0.1
Mof_H 	H 	0.1768	0.8647	0.0324	0.091
Mof_H 	H 	0.3309	0.3497	0.9357	0.09
Mof_H 	H 	0.6761	0.6497	0.0934	0.1
Mof_H 	H 	0.3908	0.3128	0.8229	0.131
Mof_H 	H 	0.4516	0.2617	0.8854	0.149
Mof_H 	H 	0.5931	0.6906	0.2115	0.182
Mof_H 	H 	0.529	0.7299	0.1416	0.186
Mof_H 	H 	0.2987	0.2568	0.0619	0.165
Mof_H 	H 	0.3246	0.1829	0.9915	0.191
Mof_H 	H 	0.7095	0.7477	0.9591	0.138
Mof_H 	H 	0.6879	0.8232	0.0324	0.113
Mof_H 	H 	0.6503	0.6691	0.4357	0.089
Mof_H 	H 	0.3503	0.3239	0.5934	0.105
Mof_H 	H 	0.6872	0.6092	0.3229	0.129
Mof_H 	H 	0.7383	0.5484	0.3854	0.145
Mof_H 	H 	0.3094	0.4069	0.7115	0.181
Mof_H 	H 	0.2701	0.471	0.6416	0.188
Mof_H 	H 	0.7432	0.7013	0.5619	0.149
Mof_H 	H 	0.8171	0.6754	0.4915	0.156
Mof_H 	H 	0.2523	0.2905	0.4591	0.105
Mof_H 	H 	0.1768	0.3121	0.5324	0.099
Mof_H 	H 	0.3309	0.9812	0.4357	0.016
Mof_H 	H 	0.6761	0.0264	0.5934	0.175
Mof_H 	H 	0.3908	0.078	0.3229	0.153
Mof_H 	H 	0.4516	0.1899	0.3854	0.146
Mof_H 	H 	0.5931	0.9025	0.7115	0.164
Mof_H 	H 	0.529	0.7991	0.6416	0.189
Mof_H 	H 	0.2987	0.0419	0.5619	0.177
Mof_H 	H 	0.3246	0.1417	0.4915	0.157
Mof_H 	H 	0.7095	0.9618	0.4591	0.079
Mof_H 	H 	0.6879	0.8647	0.5324	0.099
Mof_H 	H 	0.0188	0.3497	0.4357	0.02
Mof_H 	H 	0.9736	0.6497	0.5934	0.171
Mof_H 	H 	0.922	0.3128	0.3229	0.162
Mof_H 	H 	0.8101	0.2617	0.3854	0.153
Mof_H 	H 	0.0975	0.6906	0.7115	0.157
Mof_H 	H 	0.2009	0.7299	0.6416	0.184
Mof_H 	H 	0.9581	0.2568	0.5619	0.193
Mof_H 	H 	0.8583	0.1829	0.4915	0.179
Mof_H 	H 	0.0382	0.7477	0.4591	0.063
Mof_H 	H 	0.1353	0.8232	0.5324	0.077
Mof_C 	C 	0.1297	0.564	0.1785	0.584
Mof_C 	C 	0.8743	0.4362	0.8539	0.444
Mof_C 	C 	0.8863	0.5575	0.8757	-0.331
Mof_C 	C 	0.1235	0.4559	0.1564	-0.479
Mof_C 	C 	0.8977	0.641	0.024	-0.469
Mof_C 	C 	0.0956	0.347	0.0013	-0.296
Mof_C 	C 	0.1872	0.4621	0.9445	0.356
Mof_C 	C 	0.8148	0.552	0.0863	0.521
Mof_C 	C 	0.4343	0.8703	0.1785	0.582
Mof_C 	C 	0.5619	0.1257	0.8539	0.446
Mof_C 	C 	0.6712	0.1137	0.8757	-0.336
Mof_C 	C 	0.3324	0.8765	0.1564	-0.475
Mof_C 	C 	0.7433	0.1023	0.024	-0.478
Mof_C 	C 	0.2514	0.9044	0.0013	-0.288
Mof_C 	C 	0.2749	0.8128	0.9445	0.353
Mof_C 	C 	0.7372	0.1852	0.0863	0.526
Mof_C 	C 	0.436	0.5657	0.1785	0.591
Mof_C 	C 	0.5638	0.4381	0.8539	0.436
Mof_C 	C 	0.4425	0.3288	0.8757	-0.319
Mof_C 	C 	0.5441	0.6676	0.1564	-0.483
Mof_C 	C 	0.359	0.2567	0.024	-0.457
Mof_C 	C 	0.653	0.7486	0.0013	-0.306
Mof_C 	C 	0.5379	0.7251	0.9445	0.364
Mof_C 	C 	0.448	0.2628	0.0863	0.511
Mof_C 	C 	0.4343	0.564	0.6785	0.591
Mof_C 	C 	0.5619	0.4362	0.3539	0.433
Mof_C 	C 	0.6712	0.5575	0.3757	-0.315
Mof_C 	C 	0.3324	0.4559	0.6564	-0.481
Mof_C 	C 	0.7433	0.641	0.524	-0.384
Mof_C 	C 	0.2514	0.347	0.5013	-0.236
Mof_C 	C 	0.2749	0.4621	0.4445	0.334
Mof_C 	C 	0.7372	0.552	0.5863	0.489
Mof_C 	C 	0.436	0.8703	0.6785	0.585
Mof_C 	C 	0.5638	0.1257	0.3539	0.441
Mof_C 	C 	0.4425	0.1137	0.3757	-0.327
Mof_C 	C 	0.5441	0.8765	0.6564	-0.477
Mof_C 	C 	0.359	0.1023	0.524	-0.398
Mof_C 	C 	0.653	0.9044	0.5013	-0.226
Mof_C 	C 	0.5379	0.8128	0.4445	0.325
Mof_C 	C 	0.448	0.1852	0.5863	0.5
Mof_C 	C 	0.1297	0.5657	0.6785	0.583
Mof_C 	C 	0.8743	0.4381	0.3539	0.444
Mof_C 	C 	0.8863	0.3288	0.3757	-0.333
Mof_C 	C 	0.1235	0.6676	0.6564	-0.473
Mof_C 	C 	0.8977	0.2567	0.524	-0.413
Mof_C 	C 	0.0956	0.7486	0.5013	-0.213
Mof_C 	C 	0.1872	0.7251	0.4445	0.32
Mof_C 	C 	0.8148	0.2628	0.5863	0.507
Mof_N 	N 	0.9528	0.6044	0.9542	-0.053
Mof_N 	N 	0.0393	0.3861	0.0712	-0.223
Mof_N 	N 	0.6516	0.0472	0.9542	-0.051
Mof_N 	N 	0.3468	0.9607	0.0712	-0.225
Mof_N 	N 	0.3956	0.3484	0.9542	-0.121
Mof_N 	N 	0.6139	0.6532	0.0712	-0.161
Mof_N 	N 	0.6516	0.6044	0.4542	-0.141
Mof_N 	N 	0.3468	0.3861	0.5712	-0.167
Mof_N 	N 	0.3956	0.0472	0.4542	-0.07
Mof_N 	N 	0.6139	0.9607	0.5712	-0.228
Mof_N 	N 	0.9528	0.3484	0.4542	-0.067
Mof_N 	N 	0.0393	0.6532	0.5712	-0.231
Mof_O 	O 	0.1906	0.5558	0.955	-0.51
Mof_O 	O 	0.0761	0.5983	0.1236	-0.477
Mof_O 	O 	0.8113	0.4559	0.0746	-0.529
Mof_O 	O 	0.9282	0.4024	0.9061	-0.373
Mof_O 	O 	0.2524	0.4462	0.8843	-0.374
Mof_O 	O 	0.7589	0.568	0.1411	-0.437
Mof_O 	O 	0.8148	0.3769	0.7844	-0.475
Mof_O 	O 	0.1853	0.6159	0.2454	-0.595
Mof_O 	O 	0.3652	0.8094	0.955	-0.51
Mof_O 	O 	0.5222	0.9239	0.1236	-0.474
Mof_O 	O 	0.6446	0.1887	0.0746	-0.529
Mof_O 	O 	0.4742	0.0718	0.9061	-0.376
Mof_O 	O 	0.1938	0.7476	0.8843	-0.383
Mof_O 	O 	0.8091	0.2411	0.1411	-0.427
Mof_O 	O 	0.5621	0.1852	0.7844	-0.477
Mof_O 	O 	0.4306	0.8147	0.2454	-0.593
Mof_O 	O 	0.4442	0.6348	0.955	-0.507
Mof_O 	O 	0.4017	0.4778	0.1236	-0.451
Mof_O 	O 	0.5441	0.3554	0.0746	-0.539
Mof_O 	O 	0.5976	0.5258	0.9061	-0.412
Mof_O 	O 	0.5538	0.8062	0.8843	-0.379
Mof_O 	O 	0.432	0.1909	0.1411	-0.43
Mof_O 	O 	0.6231	0.4379	0.7844	-0.484
Mof_O 	O 	0.3841	0.5694	0.2454	-0.587
Mof_O 	O 	0.3652	0.5558	0.455	-0.508
Mof_O 	O 	0.5222	0.5983	0.6236	-0.447
Mof_O 	O 	0.6446	0.4559	0.5746	-0.528
Mof_O 	O 	0.4742	0.4024	0.4061	-0.418
Mof_O 	O 	0.1938	0.4462	0.3843	-0.375
Mof_O 	O 	0.8091	0.568	0.6411	-0.421
Mof_O 	O 	0.5621	0.3769	0.2844	-0.483
Mof_O 	O 	0.4306	0.6159	0.7454	-0.586
Mof_O 	O 	0.4442	0.8094	0.455	-0.511
Mof_O 	O 	0.4017	0.9239	0.6236	-0.473
Mof_O 	O 	0.5441	0.1887	0.5746	-0.519
Mof_O 	O 	0.5976	0.0718	0.4061	-0.379
Mof_O 	O 	0.5538	0.7476	0.3843	-0.37
Mof_O 	O 	0.432	0.2411	0.6411	-0.428
Mof_O 	O 	0.6231	0.1852	0.2844	-0.474
Mof_O 	O 	0.3841	0.8147	0.7454	-0.594
Mof_O 	O 	0.1906	0.6348	0.455	-0.51
Mof_O 	O 	0.0761	0.4778	0.6236	-0.47
Mof_O 	O 	0.8113	0.3554	0.5746	-0.52
Mof_O 	O 	0.9282	0.5258	0.4061	-0.381
Mof_O 	O 	0.2524	0.8062	0.3843	-0.379
Mof_O 	O 	0.7589	0.1909	0.6411	-0.418
Mof_O 	O 	0.8148	0.4379	0.2844	-0.476
Mof_O 	O 	0.1853	0.5694	0.7454	-0.593
_end
