data_functionalizedCrystal
_audit_creation_method	'EQeq! by Chris Wilmer'
_symmetry_space_group_name_H-M	'P1'
_symmetry_Int_Tables_number	1
_symmetry_cell_setting	triclinic
loop_
_symmetry_equiv_pos_as_xyz
  x,y,z
_cell_length_a	27.512
_cell_length_b	27.512
_cell_length_c	27.512
_cell_angle_alpha	90
_cell_angle_beta	90
_cell_angle_gamma	90
loop_
_atom_site_label
_atom_site_type_symbol
_atom_site_fract_x
_atom_site_fract_y
_atom_site_fract_z
_atom_site_charge
Mof_Cu	Cu	0.5	9.69782e-33	0.79776	0.905
Mof_Cu	Cu	0.5	2.42445e-33	0.20224	0.905
Mof_Cu	Cu	0.79776	0.5	-0	0.905
Mof_Cu	Cu	0.20224	0.5	-0	0.906
Mof_Cu	Cu	-2.97421e-33	0.79776	0.5	0.906
Mof_Cu	Cu	-7.82312e-33	0.20224	0.5	0.906
Mof_Cu	Cu	0.5	4.84891e-33	0.70224	0.907
Mof_Cu	Cu	0.5	2.42445e-33	0.29776	0.907
Mof_Cu	Cu	1.8747e-33	0.29776	0.5	0.907
Mof_Cu	Cu	-2.97421e-33	0.70224	0.5	0.907
Mof_Cu	Cu	0.29776	0.5	-0	0.907
Mof_Cu	Cu	0.70224	0.5	-0	0.907
Mof_H 	H 	0.6089	0.8898	0.8235	0.043
Mof_H 	H 	0.6684	0.8303	0.8224	0.071
Mof_H 	H 	0.3911	0.1102	0.8235	0.037
Mof_H 	H 	0.3316	0.1697	0.8224	0.069
Mof_H 	H 	0.3911	0.8898	0.1765	0.039
Mof_H 	H 	0.3316	0.8303	0.1776	0.066
Mof_H 	H 	0.6089	0.1102	0.1765	0.034
Mof_H 	H 	0.6684	0.1697	0.1776	0.066
Mof_H 	H 	0.8235	0.6089	0.8898	0.043
Mof_H 	H 	0.8224	0.6684	0.8303	0.071
Mof_H 	H 	0.8235	0.3911	0.1102	0.037
Mof_H 	H 	0.8224	0.3316	0.1697	0.069
Mof_H 	H 	0.1765	0.3911	0.8898	0.039
Mof_H 	H 	0.1776	0.3316	0.8303	0.066
Mof_H 	H 	0.1765	0.6089	0.1102	0.034
Mof_H 	H 	0.1776	0.6684	0.1697	0.066
Mof_H 	H 	0.8898	0.8235	0.6089	0.043
Mof_H 	H 	0.8303	0.8224	0.6684	0.071
Mof_H 	H 	0.1102	0.8235	0.3911	0.037
Mof_H 	H 	0.1697	0.8224	0.3316	0.069
Mof_H 	H 	0.8898	0.1765	0.3911	0.039
Mof_H 	H 	0.8303	0.1776	0.3316	0.066
Mof_H 	H 	0.1102	0.1765	0.6089	0.034
Mof_H 	H 	0.1697	0.1776	0.6684	0.066
Mof_H 	H 	0.3898	0.1089	0.6765	0.036
Mof_H 	H 	0.3303	0.1684	0.6776	0.067
Mof_H 	H 	0.6102	0.8911	0.6765	0.043
Mof_H 	H 	0.6697	0.8316	0.6776	0.069
Mof_H 	H 	0.3898	0.8911	0.3235	0.042
Mof_H 	H 	0.3303	0.8316	0.3224	0.068
Mof_H 	H 	0.6102	0.1089	0.3235	0.036
Mof_H 	H 	0.6697	0.1684	0.3224	0.068
Mof_H 	H 	0.1089	0.3235	0.6102	0.036
Mof_H 	H 	0.1684	0.3224	0.6697	0.068
Mof_H 	H 	0.8911	0.3235	0.3898	0.042
Mof_H 	H 	0.8316	0.3224	0.3303	0.068
Mof_H 	H 	0.8911	0.6765	0.6102	0.043
Mof_H 	H 	0.8316	0.6776	0.6697	0.069
Mof_H 	H 	0.1089	0.6765	0.3898	0.036
Mof_H 	H 	0.1684	0.6776	0.3303	0.067
Mof_H 	H 	0.3235	0.3898	0.8911	0.042
Mof_H 	H 	0.3224	0.3303	0.8316	0.068
Mof_H 	H 	0.3235	0.6102	0.1089	0.036
Mof_H 	H 	0.3224	0.6697	0.1684	0.068
Mof_H 	H 	0.6765	0.3898	0.1089	0.036
Mof_H 	H 	0.6776	0.3303	0.1684	0.067
Mof_H 	H 	0.6765	0.6102	0.8911	0.043
Mof_H 	H 	0.6776	0.6697	0.8316	0.069
Mof_H 	H 	0.3911	0.1102	0.1765	0.033
Mof_H 	H 	0.3316	0.1697	0.1776	0.065
Mof_H 	H 	0.6089	0.8898	0.1765	0.039
Mof_H 	H 	0.6684	0.8303	0.1776	0.067
Mof_H 	H 	0.6089	0.1102	0.8235	0.037
Mof_H 	H 	0.6684	0.1697	0.8224	0.07
Mof_H 	H 	0.3911	0.8898	0.8235	0.042
Mof_H 	H 	0.3316	0.8303	0.8224	0.07
Mof_H 	H 	0.1765	0.3911	0.1102	0.033
Mof_H 	H 	0.1776	0.3316	0.1697	0.065
Mof_H 	H 	0.1765	0.6089	0.8898	0.039
Mof_H 	H 	0.1776	0.6684	0.8303	0.067
Mof_H 	H 	0.8235	0.6089	0.1102	0.037
Mof_H 	H 	0.8224	0.6684	0.1697	0.07
Mof_H 	H 	0.8235	0.3911	0.8898	0.042
Mof_H 	H 	0.8224	0.3316	0.8303	0.07
Mof_H 	H 	0.1102	0.1765	0.3911	0.033
Mof_H 	H 	0.1697	0.1776	0.3316	0.065
Mof_H 	H 	0.8898	0.1765	0.6089	0.039
Mof_H 	H 	0.8303	0.1776	0.6684	0.067
Mof_H 	H 	0.1102	0.8235	0.6089	0.037
Mof_H 	H 	0.1697	0.8224	0.6684	0.07
Mof_H 	H 	0.8898	0.8235	0.3911	0.042
Mof_H 	H 	0.8303	0.8224	0.3316	0.07
Mof_H 	H 	0.6102	0.8911	0.3235	0.042
Mof_H 	H 	0.6697	0.8316	0.3224	0.069
Mof_H 	H 	0.3898	0.1089	0.3235	0.036
Mof_H 	H 	0.3303	0.1684	0.3224	0.067
Mof_H 	H 	0.6102	0.1089	0.6765	0.036
Mof_H 	H 	0.6697	0.1684	0.6776	0.068
Mof_H 	H 	0.3898	0.8911	0.6765	0.042
Mof_H 	H 	0.3303	0.8316	0.6776	0.069
Mof_H 	H 	0.8911	0.6765	0.3898	0.042
Mof_H 	H 	0.8316	0.6776	0.3303	0.069
Mof_H 	H 	0.1089	0.6765	0.6102	0.036
Mof_H 	H 	0.1684	0.6776	0.6697	0.068
Mof_H 	H 	0.1089	0.3235	0.3898	0.036
Mof_H 	H 	0.1684	0.3224	0.3303	0.067
Mof_H 	H 	0.8911	0.3235	0.6102	0.042
Mof_H 	H 	0.8316	0.3224	0.6697	0.069
Mof_H 	H 	0.6765	0.6102	0.1089	0.036
Mof_H 	H 	0.6776	0.6697	0.1684	0.068
Mof_H 	H 	0.6765	0.3898	0.8911	0.042
Mof_H 	H 	0.6776	0.3303	0.8316	0.069
Mof_H 	H 	0.3235	0.6102	0.8911	0.042
Mof_H 	H 	0.3224	0.6697	0.8316	0.069
Mof_H 	H 	0.3235	0.3898	0.1089	0.036
Mof_H 	H 	0.3224	0.3303	0.1684	0.067
Mof_H 	H 	0.6896	0.75	0.8104	0.071
Mof_H 	H 	0.3104	0.25	0.8104	0.07
Mof_H 	H 	0.3104	0.75	0.1896	0.068
Mof_H 	H 	0.6896	0.25	0.1896	0.067
Mof_H 	H 	0.8104	0.6896	0.75	0.071
Mof_H 	H 	0.8104	0.3104	0.25	0.07
Mof_H 	H 	0.1896	0.3104	0.75	0.068
Mof_H 	H 	0.1896	0.6896	0.25	0.067
Mof_H 	H 	0.75	0.8104	0.6896	0.071
Mof_H 	H 	0.25	0.8104	0.3104	0.07
Mof_H 	H 	0.75	0.1896	0.3104	0.068
Mof_H 	H 	0.25	0.1896	0.6896	0.067
Mof_H 	H 	0.3104	0.25	0.1896	0.066
Mof_H 	H 	0.6896	0.75	0.1896	0.068
Mof_H 	H 	0.6896	0.25	0.8104	0.07
Mof_H 	H 	0.3104	0.75	0.8104	0.071
Mof_H 	H 	0.1896	0.3104	0.25	0.066
Mof_H 	H 	0.1896	0.6896	0.75	0.068
Mof_H 	H 	0.8104	0.6896	0.25	0.07
Mof_H 	H 	0.8104	0.3104	0.75	0.071
Mof_H 	H 	0.25	0.1896	0.3104	0.066
Mof_H 	H 	0.75	0.1896	0.6896	0.068
Mof_H 	H 	0.25	0.8104	0.6896	0.07
Mof_H 	H 	0.75	0.8104	0.3104	0.071
Mof_H 	H 	0.5	0.9281	0.88	0.004
Mof_H 	H 	0.5	0.9284	0.9649	0.09
Mof_H 	H 	0.5	0.0719	0.88	0.008
Mof_H 	H 	0.5	0.0716	0.9649	0.093
Mof_H 	H 	0.5	0.9281	0.12	0.02
Mof_H 	H 	0.5	0.9284	0.0351	0.039
Mof_H 	H 	0.5	0.0719	0.12	0.023
Mof_H 	H 	0.5	0.0716	0.0351	0.042
Mof_H 	H 	0.88	0.5	0.9281	0.004
Mof_H 	H 	0.9649	0.5	0.9284	0.09
Mof_H 	H 	0.88	0.5	0.0719	0.008
Mof_H 	H 	0.9649	0.5	0.0716	0.093
Mof_H 	H 	0.12	0.5	0.9281	0.02
Mof_H 	H 	0.0351	0.5	0.9284	0.039
Mof_H 	H 	0.12	0.5	0.0719	0.023
Mof_H 	H 	0.0351	0.5	0.0716	0.042
Mof_H 	H 	0.9281	0.88	0.5	0.004
Mof_H 	H 	0.9284	0.9649	0.5	0.09
Mof_H 	H 	0.0719	0.88	0.5	0.008
Mof_H 	H 	0.0716	0.9649	0.5	0.093
Mof_H 	H 	0.9281	0.12	0.5	0.02
Mof_H 	H 	0.9284	0.0351	0.5	0.039
Mof_H 	H 	0.0719	0.12	0.5	0.023
Mof_H 	H 	0.0716	0.0351	0.5	0.042
Mof_H 	H 	0.4281	0	0.62	0.009
Mof_H 	H 	0.4284	0	0.5351	0.067
Mof_H 	H 	0.5719	0	0.62	0.01
Mof_H 	H 	0.5716	0	0.5351	0.068
Mof_H 	H 	0.4281	0	0.38	0.009
Mof_H 	H 	0.4284	0	0.4649	0.067
Mof_H 	H 	0.5719	0	0.38	0.01
Mof_H 	H 	0.5716	0	0.4649	0.068
Mof_H 	H 	-2.70463e-33	0.38	0.5719	0.01
Mof_H 	H 	2.14316e-33	0.4649	0.5716	0.068
Mof_H 	H 	-8.0927e-33	0.38	0.4281	0.009
Mof_H 	H 	-3.24266e-33	0.4649	0.4284	0.067
Mof_H 	H 	6.99319e-33	0.62	0.5719	0.01
Mof_H 	H 	-7.55466e-33	0.5351	0.5716	0.068
Mof_H 	H 	1.60512e-33	0.62	0.4281	0.009
Mof_H 	H 	-3.24266e-33	0.5351	0.4284	0.067
Mof_H 	H 	0.38	0.4281	-0	0.009
Mof_H 	H 	0.4649	0.4284	-0	0.067
Mof_H 	H 	0.38	0.5719	-0	0.01
Mof_H 	H 	0.4649	0.5716	-0	0.068
Mof_H 	H 	0.62	0.4281	-0	0.009
Mof_H 	H 	0.5351	0.4284	-0	0.067
Mof_H 	H 	0.62	0.5719	-0	0.01
Mof_H 	H 	0.5351	0.5716	-0	0.068
Mof_C 	C 	0.62094	0.87826	0.7941	0.029
Mof_C 	C 	0.65661	0.8426	0.79319	-0.098
Mof_C 	C 	0.37906	0.12174	0.7941	0.031
Mof_C 	C 	0.34339	0.1574	0.79319	-0.104
Mof_C 	C 	0.37906	0.87826	0.2059	0.028
Mof_C 	C 	0.34339	0.8426	0.20681	-0.1
Mof_C 	C 	0.62094	0.12174	0.2059	0.03
Mof_C 	C 	0.65661	0.1574	0.20681	-0.104
Mof_C 	C 	0.7941	0.62094	0.87826	0.029
Mof_C 	C 	0.79319	0.65661	0.8426	-0.098
Mof_C 	C 	0.7941	0.37906	0.12174	0.031
Mof_C 	C 	0.79319	0.34339	0.1574	-0.104
Mof_C 	C 	0.2059	0.37906	0.87826	0.028
Mof_C 	C 	0.20681	0.34339	0.8426	-0.1
Mof_C 	C 	0.2059	0.62094	0.12174	0.03
Mof_C 	C 	0.20681	0.65661	0.1574	-0.104
Mof_C 	C 	0.87826	0.7941	0.62094	0.029
Mof_C 	C 	0.8426	0.79319	0.65661	-0.098
Mof_C 	C 	0.12174	0.7941	0.37906	0.031
Mof_C 	C 	0.1574	0.79319	0.34339	-0.104
Mof_C 	C 	0.87826	0.2059	0.37906	0.028
Mof_C 	C 	0.8426	0.20681	0.34339	-0.1
Mof_C 	C 	0.12174	0.2059	0.62094	0.03
Mof_C 	C 	0.1574	0.20681	0.65661	-0.104
Mof_C 	C 	0.37826	0.12094	0.7059	0.03
Mof_C 	C 	0.3426	0.15661	0.70681	-0.104
Mof_C 	C 	0.62174	0.87906	0.7059	0.029
Mof_C 	C 	0.6574	0.84339	0.70681	-0.098
Mof_C 	C 	0.37826	0.87906	0.2941	0.028
Mof_C 	C 	0.3426	0.84339	0.29319	-0.099
Mof_C 	C 	0.62174	0.12094	0.2941	0.03
Mof_C 	C 	0.6574	0.15661	0.29319	-0.104
Mof_C 	C 	0.12094	0.2941	0.62174	0.03
Mof_C 	C 	0.15661	0.29319	0.6574	-0.104
Mof_C 	C 	0.87906	0.2941	0.37826	0.028
Mof_C 	C 	0.84339	0.29319	0.3426	-0.099
Mof_C 	C 	0.87906	0.7059	0.62174	0.029
Mof_C 	C 	0.84339	0.70681	0.6574	-0.098
Mof_C 	C 	0.12094	0.7059	0.37826	0.03
Mof_C 	C 	0.15661	0.70681	0.3426	-0.104
Mof_C 	C 	0.2941	0.37826	0.87906	0.028
Mof_C 	C 	0.29319	0.3426	0.84339	-0.099
Mof_C 	C 	0.2941	0.62174	0.12094	0.03
Mof_C 	C 	0.29319	0.6574	0.15661	-0.104
Mof_C 	C 	0.7059	0.37826	0.12094	0.03
Mof_C 	C 	0.70681	0.3426	0.15661	-0.104
Mof_C 	C 	0.7059	0.62174	0.87906	0.029
Mof_C 	C 	0.70681	0.6574	0.84339	-0.098
Mof_C 	C 	0.37906	0.12174	0.2059	0.03
Mof_C 	C 	0.34339	0.1574	0.20681	-0.105
Mof_C 	C 	0.62094	0.87826	0.2059	0.028
Mof_C 	C 	0.65661	0.8426	0.20681	-0.099
Mof_C 	C 	0.62094	0.12174	0.7941	0.031
Mof_C 	C 	0.65661	0.1574	0.79319	-0.103
Mof_C 	C 	0.37906	0.87826	0.7941	0.029
Mof_C 	C 	0.34339	0.8426	0.79319	-0.099
Mof_C 	C 	0.2059	0.37906	0.12174	0.03
Mof_C 	C 	0.20681	0.34339	0.1574	-0.105
Mof_C 	C 	0.2059	0.62094	0.87826	0.028
Mof_C 	C 	0.20681	0.65661	0.8426	-0.099
Mof_C 	C 	0.7941	0.62094	0.12174	0.031
Mof_C 	C 	0.79319	0.65661	0.1574	-0.103
Mof_C 	C 	0.7941	0.37906	0.87826	0.029
Mof_C 	C 	0.79319	0.34339	0.8426	-0.099
Mof_C 	C 	0.12174	0.2059	0.37906	0.03
Mof_C 	C 	0.1574	0.20681	0.34339	-0.105
Mof_C 	C 	0.87826	0.2059	0.62094	0.028
Mof_C 	C 	0.8426	0.20681	0.65661	-0.099
Mof_C 	C 	0.12174	0.7941	0.62094	0.031
Mof_C 	C 	0.1574	0.79319	0.65661	-0.103
Mof_C 	C 	0.87826	0.7941	0.37906	0.029
Mof_C 	C 	0.8426	0.79319	0.34339	-0.099
Mof_C 	C 	0.62174	0.87906	0.2941	0.028
Mof_C 	C 	0.6574	0.84339	0.29319	-0.099
Mof_C 	C 	0.37826	0.12094	0.2941	0.03
Mof_C 	C 	0.3426	0.15661	0.29319	-0.104
Mof_C 	C 	0.62174	0.12094	0.7059	0.031
Mof_C 	C 	0.6574	0.15661	0.70681	-0.103
Mof_C 	C 	0.37826	0.87906	0.7059	0.028
Mof_C 	C 	0.3426	0.84339	0.70681	-0.099
Mof_C 	C 	0.87906	0.7059	0.37826	0.028
Mof_C 	C 	0.84339	0.70681	0.3426	-0.099
Mof_C 	C 	0.12094	0.7059	0.62174	0.031
Mof_C 	C 	0.15661	0.70681	0.6574	-0.103
Mof_C 	C 	0.12094	0.2941	0.37826	0.03
Mof_C 	C 	0.15661	0.29319	0.3426	-0.104
Mof_C 	C 	0.87906	0.2941	0.62174	0.028
Mof_C 	C 	0.84339	0.29319	0.6574	-0.099
Mof_C 	C 	0.7059	0.62174	0.12094	0.031
Mof_C 	C 	0.70681	0.6574	0.15661	-0.103
Mof_C 	C 	0.7059	0.37826	0.87906	0.028
Mof_C 	C 	0.70681	0.3426	0.84339	-0.099
Mof_C 	C 	0.2941	0.62174	0.87906	0.028
Mof_C 	C 	0.29319	0.6574	0.84339	-0.099
Mof_C 	C 	0.2941	0.37826	0.12094	0.03
Mof_C 	C 	0.29319	0.3426	0.15661	-0.104
Mof_C 	C 	0.5	0	0.9751	0.107
Mof_C 	C 	0.5	0	0.0249	-0.053
Mof_C 	C 	0.9751	0.5	-0	0.107
Mof_C 	C 	0.0249	0.5	-0	-0.053
Mof_C 	C 	-1.2672e-32	0.9751	0.5	0.107
Mof_C 	C 	-2.97421e-33	0.0249	0.5	-0.053
Mof_C 	C 	0.5	4.84891e-33	0.5249	0.049
Mof_C 	C 	0.5	0	0.4751	0.049
Mof_C 	C 	-2.97421e-33	0.4751	0.5	0.049
Mof_C 	C 	6.72361e-33	0.5249	0.5	0.049
Mof_C 	C 	0.4751	0.5	-0	0.049
Mof_C 	C 	0.5249	0.5	-0	0.049
Mof_C 	C 	0.56478	0.93522	0.75	0.351
Mof_C 	C 	0.60335	0.89665	0.75	-0.091
Mof_C 	C 	0.67507	0.82493	0.75	0.043
Mof_C 	C 	0.71386	0.78614	0.75	0.044
Mof_C 	C 	0.43522	0.06478	0.75	0.353
Mof_C 	C 	0.39665	0.10335	0.75	-0.099
Mof_C 	C 	0.32493	0.17507	0.75	0.043
Mof_C 	C 	0.28614	0.21386	0.75	0.04
Mof_C 	C 	0.43522	0.93522	0.25	0.351
Mof_C 	C 	0.39665	0.89665	0.25	-0.092
Mof_C 	C 	0.32493	0.82493	0.25	0.042
Mof_C 	C 	0.28614	0.78614	0.25	0.041
Mof_C 	C 	0.56478	0.06478	0.25	0.353
Mof_C 	C 	0.60335	0.10335	0.25	-0.1
Mof_C 	C 	0.67507	0.17507	0.25	0.043
Mof_C 	C 	0.71386	0.21386	0.25	0.039
Mof_C 	C 	0.75	0.56478	0.93522	0.351
Mof_C 	C 	0.75	0.60335	0.89665	-0.091
Mof_C 	C 	0.75	0.67507	0.82493	0.043
Mof_C 	C 	0.75	0.71386	0.78614	0.044
Mof_C 	C 	0.75	0.43522	0.06478	0.353
Mof_C 	C 	0.75	0.39665	0.10335	-0.099
Mof_C 	C 	0.75	0.32493	0.17507	0.043
Mof_C 	C 	0.75	0.28614	0.21386	0.04
Mof_C 	C 	0.25	0.43522	0.93522	0.351
Mof_C 	C 	0.25	0.39665	0.89665	-0.092
Mof_C 	C 	0.25	0.32493	0.82493	0.042
Mof_C 	C 	0.25	0.28614	0.78614	0.041
Mof_C 	C 	0.25	0.56478	0.06478	0.353
Mof_C 	C 	0.25	0.60335	0.10335	-0.1
Mof_C 	C 	0.25	0.67507	0.17507	0.043
Mof_C 	C 	0.25	0.71386	0.21386	0.039
Mof_C 	C 	0.93522	0.75	0.56478	0.351
Mof_C 	C 	0.89665	0.75	0.60335	-0.091
Mof_C 	C 	0.82493	0.75	0.67507	0.043
Mof_C 	C 	0.78614	0.75	0.71386	0.044
Mof_C 	C 	0.06478	0.75	0.43522	0.353
Mof_C 	C 	0.10335	0.75	0.39665	-0.099
Mof_C 	C 	0.17507	0.75	0.32493	0.043
Mof_C 	C 	0.21386	0.75	0.28614	0.04
Mof_C 	C 	0.93522	0.25	0.43522	0.351
Mof_C 	C 	0.89665	0.25	0.39665	-0.092
Mof_C 	C 	0.82493	0.25	0.32493	0.042
Mof_C 	C 	0.78614	0.25	0.28614	0.041
Mof_C 	C 	0.06478	0.25	0.56478	0.353
Mof_C 	C 	0.10335	0.25	0.60335	-0.1
Mof_C 	C 	0.17507	0.25	0.67507	0.043
Mof_C 	C 	0.21386	0.25	0.71386	0.039
Mof_C 	C 	0.43522	0.06478	0.25	0.353
Mof_C 	C 	0.39665	0.10335	0.25	-0.1
Mof_C 	C 	0.32493	0.17507	0.25	0.043
Mof_C 	C 	0.28614	0.21386	0.25	0.038
Mof_C 	C 	0.56478	0.93522	0.25	0.351
Mof_C 	C 	0.60335	0.89665	0.25	-0.092
Mof_C 	C 	0.67507	0.82493	0.25	0.042
Mof_C 	C 	0.71386	0.78614	0.25	0.042
Mof_C 	C 	0.56478	0.06478	0.75	0.353
Mof_C 	C 	0.60335	0.10335	0.75	-0.099
Mof_C 	C 	0.67507	0.17507	0.75	0.044
Mof_C 	C 	0.71386	0.21386	0.75	0.041
Mof_C 	C 	0.43522	0.93522	0.75	0.351
Mof_C 	C 	0.39665	0.89665	0.75	-0.091
Mof_C 	C 	0.32493	0.82493	0.75	0.042
Mof_C 	C 	0.28614	0.78614	0.75	0.043
Mof_C 	C 	0.25	0.43522	0.06478	0.353
Mof_C 	C 	0.25	0.39665	0.10335	-0.1
Mof_C 	C 	0.25	0.32493	0.17507	0.043
Mof_C 	C 	0.25	0.28614	0.21386	0.038
Mof_C 	C 	0.25	0.56478	0.93522	0.351
Mof_C 	C 	0.25	0.60335	0.89665	-0.092
Mof_C 	C 	0.25	0.67507	0.82493	0.042
Mof_C 	C 	0.25	0.71386	0.78614	0.042
Mof_C 	C 	0.75	0.56478	0.06478	0.353
Mof_C 	C 	0.75	0.60335	0.10335	-0.099
Mof_C 	C 	0.75	0.67507	0.17507	0.044
Mof_C 	C 	0.75	0.71386	0.21386	0.041
Mof_C 	C 	0.75	0.43522	0.93522	0.351
Mof_C 	C 	0.75	0.39665	0.89665	-0.091
Mof_C 	C 	0.75	0.32493	0.82493	0.042
Mof_C 	C 	0.75	0.28614	0.78614	0.043
Mof_C 	C 	0.06478	0.25	0.43522	0.353
Mof_C 	C 	0.10335	0.25	0.39665	-0.1
Mof_C 	C 	0.17507	0.25	0.32493	0.043
Mof_C 	C 	0.21386	0.25	0.28614	0.038
Mof_C 	C 	0.93522	0.25	0.56478	0.351
Mof_C 	C 	0.89665	0.25	0.60335	-0.092
Mof_C 	C 	0.82493	0.25	0.67507	0.042
Mof_C 	C 	0.78614	0.25	0.71386	0.042
Mof_C 	C 	0.06478	0.75	0.56478	0.353
Mof_C 	C 	0.10335	0.75	0.60335	-0.099
Mof_C 	C 	0.17507	0.75	0.67507	0.044
Mof_C 	C 	0.21386	0.75	0.71386	0.041
Mof_C 	C 	0.93522	0.75	0.43522	0.351
Mof_C 	C 	0.89665	0.75	0.39665	-0.091
Mof_C 	C 	0.82493	0.75	0.32493	0.042
Mof_C 	C 	0.78614	0.75	0.28614	0.043
Mof_C 	C 	0.71349	0.75	0.78651	-0.108
Mof_C 	C 	0.28651	0.25	0.78651	-0.107
Mof_C 	C 	0.28651	0.75	0.21349	-0.107
Mof_C 	C 	0.71349	0.25	0.21349	-0.107
Mof_C 	C 	0.78651	0.71349	0.75	-0.108
Mof_C 	C 	0.78651	0.28651	0.25	-0.107
Mof_C 	C 	0.21349	0.28651	0.75	-0.107
Mof_C 	C 	0.21349	0.71349	0.25	-0.107
Mof_C 	C 	0.75	0.78651	0.71349	-0.108
Mof_C 	C 	0.25	0.78651	0.28651	-0.107
Mof_C 	C 	0.75	0.21349	0.28651	-0.107
Mof_C 	C 	0.25	0.21349	0.71349	-0.107
Mof_C 	C 	0.28651	0.25	0.21349	-0.107
Mof_C 	C 	0.71349	0.75	0.21349	-0.107
Mof_C 	C 	0.71349	0.25	0.78651	-0.107
Mof_C 	C 	0.28651	0.75	0.78651	-0.108
Mof_C 	C 	0.21349	0.28651	0.25	-0.107
Mof_C 	C 	0.21349	0.71349	0.75	-0.107
Mof_C 	C 	0.78651	0.71349	0.25	-0.107
Mof_C 	C 	0.78651	0.28651	0.75	-0.108
Mof_C 	C 	0.25	0.21349	0.28651	-0.107
Mof_C 	C 	0.75	0.21349	0.71349	-0.107
Mof_C 	C 	0.25	0.78651	0.71349	-0.107
Mof_C 	C 	0.75	0.78651	0.28651	-0.108
Mof_C 	C 	0.5	0.9571	0.8973	0.114
Mof_C 	C 	0.5	0.9579	0.9484	-0.132
Mof_C 	C 	0.5	0.0429	0.8973	0.091
Mof_C 	C 	0.5	0.0421	0.9484	-0.157
Mof_C 	C 	0.5	0.9571	0.1027	0.059
Mof_C 	C 	0.5	0.9579	0.0516	-0.04
Mof_C 	C 	0.5	0.0429	0.1027	0.036
Mof_C 	C 	0.5	0.0421	0.0516	-0.065
Mof_C 	C 	0.8973	0.5	0.9571	0.114
Mof_C 	C 	0.9484	0.5	0.9579	-0.132
Mof_C 	C 	0.8973	0.5	0.0429	0.091
Mof_C 	C 	0.9484	0.5	0.0421	-0.157
Mof_C 	C 	0.1027	0.5	0.9571	0.059
Mof_C 	C 	0.0516	0.5	0.9579	-0.04
Mof_C 	C 	0.1027	0.5	0.0429	0.036
Mof_C 	C 	0.0516	0.5	0.0421	-0.065
Mof_C 	C 	0.9571	0.8973	0.5	0.114
Mof_C 	C 	0.9579	0.9484	0.5	-0.132
Mof_C 	C 	0.0429	0.8973	0.5	0.091
Mof_C 	C 	0.0421	0.9484	0.5	-0.157
Mof_C 	C 	0.9571	0.1027	0.5	0.059
Mof_C 	C 	0.9579	0.0516	0.5	-0.04
Mof_C 	C 	0.0429	0.1027	0.5	0.036
Mof_C 	C 	0.0421	0.0516	0.5	-0.065
Mof_C 	C 	0.4571	0	0.6027	0.068
Mof_C 	C 	0.4579	0	0.5516	-0.118
Mof_C 	C 	0.5429	0	0.6027	0.068
Mof_C 	C 	0.5421	0	0.5516	-0.118
Mof_C 	C 	0.4571	0	0.3973	0.068
Mof_C 	C 	0.4579	0	0.4484	-0.118
Mof_C 	C 	0.5429	0	0.3973	0.068
Mof_C 	C 	0.5421	0	0.4484	-0.118
Mof_C 	C 	-2.81336e-33	0.3973	0.5429	0.068
Mof_C 	C 	-7.66527e-33	0.4484	0.5421	-0.118
Mof_C 	C 	-3.13506e-33	0.3973	0.4571	0.068
Mof_C 	C 	-3.13206e-33	0.4484	0.4579	-0.118
Mof_C 	C 	-2.81336e-33	0.6027	0.5429	0.068
Mof_C 	C 	-1.73631e-32	0.5516	0.5421	-0.118
Mof_C 	C 	-3.13506e-33	0.6027	0.4571	0.068
Mof_C 	C 	-1.28299e-32	0.5516	0.4579	-0.118
Mof_C 	C 	0.3973	0.4571	-0	0.068
Mof_C 	C 	0.4484	0.4579	-0	-0.118
Mof_C 	C 	0.3973	0.5429	-0	0.068
Mof_C 	C 	0.4484	0.5421	-0	-0.118
Mof_C 	C 	0.6027	0.4571	-0	0.068
Mof_C 	C 	0.5516	0.4579	-0	-0.118
Mof_C 	C 	0.6027	0.5429	-0	0.068
Mof_C 	C 	0.5516	0.5421	-0	-0.118
Mof_N 	N 	0.5	0	0.8752	-0.21
Mof_N 	N 	0.5	1.21223e-33	0.1248	-0.192
Mof_N 	N 	0.8752	0.5	-0	-0.21
Mof_N 	N 	0.1248	0.5	-0	-0.192
Mof_N 	N 	-2.97421e-33	0.8752	0.5	-0.21
Mof_N 	N 	-2.97421e-33	0.1248	0.5	-0.192
Mof_N 	N 	0.5	4.84891e-33	0.6248	-0.19
Mof_N 	N 	0.5	0	0.3752	-0.19
Mof_N 	N 	1.8747e-33	0.3752	0.5	-0.19
Mof_N 	N 	-2.97421e-33	0.6248	0.5	-0.19
Mof_N 	N 	0.3752	0.5	-0	-0.19
Mof_N 	N 	0.6248	0.5	-0	-0.19
Mof_O 	O 	0.55031	0.94974	0.79086	-0.385
Mof_O 	O 	0.44969	0.05026	0.79086	-0.402
Mof_O 	O 	0.44969	0.94974	0.20914	-0.387
Mof_O 	O 	0.55031	0.05026	0.20914	-0.403
Mof_O 	O 	0.79086	0.55031	0.94974	-0.385
Mof_O 	O 	0.79086	0.44969	0.05026	-0.402
Mof_O 	O 	0.20914	0.44969	0.94974	-0.387
Mof_O 	O 	0.20914	0.55031	0.05026	-0.403
Mof_O 	O 	0.94974	0.79086	0.55031	-0.385
Mof_O 	O 	0.05026	0.79086	0.44969	-0.402
Mof_O 	O 	0.94974	0.20914	0.44969	-0.387
Mof_O 	O 	0.05026	0.20914	0.55031	-0.403
Mof_O 	O 	0.44974	0.05031	0.70914	-0.402
Mof_O 	O 	0.55026	0.94969	0.70914	-0.384
Mof_O 	O 	0.44974	0.94969	0.29086	-0.384
Mof_O 	O 	0.55026	0.05031	0.29086	-0.402
Mof_O 	O 	0.05031	0.29086	0.55026	-0.402
Mof_O 	O 	0.94969	0.29086	0.44974	-0.384
Mof_O 	O 	0.94969	0.70914	0.55026	-0.384
Mof_O 	O 	0.05031	0.70914	0.44974	-0.402
Mof_O 	O 	0.29086	0.44974	0.94969	-0.384
Mof_O 	O 	0.29086	0.55026	0.05031	-0.402
Mof_O 	O 	0.70914	0.44974	0.05031	-0.402
Mof_O 	O 	0.70914	0.55026	0.94969	-0.384
Mof_O 	O 	0.44969	0.05026	0.20914	-0.404
Mof_O 	O 	0.55031	0.94974	0.20914	-0.387
Mof_O 	O 	0.55031	0.05026	0.79086	-0.401
Mof_O 	O 	0.44969	0.94974	0.79086	-0.385
Mof_O 	O 	0.20914	0.44969	0.05026	-0.404
Mof_O 	O 	0.20914	0.55031	0.94974	-0.387
Mof_O 	O 	0.79086	0.55031	0.05026	-0.401
Mof_O 	O 	0.79086	0.44969	0.94974	-0.385
Mof_O 	O 	0.05026	0.20914	0.44969	-0.404
Mof_O 	O 	0.94974	0.20914	0.55031	-0.387
Mof_O 	O 	0.05026	0.79086	0.55031	-0.401
Mof_O 	O 	0.94974	0.79086	0.44969	-0.385
Mof_O 	O 	0.55026	0.94969	0.29086	-0.384
Mof_O 	O 	0.44974	0.05031	0.29086	-0.402
Mof_O 	O 	0.55026	0.05031	0.70914	-0.401
Mof_O 	O 	0.44974	0.94969	0.70914	-0.384
Mof_O 	O 	0.94969	0.70914	0.44974	-0.384
Mof_O 	O 	0.05031	0.70914	0.55026	-0.401
Mof_O 	O 	0.05031	0.29086	0.44974	-0.402
Mof_O 	O 	0.94969	0.29086	0.55026	-0.384
Mof_O 	O 	0.70914	0.55026	0.05031	-0.401
Mof_O 	O 	0.70914	0.44974	0.94969	-0.384
Mof_O 	O 	0.29086	0.55026	0.94969	-0.384
Mof_O 	O 	0.29086	0.44974	0.05031	-0.402
_end
