data_functionalizedCrystal
_audit_creation_method	'EQeq! by Chris Wilmer'
_symmetry_space_group_name_H-M	'P1'
_symmetry_Int_Tables_number	1
_symmetry_cell_setting	triclinic
loop_
_symmetry_equiv_pos_as_xyz
  x,y,z
_cell_length_a	7.8651
_cell_length_b	10.545
_cell_length_c	11.2
_cell_angle_alpha	90
_cell_angle_beta	90
_cell_angle_gamma	90
loop_
_atom_site_label
_atom_site_type_symbol
_atom_site_fract_x
_atom_site_fract_y
_atom_site_fract_z
_atom_site_charge
Mof_Ni	Ni	0.74308	0.21545	0.32108	1.095
Mof_Ni	Ni	0.24308	0.78455	0.67892	1.093
Mof_Ni	Ni	0.74308	0.71545	0.17892	1.096
Mof_Ni	Ni	0.24308	0.28455	0.82108	1.093
Mof_H 	H 	0.9639	0.0377	0.1444	0.031
Mof_H 	H 	0.9959	0.4281	0.9821	0.031
Mof_H 	H 	0.1255	0.0723	0.9795	0.068
Mof_H 	H 	0.4639	0.9623	0.8556	0.048
Mof_H 	H 	0.4959	0.5719	0.0179	0.025
Mof_H 	H 	0.6255	0.9277	0.0205	0.048
Mof_H 	H 	0.9639	0.5377	0.3556	0.032
Mof_H 	H 	0.9959	0.9281	0.5179	0.027
Mof_H 	H 	0.1255	0.5723	0.5205	0.063
Mof_H 	H 	0.4639	0.4623	0.6444	0.048
Mof_H 	H 	0.4959	0.0719	0.4821	0.027
Mof_H 	H 	0.6255	0.4277	0.4795	0.05
Mof_C 	C 	0.7886	0.4289	0.173	0.357
Mof_C 	C 	0.9692	0.119	0.1124	0.092
Mof_C 	C 	0.8909	0.3258	0.1122	-0.053
Mof_C 	C 	0.9915	0.347	0.0146	0.091
Mof_C 	C 	0.0677	0.1402	0.0135	-0.052
Mof_C 	C 	0.2886	0.5711	0.827	0.355
Mof_C 	C 	0.4692	0.881	0.8876	0.025
Mof_C 	C 	0.3909	0.6742	0.8878	-0.057
Mof_C 	C 	0.4915	0.653	0.9854	0.068
Mof_C 	C 	0.5677	0.8598	0.9865	0.023
Mof_C 	C 	0.7886	0.9289	0.327	0.357
Mof_C 	C 	0.9692	0.619	0.3876	0.088
Mof_C 	C 	0.8909	0.8258	0.3878	-0.055
Mof_C 	C 	0.9915	0.847	0.4854	0.098
Mof_C 	C 	0.0677	0.6402	0.4865	-0.043
Mof_C 	C 	0.2886	0.0711	0.673	0.356
Mof_C 	C 	0.4692	0.381	0.6124	0.026
Mof_C 	C 	0.3909	0.1742	0.6122	-0.056
Mof_C 	C 	0.4915	0.153	0.5146	0.064
Mof_C 	C 	0.5677	0.3598	0.5135	0.021
Mof_N 	N 	0.882	0.2107	0.1632	-0.194
Mof_N 	N 	0.0837	0.2546	0.9644	-0.213
Mof_N 	N 	0.382	0.7893	0.8368	-0.186
Mof_N 	N 	0.5837	0.7454	0.0356	-0.21
Mof_N 	N 	0.882	0.7107	0.3368	-0.193
Mof_N 	N 	0.0837	0.7546	0.5356	-0.218
Mof_N 	N 	0.382	0.2893	0.6632	-0.186
Mof_N 	N 	0.5837	0.2454	0.4644	-0.208
Mof_Cl	Cl	0.9921	0.28146	0.43893	-0.41
Mof_Cl	Cl	0.4921	0.71854	0.56107	-0.431
Mof_Cl	Cl	0.9921	0.78146	0.06107	-0.412
Mof_Cl	Cl	0.4921	0.21854	0.93893	-0.429
Mof_O 	O 	0.7142	0.4004	0.2674	-0.416
Mof_O 	O 	0.7927	0.5353	0.1242	-0.4
Mof_O 	O 	0.2142	0.5996	0.7326	-0.422
Mof_O 	O 	0.2927	0.4647	0.8758	-0.407
Mof_O 	O 	0.7142	0.9004	0.2326	-0.416
Mof_O 	O 	0.7927	0.0353	0.3758	-0.399
Mof_O 	O 	0.2142	0.0996	0.7674	-0.422
Mof_O 	O 	0.2927	0.9647	0.6242	-0.408
_end
