data_functionalizedCrystal
_audit_creation_method	'EQeq! by Chris Wilmer'
_symmetry_space_group_name_H-M	'P1'
_symmetry_Int_Tables_number	1
_symmetry_cell_setting	triclinic
loop_
_symmetry_equiv_pos_as_xyz
  x,y,z
_cell_length_a	25.8582
_cell_length_b	25.8582
_cell_length_c	6.2615
_cell_angle_alpha	90
_cell_angle_beta	90
_cell_angle_gamma	120
loop_
_atom_site_label
_atom_site_type_symbol
_atom_site_fract_x
_atom_site_fract_y
_atom_site_fract_z
_atom_site_charge
Mof_Cu	Cu	0.38651	0.34907	0.1761	0.923
Mof_O 	O 	0.35441	0.30306	0.4335	-0.491
Mof_O 	O 	0.29217	0.224	0.6287	-0.405
Mof_O 	O 	0.3605	0.27702	0.0078	-0.451
Mof_C 	C 	0.32463	0.24784	0.4657	0.379
Mof_C 	C 	0.32769	0.20621	0.299	-0.156
Mof_C 	C 	0.34813	0.22473	0.0928	0.192
Mof_C 	C 	0.35412	0.18405	0.9569	-0.067
Mof_H 	H 	0.3672	0.1955	0.8016	0.075
Mof_Cu	Cu	0.05318	0.6824	0.50943	0.923
Mof_O 	O 	0.02108	0.63639	0.76683	-0.491
Mof_O 	O 	0.95884	0.55733	0.96203	-0.405
Mof_O 	O 	0.02717	0.61035	0.34113	-0.451
Mof_C 	C 	0.9913	0.58117	0.79903	0.379
Mof_C 	C 	0.99436	0.53954	0.63233	-0.156
Mof_C 	C 	0.0148	0.55806	0.42613	0.192
Mof_C 	C 	0.02079	0.51738	0.29023	-0.066
Mof_H 	H 	0.03387	0.52883	0.13493	0.075
Mof_Cu	Cu	0.71984	0.01574	0.84277	0.923
Mof_O 	O 	0.68774	0.96973	0.10017	-0.491
Mof_O 	O 	0.6255	0.89067	0.29537	-0.405
Mof_O 	O 	0.69383	0.94369	0.67447	-0.451
Mof_C 	C 	0.65796	0.91451	0.13237	0.379
Mof_C 	C 	0.66102	0.87288	0.96567	-0.155
Mof_C 	C 	0.68146	0.8914	0.75947	0.192
Mof_C 	C 	0.68745	0.85072	0.62357	-0.066
Mof_H 	H 	0.70053	0.86217	0.46827	0.075
Mof_Cu	Cu	0.65093	0.03744	0.1761	0.923
Mof_O 	O 	0.69694	0.05135	0.4335	-0.491
Mof_O 	O 	0.776	0.06817	0.6287	-0.405
Mof_O 	O 	0.72298	0.08348	0.0078	-0.451
Mof_C 	C 	0.75216	0.07679	0.4657	0.379
Mof_C 	C 	0.79379	0.12148	0.299	-0.156
Mof_C 	C 	0.77527	0.1234	0.0928	0.193
Mof_C 	C 	0.81595	0.17007	0.9569	-0.067
Mof_H 	H 	0.8045	0.1717	0.8016	0.075
Mof_Cu	Cu	0.3176	0.37077	0.50943	0.923
Mof_O 	O 	0.36361	0.38468	0.76683	-0.492
Mof_O 	O 	0.44267	0.4015	0.96203	-0.405
Mof_O 	O 	0.38965	0.41681	0.34113	-0.451
Mof_C 	C 	0.41883	0.41012	0.79903	0.379
Mof_C 	C 	0.46046	0.45481	0.63233	-0.156
Mof_C 	C 	0.44194	0.45673	0.42613	0.192
Mof_C 	C 	0.48262	0.5034	0.29023	-0.066
Mof_H 	H 	0.47117	0.50503	0.13493	0.075
Mof_Cu	Cu	0.98426	0.70411	0.84277	0.923
Mof_O 	O 	0.03027	0.71802	0.10017	-0.491
Mof_O 	O 	0.10933	0.73484	0.29537	-0.405
Mof_O 	O 	0.05631	0.75015	0.67447	-0.451
Mof_C 	C 	0.08549	0.74346	0.13237	0.379
Mof_C 	C 	0.12712	0.78815	0.96567	-0.155
Mof_C 	C 	0.1086	0.79007	0.75947	0.192
Mof_C 	C 	0.14928	0.83674	0.62357	-0.066
Mof_H 	H 	0.13783	0.83837	0.46827	0.075
Mof_Cu	Cu	0.96256	0.61349	0.1761	0.923
Mof_O 	O 	0.94865	0.64559	0.4335	-0.491
Mof_O 	O 	0.93183	0.70783	0.6287	-0.405
Mof_O 	O 	0.91652	0.6395	0.0078	-0.451
Mof_C 	C 	0.92321	0.67537	0.4657	0.379
Mof_C 	C 	0.87852	0.67231	0.299	-0.156
Mof_C 	C 	0.8766	0.65187	0.0928	0.192
Mof_C 	C 	0.82993	0.64588	0.9569	-0.066
Mof_H 	H 	0.8283	0.6328	0.8016	0.075
Mof_Cu	Cu	0.62923	0.94682	0.50943	0.923
Mof_O 	O 	0.61532	0.97892	0.76683	-0.491
Mof_O 	O 	0.5985	0.04116	0.96203	-0.405
Mof_O 	O 	0.58319	0.97283	0.34113	-0.451
Mof_C 	C 	0.58988	0.0087	0.79903	0.379
Mof_C 	C 	0.54519	0.00564	0.63233	-0.156
Mof_C 	C 	0.54327	0.9852	0.42613	0.192
Mof_C 	C 	0.4966	0.97921	0.29023	-0.066
Mof_H 	H 	0.49497	0.96613	0.13493	0.075
Mof_Cu	Cu	0.29589	0.28016	0.84277	0.923
Mof_O 	O 	0.28198	0.31226	0.10017	-0.491
Mof_O 	O 	0.26516	0.3745	0.29537	-0.405
Mof_O 	O 	0.24985	0.30617	0.67447	-0.451
Mof_C 	C 	0.25654	0.34204	0.13237	0.379
Mof_C 	C 	0.21185	0.33898	0.96567	-0.156
Mof_C 	C 	0.20993	0.31854	0.75947	0.192
Mof_C 	C 	0.16326	0.31255	0.62357	-0.066
Mof_H 	H 	0.16163	0.29947	0.46827	0.075
Mof_Cu	Cu	0.61349	0.65093	0.8239	0.923
Mof_O 	O 	0.64559	0.69694	0.5665	-0.491
Mof_O 	O 	0.70783	0.776	0.3713	-0.405
Mof_O 	O 	0.6395	0.72298	0.9922	-0.451
Mof_C 	C 	0.67537	0.75216	0.5343	0.379
Mof_C 	C 	0.67231	0.79379	0.701	-0.156
Mof_C 	C 	0.65187	0.77527	0.9072	0.192
Mof_C 	C 	0.64588	0.81595	0.0431	-0.067
Mof_H 	H 	0.6328	0.8045	0.1984	0.075
Mof_Cu	Cu	0.28016	0.98426	0.15723	0.923
Mof_O 	O 	0.31226	0.03027	0.89983	-0.491
Mof_O 	O 	0.3745	0.10933	0.70463	-0.405
Mof_O 	O 	0.30617	0.05631	0.32553	-0.451
Mof_C 	C 	0.34204	0.08549	0.86763	0.379
Mof_C 	C 	0.33898	0.12712	0.03433	-0.155
Mof_C 	C 	0.31854	0.1086	0.24053	0.192
Mof_C 	C 	0.31255	0.14928	0.37643	-0.066
Mof_H 	H 	0.29947	0.13783	0.53173	0.075
Mof_Cu	Cu	0.94682	0.3176	0.49057	0.923
Mof_O 	O 	0.97892	0.36361	0.23317	-0.491
Mof_O 	O 	0.04116	0.44267	0.03797	-0.405
Mof_O 	O 	0.97283	0.38965	0.65887	-0.451
Mof_C 	C 	0.0087	0.41883	0.20097	0.379
Mof_C 	C 	0.00564	0.46046	0.36767	-0.156
Mof_C 	C 	0.9852	0.44194	0.57387	0.192
Mof_C 	C 	0.97921	0.48262	0.70977	-0.066
Mof_H 	H 	0.96613	0.47117	0.86507	0.075
Mof_Cu	Cu	0.34907	0.96256	0.8239	0.923
Mof_O 	O 	0.30306	0.94865	0.5665	-0.491
Mof_O 	O 	0.224	0.93183	0.3713	-0.405
Mof_O 	O 	0.27702	0.91652	0.9922	-0.451
Mof_C 	C 	0.24784	0.92321	0.5343	0.379
Mof_C 	C 	0.20621	0.87852	0.701	-0.156
Mof_C 	C 	0.22473	0.8766	0.9072	0.193
Mof_C 	C 	0.18405	0.82993	0.0431	-0.067
Mof_H 	H 	0.1955	0.8283	0.1984	0.075
Mof_Cu	Cu	0.01574	0.29589	0.15723	0.923
Mof_O 	O 	0.96973	0.28198	0.89983	-0.491
Mof_O 	O 	0.89067	0.26516	0.70463	-0.405
Mof_O 	O 	0.94369	0.24985	0.32553	-0.451
Mof_C 	C 	0.91451	0.25654	0.86763	0.379
Mof_C 	C 	0.87288	0.21185	0.03433	-0.155
Mof_C 	C 	0.8914	0.20993	0.24053	0.192
Mof_C 	C 	0.85072	0.16326	0.37643	-0.066
Mof_H 	H 	0.86217	0.16163	0.53173	0.075
Mof_Cu	Cu	0.6824	0.62923	0.49057	0.923
Mof_O 	O 	0.63639	0.61532	0.23317	-0.492
Mof_O 	O 	0.55733	0.5985	0.03797	-0.405
Mof_O 	O 	0.61035	0.58319	0.65887	-0.451
Mof_C 	C 	0.58117	0.58988	0.20097	0.379
Mof_C 	C 	0.53954	0.54519	0.36767	-0.156
Mof_C 	C 	0.55806	0.54327	0.57387	0.192
Mof_C 	C 	0.51738	0.4966	0.70977	-0.066
Mof_H 	H 	0.52883	0.49497	0.86507	0.075
Mof_Cu	Cu	0.03744	0.38651	0.8239	0.923
Mof_O 	O 	0.05135	0.35441	0.5665	-0.491
Mof_O 	O 	0.06817	0.29217	0.3713	-0.405
Mof_O 	O 	0.08348	0.3605	0.9922	-0.451
Mof_C 	C 	0.07679	0.32463	0.5343	0.379
Mof_C 	C 	0.12148	0.32769	0.701	-0.156
Mof_C 	C 	0.1234	0.34813	0.9072	0.192
Mof_C 	C 	0.17007	0.35412	0.0431	-0.066
Mof_H 	H 	0.1717	0.3672	0.1984	0.075
Mof_Cu	Cu	0.70411	0.71984	0.15723	0.923
Mof_O 	O 	0.71802	0.68774	0.89983	-0.491
Mof_O 	O 	0.73484	0.6255	0.70463	-0.405
Mof_O 	O 	0.75015	0.69383	0.32553	-0.451
Mof_C 	C 	0.74346	0.65796	0.86763	0.379
Mof_C 	C 	0.78815	0.66102	0.03433	-0.156
Mof_C 	C 	0.79007	0.68146	0.24053	0.192
Mof_C 	C 	0.83674	0.68745	0.37643	-0.066
Mof_H 	H 	0.83837	0.70053	0.53173	0.075
Mof_Cu	Cu	0.37077	0.05318	0.49057	0.923
Mof_O 	O 	0.38468	0.02108	0.23317	-0.491
Mof_O 	O 	0.4015	0.95884	0.03797	-0.405
Mof_O 	O 	0.41681	0.02717	0.65887	-0.451
Mof_C 	C 	0.41012	0.9913	0.20097	0.379
Mof_C 	C 	0.45481	0.99436	0.36767	-0.156
Mof_C 	C 	0.45673	0.0148	0.57387	0.192
Mof_C 	C 	0.5034	0.02079	0.70977	-0.066
Mof_H 	H 	0.50503	0.03387	0.86507	0.075
_end
