data_functionalizedCrystal
_audit_creation_method	'EQeq! by Chris Wilmer'
_symmetry_space_group_name_H-M	'P1'
_symmetry_Int_Tables_number	1
_symmetry_cell_setting	triclinic
loop_
_symmetry_equiv_pos_as_xyz
  x,y,z
_cell_length_a	18.199
_cell_length_b	20.125
_cell_length_c	37.4537
_cell_angle_alpha	74.4151
_cell_angle_beta	75.939
_cell_angle_gamma	90
loop_
_atom_site_label
_atom_site_type_symbol
_atom_site_fract_x
_atom_site_fract_y
_atom_site_fract_z
_atom_site_charge
Mof_Zn	Zn	0.09017	0.89267	0.76358	1.233
Mof_Zn	Zn	0.10262	0.03771	0.68874	1.159
Mof_Zn	Zn	0.64625	0.34375	0.76358	1.233
Mof_Zn	Zn	0.70864	0.27355	0.68874	1.159
Mof_Zn	Zn	0.85375	0.60733	0.23642	1.233
Mof_Zn	Zn	0.79136	0.46229	0.31126	1.159
Mof_Zn	Zn	0.40983	0.15625	0.23642	1.234
Mof_Zn	Zn	0.39738	0.22645	0.31126	1.16
Mof_Zn	Zn	0.90983	0.10733	0.23642	1.234
Mof_Zn	Zn	0.89738	0.96229	0.31126	1.16
Mof_Zn	Zn	0.35375	0.65625	0.23642	1.234
Mof_Zn	Zn	0.29136	0.72645	0.31126	1.16
Mof_Zn	Zn	0.14625	0.39267	0.76358	1.234
Mof_Zn	Zn	0.20864	0.53771	0.68874	1.16
Mof_Zn	Zn	0.59017	0.84375	0.76358	1.234
Mof_Zn	Zn	0.60262	0.77355	0.68874	1.16
Mof_H 	H 	0.107	0.1622	0.759	0.058
Mof_H 	H 	0.0506	0.0007	0.8528	0.103
Mof_H 	H 	0.082	0.1918	0.8624	0.112
Mof_H 	H 	0.0861	0.9099	0.998	0.072
Mof_H 	H 	0.3426	0.8986	0.7424	0.066
Mof_H 	H 	0.3136	0.9787	0.6368	0.077
Mof_H 	H 	0.5144	0.9079	0.6502	0.046
Mof_H 	H 	0.3977	0.9268	0.5	0.057
Mof_H 	H 	0.634	0.0788	0.759	0.058
Mof_H 	H 	0.5966	0.1465	0.8528	0.104
Mof_H 	H 	0.5556	0.9458	0.8624	0.113
Mof_H 	H 	0.4159	0.0921	0.998	0.073
Mof_H 	H 	0.415	0.359	0.7424	0.066
Mof_H 	H 	0.5496	0.3845	0.6368	0.077
Mof_H 	H 	0.3354	0.4419	0.6502	0.046
Mof_H 	H 	0.6023	0.5732	0.5	0.057
Mof_H 	H 	0.866	0.3378	0.241	0.058
Mof_H 	H 	0.9034	0.4993	0.1472	0.104
Mof_H 	H 	0.9444	0.3082	0.1376	0.113
Mof_H 	H 	0.0841	0.5901	0.002	0.073
Mof_H 	H 	0.085	0.6014	0.2576	0.066
Mof_H 	H 	0.9504	0.5213	0.3632	0.077
Mof_H 	H 	0.1646	0.5921	0.3498	0.046
Mof_H 	H 	0.8977	0.5732	0.5	0.057
Mof_H 	H 	0.393	0.4212	0.241	0.058
Mof_H 	H 	0.4494	0.3535	0.1472	0.104
Mof_H 	H 	0.418	0.5542	0.1376	0.113
Mof_H 	H 	0.4139	0.4079	0.002	0.073
Mof_H 	H 	0.1574	0.141	0.2576	0.066
Mof_H 	H 	0.1864	0.1155	0.3632	0.077
Mof_H 	H 	0.9856	0.0581	0.3498	0.048
Mof_H 	H 	0.1023	0.9268	0.5	0.057
Mof_H 	H 	0.893	0.8378	0.241	0.058
Mof_H 	H 	0.9494	0.9993	0.1472	0.103
Mof_H 	H 	0.918	0.8082	0.1376	0.112
Mof_H 	H 	0.9139	0.0901	0.002	0.072
Mof_H 	H 	0.6574	0.1014	0.2576	0.066
Mof_H 	H 	0.6864	0.0213	0.3632	0.077
Mof_H 	H 	0.4856	0.0921	0.3498	0.046
Mof_H 	H 	0.6023	0.0732	0.5	0.057
Mof_H 	H 	0.366	0.9212	0.241	0.058
Mof_H 	H 	0.4034	0.8535	0.1472	0.104
Mof_H 	H 	0.4444	0.0542	0.1376	0.113
Mof_H 	H 	0.5841	0.9079	0.002	0.073
Mof_H 	H 	0.585	0.641	0.2576	0.066
Mof_H 	H 	0.4504	0.6155	0.3632	0.077
Mof_H 	H 	0.6646	0.5581	0.3498	0.046
Mof_H 	H 	0.3977	0.4268	0.5	0.057
Mof_H 	H 	0.134	0.6622	0.759	0.058
Mof_H 	H 	0.0966	0.5007	0.8528	0.104
Mof_H 	H 	0.0556	0.6918	0.8624	0.113
Mof_H 	H 	0.9159	0.4099	0.998	0.073
Mof_H 	H 	0.915	0.3986	0.7424	0.066
Mof_H 	H 	0.0496	0.4787	0.6368	0.077
Mof_H 	H 	0.8354	0.4079	0.6502	0.046
Mof_H 	H 	0.1023	0.4268	0.5	0.057
Mof_H 	H 	0.607	0.5788	0.759	0.058
Mof_H 	H 	0.5506	0.6465	0.8528	0.104
Mof_H 	H 	0.582	0.4458	0.8624	0.113
Mof_H 	H 	0.5861	0.5921	0.998	0.073
Mof_H 	H 	0.8426	0.859	0.7424	0.066
Mof_H 	H 	0.8136	0.8845	0.6368	0.077
Mof_H 	H 	0.0144	0.9419	0.6502	0.048
Mof_H 	H 	0.8977	0.0732	0.5	0.057
Mof_C 	C 	0.09658	0.14438	0.78544	-0.021
Mof_C 	C 	0.07977	0.07327	0.80166	-0.045
Mof_C 	C 	0.07886	0.02506	0.77688	0.392
Mof_C 	C 	0.06319	0.04769	0.84122	-0.094
Mof_C 	C 	0.06545	0.09205	0.8635	0.152
Mof_C 	C 	0.08184	0.16224	0.84712	-0.108
Mof_C 	C 	0.09802	0.18812	0.80736	-0.012
Mof_C 	C 	0.1179	0.2637	0.788	0.293
Mof_C 	C 	0.0708	0.0056	0.9258	0.198
Mof_C 	C 	0.0397	0.0005	0.9632	-0.036
Mof_C 	C 	0.0504	0.9429	0.9984	-0.021
Mof_C 	C 	0.0077	0.0494	0.9666	-0.019
Mof_C 	C 	0.9969	0.0928	0.9288	0.216
Mof_C 	C 	0.36184	0.91104	0.71592	-0.001
Mof_C 	C 	0.31644	0.94014	0.69232	-0.06
Mof_C 	C 	0.23495	0.95455	0.7083	0.387
Mof_C 	C 	0.34428	0.95808	0.65264	-0.078
Mof_C 	C 	0.41739	0.94479	0.63722	0.115
Mof_C 	C 	0.4647	0.9161	0.6608	-0.082
Mof_C 	C 	0.4371	0.9001	0.7	-0.064
Mof_C 	C 	0.48671	0.87091	0.72598	0.302
Mof_C 	C 	0.40705	0.93365	0.5739	0.203
Mof_C 	C 	0.45194	0.96504	0.53392	-0.038
Mof_C 	C 	0.43803	0.95533	0.49994	-0.027
Mof_C 	C 	0.51014	0.00784	0.53352	-0.035
Mof_C 	C 	0.50647	0.00667	0.57426	0.208
Mof_C 	C 	0.61798	0.07018	0.78544	-0.021
Mof_C 	C 	0.61857	0.12507	0.80166	-0.045
Mof_C 	C 	0.64426	0.19806	0.77688	0.393
Mof_C 	C 	0.59559	0.11109	0.84122	-0.094
Mof_C 	C 	0.57105	0.04445	0.8635	0.153
Mof_C 	C 	0.57104	0.99064	0.84712	-0.109
Mof_C 	C 	0.59462	0.00452	0.80736	-0.011
Mof_C 	C 	0.5941	0.9483	0.788	0.293
Mof_C 	C 	0.5034	0.0686	0.9258	0.199
Mof_C 	C 	0.4971	0.0363	0.9632	-0.036
Mof_C 	C 	0.4512	0.0587	0.9984	-0.023
Mof_C 	C 	0.5257	0.984	0.9666	-0.016
Mof_C 	C 	0.5743	0.9784	0.9288	0.214
Mof_C 	C 	0.42224	0.37304	0.71592	-0.001
Mof_C 	C 	0.49124	0.36754	0.69232	-0.059
Mof_C 	C 	0.55675	0.33715	0.7083	0.386
Mof_C 	C 	0.50308	0.38928	0.65264	-0.078
Mof_C 	C 	0.44539	0.41799	0.63722	0.116
Mof_C 	C 	0.3745	0.4231	0.6608	-0.082
Mof_C 	C 	0.3629	0.3999	0.7	-0.064
Mof_C 	C 	0.28731	0.40311	0.72598	0.302
Mof_C 	C 	0.51905	0.49245	0.5739	0.203
Mof_C 	C 	0.51414	0.50104	0.53392	-0.038
Mof_C 	C 	0.56203	0.54473	0.49994	-0.027
Mof_C 	C 	0.45634	0.45864	0.53352	-0.035
Mof_C 	C 	0.41927	0.41907	0.57426	0.208
Mof_C 	C 	0.88202	0.35562	0.21456	-0.021
Mof_C 	C 	0.88143	0.42673	0.19834	-0.045
Mof_C 	C 	0.85574	0.47494	0.22312	0.393
Mof_C 	C 	0.90441	0.45231	0.15878	-0.094
Mof_C 	C 	0.92895	0.40795	0.1365	0.152
Mof_C 	C 	0.92896	0.33776	0.15288	-0.108
Mof_C 	C 	0.90538	0.31188	0.19264	-0.012
Mof_C 	C 	0.9059	0.2363	0.212	0.293
Mof_C 	C 	0.9966	0.4944	0.0742	0.199
Mof_C 	C 	0.0029	0.4995	0.0368	-0.036
Mof_C 	C 	0.0488	0.5571	0.0016	-0.023
Mof_C 	C 	0.9743	0.4506	0.0334	-0.017
Mof_C 	C 	0.9257	0.4072	0.0712	0.214
Mof_C 	C 	0.07776	0.58896	0.28408	-0.002
Mof_C 	C 	0.00876	0.55986	0.30768	-0.059
Mof_C 	C 	0.94325	0.54545	0.2917	0.386
Mof_C 	C 	0.99692	0.54192	0.34736	-0.079
Mof_C 	C 	0.05461	0.55521	0.36278	0.116
Mof_C 	C 	0.1255	0.5839	0.3392	-0.083
Mof_C 	C 	0.1371	0.5999	0.3	-0.063
Mof_C 	C 	0.21269	0.62909	0.27402	0.302
Mof_C 	C 	0.98095	0.56635	0.4261	0.203
Mof_C 	C 	0.98586	0.53496	0.46608	-0.038
Mof_C 	C 	0.93797	0.54467	0.50006	-0.027
Mof_C 	C 	0.04366	0.49216	0.46648	-0.034
Mof_C 	C 	0.08073	0.49333	0.42574	0.208
Mof_C 	C 	0.40342	0.42982	0.21456	-0.021
Mof_C 	C 	0.42023	0.37493	0.19834	-0.045
Mof_C 	C 	0.42114	0.30194	0.22312	0.393
Mof_C 	C 	0.43681	0.38891	0.15878	-0.094
Mof_C 	C 	0.43455	0.45555	0.1365	0.152
Mof_C 	C 	0.41816	0.50936	0.15288	-0.108
Mof_C 	C 	0.40198	0.49548	0.19264	-0.012
Mof_C 	C 	0.3821	0.5517	0.212	0.293
Mof_C 	C 	0.4292	0.4314	0.0742	0.199
Mof_C 	C 	0.4603	0.4637	0.0368	-0.036
Mof_C 	C 	0.4496	0.4413	0.0016	-0.023
Mof_C 	C 	0.4923	0.516	0.0334	-0.017
Mof_C 	C 	0.5031	0.5216	0.0712	0.214
Mof_C 	C 	0.13816	0.12696	0.28408	-0.002
Mof_C 	C 	0.18356	0.13246	0.30768	-0.059
Mof_C 	C 	0.26505	0.16285	0.2917	0.386
Mof_C 	C 	0.15572	0.11072	0.34736	-0.079
Mof_C 	C 	0.08261	0.08201	0.36278	0.117
Mof_C 	C 	0.0353	0.0769	0.3392	-0.086
Mof_C 	C 	0.0629	0.1001	0.3	-0.062
Mof_C 	C 	0.01329	0.09689	0.27402	0.3
Mof_C 	C 	0.09295	0.00755	0.4261	0.201
Mof_C 	C 	0.04806	0.99896	0.46608	-0.037
Mof_C 	C 	0.06197	0.95527	0.50006	-0.027
Mof_C 	C 	0.98986	0.04136	0.46648	-0.035
Mof_C 	C 	0.99353	0.08093	0.42574	0.209
Mof_C 	C 	0.90342	0.85562	0.21456	-0.021
Mof_C 	C 	0.92023	0.92673	0.19834	-0.045
Mof_C 	C 	0.92114	0.97494	0.22312	0.392
Mof_C 	C 	0.93681	0.95231	0.15878	-0.094
Mof_C 	C 	0.93455	0.90795	0.1365	0.152
Mof_C 	C 	0.91816	0.83776	0.15288	-0.108
Mof_C 	C 	0.90198	0.81188	0.19264	-0.012
Mof_C 	C 	0.8821	0.7363	0.212	0.293
Mof_C 	C 	0.9292	0.9944	0.0742	0.198
Mof_C 	C 	0.9603	0.9995	0.0368	-0.036
Mof_C 	C 	0.9496	0.0571	0.0016	-0.021
Mof_C 	C 	0.9923	0.9506	0.0334	-0.019
Mof_C 	C 	0.0031	0.9072	0.0712	0.216
Mof_C 	C 	0.63816	0.08896	0.28408	-0.001
Mof_C 	C 	0.68356	0.05986	0.30768	-0.06
Mof_C 	C 	0.76505	0.04545	0.2917	0.387
Mof_C 	C 	0.65572	0.04192	0.34736	-0.078
Mof_C 	C 	0.58261	0.05521	0.36278	0.115
Mof_C 	C 	0.5353	0.0839	0.3392	-0.082
Mof_C 	C 	0.5629	0.0999	0.3	-0.064
Mof_C 	C 	0.51329	0.12909	0.27402	0.302
Mof_C 	C 	0.59295	0.06635	0.4261	0.203
Mof_C 	C 	0.54806	0.03496	0.46608	-0.038
Mof_C 	C 	0.56197	0.04467	0.50006	-0.027
Mof_C 	C 	0.48986	0.99216	0.46648	-0.035
Mof_C 	C 	0.49353	0.99333	0.42574	0.208
Mof_C 	C 	0.38202	0.92982	0.21456	-0.021
Mof_C 	C 	0.38143	0.87493	0.19834	-0.045
Mof_C 	C 	0.35574	0.80194	0.22312	0.393
Mof_C 	C 	0.40441	0.88891	0.15878	-0.094
Mof_C 	C 	0.42895	0.95555	0.1365	0.153
Mof_C 	C 	0.42896	0.00936	0.15288	-0.109
Mof_C 	C 	0.40538	0.99548	0.19264	-0.011
Mof_C 	C 	0.4059	0.0517	0.212	0.293
Mof_C 	C 	0.4966	0.9314	0.0742	0.199
Mof_C 	C 	0.5029	0.9637	0.0368	-0.036
Mof_C 	C 	0.5488	0.9413	0.0016	-0.023
Mof_C 	C 	0.4743	0.016	0.0334	-0.016
Mof_C 	C 	0.4257	0.0216	0.0712	0.214
Mof_C 	C 	0.57776	0.62696	0.28408	-0.001
Mof_C 	C 	0.50876	0.63246	0.30768	-0.059
Mof_C 	C 	0.44325	0.66285	0.2917	0.386
Mof_C 	C 	0.49692	0.61072	0.34736	-0.078
Mof_C 	C 	0.55461	0.58201	0.36278	0.116
Mof_C 	C 	0.6255	0.5769	0.3392	-0.082
Mof_C 	C 	0.6371	0.6001	0.3	-0.064
Mof_C 	C 	0.71269	0.59689	0.27402	0.302
Mof_C 	C 	0.48095	0.50755	0.4261	0.203
Mof_C 	C 	0.48586	0.49896	0.46608	-0.038
Mof_C 	C 	0.43797	0.45527	0.50006	-0.027
Mof_C 	C 	0.54366	0.54136	0.46648	-0.035
Mof_C 	C 	0.58073	0.58093	0.42574	0.208
Mof_C 	C 	0.11798	0.64438	0.78544	-0.021
Mof_C 	C 	0.11857	0.57327	0.80166	-0.045
Mof_C 	C 	0.14426	0.52506	0.77688	0.393
Mof_C 	C 	0.09559	0.54769	0.84122	-0.094
Mof_C 	C 	0.07105	0.59205	0.8635	0.152
Mof_C 	C 	0.07104	0.66224	0.84712	-0.108
Mof_C 	C 	0.09462	0.68812	0.80736	-0.012
Mof_C 	C 	0.0941	0.7637	0.788	0.293
Mof_C 	C 	0.0034	0.5056	0.9258	0.199
Mof_C 	C 	0.9971	0.5005	0.9632	-0.036
Mof_C 	C 	0.9512	0.4429	0.9984	-0.023
Mof_C 	C 	0.0257	0.5494	0.9666	-0.017
Mof_C 	C 	0.0743	0.5928	0.9288	0.214
Mof_C 	C 	0.92224	0.41104	0.71592	-0.002
Mof_C 	C 	0.99124	0.44014	0.69232	-0.059
Mof_C 	C 	0.05675	0.45455	0.7083	0.386
Mof_C 	C 	0.00308	0.45808	0.65264	-0.079
Mof_C 	C 	0.94539	0.44479	0.63722	0.116
Mof_C 	C 	0.8745	0.4161	0.6608	-0.083
Mof_C 	C 	0.8629	0.4001	0.7	-0.063
Mof_C 	C 	0.78731	0.37091	0.72598	0.302
Mof_C 	C 	0.01905	0.43365	0.5739	0.203
Mof_C 	C 	0.01414	0.46504	0.53392	-0.038
Mof_C 	C 	0.06203	0.45533	0.49994	-0.027
Mof_C 	C 	0.95634	0.50784	0.53352	-0.034
Mof_C 	C 	0.91927	0.50667	0.57426	0.208
Mof_C 	C 	0.59658	0.57018	0.78544	-0.021
Mof_C 	C 	0.57977	0.62507	0.80166	-0.045
Mof_C 	C 	0.57886	0.69806	0.77688	0.393
Mof_C 	C 	0.56319	0.61109	0.84122	-0.094
Mof_C 	C 	0.56545	0.54445	0.8635	0.152
Mof_C 	C 	0.58184	0.49064	0.84712	-0.108
Mof_C 	C 	0.59802	0.50452	0.80736	-0.012
Mof_C 	C 	0.6179	0.4483	0.788	0.293
Mof_C 	C 	0.5708	0.5686	0.9258	0.199
Mof_C 	C 	0.5397	0.5363	0.9632	-0.036
Mof_C 	C 	0.5504	0.5587	0.9984	-0.023
Mof_C 	C 	0.5077	0.484	0.9666	-0.017
Mof_C 	C 	0.4969	0.4784	0.9288	0.214
Mof_C 	C 	0.86184	0.87304	0.71592	-0.002
Mof_C 	C 	0.81644	0.86754	0.69232	-0.059
Mof_C 	C 	0.73495	0.83715	0.7083	0.386
Mof_C 	C 	0.84428	0.88928	0.65264	-0.079
Mof_C 	C 	0.91739	0.91799	0.63722	0.117
Mof_C 	C 	0.9647	0.9231	0.6608	-0.086
Mof_C 	C 	0.9371	0.8999	0.7	-0.062
Mof_C 	C 	0.98671	0.90311	0.72598	0.3
Mof_C 	C 	0.90705	0.99245	0.5739	0.201
Mof_C 	C 	0.95194	0.00104	0.53392	-0.037
Mof_C 	C 	0.93803	0.04473	0.49994	-0.027
Mof_C 	C 	0.01014	0.95864	0.53352	-0.035
Mof_C 	C 	0.00647	0.91907	0.57426	0.209
Mof_N 	N 	0.04698	0.06568	0.90424	-0.182
Mof_N 	N 	0.44478	0.96038	0.59644	-0.183
Mof_N 	N 	0.54878	0.03008	0.90424	-0.181
Mof_N 	N 	0.45878	0.44318	0.59644	-0.183
Mof_N 	N 	0.95122	0.43432	0.09576	-0.181
Mof_N 	N 	0.04122	0.53962	0.40356	-0.184
Mof_N 	N 	0.45302	0.46992	0.09576	-0.181
Mof_N 	N 	0.05522	0.05682	0.40356	-0.184
Mof_N 	N 	0.95302	0.93432	0.09576	-0.182
Mof_N 	N 	0.55522	0.03962	0.40356	-0.183
Mof_N 	N 	0.45122	0.96992	0.09576	-0.181
Mof_N 	N 	0.54122	0.55682	0.40356	-0.183
Mof_N 	N 	0.04878	0.56568	0.90424	-0.181
Mof_N 	N 	0.95878	0.46038	0.59644	-0.184
Mof_N 	N 	0.54698	0.53008	0.90424	-0.181
Mof_N 	N 	0.94478	0.94318	0.59644	-0.184
Mof_O 	O 	0.08317	0.05387	0.74226	-0.507
Mof_O 	O 	0.07253	0.96207	0.79314	-0.451
Mof_O 	O 	0.14183	0.28383	0.75294	-0.34
Mof_O 	O 	0.10986	0.30609	0.80808	-0.376
Mof_O 	O 	0.1246	0.9736	0.9108	-0.185
Mof_O 	O 	0.9626	0.1433	0.9198	-0.205
Mof_O 	O 	0.20274	0.91514	0.74132	-0.443
Mof_O 	O 	0.20749	0.00079	0.68722	-0.496
Mof_O 	O 	0.46283	0.86233	0.76114	-0.338
Mof_O 	O 	0.55547	0.85862	0.71146	-0.542
Mof_O 	O 	0.35183	0.89453	0.58554	-0.235
Mof_O 	O 	0.54871	0.03551	0.58578	-0.228
Mof_O 	O 	0.67457	0.20387	0.74226	-0.507
Mof_O 	O 	0.63433	0.24479	0.79314	-0.452
Mof_O 	O 	0.60523	0.96323	0.75294	-0.34
Mof_O 	O 	0.58206	0.88583	0.80808	-0.376
Mof_O 	O 	0.4646	0.1156	0.9108	-0.187
Mof_O 	O 	0.6176	0.9369	0.9198	-0.205
Mof_O 	O 	0.55594	0.34354	0.74132	-0.443
Mof_O 	O 	0.60529	0.31199	0.68722	-0.495
Mof_O 	O 	0.27603	0.37653	0.76114	-0.338
Mof_O 	O 	0.23307	0.42992	0.71146	-0.542
Mof_O 	O 	0.56263	0.51993	0.58554	-0.235
Mof_O 	O 	0.36551	0.37871	0.58578	-0.228
Mof_O 	O 	0.82543	0.44613	0.25774	-0.507
Mof_O 	O 	0.86567	0.53793	0.20686	-0.452
Mof_O 	O 	0.89477	0.21617	0.24706	-0.34
Mof_O 	O 	0.91794	0.19391	0.19192	-0.376
Mof_O 	O 	0.0354	0.5264	0.0892	-0.187
Mof_O 	O 	0.8824	0.3567	0.0802	-0.205
Mof_O 	O 	0.94406	0.58486	0.25868	-0.443
Mof_O 	O 	0.89471	0.49921	0.31278	-0.495
Mof_O 	O 	0.22397	0.63767	0.23886	-0.338
Mof_O 	O 	0.26693	0.64138	0.28854	-0.542
Mof_O 	O 	0.93737	0.60547	0.41446	-0.235
Mof_O 	O 	0.13449	0.46449	0.41422	-0.228
Mof_O 	O 	0.41683	0.29613	0.25774	-0.507
Mof_O 	O 	0.42747	0.25521	0.20686	-0.452
Mof_O 	O 	0.35817	0.53677	0.24706	-0.34
Mof_O 	O 	0.39014	0.61417	0.19192	-0.376
Mof_O 	O 	0.3754	0.3844	0.0892	-0.187
Mof_O 	O 	0.5374	0.5631	0.0802	-0.205
Mof_O 	O 	0.29726	0.15646	0.25868	-0.443
Mof_O 	O 	0.29251	0.18801	0.31278	-0.495
Mof_O 	O 	0.03717	0.12347	0.23886	-0.338
Mof_O 	O 	0.94453	0.07008	0.28854	-0.541
Mof_O 	O 	0.14817	0.98007	0.41446	-0.234
Mof_O 	O 	0.95129	0.12129	0.41422	-0.228
Mof_O 	O 	0.91683	0.94613	0.25774	-0.507
Mof_O 	O 	0.92747	0.03793	0.20686	-0.451
Mof_O 	O 	0.85817	0.71617	0.24706	-0.34
Mof_O 	O 	0.89014	0.69391	0.19192	-0.376
Mof_O 	O 	0.8754	0.0264	0.0892	-0.185
Mof_O 	O 	0.0374	0.8567	0.0802	-0.205
Mof_O 	O 	0.79726	0.08486	0.25868	-0.443
Mof_O 	O 	0.79251	0.99921	0.31278	-0.496
Mof_O 	O 	0.53717	0.13767	0.23886	-0.338
Mof_O 	O 	0.44453	0.14138	0.28854	-0.542
Mof_O 	O 	0.64817	0.10547	0.41446	-0.235
Mof_O 	O 	0.45129	0.96449	0.41422	-0.228
Mof_O 	O 	0.32543	0.79613	0.25774	-0.507
Mof_O 	O 	0.36567	0.75521	0.20686	-0.452
Mof_O 	O 	0.39477	0.03677	0.24706	-0.34
Mof_O 	O 	0.41794	0.11417	0.19192	-0.376
Mof_O 	O 	0.5354	0.8844	0.0892	-0.187
Mof_O 	O 	0.3824	0.0631	0.0802	-0.205
Mof_O 	O 	0.44406	0.65646	0.25868	-0.443
Mof_O 	O 	0.39471	0.68801	0.31278	-0.495
Mof_O 	O 	0.72397	0.62347	0.23886	-0.338
Mof_O 	O 	0.76693	0.57008	0.28854	-0.542
Mof_O 	O 	0.43737	0.48007	0.41446	-0.235
Mof_O 	O 	0.63449	0.62129	0.41422	-0.228
Mof_O 	O 	0.17457	0.55387	0.74226	-0.507
Mof_O 	O 	0.13433	0.46207	0.79314	-0.452
Mof_O 	O 	0.10523	0.78383	0.75294	-0.34
Mof_O 	O 	0.08206	0.80609	0.80808	-0.376
Mof_O 	O 	0.9646	0.4736	0.9108	-0.187
Mof_O 	O 	0.1176	0.6433	0.9198	-0.205
Mof_O 	O 	0.05594	0.41514	0.74132	-0.443
Mof_O 	O 	0.10529	0.50079	0.68722	-0.495
Mof_O 	O 	0.77603	0.36233	0.76114	-0.338
Mof_O 	O 	0.73307	0.35862	0.71146	-0.542
Mof_O 	O 	0.06263	0.39453	0.58554	-0.235
Mof_O 	O 	0.86551	0.53551	0.58578	-0.228
Mof_O 	O 	0.58317	0.70387	0.74226	-0.507
Mof_O 	O 	0.57253	0.74479	0.79314	-0.452
Mof_O 	O 	0.64183	0.46323	0.75294	-0.34
Mof_O 	O 	0.60986	0.38583	0.80808	-0.376
Mof_O 	O 	0.6246	0.6156	0.9108	-0.187
Mof_O 	O 	0.4626	0.4369	0.9198	-0.205
Mof_O 	O 	0.70274	0.84354	0.74132	-0.443
Mof_O 	O 	0.70749	0.81199	0.68722	-0.495
Mof_O 	O 	0.96283	0.87653	0.76114	-0.338
Mof_O 	O 	0.05547	0.92992	0.71146	-0.541
Mof_O 	O 	0.85183	0.01993	0.58554	-0.234
Mof_O 	O 	0.04871	0.87871	0.58578	-0.228
_end
