data_functionalizedCrystal
_audit_creation_method	'EQeq! by Chris Wilmer'
_symmetry_space_group_name_H-M	'P1'
_symmetry_Int_Tables_number	1
_symmetry_cell_setting	triclinic
loop_
_symmetry_equiv_pos_as_xyz
  x,y,z
_cell_length_a	12.2821
_cell_length_b	14.426
_cell_length_c	12.5733
_cell_angle_alpha	90
_cell_angle_beta	113.909
_cell_angle_gamma	90
loop_
_atom_site_label
_atom_site_type_symbol
_atom_site_fract_x
_atom_site_fract_y
_atom_site_fract_z
_atom_site_charge
Mof_C 	C 	0.9264	0.2548	0.2869	-0.108
Mof_C 	C 	0.0331	0.2524	0.2737	0.027
Mof_H 	H 	0.0904	0.2974	0.3096	0.041
Mof_C 	C 	0.0557	0.1837	0.2078	-0.159
Mof_C 	C 	0.9689	0.1173	0.1543	0.095
Mof_H 	H 	0.9833	0.0706	0.1106	0.011
Mof_C 	C 	0.8608	0.1197	0.1651	-0.133
Mof_C 	C 	0.8403	0.188	0.2329	0.058
Mof_H 	H 	0.7688	0.1889	0.242	0.022
Mof_C 	C 	0.9043	0.3314	0.3567	0.385
Mof_C 	C 	0.1689	0.187	0.1891	0.337
Mof_C 	C 	0.7644	0.0512	0.098	0.314
Mof_C 	C 	0.8949	0.5086	0.7329	0.099
Mof_H 	H 	0.8421	0.5415	0.6694	0.029
Mof_C 	C 	0.9111	0.5344	0.8432	-0.2
Mof_H 	H 	0.8691	0.5846	0.8539	0.126
Mof_C 	C 	0.99	0.4861	0.9393	0.25
Mof_C 	C 	0.0497	0.4109	0.9173	-0.23
Mof_H 	H 	0.1027	0.3764	0.979	0.117
Mof_C 	C 	0.0305	0.3876	0.8051	0.076
Mof_H 	H 	0.0709	0.3376	0.7915	-0.01
Mof_Co	Co	0.75977	0.36257	0.50355	1.135
Mof_N 	N 	0.9543	0.4362	0.7157	-0.067
Mof_O 	O 	0.8083	0.33034	0.3688	-0.473
Mof_O 	O 	0.9863	0.39114	0.3973	-0.413
Mof_O 	O 	0.2386	0.2537	0.2337	-0.297
Mof_O 	O 	0.1843	0.12485	0.1264	-0.435
Mof_O 	O 	0.7887	0.99878	0.0299	-0.39
Mof_O 	O 	0.6689	0.05237	0.111	-0.42
Mof_O 	O 	0.9346	0.41111	0.6058	-0.456
Mof_H 	H 	0.983	0.355	0.6175	0.141
Mof_C 	C 	0.5736	0.7548	0.2131	-0.148
Mof_C 	C 	0.4669	0.7524	0.2263	0.069
Mof_H 	H 	0.4096	0.7974	0.1904	0.031
Mof_C 	C 	0.4443	0.6837	0.2922	-0.128
Mof_C 	C 	0.5311	0.6173	0.3457	0.063
Mof_H 	H 	0.5167	0.5706	0.3894	0.033
Mof_C 	C 	0.6392	0.6197	0.3349	-0.134
Mof_C 	C 	0.6597	0.688	0.2671	0.076
Mof_H 	H 	0.7312	0.6889	0.258	0.021
Mof_C 	C 	0.5957	0.8314	0.1433	0.397
Mof_C 	C 	0.3311	0.687	0.3109	0.333
Mof_C 	C 	0.7356	0.5512	0.402	0.373
Mof_C 	C 	0.6051	0.0086	0.7671	0.044
Mof_H 	H 	0.6579	0.0415	0.8306	0.043
Mof_C 	C 	0.5889	0.0344	0.6568	-0.205
Mof_H 	H 	0.6309	0.0846	0.6461	0.11
Mof_C 	C 	0.51	0.9861	0.5607	0.194
Mof_C 	C 	0.4503	0.9109	0.5827	-0.176
Mof_H 	H 	0.3973	0.8764	0.521	0.082
Mof_C 	C 	0.4695	0.8876	0.6949	0.083
Mof_H 	H 	0.4291	0.8376	0.7085	-0.006
Mof_Co	Co	0.74023	0.86257	0.99645	1.157
Mof_N 	N 	0.5457	0.9362	0.7843	-0.058
Mof_O 	O 	0.6917	0.83034	0.1312	-0.477
Mof_O 	O 	0.5137	0.89114	0.1027	-0.429
Mof_O 	O 	0.2614	0.7537	0.2663	-0.295
Mof_O 	O 	0.3157	0.62485	0.3736	-0.406
Mof_O 	O 	0.7113	0.49878	0.4701	-0.426
Mof_O 	O 	0.8311	0.55237	0.389	-0.401
Mof_O 	O 	0.5654	0.91111	0.8942	-0.438
Mof_H 	H 	0.517	0.855	0.8825	0.137
Mof_C 	C 	0.0736	0.7452	0.7131	-0.18
Mof_C 	C 	0.9669	0.7476	0.7263	0.106
Mof_H 	H 	0.9096	0.7026	0.6904	0.032
Mof_C 	C 	0.9443	0.8163	0.7922	-0.088
Mof_C 	C 	0.0311	0.8827	0.8457	0.026
Mof_H 	H 	0.0167	0.9294	0.8894	0.054
Mof_C 	C 	0.1392	0.8803	0.8349	-0.126
Mof_C 	C 	0.1597	0.812	0.7671	0.086
Mof_H 	H 	0.2312	0.8111	0.758	0.019
Mof_C 	C 	0.0957	0.6686	0.6433	0.409
Mof_C 	C 	0.8311	0.813	0.8109	0.329
Mof_C 	C 	0.2356	0.9488	0.902	0.402
Mof_C 	C 	0.1051	0.4914	0.2671	-0.05
Mof_H 	H 	0.1579	0.4585	0.3306	0.072
Mof_C 	C 	0.0889	0.4656	0.1568	0.031
Mof_H 	H 	0.1309	0.4154	0.1461	0.012
Mof_C 	C 	0.01	0.5139	0.0607	-0.179
Mof_C 	C 	0.9503	0.5891	0.0827	0.054
Mof_H 	H 	0.8973	0.6236	0.021	-0.017
Mof_C 	C 	0.9695	0.6124	0.1949	-0.012
Mof_H 	H 	0.9291	0.6624	0.2085	0.031
Mof_Co	Co	0.24023	0.63743	0.49645	1.136
Mof_N 	N 	0.0457	0.5638	0.2843	-0.048
Mof_O 	O 	0.1917	0.66966	0.6312	-0.475
Mof_O 	O 	0.0137	0.60886	0.6027	-0.452
Mof_O 	O 	0.7614	0.7463	0.7663	-0.277
Mof_O 	O 	0.8157	0.87515	0.8736	-0.379
Mof_O 	O 	0.2113	0.00122	0.9701	-0.43
Mof_O 	O 	0.3311	0.94763	0.889	-0.39
Mof_O 	O 	0.0654	0.58889	0.3942	-0.47
Mof_H 	H 	0.017	0.645	0.3825	0.124
Mof_C 	C 	0.4264	0.2452	0.7869	-0.139
Mof_C 	C 	0.5331	0.2476	0.7737	0.065
Mof_H 	H 	0.5904	0.2026	0.8096	0.044
Mof_C 	C 	0.5557	0.3163	0.7078	-0.118
Mof_C 	C 	0.4689	0.3827	0.6543	0.062
Mof_H 	H 	0.4833	0.4294	0.6106	0.036
Mof_C 	C 	0.3608	0.3803	0.6651	-0.132
Mof_C 	C 	0.3403	0.312	0.7329	0.074
Mof_H 	H 	0.2688	0.3111	0.742	0.02
Mof_C 	C 	0.4043	0.1686	0.8567	0.394
Mof_C 	C 	0.6689	0.313	0.6891	0.333
Mof_C 	C 	0.2644	0.4488	0.598	0.375
Mof_C 	C 	0.3949	0.9914	0.2329	0.021
Mof_H 	H 	0.3421	0.9585	0.1694	0.055
Mof_C 	C 	0.4111	0.9656	0.3432	0.031
Mof_H 	H 	0.3691	0.9154	0.3539	0.032
Mof_C 	C 	0.49	0.0139	0.4393	-0.115
Mof_C 	C 	0.5497	0.0891	0.4173	-0.014
Mof_H 	H 	0.6027	0.1236	0.479	0.015
Mof_C 	C 	0.5305	0.1124	0.3051	-0.02
Mof_H 	H 	0.5709	0.1624	0.2915	0.024
Mof_Co	Co	0.25977	0.13743	0.00355	1.106
Mof_N 	N 	0.4543	0.0638	0.2157	-0.061
Mof_O 	O 	0.3083	0.16966	0.8688	-0.461
Mof_O 	O 	0.4863	0.10886	0.8973	-0.417
Mof_O 	O 	0.7386	0.2463	0.7337	-0.278
Mof_O 	O 	0.6843	0.37515	0.6264	-0.402
Mof_O 	O 	0.2887	0.50122	0.5299	-0.429
Mof_O 	O 	0.1689	0.44763	0.611	-0.419
Mof_O 	O 	0.4346	0.08889	0.1058	-0.486
Mof_H 	H 	0.483	0.145	0.1175	0.129
Mof_Co	Co	2.7911e-17	0.5	0.5	1.182
Mof_Co	Co	0.5	0	-0	1.152
_end
