data_functionalizedCrystal
_audit_creation_method	'EQeq! by Chris Wilmer'
_symmetry_space_group_name_H-M	'P1'
_symmetry_Int_Tables_number	1
_symmetry_cell_setting	triclinic
loop_
_symmetry_equiv_pos_as_xyz
  x,y,z
_cell_length_a	18.465
_cell_length_b	9.367
_cell_length_c	10.059
_cell_angle_alpha	90
_cell_angle_beta	90
_cell_angle_gamma	90
loop_
_atom_site_label
_atom_site_type_symbol
_atom_site_fract_x
_atom_site_fract_y
_atom_site_fract_z
_atom_site_charge
Mof_Ru	Ru	0.48476	0.05878	0.59411	0.981
Mof_C 	C 	0.5289	0.7671	0.6432	0.555
Mof_C 	C 	0.6372	0.0819	0.5286	0.58
Mof_O 	O 	0.5359	0.7646	0.5157	-0.806
Mof_O 	O 	0.5051	0.8807	0.7035	-0.709
Mof_O 	O 	0.5463	0.6577	0.7085	-0.723
Mof_O 	O 	0.6192	0.002	0.4301	-0.636
Mof_O 	O 	0.5884	0.1184	0.6171	-0.723
Mof_O 	O 	0.7022	0.1214	0.5428	-0.85
Mof_K 	K 	0.4292	0.5025	0.5548	1.625
Mof_Ru	Ru	0.01524	0.44122	0.59411	0.984
Mof_C 	C 	0.9711	0.7329	0.6432	0.556
Mof_C 	C 	0.8628	0.4181	0.5286	0.581
Mof_O 	O 	0.9641	0.7354	0.5157	-0.802
Mof_O 	O 	0.9949	0.6193	0.7035	-0.709
Mof_O 	O 	0.9537	0.8423	0.7085	-0.719
Mof_O 	O 	0.8808	0.498	0.4301	-0.636
Mof_O 	O 	0.9116	0.3816	0.6171	-0.724
Mof_O 	O 	0.7978	0.3786	0.5428	-0.849
Mof_K 	K 	0.0708	0.9975	0.5548	1.614
Mof_Ru	Ru	0.51524	0.55878	0.90589	0.979
Mof_C 	C 	0.4711	0.2671	0.8568	0.556
Mof_C 	C 	0.3628	0.5819	0.9714	0.583
Mof_O 	O 	0.4641	0.2646	0.9843	-0.803
Mof_O 	O 	0.4949	0.3807	0.7965	-0.709
Mof_O 	O 	0.4537	0.1577	0.7915	-0.722
Mof_O 	O 	0.3808	0.502	0.0699	-0.639
Mof_O 	O 	0.4116	0.6184	0.8829	-0.723
Mof_O 	O 	0.2978	0.6214	0.9572	-0.848
Mof_K 	K 	0.5708	0.0025	0.9452	1.622
Mof_Ru	Ru	0.98476	0.94122	0.90589	0.969
Mof_C 	C 	0.0289	0.2329	0.8568	0.555
Mof_C 	C 	0.1372	0.9181	0.9714	0.589
Mof_O 	O 	0.0359	0.2354	0.9843	-0.79
Mof_O 	O 	0.0051	0.1193	0.7965	-0.699
Mof_O 	O 	0.0463	0.3423	0.7915	-0.716
Mof_O 	O 	0.1192	0.998	0.0699	-0.644
Mof_O 	O 	0.0884	0.8816	0.8829	-0.72
Mof_O 	O 	0.2022	0.8786	0.9572	-0.849
Mof_K 	K 	0.9292	0.4975	0.9452	1.593
Mof_Ru	Ru	0.51524	0.94122	0.40589	0.982
Mof_C 	C 	0.4711	0.2329	0.3568	0.556
Mof_C 	C 	0.3628	0.9181	0.4714	0.581
Mof_O 	O 	0.4641	0.2354	0.4843	-0.805
Mof_O 	O 	0.4949	0.1193	0.2965	-0.709
Mof_O 	O 	0.4537	0.3423	0.2915	-0.723
Mof_O 	O 	0.3808	0.998	0.5699	-0.636
Mof_O 	O 	0.4116	0.8816	0.3829	-0.723
Mof_O 	O 	0.2978	0.8786	0.4572	-0.85
Mof_K 	K 	0.5708	0.4975	0.4452	1.625
Mof_Ru	Ru	0.98476	0.55878	0.40589	0.984
Mof_C 	C 	0.0289	0.2671	0.3568	0.556
Mof_C 	C 	0.1372	0.5819	0.4714	0.581
Mof_O 	O 	0.0359	0.2646	0.4843	-0.802
Mof_O 	O 	0.0051	0.3807	0.2965	-0.709
Mof_O 	O 	0.0463	0.1577	0.2915	-0.719
Mof_O 	O 	0.1192	0.502	0.5699	-0.636
Mof_O 	O 	0.0884	0.6184	0.3829	-0.724
Mof_O 	O 	0.2022	0.6214	0.4572	-0.849
Mof_K 	K 	0.9292	0.0025	0.4452	1.614
Mof_Ru	Ru	0.48476	0.44122	0.09411	0.979
Mof_C 	C 	0.5289	0.7329	0.1432	0.556
Mof_C 	C 	0.6372	0.4181	0.0286	0.583
Mof_O 	O 	0.5359	0.7354	0.0157	-0.803
Mof_O 	O 	0.5051	0.6193	0.2035	-0.709
Mof_O 	O 	0.5463	0.8423	0.2085	-0.722
Mof_O 	O 	0.6192	0.498	0.9301	-0.639
Mof_O 	O 	0.5884	0.3816	0.1171	-0.723
Mof_O 	O 	0.7022	0.3786	0.0428	-0.848
Mof_K 	K 	0.4292	0.9975	0.0548	1.622
Mof_Ru	Ru	0.01524	0.05878	0.09411	0.969
Mof_C 	C 	0.9711	0.7671	0.1432	0.555
Mof_C 	C 	0.8628	0.0819	0.0286	0.589
Mof_O 	O 	0.9641	0.7646	0.0157	-0.79
Mof_O 	O 	0.9949	0.8807	0.2035	-0.699
Mof_O 	O 	0.9537	0.6577	0.2085	-0.716
Mof_O 	O 	0.8808	0.002	0.9301	-0.644
Mof_O 	O 	0.9116	0.1184	0.1171	-0.72
Mof_O 	O 	0.7978	0.1214	0.0428	-0.849
Mof_K 	K 	0.0708	0.5025	0.0548	1.593
Mof_Mg	Mg	0.75	0.25	0.6852	1.412
Mof_Mg	Mg	0.25	0.75	0.8148	1.412
Mof_Mg	Mg	0.25	0.75	0.3148	1.412
Mof_Mg	Mg	0.75	0.25	0.1852	1.412
_end
