data_functionalizedCrystal
_audit_creation_method	'EQeq! by Chris Wilmer'
_symmetry_space_group_name_H-M	'P1'
_symmetry_Int_Tables_number	1
_symmetry_cell_setting	triclinic
loop_
_symmetry_equiv_pos_as_xyz
  x,y,z
_cell_length_a	17.3712
_cell_length_b	17.3712
_cell_length_c	26.785
_cell_angle_alpha	93.3913
_cell_angle_beta	93.3913
_cell_angle_gamma	111.133
loop_
_atom_site_label
_atom_site_type_symbol
_atom_site_fract_x
_atom_site_fract_y
_atom_site_fract_z
_atom_site_charge
Mof_In	In	0.37202	0.85578	0.88457	2.496
Mof_In	In	0.85578	0.37202	0.38457	2.496
Mof_H 	H 	0.2114	0.7628	0.0236	0.031
Mof_H 	H 	0.0942	0.6838	0.0598	0.06
Mof_H 	H 	0.9699	0.6209	0.9237	0.061
Mof_H 	H 	0.0864	0.7018	0.888	0.042
Mof_H 	H 	0.798	0.3422	0.2115	0.045
Mof_H 	H 	0.7941	0.3743	0.1296	0.073
Mof_H 	H 	0.9815	0.5919	0.1674	0.058
Mof_H 	H 	0.9839	0.5609	0.2499	0.033
Mof_H 	H 	0.3915	0.1395	0.869	0.04
Mof_H 	H 	0.4625	0.2811	0.8832	0.059
Mof_H 	H 	0.5976	0.2418	0.9995	0.058
Mof_H 	H 	0.5306	0.102	0.9831	0.038
Mof_H 	H 	0.5762	0.7636	0.9559	0.03
Mof_H 	H 	0.6333	0.6701	0.9781	0.061
Mof_H 	H 	0.454	0.4896	0.8926	0.058
Mof_H 	H 	0.3939	0.5853	0.8684	0.036
Mof_H 	H 	0.7578	0.4468	0.0729	0.077
Mof_H 	H 	0.8599	0.5833	0.9603	0.067
Mof_H 	H 	0.002	0.5782	0.0835	0.065
Mof_H 	H 	0.7091	0.5949	0.9731	0.067
Mof_H 	H 	0.6898	0.3594	0.9865	0.071
Mof_H 	H 	0.4973	0.4065	0.9226	0.066
Mof_H 	H 	0.7628	0.2114	0.5236	0.03
Mof_H 	H 	0.6838	0.0942	0.5598	0.059
Mof_H 	H 	0.6209	0.9699	0.4237	0.061
Mof_H 	H 	0.7018	0.0864	0.388	0.041
Mof_H 	H 	0.3422	0.798	0.7115	0.045
Mof_H 	H 	0.3743	0.7941	0.6296	0.073
Mof_H 	H 	0.5919	0.9815	0.6674	0.058
Mof_H 	H 	0.5609	0.9839	0.7499	0.033
Mof_H 	H 	0.1395	0.3915	0.369	0.039
Mof_H 	H 	0.2811	0.4625	0.3832	0.059
Mof_H 	H 	0.2418	0.5976	0.4995	0.058
Mof_H 	H 	0.102	0.5306	0.4831	0.038
Mof_H 	H 	0.7636	0.5762	0.4559	0.03
Mof_H 	H 	0.6701	0.6333	0.4781	0.061
Mof_H 	H 	0.4896	0.454	0.3926	0.058
Mof_H 	H 	0.5853	0.3939	0.3684	0.036
Mof_H 	H 	0.4468	0.7578	0.5729	0.076
Mof_H 	H 	0.5833	0.8599	0.4603	0.067
Mof_H 	H 	0.5782	0.002	0.5835	0.066
Mof_H 	H 	0.5949	0.7091	0.4731	0.067
Mof_H 	H 	0.3594	0.6898	0.4865	0.072
Mof_H 	H 	0.4065	0.4973	0.4226	0.066
Mof_C 	C 	0.16093	0.74093	0.9527	-0.09
Mof_C 	C 	0.1622	0.7344	0.00315	0.022
Mof_C 	C 	0.09213	0.68667	0.02487	-0.097
Mof_C 	C 	0.01847	0.64281	0.99525	0.034
Mof_C 	C 	0.01875	0.64985	0.94445	-0.091
Mof_C 	C 	0.08834	0.69806	0.92284	0.02
Mof_C 	C 	0.89048	0.44892	0.23904	-0.084
Mof_C 	C 	0.83461	0.39325	0.20259	0.027
Mof_C 	C 	0.83256	0.41244	0.15378	-0.088
Mof_C 	C 	0.88665	0.48779	0.13928	0.028
Mof_C 	C 	0.94346	0.54164	0.1763	-0.09
Mof_C 	C 	0.94542	0.52318	0.22551	0.016
Mof_C 	C 	0.45629	0.10623	0.9239	-0.084
Mof_C 	C 	0.43462	0.16052	0.89477	0.011
Mof_C 	C 	0.47627	0.24505	0.90364	-0.088
Mof_C 	C 	0.53891	0.27747	0.94291	0.022
Mof_C 	C 	0.5568	0.22148	0.97237	-0.084
Mof_C 	C 	0.51667	0.13809	0.96279	0.017
Mof_C 	C 	0.48146	0.68402	0.9096	-0.096
Mof_C 	C 	0.55685	0.57097	0.93289	0.03
Mof_C 	C 	0.5521	0.7083	0.9421	0.03
Mof_C 	C 	0.587	0.6528	0.9543	-0.095
Mof_C 	C 	0.4808	0.546	0.9035	-0.086
Mof_C 	C 	0.4428	0.6024	0.8898	0.019
Mof_C 	C 	0.8808	0.51092	0.08742	0.05
Mof_C 	C 	0.80447	0.48369	0.05949	-0.113
Mof_C 	C 	0.79584	0.51002	0.01199	0.044
Mof_C 	C 	0.86562	0.56386	0.99177	-0.111
Mof_C 	C 	0.94386	0.58886	0.01818	0.046
Mof_C 	C 	0.94971	0.56169	0.0656	-0.109
Mof_C 	C 	0.59618	0.51066	0.94636	0.046
Mof_C 	C 	0.67743	0.53785	0.96866	-0.11
Mof_C 	C 	0.71165	0.48143	0.9843	0.044
Mof_C 	C 	0.66605	0.39723	0.97601	-0.111
Mof_C 	C 	0.58629	0.36757	0.95262	0.049
Mof_C 	C 	0.55154	0.42552	0.93812	-0.108
Mof_C 	C 	0.23714	0.78934	0.92907	0.333
Mof_C 	C 	0.89023	0.43137	0.29406	0.34
Mof_C 	C 	0.41742	0.01478	0.91143	0.316
Mof_C 	C 	0.44043	0.74403	0.89911	0.348
Mof_C 	C 	0.74093	0.16093	0.4527	-0.092
Mof_C 	C 	0.7344	0.1622	0.50315	0.024
Mof_C 	C 	0.68667	0.09213	0.52487	-0.096
Mof_C 	C 	0.64281	0.01847	0.49525	0.033
Mof_C 	C 	0.64985	0.01875	0.44445	-0.093
Mof_C 	C 	0.69806	0.08834	0.42284	0.022
Mof_C 	C 	0.44892	0.89048	0.73904	-0.084
Mof_C 	C 	0.39325	0.83461	0.70259	0.027
Mof_C 	C 	0.41244	0.83256	0.65378	-0.088
Mof_C 	C 	0.48779	0.88665	0.63928	0.027
Mof_C 	C 	0.54164	0.94346	0.6763	-0.09
Mof_C 	C 	0.52318	0.94542	0.72551	0.016
Mof_C 	C 	0.10623	0.45629	0.4239	-0.085
Mof_C 	C 	0.16052	0.43462	0.39477	0.012
Mof_C 	C 	0.24505	0.47627	0.40364	-0.089
Mof_C 	C 	0.27747	0.53891	0.44291	0.023
Mof_C 	C 	0.22148	0.5568	0.47237	-0.084
Mof_C 	C 	0.13809	0.51667	0.46279	0.018
Mof_C 	C 	0.68402	0.48146	0.4096	-0.096
Mof_C 	C 	0.57097	0.55685	0.43289	0.03
Mof_C 	C 	0.7083	0.5521	0.4421	0.03
Mof_C 	C 	0.6528	0.587	0.4543	-0.095
Mof_C 	C 	0.546	0.4808	0.4035	-0.086
Mof_C 	C 	0.6024	0.4428	0.3898	0.019
Mof_C 	C 	0.51092	0.8808	0.58742	0.05
Mof_C 	C 	0.48369	0.80447	0.55949	-0.112
Mof_C 	C 	0.51002	0.79584	0.51199	0.043
Mof_C 	C 	0.56386	0.86562	0.49177	-0.109
Mof_C 	C 	0.58886	0.94386	0.51818	0.046
Mof_C 	C 	0.56169	0.94971	0.5656	-0.11
Mof_C 	C 	0.51066	0.59618	0.44636	0.047
Mof_C 	C 	0.53785	0.67743	0.46866	-0.111
Mof_C 	C 	0.48143	0.71165	0.4843	0.045
Mof_C 	C 	0.39723	0.66605	0.47601	-0.112
Mof_C 	C 	0.36757	0.58629	0.45262	0.049
Mof_C 	C 	0.42552	0.55154	0.43812	-0.108
Mof_C 	C 	0.78934	0.23714	0.42907	0.334
Mof_C 	C 	0.43137	0.89023	0.79406	0.34
Mof_C 	C 	0.01478	0.41742	0.41143	0.319
Mof_C 	C 	0.74403	0.44043	0.39911	0.347
Mof_O 	O 	0.23477	0.79599	0.88268	-0.528
Mof_O 	O 	0.3053	0.82186	0.95554	-0.516
Mof_O 	O 	0.83925	0.36249	0.30437	-0.579
Mof_O 	O 	0.93858	0.48382	0.32607	-0.4
Mof_O 	O 	0.35452	0.98296	0.88055	-0.476
Mof_O 	O 	0.45174	0.96932	0.93112	-0.532
Mof_O 	O 	0.48105	0.82049	0.90587	-0.535
Mof_O 	O 	0.36558	0.71894	0.88428	-0.494
Mof_O 	O 	0.79599	0.23477	0.38268	-0.529
Mof_O 	O 	0.82186	0.3053	0.45554	-0.517
Mof_O 	O 	0.36249	0.83925	0.80437	-0.579
Mof_O 	O 	0.48382	0.93858	0.82607	-0.4
Mof_O 	O 	0.98296	0.35452	0.38055	-0.477
Mof_O 	O 	0.96932	0.45174	0.43112	-0.534
Mof_O 	O 	0.82049	0.48105	0.40587	-0.535
Mof_O 	O 	0.71894	0.36558	0.38428	-0.494
Mof_In	In	0.14422	0.62798	0.61543	2.495
Mof_In	In	0.62798	0.14422	0.11543	2.495
Mof_H 	H 	0.2372	0.7886	0.4764	0.03
Mof_H 	H 	0.3162	0.9058	0.4402	0.059
Mof_H 	H 	0.3791	0.0301	0.5763	0.061
Mof_H 	H 	0.2982	0.9136	0.612	0.041
Mof_H 	H 	0.6578	0.202	0.2885	0.045
Mof_H 	H 	0.6257	0.2059	0.3704	0.073
Mof_H 	H 	0.4081	0.0185	0.3326	0.058
Mof_H 	H 	0.4391	0.0161	0.2501	0.033
Mof_H 	H 	0.8605	0.6085	0.631	0.039
Mof_H 	H 	0.7189	0.5375	0.6168	0.059
Mof_H 	H 	0.7582	0.4024	0.5005	0.058
Mof_H 	H 	0.898	0.4694	0.5169	0.038
Mof_H 	H 	0.2364	0.4238	0.5441	0.03
Mof_H 	H 	0.3299	0.3667	0.5219	0.061
Mof_H 	H 	0.5104	0.546	0.6074	0.058
Mof_H 	H 	0.4147	0.6061	0.6316	0.036
Mof_H 	H 	0.5532	0.2422	0.4271	0.076
Mof_H 	H 	0.4167	0.1401	0.5397	0.067
Mof_H 	H 	0.4218	0.998	0.4165	0.066
Mof_H 	H 	0.4051	0.2909	0.5269	0.067
Mof_H 	H 	0.6406	0.3102	0.5135	0.072
Mof_H 	H 	0.5935	0.5027	0.5774	0.066
Mof_H 	H 	0.7886	0.2372	0.9764	0.03
Mof_H 	H 	0.9058	0.3162	0.9402	0.059
Mof_H 	H 	0.0301	0.3791	0.0763	0.06
Mof_H 	H 	0.9136	0.2982	0.112	0.041
Mof_H 	H 	0.202	0.6578	0.7885	0.045
Mof_H 	H 	0.2059	0.6257	0.8704	0.073
Mof_H 	H 	0.0185	0.4081	0.8326	0.058
Mof_H 	H 	0.0161	0.4391	0.7501	0.033
Mof_H 	H 	0.6085	0.8605	0.131	0.04
Mof_H 	H 	0.5375	0.7189	0.1168	0.059
Mof_H 	H 	0.4024	0.7582	0.0005	0.058
Mof_H 	H 	0.4694	0.898	0.0169	0.038
Mof_H 	H 	0.4238	0.2364	0.0441	0.03
Mof_H 	H 	0.3667	0.3299	0.0219	0.061
Mof_H 	H 	0.546	0.5104	0.1074	0.058
Mof_H 	H 	0.6061	0.4147	0.1316	0.036
Mof_H 	H 	0.2422	0.5532	0.9271	0.077
Mof_H 	H 	0.1401	0.4167	0.0397	0.067
Mof_H 	H 	0.998	0.4218	0.9165	0.065
Mof_H 	H 	0.2909	0.4051	0.0269	0.067
Mof_H 	H 	0.3102	0.6406	0.0135	0.071
Mof_H 	H 	0.5027	0.5935	0.0774	0.066
Mof_C 	C 	0.25907	0.83907	0.5473	-0.092
Mof_C 	C 	0.2656	0.8378	0.49685	0.024
Mof_C 	C 	0.31333	0.90787	0.47513	-0.096
Mof_C 	C 	0.35719	0.98153	0.50475	0.033
Mof_C 	C 	0.35015	0.98125	0.55555	-0.093
Mof_C 	C 	0.30194	0.91166	0.57716	0.022
Mof_C 	C 	0.55108	0.10952	0.26096	-0.084
Mof_C 	C 	0.60675	0.16539	0.29741	0.027
Mof_C 	C 	0.58756	0.16744	0.34622	-0.088
Mof_C 	C 	0.51221	0.11335	0.36072	0.027
Mof_C 	C 	0.45836	0.05654	0.3237	-0.09
Mof_C 	C 	0.47682	0.05458	0.27449	0.016
Mof_C 	C 	0.89377	0.54371	0.5761	-0.085
Mof_C 	C 	0.83948	0.56538	0.60523	0.012
Mof_C 	C 	0.75495	0.52373	0.59636	-0.089
Mof_C 	C 	0.72253	0.46109	0.55709	0.023
Mof_C 	C 	0.77852	0.4432	0.52763	-0.084
Mof_C 	C 	0.86191	0.48333	0.53721	0.018
Mof_C 	C 	0.31598	0.51854	0.5904	-0.096
Mof_C 	C 	0.42903	0.44315	0.56711	0.03
Mof_C 	C 	0.2917	0.4479	0.5579	0.03
Mof_C 	C 	0.3472	0.413	0.5457	-0.095
Mof_C 	C 	0.454	0.5192	0.5965	-0.086
Mof_C 	C 	0.3976	0.5572	0.6102	0.019
Mof_C 	C 	0.48908	0.1192	0.41258	0.05
Mof_C 	C 	0.51631	0.19553	0.44051	-0.112
Mof_C 	C 	0.48998	0.20416	0.48801	0.043
Mof_C 	C 	0.43614	0.13438	0.50823	-0.109
Mof_C 	C 	0.41114	0.05614	0.48182	0.046
Mof_C 	C 	0.43831	0.05029	0.4344	-0.11
Mof_C 	C 	0.48934	0.40382	0.55364	0.047
Mof_C 	C 	0.46215	0.32257	0.53134	-0.111
Mof_C 	C 	0.51857	0.28835	0.5157	0.045
Mof_C 	C 	0.60277	0.33395	0.52399	-0.112
Mof_C 	C 	0.63243	0.41371	0.54738	0.049
Mof_C 	C 	0.57448	0.44846	0.56188	-0.108
Mof_C 	C 	0.21066	0.76286	0.57093	0.334
Mof_C 	C 	0.56863	0.10977	0.20594	0.34
Mof_C 	C 	0.98522	0.58258	0.58857	0.319
Mof_C 	C 	0.25597	0.55957	0.60089	0.347
Mof_C 	C 	0.83907	0.25907	0.0473	-0.09
Mof_C 	C 	0.8378	0.2656	0.99685	0.022
Mof_C 	C 	0.90787	0.31333	0.97513	-0.097
Mof_C 	C 	0.98153	0.35719	0.00475	0.034
Mof_C 	C 	0.98125	0.35015	0.05555	-0.091
Mof_C 	C 	0.91166	0.30194	0.07716	0.02
Mof_C 	C 	0.10952	0.55108	0.76096	-0.084
Mof_C 	C 	0.16539	0.60675	0.79741	0.027
Mof_C 	C 	0.16744	0.58756	0.84622	-0.088
Mof_C 	C 	0.11335	0.51221	0.86072	0.028
Mof_C 	C 	0.05654	0.45836	0.8237	-0.09
Mof_C 	C 	0.05458	0.47682	0.77449	0.016
Mof_C 	C 	0.54371	0.89377	0.0761	-0.084
Mof_C 	C 	0.56538	0.83948	0.10523	0.011
Mof_C 	C 	0.52373	0.75495	0.09636	-0.088
Mof_C 	C 	0.46109	0.72253	0.05709	0.022
Mof_C 	C 	0.4432	0.77852	0.02763	-0.084
Mof_C 	C 	0.48333	0.86191	0.03721	0.017
Mof_C 	C 	0.51854	0.31598	0.0904	-0.096
Mof_C 	C 	0.44315	0.42903	0.06711	0.03
Mof_C 	C 	0.4479	0.2917	0.0579	0.03
Mof_C 	C 	0.413	0.3472	0.0457	-0.095
Mof_C 	C 	0.5192	0.454	0.0965	-0.086
Mof_C 	C 	0.5572	0.3976	0.1102	0.019
Mof_C 	C 	0.1192	0.48908	0.91258	0.05
Mof_C 	C 	0.19553	0.51631	0.94051	-0.113
Mof_C 	C 	0.20416	0.48998	0.98801	0.044
Mof_C 	C 	0.13438	0.43614	0.00823	-0.111
Mof_C 	C 	0.05614	0.41114	0.98182	0.046
Mof_C 	C 	0.05029	0.43831	0.9344	-0.109
Mof_C 	C 	0.40382	0.48934	0.05364	0.046
Mof_C 	C 	0.32257	0.46215	0.03134	-0.11
Mof_C 	C 	0.28835	0.51857	0.0157	0.044
Mof_C 	C 	0.33395	0.60277	0.02399	-0.111
Mof_C 	C 	0.41371	0.63243	0.04738	0.049
Mof_C 	C 	0.44846	0.57448	0.06188	-0.108
Mof_C 	C 	0.76286	0.21066	0.07093	0.333
Mof_C 	C 	0.10977	0.56863	0.70594	0.34
Mof_C 	C 	0.58258	0.98522	0.08857	0.316
Mof_C 	C 	0.55957	0.25597	0.10089	0.348
Mof_O 	O 	0.20401	0.76523	0.61732	-0.529
Mof_O 	O 	0.17814	0.6947	0.54446	-0.517
Mof_O 	O 	0.63751	0.16075	0.19563	-0.579
Mof_O 	O 	0.51618	0.06142	0.17393	-0.4
Mof_O 	O 	0.01704	0.64548	0.61945	-0.477
Mof_O 	O 	0.03068	0.54826	0.56888	-0.534
Mof_O 	O 	0.17951	0.51895	0.59413	-0.535
Mof_O 	O 	0.28106	0.63442	0.61572	-0.494
Mof_O 	O 	0.76523	0.20401	0.11732	-0.528
Mof_O 	O 	0.6947	0.17814	0.04446	-0.516
Mof_O 	O 	0.16075	0.63751	0.69563	-0.579
Mof_O 	O 	0.06142	0.51618	0.67393	-0.4
Mof_O 	O 	0.64548	0.01704	0.11945	-0.476
Mof_O 	O 	0.54826	0.03068	0.06888	-0.532
Mof_O 	O 	0.51895	0.17951	0.09413	-0.535
Mof_O 	O 	0.63442	0.28106	0.11572	-0.494
Mof_H 	H 	0.6368	0.951	0.887	0.106
Mof_H 	H 	0.566	0.9688	0.905	0.123
Mof_H 	H 	0.6304	0.9316	0.9694	0.11
Mof_H 	H 	0.7134	0.0052	0.9606	0.101
Mof_H 	H 	0.6372	0.0246	0.9799	0.115
Mof_H 	H 	0.6323	0.0689	0.8564	0.117
Mof_H 	H 	0.6421	0.1077	0.9125	0.118
Mof_H 	H 	0.7156	0.0866	0.8904	0.108
Mof_C 	C 	0.6534	0.987	0.9585	-0.249
Mof_C 	C 	0.6559	0.0693	0.8902	-0.275
Mof_N 	N 	0.62222	0.98658	0.90717	-0.16
Mof_H 	H 	0.049	0.3632	0.613	0.106
Mof_H 	H 	0.0312	0.434	0.595	0.122
Mof_H 	H 	0.0684	0.3696	0.5306	0.113
Mof_H 	H 	0.9948	0.2866	0.5394	0.106
Mof_H 	H 	0.9754	0.3628	0.5201	0.119
Mof_H 	H 	0.9311	0.3677	0.6436	0.117
Mof_H 	H 	0.8923	0.3579	0.5875	0.118
Mof_H 	H 	0.9134	0.2844	0.6096	0.108
Mof_C 	C 	0.013	0.3466	0.5415	-0.261
Mof_C 	C 	0.9307	0.3441	0.6098	-0.275
Mof_N 	N 	0.01342	0.37778	0.59283	-0.158
Mof_H 	H 	0.3632	0.049	0.113	0.106
Mof_H 	H 	0.434	0.0312	0.095	0.123
Mof_H 	H 	0.3696	0.0684	0.0306	0.11
Mof_H 	H 	0.2866	0.9948	0.0394	0.101
Mof_H 	H 	0.3628	0.9754	0.0201	0.115
Mof_H 	H 	0.3677	0.9311	0.1436	0.117
Mof_H 	H 	0.3579	0.8923	0.0875	0.118
Mof_H 	H 	0.2844	0.9134	0.1096	0.108
Mof_C 	C 	0.3466	0.013	0.0415	-0.249
Mof_C 	C 	0.3441	0.9307	0.1098	-0.275
Mof_N 	N 	0.37778	0.01342	0.09283	-0.16
Mof_H 	H 	0.951	0.6368	0.387	0.106
Mof_H 	H 	0.9688	0.566	0.405	0.122
Mof_H 	H 	0.9316	0.6304	0.4694	0.113
Mof_H 	H 	0.0052	0.7134	0.4606	0.106
Mof_H 	H 	0.0246	0.6372	0.4799	0.119
Mof_H 	H 	0.0689	0.6323	0.3564	0.117
Mof_H 	H 	0.1077	0.6421	0.4125	0.118
Mof_H 	H 	0.0866	0.7156	0.3904	0.108
Mof_C 	C 	0.987	0.6534	0.4585	-0.261
Mof_C 	C 	0.0693	0.6559	0.3902	-0.275
Mof_N 	N 	0.98658	0.62222	0.40717	-0.158
_end
