data_functionalizedCrystal
_audit_creation_method	'EQeq! by Chris Wilmer'
_symmetry_space_group_name_H-M	'P1'
_symmetry_Int_Tables_number	1
_symmetry_cell_setting	triclinic
loop_
_symmetry_equiv_pos_as_xyz
  x,y,z
_cell_length_a	27.86
_cell_length_b	27.86
_cell_length_c	27.86
_cell_angle_alpha	90
_cell_angle_beta	90
_cell_angle_gamma	90
loop_
_atom_site_label
_atom_site_type_symbol
_atom_site_fract_x
_atom_site_fract_y
_atom_site_fract_z
_atom_site_charge
Mof_Cu	Cu	-0	0.45244	-0	0.881
Mof_Cu	Cu	0.5	0.5	0.84464	0.908
Mof_Cu	Cu	0.84464	0.5	0.5	0.908
Mof_Cu	Cu	0.75021	0.5	0.5	0.905
Mof_Cu	Cu	0.15536	0.5	0.5	0.905
Mof_Cu	Cu	0.45244	0	-0	0.88
Mof_Cu	Cu	0.5	0.75021	0.5	0.905
Mof_Cu	Cu	0.24979	0.5	0.5	0.905
Mof_Cu	Cu	0.5	0.24979	0.5	0.905
Mof_Cu	Cu	2.05302e-33	0	0.54756	0.88
Mof_Cu	Cu	0.5	0.15536	0.5	0.905
Mof_Cu	Cu	0.5	0.5	0.75021	0.905
Mof_Cu	Cu	0.5	0.84464	0.5	0.907
Mof_Cu	Cu	0.5	0.5	0.15536	0.905
Mof_Cu	Cu	1.69638e-33	0	0.45244	0.88
Mof_Cu	Cu	0.54756	0	-0	0.88
Mof_Cu	Cu	-0	0.54756	-0	0.88
Mof_Cu	Cu	0.5	0.5	0.24979	0.905
Mof_H 	H 	0.5	0.7341	0.1282	0.089
Mof_H 	H 	0.1073	0.431	0.8927	-0.046
Mof_H 	H 	0.5	0.2659	0.1282	0.088
Mof_H 	H 	0.7259	0.6532	0.5	0.048
Mof_H 	H 	0.7341	0.5	0.1282	0.089
Mof_H 	H 	0.1678	0.8322	0.4323	0.173
Mof_H 	H 	0.1073	0.8927	0.569	-0.045
Mof_H 	H 	0.1678	0.8322	0.5677	0.174
Mof_H 	H 	0.3486	0.5	0.8701	0.028
Mof_H 	H 	0.431	0.1073	0.1073	-0.055
Mof_H 	H 	0.5	0.8718	0.7341	0.095
Mof_H 	H 	0.5	0.6514	0.1299	0.022
Mof_H 	H 	0.2659	0.5	0.8718	0.094
Mof_H 	H 	0.8927	0.8927	0.431	-0.037
Mof_H 	H 	0.7341	0.8718	0.5	0.095
Mof_H 	H 	0.1299	0.5	0.3486	0.021
Mof_H 	H 	0.2741	0.5	0.6532	0.047
Mof_H 	H 	0.8322	0.1678	0.5677	0.174
Mof_H 	H 	0.8701	0.3486	0.5	0.028
Mof_H 	H 	0.5	0.1282	0.2659	0.088
Mof_H 	H 	0.8322	0.5677	0.1678	0.174
Mof_H 	H 	0.3468	0.5	0.7259	0.048
Mof_H 	H 	0.2741	0.5	0.3468	0.047
Mof_H 	H 	0.3468	0.2741	0.5	0.047
Mof_H 	H 	0.6532	0.2741	0.5	0.047
Mof_H 	H 	0.1299	0.6514	0.5	0.022
Mof_H 	H 	0.6514	0.8701	0.5	0.029
Mof_H 	H 	0.5	0.2659	0.8718	0.094
Mof_H 	H 	0.431	0.8927	0.1073	-0.046
Mof_H 	H 	0.3468	0.5	0.2741	0.047
Mof_H 	H 	0.431	0.8927	0.8927	-0.037
Mof_H 	H 	0.5	0.7259	0.3468	0.048
Mof_H 	H 	0.5	0.2741	0.3468	0.047
Mof_H 	H 	0.8322	0.1678	0.4323	0.173
Mof_H 	H 	0.1282	0.7341	0.5	0.089
Mof_H 	H 	0.3486	0.8701	0.5	0.028
Mof_H 	H 	0.5677	0.8322	0.1678	0.174
Mof_H 	H 	0.8322	0.8322	0.5677	0.175
Mof_H 	H 	0.8718	0.2659	0.5	0.094
Mof_H 	H 	0.5677	0.8322	0.8322	0.175
Mof_H 	H 	0.5	0.8718	0.2659	0.094
Mof_H 	H 	0.3468	0.7259	0.5	0.048
Mof_H 	H 	0.5	0.7259	0.6532	0.048
Mof_H 	H 	0.1678	0.4323	0.8322	0.173
Mof_H 	H 	0.8927	0.1073	0.569	-0.045
Mof_H 	H 	0.4323	0.1678	0.1678	0.172
Mof_H 	H 	0.8322	0.8322	0.4323	0.173
Mof_H 	H 	0.5	0.6532	0.7259	0.048
Mof_H 	H 	0.569	0.8927	0.1073	-0.045
Mof_H 	H 	0.1299	0.3486	0.5	0.021
Mof_H 	H 	0.1073	0.1073	0.569	-0.054
Mof_H 	H 	0.1678	0.4323	0.1678	0.172
Mof_H 	H 	0.8927	0.1073	0.431	-0.046
Mof_H 	H 	0.2741	0.3468	0.5	0.047
Mof_H 	H 	0.8718	0.5	0.7341	0.095
Mof_H 	H 	0.7259	0.5	0.6532	0.048
Mof_H 	H 	0.1073	0.1073	0.431	-0.055
Mof_H 	H 	0.6532	0.5	0.7259	0.048
Mof_H 	H 	0.5	0.6514	0.8701	0.029
Mof_H 	H 	0.6514	0.5	0.8701	0.029
Mof_H 	H 	0.6532	0.7259	0.5	0.048
Mof_H 	H 	0.569	0.1073	0.8927	-0.045
Mof_H 	H 	0.5	0.8701	0.6514	0.029
Mof_H 	H 	0.8322	0.4323	0.8322	0.173
Mof_H 	H 	0.8927	0.431	0.8927	-0.037
Mof_H 	H 	0.8927	0.569	0.1073	-0.045
Mof_H 	H 	0.8927	0.569	0.8927	-0.036
Mof_H 	H 	0.8701	0.5	0.3486	0.028
Mof_H 	H 	0.8718	0.7341	0.5	0.095
Mof_H 	H 	0.6514	0.1299	0.5	0.022
Mof_H 	H 	0.3486	0.1299	0.5	0.021
Mof_H 	H 	0.4323	0.8322	0.1678	0.173
Mof_H 	H 	0.8927	0.431	0.1073	-0.046
Mof_H 	H 	0.6514	0.5	0.1299	0.022
Mof_H 	H 	0.1282	0.5	0.7341	0.089
Mof_H 	H 	0.5	0.2741	0.6532	0.047
Mof_H 	H 	0.5	0.6532	0.2741	0.047
Mof_H 	H 	0.2659	0.8718	0.5	0.094
Mof_H 	H 	0.8322	0.5677	0.8322	0.175
Mof_H 	H 	0.7341	0.5	0.8718	0.095
Mof_H 	H 	0.2741	0.6532	0.5	0.047
Mof_H 	H 	0.1073	0.569	0.8927	-0.045
Mof_H 	H 	0.8701	0.6514	0.5	0.029
Mof_H 	H 	0.8322	0.4323	0.1678	0.173
Mof_H 	H 	0.5	0.1299	0.3486	0.021
Mof_H 	H 	0.5	0.3486	0.1299	0.021
Mof_H 	H 	0.1073	0.569	0.1073	-0.054
Mof_H 	H 	0.5677	0.1678	0.1678	0.174
Mof_H 	H 	0.7259	0.5	0.3468	0.048
Mof_H 	H 	0.6532	0.5	0.2741	0.047
Mof_H 	H 	0.5	0.1282	0.7341	0.089
Mof_H 	H 	0.2659	0.1282	0.5	0.088
Mof_H 	H 	0.1282	0.2659	0.5	0.088
Mof_H 	H 	0.1073	0.8927	0.431	-0.046
Mof_H 	H 	0.1299	0.5	0.6514	0.022
Mof_H 	H 	0.5	0.7341	0.8718	0.095
Mof_H 	H 	0.4323	0.8322	0.8322	0.173
Mof_H 	H 	0.1678	0.1678	0.4323	0.172
Mof_H 	H 	0.1282	0.5	0.2659	0.088
Mof_H 	H 	0.5	0.3468	0.7259	0.048
Mof_H 	H 	0.8718	0.5	0.2659	0.094
Mof_H 	H 	0.1678	0.1678	0.5677	0.174
Mof_H 	H 	0.5	0.8701	0.3486	0.028
Mof_H 	H 	0.4323	0.1678	0.8322	0.173
Mof_H 	H 	0.569	0.8927	0.8927	-0.036
Mof_H 	H 	0.7259	0.3468	0.5	0.048
Mof_H 	H 	0.5	0.3486	0.8701	0.028
Mof_H 	H 	0.8701	0.5	0.6514	0.029
Mof_H 	H 	0.5	0.1299	0.6514	0.022
Mof_H 	H 	0.5	0.3468	0.2741	0.047
Mof_H 	H 	0.431	0.1073	0.8927	-0.046
Mof_H 	H 	0.3486	0.5	0.1299	0.021
Mof_H 	H 	0.569	0.1073	0.1073	-0.054
Mof_H 	H 	0.7341	0.1282	0.5	0.089
Mof_H 	H 	0.8927	0.8927	0.569	-0.036
Mof_H 	H 	0.1678	0.5677	0.8322	0.174
Mof_H 	H 	0.1073	0.431	0.1073	-0.055
Mof_H 	H 	0.1678	0.5677	0.1678	0.174
Mof_H 	H 	0.2659	0.5	0.1282	0.088
Mof_H 	H 	0.5677	0.1678	0.8322	0.174
Mof_C 	C 	0.75523	0.5	0.28092	-0.033
Mof_C 	C 	0.5	0.25683	0.80004	0.122
Mof_C 	C 	0.5	0.71789	0.84258	-0.16
Mof_C 	C 	0.10148	0.89852	0.5	-0.327
Mof_C 	C 	0.15591	0.5388	0.15591	-0.41
Mof_C 	C 	0.5	0.40931	0.79735	0.371
Mof_C 	C 	0.28092	0.24477	0.5	-0.034
Mof_C 	C 	0.80004	0.25683	0.5	0.122
Mof_C 	C 	0.10148	0.10148	0.5	-0.342
Mof_C 	C 	0.5	0.89852	0.89852	-0.313
Mof_C 	C 	0.5	0.66858	0.15853	0.062
Mof_C 	C 	0.84258	0.5	0.28211	-0.16
Mof_C 	C 	0.88134	0.4603	0.11866	0.277
Mof_C 	C 	0.5	0.80004	0.25683	0.122
Mof_C 	C 	0.5	0.33142	0.84147	0.063
Mof_C 	C 	0.5	0.74317	0.80004	0.123
Mof_C 	C 	0.40931	0.5	0.20265	0.372
Mof_C 	C 	0.28211	0.5	0.84258	-0.16
Mof_C 	C 	0.20259	0.5	0.356	-0.114
Mof_C 	C 	0.5388	0.15591	0.15591	-0.41
Mof_C 	C 	0.5	0.84258	0.28211	-0.16
Mof_C 	C 	0.5	0.71908	0.75523	-0.032
Mof_C 	C 	0.71908	0.24477	0.5	-0.033
Mof_C 	C 	0.4612	0.15591	0.15591	-0.41
Mof_C 	C 	0.4603	0.11866	0.11866	0.284
Mof_C 	C 	0.15591	0.5388	0.84409	-0.4
Mof_C 	C 	0.356	0.79741	0.5	-0.111
Mof_C 	C 	0.5	0.71789	0.15742	-0.162
Mof_C 	C 	0.88134	0.88134	0.5397	0.27
Mof_C 	C 	0.28092	0.5	0.75523	-0.033
Mof_C 	C 	0.11866	0.11866	0.5397	0.285
Mof_C 	C 	0.84147	0.66858	0.5	0.063
Mof_C 	C 	0.84147	0.5	0.33142	0.063
Mof_C 	C 	0.20265	0.5	0.40931	0.372
Mof_C 	C 	0.15742	0.71789	0.5	-0.162
Mof_C 	C 	0.71789	0.84258	0.5	-0.16
Mof_C 	C 	0.84147	0.5	0.66858	0.063
Mof_C 	C 	0.80004	0.74317	0.5	0.123
Mof_C 	C 	0.20259	0.644	0.5	-0.113
Mof_C 	C 	0.84409	0.4612	0.15591	-0.4
Mof_C 	C 	0.84258	0.28211	0.5	-0.16
Mof_C 	C 	0.5	0.33046	0.24496	0.007
Mof_C 	C 	0.75523	0.71908	0.5	-0.032
Mof_C 	C 	0.24496	0.66954	0.5	0.007
Mof_C 	C 	0.25683	0.5	0.80004	0.122
Mof_C 	C 	0.74317	0.5	0.80004	0.123
Mof_C 	C 	0.79741	0.5	0.644	-0.11
Mof_C 	C 	0.356	0.5	0.20259	-0.114
Mof_C 	C 	0.5	0.24496	0.66954	0.007
Mof_C 	C 	0.5	0.356	0.79741	-0.111
Mof_C 	C 	0.4612	0.15591	0.84409	-0.4
Mof_C 	C 	0.5	0.17224	0.82776	0.381
Mof_C 	C 	0.19996	0.74317	0.5	0.121
Mof_C 	C 	0.11866	0.88134	0.5397	0.277
Mof_C 	C 	0.11866	0.11866	0.4603	0.284
Mof_C 	C 	0.84409	0.5388	0.15591	-0.4
Mof_C 	C 	0.28211	0.84258	0.5	-0.16
Mof_C 	C 	0.84409	0.15591	0.4612	-0.4
Mof_C 	C 	0.84258	0.5	0.71789	-0.16
Mof_C 	C 	0.40931	0.5	0.79735	0.371
Mof_C 	C 	0.88134	0.11866	0.4603	0.277
Mof_C 	C 	0.66858	0.15853	0.5	0.062
Mof_C 	C 	0.5	0.06376	0.93624	0.468
Mof_C 	C 	0.5	0.93624	0.93624	0.463
Mof_C 	C 	0.24477	0.5	0.71908	-0.033
Mof_C 	C 	0.5	0.84147	0.33142	0.063
Mof_C 	C 	0.84409	0.84409	0.5388	-0.39
Mof_C 	C 	0.84409	0.4612	0.84409	-0.39
Mof_C 	C 	0.15591	0.4612	0.15591	-0.41
Mof_C 	C 	0.25683	0.80004	0.5	0.122
Mof_C 	C 	0.5	0.20265	0.40931	0.372
Mof_C 	C 	0.5	0.79741	0.644	-0.11
Mof_C 	C 	0.88134	0.5397	0.88134	0.27
Mof_C 	C 	0.33046	0.75504	0.5	0.007
Mof_C 	C 	0.71789	0.5	0.84258	-0.16
Mof_C 	C 	0.59069	0.20265	0.5	0.372
Mof_C 	C 	0.5	0.15853	0.33142	0.061
Mof_C 	C 	0.5	0.33142	0.15853	0.061
Mof_C 	C 	0.17224	0.5	0.17224	0.386
Mof_C 	C 	0.88134	0.11866	0.5397	0.277
Mof_C 	C 	0.71789	0.5	0.15742	-0.162
Mof_C 	C 	0.33142	0.15853	0.5	0.061
Mof_C 	C 	0.71908	0.5	0.24477	-0.033
Mof_C 	C 	0.84409	0.5388	0.84409	-0.39
Mof_C 	C 	0.89852	0.10148	0.5	-0.327
Mof_C 	C 	0.15742	0.5	0.71789	-0.162
Mof_C 	C 	0.80004	0.5	0.74317	0.123
Mof_C 	C 	0.5	0.15853	0.66858	0.062
Mof_C 	C 	0.5	0.644	0.20259	-0.113
Mof_C 	C 	0.59069	0.5	0.79735	0.371
Mof_C 	C 	0.20265	0.40931	0.5	0.372
Mof_C 	C 	0.17224	0.5	0.82776	0.381
Mof_C 	C 	0.33142	0.84147	0.5	0.063
Mof_C 	C 	0.5	0.24477	0.28092	-0.034
Mof_C 	C 	0.5397	0.11866	0.11866	0.285
Mof_C 	C 	0.28211	0.15742	0.5	-0.162
Mof_C 	C 	0.15853	0.66858	0.5	0.062
Mof_C 	C 	0.75523	0.5	0.71908	-0.032
Mof_C 	C 	0.356	0.5	0.79741	-0.111
Mof_C 	C 	0.15591	0.84409	0.5388	-0.4
Mof_C 	C 	0.84409	0.84409	0.4612	-0.39
Mof_C 	C 	0.20259	0.5	0.644	-0.113
Mof_C 	C 	0.84258	0.71789	0.5	-0.16
Mof_C 	C 	0.19996	0.5	0.74317	0.121
Mof_C 	C 	0.93624	0.93624	0.5	0.463
Mof_C 	C 	0.4603	0.88134	0.88134	0.27
Mof_C 	C 	0.5	0.24477	0.71908	-0.033
Mof_C 	C 	0.66954	0.24496	0.5	0.007
Mof_C 	C 	0.5	0.75523	0.28092	-0.033
Mof_C 	C 	0.66954	0.5	0.24496	0.007
Mof_C 	C 	0.74317	0.5	0.19996	0.121
Mof_C 	C 	0.40931	0.20265	0.5	0.372
Mof_C 	C 	0.19996	0.5	0.25683	0.12
Mof_C 	C 	0.5	0.66858	0.84147	0.063
Mof_C 	C 	0.17224	0.82776	0.5	0.381
Mof_C 	C 	0.59069	0.5	0.20265	0.372
Mof_C 	C 	0.5	0.79735	0.40931	0.371
Mof_C 	C 	0.5	0.82776	0.17224	0.381
Mof_C 	C 	0.33142	0.5	0.15853	0.061
Mof_C 	C 	0.71789	0.15742	0.5	-0.162
Mof_C 	C 	0.5	0.28092	0.24477	-0.034
Mof_C 	C 	0.4603	0.11866	0.88134	0.277
Mof_C 	C 	0.15742	0.5	0.28211	-0.162
Mof_C 	C 	0.5397	0.88134	0.11866	0.277
Mof_C 	C 	0.06376	0.93624	0.5	0.468
Mof_C 	C 	0.11866	0.4603	0.88134	0.277
Mof_C 	C 	0.5397	0.11866	0.88134	0.277
Mof_C 	C 	0.5	0.66954	0.75504	0.007
Mof_C 	C 	0.5	0.33046	0.75504	0.007
Mof_C 	C 	0.5	0.28211	0.84258	-0.16
Mof_C 	C 	0.11866	0.88134	0.4603	0.277
Mof_C 	C 	0.33046	0.24496	0.5	0.007
Mof_C 	C 	0.5	0.66954	0.24496	0.007
Mof_C 	C 	0.4612	0.84409	0.84409	-0.39
Mof_C 	C 	0.4603	0.88134	0.11866	0.277
Mof_C 	C 	0.5	0.75504	0.33046	0.007
Mof_C 	C 	0.74317	0.80004	0.5	0.123
Mof_C 	C 	0.33046	0.5	0.24496	0.007
Mof_C 	C 	0.20265	0.5	0.59069	0.372
Mof_C 	C 	0.5	0.15742	0.71789	-0.162
Mof_C 	C 	0.79735	0.40931	0.5	0.371
Mof_C 	C 	0.75523	0.28092	0.5	-0.033
Mof_C 	C 	0.82776	0.5	0.17224	0.381
Mof_C 	C 	0.644	0.5	0.20259	-0.113
Mof_C 	C 	0.11866	0.5397	0.88134	0.277
Mof_C 	C 	0.15853	0.33142	0.5	0.061
Mof_C 	C 	0.24496	0.33046	0.5	0.007
Mof_C 	C 	0.5	0.20265	0.59069	0.372
Mof_C 	C 	0.28092	0.5	0.24477	-0.034
Mof_C 	C 	0.20259	0.356	0.5	-0.114
Mof_C 	C 	0.5	0.19996	0.25683	0.12
Mof_C 	C 	0.88134	0.88134	0.4603	0.27
Mof_C 	C 	0.79741	0.356	0.5	-0.111
Mof_C 	C 	0.10148	0.5	0.89852	-0.327
Mof_C 	C 	0.5	0.75523	0.71908	-0.032
Mof_C 	C 	0.66858	0.5	0.84147	0.063
Mof_C 	C 	0.5	0.17224	0.17224	0.386
Mof_C 	C 	0.15591	0.4612	0.84409	-0.4
Mof_C 	C 	0.5	0.06376	0.06376	0.473
Mof_C 	C 	0.89852	0.5	0.89852	-0.313
Mof_C 	C 	0.24477	0.5	0.28092	-0.034
Mof_C 	C 	0.93624	0.5	0.06376	0.468
Mof_C 	C 	0.75504	0.66954	0.5	0.007
Mof_C 	C 	0.24477	0.28092	0.5	-0.034
Mof_C 	C 	0.59069	0.79735	0.5	0.371
Mof_C 	C 	0.15853	0.5	0.33142	0.061
Mof_C 	C 	0.15591	0.15591	0.4612	-0.41
Mof_C 	C 	0.66954	0.75504	0.5	0.007
Mof_C 	C 	0.93624	0.06376	0.5	0.468
Mof_C 	C 	0.79741	0.5	0.356	-0.111
Mof_C 	C 	0.5397	0.88134	0.88134	0.27
Mof_C 	C 	0.5	0.15742	0.28211	-0.162
Mof_C 	C 	0.10148	0.5	0.10148	-0.342
Mof_C 	C 	0.5	0.644	0.79741	-0.11
Mof_C 	C 	0.66954	0.5	0.75504	0.007
Mof_C 	C 	0.5388	0.84409	0.15591	-0.4
Mof_C 	C 	0.5	0.59069	0.20265	0.372
Mof_C 	C 	0.20265	0.59069	0.5	0.372
Mof_C 	C 	0.5	0.20259	0.356	-0.114
Mof_C 	C 	0.06376	0.5	0.06376	0.473
Mof_C 	C 	0.5	0.10148	0.10148	-0.342
Mof_C 	C 	0.5	0.93624	0.06376	0.468
Mof_C 	C 	0.82776	0.5	0.82776	0.376
Mof_C 	C 	0.5	0.25683	0.19996	0.12
Mof_C 	C 	0.5	0.20259	0.644	-0.113
Mof_C 	C 	0.644	0.79741	0.5	-0.11
Mof_C 	C 	0.06376	0.06376	0.5	0.473
Mof_C 	C 	0.11866	0.5397	0.11866	0.285
Mof_C 	C 	0.66858	0.5	0.15853	0.062
Mof_C 	C 	0.33046	0.5	0.75504	0.007
Mof_C 	C 	0.24496	0.5	0.33046	0.007
Mof_C 	C 	0.5	0.80004	0.74317	0.123
Mof_C 	C 	0.75504	0.5	0.66954	0.007
Mof_C 	C 	0.79741	0.644	0.5	-0.11
Mof_C 	C 	0.5	0.24496	0.33046	0.007
Mof_C 	C 	0.88134	0.4603	0.88134	0.27
Mof_C 	C 	0.5	0.84258	0.71789	-0.16
Mof_C 	C 	0.75504	0.5	0.33046	0.007
Mof_C 	C 	0.25683	0.19996	0.5	0.12
Mof_C 	C 	0.82776	0.82776	0.5	0.376
Mof_C 	C 	0.5	0.19996	0.74317	0.121
Mof_C 	C 	0.79735	0.5	0.59069	0.371
Mof_C 	C 	0.66858	0.84147	0.5	0.063
Mof_C 	C 	0.06376	0.5	0.93624	0.468
Mof_C 	C 	0.93624	0.5	0.93624	0.463
Mof_C 	C 	0.5388	0.15591	0.84409	-0.4
Mof_C 	C 	0.5	0.75504	0.66954	0.007
Mof_C 	C 	0.5	0.40931	0.20265	0.372
Mof_C 	C 	0.5	0.74317	0.19996	0.121
Mof_C 	C 	0.11866	0.4603	0.11866	0.284
Mof_C 	C 	0.79735	0.5	0.40931	0.371
Mof_C 	C 	0.5	0.84147	0.66858	0.063
Mof_C 	C 	0.356	0.20259	0.5	-0.114
Mof_C 	C 	0.80004	0.5	0.25683	0.122
Mof_C 	C 	0.5	0.79741	0.356	-0.111
Mof_C 	C 	0.5	0.28092	0.75523	-0.033
Mof_C 	C 	0.82776	0.17224	0.5	0.381
Mof_C 	C 	0.79735	0.59069	0.5	0.371
Mof_C 	C 	0.15742	0.28211	0.5	-0.162
Mof_C 	C 	0.88134	0.5397	0.11866	0.277
Mof_C 	C 	0.15591	0.84409	0.4612	-0.4
Mof_C 	C 	0.5	0.71908	0.24477	-0.033
Mof_C 	C 	0.5388	0.84409	0.84409	-0.39
Mof_C 	C 	0.89852	0.89852	0.5	-0.313
Mof_C 	C 	0.74317	0.19996	0.5	0.121
Mof_C 	C 	0.33142	0.5	0.84147	0.063
Mof_C 	C 	0.5	0.82776	0.82776	0.376
Mof_C 	C 	0.84409	0.15591	0.5388	-0.4
Mof_C 	C 	0.4612	0.84409	0.15591	-0.4
Mof_C 	C 	0.75504	0.33046	0.5	0.007
Mof_C 	C 	0.89852	0.5	0.10148	-0.327
Mof_C 	C 	0.15853	0.5	0.66858	0.062
Mof_C 	C 	0.5	0.79735	0.59069	0.371
Mof_C 	C 	0.24477	0.71908	0.5	-0.033
Mof_C 	C 	0.644	0.20259	0.5	-0.113
Mof_C 	C 	0.5	0.10148	0.89852	-0.327
Mof_C 	C 	0.5	0.28211	0.15742	-0.162
Mof_C 	C 	0.40931	0.79735	0.5	0.371
Mof_C 	C 	0.71908	0.75523	0.5	-0.032
Mof_C 	C 	0.84147	0.33142	0.5	0.063
Mof_C 	C 	0.28092	0.75523	0.5	-0.033
Mof_C 	C 	0.28211	0.5	0.15742	-0.162
Mof_C 	C 	0.19996	0.25683	0.5	0.12
Mof_C 	C 	0.5	0.89852	0.10148	-0.327
Mof_C 	C 	0.15591	0.15591	0.5388	-0.41
Mof_C 	C 	0.5	0.59069	0.79735	0.371
Mof_C 	C 	0.644	0.5	0.79741	-0.11
Mof_C 	C 	0.17224	0.17224	0.5	0.386
Mof_C 	C 	0.24496	0.5	0.66954	0.007
Mof_C 	C 	0.71908	0.5	0.75523	-0.032
Mof_C 	C 	0.25683	0.5	0.19996	0.12
Mof_C 	C 	0.5	0.356	0.20259	-0.114
Mof_N 	N 	0.5	0.20824	0.20824	-0.214
Mof_N 	N 	0.20824	0.79176	0.5	-0.213
Mof_N 	N 	0.20824	0.5	0.20824	-0.214
Mof_N 	N 	0.79176	0.5	0.79176	-0.211
Mof_N 	N 	0.5	0.79176	0.20824	-0.213
Mof_N 	N 	0.79176	0.20824	0.5	-0.213
Mof_N 	N 	0.20824	0.5	0.79176	-0.213
Mof_N 	N 	0.5	0.79176	0.79176	-0.211
Mof_N 	N 	0.20824	0.20824	0.5	-0.214
Mof_N 	N 	0.79176	0.79176	0.5	-0.211
Mof_N 	N 	0.5	0.20824	0.79176	-0.213
Mof_N 	N 	0.79176	0.5	0.20824	-0.213
Mof_O 	O 	0.5	0.24268	0.43002	-0.41
Mof_O 	O 	0.24268	0.5	0.43002	-0.41
Mof_O 	O 	0.83727	0.43028	0.5	-0.409
Mof_O 	O 	0.5	0.56998	0.75732	-0.409
Mof_O 	O 	0.56998	0.5	0.75732	-0.409
Mof_O 	O 	0.95003	0.95003	0.46012	-0.411
Mof_O 	O 	0.04997	0.46012	0.04997	-0.453
Mof_O 	O 	0.5	0.24268	0.56998	-0.41
Mof_O 	O 	0.24268	0.5	0.56998	-0.41
Mof_O 	O 	0.56998	0.5	0.24268	-0.41
Mof_O 	O 	0.75732	0.56998	0.5	-0.409
Mof_O 	O 	0.5	0.16273	0.56972	-0.414
Mof_O 	O 	0.56972	0.83727	0.5	-0.409
Mof_O 	O 	0.24268	0.56998	0.5	-0.41
Mof_O 	O 	0.5	0.43002	0.24268	-0.41
Mof_O 	O 	0.83727	0.56972	0.5	-0.409
Mof_O 	O 	0.95003	0.04997	0.46012	-0.432
Mof_O 	O 	0.04997	0.53988	0.04997	-0.452
Mof_O 	O 	0.5	0.43028	0.83727	-0.409
Mof_O 	O 	0.43002	0.5	0.75732	-0.409
Mof_O 	O 	0.95003	0.04997	0.53988	-0.431
Mof_O 	O 	0.16273	0.5	0.43028	-0.415
Mof_O 	O 	0.56998	0.24268	0.5	-0.41
Mof_O 	O 	0.95003	0.46012	0.95003	-0.411
Mof_O 	O 	0.04997	0.46012	0.95003	-0.432
Mof_O 	O 	0.43028	0.16273	0.5	-0.415
Mof_O 	O 	0.53988	0.95003	0.04997	-0.431
Mof_O 	O 	0.5	0.56972	0.16273	-0.414
Mof_O 	O 	0.95003	0.46012	0.04997	-0.432
Mof_O 	O 	0.53988	0.95003	0.95003	-0.41
Mof_O 	O 	0.04997	0.04997	0.46012	-0.453
Mof_O 	O 	0.5	0.75732	0.43002	-0.409
Mof_O 	O 	0.46012	0.04997	0.95003	-0.432
Mof_O 	O 	0.04997	0.95003	0.46012	-0.432
Mof_O 	O 	0.5	0.56998	0.24268	-0.41
Mof_O 	O 	0.5	0.43002	0.75732	-0.409
Mof_O 	O 	0.16273	0.56972	0.5	-0.414
Mof_O 	O 	0.5	0.75732	0.56998	-0.409
Mof_O 	O 	0.43028	0.5	0.16273	-0.415
Mof_O 	O 	0.95003	0.95003	0.53988	-0.41
Mof_O 	O 	0.04997	0.95003	0.53988	-0.431
Mof_O 	O 	0.83727	0.5	0.56972	-0.409
Mof_O 	O 	0.75732	0.5	0.43002	-0.409
Mof_O 	O 	0.43002	0.5	0.24268	-0.41
Mof_O 	O 	0.56972	0.5	0.83727	-0.409
Mof_O 	O 	0.43028	0.83727	0.5	-0.409
Mof_O 	O 	0.5	0.83727	0.43028	-0.409
Mof_O 	O 	0.16273	0.43028	0.5	-0.415
Mof_O 	O 	0.75732	0.5	0.56998	-0.409
Mof_O 	O 	0.46012	0.04997	0.04997	-0.453
Mof_O 	O 	0.56972	0.5	0.16273	-0.414
Mof_O 	O 	0.5	0.16273	0.43028	-0.415
Mof_O 	O 	0.5	0.56972	0.83727	-0.409
Mof_O 	O 	0.24268	0.43002	0.5	-0.41
Mof_O 	O 	0.04997	0.04997	0.53988	-0.452
Mof_O 	O 	0.43002	0.24268	0.5	-0.41
Mof_O 	O 	0.43002	0.75732	0.5	-0.409
Mof_O 	O 	0.5	0.83727	0.56972	-0.409
Mof_O 	O 	0.83727	0.5	0.43028	-0.409
Mof_O 	O 	0.53988	0.04997	0.04997	-0.452
Mof_O 	O 	0.5	0.43028	0.16273	-0.415
Mof_O 	O 	0.46012	0.95003	0.95003	-0.411
Mof_O 	O 	0.95003	0.53988	0.04997	-0.431
Mof_O 	O 	0.46012	0.95003	0.04997	-0.432
Mof_O 	O 	0.43028	0.5	0.83727	-0.409
Mof_O 	O 	0.56998	0.75732	0.5	-0.409
Mof_O 	O 	0.56972	0.16273	0.5	-0.414
Mof_O 	O 	0.95003	0.53988	0.95003	-0.41
Mof_O 	O 	0.53988	0.04997	0.95003	-0.431
Mof_O 	O 	0.04997	0.53988	0.95003	-0.431
Mof_O 	O 	0.75732	0.43002	0.5	-0.409
Mof_O 	O 	0.16273	0.5	0.56972	-0.414
_end
