data_functionalizedCrystal
_audit_creation_method	'EQeq! by Chris Wilmer'
_symmetry_space_group_name_H-M	'P1'
_symmetry_Int_Tables_number	1
_symmetry_cell_setting	triclinic
loop_
_symmetry_equiv_pos_as_xyz
  x,y,z
_cell_length_a	12.5497
_cell_length_b	17.7472
_cell_length_c	21.783
_cell_angle_alpha	90
_cell_angle_beta	90
_cell_angle_gamma	97.507
loop_
_atom_site_label
_atom_site_type_symbol
_atom_site_fract_x
_atom_site_fract_y
_atom_site_fract_z
_atom_site_charge
Mof_Mn	Mn	0.82768	0.46729	0.84599	0.922
Mof_Mn	Mn	0.09004	0.03984	0.59418	1.024
Mof_Mn	Mn	0.17232	0.03271	0.34599	0.919
Mof_Mn	Mn	0.47253	0.02939	0.62938	0.837
Mof_Mn	Mn	0.90996	0.46016	0.09418	1.025
Mof_Mn	Mn	0.17232	0.53271	0.15401	0.921
Mof_Mn	Mn	0.90996	0.96016	0.40582	1.023
Mof_Mn	Mn	0.47253	0.52939	0.87062	0.837
Mof_Mn	Mn	0.09004	0.53984	0.90582	1.025
Mof_Mn	Mn	0.82768	0.96729	0.65401	0.919
Mof_Mn	Mn	0.52747	0.97061	0.37062	0.837
Mof_Mn	Mn	0.52747	0.47061	0.12938	0.837
Mof_H 	H 	0.1942	0.2253	0.4848	-0.022
Mof_H 	H 	0.2128	0.9718	0.7871	0.137
Mof_H 	H 	0.0889	0.3217	0.8972	-0.04
Mof_H 	H 	0.2128	0.4718	0.7129	0.136
Mof_H 	H 	0.339	0.1299	0.9744	0.174
Mof_H 	H 	0.8908	0.3058	0.3969	0.154
Mof_H 	H 	0.6534	0.4984	0.527	0.204
Mof_H 	H 	0.0306	0.6187	0.4358	0.169
Mof_H 	H 	0.5622	0.1024	0.0678	0.175
Mof_H 	H 	0.5622	0.6024	0.4322	0.174
Mof_H 	H 	0.7872	0.5282	0.2871	0.136
Mof_H 	H 	0.9111	0.1783	0.3972	-0.041
Mof_H 	H 	0.1092	0.1942	0.8969	0.155
Mof_H 	H 	0.681	0.7433	0.0272	-0.033
Mof_H 	H 	0.4378	0.8976	0.9322	0.175
Mof_H 	H 	0.2924	0.8073	0.3669	-0.026
Mof_H 	H 	0.2131	0.4335	0.9351	0.246
Mof_H 	H 	0.0889	0.8217	0.6028	-0.041
Mof_H 	H 	0.319	0.2567	0.9728	-0.033
Mof_H 	H 	0.8502	0.9749	0.0383	0.2
Mof_H 	H 	0.2413	0.5551	0.3061	0.129
Mof_H 	H 	0.1651	0.2223	0.6402	-0.028
Mof_H 	H 	0.6262	0.1785	0.8937	0.164
Mof_H 	H 	0.5032	0.56	0.6774	0.146
Mof_H 	H 	0.0093	0.2585	0.577	-0.02
Mof_H 	H 	0.319	0.7567	0.5272	-0.032
Mof_H 	H 	0.4968	0.44	0.3226	0.146
Mof_H 	H 	0.8502	0.4749	0.4617	0.2
Mof_H 	H 	0.8349	0.2777	0.1402	-0.028
Mof_H 	H 	0.7587	0.9449	0.8061	0.129
Mof_H 	H 	0.3423	0.5782	0.0861	0.262
Mof_H 	H 	0.1791	0.3538	0.4785	0.16
Mof_H 	H 	0.596	0.3031	0.885	-0.044
Mof_H 	H 	0.3423	0.0782	0.4139	0.262
Mof_H 	H 	0.8349	0.7777	0.3598	-0.028
Mof_H 	H 	0.7869	0.5665	0.0649	0.246
Mof_H 	H 	0.1448	0.3495	0.6408	0.155
Mof_H 	H 	0.8908	0.8058	0.1031	0.155
Mof_H 	H 	0.2413	0.0551	0.1939	0.129
Mof_H 	H 	0.3738	0.3215	0.3937	0.164
Mof_H 	H 	0.3466	0.0016	0.027	0.205
Mof_H 	H 	0.1498	0.0251	0.9617	0.2
Mof_H 	H 	0.6577	0.4218	0.9139	0.262
Mof_H 	H 	0.4604	0.7709	0.9303	-0.03
Mof_H 	H 	0.6682	0.3158	0.6201	0.154
Mof_H 	H 	0.4604	0.2709	0.5697	-0.03
Mof_H 	H 	0.5396	0.2291	0.0697	-0.03
Mof_H 	H 	0.5032	0.06	0.8226	0.146
Mof_H 	H 	0.8552	0.1505	0.1408	0.156
Mof_H 	H 	0.7076	0.1927	0.6331	-0.026
Mof_H 	H 	0.0554	0.4367	0.327	0.147
Mof_H 	H 	0.5396	0.7291	0.4303	-0.03
Mof_H 	H 	0.339	0.6299	0.5256	0.174
Mof_H 	H 	0.681	0.2433	0.4728	-0.032
Mof_H 	H 	0.8209	0.6462	0.5215	0.16
Mof_H 	H 	0.0306	0.1187	0.0642	0.167
Mof_H 	H 	0.9111	0.6783	0.1028	-0.04
Mof_H 	H 	0.9694	0.3813	0.5642	0.169
Mof_H 	H 	0.3318	0.1842	0.1201	0.154
Mof_H 	H 	0.1942	0.7253	0.0152	-0.021
Mof_H 	H 	0.0093	0.7585	0.923	-0.016
Mof_H 	H 	0.4378	0.3976	0.5678	0.174
Mof_H 	H 	0.1651	0.7223	0.8598	-0.028
Mof_H 	H 	0.0554	0.9367	0.173	0.152
Mof_H 	H 	0.661	0.8701	0.0256	0.174
Mof_H 	H 	0.7872	0.0282	0.2129	0.137
Mof_H 	H 	0.9446	0.5633	0.673	0.147
Mof_H 	H 	0.9907	0.7415	0.423	-0.02
Mof_H 	H 	0.3738	0.8215	0.1063	0.164
Mof_H 	H 	0.9907	0.2415	0.077	-0.016
Mof_H 	H 	0.2131	0.9335	0.5649	0.245
Mof_H 	H 	0.6577	0.9218	0.5861	0.262
Mof_H 	H 	0.1448	0.8495	0.8592	0.156
Mof_H 	H 	0.404	0.6969	0.115	-0.044
Mof_H 	H 	0.7076	0.6927	0.8669	-0.026
Mof_H 	H 	0.9446	0.0633	0.827	0.152
Mof_H 	H 	0.661	0.3701	0.4744	0.174
Mof_H 	H 	0.1092	0.6942	0.6031	0.154
Mof_H 	H 	0.596	0.8031	0.615	-0.044
Mof_H 	H 	0.1498	0.5251	0.5383	0.2
Mof_H 	H 	0.6682	0.8158	0.8799	0.154
Mof_H 	H 	0.404	0.1969	0.385	-0.044
Mof_H 	H 	0.2924	0.3073	0.1331	-0.026
Mof_H 	H 	0.6534	0.9984	0.973	0.205
Mof_H 	H 	0.7587	0.4449	0.6939	0.129
Mof_H 	H 	0.9694	0.8813	0.9358	0.167
Mof_H 	H 	0.8552	0.6505	0.3592	0.155
Mof_H 	H 	0.3466	0.5016	0.473	0.204
Mof_H 	H 	0.3318	0.6842	0.3799	0.154
Mof_H 	H 	0.8209	0.1462	0.9785	0.16
Mof_H 	H 	0.8058	0.7747	0.5152	-0.022
Mof_H 	H 	0.1791	0.8538	0.0215	0.16
Mof_H 	H 	0.8058	0.2747	0.9848	-0.021
Mof_H 	H 	0.4968	0.94	0.1774	0.146
Mof_H 	H 	0.7869	0.0665	0.4351	0.245
Mof_H 	H 	0.6262	0.6785	0.6063	0.164
Mof_C 	C 	0.2395	0.2698	0.1188	0.198
Mof_C 	C 	0.1384	0.2884	0.105	-0.22
Mof_C 	C 	0.1851	0.1409	0.0916	0.333
Mof_C 	C 	0.6236	0.011	0.7341	0.33
Mof_C 	C 	0.6204	0.7593	0.0449	0.234
Mof_C 	C 	0.3831	0.362	0.583	-0.333
Mof_C 	C 	0.6855	0.7676	0.395	-0.258
Mof_C 	C 	0.4377	0.3744	0.924	0.41
Mof_C 	C 	0.7367	0.3042	0.6115	-0.336
Mof_C 	C 	0.4534	0.2929	0.9273	-0.269
Mof_C 	C 	0.8616	0.7116	0.895	-0.22
Mof_C 	C 	0.0734	0.0162	0.7974	0.097
Mof_C 	C 	0.9676	0.6592	0.5612	0.325
Mof_C 	C 	0.1337	0.7413	0.0331	0.196
Mof_C 	C 	0.4552	0.2317	0.4042	0.241
Mof_C 	C 	0.917	0.8431	0.922	-0.313
Mof_C 	C 	0.7113	0.4679	0.6697	-0.267
Mof_C 	C 	0.917	0.3431	0.578	-0.317
Mof_C 	C 	0.6472	0.9999	0.9305	-0.401
Mof_C 	C 	0.0522	0.1878	0.4431	-0.254
Mof_C 	C 	0.4372	0.3064	0.4085	-0.365
Mof_C 	C 	0.9618	0.9878	0.2682	0.296
Mof_C 	C 	0.6855	0.2676	0.105	-0.258
Mof_C 	C 	0.2079	0.8338	0.8739	-0.343
Mof_C 	C 	0.7921	0.1662	0.1261	-0.343
Mof_C 	C 	0.3679	0.4934	0.3038	0.086
Mof_C 	C 	0.2897	0.886	0.8955	0.34
Mof_C 	C 	0.9613	0.4494	0.3999	0.333
Mof_C 	C 	0.3831	0.862	0.917	-0.333
Mof_C 	C 	0.5699	0.0363	0.9037	0.353
Mof_C 	C 	0.4377	0.8744	0.576	0.41
Mof_C 	C 	0.7367	0.8042	0.8885	-0.333
Mof_C 	C 	0.1303	0.5225	0.5795	-0.38
Mof_C 	C 	0.0484	0.2106	0.914	-0.333
Mof_C 	C 	0.3679	0.9934	0.1962	0.087
Mof_C 	C 	0.6472	0.4999	0.5695	-0.401
Mof_C 	C 	0.1243	0.818	0.0361	-0.317
Mof_C 	C 	0.5143	0.3579	0.4349	0.362
Mof_C 	C 	0.1851	0.6409	0.4084	0.336
Mof_C 	C 	0.7605	0.2302	0.6188	0.2
Mof_C 	C 	0.0387	0.0506	0.8999	0.333
Mof_C 	C 	0.6204	0.2593	0.4551	0.234
Mof_C 	C 	0.6169	0.138	0.083	-0.333
Mof_C 	C 	0.5623	0.6256	0.076	0.41
Mof_C 	C 	0.0382	0.5122	0.7682	0.302
Mof_C 	C 	0.8663	0.2587	0.9669	0.196
Mof_C 	C 	0.7164	0.4653	0.6064	0.336
Mof_C 	C 	0.8149	0.3591	0.5916	0.336
Mof_C 	C 	0.7164	0.9653	0.8936	0.336
Mof_C 	C 	0.9516	0.7894	0.086	-0.333
Mof_C 	C 	0.9516	0.2894	0.414	-0.328
Mof_C 	C 	0.5628	0.1936	0.9085	-0.365
Mof_C 	C 	0.2208	0.2577	0.6259	0.216
Mof_C 	C 	0.5591	0.538	0.6596	-0.276
Mof_C 	C 	0.6236	0.511	0.7659	0.329
Mof_C 	C 	0.6756	0.8506	0.3937	0.456
Mof_C 	C 	0.6035	0.7139	0.4164	0.217
Mof_C 	C 	0.8149	0.8591	0.9084	0.333
Mof_C 	C 	0.7605	0.7302	0.8812	0.198
Mof_C 	C 	0.6169	0.638	0.417	-0.333
Mof_C 	C 	0.6076	0.8349	0.0424	-0.352
Mof_C 	C 	0.7103	0.114	0.1045	0.34
Mof_C 	C 	0.2836	0.0347	0.1064	0.336
Mof_C 	C 	0.5591	0.038	0.8404	-0.276
Mof_C 	C 	0.9403	0.7695	0.9147	0.183
Mof_C 	C 	0.6756	0.3506	0.1063	0.456
Mof_C 	C 	0.4857	0.6421	0.5651	0.362
Mof_C 	C 	0.9618	0.4878	0.2318	0.302
Mof_C 	C 	0.8663	0.7587	0.5331	0.196
Mof_C 	C 	0.3145	0.2324	0.605	-0.258
Mof_C 	C 	0.4409	0.962	0.1596	-0.276
Mof_C 	C 	0.6076	0.3349	0.4576	-0.351
Mof_C 	C 	0.3244	0.1494	0.6063	0.456
Mof_C 	C 	0.3244	0.6494	0.8937	0.456
Mof_C 	C 	0.7921	0.6662	0.3739	-0.342
Mof_C 	C 	0.2208	0.7577	0.8741	0.216
Mof_C 	C 	0.5623	0.1256	0.424	0.41
Mof_C 	C 	0.3796	0.7407	0.5449	0.234
Mof_C 	C 	0.2395	0.7698	0.3812	0.2
Mof_C 	C 	0.9918	0.9537	0.1605	-0.284
Mof_C 	C 	0.5466	0.2071	0.4273	-0.269
Mof_C 	C 	0.4301	0.9637	0.0963	0.353
Mof_C 	C 	0.0522	0.6878	0.0569	-0.25
Mof_C 	C 	0.083	0.1569	0.078	-0.313
Mof_C 	C 	0.3965	0.7861	0.9164	0.217
Mof_C 	C 	0.3924	0.1651	0.9576	-0.352
Mof_C 	C 	0.2897	0.386	0.6045	0.34
Mof_C 	C 	0.057	0.1044	0.4503	0.447
Mof_C 	C 	0.8697	0.4775	0.4205	-0.38
Mof_C 	C 	0.2633	0.1958	0.1115	-0.333
Mof_C 	C 	0.1672	0.9897	0.8157	-0.271
Mof_C 	C 	0.3528	0.0001	0.0695	-0.401
Mof_C 	C 	0.5448	0.7683	0.5958	0.241
Mof_C 	C 	0.0597	0.2305	0.0853	0.183
Mof_C 	C 	0.7792	0.7423	0.3741	0.216
Mof_C 	C 	0.3965	0.2861	0.5836	0.217
Mof_C 	C 	0.0366	0.7867	0.5847	0.211
Mof_C 	C 	0.0324	0.3408	0.4388	0.325
Mof_C 	C 	0.4301	0.4637	0.4037	0.352
Mof_C 	C 	0.057	0.6044	0.0497	0.447
Mof_C 	C 	0.0366	0.2867	0.9153	0.207
Mof_C 	C 	0.5699	0.5363	0.5963	0.352
Mof_C 	C 	0.6321	0.0066	0.8038	0.087
Mof_C 	C 	0.7103	0.614	0.3955	0.34
Mof_C 	C 	0.0082	0.5463	0.6605	-0.275
Mof_C 	C 	0.8085	0.5095	0.3774	0.323
Mof_C 	C 	0.9266	0.9838	0.2026	0.097
Mof_C 	C 	0.4857	0.1421	0.9349	0.362
Mof_C 	C 	0.0082	0.0463	0.8395	-0.284
Mof_C 	C 	0.083	0.6569	0.422	-0.317
Mof_C 	C 	0.4409	0.462	0.3404	-0.276
Mof_C 	C 	0.893	0.6322	0.8889	0.418
Mof_C 	C 	0.8757	0.182	0.9639	-0.317
Mof_C 	C 	0.4552	0.7317	0.0958	0.241
Mof_C 	C 	0.2836	0.5347	0.3936	0.336
Mof_C 	C 	0.7113	0.9679	0.8303	-0.268
Mof_C 	C 	0.9634	0.7133	0.0847	0.207
Mof_C 	C 	0.8757	0.682	0.5361	-0.316
Mof_C 	C 	0.2079	0.3338	0.6261	-0.342
Mof_C 	C 	0.8328	0.0103	0.1843	-0.271
Mof_C 	C 	0.2887	0.5321	0.3303	-0.267
Mof_C 	C 	0.1303	0.0225	0.9205	-0.385
Mof_C 	C 	0.3145	0.7324	0.895	-0.258
Mof_C 	C 	0.1915	0.9905	0.8774	0.327
Mof_C 	C 	0.9403	0.2695	0.5853	0.191
Mof_C 	C 	0.3528	0.5001	0.4305	-0.401
Mof_C 	C 	0.7792	0.2423	0.1259	0.216
Mof_C 	C 	0.6321	0.5066	0.6962	0.086
Mof_C 	C 	0.9478	0.3122	0.9431	-0.25
Mof_C 	C 	0.3764	0.989	0.2659	0.33
Mof_C 	C 	0.8697	0.9775	0.0795	-0.385
Mof_C 	C 	0.8085	0.0095	0.1226	0.327
Mof_C 	C 	0.5448	0.2683	0.9042	0.241
Mof_C 	C 	0.3796	0.2407	0.9551	0.234
Mof_C 	C 	0.8328	0.5103	0.3157	-0.273
Mof_C 	C 	0.0597	0.7305	0.4147	0.191
Mof_C 	C 	0.3924	0.6651	0.5424	-0.351
Mof_C 	C 	0.5628	0.6936	0.5915	-0.365
Mof_C 	C 	0.1672	0.4897	0.6843	-0.273
Mof_C 	C 	0.0387	0.5506	0.6001	0.333
Mof_C 	C 	0.3764	0.489	0.2341	0.329
Mof_C 	C 	0.9266	0.4838	0.2974	0.096
Mof_C 	C 	0.2887	0.0321	0.1697	-0.268
Mof_C 	C 	0.9676	0.1592	0.9388	0.33
Mof_C 	C 	0.893	0.1322	0.6111	0.419
Mof_C 	C 	0.1915	0.4905	0.6226	0.323
Mof_C 	C 	0.9634	0.2133	0.4153	0.211
Mof_C 	C 	0.4534	0.7929	0.5727	-0.269
Mof_C 	C 	0.9478	0.8122	0.5569	-0.254
Mof_C 	C 	0.0382	0.0122	0.7318	0.296
Mof_C 	C 	0.0324	0.8408	0.0612	0.33
Mof_C 	C 	0.9918	0.4537	0.3395	-0.275
Mof_C 	C 	0.943	0.8956	0.5497	0.447
Mof_C 	C 	0.5466	0.7071	0.0727	-0.269
Mof_C 	C 	0.5143	0.8579	0.0651	0.362
Mof_C 	C 	0.9613	0.9494	0.1001	0.333
Mof_C 	C 	0.1337	0.2413	0.4669	0.196
Mof_C 	C 	0.2633	0.6958	0.3885	-0.336
Mof_C 	C 	0.107	0.3678	0.1111	0.418
Mof_C 	C 	0.1243	0.318	0.4639	-0.316
Mof_C 	C 	0.107	0.8678	0.3889	0.419
Mof_C 	C 	0.0734	0.5162	0.7026	0.096
Mof_C 	C 	0.1384	0.7884	0.395	-0.223
Mof_C 	C 	0.0484	0.7106	0.586	-0.328
Mof_C 	C 	0.6035	0.2139	0.0836	0.217
Mof_C 	C 	0.4372	0.8064	0.0915	-0.365
Mof_C 	C 	0.943	0.3956	0.9503	0.447
Mof_C 	C 	0.8616	0.2116	0.605	-0.223
Mof_O 	O 	0.4979	0.0823	0.3916	-0.407
Mof_O 	O 	0.759	0.897	0.3874	-0.406
Mof_O 	O 	0.9109	0.9183	0.499	-0.367
Mof_O 	O 	0.0262	0.4183	0.4434	-0.313
Mof_O 	O 	0.4166	0.1299	0.6022	-0.407
Mof_O 	O 	0.9738	0.0817	0.9434	-0.311
Mof_O 	O 	0.0891	0.5817	0.999	-0.368
Mof_O 	O 	0.7979	0.933	0.9229	-0.326
Mof_O 	O 	0.2021	0.067	0.0771	-0.326
Mof_O 	O 	0.1083	0.5092	0.8091	-0.354
Mof_O 	O 	0.4488	0.4531	0.2131	-0.376
Mof_O 	O 	0.5512	0.0469	0.7131	-0.376
Mof_O 	O 	0.2792	0.5775	0.076	-0.417
Mof_O 	O 	0.9399	0.5127	0.77828	-0.374
Mof_O 	O 	0.0601	0.9873	0.27828	-0.369
Mof_O 	O 	0.0891	0.0817	0.501	-0.367
Mof_O 	O 	0.8917	0.9908	0.3091	-0.354
Mof_O 	O 	0.8917	0.4908	0.1909	-0.354
Mof_O 	O 	0.9109	0.4183	0.001	-0.368
Mof_O 	O 	0.6359	0.6021	0.0476	-0.314
Mof_O 	O 	0.7144	0.5364	0.3994	-0.319
Mof_O 	O 	0.8174	0.5775	0.8873	-0.36
Mof_O 	O 	0.9651	0.4393	0.9048	-0.459
Mof_O 	O 	0.4983	0.5661	0.55839	-0.334
Mof_O 	O 	0.817	0.0408	0.4592	-0.394
Mof_O 	O 	0.2856	0.9636	0.8994	-0.32
Mof_O 	O 	0.9907	0.126	0.614	-0.389
Mof_O 	O 	0.0093	0.374	0.114	-0.391
Mof_O 	O 	0.7208	0.4225	0.924	-0.417
Mof_O 	O 	0.0349	0.5607	0.0952	-0.459
Mof_O 	O 	0.9907	0.626	0.886	-0.391
Mof_O 	O 	0.5021	0.4177	0.8916	-0.407
Mof_O 	O 	0.6862	0.9784	0.7029	-0.387
Mof_O 	O 	0.5834	0.3701	0.1022	-0.407
Mof_O 	O 	0.1826	0.9225	0.3873	-0.359
Mof_O 	O 	0.241	0.103	0.6126	-0.406
Mof_O 	O 	0.7144	0.0364	0.1006	-0.32
Mof_O 	O 	0.5512	0.5469	0.7869	-0.376
Mof_O 	O 	0.0601	0.4873	0.22172	-0.374
Mof_O 	O 	0.3138	0.0216	0.2971	-0.387
Mof_O 	O 	0.3641	0.3979	0.9524	-0.314
Mof_O 	O 	0.5834	0.8701	0.3978	-0.407
Mof_O 	O 	0.5017	0.4339	0.44161	-0.334
Mof_O 	O 	0.1083	0.0092	0.6909	-0.354
Mof_O 	O 	0.4983	0.0661	0.94161	-0.335
Mof_O 	O 	0.1826	0.4225	0.1127	-0.36
Mof_O 	O 	0.0262	0.9183	0.0566	-0.311
Mof_O 	O 	0.2792	0.0775	0.424	-0.417
Mof_O 	O 	0.3138	0.5216	0.2029	-0.387
Mof_O 	O 	0.4979	0.5823	0.1084	-0.407
Mof_O 	O 	0.5017	0.9339	0.05839	-0.335
Mof_O 	O 	0.241	0.603	0.8874	-0.406
Mof_O 	O 	0.4166	0.6299	0.8978	-0.407
Mof_O 	O 	0.7208	0.9225	0.576	-0.417
Mof_O 	O 	0.8174	0.0775	0.6127	-0.359
Mof_O 	O 	0.759	0.397	0.1126	-0.406
Mof_O 	O 	0.183	0.4592	0.9592	-0.396
Mof_O 	O 	0.817	0.5408	0.0408	-0.396
Mof_O 	O 	0.4488	0.9531	0.2869	-0.376
Mof_O 	O 	0.2856	0.4636	0.6006	-0.319
Mof_O 	O 	0.2021	0.567	0.4229	-0.327
Mof_O 	O 	0.183	0.9592	0.5408	-0.394
Mof_O 	O 	0.9651	0.9393	0.5952	-0.461
Mof_O 	O 	0.9399	0.0127	0.72172	-0.369
Mof_O 	O 	0.3641	0.8979	0.5476	-0.313
Mof_O 	O 	0.0093	0.874	0.386	-0.389
Mof_O 	O 	0.5021	0.9177	0.6084	-0.407
Mof_O 	O 	0.7979	0.433	0.5771	-0.327
Mof_O 	O 	0.6359	0.1021	0.4524	-0.313
Mof_O 	O 	0.6862	0.4784	0.7971	-0.387
Mof_O 	O 	0.9738	0.5817	0.5566	-0.313
Mof_O 	O 	0.0349	0.0607	0.4048	-0.461
_end
