data_functionalizedCrystal
_audit_creation_method	'EQeq! by Chris Wilmer'
_symmetry_space_group_name_H-M	'P1'
_symmetry_Int_Tables_number	1
_symmetry_cell_setting	triclinic
loop_
_symmetry_equiv_pos_as_xyz
  x,y,z
_cell_length_a	12.362
_cell_length_b	12.652
_cell_length_c	12.652
_cell_angle_alpha	90
_cell_angle_beta	90
_cell_angle_gamma	90
loop_
_atom_site_label
_atom_site_type_symbol
_atom_site_fract_x
_atom_site_fract_y
_atom_site_fract_z
_atom_site_charge
Mof_Ag	Ag	4.95479e-34	0.12912	0.12912	0.671
Mof_Ag	Ag	0.5	0.87088	0.87088	0.698
Mof_Ag	Ag	0.25	0.37088	0.62912	0.698
Mof_Ag	Ag	0.75	0.62912	0.37088	0.702
Mof_H 	H 	0.9711	0.3304	0.9575	0.048
Mof_H 	H 	0.1771	0.9202	0.159	0.036
Mof_H 	H 	0.0373	0.4001	0.8039	0.032
Mof_H 	H 	0.4711	0.6696	0.0425	0.026
Mof_H 	H 	0.6771	0.0798	0.841	0.037
Mof_H 	H 	0.5373	0.5999	0.1961	0.041
Mof_H 	H 	0.2211	0.5425	0.8304	0.025
Mof_H 	H 	0.4271	0.341	0.4202	0.038
Mof_H 	H 	0.2873	0.6961	0.9001	0.04
Mof_H 	H 	0.7211	0.4575	0.1696	0.026
Mof_H 	H 	0.9271	0.659	0.5798	0.03
Mof_H 	H 	0.7873	0.3039	0.0999	0.043
Mof_H 	H 	0.2789	0.1696	0.4575	0.025
Mof_H 	H 	0.0729	0.5798	0.659	0.046
Mof_H 	H 	0.2127	0.0999	0.3039	0.042
Mof_H 	H 	0.7789	0.8304	0.5425	0.027
Mof_H 	H 	0.5729	0.4202	0.341	0.038
Mof_H 	H 	0.7127	0.9001	0.6961	0.041
Mof_H 	H 	0.0289	0.9575	0.3304	0.005
Mof_H 	H 	0.8229	0.159	0.9202	0.043
Mof_H 	H 	0.9627	0.8039	0.4001	0.05
Mof_H 	H 	0.5289	0.0425	0.6696	0.027
Mof_H 	H 	0.3229	0.841	0.0798	0.038
Mof_H 	H 	0.4627	0.1961	0.5999	0.041
Mof_C 	C 	0.0303	0.2979	0.9259	-0.006
Mof_C 	C 	0.1583	0.1704	0.9234	0.035
Mof_C 	C 	0.2049	0.0766	0.9709	0.043
Mof_C 	C 	0.2059	0.9507	0.0984	0.026
Mof_C 	C 	0.0715	0.3418	0.8336	0.021
Mof_C 	C 	0.2022	0.2138	0.8335	0.034
Mof_C 	C 	0.5303	0.7021	0.0741	0.029
Mof_C 	C 	0.6583	0.8296	0.0766	0.037
Mof_C 	C 	0.7049	0.9234	0.0291	0.046
Mof_C 	C 	0.7059	0.0493	0.9016	0.033
Mof_C 	C 	0.5715	0.6582	0.1664	0.006
Mof_C 	C 	0.7022	0.7862	0.1665	0.034
Mof_C 	C 	0.2803	0.5741	0.7979	0.029
Mof_C 	C 	0.4083	0.5766	0.6704	0.037
Mof_C 	C 	0.4549	0.5291	0.5766	0.043
Mof_C 	C 	0.4559	0.4016	0.4507	0.028
Mof_C 	C 	0.3215	0.6664	0.8418	0.006
Mof_C 	C 	0.4522	0.6665	0.7138	0.033
Mof_C 	C 	0.7803	0.4259	0.2021	0.029
Mof_C 	C 	0.9083	0.4234	0.3296	0.026
Mof_C 	C 	0.9549	0.4709	0.4234	0.07
Mof_C 	C 	0.9559	0.5984	0.5493	0.059
Mof_C 	C 	0.8215	0.3336	0.1582	0.008
Mof_C 	C 	0.9522	0.3335	0.2862	0.058
Mof_C 	C 	0.2197	0.2021	0.4259	0.03
Mof_C 	C 	0.0917	0.3296	0.4234	0.048
Mof_C 	C 	0.0451	0.4234	0.4709	0.017
Mof_C 	C 	0.0441	0.5493	0.5984	-0.003
Mof_C 	C 	0.1785	0.1582	0.3336	0.004
Mof_C 	C 	0.0478	0.2862	0.3335	0.009
Mof_C 	C 	0.7197	0.7979	0.5741	0.029
Mof_C 	C 	0.5917	0.6704	0.5766	0.037
Mof_C 	C 	0.5451	0.5766	0.5291	0.043
Mof_C 	C 	0.5441	0.4507	0.4016	0.028
Mof_C 	C 	0.6785	0.8418	0.6664	0.006
Mof_C 	C 	0.5478	0.7138	0.6665	0.033
Mof_C 	C 	0.9697	0.9259	0.2979	0.064
Mof_C 	C 	0.8417	0.9234	0.1704	0.041
Mof_C 	C 	0.7951	0.9709	0.0766	0.041
Mof_C 	C 	0.7941	0.0984	0.9507	0.023
Mof_C 	C 	0.9285	0.8336	0.3418	-0.008
Mof_C 	C 	0.7978	0.8335	0.2138	0.031
Mof_C 	C 	0.4697	0.0741	0.7021	0.029
Mof_C 	C 	0.3417	0.0766	0.8296	0.037
Mof_C 	C 	0.2951	0.0291	0.9234	0.043
Mof_C 	C 	0.2941	0.9016	0.0493	0.027
Mof_C 	C 	0.4285	0.1664	0.6582	0.006
Mof_C 	C 	0.2978	0.1665	0.7862	0.032
Mof_N 	N 	0.0702	0.2138	0.9705	-0.151
Mof_N 	N 	0.1623	0.0383	0.0619	-0.149
Mof_N 	N 	0.1598	0.3016	0.7864	-0.155
Mof_N 	N 	0.5702	0.7862	0.0295	-0.157
Mof_N 	N 	0.6623	0.9617	0.9381	-0.152
Mof_N 	N 	0.6598	0.6984	0.2136	-0.152
Mof_N 	N 	0.3202	0.5295	0.7138	-0.157
Mof_N 	N 	0.4123	0.4381	0.5383	-0.149
Mof_N 	N 	0.4098	0.7136	0.8016	-0.152
Mof_N 	N 	0.8202	0.4705	0.2862	-0.154
Mof_N 	N 	0.9123	0.5619	0.4617	-0.157
Mof_N 	N 	0.9098	0.2864	0.1984	-0.149
Mof_N 	N 	0.1798	0.2862	0.4705	-0.159
Mof_N 	N 	0.0877	0.4617	0.5619	-0.141
Mof_N 	N 	0.0902	0.1984	0.2864	-0.149
Mof_N 	N 	0.6798	0.7138	0.5295	-0.157
Mof_N 	N 	0.5877	0.5383	0.4381	-0.149
Mof_N 	N 	0.5902	0.8016	0.7136	-0.152
Mof_N 	N 	0.9298	0.9705	0.2138	-0.158
Mof_N 	N 	0.8377	0.0619	0.0383	-0.14
Mof_N 	N 	0.8402	0.7864	0.3016	-0.149
Mof_N 	N 	0.4298	0.0295	0.7862	-0.157
Mof_N 	N 	0.3377	0.9381	0.9617	-0.149
Mof_N 	N 	0.3402	0.2136	0.6984	-0.152
Mof_Cl	Cl	-9.51121e-33	0.8458	0.8458	-0.235
Mof_O 	O 	0.0373	0.738	0.813	-0.039
Mof_O 	O 	0.996	0.828	0.958	-0.018
Mof_O 	O 	0.9627	0.813	0.738	-0.019
Mof_O 	O 	0.004	0.958	0.828	-0.035
Mof_Cl	Cl	0.5	0.1542	0.1542	-0.214
Mof_O 	O 	0.5373	0.262	0.187	-0.033
Mof_O 	O 	0.496	0.172	0.042	-0.032
Mof_O 	O 	0.4627	0.187	0.262	-0.033
Mof_O 	O 	0.504	0.042	0.172	-0.031
Mof_Cl	Cl	0.25	0.6542	0.3458	-0.215
Mof_O 	O 	0.2873	0.687	0.238	-0.034
Mof_O 	O 	0.246	0.542	0.328	-0.034
Mof_O 	O 	0.2127	0.762	0.313	-0.036
Mof_O 	O 	0.254	0.672	0.458	-0.034
Mof_Cl	Cl	0.75	0.3458	0.6542	-0.214
Mof_O 	O 	0.7873	0.313	0.762	-0.03
Mof_O 	O 	0.746	0.458	0.672	-0.031
Mof_O 	O 	0.7127	0.238	0.687	-0.032
Mof_O 	O 	0.754	0.328	0.542	-0.03
_end
