data_functionalizedCrystal
_audit_creation_method	'EQeq! by Chris Wilmer'
_symmetry_space_group_name_H-M	'P1'
_symmetry_Int_Tables_number	1
_symmetry_cell_setting	triclinic
loop_
_symmetry_equiv_pos_as_xyz
  x,y,z
_cell_length_a	18.7065
_cell_length_b	18.7065
_cell_length_c	38.488
_cell_angle_alpha	90
_cell_angle_beta	90
_cell_angle_gamma	120
loop_
_atom_site_label
_atom_site_type_symbol
_atom_site_fract_x
_atom_site_fract_y
_atom_site_fract_z
_atom_site_charge
Mof_C 	C 	0.4531	0.3601	0.02636	0.46
Mof_C 	C 	0.4318	0.2803	0.04362	-0.232
Mof_C 	C 	0.4016	0.2645	0.07734	0.653
Mof_H 	H 	0.3904	0.3019	0.0885	-0.027
Mof_C 	C 	0.2734	0.1843	0.1779	2.585
Mof_H 	H 	0.2312	0.1959	0.1852	-0.611
Mof_C 	C 	0.3003	0.197	0.1434	-4.859
Mof_O 	O 	0.48255	0.37154	0.99606	-0.311
Mof_O 	O 	0.4418	0.41065	0.04372	-0.287
Mof_F 	F 	0.2525	0.2211	0.1208	-5.867
Mof_H 	H 	0.2771	0.22	0.1278	7.282
Mof_C 	C 	0.11977	0.69343	0.35969	0.441
Mof_C 	C 	0.09847	0.61363	0.37695	-0.185
Mof_C 	C 	0.06827	0.59783	0.41067	0.553
Mof_H 	H 	0.05707	0.63523	0.42183	0.005
Mof_C 	C 	0.94007	0.51763	0.51123	2.415
Mof_H 	H 	0.89787	0.52923	0.51853	-0.565
Mof_C 	C 	0.96697	0.53033	0.47673	-4.611
Mof_O 	O 	0.14922	0.70487	0.32939	-0.311
Mof_O 	O 	0.10847	0.74398	0.37705	-0.285
Mof_F 	F 	0.91917	0.55443	0.45413	-5.681
Mof_H 	H 	0.94377	0.55333	0.46113	7.024
Mof_C 	C 	0.78643	0.02677	0.69303	0.417
Mof_C 	C 	0.76513	0.94697	0.71029	-0.125
Mof_C 	C 	0.73493	0.93117	0.74401	0.448
Mof_H 	H 	0.72373	0.96857	0.75517	0.043
Mof_C 	C 	0.60673	0.85097	0.84457	2.237
Mof_H 	H 	0.56453	0.86257	0.85187	-0.515
Mof_C 	C 	0.63363	0.86367	0.81007	-4.346
Mof_O 	O 	0.81588	0.03821	0.66273	-0.305
Mof_O 	O 	0.77513	0.07732	0.71039	-0.281
Mof_F 	F 	0.58583	0.88777	0.78747	-5.474
Mof_H 	H 	0.61043	0.88667	0.79447	6.743
Mof_C 	C 	0.6399	0.093	0.02636	0.46
Mof_C 	C 	0.7197	0.1515	0.04362	-0.233
Mof_C 	C 	0.7355	0.1371	0.07734	0.653
Mof_H 	H 	0.6981	0.0885	0.0885	-0.028
Mof_C 	C 	0.8157	0.0891	0.1779	2.588
Mof_H 	H 	0.8041	0.0353	0.1852	-0.612
Mof_C 	C 	0.803	0.1033	0.1434	-4.862
Mof_O 	O 	0.62846	0.11101	0.99606	-0.312
Mof_O 	O 	0.58935	0.03115	0.04372	-0.287
Mof_F 	F 	0.7789	0.0314	0.1208	-5.868
Mof_H 	H 	0.78	0.0571	0.1278	7.285
Mof_C 	C 	0.30657	0.42633	0.35969	0.441
Mof_C 	C 	0.38637	0.48483	0.37695	-0.184
Mof_C 	C 	0.40217	0.47043	0.41067	0.554
Mof_H 	H 	0.36477	0.42183	0.42183	0.006
Mof_C 	C 	0.48237	0.42243	0.51123	2.415
Mof_H 	H 	0.47077	0.36863	0.51853	-0.564
Mof_C 	C 	0.46967	0.43663	0.47673	-4.611
Mof_O 	O 	0.29513	0.44434	0.32939	-0.311
Mof_O 	O 	0.25602	0.36448	0.37705	-0.285
Mof_F 	F 	0.44557	0.36473	0.45413	-5.682
Mof_H 	H 	0.44667	0.39043	0.46113	7.025
Mof_C 	C 	0.97323	0.75967	0.69303	0.417
Mof_C 	C 	0.05303	0.81817	0.71029	-0.123
Mof_C 	C 	0.06883	0.80377	0.74401	0.446
Mof_H 	H 	0.03143	0.75517	0.75517	0.044
Mof_C 	C 	0.14903	0.75577	0.84457	2.234
Mof_H 	H 	0.13743	0.70197	0.85187	-0.514
Mof_C 	C 	0.13633	0.76997	0.81007	-4.341
Mof_O 	O 	0.96179	0.77768	0.66273	-0.305
Mof_O 	O 	0.92268	0.69782	0.71039	-0.281
Mof_F 	F 	0.11223	0.69807	0.78747	-5.47
Mof_H 	H 	0.11333	0.72377	0.79447	6.738
Mof_C 	C 	0.907	0.5469	0.02636	0.46
Mof_C 	C 	0.8485	0.5682	0.04362	-0.233
Mof_C 	C 	0.8629	0.5984	0.07734	0.652
Mof_H 	H 	0.9115	0.6096	0.0885	-0.028
Mof_C 	C 	0.9109	0.7266	0.1779	2.586
Mof_H 	H 	0.9647	0.7688	0.1852	-0.611
Mof_C 	C 	0.8967	0.6997	0.1434	-4.86
Mof_O 	O 	0.88899	0.51745	0.99606	-0.312
Mof_O 	O 	0.96885	0.5582	0.04372	-0.287
Mof_F 	F 	0.9686	0.7475	0.1208	-5.868
Mof_H 	H 	0.9429	0.7229	0.1278	7.284
Mof_C 	C 	0.57367	0.88023	0.35969	0.441
Mof_C 	C 	0.51517	0.90153	0.37695	-0.185
Mof_C 	C 	0.52957	0.93173	0.41067	0.553
Mof_H 	H 	0.57817	0.94293	0.42183	0.006
Mof_C 	C 	0.57757	0.05993	0.51123	2.415
Mof_H 	H 	0.63137	0.10213	0.51853	-0.565
Mof_C 	C 	0.56337	0.03303	0.47673	-4.611
Mof_O 	O 	0.55566	0.85078	0.32939	-0.311
Mof_O 	O 	0.63552	0.89153	0.37705	-0.285
Mof_F 	F 	0.63527	0.08083	0.45413	-5.681
Mof_H 	H 	0.60957	0.05623	0.46113	7.024
Mof_C 	C 	0.24033	0.21357	0.69303	0.421
Mof_C 	C 	0.18183	0.23487	0.71029	-0.128
Mof_C 	C 	0.19623	0.26507	0.74401	0.449
Mof_H 	H 	0.24483	0.27627	0.75517	0.042
Mof_C 	C 	0.24423	0.39327	0.84457	2.236
Mof_H 	H 	0.29803	0.43547	0.85187	-0.515
Mof_C 	C 	0.23003	0.36637	0.81007	-4.345
Mof_O 	O 	0.22232	0.18412	0.66273	-0.305
Mof_O 	O 	0.30218	0.22487	0.71039	-0.281
Mof_F 	F 	0.30193	0.41417	0.78747	-5.474
Mof_H 	H 	0.27623	0.38957	0.79447	6.742
Mof_C 	C 	0.3601	0.4531	0.97364	0.459
Mof_C 	C 	0.2803	0.4318	0.95638	-0.233
Mof_C 	C 	0.2645	0.4016	0.92266	0.652
Mof_H 	H 	0.3019	0.3904	0.9115	-0.028
Mof_C 	C 	0.1843	0.2734	0.8221	2.585
Mof_H 	H 	0.1959	0.2312	0.8148	-0.611
Mof_C 	C 	0.197	0.3003	0.8566	-4.859
Mof_O 	O 	0.37154	0.48255	0.00394	-0.311
Mof_O 	O 	0.41065	0.4418	0.95628	-0.287
Mof_F 	F 	0.2211	0.2525	0.8792	-5.867
Mof_H 	H 	0.22	0.2771	0.8722	7.282
Mof_C 	C 	0.02677	0.78643	0.30697	0.417
Mof_C 	C 	0.94697	0.76513	0.28971	-0.125
Mof_C 	C 	0.93117	0.73493	0.25599	0.448
Mof_H 	H 	0.96857	0.72373	0.24483	0.043
Mof_C 	C 	0.85097	0.60673	0.15543	2.237
Mof_H 	H 	0.86257	0.56453	0.14813	-0.515
Mof_C 	C 	0.86367	0.63363	0.18993	-4.346
Mof_O 	O 	0.03821	0.81588	0.33727	-0.305
Mof_O 	O 	0.07732	0.77513	0.28961	-0.281
Mof_F 	F 	0.88777	0.58583	0.21253	-5.474
Mof_H 	H 	0.88667	0.61043	0.20553	6.743
Mof_C 	C 	0.69343	0.11977	0.64031	0.441
Mof_C 	C 	0.61363	0.09847	0.62305	-0.185
Mof_C 	C 	0.59783	0.06827	0.58933	0.553
Mof_H 	H 	0.63523	0.05707	0.57817	0.005
Mof_C 	C 	0.51763	0.94007	0.48877	2.415
Mof_H 	H 	0.52923	0.89787	0.48147	-0.565
Mof_C 	C 	0.53033	0.96697	0.52327	-4.611
Mof_O 	O 	0.70487	0.14922	0.67061	-0.311
Mof_O 	O 	0.74398	0.10847	0.62295	-0.285
Mof_F 	F 	0.55443	0.91917	0.54587	-5.681
Mof_H 	H 	0.55333	0.94377	0.53887	7.024
Mof_C 	C 	0.093	0.6399	0.97364	0.46
Mof_C 	C 	0.1515	0.7197	0.95638	-0.233
Mof_C 	C 	0.1371	0.7355	0.92266	0.653
Mof_H 	H 	0.0885	0.6981	0.9115	-0.028
Mof_C 	C 	0.0891	0.8157	0.8221	2.588
Mof_H 	H 	0.0353	0.8041	0.8148	-0.612
Mof_C 	C 	0.1033	0.803	0.8566	-4.862
Mof_O 	O 	0.11101	0.62846	0.00394	-0.312
Mof_O 	O 	0.03115	0.58935	0.95628	-0.287
Mof_F 	F 	0.0314	0.7789	0.8792	-5.868
Mof_H 	H 	0.0571	0.78	0.8722	7.285
Mof_C 	C 	0.75967	0.97323	0.30697	0.417
Mof_C 	C 	0.81817	0.05303	0.28971	-0.123
Mof_C 	C 	0.80377	0.06883	0.25599	0.446
Mof_H 	H 	0.75517	0.03143	0.24483	0.044
Mof_C 	C 	0.75577	0.14903	0.15543	2.234
Mof_H 	H 	0.70197	0.13743	0.14813	-0.514
Mof_C 	C 	0.76997	0.13633	0.18993	-4.341
Mof_O 	O 	0.77768	0.96179	0.33727	-0.305
Mof_O 	O 	0.69782	0.92268	0.28961	-0.281
Mof_F 	F 	0.69807	0.11223	0.21253	-5.47
Mof_H 	H 	0.72377	0.11333	0.20553	6.738
Mof_C 	C 	0.42633	0.30657	0.64031	0.441
Mof_C 	C 	0.48483	0.38637	0.62305	-0.184
Mof_C 	C 	0.47043	0.40217	0.58933	0.554
Mof_H 	H 	0.42183	0.36477	0.57817	0.006
Mof_C 	C 	0.42243	0.48237	0.48877	2.415
Mof_H 	H 	0.36863	0.47077	0.48147	-0.564
Mof_C 	C 	0.43663	0.46967	0.52327	-4.611
Mof_O 	O 	0.44434	0.29513	0.67061	-0.311
Mof_O 	O 	0.36448	0.25602	0.62295	-0.285
Mof_F 	F 	0.36473	0.44557	0.54587	-5.682
Mof_H 	H 	0.39043	0.44667	0.53887	7.025
Mof_C 	C 	0.5469	0.907	0.97364	0.46
Mof_C 	C 	0.5682	0.8485	0.95638	-0.233
Mof_C 	C 	0.5984	0.8629	0.92266	0.652
Mof_H 	H 	0.6096	0.9115	0.9115	-0.028
Mof_C 	C 	0.7266	0.9109	0.8221	2.586
Mof_H 	H 	0.7688	0.9647	0.8148	-0.611
Mof_C 	C 	0.6997	0.8967	0.8566	-4.86
Mof_O 	O 	0.51745	0.88899	0.00394	-0.312
Mof_O 	O 	0.5582	0.96885	0.95628	-0.287
Mof_F 	F 	0.7475	0.9686	0.8792	-5.868
Mof_H 	H 	0.7229	0.9429	0.8722	7.284
Mof_C 	C 	0.21357	0.24033	0.30697	0.421
Mof_C 	C 	0.23487	0.18183	0.28971	-0.128
Mof_C 	C 	0.26507	0.19623	0.25599	0.449
Mof_H 	H 	0.27627	0.24483	0.24483	0.042
Mof_C 	C 	0.39327	0.24423	0.15543	2.236
Mof_H 	H 	0.43547	0.29803	0.14813	-0.515
Mof_C 	C 	0.36637	0.23003	0.18993	-4.345
Mof_O 	O 	0.18412	0.22232	0.33727	-0.305
Mof_O 	O 	0.22487	0.30218	0.28961	-0.281
Mof_F 	F 	0.41417	0.30193	0.21253	-5.474
Mof_H 	H 	0.38957	0.27623	0.20553	6.742
Mof_C 	C 	0.88023	0.57367	0.64031	0.441
Mof_C 	C 	0.90153	0.51517	0.62305	-0.185
Mof_C 	C 	0.93173	0.52957	0.58933	0.553
Mof_H 	H 	0.94293	0.57817	0.57817	0.006
Mof_C 	C 	0.05993	0.57757	0.48877	2.415
Mof_H 	H 	0.10213	0.63137	0.48147	-0.565
Mof_C 	C 	0.03303	0.56337	0.52327	-4.611
Mof_O 	O 	0.85078	0.55566	0.67061	-0.311
Mof_O 	O 	0.89153	0.63552	0.62295	-0.285
Mof_F 	F 	0.08083	0.63527	0.54587	-5.681
Mof_H 	H 	0.05623	0.60957	0.53887	7.024
Mof_C 	C 	0.5469	0.6399	0.97364	0.459
Mof_C 	C 	0.5682	0.7197	0.95638	-0.233
Mof_C 	C 	0.5984	0.7355	0.92266	0.652
Mof_H 	H 	0.6096	0.6981	0.9115	-0.028
Mof_C 	C 	0.7266	0.8157	0.8221	2.585
Mof_H 	H 	0.7688	0.8041	0.8148	-0.611
Mof_C 	C 	0.6997	0.803	0.8566	-4.859
Mof_O 	O 	0.51745	0.62846	0.00394	-0.311
Mof_O 	O 	0.5582	0.58935	0.95628	-0.287
Mof_F 	F 	0.7475	0.7789	0.8792	-5.867
Mof_H 	H 	0.7229	0.78	0.8722	7.282
Mof_C 	C 	0.21357	0.97323	0.30697	0.417
Mof_C 	C 	0.23487	0.05303	0.28971	-0.125
Mof_C 	C 	0.26507	0.06883	0.25599	0.448
Mof_H 	H 	0.27627	0.03143	0.24483	0.043
Mof_C 	C 	0.39327	0.14903	0.15543	2.237
Mof_H 	H 	0.43547	0.13743	0.14813	-0.515
Mof_C 	C 	0.36637	0.13633	0.18993	-4.346
Mof_O 	O 	0.18412	0.96179	0.33727	-0.305
Mof_O 	O 	0.22487	0.92268	0.28961	-0.281
Mof_F 	F 	0.41417	0.11223	0.21253	-5.474
Mof_H 	H 	0.38957	0.11333	0.20553	6.743
Mof_C 	C 	0.88023	0.30657	0.64031	0.441
Mof_C 	C 	0.90153	0.38637	0.62305	-0.185
Mof_C 	C 	0.93173	0.40217	0.58933	0.553
Mof_H 	H 	0.94293	0.36477	0.57817	0.005
Mof_C 	C 	0.05993	0.48237	0.48877	2.415
Mof_H 	H 	0.10213	0.47077	0.48147	-0.565
Mof_C 	C 	0.03303	0.46967	0.52327	-4.611
Mof_O 	O 	0.85078	0.29513	0.67061	-0.311
Mof_O 	O 	0.89153	0.25602	0.62295	-0.285
Mof_F 	F 	0.08083	0.44557	0.54587	-5.681
Mof_H 	H 	0.05623	0.44667	0.53887	7.024
Mof_C 	C 	0.3601	0.907	0.97364	0.46
Mof_C 	C 	0.2803	0.8485	0.95638	-0.233
Mof_C 	C 	0.2645	0.8629	0.92266	0.653
Mof_H 	H 	0.3019	0.9115	0.9115	-0.028
Mof_C 	C 	0.1843	0.9109	0.8221	2.588
Mof_H 	H 	0.1959	0.9647	0.8148	-0.612
Mof_C 	C 	0.197	0.8967	0.8566	-4.862
Mof_O 	O 	0.37154	0.88899	0.00394	-0.312
Mof_O 	O 	0.41065	0.96885	0.95628	-0.287
Mof_F 	F 	0.2211	0.9686	0.8792	-5.868
Mof_H 	H 	0.22	0.9429	0.8722	7.285
Mof_C 	C 	0.02677	0.24033	0.30697	0.417
Mof_C 	C 	0.94697	0.18183	0.28971	-0.123
Mof_C 	C 	0.93117	0.19623	0.25599	0.446
Mof_H 	H 	0.96857	0.24483	0.24483	0.044
Mof_C 	C 	0.85097	0.24423	0.15543	2.234
Mof_H 	H 	0.86257	0.29803	0.14813	-0.514
Mof_C 	C 	0.86367	0.23003	0.18993	-4.341
Mof_O 	O 	0.03821	0.22232	0.33727	-0.305
Mof_O 	O 	0.07732	0.30218	0.28961	-0.281
Mof_F 	F 	0.88777	0.30193	0.21253	-5.47
Mof_H 	H 	0.88667	0.27623	0.20553	6.738
Mof_C 	C 	0.69343	0.57367	0.64031	0.441
Mof_C 	C 	0.61363	0.51517	0.62305	-0.184
Mof_C 	C 	0.59783	0.52957	0.58933	0.554
Mof_H 	H 	0.63523	0.57817	0.57817	0.006
Mof_C 	C 	0.51763	0.57757	0.48877	2.415
Mof_H 	H 	0.52923	0.63137	0.48147	-0.564
Mof_C 	C 	0.53033	0.56337	0.52327	-4.611
Mof_O 	O 	0.70487	0.55566	0.67061	-0.311
Mof_O 	O 	0.74398	0.63552	0.62295	-0.285
Mof_F 	F 	0.55443	0.63527	0.54587	-5.682
Mof_H 	H 	0.55333	0.60957	0.53887	7.025
Mof_C 	C 	0.093	0.4531	0.97364	0.46
Mof_C 	C 	0.1515	0.4318	0.95638	-0.233
Mof_C 	C 	0.1371	0.4016	0.92266	0.652
Mof_H 	H 	0.0885	0.3904	0.9115	-0.028
Mof_C 	C 	0.0891	0.2734	0.8221	2.586
Mof_H 	H 	0.0353	0.2312	0.8148	-0.611
Mof_C 	C 	0.1033	0.3003	0.8566	-4.86
Mof_O 	O 	0.11101	0.48255	0.00394	-0.312
Mof_O 	O 	0.03115	0.4418	0.95628	-0.287
Mof_F 	F 	0.0314	0.2525	0.8792	-5.868
Mof_H 	H 	0.0571	0.2771	0.8722	7.284
Mof_C 	C 	0.75967	0.78643	0.30697	0.421
Mof_C 	C 	0.81817	0.76513	0.28971	-0.128
Mof_C 	C 	0.80377	0.73493	0.25599	0.449
Mof_H 	H 	0.75517	0.72373	0.24483	0.042
Mof_C 	C 	0.75577	0.60673	0.15543	2.236
Mof_H 	H 	0.70197	0.56453	0.14813	-0.515
Mof_C 	C 	0.76997	0.63363	0.18993	-4.345
Mof_O 	O 	0.77768	0.81588	0.33727	-0.305
Mof_O 	O 	0.69782	0.77513	0.28961	-0.281
Mof_F 	F 	0.69807	0.58583	0.21253	-5.474
Mof_H 	H 	0.72377	0.61043	0.20553	6.742
Mof_C 	C 	0.42633	0.11977	0.64031	0.441
Mof_C 	C 	0.48483	0.09847	0.62305	-0.185
Mof_C 	C 	0.47043	0.06827	0.58933	0.553
Mof_H 	H 	0.42183	0.05707	0.57817	0.006
Mof_C 	C 	0.42243	0.94007	0.48877	2.415
Mof_H 	H 	0.36863	0.89787	0.48147	-0.565
Mof_C 	C 	0.43663	0.96697	0.52327	-4.611
Mof_O 	O 	0.44434	0.14922	0.67061	-0.311
Mof_O 	O 	0.36448	0.10847	0.62295	-0.285
Mof_F 	F 	0.36473	0.91917	0.54587	-5.681
Mof_H 	H 	0.39043	0.94377	0.53887	7.024
Mof_C 	C 	0.6399	0.5469	0.02636	0.459
Mof_C 	C 	0.7197	0.5682	0.04362	-0.233
Mof_C 	C 	0.7355	0.5984	0.07734	0.652
Mof_H 	H 	0.6981	0.6096	0.0885	-0.028
Mof_C 	C 	0.8157	0.7266	0.1779	2.585
Mof_H 	H 	0.8041	0.7688	0.1852	-0.611
Mof_C 	C 	0.803	0.6997	0.1434	-4.859
Mof_O 	O 	0.62846	0.51745	0.99606	-0.311
Mof_O 	O 	0.58935	0.5582	0.04372	-0.287
Mof_F 	F 	0.7789	0.7475	0.1208	-5.867
Mof_H 	H 	0.78	0.7229	0.1278	7.282
Mof_C 	C 	0.30657	0.88023	0.35969	0.441
Mof_C 	C 	0.38637	0.90153	0.37695	-0.185
Mof_C 	C 	0.40217	0.93173	0.41067	0.553
Mof_H 	H 	0.36477	0.94293	0.42183	0.005
Mof_C 	C 	0.48237	0.05993	0.51123	2.415
Mof_H 	H 	0.47077	0.10213	0.51853	-0.565
Mof_C 	C 	0.46967	0.03303	0.47673	-4.611
Mof_O 	O 	0.29513	0.85078	0.32939	-0.311
Mof_O 	O 	0.25602	0.89153	0.37705	-0.285
Mof_F 	F 	0.44557	0.08083	0.45413	-5.681
Mof_H 	H 	0.44667	0.05623	0.46113	7.024
Mof_C 	C 	0.97323	0.21357	0.69303	0.417
Mof_C 	C 	0.05303	0.23487	0.71029	-0.125
Mof_C 	C 	0.06883	0.26507	0.74401	0.448
Mof_H 	H 	0.03143	0.27627	0.75517	0.043
Mof_C 	C 	0.14903	0.39327	0.84457	2.237
Mof_H 	H 	0.13743	0.43547	0.85187	-0.515
Mof_C 	C 	0.13633	0.36637	0.81007	-4.346
Mof_O 	O 	0.96179	0.18412	0.66273	-0.305
Mof_O 	O 	0.92268	0.22487	0.71039	-0.281
Mof_F 	F 	0.11223	0.41417	0.78747	-5.474
Mof_H 	H 	0.11333	0.38957	0.79447	6.743
Mof_C 	C 	0.907	0.3601	0.02636	0.46
Mof_C 	C 	0.8485	0.2803	0.04362	-0.233
Mof_C 	C 	0.8629	0.2645	0.07734	0.653
Mof_H 	H 	0.9115	0.3019	0.0885	-0.028
Mof_C 	C 	0.9109	0.1843	0.1779	2.588
Mof_H 	H 	0.9647	0.1959	0.1852	-0.612
Mof_C 	C 	0.8967	0.197	0.1434	-4.862
Mof_O 	O 	0.88899	0.37154	0.99606	-0.312
Mof_O 	O 	0.96885	0.41065	0.04372	-0.287
Mof_F 	F 	0.9686	0.2211	0.1208	-5.868
Mof_H 	H 	0.9429	0.22	0.1278	7.285
Mof_C 	C 	0.57367	0.69343	0.35969	0.441
Mof_C 	C 	0.51517	0.61363	0.37695	-0.184
Mof_C 	C 	0.52957	0.59783	0.41067	0.554
Mof_H 	H 	0.57817	0.63523	0.42183	0.006
Mof_C 	C 	0.57757	0.51763	0.51123	2.415
Mof_H 	H 	0.63137	0.52923	0.51853	-0.564
Mof_C 	C 	0.56337	0.53033	0.47673	-4.611
Mof_O 	O 	0.55566	0.70487	0.32939	-0.311
Mof_O 	O 	0.63552	0.74398	0.37705	-0.285
Mof_F 	F 	0.63527	0.55443	0.45413	-5.682
Mof_H 	H 	0.60957	0.55333	0.46113	7.025
Mof_C 	C 	0.24033	0.02677	0.69303	0.417
Mof_C 	C 	0.18183	0.94697	0.71029	-0.123
Mof_C 	C 	0.19623	0.93117	0.74401	0.446
Mof_H 	H 	0.24483	0.96857	0.75517	0.044
Mof_C 	C 	0.24423	0.85097	0.84457	2.234
Mof_H 	H 	0.29803	0.86257	0.85187	-0.514
Mof_C 	C 	0.23003	0.86367	0.81007	-4.341
Mof_O 	O 	0.22232	0.03821	0.66273	-0.305
Mof_O 	O 	0.30218	0.07732	0.71039	-0.281
Mof_F 	F 	0.30193	0.88777	0.78747	-5.47
Mof_H 	H 	0.27623	0.88667	0.79447	6.738
Mof_C 	C 	0.4531	0.093	0.02636	0.46
Mof_C 	C 	0.4318	0.1515	0.04362	-0.233
Mof_C 	C 	0.4016	0.1371	0.07734	0.652
Mof_H 	H 	0.3904	0.0885	0.0885	-0.028
Mof_C 	C 	0.2734	0.0891	0.1779	2.586
Mof_H 	H 	0.2312	0.0353	0.1852	-0.611
Mof_C 	C 	0.3003	0.1033	0.1434	-4.86
Mof_O 	O 	0.48255	0.11101	0.99606	-0.312
Mof_O 	O 	0.4418	0.03115	0.04372	-0.287
Mof_F 	F 	0.2525	0.0314	0.1208	-5.868
Mof_H 	H 	0.2771	0.0571	0.1278	7.284
Mof_C 	C 	0.11977	0.42633	0.35969	0.441
Mof_C 	C 	0.09847	0.48483	0.37695	-0.185
Mof_C 	C 	0.06827	0.47043	0.41067	0.553
Mof_H 	H 	0.05707	0.42183	0.42183	0.006
Mof_C 	C 	0.94007	0.42243	0.51123	2.415
Mof_H 	H 	0.89787	0.36863	0.51853	-0.565
Mof_C 	C 	0.96697	0.43663	0.47673	-4.611
Mof_O 	O 	0.14922	0.44434	0.32939	-0.311
Mof_O 	O 	0.10847	0.36448	0.37705	-0.285
Mof_F 	F 	0.91917	0.36473	0.45413	-5.681
Mof_H 	H 	0.94377	0.39043	0.46113	7.024
Mof_C 	C 	0.78643	0.75967	0.69303	0.421
Mof_C 	C 	0.76513	0.81817	0.71029	-0.128
Mof_C 	C 	0.73493	0.80377	0.74401	0.449
Mof_H 	H 	0.72373	0.75517	0.75517	0.042
Mof_C 	C 	0.60673	0.75577	0.84457	2.236
Mof_H 	H 	0.56453	0.70197	0.85187	-0.515
Mof_C 	C 	0.63363	0.76997	0.81007	-4.345
Mof_O 	O 	0.81588	0.77768	0.66273	-0.305
Mof_O 	O 	0.77513	0.69782	0.71039	-0.281
Mof_F 	F 	0.58583	0.69807	0.78747	-5.474
Mof_H 	H 	0.61043	0.72377	0.79447	6.742
Mof_C 	C 	0.4468	0.2234	0.02691	0.31
Mof_H 	H 	0.467	0.2335	0.0043	0.065
Mof_C 	C 	0.3878	0.1939	0.09475	-0.93
Mof_C 	C 	0.3587	0.17935	0.13153	2.185
Mof_C 	C 	0.11347	0.55673	0.36024	0.26
Mof_H 	H 	0.13367	0.56683	0.33763	0.077
Mof_C 	C 	0.05447	0.52723	0.42808	-0.775
Mof_C 	C 	0.02537	0.51268	0.46486	1.863
Mof_C 	C 	0.78013	0.89007	0.69358	0.205
Mof_H 	H 	0.80033	0.90017	0.67097	0.097
Mof_C 	C 	0.72113	0.86057	0.76142	-0.613
Mof_C 	C 	0.69203	0.84602	0.7982	1.534
Mof_C 	C 	0.7766	0.2234	0.02691	0.311
Mof_H 	H 	0.7665	0.2335	0.0043	0.065
Mof_C 	C 	0.8061	0.1939	0.09475	-0.931
Mof_C 	C 	0.82065	0.17935	0.13153	2.188
Mof_C 	C 	0.44327	0.55673	0.36024	0.26
Mof_H 	H 	0.43317	0.56683	0.33763	0.077
Mof_C 	C 	0.47277	0.52723	0.42808	-0.776
Mof_C 	C 	0.48732	0.51268	0.46486	1.865
Mof_C 	C 	0.10993	0.89007	0.69358	0.203
Mof_H 	H 	0.09983	0.90017	0.67097	0.099
Mof_C 	C 	0.13943	0.86057	0.76142	-0.609
Mof_C 	C 	0.15398	0.84602	0.7982	1.529
Mof_C 	C 	0.7766	0.5532	0.02691	0.31
Mof_H 	H 	0.7665	0.533	0.0043	0.065
Mof_C 	C 	0.8061	0.6122	0.09475	-0.93
Mof_C 	C 	0.82065	0.6413	0.13153	2.185
Mof_C 	C 	0.44327	0.88653	0.36024	0.26
Mof_H 	H 	0.43317	0.86633	0.33763	0.077
Mof_C 	C 	0.47277	0.94553	0.42808	-0.775
Mof_C 	C 	0.48732	0.97463	0.46486	1.863
Mof_C 	C 	0.10993	0.21987	0.69358	0.205
Mof_H 	H 	0.09983	0.19967	0.67097	0.097
Mof_C 	C 	0.13943	0.27887	0.76142	-0.613
Mof_C 	C 	0.15398	0.30797	0.7982	1.534
Mof_C 	C 	0.2234	0.4468	0.97309	0.31
Mof_H 	H 	0.2335	0.467	0.9957	0.065
Mof_C 	C 	0.1939	0.3878	0.90525	-0.93
Mof_C 	C 	0.17935	0.3587	0.86847	2.185
Mof_C 	C 	0.89007	0.78013	0.30642	0.205
Mof_H 	H 	0.90017	0.80033	0.32903	0.097
Mof_C 	C 	0.86057	0.72113	0.23858	-0.613
Mof_C 	C 	0.84602	0.69203	0.2018	1.534
Mof_C 	C 	0.55673	0.11347	0.63976	0.26
Mof_H 	H 	0.56683	0.13367	0.66237	0.077
Mof_C 	C 	0.52723	0.05447	0.57192	-0.775
Mof_C 	C 	0.51268	0.02537	0.53514	1.863
Mof_C 	C 	0.2234	0.7766	0.97309	0.311
Mof_H 	H 	0.2335	0.7665	0.9957	0.065
Mof_C 	C 	0.1939	0.8061	0.90525	-0.931
Mof_C 	C 	0.17935	0.82065	0.86847	2.188
Mof_C 	C 	0.89007	0.10993	0.30642	0.203
Mof_H 	H 	0.90017	0.09983	0.32903	0.099
Mof_C 	C 	0.86057	0.13943	0.23858	-0.609
Mof_C 	C 	0.84602	0.15398	0.2018	1.529
Mof_C 	C 	0.55673	0.44327	0.63976	0.26
Mof_H 	H 	0.56683	0.43317	0.66237	0.077
Mof_C 	C 	0.52723	0.47277	0.57192	-0.776
Mof_C 	C 	0.51268	0.48732	0.53514	1.865
Mof_C 	C 	0.5532	0.7766	0.97309	0.31
Mof_H 	H 	0.533	0.7665	0.9957	0.065
Mof_C 	C 	0.6122	0.8061	0.90525	-0.93
Mof_C 	C 	0.6413	0.82065	0.86847	2.185
Mof_C 	C 	0.21987	0.10993	0.30642	0.205
Mof_H 	H 	0.19967	0.09983	0.32903	0.097
Mof_C 	C 	0.27887	0.13943	0.23858	-0.613
Mof_C 	C 	0.30797	0.15398	0.2018	1.534
Mof_C 	C 	0.88653	0.44327	0.63976	0.26
Mof_H 	H 	0.86633	0.43317	0.66237	0.077
Mof_C 	C 	0.94553	0.47277	0.57192	-0.775
Mof_C 	C 	0.97463	0.48732	0.53514	1.863
Mof_Cu	Cu	0.52331	0.47669	0.97161	0.956
Mof_Cu	Cu	0.18998	0.81002	0.30494	0.954
Mof_Cu	Cu	0.85664	0.14336	0.63828	0.955
Mof_Cu	Cu	0.52331	0.04662	0.97161	0.956
Mof_Cu	Cu	0.18998	0.37995	0.30494	0.954
Mof_Cu	Cu	0.85664	0.71329	0.63828	0.955
Mof_Cu	Cu	0.95338	0.47669	0.97161	0.956
Mof_Cu	Cu	0.62005	0.81002	0.30494	0.954
Mof_Cu	Cu	0.28671	0.14336	0.63828	0.955
Mof_Cu	Cu	0.47669	0.52331	0.02839	0.956
Mof_Cu	Cu	0.14336	0.85664	0.36172	0.955
Mof_Cu	Cu	0.81002	0.18998	0.69506	0.954
Mof_Cu	Cu	0.04662	0.52331	0.02839	0.956
Mof_Cu	Cu	0.71329	0.85664	0.36172	0.955
Mof_Cu	Cu	0.37995	0.18998	0.69506	0.954
Mof_Cu	Cu	0.47669	0.95338	0.02839	0.956
Mof_Cu	Cu	0.14336	0.28671	0.36172	0.955
Mof_Cu	Cu	0.81002	0.62005	0.69506	0.954
_end
