data_functionalizedCrystal
_audit_creation_method	'EQeq! by Chris Wilmer'
_symmetry_space_group_name_H-M	'P1'
_symmetry_Int_Tables_number	1
_symmetry_cell_setting	triclinic
loop_
_symmetry_equiv_pos_as_xyz
  x,y,z
_cell_length_a	10.4796
_cell_length_b	17.768
_cell_length_c	17.768
_cell_angle_alpha	120
_cell_angle_beta	90
_cell_angle_gamma	90
loop_
_atom_site_label
_atom_site_type_symbol
_atom_site_fract_x
_atom_site_fract_y
_atom_site_fract_z
_atom_site_charge
Mof_Zn	Zn	0.73715	0.47221	0.54293	1.203
Mof_Zn	Zn	0.40382	0.07072	0.52779	1.203
Mof_Zn	Zn	0.07048	0.45707	0.92928	1.201
Mof_Zn	Zn	0.23715	0.52779	0.45707	1.203
Mof_Zn	Zn	0.90382	0.92928	0.47221	1.205
Mof_Zn	Zn	0.57048	0.54293	0.07072	1.204
Mof_H 	H 	0.8292	0.5549	0.4753	0.073
Mof_H 	H 	0.6233	0.6248	0.4709	0.18
Mof_H 	H 	0.5982	0.5208	0.325	-0.243
Mof_H 	H 	0.7572	0.4085	0.2605	0.488
Mof_H 	H 	0.6476	0.3933	0.3116	0.49
Mof_H 	H 	0.7821	0.425	0.3546	0.462
Mof_H 	H 	0.8579	0.5682	0.3515	0.456
Mof_H 	H 	0.7505	0.6357	0.3664	0.453
Mof_H 	H 	0.773	0.5556	0.2734	0.467
Mof_H 	H 	0.7018	0.8973	0.5732	-0.038
Mof_H 	H 	0.0217	0.7768	0.4724	-0.026
Mof_H 	H 	0.6458	0.7938	0.6121	0.088
Mof_H 	H 	0.9811	0.6778	0.5163	0.123
Mof_H 	H 	0.6949	0.6694	0.6202	0.078
Mof_H 	H 	0.8401	0.6497	0.6224	0.08
Mof_H 	H 	0.49587	0.9204	0.4451	0.071
Mof_H 	H 	0.28997	0.8461	0.3752	0.18
Mof_H 	H 	0.26487	0.8042	0.4792	-0.241
Mof_H 	H 	0.42387	0.852	0.5915	0.483
Mof_H 	H 	0.31427	0.9183	0.6067	0.486
Mof_H 	H 	0.44877	0.9296	0.575	0.457
Mof_H 	H 	0.52457	0.7833	0.4318	0.451
Mof_H 	H 	0.41717	0.7307	0.3643	0.45
Mof_H 	H 	0.43967	0.7178	0.4444	0.463
Mof_H 	H 	0.36847	0.6759	0.1027	-0.036
Mof_H 	H 	0.68837	0.6956	0.2232	-0.011
Mof_H 	H 	0.31247	0.8183	0.2062	0.085
Mof_H 	H 	0.64777	0.8385	0.3222	0.113
Mof_H 	H 	0.36157	0.9508	0.3306	0.076
Mof_H 	H 	0.50677	0.9727	0.3503	0.076
Mof_H 	H 	0.16253	0.5247	0.0796	0.072
Mof_H 	H 	0.95663	0.5291	0.1539	0.176
Mof_H 	H 	0.93153	0.675	0.1958	-0.227
Mof_H 	H 	0.09053	0.7395	0.148	0.481
Mof_H 	H 	0.98093	0.6884	0.0817	0.49
Mof_H 	H 	0.11543	0.6454	0.0704	0.455
Mof_H 	H 	0.19123	0.6485	0.2167	0.441
Mof_H 	H 	0.08383	0.6336	0.2693	0.437
Mof_H 	H 	0.10633	0.7266	0.2822	0.451
Mof_H 	H 	0.03513	0.4268	0.3241	-0.044
Mof_H 	H 	0.35503	0.5276	0.3044	-0.012
Mof_H 	H 	0.97913	0.3879	0.1817	0.101
Mof_H 	H 	0.31443	0.4837	0.1615	0.116
Mof_H 	H 	0.02823	0.3798	0.0492	0.074
Mof_H 	H 	0.17343	0.3776	0.0273	0.077
Mof_H 	H 	0.3292	0.4451	0.5247	0.072
Mof_H 	H 	0.1233	0.3752	0.5291	0.177
Mof_H 	H 	0.0982	0.4792	0.675	-0.242
Mof_H 	H 	0.2572	0.5915	0.7395	0.481
Mof_H 	H 	0.1476	0.6067	0.6884	0.482
Mof_H 	H 	0.2821	0.575	0.6454	0.454
Mof_H 	H 	0.3579	0.4318	0.6485	0.449
Mof_H 	H 	0.2505	0.3643	0.6336	0.448
Mof_H 	H 	0.273	0.4444	0.7266	0.461
Mof_H 	H 	0.2018	0.1027	0.4268	-0.038
Mof_H 	H 	0.5217	0.2232	0.5276	-0.011
Mof_H 	H 	0.1458	0.2062	0.3879	0.083
Mof_H 	H 	0.4811	0.3222	0.4837	0.113
Mof_H 	H 	0.1949	0.3306	0.3798	0.075
Mof_H 	H 	0.3401	0.3503	0.3776	0.076
Mof_H 	H 	0.99587	0.0796	0.5549	0.078
Mof_H 	H 	0.78997	0.1539	0.6248	0.175
Mof_H 	H 	0.76487	0.1958	0.5208	-0.231
Mof_H 	H 	0.92387	0.148	0.4085	0.477
Mof_H 	H 	0.81427	0.0817	0.3933	0.478
Mof_H 	H 	0.94877	0.0704	0.425	0.451
Mof_H 	H 	0.02457	0.2167	0.5682	0.42
Mof_H 	H 	0.91717	0.2693	0.6357	0.43
Mof_H 	H 	0.93967	0.2822	0.5556	0.444
Mof_H 	H 	0.86847	0.3241	0.8973	-0.042
Mof_H 	H 	0.18837	0.3044	0.7768	-0.015
Mof_H 	H 	0.81247	0.1817	0.7938	0.091
Mof_H 	H 	0.14777	0.1615	0.6778	0.121
Mof_H 	H 	0.86157	0.0492	0.6694	0.073
Mof_H 	H 	0.00677	0.0273	0.6497	0.061
Mof_H 	H 	0.66253	0.4753	0.9204	0.072
Mof_H 	H 	0.45663	0.4709	0.8461	0.18
Mof_H 	H 	0.43153	0.325	0.8042	-0.241
Mof_H 	H 	0.59053	0.2605	0.852	0.484
Mof_H 	H 	0.48093	0.3116	0.9183	0.486
Mof_H 	H 	0.61543	0.3546	0.9296	0.458
Mof_H 	H 	0.69123	0.3515	0.7833	0.452
Mof_H 	H 	0.58383	0.3664	0.7307	0.45
Mof_H 	H 	0.60633	0.2734	0.7178	0.463
Mof_H 	H 	0.53513	0.5732	0.6759	-0.036
Mof_H 	H 	0.85503	0.4724	0.6956	-0.008
Mof_H 	H 	0.47913	0.6121	0.8183	0.085
Mof_H 	H 	0.81443	0.5163	0.8385	0.116
Mof_H 	H 	0.52823	0.6202	0.9508	0.076
Mof_H 	H 	0.67343	0.6224	0.9727	0.077
Mof_C 	C 	0.531	0.521	0.4678	0.465
Mof_C 	C 	0.6471	0.5644	0.4511	-0.52
Mof_C 	C 	0.678	0.522	0.3544	0.959
Mof_C 	C 	0.72	0.4287	0.3168	-1.509
Mof_C 	C 	0.7739	0.5754	0.3346	-1.455
Mof_C 	C 	0.7568	0.8512	0.5599	0.101
Mof_C 	C 	0.9462	0.7808	0.5017	0.128
Mof_C 	C 	0.7233	0.7897	0.5847	-0.237
Mof_C 	C 	0.8068	0.7238	0.5677	0.185
Mof_C 	C 	0.9214	0.7207	0.5267	-0.243
Mof_C 	C 	0.7734	0.6538	0.5868	-0.223
Mof_C 	C 	0.19767	0.9468	0.479	0.466
Mof_C 	C 	0.31377	0.8867	0.4356	-0.518
Mof_C 	C 	0.34467	0.8324	0.478	0.951
Mof_C 	C 	0.38667	0.8881	0.5713	-1.498
Mof_C 	C 	0.44057	0.7592	0.4246	-1.444
Mof_C 	C 	0.42347	0.7087	0.1488	0.096
Mof_C 	C 	0.61287	0.7209	0.2192	0.102
Mof_C 	C 	0.38997	0.795	0.2103	-0.23
Mof_C 	C 	0.47347	0.8439	0.2762	0.175
Mof_C 	C 	0.58807	0.806	0.2793	-0.227
Mof_C 	C 	0.44007	0.933	0.3462	-0.216
Mof_C 	C 	0.86433	0.5322	0.0532	0.456
Mof_C 	C 	0.98043	0.5489	0.1133	-0.494
Mof_C 	C 	0.01133	0.6456	0.1676	0.917
Mof_C 	C 	0.05333	0.6832	0.1119	-1.495
Mof_C 	C 	0.10723	0.6654	0.2408	-1.411
Mof_C 	C 	0.09013	0.4401	0.2913	0.108
Mof_C 	C 	0.27953	0.4983	0.2791	0.106
Mof_C 	C 	0.05663	0.4153	0.205	-0.258
Mof_C 	C 	0.14013	0.4323	0.1561	0.186
Mof_C 	C 	0.25473	0.4733	0.194	-0.235
Mof_C 	C 	0.10673	0.4132	0.067	-0.222
Mof_C 	C 	0.031	0.479	0.5322	0.449
Mof_C 	C 	0.1471	0.4356	0.5489	-0.512
Mof_C 	C 	0.178	0.478	0.6456	0.945
Mof_C 	C 	0.22	0.5713	0.6832	-1.491
Mof_C 	C 	0.2739	0.4246	0.6654	-1.439
Mof_C 	C 	0.2568	0.1488	0.4401	0.096
Mof_C 	C 	0.4462	0.2192	0.4983	0.102
Mof_C 	C 	0.2233	0.2103	0.4153	-0.23
Mof_C 	C 	0.3068	0.2762	0.4323	0.174
Mof_C 	C 	0.4214	0.2793	0.4733	-0.227
Mof_C 	C 	0.2734	0.3462	0.4132	-0.215
Mof_C 	C 	0.69767	0.0532	0.521	0.461
Mof_C 	C 	0.81377	0.1133	0.5644	-0.503
Mof_C 	C 	0.84467	0.1676	0.522	0.917
Mof_C 	C 	0.88667	0.1119	0.4287	-1.468
Mof_C 	C 	0.94057	0.2408	0.5754	-1.369
Mof_C 	C 	0.92347	0.2913	0.8512	0.121
Mof_C 	C 	0.11287	0.2791	0.7808	0.113
Mof_C 	C 	0.88997	0.205	0.7897	-0.245
Mof_C 	C 	0.97347	0.1561	0.7238	0.195
Mof_C 	C 	0.08807	0.194	0.7207	-0.254
Mof_C 	C 	0.94007	0.067	0.6538	-0.199
Mof_C 	C 	0.36433	0.4678	0.9468	0.463
Mof_C 	C 	0.48043	0.4511	0.8867	-0.517
Mof_C 	C 	0.51133	0.3544	0.8324	0.952
Mof_C 	C 	0.55333	0.3168	0.8881	-1.5
Mof_C 	C 	0.60723	0.3346	0.7592	-1.446
Mof_C 	C 	0.59013	0.5599	0.7087	0.097
Mof_C 	C 	0.77953	0.5017	0.7209	0.103
Mof_C 	C 	0.55663	0.5847	0.795	-0.231
Mof_C 	C 	0.64013	0.5677	0.8439	0.176
Mof_C 	C 	0.75473	0.5267	0.806	-0.227
Mof_C 	C 	0.60673	0.5868	0.933	-0.217
Mof_Br	Br	0.74839	0.32032	0.45183	-0.534
Mof_Br	Br	0.41506	0.13151	0.67968	-0.538
Mof_Br	Br	0.08172	0.54817	0.86849	-0.546
Mof_Br	Br	0.24839	0.67968	0.54817	-0.54
Mof_Br	Br	0.91506	0.86849	0.32032	-0.531
Mof_Br	Br	0.58172	0.45183	0.13151	-0.537
Mof_N 	N 	0.7565	0.5669	0.5074	-0.185
Mof_N 	N 	0.8639	0.8452	0.5185	-0.278
Mof_N 	N 	0.42317	0.9405	0.4331	-0.186
Mof_N 	N 	0.53057	0.6733	0.1548	-0.274
Mof_N 	N 	0.08983	0.4926	0.0595	-0.191
Mof_N 	N 	0.19723	0.4815	0.3267	-0.277
Mof_N 	N 	0.2565	0.4331	0.4926	-0.187
Mof_N 	N 	0.3639	0.1548	0.4815	-0.274
Mof_N 	N 	0.92317	0.0595	0.5669	-0.189
Mof_N 	N 	0.03057	0.3267	0.8452	-0.287
Mof_N 	N 	0.58983	0.5074	0.9405	-0.186
Mof_N 	N 	0.69723	0.5185	0.6733	-0.274
Mof_O 	O 	0.5411	0.4883	0.5156	-0.487
Mof_O 	O 	0.4323	0.5207	0.428	-0.478
Mof_O 	O 	0.20777	0.0273	0.5117	-0.49
Mof_O 	O 	0.09897	0.9073	0.4793	-0.482
Mof_O 	O 	0.87443	0.4844	0.9727	-0.479
Mof_O 	O 	0.76563	0.572	0.0927	-0.476
Mof_O 	O 	0.0411	0.5117	0.4844	-0.487
Mof_O 	O 	0.9323	0.4793	0.572	-0.466
Mof_O 	O 	0.70777	0.9727	0.4883	-0.486
Mof_O 	O 	0.59897	0.0927	0.5207	-0.477
Mof_O 	O 	0.37443	0.5156	0.0273	-0.486
Mof_O 	O 	0.26563	0.428	0.9073	-0.478
_end
