data_functionalizedCrystal
_audit_creation_method	'EQeq! by Chris Wilmer'
_symmetry_space_group_name_H-M	'P1'
_symmetry_Int_Tables_number	1
_symmetry_cell_setting	triclinic
loop_
_symmetry_equiv_pos_as_xyz
  x,y,z
_cell_length_a	14.506
_cell_length_b	15.912
_cell_length_c	16.689
_cell_angle_alpha	90
_cell_angle_beta	90
_cell_angle_gamma	90
loop_
_atom_site_label
_atom_site_type_symbol
_atom_site_fract_x
_atom_site_fract_y
_atom_site_fract_z
_atom_site_charge
Mof_La	La	0.10706	0.75	0.75	2.43
Mof_La	La	0.39294	0.25	0.25	2.435
Mof_La	La	0.89294	0.25	0.25	2.43
Mof_La	La	0.60706	0.75	0.75	2.435
Mof_Cu	Cu	0.28768	0.56278	0.88606	0.917
Mof_Cu	Cu	0.28768	0.93722	0.61394	0.916
Mof_Cu	Cu	0.21232	0.43722	0.38606	0.917
Mof_Cu	Cu	0.21232	0.06278	0.11394	0.917
Mof_Cu	Cu	0.71232	0.43722	0.11394	0.917
Mof_Cu	Cu	0.71232	0.06278	0.38606	0.916
Mof_Cu	Cu	0.78768	0.56278	0.61394	0.917
Mof_Cu	Cu	0.78768	0.93722	0.88606	0.917
Mof_H 	H 	0.0922	0.7321	0.5726	0.302
Mof_H 	H 	0.0035	0.7701	0.595	0.345
Mof_H 	H 	0.2944	0.7592	0.6667	0.392
Mof_H 	H 	0.2423	0.6936	0.6246	0.385
Mof_H 	H 	0.2242	0.4627	0.6928	0.142
Mof_H 	H 	0.182	0.441	0.777	0.138
Mof_H 	H 	0.4235	0.5037	0.7148	0.153
Mof_H 	H 	0.3394	0.5543	0.681	0.164
Mof_H 	H 	0.3038	0.3783	0.8333	0.068
Mof_H 	H 	0.3767	0.3856	0.7641	0.067
Mof_H 	H 	0.4753	0.461	0.8464	0.06
Mof_H 	H 	0.4499	0.3764	0.8896	0.057
Mof_H 	H 	0.3613	0.3656	0.9908	0.119
Mof_H 	H 	0.3537	0.44	0.0518	0.138
Mof_H 	H 	0.4908	0.5651	0.9431	0.07
Mof_H 	H 	0.4351	0.5614	0.0235	0.056
Mof_H 	H 	0.0922	0.7679	0.9274	0.301
Mof_H 	H 	0.0035	0.7299	0.905	0.344
Mof_H 	H 	0.2944	0.7408	0.8333	0.392
Mof_H 	H 	0.2423	0.8064	0.8754	0.385
Mof_H 	H 	0.2242	0.0373	0.8072	0.141
Mof_H 	H 	0.182	0.059	0.723	0.137
Mof_H 	H 	0.4235	0.9963	0.7852	0.153
Mof_H 	H 	0.3394	0.9457	0.819	0.164
Mof_H 	H 	0.3038	0.1217	0.6667	0.068
Mof_H 	H 	0.3767	0.1144	0.7359	0.067
Mof_H 	H 	0.4753	0.039	0.6536	0.06
Mof_H 	H 	0.4499	0.1236	0.6104	0.057
Mof_H 	H 	0.3613	0.1344	0.5092	0.119
Mof_H 	H 	0.3537	0.06	0.4482	0.137
Mof_H 	H 	0.4908	0.9349	0.5569	0.07
Mof_H 	H 	0.4351	0.9386	0.4765	0.056
Mof_H 	H 	0.4078	0.2679	0.0726	0.302
Mof_H 	H 	0.4965	0.2299	0.095	0.345
Mof_H 	H 	0.2056	0.2408	0.1667	0.392
Mof_H 	H 	0.2577	0.3064	0.1246	0.385
Mof_H 	H 	0.2758	0.5373	0.1928	0.142
Mof_H 	H 	0.318	0.559	0.277	0.138
Mof_H 	H 	0.0765	0.4963	0.2148	0.154
Mof_H 	H 	0.1606	0.4457	0.181	0.164
Mof_H 	H 	0.1962	0.6217	0.3333	0.068
Mof_H 	H 	0.1233	0.6144	0.2641	0.067
Mof_H 	H 	0.0247	0.539	0.3464	0.06
Mof_H 	H 	0.0501	0.6236	0.3896	0.057
Mof_H 	H 	0.1387	0.6344	0.4908	0.119
Mof_H 	H 	0.1463	0.56	0.5518	0.137
Mof_H 	H 	0.0092	0.4349	0.4431	0.07
Mof_H 	H 	0.0649	0.4386	0.5235	0.056
Mof_H 	H 	0.4078	0.2321	0.4274	0.302
Mof_H 	H 	0.4965	0.2701	0.405	0.346
Mof_H 	H 	0.2056	0.2592	0.3333	0.392
Mof_H 	H 	0.2577	0.1936	0.3754	0.385
Mof_H 	H 	0.2758	0.9627	0.3072	0.141
Mof_H 	H 	0.318	0.941	0.223	0.138
Mof_H 	H 	0.0765	0.0037	0.2852	0.154
Mof_H 	H 	0.1606	0.0543	0.319	0.164
Mof_H 	H 	0.1962	0.8783	0.1667	0.068
Mof_H 	H 	0.1233	0.8856	0.2359	0.067
Mof_H 	H 	0.0247	0.961	0.1536	0.06
Mof_H 	H 	0.0501	0.8764	0.1104	0.057
Mof_H 	H 	0.1387	0.8656	0.0092	0.118
Mof_H 	H 	0.1463	0.94	0.9482	0.131
Mof_H 	H 	0.0092	0.0651	0.0569	0.071
Mof_H 	H 	0.0649	0.0614	0.9765	0.055
Mof_H 	H 	0.9078	0.2679	0.4274	0.302
Mof_H 	H 	0.9965	0.2299	0.405	0.345
Mof_H 	H 	0.7056	0.2408	0.3333	0.392
Mof_H 	H 	0.7577	0.3064	0.3754	0.385
Mof_H 	H 	0.7758	0.5373	0.3072	0.142
Mof_H 	H 	0.818	0.559	0.223	0.138
Mof_H 	H 	0.5765	0.4963	0.2852	0.153
Mof_H 	H 	0.6606	0.4457	0.319	0.164
Mof_H 	H 	0.6962	0.6217	0.1667	0.068
Mof_H 	H 	0.6233	0.6144	0.2359	0.067
Mof_H 	H 	0.5247	0.539	0.1536	0.06
Mof_H 	H 	0.5501	0.6236	0.1104	0.057
Mof_H 	H 	0.6387	0.6344	0.0092	0.119
Mof_H 	H 	0.6463	0.56	0.9482	0.138
Mof_H 	H 	0.5092	0.4349	0.0569	0.07
Mof_H 	H 	0.5649	0.4386	0.9765	0.056
Mof_H 	H 	0.9078	0.2321	0.0726	0.301
Mof_H 	H 	0.9965	0.2701	0.095	0.344
Mof_H 	H 	0.7056	0.2592	0.1667	0.392
Mof_H 	H 	0.7577	0.1936	0.1246	0.385
Mof_H 	H 	0.7758	0.9627	0.1928	0.141
Mof_H 	H 	0.818	0.941	0.277	0.137
Mof_H 	H 	0.5765	0.0037	0.2148	0.153
Mof_H 	H 	0.6606	0.0543	0.181	0.164
Mof_H 	H 	0.6962	0.8783	0.3333	0.068
Mof_H 	H 	0.6233	0.8856	0.2641	0.067
Mof_H 	H 	0.5247	0.961	0.3464	0.06
Mof_H 	H 	0.5501	0.8764	0.3896	0.057
Mof_H 	H 	0.6387	0.8656	0.4908	0.119
Mof_H 	H 	0.6463	0.94	0.5518	0.137
Mof_H 	H 	0.5092	0.0651	0.4431	0.07
Mof_H 	H 	0.5649	0.0614	0.5235	0.056
Mof_H 	H 	0.5922	0.7321	0.9274	0.302
Mof_H 	H 	0.5035	0.7701	0.905	0.345
Mof_H 	H 	0.7944	0.7592	0.8333	0.392
Mof_H 	H 	0.7423	0.6936	0.8754	0.385
Mof_H 	H 	0.7242	0.4627	0.8072	0.142
Mof_H 	H 	0.682	0.441	0.723	0.138
Mof_H 	H 	0.9235	0.5037	0.7852	0.154
Mof_H 	H 	0.8394	0.5543	0.819	0.164
Mof_H 	H 	0.8038	0.3783	0.6667	0.068
Mof_H 	H 	0.8767	0.3856	0.7359	0.067
Mof_H 	H 	0.9753	0.461	0.6536	0.06
Mof_H 	H 	0.9499	0.3764	0.6104	0.057
Mof_H 	H 	0.8613	0.3656	0.5092	0.119
Mof_H 	H 	0.8537	0.44	0.4482	0.137
Mof_H 	H 	0.9908	0.5651	0.5569	0.07
Mof_H 	H 	0.9351	0.5614	0.4765	0.056
Mof_H 	H 	0.5922	0.7679	0.5726	0.302
Mof_H 	H 	0.5035	0.7299	0.595	0.346
Mof_H 	H 	0.7944	0.7408	0.6667	0.392
Mof_H 	H 	0.7423	0.8064	0.6246	0.385
Mof_H 	H 	0.7242	0.0373	0.6928	0.141
Mof_H 	H 	0.682	0.059	0.777	0.138
Mof_H 	H 	0.9235	0.9963	0.7148	0.154
Mof_H 	H 	0.8394	0.9457	0.681	0.164
Mof_H 	H 	0.8038	0.1217	0.8333	0.068
Mof_H 	H 	0.8767	0.1144	0.7641	0.067
Mof_H 	H 	0.9753	0.039	0.8464	0.06
Mof_H 	H 	0.9499	0.1236	0.8896	0.057
Mof_H 	H 	0.8613	0.1344	0.9908	0.118
Mof_H 	H 	0.8537	0.06	0.0518	0.131
Mof_H 	H 	0.9908	0.9349	0.9431	0.071
Mof_H 	H 	0.9351	0.9386	0.0235	0.055
Mof_C 	C 	0.1664	0.5645	0.7473	0.398
Mof_C 	C 	0.217	0.4826	0.7473	-0.346
Mof_C 	C 	0.3729	0.5403	0.7296	-0.381
Mof_C 	C 	0.412	0.6206	0.7654	0.488
Mof_C 	C 	0.3509	0.4142	0.8103	-0.11
Mof_C 	C 	0.4254	0.4297	0.8711	-0.09
Mof_C 	C 	0.339	0.4226	0.9976	-0.325
Mof_C 	C 	0.2359	0.4229	0.9875	0.376
Mof_C 	C 	0.4627	0.5274	0.9817	-0.089
Mof_C 	C 	0.2271	0.6571	0.026	0.103
Mof_C 	C 	0.1664	0.9355	0.7527	0.395
Mof_C 	C 	0.217	0.0174	0.7527	-0.342
Mof_C 	C 	0.3729	0.9597	0.7704	-0.382
Mof_C 	C 	0.412	0.8794	0.7346	0.488
Mof_C 	C 	0.3509	0.0858	0.6897	-0.11
Mof_C 	C 	0.4254	0.0703	0.6289	-0.09
Mof_C 	C 	0.339	0.0774	0.5024	-0.324
Mof_C 	C 	0.2359	0.0771	0.5125	0.377
Mof_C 	C 	0.4627	0.9726	0.5183	-0.089
Mof_C 	C 	0.2271	0.8429	0.474	0.099
Mof_C 	C 	0.3336	0.4355	0.2473	0.398
Mof_C 	C 	0.283	0.5174	0.2473	-0.346
Mof_C 	C 	0.1271	0.4597	0.2296	-0.381
Mof_C 	C 	0.088	0.3794	0.2654	0.487
Mof_C 	C 	0.1491	0.5858	0.3103	-0.11
Mof_C 	C 	0.0746	0.5703	0.3711	-0.09
Mof_C 	C 	0.161	0.5774	0.4976	-0.324
Mof_C 	C 	0.2641	0.5771	0.4875	0.378
Mof_C 	C 	0.0373	0.4726	0.4817	-0.089
Mof_C 	C 	0.2729	0.3429	0.526	0.099
Mof_C 	C 	0.3336	0.0645	0.2527	0.397
Mof_C 	C 	0.283	0.9826	0.2527	-0.345
Mof_C 	C 	0.1271	0.0403	0.2704	-0.381
Mof_C 	C 	0.088	0.1206	0.2346	0.487
Mof_C 	C 	0.1491	0.9142	0.1897	-0.11
Mof_C 	C 	0.0746	0.9297	0.1289	-0.09
Mof_C 	C 	0.161	0.9226	0.0024	-0.315
Mof_C 	C 	0.2641	0.9229	0.0125	0.379
Mof_C 	C 	0.0373	0.0274	0.0183	-0.088
Mof_C 	C 	0.2729	0.1571	0.974	0.1
Mof_C 	C 	0.8336	0.4355	0.2527	0.398
Mof_C 	C 	0.783	0.5174	0.2527	-0.346
Mof_C 	C 	0.6271	0.4597	0.2704	-0.381
Mof_C 	C 	0.588	0.3794	0.2346	0.488
Mof_C 	C 	0.6491	0.5858	0.1897	-0.11
Mof_C 	C 	0.5746	0.5703	0.1289	-0.09
Mof_C 	C 	0.661	0.5774	0.0024	-0.325
Mof_C 	C 	0.7641	0.5771	0.0125	0.376
Mof_C 	C 	0.5373	0.4726	0.0183	-0.089
Mof_C 	C 	0.7729	0.3429	0.974	0.103
Mof_C 	C 	0.8336	0.0645	0.2473	0.395
Mof_C 	C 	0.783	0.9826	0.2473	-0.342
Mof_C 	C 	0.6271	0.0403	0.2296	-0.382
Mof_C 	C 	0.588	0.1206	0.2654	0.488
Mof_C 	C 	0.6491	0.9142	0.3103	-0.11
Mof_C 	C 	0.5746	0.9297	0.3711	-0.09
Mof_C 	C 	0.661	0.9226	0.4976	-0.324
Mof_C 	C 	0.7641	0.9229	0.4875	0.377
Mof_C 	C 	0.5373	0.0274	0.4817	-0.089
Mof_C 	C 	0.7729	0.1571	0.526	0.099
Mof_C 	C 	0.6664	0.5645	0.7527	0.398
Mof_C 	C 	0.717	0.4826	0.7527	-0.346
Mof_C 	C 	0.8729	0.5403	0.7704	-0.381
Mof_C 	C 	0.912	0.6206	0.7346	0.487
Mof_C 	C 	0.8509	0.4142	0.6897	-0.11
Mof_C 	C 	0.9254	0.4297	0.6289	-0.09
Mof_C 	C 	0.839	0.4226	0.5024	-0.324
Mof_C 	C 	0.7359	0.4229	0.5125	0.378
Mof_C 	C 	0.9627	0.5274	0.5183	-0.089
Mof_C 	C 	0.7271	0.6571	0.474	0.099
Mof_C 	C 	0.6664	0.9355	0.7473	0.397
Mof_C 	C 	0.717	0.0174	0.7473	-0.345
Mof_C 	C 	0.8729	0.9597	0.7296	-0.381
Mof_C 	C 	0.912	0.8794	0.7654	0.487
Mof_C 	C 	0.8509	0.0858	0.8103	-0.11
Mof_C 	C 	0.9254	0.0703	0.8711	-0.09
Mof_C 	C 	0.839	0.0774	0.9976	-0.315
Mof_C 	C 	0.7359	0.0771	0.9875	0.379
Mof_C 	C 	0.9627	0.9726	0.9817	-0.088
Mof_C 	C 	0.7271	0.8429	0.026	0.1
Mof_S 	S 	0.1836	0.7021	0.1141	-0.084
Mof_S 	S 	0.1836	0.7979	0.3859	-0.085
Mof_S 	S 	0.3164	0.2979	0.6141	-0.085
Mof_S 	S 	0.3164	0.2021	0.8859	-0.084
Mof_S 	S 	0.8164	0.2979	0.8859	-0.084
Mof_S 	S 	0.8164	0.2021	0.6141	-0.085
Mof_S 	S 	0.6836	0.7021	0.3859	-0.085
Mof_S 	S 	0.6836	0.7979	0.1141	-0.084
Mof_N 	N 	0.3096	0.4937	0.785	-0.089
Mof_N 	N 	0.3885	0.478	0.9408	-0.115
Mof_N 	N 	0.2634	0.631	0.9741	-0.264
Mof_N 	N 	0.3096	0.0063	0.715	-0.088
Mof_N 	N 	0.3885	0.022	0.5592	-0.115
Mof_N 	N 	0.2634	0.869	0.5259	-0.262
Mof_N 	N 	0.1904	0.5063	0.285	-0.089
Mof_N 	N 	0.1115	0.522	0.4408	-0.115
Mof_N 	N 	0.2366	0.369	0.4741	-0.262
Mof_N 	N 	0.1904	0.9937	0.215	-0.089
Mof_N 	N 	0.1115	0.978	0.0592	-0.116
Mof_N 	N 	0.2366	0.131	0.0259	-0.262
Mof_N 	N 	0.6904	0.5063	0.215	-0.089
Mof_N 	N 	0.6115	0.522	0.0592	-0.115
Mof_N 	N 	0.7366	0.369	0.0259	-0.264
Mof_N 	N 	0.6904	0.9937	0.285	-0.088
Mof_N 	N 	0.6115	0.978	0.4408	-0.115
Mof_N 	N 	0.7366	0.131	0.4741	-0.262
Mof_N 	N 	0.8096	0.4937	0.715	-0.089
Mof_N 	N 	0.8885	0.478	0.5592	-0.115
Mof_N 	N 	0.7634	0.631	0.5259	-0.262
Mof_N 	N 	0.8096	0.0063	0.785	-0.089
Mof_N 	N 	0.8885	0.022	0.9408	-0.116
Mof_N 	N 	0.7634	0.869	0.9741	-0.262
Mof_O 	O 	0.1794	0.6124	0.8089	-0.521
Mof_O 	O 	0.1162	0.5849	0.6908	-0.405
Mof_O 	O 	0.3876	0.6423	0.8351	-0.435
Mof_O 	O 	0.4686	0.6582	0.723	-0.499
Mof_O 	O 	0.1996	0.4657	0.9343	-0.37
Mof_O 	O 	0.1932	0.3787	0.0383	-0.306
Mof_O 	O 	0.0462	0.7341	0.6059	-0.814
Mof_O 	O 	0.2548	0.7194	0.6678	-0.91
Mof_O 	O 	0.1794	0.8876	0.6911	-0.521
Mof_O 	O 	0.1162	0.9151	0.8092	-0.406
Mof_O 	O 	0.3876	0.8577	0.6649	-0.435
Mof_O 	O 	0.4686	0.8418	0.777	-0.5
Mof_O 	O 	0.1996	0.0343	0.5657	-0.369
Mof_O 	O 	0.1932	0.1213	0.4617	-0.307
Mof_O 	O 	0.0462	0.7659	0.8941	-0.814
Mof_O 	O 	0.2548	0.7806	0.8322	-0.909
Mof_O 	O 	0.3206	0.3876	0.3089	-0.521
Mof_O 	O 	0.3838	0.4151	0.1908	-0.405
Mof_O 	O 	0.1124	0.3577	0.3351	-0.434
Mof_O 	O 	0.0314	0.3418	0.223	-0.497
Mof_O 	O 	0.3004	0.5343	0.4343	-0.37
Mof_O 	O 	0.3068	0.6213	0.5383	-0.308
Mof_O 	O 	0.4538	0.2659	0.1059	-0.814
Mof_O 	O 	0.2452	0.2806	0.1678	-0.91
Mof_O 	O 	0.3206	0.1124	0.1911	-0.521
Mof_O 	O 	0.3838	0.0849	0.3092	-0.405
Mof_O 	O 	0.1124	0.1423	0.1649	-0.434
Mof_O 	O 	0.0314	0.1582	0.277	-0.497
Mof_O 	O 	0.3004	0.9657	0.0657	-0.37
Mof_O 	O 	0.3068	0.8787	0.9617	-0.311
Mof_O 	O 	0.4538	0.2341	0.3941	-0.814
Mof_O 	O 	0.2452	0.2194	0.3322	-0.91
Mof_O 	O 	0.8206	0.3876	0.1911	-0.521
Mof_O 	O 	0.8838	0.4151	0.3092	-0.405
Mof_O 	O 	0.6124	0.3577	0.1649	-0.435
Mof_O 	O 	0.5314	0.3418	0.277	-0.499
Mof_O 	O 	0.8004	0.5343	0.0657	-0.37
Mof_O 	O 	0.8068	0.6213	0.9617	-0.306
Mof_O 	O 	0.9538	0.2659	0.3941	-0.814
Mof_O 	O 	0.7452	0.2806	0.3322	-0.91
Mof_O 	O 	0.8206	0.1124	0.3089	-0.521
Mof_O 	O 	0.8838	0.0849	0.1908	-0.406
Mof_O 	O 	0.6124	0.1423	0.3351	-0.435
Mof_O 	O 	0.5314	0.1582	0.223	-0.5
Mof_O 	O 	0.8004	0.9657	0.4343	-0.369
Mof_O 	O 	0.8068	0.8787	0.5383	-0.307
Mof_O 	O 	0.9538	0.2341	0.1059	-0.814
Mof_O 	O 	0.7452	0.2194	0.1678	-0.909
Mof_O 	O 	0.6794	0.6124	0.6911	-0.521
Mof_O 	O 	0.6162	0.5849	0.8092	-0.405
Mof_O 	O 	0.8876	0.6423	0.6649	-0.434
Mof_O 	O 	0.9686	0.6582	0.777	-0.497
Mof_O 	O 	0.6996	0.4657	0.5657	-0.37
Mof_O 	O 	0.6932	0.3787	0.4617	-0.308
Mof_O 	O 	0.5462	0.7341	0.8941	-0.814
Mof_O 	O 	0.7548	0.7194	0.8322	-0.91
Mof_O 	O 	0.6794	0.8876	0.8089	-0.521
Mof_O 	O 	0.6162	0.9151	0.6908	-0.405
Mof_O 	O 	0.8876	0.8577	0.8351	-0.434
Mof_O 	O 	0.9686	0.8418	0.723	-0.497
Mof_O 	O 	0.6996	0.0343	0.9343	-0.37
Mof_O 	O 	0.6932	0.1213	0.0383	-0.311
Mof_O 	O 	0.5462	0.7659	0.6059	-0.814
Mof_O 	O 	0.7548	0.7806	0.6678	-0.91
_end
