data_functionalizedCrystal
_audit_creation_method	'EQeq! by Chris Wilmer'
_symmetry_space_group_name_H-M	'P1'
_symmetry_Int_Tables_number	1
_symmetry_cell_setting	triclinic
loop_
_symmetry_equiv_pos_as_xyz
  x,y,z
_cell_length_a	10.6545
_cell_length_b	14.0442
_cell_length_c	9.7302
_cell_angle_alpha	89.9956
_cell_angle_beta	89.9999
_cell_angle_gamma	88.8364
loop_
_atom_site_label
_atom_site_type_symbol
_atom_site_fract_x
_atom_site_fract_y
_atom_site_fract_z
_atom_site_charge
Mof_O 	O 	0.68123	0.13322	0.88575	-0.401
Mof_O 	O 	0.31702	0.14592	0.88574	-0.323
Mof_O 	O 	0.49366	0.00155	0.88575	-0.37
Mof_O 	O 	0.50459	0.27759	0.88573	-0.342
Mof_O 	O 	0.49365	0.00154	0.11433	-0.346
Mof_O 	O 	0.31702	0.14591	0.11432	-0.44
Mof_O 	O 	0.68122	0.13322	0.11433	-0.379
Mof_Zn	Zn	0.49912	0.13956	0.15061	1.238
Mof_Zn	Zn	0.49912	0.13957	0.84945	1.245
Mof_O 	O 	0.50458	0.27759	0.11431	-0.459
Mof_C 	C 	0.27013	0.14498	2e-05	0.371
Mof_C 	C 	0.1304	0.14219	2e-05	-0.032
Mof_C 	C 	0.11978	0.31483	0.99999	0.046
Mof_C 	C 	0.04883	0.39983	0.99996	0.005
Mof_C 	C 	0.91755	0.3972	0.99996	-0.007
Mof_C 	C 	0.85722	0.30957	0.99999	0.093
Mof_C 	C 	0.92817	0.22456	1e-05	-0.008
Mof_C 	C 	0.05945	0.2272	1e-05	-0.008
Mof_C 	C 	0.93879	0.05193	5e-05	0.028
Mof_C 	C 	0.07007	0.05456	5e-05	-0.015
Mof_C 	C 	0.87846	0.9643	8e-05	0.208
Mof_C 	C 	0.94941	0.87929	9e-05	0.207
Mof_C 	C 	0.0807	0.88192	9e-05	0.155
Mof_C 	C 	0.14103	0.96956	7e-05	0.204
Mof_C 	C 	0.48887	0.9662	5e-05	0.447
Mof_C 	C 	0.47459	0.86088	5e-05	-0.022
Mof_C 	C 	0.44849	0.66805	3e-05	-0.126
Mof_C 	C 	0.54974	0.61108	3e-05	0.281
Mof_C 	C 	0.53522	0.50378	1e-05	0.013
Mof_C 	C 	0.46301	0.77536	4e-05	0.208
Mof_C 	C 	0.72811	0.13415	4e-05	0.382
Mof_C 	C 	0.86784	0.13694	3e-05	-0.04
Mof_C 	C 	0.50937	0.31293	1e-05	0.344
Mof_C 	C 	0.52365	0.41825	-0	-0.038
Mof_N 	N 	0.49912	0.13956	0.35615	-0.199
Mof_N 	N 	0.49913	0.13956	0.64391	-0.211
Mof_C 	C 	0.65561	0.01176	0.35616	0.212
Mof_C 	C 	0.73385	0.94786	0.4281	0.137
Mof_C 	C 	0.73387	0.94786	0.57198	0.274
Mof_C 	C 	0.65562	0.01177	0.64392	-0.135
Mof_C 	C 	0.57737	0.07566	0.57198	0.122
Mof_C 	C 	0.57737	0.07566	0.42809	-0.016
Mof_C 	C 	0.42088	0.20346	0.57197	0.019
Mof_C 	C 	0.42087	0.20347	0.42809	0.068
Mof_C 	C 	0.34263	0.26736	0.64391	0.161
Mof_C 	C 	0.26439	0.33126	0.57196	0.227
Mof_C 	C 	0.26438	0.33126	0.42808	-0.061
Mof_C 	C 	0.34262	0.26736	0.35615	-0.033
Mof_H 	H 	0.22668	0.31697	0.99996	0.099
Mof_F 	F 	0.8852	0.78604	0.00013	-0.276
Mof_F 	F 	0.6773	0.65266	4e-05	-0.345
Mof_F 	F 	0.18111	0.39926	0.64853	-0.353
Mof_H 	H 	0.85978	0.46642	0.99995	0.123
Mof_H 	H 	0.20065	0.38329	0.36951	0.095
Mof_H 	H 	0.34263	0.26736	0.23899	0.048
Mof_F 	F 	0.73874	0.96151	9e-05	-0.344
Mof_F 	F 	0.81714	0.87985	0.64855	-0.312
Mof_H 	H 	0.35092	0.63624	2e-05	0.12
Mof_F 	F 	0.65561	0.01177	0.20303	-0.364
Mof_H 	H 	0.09797	0.47118	0.99995	0.106
Mof_H 	H 	0.75032	0.30744	-0	0.005
Mof_F 	F 	0.28075	0.97236	6e-05	-0.407
Mof_F 	F 	0.1562	0.79145	0.00013	-0.331
Mof_H 	H 	0.65562	0.01175	0.76108	0.14
Mof_F 	F 	0.81713	0.87986	0.35153	-0.286
Mof_F 	F 	0.34264	0.26736	0.79704	-0.402
_end
