data_functionalizedCrystal
_audit_creation_method	'EQeq! by Chris Wilmer'
_symmetry_space_group_name_H-M	'P1'
_symmetry_Int_Tables_number	1
_symmetry_cell_setting	triclinic
loop_
_symmetry_equiv_pos_as_xyz
  x,y,z
_cell_length_a	10.599
_cell_length_b	17.0218
_cell_length_c	18.3064
_cell_angle_alpha	106.073
_cell_angle_beta	90
_cell_angle_gamma	90
loop_
_atom_site_label
_atom_site_type_symbol
_atom_site_fract_x
_atom_site_fract_y
_atom_site_fract_z
_atom_site_charge
Mof_Co	Co	0.53495	0.1188	0.60276	1.118
Mof_Co	Co	0.50009	0.86882	0.85284	1.121
Mof_Co	Co	0.46505	0.6188	0.10276	1.112
Mof_Co	Co	0.49991	0.36882	0.35284	1.12
Mof_H 	H 	0.4157	0.9739	0.3724	0.031
Mof_H 	H 	0.9452	0.9008	0.0889	0.069
Mof_H 	H 	0.4062	0.3877	0.0844	0.06
Mof_H 	H 	0.6812	0.9561	0.9805	0.044
Mof_H 	H 	0.6817	0.278	0.2253	0.006
Mof_H 	H 	0.3817	0.4116	0.2137	-0.012
Mof_H 	H 	0.4003	0.8528	0.1232	0.05
Mof_H 	H 	0.9378	0.7209	0.8876	0.077
Mof_H 	H 	0.7086	0.9891	0.112	0.049
Mof_H 	H 	0.7154	0.2525	0.097	0.057
Mof_H 	H 	0.884	0.958	0.8586	0.035
Mof_H 	H 	0.3921	0.9481	0.2413	0.074
Mof_H 	H 	0.7711	0.3004	0.9896	0.072
Mof_H 	H 	0.1103	0.7769	0.8476	0.032
Mof_H 	H 	0.3894	0.2972	0.9639	0.081
Mof_H 	H 	0.0621	0.0174	0.8152	0.069
Mof_H 	H 	0.7678	0.9356	0.2138	0.064
Mof_H 	H 	0.4464	0.0744	0.7447	-0.006
Mof_H 	H 	0.3796	0.827	0.9914	0.033
Mof_H 	H 	0.1376	0.9447	0.5737	0.073
Mof_H 	H 	0.7246	0.7255	0.9176	0.062
Mof_H 	H 	0.416	0.2553	0.8314	0.034
Mof_H 	H 	0.1117	0.9645	0.0381	0.038
Mof_H 	H 	0.3061	0.0177	0.5387	0.002
Mof_H 	H 	0.2808	0.0064	0.7864	0.071
Mof_H 	H 	0.8686	0.7847	0.1309	0.061
Mof_H 	H 	0.7926	0.2693	0.8572	0.031
Mof_H 	H 	0.7963	0.9585	0.345	0.029
Mof_H 	H 	0.8974	0.7734	0.6627	0.03
Mof_H 	H 	0.6969	0.7284	0.1694	0.013
Mof_H 	H 	0.0675	0.8312	0.6241	0.062
Mof_H 	H 	0.5592	0.6651	0.9612	-0.01
Mof_H 	H 	0.5843	0.4739	0.8724	0.038
Mof_H 	H 	0.0548	0.4008	0.5889	0.055
Mof_H 	H 	0.5938	0.8877	0.5844	0.077
Mof_H 	H 	0.3188	0.4561	0.4805	-0.003
Mof_H 	H 	0.3183	0.778	0.7253	0.003
Mof_H 	H 	0.6183	0.9116	0.7137	-0.015
Mof_H 	H 	0.5997	0.3528	0.6232	0.073
Mof_H 	H 	0.0622	0.2209	0.3876	0.065
Mof_H 	H 	0.2914	0.4891	0.612	0.073
Mof_H 	H 	0.2846	0.7525	0.597	0.07
Mof_H 	H 	0.116	0.458	0.3586	0.034
Mof_H 	H 	0.6079	0.4481	0.7413	0.069
Mof_H 	H 	0.2289	0.8004	0.4896	0.055
Mof_H 	H 	0.8897	0.2769	0.3476	0.035
Mof_H 	H 	0.6106	0.7972	0.4639	0.066
Mof_H 	H 	0.9379	0.5174	0.3152	0.067
Mof_H 	H 	0.2322	0.4356	0.7138	0.058
Mof_H 	H 	0.5536	0.5744	0.2447	-0.007
Mof_H 	H 	0.6204	0.327	0.4914	-0.012
Mof_H 	H 	0.8624	0.4447	0.0737	0.068
Mof_H 	H 	0.2754	0.2255	0.4176	0.081
Mof_H 	H 	0.584	0.7553	0.3314	0.039
Mof_H 	H 	0.8883	0.4645	0.5381	0.04
Mof_H 	H 	0.6939	0.5177	0.0387	-0.007
Mof_H 	H 	0.7192	0.5064	0.2864	0.071
Mof_H 	H 	0.1314	0.2847	0.6309	0.078
Mof_H 	H 	0.2074	0.7693	0.3572	0.034
Mof_H 	H 	0.2037	0.4585	0.845	0.035
Mof_H 	H 	0.1026	0.2734	0.1627	0.029
Mof_H 	H 	0.3031	0.2284	0.6694	0.005
Mof_H 	H 	0.9325	0.3312	0.1241	0.056
Mof_H 	H 	0.4408	0.1651	0.4612	-0.014
Mof_C 	C 	0.4882	0.9674	0.3407	0.042
Mof_C 	C 	0.9759	0.8768	0.039	-0.125
Mof_C 	C 	0.4633	0.3634	0.1118	-0.116
Mof_C 	C 	0.2435	0.9131	0.9119	0.328
Mof_C 	C 	0.7613	0.8244	0.7938	0.341
Mof_C 	C 	0.5631	0.9234	0.1325	0.017
Mof_C 	C 	0.077	0.9329	0.714	0.034
Mof_C 	C 	0.9223	0.8044	0.9934	0.09
Mof_C 	C 	0.6245	0.9983	0.4584	0.363
Mof_C 	C 	0.6226	0.2428	0.7484	0.314
Mof_C 	C 	0.6224	0.9355	0.0099	-0.019
Mof_C 	C 	0.6072	0.9744	0.3725	-0.112
Mof_C 	C 	0.6249	0.3001	0.1961	0.05
Mof_C 	C 	0.1246	0.8763	0.9389	-0.07
Mof_C 	C 	0.8696	0.8594	0.7657	-0.115
Mof_C 	C 	0.4496	0.3778	0.1896	0.067
Mof_C 	C 	0.4596	0.8748	0.0952	-0.071
Mof_C 	C 	0.557	0.3154	0.0747	0.024
Mof_C 	C 	0.5796	0.9386	0.2156	0.053
Mof_C 	C 	0.9743	0.7692	0.9198	-0.113
Mof_C 	C 	0.6409	0.9544	0.0891	-0.069
Mof_C 	C 	0.6079	0.2659	0.833	-0.103
Mof_C 	C 	0.6447	0.284	0.1201	-0.102
Mof_C 	C 	0.92	0.9322	0.8105	0.031
Mof_C 	C 	0.8128	0.7654	0.0195	-0.007
Mof_C 	C 	0.4742	0.951	0.2628	-0.109
Mof_C 	C 	0.1839	0.9728	0.6862	0.058
Mof_C 	C 	0.6983	0.2923	0.9581	-0.104
Mof_C 	C 	0.5759	0.2977	0.9908	0.064
Mof_C 	C 	0.0738	0.8033	0.8956	0.033
Mof_C 	C 	0.4719	0.2889	0.9428	-0.105
Mof_C 	C 	0.0265	0.9684	0.7839	-0.095
Mof_C 	C 	0.6962	0.9431	0.2462	-0.108
Mof_C 	C 	0.3823	0.0485	0.71	0.061
Mof_C 	C 	0.4475	0.8602	0.0164	-0.026
Mof_C 	C 	0.1969	0.9726	0.6108	-0.124
Mof_C 	C 	0.7206	0.7267	0.9697	-0.085
Mof_C 	C 	0.4874	0.268	0.8639	0.035
Mof_C 	C 	0.0774	0.9139	0.0091	-0.009
Mof_C 	C 	0.3007	0.015	0.5898	0.078
Mof_C 	C 	0.2821	0.0088	0.7352	-0.122
Mof_C 	C 	0.8038	0.7619	0.0955	-0.096
Mof_C 	C 	0.7107	0.2749	0.8791	0.033
Mof_C 	C 	0.714	0.9586	0.3244	0.031
Mof_C 	C 	0.9293	0.8234	0.6944	0.037
Mof_C 	C 	0.7042	0.7264	0.1172	0.048
Mof_C 	C 	0.0287	0.8581	0.6712	-0.101
Mof_C 	C 	0.623	0.6901	0.9964	0.085
Mof_C 	C 	0.5118	0.4674	0.8407	0.029
Mof_C 	C 	0.0241	0.3768	0.539	-0.079
Mof_C 	C 	0.5367	0.8634	0.6118	-0.142
Mof_C 	C 	0.7565	0.4131	0.4119	0.332
Mof_C 	C 	0.2387	0.3244	0.2938	0.339
Mof_C 	C 	0.4369	0.4234	0.6325	0.063
Mof_C 	C 	0.923	0.4329	0.214	0.029
Mof_C 	C 	0.0777	0.3044	0.4934	0.015
Mof_C 	C 	0.3755	0.4983	0.9584	0.357
Mof_C 	C 	0.3774	0.7428	0.2484	0.31
Mof_C 	C 	0.3776	0.4355	0.5099	0.076
Mof_C 	C 	0.3928	0.4744	0.8725	-0.1
Mof_C 	C 	0.3751	0.8001	0.6961	0.062
Mof_C 	C 	0.8754	0.3763	0.4389	-0.089
Mof_C 	C 	0.1304	0.3594	0.2657	-0.112
Mof_C 	C 	0.5504	0.8778	0.6896	0.082
Mof_C 	C 	0.5404	0.3748	0.5952	-0.127
Mof_C 	C 	0.443	0.8154	0.5747	0.069
Mof_C 	C 	0.4204	0.4386	0.7156	0.028
Mof_C 	C 	0.0257	0.2692	0.4198	-0.086
Mof_C 	C 	0.3591	0.4544	0.5891	-0.129
Mof_C 	C 	0.3921	0.7659	0.333	-0.091
Mof_C 	C 	0.3553	0.784	0.6201	-0.122
Mof_C 	C 	0.08	0.4322	0.3105	0.025
Mof_C 	C 	0.1872	0.2654	0.5195	0.075
Mof_C 	C 	0.5258	0.451	0.7628	-0.091
Mof_C 	C 	0.8161	0.4728	0.1862	0.058
Mof_C 	C 	0.3017	0.7923	0.4581	-0.081
Mof_C 	C 	0.4241	0.7977	0.4908	0.018
Mof_C 	C 	0.9262	0.3033	0.3956	0.023
Mof_C 	C 	0.5281	0.7889	0.4428	-0.081
Mof_C 	C 	0.9735	0.4684	0.2839	-0.09
Mof_C 	C 	0.3038	0.4431	0.7462	-0.09
Mof_C 	C 	0.6177	0.5485	0.21	0.061
Mof_C 	C 	0.5525	0.3602	0.5164	0.068
Mof_C 	C 	0.8031	0.4726	0.1108	-0.128
Mof_C 	C 	0.2794	0.2267	0.4697	-0.148
Mof_C 	C 	0.5126	0.768	0.3639	0.017
Mof_C 	C 	0.9226	0.4139	0.5091	0.01
Mof_C 	C 	0.6993	0.515	0.0898	0.078
Mof_C 	C 	0.7179	0.5088	0.2352	-0.122
Mof_C 	C 	0.1962	0.2619	0.5955	-0.137
Mof_C 	C 	0.2893	0.7749	0.3791	0.014
Mof_C 	C 	0.286	0.4586	0.8244	0.019
Mof_C 	C 	0.0707	0.3234	0.1944	0.029
Mof_C 	C 	0.2958	0.2264	0.6172	0.074
Mof_C 	C 	0.9713	0.3581	0.1712	-0.094
Mof_C 	C 	0.377	0.1901	0.4964	0.085
Mof_N 	N 	0.5256	0.3474	0.2327	-0.235
Mof_N 	N 	0.3881	0.0501	0.6372	-0.235
Mof_N 	N 	0.6104	0.6868	0.0678	-0.244
Mof_N 	N 	0.5278	0.8909	0.9746	-0.188
Mof_N 	N 	0.4744	0.8474	0.7327	-0.239
Mof_N 	N 	0.6119	0.5501	0.1372	-0.237
Mof_N 	N 	0.3896	0.1868	0.5678	-0.238
Mof_N 	N 	0.4722	0.3909	0.4746	-0.238
Mof_O 	O 	0.5358	0.1967	0.71	-0.43
Mof_O 	O 	0.5377	0.0398	0.4952	-0.452
Mof_O 	O 	0.6898	0.8745	0.8406	-0.439
Mof_O 	O 	0.3095	0.8628	0.8644	-0.441
Mof_O 	O 	0.7179	0.9731	0.4846	-0.308
Mof_O 	O 	0.2665	0.9881	0.9373	-0.278
Mof_O 	O 	0.7406	0.749	0.7693	-0.286
Mof_O 	O 	0.7216	0.2637	0.7188	-0.284
Mof_O 	O 	0.4642	0.6967	0.21	-0.431
Mof_O 	O 	0.4623	0.5398	0.9952	-0.437
Mof_O 	O 	0.3102	0.3745	0.3406	-0.441
Mof_O 	O 	0.6905	0.3628	0.3644	-0.443
Mof_O 	O 	0.2821	0.4731	0.9846	-0.297
Mof_O 	O 	0.7335	0.4881	0.4373	-0.288
Mof_O 	O 	0.2594	0.249	0.2693	-0.289
Mof_O 	O 	0.2784	0.7637	0.2188	-0.287
_end
