data_functionalizedCrystal
_audit_creation_method	'EQeq! by Chris Wilmer'
_symmetry_space_group_name_H-M	'P1'
_symmetry_Int_Tables_number	1
_symmetry_cell_setting	triclinic
loop_
_symmetry_equiv_pos_as_xyz
  x,y,z
_cell_length_a	9.6084
_cell_length_b	15.803
_cell_length_c	7.9309
_cell_angle_alpha	90
_cell_angle_beta	96.84
_cell_angle_gamma	90
loop_
_atom_site_label
_atom_site_type_symbol
_atom_site_fract_x
_atom_site_fract_y
_atom_site_fract_z
_atom_site_charge
Mof_Y 	Y 	0.86694	0.67263	0.07257	1.337
Mof_O 	O 	0.7087	0.5706	0.9485	-0.337
Mof_O 	O 	0.1086	0.68972	0.1442	-0.406
Mof_O 	O 	0.9433	0.538	0.1865	-0.335
Mof_O 	O 	0.1872	0.7625	0.3757	-0.404
Mof_O 	O 	0.0235	0.41004	0.1269	-0.316
Mof_N 	N 	0.6259	0.673	0.1829	-0.191
Mof_N 	N 	0.452	0.7355	0.3305	-0.174
Mof_C 	C 	0.5268	0.6323	0.0808	0.005
Mof_C 	C 	0.2033	0.7174	0.2515	0.378
Mof_C 	C 	0.3854	0.6412	0.1005	-0.035
Mof_C 	C 	0.3532	0.6953	0.2247	-0.028
Mof_O 	O 	0.488	0.55551	0.8251	-0.243
Mof_C 	C 	0.5768	0.5813	0.9404	0.309
Mof_C 	C 	0.5836	0.7223	0.3037	0.127
Mof_C 	C 	0.9902	0.485	0.0907	0.257
Mof_H 	H 	0.31393	0.61083	0.03017	0.071
Mof_H 	H 	0.6551	0.7507	0.37757	-0.018
Mof_Y 	Y 	0.63306	0.17263	0.42743	1.354
Mof_O 	O 	0.7913	0.0706	0.5515	-0.343
Mof_O 	O 	0.3914	0.18972	0.3558	-0.411
Mof_O 	O 	0.5567	0.038	0.3135	-0.337
Mof_O 	O 	0.3128	0.2625	0.1243	-0.402
Mof_O 	O 	0.4765	0.91004	0.3731	-0.326
Mof_N 	N 	0.8741	0.173	0.3171	-0.19
Mof_N 	N 	0.048	0.2355	0.1695	-0.168
Mof_C 	C 	0.9732	0.1323	0.4192	0.001
Mof_C 	C 	0.2967	0.2174	0.2485	0.379
Mof_C 	C 	0.1146	0.1412	0.3995	-0.029
Mof_C 	C 	0.1468	0.1953	0.2753	-0.029
Mof_O 	O 	0.012	0.05551	0.6749	-0.246
Mof_C 	C 	0.9232	0.0813	0.5596	0.313
Mof_C 	C 	0.9164	0.2223	0.1963	0.12
Mof_C 	C 	0.5098	0.985	0.4093	0.266
Mof_H 	H 	0.18607	0.11083	0.46983	0.068
Mof_H 	H 	0.8449	0.2507	0.12243	-0.017
Mof_Y 	Y 	0.13306	0.32737	0.92743	1.337
Mof_O 	O 	0.2913	0.4294	0.0515	-0.337
Mof_O 	O 	0.8914	0.31028	0.8558	-0.406
Mof_O 	O 	0.0567	0.462	0.8135	-0.335
Mof_O 	O 	0.8128	0.2375	0.6243	-0.404
Mof_O 	O 	0.9765	0.58996	0.8731	-0.316
Mof_N 	N 	0.3741	0.327	0.8171	-0.191
Mof_N 	N 	0.548	0.2645	0.6695	-0.174
Mof_C 	C 	0.4732	0.3677	0.9192	0.005
Mof_C 	C 	0.7967	0.2826	0.7485	0.378
Mof_C 	C 	0.6146	0.3588	0.8995	-0.035
Mof_C 	C 	0.6468	0.3047	0.7753	-0.028
Mof_O 	O 	0.512	0.44449	0.1749	-0.243
Mof_C 	C 	0.4232	0.4187	0.0596	0.309
Mof_C 	C 	0.4164	0.2777	0.6963	0.127
Mof_C 	C 	0.0098	0.515	0.9093	0.257
Mof_H 	H 	0.68607	0.38917	0.96983	0.071
Mof_H 	H 	0.3449	0.2493	0.62243	-0.018
Mof_Y 	Y 	0.36694	0.82737	0.57257	1.354
Mof_O 	O 	0.2087	0.9294	0.4485	-0.343
Mof_O 	O 	0.6086	0.81028	0.6442	-0.411
Mof_O 	O 	0.4433	0.962	0.6865	-0.337
Mof_O 	O 	0.6872	0.7375	0.8757	-0.402
Mof_O 	O 	0.5235	0.08996	0.6269	-0.326
Mof_N 	N 	0.1259	0.827	0.6829	-0.19
Mof_N 	N 	0.952	0.7645	0.8305	-0.168
Mof_C 	C 	0.0268	0.8677	0.5808	0.001
Mof_C 	C 	0.7033	0.7826	0.7515	0.379
Mof_C 	C 	0.8854	0.8588	0.6005	-0.029
Mof_C 	C 	0.8532	0.8047	0.7247	-0.029
Mof_O 	O 	0.988	0.94449	0.3251	-0.246
Mof_C 	C 	0.0768	0.9187	0.4404	0.313
Mof_C 	C 	0.0836	0.7777	0.8037	0.12
Mof_C 	C 	0.4902	0.015	0.5907	0.266
Mof_H 	H 	0.81393	0.88917	0.53017	0.068
Mof_H 	H 	0.1551	0.7493	0.87757	-0.017
_end
