data_functionalizedCrystal
_audit_creation_method	'EQeq! by Chris Wilmer'
_symmetry_space_group_name_H-M	'P1'
_symmetry_Int_Tables_number	1
_symmetry_cell_setting	triclinic
loop_
_symmetry_equiv_pos_as_xyz
  x,y,z
_cell_length_a	10.282
_cell_length_b	11.261
_cell_length_c	12.171
_cell_angle_alpha	92.575
_cell_angle_beta	109.114
_cell_angle_gamma	109.752
loop_
_atom_site_label
_atom_site_type_symbol
_atom_site_fract_x
_atom_site_fract_y
_atom_site_fract_z
_atom_site_charge
Mof_O 	O 	0.5896	0.6876	0.5622	-0.407
Mof_O 	O 	0.697	0.4832	0.5193	-0.962
Mof_O 	O 	0.5655	0.4623	0.6821	-0.477
Mof_C 	C 	0.7117	0.7524	0.6425	0.352
Mof_Ni	Ni	0.79181	0.52637	0.7029	1.153
Mof_H 	H 	0.7236	0.4193	0.5265	0.379
Mof_H 	H 	0.7379	0.5278	0.4767	0.403
Mof_C 	C 	0.7462	0.8934	0.6724	-0.048
Mof_O 	O 	0.8084	0.7112	0.6981	-0.387
Mof_O 	O 	0.8678	0.5813	0.8855	-0.936
Mof_O 	O 	0.7848	0.3468	0.7003	-0.432
Mof_O 	O 	0.0068	0.5855	0.7067	-0.392
Mof_C 	C 	0.8879	0.9797	0.6896	-0.075
Mof_C 	C 	0.64	0.9396	0.6853	-0.011
Mof_H 	H 	0.9236	0.6488	0.9365	0.387
Mof_H 	H 	0.7804	0.5619	0.8855	0.394
Mof_C 	C 	0.9318	0.112	0.7213	0.094
Mof_H 	H 	0.9565	0.9478	0.6794	0.084
Mof_C 	C 	0.6825	0.0709	0.7152	0.005
Mof_C 	C 	0.4873	0.856	0.6703	0.087
Mof_O 	O 	0.9265	0.3399	0.8816	-0.419
Mof_C 	C 	0.084	0.198	0.733	-0.019
Mof_C 	C 	0.8239	0.1566	0.7359	-0.113
Mof_H 	H 	0.6122	0.1027	0.7216	0.045
Mof_C 	C 	0.4573	0.7627	0.7376	-0.127
Mof_C 	C 	0.3688	0.8746	0.5868	-0.131
Mof_C 	C 	0.1767	0.2952	0.8323	-0.055
Mof_C 	C 	0.1421	0.1833	0.6472	-0.058
Mof_C 	C 	0.8502	0.2946	0.7752	0.416
Mof_H 	H 	0.5355	0.7495	0.7936	0.094
Mof_C 	C 	0.3118	0.6876	0.7234	0.044
Mof_H 	H 	0.3873	0.9386	0.5419	0.085
Mof_C 	C 	0.2244	0.7991	0.5702	0.045
Mof_C 	C 	0.3146	0.3742	0.8418	0.006
Mof_H 	H 	0.1426	0.3055	0.8927	0.06
Mof_C 	C 	0.2813	0.2648	0.656	0.007
Mof_H 	H 	0.086	0.1173	0.5825	0.042
Mof_H 	H 	0.2932	0.6249	0.7694	0.031
Mof_C 	C 	0.1942	0.7076	0.6392	-0.112
Mof_H 	H 	0.1465	0.8101	0.5117	0.021
Mof_C 	C 	0.3689	0.3614	0.7518	-0.1
Mof_H 	H 	0.3735	0.4372	0.9084	0.072
Mof_H 	H 	0.3163	0.2543	0.5962	0.039
Mof_C 	C 	0.0371	0.6303	0.622	0.299
Mof_C 	C 	0.5222	0.4488	0.7688	0.36
Mof_O 	O 	0.9408	0.6175	0.5199	-0.266
Mof_O 	O 	0.6062	0.5019	0.872	-0.326
Mof_O 	O 	0.4104	0.3124	0.4378	-0.413
Mof_O 	O 	0.303	0.5168	0.4807	-0.962
Mof_O 	O 	0.4345	0.5377	0.3179	-0.489
Mof_C 	C 	0.2883	0.2476	0.3575	0.369
Mof_Ni	Ni	0.20819	0.47363	0.2971	1.14
Mof_H 	H 	0.2764	0.5807	0.4735	0.373
Mof_H 	H 	0.2621	0.4722	0.5233	0.402
Mof_C 	C 	0.2538	0.1066	0.3276	-0.101
Mof_O 	O 	0.1916	0.2888	0.3019	-0.418
Mof_O 	O 	0.1322	0.4187	0.1145	-0.942
Mof_O 	O 	0.2152	0.6532	0.2997	-0.446
Mof_O 	O 	0.9932	0.4145	0.2933	-0.381
Mof_C 	C 	0.1121	0.0203	0.3104	0
Mof_C 	C 	0.36	0.0604	0.3147	0.018
Mof_H 	H 	0.0764	0.3512	0.0635	0.31
Mof_H 	H 	0.2196	0.4381	0.1145	0.369
Mof_C 	C 	0.0682	0.888	0.2787	-0.058
Mof_H 	H 	0.0435	0.0522	0.3206	0.026
Mof_C 	C 	0.3175	0.9291	0.2848	-0.046
Mof_C 	C 	0.5127	0.144	0.3297	0.069
Mof_O 	O 	0.0735	0.6601	0.1184	-0.514
Mof_C 	C 	0.916	0.802	0.267	0.141
Mof_C 	C 	0.1761	0.8434	0.2641	-0.081
Mof_H 	H 	0.3878	0.8973	0.2784	0.049
Mof_C 	C 	0.5427	0.2373	0.2624	-0.127
Mof_C 	C 	0.6312	0.1254	0.4132	-0.127
Mof_C 	C 	0.8233	0.7048	0.1677	-0.172
Mof_C 	C 	0.8579	0.8167	0.3528	-0.17
Mof_C 	C 	0.1498	0.7054	0.2248	0.402
Mof_H 	H 	0.4645	0.2505	0.2064	0.072
Mof_C 	C 	0.6882	0.3124	0.2766	0.045
Mof_H 	H 	0.6127	0.0614	0.4581	0.084
Mof_C 	C 	0.7756	0.2009	0.4298	0.054
Mof_C 	C 	0.6854	0.6258	0.1582	0.092
Mof_H 	H 	0.8574	0.6945	0.1073	0.081
Mof_C 	C 	0.7187	0.7352	0.344	0.095
Mof_H 	H 	0.914	0.8827	0.4175	0.105
Mof_H 	H 	0.7068	0.3751	0.2306	0.018
Mof_C 	C 	0.8058	0.2924	0.3608	-0.131
Mof_H 	H 	0.8535	0.1899	0.4883	0.037
Mof_C 	C 	0.6311	0.6386	0.2482	-0.18
Mof_H 	H 	0.6265	0.5628	0.0916	-0.002
Mof_H 	H 	0.6837	0.7457	0.4038	0.008
Mof_C 	C 	0.9629	0.3697	0.378	0.392
Mof_C 	C 	0.4778	0.5512	0.2312	0.393
Mof_O 	O 	0.0592	0.3825	0.4801	-0.344
Mof_O 	O 	0.3938	0.4981	0.128	-0.383
Mof_Ni	Ni	0.5	0.5	0.5	1.152
Mof_Ni	Ni	2.30347e-17	0.5	-0	1.04
_end
