data_functionalizedCrystal
_audit_creation_method	'EQeq! by Chris Wilmer'
_symmetry_space_group_name_H-M	'P1'
_symmetry_Int_Tables_number	1
_symmetry_cell_setting	triclinic
loop_
_symmetry_equiv_pos_as_xyz
  x,y,z
_cell_length_a	25.0111
_cell_length_b	22.9843
_cell_length_c	17.1959
_cell_angle_alpha	90
_cell_angle_beta	96.404
_cell_angle_gamma	90
loop_
_atom_site_label
_atom_site_type_symbol
_atom_site_fract_x
_atom_site_fract_y
_atom_site_fract_z
_atom_site_charge
Mof_Zn	Zn	0.14242	0.93269	0.31883	1.206
Mof_S 	S 	0.8521	0.7448	0.4852	0.048
Mof_S 	S 	0.2443	0.1166	0.8119	-0.047
Mof_O 	O 	0.03299	0.93287	0.1922	-0.523
Mof_O 	O 	0.0718	0.8943	0.3029	-0.518
Mof_O 	O 	0.69624	0.6263	0.3134	-0.506
Mof_O 	O 	0.7187	0.5871	0.2025	-0.516
Mof_O 	O 	0.1449	0.95101	0.42913	-0.546
Mof_C 	C 	0.0342	0.8987	0.2483	0.419
Mof_C 	C 	0.9873	0.8584	0.2501	-0.164
Mof_C 	C 	0.9463	0.8589	0.1899	0.072
Mof_H 	H 	0.9474	0.8851	0.1474	0.008
Mof_C 	C 	0.9032	0.8211	0.1912	-0.149
Mof_H 	H 	0.8762	0.8185	0.1479	0.071
Mof_C 	C 	0.9005	0.7861	0.2592	0.088
Mof_C 	C 	0.9384	0.7895	0.3204	-0.155
Mof_H 	H 	0.9354	0.7668	0.3659	0.078
Mof_C 	C 	0.9826	0.8266	0.3174	0.071
Mof_H 	H 	0.0091	0.8298	0.3612	0.01
Mof_C 	C 	0.8538	0.7449	0.2598	-0.044
Mof_C 	C 	0.8439	0.7076	0.1964	-0.056
Mof_H 	H 	0.8659	0.7073	0.1547	0.043
Mof_C 	C 	0.7984	0.6692	0.1974	-0.01
Mof_H 	H 	0.7888	0.6445	0.1537	0.033
Mof_C 	C 	0.7691	0.6674	0.2582	-0.092
Mof_C 	C 	0.7774	0.7088	0.3132	-0.05
Mof_H 	H 	0.7533	0.7116	0.3519	0.051
Mof_C 	C 	0.8187	0.7466	0.3153	0.041
Mof_C 	C 	0.8271	0.789	0.3905	-0.183
Mof_H 	H 	0.8538	0.8195	0.3818	0.078
Mof_H 	H 	0.7927	0.8085	0.3976	0.068
Mof_C 	C 	0.8574	0.8031	0.5581	-0.432
Mof_H 	H 	0.8696	0.7868	0.6098	0.154
Mof_H 	H 	0.8834	0.8322	0.5443	0.155
Mof_H 	H 	0.8222	0.8214	0.5593	0.156
Mof_C 	C 	0.7258	0.6232	0.2592	0.35
Mof_C 	C 	0.1306	0.9503	0.5896	0.137
Mof_H 	H 	0.12	0.9163	0.5603	-0.019
Mof_C 	C 	0.1297	0.9497	0.6669	0.033
Mof_H 	H 	0.1187	0.9157	0.6923	0.009
Mof_C 	C 	0.0946	0.9885	0.8284	0.159
Mof_H 	H 	0.0635	0.98	0.7932	-0.045
Mof_C 	C 	0.0907	0.0109	0.9046	-0.196
Mof_H 	H 	0.0568	0.018	0.923	0.118
Mof_C 	C 	0.186	0.0158	0.9297	-0.55
Mof_H 	H 	0.2164	0.0259	0.9653	0.206
Mof_C 	C 	0.1895	0.016	0.8499	-0.178
Mof_C 	C 	0.2427	0.0314	0.8236	0.631
Mof_H 	H 	0.2469	0.0123	0.7731	-0.652
Mof_H 	H 	0.2723	0.0184	0.8627	-0.252
Mof_C 	C 	0.2637	0.122	0.716	-0.331
Mof_H 	H 	0.265	0.1631	0.701	0.121
Mof_H 	H 	0.2376	0.1015	0.6792	0.122
Mof_H 	H 	0.2994	0.1046	0.7149	0.123
Mof_C 	C 	0.1618	0.0454	0.5921	0.099
Mof_C 	C 	0.1584	0.0487	0.673	0.023
Mof_H 	H 	0.1759	0.0779	0.5669	-0.008
Mof_H 	H 	0.1651	0.0843	0.7004	0.022
Mof_Zn	Zn	0.64242	0.43269	0.31883	1.21
Mof_S 	S 	0.3521	0.2448	0.4852	0.052
Mof_S 	S 	0.7443	0.6166	0.8119	0.048
Mof_O 	O 	0.53299	0.43287	0.1922	-0.509
Mof_O 	O 	0.5718	0.3943	0.3029	-0.512
Mof_O 	O 	0.19624	0.1263	0.3134	-0.504
Mof_O 	O 	0.2187	0.0871	0.2025	-0.512
Mof_O 	O 	0.6449	0.45101	0.42913	-0.518
Mof_C 	C 	0.5342	0.3987	0.2483	0.418
Mof_C 	C 	0.4873	0.3584	0.2501	-0.159
Mof_C 	C 	0.4463	0.3589	0.1899	0.071
Mof_H 	H 	0.4474	0.3851	0.1474	0.02
Mof_C 	C 	0.4032	0.3211	0.1912	-0.143
Mof_H 	H 	0.3762	0.3185	0.1479	0.079
Mof_C 	C 	0.4005	0.2861	0.2592	0.089
Mof_C 	C 	0.4384	0.2895	0.3204	-0.153
Mof_H 	H 	0.4354	0.2668	0.3659	0.079
Mof_C 	C 	0.4826	0.3266	0.3174	0.071
Mof_H 	H 	0.5091	0.3298	0.3612	0.012
Mof_C 	C 	0.3538	0.2449	0.2598	-0.042
Mof_C 	C 	0.3439	0.2076	0.1964	-0.053
Mof_H 	H 	0.3659	0.2073	0.1547	0.046
Mof_C 	C 	0.2984	0.1692	0.1974	-0.009
Mof_H 	H 	0.2888	0.1445	0.1537	0.037
Mof_C 	C 	0.2691	0.1674	0.2582	-0.088
Mof_C 	C 	0.2774	0.2088	0.3132	-0.049
Mof_H 	H 	0.2533	0.2116	0.3519	0.052
Mof_C 	C 	0.3187	0.2466	0.3153	0.044
Mof_C 	C 	0.3271	0.289	0.3905	-0.185
Mof_H 	H 	0.3538	0.3195	0.3818	0.08
Mof_H 	H 	0.2927	0.3085	0.3976	0.071
Mof_C 	C 	0.3574	0.3031	0.5581	-0.437
Mof_H 	H 	0.3696	0.2868	0.6098	0.157
Mof_H 	H 	0.3834	0.3322	0.5443	0.157
Mof_H 	H 	0.3222	0.3214	0.5593	0.158
Mof_C 	C 	0.2258	0.1232	0.2592	0.351
Mof_C 	C 	0.6306	0.4503	0.5896	0.026
Mof_H 	H 	0.62	0.4163	0.5603	0.019
Mof_C 	C 	0.6297	0.4497	0.6669	-0.058
Mof_H 	H 	0.6187	0.4157	0.6923	0.045
Mof_C 	C 	0.5946	0.4885	0.8284	-0.027
Mof_H 	H 	0.5635	0.48	0.7932	0.033
Mof_C 	C 	0.5907	0.5109	0.9046	-0.001
Mof_H 	H 	0.5568	0.518	0.923	0.03
Mof_C 	C 	0.686	0.5158	0.9297	-0.023
Mof_H 	H 	0.7164	0.5259	0.9653	0.035
Mof_C 	C 	0.6895	0.516	0.8499	0.026
Mof_C 	C 	0.7427	0.5314	0.8236	-0.12
Mof_H 	H 	0.7469	0.5123	0.7731	0.046
Mof_H 	H 	0.7723	0.5184	0.8627	0.046
Mof_C 	C 	0.7637	0.622	0.716	-0.404
Mof_H 	H 	0.765	0.6631	0.701	0.139
Mof_H 	H 	0.7376	0.6015	0.6792	0.138
Mof_H 	H 	0.7994	0.6046	0.7149	0.135
Mof_C 	C 	0.6618	0.5454	0.5921	-0.004
Mof_C 	C 	0.6584	0.5487	0.673	-0.065
Mof_H 	H 	0.6759	0.5779	0.5669	0.021
Mof_H 	H 	0.6651	0.5843	0.7004	0.043
Mof_Zn	Zn	0.14242	0.06731	0.31883	1.212
Mof_S 	S 	0.8521	0.2552	0.4852	0.048
Mof_S 	S 	0.2443	0.8834	0.8119	0.143
Mof_O 	O 	0.03299	0.06713	0.1922	-0.505
Mof_O 	O 	0.0718	0.1057	0.3029	-0.509
Mof_O 	O 	0.69624	0.3737	0.3134	-0.505
Mof_O 	O 	0.7187	0.4129	0.2025	-0.515
Mof_O 	O 	0.1449	0.04899	0.42913	-0.52
Mof_C 	C 	0.0342	0.1013	0.2483	0.418
Mof_C 	C 	0.9873	0.1416	0.2501	-0.156
Mof_C 	C 	0.9463	0.1411	0.1899	0.069
Mof_H 	H 	0.9474	0.1149	0.1474	0.029
Mof_C 	C 	0.9032	0.1789	0.1912	-0.138
Mof_H 	H 	0.8762	0.1815	0.1479	0.084
Mof_C 	C 	0.9005	0.2139	0.2592	0.088
Mof_C 	C 	0.9384	0.2105	0.3204	-0.152
Mof_H 	H 	0.9354	0.2332	0.3659	0.078
Mof_C 	C 	0.9826	0.1734	0.3174	0.07
Mof_H 	H 	0.0091	0.1702	0.3612	0.013
Mof_C 	C 	0.8538	0.2551	0.2598	-0.041
Mof_C 	C 	0.8439	0.2924	0.1964	-0.054
Mof_H 	H 	0.8659	0.2927	0.1547	0.044
Mof_C 	C 	0.7984	0.3308	0.1974	-0.008
Mof_H 	H 	0.7888	0.3555	0.1537	0.034
Mof_C 	C 	0.7691	0.3326	0.2582	-0.09
Mof_C 	C 	0.7774	0.2912	0.3132	-0.049
Mof_H 	H 	0.7533	0.2884	0.3519	0.052
Mof_C 	C 	0.8187	0.2534	0.3153	0.045
Mof_C 	C 	0.8271	0.211	0.3905	-0.185
Mof_H 	H 	0.8538	0.1805	0.3818	0.08
Mof_H 	H 	0.7927	0.1915	0.3976	0.073
Mof_C 	C 	0.8574	0.1969	0.5581	-0.435
Mof_H 	H 	0.8696	0.2132	0.6098	0.155
Mof_H 	H 	0.8834	0.1678	0.5443	0.157
Mof_H 	H 	0.8222	0.1786	0.5593	0.158
Mof_C 	C 	0.7258	0.3768	0.2592	0.351
Mof_C 	C 	0.1306	0.0497	0.5896	-0.08
Mof_H 	H 	0.12	0.0837	0.5603	0.052
Mof_C 	C 	0.1297	0.0503	0.6669	-0.14
Mof_H 	H 	0.1187	0.0843	0.6923	0.074
Mof_C 	C 	0.0946	0.0115	0.8284	-0.224
Mof_H 	H 	0.0635	0.02	0.7932	0.112
Mof_C 	C 	0.0907	0.9891	0.9046	0.175
Mof_H 	H 	0.0568	0.982	0.923	-0.056
Mof_C 	C 	0.186	0.9842	0.9297	0.483
Mof_H 	H 	0.2164	0.9741	0.9653	-0.132
Mof_C 	C 	0.1895	0.984	0.8499	0.219
Mof_C 	C 	0.2427	0.9686	0.8236	-0.865
Mof_H 	H 	0.2469	0.9877	0.7731	0.739
Mof_H 	H 	0.2723	0.9816	0.8627	0.342
Mof_C 	C 	0.2637	0.878	0.716	-0.479
Mof_H 	H 	0.265	0.8369	0.701	0.157
Mof_H 	H 	0.2376	0.8985	0.6792	0.155
Mof_H 	H 	0.2994	0.8954	0.7149	0.149
Mof_C 	C 	0.1618	0.9546	0.5921	-0.148
Mof_C 	C 	0.1584	0.9513	0.673	-0.195
Mof_H 	H 	0.1759	0.9221	0.5669	0.06
Mof_H 	H 	0.1651	0.9157	0.7004	0.074
Mof_Zn	Zn	0.64242	0.56731	0.31883	1.21
Mof_S 	S 	0.3521	0.7552	0.4852	0.042
Mof_S 	S 	0.7443	0.3834	0.8119	0.05
Mof_O 	O 	0.53299	0.56713	0.1922	-0.51
Mof_O 	O 	0.5718	0.6057	0.3029	-0.512
Mof_O 	O 	0.19624	0.8737	0.3134	-0.51
Mof_O 	O 	0.2187	0.9129	0.2025	-0.53
Mof_O 	O 	0.6449	0.54899	0.42913	-0.518
Mof_C 	C 	0.5342	0.6013	0.2483	0.418
Mof_C 	C 	0.4873	0.6416	0.2501	-0.159
Mof_C 	C 	0.4463	0.6411	0.1899	0.07
Mof_H 	H 	0.4474	0.6149	0.1474	0.02
Mof_C 	C 	0.4032	0.6789	0.1912	-0.142
Mof_H 	H 	0.3762	0.6815	0.1479	0.077
Mof_C 	C 	0.4005	0.7139	0.2592	0.086
Mof_C 	C 	0.4384	0.7105	0.3204	-0.152
Mof_H 	H 	0.4354	0.7332	0.3659	0.076
Mof_C 	C 	0.4826	0.6734	0.3174	0.069
Mof_H 	H 	0.5091	0.6702	0.3612	0.012
Mof_C 	C 	0.3538	0.7551	0.2598	-0.042
Mof_C 	C 	0.3439	0.7924	0.1964	-0.058
Mof_H 	H 	0.3659	0.7927	0.1547	0.042
Mof_C 	C 	0.2984	0.8308	0.1974	-0.008
Mof_H 	H 	0.2888	0.8555	0.1537	0.029
Mof_C 	C 	0.2691	0.8326	0.2582	-0.096
Mof_C 	C 	0.2774	0.7912	0.3132	-0.048
Mof_H 	H 	0.2533	0.7884	0.3519	0.05
Mof_C 	C 	0.3187	0.7534	0.3153	0.041
Mof_C 	C 	0.3271	0.711	0.3905	-0.183
Mof_H 	H 	0.3538	0.6805	0.3818	0.079
Mof_H 	H 	0.2927	0.6915	0.3976	0.07
Mof_C 	C 	0.3574	0.6969	0.5581	-0.431
Mof_H 	H 	0.3696	0.7132	0.6098	0.152
Mof_H 	H 	0.3834	0.6678	0.5443	0.155
Mof_H 	H 	0.3222	0.6786	0.5593	0.156
Mof_C 	C 	0.2258	0.8768	0.2592	0.351
Mof_C 	C 	0.6306	0.5497	0.5896	0.026
Mof_H 	H 	0.62	0.5837	0.5603	0.019
Mof_C 	C 	0.6297	0.5503	0.6669	-0.058
Mof_H 	H 	0.6187	0.5843	0.6923	0.045
Mof_C 	C 	0.5946	0.5115	0.8284	-0.027
Mof_H 	H 	0.5635	0.52	0.7932	0.033
Mof_C 	C 	0.5907	0.4891	0.9046	-0.002
Mof_H 	H 	0.5568	0.482	0.923	0.031
Mof_C 	C 	0.686	0.4842	0.9297	-0.026
Mof_H 	H 	0.7164	0.4741	0.9653	0.037
Mof_C 	C 	0.6895	0.484	0.8499	0.025
Mof_C 	C 	0.7427	0.4686	0.8236	-0.116
Mof_H 	H 	0.7469	0.4877	0.7731	0.042
Mof_H 	H 	0.7723	0.4816	0.8627	0.044
Mof_C 	C 	0.7637	0.378	0.716	-0.405
Mof_H 	H 	0.765	0.3369	0.701	0.139
Mof_H 	H 	0.7376	0.3985	0.6792	0.139
Mof_H 	H 	0.7994	0.3954	0.7149	0.136
Mof_C 	C 	0.6618	0.4546	0.5921	-0.004
Mof_C 	C 	0.6584	0.4513	0.673	-0.065
Mof_H 	H 	0.6759	0.4221	0.5669	0.021
Mof_H 	H 	0.6651	0.4157	0.7004	0.043
Mof_Zn	Zn	0.07965	-1.28484e-33	0.17837	1.224
Mof_Zn	Zn	0.20952	-1.28484e-33	0.19914	1.195
Mof_O 	O 	0.14198	-2.56968e-33	0.25265	-0.947
Mof_O 	O 	0.1769	0	0.087	-0.508
Mof_O 	O 	0.08892	0	0.0686	-0.491
Mof_C 	C 	0.1459	0	0.4624	0.414
Mof_C 	C 	0.1467	-5.13937e-33	0.55	-0.094
Mof_C 	C 	0.1453	0	0.7109	0.094
Mof_C 	C 	0.1435	-1.02787e-32	0.7983	-0.011
Mof_C 	C 	0.1359	0	0.9585	-0.066
Mof_C 	C 	0.1342	0	0.045	0.421
Mof_Zn	Zn	0.57965	0.5	0.17837	1.219
Mof_Zn	Zn	0.70952	0.5	0.19914	1.189
Mof_O 	O 	0.64198	0.5	0.25265	-0.961
Mof_O 	O 	0.6769	0.5	0.087	-0.521
Mof_O 	O 	0.58892	0.5	0.0686	-0.503
Mof_C 	C 	0.6459	0.5	0.4624	0.385
Mof_C 	C 	0.6467	0.5	0.55	-0.127
Mof_C 	C 	0.6453	0.5	0.7109	0.062
Mof_C 	C 	0.6435	0.5	0.7983	-0.035
Mof_C 	C 	0.6359	0.5	0.9585	-0.101
Mof_C 	C 	0.6342	0.5	0.045	0.43
Mof_Zn	Zn	0.85758	0.93269	0.68117	1.205
Mof_S 	S 	0.1479	0.7448	0.5148	0.047
Mof_S 	S 	0.7557	0.1166	0.1881	-0.048
Mof_O 	O 	0.96701	0.93287	0.8078	-0.524
Mof_O 	O 	0.9282	0.8943	0.6971	-0.518
Mof_O 	O 	0.30376	0.6263	0.6866	-0.506
Mof_O 	O 	0.2813	0.5871	0.7975	-0.516
Mof_O 	O 	0.8551	0.95101	0.57087	-0.546
Mof_C 	C 	0.9658	0.8987	0.7517	0.419
Mof_C 	C 	0.0127	0.8584	0.7499	-0.164
Mof_C 	C 	0.0537	0.8589	0.8101	0.072
Mof_H 	H 	0.0526	0.8851	0.8526	0.008
Mof_C 	C 	0.0968	0.8211	0.8088	-0.149
Mof_H 	H 	0.1238	0.8185	0.8521	0.071
Mof_C 	C 	0.0995	0.7861	0.7408	0.088
Mof_C 	C 	0.0616	0.7895	0.6796	-0.155
Mof_H 	H 	0.0646	0.7668	0.6341	0.078
Mof_C 	C 	0.0174	0.8266	0.6826	0.071
Mof_H 	H 	0.9909	0.8298	0.6388	0.01
Mof_C 	C 	0.1462	0.7449	0.7402	-0.044
Mof_C 	C 	0.1561	0.7076	0.8036	-0.056
Mof_H 	H 	0.1341	0.7073	0.8453	0.043
Mof_C 	C 	0.2016	0.6692	0.8026	-0.01
Mof_H 	H 	0.2112	0.6445	0.8463	0.033
Mof_C 	C 	0.2309	0.6674	0.7418	-0.092
Mof_C 	C 	0.2226	0.7088	0.6868	-0.05
Mof_H 	H 	0.2467	0.7116	0.6481	0.051
Mof_C 	C 	0.1813	0.7466	0.6847	0.041
Mof_C 	C 	0.1729	0.789	0.6095	-0.183
Mof_H 	H 	0.1462	0.8195	0.6182	0.078
Mof_H 	H 	0.2073	0.8085	0.6024	0.068
Mof_C 	C 	0.1426	0.8031	0.4419	-0.432
Mof_H 	H 	0.1304	0.7868	0.3902	0.154
Mof_H 	H 	0.1166	0.8322	0.4557	0.155
Mof_H 	H 	0.1778	0.8214	0.4407	0.156
Mof_C 	C 	0.2742	0.6232	0.7408	0.35
Mof_C 	C 	0.8694	0.9503	0.4104	0.137
Mof_H 	H 	0.88	0.9163	0.4397	-0.019
Mof_C 	C 	0.8703	0.9497	0.3331	0.033
Mof_H 	H 	0.8813	0.9157	0.3077	0.009
Mof_C 	C 	0.9054	0.9885	0.1716	0.159
Mof_H 	H 	0.9365	0.98	0.2068	-0.045
Mof_C 	C 	0.9093	0.0109	0.0954	-0.196
Mof_H 	H 	0.9432	0.018	0.077	0.118
Mof_C 	C 	0.814	0.0158	0.0703	-0.55
Mof_H 	H 	0.7836	0.0259	0.0347	0.206
Mof_C 	C 	0.8105	0.016	0.1501	-0.178
Mof_C 	C 	0.7573	0.0314	0.1764	0.631
Mof_H 	H 	0.7531	0.0123	0.2269	-0.652
Mof_H 	H 	0.7277	0.0184	0.1373	-0.252
Mof_C 	C 	0.7363	0.122	0.284	-0.331
Mof_H 	H 	0.735	0.1631	0.299	0.121
Mof_H 	H 	0.7624	0.1015	0.3208	0.122
Mof_H 	H 	0.7006	0.1046	0.2851	0.123
Mof_C 	C 	0.8382	0.0454	0.4079	0.099
Mof_C 	C 	0.8416	0.0487	0.327	0.023
Mof_H 	H 	0.8241	0.0779	0.4331	-0.008
Mof_H 	H 	0.8349	0.0843	0.2996	0.022
Mof_Zn	Zn	0.35758	0.43269	0.68117	1.21
Mof_S 	S 	0.6479	0.2448	0.5148	0.052
Mof_S 	S 	0.2557	0.6166	0.1881	0.048
Mof_O 	O 	0.46701	0.43287	0.8078	-0.509
Mof_O 	O 	0.4282	0.3943	0.6971	-0.512
Mof_O 	O 	0.80376	0.1263	0.6866	-0.504
Mof_O 	O 	0.7813	0.0871	0.7975	-0.512
Mof_O 	O 	0.3551	0.45101	0.57087	-0.518
Mof_C 	C 	0.4658	0.3987	0.7517	0.418
Mof_C 	C 	0.5127	0.3584	0.7499	-0.159
Mof_C 	C 	0.5537	0.3589	0.8101	0.071
Mof_H 	H 	0.5526	0.3851	0.8526	0.02
Mof_C 	C 	0.5968	0.3211	0.8088	-0.143
Mof_H 	H 	0.6238	0.3185	0.8521	0.079
Mof_C 	C 	0.5995	0.2861	0.7408	0.089
Mof_C 	C 	0.5616	0.2895	0.6796	-0.153
Mof_H 	H 	0.5646	0.2668	0.6341	0.079
Mof_C 	C 	0.5174	0.3266	0.6826	0.071
Mof_H 	H 	0.4909	0.3298	0.6388	0.012
Mof_C 	C 	0.6462	0.2449	0.7402	-0.042
Mof_C 	C 	0.6561	0.2076	0.8036	-0.053
Mof_H 	H 	0.6341	0.2073	0.8453	0.046
Mof_C 	C 	0.7016	0.1692	0.8026	-0.009
Mof_H 	H 	0.7112	0.1445	0.8463	0.037
Mof_C 	C 	0.7309	0.1674	0.7418	-0.088
Mof_C 	C 	0.7226	0.2088	0.6868	-0.049
Mof_H 	H 	0.7467	0.2116	0.6481	0.052
Mof_C 	C 	0.6813	0.2466	0.6847	0.044
Mof_C 	C 	0.6729	0.289	0.6095	-0.185
Mof_H 	H 	0.6462	0.3195	0.6182	0.08
Mof_H 	H 	0.7073	0.3085	0.6024	0.071
Mof_C 	C 	0.6426	0.3031	0.4419	-0.437
Mof_H 	H 	0.6304	0.2868	0.3902	0.157
Mof_H 	H 	0.6166	0.3322	0.4557	0.157
Mof_H 	H 	0.6778	0.3214	0.4407	0.158
Mof_C 	C 	0.7742	0.1232	0.7408	0.351
Mof_C 	C 	0.3694	0.4503	0.4104	0.026
Mof_H 	H 	0.38	0.4163	0.4397	0.019
Mof_C 	C 	0.3703	0.4497	0.3331	-0.058
Mof_H 	H 	0.3813	0.4157	0.3077	0.045
Mof_C 	C 	0.4054	0.4885	0.1716	-0.027
Mof_H 	H 	0.4365	0.48	0.2068	0.033
Mof_C 	C 	0.4093	0.5109	0.0954	-0.001
Mof_H 	H 	0.4432	0.518	0.077	0.03
Mof_C 	C 	0.314	0.5158	0.0703	-0.023
Mof_H 	H 	0.2836	0.5259	0.0347	0.035
Mof_C 	C 	0.3105	0.516	0.1501	0.026
Mof_C 	C 	0.2573	0.5314	0.1764	-0.12
Mof_H 	H 	0.2531	0.5123	0.2269	0.046
Mof_H 	H 	0.2277	0.5184	0.1373	0.046
Mof_C 	C 	0.2363	0.622	0.284	-0.404
Mof_H 	H 	0.235	0.6631	0.299	0.139
Mof_H 	H 	0.2624	0.6015	0.3208	0.138
Mof_H 	H 	0.2006	0.6046	0.2851	0.135
Mof_C 	C 	0.3382	0.5454	0.4079	-0.004
Mof_C 	C 	0.3416	0.5487	0.327	-0.065
Mof_H 	H 	0.3241	0.5779	0.4331	0.021
Mof_H 	H 	0.3349	0.5843	0.2996	0.043
Mof_Zn	Zn	0.85758	0.06731	0.68117	1.212
Mof_S 	S 	0.1479	0.2552	0.5148	0.048
Mof_S 	S 	0.7557	0.8834	0.1881	0.143
Mof_O 	O 	0.96701	0.06713	0.8078	-0.505
Mof_O 	O 	0.9282	0.1057	0.6971	-0.509
Mof_O 	O 	0.30376	0.3737	0.6866	-0.505
Mof_O 	O 	0.2813	0.4129	0.7975	-0.515
Mof_O 	O 	0.8551	0.04899	0.57087	-0.52
Mof_C 	C 	0.9658	0.1013	0.7517	0.418
Mof_C 	C 	0.0127	0.1416	0.7499	-0.156
Mof_C 	C 	0.0537	0.1411	0.8101	0.069
Mof_H 	H 	0.0526	0.1149	0.8526	0.029
Mof_C 	C 	0.0968	0.1789	0.8088	-0.138
Mof_H 	H 	0.1238	0.1815	0.8521	0.084
Mof_C 	C 	0.0995	0.2139	0.7408	0.088
Mof_C 	C 	0.0616	0.2105	0.6796	-0.152
Mof_H 	H 	0.0646	0.2332	0.6341	0.078
Mof_C 	C 	0.0174	0.1734	0.6826	0.07
Mof_H 	H 	0.9909	0.1702	0.6388	0.013
Mof_C 	C 	0.1462	0.2551	0.7402	-0.041
Mof_C 	C 	0.1561	0.2924	0.8036	-0.054
Mof_H 	H 	0.1341	0.2927	0.8453	0.044
Mof_C 	C 	0.2016	0.3308	0.8026	-0.008
Mof_H 	H 	0.2112	0.3555	0.8463	0.034
Mof_C 	C 	0.2309	0.3326	0.7418	-0.09
Mof_C 	C 	0.2226	0.2912	0.6868	-0.049
Mof_H 	H 	0.2467	0.2884	0.6481	0.052
Mof_C 	C 	0.1813	0.2534	0.6847	0.045
Mof_C 	C 	0.1729	0.211	0.6095	-0.185
Mof_H 	H 	0.1462	0.1805	0.6182	0.08
Mof_H 	H 	0.2073	0.1915	0.6024	0.073
Mof_C 	C 	0.1426	0.1969	0.4419	-0.435
Mof_H 	H 	0.1304	0.2132	0.3902	0.155
Mof_H 	H 	0.1166	0.1678	0.4557	0.157
Mof_H 	H 	0.1778	0.1786	0.4407	0.158
Mof_C 	C 	0.2742	0.3768	0.7408	0.351
Mof_C 	C 	0.8694	0.0497	0.4104	-0.08
Mof_H 	H 	0.88	0.0837	0.4397	0.052
Mof_C 	C 	0.8703	0.0503	0.3331	-0.14
Mof_H 	H 	0.8813	0.0843	0.3077	0.074
Mof_C 	C 	0.9054	0.0115	0.1716	-0.224
Mof_H 	H 	0.9365	0.02	0.2068	0.112
Mof_C 	C 	0.9093	0.9891	0.0954	0.175
Mof_H 	H 	0.9432	0.982	0.077	-0.056
Mof_C 	C 	0.814	0.9842	0.0703	0.483
Mof_H 	H 	0.7836	0.9741	0.0347	-0.132
Mof_C 	C 	0.8105	0.984	0.1501	0.219
Mof_C 	C 	0.7573	0.9686	0.1764	-0.865
Mof_H 	H 	0.7531	0.9877	0.2269	0.739
Mof_H 	H 	0.7277	0.9816	0.1373	0.342
Mof_C 	C 	0.7363	0.878	0.284	-0.479
Mof_H 	H 	0.735	0.8369	0.299	0.157
Mof_H 	H 	0.7624	0.8985	0.3208	0.155
Mof_H 	H 	0.7006	0.8954	0.2851	0.149
Mof_C 	C 	0.8382	0.9546	0.4079	-0.148
Mof_C 	C 	0.8416	0.9513	0.327	-0.195
Mof_H 	H 	0.8241	0.9221	0.4331	0.06
Mof_H 	H 	0.8349	0.9157	0.2996	0.074
Mof_Zn	Zn	0.35758	0.56731	0.68117	1.21
Mof_S 	S 	0.6479	0.7552	0.5148	0.042
Mof_S 	S 	0.2557	0.3834	0.1881	0.05
Mof_O 	O 	0.46701	0.56713	0.8078	-0.51
Mof_O 	O 	0.4282	0.6057	0.6971	-0.512
Mof_O 	O 	0.80376	0.8737	0.6866	-0.51
Mof_O 	O 	0.7813	0.9129	0.7975	-0.53
Mof_O 	O 	0.3551	0.54899	0.57087	-0.518
Mof_C 	C 	0.4658	0.6013	0.7517	0.418
Mof_C 	C 	0.5127	0.6416	0.7499	-0.159
Mof_C 	C 	0.5537	0.6411	0.8101	0.07
Mof_H 	H 	0.5526	0.6149	0.8526	0.02
Mof_C 	C 	0.5968	0.6789	0.8088	-0.142
Mof_H 	H 	0.6238	0.6815	0.8521	0.077
Mof_C 	C 	0.5995	0.7139	0.7408	0.086
Mof_C 	C 	0.5616	0.7105	0.6796	-0.152
Mof_H 	H 	0.5646	0.7332	0.6341	0.076
Mof_C 	C 	0.5174	0.6734	0.6826	0.069
Mof_H 	H 	0.4909	0.6702	0.6388	0.012
Mof_C 	C 	0.6462	0.7551	0.7402	-0.042
Mof_C 	C 	0.6561	0.7924	0.8036	-0.058
Mof_H 	H 	0.6341	0.7927	0.8453	0.042
Mof_C 	C 	0.7016	0.8308	0.8026	-0.008
Mof_H 	H 	0.7112	0.8555	0.8463	0.029
Mof_C 	C 	0.7309	0.8326	0.7418	-0.096
Mof_C 	C 	0.7226	0.7912	0.6868	-0.048
Mof_H 	H 	0.7467	0.7884	0.6481	0.05
Mof_C 	C 	0.6813	0.7534	0.6847	0.041
Mof_C 	C 	0.6729	0.711	0.6095	-0.183
Mof_H 	H 	0.6462	0.6805	0.6182	0.079
Mof_H 	H 	0.7073	0.6915	0.6024	0.07
Mof_C 	C 	0.6426	0.6969	0.4419	-0.431
Mof_H 	H 	0.6304	0.7132	0.3902	0.152
Mof_H 	H 	0.6166	0.6678	0.4557	0.155
Mof_H 	H 	0.6778	0.6786	0.4407	0.156
Mof_C 	C 	0.7742	0.8768	0.7408	0.351
Mof_C 	C 	0.3694	0.5497	0.4104	0.026
Mof_H 	H 	0.38	0.5837	0.4397	0.019
Mof_C 	C 	0.3703	0.5503	0.3331	-0.058
Mof_H 	H 	0.3813	0.5843	0.3077	0.045
Mof_C 	C 	0.4054	0.5115	0.1716	-0.027
Mof_H 	H 	0.4365	0.52	0.2068	0.033
Mof_C 	C 	0.4093	0.4891	0.0954	-0.002
Mof_H 	H 	0.4432	0.482	0.077	0.031
Mof_C 	C 	0.314	0.4842	0.0703	-0.026
Mof_H 	H 	0.2836	0.4741	0.0347	0.037
Mof_C 	C 	0.3105	0.484	0.1501	0.025
Mof_C 	C 	0.2573	0.4686	0.1764	-0.116
Mof_H 	H 	0.2531	0.4877	0.2269	0.042
Mof_H 	H 	0.2277	0.4816	0.1373	0.044
Mof_C 	C 	0.2363	0.378	0.284	-0.405
Mof_H 	H 	0.235	0.3369	0.299	0.139
Mof_H 	H 	0.2624	0.3985	0.3208	0.139
Mof_H 	H 	0.2006	0.3954	0.2851	0.136
Mof_C 	C 	0.3382	0.4546	0.4079	-0.004
Mof_C 	C 	0.3416	0.4513	0.327	-0.065
Mof_H 	H 	0.3241	0.4221	0.4331	0.021
Mof_H 	H 	0.3349	0.4157	0.2996	0.043
Mof_Zn	Zn	0.92035	-5.13937e-33	0.82163	1.224
Mof_Zn	Zn	0.79048	0	0.80086	1.195
Mof_O 	O 	0.85802	0	0.74735	-0.947
Mof_O 	O 	0.8231	0	0.913	-0.508
Mof_O 	O 	0.91108	-1.02787e-32	0.9314	-0.491
Mof_C 	C 	0.8541	0	0.5376	0.414
Mof_C 	C 	0.8533	-2.56968e-33	0.45	-0.094
Mof_C 	C 	0.8547	0	0.2891	0.094
Mof_C 	C 	0.8565	-1.28484e-33	0.2017	-0.011
Mof_C 	C 	0.8641	-3.21211e-34	0.0415	-0.066
Mof_C 	C 	0.8658	0	0.955	0.421
Mof_Zn	Zn	0.42035	0.5	0.82163	1.219
Mof_Zn	Zn	0.29048	0.5	0.80086	1.189
Mof_O 	O 	0.35802	0.5	0.74735	-0.961
Mof_O 	O 	0.3231	0.5	0.913	-0.521
Mof_O 	O 	0.41108	0.5	0.9314	-0.503
Mof_C 	C 	0.3541	0.5	0.5376	0.385
Mof_C 	C 	0.3533	0.5	0.45	-0.127
Mof_C 	C 	0.3547	0.5	0.2891	0.062
Mof_C 	C 	0.3565	0.5	0.2017	-0.035
Mof_C 	C 	0.3641	0.5	0.0415	-0.101
Mof_C 	C 	0.3658	0.5	0.955	0.43
_end
