data_functionalizedCrystal
_audit_creation_method	'EQeq! by Chris Wilmer'
_symmetry_space_group_name_H-M	'P1'
_symmetry_Int_Tables_number	1
_symmetry_cell_setting	triclinic
loop_
_symmetry_equiv_pos_as_xyz
  x,y,z
_cell_length_a	18.335
_cell_length_b	14.628
_cell_length_c	12.383
_cell_angle_alpha	90
_cell_angle_beta	113
_cell_angle_gamma	90
loop_
_atom_site_label
_atom_site_type_symbol
_atom_site_fract_x
_atom_site_fract_y
_atom_site_fract_z
_atom_site_charge
Mof_Ag	Ag	0.24823	0.19769	0.7444	0.786
Mof_Ag	Ag	0.57796	0.69009	0.87602	0.717
Mof_Cr	Cr	0.2906	0.49561	0.4763	2.125
Mof_O 	O 	0.3519	0.4212	0.6135	-0.629
Mof_O 	O 	0.2072	0.4091	0.4655	-0.651
Mof_O 	O 	0.3416	0.3002	0.7169	-0.355
Mof_O 	O 	0.1836	0.2876	0.5593	-0.41
Mof_C 	C 	0.3149	0.3554	0.6332	0.264
Mof_C 	C 	0.2274	0.348	0.5457	0.254
Mof_O 	O 	0.2193	0.5697	0.3436	-0.571
Mof_O 	O 	0.2581	0.5855	0.5672	-0.594
Mof_O 	O 	0.6481	0.804	0.8055	-0.367
Mof_O 	O 	0.6844	0.7898	0.0452	-0.371
Mof_C 	C 	0.1889	0.6401	0.3713	0.281
Mof_C 	C 	0.2105	0.6474	0.506	0.245
Mof_O 	O 	0.6168	0.5708	0.0105	-0.641
Mof_O 	O 	0.3264	0.4219	0.372	-0.652
Mof_O 	O 	0.5257	0.4136	0.5863	-0.366
Mof_O 	O 	0.579	0.5814	0.6989	-0.432
Mof_C 	C 	0.5814	0.5455	0.0756	0.269
Mof_C 	C 	0.3877	0.453	0.3587	0.302
Mof_Cs	Cs	0.5088	0.2154	0.8608	-1.551
Mof_Ag	Ag	0.5771	0.1571	0.8034	0.837
Mof_Ag	Ag	0.541	0.2343	0.9383	1.403
Mof_O 	O 	0.4965	0.7942	0.9049	-0.337
Mof_Ag	Ag	0.74823	0.69769	0.7444	0.785
Mof_Ag	Ag	0.07796	0.19009	0.87602	0.63
Mof_Cr	Cr	0.7906	0.99561	0.4763	2.127
Mof_O 	O 	0.8519	0.9212	0.6135	-0.615
Mof_O 	O 	0.7072	0.9091	0.4655	-0.653
Mof_O 	O 	0.8416	0.8002	0.7169	-0.352
Mof_O 	O 	0.6836	0.7876	0.5593	-0.418
Mof_C 	C 	0.8149	0.8554	0.6332	0.261
Mof_C 	C 	0.7274	0.848	0.5457	0.257
Mof_O 	O 	0.7193	0.0697	0.3436	-0.569
Mof_O 	O 	0.7581	0.0855	0.5672	-0.595
Mof_O 	O 	0.1481	0.304	0.8055	-0.363
Mof_O 	O 	0.1844	0.2898	0.0452	-0.37
Mof_C 	C 	0.6889	0.1401	0.3713	0.284
Mof_C 	C 	0.7105	0.1474	0.506	0.247
Mof_O 	O 	0.1168	0.0708	0.0105	-0.627
Mof_O 	O 	0.8264	0.9219	0.372	-0.652
Mof_O 	O 	0.0257	0.9136	0.5863	-0.384
Mof_O 	O 	0.079	0.0814	0.6989	-0.435
Mof_C 	C 	0.0814	0.0455	0.0756	0.269
Mof_C 	C 	0.8877	0.953	0.3587	0.304
Mof_Cs	Cs	0.0088	0.7154	0.8608	-1.399
Mof_Ag	Ag	0.0771	0.6571	0.8034	0.789
Mof_Ag	Ag	0.041	0.7343	0.9383	1.263
Mof_O 	O 	0.9965	0.2942	0.9049	-0.307
Mof_Ag	Ag	0.75177	0.19769	0.7556	0.783
Mof_Ag	Ag	0.42204	0.69009	0.62398	0.712
Mof_Cr	Cr	0.7094	0.49561	0.0237	2.126
Mof_O 	O 	0.6481	0.4212	0.8865	-0.63
Mof_O 	O 	0.7928	0.4091	0.0345	-0.654
Mof_O 	O 	0.6584	0.3002	0.7831	-0.354
Mof_O 	O 	0.8164	0.2876	0.9407	-0.425
Mof_C 	C 	0.6851	0.3554	0.8668	0.261
Mof_C 	C 	0.7726	0.348	0.9543	0.259
Mof_O 	O 	0.7807	0.5697	0.1564	-0.569
Mof_O 	O 	0.7419	0.5855	0.9328	-0.593
Mof_O 	O 	0.3519	0.804	0.6945	-0.364
Mof_O 	O 	0.3156	0.7898	0.4548	-0.37
Mof_C 	C 	0.8111	0.6401	0.1287	0.283
Mof_C 	C 	0.7895	0.6474	0.994	0.253
Mof_O 	O 	0.3832	0.5708	0.4895	-0.638
Mof_O 	O 	0.6736	0.4219	0.128	-0.652
Mof_O 	O 	0.4743	0.4136	0.9137	-0.367
Mof_O 	O 	0.421	0.5814	0.8011	-0.432
Mof_C 	C 	0.4186	0.5455	0.4244	0.268
Mof_C 	C 	0.6123	0.453	0.1413	0.302
Mof_Cs	Cs	0.4912	0.2154	0.6392	-1.55
Mof_Ag	Ag	0.4229	0.1571	0.6966	0.837
Mof_Ag	Ag	0.459	0.2343	0.5617	1.41
Mof_O 	O 	0.5035	0.7942	0.5951	-0.34
Mof_Ag	Ag	0.25177	0.69769	0.7556	0.787
Mof_Ag	Ag	0.92204	0.19009	0.62398	0.789
Mof_Cr	Cr	0.2094	0.99561	0.0237	2.107
Mof_O 	O 	0.1481	0.9212	0.8865	-0.619
Mof_O 	O 	0.2928	0.9091	0.0345	-0.655
Mof_O 	O 	0.1584	0.8002	0.7831	-0.35
Mof_O 	O 	0.3164	0.7876	0.9407	-0.417
Mof_C 	C 	0.1851	0.8554	0.8668	0.259
Mof_C 	C 	0.2726	0.848	0.9543	0.266
Mof_O 	O 	0.2807	0.0697	0.1564	-0.564
Mof_O 	O 	0.2419	0.0855	0.9328	-0.59
Mof_O 	O 	0.8519	0.304	0.6945	-0.366
Mof_O 	O 	0.8156	0.2898	0.4548	-0.369
Mof_C 	C 	0.3111	0.1401	0.1287	0.294
Mof_C 	C 	0.2895	0.1474	0.994	0.237
Mof_O 	O 	0.8832	0.0708	0.4895	-0.635
Mof_O 	O 	0.1736	0.9219	0.128	-0.648
Mof_O 	O 	0.9743	0.9136	0.9137	-0.32
Mof_O 	O 	0.921	0.0814	0.8011	-0.409
Mof_C 	C 	0.9186	0.0455	0.4244	0.276
Mof_C 	C 	0.1123	0.953	0.1413	0.292
Mof_Cs	Cs	0.9912	0.7154	0.6392	-1.711
Mof_Ag	Ag	0.9229	0.6571	0.6966	0.89
Mof_Ag	Ag	0.959	0.7343	0.5617	1.569
Mof_O 	O 	0.0035	0.2942	0.5951	-0.376
Mof_Ag	Ag	0.75177	0.80231	0.2556	0.783
Mof_Ag	Ag	0.42204	0.30991	0.12398	0.718
Mof_Cr	Cr	0.7094	0.50439	0.5237	2.129
Mof_O 	O 	0.6481	0.5788	0.3865	-0.631
Mof_O 	O 	0.7928	0.5909	0.5345	-0.655
Mof_O 	O 	0.6584	0.6998	0.2831	-0.354
Mof_O 	O 	0.8164	0.7124	0.4407	-0.425
Mof_C 	C 	0.6851	0.6446	0.3668	0.262
Mof_C 	C 	0.7726	0.652	0.4543	0.26
Mof_O 	O 	0.7807	0.4303	0.6564	-0.57
Mof_O 	O 	0.7419	0.4145	0.4328	-0.593
Mof_O 	O 	0.3519	0.196	0.1945	-0.367
Mof_O 	O 	0.3156	0.2102	0.9548	-0.37
Mof_C 	C 	0.8111	0.3599	0.6287	0.288
Mof_C 	C 	0.7895	0.3526	0.494	0.249
Mof_O 	O 	0.3832	0.4292	0.9895	-0.64
Mof_O 	O 	0.6736	0.5781	0.628	-0.653
Mof_O 	O 	0.4743	0.5864	0.4137	-0.366
Mof_O 	O 	0.421	0.4186	0.3011	-0.432
Mof_C 	C 	0.4186	0.4545	0.9244	0.269
Mof_C 	C 	0.6123	0.547	0.6413	0.302
Mof_Cs	Cs	0.4912	0.7846	0.1392	-1.549
Mof_Ag	Ag	0.4229	0.8429	0.1966	0.838
Mof_Ag	Ag	0.459	0.7657	0.0617	1.404
Mof_O 	O 	0.5035	0.2058	0.0951	-0.336
Mof_Ag	Ag	0.25177	0.30231	0.2556	0.787
Mof_Ag	Ag	0.92204	0.80991	0.12398	0.77
Mof_Cr	Cr	0.2094	0.00439	0.5237	2.121
Mof_O 	O 	0.1481	0.0788	0.3865	-0.624
Mof_O 	O 	0.2928	0.0909	0.5345	-0.652
Mof_O 	O 	0.1584	0.1998	0.2831	-0.35
Mof_O 	O 	0.3164	0.2124	0.4407	-0.417
Mof_C 	C 	0.1851	0.1446	0.3668	0.261
Mof_C 	C 	0.2726	0.152	0.4543	0.259
Mof_O 	O 	0.2807	0.9303	0.6564	-0.566
Mof_O 	O 	0.2419	0.9145	0.4328	-0.59
Mof_O 	O 	0.8519	0.696	0.1945	-0.364
Mof_O 	O 	0.8156	0.7102	0.9548	-0.367
Mof_C 	C 	0.3111	0.8599	0.6287	0.285
Mof_C 	C 	0.2895	0.8526	0.494	0.247
Mof_O 	O 	0.8832	0.9292	0.9895	-0.625
Mof_O 	O 	0.1736	0.0781	0.628	-0.649
Mof_O 	O 	0.9743	0.0864	0.4137	-0.323
Mof_O 	O 	0.921	0.9186	0.3011	-0.411
Mof_C 	C 	0.9186	0.9545	0.9244	0.277
Mof_C 	C 	0.1123	0.047	0.6413	0.295
Mof_Cs	Cs	0.9912	0.2846	0.1392	-1.702
Mof_Ag	Ag	0.9229	0.3429	0.1966	0.886
Mof_Ag	Ag	0.959	0.2657	0.0617	1.563
Mof_O 	O 	0.0035	0.7058	0.0951	-0.371
Mof_Ag	Ag	0.24823	0.80231	0.2444	0.786
Mof_Ag	Ag	0.57796	0.30991	0.37602	0.712
Mof_Cr	Cr	0.2906	0.50439	0.9763	2.118
Mof_O 	O 	0.3519	0.5788	0.1135	-0.629
Mof_O 	O 	0.2072	0.5909	0.9655	-0.652
Mof_O 	O 	0.3416	0.6998	0.2169	-0.355
Mof_O 	O 	0.1836	0.7124	0.0593	-0.41
Mof_C 	C 	0.3149	0.6446	0.1332	0.263
Mof_C 	C 	0.2274	0.652	0.0457	0.256
Mof_O 	O 	0.2193	0.4303	0.8436	-0.57
Mof_O 	O 	0.2581	0.4145	0.0672	-0.593
Mof_O 	O 	0.6481	0.196	0.3055	-0.364
Mof_O 	O 	0.6844	0.2102	0.5452	-0.371
Mof_C 	C 	0.1889	0.3599	0.8713	0.275
Mof_C 	C 	0.2105	0.3526	0.006	0.251
Mof_O 	O 	0.6168	0.4292	0.5105	-0.64
Mof_O 	O 	0.3264	0.5781	0.872	-0.65
Mof_O 	O 	0.5257	0.5864	0.0863	-0.366
Mof_O 	O 	0.579	0.4186	0.1989	-0.432
Mof_C 	C 	0.5814	0.4545	0.5756	0.268
Mof_C 	C 	0.3877	0.547	0.8587	0.302
Mof_Cs	Cs	0.5088	0.7846	0.3608	-1.551
Mof_Ag	Ag	0.5771	0.8429	0.3034	0.836
Mof_Ag	Ag	0.541	0.7657	0.4383	1.411
Mof_O 	O 	0.4965	0.2058	0.4049	-0.34
Mof_Ag	Ag	0.74823	0.30231	0.2444	0.786
Mof_Ag	Ag	0.07796	0.80991	0.37602	0.651
Mof_Cr	Cr	0.7906	0.00439	0.9763	2.108
Mof_O 	O 	0.8519	0.0788	0.1135	-0.609
Mof_O 	O 	0.7072	0.0909	0.9655	-0.657
Mof_O 	O 	0.8416	0.1998	0.2169	-0.351
Mof_O 	O 	0.6836	0.2124	0.0593	-0.417
Mof_C 	C 	0.8149	0.1446	0.1332	0.259
Mof_C 	C 	0.7274	0.152	0.0457	0.266
Mof_O 	O 	0.7193	0.9303	0.8436	-0.565
Mof_O 	O 	0.7581	0.9145	0.0672	-0.593
Mof_O 	O 	0.1481	0.696	0.3055	-0.365
Mof_O 	O 	0.1844	0.7102	0.5452	-0.373
Mof_C 	C 	0.6889	0.8599	0.8713	0.292
Mof_C 	C 	0.7105	0.8526	0.006	0.238
Mof_O 	O 	0.1168	0.9292	0.5105	-0.637
Mof_O 	O 	0.8264	0.0781	0.872	-0.65
Mof_O 	O 	0.0257	0.0864	0.0863	-0.381
Mof_O 	O 	0.079	0.9186	0.1989	-0.433
Mof_C 	C 	0.0814	0.9545	0.5756	0.269
Mof_C 	C 	0.8877	0.047	0.8587	0.3
Mof_Cs	Cs	0.0088	0.2846	0.3608	-1.407
Mof_Ag	Ag	0.0771	0.3429	0.3034	0.794
Mof_Ag	Ag	0.041	0.2657	0.4383	1.269
Mof_O 	O 	0.9965	0.7058	0.4049	-0.309
Mof_Ag	Ag	0.5	0.46413	0.75	0.88
Mof_Ag	Ag	3.71871e-17	0.96413	0.75	0.785
Mof_Ag	Ag	0.5	0.53587	0.25	0.88
Mof_Ag	Ag	-9.29678e-18	0.03587	0.25	0.788
_end
