data_functionalizedCrystal
_audit_creation_method	'EQeq! by Chris Wilmer'
_symmetry_space_group_name_H-M	'P1'
_symmetry_Int_Tables_number	1
_symmetry_cell_setting	triclinic
loop_
_symmetry_equiv_pos_as_xyz
  x,y,z
_cell_length_a	13.352
_cell_length_b	13.352
_cell_length_c	14.414
_cell_angle_alpha	90
_cell_angle_beta	90
_cell_angle_gamma	120
loop_
_atom_site_label
_atom_site_type_symbol
_atom_site_fract_x
_atom_site_fract_y
_atom_site_fract_z
_atom_site_charge
Mof_Tb	Tb	0.33333	0.66666	0.1676	2.296
Mof_Tb	Tb	0.66667	0.33334	0.3324	2.295
Mof_Tb	Tb	0.66667	0.33334	0.8324	2.302
Mof_Tb	Tb	0.33333	0.66666	0.6676	2.302
Mof_Cu	Cu	0.5	0.5	-0	0.902
Mof_Cu	Cu	-0	0.5	-0	0.87
Mof_Cu	Cu	0.5	0	-0	0.872
Mof_Cu	Cu	3.60694e-17	0.5	0.5	0.898
Mof_Cu	Cu	0.5	0.5	0.5	0.929
Mof_Cu	Cu	0.5	-1.13434e-32	0.5	0.899
Mof_H 	H 	0.9761	0.3268	0.4212	0.156
Mof_H 	H 	0.0854	0.3988	0.3056	0.124
Mof_H 	H 	0.1936	0.4597	0.3709	0.157
Mof_H 	H 	0.1388	0.3188	0.4772	0.102
Mof_H 	H 	0.0398	0.292	0.5488	0.084
Mof_H 	H 	0.3507	0.0239	0.4212	0.035
Mof_H 	H 	0.3134	0.9146	0.3056	0.166
Mof_H 	H 	0.2661	0.8064	0.3709	0.162
Mof_H 	H 	0.18	0.8612	0.4772	0.122
Mof_H 	H 	0.2522	0.9602	0.5488	0.143
Mof_H 	H 	0.6732	0.6493	0.4212	0.099
Mof_H 	H 	0.6012	0.6866	0.3056	0.157
Mof_H 	H 	0.5403	0.7339	0.3709	0.168
Mof_H 	H 	0.6812	0.82	0.4772	0.141
Mof_H 	H 	0.708	0.7478	0.5488	0.135
Mof_H 	H 	0.6493	0.6732	0.0788	0.098
Mof_H 	H 	0.6866	0.6012	0.1944	0.153
Mof_H 	H 	0.7339	0.5403	0.1291	0.156
Mof_H 	H 	0.82	0.6812	0.0228	0.042
Mof_H 	H 	0.7478	0.708	0.9512	0.088
Mof_H 	H 	0.3268	0.9761	0.0788	0.153
Mof_H 	H 	0.3988	0.0854	0.1944	0.121
Mof_H 	H 	0.4597	0.1936	0.1291	0.144
Mof_H 	H 	0.3188	0.1388	0.0228	-0.002
Mof_H 	H 	0.292	0.0398	0.9512	0.036
Mof_H 	H 	0.0239	0.3507	0.0788	0.031
Mof_H 	H 	0.9146	0.3134	0.1944	0.164
Mof_H 	H 	0.8064	0.2661	0.1291	0.149
Mof_H 	H 	0.8612	0.18	0.0228	0.023
Mof_H 	H 	0.9602	0.2522	0.9512	0.097
Mof_H 	H 	0.0239	0.6732	0.5788	0.036
Mof_H 	H 	0.9146	0.6012	0.6944	0.175
Mof_H 	H 	0.8064	0.5403	0.6291	0.167
Mof_H 	H 	0.8612	0.6812	0.5228	0.142
Mof_H 	H 	0.9602	0.708	0.4512	0.158
Mof_H 	H 	0.6493	0.9761	0.5788	0.156
Mof_H 	H 	0.6866	0.0854	0.6944	0.133
Mof_H 	H 	0.7339	0.1936	0.6291	0.163
Mof_H 	H 	0.82	0.1388	0.5228	0.123
Mof_H 	H 	0.7478	0.0398	0.4512	0.099
Mof_H 	H 	0.3268	0.3507	0.5788	0.092
Mof_H 	H 	0.3988	0.3134	0.6944	0.144
Mof_H 	H 	0.4597	0.2661	0.6291	0.158
Mof_H 	H 	0.3188	0.18	0.5228	0.104
Mof_H 	H 	0.292	0.2522	0.4512	0.106
Mof_H 	H 	0.3507	0.3268	0.9212	0.094
Mof_H 	H 	0.3134	0.3988	0.8056	0.146
Mof_H 	H 	0.2661	0.4597	0.8709	0.17
Mof_H 	H 	0.18	0.3188	0.9772	0.208
Mof_H 	H 	0.2522	0.292	0.0488	0.156
Mof_H 	H 	0.6732	0.0239	0.9212	0.043
Mof_H 	H 	0.6012	0.9146	0.8056	0.176
Mof_H 	H 	0.5403	0.8064	0.8709	0.179
Mof_H 	H 	0.6812	0.8612	0.9772	0.238
Mof_H 	H 	0.708	0.9602	0.0488	0.203
Mof_H 	H 	0.9761	0.6493	0.9212	0.16
Mof_H 	H 	0.0854	0.6866	0.8056	0.134
Mof_H 	H 	0.1936	0.7339	0.8709	0.174
Mof_H 	H 	0.1388	0.82	0.9772	0.222
Mof_H 	H 	0.0398	0.7478	0.0488	0.144
Mof_C 	C 	0.1264	0.5622	0.3398	0.497
Mof_C 	C 	0.117	0.4483	0.3596	-0.383
Mof_C 	C 	0.1838	0.4534	0.5697	0.379
Mof_C 	C 	0.0982	0.3516	0.5095	-0.268
Mof_C 	C 	0.4358	0.8736	0.3398	0.511
Mof_C 	C 	0.3313	0.883	0.3596	-0.399
Mof_C 	C 	0.2696	0.8162	0.5697	0.401
Mof_C 	C 	0.2534	0.9018	0.5095	-0.301
Mof_C 	C 	0.4378	0.5642	0.3398	0.508
Mof_C 	C 	0.5517	0.6687	0.3596	-0.4
Mof_C 	C 	0.5466	0.7304	0.5697	0.398
Mof_C 	C 	0.6484	0.7466	0.5095	-0.305
Mof_C 	C 	0.5642	0.4378	0.1602	0.5
Mof_C 	C 	0.6687	0.5517	0.1404	-0.391
Mof_C 	C 	0.7304	0.5466	0.9303	0.352
Mof_C 	C 	0.7466	0.6484	0.9905	-0.105
Mof_C 	C 	0.5622	0.1264	0.1602	0.489
Mof_C 	C 	0.4483	0.117	0.1404	-0.373
Mof_C 	C 	0.4534	0.1838	0.9303	0.331
Mof_C 	C 	0.3516	0.0982	0.9905	-0.058
Mof_C 	C 	0.8736	0.4358	0.1602	0.504
Mof_C 	C 	0.883	0.3313	0.1404	-0.39
Mof_C 	C 	0.8162	0.2696	0.9303	0.356
Mof_C 	C 	0.9018	0.2534	0.9905	-0.102
Mof_C 	C 	0.8736	0.4378	0.6602	0.514
Mof_C 	C 	0.883	0.5517	0.6404	-0.405
Mof_C 	C 	0.8162	0.5466	0.4303	0.406
Mof_C 	C 	0.9018	0.6484	0.4905	-0.314
Mof_C 	C 	0.5642	0.1264	0.6602	0.5
Mof_C 	C 	0.6687	0.117	0.6404	-0.389
Mof_C 	C 	0.7304	0.1838	0.4303	0.385
Mof_C 	C 	0.7466	0.0982	0.4905	-0.281
Mof_C 	C 	0.5622	0.4358	0.6602	0.504
Mof_C 	C 	0.4483	0.3313	0.6404	-0.393
Mof_C 	C 	0.4534	0.2696	0.4303	0.388
Mof_C 	C 	0.3516	0.2534	0.4905	-0.281
Mof_C 	C 	0.4358	0.5622	0.8398	0.511
Mof_C 	C 	0.3313	0.4483	0.8596	-0.398
Mof_C 	C 	0.2696	0.4534	0.0697	0.436
Mof_C 	C 	0.2534	0.3516	0.0095	-0.487
Mof_C 	C 	0.4378	0.8736	0.8398	0.519
Mof_C 	C 	0.5517	0.883	0.8596	-0.409
Mof_C 	C 	0.5466	0.8162	0.0697	0.451
Mof_C 	C 	0.6484	0.9018	0.0095	-0.507
Mof_C 	C 	0.1264	0.5642	0.8398	0.505
Mof_C 	C 	0.117	0.6687	0.8596	-0.394
Mof_C 	C 	0.1838	0.7304	0.0697	0.431
Mof_C 	C 	0.0982	0.7466	0.0095	-0.479
Mof_N 	N 	0.042	0.3898	0.4414	-0.214
Mof_N 	N 	0.3478	0.958	0.4414	-0.098
Mof_N 	N 	0.6102	0.6522	0.4414	-0.154
Mof_N 	N 	0.6522	0.6102	0.0586	-0.202
Mof_N 	N 	0.3898	0.042	0.0586	-0.262
Mof_N 	N 	0.958	0.3478	0.0586	-0.143
Mof_N 	N 	0.958	0.6102	0.5586	-0.093
Mof_N 	N 	0.6522	0.042	0.5586	-0.208
Mof_N 	N 	0.3898	0.3478	0.5586	-0.158
Mof_N 	N 	0.3478	0.3898	0.9414	-0.102
Mof_N 	N 	0.6102	0.958	0.9414	-0.045
Mof_N 	N 	0.042	0.6522	0.9414	-0.155
Mof_O 	O 	0.1842	0.6188	0.2713	-0.56
Mof_O 	O 	0.0745	0.5981	0.3923	-0.456
Mof_O 	O 	0.1887	0.5494	0.5586	-0.542
Mof_O 	O 	0.2447	0.4389	0.6276	-0.409
Mof_O 	O 	0.4346	0.8158	0.2713	-0.546
Mof_O 	O 	0.5236	0.9255	0.3923	-0.402
Mof_O 	O 	0.3607	0.8113	0.5586	-0.532
Mof_O 	O 	0.1942	0.7553	0.6276	-0.411
Mof_O 	O 	0.3812	0.5654	0.2713	-0.556
Mof_O 	O 	0.4019	0.4764	0.3923	-0.437
Mof_O 	O 	0.4506	0.6393	0.5586	-0.541
Mof_O 	O 	0.5611	0.8058	0.6276	-0.397
Mof_O 	O 	0.5654	0.3812	0.2287	-0.557
Mof_O 	O 	0.4764	0.4019	0.1077	-0.446
Mof_O 	O 	0.6393	0.4506	0.9414	-0.508
Mof_O 	O 	0.8058	0.5611	0.8724	-0.376
Mof_O 	O 	0.6188	0.1842	0.2287	-0.56
Mof_O 	O 	0.5981	0.0745	0.1077	-0.463
Mof_O 	O 	0.5494	0.1887	0.9414	-0.508
Mof_O 	O 	0.4389	0.2447	0.8724	-0.387
Mof_O 	O 	0.8158	0.4346	0.2287	-0.547
Mof_O 	O 	0.9255	0.5236	0.1077	-0.408
Mof_O 	O 	0.8113	0.3607	0.9414	-0.499
Mof_O 	O 	0.7553	0.1942	0.8724	-0.389
Mof_O 	O 	0.8158	0.3812	0.7287	-0.55
Mof_O 	O 	0.9255	0.4019	0.6077	-0.402
Mof_O 	O 	0.8113	0.4506	0.4414	-0.532
Mof_O 	O 	0.7553	0.5611	0.3724	-0.403
Mof_O 	O 	0.5654	0.1842	0.7287	-0.563
Mof_O 	O 	0.4764	0.0745	0.6077	-0.456
Mof_O 	O 	0.6393	0.1887	0.4414	-0.542
Mof_O 	O 	0.8058	0.2447	0.3724	-0.4
Mof_O 	O 	0.6188	0.4346	0.7287	-0.554
Mof_O 	O 	0.5981	0.5236	0.6077	-0.432
Mof_O 	O 	0.5494	0.3607	0.4414	-0.539
Mof_O 	O 	0.4389	0.1942	0.3724	-0.414
Mof_O 	O 	0.4346	0.6188	0.7713	-0.553
Mof_O 	O 	0.5236	0.5981	0.8923	-0.414
Mof_O 	O 	0.3607	0.5494	0.0586	-0.567
Mof_O 	O 	0.1942	0.4389	0.1276	-0.435
Mof_O 	O 	0.3812	0.8158	0.7713	-0.549
Mof_O 	O 	0.4019	0.9255	0.8923	-0.387
Mof_O 	O 	0.4506	0.8113	0.0586	-0.559
Mof_O 	O 	0.5611	0.7553	0.1276	-0.423
Mof_O 	O 	0.1842	0.5654	0.7713	-0.562
Mof_O 	O 	0.0745	0.4764	0.8923	-0.438
Mof_O 	O 	0.1887	0.6393	0.0586	-0.57
Mof_O 	O 	0.2447	0.8058	0.1276	-0.421
_end
