data_functionalizedCrystal
_audit_creation_method	'EQeq! by Chris Wilmer'
_symmetry_space_group_name_H-M	'P1'
_symmetry_Int_Tables_number	1
_symmetry_cell_setting	triclinic
loop_
_symmetry_equiv_pos_as_xyz
  x,y,z
_cell_length_a	9.917
_cell_length_b	8.7409
_cell_length_c	22.499
_cell_angle_alpha	90
_cell_angle_beta	107.43
_cell_angle_gamma	90
loop_
_atom_site_label
_atom_site_type_symbol
_atom_site_fract_x
_atom_site_fract_y
_atom_site_fract_z
_atom_site_charge
Mof_C 	C 	0.8309	0.5154	0.27731	0.077
Mof_H 	H 	0.7416	0.5537	0.2569	-0.037
Mof_C 	C 	0.896	0.5629	0.33689	-0.155
Mof_H 	H 	0.8513	0.6318	0.3563	0.082
Mof_C 	C 	0.0293	0.5073	0.36812	0.05
Mof_C 	C 	0.0904	0.4047	0.33735	-0.149
Mof_H 	H 	0.1795	0.3642	0.3568	0.075
Mof_C 	C 	0.0177	0.3635	0.27772	0.074
Mof_H 	H 	0.06	0.2945	0.2573	-0.03
Mof_C 	C 	0.5691	0.2273	0.55716	0.077
Mof_H 	H 	0.5981	0.1474	0.5366	-0.028
Mof_C 	C 	0.4531	0.3104	0.52532	-0.14
Mof_H 	H 	0.4053	0.2872	0.484	0.079
Mof_C 	C 	0.4077	0.4293	0.55511	0.063
Mof_C 	C 	0.4827	0.4592	0.61641	-0.148
Mof_H 	H 	0.4557	0.5381	0.6382	0.078
Mof_C 	C 	0.5983	0.3696	0.64455	0.084
Mof_H 	H 	0.6482	0.3904	0.6858	-0.031
Mof_C 	C 	0.0496	0.9682	0.6342	0.078
Mof_H 	H 	0.0994	0.0111	0.6722	-0.023
Mof_C 	C 	0.1191	0.8664	0.60714	-0.139
Mof_H 	H 	0.2124	0.8393	0.6271	0.076
Mof_C 	C 	0.0474	0.805	0.54967	0.064
Mof_C 	C 	0.9094	0.8507	0.52211	-0.134
Mof_H 	H 	0.8592	0.8143	0.4829	0.087
Mof_C 	C 	0.8474	0.9498	0.55297	0.078
Mof_H 	H 	0.7538	0.9775	0.5342	-0.024
Mof_C 	C 	0.1021	0.5523	0.43321	0.083
Mof_C 	C 	0.2806	0.5165	0.52141	0.093
Mof_C 	C 	0.1122	0.6898	0.51893	0.095
Mof_Cu	Cu	0.80144	0.38069	0.15691	0.834
Mof_N 	N 	0.8892	0.4169	0.24703	-0.259
Mof_N 	N 	0.6432	0.2554	0.61653	-0.261
Mof_N 	N 	0.9148	0.0091	0.60904	-0.249
Mof_N 	N 	0.0422	0.6577	0.45964	-0.143
Mof_N 	N 	0.2221	0.4792	0.46175	-0.14
Mof_N 	N 	0.2306	0.6215	0.55228	-0.142
Mof_C 	C 	0.8309	0.9846	0.77731	0.079
Mof_H 	H 	0.7416	0.9463	0.7569	-0.036
Mof_C 	C 	0.896	0.9371	0.83689	-0.152
Mof_H 	H 	0.8513	0.8682	0.8563	0.082
Mof_C 	C 	0.0293	0.9927	0.86812	0.049
Mof_C 	C 	0.0904	0.0953	0.83735	-0.146
Mof_H 	H 	0.1795	0.1358	0.8568	0.074
Mof_C 	C 	0.0177	0.1365	0.77772	0.075
Mof_H 	H 	0.06	0.2055	0.7573	-0.03
Mof_C 	C 	0.5691	0.2727	0.05716	0.078
Mof_H 	H 	0.5981	0.3526	0.0366	-0.028
Mof_C 	C 	0.4531	0.1896	0.02532	-0.141
Mof_H 	H 	0.4053	0.2128	0.984	0.079
Mof_C 	C 	0.4077	0.0707	0.05511	0.064
Mof_C 	C 	0.4827	0.0408	0.11641	-0.149
Mof_H 	H 	0.4557	0.9619	0.1382	0.078
Mof_C 	C 	0.5983	0.1304	0.14455	0.085
Mof_H 	H 	0.6482	0.1096	0.1858	-0.031
Mof_C 	C 	0.0496	0.5318	0.1342	0.08
Mof_H 	H 	0.0994	0.4889	0.1722	-0.024
Mof_C 	C 	0.1191	0.6336	0.10714	-0.14
Mof_H 	H 	0.2124	0.6607	0.1271	0.077
Mof_C 	C 	0.0474	0.695	0.04967	0.063
Mof_C 	C 	0.9094	0.6493	0.02211	-0.133
Mof_H 	H 	0.8592	0.6857	0.9829	0.086
Mof_C 	C 	0.8474	0.5502	0.05297	0.076
Mof_H 	H 	0.7538	0.5225	0.0342	-0.024
Mof_C 	C 	0.1021	0.9477	0.93321	0.083
Mof_C 	C 	0.2806	0.9835	0.02141	0.091
Mof_C 	C 	0.1122	0.8102	0.01893	0.095
Mof_Cu	Cu	0.80144	0.11931	0.65691	0.834
Mof_N 	N 	0.8892	0.0831	0.74703	-0.26
Mof_N 	N 	0.6432	0.2446	0.11653	-0.261
Mof_N 	N 	0.9148	0.4909	0.10904	-0.248
Mof_N 	N 	0.0422	0.8423	0.95964	-0.143
Mof_N 	N 	0.2221	0.0208	0.96175	-0.139
Mof_N 	N 	0.2306	0.8785	0.05228	-0.141
Mof_C 	C 	0.1691	0.0154	0.22269	0.079
Mof_H 	H 	0.2584	0.0537	0.2431	-0.036
Mof_C 	C 	0.104	0.0629	0.16311	-0.152
Mof_H 	H 	0.1487	0.1318	0.1437	0.082
Mof_C 	C 	0.9707	0.0073	0.13188	0.049
Mof_C 	C 	0.9096	0.9047	0.16265	-0.146
Mof_H 	H 	0.8205	0.8642	0.1432	0.074
Mof_C 	C 	0.9823	0.8635	0.22228	0.075
Mof_H 	H 	0.94	0.7945	0.2427	-0.03
Mof_C 	C 	0.4309	0.7273	0.94284	0.078
Mof_H 	H 	0.4019	0.6474	0.9634	-0.028
Mof_C 	C 	0.5469	0.8104	0.97468	-0.141
Mof_H 	H 	0.5947	0.7872	0.016	0.079
Mof_C 	C 	0.5923	0.9293	0.94489	0.064
Mof_C 	C 	0.5173	0.9592	0.88359	-0.149
Mof_H 	H 	0.5443	0.0381	0.8618	0.078
Mof_C 	C 	0.4017	0.8696	0.85545	0.085
Mof_H 	H 	0.3518	0.8904	0.8142	-0.031
Mof_C 	C 	0.9504	0.4682	0.8658	0.08
Mof_H 	H 	0.9006	0.5111	0.8278	-0.024
Mof_C 	C 	0.8809	0.3664	0.89286	-0.14
Mof_H 	H 	0.7876	0.3393	0.8729	0.077
Mof_C 	C 	0.9526	0.305	0.95033	0.063
Mof_C 	C 	0.0906	0.3507	0.97789	-0.133
Mof_H 	H 	0.1408	0.3143	0.0171	0.086
Mof_C 	C 	0.1526	0.4498	0.94703	0.076
Mof_H 	H 	0.2462	0.4775	0.9658	-0.024
Mof_C 	C 	0.8979	0.0523	0.06679	0.083
Mof_C 	C 	0.7194	0.0165	0.97859	0.091
Mof_C 	C 	0.8878	0.1898	0.98107	0.095
Mof_Cu	Cu	0.19856	0.88069	0.34309	0.834
Mof_N 	N 	0.1108	0.9169	0.25297	-0.26
Mof_N 	N 	0.3568	0.7554	0.88347	-0.261
Mof_N 	N 	0.0852	0.5091	0.89096	-0.248
Mof_N 	N 	0.9578	0.1577	0.04036	-0.143
Mof_N 	N 	0.7779	0.9792	0.03825	-0.139
Mof_N 	N 	0.7694	0.1215	0.94772	-0.141
Mof_C 	C 	0.1691	0.4846	0.72269	0.078
Mof_H 	H 	0.2584	0.4463	0.7431	-0.036
Mof_C 	C 	0.104	0.4371	0.66311	-0.154
Mof_H 	H 	0.1487	0.3682	0.6437	0.083
Mof_C 	C 	0.9707	0.4927	0.63188	0.051
Mof_C 	C 	0.9096	0.5953	0.66265	-0.148
Mof_H 	H 	0.8205	0.6358	0.6432	0.075
Mof_C 	C 	0.9823	0.6365	0.72228	0.074
Mof_H 	H 	0.94	0.7055	0.7427	-0.03
Mof_C 	C 	0.4309	0.7727	0.44284	0.077
Mof_H 	H 	0.4019	0.8526	0.4634	-0.028
Mof_C 	C 	0.5469	0.6896	0.47468	-0.14
Mof_H 	H 	0.5947	0.7128	0.516	0.079
Mof_C 	C 	0.5923	0.5707	0.44489	0.063
Mof_C 	C 	0.5173	0.5408	0.38359	-0.148
Mof_H 	H 	0.5443	0.4619	0.3618	0.078
Mof_C 	C 	0.4017	0.6304	0.35545	0.084
Mof_H 	H 	0.3518	0.6096	0.3142	-0.031
Mof_C 	C 	0.9504	0.0318	0.3658	0.078
Mof_H 	H 	0.9006	0.9889	0.3278	-0.023
Mof_C 	C 	0.8809	0.1336	0.39286	-0.139
Mof_H 	H 	0.7876	0.1607	0.3729	0.076
Mof_C 	C 	0.9526	0.195	0.45033	0.064
Mof_C 	C 	0.0906	0.1493	0.47789	-0.134
Mof_H 	H 	0.1408	0.1857	0.5171	0.087
Mof_C 	C 	0.1526	0.0502	0.44703	0.078
Mof_H 	H 	0.2462	0.0225	0.4658	-0.024
Mof_C 	C 	0.8979	0.4477	0.56679	0.083
Mof_C 	C 	0.7194	0.4835	0.47859	0.093
Mof_C 	C 	0.8878	0.3102	0.48107	0.095
Mof_Cu	Cu	0.19856	0.61931	0.84309	0.834
Mof_N 	N 	0.1108	0.5831	0.75297	-0.259
Mof_N 	N 	0.3568	0.7446	0.38347	-0.261
Mof_N 	N 	0.0852	0.9909	0.39096	-0.249
Mof_N 	N 	0.9578	0.3423	0.54036	-0.143
Mof_N 	N 	0.7779	0.5208	0.53825	-0.14
Mof_N 	N 	0.7694	0.3785	0.44772	-0.142
_end
