data_functionalizedCrystal
_audit_creation_method	'EQeq! by Chris Wilmer'
_symmetry_space_group_name_H-M	'P1'
_symmetry_Int_Tables_number	1
_symmetry_cell_setting	triclinic
loop_
_symmetry_equiv_pos_as_xyz
  x,y,z
_cell_length_a	10.1663
_cell_length_b	14.2604
_cell_length_c	10.5637
_cell_angle_alpha	91.803
_cell_angle_beta	90
_cell_angle_gamma	90
loop_
_atom_site_label
_atom_site_type_symbol
_atom_site_fract_x
_atom_site_fract_y
_atom_site_fract_z
_atom_site_charge
Mof_Cu	Cu	0.84576	0.00098	0.23643	0.878
Mof_Cu	Cu	0.50224	0.89868	0.47432	0.923
Mof_Cu	Cu	0.34576	0.99902	0.26357	0.947
Mof_Cu	Cu	0.00224	0.10132	0.02568	0.792
Mof_Cu	Cu	0.15424	0.99902	0.76357	0.95
Mof_Cu	Cu	0.49776	0.10132	0.52568	0.883
Mof_Cu	Cu	0.65424	0.00098	0.73643	0.885
Mof_Cu	Cu	0.99776	0.89868	0.97432	0.989
Mof_Cu	Cu	5.02469e-33	0.5	0.5	0.916
Mof_Cu	Cu	0.5	0.5	-0	0.9
Mof_Cu	Cu	-0	0.5	-0	0.848
Mof_Cu	Cu	0.5	0.5	0.5	0.942
Mof_Cu	Cu	9.01868e-34	0	0.5	0.841
Mof_Cu	Cu	0.5	0	-0	0.824
Mof_H 	H 	0.876	0.686	0.349	0.006
Mof_H 	H 	0.065	0.739	0.193	0.118
Mof_H 	H 	0.237	0.682	0.289	0.047
Mof_H 	H 	0.175	0.719	0.539	0.058
Mof_H 	H 	0.831	0.996	0.019	0.754
Mof_H 	H 	0.819	0.065	0.42	0.583
Mof_H 	H 	0.376	0.314	0.151	0.014
Mof_H 	H 	0.565	0.261	0.307	0.101
Mof_H 	H 	0.737	0.318	0.211	0.085
Mof_H 	H 	0.675	0.281	0.961	0.178
Mof_H 	H 	0.331	0.004	0.481	0.785
Mof_H 	H 	0.319	0.935	0.08	0.524
Mof_H 	H 	0.124	0.314	0.651	0.076
Mof_H 	H 	0.935	0.261	0.807	0.058
Mof_H 	H 	0.763	0.318	0.711	0.139
Mof_H 	H 	0.825	0.281	0.461	0.051
Mof_H 	H 	0.169	0.004	0.981	0.836
Mof_H 	H 	0.181	0.935	0.58	0.555
Mof_H 	H 	0.624	0.686	0.849	0.068
Mof_H 	H 	0.435	0.739	0.693	0.076
Mof_H 	H 	0.263	0.682	0.789	0.102
Mof_H 	H 	0.325	0.719	0.039	-0.07
Mof_H 	H 	0.669	0.996	0.519	0.806
Mof_H 	H 	0.681	0.065	0.92	0.609
Mof_C 	C 	0.9725	0.66703	0.3359	0.155
Mof_C 	C 	0.0578	0.74402	0.2797	-0.374
Mof_C 	C 	0.1923	0.72372	0.3385	-0.043
Mof_C 	C 	0.1618	0.67577	0.4631	-0.032
Mof_C 	C 	0.9822	0.57448	0.259	0.393
Mof_C 	C 	0.9996	0.83943	0.3201	0.595
Mof_C 	C 	0.2825	0.80878	0.3531	0.345
Mof_C 	C 	0.2437	0.58662	0.4825	0.329
Mof_C 	C 	0.4725	0.33297	0.1641	0.007
Mof_C 	C 	0.5578	0.25598	0.2203	-0.168
Mof_C 	C 	0.6923	0.27628	0.1615	-0.084
Mof_C 	C 	0.6618	0.32423	0.0369	-0.14
Mof_C 	C 	0.4822	0.42552	0.241	0.321
Mof_C 	C 	0.4996	0.16057	0.1799	0.396
Mof_C 	C 	0.7825	0.19122	0.1469	0.351
Mof_C 	C 	0.7437	0.41338	0.0175	0.21
Mof_C 	C 	0.0275	0.33297	0.6641	-0.176
Mof_C 	C 	0.9422	0.25598	0.7203	0.114
Mof_C 	C 	0.8077	0.27628	0.6615	-0.218
Mof_C 	C 	0.8382	0.32423	0.5369	0.01
Mof_C 	C 	0.0178	0.42552	0.741	0.255
Mof_C 	C 	0.0004	0.16057	0.6799	0.154
Mof_C 	C 	0.7175	0.19122	0.6469	0.404
Mof_C 	C 	0.7563	0.41338	0.5175	0.321
Mof_C 	C 	0.5275	0.66703	0.8359	-0.028
Mof_C 	C 	0.4422	0.74402	0.7797	-0.093
Mof_C 	C 	0.3077	0.72372	0.8385	-0.177
Mof_C 	C 	0.3382	0.67577	0.9631	0.119
Mof_C 	C 	0.5178	0.57448	0.759	0.325
Mof_C 	C 	0.5004	0.83943	0.8201	0.357
Mof_C 	C 	0.2175	0.80878	0.8531	0.396
Mof_C 	C 	0.2563	0.58662	0.9825	0.44
Mof_O 	O 	0.02175	0.65634	0.46267	-0.308
Mof_O 	O 	0.01536	0.50084	0.3132	-0.466
Mof_O 	O 	0.95555	0.58129	0.144	-0.386
Mof_O 	O 	0.92538	0.87536	0.23954	-0.482
Mof_O 	O 	0.02636	0.8709	0.42901	-0.518
Mof_O 	O 	0.2726	0.86919	0.26964	-0.468
Mof_O 	O 	0.36102	0.80984	0.44555	-0.432
Mof_O 	O 	0.36329	0.59443	0.4641	-0.377
Mof_O 	O 	0.18788	0.51302	0.5194	-0.401
Mof_O 	O 	0.88367	0.99391	0.05254	-1.257
Mof_O 	O 	0.83338	0.01864	0.41882	-1.092
Mof_O 	O 	0.52175	0.34366	0.03733	-0.26
Mof_O 	O 	0.51536	0.49916	0.1868	-0.388
Mof_O 	O 	0.45555	0.41871	0.356	-0.387
Mof_O 	O 	0.42538	0.12464	0.26046	-0.509
Mof_O 	O 	0.52636	0.1291	0.07099	-0.501
Mof_O 	O 	0.7726	0.13081	0.23036	-0.475
Mof_O 	O 	0.86102	0.19016	0.05445	-0.46
Mof_O 	O 	0.86329	0.40557	0.0359	-0.343
Mof_O 	O 	0.68788	0.48698	0.9806	-0.242
Mof_O 	O 	0.38367	0.00609	0.44746	-1.414
Mof_O 	O 	0.33338	0.98136	0.08118	-1.019
Mof_O 	O 	0.97825	0.34366	0.53733	-0.155
Mof_O 	O 	0.98464	0.49916	0.6868	-0.27
Mof_O 	O 	0.04445	0.41871	0.856	-0.337
Mof_O 	O 	0.07462	0.12464	0.76046	-0.427
Mof_O 	O 	0.97364	0.1291	0.57099	-0.321
Mof_O 	O 	0.7274	0.13081	0.73036	-0.466
Mof_O 	O 	0.63898	0.19016	0.55445	-0.464
Mof_O 	O 	0.63671	0.40557	0.5359	-0.368
Mof_O 	O 	0.81212	0.48698	0.4806	-0.361
Mof_O 	O 	0.11633	0.00609	0.94746	-1.416
Mof_O 	O 	0.16662	0.98136	0.58118	-0.997
Mof_O 	O 	0.47825	0.65634	0.96267	-0.203
Mof_O 	O 	0.48464	0.50084	0.8132	-0.34
Mof_O 	O 	0.54445	0.58129	0.644	-0.377
Mof_O 	O 	0.57462	0.87536	0.73954	-0.411
Mof_O 	O 	0.47364	0.8709	0.92901	-0.343
Mof_O 	O 	0.2274	0.86919	0.76964	-0.459
Mof_O 	O 	0.13898	0.80984	0.94555	-0.428
Mof_O 	O 	0.13671	0.59443	0.9641	-0.363
Mof_O 	O 	0.31212	0.51302	0.0194	-0.514
Mof_O 	O 	0.61633	0.99391	0.55254	-1.282
Mof_O 	O 	0.66662	0.01864	0.91882	-1.054
_end
