data_functionalizedCrystal
_audit_creation_method	'EQeq! by Chris Wilmer'
_symmetry_space_group_name_H-M	'P1'
_symmetry_Int_Tables_number	1
_symmetry_cell_setting	triclinic
loop_
_symmetry_equiv_pos_as_xyz
  x,y,z
_cell_length_a	8.79
_cell_length_b	23.6997
_cell_length_c	25.2853
_cell_angle_alpha	85.4157
_cell_angle_beta	79.9902
_cell_angle_gamma	79.3129
loop_
_atom_site_label
_atom_site_type_symbol
_atom_site_fract_x
_atom_site_fract_y
_atom_site_fract_z
_atom_site_charge
Mof_K 	K 	0.68711	0.48755	0.04743	3.167
Mof_K 	K 	0.72209	0.01245	0.45257	3.168
Mof_K 	K 	0.31289	0.51245	0.95257	3.167
Mof_K 	K 	0.27791	0.98755	0.54743	3.168
Mof_Cu	Cu	0.72293	0.50987	0.54969	0.865
Mof_Cu	Cu	0.28249	0.99013	0.95031	0.864
Mof_Cu	Cu	0.27707	0.49013	0.45031	0.866
Mof_Cu	Cu	0.71751	0.00987	0.04969	0.865
Mof_H 	H 	0.8442	0.3986	0.7224	0.066
Mof_H 	H 	0.9591	0.3312	0.6514	0.074
Mof_H 	H 	0.0985	0.3574	0.4392	0.066
Mof_H 	H 	0.002	0.4282	0.3714	0.057
Mof_H 	H 	0.5048	0.5996	0.3834	0.062
Mof_H 	H 	0.3635	0.6619	0.4543	0.064
Mof_H 	H 	0.4387	0.6824	0.6562	0.054
Mof_H 	H 	0.5617	0.6177	0.7227	0.045
Mof_H 	H 	0.875	0.5604	0.7418	0.119
Mof_H 	H 	0.8752	0.5597	0.8333	-0.032
Mof_H 	H 	0.5547	0.4559	0.8587	-0.16
Mof_H 	H 	0.5523	0.4578	0.7678	0.114
Mof_H 	H 	0.2381	0.3349	0.5737	0.176
Mof_H 	H 	0.3678	0.241	0.5792	-0.045
Mof_H 	H 	0.0205	0.1873	0.5261	-0.107
Mof_H 	H 	0.8936	0.2818	0.5178	0.176
Mof_H 	H 	0.455	0.113	0.565	1.599
Mof_H 	H 	0.7111	0.4356	0.3474	0.1
Mof_H 	H 	0.7284	0.4379	0.2543	-0.013
Mof_H 	H 	0.8253	0.597	0.2454	0.006
Mof_H 	H 	0.7992	0.5958	0.3382	0.101
Mof_H 	H 	0.873	0.54	0.12	0.013
Mof_H 	H 	0.5032	0.7384	0.5064	0.141
Mof_H 	H 	0.3467	0.8269	0.5097	-0.058
Mof_H 	H 	0.0196	0.7611	0.6139	-0.029
Mof_H 	H 	0.1839	0.6711	0.6091	0.117
Mof_H 	H 	0.4652	0.1014	0.7776	0.066
Mof_H 	H 	0.4417	0.1688	0.8486	0.074
Mof_H 	H 	0.3951	0.1426	0.0608	0.067
Mof_H 	H 	0.3016	0.0718	0.1286	0.056
Mof_H 	H 	0.9878	0.9004	0.1166	0.06
Mof_H 	H 	0.9797	0.8381	0.0457	0.06
Mof_H 	H 	0.2773	0.8176	0.8438	0.054
Mof_H 	H 	0.4021	0.8823	0.7773	0.045
Mof_H 	H 	0.6772	0.9396	0.7582	0.119
Mof_H 	H 	0.7682	0.9403	0.6667	-0.032
Mof_H 	H 	0.3693	0.0441	0.6413	-0.16
Mof_H 	H 	0.2779	0.0422	0.7322	0.113
Mof_H 	H 	0.6467	0.1651	0.9263	0.178
Mof_H 	H 	0.688	0.259	0.9208	-0.045
Mof_H 	H 	0.2339	0.3127	0.9739	-0.109
Mof_H 	H 	0.1932	0.2182	0.9822	0.179
Mof_H 	H 	0.633	0.387	0.935	1.6
Mof_H 	H 	0.9941	0.0644	0.1526	0.092
Mof_H 	H 	0.9206	0.0621	0.2457	-0.006
Mof_H 	H 	0.1677	0.903	0.2546	0.011
Mof_H 	H 	0.2332	0.9042	0.1618	0.098
Mof_H 	H 	0.033	0.96	0.38	0.013
Mof_H 	H 	0.248	0.7616	0.9936	0.141
Mof_H 	H 	0.1833	0.6731	0.9903	-0.058
Mof_H 	H 	0.8946	0.7389	0.8861	-0.03
Mof_H 	H 	0.9641	0.8289	0.8909	0.119
Mof_H 	H 	0.1558	0.6014	0.2776	0.066
Mof_H 	H 	0.0409	0.6688	0.3486	0.074
Mof_H 	H 	0.9015	0.6426	0.5608	0.066
Mof_H 	H 	0.998	0.5718	0.6286	0.057
Mof_H 	H 	0.4952	0.4004	0.6166	0.062
Mof_H 	H 	0.6365	0.3381	0.5457	0.064
Mof_H 	H 	0.5613	0.3176	0.3438	0.054
Mof_H 	H 	0.4383	0.3823	0.2773	0.045
Mof_H 	H 	0.125	0.4396	0.2582	0.119
Mof_H 	H 	0.1248	0.4403	0.1667	-0.032
Mof_H 	H 	0.4453	0.5441	0.1413	-0.16
Mof_H 	H 	0.4477	0.5422	0.2322	0.114
Mof_H 	H 	0.7619	0.6651	0.4263	0.176
Mof_H 	H 	0.6322	0.759	0.4208	-0.045
Mof_H 	H 	0.9795	0.8127	0.4739	-0.107
Mof_H 	H 	0.1064	0.7182	0.4822	0.176
Mof_H 	H 	0.545	0.887	0.435	1.599
Mof_H 	H 	0.2889	0.5644	0.6526	0.1
Mof_H 	H 	0.2716	0.5621	0.7457	-0.013
Mof_H 	H 	0.1747	0.403	0.7546	0.006
Mof_H 	H 	0.2008	0.4042	0.6618	0.101
Mof_H 	H 	0.127	0.46	0.88	0.013
Mof_H 	H 	0.4968	0.2616	0.4936	0.141
Mof_H 	H 	0.6533	0.1731	0.4903	-0.058
Mof_H 	H 	0.9804	0.2389	0.3861	-0.029
Mof_H 	H 	0.8161	0.3289	0.3909	0.117
Mof_H 	H 	0.5348	0.8986	0.2224	0.066
Mof_H 	H 	0.5583	0.8312	0.1514	0.074
Mof_H 	H 	0.6049	0.8574	0.9392	0.067
Mof_H 	H 	0.6984	0.9282	0.8714	0.056
Mof_H 	H 	0.0122	0.0996	0.8834	0.06
Mof_H 	H 	0.0203	0.1619	0.9543	0.06
Mof_H 	H 	0.7227	0.1824	0.1562	0.054
Mof_H 	H 	0.5979	0.1177	0.2227	0.045
Mof_H 	H 	0.3228	0.0604	0.2418	0.119
Mof_H 	H 	0.2318	0.0597	0.3333	-0.032
Mof_H 	H 	0.6307	0.9559	0.3587	-0.16
Mof_H 	H 	0.7221	0.9578	0.2678	0.113
Mof_H 	H 	0.3533	0.8349	0.0737	0.178
Mof_H 	H 	0.312	0.741	0.0792	-0.045
Mof_H 	H 	0.7661	0.6873	0.0261	-0.109
Mof_H 	H 	0.8068	0.7818	0.0178	0.179
Mof_H 	H 	0.367	0.613	0.065	1.6
Mof_H 	H 	0.0059	0.9356	0.8474	0.092
Mof_H 	H 	0.0794	0.9379	0.7543	-0.006
Mof_H 	H 	0.8323	0.097	0.7454	0.011
Mof_H 	H 	0.7668	0.0958	0.8382	0.098
Mof_H 	H 	0.967	0.04	0.62	0.013
Mof_H 	H 	0.752	0.2384	0.0064	0.141
Mof_H 	H 	0.8167	0.3269	0.0097	-0.058
Mof_H 	H 	0.1054	0.2611	0.1139	-0.03
Mof_H 	H 	0.0359	0.1711	0.1091	0.119
Mof_C 	C 	0.6426	0.5583	0.6595	0.106
Mof_C 	C 	0.7143	0.5091	0.6857	-0.161
Mof_C 	C 	0.7826	0.4591	0.6593	0.109
Mof_C 	C 	0.8468	0.406	0.6856	-0.076
Mof_C 	C 	0.9113	0.3693	0.6465	-0.103
Mof_C 	C 	0.8931	0.3994	0.5956	0.135
Mof_C 	C 	0.9581	0.3783	0.5467	-0.21
Mof_C 	C 	0.9404	0.4084	0.4978	0.115
Mof_C 	C 	0.0222	0.3899	0.4457	-0.117
Mof_C 	C 	0.9681	0.4283	0.4083	-0.09
Mof_C 	C 	0.847	0.47	0.4368	0.093
Mof_C 	C 	0.7467	0.5133	0.4125	-0.149
Mof_C 	C 	0.6356	0.5543	0.4413	0.083
Mof_C 	C 	0.5217	0.5967	0.4189	-0.103
Mof_C 	C 	0.4445	0.6311	0.4577	-0.091
Mof_C 	C 	0.5102	0.6118	0.5058	0.106
Mof_C 	C 	0.4708	0.6383	0.5541	-0.169
Mof_C 	C 	0.5303	0.6167	0.6003	0.107
Mof_C 	C 	0.4967	0.6458	0.6506	-0.094
Mof_C 	C 	0.5641	0.6105	0.6869	-0.081
Mof_C 	C 	0.7133	0.509	0.7444	0.184
Mof_C 	C 	0.8102	0.5394	0.7652	-0.258
Mof_C 	C 	0.8114	0.5387	0.8203	0.187
Mof_C 	C 	0.7181	0.5071	0.8551	-0.313
Mof_C 	C 	0.6194	0.4769	0.8351	0.172
Mof_C 	C 	0.6182	0.4781	0.7805	-0.258
Mof_C 	C 	0.7215	0.5049	0.9145	0.409
Mof_C 	C 	0.0524	0.318	0.546	0.3
Mof_C 	C 	0.1938	0.3054	0.5638	-0.413
Mof_C 	C 	0.2716	0.2491	0.5671	0.4
Mof_C 	C 	0.2074	0.2051	0.5527	-0.548
Mof_C 	C 	0.0654	0.2171	0.5351	0.39
Mof_C 	C 	0.9884	0.2736	0.5308	-0.396
Mof_C 	C 	0.287	0.1439	0.5563	1.192
Mof_C 	C 	0.7561	0.5148	0.3528	0.146
Mof_C 	C 	0.734	0.4682	0.327	-0.204
Mof_C 	C 	0.7451	0.4693	0.2709	0.112
Mof_C 	C 	0.7812	0.5175	0.2409	-0.191
Mof_C 	C 	0.8017	0.5645	0.2659	0.111
Mof_C 	C 	0.7875	0.5635	0.3217	-0.197
Mof_C 	C 	0.7942	0.5163	0.1809	0.416
Mof_C 	C 	0.3623	0.6952	0.5568	0.197
Mof_C 	C 	0.4055	0.7424	0.5282	-0.278
Mof_C 	C 	0.3124	0.7958	0.5298	0.195
Mof_C 	C 	0.1672	0.8026	0.562	-0.289
Mof_C 	C 	0.1171	0.7568	0.592	0.167
Mof_C 	C 	0.217	0.7024	0.589	-0.257
Mof_C 	C 	0.0661	0.8605	0.5623	0.468
Mof_C 	C 	0.3604	0.9417	0.8405	0.106
Mof_C 	C 	0.4091	0.9909	0.8143	-0.162
Mof_C 	C 	0.401	0.0409	0.8407	0.11
Mof_C 	C 	0.4384	0.094	0.8144	-0.077
Mof_C 	C 	0.4271	0.1307	0.8535	-0.104
Mof_C 	C 	0.3881	0.1006	0.9044	0.135
Mof_C 	C 	0.3831	0.1217	0.9533	-0.212
Mof_C 	C 	0.3466	0.0916	0.0022	0.115
Mof_C 	C 	0.3578	0.1101	0.0543	-0.119
Mof_C 	C 	0.3047	0.0717	0.0917	-0.087
Mof_C 	C 	0.2538	0.03	0.0632	0.09
Mof_C 	C 	0.1725	0.9867	0.0875	-0.142
Mof_C 	C 	0.1312	0.9457	0.0587	0.081
Mof_C 	C 	0.0373	0.9033	0.0811	-0.101
Mof_C 	C 	0.0333	0.8689	0.0423	-0.084
Mof_C 	C 	0.1278	0.8882	0.9942	0.1
Mof_C 	C 	0.1632	0.8617	0.9459	-0.168
Mof_C 	C 	0.2473	0.8833	0.8997	0.106
Mof_C 	C 	0.2931	0.8542	0.8494	-0.094
Mof_C 	C 	0.3615	0.8895	0.8131	-0.081
Mof_C 	C 	0.4667	0.991	0.7556	0.183
Mof_C 	C 	0.6148	0.9606	0.7348	-0.258
Mof_C 	C 	0.6704	0.9613	0.6797	0.187
Mof_C 	C 	0.5803	0.9929	0.6449	-0.313
Mof_C 	C 	0.4314	0.0231	0.6649	0.172
Mof_C 	C 	0.3768	0.0219	0.7195	-0.256
Mof_C 	C 	0.6409	0.9951	0.5855	0.409
Mof_C 	C 	0.4164	0.182	0.954	0.307
Mof_C 	C 	0.563	0.1946	0.9362	-0.417
Mof_C 	C 	0.5878	0.2509	0.9329	0.404
Mof_C 	C 	0.4652	0.2949	0.9473	-0.551
Mof_C 	C 	0.3176	0.2829	0.9649	0.397
Mof_C 	C 	0.2928	0.2264	0.9692	-0.404
Mof_C 	C 	0.4872	0.3561	0.9437	1.194
Mof_C 	C 	0.1237	0.9852	0.1472	0.137
Mof_C 	C 	0.0292	0.0318	0.173	-0.185
Mof_C 	C 	0.9853	0.0307	0.2291	0.092
Mof_C 	C 	0.0396	0.9825	0.2591	-0.176
Mof_C 	C 	0.1321	0.9355	0.2341	0.1
Mof_C 	C 	0.1727	0.9365	0.1783	-0.186
Mof_C 	C 	0.9914	0.9837	0.3191	0.41
Mof_C 	C 	0.1143	0.8048	0.9432	0.198
Mof_C 	C 	0.1761	0.7576	0.9718	-0.279
Mof_C 	C 	0.138	0.7042	0.9702	0.197
Mof_C 	C 	0.0318	0.6974	0.938	-0.291
Mof_C 	C 	0.9659	0.7432	0.908	0.17
Mof_C 	C 	0.0084	0.7976	0.911	-0.261
Mof_C 	C 	0.9889	0.6395	0.9377	0.47
Mof_C 	C 	0.3574	0.4417	0.3405	0.106
Mof_C 	C 	0.2857	0.4909	0.3143	-0.161
Mof_C 	C 	0.2174	0.5409	0.3407	0.109
Mof_C 	C 	0.1532	0.594	0.3144	-0.076
Mof_C 	C 	0.0887	0.6307	0.3535	-0.103
Mof_C 	C 	0.1069	0.6006	0.4044	0.135
Mof_C 	C 	0.0419	0.6217	0.4533	-0.21
Mof_C 	C 	0.0596	0.5916	0.5022	0.115
Mof_C 	C 	0.9778	0.6101	0.5543	-0.117
Mof_C 	C 	0.0319	0.5717	0.5917	-0.09
Mof_C 	C 	0.153	0.53	0.5632	0.093
Mof_C 	C 	0.2533	0.4867	0.5875	-0.149
Mof_C 	C 	0.3644	0.4457	0.5587	0.083
Mof_C 	C 	0.4783	0.4033	0.5811	-0.103
Mof_C 	C 	0.5555	0.3689	0.5423	-0.091
Mof_C 	C 	0.4898	0.3882	0.4942	0.106
Mof_C 	C 	0.5292	0.3617	0.4459	-0.169
Mof_C 	C 	0.4697	0.3833	0.3997	0.107
Mof_C 	C 	0.5033	0.3542	0.3494	-0.094
Mof_C 	C 	0.4359	0.3895	0.3131	-0.081
Mof_C 	C 	0.2867	0.491	0.2556	0.184
Mof_C 	C 	0.1898	0.4606	0.2348	-0.258
Mof_C 	C 	0.1886	0.4613	0.1797	0.187
Mof_C 	C 	0.2819	0.4929	0.1449	-0.313
Mof_C 	C 	0.3806	0.5231	0.1649	0.172
Mof_C 	C 	0.3818	0.5219	0.2195	-0.258
Mof_C 	C 	0.2785	0.4951	0.0855	0.409
Mof_C 	C 	0.9476	0.682	0.454	0.3
Mof_C 	C 	0.8062	0.6946	0.4362	-0.413
Mof_C 	C 	0.7284	0.7509	0.4329	0.4
Mof_C 	C 	0.7926	0.7949	0.4473	-0.548
Mof_C 	C 	0.9346	0.7829	0.4649	0.39
Mof_C 	C 	0.0116	0.7264	0.4692	-0.396
Mof_C 	C 	0.713	0.8561	0.4437	1.192
Mof_C 	C 	0.2439	0.4852	0.6472	0.146
Mof_C 	C 	0.266	0.5318	0.673	-0.204
Mof_C 	C 	0.2549	0.5307	0.7291	0.112
Mof_C 	C 	0.2188	0.4825	0.7591	-0.191
Mof_C 	C 	0.1983	0.4355	0.7341	0.111
Mof_C 	C 	0.2125	0.4365	0.6783	-0.197
Mof_C 	C 	0.2058	0.4837	0.8191	0.416
Mof_C 	C 	0.6377	0.3048	0.4432	0.197
Mof_C 	C 	0.5945	0.2576	0.4718	-0.278
Mof_C 	C 	0.6876	0.2042	0.4702	0.195
Mof_C 	C 	0.8328	0.1974	0.438	-0.289
Mof_C 	C 	0.8829	0.2432	0.408	0.167
Mof_C 	C 	0.783	0.2976	0.411	-0.257
Mof_C 	C 	0.9339	0.1395	0.4377	0.468
Mof_C 	C 	0.6396	0.0583	0.1595	0.106
Mof_C 	C 	0.5909	0.0091	0.1857	-0.162
Mof_C 	C 	0.599	0.9591	0.1593	0.11
Mof_C 	C 	0.5616	0.906	0.1856	-0.077
Mof_C 	C 	0.5729	0.8693	0.1465	-0.104
Mof_C 	C 	0.6119	0.8994	0.0956	0.135
Mof_C 	C 	0.6169	0.8783	0.0467	-0.212
Mof_C 	C 	0.6534	0.9084	0.9978	0.115
Mof_C 	C 	0.6422	0.8899	0.9457	-0.119
Mof_C 	C 	0.6953	0.9283	0.9083	-0.087
Mof_C 	C 	0.7462	0.97	0.9368	0.09
Mof_C 	C 	0.8275	0.0133	0.9125	-0.142
Mof_C 	C 	0.8688	0.0543	0.9413	0.081
Mof_C 	C 	0.9627	0.0967	0.9189	-0.101
Mof_C 	C 	0.9667	0.1311	0.9577	-0.084
Mof_C 	C 	0.8722	0.1118	0.0058	0.1
Mof_C 	C 	0.8368	0.1383	0.0541	-0.168
Mof_C 	C 	0.7527	0.1167	0.1003	0.106
Mof_C 	C 	0.7069	0.1458	0.1506	-0.094
Mof_C 	C 	0.6385	0.1105	0.1869	-0.081
Mof_C 	C 	0.5333	0.009	0.2444	0.183
Mof_C 	C 	0.3852	0.0394	0.2652	-0.258
Mof_C 	C 	0.3296	0.0387	0.3203	0.187
Mof_C 	C 	0.4197	0.0071	0.3551	-0.313
Mof_C 	C 	0.5686	0.9769	0.3351	0.172
Mof_C 	C 	0.6232	0.9781	0.2805	-0.256
Mof_C 	C 	0.3591	0.0049	0.4145	0.409
Mof_C 	C 	0.5836	0.818	0.046	0.307
Mof_C 	C 	0.437	0.8054	0.0638	-0.417
Mof_C 	C 	0.4122	0.7491	0.0671	0.404
Mof_C 	C 	0.5348	0.7051	0.0527	-0.551
Mof_C 	C 	0.6824	0.7171	0.0351	0.397
Mof_C 	C 	0.7072	0.7736	0.0308	-0.404
Mof_C 	C 	0.5128	0.6439	0.0563	1.194
Mof_C 	C 	0.8763	0.0148	0.8528	0.137
Mof_C 	C 	0.9708	0.9682	0.827	-0.185
Mof_C 	C 	0.0147	0.9693	0.7709	0.092
Mof_C 	C 	0.9604	0.0175	0.7409	-0.176
Mof_C 	C 	0.8679	0.0645	0.7659	0.1
Mof_C 	C 	0.8273	0.0635	0.8217	-0.186
Mof_C 	C 	0.0086	0.0163	0.6809	0.41
Mof_C 	C 	0.8857	0.1952	0.0568	0.198
Mof_C 	C 	0.8239	0.2424	0.0282	-0.279
Mof_C 	C 	0.862	0.2958	0.0298	0.197
Mof_C 	C 	0.9682	0.3026	0.062	-0.291
Mof_C 	C 	0.0341	0.2568	0.092	0.17
Mof_C 	C 	0.9916	0.2024	0.089	-0.261
Mof_C 	C 	0.0111	0.3605	0.0623	0.47
Mof_N 	N 	0.80855	0.45385	0.60405	-0.251
Mof_N 	N 	0.83759	0.45921	0.49141	-0.252
Mof_N 	N 	0.62236	0.56274	0.49574	-0.248
Mof_N 	N 	0.62383	0.56377	0.60677	-0.248
Mof_N 	N 	0.36645	0.04615	0.89595	-0.251
Mof_N 	N 	0.28821	0.04079	0.00859	-0.251
Mof_N 	N 	0.18084	0.93726	0.00426	-0.245
Mof_N 	N 	0.29437	0.93623	0.89323	-0.248
Mof_N 	N 	0.19145	0.54615	0.39595	-0.251
Mof_N 	N 	0.16241	0.54079	0.50859	-0.252
Mof_N 	N 	0.37764	0.43726	0.50426	-0.248
Mof_N 	N 	0.37617	0.43623	0.39323	-0.248
Mof_N 	N 	0.63355	0.95385	0.10405	-0.251
Mof_N 	N 	0.71179	0.95921	0.99141	-0.251
Mof_N 	N 	0.81916	0.06274	0.99574	-0.245
Mof_N 	N 	0.70563	0.06377	0.10677	-0.248
Mof_O 	O 	0.79742	0.53676	0.932	-0.524
Mof_O 	O 	0.64393	0.47142	0.94472	-0.955
Mof_O 	O 	0.2206	0.1038	0.5534	-0.934
Mof_O 	O 	0.4321	0.1373	0.5635	-2.29
Mof_O 	O 	0.7725	0.4774	0.1582	-0.566
Mof_O 	O 	0.8385	0.5626	0.1556	-0.341
Mof_O 	O 	0.11199	0.90123	0.53639	-0.674
Mof_O 	O 	0.92541	0.86344	0.58994	-0.316
Mof_O 	O 	0.76618	0.96324	0.568	-0.525
Mof_O 	O 	0.56007	0.02858	0.55528	-0.955
Mof_O 	O 	0.3778	0.3962	0.9466	-0.934
Mof_O 	O 	0.6329	0.3627	0.9365	-2.29
Mof_O 	O 	0.9081	0.0226	0.3418	-0.565
Mof_O 	O 	0.0567	0.9374	0.3444	-0.339
Mof_O 	O 	0.04961	0.59877	0.96361	-0.674
Mof_O 	O 	0.87879	0.63656	0.91006	-0.316
Mof_O 	O 	0.20258	0.46324	0.068	-0.524
Mof_O 	O 	0.35607	0.52858	0.05528	-0.955
Mof_O 	O 	0.7794	0.8962	0.4466	-0.934
Mof_O 	O 	0.5679	0.8627	0.4365	-2.29
Mof_O 	O 	0.2275	0.5226	0.8418	-0.566
Mof_O 	O 	0.1615	0.4374	0.8444	-0.341
Mof_O 	O 	0.88801	0.09877	0.46361	-0.674
Mof_O 	O 	0.07459	0.13656	0.41006	-0.316
Mof_O 	O 	0.23382	0.03676	0.432	-0.525
Mof_O 	O 	0.43993	0.97142	0.44472	-0.955
Mof_O 	O 	0.6222	0.6038	0.0534	-0.934
Mof_O 	O 	0.3671	0.6373	0.0635	-2.29
Mof_O 	O 	0.0919	0.9774	0.6582	-0.565
Mof_O 	O 	0.9433	0.0626	0.6556	-0.339
Mof_O 	O 	0.95039	0.40123	0.03639	-0.674
Mof_O 	O 	0.12121	0.36344	0.08994	-0.316
_end
