data_functionalizedCrystal
_audit_creation_method	'EQeq! by Chris Wilmer'
_symmetry_space_group_name_H-M	'P1'
_symmetry_Int_Tables_number	1
_symmetry_cell_setting	triclinic
loop_
_symmetry_equiv_pos_as_xyz
  x,y,z
_cell_length_a	20.862
_cell_length_b	19.682
_cell_length_c	6.089
_cell_angle_alpha	90
_cell_angle_beta	114.271
_cell_angle_gamma	90
loop_
_atom_site_label
_atom_site_type_symbol
_atom_site_fract_x
_atom_site_fract_y
_atom_site_fract_z
_atom_site_charge
Mof_N 	N 	0.6116	0.047	0.141	-0.29
Mof_H 	H 	0.6263	0.0615	0.294	0.076
Mof_H 	H 	0.6432	0.0176	0.1296	0.068
Mof_N 	N 	0.6509	0.2021	0.854	-0.255
Mof_H 	H 	0.6167	0.2298	0.855	0.086
Mof_H 	H 	0.6399	0.1875	0.7024	0.072
Mof_N 	N 	0.8543	0.1974	0.635	-0.288
Mof_H 	H 	0.8885	0.2263	0.6414	0.094
Mof_H 	H 	0.8655	0.1798	0.7823	0.091
Mof_N 	N 	0.9104	0.0578	0.379	-0.269
Mof_H 	H 	0.9048	0.0786	0.2407	0.071
Mof_H 	H 	0.8728	0.0309	0.3489	0.069
Mof_C 	C 	0.5982	0.1032	0.973	0.065
Mof_H 	H 	0.5621	0.1322	0.9849	-0.017
Mof_H 	H 	0.5807	0.0856	0.8103	-0.039
Mof_C 	C 	0.6636	0.1444	0.025	-0.148
Mof_H 	H 	0.6809	0.162	0.1877	0.01
Mof_H 	H 	0.6997	0.1152	0.0145	0.02
Mof_C 	C 	0.8447	0.144	0.459	-0.01
Mof_H 	H 	0.8347	0.1627	0.3007	-0.024
Mof_H 	H 	0.8073	0.1132	0.4481	-0.012
Mof_C 	C 	0.9153	0.1093	0.564	-0.074
Mof_H 	H 	0.953	0.1414	0.5876	0.033
Mof_H 	H 	0.9235	0.0879	0.7163	0.015
Mof_N 	N 	0.1116	0.547	0.141	-0.295
Mof_H 	H 	0.1263	0.5615	0.294	0.081
Mof_H 	H 	0.1432	0.5176	0.1296	0.081
Mof_N 	N 	0.1509	0.7021	0.854	-0.253
Mof_H 	H 	0.1167	0.7298	0.855	0.082
Mof_H 	H 	0.1399	0.6875	0.7024	0.071
Mof_N 	N 	0.3543	0.6974	0.635	-0.284
Mof_H 	H 	0.3885	0.7263	0.6414	0.088
Mof_H 	H 	0.3655	0.6798	0.7823	0.087
Mof_N 	N 	0.4104	0.5578	0.379	-0.29
Mof_H 	H 	0.4048	0.5786	0.2407	0.067
Mof_H 	H 	0.3728	0.5309	0.3489	0.077
Mof_C 	C 	0.0982	0.6032	0.973	0.077
Mof_H 	H 	0.0621	0.6322	0.9849	-0.028
Mof_H 	H 	0.0807	0.5856	0.8103	-0.043
Mof_C 	C 	0.1636	0.6444	0.025	-0.156
Mof_H 	H 	0.1809	0.662	0.1877	0.013
Mof_H 	H 	0.1997	0.6152	0.0145	0.026
Mof_C 	C 	0.3447	0.644	0.459	-0.023
Mof_H 	H 	0.3347	0.6627	0.3007	-0.02
Mof_H 	H 	0.3073	0.6132	0.4481	-0.005
Mof_C 	C 	0.4153	0.6093	0.564	-0.055
Mof_H 	H 	0.453	0.6414	0.5876	0.011
Mof_H 	H 	0.4235	0.5879	0.7163	-0.004
Mof_N 	N 	0.3884	0.047	0.359	-0.266
Mof_H 	H 	0.3737	0.0615	0.206	0.064
Mof_H 	H 	0.3568	0.0176	0.3704	0.066
Mof_N 	N 	0.3491	0.2021	0.646	-0.292
Mof_H 	H 	0.3833	0.2298	0.645	0.088
Mof_H 	H 	0.3601	0.1875	0.7976	0.086
Mof_N 	N 	0.1457	0.1974	0.865	-0.245
Mof_H 	H 	0.1115	0.2263	0.8586	0.081
Mof_H 	H 	0.1345	0.1798	0.7177	0.071
Mof_N 	N 	0.0896	0.0578	0.121	-0.301
Mof_H 	H 	0.0952	0.0786	0.2593	0.071
Mof_H 	H 	0.1272	0.0309	0.1511	0.07
Mof_C 	C 	0.4018	0.1032	0.527	-0.046
Mof_H 	H 	0.4379	0.1322	0.5151	0.004
Mof_H 	H 	0.4193	0.0856	0.6897	-0.004
Mof_C 	C 	0.3364	0.1444	0.475	-0.041
Mof_H 	H 	0.3191	0.162	0.3123	-0.018
Mof_H 	H 	0.3003	0.1152	0.4855	-0.002
Mof_C 	C 	0.1553	0.144	0.041	-0.132
Mof_H 	H 	0.1653	0.1627	0.1993	0.009
Mof_H 	H 	0.1927	0.1132	0.0519	0.017
Mof_C 	C 	0.0847	0.1093	0.936	0.054
Mof_H 	H 	0.047	0.1414	0.9124	-0.022
Mof_H 	H 	0.0765	0.0879	0.7837	-0.042
Mof_N 	N 	0.8884	0.547	0.359	-0.261
Mof_H 	H 	0.8737	0.5615	0.206	0.074
Mof_H 	H 	0.8568	0.5176	0.3704	0.082
Mof_N 	N 	0.8491	0.7021	0.646	-0.295
Mof_H 	H 	0.8833	0.7298	0.645	0.095
Mof_H 	H 	0.8601	0.6875	0.7976	0.091
Mof_N 	N 	0.6457	0.6974	0.865	-0.247
Mof_H 	H 	0.6115	0.7263	0.8586	0.086
Mof_H 	H 	0.6345	0.6798	0.7177	0.074
Mof_N 	N 	0.5896	0.5578	0.121	-0.312
Mof_H 	H 	0.5952	0.5786	0.2593	0.076
Mof_H 	H 	0.6272	0.5309	0.1511	0.08
Mof_C 	C 	0.9018	0.6032	0.527	-0.053
Mof_H 	H 	0.9379	0.6322	0.5151	0.018
Mof_H 	H 	0.9193	0.5856	0.6897	0.012
Mof_C 	C 	0.8364	0.6444	0.475	-0.035
Mof_H 	H 	0.8191	0.662	0.3123	-0.019
Mof_H 	H 	0.8003	0.6152	0.4855	-0
Mof_C 	C 	0.6553	0.644	0.041	-0.134
Mof_H 	H 	0.6653	0.6627	0.1993	0.011
Mof_H 	H 	0.6927	0.6132	0.0519	0.021
Mof_C 	C 	0.5847	0.6093	0.936	0.058
Mof_H 	H 	0.547	0.6414	0.9124	-0.015
Mof_H 	H 	0.5765	0.5879	0.7837	-0.042
Mof_N 	N 	0.3884	0.953	0.859	-0.236
Mof_H 	H 	0.3737	0.9385	0.706	0.087
Mof_H 	H 	0.3568	0.9824	0.8704	0.103
Mof_N 	N 	0.3491	0.7979	0.146	-0.306
Mof_H 	H 	0.3833	0.7702	0.145	0.081
Mof_H 	H 	0.3601	0.8125	0.2976	0.08
Mof_N 	N 	0.1457	0.8026	0.365	-0.274
Mof_H 	H 	0.1115	0.7737	0.3586	0.075
Mof_H 	H 	0.1345	0.8202	0.2177	0.069
Mof_N 	N 	0.0896	0.9422	0.621	-0.284
Mof_H 	H 	0.0952	0.9214	0.7593	0.091
Mof_H 	H 	0.1272	0.9691	0.6511	0.103
Mof_C 	C 	0.4018	0.8968	0.027	-0.132
Mof_H 	H 	0.4379	0.8678	0.0151	0.024
Mof_H 	H 	0.4193	0.9144	0.1897	0.024
Mof_C 	C 	0.3364	0.8556	0.975	0.049
Mof_H 	H 	0.3191	0.838	0.8123	-0.036
Mof_H 	H 	0.3003	0.8848	0.9855	-0.008
Mof_C 	C 	0.1553	0.856	0.541	-0.046
Mof_H 	H 	0.1653	0.8373	0.6993	-0.003
Mof_H 	H 	0.1927	0.8868	0.5519	0.009
Mof_C 	C 	0.0847	0.8907	0.436	-0.033
Mof_H 	H 	0.047	0.8586	0.4124	-0.004
Mof_H 	H 	0.0765	0.9121	0.2837	-0.008
Mof_N 	N 	0.8884	0.453	0.859	-0.233
Mof_H 	H 	0.8737	0.4385	0.706	0.08
Mof_H 	H 	0.8568	0.4824	0.8704	0.088
Mof_N 	N 	0.8491	0.2979	0.146	-0.309
Mof_H 	H 	0.8833	0.2702	0.145	0.087
Mof_H 	H 	0.8601	0.3125	0.2976	0.082
Mof_N 	N 	0.6457	0.3026	0.365	-0.276
Mof_H 	H 	0.6115	0.2737	0.3586	0.079
Mof_H 	H 	0.6345	0.3202	0.2177	0.069
Mof_N 	N 	0.5896	0.4422	0.621	-0.298
Mof_H 	H 	0.5952	0.4214	0.7593	0.084
Mof_H 	H 	0.6272	0.4691	0.6511	0.087
Mof_C 	C 	0.9018	0.3968	0.027	-0.142
Mof_H 	H 	0.9379	0.3678	0.0151	0.035
Mof_H 	H 	0.9193	0.4144	0.1897	0.027
Mof_C 	C 	0.8364	0.3556	0.975	0.056
Mof_H 	H 	0.8191	0.338	0.8123	-0.038
Mof_H 	H 	0.8003	0.3848	0.9855	-0.015
Mof_C 	C 	0.6553	0.356	0.541	-0.042
Mof_H 	H 	0.6653	0.3373	0.6993	-0.005
Mof_H 	H 	0.6927	0.3868	0.5519	0.003
Mof_C 	C 	0.5847	0.3907	0.436	-0.035
Mof_H 	H 	0.547	0.3586	0.4124	0.002
Mof_H 	H 	0.5765	0.4121	0.2837	-0.021
Mof_N 	N 	0.6116	0.953	0.641	-0.272
Mof_H 	H 	0.6263	0.9385	0.794	0.1
Mof_H 	H 	0.6432	0.9824	0.6296	0.104
Mof_N 	N 	0.6509	0.7979	0.354	-0.285
Mof_H 	H 	0.6167	0.7702	0.355	0.08
Mof_H 	H 	0.6399	0.8125	0.2024	0.071
Mof_N 	N 	0.8543	0.8026	0.135	-0.304
Mof_H 	H 	0.8885	0.7737	0.1414	0.087
Mof_H 	H 	0.8655	0.8202	0.2823	0.086
Mof_N 	N 	0.9104	0.9422	0.879	-0.237
Mof_H 	H 	0.9048	0.9214	0.7407	0.087
Mof_H 	H 	0.8728	0.9691	0.8489	0.1
Mof_C 	C 	0.5982	0.8968	0.473	-0.023
Mof_H 	H 	0.5621	0.8678	0.4849	0.001
Mof_H 	H 	0.5807	0.9144	0.3103	-0.006
Mof_C 	C 	0.6636	0.8556	0.525	-0.063
Mof_H 	H 	0.6809	0.838	0.6877	-0.001
Mof_H 	H 	0.6997	0.8848	0.5145	0.013
Mof_C 	C 	0.8447	0.856	0.959	0.077
Mof_H 	H 	0.8347	0.8373	0.8007	-0.042
Mof_H 	H 	0.8073	0.8868	0.9481	-0.019
Mof_C 	C 	0.9153	0.8907	0.064	-0.156
Mof_H 	H 	0.953	0.8586	0.0876	0.051
Mof_H 	H 	0.9235	0.9121	0.2163	0.041
Mof_N 	N 	0.1116	0.453	0.641	-0.278
Mof_H 	H 	0.1263	0.4385	0.794	0.089
Mof_H 	H 	0.1432	0.4824	0.6296	0.088
Mof_N 	N 	0.1509	0.2979	0.354	-0.282
Mof_H 	H 	0.1167	0.2702	0.355	0.075
Mof_H 	H 	0.1399	0.3125	0.2024	0.066
Mof_N 	N 	0.3543	0.3026	0.135	-0.301
Mof_H 	H 	0.3885	0.2737	0.1414	0.08
Mof_H 	H 	0.3655	0.3202	0.2823	0.08
Mof_N 	N 	0.4104	0.4422	0.879	-0.259
Mof_H 	H 	0.4048	0.4214	0.7407	0.072
Mof_H 	H 	0.3728	0.4691	0.8489	0.083
Mof_C 	C 	0.0982	0.3968	0.473	-0.015
Mof_H 	H 	0.0621	0.3678	0.4849	-0.013
Mof_H 	H 	0.0807	0.4144	0.3103	-0.023
Mof_C 	C 	0.1636	0.3556	0.525	-0.069
Mof_H 	H 	0.1809	0.338	0.6877	-0.001
Mof_H 	H 	0.1997	0.3848	0.5145	0.01
Mof_C 	C 	0.3447	0.356	0.959	0.073
Mof_H 	H 	0.3347	0.3373	0.8007	-0.042
Mof_H 	H 	0.3073	0.3868	0.9481	-0.022
Mof_C 	C 	0.4153	0.3907	0.064	-0.146
Mof_H 	H 	0.453	0.3586	0.0876	0.029
Mof_H 	H 	0.4235	0.4121	0.2163	0.01
Mof_Ag	Ag	0.5	0	-0	0.231
Mof_Ag	Ag	-0	0.5	-0	0.235
Mof_Ag	Ag	0.5	0	0.5	0.307
Mof_Ag	Ag	7.72085e-34	0.5	0.5	0.309
Mof_Ag	Ag	0.75	0.25	-0	0.329
Mof_Ag	Ag	0.25	0.25	0.5	0.405
Mof_Ag	Ag	0.25	0.75	-0	0.329
Mof_Ag	Ag	0.75	0.75	0.5	0.409
Mof_Ag	Ag	0.75	0.25	0.5	0.359
Mof_Ag	Ag	0.25	0.25	-0	0.28
Mof_Ag	Ag	0.25	0.75	0.5	0.36
Mof_Ag	Ag	0.75	0.75	-0	0.286
Mof_Ag	Ag	-1.24701e-17	0	0.5	0.312
Mof_Ag	Ag	0.5	0.5	0.5	0.413
Mof_Ag	Ag	-0	0	-0	0.237
Mof_Ag	Ag	0.5	0.5	-0	0.331
_end
