data_functionalizedCrystal
_audit_creation_method	'EQeq! by Chris Wilmer'
_symmetry_space_group_name_H-M	'P1'
_symmetry_Int_Tables_number	1
_symmetry_cell_setting	triclinic
loop_
_symmetry_equiv_pos_as_xyz
  x,y,z
_cell_length_a	18.6464
_cell_length_b	18.6464
_cell_length_c	18.6464
_cell_angle_alpha	60
_cell_angle_beta	60
_cell_angle_gamma	60
loop_
_atom_site_label
_atom_site_type_symbol
_atom_site_fract_x
_atom_site_fract_y
_atom_site_fract_z
_atom_site_charge
Mof_Cu	Cu	-0	0.4299	-0	0.683
Mof_Cu	Cu	-2.47993e-17	0	0.5701	0.695
Mof_Cu	Cu	0.5701	0.4299	-0	0.799
Mof_Cu	Cu	0.4299	0	-0	0.683
Mof_Cu	Cu	0.5701	0	-0	0.695
Mof_Cu	Cu	0.5701	0	0.4299	0.799
Mof_Cu	Cu	0.4299	0	0.5701	0.799
Mof_Cu	Cu	7.4398e-17	0.4299	0.5701	0.799
Mof_Cu	Cu	6.19984e-17	0.5701	0.4299	0.799
Mof_Cu	Cu	1.23997e-17	0	0.4299	0.683
Mof_Cu	Cu	0.4299	0.5701	-0	0.799
Mof_Cu	Cu	-0	0.5701	-0	0.695
Mof_H 	H 	0.5116	0.7298	0.7298	0.093
Mof_H 	H 	0.2702	0.2702	0.9712	0.052
Mof_H 	H 	0.2702	0.9712	0.4884	0.075
Mof_H 	H 	0.5116	0.0288	0.7298	0.029
Mof_H 	H 	0.0288	0.7298	0.5116	0.029
Mof_H 	H 	0.9712	0.4884	0.2702	0.075
Mof_H 	H 	0.7298	0.7298	0.5116	0.093
Mof_H 	H 	0.7298	0.5116	0.0288	0.029
Mof_H 	H 	0.9712	0.2702	0.4884	0.075
Mof_H 	H 	0.9712	0.2702	0.2702	0.052
Mof_H 	H 	0.2702	0.9712	0.2702	0.052
Mof_H 	H 	0.7298	0.0288	0.7298	0.055
Mof_H 	H 	0.4884	0.2702	0.9712	0.075
Mof_H 	H 	0.7298	0.5116	0.7298	0.093
Mof_H 	H 	0.7298	0.0288	0.5116	0.029
Mof_H 	H 	0.0288	0.5116	0.7298	0.029
Mof_H 	H 	0.2702	0.4884	0.9712	0.075
Mof_H 	H 	0.4884	0.2702	0.2702	0.007
Mof_H 	H 	0.5116	0.7298	0.0288	0.029
Mof_H 	H 	0.7298	0.7298	0.0288	0.055
Mof_H 	H 	0.2702	0.4884	0.2702	0.007
Mof_H 	H 	0.0288	0.7298	0.7298	0.055
Mof_H 	H 	0.4884	0.9712	0.2702	0.075
Mof_H 	H 	0.2702	0.2702	0.4884	0.007
Mof_C 	C 	0.9679	0.4295	0.3013	0.036
Mof_C 	C 	0.2588	0.3866	0.3866	-0.162
Mof_C 	C 	0.6987	0.0321	0.5705	0.055
Mof_C 	C 	0.1632	0.43	0.9768	0.325
Mof_C 	C 	0.3013	0.9679	0.3013	0.038
Mof_C 	C 	0.57	0.57	0.0232	0.34
Mof_C 	C 	0.43	0.1632	0.9768	0.325
Mof_C 	C 	0.57	0.0232	0.57	0.34
Mof_C 	C 	0.1632	0.9768	0.43	0.325
Mof_C 	C 	0.3866	0.968	0.3866	-0.062
Mof_C 	C 	0.5705	0.6987	0.0321	0.055
Mof_C 	C 	0.1632	0.43	0.43	0.344
Mof_C 	C 	0.3866	0.2588	0.968	-0.077
Mof_C 	C 	0.0232	0.8368	0.57	0.326
Mof_C 	C 	0.57	0.0232	0.8368	0.326
Mof_C 	C 	0.5705	0.6987	0.6987	0.026
Mof_C 	C 	0.3013	0.3013	0.4295	0.075
Mof_C 	C 	0.43	0.9768	0.43	0.328
Mof_C 	C 	0.0321	0.6987	0.5705	0.055
Mof_C 	C 	0.3013	0.4295	0.9679	0.036
Mof_C 	C 	0.6134	0.6134	0.032	-0.13
Mof_C 	C 	0.6987	0.6987	0.0321	0.05
Mof_C 	C 	0.3866	0.3866	0.2588	-0.162
Mof_C 	C 	0.9679	0.3013	0.3013	0.038
Mof_C 	C 	0.43	0.43	0.9768	0.328
Mof_C 	C 	0.43	0.9768	0.1632	0.325
Mof_C 	C 	0.4295	0.9679	0.3013	0.036
Mof_C 	C 	0.3013	0.3013	0.9679	0.038
Mof_C 	C 	0.43	0.43	0.1632	0.344
Mof_C 	C 	0.6987	0.0321	0.6987	0.05
Mof_C 	C 	0.0321	0.5705	0.6987	0.055
Mof_C 	C 	0.032	0.6134	0.7412	-0.108
Mof_C 	C 	0.0232	0.57	0.8368	0.326
Mof_C 	C 	0.3866	0.2588	0.3866	-0.162
Mof_C 	C 	0.8368	0.57	0.0232	0.326
Mof_C 	C 	0.6987	0.6987	0.5705	0.026
Mof_C 	C 	0.2588	0.968	0.3866	-0.077
Mof_C 	C 	0.57	0.8368	0.57	0.327
Mof_C 	C 	0.7412	0.6134	0.6134	-0.039
Mof_C 	C 	0.968	0.3866	0.3866	-0.062
Mof_C 	C 	0.3013	0.4295	0.3013	0.075
Mof_C 	C 	0.6134	0.032	0.6134	-0.13
Mof_C 	C 	0.57	0.8368	0.0232	0.326
Mof_C 	C 	0.968	0.2588	0.3866	-0.077
Mof_C 	C 	0.6134	0.032	0.7412	-0.108
Mof_C 	C 	0.7412	0.6134	0.032	-0.108
Mof_C 	C 	0.9768	0.1632	0.43	0.325
Mof_C 	C 	0.8368	0.57	0.57	0.327
Mof_C 	C 	0.9768	0.43	0.43	0.328
Mof_C 	C 	0.968	0.3866	0.2588	-0.077
Mof_C 	C 	0.7412	0.032	0.6134	-0.108
Mof_C 	C 	0.3866	0.968	0.2588	-0.077
Mof_C 	C 	0.6134	0.7412	0.6134	-0.039
Mof_C 	C 	0.032	0.7412	0.6134	-0.108
Mof_C 	C 	0.8368	0.0232	0.57	0.326
Mof_C 	C 	0.3013	0.9679	0.4295	0.036
Mof_C 	C 	0.3866	0.3866	0.968	-0.062
Mof_C 	C 	0.6134	0.7412	0.032	-0.108
Mof_C 	C 	0.6134	0.6134	0.7412	-0.039
Mof_C 	C 	0.6987	0.5705	0.6987	0.026
Mof_C 	C 	0.6987	0.5705	0.0321	0.055
Mof_C 	C 	0.2588	0.3866	0.968	-0.077
Mof_C 	C 	0.4295	0.3013	0.3013	0.075
Mof_C 	C 	0.9768	0.43	0.1632	0.325
Mof_C 	C 	0.032	0.6134	0.6134	-0.13
Mof_C 	C 	0.0232	0.57	0.57	0.34
Mof_C 	C 	0.43	0.1632	0.43	0.344
Mof_C 	C 	0.57	0.57	0.8368	0.327
Mof_C 	C 	0.4295	0.3013	0.9679	0.036
Mof_C 	C 	0.0321	0.6987	0.6987	0.05
Mof_C 	C 	0.5705	0.0321	0.6987	0.055
Mof_C 	C 	0.9679	0.3013	0.4295	0.036
Mof_O 	O 	0.50831	0.38731	0.97905	-0.283
Mof_O 	O 	0.38731	0.50831	0.12533	-0.46
Mof_O 	O 	0.50831	0.97905	0.38731	-0.283
Mof_O 	O 	0.49169	0.61269	0.02095	-0.449
Mof_O 	O 	0.87467	0.61269	0.49169	-0.275
Mof_O 	O 	0.49169	0.02095	0.61269	-0.449
Mof_O 	O 	0.50831	0.97905	0.12533	-0.323
Mof_O 	O 	0.12533	0.50831	0.97905	-0.323
Mof_O 	O 	0.87467	0.02095	0.49169	-0.354
Mof_O 	O 	0.61269	0.49169	0.02095	-0.449
Mof_O 	O 	0.38731	0.12533	0.97905	-0.342
Mof_O 	O 	0.49169	0.02095	0.87467	-0.354
Mof_O 	O 	0.49169	0.87467	0.61269	-0.275
Mof_O 	O 	0.02095	0.87467	0.49169	-0.354
Mof_O 	O 	0.61269	0.02095	0.87467	-0.334
Mof_O 	O 	0.12533	0.38731	0.50831	-0.46
Mof_O 	O 	0.02095	0.49169	0.87467	-0.354
Mof_O 	O 	0.87467	0.61269	0.02095	-0.334
Mof_O 	O 	0.38731	0.12533	0.50831	-0.46
Mof_O 	O 	0.97905	0.12533	0.50831	-0.323
Mof_O 	O 	0.61269	0.02095	0.49169	-0.449
Mof_O 	O 	0.50831	0.12533	0.38731	-0.46
Mof_O 	O 	0.02095	0.87467	0.61269	-0.334
Mof_O 	O 	0.87467	0.02095	0.61269	-0.334
Mof_O 	O 	0.38731	0.97905	0.50831	-0.283
Mof_O 	O 	0.02095	0.61269	0.49169	-0.449
Mof_O 	O 	0.12533	0.97905	0.38731	-0.342
Mof_O 	O 	0.02095	0.49169	0.61269	-0.449
Mof_O 	O 	0.61269	0.49169	0.87467	-0.275
Mof_O 	O 	0.12533	0.97905	0.50831	-0.323
Mof_O 	O 	0.12533	0.38731	0.97905	-0.342
Mof_O 	O 	0.97905	0.38731	0.50831	-0.283
Mof_O 	O 	0.12533	0.50831	0.38731	-0.46
Mof_O 	O 	0.61269	0.87467	0.49169	-0.275
Mof_O 	O 	0.87467	0.49169	0.61269	-0.275
Mof_O 	O 	0.49169	0.87467	0.02095	-0.354
Mof_O 	O 	0.87467	0.49169	0.02095	-0.354
Mof_O 	O 	0.50831	0.38731	0.12533	-0.46
Mof_O 	O 	0.02095	0.61269	0.87467	-0.334
Mof_O 	O 	0.97905	0.12533	0.38731	-0.342
Mof_O 	O 	0.38731	0.97905	0.12533	-0.342
Mof_O 	O 	0.97905	0.38731	0.12533	-0.342
Mof_O 	O 	0.97905	0.50831	0.12533	-0.323
Mof_O 	O 	0.49169	0.61269	0.87467	-0.275
Mof_O 	O 	0.38731	0.50831	0.97905	-0.283
Mof_O 	O 	0.50831	0.12533	0.97905	-0.323
Mof_O 	O 	0.61269	0.87467	0.02095	-0.334
Mof_O 	O 	0.97905	0.50831	0.38731	-0.283
_end
