data_functionalizedCrystal
_audit_creation_method	'EQeq! by Chris Wilmer'
_symmetry_space_group_name_H-M	'P1'
_symmetry_Int_Tables_number	1
_symmetry_cell_setting	triclinic
loop_
_symmetry_equiv_pos_as_xyz
  x,y,z
_cell_length_a	7.6668
_cell_length_b	9.8734
_cell_length_c	14.905
_cell_angle_alpha	90
_cell_angle_beta	98.365
_cell_angle_gamma	90
loop_
_atom_site_label
_atom_site_type_symbol
_atom_site_fract_x
_atom_site_fract_y
_atom_site_fract_z
_atom_site_charge
Mof_Sm	Sm	0.85343	0.95571	0.1397	2.258
Mof_Sm	Sm	0.64657	0.45571	0.3603	2.334
Mof_Sm	Sm	0.14657	0.04429	0.8603	2.257
Mof_Sm	Sm	0.35343	0.54429	0.6397	2.333
Mof_H 	H 	0.6149	0.6983	0.9842	-0.027
Mof_H 	H 	0.8254	0.3874	0.1346	-0.071
Mof_H 	H 	0.7956	0.3894	0.8636	-0.05
Mof_H 	H 	0.8851	0.1983	0.5158	-0.023
Mof_H 	H 	0.6746	0.8874	0.3654	-0.068
Mof_H 	H 	0.7044	0.8894	0.6364	-0.049
Mof_H 	H 	0.3851	0.3017	0.0158	-0.027
Mof_H 	H 	0.1746	0.6126	0.8654	-0.071
Mof_H 	H 	0.2044	0.6106	0.1364	-0.05
Mof_H 	H 	0.1149	0.8017	0.4842	-0.023
Mof_H 	H 	0.3254	0.1126	0.6346	-0.068
Mof_H 	H 	0.2956	0.1106	0.3636	-0.049
Mof_C 	C 	0.6692	0.6138	0.9878	0.18
Mof_C 	C 	0.7213	0.5586	0.0736	-0.313
Mof_C 	C 	0.7961	0.4302	0.0789	0.229
Mof_C 	C 	0.8261	0.3674	0.9995	-0.297
Mof_C 	C 	0.7736	0.4317	0.9165	0.172
Mof_C 	C 	0.692	0.6368	0.1559	0.561
Mof_C 	C 	0.9112	0.2305	0.0009	0.603
Mof_C 	C 	0.4565	0.0313	0.0389	0.274
Mof_C 	C 	0.8308	0.1138	0.5122	0.168
Mof_C 	C 	0.7787	0.0586	0.4264	-0.289
Mof_C 	C 	0.7039	0.9302	0.4211	0.215
Mof_C 	C 	0.6739	0.8674	0.5005	-0.299
Mof_C 	C 	0.7264	0.9317	0.5835	0.164
Mof_C 	C 	0.808	0.1368	0.3441	0.554
Mof_C 	C 	0.5888	0.7305	0.4991	0.617
Mof_C 	C 	0.0435	0.5313	0.4611	0.275
Mof_C 	C 	0.3308	0.3862	0.0122	0.18
Mof_C 	C 	0.2787	0.4414	0.9264	-0.313
Mof_C 	C 	0.2039	0.5698	0.9211	0.229
Mof_C 	C 	0.1739	0.6326	0.0005	-0.297
Mof_C 	C 	0.2264	0.5683	0.0835	0.172
Mof_C 	C 	0.308	0.3632	0.8441	0.561
Mof_C 	C 	0.0888	0.7695	0.9991	0.603
Mof_C 	C 	0.5435	0.9687	0.9611	0.274
Mof_C 	C 	0.1692	0.8862	0.4878	0.168
Mof_C 	C 	0.2213	0.9414	0.5736	-0.289
Mof_C 	C 	0.2961	0.0698	0.5789	0.215
Mof_C 	C 	0.3261	0.1326	0.4995	-0.299
Mof_C 	C 	0.2736	0.0683	0.4165	0.164
Mof_C 	C 	0.192	0.8632	0.6559	0.554
Mof_C 	C 	0.4112	0.2695	0.5009	0.617
Mof_C 	C 	0.9565	0.4687	0.5389	0.275
Mof_N 	N 	0.6925	0.5525	0.9105	-0.2
Mof_N 	N 	0.8075	0.0525	0.5895	-0.193
Mof_N 	N 	0.3075	0.4475	0.0895	-0.2
Mof_N 	N 	0.1925	0.9475	0.4105	-0.193
Mof_O 	O 	0.6659	0.7634	0.14621	-0.58
Mof_O 	O 	0.6962	0.577	0.22951	-0.625
Mof_O 	O 	0.9762	0.1949	0.9327	-0.627
Mof_O 	O 	0.9107	0.1604	0.071	-0.618
Mof_O 	O 	0.5526	0.0503	0.1131	-0.445
Mof_O 	O 	0.2968	0.0621	0.0205	-0.444
Mof_O 	O 	0.8341	0.2634	0.35379	-0.58
Mof_O 	O 	0.8038	0.077	0.27049	-0.608
Mof_O 	O 	0.5238	0.6949	0.5673	-0.647
Mof_O 	O 	0.5893	0.6604	0.429	-0.635
Mof_O 	O 	0.9474	0.5503	0.3869	-0.46
Mof_O 	O 	0.2032	0.5621	0.4795	-0.455
Mof_O 	O 	0.3341	0.2366	0.85379	-0.58
Mof_O 	O 	0.3038	0.423	0.77049	-0.625
Mof_O 	O 	0.0238	0.8051	0.0673	-0.627
Mof_O 	O 	0.0893	0.8396	0.929	-0.618
Mof_O 	O 	0.4474	0.9497	0.8869	-0.445
Mof_O 	O 	0.7032	0.9379	0.9795	-0.444
Mof_O 	O 	0.1659	0.7366	0.64621	-0.58
Mof_O 	O 	0.1962	0.923	0.72951	-0.608
Mof_O 	O 	0.4762	0.3051	0.4327	-0.647
Mof_O 	O 	0.4107	0.3396	0.571	-0.635
Mof_O 	O 	0.0526	0.4497	0.6131	-0.46
Mof_O 	O 	0.7968	0.4379	0.5205	-0.455
_end
