data_functionalizedCrystal
_audit_creation_method	'EQeq! by Chris Wilmer'
_symmetry_space_group_name_H-M	'P1'
_symmetry_Int_Tables_number	1
_symmetry_cell_setting	triclinic
loop_
_symmetry_equiv_pos_as_xyz
  x,y,z
_cell_length_a	12.813
_cell_length_b	18.557
_cell_length_c	7.259
_cell_angle_alpha	90
_cell_angle_beta	111.973
_cell_angle_gamma	90
loop_
_atom_site_label
_atom_site_type_symbol
_atom_site_fract_x
_atom_site_fract_y
_atom_site_fract_z
_atom_site_charge
Mof_N 	N 	0.1146	0.0484	0.235	-0.251
Mof_N 	N 	0.118	0.0448	0.423	-0.242
Mof_C 	C 	0.198	0.0886	0.245	0.084
Mof_H 	H 	0.2162	0.1001	0.1325	-0.047
Mof_N 	N 	0.258	0.1127	0.426	-0.136
Mof_C 	C 	0.205	0.0847	0.537	0.061
Mof_H 	H 	0.2269	0.0919	0.6759	-0.024
Mof_C 	C 	0.297	0.2398	0.516	-0.026
Mof_H 	H 	0.3508	0.2775	0.5581	0.033
Mof_C 	C 	0.347	0.1713	0.504	-0.075
Mof_H 	H 	0.4012	0.1576	0.6373	0.044
Mof_H 	H 	0.3892	0.1756	0.4144	0.037
Mof_N 	N 	0.6146	0.5484	0.235	-0.225
Mof_N 	N 	0.618	0.5448	0.423	-0.216
Mof_C 	C 	0.698	0.5886	0.245	0.103
Mof_H 	H 	0.7162	0.6001	0.1325	-0.026
Mof_N 	N 	0.758	0.6127	0.426	-0.126
Mof_C 	C 	0.705	0.5847	0.537	0.079
Mof_H 	H 	0.7269	0.5919	0.6759	-0.004
Mof_C 	C 	0.797	0.7398	0.516	-0.016
Mof_H 	H 	0.8508	0.7775	0.5581	0.049
Mof_C 	C 	0.847	0.6713	0.504	-0.089
Mof_H 	H 	0.9012	0.6576	0.6373	0.08
Mof_H 	H 	0.8892	0.6756	0.4144	0.069
Mof_N 	N 	0.8854	0.0484	0.265	-0.209
Mof_N 	N 	0.882	0.0448	0.077	-0.226
Mof_C 	C 	0.802	0.0886	0.255	0.098
Mof_H 	H 	0.7838	0.1001	0.3675	-0.027
Mof_N 	N 	0.742	0.1127	0.074	-0.174
Mof_C 	C 	0.795	0.0847	0.963	0.132
Mof_H 	H 	0.7731	0.0919	0.8241	-0.035
Mof_C 	C 	0.703	0.2398	0.984	-0.059
Mof_H 	H 	0.6492	0.2775	0.9419	0.055
Mof_C 	C 	0.653	0.1713	0.996	0.031
Mof_H 	H 	0.5988	0.1576	0.8627	0.014
Mof_H 	H 	0.6108	0.1756	0.0856	-0.007
Mof_N 	N 	0.3854	0.5484	0.265	-0.225
Mof_N 	N 	0.382	0.5448	0.077	-0.244
Mof_C 	C 	0.302	0.5886	0.255	0.102
Mof_H 	H 	0.2838	0.6001	0.3675	-0.032
Mof_N 	N 	0.242	0.6127	0.074	-0.182
Mof_C 	C 	0.295	0.5847	0.963	0.142
Mof_H 	H 	0.2731	0.5919	0.8241	-0.04
Mof_C 	C 	0.203	0.7398	0.984	-0.069
Mof_H 	H 	0.1492	0.7775	0.9419	0.046
Mof_C 	C 	0.153	0.6713	0.996	0.049
Mof_H 	H 	0.0988	0.6576	0.8627	-0.008
Mof_H 	H 	0.1108	0.6756	0.0856	-0.028
Mof_N 	N 	0.8854	0.9516	0.765	-0.167
Mof_N 	N 	0.882	0.9552	0.577	-0.168
Mof_C 	C 	0.802	0.9114	0.755	0.117
Mof_H 	H 	0.7838	0.8999	0.8675	0.003
Mof_N 	N 	0.742	0.8873	0.574	-0.131
Mof_C 	C 	0.795	0.9153	0.463	0.095
Mof_H 	H 	0.7731	0.9081	0.3241	-0.002
Mof_C 	C 	0.703	0.7602	0.484	-0.05
Mof_H 	H 	0.6492	0.7225	0.4419	0.042
Mof_C 	C 	0.653	0.8287	0.496	-0.054
Mof_H 	H 	0.5988	0.8424	0.3627	0.044
Mof_H 	H 	0.6108	0.8244	0.5856	0.048
Mof_N 	N 	0.3854	0.4516	0.765	-0.217
Mof_N 	N 	0.382	0.4552	0.577	-0.219
Mof_C 	C 	0.302	0.4114	0.755	0.101
Mof_H 	H 	0.2838	0.3999	0.8675	-0.024
Mof_N 	N 	0.242	0.3873	0.574	-0.142
Mof_C 	C 	0.295	0.4153	0.463	0.076
Mof_H 	H 	0.2731	0.4081	0.3241	-0.028
Mof_C 	C 	0.203	0.2602	0.484	-0.064
Mof_H 	H 	0.1492	0.2225	0.4419	0.03
Mof_C 	C 	0.153	0.3287	0.496	-0.038
Mof_H 	H 	0.0988	0.3424	0.3627	0.007
Mof_H 	H 	0.1108	0.3244	0.5856	0.016
Mof_N 	N 	0.1146	0.9516	0.735	-0.207
Mof_N 	N 	0.118	0.9552	0.923	-0.173
Mof_C 	C 	0.198	0.9114	0.745	0.105
Mof_H 	H 	0.2162	0.8999	0.6325	-0.015
Mof_N 	N 	0.258	0.8873	0.926	-0.09
Mof_C 	C 	0.205	0.9153	0.037	0.018
Mof_H 	H 	0.2269	0.9081	0.1759	0.013
Mof_C 	C 	0.297	0.7602	0.016	-0.016
Mof_H 	H 	0.3508	0.7225	0.0581	0.019
Mof_C 	C 	0.347	0.8287	0.004	-0.165
Mof_H 	H 	0.4012	0.8424	0.1373	0.075
Mof_H 	H 	0.3892	0.8244	0.9144	0.095
Mof_N 	N 	0.6146	0.4516	0.735	-0.22
Mof_N 	N 	0.618	0.4552	0.923	-0.189
Mof_C 	C 	0.698	0.4114	0.745	0.102
Mof_H 	H 	0.7162	0.3999	0.6325	-0.018
Mof_N 	N 	0.758	0.3873	0.926	-0.09
Mof_C 	C 	0.705	0.4153	0.037	0.017
Mof_H 	H 	0.7269	0.4081	0.1759	0.008
Mof_C 	C 	0.797	0.2602	0.016	-0.011
Mof_H 	H 	0.8508	0.2225	0.0581	0.035
Mof_C 	C 	0.847	0.3287	0.004	-0.169
Mof_H 	H 	0.9012	0.3424	0.1373	0.095
Mof_H 	H 	0.8892	0.3244	0.9144	0.11
Mof_Cu	Cu	-0	0	-0	0.745
Mof_Cu	Cu	0.5	0.5	-0	0.82
Mof_Cu	Cu	1.45948e-33	0	0.5	0.758
Mof_Cu	Cu	0.5	0.5	0.5	0.833
_end
