data_functionalizedCrystal
_audit_creation_method	'EQeq! by Chris Wilmer'
_symmetry_space_group_name_H-M	'P1'
_symmetry_Int_Tables_number	1
_symmetry_cell_setting	triclinic
loop_
_symmetry_equiv_pos_as_xyz
  x,y,z
_cell_length_a	9.764
_cell_length_b	12.198
_cell_length_c	12.564
_cell_angle_alpha	62.38
_cell_angle_beta	67.67
_cell_angle_gamma	73.032
loop_
_atom_site_label
_atom_site_type_symbol
_atom_site_fract_x
_atom_site_fract_y
_atom_site_fract_z
_atom_site_charge
Mof_C 	C 	0.2136	0.3211	0.979	0.026
Mof_C 	C 	0.347	0.262	0.0212	0.246
Mof_C 	C 	0.2402	0.4506	0.8744	-0.087
Mof_H 	H 	0.3309	0.48	0.8457	0.076
Mof_C 	C 	0.1225	0.5221	0.8244	0.055
Mof_H 	H 	0.1326	0.6021	0.7619	0.025
Mof_C 	C 	0.9897	0.474	0.8678	-0.135
Mof_H 	H 	0.911	0.5219	0.8343	0.1
Mof_C 	C 	0.9747	0.3545	0.9611	0.12
Mof_C 	C 	0.0924	0.283	0.0111	-0.264
Mof_H 	H 	0.0803	0.2024	0.0718	0.13
Mof_C 	C 	0.8267	0.3093	0.0109	0.251
Mof_C 	C 	0.572	0.8869	0.2561	0.42
Mof_C 	C 	0.5939	0.772	0.3681	-0.138
Mof_C 	C 	0.641	0.6573	0.3579	0.064
Mof_H 	H 	0.6602	0.6533	0.2812	0.023
Mof_C 	C 	0.658	0.5485	0.4622	-0.121
Mof_H 	H 	0.689	0.4718	0.4553	0.077
Mof_C 	C 	0.628	0.5544	0.5768	0.053
Mof_H 	H 	0.64	0.4816	0.6466	0.03
Mof_C 	C 	0.5818	0.6691	0.5871	-0.129
Mof_C 	C 	0.5645	0.7779	0.4828	0.075
Mof_H 	H 	0.5333	0.8546	0.4897	0.048
Mof_C 	C 	0.545	0.6715	0.7141	0.392
Mof_C 	C 	0.157	0.304	0.026	0.086
Mof_C 	C 	0.61	0.76	0.98	0.171
Mof_Mn	Mn	0.5912	0.1712	0.125	0.855
Mof_O 	O 	0.3605	0.1425	0.0793	-0.366
Mof_O 	O 	0.4435	0.3171	0.0183	-0.409
Mof_O 	O 	0.7145	0.3853	0.9874	-0.323
Mof_O 	O 	0.8171	0.193	0.0812	-0.315
Mof_O 	O 	0.5424	0.8759	0.1718	-0.289
Mof_O 	O 	0.5915	0.9872	0.2519	-0.326
Mof_O 	O 	0.4976	0.7751	0.7219	-0.371
Mof_O 	O 	0.5593	0.5681	0.8048	-0.381
Mof_O 	O 	0.862	0.226	0.948	-0.131
Mof_O 	O 	0.639	0.937	0.122	-0.186
Mof_C 	C 	0.7864	0.6789	0.021	-0.122
Mof_C 	C 	0.653	0.738	0.9788	0.188
Mof_C 	C 	0.7598	0.5494	0.1256	0.07
Mof_H 	H 	0.6691	0.52	0.1543	0.007
Mof_C 	C 	0.8775	0.4779	0.1756	-0.222
Mof_H 	H 	0.8674	0.3979	0.2381	0.104
Mof_C 	C 	0.0103	0.526	0.1322	0.209
Mof_H 	H 	0.089	0.4781	0.1657	-0.027
Mof_C 	C 	0.0253	0.6455	0.0389	-0.345
Mof_C 	C 	0.9076	0.717	0.9889	0.403
Mof_H 	H 	0.9197	0.7976	0.9282	-0.047
Mof_C 	C 	0.1733	0.6907	0.9891	0.582
Mof_C 	C 	0.428	0.1131	0.7439	0.439
Mof_C 	C 	0.4061	0.228	0.6319	-0.163
Mof_C 	C 	0.359	0.3427	0.6421	0.08
Mof_H 	H 	0.3398	0.3467	0.7188	0.024
Mof_C 	C 	0.342	0.4515	0.5378	-0.136
Mof_H 	H 	0.311	0.5282	0.5447	0.088
Mof_C 	C 	0.372	0.4456	0.4232	0.07
Mof_H 	H 	0.36	0.5184	0.3534	0.026
Mof_C 	C 	0.4182	0.3309	0.4129	-0.149
Mof_C 	C 	0.4355	0.2221	0.5172	0.092
Mof_H 	H 	0.4667	0.1454	0.5103	0.019
Mof_C 	C 	0.455	0.3285	0.2859	0.397
Mof_C 	C 	0.843	0.696	0.974	-0.157
Mof_C 	C 	0.39	0.24	0.02	0.006
Mof_Mn	Mn	0.4088	0.8288	0.875	0.988
Mof_O 	O 	0.6395	0.8575	0.9207	-0.343
Mof_O 	O 	0.5565	0.6829	0.9817	-0.411
Mof_O 	O 	0.2855	0.6147	0.0126	-0.475
Mof_O 	O 	0.1829	0.807	0.9188	-0.329
Mof_O 	O 	0.4576	0.1241	0.8282	-0.297
Mof_O 	O 	0.4085	0.0128	0.7481	-0.406
Mof_O 	O 	0.5024	0.2249	0.2781	-0.389
Mof_O 	O 	0.4407	0.4319	0.1952	-0.391
Mof_O 	O 	0.138	0.774	0.052	-0.202
Mof_O 	O 	0.361	0.063	0.878	-0.206
Mof_Mn	Mn	0.5	0	-0	0.724
Mof_Mn	Mn	0.5	0.5	-0	0.949
_end
