data_functionalizedCrystal
_audit_creation_method	'EQeq! by Chris Wilmer'
_symmetry_space_group_name_H-M	'P1'
_symmetry_Int_Tables_number	1
_symmetry_cell_setting	triclinic
loop_
_symmetry_equiv_pos_as_xyz
  x,y,z
_cell_length_a	22.11
_cell_length_b	13.6595
_cell_length_c	15.0436
_cell_angle_alpha	90
_cell_angle_beta	116.019
_cell_angle_gamma	90
loop_
_atom_site_label
_atom_site_type_symbol
_atom_site_fract_x
_atom_site_fract_y
_atom_site_fract_z
_atom_site_charge
Mof_Se	Se	0.24531	0.10289	0.9313	0.019
Mof_C 	C 	0.2273	0.9752	0.9399	0.036
Mof_N 	N 	0.1754	0.6853	0.859	-0.191
Mof_N 	N 	0.3226	0.7527	0.9345	-0.195
Mof_N 	N 	0.2186	0.8918	0.9434	-0.178
Mof_C 	C 	0.1954	0.6081	0.8241	-0.075
Mof_H 	H 	0.2399	0.5841	0.861	0.054
Mof_C 	C 	0.1546	0.5619	0.737	0.008
Mof_H 	H 	0.1707	0.5075	0.7143	0.024
Mof_C 	C 	0.0702	0.6781	0.7144	0.064
Mof_H 	H 	0.0272	0.7067	0.6769	0
Mof_C 	C 	0.1148	0.7211	0.8039	-0.128
Mof_H 	H 	0.1008	0.7783	0.8258	0.064
Mof_C 	C 	0.0877	0.5972	0.6813	0.132
Mof_C 	C 	0.0426	0.5477	0.5879	-0.042
Mof_C 	C 	0.0673	0.5156	0.5214	-0.046
Mof_H 	H 	0.1129	0.5278	0.5355	0.04
Mof_C 	C 	0.974	0.5337	0.5649	-0.049
Mof_H 	H 	0.9562	0.5578	0.6079	0.044
Mof_C 	C 	0.4313	0.7604	0.6937	-0.038
Mof_H 	H 	0.3841	0.761	0.6536	0.035
Mof_C 	C 	0.5249	0.7616	0.8504	-0.033
Mof_H 	H 	0.5431	0.7645	0.9205	0.038
Mof_C 	C 	0.4565	0.7586	0.7959	-0.051
Mof_C 	C 	0.304	0.7971	0.8442	0.006
Mof_H 	H 	0.2611	0.8275	0.8129	0.026
Mof_C 	C 	0.3458	0.7989	0.7973	-0.091
Mof_H 	H 	0.3308	0.8285	0.734	0.054
Mof_C 	C 	0.4271	0.7161	0.9344	0.028
Mof_H 	H 	0.4704	0.688	0.9695	0.018
Mof_C 	C 	0.3827	0.715	0.9759	-0.063
Mof_H 	H 	0.3968	0.6849	0.0387	0.029
Mof_C 	C 	0.4099	0.7571	0.8433	0.17
Mof_C 	C 	0.1454	0.5944	0.8577	0.145
Mof_H 	H 	0.1555	0.5623	0.9186	-0.021
Mof_C 	C 	0.1022	0.5509	0.7715	-0.205
Mof_H 	H 	0.082	0.4898	0.7727	0.097
Mof_C 	C 	0.1186	0.682	0.6882	-0.292
Mof_H 	H 	0.1101	0.7164	0.6289	0.119
Mof_C 	C 	0.1609	0.722	0.7739	0.258
Mof_H 	H 	0.1819	0.782	0.7716	-0.066
Mof_C 	C 	0.3742	0.811	0.958	0.224
Mof_H 	H 	0.3832	0.8553	0.0107	-0.065
Mof_C 	C 	0.4162	0.814	0.914	-0.274
Mof_H 	H 	0.4516	0.8612	0.9361	0.132
Mof_C 	C 	0.374	0.667	0.836	-0.172
Mof_H 	H 	0.3805	0.6098	0.8051	0.084
Mof_C 	C 	0.3268	0.669	0.881	0.092
Mof_H 	H 	0.2987	0.6139	0.8737	-0.013
Mof_C 	C 	0.2158	0.9635	0.9033	0.014
Mof_Se	Se	0.2129	0.0782	0.8482	-0.003
Mof_Se	Se	0.74531	0.60289	0.9313	0.019
Mof_C 	C 	0.7273	0.4752	0.9399	0.034
Mof_N 	N 	0.6754	0.1853	0.859	-0.192
Mof_N 	N 	0.8226	0.2527	0.9345	-0.196
Mof_N 	N 	0.7186	0.3918	0.9434	-0.179
Mof_C 	C 	0.6954	0.1081	0.8241	-0.088
Mof_H 	H 	0.7399	0.0841	0.861	0.057
Mof_C 	C 	0.6546	0.0619	0.737	0.017
Mof_H 	H 	0.6707	0.0075	0.7143	0.019
Mof_C 	C 	0.5702	0.1781	0.7144	0.077
Mof_H 	H 	0.5272	0.2067	0.6769	-0.004
Mof_C 	C 	0.6148	0.2211	0.8039	-0.142
Mof_H 	H 	0.6008	0.2783	0.8258	0.068
Mof_C 	C 	0.5877	0.0972	0.6813	0.132
Mof_C 	C 	0.5426	0.0477	0.5879	-0.04
Mof_C 	C 	0.5673	0.0156	0.5214	-0.051
Mof_H 	H 	0.6129	0.0278	0.5355	0.042
Mof_C 	C 	0.474	0.0337	0.5649	-0.054
Mof_H 	H 	0.4562	0.0578	0.6079	0.045
Mof_C 	C 	0.9313	0.2604	0.6937	-0.039
Mof_H 	H 	0.8841	0.261	0.6536	0.035
Mof_C 	C 	0.0249	0.2616	0.8504	-0.034
Mof_H 	H 	0.0431	0.2645	0.9205	0.038
Mof_C 	C 	0.9565	0.2586	0.7959	-0.05
Mof_C 	C 	0.804	0.2971	0.8442	0.004
Mof_H 	H 	0.7611	0.3275	0.8129	0.027
Mof_C 	C 	0.8458	0.2989	0.7973	-0.09
Mof_H 	H 	0.8308	0.3285	0.734	0.053
Mof_C 	C 	0.9271	0.2161	0.9344	0.03
Mof_H 	H 	0.9704	0.188	0.9695	0.017
Mof_C 	C 	0.8827	0.215	0.9759	-0.064
Mof_H 	H 	0.8968	0.1849	0.0387	0.029
Mof_C 	C 	0.9099	0.2571	0.8433	0.17
Mof_C 	C 	0.6454	0.0944	0.8577	0.156
Mof_H 	H 	0.6555	0.0623	0.9186	-0.025
Mof_C 	C 	0.6022	0.0509	0.7715	-0.217
Mof_H 	H 	0.582	0.9898	0.7727	0.102
Mof_C 	C 	0.6186	0.182	0.6882	-0.308
Mof_H 	H 	0.6101	0.2164	0.6289	0.125
Mof_C 	C 	0.6609	0.222	0.7739	0.274
Mof_H 	H 	0.6819	0.282	0.7716	-0.072
Mof_C 	C 	0.8742	0.311	0.958	0.228
Mof_H 	H 	0.8832	0.3553	0.0107	-0.067
Mof_C 	C 	0.9162	0.314	0.914	-0.277
Mof_H 	H 	0.9516	0.3612	0.9361	0.133
Mof_C 	C 	0.874	0.167	0.836	-0.173
Mof_H 	H 	0.8805	0.1098	0.8051	0.084
Mof_C 	C 	0.8268	0.169	0.881	0.093
Mof_H 	H 	0.7987	0.1139	0.8737	-0.014
Mof_C 	C 	0.7158	0.4635	0.9033	0.014
Mof_Se	Se	0.7129	0.5782	0.8482	-0.002
Mof_Se	Se	0.75469	0.10289	0.5687	-0.012
Mof_C 	C 	0.7727	0.9752	0.5601	0.036
Mof_N 	N 	0.8246	0.6853	0.641	-0.201
Mof_N 	N 	0.6774	0.7527	0.5655	-0.194
Mof_N 	N 	0.7814	0.8918	0.5566	-0.188
Mof_C 	C 	0.8046	0.6081	0.6759	-0.11
Mof_H 	H 	0.7601	0.5841	0.639	0.062
Mof_C 	C 	0.8454	0.5619	0.763	0.031
Mof_H 	H 	0.8293	0.5075	0.7857	0.015
Mof_C 	C 	0.9298	0.6781	0.7856	0.1
Mof_H 	H 	0.9728	0.7067	0.8231	-0.01
Mof_C 	C 	0.8852	0.7211	0.6961	-0.174
Mof_H 	H 	0.8992	0.7783	0.6742	0.078
Mof_C 	C 	0.9123	0.5972	0.8187	0.165
Mof_C 	C 	0.9574	0.5477	0.9121	-0.09
Mof_C 	C 	0.9327	0.5156	0.9786	0.029
Mof_H 	H 	0.8871	0.5278	0.9645	0.022
Mof_C 	C 	0.026	0.5337	0.9351	0.023
Mof_H 	H 	0.0438	0.5578	0.8921	0.021
Mof_C 	C 	0.5687	0.7604	0.8063	-0.041
Mof_H 	H 	0.6159	0.761	0.8464	0.039
Mof_C 	C 	0.4751	0.7616	0.6496	-0.037
Mof_H 	H 	0.4569	0.7645	0.5795	0.034
Mof_C 	C 	0.5435	0.7586	0.7041	-0.045
Mof_C 	C 	0.696	0.7971	0.6558	-0.003
Mof_H 	H 	0.7389	0.8275	0.6871	0.029
Mof_C 	C 	0.6542	0.7989	0.7027	-0.08
Mof_H 	H 	0.6692	0.8285	0.766	0.052
Mof_C 	C 	0.5729	0.7161	0.5656	0.061
Mof_H 	H 	0.5296	0.688	0.5305	0.001
Mof_C 	C 	0.6173	0.715	0.5241	-0.117
Mof_H 	H 	0.6032	0.6849	0.4613	0.059
Mof_C 	C 	0.5901	0.7571	0.6567	0.159
Mof_C 	C 	0.8546	0.5944	0.6423	0.185
Mof_H 	H 	0.8445	0.5623	0.5814	-0.041
Mof_C 	C 	0.8978	0.5509	0.7285	-0.25
Mof_H 	H 	0.918	0.4898	0.7273	0.111
Mof_C 	C 	0.8814	0.682	0.8118	-0.36
Mof_H 	H 	0.8899	0.7164	0.8711	0.146
Mof_C 	C 	0.8391	0.722	0.7261	0.324
Mof_H 	H 	0.8181	0.782	0.7284	-0.089
Mof_C 	C 	0.6258	0.811	0.542	0.215
Mof_H 	H 	0.6168	0.8553	0.4893	-0.049
Mof_C 	C 	0.5838	0.814	0.586	-0.278
Mof_H 	H 	0.5484	0.8612	0.5639	0.128
Mof_C 	C 	0.626	0.667	0.664	-0.183
Mof_H 	H 	0.6195	0.6098	0.6949	0.088
Mof_C 	C 	0.6732	0.669	0.619	0.109
Mof_H 	H 	0.7013	0.6139	0.6263	-0.024
Mof_C 	C 	0.7842	0.9635	0.5967	0.009
Mof_Se	Se	0.7871	0.0782	0.6518	0.014
Mof_Se	Se	0.25469	0.60289	0.5687	-0.01
Mof_C 	C 	0.2727	0.4752	0.5601	0.036
Mof_N 	N 	0.3246	0.1853	0.641	-0.202
Mof_N 	N 	0.1774	0.2527	0.5655	-0.194
Mof_N 	N 	0.2814	0.3918	0.5566	-0.187
Mof_C 	C 	0.3046	0.1081	0.6759	-0.123
Mof_H 	H 	0.2601	0.0841	0.639	0.066
Mof_C 	C 	0.3454	0.0619	0.763	0.042
Mof_H 	H 	0.3293	0.0075	0.7857	0.011
Mof_C 	C 	0.4298	0.1781	0.7856	0.116
Mof_H 	H 	0.4728	0.2067	0.8231	-0.015
Mof_C 	C 	0.3852	0.2211	0.6961	-0.19
Mof_H 	H 	0.3992	0.2783	0.6742	0.084
Mof_C 	C 	0.4123	0.0972	0.8187	0.166
Mof_C 	C 	0.4574	0.0477	0.9121	-0.09
Mof_C 	C 	0.4327	0.0156	0.9786	0.025
Mof_H 	H 	0.3871	0.0278	0.9645	0.022
Mof_C 	C 	0.526	0.0337	0.9351	0.02
Mof_H 	H 	0.5438	0.0578	0.8921	0.022
Mof_C 	C 	0.0687	0.2604	0.8063	-0.04
Mof_H 	H 	0.1159	0.261	0.8464	0.039
Mof_C 	C 	0.9751	0.2616	0.6496	-0.036
Mof_H 	H 	0.9569	0.2645	0.5795	0.034
Mof_C 	C 	0.0435	0.2586	0.7041	-0.046
Mof_C 	C 	0.196	0.2971	0.6558	-0.004
Mof_H 	H 	0.2389	0.3275	0.6871	0.03
Mof_C 	C 	0.1542	0.2989	0.7027	-0.08
Mof_H 	H 	0.1692	0.3285	0.766	0.052
Mof_C 	C 	0.0729	0.2161	0.5656	0.062
Mof_H 	H 	0.0296	0.188	0.5305	-0
Mof_C 	C 	0.1173	0.215	0.5241	-0.118
Mof_H 	H 	0.1032	0.1849	0.4613	0.059
Mof_C 	C 	0.0901	0.2571	0.6567	0.16
Mof_C 	C 	0.3546	0.0944	0.6423	0.197
Mof_H 	H 	0.3445	0.0623	0.5814	-0.045
Mof_C 	C 	0.3978	0.0509	0.7285	-0.263
Mof_H 	H 	0.418	0.9898	0.7273	0.117
Mof_C 	C 	0.3814	0.182	0.8118	-0.378
Mof_H 	H 	0.3899	0.2164	0.8711	0.152
Mof_C 	C 	0.3391	0.222	0.7261	0.342
Mof_H 	H 	0.3181	0.282	0.7284	-0.095
Mof_C 	C 	0.1258	0.311	0.542	0.216
Mof_H 	H 	0.1168	0.3553	0.4893	-0.05
Mof_C 	C 	0.0838	0.314	0.586	-0.279
Mof_H 	H 	0.0484	0.3612	0.5639	0.129
Mof_C 	C 	0.126	0.167	0.664	-0.184
Mof_H 	H 	0.1195	0.1098	0.6949	0.088
Mof_C 	C 	0.1732	0.169	0.619	0.11
Mof_H 	H 	0.2013	0.1139	0.6263	-0.025
Mof_C 	C 	0.2842	0.4635	0.5967	0.008
Mof_Se	Se	0.2871	0.5782	0.6518	0.015
Mof_Se	Se	0.75469	0.89711	0.0687	-0.034
Mof_C 	C 	0.7727	0.0248	0.0601	0.034
Mof_N 	N 	0.8246	0.3147	0.141	-0.198
Mof_N 	N 	0.6774	0.2473	0.0655	-0.185
Mof_N 	N 	0.7814	0.1082	0.0566	-0.189
Mof_C 	C 	0.8046	0.3919	0.1759	-0.103
Mof_H 	H 	0.7601	0.4159	0.139	0.057
Mof_C 	C 	0.8454	0.4381	0.263	0.029
Mof_H 	H 	0.8293	0.4925	0.2857	0.015
Mof_C 	C 	0.9298	0.3219	0.2856	0.094
Mof_H 	H 	0.9728	0.2933	0.3231	-0.011
Mof_C 	C 	0.8852	0.2789	0.1961	-0.163
Mof_H 	H 	0.8992	0.2217	0.1742	0.073
Mof_C 	C 	0.9123	0.4028	0.3187	0.137
Mof_C 	C 	0.9574	0.4523	0.4121	-0.044
Mof_C 	C 	0.9327	0.4844	0.4786	-0.044
Mof_H 	H 	0.8871	0.4722	0.4645	0.04
Mof_C 	C 	0.026	0.4663	0.4351	-0.049
Mof_H 	H 	0.0438	0.4422	0.3921	0.043
Mof_C 	C 	0.5687	0.2396	0.3063	-0.044
Mof_H 	H 	0.6159	0.239	0.3464	0.038
Mof_C 	C 	0.4751	0.2384	0.1496	-0.04
Mof_H 	H 	0.4569	0.2355	0.0795	0.03
Mof_C 	C 	0.5435	0.2414	0.2041	-0.041
Mof_C 	C 	0.696	0.2029	0.1558	-0.006
Mof_H 	H 	0.7389	0.1725	0.1871	0.028
Mof_C 	C 	0.6542	0.2011	0.2027	-0.074
Mof_H 	H 	0.6692	0.1715	0.266	0.048
Mof_C 	C 	0.5729	0.2839	0.0656	0.08
Mof_H 	H 	0.5296	0.312	0.0305	-0.013
Mof_C 	C 	0.6173	0.285	0.0241	-0.156
Mof_H 	H 	0.6032	0.3151	0.9613	0.085
Mof_C 	C 	0.5901	0.2429	0.1567	0.145
Mof_C 	C 	0.8546	0.4056	0.1423	0.17
Mof_H 	H 	0.8445	0.4377	0.0814	-0.041
Mof_C 	C 	0.8978	0.4491	0.2285	-0.232
Mof_H 	H 	0.918	0.5102	0.2273	0.104
Mof_C 	C 	0.8814	0.318	0.3118	-0.332
Mof_H 	H 	0.8899	0.2836	0.3711	0.132
Mof_C 	C 	0.8391	0.278	0.2261	0.3
Mof_H 	H 	0.8181	0.218	0.2284	-0.082
Mof_C 	C 	0.6258	0.189	0.042	0.186
Mof_H 	H 	0.6168	0.1447	0.9893	-0.025
Mof_C 	C 	0.5838	0.186	0.086	-0.265
Mof_H 	H 	0.5484	0.1388	0.0639	0.118
Mof_C 	C 	0.626	0.333	0.164	-0.186
Mof_H 	H 	0.6195	0.3902	0.1949	0.086
Mof_C 	C 	0.6732	0.331	0.119	0.116
Mof_H 	H 	0.7013	0.3861	0.1263	-0.029
Mof_C 	C 	0.7842	0.0365	0.0967	0.002
Mof_Se	Se	0.7871	0.9218	0.1518	0.029
Mof_Se	Se	0.25469	0.39711	0.0687	-0.035
Mof_C 	C 	0.2727	0.5248	0.0601	0.035
Mof_N 	N 	0.3246	0.8147	0.141	-0.197
Mof_N 	N 	0.1774	0.7473	0.0655	-0.185
Mof_N 	N 	0.2814	0.6082	0.0566	-0.189
Mof_C 	C 	0.3046	0.8919	0.1759	-0.081
Mof_H 	H 	0.2601	0.9159	0.139	0.049
Mof_C 	C 	0.3454	0.9381	0.263	0.009
Mof_H 	H 	0.3293	0.9925	0.2857	0.022
Mof_C 	C 	0.4298	0.8219	0.2856	0.067
Mof_H 	H 	0.4728	0.7933	0.3231	-0.001
Mof_C 	C 	0.3852	0.7789	0.1961	-0.135
Mof_H 	H 	0.3992	0.7217	0.1742	0.064
Mof_C 	C 	0.4123	0.9028	0.3187	0.135
Mof_C 	C 	0.4574	0.9523	0.4121	-0.046
Mof_C 	C 	0.4327	0.9844	0.4786	-0.04
Mof_H 	H 	0.3871	0.9722	0.4645	0.039
Mof_C 	C 	0.526	0.9663	0.4351	-0.044
Mof_H 	H 	0.5438	0.9422	0.3921	0.042
Mof_C 	C 	0.0687	0.7396	0.3063	-0.043
Mof_H 	H 	0.1159	0.739	0.3464	0.037
Mof_C 	C 	0.9751	0.7384	0.1496	-0.038
Mof_H 	H 	0.9569	0.7355	0.0795	0.03
Mof_C 	C 	0.0435	0.7414	0.2041	-0.042
Mof_C 	C 	0.196	0.7029	0.1558	-0.003
Mof_H 	H 	0.2389	0.6725	0.1871	0.027
Mof_C 	C 	0.1542	0.7011	0.2027	-0.076
Mof_H 	H 	0.1692	0.6715	0.266	0.049
Mof_C 	C 	0.0729	0.7839	0.0656	0.074
Mof_H 	H 	0.0296	0.812	0.0305	-0.01
Mof_C 	C 	0.1173	0.785	0.0241	-0.148
Mof_H 	H 	0.1032	0.8151	0.9613	0.082
Mof_C 	C 	0.0901	0.7429	0.1567	0.145
Mof_C 	C 	0.3546	0.9056	0.1423	0.149
Mof_H 	H 	0.3445	0.9377	0.0814	-0.033
Mof_C 	C 	0.3978	0.9491	0.2285	-0.208
Mof_H 	H 	0.418	0.0102	0.2273	0.094
Mof_C 	C 	0.3814	0.818	0.3118	-0.301
Mof_H 	H 	0.3899	0.7836	0.3711	0.122
Mof_C 	C 	0.3391	0.778	0.2261	0.268
Mof_H 	H 	0.3181	0.718	0.2284	-0.071
Mof_C 	C 	0.1258	0.689	0.042	0.182
Mof_H 	H 	0.1168	0.6447	0.9893	-0.024
Mof_C 	C 	0.0838	0.686	0.086	-0.261
Mof_H 	H 	0.0484	0.6388	0.0639	0.117
Mof_C 	C 	0.126	0.833	0.164	-0.183
Mof_H 	H 	0.1195	0.8902	0.1949	0.085
Mof_C 	C 	0.1732	0.831	0.119	0.112
Mof_H 	H 	0.2013	0.8861	0.1263	-0.026
Mof_C 	C 	0.2842	0.5365	0.0967	0.004
Mof_Se	Se	0.2871	0.4218	0.1518	0.028
Mof_Se	Se	0.24531	0.89711	0.4313	-0.006
Mof_C 	C 	0.2273	0.0248	0.4399	0.033
Mof_N 	N 	0.1754	0.3147	0.359	-0.194
Mof_N 	N 	0.3226	0.2473	0.4345	-0.193
Mof_N 	N 	0.2186	0.1082	0.4434	-0.187
Mof_C 	C 	0.1954	0.3919	0.3241	-0.072
Mof_H 	H 	0.2399	0.4159	0.361	0.048
Mof_C 	C 	0.1546	0.4381	0.237	0.007
Mof_H 	H 	0.1707	0.4925	0.2143	0.022
Mof_C 	C 	0.0702	0.3219	0.2144	0.059
Mof_H 	H 	0.0272	0.2933	0.1769	-0.001
Mof_C 	C 	0.1148	0.2789	0.3039	-0.12
Mof_H 	H 	0.1008	0.2217	0.3258	0.058
Mof_C 	C 	0.0877	0.4028	0.1813	0.105
Mof_C 	C 	0.0426	0.4523	0.0879	0.003
Mof_C 	C 	0.0673	0.4844	0.0214	-0.118
Mof_H 	H 	0.1129	0.4722	0.0355	0.059
Mof_C 	C 	0.974	0.4663	0.0649	-0.121
Mof_H 	H 	0.9562	0.4422	0.1079	0.066
Mof_C 	C 	0.4313	0.2396	0.1937	-0.04
Mof_H 	H 	0.3841	0.239	0.1536	0.033
Mof_C 	C 	0.5249	0.2384	0.3504	-0.034
Mof_H 	H 	0.5431	0.2355	0.4205	0.033
Mof_C 	C 	0.4565	0.2414	0.2959	-0.048
Mof_C 	C 	0.304	0.2029	0.3442	0.001
Mof_H 	H 	0.2611	0.1725	0.3129	0.024
Mof_C 	C 	0.3458	0.2011	0.2973	-0.084
Mof_H 	H 	0.3308	0.1715	0.234	0.049
Mof_C 	C 	0.4271	0.2839	0.4344	0.052
Mof_H 	H 	0.4704	0.312	0.4695	0.003
Mof_C 	C 	0.3827	0.285	0.4759	-0.106
Mof_H 	H 	0.3968	0.3151	0.5387	0.055
Mof_C 	C 	0.4099	0.2429	0.3433	0.159
Mof_C 	C 	0.1454	0.4056	0.3577	0.134
Mof_H 	H 	0.1555	0.4377	0.4186	-0.024
Mof_C 	C 	0.1022	0.4491	0.2715	-0.19
Mof_H 	H 	0.082	0.5102	0.2727	0.091
Mof_C 	C 	0.1186	0.318	0.1882	-0.27
Mof_H 	H 	0.1101	0.2836	0.1289	0.107
Mof_C 	C 	0.1609	0.278	0.2739	0.24
Mof_H 	H 	0.1819	0.218	0.2716	-0.063
Mof_C 	C 	0.3742	0.189	0.458	0.205
Mof_H 	H 	0.3832	0.1447	0.5107	-0.046
Mof_C 	C 	0.4162	0.186	0.414	-0.27
Mof_H 	H 	0.4516	0.1388	0.4361	0.125
Mof_C 	C 	0.374	0.333	0.336	-0.178
Mof_H 	H 	0.3805	0.3902	0.3051	0.084
Mof_C 	C 	0.3268	0.331	0.381	0.102
Mof_H 	H 	0.2987	0.3861	0.3737	-0.02
Mof_C 	C 	0.2158	0.0365	0.4033	0.008
Mof_Se	Se	0.2129	0.9218	0.3482	0.012
Mof_Se	Se	0.74531	0.39711	0.4313	-0.007
Mof_C 	C 	0.7273	0.5248	0.4399	0.034
Mof_N 	N 	0.6754	0.8147	0.359	-0.193
Mof_N 	N 	0.8226	0.7473	0.4345	-0.193
Mof_N 	N 	0.7186	0.6082	0.4434	-0.188
Mof_C 	C 	0.6954	0.8919	0.3241	-0.051
Mof_H 	H 	0.7399	0.9159	0.361	0.04
Mof_C 	C 	0.6546	0.9381	0.237	-0.013
Mof_H 	H 	0.6707	0.9925	0.2143	0.029
Mof_C 	C 	0.5702	0.8219	0.2144	0.034
Mof_H 	H 	0.5272	0.7933	0.1769	0.008
Mof_C 	C 	0.6148	0.7789	0.3039	-0.094
Mof_H 	H 	0.6008	0.7217	0.3258	0.05
Mof_C 	C 	0.5877	0.9028	0.1813	0.102
Mof_C 	C 	0.5426	0.9523	0.0879	0.004
Mof_C 	C 	0.5673	0.9844	0.0214	-0.114
Mof_H 	H 	0.6129	0.9722	0.0355	0.059
Mof_C 	C 	0.474	0.9663	0.0649	-0.117
Mof_H 	H 	0.4562	0.9422	0.1079	0.065
Mof_C 	C 	0.9313	0.7396	0.1937	-0.041
Mof_H 	H 	0.8841	0.739	0.1536	0.033
Mof_C 	C 	0.0249	0.7384	0.3504	-0.035
Mof_H 	H 	0.0431	0.7355	0.4205	0.034
Mof_C 	C 	0.9565	0.7414	0.2959	-0.046
Mof_C 	C 	0.804	0.7029	0.3442	0.003
Mof_H 	H 	0.7611	0.6725	0.3129	0.024
Mof_C 	C 	0.8458	0.7011	0.2973	-0.084
Mof_H 	H 	0.8308	0.6715	0.234	0.05
Mof_C 	C 	0.9271	0.7839	0.4344	0.05
Mof_H 	H 	0.9704	0.812	0.4695	0.005
Mof_C 	C 	0.8827	0.785	0.4759	-0.103
Mof_H 	H 	0.8968	0.8151	0.5387	0.054
Mof_C 	C 	0.9099	0.7429	0.3433	0.157
Mof_C 	C 	0.6454	0.9056	0.3577	0.113
Mof_H 	H 	0.6555	0.9377	0.4186	-0.016
Mof_C 	C 	0.6022	0.9491	0.2715	-0.168
Mof_H 	H 	0.582	0.0102	0.2727	0.082
Mof_C 	C 	0.6186	0.818	0.1882	-0.24
Mof_H 	H 	0.6101	0.7836	0.1289	0.097
Mof_C 	C 	0.6609	0.778	0.2739	0.209
Mof_H 	H 	0.6819	0.718	0.2716	-0.052
Mof_C 	C 	0.8742	0.689	0.458	0.202
Mof_H 	H 	0.8832	0.6447	0.5107	-0.045
Mof_C 	C 	0.9162	0.686	0.414	-0.266
Mof_H 	H 	0.9516	0.6388	0.4361	0.124
Mof_C 	C 	0.874	0.833	0.336	-0.176
Mof_H 	H 	0.8805	0.8902	0.3051	0.083
Mof_C 	C 	0.8268	0.831	0.381	0.099
Mof_H 	H 	0.7987	0.8861	0.3737	-0.018
Mof_C 	C 	0.7158	0.5365	0.4033	0.009
Mof_Se	Se	0.7129	0.4218	0.3482	0.01
Mof_Fe	Fe	0.25	0.75	-0	0.608
Mof_Fe	Fe	0.75	0.75	0.5	0.634
Mof_Fe	Fe	0.75	0.25	-0	0.607
Mof_Fe	Fe	0.25	0.25	0.5	0.634
_end
