data_functionalizedCrystal
_audit_creation_method	'EQeq! by Chris Wilmer'
_symmetry_space_group_name_H-M	'P1'
_symmetry_Int_Tables_number	1
_symmetry_cell_setting	triclinic
loop_
_symmetry_equiv_pos_as_xyz
  x,y,z
_cell_length_a	7.2642
_cell_length_b	7.2642
_cell_length_c	8.2123
_cell_angle_alpha	90
_cell_angle_beta	90
_cell_angle_gamma	120
loop_
_atom_site_label
_atom_site_type_symbol
_atom_site_fract_x
_atom_site_fract_y
_atom_site_fract_z
_atom_site_charge
Mof_O 	O 	0.8906	0.31007	0.894	-0.288
Mof_O 	O 	0.68993	0.58053	0.894	-0.316
Mof_O 	O 	0.41947	0.1094	0.894	-0.324
Mof_O 	O 	0.1094	0.68993	0.394	-0.423
Mof_O 	O 	0.31007	0.41947	0.394	-0.462
Mof_O 	O 	0.58053	0.8906	0.394	-0.359
Mof_O 	O 	0.31007	0.8906	0.106	-0.343
Mof_O 	O 	0.58053	0.68993	0.106	-0.398
Mof_O 	O 	0.1094	0.41947	0.106	-0.416
Mof_O 	O 	0.68993	0.1094	0.606	-0.414
Mof_O 	O 	0.41947	0.31007	0.606	-0.454
Mof_O 	O 	0.8906	0.58053	0.606	-0.372
Mof_Mg	Mg	0.66667	0.33333	0.75	1.479
Mof_Mg	Mg	0.33333	0.66667	0.25	1.478
Mof_C 	C 	-3.7866e-17	0.4403	-0	0.279
Mof_H 	H 	3.7866e-17	0.5683	-0	-0.086
Mof_C 	C 	0.5597	0.5597	-0	0.36
Mof_H 	H 	0.4317	0.4317	-0	-0.108
Mof_C 	C 	0.4403	0	-0	0.237
Mof_H 	H 	0.5683	0	-0	-0.081
Mof_C 	C 	6.50777e-18	0.5597	0.5	0.435
Mof_H 	H 	-3.13582e-17	0.4317	0.5	-0.117
Mof_C 	C 	0.4403	0.4403	0.5	0.524
Mof_H 	H 	0.5683	0.5683	0.5	-0.119
Mof_C 	C 	0.5597	-8.40794e-33	0.5	0.398
Mof_H 	H 	0.4317	-8.40794e-33	0.5	-0.11
_end
