data_functionalizedCrystal
_audit_creation_method	'EQeq! by Chris Wilmer'
_symmetry_space_group_name_H-M	'P1'
_symmetry_Int_Tables_number	1
_symmetry_cell_setting	triclinic
loop_
_symmetry_equiv_pos_as_xyz
  x,y,z
_cell_length_a	18.148
_cell_length_b	9.665
_cell_length_c	30.969
_cell_angle_alpha	90
_cell_angle_beta	90.39
_cell_angle_gamma	90
loop_
_atom_site_label
_atom_site_type_symbol
_atom_site_fract_x
_atom_site_fract_y
_atom_site_fract_z
_atom_site_charge
Mof_C 	C 	0.2607	0.2184	0.2242	-0.079
Mof_C 	C 	0.3488	0.9674	0.3218	0.379
Mof_C 	C 	0.5531	0.1918	0.3152	-0.079
Mof_C 	C 	0.4196	0.0475	0.3206	-0.076
Mof_C 	C 	0.8446	0.195	0.3185	0.39
Mof_C 	C 	0.3003	0.4457	0.2474	-0.017
Mof_H 	H 	0.3315	0.5213	0.2443	0.053
Mof_C 	C 	0.0549	0.9873	0.3156	-0.079
Mof_C 	C 	0.9184	0.1194	0.3172	-0.08
Mof_C 	C 	0.2465	0.4474	0.2789	-0.074
Mof_C 	C 	0.2376	0.5661	0.3087	0.342
Mof_C 	C 	0.1271	0.9134	0.3139	0.375
Mof_C 	C 	0.6249	0.265	0.3127	0.378
Mof_C 	C 	0.1981	0.3316	0.2824	-0.018
Mof_H 	H 	0.1605	0.3321	0.3026	0.055
Mof_C 	C 	0.4445	0.0975	0.2813	-0.015
Mof_H 	H 	0.4167	0.083	0.2563	0.055
Mof_C 	C 	0.9419	0.06	0.2801	-0.013
Mof_H 	H 	0.9123	0.0635	0.2555	0.053
Mof_C 	C 	0.3223	0.5949	0.5547	0.079
Mof_H 	H 	0.362	0.56	0.5705	0.001
Mof_C 	C 	0.2074	0.2202	0.2559	-0.013
Mof_H 	H 	0.177	0.1435	0.2593	0.049
Mof_C 	C 	0.0112	0.9926	0.2784	-0.02
Mof_H 	H 	0.0273	0.9525	0.2529	0.053
Mof_C 	C 	0.3081	0.3328	0.2204	-0.012
Mof_H 	H 	0.3449	0.3325	0.1996	0.054
Mof_C 	C 	0.5106	0.1691	0.279	-0.013
Mof_H 	H 	0.5265	0.2022	0.2524	0.055
Mof_C 	C 	0.4613	0.0726	0.3568	-0.011
Mof_H 	H 	0.4451	0.0385	0.3832	0.057
Mof_C 	C 	0.9622	0.1137	0.3543	-0.017
Mof_H 	H 	0.9463	0.1544	0.3797	0.05
Mof_C 	C 	0.2155	0.7027	0.5078	-0.076
Mof_H 	H 	0.1764	0.7411	0.4924	0.076
Mof_C 	C 	0.2096	0.685	0.5521	0.049
Mof_H 	H 	0.1674	0.7155	0.5661	0.007
Mof_C 	C 	0.0299	0.0469	0.353	-0.016
Mof_H 	H 	0.0588	0.0424	0.3779	0.055
Mof_C 	C 	0.5249	0.1451	0.3557	-0.016
Mof_H 	H 	0.5504	0.1644	0.3812	0.055
Mof_C 	C 	0.2669	0.0989	0.1949	0.332
Mof_C 	C 	0.2769	0.6654	0.4867	-0.018
Mof_C 	C 	0.2839	0.6897	0.4391	0.34
Mof_C 	C 	0.3299	0.6116	0.5112	-0.09
Mof_H 	H 	0.3737	0.5843	0.4983	0.08
Mof_Co	Co	0.24838	0.77783	0.35853	1.19
Mof_Co	Co	0.75078	0.40284	0.35836	1.152
Mof_Co	Co	0.25145	0.8318	0.25126	1.199
Mof_N 	N 	0.263	0.6252	0.57475	-0.238
Mof_O 	O 	0.3092	0.969	0.28938	-0.439
Mof_O 	O 	0.656	0.2976	0.34786	-0.435
Mof_O 	O 	0.1506	0.883	0.27787	-0.433
Mof_O 	O 	0.3355	0.9023	0.35632	-0.428
Mof_O 	O 	0.8075	0.1922	0.2847	-0.437
Mof_O 	O 	0.6487	0.2825	0.27541	-0.425
Mof_O 	O 	0.1576	0.8866	0.34995	-0.437
Mof_O 	O 	0.8278	0.2531	0.35283	-0.456
Mof_O 	O 	0.272	0.6775	0.30146	-0.509
Mof_O 	O 	0.2338	0.9867	0.20392	-0.517
Mof_O 	O 	0.3019	0.1085	0.16067	-0.374
Mof_O 	O 	0.1986	0.5581	0.3409	-0.348
Mof_O 	O 	0.2332	0.7526	0.42096	-0.413
Mof_O 	O 	0.3353	0.6439	0.4191	-0.301
Mof_C 	C 	0.7393	0.7184	0.2758	-0.078
Mof_C 	C 	0.6512	0.4674	0.1782	0.38
Mof_C 	C 	0.4469	0.6918	0.1848	-0.078
Mof_C 	C 	0.5804	0.5475	0.1794	-0.075
Mof_C 	C 	0.1554	0.695	0.1815	0.391
Mof_C 	C 	0.6997	0.9457	0.2526	-0.016
Mof_H 	H 	0.6685	0.0213	0.2557	0.054
Mof_C 	C 	0.9451	0.4873	0.1844	-0.078
Mof_C 	C 	0.0816	0.6194	0.1828	-0.079
Mof_C 	C 	0.7535	0.9474	0.2211	-0.073
Mof_C 	C 	0.7624	0.0661	0.1913	0.343
Mof_C 	C 	0.8729	0.4134	0.1861	0.376
Mof_C 	C 	0.3751	0.765	0.1873	0.378
Mof_C 	C 	0.8019	0.8316	0.2176	-0.018
Mof_H 	H 	0.8395	0.8321	0.1974	0.055
Mof_C 	C 	0.5555	0.5975	0.2187	-0.016
Mof_H 	H 	0.5833	0.583	0.2437	0.055
Mof_C 	C 	0.0581	0.56	0.2199	-0.013
Mof_H 	H 	0.0877	0.5635	0.2445	0.053
Mof_C 	C 	0.6777	0.0949	0.9453	0.079
Mof_H 	H 	0.638	0.06	0.9295	0.001
Mof_C 	C 	0.7926	0.7202	0.2441	-0.013
Mof_H 	H 	0.823	0.6435	0.2407	0.049
Mof_C 	C 	0.9888	0.4926	0.2216	-0.02
Mof_H 	H 	0.9727	0.4525	0.2471	0.053
Mof_C 	C 	0.6919	0.8328	0.2796	-0.012
Mof_H 	H 	0.6551	0.8325	0.3004	0.054
Mof_C 	C 	0.4894	0.6691	0.221	-0.013
Mof_H 	H 	0.4735	0.7022	0.2476	0.055
Mof_C 	C 	0.5387	0.5726	0.1432	-0.011
Mof_H 	H 	0.5549	0.5385	0.1168	0.057
Mof_C 	C 	0.0378	0.6137	0.1457	-0.017
Mof_H 	H 	0.0537	0.6544	0.1203	0.05
Mof_C 	C 	0.7845	0.2027	0.9922	-0.075
Mof_H 	H 	0.8236	0.2411	0.0076	0.076
Mof_C 	C 	0.7904	0.185	0.9479	0.049
Mof_H 	H 	0.8326	0.2155	0.9339	0.007
Mof_C 	C 	0.9701	0.5469	0.147	-0.016
Mof_H 	H 	0.9412	0.5424	0.1221	0.055
Mof_C 	C 	0.4751	0.6451	0.1443	-0.016
Mof_H 	H 	0.4496	0.6644	0.1188	0.055
Mof_C 	C 	0.7331	0.5989	0.3051	0.332
Mof_C 	C 	0.7231	0.1654	0.0133	-0.019
Mof_C 	C 	0.7161	0.1897	0.0609	0.34
Mof_C 	C 	0.6701	0.1116	0.9888	-0.089
Mof_H 	H 	0.6263	0.0843	0.0017	0.08
Mof_Co	Co	0.75162	0.27783	0.14147	1.19
Mof_Co	Co	0.24922	0.90284	0.14164	1.152
Mof_Co	Co	0.74855	0.3318	0.24874	1.199
Mof_N 	N 	0.737	0.1252	0.92525	-0.238
Mof_O 	O 	0.6908	0.469	0.21062	-0.439
Mof_O 	O 	0.344	0.7976	0.15214	-0.435
Mof_O 	O 	0.8494	0.383	0.22213	-0.433
Mof_O 	O 	0.6645	0.4023	0.14368	-0.428
Mof_O 	O 	0.1925	0.6922	0.2153	-0.437
Mof_O 	O 	0.3513	0.7825	0.22459	-0.425
Mof_O 	O 	0.8424	0.3866	0.15005	-0.437
Mof_O 	O 	0.1722	0.7531	0.14717	-0.456
Mof_O 	O 	0.728	0.1775	0.19854	-0.509
Mof_O 	O 	0.7662	0.4867	0.29608	-0.517
Mof_O 	O 	0.6981	0.6085	0.33933	-0.374
Mof_O 	O 	0.8014	0.0581	0.1591	-0.348
Mof_O 	O 	0.7668	0.2526	0.07904	-0.413
Mof_O 	O 	0.6647	0.1439	0.0809	-0.301
Mof_C 	C 	0.7393	0.7816	0.7758	-0.078
Mof_C 	C 	0.6512	0.0326	0.6782	0.38
Mof_C 	C 	0.4469	0.8082	0.6848	-0.078
Mof_C 	C 	0.5804	0.9525	0.6794	-0.075
Mof_C 	C 	0.1554	0.805	0.6815	0.391
Mof_C 	C 	0.6997	0.5543	0.7526	-0.016
Mof_H 	H 	0.6685	0.4787	0.7557	0.054
Mof_C 	C 	0.9451	0.0127	0.6844	-0.078
Mof_C 	C 	0.0816	0.8806	0.6828	-0.079
Mof_C 	C 	0.7535	0.5526	0.7211	-0.073
Mof_C 	C 	0.7624	0.4339	0.6913	0.343
Mof_C 	C 	0.8729	0.0866	0.6861	0.376
Mof_C 	C 	0.3751	0.735	0.6873	0.378
Mof_C 	C 	0.8019	0.6684	0.7176	-0.018
Mof_H 	H 	0.8395	0.6679	0.6974	0.055
Mof_C 	C 	0.5555	0.9025	0.7187	-0.015
Mof_H 	H 	0.5833	0.917	0.7437	0.055
Mof_C 	C 	0.0581	0.94	0.7199	-0.013
Mof_H 	H 	0.0877	0.9365	0.7445	0.053
Mof_C 	C 	0.6777	0.4051	0.4453	0.079
Mof_H 	H 	0.638	0.44	0.4295	0.001
Mof_C 	C 	0.7926	0.7798	0.7441	-0.013
Mof_H 	H 	0.823	0.8565	0.7407	0.049
Mof_C 	C 	0.9888	0.0074	0.7216	-0.02
Mof_H 	H 	0.9727	0.0475	0.7471	0.053
Mof_C 	C 	0.6919	0.6672	0.7796	-0.012
Mof_H 	H 	0.6551	0.6675	0.8004	0.054
Mof_C 	C 	0.4894	0.8309	0.721	-0.013
Mof_H 	H 	0.4735	0.7978	0.7476	0.055
Mof_C 	C 	0.5387	0.9274	0.6432	-0.011
Mof_H 	H 	0.5549	0.9615	0.6168	0.057
Mof_C 	C 	0.0378	0.8863	0.6457	-0.017
Mof_H 	H 	0.0537	0.8456	0.6203	0.05
Mof_C 	C 	0.7845	0.2973	0.4922	-0.076
Mof_H 	H 	0.8236	0.2589	0.5076	0.076
Mof_C 	C 	0.7904	0.315	0.4479	0.049
Mof_H 	H 	0.8326	0.2845	0.4339	0.007
Mof_C 	C 	0.9701	0.9531	0.647	-0.016
Mof_H 	H 	0.9412	0.9576	0.6221	0.055
Mof_C 	C 	0.4751	0.8549	0.6443	-0.016
Mof_H 	H 	0.4496	0.8356	0.6188	0.055
Mof_C 	C 	0.7331	0.9011	0.8051	0.332
Mof_C 	C 	0.7231	0.3346	0.5133	-0.018
Mof_C 	C 	0.7161	0.3103	0.5609	0.34
Mof_C 	C 	0.6701	0.3884	0.4888	-0.09
Mof_H 	H 	0.6263	0.4157	0.5017	0.08
Mof_Co	Co	0.75162	0.22217	0.64147	1.19
Mof_Co	Co	0.24922	0.59716	0.64164	1.152
Mof_Co	Co	0.74855	0.1682	0.74874	1.199
Mof_N 	N 	0.737	0.3748	0.42525	-0.238
Mof_O 	O 	0.6908	0.031	0.71062	-0.439
Mof_O 	O 	0.344	0.7024	0.65214	-0.435
Mof_O 	O 	0.8494	0.117	0.72213	-0.433
Mof_O 	O 	0.6645	0.0977	0.64368	-0.428
Mof_O 	O 	0.1925	0.8078	0.7153	-0.437
Mof_O 	O 	0.3513	0.7175	0.72459	-0.425
Mof_O 	O 	0.8424	0.1134	0.65005	-0.437
Mof_O 	O 	0.1722	0.7469	0.64717	-0.456
Mof_O 	O 	0.728	0.3225	0.69854	-0.509
Mof_O 	O 	0.7662	0.0133	0.79608	-0.517
Mof_O 	O 	0.6981	0.8915	0.83933	-0.374
Mof_O 	O 	0.8014	0.4419	0.6591	-0.348
Mof_O 	O 	0.7668	0.2474	0.57904	-0.413
Mof_O 	O 	0.6647	0.3561	0.5809	-0.301
Mof_C 	C 	0.2607	0.2816	0.7242	-0.078
Mof_C 	C 	0.3488	0.5326	0.8218	0.38
Mof_C 	C 	0.5531	0.3082	0.8152	-0.078
Mof_C 	C 	0.4196	0.4525	0.8206	-0.075
Mof_C 	C 	0.8446	0.305	0.8185	0.391
Mof_C 	C 	0.3003	0.0543	0.7474	-0.016
Mof_H 	H 	0.3315	0.9787	0.7443	0.054
Mof_C 	C 	0.0549	0.5127	0.8156	-0.078
Mof_C 	C 	0.9184	0.3806	0.8172	-0.079
Mof_C 	C 	0.2465	0.0526	0.7789	-0.073
Mof_C 	C 	0.2376	0.9339	0.8087	0.343
Mof_C 	C 	0.1271	0.5866	0.8139	0.376
Mof_C 	C 	0.6249	0.235	0.8127	0.378
Mof_C 	C 	0.1981	0.1684	0.7824	-0.018
Mof_H 	H 	0.1605	0.1679	0.8026	0.055
Mof_C 	C 	0.4445	0.4025	0.7813	-0.016
Mof_H 	H 	0.4167	0.417	0.7563	0.055
Mof_C 	C 	0.9419	0.44	0.7801	-0.013
Mof_H 	H 	0.9123	0.4365	0.7555	0.053
Mof_C 	C 	0.3223	0.9051	0.0547	0.079
Mof_H 	H 	0.362	0.94	0.0705	0.001
Mof_C 	C 	0.2074	0.2798	0.7559	-0.013
Mof_H 	H 	0.177	0.3565	0.7593	0.049
Mof_C 	C 	0.0112	0.5074	0.7784	-0.02
Mof_H 	H 	0.0273	0.5475	0.7529	0.053
Mof_C 	C 	0.3081	0.1672	0.7204	-0.012
Mof_H 	H 	0.3449	0.1675	0.6996	0.054
Mof_C 	C 	0.5106	0.3309	0.779	-0.013
Mof_H 	H 	0.5265	0.2978	0.7524	0.055
Mof_C 	C 	0.4613	0.4274	0.8568	-0.011
Mof_H 	H 	0.4451	0.4615	0.8832	0.057
Mof_C 	C 	0.9622	0.3863	0.8543	-0.017
Mof_H 	H 	0.9463	0.3456	0.8797	0.05
Mof_C 	C 	0.2155	0.7973	0.0078	-0.075
Mof_H 	H 	0.1764	0.7589	0.9924	0.076
Mof_C 	C 	0.2096	0.815	0.0521	0.049
Mof_H 	H 	0.1674	0.7845	0.0661	0.007
Mof_C 	C 	0.0299	0.4531	0.853	-0.016
Mof_H 	H 	0.0588	0.4576	0.8779	0.055
Mof_C 	C 	0.5249	0.3549	0.8557	-0.016
Mof_H 	H 	0.5504	0.3356	0.8812	0.055
Mof_C 	C 	0.2669	0.4011	0.6949	0.332
Mof_C 	C 	0.2769	0.8346	0.9867	-0.019
Mof_C 	C 	0.2839	0.8103	0.9391	0.34
Mof_C 	C 	0.3299	0.8884	0.0112	-0.089
Mof_H 	H 	0.3737	0.9157	0.9983	0.08
Mof_Co	Co	0.24838	0.72217	0.85853	1.19
Mof_Co	Co	0.75078	0.09716	0.85836	1.152
Mof_Co	Co	0.25145	0.6682	0.75126	1.199
Mof_N 	N 	0.263	0.8748	0.07475	-0.238
Mof_O 	O 	0.3092	0.531	0.78938	-0.439
Mof_O 	O 	0.656	0.2024	0.84786	-0.435
Mof_O 	O 	0.1506	0.617	0.77787	-0.433
Mof_O 	O 	0.3355	0.5977	0.85632	-0.428
Mof_O 	O 	0.8075	0.3078	0.7847	-0.437
Mof_O 	O 	0.6487	0.2175	0.77541	-0.425
Mof_O 	O 	0.1576	0.6134	0.84995	-0.437
Mof_O 	O 	0.8278	0.2469	0.85283	-0.456
Mof_O 	O 	0.272	0.8225	0.80146	-0.509
Mof_O 	O 	0.2338	0.5133	0.70392	-0.517
Mof_O 	O 	0.3019	0.3915	0.66067	-0.374
Mof_O 	O 	0.1986	0.9419	0.8409	-0.348
Mof_O 	O 	0.2332	0.7474	0.92096	-0.413
Mof_O 	O 	0.3353	0.8561	0.9191	-0.301
_end
