data_functionalizedCrystal
_audit_creation_method	'EQeq! by Chris Wilmer'
_symmetry_space_group_name_H-M	'P1'
_symmetry_Int_Tables_number	1
_symmetry_cell_setting	triclinic
loop_
_symmetry_equiv_pos_as_xyz
  x,y,z
_cell_length_a	9.8294
_cell_length_b	12.1098
_cell_length_c	14.6279
_cell_angle_alpha	109.75
_cell_angle_beta	103.613
_cell_angle_gamma	100.14
loop_
_atom_site_label
_atom_site_type_symbol
_atom_site_fract_x
_atom_site_fract_y
_atom_site_fract_z
_atom_site_charge
Mof_Tb	Tb	0.2397	0.97874	0.00469	1.848
Mof_Tb	Tb	0.7603	0.02126	0.99531	1.848
Mof_H 	H 	0.5652	0.872	0.7198	0.041
Mof_H 	H 	0.2039	0.6398	0.7092	0.039
Mof_H 	H 	0.0843	0.4397	0.5578	0.046
Mof_H 	H 	0.0626	0.3158	0.3955	0.05
Mof_H 	H 	0.1577	0.266	0.246	0.047
Mof_H 	H 	0.5067	0.5058	0.2517	0.06
Mof_H 	H 	0.6281	0.7039	0.4039	0.052
Mof_H 	H 	0.6467	0.831	0.5649	0.049
Mof_H 	H 	0.1263	0.9251	0.738	0.021
Mof_H 	H 	0.7909	0.0733	0.6967	0.037
Mof_H 	H 	0.2453	0.866	0.6027	0.049
Mof_H 	H 	0.7148	0.1232	0.5422	0.046
Mof_H 	H 	0.4348	0.128	0.2802	0.04
Mof_H 	H 	0.7961	0.3602	0.2908	0.038
Mof_H 	H 	0.9157	0.5603	0.4422	0.046
Mof_H 	H 	0.9374	0.6842	0.6045	0.05
Mof_H 	H 	0.8423	0.734	0.754	0.047
Mof_H 	H 	0.4933	0.4942	0.7483	0.06
Mof_H 	H 	0.3719	0.2961	0.5961	0.052
Mof_H 	H 	0.3533	0.169	0.4351	0.049
Mof_H 	H 	0.8737	0.0749	0.262	0.021
Mof_H 	H 	0.2091	0.9267	0.3033	0.037
Mof_H 	H 	0.7547	0.134	0.3973	0.049
Mof_H 	H 	0.2852	0.8768	0.4578	0.046
Mof_C 	C 	0.4867	0.7995	0.6832	-0.013
Mof_C 	C 	0.3862	0.7677	0.7297	-0.125
Mof_C 	C 	0.2731	0.6596	0.6774	-0.012
Mof_C 	C 	0.1499	0.4643	0.5253	-0.045
Mof_C 	C 	0.1384	0.3903	0.4296	-0.065
Mof_C 	C 	0.2309	0.3421	0.2804	-0.052
Mof_C 	C 	0.3295	0.3737	0.2337	-0.054
Mof_C 	C 	0.4388	0.4851	0.284	-0.059
Mof_C 	C 	0.5607	0.6808	0.4357	-0.065
Mof_C 	C 	0.5718	0.7559	0.531	-0.045
Mof_C 	C 	0.4721	0.7244	0.5825	0.006
Mof_C 	C 	0.3594	0.6128	0.5303	0.003
Mof_C 	C 	0.2602	0.5803	0.5794	0.005
Mof_C 	C 	0.2373	0.4205	0.3776	0.03
Mof_C 	C 	0.3477	0.5347	0.4294	-0.021
Mof_C 	C 	0.4489	0.5665	0.3815	0.035
Mof_C 	C 	0.3993	0.8536	0.8354	0.47
Mof_C 	C 	0.328	0.2865	0.1303	0.334
Mof_C 	C 	0.9562	0.9995	0.732	-0.131
Mof_C 	C 	0.0639	0.9548	0.6979	-0.006
Mof_C 	C 	0.0818	0.9529	0.6058	0.006
Mof_C 	C 	0.9908	0.9996	0.5473	-0.01
Mof_C 	C 	0.8813	0.0456	0.5814	0.008
Mof_C 	C 	0.8652	0.0438	0.6736	-0.024
Mof_C 	C 	0.936	0.9995	0.8306	0.463
Mof_C 	C 	0.1882	0.9028	0.5664	-0.055
Mof_C 	C 	0.7903	0.0938	0.5208	-0.054
Mof_C 	C 	0.5133	0.2005	0.3168	-0.013
Mof_C 	C 	0.6138	0.2323	0.2703	-0.125
Mof_C 	C 	0.7269	0.3404	0.3226	-0.012
Mof_C 	C 	0.8501	0.5357	0.4747	-0.045
Mof_C 	C 	0.8616	0.6097	0.5704	-0.065
Mof_C 	C 	0.7691	0.6579	0.7196	-0.052
Mof_C 	C 	0.6705	0.6263	0.7663	-0.054
Mof_C 	C 	0.5612	0.5149	0.716	-0.059
Mof_C 	C 	0.4393	0.3192	0.5643	-0.065
Mof_C 	C 	0.4282	0.2441	0.469	-0.045
Mof_C 	C 	0.5279	0.2756	0.4175	0.006
Mof_C 	C 	0.6406	0.3872	0.4697	0.003
Mof_C 	C 	0.7398	0.4197	0.4206	0.005
Mof_C 	C 	0.7627	0.5795	0.6224	0.03
Mof_C 	C 	0.6523	0.4653	0.5706	-0.021
Mof_C 	C 	0.5511	0.4335	0.6185	0.035
Mof_C 	C 	0.6007	0.1464	0.1646	0.47
Mof_C 	C 	0.672	0.7135	0.8697	0.334
Mof_C 	C 	0.0438	0.0005	0.268	-0.131
Mof_C 	C 	0.9361	0.0452	0.3021	-0.006
Mof_C 	C 	0.9182	0.0471	0.3942	0.006
Mof_C 	C 	0.0092	0.0004	0.4527	-0.01
Mof_C 	C 	0.1187	0.9544	0.4186	0.008
Mof_C 	C 	0.1348	0.9562	0.3264	-0.024
Mof_C 	C 	0.064	0.0005	0.1694	0.463
Mof_C 	C 	0.8118	0.0972	0.4336	-0.055
Mof_C 	C 	0.2097	0.9062	0.4792	-0.054
Mof_O 	O 	0.2876	0.846	0.8631	-0.536
Mof_O 	O 	0.5202	0.9316	0.8892	-0.553
Mof_O 	O 	0.2306	0.1821	0.0901	-0.449
Mof_O 	O 	0.4164	0.3184	0.0895	-0.295
Mof_O 	O 	0.0356	0.9838	0.8925	-0.55
Mof_O 	O 	0.818	0.0152	0.8455	-0.525
Mof_O 	O 	0.7124	0.154	0.1369	-0.536
Mof_O 	O 	0.4798	0.0684	0.1108	-0.553
Mof_O 	O 	0.7694	0.8179	0.9099	-0.449
Mof_O 	O 	0.5836	0.6816	0.9105	-0.295
Mof_O 	O 	0.9644	0.0162	0.1075	-0.55
Mof_O 	O 	0.182	0.9848	0.1545	-0.525
_end
