data_functionalizedCrystal
_audit_creation_method	'EQeq! by Chris Wilmer'
_symmetry_space_group_name_H-M	'P1'
_symmetry_Int_Tables_number	1
_symmetry_cell_setting	triclinic
loop_
_symmetry_equiv_pos_as_xyz
  x,y,z
_cell_length_a	14.4979
_cell_length_b	15.4716
_cell_length_c	17.5125
_cell_angle_alpha	90
_cell_angle_beta	90
_cell_angle_gamma	90
loop_
_atom_site_label
_atom_site_type_symbol
_atom_site_fract_x
_atom_site_fract_y
_atom_site_fract_z
_atom_site_charge
Mof_Cd	Cd	0.87214	0.77297	0.95928	0.417
Mof_Cd	Cd	0.93002	0.22697	0.42415	0.362
Mof_Cd	Cd	0.12786	0.27297	0.04072	0.417
Mof_Cd	Cd	0.06998	0.72697	0.57585	0.361
Mof_Cd	Cd	0.37214	0.77297	0.54072	0.417
Mof_Cd	Cd	0.43002	0.22697	0.07585	0.361
Mof_Cd	Cd	0.62786	0.27297	0.45928	0.417
Mof_Cd	Cd	0.56998	0.72697	0.92415	0.36
Mof_H 	H 	0.1192	0.6368	0.8352	0.083
Mof_H 	H 	0.1125	0.5672	0.9855	0.051
Mof_H 	H 	0.0578	0.5297	0.9156	0.059
Mof_H 	H 	0.1939	0.4903	0.8558	0.083
Mof_H 	H 	0.338	0.5097	0.9107	0.045
Mof_H 	H 	0.2939	0.5538	0.9826	0.047
Mof_H 	H 	0.2902	0.6235	0.8332	0.088
Mof_H 	H 	0.2131	0.7028	0.9642	0.058
Mof_H 	H 	0.2153	0.7452	0.8828	0.04
Mof_H 	H 	0.891	0.7409	0.1433	0.011
Mof_H 	H 	0.899	0.6366	0.2357	0.082
Mof_H 	H 	0.8611	0.46	0.0728	0.087
Mof_H 	H 	0.8542	0.5703	0.9851	0.011
Mof_H 	H 	0.9372	0.2639	0.2461	0.012
Mof_H 	H 	0.9186	0.3663	0.1524	0.091
Mof_H 	H 	0.8468	0.5351	0.3164	0.078
Mof_H 	H 	0.8631	0.426	0.4022	0.011
Mof_H 	H 	0.8826	0.9706	0.9019	0.016
Mof_H 	H 	0.891	0.0594	0.7976	0.074
Mof_H 	H 	0.8515	0.8512	0.6655	0.079
Mof_H 	H 	0.8453	0.769	0.7739	0.014
Mof_H 	H 	0.8551	0.218	0.5946	0.008
Mof_H 	H 	0.8366	0.1329	0.6988	0.082
Mof_H 	H 	0.9306	0.9334	0.5751	0.088
Mof_H 	H 	0.9455	0.0267	0.4744	0.002
Mof_H 	H 	0.8808	0.1368	0.1648	0.082
Mof_H 	H 	0.8875	0.0672	0.0145	0.052
Mof_H 	H 	0.9422	0.0297	0.0844	0.06
Mof_H 	H 	0.8061	0.9903	0.1442	0.08
Mof_H 	H 	0.662	0.0097	0.0893	0.047
Mof_H 	H 	0.7061	0.0538	0.0174	0.048
Mof_H 	H 	0.7098	0.1235	0.1668	0.088
Mof_H 	H 	0.7869	0.2028	0.0358	0.059
Mof_H 	H 	0.7847	0.2452	0.1172	0.04
Mof_H 	H 	0.109	0.2409	0.8567	0.012
Mof_H 	H 	0.101	0.1366	0.7643	0.082
Mof_H 	H 	0.1389	0.96	0.9272	0.081
Mof_H 	H 	0.1458	0.0703	0.0149	0.013
Mof_H 	H 	0.0628	0.7639	0.7539	0.011
Mof_H 	H 	0.0814	0.8663	0.8476	0.091
Mof_H 	H 	0.1532	0.0351	0.6836	0.084
Mof_H 	H 	0.1369	0.926	0.5978	0.008
Mof_H 	H 	0.1174	0.4706	0.0981	0.014
Mof_H 	H 	0.109	0.5594	0.2024	0.078
Mof_H 	H 	0.1485	0.3512	0.3345	0.081
Mof_H 	H 	0.1547	0.269	0.2261	0.013
Mof_H 	H 	0.1449	0.718	0.4054	0.009
Mof_H 	H 	0.1634	0.6329	0.3012	0.079
Mof_H 	H 	0.0694	0.4334	0.4249	0.084
Mof_H 	H 	0.0545	0.5267	0.5256	0.004
Mof_H 	H 	0.6192	0.6368	0.6648	0.083
Mof_H 	H 	0.6125	0.5672	0.5145	0.051
Mof_H 	H 	0.5578	0.5297	0.5844	0.059
Mof_H 	H 	0.6939	0.4903	0.6442	0.083
Mof_H 	H 	0.838	0.5097	0.5893	0.045
Mof_H 	H 	0.7939	0.5538	0.5174	0.047
Mof_H 	H 	0.7902	0.6235	0.6668	0.088
Mof_H 	H 	0.7131	0.7028	0.5358	0.058
Mof_H 	H 	0.7153	0.7452	0.6172	0.04
Mof_H 	H 	0.391	0.7409	0.3567	0.011
Mof_H 	H 	0.399	0.6366	0.2643	0.082
Mof_H 	H 	0.3611	0.46	0.4272	0.087
Mof_H 	H 	0.3542	0.5703	0.5149	0.012
Mof_H 	H 	0.4372	0.2639	0.2539	0.012
Mof_H 	H 	0.4186	0.3663	0.3476	0.091
Mof_H 	H 	0.3468	0.5351	0.1836	0.078
Mof_H 	H 	0.3631	0.426	0.0978	0.011
Mof_H 	H 	0.3826	0.9706	0.5981	0.017
Mof_H 	H 	0.391	0.0594	0.7024	0.071
Mof_H 	H 	0.3515	0.8512	0.8345	0.076
Mof_H 	H 	0.3453	0.769	0.7261	0.016
Mof_H 	H 	0.3551	0.218	0.9054	0.007
Mof_H 	H 	0.3366	0.1329	0.8012	0.084
Mof_H 	H 	0.4306	0.9334	0.9249	0.092
Mof_H 	H 	0.4455	0.0267	0.0256	-0.001
Mof_H 	H 	0.3808	0.1368	0.3352	0.082
Mof_H 	H 	0.3875	0.0672	0.4855	0.053
Mof_H 	H 	0.4422	0.0297	0.4156	0.062
Mof_H 	H 	0.3061	0.9903	0.3558	0.077
Mof_H 	H 	0.162	0.0097	0.4107	0.048
Mof_H 	H 	0.2061	0.0538	0.4826	0.05
Mof_H 	H 	0.2098	0.1235	0.3332	0.088
Mof_H 	H 	0.2869	0.2028	0.4642	0.059
Mof_H 	H 	0.2847	0.2452	0.3828	0.041
Mof_H 	H 	0.609	0.2409	0.6433	0.012
Mof_H 	H 	0.601	0.1366	0.7357	0.082
Mof_H 	H 	0.6389	0.96	0.5728	0.083
Mof_H 	H 	0.6458	0.0703	0.4851	0.014
Mof_H 	H 	0.5628	0.7639	0.7461	0.011
Mof_H 	H 	0.5814	0.8663	0.6524	0.091
Mof_H 	H 	0.6532	0.0351	0.8164	0.082
Mof_H 	H 	0.6369	0.926	0.9022	0.009
Mof_H 	H 	0.6174	0.4706	0.4019	0.014
Mof_H 	H 	0.609	0.5594	0.2976	0.078
Mof_H 	H 	0.6485	0.3512	0.1655	0.081
Mof_H 	H 	0.6547	0.269	0.2739	0.013
Mof_H 	H 	0.6449	0.718	0.0946	0.009
Mof_H 	H 	0.6634	0.6329	0.1988	0.079
Mof_H 	H 	0.5694	0.4334	0.0751	0.085
Mof_H 	H 	0.5545	0.5267	0.9744	0.004
Mof_C 	C 	0.1205	0.6468	0.8904	-0.146
Mof_C 	C 	0.1145	0.5584	0.9307	-0.03
Mof_C 	C 	0.1961	0.5011	0.9109	-0.151
Mof_C 	C 	0.2875	0.5459	0.9279	-0.017
Mof_C 	C 	0.2933	0.6337	0.8883	-0.161
Mof_C 	C 	0.2112	0.6907	0.9099	-0.02
Mof_C 	C 	0.0358	0.6986	0.9115	0.309
Mof_C 	C 	0.186	0.4136	0.9511	0.336
Mof_C 	C 	0.3856	0.6771	0.9052	0.341
Mof_C 	C 	0.8849	0.6834	0.1287	0.091
Mof_C 	C 	0.8896	0.6208	0.1851	-0.145
Mof_C 	C 	0.8803	0.535	0.1655	0.065
Mof_C 	C 	0.8673	0.517	0.089	-0.137
Mof_C 	C 	0.8634	0.5837	0.0364	0.082
Mof_C 	C 	0.9186	0.3192	0.2601	0.081
Mof_C 	C 	0.909	0.381	0.2033	-0.135
Mof_C 	C 	0.8849	0.4645	0.223	0.057
Mof_C 	C 	0.8658	0.4806	0.3003	-0.131
Mof_C 	C 	0.8759	0.4145	0.3512	0.079
Mof_C 	C 	0.8765	0.9463	0.8536	0.071
Mof_C 	C 	0.8819	0.0004	0.791	-0.119
Mof_C 	C 	0.8735	0.9658	0.7179	0.045
Mof_C 	C 	0.8586	0.8773	0.7129	-0.122
Mof_C 	C 	0.8545	0.8282	0.7787	0.075
Mof_C 	C 	0.8716	0.16	0.5912	0.083
Mof_C 	C 	0.8598	0.1093	0.6538	-0.143
Mof_C 	C 	0.8822	0.0224	0.6506	0.072
Mof_C 	C 	0.9152	0.9913	0.5809	-0.152
Mof_C 	C 	0.9246	0.0485	0.5208	0.097
Mof_C 	C 	0.8795	0.1468	0.1096	-0.145
Mof_C 	C 	0.8855	0.0584	0.0693	-0.033
Mof_C 	C 	0.8039	0.0011	0.0891	-0.147
Mof_C 	C 	0.7125	0.0459	0.0721	-0.02
Mof_C 	C 	0.7067	0.1337	0.1117	-0.159
Mof_C 	C 	0.7888	0.1907	0.0901	-0.022
Mof_C 	C 	0.9642	0.1986	0.0885	0.308
Mof_C 	C 	0.814	0.9136	0.0489	0.333
Mof_C 	C 	0.6144	0.1771	0.0948	0.341
Mof_C 	C 	0.1151	0.1834	0.8713	0.09
Mof_C 	C 	0.1104	0.1208	0.8149	-0.144
Mof_C 	C 	0.1197	0.035	0.8345	0.064
Mof_C 	C 	0.1327	0.017	0.911	-0.127
Mof_C 	C 	0.1366	0.0837	0.9636	0.079
Mof_C 	C 	0.0814	0.8192	0.7399	0.082
Mof_C 	C 	0.091	0.881	0.7967	-0.137
Mof_C 	C 	0.1151	0.9645	0.777	0.058
Mof_C 	C 	0.1342	0.9806	0.6997	-0.141
Mof_C 	C 	0.1241	0.9145	0.6488	0.083
Mof_C 	C 	0.1235	0.4463	0.1464	0.079
Mof_C 	C 	0.1181	0.5004	0.209	-0.131
Mof_C 	C 	0.1265	0.4658	0.2821	0.056
Mof_C 	C 	0.1414	0.3773	0.2871	-0.129
Mof_C 	C 	0.1455	0.3282	0.2213	0.079
Mof_C 	C 	0.1284	0.66	0.4088	0.079
Mof_C 	C 	0.1402	0.6093	0.3462	-0.136
Mof_C 	C 	0.1178	0.5224	0.3494	0.062
Mof_C 	C 	0.0848	0.4913	0.4191	-0.141
Mof_C 	C 	0.0754	0.5485	0.4792	0.09
Mof_C 	C 	0.6205	0.6468	0.6096	-0.146
Mof_C 	C 	0.6145	0.5584	0.5693	-0.03
Mof_C 	C 	0.6961	0.5011	0.5891	-0.152
Mof_C 	C 	0.7875	0.5459	0.5721	-0.017
Mof_C 	C 	0.7933	0.6337	0.6117	-0.161
Mof_C 	C 	0.7112	0.6907	0.5901	-0.021
Mof_C 	C 	0.5358	0.6986	0.5885	0.309
Mof_C 	C 	0.686	0.4136	0.5489	0.336
Mof_C 	C 	0.8856	0.6771	0.5948	0.341
Mof_C 	C 	0.3849	0.6834	0.3713	0.091
Mof_C 	C 	0.3896	0.6208	0.3149	-0.145
Mof_C 	C 	0.3803	0.535	0.3345	0.064
Mof_C 	C 	0.3673	0.517	0.411	-0.136
Mof_C 	C 	0.3634	0.5837	0.4636	0.08
Mof_C 	C 	0.4186	0.3192	0.2399	0.082
Mof_C 	C 	0.409	0.381	0.2967	-0.136
Mof_C 	C 	0.3849	0.4645	0.277	0.058
Mof_C 	C 	0.3658	0.4806	0.1997	-0.131
Mof_C 	C 	0.3759	0.4145	0.1488	0.079
Mof_C 	C 	0.3765	0.9463	0.6464	0.066
Mof_C 	C 	0.3819	0.0004	0.709	-0.11
Mof_C 	C 	0.3735	0.9658	0.7821	0.036
Mof_C 	C 	0.3586	0.8773	0.7871	-0.116
Mof_C 	C 	0.3545	0.8282	0.7213	0.072
Mof_C 	C 	0.3716	0.16	0.9088	0.087
Mof_C 	C 	0.3598	0.1093	0.8462	-0.149
Mof_C 	C 	0.3822	0.0224	0.8494	0.083
Mof_C 	C 	0.4152	0.9913	0.9191	-0.164
Mof_C 	C 	0.4246	0.0485	0.9792	0.106
Mof_C 	C 	0.3795	0.1468	0.3904	-0.142
Mof_C 	C 	0.3855	0.0584	0.4307	-0.037
Mof_C 	C 	0.3039	0.0011	0.4109	-0.14
Mof_C 	C 	0.2125	0.0459	0.4279	-0.024
Mof_C 	C 	0.2067	0.1337	0.3883	-0.157
Mof_C 	C 	0.2888	0.1907	0.4099	-0.024
Mof_C 	C 	0.4642	0.1986	0.4115	0.307
Mof_C 	C 	0.314	0.9136	0.4511	0.33
Mof_C 	C 	0.1144	0.1771	0.4052	0.34
Mof_C 	C 	0.6151	0.1834	0.6287	0.09
Mof_C 	C 	0.6104	0.1208	0.6851	-0.144
Mof_C 	C 	0.6197	0.035	0.6655	0.064
Mof_C 	C 	0.6327	0.017	0.589	-0.13
Mof_C 	C 	0.6366	0.0837	0.5364	0.078
Mof_C 	C 	0.5814	0.8192	0.7601	0.082
Mof_C 	C 	0.591	0.881	0.7033	-0.137
Mof_C 	C 	0.6151	0.9645	0.723	0.058
Mof_C 	C 	0.6342	0.9806	0.8003	-0.138
Mof_C 	C 	0.6241	0.9145	0.8512	0.082
Mof_C 	C 	0.6235	0.4463	0.3536	0.079
Mof_C 	C 	0.6181	0.5004	0.291	-0.131
Mof_C 	C 	0.6265	0.4658	0.2179	0.056
Mof_C 	C 	0.6414	0.3773	0.2129	-0.129
Mof_C 	C 	0.6455	0.3282	0.2787	0.079
Mof_C 	C 	0.6284	0.66	0.0912	0.079
Mof_C 	C 	0.6402	0.6093	0.1538	-0.136
Mof_C 	C 	0.6178	0.5224	0.1506	0.062
Mof_C 	C 	0.5848	0.4913	0.0809	-0.142
Mof_C 	C 	0.5754	0.5485	0.0208	0.09
Mof_N 	N 	0.8725	0.6668	0.0564	-0.154
Mof_N 	N 	0.9028	0.3348	0.3335	-0.16
Mof_N 	N 	0.863	0.861	0.8488	-0.149
Mof_N 	N 	0.906	0.131	0.5245	-0.162
Mof_N 	N 	0.1275	0.1668	0.9436	-0.154
Mof_N 	N 	0.0972	0.8348	0.6665	-0.161
Mof_N 	N 	0.137	0.361	0.1512	-0.151
Mof_N 	N 	0.094	0.631	0.4755	-0.161
Mof_N 	N 	0.3725	0.6668	0.4436	-0.154
Mof_N 	N 	0.4028	0.3348	0.1665	-0.16
Mof_N 	N 	0.363	0.861	0.6512	-0.147
Mof_N 	N 	0.406	0.131	0.9755	-0.165
Mof_N 	N 	0.6275	0.1668	0.5564	-0.154
Mof_N 	N 	0.5972	0.8348	0.8335	-0.161
Mof_N 	N 	0.637	0.361	0.3488	-0.151
Mof_N 	N 	0.594	0.631	0.0245	-0.16
Mof_O 	O 	0.9594	0.674	0.88547	-0.282
Mof_O 	O 	0.0422	0.7623	0.9551	-0.27
Mof_O 	O 	0.1084	0.3863	0.9643	-0.295
Mof_O 	O 	0.2539	0.3729	0.9742	-0.292
Mof_O 	O 	0.4497	0.6679	0.8595	-0.3
Mof_O 	O 	0.3977	0.7179	0.9638	-0.288
Mof_O 	O 	0.0406	0.174	0.11453	-0.281
Mof_O 	O 	0.9578	0.2623	0.0449	-0.27
Mof_O 	O 	0.8916	0.8863	0.0357	-0.294
Mof_O 	O 	0.7461	0.8729	0.0258	-0.291
Mof_O 	O 	0.5503	0.1679	0.1405	-0.3
Mof_O 	O 	0.6023	0.2179	0.0362	-0.288
Mof_O 	O 	0.4594	0.674	0.61453	-0.282
Mof_O 	O 	0.5422	0.7623	0.5449	-0.27
Mof_O 	O 	0.6084	0.3863	0.5357	-0.296
Mof_O 	O 	0.7539	0.3729	0.5258	-0.292
Mof_O 	O 	0.9497	0.6679	0.6405	-0.3
Mof_O 	O 	0.8977	0.7179	0.5362	-0.288
Mof_O 	O 	0.5406	0.174	0.38547	-0.281
Mof_O 	O 	0.4578	0.2623	0.4551	-0.27
Mof_O 	O 	0.3916	0.8863	0.4643	-0.295
Mof_O 	O 	0.2461	0.8729	0.4742	-0.291
Mof_O 	O 	0.0503	0.1679	0.3595	-0.299
Mof_O 	O 	0.1023	0.2179	0.4638	-0.287
_end
