data_functionalizedCrystal
_audit_creation_method	'EQeq! by Chris Wilmer'
_symmetry_space_group_name_H-M	'P1'
_symmetry_Int_Tables_number	1
_symmetry_cell_setting	triclinic
loop_
_symmetry_equiv_pos_as_xyz
  x,y,z
_cell_length_a	26.8761
_cell_length_b	26.8761
_cell_length_c	10.0456
_cell_angle_alpha	90
_cell_angle_beta	90
_cell_angle_gamma	120
loop_
_atom_site_label
_atom_site_type_symbol
_atom_site_fract_x
_atom_site_fract_y
_atom_site_fract_z
_atom_site_charge
Mof_N 	N 	0.55882	0.00066	0.1466	-0.156
Mof_C 	C 	0.48015	0.87555	0.0053	0.078
Mof_H 	H 	0.5201	0.8959	0.0058	-0.024
Mof_C 	C 	0.45279	0.81674	0.0059	-0.15
Mof_H 	H 	0.4739	0.7979	0.0082	0.075
Mof_C 	C 	0.5958	0.0079	0.2137	-0.133
Mof_N 	N 	0.22549	0.33399	0.47993	-0.147
Mof_C 	C 	0.14682	0.20888	0.33863	0.093
Mof_H 	H 	0.18677	0.22923	0.33913	-0.024
Mof_C 	C 	0.11946	0.15007	0.33923	-0.165
Mof_H 	H 	0.14057	0.13123	0.34153	0.083
Mof_C 	C 	0.26247	0.34123	0.54703	-0.118
Mof_N 	N 	0.89215	0.66733	0.81327	-0.164
Mof_C 	C 	0.81348	0.54222	0.67197	0.087
Mof_H 	H 	0.85343	0.56257	0.67247	-0.019
Mof_C 	C 	0.78612	0.48341	0.67257	-0.151
Mof_H 	H 	0.80723	0.46457	0.67487	0.081
Mof_C 	C 	0.92913	0.67457	0.88037	-0.032
Mof_N 	N 	0.99934	0.55816	0.1466	-0.147
Mof_C 	C 	0.12445	0.6046	0.0053	0.078
Mof_H 	H 	0.1041	0.6242	0.0058	-0.028
Mof_C 	C 	0.18326	0.63605	0.0059	-0.151
Mof_H 	H 	0.2021	0.676	0.0082	0.075
Mof_C 	C 	0.9921	0.5879	0.2137	-0.125
Mof_N 	N 	0.66601	0.89149	0.47993	-0.146
Mof_C 	C 	0.79112	0.93793	0.33863	0.062
Mof_H 	H 	0.77077	0.95753	0.33913	-0.008
Mof_C 	C 	0.84993	0.96938	0.33923	-0.103
Mof_H 	H 	0.86877	0.00933	0.34153	0.053
Mof_C 	C 	0.65877	0.92123	0.54703	-0.116
Mof_N 	N 	0.33267	0.22483	0.81327	-0.162
Mof_C 	C 	0.45778	0.27127	0.67197	0.087
Mof_H 	H 	0.43743	0.29087	0.67247	-0.021
Mof_C 	C 	0.51659	0.30272	0.67257	-0.152
Mof_H 	H 	0.53543	0.34267	0.67487	0.08
Mof_C 	C 	0.32543	0.25457	0.88037	-0.046
Mof_N 	N 	0.44184	0.44118	0.1466	-0.154
Mof_C 	C 	0.3954	0.51985	0.0053	0.078
Mof_H 	H 	0.3758	0.4799	0.0058	-0.028
Mof_C 	C 	0.36395	0.54721	0.0059	-0.152
Mof_H 	H 	0.324	0.5261	0.0082	0.075
Mof_C 	C 	0.4121	0.4042	0.2137	-0.129
Mof_N 	N 	0.10851	0.77451	0.47993	-0.148
Mof_C 	C 	0.06207	0.85318	0.33863	0.098
Mof_H 	H 	0.04247	0.81323	0.33913	-0.029
Mof_C 	C 	0.03062	0.88054	0.33923	-0.179
Mof_H 	H 	0.99067	0.85943	0.34153	0.098
Mof_C 	C 	0.07877	0.73753	0.54703	-0.119
Mof_N 	N 	0.77517	0.10785	0.81327	-0.164
Mof_C 	C 	0.72873	0.18652	0.67197	0.088
Mof_H 	H 	0.70913	0.14657	0.67247	-0.022
Mof_C 	C 	0.69728	0.21388	0.67257	-0.152
Mof_H 	H 	0.65733	0.19277	0.67487	0.08
Mof_C 	C 	0.74543	0.07087	0.88037	-0.044
Mof_N 	N 	0.00066	0.55882	0.8534	-0.124
Mof_C 	C 	0.87555	0.48015	0.9947	0.091
Mof_H 	H 	0.8959	0.5201	0.9942	0.001
Mof_C 	C 	0.81674	0.45279	0.9941	-0.14
Mof_H 	H 	0.7979	0.4739	0.9918	0.088
Mof_C 	C 	0.0079	0.5958	0.7863	-0.112
Mof_N 	N 	0.66733	0.89215	0.18673	-0.161
Mof_C 	C 	0.54222	0.81348	0.32803	0.09
Mof_H 	H 	0.56257	0.85343	0.32753	-0.019
Mof_C 	C 	0.48341	0.78612	0.32743	-0.149
Mof_H 	H 	0.46457	0.80723	0.32513	0.086
Mof_C 	C 	0.67457	0.92913	0.11963	-0.089
Mof_N 	N 	0.33399	0.22549	0.52007	-0.153
Mof_C 	C 	0.20888	0.14682	0.66137	0.102
Mof_H 	H 	0.22923	0.18677	0.66087	-0.02
Mof_C 	C 	0.15007	0.11946	0.66077	-0.163
Mof_H 	H 	0.13123	0.14057	0.65847	0.093
Mof_C 	C 	0.34123	0.26247	0.45297	-0.124
Mof_N 	N 	0.55816	0.99934	0.8534	-0.115
Mof_C 	C 	0.6046	0.12445	0.9947	0.09
Mof_H 	H 	0.6242	0.1041	0.9942	-0.002
Mof_C 	C 	0.63605	0.18326	0.9941	-0.141
Mof_H 	H 	0.676	0.2021	0.9918	0.089
Mof_C 	C 	0.5879	0.9921	0.7863	-0.106
Mof_N 	N 	0.22483	0.33267	0.18673	-0.159
Mof_C 	C 	0.27127	0.45778	0.32803	0.09
Mof_H 	H 	0.29087	0.43743	0.32753	-0.021
Mof_C 	C 	0.30272	0.51659	0.32743	-0.149
Mof_H 	H 	0.34267	0.53543	0.32513	0.085
Mof_C 	C 	0.25457	0.32543	0.11963	-0.107
Mof_N 	N 	0.89149	0.66601	0.52007	-0.152
Mof_C 	C 	0.93793	0.79112	0.66137	0.073
Mof_H 	H 	0.95753	0.77077	0.66087	-0.006
Mof_C 	C 	0.96938	0.84993	0.66077	-0.104
Mof_H 	H 	0.00933	0.86877	0.65847	0.065
Mof_C 	C 	0.92123	0.65877	0.45297	-0.122
Mof_N 	N 	0.44118	0.44184	0.8534	-0.122
Mof_C 	C 	0.51985	0.3954	0.9947	0.091
Mof_H 	H 	0.4799	0.3758	0.9942	-0.001
Mof_C 	C 	0.54721	0.36395	0.9941	-0.141
Mof_H 	H 	0.5261	0.324	0.9918	0.089
Mof_C 	C 	0.4042	0.4121	0.7863	-0.109
Mof_N 	N 	0.10785	0.77517	0.18673	-0.16
Mof_C 	C 	0.18652	0.72873	0.32803	0.09
Mof_H 	H 	0.14657	0.70913	0.32753	-0.022
Mof_C 	C 	0.21388	0.69728	0.32743	-0.149
Mof_H 	H 	0.19277	0.65733	0.32513	0.084
Mof_C 	C 	0.07087	0.74543	0.11963	-0.105
Mof_N 	N 	0.77451	0.10851	0.52007	-0.154
Mof_C 	C 	0.85318	0.06207	0.66137	0.108
Mof_H 	H 	0.81323	0.04247	0.66087	-0.026
Mof_C 	C 	0.88054	0.03062	0.66077	-0.18
Mof_H 	H 	0.85943	0.99067	0.65847	0.109
Mof_C 	C 	0.73753	0.07877	0.45297	-0.126
Mof_N 	N 	0.44118	0.99934	0.8534	-0.115
Mof_C 	C 	0.51985	0.12445	0.9947	0.09
Mof_H 	H 	0.4799	0.1041	0.9942	-0.002
Mof_C 	C 	0.54721	0.18326	0.9941	-0.141
Mof_H 	H 	0.5261	0.2021	0.9918	0.089
Mof_C 	C 	0.4042	0.9921	0.7863	-0.105
Mof_N 	N 	0.10785	0.33267	0.18673	-0.16
Mof_C 	C 	0.18652	0.45778	0.32803	0.09
Mof_H 	H 	0.14657	0.43743	0.32753	-0.022
Mof_C 	C 	0.21388	0.51659	0.32743	-0.15
Mof_H 	H 	0.19277	0.53543	0.32513	0.084
Mof_C 	C 	0.07087	0.32543	0.11963	-0.105
Mof_N 	N 	0.77451	0.66601	0.52007	-0.153
Mof_C 	C 	0.85318	0.79112	0.66137	0.086
Mof_H 	H 	0.81323	0.77077	0.66087	-0.015
Mof_C 	C 	0.88054	0.84993	0.66077	-0.134
Mof_H 	H 	0.85943	0.86877	0.65847	0.085
Mof_C 	C 	0.73753	0.65877	0.45297	-0.124
Mof_N 	N 	0.00066	0.44184	0.8534	-0.124
Mof_C 	C 	0.87555	0.3954	0.9947	0.091
Mof_H 	H 	0.8959	0.3758	0.9942	0.001
Mof_C 	C 	0.81674	0.36395	0.9941	-0.14
Mof_H 	H 	0.7979	0.324	0.9918	0.088
Mof_C 	C 	0.0079	0.4121	0.7863	-0.112
Mof_N 	N 	0.66733	0.77517	0.18673	-0.158
Mof_C 	C 	0.54222	0.72873	0.32803	0.09
Mof_H 	H 	0.56257	0.70913	0.32753	-0.021
Mof_C 	C 	0.48341	0.69728	0.32743	-0.149
Mof_H 	H 	0.46457	0.65733	0.32513	0.085
Mof_C 	C 	0.67457	0.74543	0.11963	-0.106
Mof_N 	N 	0.33399	0.10851	0.52007	-0.154
Mof_C 	C 	0.20888	0.06207	0.66137	0.116
Mof_H 	H 	0.22923	0.04247	0.66087	-0.029
Mof_C 	C 	0.15007	0.03062	0.66077	-0.194
Mof_H 	H 	0.13123	0.99067	0.65847	0.114
Mof_C 	C 	0.34123	0.07877	0.45297	-0.126
Mof_N 	N 	0.55816	0.55882	0.8534	-0.122
Mof_C 	C 	0.6046	0.48015	0.9947	0.091
Mof_H 	H 	0.6242	0.5201	0.9942	-0.002
Mof_C 	C 	0.63605	0.45279	0.9941	-0.141
Mof_H 	H 	0.676	0.4739	0.9918	0.089
Mof_C 	C 	0.5879	0.5958	0.7863	-0.109
Mof_N 	N 	0.22483	0.89215	0.18673	-0.161
Mof_C 	C 	0.27127	0.81348	0.32803	0.09
Mof_H 	H 	0.29087	0.85343	0.32753	-0.019
Mof_C 	C 	0.30272	0.78612	0.32743	-0.149
Mof_H 	H 	0.34267	0.80723	0.32513	0.086
Mof_C 	C 	0.25457	0.92913	0.11963	-0.089
Mof_N 	N 	0.89149	0.22549	0.52007	-0.152
Mof_C 	C 	0.93793	0.14682	0.66137	0.081
Mof_H 	H 	0.95753	0.18677	0.66087	-0.009
Mof_C 	C 	0.96938	0.11946	0.66077	-0.118
Mof_H 	H 	0.00933	0.14057	0.65847	0.069
Mof_C 	C 	0.92123	0.26247	0.45297	-0.122
Mof_N 	N 	0.99934	0.44118	0.1466	-0.147
Mof_C 	C 	0.12445	0.51985	0.0053	0.077
Mof_H 	H 	0.1041	0.4799	0.0058	-0.028
Mof_C 	C 	0.18326	0.54721	0.0059	-0.151
Mof_H 	H 	0.2021	0.5261	0.0082	0.075
Mof_C 	C 	0.9921	0.4042	0.2137	-0.125
Mof_N 	N 	0.66601	0.77451	0.47993	-0.147
Mof_C 	C 	0.79112	0.85318	0.33863	0.077
Mof_H 	H 	0.77077	0.81323	0.33913	-0.018
Mof_C 	C 	0.84993	0.88054	0.33923	-0.135
Mof_H 	H 	0.86877	0.85943	0.34153	0.074
Mof_C 	C 	0.65877	0.73753	0.54703	-0.118
Mof_N 	N 	0.33267	0.10785	0.81327	-0.164
Mof_C 	C 	0.45778	0.18652	0.67197	0.088
Mof_H 	H 	0.43743	0.14657	0.67247	-0.022
Mof_C 	C 	0.51659	0.21388	0.67257	-0.152
Mof_H 	H 	0.53543	0.19277	0.67487	0.08
Mof_C 	C 	0.32543	0.07087	0.88037	-0.044
Mof_N 	N 	0.44184	0.00066	0.1466	-0.156
Mof_C 	C 	0.3954	0.87555	0.0053	0.078
Mof_H 	H 	0.3758	0.8959	0.0058	-0.024
Mof_C 	C 	0.36395	0.81674	0.0059	-0.15
Mof_H 	H 	0.324	0.7979	0.0082	0.075
Mof_C 	C 	0.4121	0.0079	0.2137	-0.132
Mof_N 	N 	0.10851	0.33399	0.47993	-0.148
Mof_C 	C 	0.06207	0.20888	0.33863	0.106
Mof_H 	H 	0.04247	0.22923	0.33913	-0.032
Mof_C 	C 	0.03062	0.15007	0.33923	-0.195
Mof_H 	H 	0.99067	0.13123	0.34153	0.103
Mof_C 	C 	0.07877	0.34123	0.54703	-0.12
Mof_N 	N 	0.77517	0.66733	0.81327	-0.162
Mof_C 	C 	0.72873	0.54222	0.67197	0.087
Mof_H 	H 	0.70913	0.56257	0.67247	-0.021
Mof_C 	C 	0.69728	0.48341	0.67257	-0.151
Mof_H 	H 	0.65733	0.46457	0.67487	0.08
Mof_C 	C 	0.74543	0.67457	0.88037	-0.047
Mof_N 	N 	0.55882	0.55816	0.1466	-0.154
Mof_C 	C 	0.48015	0.6046	0.0053	0.078
Mof_H 	H 	0.5201	0.6242	0.0058	-0.028
Mof_C 	C 	0.45279	0.63605	0.0059	-0.152
Mof_H 	H 	0.4739	0.676	0.0082	0.075
Mof_C 	C 	0.5958	0.5879	0.2137	-0.129
Mof_N 	N 	0.22549	0.89149	0.47993	-0.146
Mof_C 	C 	0.14682	0.93793	0.33863	0.07
Mof_H 	H 	0.18677	0.95753	0.33913	-0.011
Mof_C 	C 	0.11946	0.96938	0.33923	-0.116
Mof_H 	H 	0.14057	0.00933	0.34153	0.056
Mof_C 	C 	0.26247	0.92123	0.54703	-0.116
Mof_N 	N 	0.89215	0.22483	0.81327	-0.165
Mof_C 	C 	0.81348	0.27127	0.67197	0.087
Mof_H 	H 	0.85343	0.29087	0.67247	-0.019
Mof_C 	C 	0.78612	0.30272	0.67257	-0.151
Mof_H 	H 	0.80723	0.34267	0.67487	0.081
Mof_C 	C 	0.92913	0.25457	0.88037	-0.031
Mof_N 	N 	0.45255	0.9051	0.004	-0.189
Mof_C 	C 	0.39265	0.7853	0.0031	0.055
Mof_C 	C 	0.3615	0.723	0.0031	0.09
Mof_N 	N 	0.11922	0.23843	0.33733	-0.198
Mof_C 	C 	0.05932	0.11863	0.33643	0.079
Mof_C 	C 	0.02817	0.05633	0.33643	0.07
Mof_N 	N 	0.78588	0.57177	0.67067	-0.193
Mof_C 	C 	0.72598	0.45197	0.66977	0.061
Mof_C 	C 	0.69483	0.38967	0.66977	0.091
Mof_N 	N 	0.0949	0.54745	0.004	-0.194
Mof_C 	C 	0.2147	0.60735	0.0031	0.055
Mof_C 	C 	0.277	0.6385	0.0031	0.09
Mof_N 	N 	0.76157	0.88078	0.33733	-0.186
Mof_C 	C 	0.88137	0.94068	0.33643	0.038
Mof_C 	C 	0.94367	0.97183	0.33643	0.114
Mof_N 	N 	0.42823	0.21412	0.67067	-0.193
Mof_C 	C 	0.54803	0.27402	0.66977	0.061
Mof_C 	C 	0.61033	0.30517	0.66977	0.091
Mof_N 	N 	0.45255	0.54745	0.004	-0.194
Mof_C 	C 	0.39265	0.60735	0.0031	0.056
Mof_C 	C 	0.3615	0.6385	0.0031	0.09
Mof_N 	N 	0.11922	0.88078	0.33733	-0.192
Mof_C 	C 	0.05932	0.94068	0.33643	0.057
Mof_C 	C 	0.02817	0.97183	0.33643	0.093
Mof_N 	N 	0.78588	0.21412	0.67067	-0.193
Mof_C 	C 	0.72598	0.27402	0.66977	0.061
Mof_C 	C 	0.69483	0.30517	0.66977	0.091
Mof_N 	N 	0.9051	0.45255	0.996	-0.164
Mof_C 	C 	0.7853	0.39265	0.9969	0.066
Mof_C 	C 	0.723	0.3615	0.9969	0.104
Mof_N 	N 	0.57177	0.78588	0.32933	-0.193
Mof_C 	C 	0.45197	0.72598	0.33023	0.067
Mof_C 	C 	0.38967	0.69483	0.33023	0.1
Mof_N 	N 	0.23843	0.11922	0.66267	-0.198
Mof_C 	C 	0.11863	0.05932	0.66357	0.09
Mof_C 	C 	0.05633	0.02817	0.66357	0.08
Mof_N 	N 	0.54745	0.0949	0.996	-0.169
Mof_C 	C 	0.60735	0.2147	0.9969	0.067
Mof_C 	C 	0.6385	0.277	0.9969	0.104
Mof_N 	N 	0.21412	0.42823	0.32933	-0.193
Mof_C 	C 	0.27402	0.54803	0.33023	0.067
Mof_C 	C 	0.30517	0.61033	0.33023	0.1
Mof_N 	N 	0.88078	0.76157	0.66267	-0.186
Mof_C 	C 	0.94068	0.88137	0.66357	0.05
Mof_C 	C 	0.97183	0.94367	0.66357	0.122
Mof_N 	N 	0.54745	0.45255	0.996	-0.169
Mof_C 	C 	0.60735	0.39265	0.9969	0.067
Mof_C 	C 	0.6385	0.3615	0.9969	0.103
Mof_N 	N 	0.21412	0.78588	0.32933	-0.193
Mof_C 	C 	0.27402	0.72598	0.33023	0.067
Mof_C 	C 	0.30517	0.69483	0.33023	0.1
Mof_N 	N 	0.88078	0.11922	0.66267	-0.192
Mof_C 	C 	0.94068	0.05932	0.66357	0.07
Mof_C 	C 	0.97183	0.02817	0.66357	0.101
Mof_Ag	Ag	0.66667	0.03504	0.33333	0.385
Mof_Ag	Ag	0.96496	0.63162	0.33333	0.414
Mof_Ag	Ag	0.36838	0.33333	0.33333	0.397
Mof_Ag	Ag	0.03504	0.66667	0.66667	0.444
Mof_Ag	Ag	0.70171	0	-0	0.255
Mof_Ag	Ag	0.63162	0.96496	0.66667	0.474
Mof_Ag	Ag	0.29829	0.29829	-0	0.282
Mof_Ag	Ag	0.33333	0.36838	0.66667	0.456
Mof_Ag	Ag	-0	0.70171	-0	0.259
Mof_Ag	Ag	0.33333	0.96496	0.66667	0.474
Mof_Ag	Ag	-0	0.29829	-0	0.257
Mof_Ag	Ag	0.03504	0.36838	0.66667	0.444
Mof_Ag	Ag	0.70171	0.70171	-0	0.285
Mof_Ag	Ag	0.63162	0.66667	0.66667	0.456
Mof_Ag	Ag	0.29829	0	-0	0.254
Mof_Ag	Ag	0.96496	0.33333	0.33333	0.414
Mof_Ag	Ag	0.36838	0.03504	0.33333	0.385
Mof_Ag	Ag	0.66667	0.63162	0.33333	0.397
Mof_Fe	Fe	0.5	0	-0	0.504
Mof_Fe	Fe	0.16667	0.33333	0.33333	0.611
Mof_Fe	Fe	0.83333	0.66667	0.66667	0.62
Mof_Fe	Fe	3.61827e-17	0.5	-0	0.506
Mof_Fe	Fe	0.66667	0.83333	0.33333	0.613
Mof_Fe	Fe	0.33333	0.16667	0.66667	0.619
Mof_Fe	Fe	0.5	0.5	-0	0.522
Mof_Fe	Fe	0.16667	0.83333	0.33333	0.613
Mof_Fe	Fe	0.83333	0.16667	0.66667	0.62
Mof_N 	N 	0.30391	0.69609	0.0044	-0.142
Mof_N 	N 	0.97058	0.02942	0.33773	-0.141
Mof_N 	N 	0.63724	0.36276	0.67107	-0.14
Mof_N 	N 	0.30391	0.60782	0.0044	-0.142
Mof_N 	N 	0.97058	0.94115	0.33773	-0.136
Mof_N 	N 	0.63724	0.27449	0.67107	-0.14
Mof_N 	N 	0.39218	0.69609	0.0044	-0.141
Mof_N 	N 	0.05885	0.02942	0.33773	-0.146
Mof_N 	N 	0.72551	0.36276	0.67107	-0.14
Mof_N 	N 	0.69609	0.30391	0.9956	-0.135
Mof_N 	N 	0.36276	0.63724	0.32893	-0.136
Mof_N 	N 	0.02942	0.97058	0.66227	-0.134
Mof_N 	N 	0.60782	0.30391	0.9956	-0.135
Mof_N 	N 	0.27449	0.63724	0.32893	-0.136
Mof_N 	N 	0.94115	0.97058	0.66227	-0.13
Mof_N 	N 	0.69609	0.39218	0.9956	-0.135
Mof_N 	N 	0.36276	0.72551	0.32893	-0.136
Mof_N 	N 	0.02942	0.05885	0.66227	-0.139
_end
