data_functionalizedCrystal
_audit_creation_method	'EQeq! by Chris Wilmer'
_symmetry_space_group_name_H-M	'P1'
_symmetry_Int_Tables_number	1
_symmetry_cell_setting	triclinic
loop_
_symmetry_equiv_pos_as_xyz
  x,y,z
_cell_length_a	13.958
_cell_length_b	20.529
_cell_length_c	30.682
_cell_angle_alpha	90
_cell_angle_beta	90
_cell_angle_gamma	98.82
loop_
_atom_site_label
_atom_site_type_symbol
_atom_site_fract_x
_atom_site_fract_y
_atom_site_fract_z
_atom_site_charge
Mof_Gd	Gd	0.4613	0.10437	0.31033	1.377
Mof_Gd	Gd	0.9613	0.60437	0.18967	1.377
Mof_Gd	Gd	0.97581	0.62507	0.44914	1.117
Mof_Gd	Gd	0.0387	0.39563	0.81033	1.377
Mof_Gd	Gd	0.47581	0.12507	0.05086	1.115
Mof_Gd	Gd	0.02419	0.37493	0.55086	1.117
Mof_Gd	Gd	0.52419	0.87493	0.94914	1.115
Mof_Gd	Gd	0.5387	0.89563	0.68967	1.377
Mof_Cu	Cu	0.02668	0.88862	0.31523	0.897
Mof_Cu	Cu	0.5083	0.7796	0.47799	0.899
Mof_Cu	Cu	0.50456	0.24263	0.84233	0.897
Mof_Cu	Cu	0.52668	0.38862	0.18477	0.897
Mof_Cu	Cu	0.99544	0.25737	0.34233	0.897
Mof_Cu	Cu	0.4917	0.2204	0.52201	0.899
Mof_Cu	Cu	0.0083	0.2796	0.02201	0.9
Mof_Cu	Cu	0.9917	0.7204	0.97799	0.9
Mof_Cu	Cu	0.00456	0.74263	0.65767	0.896
Mof_Cu	Cu	0.47332	0.61138	0.81523	0.896
Mof_Cu	Cu	0.49544	0.75737	0.15767	0.896
Mof_Cu	Cu	0.97332	0.11138	0.68477	0.896
Mof_H 	H 	0.1869	0.7798	0.9608	-0.003
Mof_H 	H 	0.4481	0.3125	0.1059	0.019
Mof_H 	H 	0.6839	0.7194	0.4695	0.019
Mof_H 	H 	0.3047	0.294	0.0675	0.075
Mof_H 	H 	0.2376	0.39	0.2447	0.072
Mof_H 	H 	0.8131	0.2202	0.0392	-0.003
Mof_H 	H 	0.5425	0.1132	0.5844	0.035
Mof_H 	H 	0.8047	0.794	0.4325	0.075
Mof_H 	H 	0.3014	0.2319	0.3842	0.059
Mof_H 	H 	0.9402	0.2609	0.4389	0.03
Mof_H 	H 	0.5691	0.2945	0.2532	0.021
Mof_H 	H 	0.8215	0.4107	0.1207	0.056
Mof_H 	H 	0.2003	0.7727	0.2057	0.08
Mof_H 	H 	0.3215	0.9107	0.3793	0.056
Mof_H 	H 	0.2067	0.7956	0.668	0.018
Mof_H 	H 	0.1953	0.206	0.5675	0.075
Mof_H 	H 	0.6597	0.6947	0.1788	-0.001
Mof_H 	H 	0.6986	0.7681	0.6158	0.059
Mof_H 	H 	0.9575	0.3868	0.0844	0.035
Mof_H 	H 	0.2211	0.9571	0.2939	-0.002
Mof_H 	H 	0.6869	0.2798	0.5392	-0.003
Mof_H 	H 	0.9309	0.2055	0.7532	0.021
Mof_H 	H 	0.0519	0.1875	0.6059	0.019
Mof_H 	H 	0.1597	0.1947	0.3212	-0.001
Mof_H 	H 	0.8035	0.2298	0.4812	0.064
Mof_H 	H 	0.073	0.2935	0.9271	0.029
Mof_H 	H 	0.427	0.2065	0.4271	0.029
Mof_H 	H 	0.3161	0.2806	0.5305	0.019
Mof_H 	H 	0.9082	0.6353	0.7183	0.032
Mof_H 	H 	0.3403	0.3053	0.8212	-0.001
Mof_H 	H 	0.4309	0.7055	0.7468	0.021
Mof_H 	H 	0.0598	0.7391	0.5611	0.03
Mof_H 	H 	0.927	0.7065	0.0729	0.029
Mof_H 	H 	0.7376	0.89	0.2553	0.072
Mof_H 	H 	0.2624	0.11	0.7447	0.072
Mof_H 	H 	0.4082	0.1353	0.7817	0.032
Mof_H 	H 	0.6439	0.5466	0.8263	0.01
Mof_H 	H 	0.8014	0.7319	0.1158	0.059
Mof_H 	H 	0.6785	0.0893	0.6207	0.056
Mof_H 	H 	0.7789	0.0429	0.7061	-0.002
Mof_H 	H 	0.7933	0.2044	0.332	0.018
Mof_H 	H 	0.2997	0.7273	0.7057	0.08
Mof_H 	H 	0.9481	0.8125	0.3941	0.019
Mof_H 	H 	0.7003	0.2727	0.2943	0.08
Mof_H 	H 	0.7997	0.2273	0.7943	0.08
Mof_H 	H 	0.6953	0.706	0.9325	0.075
Mof_H 	H 	0.7211	0.4571	0.2061	-0.002
Mof_H 	H 	0.1785	0.5893	0.8793	0.056
Mof_H 	H 	0.5918	0.8647	0.2183	0.032
Mof_H 	H 	0.573	0.7935	0.5729	0.029
Mof_H 	H 	0.1439	0.0466	0.6737	0.01
Mof_H 	H 	0.5519	0.6875	0.8941	0.019
Mof_H 	H 	0.1965	0.7702	0.5188	0.064
Mof_H 	H 	0.0918	0.3647	0.2817	0.032
Mof_H 	H 	0.2789	0.5429	0.7939	-0.002
Mof_H 	H 	0.0691	0.7945	0.2468	0.021
Mof_H 	H 	0.8403	0.8053	0.6788	-0.001
Mof_H 	H 	0.4575	0.8868	0.4156	0.035
Mof_H 	H 	0.7067	0.2956	0.832	0.018
Mof_H 	H 	0.3561	0.4534	0.1737	0.01
Mof_H 	H 	0.2933	0.7044	0.168	0.018
Mof_H 	H 	0.6965	0.2702	0.9812	0.064
Mof_H 	H 	0.4402	0.7609	0.0611	0.03
Mof_H 	H 	0.1839	0.2194	0.0305	0.019
Mof_H 	H 	0.3131	0.7202	0.4608	-0.003
Mof_H 	H 	0.5598	0.2391	0.9389	0.03
Mof_H 	H 	0.8561	0.9534	0.3263	0.01
Mof_H 	H 	0.0425	0.6132	0.9156	0.035
Mof_H 	H 	0.1986	0.2681	0.8842	0.059
Mof_H 	H 	0.7624	0.61	0.7553	0.072
Mof_H 	H 	0.3035	0.7298	0.0188	0.064
Mof_H 	H 	0.8161	0.7806	0.9695	0.019
Mof_C 	C 	0.2584	0.1343	0.5969	-0.002
Mof_C 	C 	0.7281	0.7709	0.0672	-0.01
Mof_C 	C 	0.3117	0.2692	0.5005	0.05
Mof_C 	C 	0.7102	0.202	0.4311	-0.006
Mof_C 	C 	0.3829	0.83	0.6396	0.32
Mof_C 	C 	0.8557	0.1659	0.62992	0.296
Mof_C 	C 	0.6225	0.7732	0.5598	0.046
Mof_C 	C 	0.1011	0.1619	0.6125	0.065
Mof_C 	C 	0.7171	0.4194	0.2243	0.075
Mof_C 	C 	0.6512	0.8561	0.4307	0.304
Mof_C 	C 	0.7672	0.7474	0.2146	-0.076
Mof_C 	C 	0.1767	0.235	0.3058	0.06
Mof_C 	C 	0.7764	0.6501	0.7395	-0.07
Mof_C 	C 	0.2096	0.1936	0.762	-0.001
Mof_C 	C 	0.2236	0.3499	0.2605	-0.07
Mof_C 	C 	0.2764	0.1501	0.7605	-0.07
Mof_C 	C 	0.6366	0.8342	0.2176	0.058
Mof_C 	C 	0.2898	0.798	0.5689	-0.006
Mof_C 	C 	0.1977	0.2583	0.9145	-0.067
Mof_C 	C 	0.6819	0.1289	0.6044	-0.061
Mof_C 	C 	0.2986	0.9095	0.2519	-0.1
Mof_C 	C 	0.8499	0.7091	0.5966	0.312
Mof_C 	C 	0.242	0.0867	0.6295	-0.069
Mof_C 	C 	0.1225	0.2732	0.9402	0.046
Mof_C 	C 	0.6501	0.7909	0.0966	0.312
Mof_C 	C 	0.2697	0.7294	0.9237	-0.074
Mof_C 	C 	0.1012	0.6434	0.9175	0.056
Mof_C 	C 	0.8179	0.5451	0.8569	0.304
Mof_C 	C 	0.8634	0.6658	0.7176	0.058
Mof_C 	C 	0.7096	0.6936	0.738	-0.001
Mof_C 	C 	0.6443	0.3341	0.12992	0.296
Mof_C 	C 	0.814	0.8275	0.4109	-0.078
Mof_C 	C 	0.2829	0.5806	0.7757	0.075
Mof_C 	C 	0.64	0.2209	0.069	0.311
Mof_C 	C 	0.2416	0.3657	0.0969	-0.002
Mof_C 	C 	0.7584	0.6343	0.9031	-0.002
Mof_C 	C 	0.3718	0.6758	0.7482	0.064
Mof_C 	C 	0.7986	0.4095	0.2481	-0.1
Mof_C 	C 	0.186	0.1725	0.5891	-0.078
Mof_C 	C 	0.758	0.9133	0.3705	-0.069
Mof_C 	C 	0.1858	0.7407	0.9442	0.057
Mof_C 	C 	0.3775	0.2268	0.4402	0.046
Mof_C 	C 	0.6171	0.17	0.3604	0.32
Mof_C 	C 	0.8753	0.3412	0.3045	0.308
Mof_C 	C 	0.2328	0.2526	0.7854	-0.076
Mof_C 	C 	0.6548	0.8118	0.9983	0.315
Mof_C 	C 	0.2922	0.806	0.6144	-0.075
Mof_C 	C 	0.1548	0.3118	0.5017	0.316
Mof_C 	C 	0.8989	0.8381	0.3875	0.065
Mof_C 	C 	0.7937	0.1891	0.7765	-0.084
Mof_C 	C 	0.8023	0.7417	0.0855	-0.067
Mof_C 	C 	0.1169	0.1821	0.7353	0.292
Mof_C 	C 	0.1224	0.6841	0.0402	0.307
Mof_C 	C 	0.3181	0.8711	0.3956	-0.061
Mof_C 	C 	0.6858	0.2407	0.5558	0.057
Mof_C 	C 	0.2672	0.2474	0.2854	-0.076
Mof_C 	C 	0.6011	0.6619	0.8875	0.065
Mof_C 	C 	0.2991	0.7256	0.0496	-0.07
Mof_C 	C 	0.6821	0.9549	0.3569	0.305
Mof_C 	C 	0.3811	0.7431	0.0749	0.044
Mof_C 	C 	0.2009	0.7744	0.5496	-0.07
Mof_C 	C 	0.1093	0.5418	0.7575	0.359
Mof_C 	C 	0.1443	0.8341	0.37008	0.296
Mof_C 	C 	0.6631	0.8007	0.7084	0.301
Mof_C 	C 	0.7063	0.3109	0.2765	-0.084
Mof_C 	C 	0.8142	0.2593	0.0558	0.057
Mof_C 	C 	0.3831	0.3179	0.2353	0.292
Mof_C 	C 	0.8181	0.3711	0.1044	-0.061
Mof_C 	C 	0.2934	0.8541	0.2252	0.006
Mof_C 	C 	0.3179	0.0451	0.6431	0.305
Mof_C 	C 	0.3452	0.1882	0.0017	0.315
Mof_C 	C 	0.314	0.3275	0.0891	-0.078
Mof_C 	C 	0.7668	0.7164	0.5227	-0.082
Mof_C 	C 	0.7416	0.8657	0.4031	-0.002
Mof_C 	C 	0.2687	0.6734	0.8977	-0.008
Mof_C 	C 	0.2904	0.3064	0.262	-0.001
Mof_C 	C 	0.2719	0.2291	0.9328	-0.01
Mof_C 	C 	0.7945	0.2109	0.3627	0.056
Mof_C 	C 	0.1883	0.2308	0.0005	0.048
Mof_C 	C 	0.14	0.7209	0.431	0.311
Mof_C 	C 	0.258	0.4133	0.1295	-0.069
Mof_C 	C 	0.6282	0.3242	0.2518	0.064
Mof_C 	C 	0.3448	0.4205	0.1518	0.057
Mof_C 	C 	0.2014	0.5905	0.7519	-0.1
Mof_C 	C 	0.2055	0.7891	0.6373	0.056
Mof_C 	C 	0.7303	0.2706	0.0763	-0.074
Mof_C 	C 	0.7009	0.2744	0.9504	-0.07
Mof_C 	C 	0.2063	0.8109	0.2235	-0.084
Mof_C 	C 	0.2332	0.2836	0.4773	-0.082
Mof_C 	C 	0.6189	0.2569	0.9251	0.044
Mof_C 	C 	0.7313	0.3266	0.1023	-0.008
Mof_C 	C 	0.8829	0.33	0.8604	0.32
Mof_C 	C 	0.36	0.7791	0.931	0.311
Mof_C 	C 	0.86	0.2791	0.569	0.311
Mof_C 	C 	0.6247	0.1588	0.8045	0.308
Mof_C 	C 	0.8907	0.4582	0.2425	0.359
Mof_C 	C 	0.3488	0.1439	0.5693	0.304
Mof_C 	C 	0.742	0.5867	0.8705	-0.069
Mof_C 	C 	0.2945	0.7109	0.1373	0.056
Mof_C 	C 	0.6224	0.1841	0.4598	0.308
Mof_C 	C 	0.2668	0.2164	0.9773	-0.08
Mof_C 	C 	0.7687	0.1734	0.6023	-0.008
Mof_C 	C 	0.8488	0.6439	0.9307	0.304
Mof_C 	C 	0.7055	0.2891	0.8627	0.056
Mof_C 	C 	0.8448	0.9205	0.3482	0.058
Mof_C 	C 	0.1366	0.3342	0.2824	0.058
Mof_C 	C 	0.1501	0.2909	0.4034	0.312
Mof_C 	C 	0.1552	0.0795	0.6518	0.058
Mof_C 	C 	0.7066	0.1459	0.7748	0.006
Mof_C 	C 	0.6977	0.7583	0.5855	-0.068
Mof_C 	C 	0.3233	0.265	0.8058	0.06
Mof_C 	C 	0.686	0.6725	0.9109	-0.078
Mof_C 	C 	0.1512	0.3561	0.0693	0.304
Mof_C 	C 	0.7991	0.2256	0.4504	-0.07
Mof_C 	C 	0.7328	0.7526	0.7146	-0.076
Mof_C 	C 	0.8811	0.2431	0.4251	0.044
Mof_C 	C 	0.2066	0.6459	0.7252	0.006
Mof_C 	C 	0.8831	0.8179	0.2647	0.292
Mof_C 	C 	0.2313	0.8266	0.3977	-0.008
Mof_C 	C 	0.3499	0.2091	0.9034	0.312
Mof_C 	C 	0.2303	0.7706	0.4237	-0.074
Mof_C 	C 	0.1247	0.6588	0.6955	0.308
Mof_C 	C 	0.8775	0.7268	0.0598	0.046
Mof_C 	C 	0.6093	0.0418	0.7425	0.36
Mof_C 	C 	0.6767	0.735	0.1942	0.06
Mof_C 	C 	0.2102	0.702	0.0689	-0.006
Mof_C 	C 	0.1171	0.67	0.1396	0.32
Mof_C 	C 	0.3907	0.9582	0.2575	0.36
Mof_C 	C 	0.6169	0.6821	0.7647	0.292
Mof_C 	C 	0.7236	0.8499	0.2395	-0.07
Mof_C 	C 	0.6552	0.5795	0.8482	0.057
Mof_C 	C 	0.7829	0.0806	0.7243	0.075
Mof_C 	C 	0.8988	0.3566	0.0825	0.056
Mof_C 	C 	0.1282	0.8242	0.2482	0.064
Mof_C 	C 	0.7904	0.8064	0.238	-0.001
Mof_C 	C 	0.7078	0.194	0.3856	-0.075
Mof_C 	C 	0.2937	0.6891	0.7235	-0.084
Mof_C 	C 	0.7934	0.3541	0.2748	0.006
Mof_C 	C 	0.7719	0.7291	0.5672	-0.009
Mof_C 	C 	0.7898	0.298	0.9311	-0.006
Mof_C 	C 	0.2171	0.9194	0.2757	0.075
Mof_C 	C 	0.8369	0.6993	0.2084	0.301
Mof_C 	C 	0.7697	0.2294	0.5763	-0.074
Mof_C 	C 	0.3753	0.8412	0.1955	0.308
Mof_C 	C 	0.7922	0.306	0.8856	-0.075
Mof_C 	C 	0.7014	0.0905	0.7481	-0.1
Mof_C 	C 	0.3557	0.6659	0.87008	0.296
Mof_C 	C 	0.1819	0.6289	0.8956	-0.061
Mof_C 	C 	0.8117	0.7692	0.9995	0.048
Mof_C 	C 	0.6883	0.7308	0.4995	0.05
Mof_C 	C 	0.2281	0.2709	0.4328	-0.009
Mof_C 	C 	0.8452	0.6882	0.4983	0.316
Mof_C 	C 	0.3023	0.2417	0.4145	-0.068
Mof_C 	C 	0.8233	0.765	0.6942	0.06
Mof_C 	C 	0.3988	0.8566	0.4175	0.056
Mof_C 	C 	0.3634	0.1658	0.7824	0.058
Mof_C 	C 	0.2078	0.694	0.1144	-0.075
Mof_C 	C 	0.3369	0.1993	0.2916	0.301
Mof_C 	C 	0.1821	0.4549	0.1431	0.304
Mof_C 	C 	0.8718	0.1758	0.7518	0.064
Mof_C 	C 	0.1631	0.3007	0.7916	0.301
Mof_C 	C 	0.8776	0.3159	0.9598	0.307
Mof_C 	C 	0.3776	0.8159	0.5402	0.308
Mof_C 	C 	0.3989	0.3381	0.1125	0.065
Mof_C 	C 	0.6012	0.1434	0.5825	0.056
Mof_C 	C 	0.3142	0.7593	0.4442	0.057
Mof_C 	C 	0.7332	0.7836	0.0227	-0.08
Mof_C 	C 	0.1189	0.7569	0.5749	0.044
Mof_N 	N 	0.6205	0.2643	0.88127	-0.21
Mof_N 	N 	0.5855	0.617	0.85603	-0.215
Mof_N 	N 	0.133	0.8778	0.27399	-0.217
Mof_N 	N 	0.0855	0.117	0.64397	-0.215
Mof_N 	N 	0.3978	0.8019	0.44138	-0.206
Mof_N 	N 	0.9145	0.883	0.35603	-0.215
Mof_N 	N 	0.8795	0.2357	0.38127	-0.21
Mof_N 	N 	0.1022	0.6981	0.94138	-0.206
Mof_N 	N 	0.367	0.6222	0.77399	-0.217
Mof_N 	N 	0.3795	0.7357	0.11873	-0.21
Mof_N 	N 	0.1205	0.7643	0.61873	-0.21
Mof_N 	N 	0.1128	0.2775	0.30462	-0.211
Mof_N 	N 	0.8829	0.7398	0.01704	-0.208
Mof_N 	N 	0.6022	0.1981	0.55862	-0.206
Mof_N 	N 	0.633	0.3778	0.22601	-0.217
Mof_N 	N 	0.3829	0.2398	0.48296	-0.209
Mof_N 	N 	0.4145	0.383	0.14397	-0.215
Mof_N 	N 	0.8978	0.3019	0.05862	-0.206
Mof_N 	N 	0.6171	0.7602	0.51704	-0.209
Mof_N 	N 	0.6128	0.7775	0.19538	-0.211
Mof_N 	N 	0.867	0.1222	0.72601	-0.217
Mof_N 	N 	0.8872	0.7225	0.69538	-0.211
Mof_N 	N 	0.1171	0.2602	0.98296	-0.208
Mof_N 	N 	0.3872	0.2225	0.80462	-0.211
Mof_O 	O 	0.9326	0.26	0.55119	-0.34
Mof_O 	O 	0.6688	0.8251	0.95835	-0.39
Mof_O 	O 	0.9615	0.3461	0.88023	-0.362
Mof_O 	O 	0.5856	0.209	0.79665	-0.376
Mof_O 	O 	0.6417	0.162	0.079	-0.386
Mof_O 	O 	0.8094	0.6393	0.21834	-0.362
Mof_O 	O 	0.9039	0.5728	0.85597	-0.242
Mof_O 	O 	0.392	0.878	0.16312	-0.28
Mof_O 	O 	0.8755	0.1087	0.63636	-0.375
Mof_O 	O 	0.0674	0.74	0.44881	-0.34
Mof_O 	O 	0.3987	0.2017	0.57055	-0.374
Mof_O 	O 	0.2119	0.5134	0.1547	-0.25
Mof_O 	O 	0.1201	0.4851	0.77053	-0.434
Mof_O 	O 	0.0916	0.2302	0.71601	-0.277
Mof_O 	O 	0.0307	0.5621	0.7505	-0.274
Mof_O 	O 	0.6245	0.3913	0.13636	-0.375
Mof_O 	O 	0.4167	0.2543	0.89203	-0.379
Mof_O 	O 	0.5818	0.7811	0.69137	-0.354
Mof_O 	O 	0.9008	0.3727	0.97245	-0.254
Mof_O 	O 	0.0961	0.4272	0.14403	-0.242
Mof_O 	O 	0.572	0.6232	0.7665	-0.367
Mof_O 	O 	0.5307	0.0621	0.7495	-0.274
Mof_O 	O 	0.428	0.3768	0.2335	-0.367
Mof_O 	O 	0.2881	0.9866	0.6547	-0.251
Mof_O 	O 	0.5961	0.9272	0.35597	-0.242
Mof_O 	O 	0.9693	0.4379	0.2495	-0.274
Mof_O 	O 	0.9186	0.2669	0.97175	-0.377
Mof_O 	O 	0.4008	0.8727	0.52755	-0.254
Mof_O 	O 	0.5916	0.7302	0.78399	-0.277
Mof_O 	O 	0.3312	0.1749	0.04165	-0.39
Mof_O 	O 	0.4144	0.791	0.20335	-0.376
Mof_O 	O 	0.1906	0.3607	0.78166	-0.362
Mof_O 	O 	0.7119	0.0134	0.3453	-0.251
Mof_O 	O 	0.4693	0.9379	0.2505	-0.274
Mof_O 	O 	0.8583	0.338	0.579	-0.386
Mof_O 	O 	0.0992	0.6273	0.02755	-0.254
Mof_O 	O 	0.3583	0.838	0.921	-0.386
Mof_O 	O 	0.1417	0.662	0.421	-0.386
Mof_O 	O 	0.5791	0.8211	0.0173	-0.359
Mof_O 	O 	0.8312	0.6749	0.45835	-0.39
Mof_O 	O 	0.4004	0.7176	0.85348	-0.282
Mof_O 	O 	0.5833	0.7457	0.10797	-0.379
Mof_O 	O 	0.0833	0.2457	0.39203	-0.378
Mof_O 	O 	0.108	0.622	0.66312	-0.28
Mof_O 	O 	0.6201	0.9851	0.72947	-0.435
Mof_O 	O 	0.1245	0.8913	0.36364	-0.375
Mof_O 	O 	0.8766	0.3332	0.81949	-0.39
Mof_O 	O 	0.8396	0.6506	0.60931	-0.271
Mof_O 	O 	0.1604	0.3494	0.39069	-0.271
Mof_O 	O 	0.9144	0.291	0.29665	-0.376
Mof_O 	O 	0.5814	0.2331	0.47175	-0.378
Mof_O 	O 	0.3766	0.8332	0.68051	-0.39
Mof_O 	O 	0.9209	0.6789	0.5173	-0.36
Mof_O 	O 	0.8799	0.5149	0.22947	-0.434
Mof_O 	O 	0.3396	0.1506	0.89069	-0.272
Mof_O 	O 	0.8684	0.5994	0.9538	-0.266
Mof_O 	O 	0.4209	0.1789	0.9827	-0.359
Mof_O 	O 	0.4084	0.2698	0.21601	-0.277
Mof_O 	O 	0.5674	0.24	0.05119	-0.341
Mof_O 	O 	0.8987	0.7017	0.92945	-0.374
Mof_O 	O 	0.3799	0.0149	0.27053	-0.435
Mof_O 	O 	0.608	0.122	0.83688	-0.28
Mof_O 	O 	0.1013	0.2983	0.07055	-0.374
Mof_O 	O 	0.4326	0.76	0.94881	-0.341
Mof_O 	O 	0.0996	0.7824	0.35348	-0.282
Mof_O 	O 	0.0385	0.6539	0.11977	-0.362
Mof_O 	O 	0.0856	0.709	0.70335	-0.376
Mof_O 	O 	0.9182	0.7189	0.19137	-0.354
Mof_O 	O 	0.0814	0.7331	0.02825	-0.377
Mof_O 	O 	0.3094	0.1393	0.28166	-0.362
Mof_O 	O 	0.5385	0.1539	0.38023	-0.362
Mof_O 	O 	0.6604	0.8494	0.10931	-0.272
Mof_O 	O 	0.6316	0.9006	0.4538	-0.266
Mof_O 	O 	0.072	0.1232	0.7335	-0.367
Mof_O 	O 	0.6906	0.8607	0.71834	-0.362
Mof_O 	O 	0.928	0.8768	0.2665	-0.367
Mof_O 	O 	0.4615	0.8461	0.61977	-0.362
Mof_O 	O 	0.6013	0.7983	0.42945	-0.374
Mof_O 	O 	0.3755	0.6087	0.86364	-0.375
Mof_O 	O 	0.892	0.378	0.33688	-0.28
Mof_O 	O 	0.9084	0.7698	0.28399	-0.277
Mof_O 	O 	0.1234	0.6668	0.18051	-0.39
Mof_O 	O 	0.4182	0.2189	0.30863	-0.354
Mof_O 	O 	0.9167	0.7543	0.60797	-0.378
Mof_O 	O 	0.9004	0.2176	0.64652	-0.282
Mof_O 	O 	0.1688	0.3251	0.54165	-0.39
Mof_O 	O 	0.4186	0.7669	0.52825	-0.378
Mof_O 	O 	0.1316	0.4006	0.0462	-0.266
Mof_O 	O 	0.0818	0.2811	0.80863	-0.354
Mof_O 	O 	0.4039	0.0728	0.64403	-0.242
Mof_O 	O 	0.0791	0.3211	0.4827	-0.36
Mof_O 	O 	0.7881	0.4866	0.8453	-0.25
Mof_O 	O 	0.5992	0.1273	0.47245	-0.254
Mof_O 	O 	0.3684	0.0994	0.5462	-0.266
Mof_O 	O 	0.5996	0.2824	0.14652	-0.282
Mof_O 	O 	0.6234	0.1668	0.31949	-0.39
_end
