data_functionalizedCrystal
_audit_creation_method	'EQeq! by Chris Wilmer'
_symmetry_space_group_name_H-M	'P1'
_symmetry_Int_Tables_number	1
_symmetry_cell_setting	triclinic
loop_
_symmetry_equiv_pos_as_xyz
  x,y,z
_cell_length_a	7.1395
_cell_length_b	14.678
_cell_length_c	15.014
_cell_angle_alpha	90
_cell_angle_beta	90
_cell_angle_gamma	90
loop_
_atom_site_label
_atom_site_type_symbol
_atom_site_fract_x
_atom_site_fract_y
_atom_site_fract_z
_atom_site_charge
Mof_Ba	Ba	0.92802	0.19409	0.43891	1.697
Mof_O 	O 	0.7943	0.2608	0.60272	-0.541
Mof_O 	O 	0.0534	0.33141	0.55707	-0.556
Mof_O 	O 	0.8444	0.6157	0.9426	-0.504
Mof_O 	O 	0.6834	0.6753	0.83	-0.473
Mof_C 	C 	0.9172	0.3228	0.6095	0.383
Mof_C 	C 	0.7801	0.614	0.8652	0.399
Mof_C 	C 	0.8983	0.4831	0.6562	-0.009
Mof_H 	H 	0.9263	0.4982	0.5975	0
Mof_C 	C 	0.8958	0.3942	0.6808	-0.186
Mof_C 	C 	0.8567	0.3701	0.7717	0.035
Mof_C 	C 	0.8542	0.2777	0.802	-0.115
Mof_H 	H 	0.8679	0.2306	0.7611	0.054
Mof_C 	C 	0.8321	0.258	0.8891	-0.013
Mof_H 	H 	0.8304	0.1975	0.9075	0.013
Mof_C 	C 	0.8118	0.3271	0.9519	-0.062
Mof_H 	H 	0.7991	0.3123	0.0119	0.035
Mof_C 	C 	0.8103	0.4159	0.9264	-0.073
Mof_H 	H 	0.7945	0.4611	0.9692	0.036
Mof_C 	C 	0.8324	0.4408	0.8356	0.01
Mof_C 	C 	0.8267	0.5342	0.8051	-0.127
Mof_C 	C 	0.8593	0.5524	0.7175	-0.043
Mof_H 	H 	0.8557	0.6125	0.6979	0.035
Mof_Ba	Ba	0.57198	0.80591	0.93891	1.703
Mof_O 	O 	0.7057	0.7392	0.10272	-0.541
Mof_O 	O 	0.4466	0.66859	0.05707	-0.56
Mof_O 	O 	0.6556	0.3843	0.4426	-0.505
Mof_O 	O 	0.8166	0.3247	0.33	-0.474
Mof_C 	C 	0.5828	0.6772	0.1095	0.386
Mof_C 	C 	0.7199	0.386	0.3652	0.399
Mof_C 	C 	0.6017	0.5169	0.1562	-0.009
Mof_H 	H 	0.5737	0.5018	0.0975	0.001
Mof_C 	C 	0.6042	0.6058	0.1808	-0.186
Mof_C 	C 	0.6433	0.6299	0.2717	0.035
Mof_C 	C 	0.6458	0.7223	0.302	-0.114
Mof_H 	H 	0.6321	0.7694	0.2611	0.055
Mof_C 	C 	0.6679	0.742	0.3891	-0.015
Mof_H 	H 	0.6696	0.8025	0.4075	0.015
Mof_C 	C 	0.6882	0.6729	0.4519	-0.059
Mof_H 	H 	0.7009	0.6877	0.5119	0.034
Mof_C 	C 	0.6897	0.5841	0.4264	-0.075
Mof_H 	H 	0.7055	0.5389	0.4692	0.037
Mof_C 	C 	0.6676	0.5592	0.3356	0.011
Mof_C 	C 	0.6733	0.4658	0.3051	-0.127
Mof_C 	C 	0.6407	0.4476	0.2175	-0.043
Mof_H 	H 	0.6443	0.3875	0.1979	0.035
Mof_Ba	Ba	0.07198	0.69409	0.06109	1.701
Mof_O 	O 	0.2057	0.7608	0.89728	-0.542
Mof_O 	O 	0.9466	0.83141	0.94293	-0.558
Mof_O 	O 	0.1556	0.1157	0.5574	-0.503
Mof_O 	O 	0.3166	0.1753	0.67	-0.474
Mof_C 	C 	0.0828	0.8228	0.8905	0.383
Mof_C 	C 	0.2199	0.114	0.6348	0.399
Mof_C 	C 	0.1017	0.9831	0.8438	-0.014
Mof_H 	H 	0.0737	0.9982	0.9025	0.001
Mof_C 	C 	0.1042	0.8942	0.8192	-0.184
Mof_C 	C 	0.1433	0.8701	0.7283	0.034
Mof_C 	C 	0.1458	0.7777	0.698	-0.114
Mof_H 	H 	0.1321	0.7306	0.7389	0.054
Mof_C 	C 	0.1679	0.758	0.6109	-0.015
Mof_H 	H 	0.1696	0.6975	0.5925	0.015
Mof_C 	C 	0.1882	0.8271	0.5481	-0.059
Mof_H 	H 	0.2009	0.8123	0.4881	0.033
Mof_C 	C 	0.1897	0.9159	0.5736	-0.074
Mof_H 	H 	0.2055	0.9611	0.5308	0.036
Mof_C 	C 	0.1676	0.9408	0.6644	0.009
Mof_C 	C 	0.1733	0.0342	0.6949	-0.127
Mof_C 	C 	0.1407	0.0524	0.7825	-0.038
Mof_H 	H 	0.1443	0.1125	0.8021	0.034
Mof_Ba	Ba	0.42802	0.30591	0.56109	1.705
Mof_O 	O 	0.2943	0.2392	0.39728	-0.541
Mof_O 	O 	0.5534	0.16859	0.44293	-0.56
Mof_O 	O 	0.3444	0.8843	0.0574	-0.504
Mof_O 	O 	0.1834	0.8247	0.17	-0.474
Mof_C 	C 	0.4172	0.1772	0.3905	0.386
Mof_C 	C 	0.2801	0.886	0.1348	0.399
Mof_C 	C 	0.3983	0.0169	0.3438	-0.009
Mof_H 	H 	0.4263	0.0018	0.4025	0
Mof_C 	C 	0.3958	0.1058	0.3192	-0.186
Mof_C 	C 	0.3567	0.1299	0.2283	0.036
Mof_C 	C 	0.3542	0.2223	0.198	-0.115
Mof_H 	H 	0.3679	0.2694	0.2389	0.055
Mof_C 	C 	0.3321	0.242	0.1109	-0.013
Mof_H 	H 	0.3304	0.3025	0.0925	0.014
Mof_C 	C 	0.3118	0.1729	0.0481	-0.062
Mof_H 	H 	0.2991	0.1877	0.9881	0.035
Mof_C 	C 	0.3103	0.0841	0.0736	-0.073
Mof_H 	H 	0.2945	0.0389	0.0308	0.036
Mof_C 	C 	0.3324	0.0592	0.1644	0.01
Mof_C 	C 	0.3267	0.9658	0.1949	-0.126
Mof_C 	C 	0.3593	0.9476	0.2825	-0.043
Mof_H 	H 	0.3557	0.8875	0.3021	0.035
_end
