data_functionalizedCrystal
_audit_creation_method	'EQeq! by Chris Wilmer'
_symmetry_space_group_name_H-M	'P1'
_symmetry_Int_Tables_number	1
_symmetry_cell_setting	triclinic
loop_
_symmetry_equiv_pos_as_xyz
  x,y,z
_cell_length_a	5.2016
_cell_length_b	13.6024
_cell_length_c	17.2394
_cell_angle_alpha	97.869
_cell_angle_beta	93.302
_cell_angle_gamma	91.828
loop_
_atom_site_label
_atom_site_type_symbol
_atom_site_fract_x
_atom_site_fract_y
_atom_site_fract_z
_atom_site_charge
Mof_Zn	Zn	0.1636	0.78326	0.65329	1.225
Mof_Zn	Zn	0.7954	0.94654	0.57309	1.225
Mof_Zn	Zn	0.2759	0.62561	0.49954	1.226
Mof_Zn	Zn	0.78	0.9965	0.90352	1.232
Mof_P 	P 	0.6909	0.87007	0.73309	0.535
Mof_P 	P 	0.249	0.85279	0.48966	0.541
Mof_P 	P 	0.8128	0.58769	0.59311	0.527
Mof_P 	P 	0.7233	0.8843	0.05105	0.522
Mof_O 	O 	0.504	0.7804	0.7012	-0.457
Mof_O 	O 	0.9619	0.8269	0.7393	-0.475
Mof_O 	O 	0.0777	0.6474	0.5972	-0.593
Mof_O 	O 	0.1189	0.8674	0.5698	-0.645
Mof_O 	O 	0.5351	0.8758	0.5008	-0.515
Mof_O 	O 	0.1108	0.9186	0.4377	-0.495
Mof_O 	O 	0.6797	0.9485	0.6785	-0.495
Mof_O 	O 	0.6335	0.6238	0.5318	-0.523
Mof_O 	O 	0.2049	0.7438	0.4516	-0.467
Mof_O 	O 	0.8626	0.4794	0.5784	-0.482
Mof_O 	O 	0.8299	0.8917	0.9715	-0.477
Mof_O 	O 	0.612	0.9141	0.814	-0.447
Mof_O 	O 	0.4377	0.9016	0.0509	-0.458
Mof_O 	O 	0.8819	0.9507	0.1157	-0.459
Mof_O 	O 	0.7052	0.6085	0.6764	-0.261
Mof_O 	O 	0.7448	0.7723	0.0666	-0.224
Mof_Zn	Zn	0.8364	0.21674	0.34671	1.224
Mof_Zn	Zn	0.2046	0.05346	0.42691	1.224
Mof_Zn	Zn	0.7241	0.37439	0.50046	1.225
Mof_Zn	Zn	0.22	0.0035	0.09648	1.231
Mof_P 	P 	0.3091	0.12993	0.26691	0.535
Mof_P 	P 	0.751	0.14721	0.51034	0.541
Mof_P 	P 	0.1872	0.41231	0.40689	0.527
Mof_P 	P 	0.2767	0.1157	0.94895	0.522
Mof_O 	O 	0.496	0.2196	0.2988	-0.457
Mof_O 	O 	0.0381	0.1731	0.2607	-0.475
Mof_O 	O 	0.9223	0.3526	0.4028	-0.593
Mof_O 	O 	0.8811	0.1326	0.4302	-0.645
Mof_O 	O 	0.4649	0.1242	0.4992	-0.515
Mof_O 	O 	0.8892	0.0814	0.5623	-0.495
Mof_O 	O 	0.3203	0.0515	0.3215	-0.495
Mof_O 	O 	0.3665	0.3762	0.4682	-0.523
Mof_O 	O 	0.7951	0.2562	0.5484	-0.467
Mof_O 	O 	0.1374	0.5206	0.4216	-0.482
Mof_O 	O 	0.1701	0.1083	0.0285	-0.477
Mof_O 	O 	0.388	0.0859	0.186	-0.447
Mof_O 	O 	0.5623	0.0984	0.9491	-0.458
Mof_O 	O 	0.1181	0.0493	0.8843	-0.459
Mof_O 	O 	0.2948	0.3915	0.3236	-0.261
Mof_O 	O 	0.2552	0.2277	0.9334	-0.224
Mof_N 	N 	0.7677	0.1968	0.1187	-0.25
Mof_N 	N 	0.731	0.746	0.3623	-0.25
Mof_C 	C 	0.694	0.3018	0.1195	-0.006
Mof_C 	C 	0.928	0.3687	0.123	-0.138
Mof_C 	C 	0.861	0.48	0.137	-0.066
Mof_C 	C 	0.746	0.5098	0.217	-0.094
Mof_C 	C 	0.784	0.617	0.2484	-0.106
Mof_C 	C 	0.65	0.6429	0.3237	-0.024
Mof_H 	H 	0.6095	0.1524	0.1155	0.103
Mof_H 	H 	0.8741	0.1909	0.168	0.122
Mof_H 	H 	0.8705	0.1769	0.0723	0.113
Mof_H 	H 	0.641	0.7624	0.4119	0.108
Mof_H 	H 	0.922	0.7498	0.3746	0.127
Mof_H 	H 	0.685	0.7945	0.3256	0.104
Mof_H 	H 	0.592	0.3219	0.1659	0.045
Mof_H 	H 	0.588	0.3079	0.0703	0.048
Mof_H 	H 	0.044	0.3555	0.1683	0.083
Mof_H 	H 	0.018	0.354	0.0733	0.08
Mof_H 	H 	0.02	0.523	0.135	0.051
Mof_H 	H 	0.731	0.492	0.095	0.052
Mof_H 	H 	0.831	0.4707	0.255	0.072
Mof_H 	H 	0.557	0.4926	0.211	0.064
Mof_H 	H 	0.973	0.6335	0.2589	0.066
Mof_H 	H 	0.713	0.6569	0.2081	0.07
Mof_H 	H 	0.696	0.5944	0.3604	0.032
Mof_H 	H 	0.459	0.6391	0.3115	0.036
Mof_N 	N 	0.2323	0.8032	0.8813	-0.25
Mof_N 	N 	0.269	0.254	0.6377	-0.25
Mof_C 	C 	0.306	0.6982	0.8805	-0.006
Mof_C 	C 	0.072	0.6313	0.877	-0.138
Mof_C 	C 	0.139	0.52	0.863	-0.066
Mof_C 	C 	0.254	0.4902	0.783	-0.094
Mof_C 	C 	0.216	0.383	0.7516	-0.106
Mof_C 	C 	0.35	0.3571	0.6763	-0.024
Mof_H 	H 	0.3905	0.8476	0.8845	0.103
Mof_H 	H 	0.1259	0.8091	0.832	0.122
Mof_H 	H 	0.1295	0.8231	0.9277	0.113
Mof_H 	H 	0.359	0.2376	0.5881	0.108
Mof_H 	H 	0.078	0.2502	0.6254	0.127
Mof_H 	H 	0.315	0.2055	0.6744	0.104
Mof_H 	H 	0.408	0.6781	0.8341	0.045
Mof_H 	H 	0.412	0.6921	0.9297	0.048
Mof_H 	H 	0.956	0.6445	0.8317	0.083
Mof_H 	H 	0.982	0.646	0.9267	0.08
Mof_H 	H 	0.98	0.477	0.865	0.051
Mof_H 	H 	0.269	0.508	0.905	0.052
Mof_H 	H 	0.169	0.5293	0.745	0.072
Mof_H 	H 	0.443	0.5074	0.789	0.064
Mof_H 	H 	0.027	0.3665	0.7411	0.066
Mof_H 	H 	0.287	0.3431	0.7919	0.07
Mof_H 	H 	0.304	0.4056	0.6396	0.032
Mof_H 	H 	0.541	0.3609	0.6885	0.036
_end
