data_functionalizedCrystal
_audit_creation_method	'EQeq! by Chris Wilmer'
_symmetry_space_group_name_H-M	'P1'
_symmetry_Int_Tables_number	1
_symmetry_cell_setting	triclinic
loop_
_symmetry_equiv_pos_as_xyz
  x,y,z
_cell_length_a	22.8642
_cell_length_b	22.8642
_cell_length_c	22.8642
_cell_angle_alpha	109.471
_cell_angle_beta	109.471
_cell_angle_gamma	109.471
loop_
_atom_site_label
_atom_site_type_symbol
_atom_site_fract_x
_atom_site_fract_y
_atom_site_fract_z
_atom_site_charge
Mof_U 	U 	0.33337	0.9155	0.72561	0.017
Mof_U 	U 	0.18988	0.60775	0.27438	0.006
Mof_U 	U 	0.81012	0.08451	0.41788	0.007
Mof_U 	U 	0.66663	0.39224	0.58213	0.01
Mof_U 	U 	0.41787	0.81011	0.0845	0.007
Mof_U 	U 	0.58213	0.66663	0.39225	0.009
Mof_U 	U 	0.72561	0.33337	0.91549	0.016
Mof_U 	U 	0.27439	0.18989	0.60776	0.005
Mof_U 	U 	0.60776	0.27439	0.18989	0.005
Mof_U 	U 	0.9155	0.72562	0.33337	0.016
Mof_U 	U 	0.39224	0.58212	0.66663	0.009
Mof_U 	U 	0.0845	0.41787	0.81011	0.006
Mof_U 	U 	0.66663	0.0845	0.27439	0.002
Mof_U 	U 	0.81012	0.39225	0.72562	0.013
Mof_U 	U 	0.18988	0.91549	0.58212	0.012
Mof_U 	U 	0.33337	0.60776	0.41787	0.008
Mof_U 	U 	0.58213	0.18989	0.9155	0.012
Mof_U 	U 	0.41787	0.33337	0.60775	0.008
Mof_U 	U 	0.27439	0.66663	0.08451	0.002
Mof_U 	U 	0.72561	0.81011	0.39224	0.013
Mof_U 	U 	0.39224	0.72561	0.81011	0.013
Mof_U 	U 	0.0845	0.27438	0.66663	0.002
Mof_U 	U 	0.60776	0.41788	0.33337	0.008
Mof_U 	U 	0.9155	0.58213	0.18989	0.012
Mof_U 	U 	0.65109	0.13178	0.78287	0.017
Mof_U 	U 	0.34891	0.86822	0.21713	0.015
Mof_U 	U 	0.65109	0.86823	0.51931	0.02
Mof_U 	U 	0.34891	0.13177	0.48069	0.01
Mof_U 	U 	0.51931	0.65109	0.86822	0.02
Mof_U 	U 	0.48069	0.34891	0.13178	0.01
Mof_U 	U 	0.78286	0.65108	0.13177	0.017
Mof_U 	U 	0.21714	0.34892	0.86823	0.015
Mof_U 	U 	0.86822	0.21713	0.34891	0.015
Mof_U 	U 	0.13178	0.78287	0.65109	0.017
Mof_U 	U 	0.13178	0.48069	0.34892	0.01
Mof_U 	U 	0.86822	0.51931	0.65108	0.02
Mof_U 	U 	0.56706	0.93061	0.63645	0.014
Mof_U 	U 	0.29416	0.93061	0.36355	0.01
Mof_U 	U 	0.70584	0.06939	0.63645	-0.034
Mof_U 	U 	0.43294	0.06939	0.36355	-0.04
Mof_U 	U 	0.63645	0.70584	0.06939	-0.034
Mof_U 	U 	0.36355	0.43294	0.06939	-0.04
Mof_U 	U 	0.63645	0.56706	0.93061	0.014
Mof_U 	U 	0.36355	0.29416	0.93061	0.01
Mof_U 	U 	0.93061	0.36355	0.29416	0.01
Mof_U 	U 	0.93061	0.63645	0.56706	0.014
Mof_U 	U 	0.06939	0.36355	0.43294	-0.04
Mof_U 	U 	0.06939	0.63645	0.70584	-0.034
Mof_Mn	Mn	0.63424	0	-0	0.575
Mof_Mn	Mn	-0	0.63424	-0	0.575
Mof_Mn	Mn	-3.70665e-17	4.9422e-17	0.63424	0.575
Mof_Mn	Mn	0.36576	0.36576	0.36576	0.678
Mof_Mn	Mn	0.36576	0	-0	0.561
Mof_Mn	Mn	-0	0.36576	-0	0.561
Mof_Mn	Mn	-1.23555e-17	0	0.36576	0.561
Mof_Mn	Mn	0.63424	0.63424	0.63424	0.716
Mof_Mn	Mn	0.5	0	-0	0.872
Mof_Mn	Mn	2.4711e-17	0.5	-0	0.872
Mof_Mn	Mn	4.9422e-17	0	0.5	0.872
Mof_Mn	Mn	0.5	0.5	0.5	1.025
Mof_Mn	Mn	0.5	0.1418	0.6418	0.719
Mof_Mn	Mn	0.5	0.8582	0.3582	0.755
Mof_Mn	Mn	0.3582	0.5	0.8582	0.755
Mof_Mn	Mn	0.6418	0.5	0.1418	0.719
Mof_Mn	Mn	0.8582	0.3582	0.5	0.755
Mof_Mn	Mn	0.1418	0.6418	0.5	0.719
Mof_P 	P 	0.51912	0.00812	0.77572	0.384
Mof_P 	P 	0.2324	0.7434	0.22428	0.456
Mof_P 	P 	0.7676	0.99188	0.511	0.531
Mof_P 	P 	0.48088	0.2566	0.489	0.455
Mof_P 	P 	0.511	0.7676	0.99188	0.531
Mof_P 	P 	0.489	0.48088	0.2566	0.455
Mof_P 	P 	0.77572	0.51912	0.00812	0.384
Mof_P 	P 	0.22428	0.2324	0.7434	0.456
Mof_P 	P 	0.7434	0.22428	0.2324	0.456
Mof_P 	P 	0.00812	0.77572	0.51912	0.384
Mof_P 	P 	0.2566	0.489	0.48088	0.455
Mof_P 	P 	0.99188	0.511	0.7676	0.531
Mof_P 	P 	0.48088	0.99188	0.22428	0.531
Mof_P 	P 	0.7676	0.2566	0.77572	0.457
Mof_P 	P 	0.2324	0.00812	0.489	0.38
Mof_P 	P 	0.51912	0.7434	0.511	0.458
Mof_P 	P 	0.489	0.2324	0.00812	0.38
Mof_P 	P 	0.511	0.51912	0.7434	0.458
Mof_P 	P 	0.22428	0.48088	0.99188	0.531
Mof_P 	P 	0.77572	0.7676	0.2566	0.457
Mof_P 	P 	0.2566	0.77572	0.7676	0.457
Mof_P 	P 	0.99188	0.22428	0.48088	0.531
Mof_P 	P 	0.7434	0.511	0.51912	0.458
Mof_P 	P 	0.00812	0.489	0.2324	0.38
Mof_H 	H 	0.4968	0.897	0.7632	0.196
Mof_H 	H 	0.5714	0.9567	0.8315	0.187
Mof_H 	H 	0.1338	0.7336	0.2368	0.198
Mof_H 	H 	0.1252	0.7399	0.1685	0.171
Mof_H 	H 	0.8662	0.103	0.5998	0.225
Mof_H 	H 	0.8748	0.0433	0.6147	0.191
Mof_H 	H 	0.5032	0.2664	0.4002	0.2
Mof_H 	H 	0.4286	0.2601	0.3853	0.169
Mof_H 	H 	0.5998	0.8662	0.103	0.225
Mof_H 	H 	0.6147	0.8748	0.0433	0.191
Mof_H 	H 	0.4002	0.5032	0.2664	0.2
Mof_H 	H 	0.3853	0.4286	0.2601	0.169
Mof_H 	H 	0.7632	0.4968	0.897	0.196
Mof_H 	H 	0.8315	0.5714	0.9567	0.187
Mof_H 	H 	0.2368	0.1338	0.7336	0.198
Mof_H 	H 	0.1685	0.1252	0.7399	0.171
Mof_H 	H 	0.7336	0.2368	0.1338	0.198
Mof_H 	H 	0.7399	0.1685	0.1252	0.171
Mof_H 	H 	0.897	0.7632	0.4968	0.196
Mof_H 	H 	0.9567	0.8315	0.5714	0.187
Mof_H 	H 	0.2664	0.4002	0.5032	0.2
Mof_H 	H 	0.2601	0.3853	0.4286	0.169
Mof_H 	H 	0.103	0.5998	0.8662	0.225
Mof_H 	H 	0.0433	0.6147	0.8748	0.191
Mof_H 	H 	0.5032	0.103	0.2368	0.212
Mof_H 	H 	0.4286	0.0433	0.1685	0.174
Mof_H 	H 	0.8662	0.2664	0.7632	0.212
Mof_H 	H 	0.8748	0.2601	0.8315	0.191
Mof_H 	H 	0.1338	0.897	0.4002	0.184
Mof_H 	H 	0.1252	0.9567	0.3853	0.171
Mof_H 	H 	0.4968	0.7336	0.5998	0.21
Mof_H 	H 	0.5714	0.7399	0.6147	0.183
Mof_H 	H 	0.4002	0.1338	0.897	0.184
Mof_H 	H 	0.3853	0.1252	0.9567	0.171
Mof_H 	H 	0.5998	0.4968	0.7336	0.21
Mof_H 	H 	0.6147	0.5714	0.7399	0.183
Mof_H 	H 	0.2368	0.5032	0.103	0.212
Mof_H 	H 	0.1685	0.4286	0.0433	0.174
Mof_H 	H 	0.7632	0.8662	0.2664	0.212
Mof_H 	H 	0.8315	0.8748	0.2601	0.191
Mof_H 	H 	0.2664	0.7632	0.8662	0.212
Mof_H 	H 	0.2601	0.8315	0.8748	0.191
Mof_H 	H 	0.103	0.2368	0.5032	0.212
Mof_H 	H 	0.0433	0.1685	0.4286	0.174
Mof_H 	H 	0.7336	0.5998	0.4968	0.21
Mof_H 	H 	0.7399	0.6147	0.5714	0.183
Mof_H 	H 	0.897	0.4002	0.1338	0.184
Mof_H 	H 	0.9567	0.3853	0.1252	0.171
Mof_C 	C 	0.522	0.94433	0.80469	-0.431
Mof_C 	C 	0.48796	0.94337	0.85151	0.461
Mof_C 	C 	0.13964	0.71731	0.19531	-0.487
Mof_C 	C 	0.09186	0.63645	0.14849	0.476
Mof_C 	C 	0.86036	0.05567	0.57767	-0.548
Mof_C 	C 	0.90814	0.05663	0.54459	0.488
Mof_C 	C 	0.478	0.28269	0.42233	-0.489
Mof_C 	C 	0.51204	0.36355	0.45541	0.483
Mof_C 	C 	0.57767	0.86036	0.05567	-0.548
Mof_C 	C 	0.54459	0.90814	0.05663	0.488
Mof_C 	C 	0.42233	0.478	0.28269	-0.489
Mof_C 	C 	0.45541	0.51204	0.36355	0.483
Mof_C 	C 	0.80469	0.522	0.94433	-0.431
Mof_C 	C 	0.85151	0.48796	0.94337	0.461
Mof_C 	C 	0.19531	0.13964	0.71731	-0.487
Mof_C 	C 	0.14849	0.09186	0.63645	0.476
Mof_C 	C 	0.71731	0.19531	0.13964	-0.487
Mof_C 	C 	0.63645	0.14849	0.09186	0.476
Mof_C 	C 	0.94433	0.80469	0.522	-0.431
Mof_C 	C 	0.94337	0.85151	0.48796	0.461
Mof_C 	C 	0.28269	0.42233	0.478	-0.489
Mof_C 	C 	0.36355	0.45541	0.51204	0.483
Mof_C 	C 	0.05567	0.57767	0.86036	-0.548
Mof_C 	C 	0.05663	0.54459	0.90814	0.488
Mof_C 	C 	0.478	0.05567	0.19531	-0.545
Mof_C 	C 	0.51204	0.05663	0.14849	0.486
Mof_C 	C 	0.86036	0.28269	0.80469	-0.487
Mof_C 	C 	0.90814	0.36355	0.85151	0.472
Mof_C 	C 	0.13964	0.94433	0.42233	-0.425
Mof_C 	C 	0.09186	0.94337	0.45541	0.46
Mof_C 	C 	0.522	0.71731	0.57767	-0.498
Mof_C 	C 	0.48796	0.63645	0.54459	0.489
Mof_C 	C 	0.42233	0.13964	0.94433	-0.425
Mof_C 	C 	0.45541	0.09186	0.94337	0.46
Mof_C 	C 	0.57767	0.522	0.71731	-0.498
Mof_C 	C 	0.54459	0.48796	0.63645	0.489
Mof_C 	C 	0.19531	0.478	0.05567	-0.545
Mof_C 	C 	0.14849	0.51204	0.05663	0.486
Mof_C 	C 	0.80469	0.86036	0.28269	-0.487
Mof_C 	C 	0.85151	0.90814	0.36355	0.472
Mof_C 	C 	0.28269	0.80469	0.86036	-0.487
Mof_C 	C 	0.36355	0.85151	0.90814	0.472
Mof_C 	C 	0.05567	0.19531	0.478	-0.545
Mof_C 	C 	0.05663	0.14849	0.51204	0.486
Mof_C 	C 	0.71731	0.57767	0.522	-0.498
Mof_C 	C 	0.63645	0.54459	0.48796	0.489
Mof_C 	C 	0.94433	0.42233	0.13964	-0.425
Mof_C 	C 	0.94337	0.45541	0.09186	0.46
Mof_O 	O 	0.44431	0.9958	0.74705	-0.128
Mof_O 	O 	0.54558	0.00043	0.72177	-0.196
Mof_O 	O 	0.26297	0.83883	0.75452	-0.166
Mof_O 	O 	0.42261	0.92368	0.82493	-0.232
Mof_O 	O 	0.5273	0.96416	0.91618	-0.368
Mof_O 	O 	0.24875	0.69726	0.25295	-0.179
Mof_O 	O 	0.27866	0.82381	0.27823	-0.178
Mof_O 	O 	0.08431	0.50845	0.24548	-0.176
Mof_O 	O 	0.09875	0.59768	0.17507	-0.265
Mof_O 	O 	0.04798	0.61112	0.08382	-0.456
Mof_O 	O 	0.75125	0.0042	0.44851	-0.229
Mof_O 	O 	0.72134	0.99957	0.54515	-0.16
Mof_O 	O 	0.91569	0.16117	0.42414	-0.175
Mof_O 	O 	0.90125	0.07632	0.49893	-0.248
Mof_O 	O 	0.95202	0.03584	0.56314	-0.415
Mof_O 	O 	0.55569	0.30274	0.55149	-0.179
Mof_O 	O 	0.45442	0.17619	0.45485	-0.184
Mof_O 	O 	0.73703	0.49155	0.57586	-0.172
Mof_O 	O 	0.57739	0.40232	0.50107	-0.257
Mof_O 	O 	0.4727	0.38888	0.43686	-0.457
Mof_O 	O 	0.44851	0.75125	0.0042	-0.229
Mof_O 	O 	0.54515	0.72134	0.99957	-0.16
Mof_O 	O 	0.42414	0.91569	0.16117	-0.175
Mof_O 	O 	0.49893	0.90125	0.07632	-0.248
Mof_O 	O 	0.56314	0.95202	0.03584	-0.415
Mof_O 	O 	0.55149	0.55569	0.30274	-0.179
Mof_O 	O 	0.45485	0.45442	0.17619	-0.184
Mof_O 	O 	0.57586	0.73703	0.49155	-0.172
Mof_O 	O 	0.50107	0.57739	0.40232	-0.257
Mof_O 	O 	0.43686	0.4727	0.38888	-0.457
Mof_O 	O 	0.74705	0.44431	0.9958	-0.128
Mof_O 	O 	0.72177	0.54558	0.00043	-0.196
Mof_O 	O 	0.75452	0.26297	0.83883	-0.166
Mof_O 	O 	0.82493	0.42261	0.92368	-0.232
Mof_O 	O 	0.91618	0.5273	0.96416	-0.368
Mof_O 	O 	0.25295	0.24875	0.69726	-0.179
Mof_O 	O 	0.27823	0.27866	0.82381	-0.178
Mof_O 	O 	0.24548	0.08431	0.50845	-0.176
Mof_O 	O 	0.17507	0.09875	0.59768	-0.265
Mof_O 	O 	0.08382	0.04798	0.61112	-0.456
Mof_O 	O 	0.69726	0.25295	0.24875	-0.179
Mof_O 	O 	0.82381	0.27823	0.27866	-0.178
Mof_O 	O 	0.50845	0.24548	0.08431	-0.176
Mof_O 	O 	0.59768	0.17507	0.09875	-0.265
Mof_O 	O 	0.61112	0.08382	0.04798	-0.456
Mof_O 	O 	0.9958	0.74705	0.44431	-0.128
Mof_O 	O 	0.00043	0.72177	0.54558	-0.196
Mof_O 	O 	0.83883	0.75452	0.26297	-0.166
Mof_O 	O 	0.92368	0.82493	0.42261	-0.232
Mof_O 	O 	0.96416	0.91618	0.5273	-0.368
Mof_O 	O 	0.30274	0.55149	0.55569	-0.179
Mof_O 	O 	0.17619	0.45485	0.45442	-0.184
Mof_O 	O 	0.49155	0.57586	0.73703	-0.172
Mof_O 	O 	0.40232	0.50107	0.57739	-0.257
Mof_O 	O 	0.38888	0.43686	0.4727	-0.457
Mof_O 	O 	0.0042	0.44851	0.75125	-0.229
Mof_O 	O 	0.99957	0.54515	0.72134	-0.16
Mof_O 	O 	0.16117	0.42414	0.91569	-0.175
Mof_O 	O 	0.07632	0.49893	0.90125	-0.248
Mof_O 	O 	0.03584	0.56314	0.95202	-0.415
Mof_O 	O 	0.55569	0.0042	0.25295	-0.23
Mof_O 	O 	0.45442	0.99957	0.27823	-0.163
Mof_O 	O 	0.73703	0.16117	0.24548	-0.177
Mof_O 	O 	0.57739	0.07632	0.17507	-0.265
Mof_O 	O 	0.4727	0.03584	0.08382	-0.459
Mof_O 	O 	0.75125	0.30274	0.74705	-0.178
Mof_O 	O 	0.72134	0.17619	0.72177	-0.18
Mof_O 	O 	0.91569	0.49155	0.75452	-0.168
Mof_O 	O 	0.90125	0.40232	0.82493	-0.232
Mof_O 	O 	0.95202	0.38888	0.91618	-0.37
Mof_O 	O 	0.24875	0.9958	0.55149	-0.127
Mof_O 	O 	0.27866	0.00043	0.45485	-0.199
Mof_O 	O 	0.08431	0.83883	0.57586	-0.168
Mof_O 	O 	0.09875	0.92368	0.50107	-0.247
Mof_O 	O 	0.04798	0.96416	0.43686	-0.408
Mof_O 	O 	0.44431	0.69726	0.44851	-0.179
Mof_O 	O 	0.54558	0.82381	0.54515	-0.176
Mof_O 	O 	0.26297	0.50845	0.42414	-0.176
Mof_O 	O 	0.42261	0.59768	0.49893	-0.259
Mof_O 	O 	0.5273	0.61112	0.56314	-0.459
Mof_O 	O 	0.55149	0.24875	0.9958	-0.127
Mof_O 	O 	0.45485	0.27866	0.00043	-0.199
Mof_O 	O 	0.57586	0.08431	0.83883	-0.168
Mof_O 	O 	0.50107	0.09875	0.92368	-0.247
Mof_O 	O 	0.43686	0.04798	0.96416	-0.408
Mof_O 	O 	0.44851	0.44431	0.69726	-0.179
Mof_O 	O 	0.54515	0.54558	0.82381	-0.176
Mof_O 	O 	0.42414	0.26297	0.50845	-0.176
Mof_O 	O 	0.49893	0.42261	0.59768	-0.259
Mof_O 	O 	0.56314	0.5273	0.61112	-0.459
Mof_O 	O 	0.25295	0.55569	0.0042	-0.23
Mof_O 	O 	0.27823	0.45442	0.99957	-0.163
Mof_O 	O 	0.24548	0.73703	0.16117	-0.177
Mof_O 	O 	0.17507	0.57739	0.07632	-0.265
Mof_O 	O 	0.08382	0.4727	0.03584	-0.459
Mof_O 	O 	0.74705	0.75125	0.30274	-0.178
Mof_O 	O 	0.72177	0.72134	0.17619	-0.18
Mof_O 	O 	0.75452	0.91569	0.49155	-0.168
Mof_O 	O 	0.82493	0.90125	0.40232	-0.232
Mof_O 	O 	0.91618	0.95202	0.38888	-0.37
Mof_O 	O 	0.30274	0.74705	0.75125	-0.178
Mof_O 	O 	0.17619	0.72177	0.72134	-0.18
Mof_O 	O 	0.49155	0.75452	0.91569	-0.168
Mof_O 	O 	0.40232	0.82493	0.90125	-0.232
Mof_O 	O 	0.38888	0.91618	0.95202	-0.37
Mof_O 	O 	0.0042	0.25295	0.55569	-0.23
Mof_O 	O 	0.99957	0.27823	0.45442	-0.163
Mof_O 	O 	0.16117	0.24548	0.73703	-0.177
Mof_O 	O 	0.07632	0.17507	0.57739	-0.265
Mof_O 	O 	0.03584	0.08382	0.4727	-0.459
Mof_O 	O 	0.69726	0.44851	0.44431	-0.179
Mof_O 	O 	0.82381	0.54515	0.54558	-0.176
Mof_O 	O 	0.50845	0.42414	0.26297	-0.176
Mof_O 	O 	0.59768	0.49893	0.42261	-0.259
Mof_O 	O 	0.61112	0.56314	0.5273	-0.459
Mof_O 	O 	0.9958	0.55149	0.24875	-0.127
Mof_O 	O 	0.00043	0.45485	0.27866	-0.199
Mof_O 	O 	0.83883	0.57586	0.08431	-0.168
Mof_O 	O 	0.92368	0.50107	0.09875	-0.247
Mof_O 	O 	0.96416	0.43686	0.04798	-0.408
Mof_O 	O 	0.58204	0.1368	0.71884	-0.184
Mof_O 	O 	0.65032	0.04877	0.69909	-0.072
Mof_O 	O 	0.41796	0.8632	0.28116	-0.175
Mof_O 	O 	0.34968	0.95123	0.30091	-0.032
Mof_O 	O 	0.58204	0.8632	0.44524	-0.176
Mof_O 	O 	0.65032	0.95123	0.60155	-0.027
Mof_O 	O 	0.41796	0.1368	0.55476	-0.183
Mof_O 	O 	0.34968	0.04877	0.39845	-0.08
Mof_O 	O 	0.44524	0.58204	0.8632	-0.176
Mof_O 	O 	0.60155	0.65032	0.95123	-0.027
Mof_O 	O 	0.55476	0.41796	0.1368	-0.183
Mof_O 	O 	0.39845	0.34968	0.04877	-0.08
Mof_O 	O 	0.71884	0.58204	0.1368	-0.184
Mof_O 	O 	0.69909	0.65032	0.04877	-0.072
Mof_O 	O 	0.28116	0.41796	0.8632	-0.175
Mof_O 	O 	0.30091	0.34968	0.95123	-0.032
Mof_O 	O 	0.8632	0.28116	0.41796	-0.175
Mof_O 	O 	0.95123	0.30091	0.34968	-0.032
Mof_O 	O 	0.1368	0.71884	0.58204	-0.184
Mof_O 	O 	0.04877	0.69909	0.65032	-0.072
Mof_O 	O 	0.1368	0.55476	0.41796	-0.183
Mof_O 	O 	0.04877	0.39845	0.34968	-0.08
Mof_O 	O 	0.8632	0.44524	0.58204	-0.176
Mof_O 	O 	0.95123	0.60155	0.65032	-0.027
Mof_O 	O 	0.2146	0.86748	0.65288	-0.045
Mof_O 	O 	0.3121	0.9537	0.6416	-0.045
Mof_O 	O 	0.2146	0.56172	0.34712	-0.053
Mof_O 	O 	0.3121	0.6705	0.3584	-0.06
Mof_O 	O 	0.7854	0.13252	0.34712	-0.053
Mof_O 	O 	0.6879	0.0463	0.3584	-0.073
Mof_O 	O 	0.7854	0.43828	0.65288	-0.047
Mof_O 	O 	0.6879	0.3295	0.6416	-0.059
Mof_O 	O 	0.34712	0.7854	0.13252	-0.053
Mof_O 	O 	0.3584	0.6879	0.0463	-0.073
Mof_O 	O 	0.65288	0.7854	0.43828	-0.047
Mof_O 	O 	0.6416	0.6879	0.3295	-0.059
Mof_O 	O 	0.65288	0.2146	0.86748	-0.045
Mof_O 	O 	0.6416	0.3121	0.9537	-0.045
Mof_O 	O 	0.34712	0.2146	0.56172	-0.053
Mof_O 	O 	0.3584	0.3121	0.6705	-0.06
Mof_O 	O 	0.56172	0.34712	0.2146	-0.053
Mof_O 	O 	0.6705	0.3584	0.3121	-0.06
Mof_O 	O 	0.86748	0.65288	0.2146	-0.045
Mof_O 	O 	0.9537	0.6416	0.3121	-0.045
Mof_O 	O 	0.43828	0.65288	0.7854	-0.047
Mof_O 	O 	0.3295	0.6416	0.6879	-0.059
Mof_O 	O 	0.13252	0.34712	0.7854	-0.053
Mof_O 	O 	0.0463	0.3584	0.6879	-0.073
_end
