data_functionalizedCrystal
_audit_creation_method	'EQeq! by Chris Wilmer'
_symmetry_space_group_name_H-M	'P1'
_symmetry_Int_Tables_number	1
_symmetry_cell_setting	triclinic
loop_
_symmetry_equiv_pos_as_xyz
  x,y,z
_cell_length_a	14.754
_cell_length_b	17.038
_cell_length_c	17.038
_cell_angle_alpha	90
_cell_angle_beta	90
_cell_angle_gamma	90
loop_
_atom_site_label
_atom_site_type_symbol
_atom_site_fract_x
_atom_site_fract_y
_atom_site_fract_z
_atom_site_charge
Mof_V 	V 	0.72944	0.93567	0.929	1.755
Mof_V 	V 	0.5872	0.81604	0.94763	1.773
Mof_V 	V 	0.5855	0.03138	0.18784	1.818
Mof_V 	V 	0.62687	0.87801	0.11045	1.822
Mof_V 	V 	0.72944	0.06433	0.071	1.806
Mof_V 	V 	0.5872	0.18396	0.05237	1.803
Mof_V 	V 	0.5855	0.96862	0.81216	1.787
Mof_V 	V 	0.62687	0.12199	0.88955	1.82
Mof_V 	V 	0.27056	0.929	0.06433	1.776
Mof_V 	V 	0.4128	0.94763	0.18396	1.772
Mof_V 	V 	0.4145	0.18784	0.96862	1.786
Mof_V 	V 	0.37313	0.11045	0.12199	1.823
Mof_V 	V 	0.27056	0.071	0.93567	1.777
Mof_V 	V 	0.4128	0.05237	0.81604	1.8
Mof_V 	V 	0.4145	0.81216	0.03138	1.814
Mof_V 	V 	0.37313	0.88955	0.87801	1.819
Mof_V 	V 	0.22944	0.43567	0.571	1.787
Mof_V 	V 	0.0872	0.31604	0.55237	1.791
Mof_V 	V 	0.0855	0.53138	0.31216	1.805
Mof_V 	V 	0.12687	0.37801	0.38955	1.823
Mof_V 	V 	0.22944	0.56433	0.429	1.787
Mof_V 	V 	0.0872	0.68396	0.44763	1.791
Mof_V 	V 	0.0855	0.46862	0.68784	1.805
Mof_V 	V 	0.12687	0.62199	0.61045	1.823
Mof_V 	V 	0.77056	0.429	0.43567	1.787
Mof_V 	V 	0.9128	0.44763	0.31604	1.784
Mof_V 	V 	0.9145	0.68784	0.53138	1.798
Mof_V 	V 	0.87313	0.61045	0.37801	1.822
Mof_V 	V 	0.77056	0.571	0.56433	1.787
Mof_V 	V 	0.9128	0.55237	0.68396	1.784
Mof_V 	V 	0.9145	0.31216	0.46862	1.798
Mof_V 	V 	0.87313	0.38955	0.62199	1.822
Mof_Co	Co	0.75	0.745	0.245	1.167
Mof_Co	Co	0.75	0.255	0.755	1.167
Mof_Co	Co	0.25	0.245	0.255	1.167
Mof_Co	Co	0.25	0.755	0.745	1.166
Mof_H 	H 	0.7591	0.9196	0.2434	-0.055
Mof_H 	H 	0.8564	0.0261	0.2525	0.179
Mof_H 	H 	0.05	0.8763	0.3276	0.128
Mof_H 	H 	0.9428	0.7734	0.3088	-0.033
Mof_H 	H 	0.0529	0.2143	0.3187	-0.001
Mof_H 	H 	0.9483	0.1214	0.3174	0.068
Mof_H 	H 	0.1454	0.964	0.2675	0.006
Mof_H 	H 	0.2435	0.0699	0.2567	0.012
Mof_H 	H 	0.7591	0.0804	0.7566	0.004
Mof_H 	H 	0.8564	0.9739	0.7475	0.019
Mof_H 	H 	0.05	0.1237	0.6724	0.129
Mof_H 	H 	0.9428	0.2266	0.6912	-0.026
Mof_H 	H 	0.0529	0.7857	0.6813	-0.007
Mof_H 	H 	0.9483	0.8786	0.6826	0.064
Mof_H 	H 	0.1454	0.036	0.7325	0.16
Mof_H 	H 	0.2435	0.9301	0.7433	-0.045
Mof_H 	H 	0.2409	0.2434	0.0804	0.008
Mof_H 	H 	0.1436	0.2525	0.9739	0.015
Mof_H 	H 	0.95	0.3276	0.1237	0.074
Mof_H 	H 	0.0572	0.3088	0.2266	-0.007
Mof_H 	H 	0.9471	0.3187	0.7857	-0.033
Mof_H 	H 	0.0517	0.3174	0.8786	0.125
Mof_H 	H 	0.8546	0.2675	0.036	0.167
Mof_H 	H 	0.7565	0.2567	0.9301	-0.05
Mof_H 	H 	0.2409	0.7566	0.9196	-0.051
Mof_H 	H 	0.1436	0.7475	0.0261	0.172
Mof_H 	H 	0.95	0.6724	0.8763	0.072
Mof_H 	H 	0.0572	0.6912	0.7734	-0.013
Mof_H 	H 	0.9471	0.6813	0.2143	-0.026
Mof_H 	H 	0.0517	0.6826	0.1214	0.128
Mof_H 	H 	0.8546	0.7325	0.964	0.01
Mof_H 	H 	0.7565	0.7433	0.0699	0.007
Mof_H 	H 	0.2591	0.4196	0.2566	-0.023
Mof_H 	H 	0.3564	0.5261	0.2475	0.098
Mof_H 	H 	0.55	0.3763	0.1724	0.105
Mof_H 	H 	0.4428	0.2734	0.1912	-0.02
Mof_H 	H 	0.5529	0.7143	0.1813	-0.016
Mof_H 	H 	0.4483	0.6214	0.1826	0.1
Mof_H 	H 	0.6454	0.464	0.2325	0.088
Mof_H 	H 	0.7435	0.5699	0.2433	-0.019
Mof_H 	H 	0.2591	0.5804	0.7434	-0.023
Mof_H 	H 	0.3564	0.4739	0.7525	0.096
Mof_H 	H 	0.55	0.6237	0.8276	0.098
Mof_H 	H 	0.4428	0.7266	0.8088	-0.02
Mof_H 	H 	0.5529	0.2857	0.8187	-0.017
Mof_H 	H 	0.4483	0.3786	0.8174	0.094
Mof_H 	H 	0.6454	0.536	0.7675	0.085
Mof_H 	H 	0.7435	0.4301	0.7567	-0.02
Mof_H 	H 	0.7409	0.7434	0.4196	-0.024
Mof_H 	H 	0.6436	0.7525	0.5261	0.096
Mof_H 	H 	0.45	0.8276	0.3763	0.098
Mof_H 	H 	0.5572	0.8088	0.2734	-0.02
Mof_H 	H 	0.4471	0.8187	0.7143	-0.017
Mof_H 	H 	0.5517	0.8174	0.6214	0.093
Mof_H 	H 	0.3546	0.7675	0.464	0.085
Mof_H 	H 	0.2565	0.7567	0.5699	-0.019
Mof_H 	H 	0.7409	0.2566	0.5804	-0.023
Mof_H 	H 	0.6436	0.2475	0.4739	0.098
Mof_H 	H 	0.45	0.1724	0.6237	0.105
Mof_H 	H 	0.5572	0.1912	0.7266	-0.019
Mof_H 	H 	0.4471	0.1813	0.2857	-0.017
Mof_H 	H 	0.5517	0.1826	0.3786	0.099
Mof_H 	H 	0.3546	0.2325	0.536	0.088
Mof_H 	H 	0.2565	0.2433	0.4301	-0.018
Mof_C 	C 	0.818	0.9112	0.261	0.155
Mof_C 	C 	0.8767	0.976	0.2652	-0.289
Mof_C 	C 	0.9634	0.9638	0.2879	0.092
Mof_C 	C 	0.9919	0.8865	0.3091	-0.204
Mof_C 	C 	0.9251	0.8251	0.3002	0.121
Mof_C 	C 	0.0706	0.1636	0.3053	0.066
Mof_C 	C 	0.0082	0.1079	0.3068	-0.078
Mof_C 	C 	0.03	0.0286	0.2929	0.055
Mof_C 	C 	0.1242	0.0147	0.2755	0.007
Mof_C 	C 	0.1836	0.0791	0.2708	0.03
Mof_C 	C 	0.818	0.0888	0.739	0.044
Mof_C 	C 	0.8767	0.024	0.7348	-0.029
Mof_C 	C 	0.9634	0.0362	0.7121	0.07
Mof_C 	C 	0.9919	0.1135	0.6909	-0.171
Mof_C 	C 	0.9251	0.1749	0.6998	0.103
Mof_C 	C 	0.0706	0.8364	0.6947	0.078
Mof_C 	C 	0.0082	0.8921	0.6932	-0.103
Mof_C 	C 	0.03	0.9714	0.7071	0.06
Mof_C 	C 	0.1242	0.9853	0.7245	-0.244
Mof_C 	C 	0.1836	0.9209	0.7292	0.13
Mof_C 	C 	0.182	0.261	0.0888	0.038
Mof_C 	C 	0.1233	0.2652	0.024	-0.007
Mof_C 	C 	0.0366	0.2879	0.0362	0.067
Mof_C 	C 	0.0081	0.3091	0.1135	-0.08
Mof_C 	C 	0.0749	0.3002	0.1749	0.07
Mof_C 	C 	0.9294	0.3053	0.8364	0.131
Mof_C 	C 	0.9918	0.3068	0.8921	-0.206
Mof_C 	C 	0.97	0.2929	0.9714	0.068
Mof_C 	C 	0.8758	0.2755	0.9853	-0.264
Mof_C 	C 	0.8164	0.2708	0.9209	0.143
Mof_C 	C 	0.182	0.739	0.9112	0.143
Mof_C 	C 	0.1233	0.7348	0.976	-0.269
Mof_C 	C 	0.0366	0.7121	0.9638	0.084
Mof_C 	C 	0.0081	0.6909	0.8865	-0.114
Mof_C 	C 	0.0749	0.6998	0.8251	0.085
Mof_C 	C 	0.9294	0.6947	0.1636	0.115
Mof_C 	C 	0.9918	0.6932	0.1079	-0.181
Mof_C 	C 	0.97	0.7071	0.0286	0.06
Mof_C 	C 	0.8758	0.7245	0.0147	-0.015
Mof_C 	C 	0.8164	0.7292	0.0791	0.037
Mof_C 	C 	0.318	0.4112	0.239	0.099
Mof_C 	C 	0.3767	0.476	0.2348	-0.147
Mof_C 	C 	0.4634	0.4638	0.2121	0.082
Mof_C 	C 	0.4919	0.3865	0.1909	-0.14
Mof_C 	C 	0.4251	0.3251	0.1998	0.099
Mof_C 	C 	0.5706	0.6636	0.1947	0.102
Mof_C 	C 	0.5082	0.6079	0.1932	-0.141
Mof_C 	C 	0.53	0.5286	0.2071	0.065
Mof_C 	C 	0.6242	0.5147	0.2245	-0.127
Mof_C 	C 	0.6836	0.5791	0.2292	0.089
Mof_C 	C 	0.318	0.5888	0.761	0.093
Mof_C 	C 	0.3767	0.524	0.7652	-0.149
Mof_C 	C 	0.4634	0.5362	0.7879	0.076
Mof_C 	C 	0.4919	0.6135	0.8091	-0.144
Mof_C 	C 	0.4251	0.6749	0.8002	0.091
Mof_C 	C 	0.5706	0.3364	0.8053	0.094
Mof_C 	C 	0.5082	0.3921	0.8068	-0.143
Mof_C 	C 	0.53	0.4714	0.7929	0.058
Mof_C 	C 	0.6242	0.4853	0.7755	-0.13
Mof_C 	C 	0.6836	0.4209	0.7708	0.083
Mof_C 	C 	0.682	0.761	0.4112	0.093
Mof_C 	C 	0.6233	0.7652	0.476	-0.149
Mof_C 	C 	0.5366	0.7879	0.4638	0.076
Mof_C 	C 	0.5081	0.8091	0.3865	-0.144
Mof_C 	C 	0.5749	0.8002	0.3251	0.091
Mof_C 	C 	0.4294	0.8053	0.6636	0.094
Mof_C 	C 	0.4918	0.8068	0.6079	-0.143
Mof_C 	C 	0.47	0.7929	0.5286	0.058
Mof_C 	C 	0.3758	0.7755	0.5147	-0.129
Mof_C 	C 	0.3164	0.7708	0.5791	0.083
Mof_C 	C 	0.682	0.239	0.5888	0.099
Mof_C 	C 	0.6233	0.2348	0.524	-0.147
Mof_C 	C 	0.5366	0.2121	0.5362	0.082
Mof_C 	C 	0.5081	0.1909	0.6135	-0.14
Mof_C 	C 	0.5749	0.1998	0.6749	0.099
Mof_C 	C 	0.4294	0.1947	0.3364	0.102
Mof_C 	C 	0.4918	0.1932	0.3921	-0.141
Mof_C 	C 	0.47	0.2071	0.4714	0.065
Mof_C 	C 	0.3758	0.2245	0.4853	-0.127
Mof_C 	C 	0.3164	0.2292	0.4209	0.089
Mof_N 	N 	0.8414	0.8389	0.2808	-0.251
Mof_N 	N 	0.1584	0.1518	0.2855	-0.215
Mof_N 	N 	0.8414	0.1611	0.7192	-0.225
Mof_N 	N 	0.1584	0.8482	0.7145	-0.24
Mof_N 	N 	0.1586	0.2808	0.1611	-0.216
Mof_N 	N 	0.8416	0.2855	0.8482	-0.251
Mof_N 	N 	0.1586	0.7192	0.8389	-0.242
Mof_N 	N 	0.8416	0.7145	0.1518	-0.227
Mof_N 	N 	0.3414	0.3389	0.2192	-0.233
Mof_N 	N 	0.6584	0.6518	0.2145	-0.233
Mof_N 	N 	0.3414	0.6611	0.7808	-0.234
Mof_N 	N 	0.6584	0.3482	0.7855	-0.234
Mof_N 	N 	0.6586	0.7808	0.3389	-0.234
Mof_N 	N 	0.3416	0.7855	0.6518	-0.233
Mof_N 	N 	0.6586	0.2192	0.6611	-0.233
Mof_N 	N 	0.3416	0.2145	0.3482	-0.233
Mof_O 	O 	0.621	0.8805	0.8644	-0.924
Mof_O 	O 	0.6197	0.04	0.2763	-0.536
Mof_O 	O 	0.6816	0.8713	0.0084	-0.918
Mof_O 	O 	0.678	0.9778	0.1271	-0.975
Mof_O 	O 	0.624	0.7304	0.9261	-0.587
Mof_O 	O 	0.5384	0.814	0.0585	-0.884
Mof_O 	O 	0.8171	0.9	0.8839	-0.577
Mof_O 	O 	0.5381	0.9243	0.1758	-0.94
Mof_O 	O 	0.6819	0.818	0.1678	-0.692
Mof_O 	O 	0.621	0.1195	0.1356	-0.896
Mof_O 	O 	0.6197	0.96	0.7237	-0.583
Mof_O 	O 	0.6816	0.1287	0.9916	-0.974
Mof_O 	O 	0.678	0.0222	0.8729	-0.921
Mof_O 	O 	0.624	0.2696	0.0739	-0.547
Mof_O 	O 	0.5384	0.186	0.9415	-0.917
Mof_O 	O 	0.8171	0.1	0.1161	-0.529
Mof_O 	O 	0.5381	0.0757	0.8242	-0.907
Mof_O 	O 	0.6819	0.182	0.8322	-0.692
Mof_O 	O 	0.379	0.8644	0.1195	-0.911
Mof_O 	O 	0.3803	0.2763	0.96	-0.585
Mof_O 	O 	0.3184	0.0084	0.1287	-0.901
Mof_O 	O 	0.322	0.1271	0.0222	-0.904
Mof_O 	O 	0.376	0.9261	0.2696	-0.588
Mof_O 	O 	0.4616	0.0585	0.186	-0.878
Mof_O 	O 	0.1829	0.8839	0.1	-0.548
Mof_O 	O 	0.4619	0.1758	0.0757	-0.901
Mof_O 	O 	0.3181	0.1678	0.182	-0.689
Mof_O 	O 	0.379	0.1356	0.8805	-0.912
Mof_O 	O 	0.3803	0.7237	0.04	-0.537
Mof_O 	O 	0.3184	0.9916	0.8713	-0.981
Mof_O 	O 	0.322	0.8729	0.9778	-0.983
Mof_O 	O 	0.376	0.0739	0.7304	-0.548
Mof_O 	O 	0.4616	0.9415	0.814	-0.919
Mof_O 	O 	0.1829	0.1161	0.9	-0.548
Mof_O 	O 	0.4619	0.8242	0.9243	-0.942
Mof_O 	O 	0.3181	0.8322	0.818	-0.694
Mof_O 	O 	0.121	0.3805	0.6356	-0.903
Mof_O 	O 	0.1197	0.54	0.2237	-0.551
Mof_O 	O 	0.1816	0.3713	0.4916	-0.934
Mof_O 	O 	0.178	0.4778	0.3729	-0.937
Mof_O 	O 	0.124	0.2304	0.5739	-0.559
Mof_O 	O 	0.0384	0.314	0.4415	-0.886
Mof_O 	O 	0.3171	0.4	0.6161	-0.544
Mof_O 	O 	0.0381	0.4243	0.3242	-0.91
Mof_O 	O 	0.1819	0.318	0.3322	-0.691
Mof_O 	O 	0.121	0.6195	0.3644	-0.902
Mof_O 	O 	0.1197	0.46	0.7763	-0.561
Mof_O 	O 	0.1816	0.6287	0.5084	-0.934
Mof_O 	O 	0.178	0.5222	0.6271	-0.937
Mof_O 	O 	0.124	0.7696	0.4261	-0.567
Mof_O 	O 	0.0384	0.686	0.5585	-0.888
Mof_O 	O 	0.3171	0.6	0.3839	-0.543
Mof_O 	O 	0.0381	0.5757	0.6758	-0.91
Mof_O 	O 	0.1819	0.682	0.6678	-0.691
Mof_O 	O 	0.879	0.3644	0.3805	-0.913
Mof_O 	O 	0.8803	0.7763	0.54	-0.571
Mof_O 	O 	0.8184	0.5084	0.3713	-0.936
Mof_O 	O 	0.822	0.6271	0.4778	-0.938
Mof_O 	O 	0.876	0.4261	0.2304	-0.567
Mof_O 	O 	0.9616	0.5585	0.314	-0.905
Mof_O 	O 	0.6829	0.3839	0.4	-0.543
Mof_O 	O 	0.9619	0.6758	0.4243	-0.929
Mof_O 	O 	0.8181	0.6678	0.318	-0.691
Mof_O 	O 	0.879	0.6356	0.6195	-0.914
Mof_O 	O 	0.8803	0.2237	0.46	-0.56
Mof_O 	O 	0.8184	0.4916	0.6287	-0.936
Mof_O 	O 	0.822	0.3729	0.5222	-0.938
Mof_O 	O 	0.876	0.5739	0.7696	-0.576
Mof_O 	O 	0.9616	0.4415	0.686	-0.907
Mof_O 	O 	0.6829	0.6161	0.6	-0.544
Mof_O 	O 	0.9619	0.3242	0.5757	-0.928
Mof_O 	O 	0.8181	0.3322	0.682	-0.691
Mof_O 	O 	0.7876	0	-0	-0.647
Mof_O 	O 	0.2124	0	-0	-0.643
Mof_O 	O 	0.2876	0.5	0.5	-0.712
Mof_O 	O 	0.7124	0.5	0.5	-0.712
Mof_Cl	Cl	2.16491e-33	0.5	0.5	-1.033
Mof_Cl	Cl	0.5	0	-0	-0.958
_end
