data_functionalizedCrystal
_audit_creation_method	'EQeq! by Chris Wilmer'
_symmetry_space_group_name_H-M	'P1'
_symmetry_Int_Tables_number	1
_symmetry_cell_setting	triclinic
loop_
_symmetry_equiv_pos_as_xyz
  x,y,z
_cell_length_a	6.94
_cell_length_b	12.6981
_cell_length_c	12.6981
_cell_angle_alpha	97.4329
_cell_angle_beta	96.3023
_cell_angle_gamma	83.6977
loop_
_atom_site_label
_atom_site_type_symbol
_atom_site_fract_x
_atom_site_fract_y
_atom_site_fract_z
_atom_site_charge
Mof_Co	Co	0.9087	0.32046	0.05332	1.047
Mof_Co	Co	0.5913	0.05332	0.32046	1.049
Mof_Co	Co	0.0913	0.67954	0.94668	1.048
Mof_Co	Co	0.4087	0.94668	0.67954	1.05
Mof_H 	H 	0.4301	0.423	0.5484	0.164
Mof_H 	H 	0.0699	0.5484	0.423	0.164
Mof_H 	H 	0.5699	0.577	0.4516	0.164
Mof_H 	H 	0.9301	0.4516	0.577	0.164
Mof_C 	C 	0.4438	0.5363	0.6657	0.21
Mof_C 	C 	0.3641	0.3597	0.6691	0.208
Mof_C 	C 	0.3312	0.4863	0.8119	0.169
Mof_C 	C 	0.5184	0.7016	0.6498	0.158
Mof_C 	C 	0.3141	0.184	0.6532	0.146
Mof_C 	C 	0.2017	0.4478	0.96	0.121
Mof_C 	C 	0.0562	0.6657	0.5363	0.208
Mof_C 	C 	0.1359	0.6691	0.3597	0.208
Mof_C 	C 	0.1688	0.8119	0.4863	0.169
Mof_C 	C 	0.9816	0.6498	0.7016	0.16
Mof_C 	C 	0.1859	0.6532	0.184	0.147
Mof_C 	C 	0.2983	0.96	0.4478	0.126
Mof_C 	C 	0.5562	0.4637	0.3343	0.21
Mof_C 	C 	0.6359	0.6403	0.3309	0.208
Mof_C 	C 	0.6688	0.5137	0.1881	0.169
Mof_C 	C 	0.4816	0.2984	0.3502	0.158
Mof_C 	C 	0.6859	0.816	0.3468	0.146
Mof_C 	C 	0.7983	0.5522	0.04	0.121
Mof_C 	C 	0.9438	0.3343	0.4637	0.208
Mof_C 	C 	0.8641	0.3309	0.6403	0.208
Mof_C 	C 	0.8312	0.1881	0.5137	0.169
Mof_C 	C 	0.0184	0.3502	0.2984	0.16
Mof_C 	C 	0.8141	0.3468	0.816	0.147
Mof_C 	C 	0.7017	0.04	0.5522	0.126
Mof_N 	N 	0.4155	0.4371	0.6153	-0.261
Mof_N 	N 	0.3244	0.3825	0.7705	-0.182
Mof_N 	N 	0.3981	0.5625	0.7659	-0.208
Mof_N 	N 	0.5093	0.6018	0.608	-0.189
Mof_N 	N 	0.5285	0.7905	0.6785	-0.325
Mof_N 	N 	0.3508	0.2663	0.6095	-0.182
Mof_N 	N 	0.2854	0.1038	0.6814	-0.316
Mof_N 	N 	0.2594	0.5201	0.9077	-0.27
Mof_N 	N 	0.1449	0.393	0.0122	-0.294
Mof_N 	N 	0.0845	0.6153	0.4371	-0.26
Mof_N 	N 	0.1756	0.7705	0.3825	-0.182
Mof_N 	N 	0.1019	0.7659	0.5625	-0.208
Mof_N 	N 	0.9907	0.608	0.6018	-0.188
Mof_N 	N 	0.9715	0.6785	0.7905	-0.324
Mof_N 	N 	0.1492	0.6095	0.2663	-0.182
Mof_N 	N 	0.2146	0.6814	0.1038	-0.315
Mof_N 	N 	0.2406	0.9077	0.5201	-0.271
Mof_N 	N 	0.3551	0.0122	0.393	-0.298
Mof_N 	N 	0.5845	0.5629	0.3847	-0.261
Mof_N 	N 	0.6756	0.6175	0.2295	-0.182
Mof_N 	N 	0.6019	0.4375	0.2341	-0.208
Mof_N 	N 	0.4907	0.3982	0.392	-0.189
Mof_N 	N 	0.4715	0.2095	0.3215	-0.325
Mof_N 	N 	0.6492	0.7337	0.3905	-0.182
Mof_N 	N 	0.7146	0.8962	0.3186	-0.316
Mof_N 	N 	0.7406	0.4799	0.0923	-0.27
Mof_N 	N 	0.8551	0.607	0.9878	-0.294
Mof_N 	N 	0.9155	0.3847	0.5629	-0.26
Mof_N 	N 	0.8244	0.2295	0.6175	-0.182
Mof_N 	N 	0.8981	0.2341	0.4375	-0.208
Mof_N 	N 	0.0093	0.392	0.3982	-0.188
Mof_N 	N 	0.0285	0.3215	0.2095	-0.324
Mof_N 	N 	0.8508	0.3905	0.7337	-0.182
Mof_N 	N 	0.7854	0.3186	0.8962	-0.315
Mof_N 	N 	0.7594	0.0923	0.4799	-0.271
Mof_N 	N 	0.6449	0.9878	0.607	-0.298
_end
