data_functionalizedCrystal
_audit_creation_method	'EQeq! by Chris Wilmer'
_symmetry_space_group_name_H-M	'P1'
_symmetry_Int_Tables_number	1
_symmetry_cell_setting	triclinic
loop_
_symmetry_equiv_pos_as_xyz
  x,y,z
_cell_length_a	18.9542
_cell_length_b	19.697
_cell_length_c	12.0228
_cell_angle_alpha	90
_cell_angle_beta	90
_cell_angle_gamma	90
loop_
_atom_site_label
_atom_site_type_symbol
_atom_site_fract_x
_atom_site_fract_y
_atom_site_fract_z
_atom_site_charge
Mof_Co	Co	0.80589	0.16279	0.32238	1.158
Mof_C 	C 	0.7264	0.9566	0.5249	-0.056
Mof_C 	C 	0.6884	0.9812	0.4343	-0.052
Mof_H 	H 	0.6465	0.9591	0.4105	0.052
Mof_C 	C 	0.7124	0.0382	0.3797	0.035
Mof_H 	H 	0.6859	0.0549	0.3184	0.027
Mof_C 	C 	0.8072	0.0482	0.4958	0.033
Mof_H 	H 	0.8483	0.072	0.5188	0.008
Mof_C 	C 	0.7875	0.991	0.5547	-0.052
Mof_H 	H 	0.8155	0.9754	0.6151	0.057
Mof_C 	C 	0.7033	0.8946	0.5896	0.357
Mof_C 	C 	0.438	0.6906	0.5991	-0.028
Mof_H 	H 	0.4143	0.6483	0.605	0.049
Mof_C 	C 	0.5093	0.6925	0.5761	0.008
Mof_H 	H 	0.5336	0.6507	0.5666	0.014
Mof_C 	C 	0.6938	0.7009	0.2096	-0.023
Mof_H 	H 	0.7181	0.6654	0.1722	0.042
Mof_C 	C 	0.624	0.8006	0.208	-0.021
Mof_H 	H 	0.6004	0.8363	0.17	0.037
Mof_C 	C 	0.6932	0.7028	0.3225	0.007
Mof_H 	H 	0.7185	0.6687	0.3617	0.021
Mof_C 	C 	0.6241	0.7979	0.3229	0.006
Mof_H 	H 	0.5984	0.8314	0.3626	0.024
Mof_N 	N 	0.7718	0.0714	0.4092	-0.204
Mof_H 	H 	0.6175	0.7581	0.7612	0.09
Mof_O 	O 	0.6609	0.8547	0.5437	-0.443
Mof_O 	O 	0.7293	0.8881	0.6844	-0.434
Mof_O 	O 	0.2966	0.6955	0.6572	-0.449
Mof_O 	O 	0.6625	0.8052	0.9771	-0.484
Mof_Co	Co	0.69411	0.83721	0.82238	1.157
Mof_C 	C 	0.7736	0.0434	0.0249	-0.055
Mof_C 	C 	0.8116	0.0188	0.9343	-0.056
Mof_H 	H 	0.8535	0.0409	0.9105	0.052
Mof_C 	C 	0.7876	0.9618	0.8797	0.036
Mof_H 	H 	0.8141	0.9451	0.8184	0.025
Mof_C 	C 	0.6928	0.9518	0.9958	0.037
Mof_H 	H 	0.6517	0.928	0.0188	0.005
Mof_C 	C 	0.7125	0.009	0.0547	-0.057
Mof_H 	H 	0.6845	0.0246	0.1151	0.057
Mof_C 	C 	0.7967	0.1054	0.0896	0.355
Mof_C 	C 	0.062	0.3094	0.0991	-0.026
Mof_H 	H 	0.0857	0.3517	0.105	0.047
Mof_C 	C 	0.9907	0.3075	0.0761	0.004
Mof_H 	H 	0.9664	0.3493	0.0666	0.014
Mof_C 	C 	0.8062	0.2991	0.7096	-0.023
Mof_H 	H 	0.7819	0.3346	0.6722	0.042
Mof_C 	C 	0.876	0.1994	0.708	-0.02
Mof_H 	H 	0.8996	0.1637	0.67	0.036
Mof_C 	C 	0.8068	0.2972	0.8225	0.006
Mof_H 	H 	0.7815	0.3313	0.8617	0.022
Mof_C 	C 	0.8759	0.2021	0.8229	0.005
Mof_H 	H 	0.9016	0.1686	0.8626	0.024
Mof_N 	N 	0.7282	0.9286	0.9092	-0.205
Mof_H 	H 	0.8825	0.2419	0.2612	0.09
Mof_O 	O 	0.8391	0.1453	0.0437	-0.443
Mof_O 	O 	0.7707	0.1119	0.1844	-0.434
Mof_O 	O 	0.2034	0.3045	0.1572	-0.45
Mof_O 	O 	0.8375	0.1948	0.4771	-0.486
Mof_Co	Co	0.19411	0.66279	0.67762	1.157
Mof_C 	C 	0.2736	0.4566	0.4751	-0.057
Mof_C 	C 	0.3116	0.4812	0.5657	-0.053
Mof_H 	H 	0.3535	0.4591	0.5895	0.051
Mof_C 	C 	0.2876	0.5382	0.6203	0.034
Mof_H 	H 	0.3141	0.5549	0.6816	0.026
Mof_C 	C 	0.1928	0.5482	0.5042	0.032
Mof_H 	H 	0.1517	0.572	0.4812	0.007
Mof_C 	C 	0.2125	0.491	0.4453	-0.053
Mof_H 	H 	0.1845	0.4754	0.3849	0.056
Mof_C 	C 	0.2967	0.3946	0.4104	0.356
Mof_C 	C 	0.562	0.1906	0.4009	-0.029
Mof_H 	H 	0.5857	0.1483	0.395	0.048
Mof_C 	C 	0.4907	0.1925	0.4239	0.007
Mof_H 	H 	0.4664	0.1507	0.4334	0.014
Mof_C 	C 	0.3062	0.2009	0.7904	-0.023
Mof_H 	H 	0.2819	0.1654	0.8278	0.042
Mof_C 	C 	0.376	0.3006	0.792	-0.021
Mof_H 	H 	0.3996	0.3363	0.83	0.037
Mof_C 	C 	0.3068	0.2028	0.6775	0.006
Mof_H 	H 	0.2815	0.1687	0.6383	0.021
Mof_C 	C 	0.3759	0.2979	0.6771	0.005
Mof_H 	H 	0.4016	0.3314	0.6374	0.024
Mof_N 	N 	0.2282	0.5714	0.5908	-0.204
Mof_H 	H 	0.3825	0.2581	0.2388	0.09
Mof_O 	O 	0.3391	0.3547	0.4563	-0.443
Mof_O 	O 	0.2707	0.3881	0.3156	-0.434
Mof_O 	O 	0.7034	0.1955	0.3428	-0.449
Mof_O 	O 	0.3375	0.3052	0.0229	-0.484
Mof_Co	Co	0.30589	0.33721	0.17762	1.157
Mof_C 	C 	0.2264	0.5434	0.9751	-0.058
Mof_C 	C 	0.1884	0.5188	0.0657	-0.052
Mof_H 	H 	0.1465	0.5409	0.0895	0.051
Mof_C 	C 	0.2124	0.4618	0.1203	0.034
Mof_H 	H 	0.1859	0.4451	0.1816	0.026
Mof_C 	C 	0.3072	0.4518	0.0042	0.034
Mof_H 	H 	0.3483	0.428	0.9812	0.006
Mof_C 	C 	0.2875	0.509	0.9453	-0.054
Mof_H 	H 	0.3155	0.5246	0.8849	0.057
Mof_C 	C 	0.2033	0.6054	0.9104	0.356
Mof_C 	C 	0.938	0.8094	0.9009	-0.026
Mof_H 	H 	0.9143	0.8517	0.895	0.048
Mof_C 	C 	0.0093	0.8075	0.9239	0.004
Mof_H 	H 	0.0336	0.8493	0.9334	0.014
Mof_C 	C 	0.1938	0.7991	0.2904	-0.023
Mof_H 	H 	0.2181	0.8346	0.3278	0.042
Mof_C 	C 	0.124	0.6994	0.292	-0.02
Mof_H 	H 	0.1004	0.6637	0.33	0.037
Mof_C 	C 	0.1932	0.7972	0.1775	0.006
Mof_H 	H 	0.2185	0.8313	0.1383	0.021
Mof_C 	C 	0.1241	0.7021	0.1771	0.005
Mof_H 	H 	0.0984	0.6686	0.1374	0.024
Mof_N 	N 	0.2718	0.4286	0.0908	-0.204
Mof_H 	H 	0.1175	0.7419	0.7388	0.09
Mof_O 	O 	0.1609	0.6453	0.9563	-0.443
Mof_O 	O 	0.2293	0.6119	0.8156	-0.434
Mof_O 	O 	0.7966	0.8045	0.8428	-0.449
Mof_O 	O 	0.1625	0.6948	0.5229	-0.486
Mof_Co	Co	0.19411	0.83721	0.67762	1.157
Mof_C 	C 	0.2736	0.0434	0.4751	-0.057
Mof_C 	C 	0.3116	0.0188	0.5657	-0.053
Mof_H 	H 	0.3535	0.0409	0.5895	0.051
Mof_C 	C 	0.2876	0.9618	0.6203	0.034
Mof_H 	H 	0.3141	0.9451	0.6816	0.026
Mof_C 	C 	0.1928	0.9518	0.5042	0.032
Mof_H 	H 	0.1517	0.928	0.4812	0.007
Mof_C 	C 	0.2125	0.009	0.4453	-0.053
Mof_H 	H 	0.1845	0.0246	0.3849	0.056
Mof_C 	C 	0.2967	0.1054	0.4104	0.356
Mof_C 	C 	0.562	0.3094	0.4009	-0.029
Mof_H 	H 	0.5857	0.3517	0.395	0.048
Mof_C 	C 	0.4907	0.3075	0.4239	0.007
Mof_H 	H 	0.4664	0.3493	0.4334	0.014
Mof_C 	C 	0.3062	0.2991	0.7904	-0.023
Mof_H 	H 	0.2819	0.3346	0.8278	0.042
Mof_C 	C 	0.376	0.1994	0.792	-0.021
Mof_H 	H 	0.3996	0.1637	0.83	0.037
Mof_C 	C 	0.3068	0.2972	0.6775	0.007
Mof_H 	H 	0.2815	0.3313	0.6383	0.021
Mof_C 	C 	0.3759	0.2021	0.6771	0.006
Mof_H 	H 	0.4016	0.1686	0.6374	0.024
Mof_N 	N 	0.2282	0.9286	0.5908	-0.204
Mof_H 	H 	0.3825	0.2419	0.2388	0.09
Mof_O 	O 	0.3391	0.1453	0.4563	-0.443
Mof_O 	O 	0.2707	0.1119	0.3156	-0.434
Mof_O 	O 	0.7034	0.3045	0.3428	-0.449
Mof_O 	O 	0.3375	0.1948	0.0229	-0.484
Mof_Co	Co	0.30589	0.16279	0.17762	1.157
Mof_C 	C 	0.2264	0.9566	0.9751	-0.055
Mof_C 	C 	0.1884	0.9812	0.0657	-0.056
Mof_H 	H 	0.1465	0.9591	0.0895	0.052
Mof_C 	C 	0.2124	0.0382	0.1203	0.036
Mof_H 	H 	0.1859	0.0549	0.1816	0.025
Mof_C 	C 	0.3072	0.0482	0.0042	0.037
Mof_H 	H 	0.3483	0.072	0.9812	0.005
Mof_C 	C 	0.2875	0.991	0.9453	-0.057
Mof_H 	H 	0.3155	0.9754	0.8849	0.057
Mof_C 	C 	0.2033	0.8946	0.9104	0.355
Mof_C 	C 	0.938	0.6906	0.9009	-0.026
Mof_H 	H 	0.9143	0.6483	0.895	0.047
Mof_C 	C 	0.0093	0.6925	0.9239	0.004
Mof_H 	H 	0.0336	0.6507	0.9334	0.014
Mof_C 	C 	0.1938	0.7009	0.2904	-0.023
Mof_H 	H 	0.2181	0.6654	0.3278	0.042
Mof_C 	C 	0.124	0.8006	0.292	-0.02
Mof_H 	H 	0.1004	0.8363	0.33	0.036
Mof_C 	C 	0.1932	0.7028	0.1775	0.006
Mof_H 	H 	0.2185	0.6687	0.1383	0.022
Mof_C 	C 	0.1241	0.7979	0.1771	0.005
Mof_H 	H 	0.0984	0.8314	0.1374	0.024
Mof_N 	N 	0.2718	0.0714	0.0908	-0.205
Mof_H 	H 	0.1175	0.7581	0.7388	0.09
Mof_O 	O 	0.1609	0.8547	0.9563	-0.443
Mof_O 	O 	0.2293	0.8881	0.8156	-0.434
Mof_O 	O 	0.7966	0.6955	0.8428	-0.45
Mof_O 	O 	0.1625	0.8052	0.5229	-0.486
Mof_Co	Co	0.80589	0.33721	0.32238	1.157
Mof_C 	C 	0.7264	0.5434	0.5249	-0.057
Mof_C 	C 	0.6884	0.5188	0.4343	-0.053
Mof_H 	H 	0.6465	0.5409	0.4105	0.051
Mof_C 	C 	0.7124	0.4618	0.3797	0.034
Mof_H 	H 	0.6859	0.4451	0.3184	0.026
Mof_C 	C 	0.8072	0.4518	0.4958	0.032
Mof_H 	H 	0.8483	0.428	0.5188	0.007
Mof_C 	C 	0.7875	0.509	0.5547	-0.053
Mof_H 	H 	0.8155	0.5246	0.6151	0.056
Mof_C 	C 	0.7033	0.6054	0.5896	0.356
Mof_C 	C 	0.438	0.8094	0.5991	-0.029
Mof_H 	H 	0.4143	0.8517	0.605	0.048
Mof_C 	C 	0.5093	0.8075	0.5761	0.007
Mof_H 	H 	0.5336	0.8493	0.5666	0.014
Mof_C 	C 	0.6938	0.7991	0.2096	-0.023
Mof_H 	H 	0.7181	0.8346	0.1722	0.042
Mof_C 	C 	0.624	0.6994	0.208	-0.021
Mof_H 	H 	0.6004	0.6637	0.17	0.037
Mof_C 	C 	0.6932	0.7972	0.3225	0.006
Mof_H 	H 	0.7185	0.8313	0.3617	0.021
Mof_C 	C 	0.6241	0.7021	0.3229	0.005
Mof_H 	H 	0.5984	0.6686	0.3626	0.024
Mof_N 	N 	0.7718	0.4286	0.4092	-0.204
Mof_H 	H 	0.6175	0.7419	0.7612	0.09
Mof_O 	O 	0.6609	0.6453	0.5437	-0.443
Mof_O 	O 	0.7293	0.6119	0.6844	-0.434
Mof_O 	O 	0.2966	0.8045	0.6572	-0.449
Mof_O 	O 	0.6625	0.6948	0.9771	-0.484
Mof_Co	Co	0.69411	0.66279	0.82238	1.157
Mof_C 	C 	0.7736	0.4566	0.0249	-0.058
Mof_C 	C 	0.8116	0.4812	0.9343	-0.052
Mof_H 	H 	0.8535	0.4591	0.9105	0.051
Mof_C 	C 	0.7876	0.5382	0.8797	0.034
Mof_H 	H 	0.8141	0.5549	0.8184	0.026
Mof_C 	C 	0.6928	0.5482	0.9958	0.034
Mof_H 	H 	0.6517	0.572	0.0188	0.006
Mof_C 	C 	0.7125	0.491	0.0547	-0.054
Mof_H 	H 	0.6845	0.4754	0.1151	0.057
Mof_C 	C 	0.7967	0.3946	0.0896	0.356
Mof_C 	C 	0.062	0.1906	0.0991	-0.026
Mof_H 	H 	0.0857	0.1483	0.105	0.048
Mof_C 	C 	0.9907	0.1925	0.0761	0.004
Mof_H 	H 	0.9664	0.1507	0.0666	0.014
Mof_C 	C 	0.8062	0.2009	0.7096	-0.023
Mof_H 	H 	0.7819	0.1654	0.6722	0.042
Mof_C 	C 	0.876	0.3006	0.708	-0.02
Mof_H 	H 	0.8996	0.3363	0.67	0.037
Mof_C 	C 	0.8068	0.2028	0.8225	0.006
Mof_H 	H 	0.7815	0.1687	0.8617	0.021
Mof_C 	C 	0.8759	0.2979	0.8229	0.005
Mof_H 	H 	0.9016	0.3314	0.8626	0.024
Mof_N 	N 	0.7282	0.5714	0.9092	-0.204
Mof_H 	H 	0.8825	0.2581	0.2612	0.09
Mof_O 	O 	0.8391	0.3547	0.0437	-0.443
Mof_O 	O 	0.7707	0.3881	0.1844	-0.434
Mof_O 	O 	0.2034	0.1955	0.1572	-0.449
Mof_O 	O 	0.8375	0.3052	0.4771	-0.486
Mof_Co	Co	0.65833	0.75	0.56412	1.165
Mof_C 	C 	0.4017	0.75	0.6133	-0.091
Mof_C 	C 	0.3251	0.75	0.6463	0.444
Mof_C 	C 	0.6594	0.75	0.1491	-0.089
Mof_N 	N 	0.5455	0.75	0.5665	-0.218
Mof_N 	N 	0.659	0.75	0.3815	-0.203
Mof_O 	O 	0.6593	0.75	0.7394	-0.728
Mof_O 	O 	0.7717	0.75	0.5729	-0.459
Mof_H 	H 	0.7885	0.75	0.5083	0.223
Mof_C 	C 	0.6621	0.75	0.0226	0.427
Mof_Co	Co	0.84167	0.25	0.06412	1.165
Mof_C 	C 	0.0983	0.25	0.1133	-0.094
Mof_C 	C 	0.1749	0.25	0.1463	0.445
Mof_C 	C 	0.8406	0.25	0.6491	-0.09
Mof_N 	N 	0.9545	0.25	0.0665	-0.217
Mof_N 	N 	0.841	0.25	0.8815	-0.203
Mof_O 	O 	0.8407	0.25	0.2394	-0.728
Mof_O 	O 	0.7283	0.25	0.0729	-0.459
Mof_H 	H 	0.7115	0.25	0.0083	0.223
Mof_C 	C 	0.8379	0.25	0.5226	0.43
Mof_Co	Co	0.34167	0.25	0.43588	1.165
Mof_C 	C 	0.5983	0.25	0.3867	-0.091
Mof_C 	C 	0.6749	0.25	0.3537	0.444
Mof_C 	C 	0.3406	0.25	0.8509	-0.089
Mof_N 	N 	0.4545	0.25	0.4335	-0.218
Mof_N 	N 	0.341	0.25	0.6185	-0.203
Mof_O 	O 	0.3407	0.25	0.2606	-0.728
Mof_O 	O 	0.2283	0.25	0.4271	-0.459
Mof_H 	H 	0.2115	0.25	0.4917	0.223
Mof_C 	C 	0.3379	0.25	0.9774	0.427
Mof_Co	Co	0.15833	0.75	0.93588	1.165
Mof_C 	C 	0.9017	0.75	0.8867	-0.094
Mof_C 	C 	0.8251	0.75	0.8537	0.445
Mof_C 	C 	0.1594	0.75	0.3509	-0.09
Mof_N 	N 	0.0455	0.75	0.9335	-0.217
Mof_N 	N 	0.159	0.75	0.1185	-0.203
Mof_O 	O 	0.1593	0.75	0.7606	-0.728
Mof_O 	O 	0.2717	0.75	0.9271	-0.459
Mof_H 	H 	0.2885	0.75	0.9917	0.223
Mof_C 	C 	0.1621	0.75	0.4774	0.43
_end
