data_functionalizedCrystal
_audit_creation_method	'EQeq! by Chris Wilmer'
_symmetry_space_group_name_H-M	'P1'
_symmetry_Int_Tables_number	1
_symmetry_cell_setting	triclinic
loop_
_symmetry_equiv_pos_as_xyz
  x,y,z
_cell_length_a	21.2379
_cell_length_b	21.2379
_cell_length_c	21.2379
_cell_angle_alpha	90
_cell_angle_beta	90
_cell_angle_gamma	90
loop_
_atom_site_label
_atom_site_type_symbol
_atom_site_fract_x
_atom_site_fract_y
_atom_site_fract_z
_atom_site_charge
Mof_N 	N 	0.566	0.704	0.068	-0.23
Mof_C 	C 	0.5845	0.7638	0.0873	0.041
Mof_H 	H 	0.5663	0.8	0.0685	-0.017
Mof_C 	C 	0.6298	0.7704	0.1341	-0.106
Mof_H 	H 	0.6425	0.8112	0.1473	0.062
Mof_C 	C 	0.6565	0.7174	0.1616	0.027
Mof_C 	C 	0.6379	0.6576	0.1423	-0.106
Mof_H 	H 	0.6561	0.6214	0.1611	0.058
Mof_C 	C 	0.5926	0.651	0.0955	0.044
Mof_H 	H 	0.5799	0.6102	0.0823	-0.019
Mof_C 	C 	0.6921	0.7259	0.2203	0.081
Mof_C 	C 	0.7394	0.6818	0.2292	-0.151
Mof_H 	H 	0.7423	0.6453	0.2034	0.076
Mof_N 	N 	0.434	0.296	0.068	-0.229
Mof_C 	C 	0.4155	0.2362	0.0873	0.039
Mof_H 	H 	0.4337	0.2	0.0685	-0.022
Mof_C 	C 	0.3702	0.2296	0.1341	-0.106
Mof_H 	H 	0.3575	0.1888	0.1473	0.053
Mof_C 	C 	0.3435	0.2826	0.1616	0.024
Mof_C 	C 	0.3621	0.3424	0.1423	-0.106
Mof_H 	H 	0.3439	0.3786	0.1611	0.057
Mof_C 	C 	0.4074	0.349	0.0955	0.042
Mof_H 	H 	0.4201	0.3898	0.0823	-0.019
Mof_C 	C 	0.3079	0.2741	0.2203	0.077
Mof_C 	C 	0.2606	0.3182	0.2292	-0.152
Mof_H 	H 	0.2577	0.3547	0.2034	0.074
Mof_N 	N 	0.434	0.704	0.932	-0.215
Mof_C 	C 	0.4155	0.7638	0.9127	0.048
Mof_H 	H 	0.4337	0.8	0.9315	-0.001
Mof_C 	C 	0.3702	0.7704	0.8659	-0.101
Mof_H 	H 	0.3575	0.8112	0.8527	0.067
Mof_C 	C 	0.3435	0.7174	0.8384	0.03
Mof_C 	C 	0.3621	0.6576	0.8577	-0.103
Mof_H 	H 	0.3439	0.6214	0.8389	0.061
Mof_C 	C 	0.4074	0.651	0.9045	0.05
Mof_H 	H 	0.4201	0.6102	0.9177	-0.007
Mof_C 	C 	0.3079	0.7259	0.7797	0.081
Mof_C 	C 	0.2606	0.6818	0.7708	-0.151
Mof_H 	H 	0.2577	0.6453	0.7966	0.079
Mof_N 	N 	0.566	0.296	0.932	-0.215
Mof_C 	C 	0.5845	0.2362	0.9127	0.047
Mof_H 	H 	0.5663	0.2	0.9315	-0.007
Mof_C 	C 	0.6298	0.2296	0.8659	-0.102
Mof_H 	H 	0.6425	0.1888	0.8527	0.062
Mof_C 	C 	0.6565	0.2826	0.8384	0.03
Mof_C 	C 	0.6379	0.3424	0.8577	-0.102
Mof_H 	H 	0.6561	0.3786	0.8389	0.061
Mof_C 	C 	0.5926	0.349	0.9045	0.05
Mof_H 	H 	0.5799	0.3898	0.9177	-0.006
Mof_C 	C 	0.6921	0.2741	0.7797	0.081
Mof_C 	C 	0.7394	0.3182	0.7708	-0.15
Mof_H 	H 	0.7423	0.3547	0.7966	0.08
Mof_N 	N 	0.068	0.566	0.704	-0.229
Mof_C 	C 	0.0873	0.5845	0.7638	0.042
Mof_H 	H 	0.0685	0.5663	0.8	-0.016
Mof_C 	C 	0.1341	0.6298	0.7704	-0.105
Mof_H 	H 	0.1473	0.6425	0.8112	0.063
Mof_C 	C 	0.1616	0.6565	0.7174	0.028
Mof_C 	C 	0.1423	0.6379	0.6576	-0.106
Mof_H 	H 	0.1611	0.6561	0.6214	0.058
Mof_C 	C 	0.0955	0.5926	0.651	0.044
Mof_H 	H 	0.0823	0.5799	0.6102	-0.019
Mof_C 	C 	0.2203	0.6921	0.7259	0.081
Mof_C 	C 	0.2292	0.7394	0.6818	-0.151
Mof_H 	H 	0.2034	0.7423	0.6453	0.076
Mof_N 	N 	0.068	0.434	0.296	-0.229
Mof_C 	C 	0.0873	0.4155	0.2362	0.039
Mof_H 	H 	0.0685	0.4337	0.2	-0.022
Mof_C 	C 	0.1341	0.3702	0.2296	-0.106
Mof_H 	H 	0.1473	0.3575	0.1888	0.053
Mof_C 	C 	0.1616	0.3435	0.2826	0.024
Mof_C 	C 	0.1423	0.3621	0.3424	-0.106
Mof_H 	H 	0.1611	0.3439	0.3786	0.057
Mof_C 	C 	0.0955	0.4074	0.349	0.042
Mof_H 	H 	0.0823	0.4201	0.3898	-0.019
Mof_C 	C 	0.2203	0.3079	0.2741	0.077
Mof_C 	C 	0.2292	0.2606	0.3182	-0.152
Mof_H 	H 	0.2034	0.2577	0.3547	0.074
Mof_N 	N 	0.932	0.434	0.704	-0.215
Mof_C 	C 	0.9127	0.4155	0.7638	0.048
Mof_H 	H 	0.9315	0.4337	0.8	-0.001
Mof_C 	C 	0.8659	0.3702	0.7704	-0.101
Mof_H 	H 	0.8527	0.3575	0.8112	0.067
Mof_C 	C 	0.8384	0.3435	0.7174	0.03
Mof_C 	C 	0.8577	0.3621	0.6576	-0.103
Mof_H 	H 	0.8389	0.3439	0.6214	0.061
Mof_C 	C 	0.9045	0.4074	0.651	0.05
Mof_H 	H 	0.9177	0.4201	0.6102	-0.007
Mof_C 	C 	0.7797	0.3079	0.7259	0.081
Mof_C 	C 	0.7708	0.2606	0.6818	-0.151
Mof_H 	H 	0.7966	0.2577	0.6453	0.079
Mof_N 	N 	0.932	0.566	0.296	-0.215
Mof_C 	C 	0.9127	0.5845	0.2362	0.047
Mof_H 	H 	0.9315	0.5663	0.2	-0.007
Mof_C 	C 	0.8659	0.6298	0.2296	-0.102
Mof_H 	H 	0.8527	0.6425	0.1888	0.062
Mof_C 	C 	0.8384	0.6565	0.2826	0.03
Mof_C 	C 	0.8577	0.6379	0.3424	-0.102
Mof_H 	H 	0.8389	0.6561	0.3786	0.061
Mof_C 	C 	0.9045	0.5926	0.349	0.05
Mof_H 	H 	0.9177	0.5799	0.3898	-0.006
Mof_C 	C 	0.7797	0.6921	0.2741	0.081
Mof_C 	C 	0.7708	0.7394	0.3182	-0.15
Mof_H 	H 	0.7966	0.7423	0.3547	0.08
Mof_N 	N 	0.704	0.068	0.566	-0.229
Mof_C 	C 	0.7638	0.0873	0.5845	0.042
Mof_H 	H 	0.8	0.0685	0.5663	-0.016
Mof_C 	C 	0.7704	0.1341	0.6298	-0.105
Mof_H 	H 	0.8112	0.1473	0.6425	0.063
Mof_C 	C 	0.7174	0.1616	0.6565	0.028
Mof_C 	C 	0.6576	0.1423	0.6379	-0.106
Mof_H 	H 	0.6214	0.1611	0.6561	0.058
Mof_C 	C 	0.651	0.0955	0.5926	0.044
Mof_H 	H 	0.6102	0.0823	0.5799	-0.019
Mof_C 	C 	0.7259	0.2203	0.6921	0.081
Mof_C 	C 	0.6818	0.2292	0.7394	-0.151
Mof_H 	H 	0.6453	0.2034	0.7423	0.076
Mof_N 	N 	0.296	0.068	0.434	-0.229
Mof_C 	C 	0.2362	0.0873	0.4155	0.039
Mof_H 	H 	0.2	0.0685	0.4337	-0.022
Mof_C 	C 	0.2296	0.1341	0.3702	-0.106
Mof_H 	H 	0.1888	0.1473	0.3575	0.053
Mof_C 	C 	0.2826	0.1616	0.3435	0.024
Mof_C 	C 	0.3424	0.1423	0.3621	-0.106
Mof_H 	H 	0.3786	0.1611	0.3439	0.057
Mof_C 	C 	0.349	0.0955	0.4074	0.042
Mof_H 	H 	0.3898	0.0823	0.4201	-0.019
Mof_C 	C 	0.2741	0.2203	0.3079	0.077
Mof_C 	C 	0.3182	0.2292	0.2606	-0.152
Mof_H 	H 	0.3547	0.2034	0.2577	0.074
Mof_N 	N 	0.704	0.932	0.434	-0.215
Mof_C 	C 	0.7638	0.9127	0.4155	0.048
Mof_H 	H 	0.8	0.9315	0.4337	-0.001
Mof_C 	C 	0.7704	0.8659	0.3702	-0.101
Mof_H 	H 	0.8112	0.8527	0.3575	0.067
Mof_C 	C 	0.7174	0.8384	0.3435	0.03
Mof_C 	C 	0.6576	0.8577	0.3621	-0.103
Mof_H 	H 	0.6214	0.8389	0.3439	0.061
Mof_C 	C 	0.651	0.9045	0.4074	0.05
Mof_H 	H 	0.6102	0.9177	0.4201	-0.007
Mof_C 	C 	0.7259	0.7797	0.3079	0.081
Mof_C 	C 	0.6818	0.7708	0.2606	-0.151
Mof_H 	H 	0.6453	0.7966	0.2577	0.079
Mof_N 	N 	0.296	0.932	0.566	-0.215
Mof_C 	C 	0.2362	0.9127	0.5845	0.047
Mof_H 	H 	0.2	0.9315	0.5663	-0.007
Mof_C 	C 	0.2296	0.8659	0.6298	-0.102
Mof_H 	H 	0.1888	0.8527	0.6425	0.062
Mof_C 	C 	0.2826	0.8384	0.6565	0.03
Mof_C 	C 	0.3424	0.8577	0.6379	-0.102
Mof_H 	H 	0.3786	0.8389	0.6561	0.061
Mof_C 	C 	0.349	0.9045	0.5926	0.05
Mof_H 	H 	0.3898	0.9177	0.5799	-0.006
Mof_C 	C 	0.2741	0.7797	0.6921	0.081
Mof_C 	C 	0.3182	0.7708	0.7394	-0.15
Mof_H 	H 	0.3547	0.7966	0.7423	0.08
Mof_N 	N 	0.434	0.296	0.932	-0.216
Mof_C 	C 	0.4155	0.2362	0.9127	0.046
Mof_H 	H 	0.4337	0.2	0.9315	-0.007
Mof_C 	C 	0.3702	0.2296	0.8659	-0.102
Mof_H 	H 	0.3575	0.1888	0.8527	0.059
Mof_C 	C 	0.3435	0.2826	0.8384	0.028
Mof_C 	C 	0.3621	0.3424	0.8577	-0.102
Mof_H 	H 	0.3439	0.3786	0.8389	0.061
Mof_C 	C 	0.4074	0.349	0.9045	0.049
Mof_H 	H 	0.4201	0.3898	0.9177	-0.007
Mof_C 	C 	0.3079	0.2741	0.7797	0.08
Mof_C 	C 	0.2606	0.3182	0.7708	-0.151
Mof_H 	H 	0.2577	0.3547	0.7966	0.078
Mof_N 	N 	0.566	0.704	0.932	-0.215
Mof_C 	C 	0.5845	0.7638	0.9127	0.049
Mof_H 	H 	0.5663	0.8	0.9315	-0.001
Mof_C 	C 	0.6298	0.7704	0.8659	-0.101
Mof_H 	H 	0.6425	0.8112	0.8527	0.069
Mof_C 	C 	0.6565	0.7174	0.8384	0.032
Mof_C 	C 	0.6379	0.6576	0.8577	-0.103
Mof_H 	H 	0.6561	0.6214	0.8389	0.062
Mof_C 	C 	0.5926	0.651	0.9045	0.051
Mof_H 	H 	0.5799	0.6102	0.9177	-0.007
Mof_C 	C 	0.6921	0.7259	0.7797	0.083
Mof_C 	C 	0.7394	0.6818	0.7708	-0.15
Mof_H 	H 	0.7423	0.6453	0.7966	0.08
Mof_N 	N 	0.566	0.296	0.068	-0.229
Mof_C 	C 	0.5845	0.2362	0.0873	0.04
Mof_H 	H 	0.5663	0.2	0.0685	-0.021
Mof_C 	C 	0.6298	0.2296	0.1341	-0.106
Mof_H 	H 	0.6425	0.1888	0.1473	0.055
Mof_C 	C 	0.6565	0.2826	0.1616	0.026
Mof_C 	C 	0.6379	0.3424	0.1423	-0.106
Mof_H 	H 	0.6561	0.3786	0.1611	0.058
Mof_C 	C 	0.5926	0.349	0.0955	0.043
Mof_H 	H 	0.5799	0.3898	0.0823	-0.019
Mof_C 	C 	0.6921	0.2741	0.2203	0.079
Mof_C 	C 	0.7394	0.3182	0.2292	-0.151
Mof_H 	H 	0.7423	0.3547	0.2034	0.076
Mof_N 	N 	0.434	0.704	0.068	-0.229
Mof_C 	C 	0.4155	0.7638	0.0873	0.041
Mof_H 	H 	0.4337	0.8	0.0685	-0.016
Mof_C 	C 	0.3702	0.7704	0.1341	-0.105
Mof_H 	H 	0.3575	0.8112	0.1473	0.061
Mof_C 	C 	0.3435	0.7174	0.1616	0.026
Mof_C 	C 	0.3621	0.6576	0.1423	-0.106
Mof_H 	H 	0.3439	0.6214	0.1611	0.057
Mof_C 	C 	0.4074	0.651	0.0955	0.043
Mof_H 	H 	0.4201	0.6102	0.0823	-0.019
Mof_C 	C 	0.3079	0.7259	0.2203	0.079
Mof_C 	C 	0.2606	0.6818	0.2292	-0.151
Mof_H 	H 	0.2577	0.6453	0.2034	0.075
Mof_N 	N 	0.932	0.434	0.296	-0.216
Mof_C 	C 	0.9127	0.4155	0.2362	0.046
Mof_H 	H 	0.9315	0.4337	0.2	-0.007
Mof_C 	C 	0.8659	0.3702	0.2296	-0.102
Mof_H 	H 	0.8527	0.3575	0.1888	0.059
Mof_C 	C 	0.8384	0.3435	0.2826	0.028
Mof_C 	C 	0.8577	0.3621	0.3424	-0.102
Mof_H 	H 	0.8389	0.3439	0.3786	0.061
Mof_C 	C 	0.9045	0.4074	0.349	0.049
Mof_H 	H 	0.9177	0.4201	0.3898	-0.007
Mof_C 	C 	0.7797	0.3079	0.2741	0.08
Mof_C 	C 	0.7708	0.2606	0.3182	-0.151
Mof_H 	H 	0.7966	0.2577	0.3547	0.078
Mof_N 	N 	0.932	0.566	0.704	-0.215
Mof_C 	C 	0.9127	0.5845	0.7638	0.049
Mof_H 	H 	0.9315	0.5663	0.8	-0.001
Mof_C 	C 	0.8659	0.6298	0.7704	-0.101
Mof_H 	H 	0.8527	0.6425	0.8112	0.069
Mof_C 	C 	0.8384	0.6565	0.7174	0.032
Mof_C 	C 	0.8577	0.6379	0.6576	-0.103
Mof_H 	H 	0.8389	0.6561	0.6214	0.062
Mof_C 	C 	0.9045	0.5926	0.651	0.051
Mof_H 	H 	0.9177	0.5799	0.6102	-0.007
Mof_C 	C 	0.7797	0.6921	0.7259	0.083
Mof_C 	C 	0.7708	0.7394	0.6818	-0.15
Mof_H 	H 	0.7966	0.7423	0.6453	0.08
Mof_N 	N 	0.068	0.566	0.296	-0.229
Mof_C 	C 	0.0873	0.5845	0.2362	0.04
Mof_H 	H 	0.0685	0.5663	0.2	-0.021
Mof_C 	C 	0.1341	0.6298	0.2296	-0.106
Mof_H 	H 	0.1473	0.6425	0.1888	0.055
Mof_C 	C 	0.1616	0.6565	0.2826	0.026
Mof_C 	C 	0.1423	0.6379	0.3424	-0.106
Mof_H 	H 	0.1611	0.6561	0.3786	0.058
Mof_C 	C 	0.0955	0.5926	0.349	0.043
Mof_H 	H 	0.0823	0.5799	0.3898	-0.019
Mof_C 	C 	0.2203	0.6921	0.2741	0.079
Mof_C 	C 	0.2292	0.7394	0.3182	-0.151
Mof_H 	H 	0.2034	0.7423	0.3547	0.076
Mof_N 	N 	0.068	0.434	0.704	-0.229
Mof_C 	C 	0.0873	0.4155	0.7638	0.041
Mof_H 	H 	0.0685	0.4337	0.8	-0.016
Mof_C 	C 	0.1341	0.3702	0.7704	-0.105
Mof_H 	H 	0.1473	0.3575	0.8112	0.061
Mof_C 	C 	0.1616	0.3435	0.7174	0.026
Mof_C 	C 	0.1423	0.3621	0.6576	-0.106
Mof_H 	H 	0.1611	0.3439	0.6214	0.057
Mof_C 	C 	0.0955	0.4074	0.651	0.043
Mof_H 	H 	0.0823	0.4201	0.6102	-0.019
Mof_C 	C 	0.2203	0.3079	0.7259	0.079
Mof_C 	C 	0.2292	0.2606	0.6818	-0.151
Mof_H 	H 	0.2034	0.2577	0.6453	0.075
Mof_N 	N 	0.296	0.932	0.434	-0.216
Mof_C 	C 	0.2362	0.9127	0.4155	0.046
Mof_H 	H 	0.2	0.9315	0.4337	-0.007
Mof_C 	C 	0.2296	0.8659	0.3702	-0.102
Mof_H 	H 	0.1888	0.8527	0.3575	0.059
Mof_C 	C 	0.2826	0.8384	0.3435	0.028
Mof_C 	C 	0.3424	0.8577	0.3621	-0.102
Mof_H 	H 	0.3786	0.8389	0.3439	0.061
Mof_C 	C 	0.349	0.9045	0.4074	0.049
Mof_H 	H 	0.3898	0.9177	0.4201	-0.007
Mof_C 	C 	0.2741	0.7797	0.3079	0.08
Mof_C 	C 	0.3182	0.7708	0.2606	-0.151
Mof_H 	H 	0.3547	0.7966	0.2577	0.078
Mof_N 	N 	0.704	0.932	0.566	-0.215
Mof_C 	C 	0.7638	0.9127	0.5845	0.049
Mof_H 	H 	0.8	0.9315	0.5663	-0.001
Mof_C 	C 	0.7704	0.8659	0.6298	-0.101
Mof_H 	H 	0.8112	0.8527	0.6425	0.069
Mof_C 	C 	0.7174	0.8384	0.6565	0.032
Mof_C 	C 	0.6576	0.8577	0.6379	-0.103
Mof_H 	H 	0.6214	0.8389	0.6561	0.062
Mof_C 	C 	0.651	0.9045	0.5926	0.051
Mof_H 	H 	0.6102	0.9177	0.5799	-0.007
Mof_C 	C 	0.7259	0.7797	0.6921	0.083
Mof_C 	C 	0.6818	0.7708	0.7394	-0.15
Mof_H 	H 	0.6453	0.7966	0.7423	0.08
Mof_N 	N 	0.296	0.068	0.566	-0.229
Mof_C 	C 	0.2362	0.0873	0.5845	0.04
Mof_H 	H 	0.2	0.0685	0.5663	-0.021
Mof_C 	C 	0.2296	0.1341	0.6298	-0.106
Mof_H 	H 	0.1888	0.1473	0.6425	0.055
Mof_C 	C 	0.2826	0.1616	0.6565	0.026
Mof_C 	C 	0.3424	0.1423	0.6379	-0.106
Mof_H 	H 	0.3786	0.1611	0.6561	0.058
Mof_C 	C 	0.349	0.0955	0.5926	0.043
Mof_H 	H 	0.3898	0.0823	0.5799	-0.019
Mof_C 	C 	0.2741	0.2203	0.6921	0.079
Mof_C 	C 	0.3182	0.2292	0.7394	-0.151
Mof_H 	H 	0.3547	0.2034	0.7423	0.076
Mof_N 	N 	0.704	0.068	0.434	-0.229
Mof_C 	C 	0.7638	0.0873	0.4155	0.041
Mof_H 	H 	0.8	0.0685	0.4337	-0.016
Mof_C 	C 	0.7704	0.1341	0.3702	-0.105
Mof_H 	H 	0.8112	0.1473	0.3575	0.061
Mof_C 	C 	0.7174	0.1616	0.3435	0.026
Mof_C 	C 	0.6576	0.1423	0.3621	-0.106
Mof_H 	H 	0.6214	0.1611	0.3439	0.057
Mof_C 	C 	0.651	0.0955	0.4074	0.043
Mof_H 	H 	0.6102	0.0823	0.4201	-0.019
Mof_C 	C 	0.7259	0.2203	0.3079	0.079
Mof_C 	C 	0.6818	0.2292	0.2606	-0.151
Mof_H 	H 	0.6453	0.2034	0.2577	0.075
Mof_Cu	Cu	0.5	0.699	-0	0.836
Mof_Cu	Cu	0.5	0.301	-0	0.835
Mof_Cu	Cu	2.62083e-33	0.5	0.699	0.836
Mof_Cu	Cu	1.12857e-33	0.5	0.301	0.835
Mof_Cu	Cu	0.699	0	0.5	0.836
Mof_Cu	Cu	0.301	0	0.5	0.835
_end
