data_functionalizedCrystal
_audit_creation_method	'EQeq! by Chris Wilmer'
_symmetry_space_group_name_H-M	'P1'
_symmetry_Int_Tables_number	1
_symmetry_cell_setting	triclinic
loop_
_symmetry_equiv_pos_as_xyz
  x,y,z
_cell_length_a	33.7186
_cell_length_b	7.9481
_cell_length_c	20.591
_cell_angle_alpha	90
_cell_angle_beta	90
_cell_angle_gamma	90
loop_
_atom_site_label
_atom_site_type_symbol
_atom_site_fract_x
_atom_site_fract_y
_atom_site_fract_z
_atom_site_charge
Mof_C 	C 	0.87639	0.2202	0.97224	0.082
Mof_H 	H 	0.8963	0.1792	0.9438	0.021
Mof_C 	C 	0.83683	0.1917	0.957	-0.149
Mof_H 	H 	0.8295	0.1321	0.9189	0.091
Mof_C 	C 	0.80722	0.2494	0.998	0.105
Mof_C 	C 	0.81901	0.3362	0.0535	-0.145
Mof_H 	H 	0.7991	0.3772	0.082	0.085
Mof_C 	C 	0.85889	0.3603	0.0659	0.083
Mof_H 	H 	0.8662	0.4199	0.104	0.017
Mof_C 	C 	0.76504	0.2244	0.982	-0.08
Mof_C 	C 	0.96411	0.2509	0.24748	-0.088
Mof_C 	C 	0.96418	0.2124	0.31373	0.011
Mof_H 	H 	0.9399	0.1988	0.3361	0.048
Mof_Cu	Cu	0.94524	0.33315	0.05044	0.922
Mof_N 	N 	0.88762	0.3028	0.02601	-0.217
Mof_O 	O 	0.93048	0.3707	0.13967	-0.373
Mof_O 	O 	0.90662	0.0944	0.17795	-0.457
Mof_O 	O 	0.88838	0.3573	0.24241	-0.263
Mof_O 	O 	0.03838	0.1871	0.46008	-0.39
Mof_O 	O 	0.95914	0.0599	0.06995	-0.424
Mof_P 	P 	0.91955	0.27588	0.20077	0.452
Mof_H 	H 	0.761	0.199	0.9374	0.059
Mof_H 	H 	0.8982	0.021	0.204	0.294
Mof_H 	H 	0.9476	0.044	0.1126	0.197
Mof_H 	H 	0.9875	0.047	0.075	0.132
Mof_C 	C 	0.37639	0.7202	0.97224	0.083
Mof_H 	H 	0.3963	0.6792	0.9438	0.022
Mof_C 	C 	0.33683	0.6917	0.957	-0.148
Mof_H 	H 	0.3295	0.6321	0.9189	0.092
Mof_C 	C 	0.30722	0.7494	0.998	0.106
Mof_C 	C 	0.31901	0.8362	0.0535	-0.144
Mof_H 	H 	0.2991	0.8772	0.082	0.086
Mof_C 	C 	0.35889	0.8603	0.0659	0.084
Mof_H 	H 	0.3662	0.9199	0.104	0.018
Mof_C 	C 	0.26504	0.7244	0.982	-0.079
Mof_C 	C 	0.46411	0.7509	0.24748	-0.085
Mof_C 	C 	0.46418	0.7124	0.31373	0.014
Mof_H 	H 	0.4399	0.6988	0.3361	0.048
Mof_Cu	Cu	0.44524	0.83315	0.05044	0.923
Mof_N 	N 	0.38762	0.8028	0.02601	-0.217
Mof_O 	O 	0.43048	0.8707	0.13967	-0.373
Mof_O 	O 	0.40662	0.5944	0.17795	-0.457
Mof_O 	O 	0.38838	0.8573	0.24241	-0.263
Mof_O 	O 	0.53838	0.6871	0.46008	-0.389
Mof_O 	O 	0.45914	0.5599	0.06995	-0.425
Mof_P 	P 	0.41955	0.77588	0.20077	0.452
Mof_H 	H 	0.261	0.699	0.9374	0.059
Mof_H 	H 	0.3982	0.521	0.204	0.295
Mof_H 	H 	0.4476	0.544	0.1126	0.198
Mof_H 	H 	0.4875	0.547	0.075	0.134
Mof_C 	C 	0.12361	0.2798	0.47224	0.083
Mof_H 	H 	0.1037	0.3208	0.4438	0.022
Mof_C 	C 	0.16317	0.3083	0.457	-0.148
Mof_H 	H 	0.1705	0.3679	0.4189	0.092
Mof_C 	C 	0.19278	0.2506	0.498	0.106
Mof_C 	C 	0.18099	0.1638	0.5535	-0.144
Mof_H 	H 	0.2009	0.1228	0.582	0.086
Mof_C 	C 	0.14111	0.1397	0.5659	0.084
Mof_H 	H 	0.1338	0.0801	0.604	0.018
Mof_C 	C 	0.23496	0.2756	0.482	-0.079
Mof_C 	C 	0.03589	0.2491	0.74748	-0.085
Mof_C 	C 	0.03582	0.2876	0.81373	0.014
Mof_H 	H 	0.0601	0.3012	0.8361	0.048
Mof_Cu	Cu	0.05476	0.16685	0.55044	0.923
Mof_N 	N 	0.11238	0.1972	0.52601	-0.217
Mof_O 	O 	0.06952	0.1293	0.63967	-0.373
Mof_O 	O 	0.09338	0.4056	0.67795	-0.457
Mof_O 	O 	0.11162	0.1427	0.74241	-0.263
Mof_O 	O 	0.96162	0.3129	0.96008	-0.391
Mof_O 	O 	0.04086	0.4401	0.56995	-0.425
Mof_P 	P 	0.08045	0.22412	0.70077	0.452
Mof_H 	H 	0.239	0.301	0.4374	0.059
Mof_H 	H 	0.1018	0.479	0.704	0.295
Mof_H 	H 	0.0524	0.456	0.6126	0.198
Mof_H 	H 	0.0125	0.453	0.575	0.136
Mof_C 	C 	0.62361	0.7798	0.47224	0.083
Mof_H 	H 	0.6037	0.8208	0.4438	0.022
Mof_C 	C 	0.66317	0.8083	0.457	-0.148
Mof_H 	H 	0.6705	0.8679	0.4189	0.092
Mof_C 	C 	0.69278	0.7506	0.498	0.106
Mof_C 	C 	0.68099	0.6638	0.5535	-0.144
Mof_H 	H 	0.7009	0.6228	0.582	0.086
Mof_C 	C 	0.64111	0.6397	0.5659	0.084
Mof_H 	H 	0.6338	0.5801	0.604	0.018
Mof_C 	C 	0.73496	0.7756	0.482	-0.079
Mof_C 	C 	0.53589	0.7491	0.74748	-0.085
Mof_C 	C 	0.53582	0.7876	0.81373	0.014
Mof_H 	H 	0.5601	0.8012	0.8361	0.048
Mof_Cu	Cu	0.55476	0.66685	0.55044	0.923
Mof_N 	N 	0.61238	0.6972	0.52601	-0.217
Mof_O 	O 	0.56952	0.6293	0.63967	-0.373
Mof_O 	O 	0.59338	0.9056	0.67795	-0.457
Mof_O 	O 	0.61162	0.6427	0.74241	-0.263
Mof_O 	O 	0.46162	0.8129	0.96008	-0.389
Mof_O 	O 	0.54086	0.9401	0.56995	-0.425
Mof_P 	P 	0.58045	0.72412	0.70077	0.452
Mof_H 	H 	0.739	0.801	0.4374	0.059
Mof_H 	H 	0.6018	0.979	0.704	0.294
Mof_H 	H 	0.5524	0.956	0.6126	0.197
Mof_H 	H 	0.5125	0.953	0.575	0.134
Mof_C 	C 	0.12361	0.7202	0.52776	0.083
Mof_H 	H 	0.1037	0.6792	0.5562	0.022
Mof_C 	C 	0.16317	0.6917	0.543	-0.148
Mof_H 	H 	0.1705	0.6321	0.5811	0.092
Mof_C 	C 	0.19278	0.7494	0.502	0.106
Mof_C 	C 	0.18099	0.8362	0.4465	-0.144
Mof_H 	H 	0.2009	0.8772	0.418	0.086
Mof_C 	C 	0.14111	0.8603	0.4341	0.084
Mof_H 	H 	0.1338	0.9199	0.396	0.018
Mof_C 	C 	0.23496	0.7244	0.518	-0.079
Mof_C 	C 	0.03589	0.7509	0.25252	-0.085
Mof_C 	C 	0.03582	0.7124	0.18627	0.014
Mof_H 	H 	0.0601	0.6988	0.1639	0.048
Mof_Cu	Cu	0.05476	0.83315	0.44956	0.923
Mof_N 	N 	0.11238	0.8028	0.47399	-0.217
Mof_O 	O 	0.06952	0.8707	0.36033	-0.373
Mof_O 	O 	0.09338	0.5944	0.32205	-0.457
Mof_O 	O 	0.11162	0.8573	0.25759	-0.263
Mof_O 	O 	0.96162	0.6871	0.03992	-0.391
Mof_O 	O 	0.04086	0.5599	0.43005	-0.425
Mof_P 	P 	0.08045	0.77588	0.29923	0.452
Mof_H 	H 	0.239	0.699	0.5626	0.059
Mof_H 	H 	0.1018	0.521	0.296	0.295
Mof_H 	H 	0.0524	0.544	0.3874	0.198
Mof_H 	H 	0.0125	0.547	0.425	0.136
Mof_C 	C 	0.62361	0.2202	0.52776	0.083
Mof_H 	H 	0.6037	0.1792	0.5562	0.022
Mof_C 	C 	0.66317	0.1917	0.543	-0.148
Mof_H 	H 	0.6705	0.1321	0.5811	0.092
Mof_C 	C 	0.69278	0.2494	0.502	0.106
Mof_C 	C 	0.68099	0.3362	0.4465	-0.144
Mof_H 	H 	0.7009	0.3772	0.418	0.086
Mof_C 	C 	0.64111	0.3603	0.4341	0.084
Mof_H 	H 	0.6338	0.4199	0.396	0.018
Mof_C 	C 	0.73496	0.2244	0.518	-0.079
Mof_C 	C 	0.53589	0.2509	0.25252	-0.085
Mof_C 	C 	0.53582	0.2124	0.18627	0.014
Mof_H 	H 	0.5601	0.1988	0.1639	0.048
Mof_Cu	Cu	0.55476	0.33315	0.44956	0.923
Mof_N 	N 	0.61238	0.3028	0.47399	-0.217
Mof_O 	O 	0.56952	0.3707	0.36033	-0.373
Mof_O 	O 	0.59338	0.0944	0.32205	-0.457
Mof_O 	O 	0.61162	0.3573	0.25759	-0.263
Mof_O 	O 	0.46162	0.1871	0.03992	-0.389
Mof_O 	O 	0.54086	0.0599	0.43005	-0.425
Mof_P 	P 	0.58045	0.27588	0.29923	0.452
Mof_H 	H 	0.739	0.199	0.5626	0.059
Mof_H 	H 	0.6018	0.021	0.296	0.294
Mof_H 	H 	0.5524	0.044	0.3874	0.197
Mof_H 	H 	0.5125	0.047	0.425	0.134
Mof_C 	C 	0.87639	0.7798	0.02776	0.083
Mof_H 	H 	0.8963	0.8208	0.0562	0.022
Mof_C 	C 	0.83683	0.8083	0.043	-0.148
Mof_H 	H 	0.8295	0.8679	0.0811	0.092
Mof_C 	C 	0.80722	0.7506	0.002	0.106
Mof_C 	C 	0.81901	0.6638	0.9465	-0.144
Mof_H 	H 	0.7991	0.6228	0.918	0.086
Mof_C 	C 	0.85889	0.6397	0.9341	0.084
Mof_H 	H 	0.8662	0.5801	0.896	0.018
Mof_C 	C 	0.76504	0.7756	0.018	-0.079
Mof_C 	C 	0.96411	0.7491	0.75252	-0.087
Mof_C 	C 	0.96418	0.7876	0.68627	0.012
Mof_H 	H 	0.9399	0.8012	0.6639	0.048
Mof_Cu	Cu	0.94524	0.66685	0.94956	0.922
Mof_N 	N 	0.88762	0.6972	0.97399	-0.217
Mof_O 	O 	0.93048	0.6293	0.86033	-0.373
Mof_O 	O 	0.90662	0.9056	0.82205	-0.457
Mof_O 	O 	0.88838	0.6427	0.75759	-0.263
Mof_O 	O 	0.03838	0.8129	0.53992	-0.39
Mof_O 	O 	0.95914	0.9401	0.93005	-0.424
Mof_P 	P 	0.91955	0.72412	0.79923	0.452
Mof_H 	H 	0.761	0.801	0.0626	0.059
Mof_H 	H 	0.8982	0.979	0.796	0.294
Mof_H 	H 	0.9476	0.956	0.8874	0.197
Mof_H 	H 	0.9875	0.953	0.925	0.132
Mof_C 	C 	0.37639	0.2798	0.02776	0.083
Mof_H 	H 	0.3963	0.3208	0.0562	0.022
Mof_C 	C 	0.33683	0.3083	0.043	-0.148
Mof_H 	H 	0.3295	0.3679	0.0811	0.092
Mof_C 	C 	0.30722	0.2506	0.002	0.106
Mof_C 	C 	0.31901	0.1638	0.9465	-0.144
Mof_H 	H 	0.2991	0.1228	0.918	0.086
Mof_C 	C 	0.35889	0.1397	0.9341	0.084
Mof_H 	H 	0.3662	0.0801	0.896	0.018
Mof_C 	C 	0.26504	0.2756	0.018	-0.079
Mof_C 	C 	0.46411	0.2491	0.75252	-0.085
Mof_C 	C 	0.46418	0.2876	0.68627	0.014
Mof_H 	H 	0.4399	0.3012	0.6639	0.048
Mof_Cu	Cu	0.44524	0.16685	0.94956	0.923
Mof_N 	N 	0.38762	0.1972	0.97399	-0.217
Mof_O 	O 	0.43048	0.1293	0.86033	-0.373
Mof_O 	O 	0.40662	0.4056	0.82205	-0.457
Mof_O 	O 	0.38838	0.1427	0.75759	-0.263
Mof_O 	O 	0.53838	0.3129	0.53992	-0.389
Mof_O 	O 	0.45914	0.4401	0.93005	-0.425
Mof_P 	P 	0.41955	0.22412	0.79923	0.452
Mof_H 	H 	0.261	0.301	0.0626	0.059
Mof_H 	H 	0.3982	0.479	0.796	0.295
Mof_H 	H 	0.4476	0.456	0.8874	0.198
Mof_H 	H 	0.4875	0.453	0.925	0.134
Mof_C 	C 	0.12361	0.7798	0.02776	0.083
Mof_H 	H 	0.1037	0.8208	0.0562	0.022
Mof_C 	C 	0.16317	0.8083	0.043	-0.148
Mof_H 	H 	0.1705	0.8679	0.0811	0.092
Mof_C 	C 	0.19278	0.7506	0.002	0.106
Mof_C 	C 	0.18099	0.6638	0.9465	-0.144
Mof_H 	H 	0.2009	0.6228	0.918	0.086
Mof_C 	C 	0.14111	0.6397	0.9341	0.084
Mof_H 	H 	0.1338	0.5801	0.896	0.018
Mof_C 	C 	0.23496	0.7756	0.018	-0.079
Mof_C 	C 	0.03589	0.7491	0.75252	-0.086
Mof_C 	C 	0.03582	0.7876	0.68627	0.014
Mof_H 	H 	0.0601	0.8012	0.6639	0.048
Mof_Cu	Cu	0.05476	0.66685	0.94956	0.923
Mof_N 	N 	0.11238	0.6972	0.97399	-0.217
Mof_O 	O 	0.06952	0.6293	0.86033	-0.373
Mof_O 	O 	0.09338	0.9056	0.82205	-0.457
Mof_O 	O 	0.11162	0.6427	0.75759	-0.263
Mof_O 	O 	0.96162	0.8129	0.53992	-0.391
Mof_O 	O 	0.04086	0.9401	0.93005	-0.425
Mof_P 	P 	0.08045	0.72412	0.79923	0.452
Mof_H 	H 	0.239	0.801	0.0626	0.059
Mof_H 	H 	0.1018	0.979	0.796	0.294
Mof_H 	H 	0.0524	0.956	0.8874	0.198
Mof_H 	H 	0.0125	0.953	0.925	0.136
Mof_C 	C 	0.62361	0.2798	0.02776	0.083
Mof_H 	H 	0.6037	0.3208	0.0562	0.022
Mof_C 	C 	0.66317	0.3083	0.043	-0.148
Mof_H 	H 	0.6705	0.3679	0.0811	0.092
Mof_C 	C 	0.69278	0.2506	0.002	0.106
Mof_C 	C 	0.68099	0.1638	0.9465	-0.144
Mof_H 	H 	0.7009	0.1228	0.918	0.086
Mof_C 	C 	0.64111	0.1397	0.9341	0.084
Mof_H 	H 	0.6338	0.0801	0.896	0.018
Mof_C 	C 	0.73496	0.2756	0.018	-0.079
Mof_C 	C 	0.53589	0.2491	0.75252	-0.085
Mof_C 	C 	0.53582	0.2876	0.68627	0.014
Mof_H 	H 	0.5601	0.3012	0.6639	0.048
Mof_Cu	Cu	0.55476	0.16685	0.94956	0.923
Mof_N 	N 	0.61238	0.1972	0.97399	-0.217
Mof_O 	O 	0.56952	0.1293	0.86033	-0.373
Mof_O 	O 	0.59338	0.4056	0.82205	-0.457
Mof_O 	O 	0.61162	0.1427	0.75759	-0.263
Mof_O 	O 	0.46162	0.3129	0.53992	-0.389
Mof_O 	O 	0.54086	0.4401	0.93005	-0.425
Mof_P 	P 	0.58045	0.22412	0.79923	0.452
Mof_H 	H 	0.739	0.301	0.0626	0.059
Mof_H 	H 	0.6018	0.479	0.796	0.295
Mof_H 	H 	0.5524	0.456	0.8874	0.198
Mof_H 	H 	0.5125	0.453	0.925	0.134
Mof_C 	C 	0.87639	0.7202	0.52776	0.083
Mof_H 	H 	0.8963	0.6792	0.5562	0.022
Mof_C 	C 	0.83683	0.6917	0.543	-0.148
Mof_H 	H 	0.8295	0.6321	0.5811	0.092
Mof_C 	C 	0.80722	0.7494	0.502	0.106
Mof_C 	C 	0.81901	0.8362	0.4465	-0.144
Mof_H 	H 	0.7991	0.8772	0.418	0.086
Mof_C 	C 	0.85889	0.8603	0.4341	0.084
Mof_H 	H 	0.8662	0.9199	0.396	0.018
Mof_C 	C 	0.76504	0.7244	0.518	-0.079
Mof_C 	C 	0.96411	0.7509	0.25252	-0.087
Mof_C 	C 	0.96418	0.7124	0.18627	0.012
Mof_H 	H 	0.9399	0.6988	0.1639	0.049
Mof_Cu	Cu	0.94524	0.83315	0.44956	0.922
Mof_N 	N 	0.88762	0.8028	0.47399	-0.217
Mof_O 	O 	0.93048	0.8707	0.36033	-0.373
Mof_O 	O 	0.90662	0.5944	0.32205	-0.457
Mof_O 	O 	0.88838	0.8573	0.25759	-0.263
Mof_O 	O 	0.03838	0.6871	0.03992	-0.389
Mof_O 	O 	0.95914	0.5599	0.43005	-0.424
Mof_P 	P 	0.91955	0.77588	0.29923	0.452
Mof_H 	H 	0.761	0.699	0.5626	0.059
Mof_H 	H 	0.8982	0.521	0.296	0.295
Mof_H 	H 	0.9476	0.544	0.3874	0.197
Mof_H 	H 	0.9875	0.547	0.425	0.132
Mof_C 	C 	0.37639	0.2202	0.52776	0.083
Mof_H 	H 	0.3963	0.1792	0.5562	0.022
Mof_C 	C 	0.33683	0.1917	0.543	-0.148
Mof_H 	H 	0.3295	0.1321	0.5811	0.092
Mof_C 	C 	0.30722	0.2494	0.502	0.106
Mof_C 	C 	0.31901	0.3362	0.4465	-0.144
Mof_H 	H 	0.2991	0.3772	0.418	0.086
Mof_C 	C 	0.35889	0.3603	0.4341	0.084
Mof_H 	H 	0.3662	0.4199	0.396	0.018
Mof_C 	C 	0.26504	0.2244	0.518	-0.079
Mof_C 	C 	0.46411	0.2509	0.25252	-0.085
Mof_C 	C 	0.46418	0.2124	0.18627	0.014
Mof_H 	H 	0.4399	0.1988	0.1639	0.048
Mof_Cu	Cu	0.44524	0.33315	0.44956	0.923
Mof_N 	N 	0.38762	0.3028	0.47399	-0.217
Mof_O 	O 	0.43048	0.3707	0.36033	-0.373
Mof_O 	O 	0.40662	0.0944	0.32205	-0.457
Mof_O 	O 	0.38838	0.3573	0.25759	-0.263
Mof_O 	O 	0.53838	0.1871	0.03992	-0.389
Mof_O 	O 	0.45914	0.0599	0.43005	-0.425
Mof_P 	P 	0.41955	0.27588	0.29923	0.452
Mof_H 	H 	0.261	0.199	0.5626	0.059
Mof_H 	H 	0.3982	0.021	0.296	0.294
Mof_H 	H 	0.4476	0.044	0.3874	0.197
Mof_H 	H 	0.4875	0.047	0.425	0.134
Mof_C 	C 	0.87639	0.2798	0.47224	0.083
Mof_H 	H 	0.8963	0.3208	0.4438	0.022
Mof_C 	C 	0.83683	0.3083	0.457	-0.148
Mof_H 	H 	0.8295	0.3679	0.4189	0.092
Mof_C 	C 	0.80722	0.2506	0.498	0.106
Mof_C 	C 	0.81901	0.1638	0.5535	-0.144
Mof_H 	H 	0.7991	0.1228	0.582	0.086
Mof_C 	C 	0.85889	0.1397	0.5659	0.084
Mof_H 	H 	0.8662	0.0801	0.604	0.018
Mof_C 	C 	0.76504	0.2756	0.482	-0.079
Mof_C 	C 	0.96411	0.2491	0.74748	-0.087
Mof_C 	C 	0.96418	0.2876	0.81373	0.012
Mof_H 	H 	0.9399	0.3012	0.8361	0.049
Mof_Cu	Cu	0.94524	0.16685	0.55044	0.922
Mof_N 	N 	0.88762	0.1972	0.52601	-0.217
Mof_O 	O 	0.93048	0.1293	0.63967	-0.373
Mof_O 	O 	0.90662	0.4056	0.67795	-0.457
Mof_O 	O 	0.88838	0.1427	0.74241	-0.263
Mof_O 	O 	0.03838	0.3129	0.96008	-0.389
Mof_O 	O 	0.95914	0.4401	0.56995	-0.424
Mof_P 	P 	0.91955	0.22412	0.70077	0.452
Mof_H 	H 	0.761	0.301	0.4374	0.059
Mof_H 	H 	0.8982	0.479	0.704	0.295
Mof_H 	H 	0.9476	0.456	0.6126	0.197
Mof_H 	H 	0.9875	0.453	0.575	0.132
Mof_C 	C 	0.37639	0.7798	0.47224	0.083
Mof_H 	H 	0.3963	0.8208	0.4438	0.022
Mof_C 	C 	0.33683	0.8083	0.457	-0.148
Mof_H 	H 	0.3295	0.8679	0.4189	0.092
Mof_C 	C 	0.30722	0.7506	0.498	0.106
Mof_C 	C 	0.31901	0.6638	0.5535	-0.144
Mof_H 	H 	0.2991	0.6228	0.582	0.086
Mof_C 	C 	0.35889	0.6397	0.5659	0.084
Mof_H 	H 	0.3662	0.5801	0.604	0.018
Mof_C 	C 	0.26504	0.7756	0.482	-0.079
Mof_C 	C 	0.46411	0.7491	0.74748	-0.085
Mof_C 	C 	0.46418	0.7876	0.81373	0.014
Mof_H 	H 	0.4399	0.8012	0.8361	0.048
Mof_Cu	Cu	0.44524	0.66685	0.55044	0.923
Mof_N 	N 	0.38762	0.6972	0.52601	-0.217
Mof_O 	O 	0.43048	0.6293	0.63967	-0.373
Mof_O 	O 	0.40662	0.9056	0.67795	-0.457
Mof_O 	O 	0.38838	0.6427	0.74241	-0.263
Mof_O 	O 	0.53838	0.8129	0.96008	-0.389
Mof_O 	O 	0.45914	0.9401	0.56995	-0.425
Mof_P 	P 	0.41955	0.72412	0.70077	0.452
Mof_H 	H 	0.261	0.801	0.4374	0.059
Mof_H 	H 	0.3982	0.979	0.704	0.294
Mof_H 	H 	0.4476	0.956	0.6126	0.197
Mof_H 	H 	0.4875	0.953	0.575	0.134
Mof_C 	C 	0.12361	0.2202	0.97224	0.083
Mof_H 	H 	0.1037	0.1792	0.9438	0.022
Mof_C 	C 	0.16317	0.1917	0.957	-0.148
Mof_H 	H 	0.1705	0.1321	0.9189	0.092
Mof_C 	C 	0.19278	0.2494	0.998	0.106
Mof_C 	C 	0.18099	0.3362	0.0535	-0.144
Mof_H 	H 	0.2009	0.3772	0.082	0.086
Mof_C 	C 	0.14111	0.3603	0.0659	0.084
Mof_H 	H 	0.1338	0.4199	0.104	0.018
Mof_C 	C 	0.23496	0.2244	0.982	-0.079
Mof_C 	C 	0.03589	0.2509	0.24748	-0.086
Mof_C 	C 	0.03582	0.2124	0.31373	0.014
Mof_H 	H 	0.0601	0.1988	0.3361	0.048
Mof_Cu	Cu	0.05476	0.33315	0.05044	0.923
Mof_N 	N 	0.11238	0.3028	0.02601	-0.217
Mof_O 	O 	0.06952	0.3707	0.13967	-0.373
Mof_O 	O 	0.09338	0.0944	0.17795	-0.457
Mof_O 	O 	0.11162	0.3573	0.24241	-0.263
Mof_O 	O 	0.96162	0.1871	0.46008	-0.391
Mof_O 	O 	0.04086	0.0599	0.06995	-0.425
Mof_P 	P 	0.08045	0.27588	0.20077	0.452
Mof_H 	H 	0.239	0.199	0.9374	0.059
Mof_H 	H 	0.1018	0.021	0.204	0.294
Mof_H 	H 	0.0524	0.044	0.1126	0.198
Mof_H 	H 	0.0125	0.047	0.075	0.136
Mof_C 	C 	0.62361	0.7202	0.97224	0.083
Mof_H 	H 	0.6037	0.6792	0.9438	0.022
Mof_C 	C 	0.66317	0.6917	0.957	-0.148
Mof_H 	H 	0.6705	0.6321	0.9189	0.092
Mof_C 	C 	0.69278	0.7494	0.998	0.106
Mof_C 	C 	0.68099	0.8362	0.0535	-0.144
Mof_H 	H 	0.7009	0.8772	0.082	0.086
Mof_C 	C 	0.64111	0.8603	0.0659	0.084
Mof_H 	H 	0.6338	0.9199	0.104	0.018
Mof_C 	C 	0.73496	0.7244	0.982	-0.079
Mof_C 	C 	0.53589	0.7509	0.24748	-0.085
Mof_C 	C 	0.53582	0.7124	0.31373	0.014
Mof_H 	H 	0.5601	0.6988	0.3361	0.048
Mof_Cu	Cu	0.55476	0.83315	0.05044	0.923
Mof_N 	N 	0.61238	0.8028	0.02601	-0.217
Mof_O 	O 	0.56952	0.8707	0.13967	-0.373
Mof_O 	O 	0.59338	0.5944	0.17795	-0.457
Mof_O 	O 	0.61162	0.8573	0.24241	-0.263
Mof_O 	O 	0.46162	0.6871	0.46008	-0.389
Mof_O 	O 	0.54086	0.5599	0.06995	-0.425
Mof_P 	P 	0.58045	0.77588	0.20077	0.452
Mof_H 	H 	0.739	0.699	0.9374	0.059
Mof_H 	H 	0.6018	0.521	0.204	0.295
Mof_H 	H 	0.5524	0.544	0.1126	0.198
Mof_H 	H 	0.5125	0.547	0.075	0.134
Mof_C 	C 	1.63612e-33	0.2694	0.2151	0.024
Mof_H 	H 	3.89241e-34	0.2942	0.17	0.028
Mof_C 	C 	-1.49341e-33	0.193	0.3467	-0.063
Mof_O 	O 	3.27313e-33	0.9286	0.43059	-0.456
Mof_P 	P 	-1.30293e-33	0.12468	0.42989	0.408
Mof_C 	C 	0.5	0.7694	0.2151	0.022
Mof_H 	H 	0.5	0.7942	0.17	0.028
Mof_C 	C 	0.5	0.693	0.3467	-0.065
Mof_O 	O 	0.5	0.4286	0.43059	-0.456
Mof_P 	P 	0.5	0.62468	0.42989	0.407
Mof_C 	C 	1.63733e-33	0.2306	0.7151	0.025
Mof_H 	H 	1.53407e-33	0.2058	0.67	0.028
Mof_C 	C 	1.93865e-33	0.307	0.8467	-0.063
Mof_O 	O 	-2.44374e-33	0.5714	0.93059	-0.456
Mof_P 	P 	2.12913e-33	0.37532	0.92989	0.408
Mof_C 	C 	0.5	0.7306	0.7151	0.022
Mof_H 	H 	0.5	0.7058	0.67	0.028
Mof_C 	C 	0.5	0.807	0.8467	-0.065
Mof_O 	O 	0.5	0.0714	0.93059	-0.456
Mof_P 	P 	0.5	0.87532	0.92989	0.407
Mof_C 	C 	6.52322e-34	0.7694	0.2849	0.025
Mof_H 	H 	3.04282e-33	0.7942	0.33	0.028
Mof_C 	C 	-7.92612e-34	0.693	0.1533	-0.063
Mof_O 	O 	1.58925e-34	0.4286	0.06941	-0.456
Mof_P 	P 	2.44776e-33	0.62468	0.07011	0.408
Mof_C 	C 	0.5	0.2694	0.2849	0.022
Mof_H 	H 	0.5	0.2942	0.33	0.028
Mof_C 	C 	0.5	0.193	0.1533	-0.065
Mof_O 	O 	0.5	0.9286	0.06941	-0.456
Mof_P 	P 	0.5	0.12468	0.07011	0.407
Mof_C 	C 	-2.77731e-33	0.7306	0.7849	0.024
Mof_H 	H 	-7.24851e-33	0.7058	0.83	0.028
Mof_C 	C 	1.49583e-33	0.807	0.6533	-0.063
Mof_O 	O 	1.30375e-33	0.0714	0.56941	-0.456
Mof_P 	P 	-3.26911e-33	0.87532	0.57011	0.408
Mof_C 	C 	0.5	0.2306	0.7849	0.022
Mof_H 	H 	0.5	0.2058	0.83	0.028
Mof_C 	C 	0.5	0.307	0.6533	-0.065
Mof_O 	O 	0.5	0.5714	0.56941	-0.456
Mof_P 	P 	0.5	0.37532	0.57011	0.407
_end
