data_functionalizedCrystal
_audit_creation_method	'EQeq! by Chris Wilmer'
_symmetry_space_group_name_H-M	'P1'
_symmetry_Int_Tables_number	1
_symmetry_cell_setting	triclinic
loop_
_symmetry_equiv_pos_as_xyz
  x,y,z
_cell_length_a	13.082
_cell_length_b	16.6166
_cell_length_c	31.2505
_cell_angle_alpha	83.2316
_cell_angle_beta	77.9181
_cell_angle_gamma	66.8186
loop_
_atom_site_label
_atom_site_type_symbol
_atom_site_fract_x
_atom_site_fract_y
_atom_site_fract_z
_atom_site_charge
Mof_Ga	Ga	0.89554	0.71202	0.41342	1.956
Mof_Ga	Ga	0.97902	0.21202	0.91342	1.952
Mof_Ag	Ag	0.98604	0.23098	0.23182	0.692
Mof_Ag	Ag	0.55116	0.73098	0.73182	0.692
Mof_H 	H 	0.1532	0.6833	0.3733	-0.009
Mof_H 	H 	0.2772	0.5878	0.3124	0.098
Mof_H 	H 	0.1826	0.4911	0.3005	0.061
Mof_H 	H 	0.7749	0.4764	0.369	0.113
Mof_H 	H 	0.6188	0.5554	0.4286	0.059
Mof_H 	H 	0.6707	0.6735	0.4517	-0.006
Mof_H 	H 	0.1081	0.3659	0.3443	0.097
Mof_H 	H 	0.1368	0.2656	0.2946	-0.008
Mof_H 	H 	0.8939	0.4342	0.2364	0.02
Mof_H 	H 	0.8619	0.5395	0.2845	0.134
Mof_H 	H 	0.036	0.7599	0.4705	-0.02
Mof_H 	H 	0.118	0.8739	0.4545	0.053
Mof_H 	H 	0.0405	0.9658	0.391	0.066
Mof_H 	H 	0.793	0.9275	0.2805	0.066
Mof_H 	H 	0.7005	0.823	0.2788	0.088
Mof_H 	H 	0.7457	0.7165	0.3433	0
Mof_H 	H 	0.7621	0.0559	0.3359	0.092
Mof_H 	H 	0.7945	0.1739	0.2923	-0.01
Mof_H 	H 	0.1158	0.0316	0.2604	0.031
Mof_H 	H 	0.0985	0.9131	0.2999	0.116
Mof_H 	H 	0.8719	0.0639	0.9439	-0.011
Mof_H 	H 	0.8224	0.0138	0.0212	0.035
Mof_H 	H 	0.8726	0.0927	0.0701	0.061
Mof_H 	H 	0.042	0.3473	0.0417	0.068
Mof_H 	H 	0.0891	0.4363	0.9731	0.046
Mof_H 	H 	0.0475	0.3745	0.9105	-0.008
Mof_H 	H 	0.8154	0.3208	0.0882	0.093
Mof_H 	H 	0.8262	0.3212	0.1616	0.012
Mof_H 	H 	0.1099	0.1182	0.1494	0.007
Mof_H 	H 	0.1109	0.1105	0.0751	0.094
Mof_H 	H 	0.7902	0.1833	0.8733	-0.01
Mof_H 	H 	0.8226	0.0878	0.8124	0.096
Mof_H 	H 	0.0258	0.9911	0.8005	0.061
Mof_H 	H 	0.3797	0.9764	0.869	0.111
Mof_H 	H 	0.3972	0.0554	0.9286	0.058
Mof_H 	H 	0.2041	0.1735	0.9517	-0.007
Mof_H 	H 	0.1817	0.8659	0.8443	0.097
Mof_H 	H 	0.303	0.7656	0.7946	-0.008
Mof_H 	H 	0.4355	0.9342	0.7364	0.02
Mof_H 	H 	0.3141	0.0395	0.7845	0.135
Mof_H 	H 	0.7336	0.2599	0.9705	-0.021
Mof_H 	H 	0.5536	0.3739	0.9545	0.054
Mof_H 	H 	0.6027	0.4658	0.891	0.065
Mof_H 	H 	0.999	0.4275	0.7805	0.064
Mof_H 	H 	0.1977	0.323	0.7788	0.089
Mof_H 	H 	0.1945	0.2165	0.8433	0
Mof_H 	H 	0.8461	0.5559	0.8359	0.09
Mof_H 	H 	0.7393	0.6739	0.7923	-0.009
Mof_H 	H 	0.5922	0.5316	0.7604	0.033
Mof_H 	H 	0.6885	0.4131	0.7999	0.113
Mof_H 	H 	0.1203	0.5639	0.4439	-0.01
Mof_H 	H 	0.1426	0.5138	0.5212	0.036
Mof_H 	H 	0.9646	0.5927	0.5701	0.061
Mof_H 	H 	0.569	0.8473	0.5417	0.067
Mof_H 	H 	0.5015	0.9363	0.4731	0.046
Mof_H 	H 	0.6675	0.8745	0.4105	-0.009
Mof_H 	H 	0.7756	0.8208	0.5882	0.093
Mof_H 	H 	0.691	0.8212	0.6616	0.012
Mof_H 	H 	0.6225	0.6182	0.6494	0.007
Mof_H 	H 	0.7035	0.6105	0.5751	0.094
Mof_C 	C 	0.1338	0.64383	0.36017	0.079
Mof_C 	C 	0.2053	0.589	0.3272	-0.074
Mof_C 	C 	0.1531	0.5377	0.3201	-0.085
Mof_C 	C 	0.0426	0.56706	0.34834	0.134
Mof_C 	C 	0.96034	0.5347	0.35142	-0.183
Mof_C 	C 	0.85396	0.56143	0.37985	0.136
Mof_C 	C 	0.7708	0.5231	0.3851	-0.1
Mof_C 	C 	0.6857	0.5662	0.4172	-0.029
Mof_C 	C 	0.7173	0.63159	0.43041	0.056
Mof_C 	C 	0.97878	0.46411	0.32093	0.161
Mof_C 	C 	0.0613	0.3811	0.3227	-0.202
Mof_C 	C 	0.076	0.3208	0.2938	0.112
Mof_C 	C 	0.935	0.41884	0.25976	0.119
Mof_C 	C 	0.9173	0.48229	0.28791	-0.186
Mof_C 	C 	0.026	0.7999	0.4459	0.081
Mof_C 	C 	0.0699	0.865	0.4382	-0.066
Mof_C 	C 	0.0306	0.9134	0.4028	-0.088
Mof_C 	C 	0.9707	0.87002	0.38638	0.122
Mof_C 	C 	0.917	0.89288	0.35092	-0.169
Mof_C 	C 	0.85127	0.85486	0.3374	0.123
Mof_C 	C 	0.7947	0.8798	0.3006	-0.089
Mof_C 	C 	0.7442	0.82309	0.29951	-0.059
Mof_C 	C 	0.7704	0.76377	0.33603	0.077
Mof_C 	C 	0.9276	0.97176	0.32304	0.145
Mof_C 	C 	0.8357	0.0493	0.3207	-0.187
Mof_C 	C 	0.8571	0.12	0.2938	0.108
Mof_C 	C 	0.0429	0.0363	0.2757	0.093
Mof_C 	C 	0.0341	0.96593	0.29927	-0.184
Mof_C 	C 	0.8833	0.08416	0.96904	0.047
Mof_C 	C 	0.8554	0.05619	0.01221	-0.04
Mof_C 	C 	0.8829	0.09893	0.03907	-0.108
Mof_C 	C 	0.93039	0.15566	0.01196	0.127
Mof_C 	C 	0.9629	0.21785	0.02495	-0.178
Mof_C 	C 	0.9974	0.27922	0.99918	0.132
Mof_C 	C 	0.0357	0.3409	0.0127	-0.106
Mof_C 	C 	0.0625	0.3902	0.975	-0.05
Mof_C 	C 	0.0395	0.3536	0.9402	0.055
Mof_C 	C 	0.9647	0.21653	0.07327	0.143
Mof_C 	C 	0.8783	0.27889	0.09971	-0.183
Mof_C 	C 	0.8858	0.27877	0.14343	0.091
Mof_C 	C 	0.0505	0.1611	0.1365	0.1
Mof_C 	C 	0.0516	0.15542	0.09198	-0.185
Mof_C 	C 	0.8622	0.14383	0.86017	0.078
Mof_C 	C 	0.8785	0.089	0.8272	-0.071
Mof_C 	C 	0.9891	0.0377	0.8201	-0.09
Mof_C 	C 	0.042	0.06706	0.84834	0.139
Mof_C 	C 	0.15354	0.0347	0.85142	-0.184
Mof_C 	C 	0.20476	0.06143	0.87985	0.136
Mof_C 	C 	0.321	0.0231	0.8851	-0.099
Mof_C 	C 	0.3309	0.0662	0.9172	-0.029
Mof_C 	C 	0.2207	0.13159	0.93041	0.057
Mof_C 	C 	0.23618	0.96411	0.82093	0.16
Mof_C 	C 	0.2349	0.8811	0.8227	-0.202
Mof_C 	C 	0.3094	0.8208	0.7938	0.112
Mof_C 	C 	0.3864	0.91884	0.75976	0.12
Mof_C 	C 	0.3125	0.98229	0.78791	-0.189
Mof_C 	C 	0.7282	0.2999	0.9459	0.083
Mof_C 	C 	0.6269	0.365	0.9382	-0.069
Mof_C 	C 	0.6532	0.4134	0.9028	-0.084
Mof_C 	C 	0.7729	0.37002	0.88638	0.118
Mof_C 	C 	0.8392	0.39288	0.85092	-0.165
Mof_C 	C 	0.95647	0.35486	0.8374	0.119
Mof_C 	C 	0.0249	0.3798	0.8006	-0.083
Mof_C 	C 	0.1332	0.32309	0.79951	-0.062
Mof_C 	C 	0.1298	0.26377	0.83603	0.078
Mof_C 	C 	0.7776	0.47176	0.82304	0.137
Mof_C 	C 	0.7943	0.5493	0.8207	-0.181
Mof_C 	C 	0.7291	0.62	0.7938	0.106
Mof_C 	C 	0.6451	0.5363	0.7757	0.086
Mof_C 	C 	0.7007	0.46593	0.79927	-0.175
Mof_C 	C 	0.0635	0.58416	0.46904	0.047
Mof_C 	C 	0.0762	0.55619	0.51221	-0.041
Mof_C 	C 	0.9791	0.59893	0.53907	-0.107
Mof_C 	C 	0.90199	0.65566	0.51196	0.126
Mof_C 	C 	0.7943	0.71785	0.52495	-0.18
Mof_C 	C 	0.7242	0.77922	0.49918	0.134
Mof_C 	C 	0.6107	0.8409	0.5127	-0.106
Mof_C 	C 	0.5723	0.8902	0.475	-0.051
Mof_C 	C 	0.6667	0.8536	0.4402	0.055
Mof_C 	C 	0.7455	0.71653	0.57327	0.143
Mof_C 	C 	0.7431	0.77889	0.59971	-0.183
Mof_C 	C 	0.692	0.77877	0.64343	0.091
Mof_C 	C 	0.6519	0.6611	0.6365	0.1
Mof_C 	C 	0.701	0.65542	0.59198	-0.186
Mof_N 	N 	0.03443	0.63458	0.37156	-0.366
Mof_N 	N 	0.81951	0.62722	0.40956	-0.363
Mof_N 	N 	0.00852	0.33529	0.26387	-0.209
Mof_N 	N 	0.96985	0.79862	0.41628	-0.365
Mof_N 	N 	0.83257	0.78206	0.3586	-0.352
Mof_N 	N 	0.95308	0.1162	0.27184	-0.206
Mof_N 	N 	0.92899	0.14464	0.96838	-0.353
Mof_N 	N 	0.00605	0.28714	0.95396	-0.36
Mof_N 	N 	0.97223	0.22228	0.16126	-0.205
Mof_N 	N 	0.95943	0.13458	0.87156	-0.366
Mof_N 	N 	0.14371	0.12722	0.90956	-0.362
Mof_N 	N 	0.39232	0.83529	0.76387	-0.209
Mof_N 	N 	0.81525	0.29862	0.91628	-0.365
Mof_N 	N 	0.02677	0.28206	0.8586	-0.35
Mof_N 	N 	0.65888	0.6162	0.77184	-0.204
Mof_N 	N 	0.95799	0.64464	0.46838	-0.353
Mof_N 	N 	0.75285	0.78714	0.45396	-0.362
Mof_N 	N 	0.64423	0.72228	0.66126	-0.205
Mof_Ga	Ga	0.02098	0.78798	0.08658	1.951
Mof_Ga	Ga	0.10446	0.28798	0.58658	1.955
Mof_Ag	Ag	0.44884	0.26902	0.26818	0.691
Mof_Ag	Ag	0.01396	0.76902	0.76818	0.691
Mof_H 	H 	0.2098	0.8167	0.1267	-0.01
Mof_H 	H 	0.1774	0.9122	0.1876	0.096
Mof_H 	H 	0.9742	0.0089	0.1995	0.061
Mof_H 	H 	0.6203	0.0236	0.131	0.111
Mof_H 	H 	0.6028	0.9446	0.0714	0.058
Mof_H 	H 	0.7959	0.8265	0.0483	-0.007
Mof_H 	H 	0.8183	0.1341	0.1557	0.097
Mof_H 	H 	0.697	0.2344	0.2054	-0.008
Mof_H 	H 	0.5645	0.0658	0.2636	0.02
Mof_H 	H 	0.6859	0.9605	0.2155	0.135
Mof_H 	H 	0.2664	0.7401	0.0295	-0.021
Mof_H 	H 	0.4464	0.6261	0.0455	0.054
Mof_H 	H 	0.3973	0.5342	0.109	0.065
Mof_H 	H 	0.001	0.5725	0.2195	0.064
Mof_H 	H 	0.8023	0.677	0.2212	0.089
Mof_H 	H 	0.8055	0.7835	0.1567	0
Mof_H 	H 	0.1539	0.4441	0.1641	0.09
Mof_H 	H 	0.2607	0.3261	0.2077	-0.009
Mof_H 	H 	0.4078	0.4684	0.2396	0.033
Mof_H 	H 	0.3115	0.5869	0.2001	0.113
Mof_H 	H 	0.8797	0.4361	0.5561	-0.01
Mof_H 	H 	0.8574	0.4862	0.4788	0.036
Mof_H 	H 	0.0354	0.4073	0.4299	0.061
Mof_H 	H 	0.431	0.1527	0.4583	0.067
Mof_H 	H 	0.4985	0.0637	0.5269	0.046
Mof_H 	H 	0.3325	0.1255	0.5895	-0.009
Mof_H 	H 	0.2244	0.1792	0.4118	0.093
Mof_H 	H 	0.309	0.1788	0.3384	0.012
Mof_H 	H 	0.3775	0.3818	0.3506	0.007
Mof_H 	H 	0.2965	0.3895	0.4249	0.094
Mof_H 	H 	0.8468	0.3167	0.6267	-0.01
Mof_H 	H 	0.7228	0.4122	0.6876	0.097
Mof_H 	H 	0.8174	0.5089	0.6995	0.06
Mof_H 	H 	0.2251	0.5236	0.631	0.112
Mof_H 	H 	0.3812	0.4446	0.5714	0.058
Mof_H 	H 	0.3293	0.3265	0.5483	-0.007
Mof_H 	H 	0.8919	0.6341	0.6557	0.097
Mof_H 	H 	0.8632	0.7344	0.7054	-0.008
Mof_H 	H 	0.1061	0.5658	0.7636	0.02
Mof_H 	H 	0.1381	0.4605	0.7155	0.134
Mof_H 	H 	0.964	0.2401	0.5295	-0.02
Mof_H 	H 	0.882	0.1261	0.5455	0.053
Mof_H 	H 	0.9595	0.0342	0.609	0.066
Mof_H 	H 	0.207	0.0725	0.7195	0.066
Mof_H 	H 	0.2995	0.177	0.7212	0.088
Mof_H 	H 	0.2543	0.2835	0.6567	0
Mof_H 	H 	0.2379	0.9441	0.6641	0.092
Mof_H 	H 	0.2055	0.8261	0.7077	-0.01
Mof_H 	H 	0.8842	0.9684	0.7396	0.031
Mof_H 	H 	0.9015	0.0869	0.7001	0.116
Mof_H 	H 	0.1281	0.9361	0.0561	-0.011
Mof_H 	H 	0.1776	0.9862	0.9788	0.035
Mof_H 	H 	0.1274	0.9073	0.9299	0.061
Mof_H 	H 	0.958	0.6527	0.9583	0.068
Mof_H 	H 	0.9109	0.5637	0.0269	0.046
Mof_H 	H 	0.9525	0.6255	0.0895	-0.008
Mof_H 	H 	0.1846	0.6792	0.9118	0.093
Mof_H 	H 	0.1738	0.6788	0.8384	0.012
Mof_H 	H 	0.8901	0.8818	0.8506	0.007
Mof_H 	H 	0.8891	0.8895	0.9249	0.094
Mof_C 	C 	0.1378	0.85617	0.13983	0.078
Mof_C 	C 	0.1215	0.911	0.1728	-0.071
Mof_C 	C 	0.0109	0.9623	0.1799	-0.09
Mof_C 	C 	0.958	0.93294	0.15166	0.139
Mof_C 	C 	0.84646	0.9653	0.14858	-0.184
Mof_C 	C 	0.79524	0.93857	0.12015	0.136
Mof_C 	C 	0.679	0.9769	0.1149	-0.099
Mof_C 	C 	0.6691	0.9338	0.0828	-0.029
Mof_C 	C 	0.7793	0.86841	0.06959	0.057
Mof_C 	C 	0.76382	0.03589	0.17907	0.16
Mof_C 	C 	0.7651	0.1189	0.1773	-0.202
Mof_C 	C 	0.6906	0.1792	0.2062	0.112
Mof_C 	C 	0.6136	0.08116	0.24024	0.12
Mof_C 	C 	0.6875	0.01771	0.21209	-0.189
Mof_C 	C 	0.2718	0.7001	0.0541	0.083
Mof_C 	C 	0.3731	0.635	0.0618	-0.069
Mof_C 	C 	0.3468	0.5866	0.0972	-0.084
Mof_C 	C 	0.2271	0.62998	0.11362	0.118
Mof_C 	C 	0.1608	0.60712	0.14908	-0.165
Mof_C 	C 	0.04353	0.64514	0.1626	0.119
Mof_C 	C 	0.9751	0.6202	0.1994	-0.083
Mof_C 	C 	0.8668	0.67691	0.20049	-0.062
Mof_C 	C 	0.8702	0.73623	0.16397	0.078
Mof_C 	C 	0.2224	0.52824	0.17696	0.137
Mof_C 	C 	0.2057	0.4507	0.1793	-0.181
Mof_C 	C 	0.2709	0.38	0.2062	0.106
Mof_C 	C 	0.3549	0.4637	0.2243	0.086
Mof_C 	C 	0.2993	0.53407	0.20073	-0.175
Mof_C 	C 	0.9365	0.41584	0.53096	0.047
Mof_C 	C 	0.9238	0.44381	0.48779	-0.041
Mof_C 	C 	0.0209	0.40107	0.46093	-0.107
Mof_C 	C 	0.09801	0.34434	0.48804	0.126
Mof_C 	C 	0.2057	0.28215	0.47505	-0.18
Mof_C 	C 	0.2758	0.22078	0.50082	0.134
Mof_C 	C 	0.3893	0.1591	0.4873	-0.106
Mof_C 	C 	0.4277	0.1098	0.525	-0.051
Mof_C 	C 	0.3333	0.1464	0.5598	0.055
Mof_C 	C 	0.2545	0.28347	0.42673	0.143
Mof_C 	C 	0.2569	0.22111	0.40029	-0.183
Mof_C 	C 	0.308	0.22123	0.35657	0.091
Mof_C 	C 	0.3481	0.3389	0.3635	0.1
Mof_C 	C 	0.299	0.34458	0.40802	-0.186
Mof_C 	C 	0.8662	0.35617	0.63983	0.079
Mof_C 	C 	0.7947	0.411	0.6728	-0.074
Mof_C 	C 	0.8469	0.4623	0.6799	-0.085
Mof_C 	C 	0.9574	0.43294	0.65166	0.134
Mof_C 	C 	0.03966	0.4653	0.64858	-0.183
Mof_C 	C 	0.14604	0.43857	0.62015	0.136
Mof_C 	C 	0.2292	0.4769	0.6149	-0.1
Mof_C 	C 	0.3143	0.4338	0.5828	-0.029
Mof_C 	C 	0.2827	0.36841	0.56959	0.056
Mof_C 	C 	0.02122	0.53589	0.67907	0.161
Mof_C 	C 	0.9387	0.6189	0.6773	-0.202
Mof_C 	C 	0.924	0.6792	0.7062	0.112
Mof_C 	C 	0.065	0.58116	0.74024	0.119
Mof_C 	C 	0.0827	0.51771	0.71209	-0.186
Mof_C 	C 	0.974	0.2001	0.5541	0.081
Mof_C 	C 	0.9301	0.135	0.5618	-0.066
Mof_C 	C 	0.9694	0.0866	0.5972	-0.088
Mof_C 	C 	0.0293	0.12998	0.61362	0.122
Mof_C 	C 	0.083	0.10712	0.64908	-0.169
Mof_C 	C 	0.14873	0.14514	0.6626	0.123
Mof_C 	C 	0.2053	0.1202	0.6994	-0.089
Mof_C 	C 	0.2558	0.17691	0.70049	-0.059
Mof_C 	C 	0.2296	0.23623	0.66397	0.077
Mof_C 	C 	0.0724	0.02824	0.67696	0.145
Mof_C 	C 	0.1643	0.9507	0.6793	-0.187
Mof_C 	C 	0.1429	0.88	0.7062	0.108
Mof_C 	C 	0.9571	0.9637	0.7243	0.093
Mof_C 	C 	0.9659	0.03407	0.70073	-0.184
Mof_C 	C 	0.1167	0.91584	0.03096	0.047
Mof_C 	C 	0.1446	0.94381	0.98779	-0.04
Mof_C 	C 	0.1171	0.90107	0.96093	-0.108
Mof_C 	C 	0.06961	0.84434	0.98804	0.127
Mof_C 	C 	0.0371	0.78215	0.97505	-0.178
Mof_C 	C 	0.0026	0.72078	0.00082	0.132
Mof_C 	C 	0.9643	0.6591	0.9873	-0.106
Mof_C 	C 	0.9375	0.6098	0.025	-0.05
Mof_C 	C 	0.9605	0.6464	0.0598	0.055
Mof_C 	C 	0.0353	0.78347	0.92673	0.143
Mof_C 	C 	0.1217	0.72111	0.90029	-0.183
Mof_C 	C 	0.1142	0.72123	0.85657	0.091
Mof_C 	C 	0.9495	0.8389	0.8635	0.1
Mof_C 	C 	0.9484	0.84458	0.90802	-0.185
Mof_N 	N 	0.04057	0.86542	0.12844	-0.366
Mof_N 	N 	0.85629	0.87278	0.09044	-0.362
Mof_N 	N 	0.60768	0.16471	0.23613	-0.209
Mof_N 	N 	0.18475	0.70138	0.08372	-0.365
Mof_N 	N 	0.97323	0.71794	0.1414	-0.35
Mof_N 	N 	0.34112	0.3838	0.22816	-0.204
Mof_N 	N 	0.04201	0.35536	0.53162	-0.353
Mof_N 	N 	0.24715	0.21286	0.54604	-0.362
Mof_N 	N 	0.35577	0.27772	0.33874	-0.205
Mof_N 	N 	0.96557	0.36542	0.62844	-0.366
Mof_N 	N 	0.18049	0.37278	0.59044	-0.363
Mof_N 	N 	0.99148	0.66471	0.73613	-0.209
Mof_N 	N 	0.03015	0.20138	0.58372	-0.365
Mof_N 	N 	0.16743	0.21794	0.6414	-0.352
Mof_N 	N 	0.04692	0.8838	0.72816	-0.206
Mof_N 	N 	0.07101	0.85536	0.03162	-0.353
Mof_N 	N 	0.99395	0.71286	0.04604	-0.36
Mof_N 	N 	0.02777	0.77772	0.83874	-0.205
Mof_C 	C 	0.3927	0.9948	0.2282	0.756
Mof_S 	S 	0.30855	0.1083	0.23496	0.328
Mof_O 	O 	0.215	0.12771	0.21629	-0.263
Mof_O 	O 	0.3262	0.1436	0.2672	-0.268
Mof_O 	O 	0.4059	0.1182	0.193	-0.136
Mof_F 	F 	0.4662	0.9575	0.2565	-0.466
Mof_F 	F 	0.3367	0.9437	0.2293	-0.477
Mof_F 	F 	0.4577	0.9908	0.1882	-0.462
Mof_C 	C 	0.6157	0.5052	0.2718	0.757
Mof_S 	S 	0.65181	0.3917	0.26504	0.328
Mof_O 	O 	0.559	0.37229	0.28371	-0.264
Mof_O 	O 	0.737	0.3564	0.2328	-0.268
Mof_O 	O 	0.7171	0.3818	0.307	-0.136
Mof_F 	F 	0.6802	0.5425	0.2435	-0.466
Mof_F 	F 	0.5097	0.5563	0.2707	-0.477
Mof_F 	F 	0.6367	0.5092	0.3118	-0.462
Mof_C 	C 	0.6073	0.0052	0.7718	0.756
Mof_S 	S 	0.69145	0.8917	0.76504	0.328
Mof_O 	O 	0.785	0.87229	0.78371	-0.263
Mof_O 	O 	0.6738	0.8564	0.7328	-0.268
Mof_O 	O 	0.5941	0.8818	0.807	-0.136
Mof_F 	F 	0.5338	0.0425	0.7435	-0.466
Mof_F 	F 	0.6633	0.0563	0.7707	-0.477
Mof_F 	F 	0.5423	0.0092	0.8118	-0.462
Mof_C 	C 	0.3843	0.4948	0.7282	0.757
Mof_S 	S 	0.34819	0.6083	0.73496	0.328
Mof_O 	O 	0.441	0.62771	0.71629	-0.264
Mof_O 	O 	0.263	0.6436	0.7672	-0.268
Mof_O 	O 	0.2829	0.6182	0.693	-0.136
Mof_F 	F 	0.3198	0.4575	0.7565	-0.466
Mof_F 	F 	0.4903	0.4437	0.7293	-0.477
Mof_F 	F 	0.3633	0.4908	0.6882	-0.462
_end
