data_functionalizedCrystal
_audit_creation_method	'EQeq! by Chris Wilmer'
_symmetry_space_group_name_H-M	'P1'
_symmetry_Int_Tables_number	1
_symmetry_cell_setting	triclinic
loop_
_symmetry_equiv_pos_as_xyz
  x,y,z
_cell_length_a	13.8489
_cell_length_b	13.8489
_cell_length_c	14.0303
_cell_angle_alpha	70.6789
_cell_angle_beta	67.431
_cell_angle_gamma	106.021
loop_
_atom_site_label
_atom_site_type_symbol
_atom_site_fract_x
_atom_site_fract_y
_atom_site_fract_z
_atom_site_charge
Mof_Li	Li	0.3165	0.6448	0.9369	6.283
Mof_Li	Li	0.0692	0.1474	0.6886	4.834
Mof_Li	Li	0.6835	0.3552	0.0631	6.283
Mof_Li	Li	0.9308	0.8526	0.3114	4.834
Mof_Li	Li	0.836	0.2578	0.8114	4.961
Mof_Li	Li	0.4183	0.2466	0.4369	6.375
Mof_Li	Li	0.5817	0.7534	0.5631	6.375
Mof_Li	Li	0.164	0.7422	0.1886	4.961
Mof_Zr	Zr	0.87675	0.24999	0.37415	3.2
Mof_Zr	Zr	0.12325	0.75001	0.62585	3.2
Mof_Zr	Zr	0.37586	0.2491	0.87415	3.2
Mof_Zr	Zr	0.62414	0.7509	0.12585	3.2
Mof_C 	C 	0.27065	0.98721	0.01	0.473
Mof_C 	C 	0.3839	0.71494	0.1558	0.389
Mof_C 	C 	0.17886	0.01458	0.08454	0.513
Mof_C 	C 	0.09912	0.7634	0.41546	0.549
Mof_C 	C 	0.36923	0.45762	0.90043	0.522
Mof_C 	C 	0.64195	0.23034	0.40043	0.531
Mof_C 	C 	0.00279	0.21935	0.51	0.43
Mof_C 	C 	0.72155	0.26624	0.26961	0.676
Mof_C 	C 	0.72935	0.01279	0.99	0.473
Mof_C 	C 	0.34744	0.25483	0.66761	0.666
Mof_C 	C 	0.07756	0.48495	0.16761	0.675
Mof_C 	C 	0.00195	0.48692	0.74615	0.357
Mof_C 	C 	0.6161	0.28506	0.8442	0.389
Mof_C 	C 	0.46415	0.50884	0.76961	0.687
Mof_C 	C 	0.99721	0.78065	0.49	0.43
Mof_C 	C 	0.35805	0.76966	0.59957	0.531
Mof_C 	C 	0.65256	0.74517	0.33239	0.666
Mof_C 	C 	0.99805	0.51308	0.25385	0.357
Mof_C 	C 	0.12926	0.9603	0.6558	0.385
Mof_C 	C 	0.53948	0.26055	0.97161	0.674
Mof_C 	C 	0.46052	0.73945	0.02839	0.674
Mof_C 	C 	0.76784	0.98891	0.47161	0.673
Mof_C 	C 	0.87074	0.0397	0.3442	0.385
Mof_C 	C 	0.23307	0.2481	0.75385	0.386
Mof_C 	C 	0.76693	0.7519	0.24615	0.386
Mof_C 	C 	0.63077	0.54238	0.09957	0.522
Mof_C 	C 	0.92244	0.51505	0.83239	0.675
Mof_C 	C 	0.90088	0.2366	0.58454	0.549
Mof_C 	C 	0.27845	0.73376	0.73039	0.676
Mof_C 	C 	0.53585	0.49116	0.23039	0.687
Mof_C 	C 	0.23216	0.01109	0.52839	0.673
Mof_C 	C 	0.82114	0.98542	0.91546	0.513
Mof_O 	O 	0.91333	0.0641	0.82871	-1.456
Mof_O 	O 	0.63434	0.7304	0.42914	-1.825
Mof_O 	O 	0.04545	0.37629	0.20814	-0.773
Mof_O 	O 	0.25932	0.8895	0.042	-1.412
Mof_O 	O 	0.72018	0.30949	0.80131	-1.33
Mof_O 	O 	0.83333	0.24575	0.54356	-0.728
Mof_O 	O 	0.76546	0.74537	0.15721	-0.729
Mof_O 	O 	0.41557	0.24641	0.70814	-0.781
Mof_O 	O 	0.56044	0.2779	0.78956	-0.658
Mof_O 	O 	0.27982	0.69051	0.19869	-1.33
Mof_O 	O 	0.97621	0.38912	0.76311	-1.363
Mof_O 	O 	0.23454	0.25463	0.84279	-0.729
Mof_O 	O 	0.08667	0.9359	0.17129	-1.456
Mof_O 	O 	0.8892	0.97851	0.30131	-1.313
Mof_O 	O 	0.3568	0.07675	0.91239	-0.747
Mof_O 	O 	0.23701	0.93287	0.49946	-0.81
Mof_O 	O 	0.15954	0.56348	0.07086	-1.801
Mof_O 	O 	0.82367	0.27412	0.24445	-0.859
Mof_O 	O 	0.31469	0.71771	0.79692	-1.875
Mof_O 	O 	0.06746	0.85	0.71044	-0.662
Mof_O 	O 	0.84046	0.43652	0.92914	-1.801
Mof_O 	O 	0.53744	0.20437	0.44413	-1.663
Mof_O 	O 	0.09742	0.57733	0.65721	-0.72
Mof_O 	O 	0.10719	0.75796	0.32871	-1.498
Mof_O 	O 	0.29778	0.11341	0.46559	-1.827
Mof_O 	O 	0.78931	0.87689	0.95644	-0.709
Mof_O 	O 	0.21069	0.12311	0.04356	-0.709
Mof_O 	O 	0.421	0.73663	0.96559	-1.815
Mof_O 	O 	0.70222	0.88659	0.53441	-1.827
Mof_O 	O 	0.1108	0.02149	0.69869	-1.313
Mof_O 	O 	0.95455	0.62371	0.79186	-0.773
Mof_O 	O 	0.6485	0.48157	0.05587	-1.647
Mof_O 	O 	0.3515	0.51843	0.94413	-1.647
Mof_O 	O 	0.68654	0.65253	0.04309	-0.703
Mof_O 	O 	0.0685	0.19868	0.542	-1.384
Mof_O 	O 	0.16667	0.75425	0.45644	-0.728
Mof_O 	O 	0.98914	0.76919	0.58761	-0.725
Mof_O 	O 	0.51463	0.61161	0.70308	-1.892
Mof_O 	O 	0.31346	0.34747	0.95691	-0.703
Mof_O 	O 	0.17633	0.72588	0.75555	-0.859
Mof_O 	O 	0.48537	0.38839	0.29692	-1.892
Mof_O 	O 	0.36566	0.2696	0.57086	-1.825
Mof_O 	O 	0.51857	0.56812	0.25555	-0.857
Mof_O 	O 	0.68531	0.28229	0.20308	-1.875
Mof_O 	O 	0.43956	0.7221	0.21044	-0.658
Mof_O 	O 	0.579	0.26337	0.03441	-1.815
Mof_O 	O 	0.69562	0.22963	0.45691	-0.7
Mof_O 	O 	0.43233	0.23647	0.00054	-0.81
Mof_O 	O 	0.46256	0.79563	0.55587	-1.663
Mof_O 	O 	0.93254	0.15	0.28956	-0.662
Mof_O 	O 	0.30438	0.77037	0.54309	-0.7
Mof_O 	O 	0.01086	0.23081	0.41239	-0.725
Mof_O 	O 	0.56767	0.76353	0.99946	-0.81
Mof_O 	O 	0.9315	0.80132	0.458	-1.384
Mof_O 	O 	0.15223	0.23932	0.73689	-1.367
Mof_O 	O 	0.02379	0.61088	0.23689	-1.363
Mof_O 	O 	0.48143	0.43188	0.74445	-0.857
Mof_O 	O 	0.6432	0.92325	0.08761	-0.747
Mof_O 	O 	0.84777	0.76068	0.26311	-1.367
Mof_O 	O 	0.89281	0.24204	0.67129	-1.498
Mof_O 	O 	0.90258	0.42267	0.34279	-0.72
Mof_O 	O 	0.58443	0.75359	0.29186	-0.781
Mof_O 	O 	0.74068	0.1105	0.958	-1.412
Mof_O 	O 	0.76299	0.06713	0.50054	-0.81
_end
