data_functionalizedCrystal
_audit_creation_method	'EQeq! by Chris Wilmer'
_symmetry_space_group_name_H-M	'P1'
_symmetry_Int_Tables_number	1
_symmetry_cell_setting	triclinic
loop_
_symmetry_equiv_pos_as_xyz
  x,y,z
_cell_length_a	18.0973
_cell_length_b	27.9178
_cell_length_c	28.458
_cell_angle_alpha	61.682
_cell_angle_beta	85.23
_cell_angle_gamma	69.214
loop_
_atom_site_label
_atom_site_type_symbol
_atom_site_fract_x
_atom_site_fract_y
_atom_site_fract_z
_atom_site_charge
Mof_Sb	Sb	0.66976	0.29691	0.00279	0.542
Mof_Sb	Sb	0.68038	0.2872	0.13497	0.549
Mof_Sb	Sb	0.59422	0.19794	0.24432	0.545
Mof_Sb	Sb	0.49484	0.11727	0.22198	0.557
Mof_Sb	Sb	0.48458	0.12464	0.09264	0.55
Mof_Sb	Sb	0.56909	0.21412	0.98032	0.552
Mof_Sb	Sb	0.55663	0.42025	0.02129	0.444
Mof_Sb	Sb	0.37964	0.24146	0.24076	0.552
Mof_Sb	Sb	0.35485	0.25657	0.98069	0.553
Mof_Sb	Sb	0.3382	0.46508	0.01688	0.447
Mof_Sb	Sb	0.25267	0.37534	0.1278	0.527
Mof_Sb	Sb	0.24014	0.38307	0.99795	0.556
Mof_Cl	Cl	0.35696	0.11303	0.16817	-0.523
Mof_O 	O 	0.5856	0.2653	0.0057	-0.564
Mof_O 	O 	0.6712	0.2613	0.0815	-0.572
Mof_O 	O 	0.5978	0.2538	0.168	-0.573
Mof_O 	O 	0.5777	0.1513	0.2135	-0.542
Mof_O 	O 	0.4964	0.1523	0.1429	-0.582
Mof_O 	O 	0.5629	0.1631	0.0563	-0.536
Mof_O 	O 	0.5757	0.3658	0.992	-0.554
Mof_O 	O 	0.5857	0.3611	0.0981	-0.546
Mof_O 	O 	0.4826	0.2541	0.2291	-0.529
Mof_O 	O 	0.4055	0.1917	0.205	-0.571
Mof_O 	O 	0.3926	0.1985	0.0574	-0.563
Mof_O 	O 	0.457	0.2697	0.9646	-0.527
Mof_O 	O 	0.4518	0.4101	0.0355	-0.587
Mof_O 	O 	0.3508	0.3057	0.1651	-0.574
Mof_O 	O 	0.3344	0.3143	0.0067	-0.574
Mof_O 	O 	0.3239	0.4167	0.9881	-0.546
Mof_O 	O 	0.3301	0.4134	0.0925	-0.55
Mof_O 	O 	0.2588	0.3444	0.0773	-0.563
Mof_Sb	Sb	0.07059	0.30556	0.53653	0.528
Mof_Sb	Sb	0.87558	0.25464	0.73484	0.553
Mof_Sb	Sb	0.73352	0.23833	0.66404	0.575
Mof_Sb	Sb	0.75675	0.26	0.52858	0.693
Mof_Sb	Sb	0.94736	0.43377	0.41989	0.543
Mof_Sb	Sb	0.7755	0.54352	0.44093	0.534
Mof_Sb	Sb	0.88076	0.39835	0.68815	0.53
Mof_Sb	Sb	0.74839	0.52692	0.5741	0.507
Mof_Sb	Sb	0.60789	0.51109	0.50631	0.493
Mof_Sb	Sb	0.92849	0.2944	0.46264	0.547
Mof_Sb	Sb	0.59758	0.36395	0.55309	0.473
Mof_Sb	Sb	0.04434	0.28946	0.66938	0.569
Mof_Cl	Cl	0.82743	0.37068	0.56193	-1.099
Mof_Cl	Cl	0.92657	0.5018	0.6113	-0.597
Mof_Cl	Cl	0.12006	0.3722	0.58776	-0.565
Mof_O 	O 	0.988	0.2782	0.5273	-0.589
Mof_O 	O 	0.0081	0.3085	0.5968	-0.556
Mof_O 	O 	0.9651	0.2492	0.6902	-0.506
Mof_O 	O 	0.8144	0.2685	0.6706	-0.544
Mof_O 	O 	0.7923	0.2385	0.6018	-0.498
Mof_O 	O 	0.8346	0.3006	0.5041	-0.557
Mof_O 	O 	0.6841	0.3408	0.5128	-0.569
Mof_O 	O 	0.8863	0.3817	0.433	-0.561
Mof_O 	O 	0.8668	0.4706	0.4568	-0.554
Mof_O 	O 	0.6348	0.4249	0.5487	-0.561
Mof_O 	O 	0.7043	0.497	0.4697	-0.581
Mof_O 	O 	0.0038	0.3881	0.4951	-0.544
Mof_O 	O 	0.9639	0.369	0.6492	-0.566
Mof_O 	O 	0.8142	0.4421	0.6177	-0.559
Mof_O 	O 	0.8112	0.5203	0.5155	-0.537
Mof_O 	O 	0.8312	0.3404	0.7001	-0.546
Mof_O 	O 	0.6646	0.3208	0.6232	-0.546
Mof_O 	O 	0.6692	0.4937	0.5707	-0.532
Mof_O 	O 	0.7468	0.4999	0.3772	-0.287
Mof_O 	O 	0.8538	0.5051	0.3325	-0.032
Mof_O 	O 	0.6374	0.5984	0.106	-0.261
Mof_O 	O 	0.7179	0.6437	0.1054	-0.224
Mof_C 	C 	0.7797	0.5188	0.335	0.063
Mof_C 	C 	0.7327	0.5377	0.2833	-0.026
Mof_C 	C 	0.6662	0.5286	0.2749	-0.011
Mof_H 	H 	0.6404	0.5076	0.3035	0.022
Mof_C 	C 	0.6394	0.5528	0.2211	0.037
Mof_H 	H 	0.5944	0.5505	0.2085	0.092
Mof_C 	C 	0.6881	0.5803	0.189	-0.054
Mof_C 	C 	0.6803	0.6102	0.1277	0.201
Mof_S 	S 	0.7634	0.5776	0.223	-0.018
Mof_Pr	Pr	0.93903	0.43384	0.55135	2.726
Mof_Cl	Cl	0.46883	0.28184	0.08758	-1.162
Mof_Cl	Cl	0.74007	0.16052	0.04668	-0.535
Mof_Cl	Cl	0.7554	0.15378	0.19402	-0.542
Mof_Cl	Cl	0.20249	0.26298	0.05276	-0.57
Mof_Cl	Cl	0.21949	0.25441	0.18988	-0.55
Mof_Cl	Cl	0.44092	0.48112	0.9125	-0.597
Mof_Cl	Cl	0.907	0.1428	0.7082	-0.779
Mof_Cl	Cl	0.5693	0.46741	0.43138	-0.608
Mof_Cl	Cl	0.68791	0.29548	0.74268	-0.549
Mof_S 	S 	0.7401	0.91808	0.27322	0.073
Mof_O 	O 	0.673	0.0799	0.1614	-0.605
Mof_O 	O 	0.6008	0.0244	0.2035	-0.341
Mof_O 	O 	0.9417	0.8237	0.3651	-0.626
Mof_O 	O 	0.8524	0.7975	0.3427	-0.345
Mof_C 	C 	0.6635	0.0341	0.1971	0.452
Mof_C 	C 	0.7352	0.9883	0.2344	-0.131
Mof_C 	C 	0.802	0.9951	0.2451	0.001
Mof_H 	H 	0.8104	0.0311	0.228	0.061
Mof_C 	C 	0.8568	0.9428	0.2842	0.014
Mof_H 	H 	0.9058	0.9401	0.2969	0.048
Mof_C 	C 	0.8336	0.8973	0.3017	-0.139
Mof_C 	C 	0.8787	0.8349	0.3394	0.433
Mof_O 	O 	0.3769	0.3795	0.2038	-0.583
Mof_O 	O 	0.2861	0.3426	0.2499	-0.339
Mof_O 	O 	0.2934	0.5586	0.3118	-0.555
Mof_O 	O 	0.4028	0.5384	0.2723	-0.296
Mof_S 	S 	0.3685	0.45873	0.24318	0.069
Mof_C 	C 	0.3232	0.3774	0.2321	0.446
Mof_C 	C 	0.3081	0.4198	0.2544	-0.124
Mof_C 	C 	0.2477	0.432	0.2848	-0.02
Mof_H 	H 	0.2085	0.4146	0.2952	0.039
Mof_C 	C 	0.2516	0.4733	0.2982	-0
Mof_H 	H 	0.2147	0.4872	0.3187	0.013
Mof_C 	C 	0.3138	0.4919	0.2789	-0.13
Mof_C 	C 	0.3357	0.5358	0.2866	0.416
Mof_S 	S 	0.71532	0.30544	0.3136	0.097
Mof_O 	O 	0.5472	0.3528	0.2062	-0.57
Mof_O 	O 	0.665	0.2836	0.2317	-0.355
Mof_O 	O 	0.8025	0.2991	0.403	-0.309
Mof_O 	O 	0.727	0.3861	0.3926	-0.603
Mof_C 	C 	0.6131	0.3257	0.233	0.454
Mof_C 	C 	0.6315	0.3466	0.2682	-0.139
Mof_C 	C 	0.5904	0.3963	0.2708	0.01
Mof_H 	H 	0.5426	0.4248	0.2488	0.042
Mof_C 	C 	0.6261	0.4015	0.3097	0.005
Mof_H 	H 	0.6045	0.4335	0.3168	0.039
Mof_C 	C 	0.6941	0.3562	0.3356	-0.134
Mof_C 	C 	0.7456	0.3451	0.3801	0.433
Mof_S 	S 	0.1003	0.03299	0.58346	0.133
Mof_O 	O 	0.9452	0.1834	0.5625	1.846
Mof_O 	O 	0.9743	0.0915	0.6284	-0.31
Mof_O 	O 	0.2412	0.991	0.487	-0.208
Mof_O 	O 	0.2333	0.941	0.575	-0.215
Mof_C 	C 	0.9836	0.1293	0.5837	0.878
Mof_C 	C 	0.0475	0.1067	0.5522	-0.182
Mof_C 	C 	0.071	0.1344	0.5034	0.088
Mof_H 	H 	0.0486	0.1752	0.4802	0.01
Mof_C 	C 	0.1323	0.0956	0.4909	-0.057
Mof_H 	H 	0.1559	0.1075	0.4581	0.07
Mof_C 	C 	0.1533	0.0416	0.5289	-0.044
Mof_C 	C 	0.2175	0.9867	0.5305	0.292
Mof_Cl	Cl	0.5535	0.348	0.8914	-0.556
Mof_Pr	Pr	0.62132	0.18149	0.12105	2.775
Mof_Pr	Pr	0.33651	0.24077	0.11631	2.701
Mof_Pr	Pr	0.45215	0.35783	0.97138	2.811
Mof_Pr	Pr	0.46534	0.34888	0.14492	2.644
Mof_Pr	Pr	0.92396	0.24355	0.61045	2.411
Mof_Pr	Pr	0.74863	0.41157	0.4564	2.766
Mof_Pr	Pr	0.71139	0.38783	0.63826	2.57
Mof_O 	O 	0.921	0.1487	0.6824	0.267
Mof_S 	S 	0.7854	0.5555	0.222	0.055
Mof_O 	O 	0.745	0.494	0.3732	-0.197
Mof_O 	O 	0.8433	0.5232	0.3328	-0.255
Mof_O 	O 	0.6244	0.6135	0.1075	-0.282
Mof_O 	O 	0.7546	0.5968	0.1034	-0.222
Mof_C 	C 	0.7861	0.5067	0.3344	0.217
Mof_C 	C 	0.7379	0.5381	0.2794	-0.029
Mof_C 	C 	0.6604	0.5407	0.2779	-0.021
Mof_H 	H 	0.6275	0.5323	0.3063	0.026
Mof_C 	C 	0.6428	0.5588	0.224	-0.023
Mof_H 	H 	0.5919	0.5643	0.2114	-0.048
Mof_C 	C 	0.6998	0.5688	0.189	-0.021
Mof_C 	C 	0.694	0.5948	0.1275	0.212
Mof_Cl	Cl	0.9234	0.1723	0.5562	-3.07
Mof_Sb	Sb	0.33024	0.70309	0.99721	0.547
Mof_Sb	Sb	0.31962	0.7128	0.86503	0.553
Mof_Sb	Sb	0.40578	0.80206	0.75568	0.546
Mof_Sb	Sb	0.50516	0.88273	0.77802	0.557
Mof_Sb	Sb	0.51542	0.87536	0.90736	0.551
Mof_Sb	Sb	0.43091	0.78588	0.01968	0.554
Mof_Sb	Sb	0.44337	0.57975	0.97871	0.445
Mof_Sb	Sb	0.62036	0.75854	0.75924	0.55
Mof_Sb	Sb	0.64515	0.74343	0.01931	0.551
Mof_Sb	Sb	0.6618	0.53492	0.98312	0.444
Mof_Sb	Sb	0.74733	0.62466	0.8722	0.522
Mof_Sb	Sb	0.75986	0.61693	0.00205	0.551
Mof_Cl	Cl	0.64304	0.88697	0.83183	-0.526
Mof_O 	O 	0.4144	0.7347	0.9943	-0.565
Mof_O 	O 	0.3288	0.7387	0.9185	-0.572
Mof_O 	O 	0.4022	0.7462	0.832	-0.574
Mof_O 	O 	0.4223	0.8487	0.7865	-0.542
Mof_O 	O 	0.5036	0.8477	0.8571	-0.582
Mof_O 	O 	0.4371	0.8369	0.9437	-0.536
Mof_O 	O 	0.4243	0.6342	0.008	-0.554
Mof_O 	O 	0.4143	0.6389	0.9019	-0.546
Mof_O 	O 	0.5174	0.7459	0.7709	-0.529
Mof_O 	O 	0.5945	0.8083	0.795	-0.571
Mof_O 	O 	0.6074	0.8015	0.9426	-0.563
Mof_O 	O 	0.543	0.7303	0.0354	-0.527
Mof_O 	O 	0.5482	0.5899	0.9645	-0.587
Mof_O 	O 	0.6492	0.6943	0.8349	-0.573
Mof_O 	O 	0.6656	0.6857	0.9933	-0.573
Mof_O 	O 	0.6761	0.5833	0.0119	-0.546
Mof_O 	O 	0.6699	0.5866	0.9075	-0.55
Mof_O 	O 	0.7412	0.6556	0.9227	-0.563
Mof_Sb	Sb	0.92941	0.69444	0.46347	0.513
Mof_Sb	Sb	0.12442	0.74536	0.26516	0.559
Mof_Sb	Sb	0.26648	0.76167	0.33596	0.576
Mof_Sb	Sb	0.24325	0.74	0.47142	0.694
Mof_Sb	Sb	0.05264	0.56623	0.58011	0.567
Mof_Sb	Sb	0.2245	0.45648	0.55907	0.536
Mof_Sb	Sb	0.11924	0.60165	0.31185	0.537
Mof_Sb	Sb	0.25161	0.47308	0.4259	0.508
Mof_Sb	Sb	0.39211	0.48891	0.49369	0.493
Mof_Sb	Sb	0.07151	0.7056	0.53736	0.559
Mof_Sb	Sb	0.40242	0.63605	0.44691	0.473
Mof_Sb	Sb	0.95566	0.71054	0.33062	0.54
Mof_Cl	Cl	0.17257	0.62932	0.43807	-1.103
Mof_Cl	Cl	0.07343	0.4982	0.3887	-0.588
Mof_Cl	Cl	0.87994	0.6278	0.41224	-0.574
Mof_O 	O 	0.012	0.7218	0.4727	-0.578
Mof_O 	O 	0.9919	0.6915	0.4032	-0.57
Mof_O 	O 	0.0349	0.7508	0.3098	-0.495
Mof_O 	O 	0.1856	0.7315	0.3294	-0.547
Mof_O 	O 	0.2077	0.7615	0.3982	-0.501
Mof_O 	O 	0.1654	0.6994	0.4959	-0.559
Mof_O 	O 	0.3159	0.6592	0.4872	-0.569
Mof_O 	O 	0.1137	0.6183	0.567	-0.561
Mof_O 	O 	0.1332	0.5294	0.5432	-0.556
Mof_O 	O 	0.3652	0.5751	0.4513	-0.562
Mof_O 	O 	0.2957	0.503	0.5303	-0.582
Mof_O 	O 	0.9962	0.6119	0.5049	-0.565
Mof_O 	O 	0.0361	0.631	0.3508	-0.557
Mof_O 	O 	0.1858	0.5579	0.3823	-0.562
Mof_O 	O 	0.1888	0.4797	0.4845	-0.54
Mof_O 	O 	0.1688	0.6596	0.2999	-0.546
Mof_O 	O 	0.3354	0.6792	0.3768	-0.546
Mof_O 	O 	0.3308	0.5063	0.4293	-0.533
Mof_O 	O 	0.2532	0.5001	0.6228	-0.288
Mof_O 	O 	0.1462	0.4949	0.6675	-0.031
Mof_O 	O 	0.3626	0.4016	0.894	-0.262
Mof_O 	O 	0.2821	0.3563	0.8946	-0.224
Mof_C 	C 	0.2203	0.4812	0.665	0.064
Mof_C 	C 	0.2673	0.4623	0.7167	-0.026
Mof_C 	C 	0.3338	0.4714	0.7251	-0.011
Mof_H 	H 	0.3596	0.4924	0.6965	0.022
Mof_C 	C 	0.3606	0.4472	0.7789	0.036
Mof_H 	H 	0.4056	0.4495	0.7915	0.089
Mof_C 	C 	0.3119	0.4197	0.811	-0.052
Mof_C 	C 	0.3197	0.3898	0.8723	0.202
Mof_S 	S 	0.2366	0.4224	0.777	-0.01
Mof_Pr	Pr	0.06097	0.56616	0.44865	2.775
Mof_Cl	Cl	0.53117	0.71816	0.91242	-1.161
Mof_Cl	Cl	0.25993	0.83948	0.95332	-0.53
Mof_Cl	Cl	0.2446	0.84622	0.80598	-0.538
Mof_Cl	Cl	0.79751	0.73702	0.94724	-0.576
Mof_Cl	Cl	0.78051	0.74559	0.81012	-0.555
Mof_Cl	Cl	0.55908	0.51888	0.0875	-0.598
Mof_Cl	Cl	0.093	0.8572	0.2918	-0.759
Mof_Cl	Cl	0.4307	0.53259	0.56862	-0.608
Mof_Cl	Cl	0.31209	0.70452	0.25732	-0.548
Mof_S 	S 	0.2599	0.08192	0.72678	0.074
Mof_O 	O 	0.327	0.9201	0.8386	-0.605
Mof_O 	O 	0.3992	0.9756	0.7965	-0.341
Mof_O 	O 	0.0583	0.1763	0.6349	-0.609
Mof_O 	O 	0.1476	0.2025	0.6573	-0.343
Mof_C 	C 	0.3365	0.9659	0.8029	0.452
Mof_C 	C 	0.2648	0.0117	0.7656	-0.13
Mof_C 	C 	0.198	0.0049	0.7549	0.006
Mof_H 	H 	0.1896	0.9689	0.772	0.061
Mof_C 	C 	0.1432	0.0572	0.7158	0.012
Mof_H 	H 	0.0942	0.0599	0.7031	0.055
Mof_C 	C 	0.1664	0.1027	0.6983	-0.134
Mof_C 	C 	0.1213	0.1651	0.6606	0.431
Mof_O 	O 	0.6231	0.6205	0.7962	-0.583
Mof_O 	O 	0.7139	0.6574	0.7501	-0.341
Mof_O 	O 	0.7066	0.4414	0.6882	-0.555
Mof_O 	O 	0.5972	0.4616	0.7277	-0.296
Mof_S 	S 	0.6315	0.54127	0.75682	0.069
Mof_C 	C 	0.6768	0.6226	0.7679	0.446
Mof_C 	C 	0.6919	0.5802	0.7456	-0.125
Mof_C 	C 	0.7523	0.568	0.7152	-0.02
Mof_H 	H 	0.7915	0.5854	0.7048	0.036
Mof_C 	C 	0.7484	0.5267	0.7018	-0.002
Mof_H 	H 	0.7853	0.5128	0.6813	0.013
Mof_C 	C 	0.6862	0.5081	0.7211	-0.13
Mof_C 	C 	0.6643	0.4642	0.7134	0.415
Mof_S 	S 	0.28468	0.69456	0.6864	0.101
Mof_O 	O 	0.4528	0.6472	0.7938	-0.57
Mof_O 	O 	0.335	0.7164	0.7683	-0.353
Mof_O 	O 	0.1975	0.7009	0.597	-0.307
Mof_O 	O 	0.273	0.6139	0.6074	-0.603
Mof_C 	C 	0.3869	0.6743	0.767	0.454
Mof_C 	C 	0.3685	0.6534	0.7318	-0.139
Mof_C 	C 	0.4096	0.6037	0.7292	0.01
Mof_H 	H 	0.4574	0.5752	0.7512	0.042
Mof_C 	C 	0.3739	0.5985	0.6903	0.006
Mof_H 	H 	0.3955	0.5665	0.6832	0.039
Mof_C 	C 	0.3059	0.6438	0.6644	-0.134
Mof_C 	C 	0.2544	0.6549	0.6199	0.434
Mof_S 	S 	0.8997	0.96701	0.41654	0.126
Mof_O 	O 	0.0548	0.8166	0.4375	1.842
Mof_O 	O 	0.0257	0.9085	0.3716	-0.306
Mof_O 	O 	0.7588	0.009	0.513	-0.21
Mof_O 	O 	0.7667	0.059	0.425	-0.217
Mof_C 	C 	0.0164	0.8707	0.4163	0.903
Mof_C 	C 	0.9525	0.8933	0.4478	-0.208
Mof_C 	C 	0.929	0.8656	0.4966	0.1
Mof_H 	H 	0.9514	0.8248	0.5198	-0.002
Mof_C 	C 	0.8677	0.9044	0.5091	-0.066
Mof_H 	H 	0.8441	0.8925	0.5419	0.071
Mof_C 	C 	0.8467	0.9584	0.4711	-0.043
Mof_C 	C 	0.7825	0.0133	0.4695	0.291
Mof_Cl	Cl	0.4465	0.652	0.1086	-0.556
Mof_Pr	Pr	0.37868	0.81851	0.87895	2.775
Mof_Pr	Pr	0.66349	0.75923	0.8837	2.7
Mof_Pr	Pr	0.54785	0.64217	0.02862	2.81
Mof_Pr	Pr	0.53466	0.65112	0.85508	2.644
Mof_Pr	Pr	0.07604	0.75645	0.38955	2.449
Mof_Pr	Pr	0.25137	0.58843	0.5436	2.768
Mof_Pr	Pr	0.28861	0.61217	0.36174	2.572
Mof_O 	O 	0.079	0.8513	0.3176	0.255
Mof_S 	S 	0.2146	0.4445	0.778	0.053
Mof_O 	O 	0.255	0.506	0.6268	-0.198
Mof_O 	O 	0.1567	0.4768	0.6672	-0.254
Mof_O 	O 	0.3756	0.3865	0.8925	-0.28
Mof_O 	O 	0.2454	0.4032	0.8966	-0.219
Mof_C 	C 	0.2139	0.4933	0.6656	0.216
Mof_C 	C 	0.2621	0.4619	0.7206	-0.029
Mof_C 	C 	0.3396	0.4593	0.7221	-0.02
Mof_H 	H 	0.3725	0.4677	0.6937	0.025
Mof_C 	C 	0.3572	0.4412	0.776	-0.023
Mof_H 	H 	0.4081	0.4357	0.7886	-0.044
Mof_C 	C 	0.3002	0.4312	0.811	-0.022
Mof_C 	C 	0.306	0.4052	0.8725	0.211
Mof_Cl	Cl	0.0766	0.8277	0.4438	-3.07
Mof_O 	O 	-0	0.5	0.5	-0.789
_end
