data_functionalizedCrystal
_audit_creation_method	'EQeq! by Chris Wilmer'
_symmetry_space_group_name_H-M	'P1'
_symmetry_Int_Tables_number	1
_symmetry_cell_setting	triclinic
loop_
_symmetry_equiv_pos_as_xyz
  x,y,z
_cell_length_a	11.3528
_cell_length_b	11.3528
_cell_length_c	23.145
_cell_angle_alpha	90
_cell_angle_beta	90
_cell_angle_gamma	90
loop_
_atom_site_label
_atom_site_type_symbol
_atom_site_fract_x
_atom_site_fract_y
_atom_site_fract_z
_atom_site_charge
Mof_N 	N 	0.0729	0.9505	0.0814	-0.116
Mof_N 	N 	0.156	0.8444	0.1813	-0.245
Mof_C 	C 	0.0685	0.8331	0.0882	-0.037
Mof_C 	C 	0.1146	0.0139	0.1253	-0.239
Mof_H 	H 	0.1157	0.0956	0.1226	0.111
Mof_C 	C 	0.1557	0.9607	0.1744	0.306
Mof_H 	H 	0.1845	0.0078	0.2041	-0.1
Mof_C 	C 	0.1098	0.7806	0.1383	0.053
Mof_H 	H 	0.1053	0.6992	0.1421	0.032
Mof_C 	C 	0.0179	0.7624	0.0388	0.173
Mof_O 	O 	0.0171	0.655	0.0461	-0.394
Mof_O 	O 	0.9821	0.8175	0.9953	-0.204
Mof_N 	N 	0.4271	0.5495	0.0814	-0.193
Mof_N 	N 	0.344	0.6556	0.1813	-0.193
Mof_C 	C 	0.4315	0.6669	0.0882	-0.027
Mof_C 	C 	0.3854	0.4861	0.1253	0.032
Mof_H 	H 	0.3843	0.4044	0.1226	0.031
Mof_C 	C 	0.3443	0.5393	0.1744	0.017
Mof_H 	H 	0.3155	0.4922	0.2041	0.047
Mof_C 	C 	0.3902	0.7194	0.1383	0.035
Mof_H 	H 	0.3947	0.8008	0.1421	0.05
Mof_C 	C 	0.4821	0.7376	0.0388	0.23
Mof_O 	O 	0.4829	0.845	0.0461	-0.366
Mof_O 	O 	0.5179	0.6825	0.9953	-0.279
Mof_N 	N 	0.5495	0.0729	0.0814	-0.204
Mof_N 	N 	0.6556	0.156	0.1813	-0.195
Mof_C 	C 	0.6669	0.0685	0.0882	-0.017
Mof_C 	C 	0.4861	0.1146	0.1253	0.028
Mof_H 	H 	0.4044	0.1157	0.1226	0.025
Mof_C 	C 	0.5393	0.1557	0.1744	0.009
Mof_H 	H 	0.4922	0.1845	0.2041	0.045
Mof_C 	C 	0.7194	0.1098	0.1383	0.019
Mof_H 	H 	0.8008	0.1053	0.1421	0.049
Mof_C 	C 	0.7376	0.0179	0.0388	0.156
Mof_O 	O 	0.845	0.0171	0.0461	-0.366
Mof_O 	O 	0.6825	0.9821	0.9953	-0.211
Mof_N 	N 	0.9505	0.4271	0.0814	-0.11
Mof_N 	N 	0.8444	0.344	0.1813	-0.244
Mof_C 	C 	0.8331	0.4315	0.0882	-0.047
Mof_C 	C 	0.0139	0.3854	0.1253	-0.228
Mof_H 	H 	0.0956	0.3843	0.1226	0.114
Mof_C 	C 	0.9607	0.3443	0.1744	0.306
Mof_H 	H 	0.0078	0.3155	0.2041	-0.095
Mof_C 	C 	0.7806	0.3902	0.1383	0.067
Mof_H 	H 	0.6992	0.3947	0.1421	0.034
Mof_C 	C 	0.7624	0.4821	0.0388	0.244
Mof_O 	O 	0.655	0.4829	0.0461	-0.393
Mof_O 	O 	0.8175	0.5179	0.9953	-0.27
Mof_N 	N 	0.9271	0.4505	0.4186	-0.16
Mof_N 	N 	0.844	0.3444	0.3187	-0.198
Mof_C 	C 	0.9315	0.3331	0.4118	-0.074
Mof_C 	C 	0.8854	0.5139	0.3747	0.033
Mof_H 	H 	0.8843	0.5956	0.3774	0.045
Mof_C 	C 	0.8443	0.4607	0.3256	0.03
Mof_H 	H 	0.8155	0.5078	0.2959	0.052
Mof_C 	C 	0.8902	0.2806	0.3617	0.072
Mof_H 	H 	0.8947	0.1992	0.3579	0.029
Mof_C 	C 	0.9821	0.2624	0.4612	0.446
Mof_O 	O 	0.9829	0.155	0.4539	-0.41
Mof_O 	O 	0.0179	0.3175	0.5047	-0.469
Mof_N 	N 	0.5729	0.0495	0.4186	-0.252
Mof_N 	N 	0.656	0.1556	0.3187	-0.152
Mof_C 	C 	0.5685	0.1669	0.4118	-0.047
Mof_C 	C 	0.6146	0.9861	0.3747	0.279
Mof_H 	H 	0.6157	0.9044	0.3774	-0.041
Mof_C 	C 	0.6557	0.0393	0.3256	-0.253
Mof_H 	H 	0.6845	0.9922	0.2959	0.185
Mof_C 	C 	0.6098	0.2194	0.3617	0.026
Mof_H 	H 	0.6053	0.3008	0.3579	0.043
Mof_C 	C 	0.5179	0.2376	0.4612	0.357
Mof_O 	O 	0.5171	0.345	0.4539	-0.405
Mof_O 	O 	0.4821	0.1825	0.5047	-0.407
Mof_N 	N 	0.4505	0.5729	0.4186	-0.177
Mof_N 	N 	0.3444	0.656	0.3187	-0.2
Mof_C 	C 	0.3331	0.5685	0.4118	-0.066
Mof_C 	C 	0.5139	0.6146	0.3747	0.03
Mof_H 	H 	0.5956	0.6157	0.3774	0.038
Mof_C 	C 	0.4607	0.6557	0.3256	0.022
Mof_H 	H 	0.5078	0.6845	0.2959	0.051
Mof_C 	C 	0.2806	0.6098	0.3617	0.057
Mof_H 	H 	0.1992	0.6053	0.3579	0.028
Mof_C 	C 	0.2624	0.5179	0.4612	0.369
Mof_O 	O 	0.155	0.5171	0.4539	-0.421
Mof_O 	O 	0.3175	0.4821	0.5047	-0.403
Mof_N 	N 	0.0495	0.9271	0.4186	-0.231
Mof_N 	N 	0.1556	0.844	0.3187	-0.152
Mof_C 	C 	0.1669	0.9315	0.4118	-0.056
Mof_C 	C 	0.9861	0.8854	0.3747	0.27
Mof_H 	H 	0.9044	0.8843	0.3774	-0.031
Mof_C 	C 	0.0393	0.8443	0.3256	-0.233
Mof_H 	H 	0.9922	0.8155	0.2959	0.181
Mof_C 	C 	0.2194	0.8902	0.3617	0.043
Mof_H 	H 	0.3008	0.8947	0.3579	0.044
Mof_C 	C 	0.2376	0.9821	0.4612	0.437
Mof_O 	O 	0.345	0.9829	0.4539	-0.396
Mof_O 	O 	0.1825	0.0179	0.5047	-0.474
Mof_N 	N 	0.9271	0.0495	0.9186	-0.206
Mof_N 	N 	0.844	0.1556	0.8187	-0.157
Mof_C 	C 	0.9315	0.1669	0.9118	-0.077
Mof_C 	C 	0.8854	0.9861	0.8747	0.26
Mof_H 	H 	0.8843	0.9044	0.8774	-0.024
Mof_C 	C 	0.8443	0.0393	0.8256	-0.222
Mof_H 	H 	0.8155	0.9922	0.7959	0.177
Mof_C 	C 	0.8902	0.2194	0.8617	0.059
Mof_H 	H 	0.8947	0.3008	0.8579	0.039
Mof_C 	C 	0.9821	0.2376	0.9612	0.559
Mof_O 	O 	0.9829	0.345	0.9539	-0.391
Mof_O 	O 	0.0179	0.1825	0.0047	-0.571
Mof_N 	N 	0.5729	0.4505	0.9186	-0.153
Mof_N 	N 	0.656	0.3444	0.8187	-0.203
Mof_C 	C 	0.5685	0.3331	0.9118	-0.088
Mof_C 	C 	0.6146	0.5139	0.8747	0.027
Mof_H 	H 	0.6157	0.5956	0.8774	0.043
Mof_C 	C 	0.6557	0.4607	0.8256	0.027
Mof_H 	H 	0.6845	0.5078	0.7959	0.049
Mof_C 	C 	0.6098	0.2806	0.8617	0.073
Mof_H 	H 	0.6053	0.1992	0.8579	0.023
Mof_C 	C 	0.5179	0.2624	0.9612	0.494
Mof_O 	O 	0.5171	0.155	0.9539	-0.416
Mof_O 	O 	0.4821	0.3175	0.0047	-0.503
Mof_N 	N 	0.4505	0.9271	0.9186	-0.137
Mof_N 	N 	0.3444	0.844	0.8187	-0.201
Mof_C 	C 	0.3331	0.9315	0.9118	-0.095
Mof_C 	C 	0.5139	0.8854	0.8747	0.03
Mof_H 	H 	0.5956	0.8843	0.8774	0.05
Mof_C 	C 	0.4607	0.8443	0.8256	0.035
Mof_H 	H 	0.5078	0.8155	0.7959	0.051
Mof_C 	C 	0.2806	0.8902	0.8617	0.088
Mof_H 	H 	0.1992	0.8947	0.8579	0.025
Mof_C 	C 	0.2624	0.9821	0.9612	0.568
Mof_O 	O 	0.155	0.9829	0.9539	-0.405
Mof_O 	O 	0.3175	0.0179	0.0047	-0.566
Mof_N 	N 	0.0495	0.5729	0.9186	-0.226
Mof_N 	N 	0.1556	0.656	0.8187	-0.156
Mof_C 	C 	0.1669	0.5685	0.9118	-0.069
Mof_C 	C 	0.9861	0.6146	0.8747	0.269
Mof_H 	H 	0.9044	0.6157	0.8774	-0.034
Mof_C 	C 	0.0393	0.6557	0.8256	-0.241
Mof_H 	H 	0.9922	0.6845	0.7959	0.18
Mof_C 	C 	0.2194	0.6098	0.8617	0.042
Mof_H 	H 	0.3008	0.6053	0.8579	0.038
Mof_C 	C 	0.2376	0.5179	0.9612	0.483
Mof_O 	O 	0.345	0.5171	0.9539	-0.4
Mof_O 	O 	0.1825	0.4821	0.0047	-0.506
Mof_N 	N 	0.0729	0.5495	0.5814	-0.189
Mof_N 	N 	0.156	0.6556	0.6813	-0.198
Mof_C 	C 	0.0685	0.6669	0.5882	-0.043
Mof_C 	C 	0.1146	0.4861	0.6253	0.026
Mof_H 	H 	0.1157	0.4044	0.6226	0.028
Mof_C 	C 	0.1557	0.5393	0.6744	0.013
Mof_H 	H 	0.1845	0.4922	0.7041	0.044
Mof_C 	C 	0.1098	0.7194	0.6383	0.037
Mof_H 	H 	0.1053	0.8008	0.6421	0.044
Mof_C 	C 	0.0179	0.7376	0.5388	0.283
Mof_O 	O 	0.0171	0.845	0.5461	-0.376
Mof_O 	O 	0.9821	0.6825	0.4953	-0.323
Mof_N 	N 	0.4271	0.9505	0.5814	-0.096
Mof_N 	N 	0.344	0.8444	0.6813	-0.246
Mof_C 	C 	0.4315	0.8331	0.5882	-0.073
Mof_C 	C 	0.3854	0.0139	0.6253	-0.229
Mof_H 	H 	0.3843	0.0956	0.6226	0.116
Mof_C 	C 	0.3443	0.9607	0.6744	0.307
Mof_H 	H 	0.3155	0.0078	0.7041	-0.094
Mof_C 	C 	0.3902	0.7806	0.6383	0.085
Mof_H 	H 	0.3947	0.6992	0.6421	0.028
Mof_C 	C 	0.4821	0.7624	0.5388	0.373
Mof_O 	O 	0.4829	0.655	0.5461	-0.403
Mof_O 	O 	0.5179	0.8175	0.4953	-0.385
Mof_N 	N 	0.5495	0.4271	0.5814	-0.178
Mof_N 	N 	0.6556	0.344	0.6813	-0.197
Mof_C 	C 	0.6669	0.4315	0.5882	-0.054
Mof_C 	C 	0.4861	0.3854	0.6253	0.029
Mof_H 	H 	0.4044	0.3843	0.6226	0.033
Mof_C 	C 	0.5393	0.3443	0.6744	0.021
Mof_H 	H 	0.4922	0.3155	0.7041	0.046
Mof_C 	C 	0.7194	0.3902	0.6383	0.053
Mof_H 	H 	0.8008	0.3947	0.6421	0.044
Mof_C 	C 	0.7376	0.4821	0.5388	0.36
Mof_O 	O 	0.845	0.4829	0.5461	-0.377
Mof_O 	O 	0.6825	0.5179	0.4953	-0.395
Mof_N 	N 	0.9505	0.0729	0.5814	-0.104
Mof_N 	N 	0.8444	0.156	0.6813	-0.249
Mof_C 	C 	0.8331	0.0685	0.5882	-0.064
Mof_C 	C 	0.0139	0.1146	0.6253	-0.24
Mof_H 	H 	0.0956	0.1157	0.6226	0.113
Mof_C 	C 	0.9607	0.1557	0.6744	0.307
Mof_H 	H 	0.0078	0.1845	0.7041	-0.099
Mof_C 	C 	0.7806	0.1098	0.6383	0.071
Mof_H 	H 	0.6992	0.1053	0.6421	0.027
Mof_C 	C 	0.7624	0.0179	0.5388	0.299
Mof_O 	O 	0.655	0.0171	0.5461	-0.404
Mof_O 	O 	0.8175	0.9821	0.4953	-0.316
Mof_Co	Co	0.25	0.75	0.25	1.149
Mof_Co	Co	0.75	0.25	0.25	1.149
Mof_Co	Co	0.75	0.25	0.75	1.149
Mof_Co	Co	0.25	0.75	0.75	1.149
Mof_Co	Co	-0	0	-0	1.093
Mof_Co	Co	0.5	0.5	-0	1.146
Mof_Co	Co	0.5	0	-0	1.12
Mof_Co	Co	-0	0.5	-0	1.12
Mof_Co	Co	-4.64032e-33	0.5	0.5	1.163
Mof_Co	Co	0.5	0	0.5	1.162
Mof_Co	Co	0.5	0.5	0.5	1.188
Mof_Co	Co	3.82196e-33	0	0.5	1.135
Mof_Cl	Cl	0.0994	0.5994	0.25	-0.496
Mof_Cl	Cl	0.4006	0.9006	0.25	-0.435
Mof_Cl	Cl	0.9006	0.0994	0.25	-0.463
Mof_Cl	Cl	0.5994	0.4006	0.25	-0.467
Mof_Cl	Cl	0.9006	0.4006	0.75	-0.435
Mof_Cl	Cl	0.5994	0.0994	0.75	-0.495
Mof_Cl	Cl	0.0994	0.9006	0.75	-0.463
Mof_Cl	Cl	0.4006	0.5994	0.75	-0.465
_end
