data_functionalizedCrystal
_audit_creation_method	'EQeq! by Chris Wilmer'
_symmetry_space_group_name_H-M	'P1'
_symmetry_Int_Tables_number	1
_symmetry_cell_setting	triclinic
loop_
_symmetry_equiv_pos_as_xyz
  x,y,z
_cell_length_a	14.6355
_cell_length_b	21.0669
_cell_length_c	16.3476
_cell_angle_alpha	90
_cell_angle_beta	98.291
_cell_angle_gamma	90
loop_
_atom_site_label
_atom_site_type_symbol
_atom_site_fract_x
_atom_site_fract_y
_atom_site_fract_z
_atom_site_charge
Mof_C 	C 	0.6816	0.0542	0.6442	0.096
Mof_H 	H 	0.7164	0.0394	0.6925	-0.003
Mof_C 	C 	0.6165	0.1132	0.5485	0.11
Mof_H 	H 	0.5975	0.1495	0.5184	0.017
Mof_C 	C 	0.6362	0.9492	0.5774	-0.183
Mof_H 	H 	0.5845	0.936	0.537	0.159
Mof_H 	H 	0.6296	0.9296	0.6299	0.128
Mof_C 	C 	0.7279	0.9279	0.5493	0.35
Mof_C 	C 	0.7257	0.854	0.5299	-0.267
Mof_H 	H 	0.6769	0.8453	0.4845	0.173
Mof_H 	H 	0.7838	0.8416	0.5127	0.141
Mof_C 	C 	0.7471	0.965	0.4728	-0.36
Mof_C 	C 	0.8151	0.0097	0.4801	0.319
Mof_H 	H 	0.8566	0.0121	0.5288	-0.084
Mof_C 	C 	0.8238	0.0532	0.4143	-0.583
Mof_H 	H 	0.8681	0.0852	0.4212	0.258
Mof_C 	C 	0.7655	0.0469	0.3403	0.814
Mof_C 	C 	0.7008	0.0008	0.3317	-0.949
Mof_H 	H 	0.6632	0.9955	0.2812	0.454
Mof_C 	C 	0.6896	0.9609	0.3978	0.767
Mof_C 	C 	0.8273	0.2774	0.5917	0.115
Mof_H 	H 	0.8161	0.3148	0.6187	-0.023
Mof_C 	C 	0.832	0.1832	0.5545	0.097
Mof_H 	H 	0.8231	0.1395	0.5519	0.011
Mof_C 	C 	0.9117	0.3264	0.4852	-0.15
Mof_H 	H 	0.8797	0.3655	0.4946	0.105
Mof_H 	H 	0.9024	0.318	0.4263	0.114
Mof_C 	C 	0.0155	0.3348	0.5154	0.296
Mof_C 	C 	0.0539	0.3934	0.4721	-0.24
Mof_H 	H 	0.0106	0.4283	0.4711	0.127
Mof_H 	H 	0.1118	0.4067	0.5039	0.134
Mof_C 	C 	0.0351	0.3437	0.6105	-0.459
Mof_C 	C 	0.077	0.2975	0.6621	0.535
Mof_H 	H 	0.0974	0.2599	0.641	-0.128
Mof_C 	C 	0.088	0.3085	0.7463	-0.782
Mof_H 	H 	0.115	0.2771	0.7819	0.32
Mof_C 	C 	0.0612	0.3626	0.7784	0.954
Mof_C 	C 	0.0178	0.4063	0.7322	-1.03
Mof_H 	H 	0.9966	0.4428	0.7552	0.493
Mof_C 	C 	0.0041	0.3966	0.6468	0.65
Mof_N 	N 	0.8001	0.2212	0.6119	-0.246
Mof_N 	N 	0.8765	0.2148	0.5032	-0.077
Mof_N 	N 	0.8725	0.274	0.5283	-0.069
Mof_N 	N 	0.6694	0.1152	0.6231	-0.244
Mof_N 	N 	0.5937	0.0541	0.5214	-0.074
Mof_N 	N 	0.6366	0.0183	0.5858	-0.09
Mof_O 	O 	0.9771	0.0784	0.9685	-0.692
Mof_O 	O 	0.0695	0.9734	0.9419	-0.807
Mof_O 	O 	0.9421	0.9904	0.905	-0.745
Mof_O 	O 	0.9101	0.9672	0.0022	-0.96
Mof_O 	O 	0.9938	0.174	0.0145	-0.414
Mof_O 	O 	0.1701	0.0966	0.9077	-0.456
Mof_O 	O 	0.1291	0.9908	0.8236	-0.382
Mof_O 	O 	0.8401	0.8668	0.9387	-0.444
Mof_O 	O 	0.7492	0.972	0.9666	-0.405
Mof_O 	O 	0.2098	0.9226	0.9496	-0.387
Mof_O 	O 	0.821	0.2057	0.0538	-0.367
Mof_O 	O 	0.8024	0.0258	0.8362	-0.484
Mof_O 	O 	0.8473	0.1294	0.9233	-0.375
Mof_O 	O 	0.8934	0.9203	0.807	-0.405
Mof_O 	O 	0.0618	0.8789	0.8547	-0.446
Mof_O 	O 	0.9603	0.0343	0.776	-0.427
Mof_O 	O 	0.0014	0.1372	0.8609	-0.492
Mof_O 	O 	0.8331	0.1333	0.7525	-0.469
Mof_O 	O 	0.8006	0.9394	0.6167	-0.407
Mof_H 	H 	0.8501	0.9282	0.6033	0.256
Mof_O 	O 	0.0644	0.2799	0.4961	-0.41
Mof_H 	H 	0.0564	0.2744	0.4459	0.232
Mof_Ni	Ni	0.71811	0.19079	0.70041	1.055
Mof_W 	W 	0.8928	0.0897	0.832	0.528
Mof_W 	W 	0.0133	0.95126	0.79374	1.145
Mof_W 	W 	0.80106	0.94029	0.87441	1.304
Mof_W 	W 	0.21291	0.00952	0.9207	1.206
Mof_W 	W 	0.09137	0.15061	0.95489	1.229
Mof_W 	W 	0.87356	0.12982	0.0416	0.609
Mof_F 	F 	0.6192	0.9185	0.3881	-0.541
Mof_F 	F 	0.7712	0.088	0.2797	-0.579
Mof_F 	F 	0.96	0.4448	0.5986	-0.493
Mof_F 	F 	0.0739	0.3682	0.8622	-0.585
Mof_N 	N 	0.7104	0.8162	0.6011	-0.053
Mof_N 	N 	0.0687	0.379	0.3882	-0.068
Mof_N 	N 	0.0014	0.3886	0.321	-0.113
Mof_N 	N 	0.6231	0.8054	0.617	-0.088
Mof_C 	C 	0.7712	0.7885	0.659	0.081
Mof_H 	H 	0.835	0.7898	0.661	-0.001
Mof_N 	N 	0.7732	0.2588	0.7868	-0.248
Mof_C 	C 	0.1431	0.3543	0.3624	0.086
Mof_H 	H 	0.1971	0.3438	0.3971	0.025
Mof_C 	C 	0.0436	0.3689	0.261	0.079
Mof_H 	H 	0.0151	0.3701	0.2063	0.01
Mof_C 	C 	0.6367	0.7695	0.6835	0.105
Mof_H 	H 	0.5885	0.7528	0.7082	0.002
Mof_N 	N 	0.631	0.1535	0.7812	-0.243
Mof_W 	W 	0.8958	0.1052	0.8405	0.29
Mof_W 	W 	0.8862	0.0757	0.8236	0.418
Mof_W 	W 	0.88662	0.1508	0.03426	0.656
Mof_C 	C 	0.8184	0.5542	0.8558	0.103
Mof_H 	H 	0.7836	0.5394	0.8075	0.013
Mof_C 	C 	0.8835	0.6132	0.9515	0.123
Mof_H 	H 	0.9025	0.6495	0.9816	0.047
Mof_C 	C 	0.8638	0.4492	0.9226	-0.267
Mof_H 	H 	0.9155	0.436	0.963	0.214
Mof_H 	H 	0.8704	0.4296	0.8701	0.154
Mof_C 	C 	0.7721	0.4279	0.9507	0.381
Mof_C 	C 	0.7743	0.354	0.9701	-0.178
Mof_H 	H 	0.8231	0.3453	0.0155	0.121
Mof_H 	H 	0.7162	0.3416	0.9873	0.126
Mof_C 	C 	0.7529	0.465	0.0272	-0.394
Mof_C 	C 	0.6849	0.5097	0.0199	0.238
Mof_H 	H 	0.6434	0.5121	0.9712	-0.013
Mof_C 	C 	0.6762	0.5532	0.0857	-0.482
Mof_H 	H 	0.6319	0.5852	0.0788	0.2
Mof_C 	C 	0.7345	0.5469	0.1597	0.677
Mof_C 	C 	0.7992	0.5008	0.1683	-0.637
Mof_H 	H 	0.8368	0.4955	0.2188	0.309
Mof_C 	C 	0.8104	0.4609	0.1022	0.61
Mof_C 	C 	0.6727	0.7774	0.9083	0.095
Mof_H 	H 	0.6839	0.8148	0.8813	-0.016
Mof_C 	C 	0.668	0.6832	0.9455	0.096
Mof_H 	H 	0.6769	0.6395	0.9481	0.02
Mof_C 	C 	0.5883	0.8264	0.0148	-0.445
Mof_H 	H 	0.6203	0.8655	0.0054	0.158
Mof_H 	H 	0.5976	0.818	0.0737	0.17
Mof_C 	C 	0.4845	0.8348	0.9846	0.593
Mof_C 	C 	0.4461	0.8934	0.0279	-0.522
Mof_H 	H 	0.4894	0.9283	0.0289	0.238
Mof_H 	H 	0.3882	0.9067	0.9961	0.273
Mof_C 	C 	0.4649	0.8437	0.8895	-0.51
Mof_C 	C 	0.423	0.7975	0.8379	0.564
Mof_H 	H 	0.4026	0.7599	0.859	-0.117
Mof_C 	C 	0.412	0.8085	0.7537	-0.75
Mof_H 	H 	0.385	0.7771	0.7181	0.312
Mof_C 	C 	0.4388	0.8626	0.7216	0.899
Mof_C 	C 	0.4822	0.9063	0.7678	-0.856
Mof_H 	H 	0.5034	0.9428	0.7448	0.395
Mof_C 	C 	0.4959	0.8966	0.8532	0.704
Mof_N 	N 	0.6999	0.7212	0.8881	-0.241
Mof_N 	N 	0.6235	0.7148	0.9968	-0.075
Mof_N 	N 	0.6275	0.774	0.9717	-0.021
Mof_N 	N 	0.8306	0.6152	0.8769	-0.239
Mof_N 	N 	0.9063	0.5541	0.9786	-0.027
Mof_N 	N 	0.8634	0.5183	0.9142	-0.041
Mof_O 	O 	0.5229	0.5784	0.5315	-1.002
Mof_O 	O 	0.4305	0.4734	0.5581	-1.147
Mof_O 	O 	0.5579	0.4904	0.595	-1.1
Mof_O 	O 	0.5899	0.4672	0.4978	-1.353
Mof_O 	O 	0.5062	0.674	0.4855	-0.443
Mof_O 	O 	0.3299	0.5966	0.5923	-0.468
Mof_O 	O 	0.3709	0.4908	0.6764	-0.436
Mof_O 	O 	0.6599	0.3668	0.5613	-0.475
Mof_O 	O 	0.7508	0.472	0.5334	-0.44
Mof_O 	O 	0.2902	0.4226	0.5504	-0.436
Mof_O 	O 	0.679	0.7057	0.4462	-0.376
Mof_O 	O 	0.6976	0.5258	0.6638	-0.428
Mof_O 	O 	0.6527	0.6294	0.5767	-0.409
Mof_O 	O 	0.6066	0.4203	0.693	-0.452
Mof_O 	O 	0.4382	0.3789	0.6453	-0.435
Mof_O 	O 	0.5397	0.5343	0.724	-0.432
Mof_O 	O 	0.4986	0.6372	0.6391	-0.433
Mof_O 	O 	0.6669	0.6333	0.7475	-0.484
Mof_O 	O 	0.6994	0.4394	0.8833	-0.436
Mof_H 	H 	0.6499	0.4282	0.8967	0.244
Mof_O 	O 	0.4356	0.7799	0.0039	-0.523
Mof_H 	H 	0.4436	0.7744	0.0541	0.285
Mof_Ni	Ni	0.78189	0.69079	0.79959	1.058
Mof_W 	W 	0.6072	0.5897	0.668	0.531
Mof_W 	W 	0.4867	0.45126	0.70626	1.29
Mof_W 	W 	0.69894	0.44029	0.62559	1.327
Mof_W 	W 	0.28709	0.50952	0.5793	1.37
Mof_W 	W 	0.40863	0.65061	0.54511	1.289
Mof_W 	W 	0.62644	0.62982	0.4584	0.643
Mof_F 	F 	0.8808	0.4185	0.1119	-0.505
Mof_F 	F 	0.7288	0.588	0.2203	-0.551
Mof_F 	F 	0.54	0.9448	0.9014	-0.52
Mof_F 	F 	0.4261	0.8682	0.6378	-0.563
Mof_N 	N 	0.7896	0.3162	0.8989	-0.06
Mof_N 	N 	0.4313	0.879	0.1118	-0.025
Mof_N 	N 	0.4986	0.8886	0.179	-0.087
Mof_N 	N 	0.8769	0.3054	0.883	-0.063
Mof_C 	C 	0.7288	0.2885	0.841	0.089
Mof_H 	H 	0.665	0.2898	0.839	-0.012
Mof_N 	N 	0.7268	0.7588	0.7132	-0.247
Mof_C 	C 	0.3569	0.8543	0.1376	0.075
Mof_H 	H 	0.3029	0.8438	0.1029	0.024
Mof_C 	C 	0.4564	0.8689	0.239	0.086
Mof_H 	H 	0.4849	0.8701	0.2937	0.04
Mof_C 	C 	0.8633	0.2695	0.8165	0.109
Mof_H 	H 	0.9115	0.2528	0.7918	0.03
Mof_N 	N 	0.869	0.6535	0.7188	-0.236
Mof_W 	W 	0.6042	0.6052	0.6595	0.368
Mof_W 	W 	0.6138	0.5757	0.6764	0.349
Mof_W 	W 	0.61338	0.6508	0.46574	0.711
Mof_C 	C 	0.3184	0.9458	0.3558	0.098
Mof_H 	H 	0.2836	0.9606	0.3075	0.033
Mof_C 	C 	0.3835	0.8868	0.4515	0.112
Mof_H 	H 	0.4025	0.8505	0.4816	0.021
Mof_C 	C 	0.3638	0.0508	0.4226	-0.331
Mof_H 	H 	0.4155	0.064	0.463	0.184
Mof_H 	H 	0.3704	0.0704	0.3701	0.151
Mof_C 	C 	0.2721	0.0721	0.4507	0.38
Mof_C 	C 	0.2743	0.146	0.4701	-0.275
Mof_H 	H 	0.3231	0.1547	0.5155	0.177
Mof_H 	H 	0.2162	0.1584	0.4873	0.129
Mof_C 	C 	0.2529	0.035	0.5272	-0.44
Mof_C 	C 	0.1849	0.9903	0.5199	0.43
Mof_H 	H 	0.1434	0.9879	0.4712	-0.098
Mof_C 	C 	0.1762	0.9468	0.5857	-0.503
Mof_H 	H 	0.1319	0.9148	0.5788	0.218
Mof_C 	C 	0.2345	0.9531	0.6597	0.604
Mof_C 	C 	0.2992	0.9992	0.6683	-0.361
Mof_H 	H 	0.3368	0.0045	0.7188	0.149
Mof_C 	C 	0.3104	0.0391	0.6022	0.476
Mof_C 	C 	0.1727	0.7226	0.4083	0.084
Mof_H 	H 	0.1839	0.6852	0.3813	-0.03
Mof_C 	C 	0.168	0.8168	0.4455	0.083
Mof_H 	H 	0.1769	0.8605	0.4481	0.009
Mof_C 	C 	0.0883	0.6736	0.5148	-0.366
Mof_H 	H 	0.1203	0.6345	0.5054	0.137
Mof_H 	H 	0.0976	0.682	0.5737	0.13
Mof_C 	C 	0.9845	0.6652	0.4846	0.467
Mof_C 	C 	0.9461	0.6066	0.5279	-0.314
Mof_H 	H 	0.9894	0.5717	0.5289	0.206
Mof_H 	H 	0.8882	0.5933	0.4961	0.163
Mof_C 	C 	0.9649	0.6563	0.3895	-0.425
Mof_C 	C 	0.923	0.7025	0.3379	0.473
Mof_H 	H 	0.9026	0.7401	0.359	-0.083
Mof_C 	C 	0.912	0.6915	0.2537	-0.632
Mof_H 	H 	0.885	0.7229	0.2181	0.28
Mof_C 	C 	0.9388	0.6374	0.2216	0.77
Mof_C 	C 	0.9822	0.5937	0.2678	-0.609
Mof_H 	H 	0.0034	0.5572	0.2448	0.229
Mof_C 	C 	0.9959	0.6034	0.3532	0.659
Mof_N 	N 	0.1999	0.7788	0.3881	-0.246
Mof_N 	N 	0.1235	0.7852	0.4968	-0.103
Mof_N 	N 	0.1275	0.726	0.4717	-0.06
Mof_N 	N 	0.3306	0.8848	0.3769	-0.241
Mof_N 	N 	0.4063	0.9459	0.4786	-0.045
Mof_N 	N 	0.3634	0.9817	0.4142	-0.008
Mof_O 	O 	0.0229	0.9216	0.0315	-0.809
Mof_O 	O 	0.9305	0.0266	0.0581	-0.871
Mof_O 	O 	0.0579	0.0096	0.095	-0.911
Mof_O 	O 	0.0899	0.0328	0.9978	-0.987
Mof_O 	O 	0.0062	0.826	0.9855	-0.456
Mof_O 	O 	0.8299	0.9034	0.0923	-0.469
Mof_O 	O 	0.8709	0.0092	0.1764	-0.483
Mof_O 	O 	0.1599	0.1332	0.0613	-0.502
Mof_O 	O 	0.2508	0.028	0.0334	-0.482
Mof_O 	O 	0.7902	0.0774	0.0504	-0.482
Mof_O 	O 	0.179	0.7943	0.9462	-0.357
Mof_O 	O 	0.1976	0.9742	0.1638	-0.361
Mof_O 	O 	0.1527	0.8706	0.0767	-0.442
Mof_O 	O 	0.1066	0.0797	0.193	-0.502
Mof_O 	O 	0.9382	0.1211	0.1453	-0.415
Mof_O 	O 	0.0397	0.9657	0.224	-0.431
Mof_O 	O 	0.9986	0.8628	0.1391	-0.372
Mof_O 	O 	0.1669	0.8667	0.2475	-0.482
Mof_O 	O 	0.1994	0.0606	0.3833	-0.46
Mof_H 	H 	0.1499	0.0718	0.3967	0.22
Mof_O 	O 	0.9356	0.7201	0.5039	-0.429
Mof_H 	H 	0.9436	0.7256	0.5541	0.277
Mof_Ni	Ni	0.28189	0.80921	0.29959	1.053
Mof_W 	W 	0.1072	0.9103	0.168	0.498
Mof_W 	W 	0.9867	0.04874	0.20626	1.332
Mof_W 	W 	0.19894	0.05971	0.12559	1.184
Mof_W 	W 	0.78709	0.99048	0.0793	1.383
Mof_W 	W 	0.90863	0.84939	0.04511	1.231
Mof_W 	W 	0.12644	0.87018	0.9584	0.656
Mof_F 	F 	0.3808	0.0815	0.6119	-0.507
Mof_F 	F 	0.2288	0.912	0.7203	-0.525
Mof_F 	F 	0.04	0.5552	0.4014	-0.592
Mof_F 	F 	0.9261	0.6318	0.1378	-0.532
Mof_N 	N 	0.2896	0.1838	0.3989	-0.054
Mof_N 	N 	0.9313	0.621	0.6118	-0.048
Mof_N 	N 	0.9986	0.6114	0.679	-0.068
Mof_N 	N 	0.3769	0.1946	0.383	-0.089
Mof_C 	C 	0.2288	0.2115	0.341	0.081
Mof_H 	H 	0.165	0.2102	0.339	-0.023
Mof_N 	N 	0.2268	0.7412	0.2132	-0.251
Mof_C 	C 	0.8569	0.6457	0.6376	0.087
Mof_H 	H 	0.8029	0.6562	0.6029	0.026
Mof_C 	C 	0.9564	0.6311	0.739	0.087
Mof_H 	H 	0.9849	0.6299	0.7937	0.06
Mof_C 	C 	0.3633	0.2305	0.3165	0.104
Mof_H 	H 	0.4115	0.2472	0.2918	0.002
Mof_N 	N 	0.369	0.8465	0.2188	-0.238
Mof_W 	W 	0.1042	0.8948	0.1595	0.407
Mof_W 	W 	0.1138	0.9243	0.1764	0.27
Mof_W 	W 	0.11338	0.8492	0.96574	0.681
Mof_C 	C 	0.1816	0.4458	0.1442	0.092
Mof_H 	H 	0.2164	0.4606	0.1925	0.012
Mof_C 	C 	0.1165	0.3868	0.0485	0.098
Mof_H 	H 	0.0975	0.3505	0.0184	-0.009
Mof_C 	C 	0.1362	0.5508	0.0774	-0.239
Mof_H 	H 	0.0845	0.564	0.037	0.127
Mof_H 	H 	0.1296	0.5704	0.1299	0.123
Mof_C 	C 	0.2279	0.5721	0.0493	0.346
Mof_C 	C 	0.2257	0.646	0.0299	-0.37
Mof_H 	H 	0.1769	0.6547	0.9845	0.237
Mof_H 	H 	0.2838	0.6584	0.0127	0.147
Mof_C 	C 	0.2471	0.535	0.9728	-0.393
Mof_C 	C 	0.3151	0.4903	0.9801	0.504
Mof_H 	H 	0.3566	0.4879	0.0288	-0.173
Mof_C 	C 	0.3238	0.4468	0.9143	-0.604
Mof_H 	H 	0.3681	0.4148	0.9212	0.273
Mof_C 	C 	0.2655	0.4531	0.8403	0.74
Mof_C 	C 	0.2008	0.4992	0.8317	-0.683
Mof_H 	H 	0.1632	0.5045	0.7812	0.297
Mof_C 	C 	0.1896	0.5391	0.8978	0.636
Mof_C 	C 	0.3273	0.2226	0.0917	0.103
Mof_H 	H 	0.3161	0.1852	0.1187	-0.032
Mof_C 	C 	0.332	0.3168	0.0545	0.084
Mof_H 	H 	0.3231	0.3605	0.0519	-0.002
Mof_C 	C 	0.4117	0.1736	0.9852	-0.069
Mof_H 	H 	0.3797	0.1345	0.9946	0.091
Mof_H 	H 	0.4024	0.182	0.9263	0.074
Mof_C 	C 	0.5155	0.1652	0.0154	0.166
Mof_C 	C 	0.5539	0.1066	0.9721	-0.026
Mof_H 	H 	0.5106	0.0717	0.9711	0.098
Mof_H 	H 	0.6118	0.0933	0.0039	0.026
Mof_C 	C 	0.5351	0.1563	0.1105	-0.371
Mof_C 	C 	0.577	0.2025	0.1621	0.445
Mof_H 	H 	0.5974	0.2401	0.141	-0.093
Mof_C 	C 	0.588	0.1915	0.2463	-0.663
Mof_H 	H 	0.615	0.2229	0.2819	0.284
Mof_C 	C 	0.5612	0.1374	0.2784	0.827
Mof_C 	C 	0.5178	0.0937	0.2322	-0.788
Mof_H 	H 	0.4966	0.0572	0.2552	0.332
Mof_C 	C 	0.5041	0.1034	0.1468	0.608
Mof_N 	N 	0.3001	0.2788	0.1119	-0.25
Mof_N 	N 	0.3765	0.2852	0.0032	-0.108
Mof_N 	N 	0.3725	0.226	0.0283	-0.11
Mof_N 	N 	0.1694	0.3848	0.1231	-0.246
Mof_N 	N 	0.0937	0.4459	0.0214	-0.094
Mof_N 	N 	0.1366	0.4817	0.0858	-0.063
Mof_O 	O 	0.4771	0.4216	0.4685	-1.003
Mof_O 	O 	0.5695	0.5266	0.4419	-1.147
Mof_O 	O 	0.4421	0.5096	0.405	-1.099
Mof_O 	O 	0.4101	0.5328	0.5022	-1.351
Mof_O 	O 	0.4938	0.326	0.5145	-0.443
Mof_O 	O 	0.6701	0.4034	0.4077	-0.465
Mof_O 	O 	0.6291	0.5092	0.3236	-0.436
Mof_O 	O 	0.3401	0.6332	0.4387	-0.475
Mof_O 	O 	0.2492	0.528	0.4666	-0.445
Mof_O 	O 	0.7098	0.5774	0.4496	-0.438
Mof_O 	O 	0.321	0.2943	0.5538	-0.377
Mof_O 	O 	0.3024	0.4742	0.3362	-0.429
Mof_O 	O 	0.3473	0.3706	0.4233	-0.409
Mof_O 	O 	0.3934	0.5797	0.307	-0.452
Mof_O 	O 	0.5618	0.6211	0.3547	-0.436
Mof_O 	O 	0.4603	0.4657	0.276	-0.434
Mof_O 	O 	0.5014	0.3628	0.3609	-0.433
Mof_O 	O 	0.3331	0.3667	0.2525	-0.486
Mof_O 	O 	0.3006	0.5606	0.1167	-0.43
Mof_H 	H 	0.3501	0.5718	0.1033	0.231
Mof_O 	O 	0.5644	0.2201	0.9961	-0.311
Mof_H 	H 	0.5564	0.2256	0.9459	0.224
Mof_Ni	Ni	0.21811	0.30921	0.20041	1.05
Mof_W 	W 	0.3928	0.4103	0.332	0.531
Mof_W 	W 	0.5133	0.54874	0.29374	1.284
Mof_W 	W 	0.30106	0.55971	0.37441	1.314
Mof_W 	W 	0.71291	0.49048	0.4207	1.391
Mof_W 	W 	0.59137	0.34939	0.45489	1.292
Mof_W 	W 	0.37356	0.37018	0.5416	0.644
Mof_F 	F 	0.1192	0.5815	0.8881	-0.541
Mof_F 	F 	0.2712	0.412	0.7797	-0.559
Mof_F 	F 	0.46	0.0552	0.0986	-0.562
Mof_F 	F 	0.5739	0.1318	0.3622	-0.558
Mof_N 	N 	0.2104	0.6838	0.1011	-0.046
Mof_N 	N 	0.5687	0.121	0.8882	-0.09
Mof_N 	N 	0.5014	0.1114	0.821	-0.091
Mof_N 	N 	0.1231	0.6946	0.117	-0.113
Mof_C 	C 	0.2712	0.7115	0.159	0.072
Mof_H 	H 	0.335	0.7102	0.161	-0.011
Mof_N 	N 	0.2732	0.2412	0.2868	-0.252
Mof_C 	C 	0.6431	0.1457	0.8624	0.1
Mof_H 	H 	0.6971	0.1562	0.8971	0.029
Mof_C 	C 	0.5436	0.1311	0.761	0.081
Mof_H 	H 	0.5151	0.1299	0.7063	0.033
Mof_C 	C 	0.1367	0.7305	0.1835	0.099
Mof_H 	H 	0.0885	0.7472	0.2082	-0.022
Mof_N 	N 	0.131	0.3465	0.2812	-0.245
Mof_W 	W 	0.3958	0.3948	0.3405	0.368
Mof_W 	W 	0.3862	0.4243	0.3236	0.349
Mof_W 	W 	0.38662	0.3492	0.53426	0.711
Mof_Si	Si	-0	0	-0	4.22
Mof_Si	Si	0.5	0.5	0.5	6.122
_end
