data_functionalizedCrystal
_audit_creation_method	'EQeq! by Chris Wilmer'
_symmetry_space_group_name_H-M	'P1'
_symmetry_Int_Tables_number	1
_symmetry_cell_setting	triclinic
loop_
_symmetry_equiv_pos_as_xyz
  x,y,z
_cell_length_a	10.601
_cell_length_b	13.4564
_cell_length_c	20.038
_cell_angle_alpha	98.6386
_cell_angle_beta	90
_cell_angle_gamma	113.197
loop_
_atom_site_label
_atom_site_type_symbol
_atom_site_fract_x
_atom_site_fract_y
_atom_site_fract_z
_atom_site_charge
Mof_Cu	Cu	-0	0	-0	0.782
Mof_Cu	Cu	-1.0965e-17	0	0.5	0.796
Mof_Si	Si	0.5021	0	0.25	1.671
Mof_Si	Si	0.4979	0	0.75	1.689
Mof_H 	H 	0.4605	0.3662	0.5671	0.051
Mof_H 	H 	0.2906	0.197	0.5184	-0.006
Mof_H 	H 	0.9057	0.3662	0.0671	0.041
Mof_H 	H 	0.9064	0.197	0.0184	-0.064
Mof_H 	H 	0.3464	0.4752	0.4119	0.027
Mof_H 	H 	0.7664	0.6434	0.0762	0.002
Mof_H 	H 	0.9526	0.178	0.4316	0.048
Mof_H 	H 	0.123	0.3566	0.4238	-0.025
Mof_H 	H 	0.877	0.6434	0.5762	0.031
Mof_H 	H 	0.0936	0.803	0.9816	0.062
Mof_H 	H 	0.7746	0.822	0.0684	0.016
Mof_H 	H 	0.0943	0.6338	0.9329	0.061
Mof_H 	H 	0.0474	0.822	0.5684	-0.039
Mof_H 	H 	0.7094	0.803	0.4816	0.004
Mof_H 	H 	0.2336	0.3566	0.9238	0.007
Mof_H 	H 	0.5395	0.6338	0.4329	0.051
Mof_H 	H 	0.1288	0.4752	0.9119	0.02
Mof_H 	H 	0.8712	0.5248	0.0881	0.042
Mof_H 	H 	0.2254	0.178	0.9316	-0.011
Mof_H 	H 	0.6536	0.5248	0.5881	0.034
Mof_W 	W 	0.766	0.0488	0.13669	1.136
Mof_W 	W 	0.1665	0.79328	0.71055	1.01
Mof_W 	W 	0.39323	0.76302	0.32823	1.017
Mof_W 	W 	0.24485	0.97072	0.3677	1.223
Mof_W 	W 	0.7172	0.9512	0.36331	1.5
Mof_W 	W 	0.234	0.9512	0.86331	1.494
Mof_W 	W 	0.27413	0.02928	0.1323	0.769
Mof_W 	W 	0.62729	0.79664	0.69872	1.033
Mof_W 	W 	0.8335	0.20672	0.28945	1.037
Mof_W 	W 	0.63021	0.23698	0.17177	0.992
Mof_W 	W 	0.75515	0.02928	0.6323	0.806
Mof_W 	W 	0.37322	0.20672	0.78945	1.021
Mof_W 	W 	0.72587	0.97072	0.8677	1.237
Mof_W 	W 	0.62678	0.79328	0.21055	1.025
Mof_W 	W 	0.58819	0.15364	0.91477	1.049
Mof_W 	W 	0.37271	0.20336	0.30128	1.012
Mof_W 	W 	0.56545	0.15364	0.41477	1.04
Mof_W 	W 	0.41181	0.84636	0.08523	1.018
Mof_W 	W 	0.36979	0.76302	0.82823	1.026
Mof_W 	W 	0.83065	0.20336	0.80128	1.037
Mof_W 	W 	0.60677	0.23698	0.67177	1.002
Mof_W 	W 	0.16935	0.79664	0.19872	1.008
Mof_W 	W 	0.43455	0.84636	0.58523	1.028
Mof_W 	W 	0.2828	0.0488	0.63669	1.137
Mof_C 	C 	0.8384	0.7948	0.0513	0.012
Mof_C 	C 	0.591	0.5142	0.5525	-0.077
Mof_C 	C 	0.2272	0.215	0.4964	0.108
Mof_C 	C 	0.0212	0.4052	0.9872	0.057
Mof_C 	C 	0.9878	0.215	0.9964	0.242
Mof_C 	C 	0.7728	0.785	0.5036	0.114
Mof_C 	C 	0.1359	0.3034	0.4443	0.029
Mof_C 	C 	0.0566	0.58	0.9598	-0.122
Mof_C 	C 	0.5234	0.58	0.4598	-0.088
Mof_C 	C 	0.9232	0.5142	0.0525	-0.101
Mof_C 	C 	0.4766	0.42	0.5402	-0.087
Mof_C 	C 	0.1675	0.3034	0.9443	-0.025
Mof_C 	C 	0.616	0.5948	0.5128	0.085
Mof_C 	C 	0.8325	0.6966	0.0557	-0.015
Mof_C 	C 	0.9434	0.42	0.0402	-0.053
Mof_C 	C 	0.9788	0.5948	0.0128	0.111
Mof_C 	C 	0.1616	0.2052	0.9487	-0.002
Mof_C 	C 	0.0122	0.785	0.0036	-0.023
Mof_C 	C 	0.409	0.4858	0.4475	-0.076
Mof_C 	C 	0.384	0.4052	0.4872	0.083
Mof_C 	C 	0.9564	0.7948	0.5513	0.105
Mof_C 	C 	0.8641	0.6966	0.5557	-0.065
Mof_C 	C 	0.0436	0.2052	0.4487	-0.105
Mof_C 	C 	0.0768	0.4858	0.9475	-0.053
Mof_N 	N 	0.0496	0.148	0.9816	-0.288
Mof_N 	N 	0.7421	0.6884	0.5233	-0.137
Mof_N 	N 	0.9463	0.6884	0.0233	-0.112
Mof_N 	N 	0.9016	0.852	0.5184	-0.218
Mof_N 	N 	0.2579	0.3116	0.4767	-0.152
Mof_N 	N 	0.0984	0.148	0.4816	-0.246
Mof_N 	N 	0.9504	0.852	0.0184	-0.17
Mof_N 	N 	0.0537	0.3116	0.9767	-0.176
Mof_O 	O 	0.4428	0.0598	0.3118	-0.724
Mof_O 	O 	0.6333	0.0904	0.2225	-0.726
Mof_O 	O 	0.7174	0.2212	0.3581	-0.462
Mof_O 	O 	0.4912	0.7034	0.2623	-0.452
Mof_O 	O 	0.2322	0.098	0.3467	-0.526
Mof_O 	O 	0.4391	0.1728	0.6156	-0.453
Mof_O 	O 	0.2574	0.0728	0.8227	-0.573
Mof_O 	O 	0.6751	0.1362	0.6293	-0.471
Mof_O 	O 	0.1846	0.9272	0.6773	-0.405
Mof_O 	O 	0.1342	0.902	0.1533	-0.368
Mof_O 	O 	0.6276	0.0398	0.4082	-0.578
Mof_O 	O 	0.5429	0.9096	0.2775	-0.654
Mof_O 	O 	0.5572	0.9402	0.6882	-0.595
Mof_O 	O 	0.2525	0.147	0.7065	-0.464
Mof_O 	O 	0.383	0.9402	0.1882	-0.583
Mof_O 	O 	0.7219	0.89	0.782	-0.457
Mof_O 	O 	0.8154	0.0728	0.3227	-0.567
Mof_O 	O 	0.6126	0.9362	0.5627	-0.357
Mof_O 	O 	0.7337	0.1728	0.1156	-0.453
Mof_O 	O 	0.2369	0.7522	0.1169	-0.442
Mof_O 	O 	0.3724	0.9602	0.5918	-0.393
Mof_O 	O 	0.8746	0.0366	0.0739	-0.535
Mof_O 	O 	0.7475	0.853	0.2935	-0.465
Mof_O 	O 	0.1254	0.9634	0.9261	-0.484
Mof_O 	O 	0.8945	0.147	0.2065	-0.45
Mof_O 	O 	0.1681	0.89	0.282	-0.465
Mof_O 	O 	0.7678	0.902	0.6533	-0.361
Mof_O 	O 	0.4611	0.1362	0.1293	-0.475
Mof_O 	O 	0.3249	0.8638	0.3707	-0.472
Mof_O 	O 	0.2781	0.11	0.218	-0.467
Mof_O 	O 	0.162	0.0366	0.5739	-0.551
Mof_O 	O 	0.617	0.0598	0.8118	-0.73
Mof_O 	O 	0.7268	0.2536	0.7488	-0.459
Mof_O 	O 	0.2732	0.7464	0.2512	-0.469
Mof_O 	O 	0.2826	0.7788	0.6419	-0.46
Mof_O 	O 	0.5088	0.2966	0.7377	-0.441
Mof_O 	O 	0.4122	0.0398	0.9082	-0.573
Mof_O 	O 	0.3667	0.9096	0.7775	-0.659
Mof_O 	O 	0.5878	0.9602	0.0918	-0.395
Mof_O 	O 	0.5038	0.2212	0.8581	-0.462
Mof_O 	O 	0.4847	0.2478	0.3831	-0.434
Mof_O 	O 	0.8658	0.098	0.8467	-0.51
Mof_O 	O 	0.6764	0.0638	0.9373	-0.51
Mof_O 	O 	0.5609	0.8272	0.3844	-0.47
Mof_O 	O 	0.7631	0.2478	0.8831	-0.429
Mof_O 	O 	0.7426	0.9272	0.1773	-0.398
Mof_O 	O 	0.5389	0.8638	0.8707	-0.468
Mof_O 	O 	0.4962	0.7788	0.1419	-0.46
Mof_O 	O 	0.3236	0.9362	0.0627	-0.361
Mof_O 	O 	0.5268	0.2536	0.2488	-0.461
Mof_O 	O 	0.5153	0.7522	0.6169	-0.436
Mof_O 	O 	0.2663	0.8272	0.8844	-0.47
Mof_O 	O 	0.2122	0.7034	0.7623	-0.454
Mof_O 	O 	0.4732	0.7464	0.7512	-0.468
Mof_O 	O 	0.3874	0.0638	0.4373	-0.521
Mof_O 	O 	0.7878	0.2966	0.2377	-0.438
Mof_O 	O 	0.1055	0.853	0.7935	-0.478
Mof_O 	O 	0.8319	0.11	0.718	-0.458
Mof_O 	O 	0.838	0.9634	0.4261	-0.473
Mof_O 	O 	0.4571	0.0904	0.7225	-0.729
_end
