data_functionalizedCrystal
_audit_creation_method	'EQeq! by Chris Wilmer'
_symmetry_space_group_name_H-M	'P1'
_symmetry_Int_Tables_number	1
_symmetry_cell_setting	triclinic
loop_
_symmetry_equiv_pos_as_xyz
  x,y,z
_cell_length_a	9.7904
_cell_length_b	14.0287
_cell_length_c	11.8651
_cell_angle_alpha	90
_cell_angle_beta	104.69
_cell_angle_gamma	90
loop_
_atom_site_label
_atom_site_type_symbol
_atom_site_fract_x
_atom_site_fract_y
_atom_site_fract_z
_atom_site_charge
Mof_Zn	Zn	0.3707	0.38779	0.14186	1.198
Mof_Zn	Zn	0.58673	0.38501	0.45158	1.232
Mof_Zn	Zn	0.99661	0.54473	0.82842	1.233
Mof_P 	P 	0.09655	0.34971	0.92853	0.614
Mof_P 	P 	0.7023	0.50289	0.66161	0.518
Mof_P 	P 	0.69087	0.44587	0.21937	0.578
Mof_O 	O 	0.6953	0.4011	0.6128	-0.434
Mof_O 	O 	0.857	0.5416	0.6758	-0.419
Mof_O 	O 	0.0015	0.4176	0.8848	-0.543
Mof_O 	O 	0.6744	0.5006	0.7818	-0.492
Mof_O 	O 	0.2541	0.3769	0.9838	-0.507
Mof_O 	O 	0.6054	0.5689	0.5781	-0.506
Mof_O 	O 	0.0686	0.2507	0.9138	-0.501
Mof_O 	O 	0.6889	0.4359	0.3448	-0.463
Mof_O 	O 	0.5672	0.3966	0.1345	-0.467
Mof_O 	O 	0.68	0.5555	0.1949	-0.409
Mof_O 	O 	0.8268	0.4094	0.1962	-0.442
Mof_O 	O 	0.069	0.3517	0.0892	-0.427
Mof_H 	H 	0.6937	0.5682	0.1239	0.23
Mof_Zn	Zn	0.1293	0.88779	0.35814	1.199
Mof_Zn	Zn	0.91327	0.88501	0.04842	1.232
Mof_Zn	Zn	0.50339	0.04473	0.67158	1.235
Mof_P 	P 	0.40345	0.84971	0.57147	0.615
Mof_P 	P 	0.7977	0.00289	0.83839	0.517
Mof_P 	P 	0.80913	0.94587	0.28063	0.577
Mof_O 	O 	0.8047	0.9011	0.8872	-0.43
Mof_O 	O 	0.643	0.0416	0.8242	-0.418
Mof_O 	O 	0.4985	0.9176	0.6152	-0.543
Mof_O 	O 	0.8256	0.0006	0.7182	-0.492
Mof_O 	O 	0.2459	0.8769	0.5162	-0.506
Mof_O 	O 	0.8946	0.0689	0.9219	-0.507
Mof_O 	O 	0.4314	0.7507	0.5862	-0.5
Mof_O 	O 	0.8111	0.9359	0.1552	-0.464
Mof_O 	O 	0.9328	0.8966	0.3655	-0.467
Mof_O 	O 	0.82	0.0555	0.3051	-0.405
Mof_O 	O 	0.6732	0.9094	0.3038	-0.443
Mof_O 	O 	0.431	0.8517	0.4108	-0.427
Mof_H 	H 	0.8063	0.0682	0.3761	0.23
Mof_Zn	Zn	0.6293	0.61221	0.85814	1.199
Mof_Zn	Zn	0.41327	0.61499	0.54842	1.233
Mof_Zn	Zn	0.00339	0.45527	0.17158	1.234
Mof_P 	P 	0.90345	0.65029	0.07147	0.615
Mof_P 	P 	0.2977	0.49711	0.33839	0.519
Mof_P 	P 	0.30913	0.55413	0.78063	0.579
Mof_O 	O 	0.3047	0.5989	0.3872	-0.433
Mof_O 	O 	0.143	0.4584	0.3242	-0.418
Mof_O 	O 	0.9985	0.5824	0.1152	-0.543
Mof_O 	O 	0.3256	0.4994	0.2182	-0.492
Mof_O 	O 	0.7459	0.6231	0.0162	-0.507
Mof_O 	O 	0.3946	0.4311	0.4219	-0.506
Mof_O 	O 	0.9314	0.7493	0.0862	-0.501
Mof_O 	O 	0.3111	0.5641	0.6552	-0.463
Mof_O 	O 	0.4328	0.6034	0.8655	-0.467
Mof_O 	O 	0.32	0.4445	0.8051	-0.409
Mof_O 	O 	0.1732	0.5906	0.8038	-0.442
Mof_O 	O 	0.931	0.6483	0.9108	-0.427
Mof_H 	H 	0.3063	0.4318	0.8761	0.23
Mof_Zn	Zn	0.8707	0.11221	0.64186	1.199
Mof_Zn	Zn	0.08673	0.11499	0.95158	1.232
Mof_Zn	Zn	0.49661	0.95527	0.32842	1.235
Mof_P 	P 	0.59655	0.15029	0.42853	0.615
Mof_P 	P 	0.2023	0.99711	0.16161	0.517
Mof_P 	P 	0.19087	0.05413	0.71937	0.577
Mof_O 	O 	0.1953	0.0989	0.1128	-0.43
Mof_O 	O 	0.357	0.9584	0.1758	-0.418
Mof_O 	O 	0.5015	0.0824	0.3848	-0.543
Mof_O 	O 	0.1744	0.9994	0.2818	-0.492
Mof_O 	O 	0.7541	0.1231	0.4838	-0.506
Mof_O 	O 	0.1054	0.9311	0.0781	-0.507
Mof_O 	O 	0.5686	0.2493	0.4138	-0.5
Mof_O 	O 	0.1889	0.0641	0.8448	-0.464
Mof_O 	O 	0.0672	0.1034	0.6345	-0.467
Mof_O 	O 	0.18	0.9445	0.6949	-0.405
Mof_O 	O 	0.3268	0.0906	0.6962	-0.443
Mof_O 	O 	0.569	0.1483	0.5892	-0.427
Mof_H 	H 	0.1937	0.9318	0.6239	0.23
_end
