data_functionalizedCrystal
_audit_creation_method	'EQeq! by Chris Wilmer'
_symmetry_space_group_name_H-M	'P1'
_symmetry_Int_Tables_number	1
_symmetry_cell_setting	triclinic
loop_
_symmetry_equiv_pos_as_xyz
  x,y,z
_cell_length_a	17.1238
_cell_length_b	20.115
_cell_length_c	27.1291
_cell_angle_alpha	90
_cell_angle_beta	90
_cell_angle_gamma	90
loop_
_atom_site_label
_atom_site_type_symbol
_atom_site_fract_x
_atom_site_fract_y
_atom_site_fract_z
_atom_site_charge
Mof_Zn	Zn	0.26005	0.82862	0.59043	1.217
Mof_Zn	Zn	0.23995	0.17138	0.09043	1.217
Mof_Zn	Zn	0.26005	0.67138	0.59043	1.217
Mof_Zn	Zn	0.23995	0.32862	0.09043	1.217
Mof_Zn	Zn	0.38628	0.75	0.64912	1.214
Mof_Zn	Zn	0.39455	0.75	0.53265	1.21
Mof_Zn	Zn	0.11372	0.25	0.14912	1.214
Mof_Zn	Zn	0.10545	0.25	0.03265	1.21
Mof_H 	H 	0.2137	0.971	0.4786	0.063
Mof_H 	H 	0.349	0.8512	0.403	0.05
Mof_H 	H 	0.3155	0.9048	0.3321	0.024
Mof_H 	H 	0.141	0.0571	0.3385	0.146
Mof_H 	H 	0.3155	0.9773	0.2748	0.148
Mof_H 	H 	0.1245	0.1256	0.2723	-0.047
Mof_H 	H 	0.2819	0.0271	0.2038	-0.05
Mof_H 	H 	0.8826	0.8471	0.6033	0.074
Mof_H 	H 	0.015	0.8458	0.5996	0.008
Mof_H 	H 	0.2863	0.029	0.9786	0.062
Mof_H 	H 	0.151	0.1488	0.903	0.049
Mof_H 	H 	0.1845	0.0952	0.8321	0.023
Mof_H 	H 	0.359	0.9429	0.8385	0.145
Mof_H 	H 	0.1845	0.0227	0.7748	0.149
Mof_H 	H 	0.3755	0.8744	0.7723	-0.047
Mof_H 	H 	0.2181	0.9729	0.7038	-0.05
Mof_H 	H 	0.6174	0.1529	0.1033	0.072
Mof_H 	H 	0.485	0.1542	0.0996	0.01
Mof_H 	H 	0.2137	0.529	0.4786	0.062
Mof_H 	H 	0.349	0.6488	0.403	0.049
Mof_H 	H 	0.3155	0.5952	0.3321	0.023
Mof_H 	H 	0.141	0.4429	0.3385	0.145
Mof_H 	H 	0.3155	0.5227	0.2748	0.148
Mof_H 	H 	0.1245	0.3744	0.2723	-0.047
Mof_H 	H 	0.2819	0.4729	0.2038	-0.05
Mof_H 	H 	0.8826	0.6529	0.6033	0.074
Mof_H 	H 	0.015	0.6542	0.5996	0.008
Mof_H 	H 	0.2863	0.471	0.9786	0.062
Mof_H 	H 	0.151	0.3512	0.903	0.049
Mof_H 	H 	0.1845	0.4048	0.8321	0.023
Mof_H 	H 	0.359	0.5571	0.8385	0.145
Mof_H 	H 	0.1845	0.4773	0.7748	0.148
Mof_H 	H 	0.3755	0.6256	0.7723	-0.047
Mof_H 	H 	0.2181	0.5271	0.7038	-0.05
Mof_H 	H 	0.6174	0.3471	0.1033	0.072
Mof_H 	H 	0.485	0.3458	0.0996	0.01
Mof_H 	H 	0.6374	0.75	0.6731	-0.017
Mof_H 	H 	0.6223	0.75	0.5287	-0.013
Mof_H 	H 	0.7641	0.75	0.5319	0.099
Mof_H 	H 	0.7675	0.75	0.6674	0.12
Mof_H 	H 	0.8626	0.25	0.1731	-0.019
Mof_H 	H 	0.8777	0.25	0.0287	-0.015
Mof_H 	H 	0.7359	0.25	0.0319	0.101
Mof_H 	H 	0.7325	0.25	0.1674	0.122
Mof_C 	C 	0.2979	0.865	0.4942	0.382
Mof_C 	C 	0.2869	0.9066	0.4487	-0.07
Mof_C 	C 	0.2379	0.9582	0.4495	-0.048
Mof_C 	C 	0.3159	0.8877	0.4046	-0.035
Mof_C 	C 	0.2976	0.9212	0.3621	0.001
Mof_C 	C 	0.2234	0.9933	0.4045	0.032
Mof_C 	C 	0.2547	0.977	0.3625	-0.112
Mof_C 	C 	0.2377	0.0147	0.3172	0.269
Mof_C 	C 	0.1771	0.0553	0.3129	-0.335
Mof_C 	C 	0.2744	0.0075	0.2755	-0.348
Mof_C 	C 	0.1653	0.0951	0.2717	0.278
Mof_C 	C 	0.2583	0.0402	0.2331	0.271
Mof_C 	C 	0.2078	0.0918	0.2333	-0.329
Mof_C 	C 	0.1917	0.1312	0.1883	0.474
Mof_C 	C 	0.9081	0.8065	0.6006	-0.133
Mof_C 	C 	0.9881	0.8057	0.5985	0.106
Mof_C 	C 	0.2021	0.135	0.9942	0.382
Mof_C 	C 	0.2131	0.0934	0.9487	-0.07
Mof_C 	C 	0.2621	0.0418	0.9495	-0.048
Mof_C 	C 	0.1841	0.1123	0.9046	-0.035
Mof_C 	C 	0.2024	0.0788	0.8621	0.001
Mof_C 	C 	0.2766	0.0067	0.9045	0.032
Mof_C 	C 	0.2453	0.023	0.8625	-0.112
Mof_C 	C 	0.2623	0.9853	0.8172	0.269
Mof_C 	C 	0.3229	0.9447	0.8129	-0.335
Mof_C 	C 	0.2256	0.9925	0.7755	-0.349
Mof_C 	C 	0.3347	0.9049	0.7717	0.278
Mof_C 	C 	0.2417	0.9598	0.7331	0.271
Mof_C 	C 	0.2922	0.9082	0.7333	-0.33
Mof_C 	C 	0.3083	0.8688	0.6883	0.474
Mof_C 	C 	0.5919	0.1935	0.1006	-0.127
Mof_C 	C 	0.5119	0.1943	0.0985	0.099
Mof_C 	C 	0.2979	0.635	0.4942	0.382
Mof_C 	C 	0.2869	0.5934	0.4487	-0.07
Mof_C 	C 	0.2379	0.5418	0.4495	-0.048
Mof_C 	C 	0.3159	0.6123	0.4046	-0.035
Mof_C 	C 	0.2976	0.5788	0.3621	0.001
Mof_C 	C 	0.2234	0.5067	0.4045	0.032
Mof_C 	C 	0.2547	0.523	0.3625	-0.112
Mof_C 	C 	0.2377	0.4853	0.3172	0.268
Mof_C 	C 	0.1771	0.4447	0.3129	-0.335
Mof_C 	C 	0.2744	0.4925	0.2755	-0.347
Mof_C 	C 	0.1653	0.4049	0.2717	0.277
Mof_C 	C 	0.2583	0.4598	0.2331	0.271
Mof_C 	C 	0.2078	0.4082	0.2333	-0.329
Mof_C 	C 	0.1917	0.3688	0.1883	0.474
Mof_C 	C 	0.9081	0.6935	0.6006	-0.133
Mof_C 	C 	0.9881	0.6943	0.5985	0.105
Mof_C 	C 	0.2021	0.365	0.9942	0.382
Mof_C 	C 	0.2131	0.4066	0.9487	-0.07
Mof_C 	C 	0.2621	0.4582	0.9495	-0.048
Mof_C 	C 	0.1841	0.3877	0.9046	-0.035
Mof_C 	C 	0.2024	0.4212	0.8621	0.001
Mof_C 	C 	0.2766	0.4933	0.9045	0.032
Mof_C 	C 	0.2453	0.477	0.8625	-0.112
Mof_C 	C 	0.2623	0.5147	0.8172	0.268
Mof_C 	C 	0.3229	0.5553	0.8129	-0.335
Mof_C 	C 	0.2256	0.5075	0.7755	-0.347
Mof_C 	C 	0.3347	0.5951	0.7717	0.277
Mof_C 	C 	0.2417	0.5402	0.7331	0.271
Mof_C 	C 	0.2922	0.5918	0.7333	-0.329
Mof_C 	C 	0.3083	0.6312	0.6883	0.474
Mof_C 	C 	0.5919	0.3065	0.1006	-0.127
Mof_C 	C 	0.5119	0.3057	0.0985	0.099
Mof_C 	C 	0.529	0.75	0.6043	0.47
Mof_C 	C 	0.6188	0.75	0.6015	-0.231
Mof_C 	C 	0.6611	0.75	0.6423	0.183
Mof_C 	C 	0.6501	0.75	0.5581	0.139
Mof_C 	C 	0.7378	0.75	0.5619	-0.205
Mof_C 	C 	0.7397	0.75	0.6379	-0.246
Mof_C 	C 	0.7805	0.75	0.5991	0.16
Mof_C 	C 	0.865	0.75	0.599	0.022
Mof_C 	C 	0.0282	0.75	0.5948	-0.204
Mof_C 	C 	0.1153	0.75	0.5941	0.484
Mof_C 	C 	0.971	0.25	0.1043	0.471
Mof_C 	C 	0.8812	0.25	0.1015	-0.235
Mof_C 	C 	0.8389	0.25	0.1423	0.189
Mof_C 	C 	0.8499	0.25	0.0581	0.143
Mof_C 	C 	0.7622	0.25	0.0619	-0.21
Mof_C 	C 	0.7603	0.25	0.1379	-0.253
Mof_C 	C 	0.7195	0.25	0.0991	0.167
Mof_C 	C 	0.635	0.25	0.099	0.015
Mof_C 	C 	0.4718	0.25	0.0948	-0.198
Mof_C 	C 	0.3847	0.25	0.0941	0.482
Mof_O 	O 	0.264	0.8838	0.53249	-0.499
Mof_O 	O 	0.353	0.8239	0.4929	-0.517
Mof_O 	O 	0.2316	0.1202	0.15008	-0.528
Mof_O 	O 	0.1413	0.1761	0.19294	-0.517
Mof_O 	O 	0.1483	0.8038	0.5928	-0.524
Mof_O 	O 	0.236	0.1162	0.03249	-0.499
Mof_O 	O 	0.147	0.1761	0.9929	-0.517
Mof_O 	O 	0.2684	0.8798	0.65008	-0.528
Mof_O 	O 	0.3587	0.8239	0.69294	-0.517
Mof_O 	O 	0.3517	0.1962	0.0928	-0.523
Mof_O 	O 	0.264	0.6162	0.53249	-0.499
Mof_O 	O 	0.353	0.6761	0.4929	-0.517
Mof_O 	O 	0.2316	0.3798	0.15008	-0.528
Mof_O 	O 	0.1413	0.3239	0.19294	-0.517
Mof_O 	O 	0.1483	0.6962	0.5928	-0.523
Mof_O 	O 	0.236	0.3838	0.03249	-0.499
Mof_O 	O 	0.147	0.3239	0.9929	-0.517
Mof_O 	O 	0.2684	0.6202	0.65008	-0.528
Mof_O 	O 	0.3587	0.6761	0.69294	-0.517
Mof_O 	O 	0.3517	0.3038	0.0928	-0.523
Mof_O 	O 	0.4983	0.75	0.6446	-0.532
Mof_O 	O 	0.4946	0.75	0.5635	-0.579
Mof_O 	O 	0.3234	0.75	0.59054	-0.965
Mof_O 	O 	0.0017	0.25	0.1446	-0.532
Mof_O 	O 	0.0054	0.25	0.0635	-0.579
Mof_O 	O 	0.1766	0.25	0.09054	-0.965
Mof_Zn	Zn	0.73995	0.32862	0.40957	1.216
Mof_Zn	Zn	0.76005	0.67138	0.90957	1.216
Mof_Zn	Zn	0.73995	0.17138	0.40957	1.216
Mof_Zn	Zn	0.76005	0.82862	0.90957	1.216
Mof_Zn	Zn	0.61372	0.25	0.35088	1.213
Mof_Zn	Zn	0.60545	0.25	0.46735	1.209
Mof_Zn	Zn	0.88628	0.75	0.85088	1.213
Mof_Zn	Zn	0.89455	0.75	0.96735	1.209
Mof_H 	H 	0.7863	0.471	0.5214	0.062
Mof_H 	H 	0.651	0.3512	0.597	0.049
Mof_H 	H 	0.6845	0.4048	0.6679	0.023
Mof_H 	H 	0.859	0.5571	0.6615	0.145
Mof_H 	H 	0.6845	0.4773	0.7252	0.148
Mof_H 	H 	0.8755	0.6256	0.7277	-0.047
Mof_H 	H 	0.7181	0.5271	0.7962	-0.05
Mof_H 	H 	0.1174	0.3471	0.3967	0.074
Mof_H 	H 	0.985	0.3458	0.4004	0.008
Mof_H 	H 	0.7137	0.529	0.0214	0.062
Mof_H 	H 	0.849	0.6488	0.097	0.049
Mof_H 	H 	0.8155	0.5952	0.1679	0.023
Mof_H 	H 	0.641	0.4429	0.1615	0.145
Mof_H 	H 	0.8155	0.5227	0.2252	0.148
Mof_H 	H 	0.6245	0.3744	0.2277	-0.047
Mof_H 	H 	0.7819	0.4729	0.2962	-0.05
Mof_H 	H 	0.3826	0.6529	0.8967	0.072
Mof_H 	H 	0.515	0.6542	0.9004	0.01
Mof_H 	H 	0.7863	0.029	0.5214	0.062
Mof_H 	H 	0.651	0.1488	0.597	0.049
Mof_H 	H 	0.6845	0.0952	0.6679	0.023
Mof_H 	H 	0.859	0.9429	0.6615	0.145
Mof_H 	H 	0.6845	0.0227	0.7252	0.148
Mof_H 	H 	0.8755	0.8744	0.7277	-0.047
Mof_H 	H 	0.7181	0.9729	0.7962	-0.05
Mof_H 	H 	0.1174	0.1529	0.3967	0.074
Mof_H 	H 	0.985	0.1542	0.4004	0.008
Mof_H 	H 	0.7137	0.971	0.0214	0.062
Mof_H 	H 	0.849	0.8512	0.097	0.049
Mof_H 	H 	0.8155	0.9048	0.1679	0.023
Mof_H 	H 	0.641	0.0571	0.1615	0.145
Mof_H 	H 	0.8155	0.9773	0.2252	0.149
Mof_H 	H 	0.6245	0.1256	0.2277	-0.047
Mof_H 	H 	0.7819	0.0271	0.2962	-0.05
Mof_H 	H 	0.3826	0.8471	0.8967	0.072
Mof_H 	H 	0.515	0.8458	0.9004	0.01
Mof_H 	H 	0.3626	0.25	0.3269	-0.017
Mof_H 	H 	0.3777	0.25	0.4713	-0.013
Mof_H 	H 	0.2359	0.25	0.4681	0.099
Mof_H 	H 	0.2325	0.25	0.3326	0.12
Mof_H 	H 	0.1374	0.75	0.8269	-0.019
Mof_H 	H 	0.1223	0.75	0.9713	-0.015
Mof_H 	H 	0.2641	0.75	0.9681	0.101
Mof_H 	H 	0.2675	0.75	0.8326	0.122
Mof_C 	C 	0.7021	0.365	0.5058	0.382
Mof_C 	C 	0.7131	0.4066	0.5513	-0.07
Mof_C 	C 	0.7621	0.4582	0.5505	-0.048
Mof_C 	C 	0.6841	0.3877	0.5954	-0.035
Mof_C 	C 	0.7024	0.4212	0.6379	0.001
Mof_C 	C 	0.7766	0.4933	0.5955	0.032
Mof_C 	C 	0.7453	0.477	0.6375	-0.112
Mof_C 	C 	0.7623	0.5147	0.6828	0.268
Mof_C 	C 	0.8229	0.5553	0.6871	-0.335
Mof_C 	C 	0.7256	0.5075	0.7245	-0.347
Mof_C 	C 	0.8347	0.5951	0.7283	0.277
Mof_C 	C 	0.7417	0.5402	0.7669	0.271
Mof_C 	C 	0.7922	0.5918	0.7667	-0.329
Mof_C 	C 	0.8083	0.6312	0.8117	0.474
Mof_C 	C 	0.0919	0.3065	0.3994	-0.133
Mof_C 	C 	0.0119	0.3057	0.4015	0.105
Mof_C 	C 	0.7979	0.635	0.0058	0.382
Mof_C 	C 	0.7869	0.5934	0.0513	-0.07
Mof_C 	C 	0.7379	0.5418	0.0505	-0.048
Mof_C 	C 	0.8159	0.6123	0.0954	-0.035
Mof_C 	C 	0.7976	0.5788	0.1379	0.001
Mof_C 	C 	0.7234	0.5067	0.0955	0.032
Mof_C 	C 	0.7547	0.523	0.1375	-0.112
Mof_C 	C 	0.7377	0.4853	0.1828	0.268
Mof_C 	C 	0.6771	0.4447	0.1871	-0.335
Mof_C 	C 	0.7744	0.4925	0.2245	-0.347
Mof_C 	C 	0.6653	0.4049	0.2283	0.277
Mof_C 	C 	0.7583	0.4598	0.2669	0.271
Mof_C 	C 	0.7078	0.4082	0.2667	-0.329
Mof_C 	C 	0.6917	0.3688	0.3117	0.474
Mof_C 	C 	0.4081	0.6935	0.8994	-0.127
Mof_C 	C 	0.4881	0.6943	0.9015	0.099
Mof_C 	C 	0.7021	0.135	0.5058	0.382
Mof_C 	C 	0.7131	0.0934	0.5513	-0.07
Mof_C 	C 	0.7621	0.0418	0.5505	-0.048
Mof_C 	C 	0.6841	0.1123	0.5954	-0.035
Mof_C 	C 	0.7024	0.0788	0.6379	0.001
Mof_C 	C 	0.7766	0.0067	0.5955	0.032
Mof_C 	C 	0.7453	0.023	0.6375	-0.112
Mof_C 	C 	0.7623	0.9853	0.6828	0.269
Mof_C 	C 	0.8229	0.9447	0.6871	-0.335
Mof_C 	C 	0.7256	0.9925	0.7245	-0.348
Mof_C 	C 	0.8347	0.9049	0.7283	0.278
Mof_C 	C 	0.7417	0.9598	0.7669	0.271
Mof_C 	C 	0.7922	0.9082	0.7667	-0.329
Mof_C 	C 	0.8083	0.8688	0.8117	0.474
Mof_C 	C 	0.0919	0.1935	0.3994	-0.133
Mof_C 	C 	0.0119	0.1943	0.4015	0.106
Mof_C 	C 	0.7979	0.865	0.0058	0.382
Mof_C 	C 	0.7869	0.9066	0.0513	-0.07
Mof_C 	C 	0.7379	0.9582	0.0505	-0.048
Mof_C 	C 	0.8159	0.8877	0.0954	-0.035
Mof_C 	C 	0.7976	0.9212	0.1379	0.001
Mof_C 	C 	0.7234	0.9933	0.0955	0.032
Mof_C 	C 	0.7547	0.977	0.1375	-0.112
Mof_C 	C 	0.7377	0.0147	0.1828	0.269
Mof_C 	C 	0.6771	0.0553	0.1871	-0.335
Mof_C 	C 	0.7744	0.0075	0.2245	-0.349
Mof_C 	C 	0.6653	0.0951	0.2283	0.278
Mof_C 	C 	0.7583	0.0402	0.2669	0.271
Mof_C 	C 	0.7078	0.0918	0.2667	-0.33
Mof_C 	C 	0.6917	0.1312	0.3117	0.474
Mof_C 	C 	0.4081	0.8065	0.8994	-0.127
Mof_C 	C 	0.4881	0.8057	0.9015	0.099
Mof_C 	C 	0.471	0.25	0.3957	0.47
Mof_C 	C 	0.3812	0.25	0.3985	-0.231
Mof_C 	C 	0.3389	0.25	0.3577	0.183
Mof_C 	C 	0.3499	0.25	0.4419	0.139
Mof_C 	C 	0.2622	0.25	0.4381	-0.205
Mof_C 	C 	0.2603	0.25	0.3621	-0.246
Mof_C 	C 	0.2195	0.25	0.4009	0.16
Mof_C 	C 	0.135	0.25	0.401	0.022
Mof_C 	C 	0.9718	0.25	0.4052	-0.204
Mof_C 	C 	0.8847	0.25	0.4059	0.484
Mof_C 	C 	0.029	0.75	0.8957	0.471
Mof_C 	C 	0.1188	0.75	0.8985	-0.235
Mof_C 	C 	0.1611	0.75	0.8577	0.189
Mof_C 	C 	0.1501	0.75	0.9419	0.143
Mof_C 	C 	0.2378	0.75	0.9381	-0.21
Mof_C 	C 	0.2397	0.75	0.8621	-0.253
Mof_C 	C 	0.2805	0.75	0.9009	0.167
Mof_C 	C 	0.365	0.75	0.901	0.015
Mof_C 	C 	0.5282	0.75	0.9052	-0.198
Mof_C 	C 	0.6153	0.75	0.9059	0.482
Mof_O 	O 	0.736	0.3838	0.46751	-0.499
Mof_O 	O 	0.647	0.3239	0.5071	-0.517
Mof_O 	O 	0.7684	0.6202	0.84992	-0.528
Mof_O 	O 	0.8587	0.6761	0.80706	-0.517
Mof_O 	O 	0.8517	0.3038	0.4072	-0.523
Mof_O 	O 	0.764	0.6162	0.96751	-0.499
Mof_O 	O 	0.853	0.6761	0.0071	-0.517
Mof_O 	O 	0.7316	0.3798	0.34992	-0.528
Mof_O 	O 	0.6413	0.3239	0.30706	-0.517
Mof_O 	O 	0.6483	0.6962	0.9072	-0.523
Mof_O 	O 	0.736	0.1162	0.46751	-0.499
Mof_O 	O 	0.647	0.1761	0.5071	-0.517
Mof_O 	O 	0.7684	0.8798	0.84992	-0.528
Mof_O 	O 	0.8587	0.8239	0.80706	-0.517
Mof_O 	O 	0.8517	0.1962	0.4072	-0.524
Mof_O 	O 	0.764	0.8838	0.96751	-0.499
Mof_O 	O 	0.853	0.8239	0.0071	-0.517
Mof_O 	O 	0.7316	0.1202	0.34992	-0.528
Mof_O 	O 	0.6413	0.1761	0.30706	-0.517
Mof_O 	O 	0.6483	0.8038	0.9072	-0.523
Mof_O 	O 	0.5017	0.25	0.3554	-0.532
Mof_O 	O 	0.5054	0.25	0.4365	-0.579
Mof_O 	O 	0.6766	0.25	0.40946	-0.965
Mof_O 	O 	0.9983	0.75	0.8554	-0.532
Mof_O 	O 	0.9946	0.75	0.9365	-0.579
Mof_O 	O 	0.8234	0.75	0.90946	-0.965
_end
