data_functionalizedCrystal
_audit_creation_method	'EQeq! by Chris Wilmer'
_symmetry_space_group_name_H-M	'P1'
_symmetry_Int_Tables_number	1
_symmetry_cell_setting	triclinic
loop_
_symmetry_equiv_pos_as_xyz
  x,y,z
_cell_length_a	12.868
_cell_length_b	13.351
_cell_length_c	10.526
_cell_angle_alpha	90
_cell_angle_beta	104.39
_cell_angle_gamma	90
loop_
_atom_site_label
_atom_site_type_symbol
_atom_site_fract_x
_atom_site_fract_y
_atom_site_fract_z
_atom_site_charge
Mof_O 	O 	0.6094	0.4691	0.2394	-0.473
Mof_O 	O 	0.6043	0.5623	0.4165	-0.408
Mof_N 	N 	0.8777	0.7462	0.2542	-0.18
Mof_N 	N 	0.5437	0.6356	0.9561	-0.218
Mof_N 	N 	0.5372	0.708	0.0221	-0.086
Mof_N 	N 	0.5312	0.7763	0.0844	-0.072
Mof_C 	C 	0.7192	0.6138	0.2875	-0.039
Mof_C 	C 	0.7881	0.5888	0.2124	-0.056
Mof_H 	H 	0.7837	0.5263	0.1722	0.068
Mof_C 	C 	0.8646	0.6577	0.197	0.069
Mof_H 	H 	0.9092	0.6404	0.1432	0.041
Mof_C 	C 	0.6374	0.5419	0.3163	0.361
Mof_C 	C 	0.8074	0.7724	0.3234	0.06
Mof_H 	H 	0.8123	0.8361	0.3603	0.038
Mof_C 	C 	0.7285	0.7089	0.3416	-0.047
Mof_H 	H 	0.6813	0.7297	0.3904	0.076
Mof_O 	O 	0.1094	0.9691	0.2394	-0.43
Mof_O 	O 	0.1043	0.0623	0.4165	-0.456
Mof_N 	N 	0.3777	0.2462	0.2542	-0.228
Mof_N 	N 	0.0437	0.1356	0.9561	-0.261
Mof_N 	N 	0.0372	0.208	0.0221	-0.123
Mof_N 	N 	0.0312	0.2763	0.0844	-0.146
Mof_C 	C 	0.2192	0.1138	0.2875	-0.045
Mof_C 	C 	0.2881	0.0888	0.2124	-0.082
Mof_H 	H 	0.2837	0.0263	0.1722	0.033
Mof_C 	C 	0.3646	0.1577	0.197	0.05
Mof_H 	H 	0.4092	0.1404	0.1432	-0.013
Mof_C 	C 	0.1374	0.0419	0.3163	0.262
Mof_C 	C 	0.3074	0.2724	0.3234	0.033
Mof_H 	H 	0.3123	0.3361	0.3603	0.011
Mof_C 	C 	0.2285	0.2089	0.3416	-0.059
Mof_H 	H 	0.1813	0.2297	0.3904	0.045
Mof_O 	O 	0.3906	0.4691	0.2606	-0.475
Mof_O 	O 	0.3957	0.5623	0.0835	-0.435
Mof_N 	N 	0.1223	0.7462	0.2458	-0.25
Mof_N 	N 	0.4563	0.6356	0.5439	-0.267
Mof_N 	N 	0.4628	0.708	0.4779	-0.044
Mof_N 	N 	0.4688	0.7763	0.4156	-0.062
Mof_C 	C 	0.2808	0.6138	0.2125	-0.06
Mof_C 	C 	0.2119	0.5888	0.2876	-0.077
Mof_H 	H 	0.2163	0.5263	0.3278	0.048
Mof_C 	C 	0.1354	0.6577	0.303	0.035
Mof_H 	H 	0.0908	0.6404	0.3568	-0.028
Mof_C 	C 	0.3626	0.5419	0.1837	0.355
Mof_C 	C 	0.1926	0.7724	0.1766	0.016
Mof_H 	H 	0.1877	0.8361	0.1397	0.005
Mof_C 	C 	0.2715	0.7089	0.1584	-0.058
Mof_H 	H 	0.3187	0.7297	0.1096	0.061
Mof_O 	O 	0.8906	0.9691	0.2606	-0.306
Mof_O 	O 	0.8957	0.0623	0.0835	-0.332
Mof_N 	N 	0.6223	0.2462	0.2458	-0.234
Mof_N 	N 	0.9563	0.1356	0.5439	-0.189
Mof_N 	N 	0.9628	0.208	0.4779	-0.008
Mof_N 	N 	0.9688	0.2763	0.4156	-0.002
Mof_C 	C 	0.7808	0.1138	0.2125	0.005
Mof_C 	C 	0.7119	0.0888	0.2876	-0.106
Mof_H 	H 	0.7163	0.0263	0.3278	0.055
Mof_C 	C 	0.6354	0.1577	0.303	0.068
Mof_H 	H 	0.5908	0.1404	0.3568	-0.003
Mof_C 	C 	0.8626	0.0419	0.1837	0.249
Mof_C 	C 	0.6926	0.2724	0.1766	0.061
Mof_H 	H 	0.6877	0.3361	0.1397	0.001
Mof_C 	C 	0.7715	0.2089	0.1584	-0.099
Mof_H 	H 	0.8187	0.2297	0.1096	0.103
Mof_O 	O 	0.3906	0.5309	0.7606	-0.46
Mof_O 	O 	0.3957	0.4377	0.5835	-0.412
Mof_N 	N 	0.1223	0.2538	0.7458	-0.247
Mof_N 	N 	0.4563	0.3644	0.0439	-0.31
Mof_N 	N 	0.4628	0.292	0.9779	-0.001
Mof_N 	N 	0.4688	0.2237	0.9156	-0.066
Mof_C 	C 	0.2808	0.3862	0.7125	-0.042
Mof_C 	C 	0.2119	0.4112	0.7876	-0.076
Mof_H 	H 	0.2163	0.4737	0.8278	0.064
Mof_C 	C 	0.1354	0.3423	0.803	0.046
Mof_H 	H 	0.0908	0.3596	0.8568	-0.014
Mof_C 	C 	0.3626	0.4581	0.6837	0.351
Mof_C 	C 	0.1926	0.2276	0.6766	0.03
Mof_H 	H 	0.1877	0.1639	0.6397	0.001
Mof_C 	C 	0.2715	0.2911	0.6584	-0.063
Mof_H 	H 	0.3187	0.2703	0.6096	0.072
Mof_O 	O 	0.8906	0.0309	0.7606	-0.433
Mof_O 	O 	0.8957	0.9377	0.5835	-0.307
Mof_N 	N 	0.6223	0.7538	0.7458	-0.223
Mof_N 	N 	0.9563	0.8644	0.0439	-0.208
Mof_N 	N 	0.9628	0.792	0.9779	0.031
Mof_N 	N 	0.9688	0.7237	0.9156	0.009
Mof_C 	C 	0.7808	0.8862	0.7125	-0.014
Mof_C 	C 	0.7119	0.9112	0.7876	-0.065
Mof_H 	H 	0.7163	0.9737	0.8278	0.103
Mof_C 	C 	0.6354	0.8423	0.803	0.074
Mof_H 	H 	0.5908	0.8596	0.8568	0.029
Mof_C 	C 	0.8626	0.9581	0.6837	0.413
Mof_C 	C 	0.6926	0.7276	0.6766	0.065
Mof_H 	H 	0.6877	0.6639	0.6397	0.017
Mof_C 	C 	0.7715	0.7911	0.6584	-0.066
Mof_H 	H 	0.8187	0.7703	0.6096	0.109
Mof_O 	O 	0.6094	0.5309	0.7394	-0.46
Mof_O 	O 	0.6043	0.4377	0.9165	-0.372
Mof_N 	N 	0.8777	0.2538	0.7542	-0.176
Mof_N 	N 	0.5437	0.3644	0.4561	-0.267
Mof_N 	N 	0.5372	0.292	0.5221	-0.045
Mof_N 	N 	0.5312	0.2237	0.5844	-0.076
Mof_C 	C 	0.7192	0.3862	0.7875	-0.022
Mof_C 	C 	0.7881	0.4112	0.7124	-0.056
Mof_H 	H 	0.7837	0.4737	0.6722	0.082
Mof_C 	C 	0.8646	0.3423	0.697	0.079
Mof_H 	H 	0.9092	0.3596	0.6432	0.054
Mof_C 	C 	0.6374	0.4581	0.8163	0.354
Mof_C 	C 	0.8074	0.2276	0.8234	0.075
Mof_H 	H 	0.8123	0.1639	0.8603	0.037
Mof_C 	C 	0.7285	0.2911	0.8416	-0.052
Mof_H 	H 	0.6813	0.2703	0.8904	0.088
Mof_O 	O 	0.1094	0.0309	0.7394	-0.574
Mof_O 	O 	0.1043	0.9377	0.9165	-0.418
Mof_N 	N 	0.3777	0.7538	0.7542	-0.216
Mof_N 	N 	0.0437	0.8644	0.4561	-0.29
Mof_N 	N 	0.0372	0.792	0.5221	-0.075
Mof_N 	N 	0.0312	0.7237	0.5844	-0.132
Mof_C 	C 	0.2192	0.8862	0.7875	-0.068
Mof_C 	C 	0.2881	0.9112	0.7124	-0.038
Mof_H 	H 	0.2837	0.9737	0.6722	0.085
Mof_C 	C 	0.3646	0.8423	0.697	0.055
Mof_H 	H 	0.4092	0.8596	0.6432	0.021
Mof_C 	C 	0.1374	0.9581	0.8163	0.442
Mof_C 	C 	0.3074	0.7276	0.8234	0.036
Mof_H 	H 	0.3123	0.6639	0.8603	0.029
Mof_C 	C 	0.2285	0.7911	0.8416	-0.024
Mof_H 	H 	0.1813	0.7703	0.8904	0.051
Mof_Cu	Cu	0.5	0.5	-0	0.874
Mof_Cu	Cu	-0	0	-0	0.755
Mof_Cu	Cu	0.5	0.5	0.5	0.906
Mof_Cu	Cu	1.91461e-33	0	0.5	0.787
Mof_Co	Co	9.57304e-34	0.85321	0.25	1.054
Mof_Co	Co	0.5	0.35321	0.25	1.139
Mof_Co	Co	3.24516e-17	0.14679	0.75	1.055
Mof_Co	Co	0.5	0.64679	0.75	1.144
_end
