data_functionalizedCrystal
_audit_creation_method	'EQeq! by Chris Wilmer'
_symmetry_space_group_name_H-M	'P1'
_symmetry_Int_Tables_number	1
_symmetry_cell_setting	triclinic
loop_
_symmetry_equiv_pos_as_xyz
  x,y,z
_cell_length_a	30.379
_cell_length_b	8.9963
_cell_length_c	20.1175
_cell_angle_alpha	90
_cell_angle_beta	107.423
_cell_angle_gamma	90
loop_
_atom_site_label
_atom_site_type_symbol
_atom_site_fract_x
_atom_site_fract_y
_atom_site_fract_z
_atom_site_charge
Mof_Tb	Tb	0.24979	0.97329	0.07254	1.887
Mof_O 	O 	0.182	0.8768	0.9982	-0.571
Mof_O 	O 	0.8062	0.9692	0.8654	-0.483
Mof_O 	O 	0.3165	0.0249	0.1813	-0.433
Mof_O 	O 	0.3002	0.184	0.0961	-0.462
Mof_O 	O 	0.8043	0.8172	0.9507	-0.448
Mof_O 	O 	0.1959	0.6573	0.9582	-0.632
Mof_C 	C 	0.3734	0.2098	0.1804	-0.215
Mof_C 	C 	0.3273	0.137	0.1526	0.373
Mof_C 	C 	0.1191	0.724	0.9456	-0.306
Mof_C 	C 	0.4052	0.1595	0.2397	0.176
Mof_H 	H 	0.3979	0.0803	0.2642	-0.021
Mof_C 	C 	0.8241	0.8682	0.9075	0.455
Mof_C 	C 	0.1695	0.7547	0.9689	0.564
Mof_C 	C 	0.3848	0.3288	0.1435	0.166
Mof_H 	H 	0.3633	0.3623	0.103	-0.011
Mof_C 	C 	0.0878	0.7955	0.9701	0.259
Mof_H 	H 	0.0978	0.8722	0.0021	-0.054
Mof_C 	C 	0.4273	0.3967	0.1662	-0.296
Mof_H 	H 	0.4348	0.475	0.1414	0.146
Mof_C 	C 	0.4589	0.3445	0.2278	0.314
Mof_C 	C 	0.4486	0.2265	0.2636	-0.316
Mof_H 	H 	0.4703	0.1913	0.3036	0.153
Mof_C 	C 	0.0412	0.7576	0.9488	-0.388
Mof_H 	H 	0.0212	0.7851	0.9738	0.11
Mof_C 	C 	0.1018	0.642	0.88	0.142
Mof_H 	H 	0.122	0.6112	0.856	-0.022
Mof_O 	O 	0.9804	0.625	0.8565	-0.292
Mof_C 	C 	0.0257	0.67	0.883	0.224
Mof_C 	C 	0.9297	0.829	0.8438	-0.873
Mof_H 	H 	0.9444	0.8756	0.8151	0.254
Mof_C 	C 	0.9468	0.6958	0.8764	0.277
Mof_C 	C 	0.9248	0.6261	0.9193	0.136
Mof_H 	H 	0.9362	0.537	0.9411	0.215
Mof_C 	C 	0.8857	0.6897	0.9298	0.337
Mof_H 	H 	0.871	0.6431	0.9585	-0.095
Mof_C 	C 	0.8686	0.823	0.8972	-0.148
Mof_C 	C 	0.8906	0.8926	0.8543	0.05
Mof_H 	H 	0.8791	0.9818	0.8325	0.129
Mof_C 	C 	0.0563	0.611	0.8546	-0.222
Mof_H 	H 	0.046	0.5481	0.8165	0.12
Mof_H 	H 	0.0189	0.8277	0.9497	0.096
Mof_C 	C 	0.1056	0.572	0.9252	0.044
Mof_H 	H 	0.128	0.5046	0.9215	0.008
Mof_C 	C 	0.0603	0.524	0.9109	-0.138
Mof_H 	H 	0.0513	0.4316	0.891	0.094
Mof_C 	C 	0.0289	0.617	0.9268	0.138
Mof_O 	O 	0.9856	0.556	0.9127	-0.141
Mof_C 	C 	0.9502	0.6397	0.9177	-0.169
Mof_C 	C 	0.9271	0.6016	0.9654	-0.543
Mof_H 	H 	0.9384	0.5259	0.9975	0.2
Mof_C 	C 	0.8871	0.6766	0.9652	0.018
Mof_H 	H 	0.8716	0.6512	0.9971	0.079
Mof_C 	C 	0.8701	0.7898	0.9173	-0.358
Mof_C 	C 	0.8932	0.8279	0.8697	0.553
Mof_H 	H 	0.8818	0.9036	0.8376	-0.209
Mof_C 	C 	0.9332	0.753	0.8699	-0.048
Mof_H 	H 	0.9486	0.7783	0.8379	0.348
Mof_Tb	Tb	0.74979	0.47329	0.07254	1.9
Mof_O 	O 	0.682	0.3768	0.9982	-0.572
Mof_O 	O 	0.3062	0.4692	0.8654	-0.484
Mof_O 	O 	0.8165	0.5249	0.1813	-0.436
Mof_O 	O 	0.8002	0.684	0.0961	-0.464
Mof_O 	O 	0.3043	0.3172	0.9507	-0.45
Mof_O 	O 	0.6959	0.1573	0.9582	-0.631
Mof_C 	C 	0.8734	0.7098	0.1804	-0.212
Mof_C 	C 	0.8273	0.637	0.1526	0.372
Mof_C 	C 	0.6191	0.224	0.9456	-0.298
Mof_C 	C 	0.9052	0.6595	0.2397	0.169
Mof_H 	H 	0.8979	0.5803	0.2642	-0.02
Mof_C 	C 	0.3241	0.3682	0.9075	0.456
Mof_C 	C 	0.6695	0.2547	0.9689	0.561
Mof_C 	C 	0.8848	0.8288	0.1435	0.16
Mof_H 	H 	0.8633	0.8623	0.103	-0.01
Mof_C 	C 	0.5878	0.2955	0.9701	0.241
Mof_H 	H 	0.5978	0.3722	0.0021	-0.045
Mof_C 	C 	0.9273	0.8967	0.1662	-0.289
Mof_H 	H 	0.9348	0.975	0.1414	0.141
Mof_C 	C 	0.9589	0.8445	0.2278	0.299
Mof_C 	C 	0.9486	0.7265	0.2636	-0.307
Mof_H 	H 	0.9703	0.6913	0.3036	0.147
Mof_C 	C 	0.5412	0.2576	0.9488	-0.371
Mof_H 	H 	0.5212	0.2851	0.9738	0.105
Mof_C 	C 	0.6018	0.142	0.88	0.148
Mof_H 	H 	0.622	0.1112	0.856	-0.025
Mof_O 	O 	0.4804	0.125	0.8565	-0.289
Mof_C 	C 	0.5257	0.17	0.883	0.224
Mof_C 	C 	0.4297	0.329	0.8438	-0.873
Mof_H 	H 	0.4444	0.3756	0.8151	0.255
Mof_C 	C 	0.4468	0.1958	0.8764	0.279
Mof_C 	C 	0.4248	0.1261	0.9193	0.133
Mof_H 	H 	0.4362	0.037	0.9411	0.215
Mof_C 	C 	0.3857	0.1897	0.9298	0.337
Mof_H 	H 	0.371	0.1431	0.9585	-0.096
Mof_C 	C 	0.3686	0.323	0.8972	-0.148
Mof_C 	C 	0.3906	0.3926	0.8543	0.05
Mof_H 	H 	0.3791	0.4818	0.8325	0.129
Mof_C 	C 	0.5563	0.111	0.8546	-0.228
Mof_H 	H 	0.546	0.0481	0.8165	0.119
Mof_H 	H 	0.5189	0.3277	0.9497	0.089
Mof_C 	C 	0.6056	0.072	0.9252	0.032
Mof_H 	H 	0.628	0.0046	0.9215	0.011
Mof_C 	C 	0.5603	0.024	0.9109	-0.129
Mof_H 	H 	0.5513	0.9316	0.891	0.092
Mof_C 	C 	0.5289	0.117	0.9268	0.121
Mof_O 	O 	0.4856	0.056	0.9127	-0.134
Mof_C 	C 	0.4502	0.1397	0.9177	-0.168
Mof_C 	C 	0.4271	0.1016	0.9654	-0.541
Mof_H 	H 	0.4384	0.0259	0.9975	0.2
Mof_C 	C 	0.3871	0.1766	0.9652	0.02
Mof_H 	H 	0.3716	0.1512	0.9971	0.078
Mof_C 	C 	0.3701	0.2898	0.9173	-0.359
Mof_C 	C 	0.3932	0.3279	0.8697	0.554
Mof_H 	H 	0.3818	0.4036	0.8376	-0.21
Mof_C 	C 	0.4332	0.253	0.8699	-0.05
Mof_H 	H 	0.4486	0.2783	0.8379	0.349
Mof_Tb	Tb	0.75021	0.97329	0.42746	1.895
Mof_O 	O 	0.818	0.8768	0.5018	-0.572
Mof_O 	O 	0.1938	0.9692	0.6346	-0.483
Mof_O 	O 	0.6835	0.0249	0.3187	-0.434
Mof_O 	O 	0.6998	0.184	0.4039	-0.463
Mof_O 	O 	0.1957	0.8172	0.5493	-0.449
Mof_O 	O 	0.8041	0.6573	0.5418	-0.631
Mof_C 	C 	0.6266	0.2098	0.3196	-0.216
Mof_C 	C 	0.6727	0.137	0.3474	0.373
Mof_C 	C 	0.8809	0.724	0.5544	-0.294
Mof_C 	C 	0.5948	0.1595	0.2603	0.176
Mof_H 	H 	0.6021	0.0803	0.2358	-0.021
Mof_C 	C 	0.1759	0.8682	0.5925	0.455
Mof_C 	C 	0.8305	0.7547	0.5311	0.56
Mof_C 	C 	0.6152	0.3288	0.3565	0.166
Mof_H 	H 	0.6367	0.3623	0.397	-0.012
Mof_C 	C 	0.9122	0.7955	0.5299	0.236
Mof_H 	H 	0.9022	0.8722	0.4979	-0.045
Mof_C 	C 	0.5727	0.3967	0.3338	-0.297
Mof_H 	H 	0.5652	0.475	0.3586	0.146
Mof_C 	C 	0.5411	0.3445	0.2722	0.314
Mof_C 	C 	0.5514	0.2265	0.2364	-0.316
Mof_H 	H 	0.5297	0.1913	0.1964	0.154
Mof_C 	C 	0.9588	0.7576	0.5512	-0.363
Mof_H 	H 	0.9788	0.7851	0.5262	0.102
Mof_C 	C 	0.8982	0.642	0.62	0.13
Mof_H 	H 	0.878	0.6112	0.644	-0.018
Mof_O 	O 	0.0196	0.625	0.6435	-0.281
Mof_C 	C 	0.9743	0.67	0.617	0.207
Mof_C 	C 	0.0703	0.829	0.6562	-0.871
Mof_H 	H 	0.0556	0.8756	0.6849	0.256
Mof_C 	C 	0.0532	0.6958	0.6236	0.279
Mof_C 	C 	0.0752	0.6261	0.5807	0.136
Mof_H 	H 	0.0638	0.537	0.5589	0.215
Mof_C 	C 	0.1143	0.6897	0.5702	0.337
Mof_H 	H 	0.129	0.6431	0.5415	-0.095
Mof_C 	C 	0.1314	0.823	0.6028	-0.147
Mof_C 	C 	0.1094	0.8926	0.6457	0.05
Mof_H 	H 	0.1209	0.9818	0.6675	0.13
Mof_C 	C 	0.9437	0.611	0.6454	-0.21
Mof_H 	H 	0.954	0.5481	0.6835	0.113
Mof_H 	H 	0.9811	0.8277	0.5503	0.086
Mof_C 	C 	0.8944	0.572	0.5748	0.043
Mof_H 	H 	0.872	0.5046	0.5785	0.009
Mof_C 	C 	0.9397	0.524	0.5891	-0.133
Mof_H 	H 	0.9487	0.4316	0.609	0.089
Mof_C 	C 	0.9711	0.617	0.5732	0.123
Mof_O 	O 	0.0144	0.556	0.5873	-0.129
Mof_C 	C 	0.0498	0.6397	0.5823	-0.17
Mof_C 	C 	0.0729	0.6016	0.5346	-0.54
Mof_H 	H 	0.0616	0.5259	0.5025	0.201
Mof_C 	C 	0.1129	0.6766	0.5348	0.019
Mof_H 	H 	0.1284	0.6512	0.5029	0.079
Mof_C 	C 	0.1299	0.7898	0.5827	-0.358
Mof_C 	C 	0.1068	0.8279	0.6303	0.554
Mof_H 	H 	0.1182	0.9036	0.6624	-0.21
Mof_C 	C 	0.0668	0.753	0.6301	-0.051
Mof_H 	H 	0.0514	0.7783	0.6621	0.349
Mof_Tb	Tb	0.25021	0.47329	0.42746	1.9
Mof_O 	O 	0.318	0.3768	0.5018	-0.572
Mof_O 	O 	0.6938	0.4692	0.6346	-0.484
Mof_O 	O 	0.1835	0.5249	0.3187	-0.436
Mof_O 	O 	0.1998	0.684	0.4039	-0.464
Mof_O 	O 	0.6957	0.3172	0.5493	-0.45
Mof_O 	O 	0.3041	0.1573	0.5418	-0.631
Mof_C 	C 	0.1266	0.7098	0.3196	-0.216
Mof_C 	C 	0.1727	0.637	0.3474	0.373
Mof_C 	C 	0.3809	0.224	0.5544	-0.299
Mof_C 	C 	0.0948	0.6595	0.2603	0.175
Mof_H 	H 	0.1021	0.5803	0.2358	-0.022
Mof_C 	C 	0.6759	0.3682	0.5925	0.456
Mof_C 	C 	0.3305	0.2547	0.5311	0.562
Mof_C 	C 	0.1152	0.8288	0.3565	0.166
Mof_H 	H 	0.1367	0.8623	0.397	-0.011
Mof_C 	C 	0.4122	0.2955	0.5299	0.244
Mof_H 	H 	0.4022	0.3722	0.4979	-0.047
Mof_C 	C 	0.0727	0.8967	0.3338	-0.295
Mof_H 	H 	0.0652	0.975	0.3586	0.146
Mof_C 	C 	0.0411	0.8445	0.2722	0.313
Mof_C 	C 	0.0514	0.7265	0.2364	-0.315
Mof_H 	H 	0.0297	0.6913	0.1964	0.154
Mof_C 	C 	0.4588	0.2576	0.5512	-0.373
Mof_H 	H 	0.4788	0.2851	0.5262	0.106
Mof_C 	C 	0.3982	0.142	0.62	0.142
Mof_H 	H 	0.378	0.1112	0.644	-0.022
Mof_O 	O 	0.5196	0.125	0.6435	-0.288
Mof_C 	C 	0.4743	0.17	0.617	0.22
Mof_C 	C 	0.5703	0.329	0.6562	-0.873
Mof_H 	H 	0.5556	0.3756	0.6849	0.255
Mof_C 	C 	0.5532	0.1958	0.6236	0.279
Mof_C 	C 	0.5752	0.1261	0.5807	0.134
Mof_H 	H 	0.5638	0.037	0.5589	0.215
Mof_C 	C 	0.6143	0.1897	0.5702	0.337
Mof_H 	H 	0.629	0.1431	0.5415	-0.096
Mof_C 	C 	0.6314	0.323	0.6028	-0.148
Mof_C 	C 	0.6094	0.3926	0.6457	0.05
Mof_H 	H 	0.6209	0.4818	0.6675	0.129
Mof_C 	C 	0.4437	0.111	0.6454	-0.222
Mof_H 	H 	0.454	0.0481	0.6835	0.118
Mof_H 	H 	0.4811	0.3277	0.5503	0.09
Mof_C 	C 	0.3944	0.072	0.5748	0.038
Mof_H 	H 	0.372	0.0046	0.5785	0.01
Mof_C 	C 	0.4397	0.024	0.5891	-0.132
Mof_H 	H 	0.4487	0.9316	0.609	0.091
Mof_C 	C 	0.4711	0.117	0.5732	0.126
Mof_O 	O 	0.5144	0.056	0.5873	-0.135
Mof_C 	C 	0.5498	0.1397	0.5823	-0.168
Mof_C 	C 	0.5729	0.1016	0.5346	-0.542
Mof_H 	H 	0.5616	0.0259	0.5025	0.201
Mof_C 	C 	0.6129	0.1766	0.5348	0.019
Mof_H 	H 	0.6284	0.1512	0.5029	0.079
Mof_C 	C 	0.6299	0.2898	0.5827	-0.358
Mof_C 	C 	0.6068	0.3279	0.6303	0.554
Mof_H 	H 	0.6182	0.4036	0.6624	-0.21
Mof_C 	C 	0.5668	0.253	0.6301	-0.05
Mof_H 	H 	0.5514	0.2783	0.6621	0.349
Mof_Tb	Tb	0.75021	0.02671	0.92746	1.888
Mof_O 	O 	0.818	0.1232	0.0018	-0.57
Mof_O 	O 	0.1938	0.0308	0.1346	-0.481
Mof_O 	O 	0.6835	0.9751	0.8187	-0.433
Mof_O 	O 	0.6998	0.816	0.9039	-0.462
Mof_O 	O 	0.1957	0.1828	0.0493	-0.448
Mof_O 	O 	0.8041	0.3427	0.0418	-0.631
Mof_C 	C 	0.6266	0.7902	0.8196	-0.215
Mof_C 	C 	0.6727	0.863	0.8474	0.373
Mof_C 	C 	0.8809	0.276	0.0544	-0.297
Mof_C 	C 	0.5948	0.8405	0.7603	0.176
Mof_H 	H 	0.6021	0.9197	0.7358	-0.021
Mof_C 	C 	0.1759	0.1318	0.0925	0.455
Mof_C 	C 	0.8305	0.2453	0.0311	0.561
Mof_C 	C 	0.6152	0.6712	0.8565	0.166
Mof_H 	H 	0.6367	0.6377	0.897	-0.011
Mof_C 	C 	0.9122	0.2045	0.0299	0.244
Mof_H 	H 	0.9022	0.1278	0.9979	-0.049
Mof_C 	C 	0.5727	0.6033	0.8338	-0.296
Mof_H 	H 	0.5652	0.525	0.8586	0.146
Mof_C 	C 	0.5411	0.6555	0.7722	0.314
Mof_C 	C 	0.5514	0.7735	0.7364	-0.316
Mof_H 	H 	0.5297	0.8087	0.6964	0.153
Mof_C 	C 	0.9588	0.2424	0.0512	-0.368
Mof_H 	H 	0.9788	0.2149	0.0262	0.103
Mof_C 	C 	0.8982	0.358	0.12	0.131
Mof_H 	H 	0.878	0.3888	0.144	-0.018
Mof_O 	O 	0.0196	0.375	0.1435	-0.281
Mof_C 	C 	0.9743	0.33	0.117	0.207
Mof_C 	C 	0.0703	0.171	0.1562	-0.871
Mof_H 	H 	0.0556	0.1244	0.1849	0.256
Mof_C 	C 	0.0532	0.3042	0.1236	0.279
Mof_C 	C 	0.0752	0.3739	0.0807	0.138
Mof_H 	H 	0.0638	0.463	0.0589	0.214
Mof_C 	C 	0.1143	0.3103	0.0702	0.336
Mof_H 	H 	0.129	0.3569	0.0415	-0.094
Mof_C 	C 	0.1314	0.177	0.1028	-0.146
Mof_C 	C 	0.1094	0.1074	0.1457	0.049
Mof_H 	H 	0.1209	0.0182	0.1675	0.13
Mof_C 	C 	0.9437	0.389	0.1454	-0.21
Mof_H 	H 	0.954	0.4519	0.1835	0.113
Mof_H 	H 	0.9811	0.1723	0.0503	0.088
Mof_C 	C 	0.8944	0.428	0.0748	0.044
Mof_H 	H 	0.872	0.4954	0.0785	0.008
Mof_C 	C 	0.9397	0.476	0.0891	-0.134
Mof_H 	H 	0.9487	0.5684	0.109	0.089
Mof_C 	C 	0.9711	0.383	0.0732	0.124
Mof_O 	O 	0.0144	0.444	0.0873	-0.129
Mof_C 	C 	0.0498	0.3603	0.0823	-0.172
Mof_C 	C 	0.0729	0.3984	0.0346	-0.539
Mof_H 	H 	0.0616	0.4741	0.0025	0.2
Mof_C 	C 	0.1129	0.3234	0.0348	0.017
Mof_H 	H 	0.1284	0.3488	0.0029	0.079
Mof_C 	C 	0.1299	0.2102	0.0827	-0.358
Mof_C 	C 	0.1068	0.1721	0.1303	0.553
Mof_H 	H 	0.1182	0.0964	0.1624	-0.21
Mof_C 	C 	0.0668	0.247	0.1301	-0.05
Mof_H 	H 	0.0514	0.2217	0.1621	0.349
Mof_Tb	Tb	0.25021	0.52671	0.92746	1.901
Mof_O 	O 	0.318	0.6232	0.0018	-0.572
Mof_O 	O 	0.6938	0.5308	0.1346	-0.484
Mof_O 	O 	0.1835	0.4751	0.8187	-0.436
Mof_O 	O 	0.1998	0.316	0.9039	-0.465
Mof_O 	O 	0.6957	0.6828	0.0493	-0.45
Mof_O 	O 	0.3041	0.8427	0.0418	-0.631
Mof_C 	C 	0.1266	0.2902	0.8196	-0.216
Mof_C 	C 	0.1727	0.363	0.8474	0.373
Mof_C 	C 	0.3809	0.776	0.0544	-0.298
Mof_C 	C 	0.0948	0.3405	0.7603	0.175
Mof_H 	H 	0.1021	0.4197	0.7358	-0.022
Mof_C 	C 	0.6759	0.6318	0.0925	0.456
Mof_C 	C 	0.3305	0.7453	0.0311	0.561
Mof_C 	C 	0.1152	0.1712	0.8565	0.166
Mof_H 	H 	0.1367	0.1377	0.897	-0.012
Mof_C 	C 	0.4122	0.7045	0.0299	0.241
Mof_H 	H 	0.4022	0.6278	0.9979	-0.045
Mof_C 	C 	0.0727	0.1033	0.8338	-0.295
Mof_H 	H 	0.0652	0.025	0.8586	0.146
Mof_C 	C 	0.0411	0.1555	0.7722	0.313
Mof_C 	C 	0.0514	0.2735	0.7364	-0.315
Mof_H 	H 	0.0297	0.3087	0.6964	0.155
Mof_C 	C 	0.4588	0.7424	0.0512	-0.371
Mof_H 	H 	0.4788	0.7149	0.0262	0.105
Mof_C 	C 	0.3982	0.858	0.12	0.148
Mof_H 	H 	0.378	0.8888	0.144	-0.025
Mof_O 	O 	0.5196	0.875	0.1435	-0.289
Mof_C 	C 	0.4743	0.83	0.117	0.224
Mof_C 	C 	0.5703	0.671	0.1562	-0.873
Mof_H 	H 	0.5556	0.6244	0.1849	0.255
Mof_C 	C 	0.5532	0.8042	0.1236	0.279
Mof_C 	C 	0.5752	0.8739	0.0807	0.133
Mof_H 	H 	0.5638	0.963	0.0589	0.215
Mof_C 	C 	0.6143	0.8103	0.0702	0.337
Mof_H 	H 	0.629	0.8569	0.0415	-0.096
Mof_C 	C 	0.6314	0.677	0.1028	-0.148
Mof_C 	C 	0.6094	0.6074	0.1457	0.05
Mof_H 	H 	0.6209	0.5182	0.1675	0.129
Mof_C 	C 	0.4437	0.889	0.1454	-0.228
Mof_H 	H 	0.454	0.9519	0.1835	0.119
Mof_H 	H 	0.4811	0.6723	0.0503	0.089
Mof_C 	C 	0.3944	0.928	0.0748	0.032
Mof_H 	H 	0.372	0.9954	0.0785	0.011
Mof_C 	C 	0.4397	0.976	0.0891	-0.129
Mof_H 	H 	0.4487	0.0684	0.109	0.092
Mof_C 	C 	0.4711	0.883	0.0732	0.121
Mof_O 	O 	0.5144	0.944	0.0873	-0.134
Mof_C 	C 	0.5498	0.8603	0.0823	-0.168
Mof_C 	C 	0.5729	0.8984	0.0346	-0.541
Mof_H 	H 	0.5616	0.9741	0.0025	0.2
Mof_C 	C 	0.6129	0.8234	0.0348	0.02
Mof_H 	H 	0.6284	0.8488	0.0029	0.078
Mof_C 	C 	0.6299	0.7102	0.0827	-0.359
Mof_C 	C 	0.6068	0.6721	0.1303	0.554
Mof_H 	H 	0.6182	0.5964	0.1624	-0.21
Mof_C 	C 	0.5668	0.747	0.1301	-0.05
Mof_H 	H 	0.5514	0.7217	0.1621	0.349
Mof_Tb	Tb	0.24979	0.02671	0.57254	1.895
Mof_O 	O 	0.182	0.1232	0.4982	-0.572
Mof_O 	O 	0.8062	0.0308	0.3654	-0.483
Mof_O 	O 	0.3165	0.9751	0.6813	-0.435
Mof_O 	O 	0.3002	0.816	0.5961	-0.463
Mof_O 	O 	0.8043	0.1828	0.4507	-0.449
Mof_O 	O 	0.1959	0.3427	0.4582	-0.632
Mof_C 	C 	0.3734	0.7902	0.6804	-0.216
Mof_C 	C 	0.3273	0.863	0.6526	0.373
Mof_C 	C 	0.1191	0.276	0.4456	-0.303
Mof_C 	C 	0.4052	0.8405	0.7397	0.176
Mof_H 	H 	0.3979	0.9197	0.7642	-0.021
Mof_C 	C 	0.8241	0.1318	0.4075	0.456
Mof_C 	C 	0.1695	0.2453	0.4689	0.563
Mof_C 	C 	0.3848	0.6712	0.6435	0.166
Mof_H 	H 	0.3633	0.6377	0.603	-0.012
Mof_C 	C 	0.0878	0.2045	0.4701	0.25
Mof_H 	H 	0.0978	0.1278	0.5021	-0.049
Mof_C 	C 	0.4273	0.6033	0.6662	-0.297
Mof_H 	H 	0.4348	0.525	0.6414	0.146
Mof_C 	C 	0.4589	0.6555	0.7278	0.314
Mof_C 	C 	0.4486	0.7735	0.7636	-0.316
Mof_H 	H 	0.4703	0.8087	0.8036	0.154
Mof_C 	C 	0.0412	0.2424	0.4488	-0.383
Mof_H 	H 	0.0212	0.2149	0.4738	0.108
Mof_C 	C 	0.1018	0.358	0.38	0.141
Mof_H 	H 	0.122	0.3888	0.356	-0.021
Mof_O 	O 	0.9804	0.375	0.3565	-0.292
Mof_C 	C 	0.0257	0.33	0.383	0.224
Mof_C 	C 	0.9297	0.171	0.3438	-0.873
Mof_H 	H 	0.9444	0.1244	0.3151	0.254
Mof_C 	C 	0.9468	0.3042	0.3764	0.277
Mof_C 	C 	0.9248	0.3739	0.4193	0.134
Mof_H 	H 	0.9362	0.463	0.4411	0.216
Mof_C 	C 	0.8857	0.3103	0.4298	0.338
Mof_H 	H 	0.871	0.3569	0.4585	-0.096
Mof_C 	C 	0.8686	0.177	0.3972	-0.149
Mof_C 	C 	0.8906	0.1074	0.3543	0.05
Mof_H 	H 	0.8791	0.0182	0.3325	0.129
Mof_C 	C 	0.0563	0.389	0.3546	-0.222
Mof_H 	H 	0.046	0.4519	0.3165	0.12
Mof_H 	H 	0.0189	0.1723	0.4497	0.094
Mof_C 	C 	0.1056	0.428	0.4252	0.043
Mof_H 	H 	0.128	0.4954	0.4215	0.009
Mof_C 	C 	0.0603	0.476	0.4109	-0.137
Mof_H 	H 	0.0513	0.5684	0.391	0.094
Mof_C 	C 	0.0289	0.383	0.4268	0.137
Mof_O 	O 	0.9856	0.444	0.4127	-0.141
Mof_C 	C 	0.9502	0.3603	0.4177	-0.167
Mof_C 	C 	0.9271	0.3984	0.4654	-0.544
Mof_H 	H 	0.9384	0.4741	0.4975	0.2
Mof_C 	C 	0.8871	0.3234	0.4652	0.02
Mof_H 	H 	0.8716	0.3488	0.4971	0.078
Mof_C 	C 	0.8701	0.2102	0.4173	-0.358
Mof_C 	C 	0.8932	0.1721	0.3697	0.554
Mof_H 	H 	0.8818	0.0964	0.3376	-0.21
Mof_C 	C 	0.9332	0.247	0.3699	-0.05
Mof_H 	H 	0.9486	0.2217	0.3379	0.349
Mof_Tb	Tb	0.74979	0.52671	0.57254	1.899
Mof_O 	O 	0.682	0.6232	0.4982	-0.572
Mof_O 	O 	0.3062	0.5308	0.3654	-0.484
Mof_O 	O 	0.8165	0.4751	0.6813	-0.436
Mof_O 	O 	0.8002	0.316	0.5961	-0.464
Mof_O 	O 	0.3043	0.6828	0.4507	-0.45
Mof_O 	O 	0.6959	0.8427	0.4582	-0.631
Mof_C 	C 	0.8734	0.2902	0.6804	-0.212
Mof_C 	C 	0.8273	0.363	0.6526	0.372
Mof_C 	C 	0.6191	0.776	0.4456	-0.299
Mof_C 	C 	0.9052	0.3405	0.7397	0.169
Mof_H 	H 	0.8979	0.4197	0.7642	-0.02
Mof_C 	C 	0.3241	0.6318	0.4075	0.456
Mof_C 	C 	0.6695	0.7453	0.4689	0.562
Mof_C 	C 	0.8848	0.1712	0.6435	0.16
Mof_H 	H 	0.8633	0.1377	0.603	-0.01
Mof_C 	C 	0.5878	0.7045	0.4701	0.244
Mof_H 	H 	0.5978	0.6278	0.5021	-0.047
Mof_C 	C 	0.9273	0.1033	0.6662	-0.289
Mof_H 	H 	0.9348	0.025	0.6414	0.142
Mof_C 	C 	0.9589	0.1555	0.7278	0.3
Mof_C 	C 	0.9486	0.2735	0.7636	-0.308
Mof_H 	H 	0.9703	0.3087	0.8036	0.147
Mof_C 	C 	0.5412	0.7424	0.4488	-0.373
Mof_H 	H 	0.5212	0.7149	0.4738	0.106
Mof_C 	C 	0.6018	0.858	0.38	0.142
Mof_H 	H 	0.622	0.8888	0.356	-0.022
Mof_O 	O 	0.4804	0.875	0.3565	-0.288
Mof_C 	C 	0.5257	0.83	0.383	0.22
Mof_C 	C 	0.4297	0.671	0.3438	-0.873
Mof_H 	H 	0.4444	0.6244	0.3151	0.255
Mof_C 	C 	0.4468	0.8042	0.3764	0.279
Mof_C 	C 	0.4248	0.8739	0.4193	0.134
Mof_H 	H 	0.4362	0.963	0.4411	0.215
Mof_C 	C 	0.3857	0.8103	0.4298	0.337
Mof_H 	H 	0.371	0.8569	0.4585	-0.096
Mof_C 	C 	0.3686	0.677	0.3972	-0.148
Mof_C 	C 	0.3906	0.6074	0.3543	0.05
Mof_H 	H 	0.3791	0.5182	0.3325	0.129
Mof_C 	C 	0.5563	0.889	0.3546	-0.222
Mof_H 	H 	0.546	0.9519	0.3165	0.118
Mof_H 	H 	0.5189	0.6723	0.4497	0.09
Mof_C 	C 	0.6056	0.928	0.4252	0.038
Mof_H 	H 	0.628	0.9954	0.4215	0.01
Mof_C 	C 	0.5603	0.976	0.4109	-0.132
Mof_H 	H 	0.5513	0.0684	0.391	0.091
Mof_C 	C 	0.5289	0.883	0.4268	0.126
Mof_O 	O 	0.4856	0.944	0.4127	-0.135
Mof_C 	C 	0.4502	0.8603	0.4177	-0.168
Mof_C 	C 	0.4271	0.8984	0.4654	-0.542
Mof_H 	H 	0.4384	0.9741	0.4975	0.201
Mof_C 	C 	0.3871	0.8234	0.4652	0.019
Mof_H 	H 	0.3716	0.8488	0.4971	0.079
Mof_C 	C 	0.3701	0.7102	0.4173	-0.358
Mof_C 	C 	0.3932	0.6721	0.3697	0.554
Mof_H 	H 	0.3818	0.5964	0.3376	-0.21
Mof_C 	C 	0.4332	0.747	0.3699	-0.05
Mof_H 	H 	0.4486	0.7217	0.3379	0.349
Mof_O 	O 	0.5	0.4214	0.25	-0.336
Mof_O 	O 	-1.08359e-17	0.9214	0.25	-0.327
Mof_O 	O 	0.5	0.5786	0.75	-0.336
Mof_O 	O 	2.41977e-33	0.0786	0.75	-0.327
_end
