data_functionalizedCrystal
_audit_creation_method	'EQeq! by Chris Wilmer'
_symmetry_space_group_name_H-M	'P1'
_symmetry_Int_Tables_number	1
_symmetry_cell_setting	triclinic
loop_
_symmetry_equiv_pos_as_xyz
  x,y,z
_cell_length_a	7.2499
_cell_length_b	23.7625
_cell_length_c	30.735
_cell_angle_alpha	90
_cell_angle_beta	90
_cell_angle_gamma	90
loop_
_atom_site_label
_atom_site_type_symbol
_atom_site_fract_x
_atom_site_fract_y
_atom_site_fract_z
_atom_site_charge
Mof_Ag	Ag	0.19513	0.77005	0.29063	0.559
Mof_Ag	Ag	0.52526	0.44231	0.48402	0.574
Mof_O 	O 	0.3424	0.69581	0.31389	-0.383
Mof_O 	O 	0.4517	0.6677	0.24974	-0.4
Mof_O 	O 	0.4761	0.588	0.44647	-0.372
Mof_O 	O 	0.6547	0.51204	0.44185	-0.407
Mof_N 	N 	0.1095	0.81274	0.35751	-0.155
Mof_N 	N 	0.0216	0.87411	0.4315	-0.164
Mof_C 	C 	0.002	0.85815	0.35583	0.011
Mof_H 	H 	0.9548	0.8697	0.3292	0.032
Mof_C 	C 	0.9594	0.88834	0.3926	0.01
Mof_H 	H 	0.8843	0.9199	0.39	0.027
Mof_C 	C 	0.1264	0.82831	0.43313	0.015
Mof_H 	H 	0.1712	0.8164	0.46	0.013
Mof_C 	C 	0.1709	0.79795	0.3967	0.006
Mof_H 	H 	0.2456	0.7663	0.3994	0.03
Mof_C 	C 	0.4324	0.66341	0.29011	0.35
Mof_C 	C 	0.5265	0.61456	0.31192	-0.143
Mof_C 	C 	0.6341	0.57741	0.2883	0.055
Mof_H 	H 	0.6453	0.5817	0.2583	0.018
Mof_C 	C 	0.7247	0.53393	0.30904	-0.13
Mof_H 	H 	0.7968	0.509	0.293	0.076
Mof_C 	C 	0.7086	0.52736	0.35324	0.055
Mof_H 	H 	0.7723	0.4985	0.3671	0.019
Mof_C 	C 	0.5987	0.5632	0.37756	-0.134
Mof_C 	C 	0.5091	0.60727	0.35673	0.062
Mof_H 	H 	0.437	0.6321	0.3728	0.028
Mof_C 	C 	0.575	0.55381	0.42545	0.35
Mof_Ag	Ag	0.69513	0.27005	0.79063	0.558
Mof_Ag	Ag	0.02526	0.94232	0.98402	0.574
Mof_O 	O 	0.8424	0.19581	0.81389	-0.384
Mof_O 	O 	0.9517	0.1677	0.74974	-0.4
Mof_O 	O 	0.9761	0.088	0.94647	-0.372
Mof_O 	O 	0.1547	0.01204	0.94185	-0.407
Mof_N 	N 	0.6095	0.31274	0.85751	-0.154
Mof_N 	N 	0.5216	0.37411	0.9315	-0.165
Mof_C 	C 	0.502	0.35815	0.85583	0.008
Mof_H 	H 	0.4548	0.3697	0.8292	0.034
Mof_C 	C 	0.4594	0.38834	0.8926	0.012
Mof_H 	H 	0.3843	0.4199	0.89	0.026
Mof_C 	C 	0.6264	0.32831	0.93313	0.015
Mof_H 	H 	0.6712	0.3164	0.96	0.013
Mof_C 	C 	0.6709	0.29795	0.8967	0.006
Mof_H 	H 	0.7456	0.2663	0.8994	0.03
Mof_C 	C 	0.9324	0.16341	0.79011	0.35
Mof_C 	C 	0.0265	0.11456	0.81192	-0.143
Mof_C 	C 	0.1341	0.07741	0.7883	0.055
Mof_H 	H 	0.1453	0.0817	0.7583	0.018
Mof_C 	C 	0.2247	0.03393	0.80904	-0.13
Mof_H 	H 	0.2968	0.009	0.793	0.076
Mof_C 	C 	0.2086	0.02736	0.85324	0.055
Mof_H 	H 	0.2723	0.9985	0.8671	0.019
Mof_C 	C 	0.0987	0.0632	0.87756	-0.133
Mof_C 	C 	0.0091	0.10727	0.85673	0.061
Mof_H 	H 	0.937	0.1321	0.8728	0.029
Mof_C 	C 	0.075	0.05381	0.92545	0.349
Mof_Ag	Ag	0.30487	0.22995	0.79063	0.558
Mof_Ag	Ag	0.97474	0.55768	0.98402	0.574
Mof_O 	O 	0.1576	0.30419	0.81389	-0.384
Mof_O 	O 	0.0483	0.3323	0.74974	-0.4
Mof_O 	O 	0.0239	0.412	0.94647	-0.371
Mof_O 	O 	0.8453	0.48796	0.94185	-0.407
Mof_N 	N 	0.3905	0.18726	0.85751	-0.154
Mof_N 	N 	0.4784	0.12589	0.9315	-0.165
Mof_C 	C 	0.498	0.14185	0.85583	0.008
Mof_H 	H 	0.5452	0.1303	0.8292	0.034
Mof_C 	C 	0.5406	0.11166	0.8926	0.012
Mof_H 	H 	0.6157	0.0801	0.89	0.026
Mof_C 	C 	0.3736	0.17169	0.93313	0.015
Mof_H 	H 	0.3288	0.1836	0.96	0.013
Mof_C 	C 	0.3291	0.20205	0.8967	0.006
Mof_H 	H 	0.2544	0.2337	0.8994	0.03
Mof_C 	C 	0.0676	0.33659	0.79011	0.35
Mof_C 	C 	0.9735	0.38544	0.81192	-0.143
Mof_C 	C 	0.8659	0.42259	0.7883	0.055
Mof_H 	H 	0.8547	0.4183	0.7583	0.018
Mof_C 	C 	0.7753	0.46607	0.80904	-0.13
Mof_H 	H 	0.7032	0.491	0.793	0.076
Mof_C 	C 	0.7914	0.47264	0.85324	0.055
Mof_H 	H 	0.7277	0.5015	0.8671	0.019
Mof_C 	C 	0.9013	0.4368	0.87756	-0.133
Mof_C 	C 	0.9909	0.39273	0.85673	0.061
Mof_H 	H 	0.063	0.3679	0.8728	0.029
Mof_C 	C 	0.925	0.44619	0.92545	0.349
Mof_Ag	Ag	0.80487	0.72995	0.29063	0.558
Mof_Ag	Ag	0.47474	0.05769	0.48402	0.573
Mof_O 	O 	0.6576	0.80419	0.31389	-0.384
Mof_O 	O 	0.5483	0.8323	0.24974	-0.4
Mof_O 	O 	0.5239	0.912	0.44647	-0.372
Mof_O 	O 	0.3453	0.98796	0.44185	-0.407
Mof_N 	N 	0.8905	0.68726	0.35751	-0.155
Mof_N 	N 	0.9784	0.62589	0.4315	-0.164
Mof_C 	C 	0.998	0.64185	0.35583	0.011
Mof_H 	H 	0.0452	0.6303	0.3292	0.032
Mof_C 	C 	0.0406	0.61166	0.3926	0.01
Mof_H 	H 	0.1157	0.5801	0.39	0.027
Mof_C 	C 	0.8736	0.67169	0.43313	0.015
Mof_H 	H 	0.8288	0.6836	0.46	0.013
Mof_C 	C 	0.8291	0.70205	0.3967	0.006
Mof_H 	H 	0.7544	0.7337	0.3994	0.03
Mof_C 	C 	0.5676	0.83659	0.29011	0.35
Mof_C 	C 	0.4735	0.88544	0.31192	-0.143
Mof_C 	C 	0.3659	0.92259	0.2883	0.055
Mof_H 	H 	0.3547	0.9183	0.2583	0.018
Mof_C 	C 	0.2753	0.96607	0.30904	-0.13
Mof_H 	H 	0.2032	0.991	0.293	0.076
Mof_C 	C 	0.2914	0.97264	0.35324	0.055
Mof_H 	H 	0.2277	0.0015	0.3671	0.019
Mof_C 	C 	0.4013	0.9368	0.37756	-0.134
Mof_C 	C 	0.4909	0.89273	0.35673	0.062
Mof_H 	H 	0.563	0.8679	0.3728	0.028
Mof_C 	C 	0.425	0.94619	0.42545	0.35
Mof_Ag	Ag	0.80487	0.27005	0.20937	0.558
Mof_Ag	Ag	0.47474	0.94232	0.01598	0.574
Mof_O 	O 	0.6576	0.19581	0.18611	-0.384
Mof_O 	O 	0.5483	0.1677	0.25026	-0.4
Mof_O 	O 	0.5239	0.088	0.05353	-0.372
Mof_O 	O 	0.3453	0.01204	0.05815	-0.407
Mof_N 	N 	0.8905	0.31274	0.14249	-0.155
Mof_N 	N 	0.9784	0.37411	0.0685	-0.164
Mof_C 	C 	0.998	0.35815	0.14417	0.011
Mof_H 	H 	0.0452	0.3697	0.1708	0.032
Mof_C 	C 	0.0406	0.38834	0.1074	0.01
Mof_H 	H 	0.1157	0.4199	0.11	0.027
Mof_C 	C 	0.8736	0.32831	0.06687	0.015
Mof_H 	H 	0.8288	0.3164	0.04	0.013
Mof_C 	C 	0.8291	0.29795	0.1033	0.006
Mof_H 	H 	0.7544	0.2663	0.1006	0.03
Mof_C 	C 	0.5676	0.16341	0.20989	0.35
Mof_C 	C 	0.4735	0.11456	0.18808	-0.143
Mof_C 	C 	0.3659	0.07741	0.2117	0.055
Mof_H 	H 	0.3547	0.0817	0.2417	0.018
Mof_C 	C 	0.2753	0.03393	0.19096	-0.13
Mof_H 	H 	0.2032	0.009	0.207	0.076
Mof_C 	C 	0.2914	0.02736	0.14676	0.055
Mof_H 	H 	0.2277	0.9985	0.1329	0.019
Mof_C 	C 	0.4013	0.0632	0.12244	-0.134
Mof_C 	C 	0.4909	0.10727	0.14327	0.062
Mof_H 	H 	0.563	0.1321	0.1272	0.028
Mof_C 	C 	0.425	0.05381	0.07455	0.35
Mof_Ag	Ag	0.30487	0.77005	0.70937	0.558
Mof_Ag	Ag	0.97474	0.44231	0.51598	0.573
Mof_O 	O 	0.1576	0.69581	0.68611	-0.384
Mof_O 	O 	0.0483	0.6677	0.75026	-0.4
Mof_O 	O 	0.0239	0.588	0.55353	-0.371
Mof_O 	O 	0.8453	0.51204	0.55815	-0.407
Mof_N 	N 	0.3905	0.81274	0.64249	-0.154
Mof_N 	N 	0.4784	0.87411	0.5685	-0.165
Mof_C 	C 	0.498	0.85815	0.64417	0.008
Mof_H 	H 	0.5452	0.8697	0.6708	0.034
Mof_C 	C 	0.5406	0.88834	0.6074	0.012
Mof_H 	H 	0.6157	0.9199	0.61	0.026
Mof_C 	C 	0.3736	0.82831	0.56687	0.015
Mof_H 	H 	0.3288	0.8164	0.54	0.013
Mof_C 	C 	0.3291	0.79795	0.6033	0.006
Mof_H 	H 	0.2544	0.7663	0.6006	0.03
Mof_C 	C 	0.0676	0.66341	0.70989	0.35
Mof_C 	C 	0.9735	0.61456	0.68808	-0.143
Mof_C 	C 	0.8659	0.57741	0.7117	0.055
Mof_H 	H 	0.8547	0.5817	0.7417	0.018
Mof_C 	C 	0.7753	0.53393	0.69096	-0.13
Mof_H 	H 	0.7032	0.509	0.707	0.076
Mof_C 	C 	0.7914	0.52736	0.64676	0.055
Mof_H 	H 	0.7277	0.4985	0.6329	0.019
Mof_C 	C 	0.9013	0.5632	0.62244	-0.133
Mof_C 	C 	0.9909	0.60727	0.64327	0.061
Mof_H 	H 	0.063	0.6321	0.6272	0.029
Mof_C 	C 	0.925	0.55381	0.57455	0.349
Mof_Ag	Ag	0.69513	0.72995	0.70937	0.558
Mof_Ag	Ag	0.02526	0.05769	0.51598	0.573
Mof_O 	O 	0.8424	0.80419	0.68611	-0.384
Mof_O 	O 	0.9517	0.8323	0.75026	-0.4
Mof_O 	O 	0.9761	0.912	0.55353	-0.371
Mof_O 	O 	0.1547	0.98796	0.55815	-0.407
Mof_N 	N 	0.6095	0.68726	0.64249	-0.154
Mof_N 	N 	0.5216	0.62589	0.5685	-0.165
Mof_C 	C 	0.502	0.64185	0.64417	0.008
Mof_H 	H 	0.4548	0.6303	0.6708	0.034
Mof_C 	C 	0.4594	0.61166	0.6074	0.012
Mof_H 	H 	0.3843	0.5801	0.61	0.026
Mof_C 	C 	0.6264	0.67169	0.56687	0.015
Mof_H 	H 	0.6712	0.6836	0.54	0.013
Mof_C 	C 	0.6709	0.70205	0.6033	0.006
Mof_H 	H 	0.7456	0.7337	0.6006	0.03
Mof_C 	C 	0.9324	0.83659	0.70989	0.35
Mof_C 	C 	0.0265	0.88544	0.68808	-0.143
Mof_C 	C 	0.1341	0.92259	0.7117	0.055
Mof_H 	H 	0.1453	0.9183	0.7417	0.018
Mof_C 	C 	0.2247	0.96607	0.69096	-0.13
Mof_H 	H 	0.2968	0.991	0.707	0.076
Mof_C 	C 	0.2086	0.97264	0.64676	0.055
Mof_H 	H 	0.2723	0.0015	0.6329	0.019
Mof_C 	C 	0.0987	0.9368	0.62244	-0.133
Mof_C 	C 	0.0091	0.89273	0.64327	0.061
Mof_H 	H 	0.937	0.8679	0.6272	0.029
Mof_C 	C 	0.075	0.94619	0.57455	0.349
Mof_Ag	Ag	0.19513	0.22995	0.20937	0.558
Mof_Ag	Ag	0.52526	0.55768	0.01598	0.574
Mof_O 	O 	0.3424	0.30419	0.18611	-0.384
Mof_O 	O 	0.4517	0.3323	0.25026	-0.4
Mof_O 	O 	0.4761	0.412	0.05353	-0.372
Mof_O 	O 	0.6547	0.48796	0.05815	-0.407
Mof_N 	N 	0.1095	0.18726	0.14249	-0.155
Mof_N 	N 	0.0216	0.12589	0.0685	-0.164
Mof_C 	C 	0.002	0.14185	0.14417	0.011
Mof_H 	H 	0.9548	0.1303	0.1708	0.032
Mof_C 	C 	0.9594	0.11166	0.1074	0.01
Mof_H 	H 	0.8843	0.0801	0.11	0.027
Mof_C 	C 	0.1264	0.17169	0.06687	0.015
Mof_H 	H 	0.1712	0.1836	0.04	0.013
Mof_C 	C 	0.1709	0.20205	0.1033	0.006
Mof_H 	H 	0.2456	0.2337	0.1006	0.03
Mof_C 	C 	0.4324	0.33659	0.20989	0.35
Mof_C 	C 	0.5265	0.38544	0.18808	-0.143
Mof_C 	C 	0.6341	0.42259	0.2117	0.055
Mof_H 	H 	0.6453	0.4183	0.2417	0.018
Mof_C 	C 	0.7247	0.46607	0.19096	-0.13
Mof_H 	H 	0.7968	0.491	0.207	0.076
Mof_C 	C 	0.7086	0.47264	0.14676	0.055
Mof_H 	H 	0.7723	0.5015	0.1329	0.019
Mof_C 	C 	0.5987	0.4368	0.12244	-0.134
Mof_C 	C 	0.5091	0.39273	0.14327	0.062
Mof_H 	H 	0.437	0.3679	0.1272	0.028
Mof_C 	C 	0.575	0.44619	0.07455	0.35
Mof_Ag	Ag	0.80487	0.22995	0.70937	0.558
Mof_Ag	Ag	0.47474	0.55768	0.51598	0.574
Mof_O 	O 	0.6576	0.30419	0.68611	-0.384
Mof_O 	O 	0.5483	0.3323	0.75026	-0.4
Mof_O 	O 	0.5239	0.412	0.55353	-0.372
Mof_O 	O 	0.3453	0.48796	0.55815	-0.407
Mof_N 	N 	0.8905	0.18726	0.64249	-0.155
Mof_N 	N 	0.9784	0.12589	0.5685	-0.164
Mof_C 	C 	0.998	0.14185	0.64417	0.011
Mof_H 	H 	0.0452	0.1303	0.6708	0.032
Mof_C 	C 	0.0406	0.11166	0.6074	0.01
Mof_H 	H 	0.1157	0.0801	0.61	0.027
Mof_C 	C 	0.8736	0.17169	0.56687	0.015
Mof_H 	H 	0.8288	0.1836	0.54	0.013
Mof_C 	C 	0.8291	0.20205	0.6033	0.006
Mof_H 	H 	0.7544	0.2337	0.6006	0.03
Mof_C 	C 	0.5676	0.33659	0.70989	0.35
Mof_C 	C 	0.4735	0.38544	0.68808	-0.143
Mof_C 	C 	0.3659	0.42259	0.7117	0.055
Mof_H 	H 	0.3547	0.4183	0.7417	0.018
Mof_C 	C 	0.2753	0.46607	0.69096	-0.13
Mof_H 	H 	0.2032	0.491	0.707	0.076
Mof_C 	C 	0.2914	0.47264	0.64676	0.055
Mof_H 	H 	0.2277	0.5015	0.6329	0.019
Mof_C 	C 	0.4013	0.4368	0.62244	-0.134
Mof_C 	C 	0.4909	0.39273	0.64327	0.062
Mof_H 	H 	0.563	0.3679	0.6272	0.028
Mof_C 	C 	0.425	0.44619	0.57455	0.35
Mof_Ag	Ag	0.30487	0.72995	0.20937	0.558
Mof_Ag	Ag	0.97474	0.05769	0.01598	0.574
Mof_O 	O 	0.1576	0.80419	0.18611	-0.384
Mof_O 	O 	0.0483	0.8323	0.25026	-0.4
Mof_O 	O 	0.0239	0.912	0.05353	-0.371
Mof_O 	O 	0.8453	0.98796	0.05815	-0.407
Mof_N 	N 	0.3905	0.68726	0.14249	-0.154
Mof_N 	N 	0.4784	0.62589	0.0685	-0.165
Mof_C 	C 	0.498	0.64185	0.14417	0.008
Mof_H 	H 	0.5452	0.6303	0.1708	0.034
Mof_C 	C 	0.5406	0.61166	0.1074	0.012
Mof_H 	H 	0.6157	0.5801	0.11	0.026
Mof_C 	C 	0.3736	0.67169	0.06687	0.015
Mof_H 	H 	0.3288	0.6836	0.04	0.013
Mof_C 	C 	0.3291	0.70205	0.1033	0.006
Mof_H 	H 	0.2544	0.7337	0.1006	0.03
Mof_C 	C 	0.0676	0.83659	0.20989	0.35
Mof_C 	C 	0.9735	0.88544	0.18808	-0.143
Mof_C 	C 	0.8659	0.92259	0.2117	0.055
Mof_H 	H 	0.8547	0.9183	0.2417	0.018
Mof_C 	C 	0.7753	0.96607	0.19096	-0.13
Mof_H 	H 	0.7032	0.991	0.207	0.076
Mof_C 	C 	0.7914	0.97264	0.14676	0.055
Mof_H 	H 	0.7277	0.0015	0.1329	0.019
Mof_C 	C 	0.9013	0.9368	0.12244	-0.133
Mof_C 	C 	0.9909	0.89273	0.14327	0.061
Mof_H 	H 	0.063	0.8679	0.1272	0.029
Mof_C 	C 	0.925	0.94619	0.07455	0.349
Mof_Ag	Ag	0.69513	0.77005	0.20937	0.558
Mof_Ag	Ag	0.02526	0.44231	0.01598	0.574
Mof_O 	O 	0.8424	0.69581	0.18611	-0.384
Mof_O 	O 	0.9517	0.6677	0.25026	-0.4
Mof_O 	O 	0.9761	0.588	0.05353	-0.371
Mof_O 	O 	0.1547	0.51204	0.05815	-0.407
Mof_N 	N 	0.6095	0.81274	0.14249	-0.154
Mof_N 	N 	0.5216	0.87411	0.0685	-0.165
Mof_C 	C 	0.502	0.85815	0.14417	0.008
Mof_H 	H 	0.4548	0.8697	0.1708	0.034
Mof_C 	C 	0.4594	0.88834	0.1074	0.012
Mof_H 	H 	0.3843	0.9199	0.11	0.026
Mof_C 	C 	0.6264	0.82831	0.06687	0.015
Mof_H 	H 	0.6712	0.8164	0.04	0.013
Mof_C 	C 	0.6709	0.79795	0.1033	0.006
Mof_H 	H 	0.7456	0.7663	0.1006	0.03
Mof_C 	C 	0.9324	0.66341	0.20989	0.35
Mof_C 	C 	0.0265	0.61456	0.18808	-0.143
Mof_C 	C 	0.1341	0.57741	0.2117	0.055
Mof_H 	H 	0.1453	0.5817	0.2417	0.018
Mof_C 	C 	0.2247	0.53393	0.19096	-0.13
Mof_H 	H 	0.2968	0.509	0.207	0.076
Mof_C 	C 	0.2086	0.52736	0.14676	0.055
Mof_H 	H 	0.2723	0.4985	0.1329	0.019
Mof_C 	C 	0.0987	0.5632	0.12244	-0.133
Mof_C 	C 	0.0091	0.60727	0.14327	0.061
Mof_H 	H 	0.937	0.6321	0.1272	0.029
Mof_C 	C 	0.075	0.55381	0.07455	0.349
Mof_Ag	Ag	0.19513	0.27005	0.70937	0.558
Mof_Ag	Ag	0.52526	0.94232	0.51598	0.573
Mof_O 	O 	0.3424	0.19581	0.68611	-0.384
Mof_O 	O 	0.4517	0.1677	0.75026	-0.4
Mof_O 	O 	0.4761	0.088	0.55353	-0.372
Mof_O 	O 	0.6547	0.01204	0.55815	-0.407
Mof_N 	N 	0.1095	0.31274	0.64249	-0.155
Mof_N 	N 	0.0216	0.37411	0.5685	-0.164
Mof_C 	C 	0.002	0.35815	0.64417	0.011
Mof_H 	H 	0.9548	0.3697	0.6708	0.032
Mof_C 	C 	0.9594	0.38834	0.6074	0.01
Mof_H 	H 	0.8843	0.4199	0.61	0.027
Mof_C 	C 	0.1264	0.32831	0.56687	0.015
Mof_H 	H 	0.1712	0.3164	0.54	0.013
Mof_C 	C 	0.1709	0.29795	0.6033	0.006
Mof_H 	H 	0.2456	0.2663	0.6006	0.03
Mof_C 	C 	0.4324	0.16341	0.70989	0.35
Mof_C 	C 	0.5265	0.11456	0.68808	-0.143
Mof_C 	C 	0.6341	0.07741	0.7117	0.055
Mof_H 	H 	0.6453	0.0817	0.7417	0.018
Mof_C 	C 	0.7247	0.03393	0.69096	-0.13
Mof_H 	H 	0.7968	0.009	0.707	0.076
Mof_C 	C 	0.7086	0.02736	0.64676	0.055
Mof_H 	H 	0.7723	0.9985	0.6329	0.019
Mof_C 	C 	0.5987	0.0632	0.62244	-0.134
Mof_C 	C 	0.5091	0.10727	0.64327	0.062
Mof_H 	H 	0.437	0.1321	0.6272	0.028
Mof_C 	C 	0.575	0.05381	0.57455	0.35
Mof_Ag	Ag	0.19513	0.72995	0.79063	0.558
Mof_Ag	Ag	0.52526	0.05769	0.98402	0.574
Mof_O 	O 	0.3424	0.80419	0.81389	-0.384
Mof_O 	O 	0.4517	0.8323	0.74974	-0.4
Mof_O 	O 	0.4761	0.912	0.94647	-0.372
Mof_O 	O 	0.6547	0.98796	0.94185	-0.407
Mof_N 	N 	0.1095	0.68726	0.85751	-0.155
Mof_N 	N 	0.0216	0.62589	0.9315	-0.164
Mof_C 	C 	0.002	0.64185	0.85583	0.011
Mof_H 	H 	0.9548	0.6303	0.8292	0.032
Mof_C 	C 	0.9594	0.61166	0.8926	0.01
Mof_H 	H 	0.8843	0.5801	0.89	0.027
Mof_C 	C 	0.1264	0.67169	0.93313	0.015
Mof_H 	H 	0.1712	0.6836	0.96	0.013
Mof_C 	C 	0.1709	0.70205	0.8967	0.006
Mof_H 	H 	0.2456	0.7337	0.8994	0.03
Mof_C 	C 	0.4324	0.83659	0.79011	0.35
Mof_C 	C 	0.5265	0.88544	0.81192	-0.143
Mof_C 	C 	0.6341	0.92259	0.7883	0.055
Mof_H 	H 	0.6453	0.9183	0.7583	0.018
Mof_C 	C 	0.7247	0.96607	0.80904	-0.13
Mof_H 	H 	0.7968	0.991	0.793	0.076
Mof_C 	C 	0.7086	0.97264	0.85324	0.055
Mof_H 	H 	0.7723	0.0015	0.8671	0.019
Mof_C 	C 	0.5987	0.9368	0.87756	-0.134
Mof_C 	C 	0.5091	0.89273	0.85673	0.062
Mof_H 	H 	0.437	0.8679	0.8728	0.028
Mof_C 	C 	0.575	0.94619	0.92545	0.35
Mof_Ag	Ag	0.69513	0.22995	0.29063	0.558
Mof_Ag	Ag	0.02526	0.55768	0.48402	0.573
Mof_O 	O 	0.8424	0.30419	0.31389	-0.384
Mof_O 	O 	0.9517	0.3323	0.24974	-0.4
Mof_O 	O 	0.9761	0.412	0.44647	-0.372
Mof_O 	O 	0.1547	0.48796	0.44185	-0.407
Mof_N 	N 	0.6095	0.18726	0.35751	-0.154
Mof_N 	N 	0.5216	0.12589	0.4315	-0.165
Mof_C 	C 	0.502	0.14185	0.35583	0.008
Mof_H 	H 	0.4548	0.1303	0.3292	0.034
Mof_C 	C 	0.4594	0.11166	0.3926	0.012
Mof_H 	H 	0.3843	0.0801	0.39	0.026
Mof_C 	C 	0.6264	0.17169	0.43313	0.015
Mof_H 	H 	0.6712	0.1836	0.46	0.013
Mof_C 	C 	0.6709	0.20205	0.3967	0.006
Mof_H 	H 	0.7456	0.2337	0.3994	0.03
Mof_C 	C 	0.9324	0.33659	0.29011	0.35
Mof_C 	C 	0.0265	0.38544	0.31192	-0.143
Mof_C 	C 	0.1341	0.42259	0.2883	0.055
Mof_H 	H 	0.1453	0.4183	0.2583	0.018
Mof_C 	C 	0.2247	0.46607	0.30904	-0.13
Mof_H 	H 	0.2968	0.491	0.293	0.076
Mof_C 	C 	0.2086	0.47264	0.35324	0.055
Mof_H 	H 	0.2723	0.5015	0.3671	0.019
Mof_C 	C 	0.0987	0.4368	0.37756	-0.133
Mof_C 	C 	0.0091	0.39273	0.35673	0.061
Mof_H 	H 	0.937	0.3679	0.3728	0.029
Mof_C 	C 	0.075	0.44619	0.42545	0.349
Mof_Ag	Ag	0.30487	0.27005	0.29063	0.558
Mof_Ag	Ag	0.97474	0.94232	0.48402	0.573
Mof_O 	O 	0.1576	0.19581	0.31389	-0.384
Mof_O 	O 	0.0483	0.1677	0.24974	-0.4
Mof_O 	O 	0.0239	0.088	0.44647	-0.372
Mof_O 	O 	0.8453	0.01204	0.44185	-0.407
Mof_N 	N 	0.3905	0.31274	0.35751	-0.154
Mof_N 	N 	0.4784	0.37411	0.4315	-0.165
Mof_C 	C 	0.498	0.35815	0.35583	0.008
Mof_H 	H 	0.5452	0.3697	0.3292	0.034
Mof_C 	C 	0.5406	0.38834	0.3926	0.012
Mof_H 	H 	0.6157	0.4199	0.39	0.026
Mof_C 	C 	0.3736	0.32831	0.43313	0.015
Mof_H 	H 	0.3288	0.3164	0.46	0.013
Mof_C 	C 	0.3291	0.29795	0.3967	0.006
Mof_H 	H 	0.2544	0.2663	0.3994	0.03
Mof_C 	C 	0.0676	0.16341	0.29011	0.35
Mof_C 	C 	0.9735	0.11456	0.31192	-0.143
Mof_C 	C 	0.8659	0.07741	0.2883	0.055
Mof_H 	H 	0.8547	0.0817	0.2583	0.018
Mof_C 	C 	0.7753	0.03393	0.30904	-0.13
Mof_H 	H 	0.7032	0.009	0.293	0.076
Mof_C 	C 	0.7914	0.02736	0.35324	0.055
Mof_H 	H 	0.7277	0.9985	0.3671	0.019
Mof_C 	C 	0.9013	0.0632	0.37756	-0.134
Mof_C 	C 	0.9909	0.10727	0.35673	0.061
Mof_H 	H 	0.063	0.1321	0.3728	0.029
Mof_C 	C 	0.925	0.05381	0.42545	0.349
Mof_Ag	Ag	0.80487	0.77005	0.79063	0.558
Mof_Ag	Ag	0.47474	0.44231	0.98402	0.574
Mof_O 	O 	0.6576	0.69581	0.81389	-0.384
Mof_O 	O 	0.5483	0.6677	0.74974	-0.4
Mof_O 	O 	0.5239	0.588	0.94647	-0.372
Mof_O 	O 	0.3453	0.51204	0.94185	-0.407
Mof_N 	N 	0.8905	0.81274	0.85751	-0.155
Mof_N 	N 	0.9784	0.87411	0.9315	-0.164
Mof_C 	C 	0.998	0.85815	0.85583	0.011
Mof_H 	H 	0.0452	0.8697	0.8292	0.032
Mof_C 	C 	0.0406	0.88834	0.8926	0.01
Mof_H 	H 	0.1157	0.9199	0.89	0.027
Mof_C 	C 	0.8736	0.82831	0.93313	0.015
Mof_H 	H 	0.8288	0.8164	0.96	0.013
Mof_C 	C 	0.8291	0.79795	0.8967	0.006
Mof_H 	H 	0.7544	0.7663	0.8994	0.03
Mof_C 	C 	0.5676	0.66341	0.79011	0.35
Mof_C 	C 	0.4735	0.61456	0.81192	-0.143
Mof_C 	C 	0.3659	0.57741	0.7883	0.055
Mof_H 	H 	0.3547	0.5817	0.7583	0.018
Mof_C 	C 	0.2753	0.53393	0.80904	-0.13
Mof_H 	H 	0.2032	0.509	0.793	0.076
Mof_C 	C 	0.2914	0.52736	0.85324	0.055
Mof_H 	H 	0.2277	0.4985	0.8671	0.019
Mof_C 	C 	0.4013	0.5632	0.87756	-0.134
Mof_C 	C 	0.4909	0.60727	0.85673	0.062
Mof_H 	H 	0.563	0.6321	0.8728	0.028
Mof_C 	C 	0.425	0.55381	0.92545	0.35
_end
