data_functionalizedCrystal
_audit_creation_method	'EQeq! by Chris Wilmer'
_symmetry_space_group_name_H-M	'P1'
_symmetry_Int_Tables_number	1
_symmetry_cell_setting	triclinic
loop_
_symmetry_equiv_pos_as_xyz
  x,y,z
_cell_length_a	29.956
_cell_length_b	9.7331
_cell_length_c	15.5271
_cell_angle_alpha	90
_cell_angle_beta	90
_cell_angle_gamma	90
loop_
_atom_site_label
_atom_site_type_symbol
_atom_site_fract_x
_atom_site_fract_y
_atom_site_fract_z
_atom_site_charge
Mof_S 	S 	0.05245	0.6934	0.1183	-0.004
Mof_S 	S 	0.05587	0.3945	0.1089	0.007
Mof_N 	N 	0.2768	0.0452	0.1362	-0.241
Mof_N 	N 	0.2072	0.1976	0.2133	-0.223
Mof_C 	C 	0.0236	0.5421	0.1126	-0.005
Mof_C 	C 	0.1632	0.9192	0.2412	0.105
Mof_H 	H 	0.1557	0.9941	0.2754	-0.015
Mof_N 	N 	0.2056	0.9065	0.2138	-0.22
Mof_C 	C 	0.1047	0.4813	0.1411	-0.035
Mof_C 	C 	0.1564	0.2814	0.1075	-0.188
Mof_H 	H 	0.1445	0.274	0.0524	0.104
Mof_C 	C 	0.1878	0.1929	0.1352	0.123
Mof_H 	H 	0.1968	0.1237	0.0977	-0.011
Mof_C 	C 	0.1305	0.8248	0.2203	-0.179
Mof_H 	H 	0.1016	0.8385	0.2408	0.094
Mof_C 	C 	0.104	0.6168	0.145	-0.037
Mof_C 	C 	0.1392	0.712	0.1706	0.11
Mof_C 	C 	0.1419	0.387	0.1651	0.114
Mof_C 	C 	0.2925	0.0255	0.0699	0.191
Mof_C 	C 	0.1637	0.3968	0.2437	-0.19
Mof_H 	H 	0.1571	0.4676	0.2819	0.1
Mof_C 	C 	0.2149	0.795	0.1647	0.105
Mof_H 	H 	0.244	0.7837	0.1452	-0.011
Mof_C 	C 	0.1953	0.2995	0.264	0.127
Mof_H 	H 	0.2092	0.3062	0.3174	-0.016
Mof_C 	C 	0.1835	0.6967	0.1417	-0.176
Mof_H 	H 	0.1915	0.622	0.1077	0.095
Mof_S 	S 	0.44755	0.3066	0.6183	-0.001
Mof_S 	S 	0.44413	0.6055	0.6089	-0.003
Mof_N 	N 	0.2232	0.9548	0.6362	-0.24
Mof_N 	N 	0.2928	0.8024	0.7133	-0.221
Mof_C 	C 	0.4764	0.4579	0.6126	-0.005
Mof_C 	C 	0.3368	0.0808	0.7412	0.107
Mof_H 	H 	0.3443	0.0059	0.7754	-0.001
Mof_N 	N 	0.2944	0.0935	0.7138	-0.206
Mof_C 	C 	0.3953	0.5187	0.6411	-0.033
Mof_C 	C 	0.3436	0.7186	0.6075	-0.188
Mof_H 	H 	0.3555	0.726	0.5524	0.098
Mof_C 	C 	0.3122	0.8071	0.6352	0.118
Mof_H 	H 	0.3032	0.8763	0.5977	-0.017
Mof_C 	C 	0.3695	0.1752	0.7203	-0.175
Mof_H 	H 	0.3984	0.1615	0.7408	0.096
Mof_C 	C 	0.396	0.3832	0.645	-0.038
Mof_C 	C 	0.3608	0.288	0.6706	0.11
Mof_C 	C 	0.3581	0.613	0.6651	0.11
Mof_C 	C 	0.2075	0.9745	0.5699	0.161
Mof_C 	C 	0.3363	0.6032	0.7437	-0.189
Mof_H 	H 	0.3429	0.5324	0.7819	0.098
Mof_C 	C 	0.2851	0.205	0.6647	0.105
Mof_H 	H 	0.256	0.2163	0.6452	-0.007
Mof_C 	C 	0.3047	0.7005	0.764	0.123
Mof_H 	H 	0.2908	0.6938	0.8174	-0.016
Mof_C 	C 	0.3165	0.3033	0.6417	-0.174
Mof_H 	H 	0.3085	0.378	0.6077	0.093
Mof_S 	S 	0.44755	0.6934	0.3817	-0.007
Mof_S 	S 	0.44413	0.3945	0.3911	0.005
Mof_N 	N 	0.2232	0.0452	0.3638	-0.24
Mof_N 	N 	0.2928	0.1976	0.2867	-0.222
Mof_C 	C 	0.4764	0.5421	0.3874	-0.005
Mof_C 	C 	0.3368	0.9192	0.2588	0.106
Mof_H 	H 	0.3443	0.9941	0.2246	-0.013
Mof_N 	N 	0.2944	0.9065	0.2862	-0.219
Mof_C 	C 	0.3953	0.4813	0.3589	-0.034
Mof_C 	C 	0.3436	0.2814	0.3925	-0.187
Mof_H 	H 	0.3555	0.274	0.4476	0.101
Mof_C 	C 	0.3122	0.1929	0.3648	0.122
Mof_H 	H 	0.3032	0.1237	0.4023	-0.012
Mof_C 	C 	0.3695	0.8248	0.2797	-0.179
Mof_H 	H 	0.3984	0.8385	0.2592	0.094
Mof_C 	C 	0.396	0.6168	0.355	-0.037
Mof_C 	C 	0.3608	0.712	0.3294	0.109
Mof_C 	C 	0.3581	0.387	0.3349	0.113
Mof_C 	C 	0.2075	0.0255	0.4301	0.188
Mof_C 	C 	0.3363	0.3968	0.2563	-0.189
Mof_H 	H 	0.3429	0.4676	0.2181	0.101
Mof_C 	C 	0.2851	0.795	0.3353	0.104
Mof_H 	H 	0.256	0.7837	0.3548	-0.012
Mof_C 	C 	0.3047	0.2995	0.236	0.127
Mof_H 	H 	0.2908	0.3062	0.1826	-0.015
Mof_C 	C 	0.3165	0.6967	0.3583	-0.177
Mof_H 	H 	0.3085	0.622	0.3923	0.093
Mof_S 	S 	0.05245	0.3066	0.8817	-0.004
Mof_S 	S 	0.05587	0.6055	0.8911	-0.007
Mof_N 	N 	0.2768	0.9548	0.8638	-0.238
Mof_N 	N 	0.2072	0.8024	0.7867	-0.221
Mof_C 	C 	0.0236	0.4579	0.8874	-0.005
Mof_C 	C 	0.1632	0.0808	0.7588	0.107
Mof_H 	H 	0.1557	0.0059	0.7246	-0.001
Mof_N 	N 	0.2056	0.0935	0.7862	-0.206
Mof_C 	C 	0.1047	0.5187	0.8589	-0.033
Mof_C 	C 	0.1564	0.7186	0.8925	-0.187
Mof_H 	H 	0.1445	0.726	0.9476	0.095
Mof_C 	C 	0.1878	0.8071	0.8648	0.117
Mof_H 	H 	0.1968	0.8763	0.9023	-0.019
Mof_C 	C 	0.1305	0.1752	0.7797	-0.175
Mof_H 	H 	0.1016	0.1615	0.7592	0.097
Mof_C 	C 	0.104	0.3832	0.855	-0.039
Mof_C 	C 	0.1392	0.288	0.8294	0.109
Mof_C 	C 	0.1419	0.613	0.8349	0.109
Mof_C 	C 	0.2925	0.9745	0.9301	0.15
Mof_C 	C 	0.1637	0.6032	0.7563	-0.188
Mof_H 	H 	0.1571	0.5324	0.7181	0.099
Mof_C 	C 	0.2149	0.205	0.8353	0.104
Mof_H 	H 	0.244	0.2163	0.8548	-0.008
Mof_C 	C 	0.1953	0.7005	0.736	0.123
Mof_H 	H 	0.2092	0.6938	0.6826	-0.015
Mof_C 	C 	0.1835	0.3033	0.8583	-0.175
Mof_H 	H 	0.1915	0.378	0.8923	0.091
Mof_S 	S 	0.94755	0.3066	0.8817	-0.004
Mof_S 	S 	0.94413	0.6055	0.8911	-0.007
Mof_N 	N 	0.7232	0.9548	0.8638	-0.238
Mof_N 	N 	0.7928	0.8024	0.7867	-0.221
Mof_C 	C 	0.9764	0.4579	0.8874	-0.005
Mof_C 	C 	0.8368	0.0808	0.7588	0.107
Mof_H 	H 	0.8443	0.0059	0.7246	-0.001
Mof_N 	N 	0.7944	0.0935	0.7862	-0.206
Mof_C 	C 	0.8953	0.5187	0.8589	-0.033
Mof_C 	C 	0.8436	0.7186	0.8925	-0.187
Mof_H 	H 	0.8555	0.726	0.9476	0.095
Mof_C 	C 	0.8122	0.8071	0.8648	0.117
Mof_H 	H 	0.8032	0.8763	0.9023	-0.019
Mof_C 	C 	0.8695	0.1752	0.7797	-0.175
Mof_H 	H 	0.8984	0.1615	0.7592	0.097
Mof_C 	C 	0.896	0.3832	0.855	-0.039
Mof_C 	C 	0.8608	0.288	0.8294	0.109
Mof_C 	C 	0.8581	0.613	0.8349	0.109
Mof_C 	C 	0.7075	0.9745	0.9301	0.15
Mof_C 	C 	0.8363	0.6032	0.7563	-0.188
Mof_H 	H 	0.8429	0.5324	0.7181	0.099
Mof_C 	C 	0.7851	0.205	0.8353	0.104
Mof_H 	H 	0.756	0.2163	0.8548	-0.008
Mof_C 	C 	0.8047	0.7005	0.736	0.123
Mof_H 	H 	0.7908	0.6938	0.6826	-0.015
Mof_C 	C 	0.8165	0.3033	0.8583	-0.175
Mof_H 	H 	0.8085	0.378	0.8923	0.091
Mof_S 	S 	0.55245	0.6934	0.3817	-0.007
Mof_S 	S 	0.55587	0.3945	0.3911	0.005
Mof_N 	N 	0.7768	0.0452	0.3638	-0.24
Mof_N 	N 	0.7072	0.1976	0.2867	-0.222
Mof_C 	C 	0.5236	0.5421	0.3874	-0.005
Mof_C 	C 	0.6632	0.9192	0.2588	0.106
Mof_H 	H 	0.6557	0.9941	0.2246	-0.013
Mof_N 	N 	0.7056	0.9065	0.2862	-0.219
Mof_C 	C 	0.6047	0.4813	0.3589	-0.034
Mof_C 	C 	0.6564	0.2814	0.3925	-0.187
Mof_H 	H 	0.6445	0.274	0.4476	0.101
Mof_C 	C 	0.6878	0.1929	0.3648	0.122
Mof_H 	H 	0.6968	0.1237	0.4023	-0.012
Mof_C 	C 	0.6305	0.8248	0.2797	-0.179
Mof_H 	H 	0.6016	0.8385	0.2592	0.094
Mof_C 	C 	0.604	0.6168	0.355	-0.037
Mof_C 	C 	0.6392	0.712	0.3294	0.109
Mof_C 	C 	0.6419	0.387	0.3349	0.113
Mof_C 	C 	0.7925	0.0255	0.4301	0.188
Mof_C 	C 	0.6637	0.3968	0.2563	-0.189
Mof_H 	H 	0.6571	0.4676	0.2181	0.101
Mof_C 	C 	0.7149	0.795	0.3353	0.104
Mof_H 	H 	0.744	0.7837	0.3548	-0.012
Mof_C 	C 	0.6953	0.2995	0.236	0.127
Mof_H 	H 	0.7092	0.3062	0.1826	-0.015
Mof_C 	C 	0.6835	0.6967	0.3583	-0.177
Mof_H 	H 	0.6915	0.622	0.3923	0.093
Mof_S 	S 	0.55245	0.3066	0.6183	-0.001
Mof_S 	S 	0.55587	0.6055	0.6089	-0.003
Mof_N 	N 	0.7768	0.9548	0.6362	-0.24
Mof_N 	N 	0.7072	0.8024	0.7133	-0.221
Mof_C 	C 	0.5236	0.4579	0.6126	-0.005
Mof_C 	C 	0.6632	0.0808	0.7412	0.107
Mof_H 	H 	0.6557	0.0059	0.7754	-0.001
Mof_N 	N 	0.7056	0.0935	0.7138	-0.206
Mof_C 	C 	0.6047	0.5187	0.6411	-0.033
Mof_C 	C 	0.6564	0.7186	0.6075	-0.188
Mof_H 	H 	0.6445	0.726	0.5524	0.098
Mof_C 	C 	0.6878	0.8071	0.6352	0.118
Mof_H 	H 	0.6968	0.8763	0.5977	-0.017
Mof_C 	C 	0.6305	0.1752	0.7203	-0.175
Mof_H 	H 	0.6016	0.1615	0.7408	0.096
Mof_C 	C 	0.604	0.3832	0.645	-0.038
Mof_C 	C 	0.6392	0.288	0.6706	0.11
Mof_C 	C 	0.6419	0.613	0.6651	0.11
Mof_C 	C 	0.7925	0.9745	0.5699	0.161
Mof_C 	C 	0.6637	0.6032	0.7437	-0.189
Mof_H 	H 	0.6571	0.5324	0.7819	0.098
Mof_C 	C 	0.7149	0.205	0.6647	0.105
Mof_H 	H 	0.744	0.2163	0.6452	-0.007
Mof_C 	C 	0.6953	0.7005	0.764	0.123
Mof_H 	H 	0.7092	0.6938	0.8174	-0.016
Mof_C 	C 	0.6835	0.3033	0.6417	-0.174
Mof_H 	H 	0.6915	0.378	0.6077	0.093
Mof_S 	S 	0.94755	0.6934	0.1183	-0.003
Mof_S 	S 	0.94413	0.3945	0.1089	0.008
Mof_N 	N 	0.7232	0.0452	0.1362	-0.24
Mof_N 	N 	0.7928	0.1976	0.2133	-0.222
Mof_C 	C 	0.9764	0.5421	0.1126	-0.004
Mof_C 	C 	0.8368	0.9192	0.2412	0.106
Mof_H 	H 	0.8443	0.9941	0.2754	-0.014
Mof_N 	N 	0.7944	0.9065	0.2138	-0.219
Mof_C 	C 	0.8953	0.4813	0.1411	-0.034
Mof_C 	C 	0.8436	0.2814	0.1075	-0.187
Mof_H 	H 	0.8555	0.274	0.0524	0.104
Mof_C 	C 	0.8122	0.1929	0.1352	0.123
Mof_H 	H 	0.8032	0.1237	0.0977	-0.011
Mof_C 	C 	0.8695	0.8248	0.2203	-0.179
Mof_H 	H 	0.8984	0.8385	0.2408	0.094
Mof_C 	C 	0.896	0.6168	0.145	-0.037
Mof_C 	C 	0.8608	0.712	0.1706	0.11
Mof_C 	C 	0.8581	0.387	0.1651	0.114
Mof_C 	C 	0.7075	0.0255	0.0699	0.191
Mof_C 	C 	0.8363	0.3968	0.2437	-0.19
Mof_H 	H 	0.8429	0.4676	0.2819	0.1
Mof_C 	C 	0.7851	0.795	0.1647	0.105
Mof_H 	H 	0.756	0.7837	0.1452	-0.011
Mof_C 	C 	0.8047	0.2995	0.264	0.127
Mof_H 	H 	0.7908	0.3062	0.3174	-0.016
Mof_C 	C 	0.8165	0.6967	0.1417	-0.176
Mof_H 	H 	0.8085	0.622	0.1077	0.095
Mof_Fe	Fe	0.25	0.0502	0.25	0.782
Mof_Fe	Fe	0.25	0.9498	0.75	0.746
Mof_Fe	Fe	0.75	0.9498	0.75	0.746
Mof_Fe	Fe	0.75	0.0502	0.25	0.782
Mof_N 	N 	0.3136	0	-0	-0.175
Mof_N 	N 	0.1864	0	0.5	-0.182
Mof_N 	N 	0.6864	0	-0	-0.175
Mof_N 	N 	0.8136	0	0.5	-0.182
_end
