data_functionalizedCrystal
_audit_creation_method	'EQeq! by Chris Wilmer'
_symmetry_space_group_name_H-M	'P1'
_symmetry_Int_Tables_number	1
_symmetry_cell_setting	triclinic
loop_
_symmetry_equiv_pos_as_xyz
  x,y,z
_cell_length_a	7.5571
_cell_length_b	12.571
_cell_length_c	12.571
_cell_angle_alpha	84.8165
_cell_angle_beta	72.5078
_cell_angle_gamma	72.5078
loop_
_atom_site_label
_atom_site_type_symbol
_atom_site_fract_x
_atom_site_fract_y
_atom_site_fract_z
_atom_site_charge
Mof_Zn	Zn	0.5	0	-0	1.14
Mof_Zn	Zn	0.75	0.5	0.5	1.201
Mof_H 	H 	0.625	0.852	0.648	0.229
Mof_H 	H 	0.125	0.148	0.352	0.178
Mof_H 	H 	0.727	0.648	0.148	0.201
Mof_H 	H 	0.523	0.352	0.852	0.228
Mof_C 	C 	0.6113	0.8237	0.8089	0.393
Mof_C 	C 	0.2439	0.1763	0.1911	0.363
Mof_C 	C 	0.5798	0.8089	0.1763	0.388
Mof_C 	C 	0.565	0.1911	0.8237	0.382
Mof_C 	C 	0.0061	0.3089	0.3237	0.333
Mof_C 	C 	0.6387	0.6911	0.6763	0.393
Mof_C 	C 	0.685	0.6763	0.3089	0.386
Mof_C 	C 	0.6702	0.3237	0.6911	0.386
Mof_C 	C 	0.625	0.7972	0.7028	-0.438
Mof_C 	C 	0.625	0.632	0.868	0.14
Mof_C 	C 	0.125	0.2028	0.2972	-0.437
Mof_C 	C 	0.125	0.368	0.132	0.133
Mof_C 	C 	0.6722	0.7028	0.2028	-0.45
Mof_C 	C 	0.507	0.868	0.368	0.135
Mof_C 	C 	0.5778	0.2972	0.7972	-0.446
Mof_C 	C 	0.743	0.132	0.632	0.142
Mof_S 	S 	0.625	0.53406	0.96594	0.062
Mof_S 	S 	0.125	0.46594	0.03406	-0.14
Mof_S 	S 	0.40906	0.96594	0.46594	0.05
Mof_S 	S 	0.84094	0.03406	0.53406	-0.107
Mof_N 	N 	0.6138	0.7375	0.8901	-0.155
Mof_N 	N 	0.2414	0.2625	0.1099	-0.207
Mof_N 	N 	0.4961	0.8901	0.2625	-0.163
Mof_N 	N 	0.6487	0.1099	0.7375	-0.199
Mof_N 	N 	0.0086	0.3901	0.2375	-0.191
Mof_N 	N 	0.6362	0.6099	0.7625	-0.177
Mof_N 	N 	0.6013	0.7625	0.3901	-0.178
Mof_N 	N 	0.7539	0.2375	0.6099	-0.185
Mof_O 	O 	0.60332	0.91619	0.84397	-0.357
Mof_O 	O 	0.36348	0.08381	0.15603	-0.49
Mof_O 	O 	0.55271	0.84397	0.08381	-0.439
Mof_O 	O 	0.48049	0.15603	0.91619	-0.405
Mof_O 	O 	0.88652	0.34397	0.41619	-0.408
Mof_O 	O 	0.64668	0.65603	0.58381	-0.43
Mof_O 	O 	0.76951	0.58381	0.34397	-0.43
Mof_O 	O 	0.69729	0.41619	0.65603	-0.431
_end
