data_functionalizedCrystal
_audit_creation_method	'EQeq! by Chris Wilmer'
_symmetry_space_group_name_H-M	'P1'
_symmetry_Int_Tables_number	1
_symmetry_cell_setting	triclinic
loop_
_symmetry_equiv_pos_as_xyz
  x,y,z
_cell_length_a	7.694
_cell_length_b	9.21
_cell_length_c	10.764
_cell_angle_alpha	108.598
_cell_angle_beta	92.3
_cell_angle_gamma	109.814
loop_
_atom_site_label
_atom_site_type_symbol
_atom_site_fract_x
_atom_site_fract_y
_atom_site_fract_z
_atom_site_charge
Mof_Ni	Ni	0.85027	0.86585	0.87217	1.145
Mof_Ni	Ni	0.14973	0.13415	0.12783	1.068
Mof_Ni	Ni	0.5	0	-0	1.046
Mof_H 	H 	0.6171	0.8581	0.361	0.123
Mof_H 	H 	0.8201	0.986	0.4146	0.13
Mof_H 	H 	0.5263	0.5783	0.3733	0.09
Mof_H 	H 	0.6728	0.5277	0.4341	0.084
Mof_H 	H 	0.7262	0.5887	0.0779	0.029
Mof_H 	H 	0.5555	0.6099	0.1424	0.061
Mof_H 	H 	0.8046	0.1388	0.9171	0.223
Mof_H 	H 	0.661	0.009	0.7928	0.234
Mof_H 	H 	0.3829	0.1419	0.639	0.088
Mof_H 	H 	0.1799	0.014	0.5854	0.067
Mof_H 	H 	0.4737	0.4217	0.6267	0.09
Mof_H 	H 	0.3272	0.4723	0.5659	0.095
Mof_H 	H 	0.2738	0.4113	0.9221	0.116
Mof_H 	H 	0.4445	0.3901	0.8576	0.117
Mof_H 	H 	0.1954	0.8612	0.0829	0.196
Mof_H 	H 	0.339	0.991	0.2072	0.3
Mof_C 	C 	0.7599	0.8986	0.1412	0.353
Mof_C 	C 	0.7991	0.8109	0.2319	-0.03
Mof_C 	C 	0.7455	0.8722	0.3703	-0.183
Mof_C 	C 	0.7808	0.7725	0.4505	0.014
Mof_C 	C 	0.6539	0.5888	0.3818	-0.156
Mof_C 	C 	0.7031	0.5214	0.2429	-0.041
Mof_C 	C 	0.6836	0.6251	0.1596	-0.12
Mof_C 	C 	0.7528	0.8345	0.5946	0.305
Mof_C 	C 	0.5662	0.3436	0.1689	0.351
Mof_C 	C 	0.2401	0.1014	0.8588	0.342
Mof_C 	C 	0.2009	0.1891	0.7681	-0.022
Mof_C 	C 	0.2545	0.1278	0.6297	-0.148
Mof_C 	C 	0.2192	0.2275	0.5495	-0.014
Mof_C 	C 	0.3461	0.4112	0.6182	-0.166
Mof_C 	C 	0.2969	0.4786	0.7571	0.011
Mof_C 	C 	0.3164	0.3749	0.8404	-0.186
Mof_C 	C 	0.2472	0.1655	0.4054	0.317
Mof_C 	C 	0.4338	0.6564	0.8311	0.338
Mof_O 	O 	0.6051	0.91	0.1272	-0.391
Mof_O 	O 	0.8908	0.9483	0.0763	-0.553
Mof_O 	O 	0.715	0.0291	0.8802	-0.686
Mof_O 	O 	0.3965	0.3173	0.1555	-0.474
Mof_O 	O 	0.6395	0.2353	0.1252	-0.464
Mof_O 	O 	0.6367	0.8997	0.6257	-0.252
Mof_O 	O 	0.8527	0.8109	0.6762	-0.384
Mof_O 	O 	0.3949	0.09	0.8728	-0.382
Mof_O 	O 	0.1092	0.0517	0.9237	-0.521
Mof_O 	O 	0.285	0.9709	0.1198	-0.647
Mof_O 	O 	0.6035	0.6827	0.8445	-0.405
Mof_O 	O 	0.3605	0.7647	0.8748	-0.329
Mof_O 	O 	0.3633	0.1003	0.3743	-0.352
Mof_O 	O 	0.1473	0.1891	0.3238	-0.427
_end
