data_functionalizedCrystal
_audit_creation_method	'EQeq! by Chris Wilmer'
_symmetry_space_group_name_H-M	'P1'
_symmetry_Int_Tables_number	1
_symmetry_cell_setting	triclinic
loop_
_symmetry_equiv_pos_as_xyz
  x,y,z
_cell_length_a	11.288
_cell_length_b	12.645
_cell_length_c	14.725
_cell_angle_alpha	90
_cell_angle_beta	90
_cell_angle_gamma	90
loop_
_atom_site_label
_atom_site_type_symbol
_atom_site_fract_x
_atom_site_fract_y
_atom_site_fract_z
_atom_site_charge
Mof_Pr	Pr	0.14936	0.38544	0.99286	2.285
Mof_Pr	Pr	0.35064	0.11456	0.49286	2.268
Mof_Pr	Pr	0.85064	0.38544	0.50714	2.197
Mof_Pr	Pr	0.64936	0.11456	0.00714	2.196
Mof_Pr	Pr	0.85064	0.61456	0.00714	2.199
Mof_Pr	Pr	0.64936	0.88544	0.50714	2.23
Mof_Pr	Pr	0.14936	0.61456	0.49286	2.302
Mof_Pr	Pr	0.35064	0.88544	0.99286	2.214
Mof_H 	H 	0.945	0.597	0.762	0.303
Mof_H 	H 	0.437	0.587	0.848	0.505
Mof_H 	H 	0.331	0.526	0.809	0.331
Mof_H 	H 	0.555	0.903	0.262	0.511
Mof_H 	H 	0.063	0.913	0.348	0.563
Mof_H 	H 	0.169	0.974	0.309	0.365
Mof_H 	H 	0.055	0.597	0.738	0.35
Mof_H 	H 	0.563	0.587	0.652	0.504
Mof_H 	H 	0.669	0.526	0.691	0.329
Mof_H 	H 	0.445	0.903	0.238	0.514
Mof_H 	H 	0.937	0.913	0.152	0.428
Mof_H 	H 	0.831	0.974	0.191	0.288
Mof_H 	H 	0.055	0.403	0.238	0.306
Mof_H 	H 	0.563	0.413	0.152	0.504
Mof_H 	H 	0.669	0.474	0.191	0.328
Mof_H 	H 	0.445	0.097	0.738	0.513
Mof_H 	H 	0.937	0.087	0.652	0.449
Mof_H 	H 	0.831	0.026	0.691	0.302
Mof_H 	H 	0.945	0.403	0.262	0.248
Mof_H 	H 	0.437	0.413	0.348	0.508
Mof_H 	H 	0.331	0.474	0.309	0.334
Mof_H 	H 	0.555	0.097	0.762	0.514
Mof_H 	H 	0.063	0.087	0.848	0.54
Mof_H 	H 	0.169	0.026	0.809	0.349
Mof_C 	C 	0.4271	0.4476	0.90415	0.747
Mof_C 	C 	0.3805	0.549	0.8631	-1.277
Mof_C 	C 	0.3017	0.61461	0.9245	0.827
Mof_C 	C 	0.03	0.4865	0.83201	0.771
Mof_C 	C 	0.0729	0.0524	0.40415	0.845
Mof_C 	C 	0.1195	0.951	0.3631	-1.372
Mof_C 	C 	0.1983	0.88539	0.4245	0.862
Mof_C 	C 	0.47	0.0135	0.33201	0.852
Mof_C 	C 	0.5729	0.4476	0.59585	0.743
Mof_C 	C 	0.6195	0.549	0.6369	-1.273
Mof_C 	C 	0.6983	0.61461	0.5755	0.825
Mof_C 	C 	0.97	0.4865	0.66799	0.606
Mof_C 	C 	0.9271	0.0524	0.09585	0.609
Mof_C 	C 	0.8805	0.951	0.1369	-1.127
Mof_C 	C 	0.8017	0.88539	0.0755	0.776
Mof_C 	C 	0.53	0.0135	0.16799	0.836
Mof_C 	C 	0.5729	0.5524	0.09585	0.742
Mof_C 	C 	0.6195	0.451	0.1369	-1.271
Mof_C 	C 	0.6983	0.38539	0.0755	0.825
Mof_C 	C 	0.97	0.5135	0.16799	0.54
Mof_C 	C 	0.9271	0.9476	0.59585	0.644
Mof_C 	C 	0.8805	0.049	0.6369	-1.177
Mof_C 	C 	0.8017	0.11461	0.5755	0.791
Mof_C 	C 	0.53	0.9865	0.66799	0.854
Mof_C 	C 	0.4271	0.5524	0.40415	0.75
Mof_C 	C 	0.3805	0.451	0.3631	-1.283
Mof_C 	C 	0.3017	0.38539	0.4245	0.832
Mof_C 	C 	0.03	0.5135	0.33201	0.744
Mof_C 	C 	0.0729	0.9476	0.90415	0.806
Mof_C 	C 	0.1195	0.049	0.8631	-1.319
Mof_C 	C 	0.1983	0.11461	0.9245	0.843
Mof_C 	C 	0.47	0.9865	0.83201	0.837
Mof_C 	C 	3.66827e-33	0.5518	0.75	-1.089
Mof_C 	C 	0.5	0.9482	0.25	-1.588
Mof_C 	C 	4.22537e-33	0.4482	0.25	-0.951
Mof_C 	C 	0.5	0.0518	0.75	-1.591
Mof_O 	O 	0.35451	0.38271	0.9371	-0.646
Mof_O 	O 	0.31722	0.71181	0.92622	-0.703
Mof_O 	O 	0.221	0.5677	0.96846	-0.662
Mof_O 	O 	0.98522	0.50865	0.90834	-0.823
Mof_O 	O 	0.1041	0.41311	0.82549	-0.6
Mof_O 	O 	0.53591	0.43123	0.90219	-0.486
Mof_O 	O 	0.14549	0.11729	0.4371	-0.657
Mof_O 	O 	0.18278	0.78819	0.42622	-0.72
Mof_O 	O 	0.279	0.9323	0.46846	-0.675
Mof_O 	O 	0.51478	0.99135	0.40834	-0.805
Mof_O 	O 	0.3959	0.08689	0.32549	-0.633
Mof_O 	O 	0.96409	0.06877	0.40219	-0.557
Mof_O 	O 	0.64549	0.38271	0.5629	-0.64
Mof_O 	O 	0.68278	0.71181	0.57378	-0.711
Mof_O 	O 	0.779	0.5677	0.53154	-0.669
Mof_O 	O 	0.01478	0.50865	0.59166	-0.695
Mof_O 	O 	0.8959	0.41311	0.67451	-0.579
Mof_O 	O 	0.46409	0.43123	0.59781	-0.487
Mof_O 	O 	0.85451	0.11729	0.0629	-0.621
Mof_O 	O 	0.81722	0.78819	0.07378	-0.695
Mof_O 	O 	0.721	0.9323	0.03154	-0.635
Mof_O 	O 	0.48522	0.99135	0.09166	-0.781
Mof_O 	O 	0.6041	0.08689	0.17451	-0.627
Mof_O 	O 	0.03591	0.06877	0.09781	-0.401
Mof_O 	O 	0.64549	0.61729	0.0629	-0.637
Mof_O 	O 	0.68278	0.28819	0.07378	-0.707
Mof_O 	O 	0.779	0.4323	0.03154	-0.669
Mof_O 	O 	0.01478	0.49135	0.09166	-0.661
Mof_O 	O 	0.8959	0.58689	0.17451	-0.565
Mof_O 	O 	0.46409	0.56877	0.09781	-0.48
Mof_O 	O 	0.85451	0.88271	0.5629	-0.63
Mof_O 	O 	0.81722	0.21181	0.57378	-0.702
Mof_O 	O 	0.721	0.0677	0.53154	-0.653
Mof_O 	O 	0.48522	0.00865	0.59166	-0.806
Mof_O 	O 	0.6041	0.91311	0.67451	-0.633
Mof_O 	O 	0.03591	0.93123	0.59781	-0.421
Mof_O 	O 	0.35451	0.61729	0.4371	-0.65
Mof_O 	O 	0.31722	0.28819	0.42622	-0.707
Mof_O 	O 	0.221	0.4323	0.46846	-0.661
Mof_O 	O 	0.98522	0.49135	0.40834	-0.825
Mof_O 	O 	0.1041	0.58689	0.32549	-0.59
Mof_O 	O 	0.53591	0.56877	0.40219	-0.489
Mof_O 	O 	0.14549	0.88271	0.9371	-0.649
Mof_O 	O 	0.18278	0.21181	0.92622	-0.711
Mof_O 	O 	0.279	0.0677	0.96846	-0.658
Mof_O 	O 	0.51478	0.00865	0.90834	-0.785
Mof_O 	O 	0.3959	0.91311	0.82549	-0.628
Mof_O 	O 	0.96409	0.93123	0.90219	-0.541
_end
