data_functionalizedCrystal
_audit_creation_method	'EQeq! by Chris Wilmer'
_symmetry_space_group_name_H-M	'P1'
_symmetry_Int_Tables_number	1
_symmetry_cell_setting	triclinic
loop_
_symmetry_equiv_pos_as_xyz
  x,y,z
_cell_length_a	18.6505
_cell_length_b	18.6505
_cell_length_c	18.6505
_cell_angle_alpha	60
_cell_angle_beta	60
_cell_angle_gamma	60
loop_
_atom_site_label
_atom_site_type_symbol
_atom_site_fract_x
_atom_site_fract_y
_atom_site_fract_z
_atom_site_charge
Mof_Cu	Cu	2.4783e-17	0.56933	0.43067	0.796
Mof_Cu	Cu	0.56933	0	0.43067	0.796
Mof_Cu	Cu	0.56933	0	-0	0.693
Mof_Cu	Cu	-2.4783e-17	0.43067	0.56933	0.796
Mof_Cu	Cu	-0	0.56933	-0	0.693
Mof_Cu	Cu	2.4783e-17	0	0.43067	0.681
Mof_Cu	Cu	4.9566e-17	0.43067	-0	0.682
Mof_Cu	Cu	-2.4783e-17	2.4783e-17	0.56933	0.694
Mof_Cu	Cu	0.43067	2.4783e-17	0.56933	0.797
Mof_Cu	Cu	0.43067	0.56933	-0	0.797
Mof_Cu	Cu	0.43067	0	-0	0.682
Mof_Cu	Cu	0.56933	0.43067	-0	0.797
Mof_H 	H 	0.0321	0.7277	0.5125	0.031
Mof_H 	H 	0.7277	0.0321	0.7277	0.057
Mof_H 	H 	0.2723	0.4875	0.9679	0.077
Mof_H 	H 	0.5125	0.7277	0.7277	0.095
Mof_H 	H 	0.7277	0.5125	0.0321	0.031
Mof_H 	H 	0.5125	0.0321	0.7277	0.031
Mof_H 	H 	0.7277	0.7277	0.0321	0.057
Mof_H 	H 	0.4875	0.2723	0.2723	0.008
Mof_H 	H 	0.4875	0.9679	0.2723	0.077
Mof_H 	H 	0.0321	0.7277	0.7277	0.057
Mof_H 	H 	0.0321	0.5125	0.7277	0.031
Mof_H 	H 	0.7277	0.0321	0.5125	0.031
Mof_H 	H 	0.7277	0.5125	0.7277	0.095
Mof_H 	H 	0.2723	0.2723	0.4875	0.008
Mof_H 	H 	0.2723	0.9679	0.2723	0.054
Mof_H 	H 	0.4875	0.2723	0.9679	0.077
Mof_H 	H 	0.5125	0.7277	0.0321	0.031
Mof_H 	H 	0.2723	0.2723	0.9679	0.054
Mof_H 	H 	0.9679	0.4875	0.2723	0.077
Mof_H 	H 	0.9679	0.2723	0.2723	0.054
Mof_H 	H 	0.2723	0.4875	0.2723	0.008
Mof_H 	H 	0.9679	0.2723	0.4875	0.077
Mof_H 	H 	0.2723	0.9679	0.4875	0.077
Mof_H 	H 	0.7277	0.7277	0.5125	0.095
Mof_C 	C 	0.02509	0.83717	0.56887	0.344
Mof_C 	C 	0.96794	0.30106	0.30106	0.033
Mof_C 	C 	0.03206	0.69894	0.69894	0.046
Mof_C 	C 	0.69894	0.03206	0.69894	0.046
Mof_C 	C 	0.97491	0.43113	0.43113	0.339
Mof_C 	C 	0.03206	0.57006	0.69894	0.052
Mof_C 	C 	0.42994	0.30106	0.30106	0.075
Mof_C 	C 	0.97491	0.16283	0.43113	0.34
Mof_C 	C 	0.69894	0.57006	0.69894	0.017
Mof_C 	C 	0.25799	0.38705	0.38705	-0.166
Mof_C 	C 	0.56887	0.56887	0.83717	0.336
Mof_C 	C 	0.69894	0.57006	0.03206	0.052
Mof_C 	C 	0.16283	0.43113	0.97491	0.34
Mof_C 	C 	0.16283	0.43113	0.43113	0.368
Mof_C 	C 	0.03206	0.69894	0.57006	0.052
Mof_C 	C 	0.42994	0.96794	0.30106	0.03
Mof_C 	C 	0.03209	0.61295	0.74201	-0.107
Mof_C 	C 	0.69894	0.69894	0.03206	0.046
Mof_C 	C 	0.61295	0.61295	0.74201	-0.032
Mof_C 	C 	0.30106	0.96794	0.42994	0.03
Mof_C 	C 	0.30106	0.96794	0.30106	0.033
Mof_C 	C 	0.30106	0.42994	0.96794	0.03
Mof_C 	C 	0.38705	0.38705	0.25799	-0.166
Mof_C 	C 	0.43113	0.97491	0.16283	0.34
Mof_C 	C 	0.96791	0.38705	0.38705	-0.057
Mof_C 	C 	0.83717	0.02509	0.56887	0.344
Mof_C 	C 	0.38705	0.25799	0.38705	-0.166
Mof_C 	C 	0.30106	0.30106	0.96794	0.033
Mof_C 	C 	0.56887	0.02509	0.83717	0.344
Mof_C 	C 	0.57006	0.69894	0.03206	0.052
Mof_C 	C 	0.69894	0.03206	0.57006	0.052
Mof_C 	C 	0.02509	0.56887	0.83717	0.344
Mof_C 	C 	0.42994	0.30106	0.96794	0.03
Mof_C 	C 	0.96794	0.42994	0.30106	0.03
Mof_C 	C 	0.96794	0.30106	0.42994	0.03
Mof_C 	C 	0.83717	0.56887	0.02509	0.344
Mof_C 	C 	0.69894	0.69894	0.57006	0.017
Mof_C 	C 	0.61295	0.03209	0.74201	-0.107
Mof_C 	C 	0.02509	0.56887	0.56887	0.362
Mof_C 	C 	0.96791	0.38705	0.25799	-0.074
Mof_C 	C 	0.03209	0.74201	0.61295	-0.107
Mof_C 	C 	0.57006	0.03206	0.69894	0.052
Mof_C 	C 	0.38705	0.25799	0.96791	-0.074
Mof_C 	C 	0.57006	0.69894	0.69894	0.017
Mof_C 	C 	0.43113	0.16283	0.97491	0.34
Mof_C 	C 	0.74201	0.61295	0.61295	-0.032
Mof_C 	C 	0.56887	0.83717	0.56887	0.336
Mof_C 	C 	0.38705	0.96791	0.25799	-0.074
Mof_C 	C 	0.43113	0.43113	0.97491	0.339
Mof_C 	C 	0.61295	0.03209	0.61295	-0.131
Mof_C 	C 	0.56887	0.56887	0.02509	0.362
Mof_C 	C 	0.61295	0.74201	0.61295	-0.032
Mof_C 	C 	0.43113	0.43113	0.16283	0.368
Mof_C 	C 	0.30106	0.30106	0.42994	0.075
Mof_C 	C 	0.43113	0.97491	0.43113	0.339
Mof_C 	C 	0.74201	0.61295	0.03209	-0.107
Mof_C 	C 	0.96791	0.25799	0.38705	-0.074
Mof_C 	C 	0.97491	0.43113	0.16283	0.34
Mof_C 	C 	0.38705	0.96791	0.38705	-0.057
Mof_C 	C 	0.30106	0.42994	0.30106	0.075
Mof_C 	C 	0.56887	0.83717	0.02509	0.344
Mof_C 	C 	0.56887	0.02509	0.56887	0.362
Mof_C 	C 	0.61295	0.74201	0.03209	-0.107
Mof_C 	C 	0.83717	0.56887	0.56887	0.336
Mof_C 	C 	0.25799	0.96791	0.38705	-0.074
Mof_C 	C 	0.61295	0.61295	0.03209	-0.131
Mof_C 	C 	0.03209	0.61295	0.61295	-0.131
Mof_C 	C 	0.43113	0.16283	0.43113	0.368
Mof_C 	C 	0.25799	0.38705	0.96791	-0.074
Mof_C 	C 	0.16283	0.97491	0.43113	0.34
Mof_C 	C 	0.38705	0.38705	0.96791	-0.057
Mof_C 	C 	0.74201	0.03209	0.61295	-0.107
Mof_O 	O 	0.49239	0.02107	0.87407	-0.362
Mof_O 	O 	0.38753	0.12593	0.97893	-0.349
Mof_O 	O 	0.87407	0.02107	0.49239	-0.362
Mof_O 	O 	0.02107	0.49239	0.61247	-0.458
Mof_O 	O 	0.50761	0.97893	0.38753	-0.289
Mof_O 	O 	0.38753	0.97893	0.50761	-0.289
Mof_O 	O 	0.97893	0.38753	0.12593	-0.349
Mof_O 	O 	0.12593	0.97893	0.50761	-0.33
Mof_O 	O 	0.02107	0.87407	0.61247	-0.342
Mof_O 	O 	0.49239	0.87407	0.61247	-0.28
Mof_O 	O 	0.61247	0.49239	0.02107	-0.458
Mof_O 	O 	0.50761	0.38753	0.97893	-0.289
Mof_O 	O 	0.02107	0.61247	0.87407	-0.342
Mof_O 	O 	0.49239	0.61247	0.02107	-0.458
Mof_O 	O 	0.38753	0.12593	0.50761	-0.469
Mof_O 	O 	0.97893	0.12593	0.38753	-0.349
Mof_O 	O 	0.12593	0.50761	0.38753	-0.469
Mof_O 	O 	0.61247	0.49239	0.87407	-0.28
Mof_O 	O 	0.12593	0.50761	0.97893	-0.33
Mof_O 	O 	0.02107	0.61247	0.49239	-0.458
Mof_O 	O 	0.87407	0.61247	0.02107	-0.342
Mof_O 	O 	0.50761	0.38753	0.12593	-0.469
Mof_O 	O 	0.38753	0.50761	0.12593	-0.469
Mof_O 	O 	0.12593	0.38753	0.50761	-0.469
Mof_O 	O 	0.49239	0.61247	0.87407	-0.28
Mof_O 	O 	0.49239	0.02107	0.61247	-0.458
Mof_O 	O 	0.38753	0.50761	0.97893	-0.289
Mof_O 	O 	0.97893	0.12593	0.50761	-0.33
Mof_O 	O 	0.87407	0.61247	0.49239	-0.28
Mof_O 	O 	0.12593	0.38753	0.97893	-0.349
Mof_O 	O 	0.87407	0.49239	0.02107	-0.362
Mof_O 	O 	0.87407	0.49239	0.61247	-0.28
Mof_O 	O 	0.49239	0.87407	0.02107	-0.362
Mof_O 	O 	0.02107	0.87407	0.49239	-0.362
Mof_O 	O 	0.50761	0.97893	0.12593	-0.33
Mof_O 	O 	0.61247	0.02107	0.49239	-0.458
Mof_O 	O 	0.61247	0.87407	0.02107	-0.342
Mof_O 	O 	0.50761	0.12593	0.38753	-0.469
Mof_O 	O 	0.87407	0.02107	0.61247	-0.342
Mof_O 	O 	0.02107	0.49239	0.87407	-0.362
Mof_O 	O 	0.97893	0.50761	0.38753	-0.289
Mof_O 	O 	0.97893	0.38753	0.50761	-0.289
Mof_O 	O 	0.12593	0.97893	0.38753	-0.349
Mof_O 	O 	0.61247	0.02107	0.87407	-0.342
Mof_O 	O 	0.61247	0.87407	0.49239	-0.28
Mof_O 	O 	0.97893	0.50761	0.12593	-0.33
Mof_O 	O 	0.38753	0.97893	0.12593	-0.349
Mof_O 	O 	0.50761	0.12593	0.97893	-0.33
_end
