data_functionalizedCrystal
_audit_creation_method	'EQeq! by Chris Wilmer'
_symmetry_space_group_name_H-M	'P1'
_symmetry_Int_Tables_number	1
_symmetry_cell_setting	triclinic
loop_
_symmetry_equiv_pos_as_xyz
  x,y,z
_cell_length_a	13.5156
_cell_length_b	13.5156
_cell_length_c	14.872
_cell_angle_alpha	90
_cell_angle_beta	90
_cell_angle_gamma	120
loop_
_atom_site_label
_atom_site_type_symbol
_atom_site_fract_x
_atom_site_fract_y
_atom_site_fract_z
_atom_site_charge
Mof_La	La	0.66667	0.33334	0.33177	2.321
Mof_La	La	0.33333	0.66666	0.16823	2.32
Mof_La	La	0.33333	0.66666	0.66823	2.329
Mof_La	La	0.66667	0.33334	0.83177	2.332
Mof_Cu	Cu	0.5	0	0.5	0.899
Mof_Cu	Cu	0.5	0.5	0.5	0.927
Mof_Cu	Cu	-1.90561e-17	0.5	0.5	0.898
Mof_Cu	Cu	0.5	0	-0	0.872
Mof_Cu	Cu	-0	0.5	-0	0.871
Mof_Cu	Cu	0.5	0.5	-0	0.9
Mof_H 	H 	0.7562	0.0439	0.4572	0.127
Mof_H 	H 	0.6478	0.9781	0.576	0.16
Mof_H 	H 	0.7976	0.1433	0.5355	0.147
Mof_H 	H 	0.7247	0.1877	0.6195	0.152
Mof_H 	H 	0.6698	0.0673	0.6852	0.122
Mof_H 	H 	0.2877	0.2438	0.4572	0.132
Mof_H 	H 	0.3303	0.3522	0.576	0.093
Mof_H 	H 	0.3457	0.2024	0.5355	0.134
Mof_H 	H 	0.463	0.2753	0.6195	0.151
Mof_H 	H 	0.3975	0.3302	0.6852	0.139
Mof_H 	H 	0.9561	0.7123	0.4572	0.184
Mof_H 	H 	0.0219	0.6697	0.576	0.036
Mof_H 	H 	0.8567	0.6543	0.5355	0.164
Mof_H 	H 	0.8123	0.537	0.6195	0.162
Mof_H 	H 	0.9327	0.6025	0.6852	0.175
Mof_H 	H 	0.7123	0.9561	0.0428	0.237
Mof_H 	H 	0.6697	0.0219	0.924	0.041
Mof_H 	H 	0.6543	0.8567	0.9645	0.263
Mof_H 	H 	0.537	0.8123	0.8805	0.172
Mof_H 	H 	0.6025	0.9327	0.8148	0.177
Mof_H 	H 	0.0439	0.7562	0.0428	0.181
Mof_H 	H 	0.9781	0.6478	0.924	0.161
Mof_H 	H 	0.1433	0.7976	0.9645	0.249
Mof_H 	H 	0.1877	0.7247	0.8805	0.162
Mof_H 	H 	0.0673	0.6698	0.8148	0.125
Mof_H 	H 	0.2438	0.2877	0.0428	0.19
Mof_H 	H 	0.3522	0.3303	0.924	0.093
Mof_H 	H 	0.2024	0.3457	0.9645	0.24
Mof_H 	H 	0.2753	0.463	0.8805	0.162
Mof_H 	H 	0.3302	0.3975	0.8148	0.144
Mof_H 	H 	0.2438	0.9561	0.5428	0.168
Mof_H 	H 	0.3522	0.0219	0.424	0.034
Mof_H 	H 	0.2024	0.8567	0.4645	0.149
Mof_H 	H 	0.2753	0.8123	0.3805	0.158
Mof_H 	H 	0.3302	0.9327	0.3148	0.168
Mof_H 	H 	0.7123	0.7562	0.5428	0.163
Mof_H 	H 	0.6697	0.6478	0.424	0.1
Mof_H 	H 	0.6543	0.7976	0.4645	0.163
Mof_H 	H 	0.537	0.7247	0.3805	0.159
Mof_H 	H 	0.6025	0.6698	0.3148	0.151
Mof_H 	H 	0.0439	0.2877	0.5428	0.111
Mof_H 	H 	0.9781	0.3303	0.424	0.159
Mof_H 	H 	0.1433	0.3457	0.4645	0.131
Mof_H 	H 	0.1877	0.463	0.3805	0.147
Mof_H 	H 	0.0673	0.3975	0.3148	0.114
Mof_H 	H 	0.2877	0.0439	0.9572	0.054
Mof_H 	H 	0.3303	0.9781	0.076	0.159
Mof_H 	H 	0.3457	0.1433	0.0355	0.024
Mof_H 	H 	0.463	0.1877	0.1195	0.135
Mof_H 	H 	0.3975	0.0673	0.1852	0.109
Mof_H 	H 	0.9561	0.2438	0.9572	0.113
Mof_H 	H 	0.0219	0.3522	0.076	0.032
Mof_H 	H 	0.8567	0.2024	0.0355	0.046
Mof_H 	H 	0.8123	0.2753	0.1195	0.146
Mof_H 	H 	0.9327	0.3302	0.1852	0.164
Mof_H 	H 	0.7562	0.7123	0.9572	0.107
Mof_H 	H 	0.6478	0.6697	0.076	0.102
Mof_H 	H 	0.7976	0.6543	0.0355	0.061
Mof_H 	H 	0.7247	0.537	0.1195	0.147
Mof_H 	H 	0.6698	0.6025	0.1852	0.146
Mof_C 	C 	0.7275	0.1801	0.4341	0.39
Mof_C 	C 	0.7435	0.0964	0.4911	-0.337
Mof_C 	C 	0.6665	0.1124	0.6366	-0.371
Mof_C 	C 	0.5599	0.1211	0.6566	0.472
Mof_C 	C 	0.4526	0.2725	0.4341	0.394
Mof_C 	C 	0.3529	0.2565	0.4911	-0.339
Mof_C 	C 	0.4459	0.3335	0.6366	-0.385
Mof_C 	C 	0.5612	0.4401	0.6566	0.48
Mof_C 	C 	0.8199	0.5474	0.4341	0.412
Mof_C 	C 	0.9036	0.6471	0.4911	-0.369
Mof_C 	C 	0.8876	0.5541	0.6366	-0.404
Mof_C 	C 	0.8789	0.4388	0.6566	0.49
Mof_C 	C 	0.5474	0.8199	0.0659	0.461
Mof_C 	C 	0.6471	0.9036	0.0089	-0.575
Mof_C 	C 	0.5541	0.8876	0.8634	-0.415
Mof_C 	C 	0.4388	0.8789	0.8434	0.497
Mof_C 	C 	0.1801	0.7275	0.0659	0.44
Mof_C 	C 	0.0964	0.7435	0.0089	-0.548
Mof_C 	C 	0.1124	0.6665	0.8634	-0.382
Mof_C 	C 	0.1211	0.5599	0.8434	0.479
Mof_C 	C 	0.2725	0.4526	0.0659	0.447
Mof_C 	C 	0.2565	0.3529	0.0089	-0.558
Mof_C 	C 	0.3335	0.4459	0.8634	-0.398
Mof_C 	C 	0.4401	0.5612	0.8434	0.487
Mof_C 	C 	0.2725	0.8199	0.5659	0.407
Mof_C 	C 	0.2565	0.9036	0.5089	-0.359
Mof_C 	C 	0.3335	0.8876	0.3634	-0.4
Mof_C 	C 	0.4401	0.8789	0.3434	0.488
Mof_C 	C 	0.5474	0.7275	0.5659	0.403
Mof_C 	C 	0.6471	0.7435	0.5089	-0.36
Mof_C 	C 	0.5541	0.6665	0.3634	-0.39
Mof_C 	C 	0.4388	0.5599	0.3434	0.482
Mof_C 	C 	0.1801	0.4526	0.5659	0.385
Mof_C 	C 	0.0964	0.3529	0.5089	-0.325
Mof_C 	C 	0.1124	0.4459	0.3634	-0.367
Mof_C 	C 	0.1211	0.5612	0.3434	0.47
Mof_C 	C 	0.4526	0.1801	0.9341	0.332
Mof_C 	C 	0.3529	0.0964	0.9911	-0.101
Mof_C 	C 	0.4459	0.1124	0.1366	-0.35
Mof_C 	C 	0.5612	0.1211	0.1566	0.461
Mof_C 	C 	0.8199	0.2725	0.9341	0.357
Mof_C 	C 	0.9036	0.2565	0.9911	-0.145
Mof_C 	C 	0.8876	0.3335	0.1366	-0.385
Mof_C 	C 	0.8789	0.4401	0.1566	0.48
Mof_C 	C 	0.7275	0.5474	0.9341	0.353
Mof_C 	C 	0.7435	0.6471	0.9911	-0.146
Mof_C 	C 	0.6665	0.5541	0.1366	-0.374
Mof_C 	C 	0.5599	0.4388	0.1566	0.473
Mof_N 	N 	0.6509	0.0415	0.557	-0.213
Mof_N 	N 	0.3906	0.3491	0.557	-0.16
Mof_N 	N 	0.9585	0.6094	0.557	-0.094
Mof_N 	N 	0.6094	0.9585	0.943	-0.045
Mof_N 	N 	0.0415	0.6509	0.943	-0.16
Mof_N 	N 	0.3491	0.3906	0.943	-0.104
Mof_N 	N 	0.3491	0.9585	0.443	-0.098
Mof_N 	N 	0.6094	0.6509	0.443	-0.157
Mof_N 	N 	0.0415	0.3906	0.443	-0.218
Mof_N 	N 	0.3906	0.0415	0.057	-0.268
Mof_N 	N 	0.9585	0.3491	0.057	-0.144
Mof_N 	N 	0.6509	0.6094	0.057	-0.206
Mof_O 	O 	0.635	0.1828	0.445	-0.529
Mof_O 	O 	0.8009	0.2411	0.3779	-0.416
Mof_O 	O 	0.4754	0.0725	0.6056	-0.457
Mof_O 	O 	0.5632	0.177	0.7248	-0.538
Mof_O 	O 	0.5478	0.365	0.445	-0.526
Mof_O 	O 	0.4402	0.1991	0.3779	-0.43
Mof_O 	O 	0.5971	0.5246	0.6056	-0.434
Mof_O 	O 	0.6138	0.4368	0.7248	-0.53
Mof_O 	O 	0.8172	0.4522	0.445	-0.518
Mof_O 	O 	0.7589	0.5598	0.3779	-0.418
Mof_O 	O 	0.9275	0.4029	0.6056	-0.407
Mof_O 	O 	0.823	0.3862	0.7248	-0.525
Mof_O 	O 	0.4522	0.8172	0.055	-0.547
Mof_O 	O 	0.5598	0.7589	0.1221	-0.439
Mof_O 	O 	0.4029	0.9275	0.8944	-0.393
Mof_O 	O 	0.3862	0.823	0.7752	-0.524
Mof_O 	O 	0.1828	0.635	0.055	-0.559
Mof_O 	O 	0.2411	0.8009	0.1221	-0.437
Mof_O 	O 	0.0725	0.4754	0.8944	-0.44
Mof_O 	O 	0.177	0.5632	0.7752	-0.538
Mof_O 	O 	0.365	0.5478	0.055	-0.556
Mof_O 	O 	0.1991	0.4402	0.1221	-0.452
Mof_O 	O 	0.5246	0.5971	0.8944	-0.418
Mof_O 	O 	0.4368	0.6138	0.7752	-0.529
Mof_O 	O 	0.365	0.8172	0.555	-0.519
Mof_O 	O 	0.1991	0.7589	0.6221	-0.426
Mof_O 	O 	0.5246	0.9275	0.3944	-0.405
Mof_O 	O 	0.4368	0.823	0.2752	-0.521
Mof_O 	O 	0.4522	0.635	0.555	-0.528
Mof_O 	O 	0.5598	0.8009	0.6221	-0.412
Mof_O 	O 	0.4029	0.4754	0.3944	-0.439
Mof_O 	O 	0.3862	0.5632	0.2752	-0.53
Mof_O 	O 	0.1828	0.5478	0.555	-0.53
Mof_O 	O 	0.2411	0.4402	0.6221	-0.425
Mof_O 	O 	0.0725	0.5971	0.3944	-0.455
Mof_O 	O 	0.177	0.6138	0.2752	-0.535
Mof_O 	O 	0.5478	0.1828	0.945	-0.493
Mof_O 	O 	0.4402	0.2411	0.8779	-0.402
Mof_O 	O 	0.5971	0.0725	0.1056	-0.461
Mof_O 	O 	0.6138	0.177	0.2248	-0.535
Mof_O 	O 	0.8172	0.365	0.945	-0.484
Mof_O 	O 	0.7589	0.1991	0.8779	-0.404
Mof_O 	O 	0.9275	0.5246	0.1056	-0.41
Mof_O 	O 	0.823	0.4368	0.2248	-0.521
Mof_O 	O 	0.635	0.4522	0.945	-0.493
Mof_O 	O 	0.8009	0.5598	0.8779	-0.39
Mof_O 	O 	0.4754	0.4029	0.1056	-0.445
Mof_O 	O 	0.5632	0.3862	0.2248	-0.531
_end
