data_functionalizedCrystal
_audit_creation_method	'EQeq! by Chris Wilmer'
_symmetry_space_group_name_H-M	'P1'
_symmetry_Int_Tables_number	1
_symmetry_cell_setting	triclinic
loop_
_symmetry_equiv_pos_as_xyz
  x,y,z
_cell_length_a	18.6626
_cell_length_b	18.6626
_cell_length_c	18.6626
_cell_angle_alpha	60
_cell_angle_beta	60
_cell_angle_gamma	60
loop_
_atom_site_label
_atom_site_type_symbol
_atom_site_fract_x
_atom_site_fract_y
_atom_site_fract_z
_atom_site_charge
Mof_Cu	Cu	0.5	0.06986	0.93014	0.904
Mof_Cu	Cu	0.06986	0.5	0.5	0.904
Mof_Cu	Cu	0.93014	0.5	0.5	0.904
Mof_Cu	Cu	0.5	0.93014	0.06986	0.904
Mof_Cu	Cu	0.5	0.93014	0.5	0.904
Mof_Cu	Cu	0.06986	0.5	0.93014	0.904
Mof_Cu	Cu	0.93014	0.5	0.06986	0.904
Mof_Cu	Cu	0.5	0.06986	0.5	0.904
Mof_Cu	Cu	0.5	0.5	0.06986	0.904
Mof_Cu	Cu	0.06986	0.93014	0.5	0.904
Mof_Cu	Cu	0.93014	0.06986	0.5	0.904
Mof_Cu	Cu	0.5	0.5	0.93014	0.904
Mof_H 	H 	0.4682	0.9882	0.7718	0.046
Mof_H 	H 	0.9882	0.4682	0.7718	0.046
Mof_H 	H 	0.7718	0.7718	0.4682	0.047
Mof_H 	H 	0.7718	0.7718	0.9882	0.047
Mof_H 	H 	0.4682	0.7718	0.7718	0.047
Mof_H 	H 	0.9882	0.7718	0.7718	0.047
Mof_H 	H 	0.7718	0.4682	0.9882	0.046
Mof_H 	H 	0.7718	0.9882	0.4682	0.046
Mof_H 	H 	0.4682	0.7718	0.9882	0.046
Mof_H 	H 	0.9882	0.7718	0.4682	0.046
Mof_H 	H 	0.7718	0.9882	0.7718	0.047
Mof_H 	H 	0.7718	0.4682	0.7718	0.047
Mof_H 	H 	0.0118	0.5318	0.2282	0.046
Mof_H 	H 	0.5318	0.0118	0.2282	0.046
Mof_H 	H 	0.2282	0.2282	0.5318	0.047
Mof_H 	H 	0.2282	0.2282	0.0118	0.047
Mof_H 	H 	0.2282	0.5318	0.2282	0.047
Mof_H 	H 	0.2282	0.0118	0.2282	0.047
Mof_H 	H 	0.5318	0.2282	0.0118	0.046
Mof_H 	H 	0.0118	0.2282	0.5318	0.046
Mof_H 	H 	0.2282	0.5318	0.0118	0.046
Mof_H 	H 	0.2282	0.0118	0.5318	0.046
Mof_H 	H 	0.0118	0.2282	0.2282	0.047
Mof_H 	H 	0.5318	0.2282	0.2282	0.047
Mof_C 	C 	0.46734	0.93086	0.8009	0.049
Mof_C 	C 	0.93086	0.46734	0.8009	0.049
Mof_C 	C 	0.8009	0.8009	0.46734	0.05
Mof_C 	C 	0.8009	0.8009	0.93086	0.041
Mof_C 	C 	0.46734	0.8009	0.8009	0.05
Mof_C 	C 	0.93086	0.8009	0.8009	0.041
Mof_C 	C 	0.8009	0.46734	0.93086	0.049
Mof_C 	C 	0.8009	0.93086	0.46734	0.049
Mof_C 	C 	0.46734	0.8009	0.93086	0.049
Mof_C 	C 	0.93086	0.8009	0.46734	0.049
Mof_C 	C 	0.8009	0.93086	0.8009	0.041
Mof_C 	C 	0.8009	0.46734	0.8009	0.05
Mof_C 	C 	0.06914	0.53266	0.1991	0.049
Mof_C 	C 	0.53266	0.06914	0.1991	0.049
Mof_C 	C 	0.1991	0.1991	0.53266	0.05
Mof_C 	C 	0.1991	0.1991	0.06914	0.041
Mof_C 	C 	0.1991	0.53266	0.1991	0.05
Mof_C 	C 	0.1991	0.06914	0.1991	0.041
Mof_C 	C 	0.53266	0.1991	0.06914	0.049
Mof_C 	C 	0.06914	0.1991	0.53266	0.049
Mof_C 	C 	0.1991	0.53266	0.06914	0.049
Mof_C 	C 	0.1991	0.06914	0.53266	0.049
Mof_C 	C 	0.06914	0.1991	0.1991	0.041
Mof_C 	C 	0.53266	0.1991	0.1991	0.05
Mof_C 	C 	0.46676	0.8874	0.8874	-0.103
Mof_C 	C 	0.47428	0.9312	0.9312	0.347
Mof_C 	C 	0.8874	0.46676	0.75844	-0.105
Mof_C 	C 	0.9312	0.47428	0.66332	0.359
Mof_C 	C 	0.8874	0.75844	0.46676	-0.105
Mof_C 	C 	0.9312	0.66332	0.47428	0.359
Mof_C 	C 	0.75844	0.8874	0.8874	-0.098
Mof_C 	C 	0.66332	0.9312	0.9312	0.339
Mof_C 	C 	0.46676	0.8874	0.75844	-0.105
Mof_C 	C 	0.47428	0.9312	0.66332	0.359
Mof_C 	C 	0.8874	0.75844	0.8874	-0.098
Mof_C 	C 	0.9312	0.66332	0.9312	0.339
Mof_C 	C 	0.8874	0.46676	0.8874	-0.103
Mof_C 	C 	0.9312	0.47428	0.9312	0.347
Mof_C 	C 	0.75844	0.8874	0.46676	-0.105
Mof_C 	C 	0.66332	0.9312	0.47428	0.359
Mof_C 	C 	0.46676	0.75844	0.8874	-0.105
Mof_C 	C 	0.47428	0.66332	0.9312	0.359
Mof_C 	C 	0.8874	0.8874	0.46676	-0.103
Mof_C 	C 	0.9312	0.9312	0.47428	0.347
Mof_C 	C 	0.8874	0.8874	0.75844	-0.098
Mof_C 	C 	0.9312	0.9312	0.66332	0.339
Mof_C 	C 	0.75844	0.46676	0.8874	-0.105
Mof_C 	C 	0.66332	0.47428	0.9312	0.359
Mof_C 	C 	0.1126	0.53324	0.1126	-0.103
Mof_C 	C 	0.0688	0.52572	0.0688	0.347
Mof_C 	C 	0.53324	0.1126	0.24156	-0.105
Mof_C 	C 	0.52572	0.0688	0.33668	0.359
Mof_C 	C 	0.24156	0.1126	0.53324	-0.105
Mof_C 	C 	0.33668	0.0688	0.52572	0.359
Mof_C 	C 	0.1126	0.24156	0.1126	-0.098
Mof_C 	C 	0.0688	0.33668	0.0688	0.339
Mof_C 	C 	0.1126	0.53324	0.24156	-0.105
Mof_C 	C 	0.0688	0.52572	0.33668	0.359
Mof_C 	C 	0.24156	0.1126	0.1126	-0.098
Mof_C 	C 	0.33668	0.0688	0.0688	0.339
Mof_C 	C 	0.53324	0.1126	0.1126	-0.103
Mof_C 	C 	0.52572	0.0688	0.0688	0.347
Mof_C 	C 	0.1126	0.24156	0.53324	-0.105
Mof_C 	C 	0.0688	0.33668	0.52572	0.359
Mof_C 	C 	0.24156	0.53324	0.1126	-0.105
Mof_C 	C 	0.33668	0.52572	0.0688	0.359
Mof_C 	C 	0.1126	0.1126	0.53324	-0.103
Mof_C 	C 	0.0688	0.0688	0.52572	0.347
Mof_C 	C 	0.1126	0.1126	0.24156	-0.098
Mof_C 	C 	0.0688	0.0688	0.33668	0.339
Mof_C 	C 	0.53324	0.24156	0.1126	-0.105
Mof_C 	C 	0.52572	0.33668	0.0688	0.359
Mof_O 	O 	0.4788	0.00756	0.88758	-0.395
Mof_O 	O 	0.00756	0.4788	0.62606	-0.4
Mof_O 	O 	0.88758	0.62606	0.4788	-0.402
Mof_O 	O 	0.62606	0.88758	0.00756	-0.391
Mof_O 	O 	0.4788	0.88758	0.62606	-0.402
Mof_O 	O 	0.00756	0.62606	0.88758	-0.391
Mof_O 	O 	0.88758	0.4788	0.00756	-0.395
Mof_O 	O 	0.62606	0.00756	0.4788	-0.4
Mof_O 	O 	0.4788	0.62606	0.00756	-0.4
Mof_O 	O 	0.00756	0.88758	0.4788	-0.395
Mof_O 	O 	0.88758	0.00756	0.62606	-0.391
Mof_O 	O 	0.62606	0.4788	0.88758	-0.402
Mof_O 	O 	0.99244	0.5212	0.11242	-0.395
Mof_O 	O 	0.5212	0.99244	0.37394	-0.4
Mof_O 	O 	0.37394	0.11242	0.5212	-0.402
Mof_O 	O 	0.11242	0.37394	0.99244	-0.391
Mof_O 	O 	0.11242	0.5212	0.37394	-0.402
Mof_O 	O 	0.37394	0.99244	0.11242	-0.391
Mof_O 	O 	0.5212	0.11242	0.99244	-0.395
Mof_O 	O 	0.99244	0.37394	0.5212	-0.4
Mof_O 	O 	0.37394	0.5212	0.99244	-0.4
Mof_O 	O 	0.11242	0.99244	0.5212	-0.395
Mof_O 	O 	0.99244	0.11242	0.37394	-0.391
Mof_O 	O 	0.5212	0.37394	0.11242	-0.402
Mof_O 	O 	0.5212	0.99244	0.11242	-0.395
Mof_O 	O 	0.99244	0.5212	0.37394	-0.4
Mof_O 	O 	0.11242	0.37394	0.5212	-0.402
Mof_O 	O 	0.37394	0.11242	0.99244	-0.391
Mof_O 	O 	0.5212	0.11242	0.37394	-0.402
Mof_O 	O 	0.99244	0.37394	0.11242	-0.391
Mof_O 	O 	0.11242	0.5212	0.99244	-0.395
Mof_O 	O 	0.37394	0.99244	0.5212	-0.4
Mof_O 	O 	0.5212	0.37394	0.99244	-0.4
Mof_O 	O 	0.99244	0.11242	0.5212	-0.395
Mof_O 	O 	0.11242	0.99244	0.37394	-0.391
Mof_O 	O 	0.37394	0.5212	0.11242	-0.402
Mof_O 	O 	0.00756	0.4788	0.88758	-0.395
Mof_O 	O 	0.4788	0.00756	0.62606	-0.4
Mof_O 	O 	0.62606	0.88758	0.4788	-0.402
Mof_O 	O 	0.88758	0.62606	0.00756	-0.391
Mof_O 	O 	0.88758	0.4788	0.62606	-0.402
Mof_O 	O 	0.62606	0.00756	0.88758	-0.391
Mof_O 	O 	0.4788	0.88758	0.00756	-0.395
Mof_O 	O 	0.00756	0.62606	0.4788	-0.4
Mof_O 	O 	0.62606	0.4788	0.00756	-0.4
Mof_O 	O 	0.88758	0.00756	0.4788	-0.395
Mof_O 	O 	0.00756	0.88758	0.62606	-0.391
Mof_O 	O 	0.4788	0.62606	0.88758	-0.402
_end
