data_functionalizedCrystal
_audit_creation_method	'EQeq! by Chris Wilmer'
_symmetry_space_group_name_H-M	'P1'
_symmetry_Int_Tables_number	1
_symmetry_cell_setting	triclinic
loop_
_symmetry_equiv_pos_as_xyz
  x,y,z
_cell_length_a	10.4702
_cell_length_b	12.0131
_cell_length_c	13.1765
_cell_angle_alpha	83.827
_cell_angle_beta	85.92
_cell_angle_gamma	75.686
loop_
_atom_site_label
_atom_site_type_symbol
_atom_site_fract_x
_atom_site_fract_y
_atom_site_fract_z
_atom_site_charge
Mof_Eu	Eu	0.39278	0.8822	0.45222	2.159
Mof_O 	O 	0.5462	0.95002	0.34285	-0.588
Mof_O 	O 	0.6106	0.10937	0.36839	-0.519
Mof_O 	O 	0.154	0.89927	0.52222	-0.406
Mof_O 	O 	0.6668	0.9201	0.54321	-0.599
Mof_O 	O 	0.2899	0.72722	0.50723	-0.469
Mof_O 	O 	0.648	0.3891	0.06973	-0.204
Mof_O 	O 	0.6517	0.3334	0.9127	-0.246
Mof_C 	C 	0.1747	0.7912	0.5183	0.294
Mof_C 	C 	0.5687	0.0806	0.2005	-0.158
Mof_C 	C 	0.5759	0.0441	0.3134	0.498
Mof_C 	C 	0.5205	0.038	0.0332	-0.019
Mof_C 	C 	0.6012	0.1819	0.1592	0.057
Mof_H 	H 	0.628	0.23	0.2019	0.042
Mof_C 	C 	0.0605	0.7361	0.5206	-0.083
Mof_C 	C 	0.5542	0.1412	0.9924	-0.01
Mof_H 	H 	0.5498	0.1627	0.921	0.034
Mof_C 	C 	0.5288	0.0107	0.1383	0.026
Mof_H 	H 	0.5065	0.942	0.1683	0.005
Mof_C 	C 	0.5938	0.2121	0.0543	-0.083
Mof_C 	C 	0.6337	0.3172	0.0041	0.296
Mof_O 	O 	0.6013	0.76483	0.50828	-0.523
Mof_C 	C 	0.8287	0.7473	0.5222	-0.15
Mof_C 	C 	0.9313	0.8025	0.5251	0.053
Mof_H 	H 	0.9131	0.8832	0.53	0.021
Mof_C 	C 	0.6879	0.8156	0.525	0.492
Mof_C 	C 	0.0861	0.6186	0.5114	-0.018
Mof_H 	H 	0.1751	0.575	0.5085	0.053
Mof_C 	C 	0.9859	0.563	0.5064	-0.007
Mof_C 	C 	0.856	0.6298	0.5129	0.014
Mof_H 	H 	0.7851	0.5938	0.5109	0.039
Mof_Eu	Eu	0.60722	0.1178	0.54778	2.158
Mof_O 	O 	0.4538	0.04998	0.65715	-0.589
Mof_O 	O 	0.3894	0.89063	0.63161	-0.519
Mof_O 	O 	0.846	0.10073	0.47778	-0.406
Mof_O 	O 	0.3332	0.0799	0.45679	-0.599
Mof_O 	O 	0.7101	0.27278	0.49277	-0.469
Mof_O 	O 	0.352	0.6109	0.93027	-0.204
Mof_O 	O 	0.3483	0.6666	0.0873	-0.246
Mof_C 	C 	0.8253	0.2088	0.4817	0.294
Mof_C 	C 	0.4313	0.9194	0.7995	-0.158
Mof_C 	C 	0.4241	0.9559	0.6866	0.498
Mof_C 	C 	0.4795	0.962	0.9668	-0.019
Mof_C 	C 	0.3988	0.8181	0.8408	0.057
Mof_H 	H 	0.372	0.77	0.7981	0.042
Mof_C 	C 	0.9395	0.2639	0.4794	-0.083
Mof_C 	C 	0.4458	0.8588	0.0076	-0.01
Mof_H 	H 	0.4502	0.8373	0.079	0.034
Mof_C 	C 	0.4712	0.9893	0.8617	0.026
Mof_H 	H 	0.4935	0.058	0.8317	0.005
Mof_C 	C 	0.4062	0.7879	0.9457	-0.083
Mof_C 	C 	0.3663	0.6828	0.9959	0.296
Mof_O 	O 	0.3987	0.23517	0.49172	-0.523
Mof_C 	C 	0.1713	0.2527	0.4778	-0.15
Mof_C 	C 	0.0687	0.1975	0.4749	0.053
Mof_H 	H 	0.0869	0.1168	0.47	0.021
Mof_C 	C 	0.3121	0.1844	0.475	0.492
Mof_C 	C 	0.9139	0.3814	0.4886	-0.018
Mof_H 	H 	0.8249	0.425	0.4915	0.053
Mof_C 	C 	0.0141	0.437	0.4936	-0.007
Mof_C 	C 	0.144	0.3702	0.4871	0.014
Mof_H 	H 	0.2149	0.4062	0.4891	0.039
_end
