data_functionalizedCrystal
_audit_creation_method	'EQeq! by Chris Wilmer'
_symmetry_space_group_name_H-M	'P1'
_symmetry_Int_Tables_number	1
_symmetry_cell_setting	triclinic
loop_
_symmetry_equiv_pos_as_xyz
  x,y,z
_cell_length_a	8.8475
_cell_length_b	10.716
_cell_length_c	18.895
_cell_angle_alpha	75.521
_cell_angle_beta	83.777
_cell_angle_gamma	69.306
loop_
_atom_site_label
_atom_site_type_symbol
_atom_site_fract_x
_atom_site_fract_y
_atom_site_fract_z
_atom_site_charge
Mof_Sm	Sm	0.0022	0.412	0.28695	2.178
Mof_Sm	Sm	0.39655	0.53203	0.22375	2.284
Mof_C 	C 	0.526	0.3142	0.4395	0.119
Mof_H 	H 	0.5574	0.2924	0.3943	-0.019
Mof_C 	C 	0.3614	0.3714	0.4544	-0.208
Mof_C 	C 	0.312	0.4034	0.5214	0.141
Mof_H 	H 	0.2029	0.4414	0.5329	-0.001
Mof_C 	C 	0.4316	0.377	0.5721	-0.236
Mof_C 	C 	0.5915	0.3192	0.5528	0.133
Mof_H 	H 	0.6694	0.2999	0.587	-0.007
Mof_C 	C 	0.2443	0.4001	0.3961	0.413
Mof_C 	C 	0.3857	0.4163	0.6439	0.544
Mof_C 	C 	0.9005	0.6914	0.9162	0.134
Mof_H 	H 	0.9368	0.7135	0.8682	-0.021
Mof_C 	C 	0.7695	0.6431	0.9297	-0.219
Mof_C 	C 	0.7105	0.6154	0.001	0.165
Mof_H 	H 	0.6205	0.5877	0.0112	-0.018
Mof_C 	C 	0.7893	0.6301	0.0569	-0.258
Mof_C 	C 	0.9221	0.6763	0.0371	0.158
Mof_H 	H 	0.9756	0.6856	0.0741	-0.031
Mof_C 	C 	0.7448	0.5922	0.136	0.582
Mof_C 	C 	0.7008	0.612	0.8702	0.418
Mof_C 	C 	0.6321	0.0723	0.2439	0.155
Mof_H 	H 	0.5342	0.144	0.242	-0.03
Mof_C 	C 	0.7728	0.8476	0.2457	0.132
Mof_H 	H 	0.7733	0.761	0.2449	-0.005
Mof_C 	C 	0.9182	0.8644	0.2498	-0.227
Mof_C 	C 	0.9181	0.9942	0.2489	0.165
Mof_H 	H 	0.0152	0.0095	0.2492	-0.03
Mof_C 	C 	0.7725	0.1011	0.2475	-0.253
Mof_C 	C 	0.7629	0.2441	0.2479	0.538
Mof_C 	C 	0.0724	0.7423	0.254	0.467
Mof_N 	N 	0.6418	0.2887	0.487	-0.17
Mof_N 	N 	0.9751	0.7071	0.9693	-0.169
Mof_N 	N 	0.6277	0.9511	0.2429	-0.166
Mof_O 	O 	0.0946	0.4293	0.4113	-0.451
Mof_O 	O 	0.2968	0.3937	0.3315	-0.613
Mof_O 	O 	0.2341	0.4605	0.6601	-0.571
Mof_O 	O 	0.4947	0.4104	0.6826	-0.555
Mof_O 	O 	0.8515	0.5557	0.1805	-0.56
Mof_O 	O 	0.5979	0.602	0.1504	-0.592
Mof_O 	O 	0.5676	0.5893	0.8812	-0.463
Mof_O 	O 	0.7802	0.6016	0.8105	-0.626
Mof_O 	O 	0.6242	0.3269	0.2565	-0.567
Mof_O 	O 	0.8925	0.2678	0.2413	-0.567
Mof_O 	O 	0.2043	0.7592	0.2535	-0.489
Mof_O 	O 	0.0627	0.6292	0.2556	-0.604
Mof_Sm	Sm	0.9978	0.588	0.71305	2.178
Mof_Sm	Sm	0.60345	0.46797	0.77625	2.284
Mof_C 	C 	0.474	0.6858	0.5605	0.119
Mof_H 	H 	0.4426	0.7076	0.6057	-0.019
Mof_C 	C 	0.6386	0.6286	0.5456	-0.208
Mof_C 	C 	0.688	0.5966	0.4786	0.141
Mof_H 	H 	0.7971	0.5586	0.4671	-0.001
Mof_C 	C 	0.5684	0.623	0.4279	-0.236
Mof_C 	C 	0.4085	0.6808	0.4472	0.133
Mof_H 	H 	0.3306	0.7001	0.413	-0.007
Mof_C 	C 	0.7557	0.5999	0.6039	0.413
Mof_C 	C 	0.6143	0.5837	0.3561	0.544
Mof_C 	C 	0.0995	0.3086	0.0838	0.134
Mof_H 	H 	0.0632	0.2865	0.1318	-0.021
Mof_C 	C 	0.2305	0.3569	0.0703	-0.219
Mof_C 	C 	0.2895	0.3846	0.999	0.165
Mof_H 	H 	0.3795	0.4123	0.9888	-0.018
Mof_C 	C 	0.2107	0.3699	0.9431	-0.258
Mof_C 	C 	0.0779	0.3237	0.9629	0.158
Mof_H 	H 	0.0244	0.3144	0.9259	-0.031
Mof_C 	C 	0.2552	0.4078	0.864	0.582
Mof_C 	C 	0.2992	0.388	0.1298	0.418
Mof_C 	C 	0.3679	0.9277	0.7561	0.155
Mof_H 	H 	0.4658	0.856	0.758	-0.03
Mof_C 	C 	0.2272	0.1524	0.7543	0.132
Mof_H 	H 	0.2267	0.239	0.7551	-0.005
Mof_C 	C 	0.0818	0.1356	0.7502	-0.227
Mof_C 	C 	0.0819	0.0058	0.7511	0.165
Mof_H 	H 	0.9848	0.9905	0.7508	-0.03
Mof_C 	C 	0.2275	0.8989	0.7525	-0.253
Mof_C 	C 	0.2371	0.7559	0.7521	0.538
Mof_C 	C 	0.9276	0.2577	0.746	0.467
Mof_N 	N 	0.3582	0.7113	0.513	-0.17
Mof_N 	N 	0.0249	0.2929	0.0307	-0.169
Mof_N 	N 	0.3723	0.0489	0.7571	-0.166
Mof_O 	O 	0.9054	0.5707	0.5887	-0.451
Mof_O 	O 	0.7032	0.6063	0.6685	-0.613
Mof_O 	O 	0.7659	0.5395	0.3399	-0.571
Mof_O 	O 	0.5053	0.5896	0.3174	-0.555
Mof_O 	O 	0.1485	0.4443	0.8195	-0.56
Mof_O 	O 	0.4021	0.398	0.8496	-0.592
Mof_O 	O 	0.4324	0.4107	0.1188	-0.463
Mof_O 	O 	0.2198	0.3984	0.1895	-0.626
Mof_O 	O 	0.3758	0.6731	0.7435	-0.567
Mof_O 	O 	0.1075	0.7322	0.7587	-0.567
Mof_O 	O 	0.7957	0.2408	0.7465	-0.489
Mof_O 	O 	0.9373	0.3708	0.7444	-0.604
_end
