data_functionalizedCrystal
_audit_creation_method	'EQeq! by Chris Wilmer'
_symmetry_space_group_name_H-M	'P1'
_symmetry_Int_Tables_number	1
_symmetry_cell_setting	triclinic
loop_
_symmetry_equiv_pos_as_xyz
  x,y,z
_cell_length_a	18.549
_cell_length_b	18.549
_cell_length_c	18.549
_cell_angle_alpha	90
_cell_angle_beta	90
_cell_angle_gamma	90
loop_
_atom_site_label
_atom_site_type_symbol
_atom_site_fract_x
_atom_site_fract_y
_atom_site_fract_z
_atom_site_charge
Mof_Ni	Ni	1.8747e-33	0.61885	0.5	0.923
Mof_Ni	Ni	9.78547e-33	0.38115	0.5	0.919
Mof_Ni	Ni	0.5	0	0.61885	0.923
Mof_Ni	Ni	0.5	3.95539e-33	0.38115	0.919
Mof_Ni	Ni	0.61885	0.5	-0	0.923
Mof_Ni	Ni	0.38115	0.5	-0	0.919
Mof_Ni	Ni	0.61885	0	0.5	0.922
Mof_Ni	Ni	0.38115	0	0.5	0.918
Mof_Ni	Ni	1.32952e-32	0.5	0.38115	0.918
Mof_Ni	Ni	2.32032e-33	0.5	0.61885	0.922
Mof_Ni	Ni	0.5	0.61885	-0	0.922
Mof_Ni	Ni	0.5	0.38115	-0	0.918
Mof_H 	H 	0.8545	0.71315	0.56038	0.003
Mof_H 	H 	0.1455	0.28685	0.56038	-0.026
Mof_H 	H 	0.1455	0.71315	0.43962	-0.017
Mof_H 	H 	0.8545	0.28685	0.43962	-0.009
Mof_H 	H 	0.56038	0.8545	0.71315	0.003
Mof_H 	H 	0.56038	0.1455	0.28685	-0.026
Mof_H 	H 	0.43962	0.1455	0.71315	-0.017
Mof_H 	H 	0.43962	0.8545	0.28685	-0.009
Mof_H 	H 	0.71315	0.56038	0.8545	0.003
Mof_H 	H 	0.28685	0.56038	0.1455	-0.026
Mof_H 	H 	0.71315	0.43962	0.1455	-0.017
Mof_H 	H 	0.28685	0.43962	0.8545	-0.009
Mof_H 	H 	0.71315	0.8545	0.43962	0.001
Mof_H 	H 	0.28685	0.1455	0.43962	-0.028
Mof_H 	H 	0.71315	0.1455	0.56038	-0.016
Mof_H 	H 	0.28685	0.8545	0.56038	-0.007
Mof_H 	H 	0.8545	0.56038	0.28685	-0.007
Mof_H 	H 	0.1455	0.56038	0.71315	-0.016
Mof_H 	H 	0.1455	0.43962	0.28685	-0.028
Mof_H 	H 	0.8545	0.43962	0.71315	0.001
Mof_H 	H 	0.56038	0.71315	0.1455	-0.016
Mof_H 	H 	0.56038	0.28685	0.8545	-0.007
Mof_H 	H 	0.43962	0.71315	0.8545	0.001
Mof_H 	H 	0.43962	0.28685	0.1455	-0.028
Mof_H 	H 	0.1455	0.28685	0.43962	-0.028
Mof_H 	H 	0.8545	0.71315	0.43962	0.001
Mof_H 	H 	0.8545	0.28685	0.56038	-0.007
Mof_H 	H 	0.1455	0.71315	0.56038	-0.016
Mof_H 	H 	0.43962	0.1455	0.28685	-0.028
Mof_H 	H 	0.43962	0.8545	0.71315	0.001
Mof_H 	H 	0.56038	0.8545	0.28685	-0.007
Mof_H 	H 	0.56038	0.1455	0.71315	-0.016
Mof_H 	H 	0.28685	0.43962	0.1455	-0.028
Mof_H 	H 	0.71315	0.43962	0.8545	0.001
Mof_H 	H 	0.28685	0.56038	0.8545	-0.007
Mof_H 	H 	0.71315	0.56038	0.1455	-0.016
Mof_H 	H 	0.28685	0.1455	0.56038	-0.026
Mof_H 	H 	0.71315	0.8545	0.56038	0.003
Mof_H 	H 	0.28685	0.8545	0.43962	-0.009
Mof_H 	H 	0.71315	0.1455	0.43962	-0.017
Mof_H 	H 	0.1455	0.43962	0.71315	-0.017
Mof_H 	H 	0.8545	0.43962	0.28685	-0.009
Mof_H 	H 	0.8545	0.56038	0.71315	0.003
Mof_H 	H 	0.1455	0.56038	0.28685	-0.026
Mof_H 	H 	0.43962	0.28685	0.8545	-0.009
Mof_H 	H 	0.43962	0.71315	0.1455	-0.017
Mof_H 	H 	0.56038	0.28685	0.1455	-0.026
Mof_H 	H 	0.56038	0.71315	0.8545	0.003
Mof_H 	H 	0.77211	0.77211	0.61817	0.101
Mof_H 	H 	0.22788	0.22788	0.61817	0.083
Mof_H 	H 	0.22788	0.77211	0.38183	0.092
Mof_H 	H 	0.77211	0.22788	0.38183	0.092
Mof_H 	H 	0.61817	0.77211	0.77211	0.101
Mof_H 	H 	0.61817	0.22788	0.22788	0.083
Mof_H 	H 	0.38183	0.22788	0.77211	0.092
Mof_H 	H 	0.38183	0.77211	0.22788	0.092
Mof_H 	H 	0.77211	0.61817	0.77211	0.101
Mof_H 	H 	0.22788	0.61817	0.22788	0.083
Mof_H 	H 	0.77211	0.38183	0.22788	0.092
Mof_H 	H 	0.22788	0.38183	0.77211	0.092
Mof_H 	H 	0.77211	0.77211	0.38183	0.101
Mof_H 	H 	0.22788	0.22788	0.38183	0.083
Mof_H 	H 	0.77211	0.22788	0.61817	0.092
Mof_H 	H 	0.22788	0.77211	0.61817	0.092
Mof_H 	H 	0.77211	0.61817	0.22788	0.092
Mof_H 	H 	0.22788	0.61817	0.77211	0.092
Mof_H 	H 	0.22788	0.38183	0.22788	0.083
Mof_H 	H 	0.77211	0.38183	0.77211	0.101
Mof_H 	H 	0.61817	0.77211	0.22788	0.092
Mof_H 	H 	0.61817	0.22788	0.77211	0.092
Mof_H 	H 	0.38183	0.77211	0.77211	0.101
Mof_H 	H 	0.38183	0.22788	0.22788	0.083
Mof_C 	C 	0.86569	0.6708	0.58691	0.065
Mof_C 	C 	0.13431	0.3292	0.58691	0.048
Mof_C 	C 	0.13431	0.6708	0.41309	0.048
Mof_C 	C 	0.86569	0.3292	0.41309	0.062
Mof_C 	C 	0.58691	0.86569	0.6708	0.065
Mof_C 	C 	0.58691	0.13431	0.3292	0.048
Mof_C 	C 	0.41309	0.13431	0.6708	0.048
Mof_C 	C 	0.41309	0.86569	0.3292	0.062
Mof_C 	C 	0.6708	0.58691	0.86569	0.065
Mof_C 	C 	0.3292	0.58691	0.13431	0.048
Mof_C 	C 	0.6708	0.41309	0.13431	0.048
Mof_C 	C 	0.3292	0.41309	0.86569	0.062
Mof_C 	C 	0.6708	0.86569	0.41309	0.064
Mof_C 	C 	0.3292	0.13431	0.41309	0.046
Mof_C 	C 	0.6708	0.13431	0.58691	0.05
Mof_C 	C 	0.3292	0.86569	0.58691	0.063
Mof_C 	C 	0.86569	0.58691	0.3292	0.063
Mof_C 	C 	0.13431	0.58691	0.6708	0.05
Mof_C 	C 	0.13431	0.41309	0.3292	0.046
Mof_C 	C 	0.86569	0.41309	0.6708	0.064
Mof_C 	C 	0.58691	0.6708	0.13431	0.05
Mof_C 	C 	0.58691	0.3292	0.86569	0.063
Mof_C 	C 	0.41309	0.6708	0.86569	0.064
Mof_C 	C 	0.41309	0.3292	0.13431	0.046
Mof_C 	C 	0.13431	0.3292	0.41309	0.046
Mof_C 	C 	0.86569	0.6708	0.41309	0.064
Mof_C 	C 	0.86569	0.3292	0.58691	0.063
Mof_C 	C 	0.13431	0.6708	0.58691	0.05
Mof_C 	C 	0.41309	0.13431	0.3292	0.046
Mof_C 	C 	0.41309	0.86569	0.6708	0.064
Mof_C 	C 	0.58691	0.86569	0.3292	0.063
Mof_C 	C 	0.58691	0.13431	0.6708	0.05
Mof_C 	C 	0.3292	0.41309	0.13431	0.046
Mof_C 	C 	0.6708	0.41309	0.86569	0.064
Mof_C 	C 	0.3292	0.58691	0.86569	0.063
Mof_C 	C 	0.6708	0.58691	0.13431	0.05
Mof_C 	C 	0.3292	0.13431	0.58691	0.048
Mof_C 	C 	0.6708	0.86569	0.58691	0.065
Mof_C 	C 	0.3292	0.86569	0.41309	0.062
Mof_C 	C 	0.6708	0.13431	0.41309	0.048
Mof_C 	C 	0.13431	0.41309	0.6708	0.048
Mof_C 	C 	0.86569	0.41309	0.3292	0.062
Mof_C 	C 	0.86569	0.58691	0.6708	0.065
Mof_C 	C 	0.13431	0.58691	0.3292	0.048
Mof_C 	C 	0.41309	0.3292	0.86569	0.062
Mof_C 	C 	0.41309	0.6708	0.13431	0.048
Mof_C 	C 	0.58691	0.3292	0.13431	0.048
Mof_C 	C 	0.58691	0.6708	0.86569	0.065
Mof_C 	C 	0.77994	0.68949	0.68949	0.147
Mof_C 	C 	0.83522	0.6504	0.6504	-0.086
Mof_C 	C 	0.22006	0.31051	0.68949	0.138
Mof_C 	C 	0.16478	0.3496	0.6504	-0.105
Mof_C 	C 	0.22006	0.68949	0.31051	0.138
Mof_C 	C 	0.16478	0.6504	0.3496	-0.105
Mof_C 	C 	0.77994	0.31051	0.31051	0.144
Mof_C 	C 	0.83522	0.3496	0.3496	-0.099
Mof_C 	C 	0.68949	0.77994	0.68949	0.147
Mof_C 	C 	0.6504	0.83522	0.6504	-0.086
Mof_C 	C 	0.68949	0.22006	0.31051	0.138
Mof_C 	C 	0.6504	0.16478	0.3496	-0.105
Mof_C 	C 	0.31051	0.22006	0.68949	0.138
Mof_C 	C 	0.3496	0.16478	0.6504	-0.105
Mof_C 	C 	0.31051	0.77994	0.31051	0.144
Mof_C 	C 	0.3496	0.83522	0.3496	-0.099
Mof_C 	C 	0.68949	0.68949	0.77994	0.147
Mof_C 	C 	0.6504	0.6504	0.83522	-0.086
Mof_C 	C 	0.31051	0.68949	0.22006	0.138
Mof_C 	C 	0.3496	0.6504	0.16478	-0.105
Mof_C 	C 	0.68949	0.31051	0.22006	0.138
Mof_C 	C 	0.6504	0.3496	0.16478	-0.105
Mof_C 	C 	0.31051	0.31051	0.77994	0.144
Mof_C 	C 	0.3496	0.3496	0.83522	-0.099
Mof_C 	C 	0.68949	0.77994	0.31051	0.146
Mof_C 	C 	0.6504	0.83522	0.3496	-0.092
Mof_C 	C 	0.31051	0.22006	0.31051	0.136
Mof_C 	C 	0.3496	0.16478	0.3496	-0.111
Mof_C 	C 	0.68949	0.22006	0.68949	0.139
Mof_C 	C 	0.6504	0.16478	0.6504	-0.098
Mof_C 	C 	0.31051	0.77994	0.68949	0.146
Mof_C 	C 	0.3496	0.83522	0.6504	-0.092
Mof_C 	C 	0.77994	0.68949	0.31051	0.146
Mof_C 	C 	0.83522	0.6504	0.3496	-0.092
Mof_C 	C 	0.22006	0.68949	0.68949	0.139
Mof_C 	C 	0.16478	0.6504	0.6504	-0.098
Mof_C 	C 	0.22006	0.31051	0.31051	0.136
Mof_C 	C 	0.16478	0.3496	0.3496	-0.111
Mof_C 	C 	0.77994	0.31051	0.68949	0.146
Mof_C 	C 	0.83522	0.3496	0.6504	-0.092
Mof_C 	C 	0.68949	0.68949	0.22006	0.139
Mof_C 	C 	0.6504	0.6504	0.16478	-0.098
Mof_C 	C 	0.68949	0.31051	0.77994	0.146
Mof_C 	C 	0.6504	0.3496	0.83522	-0.092
Mof_C 	C 	0.31051	0.68949	0.77994	0.146
Mof_C 	C 	0.3496	0.6504	0.83522	-0.092
Mof_C 	C 	0.31051	0.31051	0.22006	0.136
Mof_C 	C 	0.3496	0.3496	0.16478	-0.111
Mof_C 	C 	0.75378	0.75378	0.66233	-0.187
Mof_C 	C 	0.24622	0.24622	0.66233	-0.21
Mof_C 	C 	0.24622	0.75378	0.33767	-0.209
Mof_C 	C 	0.75378	0.24622	0.33767	-0.209
Mof_C 	C 	0.66233	0.75378	0.75378	-0.187
Mof_C 	C 	0.66233	0.24622	0.24622	-0.21
Mof_C 	C 	0.33767	0.24622	0.75378	-0.209
Mof_C 	C 	0.33767	0.75378	0.24622	-0.209
Mof_C 	C 	0.75378	0.66233	0.75378	-0.187
Mof_C 	C 	0.24622	0.66233	0.24622	-0.21
Mof_C 	C 	0.75378	0.33767	0.24622	-0.209
Mof_C 	C 	0.24622	0.33767	0.75378	-0.209
Mof_C 	C 	0.75378	0.75378	0.33767	-0.197
Mof_C 	C 	0.24622	0.24622	0.33767	-0.22
Mof_C 	C 	0.75378	0.24622	0.66233	-0.199
Mof_C 	C 	0.24622	0.75378	0.66233	-0.199
Mof_C 	C 	0.75378	0.66233	0.24622	-0.199
Mof_C 	C 	0.24622	0.66233	0.75378	-0.199
Mof_C 	C 	0.24622	0.33767	0.24622	-0.22
Mof_C 	C 	0.75378	0.33767	0.75378	-0.197
Mof_C 	C 	0.66233	0.75378	0.24622	-0.199
Mof_C 	C 	0.66233	0.24622	0.75378	-0.199
Mof_C 	C 	0.33767	0.75378	0.75378	-0.197
Mof_C 	C 	0.33767	0.24622	0.24622	-0.22
Mof_N 	N 	0.915	0.61991	0.56807	-0.216
Mof_N 	N 	0.085	0.38009	0.56807	-0.261
Mof_N 	N 	0.085	0.61991	0.43193	-0.26
Mof_N 	N 	0.915	0.38009	0.43193	-0.22
Mof_N 	N 	0.56807	0.915	0.61991	-0.216
Mof_N 	N 	0.56807	0.085	0.38009	-0.261
Mof_N 	N 	0.43193	0.085	0.61991	-0.26
Mof_N 	N 	0.43193	0.915	0.38009	-0.22
Mof_N 	N 	0.61991	0.56807	0.915	-0.216
Mof_N 	N 	0.38009	0.56807	0.085	-0.261
Mof_N 	N 	0.61991	0.43193	0.085	-0.26
Mof_N 	N 	0.38009	0.43193	0.915	-0.22
Mof_N 	N 	0.61991	0.915	0.43193	-0.217
Mof_N 	N 	0.38009	0.085	0.43193	-0.263
Mof_N 	N 	0.61991	0.085	0.56807	-0.258
Mof_N 	N 	0.38009	0.915	0.56807	-0.219
Mof_N 	N 	0.915	0.56807	0.38009	-0.219
Mof_N 	N 	0.085	0.56807	0.61991	-0.258
Mof_N 	N 	0.085	0.43193	0.38009	-0.263
Mof_N 	N 	0.915	0.43193	0.61991	-0.217
Mof_N 	N 	0.56807	0.61991	0.085	-0.258
Mof_N 	N 	0.56807	0.38009	0.915	-0.219
Mof_N 	N 	0.43193	0.61991	0.915	-0.217
Mof_N 	N 	0.43193	0.38009	0.085	-0.263
Mof_N 	N 	0.085	0.38009	0.43193	-0.263
Mof_N 	N 	0.915	0.61991	0.43193	-0.217
Mof_N 	N 	0.915	0.38009	0.56807	-0.219
Mof_N 	N 	0.085	0.61991	0.56807	-0.258
Mof_N 	N 	0.43193	0.085	0.38009	-0.263
Mof_N 	N 	0.43193	0.915	0.61991	-0.217
Mof_N 	N 	0.56807	0.915	0.38009	-0.219
Mof_N 	N 	0.56807	0.085	0.61991	-0.258
Mof_N 	N 	0.38009	0.43193	0.085	-0.263
Mof_N 	N 	0.61991	0.43193	0.915	-0.217
Mof_N 	N 	0.38009	0.56807	0.915	-0.219
Mof_N 	N 	0.61991	0.56807	0.085	-0.258
Mof_N 	N 	0.38009	0.085	0.56807	-0.261
Mof_N 	N 	0.61991	0.915	0.56807	-0.216
Mof_N 	N 	0.38009	0.915	0.43193	-0.22
Mof_N 	N 	0.61991	0.085	0.43193	-0.26
Mof_N 	N 	0.085	0.43193	0.61991	-0.26
Mof_N 	N 	0.915	0.43193	0.38009	-0.22
Mof_N 	N 	0.915	0.56807	0.61991	-0.216
Mof_N 	N 	0.085	0.56807	0.38009	-0.261
Mof_N 	N 	0.43193	0.38009	0.915	-0.22
Mof_N 	N 	0.43193	0.61991	0.085	-0.26
Mof_N 	N 	0.56807	0.38009	0.085	-0.261
Mof_N 	N 	0.56807	0.61991	0.915	-0.216
_end
