data_functionalizedCrystal
_audit_creation_method	'EQeq! by Chris Wilmer'
_symmetry_space_group_name_H-M	'P1'
_symmetry_Int_Tables_number	1
_symmetry_cell_setting	triclinic
loop_
_symmetry_equiv_pos_as_xyz
  x,y,z
_cell_length_a	10.104
_cell_length_b	12.8282
_cell_length_c	13.0415
_cell_angle_alpha	71.1983
_cell_angle_beta	67.2084
_cell_angle_gamma	66.8076
loop_
_atom_site_label
_atom_site_type_symbol
_atom_site_fract_x
_atom_site_fract_y
_atom_site_fract_z
_atom_site_charge
Mof_Co	Co	0.96756	0.61481	0.89725	1.173
Mof_Co	Co	0.2491	0.16662	0.26526	1.188
Mof_Co	Co	0.47962	0.88519	0.60275	1.18
Mof_Co	Co	0.68098	0.33338	0.23474	1.189
Mof_Co	Co	0.03244	0.38519	0.10275	1.174
Mof_Co	Co	0.7509	0.83338	0.73474	1.189
Mof_Co	Co	0.52038	0.11481	0.39725	1.181
Mof_Co	Co	0.31902	0.66662	0.76526	1.19
Mof_H 	H 	0.8518	0.8825	0.1597	0.065
Mof_H 	H 	0.9952	0.746	0.0504	0.013
Mof_H 	H 	0.6379	0.7379	0.0107	-0.004
Mof_H 	H 	0.4868	0.8761	0.1161	0.067
Mof_H 	H 	0.137	0.9569	0.7377	-0
Mof_H 	H 	0.1388	0.9123	0.5387	0.177
Mof_H 	H 	0.0206	0.0159	0.5951	0.187
Mof_H 	H 	0.894	0.6175	0.3403	0.066
Mof_H 	H 	0.7916	0.754	0.4496	0.01
Mof_H 	H 	0.3865	0.7621	0.4893	-0.005
Mof_H 	H 	0.479	0.6239	0.3839	0.068
Mof_H 	H 	0.8316	0.5431	0.7623	-0.006
Mof_H 	H 	0.5898	0.5877	0.9613	0.178
Mof_H 	H 	0.6316	0.4841	0.9049	0.192
Mof_H 	H 	0.1482	0.1175	0.8403	0.065
Mof_H 	H 	0.0048	0.254	0.9496	0.013
Mof_H 	H 	0.3621	0.2621	0.9893	-0.004
Mof_H 	H 	0.5132	0.1239	0.8839	0.067
Mof_H 	H 	0.863	0.0431	0.2623	-0
Mof_H 	H 	0.8612	0.0877	0.4613	0.177
Mof_H 	H 	0.9794	0.9841	0.4049	0.187
Mof_H 	H 	0.106	0.3825	0.6597	0.066
Mof_H 	H 	0.2084	0.246	0.5504	0.01
Mof_H 	H 	0.6135	0.2379	0.5107	-0.005
Mof_H 	H 	0.521	0.3761	0.6161	0.068
Mof_H 	H 	0.1684	0.4569	0.2377	-0.006
Mof_H 	H 	0.4102	0.4123	0.0387	0.178
Mof_H 	H 	0.3684	0.5159	0.0951	0.192
Mof_C 	C 	0.5522	0.9869	0.2219	0.367
Mof_C 	C 	0.6531	0.8953	0.1505	-0.039
Mof_C 	C 	0.8056	0.8548	0.1294	-0.064
Mof_C 	C 	0.8914	0.7725	0.0633	0.052
Mof_C 	C 	0.6823	0.7684	0.0398	0.041
Mof_C 	C 	0.5904	0.8506	0.104	-0.065
Mof_C 	C 	0.0342	0.838	0.7524	0.32
Mof_C 	C 	0.1528	0.9024	0.6928	0.13
Mof_C 	C 	0.1255	0.9682	0.58	-0.49
Mof_C 	C 	0.2211	0.0453	0.5023	0.501
Mof_C 	C 	0.761	0.5131	0.2781	0.367
Mof_C 	C 	0.6989	0.6047	0.3495	-0.038
Mof_C 	C 	0.7898	0.6452	0.3706	-0.066
Mof_C 	C 	0.7272	0.7275	0.4367	0.052
Mof_C 	C 	0.4905	0.7316	0.4602	0.041
Mof_C 	C 	0.545	0.6494	0.396	-0.066
Mof_C 	C 	0.6246	0.662	0.7476	0.306
Mof_C 	C 	0.748	0.5976	0.8072	0.136
Mof_C 	C 	0.6737	0.5318	0.92	-0.499
Mof_C 	C 	0.7687	0.4547	0.9977	0.488
Mof_C 	C 	0.4478	0.0131	0.7781	0.367
Mof_C 	C 	0.3469	0.1047	0.8495	-0.039
Mof_C 	C 	0.1944	0.1452	0.8706	-0.064
Mof_C 	C 	0.1086	0.2275	0.9367	0.052
Mof_C 	C 	0.3177	0.2316	0.9602	0.041
Mof_C 	C 	0.4096	0.1494	0.896	-0.065
Mof_C 	C 	0.9658	0.162	0.2476	0.32
Mof_C 	C 	0.8472	0.0976	0.3072	0.13
Mof_C 	C 	0.8745	0.0318	0.42	-0.49
Mof_C 	C 	0.7789	0.9547	0.4977	0.501
Mof_C 	C 	0.239	0.4869	0.7219	0.367
Mof_C 	C 	0.3011	0.3953	0.6505	-0.038
Mof_C 	C 	0.2102	0.3548	0.6294	-0.066
Mof_C 	C 	0.2728	0.2725	0.5633	0.052
Mof_C 	C 	0.5095	0.2684	0.5398	0.041
Mof_C 	C 	0.455	0.3506	0.604	-0.066
Mof_C 	C 	0.3754	0.338	0.2524	0.306
Mof_C 	C 	0.252	0.4024	0.1928	0.136
Mof_C 	C 	0.3263	0.4682	0.08	-0.499
Mof_C 	C 	0.2313	0.5453	0.0023	0.488
Mof_N 	N 	0.8328	0.7292	0.0166	-0.213
Mof_N 	N 	0.5786	0.7708	0.4834	-0.216
Mof_N 	N 	0.1672	0.2708	0.9834	-0.213
Mof_N 	N 	0.4214	0.2292	0.5166	-0.216
Mof_O 	O 	0.60995	0.0069	0.2796	-0.422
Mof_O 	O 	0.4204	0.0321	0.2159	-0.454
Mof_O 	O 	0.0824	0.7343	0.7963	-0.539
Mof_O 	O 	0.8993	0.892	0.7588	-0.425
Mof_O 	O 	0.3014	0.8234	0.6774	-0.511
Mof_O 	O 	0.35823	0.02244	0.4987	-0.561
Mof_O 	O 	0.1603	0.1214	0.433	-0.497
Mof_O 	O 	0.89645	0.4931	0.2204	-0.419
Mof_O 	O 	0.6684	0.4679	0.2841	-0.453
Mof_O 	O 	0.613	0.7657	0.7037	-0.539
Mof_O 	O 	0.5501	0.608	0.7412	-0.414
Mof_O 	O 	0.8022	0.6766	0.8226	-0.514
Mof_O 	O 	0.87937	0.47756	0.0013	-0.549
Mof_O 	O 	0.7147	0.3786	0.067	-0.488
Mof_O 	O 	0.39005	0.9931	0.7204	-0.422
Mof_O 	O 	0.5796	0.9679	0.7841	-0.454
Mof_O 	O 	0.9176	0.2657	0.2037	-0.539
Mof_O 	O 	0.1007	0.108	0.2412	-0.425
Mof_O 	O 	0.6986	0.1766	0.3226	-0.511
Mof_O 	O 	0.64177	0.97756	0.5013	-0.561
Mof_O 	O 	0.8397	0.8786	0.567	-0.497
Mof_O 	O 	0.10355	0.5069	0.7796	-0.419
Mof_O 	O 	0.3316	0.5321	0.7159	-0.453
Mof_O 	O 	0.387	0.2343	0.2963	-0.539
Mof_O 	O 	0.4499	0.392	0.2588	-0.414
Mof_O 	O 	0.1978	0.3234	0.1774	-0.514
Mof_O 	O 	0.12063	0.52244	0.9987	-0.549
Mof_O 	O 	0.2853	0.6214	0.933	-0.488
_end
