data_functionalizedCrystal
_audit_creation_method	'EQeq! by Chris Wilmer'
_symmetry_space_group_name_H-M	'P1'
_symmetry_Int_Tables_number	1
_symmetry_cell_setting	triclinic
loop_
_symmetry_equiv_pos_as_xyz
  x,y,z
_cell_length_a	17.293
_cell_length_b	15.019
_cell_length_c	18.193
_cell_angle_alpha	90
_cell_angle_beta	92.285
_cell_angle_gamma	90
loop_
_atom_site_label
_atom_site_type_symbol
_atom_site_fract_x
_atom_site_fract_y
_atom_site_fract_z
_atom_site_charge
Mof_W 	W 	0.37074	0.89419	0.37926	1.392
Mof_W 	W 	0.16932	0.89051	0.39555	1.287
Mof_W 	W 	0.16467	0.65631	0.39522	1.378
Mof_W 	W 	0.04723	0.77594	0.26628	1.343
Mof_W 	W 	0.3696	0.6664	0.377	0.539
Mof_W 	W 	0.3831	0.6714	0.377	0.46
Mof_W 	W 	0.352	0.6475	0.3772	0.303
Mof_C 	C 	0.1187	0.9799	0.6292	0.097
Mof_H 	H 	0.1609	0.9862	0.5996	0.001
Mof_C 	C 	0.0052	0.9738	0.6616	0.033
Mof_H 	H 	0.9515	0.9749	0.6622	0.031
Mof_C 	C 	0.029	0.9412	0.7948	-0.365
Mof_H 	H 	0.0687	0.9622	0.8297	0.228
Mof_H 	H 	0.9816	0.9732	0.8038	0.177
Mof_C 	C 	0.016	0.8417	0.8063	0.375
Mof_C 	C 	0.9655	0.8325	0.8737	-0.222
Mof_H 	H 	0.9161	0.8613	0.863	0.107
Mof_H 	H 	0.9905	0.8633	0.915	0.144
Mof_C 	C 	0.9858	0.6913	0.9435	0.152
Mof_H 	H 	0.0199	0.7127	0.9802	-0.005
Mof_C 	C 	0.9177	0.6106	0.8767	0.106
Mof_H 	H 	0.8931	0.5607	0.8566	0.005
Mof_C 	C 	0.0896	0.7883	0.8215	-0.387
Mof_C 	C 	0.1043	0.7102	0.7822	0.339
Mof_H 	H 	0.0712	0.6926	0.7434	-0.069
Mof_C 	C 	0.1716	0.6577	0.8028	-0.517
Mof_H 	H 	0.1822	0.6045	0.779	0.258
Mof_C 	C 	0.2194	0.6892	0.8589	0.672
Mof_C 	C 	0.2058	0.7633	0.9005	-0.7
Mof_H 	H 	0.2379	0.7797	0.9405	0.334
Mof_C 	C 	0.143	0.8102	0.8795	0.671
Mof_C 	C 	0.8335	0.5203	0.0436	0.056
Mof_H 	H 	0.8136	0.5001	0.9984	0.043
Mof_C 	C 	0.9091	0.5545	0.1338	0.103
Mof_H 	H 	0.9542	0.5617	0.1629	0.021
Mof_C 	C 	0.71	0.563	0.1025	-0.289
Mof_H 	H 	0.6833	0.5082	0.0892	0.144
Mof_H 	H 	0.6978	0.5775	0.1527	0.176
Mof_C 	C 	0.6796	0.6392	0.0505	0.395
Mof_C 	C 	0.596	0.6595	0.0723	-0.262
Mof_H 	H 	0.5958	0.6716	0.1246	0.128
Mof_H 	H 	0.5639	0.6075	0.0625	0.096
Mof_C 	C 	0.5614	0.8198	0.0506	0.066
Mof_H 	H 	0.5812	0.8429	0.0949	0.005
Mof_C 	C 	0.0082	0.1931	0.4471	0.025
Mof_H 	H 	0.9821	0.1789	0.403	0.036
Mof_C 	C 	0.7308	0.7229	0.0575	-0.503
Mof_C 	C 	0.7583	0.7655	0.9983	0.529
Mof_H 	H 	0.7471	0.7424	0.9517	-0.12
Mof_C 	C 	0.8034	0.8436	0.0047	-0.711
Mof_H 	H 	0.8194	0.8744	0.9636	0.304
Mof_C 	C 	0.8221	0.8715	0.0749	0.788
Mof_C 	C 	0.7925	0.8332	0.135	-0.809
Mof_H 	H 	0.8026	0.8554	0.1821	0.379
Mof_C 	C 	0.7479	0.7612	0.1228	0.728
Mof_N 	N 	0.9668	0.6073	0.9358	-0.211
Mof_N 	N 	0.9517	0.7408	0.8945	-0.066
Mof_N 	N 	0.9081	0.6901	0.8504	-0.089
Mof_N 	N 	0.0523	0.9595	0.7207	-0.038
Mof_N 	N 	0.1257	0.9641	0.7004	-0.082
Mof_N 	N 	0.045	0.986	0.603	-0.242
Mof_N 	N 	0.9091	0.5253	0.0635	-0.203
Mof_N 	N 	0.8401	0.5717	0.1574	-0.078
Mof_N 	N 	0.7913	0.5491	0.0991	-0.031
Mof_N 	N 	0.563	0.7353	0.0322	-0.069
Mof_N 	N 	0.0284	0.1333	0.4981	-0.253
Mof_N 	N 	0.5292	0.7246	0.9658	-0.088
Mof_O 	O 	0.3361	0.9864	0.3161	-0.445
Mof_O 	O 	0.1862	0.9858	0.3276	-0.435
Mof_O 	O 	0.2749	0.8991	0.4242	-0.454
Mof_O 	O 	0.0787	0.8595	0.3356	-0.481
Mof_O 	O 	0.0591	0.8639	0.1926	-0.468
Mof_O 	O 	0.0768	0.6867	0.3371	-0.481
Mof_O 	O 	0.4405	0.689	0.306	-0.459
Mof_O 	O 	0.4241	0.599	0.436	-0.46
Mof_O 	O 	0.3345	0.5675	0.3142	-0.422
Mof_O 	O 	0.2714	0.6532	0.423	-0.415
Mof_O 	O 	0.3819	0.7771	0.4169	-0.44
Mof_O 	O 	0.1671	0.773	0.433	-0.474
Mof_O 	O 	0.1824	0.5662	0.3289	-0.47
Mof_O 	O 	0.1843	0.7715	0.3088	-1.246
Mof_O 	O 	0.252	0.6896	0.3013	-1.255
Mof_O 	O 	0.3361	0.778	0.2953	-1.146
Mof_O 	O 	0.258	0.8618	0.3005	-1.273
Mof_O 	O 	0.9733	0.8112	0.7435	-0.43
Mof_H 	H 	0.9999	0.8155	0.7073	0.28
Mof_O 	O 	0.6832	0.6101	0.9775	-0.419
Mof_H 	H 	0.6569	0.565	0.9717	0.232
Mof_F 	F 	0.1271	0.8807	0.919	-0.527
Mof_F 	F 	0.2841	0.6384	0.8749	-0.537
Mof_F 	F 	0.87	0.9427	0.0823	-0.528
Mof_F 	F 	0.7139	0.7257	0.1839	-0.512
Mof_W 	W 	0.12926	0.89419	0.12074	1.383
Mof_W 	W 	0.33068	0.89051	0.10445	1.284
Mof_W 	W 	0.33533	0.65631	0.10478	1.378
Mof_W 	W 	0.45277	0.77594	0.23372	1.361
Mof_W 	W 	0.1304	0.6664	0.123	0.538
Mof_W 	W 	0.1169	0.6714	0.123	0.462
Mof_W 	W 	0.148	0.6475	0.1228	0.299
Mof_C 	C 	0.3813	0.9799	0.8708	0.097
Mof_H 	H 	0.3391	0.9862	0.9004	0.004
Mof_C 	C 	0.4948	0.9738	0.8384	0.084
Mof_H 	H 	0.5485	0.9749	0.8378	0
Mof_C 	C 	0.471	0.9412	0.7052	-0.327
Mof_H 	H 	0.4313	0.9622	0.6703	0.22
Mof_H 	H 	0.5184	0.9732	0.6962	0.152
Mof_C 	C 	0.484	0.8417	0.6937	0.405
Mof_C 	C 	0.5345	0.8325	0.6263	-0.256
Mof_H 	H 	0.5839	0.8613	0.637	0.116
Mof_H 	H 	0.5095	0.8633	0.585	0.143
Mof_C 	C 	0.5142	0.6913	0.5565	0.099
Mof_H 	H 	0.4801	0.7127	0.5198	0.02
Mof_C 	C 	0.5823	0.6106	0.6233	0.103
Mof_H 	H 	0.6069	0.5607	0.6434	0.002
Mof_C 	C 	0.4104	0.7883	0.6785	-0.388
Mof_C 	C 	0.3957	0.7102	0.7178	0.342
Mof_H 	H 	0.4288	0.6926	0.7566	-0.062
Mof_C 	C 	0.3284	0.6577	0.6972	-0.516
Mof_H 	H 	0.3178	0.6045	0.721	0.259
Mof_C 	C 	0.2806	0.6892	0.6411	0.67
Mof_C 	C 	0.2942	0.7633	0.5995	-0.701
Mof_H 	H 	0.2621	0.7797	0.5595	0.327
Mof_C 	C 	0.357	0.8102	0.6205	0.671
Mof_C 	C 	0.6665	0.5203	0.4564	0.094
Mof_H 	H 	0.6864	0.5001	0.5016	0.016
Mof_C 	C 	0.5909	0.5545	0.3662	0.101
Mof_H 	H 	0.5458	0.5617	0.3371	0.009
Mof_C 	C 	0.79	0.563	0.3975	-0.284
Mof_H 	H 	0.8167	0.5082	0.4108	0.149
Mof_H 	H 	0.8022	0.5775	0.3473	0.176
Mof_C 	C 	0.8204	0.6392	0.4495	0.394
Mof_C 	C 	0.904	0.6595	0.4277	-0.262
Mof_H 	H 	0.9042	0.6716	0.3754	0.133
Mof_H 	H 	0.9361	0.6075	0.4375	0.108
Mof_C 	C 	0.9386	0.8198	0.4494	0.091
Mof_H 	H 	0.9188	0.8429	0.4051	0.001
Mof_C 	C 	0.4918	0.1931	0.0529	0.086
Mof_H 	H 	0.5179	0.1789	0.097	-0.011
Mof_C 	C 	0.7692	0.7229	0.4425	-0.438
Mof_C 	C 	0.7417	0.7655	0.5017	0.416
Mof_H 	H 	0.7529	0.7424	0.5483	-0.084
Mof_C 	C 	0.6966	0.8436	0.4953	-0.595
Mof_H 	H 	0.6806	0.8744	0.5364	0.254
Mof_C 	C 	0.6779	0.8715	0.4251	0.731
Mof_C 	C 	0.7075	0.8332	0.365	-0.756
Mof_H 	H 	0.6974	0.8554	0.3179	0.359
Mof_C 	C 	0.7521	0.7612	0.3772	0.686
Mof_N 	N 	0.5332	0.6073	0.5642	-0.216
Mof_N 	N 	0.5483	0.7408	0.6055	-0.057
Mof_N 	N 	0.5919	0.6901	0.6496	-0.092
Mof_N 	N 	0.4477	0.9595	0.7793	-0.048
Mof_N 	N 	0.3743	0.9641	0.7996	-0.081
Mof_N 	N 	0.455	0.986	0.897	-0.243
Mof_N 	N 	0.5909	0.5253	0.4365	-0.214
Mof_N 	N 	0.6599	0.5717	0.3426	-0.079
Mof_N 	N 	0.7087	0.5491	0.4009	-0.037
Mof_N 	N 	0.937	0.7353	0.4678	-0.062
Mof_N 	N 	0.4716	0.1333	0.0019	-0.277
Mof_N 	N 	0.9708	0.7246	0.5342	-0.1
Mof_O 	O 	0.1639	0.9864	0.1839	-0.443
Mof_O 	O 	0.3138	0.9858	0.1724	-0.436
Mof_O 	O 	0.2251	0.8991	0.0758	-0.458
Mof_O 	O 	0.4213	0.8595	0.1644	-0.476
Mof_O 	O 	0.4409	0.8639	0.3074	-0.465
Mof_O 	O 	0.4232	0.6867	0.1629	-0.476
Mof_O 	O 	0.0595	0.689	0.194	-0.466
Mof_O 	O 	0.0759	0.599	0.064	-0.475
Mof_O 	O 	0.1655	0.5675	0.1858	-0.423
Mof_O 	O 	0.2286	0.6532	0.077	-0.418
Mof_O 	O 	0.1181	0.7771	0.0831	-0.448
Mof_O 	O 	0.3329	0.773	0.067	-0.476
Mof_O 	O 	0.3176	0.5662	0.1711	-0.469
Mof_O 	O 	0.3157	0.7715	0.1912	-1.247
Mof_O 	O 	0.248	0.6896	0.1987	-1.255
Mof_O 	O 	0.1639	0.778	0.2047	-1.144
Mof_O 	O 	0.242	0.8618	0.1995	-1.272
Mof_O 	O 	0.5267	0.8112	0.7565	-0.447
Mof_H 	H 	0.5001	0.8155	0.7927	0.271
Mof_O 	O 	0.8168	0.6101	0.5225	-0.431
Mof_H 	H 	0.8431	0.565	0.5283	0.233
Mof_F 	F 	0.3729	0.8807	0.581	-0.528
Mof_F 	F 	0.2159	0.6384	0.6251	-0.542
Mof_F 	F 	0.63	0.9427	0.4177	-0.519
Mof_F 	F 	0.7861	0.7257	0.3161	-0.504
Mof_W 	W 	0.62926	0.10581	0.62074	1.379
Mof_W 	W 	0.83068	0.10949	0.60445	1.287
Mof_W 	W 	0.83533	0.34369	0.60478	1.393
Mof_W 	W 	0.95277	0.22406	0.73372	1.374
Mof_W 	W 	0.6304	0.3336	0.623	0.539
Mof_W 	W 	0.6169	0.3286	0.623	0.461
Mof_W 	W 	0.648	0.3525	0.6228	0.302
Mof_C 	C 	0.8813	0.0201	0.3708	0.087
Mof_H 	H 	0.8391	0.0138	0.4004	-0.012
Mof_C 	C 	0.9948	0.0262	0.3384	0.153
Mof_H 	H 	0.0485	0.0251	0.3378	-0.066
Mof_C 	C 	0.971	0.0588	0.2052	-0.241
Mof_H 	H 	0.9313	0.0378	0.1703	0.182
Mof_H 	H 	0.0184	0.0268	0.1962	0.082
Mof_C 	C 	0.984	0.1583	0.1937	0.434
Mof_C 	C 	0.0345	0.1675	0.1263	-0.291
Mof_H 	H 	0.0839	0.1387	0.137	0.114
Mof_H 	H 	0.0095	0.1367	0.085	0.128
Mof_C 	C 	0.0142	0.3087	0.0565	0.022
Mof_H 	H 	0.9801	0.2873	0.0198	0.062
Mof_C 	C 	0.0823	0.3894	0.1233	0.098
Mof_H 	H 	0.1069	0.4393	0.1434	-0.001
Mof_C 	C 	0.9104	0.2117	0.1785	-0.387
Mof_C 	C 	0.8957	0.2898	0.2178	0.346
Mof_H 	H 	0.9288	0.3074	0.2566	-0.055
Mof_C 	C 	0.8284	0.3423	0.1972	-0.514
Mof_H 	H 	0.8178	0.3955	0.221	0.26
Mof_C 	C 	0.7806	0.3108	0.1411	0.669
Mof_C 	C 	0.7942	0.2367	0.0995	-0.703
Mof_H 	H 	0.7621	0.2203	0.0595	0.319
Mof_C 	C 	0.857	0.1898	0.1205	0.672
Mof_C 	C 	0.1665	0.4797	0.9564	0.145
Mof_H 	H 	0.1864	0.4999	0.0016	-0.019
Mof_C 	C 	0.0909	0.4455	0.8662	0.099
Mof_H 	H 	0.0458	0.4383	0.8371	0.001
Mof_C 	C 	0.29	0.437	0.8975	-0.266
Mof_H 	H 	0.3167	0.4918	0.9108	0.146
Mof_H 	H 	0.3022	0.4225	0.8473	0.168
Mof_C 	C 	0.3204	0.3608	0.9495	0.373
Mof_C 	C 	0.404	0.3405	0.9277	-0.245
Mof_H 	H 	0.4042	0.3284	0.8754	0.121
Mof_H 	H 	0.4361	0.3925	0.9375	0.102
Mof_C 	C 	0.4386	0.1802	0.9494	0.119
Mof_H 	H 	0.4188	0.1571	0.9051	-0.024
Mof_C 	C 	0.9918	0.8069	0.5529	0.146
Mof_H 	H 	0.0179	0.8211	0.597	-0.046
Mof_C 	C 	0.2692	0.2771	0.9425	-0.318
Mof_C 	C 	0.2417	0.2345	0.0017	0.209
Mof_H 	H 	0.2529	0.2576	0.0483	-0.021
Mof_C 	C 	0.1966	0.1564	0.9953	-0.385
Mof_H 	H 	0.1806	0.1256	0.0364	0.149
Mof_C 	C 	0.1779	0.1285	0.9251	0.617
Mof_C 	C 	0.2075	0.1668	0.865	-0.661
Mof_H 	H 	0.1974	0.1446	0.8179	0.312
Mof_C 	C 	0.2521	0.2388	0.8772	0.604
Mof_N 	N 	0.0332	0.3927	0.0642	-0.213
Mof_N 	N 	0.0483	0.2592	0.1055	-0.045
Mof_N 	N 	0.0919	0.3099	0.1496	-0.096
Mof_N 	N 	0.9477	0.0405	0.2793	-0.073
Mof_N 	N 	0.8743	0.0359	0.2996	-0.09
Mof_N 	N 	0.955	0.014	0.397	-0.267
Mof_N 	N 	0.0909	0.4747	0.9365	-0.219
Mof_N 	N 	0.1599	0.4283	0.8426	-0.081
Mof_N 	N 	0.2087	0.4509	0.9009	-0.047
Mof_N 	N 	0.437	0.2647	0.9678	-0.062
Mof_N 	N 	0.9716	0.8667	0.5019	-0.248
Mof_N 	N 	0.4708	0.2754	0.0342	-0.11
Mof_O 	O 	0.6639	0.0136	0.6839	-0.508
Mof_O 	O 	0.8138	0.0142	0.6724	-0.501
Mof_O 	O 	0.7251	0.1009	0.5758	-0.463
Mof_O 	O 	0.9213	0.1405	0.6644	-0.483
Mof_O 	O 	0.9409	0.1361	0.8074	-0.473
Mof_O 	O 	0.9232	0.3133	0.6629	-0.469
Mof_O 	O 	0.5595	0.311	0.694	-0.459
Mof_O 	O 	0.5759	0.401	0.564	-0.46
Mof_O 	O 	0.6655	0.4325	0.6858	-0.422
Mof_O 	O 	0.7286	0.3468	0.577	-0.415
Mof_O 	O 	0.6181	0.2229	0.5831	-0.441
Mof_O 	O 	0.8329	0.227	0.567	-0.469
Mof_O 	O 	0.8176	0.4338	0.6711	-0.468
Mof_O 	O 	0.8157	0.2285	0.6912	-1.255
Mof_O 	O 	0.748	0.3104	0.6987	-1.262
Mof_O 	O 	0.6639	0.222	0.7047	-1.15
Mof_O 	O 	0.742	0.1382	0.6995	-1.29
Mof_O 	O 	0.0267	0.1888	0.2565	-0.472
Mof_H 	H 	0.0001	0.1845	0.2927	0.258
Mof_O 	O 	0.3168	0.3899	0.0225	-0.445
Mof_H 	H 	0.3431	0.435	0.0283	0.228
Mof_F 	F 	0.8729	0.1193	0.081	-0.54
Mof_F 	F 	0.7159	0.3616	0.1251	-0.543
Mof_F 	F 	0.13	0.0573	0.9177	-0.526
Mof_F 	F 	0.2861	0.2743	0.8161	-0.495
Mof_W 	W 	0.87074	0.10581	0.87926	1.393
Mof_W 	W 	0.66932	0.10949	0.89555	1.291
Mof_W 	W 	0.66467	0.34369	0.89522	1.394
Mof_W 	W 	0.54723	0.22406	0.76628	1.356
Mof_W 	W 	0.8696	0.3336	0.877	0.54
Mof_W 	W 	0.8831	0.3286	0.877	0.459
Mof_W 	W 	0.852	0.3525	0.8772	0.306
Mof_C 	C 	0.6187	0.0201	0.1292	0.086
Mof_H 	H 	0.6609	0.0138	0.0996	-0.018
Mof_C 	C 	0.5052	0.0262	0.1616	0.077
Mof_H 	H 	0.4515	0.0251	0.1622	-0.022
Mof_C 	C 	0.529	0.0588	0.2948	-0.306
Mof_H 	H 	0.5687	0.0378	0.3297	0.197
Mof_H 	H 	0.4816	0.0268	0.3038	0.124
Mof_C 	C 	0.516	0.1583	0.3063	0.394
Mof_C 	C 	0.4655	0.1675	0.3737	-0.244
Mof_H 	H 	0.4161	0.1387	0.363	0.103
Mof_H 	H 	0.4905	0.1367	0.415	0.132
Mof_C 	C 	0.4858	0.3087	0.4435	0.1
Mof_H 	H 	0.5199	0.2873	0.4802	0.019
Mof_C 	C 	0.4177	0.3894	0.3767	0.103
Mof_H 	H 	0.3931	0.4393	0.3566	0.001
Mof_C 	C 	0.5896	0.2117	0.3215	-0.386
Mof_C 	C 	0.6043	0.2898	0.2822	0.341
Mof_H 	H 	0.5712	0.3074	0.2434	-0.063
Mof_C 	C 	0.6716	0.3423	0.3028	-0.516
Mof_H 	H 	0.6822	0.3955	0.279	0.258
Mof_C 	C 	0.7194	0.3108	0.3589	0.67
Mof_C 	C 	0.7058	0.2367	0.4005	-0.702
Mof_H 	H 	0.7379	0.2203	0.4405	0.327
Mof_C 	C 	0.643	0.1898	0.3795	0.67
Mof_C 	C 	0.3335	0.4797	0.5436	0.094
Mof_H 	H 	0.3136	0.4999	0.4984	0.015
Mof_C 	C 	0.4091	0.4455	0.6338	0.1
Mof_H 	H 	0.4542	0.4383	0.6629	0.009
Mof_C 	C 	0.21	0.437	0.6025	-0.278
Mof_H 	H 	0.1833	0.4918	0.5892	0.143
Mof_H 	H 	0.1978	0.4225	0.6527	0.171
Mof_C 	C 	0.1796	0.3608	0.5505	0.387
Mof_C 	C 	0.096	0.3405	0.5723	-0.253
Mof_H 	H 	0.0958	0.3284	0.6246	0.119
Mof_H 	H 	0.0639	0.3925	0.5625	0.092
Mof_C 	C 	0.0614	0.1802	0.5506	0.082
Mof_H 	H 	0.0812	0.1571	0.5949	-0.019
Mof_C 	C 	0.5082	0.8069	0.9471	0.097
Mof_H 	H 	0.4821	0.8211	0.903	-0.009
Mof_C 	C 	0.2308	0.2771	0.5575	-0.434
Mof_C 	C 	0.2583	0.2345	0.4983	0.408
Mof_H 	H 	0.2471	0.2576	0.4517	-0.085
Mof_C 	C 	0.3034	0.1564	0.5047	-0.594
Mof_H 	H 	0.3194	0.1256	0.4636	0.241
Mof_C 	C 	0.3221	0.1285	0.5749	0.718
Mof_C 	C 	0.2925	0.1668	0.635	-0.755
Mof_H 	H 	0.3026	0.1446	0.6821	0.346
Mof_C 	C 	0.2479	0.2388	0.6228	0.679
Mof_N 	N 	0.4668	0.3927	0.4358	-0.216
Mof_N 	N 	0.4517	0.2592	0.3945	-0.059
Mof_N 	N 	0.4081	0.3099	0.3504	-0.093
Mof_N 	N 	0.5523	0.0405	0.2207	-0.058
Mof_N 	N 	0.6257	0.0359	0.2004	-0.091
Mof_N 	N 	0.545	0.014	0.103	-0.266
Mof_N 	N 	0.4091	0.4747	0.5635	-0.215
Mof_N 	N 	0.3401	0.4283	0.6574	-0.079
Mof_N 	N 	0.2913	0.4509	0.5991	-0.038
Mof_N 	N 	0.063	0.2647	0.5322	-0.068
Mof_N 	N 	0.5284	0.8667	0.9981	-0.231
Mof_N 	N 	0.0292	0.2754	0.4658	-0.093
Mof_O 	O 	0.8361	0.0136	0.8161	-0.507
Mof_O 	O 	0.6862	0.0142	0.8276	-0.501
Mof_O 	O 	0.7749	0.1009	0.9242	-0.458
Mof_O 	O 	0.5787	0.1405	0.8356	-0.488
Mof_O 	O 	0.5591	0.1361	0.6926	-0.477
Mof_O 	O 	0.5768	0.3133	0.8371	-0.475
Mof_O 	O 	0.9405	0.311	0.806	-0.453
Mof_O 	O 	0.9241	0.401	0.936	-0.441
Mof_O 	O 	0.8345	0.4325	0.8142	-0.421
Mof_O 	O 	0.7714	0.3468	0.923	-0.412
Mof_O 	O 	0.8819	0.2229	0.9169	-0.433
Mof_O 	O 	0.6671	0.227	0.933	-0.467
Mof_O 	O 	0.6824	0.4338	0.8289	-0.469
Mof_O 	O 	0.6843	0.2285	0.8088	-1.254
Mof_O 	O 	0.752	0.3104	0.8013	-1.263
Mof_O 	O 	0.8361	0.222	0.7953	-1.152
Mof_O 	O 	0.758	0.1382	0.8005	-1.291
Mof_O 	O 	0.4733	0.1888	0.2435	-0.448
Mof_H 	H 	0.4999	0.1845	0.2073	0.27
Mof_O 	O 	0.1832	0.3899	0.4775	-0.43
Mof_H 	H 	0.1569	0.435	0.4717	0.227
Mof_F 	F 	0.6271	0.1193	0.419	-0.539
Mof_F 	F 	0.7841	0.3616	0.3749	-0.538
Mof_F 	F 	0.37	0.0573	0.5823	-0.546
Mof_F 	F 	0.2139	0.2743	0.6839	-0.508
Mof_Si	Si	0.25	0.7754	0.25	6.538
Mof_W 	W 	0.25	0.0104	0.25	1.226
Mof_W 	W 	0.25	0.53998	0.25	1.301
Mof_Si	Si	0.75	0.2246	0.75	6.578
Mof_W 	W 	0.75	0.9896	0.75	1.433
Mof_W 	W 	0.75	0.46002	0.75	1.306
Mof_Cu	Cu	-0	0.5	-0	0.886
Mof_Cu	Cu	0.5	0.5	0.5	0.91
Mof_Cu	Cu	2.0509e-33	-5.34663e-33	0.5	0.797
Mof_Cu	Cu	0.5	0	-0	0.8
_end
