data_functionalizedCrystal
_audit_creation_method	'EQeq! by Chris Wilmer'
_symmetry_space_group_name_H-M	'P1'
_symmetry_Int_Tables_number	1
_symmetry_cell_setting	triclinic
loop_
_symmetry_equiv_pos_as_xyz
  x,y,z
_cell_length_a	10.0452
_cell_length_b	14.1601
_cell_length_c	10.2294
_cell_angle_alpha	92.258
_cell_angle_beta	90
_cell_angle_gamma	90
loop_
_atom_site_label
_atom_site_type_symbol
_atom_site_fract_x
_atom_site_fract_y
_atom_site_fract_z
_atom_site_charge
Mof_Cu	Cu	0.24883	0.28535	0.92562	0.936
Mof_Cu	Cu	0.23228	0.78851	0.93235	0.879
Mof_Cu	Cu	0.87659	0.77034	0.70064	0.924
Mof_Cu	Cu	0.40664	0.78172	0.65605	0.93
Mof_Cu	Cu	0.28111	0.66436	0.40769	0.913
Mof_Cu	Cu	0.26386	0.87617	0.44109	0.923
Mof_Cu	Cu	0.25734	0.28744	0.43793	0.957
Mof_Cu	Cu	0.75117	0.28535	0.42562	0.954
Mof_Cu	Cu	0.76772	0.78851	0.43235	0.926
Mof_Cu	Cu	0.12341	0.77034	0.20064	0.926
Mof_Cu	Cu	0.59336	0.78172	0.15605	0.954
Mof_Cu	Cu	0.71889	0.66436	0.90769	0.893
Mof_Cu	Cu	0.73614	0.87617	0.94109	0.898
Mof_Cu	Cu	0.74266	0.28744	0.93793	0.931
Mof_H 	H 	0.3648	0.4926	0.7772	0.046
Mof_H 	H 	0.175	0.5211	0.6089	0.09
Mof_H 	H 	0.0053	0.4504	0.7071	0.079
Mof_H 	H 	0.0594	0.5071	0.9691	0.047
Mof_H 	H 	0.1246	0.0931	0.0931	0.078
Mof_H 	H 	0.3168	0.0532	0.2556	0.108
Mof_H 	H 	0.4972	0.1061	0.1484	0.08
Mof_H 	H 	0.4296	0.0667	0.8902	0.088
Mof_H 	H 	0.023	0.839	0.995	0.053
Mof_H 	H 	0.929	0.768	0.932	0.18
Mof_H 	H 	0.395	0.871	0.869	0.167
Mof_H 	H 	0.6352	0.4926	0.2772	0.061
Mof_H 	H 	0.825	0.5211	0.1089	0.118
Mof_H 	H 	0.9947	0.4504	0.2071	0.095
Mof_H 	H 	0.9406	0.5071	0.4691	0.079
Mof_H 	H 	0.8754	0.0931	0.5931	0.083
Mof_H 	H 	0.6832	0.0532	0.7556	0.096
Mof_H 	H 	0.5028	0.1061	0.6484	0.079
Mof_H 	H 	0.5704	0.0667	0.3902	0.077
Mof_H 	H 	0.977	0.839	0.495	0.17
Mof_H 	H 	0.071	0.768	0.432	0.212
Mof_H 	H 	0.605	0.871	0.369	0.192
Mof_C 	C 	0.275	0.4625	0.7681	-0.005
Mof_C 	C 	0.1765	0.5316	0.7062	-0.131
Mof_C 	C 	0.0441	0.5019	0.7649	-0.09
Mof_C 	C 	0.0808	0.4597	0.8971	-0.031
Mof_C 	C 	0.2844	0.372	0.6834	0.301
Mof_C 	C 	0.2187	0.6324	0.7423	0.405
Mof_C 	C 	0.9427	0.5816	0.7784	0.376
Mof_C 	C 	0.0017	0.3692	0.9191	0.336
Mof_C 	C 	0.2184	0.1165	0.0975	0.085
Mof_C 	C 	0.3099	0.0421	0.1587	-0.153
Mof_C 	C 	0.4456	0.0607	0.0906	-0.021
Mof_C 	C 	0.41	0.1107	0.9666	-0.119
Mof_C 	C 	0.2257	0.2105	0.1775	0.305
Mof_C 	C 	0.258	0.943	0.1244	0.413
Mof_C 	C 	0.53	0.9736	0.0667	0.473
Mof_C 	C 	0.4915	0.2008	0.9508	0.332
Mof_C 	C 	0.725	0.4625	0.2681	-0.005
Mof_C 	C 	0.8235	0.5316	0.2062	-0.126
Mof_C 	C 	0.9559	0.5019	0.2649	-0.09
Mof_C 	C 	0.9192	0.4597	0.3971	-0.033
Mof_C 	C 	0.7156	0.372	0.1834	0.298
Mof_C 	C 	0.7813	0.6324	0.2423	0.396
Mof_C 	C 	0.0573	0.5816	0.2784	0.384
Mof_C 	C 	0.9983	0.3692	0.4191	0.338
Mof_C 	C 	0.7816	0.1165	0.5975	-0.022
Mof_C 	C 	0.6901	0.0421	0.6587	-0.124
Mof_C 	C 	0.5544	0.0607	0.5906	-0.089
Mof_C 	C 	0.59	0.1107	0.4666	-0.031
Mof_C 	C 	0.7743	0.2105	0.6775	0.327
Mof_C 	C 	0.742	0.943	0.6244	0.41
Mof_C 	C 	0.47	0.9736	0.5667	0.357
Mof_C 	C 	0.5085	0.2008	0.4508	0.324
Mof_Cl	Cl	0.10757	0.96782	0.53	-0.493
Mof_Cl	Cl	0.62662	0.69091	0.65147	-0.575
Mof_Cl	Cl	0.89243	0.96782	0.03	-0.386
Mof_Cl	Cl	0.37338	0.69091	0.15147	-0.522
Mof_O 	O 	0.2221	0.4441	0.8948	-0.24
Mof_O 	O 	0.2436	0.2956	0.7279	-0.357
Mof_O 	O 	0.3262	0.3805	0.5687	-0.353
Mof_O 	O 	0.2788	0.6748	0.6533	-0.483
Mof_O 	O 	0.1971	0.6633	0.8559	-0.435
Mof_O 	O 	0.9541	0.6447	0.696	-0.41
Mof_O 	O 	0.8543	0.5745	0.8638	-0.438
Mof_O 	O 	0.8784	0.3801	0.9183	-0.409
Mof_O 	O 	0.0597	0.2932	0.9398	-0.416
Mof_O 	O 	0.068	0.7839	0.0238	-0.406
Mof_O 	O 	0.8456	0.7688	0.8868	-0.667
Mof_O 	O 	0.2693	0.1289	0.9685	-0.281
Mof_O 	O 	0.2579	0.2846	0.1228	-0.301
Mof_O 	O 	0.2005	0.2036	0.2975	-0.349
Mof_O 	O 	0.211	0.8961	0.2154	-0.463
Mof_O 	O 	0.2682	0.916	0.007	-0.352
Mof_O 	O 	0.5293	0.915	0.1566	-0.417
Mof_O 	O 	0.5954	0.9669	0.9618	-0.491
Mof_O 	O 	0.614	0.1913	0.9726	-0.406
Mof_O 	O 	0.439	0.2749	0.9125	-0.415
Mof_O 	O 	0.3938	0.806	0.8392	-0.533
Mof_O 	O 	0.3912	0.7687	0.4676	-0.506
Mof_O 	O 	0.7779	0.4441	0.3948	-0.216
Mof_O 	O 	0.7564	0.2956	0.2279	-0.334
Mof_O 	O 	0.6738	0.3805	0.0687	-0.289
Mof_O 	O 	0.7212	0.6748	0.1533	-0.443
Mof_O 	O 	0.8029	0.6633	0.3559	-0.403
Mof_O 	O 	0.0459	0.6447	0.196	-0.388
Mof_O 	O 	0.1457	0.5745	0.3638	-0.409
Mof_O 	O 	0.1216	0.3801	0.4183	-0.37
Mof_O 	O 	0.9403	0.2932	0.4398	-0.381
Mof_O 	O 	0.932	0.7839	0.5238	-0.554
Mof_O 	O 	0.1544	0.7688	0.3868	-0.66
Mof_O 	O 	0.7307	0.1289	0.4685	-0.211
Mof_O 	O 	0.7421	0.2846	0.6228	-0.365
Mof_O 	O 	0.7995	0.2036	0.7975	-0.371
Mof_O 	O 	0.789	0.8961	0.7154	-0.475
Mof_O 	O 	0.7318	0.916	0.507	-0.417
Mof_O 	O 	0.4707	0.915	0.6566	-0.406
Mof_O 	O 	0.4046	0.9669	0.4618	-0.392
Mof_O 	O 	0.386	0.1913	0.4726	-0.361
Mof_O 	O 	0.561	0.2749	0.4125	-0.383
Mof_O 	O 	0.6062	0.806	0.3392	-0.522
Mof_O 	O 	0.6088	0.7687	0.9676	-0.558
_end
