data_functionalizedCrystal
_audit_creation_method	'EQeq! by Chris Wilmer'
_symmetry_space_group_name_H-M	'P1'
_symmetry_Int_Tables_number	1
_symmetry_cell_setting	triclinic
loop_
_symmetry_equiv_pos_as_xyz
  x,y,z
_cell_length_a	9.941
_cell_length_b	13.627
_cell_length_c	17.686
_cell_angle_alpha	92.732
_cell_angle_beta	90
_cell_angle_gamma	90
loop_
_atom_site_label
_atom_site_type_symbol
_atom_site_fract_x
_atom_site_fract_y
_atom_site_fract_z
_atom_site_charge
Mof_Mg	Mg	0.06872	0.89584	0.96419	1.467
Mof_Mg	Mg	0.92959	0.6576	0.9765	1.472
Mof_Mg	Mg	0.56872	0.10416	0.53581	1.468
Mof_Mg	Mg	0.42959	0.3424	0.5235	1.472
Mof_Mg	Mg	0.93128	0.10416	0.03581	1.466
Mof_Mg	Mg	0.07041	0.3424	0.0235	1.471
Mof_Mg	Mg	0.43128	0.89584	0.46419	1.467
Mof_Mg	Mg	0.57041	0.6576	0.4765	1.471
Mof_H 	H 	0.8077	0.9805	0.7887	0.045
Mof_H 	H 	0.6977	0.0024	0.6741	0.024
Mof_H 	H 	0.6258	0.7092	0.6517	0.015
Mof_H 	H 	0.7205	0.6892	0.7711	0.052
Mof_H 	H 	0.2827	0.8124	0.7558	0.045
Mof_H 	H 	0.3774	0.739	0.646	0.03
Mof_H 	H 	0.2889	0.4711	0.7239	0.038
Mof_H 	H 	0.1981	0.544	0.834	0.04
Mof_H 	H 	0.3077	0.0195	0.7113	0.052
Mof_H 	H 	0.1977	0.9976	0.8259	0.008
Mof_H 	H 	0.1258	0.2908	0.8483	0.013
Mof_H 	H 	0.2205	0.3108	0.7289	0.054
Mof_H 	H 	0.7827	0.1876	0.7442	0.046
Mof_H 	H 	0.8774	0.261	0.854	0.029
Mof_H 	H 	0.7889	0.5289	0.7761	0.038
Mof_H 	H 	0.6981	0.456	0.666	0.04
Mof_H 	H 	0.1923	0.0195	0.2113	0.045
Mof_H 	H 	0.3023	0.9976	0.3259	0.024
Mof_H 	H 	0.3742	0.2908	0.3483	0.015
Mof_H 	H 	0.2795	0.3108	0.2289	0.052
Mof_H 	H 	0.7173	0.1876	0.2442	0.045
Mof_H 	H 	0.6226	0.261	0.354	0.03
Mof_H 	H 	0.7111	0.5289	0.2761	0.038
Mof_H 	H 	0.8019	0.456	0.166	0.04
Mof_H 	H 	0.6923	0.9805	0.2887	0.052
Mof_H 	H 	0.8023	0.0024	0.1741	0.008
Mof_H 	H 	0.8742	0.7092	0.1517	0.013
Mof_H 	H 	0.7795	0.6892	0.2711	0.054
Mof_H 	H 	0.2173	0.8124	0.2558	0.046
Mof_H 	H 	0.1226	0.739	0.146	0.029
Mof_H 	H 	0.2111	0.4711	0.2239	0.038
Mof_H 	H 	0.3019	0.544	0.334	0.04
Mof_C 	C 	0.8457	0.8186	0.8652	0.418
Mof_C 	C 	0.7749	0.8328	0.79	-0.081
Mof_C 	C 	0.7686	0.9259	0.7614	-0.033
Mof_C 	C 	0.705	0.9385	0.693	0.015
Mof_C 	C 	0.6518	0.8581	0.6516	-0.148
Mof_C 	C 	0.6602	0.7645	0.6803	0.012
Mof_C 	C 	0.7187	0.7522	0.7503	-0.034
Mof_C 	C 	0.5854	0.8723	0.5777	0.428
Mof_C 	C 	0.1701	0.7349	0.8758	0.403
Mof_C 	C 	0.2322	0.686	0.8053	-0.087
Mof_C 	C 	0.285	0.7428	0.7493	-0.022
Mof_C 	C 	0.3409	0.6996	0.6839	-0.003
Mof_C 	C 	0.3427	0.5966	0.6747	-0.12
Mof_C 	C 	0.2884	0.5406	0.7307	0.003
Mof_C 	C 	0.2339	0.5835	0.7959	-0.024
Mof_C 	C 	0.4027	0.5483	0.6031	0.469
Mof_C 	C 	0.3457	0.1814	0.6348	0.415
Mof_C 	C 	0.2749	0.1672	0.71	-0.073
Mof_C 	C 	0.2686	0.0741	0.7386	-0.047
Mof_C 	C 	0.205	0.0615	0.807	0.041
Mof_C 	C 	0.1518	0.1419	0.8484	-0.158
Mof_C 	C 	0.1602	0.2355	0.8197	0.021
Mof_C 	C 	0.2187	0.2478	0.7497	-0.042
Mof_C 	C 	0.0854	0.1277	0.9223	0.433
Mof_C 	C 	0.6701	0.2651	0.6242	0.403
Mof_C 	C 	0.7322	0.314	0.6947	-0.087
Mof_C 	C 	0.785	0.2572	0.7507	-0.023
Mof_C 	C 	0.8409	0.3004	0.8161	-0.002
Mof_C 	C 	0.8427	0.4034	0.8253	-0.12
Mof_C 	C 	0.7884	0.4594	0.7693	0.004
Mof_C 	C 	0.7339	0.4165	0.7041	-0.025
Mof_C 	C 	0.9027	0.4517	0.8969	0.47
Mof_C 	C 	0.1543	0.1814	0.1348	0.418
Mof_C 	C 	0.2251	0.1672	0.21	-0.081
Mof_C 	C 	0.2314	0.0741	0.2386	-0.033
Mof_C 	C 	0.295	0.0615	0.307	0.015
Mof_C 	C 	0.3482	0.1419	0.3484	-0.148
Mof_C 	C 	0.3398	0.2355	0.3197	0.012
Mof_C 	C 	0.2813	0.2478	0.2497	-0.034
Mof_C 	C 	0.4146	0.1277	0.4223	0.428
Mof_C 	C 	0.8299	0.2651	0.1242	0.403
Mof_C 	C 	0.7678	0.314	0.1947	-0.087
Mof_C 	C 	0.715	0.2572	0.2507	-0.022
Mof_C 	C 	0.6591	0.3004	0.3161	-0.003
Mof_C 	C 	0.6573	0.4034	0.3253	-0.12
Mof_C 	C 	0.7116	0.4594	0.2693	0.003
Mof_C 	C 	0.7661	0.4165	0.2041	-0.024
Mof_C 	C 	0.5973	0.4517	0.3969	0.469
Mof_C 	C 	0.6543	0.8186	0.3652	0.415
Mof_C 	C 	0.7251	0.8328	0.29	-0.073
Mof_C 	C 	0.7314	0.9259	0.2614	-0.047
Mof_C 	C 	0.795	0.9385	0.193	0.041
Mof_C 	C 	0.8482	0.8581	0.1516	-0.158
Mof_C 	C 	0.8398	0.7645	0.1803	0.021
Mof_C 	C 	0.7813	0.7522	0.2503	-0.042
Mof_C 	C 	0.9146	0.8723	0.0777	0.433
Mof_C 	C 	0.3299	0.7349	0.3758	0.403
Mof_C 	C 	0.2678	0.686	0.3053	-0.087
Mof_C 	C 	0.215	0.7428	0.2493	-0.023
Mof_C 	C 	0.1591	0.6996	0.1839	-0.002
Mof_C 	C 	0.1573	0.5966	0.1747	-0.12
Mof_C 	C 	0.2116	0.5406	0.2307	0.004
Mof_C 	C 	0.2661	0.5835	0.2959	-0.025
Mof_C 	C 	0.0973	0.5483	0.1031	0.47
Mof_O 	O 	0.9181	0.8884	0.889	-0.529
Mof_O 	O 	0.8262	0.7396	0.8972	-0.498
Mof_O 	O 	0.5802	0.9583	0.553	-0.646
Mof_O 	O 	0.5318	0.8016	0.5397	-0.631
Mof_O 	O 	0.1893	0.8263	0.8874	-0.521
Mof_O 	O 	0.1036	0.6833	0.9192	-0.531
Mof_O 	O 	0.3762	0.4602	0.5903	-0.529
Mof_O 	O 	0.4779	0.6006	0.5641	-0.549
Mof_O 	O 	0.4181	0.1116	0.611	-0.527
Mof_O 	O 	0.3262	0.2604	0.6028	-0.496
Mof_O 	O 	0.0802	0.0417	0.947	-0.64
Mof_O 	O 	0.0318	0.1984	0.9603	-0.627
Mof_O 	O 	0.6893	0.1737	0.6126	-0.519
Mof_O 	O 	0.6036	0.3167	0.5808	-0.53
Mof_O 	O 	0.8762	0.5398	0.9097	-0.529
Mof_O 	O 	0.9779	0.3994	0.9359	-0.55
Mof_O 	O 	0.0819	0.1116	0.111	-0.529
Mof_O 	O 	0.1738	0.2604	0.1028	-0.498
Mof_O 	O 	0.4198	0.0417	0.447	-0.646
Mof_O 	O 	0.4682	0.1984	0.4603	-0.631
Mof_O 	O 	0.8107	0.1737	0.1126	-0.521
Mof_O 	O 	0.8964	0.3167	0.0808	-0.531
Mof_O 	O 	0.6238	0.5398	0.4097	-0.529
Mof_O 	O 	0.5221	0.3994	0.4359	-0.549
Mof_O 	O 	0.5819	0.8884	0.389	-0.527
Mof_O 	O 	0.6738	0.7396	0.3972	-0.496
Mof_O 	O 	0.9198	0.9583	0.053	-0.64
Mof_O 	O 	0.9682	0.8016	0.0397	-0.627
Mof_O 	O 	0.3107	0.8263	0.3874	-0.519
Mof_O 	O 	0.3964	0.6833	0.4192	-0.53
Mof_O 	O 	0.1238	0.4602	0.0903	-0.529
Mof_O 	O 	0.0221	0.6006	0.0641	-0.55
_end
