data_functionalizedCrystal
_audit_creation_method	'EQeq! by Chris Wilmer'
_symmetry_space_group_name_H-M	'P1'
_symmetry_Int_Tables_number	1
_symmetry_cell_setting	triclinic
loop_
_symmetry_equiv_pos_as_xyz
  x,y,z
_cell_length_a	9.7641
_cell_length_b	14.0488
_cell_length_c	14.0488
_cell_angle_alpha	94.9531
_cell_angle_beta	104.196
_cell_angle_gamma	104.196
loop_
_atom_site_label
_atom_site_type_symbol
_atom_site_fract_x
_atom_site_fract_y
_atom_site_fract_z
_atom_site_charge
Mof_Yb	Yb	0.84363	0.36907	0.19712	1.938
Mof_Yb	Yb	0.65637	0.80288	0.63093	1.938
Mof_Yb	Yb	0.15637	0.63093	0.80288	1.939
Mof_Yb	Yb	0.34363	0.19712	0.36907	1.939
Mof_Yb	Yb	0.75	0.21873	0.78127	2.013
Mof_Yb	Yb	0.25	0.78127	0.21873	2.013
Mof_H 	H 	0.3664	0.261	0.8548	-0.015
Mof_H 	H 	0.19	0.4057	0.0253	0.01
Mof_H 	H 	0.1639	0.3101	0.8805	0.138
Mof_H 	H 	0.873	0.168	0.936	0.3
Mof_H 	H 	0.897	0.261	0.983	0.376
Mof_H 	H 	0.1336	0.1452	0.739	-0.015
Mof_H 	H 	0.31	0.9747	0.5943	0.009
Mof_H 	H 	0.3361	0.1195	0.6899	0.138
Mof_H 	H 	0.627	0.064	0.832	0.3
Mof_H 	H 	0.603	0.017	0.739	0.376
Mof_H 	H 	0.6336	0.739	0.1452	-0.015
Mof_H 	H 	0.81	0.5943	0.9747	0.01
Mof_H 	H 	0.8361	0.6899	0.1195	0.138
Mof_H 	H 	0.127	0.832	0.064	0.3
Mof_H 	H 	0.103	0.739	0.017	0.376
Mof_H 	H 	0.8664	0.8548	0.261	-0.015
Mof_H 	H 	0.69	0.0253	0.4057	0.009
Mof_H 	H 	0.6639	0.8805	0.3101	0.138
Mof_H 	H 	0.373	0.936	0.168	0.3
Mof_H 	H 	0.397	0.983	0.261	0.376
Mof_C 	C 	0.5216	0.3856	0.077	0.373
Mof_C 	C 	0.1378	0.3346	0.3204	0.264
Mof_C 	C 	0.6299	0.2878	0.968	0.551
Mof_C 	C 	0.0858	0.2543	0.2287	0.262
Mof_C 	C 	0.9163	0.4497	0.8313	0.288
Mof_C 	C 	0.5052	0.3238	0.9866	-0.328
Mof_C 	C 	0.3752	0.2989	0.9149	0.219
Mof_C 	C 	0.2694	0.3853	0.0145	0.158
Mof_C 	C 	0.2533	0.329	0.9294	-0.234
Mof_C 	C 	0.986	0.4055	0.7567	0.255
Mof_C 	C 	0.9784	0.923	0.6144	0.371
Mof_C 	C 	0.3622	0.6796	0.6654	0.264
Mof_C 	C 	0.8701	0.032	0.7122	0.551
Mof_C 	C 	0.4142	0.7713	0.7457	0.264
Mof_C 	C 	0.5837	0.1687	0.5503	0.288
Mof_C 	C 	0.9948	0.0134	0.6762	-0.326
Mof_C 	C 	0.1248	0.0851	0.7011	0.217
Mof_C 	C 	0.2306	0.9855	0.6147	0.159
Mof_C 	C 	0.2467	0.0706	0.671	-0.235
Mof_C 	C 	0.514	0.2433	0.5945	0.256
Mof_C 	C 	0.4784	0.6144	0.923	0.373
Mof_C 	C 	0.8622	0.6654	0.6796	0.264
Mof_C 	C 	0.3701	0.7122	0.032	0.551
Mof_C 	C 	0.9142	0.7457	0.7713	0.262
Mof_C 	C 	0.0837	0.5503	0.1687	0.288
Mof_C 	C 	0.4948	0.6762	0.0134	-0.328
Mof_C 	C 	0.6248	0.7011	0.0851	0.219
Mof_C 	C 	0.7306	0.6147	0.9855	0.158
Mof_C 	C 	0.7467	0.671	0.0706	-0.234
Mof_C 	C 	0.014	0.5945	0.2433	0.255
Mof_C 	C 	0.0216	0.077	0.3856	0.371
Mof_C 	C 	0.6378	0.3204	0.3346	0.264
Mof_C 	C 	0.1299	0.968	0.2878	0.551
Mof_C 	C 	0.5858	0.2287	0.2543	0.264
Mof_C 	C 	0.4163	0.8313	0.4497	0.288
Mof_C 	C 	0.0052	0.9866	0.3238	-0.326
Mof_C 	C 	0.8752	0.9149	0.2989	0.217
Mof_C 	C 	0.7694	0.0145	0.3853	0.159
Mof_C 	C 	0.7533	0.9294	0.329	-0.235
Mof_C 	C 	0.486	0.7567	0.4055	0.256
Mof_N 	N 	0.3996	0.4133	0.0859	-0.171
Mof_N 	N 	0.1004	0.9141	0.5867	-0.17
Mof_N 	N 	0.6004	0.5867	0.9141	-0.171
Mof_N 	N 	0.8996	0.0859	0.4133	-0.17
Mof_O 	O 	0.6355	0.4178	0.1492	-0.443
Mof_O 	O 	0.0539	0.3864	0.3292	-0.374
Mof_O 	O 	0.7517	0.31	0.0348	-0.542
Mof_O 	O 	0.8129	0.3905	0.8491	-0.389
Mof_O 	O 	0.6078	0.237	0.885	-0.505
Mof_O 	O 	0.9121	0.229	0.9338	-0.828
Mof_O 	O 	0.964	0.2495	0.1691	-0.405
Mof_O 	O 	0.9739	0.5396	0.8664	-0.41
Mof_O 	O 	0.2598	0.3403	0.3793	-0.354
Mof_O 	O 	0.1672	0.1995	0.2205	-0.391
Mof_O 	O 	0.9319	0.3148	0.722	-0.386
Mof_O 	O 	0.0891	0.4636	0.7344	-0.363
Mof_O 	O 	0.8645	0.8508	0.5822	-0.443
Mof_O 	O 	0.4461	0.6708	0.6136	-0.374
Mof_O 	O 	0.7483	0.9652	0.69	-0.543
Mof_O 	O 	0.6871	0.1509	0.6095	-0.389
Mof_O 	O 	0.8922	0.115	0.763	-0.505
Mof_O 	O 	0.5879	0.0662	0.771	-0.829
Mof_O 	O 	0.536	0.8309	0.7505	-0.406
Mof_O 	O 	0.5261	0.1336	0.4604	-0.409
Mof_O 	O 	0.2402	0.6207	0.6597	-0.354
Mof_O 	O 	0.3328	0.7795	0.8005	-0.391
Mof_O 	O 	0.5681	0.278	0.6852	-0.386
Mof_O 	O 	0.4109	0.2656	0.5364	-0.364
Mof_O 	O 	0.3645	0.5822	0.8508	-0.443
Mof_O 	O 	0.9461	0.6136	0.6708	-0.374
Mof_O 	O 	0.2483	0.69	0.9652	-0.542
Mof_O 	O 	0.1871	0.6095	0.1509	-0.389
Mof_O 	O 	0.3922	0.763	0.115	-0.505
Mof_O 	O 	0.0879	0.771	0.0662	-0.828
Mof_O 	O 	0.036	0.7505	0.8309	-0.405
Mof_O 	O 	0.0261	0.4604	0.1336	-0.41
Mof_O 	O 	0.7402	0.6597	0.6207	-0.354
Mof_O 	O 	0.8328	0.8005	0.7795	-0.391
Mof_O 	O 	0.0681	0.6852	0.278	-0.386
Mof_O 	O 	0.9109	0.5364	0.2656	-0.363
Mof_O 	O 	0.1355	0.1492	0.4178	-0.443
Mof_O 	O 	0.5539	0.3292	0.3864	-0.374
Mof_O 	O 	0.2517	0.0348	0.31	-0.543
Mof_O 	O 	0.3129	0.8491	0.3905	-0.389
Mof_O 	O 	0.1078	0.885	0.237	-0.505
Mof_O 	O 	0.4121	0.9338	0.229	-0.829
Mof_O 	O 	0.464	0.1691	0.2495	-0.406
Mof_O 	O 	0.4739	0.8664	0.5396	-0.409
Mof_O 	O 	0.7598	0.3793	0.3403	-0.354
Mof_O 	O 	0.6672	0.2205	0.1995	-0.391
Mof_O 	O 	0.4319	0.722	0.3148	-0.386
Mof_O 	O 	0.5891	0.7344	0.4636	-0.364
_end
