data_functionalizedCrystal
_audit_creation_method	'EQeq! by Chris Wilmer'
_symmetry_space_group_name_H-M	'P1'
_symmetry_Int_Tables_number	1
_symmetry_cell_setting	triclinic
loop_
_symmetry_equiv_pos_as_xyz
  x,y,z
_cell_length_a	20.0664
_cell_length_b	20.0662
_cell_length_c	20.0662
_cell_angle_alpha	109.471
_cell_angle_beta	109.471
_cell_angle_gamma	109.471
loop_
_atom_site_label
_atom_site_type_symbol
_atom_site_fract_x
_atom_site_fract_y
_atom_site_fract_z
_atom_site_charge
Mof_Co	Co	0.5	0.5	0.5	1.199
Mof_Co	Co	0.5	0	-0	1.162
Mof_Co	Co	1.8278e-17	3.6556e-17	0.5	1.162
Mof_Co	Co	-0	0.5	-0	1.162
Mof_H 	H 	0.5131	0.8902	0.0903	0.044
Mof_H 	H 	0.2553	0.36	0.3337	0.026
Mof_H 	H 	0.1098	0.6229	0.2001	0.044
Mof_H 	H 	0.8902	0.3771	0.7999	0.045
Mof_H 	H 	0.1491	0.2726	0.3361	0.058
Mof_H 	H 	0.1021	0.8033	0.3822	0.067
Mof_H 	H 	0.1098	0.9097	0.4869	0.045
Mof_H 	H 	0.9216	0.6663	0.0263	-0.016
Mof_H 	H 	0.813	0.8765	0.1491	0.069
Mof_H 	H 	0.1047	0.0263	0.36	-0.034
Mof_H 	H 	0.7012	0.4211	0.8033	0.071
Mof_H 	H 	0.2801	0.3822	0.5789	0.067
Mof_H 	H 	0.7447	0.0784	0.1047	0.02
Mof_H 	H 	0.9097	0.4869	0.1098	0.044
Mof_H 	H 	0.3337	0.2553	0.36	0.025
Mof_H 	H 	0.8765	0.0635	0.7274	0.041
Mof_H 	H 	0.0784	0.1047	0.7447	0.02
Mof_H 	H 	0.6229	0.2001	0.1098	0.043
Mof_H 	H 	0.1021	0.7199	0.2988	0.056
Mof_H 	H 	0.4869	0.5772	0.3771	0.043
Mof_H 	H 	0.0784	0.3337	0.9737	0.08
Mof_H 	H 	0.4869	0.1098	0.9097	0.044
Mof_H 	H 	0.5772	0.3771	0.4869	0.043
Mof_H 	H 	0.0903	0.2001	0.5772	0.042
Mof_H 	H 	0.64	0.8953	0.9737	0.091
Mof_H 	H 	0.8902	0.0903	0.5131	0.043
Mof_H 	H 	0.9365	0.2726	0.1235	0.086
Mof_H 	H 	0.2988	0.1021	0.7199	0.056
Mof_H 	H 	0.4228	0.9097	0.7999	0.045
Mof_H 	H 	0.5131	0.4228	0.6229	0.044
Mof_H 	H 	0.4211	0.7199	0.6178	0.061
Mof_H 	H 	0.3361	0.0635	0.187	0.028
Mof_H 	H 	0.3771	0.7999	0.8902	0.044
Mof_H 	H 	0.6663	0.7447	0.64	0.035
Mof_H 	H 	0.0263	0.9216	0.6663	-0.017
Mof_H 	H 	0.2726	0.3361	0.1491	0.057
Mof_H 	H 	0.2801	0.7012	0.8979	0.072
Mof_H 	H 	0.5789	0.1967	0.2988	0.057
Mof_H 	H 	0.6663	0.0263	0.9216	-0.017
Mof_H 	H 	0.64	0.6663	0.7447	0.035
Mof_H 	H 	0.0903	0.5131	0.8902	0.043
Mof_H 	H 	0.1235	0.9365	0.2726	0.086
Mof_H 	H 	0.2988	0.5789	0.1967	0.057
Mof_H 	H 	0.6178	0.8979	0.1967	0.062
Mof_H 	H 	0.7199	0.6178	0.4211	0.061
Mof_H 	H 	0.5772	0.0903	0.2001	0.042
Mof_H 	H 	0.6639	0.8509	0.7274	0.067
Mof_H 	H 	0.7274	0.6639	0.8509	0.067
Mof_H 	H 	0.7274	0.8765	0.0635	0.041
Mof_H 	H 	0.8953	0.2553	0.9216	0.039
Mof_H 	H 	0.1967	0.6178	0.8979	0.062
Mof_H 	H 	0.1047	0.7447	0.0784	0.02
Mof_H 	H 	0.187	0.3361	0.0635	0.028
Mof_H 	H 	0.2726	0.1235	0.9365	0.086
Mof_H 	H 	0.8509	0.7274	0.6639	0.067
Mof_H 	H 	0.36	0.1047	0.0263	-0.035
Mof_H 	H 	0.4211	0.8033	0.7012	0.071
Mof_H 	H 	0.6178	0.4211	0.7199	0.061
Mof_H 	H 	0.9737	0.64	0.8953	0.091
Mof_H 	H 	0.7447	0.64	0.6663	0.035
Mof_H 	H 	0.8979	0.1967	0.6178	0.062
Mof_H 	H 	0.3337	0.9737	0.0784	0.08
Mof_H 	H 	0.2001	0.1098	0.6229	0.043
Mof_H 	H 	0.4228	0.6229	0.5131	0.044
Mof_H 	H 	0.0635	0.7274	0.8765	0.041
Mof_H 	H 	0.7999	0.4228	0.9097	0.045
Mof_H 	H 	0.9365	0.813	0.6639	0.094
Mof_H 	H 	0.8765	0.1491	0.813	0.068
Mof_H 	H 	0.5789	0.2801	0.3822	0.067
Mof_H 	H 	0.0263	0.36	0.1047	-0.035
Mof_H 	H 	0.9097	0.7999	0.4228	0.045
Mof_H 	H 	0.7999	0.8902	0.3771	0.044
Mof_H 	H 	0.2001	0.5772	0.0903	0.042
Mof_H 	H 	0.36	0.3337	0.2553	0.025
Mof_H 	H 	0.3771	0.4869	0.5772	0.043
Mof_H 	H 	0.3822	0.5789	0.2801	0.067
Mof_H 	H 	0.1235	0.8509	0.187	0.056
Mof_H 	H 	0.3361	0.1491	0.2726	0.057
Mof_H 	H 	0.6229	0.5131	0.4228	0.044
Mof_H 	H 	0.1491	0.813	0.8765	0.068
Mof_H 	H 	0.8033	0.3822	0.1021	0.066
Mof_H 	H 	0.9737	0.0784	0.3337	0.08
Mof_H 	H 	0.9216	0.8953	0.2553	0.039
Mof_H 	H 	0.8509	0.187	0.1235	0.056
Mof_H 	H 	0.8033	0.7012	0.4211	0.071
Mof_H 	H 	0.813	0.6639	0.9365	0.094
Mof_H 	H 	0.6639	0.9365	0.813	0.094
Mof_H 	H 	0.3822	0.1021	0.8033	0.066
Mof_H 	H 	0.8953	0.9737	0.64	0.091
Mof_H 	H 	0.0635	0.187	0.3361	0.028
Mof_H 	H 	0.2553	0.9216	0.8953	0.039
Mof_H 	H 	0.7199	0.2988	0.1021	0.056
Mof_H 	H 	0.1967	0.2988	0.5789	0.057
Mof_H 	H 	0.8979	0.2801	0.7012	0.072
Mof_H 	H 	0.187	0.1235	0.8509	0.056
Mof_H 	H 	0.7012	0.8979	0.2801	0.072
Mof_C 	C 	0.20445	0.31788	0.45773	0.055
Mof_C 	C 	0.89327	0.33292	0.80563	0.045
Mof_C 	C 	0.62052	0.47144	0.72728	-0.081
Mof_C 	C 	0.61556	0.74054	0.63324	0.047
Mof_C 	C 	0.8927	0.01768	0.63324	-0.037
Mof_C 	C 	0.63324	0.8927	0.01768	-0.037
Mof_C 	C 	0.27272	0.74416	0.89324	-0.098
Mof_C 	C 	0.33292	0.43965	0.52729	0.035
Mof_C 	C 	0.25584	0.52856	0.14908	-0.072
Mof_C 	C 	0.54227	0.86015	0.74672	0.076
Mof_C 	C 	0.38594	0.198	0.31374	-0.113
Mof_C 	C 	0.56035	0.47271	0.66708	0.03
Mof_C 	C 	0.68626	0.61406	0.802	-0.094
Mof_C 	C 	0.61406	0.802	0.68626	-0.094
Mof_C 	C 	0.68212	0.88657	0.13985	0.019
Mof_C 	C 	0.85092	0.74416	0.47144	-0.109
Mof_C 	C 	0.66708	0.56035	0.47271	0.03
Mof_C 	C 	0.08764	0.19437	0.52729	0.017
Mof_C 	C 	0.88426	0.198	0.81206	-0.11
Mof_C 	C 	0.91236	0.80563	0.47271	0.048
Mof_C 	C 	0.52729	0.08764	0.19437	0.017
Mof_C 	C 	0.13985	0.25328	0.45773	0.011
Mof_C 	C 	0.10673	0.91236	0.43965	0.04
Mof_C 	C 	0.61406	0.9278	0.81206	-0.155
Mof_C 	C 	0.19437	0.10673	0.66708	0.021
Mof_C 	C 	0.86015	0.74672	0.54227	0.076
Mof_C 	C 	0.27272	0.37948	0.52856	-0.099
Mof_C 	C 	0.25946	0.87502	0.8927	0.06
Mof_C 	C 	0.33292	0.80563	0.89327	0.045
Mof_C 	C 	0.80563	0.47271	0.91236	0.048
Mof_C 	C 	0.72728	0.25584	0.10676	-0.083
Mof_C 	C 	0.802	0.18794	0.11574	-0.096
Mof_C 	C 	0.10676	0.72728	0.25584	-0.083
Mof_C 	C 	0.43965	0.10673	0.91236	0.04
Mof_C 	C 	0.61556	0.98232	0.87502	0.145
Mof_C 	C 	0.74416	0.89324	0.27272	-0.098
Mof_C 	C 	0.74054	0.12498	0.1073	0.038
Mof_C 	C 	0.68212	0.54227	0.79555	0.034
Mof_C 	C 	0.98232	0.87502	0.61556	0.145
Mof_C 	C 	0.31788	0.45773	0.20445	0.055
Mof_C 	C 	0.87502	0.8927	0.25946	0.06
Mof_C 	C 	0.198	0.81206	0.88426	-0.11
Mof_C 	C 	0.1073	0.98232	0.36676	0.142
Mof_C 	C 	0.98232	0.36676	0.1073	0.142
Mof_C 	C 	0.89324	0.27272	0.74416	-0.098
Mof_C 	C 	0.9278	0.31374	0.11574	-0.162
Mof_C 	C 	0.25946	0.36676	0.38444	0.05
Mof_C 	C 	0.54227	0.79555	0.68212	0.034
Mof_C 	C 	0.43965	0.52729	0.33292	0.035
Mof_C 	C 	0.86015	0.31788	0.11343	0.072
Mof_C 	C 	0.81206	0.61406	0.9278	-0.155
Mof_C 	C 	0.0722	0.18794	0.38594	-0.047
Mof_C 	C 	0.31374	0.38594	0.198	-0.113
Mof_C 	C 	0.1073	0.74054	0.12498	0.038
Mof_C 	C 	0.36676	0.38444	0.25946	0.05
Mof_C 	C 	0.85092	0.37948	0.10676	-0.111
Mof_C 	C 	0.62052	0.89324	0.14908	-0.071
Mof_C 	C 	0.88426	0.0722	0.68626	-0.048
Mof_C 	C 	0.79555	0.68212	0.54227	0.034
Mof_C 	C 	0.52856	0.14908	0.25584	-0.072
Mof_C 	C 	0.01768	0.12498	0.38444	-0.053
Mof_C 	C 	0.18794	0.11574	0.802	-0.096
Mof_C 	C 	0.9278	0.81206	0.61406	-0.155
Mof_C 	C 	0.88657	0.13985	0.68212	0.019
Mof_C 	C 	0.20445	0.74672	0.88657	0.062
Mof_C 	C 	0.38594	0.0722	0.18794	-0.047
Mof_C 	C 	0.198	0.31374	0.38594	-0.113
Mof_C 	C 	0.08764	0.56035	0.89327	0.028
Mof_C 	C 	0.88657	0.20445	0.74672	0.062
Mof_C 	C 	0.45773	0.20445	0.31788	0.055
Mof_C 	C 	0.74672	0.54227	0.86015	0.076
Mof_C 	C 	0.10676	0.85092	0.37948	-0.111
Mof_C 	C 	0.36676	0.1073	0.98232	0.142
Mof_C 	C 	0.11574	0.802	0.18794	-0.096
Mof_C 	C 	0.37948	0.52856	0.27272	-0.099
Mof_C 	C 	0.91236	0.43965	0.10673	0.04
Mof_C 	C 	0.63324	0.61556	0.74054	0.047
Mof_C 	C 	0.19437	0.52729	0.08764	0.017
Mof_C 	C 	0.47271	0.66708	0.56035	0.03
Mof_C 	C 	0.66708	0.19437	0.10673	0.021
Mof_C 	C 	0.14908	0.62052	0.89324	-0.071
Mof_C 	C 	0.25584	0.10676	0.72728	-0.083
Mof_C 	C 	0.45773	0.13985	0.25328	0.011
Mof_C 	C 	0.72728	0.62052	0.47144	-0.081
Mof_C 	C 	0.14908	0.25584	0.52856	-0.072
Mof_C 	C 	0.47144	0.72728	0.62052	-0.081
Mof_C 	C 	0.01768	0.63324	0.8927	-0.037
Mof_C 	C 	0.18794	0.38594	0.0722	-0.047
Mof_C 	C 	0.74054	0.63324	0.61556	0.047
Mof_C 	C 	0.87502	0.61556	0.98232	0.145
Mof_C 	C 	0.47144	0.85092	0.74416	-0.109
Mof_C 	C 	0.52856	0.27272	0.37948	-0.099
Mof_C 	C 	0.31788	0.11343	0.86015	0.072
Mof_C 	C 	0.74672	0.88657	0.20445	0.062
Mof_C 	C 	0.31374	0.11574	0.9278	-0.162
Mof_C 	C 	0.11343	0.86015	0.31788	0.072
Mof_C 	C 	0.56035	0.89327	0.08764	0.028
Mof_C 	C 	0.13985	0.68212	0.88657	0.019
Mof_C 	C 	0.74416	0.47144	0.85092	-0.109
Mof_C 	C 	0.80563	0.89327	0.33292	0.045
Mof_C 	C 	0.11574	0.9278	0.31374	-0.162
Mof_C 	C 	0.0722	0.68626	0.88426	-0.048
Mof_C 	C 	0.52729	0.33292	0.43965	0.035
Mof_C 	C 	0.38444	0.01768	0.12498	-0.053
Mof_C 	C 	0.38444	0.25946	0.36676	0.05
Mof_C 	C 	0.89327	0.08764	0.56035	0.028
Mof_C 	C 	0.25328	0.45773	0.13985	0.011
Mof_C 	C 	0.68626	0.88426	0.0722	-0.048
Mof_C 	C 	0.10673	0.66708	0.19437	0.021
Mof_C 	C 	0.47271	0.91236	0.80563	0.048
Mof_C 	C 	0.802	0.68626	0.61406	-0.094
Mof_C 	C 	0.81206	0.88426	0.198	-0.11
Mof_C 	C 	0.25328	0.11343	0.79555	0.027
Mof_C 	C 	0.8927	0.25946	0.87502	0.06
Mof_C 	C 	0.37948	0.10676	0.85092	-0.111
Mof_C 	C 	0.12498	0.38444	0.01768	-0.053
Mof_C 	C 	0.89324	0.14908	0.62052	-0.071
Mof_C 	C 	0.12498	0.1073	0.74054	0.038
Mof_C 	C 	0.79555	0.25328	0.11343	0.027
Mof_C 	C 	0.11343	0.79555	0.25328	0.027
Mof_N 	N 	0.02607	0.56885	0.89758	-0.069
Mof_N 	N 	0.97393	0.43115	0.10242	-0.068
Mof_N 	N 	0.10242	0.97393	0.43115	-0.068
Mof_N 	N 	0.56885	0.89758	0.02607	-0.069
Mof_N 	N 	0.32873	0.43115	0.45722	-0.07
Mof_N 	N 	0.45722	0.02607	0.12849	-0.07
Mof_N 	N 	0.87151	0.89758	0.32873	-0.069
Mof_N 	N 	0.56885	0.54278	0.67127	-0.067
Mof_N 	N 	0.43115	0.10242	0.97393	-0.068
Mof_N 	N 	0.10242	0.67127	0.12849	-0.068
Mof_N 	N 	0.43115	0.45722	0.32873	-0.07
Mof_N 	N 	0.02607	0.12849	0.45722	-0.07
Mof_N 	N 	0.12849	0.10242	0.67127	-0.068
Mof_N 	N 	0.45722	0.32873	0.43115	-0.07
Mof_N 	N 	0.87151	0.54278	0.97393	-0.067
Mof_N 	N 	0.54278	0.67127	0.56885	-0.067
Mof_N 	N 	0.32873	0.87151	0.89758	-0.069
Mof_N 	N 	0.67127	0.12849	0.10242	-0.068
Mof_N 	N 	0.97393	0.87151	0.54278	-0.067
Mof_N 	N 	0.67127	0.56885	0.54278	-0.067
Mof_N 	N 	0.54278	0.97393	0.87151	-0.067
Mof_N 	N 	0.89758	0.32873	0.87151	-0.069
Mof_N 	N 	0.12849	0.45722	0.02607	-0.07
Mof_N 	N 	0.89758	0.02607	0.56885	-0.069
Mof_O 	O 	0.10113	0.03376	0.48679	-0.294
Mof_O 	O 	0.54697	0.61434	0.51321	-0.263
Mof_O 	O 	0.93263	0.54697	0.03376	-0.269
Mof_O 	O 	0.06737	0.45303	0.96624	-0.245
Mof_O 	O 	0.96624	0.06737	0.45303	-0.245
Mof_O 	O 	0.03376	0.48679	0.10113	-0.294
Mof_O 	O 	0.61434	0.06737	0.10113	-0.28
Mof_O 	O 	0.61434	0.51321	0.54697	-0.263
Mof_O 	O 	0.03376	0.93263	0.54697	-0.269
Mof_O 	O 	0.45303	0.38566	0.48679	-0.264
Mof_O 	O 	0.51321	0.54697	0.61434	-0.263
Mof_O 	O 	0.48679	0.10113	0.03376	-0.294
Mof_O 	O 	0.93263	0.89887	0.38566	-0.236
Mof_O 	O 	0.06737	0.10113	0.61434	-0.28
Mof_O 	O 	0.45303	0.96624	0.06737	-0.245
Mof_O 	O 	0.38566	0.48679	0.45303	-0.264
Mof_O 	O 	0.89887	0.96624	0.51321	-0.224
Mof_O 	O 	0.10113	0.61434	0.06737	-0.28
Mof_O 	O 	0.54697	0.03376	0.93263	-0.269
Mof_O 	O 	0.96624	0.51321	0.89887	-0.224
Mof_O 	O 	0.48679	0.45303	0.38566	-0.264
Mof_O 	O 	0.89887	0.38566	0.93263	-0.236
Mof_O 	O 	0.38566	0.93263	0.89887	-0.236
Mof_O 	O 	0.51321	0.89887	0.96624	-0.224
_end
