data_functionalizedCrystal
_audit_creation_method	'EQeq! by Chris Wilmer'
_symmetry_space_group_name_H-M	'P1'
_symmetry_Int_Tables_number	1
_symmetry_cell_setting	triclinic
loop_
_symmetry_equiv_pos_as_xyz
  x,y,z
_cell_length_a	5.954
_cell_length_b	13.521
_cell_length_c	13.942
_cell_angle_alpha	95.02
_cell_angle_beta	94.33
_cell_angle_gamma	99.72
loop_
_atom_site_label
_atom_site_type_symbol
_atom_site_fract_x
_atom_site_fract_y
_atom_site_fract_z
_atom_site_charge
Mof_Zn	Zn	0.2739	0.05515	0.50156	1.221
Mof_O 	O 	0.2438	0.9493	0.3939	-0.503
Mof_C 	C 	0.2941	0.8625	0.3977	0.394
Mof_O 	O 	0.4608	0.8443	0.452	-0.484
Mof_C 	C 	0.1498	0.7754	0.3364	-0.154
Mof_C 	C 	0.9394	0.7847	0.2925	0.083
Mof_H 	H 	0.8883	0.8476	0.2992	0.007
Mof_C 	C 	0.8025	0.7022	0.2387	-0.169
Mof_H 	H 	0.6564	0.7087	0.2103	0.085
Mof_C 	C 	0.8758	0.6106	0.226	0.129
Mof_C 	C 	0.0901	0.6024	0.2673	-0.162
Mof_H 	H 	0.1447	0.5406	0.2573	0.088
Mof_C 	C 	0.226	0.6841	0.3233	0.081
Mof_H 	H 	0.3712	0.6774	0.3526	0.017
Mof_C 	C 	0.7226	0.518	0.172	-0.156
Mof_H 	H 	0.6584	0.473	0.2193	0.08
Mof_H 	H 	0.5935	0.5392	0.135	0.07
Mof_N 	N 	0.8449	0.4629	0.1065	-0.069
Mof_C 	C 	0.7215	0.3577	0.0828	-0.162
Mof_H 	H 	0.7717	0.3288	0.022	0.077
Mof_H 	H 	0.5553	0.3578	0.0722	0.072
Mof_C 	C 	0.7645	0.2927	0.162	0.129
Mof_C 	C 	0.9841	0.3034	0.211	-0.162
Mof_H 	H 	0.1053	0.3517	0.1934	0.084
Mof_C 	C 	0.0251	0.2458	0.2829	0.085
Mof_H 	H 	0.1731	0.2562	0.3167	0.014
Mof_C 	C 	0.8521	0.1705	0.3083	-0.16
Mof_C 	C 	0.6357	0.1597	0.261	0.094
Mof_H 	H 	0.5161	0.1099	0.2775	0.007
Mof_C 	C 	0.5921	0.2204	0.1901	-0.173
Mof_H 	H 	0.4413	0.2129	0.1595	0.086
Mof_C 	C 	0.9009	0.1068	0.3849	0.401
Mof_O 	O 	0.0771	0.1375	0.4436	-0.489
Mof_O 	O 	0.7681	0.0218	0.3868	-0.495
Mof_C 	C 	0.8959	0.5152	0.0218	-0.065
Mof_H 	H 	0.9251	0.5889	0.0403	0.052
Mof_H 	H 	0.7622	0.4989	0.9729	0.047
Mof_Zn	Zn	0.7261	0.94485	0.49844	1.221
Mof_O 	O 	0.7562	0.0507	0.6061	-0.503
Mof_C 	C 	0.7059	0.1375	0.6023	0.394
Mof_O 	O 	0.5392	0.1557	0.548	-0.484
Mof_C 	C 	0.8502	0.2246	0.6636	-0.154
Mof_C 	C 	0.0606	0.2153	0.7075	0.083
Mof_H 	H 	0.1117	0.1524	0.7008	0.007
Mof_C 	C 	0.1975	0.2978	0.7613	-0.169
Mof_H 	H 	0.3436	0.2913	0.7897	0.085
Mof_C 	C 	0.1242	0.3894	0.774	0.129
Mof_C 	C 	0.9099	0.3976	0.7327	-0.162
Mof_H 	H 	0.8553	0.4594	0.7427	0.088
Mof_C 	C 	0.774	0.3159	0.6767	0.081
Mof_H 	H 	0.6288	0.3226	0.6474	0.017
Mof_C 	C 	0.2774	0.482	0.828	-0.156
Mof_H 	H 	0.3416	0.527	0.7807	0.08
Mof_H 	H 	0.4065	0.4608	0.865	0.07
Mof_N 	N 	0.1551	0.5371	0.8935	-0.069
Mof_C 	C 	0.2785	0.6423	0.9172	-0.162
Mof_H 	H 	0.2283	0.6712	0.978	0.077
Mof_H 	H 	0.4447	0.6422	0.9278	0.072
Mof_C 	C 	0.2355	0.7073	0.838	0.129
Mof_C 	C 	0.0159	0.6966	0.789	-0.162
Mof_H 	H 	0.8947	0.6483	0.8066	0.084
Mof_C 	C 	0.9749	0.7542	0.7171	0.085
Mof_H 	H 	0.8269	0.7438	0.6833	0.014
Mof_C 	C 	0.1479	0.8295	0.6917	-0.16
Mof_C 	C 	0.3643	0.8403	0.739	0.094
Mof_H 	H 	0.4839	0.8901	0.7225	0.007
Mof_C 	C 	0.4079	0.7796	0.8099	-0.173
Mof_H 	H 	0.5587	0.7871	0.8405	0.086
Mof_C 	C 	0.0991	0.8932	0.6151	0.401
Mof_O 	O 	0.9229	0.8625	0.5564	-0.489
Mof_O 	O 	0.2319	0.9782	0.6132	-0.495
Mof_C 	C 	0.1041	0.4848	0.9782	-0.065
Mof_H 	H 	0.0749	0.4111	0.9597	0.052
Mof_H 	H 	0.2378	0.5011	0.0271	0.047
_end
