data_functionalizedCrystal
_audit_creation_method	'EQeq! by Chris Wilmer'
_symmetry_space_group_name_H-M	'P1'
_symmetry_Int_Tables_number	1
_symmetry_cell_setting	triclinic
loop_
_symmetry_equiv_pos_as_xyz
  x,y,z
_cell_length_a	10.1716
_cell_length_b	17.5911
_cell_length_c	17.5911
_cell_angle_alpha	120
_cell_angle_beta	90
_cell_angle_gamma	90
loop_
_atom_site_label
_atom_site_type_symbol
_atom_site_fract_x
_atom_site_fract_y
_atom_site_fract_z
_atom_site_charge
Mof_Zn	Zn	0.86646	0.45663	0.53194	1.173
Mof_Zn	Zn	0.53313	0.07531	0.54337	1.176
Mof_Zn	Zn	0.19979	0.46806	0.92469	1.176
Mof_Zn	Zn	0.36646	0.54337	0.46806	1.176
Mof_Zn	Zn	0.03313	0.92469	0.45663	1.178
Mof_Zn	Zn	0.69979	0.53194	0.07531	1.174
Mof_H 	H 	0.5832	0.5253	0.2235	-0.024
Mof_H 	H 	0.9267	0.4382	0.1107	-0.038
Mof_H 	H 	0.7883	0.3657	0.3463	0.057
Mof_H 	H 	0.9366	0.3844	0.3365	0.05
Mof_H 	H 	0.9625	0.5485	0.3872	0.046
Mof_H 	H 	0.9762	0.3897	0.2056	0.073
Mof_H 	H 	0.6284	0.4723	0.3192	0.073
Mof_H 	H 	0.8003	0.6504	0.4906	0.132
Mof_H 	H 	0.9404	0.6881	0.4918	0.117
Mof_H 	H 	0.9018	0.6639	0.5633	0.103
Mof_H 	H 	0.24987	0.6982	0.4747	-0.022
Mof_H 	H 	0.59337	0.6725	0.5618	-0.034
Mof_H 	H 	0.45497	0.9806	0.6343	0.06
Mof_H 	H 	0.60327	0.9521	0.6156	0.054
Mof_H 	H 	0.62917	0.8387	0.4515	0.042
Mof_H 	H 	0.64287	0.8159	0.6103	0.077
Mof_H 	H 	0.29507	0.8469	0.5277	0.075
Mof_H 	H 	0.46697	0.8402	0.3496	0.142
Mof_H 	H 	0.60707	0.8037	0.3119	0.13
Mof_H 	H 	0.56847	0.8994	0.3361	0.116
Mof_H 	H 	0.91653	0.7765	0.3018	-0.003
Mof_H 	H 	0.26003	0.8893	0.3275	-0.027
Mof_H 	H 	0.12163	0.6537	0.0194	0.055
Mof_H 	H 	0.26993	0.6635	0.0479	0.048
Mof_H 	H 	0.29583	0.6128	0.1613	0.041
Mof_H 	H 	0.30953	0.7944	0.1841	0.069
Mof_H 	H 	0.96173	0.6808	0.1531	0.033
Mof_H 	H 	0.13363	0.5094	0.1598	0.152
Mof_H 	H 	0.27373	0.5082	0.1963	0.138
Mof_H 	H 	0.23513	0.4367	0.1006	0.124
Mof_H 	H 	0.0832	0.4747	0.7765	-0.022
Mof_H 	H 	0.4267	0.5618	0.8893	-0.034
Mof_H 	H 	0.2883	0.6343	0.6537	0.061
Mof_H 	H 	0.4366	0.6156	0.6635	0.055
Mof_H 	H 	0.4625	0.4515	0.6128	0.042
Mof_H 	H 	0.4762	0.6103	0.7944	0.078
Mof_H 	H 	0.1284	0.5277	0.6808	0.076
Mof_H 	H 	0.3003	0.3496	0.5094	0.143
Mof_H 	H 	0.4404	0.3119	0.5082	0.132
Mof_H 	H 	0.4018	0.3361	0.4367	0.118
Mof_H 	H 	0.74987	0.3018	0.5253	-0.018
Mof_H 	H 	0.09337	0.3275	0.4382	-0.027
Mof_H 	H 	0.95497	0.0194	0.3657	0.022
Mof_H 	H 	0.10327	0.0479	0.3844	0.033
Mof_H 	H 	0.12917	0.1613	0.5485	0.054
Mof_H 	H 	0.14287	0.1841	0.3897	0.061
Mof_H 	H 	0.79507	0.1531	0.4723	0.058
Mof_H 	H 	0.96697	0.1598	0.6504	0.101
Mof_H 	H 	0.10707	0.1963	0.6881	0.106
Mof_H 	H 	0.06847	0.1006	0.6639	0.093
Mof_H 	H 	0.41653	0.2235	0.6982	-0.024
Mof_H 	H 	0.76003	0.1107	0.6725	-0.035
Mof_H 	H 	0.62163	0.3463	0.9806	0.059
Mof_H 	H 	0.76993	0.3365	0.9521	0.053
Mof_H 	H 	0.79583	0.3872	0.8387	0.038
Mof_H 	H 	0.80953	0.2056	0.8159	0.076
Mof_H 	H 	0.46173	0.3192	0.8469	0.074
Mof_H 	H 	0.63363	0.4906	0.8402	0.143
Mof_H 	H 	0.77373	0.4918	0.8037	0.129
Mof_H 	H 	0.73513	0.5633	0.8994	0.116
Mof_C 	C 	0.6626	0.497	0.2188	0.069
Mof_C 	C 	0.8655	0.446	0.1533	0.09
Mof_C 	C 	0.8487	0.409	0.3475	-0.179
Mof_C 	C 	0.9421	0.5567	0.4453	-0.059
Mof_C 	C 	0.8964	0.4179	0.2112	-0.206
Mof_C 	C 	0.067	0.5401	0.484	0.324
Mof_C 	C 	0.6916	0.467	0.2786	-0.183
Mof_C 	C 	0.8114	0.4306	0.2773	0.146
Mof_C 	C 	0.8916	0.6479	0.5029	-0.381
Mof_C 	C 	0.32927	0.7218	0.503	0.07
Mof_C 	C 	0.53217	0.7073	0.554	0.091
Mof_C 	C 	0.51537	0.9385	0.591	-0.181
Mof_C 	C 	0.60877	0.8886	0.4433	-0.033
Mof_C 	C 	0.56307	0.7933	0.5821	-0.205
Mof_C 	C 	0.73367	0.9439	0.4599	0.305
Mof_C 	C 	0.35827	0.8116	0.533	-0.183
Mof_C 	C 	0.47807	0.8467	0.5694	0.149
Mof_C 	C 	0.55827	0.855	0.3521	-0.412
Mof_C 	C 	0.99593	0.7812	0.2782	0.001
Mof_C 	C 	0.19883	0.8467	0.2927	0.075
Mof_C 	C 	0.18203	0.6525	0.0615	-0.157
Mof_C 	C 	0.27543	0.5547	0.1114	-0.024
Mof_C 	C 	0.22973	0.7888	0.2067	-0.175
Mof_C 	C 	0.40033	0.516	0.0561	0.301
Mof_C 	C 	0.02493	0.7214	0.1884	-0.097
Mof_C 	C 	0.14473	0.7227	0.1533	0.109
Mof_C 	C 	0.22493	0.4971	0.145	-0.43
Mof_C 	C 	0.1626	0.503	0.7812	0.072
Mof_C 	C 	0.3655	0.554	0.8467	0.092
Mof_C 	C 	0.3487	0.591	0.6525	-0.182
Mof_C 	C 	0.4421	0.4433	0.5547	-0.031
Mof_C 	C 	0.3964	0.5821	0.7888	-0.206
Mof_C 	C 	0.567	0.4599	0.516	0.303
Mof_C 	C 	0.1916	0.533	0.7214	-0.183
Mof_C 	C 	0.3114	0.5694	0.7227	0.15
Mof_C 	C 	0.3916	0.3521	0.4971	-0.415
Mof_C 	C 	0.82927	0.2782	0.497	0.047
Mof_C 	C 	0.03217	0.2927	0.446	0.082
Mof_C 	C 	0.01537	0.0615	0.409	-0.093
Mof_C 	C 	0.10877	0.1114	0.5567	-0.063
Mof_C 	C 	0.06307	0.2067	0.4179	-0.147
Mof_C 	C 	0.23367	0.0561	0.5401	0.315
Mof_C 	C 	0.85827	0.1884	0.467	-0.144
Mof_C 	C 	0.97807	0.1533	0.4306	0.073
Mof_C 	C 	0.05827	0.145	0.6479	-0.316
Mof_C 	C 	0.49593	0.2188	0.7218	0.07
Mof_C 	C 	0.69883	0.1533	0.7073	0.091
Mof_C 	C 	0.68203	0.3475	0.9385	-0.18
Mof_C 	C 	0.77543	0.4453	0.8886	-0.025
Mof_C 	C 	0.72973	0.2112	0.7933	-0.205
Mof_C 	C 	0.90033	0.484	0.9439	0.282
Mof_C 	C 	0.52493	0.2786	0.8116	-0.183
Mof_C 	C 	0.64473	0.2773	0.8467	0.148
Mof_C 	C 	0.72493	0.5029	0.855	-0.418
Mof_N 	N 	0.844	0.4902	0.4356	-0.207
Mof_N 	N 	0.7481	0.485	0.1561	-0.282
Mof_N 	N 	0.51067	0.9454	0.5098	-0.208
Mof_N 	N 	0.41477	0.6711	0.515	-0.281
Mof_N 	N 	0.17733	0.5644	0.0546	-0.209
Mof_N 	N 	0.08143	0.8439	0.3289	-0.259
Mof_N 	N 	0.344	0.5098	0.5644	-0.208
Mof_N 	N 	0.2481	0.515	0.8439	-0.281
Mof_N 	N 	0.01067	0.0546	0.4902	-0.207
Mof_N 	N 	0.91477	0.3289	0.485	-0.283
Mof_N 	N 	0.67733	0.4356	0.9454	-0.209
Mof_N 	N 	0.58143	0.1561	0.6711	-0.281
Mof_O 	O 	0.0608	0.4969	0.5224	-0.461
Mof_O 	O 	0.1702	0.5765	0.4746	-0.459
Mof_O 	O 	0.72747	0.0255	0.5031	-0.466
Mof_O 	O 	0.83687	0.8981	0.4235	-0.463
Mof_O 	O 	0.39413	0.4776	0.9745	-0.462
Mof_O 	O 	0.50353	0.5254	0.1019	-0.457
Mof_O 	O 	0.5608	0.5031	0.4776	-0.463
Mof_O 	O 	0.6702	0.4235	0.5254	-0.459
Mof_O 	O 	0.22747	0.9745	0.4969	-0.466
Mof_O 	O 	0.33687	0.1019	0.5765	-0.46
Mof_O 	O 	0.89413	0.5224	0.0255	-0.462
Mof_O 	O 	0.00353	0.4746	0.8981	-0.439
_end
