data_functionalizedCrystal
_audit_creation_method	'EQeq! by Chris Wilmer'
_symmetry_space_group_name_H-M	'P1'
_symmetry_Int_Tables_number	1
_symmetry_cell_setting	triclinic
loop_
_symmetry_equiv_pos_as_xyz
  x,y,z
_cell_length_a	13.9593
_cell_length_b	17.2
_cell_length_c	20.8587
_cell_angle_alpha	90
_cell_angle_beta	90
_cell_angle_gamma	90
loop_
_atom_site_label
_atom_site_type_symbol
_atom_site_fract_x
_atom_site_fract_y
_atom_site_fract_z
_atom_site_charge
Mof_Mn	Mn	0.87745	0.19985	0.0742	0.779
Mof_Mn	Mn	0.0319	0.19936	0.41941	0.778
Mof_N 	N 	0.82729	0.20706	0.17488	-0.216
Mof_C 	C 	0.80677	0.2093	0.22777	0.171
Mof_N 	N 	0.88555	0.21708	0.37784	-0.211
Mof_C 	C 	0.83721	0.21377	0.33362	0.165
Mof_N 	N 	0.77403	0.20937	0.28671	-0.172
Mof_N 	N 	0.02418	0.18838	0.1165	-0.212
Mof_C 	C 	0.073	0.18252	0.16052	0.166
Mof_N 	N 	0.08927	0.19198	0.32035	-0.215
Mof_C 	C 	0.10683	0.1858	0.26658	0.166
Mof_N 	N 	0.13544	0.17596	0.20716	-0.172
Mof_N 	N 	0.93033	0.20027	0.97271	-0.208
Mof_C 	C 	0.99158	0.23307	0.94823	0.171
Mof_N 	N 	0.22218	0.28533	0.94748	-0.21
Mof_C 	C 	0.14234	0.27787	0.93452	0.174
Mof_N 	N 	0.0537	0.27333	0.91573	-0.175
Mof_N 	N 	0.90293	0.32644	0.06925	-0.216
Mof_C 	C 	0.94659	0.38153	0.05827	0.172
Mof_N 	N 	0.99142	0.57384	0.07603	-0.22
Mof_C 	C 	0.99096	0.50938	0.06246	0.179
Mof_N 	N 	0.00284	0.43873	0.04198	-0.178
Mof_N 	N 	0.17626	0.18117	0.46171	-0.211
Mof_C 	C 	0.2587	0.18348	0.46038	0.171
Mof_N 	N 	0.46328	0.28484	0.48224	-0.197
Mof_C 	C 	0.40628	0.23702	0.47185	0.158
Mof_N 	N 	0.35218	0.17803	0.45721	-0.173
Mof_N 	N 	0.94005	0.82456	0.08281	-0.219
Mof_C 	C 	0.89518	0.87972	0.08842	0.176
Mof_N 	N 	0.86413	0.07337	0.06968	-0.218
Mof_C 	C 	0.85591	0.00851	0.08109	0.177
Mof_N 	N 	0.8354	0.93701	0.09688	-0.179
Mof_Mn	Mn	0.62255	0.80015	0.5742	0.78
Mof_Mn	Mn	0.4681	0.80064	0.91941	0.778
Mof_N 	N 	0.67271	0.79294	0.67488	-0.216
Mof_C 	C 	0.69323	0.7907	0.72777	0.171
Mof_N 	N 	0.61445	0.78292	0.87784	-0.211
Mof_C 	C 	0.66279	0.78623	0.83362	0.165
Mof_N 	N 	0.72597	0.79063	0.78671	-0.172
Mof_N 	N 	0.47582	0.81162	0.6165	-0.213
Mof_C 	C 	0.427	0.81748	0.66052	0.165
Mof_N 	N 	0.41073	0.80802	0.82035	-0.215
Mof_C 	C 	0.39317	0.8142	0.76658	0.166
Mof_N 	N 	0.36456	0.82404	0.70716	-0.172
Mof_N 	N 	0.56967	0.79973	0.47271	-0.208
Mof_C 	C 	0.50842	0.76693	0.44823	0.17
Mof_N 	N 	0.27782	0.71467	0.44748	-0.21
Mof_C 	C 	0.35766	0.72213	0.43452	0.174
Mof_N 	N 	0.4463	0.72667	0.41573	-0.175
Mof_N 	N 	0.59707	0.67356	0.56925	-0.216
Mof_C 	C 	0.55341	0.61847	0.55827	0.173
Mof_N 	N 	0.50858	0.42616	0.57603	-0.22
Mof_C 	C 	0.50904	0.49062	0.56246	0.18
Mof_N 	N 	0.49716	0.56127	0.54198	-0.179
Mof_N 	N 	0.32374	0.81883	0.96171	-0.212
Mof_C 	C 	0.2413	0.81652	0.96038	0.17
Mof_N 	N 	0.03672	0.71516	0.98224	-0.198
Mof_C 	C 	0.09372	0.76298	0.97185	0.158
Mof_N 	N 	0.14782	0.82197	0.95721	-0.173
Mof_N 	N 	0.55995	0.17544	0.58281	-0.219
Mof_C 	C 	0.60482	0.12028	0.58842	0.176
Mof_N 	N 	0.63587	0.92663	0.56968	-0.218
Mof_C 	C 	0.64409	0.99149	0.58109	0.177
Mof_N 	N 	0.6646	0.06299	0.59688	-0.179
Mof_Mn	Mn	0.12255	0.69985	0.4258	0.78
Mof_Mn	Mn	0.9681	0.69936	0.08059	0.778
Mof_N 	N 	0.17271	0.70706	0.32512	-0.216
Mof_C 	C 	0.19323	0.7093	0.27223	0.171
Mof_N 	N 	0.11445	0.71708	0.12216	-0.211
Mof_C 	C 	0.16279	0.71377	0.16638	0.165
Mof_N 	N 	0.22597	0.70937	0.21329	-0.172
Mof_N 	N 	0.97582	0.68838	0.3835	-0.213
Mof_C 	C 	0.927	0.68252	0.33948	0.166
Mof_N 	N 	0.91073	0.69198	0.17965	-0.215
Mof_C 	C 	0.89317	0.6858	0.23342	0.166
Mof_N 	N 	0.86456	0.67596	0.29284	-0.172
Mof_N 	N 	0.06967	0.70027	0.52729	-0.208
Mof_C 	C 	0.00842	0.73307	0.55177	0.169
Mof_N 	N 	0.77782	0.78533	0.55252	-0.21
Mof_C 	C 	0.85766	0.77787	0.56548	0.174
Mof_N 	N 	0.9463	0.77333	0.58427	-0.174
Mof_N 	N 	0.09707	0.82644	0.43075	-0.216
Mof_C 	C 	0.05341	0.88153	0.44173	0.172
Mof_N 	N 	0.00858	0.07384	0.42397	-0.22
Mof_C 	C 	0.00904	0.00938	0.43754	0.18
Mof_N 	N 	0.99716	0.93873	0.45802	-0.179
Mof_N 	N 	0.82374	0.68117	0.03829	-0.211
Mof_C 	C 	0.7413	0.68348	0.03962	0.171
Mof_N 	N 	0.53672	0.78484	0.01776	-0.197
Mof_C 	C 	0.59372	0.73702	0.02815	0.158
Mof_N 	N 	0.64782	0.67803	0.04279	-0.173
Mof_N 	N 	0.05995	0.32456	0.41719	-0.219
Mof_C 	C 	0.10482	0.37972	0.41158	0.176
Mof_N 	N 	0.13587	0.57337	0.43032	-0.218
Mof_C 	C 	0.14409	0.50851	0.41891	0.178
Mof_N 	N 	0.1646	0.43701	0.40312	-0.179
Mof_Mn	Mn	0.37745	0.30015	0.9258	0.78
Mof_Mn	Mn	0.5319	0.30064	0.58059	0.778
Mof_N 	N 	0.32729	0.29294	0.82512	-0.216
Mof_C 	C 	0.30677	0.2907	0.77223	0.171
Mof_N 	N 	0.38555	0.28292	0.62216	-0.211
Mof_C 	C 	0.33721	0.28623	0.66638	0.165
Mof_N 	N 	0.27403	0.29063	0.71329	-0.172
Mof_N 	N 	0.52418	0.31162	0.8835	-0.213
Mof_C 	C 	0.573	0.31748	0.83948	0.166
Mof_N 	N 	0.58927	0.30802	0.67965	-0.215
Mof_C 	C 	0.60683	0.3142	0.73342	0.166
Mof_N 	N 	0.63544	0.32404	0.79284	-0.172
Mof_N 	N 	0.43033	0.29973	0.02729	-0.208
Mof_C 	C 	0.49158	0.26693	0.05177	0.17
Mof_N 	N 	0.72218	0.21467	0.05252	-0.21
Mof_C 	C 	0.64234	0.22213	0.06548	0.174
Mof_N 	N 	0.5537	0.22667	0.08427	-0.175
Mof_N 	N 	0.40293	0.17356	0.93075	-0.216
Mof_C 	C 	0.44659	0.11847	0.94173	0.173
Mof_N 	N 	0.49142	0.92616	0.92397	-0.22
Mof_C 	C 	0.49096	0.99062	0.93754	0.179
Mof_N 	N 	0.50284	0.06127	0.95802	-0.178
Mof_N 	N 	0.67626	0.31883	0.53829	-0.211
Mof_C 	C 	0.7587	0.31652	0.53962	0.171
Mof_N 	N 	0.96328	0.21516	0.51776	-0.197
Mof_C 	C 	0.90628	0.26298	0.52815	0.158
Mof_N 	N 	0.85218	0.32197	0.54279	-0.173
Mof_N 	N 	0.44005	0.67544	0.91719	-0.219
Mof_C 	C 	0.39518	0.62028	0.91158	0.176
Mof_N 	N 	0.36413	0.42663	0.93032	-0.218
Mof_C 	C 	0.35591	0.49149	0.91891	0.177
Mof_N 	N 	0.3354	0.56299	0.90312	-0.179
_end
