data_functionalizedCrystal
_audit_creation_method	'EQeq! by Chris Wilmer'
_symmetry_space_group_name_H-M	'P1'
_symmetry_Int_Tables_number	1
_symmetry_cell_setting	triclinic
loop_
_symmetry_equiv_pos_as_xyz
  x,y,z
_cell_length_a	13.7217
_cell_length_b	13.7217
_cell_length_c	16.4199
_cell_angle_alpha	67.0804
_cell_angle_beta	67.0804
_cell_angle_gamma	75.6502
loop_
_atom_site_label
_atom_site_type_symbol
_atom_site_fract_x
_atom_site_fract_y
_atom_site_fract_z
_atom_site_charge
Mof_Sm	Sm	0.16744	0.45402	0.99825	2.079
Mof_Sm	Sm	0.54598	0.83256	0.50175	2.112
Mof_Sm	Sm	0.83256	0.54598	0.00175	2.08
Mof_Sm	Sm	0.45402	0.16744	0.49825	2.113
Mof_H 	H 	0.3369	0.2215	0.246	0.043
Mof_H 	H 	0.4536	0.9172	0.2832	0.049
Mof_H 	H 	0.3439	0.0801	0.0702	0.108
Mof_H 	H 	0.0723	0.1245	0.1561	0.062
Mof_H 	H 	0.7785	0.6631	0.254	0.043
Mof_H 	H 	0.0828	0.5464	0.2168	0.048
Mof_H 	H 	0.9199	0.6561	0.4298	0.108
Mof_H 	H 	0.8755	0.9277	0.3439	0.069
Mof_H 	H 	0.6631	0.7785	0.754	0.043
Mof_H 	H 	0.5464	0.0828	0.7168	0.049
Mof_H 	H 	0.6561	0.9199	0.9298	0.108
Mof_H 	H 	0.9277	0.8755	0.8439	0.062
Mof_H 	H 	0.2215	0.3369	0.746	0.043
Mof_H 	H 	0.9172	0.4536	0.7832	0.048
Mof_H 	H 	0.0801	0.3439	0.5702	0.108
Mof_H 	H 	0.1245	0.0723	0.6561	0.069
Mof_H 	H 	0.7702	0.2298	0.25	-0.015
Mof_H 	H 	0.2298	0.7702	0.75	-0.015
Mof_C 	C 	0.42707	0.06371	0.35894	0.489
Mof_C 	C 	0.40134	0.06856	0.27614	-0.123
Mof_C 	C 	0.33345	0.16839	0.14715	-0.042
Mof_C 	C 	0.2813	0.26906	0.09214	0.301
Mof_C 	C 	0.35811	0.07853	0.12004	-0.068
Mof_C 	C 	0.92674	0.19704	0.18991	-0.173
Mof_C 	C 	0.95022	0.30776	0.12307	0.493
Mof_C 	C 	0.00971	0.11491	0.19103	0.02
Mof_C 	C 	0.355	0.16262	0.22498	0.023
Mof_C 	C 	0.42348	0.97806	0.25064	-0.029
Mof_C 	C 	0.40121	0.98581	0.17291	0.092
Mof_C 	C 	0.93629	0.57293	0.14106	0.473
Mof_C 	C 	0.93144	0.59866	0.22386	-0.129
Mof_C 	C 	0.83161	0.66655	0.35285	-0.042
Mof_C 	C 	0.73094	0.7187	0.40786	0.301
Mof_C 	C 	0.92147	0.64189	0.37996	-0.076
Mof_C 	C 	0.80296	0.07326	0.31009	-0.163
Mof_C 	C 	0.69224	0.04978	0.37693	0.508
Mof_C 	C 	0.88509	0.99029	0.30897	-0.005
Mof_C 	C 	0.83738	0.645	0.27502	0.023
Mof_C 	C 	0.02194	0.57652	0.24936	-0.02
Mof_C 	C 	0.01419	0.59879	0.32709	0.096
Mof_C 	C 	0.57293	0.93629	0.64106	0.489
Mof_C 	C 	0.59866	0.93144	0.72386	-0.123
Mof_C 	C 	0.66655	0.83161	0.85285	-0.042
Mof_C 	C 	0.7187	0.73094	0.90786	0.301
Mof_C 	C 	0.64189	0.92147	0.87996	-0.068
Mof_C 	C 	0.07326	0.80296	0.81009	-0.173
Mof_C 	C 	0.04978	0.69224	0.87693	0.493
Mof_C 	C 	0.99029	0.88509	0.80897	0.02
Mof_C 	C 	0.645	0.83738	0.77502	0.023
Mof_C 	C 	0.57652	0.02194	0.74936	-0.029
Mof_C 	C 	0.59879	0.01419	0.82709	0.092
Mof_C 	C 	0.06371	0.42707	0.85894	0.473
Mof_C 	C 	0.06856	0.40134	0.77614	-0.129
Mof_C 	C 	0.16839	0.33345	0.64715	-0.042
Mof_C 	C 	0.26906	0.2813	0.59214	0.301
Mof_C 	C 	0.07853	0.35811	0.62004	-0.076
Mof_C 	C 	0.19704	0.92674	0.68991	-0.163
Mof_C 	C 	0.30776	0.95022	0.62307	0.508
Mof_C 	C 	0.11491	0.00971	0.69103	-0.005
Mof_C 	C 	0.16262	0.355	0.72498	0.023
Mof_C 	C 	0.97806	0.42348	0.75064	-0.02
Mof_C 	C 	0.98581	0.40121	0.67291	0.096
Mof_C 	C 	0.82408	0.17592	0.25	0.103
Mof_C 	C 	0.98656	0.01344	0.25	0.034
Mof_C 	C 	0.17592	0.82408	0.75	0.103
Mof_C 	C 	0.01344	0.98656	0.75	0.034
Mof_N 	N 	0.42351	0.88981	0.14563	-0.004
Mof_N 	N 	0.11019	0.57649	0.35437	-0.004
Mof_N 	N 	0.57649	0.11019	0.85437	-0.004
Mof_N 	N 	0.88981	0.42351	0.64563	-0.004
Mof_N 	N 	0.07394	0.92606	0.25	-0.002
Mof_N 	N 	0.92606	0.07394	0.75	-0.002
Mof_O 	O 	0.04634	0.32388	0.08672	-0.513
Mof_O 	O 	0.4067	0.14802	0.37879	-0.526
Mof_O 	O 	0.2729	0.27152	0.01779	-0.403
Mof_O 	O 	0.87253	0.37467	0.10943	-0.568
Mof_O 	O 	0.46806	0.97628	0.40228	-0.586
Mof_O 	O 	0.24678	0.34664	0.12286	-0.451
Mof_O 	O 	0.44207	0.80387	0.20143	-0.127
Mof_O 	O 	0.42199	0.90149	0.06874	-0.108
Mof_O 	O 	0.1652	0.94862	0.2088	-0.104
Mof_O 	O 	0.67612	0.95366	0.41328	-0.531
Mof_O 	O 	0.85198	0.5933	0.12121	-0.522
Mof_O 	O 	0.72848	0.7271	0.48221	-0.411
Mof_O 	O 	0.62533	0.12747	0.39057	-0.573
Mof_O 	O 	0.02372	0.53194	0.09772	-0.566
Mof_O 	O 	0.65336	0.75322	0.37714	-0.457
Mof_O 	O 	0.19613	0.55793	0.29857	-0.126
Mof_O 	O 	0.09851	0.57801	0.43126	-0.108
Mof_O 	O 	0.05138	0.8348	0.2912	-0.103
Mof_O 	O 	0.95366	0.67612	0.91328	-0.513
Mof_O 	O 	0.5933	0.85198	0.62121	-0.526
Mof_O 	O 	0.7271	0.72848	0.98221	-0.403
Mof_O 	O 	0.12747	0.62533	0.89057	-0.568
Mof_O 	O 	0.53194	0.02372	0.59772	-0.586
Mof_O 	O 	0.75322	0.65336	0.87714	-0.451
Mof_O 	O 	0.55793	0.19613	0.79857	-0.127
Mof_O 	O 	0.57801	0.09851	0.93126	-0.108
Mof_O 	O 	0.8348	0.05138	0.7912	-0.104
Mof_O 	O 	0.32388	0.04634	0.58672	-0.531
Mof_O 	O 	0.14802	0.4067	0.87879	-0.522
Mof_O 	O 	0.27152	0.2729	0.51779	-0.411
Mof_O 	O 	0.37467	0.87253	0.60943	-0.573
Mof_O 	O 	0.97628	0.46806	0.90228	-0.566
Mof_O 	O 	0.34664	0.24678	0.62286	-0.457
Mof_O 	O 	0.80387	0.44207	0.70143	-0.126
Mof_O 	O 	0.90149	0.42199	0.56874	-0.108
Mof_O 	O 	0.94862	0.1652	0.7088	-0.103
_end
