data_functionalizedCrystal
_audit_creation_method	'EQeq! by Chris Wilmer'
_symmetry_space_group_name_H-M	'P1'
_symmetry_Int_Tables_number	1
_symmetry_cell_setting	triclinic
loop_
_symmetry_equiv_pos_as_xyz
  x,y,z
_cell_length_a	8.846
_cell_length_b	22.0006
_cell_length_c	22.5475
_cell_angle_alpha	119.201
_cell_angle_beta	96.0092
_cell_angle_gamma	90
loop_
_atom_site_label
_atom_site_type_symbol
_atom_site_fract_x
_atom_site_fract_y
_atom_site_fract_z
_atom_site_charge
Mof_Na	Na	0.6437	0.31983	0.41104	2.223
Mof_Na	Na	0.8563	0.90879	0.58896	2.218
Mof_Na	Na	0.3563	0.68017	0.58896	2.224
Mof_Na	Na	0.1437	0.09121	0.41104	2.223
Mof_H 	H 	0.3947	0.2305	0.5584	0.048
Mof_H 	H 	0.2527	0.2552	0.5298	0.062
Mof_H 	H 	0.4792	0.454	0.6616	0.083
Mof_H 	H 	0.3837	0.5246	0.763	-0.057
Mof_H 	H 	0.1385	0.3624	0.7426	-0.047
Mof_H 	H 	0.2297	0.2911	0.6406	0.109
Mof_H 	H 	0.3596	0.574	0.8708	0.334
Mof_H 	H 	0.2511	0.5825	0.9246	0.313
Mof_H 	H 	0.3618	0.5215	0.899	0.305
Mof_H 	H 	0.0534	0.4954	0.8982	0.287
Mof_H 	H 	0.0013	0.4367	0.823	0.312
Mof_H 	H 	0.1533	0.4314	0.8624	0.291
Mof_H 	H 	0.1968	0.6332	0.8452	-0.059
Mof_H 	H 	0.0527	0.6875	0.7966	0.165
Mof_H 	H 	0.7568	0.5215	0.7058	0.114
Mof_H 	H 	0.9039	0.4672	0.753	-0.067
Mof_H 	H 	0.0161	0.9736	0.2226	0.082
Mof_H 	H 	0.1306	0.9402	0.255	0.008
Mof_H 	H 	0.1374	0.8176	0.0372	0.127
Mof_H 	H 	0.9809	0.7186	0.9718	-0.006
Mof_H 	H 	0.7742	0.7599	0.1356	-0.035
Mof_H 	H 	0.9289	0.8598	0.2004	0.125
Mof_H 	H 	0.9069	0.6117	0.9328	0.281
Mof_H 	H 	0.9046	0.5884	0.9882	0.255
Mof_H 	H 	0.7747	0.5608	0.9266	0.259
Mof_H 	H 	0.8931	0.7294	0.751	0.111
Mof_H 	H 	0.9455	0.6786	0.6794	0.047
Mof_H 	H 	0.1053	0.6721	0.4416	0.048
Mof_H 	H 	0.2473	0.7254	0.4702	0.062
Mof_H 	H 	0.0208	0.7924	0.3384	0.082
Mof_H 	H 	0.1163	0.7616	0.237	-0.055
Mof_H 	H 	0.3615	0.6198	0.2574	-0.044
Mof_H 	H 	0.2703	0.6505	0.3594	0.108
Mof_H 	H 	0.1404	0.7032	0.1292	0.321
Mof_H 	H 	0.2489	0.6579	0.0754	0.294
Mof_H 	H 	0.1382	0.6225	0.101	0.288
Mof_H 	H 	0.4466	0.5972	0.1018	0.274
Mof_H 	H 	0.4987	0.6137	0.177	0.304
Mof_H 	H 	0.3467	0.569	0.1376	0.28
Mof_H 	H 	0.3032	0.788	0.1548	-0.059
Mof_H 	H 	0.4473	0.8909	0.2034	0.162
Mof_H 	H 	0.7432	0.8157	0.2942	0.113
Mof_H 	H 	0.5961	0.7142	0.247	-0.065
Mof_H 	H 	0.4839	0.751	0.7774	0.081
Mof_H 	H 	0.3694	0.6852	0.745	0.006
Mof_H 	H 	0.3626	0.7804	0.9628	0.167
Mof_H 	H 	0.5191	0.7468	0.0282	-0.074
Mof_H 	H 	0.7258	0.6243	0.8644	-0.044
Mof_H 	H 	0.5711	0.6594	0.7996	0.137
Mof_H 	H 	0.5931	0.6789	0.0672	0.283
Mof_H 	H 	0.5954	0.6002	0.0118	0.244
Mof_H 	H 	0.7253	0.6342	0.0734	0.258
Mof_H 	H 	0.6069	0.9784	0.249	0.11
Mof_H 	H 	0.5545	0.9992	0.3206	0.048
Mof_H 	H 	0.6053	0.7695	0.4416	0.048
Mof_H 	H 	0.7473	0.7448	0.4702	0.062
Mof_H 	H 	0.5208	0.546	0.3384	0.082
Mof_H 	H 	0.6163	0.4754	0.237	-0.055
Mof_H 	H 	0.8615	0.6376	0.2574	-0.044
Mof_H 	H 	0.7703	0.7089	0.3594	0.108
Mof_H 	H 	0.6404	0.426	0.1292	0.321
Mof_H 	H 	0.7489	0.4175	0.0754	0.294
Mof_H 	H 	0.6382	0.4785	0.101	0.287
Mof_H 	H 	0.9466	0.5046	0.1018	0.274
Mof_H 	H 	0.9987	0.5633	0.177	0.304
Mof_H 	H 	0.8467	0.5686	0.1376	0.28
Mof_H 	H 	0.8032	0.3668	0.1548	-0.058
Mof_H 	H 	0.9473	0.3125	0.2034	0.162
Mof_H 	H 	0.2432	0.4785	0.2942	0.112
Mof_H 	H 	0.0961	0.5328	0.247	-0.064
Mof_H 	H 	0.9839	0.0264	0.7774	0.081
Mof_H 	H 	0.8694	0.0598	0.745	0.005
Mof_H 	H 	0.8626	0.1824	0.9628	0.167
Mof_H 	H 	0.0191	0.2814	0.0282	-0.075
Mof_H 	H 	0.2258	0.2401	0.8644	-0.044
Mof_H 	H 	0.0711	0.1402	0.7996	0.137
Mof_H 	H 	0.0931	0.3883	0.0672	0.282
Mof_H 	H 	0.0954	0.4116	0.0118	0.243
Mof_H 	H 	0.2253	0.4392	0.0734	0.258
Mof_H 	H 	0.1069	0.2706	0.249	0.11
Mof_H 	H 	0.0545	0.3214	0.3206	0.047
Mof_H 	H 	0.8947	0.3279	0.5584	0.048
Mof_H 	H 	0.7527	0.2746	0.5298	0.062
Mof_H 	H 	0.9792	0.2076	0.6616	0.084
Mof_H 	H 	0.8837	0.2384	0.763	-0.057
Mof_H 	H 	0.6385	0.3802	0.7426	-0.047
Mof_H 	H 	0.7297	0.3495	0.6406	0.109
Mof_H 	H 	0.8596	0.2968	0.8708	0.334
Mof_H 	H 	0.7511	0.3421	0.9246	0.314
Mof_H 	H 	0.8618	0.3775	0.899	0.305
Mof_H 	H 	0.5534	0.4028	0.8982	0.287
Mof_H 	H 	0.5013	0.3863	0.823	0.313
Mof_H 	H 	0.6533	0.431	0.8624	0.291
Mof_H 	H 	0.6968	0.212	0.8452	-0.06
Mof_H 	H 	0.5527	0.1091	0.7966	0.166
Mof_H 	H 	0.2568	0.1843	0.7058	0.115
Mof_H 	H 	0.4039	0.2858	0.753	-0.068
Mof_H 	H 	0.5161	0.249	0.2226	0.082
Mof_H 	H 	0.6306	0.3148	0.255	0.008
Mof_H 	H 	0.6374	0.2196	0.0372	0.127
Mof_H 	H 	0.4809	0.2532	0.9718	-0.004
Mof_H 	H 	0.2742	0.3757	0.1356	-0.034
Mof_H 	H 	0.4289	0.3406	0.2004	0.125
Mof_H 	H 	0.4069	0.3211	0.9328	0.281
Mof_H 	H 	0.4046	0.3998	0.9882	0.254
Mof_H 	H 	0.2747	0.3658	0.9266	0.258
Mof_H 	H 	0.3931	0.0216	0.751	0.112
Mof_H 	H 	0.4455	0.0008	0.6794	0.049
Mof_C 	C 	0.4207	0.22559	0.46758	0.556
Mof_C 	C 	0.3631	0.25717	0.53594	-0.258
Mof_C 	C 	0.3615	0.36478	0.63876	0.248
Mof_C 	C 	0.409	0.43531	0.67722	-0.288
Mof_C 	C 	0.352	0.47755	0.7385	0.175
Mof_C 	C 	0.2496	0.45195	0.7643	-0.292
Mof_C 	C 	0.2063	0.3813	0.7262	0.178
Mof_C 	C 	0.2609	0.33825	0.6647	-0.282
Mof_C 	C 	0.1759	0.5026	0.8282	0.559
Mof_C 	C 	0.2985	0.5495	0.886	-1.025
Mof_C 	C 	0.0876	0.46277	0.85554	-0.98
Mof_C 	C 	0.0697	0.54394	0.80468	-0.324
Mof_C 	C 	0.1085	0.60985	0.8163	0.231
Mof_C 	C 	0.023	0.64285	0.7871	-0.348
Mof_C 	C 	0.8924	0.60845	0.7435	0.287
Mof_C 	C 	0.8476	0.54369	0.73298	-0.336
Mof_C 	C 	0.935	0.5116	0.762	0.215
Mof_C 	C 	0.2296	0.02031	0.24902	0.349
Mof_C 	C 	0.1193	0.95904	0.22388	-0.148
Mof_C 	C 	0.048	0.84857	0.12474	0.267
Mof_C 	C 	0.0632	0.80617	0.05694	-0.258
Mof_C 	C 	0.9693	0.74653	0.01786	0.113
Mof_C 	C 	0.8567	0.72719	0.04598	-0.24
Mof_C 	C 	0.8466	0.77127	0.11494	0.16
Mof_C 	C 	0.9396	0.8314	0.1544	-0.284
Mof_C 	C 	0.8428	0.59999	0.95798	-0.864
Mof_C 	C 	0.7389	0.71781	0.67122	0.433
Mof_C 	C 	0.8586	0.6921	0.7052	-0.187
Mof_C 	C 	0.0793	0.75801	0.53242	0.558
Mof_C 	C 	0.1369	0.72123	0.46406	-0.259
Mof_C 	C 	0.1385	0.72602	0.36124	0.245
Mof_C 	C 	0.091	0.75809	0.32278	-0.284
Mof_C 	C 	0.148	0.73905	0.2615	0.168
Mof_C 	C 	0.2504	0.68765	0.2357	-0.283
Mof_C 	C 	0.2937	0.6551	0.2738	0.172
Mof_C 	C 	0.2391	0.67355	0.3353	-0.277
Mof_C 	C 	0.3241	0.6744	0.1718	0.54
Mof_C 	C 	0.2015	0.6635	0.114	-0.99
Mof_C 	C 	0.4124	0.60723	0.14446	-0.954
Mof_C 	C 	0.4303	0.73926	0.19532	-0.318
Mof_C 	C 	0.3915	0.79355	0.1837	0.226
Mof_C 	C 	0.477	0.85575	0.2129	-0.346
Mof_C 	C 	0.6076	0.86495	0.2565	0.286
Mof_C 	C 	0.6524	0.81071	0.26702	-0.334
Mof_C 	C 	0.565	0.7496	0.238	0.211
Mof_C 	C 	0.2704	0.77129	0.75098	0.348
Mof_C 	C 	0.3807	0.73516	0.77612	-0.142
Mof_C 	C 	0.452	0.72383	0.87526	0.307
Mof_C 	C 	0.4368	0.74923	0.94306	-0.331
Mof_C 	C 	0.5307	0.72867	0.98214	0.237
Mof_C 	C 	0.6433	0.68121	0.95402	-0.266
Mof_C 	C 	0.6534	0.65633	0.88506	0.191
Mof_C 	C 	0.5604	0.677	0.8456	-0.317
Mof_C 	C 	0.6572	0.64201	0.04202	-0.884
Mof_C 	C 	0.7611	0.04659	0.32878	0.435
Mof_C 	C 	0.6414	0.9869	0.2948	-0.19
Mof_C 	C 	0.5793	0.77441	0.53242	0.556
Mof_C 	C 	0.6369	0.74283	0.46406	-0.258
Mof_C 	C 	0.6385	0.63522	0.36124	0.245
Mof_C 	C 	0.591	0.56469	0.32278	-0.284
Mof_C 	C 	0.648	0.52245	0.2615	0.168
Mof_C 	C 	0.7504	0.54805	0.2357	-0.283
Mof_C 	C 	0.7937	0.6187	0.2738	0.172
Mof_C 	C 	0.7391	0.66175	0.3353	-0.277
Mof_C 	C 	0.8241	0.4974	0.1718	0.539
Mof_C 	C 	0.7015	0.4505	0.114	-0.988
Mof_C 	C 	0.9124	0.53723	0.14446	-0.953
Mof_C 	C 	0.9303	0.45606	0.19532	-0.315
Mof_C 	C 	0.8915	0.39015	0.1837	0.223
Mof_C 	C 	0.977	0.35715	0.2129	-0.343
Mof_C 	C 	0.1076	0.39155	0.2565	0.283
Mof_C 	C 	0.1524	0.45631	0.26702	-0.331
Mof_C 	C 	0.065	0.4884	0.238	0.208
Mof_C 	C 	0.7704	0.97969	0.75098	0.344
Mof_C 	C 	0.8807	0.04096	0.77612	-0.138
Mof_C 	C 	0.952	0.15143	0.87526	0.308
Mof_C 	C 	0.9368	0.19383	0.94306	-0.331
Mof_C 	C 	0.0307	0.25347	0.98214	0.237
Mof_C 	C 	0.1433	0.27281	0.95402	-0.265
Mof_C 	C 	0.1534	0.22873	0.88506	0.191
Mof_C 	C 	0.0604	0.1686	0.8456	-0.317
Mof_C 	C 	0.1572	0.40001	0.04202	-0.881
Mof_C 	C 	0.2611	0.28219	0.32878	0.433
Mof_C 	C 	0.1414	0.3079	0.2948	-0.187
Mof_C 	C 	0.9207	0.24199	0.46758	0.559
Mof_C 	C 	0.8631	0.27877	0.53594	-0.259
Mof_C 	C 	0.8615	0.27398	0.63876	0.248
Mof_C 	C 	0.909	0.24191	0.67722	-0.288
Mof_C 	C 	0.852	0.26095	0.7385	0.175
Mof_C 	C 	0.7496	0.31235	0.7643	-0.292
Mof_C 	C 	0.7063	0.3449	0.7262	0.178
Mof_C 	C 	0.7609	0.32645	0.6647	-0.282
Mof_C 	C 	0.6759	0.3256	0.8282	0.56
Mof_C 	C 	0.7985	0.3365	0.886	-1.026
Mof_C 	C 	0.5876	0.39277	0.85554	-0.981
Mof_C 	C 	0.5697	0.26074	0.80468	-0.327
Mof_C 	C 	0.6085	0.20645	0.8163	0.234
Mof_C 	C 	0.523	0.14425	0.7871	-0.352
Mof_C 	C 	0.3924	0.13505	0.7435	0.29
Mof_C 	C 	0.3476	0.18929	0.73298	-0.339
Mof_C 	C 	0.435	0.2504	0.762	0.219
Mof_C 	C 	0.7296	0.22871	0.24902	0.349
Mof_C 	C 	0.6193	0.26484	0.22388	-0.148
Mof_C 	C 	0.548	0.27617	0.12474	0.265
Mof_C 	C 	0.5632	0.25077	0.05694	-0.257
Mof_C 	C 	0.4693	0.27133	0.01786	0.11
Mof_C 	C 	0.3567	0.31879	0.04598	-0.238
Mof_C 	C 	0.3466	0.34367	0.11494	0.158
Mof_C 	C 	0.4396	0.323	0.1544	-0.282
Mof_C 	C 	0.3428	0.35799	0.95798	-0.862
Mof_C 	C 	0.2389	0.95341	0.67122	0.432
Mof_C 	C 	0.3586	0.0131	0.7052	-0.186
Mof_C 	C 	0.75	0.6627	-0	0.457
Mof_C 	C 	0.25	0.3373	-0	0.454
Mof_O 	O 	0.5083	0.25946	0.45368	-0.633
Mof_O 	O 	0.3685	0.16364	0.42622	-0.606
Mof_O 	O 	0.1976	0.07674	0.29972	-0.476
Mof_O 	O 	0.3464	0.01478	0.22116	-0.248
Mof_O 	O 	0.4195	0.32765	0.57794	-0.244
Mof_O 	O 	0.7994	0.63438	0.70858	-0.253
Mof_O 	O 	0.1459	0.90711	0.15762	-0.207
Mof_O 	O 	0.608	0.692	0.65444	-0.589
Mof_O 	O 	0.7875	0.76834	0.66454	-0.288
Mof_O 	O 	0.9917	0.80578	0.54632	-0.634
Mof_O 	O 	0.1315	0.73742	0.57378	-0.606
Mof_O 	O 	0.3024	0.77702	0.70028	-0.475
Mof_O 	O 	0.1536	0.79362	0.77884	-0.244
Mof_O 	O 	0.0805	0.74971	0.42206	-0.243
Mof_O 	O 	0.7006	0.9258	0.29142	-0.253
Mof_O 	O 	0.3541	0.74949	0.84238	-0.214
Mof_O 	O 	0.892	0.03756	0.34556	-0.587
Mof_O 	O 	0.7125	0.1038	0.33546	-0.288
Mof_O 	O 	0.4917	0.74054	0.54632	-0.633
Mof_O 	O 	0.6315	0.83636	0.57378	-0.605
Mof_O 	O 	0.8024	0.92326	0.70028	-0.474
Mof_O 	O 	0.6536	0.98522	0.77884	-0.244
Mof_O 	O 	0.5805	0.67235	0.42206	-0.243
Mof_O 	O 	0.2006	0.36562	0.29142	-0.252
Mof_O 	O 	0.8541	0.09289	0.84238	-0.214
Mof_O 	O 	0.392	0.308	0.34556	-0.589
Mof_O 	O 	0.2125	0.23166	0.33546	-0.289
Mof_O 	O 	0.0083	0.19422	0.45368	-0.635
Mof_O 	O 	0.8685	0.26258	0.42622	-0.606
Mof_O 	O 	0.6976	0.22298	0.29972	-0.476
Mof_O 	O 	0.8464	0.20638	0.22116	-0.248
Mof_O 	O 	0.9195	0.25029	0.57794	-0.243
Mof_O 	O 	0.2994	0.0742	0.70858	-0.253
Mof_O 	O 	0.6459	0.25051	0.15762	-0.207
Mof_O 	O 	0.108	0.96244	0.65444	-0.587
Mof_O 	O 	0.2875	0.8962	0.66454	-0.287
_end
