data_functionalizedCrystal
_audit_creation_method	'EQeq! by Chris Wilmer'
_symmetry_space_group_name_H-M	'P1'
_symmetry_Int_Tables_number	1
_symmetry_cell_setting	triclinic
loop_
_symmetry_equiv_pos_as_xyz
  x,y,z
_cell_length_a	17.2547
_cell_length_b	10.5045
_cell_length_c	26.609
_cell_angle_alpha	90
_cell_angle_beta	90
_cell_angle_gamma	90
loop_
_atom_site_label
_atom_site_type_symbol
_atom_site_fract_x
_atom_site_fract_y
_atom_site_fract_z
_atom_site_charge
Mof_Sr	Sr	0.01588	0.49998	0.90407	1.529
Mof_Sr	Sr	0.91261	0.20812	0.00818	1.823
Mof_C 	C 	0.7606	0.4983	0.9343	-0.272
Mof_C 	C 	0.7193	0.385	0.9339	0.166
Mof_H 	H 	0.7461	0.3082	0.9337	-0.053
Mof_C 	C 	0.6399	0.3839	0.9338	-0.243
Mof_C 	C 	0.6007	0.4959	0.9336	0.164
Mof_H 	H 	0.5468	0.4958	0.9346	-0.044
Mof_C 	C 	0.6404	0.61	0.9319	-0.252
Mof_C 	C 	0.7205	0.6119	0.9316	0.17
Mof_H 	H 	0.7471	0.6887	0.9296	-0.047
Mof_C 	C 	0.8478	0.4958	0.9391	0.44
Mof_C 	C 	0.5979	0.2562	0.9361	0.38
Mof_C 	C 	0.5959	0.7351	0.9317	0.436
Mof_C 	C 	0.2235	0.6594	0.8301	-0.177
Mof_C 	C 	0.2563	0.571	0.8608	0.13
Mof_H 	H 	0.2266	0.5021	0.8714	-0.001
Mof_C 	C 	0.3322	0.5803	0.8767	-0.222
Mof_C 	C 	0.376	0.6817	0.8604	0.123
Mof_H 	H 	0.4267	0.6897	0.8718	-0.028
Mof_C 	C 	0.3466	0.7744	0.8268	-0.187
Mof_C 	C 	0.2683	0.7615	0.813	0.101
Mof_H 	H 	0.2459	0.822	0.792	0.013
Mof_C 	C 	0.1396	0.6494	0.8124	0.403
Mof_C 	C 	0.367	0.4829	0.9107	0.397
Mof_C 	C 	0.3963	0.8775	0.8056	0.385
Mof_O 	O 	0.8815	0.3905	0.9452	-0.531
Mof_O 	O 	0.884	0.5978	0.9353	-0.527
Mof_O 	O 	0.6256	0.8279	0.9095	-0.438
Mof_O 	O 	0.5318	0.7409	0.9519	-0.539
Mof_O 	O 	0.5253	0.2558	0.9295	-0.498
Mof_O 	O 	0.6365	0.1579	0.945	-0.445
Mof_O 	O 	0.1141	0.7226	0.7802	-0.424
Mof_O 	O 	0.1005	0.5596	0.8315	-0.5
Mof_O 	O 	0.3518	0.3704	0.9035	-0.395
Mof_O 	O 	0.4102	0.5208	0.9463	-0.554
Mof_O 	O 	0.3756	0.9311	0.7657	-0.411
Mof_O 	O 	0.461	0.9031	0.8258	-0.528
Mof_H 	H 	0.07	0.55	0.991	0.928
Mof_Sr	Sr	0.51588	0.99998	0.90407	1.502
Mof_Sr	Sr	0.41261	0.70812	0.00818	1.721
Mof_C 	C 	0.2606	0.9983	0.9343	-0.315
Mof_C 	C 	0.2193	0.885	0.9339	0.171
Mof_H 	H 	0.2461	0.8082	0.9337	-0.054
Mof_C 	C 	0.1399	0.8839	0.9338	-0.243
Mof_C 	C 	0.1007	0.9959	0.9336	0.105
Mof_H 	H 	0.0468	0.9958	0.9346	-0.06
Mof_C 	C 	0.1404	0.11	0.9319	-0.216
Mof_C 	C 	0.2205	0.1119	0.9316	0.218
Mof_H 	H 	0.2471	0.1887	0.9296	-0.054
Mof_C 	C 	0.3478	0.9958	0.9391	0.39
Mof_C 	C 	0.0979	0.7562	0.9361	0.385
Mof_C 	C 	0.0959	0.2351	0.9317	0.43
Mof_C 	C 	0.7235	0.1594	0.8301	-0.119
Mof_C 	C 	0.7563	0.071	0.8608	0.055
Mof_H 	H 	0.7266	0.0021	0.8714	0.044
Mof_C 	C 	0.8322	0.0803	0.8767	-0.101
Mof_C 	C 	0.876	0.1817	0.8604	0.051
Mof_H 	H 	0.9267	0.1897	0.8718	0.018
Mof_C 	C 	0.8466	0.2744	0.8268	-0.129
Mof_C 	C 	0.7683	0.2615	0.813	0.056
Mof_H 	H 	0.7459	0.322	0.792	0.039
Mof_C 	C 	0.6396	0.1494	0.8124	0.382
Mof_C 	C 	0.867	0.9829	0.9107	0.267
Mof_C 	C 	0.8963	0.3775	0.8056	0.36
Mof_O 	O 	0.3815	0.8905	0.9452	-0.538
Mof_O 	O 	0.384	0.0978	0.9353	-0.496
Mof_O 	O 	0.1256	0.3279	0.9095	-0.429
Mof_O 	O 	0.0318	0.2409	0.9519	-0.563
Mof_O 	O 	0.0253	0.7558	0.9295	-0.538
Mof_O 	O 	0.1365	0.6579	0.945	-0.469
Mof_O 	O 	0.6141	0.2226	0.7802	-0.409
Mof_O 	O 	0.6005	0.0596	0.8315	-0.47
Mof_O 	O 	0.8518	0.8704	0.9035	-0.368
Mof_O 	O 	0.9102	0.0208	0.9463	-0.471
Mof_O 	O 	0.8756	0.4311	0.7657	-0.351
Mof_O 	O 	0.961	0.4031	0.8258	-0.458
Mof_H 	H 	0.57	0.05	0.991	0.807
Mof_Sr	Sr	0.98412	0.50002	0.40407	1.777
Mof_Sr	Sr	0.08739	0.79188	0.50818	1.498
Mof_C 	C 	0.2394	0.5017	0.4343	-0.252
Mof_C 	C 	0.2807	0.615	0.4339	0.164
Mof_H 	H 	0.2539	0.6918	0.4337	-0.04
Mof_C 	C 	0.3601	0.6161	0.4338	-0.231
Mof_C 	C 	0.3993	0.5041	0.4336	0.161
Mof_H 	H 	0.4532	0.5042	0.4346	-0.037
Mof_C 	C 	0.3596	0.39	0.4319	-0.228
Mof_C 	C 	0.2795	0.3881	0.4316	0.162
Mof_H 	H 	0.2529	0.3113	0.4296	-0.031
Mof_C 	C 	0.1522	0.5042	0.4391	0.444
Mof_C 	C 	0.4021	0.7438	0.4361	0.392
Mof_C 	C 	0.4041	0.2649	0.4317	0.423
Mof_C 	C 	0.7765	0.3406	0.3301	-0.167
Mof_C 	C 	0.7437	0.429	0.3608	0.123
Mof_H 	H 	0.7734	0.4979	0.3714	-0.001
Mof_C 	C 	0.6678	0.4197	0.3767	-0.211
Mof_C 	C 	0.624	0.3183	0.3604	0.117
Mof_H 	H 	0.5733	0.3103	0.3718	-0.026
Mof_C 	C 	0.6534	0.2256	0.3268	-0.176
Mof_C 	C 	0.7317	0.2385	0.313	0.092
Mof_H 	H 	0.7541	0.178	0.292	0.032
Mof_C 	C 	0.8604	0.3506	0.3124	0.399
Mof_C 	C 	0.633	0.5171	0.4107	0.392
Mof_C 	C 	0.6037	0.1225	0.3056	0.381
Mof_O 	O 	0.1185	0.6095	0.4452	-0.526
Mof_O 	O 	0.116	0.4022	0.4353	-0.566
Mof_O 	O 	0.3744	0.1721	0.4095	-0.417
Mof_O 	O 	0.4682	0.2591	0.4519	-0.502
Mof_O 	O 	0.4747	0.7442	0.4295	-0.527
Mof_O 	O 	0.3635	0.8421	0.445	-0.477
Mof_O 	O 	0.8859	0.2774	0.2802	-0.383
Mof_O 	O 	0.8995	0.4404	0.3315	-0.495
Mof_O 	O 	0.6482	0.6296	0.4035	-0.403
Mof_O 	O 	0.5898	0.4792	0.4463	-0.53
Mof_O 	O 	0.6244	0.0689	0.2657	-0.355
Mof_O 	O 	0.539	0.0969	0.3258	-0.51
Mof_H 	H 	0.93	0.45	0.491	1.149
Mof_Sr	Sr	0.48412	2e-05	0.40407	1.758
Mof_Sr	Sr	0.58739	0.29188	0.50818	1.601
Mof_C 	C 	0.7394	0.0017	0.4343	-0.21
Mof_C 	C 	0.7807	0.115	0.4339	0.161
Mof_H 	H 	0.7539	0.1918	0.4337	-0.04
Mof_C 	C 	0.8601	0.1161	0.4338	-0.232
Mof_C 	C 	0.8993	0.0041	0.4336	0.219
Mof_H 	H 	0.9532	0.0042	0.4346	-0.02
Mof_C 	C 	0.8596	0.89	0.4319	-0.262
Mof_C 	C 	0.7795	0.8881	0.4316	0.115
Mof_H 	H 	0.7529	0.8113	0.4296	-0.024
Mof_C 	C 	0.6522	0.0042	0.4391	0.493
Mof_C 	C 	0.9021	0.2438	0.4361	0.39
Mof_C 	C 	0.9041	0.7649	0.4317	0.426
Mof_C 	C 	0.2765	0.8406	0.3301	-0.223
Mof_C 	C 	0.2437	0.929	0.3608	0.195
Mof_H 	H 	0.2734	0.9979	0.3714	-0.042
Mof_C 	C 	0.1678	0.9197	0.3767	-0.325
Mof_C 	C 	0.124	0.8183	0.3604	0.186
Mof_H 	H 	0.0733	0.8103	0.3718	-0.069
Mof_C 	C 	0.1534	0.7256	0.3268	-0.231
Mof_C 	C 	0.2317	0.7385	0.313	0.135
Mof_H 	H 	0.2541	0.678	0.292	0.007
Mof_C 	C 	0.3604	0.8506	0.3124	0.421
Mof_C 	C 	0.133	0.0171	0.4107	0.518
Mof_C 	C 	0.1037	0.6225	0.3056	0.402
Mof_O 	O 	0.6185	0.1095	0.4452	-0.526
Mof_O 	O 	0.616	0.9022	0.4353	-0.601
Mof_O 	O 	0.8744	0.6721	0.4095	-0.431
Mof_O 	O 	0.9682	0.7591	0.4519	-0.475
Mof_O 	O 	0.9747	0.2442	0.4295	-0.489
Mof_O 	O 	0.8635	0.3421	0.445	-0.476
Mof_O 	O 	0.3859	0.7774	0.2802	-0.423
Mof_O 	O 	0.3995	0.9404	0.3315	-0.539
Mof_O 	O 	0.1482	0.1296	0.4035	-0.427
Mof_O 	O 	0.0898	0.9792	0.4463	-0.609
Mof_O 	O 	0.1244	0.5689	0.2657	-0.389
Mof_O 	O 	0.039	0.5969	0.3258	-0.559
Mof_H 	H 	0.43	0.95	0.491	0.991
Mof_Sr	Sr	0.98412	0.49998	0.59593	1.775
Mof_Sr	Sr	0.08739	0.20812	0.49182	1.546
Mof_C 	C 	0.2394	0.4983	0.5657	-0.256
Mof_C 	C 	0.2807	0.385	0.5661	0.164
Mof_H 	H 	0.2539	0.3082	0.5663	-0.039
Mof_C 	C 	0.3601	0.3839	0.5662	-0.23
Mof_C 	C 	0.3993	0.4959	0.5664	0.163
Mof_H 	H 	0.4532	0.4958	0.5654	-0.037
Mof_C 	C 	0.3596	0.61	0.5681	-0.234
Mof_C 	C 	0.2795	0.6119	0.5684	0.166
Mof_H 	H 	0.2529	0.6887	0.5704	-0.039
Mof_C 	C 	0.1522	0.4958	0.5609	0.445
Mof_C 	C 	0.4021	0.2562	0.5639	0.386
Mof_C 	C 	0.4041	0.7351	0.5683	0.428
Mof_C 	C 	0.7765	0.6594	0.6699	-0.174
Mof_C 	C 	0.7437	0.571	0.6392	0.127
Mof_H 	H 	0.7734	0.5021	0.6286	-0.001
Mof_C 	C 	0.6678	0.5803	0.6233	-0.212
Mof_C 	C 	0.624	0.6817	0.6396	0.12
Mof_H 	H 	0.5733	0.6897	0.6282	-0.025
Mof_C 	C 	0.6534	0.7744	0.6732	-0.185
Mof_C 	C 	0.7317	0.7615	0.687	0.098
Mof_H 	H 	0.7541	0.822	0.708	0.018
Mof_C 	C 	0.8604	0.6494	0.6876	0.401
Mof_C 	C 	0.633	0.4829	0.5893	0.391
Mof_C 	C 	0.6037	0.8775	0.6944	0.385
Mof_O 	O 	0.1185	0.3905	0.5548	-0.529
Mof_O 	O 	0.116	0.5978	0.5647	-0.567
Mof_O 	O 	0.3744	0.8279	0.5905	-0.433
Mof_O 	O 	0.4682	0.7409	0.5481	-0.499
Mof_O 	O 	0.4747	0.2558	0.5705	-0.506
Mof_O 	O 	0.3635	0.1579	0.555	-0.446
Mof_O 	O 	0.8859	0.7226	0.7198	-0.395
Mof_O 	O 	0.8995	0.5596	0.6685	-0.495
Mof_O 	O 	0.6482	0.3704	0.5965	-0.398
Mof_O 	O 	0.5898	0.5208	0.5537	-0.529
Mof_O 	O 	0.6244	0.9311	0.7343	-0.41
Mof_O 	O 	0.539	0.9031	0.6742	-0.532
Mof_H 	H 	0.93	0.55	0.509	1.15
Mof_Sr	Sr	0.48412	0.99998	0.59593	1.542
Mof_Sr	Sr	0.58739	0.70812	0.49182	1.587
Mof_C 	C 	0.7394	0.9983	0.5657	-0.285
Mof_C 	C 	0.7807	0.885	0.5661	0.149
Mof_H 	H 	0.7539	0.8082	0.5663	-0.036
Mof_C 	C 	0.8601	0.8839	0.5662	-0.199
Mof_C 	C 	0.8993	0.9959	0.5664	0.072
Mof_H 	H 	0.9532	0.9958	0.5654	-0.007
Mof_C 	C 	0.8596	0.11	0.5681	-0.165
Mof_C 	C 	0.7795	0.1119	0.5684	0.196
Mof_H 	H 	0.7529	0.1887	0.5704	-0.042
Mof_C 	C 	0.6522	0.9958	0.5609	0.387
Mof_C 	C 	0.9021	0.7562	0.5639	0.373
Mof_C 	C 	0.9041	0.2351	0.5683	0.406
Mof_C 	C 	0.2765	0.1594	0.6699	-0.132
Mof_C 	C 	0.2437	0.071	0.6392	0.066
Mof_H 	H 	0.2734	0.0021	0.6286	0.041
Mof_C 	C 	0.1678	0.0803	0.6233	-0.114
Mof_C 	C 	0.124	0.1817	0.6396	0.069
Mof_H 	H 	0.0733	0.1897	0.6282	-0.017
Mof_C 	C 	0.1534	0.2744	0.6732	-0.16
Mof_C 	C 	0.2317	0.2615	0.687	0.07
Mof_H 	H 	0.2541	0.322	0.708	0.032
Mof_C 	C 	0.3604	0.1494	0.6876	0.386
Mof_C 	C 	0.133	0.9829	0.5893	0.264
Mof_C 	C 	0.1037	0.3775	0.6944	0.379
Mof_O 	O 	0.6185	0.8905	0.5548	-0.502
Mof_O 	O 	0.616	0.0978	0.5647	-0.493
Mof_O 	O 	0.8744	0.3279	0.5905	-0.422
Mof_O 	O 	0.9682	0.2409	0.5481	-0.464
Mof_O 	O 	0.9747	0.7558	0.5705	-0.49
Mof_O 	O 	0.8635	0.6579	0.555	-0.473
Mof_O 	O 	0.3859	0.2226	0.7198	-0.411
Mof_O 	O 	0.3995	0.0596	0.6685	-0.475
Mof_O 	O 	0.1482	0.8704	0.5965	-0.382
Mof_O 	O 	0.0898	0.0208	0.5537	-0.464
Mof_O 	O 	0.1244	0.4311	0.7343	-0.379
Mof_O 	O 	0.039	0.4031	0.6742	-0.549
Mof_H 	H 	0.43	0.05	0.509	1.049
Mof_Sr	Sr	0.01588	0.50002	0.09593	1.57
Mof_Sr	Sr	0.91261	0.79188	0.99182	1.521
Mof_C 	C 	0.7606	0.5017	0.0657	-0.24
Mof_C 	C 	0.7193	0.615	0.0661	0.165
Mof_H 	H 	0.7461	0.6918	0.0663	-0.033
Mof_C 	C 	0.6399	0.6161	0.0662	-0.221
Mof_C 	C 	0.6007	0.5041	0.0664	0.162
Mof_H 	H 	0.5468	0.5042	0.0654	-0.031
Mof_C 	C 	0.6404	0.39	0.0681	-0.214
Mof_C 	C 	0.7205	0.3881	0.0684	0.165
Mof_H 	H 	0.7471	0.3113	0.0704	-0.029
Mof_C 	C 	0.8478	0.5042	0.0609	0.444
Mof_C 	C 	0.5979	0.7438	0.0639	0.397
Mof_C 	C 	0.5959	0.2649	0.0683	0.421
Mof_C 	C 	0.2235	0.3406	0.1699	-0.167
Mof_C 	C 	0.2563	0.429	0.1392	0.12
Mof_H 	H 	0.2266	0.4979	0.1286	0.005
Mof_C 	C 	0.3322	0.4197	0.1233	-0.2
Mof_C 	C 	0.376	0.3183	0.1396	0.114
Mof_H 	H 	0.4267	0.3103	0.1282	-0.022
Mof_C 	C 	0.3466	0.2256	0.1732	-0.175
Mof_C 	C 	0.2683	0.2385	0.187	0.091
Mof_H 	H 	0.2459	0.178	0.208	0.028
Mof_C 	C 	0.1396	0.3506	0.1876	0.399
Mof_C 	C 	0.367	0.5171	0.0893	0.387
Mof_C 	C 	0.3963	0.1225	0.1944	0.38
Mof_O 	O 	0.8815	0.6095	0.0548	-0.471
Mof_O 	O 	0.884	0.4022	0.0647	-0.53
Mof_O 	O 	0.6256	0.1721	0.0905	-0.408
Mof_O 	O 	0.5318	0.2591	0.0481	-0.466
Mof_O 	O 	0.5253	0.7442	0.0705	-0.531
Mof_O 	O 	0.6365	0.8421	0.055	-0.452
Mof_O 	O 	0.1141	0.2774	0.2198	-0.411
Mof_O 	O 	0.1005	0.4404	0.1685	-0.503
Mof_O 	O 	0.3518	0.6296	0.0965	-0.405
Mof_O 	O 	0.4102	0.4792	0.0537	-0.503
Mof_O 	O 	0.3756	0.0689	0.2343	-0.357
Mof_O 	O 	0.461	0.0969	0.1742	-0.509
Mof_H 	H 	0.07	0.45	0.009	1.008
Mof_Sr	Sr	0.51588	2e-05	0.09593	1.747
Mof_Sr	Sr	0.41261	0.29188	0.99182	1.467
Mof_C 	C 	0.2606	0.0017	0.0657	-0.213
Mof_C 	C 	0.2193	0.115	0.0661	0.18
Mof_H 	H 	0.2461	0.1918	0.0663	-0.035
Mof_C 	C 	0.1399	0.1161	0.0662	-0.251
Mof_C 	C 	0.1007	0.0041	0.0664	0.248
Mof_H 	H 	0.0468	0.0042	0.0654	-0.059
Mof_C 	C 	0.1404	0.89	0.0681	-0.28
Mof_C 	C 	0.2205	0.8881	0.0684	0.137
Mof_H 	H 	0.2471	0.8113	0.0704	-0.027
Mof_C 	C 	0.3478	0.0042	0.0609	0.499
Mof_C 	C 	0.0979	0.2438	0.0639	0.412
Mof_C 	C 	0.0959	0.7649	0.0683	0.439
Mof_C 	C 	0.7235	0.8406	0.1699	-0.206
Mof_C 	C 	0.7563	0.929	0.1392	0.176
Mof_H 	H 	0.7266	0.9979	0.1286	-0.032
Mof_C 	C 	0.8322	0.9197	0.1233	-0.29
Mof_C 	C 	0.876	0.8183	0.1396	0.16
Mof_H 	H 	0.9267	0.8103	0.1282	-0.028
Mof_C 	C 	0.8466	0.7256	0.1732	-0.196
Mof_C 	C 	0.7683	0.7385	0.187	0.116
Mof_H 	H 	0.7459	0.678	0.208	0.015
Mof_C 	C 	0.6396	0.8506	0.1876	0.415
Mof_C 	C 	0.867	0.0171	0.0893	0.506
Mof_C 	C 	0.8963	0.6225	0.1944	0.382
Mof_O 	O 	0.3815	0.1095	0.0548	-0.502
Mof_O 	O 	0.384	0.9022	0.0647	-0.606
Mof_O 	O 	0.1256	0.6721	0.0905	-0.422
Mof_O 	O 	0.0318	0.7591	0.0481	-0.499
Mof_O 	O 	0.0253	0.2442	0.0705	-0.547
Mof_O 	O 	0.1365	0.3421	0.055	-0.448
Mof_O 	O 	0.6141	0.7774	0.2198	-0.421
Mof_O 	O 	0.6005	0.9404	0.1685	-0.537
Mof_O 	O 	0.8518	0.1296	0.0965	-0.417
Mof_O 	O 	0.9102	0.9792	0.0537	-0.565
Mof_O 	O 	0.8756	0.5689	0.2343	-0.361
Mof_O 	O 	0.961	0.5969	0.1742	-0.474
Mof_H 	H 	0.57	0.95	0.009	0.829
Mof_Sr	Sr	4.33655e-33	0.57253	0.75	1.318
Mof_Sr	Sr	0.5	0.07253	0.75	1.532
Mof_Sr	Sr	1.44552e-33	0.42747	0.25	1.329
Mof_Sr	Sr	0.5	0.92747	0.25	1.353
Mof_O 	O 	0.0457	0.5	-0	-2.152
Mof_O 	O 	0.5457	0	-0	-1.845
Mof_O 	O 	0.9543	0.5	0.5	-2.522
Mof_O 	O 	0.4543	0	0.5	-2.256
_end
