data_functionalizedCrystal
_audit_creation_method	'EQeq! by Chris Wilmer'
_symmetry_space_group_name_H-M	'P1'
_symmetry_Int_Tables_number	1
_symmetry_cell_setting	triclinic
loop_
_symmetry_equiv_pos_as_xyz
  x,y,z
_cell_length_a	23.358
_cell_length_b	23.358
_cell_length_c	19.3
_cell_angle_alpha	90
_cell_angle_beta	90
_cell_angle_gamma	120
loop_
_atom_site_label
_atom_site_type_symbol
_atom_site_fract_x
_atom_site_fract_y
_atom_site_fract_z
_atom_site_charge
Mof_Cu	Cu	0.06499	0.53271	0.99994	0.859
Mof_Cu	Cu	0.93494	0.46759	0.9732	0.859
Mof_O 	O 	0.0663	0.5942	0.9316	-0.46
Mof_O 	O 	0.9605	0.5423	0.9069	-0.45
Mof_O 	O 	0.8724	0.6261	0.7339	-0.399
Mof_O 	O 	0.9274	0.7348	0.709	-0.422
Mof_O 	O 	0.4055	0.9323	0.9286	-0.424
Mof_O 	O 	0.4626	0.0412	0.9056	-0.432
Mof_O 	O 	0.3736	0.1292	0.7333	-0.421
Mof_O 	O 	0.2658	0.0719	0.7114	-0.434
Mof_C 	C 	0.0168	0.5862	0.901	0.404
Mof_C 	C 	0.9178	0.687	0.743	0.347
Mof_C 	C 	0.0242	0.6435	0.8565	-0.08
Mof_C 	C 	0.9695	0.6374	0.8213	0.008
Mof_H 	H 	0.9291	0.5966	0.8217	0.05
Mof_C 	C 	0.9741	0.6912	0.7855	-0.058
Mof_C 	C 	0.0333	0.751	0.7848	-0.079
Mof_H 	H 	0.0363	0.7877	0.7604	0.072
Mof_C 	C 	0.088	0.757	0.82	0.089
Mof_C 	C 	0.0834	0.7033	0.8558	-0.07
Mof_H 	H 	0.1208	0.7074	0.8799	0.059
Mof_C 	C 	0.197	0.843	0.79	-0.054
Mof_H 	H 	0.1895	0.8449	0.7397	0.052
Mof_H 	H 	0.2147	0.8124	0.7969	0.047
Mof_N 	N 	0.14	0.8217	0.826	-0.185
Mof_H 	H 	0.1358	0.8493	0.8542	0.101
Mof_C 	C 	0.2443	0.9089	0.8161	0.014
Mof_C 	C 	0.2967	0.9152	0.856	-0.037
Mof_H 	H 	0.2925	0.8783	0.8811	0.045
Mof_C 	C 	0.3553	0.9755	0.8591	-0.084
Mof_C 	C 	0.3614	0.0295	0.8224	0.019
Mof_H 	H 	0.4014	0.0707	0.8246	0.044
Mof_C 	C 	0.309	0.0232	0.7825	-0.087
Mof_C 	C 	0.2504	0.9628	0.7794	-0.036
Mof_H 	H 	0.2146	0.9585	0.7521	0.054
Mof_C 	C 	0.4116	0.9857	0.9056	0.337
Mof_C 	C 	0.315	0.0786	0.737	0.378
Mof_Cu	Cu	0.73166	0.86604	0.33327	0.907
Mof_Cu	Cu	0.60161	0.80092	0.30653	0.907
Mof_O 	O 	0.73297	0.92753	0.26493	-0.426
Mof_O 	O 	0.62717	0.87563	0.24023	-0.416
Mof_O 	O 	0.53907	0.95943	0.06723	-0.341
Mof_O 	O 	0.59407	0.06813	0.04233	-0.363
Mof_O 	O 	0.07217	0.26563	0.26193	-0.394
Mof_O 	O 	0.12927	0.37453	0.23893	-0.402
Mof_O 	O 	0.04027	0.46253	0.06663	-0.363
Mof_O 	O 	0.93247	0.40523	0.04473	-0.378
Mof_C 	C 	0.68347	0.91953	0.23433	0.401
Mof_C 	C 	0.58447	0.02033	0.07633	0.334
Mof_C 	C 	0.69087	0.97683	0.18983	-0.046
Mof_C 	C 	0.63617	0.97073	0.15463	-0.005
Mof_H 	H 	0.59577	0.92993	0.15503	0.073
Mof_C 	C 	0.64077	0.02453	0.11883	-0.023
Mof_C 	C 	0.69997	0.08433	0.11813	-0.087
Mof_H 	H 	0.70297	0.12103	0.09373	0.094
Mof_C 	C 	0.75467	0.09033	0.15333	0.116
Mof_C 	C 	0.75007	0.03663	0.18913	-0.079
Mof_H 	H 	0.78747	0.04073	0.21323	0.08
Mof_C 	C 	0.86367	0.17633	0.12333	-0.075
Mof_H 	H 	0.85617	0.17823	0.07303	0.079
Mof_H 	H 	0.88137	0.14573	0.13023	0.068
Mof_N 	N 	0.80667	0.15503	0.15933	-0.182
Mof_H 	H 	0.80247	0.18263	0.18753	0.119
Mof_C 	C 	0.91097	0.24223	0.14943	0.048
Mof_C 	C 	0.96337	0.24853	0.18933	-0.049
Mof_H 	H 	0.95917	0.21163	0.21443	0.067
Mof_C 	C 	0.02197	0.30883	0.19243	-0.05
Mof_C 	C 	0.02807	0.36283	0.15573	0.006
Mof_H 	H 	0.06807	0.40403	0.15793	0.067
Mof_C 	C 	0.97567	0.35653	0.11583	-0.052
Mof_C 	C 	0.91707	0.29613	0.11273	-0.049
Mof_H 	H 	0.88127	0.29183	0.08543	0.078
Mof_C 	C 	0.07827	0.31903	0.23893	0.342
Mof_C 	C 	0.98167	0.41193	0.07033	0.367
Mof_Cu	Cu	0.39832	0.19938	0.66661	0.905
Mof_Cu	Cu	0.26827	0.13426	0.63987	0.905
Mof_O 	O 	0.39963	0.26087	0.59827	-0.432
Mof_O 	O 	0.29383	0.20897	0.57357	-0.424
Mof_O 	O 	0.20573	0.29277	0.40057	-0.393
Mof_O 	O 	0.26073	0.40147	0.37567	-0.416
Mof_O 	O 	0.73883	0.59897	0.59527	-0.401
Mof_O 	O 	0.79593	0.70787	0.57227	-0.411
Mof_O 	O 	0.70693	0.79587	0.39997	-0.414
Mof_O 	O 	0.59913	0.73857	0.37807	-0.427
Mof_C 	C 	0.35013	0.25287	0.56767	0.403
Mof_C 	C 	0.25113	0.35367	0.40967	0.348
Mof_C 	C 	0.35753	0.31017	0.52317	-0.06
Mof_C 	C 	0.30283	0.30407	0.48797	0.002
Mof_H 	H 	0.26243	0.26327	0.48837	0.061
Mof_C 	C 	0.30743	0.35787	0.45217	-0.046
Mof_C 	C 	0.36663	0.41767	0.45147	-0.081
Mof_H 	H 	0.36963	0.45437	0.42707	0.079
Mof_C 	C 	0.42133	0.42367	0.48667	0.103
Mof_C 	C 	0.41673	0.36997	0.52247	-0.074
Mof_H 	H 	0.45413	0.37407	0.54657	0.073
Mof_C 	C 	0.53033	0.50967	0.45667	-0.056
Mof_H 	H 	0.52283	0.51157	0.40637	0.054
Mof_H 	H 	0.54803	0.47907	0.46357	0.052
Mof_N 	N 	0.47333	0.48837	0.49267	-0.186
Mof_H 	H 	0.46913	0.51597	0.52087	0.117
Mof_C 	C 	0.57763	0.57557	0.48277	0.028
Mof_C 	C 	0.63003	0.58187	0.52267	-0.039
Mof_H 	H 	0.62583	0.54497	0.54777	0.059
Mof_C 	C 	0.68863	0.64217	0.52577	-0.067
Mof_C 	C 	0.69473	0.69617	0.48907	0.014
Mof_H 	H 	0.73473	0.73737	0.49127	0.055
Mof_C 	C 	0.64233	0.68987	0.44917	-0.076
Mof_C 	C 	0.58373	0.62947	0.44607	-0.038
Mof_H 	H 	0.54793	0.62517	0.41877	0.06
Mof_C 	C 	0.74493	0.65237	0.57227	0.346
Mof_C 	C 	0.64833	0.74527	0.40367	0.376
Mof_Cu	Cu	0.46729	0.53228	0.99994	0.858
Mof_Cu	Cu	0.53241	0.46735	0.9732	0.858
Mof_O 	O 	0.4058	0.4721	0.9316	-0.46
Mof_O 	O 	0.4577	0.4182	0.9069	-0.452
Mof_O 	O 	0.3739	0.2463	0.7339	-0.4
Mof_O 	O 	0.2652	0.1926	0.709	-0.422
Mof_O 	O 	0.0677	0.4732	0.9286	-0.424
Mof_O 	O 	0.9588	0.4214	0.9056	-0.432
Mof_O 	O 	0.8708	0.2444	0.7333	-0.421
Mof_O 	O 	0.9281	0.1939	0.7114	-0.433
Mof_C 	C 	0.4138	0.4306	0.901	0.407
Mof_C 	C 	0.313	0.2308	0.743	0.347
Mof_C 	C 	0.3565	0.3807	0.8565	-0.079
Mof_C 	C 	0.3626	0.3321	0.8213	0.006
Mof_H 	H 	0.4034	0.3325	0.8217	0.051
Mof_C 	C 	0.3088	0.2829	0.7855	-0.059
Mof_C 	C 	0.249	0.2823	0.7848	-0.077
Mof_H 	H 	0.2123	0.2486	0.7604	0.072
Mof_C 	C 	0.243	0.331	0.82	0.088
Mof_C 	C 	0.2967	0.3801	0.8558	-0.07
Mof_H 	H 	0.2926	0.4134	0.8799	0.059
Mof_C 	C 	0.157	0.354	0.79	-0.054
Mof_H 	H 	0.1551	0.3446	0.7397	0.052
Mof_H 	H 	0.1876	0.4023	0.7969	0.048
Mof_N 	N 	0.1783	0.3183	0.826	-0.184
Mof_H 	H 	0.1507	0.2865	0.8542	0.102
Mof_C 	C 	0.0911	0.3354	0.8161	0.014
Mof_C 	C 	0.0848	0.3815	0.856	-0.037
Mof_H 	H 	0.1217	0.4142	0.8811	0.045
Mof_C 	C 	0.0245	0.3798	0.8591	-0.084
Mof_C 	C 	0.9705	0.3319	0.8224	0.019
Mof_H 	H 	0.9293	0.3307	0.8246	0.044
Mof_C 	C 	0.9768	0.2858	0.7825	-0.087
Mof_C 	C 	0.0372	0.2876	0.7794	-0.037
Mof_H 	H 	0.0415	0.2561	0.7521	0.054
Mof_C 	C 	0.0143	0.4259	0.9056	0.337
Mof_C 	C 	0.9214	0.2364	0.737	0.378
Mof_Cu	Cu	0.13396	0.86561	0.33327	0.907
Mof_Cu	Cu	0.19908	0.80068	0.30653	0.907
Mof_O 	O 	0.07247	0.80543	0.26493	-0.426
Mof_O 	O 	0.12437	0.75153	0.24023	-0.416
Mof_O 	O 	0.04057	0.57963	0.06723	-0.341
Mof_O 	O 	0.93187	0.52593	0.04233	-0.363
Mof_O 	O 	0.73437	0.80653	0.26193	-0.393
Mof_O 	O 	0.62547	0.75473	0.23893	-0.402
Mof_O 	O 	0.53747	0.57773	0.06663	-0.363
Mof_O 	O 	0.59477	0.52723	0.04473	-0.377
Mof_C 	C 	0.08047	0.76393	0.23433	0.401
Mof_C 	C 	0.97967	0.56413	0.07633	0.334
Mof_C 	C 	0.02317	0.71403	0.18983	-0.046
Mof_C 	C 	0.02927	0.66543	0.15463	-0.005
Mof_H 	H 	0.07007	0.66583	0.15503	0.073
Mof_C 	C 	0.97547	0.61623	0.11883	-0.023
Mof_C 	C 	0.91567	0.61563	0.11813	-0.087
Mof_H 	H 	0.87897	0.58193	0.09373	0.094
Mof_C 	C 	0.90967	0.66433	0.15333	0.116
Mof_C 	C 	0.96337	0.71343	0.18913	-0.078
Mof_H 	H 	0.95927	0.74673	0.21323	0.08
Mof_C 	C 	0.82367	0.68733	0.12333	-0.075
Mof_H 	H 	0.82177	0.67793	0.07303	0.08
Mof_H 	H 	0.85427	0.73563	0.13023	0.069
Mof_N 	N 	0.84497	0.65163	0.15933	-0.182
Mof_H 	H 	0.81737	0.61983	0.18753	0.119
Mof_C 	C 	0.75777	0.66873	0.14943	0.048
Mof_C 	C 	0.75147	0.71483	0.18933	-0.049
Mof_H 	H 	0.78837	0.74753	0.21443	0.067
Mof_C 	C 	0.69117	0.71313	0.19243	-0.05
Mof_C 	C 	0.63717	0.66523	0.15573	0.006
Mof_H 	H 	0.59597	0.66403	0.15793	0.067
Mof_C 	C 	0.64347	0.61913	0.11583	-0.052
Mof_C 	C 	0.70387	0.62093	0.11273	-0.049
Mof_H 	H 	0.70817	0.58943	0.08543	0.078
Mof_C 	C 	0.68097	0.75923	0.23893	0.342
Mof_C 	C 	0.58807	0.56973	0.07033	0.368
Mof_Cu	Cu	0.80062	0.19895	0.66661	0.905
Mof_Cu	Cu	0.86574	0.13402	0.63987	0.905
Mof_O 	O 	0.73913	0.13877	0.59827	-0.432
Mof_O 	O 	0.79103	0.08487	0.57357	-0.424
Mof_O 	O 	0.70723	0.91297	0.40057	-0.393
Mof_O 	O 	0.59853	0.85927	0.37567	-0.416
Mof_O 	O 	0.40103	0.13987	0.59527	-0.4
Mof_O 	O 	0.29213	0.08807	0.57227	-0.411
Mof_O 	O 	0.20413	0.91107	0.39997	-0.414
Mof_O 	O 	0.26143	0.86057	0.37807	-0.427
Mof_C 	C 	0.74713	0.09727	0.56767	0.402
Mof_C 	C 	0.64633	0.89747	0.40967	0.348
Mof_C 	C 	0.68983	0.04737	0.52317	-0.059
Mof_C 	C 	0.69593	0.99877	0.48797	0
Mof_H 	H 	0.73673	0.99917	0.48837	0.061
Mof_C 	C 	0.64213	0.94957	0.45217	-0.046
Mof_C 	C 	0.58233	0.94897	0.45147	-0.081
Mof_H 	H 	0.54563	0.91527	0.42707	0.079
Mof_C 	C 	0.57633	0.99767	0.48667	0.101
Mof_C 	C 	0.63003	0.04677	0.52247	-0.073
Mof_H 	H 	0.62593	0.08007	0.54657	0.073
Mof_C 	C 	0.49033	0.02067	0.45667	-0.057
Mof_H 	H 	0.48843	0.01127	0.40637	0.055
Mof_H 	H 	0.52093	0.06897	0.46357	0.052
Mof_N 	N 	0.51163	0.98497	0.49267	-0.186
Mof_H 	H 	0.48403	0.95317	0.52087	0.117
Mof_C 	C 	0.42443	0.00207	0.48277	0.03
Mof_C 	C 	0.41813	0.04817	0.52267	-0.041
Mof_H 	H 	0.45503	0.08087	0.54777	0.06
Mof_C 	C 	0.35783	0.04647	0.52577	-0.064
Mof_C 	C 	0.30383	0.99857	0.48907	0.011
Mof_H 	H 	0.26263	0.99737	0.49127	0.055
Mof_C 	C 	0.31013	0.95247	0.44917	-0.074
Mof_C 	C 	0.37053	0.95427	0.44607	-0.041
Mof_H 	H 	0.37483	0.92277	0.41877	0.061
Mof_C 	C 	0.34763	0.09257	0.57227	0.345
Mof_C 	C 	0.25473	0.90307	0.40367	0.376
Mof_Cu	Cu	0.46772	0.93501	0.99994	0.858
Mof_Cu	Cu	0.53265	0.06506	0.9732	0.859
Mof_O 	O 	0.5279	0.9337	0.9316	-0.46
Mof_O 	O 	0.5818	0.0395	0.9069	-0.449
Mof_O 	O 	0.7537	0.1276	0.7339	-0.399
Mof_O 	O 	0.8074	0.0726	0.709	-0.421
Mof_O 	O 	0.5268	0.5945	0.9286	-0.424
Mof_O 	O 	0.5786	0.5374	0.9056	-0.434
Mof_O 	O 	0.7556	0.6264	0.7333	-0.422
Mof_O 	O 	0.8061	0.7342	0.7114	-0.434
Mof_C 	C 	0.5694	0.9832	0.901	0.404
Mof_C 	C 	0.7692	0.0822	0.743	0.347
Mof_C 	C 	0.6193	0.9758	0.8565	-0.08
Mof_C 	C 	0.6679	0.0305	0.8213	0.008
Mof_H 	H 	0.6675	0.0709	0.8217	0.051
Mof_C 	C 	0.7171	0.0259	0.7855	-0.057
Mof_C 	C 	0.7177	0.9667	0.7848	-0.08
Mof_H 	H 	0.7514	0.9637	0.7604	0.072
Mof_C 	C 	0.669	0.912	0.82	0.089
Mof_C 	C 	0.6199	0.9166	0.8558	-0.07
Mof_H 	H 	0.5866	0.8792	0.8799	0.059
Mof_C 	C 	0.646	0.803	0.79	-0.053
Mof_H 	H 	0.6554	0.8105	0.7397	0.052
Mof_H 	H 	0.5977	0.7853	0.7969	0.047
Mof_N 	N 	0.6817	0.86	0.826	-0.185
Mof_H 	H 	0.7135	0.8642	0.8542	0.102
Mof_C 	C 	0.6646	0.7557	0.8161	0.013
Mof_C 	C 	0.6185	0.7033	0.856	-0.037
Mof_H 	H 	0.5858	0.7075	0.8811	0.045
Mof_C 	C 	0.6202	0.6447	0.8591	-0.083
Mof_C 	C 	0.6681	0.6386	0.8224	0.017
Mof_H 	H 	0.6693	0.5986	0.8246	0.044
Mof_C 	C 	0.7142	0.691	0.7825	-0.089
Mof_C 	C 	0.7124	0.7496	0.7794	-0.034
Mof_H 	H 	0.7439	0.7854	0.7521	0.054
Mof_C 	C 	0.5741	0.5884	0.9056	0.339
Mof_C 	C 	0.7636	0.685	0.737	0.378
Mof_Cu	Cu	0.13439	0.26834	0.33327	0.907
Mof_Cu	Cu	0.19932	0.39839	0.30653	0.907
Mof_O 	O 	0.19457	0.26703	0.26493	-0.426
Mof_O 	O 	0.24847	0.37283	0.24023	-0.416
Mof_O 	O 	0.42037	0.46093	0.06723	-0.341
Mof_O 	O 	0.47407	0.40593	0.04233	-0.362
Mof_O 	O 	0.19347	0.92783	0.26193	-0.394
Mof_O 	O 	0.24527	0.87073	0.23893	-0.402
Mof_O 	O 	0.42227	0.95973	0.06663	-0.364
Mof_O 	O 	0.47277	0.06753	0.04473	-0.378
Mof_C 	C 	0.23607	0.31653	0.23433	0.401
Mof_C 	C 	0.43587	0.41553	0.07633	0.334
Mof_C 	C 	0.28597	0.30913	0.18983	-0.045
Mof_C 	C 	0.33457	0.36383	0.15463	-0.005
Mof_H 	H 	0.33417	0.40423	0.15503	0.073
Mof_C 	C 	0.38377	0.35923	0.11883	-0.023
Mof_C 	C 	0.38437	0.30003	0.11813	-0.087
Mof_H 	H 	0.41807	0.29703	0.09373	0.094
Mof_C 	C 	0.33567	0.24533	0.15333	0.116
Mof_C 	C 	0.28657	0.24993	0.18913	-0.079
Mof_H 	H 	0.25327	0.21253	0.21323	0.08
Mof_C 	C 	0.31267	0.13633	0.12333	-0.075
Mof_H 	H 	0.32207	0.14383	0.07303	0.079
Mof_H 	H 	0.26437	0.11863	0.13023	0.069
Mof_N 	N 	0.34837	0.19333	0.15933	-0.182
Mof_H 	H 	0.38017	0.19753	0.18753	0.119
Mof_C 	C 	0.33127	0.08903	0.14943	0.048
Mof_C 	C 	0.28517	0.03663	0.18933	-0.049
Mof_H 	H 	0.25247	0.04083	0.21443	0.067
Mof_C 	C 	0.28687	0.97803	0.19243	-0.051
Mof_C 	C 	0.33477	0.97193	0.15573	0.006
Mof_H 	H 	0.33597	0.93193	0.15793	0.067
Mof_C 	C 	0.38087	0.02433	0.11583	-0.052
Mof_C 	C 	0.37907	0.08293	0.11273	-0.049
Mof_H 	H 	0.41057	0.11873	0.08543	0.078
Mof_C 	C 	0.24077	0.92173	0.23893	0.342
Mof_C 	C 	0.43027	0.01833	0.07033	0.368
Mof_Cu	Cu	0.80105	0.60168	0.66661	0.905
Mof_Cu	Cu	0.86598	0.73173	0.63987	0.905
Mof_O 	O 	0.86123	0.60037	0.59827	-0.432
Mof_O 	O 	0.91513	0.70617	0.57357	-0.424
Mof_O 	O 	0.08703	0.79427	0.40057	-0.393
Mof_O 	O 	0.14073	0.73927	0.37567	-0.416
Mof_O 	O 	0.86013	0.26117	0.59527	-0.4
Mof_O 	O 	0.91193	0.20407	0.57227	-0.411
Mof_O 	O 	0.08893	0.29307	0.39997	-0.414
Mof_O 	O 	0.13943	0.40087	0.37807	-0.427
Mof_C 	C 	0.90273	0.64987	0.56767	0.402
Mof_C 	C 	0.10253	0.74887	0.40967	0.348
Mof_C 	C 	0.95263	0.64247	0.52317	-0.059
Mof_C 	C 	0.00123	0.69717	0.48797	0
Mof_H 	H 	0.00083	0.73757	0.48837	0.061
Mof_C 	C 	0.05043	0.69257	0.45217	-0.046
Mof_C 	C 	0.05103	0.63337	0.45147	-0.081
Mof_H 	H 	0.08473	0.63037	0.42707	0.079
Mof_C 	C 	0.00233	0.57867	0.48667	0.101
Mof_C 	C 	0.95323	0.58327	0.52247	-0.073
Mof_H 	H 	0.91993	0.54587	0.54657	0.073
Mof_C 	C 	0.97933	0.46967	0.45667	-0.057
Mof_H 	H 	0.98873	0.47717	0.40637	0.055
Mof_H 	H 	0.93103	0.45197	0.46357	0.052
Mof_N 	N 	0.01503	0.52667	0.49267	-0.186
Mof_H 	H 	0.04683	0.53087	0.52087	0.117
Mof_C 	C 	0.99793	0.42237	0.48277	0.03
Mof_C 	C 	0.95183	0.36997	0.52267	-0.041
Mof_H 	H 	0.91913	0.37417	0.54777	0.06
Mof_C 	C 	0.95353	0.31137	0.52577	-0.064
Mof_C 	C 	0.00143	0.30527	0.48907	0.011
Mof_H 	H 	0.00263	0.26527	0.49127	0.055
Mof_C 	C 	0.04753	0.35767	0.44917	-0.074
Mof_C 	C 	0.04573	0.41627	0.44607	-0.041
Mof_H 	H 	0.07723	0.45207	0.41877	0.061
Mof_C 	C 	0.90743	0.25507	0.57227	0.345
Mof_C 	C 	0.09693	0.35167	0.40367	0.376
_end
