data_functionalizedCrystal
_audit_creation_method	'EQeq! by Chris Wilmer'
_symmetry_space_group_name_H-M	'P1'
_symmetry_Int_Tables_number	1
_symmetry_cell_setting	triclinic
loop_
_symmetry_equiv_pos_as_xyz
  x,y,z
_cell_length_a	12.1827
_cell_length_b	12.1827
_cell_length_c	7.0923
_cell_angle_alpha	90
_cell_angle_beta	90
_cell_angle_gamma	120
loop_
_atom_site_label
_atom_site_type_symbol
_atom_site_fract_x
_atom_site_fract_y
_atom_site_fract_z
_atom_site_charge
Mof_Co	Co	0.5	0	-0	1.16
Mof_Co	Co	-0	0.5	-0	1.16
Mof_Co	Co	0.5	0.5	-0	1.187
Mof_O 	O 	0.7029	0.1277	-0	-0.34
Mof_N 	N 	0.5046	0.1623	-0	-0.168
Mof_O 	O 	0.8723	0.5752	-0	-0.285
Mof_N 	N 	0.8377	0.3423	-0	-0.166
Mof_O 	O 	0.4248	0.2971	-0	-0.327
Mof_N 	N 	0.6577	0.4954	-0	-0.16
Mof_O 	O 	0.2971	0.8723	-0	-0.285
Mof_N 	N 	0.4954	0.8377	-0	-0.16
Mof_O 	O 	0.1277	0.4248	-0	-0.343
Mof_N 	N 	0.1623	0.6577	-0	-0.158
Mof_O 	O 	0.5752	0.7029	-0	-0.324
Mof_N 	N 	0.3423	0.5046	-0	-0.175
Mof_O 	O 	0.1277	0.7029	-0	-0.34
Mof_N 	N 	0.1623	0.5046	-0	-0.168
Mof_O 	O 	0.5752	0.8723	-0	-0.285
Mof_N 	N 	0.3423	0.8377	-0	-0.166
Mof_O 	O 	0.2971	0.4248	-0	-0.327
Mof_N 	N 	0.4954	0.6577	-0	-0.16
Mof_O 	O 	0.8723	0.2971	-0	-0.285
Mof_N 	N 	0.8377	0.4954	-0	-0.16
Mof_O 	O 	0.4248	0.1277	-0	-0.343
Mof_N 	N 	0.6577	0.1623	-0	-0.158
Mof_O 	O 	0.7029	0.5752	-0	-0.324
Mof_N 	N 	0.5046	0.3423	-0	-0.175
Mof_C 	C 	0.62895	0.2579	-0	-0.109
Mof_C 	C 	0.7421	0.37105	-0	-0.063
Mof_C 	C 	0.62895	0.37105	-0	-0.096
Mof_C 	C 	0.37105	0.7421	-0	-0.063
Mof_C 	C 	0.2579	0.62895	-0	-0.109
Mof_C 	C 	0.37105	0.62895	-0	-0.096
Mof_C 	C 	0.7857	0.2143	-0	0.03
Mof_H 	H 	0.8312	0.1688	-0	0.103
Mof_C 	C 	0.7503	0.2497	-0	0.438
Mof_C 	C 	0.7857	0.5714	-0	0.046
Mof_H 	H 	0.8312	0.6624	-0	0.115
Mof_C 	C 	0.7503	0.5006	-0	0.415
Mof_C 	C 	0.4286	0.2143	-0	0.009
Mof_H 	H 	0.3376	0.1688	-0	0.087
Mof_C 	C 	0.4994	0.2497	-0	0.473
Mof_C 	C 	0.2143	0.7857	-0	0.03
Mof_H 	H 	0.1688	0.8312	-0	0.103
Mof_C 	C 	0.2497	0.7503	-0	0.438
Mof_C 	C 	0.2143	0.4286	-0	0.009
Mof_H 	H 	0.1688	0.3376	-0	0.087
Mof_C 	C 	0.2497	0.4994	-0	0.473
Mof_C 	C 	0.5714	0.7857	-0	0.046
Mof_H 	H 	0.6624	0.8312	-0	0.115
Mof_C 	C 	0.5006	0.7503	-0	0.415
Mof_N 	N 	0.5	-6.92286e-33	0.695	-0.18
Mof_N 	N 	1.28061e-17	0.5	0.695	-0.18
Mof_N 	N 	0.5	0.5	0.695	-0.168
Mof_N 	N 	-2.17447e-17	0.5	0.305	-0.204
Mof_N 	N 	0.5	-6.92286e-33	0.305	-0.204
Mof_N 	N 	0.5	0.5	0.305	-0.191
Mof_C 	C 	0.5922	0	0.5987	0.008
Mof_H 	H 	0.6602	-6.92286e-33	0.6644	0.038
Mof_C 	C 	1.96717e-17	0.5922	0.5987	0.008
Mof_H 	H 	1.49877e-17	0.6602	0.6644	0.038
Mof_C 	C 	0.4078	0.4078	0.5987	0.018
Mof_H 	H 	0.3398	0.3398	0.6644	0.04
Mof_C 	C 	0.4078	0	0.5987	0.006
Mof_H 	H 	0.3398	-6.92286e-33	0.6644	0.027
Mof_C 	C 	1.96717e-17	0.4078	0.5987	0.006
Mof_H 	H 	-1.61901e-17	0.3398	0.6644	0.027
Mof_C 	C 	0.5922	0.5922	0.5987	0.022
Mof_H 	H 	0.6602	0.6602	0.6644	0.063
Mof_C 	C 	-9.0966e-17	0.5922	0.4013	0.011
Mof_H 	H 	-2.39263e-17	0.6602	0.3356	0.019
Mof_C 	C 	0.5922	0	0.4013	0.011
Mof_H 	H 	0.6602	0	0.3356	0.019
Mof_C 	C 	0.4078	0.4078	0.4013	0.021
Mof_H 	H 	0.3398	0.3398	0.3356	0.021
Mof_C 	C 	-5.97882e-17	0.4078	0.4013	0.009
Mof_H 	H 	-2.39263e-17	0.3398	0.3356	0.008
Mof_C 	C 	0.4078	0	0.4013	0.009
Mof_H 	H 	0.3398	0	0.3356	0.008
Mof_C 	C 	0.5922	0.5922	0.4013	0.024
Mof_H 	H 	0.6602	0.6602	0.3356	0.045
_end
