data_functionalizedCrystal
_audit_creation_method	'EQeq! by Chris Wilmer'
_symmetry_space_group_name_H-M	'P1'
_symmetry_Int_Tables_number	1
_symmetry_cell_setting	triclinic
loop_
_symmetry_equiv_pos_as_xyz
  x,y,z
_cell_length_a	7.1209
_cell_length_b	18.3023
_cell_length_c	24.9833
_cell_angle_alpha	90
_cell_angle_beta	90
_cell_angle_gamma	99.606
loop_
_atom_site_label
_atom_site_type_symbol
_atom_site_fract_x
_atom_site_fract_y
_atom_site_fract_z
_atom_site_charge
Mof_La	La	0.27768	0.48356	0.40106	2.067
Mof_La	La	0.72232	0.51644	0.90106	2.072
Mof_La	La	0.72232	0.51644	0.59894	2.075
Mof_La	La	0.27768	0.48356	0.09894	2.07
Mof_Cu	Cu	0.878	0.04412	0.50758	0.788
Mof_Cu	Cu	0.3265	0.06086	0.58008	0.806
Mof_Cu	Cu	0.2479	0.94631	0.68298	0.761
Mof_Cu	Cu	0.122	0.95588	0.00758	0.759
Mof_Cu	Cu	0.6735	0.93914	0.08008	0.782
Mof_Cu	Cu	0.7521	0.05369	0.18298	0.786
Mof_Cu	Cu	0.122	0.95588	0.49242	0.758
Mof_Cu	Cu	0.6735	0.93914	0.41992	0.783
Mof_Cu	Cu	0.7521	0.05369	0.31702	0.785
Mof_Cu	Cu	0.878	0.04412	0.99242	0.781
Mof_Cu	Cu	0.3265	0.06086	0.91992	0.802
Mof_Cu	Cu	0.2479	0.94631	0.81702	0.761
Mof_Cu	Cu	0.2682	0.06531	0.75	0.766
Mof_Cu	Cu	0.7318	0.93469	0.25	0.749
Mof_H 	H 	0.8832	0.4363	0.4594	0.446
Mof_H 	H 	0.884	0.4418	0.3975	0.365
Mof_H 	H 	0.0876	0.8583	0.3957	-0.012
Mof_H 	H 	0.1106	0.7392	0.3727	0.071
Mof_H 	H 	0.1977	0.6965	0.5271	0.06
Mof_H 	H 	0.1718	0.8178	0.5456	-0.011
Mof_H 	H 	0.3083	0.1608	0.4858	-0.004
Mof_H 	H 	0.3008	0.2803	0.4657	0.036
Mof_H 	H 	0.399	0.331	0.6206	0.014
Mof_H 	H 	0.3926	0.2064	0.6363	0.007
Mof_H 	H 	0.602	0.8937	0.6552	0.015
Mof_H 	H 	0.7221	0.7892	0.6381	0.066
Mof_H 	H 	0.2025	0.6745	0.6588	0.034
Mof_H 	H 	0.0948	0.7828	0.6739	-0.003
Mof_H 	H 	0.1168	0.5637	0.9594	0.442
Mof_H 	H 	0.116	0.5582	0.8975	0.363
Mof_H 	H 	0.9124	0.1417	0.8957	-0.005
Mof_H 	H 	0.8894	0.2608	0.8727	0.078
Mof_H 	H 	0.8023	0.3035	0.0271	0.09
Mof_H 	H 	0.8282	0.1822	0.0456	-0.024
Mof_H 	H 	0.6917	0.8392	0.9858	-0.016
Mof_H 	H 	0.6992	0.7197	0.9657	0.026
Mof_H 	H 	0.601	0.669	0.1206	0.013
Mof_H 	H 	0.6074	0.7936	0.1363	0.008
Mof_H 	H 	0.398	0.1063	0.1552	0.029
Mof_H 	H 	0.2779	0.2108	0.1381	0.063
Mof_H 	H 	0.7975	0.3255	0.1588	0.034
Mof_H 	H 	0.9052	0.2172	0.1739	-0
Mof_H 	H 	0.1168	0.5637	0.5406	0.446
Mof_H 	H 	0.116	0.5582	0.6025	0.364
Mof_H 	H 	0.9124	0.1417	0.6043	0
Mof_H 	H 	0.8894	0.2608	0.6273	0.071
Mof_H 	H 	0.8023	0.3035	0.4729	0.061
Mof_H 	H 	0.8282	0.1822	0.4544	-0.007
Mof_H 	H 	0.6917	0.8392	0.5142	-0.009
Mof_H 	H 	0.6992	0.7197	0.5343	0.037
Mof_H 	H 	0.601	0.669	0.3794	0.015
Mof_H 	H 	0.6074	0.7936	0.3637	0.007
Mof_H 	H 	0.398	0.1063	0.3448	0.029
Mof_H 	H 	0.2779	0.2108	0.3619	0.063
Mof_H 	H 	0.7975	0.3255	0.3412	0.034
Mof_H 	H 	0.9052	0.2172	0.3261	-0
Mof_H 	H 	0.8832	0.4363	0.0406	0.449
Mof_H 	H 	0.884	0.4418	0.1025	0.365
Mof_H 	H 	0.0876	0.8583	0.1043	-0.009
Mof_H 	H 	0.1106	0.7392	0.1273	0.066
Mof_H 	H 	0.1977	0.6965	0.9729	0.037
Mof_H 	H 	0.1718	0.8178	0.9544	0.002
Mof_H 	H 	0.3083	0.1608	0.0142	0.007
Mof_H 	H 	0.3008	0.2803	0.0343	0.049
Mof_H 	H 	0.399	0.331	0.8794	0.016
Mof_H 	H 	0.3926	0.2064	0.8637	0.005
Mof_H 	H 	0.602	0.8937	0.8448	0.015
Mof_H 	H 	0.7221	0.7892	0.8619	0.066
Mof_H 	H 	0.2025	0.6745	0.8412	0.034
Mof_H 	H 	0.0948	0.7828	0.8261	-0.003
Mof_H 	H 	0.3814	0.2303	0.75	0.004
Mof_H 	H 	0.245	0.3367	0.75	0.06
Mof_H 	H 	0.7307	0.2079	0.75	0.072
Mof_H 	H 	0.8847	0.1076	0.75	0.024
Mof_H 	H 	0.6186	0.7697	0.25	0.007
Mof_H 	H 	0.755	0.6633	0.25	0.056
Mof_H 	H 	0.2693	0.7921	0.25	0.069
Mof_H 	H 	0.1153	0.8924	0.25	0.014
Mof_C 	C 	0.1098	0.8255	0.4225	0.035
Mof_C 	C 	0.1228	0.7538	0.4084	-0.071
Mof_C 	C 	0.1541	0.7035	0.4474	-0.027
Mof_C 	C 	0.1744	0.7282	0.4997	-0.07
Mof_C 	C 	0.1592	0.8015	0.5103	0.039
Mof_C 	C 	0.1711	0.6248	0.4334	0.311
Mof_C 	C 	0.3238	0.1953	0.5135	-0.001
Mof_C 	C 	0.3219	0.2671	0.5008	-0.002
Mof_C 	C 	0.3514	0.3209	0.5404	-0.127
Mof_C 	C 	0.3786	0.2972	0.5925	-0
Mof_C 	C 	0.3746	0.2218	0.6015	0.007
Mof_C 	C 	0.3546	0.4016	0.5286	0.466
Mof_C 	C 	0.5197	0.8485	0.6559	0.018
Mof_C 	C 	0.5937	0.7859	0.6464	-0.059
Mof_C 	C 	0.4789	0.7178	0.6492	-0.041
Mof_C 	C 	0.288	0.7188	0.6584	-0.063
Mof_C 	C 	0.224	0.7843	0.6671	0.034
Mof_C 	C 	0.5533	0.647	0.6378	0.291
Mof_C 	C 	0.8902	0.1745	0.9225	0.047
Mof_C 	C 	0.8772	0.2462	0.9084	-0.089
Mof_C 	C 	0.8459	0.2965	0.9474	0.001
Mof_C 	C 	0.8256	0.2718	0.9997	-0.133
Mof_C 	C 	0.8408	0.1985	0.0103	0.094
Mof_C 	C 	0.8289	0.3752	0.9334	0.302
Mof_C 	C 	0.6762	0.8047	0.0135	0.005
Mof_C 	C 	0.6781	0.7329	0.0008	0.014
Mof_C 	C 	0.6486	0.6791	0.0404	-0.134
Mof_C 	C 	0.6214	0.7028	0.0925	0.005
Mof_C 	C 	0.6254	0.7782	0.1015	0.004
Mof_C 	C 	0.6454	0.5984	0.0286	0.48
Mof_C 	C 	0.4803	0.1515	0.1559	0.017
Mof_C 	C 	0.4063	0.2141	0.1464	-0.054
Mof_C 	C 	0.5211	0.2822	0.1492	-0.044
Mof_C 	C 	0.712	0.2812	0.1584	-0.06
Mof_C 	C 	0.776	0.2157	0.1671	0.034
Mof_C 	C 	0.4467	0.353	0.1378	0.292
Mof_C 	C 	0.8902	0.1745	0.5775	0.035
Mof_C 	C 	0.8772	0.2462	0.5916	-0.068
Mof_C 	C 	0.8459	0.2965	0.5526	-0.027
Mof_C 	C 	0.8256	0.2718	0.5003	-0.068
Mof_C 	C 	0.8408	0.1985	0.4897	0.04
Mof_C 	C 	0.8289	0.3752	0.5666	0.312
Mof_C 	C 	0.6762	0.8047	0.4865	-0
Mof_C 	C 	0.6781	0.7329	0.4992	-0.003
Mof_C 	C 	0.6486	0.6791	0.4596	-0.126
Mof_C 	C 	0.6214	0.7028	0.4075	0
Mof_C 	C 	0.6254	0.7782	0.3985	0.007
Mof_C 	C 	0.6454	0.5984	0.4714	0.466
Mof_C 	C 	0.4803	0.1515	0.3441	0.016
Mof_C 	C 	0.4063	0.2141	0.3536	-0.054
Mof_C 	C 	0.5211	0.2822	0.3508	-0.044
Mof_C 	C 	0.712	0.2812	0.3416	-0.06
Mof_C 	C 	0.776	0.2157	0.3329	0.033
Mof_C 	C 	0.4467	0.353	0.3622	0.292
Mof_C 	C 	0.1098	0.8255	0.0775	0.025
Mof_C 	C 	0.1228	0.7538	0.0916	-0.056
Mof_C 	C 	0.1541	0.7035	0.0526	-0.048
Mof_C 	C 	0.1744	0.7282	0.0003	-0.02
Mof_C 	C 	0.1592	0.8015	0.9897	-0.002
Mof_C 	C 	0.1711	0.6248	0.0666	0.319
Mof_C 	C 	0.3238	0.1953	0.9865	-0.013
Mof_C 	C 	0.3219	0.2671	0.9992	-0.023
Mof_C 	C 	0.3514	0.3209	0.9596	-0.117
Mof_C 	C 	0.3786	0.2972	0.9075	-0.006
Mof_C 	C 	0.3746	0.2218	0.8985	0.01
Mof_C 	C 	0.3546	0.4016	0.9714	0.449
Mof_C 	C 	0.5197	0.8485	0.8441	0.017
Mof_C 	C 	0.5937	0.7859	0.8536	-0.059
Mof_C 	C 	0.4789	0.7178	0.8508	-0.042
Mof_C 	C 	0.288	0.7188	0.8416	-0.063
Mof_C 	C 	0.224	0.7843	0.8329	0.033
Mof_C 	C 	0.5533	0.647	0.8622	0.291
Mof_C 	C 	0.249	0.2258	0.75	0.039
Mof_C 	C 	0.167	0.2904	0.75	-0.089
Mof_C 	C 	0.97	0.2854	0.75	-0.01
Mof_C 	C 	0.863	0.2147	0.75	-0.078
Mof_C 	C 	0.958	0.1546	0.75	0.044
Mof_C 	C 	0.87	0.354	0.75	0.295
Mof_C 	C 	0.751	0.7742	0.25	0.032
Mof_C 	C 	0.833	0.7096	0.25	-0.07
Mof_C 	C 	0.03	0.7146	0.25	-0.026
Mof_C 	C 	0.137	0.7853	0.25	-0.068
Mof_C 	C 	0.042	0.8454	0.25	0.029
Mof_C 	C 	0.13	0.646	0.25	0.3
Mof_I 	I 	0.99062	0.9705	0.58917	-0.758
Mof_I 	I 	0.517	0.05685	0.67021	-0.595
Mof_I 	I 	0.00938	0.0295	0.08917	-0.677
Mof_I 	I 	0.483	0.94315	0.17021	-0.668
Mof_I 	I 	0.00938	0.0295	0.41083	-0.683
Mof_I 	I 	0.483	0.94315	0.32979	-0.667
Mof_I 	I 	0.99062	0.9705	0.91083	-0.76
Mof_I 	I 	0.517	0.05685	0.82979	-0.597
Mof_I 	I 	0.97438	0.94137	0.75	-0.611
Mof_I 	I 	0.02562	0.05863	0.25	-0.562
Mof_I 	I 	0.5	0	0.5	-0.707
Mof_I 	I 	0.5	0	-0	-0.692
Mof_N 	N 	0.1277	0.8499	0.4728	-0.242
Mof_N 	N 	0.3466	0.1702	0.5633	-0.224
Mof_N 	N 	0.3356	0.849	0.6663	-0.239
Mof_N 	N 	0.8723	0.1501	0.9728	-0.252
Mof_N 	N 	0.6534	0.8298	0.0633	-0.227
Mof_N 	N 	0.6644	0.151	0.1663	-0.232
Mof_N 	N 	0.8723	0.1501	0.5272	-0.235
Mof_N 	N 	0.6534	0.8298	0.4367	-0.227
Mof_N 	N 	0.6644	0.151	0.3337	-0.233
Mof_N 	N 	0.1277	0.8499	0.0272	-0.23
Mof_N 	N 	0.3466	0.1702	0.9367	-0.224
Mof_N 	N 	0.3356	0.849	0.8337	-0.239
Mof_N 	N 	0.1456	0.1588	0.75	-0.241
Mof_N 	N 	0.8544	0.8412	0.25	-0.238
Mof_O 	O 	0.1648	0.6074	0.3848	-0.444
Mof_O 	O 	0.2	0.5808	0.47	-0.439
Mof_O 	O 	0.2906	0.4166	0.4834	-0.507
Mof_O 	O 	0.4187	0.4488	0.5642	-0.512
Mof_O 	O 	0.7324	0.651	0.6361	-0.426
Mof_O 	O 	0.4393	0.5875	0.6307	-0.428
Mof_O 	O 	0.9335	0.4413	0.4285	-0.937
Mof_O 	O 	0.8352	0.3926	0.8848	-0.441
Mof_O 	O 	0.8	0.4192	0.97	-0.44
Mof_O 	O 	0.7094	0.5834	0.9834	-0.516
Mof_O 	O 	0.5813	0.5512	0.0642	-0.513
Mof_O 	O 	0.2676	0.349	0.1361	-0.428
Mof_O 	O 	0.5607	0.4125	0.1307	-0.427
Mof_O 	O 	0.0665	0.5587	0.9285	-0.94
Mof_O 	O 	0.8352	0.3926	0.6152	-0.444
Mof_O 	O 	0.8	0.4192	0.53	-0.438
Mof_O 	O 	0.7094	0.5834	0.5166	-0.506
Mof_O 	O 	0.5813	0.5512	0.4358	-0.511
Mof_O 	O 	0.2676	0.349	0.3639	-0.428
Mof_O 	O 	0.5607	0.4125	0.3693	-0.427
Mof_O 	O 	0.0665	0.5587	0.5715	-0.941
Mof_O 	O 	0.1648	0.6074	0.1152	-0.446
Mof_O 	O 	0.2	0.5808	0.03	-0.437
Mof_O 	O 	0.2906	0.4166	0.0166	-0.496
Mof_O 	O 	0.4187	0.4488	0.9358	-0.509
Mof_O 	O 	0.7324	0.651	0.8639	-0.426
Mof_O 	O 	0.4393	0.5875	0.8693	-0.428
Mof_O 	O 	0.9335	0.4413	0.0715	-0.938
Mof_O 	O 	0.9759	0.4156	0.75	-0.303
Mof_O 	O 	0.6929	0.3422	0.75	-0.286
Mof_O 	O 	0.0241	0.5844	0.25	-0.308
Mof_O 	O 	0.3071	0.6578	0.25	-0.287
_end
