data_functionalizedCrystal
_audit_creation_method	'EQeq! by Chris Wilmer'
_symmetry_space_group_name_H-M	'P1'
_symmetry_Int_Tables_number	1
_symmetry_cell_setting	triclinic
loop_
_symmetry_equiv_pos_as_xyz
  x,y,z
_cell_length_a	14.648
_cell_length_b	12.4006
_cell_length_c	16.6062
_cell_angle_alpha	90
_cell_angle_beta	90
_cell_angle_gamma	90
loop_
_atom_site_label
_atom_site_type_symbol
_atom_site_fract_x
_atom_site_fract_y
_atom_site_fract_z
_atom_site_charge
Mof_Mn	Mn	0.6052	0.48195	0.57808	0.948
Mof_O 	O 	0.7098	0.4803	0.4834	-0.338
Mof_O 	O 	0.7001	0.6299	0.5508	-0.299
Mof_O 	O 	0.5952	0.3443	0.6655	-0.307
Mof_O 	O 	0.499	0.5802	0.6262	-0.349
Mof_C 	C 	0.3491	0.7817	0.5405	0.048
Mof_H 	H 	0.3458	0.7561	0.4879	0.044
Mof_O 	O 	0.5232	0.3805	0.5025	-0.375
Mof_C 	C 	0.7329	0.5753	0.4949	0.325
Mof_C 	C 	0.695	0.4109	0.8593	0.033
Mof_H 	H 	0.7256	0.4737	0.845	0.06
Mof_C 	C 	0.6372	0.3995	0.7173	0.312
Mof_C 	C 	0.7023	0.3716	0.9373	-0.087
Mof_C 	C 	0.4633	0.6362	0.571	0.362
Mof_O 	O 	0.6742	0.486	0.7007	-0.306
Mof_C 	C 	0.5929	0.2674	0.8252	0.041
Mof_H 	H 	0.5579	0.2316	0.7869	0.06
Mof_C 	C 	0.4054	0.7296	0.5961	-0.098
Mof_C 	C 	0.6427	0.3577	0.803	-0.075
Mof_Mn	Mn	0.8948	0.51805	0.07808	0.947
Mof_O 	O 	0.7902	0.5197	0.9834	-0.339
Mof_O 	O 	0.7999	0.3701	0.0508	-0.3
Mof_O 	O 	0.9048	0.6557	0.1655	-0.307
Mof_O 	O 	0.001	0.4198	0.1262	-0.348
Mof_C 	C 	0.1509	0.2183	0.0405	0.036
Mof_H 	H 	0.1542	0.2439	0.9879	0.05
Mof_O 	O 	0.9768	0.6195	0.0025	-0.373
Mof_C 	C 	0.7671	0.4247	0.9949	0.328
Mof_C 	C 	0.805	0.5891	0.3593	0.03
Mof_H 	H 	0.7744	0.5263	0.345	0.061
Mof_C 	C 	0.8628	0.6005	0.2173	0.311
Mof_C 	C 	0.7977	0.6284	0.4373	-0.083
Mof_C 	C 	0.0367	0.3638	0.071	0.358
Mof_O 	O 	0.8258	0.514	0.2007	-0.306
Mof_C 	C 	0.9071	0.7326	0.3252	0.038
Mof_H 	H 	0.9421	0.7684	0.2869	0.061
Mof_C 	C 	0.0946	0.2704	0.0961	-0.093
Mof_C 	C 	0.8573	0.6423	0.303	-0.073
Mof_Mn	Mn	0.3948	0.98195	0.92192	0.942
Mof_O 	O 	0.2902	0.9803	0.0166	-0.328
Mof_O 	O 	0.2999	0.1299	0.9492	-0.291
Mof_O 	O 	0.4048	0.8443	0.8345	-0.307
Mof_O 	O 	0.501	0.0802	0.8738	-0.347
Mof_C 	C 	0.6509	0.2817	0.9595	0.057
Mof_H 	H 	0.6542	0.2561	0.0121	0.039
Mof_O 	O 	0.4768	0.8805	0.9975	-0.379
Mof_C 	C 	0.2671	0.0753	0.0051	0.31
Mof_C 	C 	0.305	0.9109	0.6407	0.03
Mof_H 	H 	0.2744	0.9737	0.655	0.061
Mof_C 	C 	0.3628	0.8995	0.7827	0.311
Mof_C 	C 	0.2977	0.8716	0.5627	-0.083
Mof_C 	C 	0.5367	0.1362	0.929	0.368
Mof_O 	O 	0.3258	0.986	0.7993	-0.306
Mof_C 	C 	0.4071	0.7674	0.6748	0.038
Mof_H 	H 	0.4421	0.7316	0.7131	0.06
Mof_C 	C 	0.5946	0.2296	0.9039	-0.103
Mof_C 	C 	0.3573	0.8577	0.697	-0.073
Mof_Mn	Mn	0.1052	0.01805	0.42192	0.947
Mof_O 	O 	0.2098	0.0197	0.5166	-0.337
Mof_O 	O 	0.2001	0.8701	0.4492	-0.298
Mof_O 	O 	0.0952	0.1557	0.3345	-0.307
Mof_O 	O 	0.999	0.9198	0.3738	-0.348
Mof_C 	C 	0.8491	0.7183	0.4595	0.048
Mof_H 	H 	0.8458	0.7439	0.5121	0.044
Mof_O 	O 	0.0232	0.1195	0.4975	-0.375
Mof_C 	C 	0.2329	0.9247	0.5051	0.325
Mof_C 	C 	0.195	0.0891	0.1407	0.024
Mof_H 	H 	0.2256	0.0263	0.155	0.062
Mof_C 	C 	0.1372	0.1005	0.2827	0.31
Mof_C 	C 	0.2023	0.1284	0.0627	-0.075
Mof_C 	C 	0.9633	0.8638	0.429	0.362
Mof_O 	O 	0.1742	0.014	0.2993	-0.306
Mof_C 	C 	0.0929	0.2326	0.1748	0.033
Mof_H 	H 	0.0579	0.2684	0.2131	0.062
Mof_C 	C 	0.9054	0.7704	0.4039	-0.098
Mof_C 	C 	0.1427	0.1423	0.197	-0.069
Mof_Mn	Mn	0.3948	0.51805	0.42192	0.948
Mof_O 	O 	0.2902	0.5197	0.5166	-0.338
Mof_O 	O 	0.2999	0.3701	0.4492	-0.299
Mof_O 	O 	0.4048	0.6557	0.3345	-0.307
Mof_O 	O 	0.501	0.4198	0.3738	-0.349
Mof_C 	C 	0.6509	0.2183	0.4595	0.048
Mof_H 	H 	0.6542	0.2439	0.5121	0.044
Mof_O 	O 	0.4768	0.6195	0.4975	-0.375
Mof_C 	C 	0.2671	0.4247	0.5051	0.325
Mof_C 	C 	0.305	0.5891	0.1407	0.033
Mof_H 	H 	0.2744	0.5263	0.155	0.06
Mof_C 	C 	0.3628	0.6005	0.2827	0.312
Mof_C 	C 	0.2977	0.6284	0.0627	-0.087
Mof_C 	C 	0.5367	0.3638	0.429	0.362
Mof_O 	O 	0.3258	0.514	0.2993	-0.306
Mof_C 	C 	0.4071	0.7326	0.1748	0.041
Mof_H 	H 	0.4421	0.7684	0.2131	0.06
Mof_C 	C 	0.5946	0.2704	0.4039	-0.098
Mof_C 	C 	0.3573	0.6423	0.197	-0.075
Mof_Mn	Mn	0.1052	0.48195	0.92192	0.947
Mof_O 	O 	0.2098	0.4803	0.0166	-0.339
Mof_O 	O 	0.2001	0.6299	0.9492	-0.3
Mof_O 	O 	0.0952	0.3443	0.8345	-0.307
Mof_O 	O 	0.999	0.5802	0.8738	-0.348
Mof_C 	C 	0.8491	0.7817	0.9595	0.036
Mof_H 	H 	0.8458	0.7561	0.0121	0.05
Mof_O 	O 	0.0232	0.3805	0.9975	-0.373
Mof_C 	C 	0.2329	0.5753	0.0051	0.328
Mof_C 	C 	0.195	0.4109	0.6407	0.03
Mof_H 	H 	0.2256	0.4737	0.655	0.061
Mof_C 	C 	0.1372	0.3995	0.7827	0.311
Mof_C 	C 	0.2023	0.3716	0.5627	-0.083
Mof_C 	C 	0.9633	0.6362	0.929	0.358
Mof_O 	O 	0.1742	0.486	0.7993	-0.306
Mof_C 	C 	0.0929	0.2674	0.6748	0.038
Mof_H 	H 	0.0579	0.2316	0.7131	0.061
Mof_C 	C 	0.9054	0.7296	0.9039	-0.093
Mof_C 	C 	0.1427	0.3577	0.697	-0.073
Mof_Mn	Mn	0.6052	0.01805	0.07808	0.942
Mof_O 	O 	0.7098	0.0197	0.9834	-0.328
Mof_O 	O 	0.7001	0.8701	0.0508	-0.291
Mof_O 	O 	0.5952	0.1557	0.1655	-0.307
Mof_O 	O 	0.499	0.9198	0.1262	-0.347
Mof_C 	C 	0.3491	0.7183	0.0405	0.057
Mof_H 	H 	0.3458	0.7439	0.9879	0.039
Mof_O 	O 	0.5232	0.1195	0.0025	-0.379
Mof_C 	C 	0.7329	0.9247	0.9949	0.31
Mof_C 	C 	0.695	0.0891	0.3593	0.03
Mof_H 	H 	0.7256	0.0263	0.345	0.061
Mof_C 	C 	0.6372	0.1005	0.2173	0.311
Mof_C 	C 	0.7023	0.1284	0.4373	-0.083
Mof_C 	C 	0.4633	0.8638	0.071	0.368
Mof_O 	O 	0.6742	0.014	0.2007	-0.306
Mof_C 	C 	0.5929	0.2326	0.3252	0.038
Mof_H 	H 	0.5579	0.2684	0.2869	0.06
Mof_C 	C 	0.4054	0.7704	0.0961	-0.103
Mof_C 	C 	0.6427	0.1423	0.303	-0.073
Mof_Mn	Mn	0.8948	0.98195	0.57808	0.947
Mof_O 	O 	0.7902	0.9803	0.4834	-0.337
Mof_O 	O 	0.7999	0.1299	0.5508	-0.298
Mof_O 	O 	0.9048	0.8443	0.6655	-0.307
Mof_O 	O 	0.001	0.0802	0.6262	-0.348
Mof_C 	C 	0.1509	0.2817	0.5405	0.048
Mof_H 	H 	0.1542	0.2561	0.4879	0.044
Mof_O 	O 	0.9768	0.8805	0.5025	-0.375
Mof_C 	C 	0.7671	0.0753	0.4949	0.325
Mof_C 	C 	0.805	0.9109	0.8593	0.024
Mof_H 	H 	0.7744	0.9737	0.845	0.062
Mof_C 	C 	0.8628	0.8995	0.7173	0.31
Mof_C 	C 	0.7977	0.8716	0.9373	-0.075
Mof_C 	C 	0.0367	0.1362	0.571	0.362
Mof_O 	O 	0.8258	0.986	0.7007	-0.306
Mof_C 	C 	0.9071	0.7674	0.8252	0.033
Mof_H 	H 	0.9421	0.7316	0.7869	0.062
Mof_C 	C 	0.0946	0.2296	0.5961	-0.098
Mof_C 	C 	0.8573	0.8577	0.803	-0.069
_end
