data_functionalizedCrystal
_audit_creation_method	'EQeq! by Chris Wilmer'
_symmetry_space_group_name_H-M	'P1'
_symmetry_Int_Tables_number	1
_symmetry_cell_setting	triclinic
loop_
_symmetry_equiv_pos_as_xyz
  x,y,z
_cell_length_a	10.8336
_cell_length_b	18.2867
_cell_length_c	15.1258
_cell_angle_alpha	90
_cell_angle_beta	111.208
_cell_angle_gamma	90
loop_
_atom_site_label
_atom_site_type_symbol
_atom_site_fract_x
_atom_site_fract_y
_atom_site_fract_z
_atom_site_charge
Mof_Mn	Mn	0.1717	0.01142	0.16771	0.918
Mof_O 	O 	0.1651	0.02534	0.02401	-0.419
Mof_O 	O 	0.4819	0.01778	0.35589	-0.393
Mof_O 	O 	0.1804	0.00278	0.31144	-0.427
Mof_O 	O 	0.0108	0.04998	0.88258	-0.412
Mof_O 	O 	0.3549	0.07248	0.22139	-0.38
Mof_O 	O 	0.3016	0.95136	0.45013	-0.38
Mof_F 	F 	0.5435	0.20697	0.09785	-0.433
Mof_C 	C 	0.2079	0.95146	0.3713	0.533
Mof_N 	N 	0.7193	0.40126	0.32496	-0.124
Mof_N 	N 	0.9384	0.6204	0.34799	-0.076
Mof_C 	C 	0.1084	0.06669	0.9545	0.505
Mof_N 	N 	0.4203	0.384	0.00865	-0.138
Mof_C 	C 	0.45	0.07114	0.2989	0.459
Mof_C 	C 	0.5769	0.26917	0.3028	-0.12
Mof_C 	C 	0.0685	0.75718	0.3782	-0.36
Mof_C 	C 	0.1187	0.88607	0.3447	-0.442
Mof_H 	H 	0.0447	0.8874	0.289	0.253
Mof_C 	C 	0.0592	0.62851	0.4131	-0.213
Mof_H 	H 	0.1	0.5882	0.4493	0.148
Mof_C 	C 	0.943	0.74654	0.311	0.471
Mof_C 	C 	0.1419	0.82617	0.3981	0.365
Mof_H 	H 	0.2136	0.8284	0.4552	-0.045
Mof_F 	F 	0.8776	0.80109	0.2557	-0.469
Mof_C 	C 	0.3223	0.24136	0.0131	-0.15
Mof_C 	C 	0.24	0.29953	0.9683	0.043
Mof_H 	H 	0.1494	0.2919	0.939	0.045
Mof_C 	C 	0.4537	0.25947	0.0543	0.379
Mof_C 	C 	0.7769	0.33622	0.3309	0.031
Mof_H 	H 	0.8674	0.3351	0.3431	0.033
Mof_C 	C 	0.4977	0.20167	0.2851	0.215
Mof_H 	H 	0.4118	0.2044	0.2409	0.014
Mof_C 	C 	0.7107	0.27035	0.32	0.029
Mof_H 	H 	0.7565	0.2267	0.3243	0.054
Mof_C 	C 	0.5369	0.13794	0.3257	-0.318
Mof_H 	H 	0.6207	0.134	0.3724	0.177
Mof_C 	C 	0.8814	0.67927	0.2969	-0.206
Mof_H 	H 	0.7975	0.6747	0.2505	0.142
Mof_C 	C 	0.1269	0.69457	0.4293	0.492
Mof_C 	C 	0.1614	0.14205	0.9536	-0.289
Mof_H 	H 	0.1122	0.1736	0.9055	0.187
Mof_F 	F 	0.3893	0.341	0.2826	-0.424
Mof_C 	C 	0.5001	0.32927	0.0535	-0.136
Mof_H 	H 	0.5897	0.3387	0.0851	0.119
Mof_C 	C 	0.2725	0.16692	0.0158	0.171
Mof_H 	H 	0.3223	0.1358	0.0642	0.028
Mof_C 	C 	0.2922	0.36825	0.9673	0.035
Mof_H 	H 	0.2347	0.4056	0.9359	0.048
Mof_C 	C 	0.5902	0.40089	0.3092	-0.123
Mof_H 	H 	0.5465	0.4452	0.3055	0.132
Mof_C 	C 	0.5194	0.33694	0.2982	0.385
Mof_F 	F 	0.2513	0.695	0.4827	-0.473
Mof_Mn	Mn	0.8283	0.51142	0.33229	0.948
Mof_O 	O 	0.8349	0.52534	0.47599	-0.382
Mof_O 	O 	0.5181	0.51778	0.14411	-0.386
Mof_O 	O 	0.8196	0.50278	0.18856	-0.4
Mof_O 	O 	0.9892	0.54998	0.61742	-0.394
Mof_O 	O 	0.6451	0.57248	0.27861	-0.376
Mof_O 	O 	0.6984	0.45136	0.04987	-0.393
Mof_F 	F 	0.4565	0.70697	0.40215	-0.428
Mof_C 	C 	0.7921	0.45146	0.1287	0.493
Mof_N 	N 	0.2807	0.90126	0.17504	-0.115
Mof_N 	N 	0.0616	0.1204	0.15201	-0.075
Mof_C 	C 	0.8916	0.56669	0.5455	0.481
Mof_N 	N 	0.5797	0.884	0.49135	-0.116
Mof_C 	C 	0.55	0.57114	0.2011	0.458
Mof_C 	C 	0.4231	0.76917	0.1972	-0.123
Mof_C 	C 	0.9315	0.25718	0.1218	-0.364
Mof_C 	C 	0.8813	0.38607	0.1553	-0.433
Mof_H 	H 	0.9553	0.3874	0.211	0.244
Mof_C 	C 	0.9408	0.12851	0.0869	-0.218
Mof_H 	H 	0.9	0.0882	0.0507	0.134
Mof_C 	C 	0.057	0.24654	0.189	0.473
Mof_C 	C 	0.8581	0.32617	0.1019	0.357
Mof_H 	H 	0.7864	0.3284	0.0448	-0.049
Mof_F 	F 	0.1224	0.30109	0.2443	-0.47
Mof_C 	C 	0.6777	0.74136	0.4869	-0.132
Mof_C 	C 	0.76	0.79953	0.5317	0.02
Mof_H 	H 	0.8506	0.7919	0.561	0.047
Mof_C 	C 	0.5463	0.75947	0.4457	0.379
Mof_C 	C 	0.2231	0.83622	0.1691	0.026
Mof_H 	H 	0.1326	0.8351	0.1569	0.034
Mof_C 	C 	0.5023	0.70167	0.2149	0.211
Mof_H 	H 	0.5882	0.7044	0.2591	0.015
Mof_C 	C 	0.2893	0.77035	0.18	0.028
Mof_H 	H 	0.2435	0.7267	0.1757	0.053
Mof_C 	C 	0.4631	0.63794	0.1743	-0.316
Mof_H 	H 	0.3793	0.634	0.1276	0.171
Mof_C 	C 	0.1186	0.17927	0.2031	-0.208
Mof_H 	H 	0.2025	0.1747	0.2495	0.144
Mof_C 	C 	0.8731	0.19457	0.0707	0.487
Mof_C 	C 	0.8386	0.64205	0.5464	-0.327
Mof_H 	H 	0.8878	0.6736	0.5945	0.195
Mof_F 	F 	0.6107	0.841	0.2174	-0.422
Mof_C 	C 	0.4999	0.82927	0.4465	-0.129
Mof_H 	H 	0.4103	0.8387	0.4149	0.12
Mof_C 	C 	0.7275	0.66692	0.4842	0.211
Mof_H 	H 	0.6777	0.6358	0.4358	0.02
Mof_C 	C 	0.7078	0.86825	0.5327	0.014
Mof_H 	H 	0.7653	0.9056	0.5641	0.056
Mof_C 	C 	0.4098	0.90089	0.1908	-0.125
Mof_H 	H 	0.4535	0.9452	0.1945	0.143
Mof_C 	C 	0.4806	0.83694	0.2018	0.386
Mof_F 	F 	0.7487	0.195	0.0173	-0.482
Mof_Mn	Mn	0.8283	0.98858	0.83229	0.983
Mof_O 	O 	0.8349	0.97466	0.97599	-0.345
Mof_O 	O 	0.5181	0.98222	0.64411	-0.362
Mof_O 	O 	0.8196	0.99722	0.68856	-0.365
Mof_O 	O 	0.9892	0.95002	0.11742	-0.373
Mof_O 	O 	0.6451	0.92752	0.77861	-0.372
Mof_O 	O 	0.6984	0.04864	0.54987	-0.383
Mof_F 	F 	0.4565	0.79303	0.90215	-0.424
Mof_C 	C 	0.7921	0.04854	0.6287	0.447
Mof_N 	N 	0.2807	0.59874	0.67504	-0.124
Mof_N 	N 	0.0616	0.3796	0.65201	-0.074
Mof_C 	C 	0.8916	0.93331	0.0455	0.457
Mof_N 	N 	0.5797	0.616	0.99135	-0.104
Mof_C 	C 	0.55	0.92886	0.7011	0.46
Mof_C 	C 	0.4231	0.73083	0.6972	-0.117
Mof_C 	C 	0.9315	0.24282	0.6218	-0.358
Mof_C 	C 	0.8813	0.11393	0.6553	-0.411
Mof_H 	H 	0.9553	0.1126	0.711	0.232
Mof_C 	C 	0.9408	0.37149	0.5869	-0.217
Mof_H 	H 	0.9	0.4118	0.5507	0.149
Mof_C 	C 	0.057	0.25346	0.689	0.473
Mof_C 	C 	0.8581	0.17383	0.6019	0.343
Mof_H 	H 	0.7864	0.1716	0.5448	-0.039
Mof_F 	F 	0.1224	0.19891	0.7443	-0.468
Mof_C 	C 	0.6777	0.75864	0.9869	-0.113
Mof_C 	C 	0.76	0.70047	0.0317	-0.008
Mof_H 	H 	0.8506	0.7081	0.061	0.048
Mof_C 	C 	0.5463	0.74053	0.9457	0.379
Mof_C 	C 	0.2231	0.66378	0.6691	0.032
Mof_H 	H 	0.1326	0.6649	0.6569	0.034
Mof_C 	C 	0.5023	0.79833	0.7149	0.213
Mof_H 	H 	0.5882	0.7956	0.7591	0.016
Mof_C 	C 	0.2893	0.72965	0.68	0.027
Mof_H 	H 	0.2435	0.7733	0.6757	0.059
Mof_C 	C 	0.4631	0.86206	0.6743	-0.312
Mof_H 	H 	0.3793	0.866	0.6276	0.18
Mof_C 	C 	0.1186	0.32073	0.7031	-0.205
Mof_H 	H 	0.2025	0.3253	0.7495	0.144
Mof_C 	C 	0.8731	0.30543	0.5707	0.491
Mof_C 	C 	0.8386	0.85795	0.0464	-0.365
Mof_H 	H 	0.8878	0.8264	0.0945	0.204
Mof_F 	F 	0.6107	0.659	0.7174	-0.421
Mof_C 	C 	0.4999	0.67073	0.9465	-0.122
Mof_H 	H 	0.4103	0.6613	0.9149	0.118
Mof_C 	C 	0.7275	0.83308	0.9842	0.251
Mof_H 	H 	0.6777	0.8642	0.9358	0.012
Mof_C 	C 	0.7078	0.63175	0.0327	-0.007
Mof_H 	H 	0.7653	0.5944	0.0641	0.053
Mof_C 	C 	0.4098	0.59911	0.6908	-0.122
Mof_H 	H 	0.4535	0.5548	0.6945	0.133
Mof_C 	C 	0.4806	0.66306	0.7018	0.385
Mof_F 	F 	0.7487	0.305	0.5173	-0.472
Mof_Mn	Mn	0.1717	0.48858	0.66771	0.951
Mof_O 	O 	0.1651	0.47466	0.52401	-0.382
Mof_O 	O 	0.4819	0.48222	0.85589	-0.374
Mof_O 	O 	0.1804	0.49722	0.81144	-0.394
Mof_O 	O 	0.0108	0.45002	0.38258	-0.391
Mof_O 	O 	0.3549	0.42752	0.72139	-0.377
Mof_O 	O 	0.3016	0.54864	0.95013	-0.372
Mof_F 	F 	0.5435	0.29303	0.59785	-0.428
Mof_C 	C 	0.2079	0.54854	0.8713	0.489
Mof_N 	N 	0.7193	0.09874	0.82496	-0.133
Mof_N 	N 	0.9384	0.8796	0.84799	-0.076
Mof_C 	C 	0.1084	0.43331	0.4545	0.481
Mof_N 	N 	0.4203	0.116	0.50865	-0.125
Mof_C 	C 	0.45	0.42886	0.7989	0.461
Mof_C 	C 	0.5769	0.23083	0.8028	-0.115
Mof_C 	C 	0.0685	0.74282	0.8782	-0.351
Mof_C 	C 	0.1187	0.61393	0.8447	-0.42
Mof_H 	H 	0.0447	0.6126	0.789	0.243
Mof_C 	C 	0.0592	0.87149	0.9131	-0.21
Mof_H 	H 	0.1	0.9118	0.9493	0.164
Mof_C 	C 	0.943	0.75346	0.811	0.469
Mof_C 	C 	0.1419	0.67383	0.8981	0.351
Mof_H 	H 	0.2136	0.6716	0.9552	-0.035
Mof_F 	F 	0.8776	0.69891	0.7557	-0.467
Mof_C 	C 	0.3223	0.25864	0.5131	-0.131
Mof_C 	C 	0.24	0.20047	0.4683	0.017
Mof_H 	H 	0.1494	0.2081	0.439	0.046
Mof_C 	C 	0.4537	0.24053	0.5543	0.378
Mof_C 	C 	0.7769	0.16378	0.8309	0.036
Mof_H 	H 	0.8674	0.1649	0.8431	0.032
Mof_C 	C 	0.4977	0.29833	0.7851	0.216
Mof_H 	H 	0.4118	0.2956	0.7409	0.014
Mof_C 	C 	0.7107	0.22965	0.82	0.028
Mof_H 	H 	0.7565	0.2733	0.8243	0.059
Mof_C 	C 	0.5369	0.36206	0.8257	-0.314
Mof_H 	H 	0.6207	0.366	0.8724	0.185
Mof_C 	C 	0.8814	0.82073	0.7969	-0.202
Mof_H 	H 	0.7975	0.8253	0.7505	0.141
Mof_C 	C 	0.1269	0.80543	0.9293	0.495
Mof_C 	C 	0.1614	0.35795	0.4536	-0.327
Mof_H 	H 	0.1122	0.3264	0.4055	0.195
Mof_F 	F 	0.3893	0.159	0.7826	-0.422
Mof_C 	C 	0.5001	0.17073	0.5535	-0.13
Mof_H 	H 	0.5897	0.1613	0.5851	0.117
Mof_C 	C 	0.2725	0.33308	0.5158	0.211
Mof_H 	H 	0.3223	0.3642	0.5642	0.02
Mof_C 	C 	0.2922	0.13175	0.4673	0.014
Mof_H 	H 	0.2347	0.0944	0.4359	0.046
Mof_C 	C 	0.5902	0.09911	0.8092	-0.12
Mof_H 	H 	0.5465	0.0548	0.8055	0.122
Mof_C 	C 	0.5194	0.16306	0.7982	0.384
Mof_F 	F 	0.2513	0.805	0.9827	-0.462
Mof_Mn	Mn	0.5	0.5	-0	0.907
Mof_Mn	Mn	0.5	0	0.5	0.9
_end
