data_functionalizedCrystal
_audit_creation_method	'EQeq! by Chris Wilmer'
_symmetry_space_group_name_H-M	'P1'
_symmetry_Int_Tables_number	1
_symmetry_cell_setting	triclinic
loop_
_symmetry_equiv_pos_as_xyz
  x,y,z
_cell_length_a	14.833
_cell_length_b	8.4766
_cell_length_c	17.326
_cell_angle_alpha	90
_cell_angle_beta	108.46
_cell_angle_gamma	90
loop_
_atom_site_label
_atom_site_type_symbol
_atom_site_fract_x
_atom_site_fract_y
_atom_site_fract_z
_atom_site_charge
Mof_C 	C 	0.5086	0.1489	0.6777	-0.124
Mof_C 	C 	0.4908	0.4565	0.6899	-0.129
Mof_C 	C 	0.6349	0.4298	0.8162	-0.12
Mof_C 	C 	0.6352	0.1304	0.8111	-0.12
Mof_C 	C 	0.3603	0.2679	0.7211	-0.123
Mof_C 	C 	0.4501	0.4765	0.8285	-0.115
Mof_C 	C 	0.5584	0.2711	0.9144	-0.119
Mof_C 	C 	0.4595	0.0615	0.8167	-0.14
Mof_Mn	Mn	0.13801	0.29184	0.60882	0.645
Mof_Mo	Mo	0.51153	0.28088	0.78389	1.023
Mof_N 	N 	0.508	0.0746	0.6215	-0.149
Mof_N 	N 	0.4801	0.5586	0.6421	-0.076
Mof_N 	N 	0.7033	0.5059	0.8369	-0.063
Mof_N 	N 	0.6995	0.0489	0.8219	-0.064
Mof_N 	N 	0.2816	0.2619	0.6874	-0.155
Mof_N 	N 	0.416	0.5814	0.8502	-0.142
Mof_N 	N 	0.5834	0.2661	0.9839	-0.145
Mof_N 	N 	0.4342	0.9477	0.8359	-0.136
Mof_C 	C 	0.9914	0.6489	0.8223	-0.111
Mof_C 	C 	0.0092	0.9565	0.8101	-0.12
Mof_C 	C 	0.8651	0.9298	0.6838	-0.102
Mof_C 	C 	0.8648	0.6304	0.6889	-0.12
Mof_C 	C 	0.1397	0.7679	0.7789	-0.127
Mof_C 	C 	0.0499	0.9765	0.6715	-0.11
Mof_C 	C 	0.9416	0.7711	0.5856	-0.115
Mof_C 	C 	0.0405	0.5615	0.6833	-0.137
Mof_Mn	Mn	0.36199	0.79184	0.89118	0.683
Mof_Mo	Mo	0.98847	0.78088	0.71611	1.049
Mof_N 	N 	0.992	0.5746	0.8785	-0.128
Mof_N 	N 	0.0199	0.0586	0.8579	-0.092
Mof_N 	N 	0.7967	0.0059	0.6631	-0.085
Mof_N 	N 	0.8005	0.5489	0.6781	-0.062
Mof_N 	N 	0.2184	0.7619	0.8126	-0.151
Mof_N 	N 	0.084	0.0814	0.6498	-0.161
Mof_N 	N 	0.9166	0.7661	0.5161	-0.155
Mof_N 	N 	0.0658	0.4477	0.6641	-0.153
Mof_C 	C 	0.4914	0.8511	0.3223	-0.117
Mof_C 	C 	0.5092	0.5435	0.3101	-0.129
Mof_C 	C 	0.3651	0.5702	0.1838	-0.126
Mof_C 	C 	0.3648	0.8696	0.1889	-0.12
Mof_C 	C 	0.6397	0.7321	0.2789	-0.118
Mof_C 	C 	0.5499	0.5235	0.1715	-0.122
Mof_C 	C 	0.4416	0.7289	0.0856	-0.124
Mof_C 	C 	0.5405	0.9385	0.1833	-0.098
Mof_Mn	Mn	0.86199	0.70816	0.39118	0.666
Mof_Mo	Mo	0.48847	0.71912	0.21611	1.011
Mof_N 	N 	0.492	0.9254	0.3785	-0.14
Mof_N 	N 	0.5199	0.4414	0.3579	-0.081
Mof_N 	N 	0.2967	0.4941	0.1631	-0.076
Mof_N 	N 	0.3005	0.9511	0.1781	-0.064
Mof_N 	N 	0.7184	0.7381	0.3126	-0.154
Mof_N 	N 	0.584	0.4186	0.1498	-0.145
Mof_N 	N 	0.4166	0.7339	0.0161	-0.171
Mof_N 	N 	0.5658	0.0523	0.1641	-0.174
Mof_C 	C 	0.0086	0.3511	0.1777	-0.13
Mof_C 	C 	0.9908	0.0435	0.1899	-0.126
Mof_C 	C 	0.1349	0.0702	0.3162	-0.149
Mof_C 	C 	0.1352	0.3696	0.3111	-0.118
Mof_C 	C 	0.8603	0.2321	0.2211	-0.109
Mof_C 	C 	0.9501	0.0235	0.3285	-0.118
Mof_C 	C 	0.0584	0.2289	0.4144	-0.129
Mof_C 	C 	0.9595	0.4385	0.3167	-0.095
Mof_Mn	Mn	0.63801	0.20816	0.10882	0.629
Mof_Mo	Mo	0.01153	0.21912	0.28389	0.969
Mof_N 	N 	0.008	0.4254	0.1215	-0.151
Mof_N 	N 	0.9801	0.9414	0.1421	-0.064
Mof_N 	N 	0.2033	0.9941	0.3369	-0.053
Mof_N 	N 	0.1995	0.4511	0.3219	-0.068
Mof_N 	N 	0.7816	0.2381	0.1874	-0.158
Mof_N 	N 	0.916	0.9186	0.3502	-0.131
Mof_N 	N 	0.0834	0.2339	0.4839	-0.163
Mof_N 	N 	0.9342	0.5523	0.3359	-0.157
Mof_Mn	Mn	0.5	0	0.5	0.541
Mof_Mn	Mn	-0	0.5	-0	0.511
_end
