data_functionalizedCrystal
_audit_creation_method	'EQeq! by Chris Wilmer'
_symmetry_space_group_name_H-M	'P1'
_symmetry_Int_Tables_number	1
_symmetry_cell_setting	triclinic
loop_
_symmetry_equiv_pos_as_xyz
  x,y,z
_cell_length_a	10.3604
_cell_length_b	10.3604
_cell_length_c	14.5059
_cell_angle_alpha	90
_cell_angle_beta	90
_cell_angle_gamma	90
loop_
_atom_site_label
_atom_site_type_symbol
_atom_site_fract_x
_atom_site_fract_y
_atom_site_fract_z
_atom_site_charge
Mof_Gd	Gd	0.14567	0.14567	0.375	1.846
Mof_Gd	Gd	0.85433	0.85433	0.875	1.96
Mof_Gd	Gd	0.85433	0.14567	0.625	1.898
Mof_Gd	Gd	0.14567	0.85433	0.125	1.883
Mof_H 	H 	0.0698	0.5566	0.3717	-0.029
Mof_H 	H 	0.9302	0.4434	0.8717	-0.041
Mof_H 	H 	0.4434	0.0698	0.6217	-0.034
Mof_H 	H 	0.5566	0.9302	0.1217	-0.035
Mof_H 	H 	0.9302	0.5566	0.6283	-0.032
Mof_H 	H 	0.0698	0.4434	0.1283	-0.035
Mof_H 	H 	0.5566	0.0698	0.3783	-0.029
Mof_H 	H 	0.4434	0.9302	0.8783	-0.035
Mof_H 	H 	2.62482e-33	0.8904	0.5	-0.043
Mof_H 	H 	-1.01329e-33	0.1096	-0	-0.07
Mof_H 	H 	0.1096	-8.1063e-33	0.75	-0.068
Mof_H 	H 	0.8904	0	0.25	-0.043
Mof_C 	C 	0.0828	0.811	0.3394	0.523
Mof_C 	C 	0.0412	0.6022	0.423	0.206
Mof_C 	C 	0.0399	0.7375	0.422	-0.284
Mof_C 	C 	0.9172	0.189	0.8394	0.535
Mof_C 	C 	0.9588	0.3978	0.923	0.263
Mof_C 	C 	0.9601	0.2625	0.922	-0.269
Mof_C 	C 	0.189	0.0828	0.5894	0.532
Mof_C 	C 	0.3978	0.0412	0.673	0.218
Mof_C 	C 	0.2625	0.0399	0.672	-0.304
Mof_C 	C 	0.811	0.9172	0.0894	0.528
Mof_C 	C 	0.6022	0.9588	0.173	0.241
Mof_C 	C 	0.7375	0.9601	0.172	-0.256
Mof_C 	C 	0.9172	0.811	0.6606	0.528
Mof_C 	C 	0.9588	0.6022	0.577	0.238
Mof_C 	C 	0.9601	0.7375	0.578	-0.259
Mof_C 	C 	0.0828	0.189	0.1606	0.53
Mof_C 	C 	0.0412	0.3978	0.077	0.218
Mof_C 	C 	0.0399	0.2625	0.078	-0.304
Mof_C 	C 	0.811	0.0828	0.4106	0.523
Mof_C 	C 	0.6022	0.0412	0.327	0.206
Mof_C 	C 	0.7375	0.0399	0.328	-0.284
Mof_C 	C 	0.189	0.9172	0.9106	0.535
Mof_C 	C 	0.3978	0.9588	0.827	0.252
Mof_C 	C 	0.2625	0.9601	0.828	-0.274
Mof_C 	C 	-2.16941e-32	0.3893	0.5	0.514
Mof_C 	C 	-2.16941e-32	0.5371	0.5	-0.304
Mof_C 	C 	-1.35878e-32	0.8006	0.5	0.191
Mof_C 	C 	-8.1063e-33	0.6107	-0	0.505
Mof_C 	C 	-4.05315e-33	0.4629	-0	-0.332
Mof_C 	C 	-4.05315e-33	0.1994	-0	0.186
Mof_C 	C 	0.6107	-8.1063e-33	0.75	0.518
Mof_C 	C 	0.4629	-8.1063e-33	0.75	-0.319
Mof_C 	C 	0.1994	-8.1063e-33	0.75	0.201
Mof_C 	C 	0.3893	0	0.25	0.51
Mof_C 	C 	0.5371	0	0.25	-0.309
Mof_C 	C 	0.8006	0	0.25	0.186
Mof_O 	O 	0.0692	0.3355	0.4414	-0.527
Mof_O 	O 	0.0895	0.7525	0.2638	-0.512
Mof_O 	O 	0.1069	0.9276	0.3455	-0.516
Mof_O 	O 	0.9308	0.6645	0.9414	-0.501
Mof_O 	O 	0.9105	0.2475	0.7638	-0.51
Mof_O 	O 	0.8931	0.0724	0.8455	-0.551
Mof_O 	O 	0.6645	0.0692	0.6914	-0.535
Mof_O 	O 	0.2475	0.0895	0.5138	-0.516
Mof_O 	O 	0.0724	0.1069	0.5955	-0.559
Mof_O 	O 	0.3355	0.9308	0.1914	-0.501
Mof_O 	O 	0.7525	0.9105	0.0138	-0.513
Mof_O 	O 	0.9276	0.8931	0.0955	-0.506
Mof_O 	O 	0.9308	0.3355	0.5586	-0.503
Mof_O 	O 	0.9105	0.7525	0.7362	-0.508
Mof_O 	O 	0.8931	0.9276	0.6545	-0.507
Mof_O 	O 	0.0692	0.6645	0.0586	-0.535
Mof_O 	O 	0.0895	0.2475	0.2362	-0.516
Mof_O 	O 	0.1069	0.0724	0.1545	-0.561
Mof_O 	O 	0.3355	0.0692	0.3086	-0.527
Mof_O 	O 	0.7525	0.0895	0.4862	-0.513
Mof_O 	O 	0.9276	0.1069	0.4045	-0.518
Mof_O 	O 	0.6645	0.9308	0.8086	-0.508
Mof_O 	O 	0.2475	0.9105	0.9862	-0.497
Mof_O 	O 	0.0724	0.8931	0.9045	-0.542
_end
