data_functionalizedCrystal
_audit_creation_method	'EQeq! by Chris Wilmer'
_symmetry_space_group_name_H-M	'P1'
_symmetry_Int_Tables_number	1
_symmetry_cell_setting	triclinic
loop_
_symmetry_equiv_pos_as_xyz
  x,y,z
_cell_length_a	18.064
_cell_length_b	22.1137
_cell_length_c	22.1137
_cell_angle_alpha	80.397
_cell_angle_beta	65.8934
_cell_angle_gamma	65.8933
loop_
_atom_site_label
_atom_site_type_symbol
_atom_site_fract_x
_atom_site_fract_y
_atom_site_fract_z
_atom_site_charge
Mof_Cu	Cu	0.75996	0.99004	0.49004	0.852
Mof_Cu	Cu	0.74004	0.50996	0.00996	0.852
Mof_Cu	Cu	0.25	0.49004	0.50996	0.852
Mof_Cu	Cu	0.75	0.00996	0.99004	0.851
Mof_H 	H 	0.724	0.9223	0.6201	-0.021
Mof_H 	H 	0.716	0.9303	0.7249	0.075
Mof_H 	H 	0.7894	0.0853	0.6633	0.077
Mof_H 	H 	0.7867	0.0768	0.5622	-0.025
Mof_H 	H 	0.6376	0.9992	0.9284	-0.019
Mof_H 	H 	0.6403	0.9924	0.8258	0.075
Mof_H 	H 	0.8535	0.0396	0.7458	0.072
Mof_H 	H 	0.8483	0.0411	0.8519	-0.018
Mof_H 	H 	0.7664	0.5777	0.8799	-0.023
Mof_H 	H 	0.8712	0.5697	0.7751	0.074
Mof_H 	H 	0.038	0.4147	0.8367	0.076
Mof_H 	H 	0.9257	0.4232	0.9378	-0.026
Mof_H 	H 	0.0652	0.5008	0.5716	-0.023
Mof_H 	H 	0.9585	0.5076	0.6742	0.072
Mof_H 	H 	0.1389	0.4604	0.7542	0.071
Mof_H 	H 	0.2413	0.4589	0.6481	-0.019
Mof_H 	H 	0.7336	0.1201	0.4223	-0.023
Mof_H 	H 	0.6288	0.2249	0.4303	0.074
Mof_H 	H 	0.462	0.1633	0.5853	0.077
Mof_H 	H 	0.5743	0.0622	0.5768	-0.026
Mof_H 	H 	0.4348	0.4284	0.4992	-0.022
Mof_H 	H 	0.5415	0.3258	0.4924	0.072
Mof_H 	H 	0.3611	0.2458	0.5396	0.071
Mof_H 	H 	0.2587	0.3519	0.5411	-0.019
Mof_H 	H 	0.776	0.3799	0.0777	-0.023
Mof_H 	H 	0.784	0.2751	0.0697	0.074
Mof_H 	H 	0.7106	0.3367	0.9147	0.077
Mof_H 	H 	0.7133	0.4378	0.9232	-0.026
Mof_H 	H 	0.8624	0.0716	0.0008	-0.021
Mof_H 	H 	0.8597	0.1742	0.0076	0.073
Mof_H 	H 	0.6465	0.2542	0.9604	0.071
Mof_H 	H 	0.6517	0.1481	0.9589	-0.019
Mof_H 	H 	0.1559	0.6201	0.5777	-0.023
Mof_H 	H 	0.0591	0.7249	0.5697	0.074
Mof_H 	H 	0.0473	0.6633	0.4147	0.077
Mof_H 	H 	0.1511	0.5622	0.4232	-0.026
Mof_H 	H 	0.934	0.9284	0.5008	-0.022
Mof_H 	H 	0.0339	0.8258	0.5076	0.071
Mof_H 	H 	0.9007	0.7458	0.4604	0.071
Mof_H 	H 	0.7998	0.8519	0.4589	-0.019
Mof_H 	H 	0.8537	0.8799	0.9223	-0.022
Mof_H 	H 	0.8537	0.7751	0.9303	0.073
Mof_H 	H 	0.6253	0.8367	0.0853	0.076
Mof_H 	H 	0.6365	0.9378	0.0768	-0.025
Mof_H 	H 	0.8632	0.5716	0.9992	-0.022
Mof_H 	H 	0.8673	0.6742	0.9924	0.074
Mof_H 	H 	0.6069	0.7542	0.0396	0.071
Mof_H 	H 	0.6106	0.6481	0.0411	-0.019
Mof_H 	H 	0.6463	0.0777	0.1201	-0.022
Mof_H 	H 	0.6463	0.0697	0.2249	0.074
Mof_H 	H 	0.8747	0.9147	0.1633	0.076
Mof_H 	H 	0.8635	0.9232	0.0622	-0.026
Mof_H 	H 	0.6368	0.0008	0.4284	-0.022
Mof_H 	H 	0.6327	0.0076	0.3258	0.073
Mof_H 	H 	0.8931	0.9604	0.2458	0.071
Mof_H 	H 	0.8894	0.9589	0.3519	-0.019
Mof_H 	H 	0.3441	0.4223	0.3799	-0.023
Mof_H 	H 	0.4409	0.4303	0.2751	0.074
Mof_H 	H 	0.4527	0.5853	0.3367	0.077
Mof_H 	H 	0.3489	0.5768	0.4378	-0.026
Mof_H 	H 	0.566	0.4992	0.0716	-0.022
Mof_H 	H 	0.4661	0.4924	0.1742	0.072
Mof_H 	H 	0.5993	0.5396	0.2542	0.071
Mof_H 	H 	0.7002	0.5411	0.1481	-0.019
Mof_C 	C 	0.7356	0.9562	0.6296	0.077
Mof_C 	C 	0.7314	0.9604	0.6924	-0.141
Mof_C 	C 	0.7502	0.0103	0.7069	0.057
Mof_C 	C 	0.7737	0.0527	0.6563	-0.148
Mof_C 	C 	0.7736	0.04639	0.59521	0.085
Mof_C 	C 	0.6826	0.0057	0.8913	0.074
Mof_C 	C 	0.6831	0.0026	0.83	-0.142
Mof_C 	C 	0.7476	0.0144	0.774	0.052
Mof_C 	C 	0.8103	0.0301	0.7821	-0.137
Mof_C 	C 	0.8064	0.031	0.8462	0.071
Mof_C 	C 	0.8214	0.5438	0.8704	0.078
Mof_C 	C 	0.8842	0.5396	0.8076	-0.143
Mof_C 	C 	0.9674	0.4897	0.7931	0.059
Mof_C 	C 	0.9827	0.4473	0.8437	-0.149
Mof_C 	C 	0.9152	0.45361	0.90479	0.087
Mof_C 	C 	0.0796	0.4943	0.6087	0.077
Mof_C 	C 	0.0157	0.4974	0.67	-0.141
Mof_C 	C 	0.036	0.4856	0.726	0.051
Mof_C 	C 	0.1225	0.4699	0.7179	-0.136
Mof_C 	C 	0.1836	0.469	0.6538	0.07
Mof_C 	C 	0.6786	0.1296	0.4562	0.078
Mof_C 	C 	0.6158	0.1924	0.4604	-0.144
Mof_C 	C 	0.5326	0.2069	0.5103	0.059
Mof_C 	C 	0.5173	0.1563	0.5527	-0.149
Mof_C 	C 	0.5848	0.09521	0.54639	0.087
Mof_C 	C 	0.4204	0.3913	0.5057	0.077
Mof_C 	C 	0.4843	0.33	0.5026	-0.14
Mof_C 	C 	0.464	0.274	0.5144	0.051
Mof_C 	C 	0.3775	0.2821	0.5301	-0.136
Mof_C 	C 	0.3164	0.3462	0.531	0.07
Mof_C 	C 	0.7644	0.3704	0.0438	0.077
Mof_C 	C 	0.7686	0.3076	0.0396	-0.143
Mof_C 	C 	0.7498	0.2931	0.9897	0.058
Mof_C 	C 	0.7263	0.3437	0.9473	-0.149
Mof_C 	C 	0.7264	0.40479	0.95361	0.087
Mof_C 	C 	0.8174	0.1087	0.9943	0.075
Mof_C 	C 	0.8169	0.17	0.9974	-0.141
Mof_C 	C 	0.7524	0.226	0.9856	0.051
Mof_C 	C 	0.6897	0.2179	0.9699	-0.136
Mof_C 	C 	0.6936	0.1538	0.969	0.07
Mof_C 	C 	0.1348	0.6296	0.5438	0.078
Mof_C 	C 	0.0762	0.6924	0.5396	-0.143
Mof_C 	C 	0.0429	0.7069	0.4897	0.059
Mof_C 	C 	0.07	0.6563	0.4473	-0.149
Mof_C 	C 	0.13119	0.59521	0.45361	0.087
Mof_C 	C 	0.9261	0.8913	0.4943	0.076
Mof_C 	C 	0.9869	0.83	0.4974	-0.139
Mof_C 	C 	0.9784	0.774	0.4856	0.051
Mof_C 	C 	0.9076	0.7821	0.4699	-0.136
Mof_C 	C 	0.8474	0.8462	0.469	0.07
Mof_C 	C 	0.8082	0.8704	0.9562	0.076
Mof_C 	C 	0.8082	0.8076	0.9604	-0.139
Mof_C 	C 	0.7395	0.7931	0.0103	0.055
Mof_C 	C 	0.6736	0.8437	0.0527	-0.146
Mof_C 	C 	0.68001	0.90479	0.04639	0.083
Mof_C 	C 	0.8117	0.6087	0.0057	0.077
Mof_C 	C 	0.8143	0.67	0.0026	-0.143
Mof_C 	C 	0.738	0.726	0.0144	0.053
Mof_C 	C 	0.6596	0.7179	0.0301	-0.137
Mof_C 	C 	0.6626	0.6538	0.031	0.071
Mof_C 	C 	0.6918	0.0438	0.1296	0.077
Mof_C 	C 	0.6918	0.0396	0.1924	-0.141
Mof_C 	C 	0.7605	0.9897	0.2069	0.057
Mof_C 	C 	0.8264	0.9473	0.1563	-0.147
Mof_C 	C 	0.81999	0.95361	0.09521	0.085
Mof_C 	C 	0.6883	0.9943	0.3913	0.078
Mof_C 	C 	0.6857	0.9974	0.33	-0.142
Mof_C 	C 	0.762	0.9856	0.274	0.052
Mof_C 	C 	0.8404	0.9699	0.2821	-0.137
Mof_C 	C 	0.8374	0.969	0.3462	0.071
Mof_C 	C 	0.3652	0.4562	0.3704	0.078
Mof_C 	C 	0.4238	0.4604	0.3076	-0.144
Mof_C 	C 	0.4571	0.5103	0.2931	0.059
Mof_C 	C 	0.43	0.5527	0.3437	-0.149
Mof_C 	C 	0.36881	0.54639	0.40479	0.087
Mof_C 	C 	0.5739	0.5057	0.1087	0.077
Mof_C 	C 	0.5131	0.5026	0.17	-0.14
Mof_C 	C 	0.5216	0.5144	0.226	0.051
Mof_C 	C 	0.5924	0.5301	0.2179	-0.136
Mof_C 	C 	0.6526	0.531	0.1538	0.07
Mof_N 	N 	0.75596	0.99922	0.58126	-0.241
Mof_N 	N 	0.74481	0.01786	0.89992	-0.241
Mof_N 	N 	0.83644	0.50078	0.91874	-0.242
Mof_N 	N 	0.16259	0.48214	0.60008	-0.241
Mof_N 	N 	0.66356	0.08126	0.49922	-0.242
Mof_N 	N 	0.33741	0.39992	0.51786	-0.241
Mof_N 	N 	0.74404	0.41874	0.00078	-0.242
Mof_N 	N 	0.75519	0.10008	0.98214	-0.241
Mof_N 	N 	0.16278	0.58126	0.50078	-0.242
Mof_N 	N 	0.85527	0.89992	0.48214	-0.241
Mof_N 	N 	0.74482	0.91874	0.99922	-0.24
Mof_N 	N 	0.73733	0.60008	0.01786	-0.241
Mof_N 	N 	0.75518	0.00078	0.08126	-0.241
Mof_N 	N 	0.76267	0.98214	0.39992	-0.241
Mof_N 	N 	0.33722	0.49922	0.41874	-0.242
Mof_N 	N 	0.64473	0.51786	0.10008	-0.241
Mof_Cu	Cu	0.75	0.50996	0.49004	0.851
Mof_Cu	Cu	0.25	0.99004	0.00996	0.85
Mof_Cu	Cu	0.24004	0.00996	0.50996	0.851
Mof_Cu	Cu	0.25996	0.49004	0.99004	0.851
Mof_H 	H 	0.8441	0.3799	0.4223	-0.023
Mof_H 	H 	0.9409	0.2751	0.4303	0.074
Mof_H 	H 	0.9527	0.3367	0.5853	0.077
Mof_H 	H 	0.8489	0.4378	0.5768	-0.026
Mof_H 	H 	0.066	0.0716	0.4992	-0.022
Mof_H 	H 	0.9661	0.1742	0.4924	0.071
Mof_H 	H 	0.0993	0.2542	0.5396	0.071
Mof_H 	H 	0.2002	0.1481	0.5411	-0.019
Mof_H 	H 	0.1463	0.1201	0.0777	-0.022
Mof_H 	H 	0.1463	0.2249	0.0697	0.073
Mof_H 	H 	0.3747	0.1633	0.9147	0.076
Mof_H 	H 	0.3635	0.0622	0.9232	-0.025
Mof_H 	H 	0.1368	0.4284	0.0008	-0.022
Mof_H 	H 	0.1327	0.3258	0.0076	0.074
Mof_H 	H 	0.3931	0.2458	0.9604	0.071
Mof_H 	H 	0.3894	0.3519	0.9589	-0.019
Mof_H 	H 	0.3537	0.9223	0.8799	-0.022
Mof_H 	H 	0.3537	0.9303	0.7751	0.074
Mof_H 	H 	0.1253	0.0853	0.8367	0.076
Mof_H 	H 	0.1365	0.0768	0.9378	-0.026
Mof_H 	H 	0.3632	0.9992	0.5716	-0.022
Mof_H 	H 	0.3673	0.9924	0.6742	0.073
Mof_H 	H 	0.1069	0.0396	0.7542	0.071
Mof_H 	H 	0.1106	0.0411	0.6481	-0.019
Mof_H 	H 	0.6559	0.5777	0.6201	-0.023
Mof_H 	H 	0.5591	0.5697	0.7249	0.074
Mof_H 	H 	0.5473	0.4147	0.6633	0.077
Mof_H 	H 	0.6511	0.4232	0.5622	-0.026
Mof_H 	H 	0.434	0.5008	0.9284	-0.022
Mof_H 	H 	0.5339	0.5076	0.8258	0.072
Mof_H 	H 	0.4007	0.4604	0.7458	0.071
Mof_H 	H 	0.2998	0.4589	0.8519	-0.019
Mof_H 	H 	0.276	0.0777	0.3799	-0.022
Mof_H 	H 	0.284	0.0697	0.2751	0.074
Mof_H 	H 	0.2106	0.9147	0.3367	0.076
Mof_H 	H 	0.2133	0.9232	0.4378	-0.026
Mof_H 	H 	0.3624	0.0008	0.0716	-0.02
Mof_H 	H 	0.3597	0.0076	0.1742	0.074
Mof_H 	H 	0.1465	0.9604	0.2542	0.071
Mof_H 	H 	0.1517	0.9589	0.1481	-0.019
Mof_H 	H 	0.2336	0.4223	0.1201	-0.023
Mof_H 	H 	0.1288	0.4303	0.2249	0.074
Mof_H 	H 	0.962	0.5853	0.1633	0.076
Mof_H 	H 	0.0743	0.5768	0.0622	-0.026
Mof_H 	H 	0.9348	0.4992	0.4284	-0.023
Mof_H 	H 	0.0415	0.4924	0.3258	0.072
Mof_H 	H 	0.8611	0.5396	0.2458	0.071
Mof_H 	H 	0.7587	0.5411	0.3519	-0.019
Mof_H 	H 	0.2664	0.8799	0.5777	-0.023
Mof_H 	H 	0.3712	0.7751	0.5697	0.074
Mof_H 	H 	0.538	0.8367	0.4147	0.077
Mof_H 	H 	0.4257	0.9378	0.4232	-0.026
Mof_H 	H 	0.5652	0.5716	0.5008	-0.022
Mof_H 	H 	0.4585	0.6742	0.5076	0.072
Mof_H 	H 	0.6389	0.7542	0.4604	0.071
Mof_H 	H 	0.7413	0.6481	0.4589	-0.019
Mof_H 	H 	0.224	0.6201	0.9223	-0.023
Mof_H 	H 	0.216	0.7249	0.9303	0.074
Mof_H 	H 	0.2894	0.6633	0.0853	0.077
Mof_H 	H 	0.2867	0.5622	0.0768	-0.026
Mof_H 	H 	0.1376	0.9284	0.9992	-0.021
Mof_H 	H 	0.1403	0.8258	0.9924	0.073
Mof_H 	H 	0.3535	0.7458	0.0396	0.071
Mof_H 	H 	0.3483	0.8519	0.0411	-0.019
Mof_C 	C 	0.8652	0.3704	0.4562	0.078
Mof_C 	C 	0.9238	0.3076	0.4604	-0.143
Mof_C 	C 	0.9571	0.2931	0.5103	0.059
Mof_C 	C 	0.93	0.3437	0.5527	-0.149
Mof_C 	C 	0.86881	0.40479	0.54639	0.087
Mof_C 	C 	0.0739	0.1087	0.5057	0.076
Mof_C 	C 	0.0131	0.17	0.5026	-0.139
Mof_C 	C 	0.0216	0.226	0.5144	0.051
Mof_C 	C 	0.0924	0.2179	0.5301	-0.136
Mof_C 	C 	0.1526	0.1538	0.531	0.07
Mof_C 	C 	0.1918	0.1296	0.0438	0.076
Mof_C 	C 	0.1918	0.1924	0.0396	-0.139
Mof_C 	C 	0.2605	0.2069	0.9897	0.055
Mof_C 	C 	0.3264	0.1563	0.9473	-0.146
Mof_C 	C 	0.31999	0.09521	0.95361	0.083
Mof_C 	C 	0.1883	0.3913	0.9943	0.077
Mof_C 	C 	0.1857	0.33	0.9974	-0.143
Mof_C 	C 	0.262	0.274	0.9856	0.053
Mof_C 	C 	0.3404	0.2821	0.9699	-0.137
Mof_C 	C 	0.3374	0.3462	0.969	0.071
Mof_C 	C 	0.3082	0.9562	0.8704	0.077
Mof_C 	C 	0.3082	0.9604	0.8076	-0.141
Mof_C 	C 	0.2395	0.0103	0.7931	0.057
Mof_C 	C 	0.1736	0.0527	0.8437	-0.147
Mof_C 	C 	0.18001	0.04639	0.90479	0.085
Mof_C 	C 	0.3117	0.0057	0.6087	0.078
Mof_C 	C 	0.3143	0.0026	0.67	-0.142
Mof_C 	C 	0.238	0.0144	0.726	0.052
Mof_C 	C 	0.1596	0.0301	0.7179	-0.137
Mof_C 	C 	0.1626	0.031	0.6538	0.071
Mof_C 	C 	0.6348	0.5438	0.6296	0.078
Mof_C 	C 	0.5762	0.5396	0.6924	-0.144
Mof_C 	C 	0.5429	0.4897	0.7069	0.059
Mof_C 	C 	0.57	0.4473	0.6563	-0.149
Mof_C 	C 	0.63119	0.45361	0.59521	0.087
Mof_C 	C 	0.4261	0.4943	0.8913	0.077
Mof_C 	C 	0.4869	0.4974	0.83	-0.14
Mof_C 	C 	0.4784	0.4856	0.774	0.051
Mof_C 	C 	0.4076	0.4699	0.7821	-0.136
Mof_C 	C 	0.3474	0.469	0.8462	0.07
Mof_C 	C 	0.2644	0.0438	0.3704	0.077
Mof_C 	C 	0.2686	0.0396	0.3076	-0.141
Mof_C 	C 	0.2498	0.9897	0.2931	0.057
Mof_C 	C 	0.2263	0.9473	0.3437	-0.148
Mof_C 	C 	0.2264	0.95361	0.40479	0.085
Mof_C 	C 	0.3174	0.9943	0.1087	0.074
Mof_C 	C 	0.3169	0.9974	0.17	-0.142
Mof_C 	C 	0.2524	0.9856	0.226	0.052
Mof_C 	C 	0.1897	0.9699	0.2179	-0.137
Mof_C 	C 	0.1936	0.969	0.1538	0.071
Mof_C 	C 	0.1786	0.4562	0.1296	0.078
Mof_C 	C 	0.1158	0.4604	0.1924	-0.143
Mof_C 	C 	0.0326	0.5103	0.2069	0.059
Mof_C 	C 	0.0173	0.5527	0.1563	-0.149
Mof_C 	C 	0.0848	0.54639	0.09521	0.087
Mof_C 	C 	0.9204	0.5057	0.3913	0.077
Mof_C 	C 	0.9843	0.5026	0.33	-0.141
Mof_C 	C 	0.964	0.5144	0.274	0.051
Mof_C 	C 	0.8775	0.5301	0.2821	-0.136
Mof_C 	C 	0.8164	0.531	0.3462	0.07
Mof_C 	C 	0.3214	0.8704	0.5438	0.078
Mof_C 	C 	0.3842	0.8076	0.5396	-0.144
Mof_C 	C 	0.4674	0.7931	0.4897	0.059
Mof_C 	C 	0.4827	0.8437	0.4473	-0.149
Mof_C 	C 	0.4152	0.90479	0.45361	0.087
Mof_C 	C 	0.5796	0.6087	0.4943	0.077
Mof_C 	C 	0.5157	0.67	0.4974	-0.14
Mof_C 	C 	0.536	0.726	0.4856	0.051
Mof_C 	C 	0.6225	0.7179	0.4699	-0.136
Mof_C 	C 	0.6836	0.6538	0.469	0.07
Mof_C 	C 	0.2356	0.6296	0.9562	0.077
Mof_C 	C 	0.2314	0.6924	0.9604	-0.143
Mof_C 	C 	0.2502	0.7069	0.0103	0.058
Mof_C 	C 	0.2737	0.6563	0.0527	-0.149
Mof_C 	C 	0.2736	0.59521	0.04639	0.087
Mof_C 	C 	0.1826	0.8913	0.0057	0.075
Mof_C 	C 	0.1831	0.83	0.0026	-0.141
Mof_C 	C 	0.2476	0.774	0.0144	0.051
Mof_C 	C 	0.3103	0.7821	0.0301	-0.136
Mof_C 	C 	0.3064	0.8462	0.031	0.07
Mof_N 	N 	0.83722	0.41874	0.49922	-0.242
Mof_N 	N 	0.14473	0.10008	0.51786	-0.241
Mof_N 	N 	0.25518	0.08126	0.00078	-0.24
Mof_N 	N 	0.26267	0.39992	0.98214	-0.241
Mof_N 	N 	0.24482	0.99922	0.91874	-0.241
Mof_N 	N 	0.23733	0.01786	0.60008	-0.241
Mof_N 	N 	0.66278	0.50078	0.58126	-0.242
Mof_N 	N 	0.35527	0.48214	0.89992	-0.241
Mof_N 	N 	0.24404	0.00078	0.41874	-0.241
Mof_N 	N 	0.25519	0.98214	0.10008	-0.241
Mof_N 	N 	0.16356	0.49922	0.08126	-0.242
Mof_N 	N 	0.83741	0.51786	0.39992	-0.241
Mof_N 	N 	0.33644	0.91874	0.50078	-0.242
Mof_N 	N 	0.66259	0.60008	0.48214	-0.241
Mof_N 	N 	0.25596	0.58126	0.99922	-0.242
Mof_N 	N 	0.24481	0.89992	0.01786	-0.241
_end
