data_functionalizedCrystal
_audit_creation_method	'EQeq! by Chris Wilmer'
_symmetry_space_group_name_H-M	'P1'
_symmetry_Int_Tables_number	1
_symmetry_cell_setting	triclinic
loop_
_symmetry_equiv_pos_as_xyz
  x,y,z
_cell_length_a	12.915
_cell_length_b	21.2642
_cell_length_c	21.2642
_cell_angle_alpha	84.6758
_cell_angle_beta	72.3213
_cell_angle_gamma	72.3213
loop_
_atom_site_label
_atom_site_type_symbol
_atom_site_fract_x
_atom_site_fract_y
_atom_site_fract_z
_atom_site_charge
Mof_Li	Li	0.9152	0.00405	0.56175	1.318
Mof_Li	Li	0.76195	0.51755	0.04915	4.472
Mof_Li	Li	0.58797	0.47783	0.04443	5.019
Mof_Li	Li	0.0502	0.3059	0.9905	2.021
Mof_Li	Li	0.481	0.99595	0.43825	0.888
Mof_Li	Li	0.32865	0.48245	0.95085	4.957
Mof_Li	Li	0.11023	0.52217	0.95557	4.375
Mof_Li	Li	0.3466	0.6941	0.0095	2.331
Mof_Li	Li	0.981	0.43825	0.99595	1.596
Mof_Li	Li	0.82865	0.95085	0.48245	4.615
Mof_Li	Li	0.61023	0.95557	0.52217	4.956
Mof_Li	Li	0.8466	0.0095	0.6941	2.249
Mof_Li	Li	0.4152	0.56175	0.00405	0.848
Mof_Li	Li	0.26195	0.04915	0.51755	4.932
Mof_Li	Li	0.08797	0.04443	0.47783	4.38
Mof_Li	Li	0.5502	0.9905	0.3059	2.339
Mof_H 	H 	0.6073	0.3898	0.1528	-0.287
Mof_H 	H 	0.5413	0.3188	0.2368	0.173
Mof_H 	H 	0.8443	0.1798	0.172	0.122
Mof_H 	H 	0.9117	0.2519	0.0903	-0.306
Mof_H 	H 	0.6915	0.0646	0.4292	-0.303
Mof_H 	H 	0.6032	0.1094	0.349	0.019
Mof_H 	H 	0.8216	0.2206	0.285	0.148
Mof_H 	H 	0.9127	0.1714	0.3618	-0.103
Mof_H 	H 	0.1191	0.8038	0.3962	-0.111
Mof_H 	H 	0.2916	0.7496	0.3194	0.133
Mof_H 	H 	0.445	0.8669	0.3723	0.039
Mof_H 	H 	0.2713	0.928	0.44	-0.298
Mof_H 	H 	0.6362	0.5887	0.1709	-0.275
Mof_H 	H 	0.6239	0.6529	0.2559	0.18
Mof_H 	H 	0.3685	0.795	0.2136	0.123
Mof_H 	H 	0.3811	0.7316	0.1254	-0.321
Mof_H 	H 	0.1499	0.6102	0.8472	-0.268
Mof_H 	H 	0.0969	0.6812	0.7632	0.161
Mof_H 	H 	0.1961	0.8202	0.828	0.11
Mof_H 	H 	0.2539	0.7481	0.9097	-0.334
Mof_H 	H 	0.1853	0.9354	0.5708	-0.312
Mof_H 	H 	0.0616	0.8906	0.651	0.005
Mof_H 	H 	0.3272	0.7794	0.715	0.146
Mof_H 	H 	0.4459	0.8286	0.6382	-0.12
Mof_H 	H 	0.3191	0.1962	0.6038	-0.116
Mof_H 	H 	0.3606	0.2504	0.6806	0.139
Mof_H 	H 	0.6842	0.1331	0.6277	0.04
Mof_H 	H 	0.6393	0.072	0.56	-0.328
Mof_H 	H 	0.3958	0.4113	0.8291	-0.291
Mof_H 	H 	0.5327	0.3471	0.7441	0.182
Mof_H 	H 	0.3771	0.205	0.7864	0.124
Mof_H 	H 	0.2381	0.2684	0.8746	-0.31
Mof_H 	H 	0.6499	0.8472	0.6102	-0.289
Mof_H 	H 	0.5969	0.7632	0.6812	0.177
Mof_H 	H 	0.6961	0.828	0.8202	0.12
Mof_H 	H 	0.7539	0.9097	0.7481	-0.331
Mof_H 	H 	0.6853	0.5708	0.9354	-0.303
Mof_H 	H 	0.5616	0.651	0.8906	0.023
Mof_H 	H 	0.8272	0.715	0.7794	0.148
Mof_H 	H 	0.9459	0.6382	0.8286	-0.104
Mof_H 	H 	0.8191	0.6038	0.1962	-0.086
Mof_H 	H 	0.8606	0.6806	0.2504	0.113
Mof_H 	H 	0.1842	0.6277	0.1331	0.021
Mof_H 	H 	0.1393	0.56	0.072	-0.276
Mof_H 	H 	0.8958	0.8291	0.4113	-0.264
Mof_H 	H 	0.0327	0.7441	0.3471	0.137
Mof_H 	H 	0.8771	0.7864	0.205	0.128
Mof_H 	H 	0.7381	0.8746	0.2684	-0.317
Mof_H 	H 	0.1073	0.1528	0.3898	-0.275
Mof_H 	H 	0.0413	0.2368	0.3188	0.162
Mof_H 	H 	0.3443	0.172	0.1798	0.115
Mof_H 	H 	0.4117	0.0903	0.2519	-0.332
Mof_H 	H 	0.1915	0.4292	0.0646	-0.316
Mof_H 	H 	0.1032	0.349	0.1094	0.017
Mof_H 	H 	0.3216	0.285	0.2206	0.146
Mof_H 	H 	0.4127	0.3618	0.1714	-0.122
Mof_H 	H 	0.6191	0.3962	0.8038	-0.117
Mof_H 	H 	0.7916	0.3194	0.7496	0.145
Mof_H 	H 	0.945	0.3723	0.8669	0.054
Mof_H 	H 	0.7713	0.44	0.928	-0.331
Mof_H 	H 	0.1362	0.1709	0.5887	-0.319
Mof_H 	H 	0.1239	0.2559	0.6529	0.214
Mof_H 	H 	0.8685	0.2136	0.795	0.156
Mof_H 	H 	0.8811	0.1254	0.7316	-0.351
Mof_C 	C 	0.80701	0.37937	0.06921	1.236
Mof_C 	C 	0.76647	0.32929	0.11617	-0.776
Mof_C 	C 	0.6567	0.34749	0.15791	0.496
Mof_C 	C 	0.6162	0.30505	0.20775	-0.484
Mof_C 	C 	0.6868	0.2438	0.2132	0.309
Mof_C 	C 	0.797	0.22323	0.16877	-0.476
Mof_C 	C 	0.8374	0.2659	0.1201	0.472
Mof_C 	C 	0.8746	0.08133	0.45367	0.955
Mof_C 	C 	0.81353	0.11173	0.40401	-0.596
Mof_C 	C 	0.7196	0.09554	0.39886	0.372
Mof_C 	C 	0.6657	0.12264	0.35156	-0.372
Mof_C 	C 	0.7033	0.17002	0.30698	0.222
Mof_C 	C 	0.7958	0.18783	0.31337	-0.391
Mof_C 	C 	0.8491	0.15897	0.35963	0.337
Mof_C 	C 	0.5414	0.1861	0.2641	-0.101
Mof_C 	C 	0.06508	0.91188	0.46756	0.92
Mof_C 	C 	0.17675	0.87206	0.42444	-0.569
Mof_C 	C 	0.18423	0.81837	0.38977	0.308
Mof_C 	C 	0.28834	0.78496	0.34496	-0.369
Mof_C 	C 	0.38591	0.80289	0.33769	0.221
Mof_C 	C 	0.37817	0.85523	0.37523	-0.37
Mof_C 	C 	0.2753	0.8909	0.4167	0.356
Mof_C 	C 	0.51624	0.60995	0.08517	1.219
Mof_C 	C 	0.51127	0.65373	0.13753	-0.775
Mof_C 	C 	0.58219	0.63101	0.17841	0.502
Mof_C 	C 	0.57446	0.66934	0.22914	-0.509
Mof_C 	C 	0.49652	0.73118	0.24218	0.334
Mof_C 	C 	0.42441	0.75329	0.20429	-0.509
Mof_C 	C 	0.43151	0.71519	0.15159	0.479
Mof_C 	C 	0.5957	0.7691	0.3063	-0.07
Mof_C 	C 	0.25559	0.62063	0.93079	1.192
Mof_C 	C 	0.21193	0.67071	0.88383	-0.762
Mof_C 	C 	0.1621	0.65251	0.84209	0.477
Mof_C 	C 	0.129	0.69495	0.79225	-0.479
Mof_C 	C 	0.1438	0.7562	0.7868	0.298
Mof_C 	C 	0.189	0.77677	0.83123	-0.475
Mof_C 	C 	0.2234	0.7341	0.8799	0.46
Mof_C 	C 	0.4096	0.91867	0.54633	0.994
Mof_C 	C 	0.32927	0.88827	0.59599	-0.624
Mof_C 	C 	0.214	0.90446	0.60114	0.375
Mof_C 	C 	0.1399	0.87736	0.64844	-0.379
Mof_C 	C 	0.1803	0.82998	0.69302	0.221
Mof_C 	C 	0.297	0.81217	0.68663	-0.405
Mof_C 	C 	0.3677	0.84103	0.64037	0.352
Mof_C 	C 	0.9916	0.8139	0.7359	-0.064
Mof_C 	C 	0.44452	0.08812	0.53244	1
Mof_C 	C 	0.47325	0.12794	0.57556	-0.615
Mof_C 	C 	0.39237	0.18163	0.61023	0.338
Mof_C 	C 	0.41826	0.21504	0.65504	-0.389
Mof_C 	C 	0.52649	0.19711	0.66231	0.233
Mof_C 	C 	0.60863	0.14477	0.62477	-0.389
Mof_C 	C 	0.5829	0.1091	0.5833	0.381
Mof_C 	C 	0.21136	0.39005	0.91483	1.25
Mof_C 	C 	0.30253	0.34627	0.86247	-0.793
Mof_C 	C 	0.39161	0.36899	0.82159	0.51
Mof_C 	C 	0.47294	0.33066	0.77086	-0.516
Mof_C 	C 	0.46988	0.26882	0.75782	0.337
Mof_C 	C 	0.38199	0.24671	0.79571	-0.515
Mof_C 	C 	0.29829	0.28481	0.84841	0.484
Mof_C 	C 	0.6711	0.2309	0.6937	-0.068
Mof_C 	C 	0.75559	0.93079	0.62063	1.246
Mof_C 	C 	0.71193	0.88383	0.67071	-0.792
Mof_C 	C 	0.6621	0.84209	0.65251	0.506
Mof_C 	C 	0.629	0.79225	0.69495	-0.492
Mof_C 	C 	0.6438	0.7868	0.7562	0.314
Mof_C 	C 	0.689	0.83123	0.77677	-0.488
Mof_C 	C 	0.7234	0.8799	0.7341	0.483
Mof_C 	C 	0.9096	0.54633	0.91867	1.007
Mof_C 	C 	0.82927	0.59599	0.88827	-0.611
Mof_C 	C 	0.714	0.60114	0.90446	0.383
Mof_C 	C 	0.6399	0.64844	0.87736	-0.38
Mof_C 	C 	0.6803	0.69302	0.82998	0.226
Mof_C 	C 	0.797	0.68663	0.81217	-0.397
Mof_C 	C 	0.8677	0.64037	0.84103	0.349
Mof_C 	C 	0.4916	0.7359	0.8139	-0.101
Mof_C 	C 	0.94452	0.53244	0.08812	0.977
Mof_C 	C 	0.97325	0.57556	0.12794	-0.515
Mof_C 	C 	0.89237	0.61023	0.18163	0.264
Mof_C 	C 	0.91826	0.65504	0.21504	-0.289
Mof_C 	C 	0.02649	0.66231	0.19711	0.153
Mof_C 	C 	0.10863	0.62477	0.14477	-0.319
Mof_C 	C 	0.0829	0.5833	0.1091	0.285
Mof_C 	C 	0.71136	0.91483	0.39005	1.226
Mof_C 	C 	0.80253	0.86247	0.34627	-0.766
Mof_C 	C 	0.89161	0.82159	0.36899	0.472
Mof_C 	C 	0.97294	0.77086	0.33066	-0.442
Mof_C 	C 	0.96988	0.75782	0.26882	0.332
Mof_C 	C 	0.88199	0.79571	0.24671	-0.501
Mof_C 	C 	0.79829	0.84841	0.28481	0.473
Mof_C 	C 	0.1711	0.6937	0.2309	-0.078
Mof_C 	C 	0.30701	0.06921	0.37937	1.195
Mof_C 	C 	0.26647	0.11617	0.32929	-0.764
Mof_C 	C 	0.1567	0.15791	0.34749	0.481
Mof_C 	C 	0.1162	0.20775	0.30505	-0.48
Mof_C 	C 	0.1868	0.2132	0.2438	0.302
Mof_C 	C 	0.297	0.16877	0.22323	-0.475
Mof_C 	C 	0.3374	0.1201	0.2659	0.464
Mof_C 	C 	0.3746	0.45367	0.08133	0.999
Mof_C 	C 	0.31353	0.40401	0.11173	-0.629
Mof_C 	C 	0.2196	0.39886	0.09554	0.38
Mof_C 	C 	0.1657	0.35156	0.12264	-0.382
Mof_C 	C 	0.2033	0.30698	0.17002	0.226
Mof_C 	C 	0.2958	0.31337	0.18783	-0.408
Mof_C 	C 	0.3491	0.35963	0.15897	0.356
Mof_C 	C 	0.0414	0.2641	0.1861	-0.114
Mof_C 	C 	0.56508	0.46756	0.91188	1.007
Mof_C 	C 	0.67675	0.42444	0.87206	-0.62
Mof_C 	C 	0.68423	0.38977	0.81837	0.346
Mof_C 	C 	0.78834	0.34496	0.78496	-0.395
Mof_C 	C 	0.88591	0.33769	0.80289	0.245
Mof_C 	C 	0.87817	0.37523	0.85523	-0.393
Mof_C 	C 	0.7753	0.4167	0.8909	0.389
Mof_C 	C 	0.01624	0.08517	0.60995	1.23
Mof_C 	C 	0.01127	0.13753	0.65373	-0.888
Mof_C 	C 	0.08219	0.17841	0.63101	0.591
Mof_C 	C 	0.07446	0.22914	0.66934	-0.636
Mof_C 	C 	0.99652	0.24218	0.73118	0.437
Mof_C 	C 	0.92441	0.20429	0.75329	-0.597
Mof_C 	C 	0.93151	0.15159	0.71519	0.601
Mof_C 	C 	0.0957	0.3063	0.7691	-0.104
Mof_N 	N 	0.6484	0.19707	0.25973	-0.217
Mof_N 	N 	0.49152	0.76868	0.29448	-0.224
Mof_N 	N 	0.1052	0.80293	0.74027	-0.233
Mof_N 	N 	0.55468	0.23132	0.70552	-0.227
Mof_N 	N 	0.6052	0.74027	0.80293	-0.219
Mof_N 	N 	0.05468	0.70552	0.23132	-0.224
Mof_N 	N 	0.1484	0.25973	0.19707	-0.216
Mof_N 	N 	0.99152	0.29448	0.76868	-0.223
Mof_O 	O 	0.73389	0.43116	0.05926	-2.312
Mof_O 	O 	0.91229	0.36898	0.04224	-1.362
Mof_O 	O 	0.8377	0.03783	0.49177	-1.69
Mof_O 	O 	0.95837	0.09896	0.4547	-1.403
Mof_O 	O 	0.06321	0.95985	0.49849	-1.683
Mof_O 	O 	0.97876	0.89323	0.47125	-1.416
Mof_O 	O 	0.60172	0.56023	0.06933	-2.34
Mof_O 	O 	0.43564	0.62421	0.05971	-1.283
Mof_O 	O 	0.22431	0.56884	0.94074	-2.252
Mof_O 	O 	0.32351	0.63102	0.95776	-1.305
Mof_O 	O 	0.3673	0.96217	0.50823	-1.695
Mof_O 	O 	0.51203	0.90104	0.5453	-1.535
Mof_O 	O 	0.52155	0.04015	0.50151	-1.738
Mof_O 	O 	0.34324	0.10677	0.52875	-1.511
Mof_O 	O 	0.23128	0.43977	0.93067	-2.353
Mof_O 	O 	0.11956	0.37579	0.94029	-1.374
Mof_O 	O 	0.72431	0.94074	0.56884	-2.321
Mof_O 	O 	0.82351	0.95776	0.63102	-1.372
Mof_O 	O 	0.8673	0.50823	0.96217	-1.72
Mof_O 	O 	0.01203	0.5453	0.90104	-1.476
Mof_O 	O 	0.02155	0.50151	0.04015	-1.752
Mof_O 	O 	0.84324	0.52875	0.10677	-1.429
Mof_O 	O 	0.73128	0.93067	0.43977	-2.359
Mof_O 	O 	0.61956	0.94029	0.37579	-1.292
Mof_O 	O 	0.23389	0.05926	0.43116	-2.251
Mof_O 	O 	0.41229	0.04224	0.36898	-1.313
Mof_O 	O 	0.3377	0.49177	0.03783	-1.697
Mof_O 	O 	0.45837	0.4547	0.09896	-1.548
Mof_O 	O 	0.56321	0.49849	0.95985	-1.745
Mof_O 	O 	0.47876	0.47125	0.89323	-1.515
Mof_O 	O 	0.10172	0.06933	0.56023	-2.343
Mof_O 	O 	0.93564	0.05971	0.62421	-1.321
_end
