data_functionalizedCrystal
_audit_creation_method	'EQeq! by Chris Wilmer'
_symmetry_space_group_name_H-M	'P1'
_symmetry_Int_Tables_number	1
_symmetry_cell_setting	triclinic
loop_
_symmetry_equiv_pos_as_xyz
  x,y,z
_cell_length_a	11.092
_cell_length_b	12.199
_cell_length_c	28.767
_cell_angle_alpha	97.64
_cell_angle_beta	92.01
_cell_angle_gamma	115.936
loop_
_atom_site_label
_atom_site_type_symbol
_atom_site_fract_x
_atom_site_fract_y
_atom_site_fract_z
_atom_site_charge
Mof_C 	C 	0.2703	0.9468	0.8524	0.09
Mof_H 	H 	0.2156	0.9833	0.8451	-0.017
Mof_C 	C 	0.4074	0.0175	0.8579	-0.16
Mof_H 	H 	0.4439	0.0999	0.854	0.096
Mof_C 	C 	0.4908	0.9661	0.86914	0.076
Mof_C 	C 	0.4323	0.8459	0.8762	-0.147
Mof_H 	H 	0.4854	0.8095	0.8856	0.084
Mof_C 	C 	0.2933	0.7788	0.8693	0.094
Mof_H 	H 	0.2549	0.6964	0.8733	-0.003
Mof_C 	C 	0.6393	0.0399	0.87087	0.061
Mof_C 	C 	0.6922	0.115	0.83808	-0.142
Mof_H 	H 	0.6343	0.1204	0.8153	0.099
Mof_C 	C 	0.8289	0.1825	0.83806	0.091
Mof_H 	H 	0.8626	0.2334	0.8156	0.016
Mof_C 	C 	0.7305	0.0352	0.9044	-0.136
Mof_H 	H 	0.6992	0.9846	0.9271	0.081
Mof_C 	C 	0.8666	0.1053	0.9037	0.084
Mof_H 	H 	0.9271	0.1043	0.9266	0.012
Mof_C 	C 	0.0576	0.2473	0.86818	0.153
Mof_C 	C 	0.1321	0.3563	0.8984	-0.076
Mof_H 	H 	0.0938	0.3806	0.9235	0.065
Mof_C 	C 	0.2651	0.4302	0.8914	0.021
Mof_H 	H 	0.3115	0.5089	0.909	0.028
Mof_C 	C 	0.3252	0.3898	0.8603	-0.132
Mof_C 	C 	0.2583	0.27	0.8339	0.032
Mof_H 	H 	0.3058	0.2368	0.8157	0.023
Mof_C 	C 	0.1219	0.2024	0.8353	-0.091
Mof_H 	H 	0.0734	0.1282	0.8149	0.075
Mof_C 	C 	0.4722	0.4704	0.853	0.409
Mof_C 	C 	0.0222	0.867	0.5802	0.081
Mof_H 	H 	0.0757	0.8261	0.5757	0
Mof_C 	C 	0.8854	0.7994	0.5832	-0.138
Mof_H 	H 	0.8488	0.7143	0.5822	0.083
Mof_C 	C 	0.8027	0.8584	0.58768	0.068
Mof_C 	C 	0.8609	0.9804	0.5816	-0.184
Mof_H 	H 	0.8075	0.021	0.5789	0.101
Mof_C 	C 	0.9997	0.0433	0.5795	0.064
Mof_H 	H 	0.0367	0.1251	0.5748	-0.001
Mof_C 	C 	0.6559	0.7877	0.59146	0.053
Mof_C 	C 	0.6102	0.6919	0.61773	-0.129
Mof_H 	H 	0.6712	0.6705	0.6322	0.082
Mof_C 	C 	0.4751	0.6291	0.6223	0.081
Mof_H 	H 	0.4453	0.5655	0.64	0.018
Mof_C 	C 	0.4272	0.7491	0.57544	0.084
Mof_H 	H 	0.3641	0.7675	0.5606	0.013
Mof_C 	C 	0.562	0.8155	0.57025	-0.127
Mof_H 	H 	0.5893	0.879	0.5524	0.079
Mof_C 	C 	0.2431	0.5949	0.60909	0.188
Mof_C 	C 	0.1824	0.4687	0.60638	-0.207
Mof_H 	H 	0.2298	0.4229	0.5993	0.116
Mof_C 	C 	0.0472	0.4114	0.61465	0.105
Mof_H 	H 	0.0029	0.326	0.6125	0.012
Mof_C 	C 	0.979	0.4805	0.62598	-0.144
Mof_C 	C 	0.043	0.6065	0.62889	0.115
Mof_H 	H 	0.9967	0.653	0.6366	0.003
Mof_C 	C 	0.1773	0.6644	0.62036	-0.224
Mof_H 	H 	0.2216	0.7498	0.6224	0.132
Mof_C 	C 	0.8314	0.4172	0.635	0.324
Mof_C 	C 	0.7127	0.8667	0.77728	0.337
Mof_C 	C 	0.6395	0.9047	0.74258	-0.065
Mof_C 	C 	0.4995	0.851	0.73782	-0.025
Mof_H 	H 	0.4513	0.7902	0.7554	0.055
Mof_C 	C 	0.4315	0.8879	0.70691	-0.012
Mof_H 	H 	0.3378	0.8516	0.7038	0.048
Mof_C 	C 	0.503	0.9795	0.68027	-0.077
Mof_C 	C 	0.6435	0.0334	0.68479	-0.021
Mof_H 	H 	0.6917	0.0949	0.6675	0.053
Mof_C 	C 	0.7118	0.9943	0.71564	-0.023
Mof_H 	H 	0.8053	0.0282	0.7181	0.05
Mof_C 	C 	0.4266	0.0205	0.64818	0.356
Mof_C 	C 	0.331	0.302	0.67358	0.356
Mof_C 	C 	0.2492	0.3519	0.70183	-0.078
Mof_C 	C 	0.1123	0.2765	0.70376	-0.018
Mof_H 	H 	0.0737	0.1951	0.6884	0.05
Mof_C 	C 	0.0328	0.321	0.7282	-0.016
Mof_H 	H 	0.9417	0.2699	0.7289	0.053
Mof_C 	C 	0.0905	0.4426	0.75163	-0.076
Mof_C 	C 	0.2265	0.518	0.7502	-0.016
Mof_H 	H 	0.2649	0.5996	0.7654	0.05
Mof_C 	C 	0.305	0.473	0.7263	-0.016
Mof_H 	H 	0.3966	0.5238	0.7264	0.044
Mof_C 	C 	0.0051	0.4919	0.77873	0.383
Mof_C 	C 	0.4414	0.3102	0.55788	0.353
Mof_C 	C 	0.4696	0.4079	0.52741	-0.07
Mof_C 	C 	0.6037	0.4805	0.52013	-0.022
Mof_H 	H 	0.6725	0.4667	0.5333	0.056
Mof_C 	C 	0.6333	0.5735	0.49304	-0.015
Mof_H 	H 	0.7223	0.6233	0.4886	0.049
Mof_C 	C 	0.9126	0.5274	0.90751	0.379
Mof_C 	C 	0.9578	0.5142	0.95581	-0.08
Mof_C 	C 	0.0709	0.6088	0.98242	-0.017
Mof_H 	H 	0.1183	0.6819	0.9708	0.05
Mof_C 	C 	0.1144	0.5955	0.02636	-0.024
Mof_H 	H 	0.191	0.659	0.0438	0.057
Mof_C 	C 	0.8891	0.8419	0.90988	0.363
Mof_C 	C 	0.9465	0.9205	0.95744	-0.081
Mof_C 	C 	0.0846	0.9963	0.96609	-0.011
Mof_H 	H 	0.1408	0.9931	0.9432	0.046
Mof_C 	C 	0.1395	0.0768	0.00852	-0.027
Mof_H 	H 	0.2317	0.1279	0.0142	0.053
Mof_C 	C 	0.5712	0.2605	0.74579	0.525
Mof_H 	H 	0.4962	0.188	0.7325	-0.145
Mof_N 	N 	0.9127	0.1752	0.86995	-0.158
Mof_N 	N 	0.2118	0.8272	0.8572	-0.238
Mof_N 	N 	0.0791	0.9912	0.58377	-0.248
Mof_N 	N 	0.3858	0.6585	0.60148	-0.16
Mof_O 	O 	0.5024	0.5768	0.85013	-0.494
Mof_O 	O 	0.5542	0.4258	0.8561	-0.421
Mof_O 	O 	0.773	0.4837	0.64578	-0.369
Mof_O 	O 	0.7736	0.3019	0.63055	-0.367
Mof_O 	O 	0.6381	0.7811	0.79881	-0.46
Mof_O 	O 	0.8378	0.9233	0.7841	-0.303
Mof_O 	O 	0.3031	0.9564	0.63769	-0.389
Mof_O 	O 	0.4883	0.1188	0.63173	-0.524
Mof_O 	O 	0.2752	0.1889	0.65713	-0.447
Mof_O 	O 	0.4493	0.3774	0.6672	-0.43
Mof_O 	O 	0.8936	0.4148	0.78894	-0.444
Mof_O 	O 	0.0541	0.6071	0.78973	-0.475
Mof_O 	O 	0.3202	0.2384	0.56086	-0.445
Mof_O 	O 	0.542	0.3063	0.5782	-0.449
Mof_O 	O 	0.809	0.4378	0.88542	-0.457
Mof_O 	O 	0.9831	0.6252	0.8928	-0.47
Mof_O 	O 	0.7628	0.7721	0.90397	-0.469
Mof_O 	O 	0.9669	0.8515	0.87844	-0.472
Mof_O 	O 	0.7903	0.6098	0.8106	-0.799
Mof_H 	H 	0.7798	0.5978	0.7767	0.175
Mof_O 	O 	0.6328	0.3282	0.71913	-0.517
Mof_O 	O 	0.5982	0.2781	0.78978	-0.486
Mof_O 	O 	0.3232	0.9983	0.53583	-0.387
Mof_H 	H 	0.4208	0.0056	0.5248	0.127
Mof_Zn	Zn	0.6844	0.68858	0.83989	1.229
Mof_Zn	Zn	0.7402	0.43871	0.82139	1.233
Mof_Zn	Zn	0.99922	0.7154	0.83516	1.206
Mof_Zn	Zn	0.29018	0.09178	0.59387	1.224
Mof_Zn	Zn	0.58611	0.30869	0.6477	1.24
Mof_C 	C 	0.0225	0.9459	0.6303	-0.032
Mof_C 	C 	0.8878	0.8727	0.6312	-0.032
Mof_H 	H 	0.8525	0.835	0.6569	0.042
Mof_C 	C 	0.996	0.986	0.558	0.044
Mof_H 	H 	0.0257	0.0355	0.5348	-0.003
Mof_C 	C 	0.8587	0.92	0.5559	0.023
Mof_H 	H 	0.8052	0.9203	0.5303	0.03
Mof_C 	C 	0.2782	0.265	0.8655	0.013
Mof_H 	H 	0.3379	0.2305	0.8669	0.033
Mof_C 	C 	0.1412	0.1936	0.8686	-0.092
Mof_H 	H 	0.1081	0.1103	0.871	0.07
Mof_C 	C 	0.238	0.4412	0.8635	0.033
Mof_H 	H 	0.2702	0.5254	0.863	0.029
Mof_C 	C 	0.1029	0.3711	0.8676	-0.105
Mof_H 	H 	0.0441	0.407	0.8698	0.074
Mof_H 	H 	0.081	0.9689	0.6577	0.05
Mof_C 	C 	0.7297	0.0532	0.1476	0.091
Mof_H 	H 	0.7844	0.0167	0.1549	-0.016
Mof_C 	C 	0.5926	0.9825	0.1421	-0.159
Mof_H 	H 	0.5561	0.9001	0.146	0.097
Mof_C 	C 	0.5092	0.0339	0.13086	0.076
Mof_C 	C 	0.5677	0.1541	0.1238	-0.147
Mof_H 	H 	0.5146	0.1905	0.1144	0.084
Mof_C 	C 	0.7067	0.2212	0.1307	0.094
Mof_H 	H 	0.7451	0.3036	0.1267	-0.003
Mof_C 	C 	0.3607	0.9601	0.12913	0.061
Mof_C 	C 	0.3078	0.885	0.16192	-0.142
Mof_H 	H 	0.3657	0.8796	0.1847	0.099
Mof_C 	C 	0.1711	0.8175	0.16194	0.091
Mof_H 	H 	0.1374	0.7666	0.1844	0.016
Mof_C 	C 	0.2695	0.9648	0.0956	-0.136
Mof_H 	H 	0.3008	0.0154	0.0729	0.081
Mof_C 	C 	0.1334	0.8947	0.0963	0.084
Mof_H 	H 	0.0729	0.8957	0.0734	0.012
Mof_C 	C 	0.9424	0.7527	0.13182	0.153
Mof_C 	C 	0.8679	0.6437	0.1016	-0.076
Mof_H 	H 	0.9062	0.6194	0.0765	0.065
Mof_C 	C 	0.7349	0.5698	0.1086	0.021
Mof_H 	H 	0.6885	0.4911	0.091	0.028
Mof_C 	C 	0.6748	0.6102	0.1397	-0.132
Mof_C 	C 	0.7417	0.73	0.1661	0.032
Mof_H 	H 	0.6942	0.7632	0.1843	0.023
Mof_C 	C 	0.8781	0.7976	0.1647	-0.091
Mof_H 	H 	0.9266	0.8718	0.1851	0.075
Mof_C 	C 	0.5278	0.5296	0.147	0.409
Mof_C 	C 	0.9778	0.133	0.4198	0.081
Mof_H 	H 	0.9243	0.1739	0.4243	0
Mof_C 	C 	0.1146	0.2006	0.4168	-0.138
Mof_H 	H 	0.1512	0.2857	0.4178	0.083
Mof_C 	C 	0.1973	0.1416	0.41232	0.068
Mof_C 	C 	0.1391	0.0196	0.4184	-0.184
Mof_H 	H 	0.1925	0.979	0.4211	0.101
Mof_C 	C 	0.0003	0.9567	0.4205	0.064
Mof_H 	H 	0.9633	0.8749	0.4252	-0.001
Mof_C 	C 	0.3441	0.2123	0.40854	0.053
Mof_C 	C 	0.3898	0.3081	0.38227	-0.129
Mof_H 	H 	0.3288	0.3295	0.3678	0.082
Mof_C 	C 	0.5249	0.3709	0.3777	0.081
Mof_H 	H 	0.5547	0.4345	0.36	0.018
Mof_C 	C 	0.5728	0.2509	0.42456	0.084
Mof_H 	H 	0.6359	0.2325	0.4394	0.013
Mof_C 	C 	0.438	0.1845	0.42975	-0.127
Mof_H 	H 	0.4107	0.121	0.4476	0.079
Mof_C 	C 	0.7569	0.4051	0.39091	0.188
Mof_C 	C 	0.8176	0.5313	0.39362	-0.207
Mof_H 	H 	0.7702	0.5771	0.4007	0.116
Mof_C 	C 	0.9528	0.5886	0.38535	0.105
Mof_H 	H 	0.9971	0.674	0.3875	0.012
Mof_C 	C 	0.021	0.5195	0.37402	-0.144
Mof_C 	C 	0.957	0.3935	0.37111	0.115
Mof_H 	H 	0.0033	0.347	0.3634	0.003
Mof_C 	C 	0.8227	0.3356	0.37964	-0.224
Mof_H 	H 	0.7784	0.2502	0.3776	0.132
Mof_C 	C 	0.1686	0.5828	0.365	0.324
Mof_C 	C 	0.2873	0.1333	0.22272	0.337
Mof_C 	C 	0.3605	0.0953	0.25742	-0.065
Mof_C 	C 	0.5005	0.149	0.26218	-0.025
Mof_H 	H 	0.5487	0.2098	0.2446	0.055
Mof_C 	C 	0.5685	0.1121	0.29309	-0.012
Mof_H 	H 	0.6622	0.1484	0.2962	0.048
Mof_C 	C 	0.497	0.0205	0.31973	-0.077
Mof_C 	C 	0.3565	0.9666	0.31521	-0.021
Mof_H 	H 	0.3083	0.9051	0.3325	0.053
Mof_C 	C 	0.2882	0.0057	0.28436	-0.023
Mof_H 	H 	0.1947	0.9718	0.2819	0.05
Mof_C 	C 	0.5734	0.9795	0.35182	0.356
Mof_C 	C 	0.669	0.698	0.32642	0.356
Mof_C 	C 	0.7508	0.6481	0.29817	-0.078
Mof_C 	C 	0.8877	0.7235	0.29624	-0.018
Mof_H 	H 	0.9263	0.8049	0.3116	0.05
Mof_C 	C 	0.9672	0.679	0.2718	-0.016
Mof_H 	H 	0.0583	0.7301	0.2711	0.053
Mof_C 	C 	0.9095	0.5574	0.24837	-0.076
Mof_C 	C 	0.7735	0.482	0.2498	-0.016
Mof_H 	H 	0.7351	0.4004	0.2346	0.05
Mof_C 	C 	0.695	0.527	0.2737	-0.016
Mof_H 	H 	0.6034	0.4762	0.2736	0.044
Mof_C 	C 	0.9949	0.5081	0.22127	0.383
Mof_C 	C 	0.5586	0.6898	0.44212	0.353
Mof_C 	C 	0.5304	0.5921	0.47259	-0.07
Mof_C 	C 	0.3963	0.5195	0.47987	-0.022
Mof_H 	H 	0.3275	0.5333	0.4667	0.056
Mof_C 	C 	0.3667	0.4265	0.50696	-0.015
Mof_H 	H 	0.2777	0.3767	0.5114	0.049
Mof_C 	C 	0.0874	0.4726	0.09249	0.379
Mof_C 	C 	0.0422	0.4858	0.04419	-0.08
Mof_C 	C 	0.9291	0.3912	0.01758	-0.017
Mof_H 	H 	0.8817	0.3181	0.0292	0.05
Mof_C 	C 	0.8856	0.4045	0.97364	-0.024
Mof_H 	H 	0.809	0.341	0.9562	0.057
Mof_C 	C 	0.1109	0.1581	0.09012	0.363
Mof_C 	C 	0.0535	0.0795	0.04256	-0.081
Mof_C 	C 	0.9154	0.0037	0.03391	-0.011
Mof_H 	H 	0.8592	0.0069	0.0568	0.046
Mof_C 	C 	0.8605	0.9232	0.99148	-0.027
Mof_H 	H 	0.7683	0.8721	0.9858	0.053
Mof_C 	C 	0.4288	0.7395	0.25421	0.525
Mof_H 	H 	0.5038	0.812	0.2675	-0.145
Mof_N 	N 	0.0873	0.8248	0.13005	-0.158
Mof_N 	N 	0.7882	0.1728	0.1428	-0.238
Mof_N 	N 	0.9209	0.0088	0.41623	-0.248
Mof_N 	N 	0.6142	0.3415	0.39852	-0.16
Mof_O 	O 	0.4976	0.4232	0.14987	-0.494
Mof_O 	O 	0.4458	0.5742	0.1439	-0.421
Mof_O 	O 	0.227	0.5163	0.35422	-0.369
Mof_O 	O 	0.2264	0.6981	0.36945	-0.367
Mof_O 	O 	0.3619	0.2189	0.20119	-0.46
Mof_O 	O 	0.1622	0.0767	0.2159	-0.303
Mof_O 	O 	0.6969	0.0436	0.36231	-0.389
Mof_O 	O 	0.5117	0.8812	0.36827	-0.524
Mof_O 	O 	0.7248	0.8111	0.34287	-0.447
Mof_O 	O 	0.5507	0.6226	0.3328	-0.43
Mof_O 	O 	0.1064	0.5852	0.21106	-0.444
Mof_O 	O 	0.9459	0.3929	0.21027	-0.475
Mof_O 	O 	0.6798	0.7616	0.43914	-0.445
Mof_O 	O 	0.458	0.6937	0.4218	-0.449
Mof_O 	O 	0.191	0.5622	0.11458	-0.457
Mof_O 	O 	0.0169	0.3748	0.1072	-0.47
Mof_O 	O 	0.2372	0.2279	0.09603	-0.469
Mof_O 	O 	0.0331	0.1485	0.12156	-0.472
Mof_O 	O 	0.2097	0.3902	0.1894	-0.799
Mof_H 	H 	0.2202	0.4022	0.2233	0.175
Mof_O 	O 	0.3672	0.6718	0.28087	-0.517
Mof_O 	O 	0.4018	0.7219	0.21022	-0.486
Mof_O 	O 	0.6768	0.0017	0.46417	-0.387
Mof_H 	H 	0.5792	0.9944	0.4752	0.127
Mof_Zn	Zn	0.3156	0.31142	0.16011	1.229
Mof_Zn	Zn	0.2598	0.56129	0.17861	1.233
Mof_Zn	Zn	0.00078	0.2846	0.16484	1.206
Mof_Zn	Zn	0.70982	0.90822	0.40613	1.224
Mof_Zn	Zn	0.41389	0.69131	0.3523	1.24
Mof_C 	C 	0.9775	0.0541	0.3697	-0.032
Mof_C 	C 	0.1122	0.1273	0.3688	-0.032
Mof_H 	H 	0.1475	0.165	0.3431	0.042
Mof_C 	C 	0.004	0.014	0.442	0.044
Mof_H 	H 	0.9743	0.9645	0.4652	-0.003
Mof_C 	C 	0.1413	0.08	0.4441	0.023
Mof_H 	H 	0.1948	0.0797	0.4697	0.03
Mof_C 	C 	0.7218	0.735	0.1345	0.013
Mof_H 	H 	0.6621	0.7695	0.1331	0.033
Mof_C 	C 	0.8588	0.8064	0.1314	-0.092
Mof_H 	H 	0.8919	0.8897	0.129	0.07
Mof_C 	C 	0.762	0.5588	0.1365	0.033
Mof_H 	H 	0.7298	0.4746	0.137	0.029
Mof_C 	C 	0.8971	0.6289	0.1324	-0.105
Mof_H 	H 	0.9559	0.593	0.1302	0.074
Mof_H 	H 	0.919	0.0311	0.3423	0.05
_end
