data_functionalizedCrystal
_audit_creation_method	'EQeq! by Chris Wilmer'
_symmetry_space_group_name_H-M	'P1'
_symmetry_Int_Tables_number	1
_symmetry_cell_setting	triclinic
loop_
_symmetry_equiv_pos_as_xyz
  x,y,z
_cell_length_a	10.28
_cell_length_b	12.7
_cell_length_c	17.86
_cell_angle_alpha	90
_cell_angle_beta	102.47
_cell_angle_gamma	90
loop_
_atom_site_label
_atom_site_type_symbol
_atom_site_fract_x
_atom_site_fract_y
_atom_site_fract_z
_atom_site_charge
Mof_In	In	0.94305	0.97821	0.12591	2.741
Mof_In	In	0.74572	0.9274	0.27769	3.251
Mof_In	In	0.46876	0.11624	0.20822	2.757
Mof_In	In	0.36705	0.85219	0.42227	2.403
Mof_P 	P 	0.20258	0.08959	0.05842	0.775
Mof_P 	P 	0.06511	0.8837	0.3075	0.765
Mof_P 	P 	0.72068	0.65968	0.29941	0.766
Mof_P 	P 	0.58086	0.04613	0.39248	0.762
Mof_F 	F 	0.7876	0.9061	0.168	-1.069
Mof_F 	F 	0.5484	0.9616	0.2181	-1.07
Mof_O 	O 	0.1748	0.0213	0.9867	-0.751
Mof_O 	O 	0.3494	0.0791	0.1003	-0.72
Mof_O 	O 	0.1143	0.0586	0.1134	-0.838
Mof_O 	O 	0.175	0.2056	0.0342	-0.755
Mof_O 	O 	0.0928	0.7715	0.2808	-0.83
Mof_O 	O 	0.0583	0.9597	0.2397	-0.749
Mof_O 	O 	0.1816	0.9163	0.3728	-0.682
Mof_O 	O 	0.9377	0.8872	0.3384	-0.783
Mof_O 	O 	0.8679	0.6592	0.3388	-0.736
Mof_O 	O 	0.6363	0.6288	0.3576	-0.727
Mof_O 	O 	0.6741	0.771	0.2701	-0.741
Mof_O 	O 	0.691	0.584	0.2312	-0.791
Mof_O 	O 	0.5612	0.1278	0.3283	-0.749
Mof_O 	O 	0.6793	0.9577	0.3796	-0.791
Mof_O 	O 	0.4455	0.9954	0.3932	-0.766
Mof_O 	O 	0.6396	0.0988	0.4683	-0.694
Mof_In	In	0.55695	0.47821	0.37409	2.769
Mof_In	In	0.75428	0.4274	0.22231	3.265
Mof_In	In	0.03124	0.61624	0.29178	2.76
Mof_In	In	0.13295	0.35219	0.07773	2.395
Mof_P 	P 	0.29742	0.58959	0.44158	0.776
Mof_P 	P 	0.43489	0.3837	0.1925	0.76
Mof_P 	P 	0.77932	0.15968	0.20059	0.765
Mof_P 	P 	0.91914	0.54613	0.10752	0.761
Mof_F 	F 	0.7124	0.4061	0.332	-1.071
Mof_F 	F 	0.9516	0.4616	0.2819	-1.07
Mof_O 	O 	0.3252	0.5213	0.5133	-0.751
Mof_O 	O 	0.1506	0.5791	0.3997	-0.721
Mof_O 	O 	0.3857	0.5586	0.3866	-0.84
Mof_O 	O 	0.325	0.7056	0.4658	-0.755
Mof_O 	O 	0.4072	0.2715	0.2192	-0.832
Mof_O 	O 	0.4417	0.4597	0.2603	-0.757
Mof_O 	O 	0.3184	0.4163	0.1272	-0.682
Mof_O 	O 	0.5623	0.3872	0.1616	-0.779
Mof_O 	O 	0.6321	0.1592	0.1612	-0.733
Mof_O 	O 	0.8637	0.1288	0.1424	-0.716
Mof_O 	O 	0.8259	0.271	0.2299	-0.741
Mof_O 	O 	0.809	0.084	0.2688	-0.784
Mof_O 	O 	0.9388	0.6278	0.1717	-0.75
Mof_O 	O 	0.8207	0.4577	0.1204	-0.789
Mof_O 	O 	0.0545	0.4954	0.1068	-0.765
Mof_O 	O 	0.8604	0.5988	0.0317	-0.694
Mof_In	In	0.05695	0.02179	0.87409	2.742
Mof_In	In	0.25428	0.0726	0.72231	3.252
Mof_In	In	0.53124	0.88376	0.79178	2.757
Mof_In	In	0.63295	0.14781	0.57773	2.403
Mof_P 	P 	0.79742	0.91041	0.94158	0.775
Mof_P 	P 	0.93489	0.1163	0.6925	0.765
Mof_P 	P 	0.27932	0.34032	0.70059	0.766
Mof_P 	P 	0.41914	0.95387	0.60752	0.762
Mof_F 	F 	0.2124	0.0939	0.832	-1.069
Mof_F 	F 	0.4516	0.0384	0.7819	-1.07
Mof_O 	O 	0.8252	0.9787	0.0133	-0.751
Mof_O 	O 	0.6506	0.9209	0.8997	-0.72
Mof_O 	O 	0.8857	0.9414	0.8866	-0.838
Mof_O 	O 	0.825	0.7944	0.9658	-0.755
Mof_O 	O 	0.9072	0.2285	0.7192	-0.83
Mof_O 	O 	0.9417	0.0403	0.7603	-0.749
Mof_O 	O 	0.8184	0.0837	0.6272	-0.682
Mof_O 	O 	0.0623	0.1128	0.6616	-0.783
Mof_O 	O 	0.1321	0.3408	0.6612	-0.736
Mof_O 	O 	0.3637	0.3712	0.6424	-0.727
Mof_O 	O 	0.3259	0.229	0.7299	-0.741
Mof_O 	O 	0.309	0.416	0.7688	-0.791
Mof_O 	O 	0.4388	0.8722	0.6717	-0.749
Mof_O 	O 	0.3207	0.0423	0.6204	-0.791
Mof_O 	O 	0.5545	0.0046	0.6068	-0.766
Mof_O 	O 	0.3604	0.9012	0.5317	-0.694
Mof_In	In	0.44305	0.52179	0.62591	2.769
Mof_In	In	0.24572	0.5726	0.77769	3.265
Mof_In	In	0.96876	0.38376	0.70822	2.76
Mof_In	In	0.86705	0.64781	0.92227	2.395
Mof_P 	P 	0.70258	0.41041	0.55842	0.776
Mof_P 	P 	0.56511	0.6163	0.8075	0.76
Mof_P 	P 	0.22068	0.84032	0.79941	0.765
Mof_P 	P 	0.08086	0.45387	0.89248	0.761
Mof_F 	F 	0.2876	0.5939	0.668	-1.071
Mof_F 	F 	0.0484	0.5384	0.7181	-1.07
Mof_O 	O 	0.6748	0.4787	0.4867	-0.751
Mof_O 	O 	0.8494	0.4209	0.6003	-0.721
Mof_O 	O 	0.6143	0.4414	0.6134	-0.84
Mof_O 	O 	0.675	0.2944	0.5342	-0.755
Mof_O 	O 	0.5928	0.7285	0.7808	-0.832
Mof_O 	O 	0.5583	0.5403	0.7397	-0.757
Mof_O 	O 	0.6816	0.5837	0.8728	-0.682
Mof_O 	O 	0.4377	0.6128	0.8384	-0.779
Mof_O 	O 	0.3679	0.8408	0.8388	-0.733
Mof_O 	O 	0.1363	0.8712	0.8576	-0.716
Mof_O 	O 	0.1741	0.729	0.7701	-0.741
Mof_O 	O 	0.191	0.916	0.7312	-0.784
Mof_O 	O 	0.0612	0.3722	0.8283	-0.75
Mof_O 	O 	0.1793	0.5423	0.8796	-0.789
Mof_O 	O 	0.9455	0.5046	0.8932	-0.765
Mof_O 	O 	0.1396	0.4012	0.9683	-0.694
_end
