data_functionalizedCrystal
_audit_creation_method	'EQeq! by Chris Wilmer'
_symmetry_space_group_name_H-M	'P1'
_symmetry_Int_Tables_number	1
_symmetry_cell_setting	triclinic
loop_
_symmetry_equiv_pos_as_xyz
  x,y,z
_cell_length_a	8.165
_cell_length_b	8.8419
_cell_length_c	12.2259
_cell_angle_alpha	75.1131
_cell_angle_beta	70.4931
_cell_angle_gamma	62.5018
loop_
_atom_site_label
_atom_site_type_symbol
_atom_site_fract_x
_atom_site_fract_y
_atom_site_fract_z
_atom_site_charge
Mof_Cd	Cd	0.42541	0.25	0.75	0.443
Mof_Cd	Cd	0.57459	0.75	0.25	0.443
Mof_H 	H 	0.4907	0.5249	0.1049	0.174
Mof_H 	H 	0.5558	0.3352	0.1182	0.169
Mof_H 	H 	0.1205	0.9751	0.3951	0.174
Mof_H 	H 	0.0092	0.1648	0.3818	0.17
Mof_H 	H 	0.5093	0.4751	0.8951	0.174
Mof_H 	H 	0.4442	0.6648	0.8818	0.169
Mof_H 	H 	0.8795	0.0249	0.6049	0.174
Mof_H 	H 	0.9908	0.8352	0.6182	0.17
Mof_C 	C 	0.5003	0.4193	0.2609	0.313
Mof_C 	C 	0.5437	0.256	0.332	-0.21
Mof_C 	C 	0.5305	0.2488	0.4506	0.164
Mof_C 	C 	0.5928	0.1044	0.2886	0.147
Mof_C 	C 	0.1805	0.0807	0.2391	0.312
Mof_C 	C 	0.1317	0.244	0.168	-0.21
Mof_C 	C 	0.2299	0.2512	0.0494	0.162
Mof_C 	C 	0.9858	0.3956	0.2114	0.149
Mof_C 	C 	0.4997	0.5807	0.7391	0.313
Mof_C 	C 	0.4563	0.744	0.668	-0.21
Mof_C 	C 	0.4695	0.7512	0.5494	0.164
Mof_C 	C 	0.4072	0.8956	0.7114	0.147
Mof_C 	C 	0.8195	0.9193	0.7609	0.312
Mof_C 	C 	0.8683	0.756	0.832	-0.21
Mof_C 	C 	0.7701	0.7488	0.9506	0.162
Mof_C 	C 	0.0142	0.6044	0.7886	0.149
Mof_N 	N 	0.5176	0.4274	0.1482	-0.366
Mof_N 	N 	0.5189	0.2417	0.5477	-0.167
Mof_N 	N 	0.6343	0.9801	0.2527	-0.166
Mof_N 	N 	0.0932	0.0726	0.3518	-0.366
Mof_N 	N 	0.3083	0.2583	0.9523	-0.165
Mof_N 	N 	0.8671	0.5199	0.2473	-0.168
Mof_N 	N 	0.4824	0.5726	0.8518	-0.366
Mof_N 	N 	0.4811	0.7583	0.4523	-0.167
Mof_N 	N 	0.3657	0.0199	0.7473	-0.166
Mof_N 	N 	0.9068	0.9274	0.6482	-0.366
Mof_N 	N 	0.6917	0.7417	0.0477	-0.165
Mof_N 	N 	0.1329	0.4801	0.7527	-0.168
Mof_O 	O 	0.44446	0.55329	0.30599	-0.28
Mof_O 	O 	0.30374	0.94671	0.19401	-0.279
Mof_O 	O 	0.55554	0.44671	0.69401	-0.28
Mof_O 	O 	0.69626	0.05329	0.80599	-0.279
_end
