data_functionalizedCrystal
_audit_creation_method	'EQeq! by Chris Wilmer'
_symmetry_space_group_name_H-M	'P1'
_symmetry_Int_Tables_number	1
_symmetry_cell_setting	triclinic
loop_
_symmetry_equiv_pos_as_xyz
  x,y,z
_cell_length_a	17.075
_cell_length_b	20.205
_cell_length_c	20.519
_cell_angle_alpha	90
_cell_angle_beta	90
_cell_angle_gamma	90.12
loop_
_atom_site_label
_atom_site_type_symbol
_atom_site_fract_x
_atom_site_fract_y
_atom_site_fract_z
_atom_site_charge
Mof_Na	Na	0.3905	0.233	0.6445	2.582
Mof_Na	Na	0.1095	0.267	0.1445	2.55
Mof_Na	Na	0.6095	0.767	0.3555	2.588
Mof_Na	Na	0.8905	0.733	0.8555	2.618
Mof_Zn	Zn	0.65113	0.37481	0.00557	1.229
Mof_Zn	Zn	0.84887	0.12519	0.50557	1.233
Mof_Zn	Zn	0.34887	0.62519	0.99443	1.237
Mof_Zn	Zn	0.15113	0.87481	0.49443	1.233
Mof_Zn	Zn	0.5	0.5	-0	1.238
Mof_Zn	Zn	-3.14807e-33	7.13191e-33	0.5	1.232
Mof_H 	H 	0.5388	0.2793	0.1754	0.021
Mof_H 	H 	0.4916	0.2512	0.2784	0.07
Mof_H 	H 	0.4145	0.4382	0.3032	0.071
Mof_H 	H 	0.4617	0.4662	0.2003	0.028
Mof_H 	H 	0.1392	0.1348	0.4929	0.017
Mof_H 	H 	0.2058	0.2339	0.4746	0.081
Mof_H 	H 	0.3995	0.1316	0.4247	0.074
Mof_H 	H 	0.3329	0.0325	0.443	0.004
Mof_H 	H 	0.6169	0.3742	0.7899	0.016
Mof_H 	H 	0.5745	0.3922	0.6835	0.08
Mof_H 	H 	0.3607	0.4425	0.7508	0.079
Mof_H 	H 	0.4031	0.4244	0.8573	0.015
Mof_H 	H 	0.3656	0.7335	0.6194	0.026
Mof_H 	H 	0.4125	0.6263	0.6345	0.075
Mof_H 	H 	0.2741	0.5616	0.4882	0.067
Mof_H 	H 	0.2272	0.6688	0.4731	0.026
Mof_H 	H 	0.4527	0.4137	0.4079	0.05
Mof_H 	H 	0.3792	0.2353	0.3436	0.032
Mof_H 	H 	0.4075	0.5299	0.666	0.04
Mof_H 	H 	0.3551	0.4835	0.4797	0.044
Mof_H 	H 	0.2174	0.33	0.5267	0.011
Mof_H 	H 	0.2723	0.3722	0.5733	0.013
Mof_H 	H 	0.5844	0.319	0.5963	0.012
Mof_H 	H 	0.5466	0.345	0.5303	0.024
Mof_H 	H 	0.1697	0.3281	0.6336	0.02
Mof_H 	H 	0.1924	0.2555	0.6106	-0.019
Mof_H 	H 	0.5004	0.2442	0.5041	-0.002
Mof_H 	H 	0.5878	0.2323	0.5265	0.031
Mof_H 	H 	0.1894	0.3026	0.746	0.026
Mof_H 	H 	0.2076	0.228	0.7262	-0.008
Mof_H 	H 	0.6111	0.1489	0.6061	0.031
Mof_H 	H 	0.6026	0.2152	0.6469	0.023
Mof_H 	H 	0.3109	0.3135	0.7924	0.011
Mof_H 	H 	0.269	0.251	0.8236	0.022
Mof_H 	H 	0.5149	0.0986	0.6706	-0.027
Mof_H 	H 	0.5841	0.125	0.7158	0.016
Mof_H 	H 	0.4445	0.2682	0.8166	0.02
Mof_H 	H 	0.3984	0.2115	0.8547	0.031
Mof_H 	H 	0.5227	0.1787	0.8097	0.002
Mof_H 	H 	0.4512	0.1314	0.7938	-0.017
Mof_H 	H 	0.9612	0.2207	0.6754	0.018
Mof_H 	H 	0.0084	0.2488	0.7784	0.077
Mof_H 	H 	0.0855	0.0618	0.8032	0.066
Mof_H 	H 	0.0383	0.0338	0.7003	0.025
Mof_H 	H 	0.3608	0.3652	0.9929	0.019
Mof_H 	H 	0.2942	0.2661	0.9746	0.092
Mof_H 	H 	0.1005	0.3684	0.9247	0.079
Mof_H 	H 	0.1671	0.4675	0.943	0.004
Mof_H 	H 	0.8831	0.1258	0.2899	0.033
Mof_H 	H 	0.9255	0.1078	0.1835	0.053
Mof_H 	H 	0.1393	0.0575	0.2508	0.054
Mof_H 	H 	0.0969	0.0756	0.3573	0.036
Mof_H 	H 	0.1344	0.7665	0.1194	0.035
Mof_H 	H 	0.0875	0.8737	0.1345	0.055
Mof_H 	H 	0.2259	0.9384	0.9882	0.075
Mof_H 	H 	0.2728	0.8312	0.9731	0.06
Mof_H 	H 	0.0473	0.0863	0.9079	0.041
Mof_H 	H 	0.1208	0.2647	0.8436	0.027
Mof_H 	H 	0.0925	0.9701	0.166	0.094
Mof_H 	H 	0.1449	0.0165	0.9797	0.089
Mof_H 	H 	0.2826	0.17	0.0267	0.001
Mof_H 	H 	0.2277	0.1278	0.0733	0.007
Mof_H 	H 	0.9156	0.181	0.0963	0.006
Mof_H 	H 	0.9534	0.155	0.0303	0.016
Mof_H 	H 	0.3303	0.1719	0.1336	0.021
Mof_H 	H 	0.3076	0.2445	0.1106	-0.017
Mof_H 	H 	0.9996	0.2558	0.0041	0.001
Mof_H 	H 	0.9122	0.2677	0.0265	0.03
Mof_H 	H 	0.3106	0.1974	0.246	0.027
Mof_H 	H 	0.2924	0.272	0.2262	-0.006
Mof_H 	H 	0.8889	0.3511	0.1061	0.033
Mof_H 	H 	0.8974	0.2848	0.1469	0.026
Mof_H 	H 	0.1891	0.1865	0.2924	0.01
Mof_H 	H 	0.231	0.249	0.3236	0.02
Mof_H 	H 	0.9851	0.4014	0.1706	-0.024
Mof_H 	H 	0.9159	0.375	0.2158	0.015
Mof_H 	H 	0.0555	0.2318	0.3166	0.007
Mof_H 	H 	0.1016	0.2885	0.3547	0.02
Mof_H 	H 	0.9773	0.3213	0.3097	0.027
Mof_H 	H 	0.0488	0.3686	0.2938	-0.008
Mof_H 	H 	0.4612	0.7207	0.8246	0.025
Mof_H 	H 	0.5084	0.7488	0.7216	0.072
Mof_H 	H 	0.5855	0.5618	0.6968	0.072
Mof_H 	H 	0.5383	0.5338	0.7997	0.029
Mof_H 	H 	0.8608	0.8652	0.5071	0.019
Mof_H 	H 	0.7942	0.7661	0.5254	0.085
Mof_H 	H 	0.6005	0.8684	0.5753	0.079
Mof_H 	H 	0.6671	0.9675	0.557	0.011
Mof_H 	H 	0.3831	0.6258	0.2101	0.012
Mof_H 	H 	0.4255	0.6078	0.3165	0.08
Mof_H 	H 	0.6393	0.5575	0.2492	0.08
Mof_H 	H 	0.5969	0.5756	0.1427	0.014
Mof_H 	H 	0.6344	0.2665	0.3806	0.024
Mof_H 	H 	0.5875	0.3737	0.3655	0.076
Mof_H 	H 	0.7259	0.4384	0.5118	0.069
Mof_H 	H 	0.7728	0.3312	0.5269	0.029
Mof_H 	H 	0.5473	0.5863	0.5921	0.05
Mof_H 	H 	0.6208	0.7647	0.6564	0.033
Mof_H 	H 	0.5925	0.4701	0.334	0.04
Mof_H 	H 	0.6449	0.5165	0.5203	0.045
Mof_H 	H 	0.7826	0.67	0.4733	0.013
Mof_H 	H 	0.7277	0.6278	0.4267	0.014
Mof_H 	H 	0.4156	0.681	0.4037	0.011
Mof_H 	H 	0.4534	0.655	0.4697	0.024
Mof_H 	H 	0.8303	0.6719	0.3664	0.025
Mof_H 	H 	0.8076	0.7445	0.3894	-0.014
Mof_H 	H 	0.4996	0.7558	0.4959	-0.001
Mof_H 	H 	0.4122	0.7677	0.4735	0.032
Mof_H 	H 	0.8106	0.6974	0.254	0.029
Mof_H 	H 	0.7924	0.772	0.2738	-0.005
Mof_H 	H 	0.3889	0.8511	0.3939	0.033
Mof_H 	H 	0.3974	0.7848	0.3531	0.022
Mof_H 	H 	0.6891	0.6865	0.2076	0.011
Mof_H 	H 	0.731	0.749	0.1764	0.021
Mof_H 	H 	0.4851	0.9014	0.3294	-0.02
Mof_H 	H 	0.4159	0.875	0.2842	0.02
Mof_H 	H 	0.5555	0.7318	0.1834	0.017
Mof_H 	H 	0.6016	0.7885	0.1453	0.028
Mof_H 	H 	0.4773	0.8213	0.1903	0.002
Mof_H 	H 	0.5488	0.8686	0.2062	-0.014
Mof_H 	H 	0.0388	0.7793	0.3246	0.027
Mof_H 	H 	0.9916	0.7512	0.2216	0.065
Mof_H 	H 	0.9145	0.9382	0.1968	0.075
Mof_H 	H 	0.9617	0.9662	0.2997	0.031
Mof_H 	H 	0.6392	0.6348	0.0071	0.018
Mof_H 	H 	0.7058	0.7339	0.0254	0.075
Mof_H 	H 	0.8995	0.6316	0.0753	0.074
Mof_H 	H 	0.8329	0.5325	0.057	0.011
Mof_H 	H 	0.1169	0.8742	0.7101	-0.001
Mof_H 	H 	0.0745	0.8922	0.8165	0.103
Mof_H 	H 	0.8607	0.9425	0.7492	0.101
Mof_H 	H 	0.9031	0.9244	0.6427	-0.003
Mof_H 	H 	0.8656	0.2335	0.8806	0.017
Mof_H 	H 	0.9125	0.1263	0.8655	0.094
Mof_H 	H 	0.7741	0.0616	0.0118	0.058
Mof_H 	H 	0.7272	0.1688	0.0269	-0.004
Mof_H 	H 	0.9527	0.9137	0.0921	0.058
Mof_H 	H 	0.8792	0.7353	0.1564	0.037
Mof_H 	H 	0.9075	0.0299	0.834	-0.003
Mof_H 	H 	0.8551	0.9835	0.0203	0.006
Mof_H 	H 	0.7174	0.83	0.9733	0.023
Mof_H 	H 	0.7723	0.8722	0.9267	0.019
Mof_H 	H 	0.0844	0.819	0.9037	0.017
Mof_H 	H 	0.0466	0.845	0.9697	0.032
Mof_H 	H 	0.6697	0.8281	0.8664	0.024
Mof_H 	H 	0.6924	0.7555	0.8894	-0.015
Mof_H 	H 	0.0004	0.7442	0.9959	-0.003
Mof_H 	H 	0.0878	0.7323	0.9735	0.034
Mof_H 	H 	0.6894	0.8026	0.754	0.029
Mof_H 	H 	0.7076	0.728	0.7738	-0.006
Mof_H 	H 	0.1111	0.6489	0.8939	0.031
Mof_H 	H 	0.1026	0.7152	0.8531	0.019
Mof_H 	H 	0.8109	0.8135	0.7076	0.012
Mof_H 	H 	0.769	0.751	0.6764	0.022
Mof_H 	H 	0.0149	0.5986	0.8294	-0.023
Mof_H 	H 	0.0841	0.625	0.7842	0.02
Mof_H 	H 	0.9445	0.7682	0.6834	0.029
Mof_H 	H 	0.8984	0.7115	0.6453	0.039
Mof_H 	H 	0.0227	0.6787	0.6903	-0.021
Mof_H 	H 	0.9512	0.6314	0.7062	-0.023
Mof_C 	C 	0.5048	0.3755	0.1779	-0.137
Mof_C 	C 	0.5137	0.3113	0.2012	0.05
Mof_C 	C 	0.4856	0.2946	0.2626	-0.132
Mof_C 	C 	0.4485	0.342	0.3007	0.066
Mof_C 	C 	0.4396	0.4061	0.2774	-0.132
Mof_C 	C 	0.4677	0.4229	0.216	0.046
Mof_C 	C 	0.5337	0.3934	0.1163	0.314
Mof_C 	C 	0.2296	0.0741	0.4697	-0.164
Mof_C 	C 	0.1917	0.1342	0.4791	0.051
Mof_C 	C 	0.2315	0.1933	0.4682	-0.165
Mof_C 	C 	0.3091	0.1923	0.4479	0.098
Mof_C 	C 	0.347	0.1322	0.4384	-0.181
Mof_C 	C 	0.3073	0.0732	0.4493	0.061
Mof_C 	C 	0.1895	0.0166	0.4838	0.294
Mof_C 	C 	0.5141	0.3976	0.8339	-0.163
Mof_C 	C 	0.5652	0.388	0.782	0.068
Mof_C 	C 	0.5399	0.3987	0.7185	-0.163
Mof_C 	C 	0.4635	0.4191	0.7069	0.096
Mof_C 	C 	0.4124	0.4287	0.7587	-0.163
Mof_C 	C 	0.4377	0.4179	0.8222	0.071
Mof_C 	C 	0.265	0.7753	0.5357	0.272
Mof_C 	C 	0.2919	0.7115	0.5448	-0.12
Mof_C 	C 	0.3471	0.6988	0.593	0.042
Mof_C 	C 	0.3751	0.6349	0.602	-0.124
Mof_C 	C 	0.3478	0.5836	0.5628	0.067
Mof_C 	C 	0.2925	0.5963	0.5147	-0.123
Mof_C 	C 	0.2646	0.6602	0.5057	0.04
Mof_C 	C 	0.5383	0.3904	0.898	0.321
Mof_C 	C 	0.3945	0.3601	0.4763	-0.038
Mof_C 	C 	0.4269	0.3733	0.4155	-0.054
Mof_C 	C 	0.4212	0.3266	0.3659	-0.025
Mof_C 	C 	0.383	0.2669	0.3771	-0.024
Mof_C 	C 	0.3507	0.2537	0.4379	-0.108
Mof_C 	C 	0.3564	0.3004	0.4875	0.155
Mof_C 	C 	0.4047	0.408	0.5301	-0.04
Mof_C 	C 	0.435	0.3901	0.5905	0.161
Mof_C 	C 	0.436	0.4357	0.6413	-0.104
Mof_C 	C 	0.4068	0.4991	0.6317	-0.027
Mof_C 	C 	0.3766	0.517	0.5713	-0.021
Mof_C 	C 	0.3756	0.4714	0.5205	-0.049
Mof_C 	C 	0.2539	0.3273	0.5634	0.04
Mof_C 	C 	0.5398	0.3141	0.5666	0.038
Mof_C 	C 	0.2134	0.2995	0.6208	0.026
Mof_C 	C 	0.5357	0.2452	0.5418	0.031
Mof_C 	C 	0.2309	0.2719	0.733	0.007
Mof_C 	C 	0.5742	0.176	0.6306	0.001
Mof_C 	C 	0.2917	0.2687	0.7833	0.035
Mof_C 	C 	0.542	0.1384	0.686	0.042
Mof_C 	C 	0.4187	0.2251	0.8121	-0.006
Mof_C 	C 	0.4729	0.1756	0.7861	0.1
Mof_C 	C 	0.9952	0.1245	0.6779	-0.122
Mof_C 	C 	0.9863	0.1887	0.7012	0.077
Mof_C 	C 	0.0144	0.2054	0.7626	-0.164
Mof_C 	C 	0.0515	0.158	0.8007	0.074
Mof_C 	C 	0.0604	0.0939	0.7774	-0.133
Mof_C 	C 	0.0323	0.0771	0.716	0.023
Mof_C 	C 	0.9663	0.1066	0.6163	0.314
Mof_C 	C 	0.2704	0.4259	0.9697	-0.181
Mof_C 	C 	0.3083	0.3658	0.9791	0.069
Mof_C 	C 	0.2685	0.3067	0.9682	-0.176
Mof_C 	C 	0.1909	0.3077	0.9479	0.115
Mof_C 	C 	0.153	0.3678	0.9384	-0.192
Mof_C 	C 	0.1927	0.4268	0.9493	0.078
Mof_C 	C 	0.3105	0.4834	0.9838	0.335
Mof_C 	C 	0.9859	0.1024	0.3339	-0.106
Mof_C 	C 	0.9348	0.112	0.282	0.01
Mof_C 	C 	0.9601	0.1013	0.2185	-0.082
Mof_C 	C 	0.0365	0.0809	0.2069	0.011
Mof_C 	C 	0.0876	0.0713	0.2587	-0.1
Mof_C 	C 	0.0623	0.0821	0.3222	-0.003
Mof_C 	C 	0.235	0.7247	0.0357	0.238
Mof_C 	C 	0.2081	0.7885	0.0448	-0.082
Mof_C 	C 	0.1529	0.8012	0.093	0.002
Mof_C 	C 	0.1249	0.8651	0.102	-0.081
Mof_C 	C 	0.1522	0.9164	0.0628	0.009
Mof_C 	C 	0.2075	0.9037	0.0147	-0.101
Mof_C 	C 	0.2354	0.8398	0.0057	-0.02
Mof_C 	C 	0.9617	0.1096	0.398	0.32
Mof_C 	C 	0.1055	0.1399	0.9763	-0.05
Mof_C 	C 	0.0731	0.1267	0.9155	-0.042
Mof_C 	C 	0.0788	0.1734	0.8659	-0.039
Mof_C 	C 	0.117	0.2331	0.8771	-0.012
Mof_C 	C 	0.1493	0.2463	0.9379	-0.124
Mof_C 	C 	0.1436	0.1996	0.9875	0.183
Mof_C 	C 	0.0953	0.092	0.0301	-0.003
Mof_C 	C 	0.065	0.1099	0.0905	0.118
Mof_C 	C 	0.064	0.0643	0.1413	-0.032
Mof_C 	C 	0.0932	0.0009	0.1317	-0.157
Mof_C 	C 	0.1234	0.983	0.0713	0.091
Mof_C 	C 	0.1244	0.0286	0.0205	-0.167
Mof_C 	C 	0.2461	0.1727	0.0634	0.052
Mof_C 	C 	0.9602	0.1859	0.0666	0.06
Mof_C 	C 	0.2866	0.2005	0.1208	0.019
Mof_C 	C 	0.9643	0.2548	0.0418	0.021
Mof_C 	C 	0.2691	0.2281	0.233	0.004
Mof_C 	C 	0.9258	0.324	0.1306	-0.006
Mof_C 	C 	0.2083	0.2313	0.2833	0.039
Mof_C 	C 	0.958	0.3616	0.186	0.058
Mof_C 	C 	0.0813	0.2749	0.3121	0.02
Mof_C 	C 	0.0271	0.3244	0.2861	0.054
Mof_C 	C 	0.4952	0.6245	0.8221	-0.134
Mof_C 	C 	0.4863	0.6887	0.7988	0.051
Mof_C 	C 	0.5144	0.7054	0.7374	-0.131
Mof_C 	C 	0.5515	0.658	0.6993	0.066
Mof_C 	C 	0.5604	0.5939	0.7226	-0.131
Mof_C 	C 	0.5323	0.5771	0.784	0.046
Mof_C 	C 	0.4663	0.6066	0.8837	0.316
Mof_C 	C 	0.7704	0.9259	0.5303	-0.173
Mof_C 	C 	0.8083	0.8658	0.5209	0.06
Mof_C 	C 	0.7685	0.8067	0.5318	-0.169
Mof_C 	C 	0.6909	0.8077	0.5521	0.102
Mof_C 	C 	0.653	0.8678	0.5616	-0.184
Mof_C 	C 	0.6927	0.9268	0.5507	0.071
Mof_C 	C 	0.8105	0.9834	0.5162	0.329
Mof_C 	C 	0.4859	0.6024	0.1661	-0.168
Mof_C 	C 	0.4348	0.612	0.218	0.071
Mof_C 	C 	0.4601	0.6013	0.2815	-0.166
Mof_C 	C 	0.5365	0.5809	0.2931	0.098
Mof_C 	C 	0.5876	0.5713	0.2413	-0.165
Mof_C 	C 	0.5623	0.5821	0.1778	0.075
Mof_C 	C 	0.735	0.2247	0.4643	0.273
Mof_C 	C 	0.7081	0.2885	0.4552	-0.12
Mof_C 	C 	0.6529	0.3012	0.407	0.043
Mof_C 	C 	0.6249	0.3651	0.398	-0.125
Mof_C 	C 	0.6522	0.4164	0.4372	0.068
Mof_C 	C 	0.7075	0.4037	0.4853	-0.123
Mof_C 	C 	0.7354	0.3398	0.4943	0.041
Mof_C 	C 	0.4617	0.6096	0.102	0.325
Mof_C 	C 	0.6055	0.6399	0.5237	-0.038
Mof_C 	C 	0.5731	0.6267	0.5845	-0.054
Mof_C 	C 	0.5788	0.6734	0.6341	-0.024
Mof_C 	C 	0.617	0.7331	0.6229	-0.023
Mof_C 	C 	0.6493	0.7463	0.5621	-0.11
Mof_C 	C 	0.6436	0.6996	0.5125	0.156
Mof_C 	C 	0.5953	0.592	0.4699	-0.04
Mof_C 	C 	0.565	0.6099	0.4095	0.162
Mof_C 	C 	0.564	0.5643	0.3587	-0.105
Mof_C 	C 	0.5932	0.5009	0.3683	-0.027
Mof_C 	C 	0.6234	0.483	0.4287	-0.021
Mof_C 	C 	0.6244	0.5286	0.4795	-0.049
Mof_C 	C 	0.7461	0.6727	0.4366	0.042
Mof_C 	C 	0.4602	0.6859	0.4334	0.039
Mof_C 	C 	0.7866	0.7005	0.3792	0.022
Mof_C 	C 	0.4643	0.7548	0.4582	0.03
Mof_C 	C 	0.7691	0.7281	0.267	0.004
Mof_C 	C 	0.4258	0.824	0.3694	0.004
Mof_C 	C 	0.7083	0.7313	0.2167	0.038
Mof_C 	C 	0.458	0.8616	0.314	0.038
Mof_C 	C 	0.5813	0.7749	0.1879	-0.003
Mof_C 	C 	0.5271	0.8244	0.2139	0.097
Mof_C 	C 	0.0048	0.8755	0.3221	-0.146
Mof_C 	C 	0.0137	0.8113	0.2988	0.025
Mof_C 	C 	0.9856	0.7946	0.2374	-0.102
Mof_C 	C 	0.9485	0.842	0.1993	0.058
Mof_C 	C 	0.9396	0.9061	0.2226	-0.13
Mof_C 	C 	0.9677	0.9229	0.284	0.065
Mof_C 	C 	0.0337	0.8934	0.3837	0.315
Mof_C 	C 	0.7296	0.5741	0.0303	-0.158
Mof_C 	C 	0.6917	0.6342	0.0209	0.043
Mof_C 	C 	0.7315	0.6933	0.0318	-0.159
Mof_C 	C 	0.8091	0.6923	0.0521	0.087
Mof_C 	C 	0.847	0.6322	0.0616	-0.174
Mof_C 	C 	0.8073	0.5732	0.0507	0.055
Mof_C 	C 	0.6895	0.5166	0.0162	0.291
Mof_C 	C 	0.0141	0.8976	0.6661	-0.214
Mof_C 	C 	0.0652	0.888	0.718	0.119
Mof_C 	C 	0.0399	0.8987	0.7815	-0.233
Mof_C 	C 	0.9635	0.9191	0.7931	0.168
Mof_C 	C 	0.9124	0.9287	0.7413	-0.217
Mof_C 	C 	0.9377	0.9179	0.6778	0.136
Mof_C 	C 	0.765	0.2753	0.9643	0.305
Mof_C 	C 	0.7919	0.2115	0.9552	-0.154
Mof_C 	C 	0.8471	0.1988	0.907	0.078
Mof_C 	C 	0.8751	0.1349	0.898	-0.162
Mof_C 	C 	0.8478	0.0836	0.9372	0.116
Mof_C 	C 	0.7925	0.0963	0.9853	-0.139
Mof_C 	C 	0.7646	0.1602	0.9943	0.098
Mof_C 	C 	0.0383	0.8904	0.602	0.326
Mof_C 	C 	0.8945	0.8601	0.0237	-0.028
Mof_C 	C 	0.9269	0.8733	0.0845	-0.065
Mof_C 	C 	0.9212	0.8266	0.1341	-0.012
Mof_C 	C 	0.883	0.7669	0.1229	-0.035
Mof_C 	C 	0.8507	0.7537	0.0621	-0.096
Mof_C 	C 	0.8564	0.8004	0.0125	0.13
Mof_C 	C 	0.9047	0.908	0.9699	-0.07
Mof_C 	C 	0.935	0.8901	0.9095	0.198
Mof_C 	C 	0.936	0.9357	0.8587	-0.164
Mof_C 	C 	0.9068	0.9991	0.8683	0.081
Mof_C 	C 	0.8766	0.017	0.9287	-0.114
Mof_C 	C 	0.8756	0.9714	0.9795	0.053
Mof_C 	C 	0.7539	0.8273	0.9366	0.031
Mof_C 	C 	0.0398	0.8141	0.9334	0.02
Mof_C 	C 	0.7134	0.7995	0.8792	0.029
Mof_C 	C 	0.0357	0.7452	0.9582	0.038
Mof_C 	C 	0.7309	0.7719	0.767	0.007
Mof_C 	C 	0.0742	0.676	0.8694	0.01
Mof_C 	C 	0.7917	0.7687	0.7167	0.034
Mof_C 	C 	0.042	0.6384	0.814	0.025
Mof_C 	C 	0.9187	0.7251	0.6879	-0.027
Mof_C 	C 	0.9729	0.6756	0.7139	0.139
Mof_O 	O 	0.5185	0.4529	0.0874	-0.406
Mof_O 	O 	0.5839	0.355	0.0817	-0.423
Mof_O 	O 	0.1192	0.0102	0.5152	-0.431
Mof_O 	O 	0.2154	0.9548	0.4693	-0.394
Mof_O 	O 	0.2086	0.7909	0.492	-0.402
Mof_O 	O 	0.2909	0.8307	0.5674	-0.254
Mof_O 	O 	0.4985	0.4083	0.9524	-0.404
Mof_O 	O 	0.6099	0.3707	0.9165	-0.415
Mof_O 	O 	0.3195	0.2864	0.546	-0.462
Mof_O 	O 	0.4665	0.328	0.601	-0.487
Mof_O 	O 	0.2696	0.2952	0.6729	-0.457
Mof_O 	O 	0.5098	0.1979	0.5872	-0.472
Mof_O 	O 	0.3558	0.228	0.7637	-0.449
Mof_O 	O 	0.4872	0.1835	0.7188	-0.486
Mof_O 	O 	0.9815	0.0471	0.5874	-0.398
Mof_O 	O 	0.9161	0.145	0.5817	-0.416
Mof_O 	O 	0.3808	0.4898	0.0152	-0.444
Mof_O 	O 	0.2846	0.5452	0.9693	-0.41
Mof_O 	O 	0.2914	0.7091	0.992	-0.381
Mof_O 	O 	0.2091	0.6693	0.0674	-0.259
Mof_O 	O 	0.0015	0.0917	0.4524	-0.428
Mof_O 	O 	0.8901	0.1293	0.4165	-0.42
Mof_O 	O 	0.1805	0.2136	0.046	-0.479
Mof_O 	O 	0.0335	0.172	0.101	-0.491
Mof_O 	O 	0.2304	0.2048	0.1729	-0.452
Mof_O 	O 	0.9902	0.3021	0.0872	-0.46
Mof_O 	O 	0.1442	0.272	0.2637	-0.451
Mof_O 	O 	0.0128	0.3165	0.2188	-0.489
Mof_O 	O 	0.4815	0.5471	0.9126	-0.397
Mof_O 	O 	0.4161	0.645	0.9183	-0.415
Mof_O 	O 	0.8808	0.9898	0.4848	-0.414
Mof_O 	O 	0.7846	0.0452	0.5307	-0.424
Mof_O 	O 	0.7914	0.2091	0.508	-0.401
Mof_O 	O 	0.7091	0.1693	0.4326	-0.26
Mof_O 	O 	0.5015	0.5917	0.0476	-0.419
Mof_O 	O 	0.3901	0.6293	0.0835	-0.429
Mof_O 	O 	0.6805	0.7136	0.454	-0.463
Mof_O 	O 	0.5335	0.672	0.399	-0.488
Mof_O 	O 	0.7304	0.7048	0.3271	-0.455
Mof_O 	O 	0.4902	0.8021	0.4128	-0.471
Mof_O 	O 	0.6442	0.772	0.2363	-0.45
Mof_O 	O 	0.5128	0.8165	0.2812	-0.484
Mof_O 	O 	0.0185	0.9529	0.4126	-0.402
Mof_O 	O 	0.0839	0.855	0.4183	-0.421
Mof_O 	O 	0.6192	0.5102	0.9848	-0.402
Mof_O 	O 	0.7154	0.4548	0.0307	-0.41
Mof_O 	O 	0.7086	0.2909	0.008	-0.422
Mof_O 	O 	0.7909	0.3307	0.9326	-0.255
Mof_O 	O 	0.9985	0.9083	0.5476	-0.395
Mof_O 	O 	0.1099	0.8707	0.5835	-0.423
Mof_O 	O 	0.8195	0.7864	0.954	-0.447
Mof_O 	O 	0.9665	0.828	0.899	-0.485
Mof_O 	O 	0.7696	0.7952	0.8271	-0.46
Mof_O 	O 	0.0098	0.6979	0.9128	-0.482
Mof_O 	O 	0.8558	0.728	0.7363	-0.448
Mof_O 	O 	0.9872	0.6835	0.7812	-0.482
_end
