data_functionalizedCrystal
_audit_creation_method	'EQeq! by Chris Wilmer'
_symmetry_space_group_name_H-M	'P1'
_symmetry_Int_Tables_number	1
_symmetry_cell_setting	triclinic
loop_
_symmetry_equiv_pos_as_xyz
  x,y,z
_cell_length_a	10.1721
_cell_length_b	11.6415
_cell_length_c	16.092
_cell_angle_alpha	90
_cell_angle_beta	90
_cell_angle_gamma	105.706
loop_
_atom_site_label
_atom_site_type_symbol
_atom_site_fract_x
_atom_site_fract_y
_atom_site_fract_z
_atom_site_charge
Mof_Li	Li	0.4051	0.3186	0.3995	3.407
Mof_Li	Li	0.5949	0.6814	0.6005	3.407
Mof_Li	Li	0.0949	0.1814	0.8995	3.371
Mof_Li	Li	0.9051	0.8186	0.1005	3.371
Mof_Y 	Y 	0.74927	0.99915	0.99702	1.527
Mof_Y 	Y 	0.25073	0.00085	0.00298	1.527
Mof_Y 	Y 	0.24927	0.49915	0.50298	1.567
Mof_Y 	Y 	0.75073	0.50085	0.49702	1.567
Mof_H 	H 	0.2166	0.7655	0.6878	-0.017
Mof_H 	H 	0.7324	0.0772	0.5199	0.008
Mof_H 	H 	0.7676	0.4228	0.0199	0.007
Mof_H 	H 	0.4654	0.4035	0.1274	-0.048
Mof_H 	H 	0.1386	0.3733	0.9862	-0.165
Mof_H 	H 	0.6386	0.8733	0.5138	-0.167
Mof_H 	H 	0.7166	0.2655	0.8122	-0.013
Mof_H 	H 	0.7014	0.4044	0.7136	0.003
Mof_H 	H 	0.9182	0.8957	0.6204	-0.058
Mof_H 	H 	0.2986	0.5956	0.2864	0.003
Mof_H 	H 	0.2001	0.2528	0.1897	-0.045
Mof_H 	H 	0.1846	0.3897	0.2901	-0.064
Mof_H 	H 	0.5818	0.6043	0.1204	-0.057
Mof_H 	H 	0.0818	0.1043	0.3796	-0.058
Mof_H 	H 	0.9654	0.9035	0.3726	-0.048
Mof_H 	H 	0.3614	0.1267	0.4862	-0.167
Mof_H 	H 	0.8614	0.6267	0.0138	-0.165
Mof_H 	H 	0.2999	0.2472	0.6897	-0.045
Mof_H 	H 	0.8154	0.6103	0.7099	-0.064
Mof_H 	H 	0.3154	0.1103	0.7901	-0.062
Mof_H 	H 	0.7986	0.0956	0.2136	0.001
Mof_H 	H 	0.7999	0.7472	0.8103	-0.045
Mof_H 	H 	0.2834	0.7345	0.1878	-0.013
Mof_H 	H 	0.2676	0.9228	0.4801	0.008
Mof_H 	H 	0.7834	0.2345	0.3122	-0.017
Mof_H 	H 	0.5346	0.5965	0.8726	-0.048
Mof_H 	H 	0.7001	0.7528	0.3103	-0.045
Mof_H 	H 	0.4182	0.3957	0.8796	-0.057
Mof_H 	H 	0.2324	0.5772	0.9801	0.007
Mof_H 	H 	0.6846	0.8897	0.2099	-0.062
Mof_H 	H 	0.2014	0.9044	0.7864	0.001
Mof_H 	H 	0.0346	0.0965	0.6274	-0.048
Mof_C 	C 	0.0677	0.1199	0.5041	-0.23
Mof_C 	C 	0.4433	0.8767	0.4973	-0.272
Mof_C 	C 	0.5125	0.5684	0.3715	0.487
Mof_C 	C 	0.8812	0.2444	0.00508	0.553
Mof_C 	C 	0.1328	0.7619	0.7123	-0.016
Mof_C 	C 	0.3763	0.6547	0.2711	0.001
Mof_C 	C 	0.1165	0.2484	0.21477	-0.027
Mof_C 	C 	0.0183	0.6725	0.68942	-0.148
Mof_C 	C 	0.5677	0.6199	0.9959	-0.228
Mof_C 	C 	0.8835	0.7516	0.78523	-0.027
Mof_C 	C 	0.9797	0.9422	0.4237	0.018
Mof_C 	C 	0.5203	0.5578	0.9237	0.019
Mof_C 	C 	0.4708	0.9169	0.12429	0.434
Mof_C 	C 	0.8763	0.1547	0.2289	0.001
Mof_C 	C 	0.3812	0.7444	0.49492	0.577
Mof_C 	C 	0.4323	0.3801	0.0041	-0.228
Mof_C 	C 	0.6188	0.2556	0.50508	0.577
Mof_C 	C 	0.4797	0.4422	0.0763	0.019
Mof_C 	C 	0.9515	0.9376	0.5722	0.013
Mof_C 	C 	0.1389	0.5464	0.9883	-0.005
Mof_C 	C 	0.9175	0.5759	0.0084	0.017
Mof_C 	C 	0.8611	0.4536	0.0117	-0.005
Mof_C 	C 	0.9875	0.9316	0.8715	0.474
Mof_C 	C 	0.5485	0.5624	0.0722	0.018
Mof_C 	C 	0.0292	0.5831	0.62429	0.439
Mof_C 	C 	0.6068	0.831	0.22582	-0.03
Mof_C 	C 	0.9708	0.4169	0.37571	0.439
Mof_C 	C 	0.8672	0.2381	0.2877	-0.016
Mof_C 	C 	0.4985	0.3417	0.69215	-0.183
Mof_C 	C 	0.363	0.2493	0.00689	0.623
Mof_C 	C 	0.9433	0.3767	0.0027	-0.266
Mof_C 	C 	0.4515	0.4376	0.9278	0.018
Mof_C 	C 	0.6328	0.2619	0.7877	-0.018
Mof_C 	C 	0.0015	0.1583	0.19215	-0.182
Mof_C 	C 	0.9323	0.8801	0.4959	-0.23
Mof_C 	C 	0.3611	0.9536	0.4883	0.001
Mof_C 	C 	0.3672	0.7381	0.2123	-0.018
Mof_C 	C 	0.6165	0.7484	0.28523	-0.024
Mof_C 	C 	0.3835	0.2516	0.71477	-0.024
Mof_C 	C 	0.863	0.7493	0.49311	0.632
Mof_C 	C 	0.0203	0.0578	0.5763	0.018
Mof_C 	C 	0.3932	0.169	0.77418	-0.03
Mof_C 	C 	0.5183	0.1725	0.81058	-0.144
Mof_C 	C 	0.6389	0.0464	0.5117	0.001
Mof_C 	C 	0.9985	0.8417	0.80785	-0.182
Mof_C 	C 	0.0125	0.0684	0.1285	0.474
Mof_C 	C 	0.5825	0.9241	0.5084	0.015
Mof_C 	C 	0.5015	0.6583	0.30785	-0.183
Mof_C 	C 	0.0567	0.6233	0.9973	-0.266
Mof_C 	C 	0.4817	0.8275	0.18942	-0.144
Mof_C 	C 	0.9817	0.3275	0.31058	-0.148
Mof_C 	C 	0.137	0.2507	0.50689	0.632
Mof_C 	C 	0.1237	0.8453	0.7711	0.001
Mof_C 	C 	0.8932	0.669	0.72582	-0.027
Mof_C 	C 	0.637	0.7507	0.99311	0.623
Mof_C 	C 	0.4875	0.4316	0.6285	0.487
Mof_C 	C 	0.0825	0.4241	0.9916	0.017
Mof_C 	C 	0.5567	0.1233	0.5027	-0.272
Mof_C 	C 	0.5292	0.0831	0.87571	0.434
Mof_C 	C 	0.1068	0.331	0.27418	-0.027
Mof_C 	C 	0.0485	0.0624	0.4278	0.013
Mof_C 	C 	0.1188	0.7556	0.99492	0.553
Mof_C 	C 	0.4175	0.0759	0.4916	0.015
Mof_C 	C 	0.6237	0.3453	0.7289	0.001
Mof_O 	O 	0.733	0.7949	0.04294	-1.139
Mof_O 	O 	0.9031	0.6834	0.44256	-0.477
Mof_O 	O 	0.5595	0.3247	0.46887	-1.18
Mof_O 	O 	0.6285	0.5665	0.39629	-0.61
Mof_O 	O 	0.3535	0.9287	0.10905	-0.476
Mof_O 	O 	0.7303	0.2987	0.5414	-0.442
Mof_O 	O 	0.3715	0.4335	0.60371	-0.61
Mof_O 	O 	0.9033	0.9944	0.10352	-1.026
Mof_O 	O 	0.9405	0.1753	0.96887	-1.142
Mof_O 	O 	0.4226	0.0247	0.91164	-0.457
Mof_O 	O 	0.767	0.7051	0.54294	-1.155
Mof_O 	O 	0.0967	0.0056	0.89648	-1.026
Mof_O 	O 	0.4031	0.1834	0.05744	-0.475
Mof_O 	O 	0.5774	0.9753	0.08836	-0.457
Mof_O 	O 	0.6465	0.0713	0.89095	-0.476
Mof_O 	O 	0.1285	0.0665	0.10371	-0.607
Mof_O 	O 	0.4405	0.6753	0.53113	-1.18
Mof_O 	O 	0.0969	0.3166	0.55744	-0.477
Mof_O 	O 	0.0595	0.8247	0.03113	-1.142
Mof_O 	O 	0.9226	0.5247	0.58836	-0.468
Mof_O 	O 	0.2303	0.7987	0.9586	-0.437
Mof_O 	O 	0.233	0.2949	0.45706	-1.155
Mof_O 	O 	0.8715	0.9335	0.89629	-0.607
Mof_O 	O 	0.0774	0.4753	0.41164	-0.468
Mof_O 	O 	0.267	0.2051	0.95706	-1.139
Mof_O 	O 	0.2697	0.7013	0.4586	-0.442
Mof_O 	O 	0.5967	0.5056	0.60352	-1.041
Mof_O 	O 	0.7697	0.2013	0.0414	-0.437
Mof_O 	O 	0.5969	0.8166	0.94256	-0.475
Mof_O 	O 	0.8535	0.4287	0.39095	-0.492
Mof_O 	O 	0.4033	0.4944	0.39648	-1.041
Mof_O 	O 	0.1465	0.5713	0.60905	-0.492
_end
