data_functionalizedCrystal
_audit_creation_method	'EQeq! by Chris Wilmer'
_symmetry_space_group_name_H-M	'P1'
_symmetry_Int_Tables_number	1
_symmetry_cell_setting	triclinic
loop_
_symmetry_equiv_pos_as_xyz
  x,y,z
_cell_length_a	15.282
_cell_length_b	15.436
_cell_length_c	24.6098
_cell_angle_alpha	106.579
_cell_angle_beta	108.089
_cell_angle_gamma	90
loop_
_atom_site_label
_atom_site_type_symbol
_atom_site_fract_x
_atom_site_fract_y
_atom_site_fract_z
_atom_site_charge
Mof_Zn	Zn	0.64674	0.92791	0.8012	1.213
Mof_Zn	Zn	0.07857	0.36719	0.66864	1.217
Mof_Zn	Zn	0.15446	0.42791	0.8012	1.213
Mof_Zn	Zn	0.59007	0.86719	0.66864	1.217
Mof_H 	H 	0.3325	0.6506	0.814	0.053
Mof_H 	H 	0.4377	0.7586	0.8128	0.054
Mof_H 	H 	0.3537	0.668	0.6314	0.056
Mof_H 	H 	0.2498	0.5589	0.632	0.059
Mof_H 	H 	0.7506	0.6493	0.6564	0.054
Mof_H 	H 	0.8535	0.5389	0.652	0.06
Mof_H 	H 	0.9368	0.6016	0.8338	0.06
Mof_H 	H 	0.8309	0.7102	0.8368	0.055
Mof_H 	H 	0.7617	0.8923	0.915	-0.007
Mof_H 	H 	0.7963	0.9504	0.0176	0.116
Mof_H 	H 	0.6448	0.159	0.9908	0.113
Mof_H 	H 	0.6114	0.0912	0.8876	-0.003
Mof_H 	H 	0.6417	0.9953	0.1816	0.057
Mof_H 	H 	0.6874	0.0461	0.2868	0.06
Mof_H 	H 	0.9585	0.3701	0.289	0.06
Mof_H 	H 	0.9074	0.3226	0.1834	0.061
Mof_H 	H 	0.9662	0.4479	0.577	0.004
Mof_H 	H 	0.8877	0.4093	0.4752	0.117
Mof_H 	H 	0.9587	0.1535	0.4608	0.119
Mof_H 	H 	0.0371	0.1997	0.5632	-0.01
Mof_H 	H 	0.4815	0.1506	0.814	0.054
Mof_H 	H 	0.3751	0.2586	0.8128	0.055
Mof_H 	H 	0.2777	0.168	0.6314	0.057
Mof_H 	H 	0.3822	0.0589	0.632	0.06
Mof_H 	H 	0.9058	0.1493	0.6564	0.054
Mof_H 	H 	0.7985	0.0389	0.652	0.061
Mof_H 	H 	0.897	0.1016	0.8338	0.06
Mof_H 	H 	0.0059	0.2102	0.8368	0.055
Mof_H 	H 	0.1533	0.3923	0.915	-0.006
Mof_H 	H 	0.2213	0.4504	0.0176	0.116
Mof_H 	H 	0.346	0.659	0.9908	0.113
Mof_H 	H 	0.2762	0.5912	0.8876	-0.003
Mof_H 	H 	0.5399	0.4953	0.1816	0.056
Mof_H 	H 	0.5994	0.5461	0.2868	0.06
Mof_H 	H 	0.3305	0.8701	0.289	0.06
Mof_H 	H 	0.276	0.8226	0.1834	0.061
Mof_H 	H 	0.6108	0.9479	0.577	0.004
Mof_H 	H 	0.5875	0.9093	0.4752	0.117
Mof_H 	H 	0.5021	0.6535	0.4608	0.119
Mof_H 	H 	0.5261	0.6997	0.5632	-0.01
Mof_C 	C 	0.21463	0.5237	0.72446	0.366
Mof_C 	C 	0.2806	0.5939	0.723	-0.072
Mof_C 	C 	0.33696	0.6538	0.77692	-0.018
Mof_C 	C 	0.39958	0.7178	0.77616	-0.012
Mof_C 	C 	0.40738	0.7232	0.72216	-0.075
Mof_C 	C 	0.34996	0.6639	0.66852	-0.009
Mof_C 	C 	0.28791	0.5996	0.66882	-0.015
Mof_C 	C 	0.47868	0.7902	0.72296	0.376
Mof_C 	C 	0.7205	0.7665	0.7478	0.37
Mof_C 	C 	0.78228	0.6915	0.74656	-0.076
Mof_C 	C 	0.78897	0.6398	0.69234	-0.007
Mof_C 	C 	0.85019	0.5746	0.68958	-0.02
Mof_C 	C 	0.90827	0.5611	0.74314	-0.068
Mof_C 	C 	0.89953	0.6116	0.79766	-0.019
Mof_C 	C 	0.83679	0.6763	0.79958	-0.009
Mof_C 	C 	0.98253	0.4968	0.74106	0.37
Mof_C 	C 	0.73626	0.9462	0.93052	0.123
Mof_C 	C 	0.75796	0.9805	0.99172	-0.198
Mof_C 	C 	0.72266	0.0599	0.01452	0.209
Mof_C 	C 	0.66829	0.1033	0.97598	-0.184
Mof_C 	C 	0.64917	0.0623	0.91454	0.116
Mof_C 	C 	0.7006	0.0506	0.1064	0.211
Mof_C 	C 	0.72468	0.0876	0.17236	-0.056
Mof_C 	C 	0.6871	0.0456	0.2032	-0.021
Mof_C 	C 	0.71439	0.0756	0.26598	-0.023
Mof_C 	C 	0.78059	0.1485	0.29738	-0.054
Mof_C 	C 	0.81216	0.1775	0.36332	0.211
Mof_C 	C 	0.91962	0.3007	0.36424	0.216
Mof_C 	C 	0.88452	0.2711	0.29784	-0.053
Mof_C 	C 	0.91586	0.3176	0.26752	-0.021
Mof_C 	C 	0.88573	0.2887	0.20406	-0.022
Mof_C 	C 	0.82584	0.2125	0.17248	-0.056
Mof_C 	C 	0.80111	0.1787	0.10642	0.218
Mof_C 	C 	0.78914	0.164	0.20348	0.03
Mof_C 	C 	0.81776	0.1951	0.26672	0.031
Mof_C 	C 	0.96517	0.3874	0.55294	0.119
Mof_C 	C 	0.91891	0.3654	0.49242	-0.193
Mof_C 	C 	0.91896	0.2774	0.45692	0.21
Mof_C 	C 	0.96077	0.2149	0.48374	-0.2
Mof_C 	C 	0.00631	0.2428	0.54502	0.121
Mof_C 	C 	0.50983	0.0237	0.72446	0.366
Mof_C 	C 	0.4424	0.0939	0.723	-0.072
Mof_C 	C 	0.43996	0.1538	0.77692	-0.018
Mof_C 	C 	0.37658	0.2178	0.77616	-0.012
Mof_C 	C 	0.31478	0.2232	0.72216	-0.075
Mof_C 	C 	0.31856	0.1639	0.66852	-0.009
Mof_C 	C 	0.38091	0.0996	0.66882	-0.015
Mof_C 	C 	0.24428	0.2902	0.72296	0.376
Mof_C 	C 	0.0273	0.2665	0.7478	0.37
Mof_C 	C 	0.96428	0.1915	0.74656	-0.076
Mof_C 	C 	0.90337	0.1398	0.69234	-0.007
Mof_C 	C 	0.83939	0.0746	0.68958	-0.021
Mof_C 	C 	0.83487	0.0611	0.74314	-0.067
Mof_C 	C 	0.89813	0.1116	0.79766	-0.02
Mof_C 	C 	0.96279	0.1763	0.79958	-0.007
Mof_C 	C 	0.75853	0.9968	0.74106	0.369
Mof_C 	C 	0.19426	0.4462	0.93052	0.123
Mof_C 	C 	0.23376	0.4805	0.99172	-0.198
Mof_C 	C 	0.29186	0.5599	0.01452	0.209
Mof_C 	C 	0.30769	0.6033	0.97598	-0.184
Mof_C 	C 	0.26537	0.5623	0.91454	0.115
Mof_C 	C 	0.4058	0.5506	0.1064	0.212
Mof_C 	C 	0.44768	0.5876	0.17236	-0.056
Mof_C 	C 	0.5161	0.5456	0.2032	-0.021
Mof_C 	C 	0.55159	0.5756	0.26598	-0.024
Mof_C 	C 	0.51679	0.6485	0.29738	-0.053
Mof_C 	C 	0.55116	0.6775	0.36332	0.211
Mof_C 	C 	0.44462	0.8007	0.36424	0.216
Mof_C 	C 	0.41332	0.7711	0.29784	-0.053
Mof_C 	C 	0.35166	0.8176	0.26752	-0.021
Mof_C 	C 	0.31833	0.7887	0.20406	-0.022
Mof_C 	C 	0.34664	0.7125	0.17248	-0.056
Mof_C 	C 	0.30531	0.6787	0.10642	0.218
Mof_C 	C 	0.41434	0.664	0.20348	0.03
Mof_C 	C 	0.44896	0.6951	0.26672	0.031
Mof_C 	C 	0.58777	0.8874	0.55294	0.119
Mof_C 	C 	0.57351	0.8654	0.49242	-0.193
Mof_C 	C 	0.53796	0.7774	0.45692	0.21
Mof_C 	C 	0.52297	0.7149	0.48374	-0.201
Mof_C 	C 	0.53871	0.7428	0.54502	0.122
Mof_N 	N 	0.68145	0.9843	0.8917	-0.263
Mof_N 	N 	0.00887	0.3279	0.57974	-0.263
Mof_N 	N 	0.74199	0.0979	0.07818	-0.192
Mof_N 	N 	0.87903	0.2527	0.39286	-0.191
Mof_N 	N 	0.21025	0.4843	0.8917	-0.262
Mof_N 	N 	0.57087	0.8279	0.57974	-0.263
Mof_N 	N 	0.33619	0.5979	0.07818	-0.192
Mof_N 	N 	0.51383	0.7527	0.39286	-0.192
Mof_O 	O 	0.21384	0.5207	0.77528	-0.46
Mof_O 	O 	0.16343	0.4726	0.67466	-0.442
Mof_O 	O 	0.52969	0.8401	0.77298	-0.46
Mof_O 	O 	0.4854	0.7902	0.673	-0.438
Mof_O 	O 	0.72089	0.8171	0.79898	-0.433
Mof_O 	O 	0.67495	0.7773	0.6985	-0.465
Mof_O 	O 	0.0368	0.4937	0.7904	-0.449
Mof_O 	O 	0.98555	0.4546	0.6899	-0.452
Mof_O 	O 	0.64726	0.983	0.07652	-0.217
Mof_O 	O 	0.83158	0.2149	0.07816	-0.22
Mof_O 	O 	0.78401	0.1387	0.39242	-0.219
Mof_O 	O 	0.97931	0.3625	0.39282	-0.224
Mof_O 	O 	0.56144	0.0207	0.77528	-0.46
Mof_O 	O 	0.51123	0.9726	0.67466	-0.442
Mof_O 	O 	0.24329	0.3401	0.77298	-0.46
Mof_O 	O 	0.1876	0.2902	0.673	-0.438
Mof_O 	O 	0.07809	0.3171	0.79898	-0.433
Mof_O 	O 	0.02355	0.2773	0.6985	-0.465
Mof_O 	O 	0.7536	0.9937	0.7904	-0.449
Mof_O 	O 	0.70435	0.9546	0.6899	-0.452
Mof_O 	O 	0.42926	0.483	0.07652	-0.218
Mof_O 	O 	0.24658	0.7149	0.07816	-0.22
Mof_O 	O 	0.60841	0.6387	0.39242	-0.219
Mof_O 	O 	0.41351	0.8625	0.39282	-0.224
Mof_Zn	Zn	0.84554	0.57209	0.1988	1.214
Mof_Zn	Zn	0.40993	0.13281	0.33136	1.218
Mof_Zn	Zn	0.35326	0.07209	0.1988	1.214
Mof_Zn	Zn	0.92143	0.63281	0.33136	1.218
Mof_H 	H 	0.5185	0.8494	0.186	0.054
Mof_H 	H 	0.6249	0.7414	0.1872	0.055
Mof_H 	H 	0.7223	0.832	0.3686	0.057
Mof_H 	H 	0.6178	0.9411	0.368	0.06
Mof_H 	H 	0.0942	0.8507	0.3436	0.054
Mof_H 	H 	0.2015	0.9611	0.348	0.061
Mof_H 	H 	0.103	0.8984	0.1662	0.06
Mof_H 	H 	0.9941	0.7898	0.1632	0.055
Mof_H 	H 	0.8467	0.6077	0.085	-0.006
Mof_H 	H 	0.7787	0.5496	0.9824	0.116
Mof_H 	H 	0.654	0.341	0.0092	0.113
Mof_H 	H 	0.7238	0.4088	0.1124	-0.003
Mof_H 	H 	0.4601	0.5047	0.8184	0.056
Mof_H 	H 	0.4006	0.4539	0.7132	0.06
Mof_H 	H 	0.6695	0.1299	0.711	0.06
Mof_H 	H 	0.724	0.1774	0.8166	0.061
Mof_H 	H 	0.3892	0.0521	0.423	0.004
Mof_H 	H 	0.4125	0.0907	0.5248	0.117
Mof_H 	H 	0.4979	0.3465	0.5392	0.119
Mof_H 	H 	0.4739	0.3003	0.4368	-0.01
Mof_H 	H 	0.6675	0.3494	0.186	0.054
Mof_H 	H 	0.5623	0.2414	0.1872	0.055
Mof_H 	H 	0.6463	0.332	0.3686	0.057
Mof_H 	H 	0.7502	0.4411	0.368	0.06
Mof_H 	H 	0.2494	0.3507	0.3436	0.054
Mof_H 	H 	0.1465	0.4611	0.348	0.06
Mof_H 	H 	0.0632	0.3984	0.1662	0.06
Mof_H 	H 	0.1691	0.2898	0.1632	0.055
Mof_H 	H 	0.2383	0.1077	0.085	-0.007
Mof_H 	H 	0.2037	0.0496	0.9824	0.116
Mof_H 	H 	0.3552	0.841	0.0092	0.113
Mof_H 	H 	0.3886	0.9088	0.1124	-0.003
Mof_H 	H 	0.3583	0.0047	0.8184	0.057
Mof_H 	H 	0.3126	0.9539	0.7132	0.06
Mof_H 	H 	0.0415	0.6299	0.711	0.06
Mof_H 	H 	0.0926	0.6774	0.8166	0.061
Mof_H 	H 	0.0338	0.5521	0.423	0.004
Mof_H 	H 	0.1123	0.5907	0.5248	0.117
Mof_H 	H 	0.0413	0.8465	0.5392	0.119
Mof_H 	H 	0.9629	0.8003	0.4368	-0.01
Mof_C 	C 	0.49017	0.9763	0.27554	0.366
Mof_C 	C 	0.5576	0.9061	0.277	-0.072
Mof_C 	C 	0.56004	0.8462	0.22308	-0.018
Mof_C 	C 	0.62342	0.7822	0.22384	-0.012
Mof_C 	C 	0.68522	0.7768	0.27784	-0.075
Mof_C 	C 	0.68144	0.8361	0.33148	-0.009
Mof_C 	C 	0.61909	0.9004	0.33118	-0.015
Mof_C 	C 	0.75572	0.7098	0.27704	0.376
Mof_C 	C 	0.9727	0.7335	0.2522	0.37
Mof_C 	C 	0.03572	0.8085	0.25344	-0.076
Mof_C 	C 	0.09663	0.8602	0.30766	-0.007
Mof_C 	C 	0.16061	0.9254	0.31042	-0.021
Mof_C 	C 	0.16513	0.9389	0.25686	-0.067
Mof_C 	C 	0.10187	0.8884	0.20234	-0.02
Mof_C 	C 	0.03721	0.8237	0.20042	-0.007
Mof_C 	C 	0.24147	0.0032	0.25894	0.369
Mof_C 	C 	0.80574	0.5538	0.06948	0.123
Mof_C 	C 	0.76624	0.5195	0.00828	-0.198
Mof_C 	C 	0.70814	0.4401	0.98548	0.209
Mof_C 	C 	0.69231	0.3967	0.02402	-0.184
Mof_C 	C 	0.73463	0.4377	0.08546	0.115
Mof_C 	C 	0.5942	0.4494	0.8936	0.212
Mof_C 	C 	0.55232	0.4124	0.82764	-0.056
Mof_C 	C 	0.4839	0.4544	0.7968	-0.021
Mof_C 	C 	0.44841	0.4244	0.73402	-0.024
Mof_C 	C 	0.48321	0.3515	0.70262	-0.053
Mof_C 	C 	0.44884	0.3225	0.63668	0.211
Mof_C 	C 	0.55538	0.1993	0.63576	0.216
Mof_C 	C 	0.58668	0.2289	0.70216	-0.053
Mof_C 	C 	0.64834	0.1824	0.73248	-0.021
Mof_C 	C 	0.68167	0.2113	0.79594	-0.022
Mof_C 	C 	0.65336	0.2875	0.82752	-0.056
Mof_C 	C 	0.69469	0.3213	0.89358	0.218
Mof_C 	C 	0.58566	0.336	0.79652	0.03
Mof_C 	C 	0.55104	0.3049	0.73328	0.031
Mof_C 	C 	0.41223	0.1126	0.44706	0.119
Mof_C 	C 	0.42649	0.1346	0.50758	-0.193
Mof_C 	C 	0.46204	0.2226	0.54308	0.21
Mof_C 	C 	0.47703	0.2851	0.51626	-0.201
Mof_C 	C 	0.46129	0.2572	0.45498	0.122
Mof_C 	C 	0.78537	0.4763	0.27554	0.366
Mof_C 	C 	0.7194	0.4061	0.277	-0.072
Mof_C 	C 	0.66304	0.3462	0.22308	-0.018
Mof_C 	C 	0.60042	0.2822	0.22384	-0.012
Mof_C 	C 	0.59262	0.2768	0.27784	-0.075
Mof_C 	C 	0.65004	0.3361	0.33148	-0.009
Mof_C 	C 	0.71209	0.4004	0.33118	-0.015
Mof_C 	C 	0.52132	0.2098	0.27704	0.376
Mof_C 	C 	0.2795	0.2335	0.2522	0.37
Mof_C 	C 	0.21772	0.3085	0.25344	-0.076
Mof_C 	C 	0.21103	0.3602	0.30766	-0.007
Mof_C 	C 	0.14981	0.4254	0.31042	-0.02
Mof_C 	C 	0.09173	0.4389	0.25686	-0.068
Mof_C 	C 	0.10047	0.3884	0.20234	-0.019
Mof_C 	C 	0.16321	0.3237	0.20042	-0.009
Mof_C 	C 	0.01747	0.5032	0.25894	0.37
Mof_C 	C 	0.26374	0.0538	0.06948	0.123
Mof_C 	C 	0.24204	0.0195	0.00828	-0.198
Mof_C 	C 	0.27734	0.9401	0.98548	0.209
Mof_C 	C 	0.33171	0.8967	0.02402	-0.184
Mof_C 	C 	0.35083	0.9377	0.08546	0.116
Mof_C 	C 	0.2994	0.9494	0.8936	0.211
Mof_C 	C 	0.27532	0.9124	0.82764	-0.056
Mof_C 	C 	0.3129	0.9544	0.7968	-0.021
Mof_C 	C 	0.28561	0.9244	0.73402	-0.023
Mof_C 	C 	0.21941	0.8515	0.70262	-0.054
Mof_C 	C 	0.18784	0.8225	0.63668	0.211
Mof_C 	C 	0.08038	0.6993	0.63576	0.216
Mof_C 	C 	0.11548	0.7289	0.70216	-0.053
Mof_C 	C 	0.08414	0.6824	0.73248	-0.021
Mof_C 	C 	0.11427	0.7113	0.79594	-0.022
Mof_C 	C 	0.17416	0.7875	0.82752	-0.056
Mof_C 	C 	0.19889	0.8213	0.89358	0.218
Mof_C 	C 	0.21086	0.836	0.79652	0.03
Mof_C 	C 	0.18224	0.8049	0.73328	0.031
Mof_C 	C 	0.03483	0.6126	0.44706	0.119
Mof_C 	C 	0.08109	0.6346	0.50758	-0.193
Mof_C 	C 	0.08104	0.7226	0.54308	0.21
Mof_C 	C 	0.03923	0.7851	0.51626	-0.2
Mof_C 	C 	0.99369	0.7572	0.45498	0.121
Mof_N 	N 	0.78975	0.5157	0.1083	-0.262
Mof_N 	N 	0.42913	0.1721	0.42026	-0.263
Mof_N 	N 	0.66381	0.4021	0.92182	-0.192
Mof_N 	N 	0.48617	0.2473	0.60714	-0.192
Mof_N 	N 	0.31855	0.0157	0.1083	-0.263
Mof_N 	N 	0.99113	0.6721	0.42026	-0.263
Mof_N 	N 	0.25801	0.9021	0.92182	-0.192
Mof_N 	N 	0.12097	0.7473	0.60714	-0.191
Mof_O 	O 	0.43856	0.9793	0.22472	-0.46
Mof_O 	O 	0.48877	0.0274	0.32534	-0.442
Mof_O 	O 	0.75671	0.6599	0.22702	-0.46
Mof_O 	O 	0.8124	0.7098	0.327	-0.438
Mof_O 	O 	0.92191	0.6829	0.20102	-0.433
Mof_O 	O 	0.97645	0.7227	0.3015	-0.465
Mof_O 	O 	0.2464	0.0063	0.2096	-0.449
Mof_O 	O 	0.29565	0.0454	0.3101	-0.452
Mof_O 	O 	0.57074	0.517	0.92348	-0.218
Mof_O 	O 	0.75342	0.2851	0.92184	-0.22
Mof_O 	O 	0.39159	0.3613	0.60758	-0.219
Mof_O 	O 	0.58649	0.1375	0.60718	-0.224
Mof_O 	O 	0.78616	0.4793	0.22472	-0.46
Mof_O 	O 	0.83657	0.5274	0.32534	-0.442
Mof_O 	O 	0.47031	0.1599	0.22702	-0.46
Mof_O 	O 	0.5146	0.2098	0.327	-0.438
Mof_O 	O 	0.27911	0.1829	0.20102	-0.433
Mof_O 	O 	0.32505	0.2227	0.3015	-0.465
Mof_O 	O 	0.9632	0.5063	0.2096	-0.449
Mof_O 	O 	0.01445	0.5454	0.3101	-0.452
Mof_O 	O 	0.35274	0.017	0.92348	-0.217
Mof_O 	O 	0.16842	0.7851	0.92184	-0.22
Mof_O 	O 	0.21599	0.8613	0.60758	-0.219
Mof_O 	O 	0.02069	0.6375	0.60718	-0.224
_end
