data_functionalizedCrystal
_audit_creation_method	'EQeq! by Chris Wilmer'
_symmetry_space_group_name_H-M	'P1'
_symmetry_Int_Tables_number	1
_symmetry_cell_setting	triclinic
loop_
_symmetry_equiv_pos_as_xyz
  x,y,z
_cell_length_a	17.483
_cell_length_b	26.4797
_cell_length_c	26.4797
_cell_angle_alpha	120
_cell_angle_beta	90
_cell_angle_gamma	90
loop_
_atom_site_label
_atom_site_type_symbol
_atom_site_fract_x
_atom_site_fract_y
_atom_site_fract_z
_atom_site_charge
Mof_In	In	0.74903	0.39303	0.33378	4.738
Mof_In	In	0.75248	0.94158	0.60866	4.724
Mof_In	In	0.74799	0.66523	0.05812	4.756
Mof_In	In	0.25242	0.05788	0.66529	4.729
Mof_In	In	0.25199	0.33355	0.39232	4.723
Mof_In	In	0.24762	0.60798	0.94116	4.74
Mof_H 	H 	0.81101	0.15536	0.062	0.051
Mof_H 	H 	0.81113	0.25402	0.14541	0.045
Mof_H 	H 	0.83849	0.38777	0.49815	0.04
Mof_H 	H 	0.837	0.41956	0.60245	0.05
Mof_H 	H 	0.66476	0.54758	0.6303	0.052
Mof_H 	H 	0.66625	0.5153	0.52578	0.042
Mof_H 	H 	0.62706	0.51259	0.69691	0.048
Mof_H 	H 	0.53973	0.4782	0.73737	0.049
Mof_H 	H 	0.41465	0.49838	0.78452	0.05
Mof_H 	H 	0.51312	0.63614	0.94277	0.054
Mof_H 	H 	0.63833	0.61783	0.8951	0.073
Mof_H 	H 	0.81515	0.90673	0.84611	0.05
Mof_H 	H 	0.8156	0.89186	0.74754	0.045
Mof_H 	H 	0.84274	0.11065	0.61283	0.039
Mof_H 	H 	0.84082	0.18322	0.58111	0.05
Mof_H 	H 	0.66362	0.08576	0.45682	0.052
Mof_H 	H 	0.66582	0.0132	0.48879	0.042
Mof_H 	H 	0.629	0.18942	0.49291	0.048
Mof_H 	H 	0.5445	0.26664	0.52824	0.05
Mof_H 	H 	0.41994	0.29572	0.50926	0.049
Mof_H 	H 	0.51779	0.31171	0.36866	0.056
Mof_H 	H 	0.64228	0.28093	0.38617	0.066
Mof_H 	H 	0.80213	0.94201	0.10129	0.05
Mof_H 	H 	0.80146	0.85839	0.11619	0.042
Mof_H 	H 	0.62793	0.30159	0.80841	0.049
Mof_H 	H 	0.54576	0.25941	0.72988	0.049
Mof_H 	H 	0.42116	0.21144	0.70048	0.049
Mof_H 	H 	0.51792	0.05536	0.68645	0.056
Mof_H 	H 	0.64235	0.10358	0.71761	0.066
Mof_H 	H 	0.67305	0.19726	0.24253	0.042
Mof_H 	H 	0.66877	0.0987	0.15786	0.05
Mof_H 	H 	0.87203	0.50593	0.69728	0.049
Mof_H 	H 	0.95447	0.46995	0.73976	0.049
Mof_H 	H 	0.07915	0.48895	0.78769	0.049
Mof_H 	H 	0.9825	0.63186	0.94316	0.054
Mof_H 	H 	0.85804	0.61441	0.89499	0.068
Mof_H 	H 	0.67594	0.04495	0.8043	0.042
Mof_H 	H 	0.67124	0.05838	0.90261	0.05
Mof_H 	H 	0.87416	0.18858	0.49237	0.049
Mof_H 	H 	0.9599	0.26468	0.52657	0.049
Mof_H 	H 	0.08508	0.29075	0.50543	0.05
Mof_H 	H 	0.98703	0.30583	0.36435	0.054
Mof_H 	H 	0.86187	0.27718	0.38356	0.068
Mof_H 	H 	0.68987	0.75483	0.95057	0.041
Mof_H 	H 	0.6838	0.83943	0.93722	0.05
Mof_H 	H 	0.66859	0.50143	0.88625	0.036
Mof_H 	H 	0.67009	0.39698	0.81399	0.05
Mof_H 	H 	0.82705	0.36718	0.92197	0.052
Mof_H 	H 	0.8248	0.47195	0.99454	0.039
Mof_H 	H 	0.87269	0.302	0.8174	0.048
Mof_H 	H 	0.96019	0.26225	0.74154	0.049
Mof_H 	H 	0.08536	0.2151	0.71389	0.05
Mof_H 	H 	0.9874	0.05655	0.69302	0.055
Mof_H 	H 	0.86223	0.10422	0.72302	0.069
Mof_H 	H 	0.18532	0.95186	0.75688	0.042
Mof_H 	H 	0.18319	0.93849	0.84186	0.049
Mof_H 	H 	0.37126	0.80911	0.30131	0.049
Mof_H 	H 	0.45443	0.7315	0.25902	0.05
Mof_H 	H 	0.57897	0.7028	0.21116	0.049
Mof_H 	H 	0.48199	0.68868	0.05509	0.053
Mof_H 	H 	0.35748	0.71949	0.10334	0.066
Mof_H 	H 	0.31218	0.06061	0.15574	0.05
Mof_H 	H 	0.31156	0.14417	0.25433	0.045
Mof_H 	H 	0.17936	0.2424	0.19564	0.043
Mof_H 	H 	0.17599	0.1577	0.09708	0.05
Mof_H 	H 	0.3745	0.69666	0.50851	0.049
Mof_H 	H 	0.46041	0.73846	0.47432	0.049
Mof_H 	H 	0.58563	0.78561	0.49555	0.05
Mof_H 	H 	0.4875	0.9419	0.63639	0.055
Mof_H 	H 	0.3623	0.89411	0.61709	0.069
Mof_H 	H 	0.18453	0.84263	0.90228	0.05
Mof_H 	H 	0.18793	0.74411	0.88745	0.046
Mof_H 	H 	0.15855	0.61337	0.11085	0.04
Mof_H 	H 	0.15981	0.58164	0.18341	0.05
Mof_H 	H 	0.33219	0.45365	0.08351	0.052
Mof_H 	H 	0.33087	0.48583	0.01118	0.042
Mof_H 	H 	0.36983	0.48897	0.18522	0.048
Mof_H 	H 	0.45694	0.52404	0.26079	0.049
Mof_H 	H 	0.5822	0.50373	0.28755	0.05
Mof_H 	H 	0.48414	0.36489	0.30645	0.055
Mof_H 	H 	0.35894	0.38322	0.27706	0.07
Mof_H 	H 	0.31537	0.09638	0.93894	0.05
Mof_H 	H 	0.31363	0.11084	0.85497	0.045
Mof_H 	H 	0.33897	0.88783	0.49983	0.04
Mof_H 	H 	0.33647	0.8157	0.39544	0.05
Mof_H 	H 	0.16342	0.91634	0.36914	0.052
Mof_H 	H 	0.16615	0.98842	0.47379	0.042
Mof_H 	H 	0.12606	0.81384	0.30104	0.048
Mof_H 	H 	0.04127	0.73554	0.25856	0.05
Mof_H 	H 	0.91719	0.70617	0.21014	0.051
Mof_H 	H 	0.01464	0.69285	0.05454	0.053
Mof_H 	H 	0.13894	0.72445	0.10362	0.069
Mof_H 	H 	0.34222	0.49823	0.38788	0.04
Mof_H 	H 	0.34061	0.6025	0.41956	0.05
Mof_H 	H 	0.16421	0.62977	0.54455	0.052
Mof_H 	H 	0.16616	0.52524	0.51263	0.042
Mof_H 	H 	0.12935	0.69713	0.50805	0.048
Mof_H 	H 	0.04497	0.73891	0.47253	0.05
Mof_H 	H 	0.92039	0.78694	0.49154	0.049
Mof_H 	H 	0.01828	0.94358	0.63205	0.055
Mof_H 	H 	0.14279	0.89533	0.6145	0.066
Mof_H 	H 	0.31277	0.80608	0.04808	0.042
Mof_H 	H 	0.31316	0.90467	0.06192	0.049
Mof_H 	H 	0.12483	0.49518	0.19203	0.049
Mof_H 	H 	0.04222	0.53121	0.27051	0.049
Mof_H 	H 	0.91749	0.51184	0.29903	0.049
Mof_H 	H 	0.01446	0.36909	0.31172	0.055
Mof_H 	H 	0.13909	0.38701	0.28149	0.065
Mof_H 	H 	0.73912	0.08603	0.98693	0.047
Mof_H 	H 	0.74727	0.55764	0.8562	0.072
Mof_H 	H 	0.7444	0.90045	0.91527	0.046
Mof_H 	H 	0.75224	0.29966	0.44405	0.064
Mof_H 	H 	0.73739	0.01473	0.10122	0.046
Mof_H 	H 	0.75344	0.1431	0.70033	0.065
Mof_H 	H 	0.2445	0.10009	0.01353	0.046
Mof_H 	H 	0.24762	0.70078	0.14207	0.065
Mof_H 	H 	0.23899	0.98615	0.08539	0.047
Mof_H 	H 	0.25276	0.85608	0.55654	0.065
Mof_H 	H 	0.25667	0.91445	0.90004	0.047
Mof_H 	H 	0.24995	0.44469	0.30018	0.064
Mof_C 	C 	0.7792	0.16367	0.10046	-0.073
Mof_C 	C 	0.77995	0.22038	0.14861	0.038
Mof_C 	C 	0.80004	0.42245	0.52647	0.035
Mof_C 	C 	0.7996	0.44111	0.5865	-0.072
Mof_C 	C 	0.70267	0.51237	0.60198	-0.072
Mof_C 	C 	0.70387	0.49413	0.54202	0.037
Mof_C 	C 	0.67982	0.51777	0.72038	-0.062
Mof_C 	C 	0.6772	0.53612	0.78063	0.021
Mof_C 	C 	0.60047	0.54673	0.8116	0.024
Mof_C 	C 	0.53524	0.51345	0.78199	-0.068
Mof_C 	C 	0.46304	0.52462	0.80928	0.031
Mof_C 	C 	0.45311	0.56904	0.86752	-0.101
Mof_C 	C 	0.51827	0.60149	0.89788	0.034
Mof_C 	C 	0.59056	0.59069	0.87042	-0.065
Mof_C 	C 	0.37514	0.58242	0.89574	0.479
Mof_C 	C 	0.78311	0.93679	0.83781	-0.073
Mof_C 	C 	0.78403	0.92845	0.78116	0.038
Mof_C 	C 	0.80314	0.10485	0.57895	0.035
Mof_C 	C 	0.80237	0.14629	0.56039	-0.072
Mof_C 	C 	0.70271	0.09201	0.49119	-0.072
Mof_C 	C 	0.70434	0.05011	0.50923	0.037
Mof_C 	C 	0.68226	0.20602	0.48617	-0.062
Mof_C 	C 	0.6808	0.2478	0.46755	0.021
Mof_C 	C 	0.60475	0.27019	0.45835	0.025
Mof_C 	C 	0.53997	0.27576	0.49283	-0.067
Mof_C 	C 	0.46813	0.29316	0.4824	0.031
Mof_C 	C 	0.45813	0.30609	0.43734	-0.103
Mof_C 	C 	0.52298	0.3023	0.40388	0.034
Mof_C 	C 	0.59492	0.28475	0.41419	-0.065
Mof_C 	C 	0.38011	0.32	0.42298	0.484
Mof_C 	C 	0.77551	0.90219	0.06839	-0.072
Mof_C 	C 	0.77602	0.85391	0.07686	0.037
Mof_C 	C 	0.68151	0.27841	0.79282	-0.062
Mof_C 	C 	0.68095	0.21807	0.75104	0.021
Mof_C 	C 	0.60536	0.18624	0.7274	0.025
Mof_C 	C 	0.54098	0.21498	0.72103	-0.067
Mof_C 	C 	0.46914	0.1872	0.70347	0.031
Mof_C 	C 	0.4588	0.12944	0.69112	-0.103
Mof_C 	C 	0.52338	0.09983	0.69542	0.034
Mof_C 	C 	0.59529	0.12763	0.71317	-0.065
Mof_C 	C 	0.38067	0.10144	0.6776	0.485
Mof_C 	C 	0.70306	0.18843	0.20315	0.037
Mof_C 	C 	0.70118	0.13175	0.15458	-0.072
Mof_C 	C 	0.81848	0.51326	0.72043	-0.062
Mof_C 	C 	0.81926	0.53241	0.78088	0.023
Mof_C 	C 	0.89495	0.54104	0.81264	0.026
Mof_C 	C 	0.95931	0.50583	0.78404	-0.067
Mof_C 	C 	0.03118	0.51628	0.81178	0.031
Mof_C 	C 	0.04152	0.56205	0.86937	-0.103
Mof_C 	C 	0.977	0.5961	0.89883	0.035
Mof_C 	C 	0.90507	0.58581	0.87106	-0.064
Mof_C 	C 	0.11958	0.57668	0.89739	0.485
Mof_C 	C 	0.70626	0.0145	0.81309	0.037
Mof_C 	C 	0.70418	0.02235	0.86966	-0.072
Mof_C 	C 	0.82109	0.20609	0.48655	-0.062
Mof_C 	C 	0.82302	0.24715	0.46715	0.021
Mof_C 	C 	0.89949	0.26773	0.45647	0.023
Mof_C 	C 	0.96454	0.27273	0.49045	-0.068
Mof_C 	C 	0.03677	0.28827	0.47868	0.03
Mof_C 	C 	0.04681	0.30023	0.433	-0.1
Mof_C 	C 	0.98178	0.29697	0.39994	0.033
Mof_C 	C 	0.90952	0.28078	0.41127	-0.061
Mof_C 	C 	0.12473	0.3144	0.41891	0.477
Mof_C 	C 	0.71419	0.79571	0.98375	0.037
Mof_C 	C 	0.71149	0.84442	0.97598	-0.072
Mof_C 	C 	0.7038	0.47267	0.89439	0.037
Mof_C 	C 	0.70413	0.41262	0.85319	-0.072
Mof_C 	C 	0.79237	0.39603	0.91352	-0.072
Mof_C 	C 	0.79075	0.45604	0.95532	0.037
Mof_C 	C 	0.82011	0.27853	0.79843	-0.062
Mof_C 	C 	0.823	0.21851	0.75584	0.021
Mof_C 	C 	0.89981	0.18776	0.73549	0.023
Mof_C 	C 	0.96488	0.21754	0.73187	-0.068
Mof_C 	C 	0.03709	0.19027	0.7154	0.03
Mof_C 	C 	0.04714	0.13193	0.70123	-0.1
Mof_C 	C 	0.98215	0.1015	0.70347	0.034
Mof_C 	C 	0.90989	0.12894	0.72048	-0.061
Mof_C 	C 	0.12504	0.10361	0.68592	0.478
Mof_C 	C 	0.21366	0.98368	0.79654	0.037
Mof_C 	C 	0.21305	0.97588	0.8453	-0.072
Mof_C 	C 	0.31787	0.79289	0.27804	-0.062
Mof_C 	C 	0.31905	0.75173	0.21756	0.021
Mof_C 	C 	0.39474	0.72908	0.18591	0.026
Mof_C 	C 	0.45916	0.72293	0.21468	-0.069
Mof_C 	C 	0.53093	0.70579	0.18697	0.036
Mof_C 	C 	0.54105	0.6935	0.12923	-0.112
Mof_C 	C 	0.47653	0.69763	0.09955	0.037
Mof_C 	C 	0.40466	0.71514	0.12737	-0.067
Mof_C 	C 	0.61903	0.67968	0.1014	0.498
Mof_C 	C 	0.28153	0.09939	0.16361	-0.072
Mof_C 	C 	0.28183	0.14761	0.22028	0.038
Mof_C 	C 	0.20823	0.20276	0.18727	0.037
Mof_C 	C 	0.20688	0.15414	0.13058	-0.072
Mof_C 	C 	0.32146	0.72003	0.51431	-0.062
Mof_C 	C 	0.32346	0.78047	0.53361	0.021
Mof_C 	C 	0.39995	0.81168	0.54429	0.023
Mof_C 	C 	0.46504	0.78265	0.51041	-0.067
Mof_C 	C 	0.53729	0.80992	0.52222	0.03
Mof_C 	C 	0.54732	0.86759	0.56788	-0.1
Mof_C 	C 	0.48225	0.89744	0.60083	0.034
Mof_C 	C 	0.40996	0.86996	0.58943	-0.06
Mof_C 	C 	0.62525	0.89581	0.58203	0.477
Mof_C 	C 	0.21403	0.83552	0.93412	-0.072
Mof_C 	C 	0.21541	0.77888	0.92574	0.038
Mof_C 	C 	0.19698	0.57871	0.10455	0.035
Mof_C 	C 	0.19728	0.56008	0.14595	-0.072
Mof_C 	C 	0.29427	0.48883	0.09032	-0.072
Mof_C 	C 	0.29319	0.50702	0.04855	0.037
Mof_C 	C 	0.31707	0.48381	0.20353	-0.062
Mof_C 	C 	0.31976	0.46566	0.24557	0.021
Mof_C 	C 	0.39653	0.455	0.26576	0.023
Mof_C 	C 	0.46162	0.48855	0.26979	-0.068
Mof_C 	C 	0.53388	0.47729	0.28575	0.03
Mof_C 	C 	0.54392	0.43255	0.2991	-0.1
Mof_C 	C 	0.47889	0.3998	0.29659	0.034
Mof_C 	C 	0.40661	0.4106	0.27995	-0.061
Mof_C 	C 	0.62181	0.41906	0.31391	0.478
Mof_C 	C 	0.28548	0.06483	0.90006	-0.073
Mof_C 	C 	0.28509	0.07299	0.85163	0.038
Mof_C 	C 	0.30014	0.89443	0.47186	0.035
Mof_C 	C 	0.29907	0.85323	0.41176	-0.072
Mof_C 	C 	0.20172	0.90929	0.39715	-0.072
Mof_C 	C 	0.20364	0.95092	0.45719	0.037
Mof_C 	C 	0.17915	0.79624	0.27776	-0.062
Mof_C 	C 	0.17722	0.75456	0.21737	0.021
Mof_C 	C 	0.10121	0.73339	0.18577	0.024
Mof_C 	C 	0.0367	0.72709	0.21425	-0.069
Mof_C 	C 	0.96522	0.70955	0.18617	0.034
Mof_C 	C 	0.95535	0.69702	0.12827	-0.106
Mof_C 	C 	0.01988	0.70184	0.09902	0.036
Mof_C 	C 	0.09151	0.71988	0.12731	-0.061
Mof_C 	C 	0.87737	0.68203	0.10026	0.49
Mof_C 	C 	0.30289	0.52639	0.4219	0.035
Mof_C 	C 	0.30229	0.58639	0.44045	-0.072
Mof_C 	C 	0.20308	0.60155	0.51004	-0.072
Mof_C 	C 	0.20456	0.54161	0.49203	0.037
Mof_C 	C 	0.18263	0.72044	0.51473	-0.062
Mof_C 	C 	0.18125	0.78078	0.53321	0.021
Mof_C 	C 	0.10523	0.81238	0.54237	0.025
Mof_C 	C 	0.04045	0.78346	0.50793	-0.067
Mof_C 	C 	0.9686	0.81127	0.51837	0.031
Mof_C 	C 	0.9586	0.86925	0.56342	-0.103
Mof_C 	C 	0.02347	0.89895	0.59684	0.034
Mof_C 	C 	0.09541	0.87112	0.58651	-0.065
Mof_C 	C 	0.88057	0.89748	0.57784	0.484
Mof_C 	C 	0.28491	0.81371	0.01596	0.037
Mof_C 	C 	0.28451	0.87039	0.02403	-0.072
Mof_C 	C 	0.17841	0.48806	0.20798	-0.062
Mof_C 	C 	0.17769	0.46913	0.24947	0.021
Mof_C 	C 	0.10196	0.46029	0.27244	0.025
Mof_C 	C 	0.03746	0.4953	0.27887	-0.067
Mof_C 	C 	0.96554	0.48461	0.2959	0.031
Mof_C 	C 	0.95523	0.43876	0.3076	-0.102
Mof_C 	C 	0.0199	0.40488	0.30318	0.034
Mof_C 	C 	0.09191	0.41544	0.286	-0.065
Mof_C 	C 	0.87712	0.42402	0.32088	0.484
Mof_C 	C 	0.73946	0.04865	0.99313	-0.06
Mof_C 	C 	0.73872	0.05755	0.05033	0.017
Mof_C 	C 	0.73943	0.11832	0.10235	0.029
Mof_C 	C 	0.74215	0.23342	0.20055	-0.11
Mof_C 	C 	0.74393	0.29381	0.25135	0.492
Mof_C 	C 	0.75189	0.42808	0.4392	0.496
Mof_C 	C 	0.75217	0.44861	0.50331	-0.117
Mof_C 	C 	0.75062	0.48625	0.62532	0.028
Mof_C 	C 	0.74961	0.50594	0.68964	0.019
Mof_C 	C 	0.74783	0.54395	0.81033	-0.066
Mof_C 	C 	0.74231	0.94385	0.95275	-0.059
Mof_C 	C 	0.74122	0.99217	0.94382	0.017
Mof_C 	C 	0.74277	0.98368	0.88311	0.029
Mof_C 	C 	0.74585	0.96724	0.76812	-0.111
Mof_C 	C 	0.74758	0.95789	0.7078	0.493
Mof_C 	C 	0.75471	0.01226	0.57386	0.497
Mof_C 	C 	0.75428	0.05609	0.55362	-0.117
Mof_C 	C 	0.75197	0.14072	0.51626	0.028
Mof_C 	C 	0.75164	0.18504	0.49616	0.018
Mof_C 	C 	0.75205	0.26741	0.45769	-0.064
Mof_C 	C 	0.73869	0.00824	0.05758	-0.059
Mof_C 	C 	0.74095	0.95091	0.00932	0.017
Mof_C 	C 	0.74258	0.89865	0.01799	0.029
Mof_C 	C 	0.74587	0.80008	0.03449	-0.106
Mof_C 	C 	0.74706	0.74892	0.04343	0.485
Mof_C 	C 	0.74757	0.55954	0.98897	0.492
Mof_C 	C 	0.74714	0.49531	0.94599	-0.114
Mof_C 	C 	0.7489	0.3733	0.8618	0.028
Mof_C 	C 	0.75022	0.3091	0.81704	0.018
Mof_C 	C 	0.75254	0.18879	0.73315	-0.064
Mof_C 	C 	0.24538	0.05659	0.00748	-0.059
Mof_C 	C 	0.24821	0.00814	0.95033	0.016
Mof_C 	C 	0.24905	0.01632	0.89797	0.029
Mof_C 	C 	0.2493	0.03252	0.79929	-0.11
Mof_C 	C 	0.24952	0.04175	0.74823	0.492
Mof_C 	C 	0.25339	0.98752	0.55969	0.497
Mof_C 	C 	0.25257	0.94393	0.49551	-0.117
Mof_C 	C 	0.24966	0.8598	0.3733	0.028
Mof_C 	C 	0.24877	0.81561	0.30878	0.018
Mof_C 	C 	0.24795	0.73319	0.18792	-0.064
Mof_C 	C 	0.24393	0.99232	0.04811	-0.06
Mof_C 	C 	0.24402	0.04952	0.05691	0.016
Mof_C 	C 	0.24376	0.10158	0.11769	0.029
Mof_C 	C 	0.24548	0.19991	0.23279	-0.11
Mof_C 	C 	0.247	0.25085	0.29315	0.492
Mof_C 	C 	0.25445	0.43902	0.42718	0.497
Mof_C 	C 	0.25418	0.50309	0.44744	-0.117
Mof_C 	C 	0.2522	0.62505	0.48475	0.028
Mof_C 	C 	0.25197	0.68944	0.50477	0.018
Mof_C 	C 	0.25252	0.81021	0.543	-0.064
Mof_C 	C 	0.25064	0.95174	0.94338	-0.06
Mof_C 	C 	0.24787	0.94296	0.99174	0.016
Mof_C 	C 	0.24887	0.88232	0.98326	0.028
Mof_C 	C 	0.25066	0.76728	0.96656	-0.11
Mof_C 	C 	0.25085	0.70698	0.95725	0.492
Mof_C 	C 	0.24525	0.57303	0.01166	0.497
Mof_C 	C 	0.24494	0.55253	0.05528	-0.117
Mof_C 	C 	0.24624	0.51497	0.13974	0.028
Mof_C 	C 	0.24725	0.49543	0.18449	0.018
Mof_C 	C 	0.2492	0.45797	0.26765	-0.064
Mof_O 	O 	0.36258	0.61886	0.94844	-0.867
Mof_O 	O 	0.31328	0.55973	0.86982	-0.844
Mof_O 	O 	0.36698	0.3295	0.38187	-0.868
Mof_O 	O 	0.31845	0.32079	0.44802	-0.841
Mof_O 	O 	0.36738	0.05099	0.66848	-0.87
Mof_O 	O 	0.31906	0.12588	0.67704	-0.842
Mof_O 	O 	0.13275	0.61824	0.94772	-0.872
Mof_O 	O 	0.1812	0.55156	0.87313	-0.844
Mof_O 	O 	0.13704	0.32968	0.38171	-0.864
Mof_O 	O 	0.18674	0.31158	0.44169	-0.839
Mof_O 	O 	0.13755	0.05091	0.66967	-0.865
Mof_O 	O 	0.18687	0.12938	0.68867	-0.841
Mof_O 	O 	0.6327	0.66761	0.05014	-0.881
Mof_O 	O 	0.68028	0.68103	0.12676	-0.854
Mof_O 	O 	0.63755	0.94829	0.61924	-0.864
Mof_O 	O 	0.68728	0.87021	0.55927	-0.839
Mof_O 	O 	0.63403	0.38293	0.33059	-0.866
Mof_O 	O 	0.6839	0.44127	0.31026	-0.841
Mof_O 	O 	0.86309	0.66766	0.04819	-0.877
Mof_O 	O 	0.81658	0.68437	0.12668	-0.856
Mof_O 	O 	0.86746	0.94812	0.61891	-0.869
Mof_O 	O 	0.81889	0.87313	0.55292	-0.84
Mof_O 	O 	0.86386	0.38225	0.32932	-0.87
Mof_O 	O 	0.81555	0.4494	0.32213	-0.843
Mof_O 	O 	0.76532	0.33741	0.24839	-0.892
Mof_O 	O 	0.72487	0.30799	0.3025	-0.863
Mof_O 	O 	0.77725	0.37988	0.40042	-0.877
Mof_O 	O 	0.7255	0.45629	0.41668	-0.889
Mof_O 	O 	0.76888	0.91145	0.66404	-0.89
Mof_O 	O 	0.72843	0.995	0.69382	-0.861
Mof_O 	O 	0.78051	0.02148	0.62188	-0.876
Mof_O 	O 	0.72853	0.96148	0.54558	-0.886
Mof_O 	O 	0.74857	0.75238	0.09244	-0.886
Mof_O 	O 	0.74667	0.69674	0.00304	-0.864
Mof_O 	O 	0.73862	0.59828	0.97556	-0.875
Mof_O 	O 	0.75728	0.58224	0.04298	-0.883
Mof_O 	O 	0.2693	0.08844	0.75079	-0.89
Mof_O 	O 	0.23062	0.00428	0.6972	-0.862
Mof_O 	O 	0.27905	0.97784	0.59823	-0.875
Mof_O 	O 	0.22783	0.03852	0.58255	-0.887
Mof_O 	O 	0.26787	0.24802	0.33693	-0.89
Mof_O 	O 	0.22827	0.30201	0.30712	-0.86
Mof_O 	O 	0.28003	0.40021	0.37909	-0.875
Mof_O 	O 	0.22831	0.41654	0.45549	-0.887
Mof_O 	O 	0.23136	0.66283	0.91047	-0.892
Mof_O 	O 	0.26952	0.69345	0.99478	-0.864
Mof_O 	O 	0.22007	0.62128	0.02112	-0.877
Mof_O 	O 	0.27136	0.54473	0.96083	-0.889
_end
