data_functionalizedCrystal
_audit_creation_method	'EQeq! by Chris Wilmer'
_symmetry_space_group_name_H-M	'P1'
_symmetry_Int_Tables_number	1
_symmetry_cell_setting	triclinic
loop_
_symmetry_equiv_pos_as_xyz
  x,y,z
_cell_length_a	17.8372
_cell_length_b	21.164
_cell_length_c	21.721
_cell_angle_alpha	90
_cell_angle_beta	90.3
_cell_angle_gamma	90
loop_
_atom_site_label
_atom_site_type_symbol
_atom_site_fract_x
_atom_site_fract_y
_atom_site_fract_z
_atom_site_charge
Mof_Cd	Cd	0.60199	0.34068	0.51448	0.465
Mof_Cd	Cd	0.20036	0.91585	0.48289	0.398
Mof_Cd	Cd	0.39801	0.84068	0.98552	0.465
Mof_Cd	Cd	0.79964	0.41585	0.01711	0.398
Mof_Cd	Cd	0.39801	0.65932	0.48552	0.465
Mof_Cd	Cd	0.79964	0.08415	0.51711	0.398
Mof_Cd	Cd	0.60199	0.15932	0.01448	0.465
Mof_Cd	Cd	0.20036	0.58415	0.98289	0.398
Mof_H 	H 	0.3815	0.8945	0.5086	0.058
Mof_H 	H 	0.413	0.9621	0.5293	0.055
Mof_H 	H 	0.3184	0.9721	0.6036	0.048
Mof_H 	H 	0.3629	0.9075	0.6152	0.052
Mof_H 	H 	0.3128	0.8186	0.5567	0.059
Mof_H 	H 	0.2784	0.8125	0.6241	0.055
Mof_H 	H 	0.2156	0.744	0.5583	0.074
Mof_H 	H 	0.1582	0.7967	0.5818	0.051
Mof_H 	H 	0.2899	0.7845	0.4657	0.076
Mof_H 	H 	0.2289	0.7344	0.4425	0.073
Mof_H 	H 	0.2773	0.7915	0.3605	0.059
Mof_H 	H 	0.1889	0.8019	0.3664	0.044
Mof_H 	H 	0.3539	0.8613	0.4168	0.064
Mof_H 	H 	0.3501	0.8886	0.3483	0.058
Mof_H 	H 	0.4045	0.9626	0.4157	0.05
Mof_H 	H 	0.3291	0.9905	0.3858	0.05
Mof_H 	H 	0.4434	0.1865	0.4023	0.015
Mof_H 	H 	0.3537	0.1076	0.403	0.087
Mof_H 	H 	0.4004	0.0678	0.5791	0.086
Mof_H 	H 	0.4857	0.1495	0.5817	0.011
Mof_H 	H 	0.276	0.0394	0.5308	0.086
Mof_H 	H 	0.2654	0.0511	0.4589	0.091
Mof_H 	H 	0.2454	0.8099	0.8096	0.017
Mof_H 	H 	0.1967	0.82	0.7132	0.077
Mof_H 	H 	0.2778	0.9995	0.7014	0.075
Mof_H 	H 	0.3188	0.9915	0.8032	0.033
Mof_H 	H 	0.1569	0.8899	0.6293	0.081
Mof_H 	H 	0.1905	0.9598	0.625	0.089
Mof_H 	H 	0.9579	0.9441	0.4184	0.024
Mof_H 	H 	0.0458	0.8654	0.4008	0.076
Mof_H 	H 	0.0303	0.8135	0.581	0.073
Mof_H 	H 	0.9421	0.8941	0.5959	0.023
Mof_H 	H 	0.0969	0.7455	0.5062	0.076
Mof_H 	H 	0.1024	0.7659	0.4354	0.075
Mof_H 	H 	0.2342	0.8058	0.1574	0.014
Mof_H 	H 	0.1858	0.8221	0.2552	0.078
Mof_H 	H 	0.3016	0.9843	0.2687	0.082
Mof_H 	H 	0.3564	0.9658	0.1729	0.027
Mof_H 	H 	0.2133	0.9613	0.3447	0.091
Mof_H 	H 	0.1571	0.9033	0.3355	0.081
Mof_H 	H 	0.6185	0.3945	0.9914	0.057
Mof_H 	H 	0.587	0.4621	0.9707	0.054
Mof_H 	H 	0.6816	0.4721	0.8964	0.048
Mof_H 	H 	0.6371	0.4075	0.8848	0.052
Mof_H 	H 	0.6872	0.3186	0.9433	0.059
Mof_H 	H 	0.7216	0.3125	0.8759	0.056
Mof_H 	H 	0.7844	0.244	0.9417	0.074
Mof_H 	H 	0.8418	0.2967	0.9182	0.051
Mof_H 	H 	0.7101	0.2845	0.0343	0.076
Mof_H 	H 	0.7711	0.2344	0.0575	0.073
Mof_H 	H 	0.7227	0.2915	0.1395	0.059
Mof_H 	H 	0.8111	0.3019	0.1336	0.044
Mof_H 	H 	0.6461	0.3613	0.0832	0.064
Mof_H 	H 	0.6499	0.3886	0.1517	0.058
Mof_H 	H 	0.5955	0.4626	0.0843	0.05
Mof_H 	H 	0.6709	0.4905	0.1142	0.05
Mof_H 	H 	0.5566	0.6865	0.0977	0.015
Mof_H 	H 	0.6463	0.6076	0.097	0.087
Mof_H 	H 	0.5996	0.5678	0.9209	0.086
Mof_H 	H 	0.5143	0.6495	0.9183	0.011
Mof_H 	H 	0.724	0.5394	0.9692	0.087
Mof_H 	H 	0.7346	0.5511	0.0411	0.091
Mof_H 	H 	0.7546	0.3099	0.6904	0.017
Mof_H 	H 	0.8033	0.32	0.7868	0.077
Mof_H 	H 	0.7222	0.4995	0.7986	0.075
Mof_H 	H 	0.6812	0.4915	0.6968	0.033
Mof_H 	H 	0.8431	0.3899	0.8707	0.081
Mof_H 	H 	0.8095	0.4598	0.875	0.089
Mof_H 	H 	0.0421	0.4441	0.0816	0.024
Mof_H 	H 	0.9542	0.3654	0.0992	0.076
Mof_H 	H 	0.9697	0.3135	0.919	0.073
Mof_H 	H 	0.0579	0.3941	0.9041	0.023
Mof_H 	H 	0.9031	0.2455	0.9938	0.077
Mof_H 	H 	0.8976	0.2659	0.0646	0.075
Mof_H 	H 	0.7658	0.3058	0.3426	0.014
Mof_H 	H 	0.8142	0.3221	0.2448	0.078
Mof_H 	H 	0.6984	0.4843	0.2313	0.082
Mof_H 	H 	0.6436	0.4658	0.3271	0.027
Mof_H 	H 	0.7867	0.4613	0.1553	0.091
Mof_H 	H 	0.8429	0.4033	0.1645	0.081
Mof_H 	H 	0.6185	0.1055	0.4914	0.057
Mof_H 	H 	0.587	0.0379	0.4707	0.054
Mof_H 	H 	0.6816	0.0279	0.3964	0.048
Mof_H 	H 	0.6371	0.0925	0.3848	0.052
Mof_H 	H 	0.6872	0.1814	0.4433	0.059
Mof_H 	H 	0.7216	0.1875	0.3759	0.055
Mof_H 	H 	0.7844	0.256	0.4417	0.074
Mof_H 	H 	0.8418	0.2033	0.4182	0.051
Mof_H 	H 	0.7101	0.2155	0.5343	0.076
Mof_H 	H 	0.7711	0.2656	0.5575	0.073
Mof_H 	H 	0.7227	0.2085	0.6395	0.059
Mof_H 	H 	0.8111	0.1981	0.6336	0.044
Mof_H 	H 	0.6461	0.1387	0.5832	0.064
Mof_H 	H 	0.6499	0.1114	0.6517	0.058
Mof_H 	H 	0.5955	0.0374	0.5843	0.05
Mof_H 	H 	0.6709	0.0095	0.6142	0.05
Mof_H 	H 	0.5566	0.8135	0.5977	0.015
Mof_H 	H 	0.6463	0.8924	0.597	0.087
Mof_H 	H 	0.5996	0.9322	0.4209	0.086
Mof_H 	H 	0.5143	0.8505	0.4183	0.011
Mof_H 	H 	0.724	0.9606	0.4692	0.086
Mof_H 	H 	0.7346	0.9489	0.5411	0.091
Mof_H 	H 	0.7546	0.1901	0.1904	0.017
Mof_H 	H 	0.8033	0.18	0.2868	0.077
Mof_H 	H 	0.7222	0.0005	0.2986	0.075
Mof_H 	H 	0.6812	0.0085	0.1968	0.033
Mof_H 	H 	0.8431	0.1101	0.3707	0.081
Mof_H 	H 	0.8095	0.0402	0.375	0.089
Mof_H 	H 	0.0421	0.0559	0.5816	0.024
Mof_H 	H 	0.9542	0.1346	0.5992	0.076
Mof_H 	H 	0.9697	0.1865	0.419	0.073
Mof_H 	H 	0.0579	0.1059	0.4041	0.023
Mof_H 	H 	0.9031	0.2545	0.4938	0.076
Mof_H 	H 	0.8976	0.2341	0.5646	0.075
Mof_H 	H 	0.7658	0.1942	0.8426	0.014
Mof_H 	H 	0.8142	0.1779	0.7448	0.078
Mof_H 	H 	0.6984	0.0157	0.7313	0.082
Mof_H 	H 	0.6436	0.0342	0.8271	0.027
Mof_H 	H 	0.7867	0.0387	0.6553	0.091
Mof_H 	H 	0.8429	0.0967	0.6645	0.081
Mof_H 	H 	0.3815	0.6055	0.0086	0.057
Mof_H 	H 	0.413	0.5379	0.0293	0.054
Mof_H 	H 	0.3184	0.5279	0.1036	0.048
Mof_H 	H 	0.3629	0.5925	0.1152	0.052
Mof_H 	H 	0.3128	0.6814	0.0567	0.059
Mof_H 	H 	0.2784	0.6875	0.1241	0.056
Mof_H 	H 	0.2156	0.756	0.0583	0.074
Mof_H 	H 	0.1582	0.7033	0.0818	0.051
Mof_H 	H 	0.2899	0.7155	0.9657	0.076
Mof_H 	H 	0.2289	0.7656	0.9425	0.073
Mof_H 	H 	0.2773	0.7085	0.8605	0.059
Mof_H 	H 	0.1889	0.6981	0.8664	0.044
Mof_H 	H 	0.3539	0.6387	0.9168	0.064
Mof_H 	H 	0.3501	0.6114	0.8483	0.058
Mof_H 	H 	0.4045	0.5374	0.9157	0.05
Mof_H 	H 	0.3291	0.5095	0.8858	0.05
Mof_H 	H 	0.4434	0.3135	0.9023	0.015
Mof_H 	H 	0.3537	0.3924	0.903	0.087
Mof_H 	H 	0.4004	0.4322	0.0791	0.086
Mof_H 	H 	0.4857	0.3505	0.0817	0.011
Mof_H 	H 	0.276	0.4606	0.0308	0.087
Mof_H 	H 	0.2654	0.4489	0.9589	0.091
Mof_H 	H 	0.2454	0.6901	0.3096	0.017
Mof_H 	H 	0.1967	0.68	0.2132	0.077
Mof_H 	H 	0.2778	0.5005	0.2014	0.075
Mof_H 	H 	0.3188	0.5085	0.3032	0.033
Mof_H 	H 	0.1569	0.6101	0.1293	0.081
Mof_H 	H 	0.1905	0.5402	0.125	0.089
Mof_H 	H 	0.9579	0.5559	0.9184	0.024
Mof_H 	H 	0.0458	0.6346	0.9008	0.076
Mof_H 	H 	0.0303	0.6865	0.081	0.073
Mof_H 	H 	0.9421	0.6059	0.0959	0.023
Mof_H 	H 	0.0969	0.7545	0.0062	0.077
Mof_H 	H 	0.1024	0.7341	0.9354	0.075
Mof_H 	H 	0.2342	0.6942	0.6574	0.014
Mof_H 	H 	0.1858	0.6779	0.7552	0.078
Mof_H 	H 	0.3016	0.5157	0.7687	0.082
Mof_H 	H 	0.3564	0.5342	0.6729	0.027
Mof_H 	H 	0.2133	0.5387	0.8447	0.091
Mof_H 	H 	0.1571	0.5967	0.8355	0.081
Mof_C 	C 	0.3669	0.9367	0.5241	-0.073
Mof_C 	C 	0.3283	0.9295	0.5866	-0.065
Mof_C 	C 	0.2678	0.8273	0.5818	-0.057
Mof_C 	C 	0.2031	0.7895	0.5561	-0.082
Mof_C 	C 	0.2392	0.7801	0.4476	-0.082
Mof_C 	C 	0.2378	0.8108	0.3864	-0.057
Mof_C 	C 	0.3294	0.8933	0.3902	-0.07
Mof_C 	C 	0.3493	0.958	0.4141	-0.067
Mof_C 	C 	0.5265	0.2312	0.4963	0.354
Mof_C 	C 	0.4743	0.1755	0.4921	-0.147
Mof_C 	C 	0.4343	0.1631	0.4388	0.084
Mof_C 	C 	0.3809	0.116	0.4398	-0.175
Mof_C 	C 	0.3648	0.0804	0.4912	0.144
Mof_C 	C 	0.4074	0.0929	0.5433	-0.177
Mof_C 	C 	0.4595	0.1404	0.5445	0.083
Mof_C 	C 	0.3014	0.0363	0.4905	-0.18
Mof_C 	C 	0.3285	0.8891	0.8799	0.336
Mof_C 	C 	0.293	0.8968	0.816	-0.108
Mof_C 	C 	0.2529	0.8482	0.7878	0.063
Mof_C 	C 	0.2242	0.8541	0.7305	-0.154
Mof_C 	C 	0.234	0.9089	0.6959	0.115
Mof_C 	C 	0.2711	0.9612	0.7237	-0.14
Mof_C 	C 	0.2974	0.9557	0.7834	0.047
Mof_C 	C 	0.2037	0.915	0.6325	-0.161
Mof_C 	C 	0.8929	0.9821	0.5189	0.308
Mof_C 	C 	0.9451	0.9287	0.5087	-0.119
Mof_C 	C 	0.9738	0.9182	0.4517	0.064
Mof_C 	C 	0.0255	0.8708	0.4408	-0.147
Mof_C 	C 	0.0476	0.8312	0.4884	0.108
Mof_C 	C 	0.0161	0.8402	0.5477	-0.139
Mof_C 	C 	0.9644	0.8886	0.5566	0.056
Mof_C 	C 	0.1062	0.7816	0.4782	-0.156
Mof_C 	C 	0.3321	0.8721	0.0917	0.337
Mof_C 	C 	0.2989	0.8849	0.1541	-0.122
Mof_C 	C 	0.249	0.8422	0.1801	0.067
Mof_C 	C 	0.2204	0.8516	0.2386	-0.157
Mof_C 	C 	0.242	0.9042	0.2734	0.129
Mof_C 	C 	0.2894	0.9468	0.2469	-0.159
Mof_C 	C 	0.3205	0.9369	0.1887	0.066
Mof_C 	C 	0.2107	0.9155	0.3359	-0.17
Mof_C 	C 	0.6331	0.4367	0.9759	-0.073
Mof_C 	C 	0.6717	0.4295	0.9134	-0.065
Mof_C 	C 	0.7322	0.3273	0.9182	-0.057
Mof_C 	C 	0.7969	0.2895	0.9439	-0.082
Mof_C 	C 	0.7608	0.2801	0.0524	-0.082
Mof_C 	C 	0.7622	0.3108	0.1136	-0.057
Mof_C 	C 	0.6706	0.3933	0.1098	-0.07
Mof_C 	C 	0.6507	0.458	0.0859	-0.067
Mof_C 	C 	0.4735	0.7312	0.0037	0.354
Mof_C 	C 	0.5257	0.6755	0.0079	-0.147
Mof_C 	C 	0.5657	0.6631	0.0612	0.084
Mof_C 	C 	0.6191	0.616	0.0602	-0.175
Mof_C 	C 	0.6352	0.5804	0.0088	0.144
Mof_C 	C 	0.5926	0.5929	0.9567	-0.177
Mof_C 	C 	0.5405	0.6404	0.9555	0.083
Mof_C 	C 	0.6986	0.5363	0.0095	-0.18
Mof_C 	C 	0.6715	0.3891	0.6201	0.336
Mof_C 	C 	0.707	0.3968	0.684	-0.108
Mof_C 	C 	0.7471	0.3482	0.7122	0.063
Mof_C 	C 	0.7758	0.3541	0.7695	-0.154
Mof_C 	C 	0.766	0.4089	0.8041	0.116
Mof_C 	C 	0.7289	0.4612	0.7763	-0.14
Mof_C 	C 	0.7026	0.4557	0.7166	0.047
Mof_C 	C 	0.7963	0.415	0.8675	-0.161
Mof_C 	C 	0.1071	0.4821	0.9811	0.309
Mof_C 	C 	0.0549	0.4287	0.9913	-0.12
Mof_C 	C 	0.0262	0.4182	0.0483	0.066
Mof_C 	C 	0.9745	0.3708	0.0592	-0.149
Mof_C 	C 	0.9524	0.3312	0.0116	0.108
Mof_C 	C 	0.9839	0.3402	0.9523	-0.138
Mof_C 	C 	0.0356	0.3886	0.9434	0.056
Mof_C 	C 	0.8938	0.2816	0.0218	-0.157
Mof_C 	C 	0.6679	0.3721	0.4083	0.337
Mof_C 	C 	0.7011	0.3849	0.3459	-0.122
Mof_C 	C 	0.751	0.3422	0.3199	0.067
Mof_C 	C 	0.7796	0.3516	0.2614	-0.157
Mof_C 	C 	0.758	0.4042	0.2266	0.129
Mof_C 	C 	0.7106	0.4468	0.2531	-0.159
Mof_C 	C 	0.6795	0.4369	0.3113	0.066
Mof_C 	C 	0.7893	0.4155	0.1641	-0.169
Mof_C 	C 	0.6331	0.0633	0.4759	-0.073
Mof_C 	C 	0.6717	0.0705	0.4134	-0.065
Mof_C 	C 	0.7322	0.1727	0.4182	-0.057
Mof_C 	C 	0.7969	0.2105	0.4439	-0.082
Mof_C 	C 	0.7608	0.2199	0.5524	-0.082
Mof_C 	C 	0.7622	0.1892	0.6136	-0.057
Mof_C 	C 	0.6706	0.1067	0.6098	-0.07
Mof_C 	C 	0.6507	0.042	0.5859	-0.067
Mof_C 	C 	0.4735	0.7688	0.5037	0.354
Mof_C 	C 	0.5257	0.8245	0.5079	-0.147
Mof_C 	C 	0.5657	0.8369	0.5612	0.084
Mof_C 	C 	0.6191	0.884	0.5602	-0.175
Mof_C 	C 	0.6352	0.9196	0.5088	0.144
Mof_C 	C 	0.5926	0.9071	0.4567	-0.177
Mof_C 	C 	0.5405	0.8596	0.4555	0.083
Mof_C 	C 	0.6986	0.9637	0.5095	-0.18
Mof_C 	C 	0.6715	0.1109	0.1201	0.336
Mof_C 	C 	0.707	0.1032	0.184	-0.108
Mof_C 	C 	0.7471	0.1518	0.2122	0.063
Mof_C 	C 	0.7758	0.1459	0.2695	-0.154
Mof_C 	C 	0.766	0.0911	0.3041	0.115
Mof_C 	C 	0.7289	0.0388	0.2763	-0.14
Mof_C 	C 	0.7026	0.0443	0.2166	0.047
Mof_C 	C 	0.7963	0.085	0.3675	-0.161
Mof_C 	C 	0.1071	0.0179	0.4811	0.308
Mof_C 	C 	0.0549	0.0713	0.4913	-0.119
Mof_C 	C 	0.0262	0.0818	0.5483	0.064
Mof_C 	C 	0.9745	0.1292	0.5592	-0.147
Mof_C 	C 	0.9524	0.1688	0.5116	0.108
Mof_C 	C 	0.9839	0.1598	0.4523	-0.139
Mof_C 	C 	0.0356	0.1114	0.4434	0.056
Mof_C 	C 	0.8938	0.2184	0.5218	-0.156
Mof_C 	C 	0.6679	0.1279	0.9083	0.337
Mof_C 	C 	0.7011	0.1151	0.8459	-0.122
Mof_C 	C 	0.751	0.1578	0.8199	0.067
Mof_C 	C 	0.7796	0.1484	0.7614	-0.157
Mof_C 	C 	0.758	0.0958	0.7266	0.129
Mof_C 	C 	0.7106	0.0532	0.7531	-0.159
Mof_C 	C 	0.6795	0.0631	0.8113	0.066
Mof_C 	C 	0.7893	0.0845	0.6641	-0.17
Mof_C 	C 	0.3669	0.5633	0.0241	-0.073
Mof_C 	C 	0.3283	0.5705	0.0866	-0.065
Mof_C 	C 	0.2678	0.6727	0.0818	-0.057
Mof_C 	C 	0.2031	0.7105	0.0561	-0.082
Mof_C 	C 	0.2392	0.7199	0.9476	-0.082
Mof_C 	C 	0.2378	0.6892	0.8864	-0.057
Mof_C 	C 	0.3294	0.6067	0.8902	-0.07
Mof_C 	C 	0.3493	0.542	0.9141	-0.067
Mof_C 	C 	0.5265	0.2688	0.9963	0.354
Mof_C 	C 	0.4743	0.3245	0.9921	-0.147
Mof_C 	C 	0.4343	0.3369	0.9388	0.084
Mof_C 	C 	0.3809	0.384	0.9398	-0.175
Mof_C 	C 	0.3648	0.4196	0.9912	0.144
Mof_C 	C 	0.4074	0.4071	0.0433	-0.177
Mof_C 	C 	0.4595	0.3596	0.0445	0.083
Mof_C 	C 	0.3014	0.4637	0.9905	-0.18
Mof_C 	C 	0.3285	0.6109	0.3799	0.336
Mof_C 	C 	0.293	0.6032	0.316	-0.108
Mof_C 	C 	0.2529	0.6518	0.2878	0.063
Mof_C 	C 	0.2242	0.6459	0.2305	-0.154
Mof_C 	C 	0.234	0.5911	0.1959	0.116
Mof_C 	C 	0.2711	0.5388	0.2237	-0.14
Mof_C 	C 	0.2974	0.5443	0.2834	0.047
Mof_C 	C 	0.2037	0.585	0.1325	-0.161
Mof_C 	C 	0.8929	0.5179	0.0189	0.309
Mof_C 	C 	0.9451	0.5713	0.0087	-0.12
Mof_C 	C 	0.9738	0.5818	0.9517	0.066
Mof_C 	C 	0.0255	0.6292	0.9408	-0.149
Mof_C 	C 	0.0476	0.6688	0.9884	0.108
Mof_C 	C 	0.0161	0.6598	0.0477	-0.138
Mof_C 	C 	0.9644	0.6114	0.0566	0.056
Mof_C 	C 	0.1062	0.7184	0.9782	-0.157
Mof_C 	C 	0.3321	0.6279	0.5917	0.337
Mof_C 	C 	0.2989	0.6151	0.6541	-0.122
Mof_C 	C 	0.249	0.6578	0.6801	0.067
Mof_C 	C 	0.2204	0.6484	0.7386	-0.157
Mof_C 	C 	0.242	0.5958	0.7734	0.129
Mof_C 	C 	0.2894	0.5532	0.7469	-0.159
Mof_C 	C 	0.3205	0.5631	0.6887	0.066
Mof_C 	C 	0.2107	0.5845	0.8359	-0.169
Mof_N 	N 	0.2561	0.8937	0.58337	-0.091
Mof_N 	N 	0.3169	0.9678	0.47842	-0.09
Mof_N 	N 	0.1847	0.80681	0.4896	-0.094
Mof_N 	N 	0.2495	0.8804	0.38791	-0.094
Mof_N 	N 	0.7439	0.3937	0.91663	-0.091
Mof_N 	N 	0.6831	0.4678	0.02158	-0.09
Mof_N 	N 	0.8153	0.30681	0.0104	-0.094
Mof_N 	N 	0.7505	0.3804	0.11209	-0.094
Mof_N 	N 	0.7439	0.1063	0.41663	-0.091
Mof_N 	N 	0.6831	0.0322	0.52158	-0.09
Mof_N 	N 	0.8153	0.19319	0.5104	-0.094
Mof_N 	N 	0.7505	0.1196	0.61209	-0.094
Mof_N 	N 	0.2561	0.6063	0.08337	-0.091
Mof_N 	N 	0.3169	0.5322	0.97842	-0.09
Mof_N 	N 	0.1847	0.69319	0.9896	-0.094
Mof_N 	N 	0.2495	0.6196	0.88791	-0.094
Mof_O 	O 	0.5179	0.2769	0.4584	-0.274
Mof_O 	O 	0.5736	0.2331	0.5336	-0.314
Mof_O 	O 	0.3502	0.9383	0.9061	-0.259
Mof_O 	O 	0.3284	0.8363	0.90062	-0.305
Mof_O 	O 	0.8644	0.99327	0.57002	-0.285
Mof_O 	O 	0.8753	0.01488	0.47126	-0.287
Mof_O 	O 	0.3101	0.8252	0.063	-0.291
Mof_O 	O 	0.3808	0.90776	0.07123	-0.271
Mof_O 	O 	0.4821	0.7769	0.0416	-0.274
Mof_O 	O 	0.4264	0.7331	0.9664	-0.314
Mof_O 	O 	0.6498	0.4383	0.5939	-0.259
Mof_O 	O 	0.6716	0.3363	0.59938	-0.305
Mof_O 	O 	0.1356	0.49327	0.92998	-0.284
Mof_O 	O 	0.1247	0.51488	0.02874	-0.287
Mof_O 	O 	0.6899	0.3252	0.437	-0.291
Mof_O 	O 	0.6192	0.40776	0.42877	-0.272
Mof_O 	O 	0.4821	0.7231	0.5416	-0.274
Mof_O 	O 	0.4264	0.7669	0.4664	-0.314
Mof_O 	O 	0.6498	0.0617	0.0939	-0.259
Mof_O 	O 	0.6716	0.1637	0.09938	-0.305
Mof_O 	O 	0.1356	0.00673	0.42998	-0.285
Mof_O 	O 	0.1247	0.98512	0.52874	-0.287
Mof_O 	O 	0.6899	0.1748	0.937	-0.291
Mof_O 	O 	0.6192	0.09224	0.92877	-0.271
Mof_O 	O 	0.5179	0.2231	0.9584	-0.274
Mof_O 	O 	0.5736	0.2669	0.0336	-0.314
Mof_O 	O 	0.3502	0.5617	0.4061	-0.259
Mof_O 	O 	0.3284	0.6637	0.40062	-0.305
Mof_O 	O 	0.8644	0.50673	0.07002	-0.284
Mof_O 	O 	0.8753	0.48512	0.97126	-0.287
Mof_O 	O 	0.3101	0.6748	0.563	-0.291
Mof_O 	O 	0.3808	0.59224	0.57123	-0.272
_end
