data_functionalizedCrystal
_audit_creation_method	'EQeq! by Chris Wilmer'
_symmetry_space_group_name_H-M	'P1'
_symmetry_Int_Tables_number	1
_symmetry_cell_setting	triclinic
loop_
_symmetry_equiv_pos_as_xyz
  x,y,z
_cell_length_a	10.039
_cell_length_b	17.401
_cell_length_c	16.503
_cell_angle_alpha	90
_cell_angle_beta	90
_cell_angle_gamma	90
loop_
_atom_site_label
_atom_site_type_symbol
_atom_site_fract_x
_atom_site_fract_y
_atom_site_fract_z
_atom_site_charge
Mof_Ga	Ga	0.2607	0.5799	0.9167	3.603
Mof_Mn	Mn	0.8034	0.7327	0.9165	1.034
Mof_P 	P 	0.4786	0.7002	0.9265	0.735
Mof_P 	P 	0.1886	0.4107	0.9067	0.719
Mof_P 	P 	0.7899	0.611	0.76	0.745
Mof_O 	O 	0.4295	0.6149	0.9272	-1.083
Mof_O 	O 	0.4802	0.7256	0.8364	-1.047
Mof_O 	O 	0.6195	0.7011	0.9602	-0.431
Mof_O 	O 	0.3819	0.7527	0.9679	-0.469
Mof_O 	O 	0.2929	0.4787	0.9048	-1.081
Mof_O 	O 	0.1527	0.3974	0.9972	-1.075
Mof_O 	O 	0.2563	0.3409	0.8709	-0.437
Mof_O 	O 	0.0636	0.4321	0.8627	-0.506
Mof_O 	O 	0.6358	0.5942	0.7604	-1.131
Mof_O 	O 	0.8292	0.6225	0.6696	-0.969
Mof_O 	O 	0.8602	0.5426	0.7943	-0.298
Mof_O 	O 	0.8202	0.6845	0.8023	-0.426
Mof_Ga	Ga	0.7607	0.0799	0.9167	3.637
Mof_Mn	Mn	0.3034	0.2327	0.9165	0.92
Mof_P 	P 	0.9786	0.2002	0.9265	0.869
Mof_P 	P 	0.6886	0.9107	0.9067	0.73
Mof_P 	P 	0.2899	0.111	0.76	0.716
Mof_O 	O 	0.9295	0.1149	0.9272	-1.028
Mof_O 	O 	0.9802	0.2256	0.8364	-0.714
Mof_O 	O 	0.1195	0.2011	0.9602	-0.586
Mof_O 	O 	0.8819	0.2527	0.9679	-0.443
Mof_O 	O 	0.7929	0.9787	0.9048	-1.056
Mof_O 	O 	0.6527	0.8974	0.9972	-1.034
Mof_O 	O 	0.7563	0.8409	0.8709	-0.41
Mof_O 	O 	0.5636	0.9321	0.8627	-0.473
Mof_O 	O 	0.1358	0.0942	0.7604	-0.981
Mof_O 	O 	0.3292	0.1225	0.6696	-1.001
Mof_O 	O 	0.3602	0.0426	0.7943	-0.456
Mof_O 	O 	0.3202	0.1845	0.8023	-0.459
Mof_Ga	Ga	0.7393	0.4201	0.4167	3.682
Mof_Mn	Mn	0.1966	0.2673	0.4165	0.862
Mof_P 	P 	0.5214	0.2998	0.4265	0.735
Mof_P 	P 	0.8114	0.5893	0.4067	0.721
Mof_P 	P 	0.2101	0.389	0.26	0.738
Mof_O 	O 	0.5705	0.3851	0.4272	-1.109
Mof_O 	O 	0.5198	0.2744	0.3364	-1.038
Mof_O 	O 	0.3805	0.2989	0.4602	-0.433
Mof_O 	O 	0.6181	0.2473	0.4679	-0.457
Mof_O 	O 	0.7071	0.5213	0.4048	-1.096
Mof_O 	O 	0.8473	0.6026	0.4972	-0.992
Mof_O 	O 	0.7437	0.6591	0.3709	-0.393
Mof_O 	O 	0.9364	0.5679	0.3627	-0.305
Mof_O 	O 	0.3642	0.4058	0.2604	-1.134
Mof_O 	O 	0.1708	0.3775	0.1696	-1.058
Mof_O 	O 	0.1398	0.4574	0.2943	-0.465
Mof_O 	O 	0.1798	0.3155	0.3023	-0.512
Mof_Ga	Ga	0.2393	0.9201	0.4167	3.603
Mof_Mn	Mn	0.6966	0.7673	0.4165	0.974
Mof_P 	P 	0.0214	0.7998	0.4265	0.538
Mof_P 	P 	0.3114	0.0893	0.4067	0.725
Mof_P 	P 	0.7101	0.889	0.26	0.714
Mof_O 	O 	0.0705	0.8851	0.4272	-1.098
Mof_O 	O 	0.0198	0.7744	0.3364	-0.902
Mof_O 	O 	0.8805	0.7989	0.4602	-0.258
Mof_O 	O 	0.1181	0.7473	0.4679	-0.477
Mof_O 	O 	0.2071	0.0213	0.4048	-1.113
Mof_O 	O 	0.3473	0.1026	0.4972	-1.023
Mof_O 	O 	0.2437	0.1591	0.3709	-0.448
Mof_O 	O 	0.4364	0.0679	0.3627	-0.464
Mof_O 	O 	0.8642	0.9058	0.2604	-0.809
Mof_O 	O 	0.6708	0.8775	0.1696	-1.006
Mof_O 	O 	0.6398	0.9574	0.2943	-0.42
Mof_O 	O 	0.6798	0.8155	0.3023	-0.426
Mof_Ga	Ga	0.7393	0.5799	0.5833	3.682
Mof_Mn	Mn	0.1966	0.7327	0.5835	0.862
Mof_P 	P 	0.5214	0.7002	0.5735	0.735
Mof_P 	P 	0.8114	0.4107	0.5933	0.721
Mof_P 	P 	0.2101	0.611	0.74	0.738
Mof_O 	O 	0.5705	0.6149	0.5728	-1.109
Mof_O 	O 	0.5198	0.7256	0.6636	-1.038
Mof_O 	O 	0.3805	0.7011	0.5398	-0.433
Mof_O 	O 	0.6181	0.7527	0.5321	-0.457
Mof_O 	O 	0.7071	0.4787	0.5952	-1.096
Mof_O 	O 	0.8473	0.3974	0.5028	-0.992
Mof_O 	O 	0.7437	0.3409	0.6291	-0.393
Mof_O 	O 	0.9364	0.4321	0.6373	-0.305
Mof_O 	O 	0.3642	0.5942	0.7396	-1.134
Mof_O 	O 	0.1708	0.6225	0.8304	-1.058
Mof_O 	O 	0.1398	0.5426	0.7057	-0.465
Mof_O 	O 	0.1798	0.6845	0.6977	-0.512
Mof_Ga	Ga	0.2393	0.0799	0.5833	3.603
Mof_Mn	Mn	0.6966	0.2327	0.5835	0.974
Mof_P 	P 	0.0214	0.2002	0.5735	0.538
Mof_P 	P 	0.3114	0.9107	0.5933	0.725
Mof_P 	P 	0.7101	0.111	0.74	0.714
Mof_O 	O 	0.0705	0.1149	0.5728	-1.098
Mof_O 	O 	0.0198	0.2256	0.6636	-0.902
Mof_O 	O 	0.8805	0.2011	0.5398	-0.258
Mof_O 	O 	0.1181	0.2527	0.5321	-0.477
Mof_O 	O 	0.2071	0.9787	0.5952	-1.113
Mof_O 	O 	0.3473	0.8974	0.5028	-1.023
Mof_O 	O 	0.2437	0.8409	0.6291	-0.448
Mof_O 	O 	0.4364	0.9321	0.6373	-0.464
Mof_O 	O 	0.8642	0.0942	0.7396	-0.809
Mof_O 	O 	0.6708	0.1225	0.8304	-1.006
Mof_O 	O 	0.6398	0.0426	0.7057	-0.42
Mof_O 	O 	0.6798	0.1845	0.6977	-0.426
Mof_Ga	Ga	0.2607	0.4201	0.0833	3.602
Mof_Mn	Mn	0.8034	0.2673	0.0835	1.033
Mof_P 	P 	0.4786	0.2998	0.0735	0.734
Mof_P 	P 	0.1886	0.5893	0.0933	0.718
Mof_P 	P 	0.7899	0.389	0.24	0.744
Mof_O 	O 	0.4295	0.3851	0.0728	-1.084
Mof_O 	O 	0.4802	0.2744	0.1636	-1.048
Mof_O 	O 	0.6195	0.2989	0.0398	-0.432
Mof_O 	O 	0.3819	0.2473	0.0321	-0.47
Mof_O 	O 	0.2929	0.5213	0.0952	-1.082
Mof_O 	O 	0.1527	0.6026	0.0028	-1.075
Mof_O 	O 	0.2563	0.6591	0.1291	-0.437
Mof_O 	O 	0.0636	0.5679	0.1373	-0.506
Mof_O 	O 	0.6358	0.4058	0.2396	-1.131
Mof_O 	O 	0.8292	0.3775	0.3304	-0.969
Mof_O 	O 	0.8602	0.4574	0.2057	-0.298
Mof_O 	O 	0.8202	0.3155	0.1977	-0.426
Mof_Ga	Ga	0.7607	0.9201	0.0833	3.637
Mof_Mn	Mn	0.3034	0.7673	0.0835	0.92
Mof_P 	P 	0.9786	0.7998	0.0735	0.869
Mof_P 	P 	0.6886	0.0893	0.0933	0.73
Mof_P 	P 	0.2899	0.889	0.24	0.716
Mof_O 	O 	0.9295	0.8851	0.0728	-1.028
Mof_O 	O 	0.9802	0.7744	0.1636	-0.714
Mof_O 	O 	0.1195	0.7989	0.0398	-0.586
Mof_O 	O 	0.8819	0.7473	0.0321	-0.443
Mof_O 	O 	0.7929	0.0213	0.0952	-1.056
Mof_O 	O 	0.6527	0.1026	0.0028	-1.034
Mof_O 	O 	0.7563	0.1591	0.1291	-0.41
Mof_O 	O 	0.5636	0.0679	0.1373	-0.473
Mof_O 	O 	0.1358	0.9058	0.2396	-0.981
Mof_O 	O 	0.3292	0.8775	0.3304	-1.001
Mof_O 	O 	0.3602	0.9574	0.2057	-0.456
Mof_O 	O 	0.3202	0.8155	0.1977	-0.459
Mof_Ga	Ga	0.5	0.6598	0.75	3.751
Mof_Ga	Ga	-1.289e-32	0.1598	0.75	2.682
Mof_Ga	Ga	0.5	0.3402	0.25	3.751
Mof_Ga	Ga	-2.83727e-33	0.8402	0.25	2.682
Mof_Mn	Mn	-4.13365e-33	0.4649	0.75	0.638
Mof_Mn	Mn	0.5	0.9649	0.75	0.964
Mof_Mn	Mn	5.91907e-33	0.5351	0.25	0.638
Mof_Mn	Mn	0.5	0.0351	0.25	0.964
_end
