data_functionalizedCrystal
_audit_creation_method	'EQeq! by Chris Wilmer'
_symmetry_space_group_name_H-M	'P1'
_symmetry_Int_Tables_number	1
_symmetry_cell_setting	triclinic
loop_
_symmetry_equiv_pos_as_xyz
  x,y,z
_cell_length_a	7.5831
_cell_length_b	13.7989
_cell_length_c	31.0864
_cell_angle_alpha	90
_cell_angle_beta	90
_cell_angle_gamma	90
loop_
_atom_site_label
_atom_site_type_symbol
_atom_site_fract_x
_atom_site_fract_y
_atom_site_fract_z
_atom_site_charge
Mof_Mn	Mn	0.946	0.08702	0.25	0.599
Mof_Mn	Mn	0.554	0.58702	0.75	0.599
Mof_Mn	Mn	0.054	0.91298	0.75	0.572
Mof_Mn	Mn	0.446	0.41298	0.25	0.595
Mof_Mn	Mn	0.5	0.5	0.5	0.694
Mof_Mn	Mn	7.6852e-33	1.5521e-32	0.5	0.614
Mof_Mn	Mn	0.5	0.5	-0	0.668
Mof_Mn	Mn	-0	0	-0	0.589
Mof_Ag	Ag	0.49585	0.05619	0.38129	0.396
Mof_Ag	Ag	0.23704	0.24206	0.38974	0.323
Mof_Ag	Ag	0.00415	0.55619	0.61871	0.362
Mof_Ag	Ag	0.26296	0.74206	0.61026	0.331
Mof_Ag	Ag	0.50415	0.94381	0.88129	0.458
Mof_Ag	Ag	0.76296	0.75794	0.88974	0.371
Mof_Ag	Ag	0.99585	0.44381	0.11871	0.458
Mof_Ag	Ag	0.73704	0.25794	0.11026	0.344
Mof_Ag	Ag	0.50415	0.94381	0.61871	0.456
Mof_Ag	Ag	0.76296	0.75794	0.61026	0.367
Mof_Ag	Ag	0.99585	0.44381	0.38129	0.459
Mof_Ag	Ag	0.73704	0.25794	0.38974	0.346
Mof_Ag	Ag	0.49585	0.05619	0.11871	0.395
Mof_Ag	Ag	0.23704	0.24206	0.11026	0.322
Mof_Ag	Ag	0.00415	0.55619	0.88129	0.364
Mof_Ag	Ag	0.26296	0.74206	0.88974	0.335
Mof_H 	H 	0.6437	0.3713	0.6541	0.085
Mof_H 	H 	0.6963	0.1676	0.563	0.077
Mof_H 	H 	0.5743	0.4799	0.601	-0.03
Mof_H 	H 	0.6368	0.2836	0.5124	-0.019
Mof_H 	H 	0.8563	0.8713	0.3459	0.093
Mof_H 	H 	0.8037	0.6676	0.437	0.08
Mof_H 	H 	0.9257	0.9799	0.399	-0.01
Mof_H 	H 	0.8632	0.7836	0.4876	-0.011
Mof_H 	H 	0.3563	0.6287	0.1541	0.084
Mof_H 	H 	0.3037	0.8324	0.063	0.086
Mof_H 	H 	0.4257	0.5201	0.101	-0.033
Mof_H 	H 	0.3632	0.7164	0.0124	-0.026
Mof_H 	H 	0.1437	0.1287	0.8459	0.072
Mof_H 	H 	0.1963	0.3324	0.937	0.08
Mof_H 	H 	0.0743	0.0201	0.899	-0.048
Mof_H 	H 	0.1368	0.2164	0.9876	-0.013
Mof_H 	H 	0.3563	0.6287	0.3459	0.084
Mof_H 	H 	0.3037	0.8324	0.437	0.087
Mof_H 	H 	0.4257	0.5201	0.399	-0.033
Mof_H 	H 	0.3632	0.7164	0.4876	-0.02
Mof_H 	H 	0.1437	0.1287	0.6541	0.072
Mof_H 	H 	0.1963	0.3324	0.563	0.078
Mof_H 	H 	0.0743	0.0201	0.601	-0.05
Mof_H 	H 	0.1368	0.2164	0.5124	-0.022
Mof_H 	H 	0.6437	0.3713	0.8459	0.085
Mof_H 	H 	0.6963	0.1676	0.937	0.079
Mof_H 	H 	0.5743	0.4799	0.899	-0.029
Mof_H 	H 	0.6368	0.2836	0.9876	-0.011
Mof_H 	H 	0.8563	0.8713	0.1541	0.093
Mof_H 	H 	0.8037	0.6676	0.063	0.079
Mof_H 	H 	0.9257	0.9799	0.101	-0.009
Mof_H 	H 	0.8632	0.7836	0.0124	-0.017
Mof_C 	C 	0.6572	0.0565	0.32827	-0.121
Mof_C 	C 	0.3362	0.03923	0.43411	-0.127
Mof_C 	C 	0.6395	0.3518	0.62551	-0.164
Mof_C 	C 	0.7083	0.1855	0.64724	0.029
Mof_C 	C 	0.6726	0.2567	0.61396	0.078
Mof_C 	C 	0.6722	0.231	0.57135	-0.159
Mof_C 	C 	0.6001	0.4163	0.59338	0.095
Mof_C 	C 	0.1628	0.16644	0.33561	-0.14
Mof_C 	C 	0.3194	0.3274	0.44014	-0.121
Mof_C 	C 	0.6352	0.30075	0.54134	0.095
Mof_C 	C 	0.8428	0.5565	0.67173	-0.08
Mof_C 	C 	0.1638	0.53923	0.56589	-0.11
Mof_C 	C 	0.8605	0.8518	0.37449	-0.16
Mof_C 	C 	0.7917	0.6855	0.35276	0.032
Mof_C 	C 	0.8274	0.7567	0.38604	0.078
Mof_C 	C 	0.8278	0.731	0.42865	-0.158
Mof_C 	C 	0.8999	0.9163	0.40662	0.096
Mof_C 	C 	0.3372	0.66644	0.66439	-0.135
Mof_C 	C 	0.1806	0.8274	0.55986	-0.123
Mof_C 	C 	0.8648	0.80075	0.45866	0.096
Mof_C 	C 	0.3428	0.9435	0.82827	-0.111
Mof_C 	C 	0.6638	0.96077	0.93411	-0.104
Mof_C 	C 	0.3605	0.6482	0.12551	-0.172
Mof_C 	C 	0.2917	0.8145	0.14724	0.028
Mof_C 	C 	0.3274	0.7433	0.11396	0.08
Mof_C 	C 	0.3278	0.769	0.07135	-0.17
Mof_C 	C 	0.3999	0.5837	0.09338	0.091
Mof_C 	C 	0.8372	0.83356	0.83561	-0.126
Mof_C 	C 	0.6806	0.6726	0.94014	-0.113
Mof_C 	C 	0.3648	0.69925	0.04134	0.095
Mof_C 	C 	0.1572	0.4435	0.17173	-0.134
Mof_C 	C 	0.8362	0.46077	0.06589	-0.12
Mof_C 	C 	0.1395	0.1482	0.87449	-0.172
Mof_C 	C 	0.2083	0.3145	0.85276	0.021
Mof_C 	C 	0.1726	0.2433	0.88604	0.072
Mof_C 	C 	0.1722	0.269	0.92865	-0.163
Mof_C 	C 	0.1001	0.0837	0.90662	0.084
Mof_C 	C 	0.6628	0.33356	0.16439	-0.133
Mof_C 	C 	0.8194	0.1726	0.05986	-0.123
Mof_C 	C 	0.1352	0.19925	0.95866	0.087
Mof_C 	C 	0.3428	0.9435	0.67173	-0.111
Mof_C 	C 	0.6638	0.96077	0.56589	-0.106
Mof_C 	C 	0.3605	0.6482	0.37449	-0.171
Mof_C 	C 	0.2917	0.8145	0.35276	0.028
Mof_C 	C 	0.3274	0.7433	0.38604	0.079
Mof_C 	C 	0.3278	0.769	0.42865	-0.168
Mof_C 	C 	0.3999	0.5837	0.40662	0.092
Mof_C 	C 	0.8372	0.83356	0.66439	-0.126
Mof_C 	C 	0.6806	0.6726	0.55986	-0.116
Mof_C 	C 	0.3648	0.69925	0.45866	0.095
Mof_C 	C 	0.1572	0.4435	0.32827	-0.134
Mof_C 	C 	0.8362	0.46077	0.43411	-0.117
Mof_C 	C 	0.1395	0.1482	0.62551	-0.173
Mof_C 	C 	0.2083	0.3145	0.64724	0.021
Mof_C 	C 	0.1726	0.2433	0.61396	0.073
Mof_C 	C 	0.1722	0.269	0.57135	-0.165
Mof_C 	C 	0.1001	0.0837	0.59338	0.084
Mof_C 	C 	0.6628	0.33356	0.33561	-0.134
Mof_C 	C 	0.8194	0.1726	0.44014	-0.119
Mof_C 	C 	0.1352	0.19925	0.54134	0.088
Mof_C 	C 	0.6572	0.0565	0.17173	-0.121
Mof_C 	C 	0.3362	0.03923	0.06589	-0.13
Mof_C 	C 	0.6395	0.3518	0.87449	-0.163
Mof_C 	C 	0.7083	0.1855	0.85276	0.03
Mof_C 	C 	0.6726	0.2567	0.88604	0.077
Mof_C 	C 	0.6722	0.231	0.92865	-0.157
Mof_C 	C 	0.6001	0.4163	0.90662	0.095
Mof_C 	C 	0.1628	0.16644	0.16439	-0.139
Mof_C 	C 	0.3194	0.3274	0.05986	-0.125
Mof_C 	C 	0.6352	0.30075	0.95866	0.095
Mof_C 	C 	0.8428	0.5565	0.82827	-0.081
Mof_C 	C 	0.1638	0.53923	0.93411	-0.108
Mof_C 	C 	0.8605	0.8518	0.12551	-0.16
Mof_C 	C 	0.7917	0.6855	0.14724	0.032
Mof_C 	C 	0.8274	0.7567	0.11396	0.078
Mof_C 	C 	0.8278	0.731	0.07135	-0.159
Mof_C 	C 	0.8999	0.9163	0.09338	0.096
Mof_C 	C 	0.3372	0.66644	0.83561	-0.136
Mof_C 	C 	0.1806	0.8274	0.94014	-0.12
Mof_C 	C 	0.8648	0.80075	0.04134	0.096
Mof_N 	N 	0.7508	0.0556	0.29984	-0.169
Mof_N 	N 	0.3702	0.37895	0.46571	-0.165
Mof_N 	N 	0.7367	0.1309	0.67349	-0.139
Mof_N 	N 	0.5968	0.39247	0.55181	-0.2
Mof_N 	N 	0.2353	0.02769	0.46067	-0.167
Mof_N 	N 	0.1209	0.13005	0.3046	-0.176
Mof_N 	N 	0.7492	0.5556	0.70016	-0.17
Mof_N 	N 	0.1298	0.87895	0.53429	-0.153
Mof_N 	N 	0.7633	0.6309	0.32651	-0.133
Mof_N 	N 	0.9032	0.89247	0.44819	-0.182
Mof_N 	N 	0.2647	0.52769	0.53933	-0.166
Mof_N 	N 	0.3791	0.63005	0.6954	-0.169
Mof_N 	N 	0.2492	0.9444	0.79984	-0.161
Mof_N 	N 	0.6298	0.62105	0.96571	-0.153
Mof_N 	N 	0.2633	0.8691	0.17349	-0.128
Mof_N 	N 	0.4032	0.60753	0.05181	-0.203
Mof_N 	N 	0.7647	0.97231	0.96067	-0.128
Mof_N 	N 	0.8791	0.86995	0.8046	-0.151
Mof_N 	N 	0.2508	0.4444	0.20016	-0.161
Mof_N 	N 	0.8702	0.12105	0.03429	-0.157
Mof_N 	N 	0.2367	0.3691	0.82651	-0.138
Mof_N 	N 	0.0968	0.10753	0.94819	-0.198
Mof_N 	N 	0.7353	0.47231	0.03933	-0.161
Mof_N 	N 	0.6209	0.36995	0.1954	-0.166
Mof_N 	N 	0.2492	0.9444	0.70016	-0.161
Mof_N 	N 	0.6298	0.62105	0.53429	-0.161
Mof_N 	N 	0.2633	0.8691	0.32651	-0.128
Mof_N 	N 	0.4032	0.60753	0.44819	-0.203
Mof_N 	N 	0.7647	0.97231	0.53933	-0.136
Mof_N 	N 	0.8791	0.86995	0.6954	-0.151
Mof_N 	N 	0.2508	0.4444	0.29984	-0.161
Mof_N 	N 	0.8702	0.12105	0.46571	-0.155
Mof_N 	N 	0.2367	0.3691	0.67349	-0.138
Mof_N 	N 	0.0968	0.10753	0.55181	-0.204
Mof_N 	N 	0.7353	0.47231	0.46067	-0.159
Mof_N 	N 	0.6209	0.36995	0.3046	-0.166
Mof_N 	N 	0.7508	0.0556	0.20016	-0.169
Mof_N 	N 	0.3702	0.37895	0.03429	-0.168
Mof_N 	N 	0.7367	0.1309	0.82651	-0.139
Mof_N 	N 	0.5968	0.39247	0.94819	-0.194
Mof_N 	N 	0.2353	0.02769	0.03933	-0.169
Mof_N 	N 	0.1209	0.13005	0.1954	-0.176
Mof_N 	N 	0.7492	0.5556	0.79984	-0.17
Mof_N 	N 	0.1298	0.87895	0.96571	-0.144
Mof_N 	N 	0.7633	0.6309	0.17349	-0.133
Mof_N 	N 	0.9032	0.89247	0.05181	-0.182
Mof_N 	N 	0.2647	0.52769	0.96067	-0.158
Mof_N 	N 	0.3791	0.63005	0.8046	-0.169
_end
