data_functionalizedCrystal
_audit_creation_method	'EQeq! by Chris Wilmer'
_symmetry_space_group_name_H-M	'P1'
_symmetry_Int_Tables_number	1
_symmetry_cell_setting	triclinic
loop_
_symmetry_equiv_pos_as_xyz
  x,y,z
_cell_length_a	11.993
_cell_length_b	19.632
_cell_length_c	18.143
_cell_angle_alpha	90
_cell_angle_beta	102.06
_cell_angle_gamma	90
loop_
_atom_site_label
_atom_site_type_symbol
_atom_site_fract_x
_atom_site_fract_y
_atom_site_fract_z
_atom_site_charge
Mof_Mg	Mg	0.84375	0.85471	0.73074	1.461
Mof_O 	O 	0.9184	0.91791	0.81631	-0.6
Mof_O 	O 	0.1076	0.91074	0.85257	-0.569
Mof_O 	O 	0.2096	0.9884	0.9626	-0.357
Mof_H 	H 	0.2057	0.9675	0.923	0.251
Mof_O 	O 	0.7936	0.79979	0.8147	-0.556
Mof_O 	O 	0.9461	0.74048	0.87022	-0.386
Mof_O 	O 	0.9542	0.68577	0.99872	-0.397
Mof_H 	H 	0.9753	0.6941	0.9595	0.269
Mof_C 	C 	0.0111	0.92848	0.86188	0.557
Mof_C 	C 	0.0053	0.96605	0.93301	-0.185
Mof_C 	C 	0.1042	0.99255	0.9787	0.156
Mof_C 	C 	0.9007	0.97318	0.95522	0.113
Mof_C 	C 	0.8499	0.76712	0.86902	0.442
Mof_C 	C 	0.7993	0.75826	0.93759	-0.249
Mof_C 	C 	0.8514	0.71644	0.997	0.18
Mof_C 	C 	0.6986	0.79193	0.94123	0.226
Mof_H 	H 	0.99	0.773	0.788	0.318
Mof_O 	O 	0.7983	0.9536	0.9141	-0.345
Mof_H 	H 	0.8074	0.9337	0.8761	0.23
Mof_O 	O 	0.6581	0.8379	0.8927	-0.404
Mof_H 	H 	0.7001	0.8423	0.8627	0.266
Mof_Mg	Mg	0.34375	0.35471	0.73074	1.465
Mof_O 	O 	0.4184	0.41791	0.81631	-0.552
Mof_O 	O 	0.6076	0.41074	0.85257	-0.573
Mof_O 	O 	0.7096	0.4884	0.9626	-0.377
Mof_H 	H 	0.7057	0.4675	0.923	0.252
Mof_O 	O 	0.2936	0.29979	0.8147	-0.544
Mof_O 	O 	0.4461	0.24048	0.87022	-0.375
Mof_O 	O 	0.4542	0.18577	0.99872	-0.387
Mof_H 	H 	0.4753	0.1941	0.9595	0.274
Mof_C 	C 	0.5111	0.42848	0.86188	0.512
Mof_C 	C 	0.5053	0.46605	0.93301	-0.256
Mof_C 	C 	0.6042	0.49255	0.9787	0.192
Mof_C 	C 	0.4007	0.47318	0.95522	0.19
Mof_C 	C 	0.3499	0.26712	0.86902	0.442
Mof_C 	C 	0.2993	0.25826	0.93759	-0.243
Mof_C 	C 	0.3514	0.21644	0.997	0.182
Mof_C 	C 	0.1986	0.29193	0.94123	0.227
Mof_H 	H 	0.49	0.273	0.788	0.384
Mof_O 	O 	0.2983	0.4536	0.9141	-0.359
Mof_H 	H 	0.3074	0.4337	0.8761	0.242
Mof_O 	O 	0.1581	0.3379	0.8927	-0.394
Mof_H 	H 	0.2001	0.3423	0.8627	0.267
Mof_Mg	Mg	0.15625	0.85471	0.76926	1.464
Mof_O 	O 	0.0816	0.91791	0.68369	-0.513
Mof_O 	O 	0.8924	0.91074	0.64743	-0.572
Mof_O 	O 	0.7904	0.9884	0.5374	-0.386
Mof_H 	H 	0.7943	0.9675	0.577	0.257
Mof_O 	O 	0.2064	0.79979	0.6853	-0.546
Mof_O 	O 	0.0539	0.74048	0.62978	-0.357
Mof_O 	O 	0.0458	0.68577	0.50128	-0.373
Mof_H 	H 	0.0247	0.6941	0.5405	0.28
Mof_C 	C 	0.9889	0.92848	0.63812	0.465
Mof_C 	C 	0.9947	0.96605	0.56699	-0.322
Mof_C 	C 	0.8958	0.99255	0.5213	0.22
Mof_C 	C 	0.0993	0.97318	0.54478	0.258
Mof_C 	C 	0.1501	0.76712	0.63098	0.44
Mof_C 	C 	0.2007	0.75826	0.56241	-0.237
Mof_C 	C 	0.1486	0.71644	0.503	0.177
Mof_C 	C 	0.3014	0.79193	0.55877	0.218
Mof_H 	H 	0.01	0.773	0.712	0.367
Mof_O 	O 	0.2017	0.9536	0.5859	-0.384
Mof_H 	H 	0.1926	0.9337	0.6239	0.253
Mof_O 	O 	0.3419	0.8379	0.6073	-0.402
Mof_H 	H 	0.2999	0.8423	0.6373	0.266
Mof_Mg	Mg	0.65625	0.35471	0.76926	1.463
Mof_O 	O 	0.5816	0.41791	0.68369	-0.555
Mof_O 	O 	0.3924	0.41074	0.64743	-0.563
Mof_O 	O 	0.2904	0.4884	0.5374	-0.365
Mof_H 	H 	0.2943	0.4675	0.577	0.257
Mof_O 	O 	0.7064	0.29979	0.6853	-0.556
Mof_O 	O 	0.5539	0.24048	0.62978	-0.374
Mof_O 	O 	0.5458	0.18577	0.50128	-0.384
Mof_H 	H 	0.5247	0.1941	0.5405	0.275
Mof_C 	C 	0.4889	0.42848	0.63812	0.511
Mof_C 	C 	0.4947	0.46605	0.56699	-0.251
Mof_C 	C 	0.3958	0.49255	0.5213	0.186
Mof_C 	C 	0.5993	0.47318	0.54478	0.183
Mof_C 	C 	0.6501	0.26712	0.63098	0.441
Mof_C 	C 	0.7007	0.25826	0.56241	-0.243
Mof_C 	C 	0.6486	0.21644	0.503	0.174
Mof_C 	C 	0.8014	0.29193	0.55877	0.216
Mof_H 	H 	0.51	0.273	0.712	0.385
Mof_O 	O 	0.7017	0.4536	0.5859	-0.369
Mof_H 	H 	0.6926	0.4337	0.6239	0.24
Mof_O 	O 	0.8419	0.3379	0.6073	-0.412
Mof_H 	H 	0.7999	0.3423	0.6373	0.265
Mof_Mg	Mg	0.15625	0.14529	0.26926	1.464
Mof_O 	O 	0.0816	0.08209	0.18369	-0.513
Mof_O 	O 	0.8924	0.08926	0.14743	-0.572
Mof_O 	O 	0.7904	0.0116	0.0374	-0.386
Mof_H 	H 	0.7943	0.0325	0.077	0.257
Mof_O 	O 	0.2064	0.20021	0.1853	-0.546
Mof_O 	O 	0.0539	0.25952	0.12978	-0.357
Mof_O 	O 	0.0458	0.31423	0.00128	-0.373
Mof_H 	H 	0.0247	0.3059	0.0405	0.279
Mof_C 	C 	0.9889	0.07152	0.13812	0.464
Mof_C 	C 	0.9947	0.03395	0.06699	-0.32
Mof_C 	C 	0.8958	0.00745	0.0213	0.214
Mof_C 	C 	0.0993	0.02682	0.04478	0.254
Mof_C 	C 	0.1501	0.23288	0.13098	0.439
Mof_C 	C 	0.2007	0.24174	0.06241	-0.233
Mof_C 	C 	0.1486	0.28356	0.003	0.17
Mof_C 	C 	0.3014	0.20807	0.05877	0.211
Mof_H 	H 	0.01	0.227	0.212	0.367
Mof_O 	O 	0.2017	0.0464	0.0859	-0.384
Mof_H 	H 	0.1926	0.0663	0.1239	0.252
Mof_O 	O 	0.3419	0.1621	0.1073	-0.401
Mof_H 	H 	0.2999	0.1577	0.1373	0.265
Mof_Mg	Mg	0.65625	0.64529	0.26926	1.463
Mof_O 	O 	0.5816	0.58209	0.18369	-0.555
Mof_O 	O 	0.3924	0.58926	0.14743	-0.563
Mof_O 	O 	0.2904	0.5116	0.0374	-0.365
Mof_H 	H 	0.2943	0.5325	0.077	0.256
Mof_O 	O 	0.7064	0.70021	0.1853	-0.556
Mof_O 	O 	0.5539	0.75952	0.12978	-0.374
Mof_O 	O 	0.5458	0.81423	0.00128	-0.384
Mof_H 	H 	0.5247	0.8059	0.0405	0.274
Mof_C 	C 	0.4889	0.57152	0.13812	0.509
Mof_C 	C 	0.4947	0.53395	0.06699	-0.248
Mof_C 	C 	0.3958	0.50745	0.0213	0.179
Mof_C 	C 	0.5993	0.52682	0.04478	0.175
Mof_C 	C 	0.6501	0.73288	0.13098	0.44
Mof_C 	C 	0.7007	0.74174	0.06241	-0.239
Mof_C 	C 	0.6486	0.78356	0.003	0.166
Mof_C 	C 	0.8014	0.70807	0.05877	0.208
Mof_H 	H 	0.51	0.727	0.212	0.384
Mof_O 	O 	0.7017	0.5464	0.0859	-0.369
Mof_H 	H 	0.6926	0.5663	0.1239	0.24
Mof_O 	O 	0.8419	0.6621	0.1073	-0.411
Mof_H 	H 	0.7999	0.6577	0.1373	0.264
Mof_Mg	Mg	0.84375	0.14529	0.23074	1.462
Mof_O 	O 	0.9184	0.08209	0.31631	-0.6
Mof_O 	O 	0.1076	0.08926	0.35257	-0.569
Mof_O 	O 	0.2096	0.0116	0.4626	-0.356
Mof_H 	H 	0.2057	0.0325	0.423	0.251
Mof_O 	O 	0.7936	0.20021	0.3147	-0.556
Mof_O 	O 	0.9461	0.25952	0.37022	-0.386
Mof_O 	O 	0.9542	0.31423	0.49872	-0.397
Mof_H 	H 	0.9753	0.3059	0.4595	0.268
Mof_C 	C 	0.0111	0.07152	0.36188	0.557
Mof_C 	C 	0.0053	0.03395	0.43301	-0.182
Mof_C 	C 	0.1042	0.00745	0.4787	0.152
Mof_C 	C 	0.9007	0.02682	0.45522	0.107
Mof_C 	C 	0.8499	0.23288	0.36902	0.441
Mof_C 	C 	0.7993	0.24174	0.43759	-0.245
Mof_C 	C 	0.8514	0.28356	0.497	0.172
Mof_C 	C 	0.6986	0.20807	0.44123	0.218
Mof_H 	H 	0.99	0.227	0.288	0.317
Mof_O 	O 	0.7983	0.0464	0.4141	-0.345
Mof_H 	H 	0.8074	0.0663	0.3761	0.23
Mof_O 	O 	0.6581	0.1621	0.3927	-0.403
Mof_H 	H 	0.7001	0.1577	0.3627	0.265
Mof_Mg	Mg	0.34375	0.64529	0.23074	1.464
Mof_O 	O 	0.4184	0.58209	0.31631	-0.552
Mof_O 	O 	0.6076	0.58926	0.35257	-0.573
Mof_O 	O 	0.7096	0.5116	0.4626	-0.377
Mof_H 	H 	0.7057	0.5325	0.423	0.251
Mof_O 	O 	0.2936	0.70021	0.3147	-0.544
Mof_O 	O 	0.4461	0.75952	0.37022	-0.376
Mof_O 	O 	0.4542	0.81423	0.49872	-0.386
Mof_H 	H 	0.4753	0.8059	0.4595	0.273
Mof_C 	C 	0.5111	0.57152	0.36188	0.511
Mof_C 	C 	0.5053	0.53395	0.43301	-0.252
Mof_C 	C 	0.6042	0.50745	0.4787	0.185
Mof_C 	C 	0.4007	0.52682	0.45522	0.183
Mof_C 	C 	0.3499	0.73288	0.36902	0.441
Mof_C 	C 	0.2993	0.74174	0.43759	-0.239
Mof_C 	C 	0.3514	0.78356	0.497	0.175
Mof_C 	C 	0.1986	0.70807	0.44123	0.22
Mof_H 	H 	0.49	0.727	0.288	0.383
Mof_O 	O 	0.2983	0.5464	0.4141	-0.359
Mof_H 	H 	0.3074	0.5663	0.3761	0.242
Mof_O 	O 	0.1581	0.6621	0.3927	-0.392
Mof_H 	H 	0.2001	0.6577	0.3627	0.266
Mof_O 	O 	5.14289e-33	0.79754	0.75	-0.973
Mof_O 	O 	0.5	0.29754	0.75	-1.066
Mof_O 	O 	1.7143e-33	0.20246	0.25	-0.972
Mof_O 	O 	0.5	0.70246	0.25	-1.066
_end
