data_functionalizedCrystal
_audit_creation_method	'EQeq! by Chris Wilmer'
_symmetry_space_group_name_H-M	'P1'
_symmetry_Int_Tables_number	1
_symmetry_cell_setting	triclinic
loop_
_symmetry_equiv_pos_as_xyz
  x,y,z
_cell_length_a	12.3029
_cell_length_b	17.4336
_cell_length_c	17.492
_cell_angle_alpha	67.67
_cell_angle_beta	76.2
_cell_angle_gamma	71.884
loop_
_atom_site_label
_atom_site_type_symbol
_atom_site_fract_x
_atom_site_fract_y
_atom_site_fract_z
_atom_site_charge
Mof_Mn	Mn	0.86946	0.20046	0.64551	1.015
Mof_Mn	Mn	0.85702	0.43505	0.47037	0.843
Mof_C 	C 	0.0517	0.5416	0.2652	-0.332
Mof_H 	H 	0.027	0.5732	0.3014	0.158
Mof_C 	C 	0.1634	0.531	0.225	0.272
Mof_C 	C 	0.2018	0.485	0.1708	-0.222
Mof_C 	C 	0.124	0.45	0.1596	0.127
Mof_H 	H 	0.149	0.4183	0.1235	-0.011
Mof_C 	C 	0.0111	0.4582	0.1978	-0.209
Mof_C 	C 	0.9766	0.505	0.2514	0.259
Mof_C 	C 	0.2049	0.6322	0.2684	-0.195
Mof_H 	H 	0.1327	0.6683	0.2483	0.09
Mof_H 	H 	0.2608	0.6668	0.2477	0.107
Mof_C 	C 	0.1861	0.6037	0.3631	0.395
Mof_C 	C 	0.7992	0.5947	0.2878	-0.172
Mof_H 	H 	0.721	0.5989	0.2816	0.083
Mof_H 	H 	0.8301	0.6349	0.2379	0.081
Mof_C 	C 	0.7945	0.621	0.3616	0.349
Mof_C 	C 	0.3231	0.476	0.1241	0.322
Mof_H 	H 	0.3724	0.4765	0.1603	-0.046
Mof_C 	C 	0.3278	0.5543	0.0454	-0.79
Mof_H 	H 	0.2973	0.6054	0.0602	0.262
Mof_H 	H 	0.2827	0.5551	0.0072	0.254
Mof_H 	H 	0.4065	0.5516	0.0195	0.258
Mof_C 	C 	0.3684	0.3916	0.1093	-0.236
Mof_C 	C 	0.3855	0.317	0.1766	0.28
Mof_C 	C 	0.4195	0.2374	0.1672	-0.319
Mof_H 	H 	0.4283	0.1881	0.2138	0.171
Mof_C 	C 	0.4406	0.2314	0.0874	0.274
Mof_C 	C 	0.4269	0.305	0.0176	-0.231
Mof_C 	C 	0.3916	0.3826	0.0309	0.142
Mof_H 	H 	0.3827	0.4321	0.9846	-0.043
Mof_C 	C 	0.4426	0.0848	0.1378	-0.242
Mof_H 	H 	0.4354	0.0457	0.1132	0.138
Mof_H 	H 	0.3673	0.1049	0.1664	0.125
Mof_C 	C 	0.5255	0.037	0.2009	0.463
Mof_C 	C 	0.3091	0.2736	0.3201	-0.172
Mof_H 	H 	0.2576	0.2574	0.2981	0.099
Mof_H 	H 	0.2619	0.3063	0.3557	0.116
Mof_C 	C 	0.3837	0.1948	0.3714	0.333
Mof_C 	C 	0.4516	0.2944	0.9332	0.328
Mof_H 	H 	0.5274	0.2542	0.9308	-0.034
Mof_C 	C 	0.4609	0.3768	0.8614	-0.825
Mof_H 	H 	0.4764	0.3662	0.8094	0.289
Mof_H 	H 	0.5226	0.3968	0.8663	0.283
Mof_H 	H 	0.3897	0.4194	0.8633	0.269
Mof_C 	C 	0.3664	0.2546	0.9207	-0.206
Mof_C 	C 	0.2566	0.2576	0.9652	0.117
Mof_H 	H 	0.2349	0.2836	0.0059	-0.003
Mof_C 	C 	0.1774	0.2235	0.952	-0.2
Mof_C 	C 	0.2111	0.1866	0.8905	0.257
Mof_C 	C 	0.3216	0.1795	0.847	-0.317
Mof_H 	H 	0.3442	0.1516	0.8077	0.16
Mof_C 	C 	0.397	0.2131	0.8618	0.268
Mof_C 	C 	0.5314	0.1975	0.7429	-0.188
Mof_H 	H 	0.4797	0.2427	0.7059	0.109
Mof_H 	H 	0.5195	0.1431	0.7485	0.118
Mof_C 	C 	0.6534	0.2005	0.7073	0.345
Mof_C 	C 	0.1359	0.1637	0.7915	-0.223
Mof_H 	H 	0.1956	0.1174	0.778	0.137
Mof_H 	H 	0.1558	0.217	0.7561	0.12
Mof_C 	C 	0.0223	0.1634	0.7738	0.409
Mof_C 	C 	0.0554	0.2311	0.9982	0.303
Mof_H 	H 	0.0367	0.1764	0.011	-0.013
Mof_C 	C 	0.9711	0.2989	0.9413	-0.797
Mof_H 	H 	0.9817	0.2869	0.8905	0.283
Mof_H 	H 	0.9846	0.354	0.9289	0.265
Mof_H 	H 	0.8935	0.2987	0.9686	0.27
Mof_C 	C 	0.0427	0.2447	0.0805	-0.201
Mof_C 	C 	0.0781	0.1753	0.151	0.272
Mof_C 	C 	0.0673	0.1862	0.2263	-0.309
Mof_H 	H 	0.0929	0.1401	0.2723	0.153
Mof_C 	C 	0.0172	0.2675	0.2329	0.261
Mof_C 	C 	0.9806	0.3381	0.1655	-0.21
Mof_C 	C 	0.9958	0.324	0.0908	0.125
Mof_H 	H 	0.9732	0.3708	0.0444	-0.035
Mof_C 	C 	0.9266	0.4239	0.1779	0.295
Mof_H 	H 	0.8672	0.4148	0.2268	-0.03
Mof_C 	C 	0.8658	0.4917	0.1055	-0.743
Mof_H 	H 	0.8117	0.4698	0.0933	0.237
Mof_H 	H 	0.9219	0.506	0.0572	0.236
Mof_H 	H 	0.8256	0.5419	0.1204	0.244
Mof_C 	C 	0.0063	0.2169	0.3824	-0.222
Mof_H 	H 	0.0862	0.1899	0.3913	0.123
Mof_H 	H 	0.9712	0.1741	0.3826	0.125
Mof_C 	C 	0.9415	0.2546	0.4514	0.455
Mof_C 	C 	0.1485	0.0254	0.2089	-0.183
Mof_H 	H 	0.1921	0.0366	0.2413	0.101
Mof_H 	H 	0.1978	0.9788	0.1898	0.12
Mof_C 	C 	0.047	0.9968	0.2646	0.363
Mof_O 	O 	0.476	0.1556	0.0733	-0.173
Mof_O 	O 	0.6228	0.0474	0.1854	-0.274
Mof_O 	O 	0.4851	0.9877	0.2667	-0.545
Mof_H 	H 	0.534	0.9636	0.2985	0.317
Mof_O 	O 	0.3715	0.3265	0.2529	-0.187
Mof_O 	O 	0.3283	0.1466	0.4304	-0.221
Mof_O 	O 	0.5078	0.2081	0.8215	-0.192
Mof_O 	O 	0.6823	0.2091	0.6307	-0.317
Mof_O 	O 	0.7247	0.1936	0.7511	-0.333
Mof_O 	O 	0.1322	0.1543	0.8756	-0.173
Mof_O 	O 	0.0088	0.1956	0.6983	-0.382
Mof_O 	O 	0.9541	0.1322	0.8301	-0.261
Mof_O 	O 	0.124	0.0983	0.1389	-0.181
Mof_O 	O 	0.0705	0.9347	0.331	-0.338
Mof_O 	O 	0.948	0.0341	0.246	-0.218
Mof_O 	O 	0.0003	0.2843	0.306	-0.18
Mof_O 	O 	0.9459	0.2031	0.5233	-0.391
Mof_O 	O 	0.8879	0.3306	0.4311	-0.4
Mof_O 	O 	0.8651	0.5125	0.2931	-0.229
Mof_O 	O 	0.8485	0.5676	0.4203	-0.358
Mof_O 	O 	0.7355	0.6934	0.3592	-0.264
Mof_O 	O 	0.2436	0.5654	0.2345	-0.202
Mof_O 	O 	0.1875	0.5304	0.4062	-0.339
Mof_O 	O 	0.1688	0.6609	0.3945	-0.447
Mof_O 	O 	0.4891	0.1802	0.3548	-0.212
Mof_Mn	Mn	0.13054	0.79954	0.35449	1.016
Mof_Mn	Mn	0.14298	0.56495	0.52963	0.844
Mof_C 	C 	0.9483	0.4584	0.7348	-0.331
Mof_H 	H 	0.973	0.4268	0.6986	0.159
Mof_C 	C 	0.8366	0.469	0.775	0.273
Mof_C 	C 	0.7982	0.515	0.8292	-0.221
Mof_C 	C 	0.876	0.55	0.8404	0.127
Mof_H 	H 	0.851	0.5817	0.8765	-0.011
Mof_C 	C 	0.9889	0.5418	0.8022	-0.209
Mof_C 	C 	0.0234	0.495	0.7486	0.259
Mof_C 	C 	0.7951	0.3678	0.7316	-0.195
Mof_H 	H 	0.8673	0.3317	0.7517	0.09
Mof_H 	H 	0.7392	0.3332	0.7523	0.107
Mof_C 	C 	0.8139	0.3963	0.6369	0.395
Mof_C 	C 	0.2008	0.4053	0.7122	-0.172
Mof_H 	H 	0.279	0.4011	0.7184	0.083
Mof_H 	H 	0.1699	0.3651	0.7621	0.081
Mof_C 	C 	0.2055	0.379	0.6384	0.349
Mof_C 	C 	0.6769	0.524	0.8759	0.322
Mof_H 	H 	0.6276	0.5235	0.8397	-0.046
Mof_C 	C 	0.6722	0.4457	0.9546	-0.79
Mof_H 	H 	0.7027	0.3946	0.9398	0.262
Mof_H 	H 	0.7173	0.4449	0.9928	0.254
Mof_H 	H 	0.5935	0.4484	0.9805	0.258
Mof_C 	C 	0.6316	0.6084	0.8907	-0.236
Mof_C 	C 	0.6145	0.683	0.8234	0.28
Mof_C 	C 	0.5805	0.7626	0.8328	-0.319
Mof_H 	H 	0.5717	0.8119	0.7862	0.171
Mof_C 	C 	0.5594	0.7686	0.9126	0.274
Mof_C 	C 	0.5731	0.695	0.9824	-0.231
Mof_C 	C 	0.6084	0.6174	0.9691	0.142
Mof_H 	H 	0.6173	0.5679	0.0154	-0.043
Mof_C 	C 	0.5574	0.9152	0.8622	-0.242
Mof_H 	H 	0.5646	0.9543	0.8868	0.138
Mof_H 	H 	0.6327	0.8951	0.8336	0.125
Mof_C 	C 	0.4745	0.963	0.7991	0.463
Mof_C 	C 	0.6909	0.7264	0.6799	-0.172
Mof_H 	H 	0.7424	0.7426	0.7019	0.099
Mof_H 	H 	0.7381	0.6937	0.6443	0.116
Mof_C 	C 	0.6163	0.8052	0.6286	0.333
Mof_C 	C 	0.5484	0.7056	0.0668	0.328
Mof_H 	H 	0.4726	0.7458	0.0692	-0.034
Mof_C 	C 	0.5391	0.6232	0.1386	-0.825
Mof_H 	H 	0.5236	0.6338	0.1906	0.289
Mof_H 	H 	0.4774	0.6032	0.1337	0.283
Mof_H 	H 	0.6103	0.5806	0.1367	0.269
Mof_C 	C 	0.6336	0.7454	0.0793	-0.206
Mof_C 	C 	0.7434	0.7424	0.0348	0.117
Mof_H 	H 	0.7651	0.7164	0.9941	-0.003
Mof_C 	C 	0.8226	0.7765	0.048	-0.2
Mof_C 	C 	0.7889	0.8134	0.1095	0.257
Mof_C 	C 	0.6784	0.8205	0.153	-0.317
Mof_H 	H 	0.6558	0.8484	0.1923	0.16
Mof_C 	C 	0.603	0.7869	0.1382	0.268
Mof_C 	C 	0.4686	0.8025	0.2571	-0.188
Mof_H 	H 	0.5203	0.7573	0.2941	0.109
Mof_H 	H 	0.4805	0.8569	0.2515	0.118
Mof_C 	C 	0.3466	0.7995	0.2927	0.345
Mof_C 	C 	0.8641	0.8363	0.2085	-0.223
Mof_H 	H 	0.8044	0.8826	0.222	0.137
Mof_H 	H 	0.8442	0.783	0.2439	0.12
Mof_C 	C 	0.9777	0.8366	0.2262	0.409
Mof_C 	C 	0.9446	0.7689	0.0018	0.303
Mof_H 	H 	0.9633	0.8236	0.989	-0.013
Mof_C 	C 	0.0289	0.7011	0.0587	-0.797
Mof_H 	H 	0.0183	0.7131	0.1095	0.283
Mof_H 	H 	0.0154	0.646	0.0711	0.265
Mof_H 	H 	0.1065	0.7013	0.0314	0.27
Mof_C 	C 	0.9573	0.7553	0.9195	-0.201
Mof_C 	C 	0.9219	0.8247	0.849	0.272
Mof_C 	C 	0.9327	0.8138	0.7737	-0.309
Mof_H 	H 	0.9071	0.8599	0.7277	0.153
Mof_C 	C 	0.9828	0.7325	0.7671	0.261
Mof_C 	C 	0.0194	0.6619	0.8345	-0.21
Mof_C 	C 	0.0042	0.676	0.9092	0.125
Mof_H 	H 	0.0268	0.6292	0.9556	-0.035
Mof_C 	C 	0.0734	0.5761	0.8221	0.295
Mof_H 	H 	0.1328	0.5852	0.7732	-0.03
Mof_C 	C 	0.1342	0.5083	0.8945	-0.743
Mof_H 	H 	0.1883	0.5302	0.9067	0.237
Mof_H 	H 	0.0781	0.494	0.9428	0.236
Mof_H 	H 	0.1744	0.4581	0.8796	0.244
Mof_C 	C 	0.9937	0.7831	0.6176	-0.222
Mof_H 	H 	0.9138	0.8101	0.6087	0.123
Mof_H 	H 	0.0288	0.8259	0.6174	0.125
Mof_C 	C 	0.0585	0.7454	0.5486	0.455
Mof_C 	C 	0.8515	0.9746	0.7911	-0.183
Mof_H 	H 	0.8079	0.9634	0.7587	0.101
Mof_H 	H 	0.8022	0.0212	0.8102	0.12
Mof_C 	C 	0.953	0.0032	0.7354	0.363
Mof_O 	O 	0.524	0.8444	0.9267	-0.173
Mof_O 	O 	0.3772	0.9526	0.8146	-0.274
Mof_O 	O 	0.5149	0.0123	0.7333	-0.545
Mof_H 	H 	0.466	0.0364	0.7015	0.317
Mof_O 	O 	0.6285	0.6735	0.7471	-0.187
Mof_O 	O 	0.6717	0.8534	0.5696	-0.221
Mof_O 	O 	0.4922	0.7919	0.1785	-0.192
Mof_O 	O 	0.3177	0.7909	0.3693	-0.317
Mof_O 	O 	0.2753	0.8064	0.2489	-0.333
Mof_O 	O 	0.8678	0.8457	0.1244	-0.173
Mof_O 	O 	0.9912	0.8044	0.3017	-0.382
Mof_O 	O 	0.0459	0.8678	0.1699	-0.261
Mof_O 	O 	0.876	0.9017	0.8611	-0.181
Mof_O 	O 	0.9295	0.0653	0.669	-0.338
Mof_O 	O 	0.052	0.9659	0.754	-0.218
Mof_O 	O 	0.9997	0.7157	0.694	-0.18
Mof_O 	O 	0.0541	0.7969	0.4767	-0.391
Mof_O 	O 	0.1121	0.6694	0.5689	-0.4
Mof_O 	O 	0.1349	0.4875	0.7069	-0.229
Mof_O 	O 	0.1515	0.4324	0.5797	-0.358
Mof_O 	O 	0.2645	0.3066	0.6408	-0.264
Mof_O 	O 	0.7564	0.4346	0.7655	-0.202
Mof_O 	O 	0.8125	0.4696	0.5938	-0.339
Mof_O 	O 	0.8312	0.3391	0.6055	-0.447
Mof_O 	O 	0.5109	0.8198	0.6452	-0.212
_end
