data_functionalizedCrystal
_audit_creation_method	'EQeq! by Chris Wilmer'
_symmetry_space_group_name_H-M	'P1'
_symmetry_Int_Tables_number	1
_symmetry_cell_setting	triclinic
loop_
_symmetry_equiv_pos_as_xyz
  x,y,z
_cell_length_a	10.8001
_cell_length_b	11.6288
_cell_length_c	25.3183
_cell_angle_alpha	89.094
_cell_angle_beta	87.425
_cell_angle_gamma	78.44
loop_
_atom_site_label
_atom_site_type_symbol
_atom_site_fract_x
_atom_site_fract_y
_atom_site_fract_z
_atom_site_charge
Mof_Ag	Ag	0.74095	0.06095	0.00639	0.323
Mof_Ag	Ag	0.49776	0.05057	0.10954	0.224
Mof_Ag	Ag	0.4876	0.02851	0.01078	0.039
Mof_Ag	Ag	0.52754	0.19291	0.93139	0.325
Mof_Ag	Ag	0.58117	0.28413	0.0326	0.335
Mof_Ag	Ag	0.6231	0.42934	0.93438	0.479
Mof_Ag	Ag	0.59421	0.42486	0.57389	0.669
Mof_Ag	Ag	0.50041	0.19189	0.56557	0.335
Mof_Ag	Ag	0.5957	0.29161	0.47084	0.498
Mof_Ag	Ag	0.73828	0.06418	0.49852	0.368
Mof_Ag	Ag	0.48082	0.04717	0.4781	0.07
Mof_Ag	Ag	0.47822	0.93093	0.57658	0.136
Mof_Ag	Ag	0.4476	0.9539	0.63393	0.229
Mof_Ag	Ag	0.02278	0.33082	0.74956	0.595
Mof_C 	C 	0.9325	0.2856	0.8621	0.071
Mof_H 	H 	0.8572	0.3201	0.8468	-0.039
Mof_C 	C 	0.9264	0.2437	0.9135	-0.084
Mof_C 	C 	0.0366	0.1908	0.9367	0.028
Mof_H 	H 	0.0356	0.1634	0.9714	0.01
Mof_C 	C 	0.1504	0.1794	0.9064	-0.073
Mof_C 	C 	0.1477	0.2263	0.8557	0.084
Mof_H 	H 	0.2238	0.2208	0.8363	-0.015
Mof_C 	C 	0.8048	0.251	0.9409	0.082
Mof_C 	C 	0.7053	0.2412	0.9635	-0.38
Mof_C 	C 	0.7301	0.878	0.0723	0.063
Mof_C 	C 	0.629	0.9256	0.0572	-0.326
Mof_C 	C 	0.1239	0.2205	0.642	0.096
Mof_H 	H 	0.1996	0.2148	0.6589	-0.029
Mof_C 	C 	0.1274	0.1749	0.5919	-0.075
Mof_C 	C 	0.0147	0.1847	0.5664	0.054
Mof_H 	H 	0.0141	0.1571	0.5321	0.028
Mof_C 	C 	0.9026	0.2369	0.5932	-0.08
Mof_C 	C 	0.9079	0.2798	0.6434	0.109
Mof_H 	H 	0.833	0.3151	0.6611	-0.021
Mof_C 	C 	0.7842	0.2434	0.5688	0.135
Mof_C 	C 	0.688	0.2393	0.5457	-0.445
Mof_C 	C 	0.2471	0.1168	0.5689	0.084
Mof_C 	C 	0.3532	0.0685	0.5538	-0.346
Mof_C 	C 	0.3082	0.4513	0.5647	0.132
Mof_C 	C 	0.1691	0.5158	0.566	0.966
Mof_C 	C 	0.6626	0.5483	0.0755	0.079
Mof_C 	C 	0.7971	0.485	0.0804	0.925
Mof_C 	C 	0.3337	0.3037	0.4207	0.115
Mof_C 	C 	0.2028	0.3703	0.4046	0.954
Mof_F 	F 	0.1386	0.5426	0.6165	-0.472
Mof_F 	F 	0.0913	0.4535	0.5594	-0.464
Mof_F 	F 	0.145	0.6115	0.5426	-0.528
Mof_F 	F 	0.8781	0.5461	0.0722	-0.532
Mof_F 	F 	0.8322	0.3891	0.0559	-0.56
Mof_F 	F 	0.8177	0.4558	0.1317	-0.501
Mof_F 	F 	0.2024	0.369	0.3533	-0.528
Mof_F 	F 	0.1118	0.3224	0.4209	-0.461
Mof_F 	F 	0.1772	0.4755	0.4182	-0.521
Mof_N 	N 	0.0402	0.2794	0.8332	-0.193
Mof_N 	N 	0.0172	0.2724	0.6673	-0.192
Mof_O 	O 	0.3248	0.3499	0.5755	-0.259
Mof_O 	O 	0.3888	0.5095	0.5529	-0.344
Mof_O 	O 	0.5921	0.4902	0.0561	-0.327
Mof_O 	O 	0.3637	0.3512	0.9079	-0.249
Mof_O 	O 	0.3428	0.1949	0.4225	-0.267
Mof_O 	O 	0.5893	0.6364	0.5689	-0.327
Mof_Ag	Ag	0.25905	0.93905	0.99361	0.322
Mof_Ag	Ag	0.50224	0.94943	0.89046	0.223
Mof_Ag	Ag	0.5124	0.97149	0.98922	0.038
Mof_Ag	Ag	0.47246	0.80709	0.06861	0.324
Mof_Ag	Ag	0.41883	0.71587	0.9674	0.335
Mof_Ag	Ag	0.3769	0.57066	0.06562	0.479
Mof_Ag	Ag	0.40579	0.57514	0.42611	0.669
Mof_Ag	Ag	0.49959	0.80811	0.43443	0.335
Mof_Ag	Ag	0.4043	0.70839	0.52916	0.498
Mof_Ag	Ag	0.26172	0.93582	0.50148	0.368
Mof_Ag	Ag	0.51918	0.95283	0.5219	0.07
Mof_Ag	Ag	0.52178	0.06907	0.42342	0.136
Mof_Ag	Ag	0.5524	0.0461	0.36607	0.229
Mof_Ag	Ag	0.97722	0.66918	0.25044	0.595
Mof_C 	C 	0.0675	0.7144	0.1379	0.071
Mof_H 	H 	0.1428	0.6799	0.1532	-0.039
Mof_C 	C 	0.0736	0.7563	0.0865	-0.084
Mof_C 	C 	0.9634	0.8092	0.0633	0.028
Mof_H 	H 	0.9644	0.8366	0.0286	0.01
Mof_C 	C 	0.8496	0.8206	0.0936	-0.073
Mof_C 	C 	0.8523	0.7737	0.1443	0.084
Mof_H 	H 	0.7762	0.7792	0.1637	-0.015
Mof_C 	C 	0.1952	0.749	0.0591	0.082
Mof_C 	C 	0.2947	0.7588	0.0365	-0.38
Mof_C 	C 	0.2699	0.122	0.9277	0.063
Mof_C 	C 	0.371	0.0744	0.9428	-0.326
Mof_C 	C 	0.8761	0.7795	0.358	0.096
Mof_H 	H 	0.8004	0.7852	0.3411	-0.029
Mof_C 	C 	0.8726	0.8251	0.4081	-0.075
Mof_C 	C 	0.9853	0.8153	0.4336	0.054
Mof_H 	H 	0.9859	0.8429	0.4679	0.028
Mof_C 	C 	0.0974	0.7631	0.4068	-0.08
Mof_C 	C 	0.0921	0.7202	0.3566	0.109
Mof_H 	H 	0.167	0.6849	0.3389	-0.021
Mof_C 	C 	0.2158	0.7566	0.4312	0.135
Mof_C 	C 	0.312	0.7607	0.4543	-0.445
Mof_C 	C 	0.7529	0.8832	0.4311	0.084
Mof_C 	C 	0.6468	0.9315	0.4462	-0.346
Mof_C 	C 	0.6918	0.5487	0.4353	0.132
Mof_C 	C 	0.8309	0.4842	0.434	0.966
Mof_C 	C 	0.3374	0.4517	0.9245	0.079
Mof_C 	C 	0.2029	0.515	0.9196	0.925
Mof_C 	C 	0.6663	0.6963	0.5793	0.115
Mof_C 	C 	0.7972	0.6297	0.5954	0.954
Mof_F 	F 	0.8614	0.4574	0.3835	-0.472
Mof_F 	F 	0.9087	0.5465	0.4406	-0.464
Mof_F 	F 	0.855	0.3885	0.4574	-0.528
Mof_F 	F 	0.1219	0.4539	0.9278	-0.532
Mof_F 	F 	0.1678	0.6109	0.9441	-0.56
Mof_F 	F 	0.1823	0.5442	0.8683	-0.501
Mof_F 	F 	0.7976	0.631	0.6467	-0.528
Mof_F 	F 	0.8882	0.6776	0.5791	-0.461
Mof_F 	F 	0.8228	0.5245	0.5818	-0.521
Mof_N 	N 	0.9598	0.7206	0.1668	-0.193
Mof_N 	N 	0.9828	0.7276	0.3327	-0.192
Mof_O 	O 	0.6752	0.6501	0.4245	-0.259
Mof_O 	O 	0.6112	0.4905	0.4471	-0.344
Mof_O 	O 	0.4079	0.5098	0.9439	-0.327
Mof_O 	O 	0.6363	0.6488	0.0921	-0.249
Mof_O 	O 	0.6572	0.8051	0.5775	-0.267
Mof_O 	O 	0.4107	0.3636	0.4311	-0.327
_end
