data_functionalizedCrystal
_audit_creation_method	'EQeq! by Chris Wilmer'
_symmetry_space_group_name_H-M	'P1'
_symmetry_Int_Tables_number	1
_symmetry_cell_setting	triclinic
loop_
_symmetry_equiv_pos_as_xyz
  x,y,z
_cell_length_a	24.2447
_cell_length_b	24.2447
_cell_length_c	13.1705
_cell_angle_alpha	90
_cell_angle_beta	90
_cell_angle_gamma	120
loop_
_atom_site_label
_atom_site_type_symbol
_atom_site_fract_x
_atom_site_fract_y
_atom_site_fract_z
_atom_site_charge
Mof_O 	O 	0.7648	0.0357	0.1094	-0.459
Mof_O 	O 	0.7158	0.0698	0.0004	-0.555
Mof_O 	O 	0.9929	0.5673	0.0835	-0.505
Mof_C 	C 	0.9422	0.2538	0.012	0.204
Mof_C 	C 	0.8844	0.2468	0.977	-0.239
Mof_H 	H 	0.8838	0.2811	0.9466	0.118
Mof_C 	C 	0.8278	0.1886	0.9876	0.155
Mof_H 	H 	0.7902	0.185	0.9625	-0.036
Mof_C 	C 	0.8255	0.1385	0.0319	-0.195
Mof_C 	C 	0.9403	0.2008	0.0626	-0.205
Mof_H 	H 	0.9776	0.2045	0.0887	0.112
Mof_C 	C 	0.8815	0.1418	0.0739	0.104
Mof_H 	H 	0.8799	0.1072	0.1071	0.004
Mof_C 	C 	0.766	0.0771	0.0469	0.376
Mof_C 	C 	0.9724	0.384	0.0769	-0.306
Mof_H 	H 	0.9525	0.3547	0.1291	0.147
Mof_C 	C 	0.9737	0.4403	0.0778	0.286
Mof_H 	H 	0.9562	0.4501	0.133	-0.055
Mof_O 	O 	0.43147	0.36903	0.44273	-0.44
Mof_O 	O 	0.38247	0.40313	0.33373	-0.55
Mof_O 	O 	0.65957	0.90063	0.41683	-0.547
Mof_C 	C 	0.60887	0.58713	0.34533	0.163
Mof_C 	C 	0.55107	0.58013	0.31033	-0.216
Mof_H 	H 	0.55047	0.61443	0.27993	0.104
Mof_C 	C 	0.49447	0.52193	0.32093	0.137
Mof_H 	H 	0.45687	0.51833	0.29583	-0.031
Mof_C 	C 	0.49217	0.47183	0.36523	-0.182
Mof_C 	C 	0.60697	0.53413	0.39593	-0.186
Mof_H 	H 	0.64427	0.53783	0.42203	0.093
Mof_C 	C 	0.54817	0.47513	0.40723	0.087
Mof_H 	H 	0.54657	0.44053	0.44043	0.01
Mof_C 	C 	0.43267	0.41043	0.38023	0.373
Mof_C 	C 	0.63907	0.71733	0.41023	-0.376
Mof_H 	H 	0.61917	0.68803	0.46243	0.164
Mof_C 	C 	0.64037	0.77363	0.41113	0.27
Mof_H 	H 	0.62287	0.78343	0.46633	-0.058
Mof_O 	O 	0.09813	0.70237	0.77607	-0.451
Mof_O 	O 	0.04913	0.73647	0.66707	-0.557
Mof_O 	O 	0.32623	0.23397	0.75017	-0.564
Mof_C 	C 	0.27553	0.92047	0.67867	0.168
Mof_C 	C 	0.21773	0.91347	0.64367	-0.216
Mof_H 	H 	0.21713	0.94777	0.61327	0.114
Mof_C 	C 	0.16113	0.85527	0.65427	0.14
Mof_H 	H 	0.12353	0.85167	0.62917	-0.031
Mof_C 	C 	0.15883	0.80517	0.69857	-0.182
Mof_C 	C 	0.27363	0.86747	0.72927	-0.186
Mof_H 	H 	0.31093	0.87117	0.75537	0.094
Mof_C 	C 	0.21483	0.80847	0.74057	0.089
Mof_H 	H 	0.21323	0.77387	0.77377	0.011
Mof_C 	C 	0.09933	0.74377	0.71357	0.373
Mof_C 	C 	0.30573	0.05067	0.74357	-0.339
Mof_H 	H 	0.28583	0.02137	0.79577	0.138
Mof_C 	C 	0.30703	0.10697	0.74447	0.237
Mof_H 	H 	0.28953	0.11677	0.79967	-0.051
Mof_O 	O 	0.9643	0.7291	0.1094	-0.416
Mof_O 	O 	0.9302	0.646	0.0004	-0.547
Mof_O 	O 	0.4327	0.4256	0.0835	-0.564
Mof_C 	C 	0.7462	0.6884	0.012	0.155
Mof_C 	C 	0.7532	0.6376	0.977	-0.209
Mof_H 	H 	0.7189	0.6027	0.9466	0.104
Mof_C 	C 	0.8114	0.6392	0.9876	0.143
Mof_H 	H 	0.815	0.6052	0.9625	-0.032
Mof_C 	C 	0.8615	0.687	0.0319	-0.186
Mof_C 	C 	0.7992	0.7395	0.0626	-0.183
Mof_H 	H 	0.7955	0.7731	0.0887	0.094
Mof_C 	C 	0.8582	0.7397	0.0739	0.088
Mof_H 	H 	0.8928	0.7727	0.1071	0.017
Mof_C 	C 	0.9229	0.6889	0.0469	0.375
Mof_C 	C 	0.616	0.5884	0.0769	-0.373
Mof_H 	H 	0.6453	0.5978	0.1291	0.163
Mof_C 	C 	0.5597	0.5334	0.0778	0.269
Mof_H 	H 	0.5499	0.5061	0.133	-0.059
Mof_O 	O 	0.63097	0.06243	0.44273	-0.433
Mof_O 	O 	0.59687	0.97933	0.33373	-0.523
Mof_O 	O 	0.09937	0.75893	0.41683	-0.558
Mof_C 	C 	0.41287	0.02173	0.34533	0.131
Mof_C 	C 	0.41987	0.97093	0.31033	-0.189
Mof_H 	H 	0.38557	0.93603	0.27993	0.1
Mof_C 	C 	0.47807	0.97253	0.32093	0.179
Mof_H 	H 	0.48167	0.93853	0.29583	-0.041
Mof_C 	C 	0.52817	0.02033	0.36523	-0.219
Mof_C 	C 	0.46587	0.07283	0.39593	-0.185
Mof_H 	H 	0.46217	0.10643	0.42203	0.092
Mof_C 	C 	0.52487	0.07303	0.40723	0.093
Mof_H 	H 	0.55947	0.10603	0.44043	0.008
Mof_C 	C 	0.58957	0.02223	0.38023	0.348
Mof_C 	C 	0.28267	0.92173	0.41023	-0.413
Mof_H 	H 	0.31197	0.93113	0.46243	0.182
Mof_C 	C 	0.22637	0.86673	0.41113	0.3
Mof_H 	H 	0.21657	0.83943	0.46633	-0.068
Mof_O 	O 	0.29763	0.39577	0.77607	-0.44
Mof_O 	O 	0.26353	0.31267	0.66707	-0.552
Mof_O 	O 	0.76603	0.09227	0.75017	-0.56
Mof_C 	C 	0.07953	0.35507	0.67867	0.159
Mof_C 	C 	0.08653	0.30427	0.64367	-0.217
Mof_H 	H 	0.05223	0.26937	0.61327	0.095
Mof_C 	C 	0.14473	0.30587	0.65427	0.136
Mof_H 	H 	0.14833	0.27187	0.62917	-0.034
Mof_C 	C 	0.19483	0.35367	0.69857	-0.182
Mof_C 	C 	0.13253	0.40617	0.72927	-0.184
Mof_H 	H 	0.12883	0.43977	0.75537	0.093
Mof_C 	C 	0.19153	0.40637	0.74057	0.087
Mof_H 	H 	0.22613	0.43937	0.77377	0.012
Mof_C 	C 	0.25623	0.35557	0.71357	0.373
Mof_C 	C 	0.94933	0.25507	0.74357	-0.414
Mof_H 	H 	0.97863	0.26447	0.79577	0.189
Mof_C 	C 	0.89303	0.20007	0.74447	0.302
Mof_H 	H 	0.88323	0.17277	0.79967	-0.069
Mof_O 	O 	0.2709	0.2352	0.1094	-0.445
Mof_O 	O 	0.354	0.2842	0.0004	-0.556
Mof_O 	O 	0.5744	0.0071	0.0835	-0.576
Mof_C 	C 	0.3116	0.0578	0.012	0.151
Mof_C 	C 	0.3624	0.1156	0.977	-0.211
Mof_H 	H 	0.3973	0.1162	0.9466	0.103
Mof_C 	C 	0.3608	0.1722	0.9876	0.144
Mof_H 	H 	0.3948	0.2098	0.9625	-0.032
Mof_C 	C 	0.313	0.1745	0.0319	-0.191
Mof_C 	C 	0.2605	0.0597	0.0626	-0.189
Mof_H 	H 	0.2269	0.0224	0.0887	0.078
Mof_C 	C 	0.2603	0.1185	0.0739	0.086
Mof_H 	H 	0.2273	0.1201	0.1071	0.004
Mof_C 	C 	0.3111	0.234	0.0469	0.375
Mof_C 	C 	0.4116	0.0276	0.0769	-0.35
Mof_H 	H 	0.4022	0.0475	0.1291	0.151
Mof_C 	C 	0.4666	0.0263	0.0778	0.252
Mof_H 	H 	0.4939	0.0438	0.133	-0.057
Mof_O 	O 	0.93757	0.56853	0.44273	-0.429
Mof_O 	O 	0.02067	0.61753	0.33373	-0.568
Mof_O 	O 	0.24107	0.34043	0.41683	-0.564
Mof_C 	C 	0.97827	0.39113	0.34533	0.199
Mof_C 	C 	0.02907	0.44893	0.31033	-0.248
Mof_H 	H 	0.06397	0.44953	0.27993	0.11
Mof_C 	C 	0.02747	0.50553	0.32093	0.091
Mof_H 	H 	0.06147	0.54313	0.29583	-0.02
Mof_C 	C 	0.97967	0.50783	0.36523	-0.139
Mof_C 	C 	0.92717	0.39303	0.39593	-0.187
Mof_H 	H 	0.89357	0.35573	0.42203	0.093
Mof_C 	C 	0.92697	0.45183	0.40723	0.081
Mof_H 	H 	0.89397	0.45343	0.44043	0.014
Mof_C 	C 	0.97777	0.56733	0.38023	0.399
Mof_C 	C 	0.07827	0.36093	0.41023	-0.341
Mof_H 	H 	0.06887	0.38083	0.46243	0.146
Mof_C 	C 	0.13327	0.35963	0.41113	0.24
Mof_H 	H 	0.16057	0.37713	0.46633	-0.049
Mof_O 	O 	0.60423	0.90187	0.77607	-0.423
Mof_O 	O 	0.68733	0.95087	0.66707	-0.518
Mof_O 	O 	0.90773	0.67377	0.75017	-0.564
Mof_C 	C 	0.64493	0.72447	0.67867	0.161
Mof_C 	C 	0.69573	0.78227	0.64367	-0.211
Mof_H 	H 	0.73063	0.78287	0.61327	0.106
Mof_C 	C 	0.69413	0.83887	0.65427	0.131
Mof_H 	H 	0.72813	0.87647	0.62917	-0.022
Mof_C 	C 	0.64633	0.84117	0.69857	-0.174
Mof_C 	C 	0.59383	0.72637	0.72927	-0.182
Mof_H 	H 	0.56023	0.68907	0.75537	0.092
Mof_C 	C 	0.59363	0.78517	0.74057	0.083
Mof_H 	H 	0.56063	0.78677	0.77377	0.013
Mof_C 	C 	0.64443	0.90067	0.71357	0.366
Mof_C 	C 	0.74493	0.69427	0.74357	-0.374
Mof_H 	H 	0.73553	0.71417	0.79577	0.165
Mof_C 	C 	0.79993	0.69297	0.74447	0.27
Mof_H 	H 	0.82723	0.71047	0.79967	-0.055
Mof_O 	O 	0.0357	0.7648	0.8906	-0.456
Mof_O 	O 	0.0698	0.7158	0.9996	-0.545
Mof_O 	O 	0.5673	0.9929	0.9165	-0.508
Mof_C 	C 	0.2538	0.9422	0.988	0.221
Mof_C 	C 	0.2468	0.8844	0.023	-0.252
Mof_H 	H 	0.2811	0.8838	0.0534	0.118
Mof_C 	C 	0.1886	0.8278	0.0124	0.133
Mof_H 	H 	0.185	0.7902	0.0375	-0.033
Mof_C 	C 	0.1385	0.8255	0.9681	-0.173
Mof_C 	C 	0.2008	0.9403	0.9374	-0.204
Mof_H 	H 	0.2045	0.9776	0.9113	0.114
Mof_C 	C 	0.1418	0.8815	0.9261	0.099
Mof_H 	H 	0.1072	0.8799	0.8929	0.008
Mof_C 	C 	0.0771	0.766	0.9531	0.37
Mof_C 	C 	0.384	0.9724	0.9231	-0.308
Mof_H 	H 	0.3547	0.9525	0.8709	0.149
Mof_C 	C 	0.4403	0.9737	0.9222	0.29
Mof_H 	H 	0.4501	0.9562	0.867	-0.056
Mof_O 	O 	0.70237	0.09813	0.22393	-0.451
Mof_O 	O 	0.73647	0.04913	0.33293	-0.556
Mof_O 	O 	0.23397	0.32623	0.24983	-0.565
Mof_C 	C 	0.92047	0.27553	0.32133	0.168
Mof_C 	C 	0.91347	0.21773	0.35633	-0.217
Mof_H 	H 	0.94777	0.21713	0.38673	0.114
Mof_C 	C 	0.85527	0.16113	0.34573	0.14
Mof_H 	H 	0.85167	0.12353	0.37083	-0.031
Mof_C 	C 	0.80517	0.15883	0.30143	-0.183
Mof_C 	C 	0.86747	0.27363	0.27073	-0.187
Mof_H 	H 	0.87117	0.31093	0.24463	0.094
Mof_C 	C 	0.80847	0.21483	0.25943	0.089
Mof_H 	H 	0.77387	0.21323	0.22623	0.01
Mof_C 	C 	0.74377	0.09933	0.28643	0.374
Mof_C 	C 	0.05067	0.30573	0.25643	-0.34
Mof_H 	H 	0.02137	0.28583	0.20423	0.137
Mof_C 	C 	0.10697	0.30703	0.25553	0.238
Mof_H 	H 	0.11677	0.28953	0.20033	-0.053
Mof_O 	O 	0.36903	0.43147	0.55727	-0.44
Mof_O 	O 	0.40313	0.38247	0.66627	-0.551
Mof_O 	O 	0.90063	0.65957	0.58317	-0.547
Mof_C 	C 	0.58713	0.60887	0.65467	0.163
Mof_C 	C 	0.58013	0.55107	0.68967	-0.216
Mof_H 	H 	0.61443	0.55047	0.72007	0.105
Mof_C 	C 	0.52193	0.49447	0.67907	0.138
Mof_H 	H 	0.51833	0.45687	0.70417	-0.031
Mof_C 	C 	0.47183	0.49217	0.63477	-0.182
Mof_C 	C 	0.53413	0.60697	0.60407	-0.186
Mof_H 	H 	0.53783	0.64427	0.57797	0.093
Mof_C 	C 	0.47513	0.54817	0.59277	0.088
Mof_H 	H 	0.44053	0.54657	0.55957	0.01
Mof_C 	C 	0.41043	0.43267	0.61977	0.374
Mof_C 	C 	0.71733	0.63907	0.58977	-0.375
Mof_H 	H 	0.68803	0.61917	0.53757	0.164
Mof_C 	C 	0.77363	0.64037	0.58887	0.27
Mof_H 	H 	0.78343	0.62287	0.53367	-0.058
Mof_O 	O 	0.7291	0.9643	0.8906	-0.412
Mof_O 	O 	0.646	0.9302	0.9996	-0.538
Mof_O 	O 	0.4256	0.4327	0.9165	-0.559
Mof_C 	C 	0.6884	0.7462	0.988	0.175
Mof_C 	C 	0.6376	0.7532	0.023	-0.223
Mof_H 	H 	0.6027	0.7189	0.0534	0.105
Mof_C 	C 	0.6392	0.8114	0.0124	0.123
Mof_H 	H 	0.6052	0.815	0.0375	-0.03
Mof_C 	C 	0.687	0.8615	0.9681	-0.166
Mof_C 	C 	0.7395	0.7992	0.9374	-0.184
Mof_H 	H 	0.7731	0.7955	0.9113	0.097
Mof_C 	C 	0.7397	0.8582	0.9261	0.085
Mof_H 	H 	0.7727	0.8928	0.8929	0.019
Mof_C 	C 	0.6889	0.9229	0.9531	0.37
Mof_C 	C 	0.5884	0.616	0.9231	-0.367
Mof_H 	H 	0.5978	0.6453	0.8709	0.162
Mof_C 	C 	0.5334	0.5597	0.9222	0.276
Mof_H 	H 	0.5061	0.5499	0.867	-0.059
Mof_O 	O 	0.39577	0.29763	0.22393	-0.44
Mof_O 	O 	0.31267	0.26353	0.33293	-0.552
Mof_O 	O 	0.09227	0.76603	0.24983	-0.56
Mof_C 	C 	0.35507	0.07953	0.32133	0.159
Mof_C 	C 	0.30427	0.08653	0.35633	-0.217
Mof_H 	H 	0.26937	0.05223	0.38673	0.095
Mof_C 	C 	0.30587	0.14473	0.34573	0.136
Mof_H 	H 	0.27187	0.14833	0.37083	-0.035
Mof_C 	C 	0.35367	0.19483	0.30143	-0.182
Mof_C 	C 	0.40617	0.13253	0.27073	-0.185
Mof_H 	H 	0.43977	0.12883	0.24463	0.092
Mof_C 	C 	0.40637	0.19153	0.25943	0.086
Mof_H 	H 	0.43937	0.22613	0.22623	0.01
Mof_C 	C 	0.35557	0.25623	0.28643	0.373
Mof_C 	C 	0.25507	0.94933	0.25643	-0.415
Mof_H 	H 	0.26447	0.97863	0.20423	0.189
Mof_C 	C 	0.20007	0.89303	0.25553	0.303
Mof_H 	H 	0.17277	0.88323	0.20033	-0.07
Mof_O 	O 	0.06243	0.63097	0.55727	-0.433
Mof_O 	O 	0.97933	0.59687	0.66627	-0.524
Mof_O 	O 	0.75893	0.09937	0.58317	-0.558
Mof_C 	C 	0.02173	0.41287	0.65467	0.132
Mof_C 	C 	0.97093	0.41987	0.68967	-0.189
Mof_H 	H 	0.93603	0.38557	0.72007	0.1
Mof_C 	C 	0.97253	0.47807	0.67907	0.18
Mof_H 	H 	0.93853	0.48167	0.70417	-0.04
Mof_C 	C 	0.02033	0.52817	0.63477	-0.22
Mof_C 	C 	0.07283	0.46587	0.60407	-0.185
Mof_H 	H 	0.10643	0.46217	0.57797	0.092
Mof_C 	C 	0.07303	0.52487	0.59277	0.093
Mof_H 	H 	0.10603	0.55947	0.55957	0.008
Mof_C 	C 	0.02223	0.58957	0.61977	0.348
Mof_C 	C 	0.92173	0.28267	0.58977	-0.413
Mof_H 	H 	0.93113	0.31197	0.53757	0.182
Mof_C 	C 	0.86673	0.22637	0.58887	0.3
Mof_H 	H 	0.83943	0.21657	0.53367	-0.068
Mof_O 	O 	0.2352	0.2709	0.8906	-0.441
Mof_O 	O 	0.2842	0.354	0.9996	-0.546
Mof_O 	O 	0.0071	0.5744	0.9165	-0.564
Mof_C 	C 	0.0578	0.3116	0.988	0.175
Mof_C 	C 	0.1156	0.3624	0.023	-0.227
Mof_H 	H 	0.1162	0.3973	0.0534	0.105
Mof_C 	C 	0.1722	0.3608	0.0124	0.125
Mof_H 	H 	0.2098	0.3948	0.0375	-0.03
Mof_C 	C 	0.1745	0.313	0.9681	-0.171
Mof_C 	C 	0.0597	0.2605	0.9374	-0.192
Mof_H 	H 	0.0224	0.2269	0.9113	0.082
Mof_C 	C 	0.1185	0.2603	0.9261	0.084
Mof_H 	H 	0.1201	0.2273	0.8929	0.006
Mof_C 	C 	0.234	0.3111	0.9531	0.37
Mof_C 	C 	0.0276	0.4116	0.9231	-0.335
Mof_H 	H 	0.0475	0.4022	0.8709	0.148
Mof_C 	C 	0.0263	0.4666	0.9222	0.261
Mof_H 	H 	0.0438	0.4939	0.867	-0.058
Mof_O 	O 	0.90187	0.60423	0.22393	-0.423
Mof_O 	O 	0.95087	0.68733	0.33293	-0.518
Mof_O 	O 	0.67377	0.90773	0.24983	-0.565
Mof_C 	C 	0.72447	0.64493	0.32133	0.161
Mof_C 	C 	0.78227	0.69573	0.35633	-0.211
Mof_H 	H 	0.78287	0.73063	0.38673	0.106
Mof_C 	C 	0.83887	0.69413	0.34573	0.131
Mof_H 	H 	0.87647	0.72813	0.37083	-0.022
Mof_C 	C 	0.84117	0.64633	0.30143	-0.174
Mof_C 	C 	0.72637	0.59383	0.27073	-0.183
Mof_H 	H 	0.68907	0.56023	0.24463	0.091
Mof_C 	C 	0.78517	0.59363	0.25943	0.083
Mof_H 	H 	0.78677	0.56063	0.22623	0.012
Mof_C 	C 	0.90067	0.64443	0.28643	0.366
Mof_C 	C 	0.69427	0.74493	0.25643	-0.376
Mof_H 	H 	0.71417	0.73553	0.20423	0.164
Mof_C 	C 	0.69297	0.79993	0.25553	0.271
Mof_H 	H 	0.71047	0.82723	0.20033	-0.057
Mof_O 	O 	0.56853	0.93757	0.55727	-0.43
Mof_O 	O 	0.61753	0.02067	0.66627	-0.569
Mof_O 	O 	0.34043	0.24107	0.58317	-0.564
Mof_C 	C 	0.39113	0.97827	0.65467	0.199
Mof_C 	C 	0.44893	0.02907	0.68967	-0.247
Mof_H 	H 	0.44953	0.06397	0.72007	0.11
Mof_C 	C 	0.50553	0.02747	0.67907	0.092
Mof_H 	H 	0.54313	0.06147	0.70417	-0.02
Mof_C 	C 	0.50783	0.97967	0.63477	-0.14
Mof_C 	C 	0.39303	0.92717	0.60407	-0.187
Mof_H 	H 	0.35573	0.89357	0.57797	0.093
Mof_C 	C 	0.45183	0.92697	0.59277	0.081
Mof_H 	H 	0.45343	0.89397	0.55957	0.013
Mof_C 	C 	0.56733	0.97777	0.61977	0.4
Mof_C 	C 	0.36093	0.07827	0.58977	-0.34
Mof_H 	H 	0.38083	0.06887	0.53757	0.146
Mof_C 	C 	0.35963	0.13327	0.58887	0.24
Mof_H 	H 	0.37713	0.16057	0.53367	-0.049
Mof_La	La	0.64903	0.98236	0.16667	2.198
Mof_La	La	0.3157	0.3157	0.5	2.122
Mof_La	La	0.01764	0.66667	0.16667	2.014
Mof_La	La	0.6843	0	0.5	2.04
Mof_La	La	0.33333	0.35097	0.16667	2.119
Mof_La	La	-3.32634e-17	0.6843	0.5	2.04
Mof_La	La	0.98236	0.64903	0.83333	2.211
Mof_La	La	0.66667	0.01764	0.83333	2.029
Mof_La	La	0.35097	0.33333	0.83333	2.132
Mof_N 	N 	-3.39136e-17	0.3116	-0	-0.232
Mof_C 	C 	-3.39136e-17	0.3705	-0	0.226
Mof_C 	C 	-0	0.4839	-0	-0.365
Mof_C 	C 	-3.39136e-17	0.5457	-0	0.471
Mof_N 	N 	0.66667	0.64493	0.33333	-0.214
Mof_C 	C 	0.66667	0.70383	0.33333	0.304
Mof_C 	C 	0.66667	0.81723	0.33333	-0.335
Mof_C 	C 	0.66667	0.87903	0.33333	0.528
Mof_N 	N 	0.33333	0.97827	0.66667	-0.198
Mof_C 	C 	0.33333	0.03717	0.66667	0.25
Mof_C 	C 	0.33333	0.15057	0.66667	-0.318
Mof_C 	C 	0.33333	0.21237	0.66667	0.521
Mof_N 	N 	0.6884	0.6884	-0	-0.217
Mof_C 	C 	0.6295	0.6295	-0	0.293
Mof_C 	C 	0.5161	0.5161	-0	-0.344
Mof_C 	C 	0.4543	0.4543	-0	0.521
Mof_N 	N 	0.35507	0.02173	0.33333	-0.23
Mof_C 	C 	0.29617	0.96283	0.33333	0.356
Mof_C 	C 	0.18277	0.84943	0.33333	-0.358
Mof_C 	C 	0.12097	0.78763	0.33333	0.53
Mof_N 	N 	0.02173	0.35507	0.66667	-0.229
Mof_C 	C 	0.96283	0.29617	0.66667	0.357
Mof_C 	C 	0.84943	0.18277	0.66667	-0.357
Mof_C 	C 	0.78763	0.12097	0.66667	0.531
Mof_N 	N 	0.3116	0	-0	-0.229
Mof_C 	C 	0.3705	0	-0	0.24
Mof_C 	C 	0.4839	0	-0	-0.358
Mof_C 	C 	0.5457	0	-0	0.485
Mof_N 	N 	0.97827	0.33333	0.33333	-0.198
Mof_C 	C 	0.03717	0.33333	0.33333	0.25
Mof_C 	C 	0.15057	0.33333	0.33333	-0.319
Mof_C 	C 	0.21237	0.33333	0.33333	0.52
Mof_N 	N 	0.64493	0.66667	0.66667	-0.214
Mof_C 	C 	0.70383	0.66667	0.66667	0.304
Mof_C 	C 	0.81723	0.66667	0.66667	-0.334
Mof_C 	C 	0.87903	0.66667	0.66667	0.529
_end
