data_functionalizedCrystal
_audit_creation_method	'EQeq! by Chris Wilmer'
_symmetry_space_group_name_H-M	'P1'
_symmetry_Int_Tables_number	1
_symmetry_cell_setting	triclinic
loop_
_symmetry_equiv_pos_as_xyz
  x,y,z
_cell_length_a	7.2308
_cell_length_b	17.9845
_cell_length_c	17.9845
_cell_angle_alpha	61.767
_cell_angle_beta	82.2981
_cell_angle_gamma	97.7019
loop_
_atom_site_label
_atom_site_type_symbol
_atom_site_fract_x
_atom_site_fract_y
_atom_site_fract_z
_atom_site_charge
Mof_Er	Er	0.78323	0.00052	0.66851	1.485
Mof_Er	Er	0.45174	0.66851	0.33097	1.487
Mof_Er	Er	0.78271	0.33097	0.00052	1.486
Mof_Er	Er	0.21677	0.99948	0.33149	1.485
Mof_Er	Er	0.54826	0.33149	0.66903	1.487
Mof_Er	Er	0.21729	0.66903	0.99948	1.486
Mof_C 	C 	0.0761	0.0397	0.4904	0.24
Mof_C 	C 	0.5732	0.1334	0.7074	0.25
Mof_C 	C 	0.743	0.1953	0.6304	0.254
Mof_C 	C 	0.5665	0.4904	0.4699	0.239
Mof_C 	C 	0.2806	0.7074	0.1592	0.251
Mof_C 	C 	0.3734	0.6304	0.1743	0.253
Mof_C 	C 	0.0364	0.4699	0.0397	0.241
Mof_C 	C 	0.4398	0.1592	0.1334	0.25
Mof_C 	C 	0.5477	0.1743	0.1953	0.254
Mof_C 	C 	0.9239	0.9603	0.5096	0.24
Mof_C 	C 	0.4268	0.8666	0.2926	0.25
Mof_C 	C 	0.257	0.8047	0.3696	0.254
Mof_C 	C 	0.4335	0.5096	0.5301	0.239
Mof_C 	C 	0.7194	0.2926	0.8408	0.251
Mof_C 	C 	0.6266	0.3696	0.8257	0.253
Mof_C 	C 	0.9636	0.5301	0.9603	0.241
Mof_C 	C 	0.5602	0.8408	0.8666	0.25
Mof_C 	C 	0.4523	0.8257	0.8047	0.254
Mof_O 	O 	0.55577	0.05484	0.73243	-0.379
Mof_O 	O 	0.8457	0.16134	0.60064	-0.371
Mof_O 	O 	0.0501	0.06859	0.54149	-0.378
Mof_O 	O 	0.20943	0.0687	0.42511	-0.356
Mof_O 	O 	0.46876	0.1679	0.73662	-0.366
Mof_O 	O 	0.7606	0.27436	0.60506	-0.38
Mof_O 	O 	0.2882	0.73243	0.21273	-0.379
Mof_O 	O 	0.44634	0.60064	0.23802	-0.37
Mof_O 	O 	0.59159	0.54149	0.38992	-0.379
Mof_O 	O 	0.63454	0.42511	0.50619	-0.357
Mof_O 	O 	0.20538	0.73662	0.09548	-0.366
Mof_O 	O 	0.36566	0.60506	0.12058	-0.379
Mof_O 	O 	0.50093	0.21273	0.05484	-0.378
Mof_O 	O 	0.68436	0.23802	0.16134	-0.371
Mof_O 	O 	0.98151	0.38992	0.06859	-0.381
Mof_O 	O 	0.14073	0.50619	0.0687	-0.357
Mof_O 	O 	0.30086	0.09548	0.1679	-0.364
Mof_O 	O 	0.48624	0.12058	0.27436	-0.379
Mof_O 	O 	0.44423	0.94516	0.26757	-0.379
Mof_O 	O 	0.1543	0.83866	0.39936	-0.371
Mof_O 	O 	0.9499	0.93141	0.45851	-0.378
Mof_O 	O 	0.79057	0.9313	0.57489	-0.356
Mof_O 	O 	0.53124	0.8321	0.26338	-0.366
Mof_O 	O 	0.2394	0.72564	0.39494	-0.38
Mof_O 	O 	0.7118	0.26757	0.78727	-0.379
Mof_O 	O 	0.55366	0.39936	0.76198	-0.37
Mof_O 	O 	0.40841	0.45851	0.61008	-0.379
Mof_O 	O 	0.36546	0.57489	0.49381	-0.357
Mof_O 	O 	0.79462	0.26338	0.90452	-0.366
Mof_O 	O 	0.63434	0.39494	0.87942	-0.379
Mof_O 	O 	0.49907	0.78727	0.94516	-0.378
Mof_O 	O 	0.31564	0.76198	0.83866	-0.371
Mof_O 	O 	0.01849	0.61008	0.93141	-0.381
Mof_O 	O 	0.85927	0.49381	0.9313	-0.357
Mof_O 	O 	0.69914	0.90452	0.8321	-0.364
Mof_O 	O 	0.51376	0.87942	0.72564	-0.379
_end
