data_functionalizedCrystal
_audit_creation_method	'EQeq! by Chris Wilmer'
_symmetry_space_group_name_H-M	'P1'
_symmetry_Int_Tables_number	1
_symmetry_cell_setting	triclinic
loop_
_symmetry_equiv_pos_as_xyz
  x,y,z
_cell_length_a	15.5094
_cell_length_b	17.8251
_cell_length_c	24.221
_cell_angle_alpha	90
_cell_angle_beta	90
_cell_angle_gamma	90
loop_
_atom_site_label
_atom_site_type_symbol
_atom_site_fract_x
_atom_site_fract_y
_atom_site_fract_z
_atom_site_charge
Mof_Co	Co	0.19555	0.70863	-0	1.145
Mof_Co	Co	0.80445	0.29137	-0	1.146
Mof_Co	Co	0.30445	0.20863	0.5	1.179
Mof_Co	Co	0.69555	0.79137	0.5	1.178
Mof_Co	Co	0.60668	0.97493	0.5	1.15
Mof_Co	Co	0.39332	0.02507	0.5	1.159
Mof_Co	Co	0.89332	0.47493	-0	1.12
Mof_Co	Co	0.10668	0.52507	-0	1.128
Mof_H 	H 	0.1646	0.8903	0.8786	0.032
Mof_H 	H 	0.1343	0.9784	0.8138	0.086
Mof_H 	H 	0.9166	0.8727	0.7759	0.091
Mof_H 	H 	0.9482	0.782	0.8404	0.033
Mof_H 	H 	0.882	0.8519	0.6153	0.004
Mof_H 	H 	0.9826	0.8835	0.6793	0.083
Mof_H 	H 	0.8465	0.0671	0.7164	0.083
Mof_H 	H 	0.7518	0.0388	0.6453	0.015
Mof_H 	H 	0.8354	0.1097	0.8786	0.031
Mof_H 	H 	0.8657	0.0216	0.8138	0.094
Mof_H 	H 	0.0834	0.1273	0.7759	0.086
Mof_H 	H 	0.0518	0.218	0.8404	0.032
Mof_H 	H 	0.118	0.1481	0.6153	0.008
Mof_H 	H 	0.0174	0.1165	0.6793	0.105
Mof_H 	H 	0.1535	0.9329	0.7164	0.101
Mof_H 	H 	0.2482	0.9612	0.6453	0.016
Mof_H 	H 	0.3354	0.3903	0.6214	0.011
Mof_H 	H 	0.3657	0.4784	0.6862	0.101
Mof_H 	H 	0.5834	0.3727	0.7241	0.101
Mof_H 	H 	0.5518	0.282	0.6596	0.017
Mof_H 	H 	0.618	0.3519	0.8847	0.01
Mof_H 	H 	0.5174	0.3835	0.8207	0.11
Mof_H 	H 	0.6535	0.5671	0.7836	0.102
Mof_H 	H 	0.7482	0.5388	0.8547	0.013
Mof_H 	H 	0.6646	0.6097	0.6214	0.008
Mof_H 	H 	0.6343	0.5216	0.6862	0.1
Mof_H 	H 	0.4166	0.6273	0.7241	0.102
Mof_H 	H 	0.4482	0.718	0.6596	0.016
Mof_H 	H 	0.382	0.6481	0.8847	0.009
Mof_H 	H 	0.4826	0.6165	0.8207	0.108
Mof_H 	H 	0.3465	0.4329	0.7836	0.103
Mof_H 	H 	0.2518	0.4612	0.8547	0.017
Mof_H 	H 	0.8354	0.1097	0.1214	0.007
Mof_H 	H 	0.8657	0.0216	0.1862	0.091
Mof_H 	H 	0.0834	0.1273	0.2241	0.086
Mof_H 	H 	0.0518	0.218	0.1596	0.017
Mof_H 	H 	0.118	0.1481	0.3847	0.006
Mof_H 	H 	0.0174	0.1165	0.3207	0.106
Mof_H 	H 	0.1535	0.9329	0.2836	0.1
Mof_H 	H 	0.2482	0.9612	0.3547	0.013
Mof_H 	H 	0.1646	0.8903	0.1214	0.007
Mof_H 	H 	0.1343	0.9784	0.1862	0.083
Mof_H 	H 	0.9166	0.8727	0.2241	0.092
Mof_H 	H 	0.9482	0.782	0.1596	0.018
Mof_H 	H 	0.882	0.8519	0.3847	0.002
Mof_H 	H 	0.9826	0.8835	0.3207	0.084
Mof_H 	H 	0.8465	0.0671	0.2836	0.082
Mof_H 	H 	0.7518	0.0388	0.3547	0.013
Mof_H 	H 	0.6646	0.6097	0.3786	0.007
Mof_H 	H 	0.6343	0.5216	0.3138	0.101
Mof_H 	H 	0.4166	0.6273	0.2759	0.102
Mof_H 	H 	0.4482	0.718	0.3404	0.013
Mof_H 	H 	0.382	0.6481	0.1153	-0.016
Mof_H 	H 	0.4826	0.6165	0.1793	0.105
Mof_H 	H 	0.3465	0.4329	0.2164	0.104
Mof_H 	H 	0.2518	0.4612	0.1453	0.002
Mof_H 	H 	0.3354	0.3903	0.3786	0.01
Mof_H 	H 	0.3657	0.4784	0.3138	0.102
Mof_H 	H 	0.5834	0.3727	0.2759	0.101
Mof_H 	H 	0.5518	0.282	0.3404	0.015
Mof_H 	H 	0.618	0.3519	0.1153	-0.015
Mof_H 	H 	0.5174	0.3835	0.1793	0.107
Mof_H 	H 	0.6535	0.5671	0.2164	0.102
Mof_H 	H 	0.7482	0.5388	0.1453	-0.003
Mof_C 	C 	0.0783	0.7682	0.91063	0.346
Mof_C 	C 	0.0597	0.82707	0.86768	-0.092
Mof_C 	C 	0.1142	0.8861	0.858	0.066
Mof_C 	C 	0.0962	0.9387	0.81886	-0.148
Mof_C 	C 	0.0222	0.93501	0.78616	0.114
Mof_C 	C 	0.9674	0.8763	0.79607	-0.166
Mof_C 	C 	0.9858	0.8221	0.83546	0.041
Mof_C 	C 	0.7436	0.9182	0.58002	0.426
Mof_C 	C 	0.8063	0.9398	0.62497	-0.188
Mof_C 	C 	0.8751	0.896	0.63533	0.103
Mof_C 	C 	0.9349	0.91449	0.67426	-0.166
Mof_C 	C 	0.9265	0.97818	0.7065	0.066
Mof_C 	C 	0.8551	0.024	0.69548	-0.138
Mof_C 	C 	0.7968	0.0062	0.65373	0.107
Mof_C 	C 	0.9217	0.2318	0.91063	0.358
Mof_C 	C 	0.9403	0.17293	0.86768	-0.134
Mof_C 	C 	0.8858	0.1139	0.858	0.076
Mof_C 	C 	0.9038	0.0613	0.81886	-0.144
Mof_C 	C 	0.9778	0.06499	0.78616	0.077
Mof_C 	C 	0.0326	0.1237	0.79607	-0.127
Mof_C 	C 	0.0142	0.1779	0.83546	0.084
Mof_C 	C 	0.2564	0.0818	0.58002	0.419
Mof_C 	C 	0.1937	0.0602	0.62497	-0.149
Mof_C 	C 	0.1249	0.104	0.63533	0.112
Mof_C 	C 	0.0651	0.08551	0.67426	-0.186
Mof_C 	C 	0.0735	0.02182	0.7065	0.148
Mof_C 	C 	0.1449	0.976	0.69548	-0.192
Mof_C 	C 	0.2032	0.9938	0.65373	0.079
Mof_C 	C 	0.4217	0.2682	0.58937	0.366
Mof_C 	C 	0.4403	0.32707	0.63232	-0.146
Mof_C 	C 	0.3858	0.3861	0.642	0.104
Mof_C 	C 	0.4038	0.4387	0.68114	-0.19
Mof_C 	C 	0.4778	0.43501	0.71384	0.147
Mof_C 	C 	0.5326	0.3763	0.70393	-0.188
Mof_C 	C 	0.5142	0.3221	0.66454	0.094
Mof_C 	C 	0.7564	0.4182	0.91998	0.422
Mof_C 	C 	0.6937	0.4398	0.87503	-0.173
Mof_C 	C 	0.6249	0.396	0.86467	0.128
Mof_C 	C 	0.5651	0.41449	0.82574	-0.202
Mof_C 	C 	0.5735	0.47818	0.7935	0.15
Mof_C 	C 	0.6449	0.524	0.80452	-0.192
Mof_C 	C 	0.7032	0.5062	0.84627	0.111
Mof_C 	C 	0.5783	0.7318	0.58937	0.367
Mof_C 	C 	0.5597	0.67293	0.63232	-0.149
Mof_C 	C 	0.6142	0.6139	0.642	0.105
Mof_C 	C 	0.5962	0.5613	0.68114	-0.192
Mof_C 	C 	0.5222	0.56499	0.71384	0.147
Mof_C 	C 	0.4674	0.6237	0.70393	-0.19
Mof_C 	C 	0.4858	0.6779	0.66454	0.095
Mof_C 	C 	0.2436	0.5818	0.91998	0.421
Mof_C 	C 	0.3063	0.5602	0.87503	-0.17
Mof_C 	C 	0.3751	0.604	0.86467	0.127
Mof_C 	C 	0.4349	0.58551	0.82574	-0.201
Mof_C 	C 	0.4265	0.52182	0.7935	0.15
Mof_C 	C 	0.3551	0.476	0.80452	-0.189
Mof_C 	C 	0.2968	0.4938	0.84627	0.111
Mof_C 	C 	0.9217	0.2318	0.08937	0.368
Mof_C 	C 	0.9403	0.17293	0.13232	-0.164
Mof_C 	C 	0.8858	0.1139	0.142	0.089
Mof_C 	C 	0.9038	0.0613	0.18114	-0.164
Mof_C 	C 	0.9778	0.06499	0.21384	0.086
Mof_C 	C 	0.0326	0.1237	0.20393	-0.144
Mof_C 	C 	0.0142	0.1779	0.16454	0.096
Mof_C 	C 	0.2564	0.0818	0.41998	0.419
Mof_C 	C 	0.1937	0.0602	0.37503	-0.152
Mof_C 	C 	0.1249	0.104	0.36467	0.114
Mof_C 	C 	0.0651	0.08551	0.32574	-0.19
Mof_C 	C 	0.0735	0.02182	0.2935	0.15
Mof_C 	C 	0.1449	0.976	0.30452	-0.196
Mof_C 	C 	0.2032	0.9938	0.34627	0.08
Mof_C 	C 	0.0783	0.7682	0.08937	0.356
Mof_C 	C 	0.0597	0.82707	0.13232	-0.122
Mof_C 	C 	0.1142	0.8861	0.142	0.079
Mof_C 	C 	0.0962	0.9387	0.18114	-0.168
Mof_C 	C 	0.0222	0.93501	0.21384	0.123
Mof_C 	C 	0.9674	0.8763	0.20393	-0.184
Mof_C 	C 	0.9858	0.8221	0.16454	0.053
Mof_C 	C 	0.7436	0.9182	0.41998	0.426
Mof_C 	C 	0.8063	0.9398	0.37503	-0.191
Mof_C 	C 	0.8751	0.896	0.36467	0.105
Mof_C 	C 	0.9349	0.91449	0.32574	-0.169
Mof_C 	C 	0.9265	0.97818	0.2935	0.068
Mof_C 	C 	0.8551	0.024	0.30452	-0.142
Mof_C 	C 	0.7968	0.0062	0.34627	0.108
Mof_C 	C 	0.5783	0.7318	0.41063	0.367
Mof_C 	C 	0.5597	0.67293	0.36768	-0.152
Mof_C 	C 	0.6142	0.6139	0.358	0.107
Mof_C 	C 	0.5962	0.5613	0.31886	-0.195
Mof_C 	C 	0.5222	0.56499	0.28616	0.15
Mof_C 	C 	0.4674	0.6237	0.29607	-0.195
Mof_C 	C 	0.4858	0.6779	0.33546	0.097
Mof_C 	C 	0.2436	0.5818	0.08002	0.429
Mof_C 	C 	0.3063	0.5602	0.12497	-0.199
Mof_C 	C 	0.3751	0.604	0.13533	0.139
Mof_C 	C 	0.4349	0.58551	0.17426	-0.221
Mof_C 	C 	0.4265	0.52182	0.2065	0.157
Mof_C 	C 	0.3551	0.476	0.19548	-0.206
Mof_C 	C 	0.2968	0.4938	0.15373	0.121
Mof_C 	C 	0.4217	0.2682	0.41063	0.366
Mof_C 	C 	0.4403	0.32707	0.36768	-0.149
Mof_C 	C 	0.3858	0.3861	0.358	0.105
Mof_C 	C 	0.4038	0.4387	0.31886	-0.193
Mof_C 	C 	0.4778	0.43501	0.28616	0.149
Mof_C 	C 	0.5326	0.3763	0.29607	-0.193
Mof_C 	C 	0.5142	0.3221	0.33546	0.095
Mof_C 	C 	0.7564	0.4182	0.08002	0.429
Mof_C 	C 	0.6937	0.4398	0.12497	-0.202
Mof_C 	C 	0.6249	0.396	0.13533	0.141
Mof_C 	C 	0.5651	0.41449	0.17426	-0.222
Mof_C 	C 	0.5735	0.47818	0.2065	0.158
Mof_C 	C 	0.6449	0.524	0.19548	-0.208
Mof_C 	C 	0.7032	0.5062	0.15373	0.122
Mof_C 	C 	4.37002e-33	0	0.74632	-0.088
Mof_C 	C 	0.5	0.5	0.75368	-0.173
Mof_C 	C 	5.25532e-33	0	0.25368	-0.094
Mof_C 	C 	0.5	0.5	0.24632	-0.181
Mof_O 	O 	0.14429	0.77842	0.93958	-0.357
Mof_O 	O 	0.0277	0.71431	0.91503	-0.222
Mof_O 	O 	0.75175	0.85391	0.561	-0.457
Mof_O 	O 	0.6885	0.96638	0.56595	-0.456
Mof_O 	O 	0.85571	0.22158	0.93958	-0.359
Mof_O 	O 	0.9723	0.28569	0.91503	-0.237
Mof_O 	O 	0.24825	0.14609	0.561	-0.45
Mof_O 	O 	0.3115	0.03362	0.56595	-0.439
Mof_O 	O 	0.35571	0.27842	0.56042	-0.399
Mof_O 	O 	0.4723	0.21431	0.58497	-0.258
Mof_O 	O 	0.74825	0.35391	0.939	-0.416
Mof_O 	O 	0.8115	0.46638	0.93405	-0.414
Mof_O 	O 	0.64429	0.72158	0.56042	-0.401
Mof_O 	O 	0.5277	0.78569	0.58497	-0.262
Mof_O 	O 	0.25175	0.64609	0.939	-0.416
Mof_O 	O 	0.1885	0.53362	0.93405	-0.408
Mof_O 	O 	0.85571	0.22158	0.06042	-0.42
Mof_O 	O 	0.9723	0.28569	0.08497	-0.279
Mof_O 	O 	0.24825	0.14609	0.439	-0.451
Mof_O 	O 	0.3115	0.03362	0.43405	-0.44
Mof_O 	O 	0.14429	0.77842	0.06042	-0.418
Mof_O 	O 	0.0277	0.71431	0.08497	-0.263
Mof_O 	O 	0.75175	0.85391	0.439	-0.457
Mof_O 	O 	0.6885	0.96638	0.43405	-0.457
Mof_O 	O 	0.64429	0.72158	0.43958	-0.402
Mof_O 	O 	0.5277	0.78569	0.41503	-0.264
Mof_O 	O 	0.25175	0.64609	0.061	-0.472
Mof_O 	O 	0.1885	0.53362	0.06595	-0.461
Mof_O 	O 	0.35571	0.27842	0.43958	-0.4
Mof_O 	O 	0.4723	0.21431	0.41503	-0.26
Mof_O 	O 	0.74825	0.35391	0.061	-0.472
Mof_O 	O 	0.8115	0.46638	0.06595	-0.467
Mof_O 	O 	0.0772	0.63869	-0	-0.412
Mof_O 	O 	0.9228	0.36131	-0	-0.419
Mof_O 	O 	0.4228	0.13869	0.5	-0.372
Mof_O 	O 	0.5772	0.86131	0.5	-0.376
Mof_O 	O 	0.5	7.53983e-33	0.55802	-0.361
Mof_O 	O 	5.5157e-33	0.5	0.94198	-0.314
Mof_O 	O 	0.5	-7.53983e-33	0.44198	-0.363
Mof_O 	O 	1.28221e-33	0.5	0.05802	-0.376
_end
