data_functionalizedCrystal
_audit_creation_method	'EQeq! by Chris Wilmer'
_symmetry_space_group_name_H-M	'P1'
_symmetry_Int_Tables_number	1
_symmetry_cell_setting	triclinic
loop_
_symmetry_equiv_pos_as_xyz
  x,y,z
_cell_length_a	14.924
_cell_length_b	14.924
_cell_length_c	11.929
_cell_angle_alpha	90
_cell_angle_beta	90
_cell_angle_gamma	90
loop_
_atom_site_label
_atom_site_type_symbol
_atom_site_fract_x
_atom_site_fract_y
_atom_site_fract_z
_atom_site_charge
Mof_O 	O 	0.09944	0.28612	0.99783	-0.335
Mof_O 	O 	0.12249	0.37951	0.14331	-0.358
Mof_C 	C 	0.0911	0.3596	0.049	0.281
Mof_C 	C 	0.0433	0.43056	0.9905	0.062
Mof_C 	C 	0.0391	0.4311	0.8703	-0.105
Mof_H 	H 	0.0641	0.3824	0.8298	0.077
Mof_O 	O 	0.59944	0.78612	0.49783	-0.407
Mof_O 	O 	0.62249	0.87951	0.64331	-0.381
Mof_C 	C 	0.5911	0.8596	0.549	0.414
Mof_C 	C 	0.5433	0.93056	0.4905	-0.095
Mof_C 	C 	0.5391	0.9311	0.3703	-0.002
Mof_H 	H 	0.5641	0.8824	0.3298	0.044
Mof_O 	O 	0.40056	0.21388	0.49783	-0.409
Mof_O 	O 	0.37751	0.12049	0.64331	-0.387
Mof_C 	C 	0.4089	0.1404	0.549	0.415
Mof_C 	C 	0.4567	0.06944	0.4905	-0.109
Mof_C 	C 	0.4609	0.0689	0.3703	-0.019
Mof_H 	H 	0.4359	0.1176	0.3298	0.047
Mof_O 	O 	0.90056	0.71388	0.99783	-0.332
Mof_O 	O 	0.87751	0.62049	0.14331	-0.356
Mof_C 	C 	0.9089	0.6404	0.049	0.278
Mof_C 	C 	0.9567	0.56944	0.9905	0.069
Mof_C 	C 	0.9609	0.5689	0.8703	-0.098
Mof_H 	H 	0.9359	0.6176	0.8298	0.077
Mof_O 	O 	0.71388	0.59944	0.24783	-0.415
Mof_O 	O 	0.62049	0.62249	0.39331	-0.392
Mof_C 	C 	0.6404	0.5911	0.299	0.431
Mof_C 	C 	0.56944	0.5433	0.2405	-0.149
Mof_C 	C 	0.5689	0.5391	0.1203	0.044
Mof_H 	H 	0.6176	0.5641	0.0798	0.015
Mof_O 	O 	0.21388	0.09944	0.74783	-0.406
Mof_O 	O 	0.12049	0.12249	0.89331	-0.368
Mof_C 	C 	0.1404	0.0911	0.799	0.413
Mof_C 	C 	0.06944	0.0433	0.7405	-0.113
Mof_C 	C 	0.0689	0.0391	0.6203	0.002
Mof_H 	H 	0.1176	0.0641	0.5798	0.039
Mof_O 	O 	0.78612	0.90056	0.74783	-0.402
Mof_O 	O 	0.87951	0.87751	0.89331	-0.359
Mof_C 	C 	0.8596	0.9089	0.799	0.412
Mof_C 	C 	0.93056	0.9567	0.7405	-0.094
Mof_C 	C 	0.9311	0.9609	0.6203	0.026
Mof_H 	H 	0.8824	0.9359	0.5798	0.036
Mof_O 	O 	0.28612	0.40056	0.24783	-0.415
Mof_O 	O 	0.37951	0.37751	0.39331	-0.392
Mof_C 	C 	0.3596	0.4089	0.299	0.431
Mof_C 	C 	0.43056	0.4567	0.2405	-0.149
Mof_C 	C 	0.4311	0.4609	0.1203	0.044
Mof_H 	H 	0.3824	0.4359	0.0798	0.015
Mof_O 	O 	0.40056	0.28612	0.75217	-0.405
Mof_O 	O 	0.37751	0.37951	0.60669	-0.387
Mof_C 	C 	0.4089	0.3596	0.701	0.415
Mof_C 	C 	0.4567	0.43056	0.7595	-0.103
Mof_C 	C 	0.4609	0.4311	0.8797	-0.03
Mof_H 	H 	0.4359	0.3824	0.9202	0.063
Mof_O 	O 	0.90056	0.78612	0.25217	-0.407
Mof_O 	O 	0.87751	0.87951	0.10669	-0.386
Mof_C 	C 	0.9089	0.8596	0.201	0.415
Mof_C 	C 	0.9567	0.93056	0.2595	-0.107
Mof_C 	C 	0.9609	0.9311	0.3797	0.033
Mof_H 	H 	0.9359	0.8824	0.4202	0.034
Mof_O 	O 	0.09944	0.21388	0.25217	-0.411
Mof_O 	O 	0.12249	0.12049	0.10669	-0.393
Mof_C 	C 	0.0911	0.1404	0.201	0.417
Mof_C 	C 	0.0433	0.06944	0.2595	-0.125
Mof_C 	C 	0.0391	0.0689	0.3797	0.009
Mof_H 	H 	0.0641	0.1176	0.4202	0.037
Mof_O 	O 	0.59944	0.71388	0.75217	-0.404
Mof_O 	O 	0.62249	0.62049	0.60669	-0.387
Mof_C 	C 	0.5911	0.6404	0.701	0.415
Mof_C 	C 	0.5433	0.56944	0.7595	-0.103
Mof_C 	C 	0.5391	0.5689	0.8797	-0.03
Mof_H 	H 	0.5641	0.6176	0.9202	0.063
Mof_O 	O 	0.78612	0.59944	0.50217	-0.411
Mof_O 	O 	0.87951	0.62249	0.35669	-0.391
Mof_C 	C 	0.8596	0.5911	0.451	0.427
Mof_C 	C 	0.93056	0.5433	0.5095	-0.134
Mof_C 	C 	0.9311	0.5391	0.6297	0.041
Mof_H 	H 	0.8824	0.5641	0.6702	0.028
Mof_O 	O 	0.28612	0.09944	0.00217	-0.463
Mof_O 	O 	0.37951	0.12249	0.85669	-0.417
Mof_C 	C 	0.3596	0.0911	0.951	0.552
Mof_C 	C 	0.43056	0.0433	0.0095	-0.302
Mof_C 	C 	0.4311	0.0391	0.1297	0.113
Mof_H 	H 	0.3824	0.0641	0.1702	0
Mof_O 	O 	0.71388	0.90056	0.00217	-0.461
Mof_O 	O 	0.62049	0.87751	0.85669	-0.413
Mof_C 	C 	0.6404	0.9089	0.951	0.555
Mof_C 	C 	0.56944	0.9567	0.0095	-0.292
Mof_C 	C 	0.5689	0.9609	0.1297	0.131
Mof_H 	H 	0.6176	0.9359	0.1702	-0.001
Mof_O 	O 	0.21388	0.40056	0.50217	-0.411
Mof_O 	O 	0.12049	0.37751	0.35669	-0.394
Mof_C 	C 	0.1404	0.4089	0.451	0.427
Mof_C 	C 	0.06944	0.4567	0.5095	-0.139
Mof_C 	C 	0.0689	0.4609	0.6297	0.034
Mof_H 	H 	0.1176	0.4359	0.6702	0.03
Mof_Fe	Fe	0.19347	0.19347	-0	1.12
Mof_Fe	Fe	0.69347	0.69347	0.5	1.181
Mof_Fe	Fe	0.30653	0.30653	0.5	1.18
Mof_Fe	Fe	0.80653	0.69347	0.25	1.172
Mof_Fe	Fe	0.69347	0.80653	0.75	1.187
Mof_Fe	Fe	0.30653	0.19347	0.75	1.186
Mof_Fe	Fe	0.19347	0.30653	0.25	1.171
Mof_Fe	Fe	0.80653	0.80653	-0	1.119
Mof_O 	O 	0.2537	0.25	0.125	-0.703
Mof_H 	H 	0.3088	0.25	0.125	0.329
Mof_O 	O 	0.7537	0.75	0.625	-0.711
Mof_H 	H 	0.8088	0.75	0.625	0.336
Mof_O 	O 	0.2463	0.25	0.625	-0.711
Mof_H 	H 	0.1912	0.25	0.625	0.335
Mof_O 	O 	0.7463	0.75	0.125	-0.703
Mof_H 	H 	0.6912	0.75	0.125	0.329
Mof_O 	O 	0.75	0.7537	0.375	-0.709
Mof_H 	H 	0.75	0.8088	0.375	0.336
Mof_O 	O 	0.25	0.2537	0.875	-0.691
Mof_H 	H 	0.25	0.3088	0.875	0.335
Mof_O 	O 	0.75	0.7463	0.875	-0.69
Mof_H 	H 	0.75	0.6912	0.875	0.335
Mof_O 	O 	0.25	0.2463	0.375	-0.708
Mof_H 	H 	0.25	0.1912	0.375	0.334
Mof_C 	C 	-2.6069e-32	0.5	0.8123	0.079
Mof_C 	C 	-1.55754e-34	0.5	0.0471	-0.158
Mof_H 	H 	-5.5582e-33	0.5	0.1268	0.114
Mof_C 	C 	0.5	-2.37529e-33	0.3123	0.018
Mof_C 	C 	0.5	0	0.5471	0.037
Mof_H 	H 	0.5	0	0.6268	0.056
Mof_C 	C 	0.5	0.5	0.0623	-0.084
Mof_C 	C 	0.5	0.5	0.2971	0.092
Mof_H 	H 	0.5	0.5	0.3768	0.04
Mof_C 	C 	1.68519e-33	-4.75057e-33	0.5623	-0.026
Mof_C 	C 	-7.11227e-33	-4.75057e-33	0.7971	0.034
Mof_H 	H 	-6.87341e-33	0	0.8768	0.06
Mof_C 	C 	0.5	0.5	0.9377	0.067
Mof_C 	C 	0.5	0.5	0.7029	0.056
Mof_H 	H 	0.5	0.5	0.6232	0.052
Mof_C 	C 	-3.4388e-33	0	0.4377	-0.032
Mof_C 	C 	-1.7672e-33	-2.37529e-33	0.2029	0.043
Mof_H 	H 	3.69225e-34	0	0.1232	0.041
Mof_C 	C 	-1.69413e-32	0.5	0.6877	-0.058
Mof_C 	C 	1.35732e-33	0.5	0.4529	0.077
Mof_H 	H 	-1.0758e-32	0.5	0.3732	0.039
Mof_C 	C 	0.5	-2.37529e-33	0.1877	-0.113
Mof_C 	C 	0.5	0	0.9529	0.267
Mof_H 	H 	0.5	-4.75057e-33	0.8732	-0.017
_end
