data_functionalizedCrystal
_audit_creation_method	'EQeq! by Chris Wilmer'
_symmetry_space_group_name_H-M	'P1'
_symmetry_Int_Tables_number	1
_symmetry_cell_setting	triclinic
loop_
_symmetry_equiv_pos_as_xyz
  x,y,z
_cell_length_a	11.9893
_cell_length_b	16.1192
_cell_length_c	16.1192
_cell_angle_alpha	120
_cell_angle_beta	90
_cell_angle_gamma	90
loop_
_atom_site_label
_atom_site_type_symbol
_atom_site_fract_x
_atom_site_fract_y
_atom_site_fract_z
_atom_site_charge
Mof_Cd	Cd	0.83333	0	0.5	0.483
Mof_Cd	Cd	0.16667	0.5	-0	0.483
Mof_Cd	Cd	0.5	0.5	0.5	0.503
Mof_H 	H 	0.5696	0.2778	0.6228	0.064
Mof_H 	H 	0.5734	0.1375	0.7702	0.04
Mof_H 	H 	0.90293	0.345	0.7222	0.067
Mof_H 	H 	0.90673	0.6327	0.8625	0.05
Mof_H 	H 	0.23627	0.3772	0.655	0.067
Mof_H 	H 	0.24007	0.2298	0.3673	0.043
Mof_H 	H 	0.5696	0.7222	0.3772	0.068
Mof_H 	H 	0.5734	0.8625	0.2298	0.05
Mof_H 	H 	0.90293	0.655	0.2778	0.066
Mof_H 	H 	0.90673	0.3673	0.1375	0.04
Mof_H 	H 	0.23627	0.6228	0.345	0.065
Mof_H 	H 	0.24007	0.7702	0.6327	0.046
Mof_H 	H 	0.76373	0.655	0.3772	0.066
Mof_H 	H 	0.75993	0.3673	0.2298	0.043
Mof_H 	H 	0.4304	0.6228	0.2778	0.064
Mof_H 	H 	0.4266	0.7702	0.1375	0.04
Mof_H 	H 	0.09707	0.7222	0.345	0.066
Mof_H 	H 	0.09327	0.8625	0.6327	0.05
Mof_H 	H 	0.76373	0.345	0.6228	0.065
Mof_H 	H 	0.75993	0.6327	0.7702	0.046
Mof_H 	H 	0.4304	0.3772	0.7222	0.068
Mof_H 	H 	0.4266	0.2298	0.8625	0.05
Mof_H 	H 	0.09707	0.2778	0.655	0.065
Mof_H 	H 	0.09327	0.1375	0.3673	0.039
Mof_C 	C 	0.6774	0.1324	0.6214	0.315
Mof_C 	C 	0.5866	0.1977	0.6866	-0.057
Mof_C 	C 	0.5423	0.2693	0.6721	-0.018
Mof_C 	C 	0.5435	0.1845	0.7594	-0.016
Mof_C 	C 	0.01073	0.489	0.8676	0.31
Mof_C 	C 	0.91993	0.4889	0.8023	-0.047
Mof_C 	C 	0.87563	0.4028	0.7307	-0.025
Mof_C 	C 	0.87683	0.5749	0.8155	-0.024
Mof_C 	C 	0.34407	0.3786	0.511	0.311
Mof_C 	C 	0.25327	0.3134	0.5111	-0.051
Mof_C 	C 	0.20897	0.3279	0.5972	-0.025
Mof_C 	C 	0.21017	0.2406	0.4251	-0.025
Mof_C 	C 	0.6774	0.8676	0.3786	0.309
Mof_C 	C 	0.5866	0.8023	0.3134	-0.045
Mof_C 	C 	0.5423	0.7307	0.3279	-0.028
Mof_C 	C 	0.5435	0.8155	0.2406	-0.028
Mof_C 	C 	0.01073	0.511	0.1324	0.312
Mof_C 	C 	0.91993	0.5111	0.1977	-0.054
Mof_C 	C 	0.87563	0.5972	0.2693	-0.022
Mof_C 	C 	0.87683	0.4251	0.1845	-0.021
Mof_C 	C 	0.34407	0.6214	0.489	0.313
Mof_C 	C 	0.25327	0.6866	0.4889	-0.052
Mof_C 	C 	0.20897	0.6721	0.4028	-0.021
Mof_C 	C 	0.21017	0.7594	0.5749	-0.019
Mof_C 	C 	0.65593	0.511	0.3786	0.312
Mof_C 	C 	0.74673	0.5111	0.3134	-0.051
Mof_C 	C 	0.79103	0.5972	0.3279	-0.024
Mof_C 	C 	0.78983	0.4251	0.2406	-0.025
Mof_C 	C 	0.3226	0.6214	0.1324	0.315
Mof_C 	C 	0.4134	0.6866	0.1977	-0.057
Mof_C 	C 	0.4577	0.6721	0.2693	-0.018
Mof_C 	C 	0.4565	0.7594	0.1845	-0.016
Mof_C 	C 	0.98927	0.8676	0.489	0.311
Mof_C 	C 	0.08007	0.8023	0.4889	-0.049
Mof_C 	C 	0.12437	0.7307	0.4028	-0.024
Mof_C 	C 	0.12317	0.8155	0.5749	-0.023
Mof_C 	C 	0.65593	0.489	0.6214	0.313
Mof_C 	C 	0.74673	0.4889	0.6866	-0.053
Mof_C 	C 	0.79103	0.4028	0.6721	-0.02
Mof_C 	C 	0.78983	0.5749	0.7594	-0.018
Mof_C 	C 	0.3226	0.3786	0.8676	0.309
Mof_C 	C 	0.4134	0.3134	0.8023	-0.046
Mof_C 	C 	0.4577	0.3279	0.7307	-0.028
Mof_C 	C 	0.4565	0.2406	0.8155	-0.028
Mof_C 	C 	0.98927	0.1324	0.511	0.314
Mof_C 	C 	0.08007	0.1977	0.5111	-0.056
Mof_C 	C 	0.12437	0.2693	0.5972	-0.021
Mof_C 	C 	0.12317	0.1845	0.4251	-0.02
Mof_O 	O 	0.6973	0.1324	0.5464	-0.259
Mof_O 	O 	0.7237	0.0761	0.6412	-0.283
Mof_O 	O 	0.03063	0.414	0.8676	-0.248
Mof_O 	O 	0.05703	0.5651	0.9239	-0.263
Mof_O 	O 	0.36397	0.4536	0.586	-0.255
Mof_O 	O 	0.39037	0.3588	0.4349	-0.276
Mof_O 	O 	0.6973	0.8676	0.4536	-0.248
Mof_O 	O 	0.7237	0.9239	0.3588	-0.263
Mof_O 	O 	0.03063	0.586	0.1324	-0.258
Mof_O 	O 	0.05703	0.4349	0.0761	-0.283
Mof_O 	O 	0.36397	0.5464	0.414	-0.256
Mof_O 	O 	0.39037	0.6412	0.5651	-0.275
Mof_O 	O 	0.63603	0.586	0.4536	-0.255
Mof_O 	O 	0.60963	0.4349	0.3588	-0.276
Mof_O 	O 	0.3027	0.5464	0.1324	-0.259
Mof_O 	O 	0.2763	0.6412	0.0761	-0.283
Mof_O 	O 	0.96937	0.8676	0.414	-0.248
Mof_O 	O 	0.94297	0.9239	0.5651	-0.263
Mof_O 	O 	0.63603	0.414	0.5464	-0.256
Mof_O 	O 	0.60963	0.5651	0.6412	-0.275
Mof_O 	O 	0.3027	0.4536	0.8676	-0.248
Mof_O 	O 	0.2763	0.3588	0.9239	-0.263
Mof_O 	O 	0.96937	0.1324	0.586	-0.258
Mof_O 	O 	0.94297	0.0761	0.4349	-0.283
Mof_H 	H 	0.9515	0.9662	0.2663	0.198
Mof_H 	H 	0.9133	0.9461	0.1648	0.157
Mof_H 	H 	0.0378	0.973	0.1968	0.161
Mof_H 	H 	0.0485	0.7337	0.0338	0.18
Mof_H 	H 	0.0867	0.8352	0.0539	0.145
Mof_H 	H 	0.9622	0.8032	0.027	0.151
Mof_C 	C 	0.9734	0.9396	0.2005	-0.429
Mof_C 	C 	0.0266	0.7995	0.0604	-0.415
Mof_N 	N 	-1.05267e-32	0.83925	0.16075	0.01
Mof_H 	H 	0.28483	0.3001	0.0338	0.174
Mof_H 	H 	0.24663	0.2187	0.0539	0.136
Mof_H 	H 	0.37113	0.2238	0.027	0.14
Mof_H 	H 	0.38183	0.3001	0.2663	0.185
Mof_H 	H 	0.42003	0.2187	0.1648	0.144
Mof_H 	H 	0.29553	0.2238	0.1968	0.149
Mof_C 	C 	0.30673	0.2609	0.0604	-0.397
Mof_C 	C 	0.35993	0.2609	0.2005	-0.412
Mof_N 	N 	0.33333	0.3215	0.16075	0.004
Mof_H 	H 	0.61817	0.7337	0.6999	0.193
Mof_H 	H 	0.57997	0.8352	0.7813	0.158
Mof_H 	H 	0.70447	0.8032	0.7762	0.163
Mof_H 	H 	0.71517	0.9662	0.6999	0.205
Mof_H 	H 	0.75337	0.9461	0.7813	0.167
Mof_H 	H 	0.62887	0.973	0.7762	0.172
Mof_C 	C 	0.64007	0.7995	0.7391	-0.434
Mof_C 	C 	0.69327	0.9396	0.7391	-0.449
Mof_N 	N 	0.66667	0.83925	0.6785	0.017
Mof_H 	H 	0.9515	0.0338	0.7337	0.18
Mof_H 	H 	0.9133	0.0539	0.8352	0.144
Mof_H 	H 	0.0378	0.027	0.8032	0.15
Mof_H 	H 	0.0485	0.2663	0.9662	0.2
Mof_H 	H 	0.0867	0.1648	0.9461	0.159
Mof_H 	H 	0.9622	0.1968	0.973	0.164
Mof_C 	C 	0.9734	0.0604	0.7995	-0.413
Mof_C 	C 	0.0266	0.2005	0.9396	-0.436
Mof_N 	N 	-0	0.16075	0.83925	0.011
Mof_H 	H 	0.28483	0.6999	0.9662	0.205
Mof_H 	H 	0.24663	0.7813	0.9461	0.166
Mof_H 	H 	0.37113	0.7762	0.973	0.172
Mof_H 	H 	0.38183	0.6999	0.7337	0.193
Mof_H 	H 	0.42003	0.7813	0.8352	0.158
Mof_H 	H 	0.29553	0.7762	0.8032	0.163
Mof_C 	C 	0.30673	0.7391	0.9396	-0.449
Mof_C 	C 	0.35993	0.7391	0.7995	-0.433
Mof_N 	N 	0.33333	0.6785	0.83925	0.017
Mof_H 	H 	0.61817	0.2663	0.3001	0.185
Mof_H 	H 	0.57997	0.1648	0.2187	0.144
Mof_H 	H 	0.70447	0.1968	0.2238	0.149
Mof_H 	H 	0.71517	0.0338	0.3001	0.174
Mof_H 	H 	0.75337	0.0539	0.2187	0.136
Mof_H 	H 	0.62887	0.027	0.2238	0.141
Mof_C 	C 	0.64007	0.2005	0.2609	-0.412
Mof_C 	C 	0.69327	0.0604	0.2609	-0.397
Mof_N 	N 	0.66667	0.16075	0.3215	0.004
_end
