data_functionalizedCrystal
_audit_creation_method	'EQeq! by Chris Wilmer'
_symmetry_space_group_name_H-M	'P1'
_symmetry_Int_Tables_number	1
_symmetry_cell_setting	triclinic
loop_
_symmetry_equiv_pos_as_xyz
  x,y,z
_cell_length_a	9.9513
_cell_length_b	9.9513
_cell_length_c	13.4849
_cell_angle_alpha	85.7894
_cell_angle_beta	69.7656
_cell_angle_gamma	115.584
loop_
_atom_site_label
_atom_site_type_symbol
_atom_site_fract_x
_atom_site_fract_y
_atom_site_fract_z
_atom_site_charge
Mof_Sm	Sm	0.26551	0.53861	0.00196	2.27
Mof_Sm	Sm	0.04057	0.26747	0.49804	2.25
Mof_Sm	Sm	0.73449	0.46139	0.99804	2.27
Mof_Sm	Sm	0.95943	0.73253	0.50196	2.25
Mof_H 	H 	0.9862	0.0532	0.146	0.033
Mof_H 	H 	0.8187	0.7656	0.1791	0.003
Mof_H 	H 	0.6992	0.1322	0.354	0.032
Mof_H 	H 	0.4447	0.9978	0.3209	-0
Mof_H 	H 	0.0138	0.9468	0.854	0.033
Mof_H 	H 	0.1813	0.2344	0.8209	0.003
Mof_H 	H 	0.3008	0.8678	0.646	0.032
Mof_H 	H 	0.5553	0.0022	0.6791	-0
Mof_C 	C 	0.8797	0.2282	0.0381	0.493
Mof_C 	C 	0.6859	0.8173	0.1112	-0.054
Mof_C 	C 	0.8971	0.002	0.1291	-0.015
Mof_C 	C 	0.5574	0.6784	0.1004	0.481
Mof_C 	C 	0.8032	0.8411	0.1477	-0.019
Mof_C 	C 	0.0622	0.4058	0.2656	0.278
Mof_C 	C 	0.8327	0.0671	0.0818	-0.051
Mof_C 	C 	0.7663	0.9178	0.4619	0.473
Mof_C 	C 	0.4285	0.7971	0.3888	-0.057
Mof_C 	C 	0.6311	0.0262	0.3709	-0.024
Mof_C 	C 	0.2788	0.6578	0.3996	0.481
Mof_C 	C 	0.4888	0.9509	0.3523	-0.008
Mof_C 	C 	0.1714	0.3278	0.2344	0.283
Mof_C 	C 	0.6489	0.9145	0.4182	-0.056
Mof_C 	C 	0.1203	0.7718	0.9619	0.493
Mof_C 	C 	0.3141	0.1827	0.8888	-0.054
Mof_C 	C 	0.1029	0.998	0.8709	-0.015
Mof_C 	C 	0.4426	0.3216	0.8996	0.481
Mof_C 	C 	0.1968	0.1589	0.8523	-0.019
Mof_C 	C 	0.9378	0.5942	0.7344	0.278
Mof_C 	C 	0.1673	0.9329	0.9182	-0.051
Mof_C 	C 	0.2337	0.0822	0.5381	0.473
Mof_C 	C 	0.5715	0.2029	0.6112	-0.057
Mof_C 	C 	0.3689	0.9738	0.6291	-0.024
Mof_C 	C 	0.7212	0.3422	0.6004	0.481
Mof_C 	C 	0.5112	0.0491	0.6477	-0.008
Mof_C 	C 	0.8286	0.6722	0.7656	0.283
Mof_C 	C 	0.3511	0.0855	0.5818	-0.056
Mof_O 	O 	0.0074	0.3314	0.037	-0.626
Mof_O 	O 	0.7866	0.2499	0.0027	-0.568
Mof_O 	O 	0.0721	0.4935	0.1896	-0.462
Mof_O 	O 	0.5777	0.5623	0.1024	-0.611
Mof_O 	O 	0.7004	0.9559	0.0719	-0.155
Mof_O 	O 	0.4405	0.6847	0.09	-0.522
Mof_O 	O 	0.9703	0.3723	0.3646	-0.462
Mof_O 	O 	0.8684	0.0444	0.463	-0.609
Mof_O 	O 	0.7526	0.7893	0.4973	-0.567
Mof_O 	O 	0.1831	0.2617	0.3104	-0.464
Mof_O 	O 	0.1647	0.6801	0.3976	-0.608
Mof_O 	O 	0.5278	0.7723	0.4281	-0.149
Mof_O 	O 	0.2747	0.5305	0.41	-0.52
Mof_O 	O 	0.2369	0.3349	0.1354	-0.47
Mof_O 	O 	0.9926	0.6686	0.963	-0.626
Mof_O 	O 	0.2134	0.7501	0.9973	-0.568
Mof_O 	O 	0.9279	0.5065	0.8104	-0.462
Mof_O 	O 	0.4223	0.4377	0.8976	-0.611
Mof_O 	O 	0.2996	0.0441	0.9281	-0.155
Mof_O 	O 	0.5595	0.3153	0.91	-0.522
Mof_O 	O 	0.0297	0.6277	0.6354	-0.462
Mof_O 	O 	0.1316	0.9556	0.537	-0.609
Mof_O 	O 	0.2474	0.2107	0.5027	-0.567
Mof_O 	O 	0.8169	0.7383	0.6896	-0.464
Mof_O 	O 	0.8353	0.3199	0.6024	-0.608
Mof_O 	O 	0.4722	0.2277	0.5719	-0.149
Mof_O 	O 	0.7253	0.4695	0.59	-0.52
Mof_O 	O 	0.7631	0.6651	0.8646	-0.47
_end
