data_functionalizedCrystal
_audit_creation_method	'EQeq! by Chris Wilmer'
_symmetry_space_group_name_H-M	'P1'
_symmetry_Int_Tables_number	1
_symmetry_cell_setting	triclinic
loop_
_symmetry_equiv_pos_as_xyz
  x,y,z
_cell_length_a	9.745
_cell_length_b	9.745
_cell_length_c	10.7742
_cell_angle_alpha	63.1125
_cell_angle_beta	63.1125
_cell_angle_gamma	89.9999
loop_
_atom_site_label
_atom_site_type_symbol
_atom_site_fract_x
_atom_site_fract_y
_atom_site_fract_z
_atom_site_charge
Mof_Cu	Cu	0.75	0.75	0.5	0.898
Mof_Cu	Cu	0.25	0.25	0.5	0.894
Mof_W 	W 	-0	0	-0	0.334
Mof_W 	W 	0.5	0.5	-0	0.444
Mof_C 	C 	0.8549	0.9153	0.628	0.068
Mof_C 	C 	0.5171	0.4567	0.628	0.013
Mof_C 	C 	0.9153	0.5171	0.628	0.064
Mof_C 	C 	0.4567	0.8549	0.628	0.007
Mof_C 	C 	0.9829	0.5847	0.372	0.059
Mof_C 	C 	0.6451	0.0433	0.372	-0.034
Mof_C 	C 	0.0433	0.9829	0.372	0.016
Mof_C 	C 	0.5847	0.6451	0.372	0.007
Mof_C 	C 	0.1451	0.0847	0.372	-0.037
Mof_C 	C 	0.4829	0.5433	0.372	0.009
Mof_C 	C 	0.0847	0.4829	0.372	-0.044
Mof_C 	C 	0.5433	0.1451	0.372	0.015
Mof_C 	C 	0.0171	0.4153	0.628	-0.038
Mof_C 	C 	0.3549	0.9567	0.628	0.052
Mof_C 	C 	0.9567	0.0171	0.628	0.027
Mof_C 	C 	0.4153	0.3549	0.628	0.012
Mof_N 	N 	0.8996	0.8996	0.5	-0.184
Mof_N 	N 	0.6004	0.6004	0.5	-0.193
Mof_N 	N 	0.8996	0.6004	0.5	-0.205
Mof_N 	N 	0.6004	0.8996	0.5	-0.17
Mof_N 	N 	0.1004	0.1004	0.5	-0.208
Mof_N 	N 	0.3996	0.3996	0.5	-0.194
Mof_N 	N 	0.1004	0.3996	0.5	-0.181
Mof_N 	N 	0.3996	0.1004	0.5	-0.216
Mof_O 	O 	0.8857	0.8857	0.2286	-0.328
Mof_O 	O 	0.6143	0.6143	0.7714	-0.328
Mof_O 	O 	0.1143	0.1143	0.7714	-0.329
Mof_O 	O 	0.3857	0.3857	0.2286	-0.381
Mof_H 	H 	0.52916	0.4164	0.73895	0.023
Mof_H 	H 	0.84464	0.52916	0.73895	0.021
Mof_H 	H 	0.4164	0.73188	0.73895	0.027
Mof_H 	H 	0.97084	0.65536	0.26105	0.001
Mof_H 	H 	0.76812	0.0836	0.26105	0.003
Mof_H 	H 	0.0836	0.97084	0.26105	-0.004
Mof_H 	H 	0.65536	0.76812	0.26105	0.009
Mof_H 	H 	0.26812	0.15536	0.26105	-0.002
Mof_H 	H 	0.47084	0.5836	0.26105	0
Mof_H 	H 	0.15536	0.47084	0.26105	0.001
Mof_H 	H 	0.5836	0.26812	0.26105	-0.004
Mof_H 	H 	0.02916	0.34464	0.73895	0.029
Mof_H 	H 	0.23188	0.9164	0.73895	0.026
Mof_H 	H 	0.34464	0.23188	0.73895	0.021
_end
