data_functionalizedCrystal
_audit_creation_method	'EQeq! by Chris Wilmer'
_symmetry_space_group_name_H-M	'P1'
_symmetry_Int_Tables_number	1
_symmetry_cell_setting	triclinic
loop_
_symmetry_equiv_pos_as_xyz
  x,y,z
_cell_length_a	6.1751
_cell_length_b	14.7508
_cell_length_c	17.144
_cell_angle_alpha	98.6407
_cell_angle_beta	90
_cell_angle_gamma	102.082
loop_
_atom_site_label
_atom_site_type_symbol
_atom_site_fract_x
_atom_site_fract_y
_atom_site_fract_z
_atom_site_charge
Mof_Zn	Zn	0.58053	3.76725e-17	0.75	1.188
Mof_Zn	Zn	0.41947	9.41812e-18	0.25	1.188
Mof_H 	H 	0.4144	0.6376	0.6514	0.037
Mof_H 	H 	0.0016	0.8206	0.6462	0.051
Mof_H 	H 	0.1491	0.704	0.5706	0.074
Mof_H 	H 	0.5628	0.5202	0.5782	0.071
Mof_H 	H 	0.1271	0.8986	0.7885	-0.009
Mof_H 	H 	0.574	0.0922	0.9177	-0.02
Mof_H 	H 	0.3371	0.099	0.0209	0.122
Mof_H 	H 	0.878	0.901	0.8866	0.115
Mof_H 	H 	0.7768	0.3624	0.8486	0.033
Mof_H 	H 	0.181	0.1794	0.8538	0.032
Mof_H 	H 	0.4451	0.296	0.9294	0.078
Mof_H 	H 	0.0426	0.4798	0.9218	0.074
Mof_H 	H 	0.2285	0.1014	0.7115	0.029
Mof_H 	H 	0.4818	0.9078	0.5823	0.011
Mof_H 	H 	0.2381	0.901	0.4791	0.013
Mof_H 	H 	0.977	0.099	0.6134	0.014
Mof_H 	H 	0.5856	0.3624	0.3486	0.033
Mof_H 	H 	0.9984	0.1794	0.3538	0.033
Mof_H 	H 	0.8509	0.296	0.4294	0.077
Mof_H 	H 	0.4372	0.4798	0.4218	0.074
Mof_H 	H 	0.8729	0.1014	0.2115	0.029
Mof_H 	H 	0.426	0.9078	0.0823	0.01
Mof_H 	H 	0.6629	0.901	0.9791	0.013
Mof_H 	H 	0.122	0.099	0.1134	0.014
Mof_H 	H 	0.2232	0.6376	0.1514	0.036
Mof_H 	H 	0.819	0.8206	0.1462	0.049
Mof_H 	H 	0.5549	0.704	0.0706	0.075
Mof_H 	H 	0.9574	0.5202	0.0782	0.071
Mof_H 	H 	0.7715	0.8986	0.2885	-0.01
Mof_H 	H 	0.5182	0.0922	0.4177	-0.02
Mof_H 	H 	0.7619	0.099	0.5209	0.124
Mof_H 	H 	0.023	0.901	0.3866	0.117
Mof_C 	C 	0.59714	0.81848	0.6999	0.317
Mof_C 	C 	0.69613	0.74106	0.6554	-0.089
Mof_C 	C 	0.56339	0.65078	0.6352	0.026
Mof_C 	C 	0.91201	0.75962	0.6318	0.03
Mof_C 	C 	0.00051	0.69002	0.5871	-0.1
Mof_C 	C 	0.65175	0.5815	0.5916	-0.105
Mof_C 	C 	0.87159	0.60038	0.5667	0.064
Mof_C 	C 	0.96053	0.52906	0.5197	-0.025
Mof_C 	C 	0.16959	0.93998	0.8365	0.149
Mof_C 	C 	0.43049	0.05258	0.9117	0.08
Mof_C 	C 	0.28982	0.05684	0.9736	-0.303
Mof_C 	C 	0.0211	0.9406	0.8947	-0.237
Mof_C 	C 	0.07871	0.99982	0.9671	0.295
Mof_C 	C 	0.77866	0.18152	0.8001	0.33
Mof_C 	C 	0.95507	0.25894	0.8446	-0.105
Mof_C 	C 	0.91261	0.34922	0.8648	0.036
Mof_C 	C 	0.15239	0.24038	0.8682	0.046
Mof_C 	C 	0.31049	0.30998	0.9129	-0.114
Mof_C 	C 	0.07025	0.4185	0.9084	-0.114
Mof_C 	C 	0.27121	0.39962	0.9333	0.073
Mof_C 	C 	0.43147	0.47094	0.9803	-0.029
Mof_C 	C 	0.22961	0.06002	0.6635	-0.015
Mof_C 	C 	0.37791	0.94742	0.5883	0.061
Mof_C 	C 	0.23298	0.94316	0.5264	0.066
Mof_C 	C 	0.0805	0.0594	0.6053	0.004
Mof_C 	C 	0.07889	0.00018	0.5329	-0.204
Mof_C 	C 	0.40286	0.18152	0.3001	0.33
Mof_C 	C 	0.30387	0.25894	0.3446	-0.105
Mof_C 	C 	0.43661	0.34922	0.3648	0.036
Mof_C 	C 	0.08799	0.24038	0.3682	0.044
Mof_C 	C 	0.99949	0.30998	0.4129	-0.112
Mof_C 	C 	0.34825	0.4185	0.4084	-0.114
Mof_C 	C 	0.12841	0.39962	0.4333	0.072
Mof_C 	C 	0.03947	0.47094	0.4803	-0.029
Mof_C 	C 	0.83041	0.06002	0.1635	-0.015
Mof_C 	C 	0.56951	0.94742	0.0883	0.062
Mof_C 	C 	0.71018	0.94316	0.0264	0.063
Mof_C 	C 	0.9789	0.0594	0.1053	0.004
Mof_C 	C 	0.92129	0.00018	0.0329	-0.201
Mof_C 	C 	0.22134	0.81848	0.1999	0.318
Mof_C 	C 	0.04493	0.74106	0.1554	-0.091
Mof_C 	C 	0.08739	0.65078	0.1352	0.026
Mof_C 	C 	0.84761	0.75962	0.1318	0.034
Mof_C 	C 	0.68951	0.69002	0.0871	-0.103
Mof_C 	C 	0.92975	0.5815	0.0916	-0.106
Mof_C 	C 	0.72879	0.60038	0.0667	0.066
Mof_C 	C 	0.56853	0.52906	0.0197	-0.025
Mof_C 	C 	0.77039	0.93998	0.3365	0.151
Mof_C 	C 	0.62209	0.05258	0.4117	0.081
Mof_C 	C 	0.76702	0.05684	0.4736	-0.306
Mof_C 	C 	0.9195	0.9406	0.3947	-0.241
Mof_C 	C 	0.92111	0.99982	0.4671	0.298
Mof_N 	N 	0.37448	0.99516	0.8433	-0.239
Mof_N 	N 	0.37932	0.00484	0.6567	-0.28
Mof_N 	N 	0.62552	0.00484	0.1567	-0.28
Mof_N 	N 	0.62068	0.99516	0.3433	-0.239
Mof_O 	O 	0.73098	0.89896	0.71438	-0.425
Mof_O 	O 	0.40106	0.80372	0.71659	-0.309
Mof_O 	O 	0.83202	0.10104	0.78562	-0.474
Mof_O 	O 	0.59734	0.19628	0.78341	-0.323
Mof_O 	O 	0.26902	0.10104	0.28562	-0.474
Mof_O 	O 	0.59894	0.19628	0.28341	-0.323
Mof_O 	O 	0.16798	0.89896	0.21438	-0.425
Mof_O 	O 	0.40266	0.80372	0.21659	-0.309
_end
