data_functionalizedCrystal
_audit_creation_method	'EQeq! by Chris Wilmer'
_symmetry_space_group_name_H-M	'P1'
_symmetry_Int_Tables_number	1
_symmetry_cell_setting	triclinic
loop_
_symmetry_equiv_pos_as_xyz
  x,y,z
_cell_length_a	11.6583
_cell_length_b	5.5671
_cell_length_c	22.911
_cell_angle_alpha	90
_cell_angle_beta	100.901
_cell_angle_gamma	90
loop_
_atom_site_label
_atom_site_type_symbol
_atom_site_fract_x
_atom_site_fract_y
_atom_site_fract_z
_atom_site_charge
Mof_O 	O 	0.49419	0.192	0.12907	-0.359
Mof_O 	O 	0.41358	0.778	0.1097	-0.25
Mof_C 	C 	0.3514	0.1087	0.02994	0.001
Mof_C 	C 	0.2789	0.1082	0.14135	-0.014
Mof_Ca	Ca	0.63699	0.24316	0.22135	1.56
Mof_S 	S 	0.39687	0.03423	0.10599	0.315
Mof_O 	O 	0.25974	0.0857	0.80889	-0.581
Mof_O 	O 	0.2635	0.477	0.82768	-0.514
Mof_O 	O 	0.9877	0.476	0.24702	-0.477
Mof_O 	O 	0.95873	0.0808	0.25598	-0.488
Mof_C 	C 	0.1879	0.3764	0.20007	0.04
Mof_H 	H 	0.1856	0.526	0.2198	0.029
Mof_C 	C 	0.1898	0.9413	0.13974	-0.082
Mof_H 	H 	0.1898	0.7961	0.118	0.065
Mof_C 	C 	0.3806	0.3322	0.01003	-0.092
Mof_H 	H 	0.4189	0.449	0.0371	0.083
Mof_C 	C 	0.0997	0.2082	0.20073	-0.156
Mof_C 	C 	0.2967	0.2087	0.90998	-0.158
Mof_C 	C 	0.2648	0.9885	0.93084	0.051
Mof_H 	H 	0.2253	0.8726	0.9039	0.011
Mof_C 	C 	0.2799	0.3266	0.17062	-0.078
Mof_H 	H 	0.3412	0.4389	0.1707	0.07
Mof_C 	C 	0.3524	0.3808	0.94939	0.056
Mof_H 	H 	0.3713	0.5327	0.9348	0.018
Mof_C 	C 	0.2913	0.9389	0.9918	-0.085
Mof_H 	H 	0.2684	0.7909	0.0068	0.066
Mof_C 	C 	0.2734	0.2621	0.84449	0.443
Mof_C 	C 	0.1007	0.9905	0.17055	0.052
Mof_H 	H 	0.0404	0.876	0.1711	0.009
Mof_C 	C 	0.007	0.2589	0.23774	0.464
Mof_O 	O 	0.00581	0.692	0.37093	-0.358
Mof_O 	O 	0.08642	0.278	0.3903	-0.251
Mof_C 	C 	0.1486	0.6087	0.47006	0.004
Mof_C 	C 	0.2211	0.6082	0.35865	-0.009
Mof_Ca	Ca	0.86301	0.74316	0.27865	1.559
Mof_S 	S 	0.10313	0.53423	0.39401	0.316
Mof_O 	O 	0.24026	0.5857	0.69111	-0.582
Mof_O 	O 	0.2365	0.977	0.67232	-0.514
Mof_O 	O 	0.5123	0.976	0.25298	-0.477
Mof_O 	O 	0.54127	0.5808	0.24402	-0.49
Mof_C 	C 	0.3121	0.8764	0.29993	0.047
Mof_H 	H 	0.3144	0.026	0.2802	0.025
Mof_C 	C 	0.3102	0.4413	0.36026	-0.087
Mof_H 	H 	0.3102	0.2961	0.382	0.066
Mof_C 	C 	0.1194	0.8322	0.48997	-0.095
Mof_H 	H 	0.0811	0.949	0.4629	0.085
Mof_C 	C 	0.4003	0.7082	0.29927	-0.156
Mof_C 	C 	0.2033	0.7087	0.59002	-0.161
Mof_C 	C 	0.2352	0.4885	0.56916	0.054
Mof_H 	H 	0.2747	0.3726	0.5961	0.009
Mof_C 	C 	0.2201	0.8266	0.32938	-0.083
Mof_H 	H 	0.1588	0.9389	0.3293	0.072
Mof_C 	C 	0.1476	0.8808	0.55061	0.062
Mof_H 	H 	0.1287	0.0327	0.5652	0.015
Mof_C 	C 	0.2087	0.4389	0.5082	-0.09
Mof_H 	H 	0.2316	0.2909	0.4932	0.067
Mof_C 	C 	0.2266	0.7621	0.65551	0.444
Mof_C 	C 	0.3993	0.4905	0.32945	0.05
Mof_H 	H 	0.4596	0.376	0.3289	0.009
Mof_C 	C 	0.493	0.7589	0.26226	0.469
Mof_O 	O 	0.50581	0.808	0.87093	-0.358
Mof_O 	O 	0.58642	0.222	0.8903	-0.249
Mof_C 	C 	0.6486	0.8913	0.97006	0.001
Mof_C 	C 	0.7211	0.8918	0.85865	-0.014
Mof_Ca	Ca	0.36301	0.75684	0.77865	1.56
Mof_S 	S 	0.60313	0.96577	0.89401	0.315
Mof_O 	O 	0.74026	0.9143	0.19111	-0.581
Mof_O 	O 	0.7365	0.523	0.17232	-0.514
Mof_O 	O 	0.0123	0.524	0.75298	-0.477
Mof_O 	O 	0.04127	0.9192	0.74402	-0.488
Mof_C 	C 	0.8121	0.6236	0.79993	0.04
Mof_H 	H 	0.8144	0.474	0.7802	0.029
Mof_C 	C 	0.8102	0.0587	0.86026	-0.082
Mof_H 	H 	0.8102	0.2039	0.882	0.065
Mof_C 	C 	0.6194	0.6678	0.98997	-0.092
Mof_H 	H 	0.5811	0.551	0.9629	0.083
Mof_C 	C 	0.9003	0.7918	0.79927	-0.156
Mof_C 	C 	0.7033	0.7913	0.09002	-0.158
Mof_C 	C 	0.7352	0.0115	0.06916	0.051
Mof_H 	H 	0.7747	0.1274	0.0961	0.011
Mof_C 	C 	0.7201	0.6734	0.82938	-0.078
Mof_H 	H 	0.6588	0.5611	0.8293	0.07
Mof_C 	C 	0.6476	0.6192	0.05061	0.056
Mof_H 	H 	0.6287	0.4673	0.0652	0.018
Mof_C 	C 	0.7087	0.0611	0.0082	-0.085
Mof_H 	H 	0.7316	0.2091	0.9932	0.066
Mof_C 	C 	0.7266	0.7379	0.15551	0.443
Mof_C 	C 	0.8993	0.0095	0.82945	0.052
Mof_H 	H 	0.9596	0.124	0.8289	0.009
Mof_C 	C 	0.993	0.7411	0.76226	0.464
Mof_O 	O 	0.99419	0.308	0.62907	-0.358
Mof_O 	O 	0.91358	0.722	0.6097	-0.251
Mof_C 	C 	0.8514	0.3913	0.52994	0.004
Mof_C 	C 	0.7789	0.3918	0.64135	-0.009
Mof_Ca	Ca	0.13699	0.25684	0.72135	1.559
Mof_S 	S 	0.89687	0.46577	0.60599	0.316
Mof_O 	O 	0.75974	0.4143	0.30889	-0.582
Mof_O 	O 	0.7635	0.023	0.32768	-0.514
Mof_O 	O 	0.4877	0.024	0.74702	-0.477
Mof_O 	O 	0.45873	0.4192	0.75598	-0.49
Mof_C 	C 	0.6879	0.1236	0.70007	0.047
Mof_H 	H 	0.6856	0.974	0.7198	0.025
Mof_C 	C 	0.6898	0.5587	0.63974	-0.087
Mof_H 	H 	0.6898	0.7039	0.618	0.066
Mof_C 	C 	0.8806	0.1678	0.51003	-0.095
Mof_H 	H 	0.9189	0.051	0.5371	0.085
Mof_C 	C 	0.5997	0.2918	0.70073	-0.156
Mof_C 	C 	0.7967	0.2913	0.40998	-0.161
Mof_C 	C 	0.7648	0.5115	0.43084	0.054
Mof_H 	H 	0.7253	0.6274	0.4039	0.009
Mof_C 	C 	0.7799	0.1734	0.67062	-0.083
Mof_H 	H 	0.8412	0.0611	0.6707	0.072
Mof_C 	C 	0.8524	0.1192	0.44939	0.062
Mof_H 	H 	0.8713	0.9673	0.4348	0.015
Mof_C 	C 	0.7913	0.5611	0.4918	-0.09
Mof_H 	H 	0.7684	0.7091	0.5068	0.067
Mof_C 	C 	0.7734	0.2379	0.34449	0.444
Mof_C 	C 	0.6007	0.5095	0.67055	0.05
Mof_H 	H 	0.5404	0.624	0.6711	0.009
Mof_C 	C 	0.507	0.2411	0.73774	0.469
_end
