data_functionalizedCrystal
_audit_creation_method	'EQeq! by Chris Wilmer'
_symmetry_space_group_name_H-M	'P1'
_symmetry_Int_Tables_number	1
_symmetry_cell_setting	triclinic
loop_
_symmetry_equiv_pos_as_xyz
  x,y,z
_cell_length_a	13.1642
_cell_length_b	13.1642
_cell_length_c	13.1642
_cell_angle_alpha	90
_cell_angle_beta	90
_cell_angle_gamma	90
loop_
_atom_site_label
_atom_site_type_symbol
_atom_site_fract_x
_atom_site_fract_y
_atom_site_fract_z
_atom_site_charge
Mof_N 	N 	0.4384	0.4575	0.1353	-0.268
Mof_N 	N 	0.4822	0.4644	0.2144	-0.052
Mof_N 	N 	0.5185	0.4683	0.2922	-0.363
Mof_N 	N 	0.0616	0.5425	0.6353	-0.216
Mof_N 	N 	0.0178	0.5356	0.7144	-0.164
Mof_N 	N 	0.9815	0.5317	0.7922	-0.019
Mof_N 	N 	0.5616	0.9575	0.3647	-0.13
Mof_N 	N 	0.5178	0.9644	0.2856	-0.016
Mof_N 	N 	0.4815	0.9683	0.2078	-0.188
Mof_N 	N 	0.9384	0.0425	0.8647	-0.025
Mof_N 	N 	0.9822	0.0356	0.7856	0.089
Mof_N 	N 	0.0185	0.0317	0.7078	-0.388
Mof_N 	N 	0.1353	0.4384	0.4575	-0.267
Mof_N 	N 	0.2144	0.4822	0.4644	-0.051
Mof_N 	N 	0.2922	0.5185	0.4683	-0.362
Mof_N 	N 	0.6353	0.0616	0.5425	-0.215
Mof_N 	N 	0.7144	0.0178	0.5356	-0.163
Mof_N 	N 	0.7922	0.9815	0.5317	-0.019
Mof_N 	N 	0.3647	0.5616	0.9575	-0.13
Mof_N 	N 	0.2856	0.5178	0.9644	-0.016
Mof_N 	N 	0.2078	0.4815	0.9683	-0.188
Mof_N 	N 	0.8647	0.9384	0.0425	-0.025
Mof_N 	N 	0.7856	0.9822	0.0356	0.089
Mof_N 	N 	0.7078	0.0185	0.0317	-0.388
Mof_N 	N 	0.4575	0.1353	0.4384	-0.267
Mof_N 	N 	0.4644	0.2144	0.4822	-0.051
Mof_N 	N 	0.4683	0.2922	0.5185	-0.362
Mof_N 	N 	0.5425	0.6353	0.0616	-0.215
Mof_N 	N 	0.5356	0.7144	0.0178	-0.163
Mof_N 	N 	0.5317	0.7922	0.9815	-0.019
Mof_N 	N 	0.9575	0.3647	0.5616	-0.13
Mof_N 	N 	0.9644	0.2856	0.5178	-0.016
Mof_N 	N 	0.9683	0.2078	0.4815	-0.188
Mof_N 	N 	0.0425	0.8647	0.9384	-0.025
Mof_N 	N 	0.0356	0.7856	0.9822	0.089
Mof_N 	N 	0.0317	0.7078	0.0185	-0.388
Mof_N 	N 	0.5616	0.5425	0.8647	-0.128
Mof_N 	N 	0.5178	0.5356	0.7856	-0.025
Mof_N 	N 	0.4815	0.5317	0.7078	-0.336
Mof_N 	N 	0.9384	0.4575	0.3647	-0.166
Mof_N 	N 	0.9822	0.4644	0.2856	0.093
Mof_N 	N 	0.0185	0.4683	0.2078	-0.398
Mof_N 	N 	0.4384	0.0425	0.6353	-0.245
Mof_N 	N 	0.4822	0.0356	0.7144	-0.06
Mof_N 	N 	0.5185	0.0317	0.7922	-0.221
Mof_N 	N 	0.0616	0.9575	0.1353	-0.096
Mof_N 	N 	0.0178	0.9644	0.2144	-0.145
Mof_N 	N 	0.9815	0.9683	0.2922	-0.005
Mof_N 	N 	0.8647	0.5616	0.5425	-0.128
Mof_N 	N 	0.7856	0.5178	0.5356	-0.025
Mof_N 	N 	0.7078	0.4815	0.5317	-0.336
Mof_N 	N 	0.3647	0.9384	0.4575	-0.166
Mof_N 	N 	0.2856	0.9822	0.4644	0.093
Mof_N 	N 	0.2078	0.0185	0.4683	-0.398
Mof_N 	N 	0.6353	0.4384	0.0425	-0.245
Mof_N 	N 	0.7144	0.4822	0.0356	-0.06
Mof_N 	N 	0.7922	0.5185	0.0317	-0.221
Mof_N 	N 	0.1353	0.0616	0.9575	-0.096
Mof_N 	N 	0.2144	0.0178	0.9644	-0.145
Mof_N 	N 	0.2922	0.9815	0.9683	-0.005
Mof_N 	N 	0.5425	0.8647	0.5616	-0.128
Mof_N 	N 	0.5356	0.7856	0.5178	-0.025
Mof_N 	N 	0.5317	0.7078	0.4815	-0.336
Mof_N 	N 	0.4575	0.3647	0.9384	-0.166
Mof_N 	N 	0.4644	0.2856	0.9822	0.093
Mof_N 	N 	0.4683	0.2078	0.0185	-0.398
Mof_N 	N 	0.0425	0.6353	0.4384	-0.245
Mof_N 	N 	0.0356	0.7144	0.4822	-0.06
Mof_N 	N 	0.0317	0.7922	0.5185	-0.221
Mof_N 	N 	0.9575	0.1353	0.0616	-0.096
Mof_N 	N 	0.9644	0.2144	0.0178	-0.145
Mof_N 	N 	0.9683	0.2922	0.9815	-0.005
Mof_Cr	Cr	0.5	0.5	-0	0.93
Mof_Cr	Cr	1.29401e-32	0.5	0.5	0.93
Mof_Cr	Cr	0.5	0	0.5	0.93
Mof_Cr	Cr	-0	0	-0	0.015
Mof_K 	K 	0.5	0.5	0.5	3.035
Mof_K 	K 	5.5327e-33	0.5	-0	1.522
Mof_K 	K 	0.5	0	-0	1.522
Mof_K 	K 	7.4074e-33	0	0.5	1.522
_end
