data_functionalizedCrystal
_audit_creation_method	'EQeq! by Chris Wilmer'
_symmetry_space_group_name_H-M	'P1'
_symmetry_Int_Tables_number	1
_symmetry_cell_setting	triclinic
loop_
_symmetry_equiv_pos_as_xyz
  x,y,z
_cell_length_a	6.3722
_cell_length_b	9.9992
_cell_length_c	11.2234
_cell_angle_alpha	116.453
_cell_angle_beta	96.3409
_cell_angle_gamma	90
loop_
_atom_site_label
_atom_site_type_symbol
_atom_site_fract_x
_atom_site_fract_y
_atom_site_fract_z
_atom_site_charge
Mof_Ni	Ni	0.5	0.84882	-0	0.931
Mof_Ni	Ni	0.5	0.15118	-0	0.931
Mof_Ni	Ni	-0	0	-0	0.967
Mof_H 	H 	0.0766	0.5203	0.6586	0.14
Mof_H 	H 	0.7878	0.5565	0.658	-0.041
Mof_H 	H 	0.7967	0.6704	0.5986	-0.035
Mof_H 	H 	0.2864	0.6257	0.5324	-0.046
Mof_H 	H 	0.3354	0.506	0.5838	-0.051
Mof_H 	H 	0.9234	0.8617	0.3414	-0.014
Mof_H 	H 	0.2122	0.8985	0.342	0.122
Mof_H 	H 	0.2033	0.0718	0.4014	0.138
Mof_H 	H 	0.7136	0.0933	0.4676	0.147
Mof_H 	H 	0.6646	0.9222	0.4162	0.137
Mof_H 	H 	0.9234	0.4797	0.3414	-0.019
Mof_H 	H 	0.2122	0.4435	0.342	0.13
Mof_H 	H 	0.2033	0.3296	0.4014	0.146
Mof_H 	H 	0.7136	0.3743	0.4676	0.153
Mof_H 	H 	0.6646	0.494	0.4162	0.143
Mof_H 	H 	0.0766	0.1383	0.6586	0.137
Mof_H 	H 	0.7878	0.1015	0.658	-0.035
Mof_H 	H 	0.7967	0.9282	0.5986	-0.031
Mof_H 	H 	0.2864	0.9067	0.5324	-0.04
Mof_H 	H 	0.3354	0.0778	0.5838	-0.045
Mof_C 	C 	0.0703	0.60417	0.63574	-0.422
Mof_C 	C 	0.8519	0.57784	0.59348	0.307
Mof_C 	C 	0.2238	0.54401	0.54322	0.269
Mof_C 	C 	0.1497	0.71622	0.77724	0.435
Mof_C 	C 	0.9297	0.96843	0.36426	0.17
Mof_C 	C 	0.1481	0.98436	0.40652	-0.418
Mof_C 	C 	0.7762	0.00079	0.45678	-0.391
Mof_C 	C 	0.8503	0.93898	0.22276	0.251
Mof_C 	C 	0.9297	0.39583	0.36426	0.191
Mof_C 	C 	0.1481	0.42216	0.40652	-0.446
Mof_C 	C 	0.7762	0.45599	0.45678	-0.411
Mof_C 	C 	0.8503	0.28378	0.22276	0.244
Mof_C 	C 	0.0703	0.03157	0.63574	-0.409
Mof_C 	C 	0.8519	0.01564	0.59348	0.29
Mof_C 	C 	0.2238	0.99921	0.54322	0.249
Mof_C 	C 	0.1497	0.06102	0.77724	0.43
Mof_O 	O 	0.3451	0.73959	0.80978	-0.359
Mof_O 	O 	0.0112	0.77986	0.85492	-0.335
Mof_O 	O 	0.6549	0.92981	0.19022	-0.472
Mof_O 	O 	0.9888	0.92494	0.14508	-0.452
Mof_O 	O 	0.6549	0.26041	0.19022	-0.471
Mof_O 	O 	0.9888	0.22014	0.14508	-0.45
Mof_O 	O 	0.3451	0.07019	0.80978	-0.358
Mof_O 	O 	0.0112	0.07506	0.85492	-0.333
Mof_O 	O 	0.683	0.97101	0.94202	-0.296
Mof_O 	O 	0.317	0.02899	0.05798	-0.678
_end
