data_functionalizedCrystal
_audit_creation_method	'EQeq! by Chris Wilmer'
_symmetry_space_group_name_H-M	'P1'
_symmetry_Int_Tables_number	1
_symmetry_cell_setting	triclinic
loop_
_symmetry_equiv_pos_as_xyz
  x,y,z
_cell_length_a	14.3547
_cell_length_b	14.3547
_cell_length_c	14.3547
_cell_angle_alpha	63.292
_cell_angle_beta	84.1968
_cell_angle_gamma	116.708
loop_
_atom_site_label
_atom_site_type_symbol
_atom_site_fract_x
_atom_site_fract_y
_atom_site_fract_z
_atom_site_charge
Mof_Zn	Zn	0.42331	0	0.57669	1.196
Mof_Zn	Zn	0.07669	0	0.92331	1.199
Mof_Zn	Zn	0.57669	0	0.42331	1.195
Mof_Zn	Zn	0.92331	6.50831e-18	0.07669	1.187
Mof_H 	H 	0.2466	0.0932	0.3626	0.039
Mof_H 	H 	0.425	0.073	0.742	0.259
Mof_H 	H 	0.331	0.917	0.818	0.141
Mof_H 	H 	0.5442	0.9068	0.8466	0.057
Mof_H 	H 	0.185	0.927	0.648	-0.157
Mof_H 	H 	0.265	0.083	0.586	-0.053
Mof_H 	H 	0.1534	0.6092	0.7534	0.056
Mof_H 	H 	0.352	0.167	0.575	0.063
Mof_H 	H 	0.414	0.149	0.669	0.063
Mof_H 	H 	0.6374	0.3908	0.4558	0.039
Mof_H 	H 	0.258	0.833	0.815	0.051
Mof_H 	H 	0.182	0.851	0.735	0.028
Mof_H 	H 	0.9558	0.6092	0.1374	0.049
Mof_H 	H 	0.315	0.167	0.758	0.06
Mof_H 	H 	0.235	0.149	0.682	0.063
Mof_H 	H 	0.2534	0.3908	0.6534	0.041
Mof_H 	H 	0.075	0.833	0.852	0.054
Mof_H 	H 	0.169	0.851	0.914	0.03
Mof_H 	H 	0.8626	0.9068	0.7466	0.053
Mof_H 	H 	0.242	0.927	0.925	-0.147
Mof_H 	H 	0.318	0.083	0.831	-0.048
Mof_H 	H 	0.3466	0.0932	0.0442	0.038
Mof_H 	H 	0.148	0.073	0.685	0.269
Mof_H 	H 	0.086	0.917	0.765	0.144
Mof_H 	H 	0.7534	0.9068	0.6374	0.056
Mof_H 	H 	0.575	0.927	0.258	-0.185
Mof_H 	H 	0.669	0.083	0.182	-0.066
Mof_H 	H 	0.4558	0.0932	0.1534	0.036
Mof_H 	H 	0.815	0.073	0.352	0.285
Mof_H 	H 	0.735	0.917	0.414	0.152
Mof_H 	H 	0.8466	0.3908	0.2466	0.036
Mof_H 	H 	0.648	0.833	0.425	0.052
Mof_H 	H 	0.586	0.851	0.331	0.026
Mof_H 	H 	0.3626	0.6092	0.5442	0.055
Mof_H 	H 	0.742	0.167	0.185	0.062
Mof_H 	H 	0.818	0.149	0.265	0.063
Mof_H 	H 	0.0442	0.3908	0.8626	0.045
Mof_H 	H 	0.685	0.833	0.242	0.043
Mof_H 	H 	0.765	0.851	0.318	0.023
Mof_H 	H 	0.7466	0.6092	0.3466	0.056
Mof_H 	H 	0.925	0.167	0.148	0.046
Mof_H 	H 	0.831	0.149	0.086	0.057
Mof_H 	H 	0.1374	0.0932	0.2534	0.044
Mof_H 	H 	0.758	0.073	0.075	0.286
Mof_H 	H 	0.682	0.917	0.169	0.153
Mof_H 	H 	0.6534	0.9068	0.9558	0.056
Mof_H 	H 	0.852	0.927	0.315	-0.186
Mof_H 	H 	0.914	0.083	0.235	-0.07
Mof_C 	C 	0.2658	0.09102	0.2994	-0.014
Mof_C 	C 	0.3669	0.0285	0.7556	-0.504
Mof_C 	C 	0.60958	0.90898	0.82522	-0.012
Mof_C 	C 	0.2159	0.9715	0.6616	0.385
Mof_C 	C 	0.17478	0.5652	0.7342	-0.024
Mof_C 	C 	0.3384	0.1225	0.6331	-0.073
Mof_C 	C 	0.7006	0.4348	0.39042	-0.001
Mof_C 	C 	0.2444	0.8775	0.7841	-0.07
Mof_C 	C 	0.89042	0.5652	0.2006	-0.032
Mof_C 	C 	0.2841	0.1225	0.7444	-0.067
Mof_C 	C 	0.2342	0.4348	0.67478	-0.001
Mof_C 	C 	0.1331	0.8775	0.8384	-0.077
Mof_C 	C 	0.7994	0.90898	0.7658	-0.007
Mof_C 	C 	0.2556	0.9715	0.8669	0.362
Mof_C 	C 	0.32522	0.09102	0.10958	-0.023
Mof_C 	C 	0.1616	0.0285	0.7159	-0.521
Mof_C 	C 	0.7342	0.90898	0.7006	-0.012
Mof_C 	C 	0.6331	0.9715	0.2444	0.44
Mof_C 	C 	0.39042	0.09102	0.17478	-0.016
Mof_C 	C 	0.7841	0.0285	0.3384	-0.563
Mof_C 	C 	0.82522	0.4348	0.2658	-0.002
Mof_C 	C 	0.6616	0.8775	0.3669	-0.076
Mof_C 	C 	0.2994	0.5652	0.60958	-0.025
Mof_C 	C 	0.7556	0.1225	0.2159	-0.073
Mof_C 	C 	0.10958	0.4348	0.7994	-0.001
Mof_C 	C 	0.7159	0.8775	0.2556	-0.06
Mof_C 	C 	0.7658	0.5652	0.32522	-0.031
Mof_C 	C 	0.8669	0.1225	0.1616	-0.05
Mof_C 	C 	0.2006	0.09102	0.2342	-0.023
Mof_C 	C 	0.7444	0.0285	0.1331	-0.567
Mof_C 	C 	0.67478	0.90898	0.89042	-0.006
Mof_C 	C 	0.8384	0.9715	0.2841	0.438
Mof_C 	C 	0.35912	0.08781	0.27131	-0.094
Mof_C 	C 	0.42122	0.07168	0.34954	0.393
Mof_C 	C 	0.64088	0.91219	0.72869	-0.07
Mof_C 	C 	0.57878	0.92832	0.65046	0.39
Mof_C 	C 	0.27131	0.63043	0.64088	-0.066
Mof_C 	C 	0.34954	0.77076	0.57878	0.385
Mof_C 	C 	0.72869	0.36957	0.35912	-0.098
Mof_C 	C 	0.65046	0.22924	0.42122	0.398
Mof_C 	C 	0.85912	0.63043	0.22869	-0.062
Mof_C 	C 	0.92122	0.77076	0.15046	0.359
Mof_C 	C 	0.14088	0.36957	0.77131	-0.096
Mof_C 	C 	0.07878	0.22924	0.84954	0.409
Mof_C 	C 	0.77131	0.91219	0.85912	-0.076
Mof_C 	C 	0.84954	0.92832	0.92122	0.4
Mof_C 	C 	0.22869	0.08781	0.14088	-0.085
Mof_C 	C 	0.15046	0.07168	0.07878	0.379
Mof_N 	N 	0.31711	0	0.68289	-0.222
Mof_N 	N 	0.18289	0	0.81711	-0.215
Mof_N 	N 	0.68289	2.60332e-17	0.31711	-0.225
Mof_N 	N 	0.81711	1.30166e-17	0.18289	-0.232
Mof_O 	O 	0.38674	0.06477	0.43721	-0.486
Mof_O 	O 	0.49802	0.93523	0.67803	-0.437
Mof_O 	O 	0.32197	0.82395	0.61326	-0.436
Mof_O 	O 	0.56279	0.17605	0.50198	-0.487
Mof_O 	O 	0.00198	0.82395	0.06279	-0.417
Mof_O 	O 	0.11326	0.17605	0.82197	-0.485
Mof_O 	O 	0.93721	0.93523	0.88674	-0.445
Mof_O 	O 	0.17803	0.06477	0.99802	-0.474
Mof_O 	O 	0.61326	0.93523	0.56279	-0.436
Mof_O 	O 	0.50198	0.06477	0.32197	-0.488
Mof_O 	O 	0.67803	0.17605	0.38674	-0.489
Mof_O 	O 	0.43721	0.82395	0.49802	-0.435
Mof_O 	O 	0.99802	0.17605	0.93721	-0.491
Mof_O 	O 	0.88674	0.82395	0.17803	-0.434
Mof_O 	O 	0.06279	0.06477	0.11326	-0.474
Mof_O 	O 	0.82197	0.93523	0.00198	-0.446
_end
