data_functionalizedCrystal
_audit_creation_method	'EQeq! by Chris Wilmer'
_symmetry_space_group_name_H-M	'P1'
_symmetry_Int_Tables_number	1
_symmetry_cell_setting	triclinic
loop_
_symmetry_equiv_pos_as_xyz
  x,y,z
_cell_length_a	18.7824
_cell_length_b	19.6842
_cell_length_c	12.049
_cell_angle_alpha	90
_cell_angle_beta	90
_cell_angle_gamma	90
loop_
_atom_site_label
_atom_site_type_symbol
_atom_site_fract_x
_atom_site_fract_y
_atom_site_fract_z
_atom_site_charge
Mof_Co	Co	0.30798	0.83751	0.3227	1.154
Mof_C 	C 	0.2149	0.9615	0.381	0.039
Mof_H 	H 	0.1884	0.9453	0.3194	0.022
Mof_C 	C 	0.1896	0.0182	0.4381	-0.052
Mof_H 	H 	0.1465	0.0394	0.4156	0.051
Mof_C 	C 	0.2266	0.0429	0.5255	-0.061
Mof_C 	C 	0.2905	0.0097	0.5557	-0.052
Mof_H 	H 	0.3178	0.025	0.6172	0.053
Mof_C 	C 	0.3122	0.9546	0.4942	0.026
Mof_H 	H 	0.3561	0.9334	0.5128	0.007
Mof_C 	C 	0.2025	0.1046	0.5901	0.352
Mof_C 	C 	0.9916	0.8072	0.4257	0.003
Mof_H 	H 	0.9674	0.8492	0.4352	0.015
Mof_C 	C 	0.063	0.8092	0.4031	-0.025
Mof_H 	H 	0.0871	0.8515	0.399	0.044
Mof_C 	C 	0.3024	0.7958	0.8217	0.002
Mof_H 	H 	0.275	0.8289	0.8601	0.016
Mof_C 	C 	0.3035	0.7967	0.7043	-0.014
Mof_H 	H 	0.278	0.8311	0.6658	0.038
Mof_N 	N 	0.2741	0.9293	0.4087	-0.205
Mof_H 	H 	0.3837	0.7582	0.2585	0.092
Mof_O 	O 	0.1621	0.1453	0.5429	-0.461
Mof_O 	O 	0.2275	0.1106	0.6862	-0.449
Mof_O 	O 	0.2044	0.8041	0.3398	-0.474
Mof_O 	O 	0.3413	0.8051	0.4771	-0.49
Mof_C 	C 	0.1266	0.2979	0.3227	0.008
Mof_C 	C 	0.1246	0.3006	0.2077	-0.021
Mof_H 	H 	0.1018	0.3319	0.3632	0.022
Mof_H 	H 	0.0998	0.3361	0.1709	0.037
Mof_Co	Co	0.19202	0.16249	0.8227	1.153
Mof_C 	C 	0.2851	0.0385	0.881	0.04
Mof_H 	H 	0.3116	0.0547	0.8194	0.022
Mof_C 	C 	0.3104	0.9818	0.9381	-0.054
Mof_H 	H 	0.3535	0.9606	0.9156	0.051
Mof_C 	C 	0.2734	0.9571	0.0255	-0.059
Mof_C 	C 	0.2095	0.9903	0.0557	-0.057
Mof_H 	H 	0.1822	0.975	0.1172	0.054
Mof_C 	C 	0.1878	0.0454	0.9942	0.033
Mof_H 	H 	0.1439	0.0666	0.0128	0.003
Mof_C 	C 	0.2975	0.8954	0.0901	0.352
Mof_C 	C 	0.5084	0.1928	0.9257	0.002
Mof_H 	H 	0.5326	0.1508	0.9352	0.015
Mof_C 	C 	0.437	0.1908	0.9031	-0.024
Mof_H 	H 	0.4129	0.1485	0.899	0.044
Mof_C 	C 	0.1976	0.2042	0.3217	0.003
Mof_H 	H 	0.225	0.1711	0.3601	0.016
Mof_C 	C 	0.1965	0.2033	0.2043	-0.015
Mof_H 	H 	0.222	0.1689	0.1658	0.038
Mof_N 	N 	0.2259	0.0707	0.9087	-0.206
Mof_H 	H 	0.1163	0.2418	0.7585	0.093
Mof_O 	O 	0.3379	0.8547	0.0429	-0.46
Mof_O 	O 	0.2725	0.8894	0.1862	-0.449
Mof_O 	O 	0.2956	0.1959	0.8398	-0.474
Mof_O 	O 	0.1587	0.1949	0.9771	-0.487
Mof_C 	C 	0.3734	0.7021	0.8227	0.007
Mof_C 	C 	0.3754	0.6994	0.7077	-0.02
Mof_H 	H 	0.3982	0.6681	0.8632	0.022
Mof_H 	H 	0.4002	0.6639	0.6709	0.037
Mof_Co	Co	0.69202	0.33751	0.6773	1.153
Mof_C 	C 	0.7851	0.4615	0.619	0.038
Mof_H 	H 	0.8116	0.4453	0.6806	0.023
Mof_C 	C 	0.8104	0.5182	0.5619	-0.052
Mof_H 	H 	0.8535	0.5394	0.5844	0.051
Mof_C 	C 	0.7734	0.5429	0.4745	-0.061
Mof_C 	C 	0.7095	0.5097	0.4443	-0.052
Mof_H 	H 	0.6822	0.525	0.3828	0.052
Mof_C 	C 	0.6878	0.4546	0.5058	0.026
Mof_H 	H 	0.6439	0.4334	0.4872	0.007
Mof_C 	C 	0.7975	0.6046	0.4099	0.353
Mof_C 	C 	0.0084	0.3072	0.5743	0.003
Mof_H 	H 	0.0326	0.3492	0.5648	0.015
Mof_C 	C 	0.937	0.3092	0.5969	-0.025
Mof_H 	H 	0.9129	0.3515	0.601	0.044
Mof_C 	C 	0.6976	0.2958	0.1783	0.002
Mof_H 	H 	0.725	0.3289	0.1399	0.016
Mof_C 	C 	0.6965	0.2967	0.2957	-0.014
Mof_H 	H 	0.722	0.3311	0.3342	0.038
Mof_N 	N 	0.7259	0.4293	0.5913	-0.204
Mof_H 	H 	0.6163	0.2582	0.7415	0.092
Mof_O 	O 	0.8379	0.6453	0.4571	-0.461
Mof_O 	O 	0.7725	0.6106	0.3138	-0.449
Mof_O 	O 	0.7956	0.3041	0.6602	-0.474
Mof_O 	O 	0.6587	0.3051	0.5229	-0.49
Mof_C 	C 	0.8734	0.7979	0.6773	0.008
Mof_C 	C 	0.8754	0.8006	0.7923	-0.021
Mof_H 	H 	0.8982	0.8319	0.6368	0.022
Mof_H 	H 	0.9002	0.8361	0.8291	0.037
Mof_Co	Co	0.80798	0.66249	0.1773	1.153
Mof_C 	C 	0.7149	0.5385	0.119	0.038
Mof_H 	H 	0.6884	0.5547	0.1806	0.023
Mof_C 	C 	0.6896	0.4818	0.0619	-0.051
Mof_H 	H 	0.6465	0.4606	0.0844	0.051
Mof_C 	C 	0.7266	0.4571	0.9745	-0.061
Mof_C 	C 	0.7905	0.4903	0.9443	-0.055
Mof_H 	H 	0.8178	0.475	0.8828	0.053
Mof_C 	C 	0.8122	0.5454	0.0058	0.031
Mof_H 	H 	0.8561	0.5666	0.9872	0.004
Mof_C 	C 	0.7025	0.3954	0.9099	0.352
Mof_C 	C 	0.4916	0.6928	0.0743	0.002
Mof_H 	H 	0.4674	0.6508	0.0648	0.015
Mof_C 	C 	0.563	0.6908	0.0969	-0.024
Mof_H 	H 	0.5871	0.6485	0.101	0.044
Mof_C 	C 	0.8024	0.7042	0.6783	0.003
Mof_H 	H 	0.775	0.6711	0.6399	0.016
Mof_C 	C 	0.8035	0.7033	0.7957	-0.015
Mof_H 	H 	0.778	0.6689	0.8342	0.038
Mof_N 	N 	0.7741	0.5707	0.0913	-0.205
Mof_H 	H 	0.8837	0.7418	0.2415	0.093
Mof_O 	O 	0.6621	0.3547	0.9571	-0.461
Mof_O 	O 	0.7275	0.3894	0.8138	-0.449
Mof_O 	O 	0.7044	0.6959	0.1602	-0.474
Mof_O 	O 	0.8413	0.6949	0.0229	-0.487
Mof_C 	C 	0.6266	0.2021	0.1773	0.008
Mof_C 	C 	0.6246	0.1994	0.2923	-0.02
Mof_H 	H 	0.6018	0.1681	0.1368	0.022
Mof_H 	H 	0.5998	0.1639	0.3291	0.037
Mof_Co	Co	0.69202	0.16249	0.6773	1.153
Mof_C 	C 	0.7851	0.0385	0.619	0.038
Mof_H 	H 	0.8116	0.0547	0.6806	0.022
Mof_C 	C 	0.8104	0.9818	0.5619	-0.052
Mof_H 	H 	0.8535	0.9606	0.5844	0.051
Mof_C 	C 	0.7734	0.9571	0.4745	-0.061
Mof_C 	C 	0.7095	0.9903	0.4443	-0.052
Mof_H 	H 	0.6822	0.975	0.3828	0.053
Mof_C 	C 	0.6878	0.0454	0.5058	0.026
Mof_H 	H 	0.6439	0.0666	0.4872	0.007
Mof_C 	C 	0.7975	0.8954	0.4099	0.352
Mof_C 	C 	0.0084	0.1928	0.5743	0.003
Mof_H 	H 	0.0326	0.1508	0.5648	0.015
Mof_C 	C 	0.937	0.1908	0.5969	-0.025
Mof_H 	H 	0.9129	0.1485	0.601	0.044
Mof_C 	C 	0.6976	0.2042	0.1783	0.002
Mof_H 	H 	0.725	0.1711	0.1399	0.016
Mof_C 	C 	0.6965	0.2033	0.2957	-0.014
Mof_H 	H 	0.722	0.1689	0.3342	0.038
Mof_N 	N 	0.7259	0.0707	0.5913	-0.205
Mof_H 	H 	0.6163	0.2418	0.7415	0.092
Mof_O 	O 	0.8379	0.8547	0.4571	-0.461
Mof_O 	O 	0.7725	0.8894	0.3138	-0.449
Mof_O 	O 	0.7956	0.1959	0.6602	-0.474
Mof_O 	O 	0.6587	0.1949	0.5229	-0.49
Mof_C 	C 	0.8734	0.7021	0.6773	0.008
Mof_C 	C 	0.8754	0.6994	0.7923	-0.021
Mof_H 	H 	0.8982	0.6681	0.6368	0.022
Mof_H 	H 	0.9002	0.6639	0.8291	0.037
Mof_Co	Co	0.80798	0.83751	0.1773	1.153
Mof_C 	C 	0.7149	0.9615	0.119	0.04
Mof_H 	H 	0.6884	0.9453	0.1806	0.022
Mof_C 	C 	0.6896	0.0182	0.0619	-0.054
Mof_H 	H 	0.6465	0.0394	0.0844	0.051
Mof_C 	C 	0.7266	0.0429	0.9745	-0.059
Mof_C 	C 	0.7905	0.0097	0.9443	-0.057
Mof_H 	H 	0.8178	0.025	0.8828	0.054
Mof_C 	C 	0.8122	0.9546	0.0058	0.033
Mof_H 	H 	0.8561	0.9334	0.9872	0.003
Mof_C 	C 	0.7025	0.1046	0.9099	0.352
Mof_C 	C 	0.4916	0.8072	0.0743	0.002
Mof_H 	H 	0.4674	0.8492	0.0648	0.015
Mof_C 	C 	0.563	0.8092	0.0969	-0.024
Mof_H 	H 	0.5871	0.8515	0.101	0.044
Mof_C 	C 	0.8024	0.7958	0.6783	0.003
Mof_H 	H 	0.775	0.8289	0.6399	0.016
Mof_C 	C 	0.8035	0.7967	0.7957	-0.015
Mof_H 	H 	0.778	0.8311	0.8342	0.038
Mof_N 	N 	0.7741	0.9293	0.0913	-0.206
Mof_H 	H 	0.8837	0.7582	0.2415	0.093
Mof_O 	O 	0.6621	0.1453	0.9571	-0.46
Mof_O 	O 	0.7275	0.1106	0.8138	-0.449
Mof_O 	O 	0.7044	0.8041	0.1602	-0.474
Mof_O 	O 	0.8413	0.8051	0.0229	-0.487
Mof_C 	C 	0.6266	0.2979	0.1773	0.007
Mof_C 	C 	0.6246	0.3006	0.2923	-0.02
Mof_H 	H 	0.6018	0.3319	0.1368	0.022
Mof_H 	H 	0.5998	0.3361	0.3291	0.037
Mof_Co	Co	0.30798	0.66249	0.3227	1.153
Mof_C 	C 	0.2149	0.5385	0.381	0.038
Mof_H 	H 	0.1884	0.5547	0.3194	0.023
Mof_C 	C 	0.1896	0.4818	0.4381	-0.052
Mof_H 	H 	0.1465	0.4606	0.4156	0.051
Mof_C 	C 	0.2266	0.4571	0.5255	-0.061
Mof_C 	C 	0.2905	0.4903	0.5557	-0.052
Mof_H 	H 	0.3178	0.475	0.6172	0.052
Mof_C 	C 	0.3122	0.5454	0.4942	0.026
Mof_H 	H 	0.3561	0.5666	0.5128	0.007
Mof_C 	C 	0.2025	0.3954	0.5901	0.353
Mof_C 	C 	0.9916	0.6928	0.4257	0.003
Mof_H 	H 	0.9674	0.6508	0.4352	0.015
Mof_C 	C 	0.063	0.6908	0.4031	-0.025
Mof_H 	H 	0.0871	0.6485	0.399	0.044
Mof_C 	C 	0.3024	0.7042	0.8217	0.002
Mof_H 	H 	0.275	0.6711	0.8601	0.016
Mof_C 	C 	0.3035	0.7033	0.7043	-0.014
Mof_H 	H 	0.278	0.6689	0.6658	0.038
Mof_N 	N 	0.2741	0.5707	0.4087	-0.204
Mof_H 	H 	0.3837	0.7418	0.2585	0.092
Mof_O 	O 	0.1621	0.3547	0.5429	-0.461
Mof_O 	O 	0.2275	0.3894	0.6862	-0.449
Mof_O 	O 	0.2044	0.6959	0.3398	-0.474
Mof_O 	O 	0.3413	0.6949	0.4771	-0.49
Mof_C 	C 	0.1266	0.2021	0.3227	0.008
Mof_C 	C 	0.1246	0.1994	0.2077	-0.021
Mof_H 	H 	0.1018	0.1681	0.3632	0.022
Mof_H 	H 	0.0998	0.1639	0.1709	0.037
Mof_Co	Co	0.19202	0.33751	0.8227	1.153
Mof_C 	C 	0.2851	0.4615	0.881	0.038
Mof_H 	H 	0.3116	0.4453	0.8194	0.023
Mof_C 	C 	0.3104	0.5182	0.9381	-0.051
Mof_H 	H 	0.3535	0.5394	0.9156	0.051
Mof_C 	C 	0.2734	0.5429	0.0255	-0.061
Mof_C 	C 	0.2095	0.5097	0.0557	-0.055
Mof_H 	H 	0.1822	0.525	0.1172	0.053
Mof_C 	C 	0.1878	0.4546	0.9942	0.031
Mof_H 	H 	0.1439	0.4334	0.0128	0.004
Mof_C 	C 	0.2975	0.6046	0.0901	0.352
Mof_C 	C 	0.5084	0.3072	0.9257	0.002
Mof_H 	H 	0.5326	0.3492	0.9352	0.015
Mof_C 	C 	0.437	0.3092	0.9031	-0.024
Mof_H 	H 	0.4129	0.3515	0.899	0.044
Mof_C 	C 	0.1976	0.2958	0.3217	0.003
Mof_H 	H 	0.225	0.3289	0.3601	0.016
Mof_C 	C 	0.1965	0.2967	0.2043	-0.015
Mof_H 	H 	0.222	0.3311	0.1658	0.038
Mof_N 	N 	0.2259	0.4293	0.9087	-0.205
Mof_H 	H 	0.1163	0.2582	0.7585	0.093
Mof_O 	O 	0.3379	0.6453	0.0429	-0.461
Mof_O 	O 	0.2725	0.6106	0.1862	-0.449
Mof_O 	O 	0.2956	0.3041	0.8398	-0.474
Mof_O 	O 	0.1587	0.3051	0.9771	-0.487
Mof_C 	C 	0.3734	0.7979	0.8227	0.008
Mof_C 	C 	0.3754	0.8006	0.7077	-0.02
Mof_H 	H 	0.3982	0.8319	0.8632	0.022
Mof_H 	H 	0.4002	0.8361	0.6709	0.037
Mof_Co	Co	0.8404	0.75	0.43741	1.133
Mof_C 	C 	0.0992	0.75	0.3864	-0.105
Mof_C 	C 	0.1766	0.75	0.3531	0.458
Mof_C 	C 	0.3401	0.75	0.6462	-0.103
Mof_C 	C 	0.3382	0.75	0.522	0.439
Mof_O 	O 	0.3412	0.75	0.2381	-0.751
Mof_N 	N 	0.954	0.75	0.4361	-0.218
Mof_N 	N 	0.3384	0.75	0.8798	-0.208
Mof_Co	Co	0.6596	0.25	0.93741	1.133
Mof_C 	C 	0.4008	0.25	0.8864	-0.105
Mof_C 	C 	0.3234	0.25	0.8531	0.458
Mof_C 	C 	0.1599	0.25	0.1462	-0.101
Mof_C 	C 	0.1618	0.25	0.022	0.433
Mof_O 	O 	0.1588	0.25	0.7381	-0.751
Mof_N 	N 	0.546	0.25	0.9361	-0.218
Mof_N 	N 	0.1616	0.25	0.3798	-0.208
Mof_Co	Co	0.1596	0.25	0.56259	1.133
Mof_C 	C 	0.9008	0.25	0.6136	-0.105
Mof_C 	C 	0.8234	0.25	0.6469	0.458
Mof_C 	C 	0.6599	0.25	0.3538	-0.103
Mof_C 	C 	0.6618	0.25	0.478	0.439
Mof_O 	O 	0.6588	0.25	0.7619	-0.751
Mof_N 	N 	0.046	0.25	0.5639	-0.218
Mof_N 	N 	0.6616	0.25	0.1202	-0.208
Mof_Co	Co	0.3404	0.75	0.06259	1.133
Mof_C 	C 	0.5992	0.75	0.1136	-0.105
Mof_C 	C 	0.6766	0.75	0.1469	0.458
Mof_C 	C 	0.8401	0.75	0.8538	-0.101
Mof_C 	C 	0.8382	0.75	0.978	0.433
Mof_O 	O 	0.8412	0.75	0.2619	-0.751
Mof_N 	N 	0.454	0.75	0.0639	-0.218
Mof_N 	N 	0.8384	0.75	0.6202	-0.208
_end
