data_functionalizedCrystal
_audit_creation_method	'EQeq! by Chris Wilmer'
_symmetry_space_group_name_H-M	'P1'
_symmetry_Int_Tables_number	1
_symmetry_cell_setting	triclinic
loop_
_symmetry_equiv_pos_as_xyz
  x,y,z
_cell_length_a	9.876
_cell_length_b	10.3
_cell_length_c	13.498
_cell_angle_alpha	81.96
_cell_angle_beta	86.68
_cell_angle_gamma	65.42
loop_
_atom_site_label
_atom_site_type_symbol
_atom_site_fract_x
_atom_site_fract_y
_atom_site_fract_z
_atom_site_charge
Mof_Dy	Dy	0.33377	0.2178	0.1832	0.877
Mof_Cs	Cs	0.14932	0.55008	0.38407	2.458
Mof_Mo	Mo	0.2558	0.3752	0.76029	1.03
Mof_O 	O 	0.3504	0.4452	0.1849	-0.611
Mof_H 	H 	0.4536	0.423	0.2017	0.13
Mof_N 	N 	0.0943	0.6609	0.5928	-0.319
Mof_N 	N 	0.2513	0.2614	0.5422	-0.311
Mof_N 	N 	0.5673	0.3898	0.6664	-0.307
Mof_N 	N 	0.5174	0.042	0.791	-0.23
Mof_N 	N 	0.3223	0.6264	0.849	-0.124
Mof_N 	N 	0.2934	0.2808	0.004	-0.186
Mof_N 	N 	0.9176	0.5868	0.8281	-0.22
Mof_N 	N 	0.0549	0.1832	0.7957	-0.179
Mof_C 	C 	0.1549	0.5618	0.6493	-0.384
Mof_C 	C 	0.2542	0.2982	0.6181	-0.394
Mof_C 	C 	0.4578	0.3835	0.6955	-0.188
Mof_C 	C 	0.4276	0.1582	0.7809	-0.164
Mof_C 	C 	0.2965	0.5387	0.8205	-0.162
Mof_C 	C 	0.2814	0.3122	0.9197	-0.12
Mof_C 	C 	0.0371	0.5094	0.8097	-0.263
Mof_C 	C 	0.1272	0.2476	0.7857	-0.318
Mof_C 	C 	0.3055	0.5637	0.1051	0.23
Mof_H 	H 	0.3583	0.5315	0.0451	-0.052
Mof_H 	H 	0.3279	0.6395	0.1233	-0.102
Mof_H 	H 	0.2004	0.5991	0.0939	-0.092
Mof_Dy	Dy	0.66623	0.7822	0.8168	0.878
Mof_Cs	Cs	0.85068	0.44992	0.61593	2.459
Mof_Mo	Mo	0.7442	0.6248	0.23971	1.03
Mof_O 	O 	0.6496	0.5548	0.8151	-0.611
Mof_H 	H 	0.5464	0.577	0.7983	0.13
Mof_N 	N 	0.9057	0.3391	0.4072	-0.319
Mof_N 	N 	0.7487	0.7386	0.4578	-0.311
Mof_N 	N 	0.4327	0.6102	0.3336	-0.307
Mof_N 	N 	0.4826	0.958	0.209	-0.23
Mof_N 	N 	0.6777	0.3736	0.151	-0.124
Mof_N 	N 	0.7066	0.7192	0.996	-0.186
Mof_N 	N 	0.0824	0.4132	0.1719	-0.22
Mof_N 	N 	0.9451	0.8168	0.2043	-0.179
Mof_C 	C 	0.8451	0.4382	0.3507	-0.384
Mof_C 	C 	0.7458	0.7018	0.3819	-0.394
Mof_C 	C 	0.5422	0.6165	0.3045	-0.188
Mof_C 	C 	0.5724	0.8418	0.2191	-0.164
Mof_C 	C 	0.7035	0.4613	0.1795	-0.162
Mof_C 	C 	0.7186	0.6878	0.0803	-0.12
Mof_C 	C 	0.9629	0.4906	0.1903	-0.263
Mof_C 	C 	0.8728	0.7524	0.2143	-0.318
Mof_C 	C 	0.6945	0.4363	0.8949	0.23
Mof_H 	H 	0.6417	0.4685	0.9549	-0.052
Mof_H 	H 	0.6721	0.3605	0.8767	-0.102
Mof_H 	H 	0.7996	0.4009	0.9061	-0.092
_end
