data_functionalizedCrystal
_audit_creation_method	'EQeq! by Chris Wilmer'
_symmetry_space_group_name_H-M	'P1'
_symmetry_Int_Tables_number	1
_symmetry_cell_setting	triclinic
loop_
_symmetry_equiv_pos_as_xyz
  x,y,z
_cell_length_a	13.1569
_cell_length_b	13.1569
_cell_length_c	23.688
_cell_angle_alpha	97.1021
_cell_angle_beta	97.1021
_cell_angle_gamma	118.166
loop_
_atom_site_label
_atom_site_type_symbol
_atom_site_fract_x
_atom_site_fract_y
_atom_site_fract_z
_atom_site_charge
Mof_La	La	0.86885	0.56309	0.75447	2.231
Mof_La	La	0.56309	0.86885	0.25447	2.231
Mof_H 	H 	0.5588	0.444	0.7194	0.029
Mof_H 	H 	0.361	0.3896	0.7051	0.075
Mof_H 	H 	0.4545	0.7311	0.7142	0.083
Mof_H 	H 	0.6506	0.7798	0.732	0.055
Mof_H 	H 	0.8736	0.8478	0.6848	0.036
Mof_H 	H 	0.8107	0.9067	0.606	0.097
Mof_H 	H 	0.8359	0.6613	0.4984	0.095
Mof_H 	H 	0.8937	0.6029	0.5783	0.034
Mof_H 	H 	0.6425	0.1817	0.6672	0.052
Mof_H 	H 	0.5737	0.0651	0.5743	0.097
Mof_H 	H 	0.6231	0.3493	0.5102	0.094
Mof_H 	H 	0.6749	0.4575	0.6032	0.011
Mof_H 	H 	0.0745	0.8571	0.7594	0.009
Mof_H 	H 	0.2278	0.0456	0.7693	0.092
Mof_H 	H 	0.4592	0.9308	0.803	0.094
Mof_H 	H 	0.3022	0.7426	0.7906	0.045
Mof_H 	H 	0.5978	0.1502	0.3414	0.042
Mof_H 	H 	0.6595	0.2595	0.4356	0.091
Mof_H 	H 	0.4355	0.9687	0.4883	0.079
Mof_H 	H 	0.378	0.863	0.3937	0.044
Mof_H 	H 	0.7231	0.0303	0.4545	0.044
Mof_H 	H 	0.7802	0.975	0.536	0.08
Mof_H 	H 	0.7642	0.7006	0.4312	0.103
Mof_H 	H 	0.7123	0.7643	0.3514	0.028
Mof_H 	H 	0.5226	0.4074	0.832	0.046
Mof_H 	H 	0.3683	0.2171	0.8195	0.074
Mof_H 	H 	0.5855	0.0951	0.7779	0.096
Mof_H 	H 	0.7352	0.2862	0.7904	0.03
Mof_H 	H 	0.005	0.3348	0.7244	0.054
Mof_H 	H 	0.2011	0.3799	0.736	0.082
Mof_H 	H 	0.2709	0.6537	0.6571	0.095
Mof_H 	H 	0.0752	0.6032	0.6453	0.045
Mof_H 	H 	0.444	0.5588	0.2194	0.03
Mof_H 	H 	0.3896	0.361	0.2051	0.075
Mof_H 	H 	0.7311	0.4545	0.2142	0.083
Mof_H 	H 	0.7798	0.6506	0.232	0.055
Mof_H 	H 	0.8478	0.8736	0.1848	0.036
Mof_H 	H 	0.9067	0.8107	0.106	0.098
Mof_H 	H 	0.6613	0.8359	0.9984	0.091
Mof_H 	H 	0.6029	0.8937	0.0783	0.035
Mof_H 	H 	0.1817	0.6425	0.1672	0.051
Mof_H 	H 	0.0651	0.5737	0.0743	0.099
Mof_H 	H 	0.3493	0.6231	0.0102	0.096
Mof_H 	H 	0.4575	0.6749	0.1032	0.01
Mof_H 	H 	0.8571	0.0745	0.2594	0.009
Mof_H 	H 	0.0456	0.2278	0.2693	0.093
Mof_H 	H 	0.9308	0.4592	0.303	0.094
Mof_H 	H 	0.7426	0.3022	0.2906	0.045
Mof_H 	H 	0.1502	0.5978	0.8414	0.043
Mof_H 	H 	0.2595	0.6595	0.9356	0.089
Mof_H 	H 	0.9687	0.4355	0.9883	0.076
Mof_H 	H 	0.863	0.378	0.8937	0.044
Mof_H 	H 	0.0303	0.7231	0.9545	0.042
Mof_H 	H 	0.975	0.7802	0.036	0.085
Mof_H 	H 	0.7006	0.7642	0.9312	0.103
Mof_H 	H 	0.7643	0.7123	0.8514	0.028
Mof_H 	H 	0.4074	0.5226	0.332	0.046
Mof_H 	H 	0.2171	0.3683	0.3195	0.075
Mof_H 	H 	0.0951	0.5855	0.2779	0.096
Mof_H 	H 	0.2862	0.7352	0.2904	0.03
Mof_H 	H 	0.3348	0.005	0.2244	0.054
Mof_H 	H 	0.3799	0.2011	0.236	0.082
Mof_H 	H 	0.6537	0.2709	0.1571	0.095
Mof_H 	H 	0.6032	0.0752	0.1453	0.046
Mof_C 	C 	0.5364	0.503	0.7195	0.06
Mof_C 	C 	0.4189	0.4703	0.7102	-0.095
Mof_C 	C 	0.3842	0.5554	0.7084	0.056
Mof_C 	C 	0.4741	0.6705	0.7161	-0.088
Mof_C 	C 	0.5906	0.6998	0.7264	0.063
Mof_C 	C 	0.8653	0.8095	0.6464	0.069
Mof_C 	C 	0.8287	0.8449	0.5997	-0.114
Mof_C 	C 	0.8179	0.7921	0.5436	0.062
Mof_C 	C 	0.8429	0.7003	0.5364	-0.108
Mof_C 	C 	0.8776	0.6662	0.5838	0.071
Mof_C 	C 	0.6346	0.215	0.6346	0.075
Mof_C 	C 	0.5965	0.1463	0.5795	-0.114
Mof_C 	C 	0.5913	0.1951	0.5321	0.072
Mof_C 	C 	0.6234	0.3126	0.5423	-0.125
Mof_C 	C 	0.6558	0.3772	0.5972	0.074
Mof_C 	C 	0.1535	0.8729	0.7686	0.087
Mof_C 	C 	0.2448	0.9842	0.7743	-0.139
Mof_C 	C 	0.3612	0.011	0.7873	0.084
Mof_C 	C 	0.3809	0.9173	0.7939	-0.125
Mof_C 	C 	0.2874	0.806	0.7873	0.073
Mof_C 	C 	0.5648	0.1138	0.3718	0.066
Mof_C 	C 	0.6012	0.1784	0.4275	-0.099
Mof_C 	C 	0.5535	0.1263	0.4722	0.04
Mof_C 	C 	0.4693	0.0069	0.4585	-0.079
Mof_C 	C 	0.435	0.9444	0.4026	0.048
Mof_C 	C 	0.7349	0.9641	0.45	0.051
Mof_C 	C 	0.7668	0.9306	0.4984	-0.104
Mof_C 	C 	0.7797	0.8295	0.4922	0.058
Mof_C 	C 	0.7582	0.7702	0.4371	-0.112
Mof_C 	C 	0.7279	0.8081	0.3895	0.07
Mof_C 	C 	0.5342	0.3426	0.8202	0.057
Mof_C 	C 	0.4428	0.23	0.8129	-0.097
Mof_C 	C 	0.4588	0.133	0.7956	0.043
Mof_C 	C 	0.5705	0.1581	0.7883	-0.1
Mof_C 	C 	0.6593	0.2709	0.7958	0.063
Mof_C 	C 	0.0602	0.4004	0.7112	0.06
Mof_C 	C 	0.1765	0.4273	0.7179	-0.098
Mof_C 	C 	0.2575	0.5221	0.6988	0.059
Mof_C 	C 	0.2177	0.5883	0.6713	-0.106
Mof_C 	C 	0.1018	0.5586	0.6649	0.072
Mof_C 	C 	0.503	0.5364	0.2195	0.06
Mof_C 	C 	0.4703	0.4189	0.2102	-0.095
Mof_C 	C 	0.5554	0.3842	0.2084	0.056
Mof_C 	C 	0.6705	0.4741	0.2161	-0.088
Mof_C 	C 	0.6998	0.5906	0.2264	0.063
Mof_C 	C 	0.8095	0.8653	0.1464	0.069
Mof_C 	C 	0.8449	0.8287	0.0997	-0.113
Mof_C 	C 	0.7921	0.8179	0.0436	0.062
Mof_C 	C 	0.7003	0.8429	0.0364	-0.101
Mof_C 	C 	0.6662	0.8776	0.0838	0.068
Mof_C 	C 	0.215	0.6346	0.1346	0.077
Mof_C 	C 	0.1463	0.5965	0.0795	-0.117
Mof_C 	C 	0.1951	0.5913	0.0321	0.078
Mof_C 	C 	0.3126	0.6234	0.0423	-0.129
Mof_C 	C 	0.3772	0.6558	0.0972	0.076
Mof_C 	C 	0.8729	0.1535	0.2686	0.087
Mof_C 	C 	0.9842	0.2448	0.2743	-0.139
Mof_C 	C 	0.011	0.3612	0.2873	0.085
Mof_C 	C 	0.9173	0.3809	0.2939	-0.125
Mof_C 	C 	0.806	0.2874	0.2873	0.073
Mof_C 	C 	0.1138	0.5648	0.8718	0.064
Mof_C 	C 	0.1784	0.6012	0.9275	-0.096
Mof_C 	C 	0.1263	0.5535	0.9722	0.033
Mof_C 	C 	0.0069	0.4693	0.9585	-0.075
Mof_C 	C 	0.9444	0.435	0.9026	0.045
Mof_C 	C 	0.9641	0.7349	0.95	0.053
Mof_C 	C 	0.9306	0.7668	0.9984	-0.111
Mof_C 	C 	0.8295	0.7797	0.9922	0.058
Mof_C 	C 	0.7702	0.7582	0.9371	-0.112
Mof_C 	C 	0.8081	0.7279	0.8895	0.071
Mof_C 	C 	0.3426	0.5342	0.3202	0.057
Mof_C 	C 	0.23	0.4428	0.3129	-0.097
Mof_C 	C 	0.133	0.4588	0.2956	0.043
Mof_C 	C 	0.1581	0.5705	0.2883	-0.1
Mof_C 	C 	0.2709	0.6593	0.2958	0.063
Mof_C 	C 	0.4004	0.0602	0.2112	0.061
Mof_C 	C 	0.4273	0.1765	0.2179	-0.098
Mof_C 	C 	0.5221	0.2575	0.1988	0.059
Mof_C 	C 	0.5883	0.2177	0.1713	-0.106
Mof_C 	C 	0.5586	0.1018	0.1649	0.072
Mof_N 	N 	0.6192	0.615	0.7285	-0.057
Mof_N 	N 	0.8895	0.7209	0.6383	-0.056
Mof_N 	N 	0.6609	0.3277	0.6432	-0.061
Mof_N 	N 	0.1767	0.7843	0.7763	-0.063
Mof_N 	N 	0.4817	0.9979	0.36	-0.066
Mof_N 	N 	0.7202	0.9066	0.3966	-0.058
Mof_N 	N 	0.6391	0.3621	0.8111	-0.061
Mof_N 	N 	0.0253	0.4695	0.6852	-0.063
Mof_N 	N 	0.615	0.6192	0.2285	-0.057
Mof_N 	N 	0.7209	0.8895	0.1383	-0.056
Mof_N 	N 	0.3277	0.6609	0.1432	-0.061
Mof_N 	N 	0.7843	0.1767	0.2763	-0.063
Mof_N 	N 	0.9979	0.4817	0.86	-0.065
Mof_N 	N 	0.9066	0.7202	0.8966	-0.059
Mof_N 	N 	0.3621	0.6391	0.3111	-0.061
Mof_N 	N 	0.4695	0.0253	0.1852	-0.063
Mof_O 	O 	0.7326	0.6452	0.7371	-0.322
Mof_O 	O 	0.9289	0.6891	0.6826	-0.336
Mof_O 	O 	0.6909	0.3897	0.6966	-0.335
Mof_O 	O 	0.0896	0.6766	0.7713	-0.305
Mof_O 	O 	0.4467	0.9391	0.3054	-0.315
Mof_O 	O 	0.6969	0.9467	0.3507	-0.335
Mof_O 	O 	0.726	0.4716	0.8186	-0.306
Mof_O 	O 	0.9149	0.4461	0.6811	-0.306
Mof_O 	O 	0.6452	0.7326	0.2371	-0.322
Mof_O 	O 	0.6891	0.9289	0.1826	-0.336
Mof_O 	O 	0.3897	0.6909	0.1966	-0.335
Mof_O 	O 	0.6766	0.0896	0.2713	-0.305
Mof_O 	O 	0.9391	0.4467	0.8054	-0.315
Mof_O 	O 	0.9467	0.6969	0.8507	-0.335
Mof_O 	O 	0.4716	0.726	0.3186	-0.306
Mof_O 	O 	0.4461	0.9149	0.1811	-0.306
Mof_Cl	Cl	0.74628	0.04046	0.6994	-0.2
Mof_O 	O 	0.8014	0.1506	0.7399	-0.034
Mof_O 	O 	0.7898	0.9662	0.7184	-0.046
Mof_O 	O 	0.7679	0.0565	0.6421	-0.043
Mof_O 	O 	0.6212	0.9856	0.6962	-0.049
Mof_Cl	Cl	0.65834	0.4611	0.3689	-0.218
Mof_O 	O 	0.6064	0.3426	0.3383	-0.038
Mof_O 	O 	0.5936	0.515	0.3499	-0.032
Mof_O 	O 	0.7739	0.5271	0.3565	-0.036
Mof_O 	O 	0.6694	0.4656	0.4297	-0.044
Mof_Cl	Cl	0.1873	0.7821	0.5552	-0.214
Mof_O 	O 	0.1689	0.8261	0.6111	-0.024
Mof_O 	O 	0.2322	0.7022	0.5634	-0.028
Mof_O 	O 	0.0697	0.7097	0.5147	-0.023
Mof_O 	O 	0.2578	0.8726	0.5286	-0.02
Mof_Cl	Cl	0.04046	0.74628	0.1994	-0.201
Mof_O 	O 	0.1506	0.8014	0.2399	-0.034
Mof_O 	O 	0.9662	0.7898	0.2184	-0.046
Mof_O 	O 	0.0565	0.7679	0.1421	-0.043
Mof_O 	O 	0.9856	0.6212	0.1962	-0.049
Mof_Cl	Cl	0.4611	0.65834	0.8689	-0.218
Mof_O 	O 	0.3426	0.6064	0.8383	-0.038
Mof_O 	O 	0.515	0.5936	0.8499	-0.033
Mof_O 	O 	0.5271	0.7739	0.8565	-0.036
Mof_O 	O 	0.4656	0.6694	0.9297	-0.045
Mof_Cl	Cl	0.7821	0.1873	0.0552	-0.214
Mof_O 	O 	0.8261	0.1689	0.1111	-0.024
Mof_O 	O 	0.7022	0.2322	0.0634	-0.028
Mof_O 	O 	0.7097	0.0697	0.0147	-0.022
Mof_O 	O 	0.8726	0.2578	0.0286	-0.018
_end
