data_functionalizedCrystal
_audit_creation_method	'EQeq! by Chris Wilmer'
_symmetry_space_group_name_H-M	'P1'
_symmetry_Int_Tables_number	1
_symmetry_cell_setting	triclinic
loop_
_symmetry_equiv_pos_as_xyz
  x,y,z
_cell_length_a	15.031
_cell_length_b	39.952
_cell_length_c	16.253
_cell_angle_alpha	90
_cell_angle_beta	90
_cell_angle_gamma	90
loop_
_atom_site_label
_atom_site_type_symbol
_atom_site_fract_x
_atom_site_fract_y
_atom_site_fract_z
_atom_site_charge
Mof_Cu	Cu	0.75	0.25	0.5	0.851
Mof_Cu	Cu	0.25	0.75	-0	0.842
Mof_H 	H 	0.4005	0.5951	0.3804	0.133
Mof_H 	H 	0.3849	0.6405	0.2938	0.001
Mof_H 	H 	0.1433	0.6113	0.2337	-0.013
Mof_H 	H 	0.1555	0.5648	0.3159	0.119
Mof_H 	H 	0.3584	0.6882	0.2439	0.116
Mof_H 	H 	0.2095	0.5128	0.3796	0.039
Mof_H 	H 	0.1697	0.5401	0.4406	0.039
Mof_H 	H 	0.3474	0.7303	0.1487	-0.024
Mof_H 	H 	0.146	0.6891	0.044	-0.029
Mof_H 	H 	0.1523	0.6441	0.134	0.102
Mof_H 	H 	0.1845	0.4715	0.5746	0.049
Mof_H 	H 	0.1181	0.497	0.5313	0.042
Mof_H 	H 	0.0477	0.4457	0.5768	0.118
Mof_H 	H 	0.9675	0.3969	0.5937	-0.002
Mof_H 	H 	0.0733	0.3614	0.384	0.022
Mof_H 	H 	0.1542	0.4097	0.3706	0.128
Mof_H 	H 	0.8815	0.3576	0.5926	0.103
Mof_H 	H 	0.7912	0.3107	0.5994	-0.022
Mof_H 	H 	0.917	0.271	0.4115	-0.012
Mof_H 	H 	0.0091	0.3166	0.4023	0.127
Mof_H 	H 	0.0995	0.9049	0.3804	0.133
Mof_H 	H 	0.1151	0.8595	0.2938	0.002
Mof_H 	H 	0.3567	0.8887	0.2337	-0.012
Mof_H 	H 	0.3445	0.9352	0.3159	0.12
Mof_H 	H 	0.1416	0.8118	0.2439	0.117
Mof_H 	H 	0.2905	0.9872	0.3796	0.04
Mof_H 	H 	0.3303	0.9599	0.4406	0.04
Mof_H 	H 	0.1526	0.7697	0.1487	-0.024
Mof_H 	H 	0.354	0.8109	0.044	-0.029
Mof_H 	H 	0.3477	0.8559	0.134	0.102
Mof_H 	H 	0.3155	0.0285	0.5746	0.049
Mof_H 	H 	0.3819	0.003	0.5313	0.042
Mof_H 	H 	0.4523	0.0543	0.5768	0.118
Mof_H 	H 	0.5325	0.1031	0.5937	-0.001
Mof_H 	H 	0.4267	0.1386	0.384	0.022
Mof_H 	H 	0.3458	0.0903	0.3706	0.128
Mof_H 	H 	0.6185	0.1424	0.5926	0.103
Mof_H 	H 	0.7088	0.1893	0.5994	-0.021
Mof_H 	H 	0.583	0.229	0.4115	-0.011
Mof_H 	H 	0.4909	0.1834	0.4023	0.126
Mof_H 	H 	0.4005	0.9049	0.6196	0.134
Mof_H 	H 	0.3849	0.8595	0.7062	0.004
Mof_H 	H 	0.1433	0.8887	0.7663	-0.006
Mof_H 	H 	0.1555	0.9352	0.6841	0.123
Mof_H 	H 	0.3584	0.8118	0.7561	0.117
Mof_H 	H 	0.2095	0.9872	0.6204	0.044
Mof_H 	H 	0.1697	0.9599	0.5594	0.041
Mof_H 	H 	0.3474	0.7697	0.8513	-0.017
Mof_H 	H 	0.146	0.8109	0.956	-0.008
Mof_H 	H 	0.1523	0.8559	0.866	0.11
Mof_H 	H 	0.1845	0.0285	0.4254	0.046
Mof_H 	H 	0.1181	0.003	0.4687	0.041
Mof_H 	H 	0.0477	0.0543	0.4232	0.116
Mof_H 	H 	0.9675	0.1031	0.4063	-0.003
Mof_H 	H 	0.0733	0.1386	0.616	0.023
Mof_H 	H 	0.1542	0.0903	0.6294	0.132
Mof_H 	H 	0.8815	0.1424	0.4074	0.102
Mof_H 	H 	0.7912	0.1893	0.4006	-0.022
Mof_H 	H 	0.917	0.229	0.5885	-0.011
Mof_H 	H 	0.0091	0.1834	0.5977	0.127
Mof_H 	H 	0.0995	0.5951	0.6196	0.134
Mof_H 	H 	0.1151	0.6405	0.7062	0.004
Mof_H 	H 	0.3567	0.6113	0.7663	-0.006
Mof_H 	H 	0.3445	0.5648	0.6841	0.123
Mof_H 	H 	0.1416	0.6882	0.7561	0.117
Mof_H 	H 	0.2905	0.5128	0.6204	0.044
Mof_H 	H 	0.3303	0.5401	0.5594	0.041
Mof_H 	H 	0.1526	0.7303	0.8513	-0.017
Mof_H 	H 	0.354	0.6891	0.956	-0.008
Mof_H 	H 	0.3477	0.6441	0.866	0.11
Mof_H 	H 	0.3155	0.4715	0.4254	0.046
Mof_H 	H 	0.3819	0.497	0.4687	0.041
Mof_H 	H 	0.4523	0.4457	0.4232	0.116
Mof_H 	H 	0.5325	0.3969	0.4063	-0.003
Mof_H 	H 	0.4267	0.3614	0.616	0.023
Mof_H 	H 	0.3458	0.4097	0.6294	0.132
Mof_H 	H 	0.6185	0.3576	0.4074	0.102
Mof_H 	H 	0.7088	0.3107	0.4006	-0.022
Mof_H 	H 	0.583	0.271	0.5885	-0.011
Mof_H 	H 	0.4909	0.3166	0.5977	0.126
Mof_C 	C 	0.2797	0.5754	0.3576	0.277
Mof_C 	C 	0.3475	0.598	0.3505	-0.248
Mof_C 	C 	0.3373	0.6254	0.2987	0.116
Mof_C 	C 	0.2624	0.6315	0.2549	-0.149
Mof_C 	C 	0.1963	0.6081	0.2635	0.118
Mof_C 	C 	0.2026	0.5802	0.3127	-0.257
Mof_C 	C 	0.2566	0.6601	0.1998	0.169
Mof_C 	C 	0.3143	0.6871	0.203	-0.211
Mof_C 	C 	0.223	0.5271	0.4271	0.022
Mof_C 	C 	0.3064	0.7125	0.1453	0.127
Mof_C 	C 	0.1907	0.6888	0.0844	0.113
Mof_C 	C 	0.1939	0.6616	0.1392	-0.203
Mof_C 	C 	0.1718	0.4835	0.5233	0.014
Mof_C 	C 	0.1099	0.4324	0.4734	0.265
Mof_C 	C 	0.0538	0.4284	0.538	-0.238
Mof_C 	C 	0.0052	0.3992	0.5479	0.097
Mof_C 	C 	0.0116	0.373	0.4903	-0.113
Mof_C 	C 	0.0679	0.3781	0.4243	0.089
Mof_C 	C 	0.1162	0.4071	0.4161	-0.222
Mof_C 	C 	0.9547	0.3427	0.4983	0.155
Mof_C 	C 	0.8902	0.3401	0.5548	-0.191
Mof_C 	C 	0.8355	0.3119	0.5587	0.107
Mof_C 	C 	0.9094	0.2887	0.4488	0.115
Mof_C 	C 	0.9647	0.3159	0.443	-0.193
Mof_C 	C 	0.2203	0.9246	0.3576	0.277
Mof_C 	C 	0.1525	0.902	0.3505	-0.248
Mof_C 	C 	0.1627	0.8746	0.2987	0.116
Mof_C 	C 	0.2376	0.8685	0.2549	-0.149
Mof_C 	C 	0.3037	0.8919	0.2635	0.118
Mof_C 	C 	0.2974	0.9198	0.3127	-0.257
Mof_C 	C 	0.2434	0.8399	0.1998	0.169
Mof_C 	C 	0.1857	0.8129	0.203	-0.211
Mof_C 	C 	0.277	0.9729	0.4271	0.022
Mof_C 	C 	0.1936	0.7875	0.1453	0.127
Mof_C 	C 	0.3093	0.8112	0.0844	0.113
Mof_C 	C 	0.3061	0.8384	0.1392	-0.203
Mof_C 	C 	0.3282	0.0165	0.5233	0.014
Mof_C 	C 	0.3901	0.0676	0.4734	0.265
Mof_C 	C 	0.4462	0.0716	0.538	-0.237
Mof_C 	C 	0.4948	0.1008	0.5479	0.096
Mof_C 	C 	0.4884	0.127	0.4903	-0.113
Mof_C 	C 	0.4321	0.1219	0.4243	0.089
Mof_C 	C 	0.3838	0.0929	0.4161	-0.222
Mof_C 	C 	0.5453	0.1573	0.4983	0.155
Mof_C 	C 	0.6098	0.1599	0.5548	-0.191
Mof_C 	C 	0.6645	0.1881	0.5587	0.107
Mof_C 	C 	0.5906	0.2113	0.4488	0.114
Mof_C 	C 	0.5353	0.1841	0.443	-0.191
Mof_C 	C 	0.2797	0.9246	0.6424	0.277
Mof_C 	C 	0.3475	0.902	0.6495	-0.245
Mof_C 	C 	0.3373	0.8746	0.7013	0.116
Mof_C 	C 	0.2624	0.8685	0.7451	-0.145
Mof_C 	C 	0.1963	0.8919	0.7365	0.118
Mof_C 	C 	0.2026	0.9198	0.6873	-0.253
Mof_C 	C 	0.2566	0.8399	0.8002	0.171
Mof_C 	C 	0.3143	0.8129	0.797	-0.206
Mof_C 	C 	0.223	0.9729	0.5729	0.02
Mof_C 	C 	0.3064	0.7875	0.8547	0.131
Mof_C 	C 	0.1907	0.8112	0.9156	0.121
Mof_C 	C 	0.1939	0.8384	0.8608	-0.196
Mof_C 	C 	0.1718	0.0165	0.4767	0.016
Mof_C 	C 	0.1099	0.0676	0.5266	0.266
Mof_C 	C 	0.0538	0.0716	0.462	-0.238
Mof_C 	C 	0.0052	0.1008	0.4521	0.097
Mof_C 	C 	0.0116	0.127	0.5097	-0.114
Mof_C 	C 	0.0679	0.1219	0.5757	0.091
Mof_C 	C 	0.1162	0.0929	0.5839	-0.223
Mof_C 	C 	0.9547	0.1573	0.5017	0.155
Mof_C 	C 	0.8902	0.1599	0.4452	-0.191
Mof_C 	C 	0.8355	0.1881	0.4413	0.107
Mof_C 	C 	0.9094	0.2113	0.5512	0.115
Mof_C 	C 	0.9647	0.1841	0.557	-0.193
Mof_C 	C 	0.2203	0.5754	0.6424	0.277
Mof_C 	C 	0.1525	0.598	0.6495	-0.245
Mof_C 	C 	0.1627	0.6254	0.7013	0.116
Mof_C 	C 	0.2376	0.6315	0.7451	-0.145
Mof_C 	C 	0.3037	0.6081	0.7365	0.118
Mof_C 	C 	0.2974	0.5802	0.6873	-0.253
Mof_C 	C 	0.2434	0.6601	0.8002	0.171
Mof_C 	C 	0.1857	0.6871	0.797	-0.206
Mof_C 	C 	0.277	0.5271	0.5729	0.02
Mof_C 	C 	0.1936	0.7125	0.8547	0.131
Mof_C 	C 	0.3093	0.6888	0.9156	0.121
Mof_C 	C 	0.3061	0.6616	0.8608	-0.196
Mof_C 	C 	0.3282	0.4835	0.4767	0.015
Mof_C 	C 	0.3901	0.4324	0.5266	0.266
Mof_C 	C 	0.4462	0.4284	0.462	-0.238
Mof_C 	C 	0.4948	0.3992	0.4521	0.096
Mof_C 	C 	0.4884	0.373	0.5097	-0.114
Mof_C 	C 	0.4321	0.3781	0.5757	0.091
Mof_C 	C 	0.3838	0.4071	0.5839	-0.222
Mof_C 	C 	0.5453	0.3427	0.5017	0.155
Mof_C 	C 	0.6098	0.3401	0.4452	-0.191
Mof_C 	C 	0.6645	0.3119	0.4413	0.107
Mof_C 	C 	0.5906	0.2887	0.5512	0.114
Mof_C 	C 	0.5353	0.3159	0.557	-0.191
Mof_C 	C 	0.25	0.5057	0.5	0.011
Mof_C 	C 	0.25	0.9943	0.5	0.011
Mof_N 	N 	0.2474	0.714	0.0869	-0.262
Mof_N 	N 	0.8449	0.2864	0.5054	-0.247
Mof_N 	N 	0.2526	0.786	0.0869	-0.262
Mof_N 	N 	0.6551	0.2136	0.5054	-0.246
Mof_N 	N 	0.2474	0.786	0.9131	-0.247
Mof_N 	N 	0.8449	0.2136	0.4946	-0.247
Mof_N 	N 	0.2526	0.714	0.9131	-0.247
Mof_N 	N 	0.6551	0.2864	0.4946	-0.246
Mof_O 	O 	0.1589	0.4603	0.4573	-0.242
Mof_O 	O 	0.2946	0.549	0.4079	-0.248
Mof_O 	O 	0.3411	0.0397	0.4573	-0.241
Mof_O 	O 	0.2054	0.951	0.4079	-0.248
Mof_O 	O 	0.1589	0.0397	0.5427	-0.24
Mof_O 	O 	0.2946	0.951	0.5921	-0.246
Mof_O 	O 	0.3411	0.4603	0.5427	-0.24
Mof_O 	O 	0.2054	0.549	0.5921	-0.246
Mof_Cu	Cu	0.25	0.75	0.5	0.852
Mof_Cu	Cu	0.75	0.25	-0	0.843
Mof_H 	H 	0.5995	0.4049	0.6196	0.134
Mof_H 	H 	0.6151	0.3595	0.7062	0.004
Mof_H 	H 	0.8567	0.3887	0.7663	-0.006
Mof_H 	H 	0.8445	0.4352	0.6841	0.123
Mof_H 	H 	0.6416	0.3118	0.7561	0.117
Mof_H 	H 	0.7905	0.4872	0.6204	0.044
Mof_H 	H 	0.8303	0.4599	0.5594	0.041
Mof_H 	H 	0.6526	0.2697	0.8513	-0.017
Mof_H 	H 	0.854	0.3109	0.956	-0.008
Mof_H 	H 	0.8477	0.3559	0.866	0.11
Mof_H 	H 	0.8155	0.5285	0.4254	0.046
Mof_H 	H 	0.8819	0.503	0.4687	0.041
Mof_H 	H 	0.9523	0.5543	0.4232	0.116
Mof_H 	H 	0.0325	0.6031	0.4063	-0.003
Mof_H 	H 	0.9267	0.6386	0.616	0.023
Mof_H 	H 	0.8458	0.5903	0.6294	0.132
Mof_H 	H 	0.1185	0.6424	0.4074	0.102
Mof_H 	H 	0.2088	0.6893	0.4006	-0.022
Mof_H 	H 	0.083	0.729	0.5885	-0.011
Mof_H 	H 	0.9909	0.6834	0.5977	0.127
Mof_H 	H 	0.9005	0.0951	0.6196	0.134
Mof_H 	H 	0.8849	0.1405	0.7062	0.004
Mof_H 	H 	0.6433	0.1113	0.7663	-0.006
Mof_H 	H 	0.6555	0.0648	0.6841	0.123
Mof_H 	H 	0.8584	0.1882	0.7561	0.117
Mof_H 	H 	0.7095	0.0128	0.6204	0.044
Mof_H 	H 	0.6697	0.0401	0.5594	0.041
Mof_H 	H 	0.8474	0.2303	0.8513	-0.017
Mof_H 	H 	0.646	0.1891	0.956	-0.008
Mof_H 	H 	0.6523	0.1441	0.866	0.11
Mof_H 	H 	0.6845	0.9715	0.4254	0.046
Mof_H 	H 	0.6181	0.997	0.4687	0.041
Mof_H 	H 	0.5477	0.9457	0.4232	0.116
Mof_H 	H 	0.4675	0.8969	0.4063	-0.003
Mof_H 	H 	0.5733	0.8614	0.616	0.023
Mof_H 	H 	0.6542	0.9097	0.6294	0.132
Mof_H 	H 	0.3815	0.8576	0.4074	0.102
Mof_H 	H 	0.2912	0.8107	0.4006	-0.022
Mof_H 	H 	0.417	0.771	0.5885	-0.011
Mof_H 	H 	0.5091	0.8166	0.5977	0.126
Mof_H 	H 	0.5995	0.0951	0.3804	0.134
Mof_H 	H 	0.6151	0.1405	0.2938	0.002
Mof_H 	H 	0.8567	0.1113	0.2337	-0.012
Mof_H 	H 	0.8445	0.0648	0.3159	0.12
Mof_H 	H 	0.6416	0.1882	0.2439	0.117
Mof_H 	H 	0.7905	0.0128	0.3796	0.04
Mof_H 	H 	0.8303	0.0401	0.4406	0.04
Mof_H 	H 	0.6526	0.2303	0.1487	-0.024
Mof_H 	H 	0.854	0.1891	0.044	-0.029
Mof_H 	H 	0.8477	0.1441	0.134	0.102
Mof_H 	H 	0.8155	0.9715	0.5746	0.049
Mof_H 	H 	0.8819	0.997	0.5313	0.042
Mof_H 	H 	0.9523	0.9457	0.5768	0.118
Mof_H 	H 	0.0325	0.8969	0.5937	-0.002
Mof_H 	H 	0.9267	0.8614	0.384	0.022
Mof_H 	H 	0.8458	0.9097	0.3706	0.128
Mof_H 	H 	0.1185	0.8576	0.5926	0.103
Mof_H 	H 	0.2088	0.8107	0.5994	-0.022
Mof_H 	H 	0.083	0.771	0.4115	-0.012
Mof_H 	H 	0.9909	0.8166	0.4023	0.127
Mof_H 	H 	0.9005	0.4049	0.3804	0.133
Mof_H 	H 	0.8849	0.3595	0.2938	0.002
Mof_H 	H 	0.6433	0.3887	0.2337	-0.012
Mof_H 	H 	0.6555	0.4352	0.3159	0.12
Mof_H 	H 	0.8584	0.3118	0.2439	0.117
Mof_H 	H 	0.7095	0.4872	0.3796	0.04
Mof_H 	H 	0.6697	0.4599	0.4406	0.04
Mof_H 	H 	0.8474	0.2697	0.1487	-0.024
Mof_H 	H 	0.646	0.3109	0.044	-0.029
Mof_H 	H 	0.6523	0.3559	0.134	0.102
Mof_H 	H 	0.6845	0.5285	0.5746	0.049
Mof_H 	H 	0.6181	0.503	0.5313	0.042
Mof_H 	H 	0.5477	0.5543	0.5768	0.118
Mof_H 	H 	0.4675	0.6031	0.5937	-0.001
Mof_H 	H 	0.5733	0.6386	0.384	0.022
Mof_H 	H 	0.6542	0.5903	0.3706	0.128
Mof_H 	H 	0.3815	0.6424	0.5926	0.103
Mof_H 	H 	0.2912	0.6893	0.5994	-0.021
Mof_H 	H 	0.417	0.729	0.4115	-0.011
Mof_H 	H 	0.5091	0.6834	0.4023	0.126
Mof_C 	C 	0.7203	0.4246	0.6424	0.277
Mof_C 	C 	0.6525	0.402	0.6495	-0.245
Mof_C 	C 	0.6627	0.3746	0.7013	0.116
Mof_C 	C 	0.7376	0.3685	0.7451	-0.145
Mof_C 	C 	0.8037	0.3919	0.7365	0.118
Mof_C 	C 	0.7974	0.4198	0.6873	-0.253
Mof_C 	C 	0.7434	0.3399	0.8002	0.171
Mof_C 	C 	0.6857	0.3129	0.797	-0.206
Mof_C 	C 	0.777	0.4729	0.5729	0.02
Mof_C 	C 	0.6936	0.2875	0.8547	0.131
Mof_C 	C 	0.8093	0.3112	0.9156	0.121
Mof_C 	C 	0.8061	0.3384	0.8608	-0.196
Mof_C 	C 	0.8282	0.5165	0.4767	0.016
Mof_C 	C 	0.8901	0.5676	0.5266	0.266
Mof_C 	C 	0.9462	0.5716	0.462	-0.238
Mof_C 	C 	0.9948	0.6008	0.4521	0.097
Mof_C 	C 	0.9884	0.627	0.5097	-0.114
Mof_C 	C 	0.9321	0.6219	0.5757	0.091
Mof_C 	C 	0.8838	0.5929	0.5839	-0.223
Mof_C 	C 	0.0453	0.6573	0.5017	0.155
Mof_C 	C 	0.1098	0.6599	0.4452	-0.191
Mof_C 	C 	0.1645	0.6881	0.4413	0.107
Mof_C 	C 	0.0906	0.7113	0.5512	0.115
Mof_C 	C 	0.0353	0.6841	0.557	-0.193
Mof_C 	C 	0.7797	0.0754	0.6424	0.277
Mof_C 	C 	0.8475	0.098	0.6495	-0.245
Mof_C 	C 	0.8373	0.1254	0.7013	0.116
Mof_C 	C 	0.7624	0.1315	0.7451	-0.145
Mof_C 	C 	0.6963	0.1081	0.7365	0.118
Mof_C 	C 	0.7026	0.0802	0.6873	-0.253
Mof_C 	C 	0.7566	0.1601	0.8002	0.171
Mof_C 	C 	0.8143	0.1871	0.797	-0.206
Mof_C 	C 	0.723	0.0271	0.5729	0.02
Mof_C 	C 	0.8064	0.2125	0.8547	0.131
Mof_C 	C 	0.6907	0.1888	0.9156	0.121
Mof_C 	C 	0.6939	0.1616	0.8608	-0.196
Mof_C 	C 	0.6718	0.9835	0.4767	0.016
Mof_C 	C 	0.6099	0.9324	0.5266	0.266
Mof_C 	C 	0.5538	0.9284	0.462	-0.238
Mof_C 	C 	0.5052	0.8992	0.4521	0.096
Mof_C 	C 	0.5116	0.873	0.5097	-0.114
Mof_C 	C 	0.5679	0.8781	0.5757	0.091
Mof_C 	C 	0.6162	0.9071	0.5839	-0.222
Mof_C 	C 	0.4547	0.8427	0.5017	0.155
Mof_C 	C 	0.3902	0.8401	0.4452	-0.191
Mof_C 	C 	0.3355	0.8119	0.4413	0.107
Mof_C 	C 	0.4094	0.7887	0.5512	0.114
Mof_C 	C 	0.4647	0.8159	0.557	-0.191
Mof_C 	C 	0.7203	0.0754	0.3576	0.277
Mof_C 	C 	0.6525	0.098	0.3505	-0.248
Mof_C 	C 	0.6627	0.1254	0.2987	0.116
Mof_C 	C 	0.7376	0.1315	0.2549	-0.149
Mof_C 	C 	0.8037	0.1081	0.2635	0.118
Mof_C 	C 	0.7974	0.0802	0.3127	-0.257
Mof_C 	C 	0.7434	0.1601	0.1998	0.169
Mof_C 	C 	0.6857	0.1871	0.203	-0.211
Mof_C 	C 	0.777	0.0271	0.4271	0.022
Mof_C 	C 	0.6936	0.2125	0.1453	0.127
Mof_C 	C 	0.8093	0.1888	0.0844	0.113
Mof_C 	C 	0.8061	0.1616	0.1392	-0.203
Mof_C 	C 	0.8282	0.9835	0.5233	0.014
Mof_C 	C 	0.8901	0.9324	0.4734	0.265
Mof_C 	C 	0.9462	0.9284	0.538	-0.238
Mof_C 	C 	0.9948	0.8992	0.5479	0.097
Mof_C 	C 	0.9884	0.873	0.4903	-0.113
Mof_C 	C 	0.9321	0.8781	0.4243	0.089
Mof_C 	C 	0.8838	0.9071	0.4161	-0.222
Mof_C 	C 	0.0453	0.8427	0.4983	0.155
Mof_C 	C 	0.1098	0.8401	0.5548	-0.191
Mof_C 	C 	0.1645	0.8119	0.5587	0.107
Mof_C 	C 	0.0906	0.7887	0.4488	0.115
Mof_C 	C 	0.0353	0.8159	0.443	-0.193
Mof_C 	C 	0.7797	0.4246	0.3576	0.277
Mof_C 	C 	0.8475	0.402	0.3505	-0.248
Mof_C 	C 	0.8373	0.3746	0.2987	0.116
Mof_C 	C 	0.7624	0.3685	0.2549	-0.149
Mof_C 	C 	0.6963	0.3919	0.2635	0.118
Mof_C 	C 	0.7026	0.4198	0.3127	-0.257
Mof_C 	C 	0.7566	0.3399	0.1998	0.169
Mof_C 	C 	0.8143	0.3129	0.203	-0.211
Mof_C 	C 	0.723	0.4729	0.4271	0.022
Mof_C 	C 	0.8064	0.2875	0.1453	0.127
Mof_C 	C 	0.6907	0.3112	0.0844	0.113
Mof_C 	C 	0.6939	0.3384	0.1392	-0.203
Mof_C 	C 	0.6718	0.5165	0.5233	0.014
Mof_C 	C 	0.6099	0.5676	0.4734	0.265
Mof_C 	C 	0.5538	0.5716	0.538	-0.237
Mof_C 	C 	0.5052	0.6008	0.5479	0.096
Mof_C 	C 	0.5116	0.627	0.4903	-0.113
Mof_C 	C 	0.5679	0.6219	0.4243	0.089
Mof_C 	C 	0.6162	0.5929	0.4161	-0.222
Mof_C 	C 	0.4547	0.6573	0.4983	0.155
Mof_C 	C 	0.3902	0.6599	0.5548	-0.191
Mof_C 	C 	0.3355	0.6881	0.5587	0.107
Mof_C 	C 	0.4094	0.7113	0.4488	0.114
Mof_C 	C 	0.4647	0.6841	0.443	-0.191
Mof_C 	C 	0.75	0.4943	0.5	0.011
Mof_C 	C 	0.75	0.0057	0.5	0.011
Mof_N 	N 	0.7526	0.286	0.9131	-0.247
Mof_N 	N 	0.1551	0.7136	0.4946	-0.247
Mof_N 	N 	0.7474	0.214	0.9131	-0.247
Mof_N 	N 	0.3449	0.7864	0.4946	-0.246
Mof_N 	N 	0.7526	0.214	0.0869	-0.262
Mof_N 	N 	0.1551	0.7864	0.5054	-0.247
Mof_N 	N 	0.7474	0.286	0.0869	-0.262
Mof_N 	N 	0.3449	0.7136	0.5054	-0.246
Mof_O 	O 	0.8411	0.5397	0.5427	-0.24
Mof_O 	O 	0.7054	0.451	0.5921	-0.246
Mof_O 	O 	0.6589	0.9603	0.5427	-0.24
Mof_O 	O 	0.7946	0.049	0.5921	-0.246
Mof_O 	O 	0.8411	0.9603	0.4573	-0.242
Mof_O 	O 	0.7054	0.049	0.4079	-0.248
Mof_O 	O 	0.6589	0.5397	0.4573	-0.241
Mof_O 	O 	0.7946	0.451	0.4079	-0.248
Mof_N 	N 	0.0833	0.3046	0.268	0.04
Mof_O 	O 	0.038	0.2777	0.26	-0.116
Mof_O 	O 	0.157	0.3042	0.307	-0.1
Mof_O 	O 	0.055	0.3319	0.237	-0.122
Mof_N 	N 	0.4167	0.1954	0.268	0.04
Mof_O 	O 	0.462	0.2223	0.26	-0.116
Mof_O 	O 	0.343	0.1958	0.307	-0.1
Mof_O 	O 	0.445	0.1681	0.237	-0.123
Mof_N 	N 	0.0833	0.1954	0.732	0.04
Mof_O 	O 	0.038	0.2223	0.74	-0.108
Mof_O 	O 	0.157	0.1958	0.693	-0.094
Mof_O 	O 	0.055	0.1681	0.763	-0.111
Mof_N 	N 	0.4167	0.3046	0.732	0.04
Mof_O 	O 	0.462	0.2777	0.74	-0.108
Mof_O 	O 	0.343	0.3042	0.693	-0.094
Mof_O 	O 	0.445	0.3319	0.763	-0.111
Mof_N 	N 	0.9167	0.6954	0.732	0.04
Mof_O 	O 	0.962	0.7223	0.74	-0.108
Mof_O 	O 	0.843	0.6958	0.693	-0.094
Mof_O 	O 	0.945	0.6681	0.763	-0.111
Mof_N 	N 	0.5833	0.8046	0.732	0.04
Mof_O 	O 	0.538	0.7777	0.74	-0.108
Mof_O 	O 	0.657	0.8042	0.693	-0.094
Mof_O 	O 	0.555	0.8319	0.763	-0.111
Mof_N 	N 	0.9167	0.8046	0.268	0.04
Mof_O 	O 	0.962	0.7777	0.26	-0.116
Mof_O 	O 	0.843	0.8042	0.307	-0.1
Mof_O 	O 	0.945	0.8319	0.237	-0.122
Mof_N 	N 	0.5833	0.6954	0.268	0.04
Mof_O 	O 	0.538	0.7223	0.26	-0.116
Mof_O 	O 	0.657	0.6958	0.307	-0.1
Mof_O 	O 	0.555	0.6681	0.237	-0.123
_end
