data_functionalizedCrystal
_audit_creation_method	'EQeq! by Chris Wilmer'
_symmetry_space_group_name_H-M	'P1'
_symmetry_Int_Tables_number	1
_symmetry_cell_setting	triclinic
loop_
_symmetry_equiv_pos_as_xyz
  x,y,z
_cell_length_a	24.9919
_cell_length_b	24.9919
_cell_length_c	24.7688
_cell_angle_alpha	90
_cell_angle_beta	90
_cell_angle_gamma	120
loop_
_atom_site_label
_atom_site_type_symbol
_atom_site_fract_x
_atom_site_fract_y
_atom_site_fract_z
_atom_site_charge
Mof_Zr	Zr	0.38893	0.46909	0.47478	3.195
Mof_O 	O 	0.4304	0.4438	0.542	-1.236
Mof_O 	O 	0.3316	0.4635	0.5386	-0.839
Mof_O 	O 	0.3933	0.5044	0.6082	-0.686
Mof_C 	C 	0.3382	0.4824	0.5889	0.497
Mof_C 	C 	0.2907	0.4943	0.6184	-0.057
Mof_C 	C 	0.2926	0.5235	0.6693	0.015
Mof_O 	O 	0.3691	0.4383	0.39095	-0.8
Mof_O 	O 	0.4474	0.4487	0.3511	-0.697
Mof_C 	C 	0.393	0.439	0.3449	0.543
Mof_C 	C 	0.3496	0.4186	0.2966	-0.094
Mof_C 	C 	0.2913	0.4116	0.2791	-0.034
Mof_Zr	Zr	0.53091	0.91984	0.47478	3.195
Mof_O 	O 	0.5562	0.9866	0.542	-1.236
Mof_O 	O 	0.5365	0.8681	0.5386	-0.839
Mof_O 	O 	0.4956	0.8889	0.6082	-0.686
Mof_C 	C 	0.5176	0.8558	0.5889	0.496
Mof_C 	C 	0.5057	0.7964	0.6184	-0.058
Mof_C 	C 	0.4765	0.7691	0.6693	0.014
Mof_O 	O 	0.5617	0.9308	0.39095	-0.801
Mof_O 	O 	0.5513	0.9987	0.3511	-0.699
Mof_C 	C 	0.561	0.954	0.3449	0.542
Mof_C 	C 	0.5814	0.931	0.2966	-0.096
Mof_C 	C 	0.5884	0.8797	0.2791	-0.035
Mof_Zr	Zr	0.08016	0.61107	0.47478	3.194
Mof_O 	O 	0.0134	0.5696	0.542	-1.237
Mof_O 	O 	0.1319	0.6684	0.5386	-0.84
Mof_O 	O 	0.1111	0.6067	0.6082	-0.687
Mof_C 	C 	0.1442	0.6618	0.5889	0.496
Mof_C 	C 	0.2036	0.7093	0.6184	-0.058
Mof_C 	C 	0.2309	0.7074	0.6693	0.014
Mof_O 	O 	0.0692	0.6309	0.39095	-0.802
Mof_O 	O 	0.0013	0.5526	0.3511	-0.699
Mof_C 	C 	0.046	0.607	0.3449	0.542
Mof_C 	C 	0.069	0.6504	0.2966	-0.096
Mof_C 	C 	0.1203	0.7087	0.2791	-0.035
Mof_Zr	Zr	0.61107	0.53091	0.97478	3.194
Mof_O 	O 	0.5696	0.5562	0.042	-1.237
Mof_O 	O 	0.6684	0.5365	0.0386	-0.839
Mof_O 	O 	0.6067	0.4956	0.1082	-0.687
Mof_C 	C 	0.6618	0.5176	0.0889	0.496
Mof_C 	C 	0.7093	0.5057	0.1184	-0.058
Mof_C 	C 	0.7074	0.4765	0.1693	0.014
Mof_O 	O 	0.6309	0.5617	0.89095	-0.801
Mof_O 	O 	0.5526	0.5513	0.8511	-0.698
Mof_C 	C 	0.607	0.561	0.8449	0.542
Mof_C 	C 	0.6504	0.5814	0.7966	-0.095
Mof_C 	C 	0.7087	0.5884	0.7791	-0.035
Mof_Zr	Zr	0.46909	0.08016	0.97478	3.193
Mof_O 	O 	0.4438	0.0134	0.042	-1.234
Mof_O 	O 	0.4635	0.1319	0.0386	-0.838
Mof_O 	O 	0.5044	0.1111	0.1082	-0.686
Mof_C 	C 	0.4824	0.1442	0.0889	0.496
Mof_C 	C 	0.4943	0.2036	0.1184	-0.057
Mof_C 	C 	0.5235	0.2309	0.1693	0.014
Mof_O 	O 	0.4383	0.0692	0.89095	-0.803
Mof_O 	O 	0.4487	0.0013	0.8511	-0.701
Mof_C 	C 	0.439	0.046	0.8449	0.542
Mof_C 	C 	0.4186	0.069	0.7966	-0.096
Mof_C 	C 	0.4116	0.1203	0.7791	-0.035
Mof_Zr	Zr	0.91984	0.38893	0.97478	3.193
Mof_O 	O 	0.9866	0.4304	0.042	-1.233
Mof_O 	O 	0.8681	0.3316	0.0386	-0.837
Mof_O 	O 	0.8889	0.3933	0.1082	-0.686
Mof_C 	C 	0.8558	0.3382	0.0889	0.496
Mof_C 	C 	0.7964	0.2907	0.1184	-0.057
Mof_C 	C 	0.7691	0.2926	0.1693	0.015
Mof_O 	O 	0.9308	0.3691	0.89095	-0.804
Mof_O 	O 	0.9987	0.4474	0.8511	-0.701
Mof_C 	C 	0.954	0.393	0.8449	0.542
Mof_C 	C 	0.931	0.3496	0.7966	-0.096
Mof_C 	C 	0.8797	0.2913	0.7791	-0.035
Mof_Zr	Zr	0.46909	0.38893	0.52522	3.194
Mof_O 	O 	0.4438	0.4304	0.458	-1.237
Mof_O 	O 	0.4635	0.3316	0.4614	-0.84
Mof_O 	O 	0.5044	0.3933	0.3918	-0.687
Mof_C 	C 	0.4824	0.3382	0.4111	0.496
Mof_C 	C 	0.4943	0.2907	0.3816	-0.058
Mof_C 	C 	0.5235	0.2926	0.3307	0.014
Mof_O 	O 	0.4383	0.3691	0.60905	-0.801
Mof_O 	O 	0.4487	0.4474	0.6489	-0.698
Mof_C 	C 	0.439	0.393	0.6551	0.542
Mof_C 	C 	0.4186	0.3496	0.7034	-0.095
Mof_C 	C 	0.4116	0.2913	0.7209	-0.035
Mof_Zr	Zr	0.91984	0.53091	0.52522	3.194
Mof_O 	O 	0.9866	0.5562	0.458	-1.237
Mof_O 	O 	0.8681	0.5365	0.4614	-0.84
Mof_O 	O 	0.8889	0.4956	0.3918	-0.687
Mof_C 	C 	0.8558	0.5176	0.4111	0.496
Mof_C 	C 	0.7964	0.5057	0.3816	-0.058
Mof_C 	C 	0.7691	0.4765	0.3307	0.014
Mof_O 	O 	0.9308	0.5617	0.60905	-0.801
Mof_O 	O 	0.9987	0.5513	0.6489	-0.699
Mof_C 	C 	0.954	0.561	0.6551	0.542
Mof_C 	C 	0.931	0.5814	0.7034	-0.096
Mof_C 	C 	0.8797	0.5884	0.7209	-0.035
Mof_Zr	Zr	0.61107	0.08016	0.52522	3.194
Mof_O 	O 	0.5696	0.0134	0.458	-1.237
Mof_O 	O 	0.6684	0.1319	0.4614	-0.84
Mof_O 	O 	0.6067	0.1111	0.3918	-0.687
Mof_C 	C 	0.6618	0.1442	0.4111	0.496
Mof_C 	C 	0.7093	0.2036	0.3816	-0.058
Mof_C 	C 	0.7074	0.2309	0.3307	0.014
Mof_O 	O 	0.6309	0.0692	0.60905	-0.802
Mof_O 	O 	0.5526	0.0013	0.6489	-0.699
Mof_C 	C 	0.607	0.046	0.6551	0.542
Mof_C 	C 	0.6504	0.069	0.7034	-0.096
Mof_C 	C 	0.7087	0.1203	0.7209	-0.035
Mof_Zr	Zr	0.53091	0.61107	0.02522	3.194
Mof_O 	O 	0.5562	0.5696	0.958	-1.237
Mof_O 	O 	0.5365	0.6684	0.9614	-0.839
Mof_O 	O 	0.4956	0.6067	0.8918	-0.687
Mof_C 	C 	0.5176	0.6618	0.9111	0.496
Mof_C 	C 	0.5057	0.7093	0.8816	-0.058
Mof_C 	C 	0.4765	0.7074	0.8307	0.014
Mof_O 	O 	0.5617	0.6309	0.10905	-0.801
Mof_O 	O 	0.5513	0.5526	0.1489	-0.698
Mof_C 	C 	0.561	0.607	0.1551	0.542
Mof_C 	C 	0.5814	0.6504	0.2034	-0.095
Mof_C 	C 	0.5884	0.7087	0.2209	-0.035
Mof_Zr	Zr	0.08016	0.46909	0.02522	3.193
Mof_O 	O 	0.0134	0.4438	0.958	-1.234
Mof_O 	O 	0.1319	0.4635	0.9614	-0.838
Mof_O 	O 	0.1111	0.5044	0.8918	-0.686
Mof_C 	C 	0.1442	0.4824	0.9111	0.496
Mof_C 	C 	0.2036	0.4943	0.8816	-0.057
Mof_C 	C 	0.2309	0.5235	0.8307	0.014
Mof_O 	O 	0.0692	0.4383	0.10905	-0.803
Mof_O 	O 	0.0013	0.4487	0.1489	-0.701
Mof_C 	C 	0.046	0.439	0.1551	0.542
Mof_C 	C 	0.069	0.4186	0.2034	-0.096
Mof_C 	C 	0.1203	0.4116	0.2209	-0.035
Mof_Zr	Zr	0.38893	0.91984	0.02522	3.193
Mof_O 	O 	0.4304	0.9866	0.958	-1.233
Mof_O 	O 	0.3316	0.8681	0.9614	-0.837
Mof_O 	O 	0.3933	0.8889	0.8918	-0.686
Mof_C 	C 	0.3382	0.8558	0.9111	0.496
Mof_C 	C 	0.2907	0.7964	0.8816	-0.057
Mof_C 	C 	0.2926	0.7691	0.8307	0.015
Mof_O 	O 	0.3691	0.9308	0.10905	-0.804
Mof_O 	O 	0.4474	0.9987	0.1489	-0.701
Mof_C 	C 	0.393	0.954	0.1551	0.542
Mof_C 	C 	0.3496	0.931	0.2034	-0.096
Mof_C 	C 	0.2913	0.8797	0.2209	-0.035
Mof_Zr	Zr	0.61107	0.53091	0.52522	3.194
Mof_O 	O 	0.5696	0.5562	0.458	-1.237
Mof_O 	O 	0.6684	0.5365	0.4614	-0.84
Mof_O 	O 	0.6067	0.4956	0.3918	-0.687
Mof_C 	C 	0.6618	0.5176	0.4111	0.496
Mof_C 	C 	0.7093	0.5057	0.3816	-0.058
Mof_C 	C 	0.7074	0.4765	0.3307	0.014
Mof_O 	O 	0.6309	0.5617	0.60905	-0.801
Mof_O 	O 	0.5526	0.5513	0.6489	-0.698
Mof_C 	C 	0.607	0.561	0.6551	0.542
Mof_C 	C 	0.6504	0.5814	0.7034	-0.095
Mof_C 	C 	0.7087	0.5884	0.7209	-0.035
Mof_Zr	Zr	0.46909	0.08016	0.52522	3.194
Mof_O 	O 	0.4438	0.0134	0.458	-1.237
Mof_O 	O 	0.4635	0.1319	0.4614	-0.84
Mof_O 	O 	0.5044	0.1111	0.3918	-0.687
Mof_C 	C 	0.4824	0.1442	0.4111	0.496
Mof_C 	C 	0.4943	0.2036	0.3816	-0.058
Mof_C 	C 	0.5235	0.2309	0.3307	0.014
Mof_O 	O 	0.4383	0.0692	0.60905	-0.801
Mof_O 	O 	0.4487	0.0013	0.6489	-0.699
Mof_C 	C 	0.439	0.046	0.6551	0.542
Mof_C 	C 	0.4186	0.069	0.7034	-0.096
Mof_C 	C 	0.4116	0.1203	0.7209	-0.035
Mof_Zr	Zr	0.91984	0.38893	0.52522	3.194
Mof_O 	O 	0.9866	0.4304	0.458	-1.237
Mof_O 	O 	0.8681	0.3316	0.4614	-0.84
Mof_O 	O 	0.8889	0.3933	0.3918	-0.687
Mof_C 	C 	0.8558	0.3382	0.4111	0.496
Mof_C 	C 	0.7964	0.2907	0.3816	-0.058
Mof_C 	C 	0.7691	0.2926	0.3307	0.014
Mof_O 	O 	0.9308	0.3691	0.60905	-0.802
Mof_O 	O 	0.9987	0.4474	0.6489	-0.699
Mof_C 	C 	0.954	0.393	0.6551	0.542
Mof_C 	C 	0.931	0.3496	0.7034	-0.096
Mof_C 	C 	0.8797	0.2913	0.7209	-0.035
Mof_Zr	Zr	0.38893	0.46909	0.02522	3.194
Mof_O 	O 	0.4304	0.4438	0.958	-1.237
Mof_O 	O 	0.3316	0.4635	0.9614	-0.839
Mof_O 	O 	0.3933	0.5044	0.8918	-0.687
Mof_C 	C 	0.3382	0.4824	0.9111	0.496
Mof_C 	C 	0.2907	0.4943	0.8816	-0.058
Mof_C 	C 	0.2926	0.5235	0.8307	0.014
Mof_O 	O 	0.3691	0.4383	0.10905	-0.801
Mof_O 	O 	0.4474	0.4487	0.1489	-0.698
Mof_C 	C 	0.393	0.439	0.1551	0.542
Mof_C 	C 	0.3496	0.4186	0.2034	-0.095
Mof_C 	C 	0.2913	0.4116	0.2209	-0.035
Mof_Zr	Zr	0.53091	0.91984	0.02522	3.193
Mof_O 	O 	0.5562	0.9866	0.958	-1.234
Mof_O 	O 	0.5365	0.8681	0.9614	-0.838
Mof_O 	O 	0.4956	0.8889	0.8918	-0.686
Mof_C 	C 	0.5176	0.8558	0.9111	0.496
Mof_C 	C 	0.5057	0.7964	0.8816	-0.057
Mof_C 	C 	0.4765	0.7691	0.8307	0.014
Mof_O 	O 	0.5617	0.9308	0.10905	-0.803
Mof_O 	O 	0.5513	0.9987	0.1489	-0.701
Mof_C 	C 	0.561	0.954	0.1551	0.542
Mof_C 	C 	0.5814	0.931	0.2034	-0.096
Mof_C 	C 	0.5884	0.8797	0.2209	-0.035
Mof_Zr	Zr	0.08016	0.61107	0.02522	3.193
Mof_O 	O 	0.0134	0.5696	0.958	-1.233
Mof_O 	O 	0.1319	0.6684	0.9614	-0.837
Mof_O 	O 	0.1111	0.6067	0.8918	-0.686
Mof_C 	C 	0.1442	0.6618	0.9111	0.496
Mof_C 	C 	0.2036	0.7093	0.8816	-0.057
Mof_C 	C 	0.2309	0.7074	0.8307	0.015
Mof_O 	O 	0.0692	0.6309	0.10905	-0.804
Mof_O 	O 	0.0013	0.5526	0.1489	-0.701
Mof_C 	C 	0.046	0.607	0.1551	0.542
Mof_C 	C 	0.069	0.6504	0.2034	-0.096
Mof_C 	C 	0.1203	0.7087	0.2209	-0.035
Mof_Zr	Zr	0.53091	0.61107	0.47478	3.194
Mof_O 	O 	0.5562	0.5696	0.542	-1.237
Mof_O 	O 	0.5365	0.6684	0.5386	-0.84
Mof_O 	O 	0.4956	0.6067	0.6082	-0.687
Mof_C 	C 	0.5176	0.6618	0.5889	0.496
Mof_C 	C 	0.5057	0.7093	0.6184	-0.058
Mof_C 	C 	0.4765	0.7074	0.6693	0.014
Mof_O 	O 	0.5617	0.6309	0.39095	-0.801
Mof_O 	O 	0.5513	0.5526	0.3511	-0.698
Mof_C 	C 	0.561	0.607	0.3449	0.542
Mof_C 	C 	0.5814	0.6504	0.2966	-0.095
Mof_C 	C 	0.5884	0.7087	0.2791	-0.035
Mof_Zr	Zr	0.08016	0.46909	0.47478	3.194
Mof_O 	O 	0.0134	0.4438	0.542	-1.237
Mof_O 	O 	0.1319	0.4635	0.5386	-0.84
Mof_O 	O 	0.1111	0.5044	0.6082	-0.687
Mof_C 	C 	0.1442	0.4824	0.5889	0.496
Mof_C 	C 	0.2036	0.4943	0.6184	-0.058
Mof_C 	C 	0.2309	0.5235	0.6693	0.014
Mof_O 	O 	0.0692	0.4383	0.39095	-0.801
Mof_O 	O 	0.0013	0.4487	0.3511	-0.699
Mof_C 	C 	0.046	0.439	0.3449	0.542
Mof_C 	C 	0.069	0.4186	0.2966	-0.096
Mof_C 	C 	0.1203	0.4116	0.2791	-0.035
Mof_Zr	Zr	0.38893	0.91984	0.47478	3.194
Mof_O 	O 	0.4304	0.9866	0.542	-1.237
Mof_O 	O 	0.3316	0.8681	0.5386	-0.84
Mof_O 	O 	0.3933	0.8889	0.6082	-0.687
Mof_C 	C 	0.3382	0.8558	0.5889	0.496
Mof_C 	C 	0.2907	0.7964	0.6184	-0.058
Mof_C 	C 	0.2926	0.7691	0.6693	0.014
Mof_O 	O 	0.3691	0.9308	0.39095	-0.802
Mof_O 	O 	0.4474	0.9987	0.3511	-0.699
Mof_C 	C 	0.393	0.954	0.3449	0.542
Mof_C 	C 	0.3496	0.931	0.2966	-0.096
Mof_C 	C 	0.2913	0.8797	0.2791	-0.035
Mof_Zr	Zr	0.46909	0.38893	0.97478	3.194
Mof_O 	O 	0.4438	0.4304	0.042	-1.237
Mof_O 	O 	0.4635	0.3316	0.0386	-0.839
Mof_O 	O 	0.5044	0.3933	0.1082	-0.687
Mof_C 	C 	0.4824	0.3382	0.0889	0.496
Mof_C 	C 	0.4943	0.2907	0.1184	-0.058
Mof_C 	C 	0.5235	0.2926	0.1693	0.014
Mof_O 	O 	0.4383	0.3691	0.89095	-0.801
Mof_O 	O 	0.4487	0.4474	0.8511	-0.698
Mof_C 	C 	0.439	0.393	0.8449	0.542
Mof_C 	C 	0.4186	0.3496	0.7966	-0.095
Mof_C 	C 	0.4116	0.2913	0.7791	-0.035
Mof_Zr	Zr	0.91984	0.53091	0.97478	3.193
Mof_O 	O 	0.9866	0.5562	0.042	-1.234
Mof_O 	O 	0.8681	0.5365	0.0386	-0.838
Mof_O 	O 	0.8889	0.4956	0.1082	-0.686
Mof_C 	C 	0.8558	0.5176	0.0889	0.496
Mof_C 	C 	0.7964	0.5057	0.1184	-0.057
Mof_C 	C 	0.7691	0.4765	0.1693	0.014
Mof_O 	O 	0.9308	0.5617	0.89095	-0.803
Mof_O 	O 	0.9987	0.5513	0.8511	-0.701
Mof_C 	C 	0.954	0.561	0.8449	0.542
Mof_C 	C 	0.931	0.5814	0.7966	-0.096
Mof_C 	C 	0.8797	0.5884	0.7791	-0.035
Mof_Zr	Zr	0.61107	0.08016	0.97478	3.193
Mof_O 	O 	0.5696	0.0134	0.042	-1.233
Mof_O 	O 	0.6684	0.1319	0.0386	-0.837
Mof_O 	O 	0.6067	0.1111	0.1082	-0.686
Mof_C 	C 	0.6618	0.1442	0.0889	0.496
Mof_C 	C 	0.7093	0.2036	0.1184	-0.057
Mof_C 	C 	0.7074	0.2309	0.1693	0.015
Mof_O 	O 	0.6309	0.0692	0.89095	-0.804
Mof_O 	O 	0.5526	0.0013	0.8511	-0.701
Mof_C 	C 	0.607	0.046	0.8449	0.542
Mof_C 	C 	0.6504	0.069	0.7966	-0.096
Mof_C 	C 	0.7087	0.1203	0.7791	-0.035
Mof_Zr	Zr	0.48144	0.51856	0.59274	3.24
Mof_O 	O 	0.4697	0.5303	0.4342	-1.245
Mof_O 	O 	0.4552	0.5448	0.5176	-1.273
Mof_Zr	Zr	0.48144	0.96289	0.59274	3.241
Mof_O 	O 	0.4697	0.9394	0.4342	-1.245
Mof_O 	O 	0.4552	0.9104	0.5176	-1.273
Mof_Zr	Zr	0.03711	0.51856	0.59274	3.241
Mof_O 	O 	0.0606	0.5303	0.4342	-1.245
Mof_O 	O 	0.0896	0.5448	0.5176	-1.273
Mof_Zr	Zr	0.51856	0.48144	0.09274	3.24
Mof_O 	O 	0.5303	0.4697	0.9342	-1.245
Mof_O 	O 	0.5448	0.4552	0.0176	-1.271
Mof_Zr	Zr	0.51856	0.03711	0.09274	3.241
Mof_O 	O 	0.5303	0.0606	0.9342	-1.249
Mof_O 	O 	0.5448	0.0896	0.0176	-1.269
Mof_Zr	Zr	0.96289	0.48144	0.09274	3.241
Mof_O 	O 	0.9394	0.4697	0.9342	-1.249
Mof_O 	O 	0.9104	0.4552	0.0176	-1.269
Mof_Zr	Zr	0.51856	0.48144	0.40726	3.24
Mof_O 	O 	0.5303	0.4697	0.5658	-1.245
Mof_O 	O 	0.5448	0.4552	0.4824	-1.273
Mof_Zr	Zr	0.96289	0.48144	0.40726	3.241
Mof_O 	O 	0.9394	0.4697	0.5658	-1.245
Mof_O 	O 	0.9104	0.4552	0.4824	-1.273
Mof_Zr	Zr	0.51856	0.03711	0.40726	3.241
Mof_O 	O 	0.5303	0.0606	0.5658	-1.245
Mof_O 	O 	0.5448	0.0896	0.4824	-1.273
Mof_Zr	Zr	0.48144	0.51856	0.90726	3.24
Mof_O 	O 	0.4697	0.5303	0.0658	-1.245
Mof_O 	O 	0.4552	0.5448	0.9824	-1.271
Mof_Zr	Zr	0.03711	0.51856	0.90726	3.241
Mof_O 	O 	0.0606	0.5303	0.0658	-1.249
Mof_O 	O 	0.0896	0.5448	0.9824	-1.269
Mof_Zr	Zr	0.48144	0.96289	0.90726	3.241
Mof_O 	O 	0.4697	0.9394	0.0658	-1.249
Mof_O 	O 	0.4552	0.9104	0.9824	-1.269
Mof_O 	O 	0.23965	0.4793	0.5853	-0.188
Mof_O 	O 	0.5207	0.76035	0.5853	-0.188
Mof_O 	O 	0.23965	0.76035	0.5853	-0.189
Mof_O 	O 	0.76035	0.5207	0.0853	-0.188
Mof_O 	O 	0.4793	0.23965	0.0853	-0.188
Mof_O 	O 	0.76035	0.23965	0.0853	-0.187
Mof_O 	O 	0.4793	0.23965	0.4147	-0.188
Mof_O 	O 	0.76035	0.5207	0.4147	-0.188
Mof_O 	O 	0.76035	0.23965	0.4147	-0.189
Mof_O 	O 	0.5207	0.76035	0.9147	-0.188
Mof_O 	O 	0.23965	0.4793	0.9147	-0.188
Mof_O 	O 	0.23965	0.76035	0.9147	-0.187
Mof_O 	O 	0.376	0.4105	0.25	-0.125
Mof_O 	O 	0.5895	0.9655	0.25	-0.126
Mof_O 	O 	0.0345	0.624	0.25	-0.126
Mof_O 	O 	0.624	0.5895	0.75	-0.125
Mof_O 	O 	0.4105	0.0345	0.75	-0.126
Mof_O 	O 	0.9655	0.376	0.75	-0.126
Mof_O 	O 	0.4105	0.376	0.75	-0.125
Mof_O 	O 	0.9655	0.5895	0.75	-0.126
Mof_O 	O 	0.624	0.0345	0.75	-0.126
Mof_O 	O 	0.5895	0.624	0.25	-0.125
Mof_O 	O 	0.0345	0.4105	0.25	-0.126
Mof_O 	O 	0.376	0.9655	0.25	-0.126
_end
