data_functionalizedCrystal
_audit_creation_method	'EQeq! by Chris Wilmer'
_symmetry_space_group_name_H-M	'P1'
_symmetry_Int_Tables_number	1
_symmetry_cell_setting	triclinic
loop_
_symmetry_equiv_pos_as_xyz
  x,y,z
_cell_length_a	10.0704
_cell_length_b	14.2521
_cell_length_c	17.5644
_cell_angle_alpha	90
_cell_angle_beta	94.281
_cell_angle_gamma	90
loop_
_atom_site_label
_atom_site_type_symbol
_atom_site_fract_x
_atom_site_fract_y
_atom_site_fract_z
_atom_site_charge
Mof_Ca	Ca	0.52837	0.10559	0.55831	1.334
Mof_Ca	Ca	0.40828	0.34702	0.53009	1.405
Mof_S 	S 	0.28004	0.25166	0.30208	0.036
Mof_S 	S 	0.18623	0.06599	0.74929	0.06
Mof_O 	O 	0.4157	0.20431	0.45473	-0.55
Mof_O 	O 	0.4269	0.05209	0.43534	-0.59
Mof_O 	O 	0.0747	0.23231	0.10502	-0.534
Mof_O 	O 	0.0568	0.09607	0.95181	-0.517
Mof_C 	C 	0.3148	0.14308	0.33975	-0.161
Mof_O 	O 	0.0965	0.96937	0.88455	-0.483
Mof_C 	C 	0.3905	0.13302	0.4141	0.447
Mof_O 	O 	0.3266	0.10932	0.61072	-0.467
Mof_C 	C 	0.1914	0.2036	0.22468	-0.116
Mof_C 	C 	0.1324	0.2667	0.16487	0.375
Mof_O 	O 	0.143	0.35331	0.17565	-0.428
Mof_C 	C 	0.2168	0.1741	0.71116	-0.124
Mof_C 	C 	0.1407	0.2106	0.8277	0.018
Mof_H 	H 	0.1181	0.2495	0.8673	0.005
Mof_C 	C 	0.1338	0.1158	0.83039	-0.155
Mof_C 	C 	0.1858	0.2442	0.7586	-0.021
Mof_H 	H 	0.1934	0.3075	0.7469	0.036
Mof_C 	C 	0.2589	0.0729	0.29429	0.007
Mof_H 	H 	0.2674	0.0094	0.3057	0.022
Mof_O 	O 	0.2734	0.26155	0.60578	-0.473
Mof_C 	C 	0.1875	0.108	0.22855	-0.017
Mof_H 	H 	0.1427	0.0703	0.1918	0.027
Mof_C 	C 	0.0907	0.0558	0.89355	0.453
Mof_C 	C 	0.2767	0.1825	0.63629	0.417
Mof_Ca	Ca	0.97163	0.60559	0.94169	1.335
Mof_Ca	Ca	0.09172	0.84702	0.96991	1.399
Mof_S 	S 	0.21996	0.75166	0.19792	0.036
Mof_S 	S 	0.31377	0.56599	0.75071	0.058
Mof_O 	O 	0.0843	0.70431	0.04527	-0.549
Mof_O 	O 	0.0731	0.55209	0.06466	-0.589
Mof_O 	O 	0.4253	0.73231	0.39498	-0.535
Mof_O 	O 	0.4432	0.59607	0.54819	-0.519
Mof_C 	C 	0.1852	0.64308	0.16025	-0.161
Mof_O 	O 	0.4035	0.46937	0.61545	-0.479
Mof_C 	C 	0.1095	0.63302	0.0859	0.447
Mof_O 	O 	0.1734	0.60932	0.88928	-0.468
Mof_C 	C 	0.3086	0.7036	0.27532	-0.117
Mof_C 	C 	0.3676	0.7667	0.33513	0.376
Mof_O 	O 	0.357	0.85331	0.32435	-0.428
Mof_C 	C 	0.2832	0.6741	0.78884	-0.124
Mof_C 	C 	0.3593	0.7106	0.6723	0.017
Mof_H 	H 	0.3819	0.7495	0.6327	0.005
Mof_C 	C 	0.3662	0.6158	0.66961	-0.154
Mof_C 	C 	0.3142	0.7442	0.7414	-0.021
Mof_H 	H 	0.3066	0.8075	0.7531	0.035
Mof_C 	C 	0.2411	0.5729	0.20571	0.007
Mof_H 	H 	0.2326	0.5094	0.1943	0.023
Mof_O 	O 	0.2266	0.76155	0.89422	-0.473
Mof_C 	C 	0.3125	0.608	0.27145	-0.017
Mof_H 	H 	0.3573	0.5703	0.3082	0.027
Mof_C 	C 	0.4093	0.5558	0.60645	0.448
Mof_C 	C 	0.2233	0.6825	0.86371	0.416
Mof_Ca	Ca	0.47163	0.89441	0.44169	1.333
Mof_Ca	Ca	0.59172	0.65298	0.46991	1.404
Mof_S 	S 	0.71996	0.74834	0.69792	0.036
Mof_S 	S 	0.81377	0.93401	0.25071	0.06
Mof_O 	O 	0.5843	0.79569	0.54527	-0.55
Mof_O 	O 	0.5731	0.94791	0.56466	-0.59
Mof_O 	O 	0.9253	0.76769	0.89498	-0.534
Mof_O 	O 	0.9432	0.90393	0.04819	-0.517
Mof_C 	C 	0.6852	0.85692	0.66025	-0.161
Mof_O 	O 	0.9035	0.03063	0.11545	-0.483
Mof_C 	C 	0.6095	0.86698	0.5859	0.447
Mof_O 	O 	0.6734	0.89068	0.38928	-0.467
Mof_C 	C 	0.8086	0.7964	0.77532	-0.116
Mof_C 	C 	0.8676	0.7333	0.83513	0.375
Mof_O 	O 	0.857	0.64669	0.82435	-0.428
Mof_C 	C 	0.7832	0.8259	0.28884	-0.124
Mof_C 	C 	0.8593	0.7894	0.1723	0.018
Mof_H 	H 	0.8819	0.7505	0.1327	0.005
Mof_C 	C 	0.8662	0.8842	0.16961	-0.155
Mof_C 	C 	0.8142	0.7558	0.2414	-0.021
Mof_H 	H 	0.8066	0.6925	0.2531	0.036
Mof_C 	C 	0.7411	0.9271	0.70571	0.007
Mof_H 	H 	0.7326	0.9906	0.6943	0.022
Mof_O 	O 	0.7266	0.73845	0.39422	-0.473
Mof_C 	C 	0.8125	0.892	0.77145	-0.017
Mof_H 	H 	0.8573	0.9297	0.8082	0.027
Mof_C 	C 	0.9093	0.9442	0.10645	0.453
Mof_C 	C 	0.7233	0.8175	0.36371	0.417
Mof_Ca	Ca	0.02837	0.39441	0.05831	1.335
Mof_Ca	Ca	0.90828	0.15298	0.03009	1.399
Mof_S 	S 	0.78004	0.24834	0.80208	0.036
Mof_S 	S 	0.68623	0.43401	0.24929	0.058
Mof_O 	O 	0.9157	0.29569	0.95473	-0.549
Mof_O 	O 	0.9269	0.44791	0.93534	-0.589
Mof_O 	O 	0.5747	0.26769	0.60502	-0.535
Mof_O 	O 	0.5568	0.40393	0.45181	-0.519
Mof_C 	C 	0.8148	0.35692	0.83975	-0.161
Mof_O 	O 	0.5965	0.53063	0.38455	-0.479
Mof_C 	C 	0.8905	0.36698	0.9141	0.447
Mof_O 	O 	0.8266	0.39068	0.11072	-0.468
Mof_C 	C 	0.6914	0.2964	0.72468	-0.117
Mof_C 	C 	0.6324	0.2333	0.66487	0.376
Mof_O 	O 	0.643	0.14669	0.67565	-0.428
Mof_C 	C 	0.7168	0.3259	0.21116	-0.124
Mof_C 	C 	0.6407	0.2894	0.3277	0.017
Mof_H 	H 	0.6181	0.2505	0.3673	0.005
Mof_C 	C 	0.6338	0.3842	0.33039	-0.154
Mof_C 	C 	0.6858	0.2558	0.2586	-0.021
Mof_H 	H 	0.6934	0.1925	0.2469	0.035
Mof_C 	C 	0.7589	0.4271	0.79429	0.007
Mof_H 	H 	0.7674	0.4906	0.8057	0.023
Mof_O 	O 	0.7734	0.23845	0.10578	-0.473
Mof_C 	C 	0.6875	0.392	0.72855	-0.017
Mof_H 	H 	0.6427	0.4297	0.6918	0.027
Mof_C 	C 	0.5907	0.4442	0.39355	0.448
Mof_C 	C 	0.7767	0.3175	0.13629	0.416
_end
