data_functionalizedCrystal
_audit_creation_method	'EQeq! by Chris Wilmer'
_symmetry_space_group_name_H-M	'P1'
_symmetry_Int_Tables_number	1
_symmetry_cell_setting	triclinic
loop_
_symmetry_equiv_pos_as_xyz
  x,y,z
_cell_length_a	10.154
_cell_length_b	10.154
_cell_length_c	15.5121
_cell_angle_alpha	72.0821
_cell_angle_beta	72.0821
_cell_angle_gamma	86.5078
loop_
_atom_site_label
_atom_site_type_symbol
_atom_site_fract_x
_atom_site_fract_y
_atom_site_fract_z
_atom_site_charge
Mof_Cu	Cu	0.55399	0.00801	0.31352	0.877
Mof_Cu	Cu	0.99199	0.44601	0.18648	0.877
Mof_Cu	Cu	0.44601	0.99199	0.68648	0.877
Mof_Cu	Cu	0.00801	0.55399	0.81352	0.877
Mof_H 	H 	0.838	0.154	0.026	0.049
Mof_H 	H 	0.776	0.2	0.311	0.033
Mof_H 	H 	0.429	0.257	0.374	0.056
Mof_H 	H 	0.572	0.232	0.406	0.034
Mof_H 	H 	0.438	0.278	0.217	0.05
Mof_H 	H 	0.597	0.249	0.154	0.038
Mof_H 	H 	0.402	0.484	0.273	0.051
Mof_H 	H 	0.846	0.162	0.474	0.048
Mof_H 	H 	0.8	0.224	0.189	0.032
Mof_H 	H 	0.743	0.571	0.126	0.056
Mof_H 	H 	0.768	0.428	0.094	0.033
Mof_H 	H 	0.722	0.562	0.283	0.05
Mof_H 	H 	0.751	0.403	0.346	0.038
Mof_H 	H 	0.516	0.598	0.227	0.051
Mof_H 	H 	0.162	0.846	0.974	0.048
Mof_H 	H 	0.224	0.8	0.689	0.032
Mof_H 	H 	0.571	0.743	0.626	0.056
Mof_H 	H 	0.428	0.768	0.594	0.034
Mof_H 	H 	0.562	0.722	0.783	0.05
Mof_H 	H 	0.403	0.751	0.846	0.038
Mof_H 	H 	0.598	0.516	0.727	0.051
Mof_H 	H 	0.154	0.838	0.526	0.048
Mof_H 	H 	0.2	0.776	0.811	0.032
Mof_H 	H 	0.257	0.429	0.874	0.056
Mof_H 	H 	0.232	0.572	0.906	0.033
Mof_H 	H 	0.278	0.438	0.717	0.05
Mof_H 	H 	0.249	0.597	0.654	0.038
Mof_H 	H 	0.484	0.402	0.773	0.051
Mof_C 	C 	0.8796	0.9618	0.0767	-0.053
Mof_C 	C 	0.9808	0.865	0.0611	-0.045
Mof_C 	C 	0.9019	0.0945	0.0159	-0.013
Mof_C 	C 	0.7471	0.9225	0.1563	0.337
Mof_C 	C 	0.9683	0.7205	0.1285	0.314
Mof_C 	C 	0.5285	0.2763	0.3588	-0.027
Mof_C 	C 	0.547	0.2954	0.1964	-0.016
Mof_C 	C 	0.0382	0.1204	0.4233	-0.053
Mof_C 	C 	0.135	0.0192	0.4389	-0.045
Mof_C 	C 	0.9055	0.0981	0.4841	-0.013
Mof_C 	C 	0.0775	0.2529	0.3437	0.337
Mof_C 	C 	0.2795	0.0317	0.3715	0.314
Mof_C 	C 	0.7237	0.4715	0.1412	-0.027
Mof_C 	C 	0.7046	0.453	0.3036	-0.016
Mof_C 	C 	0.1204	0.0382	0.9233	-0.053
Mof_C 	C 	0.0192	0.135	0.9389	-0.045
Mof_C 	C 	0.0981	0.9055	0.9841	-0.013
Mof_C 	C 	0.2529	0.0775	0.8437	0.337
Mof_C 	C 	0.0317	0.2795	0.8715	0.314
Mof_C 	C 	0.4715	0.7237	0.6412	-0.027
Mof_C 	C 	0.453	0.7046	0.8036	-0.016
Mof_C 	C 	0.9618	0.8796	0.5767	-0.053
Mof_C 	C 	0.865	0.9808	0.5611	-0.045
Mof_C 	C 	0.0945	0.9019	0.5159	-0.013
Mof_C 	C 	0.9225	0.7471	0.6563	0.337
Mof_C 	C 	0.7205	0.9683	0.6285	0.314
Mof_C 	C 	0.2763	0.5285	0.8588	-0.027
Mof_C 	C 	0.2954	0.547	0.6964	-0.016
Mof_C 	C 	0.7491	0.2509	0.25	-0.019
Mof_C 	C 	0.5058	0.4942	0.25	-0.004
Mof_C 	C 	0.2509	0.7491	0.75	-0.019
Mof_C 	C 	0.4942	0.5058	0.75	-0.004
Mof_N 	N 	0.5971	0.2193	0.2786	-0.172
Mof_N 	N 	0.557	0.425	0.3313	-0.092
Mof_N 	N 	0.7807	0.4029	0.2214	-0.172
Mof_N 	N 	0.575	0.443	0.1687	-0.093
Mof_N 	N 	0.4029	0.7807	0.7214	-0.172
Mof_N 	N 	0.443	0.575	0.6687	-0.092
Mof_N 	N 	0.2193	0.5971	0.7786	-0.172
Mof_N 	N 	0.425	0.557	0.8313	-0.093
Mof_O 	O 	0.7038	0.0116	0.1991	-0.414
Mof_O 	O 	0.6864	0.811	0.1731	-0.282
Mof_O 	O 	0.9863	0.6235	0.0892	-0.406
Mof_O 	O 	0.9462	0.7004	0.2131	-0.305
Mof_O 	O 	0.9884	0.2962	0.3009	-0.414
Mof_O 	O 	0.189	0.3136	0.3269	-0.282
Mof_O 	O 	0.3765	0.0137	0.4108	-0.406
Mof_O 	O 	0.2996	0.0538	0.2869	-0.305
Mof_O 	O 	0.2962	0.9884	0.8009	-0.414
Mof_O 	O 	0.3136	0.189	0.8269	-0.282
Mof_O 	O 	0.0137	0.3765	0.9108	-0.406
Mof_O 	O 	0.0538	0.2996	0.7869	-0.305
Mof_O 	O 	0.0116	0.7038	0.6991	-0.414
Mof_O 	O 	0.811	0.6864	0.6731	-0.282
Mof_O 	O 	0.6235	0.9863	0.5892	-0.406
Mof_O 	O 	0.7004	0.9462	0.7131	-0.305
_end
