data_functionalizedCrystal
_audit_creation_method	'EQeq! by Chris Wilmer'
_symmetry_space_group_name_H-M	'P1'
_symmetry_Int_Tables_number	1
_symmetry_cell_setting	triclinic
loop_
_symmetry_equiv_pos_as_xyz
  x,y,z
_cell_length_a	8.9082
_cell_length_b	10.5533
_cell_length_c	18.6627
_cell_angle_alpha	90
_cell_angle_beta	90
_cell_angle_gamma	90
loop_
_atom_site_label
_atom_site_type_symbol
_atom_site_fract_x
_atom_site_fract_y
_atom_site_fract_z
_atom_site_charge
Mof_Zn	Zn	0.8705	0.98471	0.39907	1.191
Mof_Zn	Zn	0.3705	0.01529	0.60093	1.192
Mof_Zn	Zn	0.8705	0.51529	0.89907	1.194
Mof_Zn	Zn	0.3705	0.48471	0.10093	1.192
Mof_H 	H 	0.1788	0.0376	0.47	-0.031
Mof_H 	H 	0.7608	0.6413	0.6004	0.005
Mof_H 	H 	0.1582	0.6981	0.7277	0.175
Mof_H 	H 	0.2499	0.7978	0.6919	0.153
Mof_H 	H 	0.0271	0.3239	0.287	0.069
Mof_H 	H 	0.1498	0.4683	0.2132	-0.024
Mof_H 	H 	0.4076	0.2072	0.1362	-0.011
Mof_H 	H 	0.2956	0.055	0.2083	0.072
Mof_H 	H 	0.6788	0.9624	0.53	-0.033
Mof_H 	H 	0.2608	0.3587	0.3996	0.002
Mof_H 	H 	0.6582	0.3019	0.2723	0.182
Mof_H 	H 	0.7499	0.2022	0.3081	0.156
Mof_H 	H 	0.5271	0.6761	0.713	0.074
Mof_H 	H 	0.6498	0.5317	0.7868	-0.021
Mof_H 	H 	0.9076	0.7928	0.8638	-0.008
Mof_H 	H 	0.7956	0.945	0.7917	0.072
Mof_H 	H 	0.1788	0.4624	0.97	-0.027
Mof_H 	H 	0.7608	0.8587	0.1004	0.005
Mof_H 	H 	0.1582	0.8019	0.2277	0.176
Mof_H 	H 	0.2499	0.7022	0.1919	0.152
Mof_H 	H 	0.0271	0.1761	0.787	0.068
Mof_H 	H 	0.1498	0.0317	0.7132	-0.025
Mof_H 	H 	0.4076	0.2928	0.6362	-0.011
Mof_H 	H 	0.2956	0.445	0.7083	0.071
Mof_H 	H 	0.6788	0.5376	0.03	-0.029
Mof_H 	H 	0.2608	0.1413	0.8996	0.002
Mof_H 	H 	0.6582	0.1981	0.7723	0.182
Mof_H 	H 	0.7499	0.2978	0.8081	0.156
Mof_H 	H 	0.5271	0.8239	0.213	0.074
Mof_H 	H 	0.6498	0.9683	0.2868	-0.022
Mof_H 	H 	0.9076	0.7072	0.3638	-0.007
Mof_H 	H 	0.7956	0.555	0.2917	0.073
Mof_C 	C 	0.1303	0.9765	0.4974	0.06
Mof_C 	C 	0.8436	0.6941	0.5948	0.112
Mof_C 	C 	0.0652	0.7609	0.6402	0.139
Mof_C 	C 	0.0796	0.8431	0.5812	-0.065
Mof_C 	C 	0.9668	0.8402	0.5323	0.139
Mof_C 	C 	0.0776	0.0753	0.3043	0.275
Mof_C 	C 	0.1048	0.298	0.257	-0.1
Mof_C 	C 	0.1543	0.1725	0.256	-0.003
Mof_C 	C 	0.1772	0.3833	0.2111	0.074
Mof_C 	C 	0.3287	0.2302	0.1662	0.059
Mof_C 	C 	0.2634	0.1388	0.2104	-0.092
Mof_C 	C 	0.6303	0.0235	0.5026	0.078
Mof_C 	C 	0.3436	0.3059	0.4052	0.109
Mof_C 	C 	0.5652	0.2391	0.3598	0.152
Mof_C 	C 	0.5796	0.1569	0.4188	-0.051
Mof_C 	C 	0.4668	0.1598	0.4677	0.122
Mof_C 	C 	0.5776	0.9247	0.6957	0.305
Mof_C 	C 	0.6048	0.702	0.743	-0.094
Mof_C 	C 	0.6543	0.8275	0.744	-0.008
Mof_C 	C 	0.6772	0.6167	0.7889	0.075
Mof_C 	C 	0.8287	0.7698	0.8338	0.059
Mof_C 	C 	0.7634	0.8612	0.7896	-0.085
Mof_C 	C 	0.1303	0.5235	0.9974	0.053
Mof_C 	C 	0.8436	0.8059	0.0948	0.112
Mof_C 	C 	0.0652	0.7391	0.1402	0.14
Mof_C 	C 	0.0796	0.6569	0.0812	-0.068
Mof_C 	C 	0.9668	0.6598	0.0323	0.141
Mof_C 	C 	0.0776	0.4247	0.8043	0.282
Mof_C 	C 	0.1048	0.202	0.757	-0.099
Mof_C 	C 	0.1543	0.3275	0.756	-0.005
Mof_C 	C 	0.1772	0.1167	0.7111	0.073
Mof_C 	C 	0.3287	0.2698	0.6662	0.058
Mof_C 	C 	0.2634	0.3612	0.7104	-0.09
Mof_C 	C 	0.6303	0.4765	0.0026	0.072
Mof_C 	C 	0.3436	0.1941	0.9052	0.109
Mof_C 	C 	0.5652	0.2609	0.8598	0.152
Mof_C 	C 	0.5796	0.3431	0.9188	-0.051
Mof_C 	C 	0.4668	0.3402	0.9677	0.123
Mof_C 	C 	0.5776	0.5753	0.1957	0.307
Mof_C 	C 	0.6048	0.798	0.243	-0.094
Mof_C 	C 	0.6543	0.6725	0.244	-0.009
Mof_C 	C 	0.6772	0.8833	0.2889	0.074
Mof_C 	C 	0.8287	0.7302	0.3338	0.059
Mof_C 	C 	0.7634	0.6388	0.2896	-0.085
Mof_N 	N 	0.9961	0.9251	0.4782	-0.289
Mof_N 	N 	0.8433	0.7688	0.5361	-0.171
Mof_N 	N 	0.1873	0.9316	0.5593	-0.255
Mof_N 	N 	0.9441	0.6872	0.6438	-0.144
Mof_N 	N 	0.1709	0.751	0.6932	-0.322
Mof_N 	N 	0.28	0.3503	0.1659	-0.273
Mof_N 	N 	0.4961	0.0749	0.5218	-0.295
Mof_N 	N 	0.3433	0.2312	0.4639	-0.171
Mof_N 	N 	0.6873	0.0684	0.4407	-0.257
Mof_N 	N 	0.4441	0.3128	0.3562	-0.154
Mof_N 	N 	0.6709	0.249	0.3068	-0.325
Mof_N 	N 	0.78	0.6497	0.8341	-0.271
Mof_N 	N 	0.9961	0.5749	0.9782	-0.285
Mof_N 	N 	0.8433	0.7312	0.0361	-0.171
Mof_N 	N 	0.1873	0.5684	0.0593	-0.254
Mof_N 	N 	0.9441	0.8128	0.1438	-0.144
Mof_N 	N 	0.1709	0.749	0.1932	-0.323
Mof_N 	N 	0.28	0.1497	0.6659	-0.273
Mof_N 	N 	0.4961	0.4251	0.0218	-0.295
Mof_N 	N 	0.3433	0.2688	0.9639	-0.171
Mof_N 	N 	0.6873	0.4316	0.9407	-0.257
Mof_N 	N 	0.4441	0.1872	0.8562	-0.154
Mof_N 	N 	0.6709	0.251	0.8068	-0.325
Mof_N 	N 	0.78	0.8503	0.3341	-0.271
Mof_O 	O 	0.9632	0.1152	0.3387	-0.441
Mof_O 	O 	0.1271	0.9668	0.306	-0.319
Mof_O 	O 	0.4632	0.8848	0.6613	-0.466
Mof_O 	O 	0.6271	0.0332	0.694	-0.319
Mof_O 	O 	0.9632	0.3848	0.8387	-0.446
Mof_O 	O 	0.1271	0.5332	0.806	-0.323
Mof_O 	O 	0.4632	0.6152	0.1613	-0.467
Mof_O 	O 	0.6271	0.4668	0.194	-0.322
_end
