data_functionalizedCrystal
_audit_creation_method	'EQeq! by Chris Wilmer'
_symmetry_space_group_name_H-M	'P1'
_symmetry_Int_Tables_number	1
_symmetry_cell_setting	triclinic
loop_
_symmetry_equiv_pos_as_xyz
  x,y,z
_cell_length_a	8.7994
_cell_length_b	8.8039
_cell_length_c	53.888
_cell_angle_alpha	90
_cell_angle_beta	90
_cell_angle_gamma	90.111
loop_
_atom_site_label
_atom_site_type_symbol
_atom_site_fract_x
_atom_site_fract_y
_atom_site_fract_z
_atom_site_charge
Mof_Zn	Zn	0.73435	0.82303	0.74649	1.22
Mof_Zn	Zn	0.77244	0.78812	0.80212	1.219
Mof_Zn	Zn	0.43161	0.66286	0.54848	1.224
Mof_Zn	Zn	0.60378	0.37088	0.99407	1.224
Mof_Zn	Zn	0.26565	0.17697	0.24649	1.22
Mof_Zn	Zn	0.22756	0.21188	0.30212	1.218
Mof_Zn	Zn	0.56839	0.33714	0.04848	1.223
Mof_Zn	Zn	0.39622	0.62912	0.49407	1.223
Mof_H 	H 	0.873	0.0619	0.7069	0.087
Mof_H 	H 	0.7229	0.102	0.721	0.074
Mof_H 	H 	0.6516	0.2824	0.6915	0.105
Mof_H 	H 	0.828	0.3091	0.6936	0.1
Mof_H 	H 	0.8689	0.1529	0.6597	0.005
Mof_H 	H 	0.6689	0.0561	0.6358	0.016
Mof_H 	H 	0.5442	0.5882	0.6709	0.079
Mof_H 	H 	0.6127	0.6189	0.7117	0.01
Mof_H 	H 	0.615	0.5356	0.5897	-0.003
Mof_H 	H 	0.681	0.5871	0.6299	0.1
Mof_H 	H 	0.3993	0.9453	0.6282	0.102
Mof_H 	H 	0.3507	0.8917	0.5874	-0.008
Mof_H 	H 	0.7701	0.3172	0.6337	0.232
Mof_H 	H 	0.495	0.2253	0.6461	0.23
Mof_H 	H 	0.997	0.9292	0.8506	0.099
Mof_H 	H 	0.0225	0.8144	0.8287	0.077
Mof_H 	H 	0.1929	0.658	0.8554	0.099
Mof_H 	H 	0.2571	0.8259	0.8557	0.088
Mof_H 	H 	0.0949	0.876	0.8922	-0.008
Mof_H 	H 	0.9911	0.6472	0.9112	0.013
Mof_H 	H 	0.5296	0.556	0.8745	0.086
Mof_H 	H 	0.5808	0.6178	0.8327	0.006
Mof_H 	H 	0.5301	0.6205	0.9607	-0.003
Mof_H 	H 	0.5138	0.6638	0.9171	0.095
Mof_H 	H 	0.8598	0.3654	0.9116	0.107
Mof_H 	H 	0.7662	0.2587	0.9485	-0.004
Mof_H 	H 	0.2555	0.7357	0.9144	0.227
Mof_H 	H 	0.1371	0.4652	0.8956	0.233
Mof_H 	H 	0.2597	0.7909	0.7977	0.107
Mof_H 	H 	0.2422	0.8136	0.7467	0.104
Mof_H 	H 	0.7385	0.298	0.8019	0.106
Mof_H 	H 	0.7653	0.3099	0.7508	0.117
Mof_H 	H 	0.9147	0.6461	0.5463	0.1
Mof_H 	H 	0.9123	0.6331	0.4962	0.119
Mof_H 	H 	0.4181	0.1435	0.4963	0.111
Mof_H 	H 	0.4185	0.1476	0.5471	0.103
Mof_H 	H 	0.127	0.9381	0.2069	0.087
Mof_H 	H 	0.2771	0.898	0.221	0.074
Mof_H 	H 	0.3484	0.7176	0.1915	0.105
Mof_H 	H 	0.172	0.6909	0.1936	0.1
Mof_H 	H 	0.1311	0.8471	0.1597	0.005
Mof_H 	H 	0.3311	0.9439	0.1358	0.016
Mof_H 	H 	0.4558	0.4118	0.1709	0.079
Mof_H 	H 	0.3873	0.3811	0.2117	0.01
Mof_H 	H 	0.385	0.4644	0.0897	-0.003
Mof_H 	H 	0.319	0.4129	0.1299	0.1
Mof_H 	H 	0.6007	0.0547	0.1282	0.102
Mof_H 	H 	0.6493	0.1083	0.0874	-0.008
Mof_H 	H 	0.2299	0.6828	0.1337	0.232
Mof_H 	H 	0.505	0.7747	0.1461	0.23
Mof_H 	H 	0.003	0.0708	0.3506	0.099
Mof_H 	H 	0.9775	0.1856	0.3287	0.077
Mof_H 	H 	0.8071	0.342	0.3554	0.099
Mof_H 	H 	0.7429	0.1741	0.3557	0.088
Mof_H 	H 	0.9051	0.124	0.3922	-0.008
Mof_H 	H 	0.0089	0.3528	0.4112	0.013
Mof_H 	H 	0.4704	0.444	0.3745	0.086
Mof_H 	H 	0.4192	0.3822	0.3327	0.006
Mof_H 	H 	0.4699	0.3795	0.4607	-0.003
Mof_H 	H 	0.4862	0.3362	0.4171	0.095
Mof_H 	H 	0.1402	0.6346	0.4116	0.107
Mof_H 	H 	0.2338	0.7413	0.4485	-0.004
Mof_H 	H 	0.7445	0.2643	0.4144	0.227
Mof_H 	H 	0.8629	0.5348	0.3956	0.233
Mof_H 	H 	0.7403	0.2091	0.2977	0.107
Mof_H 	H 	0.7578	0.1864	0.2467	0.104
Mof_H 	H 	0.2615	0.702	0.3019	0.106
Mof_H 	H 	0.2347	0.6901	0.2508	0.117
Mof_H 	H 	0.0853	0.3539	0.0463	0.1
Mof_H 	H 	0.0877	0.3669	0.9962	0.119
Mof_H 	H 	0.5819	0.8565	0.9963	0.111
Mof_H 	H 	0.5815	0.8524	0.0471	0.103
Mof_C 	C 	0.6915	0.9525	0.69368	0.092
Mof_C 	C 	0.766	0.0845	0.70472	-0.151
Mof_C 	C 	0.7504	0.2368	0.68872	-0.167
Mof_C 	C 	0.7682	0.1978	0.66214	0.137
Mof_C 	C 	0.6473	0.0841	0.65307	0.087
Mof_C 	C 	0.6452	0.9417	0.66902	-0.06
Mof_C 	C 	0.5891	0.8045	0.65994	0.026
Mof_C 	C 	0.5802	0.6817	0.67638	-0.107
Mof_C 	C 	0.625	0.6996	0.70071	0.063
Mof_C 	C 	0.5725	0.6195	0.59751	0.09
Mof_C 	C 	0.612	0.6492	0.62168	-0.157
Mof_C 	C 	0.5468	0.7752	0.63396	0.089
Mof_C 	C 	0.4464	0.8628	0.62069	-0.164
Mof_C 	C 	0.4155	0.828	0.59624	0.1
Mof_C 	C 	0.8874	0.7341	0.85506	0.15
Mof_C 	C 	0.0133	0.823	0.8465	-0.224
Mof_C 	C 	0.1709	0.7622	0.86	-0.143
Mof_C 	C 	0.1315	0.7753	0.8873	0.129
Mof_C 	C 	0.0171	0.6417	0.8936	0.08
Mof_C 	C 	0.8737	0.6727	0.87847	-0.073
Mof_C 	C 	0.744	0.6004	0.88584	0.048
Mof_C 	C 	0.6242	0.5925	0.8695	-0.12
Mof_C 	C 	0.6507	0.642	0.845	0.073
Mof_C 	C 	0.581	0.5579	0.9496	0.09
Mof_C 	C 	0.5863	0.6021	0.9246	-0.149
Mof_C 	C 	0.717	0.5412	0.9117	0.081
Mof_C 	C 	0.7833	0.4136	0.92057	-0.153
Mof_C 	C 	0.7342	0.3548	0.94363	0.097
Mof_C 	C 	0.461	0.8019	0.7784	0.39
Mof_C 	C 	0.2987	0.7991	0.7818	-0.15
Mof_C 	C 	0.2023	0.8081	0.76263	-0.131
Mof_C 	C 	0.0365	0.8096	0.7656	0.372
Mof_C 	C 	0.7554	0.0882	0.78397	0.402
Mof_C 	C 	0.7488	0.2561	0.78617	-0.111
Mof_C 	C 	0.7568	0.3508	0.7667	-0.173
Mof_C 	C 	0.7527	0.5146	0.76951	0.458
Mof_C 	C 	0.1334	0.6418	0.52795	0.447
Mof_C 	C 	0.9571	0.643	0.53051	-0.104
Mof_C 	C 	0.8694	0.6399	0.51189	-0.161
Mof_C 	C 	0.7017	0.6465	0.51393	0.435
Mof_C 	C 	0.4034	0.9305	0.51426	0.441
Mof_C 	C 	0.4135	0.1006	0.51209	-0.15
Mof_C 	C 	0.416	0.1905	0.53136	-0.118
Mof_C 	C 	0.4151	0.3576	0.52906	0.375
Mof_C 	C 	0.3085	0.0475	0.19368	0.092
Mof_C 	C 	0.234	0.9155	0.20472	-0.151
Mof_C 	C 	0.2496	0.7632	0.18872	-0.167
Mof_C 	C 	0.2318	0.8022	0.16214	0.137
Mof_C 	C 	0.3527	0.9159	0.15307	0.087
Mof_C 	C 	0.3548	0.0583	0.16902	-0.06
Mof_C 	C 	0.4109	0.1955	0.15994	0.026
Mof_C 	C 	0.4198	0.3183	0.17638	-0.107
Mof_C 	C 	0.375	0.3004	0.20071	0.063
Mof_C 	C 	0.4275	0.3805	0.09751	0.09
Mof_C 	C 	0.388	0.3508	0.12168	-0.157
Mof_C 	C 	0.4532	0.2248	0.13396	0.089
Mof_C 	C 	0.5536	0.1372	0.12069	-0.164
Mof_C 	C 	0.5845	0.172	0.09624	0.1
Mof_C 	C 	0.1126	0.2659	0.35506	0.15
Mof_C 	C 	0.9867	0.177	0.3465	-0.224
Mof_C 	C 	0.8291	0.2378	0.36	-0.143
Mof_C 	C 	0.8685	0.2247	0.3873	0.129
Mof_C 	C 	0.9829	0.3583	0.3936	0.08
Mof_C 	C 	0.1263	0.3273	0.37847	-0.073
Mof_C 	C 	0.256	0.3996	0.38584	0.048
Mof_C 	C 	0.3758	0.4075	0.3695	-0.12
Mof_C 	C 	0.3493	0.358	0.345	0.073
Mof_C 	C 	0.419	0.4421	0.4496	0.09
Mof_C 	C 	0.4137	0.3979	0.4246	-0.149
Mof_C 	C 	0.283	0.4588	0.4117	0.081
Mof_C 	C 	0.2167	0.5864	0.42057	-0.153
Mof_C 	C 	0.2658	0.6452	0.44363	0.097
Mof_C 	C 	0.539	0.1981	0.2784	0.39
Mof_C 	C 	0.7013	0.2009	0.2818	-0.15
Mof_C 	C 	0.7977	0.1919	0.26263	-0.131
Mof_C 	C 	0.9635	0.1904	0.2656	0.372
Mof_C 	C 	0.2446	0.9118	0.28397	0.402
Mof_C 	C 	0.2512	0.7439	0.28617	-0.111
Mof_C 	C 	0.2432	0.6492	0.2667	-0.173
Mof_C 	C 	0.2473	0.4854	0.26951	0.458
Mof_C 	C 	0.8666	0.3582	0.02795	0.448
Mof_C 	C 	0.0429	0.357	0.03051	-0.104
Mof_C 	C 	0.1306	0.3601	0.01189	-0.161
Mof_C 	C 	0.2983	0.3535	0.01393	0.435
Mof_C 	C 	0.5966	0.0695	0.01426	0.442
Mof_C 	C 	0.5865	0.8994	0.01209	-0.15
Mof_C 	C 	0.584	0.8095	0.03136	-0.118
Mof_C 	C 	0.5849	0.6424	0.02906	0.375
Mof_N 	N 	0.6858	0.8293	0.70912	-0.247
Mof_N 	N 	0.4739	0.7077	0.58456	-0.256
Mof_N 	N 	0.7728	0.7227	0.83916	-0.257
Mof_N 	N 	0.6443	0.4328	0.95835	-0.255
Mof_N 	N 	0.3142	0.1707	0.20912	-0.247
Mof_N 	N 	0.5261	0.2923	0.08456	-0.256
Mof_N 	N 	0.2272	0.2773	0.33916	-0.257
Mof_N 	N 	0.3557	0.5672	0.45835	-0.255
Mof_O 	O 	0.7605	0.3354	0.64851	-0.391
Mof_O 	O 	0.4987	0.1478	0.65457	-0.355
Mof_O 	O 	0.2672	0.7313	0.8993	-0.39
Mof_O 	O 	0.0602	0.4874	0.8878	-0.361
Mof_O 	O 	0.5176	0.793	0.75636	-0.455
Mof_O 	O 	0.5391	0.807	0.79806	-0.451
Mof_O 	O 	0.958	0.843	0.74582	-0.449
Mof_O 	O 	0.9773	0.787	0.78629	-0.476
Mof_O 	O 	0.7241	0.0313	0.76339	-0.461
Mof_O 	O 	0.7792	0.0155	0.80374	-0.439
Mof_O 	O 	0.7573	0.5924	0.75027	-0.471
Mof_O 	O 	0.7529	0.5689	0.79053	-0.476
Mof_O 	O 	0.2032	0.6526	0.54702	-0.494
Mof_O 	O 	0.1805	0.6359	0.50674	-0.495
Mof_O 	O 	0.6481	0.6531	0.53526	-0.475
Mof_O 	O 	0.6262	0.6406	0.49452	-0.468
Mof_O 	O 	0.4182	0.8771	0.53522	-0.488
Mof_O 	O 	0.397	0.8584	0.49462	-0.471
Mof_O 	O 	0.4352	0.4333	0.54888	-0.443
Mof_O 	O 	0.411	0.4158	0.5073	-0.459
Mof_O 	O 	0.2395	0.6646	0.14851	-0.391
Mof_O 	O 	0.5013	0.8522	0.15457	-0.355
Mof_O 	O 	0.7328	0.2687	0.3993	-0.39
Mof_O 	O 	0.9398	0.5126	0.3878	-0.361
Mof_O 	O 	0.4824	0.207	0.25636	-0.455
Mof_O 	O 	0.4609	0.193	0.29806	-0.451
Mof_O 	O 	0.042	0.157	0.24582	-0.449
Mof_O 	O 	0.0227	0.213	0.28629	-0.476
Mof_O 	O 	0.2759	0.9687	0.26339	-0.461
Mof_O 	O 	0.2208	0.9845	0.30374	-0.439
Mof_O 	O 	0.2427	0.4076	0.25027	-0.471
Mof_O 	O 	0.2471	0.4311	0.29053	-0.476
Mof_O 	O 	0.7968	0.3474	0.04702	-0.494
Mof_O 	O 	0.8195	0.3641	0.00674	-0.495
Mof_O 	O 	0.3519	0.3469	0.03526	-0.475
Mof_O 	O 	0.3738	0.3594	0.99452	-0.468
Mof_O 	O 	0.5818	0.1229	0.03522	-0.488
Mof_O 	O 	0.603	0.1416	0.99462	-0.472
Mof_O 	O 	0.5648	0.5667	0.04888	-0.443
Mof_O 	O 	0.589	0.5842	0.0073	-0.459
_end
