data_functionalizedCrystal
_audit_creation_method	'EQeq! by Chris Wilmer'
_symmetry_space_group_name_H-M	'P1'
_symmetry_Int_Tables_number	1
_symmetry_cell_setting	triclinic
loop_
_symmetry_equiv_pos_as_xyz
  x,y,z
_cell_length_a	11.2784
_cell_length_b	22.521
_cell_length_c	22.6
_cell_angle_alpha	104.626
_cell_angle_beta	96.241
_cell_angle_gamma	100.215
loop_
_atom_site_label
_atom_site_type_symbol
_atom_site_fract_x
_atom_site_fract_y
_atom_site_fract_z
_atom_site_charge
Mof_V 	V 	0.12786	0.38186	0.53766	1.715
Mof_V 	V 	0.3413	0.43947	0.31489	1.712
Mof_V 	V 	0.48263	0.36269	0.50166	1.715
Mof_V 	V 	0.28907	0.42073	0.1612	1.679
Mof_V 	V 	0.47678	0.33776	0.97899	1.742
Mof_V 	V 	0.32527	0.44828	0.82133	1.712
Mof_V 	V 	0.25349	0.3959	0.93683	1.709
Mof_V 	V 	0.35199	0.29158	0.10295	1.702
Mof_V 	V 	0.4556	0.78335	0.89567	1.727
Mof_V 	V 	0.1234	0.46966	0.05097	1.701
Mof_V 	V 	0.24159	0.34443	0.40324	1.714
Mof_V 	V 	0.232	0.94002	0.52488	1.706
Mof_V 	V 	0.30686	0.41164	0.67177	1.684
Mof_V 	V 	0.19247	0.94718	0.01622	1.688
Mof_V 	V 	0.4366	0.88186	0.0403	1.703
Mof_V 	V 	0.92412	0.8557	0.01756	1.709
Mof_V 	V 	0.9343	0.8669	0.52297	1.727
Mof_V 	V 	0.75402	0.85536	0.89629	1.728
Mof_V 	V 	0.4614	0.77154	0.39405	1.726
Mof_V 	V 	0.40278	0.28606	0.61556	1.714
Mof_V 	V 	0.7515	0.8604	0.4007	1.714
Mof_V 	V 	0.72917	0.92878	0.10523	1.729
Mof_V 	V 	0.7131	0.91953	0.60493	1.736
Mof_V 	V 	0.4122	0.84617	0.53544	1.707
Mof_Ni	Ni	0.24053	0.12112	0.05503	1.087
Mof_Ni	Ni	0.74702	0.88046	0.24624	1.099
Mof_Ni	Ni	0.29652	0.11335	0.557	1.098
Mof_Ni	Ni	0.40232	0.62002	0.89341	1.069
Mof_Ni	Ni	0.40652	0.60707	0.38998	1.06
Mof_Ni	Ni	0.81212	0.38584	0.00952	1.06
Mof_Ni	Ni	0.81133	0.38508	0.50866	1.1
Mof_Ni	Ni	0.79529	0.88658	0.74978	1.104
Mof_H 	H 	0.7019	0.7968	0.6184	-0.065
Mof_H 	H 	0.7182	0.6982	0.559	0.053
Mof_H 	H 	0.8992	0.6746	0.7154	0.063
Mof_H 	H 	0.8674	0.7732	0.7698	-0.008
Mof_H 	H 	0.9883	0.5066	0.5919	0.003
Mof_H 	H 	0.9872	0.6101	0.6409	0.065
Mof_H 	H 	0.6522	0.5863	0.5396	0.066
Mof_H 	H 	0.6707	0.4855	0.4916	-0.059
Mof_H 	H 	0.9567	0.8334	0.3031	-0.033
Mof_H 	H 	0.1607	0.8332	0.3002	0.027
Mof_H 	H 	0.1528	0.9227	0.1693	0.052
Mof_H 	H 	0.9538	0.9282	0.1789	-0.101
Mof_H 	H 	0.5621	0.9525	0.2063	-0.041
Mof_H 	H 	0.3588	0.9542	0.2029	0.033
Mof_H 	H 	0.3053	0.7901	0.2517	-0.011
Mof_H 	H 	0.5105	0.7918	0.2529	-0.056
Mof_H 	H 	0.5493	0.8235	0.6716	-0.028
Mof_H 	H 	0.341	0.8225	0.6701	0.004
Mof_H 	H 	0.4242	0.9359	0.8464	0.027
Mof_H 	H 	0.6281	0.9337	0.8444	-0.08
Mof_H 	H 	0.9921	0.895	0.6667	-0.03
Mof_H 	H 	0.1993	0.8876	0.6643	0.01
Mof_H 	H 	0.2202	0.8896	0.8492	-0.017
Mof_H 	H 	0.0103	0.8942	0.8399	-0.045
Mof_H 	H 	0.6506	0.2529	0.4929	-0.029
Mof_H 	H 	0.6249	0.1508	0.4328	0.082
Mof_H 	H 	0.95	0.2021	0.3796	0.042
Mof_H 	H 	0.9595	0.3037	0.4356	-0.107
Mof_H 	H 	0.6337	0.9566	0.3406	-0.034
Mof_H 	H 	0.6331	0.057	0.3954	0.022
Mof_H 	H 	0.9126	0.1186	0.3121	0.054
Mof_H 	H 	0.8943	0.0182	0.2545	-0.031
Mof_H 	H 	0.9515	0.9862	0.863	-0.183
Mof_H 	H 	0.9577	0.0889	0.9218	0.173
Mof_H 	H 	0.7224	0.1034	0.7795	0.141
Mof_H 	H 	0.7222	0.9984	0.7311	-0.225
Mof_H 	H 	0.652	0.2715	0.9204	-0.067
Mof_H 	H 	0.655	0.1699	0.8648	0.048
Mof_H 	H 	0.0057	0.1971	0.943	0.026
Mof_H 	H 	0.9966	0.2972	0.9972	-0.002
Mof_H 	H 	0.7061	0.4911	0.979	0.106
Mof_H 	H 	0.6935	0.5937	0.0235	-0.018
Mof_H 	H 	0.8737	0.5837	0.1834	0.035
Mof_H 	H 	0.9009	0.4859	0.1306	-0.022
Mof_H 	H 	0.7293	0.6466	0.2232	0.039
Mof_H 	H 	0.7002	0.7467	0.2711	-0.029
Mof_H 	H 	0.7601	0.8009	0.1171	-0.044
Mof_H 	H 	0.7892	0.7007	0.0691	0.013
Mof_H 	H 	0.5491	0.1888	0.6274	-0.08
Mof_H 	H 	0.7524	0.1968	0.6165	0.064
Mof_H 	H 	0.6584	0.0261	0.4886	0.027
Mof_H 	H 	0.4546	0.0284	0.498	-0.054
Mof_H 	H 	0.0518	0.0194	0.5216	-0.019
Mof_H 	H 	0.8436	0.0182	0.5199	-0.011
Mof_H 	H 	0.9164	0.2083	0.5619	0.029
Mof_H 	H 	0.1247	0.2095	0.5636	-0.036
Mof_H 	H 	0.3914	0.0502	0.6539	-0.009
Mof_H 	H 	0.3732	0.0485	0.7547	0.075
Mof_H 	H 	0.1663	0.1782	0.7642	0.039
Mof_H 	H 	0.1953	0.1791	0.6651	-0.023
Mof_H 	H 	0.2365	0.0258	0.9314	-0.041
Mof_H 	H 	0.2496	0.0217	0.8284	0.093
Mof_H 	H 	0.2427	0.2048	0.8673	-0.007
Mof_H 	H 	0.2268	0.2048	0.9684	-0.032
Mof_H 	H 	0.4294	0.0506	0.0921	-0.001
Mof_H 	H 	0.6344	0.0481	0.0905	0.028
Mof_H 	H 	0.6719	0.2019	0.028	0.039
Mof_H 	H 	0.4657	0.1973	0.0254	-0.077
Mof_H 	H 	0.0791	0.2112	0.0998	-0.011
Mof_H 	H 	0.8744	0.2155	0.1016	0.052
Mof_H 	H 	0.7842	0.03	0.0132	-0.01
Mof_H 	H 	0.9904	0.032	0.0105	-0.062
Mof_H 	H 	0.9883	0.3994	0.9196	-0.058
Mof_H 	H 	0.9922	0.3915	0.8149	0.058
Mof_H 	H 	0.6278	0.3874	0.7921	-0.03
Mof_H 	H 	0.633	0.3922	0.8963	-0.07
Mof_H 	H 	0.669	0.4255	0.6129	-0.094
Mof_H 	H 	0.6717	0.4325	0.716	-0.003
Mof_H 	H 	0.9378	0.3315	0.7068	0.054
Mof_H 	H 	0.9284	0.3267	0.6035	-0.069
Mof_H 	H 	0.6422	0.3803	0.1024	-0.08
Mof_H 	H 	0.6472	0.39	0.2073	-0.033
Mof_H 	H 	0.9904	0.358	0.2158	0.05
Mof_H 	H 	0.9796	0.3548	0.1122	-0.024
Mof_H 	H 	0.9945	0.4241	0.4247	0.002
Mof_H 	H 	0.0053	0.4126	0.3207	0.019
Mof_H 	H 	0.6361	0.353	0.2846	-0.013
Mof_H 	H 	0.6375	0.3577	0.3889	-0.024
Mof_H 	H 	0.1139	0.049	0.1369	-0.02
Mof_H 	H 	0.1224	0.0467	0.2385	0.07
Mof_H 	H 	0.4074	0.1948	0.2854	0.052
Mof_H 	H 	0.3891	0.1965	0.1838	-0.076
Mof_H 	H 	0.3471	0.2063	0.4808	-0.043
Mof_H 	H 	0.3365	0.212	0.3802	0.026
Mof_H 	H 	0.2227	0.0225	0.3239	0.083
Mof_H 	H 	0.233	0.0227	0.4261	-0.05
Mof_H 	H 	0.3455	0.5165	0.47	-0.041
Mof_H 	H 	0.3388	0.5166	0.5716	0.004
Mof_H 	H 	0.466	0.7063	0.6208	0.047
Mof_H 	H 	0.4765	0.699	0.5175	-0.045
Mof_H 	H 	0.5507	0.6823	0.8131	-0.024
Mof_H 	H 	0.5589	0.6789	0.7106	0.064
Mof_H 	H 	0.2349	0.5532	0.6647	0.061
Mof_H 	H 	0.2397	0.5601	0.7677	-0.014
Mof_H 	H 	0.1831	0.5456	0.9268	-0.05
Mof_H 	H 	0.9774	0.5421	0.9307	0.094
Mof_H 	H 	0.0081	0.6963	0.8675	0.064
Mof_H 	H 	0.2132	0.6926	0.8611	-0.096
Mof_H 	H 	0.6517	0.7089	0.9429	-0.031
Mof_H 	H 	0.8567	0.7118	0.9461	0.021
Mof_H 	H 	0.7736	0.5263	0.8585	0.066
Mof_H 	H 	0.57	0.5288	0.8581	-0.099
Mof_H 	H 	0.2469	0.6845	0.4579	-0.064
Mof_H 	H 	0.0449	0.6873	0.4633	0.032
Mof_H 	H 	0.9491	0.5308	0.3188	0.101
Mof_H 	H 	0.1535	0.5318	0.3163	-0.054
Mof_H 	H 	0.5817	0.5183	0.3878	-0.08
Mof_H 	H 	0.783	0.5142	0.3789	0.061
Mof_H 	H 	0.8557	0.7039	0.4116	0.021
Mof_H 	H 	0.6517	0.7005	0.4151	-0.043
Mof_C 	C 	0.7388	0.7705	0.6382	0.066
Mof_C 	C 	0.7485	0.7121	0.6022	-0.156
Mof_C 	C 	0.805	0.6747	0.6322	0.043
Mof_C 	C 	0.8548	0.6979	0.695	-0.13
Mof_C 	C 	0.8368	0.757	0.7267	0.054
Mof_C 	C 	0.9174	0.5222	0.5831	0.063
Mof_C 	C 	0.9192	0.5845	0.6114	-0.128
Mof_C 	C 	0.819	0.6089	0.5958	0.046
Mof_C 	C 	0.722	0.5711	0.5514	-0.145
Mof_C 	C 	0.732	0.51	0.525	0.061
Mof_C 	C 	0.9981	0.8549	0.2776	0.083
Mof_C 	C 	0.1181	0.8522	0.2741	-0.197
Mof_C 	C 	0.1754	0.8769	0.2332	0.075
Mof_C 	C 	0.1145	0.9053	0.1983	-0.231
Mof_C 	C 	0.9965	0.909	0.2048	0.107
Mof_C 	C 	0.5091	0.9196	0.2158	0.009
Mof_C 	C 	0.3887	0.9208	0.2138	-0.136
Mof_C 	C 	0.308	0.8727	0.2277	-0.026
Mof_C 	C 	0.3567	0.8237	0.2425	-0.134
Mof_C 	C 	0.4785	0.8252	0.2433	-0.015
Mof_C 	C 	0.5238	0.8466	0.7075	0.003
Mof_C 	C 	0.3984	0.8463	0.7058	-0.124
Mof_C 	C 	0.3597	0.882	0.7578	0.014
Mof_C 	C 	0.4479	0.9131	0.8098	-0.157
Mof_C 	C 	0.5699	0.9112	0.8086	0.018
Mof_C 	C 	0.0395	0.8921	0.7028	-0
Mof_C 	C 	0.163	0.8875	0.7003	-0.108
Mof_C 	C 	0.228	0.8828	0.756	0.001
Mof_C 	C 	0.1749	0.8884	0.8108	-0.113
Mof_C 	C 	0.0501	0.8921	0.8047	0.018
Mof_C 	C 	0.7108	0.2425	0.4681	0.085
Mof_C 	C 	0.6956	0.1812	0.4335	-0.155
Mof_C 	C 	0.7867	0.1645	0.3993	0.084
Mof_C 	C 	0.8856	0.2117	0.4017	-0.165
Mof_C 	C 	0.8914	0.2721	0.4357	0.07
Mof_C 	C 	0.6918	0.9899	0.3349	-0.103
Mof_C 	C 	0.6917	0.0502	0.3686	0.012
Mof_C 	C 	0.778	0.1018	0.3636	-0.008
Mof_C 	C 	0.8539	0.0862	0.319	-0.118
Mof_C 	C 	0.8446	0.0255	0.2858	0.12
Mof_C 	C 	0.8974	0.0092	0.8485	0.381
Mof_C 	C 	0.9045	0.0706	0.8833	-0.357
Mof_C 	C 	0.83	0.1031	0.8586	0.226
Mof_C 	C 	0.7647	0.0792	0.7997	-0.365
Mof_C 	C 	0.7659	0.0167	0.7719	0.404
Mof_C 	C 	0.7239	0.2556	0.9258	0.067
Mof_C 	C 	0.7261	0.1952	0.8921	-0.094
Mof_C 	C 	0.8305	0.1711	0.8976	-0.019
Mof_C 	C 	0.9316	0.2111	0.938	-0.054
Mof_C 	C 	0.9257	0.2706	0.9707	0.038
Mof_C 	C 	0.7431	0.5108	0.0209	-0.172
Mof_C 	C 	0.7332	0.5718	0.0477	-0.033
Mof_C 	C 	0.781	0.6015	0.1099	-0.036
Mof_C 	C 	0.8409	0.5668	0.1407	-0.103
Mof_C 	C 	0.8532	0.5072	0.10928	-0.012
Mof_C 	C 	0.762	0.66423	0.14162	0.037
Mof_C 	C 	0.7355	0.6779	0.20163	-0.139
Mof_C 	C 	0.7183	0.7374	0.23012	0.035
Mof_C 	C 	0.7539	0.76955	0.13861	0.015
Mof_C 	C 	0.7711	0.71005	0.11012	-0.138
Mof_C 	C 	0.5714	0.15695	0.59709	0.079
Mof_C 	C 	0.6934	0.16091	0.59231	-0.16
Mof_C 	C 	0.7298	0.1125	0.5523	0.058
Mof_C 	C 	0.6382	0.0609	0.5162	-0.157
Mof_C 	C 	0.5167	0.06279	0.52235	0.066
Mof_C 	C 	0.0243	0.05775	0.52981	-0.007
Mof_C 	C 	0.9006	0.05705	0.52877	-0.056
Mof_C 	C 	0.8604	0.11315	0.54073	-0.003
Mof_C 	C 	0.9439	0.16994	0.55373	-0.069
Mof_C 	C 	0.0676	0.17065	0.55476	0.004
Mof_C 	C 	0.3456	0.0767	0.6769	0.052
Mof_C 	C 	0.3344	0.0756	0.737	-0.12
Mof_C 	C 	0.2666	0.1137	0.7725	0.03
Mof_C 	C 	0.2142	0.1516	0.7431	-0.13
Mof_C 	C 	0.2306	0.1514	0.6834	0.044
Mof_C 	C 	0.2382	0.0629	0.9185	0.097
Mof_C 	C 	0.2471	0.0605	0.8567	-0.141
Mof_C 	C 	0.2524	0.1136	0.836	0.051
Mof_C 	C 	0.2427	0.1672	0.8791	-0.134
Mof_C 	C 	0.2331	0.1669	0.9398	0.053
Mof_C 	C 	0.4788	0.081	0.0777	0.028
Mof_C 	C 	0.6017	0.0796	0.0774	-0.114
Mof_C 	C 	0.6757	0.1242	0.0579	0.028
Mof_C 	C 	0.6232	0.1694	0.04	-0.14
Mof_C 	C 	0.5004	0.1669	0.0395	0.04
Mof_C 	C 	0.0184	0.1742	0.0805	0.014
Mof_C 	C 	0.896	0.1771	0.0826	-0.102
Mof_C 	C 	0.8068	0.1228	0.0565	0.022
Mof_C 	C 	0.8428	0.0682	0.0302	-0.142
Mof_C 	C 	0.9667	0.0699	0.029	0.049
Mof_C 	C 	0.9146	0.3964	0.8933	0.061
Mof_C 	C 	0.9176	0.3916	0.8307	-0.132
Mof_C 	C 	0.8094	0.3868	0.7914	0.027
Mof_C 	C 	0.7022	0.3887	0.817	-0.121
Mof_C 	C 	0.7068	0.3926	0.8796	0.046
Mof_C 	C 	0.7252	0.4069	0.6327	0.039
Mof_C 	C 	0.7258	0.4109	0.6941	-0.155
Mof_C 	C 	0.8057	0.3834	0.7249	0.03
Mof_C 	C 	0.8824	0.3514	0.6884	-0.141
Mof_C 	C 	0.8771	0.3491	0.6269	0.062
Mof_C 	C 	0.7145	0.3769	0.126	0.03
Mof_C 	C 	0.7162	0.3816	0.1887	-0.124
Mof_C 	C 	0.8191	0.374	0.2246	0.034
Mof_C 	C 	0.9182	0.3636	0.194	-0.125
Mof_C 	C 	0.9106	0.3613	0.1316	0.047
Mof_C 	C 	0.9212	0.4081	0.3955	0.02
Mof_C 	C 	0.9288	0.402	0.3336	-0.078
Mof_C 	C 	0.8211	0.3797	0.2903	0.003
Mof_C 	C 	0.7112	0.3658	0.3124	-0.096
Mof_C 	C 	0.712	0.3705	0.3751	0.02
Mof_C 	C 	0.1743	0.0794	0.1675	0.065
Mof_C 	C 	0.1794	0.0773	0.228	-0.138
Mof_C 	C 	0.2685	0.1201	0.2737	0.047
Mof_C 	C 	0.3459	0.1643	0.2554	-0.155
Mof_C 	C 	0.3351	0.1649	0.1946	0.07
Mof_C 	C 	0.3206	0.1685	0.4481	0.052
Mof_C 	C 	0.3145	0.1723	0.3881	-0.14
Mof_C 	C 	0.2756	0.1175	0.3382	0.039
Mof_C 	C 	0.2473	0.0613	0.3553	-0.142
Mof_C 	C 	0.2547	0.0616	0.4167	0.085
Mof_C 	C 	0.3711	0.5553	0.5013	0.047
Mof_C 	C 	0.3655	0.5549	0.5618	-0.13
Mof_C 	C 	0.4	0.6118	0.6088	0.03
Mof_C 	C 	0.4416	0.6666	0.5907	-0.133
Mof_C 	C 	0.4464	0.6619	0.5288	0.056
Mof_C 	C 	0.4865	0.6554	0.7821	0.01
Mof_C 	C 	0.4916	0.6538	0.7209	-0.132
Mof_C 	C 	0.398	0.6155	0.6743	0.025
Mof_C 	C 	0.3018	0.5801	0.6941	-0.161
Mof_C 	C 	0.3056	0.5845	0.7557	0.03
Mof_C 	C 	0.1464	0.5759	0.9135	0.084
Mof_C 	C 	0.0242	0.574	0.9171	-0.223
Mof_C 	C 	0.9718	0.6199	0.9004	0.119
Mof_C 	C 	0.042	0.6645	0.8794	-0.213
Mof_C 	C 	0.1649	0.662	0.8758	0.097
Mof_C 	C 	0.6767	0.6711	0.925	0.056
Mof_C 	C 	0.7996	0.6733	0.9272	-0.1
Mof_C 	C 	0.8404	0.6193	0.9019	0.022
Mof_C 	C 	0.7509	0.5648	0.876	-0.138
Mof_C 	C 	0.629	0.5668	0.8758	0.092
Mof_C 	C 	0.1853	0.6528	0.4293	0.073
Mof_C 	C 	0.0655	0.6547	0.433	-0.195
Mof_C 	C 	0.9756	0.6092	0.3924	0.114
Mof_C 	C 	0.0095	0.5627	0.3479	-0.225
Mof_C 	C 	0.1309	0.5635	0.3467	0.091
Mof_C 	C 	0.6378	0.5562	0.3909	0.051
Mof_C 	C 	0.7586	0.5534	0.387	-0.132
Mof_C 	C 	0.8434	0.609	0.3951	0.013
Mof_C 	C 	0.8011	0.6648	0.4057	-0.121
Mof_C 	C 	0.6788	0.662	0.4074	0.038
Mof_N 	N 	0.778	0.7913	0.6984	-0.227
Mof_N 	N 	0.82	0.4817	0.5433	-0.229
Mof_N 	N 	0.9375	0.8865	0.2466	-0.249
Mof_N 	N 	0.5561	0.8729	0.231	-0.227
Mof_N 	N 	0.6098	0.8779	0.7576	-0.234
Mof_N 	N 	0.9866	0.8926	0.7521	-0.2
Mof_N 	N 	0.8052	0.2888	0.4691	-0.245
Mof_N 	N 	0.77	0.9748	0.2938	-0.264
Mof_N 	N 	0.8219	0.9812	0.7974	-0.413
Mof_N 	N 	0.8222	0.2921	0.9662	-0.201
Mof_N 	N 	0.8018	0.4786	0.0511	-0.217
Mof_N 	N 	0.7274	0.78323	0.19862	-0.215
Mof_N 	N 	0.4833	0.11017	0.56045	-0.242
Mof_N 	N 	0.1078	0.11454	0.5428	-0.203
Mof_N 	N 	0.2927	0.1147	0.6506	-0.23
Mof_N 	N 	0.2322	0.1158	0.9596	-0.205
Mof_N 	N 	0.4273	0.1237	0.0582	-0.24
Mof_N 	N 	0.0542	0.1223	0.0527	-0.241
Mof_N 	N 	0.8101	0.397	0.9179	-0.215
Mof_N 	N 	0.8017	0.3774	0.5983	-0.241
Mof_N 	N 	0.8115	0.3678	0.0972	-0.231
Mof_N 	N 	0.8161	0.3928	0.417	-0.209
Mof_N 	N 	0.2507	0.1224	0.1489	-0.234
Mof_N 	N 	0.2909	0.1137	0.4633	-0.233
Mof_N 	N 	0.4105	0.6076	0.4838	-0.223
Mof_N 	N 	0.3946	0.6205	0.7996	-0.244
Mof_N 	N 	0.216	0.6183	0.892	-0.261
Mof_N 	N 	0.5896	0.6189	0.8991	-0.246
Mof_N 	N 	0.2195	0.6079	0.3871	-0.26
Mof_N 	N 	0.5953	0.6095	0.399	-0.251
Mof_O 	O 	0.2565	0.0163	0.5355	-0.707
Mof_O 	O 	0.3362	0.2102	0.5859	-0.729
Mof_O 	O 	0.6273	0.3633	0.9959	-0.682
Mof_O 	O 	0.6272	0.3653	0.4913	-0.735
Mof_O 	O 	0.9952	0.4034	0.5288	-0.714
Mof_O 	O 	0.3661	0.5113	0.3618	-0.778
Mof_O 	O 	0.2282	0.4003	0.8593	-0.9
Mof_O 	O 	0.3547	0.5232	0.8614	-0.761
Mof_O 	O 	0.2082	0.0257	0.0351	-0.711
Mof_O 	O 	0.2458	0.3852	0.3469	-0.914
Mof_O 	O 	0.2955	0.3293	0.6547	-0.967
Mof_O 	O 	0.2525	0.4374	0.7423	-0.89
Mof_O 	O 	0.4077	0.401	0.9629	-0.94
Mof_O 	O 	0.3493	0.9166	0.5673	-0.915
Mof_O 	O 	0.3222	0.9245	0.0537	-0.95
Mof_O 	O 	0.2375	0.3383	0.1263	-0.931
Mof_O 	O 	0.2634	0.4383	0.2395	-0.92
Mof_O 	O 	0.9957	0.4142	0.0306	-0.794
Mof_O 	O 	0.2039	0.4575	0.9854	-0.881
Mof_O 	O 	0.7988	0.8626	0.829	-0.721
Mof_O 	O 	0.8323	0.9097	0.5571	-0.957
Mof_O 	O 	0.4427	0.7173	0.9191	-0.749
Mof_O 	O 	0.2219	0.4292	0.6103	-0.921
Mof_O 	O 	0.4225	0.3127	0.042	-1.01
Mof_O 	O 	0.4301	0.8484	0.9594	-0.902
Mof_O 	O 	0.6094	0.8026	0.8811	-0.883
Mof_O 	O 	0.4409	0.7033	0.4125	-0.764
Mof_O 	O 	0.6194	0.8004	0.3973	-0.932
Mof_O 	O 	0.2129	0.4635	0.1199	-0.964
Mof_O 	O 	0.5792	0.9295	0.0693	-0.979
Mof_O 	O 	0.1934	0.388	0.4693	-0.951
Mof_O 	O 	0.2763	0.2166	0.0768	-0.747
Mof_O 	O 	0.8662	0.8261	0.9392	-0.888
Mof_O 	O 	0.3843	0.3279	0.4262	-0.922
Mof_O 	O 	0.4452	0.3155	0.5532	-0.963
Mof_O 	O 	0.7642	0.8599	0.3277	-0.753
Mof_O 	O 	0.8905	0.8462	0.4419	-0.913
Mof_O 	O 	0.4014	0.8203	0.4557	-1
Mof_O 	O 	0.7766	0.9075	0.6682	-0.758
Mof_O 	O 	0.0536	0.9136	0.0401	-1.012
Mof_O 	O 	0.8055	0.8762	0.0569	-0.985
Mof_O 	O 	0.0837	0.9118	0.5443	-0.941
Mof_O 	O 	0.5671	0.8675	0.5707	-0.937
Mof_O 	O 	0.7226	0.8993	0.1646	-0.768
_end
