data_functionalizedCrystal
_audit_creation_method	'EQeq! by Chris Wilmer'
_symmetry_space_group_name_H-M	'P1'
_symmetry_Int_Tables_number	1
_symmetry_cell_setting	triclinic
loop_
_symmetry_equiv_pos_as_xyz
  x,y,z
_cell_length_a	9.834
_cell_length_b	17.3661
_cell_length_c	18.296
_cell_angle_alpha	92.2538
_cell_angle_beta	90
_cell_angle_gamma	106.448
loop_
_atom_site_label
_atom_site_type_symbol
_atom_site_fract_x
_atom_site_fract_y
_atom_site_fract_z
_atom_site_charge
Mof_Co	Co	0.14521	0.69234	0.00173	1.161
Mof_Co	Co	0.45287	0.30766	0.49827	1.177
Mof_Co	Co	0.85479	0.30766	0.99827	1.192
Mof_Co	Co	0.54713	0.69234	0.50173	1.178
Mof_Co	Co	-3.79694e-17	0.5	-0	1.153
Mof_Co	Co	0.5	0.5	0.5	1.183
Mof_H 	H 	0.5838	0.9304	0.0868	0.019
Mof_H 	H 	0.3034	0.9358	0.9285	0.024
Mof_H 	H 	0.5274	0.5668	0.8909	0.073
Mof_H 	H 	0.3162	0.5052	0.0787	0.073
Mof_H 	H 	0.9929	0.7346	0.2237	0.058
Mof_H 	H 	0.8714	0.7286	0.3331	0.055
Mof_H 	H 	0.635	0.5044	0.2752	0.047
Mof_H 	H 	0.7526	0.5122	0.1643	0.055
Mof_H 	H 	0.6534	0.0696	0.4132	0.034
Mof_H 	H 	0.3676	0.0642	0.5715	0.043
Mof_H 	H 	0.9606	0.4332	0.6091	0.019
Mof_H 	H 	0.811	0.4948	0.4213	0.009
Mof_H 	H 	0.2583	0.2654	0.2763	0.047
Mof_H 	H 	0.1428	0.2714	0.1669	0.04
Mof_H 	H 	0.1306	0.4956	0.2248	0.041
Mof_H 	H 	0.2404	0.4878	0.3357	0.054
Mof_H 	H 	0.4162	0.0696	0.9132	0.056
Mof_H 	H 	0.6966	0.0642	0.0715	0.073
Mof_H 	H 	0.4726	0.4332	0.1091	0.027
Mof_H 	H 	0.6838	0.4948	0.9213	0.018
Mof_H 	H 	0.0071	0.2654	0.7763	0.046
Mof_H 	H 	0.1286	0.2714	0.6669	0.041
Mof_H 	H 	0.365	0.4956	0.7248	0.041
Mof_H 	H 	0.2474	0.4878	0.8357	0.059
Mof_H 	H 	0.3466	0.9304	0.5868	0.038
Mof_H 	H 	0.6324	0.9358	0.4285	0.057
Mof_H 	H 	0.0394	0.5668	0.3909	0.081
Mof_H 	H 	0.189	0.5052	0.5787	0.081
Mof_H 	H 	0.7417	0.7346	0.7237	0.056
Mof_H 	H 	0.8572	0.7286	0.8331	0.056
Mof_H 	H 	0.8694	0.5044	0.7752	0.047
Mof_H 	H 	0.7596	0.5122	0.6643	0.058
Mof_C 	C 	0.3574	0.8312	0.02009	0.281
Mof_C 	C 	0.43124	0.91808	0.00916	-0.13
Mof_C 	C 	0.54994	0.95808	0.05193	0.014
Mof_C 	C 	0.38246	0.96152	0.95726	0.05
Mof_C 	C 	0.30911	0.59242	0.96292	0.328
Mof_C 	C 	0.40622	0.54364	0.98194	0.006
Mof_C 	C 	0.51664	0.54008	0.93456	-0.083
Mof_C 	C 	0.38969	0.50318	0.04732	-0.119
Mof_C 	C 	0.95517	0.62974	0.10964	0.387
Mof_C 	C 	0.88236	0.62452	0.18228	-0.077
Mof_C 	C 	0.91973	0.68906	0.23358	-0.014
Mof_C 	C 	0.84777	0.68534	0.29944	-0.023
Mof_C 	C 	0.73981	0.61622	0.31468	-0.074
Mof_C 	C 	0.70522	0.55084	0.26445	-0.031
Mof_C 	C 	0.77633	0.55546	0.19805	-0.021
Mof_C 	C 	0.66013	0.61186	0.38493	0.353
Mof_C 	C 	0.5262	0.1688	0.47991	0.305
Mof_C 	C 	0.51316	0.08192	0.49084	-0.073
Mof_C 	C 	0.59186	0.04192	0.44807	-0.011
Mof_C 	C 	0.42094	0.03848	0.54274	-0.019
Mof_C 	C 	0.71669	0.40758	0.53708	0.339
Mof_C 	C 	0.86258	0.45636	0.51806	-0.138
Mof_C 	C 	0.97656	0.45992	0.56544	0.096
Mof_C 	C 	0.88651	0.49682	0.45268	0.092
Mof_C 	C 	0.32543	0.37026	0.39036	0.34
Mof_C 	C 	0.25784	0.37548	0.31772	-0.071
Mof_C 	C 	0.23067	0.31094	0.26642	-0.026
Mof_C 	C 	0.16243	0.31466	0.20056	-0.029
Mof_C 	C 	0.12359	0.38378	0.18532	-0.075
Mof_C 	C 	0.15438	0.44916	0.23555	-0.035
Mof_C 	C 	0.22087	0.44454	0.30195	-0.031
Mof_C 	C 	0.04827	0.38814	0.11507	0.308
Mof_C 	C 	0.6426	0.1688	0.97991	0.316
Mof_C 	C 	0.56876	0.08192	0.99084	-0.002
Mof_C 	C 	0.45006	0.04192	0.94807	-0.082
Mof_C 	C 	0.61754	0.03848	0.04274	-0.102
Mof_C 	C 	0.69089	0.40758	0.03708	0.303
Mof_C 	C 	0.59378	0.45636	0.01806	-0.138
Mof_C 	C 	0.48336	0.45992	0.06544	0.041
Mof_C 	C 	0.61031	0.49682	0.95268	0.065
Mof_C 	C 	0.04483	0.37026	0.89036	0.299
Mof_C 	C 	0.11764	0.37548	0.81772	-0.055
Mof_C 	C 	0.08027	0.31094	0.76642	-0.04
Mof_C 	C 	0.15223	0.31466	0.70056	-0.013
Mof_C 	C 	0.26019	0.38378	0.68532	-0.089
Mof_C 	C 	0.29478	0.44916	0.73555	-0.02
Mof_C 	C 	0.22367	0.44454	0.80195	-0.044
Mof_C 	C 	0.33987	0.38814	0.61507	0.355
Mof_C 	C 	0.4738	0.8312	0.52009	0.298
Mof_C 	C 	0.48684	0.91808	0.50916	-0.054
Mof_C 	C 	0.40814	0.95808	0.55193	-0.045
Mof_C 	C 	0.57906	0.96152	0.45726	-0.05
Mof_C 	C 	0.28331	0.59242	0.46292	0.285
Mof_C 	C 	0.13742	0.54364	0.48194	0.004
Mof_C 	C 	0.02344	0.54008	0.43456	-0.14
Mof_C 	C 	0.11349	0.50318	0.54732	-0.142
Mof_C 	C 	0.67457	0.62974	0.60964	0.341
Mof_C 	C 	0.74216	0.62452	0.68228	-0.062
Mof_C 	C 	0.76933	0.68906	0.73358	-0.027
Mof_C 	C 	0.83757	0.68534	0.79944	-0.01
Mof_C 	C 	0.87641	0.61622	0.81468	-0.084
Mof_C 	C 	0.84562	0.55084	0.76445	-0.019
Mof_C 	C 	0.77913	0.55546	0.69805	-0.033
Mof_C 	C 	0.95173	0.61186	0.88493	0.388
Mof_O 	O 	0.25462	0.79864	0.97449	-0.387
Mof_O 	O 	0.39243	0.79466	0.07006	-0.313
Mof_O 	O 	0.20767	0.59294	0.00895	-0.551
Mof_O 	O 	0.32923	0.63266	0.90717	-0.32
Mof_O 	O 	0.05534	0.69328	0.09857	-0.476
Mof_O 	O 	0.91068	0.57276	0.06307	-0.443
Mof_O 	O 	0.66854	0.67828	0.41889	-0.44
Mof_O 	O 	0.59008	0.54316	0.40394	-0.435
Mof_O 	O 	0.45598	0.20136	0.52551	-0.42
Mof_O 	O 	0.59777	0.20534	0.42994	-0.312
Mof_O 	O 	0.61473	0.40706	0.49105	-0.526
Mof_O 	O 	0.69657	0.36734	0.59283	-0.325
Mof_O 	O 	0.36206	0.30672	0.40143	-0.436
Mof_O 	O 	0.33792	0.42724	0.43693	-0.441
Mof_O 	O 	0.99026	0.32172	0.08111	-0.412
Mof_O 	O 	0.04692	0.45684	0.09606	-0.444
Mof_O 	O 	0.74538	0.20136	0.02551	-0.442
Mof_O 	O 	0.60757	0.20534	0.92994	-0.311
Mof_O 	O 	0.79233	0.40706	0.99105	-0.487
Mof_O 	O 	0.67077	0.36734	0.09283	-0.321
Mof_O 	O 	0.94466	0.30672	0.90143	-0.397
Mof_O 	O 	0.08932	0.42724	0.93693	-0.424
Mof_O 	O 	0.33146	0.32172	0.58111	-0.445
Mof_O 	O 	0.40992	0.45684	0.59606	-0.439
Mof_O 	O 	0.54402	0.79864	0.47449	-0.417
Mof_O 	O 	0.40223	0.79466	0.57006	-0.314
Mof_O 	O 	0.38527	0.59294	0.50895	-0.515
Mof_O 	O 	0.30343	0.63266	0.40717	-0.316
Mof_O 	O 	0.63794	0.69328	0.59857	-0.431
Mof_O 	O 	0.66208	0.57276	0.56307	-0.437
Mof_O 	O 	0.00974	0.67828	0.91889	-0.461
Mof_O 	O 	0.95308	0.54316	0.90394	-0.42
Mof_H 	H 	0.423	0.7816	0.8306	0.146
Mof_H 	H 	0.297	0.7146	0.8373	0.156
Mof_H 	H 	0.4541	0.6824	0.7566	-0.075
Mof_H 	H 	0.4363	0.7508	0.7074	-0.074
Mof_H 	H 	0.2089	0.6808	0.6783	0.298
Mof_H 	H 	0.3012	0.6212	0.6658	0.298
Mof_H 	H 	0.2092	0.6168	0.7363	0.293
Mof_H 	H 	0.1738	0.7774	0.761	-0.073
Mof_H 	H 	0.2163	0.8214	0.8378	-0.059
Mof_H 	H 	0.3701	0.8658	0.7083	0.275
Mof_H 	H 	0.2794	0.9158	0.7477	0.254
Mof_H 	H 	0.4185	0.9084	0.7849	0.261
Mof_C 	C 	0.3876	0.7106	0.7411	0.362
Mof_C 	C 	0.26585	0.6521	0.7019	-0.883
Mof_C 	C 	0.25343	0.80606	0.7921	0.309
Mof_C 	C 	0.33816	0.88092	0.7548	-0.802
Mof_N 	N 	0.34403	0.75226	0.8069	-0.348
Mof_H 	H 	0.6414	0.2184	0.6694	0.145
Mof_H 	H 	0.5824	0.2854	0.6627	0.157
Mof_H 	H 	0.7717	0.3176	0.7434	-0.073
Mof_H 	H 	0.6855	0.2492	0.7926	-0.076
Mof_H 	H 	0.5281	0.3192	0.8217	0.313
Mof_H 	H 	0.68	0.3788	0.8342	0.312
Mof_H 	H 	0.5924	0.3832	0.7637	0.308
Mof_H 	H 	0.3964	0.2226	0.739	-0.068
Mof_H 	H 	0.3949	0.1786	0.6622	-0.058
Mof_H 	H 	0.5043	0.1342	0.7917	0.278
Mof_H 	H 	0.3636	0.0842	0.7523	0.256
Mof_H 	H 	0.5101	0.0916	0.7151	0.263
Mof_C 	C 	0.677	0.2894	0.7589	0.374
Mof_C 	C 	0.61375	0.3479	0.7981	-0.911
Mof_C 	C 	0.44737	0.19394	0.7079	0.308
Mof_C 	C 	0.45724	0.11908	0.7452	-0.804
Mof_N 	N 	0.59177	0.24774	0.6931	-0.349
Mof_H 	H 	0.577	0.2184	0.1694	0.138
Mof_H 	H 	0.703	0.2854	0.1627	0.156
Mof_H 	H 	0.5459	0.3176	0.2434	-0.085
Mof_H 	H 	0.5637	0.2492	0.2926	-0.085
Mof_H 	H 	0.7911	0.3192	0.3217	0.326
Mof_H 	H 	0.6988	0.3788	0.3342	0.322
Mof_H 	H 	0.7908	0.3832	0.2637	0.323
Mof_H 	H 	0.8262	0.2226	0.239	-0.058
Mof_H 	H 	0.7837	0.1786	0.1622	-0.052
Mof_H 	H 	0.6299	0.1342	0.2917	0.274
Mof_H 	H 	0.7206	0.0842	0.2523	0.258
Mof_H 	H 	0.5815	0.0916	0.2151	0.256
Mof_C 	C 	0.6124	0.2894	0.2589	0.393
Mof_C 	C 	0.73415	0.3479	0.2981	-0.943
Mof_C 	C 	0.74657	0.19394	0.2079	0.298
Mof_C 	C 	0.66184	0.11908	0.2452	-0.793
Mof_N 	N 	0.65597	0.24774	0.1931	-0.348
Mof_H 	H 	0.3586	0.7816	0.3306	0.138
Mof_H 	H 	0.4176	0.7146	0.3373	0.154
Mof_H 	H 	0.2283	0.6824	0.2566	-0.088
Mof_H 	H 	0.3145	0.7508	0.2074	-0.084
Mof_H 	H 	0.4719	0.6808	0.1783	0.31
Mof_H 	H 	0.32	0.6212	0.1658	0.306
Mof_H 	H 	0.4076	0.6168	0.2363	0.307
Mof_H 	H 	0.6036	0.7774	0.261	-0.063
Mof_H 	H 	0.6051	0.8214	0.3378	-0.053
Mof_H 	H 	0.4957	0.8658	0.2083	0.269
Mof_H 	H 	0.6364	0.9158	0.2477	0.252
Mof_H 	H 	0.4899	0.9084	0.2849	0.251
Mof_C 	C 	0.323	0.7106	0.2411	0.38
Mof_C 	C 	0.38625	0.6521	0.2019	-0.912
Mof_C 	C 	0.55263	0.80606	0.2921	0.296
Mof_C 	C 	0.54276	0.88092	0.2548	-0.785
Mof_N 	N 	0.40823	0.75226	0.3069	-0.346
_end
