data_functionalizedCrystal
_audit_creation_method	'EQeq! by Chris Wilmer'
_symmetry_space_group_name_H-M	'P1'
_symmetry_Int_Tables_number	1
_symmetry_cell_setting	triclinic
loop_
_symmetry_equiv_pos_as_xyz
  x,y,z
_cell_length_a	9.5467
_cell_length_b	26.405
_cell_length_c	7.9946
_cell_angle_alpha	90
_cell_angle_beta	99.472
_cell_angle_gamma	90
loop_
_atom_site_label
_atom_site_type_symbol
_atom_site_fract_x
_atom_site_fract_y
_atom_site_fract_z
_atom_site_charge
Mof_Zn	Zn	0.60496	0.56847	0.49235	1.233
Mof_Zn	Zn	0.36762	0.7638	0.25171	1.232
Mof_Zn	Zn	0.17504	0.55587	0.98787	1.238
Mof_P 	P 	0.4215	0.52027	0.75679	0.466
Mof_H 	H 	0.543	0.5277	0.873	-0.036
Mof_P 	P 	0.54598	0.68781	0.48545	0.482
Mof_H 	H 	0.654	0.696	0.573	-0.073
Mof_P 	P 	0.20489	0.67683	0.0224	0.483
Mof_H 	H 	0.074	0.685	0.942	-0.051
Mof_P 	P 	0.87725	0.52931	0.74344	0.496
Mof_H 	H 	0.967	0.509	0.656	-0.064
Mof_O 	O 	0.4396	0.54841	0.595	-0.455
Mof_O 	O 	0.3854	0.46561	0.722	-0.45
Mof_O 	O 	0.5521	0.63643	0.4036	-0.418
Mof_O 	O 	0.5407	0.73046	0.3594	-0.443
Mof_O 	O 	0.4224	0.69005	0.584	-0.459
Mof_O 	O 	0.2251	0.71489	0.1655	-0.455
Mof_O 	O 	0.3023	0.68519	0.8943	-0.467
Mof_O 	O 	0.2193	0.6231	0.0892	-0.413
Mof_O 	O 	0.3233	0.54721	0.852	-0.441
Mof_O 	O 	0.9858	0.55594	0.8706	-0.474
Mof_O 	O 	0.7766	0.56769	0.6501	-0.46
Mof_O 	O 	0.8012	0.48684	0.8147	-0.472
Mof_Zn	Zn	0.39504	0.06847	0.00765	1.233
Mof_Zn	Zn	0.63238	0.2638	0.24829	1.232
Mof_Zn	Zn	0.82496	0.05587	0.51213	1.239
Mof_P 	P 	0.5785	0.02027	0.74321	0.466
Mof_H 	H 	0.457	0.0277	0.627	-0.036
Mof_P 	P 	0.45402	0.18781	0.01455	0.472
Mof_H 	H 	0.346	0.196	0.927	-0.067
Mof_P 	P 	0.79511	0.17683	0.4776	0.471
Mof_H 	H 	0.926	0.185	0.558	-0.045
Mof_P 	P 	0.12275	0.02931	0.75656	0.497
Mof_H 	H 	0.033	0.009	0.844	-0.065
Mof_O 	O 	0.5604	0.04841	0.905	-0.453
Mof_O 	O 	0.6146	0.96561	0.778	-0.45
Mof_O 	O 	0.4479	0.13643	0.0964	-0.419
Mof_O 	O 	0.4593	0.23046	0.1406	-0.443
Mof_O 	O 	0.5776	0.19005	0.916	-0.453
Mof_O 	O 	0.7749	0.21489	0.3345	-0.456
Mof_O 	O 	0.6977	0.18519	0.6057	-0.461
Mof_O 	O 	0.7807	0.1231	0.4108	-0.415
Mof_O 	O 	0.6767	0.04721	0.648	-0.44
Mof_O 	O 	0.0142	0.05594	0.6294	-0.474
Mof_O 	O 	0.2234	0.06769	0.8499	-0.458
Mof_O 	O 	0.1988	0.98684	0.6853	-0.475
Mof_Zn	Zn	0.39504	0.43153	0.50765	1.234
Mof_Zn	Zn	0.63238	0.2362	0.74829	1.233
Mof_Zn	Zn	0.82496	0.44413	0.01213	1.238
Mof_P 	P 	0.5785	0.47973	0.24321	0.466
Mof_H 	H 	0.457	0.4723	0.127	-0.036
Mof_P 	P 	0.45402	0.31219	0.51455	0.482
Mof_H 	H 	0.346	0.304	0.427	-0.073
Mof_P 	P 	0.79511	0.32317	0.9776	0.483
Mof_H 	H 	0.926	0.315	0.058	-0.051
Mof_P 	P 	0.12275	0.47069	0.25656	0.496
Mof_H 	H 	0.033	0.491	0.344	-0.064
Mof_O 	O 	0.5604	0.45159	0.405	-0.455
Mof_O 	O 	0.6146	0.53439	0.278	-0.45
Mof_O 	O 	0.4479	0.36357	0.5964	-0.418
Mof_O 	O 	0.4593	0.26954	0.6406	-0.443
Mof_O 	O 	0.5776	0.30995	0.416	-0.459
Mof_O 	O 	0.7749	0.28511	0.8345	-0.455
Mof_O 	O 	0.6977	0.31481	0.1057	-0.467
Mof_O 	O 	0.7807	0.3769	0.9108	-0.413
Mof_O 	O 	0.6767	0.45279	0.148	-0.441
Mof_O 	O 	0.0142	0.44406	0.1294	-0.474
Mof_O 	O 	0.2234	0.43231	0.3499	-0.46
Mof_O 	O 	0.1988	0.51316	0.1853	-0.472
Mof_Zn	Zn	0.60496	0.93153	0.99235	1.233
Mof_Zn	Zn	0.36762	0.7362	0.75171	1.232
Mof_Zn	Zn	0.17504	0.94413	0.48787	1.239
Mof_P 	P 	0.4215	0.97973	0.25679	0.466
Mof_H 	H 	0.543	0.9723	0.373	-0.036
Mof_P 	P 	0.54598	0.81219	0.98545	0.472
Mof_H 	H 	0.654	0.804	0.073	-0.067
Mof_P 	P 	0.20489	0.82317	0.5224	0.471
Mof_H 	H 	0.074	0.815	0.442	-0.045
Mof_P 	P 	0.87725	0.97069	0.24344	0.497
Mof_H 	H 	0.967	0.991	0.156	-0.065
Mof_O 	O 	0.4396	0.95159	0.095	-0.453
Mof_O 	O 	0.3854	0.03439	0.222	-0.45
Mof_O 	O 	0.5521	0.86357	0.9036	-0.419
Mof_O 	O 	0.5407	0.76954	0.8594	-0.443
Mof_O 	O 	0.4224	0.80995	0.084	-0.453
Mof_O 	O 	0.2251	0.78511	0.6655	-0.456
Mof_O 	O 	0.3023	0.81481	0.3943	-0.461
Mof_O 	O 	0.2193	0.8769	0.5892	-0.415
Mof_O 	O 	0.3233	0.95279	0.352	-0.44
Mof_O 	O 	0.9858	0.94406	0.3706	-0.474
Mof_O 	O 	0.7766	0.93231	0.1501	-0.458
Mof_O 	O 	0.8012	0.01316	0.3147	-0.475
_end
