data_functionalizedCrystal
_audit_creation_method	'EQeq! by Chris Wilmer'
_symmetry_space_group_name_H-M	'P1'
_symmetry_Int_Tables_number	1
_symmetry_cell_setting	triclinic
loop_
_symmetry_equiv_pos_as_xyz
  x,y,z
_cell_length_a	12.563
_cell_length_b	22.354
_cell_length_c	26.164
_cell_angle_alpha	90
_cell_angle_beta	99.581
_cell_angle_gamma	90
loop_
_atom_site_label
_atom_site_type_symbol
_atom_site_fract_x
_atom_site_fract_y
_atom_site_fract_z
_atom_site_charge
Mof_Mo	Mo	0.71917	0.39247	0.07747	1.117
Mof_Mo	Mo	0.57646	0.26692	0.10837	1.144
Mof_Mo	Mo	0.91832	0.3801	0.06267	1.167
Mof_Mo	Mo	0.04095	0.23844	0.07406	1.081
Mof_Mo	Mo	0.66071	0.16138	0.11214	1.135
Mof_Mo	Mo	0.92942	0.14622	0.09476	1.156
Mof_P 	P 	0.8312	0.088	0.1978	0.594
Mof_P 	P 	0.1445	0.35413	0.14372	0.59
Mof_P 	P 	0.85098	0.27384	0.14772	0.583
Mof_P 	P 	0.59007	0.39108	0.17978	0.598
Mof_Mn	Mn	0.34876	0.43652	0.20384	0.954
Mof_O 	O 	0.8964	0.2807	0.2043	-0.299
Mof_O 	O 	0.8502	0.1323	0.2446	-0.19
Mof_O 	O 	0.9007	0.207	0.0398	-0.616
Mof_O 	O 	0.5792	0.3405	0.0592	-0.502
Mof_O 	O 	0.7686	0.1186	0.0709	-0.503
Mof_O 	O 	0.1109	0.3447	0.1951	-0.359
Mof_O 	O 	0.1536	0.294	0.1151	-0.419
Mof_O 	O 	0.9157	0.0954	0.1615	-0.387
Mof_O 	O 	0.0016	0.3149	0.0267	-0.513
Mof_O 	O 	0.7229	0.1037	0.1686	-0.439
Mof_O 	O 	0.833	0.0253	0.218	-0.392
Mof_O 	O 	0.7849	0.3387	0.0313	-0.635
Mof_O 	O 	0.6222	0.2135	0.1659	-0.505
Mof_O 	O 	0.047	0.1897	0.1359	-0.516
Mof_O 	O 	0.0633	0.395	0.1081	-0.462
Mof_O 	O 	0.6495	0.4196	0.1388	-0.423
Mof_O 	O 	0.5482	0.3287	0.1632	-0.412
Mof_O 	O 	0.7437	0.3089	0.1309	-0.418
Mof_O 	O 	0.8258	0.2068	0.134	-0.422
Mof_O 	O 	0.9306	0.297	0.1125	-0.43
Mof_O 	O 	0.2553	0.3844	0.1488	-0.399
Mof_O 	O 	0.6675	0.3872	0.231	-0.367
Mof_O 	O 	0.6491	0.2239	0.058	-0.626
Mof_O 	O 	0.4963	0.4328	0.1841	-0.417
Mof_O 	O 	0.8551	0.4178	0.1174	-0.547
Mof_Mo	Mo	0.21917	0.89247	0.07747	1.114
Mof_Mo	Mo	0.07646	0.76692	0.10837	1.131
Mof_Mo	Mo	0.41832	0.8801	0.06267	1.127
Mof_Mo	Mo	0.54095	0.73844	0.07406	1.122
Mof_Mo	Mo	0.16071	0.66138	0.11214	1.126
Mof_Mo	Mo	0.42942	0.64622	0.09476	1.121
Mof_P 	P 	0.3312	0.588	0.1978	0.593
Mof_P 	P 	0.6445	0.85413	0.14372	0.592
Mof_P 	P 	0.35098	0.77384	0.14772	0.582
Mof_P 	P 	0.09007	0.89108	0.17978	0.581
Mof_Mn	Mn	0.84876	0.93652	0.20384	0.962
Mof_O 	O 	0.3964	0.7807	0.2043	-0.312
Mof_O 	O 	0.3502	0.6323	0.2446	-0.197
Mof_O 	O 	0.4007	0.707	0.0398	-0.625
Mof_O 	O 	0.0792	0.8405	0.0592	-0.505
Mof_O 	O 	0.2686	0.6186	0.0709	-0.5
Mof_O 	O 	0.6109	0.8447	0.1951	-0.357
Mof_O 	O 	0.6536	0.794	0.1151	-0.42
Mof_O 	O 	0.4157	0.5954	0.1615	-0.39
Mof_O 	O 	0.5016	0.8149	0.0267	-0.497
Mof_O 	O 	0.2229	0.6037	0.1686	-0.441
Mof_O 	O 	0.333	0.5253	0.218	-0.396
Mof_O 	O 	0.2849	0.8387	0.0313	-0.631
Mof_O 	O 	0.1222	0.7135	0.1659	-0.507
Mof_O 	O 	0.547	0.6897	0.1359	-0.502
Mof_O 	O 	0.5633	0.895	0.1081	-0.447
Mof_O 	O 	0.1495	0.9196	0.1388	-0.426
Mof_O 	O 	0.0482	0.8287	0.1632	-0.415
Mof_O 	O 	0.2437	0.8089	0.1309	-0.416
Mof_O 	O 	0.3258	0.7068	0.134	-0.421
Mof_O 	O 	0.4306	0.797	0.1125	-0.442
Mof_O 	O 	0.7553	0.8844	0.1488	-0.396
Mof_O 	O 	0.1675	0.8872	0.231	-0.369
Mof_O 	O 	0.1491	0.7239	0.058	-0.627
Mof_O 	O 	0.9963	0.9328	0.1841	-0.397
Mof_O 	O 	0.3551	0.9178	0.1174	-0.549
Mof_Mo	Mo	0.28083	0.39247	0.42253	1.136
Mof_Mo	Mo	0.42354	0.26692	0.39163	1.153
Mof_Mo	Mo	0.08168	0.3801	0.43733	1.102
Mof_Mo	Mo	0.95905	0.23844	0.42594	1.176
Mof_Mo	Mo	0.33929	0.16138	0.38786	1.144
Mof_Mo	Mo	0.07058	0.14622	0.40524	1.096
Mof_P 	P 	0.1688	0.088	0.3022	0.592
Mof_P 	P 	0.8555	0.35413	0.35628	0.592
Mof_P 	P 	0.14902	0.27384	0.35228	0.582
Mof_P 	P 	0.40993	0.39108	0.32022	0.599
Mof_Mn	Mn	0.65124	0.43652	0.29616	0.959
Mof_O 	O 	0.1036	0.2807	0.2957	-0.315
Mof_O 	O 	0.1498	0.1323	0.2554	-0.201
Mof_O 	O 	0.0993	0.207	0.4602	-0.63
Mof_O 	O 	0.4208	0.3405	0.4408	-0.494
Mof_O 	O 	0.2314	0.1186	0.4291	-0.489
Mof_O 	O 	0.8891	0.3447	0.3049	-0.345
Mof_O 	O 	0.8464	0.294	0.3849	-0.423
Mof_O 	O 	0.0843	0.0954	0.3385	-0.393
Mof_O 	O 	0.9984	0.3149	0.4733	-0.472
Mof_O 	O 	0.2771	0.1037	0.3314	-0.439
Mof_O 	O 	0.167	0.0253	0.282	-0.398
Mof_O 	O 	0.2151	0.3387	0.4687	-0.627
Mof_O 	O 	0.3778	0.2135	0.3341	-0.507
Mof_O 	O 	0.953	0.1897	0.3641	-0.491
Mof_O 	O 	0.9367	0.395	0.3919	-0.428
Mof_O 	O 	0.3505	0.4196	0.3612	-0.426
Mof_O 	O 	0.4518	0.3287	0.3368	-0.412
Mof_O 	O 	0.2563	0.3089	0.3691	-0.421
Mof_O 	O 	0.1742	0.2068	0.366	-0.424
Mof_O 	O 	0.0694	0.297	0.3875	-0.457
Mof_O 	O 	0.7447	0.3844	0.3512	-0.394
Mof_O 	O 	0.3325	0.3872	0.269	-0.369
Mof_O 	O 	0.3509	0.2239	0.442	-0.622
Mof_O 	O 	0.5037	0.4328	0.3159	-0.416
Mof_O 	O 	0.1449	0.4178	0.3826	-0.551
Mof_Mo	Mo	0.78083	0.89247	0.42253	1.138
Mof_Mo	Mo	0.92354	0.76692	0.39163	1.167
Mof_Mo	Mo	0.58168	0.8801	0.43733	1.142
Mof_Mo	Mo	0.45905	0.73844	0.42594	1.131
Mof_Mo	Mo	0.83929	0.66138	0.38786	1.152
Mof_Mo	Mo	0.57058	0.64622	0.40524	1.132
Mof_P 	P 	0.6688	0.588	0.3022	0.594
Mof_P 	P 	0.3555	0.85413	0.35628	0.592
Mof_P 	P 	0.64902	0.77384	0.35228	0.584
Mof_P 	P 	0.90993	0.89108	0.32022	0.615
Mof_Mn	Mn	0.15124	0.93652	0.29616	0.95
Mof_O 	O 	0.6036	0.7807	0.2957	-0.312
Mof_O 	O 	0.6498	0.6323	0.2554	-0.194
Mof_O 	O 	0.5993	0.707	0.4602	-0.621
Mof_O 	O 	0.9208	0.8405	0.4408	-0.49
Mof_O 	O 	0.7314	0.6186	0.4291	-0.492
Mof_O 	O 	0.3891	0.8447	0.3049	-0.358
Mof_O 	O 	0.3464	0.794	0.3849	-0.423
Mof_O 	O 	0.5843	0.5954	0.3385	-0.39
Mof_O 	O 	0.4984	0.8149	0.4733	-0.489
Mof_O 	O 	0.7771	0.6037	0.3314	-0.437
Mof_O 	O 	0.667	0.5253	0.282	-0.393
Mof_O 	O 	0.7151	0.8387	0.4687	-0.631
Mof_O 	O 	0.8778	0.7135	0.3341	-0.506
Mof_O 	O 	0.453	0.6897	0.3641	-0.505
Mof_O 	O 	0.4367	0.895	0.3919	-0.446
Mof_O 	O 	0.8505	0.9196	0.3612	-0.423
Mof_O 	O 	0.9518	0.8287	0.3368	-0.408
Mof_O 	O 	0.7563	0.8089	0.3691	-0.424
Mof_O 	O 	0.6742	0.7068	0.366	-0.426
Mof_O 	O 	0.5694	0.797	0.3875	-0.446
Mof_O 	O 	0.2447	0.8844	0.3512	-0.398
Mof_O 	O 	0.8325	0.8872	0.269	-0.368
Mof_O 	O 	0.8509	0.7239	0.442	-0.621
Mof_O 	O 	0.0037	0.9328	0.3159	-0.435
Mof_O 	O 	0.6449	0.9178	0.3826	-0.551
Mof_Mo	Mo	0.28083	0.60753	0.92253	1.149
Mof_Mo	Mo	0.42354	0.73308	0.89163	1.162
Mof_Mo	Mo	0.08168	0.6199	0.93733	1.117
Mof_Mo	Mo	0.95905	0.76156	0.92594	1.188
Mof_Mo	Mo	0.33929	0.83862	0.88786	1.153
Mof_Mo	Mo	0.07058	0.85378	0.90524	1.106
Mof_P 	P 	0.1688	0.912	0.8022	0.592
Mof_P 	P 	0.8555	0.64587	0.85628	0.592
Mof_P 	P 	0.14902	0.72616	0.85228	0.583
Mof_P 	P 	0.40993	0.60892	0.82022	0.599
Mof_Mn	Mn	0.65124	0.56348	0.79616	0.961
Mof_O 	O 	0.1036	0.7193	0.7957	-0.316
Mof_O 	O 	0.1498	0.8677	0.7554	-0.201
Mof_O 	O 	0.0993	0.793	0.9602	-0.612
Mof_O 	O 	0.4208	0.6595	0.9408	-0.484
Mof_O 	O 	0.2314	0.8814	0.9291	-0.479
Mof_O 	O 	0.8891	0.6553	0.8049	-0.345
Mof_O 	O 	0.8464	0.706	0.8849	-0.421
Mof_O 	O 	0.0843	0.9046	0.8385	-0.392
Mof_O 	O 	0.9984	0.6851	0.9733	-0.46
Mof_O 	O 	0.2771	0.8963	0.8314	-0.438
Mof_O 	O 	0.167	0.9747	0.782	-0.396
Mof_O 	O 	0.2151	0.6613	0.9687	-0.609
Mof_O 	O 	0.3778	0.7865	0.8341	-0.509
Mof_O 	O 	0.953	0.8103	0.8641	-0.493
Mof_O 	O 	0.9367	0.605	0.8919	-0.427
Mof_O 	O 	0.3505	0.5804	0.8612	-0.425
Mof_O 	O 	0.4518	0.6713	0.8368	-0.412
Mof_O 	O 	0.2563	0.6911	0.8691	-0.423
Mof_O 	O 	0.1742	0.7932	0.866	-0.426
Mof_O 	O 	0.0694	0.703	0.8875	-0.459
Mof_O 	O 	0.7447	0.6156	0.8512	-0.391
Mof_O 	O 	0.3325	0.6128	0.769	-0.369
Mof_O 	O 	0.3509	0.7761	0.942	-0.604
Mof_O 	O 	0.5037	0.5672	0.8159	-0.414
Mof_O 	O 	0.1449	0.5822	0.8826	-0.552
Mof_Mo	Mo	0.78083	0.10753	0.92253	1.15
Mof_Mo	Mo	0.92354	0.23308	0.89163	1.174
Mof_Mo	Mo	0.58168	0.1199	0.93733	1.156
Mof_Mo	Mo	0.45905	0.26156	0.92594	1.144
Mof_Mo	Mo	0.83929	0.33862	0.88786	1.161
Mof_Mo	Mo	0.57058	0.35378	0.90524	1.142
Mof_P 	P 	0.6688	0.412	0.8022	0.594
Mof_P 	P 	0.3555	0.14587	0.85628	0.592
Mof_P 	P 	0.64902	0.22616	0.85228	0.585
Mof_P 	P 	0.90993	0.10892	0.82022	0.616
Mof_Mn	Mn	0.15124	0.06348	0.79616	0.951
Mof_O 	O 	0.6036	0.2193	0.7957	-0.313
Mof_O 	O 	0.6498	0.3677	0.7554	-0.194
Mof_O 	O 	0.5993	0.293	0.9602	-0.604
Mof_O 	O 	0.9208	0.1595	0.9408	-0.48
Mof_O 	O 	0.7314	0.3814	0.9291	-0.482
Mof_O 	O 	0.3891	0.1553	0.8049	-0.358
Mof_O 	O 	0.3464	0.206	0.8849	-0.421
Mof_O 	O 	0.5843	0.4046	0.8385	-0.39
Mof_O 	O 	0.4984	0.1851	0.9733	-0.477
Mof_O 	O 	0.7771	0.3963	0.8314	-0.437
Mof_O 	O 	0.667	0.4747	0.782	-0.392
Mof_O 	O 	0.7151	0.1613	0.9687	-0.613
Mof_O 	O 	0.8778	0.2865	0.8341	-0.507
Mof_O 	O 	0.453	0.3103	0.8641	-0.507
Mof_O 	O 	0.4367	0.105	0.8919	-0.444
Mof_O 	O 	0.8505	0.0804	0.8612	-0.422
Mof_O 	O 	0.9518	0.1713	0.8368	-0.408
Mof_O 	O 	0.7563	0.1911	0.8691	-0.425
Mof_O 	O 	0.6742	0.2932	0.866	-0.427
Mof_O 	O 	0.5694	0.203	0.8875	-0.448
Mof_O 	O 	0.2447	0.1156	0.8512	-0.395
Mof_O 	O 	0.8325	0.1128	0.769	-0.369
Mof_O 	O 	0.8509	0.2761	0.942	-0.604
Mof_O 	O 	0.0037	0.0672	0.8159	-0.434
Mof_O 	O 	0.6449	0.0822	0.8826	-0.552
Mof_Mo	Mo	0.71917	0.60753	0.57747	1.129
Mof_Mo	Mo	0.57646	0.73308	0.60837	1.152
Mof_Mo	Mo	0.91832	0.6199	0.56267	1.183
Mof_Mo	Mo	0.04095	0.76156	0.57406	1.092
Mof_Mo	Mo	0.66071	0.83862	0.61214	1.144
Mof_Mo	Mo	0.92942	0.85378	0.59476	1.168
Mof_P 	P 	0.8312	0.912	0.6978	0.595
Mof_P 	P 	0.1445	0.64587	0.64372	0.591
Mof_P 	P 	0.85098	0.72616	0.64772	0.583
Mof_P 	P 	0.59007	0.60892	0.67978	0.598
Mof_Mn	Mn	0.34876	0.56348	0.70384	0.956
Mof_O 	O 	0.8964	0.7193	0.7043	-0.3
Mof_O 	O 	0.8502	0.8677	0.7446	-0.189
Mof_O 	O 	0.9007	0.793	0.5398	-0.612
Mof_O 	O 	0.5792	0.6595	0.5592	-0.494
Mof_O 	O 	0.7686	0.8814	0.5709	-0.496
Mof_O 	O 	0.1109	0.6553	0.6951	-0.36
Mof_O 	O 	0.1536	0.706	0.6151	-0.418
Mof_O 	O 	0.9157	0.9046	0.6615	-0.387
Mof_O 	O 	0.0016	0.6851	0.5267	-0.505
Mof_O 	O 	0.7229	0.8963	0.6686	-0.439
Mof_O 	O 	0.833	0.9747	0.718	-0.391
Mof_O 	O 	0.7849	0.6613	0.5313	-0.633
Mof_O 	O 	0.6222	0.7865	0.6659	-0.507
Mof_O 	O 	0.047	0.8103	0.6359	-0.518
Mof_O 	O 	0.0633	0.605	0.6081	-0.461
Mof_O 	O 	0.6495	0.5804	0.6388	-0.422
Mof_O 	O 	0.5482	0.6713	0.6632	-0.412
Mof_O 	O 	0.7437	0.6911	0.6309	-0.421
Mof_O 	O 	0.8258	0.7932	0.634	-0.425
Mof_O 	O 	0.9306	0.703	0.6125	-0.434
Mof_O 	O 	0.2553	0.6156	0.6488	-0.396
Mof_O 	O 	0.6675	0.6128	0.731	-0.367
Mof_O 	O 	0.6491	0.7761	0.558	-0.623
Mof_O 	O 	0.4963	0.5672	0.6841	-0.415
Mof_O 	O 	0.8551	0.5822	0.6174	-0.548
Mof_Mo	Mo	0.21917	0.10753	0.57747	1.127
Mof_Mo	Mo	0.07646	0.23308	0.60837	1.139
Mof_Mo	Mo	0.41832	0.1199	0.56267	1.142
Mof_Mo	Mo	0.54095	0.26156	0.57406	1.136
Mof_Mo	Mo	0.16071	0.33862	0.61214	1.136
Mof_Mo	Mo	0.42942	0.35378	0.59476	1.132
Mof_P 	P 	0.3312	0.412	0.6978	0.593
Mof_P 	P 	0.6445	0.14587	0.64372	0.592
Mof_P 	P 	0.35098	0.22616	0.64772	0.583
Mof_P 	P 	0.09007	0.10892	0.67978	0.582
Mof_Mn	Mn	0.84876	0.06348	0.70384	0.963
Mof_O 	O 	0.3964	0.2193	0.7043	-0.313
Mof_O 	O 	0.3502	0.3677	0.7446	-0.196
Mof_O 	O 	0.4007	0.293	0.5398	-0.621
Mof_O 	O 	0.0792	0.1595	0.5592	-0.498
Mof_O 	O 	0.2686	0.3814	0.5709	-0.493
Mof_O 	O 	0.6109	0.1553	0.6951	-0.358
Mof_O 	O 	0.6536	0.206	0.6151	-0.418
Mof_O 	O 	0.4157	0.4046	0.6615	-0.389
Mof_O 	O 	0.5016	0.1851	0.5267	-0.488
Mof_O 	O 	0.2229	0.3963	0.6686	-0.441
Mof_O 	O 	0.333	0.4747	0.718	-0.395
Mof_O 	O 	0.2849	0.1613	0.5313	-0.629
Mof_O 	O 	0.1222	0.2865	0.6659	-0.509
Mof_O 	O 	0.547	0.3103	0.6359	-0.504
Mof_O 	O 	0.5633	0.105	0.6081	-0.445
Mof_O 	O 	0.1495	0.0804	0.6388	-0.426
Mof_O 	O 	0.0482	0.1713	0.6632	-0.416
Mof_O 	O 	0.2437	0.1911	0.6309	-0.419
Mof_O 	O 	0.3258	0.2932	0.634	-0.424
Mof_O 	O 	0.4306	0.203	0.6125	-0.446
Mof_O 	O 	0.7553	0.1156	0.6488	-0.393
Mof_O 	O 	0.1675	0.1128	0.731	-0.369
Mof_O 	O 	0.1491	0.2761	0.558	-0.623
Mof_O 	O 	0.9963	0.0672	0.6841	-0.396
Mof_O 	O 	0.3551	0.0822	0.6174	-0.551
Mof_Mn	Mn	0.75	0.25	-0	1.085
Mof_Mn	Mn	0.25	0.25	0.5	1.133
Mof_Mn	Mn	0.25	0.75	-0	1.081
Mof_Mn	Mn	0.75	0.75	0.5	1.137
Mof_Mn	Mn	-1.56913e-17	0.3466	0.25	0.857
Mof_Mn	Mn	0.5	0.8466	0.25	0.888
Mof_Mn	Mn	-3.13825e-17	0.6534	0.75	0.857
Mof_Mn	Mn	0.5	0.1534	0.75	0.888
_end
