data_functionalizedCrystal
_audit_creation_method	'EQeq! by Chris Wilmer'
_symmetry_space_group_name_H-M	'P1'
_symmetry_Int_Tables_number	1
_symmetry_cell_setting	triclinic
loop_
_symmetry_equiv_pos_as_xyz
  x,y,z
_cell_length_a	9.8455
_cell_length_b	17.4197
_cell_length_c	18.1908
_cell_angle_alpha	92.3932
_cell_angle_beta	90
_cell_angle_gamma	106.415
loop_
_atom_site_label
_atom_site_type_symbol
_atom_site_fract_x
_atom_site_fract_y
_atom_site_fract_z
_atom_site_charge
Mof_Zn	Zn	0.14848	0.69334	0.00352	1.22
Mof_Zn	Zn	0.45514	0.30666	0.49648	1.232
Mof_Zn	Zn	0.85152	0.30666	0.99648	1.242
Mof_Zn	Zn	0.54486	0.69334	0.50352	1.233
Mof_Zn	Zn	3.80246e-17	0.5	-0	1.214
Mof_Zn	Zn	0.5	0.5	0.5	1.236
Mof_H 	H 	0.5869	0.9306	0.0853	0.016
Mof_H 	H 	0.3004	0.9356	0.9313	0.021
Mof_H 	H 	0.529	0.568	0.8916	0.076
Mof_H 	H 	0.3177	0.5062	0.0789	0.074
Mof_H 	H 	0.9913	0.733	0.2241	0.058
Mof_H 	H 	0.8681	0.7278	0.3334	0.054
Mof_H 	H 	0.6333	0.506	0.2752	0.046
Mof_H 	H 	0.7528	0.5122	0.1651	0.054
Mof_H 	H 	0.6563	0.0694	0.4147	0.033
Mof_H 	H 	0.3648	0.0644	0.5687	0.043
Mof_H 	H 	0.961	0.432	0.6084	0.016
Mof_H 	H 	0.8115	0.4938	0.4211	0.003
Mof_H 	H 	0.2583	0.267	0.2759	0.047
Mof_H 	H 	0.1403	0.2722	0.1666	0.038
Mof_H 	H 	0.1273	0.494	0.2248	0.04
Mof_H 	H 	0.2406	0.4878	0.3349	0.054
Mof_H 	H 	0.4131	0.0694	0.9147	0.059
Mof_H 	H 	0.6996	0.0644	0.0687	0.078
Mof_H 	H 	0.471	0.432	0.1084	0.025
Mof_H 	H 	0.6823	0.4938	0.9211	0.014
Mof_H 	H 	0.0087	0.267	0.7759	0.047
Mof_H 	H 	0.1319	0.2722	0.6666	0.039
Mof_H 	H 	0.3667	0.494	0.7248	0.039
Mof_H 	H 	0.2472	0.4878	0.8349	0.06
Mof_H 	H 	0.3437	0.9306	0.5853	0.039
Mof_H 	H 	0.6352	0.9356	0.4313	0.059
Mof_H 	H 	0.039	0.568	0.3916	0.085
Mof_H 	H 	0.1885	0.5062	0.5789	0.083
Mof_H 	H 	0.7417	0.733	0.7241	0.056
Mof_H 	H 	0.8597	0.7278	0.8334	0.054
Mof_H 	H 	0.8727	0.506	0.7752	0.046
Mof_H 	H 	0.7594	0.5122	0.6651	0.059
Mof_C 	C 	0.35835	0.8319	0.02133	0.288
Mof_C 	C 	0.43218	0.91916	0.00987	-0.139
Mof_C 	C 	0.55151	0.95822	0.05089	0.022
Mof_C 	C 	0.38094	0.96128	0.95908	0.061
Mof_C 	C 	0.31226	0.59372	0.96343	0.341
Mof_C 	C 	0.40779	0.54438	0.98234	0.009
Mof_C 	C 	0.51728	0.54076	0.93504	-0.09
Mof_C 	C 	0.3907	0.5038	0.0472	-0.126
Mof_C 	C 	0.95487	0.62874	0.11005	0.413
Mof_C 	C 	0.88127	0.62394	0.18324	-0.082
Mof_C 	C 	0.91784	0.68768	0.23394	-0.012
Mof_C 	C 	0.84487	0.68434	0.29978	-0.019
Mof_C 	C 	0.73767	0.61634	0.31538	-0.081
Mof_C 	C 	0.70431	0.55202	0.26478	-0.028
Mof_C 	C 	0.77581	0.55562	0.19877	-0.02
Mof_C 	C 	0.65678	0.61176	0.38571	0.377
Mof_C 	C 	0.52645	0.1681	0.47867	0.313
Mof_C 	C 	0.51302	0.08084	0.49013	-0.075
Mof_C 	C 	0.59329	0.04178	0.44911	-0.009
Mof_C 	C 	0.41966	0.03872	0.54092	-0.017
Mof_C 	C 	0.71854	0.40628	0.53657	0.357
Mof_C 	C 	0.86341	0.45562	0.51766	-0.152
Mof_C 	C 	0.97652	0.45924	0.56496	0.109
Mof_C 	C 	0.8869	0.4962	0.4528	0.106
Mof_C 	C 	0.32613	0.37126	0.38995	0.362
Mof_C 	C 	0.25733	0.37606	0.31676	-0.075
Mof_C 	C 	0.23016	0.31232	0.26606	-0.025
Mof_C 	C 	0.16053	0.31566	0.20022	-0.024
Mof_C 	C 	0.12133	0.38366	0.18462	-0.083
Mof_C 	C 	0.15229	0.44798	0.23522	-0.031
Mof_C 	C 	0.22019	0.44438	0.30123	-0.032
Mof_C 	C 	0.04502	0.38824	0.11429	0.33
Mof_C 	C 	0.64165	0.1681	0.97867	0.322
Mof_C 	C 	0.56782	0.08084	0.99013	0.007
Mof_C 	C 	0.44849	0.04178	0.94911	-0.092
Mof_C 	C 	0.61906	0.03872	0.04092	-0.113
Mof_C 	C 	0.68774	0.40628	0.03657	0.318
Mof_C 	C 	0.59221	0.45562	0.01766	-0.151
Mof_C 	C 	0.48272	0.45924	0.06496	0.05
Mof_C 	C 	0.6093	0.4962	0.9528	0.078
Mof_C 	C 	0.04513	0.37126	0.88995	0.317
Mof_C 	C 	0.11873	0.37606	0.81676	-0.055
Mof_C 	C 	0.08216	0.31232	0.76606	-0.042
Mof_C 	C 	0.15513	0.31566	0.70022	-0.006
Mof_C 	C 	0.26233	0.38366	0.68462	-0.099
Mof_C 	C 	0.29569	0.44798	0.73522	-0.013
Mof_C 	C 	0.22419	0.44438	0.80123	-0.047
Mof_C 	C 	0.34322	0.38824	0.61429	0.38
Mof_C 	C 	0.47355	0.8319	0.52133	0.304
Mof_C 	C 	0.48698	0.91916	0.50987	-0.051
Mof_C 	C 	0.40671	0.95822	0.55089	-0.049
Mof_C 	C 	0.58034	0.96128	0.45908	-0.054
Mof_C 	C 	0.28146	0.59372	0.46343	0.296
Mof_C 	C 	0.13659	0.54438	0.48234	0.008
Mof_C 	C 	0.02348	0.54076	0.43504	-0.15
Mof_C 	C 	0.1131	0.5038	0.5472	-0.151
Mof_C 	C 	0.67387	0.62874	0.61005	0.362
Mof_C 	C 	0.74267	0.62394	0.68324	-0.064
Mof_C 	C 	0.76984	0.68768	0.73394	-0.028
Mof_C 	C 	0.83947	0.68434	0.79978	-0.004
Mof_C 	C 	0.87867	0.61634	0.81538	-0.094
Mof_C 	C 	0.84771	0.55202	0.76478	-0.013
Mof_C 	C 	0.77981	0.55562	0.69877	-0.034
Mof_C 	C 	0.95498	0.61176	0.88571	0.415
Mof_O 	O 	0.25396	0.79932	0.97705	-0.407
Mof_O 	O 	0.39564	0.79628	0.07112	-0.32
Mof_O 	O 	0.20995	0.5945	0.00857	-0.579
Mof_O 	O 	0.33539	0.63438	0.90815	-0.325
Mof_O 	O 	0.05494	0.69088	0.0994	-0.507
Mof_O 	O 	0.09043	0.42866	0.93598	-0.441
Mof_O 	O 	0.66467	0.67754	0.41997	-0.461
Mof_O 	O 	0.58864	0.54348	0.40425	-0.458
Mof_O 	O 	0.45464	0.20068	0.52295	-0.441
Mof_O 	O 	0.59936	0.20372	0.42888	-0.318
Mof_O 	O 	0.61545	0.4055	0.49143	-0.552
Mof_O 	O 	0.70101	0.36562	0.59185	-0.331
Mof_O 	O 	0.36406	0.30912	0.4006	-0.463
Mof_O 	O 	0.66177	0.57134	0.56402	-0.455
Mof_O 	O 	0.98713	0.32246	0.08003	-0.432
Mof_O 	O 	0.04516	0.45652	0.09575	-0.47
Mof_O 	O 	0.74604	0.20068	0.02295	-0.463
Mof_O 	O 	0.60436	0.20372	0.92888	-0.316
Mof_O 	O 	0.79005	0.4055	0.99143	-0.511
Mof_O 	O 	0.66461	0.36562	0.09185	-0.326
Mof_O 	O 	0.94506	0.30912	0.9006	-0.42
Mof_O 	O 	0.90957	0.57134	0.06402	-0.463
Mof_O 	O 	0.33533	0.32246	0.58003	-0.467
Mof_O 	O 	0.41136	0.45652	0.59575	-0.464
Mof_O 	O 	0.54536	0.79932	0.47705	-0.437
Mof_O 	O 	0.40064	0.79628	0.57112	-0.32
Mof_O 	O 	0.38455	0.5945	0.50857	-0.539
Mof_O 	O 	0.29899	0.63438	0.40815	-0.32
Mof_O 	O 	0.63594	0.69088	0.5994	-0.458
Mof_O 	O 	0.33823	0.42866	0.43598	-0.459
Mof_O 	O 	0.01287	0.67754	0.91997	-0.484
Mof_O 	O 	0.95484	0.54348	0.90425	-0.445
Mof_H 	H 	0.2988	0.7158	0.8383	0.157
Mof_H 	H 	0.4264	0.7812	0.8308	0.147
Mof_H 	H 	0.4337	0.7488	0.707	-0.082
Mof_H 	H 	0.4542	0.6822	0.7575	-0.081
Mof_H 	H 	0.2044	0.6782	0.6823	0.306
Mof_H 	H 	0.2982	0.62	0.6673	0.307
Mof_H 	H 	0.2112	0.615	0.74	0.301
Mof_H 	H 	0.1788	0.7798	0.7613	-0.087
Mof_H 	H 	0.2216	0.8228	0.8388	-0.073
Mof_H 	H 	0.3739	0.8672	0.7093	0.294
Mof_H 	H 	0.2848	0.917	0.7504	0.272
Mof_H 	H 	0.4237	0.9084	0.7868	0.279
Mof_C 	C 	0.3869	0.7098	0.742	0.383
Mof_C 	C 	0.26421	0.65042	0.7045	-0.91
Mof_C 	C 	0.25865	0.8077	0.7928	0.354
Mof_C 	C 	0.34288	0.88176	0.7565	-0.863
Mof_N 	N 	0.34643	0.75266	0.80735	-0.359
Mof_H 	H 	0.583	0.2842	0.6617	0.158
Mof_H 	H 	0.6452	0.2188	0.6692	0.147
Mof_H 	H 	0.6849	0.2512	0.793	-0.084
Mof_H 	H 	0.772	0.3178	0.7425	-0.079
Mof_H 	H 	0.5262	0.3218	0.8177	0.322
Mof_H 	H 	0.6782	0.38	0.8327	0.322
Mof_H 	H 	0.5962	0.385	0.76	0.316
Mof_H 	H 	0.399	0.2202	0.7387	-0.082
Mof_H 	H 	0.3988	0.1772	0.6612	-0.073
Mof_H 	H 	0.5067	0.1328	0.7907	0.296
Mof_H 	H 	0.3678	0.083	0.7496	0.275
Mof_H 	H 	0.5153	0.0916	0.7132	0.281
Mof_C 	C 	0.6771	0.2902	0.758	0.397
Mof_C 	C 	0.61379	0.34958	0.7955	-0.941
Mof_C 	C 	0.45095	0.1923	0.7072	0.354
Mof_C 	C 	0.46112	0.11824	0.7435	-0.867
Mof_N 	N 	0.59377	0.24734	0.69265	-0.361
Mof_H 	H 	0.7012	0.2842	0.1617	0.157
Mof_H 	H 	0.5736	0.2188	0.1692	0.139
Mof_H 	H 	0.5663	0.2512	0.293	-0.094
Mof_H 	H 	0.5458	0.3178	0.2425	-0.092
Mof_H 	H 	0.7956	0.3218	0.3177	0.337
Mof_H 	H 	0.7018	0.38	0.3327	0.332
Mof_H 	H 	0.7888	0.385	0.26	0.332
Mof_H 	H 	0.8212	0.2202	0.2387	-0.072
Mof_H 	H 	0.7784	0.1772	0.1612	-0.067
Mof_H 	H 	0.6261	0.1328	0.2907	0.292
Mof_H 	H 	0.7152	0.083	0.2496	0.276
Mof_H 	H 	0.5763	0.0916	0.2132	0.273
Mof_C 	C 	0.6131	0.2902	0.258	0.418
Mof_C 	C 	0.73579	0.34958	0.2955	-0.976
Mof_C 	C 	0.74135	0.1923	0.2072	0.343
Mof_C 	C 	0.65712	0.11824	0.2435	-0.854
Mof_N 	N 	0.65357	0.24734	0.19265	-0.36
Mof_H 	H 	0.417	0.7158	0.3383	0.155
Mof_H 	H 	0.3548	0.7812	0.3308	0.139
Mof_H 	H 	0.3151	0.7488	0.207	-0.092
Mof_H 	H 	0.228	0.6822	0.2575	-0.095
Mof_H 	H 	0.4738	0.6782	0.1823	0.319
Mof_H 	H 	0.3218	0.62	0.1673	0.315
Mof_H 	H 	0.4038	0.615	0.24	0.315
Mof_H 	H 	0.601	0.7798	0.2613	-0.077
Mof_H 	H 	0.6012	0.8228	0.3388	-0.067
Mof_H 	H 	0.4933	0.8672	0.2093	0.287
Mof_H 	H 	0.6322	0.917	0.2504	0.269
Mof_H 	H 	0.4847	0.9084	0.2868	0.268
Mof_C 	C 	0.3229	0.7098	0.242	0.403
Mof_C 	C 	0.38621	0.65042	0.2045	-0.942
Mof_C 	C 	0.54905	0.8077	0.2928	0.34
Mof_C 	C 	0.53888	0.88176	0.2565	-0.844
Mof_N 	N 	0.40623	0.75266	0.30735	-0.358
_end
