data_functionalizedCrystal
_audit_creation_method	'EQeq! by Chris Wilmer'
_symmetry_space_group_name_H-M	'P1'
_symmetry_Int_Tables_number	1
_symmetry_cell_setting	triclinic
loop_
_symmetry_equiv_pos_as_xyz
  x,y,z
_cell_length_a	7.3785
_cell_length_b	11.7625
_cell_length_c	14.4288
_cell_angle_alpha	90
_cell_angle_beta	90
_cell_angle_gamma	98.999
loop_
_atom_site_label
_atom_site_type_symbol
_atom_site_fract_x
_atom_site_fract_y
_atom_site_fract_z
_atom_site_charge
Mof_Mn	Mn	0.50053	0.52418	0.50002	0.632
Mof_Mn	Mn	0.97104	0.97307	0.02671	0.58
Mof_Mn	Mn	0.49947	0.47582	2e-05	0.552
Mof_Mn	Mn	0.02896	0.02693	0.52671	0.632
Mof_Nb	Nb	0.94357	0.33979	0.25848	1.09
Mof_Nb	Nb	0.05643	0.66021	0.75848	1.088
Mof_H 	H 	0.671	0.1415	0.0467	0.016
Mof_H 	H 	0.3582	0.1439	0.0419	0.009
Mof_H 	H 	0.2736	0.807	0.0049	0.003
Mof_H 	H 	0.586	0.8062	0.0074	-0.006
Mof_H 	H 	0.329	0.8585	0.5467	0.019
Mof_H 	H 	0.6418	0.8561	0.5419	0.013
Mof_H 	H 	0.7264	0.193	0.5049	0.021
Mof_H 	H 	0.414	0.1938	0.5074	0.01
Mof_C 	C 	0.6932	0.2013	0.2725	-0.128
Mof_C 	C 	0.9483	0.5309	0.2322	-0.14
Mof_C 	C 	0.7706	0.3924	0.3733	-0.136
Mof_C 	C 	0.1662	0.432	0.3492	-0.129
Mof_C 	C 	0.1729	0.3931	0.1578	-0.133
Mof_C 	C 	0.7669	0.3581	0.1356	-0.143
Mof_C 	C 	0.9931	0.1888	0.173	-0.13
Mof_C 	C 	0.0204	0.2182	0.3654	-0.129
Mof_C 	C 	0.5903	0.0711	0.0376	0.001
Mof_C 	C 	0.4027	0.0727	0.0354	-0
Mof_C 	C 	0.3542	0.8775	0.0135	-0.005
Mof_C 	C 	0.541	0.877	0.0152	0
Mof_C 	C 	0.3068	0.7987	0.7725	-0.118
Mof_C 	C 	0.0517	0.4691	0.7322	-0.13
Mof_C 	C 	0.2294	0.6076	0.8733	-0.12
Mof_C 	C 	0.8338	0.568	0.8492	-0.114
Mof_C 	C 	0.8271	0.6069	0.6578	-0.123
Mof_C 	C 	0.2331	0.6419	0.6356	-0.136
Mof_C 	C 	0.0069	0.8112	0.673	-0.126
Mof_C 	C 	0.9796	0.7818	0.8654	-0.109
Mof_C 	C 	0.4097	0.9289	0.5376	0.008
Mof_C 	C 	0.5973	0.9273	0.5354	0.008
Mof_C 	C 	0.6458	0.1225	0.5135	0.005
Mof_C 	C 	0.459	0.123	0.5152	0.011
Mof_N 	N 	0.5694	0.129	0.2777	-0.076
Mof_N 	N 	0.9556	0.6261	0.2138	-0.092
Mof_N 	N 	0.6788	0.4185	0.4308	-0.145
Mof_N 	N 	0.2762	0.4764	0.3994	-0.145
Mof_N 	N 	0.2828	0.4194	0.1016	-0.148
Mof_N 	N 	0.6769	0.3712	0.07305	-0.146
Mof_N 	N 	0.0105	0.113	0.12539	-0.146
Mof_N 	N 	0.0545	0.1588	0.4236	-0.151
Mof_N 	N 	0.662	0.9743	0.02763	-0.172
Mof_N 	N 	0.2826	0.9753	0.02418	-0.17
Mof_N 	N 	0.4306	0.871	0.7777	-0.063
Mof_N 	N 	0.0444	0.3739	0.7138	-0.082
Mof_N 	N 	0.3212	0.5815	0.9308	-0.111
Mof_N 	N 	0.7238	0.5236	0.8994	-0.114
Mof_N 	N 	0.7172	0.5806	0.6016	-0.146
Mof_N 	N 	0.3231	0.6288	0.57305	-0.143
Mof_N 	N 	0.9895	0.887	0.62539	-0.145
Mof_N 	N 	0.9455	0.8412	0.9236	-0.115
Mof_N 	N 	0.338	0.0257	0.52763	-0.168
Mof_N 	N 	0.7174	0.0247	0.52418	-0.165
_end
