data_functionalizedCrystal
_audit_creation_method	'EQeq! by Chris Wilmer'
_symmetry_space_group_name_H-M	'P1'
_symmetry_Int_Tables_number	1
_symmetry_cell_setting	triclinic
loop_
_symmetry_equiv_pos_as_xyz
  x,y,z
_cell_length_a	15.405
_cell_length_b	15.405
_cell_length_c	15.456
_cell_angle_alpha	90
_cell_angle_beta	90
_cell_angle_gamma	120
loop_
_atom_site_label
_atom_site_type_symbol
_atom_site_fract_x
_atom_site_fract_y
_atom_site_fract_z
_atom_site_charge
Mof_Sm	Sm	0.33333	0.66666	0.75	2.288
Mof_Sm	Sm	0.66667	0.33334	0.75	2.288
Mof_Sm	Sm	0.66667	0.33334	0.25	2.271
Mof_Sm	Sm	0.33333	0.66666	0.25	2.271
Mof_Fe	Fe	0.5	0	-0	0.631
Mof_Fe	Fe	0.5	0.5	-0	0.7
Mof_Fe	Fe	-3.57898e-17	0.5	-0	0.631
Mof_Fe	Fe	0.5	-7.94693e-33	0.5	0.75
Mof_Fe	Fe	-2.56453e-17	0.5	0.5	0.75
Mof_Fe	Fe	0.5	0.5	0.5	0.821
Mof_H 	H 	0.7128	0.9463	0.8445	0.081
Mof_H 	H 	0.2335	0.2872	0.8445	0.061
Mof_H 	H 	0.0537	0.7665	0.8445	0.057
Mof_H 	H 	0.2872	0.0537	0.8445	0.052
Mof_H 	H 	0.7665	0.7128	0.8445	0.071
Mof_H 	H 	0.9463	0.2335	0.8445	0.076
Mof_H 	H 	0.7665	0.0537	0.6555	0.044
Mof_H 	H 	0.9463	0.7128	0.6555	0.068
Mof_H 	H 	0.2872	0.2335	0.6555	0.048
Mof_H 	H 	0.2335	0.9463	0.6555	0.063
Mof_H 	H 	0.0537	0.2872	0.6555	0.038
Mof_H 	H 	0.7128	0.7665	0.6555	0.058
Mof_H 	H 	0.2872	0.0537	0.1555	0.026
Mof_H 	H 	0.7665	0.7128	0.1555	0.046
Mof_H 	H 	0.9463	0.2335	0.1555	0.052
Mof_H 	H 	0.7128	0.9463	0.1555	0.057
Mof_H 	H 	0.2335	0.2872	0.1555	0.035
Mof_H 	H 	0.0537	0.7665	0.1555	0.032
Mof_H 	H 	0.2335	0.9463	0.3445	0.062
Mof_H 	H 	0.0537	0.2872	0.3445	0.037
Mof_H 	H 	0.7128	0.7665	0.3445	0.056
Mof_H 	H 	0.7665	0.0537	0.3445	0.042
Mof_H 	H 	0.9463	0.7128	0.3445	0.067
Mof_H 	H 	0.2872	0.2335	0.3445	0.046
Mof_H 	H 	0.8001	0.90005	0.75	0.056
Mof_H 	H 	0.09995	0.1999	0.75	0.024
Mof_H 	H 	0.09995	0.90005	0.75	0.04
Mof_H 	H 	0.1999	0.09995	0.75	0.024
Mof_H 	H 	0.90005	0.8001	0.75	0.056
Mof_H 	H 	0.90005	0.09995	0.75	0.04
Mof_H 	H 	0.1999	0.09995	0.25	0.02
Mof_H 	H 	0.90005	0.8001	0.25	0.053
Mof_H 	H 	0.90005	0.09995	0.25	0.036
Mof_H 	H 	0.8001	0.90005	0.25	0.053
Mof_H 	H 	0.09995	0.1999	0.25	0.02
Mof_H 	H 	0.09995	0.90005	0.25	0.036
Mof_C 	C 	0.51	0.864	0.8616	0.347
Mof_C 	C 	0.5753	0.8401	0.8035	-0.005
Mof_C 	C 	0.6788	0.8932	0.8062	-0.032
Mof_C 	C 	0.354	0.49	0.8616	0.352
Mof_C 	C 	0.2648	0.4247	0.8035	-0.018
Mof_C 	C 	0.2144	0.3212	0.8062	-0.038
Mof_C 	C 	0.136	0.646	0.8616	0.351
Mof_C 	C 	0.1599	0.7352	0.8035	-0.017
Mof_C 	C 	0.1068	0.7856	0.8062	-0.036
Mof_C 	C 	0.49	0.136	0.8616	0.35
Mof_C 	C 	0.4247	0.1599	0.8035	-0.021
Mof_C 	C 	0.3212	0.1068	0.8062	-0.039
Mof_C 	C 	0.646	0.51	0.8616	0.353
Mof_C 	C 	0.7352	0.5753	0.8035	-0.011
Mof_C 	C 	0.7856	0.6788	0.8062	-0.031
Mof_C 	C 	0.864	0.354	0.8616	0.347
Mof_C 	C 	0.8401	0.2648	0.8035	-0.008
Mof_C 	C 	0.8932	0.2144	0.8062	-0.036
Mof_C 	C 	0.646	0.136	0.6384	0.359
Mof_C 	C 	0.7352	0.1599	0.6965	-0.028
Mof_C 	C 	0.7856	0.1068	0.6938	-0.034
Mof_C 	C 	0.864	0.51	0.6384	0.355
Mof_C 	C 	0.8401	0.5753	0.6965	-0.015
Mof_C 	C 	0.8932	0.6788	0.6938	-0.03
Mof_C 	C 	0.49	0.354	0.6384	0.36
Mof_C 	C 	0.4247	0.2648	0.6965	-0.028
Mof_C 	C 	0.3212	0.2144	0.6938	-0.036
Mof_C 	C 	0.354	0.864	0.6384	0.354
Mof_C 	C 	0.2648	0.8401	0.6965	-0.018
Mof_C 	C 	0.2144	0.8932	0.6938	-0.034
Mof_C 	C 	0.136	0.49	0.6384	0.358
Mof_C 	C 	0.1599	0.4247	0.6965	-0.032
Mof_C 	C 	0.1068	0.3212	0.6938	-0.037
Mof_C 	C 	0.51	0.646	0.6384	0.361
Mof_C 	C 	0.5753	0.7352	0.6965	-0.022
Mof_C 	C 	0.6788	0.7856	0.6938	-0.029
Mof_C 	C 	0.49	0.136	0.1384	0.352
Mof_C 	C 	0.4247	0.1599	0.1965	-0.04
Mof_C 	C 	0.3212	0.1068	0.1938	-0.034
Mof_C 	C 	0.646	0.51	0.1384	0.356
Mof_C 	C 	0.7352	0.5753	0.1965	-0.03
Mof_C 	C 	0.7856	0.6788	0.1938	-0.026
Mof_C 	C 	0.864	0.354	0.1384	0.349
Mof_C 	C 	0.8401	0.2648	0.1965	-0.027
Mof_C 	C 	0.8932	0.2144	0.1938	-0.031
Mof_C 	C 	0.51	0.864	0.1384	0.35
Mof_C 	C 	0.5753	0.8401	0.1965	-0.024
Mof_C 	C 	0.6788	0.8932	0.1938	-0.027
Mof_C 	C 	0.354	0.49	0.1384	0.355
Mof_C 	C 	0.2648	0.4247	0.1965	-0.037
Mof_C 	C 	0.2144	0.3212	0.1938	-0.033
Mof_C 	C 	0.136	0.646	0.1384	0.353
Mof_C 	C 	0.1599	0.7352	0.1965	-0.036
Mof_C 	C 	0.1068	0.7856	0.1938	-0.031
Mof_C 	C 	0.354	0.864	0.3616	0.355
Mof_C 	C 	0.2648	0.8401	0.3035	-0.022
Mof_C 	C 	0.2144	0.8932	0.3062	-0.03
Mof_C 	C 	0.136	0.49	0.3616	0.358
Mof_C 	C 	0.1599	0.4247	0.3035	-0.036
Mof_C 	C 	0.1068	0.3212	0.3062	-0.033
Mof_C 	C 	0.51	0.646	0.3616	0.362
Mof_C 	C 	0.5753	0.7352	0.3035	-0.026
Mof_C 	C 	0.6788	0.7856	0.3062	-0.025
Mof_C 	C 	0.646	0.136	0.3616	0.359
Mof_C 	C 	0.7352	0.1599	0.3035	-0.032
Mof_C 	C 	0.7856	0.1068	0.3062	-0.03
Mof_C 	C 	0.864	0.51	0.3616	0.356
Mof_C 	C 	0.8401	0.5753	0.3035	-0.019
Mof_C 	C 	0.8932	0.6788	0.3062	-0.026
Mof_C 	C 	0.49	0.354	0.3616	0.36
Mof_C 	C 	0.4247	0.2648	0.3035	-0.033
Mof_C 	C 	0.3212	0.2144	0.3062	-0.032
Mof_C 	C 	0.7304	0.8652	0.75	-0.023
Mof_C 	C 	0.1348	0.2696	0.75	-0.036
Mof_C 	C 	0.1348	0.8652	0.75	-0.028
Mof_C 	C 	0.2696	0.1348	0.75	-0.036
Mof_C 	C 	0.8652	0.7304	0.75	-0.023
Mof_C 	C 	0.8652	0.1348	0.75	-0.028
Mof_C 	C 	0.2696	0.1348	0.25	-0.049
Mof_C 	C 	0.8652	0.7304	0.25	-0.035
Mof_C 	C 	0.8652	0.1348	0.25	-0.041
Mof_C 	C 	0.7304	0.8652	0.25	-0.035
Mof_C 	C 	0.1348	0.2696	0.25	-0.049
Mof_C 	C 	0.1348	0.8652	0.25	-0.041
Mof_N 	N 	0.5243	0.76215	0.75	-0.212
Mof_N 	N 	0.23785	0.4757	0.75	-0.212
Mof_N 	N 	0.23785	0.76215	0.75	-0.213
Mof_N 	N 	0.4757	0.23785	0.75	-0.212
Mof_N 	N 	0.76215	0.5243	0.75	-0.212
Mof_N 	N 	0.76215	0.23785	0.75	-0.212
Mof_N 	N 	0.4757	0.23785	0.25	-0.21
Mof_N 	N 	0.76215	0.5243	0.25	-0.21
Mof_N 	N 	0.76215	0.23785	0.25	-0.21
Mof_N 	N 	0.5243	0.76215	0.25	-0.21
Mof_N 	N 	0.23785	0.4757	0.25	-0.21
Mof_N 	N 	0.23785	0.76215	0.25	-0.21
Mof_O 	O 	0.5534	0.9406	0.9066	-0.275
Mof_O 	O 	0.4154	0.8033	0.8571	-0.437
Mof_O 	O 	0.3872	0.4466	0.9066	-0.31
Mof_O 	O 	0.3879	0.5846	0.8571	-0.447
Mof_O 	O 	0.0594	0.6128	0.9066	-0.315
Mof_O 	O 	0.1967	0.6121	0.8571	-0.45
Mof_O 	O 	0.4466	0.0594	0.9066	-0.317
Mof_O 	O 	0.5846	0.1967	0.8571	-0.45
Mof_O 	O 	0.6128	0.5534	0.9066	-0.307
Mof_O 	O 	0.6121	0.4154	0.8571	-0.446
Mof_O 	O 	0.9406	0.3872	0.9066	-0.277
Mof_O 	O 	0.8033	0.3879	0.8571	-0.437
Mof_O 	O 	0.6128	0.0594	0.5934	-0.369
Mof_O 	O 	0.6121	0.1967	0.6429	-0.473
Mof_O 	O 	0.9406	0.5534	0.5934	-0.328
Mof_O 	O 	0.8033	0.4154	0.6429	-0.46
Mof_O 	O 	0.4466	0.3872	0.5934	-0.365
Mof_O 	O 	0.5846	0.3879	0.6429	-0.471
Mof_O 	O 	0.3872	0.9406	0.5934	-0.33
Mof_O 	O 	0.3879	0.8033	0.6429	-0.46
Mof_O 	O 	0.0594	0.4466	0.5934	-0.371
Mof_O 	O 	0.1967	0.5846	0.6429	-0.474
Mof_O 	O 	0.5534	0.6128	0.5934	-0.361
Mof_O 	O 	0.4154	0.6121	0.6429	-0.47
Mof_O 	O 	0.4466	0.0594	0.0934	-0.378
Mof_O 	O 	0.5846	0.1967	0.1429	-0.481
Mof_O 	O 	0.6128	0.5534	0.0934	-0.367
Mof_O 	O 	0.6121	0.4154	0.1429	-0.477
Mof_O 	O 	0.9406	0.3872	0.0934	-0.335
Mof_O 	O 	0.8033	0.3879	0.1429	-0.468
Mof_O 	O 	0.5534	0.9406	0.0934	-0.334
Mof_O 	O 	0.4154	0.8033	0.1429	-0.467
Mof_O 	O 	0.3872	0.4466	0.0934	-0.371
Mof_O 	O 	0.3879	0.5846	0.1429	-0.479
Mof_O 	O 	0.0594	0.6128	0.0934	-0.375
Mof_O 	O 	0.1967	0.6121	0.1429	-0.481
Mof_O 	O 	0.3872	0.9406	0.4066	-0.329
Mof_O 	O 	0.3879	0.8033	0.3571	-0.459
Mof_O 	O 	0.0594	0.4466	0.4066	-0.371
Mof_O 	O 	0.1967	0.5846	0.3571	-0.472
Mof_O 	O 	0.5534	0.6128	0.4066	-0.361
Mof_O 	O 	0.4154	0.6121	0.3571	-0.468
Mof_O 	O 	0.6128	0.0594	0.4066	-0.369
Mof_O 	O 	0.6121	0.1967	0.3571	-0.472
Mof_O 	O 	0.9406	0.5534	0.4066	-0.328
Mof_O 	O 	0.8033	0.4154	0.3571	-0.458
Mof_O 	O 	0.4466	0.3872	0.4066	-0.365
Mof_O 	O 	0.5846	0.3879	0.3571	-0.469
_end
