data_functionalizedCrystal
_audit_creation_method	'EQeq! by Chris Wilmer'
_symmetry_space_group_name_H-M	'P1'
_symmetry_Int_Tables_number	1
_symmetry_cell_setting	triclinic
loop_
_symmetry_equiv_pos_as_xyz
  x,y,z
_cell_length_a	10.42
_cell_length_b	10.4523
_cell_length_c	11.6221
_cell_angle_alpha	90
_cell_angle_beta	90
_cell_angle_gamma	90
loop_
_atom_site_label
_atom_site_type_symbol
_atom_site_fract_x
_atom_site_fract_y
_atom_site_fract_z
_atom_site_charge
Mof_Zn	Zn	0.55313	0.20064	0.11876	1.251
Mof_P 	P 	0.3123	0.1601	0.9551	0.579
Mof_P 	P 	0.4868	0.9276	0.1994	0.585
Mof_O 	O 	0.5606	0.0489	0.2049	-0.432
Mof_O 	O 	0.5214	0.8371	0.2944	-0.426
Mof_O 	O 	0.2448	0.1146	0.0617	-0.373
Mof_O 	O 	0.4547	0.1897	0.9801	-0.405
Mof_O 	O 	0.2371	0.2734	0.9116	-0.4
Mof_O 	O 	0.3455	0.9552	0.1992	-0.296
Mof_O 	O 	0.5176	0.8653	0.0839	-0.348
Mof_O 	O 	0.312	0.0536	0.8649	-0.342
Mof_H 	H 	0.263	0.024	0.087	0.208
Mof_H 	H 	0.236	0.005	0.84	0.205
Mof_H 	H 	0.447	0.851	0.028	0.19
Mof_Zn	Zn	0.94687	0.79936	0.61876	1.251
Mof_P 	P 	0.1877	0.8399	0.4551	0.579
Mof_P 	P 	0.0132	0.0724	0.6994	0.58
Mof_O 	O 	0.9394	0.9511	0.7049	-0.437
Mof_O 	O 	0.9786	0.1629	0.7944	-0.42
Mof_O 	O 	0.2552	0.8854	0.5617	-0.372
Mof_O 	O 	0.0453	0.8103	0.4801	-0.402
Mof_O 	O 	0.2629	0.7266	0.4116	-0.399
Mof_O 	O 	0.1545	0.0448	0.6992	-0.298
Mof_O 	O 	0.9824	0.1347	0.5839	-0.339
Mof_O 	O 	0.188	0.9464	0.3649	-0.34
Mof_H 	H 	0.237	0.976	0.587	0.211
Mof_H 	H 	0.264	0.995	0.34	0.206
Mof_H 	H 	0.053	0.149	0.528	0.185
Mof_Zn	Zn	0.44687	0.70064	0.38124	1.252
Mof_P 	P 	0.6877	0.6601	0.5449	0.579
Mof_P 	P 	0.5132	0.4276	0.3006	0.587
Mof_O 	O 	0.4394	0.5489	0.2951	-0.433
Mof_O 	O 	0.4786	0.3371	0.2056	-0.426
Mof_O 	O 	0.7552	0.6146	0.4383	-0.373
Mof_O 	O 	0.5453	0.6897	0.5199	-0.406
Mof_O 	O 	0.7629	0.7734	0.5884	-0.401
Mof_O 	O 	0.6545	0.4552	0.3008	-0.298
Mof_O 	O 	0.4824	0.3653	0.4161	-0.347
Mof_O 	O 	0.688	0.5536	0.6351	-0.342
Mof_H 	H 	0.737	0.524	0.413	0.209
Mof_H 	H 	0.764	0.505	0.66	0.205
Mof_H 	H 	0.553	0.351	0.472	0.19
Mof_Zn	Zn	0.05313	0.29936	0.88124	1.252
Mof_P 	P 	0.8123	0.3399	0.0449	0.578
Mof_P 	P 	0.9868	0.5724	0.8006	0.581
Mof_O 	O 	0.0606	0.4511	0.7951	-0.432
Mof_O 	O 	0.0214	0.6629	0.7056	-0.421
Mof_O 	O 	0.7448	0.3854	0.9383	-0.371
Mof_O 	O 	0.9547	0.3103	0.0199	-0.405
Mof_O 	O 	0.7371	0.2266	0.0884	-0.399
Mof_O 	O 	0.8455	0.5448	0.8008	-0.297
Mof_O 	O 	0.0176	0.6347	0.9161	-0.341
Mof_O 	O 	0.812	0.4464	0.1351	-0.342
Mof_H 	H 	0.763	0.476	0.913	0.209
Mof_H 	H 	0.736	0.495	0.16	0.205
Mof_H 	H 	0.947	0.649	0.972	0.186
_end
