data_functionalizedCrystal
_audit_creation_method	'EQeq! by Chris Wilmer'
_symmetry_space_group_name_H-M	'P1'
_symmetry_Int_Tables_number	1
_symmetry_cell_setting	triclinic
loop_
_symmetry_equiv_pos_as_xyz
  x,y,z
_cell_length_a	21.848
_cell_length_b	21.848
_cell_length_c	6.8136
_cell_angle_alpha	90
_cell_angle_beta	90
_cell_angle_gamma	120
loop_
_atom_site_label
_atom_site_type_symbol
_atom_site_fract_x
_atom_site_fract_y
_atom_site_fract_z
_atom_site_charge
Mof_Fe	Fe	0.6176	0.2784	0.138	0.763
Mof_O 	O 	0.6694	0.2387	0.935	-0.371
Mof_O 	O 	0.6447	0.2827	0.574	-0.481
Mof_O 	O 	0.582	0.2051	0.362	-0.371
Mof_C 	C 	0.6138	0.1744	0.8787	0.234
Mof_C 	C 	0.594	0.1649	0.681	-0.227
Mof_C 	C 	0.5602	0.0958	0.6029	0.046
Mof_C 	C 	0.5449	0.0355	0.7105	-0.032
Mof_C 	C 	0.5638	0.0465	0.9089	0.033
Mof_C 	C 	0.5962	0.1132	0.9911	-0.188
Mof_C 	C 	0.605	0.2229	0.5481	0.45
Mof_H 	H 	0.547	0.0898	0.4694	0.027
Mof_H 	H 	0.5538	0.0067	0.9881	0.02
Mof_H 	H 	0.607	0.1182	0.1262	0.102
Mof_Fe	Fe	0.7216	0.3392	0.80467	0.762
Mof_O 	O 	0.7613	0.4307	0.60167	-0.372
Mof_O 	O 	0.7173	0.362	0.24067	-0.482
Mof_O 	O 	0.7949	0.3769	0.02867	-0.372
Mof_C 	C 	0.8256	0.4394	0.54537	0.235
Mof_C 	C 	0.8351	0.4291	0.34767	-0.228
Mof_C 	C 	0.9042	0.4644	0.26957	0.047
Mof_C 	C 	0.9645	0.5094	0.37717	-0.034
Mof_C 	C 	0.9535	0.5173	0.57557	0.035
Mof_C 	C 	0.8868	0.483	0.65777	-0.192
Mof_C 	C 	0.7771	0.3821	0.21477	0.45
Mof_H 	H 	0.9102	0.4572	0.13607	0.027
Mof_H 	H 	0.9933	0.5471	0.65477	0.019
Mof_H 	H 	0.8818	0.4888	0.79287	0.103
Mof_Fe	Fe	0.6608	0.3824	0.47133	0.762
Mof_O 	O 	0.5693	0.3306	0.26833	-0.372
Mof_O 	O 	0.638	0.3553	0.90733	-0.482
Mof_O 	O 	0.6231	0.418	0.69533	-0.372
Mof_C 	C 	0.5606	0.3862	0.21203	0.236
Mof_C 	C 	0.5709	0.406	0.01433	-0.228
Mof_C 	C 	0.5356	0.4398	0.93623	0.047
Mof_C 	C 	0.4906	0.4551	0.04383	-0.034
Mof_C 	C 	0.4827	0.4362	0.24223	0.035
Mof_C 	C 	0.517	0.4038	0.32443	-0.192
Mof_C 	C 	0.6179	0.395	0.88143	0.45
Mof_H 	H 	0.5428	0.453	0.80273	0.027
Mof_H 	H 	0.4529	0.4462	0.32143	0.019
Mof_H 	H 	0.5112	0.393	0.45953	0.103
Mof_Fe	Fe	0.2784	0.6176	0.862	0.762
Mof_O 	O 	0.2387	0.6694	0.065	-0.372
Mof_O 	O 	0.2827	0.6447	0.426	-0.482
Mof_O 	O 	0.2051	0.582	0.638	-0.372
Mof_C 	C 	0.1744	0.6138	0.1213	0.234
Mof_C 	C 	0.1649	0.594	0.319	-0.227
Mof_C 	C 	0.0958	0.5602	0.3971	0.046
Mof_C 	C 	0.0355	0.5449	0.2895	-0.032
Mof_C 	C 	0.0465	0.5638	0.0911	0.033
Mof_C 	C 	0.1132	0.5962	0.0089	-0.188
Mof_C 	C 	0.2229	0.605	0.4519	0.45
Mof_H 	H 	0.0898	0.547	0.5306	0.027
Mof_H 	H 	0.0067	0.5538	0.0119	0.02
Mof_H 	H 	0.1182	0.607	0.8738	0.102
Mof_Fe	Fe	0.3392	0.7216	0.19533	0.762
Mof_O 	O 	0.4307	0.7613	0.39833	-0.372
Mof_O 	O 	0.362	0.7173	0.75933	-0.482
Mof_O 	O 	0.3769	0.7949	0.97133	-0.372
Mof_C 	C 	0.4394	0.8256	0.45463	0.235
Mof_C 	C 	0.4291	0.8351	0.65233	-0.228
Mof_C 	C 	0.4644	0.9042	0.73043	0.047
Mof_C 	C 	0.5094	0.9645	0.62283	-0.034
Mof_C 	C 	0.5173	0.9535	0.42443	0.035
Mof_C 	C 	0.483	0.8868	0.34223	-0.192
Mof_C 	C 	0.3821	0.7771	0.78523	0.45
Mof_H 	H 	0.4572	0.9102	0.86393	0.027
Mof_H 	H 	0.5471	0.9933	0.34523	0.019
Mof_H 	H 	0.4888	0.8818	0.20713	0.103
Mof_Fe	Fe	0.3824	0.6608	0.52867	0.762
Mof_O 	O 	0.3306	0.5693	0.73167	-0.372
Mof_O 	O 	0.3553	0.638	0.09267	-0.482
Mof_O 	O 	0.418	0.6231	0.30467	-0.372
Mof_C 	C 	0.3862	0.5606	0.78797	0.236
Mof_C 	C 	0.406	0.5709	0.98567	-0.228
Mof_C 	C 	0.4398	0.5356	0.06377	0.047
Mof_C 	C 	0.4551	0.4906	0.95617	-0.034
Mof_C 	C 	0.4362	0.4827	0.75777	0.035
Mof_C 	C 	0.4038	0.517	0.67557	-0.192
Mof_C 	C 	0.395	0.6179	0.11857	0.45
Mof_H 	H 	0.453	0.5428	0.19727	0.027
Mof_H 	H 	0.4462	0.4529	0.67857	0.019
Mof_H 	H 	0.393	0.5112	0.54047	0.103
_end
