data_functionalizedCrystal
_audit_creation_method	'EQeq! by Chris Wilmer'
_symmetry_space_group_name_H-M	'P1'
_symmetry_Int_Tables_number	1
_symmetry_cell_setting	triclinic
loop_
_symmetry_equiv_pos_as_xyz
  x,y,z
_cell_length_a	5.0328
_cell_length_b	11.176
_cell_length_c	12.6797
_cell_angle_alpha	91.8477
_cell_angle_beta	101.447
_cell_angle_gamma	80.6499
loop_
_atom_site_label
_atom_site_type_symbol
_atom_site_fract_x
_atom_site_fract_y
_atom_site_fract_z
_atom_site_charge
Mof_Cu	Cu	0.39944	0.19775	0.227	0.918
Mof_Cu	Cu	0.17244	0.69775	0.773	0.91
Mof_H 	H 	0.5849	0.5899	0.4554	0.079
Mof_H 	H 	0.1705	0.4106	0.873	0.078
Mof_H 	H 	0.4084	0.273	0.0026	0.016
Mof_H 	H 	0.6338	0.5144	0.0668	0.082
Mof_H 	H 	0.8941	0.3775	0.1926	0.023
Mof_H 	H 	0.0966	0.3573	0.511	0.071
Mof_H 	H 	0.0343	0.4673	0.6646	0.012
Mof_H 	H 	0.5063	0.6927	0.609	0.02
Mof_H 	H 	0.1295	0.0899	0.5446	0.056
Mof_H 	H 	0.2975	0.9106	0.127	0.077
Mof_H 	H 	0.4058	0.773	0.9974	0.019
Mof_H 	H 	0.567	0.0144	0.9332	0.067
Mof_H 	H 	0.7015	0.8775	0.8074	0.022
Mof_H 	H 	0.5856	0.8573	0.489	0.084
Mof_H 	H 	0.3697	0.9673	0.3354	0.011
Mof_H 	H 	0.8973	0.1927	0.391	0.03
Mof_C 	C 	0.34667	0.4616	0.46454	-0.013
Mof_C 	C 	0.40057	0.3915	0.36494	0.297
Mof_C 	C 	0.4709	0.5636	0.4962	-0.078
Mof_C 	C 	0.1083	0.4051	0.9368	-0.116
Mof_C 	C 	0.25185	0.3232	0.0157	0.066
Mof_C 	C 	0.79173	0.4668	0.05206	-0.09
Mof_C 	C 	0.87069	0.4789	0.95378	0.005
Mof_C 	C 	0.7078	0.5676	0.869	0.323
Mof_C 	C 	0.94889	0.3839	0.12738	0.079
Mof_C 	C 	0.18126	0.4252	0.52892	-0.076
Mof_C 	C 	0.14403	0.4923	0.62126	0.052
Mof_C 	C 	0.42262	0.625	0.58844	0.054
Mof_C 	C 	0.88213	0.9616	0.53546	0.026
Mof_C 	C 	0.03563	0.8915	0.63506	0.242
Mof_C 	C 	0.9747	0.0636	0.5038	-0.059
Mof_C 	C 	0.1715	0.9051	0.0632	-0.101
Mof_C 	C 	0.23615	0.8232	0.9843	0.057
Mof_C 	C 	0.73967	0.9668	0.94794	-0.068
Mof_C 	C 	0.91691	0.9789	0.04622	-0.006
Mof_C 	C 	0.8388	0.0676	0.131	0.344
Mof_C 	C 	0.82151	0.8839	0.87262	0.074
Mof_C 	C 	0.65234	0.9252	0.47108	-0.096
Mof_C 	C 	0.52277	0.9923	0.37874	0.074
Mof_C 	C 	0.83418	0.125	0.41156	0.047
Mof_N 	N 	0.17558	0.3129	0.10996	-0.216
Mof_N 	N 	0.25922	0.5905	0.64964	-0.203
Mof_N 	N 	0.06562	0.8129	0.89004	-0.218
Mof_N 	N 	0.60958	0.0905	0.35036	-0.204
Mof_O 	O 	0.26903	0.303	0.34086	-0.373
Mof_O 	O 	0.81706	0.5975	0.79712	-0.344
Mof_O 	O 	0.56588	0.4201	0.31536	-0.283
Mof_O 	O 	0.46036	0.6042	0.87852	-0.391
Mof_O 	O 	0.92817	0.803	0.65914	-0.334
Mof_O 	O 	0.01994	0.0975	0.20288	-0.377
Mof_O 	O 	0.25052	0.9201	0.68464	-0.273
Mof_O 	O 	0.58184	0.1042	0.12148	-0.396
_end
