data_functionalizedCrystal
_audit_creation_method	'EQeq! by Chris Wilmer'
_symmetry_space_group_name_H-M	'P1'
_symmetry_Int_Tables_number	1
_symmetry_cell_setting	triclinic
loop_
_symmetry_equiv_pos_as_xyz
  x,y,z
_cell_length_a	13.6824
_cell_length_b	15.0012
_cell_length_c	15.649
_cell_angle_alpha	95.751
_cell_angle_beta	113.163
_cell_angle_gamma	90.493
loop_
_atom_site_label
_atom_site_type_symbol
_atom_site_fract_x
_atom_site_fract_y
_atom_site_fract_z
_atom_site_charge
Mof_Nd	Nd	0.50699	0.52027	0.13396	2.336
Mof_Nd	Nd	0.88967	0.96851	0.86894	2.274
Mof_Nd	Nd	0.49301	0.47973	0.86604	2.336
Mof_Nd	Nd	0.11033	0.03149	0.13106	2.274
Mof_H 	H 	0.869	0.461	0.3838	0.026
Mof_H 	H 	0.9804	0.4037	0.5167	0.076
Mof_H 	H 	0.7293	0.2966	0.5474	0.07
Mof_H 	H 	0.618	0.3553	0.415	0.024
Mof_H 	H 	0.2132	0.3924	0.7976	0.036
Mof_H 	H 	0.2332	0.2698	0.0215	0.017
Mof_H 	H 	0.9862	0.209	0.7751	0.056
Mof_H 	H 	0.7296	0.0633	0.5463	0.019
Mof_H 	H 	0.7267	0.1151	0.4118	0.084
Mof_H 	H 	0.0455	0.1197	0.5162	0.068
Mof_H 	H 	0.0463	0.064	0.6487	0.014
Mof_H 	H 	0.6861	0.2912	0.2074	0.051
Mof_H 	H 	0.7224	0.2362	0.9657	0.02
Mof_H 	H 	0.8832	0.1034	0.1859	0.041
Mof_H 	H 	0.3154	0.6641	0.1587	-0.045
Mof_H 	H 	0.1742	0.6913	0.199	0.106
Mof_H 	H 	0.1156	0.5582	0.2422	0.006
Mof_H 	H 	0.2106	0.4319	0.2773	0.081
Mof_H 	H 	0.3643	0.4385	0.2443	-0.013
Mof_H 	H 	0.6231	0.0288	0.7841	-0.008
Mof_H 	H 	0.4463	0.9829	0.7439	0.081
Mof_H 	H 	0.4033	0.8325	0.7435	0.006
Mof_H 	H 	0.5371	0.7352	0.7908	0.097
Mof_H 	H 	0.7091	0.7842	0.8304	-0.036
Mof_H 	H 	0.889	0.268	0.657	0.031
Mof_H 	H 	0.94	0.161	0.347	0.042
Mof_H 	H 	0.131	0.539	0.6162	0.027
Mof_H 	H 	0.0196	0.5963	0.4833	0.077
Mof_H 	H 	0.2707	0.7034	0.4526	0.071
Mof_H 	H 	0.382	0.6447	0.585	0.025
Mof_H 	H 	0.7868	0.6076	0.2024	0.037
Mof_H 	H 	0.7668	0.7302	0.9785	0.018
Mof_H 	H 	0.0138	0.791	0.2249	0.056
Mof_H 	H 	0.2704	0.9367	0.4537	0.019
Mof_H 	H 	0.2733	0.8849	0.5882	0.084
Mof_H 	H 	0.9545	0.8803	0.4838	0.068
Mof_H 	H 	0.9537	0.936	0.3513	0.014
Mof_H 	H 	0.3139	0.7088	0.7926	0.051
Mof_H 	H 	0.2776	0.7638	0.0343	0.02
Mof_H 	H 	0.1168	0.8966	0.8141	0.041
Mof_H 	H 	0.6846	0.3359	0.8413	-0.045
Mof_H 	H 	0.8258	0.3087	0.801	0.106
Mof_H 	H 	0.8844	0.4418	0.7578	0.006
Mof_H 	H 	0.7894	0.5681	0.7227	0.081
Mof_H 	H 	0.6357	0.5615	0.7557	-0.013
Mof_H 	H 	0.3769	0.9712	0.2159	-0.008
Mof_H 	H 	0.5537	0.0171	0.2561	0.081
Mof_H 	H 	0.5967	0.1675	0.2565	0.006
Mof_H 	H 	0.4629	0.2648	0.2092	0.097
Mof_H 	H 	0.2909	0.2158	0.1696	-0.036
Mof_H 	H 	0.111	0.732	0.343	0.031
Mof_H 	H 	0.06	0.839	0.653	0.042
Mof_C 	C 	0.6572	0.459	0.3038	0.318
Mof_C 	C 	0.731	0.4169	0.3864	-0.105
Mof_C 	C 	0.8403	0.4291	0.4171	0.038
Mof_C 	C 	0.9072	0.3942	0.4968	-0.122
Mof_C 	C 	0.8675	0.3455	0.5478	0.07
Mof_C 	C 	0.7579	0.3306	0.5154	-0.125
Mof_C 	C 	0.6912	0.3659	0.4359	0.04
Mof_C 	C 	0.9347	0.3123	0.6366	0.001
Mof_C 	C 	0.0883	0.3068	0.7725	0.045
Mof_C 	C 	0.1842	0.3529	0.8247	-0.02
Mof_C 	C 	0.2379	0.3397	0.9194	-0.151
Mof_C 	C 	0.1977	0.2777	0.9587	0.072
Mof_C 	C 	0.104	0.227	0.9041	-0.141
Mof_C 	C 	0.0492	0.2421	0.8115	-0.029
Mof_C 	C 	0.3341	0.397	0.982	0.447
Mof_C 	C 	0.0626	0.1557	0.9443	0.472
Mof_C 	C 	0.8892	0.0179	0.6967	0.344
Mof_C 	C 	0.8884	0.0573	0.6118	-0.123
Mof_C 	C 	0.7934	0.0737	0.54	0.05
Mof_C 	C 	0.7914	0.1051	0.4593	-0.137
Mof_C 	C 	0.8861	0.1217	0.4493	0.086
Mof_C 	C 	0.9814	0.1073	0.5214	-0.129
Mof_C 	C 	0.9818	0.0745	0.6013	0.067
Mof_C 	C 	0.8822	0.1511	0.3612	-0.023
Mof_C 	C 	0.7866	0.1935	0.2108	0.043
Mof_C 	C 	0.7175	0.2589	0.172	-0.01
Mof_C 	C 	0.6942	0.2771	0.081	-0.153
Mof_C 	C 	0.7385	0.2258	0.0273	0.064
Mof_C 	C 	0.8068	0.1588	0.0656	-0.138
Mof_C 	C 	0.8336	0.1451	0.1588	-0.029
Mof_C 	C 	0.621	0.3505	0.0427	0.503
Mof_C 	C 	0.8426	0.0971	0.0034	0.42
Mof_C 	C 	0.2968	0.6196	0.1877	0.161
Mof_C 	C 	0.2089	0.638	0.2051	-0.208
Mof_C 	C 	0.18	0.5571	0.2352	0.085
Mof_C 	C 	0.2314	0.4805	0.2547	-0.174
Mof_C 	C 	0.3226	0.4882	0.2342	0.102
Mof_C 	C 	0.6058	0.9691	0.7859	0.096
Mof_C 	C 	0.4992	0.9417	0.7608	-0.163
Mof_C 	C 	0.4738	0.8526	0.7614	0.083
Mof_C 	C 	0.5528	0.7952	0.7886	-0.174
Mof_C 	C 	0.6559	0.825	0.8128	0.107
Mof_C 	C 	0.3428	0.541	0.6962	0.318
Mof_C 	C 	0.269	0.5831	0.6136	-0.105
Mof_C 	C 	0.1597	0.5709	0.5829	0.038
Mof_C 	C 	0.0928	0.6058	0.5032	-0.122
Mof_C 	C 	0.1325	0.6545	0.4522	0.07
Mof_C 	C 	0.2421	0.6694	0.4846	-0.125
Mof_C 	C 	0.3088	0.6341	0.5641	0.04
Mof_C 	C 	0.0653	0.6877	0.3634	0.001
Mof_C 	C 	0.9117	0.6932	0.2275	0.045
Mof_C 	C 	0.8158	0.6471	0.1753	-0.02
Mof_C 	C 	0.7621	0.6603	0.0806	-0.151
Mof_C 	C 	0.8023	0.7223	0.0413	0.072
Mof_C 	C 	0.896	0.773	0.0959	-0.141
Mof_C 	C 	0.9508	0.7579	0.1885	-0.029
Mof_C 	C 	0.6659	0.603	0.018	0.447
Mof_C 	C 	0.9374	0.8443	0.0557	0.472
Mof_C 	C 	0.1108	0.9821	0.3033	0.344
Mof_C 	C 	0.1116	0.9427	0.3882	-0.123
Mof_C 	C 	0.2066	0.9263	0.46	0.05
Mof_C 	C 	0.2086	0.8949	0.5407	-0.137
Mof_C 	C 	0.1139	0.8783	0.5507	0.086
Mof_C 	C 	0.0186	0.8927	0.4786	-0.129
Mof_C 	C 	0.0182	0.9255	0.3987	0.067
Mof_C 	C 	0.1178	0.8489	0.6388	-0.023
Mof_C 	C 	0.2134	0.8065	0.7892	0.043
Mof_C 	C 	0.2825	0.7411	0.828	-0.01
Mof_C 	C 	0.3058	0.7229	0.919	-0.153
Mof_C 	C 	0.2615	0.7742	0.9727	0.064
Mof_C 	C 	0.1932	0.8412	0.9344	-0.138
Mof_C 	C 	0.1664	0.8549	0.8412	-0.029
Mof_C 	C 	0.379	0.6495	0.9573	0.503
Mof_C 	C 	0.1574	0.9029	0.9966	0.42
Mof_C 	C 	0.7032	0.3804	0.8123	0.161
Mof_C 	C 	0.7911	0.362	0.7949	-0.208
Mof_C 	C 	0.82	0.4429	0.7648	0.085
Mof_C 	C 	0.7686	0.5195	0.7453	-0.174
Mof_C 	C 	0.6774	0.5118	0.7658	0.102
Mof_C 	C 	0.3942	0.0309	0.2141	0.096
Mof_C 	C 	0.5008	0.0583	0.2392	-0.163
Mof_C 	C 	0.5262	0.1474	0.2386	0.083
Mof_C 	C 	0.4472	0.2048	0.2114	-0.174
Mof_C 	C 	0.3441	0.175	0.1872	0.107
Mof_N 	N 	0.0323	0.3322	0.6803	-0.119
Mof_N 	N 	0.7965	0.1728	0.3005	-0.112
Mof_N 	N 	0.3588	0.556	0.2022	-0.287
Mof_N 	N 	0.6835	0.9116	0.8123	-0.262
Mof_N 	N 	0.9677	0.6678	0.3197	-0.119
Mof_N 	N 	0.2035	0.8272	0.6995	-0.112
Mof_N 	N 	0.6412	0.444	0.7978	-0.287
Mof_N 	N 	0.3165	0.0884	0.1877	-0.262
Mof_O 	O 	0.5564	0.444	0.278	-0.467
Mof_O 	O 	0.6937	0.5065	0.261	-0.449
Mof_O 	O 	0.3572	0.4063	0.0692	-0.503
Mof_O 	O 	0.389	0.4387	0.9475	-0.653
Mof_O 	O 	0.9772	0.1141	0.8923	-0.526
Mof_O 	O 	0.1173	0.1425	0.0292	-0.558
Mof_O 	O 	0.5779	0.3856	0.0946	-0.561
Mof_O 	O 	0.6068	0.3718	0.9634	-0.571
Mof_O 	O 	0.9717	0.9863	0.7494	-0.462
Mof_O 	O 	0.8035	0.0184	0.7108	-0.472
Mof_O 	O 	0.7868	0.0866	0.9169	-0.473
Mof_O 	O 	0.9249	0.0525	0.0389	-0.648
Mof_O 	O 	0.4436	0.556	0.722	-0.467
Mof_O 	O 	0.3063	0.4935	0.739	-0.449
Mof_O 	O 	0.6428	0.5937	0.9308	-0.503
Mof_O 	O 	0.611	0.5613	0.0525	-0.653
Mof_O 	O 	0.0228	0.8859	0.1077	-0.526
Mof_O 	O 	0.8827	0.8575	0.9708	-0.558
Mof_O 	O 	0.4221	0.6144	0.9054	-0.561
Mof_O 	O 	0.3932	0.6282	0.0366	-0.571
Mof_O 	O 	0.0283	0.0137	0.2506	-0.462
Mof_O 	O 	0.1965	0.9816	0.2892	-0.472
Mof_O 	O 	0.2132	0.9134	0.0831	-0.473
Mof_O 	O 	0.0751	0.9475	0.9611	-0.648
_end
