data_functionalizedCrystal
_audit_creation_method	'EQeq! by Chris Wilmer'
_symmetry_space_group_name_H-M	'P1'
_symmetry_Int_Tables_number	1
_symmetry_cell_setting	triclinic
loop_
_symmetry_equiv_pos_as_xyz
  x,y,z
_cell_length_a	9.7438
_cell_length_b	12.3331
_cell_length_c	16.3262
_cell_angle_alpha	90
_cell_angle_beta	90
_cell_angle_gamma	97.117
loop_
_atom_site_label
_atom_site_type_symbol
_atom_site_fract_x
_atom_site_fract_y
_atom_site_fract_z
_atom_site_charge
Mof_Co	Co	0.06688	0.41847	0.06867	1.113
Mof_Co	Co	0.93312	0.58153	0.93133	1.113
Mof_Co	Co	0.56688	0.91847	0.43133	1.114
Mof_Co	Co	0.43312	0.08153	0.56867	1.114
Mof_Re	Re	0.6188	0.89838	0.97873	0.33
Mof_Re	Re	0.3812	0.10162	0.02127	0.33
Mof_Re	Re	0.85175	0.39299	0.51099	0.332
Mof_Re	Re	0.14825	0.60701	0.48901	0.332
Mof_Re	Re	0.35175	0.89299	0.98901	0.331
Mof_Re	Re	0.1188	0.39838	0.52127	0.335
Mof_Re	Re	0.9913	0.53022	0.61041	0.332
Mof_Re	Re	0.0087	0.46978	0.38959	0.332
Mof_Re	Re	0.8812	0.60162	0.47873	0.335
Mof_Re	Re	0.4913	0.03022	0.88959	0.336
Mof_Re	Re	0.5087	0.96978	0.11041	0.336
Mof_Re	Re	0.64825	0.10701	0.01099	0.331
Mof_C 	C 	0.1872	0.7683	0.9704	-0.011
Mof_C 	C 	0.7448	0.7756	0.9539	-0.007
Mof_C 	C 	0.4746	0.0625	0.764	-0.008
Mof_C 	C 	0.3128	0.7317	0.4704	-0.012
Mof_C 	C 	0.9746	0.5625	0.736	-0.009
Mof_C 	C 	0.7552	0.7244	0.4539	-0.005
Mof_C 	C 	0.2448	0.2756	0.5461	-0.005
Mof_C 	C 	0.6872	0.2683	0.5296	-0.012
Mof_C 	C 	0.8128	0.2317	0.0296	-0.011
Mof_C 	C 	0.0254	0.4375	0.264	-0.009
Mof_C 	C 	0.2552	0.2244	0.0461	-0.007
Mof_C 	C 	0.5254	0.9375	0.236	-0.008
Mof_S 	S 	0.0339	0.6646	0.3684	-0.24
Mof_S 	S 	0.0189	0.7209	0.5721	-0.247
Mof_S 	S 	0.2438	0.0231	0.9082	-0.23
Mof_S 	S 	0.9811	0.2791	0.4279	-0.247
Mof_S 	S 	0.4811	0.7791	0.0721	-0.247
Mof_S 	S 	0.5189	0.2209	0.9279	-0.247
Mof_S 	S 	0.4661	0.8354	0.8684	-0.241
Mof_S 	S 	0.5339	0.1646	0.1316	-0.241
Mof_S 	S 	0.7598	0.467	0.3883	-0.23
Mof_S 	S 	0.2562	0.4769	0.4082	-0.234
Mof_S 	S 	0.7402	0.033	0.8883	-0.23
Mof_S 	S 	0.9661	0.3354	0.6316	-0.24
Mof_S 	S 	0.7438	0.5231	0.5918	-0.234
Mof_S 	S 	0.2402	0.533	0.6117	-0.23
Mof_S 	S 	0.7562	0.9769	0.0918	-0.23
Mof_S 	S 	0.2598	0.967	0.1117	-0.23
Mof_N 	N 	0.1927	0.2969	0.059	-0.239
Mof_N 	N 	0.4002	0.8018	0.4558	-0.23
Mof_N 	N 	0.4582	0.078	0.6946	-0.235
Mof_N 	N 	0.0998	0.6982	0.9558	-0.229
Mof_N 	N 	0.0418	0.422	0.1946	-0.236
Mof_N 	N 	0.5418	0.922	0.3054	-0.235
Mof_N 	N 	0.6927	0.7969	0.441	-0.238
Mof_N 	N 	0.9582	0.578	0.8054	-0.236
Mof_N 	N 	0.9002	0.3018	0.0442	-0.229
Mof_N 	N 	0.8073	0.7031	0.941	-0.239
Mof_N 	N 	0.3073	0.2031	0.559	-0.238
Mof_N 	N 	0.5998	0.1982	0.5442	-0.23
Mof_O 	O 	0.0726	0.4537	0.9384	-0.431
Mof_O 	O 	0.9274	0.5463	0.0616	-0.431
Mof_O 	O 	0.5726	0.9537	0.5616	-0.434
Mof_O 	O 	0.4274	0.0463	0.4384	-0.434
_end
