data_functionalizedCrystal
_audit_creation_method	'EQeq! by Chris Wilmer'
_symmetry_space_group_name_H-M	'P1'
_symmetry_Int_Tables_number	1
_symmetry_cell_setting	triclinic
loop_
_symmetry_equiv_pos_as_xyz
  x,y,z
_cell_length_a	15.2806
_cell_length_b	15.2806
_cell_length_c	15.393
_cell_angle_alpha	90
_cell_angle_beta	90
_cell_angle_gamma	120
loop_
_atom_site_label
_atom_site_type_symbol
_atom_site_fract_x
_atom_site_fract_y
_atom_site_fract_z
_atom_site_charge
Mof_Eu	Eu	0.66667	0.33334	0.75	2.287
Mof_Eu	Eu	0.33333	0.66666	0.75	2.287
Mof_Eu	Eu	0.33333	0.66666	0.25	2.263
Mof_Eu	Eu	0.66667	0.33334	0.25	2.263
Mof_Co	Co	0.5	0.5	-0	1.097
Mof_Co	Co	3.65238e-17	0.5	-0	1.061
Mof_Co	Co	0.5	0	-0	1.061
Mof_Co	Co	4.78885e-17	0.5	0.5	1.127
Mof_Co	Co	0.5	0.5	0.5	1.164
Mof_Co	Co	0.5	0	0.5	1.127
Mof_H 	H 	0.7662	0.7123	0.8454	0.077
Mof_H 	H 	0.9461	0.2338	0.8454	0.084
Mof_H 	H 	0.2877	0.0539	0.8454	0.046
Mof_H 	H 	0.2338	0.2877	0.8454	0.061
Mof_H 	H 	0.0539	0.7662	0.8454	0.054
Mof_H 	H 	0.7123	0.9461	0.8454	0.092
Mof_H 	H 	0.0539	0.2877	0.6546	0.025
Mof_H 	H 	0.7123	0.7662	0.6546	0.057
Mof_H 	H 	0.2338	0.9461	0.6546	0.064
Mof_H 	H 	0.9461	0.7123	0.6546	0.073
Mof_H 	H 	0.2877	0.2338	0.6546	0.04
Mof_H 	H 	0.7662	0.0539	0.6546	0.033
Mof_H 	H 	0.2338	0.2877	0.1546	0.018
Mof_H 	H 	0.0539	0.7662	0.1546	0.011
Mof_H 	H 	0.7123	0.9461	0.1546	0.051
Mof_H 	H 	0.7662	0.7123	0.1546	0.035
Mof_H 	H 	0.9461	0.2338	0.1546	0.043
Mof_H 	H 	0.2877	0.0539	0.1546	0.003
Mof_H 	H 	0.9461	0.7123	0.3454	0.07
Mof_H 	H 	0.2877	0.2338	0.3454	0.037
Mof_H 	H 	0.7662	0.0539	0.3454	0.03
Mof_H 	H 	0.0539	0.2877	0.3454	0.021
Mof_H 	H 	0.7123	0.7662	0.3454	0.054
Mof_H 	H 	0.2338	0.9461	0.3454	0.062
Mof_H 	H 	0.9004	0.8008	0.75	0.069
Mof_H 	H 	0.9004	0.0996	0.75	0.043
Mof_H 	H 	0.1992	0.0996	0.75	0.017
Mof_H 	H 	0.0996	0.1992	0.75	0.017
Mof_H 	H 	0.0996	0.9004	0.75	0.043
Mof_H 	H 	0.8008	0.9004	0.75	0.069
Mof_H 	H 	0.0996	0.1992	0.25	0.011
Mof_H 	H 	0.0996	0.9004	0.25	0.037
Mof_H 	H 	0.8008	0.9004	0.25	0.063
Mof_H 	H 	0.9004	0.8008	0.25	0.063
Mof_H 	H 	0.9004	0.0996	0.25	0.037
Mof_H 	H 	0.1992	0.0996	0.25	0.011
Mof_C 	C 	0.6461	0.5096	0.8615	0.364
Mof_C 	C 	0.7351	0.5747	0.804	-0.014
Mof_C 	C 	0.7853	0.6782	0.8066	-0.024
Mof_C 	C 	0.8635	0.3539	0.8615	0.359
Mof_C 	C 	0.8396	0.2649	0.804	-0.012
Mof_C 	C 	0.8929	0.2147	0.8066	-0.029
Mof_C 	C 	0.4904	0.1365	0.8615	0.364
Mof_C 	C 	0.4253	0.1604	0.804	-0.032
Mof_C 	C 	0.3218	0.1071	0.8066	-0.034
Mof_C 	C 	0.3539	0.4904	0.8615	0.362
Mof_C 	C 	0.2649	0.4253	0.804	-0.025
Mof_C 	C 	0.2147	0.3218	0.8066	-0.034
Mof_C 	C 	0.1365	0.6461	0.8615	0.365
Mof_C 	C 	0.1604	0.7351	0.804	-0.026
Mof_C 	C 	0.1071	0.7853	0.8066	-0.029
Mof_C 	C 	0.5096	0.8635	0.8615	0.36
Mof_C 	C 	0.5747	0.8396	0.804	-0.006
Mof_C 	C 	0.6782	0.8929	0.8066	-0.023
Mof_C 	C 	0.1365	0.4904	0.6385	0.369
Mof_C 	C 	0.1604	0.4253	0.696	-0.046
Mof_C 	C 	0.1071	0.3218	0.6934	-0.032
Mof_C 	C 	0.5096	0.6461	0.6385	0.37
Mof_C 	C 	0.5747	0.7351	0.696	-0.028
Mof_C 	C 	0.6782	0.7853	0.6934	-0.021
Mof_C 	C 	0.3539	0.8635	0.6385	0.364
Mof_C 	C 	0.2649	0.8396	0.696	-0.026
Mof_C 	C 	0.2147	0.8929	0.6934	-0.027
Mof_C 	C 	0.8635	0.5096	0.6385	0.365
Mof_C 	C 	0.8396	0.5747	0.696	-0.021
Mof_C 	C 	0.8929	0.6782	0.6934	-0.022
Mof_C 	C 	0.4904	0.3539	0.6385	0.368
Mof_C 	C 	0.4253	0.2649	0.696	-0.04
Mof_C 	C 	0.3218	0.2147	0.6934	-0.032
Mof_C 	C 	0.6461	0.1365	0.6385	0.371
Mof_C 	C 	0.7351	0.1604	0.696	-0.041
Mof_C 	C 	0.7853	0.1071	0.6934	-0.027
Mof_C 	C 	0.3539	0.4904	0.1385	0.369
Mof_C 	C 	0.2649	0.4253	0.196	-0.059
Mof_C 	C 	0.2147	0.3218	0.1934	-0.023
Mof_C 	C 	0.1365	0.6461	0.1385	0.371
Mof_C 	C 	0.1604	0.7351	0.196	-0.059
Mof_C 	C 	0.1071	0.7853	0.1934	-0.018
Mof_C 	C 	0.5096	0.8635	0.1385	0.366
Mof_C 	C 	0.5747	0.8396	0.196	-0.039
Mof_C 	C 	0.6782	0.8929	0.1934	-0.013
Mof_C 	C 	0.6461	0.5096	0.1385	0.371
Mof_C 	C 	0.7351	0.5747	0.196	-0.047
Mof_C 	C 	0.7853	0.6782	0.1934	-0.012
Mof_C 	C 	0.8635	0.3539	0.1385	0.365
Mof_C 	C 	0.8396	0.2649	0.196	-0.044
Mof_C 	C 	0.8929	0.2147	0.1934	-0.018
Mof_C 	C 	0.4904	0.1365	0.1385	0.37
Mof_C 	C 	0.4253	0.1604	0.196	-0.066
Mof_C 	C 	0.3218	0.1071	0.1934	-0.024
Mof_C 	C 	0.8635	0.5096	0.3615	0.366
Mof_C 	C 	0.8396	0.5747	0.304	-0.028
Mof_C 	C 	0.8929	0.6782	0.3066	-0.013
Mof_C 	C 	0.4904	0.3539	0.3615	0.369
Mof_C 	C 	0.4253	0.2649	0.304	-0.047
Mof_C 	C 	0.3218	0.2147	0.3066	-0.024
Mof_C 	C 	0.6461	0.1365	0.3615	0.372
Mof_C 	C 	0.7351	0.1604	0.304	-0.048
Mof_C 	C 	0.7853	0.1071	0.3066	-0.019
Mof_C 	C 	0.1365	0.4904	0.3615	0.371
Mof_C 	C 	0.1604	0.4253	0.304	-0.054
Mof_C 	C 	0.1071	0.3218	0.3066	-0.024
Mof_C 	C 	0.5096	0.6461	0.3615	0.371
Mof_C 	C 	0.5747	0.7351	0.304	-0.036
Mof_C 	C 	0.6782	0.7853	0.3066	-0.013
Mof_C 	C 	0.3539	0.8635	0.3615	0.365
Mof_C 	C 	0.2649	0.8396	0.304	-0.033
Mof_C 	C 	0.2147	0.8929	0.3066	-0.019
Mof_C 	C 	0.8652	0.7304	0.75	-0.024
Mof_C 	C 	0.8652	0.1348	0.75	-0.034
Mof_C 	C 	0.2696	0.1348	0.75	-0.045
Mof_C 	C 	0.1348	0.2696	0.75	-0.045
Mof_C 	C 	0.1348	0.8652	0.75	-0.034
Mof_C 	C 	0.7304	0.8652	0.75	-0.024
Mof_C 	C 	0.1348	0.2696	0.25	-0.068
Mof_C 	C 	0.1348	0.8652	0.25	-0.056
Mof_C 	C 	0.7304	0.8652	0.25	-0.046
Mof_C 	C 	0.8652	0.7304	0.25	-0.046
Mof_C 	C 	0.8652	0.1348	0.25	-0.056
Mof_C 	C 	0.2696	0.1348	0.25	-0.068
Mof_N 	N 	0.76168	0.52336	0.75	-0.213
Mof_N 	N 	0.76168	0.23832	0.75	-0.213
Mof_N 	N 	0.47664	0.23832	0.75	-0.213
Mof_N 	N 	0.23832	0.47664	0.75	-0.213
Mof_N 	N 	0.23832	0.76168	0.75	-0.213
Mof_N 	N 	0.52336	0.76168	0.75	-0.213
Mof_N 	N 	0.23832	0.47664	0.25	-0.209
Mof_N 	N 	0.23832	0.76168	0.25	-0.209
Mof_N 	N 	0.52336	0.76168	0.25	-0.208
Mof_N 	N 	0.76168	0.52336	0.25	-0.208
Mof_N 	N 	0.76168	0.23832	0.25	-0.209
Mof_N 	N 	0.47664	0.23832	0.25	-0.209
Mof_O 	O 	0.6118	0.4142	0.85735	-0.456
Mof_O 	O 	0.6133	0.5533	0.9072	-0.362
Mof_O 	O 	0.8024	0.3882	0.85735	-0.446
Mof_O 	O 	0.94	0.3867	0.9072	-0.329
Mof_O 	O 	0.5858	0.1976	0.85735	-0.467
Mof_O 	O 	0.4467	0.06	0.9072	-0.392
Mof_O 	O 	0.3882	0.5858	0.85735	-0.458
Mof_O 	O 	0.3867	0.4467	0.9072	-0.368
Mof_O 	O 	0.1976	0.6118	0.85735	-0.466
Mof_O 	O 	0.06	0.6133	0.9072	-0.39
Mof_O 	O 	0.4142	0.8024	0.85735	-0.445
Mof_O 	O 	0.5533	0.94	0.9072	-0.326
Mof_O 	O 	0.1976	0.5858	0.64265	-0.498
Mof_O 	O 	0.06	0.4467	0.5928	-0.457
Mof_O 	O 	0.4142	0.6118	0.64265	-0.488
Mof_O 	O 	0.5533	0.6133	0.5928	-0.426
Mof_O 	O 	0.3882	0.8024	0.64265	-0.476
Mof_O 	O 	0.3867	0.94	0.5928	-0.391
Mof_O 	O 	0.8024	0.4142	0.64265	-0.476
Mof_O 	O 	0.94	0.5533	0.5928	-0.388
Mof_O 	O 	0.5858	0.3882	0.64265	-0.489
Mof_O 	O 	0.4467	0.3867	0.5928	-0.432
Mof_O 	O 	0.6118	0.1976	0.64265	-0.497
Mof_O 	O 	0.6133	0.06	0.5928	-0.454
Mof_O 	O 	0.3882	0.5858	0.14265	-0.511
Mof_O 	O 	0.3867	0.4467	0.0928	-0.471
Mof_O 	O 	0.1976	0.6118	0.14265	-0.518
Mof_O 	O 	0.06	0.6133	0.0928	-0.491
Mof_O 	O 	0.4142	0.8024	0.14265	-0.496
Mof_O 	O 	0.5533	0.94	0.0928	-0.425
Mof_O 	O 	0.6118	0.4142	0.14265	-0.509
Mof_O 	O 	0.6133	0.5533	0.0928	-0.464
Mof_O 	O 	0.8024	0.3882	0.14265	-0.497
Mof_O 	O 	0.94	0.3867	0.0928	-0.427
Mof_O 	O 	0.5858	0.1976	0.14265	-0.519
Mof_O 	O 	0.4467	0.06	0.0928	-0.494
Mof_O 	O 	0.8024	0.4142	0.35735	-0.473
Mof_O 	O 	0.94	0.5533	0.4072	-0.388
Mof_O 	O 	0.5858	0.3882	0.35735	-0.487
Mof_O 	O 	0.4467	0.3867	0.4072	-0.433
Mof_O 	O 	0.6118	0.1976	0.35735	-0.495
Mof_O 	O 	0.6133	0.06	0.4072	-0.454
Mof_O 	O 	0.1976	0.5858	0.35735	-0.496
Mof_O 	O 	0.06	0.4467	0.4072	-0.457
Mof_O 	O 	0.4142	0.6118	0.35735	-0.485
Mof_O 	O 	0.5533	0.6133	0.4072	-0.426
Mof_O 	O 	0.3882	0.8024	0.35735	-0.474
Mof_O 	O 	0.3867	0.94	0.4072	-0.391
_end
