data_functionalizedCrystal
_audit_creation_method	'EQeq! by Chris Wilmer'
_symmetry_space_group_name_H-M	'P1'
_symmetry_Int_Tables_number	1
_symmetry_cell_setting	triclinic
loop_
_symmetry_equiv_pos_as_xyz
  x,y,z
_cell_length_a	11.446
_cell_length_b	19.909
_cell_length_c	11.82
_cell_angle_alpha	90
_cell_angle_beta	106.098
_cell_angle_gamma	90
loop_
_atom_site_label
_atom_site_type_symbol
_atom_site_fract_x
_atom_site_fract_y
_atom_site_fract_z
_atom_site_charge
Mof_C 	C 	0.0242	0.2146	0.3272	0.345
Mof_C 	C 	0.0307	0.2891	0.3491	-0.025
Mof_C 	C 	0.0305	0.3135	0.4586	-0.137
Mof_H 	H 	0.0268	0.2837	0.5181	0.117
Mof_C 	C 	0.0357	0.3818	0.4804	0.2
Mof_C 	C 	0.0377	0.4267	0.3921	-0.135
Mof_H 	H 	0.0369	0.4728	0.4052	0.114
Mof_C 	C 	0.0409	0.402	0.2836	-0.042
Mof_C 	C 	0.0365	0.334	0.2612	-0.028
Mof_H 	H 	0.0373	0.3183	0.1873	0.06
Mof_C 	C 	0.0397	0.4502	0.1869	0.379
Mof_C 	C 	0.2339	0.0517	0.3334	0.09
Mof_H 	H 	0.1774	0.0317	0.2703	0.017
Mof_C 	C 	0.3511	0.054	0.3277	-0.136
Mof_H 	H 	0.3703	0.0377	0.2614	0.081
Mof_C 	C 	0.4027	0.1037	0.5107	-0.14
Mof_H 	H 	0.4584	0.1224	0.5758	0.08
Mof_C 	C 	0.2828	0.0999	0.5072	0.091
Mof_H 	H 	0.2617	0.1162	0.5726	0.002
Mof_C 	C 	0.6587	0.1132	0.5021	-0.159
Mof_H 	H 	0.6375	0.1355	0.5627	0.088
Mof_C 	C 	0.4407	0.0802	0.4189	0.06
Mof_C 	C 	0.5742	0.0817	0.4176	0.083
Mof_C 	C 	0.6082	0.0511	0.3288	-0.159
Mof_H 	H 	0.5513	0.0287	0.2692	0.087
Mof_C 	C 	0.7268	0.054	0.3289	0.102
Mof_H 	H 	0.7487	0.0348	0.266	-0.002
Mof_C 	C 	0.7768	0.1121	0.4978	0.099
Mof_H 	H 	0.8352	0.1333	0.5577	-0.005
Mof_N 	N 	0.8123	0.08235	0.4128	-0.242
Mof_N 	N 	0.1926	0.07519	0.4204	-0.236
Mof_O 	O 	0.0046	0.17885	0.4068	-0.45
Mof_O 	O 	0.0367	0.19276	0.2352	-0.278
Mof_O 	O 	0.052	0.42801	0.0921	-0.492
Mof_O 	O 	0.0282	0.51191	0.2075	-0.458
Mof_O 	O 	0.0359	0.40687	0.5875	-0.195
Mof_Zn	Zn	0.0046	0.08133	0.41717	1.224
Mof_C 	C 	0.9758	0.7146	0.1728	0.344
Mof_C 	C 	0.9693	0.7891	0.1509	-0.021
Mof_C 	C 	0.9695	0.8135	0.0414	-0.148
Mof_H 	H 	0.9732	0.7837	0.9819	0.126
Mof_C 	C 	0.9643	0.8818	0.0196	0.198
Mof_C 	C 	0.9623	0.9267	0.1079	-0.135
Mof_H 	H 	0.9631	0.9728	0.0948	0.113
Mof_C 	C 	0.9591	0.902	0.2164	-0.04
Mof_C 	C 	0.9635	0.834	0.2388	-0.03
Mof_H 	H 	0.9627	0.8183	0.3127	0.061
Mof_C 	C 	0.9603	0.9502	0.3131	0.372
Mof_C 	C 	0.7661	0.5517	0.1666	0.088
Mof_H 	H 	0.8226	0.5317	0.2297	0.017
Mof_C 	C 	0.6489	0.554	0.1723	-0.133
Mof_H 	H 	0.6297	0.5377	0.2386	0.08
Mof_C 	C 	0.5973	0.6037	0.9893	-0.137
Mof_H 	H 	0.5416	0.6224	0.9242	0.079
Mof_C 	C 	0.7172	0.5999	0.9928	0.093
Mof_H 	H 	0.7383	0.6162	0.9274	0.003
Mof_C 	C 	0.3413	0.6132	0.9979	-0.171
Mof_H 	H 	0.3625	0.6355	0.9373	0.092
Mof_C 	C 	0.5593	0.5802	0.0811	0.056
Mof_C 	C 	0.4258	0.5817	0.0824	0.091
Mof_C 	C 	0.3918	0.5511	0.1712	-0.165
Mof_H 	H 	0.4487	0.5287	0.2308	0.089
Mof_C 	C 	0.2732	0.554	0.1711	0.105
Mof_H 	H 	0.2513	0.5348	0.234	-0.004
Mof_C 	C 	0.2232	0.6121	0.0022	0.11
Mof_H 	H 	0.1648	0.6333	0.9423	-0.012
Mof_N 	N 	0.1877	0.58235	0.0872	-0.245
Mof_N 	N 	0.8074	0.57519	0.0796	-0.237
Mof_O 	O 	0.9954	0.67885	0.0932	-0.451
Mof_O 	O 	0.9633	0.69276	0.2648	-0.278
Mof_O 	O 	0.948	0.92801	0.4079	-0.494
Mof_O 	O 	0.9718	0.01191	0.2925	-0.454
Mof_O 	O 	0.9641	0.90687	0.9125	-0.19
Mof_Zn	Zn	0.9954	0.58133	0.08283	1.223
Mof_C 	C 	0.9758	0.7854	0.6728	0.346
Mof_C 	C 	0.9693	0.7109	0.6509	-0.024
Mof_C 	C 	0.9695	0.6865	0.5414	-0.136
Mof_H 	H 	0.9732	0.7163	0.4819	0.118
Mof_C 	C 	0.9643	0.6182	0.5196	0.201
Mof_C 	C 	0.9623	0.5733	0.6079	-0.134
Mof_H 	H 	0.9631	0.5272	0.5948	0.115
Mof_C 	C 	0.9591	0.598	0.7164	-0.041
Mof_C 	C 	0.9635	0.666	0.7388	-0.027
Mof_H 	H 	0.9627	0.6817	0.8127	0.061
Mof_C 	C 	0.9603	0.5498	0.8131	0.379
Mof_C 	C 	0.7661	0.9483	0.6666	0.09
Mof_H 	H 	0.8226	0.9683	0.7297	0.017
Mof_C 	C 	0.6489	0.946	0.6723	-0.136
Mof_H 	H 	0.6297	0.9623	0.7386	0.081
Mof_C 	C 	0.5973	0.8963	0.4893	-0.14
Mof_H 	H 	0.5416	0.8776	0.4242	0.08
Mof_C 	C 	0.7172	0.9001	0.4928	0.091
Mof_H 	H 	0.7383	0.8838	0.4274	0.002
Mof_C 	C 	0.3413	0.8868	0.4979	-0.159
Mof_H 	H 	0.3625	0.8645	0.4373	0.088
Mof_C 	C 	0.5593	0.9198	0.5811	0.06
Mof_C 	C 	0.4258	0.9183	0.5824	0.083
Mof_C 	C 	0.3918	0.9489	0.6712	-0.159
Mof_H 	H 	0.4487	0.9713	0.7308	0.087
Mof_C 	C 	0.2732	0.946	0.6711	0.102
Mof_H 	H 	0.2513	0.9652	0.734	-0.002
Mof_C 	C 	0.2232	0.8879	0.5022	0.099
Mof_H 	H 	0.1648	0.8667	0.4423	-0.005
Mof_N 	N 	0.1877	0.91765	0.5872	-0.242
Mof_N 	N 	0.8074	0.92481	0.5796	-0.236
Mof_O 	O 	0.9954	0.82115	0.5932	-0.45
Mof_O 	O 	0.9633	0.80724	0.7648	-0.278
Mof_O 	O 	0.948	0.57199	0.9079	-0.492
Mof_O 	O 	0.9718	0.48809	0.7925	-0.458
Mof_O 	O 	0.9641	0.59313	0.4125	-0.195
Mof_Zn	Zn	0.9954	0.91867	0.58283	1.224
Mof_C 	C 	0.0242	0.2854	0.8272	0.344
Mof_C 	C 	0.0307	0.2109	0.8491	-0.021
Mof_C 	C 	0.0305	0.1865	0.9586	-0.148
Mof_H 	H 	0.0268	0.2163	0.0181	0.126
Mof_C 	C 	0.0357	0.1182	0.9804	0.198
Mof_C 	C 	0.0377	0.0733	0.8921	-0.135
Mof_H 	H 	0.0369	0.0272	0.9052	0.113
Mof_C 	C 	0.0409	0.098	0.7836	-0.04
Mof_C 	C 	0.0365	0.166	0.7612	-0.03
Mof_H 	H 	0.0373	0.1817	0.6873	0.061
Mof_C 	C 	0.0397	0.0498	0.6869	0.372
Mof_C 	C 	0.2339	0.4483	0.8334	0.088
Mof_H 	H 	0.1774	0.4683	0.7703	0.017
Mof_C 	C 	0.3511	0.446	0.8277	-0.133
Mof_H 	H 	0.3703	0.4623	0.7614	0.08
Mof_C 	C 	0.4027	0.3963	0.0107	-0.137
Mof_H 	H 	0.4584	0.3776	0.0758	0.079
Mof_C 	C 	0.2828	0.4001	0.0072	0.093
Mof_H 	H 	0.2617	0.3838	0.0726	0.003
Mof_C 	C 	0.6587	0.3868	0.0021	-0.171
Mof_H 	H 	0.6375	0.3645	0.0627	0.092
Mof_C 	C 	0.4407	0.4198	0.9189	0.056
Mof_C 	C 	0.5742	0.4183	0.9176	0.091
Mof_C 	C 	0.6082	0.4489	0.8288	-0.165
Mof_H 	H 	0.5513	0.4713	0.7692	0.089
Mof_C 	C 	0.7268	0.446	0.8289	0.105
Mof_H 	H 	0.7487	0.4652	0.766	-0.004
Mof_C 	C 	0.7768	0.3879	0.9978	0.11
Mof_H 	H 	0.8352	0.3667	0.0577	-0.012
Mof_N 	N 	0.8123	0.41765	0.9128	-0.245
Mof_N 	N 	0.1926	0.42481	0.9204	-0.237
Mof_O 	O 	0.0046	0.32115	0.9068	-0.451
Mof_O 	O 	0.0367	0.30724	0.7352	-0.278
Mof_O 	O 	0.052	0.07199	0.5921	-0.494
Mof_O 	O 	0.0282	0.98809	0.7075	-0.454
Mof_O 	O 	0.0359	0.09313	0.0875	-0.19
Mof_Zn	Zn	0.0046	0.41867	0.91717	1.223
_end
