data_functionalizedCrystal
_audit_creation_method	'EQeq! by Chris Wilmer'
_symmetry_space_group_name_H-M	'P1'
_symmetry_Int_Tables_number	1
_symmetry_cell_setting	triclinic
loop_
_symmetry_equiv_pos_as_xyz
  x,y,z
_cell_length_a	6.2985
_cell_length_b	14.352
_cell_length_c	14.352
_cell_angle_alpha	90
_cell_angle_beta	90
_cell_angle_gamma	90
loop_
_atom_site_label
_atom_site_type_symbol
_atom_site_fract_x
_atom_site_fract_y
_atom_site_fract_z
_atom_site_charge
Mof_Co	Co	0.5	0	-0	1.054
Mof_Co	Co	4.27176e-33	0.5	0.5	1.085
Mof_H 	H 	0.3669	0.3427	0.4663	0.021
Mof_H 	H 	0.8347	0.3064	0.9638	0.153
Mof_H 	H 	0.662	0.7942	0.4156	0.127
Mof_H 	H 	0.8347	0.6936	0.0362	0.109
Mof_H 	H 	0.9878	0.7122	0.8481	0.083
Mof_H 	H 	0.6331	0.4663	0.6573	0.024
Mof_H 	H 	0.4194	0.0419	0.7863	-0.099
Mof_H 	H 	0.2889	0.8003	0.3815	0.054
Mof_H 	H 	0.0798	0.5053	0.2858	-0.044
Mof_H 	H 	0.338	0.4156	0.2058	0.108
Mof_H 	H 	0.1653	0.9638	0.6936	0.126
Mof_H 	H 	0.5806	0.2137	0.0419	-0.113
Mof_H 	H 	0.3669	0.6573	0.5337	0.023
Mof_H 	H 	0.8038	0.0902	0.3314	0.054
Mof_H 	H 	0.1653	0.0362	0.3064	0.081
Mof_H 	H 	0.5295	0.1835	0.3813	0.024
Mof_H 	H 	0.1962	0.3314	0.9098	0.021
Mof_H 	H 	0.4705	0.6187	0.1835	0.054
Mof_H 	H 	0.7111	0.3815	0.1997	0.026
Mof_H 	H 	0.1962	0.6686	0.0902	-0.001
Mof_H 	H 	0.9878	0.2878	0.1519	0.063
Mof_H 	H 	0.859	0.0624	0.8498	0.032
Mof_H 	H 	0.6331	0.5337	0.3427	0.023
Mof_H 	H 	0.4194	0.9581	0.2137	0.052
Mof_H 	H 	0.7111	0.6185	0.8003	0.034
Mof_H 	H 	0.8038	0.9098	0.6686	0.078
Mof_H 	H 	0.338	0.5844	0.7942	0.12
Mof_H 	H 	0.5806	0.7863	0.9581	0.044
Mof_H 	H 	0.141	0.8498	0.9376	0.022
Mof_H 	H 	0.2889	0.1997	0.6185	0.044
Mof_H 	H 	0.5295	0.8165	0.6187	0.03
Mof_H 	H 	0.141	0.1502	0.0624	-0.023
Mof_H 	H 	0.859	0.9376	0.1502	0.062
Mof_H 	H 	0.0122	0.8481	0.2878	0.018
Mof_H 	H 	0.9202	0.7142	0.5053	-0.019
Mof_H 	H 	0.4705	0.3813	0.8165	0.062
Mof_H 	H 	0.0798	0.4947	0.7142	-0.041
Mof_H 	H 	0.662	0.2058	0.5844	0.116
Mof_H 	H 	0.9202	0.2858	0.4947	-0.022
Mof_H 	H 	0.0122	0.1519	0.7122	-0
Mof_C 	C 	0.3799	0.3347	0.7954	-0.092
Mof_C 	C 	0.6682	0.8054	0.0067	0.009
Mof_C 	C 	0.1784	0.8875	0.8875	-0.008
Mof_C 	C 	0.8297	0.3121	0.5387	0.117
Mof_C 	C 	0.7852	0.1486	0.3046	-0.1
Mof_C 	C 	0.8216	0.8875	0.1125	-0.069
Mof_C 	C 	0.6714	0.5893	0.3713	-0.027
Mof_C 	C 	0.6201	0.7954	0.6653	-0.008
Mof_C 	C 	0.9074	0.8017	0.1179	0.126
Mof_C 	C 	0.2148	0.6954	0.1486	0.002
Mof_C 	C 	0.8945	0.7336	0.8027	-0.097
Mof_C 	C 	0.6201	0.2046	0.3347	-0.016
Mof_C 	C 	0.5852	0.3264	0.6471	0.045
Mof_C 	C 	0.3286	0.3713	0.4107	-0.045
Mof_C 	C 	0.9074	0.1983	0.8821	0.132
Mof_C 	C 	0.0767	0.7646	0.1776	-0.094
Mof_C 	C 	0.7852	0.8514	0.6954	-0.103
Mof_C 	C 	0.8216	0.1125	0.8875	-0.064
Mof_C 	C 	0.4148	0.6471	0.6736	0.065
Mof_C 	C 	0.2709	0.7736	0.323	-0.095
Mof_C 	C 	0.0926	0.8821	0.8017	0
Mof_C 	C 	0.0926	0.1179	0.1983	-0.023
Mof_C 	C 	0.1784	0.1125	0.1125	-0.015
Mof_C 	C 	0.589	0.2925	0.2955	-0.034
Mof_C 	C 	0.0767	0.2354	0.8224	-0.094
Mof_C 	C 	0.9233	0.1776	0.2354	0.065
Mof_C 	C 	0.8945	0.2664	0.1973	-0.095
Mof_C 	C 	0.3318	0.0067	0.1946	-0.016
Mof_C 	C 	0.589	0.7075	0.7045	-0.037
Mof_C 	C 	0.3286	0.6287	0.5893	-0.046
Mof_C 	C 	0.5852	0.6736	0.3529	0.047
Mof_C 	C 	0.1055	0.8027	0.2664	0.002
Mof_C 	C 	0.7291	0.677	0.7736	-0.01
Mof_C 	C 	0.3799	0.6653	0.2046	-0.095
Mof_C 	C 	0.4148	0.3529	0.3264	0.061
Mof_C 	C 	0.9233	0.8224	0.7646	0.077
Mof_C 	C 	0.6714	0.4107	0.6287	-0.026
Mof_C 	C 	0.2148	0.3046	0.8514	0.002
Mof_C 	C 	0.1055	0.1973	0.7336	-0.001
Mof_C 	C 	0.6682	0.1946	0.9933	0.24
Mof_C 	C 	0.1703	0.5387	0.6879	0.108
Mof_C 	C 	0.411	0.2955	0.7075	0.02
Mof_C 	C 	0.1703	0.4613	0.3121	0.105
Mof_C 	C 	0.2709	0.2264	0.677	-0.098
Mof_C 	C 	0.411	0.7045	0.2925	0.021
Mof_C 	C 	0.3318	0.9933	0.8054	0.221
Mof_C 	C 	0.7291	0.323	0.2264	-0.019
Mof_C 	C 	0.8297	0.6879	0.4613	0.12
Mof_N 	N 	0.3305	0.04271	0.10948	-0.272
Mof_N 	N 	0.1907	0.9506	0.75102	-0.225
Mof_N 	N 	0.3305	0.95729	0.89052	-0.262
Mof_N 	N 	0.8254	0.40141	0.56058	-0.259
Mof_N 	N 	0.8254	0.59859	0.43942	-0.259
Mof_N 	N 	0.3133	0.58833	0.73542	-0.217
Mof_N 	N 	0.3133	0.41167	0.26458	-0.214
Mof_N 	N 	0.6867	0.73542	0.41167	-0.211
Mof_N 	N 	0.8093	0.75102	0.0494	-0.205
Mof_N 	N 	0.1746	0.43942	0.40141	-0.275
Mof_N 	N 	0.6695	0.89052	0.04271	-0.239
Mof_N 	N 	0.6867	0.26458	0.58833	-0.209
Mof_N 	N 	0.1746	0.56058	0.59859	-0.275
Mof_N 	N 	0.6695	0.10948	0.95729	-0.273
Mof_N 	N 	0.1907	0.0494	0.24898	-0.178
Mof_N 	N 	0.8093	0.24898	0.9506	-0.25
_end
