data_functionalizedCrystal
_audit_creation_method	'EQeq! by Chris Wilmer'
_symmetry_space_group_name_H-M	'P1'
_symmetry_Int_Tables_number	1
_symmetry_cell_setting	triclinic
loop_
_symmetry_equiv_pos_as_xyz
  x,y,z
_cell_length_a	6.4094
_cell_length_b	14.857
_cell_length_c	16.066
_cell_angle_alpha	90
_cell_angle_beta	90
_cell_angle_gamma	90
loop_
_atom_site_label
_atom_site_type_symbol
_atom_site_fract_x
_atom_site_fract_y
_atom_site_fract_z
_atom_site_charge
Mof_Cu	Cu	0.7577	0.59184	0.63607	0.918
Mof_Cu	Cu	0.01037	0.75704	0.50551	0.873
Mof_Cu	Cu	0.7423	0.40816	0.13607	0.917
Mof_Cu	Cu	0.48963	0.24296	0.00551	0.872
Mof_Cu	Cu	0.2423	0.09184	0.86393	0.917
Mof_Cu	Cu	0.98963	0.25704	0.99449	0.872
Mof_Cu	Cu	0.2577	0.90816	0.36393	0.916
Mof_Cu	Cu	0.51037	0.74296	0.49449	0.873
Mof_H 	H 	0.1407	0.4828	0.7419	0.181
Mof_H 	H 	0.373	0.4851	0.7423	0.178
Mof_H 	H 	0.7349	0.576	0.8996	0.074
Mof_H 	H 	0.7346	0.7357	0.1036	0.098
Mof_H 	H 	0.7358	0.8453	0.8739	0.093
Mof_H 	H 	0.3593	0.5172	0.2419	0.181
Mof_H 	H 	0.127	0.5149	0.2423	0.178
Mof_H 	H 	0.7651	0.424	0.3996	0.074
Mof_H 	H 	0.7654	0.2643	0.6036	0.098
Mof_H 	H 	0.7642	0.1547	0.3739	0.093
Mof_H 	H 	0.8593	0.9828	0.7581	0.18
Mof_H 	H 	0.627	0.9851	0.7577	0.177
Mof_H 	H 	0.2651	0.076	0.6004	0.074
Mof_H 	H 	0.2654	0.2357	0.3964	0.098
Mof_H 	H 	0.2642	0.3453	0.6261	0.093
Mof_H 	H 	0.6407	0.0172	0.2581	0.179
Mof_H 	H 	0.873	0.0149	0.2577	0.176
Mof_H 	H 	0.2349	0.924	0.1004	0.074
Mof_H 	H 	0.2346	0.7643	0.8964	0.098
Mof_H 	H 	0.2358	0.6547	0.1261	0.093
Mof_C 	C 	0.7391	0.7089	0.8724	-0.023
Mof_C 	C 	0.7351	0.633	0.9235	-0.014
Mof_C 	C 	0.7314	0.6413	0.0103	-0.019
Mof_C 	C 	0.733	0.7281	0.0462	-0.085
Mof_C 	C 	0.732	0.8009	0.9931	0.107
Mof_C 	C 	0.7357	0.7942	0.9073	-0.085
Mof_C 	C 	0.7373	0.6981	0.778	0.318
Mof_C 	C 	0.7284	0.5611	0.0666	0.303
Mof_C 	C 	0.2532	0.5696	0.6647	0.241
Mof_C 	C 	0.7609	0.2911	0.3724	-0.023
Mof_C 	C 	0.7649	0.367	0.4235	-0.013
Mof_C 	C 	0.7686	0.3587	0.5103	-0.019
Mof_C 	C 	0.767	0.2719	0.5462	-0.088
Mof_C 	C 	0.768	0.1991	0.4931	0.109
Mof_C 	C 	0.7643	0.2058	0.4073	-0.086
Mof_C 	C 	0.7627	0.3019	0.278	0.317
Mof_C 	C 	0.7716	0.4389	0.5666	0.303
Mof_C 	C 	0.2468	0.4304	0.1647	0.24
Mof_C 	C 	0.2609	0.2089	0.6276	-0.023
Mof_C 	C 	0.2649	0.133	0.5765	-0.013
Mof_C 	C 	0.2686	0.1413	0.4897	-0.02
Mof_C 	C 	0.267	0.2281	0.4538	-0.088
Mof_C 	C 	0.268	0.3009	0.5069	0.109
Mof_C 	C 	0.2643	0.2942	0.5927	-0.087
Mof_C 	C 	0.2627	0.1981	0.722	0.317
Mof_C 	C 	0.2716	0.0611	0.4334	0.304
Mof_C 	C 	0.7468	0.0696	0.8353	0.24
Mof_C 	C 	0.2391	0.7911	0.1276	-0.023
Mof_C 	C 	0.2351	0.867	0.0765	-0.013
Mof_C 	C 	0.2314	0.8587	0.9897	-0.019
Mof_C 	C 	0.233	0.7719	0.9538	-0.087
Mof_C 	C 	0.232	0.6991	0.0069	0.109
Mof_C 	C 	0.2357	0.7058	0.0927	-0.086
Mof_C 	C 	0.2373	0.8019	0.222	0.317
Mof_C 	C 	0.2284	0.9389	0.9334	0.3
Mof_C 	C 	0.7532	0.9304	0.3353	0.24
Mof_N 	N 	0.0842	0.6053	0.6305	-0.186
Mof_N 	N 	0.433	0.6049	0.6296	-0.182
Mof_N 	N 	0.3589	0.6622	0.5718	-0.161
Mof_N 	N 	0.1571	0.6647	0.5747	-0.158
Mof_N 	N 	0.256	0.5047	0.7234	-0.344
Mof_N 	N 	0.7306	0.8919	0.0325	-0.009
Mof_N 	N 	0.4158	0.3947	0.1305	-0.186
Mof_N 	N 	0.067	0.3951	0.1296	-0.182
Mof_N 	N 	0.1411	0.3378	0.0718	-0.161
Mof_N 	N 	0.3429	0.3353	0.0747	-0.158
Mof_N 	N 	0.244	0.4953	0.2234	-0.344
Mof_N 	N 	0.7694	0.1081	0.5325	-0.011
Mof_N 	N 	0.9158	0.1053	0.8695	-0.186
Mof_N 	N 	0.567	0.1049	0.8704	-0.182
Mof_N 	N 	0.6411	0.1622	0.9282	-0.16
Mof_N 	N 	0.8429	0.1647	0.9253	-0.158
Mof_N 	N 	0.744	0.0047	0.7766	-0.343
Mof_N 	N 	0.2694	0.3919	0.4675	-0.011
Mof_N 	N 	0.5842	0.8947	0.3695	-0.185
Mof_N 	N 	0.933	0.8951	0.3704	-0.181
Mof_N 	N 	0.8589	0.8378	0.4282	-0.16
Mof_N 	N 	0.6571	0.8353	0.4253	-0.158
Mof_N 	N 	0.756	0.9953	0.2766	-0.341
Mof_N 	N 	0.2306	0.6081	0.9675	-0.01
Mof_O 	O 	0.7575	0.6182	0.7525	-0.388
Mof_O 	O 	0.7373	0.4825	0.0328	-0.371
Mof_O 	O 	0.7549	0.7263	0.5634	-0.51
Mof_O 	O 	0.7193	0.5715	0.1422	-0.315
Mof_O 	O 	0.722	0.7658	0.7331	-0.277
Mof_O 	O 	0.7307	0.8961	0.1078	-0.124
Mof_O 	O 	0.7407	0.9567	0.9858	-0.128
Mof_O 	O 	0.7425	0.3818	0.2525	-0.388
Mof_O 	O 	0.7627	0.5175	0.5328	-0.371
Mof_O 	O 	0.7451	0.2737	0.0634	-0.511
Mof_O 	O 	0.7807	0.4285	0.6422	-0.316
Mof_O 	O 	0.778	0.2342	0.2331	-0.278
Mof_O 	O 	0.7693	0.1039	0.6078	-0.125
Mof_O 	O 	0.7593	0.0433	0.4858	-0.126
Mof_O 	O 	0.2425	0.1182	0.7475	-0.387
Mof_O 	O 	0.2627	0.9825	0.4672	-0.372
Mof_O 	O 	0.2451	0.2263	0.9366	-0.509
Mof_O 	O 	0.2807	0.0715	0.3578	-0.316
Mof_O 	O 	0.278	0.2658	0.7669	-0.277
Mof_O 	O 	0.2693	0.3961	0.3922	-0.125
Mof_O 	O 	0.2593	0.4567	0.5142	-0.126
Mof_O 	O 	0.2575	0.8818	0.2475	-0.388
Mof_O 	O 	0.2373	0.0175	0.9672	-0.368
Mof_O 	O 	0.2549	0.7737	0.4366	-0.511
Mof_O 	O 	0.2193	0.9285	0.8578	-0.315
Mof_O 	O 	0.222	0.7342	0.2669	-0.278
Mof_O 	O 	0.2307	0.6039	0.8922	-0.125
Mof_O 	O 	0.2407	0.5433	0.0142	-0.126
_end
