data_functionalizedCrystal
_audit_creation_method	'EQeq! by Chris Wilmer'
_symmetry_space_group_name_H-M	'P1'
_symmetry_Int_Tables_number	1
_symmetry_cell_setting	triclinic
loop_
_symmetry_equiv_pos_as_xyz
  x,y,z
_cell_length_a	10.2347
_cell_length_b	10.8608
_cell_length_c	13.7452
_cell_angle_alpha	79.053
_cell_angle_beta	78.745
_cell_angle_gamma	86.326
loop_
_atom_site_label
_atom_site_type_symbol
_atom_site_fract_x
_atom_site_fract_y
_atom_site_fract_z
_atom_site_charge
Mof_Tb	Tb	0.31928	0.92247	0.2971	1.954
Mof_Tb	Tb	0.68072	0.07753	0.7029	1.964
Mof_Ni	Ni	1.81181e-17	0.5	0.5	1.032
Mof_H 	H 	0.3264	0.6692	0.1541	0.059
Mof_H 	H 	0.3464	0.3297	0.0764	0.095
Mof_H 	H 	0.2821	0.3598	0.3683	0.02
Mof_H 	H 	0.3463	0.7726	0.8511	0.064
Mof_H 	H 	0.3539	0.8806	0.6916	0.012
Mof_H 	H 	0.3659	0.5743	0.5846	0.018
Mof_H 	H 	0.3554	0.4546	0.7426	0.079
Mof_H 	H 	0.8241	0.9115	0.2814	0.086
Mof_H 	H 	0.6966	0.8516	0.0364	0.125
Mof_H 	H 	0.0884	0.8422	0.0395	0.146
Mof_H 	H 	0.0182	0.8289	0.7153	0.059
Mof_H 	H 	0.0332	0.7469	0.5713	-0.04
Mof_H 	H 	0.0137	0.4076	0.7238	-0.024
Mof_H 	H 	0.0103	0.4776	0.8699	0.105
Mof_H 	H 	0.3767	0.6461	0.9825	0.14
Mof_H 	H 	0.8795	0.8391	0.8818	0.162
Mof_H 	H 	0.6736	0.3308	0.8459	0.067
Mof_H 	H 	0.6536	0.6703	0.9236	0.102
Mof_H 	H 	0.7179	0.6402	0.6317	0.028
Mof_H 	H 	0.6537	0.2274	0.1489	0.065
Mof_H 	H 	0.6461	0.1194	0.3084	0.012
Mof_H 	H 	0.6341	0.4257	0.4154	0.018
Mof_H 	H 	0.6446	0.5454	0.2574	0.08
Mof_H 	H 	0.1759	0.0885	0.7186	0.029
Mof_H 	H 	0.3034	0.1484	0.9636	0.092
Mof_H 	H 	0.9116	0.1578	0.9605	0.065
Mof_H 	H 	0.9818	0.1711	0.2847	0.071
Mof_H 	H 	0.9668	0.2531	0.4287	-0.029
Mof_H 	H 	0.9863	0.5924	0.2762	-0.01
Mof_H 	H 	0.9897	0.5224	0.1301	0.116
Mof_H 	H 	0.6233	0.3539	0.0175	0.14
Mof_H 	H 	0.1205	0.1609	0.1182	0.149
Mof_C 	C 	0.298	0.5267	0.2738	-0.125
Mof_C 	C 	0.3211	0.5825	0.1723	-0.057
Mof_C 	C 	0.3362	0.5095	0.0982	0.117
Mof_C 	C 	0.3348	0.3796	0.1256	-0.09
Mof_C 	C 	0.3161	0.3252	0.2267	-0.063
Mof_C 	C 	0.2964	0.3976	0.3007	0.024
Mof_C 	C 	0.3133	0.1854	0.2532	0.325
Mof_C 	C 	0.2666	0.6059	0.3547	0.456
Mof_C 	C 	0.3348	0.5171	0.9189	0.226
Mof_C 	C 	0.3482	0.5997	0.8169	0.008
Mof_C 	C 	0.349	0.7294	0.7984	-0.092
Mof_C 	C 	0.3539	0.7935	0.7023	0.063
Mof_C 	C 	0.3605	0.6145	0.6394	0.061
Mof_C 	C 	0.3548	0.5416	0.7343	-0.091
Mof_C 	C 	0.9742	0.8792	0.1681	0.105
Mof_C 	C 	0.842	0.8949	0.2161	-0.118
Mof_C 	C 	0.7381	0.8858	0.1675	0.034
Mof_C 	C 	0.766	0.8572	0.0699	-0.174
Mof_C 	C 	0.8966	0.8373	0.0236	0.241
Mof_C 	C 	0.0006	0.8514	0.072	-0.269
Mof_C 	C 	0.0911	0.8909	0.2168	0.227
Mof_C 	C 	0.5936	0.9019	0.2154	0.287
Mof_C 	C 	0.0061	0.7036	0.9082	0.179
Mof_C 	C 	0.0092	0.661	0.8098	0.034
Mof_C 	C 	0.0175	0.7426	0.7187	-0.129
Mof_C 	C 	0.0249	0.6922	0.6329	0.081
Mof_C 	C 	0.0152	0.4936	0.7219	0.083
Mof_C 	C 	0.0114	0.5347	0.8101	-0.13
Mof_C 	C 	0.702	0.4733	0.7262	-0.112
Mof_C 	C 	0.6789	0.4175	0.8277	-0.062
Mof_C 	C 	0.6638	0.4905	0.9018	0.138
Mof_C 	C 	0.6652	0.6204	0.8744	-0.095
Mof_C 	C 	0.6839	0.6748	0.7733	-0.05
Mof_C 	C 	0.7036	0.6024	0.6993	0.023
Mof_C 	C 	0.6867	0.8146	0.7468	0.327
Mof_C 	C 	0.7334	0.3941	0.6453	0.456
Mof_C 	C 	0.6652	0.4829	0.0811	0.228
Mof_C 	C 	0.6518	0.4003	0.1831	0.008
Mof_C 	C 	0.651	0.2706	0.2016	-0.092
Mof_C 	C 	0.6461	0.2065	0.2977	0.063
Mof_C 	C 	0.6395	0.3855	0.3606	0.061
Mof_C 	C 	0.6452	0.4584	0.2657	-0.09
Mof_C 	C 	0.0258	0.1208	0.8319	-0.131
Mof_C 	C 	0.158	0.1051	0.7839	0.021
Mof_C 	C 	0.2619	0.1142	0.8325	-0.061
Mof_C 	C 	0.234	0.1428	0.9301	-0.066
Mof_C 	C 	0.1034	0.1627	0.9764	0.084
Mof_C 	C 	0.9994	0.1486	0.928	0.014
Mof_C 	C 	0.9089	0.1091	0.7832	0.346
Mof_C 	C 	0.4064	0.0981	0.7846	0.319
Mof_C 	C 	0.9939	0.2964	0.0918	0.224
Mof_C 	C 	0.9908	0.339	0.1902	0.036
Mof_C 	C 	0.9825	0.2574	0.2813	-0.117
Mof_C 	C 	0.9751	0.3078	0.3671	0.088
Mof_C 	C 	0.9848	0.5064	0.2781	0.091
Mof_C 	C 	0.9886	0.4653	0.1899	-0.121
Mof_N 	N 	0.3529	0.5693	0.9964	-0.234
Mof_N 	N 	0.3585	0.7387	0.6228	-0.141
Mof_N 	N 	0.9204	0.7998	0.9281	-0.236
Mof_N 	N 	0.0208	0.5703	0.633	-0.246
Mof_N 	N 	0.6471	0.4307	0.0036	-0.242
Mof_N 	N 	0.6415	0.2613	0.3772	-0.14
Mof_N 	N 	0.0796	0.2002	0.0719	-0.247
Mof_N 	N 	0.9792	0.4297	0.367	-0.234
Mof_O 	O 	0.1923	0.5633	0.4355	-0.479
Mof_O 	O 	0.3189	0.7122	0.3358	-0.548
Mof_O 	O 	0.3287	0.1295	0.3383	-0.462
Mof_O 	O 	0.2932	0.1228	0.1899	-0.434
Mof_O 	O 	0.3088	0.4089	0.9263	-0.232
Mof_O 	O 	0.0733	0.9053	0.3084	-0.428
Mof_O 	O 	0.2074	0.885	0.1667	-0.397
Mof_O 	O 	0.5603	0.9009	0.3084	-0.414
Mof_O 	O 	0.5046	0.915	0.1623	-0.412
Mof_O 	O 	0.0759	0.649	0.9667	-0.222
Mof_O 	O 	0.8077	0.4367	0.5645	-0.465
Mof_O 	O 	0.6811	0.2878	0.6642	-0.547
Mof_O 	O 	0.6713	0.8705	0.6617	-0.455
Mof_O 	O 	0.7068	0.8772	0.8101	-0.429
Mof_O 	O 	0.6912	0.5911	0.0737	-0.233
Mof_O 	O 	0.9267	0.0947	0.6916	-0.432
Mof_O 	O 	0.7926	0.115	0.8333	-0.421
Mof_O 	O 	0.4397	0.0991	0.6916	-0.425
Mof_O 	O 	0.4954	0.085	0.8377	-0.42
Mof_O 	O 	0.9241	0.351	0.0333	-0.219
_end
