data_functionalizedCrystal
_audit_creation_method	'EQeq! by Chris Wilmer'
_symmetry_space_group_name_H-M	'P1'
_symmetry_Int_Tables_number	1
_symmetry_cell_setting	triclinic
loop_
_symmetry_equiv_pos_as_xyz
  x,y,z
_cell_length_a	21.336
_cell_length_b	23.766
_cell_length_c	15.808
_cell_angle_alpha	90
_cell_angle_beta	101.568
_cell_angle_gamma	90
loop_
_atom_site_label
_atom_site_type_symbol
_atom_site_fract_x
_atom_site_fract_y
_atom_site_fract_z
_atom_site_charge
Mof_Zn	Zn	0.95006	0.98967	0.2658	1.223
Mof_Zn	Zn	0.02913	0.00973	0.13147	1.216
Mof_O 	O 	0.0085	0.0399	0.3474	-0.468
Mof_O 	O 	0.0635	0.0547	0.2428	-0.484
Mof_O 	O 	0.4088	0.4413	0.7041	-0.476
Mof_O 	O 	0.4639	0.4272	0.5969	-0.429
Mof_O 	O 	0.0072	0.9226	0.2925	-0.512
Mof_O 	O 	0.066	0.936	0.192	-0.449
Mof_O 	O 	0.4154	0.55	0.6483	-0.467
Mof_O 	O 	0.4699	0.5373	0.5423	-0.435
Mof_N 	N 	0.2293	0.2106	0.5265	-0.091
Mof_N 	N 	0.2674	0.2294	0.5024	-0.102
Mof_N 	N 	0.207	0.7247	0.399	-0.117
Mof_N 	N 	0.2644	0.7187	0.3662	-0.107
Mof_C 	C 	0.052	0.0603	0.3178	0.399
Mof_C 	C 	0.095	0.1029	0.3767	-0.133
Mof_C 	C 	0.0924	0.1096	0.4633	0.067
Mof_H 	H 	0.0624	0.0888	0.4875	0.027
Mof_C 	C 	0.1338	0.147	0.5144	-0.16
Mof_H 	H 	0.132	0.1516	0.5735	0.092
Mof_C 	C 	0.1777	0.1775	0.4789	0.127
Mof_C 	C 	0.1803	0.1707	0.3923	-0.158
Mof_H 	H 	0.2103	0.1916	0.3681	0.081
Mof_C 	C 	0.1389	0.1334	0.3412	0.058
Mof_H 	H 	0.1407	0.1288	0.2821	0.016
Mof_C 	C 	0.3053	0.2723	0.5441	0.141
Mof_C 	C 	0.2848	0.3113	0.5982	-0.169
Mof_H 	H 	0.2443	0.3069	0.6136	0.092
Mof_C 	C 	0.3236	0.3567	0.6299	0.072
Mof_H 	H 	0.3096	0.3833	0.6669	0.014
Mof_C 	C 	0.3829	0.3631	0.6074	-0.148
Mof_C 	C 	0.4034	0.3241	0.5532	0.081
Mof_H 	H 	0.4439	0.3285	0.5378	0.012
Mof_C 	C 	0.3646	0.2788	0.5216	-0.17
Mof_H 	H 	0.3786	0.2521	0.4845	0.084
Mof_C 	C 	0.4206	0.4131	0.6462	0.378
Mof_C 	C 	0.05	0.9122	0.2614	0.425
Mof_C 	C 	0.0935	0.8611	0.2847	-0.153
Mof_C 	C 	0.0758	0.8266	0.347	0.074
Mof_H 	H 	0.0374	0.8339	0.3668	0.016
Mof_C 	C 	0.1144	0.7815	0.3804	-0.167
Mof_H 	H 	0.1023	0.7579	0.4229	0.082
Mof_C 	C 	0.1706	0.7708	0.3514	0.141
Mof_C 	C 	0.1882	0.8052	0.2891	-0.17
Mof_H 	H 	0.2266	0.7979	0.2693	0.097
Mof_C 	C 	0.1497	0.8504	0.2557	0.083
Mof_H 	H 	0.1618	0.874	0.2132	0.011
Mof_C 	C 	0.2933	0.673	0.4249	0.139
Mof_C 	C 	0.2874	0.6595	0.5085	-0.179
Mof_H 	H 	0.2547	0.6765	0.5328	0.083
Mof_C 	C 	0.3293	0.6213	0.5567	0.074
Mof_H 	H 	0.3252	0.6121	0.6138	0.01
Mof_C 	C 	0.3771	0.5964	0.5212	-0.158
Mof_C 	C 	0.383	0.6098	0.4376	0.078
Mof_H 	H 	0.4156	0.5929	0.4133	0.024
Mof_C 	C 	0.3411	0.6481	0.3894	-0.167
Mof_H 	H 	0.3451	0.6573	0.3323	0.096
Mof_C 	C 	0.425	0.5604	0.5737	0.385
Mof_N 	N 	0.8724	0.9698	0.3174	-0.247
Mof_C 	C 	0.8155	0.9683	0.2567	0.08
Mof_H 	H 	0.816	0.9725	0.1971	0
Mof_C 	C 	0.7577	0.9608	0.2832	-0.194
Mof_H 	H 	0.7188	0.9598	0.2417	0.09
Mof_C 	C 	0.757	0.9547	0.3704	0.181
Mof_C 	C 	0.8139	0.9562	0.4312	-0.195
Mof_H 	H 	0.8134	0.952	0.4908	0.103
Mof_C 	C 	0.8717	0.9637	0.4046	0.094
Mof_H 	H 	0.9106	0.9646	0.4462	0.008
Mof_C 	C 	0.691	0.9554	0.3956	-0.306
Mof_C 	C 	0.6551	0.9062	0.387	0.35
Mof_C 	C 	0.5934	0.9066	0.4031	-0.34
Mof_H 	H 	0.5688	0.873	0.3973	0.136
Mof_C 	C 	0.5676	0.9562	0.4278	0.212
Mof_C 	C 	0.6036	0.0054	0.436	-0.336
Mof_H 	H 	0.5859	0.0394	0.4533	0.131
Mof_C 	C 	0.6652	0.005	0.4203	0.351
Mof_C 	C 	0.6839	0.8516	0.365	-0.711
Mof_H 	H 	0.6525	0.8213	0.3635	0.228
Mof_H 	H 	0.7219	0.8432	0.4097	0.236
Mof_H 	H 	0.6961	0.8549	0.309	0.231
Mof_C 	C 	0.6969	0.0617	0.42	-0.712
Mof_H 	H 	0.6691	0.0908	0.4363	0.229
Mof_H 	H 	0.7042	0.0696	0.3617	0.237
Mof_H 	H 	0.7379	0.0615	0.461	0.241
Mof_N 	N 	0.991	0.4579	0.453	-0.16
Mof_H 	H 	0.9708	0.4883	0.4648	0.091
Mof_C 	C 	0.9708	0.4107	0.4528	-0.153
Mof_H 	H 	0.9962	0.3878	0.4998	0.07
Mof_H 	H 	0.9704	0.3919	0.3967	0.069
Mof_C 	C 	0.9034	0.4209	0.4672	0.262
Mof_C 	C 	0.8739	0.4731	0.4513	-0.378
Mof_H 	H 	0.8953	0.503	0.4292	0.144
Mof_C 	C 	0.813	0.4814	0.4679	0.378
Mof_C 	C 	0.7816	0.4376	0.5004	-0.352
Mof_C 	C 	0.8112	0.3855	0.5163	0.424
Mof_C 	C 	0.872	0.3771	0.4997	-0.406
Mof_H 	H 	0.8922	0.3415	0.5105	0.161
Mof_C 	C 	0.776	0.5343	0.436	-0.736
Mof_H 	H 	0.8046	0.5602	0.4127	0.227
Mof_H 	H 	0.7612	0.5524	0.4834	0.249
Mof_H 	H 	0.7398	0.5246	0.3899	0.244
Mof_C 	C 	0.7779	0.3405	0.554	-0.811
Mof_H 	H 	0.7358	0.354	0.5605	0.263
Mof_H 	H 	0.8032	0.33	0.6105	0.252
Mof_H 	H 	0.7727	0.3077	0.5157	0.265
Mof_C 	C 	0.7214	0.4516	0.5294	0.211
Mof_C 	C 	0.6632	0.4469	0.4717	-0.221
Mof_H 	H 	0.6621	0.4352	0.414	0.107
Mof_C 	C 	0.6066	0.4596	0.4985	0.1
Mof_H 	H 	0.5668	0.4564	0.4591	-0.007
Mof_N 	N 	0.6082	0.4768	0.5829	-0.26
Mof_C 	C 	0.6665	0.4814	0.6406	0.096
Mof_H 	H 	0.6676	0.4932	0.6983	-0.013
Mof_C 	C 	0.7231	0.4688	0.6138	-0.223
Mof_H 	H 	0.7628	0.472	0.6532	0.098
Mof_N 	N 	0.491	0.0421	0.953	-0.157
Mof_H 	H 	0.4708	0.0117	0.9648	0.09
Mof_C 	C 	0.4708	0.0893	0.9528	-0.163
Mof_H 	H 	0.4962	0.1122	0.9998	0.07
Mof_H 	H 	0.4704	0.1081	0.8967	0.071
Mof_C 	C 	0.4034	0.0791	0.9672	0.278
Mof_C 	C 	0.3739	0.0269	0.9513	-0.387
Mof_H 	H 	0.3953	0.997	0.9292	0.145
Mof_C 	C 	0.313	0.0186	0.9679	0.377
Mof_C 	C 	0.2816	0.0624	0.0004	-0.358
Mof_C 	C 	0.3112	0.1145	0.0163	0.455
Mof_C 	C 	0.372	0.1229	0.9997	-0.448
Mof_H 	H 	0.3922	0.1585	0.0105	0.181
Mof_C 	C 	0.276	0.9657	0.936	-0.735
Mof_H 	H 	0.3046	0.9398	0.9127	0.226
Mof_H 	H 	0.2612	0.9476	0.9834	0.246
Mof_H 	H 	0.2398	0.9754	0.8899	0.242
Mof_C 	C 	0.2779	0.1595	0.054	-0.843
Mof_H 	H 	0.2358	0.146	0.0605	0.274
Mof_H 	H 	0.3032	0.17	0.1105	0.262
Mof_H 	H 	0.2727	0.1923	0.0157	0.276
Mof_C 	C 	0.2214	0.0484	0.0294	0.226
Mof_C 	C 	0.1632	0.0531	0.9717	-0.235
Mof_H 	H 	0.1621	0.0648	0.914	0.111
Mof_C 	C 	0.1066	0.0404	0.9985	0.097
Mof_H 	H 	0.0668	0.0436	0.9591	-0.008
Mof_N 	N 	0.1082	0.0232	0.0829	-0.257
Mof_C 	C 	0.1665	0.0186	0.1406	0.101
Mof_H 	H 	0.1676	0.0068	0.1983	-0.014
Mof_C 	C 	0.2231	0.0312	0.1138	-0.229
Mof_H 	H 	0.2628	0.028	0.1532	0.102
Mof_Zn	Zn	0.45006	0.51033	0.7658	1.222
Mof_Zn	Zn	0.52913	0.49027	0.63147	1.214
Mof_O 	O 	0.5085	0.4601	0.8474	-0.468
Mof_O 	O 	0.5635	0.4453	0.7428	-0.483
Mof_O 	O 	0.9088	0.0587	0.2041	-0.475
Mof_O 	O 	0.9639	0.0728	0.0969	-0.426
Mof_O 	O 	0.5072	0.5774	0.7925	-0.513
Mof_O 	O 	0.566	0.564	0.692	-0.45
Mof_O 	O 	0.9154	0.95	0.1483	-0.464
Mof_O 	O 	0.9699	0.9627	0.0423	-0.428
Mof_N 	N 	0.7293	0.2894	0.0265	-0.082
Mof_N 	N 	0.7674	0.2706	0.0024	-0.098
Mof_N 	N 	0.707	0.7753	0.899	-0.119
Mof_N 	N 	0.7644	0.7813	0.8662	-0.105
Mof_C 	C 	0.552	0.4397	0.8178	0.393
Mof_C 	C 	0.595	0.3971	0.8767	-0.116
Mof_C 	C 	0.5924	0.3904	0.9633	0.031
Mof_H 	H 	0.5624	0.4112	0.9875	0.035
Mof_C 	C 	0.6338	0.353	0.0144	-0.113
Mof_H 	H 	0.632	0.3484	0.0735	0.078
Mof_C 	C 	0.6777	0.3225	0.9789	0.092
Mof_C 	C 	0.6803	0.3293	0.8923	-0.136
Mof_H 	H 	0.7103	0.3084	0.8681	0.072
Mof_C 	C 	0.6389	0.3666	0.8412	0.038
Mof_H 	H 	0.6407	0.3712	0.7821	0.022
Mof_C 	C 	0.8053	0.2277	0.0441	0.133
Mof_C 	C 	0.7848	0.1887	0.0982	-0.16
Mof_H 	H 	0.7443	0.1931	0.1136	0.09
Mof_C 	C 	0.8236	0.1433	0.1299	0.066
Mof_H 	H 	0.8096	0.1167	0.1669	0.017
Mof_C 	C 	0.8829	0.1369	0.1074	-0.138
Mof_C 	C 	0.9034	0.1759	0.0532	0.066
Mof_H 	H 	0.9439	0.1715	0.0378	0.02
Mof_C 	C 	0.8646	0.2212	0.0216	-0.142
Mof_H 	H 	0.8786	0.2479	0.9845	0.068
Mof_C 	C 	0.9206	0.0869	0.1462	0.376
Mof_C 	C 	0.55	0.5878	0.7614	0.425
Mof_C 	C 	0.5935	0.6389	0.7847	-0.154
Mof_C 	C 	0.5758	0.6734	0.847	0.073
Mof_H 	H 	0.5374	0.6661	0.8668	0.015
Mof_C 	C 	0.6144	0.7185	0.8804	-0.168
Mof_H 	H 	0.6023	0.7421	0.9229	0.08
Mof_C 	C 	0.6706	0.7292	0.8514	0.139
Mof_C 	C 	0.6882	0.6948	0.7891	-0.171
Mof_H 	H 	0.7266	0.7021	0.7693	0.096
Mof_C 	C 	0.6497	0.6496	0.7557	0.082
Mof_H 	H 	0.6618	0.626	0.7132	0.01
Mof_C 	C 	0.7933	0.827	0.9249	0.114
Mof_C 	C 	0.7874	0.8405	0.0085	-0.147
Mof_H 	H 	0.7547	0.8235	0.0328	0.076
Mof_C 	C 	0.8293	0.8787	0.0567	0.052
Mof_H 	H 	0.8252	0.8879	0.1138	0.019
Mof_C 	C 	0.8771	0.9036	0.0212	-0.129
Mof_C 	C 	0.883	0.8902	0.9376	0.046
Mof_H 	H 	0.9156	0.9071	0.9133	0.032
Mof_C 	C 	0.8411	0.8519	0.8894	-0.145
Mof_H 	H 	0.8451	0.8427	0.8323	0.088
Mof_C 	C 	0.925	0.9396	0.0737	0.376
Mof_N 	N 	0.3724	0.5302	0.8174	-0.247
Mof_C 	C 	0.3155	0.5317	0.7567	0.079
Mof_H 	H 	0.316	0.5275	0.6971	-0
Mof_C 	C 	0.2577	0.5392	0.7832	-0.193
Mof_H 	H 	0.2188	0.5402	0.7417	0.089
Mof_C 	C 	0.257	0.5453	0.8704	0.179
Mof_C 	C 	0.3139	0.5438	0.9312	-0.195
Mof_H 	H 	0.3134	0.548	0.9908	0.099
Mof_C 	C 	0.3717	0.5363	0.9046	0.092
Mof_H 	H 	0.4106	0.5354	0.9462	0.005
Mof_C 	C 	0.191	0.5446	0.8956	-0.304
Mof_C 	C 	0.1551	0.5938	0.887	0.346
Mof_C 	C 	0.0934	0.5934	0.9031	-0.338
Mof_H 	H 	0.0688	0.627	0.8973	0.134
Mof_C 	C 	0.0676	0.5438	0.9278	0.21
Mof_C 	C 	0.1036	0.4946	0.936	-0.334
Mof_H 	H 	0.0859	0.4606	0.9533	0.129
Mof_C 	C 	0.1652	0.495	0.9203	0.346
Mof_C 	C 	0.1839	0.6484	0.865	-0.705
Mof_H 	H 	0.1525	0.6787	0.8635	0.224
Mof_H 	H 	0.2219	0.6568	0.9097	0.232
Mof_H 	H 	0.1961	0.6451	0.809	0.228
Mof_C 	C 	0.1969	0.4383	0.92	-0.704
Mof_H 	H 	0.1691	0.4092	0.9363	0.226
Mof_H 	H 	0.2042	0.4304	0.8617	0.234
Mof_H 	H 	0.2379	0.4385	0.961	0.236
Mof_N 	N 	0.491	0.9579	0.453	-0.16
Mof_H 	H 	0.4708	0.9883	0.4648	0.092
Mof_C 	C 	0.4708	0.9107	0.4528	-0.153
Mof_H 	H 	0.4962	0.8878	0.4998	0.07
Mof_H 	H 	0.4704	0.8919	0.3967	0.069
Mof_C 	C 	0.4034	0.9209	0.4672	0.262
Mof_C 	C 	0.3739	0.9731	0.4513	-0.379
Mof_H 	H 	0.3953	0.003	0.4292	0.144
Mof_C 	C 	0.313	0.9814	0.4679	0.378
Mof_C 	C 	0.2816	0.9376	0.5004	-0.353
Mof_C 	C 	0.3112	0.8855	0.5163	0.424
Mof_C 	C 	0.372	0.8771	0.4997	-0.406
Mof_H 	H 	0.3922	0.8415	0.5105	0.161
Mof_C 	C 	0.276	0.0343	0.436	-0.737
Mof_H 	H 	0.3046	0.0602	0.4127	0.227
Mof_H 	H 	0.2612	0.0524	0.4834	0.249
Mof_H 	H 	0.2398	0.0246	0.3899	0.244
Mof_C 	C 	0.2779	0.8405	0.554	-0.811
Mof_H 	H 	0.2358	0.854	0.5605	0.263
Mof_H 	H 	0.3032	0.83	0.6105	0.252
Mof_H 	H 	0.2727	0.8077	0.5157	0.265
Mof_C 	C 	0.2214	0.9516	0.5294	0.212
Mof_C 	C 	0.1632	0.9469	0.4717	-0.222
Mof_H 	H 	0.1621	0.9352	0.414	0.107
Mof_C 	C 	0.1066	0.9596	0.4985	0.1
Mof_H 	H 	0.0668	0.9564	0.4591	-0.007
Mof_N 	N 	0.1082	0.9768	0.5829	-0.26
Mof_C 	C 	0.1665	0.9814	0.6406	0.096
Mof_H 	H 	0.1676	0.9932	0.6983	-0.013
Mof_C 	C 	0.2231	0.9688	0.6138	-0.223
Mof_H 	H 	0.2628	0.972	0.6532	0.099
Mof_Zn	Zn	0.45006	0.48967	0.2658	1.222
Mof_Zn	Zn	0.52913	0.50973	0.13147	1.215
Mof_O 	O 	0.5085	0.5399	0.3474	-0.469
Mof_O 	O 	0.5635	0.5547	0.2428	-0.484
Mof_O 	O 	0.9088	0.9413	0.7041	-0.476
Mof_O 	O 	0.9639	0.9272	0.5969	-0.429
Mof_O 	O 	0.5072	0.4226	0.2925	-0.512
Mof_O 	O 	0.566	0.436	0.192	-0.449
Mof_O 	O 	0.9154	0.05	0.6483	-0.467
Mof_O 	O 	0.9699	0.0373	0.5423	-0.435
Mof_N 	N 	0.7293	0.7106	0.5265	-0.092
Mof_N 	N 	0.7674	0.7294	0.5024	-0.102
Mof_N 	N 	0.707	0.2247	0.399	-0.117
Mof_N 	N 	0.7644	0.2187	0.3662	-0.107
Mof_C 	C 	0.552	0.5603	0.3178	0.399
Mof_C 	C 	0.595	0.6029	0.3767	-0.133
Mof_C 	C 	0.5924	0.6096	0.4633	0.067
Mof_H 	H 	0.5624	0.5888	0.4875	0.027
Mof_C 	C 	0.6338	0.647	0.5144	-0.16
Mof_H 	H 	0.632	0.6516	0.5735	0.092
Mof_C 	C 	0.6777	0.6775	0.4789	0.127
Mof_C 	C 	0.6803	0.6707	0.3923	-0.158
Mof_H 	H 	0.7103	0.6916	0.3681	0.081
Mof_C 	C 	0.6389	0.6334	0.3412	0.058
Mof_H 	H 	0.6407	0.6288	0.2821	0.016
Mof_C 	C 	0.8053	0.7723	0.5441	0.141
Mof_C 	C 	0.7848	0.8113	0.5982	-0.169
Mof_H 	H 	0.7443	0.8069	0.6136	0.092
Mof_C 	C 	0.8236	0.8567	0.6299	0.072
Mof_H 	H 	0.8096	0.8833	0.6669	0.014
Mof_C 	C 	0.8829	0.8631	0.6074	-0.148
Mof_C 	C 	0.9034	0.8241	0.5532	0.08
Mof_H 	H 	0.9439	0.8285	0.5378	0.012
Mof_C 	C 	0.8646	0.7788	0.5216	-0.17
Mof_H 	H 	0.8786	0.7521	0.4845	0.084
Mof_C 	C 	0.9206	0.9131	0.6462	0.378
Mof_C 	C 	0.55	0.4122	0.2614	0.425
Mof_C 	C 	0.5935	0.3611	0.2847	-0.153
Mof_C 	C 	0.5758	0.3266	0.347	0.074
Mof_H 	H 	0.5374	0.3339	0.3668	0.016
Mof_C 	C 	0.6144	0.2815	0.3804	-0.167
Mof_H 	H 	0.6023	0.2579	0.4229	0.082
Mof_C 	C 	0.6706	0.2708	0.3514	0.141
Mof_C 	C 	0.6882	0.3052	0.2891	-0.17
Mof_H 	H 	0.7266	0.2979	0.2693	0.097
Mof_C 	C 	0.6497	0.3504	0.2557	0.083
Mof_H 	H 	0.6618	0.374	0.2132	0.011
Mof_C 	C 	0.7933	0.173	0.4249	0.139
Mof_C 	C 	0.7874	0.1595	0.5085	-0.179
Mof_H 	H 	0.7547	0.1765	0.5328	0.083
Mof_C 	C 	0.8293	0.1213	0.5567	0.074
Mof_H 	H 	0.8252	0.1121	0.6138	0.01
Mof_C 	C 	0.8771	0.0964	0.5212	-0.158
Mof_C 	C 	0.883	0.1098	0.4376	0.078
Mof_H 	H 	0.9156	0.0929	0.4133	0.024
Mof_C 	C 	0.8411	0.1481	0.3894	-0.167
Mof_H 	H 	0.8451	0.1573	0.3323	0.096
Mof_C 	C 	0.925	0.0604	0.5737	0.385
Mof_N 	N 	0.3724	0.4698	0.3174	-0.247
Mof_C 	C 	0.3155	0.4683	0.2567	0.08
Mof_H 	H 	0.316	0.4725	0.1971	0
Mof_C 	C 	0.2577	0.4608	0.2832	-0.194
Mof_H 	H 	0.2188	0.4598	0.2417	0.09
Mof_C 	C 	0.257	0.4547	0.3704	0.181
Mof_C 	C 	0.3139	0.4562	0.4312	-0.195
Mof_H 	H 	0.3134	0.452	0.4908	0.103
Mof_C 	C 	0.3717	0.4637	0.4046	0.094
Mof_H 	H 	0.4106	0.4646	0.4462	0.008
Mof_C 	C 	0.191	0.4554	0.3956	-0.306
Mof_C 	C 	0.1551	0.4062	0.387	0.35
Mof_C 	C 	0.0934	0.4066	0.4031	-0.34
Mof_H 	H 	0.0688	0.373	0.3973	0.136
Mof_C 	C 	0.0676	0.4562	0.4278	0.212
Mof_C 	C 	0.1036	0.5054	0.436	-0.336
Mof_H 	H 	0.0859	0.5394	0.4533	0.131
Mof_C 	C 	0.1652	0.505	0.4203	0.351
Mof_C 	C 	0.1839	0.3516	0.365	-0.711
Mof_H 	H 	0.1525	0.3213	0.3635	0.227
Mof_H 	H 	0.2219	0.3432	0.4097	0.236
Mof_H 	H 	0.1961	0.3549	0.309	0.23
Mof_C 	C 	0.1969	0.5617	0.42	-0.711
Mof_H 	H 	0.1691	0.5908	0.4363	0.229
Mof_H 	H 	0.2042	0.5696	0.3617	0.237
Mof_H 	H 	0.2379	0.5615	0.461	0.24
Mof_Zn	Zn	0.95006	0.01033	0.7658	1.222
Mof_Zn	Zn	0.02913	0.99027	0.63147	1.214
Mof_O 	O 	0.0085	0.9601	0.8474	-0.468
Mof_O 	O 	0.0635	0.9453	0.7428	-0.483
Mof_O 	O 	0.4088	0.5587	0.2041	-0.475
Mof_O 	O 	0.4639	0.5728	0.0969	-0.426
Mof_O 	O 	0.0072	0.0774	0.7925	-0.512
Mof_O 	O 	0.066	0.064	0.692	-0.45
Mof_O 	O 	0.4154	0.45	0.1483	-0.464
Mof_O 	O 	0.4699	0.4627	0.0423	-0.429
Mof_N 	N 	0.2293	0.7894	0.0265	-0.083
Mof_N 	N 	0.2674	0.7706	0.0024	-0.099
Mof_N 	N 	0.207	0.2753	0.899	-0.119
Mof_N 	N 	0.2644	0.2813	0.8662	-0.106
Mof_C 	C 	0.052	0.9397	0.8178	0.393
Mof_C 	C 	0.095	0.8971	0.8767	-0.117
Mof_C 	C 	0.0924	0.8904	0.9633	0.033
Mof_H 	H 	0.0624	0.9112	0.9875	0.035
Mof_C 	C 	0.1338	0.853	0.0144	-0.115
Mof_H 	H 	0.132	0.8484	0.0735	0.079
Mof_C 	C 	0.1777	0.8225	0.9789	0.094
Mof_C 	C 	0.1803	0.8293	0.8923	-0.137
Mof_H 	H 	0.2103	0.8084	0.8681	0.072
Mof_C 	C 	0.1389	0.8666	0.8412	0.039
Mof_H 	H 	0.1407	0.8712	0.7821	0.021
Mof_C 	C 	0.3053	0.7277	0.0441	0.133
Mof_C 	C 	0.2848	0.6887	0.0982	-0.161
Mof_H 	H 	0.2443	0.6931	0.1136	0.09
Mof_C 	C 	0.3236	0.6433	0.1299	0.066
Mof_H 	H 	0.3096	0.6167	0.1669	0.017
Mof_C 	C 	0.3829	0.6369	0.1074	-0.138
Mof_C 	C 	0.4034	0.6759	0.0532	0.066
Mof_H 	H 	0.4439	0.6715	0.0378	0.02
Mof_C 	C 	0.3646	0.7212	0.0216	-0.143
Mof_H 	H 	0.3786	0.7479	0.9845	0.069
Mof_C 	C 	0.4206	0.5869	0.1462	0.376
Mof_C 	C 	0.05	0.0878	0.7614	0.425
Mof_C 	C 	0.0935	0.1389	0.7847	-0.154
Mof_C 	C 	0.0758	0.1734	0.847	0.073
Mof_H 	H 	0.0374	0.1661	0.8668	0.015
Mof_C 	C 	0.1144	0.2185	0.8804	-0.167
Mof_H 	H 	0.1023	0.2421	0.9229	0.08
Mof_C 	C 	0.1706	0.2292	0.8514	0.139
Mof_C 	C 	0.1882	0.1948	0.7891	-0.171
Mof_H 	H 	0.2266	0.2021	0.7693	0.096
Mof_C 	C 	0.1497	0.1496	0.7557	0.082
Mof_H 	H 	0.1618	0.126	0.7132	0.01
Mof_C 	C 	0.2933	0.327	0.9249	0.117
Mof_C 	C 	0.2874	0.3405	0.0085	-0.151
Mof_H 	H 	0.2547	0.3235	0.0328	0.077
Mof_C 	C 	0.3293	0.3787	0.0567	0.055
Mof_H 	H 	0.3252	0.3879	0.1138	0.018
Mof_C 	C 	0.3771	0.4036	0.0212	-0.132
Mof_C 	C 	0.383	0.3902	0.9376	0.049
Mof_H 	H 	0.4156	0.4071	0.9133	0.032
Mof_C 	C 	0.3411	0.3519	0.8894	-0.147
Mof_H 	H 	0.3451	0.3427	0.8323	0.089
Mof_C 	C 	0.425	0.4396	0.0737	0.377
Mof_N 	N 	0.8724	0.0302	0.8174	-0.247
Mof_C 	C 	0.8155	0.0317	0.7567	0.079
Mof_H 	H 	0.816	0.0275	0.6971	-0
Mof_C 	C 	0.7577	0.0392	0.7832	-0.193
Mof_H 	H 	0.7188	0.0402	0.7417	0.089
Mof_C 	C 	0.757	0.0453	0.8704	0.179
Mof_C 	C 	0.8139	0.0438	0.9312	-0.195
Mof_H 	H 	0.8134	0.048	0.9908	0.099
Mof_C 	C 	0.8717	0.0363	0.9046	0.093
Mof_H 	H 	0.9106	0.0354	0.9462	0.005
Mof_C 	C 	0.691	0.0446	0.8956	-0.303
Mof_C 	C 	0.6551	0.0938	0.887	0.345
Mof_C 	C 	0.5934	0.0934	0.9031	-0.337
Mof_H 	H 	0.5688	0.127	0.8973	0.134
Mof_C 	C 	0.5676	0.0438	0.9278	0.21
Mof_C 	C 	0.6036	0.9946	0.936	-0.334
Mof_H 	H 	0.5859	0.9606	0.9533	0.128
Mof_C 	C 	0.6652	0.995	0.9203	0.345
Mof_C 	C 	0.6839	0.1484	0.865	-0.704
Mof_H 	H 	0.6525	0.1787	0.8635	0.224
Mof_H 	H 	0.7219	0.1568	0.9097	0.232
Mof_H 	H 	0.6961	0.1451	0.809	0.227
Mof_C 	C 	0.6969	0.9383	0.92	-0.703
Mof_H 	H 	0.6691	0.9092	0.9363	0.225
Mof_H 	H 	0.7042	0.9304	0.8617	0.234
Mof_H 	H 	0.7379	0.9385	0.961	0.235
Mof_N 	N 	0.991	0.5421	0.953	-0.157
Mof_H 	H 	0.9708	0.5117	0.9648	0.089
Mof_C 	C 	0.9708	0.5893	0.9528	-0.164
Mof_H 	H 	0.9962	0.6122	0.9998	0.07
Mof_H 	H 	0.9704	0.6081	0.8967	0.071
Mof_C 	C 	0.9034	0.5791	0.9672	0.28
Mof_C 	C 	0.8739	0.5269	0.9513	-0.389
Mof_H 	H 	0.8953	0.497	0.9292	0.146
Mof_C 	C 	0.813	0.5186	0.9679	0.375
Mof_C 	C 	0.7816	0.5624	0.0004	-0.358
Mof_C 	C 	0.8112	0.6145	0.0163	0.459
Mof_C 	C 	0.872	0.6229	0.9997	-0.454
Mof_H 	H 	0.8922	0.6585	0.0105	0.184
Mof_C 	C 	0.776	0.4657	0.936	-0.734
Mof_H 	H 	0.8046	0.4398	0.9127	0.225
Mof_H 	H 	0.7612	0.4476	0.9834	0.245
Mof_H 	H 	0.7398	0.4754	0.8899	0.242
Mof_C 	C 	0.7779	0.6595	0.054	-0.847
Mof_H 	H 	0.7358	0.646	0.0605	0.275
Mof_H 	H 	0.8032	0.67	0.1105	0.264
Mof_H 	H 	0.7727	0.6923	0.0157	0.278
Mof_C 	C 	0.7214	0.5484	0.0294	0.228
Mof_C 	C 	0.6632	0.5531	0.9717	-0.238
Mof_H 	H 	0.6621	0.5648	0.914	0.111
Mof_C 	C 	0.6066	0.5404	0.9985	0.096
Mof_H 	H 	0.5668	0.5436	0.9591	-0.008
Mof_N 	N 	0.6082	0.5232	0.0829	-0.257
Mof_C 	C 	0.6665	0.5186	0.1406	0.101
Mof_H 	H 	0.6676	0.5068	0.1983	-0.014
Mof_C 	C 	0.7231	0.5312	0.1138	-0.23
Mof_H 	H 	0.7628	0.528	0.1532	0.102
_end
