data_functionalizedCrystal
_audit_creation_method	'EQeq! by Chris Wilmer'
_symmetry_space_group_name_H-M	'P1'
_symmetry_Int_Tables_number	1
_symmetry_cell_setting	triclinic
loop_
_symmetry_equiv_pos_as_xyz
  x,y,z
_cell_length_a	12.9224
_cell_length_b	13.3343
_cell_length_c	13.5054
_cell_angle_alpha	68.597
_cell_angle_beta	88.575
_cell_angle_gamma	79.571
loop_
_atom_site_label
_atom_site_type_symbol
_atom_site_fract_x
_atom_site_fract_y
_atom_site_fract_z
_atom_site_charge
Mof_U 	U 	0.18267	0.79878	0.38145	0.018
Mof_U 	U 	0.19062	0.29586	0.39385	0.019
Mof_U 	U 	0.50957	0.77492	0.98758	-0.004
Mof_O 	O 	0.4117	0.8781	0.9033	-0.052
Mof_O 	O 	0.607	0.6682	0.0722	-0.069
Mof_O 	O 	0.4285	0.7891	0.1459	-0.13
Mof_O 	O 	0.3266	0.8266	0.2646	-0.132
Mof_O 	O 	0.4089	0.1077	0.9474	-0.163
Mof_O 	O 	0.3616	0.0973	0.1061	-0.189
Mof_O 	O 	0.0739	0.8736	0.488	-0.18
Mof_O 	O 	0.9113	0.8387	0.5149	-0.177
Mof_O 	O 	0.7518	0.8651	0.6474	-0.137
Mof_O 	O 	0.7661	0.0302	0.6376	-0.138
Mof_O 	O 	0.0399	0.8579	0.9585	-0.281
Mof_O 	O 	0.436	0.2687	0.164	-0.133
Mof_O 	O 	0.3363	0.3156	0.2807	-0.137
Mof_O 	O 	0.3986	0.655	0.0064	-0.181
Mof_O 	O 	0.4471	0.5017	0.1465	-0.177
Mof_O 	O 	0.0783	0.3725	0.4992	-0.189
Mof_O 	O 	0.9191	0.3354	0.5326	-0.174
Mof_O 	O 	0.7654	0.3522	0.6771	-0.148
Mof_O 	O 	0.7715	0.5251	0.6425	-0.144
Mof_O 	O 	0.0526	0.3905	0.9591	-0.277
Mof_C 	C 	0.3446	0.8388	0.1692	0.229
Mof_C 	C 	0.2638	0.907	0.0827	0.103
Mof_C 	C 	0.2701	0.013	0.0171	-0.126
Mof_C 	C 	0.195	0.068	0.9322	0.149
Mof_H 	H 	0.1963	0.1405	0.8895	0.009
Mof_C 	C 	0.1214	0.0178	0.9116	-0.257
Mof_H 	H 	0.0734	0.0543	0.8541	0.15
Mof_C 	C 	0.1184	0.9118	0.9768	0.276
Mof_C 	C 	0.1878	0.8557	0.0624	-0.219
Mof_H 	H 	0.1838	0.7843	0.1061	0.145
Mof_C 	C 	0.0292	0.8639	0.8538	0.271
Mof_C 	C 	0.9302	0.8891	0.8104	-0.212
Mof_H 	H 	0.8729	0.9045	0.8488	0.139
Mof_C 	C 	0.9145	0.8917	0.7061	0.074
Mof_C 	C 	0.0033	0.8661	0.6521	-0.093
Mof_C 	C 	0.1029	0.8466	0.6977	0.11
Mof_H 	H 	0.1611	0.8357	0.6585	0.042
Mof_C 	C 	0.1187	0.8428	0.7986	-0.234
Mof_H 	H 	0.1861	0.8269	0.8295	0.146
Mof_C 	C 	0.8058	0.9314	0.6599	0.231
Mof_C 	C 	0.9935	0.8597	0.5438	0.298
Mof_C 	C 	0.3588	0.3281	0.1871	0.244
Mof_C 	C 	0.2846	0.4067	0.0966	0.087
Mof_C 	C 	0.3041	0.5116	0.0363	-0.105
Mof_C 	C 	0.2348	0.5759	0.9476	0.114
Mof_H 	H 	0.2452	0.6462	0.9068	0.023
Mof_C 	C 	0.1526	0.5376	0.9198	-0.228
Mof_H 	H 	0.1078	0.5813	0.8612	0.14
Mof_C 	C 	0.1374	0.4329	0.9805	0.265
Mof_C 	C 	0.2035	0.3671	0.0691	-0.201
Mof_H 	H 	0.1926	0.2968	0.1092	0.141
Mof_C 	C 	0.3892	0.5577	0.0668	0.308
Mof_C 	C 	0.0421	0.3877	0.8575	0.271
Mof_C 	C 	0.9433	0.4042	0.8172	-0.21
Mof_H 	H 	0.8862	0.42	0.8558	0.135
Mof_C 	C 	0.9258	0.3976	0.7186	0.076
Mof_C 	C 	0.013	0.3733	0.6618	-0.097
Mof_C 	C 	0.1136	0.3587	0.704	0.103
Mof_H 	H 	0.1711	0.3439	0.6654	0.046
Mof_C 	C 	0.1314	0.3655	0.8029	-0.226
Mof_H 	H 	0.1991	0.3558	0.8309	0.148
Mof_C 	C 	0.0032	0.3601	0.5572	0.307
Mof_C 	C 	0.8158	0.427	0.6742	0.233
Mof_C 	C 	0.3535	0.0743	0.028	0.32
Mof_U 	U 	0.4942	0.7281	0.0083	0.051
Mof_U 	U 	0.81733	0.20122	0.61855	0.017
Mof_U 	U 	0.80938	0.70414	0.60615	0.018
Mof_U 	U 	0.49043	0.22508	0.01242	-0.004
Mof_O 	O 	0.5883	0.1219	0.0967	-0.052
Mof_O 	O 	0.393	0.3318	0.9278	-0.069
Mof_O 	O 	0.5715	0.2109	0.8541	-0.13
Mof_O 	O 	0.6734	0.1734	0.7354	-0.132
Mof_O 	O 	0.5911	0.8923	0.0526	-0.163
Mof_O 	O 	0.6384	0.9027	0.8939	-0.189
Mof_O 	O 	0.9261	0.1264	0.512	-0.18
Mof_O 	O 	0.0887	0.1613	0.4851	-0.177
Mof_O 	O 	0.2482	0.1349	0.3526	-0.137
Mof_O 	O 	0.2339	0.9698	0.3624	-0.138
Mof_O 	O 	0.9601	0.1421	0.0415	-0.281
Mof_O 	O 	0.564	0.7313	0.836	-0.133
Mof_O 	O 	0.6637	0.6844	0.7193	-0.137
Mof_O 	O 	0.6014	0.345	0.9936	-0.181
Mof_O 	O 	0.5529	0.4983	0.8535	-0.177
Mof_O 	O 	0.9217	0.6275	0.5008	-0.189
Mof_O 	O 	0.0809	0.6646	0.4674	-0.174
Mof_O 	O 	0.2346	0.6478	0.3229	-0.148
Mof_O 	O 	0.2285	0.4749	0.3575	-0.144
Mof_O 	O 	0.9474	0.6095	0.0409	-0.277
Mof_C 	C 	0.6554	0.1612	0.8308	0.229
Mof_C 	C 	0.7362	0.093	0.9173	0.103
Mof_C 	C 	0.7299	0.987	0.9829	-0.126
Mof_C 	C 	0.805	0.932	0.0678	0.149
Mof_H 	H 	0.8037	0.8595	0.1105	0.009
Mof_C 	C 	0.8786	0.9822	0.0884	-0.257
Mof_H 	H 	0.9266	0.9457	0.1459	0.15
Mof_C 	C 	0.8816	0.0882	0.0232	0.276
Mof_C 	C 	0.8122	0.1443	0.9376	-0.219
Mof_H 	H 	0.8162	0.2157	0.8939	0.145
Mof_C 	C 	0.9708	0.1361	0.1462	0.271
Mof_C 	C 	0.0698	0.1109	0.1896	-0.212
Mof_H 	H 	0.1271	0.0955	0.1512	0.139
Mof_C 	C 	0.0855	0.1083	0.2939	0.074
Mof_C 	C 	0.9967	0.1339	0.3479	-0.093
Mof_C 	C 	0.8971	0.1534	0.3023	0.11
Mof_H 	H 	0.8389	0.1643	0.3415	0.042
Mof_C 	C 	0.8813	0.1572	0.2014	-0.234
Mof_H 	H 	0.8139	0.1731	0.1705	0.146
Mof_C 	C 	0.1942	0.0686	0.3401	0.231
Mof_C 	C 	0.0065	0.1403	0.4562	0.298
Mof_C 	C 	0.6412	0.6719	0.8129	0.244
Mof_C 	C 	0.7154	0.5933	0.9034	0.087
Mof_C 	C 	0.6959	0.4884	0.9637	-0.105
Mof_C 	C 	0.7652	0.4241	0.0524	0.114
Mof_H 	H 	0.7548	0.3538	0.0932	0.023
Mof_C 	C 	0.8474	0.4624	0.0802	-0.228
Mof_H 	H 	0.8922	0.4187	0.1388	0.14
Mof_C 	C 	0.8626	0.5671	0.0195	0.265
Mof_C 	C 	0.7965	0.6329	0.9309	-0.201
Mof_H 	H 	0.8074	0.7032	0.8908	0.141
Mof_C 	C 	0.6108	0.4423	0.9332	0.308
Mof_C 	C 	0.9579	0.6123	0.1425	0.271
Mof_C 	C 	0.0567	0.5958	0.1828	-0.21
Mof_H 	H 	0.1138	0.58	0.1442	0.135
Mof_C 	C 	0.0742	0.6024	0.2814	0.076
Mof_C 	C 	0.987	0.6267	0.3382	-0.097
Mof_C 	C 	0.8864	0.6413	0.296	0.103
Mof_H 	H 	0.8289	0.6561	0.3346	0.046
Mof_C 	C 	0.8686	0.6345	0.1971	-0.226
Mof_H 	H 	0.8009	0.6442	0.1691	0.148
Mof_C 	C 	0.9968	0.6399	0.4428	0.307
Mof_C 	C 	0.1842	0.573	0.3258	0.233
Mof_C 	C 	0.6465	0.9257	0.972	0.32
Mof_U 	U 	0.5058	0.2719	0.9917	0.051
_end
