data_functionalizedCrystal
_audit_creation_method	'EQeq! by Chris Wilmer'
_symmetry_space_group_name_H-M	'P1'
_symmetry_Int_Tables_number	1
_symmetry_cell_setting	triclinic
loop_
_symmetry_equiv_pos_as_xyz
  x,y,z
_cell_length_a	17.998
_cell_length_b	17.998
_cell_length_c	25.9577
_cell_angle_alpha	90
_cell_angle_beta	90
_cell_angle_gamma	90
loop_
_atom_site_label
_atom_site_type_symbol
_atom_site_fract_x
_atom_site_fract_y
_atom_site_fract_z
_atom_site_charge
Mof_C 	C 	0.3336	0.6099	0.9488	-0.107
Mof_C 	C 	0.2269	0.8126	0.1408	0.24
Mof_C 	C 	0.3878	0.57	0.92341	0.014
Mof_C 	C 	0.3688	0.5229	0.88358	-0.038
Mof_C 	C 	0.2941	0.515	0.8691	0.013
Mof_C 	C 	0.2401	0.5567	0.894	-0.074
Mof_H 	H 	0.1897	0.5532	0.8835	0.068
Mof_C 	C 	0.2594	0.6031	0.9339	0.025
Mof_H 	H 	0.2221	0.6306	0.9513	0.047
Mof_C 	C 	0.3549	0.661	0.99171	0.408
Mof_C 	C 	0.274	0.4656	0.8251	0.123
Mof_C 	C 	0.4684	0.3041	0.65517	-0.315
Mof_C 	C 	0.3954	0.2801	0.653	0.396
Mof_C 	C 	0.3442	0.3084	0.6869	-0.817
Mof_C 	C 	0.3636	0.3597	0.7245	0.388
Mof_C 	C 	0.437	0.3829	0.7276	-0.336
Mof_H 	H 	0.4515	0.4171	0.7536	0.153
Mof_C 	C 	0.4893	0.3563	0.6928	0.247
Mof_H 	H 	0.5392	0.3734	0.6944	-0.033
Mof_C 	C 	0.5217	0.2767	0.6158	0.467
Mof_C 	C 	0.3059	0.3918	0.7581	-0.002
Mof_C 	C 	0.9573	0.3871	0.7394	-0.105
Mof_C 	C 	0.9776	0.4212	0.7857	0.039
Mof_C 	C 	0.0506	0.4276	0.7979	-0.086
Mof_H 	H 	0.0645	0.4508	0.8294	0.073
Mof_C 	C 	0.106	0.4005	0.7647	0.03
Mof_C 	C 	0.0836	0.3666	0.7191	-0.085
Mof_H 	H 	0.1202	0.3482	0.696	0.068
Mof_C 	C 	0.0105	0.3593	0.7068	0.034
Mof_H 	H 	0.9963	0.335	0.6758	0.042
Mof_C 	C 	0.8751	0.3842	0.72644	0.38
Mof_C 	C 	0.1856	0.412	0.7766	0.117
Mof_N 	N 	0.2356	0.3784	0.7469	-0.123
Mof_N 	N 	0.2019	0.4548	0.81646	-0.141
Mof_N 	N 	0.3289	0.4359	0.79758	-0.123
Mof_O 	O 	0.42265	0.66643	0.00216	-0.476
Mof_O 	O 	0.30332	0.69392	0.01581	-0.471
Mof_O 	O 	0.59067	0.2902	0.62349	-0.496
Mof_O 	O 	0.49712	0.24045	0.57924	-0.48
Mof_O 	O 	0.85763	0.3464	0.68619	-0.444
Mof_O 	O 	0.83134	0.41616	0.75494	-0.453
Mof_O 	O 	0.186	0.8234	0.1777	-0.24
Mof_Zn	Zn	0.33706	0.75018	0.07541	1.235
Mof_H 	H 	0.443	0.577	0.9336	0.04
Mof_H 	H 	0.376	0.247	0.6196	-0.056
Mof_H 	H 	0.424	0.499	0.868	0.041
Mof_H 	H 	0.94	0.44	0.813	0.039
Mof_H 	H 	0.307	0.294	0.682	0.459
Mof_C 	C 	0.6664	0.3901	0.4488	-0.096
Mof_C 	C 	0.7731	0.1874	0.6408	0.241
Mof_C 	C 	0.6122	0.43	0.42341	0.007
Mof_C 	C 	0.6312	0.4771	0.38358	-0.034
Mof_C 	C 	0.7059	0.485	0.3691	0.01
Mof_C 	C 	0.7599	0.4433	0.394	-0.07
Mof_H 	H 	0.8103	0.4468	0.3835	0.065
Mof_C 	C 	0.7406	0.3969	0.4339	0.016
Mof_H 	H 	0.7779	0.3694	0.4513	0.046
Mof_C 	C 	0.6451	0.339	0.49171	0.37
Mof_C 	C 	0.726	0.5344	0.3251	0.123
Mof_C 	C 	0.5316	0.6959	0.15517	-0.315
Mof_C 	C 	0.6046	0.7199	0.153	0.395
Mof_C 	C 	0.6558	0.6916	0.1869	-0.815
Mof_C 	C 	0.6364	0.6403	0.2245	0.387
Mof_C 	C 	0.563	0.6171	0.2276	-0.336
Mof_H 	H 	0.5485	0.5829	0.2536	0.153
Mof_C 	C 	0.5107	0.6437	0.1928	0.247
Mof_H 	H 	0.4608	0.6266	0.1944	-0.033
Mof_C 	C 	0.4783	0.7233	0.1158	0.467
Mof_C 	C 	0.6941	0.6082	0.2581	-0.002
Mof_C 	C 	0.0427	0.6129	0.2394	-0.104
Mof_C 	C 	0.0224	0.5788	0.2857	0.038
Mof_C 	C 	0.9494	0.5724	0.2979	-0.086
Mof_H 	H 	0.9355	0.5492	0.3294	0.072
Mof_C 	C 	0.894	0.5995	0.2647	0.029
Mof_C 	C 	0.9164	0.6334	0.2191	-0.085
Mof_H 	H 	0.8798	0.6518	0.196	0.067
Mof_C 	C 	0.9895	0.6407	0.2068	0.032
Mof_H 	H 	0.0037	0.665	0.1758	0.042
Mof_C 	C 	0.1249	0.6158	0.22644	0.38
Mof_C 	C 	0.8144	0.588	0.2766	0.117
Mof_N 	N 	0.7644	0.6216	0.2469	-0.123
Mof_N 	N 	0.7981	0.5452	0.31646	-0.142
Mof_N 	N 	0.6711	0.5641	0.29758	-0.123
Mof_O 	O 	0.57735	0.33357	0.50216	-0.454
Mof_O 	O 	0.69668	0.30608	0.51581	-0.451
Mof_O 	O 	0.40933	0.7098	0.12349	-0.496
Mof_O 	O 	0.50288	0.75955	0.07924	-0.482
Mof_O 	O 	0.14237	0.6536	0.18619	-0.445
Mof_O 	O 	0.16866	0.58384	0.25494	-0.453
Mof_O 	O 	0.814	0.1766	0.6777	-0.239
Mof_Zn	Zn	0.66294	0.24982	0.57541	1.235
Mof_H 	H 	0.557	0.423	0.4336	0.04
Mof_H 	H 	0.624	0.753	0.1196	-0.057
Mof_H 	H 	0.576	0.501	0.368	0.04
Mof_H 	H 	0.06	0.56	0.313	0.038
Mof_H 	H 	0.693	0.706	0.182	0.458
Mof_C 	C 	0.3901	0.3336	0.1988	-0.096
Mof_C 	C 	0.1874	0.2269	0.3908	0.241
Mof_C 	C 	0.43	0.3878	0.17341	0.008
Mof_C 	C 	0.4771	0.3688	0.13358	-0.035
Mof_C 	C 	0.485	0.2941	0.1191	0.01
Mof_C 	C 	0.4433	0.2401	0.144	-0.071
Mof_H 	H 	0.4468	0.1897	0.1335	0.065
Mof_C 	C 	0.3969	0.2594	0.1839	0.017
Mof_H 	H 	0.3694	0.2221	0.2013	0.046
Mof_C 	C 	0.339	0.3549	0.24171	0.37
Mof_C 	C 	0.5344	0.274	0.0751	0.12
Mof_C 	C 	0.6959	0.4684	0.90517	-0.314
Mof_C 	C 	0.7199	0.3954	0.903	0.403
Mof_C 	C 	0.6916	0.3442	0.9369	-0.834
Mof_C 	C 	0.6403	0.3636	0.9745	0.404
Mof_C 	C 	0.6171	0.437	0.9776	-0.316
Mof_H 	H 	0.5829	0.4515	0.0036	0.137
Mof_C 	C 	0.6437	0.4893	0.9428	0.24
Mof_H 	H 	0.6266	0.5392	0.9444	-0.027
Mof_C 	C 	0.7233	0.5217	0.8658	0.467
Mof_C 	C 	0.6082	0.3059	0.0081	-0.028
Mof_C 	C 	0.6129	0.9573	0.9894	-0.074
Mof_C 	C 	0.5788	0.9776	0.0357	0.002
Mof_C 	C 	0.5724	0.0506	0.0479	-0.061
Mof_H 	H 	0.5492	0.0645	0.0794	0.063
Mof_C 	C 	0.5995	0.106	0.0147	-0.003
Mof_C 	C 	0.6334	0.0836	0.9691	-0.045
Mof_H 	H 	0.6518	0.1202	0.946	0.056
Mof_C 	C 	0.6407	0.0105	0.9568	0.005
Mof_H 	H 	0.665	0.9963	0.9258	0.052
Mof_C 	C 	0.6158	0.8751	0.97644	0.389
Mof_C 	C 	0.588	0.1856	0.0266	0.112
Mof_N 	N 	0.6216	0.2356	0.9969	-0.108
Mof_N 	N 	0.5452	0.2019	0.06646	-0.142
Mof_N 	N 	0.5641	0.3289	0.04758	-0.121
Mof_O 	O 	0.33357	0.42265	0.25216	-0.454
Mof_O 	O 	0.30608	0.30332	0.26581	-0.451
Mof_O 	O 	0.7098	0.59067	0.87349	-0.495
Mof_O 	O 	0.75955	0.49712	0.82924	-0.48
Mof_O 	O 	0.6536	0.85763	0.93619	-0.445
Mof_O 	O 	0.58384	0.83134	0.00494	-0.468
Mof_O 	O 	0.1766	0.186	0.4277	-0.24
Mof_Zn	Zn	0.24982	0.33706	0.32541	1.235
Mof_H 	H 	0.423	0.443	0.1836	0.04
Mof_H 	H 	0.753	0.376	0.8696	-0.057
Mof_H 	H 	0.501	0.424	0.118	0.04
Mof_H 	H 	0.56	0.94	0.063	0.046
Mof_H 	H 	0.706	0.307	0.932	0.47
Mof_C 	C 	0.6099	0.6664	0.6988	-0.096
Mof_C 	C 	0.8126	0.7731	0.8908	0.241
Mof_C 	C 	0.57	0.6122	0.67341	0.007
Mof_C 	C 	0.5229	0.6312	0.63358	-0.034
Mof_C 	C 	0.515	0.7059	0.6191	0.01
Mof_C 	C 	0.5567	0.7599	0.644	-0.07
Mof_H 	H 	0.5532	0.8103	0.6335	0.065
Mof_C 	C 	0.6031	0.7406	0.6839	0.016
Mof_H 	H 	0.6306	0.7779	0.7013	0.046
Mof_C 	C 	0.661	0.6451	0.74171	0.37
Mof_C 	C 	0.4656	0.726	0.5751	0.123
Mof_C 	C 	0.3041	0.5316	0.40517	-0.315
Mof_C 	C 	0.2801	0.6046	0.403	0.395
Mof_C 	C 	0.3084	0.6558	0.4369	-0.817
Mof_C 	C 	0.3597	0.6364	0.4745	0.388
Mof_C 	C 	0.3829	0.563	0.4776	-0.336
Mof_H 	H 	0.4171	0.5485	0.5036	0.153
Mof_C 	C 	0.3563	0.5107	0.4428	0.247
Mof_H 	H 	0.3734	0.4608	0.4444	-0.033
Mof_C 	C 	0.2767	0.4783	0.3658	0.467
Mof_C 	C 	0.3918	0.6941	0.5081	-0.002
Mof_C 	C 	0.3871	0.0427	0.4894	-0.105
Mof_C 	C 	0.4212	0.0224	0.5357	0.038
Mof_C 	C 	0.4276	0.9494	0.5479	-0.086
Mof_H 	H 	0.4508	0.9355	0.5794	0.072
Mof_C 	C 	0.4005	0.894	0.5147	0.029
Mof_C 	C 	0.3666	0.9164	0.4691	-0.085
Mof_H 	H 	0.3482	0.8798	0.446	0.067
Mof_C 	C 	0.3593	0.9895	0.4568	0.034
Mof_H 	H 	0.335	0.0037	0.4258	0.042
Mof_C 	C 	0.3842	0.1249	0.47644	0.38
Mof_C 	C 	0.412	0.8144	0.5266	0.117
Mof_N 	N 	0.3784	0.7644	0.4969	-0.123
Mof_N 	N 	0.4548	0.7981	0.56646	-0.142
Mof_N 	N 	0.4359	0.6711	0.54758	-0.123
Mof_O 	O 	0.66643	0.57735	0.75216	-0.454
Mof_O 	O 	0.69392	0.69668	0.76581	-0.451
Mof_O 	O 	0.2902	0.40933	0.37349	-0.496
Mof_O 	O 	0.24045	0.50288	0.32924	-0.48
Mof_O 	O 	0.3464	0.14237	0.43619	-0.444
Mof_O 	O 	0.41616	0.16866	0.50494	-0.453
Mof_O 	O 	0.8234	0.814	0.9277	-0.237
Mof_Zn	Zn	0.75018	0.66294	0.82541	1.235
Mof_H 	H 	0.577	0.557	0.6836	0.04
Mof_H 	H 	0.247	0.624	0.3696	-0.056
Mof_H 	H 	0.499	0.576	0.618	0.04
Mof_H 	H 	0.44	0.06	0.563	0.038
Mof_H 	H 	0.294	0.693	0.432	0.459
Mof_C 	C 	0.6664	0.6099	0.0512	-0.085
Mof_C 	C 	0.7731	0.8126	0.8592	0.241
Mof_C 	C 	0.6122	0.57	0.07659	-0.001
Mof_C 	C 	0.6312	0.5229	0.11642	-0.031
Mof_C 	C 	0.7059	0.515	0.1309	0.006
Mof_C 	C 	0.7599	0.5567	0.106	-0.066
Mof_H 	H 	0.8103	0.5532	0.1165	0.062
Mof_C 	C 	0.7406	0.6031	0.0661	0.007
Mof_H 	H 	0.7779	0.6306	0.0487	0.045
Mof_C 	C 	0.6451	0.661	0.00829	0.332
Mof_C 	C 	0.726	0.4656	0.1749	0.124
Mof_C 	C 	0.5316	0.3041	0.34483	-0.315
Mof_C 	C 	0.6046	0.2801	0.347	0.395
Mof_C 	C 	0.6558	0.3084	0.3131	-0.816
Mof_C 	C 	0.6364	0.3597	0.2755	0.388
Mof_C 	C 	0.563	0.3829	0.2724	-0.336
Mof_H 	H 	0.5485	0.4171	0.2464	0.153
Mof_C 	C 	0.5107	0.3563	0.3072	0.247
Mof_H 	H 	0.4608	0.3734	0.3056	-0.033
Mof_C 	C 	0.4783	0.2767	0.3842	0.467
Mof_C 	C 	0.6941	0.3918	0.2419	-0.002
Mof_C 	C 	0.0427	0.3871	0.2606	-0.104
Mof_C 	C 	0.0224	0.4212	0.2143	0.038
Mof_C 	C 	0.9494	0.4276	0.2021	-0.086
Mof_H 	H 	0.9355	0.4508	0.1706	0.071
Mof_C 	C 	0.894	0.4005	0.2353	0.029
Mof_C 	C 	0.9164	0.3666	0.2809	-0.085
Mof_H 	H 	0.8798	0.3482	0.304	0.067
Mof_C 	C 	0.9895	0.3593	0.2932	0.033
Mof_H 	H 	0.0037	0.335	0.3242	0.042
Mof_C 	C 	0.1249	0.3842	0.27356	0.38
Mof_C 	C 	0.8144	0.412	0.2234	0.116
Mof_N 	N 	0.7644	0.3784	0.2531	-0.123
Mof_N 	N 	0.7981	0.4548	0.18354	-0.143
Mof_N 	N 	0.6711	0.4359	0.20242	-0.124
Mof_O 	O 	0.57735	0.66643	0.99784	-0.429
Mof_O 	O 	0.69668	0.69392	0.98419	-0.431
Mof_O 	O 	0.40933	0.2902	0.37651	-0.496
Mof_O 	O 	0.50288	0.24045	0.42076	-0.48
Mof_O 	O 	0.14237	0.3464	0.31381	-0.444
Mof_O 	O 	0.16866	0.41616	0.24506	-0.453
Mof_O 	O 	0.814	0.8234	0.8223	-0.239
Mof_Zn	Zn	0.66294	0.75018	0.92459	1.236
Mof_H 	H 	0.557	0.577	0.0664	0.04
Mof_H 	H 	0.624	0.247	0.3804	-0.056
Mof_H 	H 	0.576	0.499	0.132	0.039
Mof_H 	H 	0.06	0.44	0.187	0.037
Mof_H 	H 	0.693	0.294	0.318	0.459
Mof_C 	C 	0.3336	0.3901	0.5512	-0.096
Mof_C 	C 	0.2269	0.1874	0.3592	0.241
Mof_C 	C 	0.3878	0.43	0.57659	0.007
Mof_C 	C 	0.3688	0.4771	0.61642	-0.034
Mof_C 	C 	0.2941	0.485	0.6309	0.01
Mof_C 	C 	0.2401	0.4433	0.606	-0.07
Mof_H 	H 	0.1897	0.4468	0.6165	0.065
Mof_C 	C 	0.2594	0.3969	0.5661	0.016
Mof_H 	H 	0.2221	0.3694	0.5487	0.046
Mof_C 	C 	0.3549	0.339	0.50829	0.37
Mof_C 	C 	0.274	0.5344	0.6749	0.123
Mof_C 	C 	0.4684	0.6959	0.84483	-0.314
Mof_C 	C 	0.3954	0.7199	0.847	0.396
Mof_C 	C 	0.3442	0.6916	0.8131	-0.817
Mof_C 	C 	0.3636	0.6403	0.7755	0.388
Mof_C 	C 	0.437	0.6171	0.7724	-0.336
Mof_H 	H 	0.4515	0.5829	0.7464	0.153
Mof_C 	C 	0.4893	0.6437	0.8072	0.247
Mof_H 	H 	0.5392	0.6266	0.8056	-0.033
Mof_C 	C 	0.5217	0.7233	0.8842	0.466
Mof_C 	C 	0.3059	0.6082	0.7419	-0.002
Mof_C 	C 	0.9573	0.6129	0.7606	-0.104
Mof_C 	C 	0.9776	0.5788	0.7143	0.038
Mof_C 	C 	0.0506	0.5724	0.7021	-0.086
Mof_H 	H 	0.0645	0.5492	0.6706	0.072
Mof_C 	C 	0.106	0.5995	0.7353	0.029
Mof_C 	C 	0.0836	0.6334	0.7809	-0.084
Mof_H 	H 	0.1202	0.6518	0.804	0.068
Mof_C 	C 	0.0105	0.6407	0.7932	0.034
Mof_H 	H 	0.9963	0.665	0.8242	0.043
Mof_C 	C 	0.8751	0.6158	0.77356	0.38
Mof_C 	C 	0.1856	0.588	0.7234	0.117
Mof_N 	N 	0.2356	0.6216	0.7531	-0.123
Mof_N 	N 	0.2019	0.5452	0.68354	-0.142
Mof_N 	N 	0.3289	0.5641	0.70242	-0.123
Mof_O 	O 	0.42265	0.33357	0.49784	-0.454
Mof_O 	O 	0.30332	0.30608	0.48419	-0.451
Mof_O 	O 	0.59067	0.7098	0.87651	-0.495
Mof_O 	O 	0.49712	0.75955	0.92076	-0.476
Mof_O 	O 	0.85763	0.6536	0.81381	-0.444
Mof_O 	O 	0.83134	0.58384	0.74506	-0.453
Mof_O 	O 	0.186	0.1766	0.3223	-0.24
Mof_Zn	Zn	0.33706	0.24982	0.42459	1.235
Mof_H 	H 	0.443	0.423	0.5664	0.04
Mof_H 	H 	0.376	0.753	0.8804	-0.055
Mof_H 	H 	0.424	0.501	0.632	0.04
Mof_H 	H 	0.94	0.56	0.687	0.038
Mof_H 	H 	0.307	0.706	0.818	0.46
Mof_C 	C 	0.6099	0.3336	0.8012	-0.095
Mof_C 	C 	0.8126	0.2269	0.6092	0.241
Mof_C 	C 	0.57	0.3878	0.82659	0.007
Mof_C 	C 	0.5229	0.3688	0.86642	-0.034
Mof_C 	C 	0.515	0.2941	0.8809	0.01
Mof_C 	C 	0.5567	0.2401	0.856	-0.07
Mof_H 	H 	0.5532	0.1897	0.8665	0.065
Mof_C 	C 	0.6031	0.2594	0.8161	0.016
Mof_H 	H 	0.6306	0.2221	0.7987	0.047
Mof_C 	C 	0.661	0.3549	0.75829	0.37
Mof_C 	C 	0.4656	0.274	0.9249	0.126
Mof_C 	C 	0.3041	0.4684	0.09483	-0.316
Mof_C 	C 	0.2801	0.3954	0.097	0.388
Mof_C 	C 	0.3084	0.3442	0.0631	-0.799
Mof_C 	C 	0.3597	0.3636	0.0255	0.372
Mof_C 	C 	0.3829	0.437	0.0224	-0.357
Mof_H 	H 	0.4171	0.4515	0.9964	0.169
Mof_C 	C 	0.3563	0.4893	0.0572	0.254
Mof_H 	H 	0.3734	0.5392	0.0556	-0.038
Mof_C 	C 	0.2767	0.5217	0.1342	0.467
Mof_C 	C 	0.3918	0.3059	0.9919	0.023
Mof_C 	C 	0.3871	0.9573	0.0106	-0.135
Mof_C 	C 	0.4212	0.9776	0.9643	0.074
Mof_C 	C 	0.4276	0.0506	0.9521	-0.111
Mof_H 	H 	0.4508	0.0645	0.9206	0.081
Mof_C 	C 	0.4005	0.106	0.9853	0.061
Mof_C 	C 	0.3666	0.0836	0.0309	-0.125
Mof_H 	H 	0.3482	0.1202	0.054	0.079
Mof_C 	C 	0.3593	0.0105	0.0432	0.063
Mof_H 	H 	0.335	0.9963	0.0742	0.031
Mof_C 	C 	0.3842	0.8751	0.02356	0.371
Mof_C 	C 	0.412	0.1856	0.9734	0.121
Mof_N 	N 	0.3784	0.2356	0.0031	-0.139
Mof_N 	N 	0.4548	0.2019	0.93354	-0.142
Mof_N 	N 	0.4359	0.3289	0.95242	-0.125
Mof_O 	O 	0.66643	0.42265	0.74784	-0.454
Mof_O 	O 	0.69392	0.30332	0.73419	-0.451
Mof_O 	O 	0.2902	0.59067	0.12651	-0.496
Mof_O 	O 	0.24045	0.49712	0.17076	-0.48
Mof_O 	O 	0.3464	0.85763	0.06381	-0.443
Mof_O 	O 	0.41616	0.83134	0.99506	-0.437
Mof_O 	O 	0.8234	0.186	0.5723	-0.24
Mof_Zn	Zn	0.75018	0.33706	0.67459	1.235
Mof_H 	H 	0.577	0.443	0.8164	0.04
Mof_H 	H 	0.247	0.376	0.1304	-0.055
Mof_H 	H 	0.499	0.424	0.882	0.04
Mof_H 	H 	0.44	0.94	0.937	0.03
Mof_H 	H 	0.294	0.307	0.068	0.449
Mof_C 	C 	0.3901	0.6664	0.3012	-0.096
Mof_C 	C 	0.1874	0.7731	0.1092	0.24
Mof_C 	C 	0.43	0.6122	0.32659	0.007
Mof_C 	C 	0.4771	0.6312	0.36642	-0.034
Mof_C 	C 	0.485	0.7059	0.3809	0.01
Mof_C 	C 	0.4433	0.7599	0.356	-0.07
Mof_H 	H 	0.4468	0.8103	0.3665	0.065
Mof_C 	C 	0.3969	0.7406	0.3161	0.016
Mof_H 	H 	0.3694	0.7779	0.2987	0.046
Mof_C 	C 	0.339	0.6451	0.25829	0.37
Mof_C 	C 	0.5344	0.726	0.4249	0.123
Mof_C 	C 	0.6959	0.5316	0.59483	-0.315
Mof_C 	C 	0.7199	0.6046	0.597	0.395
Mof_C 	C 	0.6916	0.6558	0.5631	-0.817
Mof_C 	C 	0.6403	0.6364	0.5255	0.388
Mof_C 	C 	0.6171	0.563	0.5224	-0.336
Mof_H 	H 	0.5829	0.5485	0.4964	0.153
Mof_C 	C 	0.6437	0.5107	0.5572	0.247
Mof_H 	H 	0.6266	0.4608	0.5556	-0.033
Mof_C 	C 	0.7233	0.4783	0.6342	0.467
Mof_C 	C 	0.6082	0.6941	0.4919	-0.002
Mof_C 	C 	0.6129	0.0427	0.5106	-0.105
Mof_C 	C 	0.5788	0.0224	0.4643	0.038
Mof_C 	C 	0.5724	0.9494	0.4521	-0.086
Mof_H 	H 	0.5492	0.9355	0.4206	0.072
Mof_C 	C 	0.5995	0.894	0.4853	0.029
Mof_C 	C 	0.6334	0.9164	0.5309	-0.085
Mof_H 	H 	0.6518	0.8798	0.554	0.067
Mof_C 	C 	0.6407	0.9895	0.5432	0.034
Mof_H 	H 	0.665	0.0037	0.5742	0.042
Mof_C 	C 	0.6158	0.1249	0.52356	0.38
Mof_C 	C 	0.588	0.8144	0.4734	0.117
Mof_N 	N 	0.6216	0.7644	0.5031	-0.123
Mof_N 	N 	0.5452	0.7981	0.43354	-0.142
Mof_N 	N 	0.5641	0.6711	0.45242	-0.123
Mof_O 	O 	0.33357	0.57735	0.24784	-0.454
Mof_O 	O 	0.30608	0.69668	0.23419	-0.451
Mof_O 	O 	0.7098	0.40933	0.62651	-0.496
Mof_O 	O 	0.75955	0.50288	0.67076	-0.48
Mof_O 	O 	0.6536	0.14237	0.56381	-0.444
Mof_O 	O 	0.58384	0.16866	0.49506	-0.453
Mof_O 	O 	0.1766	0.814	0.0723	-0.243
Mof_Zn	Zn	0.24982	0.66294	0.17459	1.235
Mof_H 	H 	0.423	0.557	0.3164	0.04
Mof_H 	H 	0.753	0.624	0.6304	-0.056
Mof_H 	H 	0.501	0.576	0.382	0.04
Mof_H 	H 	0.56	0.06	0.437	0.038
Mof_H 	H 	0.706	0.693	0.568	0.459
Mof_O 	O 	0.25149	0.74851	0.125	-0.608
Mof_O 	O 	0.74851	0.25149	0.625	-0.608
Mof_O 	O 	0.25149	0.25149	0.375	-0.608
Mof_O 	O 	0.74851	0.74851	0.875	-0.608
Mof_Zn	Zn	0.5	0.75194	-0	1.244
Mof_Zn	Zn	0.5	0.24806	0.5	1.249
Mof_Zn	Zn	0.24806	0.5	0.25	1.249
Mof_Zn	Zn	0.75194	0.5	0.75	1.249
_end
