data_functionalizedCrystal
_audit_creation_method	'EQeq! by Chris Wilmer'
_symmetry_space_group_name_H-M	'P1'
_symmetry_Int_Tables_number	1
_symmetry_cell_setting	triclinic
loop_
_symmetry_equiv_pos_as_xyz
  x,y,z
_cell_length_a	7.3284
_cell_length_b	16.1379
_cell_length_c	16.3532
_cell_angle_alpha	111.241
_cell_angle_beta	92.752
_cell_angle_gamma	98.743
loop_
_atom_site_label
_atom_site_type_symbol
_atom_site_fract_x
_atom_site_fract_y
_atom_site_fract_z
_atom_site_charge
Mof_Zn	Zn	0.86526	0.45031	0.2716	1.221
Mof_O 	O 	0.7085	0.3319	0.31971	-0.403
Mof_O 	O 	0.5905	0.41047	0.25439	-0.47
Mof_O 	O 	0.9146	0.3517	0.15726	-0.511
Mof_O 	O 	0.9395	0.55225	0.23108	-0.443
Mof_O 	O 	0.8422	0.61347	0.36043	-0.382
Mof_O 	O 	0.8113	0.2051	0.09298	-0.49
Mof_O 	O 	0.3022	0.8664	0.1257	-0.414
Mof_O 	O 	0.1943	0.723	0.0692	-0.467
Mof_C 	C 	0.5741	0.3484	0.2846	0.398
Mof_C 	C 	0.3821	0.294	0.2741	-0.312
Mof_C 	C 	0.2433	0.3039	0.2199	0.226
Mof_H 	H 	0.2703	0.3453	0.1927	-0.04
Mof_C 	C 	0.0653	0.2541	0.2049	-0.344
Mof_C 	C 	0.0319	0.1915	0.246	0.385
Mof_C 	C 	0.8473	0.1302	0.2334	-0.892
Mof_H 	H 	0.8552	0.0924	0.2668	0.278
Mof_H 	H 	0.8158	0.093	0.1719	0.305
Mof_H 	H 	0.7533	0.166	0.2533	0.293
Mof_C 	C 	0.3335	0.2338	0.3168	0.352
Mof_C 	C 	0.46	0.2209	0.3849	-0.835
Mof_H 	H 	0.3959	0.1762	0.4044	0.258
Mof_H 	H 	0.4963	0.2771	0.4343	0.278
Mof_H 	H 	0.5686	0.2012	0.3593	0.265
Mof_C 	C 	0.0947	0.4282	0.4174	0.088
Mof_H 	H 	0.9878	0.39	0.4194	-0.007
Mof_C 	C 	0.2501	0.4386	0.4729	-0.151
Mof_H 	H 	0.2465	0.4083	0.5118	0.082
Mof_C 	C 	0.4149	0.49496	0.47116	0.057
Mof_C 	C 	0.407	0.5382	0.4126	-0.142
Mof_H 	H 	0.5118	0.5768	0.4091	0.08
Mof_C 	C 	0.2465	0.5249	0.3594	0.081
Mof_H 	H 	0.246	0.555	0.3205	-0.008
Mof_C 	C 	0.9228	0.6208	0.2985	0.385
Mof_C 	C 	0.0128	0.7118	0.3	-0.291
Mof_C 	C 	0.0535	0.7899	0.3763	0.343
Mof_C 	C 	0.0304	0.7928	0.4684	-0.829
Mof_H 	H 	0.0659	0.8539	0.5099	0.262
Mof_H 	H 	0.1078	0.7556	0.4823	0.272
Mof_H 	H 	0.9029	0.7706	0.4717	0.278
Mof_C 	C 	0.1713	0.8755	0.2959	0.336
Mof_C 	C 	0.2437	0.9706	0.3009	-0.81
Mof_H 	H 	0.246	0.0126	0.3603	0.252
Mof_H 	H 	0.1638	0.9854	0.2619	0.27
Mof_H 	H 	0.3671	0.974	0.2836	0.27
Mof_C 	C 	0.1501	0.7984	0.2172	-0.297
Mof_C 	C 	0.0666	0.7175	0.222	0.197
Mof_H 	H 	0.0461	0.6654	0.1711	-0.005
Mof_C 	C 	0.2201	0.7979	0.1331	0.404
Mof_C 	C 	0.9209	0.2714	0.1486	0.443
Mof_N 	N 	0.0893	0.47003	0.36066	-0.262
Mof_N 	N 	0.1623	0.18389	0.30134	-0.261
Mof_N 	N 	0.1294	0.8698	0.3723	-0.246
Mof_Zn	Zn	0.64992	0.24052	0.0144	1.188
Mof_C 	C 	0.4045	0.0974	0.0557	0.097
Mof_H 	H 	0.5116	0.0993	0.0897	-0.021
Mof_C 	C 	0.2479	0.0371	0.0531	-0.166
Mof_H 	H 	0.2507	0.9995	0.0846	0.092
Mof_C 	C 	0.0856	0.0326	0.0031	0.066
Mof_C 	C 	0.0929	0.0917	0.9595	-0.161
Mof_H 	H 	0.9871	0.0924	0.9261	0.089
Mof_C 	C 	0.2548	0.1494	0.9651	0.093
Mof_H 	H 	0.2555	0.188	0.9344	-0.039
Mof_N 	N 	0.411	0.15311	0.0121	-0.281
Mof_Zn	Zn	0.13474	0.54969	0.7284	1.22
Mof_O 	O 	0.2915	0.6681	0.68029	-0.404
Mof_O 	O 	0.4095	0.58953	0.74561	-0.471
Mof_O 	O 	0.0854	0.6483	0.84274	-0.512
Mof_O 	O 	0.0605	0.44775	0.76892	-0.444
Mof_O 	O 	0.1578	0.38653	0.63957	-0.383
Mof_O 	O 	0.1887	0.7949	0.90702	-0.491
Mof_O 	O 	0.6978	0.1336	0.8743	-0.415
Mof_O 	O 	0.8057	0.277	0.9308	-0.467
Mof_C 	C 	0.4259	0.6516	0.7154	0.398
Mof_C 	C 	0.6179	0.706	0.7259	-0.312
Mof_C 	C 	0.7567	0.6961	0.7801	0.226
Mof_H 	H 	0.7297	0.6547	0.8073	-0.04
Mof_C 	C 	0.9347	0.7459	0.7951	-0.344
Mof_C 	C 	0.9681	0.8085	0.754	0.385
Mof_C 	C 	0.1527	0.8698	0.7666	-0.892
Mof_H 	H 	0.1448	0.9076	0.7332	0.278
Mof_H 	H 	0.1842	0.907	0.8281	0.305
Mof_H 	H 	0.2467	0.834	0.7467	0.293
Mof_C 	C 	0.6665	0.7662	0.6832	0.352
Mof_C 	C 	0.54	0.7791	0.6151	-0.835
Mof_H 	H 	0.6041	0.8238	0.5956	0.258
Mof_H 	H 	0.5037	0.7229	0.5657	0.278
Mof_H 	H 	0.4314	0.7988	0.6407	0.265
Mof_C 	C 	0.9053	0.5718	0.5826	0.088
Mof_H 	H 	0.0122	0.61	0.5806	-0.007
Mof_C 	C 	0.7499	0.5614	0.5271	-0.151
Mof_H 	H 	0.7535	0.5917	0.4882	0.082
Mof_C 	C 	0.5851	0.50504	0.52884	0.057
Mof_C 	C 	0.593	0.4618	0.5874	-0.142
Mof_H 	H 	0.4882	0.4232	0.5909	0.08
Mof_C 	C 	0.7535	0.4751	0.6406	0.081
Mof_H 	H 	0.754	0.445	0.6795	-0.008
Mof_C 	C 	0.0772	0.3792	0.7015	0.385
Mof_C 	C 	0.9872	0.2882	0.7	-0.291
Mof_C 	C 	0.9465	0.2101	0.6237	0.343
Mof_C 	C 	0.9696	0.2072	0.5316	-0.829
Mof_H 	H 	0.9341	0.1461	0.4901	0.262
Mof_H 	H 	0.8922	0.2444	0.5177	0.272
Mof_H 	H 	0.0971	0.2294	0.5283	0.278
Mof_C 	C 	0.8287	0.1245	0.7041	0.336
Mof_C 	C 	0.7563	0.0294	0.6991	-0.81
Mof_H 	H 	0.754	0.9874	0.6397	0.252
Mof_H 	H 	0.8362	0.0146	0.7381	0.27
Mof_H 	H 	0.6329	0.026	0.7164	0.27
Mof_C 	C 	0.8499	0.2016	0.7828	-0.297
Mof_C 	C 	0.9334	0.2825	0.778	0.197
Mof_H 	H 	0.9539	0.3346	0.8289	-0.005
Mof_C 	C 	0.7799	0.2021	0.8669	0.404
Mof_C 	C 	0.0791	0.7286	0.8514	0.443
Mof_N 	N 	0.9107	0.52997	0.63934	-0.262
Mof_N 	N 	0.8377	0.81611	0.69866	-0.261
Mof_N 	N 	0.8706	0.1302	0.6277	-0.246
Mof_Zn	Zn	0.35008	0.75948	0.9856	1.188
Mof_C 	C 	0.5955	0.9026	0.9443	0.097
Mof_H 	H 	0.4884	0.9007	0.9103	-0.021
Mof_C 	C 	0.7521	0.9629	0.9469	-0.166
Mof_H 	H 	0.7493	0.0005	0.9154	0.092
Mof_C 	C 	0.9144	0.9674	0.9969	0.066
Mof_C 	C 	0.9071	0.9083	0.0405	-0.161
Mof_H 	H 	0.0129	0.9076	0.0739	0.089
Mof_C 	C 	0.7452	0.8506	0.0349	0.093
Mof_H 	H 	0.7445	0.812	0.0656	-0.039
Mof_N 	N 	0.589	0.84689	0.9879	-0.281
_end
