data_functionalizedCrystal
_audit_creation_method	'EQeq! by Chris Wilmer'
_symmetry_space_group_name_H-M	'P1'
_symmetry_Int_Tables_number	1
_symmetry_cell_setting	triclinic
loop_
_symmetry_equiv_pos_as_xyz
  x,y,z
_cell_length_a	19.833
_cell_length_b	19.833
_cell_length_c	19.833
_cell_angle_alpha	90
_cell_angle_beta	90
_cell_angle_gamma	90
loop_
_atom_site_label
_atom_site_type_symbol
_atom_site_fract_x
_atom_site_fract_y
_atom_site_fract_z
_atom_site_charge
Mof_Sm	Sm	0.50657	0.74734	0.34724	1.768
Mof_O 	O 	0.5491	0.64697	0.29367	-0.537
Mof_O 	O 	0.45881	0.84316	0.2906	-0.54
Mof_O 	O 	0.4115	0.89418	0.2029	-0.507
Mof_O 	O 	0.58215	0.58639	0.20539	-0.505
Mof_N 	N 	0.50039	0.74283	0.21944	-0.203
Mof_C 	C 	0.5549	0.6365	0.2307	0.391
Mof_C 	C 	0.4458	0.8485	0.2284	0.394
Mof_C 	C 	0.4732	0.7933	0.1841	-0.101
Mof_C 	C 	0.5262	0.6903	0.1858	-0.101
Mof_C 	C 	0.4708	0.7936	0.1149	0.005
Mof_H 	H 	0.4513	0.8293	0.0916	-0.005
Mof_C 	C 	0.5268	0.6875	0.116	0.004
Mof_H 	H 	0.5462	0.6512	0.0936	-0.001
Mof_C 	C 	0.4983	0.7395	0.081	-0.091
Mof_H 	H 	0.4973	0.7384	0.0341	0.021
Mof_Sm	Sm	0.99343	0.25266	0.84724	1.77
Mof_O 	O 	0.9509	0.35303	0.79367	-0.536
Mof_O 	O 	0.04119	0.15684	0.7906	-0.539
Mof_O 	O 	0.0885	0.10582	0.7029	-0.506
Mof_O 	O 	0.91785	0.41361	0.70539	-0.504
Mof_N 	N 	0.99961	0.25717	0.71944	-0.202
Mof_C 	C 	0.9451	0.3635	0.7307	0.391
Mof_C 	C 	0.0542	0.1515	0.7284	0.394
Mof_C 	C 	0.0268	0.2067	0.6841	-0.1
Mof_C 	C 	0.9738	0.3097	0.6858	-0.1
Mof_C 	C 	0.0292	0.2064	0.6149	0.004
Mof_H 	H 	0.0487	0.1707	0.5916	-0.004
Mof_C 	C 	0.9732	0.3125	0.616	0.003
Mof_H 	H 	0.9538	0.3488	0.5936	-0
Mof_C 	C 	0.0017	0.2605	0.581	-0.09
Mof_H 	H 	0.0027	0.2616	0.5341	0.021
Mof_Sm	Sm	0.49343	0.24734	0.15276	1.769
Mof_O 	O 	0.4509	0.14697	0.20633	-0.536
Mof_O 	O 	0.54119	0.34316	0.2094	-0.539
Mof_O 	O 	0.5885	0.39418	0.2971	-0.506
Mof_O 	O 	0.41785	0.08639	0.29461	-0.503
Mof_N 	N 	0.49961	0.24283	0.28056	-0.202
Mof_C 	C 	0.4451	0.1365	0.2693	0.391
Mof_C 	C 	0.5542	0.3485	0.2716	0.394
Mof_C 	C 	0.5268	0.2933	0.3159	-0.1
Mof_C 	C 	0.4738	0.1903	0.3142	-0.1
Mof_C 	C 	0.5292	0.2936	0.3851	0.005
Mof_H 	H 	0.5487	0.3293	0.4084	-0.005
Mof_C 	C 	0.4732	0.1875	0.384	0.004
Mof_H 	H 	0.4538	0.1512	0.4064	-0.001
Mof_C 	C 	0.5017	0.2395	0.419	-0.091
Mof_H 	H 	0.5027	0.2384	0.4659	0.021
Mof_Sm	Sm	0.00657	0.75266	0.65276	1.766
Mof_O 	O 	0.0491	0.85303	0.70633	-0.536
Mof_O 	O 	0.95881	0.65684	0.7094	-0.537
Mof_O 	O 	0.9115	0.60582	0.7971	-0.505
Mof_O 	O 	0.08215	0.91361	0.79461	-0.504
Mof_N 	N 	0.00039	0.75717	0.78056	-0.204
Mof_C 	C 	0.0549	0.8635	0.7693	0.39
Mof_C 	C 	0.9458	0.6515	0.7716	0.392
Mof_C 	C 	0.9732	0.7067	0.8159	-0.096
Mof_C 	C 	0.0262	0.8097	0.8142	-0.098
Mof_C 	C 	0.9708	0.7064	0.8851	-0.001
Mof_H 	H 	0.9513	0.6707	0.9084	-0.002
Mof_C 	C 	0.0268	0.8125	0.884	-0.005
Mof_H 	H 	0.0462	0.8488	0.9064	0.002
Mof_C 	C 	0.9983	0.7605	0.919	-0.081
Mof_H 	H 	0.9973	0.7616	0.9659	0.019
Mof_Sm	Sm	0.34724	0.50657	0.74734	1.769
Mof_O 	O 	0.29367	0.5491	0.64697	-0.536
Mof_O 	O 	0.2906	0.45881	0.84316	-0.539
Mof_O 	O 	0.2029	0.4115	0.89418	-0.506
Mof_O 	O 	0.20539	0.58215	0.58639	-0.504
Mof_N 	N 	0.21944	0.50039	0.74283	-0.202
Mof_C 	C 	0.2307	0.5549	0.6365	0.391
Mof_C 	C 	0.2284	0.4458	0.8485	0.394
Mof_C 	C 	0.1841	0.4732	0.7933	-0.101
Mof_C 	C 	0.1858	0.5262	0.6903	-0.101
Mof_C 	C 	0.1149	0.4708	0.7936	0.005
Mof_H 	H 	0.0916	0.4513	0.8293	-0.005
Mof_C 	C 	0.116	0.5268	0.6875	0.004
Mof_H 	H 	0.0936	0.5462	0.6512	-0.001
Mof_C 	C 	0.081	0.4983	0.7395	-0.091
Mof_H 	H 	0.0341	0.4973	0.7384	0.021
Mof_Sm	Sm	0.84724	0.99343	0.25266	1.77
Mof_O 	O 	0.79367	0.9509	0.35303	-0.536
Mof_O 	O 	0.7906	0.04119	0.15684	-0.539
Mof_O 	O 	0.7029	0.0885	0.10582	-0.506
Mof_O 	O 	0.70539	0.91785	0.41361	-0.504
Mof_N 	N 	0.71944	0.99961	0.25717	-0.202
Mof_C 	C 	0.7307	0.9451	0.3635	0.391
Mof_C 	C 	0.7284	0.0542	0.1515	0.394
Mof_C 	C 	0.6841	0.0268	0.2067	-0.1
Mof_C 	C 	0.6858	0.9738	0.3097	-0.1
Mof_C 	C 	0.6149	0.0292	0.2064	0.004
Mof_H 	H 	0.5916	0.0487	0.1707	-0.004
Mof_C 	C 	0.616	0.9732	0.3125	0.003
Mof_H 	H 	0.5936	0.9538	0.3488	-0
Mof_C 	C 	0.581	0.0017	0.2605	-0.09
Mof_H 	H 	0.5341	0.0027	0.2616	0.021
Mof_Sm	Sm	0.15276	0.49343	0.24734	1.769
Mof_O 	O 	0.20633	0.4509	0.14697	-0.536
Mof_O 	O 	0.2094	0.54119	0.34316	-0.539
Mof_O 	O 	0.2971	0.5885	0.39418	-0.506
Mof_O 	O 	0.29461	0.41785	0.08639	-0.503
Mof_N 	N 	0.28056	0.49961	0.24283	-0.202
Mof_C 	C 	0.2693	0.4451	0.1365	0.391
Mof_C 	C 	0.2716	0.5542	0.3485	0.394
Mof_C 	C 	0.3159	0.5268	0.2933	-0.1
Mof_C 	C 	0.3142	0.4738	0.1903	-0.1
Mof_C 	C 	0.3851	0.5292	0.2936	0.005
Mof_H 	H 	0.4084	0.5487	0.3293	-0.005
Mof_C 	C 	0.384	0.4732	0.1875	0.004
Mof_H 	H 	0.4064	0.4538	0.1512	-0.001
Mof_C 	C 	0.419	0.5017	0.2395	-0.091
Mof_H 	H 	0.4659	0.5027	0.2384	0.021
Mof_Sm	Sm	0.65276	0.00657	0.75266	1.766
Mof_O 	O 	0.70633	0.0491	0.85303	-0.536
Mof_O 	O 	0.7094	0.95881	0.65684	-0.537
Mof_O 	O 	0.7971	0.9115	0.60582	-0.505
Mof_O 	O 	0.79461	0.08215	0.91361	-0.504
Mof_N 	N 	0.78056	0.00039	0.75717	-0.204
Mof_C 	C 	0.7693	0.0549	0.8635	0.39
Mof_C 	C 	0.7716	0.9458	0.6515	0.392
Mof_C 	C 	0.8159	0.9732	0.7067	-0.096
Mof_C 	C 	0.8142	0.0262	0.8097	-0.098
Mof_C 	C 	0.8851	0.9708	0.7064	-0.001
Mof_H 	H 	0.9084	0.9513	0.6707	-0.002
Mof_C 	C 	0.884	0.0268	0.8125	-0.005
Mof_H 	H 	0.9064	0.0462	0.8488	0.002
Mof_C 	C 	0.919	0.9983	0.7605	-0.081
Mof_H 	H 	0.9659	0.9973	0.7616	0.019
Mof_Sm	Sm	0.74734	0.34724	0.50657	1.769
Mof_O 	O 	0.64697	0.29367	0.5491	-0.536
Mof_O 	O 	0.84316	0.2906	0.45881	-0.539
Mof_O 	O 	0.89418	0.2029	0.4115	-0.506
Mof_O 	O 	0.58639	0.20539	0.58215	-0.504
Mof_N 	N 	0.74283	0.21944	0.50039	-0.202
Mof_C 	C 	0.6365	0.2307	0.5549	0.391
Mof_C 	C 	0.8485	0.2284	0.4458	0.394
Mof_C 	C 	0.7933	0.1841	0.4732	-0.101
Mof_C 	C 	0.6903	0.1858	0.5262	-0.101
Mof_C 	C 	0.7936	0.1149	0.4708	0.005
Mof_H 	H 	0.8293	0.0916	0.4513	-0.005
Mof_C 	C 	0.6875	0.116	0.5268	0.004
Mof_H 	H 	0.6512	0.0936	0.5462	-0.001
Mof_C 	C 	0.7395	0.081	0.4983	-0.091
Mof_H 	H 	0.7384	0.0341	0.4973	0.021
Mof_Sm	Sm	0.25266	0.84724	0.99343	1.77
Mof_O 	O 	0.35303	0.79367	0.9509	-0.536
Mof_O 	O 	0.15684	0.7906	0.04119	-0.539
Mof_O 	O 	0.10582	0.7029	0.0885	-0.506
Mof_O 	O 	0.41361	0.70539	0.91785	-0.504
Mof_N 	N 	0.25717	0.71944	0.99961	-0.202
Mof_C 	C 	0.3635	0.7307	0.9451	0.391
Mof_C 	C 	0.1515	0.7284	0.0542	0.394
Mof_C 	C 	0.2067	0.6841	0.0268	-0.1
Mof_C 	C 	0.3097	0.6858	0.9738	-0.1
Mof_C 	C 	0.2064	0.6149	0.0292	0.004
Mof_H 	H 	0.1707	0.5916	0.0487	-0.004
Mof_C 	C 	0.3125	0.616	0.9732	0.003
Mof_H 	H 	0.3488	0.5936	0.9538	-0
Mof_C 	C 	0.2605	0.581	0.0017	-0.09
Mof_H 	H 	0.2616	0.5341	0.0027	0.021
Mof_Sm	Sm	0.24734	0.15276	0.49343	1.769
Mof_O 	O 	0.14697	0.20633	0.4509	-0.536
Mof_O 	O 	0.34316	0.2094	0.54119	-0.539
Mof_O 	O 	0.39418	0.2971	0.5885	-0.506
Mof_O 	O 	0.08639	0.29461	0.41785	-0.503
Mof_N 	N 	0.24283	0.28056	0.49961	-0.202
Mof_C 	C 	0.1365	0.2693	0.4451	0.391
Mof_C 	C 	0.3485	0.2716	0.5542	0.394
Mof_C 	C 	0.2933	0.3159	0.5268	-0.1
Mof_C 	C 	0.1903	0.3142	0.4738	-0.1
Mof_C 	C 	0.2936	0.3851	0.5292	0.005
Mof_H 	H 	0.3293	0.4084	0.5487	-0.005
Mof_C 	C 	0.1875	0.384	0.4732	0.004
Mof_H 	H 	0.1512	0.4064	0.4538	-0.001
Mof_C 	C 	0.2395	0.419	0.5017	-0.091
Mof_H 	H 	0.2384	0.4659	0.5027	0.021
Mof_Sm	Sm	0.75266	0.65276	0.00657	1.766
Mof_O 	O 	0.85303	0.70633	0.0491	-0.536
Mof_O 	O 	0.65684	0.7094	0.95881	-0.537
Mof_O 	O 	0.60582	0.7971	0.9115	-0.505
Mof_O 	O 	0.91361	0.79461	0.08215	-0.504
Mof_N 	N 	0.75717	0.78056	0.00039	-0.204
Mof_C 	C 	0.8635	0.7693	0.0549	0.39
Mof_C 	C 	0.6515	0.7716	0.9458	0.392
Mof_C 	C 	0.7067	0.8159	0.9732	-0.096
Mof_C 	C 	0.8097	0.8142	0.0262	-0.098
Mof_C 	C 	0.7064	0.8851	0.9708	-0.001
Mof_H 	H 	0.6707	0.9084	0.9513	-0.002
Mof_C 	C 	0.8125	0.884	0.0268	-0.005
Mof_H 	H 	0.8488	0.9064	0.0462	0.002
Mof_C 	C 	0.7605	0.919	0.9983	-0.081
Mof_H 	H 	0.7616	0.9659	0.9973	0.019
Mof_Sm	Sm	0.49343	0.25266	0.65276	1.769
Mof_O 	O 	0.4509	0.35303	0.70633	-0.536
Mof_O 	O 	0.54119	0.15684	0.7094	-0.539
Mof_O 	O 	0.5885	0.10582	0.7971	-0.506
Mof_O 	O 	0.41785	0.41361	0.79461	-0.504
Mof_N 	N 	0.49961	0.25717	0.78056	-0.202
Mof_C 	C 	0.4451	0.3635	0.7693	0.391
Mof_C 	C 	0.5542	0.1515	0.7716	0.394
Mof_C 	C 	0.5268	0.2067	0.8159	-0.101
Mof_C 	C 	0.4738	0.3097	0.8142	-0.101
Mof_C 	C 	0.5292	0.2064	0.8851	0.005
Mof_H 	H 	0.5487	0.1707	0.9084	-0.005
Mof_C 	C 	0.4732	0.3125	0.884	0.004
Mof_H 	H 	0.4538	0.3488	0.9064	-0.001
Mof_C 	C 	0.5017	0.2605	0.919	-0.091
Mof_H 	H 	0.5027	0.2616	0.9659	0.021
Mof_Sm	Sm	0.00657	0.74734	0.15276	1.77
Mof_O 	O 	0.0491	0.64697	0.20633	-0.536
Mof_O 	O 	0.95881	0.84316	0.2094	-0.539
Mof_O 	O 	0.9115	0.89418	0.2971	-0.506
Mof_O 	O 	0.08215	0.58639	0.29461	-0.504
Mof_N 	N 	0.00039	0.74283	0.28056	-0.202
Mof_C 	C 	0.0549	0.6365	0.2693	0.391
Mof_C 	C 	0.9458	0.8485	0.2716	0.394
Mof_C 	C 	0.9732	0.7933	0.3159	-0.1
Mof_C 	C 	0.0262	0.6903	0.3142	-0.1
Mof_C 	C 	0.9708	0.7936	0.3851	0.004
Mof_H 	H 	0.9513	0.8293	0.4084	-0.004
Mof_C 	C 	0.0268	0.6875	0.384	0.003
Mof_H 	H 	0.0462	0.6512	0.4064	-0
Mof_C 	C 	0.9983	0.7395	0.419	-0.09
Mof_H 	H 	0.9973	0.7384	0.4659	0.021
Mof_Sm	Sm	0.50657	0.75266	0.84724	1.769
Mof_O 	O 	0.5491	0.85303	0.79367	-0.536
Mof_O 	O 	0.45881	0.65684	0.7906	-0.539
Mof_O 	O 	0.4115	0.60582	0.7029	-0.506
Mof_O 	O 	0.58215	0.91361	0.70539	-0.503
Mof_N 	N 	0.50039	0.75717	0.71944	-0.202
Mof_C 	C 	0.5549	0.8635	0.7307	0.391
Mof_C 	C 	0.4458	0.6515	0.7284	0.394
Mof_C 	C 	0.4732	0.7067	0.6841	-0.1
Mof_C 	C 	0.5262	0.8097	0.6858	-0.1
Mof_C 	C 	0.4708	0.7064	0.6149	0.005
Mof_H 	H 	0.4513	0.6707	0.5916	-0.005
Mof_C 	C 	0.5268	0.8125	0.616	0.004
Mof_H 	H 	0.5462	0.8488	0.5936	-0.001
Mof_C 	C 	0.4983	0.7605	0.581	-0.091
Mof_H 	H 	0.4973	0.7616	0.5341	0.021
Mof_Sm	Sm	0.99343	0.24734	0.34724	1.766
Mof_O 	O 	0.9509	0.14697	0.29367	-0.536
Mof_O 	O 	0.04119	0.34316	0.2906	-0.537
Mof_O 	O 	0.0885	0.39418	0.2029	-0.505
Mof_O 	O 	0.91785	0.08639	0.20539	-0.504
Mof_N 	N 	0.99961	0.24283	0.21944	-0.204
Mof_C 	C 	0.9451	0.1365	0.2307	0.39
Mof_C 	C 	0.0542	0.3485	0.2284	0.392
Mof_C 	C 	0.0268	0.2933	0.1841	-0.096
Mof_C 	C 	0.9738	0.1903	0.1858	-0.098
Mof_C 	C 	0.0292	0.2936	0.1149	-0.001
Mof_H 	H 	0.0487	0.3293	0.0916	-0.002
Mof_C 	C 	0.9732	0.1875	0.116	-0.005
Mof_H 	H 	0.9538	0.1512	0.0936	0.002
Mof_C 	C 	0.0017	0.2395	0.081	-0.081
Mof_H 	H 	0.0027	0.2384	0.0341	0.019
Mof_Sm	Sm	0.65276	0.49343	0.25266	1.769
Mof_O 	O 	0.70633	0.4509	0.35303	-0.536
Mof_O 	O 	0.7094	0.54119	0.15684	-0.539
Mof_O 	O 	0.7971	0.5885	0.10582	-0.506
Mof_O 	O 	0.79461	0.41785	0.41361	-0.504
Mof_N 	N 	0.78056	0.49961	0.25717	-0.202
Mof_C 	C 	0.7693	0.4451	0.3635	0.391
Mof_C 	C 	0.7716	0.5542	0.1515	0.394
Mof_C 	C 	0.8159	0.5268	0.2067	-0.101
Mof_C 	C 	0.8142	0.4738	0.3097	-0.101
Mof_C 	C 	0.8851	0.5292	0.2064	0.005
Mof_H 	H 	0.9084	0.5487	0.1707	-0.005
Mof_C 	C 	0.884	0.4732	0.3125	0.004
Mof_H 	H 	0.9064	0.4538	0.3488	-0.001
Mof_C 	C 	0.919	0.5017	0.2605	-0.091
Mof_H 	H 	0.9659	0.5027	0.2616	0.021
Mof_Sm	Sm	0.15276	0.00657	0.74734	1.77
Mof_O 	O 	0.20633	0.0491	0.64697	-0.536
Mof_O 	O 	0.2094	0.95881	0.84316	-0.539
Mof_O 	O 	0.2971	0.9115	0.89418	-0.506
Mof_O 	O 	0.29461	0.08215	0.58639	-0.504
Mof_N 	N 	0.28056	0.00039	0.74283	-0.202
Mof_C 	C 	0.2693	0.0549	0.6365	0.391
Mof_C 	C 	0.2716	0.9458	0.8485	0.394
Mof_C 	C 	0.3159	0.9732	0.7933	-0.1
Mof_C 	C 	0.3142	0.0262	0.6903	-0.1
Mof_C 	C 	0.3851	0.9708	0.7936	0.004
Mof_H 	H 	0.4084	0.9513	0.8293	-0.004
Mof_C 	C 	0.384	0.0268	0.6875	0.003
Mof_H 	H 	0.4064	0.0462	0.6512	-0
Mof_C 	C 	0.419	0.9983	0.7395	-0.09
Mof_H 	H 	0.4659	0.9973	0.7384	0.021
Mof_Sm	Sm	0.84724	0.50657	0.75266	1.769
Mof_O 	O 	0.79367	0.5491	0.85303	-0.536
Mof_O 	O 	0.7906	0.45881	0.65684	-0.539
Mof_O 	O 	0.7029	0.4115	0.60582	-0.506
Mof_O 	O 	0.70539	0.58215	0.91361	-0.503
Mof_N 	N 	0.71944	0.50039	0.75717	-0.202
Mof_C 	C 	0.7307	0.5549	0.8635	0.391
Mof_C 	C 	0.7284	0.4458	0.6515	0.394
Mof_C 	C 	0.6841	0.4732	0.7067	-0.1
Mof_C 	C 	0.6858	0.5262	0.8097	-0.1
Mof_C 	C 	0.6149	0.4708	0.7064	0.005
Mof_H 	H 	0.5916	0.4513	0.6707	-0.005
Mof_C 	C 	0.616	0.5268	0.8125	0.004
Mof_H 	H 	0.5936	0.5462	0.8488	-0.001
Mof_C 	C 	0.581	0.4983	0.7605	-0.091
Mof_H 	H 	0.5341	0.4973	0.7616	0.021
Mof_Sm	Sm	0.34724	0.99343	0.24734	1.766
Mof_O 	O 	0.29367	0.9509	0.14697	-0.536
Mof_O 	O 	0.2906	0.04119	0.34316	-0.537
Mof_O 	O 	0.2029	0.0885	0.39418	-0.505
Mof_O 	O 	0.20539	0.91785	0.08639	-0.504
Mof_N 	N 	0.21944	0.99961	0.24283	-0.204
Mof_C 	C 	0.2307	0.9451	0.1365	0.39
Mof_C 	C 	0.2284	0.0542	0.3485	0.392
Mof_C 	C 	0.1841	0.0268	0.2933	-0.096
Mof_C 	C 	0.1858	0.9738	0.1903	-0.098
Mof_C 	C 	0.1149	0.0292	0.2936	-0.001
Mof_H 	H 	0.0916	0.0487	0.3293	-0.002
Mof_C 	C 	0.116	0.9732	0.1875	-0.005
Mof_H 	H 	0.0936	0.9538	0.1512	0.002
Mof_C 	C 	0.081	0.0017	0.2395	-0.081
Mof_H 	H 	0.0341	0.0027	0.2384	0.019
Mof_Sm	Sm	0.25266	0.65276	0.49343	1.769
Mof_O 	O 	0.35303	0.70633	0.4509	-0.536
Mof_O 	O 	0.15684	0.7094	0.54119	-0.539
Mof_O 	O 	0.10582	0.7971	0.5885	-0.506
Mof_O 	O 	0.41361	0.79461	0.41785	-0.504
Mof_N 	N 	0.25717	0.78056	0.49961	-0.202
Mof_C 	C 	0.3635	0.7693	0.4451	0.391
Mof_C 	C 	0.1515	0.7716	0.5542	0.394
Mof_C 	C 	0.2067	0.8159	0.5268	-0.101
Mof_C 	C 	0.3097	0.8142	0.4738	-0.101
Mof_C 	C 	0.2064	0.8851	0.5292	0.005
Mof_H 	H 	0.1707	0.9084	0.5487	-0.005
Mof_C 	C 	0.3125	0.884	0.4732	0.004
Mof_H 	H 	0.3488	0.9064	0.4538	-0.001
Mof_C 	C 	0.2605	0.919	0.5017	-0.091
Mof_H 	H 	0.2616	0.9659	0.5027	0.021
Mof_Sm	Sm	0.74734	0.15276	0.00657	1.77
Mof_O 	O 	0.64697	0.20633	0.0491	-0.536
Mof_O 	O 	0.84316	0.2094	0.95881	-0.539
Mof_O 	O 	0.89418	0.2971	0.9115	-0.506
Mof_O 	O 	0.58639	0.29461	0.08215	-0.504
Mof_N 	N 	0.74283	0.28056	0.00039	-0.202
Mof_C 	C 	0.6365	0.2693	0.0549	0.391
Mof_C 	C 	0.8485	0.2716	0.9458	0.394
Mof_C 	C 	0.7933	0.3159	0.9732	-0.1
Mof_C 	C 	0.6903	0.3142	0.0262	-0.1
Mof_C 	C 	0.7936	0.3851	0.9708	0.004
Mof_H 	H 	0.8293	0.4084	0.9513	-0.004
Mof_C 	C 	0.6875	0.384	0.0268	0.003
Mof_H 	H 	0.6512	0.4064	0.0462	-0
Mof_C 	C 	0.7395	0.419	0.9983	-0.09
Mof_H 	H 	0.7384	0.4659	0.9973	0.021
Mof_Sm	Sm	0.75266	0.84724	0.50657	1.769
Mof_O 	O 	0.85303	0.79367	0.5491	-0.536
Mof_O 	O 	0.65684	0.7906	0.45881	-0.539
Mof_O 	O 	0.60582	0.7029	0.4115	-0.506
Mof_O 	O 	0.91361	0.70539	0.58215	-0.503
Mof_N 	N 	0.75717	0.71944	0.50039	-0.202
Mof_C 	C 	0.8635	0.7307	0.5549	0.391
Mof_C 	C 	0.6515	0.7284	0.4458	0.394
Mof_C 	C 	0.7067	0.6841	0.4732	-0.1
Mof_C 	C 	0.8097	0.6858	0.5262	-0.1
Mof_C 	C 	0.7064	0.6149	0.4708	0.005
Mof_H 	H 	0.6707	0.5916	0.4513	-0.005
Mof_C 	C 	0.8125	0.616	0.5268	0.004
Mof_H 	H 	0.8488	0.5936	0.5462	-0.001
Mof_C 	C 	0.7605	0.581	0.4983	-0.091
Mof_H 	H 	0.7616	0.5341	0.4973	0.021
Mof_Sm	Sm	0.24734	0.34724	0.99343	1.766
Mof_O 	O 	0.14697	0.29367	0.9509	-0.536
Mof_O 	O 	0.34316	0.2906	0.04119	-0.537
Mof_O 	O 	0.39418	0.2029	0.0885	-0.505
Mof_O 	O 	0.08639	0.20539	0.91785	-0.504
Mof_N 	N 	0.24283	0.21944	0.99961	-0.204
Mof_C 	C 	0.1365	0.2307	0.9451	0.39
Mof_C 	C 	0.3485	0.2284	0.0542	0.392
Mof_C 	C 	0.2933	0.1841	0.0268	-0.096
Mof_C 	C 	0.1903	0.1858	0.9738	-0.098
Mof_C 	C 	0.2936	0.1149	0.0292	-0.001
Mof_H 	H 	0.3293	0.0916	0.0487	-0.002
Mof_C 	C 	0.1875	0.116	0.9732	-0.005
Mof_H 	H 	0.1512	0.0936	0.9538	0.002
Mof_C 	C 	0.2395	0.081	0.0017	-0.081
Mof_H 	H 	0.2384	0.0341	0.0027	0.019
_end
