data_functionalizedCrystal
_audit_creation_method	'EQeq! by Chris Wilmer'
_symmetry_space_group_name_H-M	'P1'
_symmetry_Int_Tables_number	1
_symmetry_cell_setting	triclinic
loop_
_symmetry_equiv_pos_as_xyz
  x,y,z
_cell_length_a	11.3502
_cell_length_b	16.1501
_cell_length_c	11.3658
_cell_angle_alpha	90
_cell_angle_beta	101.935
_cell_angle_gamma	90
loop_
_atom_site_label
_atom_site_type_symbol
_atom_site_fract_x
_atom_site_fract_y
_atom_site_fract_z
_atom_site_charge
Mof_Cu	Cu	0.37257	0.58984	0.61627	0.892
Mof_O 	O 	0.41844	0.57168	0.45398	-0.366
Mof_O 	O 	0.39478	0.69272	0.52638	-0.382
Mof_O 	O 	0.59236	0.51885	0.3105	-0.428
Mof_N 	N 	0.34169	0.64671	0.76003	-0.239
Mof_C 	C 	0.46269	0.69039	0.34193	-0.05
Mof_C 	C 	0.4627	0.77696	0.341	-0.012
Mof_H 	H 	0.4374	0.8059	0.4021	0.037
Mof_C 	C 	0.42264	0.64886	0.44416	0.29
Mof_C 	C 	0.3395	0.72946	0.7648	0.063
Mof_H 	H 	0.3622	0.7595	0.7032	0.007
Mof_C 	C 	0.305	0.7719	0.8572	-0.119
Mof_H 	H 	0.305	0.8295	0.8575	0.072
Mof_C 	C 	0.27003	0.72836	0.95004	0.052
Mof_C 	C 	0.2752	0.64253	0.9454	-0.116
Mof_H 	H 	0.2547	0.611	0.0067	0.067
Mof_C 	C 	0.3106	0.6039	0.8503	0.044
Mof_H 	H 	0.313	0.5464	0.8486	0.01
Mof_Cu	Cu	0.87257	0.08984	0.61627	0.895
Mof_O 	O 	0.91844	0.07168	0.45398	-0.355
Mof_O 	O 	0.89478	0.19272	0.52638	-0.376
Mof_O 	O 	0.09236	0.01885	0.3105	-0.425
Mof_N 	N 	0.84169	0.14671	0.76003	-0.238
Mof_C 	C 	0.96269	0.19039	0.34193	-0.039
Mof_C 	C 	0.9627	0.27696	0.341	0.034
Mof_H 	H 	0.9374	0.3059	0.4021	0.028
Mof_C 	C 	0.92264	0.14886	0.44416	0.292
Mof_C 	C 	0.8395	0.22946	0.7648	0.068
Mof_H 	H 	0.8622	0.2595	0.7032	0.009
Mof_C 	C 	0.805	0.2719	0.8572	-0.119
Mof_H 	H 	0.805	0.3295	0.8575	0.075
Mof_C 	C 	0.77003	0.22836	0.95004	0.058
Mof_C 	C 	0.7752	0.14253	0.9454	-0.123
Mof_H 	H 	0.7547	0.111	0.0067	0.075
Mof_C 	C 	0.8106	0.1039	0.8503	0.053
Mof_H 	H 	0.813	0.0464	0.8486	0.009
Mof_Cu	Cu	0.62743	0.58984	0.88373	0.894
Mof_O 	O 	0.58156	0.57168	0.04602	-0.363
Mof_O 	O 	0.60522	0.69272	0.97362	-0.38
Mof_O 	O 	0.40764	0.51885	0.1895	-0.429
Mof_N 	N 	0.65831	0.64671	0.73997	-0.238
Mof_C 	C 	0.53731	0.69039	0.15807	-0.05
Mof_C 	C 	0.5373	0.77696	0.159	-0.012
Mof_H 	H 	0.5626	0.8059	0.0979	0.037
Mof_C 	C 	0.57736	0.64886	0.05584	0.291
Mof_C 	C 	0.6605	0.72946	0.7352	0.064
Mof_H 	H 	0.6378	0.7595	0.7968	0.007
Mof_C 	C 	0.695	0.7719	0.6428	-0.118
Mof_H 	H 	0.695	0.8295	0.6425	0.073
Mof_C 	C 	0.72997	0.72836	0.54996	0.056
Mof_C 	C 	0.7248	0.64253	0.5546	-0.113
Mof_H 	H 	0.7453	0.611	0.4933	0.07
Mof_C 	C 	0.6894	0.6039	0.6497	0.046
Mof_H 	H 	0.687	0.5464	0.6514	0.013
Mof_Cu	Cu	0.12743	0.08984	0.88373	0.889
Mof_O 	O 	0.08156	0.07168	0.04602	-0.37
Mof_O 	O 	0.10522	0.19272	0.97362	-0.39
Mof_O 	O 	0.90764	0.01885	0.1895	-0.404
Mof_N 	N 	0.15831	0.14671	0.73997	-0.241
Mof_C 	C 	0.03731	0.19039	0.15807	-0.063
Mof_C 	C 	0.0373	0.27696	0.159	0.01
Mof_H 	H 	0.0626	0.3059	0.0979	0.027
Mof_C 	C 	0.07736	0.14886	0.05584	0.297
Mof_C 	C 	0.1605	0.22946	0.7352	0.06
Mof_H 	H 	0.1378	0.2595	0.7968	0.004
Mof_C 	C 	0.195	0.2719	0.6428	-0.12
Mof_H 	H 	0.195	0.3295	0.6425	0.07
Mof_C 	C 	0.22997	0.22836	0.54996	0.05
Mof_C 	C 	0.2248	0.14253	0.5546	-0.115
Mof_H 	H 	0.2453	0.111	0.4933	0.067
Mof_C 	C 	0.1894	0.1039	0.6497	0.04
Mof_H 	H 	0.187	0.0464	0.6514	0.011
Mof_Cu	Cu	0.62743	0.41016	0.38373	0.894
Mof_O 	O 	0.58156	0.42832	0.54602	-0.364
Mof_O 	O 	0.60522	0.30728	0.47362	-0.38
Mof_O 	O 	0.40764	0.48115	0.6895	-0.43
Mof_N 	N 	0.65831	0.35329	0.23997	-0.238
Mof_C 	C 	0.53731	0.30961	0.65807	-0.049
Mof_C 	C 	0.5373	0.22304	0.659	-0.012
Mof_H 	H 	0.5626	0.1941	0.5979	0.037
Mof_C 	C 	0.57736	0.35114	0.55584	0.291
Mof_C 	C 	0.6605	0.27054	0.2352	0.064
Mof_H 	H 	0.6378	0.2405	0.2968	0.007
Mof_C 	C 	0.695	0.2281	0.1428	-0.117
Mof_H 	H 	0.695	0.1705	0.1425	0.073
Mof_C 	C 	0.72997	0.27164	0.04996	0.056
Mof_C 	C 	0.7248	0.35747	0.0546	-0.107
Mof_H 	H 	0.7453	0.389	0.9933	0.066
Mof_C 	C 	0.6894	0.3961	0.1497	0.044
Mof_H 	H 	0.687	0.4536	0.1514	0.014
Mof_Cu	Cu	0.12743	0.91016	0.38373	0.89
Mof_O 	O 	0.08156	0.92832	0.54602	-0.371
Mof_O 	O 	0.10522	0.80728	0.47362	-0.386
Mof_O 	O 	0.90764	0.98115	0.6895	-0.406
Mof_N 	N 	0.15831	0.85329	0.23997	-0.241
Mof_C 	C 	0.03731	0.80961	0.65807	-0.062
Mof_C 	C 	0.0373	0.72304	0.659	0.009
Mof_H 	H 	0.0626	0.6941	0.5979	0.026
Mof_C 	C 	0.07736	0.85114	0.55584	0.292
Mof_C 	C 	0.1605	0.77054	0.2352	0.06
Mof_H 	H 	0.1378	0.7405	0.2968	0.004
Mof_C 	C 	0.195	0.7281	0.1428	-0.121
Mof_H 	H 	0.195	0.6705	0.1425	0.07
Mof_C 	C 	0.22997	0.77164	0.04996	0.051
Mof_C 	C 	0.2248	0.85747	0.0546	-0.12
Mof_H 	H 	0.2453	0.889	0.9933	0.07
Mof_C 	C 	0.1894	0.8961	0.1497	0.042
Mof_H 	H 	0.187	0.9536	0.1514	0.01
Mof_Cu	Cu	0.37257	0.41016	0.11627	0.893
Mof_O 	O 	0.41844	0.42832	0.95398	-0.365
Mof_O 	O 	0.39478	0.30728	0.02638	-0.378
Mof_O 	O 	0.59236	0.48115	0.8105	-0.428
Mof_N 	N 	0.34169	0.35329	0.26003	-0.239
Mof_C 	C 	0.46269	0.30961	0.84193	-0.049
Mof_C 	C 	0.4627	0.22304	0.841	-0.013
Mof_H 	H 	0.4374	0.1941	0.9021	0.037
Mof_C 	C 	0.42264	0.35114	0.94416	0.287
Mof_C 	C 	0.3395	0.27054	0.2648	0.063
Mof_H 	H 	0.3622	0.2405	0.2032	0.007
Mof_C 	C 	0.305	0.2281	0.3572	-0.119
Mof_H 	H 	0.305	0.1705	0.3575	0.072
Mof_C 	C 	0.27003	0.27164	0.45004	0.052
Mof_C 	C 	0.2752	0.35747	0.4454	-0.114
Mof_H 	H 	0.2547	0.389	0.5067	0.066
Mof_C 	C 	0.3106	0.3961	0.3503	0.043
Mof_H 	H 	0.313	0.4536	0.3486	0.011
Mof_Cu	Cu	0.87257	0.91016	0.11627	0.894
Mof_O 	O 	0.91844	0.92832	0.95398	-0.355
Mof_O 	O 	0.89478	0.80728	0.02638	-0.378
Mof_O 	O 	0.09236	0.98115	0.8105	-0.425
Mof_N 	N 	0.84169	0.85329	0.26003	-0.237
Mof_C 	C 	0.96269	0.80961	0.84193	-0.04
Mof_C 	C 	0.9627	0.72304	0.841	0.034
Mof_H 	H 	0.9374	0.6941	0.9021	0.028
Mof_C 	C 	0.92264	0.85114	0.94416	0.293
Mof_C 	C 	0.8395	0.77054	0.2648	0.067
Mof_H 	H 	0.8622	0.7405	0.2032	0.01
Mof_C 	C 	0.805	0.7281	0.3572	-0.117
Mof_H 	H 	0.805	0.6705	0.3575	0.075
Mof_C 	C 	0.77003	0.77164	0.45004	0.056
Mof_C 	C 	0.7752	0.85747	0.4454	-0.112
Mof_H 	H 	0.7547	0.889	0.5067	0.069
Mof_C 	C 	0.8106	0.8961	0.3503	0.047
Mof_H 	H 	0.813	0.9536	0.3486	0.012
Mof_C 	C 	0.5	0.55214	0.25	0.394
Mof_C 	C 	0.5	0.64611	0.25	-0.041
Mof_C 	C 	0.5	0.8198	0.25	-0.057
Mof_H 	H 	0.5	0.8774	0.25	0.039
Mof_C 	C 	-1.39432e-17	0.05214	0.25	0.365
Mof_C 	C 	-6.9716e-18	0.14611	0.25	-0.053
Mof_C 	C 	-6.9716e-18	0.3198	0.25	-0.111
Mof_H 	H 	-1.39432e-17	0.3774	0.25	0.051
Mof_C 	C 	0.5	0.44786	0.75	0.394
Mof_C 	C 	0.5	0.35389	0.75	-0.042
Mof_C 	C 	0.5	0.1802	0.75	-0.057
Mof_H 	H 	0.5	0.1226	0.75	0.039
Mof_C 	C 	-2.78864e-17	0.94786	0.75	0.366
Mof_C 	C 	-2.78864e-17	0.85389	0.75	-0.053
Mof_C 	C 	-2.78864e-17	0.6802	0.75	-0.11
Mof_H 	H 	-2.78864e-17	0.6226	0.75	0.05
_end
