data_functionalizedCrystal
_audit_creation_method	'EQeq! by Chris Wilmer'
_symmetry_space_group_name_H-M	'P1'
_symmetry_Int_Tables_number	1
_symmetry_cell_setting	triclinic
loop_
_symmetry_equiv_pos_as_xyz
  x,y,z
_cell_length_a	14.83
_cell_length_b	18.7615
_cell_length_c	33.92
_cell_angle_alpha	105.077
_cell_angle_beta	90
_cell_angle_gamma	113.28
loop_
_atom_site_label
_atom_site_type_symbol
_atom_site_fract_x
_atom_site_fract_y
_atom_site_fract_z
_atom_site_charge
Mof_Zn	Zn	0.03358	0.23104	0.56369	1.166
Mof_Zn	Zn	0.97168	0.65802	0.73262	1.164
Mof_Zn	Zn	0.26162	0.75328	0.92498	1.164
Mof_Zn	Zn	0.19746	0.23104	0.06369	1.165
Mof_Zn	Zn	0.68634	0.65802	0.23262	1.164
Mof_Zn	Zn	0.49166	0.75328	0.42498	1.164
Mof_H 	H 	0.2496	0.3012	0.5857	-0.028
Mof_H 	H 	0.3735	0.4074	0.6319	0.093
Mof_H 	H 	0.1696	0.4698	0.6885	0.098
Mof_H 	H 	0.0508	0.3634	0.6407	-0.008
Mof_H 	H 	0.8371	0.7186	0.7797	-0.016
Mof_H 	H 	0.672	0.697	0.777	0.084
Mof_H 	H 	0.6169	0.532	0.6681	0.085
Mof_H 	H 	0.7884	0.5606	0.6726	-0.019
Mof_H 	H 	0.1732	0.66	0.8387	-0.016
Mof_H 	H 	0.2176	0.591	0.7779	0.081
Mof_H 	H 	0.5024	0.7248	0.8239	0.092
Mof_H 	H 	0.4508	0.7756	0.8841	0.002
Mof_H 	H 	0.3548	0.6756	0.97	-0.023
Mof_H 	H 	0.4877	0.7082	0.0154	0.085
Mof_H 	H 	0.5925	0.9412	0.0069	0.086
Mof_H 	H 	0.4418	0.8902	0.9586	-0.02
Mof_H 	H 	0.1143	0.1188	0.1122	-0.018
Mof_H 	H 	0.9682	0.0162	0.1199	0.086
Mof_H 	H 	0.8591	0.0072	0.0089	0.083
Mof_H 	H 	0.9998	0.119	0.0095	-0.014
Mof_H 	H 	0.5967	0.6212	0.1439	-0.01
Mof_H 	H 	0.613	0.6782	0.092	0.088
Mof_H 	H 	0.8267	0.8796	0.1655	0.096
Mof_H 	H 	0.7939	0.8238	0.2165	-0.023
Mof_H 	H 	0.0516	0.3012	0.0857	-0.029
Mof_H 	H 	0.0339	0.4074	0.1319	0.093
Mof_H 	H 	0.3002	0.4698	0.1885	0.098
Mof_H 	H 	0.3126	0.3634	0.1407	-0.008
Mof_H 	H 	0.8815	0.7186	0.2797	-0.015
Mof_H 	H 	0.025	0.697	0.277	0.084
Mof_H 	H 	0.9151	0.532	0.1681	0.085
Mof_H 	H 	0.7722	0.5606	0.1726	-0.018
Mof_H 	H 	0.4868	0.66	0.3387	-0.016
Mof_H 	H 	0.3734	0.591	0.2779	0.081
Mof_H 	H 	0.2224	0.7248	0.3239	0.092
Mof_H 	H 	0.3248	0.7756	0.3841	0.002
Mof_H 	H 	0.3208	0.6756	0.47	-0.023
Mof_H 	H 	0.2205	0.7082	0.5154	0.085
Mof_H 	H 	0.3487	0.9412	0.5069	0.086
Mof_H 	H 	0.4484	0.8902	0.4586	-0.02
Mof_H 	H 	0.0045	0.1188	0.6122	-0.019
Mof_H 	H 	0.048	0.0162	0.6199	0.086
Mof_H 	H 	0.1481	0.0072	0.5089	0.081
Mof_H 	H 	0.1192	0.119	0.5095	-0.014
Mof_H 	H 	0.0245	0.6212	0.6439	-0.009
Mof_H 	H 	0.0652	0.6782	0.592	0.089
Mof_H 	H 	0.0529	0.8796	0.6655	0.097
Mof_H 	H 	0.0299	0.8238	0.7165	-0.022
Mof_C 	C 	0.2321	0.3364	0.6068	0.106
Mof_C 	C 	0.3068	0.3996	0.6347	-0.147
Mof_C 	C 	0.2858	0.4514	0.6663	0.072
Mof_C 	C 	0.189	0.436	0.6674	-0.141
Mof_C 	C 	0.1182	0.3726	0.6387	0.078
Mof_C 	C 	0.3581	0.5134	0.6974	0.072
Mof_C 	C 	0.7915	0.678	0.7574	0.069
Mof_C 	C 	0.693	0.6654	0.7555	-0.121
Mof_C 	C 	0.6249	0.6088	0.7236	0.065
Mof_C 	C 	0.6599	0.5694	0.6919	-0.125
Mof_C 	C 	0.7629	0.5858	0.6951	0.078
Mof_C 	C 	0.5177	0.5912	0.7237	0.104
Mof_C 	C 	0.2406	0.6694	0.8367	0.069
Mof_C 	C 	0.2674	0.6314	0.799	-0.119
Mof_C 	C 	0.3655	0.6536	0.7936	0.053
Mof_C 	C 	0.4338	0.708	0.8263	-0.119
Mof_C 	C 	0.402	0.7376	0.8621	0.072
Mof_C 	C 	0.3992	0.6136	0.7573	0.111
Mof_C 	C 	0.4029	0.7298	0.9781	0.1
Mof_C 	C 	0.4821	0.748	0.0042	-0.138
Mof_C 	C 	0.5571	0.8282	0.0146	0.056
Mof_C 	C 	0.5459	0.8864	0.9997	-0.116
Mof_C 	C 	0.4533	0.8546	0.9714	0.075
Mof_C 	C 	0.6469	0.8508	0.0422	0.101
Mof_C 	C 	0.059	0.0986	0.0921	0.077
Mof_C 	C 	0.9738	0.0354	0.0963	-0.118
Mof_C 	C 	0.8971	0.0016	0.0646	0.071
Mof_C 	C 	0.9088	0.0314	0.0317	-0.132
Mof_C 	C 	0.9938	0.0972	0.0321	0.087
Mof_C 	C 	0.8054	0.933	0.0659	0.1
Mof_C 	C 	0.6446	0.675	0.1482	0.076
Mof_C 	C 	0.651	0.708	0.118	-0.134
Mof_C 	C 	0.7188	0.792	0.1264	0.084
Mof_C 	C 	0.7749	0.8274	0.1611	-0.164
Mof_C 	C 	0.7608	0.7916	0.1899	0.1
Mof_C 	C 	0.7187	0.834	0.0951	0.098
Mof_C 	C 	0.1043	0.3364	0.1068	0.106
Mof_C 	C 	0.0928	0.3996	0.1347	-0.147
Mof_C 	C 	0.1656	0.4514	0.1663	0.072
Mof_C 	C 	0.247	0.436	0.1674	-0.141
Mof_C 	C 	0.2544	0.3726	0.1387	0.078
Mof_C 	C 	0.1553	0.5134	0.1974	0.072
Mof_C 	C 	0.8865	0.678	0.2574	0.068
Mof_C 	C 	0.9724	0.6654	0.2555	-0.121
Mof_C 	C 	0.9839	0.6088	0.2236	0.066
Mof_C 	C 	0.9095	0.5694	0.1919	-0.125
Mof_C 	C 	0.8229	0.5858	0.1951	0.078
Mof_C 	C 	0.0735	0.5912	0.2237	0.103
Mof_C 	C 	0.4288	0.6694	0.3367	0.069
Mof_C 	C 	0.364	0.6314	0.299	-0.119
Mof_C 	C 	0.2881	0.6536	0.2936	0.053
Mof_C 	C 	0.2742	0.708	0.3263	-0.119
Mof_C 	C 	0.3356	0.7376	0.3621	0.072
Mof_C 	C 	0.2144	0.6136	0.2573	0.111
Mof_C 	C 	0.3269	0.7298	0.4781	0.1
Mof_C 	C 	0.2659	0.748	0.5042	-0.137
Mof_C 	C 	0.2711	0.8282	0.5146	0.056
Mof_C 	C 	0.3405	0.8864	0.4997	-0.115
Mof_C 	C 	0.4013	0.8546	0.4714	0.075
Mof_C 	C 	0.2039	0.8508	0.5422	0.101
Mof_C 	C 	0.0396	0.0986	0.5921	0.081
Mof_C 	C 	0.0616	0.0354	0.5963	-0.121
Mof_C 	C 	0.1045	0.0016	0.5646	0.067
Mof_C 	C 	0.1226	0.0314	0.5317	-0.13
Mof_C 	C 	0.1034	0.0972	0.5321	0.083
Mof_C 	C 	0.1276	0.933	0.5659	0.104
Mof_C 	C 	0.0304	0.675	0.6482	0.076
Mof_C 	C 	0.057	0.708	0.618	-0.134
Mof_C 	C 	0.0732	0.792	0.6264	0.085
Mof_C 	C 	0.0525	0.8274	0.6611	-0.164
Mof_C 	C 	0.0308	0.7916	0.6899	0.1
Mof_C 	C 	0.1153	0.834	0.5951	0.098
Mof_I 	I 	0.07195	0.26904	0.49721	-0.365
Mof_I 	I 	0.8697	0.20252	0.59286	-0.384
Mof_I 	I 	0.00291	0.53132	0.71	-0.383
Mof_I 	I 	0.04934	0.75762	0.80261	-0.383
Mof_I 	I 	0.12313	0.628	0.93812	-0.364
Mof_I 	I 	0.24033	0.87566	0.92441	-0.386
Mof_I 	I 	0.19709	0.26904	0.99721	-0.364
Mof_I 	I 	0.33282	0.20252	0.09286	-0.386
Mof_I 	I 	0.52841	0.53132	0.21	-0.385
Mof_I 	I 	0.70828	0.75762	0.30261	-0.385
Mof_I 	I 	0.50487	0.628	0.43812	-0.365
Mof_I 	I 	0.63533	0.87566	0.42441	-0.387
Mof_N 	N 	0.1399	0.3226	0.6077	-0.286
Mof_N 	N 	0.8228	0.6342	0.7283	-0.276
Mof_N 	N 	0.3063	0.7166	0.8685	-0.273
Mof_N 	N 	0.4583	0.531	0.6924	-0.132
Mof_N 	N 	0.4933	0.6368	0.7555	-0.138
Mof_N 	N 	0.3297	0.5552	0.7294	-0.141
Mof_N 	N 	0.3887	0.7818	0.9634	-0.281
Mof_N 	N 	0.0681	0.1322	0.0621	-0.281
Mof_N 	N 	0.702	0.7124	0.1856	-0.279
Mof_N 	N 	0.7286	0.9128	0.039	-0.139
Mof_N 	N 	0.8067	0.8982	0.0959	-0.13
Mof_N 	N 	0.6398	0.8094	0.0689	-0.135
Mof_N 	N 	0.1827	0.3226	0.1077	-0.286
Mof_N 	N 	0.8114	0.6342	0.2283	-0.276
Mof_N 	N 	0.4103	0.7166	0.3685	-0.273
Mof_N 	N 	0.0727	0.531	0.1924	-0.132
Mof_N 	N 	0.1435	0.6368	0.2555	-0.138
Mof_N 	N 	0.2255	0.5552	0.2294	-0.141
Mof_N 	N 	0.3931	0.7818	0.4634	-0.281
Mof_N 	N 	0.0641	0.1322	0.5621	-0.28
Mof_N 	N 	0.0104	0.7124	0.6856	-0.278
Mof_N 	N 	0.1842	0.9128	0.539	-0.139
Mof_N 	N 	0.0915	0.8982	0.5959	-0.13
Mof_N 	N 	0.1696	0.8094	0.5689	-0.135
Mof_Zn	Zn	0.80254	0.76896	0.93631	1.165
Mof_Zn	Zn	0.31366	0.34198	0.76738	1.164
Mof_Zn	Zn	0.50834	0.24672	0.57502	1.164
Mof_Zn	Zn	0.96642	0.76896	0.43631	1.165
Mof_Zn	Zn	0.02832	0.34198	0.26738	1.163
Mof_Zn	Zn	0.73838	0.24672	0.07502	1.164
Mof_H 	H 	0.9484	0.6988	0.9143	-0.029
Mof_H 	H 	0.9661	0.5926	0.8681	0.093
Mof_H 	H 	0.6998	0.5302	0.8115	0.098
Mof_H 	H 	0.6874	0.6366	0.8593	-0.008
Mof_H 	H 	0.1185	0.2814	0.7203	-0.015
Mof_H 	H 	0.975	0.303	0.723	0.084
Mof_H 	H 	0.0849	0.468	0.8319	0.085
Mof_H 	H 	0.2278	0.4394	0.8274	-0.018
Mof_H 	H 	0.5132	0.34	0.6613	-0.016
Mof_H 	H 	0.6266	0.409	0.7221	0.081
Mof_H 	H 	0.7776	0.2752	0.6761	0.092
Mof_H 	H 	0.6752	0.2244	0.6159	0.002
Mof_H 	H 	0.6792	0.3244	0.53	-0.023
Mof_H 	H 	0.7795	0.2918	0.4846	0.085
Mof_H 	H 	0.6513	0.0588	0.4931	0.086
Mof_H 	H 	0.5516	0.1098	0.5414	-0.02
Mof_H 	H 	0.9955	0.8812	0.3878	-0.019
Mof_H 	H 	0.952	0.9838	0.3801	0.086
Mof_H 	H 	0.8519	0.9928	0.4911	0.081
Mof_H 	H 	0.8808	0.881	0.4905	-0.014
Mof_H 	H 	0.9755	0.3788	0.3561	-0.009
Mof_H 	H 	0.9348	0.3218	0.408	0.089
Mof_H 	H 	0.9471	0.1204	0.3345	0.097
Mof_H 	H 	0.9701	0.1762	0.2835	-0.022
Mof_H 	H 	0.7504	0.6988	0.4143	-0.028
Mof_H 	H 	0.6265	0.5926	0.3681	0.093
Mof_H 	H 	0.8304	0.5302	0.3115	0.098
Mof_H 	H 	0.9492	0.6366	0.3593	-0.008
Mof_H 	H 	0.1629	0.2814	0.2203	-0.016
Mof_H 	H 	0.328	0.303	0.223	0.084
Mof_H 	H 	0.3831	0.468	0.3319	0.085
Mof_H 	H 	0.2116	0.4394	0.3274	-0.019
Mof_H 	H 	0.8268	0.34	0.1613	-0.016
Mof_H 	H 	0.7824	0.409	0.2221	0.081
Mof_H 	H 	0.4976	0.2752	0.1761	0.092
Mof_H 	H 	0.5492	0.2244	0.1159	0.002
Mof_H 	H 	0.6452	0.3244	0.03	-0.023
Mof_H 	H 	0.5123	0.2918	0.9846	0.085
Mof_H 	H 	0.4075	0.0588	0.9931	0.086
Mof_H 	H 	0.5582	0.1098	0.0414	-0.02
Mof_H 	H 	0.8857	0.8812	0.8878	-0.018
Mof_H 	H 	0.0318	0.9838	0.8801	0.086
Mof_H 	H 	0.1409	0.9928	0.9911	0.083
Mof_H 	H 	0.0002	0.881	0.9905	-0.014
Mof_H 	H 	0.4033	0.3788	0.8561	-0.01
Mof_H 	H 	0.387	0.3218	0.908	0.088
Mof_H 	H 	0.1733	0.1204	0.8345	0.096
Mof_H 	H 	0.2061	0.1762	0.7835	-0.023
Mof_C 	C 	0.8957	0.6636	0.8932	0.106
Mof_C 	C 	0.9072	0.6004	0.8653	-0.147
Mof_C 	C 	0.8344	0.5486	0.8337	0.072
Mof_C 	C 	0.753	0.564	0.8326	-0.141
Mof_C 	C 	0.7456	0.6274	0.8613	0.078
Mof_C 	C 	0.8447	0.4866	0.8026	0.072
Mof_C 	C 	0.1135	0.322	0.7426	0.068
Mof_C 	C 	0.0276	0.3346	0.7445	-0.121
Mof_C 	C 	0.0161	0.3912	0.7764	0.066
Mof_C 	C 	0.0905	0.4306	0.8081	-0.125
Mof_C 	C 	0.1771	0.4142	0.8049	0.078
Mof_C 	C 	0.9265	0.4088	0.7763	0.103
Mof_C 	C 	0.5712	0.3306	0.6633	0.069
Mof_C 	C 	0.636	0.3686	0.701	-0.119
Mof_C 	C 	0.7119	0.3464	0.7064	0.053
Mof_C 	C 	0.7258	0.292	0.6737	-0.119
Mof_C 	C 	0.6644	0.2624	0.6379	0.072
Mof_C 	C 	0.7856	0.3864	0.7427	0.111
Mof_C 	C 	0.6731	0.2702	0.5219	0.1
Mof_C 	C 	0.7341	0.252	0.4958	-0.137
Mof_C 	C 	0.7289	0.1718	0.4854	0.056
Mof_C 	C 	0.6595	0.1136	0.5003	-0.115
Mof_C 	C 	0.5987	0.1454	0.5286	0.075
Mof_C 	C 	0.7961	0.1492	0.4578	0.101
Mof_C 	C 	0.9604	0.9014	0.4079	0.081
Mof_C 	C 	0.9384	0.9646	0.4037	-0.121
Mof_C 	C 	0.8955	0.9984	0.4354	0.067
Mof_C 	C 	0.8774	0.9686	0.4683	-0.13
Mof_C 	C 	0.8966	0.9028	0.4679	0.083
Mof_C 	C 	0.8724	0.067	0.4341	0.104
Mof_C 	C 	0.9696	0.325	0.3518	0.076
Mof_C 	C 	0.943	0.292	0.382	-0.134
Mof_C 	C 	0.9268	0.208	0.3736	0.085
Mof_C 	C 	0.9475	0.1726	0.3389	-0.164
Mof_C 	C 	0.9692	0.2084	0.3101	0.1
Mof_C 	C 	0.8847	0.166	0.4049	0.098
Mof_C 	C 	0.7679	0.6636	0.3932	0.106
Mof_C 	C 	0.6932	0.6004	0.3653	-0.147
Mof_C 	C 	0.7142	0.5486	0.3337	0.072
Mof_C 	C 	0.811	0.564	0.3326	-0.141
Mof_C 	C 	0.8818	0.6274	0.3613	0.078
Mof_C 	C 	0.6419	0.4866	0.3026	0.072
Mof_C 	C 	0.2085	0.322	0.2426	0.069
Mof_C 	C 	0.307	0.3346	0.2445	-0.121
Mof_C 	C 	0.3751	0.3912	0.2764	0.065
Mof_C 	C 	0.3401	0.4306	0.3081	-0.125
Mof_C 	C 	0.2371	0.4142	0.3049	0.078
Mof_C 	C 	0.4823	0.4088	0.2763	0.104
Mof_C 	C 	0.7594	0.3306	0.1633	0.069
Mof_C 	C 	0.7326	0.3686	0.201	-0.119
Mof_C 	C 	0.6345	0.3464	0.2064	0.053
Mof_C 	C 	0.5662	0.292	0.1737	-0.119
Mof_C 	C 	0.598	0.2624	0.1379	0.072
Mof_C 	C 	0.6008	0.3864	0.2427	0.111
Mof_C 	C 	0.5971	0.2702	0.0219	0.1
Mof_C 	C 	0.5179	0.252	0.9958	-0.138
Mof_C 	C 	0.4429	0.1718	0.9854	0.056
Mof_C 	C 	0.4541	0.1136	0.0003	-0.116
Mof_C 	C 	0.5467	0.1454	0.0286	0.075
Mof_C 	C 	0.3531	0.1492	0.9578	0.101
Mof_C 	C 	0.941	0.9014	0.9079	0.077
Mof_C 	C 	0.0262	0.9646	0.9037	-0.118
Mof_C 	C 	0.1029	0.9984	0.9354	0.071
Mof_C 	C 	0.0912	0.9686	0.9683	-0.132
Mof_C 	C 	0.0062	0.9028	0.9679	0.087
Mof_C 	C 	0.1946	0.067	0.9341	0.1
Mof_C 	C 	0.3554	0.325	0.8518	0.076
Mof_C 	C 	0.349	0.292	0.882	-0.134
Mof_C 	C 	0.2812	0.208	0.8736	0.084
Mof_C 	C 	0.2251	0.1726	0.8389	-0.164
Mof_C 	C 	0.2392	0.2084	0.8101	0.1
Mof_C 	C 	0.2813	0.166	0.9049	0.098
Mof_I 	I 	0.80291	0.73096	0.00279	-0.364
Mof_I 	I 	0.66718	0.79748	0.90714	-0.386
Mof_I 	I 	0.47159	0.46868	0.79	-0.385
Mof_I 	I 	0.29172	0.24238	0.69739	-0.385
Mof_I 	I 	0.49513	0.372	0.56188	-0.365
Mof_I 	I 	0.36467	0.12434	0.57559	-0.387
Mof_I 	I 	0.92805	0.73096	0.50279	-0.365
Mof_I 	I 	0.1303	0.79748	0.40714	-0.384
Mof_I 	I 	0.99709	0.46868	0.29	-0.383
Mof_I 	I 	0.95066	0.24238	0.19739	-0.383
Mof_I 	I 	0.87687	0.372	0.06188	-0.364
Mof_I 	I 	0.75967	0.12434	0.07559	-0.386
Mof_N 	N 	0.8173	0.6774	0.8923	-0.286
Mof_N 	N 	0.1886	0.3658	0.7717	-0.276
Mof_N 	N 	0.5897	0.2834	0.6315	-0.273
Mof_N 	N 	0.9273	0.469	0.8076	-0.132
Mof_N 	N 	0.8565	0.3632	0.7445	-0.138
Mof_N 	N 	0.7745	0.4448	0.7706	-0.141
Mof_N 	N 	0.6069	0.2182	0.5366	-0.281
Mof_N 	N 	0.9359	0.8678	0.4379	-0.28
Mof_N 	N 	0.9896	0.2876	0.3144	-0.278
Mof_N 	N 	0.8158	0.0872	0.461	-0.139
Mof_N 	N 	0.9085	0.1018	0.4041	-0.13
Mof_N 	N 	0.8304	0.1906	0.4311	-0.135
Mof_N 	N 	0.8601	0.6774	0.3923	-0.286
Mof_N 	N 	0.1772	0.3658	0.2717	-0.276
Mof_N 	N 	0.6937	0.2834	0.1315	-0.273
Mof_N 	N 	0.5417	0.469	0.3076	-0.132
Mof_N 	N 	0.5067	0.3632	0.2445	-0.138
Mof_N 	N 	0.6703	0.4448	0.2706	-0.141
Mof_N 	N 	0.6113	0.2182	0.0366	-0.281
Mof_N 	N 	0.9319	0.8678	0.9379	-0.281
Mof_N 	N 	0.298	0.2876	0.8144	-0.279
Mof_N 	N 	0.2714	0.0872	0.961	-0.139
Mof_N 	N 	0.1933	0.1018	0.9041	-0.13
Mof_N 	N 	0.3602	0.1906	0.9311	-0.135
_end
