data_functionalizedCrystal
_audit_creation_method	'EQeq! by Chris Wilmer'
_symmetry_space_group_name_H-M	'P1'
_symmetry_Int_Tables_number	1
_symmetry_cell_setting	triclinic
loop_
_symmetry_equiv_pos_as_xyz
  x,y,z
_cell_length_a	13.4333
_cell_length_b	13.8493
_cell_length_c	26.7477
_cell_angle_alpha	90
_cell_angle_beta	101.55
_cell_angle_gamma	90
loop_
_atom_site_label
_atom_site_type_symbol
_atom_site_fract_x
_atom_site_fract_y
_atom_site_fract_z
_atom_site_charge
Mof_Fe	Fe	0.47925	0.36603	0.22908	0.58
Mof_Fe	Fe	0.48841	0.61244	0.25751	0.579
Mof_N 	N 	0.4704	0.7971	0.6968	-0.163
Mof_N 	N 	0.4975	0.7017	0.70269	-0.165
Mof_N 	N 	0.5013	0.6797	0.32583	-0.164
Mof_N 	N 	0.6145	0.5365	0.25217	-0.165
Mof_N 	N 	0.6049	0.4465	0.23087	-0.164
Mof_N 	N 	0.5197	0.7767	0.33012	-0.166
Mof_N 	N 	0.3512	0.4426	0.22759	-0.166
Mof_N 	N 	0.3611	0.5332	0.24901	-0.167
Mof_C 	C 	0.2679	0.562	0.25456	0.031
Mof_H 	H 	0.2535	0.6219	0.2689	0.008
Mof_C 	C 	0.1958	0.4913	0.23616	-0.045
Mof_C 	C 	0.2531	0.4171	0.21996	0.033
Mof_H 	H 	0.2262	0.3575	0.2057	0.006
Mof_C 	C 	0.0853	0.4928	0.23573	0.034
Mof_C 	C 	0.0434	0.5675	0.25957	-0.06
Mof_H 	H 	0.0857	0.6185	0.2753	0.048
Mof_C 	C 	0.9402	0.5683	0.26064	-0.058
Mof_H 	H 	0.9127	0.6198	0.277	0.047
Mof_C 	C 	0.8767	0.4936	0.23765	0.032
Mof_C 	C 	0.9192	0.4193	0.21394	-0.059
Mof_H 	H 	0.8774	0.368	0.1983	0.047
Mof_C 	C 	0.0226	0.4192	0.21284	-0.06
Mof_H 	H 	0.0503	0.3681	0.1962	0.047
Mof_C 	C 	0.6974	0.4202	0.22255	0.031
Mof_H 	H 	0.7124	0.3609	0.2078	0.009
Mof_C 	C 	0.7666	0.4932	0.23893	-0.045
Mof_C 	C 	0.711	0.5646	0.25706	0.036
Mof_H 	H 	0.7375	0.6246	0.2709	0.004
Mof_C 	C 	0.4875	0.6466	0.37133	0.03
Mof_H 	H 	0.4745	0.5812	0.3786	0.008
Mof_C 	C 	0.4951	0.7216	0.40601	-0.044
Mof_C 	C 	0.5163	0.8023	0.37836	0.029
Mof_H 	H 	0.5266	0.8659	0.3917	0.007
Mof_C 	C 	0.4854	0.722	0.45981	0.032
Mof_C 	C 	0.5108	0.6425	0.49144	-0.06
Mof_H 	H 	0.5321	0.5845	0.4778	0.048
Mof_C 	C 	0.5056	0.6464	0.5429	-0.059
Mof_H 	H 	0.524	0.5913	0.5639	0.047
Mof_C 	C 	0.4736	0.7305	0.56401	0.034
Mof_C 	C 	0.4437	0.8089	0.53168	-0.06
Mof_H 	H 	0.4187	0.8658	0.5447	0.047
Mof_C 	C 	0.4501	0.8044	0.48103	-0.058
Mof_H 	H 	0.43	0.8589	0.4598	0.047
Mof_C 	C 	0.4551	0.8179	0.64696	0.036
Mof_H 	H 	0.434	0.8791	0.6326	0.006
Mof_C 	C 	0.4745	0.737	0.61891	-0.047
Mof_C 	C 	0.5007	0.6659	0.65635	0.035
Mof_H 	H 	0.5182	0.6013	0.6499	0.004
Mof_Fe	Fe	0.52075	0.86603	0.27092	0.579
Mof_Fe	Fe	0.51159	0.11244	0.24249	0.578
Mof_N 	N 	0.5296	0.2971	0.8032	-0.164
Mof_N 	N 	0.5025	0.2017	0.79731	-0.166
Mof_N 	N 	0.4987	0.1797	0.17417	-0.165
Mof_N 	N 	0.3855	0.0365	0.24783	-0.166
Mof_N 	N 	0.3951	0.9465	0.26913	-0.165
Mof_N 	N 	0.4803	0.2767	0.16988	-0.167
Mof_N 	N 	0.6488	0.9426	0.27241	-0.167
Mof_N 	N 	0.6389	0.0332	0.25099	-0.168
Mof_C 	C 	0.7321	0.062	0.24544	0.031
Mof_H 	H 	0.7465	0.1219	0.2311	0.008
Mof_C 	C 	0.8042	0.9913	0.26384	-0.045
Mof_C 	C 	0.7469	0.9171	0.28004	0.033
Mof_H 	H 	0.7738	0.8575	0.2943	0.006
Mof_C 	C 	0.9147	0.9928	0.26427	0.034
Mof_C 	C 	0.9566	0.0675	0.24043	-0.06
Mof_H 	H 	0.9143	0.1185	0.2247	0.048
Mof_C 	C 	0.0598	0.0683	0.23936	-0.058
Mof_H 	H 	0.0873	0.1198	0.223	0.047
Mof_C 	C 	0.1233	0.9936	0.26235	0.032
Mof_C 	C 	0.0808	0.9193	0.28606	-0.059
Mof_H 	H 	0.1226	0.868	0.3017	0.047
Mof_C 	C 	0.9774	0.9192	0.28716	-0.06
Mof_H 	H 	0.9497	0.8681	0.3038	0.047
Mof_C 	C 	0.3026	0.9202	0.27745	0.031
Mof_H 	H 	0.2876	0.8609	0.2922	0.009
Mof_C 	C 	0.2334	0.9932	0.26107	-0.045
Mof_C 	C 	0.289	0.0646	0.24294	0.036
Mof_H 	H 	0.2625	0.1246	0.2291	0.004
Mof_C 	C 	0.5125	0.1466	0.12867	0.03
Mof_H 	H 	0.5255	0.0812	0.1214	0.008
Mof_C 	C 	0.5049	0.2216	0.09399	-0.044
Mof_C 	C 	0.4837	0.3023	0.12164	0.029
Mof_H 	H 	0.4734	0.3659	0.1083	0.007
Mof_C 	C 	0.5146	0.222	0.04019	0.032
Mof_C 	C 	0.4892	0.1425	0.00856	-0.06
Mof_H 	H 	0.4679	0.0845	0.0222	0.048
Mof_C 	C 	0.4944	0.1464	0.9571	-0.059
Mof_H 	H 	0.476	0.0913	0.9361	0.047
Mof_C 	C 	0.5264	0.2305	0.93599	0.034
Mof_C 	C 	0.5563	0.3089	0.96832	-0.059
Mof_H 	H 	0.5813	0.3658	0.9553	0.047
Mof_C 	C 	0.5499	0.3044	0.01897	-0.058
Mof_H 	H 	0.57	0.3589	0.0402	0.047
Mof_C 	C 	0.5449	0.3179	0.85304	0.036
Mof_H 	H 	0.566	0.3791	0.8674	0.006
Mof_C 	C 	0.5255	0.237	0.88109	-0.047
Mof_C 	C 	0.4993	0.1659	0.84365	0.035
Mof_H 	H 	0.4818	0.1013	0.8501	0.004
Mof_Fe	Fe	0.52075	0.63397	0.77092	0.579
Mof_Fe	Fe	0.51159	0.38756	0.74249	0.578
Mof_N 	N 	0.5296	0.2029	0.3032	-0.164
Mof_N 	N 	0.5025	0.2983	0.29731	-0.166
Mof_N 	N 	0.4987	0.3203	0.67417	-0.165
Mof_N 	N 	0.3855	0.4635	0.74783	-0.166
Mof_N 	N 	0.3951	0.5535	0.76913	-0.165
Mof_N 	N 	0.4803	0.2233	0.66988	-0.167
Mof_N 	N 	0.6488	0.5574	0.77241	-0.167
Mof_N 	N 	0.6389	0.4668	0.75099	-0.168
Mof_C 	C 	0.7321	0.438	0.74544	0.031
Mof_H 	H 	0.7465	0.3781	0.7311	0.008
Mof_C 	C 	0.8042	0.5087	0.76384	-0.045
Mof_C 	C 	0.7469	0.5829	0.78004	0.033
Mof_H 	H 	0.7738	0.6425	0.7943	0.006
Mof_C 	C 	0.9147	0.5072	0.76427	0.034
Mof_C 	C 	0.9566	0.4325	0.74043	-0.06
Mof_H 	H 	0.9143	0.3815	0.7247	0.048
Mof_C 	C 	0.0598	0.4317	0.73936	-0.058
Mof_H 	H 	0.0873	0.3802	0.723	0.047
Mof_C 	C 	0.1233	0.5064	0.76235	0.032
Mof_C 	C 	0.0808	0.5807	0.78606	-0.059
Mof_H 	H 	0.1226	0.632	0.8017	0.047
Mof_C 	C 	0.9774	0.5808	0.78716	-0.06
Mof_H 	H 	0.9497	0.6319	0.8038	0.047
Mof_C 	C 	0.3026	0.5798	0.77745	0.031
Mof_H 	H 	0.2876	0.6391	0.7922	0.009
Mof_C 	C 	0.2334	0.5068	0.76107	-0.045
Mof_C 	C 	0.289	0.4354	0.74294	0.036
Mof_H 	H 	0.2625	0.3754	0.7291	0.004
Mof_C 	C 	0.5125	0.3534	0.62867	0.03
Mof_H 	H 	0.5255	0.4188	0.6214	0.008
Mof_C 	C 	0.5049	0.2784	0.59399	-0.044
Mof_C 	C 	0.4837	0.1977	0.62164	0.029
Mof_H 	H 	0.4734	0.1341	0.6083	0.007
Mof_C 	C 	0.5146	0.278	0.54019	0.032
Mof_C 	C 	0.4892	0.3575	0.50856	-0.06
Mof_H 	H 	0.4679	0.4155	0.5222	0.048
Mof_C 	C 	0.4944	0.3536	0.4571	-0.059
Mof_H 	H 	0.476	0.4087	0.4361	0.047
Mof_C 	C 	0.5264	0.2695	0.43599	0.034
Mof_C 	C 	0.5563	0.1911	0.46832	-0.06
Mof_H 	H 	0.5813	0.1342	0.4553	0.047
Mof_C 	C 	0.5499	0.1956	0.51897	-0.058
Mof_H 	H 	0.57	0.1411	0.5402	0.047
Mof_C 	C 	0.5449	0.1821	0.35304	0.036
Mof_H 	H 	0.566	0.1209	0.3674	0.006
Mof_C 	C 	0.5255	0.263	0.38109	-0.047
Mof_C 	C 	0.4993	0.3341	0.34365	0.035
Mof_H 	H 	0.4818	0.3987	0.3501	0.004
Mof_Fe	Fe	0.47925	0.13397	0.72908	0.579
Mof_Fe	Fe	0.48841	0.88756	0.75751	0.578
Mof_N 	N 	0.4704	0.7029	0.1968	-0.164
Mof_N 	N 	0.4975	0.7983	0.20269	-0.166
Mof_N 	N 	0.5013	0.8203	0.82583	-0.165
Mof_N 	N 	0.6145	0.9635	0.75217	-0.166
Mof_N 	N 	0.6049	0.0535	0.73087	-0.165
Mof_N 	N 	0.5197	0.7233	0.83012	-0.167
Mof_N 	N 	0.3512	0.0574	0.72759	-0.167
Mof_N 	N 	0.3611	0.9668	0.74901	-0.168
Mof_C 	C 	0.2679	0.938	0.75456	0.031
Mof_H 	H 	0.2535	0.8781	0.7689	0.008
Mof_C 	C 	0.1958	0.0087	0.73616	-0.045
Mof_C 	C 	0.2531	0.0829	0.71996	0.033
Mof_H 	H 	0.2262	0.1425	0.7057	0.006
Mof_C 	C 	0.0853	0.0072	0.73573	0.034
Mof_C 	C 	0.0434	0.9325	0.75957	-0.06
Mof_H 	H 	0.0857	0.8815	0.7753	0.048
Mof_C 	C 	0.9402	0.9317	0.76064	-0.058
Mof_H 	H 	0.9127	0.8802	0.777	0.047
Mof_C 	C 	0.8767	0.0064	0.73765	0.032
Mof_C 	C 	0.9192	0.0807	0.71394	-0.059
Mof_H 	H 	0.8774	0.132	0.6983	0.047
Mof_C 	C 	0.0226	0.0808	0.71284	-0.06
Mof_H 	H 	0.0503	0.1319	0.6962	0.047
Mof_C 	C 	0.6974	0.0798	0.72255	0.031
Mof_H 	H 	0.7124	0.1391	0.7078	0.009
Mof_C 	C 	0.7666	0.0068	0.73893	-0.045
Mof_C 	C 	0.711	0.9354	0.75706	0.036
Mof_H 	H 	0.7375	0.8754	0.7709	0.004
Mof_C 	C 	0.4875	0.8534	0.87133	0.03
Mof_H 	H 	0.4745	0.9188	0.8786	0.008
Mof_C 	C 	0.4951	0.7784	0.90601	-0.044
Mof_C 	C 	0.5163	0.6977	0.87836	0.029
Mof_H 	H 	0.5266	0.6341	0.8917	0.007
Mof_C 	C 	0.4854	0.778	0.95981	0.032
Mof_C 	C 	0.5108	0.8575	0.99144	-0.06
Mof_H 	H 	0.5321	0.9155	0.9778	0.048
Mof_C 	C 	0.5056	0.8536	0.0429	-0.059
Mof_H 	H 	0.524	0.9087	0.0639	0.047
Mof_C 	C 	0.4736	0.7695	0.06401	0.034
Mof_C 	C 	0.4437	0.6911	0.03168	-0.059
Mof_H 	H 	0.4187	0.6342	0.0447	0.047
Mof_C 	C 	0.4501	0.6956	0.98103	-0.058
Mof_H 	H 	0.43	0.6411	0.9598	0.047
Mof_C 	C 	0.4551	0.6821	0.14696	0.036
Mof_H 	H 	0.434	0.6209	0.1326	0.006
Mof_C 	C 	0.4745	0.763	0.11891	-0.047
Mof_C 	C 	0.5007	0.8341	0.15635	0.035
Mof_H 	H 	0.5182	0.8987	0.1499	0.004
_end
