data_functionalizedCrystal
_audit_creation_method	'EQeq! by Chris Wilmer'
_symmetry_space_group_name_H-M	'P1'
_symmetry_Int_Tables_number	1
_symmetry_cell_setting	triclinic
loop_
_symmetry_equiv_pos_as_xyz
  x,y,z
_cell_length_a	9.4093
_cell_length_b	9.876
_cell_length_c	18.307
_cell_angle_alpha	79.35
_cell_angle_beta	87.3
_cell_angle_gamma	68.2
loop_
_atom_site_label
_atom_site_type_symbol
_atom_site_fract_x
_atom_site_fract_y
_atom_site_fract_z
_atom_site_charge
Mof_Zn	Zn	0.80924	0.10031	0.85665	1.213
Mof_Zn	Zn	0.0943	0.09448	0.96855	1.209
Mof_Zn	Zn	0.19076	0.89969	0.14335	1.213
Mof_Zn	Zn	0.9057	0.90552	0.03145	1.209
Mof_H 	H 	0.9362	0.0676	0.7068	-0.03
Mof_H 	H 	0.0472	0.1886	0.6165	0.107
Mof_H 	H 	0.9317	0.5231	0.7252	0.125
Mof_H 	H 	0.8152	0.4026	0.8111	-0.02
Mof_H 	H 	0.0786	0.541	0.6158	0.085
Mof_H 	H 	0.1655	0.3062	0.5478	0.031
Mof_H 	H 	0.2969	0.3059	0.4397	0.052
Mof_H 	H 	0.4334	0.3914	0.3505	0.062
Mof_H 	H 	0.3604	0.7394	0.4449	0.052
Mof_H 	H 	0.2268	0.648	0.538	0.049
Mof_H 	H 	0.5363	0.5342	0.2926	0.037
Mof_H 	H 	0.4996	0.7905	0.3315	0.087
Mof_H 	H 	0.702	0.5526	0.1927	0.11
Mof_H 	H 	0.8415	0.6317	0.0991	-0.01
Mof_H 	H 	0.7493	0.0004	0.1719	-0.015
Mof_H 	H 	0.6098	0.9303	0.2667	0.114
Mof_H 	H 	0.4256	0.4602	0.939	0.048
Mof_H 	H 	0.1189	0.4601	0.0991	0.037
Mof_H 	H 	0.4783	0.0865	0.0858	0.036
Mof_H 	H 	0.015	0.9037	0.9191	0.343
Mof_H 	H 	0.0638	0.9324	0.2932	-0.03
Mof_H 	H 	0.9528	0.8114	0.3835	0.107
Mof_H 	H 	0.0683	0.4769	0.2748	0.125
Mof_H 	H 	0.1848	0.5974	0.1889	-0.02
Mof_H 	H 	0.9214	0.459	0.3842	0.085
Mof_H 	H 	0.8345	0.6938	0.4522	0.031
Mof_H 	H 	0.7031	0.6941	0.5603	0.052
Mof_H 	H 	0.5666	0.6086	0.6495	0.062
Mof_H 	H 	0.6396	0.2606	0.5551	0.052
Mof_H 	H 	0.7732	0.352	0.462	0.049
Mof_H 	H 	0.4637	0.4658	0.7074	0.037
Mof_H 	H 	0.5004	0.2095	0.6685	0.087
Mof_H 	H 	0.298	0.4474	0.8073	0.11
Mof_H 	H 	0.1585	0.3683	0.9009	-0.01
Mof_H 	H 	0.2507	0.9996	0.8281	-0.015
Mof_H 	H 	0.3902	0.0697	0.7333	0.114
Mof_H 	H 	0.5744	0.5398	0.061	0.048
Mof_H 	H 	0.8811	0.5399	0.9009	0.037
Mof_H 	H 	0.5217	0.9135	0.9142	0.036
Mof_H 	H 	0.985	0.0963	0.0809	0.343
Mof_C 	C 	0.9359	0.1599	0.7114	0.126
Mof_C 	C 	0.0039	0.2321	0.6572	-0.215
Mof_C 	C 	0.0076	0.3666	0.663	0.176
Mof_C 	C 	0.935	0.4297	0.7207	-0.214
Mof_C 	C 	0.8665	0.3563	0.7725	0.117
Mof_C 	C 	0.0862	0.4477	0.6087	-0.15
Mof_C 	C 	0.1619	0.3987	0.5541	-0.004
Mof_C 	C 	0.2461	0.4686	0.4984	0.02
Mof_C 	C 	0.3095	0.3943	0.4415	-0.049
Mof_C 	C 	0.3905	0.4463	0.3875	-0.063
Mof_C 	C 	0.4104	0.5749	0.3862	0.03
Mof_C 	C 	0.3481	0.6507	0.4436	-0.058
Mof_C 	C 	0.2669	0.596	0.4996	-0.053
Mof_C 	C 	0.5015	0.606	0.3225	-0.012
Mof_C 	C 	0.5376	0.7153	0.3037	-0.15
Mof_C 	C 	0.6356	0.7372	0.2409	0.162
Mof_C 	C 	0.7096	0.6448	0.1892	-0.193
Mof_C 	C 	0.7938	0.6932	0.133	0.113
Mof_C 	C 	0.7397	0.9089	0.1758	0.11
Mof_C 	C 	0.6546	0.8672	0.2331	-0.199
Mof_C 	C 	0.473	0.2598	0.00633	-0.114
Mof_C 	C 	0.3913	0.4104	0.97984	0.034
Mof_C 	C 	0.2581	0.4855	0.0151	-0.099
Mof_C 	C 	0.2085	0.4107	0.07602	0.052
Mof_C 	C 	0.2921	0.2617	0.10286	-0.135
Mof_C 	C 	0.4233	0.1864	0.06795	0.056
Mof_C 	C 	0.6134	0.1751	0.96859	0.385
Mof_C 	C 	0.1648	0.6473	0.98677	0.342
Mof_C 	C 	0.0641	0.8401	0.2886	0.126
Mof_C 	C 	0.9961	0.7679	0.3428	-0.215
Mof_C 	C 	0.9924	0.6334	0.337	0.176
Mof_C 	C 	0.065	0.5703	0.2793	-0.214
Mof_C 	C 	0.1335	0.6437	0.2275	0.117
Mof_C 	C 	0.9138	0.5523	0.3913	-0.15
Mof_C 	C 	0.8381	0.6013	0.4459	-0.004
Mof_C 	C 	0.7539	0.5314	0.5016	0.02
Mof_C 	C 	0.6905	0.6057	0.5585	-0.049
Mof_C 	C 	0.6095	0.5537	0.6125	-0.063
Mof_C 	C 	0.5896	0.4251	0.6138	0.03
Mof_C 	C 	0.6519	0.3493	0.5564	-0.058
Mof_C 	C 	0.7331	0.404	0.5004	-0.053
Mof_C 	C 	0.4985	0.394	0.6775	-0.012
Mof_C 	C 	0.4624	0.2847	0.6963	-0.15
Mof_C 	C 	0.3644	0.2628	0.7591	0.162
Mof_C 	C 	0.2904	0.3552	0.8108	-0.193
Mof_C 	C 	0.2062	0.3068	0.867	0.113
Mof_C 	C 	0.2603	0.0911	0.8242	0.11
Mof_C 	C 	0.3454	0.1328	0.7669	-0.199
Mof_C 	C 	0.527	0.7402	0.99367	-0.114
Mof_C 	C 	0.6087	0.5896	0.02016	0.034
Mof_C 	C 	0.7419	0.5145	0.9849	-0.099
Mof_C 	C 	0.7915	0.5893	0.92398	0.052
Mof_C 	C 	0.7079	0.7383	0.89714	-0.135
Mof_C 	C 	0.5767	0.8136	0.93205	0.056
Mof_C 	C 	0.3866	0.8249	0.03141	0.385
Mof_C 	C 	0.8352	0.3527	0.01323	0.342
Mof_S 	S 	0.24047	0.17554	0.1882	0.518
Mof_S 	S 	0.75953	0.82446	0.8118	0.518
Mof_N 	N 	0.8706	0.2185	0.76952	-0.294
Mof_N 	N 	0.8089	0.8238	0.12576	-0.265
Mof_N 	N 	0.1294	0.7815	0.23048	-0.294
Mof_N 	N 	0.1911	0.1762	0.87424	-0.265
Mof_O 	O 	0.6856	0.0421	0.99858	-0.496
Mof_O 	O 	0.6495	0.2384	0.90857	-0.478
Mof_O 	O 	0.047	0.7011	0.025	-0.473
Mof_O 	O 	0.2067	0.7158	0.93194	-0.314
Mof_O 	O 	0.2876	0.0168	0.18301	-0.457
Mof_O 	O 	0.3314	0.1927	0.24455	-0.262
Mof_O 	O 	0.0776	0.2462	0.19452	-0.293
Mof_O 	O 	0.9814	0.9875	0.92582	-0.923
Mof_O 	O 	0.3144	0.9579	0.00142	-0.496
Mof_O 	O 	0.3505	0.7616	0.09143	-0.478
Mof_O 	O 	0.953	0.2989	0.975	-0.473
Mof_O 	O 	0.7933	0.2842	0.06806	-0.314
Mof_O 	O 	0.7124	0.9832	0.81699	-0.457
Mof_O 	O 	0.6686	0.8073	0.75545	-0.262
Mof_O 	O 	0.9224	0.7538	0.80548	-0.293
Mof_O 	O 	0.0186	0.0125	0.07418	-0.923
_end
