data_functionalizedCrystal
_audit_creation_method	'EQeq! by Chris Wilmer'
_symmetry_space_group_name_H-M	'P1'
_symmetry_Int_Tables_number	1
_symmetry_cell_setting	triclinic
loop_
_symmetry_equiv_pos_as_xyz
  x,y,z
_cell_length_a	21.658
_cell_length_b	7.2622
_cell_length_c	14.7
_cell_angle_alpha	90
_cell_angle_beta	90
_cell_angle_gamma	90
loop_
_atom_site_label
_atom_site_type_symbol
_atom_site_fract_x
_atom_site_fract_y
_atom_site_fract_z
_atom_site_charge
Mof_N 	N 	0.065	0.1547	0.0616	-0.233
Mof_C 	C 	0.1114	0.1014	0.1099	0.021
Mof_H 	H 	0.1216	0.9792	0.1212	0.017
Mof_C 	C 	0.2469	0.353	0.1667	-0.026
Mof_C 	C 	0.1986	0.148	0.2753	-0.035
Mof_N 	N 	0.565	0.6547	0.5616	-0.219
Mof_C 	C 	0.6114	0.6014	0.6099	0.106
Mof_H 	H 	0.6216	0.4792	0.6212	-0.02
Mof_C 	C 	0.7469	0.853	0.6667	-0.001
Mof_C 	C 	0.6986	0.648	0.7753	-0.015
Mof_N 	N 	0.935	0.3453	0.0616	-0.212
Mof_C 	C 	0.8886	0.3986	0.1099	0.098
Mof_H 	H 	0.8784	0.5208	0.1212	-0.02
Mof_C 	C 	0.7531	0.147	0.1667	-0.036
Mof_C 	C 	0.8014	0.352	0.2753	-0.01
Mof_N 	N 	0.435	0.8453	0.5616	-0.223
Mof_C 	C 	0.3886	0.8986	0.6099	0.173
Mof_H 	H 	0.3784	0.0208	0.6212	-0.067
Mof_C 	C 	0.2531	0.647	0.6667	-0.017
Mof_C 	C 	0.3014	0.852	0.7753	-0.004
Mof_N 	N 	0.935	0.6547	0.9384	-0.179
Mof_C 	C 	0.8886	0.6014	0.8901	0.116
Mof_H 	H 	0.8784	0.4792	0.8788	-0.004
Mof_C 	C 	0.7531	0.853	0.8333	0.011
Mof_C 	C 	0.8014	0.648	0.7247	-0.013
Mof_N 	N 	0.435	0.1547	0.4384	-0.213
Mof_C 	C 	0.3886	0.1014	0.3901	0.032
Mof_H 	H 	0.3784	0.9792	0.3788	0.027
Mof_C 	C 	0.2531	0.353	0.3333	-0.013
Mof_C 	C 	0.3014	0.148	0.2247	-0.034
Mof_N 	N 	0.065	0.8453	0.9384	-0.208
Mof_C 	C 	0.1114	0.8986	0.8901	0.176
Mof_H 	H 	0.1216	0.0208	0.8788	-0.06
Mof_C 	C 	0.2469	0.647	0.8333	-0.001
Mof_C 	C 	0.1986	0.852	0.7247	-0.014
Mof_N 	N 	0.565	0.3453	0.4384	-0.221
Mof_C 	C 	0.6114	0.3986	0.3901	0.101
Mof_H 	H 	0.6216	0.5208	0.3788	-0.019
Mof_C 	C 	0.7469	0.147	0.3333	-0.021
Mof_C 	C 	0.6986	0.352	0.2247	-0.022
Mof_N 	N 	0.935	0.8453	0.9384	-0.183
Mof_C 	C 	0.8886	0.8986	0.8901	0.182
Mof_H 	H 	0.8784	0.0208	0.8788	-0.049
Mof_C 	C 	0.7531	0.647	0.8333	-0
Mof_C 	C 	0.8014	0.852	0.7247	-0.002
Mof_N 	N 	0.435	0.3453	0.4384	-0.221
Mof_C 	C 	0.3886	0.3986	0.3901	0.1
Mof_H 	H 	0.3784	0.5208	0.3788	-0.02
Mof_C 	C 	0.2531	0.147	0.3333	-0.025
Mof_C 	C 	0.3014	0.352	0.2247	-0.023
Mof_N 	N 	0.065	0.6547	0.9384	-0.204
Mof_C 	C 	0.1114	0.6014	0.8901	0.109
Mof_H 	H 	0.1216	0.4792	0.8788	-0.014
Mof_C 	C 	0.2469	0.853	0.8333	0.011
Mof_C 	C 	0.1986	0.648	0.7247	-0.025
Mof_N 	N 	0.565	0.1547	0.4384	-0.213
Mof_C 	C 	0.6114	0.1014	0.3901	0.033
Mof_H 	H 	0.6216	0.9792	0.3788	0.027
Mof_C 	C 	0.7469	0.353	0.3333	-0.009
Mof_C 	C 	0.6986	0.148	0.2247	-0.034
Mof_N 	N 	0.065	0.3453	0.0616	-0.241
Mof_C 	C 	0.1114	0.3986	0.1099	0.089
Mof_H 	H 	0.1216	0.5208	0.1212	-0.03
Mof_C 	C 	0.2469	0.147	0.1667	-0.038
Mof_C 	C 	0.1986	0.352	0.2753	-0.023
Mof_N 	N 	0.565	0.8453	0.5616	-0.222
Mof_C 	C 	0.6114	0.8986	0.6099	0.173
Mof_H 	H 	0.6216	0.0208	0.6212	-0.066
Mof_C 	C 	0.7469	0.647	0.6667	-0.013
Mof_C 	C 	0.6986	0.852	0.7753	-0.004
Mof_N 	N 	0.935	0.1547	0.0616	-0.205
Mof_C 	C 	0.8886	0.1014	0.1099	0.032
Mof_H 	H 	0.8784	0.9792	0.1212	0.026
Mof_C 	C 	0.7531	0.353	0.1667	-0.024
Mof_C 	C 	0.8014	0.148	0.2753	-0.022
Mof_N 	N 	0.435	0.6547	0.5616	-0.219
Mof_C 	C 	0.3886	0.6014	0.6099	0.105
Mof_H 	H 	0.3784	0.4792	0.6212	-0.021
Mof_C 	C 	0.2531	0.853	0.6667	-0.005
Mof_C 	C 	0.3014	0.648	0.7753	-0.015
Mof_Cu	Cu	-0	0	-0	0.755
Mof_Cu	Cu	0.5	0.5	0.5	0.83
Mof_Cu	Cu	-0	0.5	-0	0.77
Mof_Cu	Cu	0.5	0	0.5	0.815
Mof_N 	N 	0.1434	0.25	0.1419	-0.141
Mof_C 	C 	0.1973	0.25	0.1981	0.076
Mof_N 	N 	0.6434	0.75	0.6419	-0.153
Mof_C 	C 	0.6973	0.75	0.6981	0.068
Mof_N 	N 	0.8566	0.25	0.1419	-0.137
Mof_C 	C 	0.8027	0.25	0.1981	0.071
Mof_N 	N 	0.3566	0.75	0.6419	-0.154
Mof_C 	C 	0.3027	0.75	0.6981	0.07
Mof_N 	N 	0.8566	0.75	0.8581	-0.149
Mof_C 	C 	0.8027	0.75	0.8019	0.063
Mof_N 	N 	0.3566	0.25	0.3581	-0.138
Mof_C 	C 	0.3027	0.25	0.3019	0.072
Mof_N 	N 	0.1434	0.75	0.8581	-0.153
Mof_C 	C 	0.1973	0.75	0.8019	0.067
Mof_N 	N 	0.6434	0.25	0.3581	-0.137
Mof_C 	C 	0.6973	0.25	0.3019	0.07
_end
