data_functionalizedCrystal
_audit_creation_method	'EQeq! by Chris Wilmer'
_symmetry_space_group_name_H-M	'P1'
_symmetry_Int_Tables_number	1
_symmetry_cell_setting	triclinic
loop_
_symmetry_equiv_pos_as_xyz
  x,y,z
_cell_length_a	15.1751
_cell_length_b	15.1751
_cell_length_c	22.5604
_cell_angle_alpha	90
_cell_angle_beta	90
_cell_angle_gamma	90
loop_
_atom_site_label
_atom_site_type_symbol
_atom_site_fract_x
_atom_site_fract_y
_atom_site_fract_z
_atom_site_charge
Mof_Zn	Zn	0.75753	0.66679	0.85609	1.221
Mof_Zn	Zn	0.24247	0.33321	0.3561	1.221
Mof_Zn	Zn	0.83321	0.25753	0.60609	1.221
Mof_Zn	Zn	0.16679	0.74247	0.1061	1.22
Mof_Zn	Zn	0.74247	0.16679	0.89391	1.222
Mof_Zn	Zn	0.25753	0.83321	0.39391	1.221
Mof_Zn	Zn	0.66679	0.75753	0.14391	1.221
Mof_Zn	Zn	0.33321	0.24247	0.64391	1.221
Mof_Zn	Zn	0.72128	0.72128	-0	1.243
Mof_Zn	Zn	0.27872	0.27872	0.5	1.251
Mof_Zn	Zn	0.77872	0.22128	0.75	1.25
Mof_Zn	Zn	0.22128	0.77872	0.25	1.25
Mof_H 	H 	0.9941	0.7409	0.0371	0.018
Mof_H 	H 	0.0366	0.6328	0.8775	0.032
Mof_H 	H 	0.1879	0.629	0.8985	0.074
Mof_H 	H 	0.3246	0.6355	0.9237	0.087
Mof_H 	H 	0.4693	0.6457	0.9558	0.013
Mof_H 	H 	0.3793	0.7373	0.1125	0.011
Mof_H 	H 	0.5696	0.7929	0.9056	-0.067
Mof_H 	H 	0.0059	0.2591	0.5371	0.021
Mof_H 	H 	0.9634	0.3672	0.3775	0.028
Mof_H 	H 	0.8121	0.371	0.3985	0.074
Mof_H 	H 	0.6754	0.3645	0.4237	0.073
Mof_H 	H 	0.5307	0.3543	0.4558	0.028
Mof_H 	H 	0.6207	0.2627	0.6125	0.018
Mof_H 	H 	0.4304	0.2071	0.4056	-0.075
Mof_H 	H 	0.7591	0.4941	0.7871	0.016
Mof_H 	H 	0.8672	0.5366	0.6275	0.026
Mof_H 	H 	0.871	0.6879	0.6485	0.076
Mof_H 	H 	0.8645	0.8246	0.6737	0.073
Mof_H 	H 	0.8543	0.9693	0.7058	0.029
Mof_H 	H 	0.7627	0.8793	0.8625	0.021
Mof_H 	H 	0.7071	0.0696	0.6556	-0.075
Mof_H 	H 	0.2409	0.5059	0.2871	0.015
Mof_H 	H 	0.1328	0.4634	0.1275	0.023
Mof_H 	H 	0.129	0.3121	0.1485	0.073
Mof_H 	H 	0.1355	0.1754	0.1737	0.071
Mof_H 	H 	0.1457	0.0307	0.2058	0.026
Mof_H 	H 	0.2373	0.1207	0.3625	0.017
Mof_H 	H 	0.2929	0.9304	0.1556	-0.076
Mof_H 	H 	0.5059	0.2409	0.7129	0.016
Mof_H 	H 	0.4634	0.1328	0.8725	0.03
Mof_H 	H 	0.3121	0.129	0.8515	0.078
Mof_H 	H 	0.1754	0.1355	0.8263	0.075
Mof_H 	H 	0.0307	0.1457	0.7942	0.029
Mof_H 	H 	0.1207	0.2373	0.6375	0.018
Mof_H 	H 	0.9304	0.2929	0.8444	-0.072
Mof_H 	H 	0.4941	0.7591	0.2129	0.016
Mof_H 	H 	0.5366	0.8672	0.3725	0.027
Mof_H 	H 	0.6879	0.871	0.3515	0.076
Mof_H 	H 	0.8246	0.8645	0.3263	0.074
Mof_H 	H 	0.9693	0.8543	0.2942	0.026
Mof_H 	H 	0.8793	0.7627	0.1375	0.015
Mof_H 	H 	0.0696	0.7071	0.3444	-0.073
Mof_H 	H 	0.7409	0.9941	0.9629	0.012
Mof_H 	H 	0.6328	0.0366	0.1225	0.021
Mof_H 	H 	0.629	0.1879	0.1015	0.077
Mof_H 	H 	0.6355	0.3246	0.0763	0.058
Mof_H 	H 	0.6457	0.4693	0.0442	0.044
Mof_H 	H 	0.7373	0.3793	0.8875	0.025
Mof_H 	H 	0.7929	0.5696	0.0944	-0.081
Mof_H 	H 	0.2591	0.0059	0.4629	0.011
Mof_H 	H 	0.3672	0.9634	0.6225	0.025
Mof_H 	H 	0.371	0.8121	0.6015	0.078
Mof_H 	H 	0.3645	0.6754	0.5763	0.073
Mof_H 	H 	0.3543	0.5307	0.5442	0.028
Mof_H 	H 	0.2627	0.6207	0.3875	0.018
Mof_H 	H 	0.2071	0.4304	0.5944	-0.074
Mof_C 	C 	0.0335	0.7173	0.0084	0.067
Mof_C 	C 	0.9989	0.6877	0.9552	-0.11
Mof_C 	C 	0.0577	0.6541	0.9145	0.06
Mof_C 	C 	0.147	0.6508	0.9268	-0.111
Mof_C 	C 	0.175	0.6805	0.9819	0.074
Mof_C 	C 	0.2686	0.6804	0.999	0.089
Mof_C 	C 	0.3369	0.6564	0.9625	-0.147
Mof_C 	C 	0.4223	0.6622	0.9813	0.13
Mof_C 	C 	0.4396	0.6926	0.0383	-0.182
Mof_C 	C 	0.368	0.717	0.0734	0.112
Mof_C 	C 	0.9013	0.6953	0.94276	0.405
Mof_C 	C 	0.5327	0.7118	0.0578	0.404
Mof_C 	C 	0.612	0.7557	0.8873	0.402
Mof_C 	C 	0.9665	0.2827	0.5084	0.093
Mof_C 	C 	0.0011	0.3123	0.4552	-0.136
Mof_C 	C 	0.9423	0.3459	0.4145	0.064
Mof_C 	C 	0.853	0.3492	0.4268	-0.117
Mof_C 	C 	0.825	0.3195	0.4819	0.062
Mof_C 	C 	0.7314	0.3196	0.499	0.053
Mof_C 	C 	0.6631	0.3436	0.4625	-0.111
Mof_C 	C 	0.5777	0.3378	0.4813	0.063
Mof_C 	C 	0.5604	0.3074	0.5383	-0.13
Mof_C 	C 	0.632	0.283	0.5734	0.094
Mof_C 	C 	0.0987	0.3047	0.44276	0.413
Mof_C 	C 	0.4673	0.2882	0.5578	0.389
Mof_C 	C 	0.388	0.2443	0.3873	0.404
Mof_C 	C 	0.7827	0.5335	0.7584	0.104
Mof_C 	C 	0.8123	0.4989	0.7052	-0.146
Mof_C 	C 	0.8459	0.5577	0.6645	0.073
Mof_C 	C 	0.8492	0.647	0.6768	-0.122
Mof_C 	C 	0.8195	0.675	0.7319	0.065
Mof_C 	C 	0.8196	0.7686	0.749	0.052
Mof_C 	C 	0.8436	0.8369	0.7125	-0.108
Mof_C 	C 	0.8378	0.9223	0.7313	0.061
Mof_C 	C 	0.8074	0.9396	0.7883	-0.125
Mof_C 	C 	0.783	0.868	0.8234	0.093
Mof_C 	C 	0.8047	0.4013	0.69276	0.416
Mof_C 	C 	0.7882	0.0327	0.8078	0.386
Mof_C 	C 	0.7443	0.112	0.6373	0.404
Mof_C 	C 	0.2173	0.4665	0.2584	0.104
Mof_C 	C 	0.1877	0.5011	0.2052	-0.147
Mof_C 	C 	0.1541	0.4423	0.1645	0.072
Mof_C 	C 	0.1508	0.353	0.1768	-0.123
Mof_C 	C 	0.1805	0.325	0.2319	0.064
Mof_C 	C 	0.1804	0.2314	0.249	0.052
Mof_C 	C 	0.1564	0.1631	0.2125	-0.111
Mof_C 	C 	0.1622	0.0777	0.2313	0.063
Mof_C 	C 	0.1926	0.0604	0.2883	-0.133
Mof_C 	C 	0.217	0.132	0.3234	0.095
Mof_C 	C 	0.1953	0.5987	0.19276	0.416
Mof_C 	C 	0.2118	0.9673	0.3078	0.391
Mof_C 	C 	0.2557	0.888	0.1373	0.406
Mof_C 	C 	0.4665	0.2173	0.7416	0.103
Mof_C 	C 	0.5011	0.1877	0.7948	-0.144
Mof_C 	C 	0.4423	0.1541	0.8355	0.072
Mof_C 	C 	0.353	0.1508	0.8232	-0.12
Mof_C 	C 	0.325	0.1805	0.7681	0.065
Mof_C 	C 	0.2314	0.1804	0.751	0.053
Mof_C 	C 	0.1631	0.1564	0.7875	-0.11
Mof_C 	C 	0.0777	0.1622	0.7687	0.063
Mof_C 	C 	0.0604	0.1926	0.7117	-0.128
Mof_C 	C 	0.132	0.217	0.6766	0.094
Mof_C 	C 	0.5987	0.1953	0.80724	0.415
Mof_C 	C 	0.9673	0.2118	0.6922	0.387
Mof_C 	C 	0.888	0.2557	0.8627	0.402
Mof_C 	C 	0.5335	0.7827	0.2416	0.103
Mof_C 	C 	0.4989	0.8123	0.2948	-0.146
Mof_C 	C 	0.5577	0.8459	0.3355	0.072
Mof_C 	C 	0.647	0.8492	0.3232	-0.121
Mof_C 	C 	0.675	0.8195	0.2681	0.064
Mof_C 	C 	0.7686	0.8196	0.251	0.053
Mof_C 	C 	0.8369	0.8436	0.2875	-0.112
Mof_C 	C 	0.9223	0.8378	0.2687	0.065
Mof_C 	C 	0.9396	0.8074	0.2117	-0.135
Mof_C 	C 	0.868	0.783	0.1766	0.096
Mof_C 	C 	0.4013	0.8047	0.30724	0.416
Mof_C 	C 	0.0327	0.7882	0.1922	0.393
Mof_C 	C 	0.112	0.7443	0.3627	0.404
Mof_C 	C 	0.7173	0.0335	0.9916	0.141
Mof_C 	C 	0.6877	0.9989	0.0448	-0.18
Mof_C 	C 	0.6541	0.0577	0.0855	0.082
Mof_C 	C 	0.6508	0.147	0.0732	-0.13
Mof_C 	C 	0.6805	0.175	0.0181	0.054
Mof_C 	C 	0.6804	0.2686	0.001	0.015
Mof_C 	C 	0.6564	0.3369	0.0375	-0.073
Mof_C 	C 	0.6622	0.4223	0.0187	-0.005
Mof_C 	C 	0.6926	0.4396	0.9617	-0.077
Mof_C 	C 	0.717	0.368	0.9266	0.076
Mof_C 	C 	0.6953	0.9013	0.05724	0.425
Mof_C 	C 	0.7118	0.5327	0.9422	0.373
Mof_C 	C 	0.7557	0.612	0.1127	0.405
Mof_C 	C 	0.2827	0.9665	0.4916	0.112
Mof_C 	C 	0.3123	0.0011	0.5448	-0.154
Mof_C 	C 	0.3459	0.9423	0.5855	0.079
Mof_C 	C 	0.3492	0.853	0.5732	-0.125
Mof_C 	C 	0.3195	0.825	0.5181	0.067
Mof_C 	C 	0.3196	0.7314	0.501	0.052
Mof_C 	C 	0.3436	0.6631	0.5375	-0.11
Mof_C 	C 	0.3378	0.5777	0.5187	0.063
Mof_C 	C 	0.3074	0.5604	0.4617	-0.13
Mof_C 	C 	0.283	0.632	0.4266	0.095
Mof_C 	C 	0.3047	0.0987	0.55724	0.418
Mof_C 	C 	0.2882	0.4673	0.4422	0.389
Mof_C 	C 	0.2443	0.388	0.6127	0.404
Mof_N 	N 	0.1173	0.7143	0.0212	-0.251
Mof_N 	N 	0.2848	0.7131	0.055	-0.244
Mof_N 	N 	0.8827	0.2857	0.5212	-0.242
Mof_N 	N 	0.7152	0.2869	0.555	-0.224
Mof_N 	N 	0.7857	0.6173	0.7712	-0.244
Mof_N 	N 	0.7869	0.7848	0.805	-0.223
Mof_N 	N 	0.2143	0.3827	0.2712	-0.244
Mof_N 	N 	0.2131	0.2152	0.305	-0.224
Mof_N 	N 	0.3827	0.2143	0.7288	-0.244
Mof_N 	N 	0.2152	0.2131	0.695	-0.223
Mof_N 	N 	0.6173	0.7857	0.2288	-0.244
Mof_N 	N 	0.7848	0.7869	0.195	-0.224
Mof_N 	N 	0.7143	0.1173	0.9788	-0.237
Mof_N 	N 	0.7131	0.2848	0.945	-0.203
Mof_N 	N 	0.2857	0.8827	0.4788	-0.246
Mof_N 	N 	0.2869	0.7152	0.445	-0.223
Mof_O 	O 	0.854	0.726	0.98227	-0.423
Mof_O 	O 	0.87809	0.6662	0.89252	-0.46
Mof_O 	O 	0.585	0.7218	0.0145	-0.449
Mof_O 	O 	0.54587	0.71962	0.11228	-0.452
Mof_O 	O 	0.68652	0.74507	0.91177	-0.564
Mof_O 	O 	0.5933	0.718	0.83953	-0.332
Mof_O 	O 	0.146	0.274	0.48227	-0.441
Mof_O 	O 	0.12191	0.3338	0.39252	-0.463
Mof_O 	O 	0.415	0.2782	0.5145	-0.432
Mof_O 	O 	0.45413	0.28038	0.61228	-0.447
Mof_O 	O 	0.31348	0.25493	0.41177	-0.573
Mof_O 	O 	0.4067	0.282	0.33953	-0.336
Mof_O 	O 	0.774	0.354	0.73227	-0.442
Mof_O 	O 	0.8338	0.37809	0.64252	-0.464
Mof_O 	O 	0.7782	0.085	0.7645	-0.432
Mof_O 	O 	0.78038	0.04587	0.86228	-0.445
Mof_O 	O 	0.75493	0.18652	0.66177	-0.573
Mof_O 	O 	0.782	0.0933	0.58953	-0.336
Mof_O 	O 	0.226	0.646	0.23227	-0.442
Mof_O 	O 	0.1662	0.62191	0.14252	-0.467
Mof_O 	O 	0.2218	0.915	0.2645	-0.432
Mof_O 	O 	0.21962	0.95413	0.36228	-0.446
Mof_O 	O 	0.24507	0.81348	0.16177	-0.574
Mof_O 	O 	0.218	0.9067	0.08953	-0.341
Mof_O 	O 	0.646	0.226	0.76773	-0.441
Mof_O 	O 	0.62191	0.1662	0.85748	-0.461
Mof_O 	O 	0.915	0.2218	0.7355	-0.432
Mof_O 	O 	0.95413	0.21962	0.63772	-0.447
Mof_O 	O 	0.81348	0.24507	0.83823	-0.572
Mof_O 	O 	0.9067	0.218	0.91047	-0.329
Mof_O 	O 	0.354	0.774	0.26773	-0.442
Mof_O 	O 	0.37809	0.8338	0.35748	-0.464
Mof_O 	O 	0.085	0.7782	0.2355	-0.433
Mof_O 	O 	0.04587	0.78038	0.13772	-0.448
Mof_O 	O 	0.18652	0.75493	0.33823	-0.573
Mof_O 	O 	0.0933	0.782	0.41047	-0.334
Mof_O 	O 	0.726	0.854	0.01773	-0.457
Mof_O 	O 	0.6662	0.87809	0.10748	-0.467
Mof_O 	O 	0.7218	0.585	0.9855	-0.412
Mof_O 	O 	0.71962	0.54587	0.88772	-0.441
Mof_O 	O 	0.74507	0.68652	0.08823	-0.579
Mof_O 	O 	0.718	0.5933	0.16047	-0.337
Mof_O 	O 	0.274	0.146	0.51773	-0.442
Mof_O 	O 	0.3338	0.12191	0.60748	-0.465
Mof_O 	O 	0.2782	0.415	0.4855	-0.432
Mof_O 	O 	0.28038	0.45413	0.38772	-0.447
Mof_O 	O 	0.25493	0.31348	0.58823	-0.573
Mof_O 	O 	0.282	0.4067	0.66047	-0.334
_end
