data_functionalizedCrystal
_audit_creation_method	'EQeq! by Chris Wilmer'
_symmetry_space_group_name_H-M	'P1'
_symmetry_Int_Tables_number	1
_symmetry_cell_setting	triclinic
loop_
_symmetry_equiv_pos_as_xyz
  x,y,z
_cell_length_a	8.1953
_cell_length_b	7.5577
_cell_length_c	13.4593
_cell_angle_alpha	90
_cell_angle_beta	90
_cell_angle_gamma	90
loop_
_atom_site_label
_atom_site_type_symbol
_atom_site_fract_x
_atom_site_fract_y
_atom_site_fract_z
_atom_site_charge
Mof_Cu	Cu	0.05634	0.09757	0.5653	0.782
Mof_N 	N 	0.2514	0.2468	0.5381	-0.201
Mof_C 	C 	0.8581	0.1668	0.484	-0.347
Mof_C 	C 	0.015	0.0817	0.7085	-0.234
Mof_Cu	Cu	0.44366	0.40243	0.0653	0.782
Mof_N 	N 	0.2486	0.2532	0.0381	-0.201
Mof_C 	C 	0.6419	0.3332	0.984	-0.348
Mof_C 	C 	0.485	0.4183	0.2085	-0.234
Mof_Cu	Cu	0.94366	0.09757	0.9347	0.781
Mof_N 	N 	0.7486	0.2468	0.9619	-0.201
Mof_C 	C 	0.1419	0.1668	0.016	-0.345
Mof_C 	C 	0.985	0.0817	0.7915	-0.235
Mof_Cu	Cu	0.55634	0.40243	0.4347	0.782
Mof_N 	N 	0.7514	0.2532	0.4619	-0.2
Mof_C 	C 	0.3581	0.3332	0.516	-0.347
Mof_C 	C 	0.515	0.4183	0.2915	-0.234
Mof_Cu	Cu	0.94366	0.90243	0.4347	0.782
Mof_N 	N 	0.7486	0.7532	0.4619	-0.201
Mof_C 	C 	0.1419	0.8332	0.516	-0.347
Mof_C 	C 	0.985	0.9183	0.2915	-0.234
Mof_Cu	Cu	0.55634	0.59757	0.9347	0.782
Mof_N 	N 	0.7514	0.7468	0.9619	-0.201
Mof_C 	C 	0.3581	0.6668	0.016	-0.348
Mof_C 	C 	0.515	0.5817	0.7915	-0.234
Mof_Cu	Cu	0.05634	0.90243	0.0653	0.781
Mof_N 	N 	0.2514	0.7532	0.0381	-0.201
Mof_C 	C 	0.8581	0.8332	0.984	-0.345
Mof_C 	C 	0.015	0.9183	0.2085	-0.235
Mof_Cu	Cu	0.44366	0.59757	0.5653	0.782
Mof_N 	N 	0.2486	0.7468	0.5381	-0.2
Mof_C 	C 	0.6419	0.6668	0.484	-0.347
Mof_C 	C 	0.485	0.5817	0.7085	-0.234
_end
