data_functionalizedCrystal
_audit_creation_method	'EQeq! by Chris Wilmer'
_symmetry_space_group_name_H-M	'P1'
_symmetry_Int_Tables_number	1
_symmetry_cell_setting	triclinic
loop_
_symmetry_equiv_pos_as_xyz
  x,y,z
_cell_length_a	11.2363
_cell_length_b	11.2363
_cell_length_c	20.932
_cell_angle_alpha	95.5265
_cell_angle_beta	95.5265
_cell_angle_gamma	106.977
loop_
_atom_site_label
_atom_site_type_symbol
_atom_site_fract_x
_atom_site_fract_y
_atom_site_fract_z
_atom_site_charge
Mof_Co	Co	0.51029	0.02373	0.80839	1.124
Mof_Co	Co	0.97627	0.48971	0.69161	1.124
Mof_Co	Co	0.48971	0.97627	0.19161	1.124
Mof_Co	Co	0.02373	0.51029	0.30839	1.124
Mof_Co	Co	0.75194	0.24806	0.75	1.198
Mof_Co	Co	0.24806	0.75194	0.25	1.198
Mof_H 	H 	0.7336	0.5194	0.9041	0.041
Mof_H 	H 	0.723	0.6556	0.9905	0.063
Mof_H 	H 	0.3978	0.2878	0.9224	0.048
Mof_H 	H 	0.6536	0.048	0.6092	0.061
Mof_H 	H 	0.7421	0.0273	0.5055	0.068
Mof_H 	H 	0.2842	0.9966	0.6057	0.041
Mof_H 	H 	0.0123	0.2377	0.5304	0.043
Mof_H 	H 	0.0722	0.1724	0.4234	0.051
Mof_H 	H 	0.892	0.9788	0.6468	0.039
Mof_H 	H 	0.4806	0.2664	0.5959	0.041
Mof_H 	H 	0.3444	0.277	0.5095	0.063
Mof_H 	H 	0.7122	0.6022	0.5776	0.048
Mof_H 	H 	0.952	0.3464	0.8908	0.06
Mof_H 	H 	0.9727	0.2579	0.9945	0.062
Mof_H 	H 	0.0034	0.7158	0.8943	0.045
Mof_H 	H 	0.7623	0.9877	0.9696	0.046
Mof_H 	H 	0.8276	0.9278	0.0766	0.052
Mof_H 	H 	0.0212	0.108	0.8532	0.039
Mof_H 	H 	0.2664	0.4806	0.0959	0.041
Mof_H 	H 	0.277	0.3444	0.0095	0.063
Mof_H 	H 	0.6022	0.7122	0.0776	0.048
Mof_H 	H 	0.3464	0.952	0.3908	0.061
Mof_H 	H 	0.2579	0.9727	0.4945	0.068
Mof_H 	H 	0.7158	0.0034	0.3943	0.041
Mof_H 	H 	0.9877	0.7623	0.4696	0.043
Mof_H 	H 	0.9278	0.8276	0.5766	0.051
Mof_H 	H 	0.108	0.0212	0.3532	0.039
Mof_H 	H 	0.5194	0.7336	0.4041	0.041
Mof_H 	H 	0.6556	0.723	0.4905	0.063
Mof_H 	H 	0.2878	0.3978	0.4224	0.048
Mof_H 	H 	0.048	0.6536	0.1092	0.06
Mof_H 	H 	0.0273	0.7421	0.0055	0.062
Mof_H 	H 	0.9966	0.2842	0.1057	0.045
Mof_H 	H 	0.2377	0.0123	0.0304	0.046
Mof_H 	H 	0.1724	0.0722	0.9234	0.052
Mof_H 	H 	0.9788	0.892	0.1468	0.039
Mof_C 	C 	0.5785	0.2961	0.8507	0.385
Mof_C 	C 	0.5664	0.3896	0.9051	-0.092
Mof_C 	C 	0.6633	0.5005	0.9258	0.016
Mof_C 	C 	0.6569	0.5823	0.9773	-0.095
Mof_C 	C 	0.5495	0.5555	0.0107	0.02
Mof_C 	C 	0.4622	0.362	0.9362	-0.037
Mof_C 	C 	0.4872	0.0362	0.6901	0.324
Mof_C 	C 	0.4735	0.0265	0.6182	-0.079
Mof_C 	C 	0.5744	0.0314	0.5859	-0.046
Mof_C 	C 	0.56	0.0114	0.5175	0.028
Mof_C 	C 	0.6629	0.0143	0.4829	-0.091
Mof_C 	C 	0.353	0.0018	0.5835	0.002
Mof_C 	C 	0.9148	0.2212	0.6401	0.369
Mof_C 	C 	0.946	0.1232	0.5944	-0.086
Mof_C 	C 	0.9926	0.1548	0.5387	-0.035
Mof_C 	C 	0.0117	0.0619	0.4926	0.015
Mof_C 	C 	0.0566	0.091	0.4337	-0.09
Mof_C 	C 	0.9225	0.9997	0.6083	0.004
Mof_C 	C 	0.7039	0.4215	0.6493	0.385
Mof_C 	C 	0.6104	0.4336	0.5949	-0.092
Mof_C 	C 	0.4995	0.3367	0.5742	0.016
Mof_C 	C 	0.4177	0.3431	0.5227	-0.095
Mof_C 	C 	0.4445	0.4505	0.4893	0.02
Mof_C 	C 	0.638	0.5378	0.5638	-0.037
Mof_C 	C 	0.9638	0.5128	0.8099	0.322
Mof_C 	C 	0.9735	0.5265	0.8818	-0.076
Mof_C 	C 	0.9686	0.4256	0.9141	-0.046
Mof_C 	C 	0.9886	0.44	0.9825	0.023
Mof_C 	C 	0.9857	0.3371	0.0171	-0.078
Mof_C 	C 	0.9982	0.647	0.9165	-0.008
Mof_C 	C 	0.7788	0.0852	0.8599	0.369
Mof_C 	C 	0.8768	0.054	0.9056	-0.085
Mof_C 	C 	0.8452	0.0074	0.9613	-0.04
Mof_C 	C 	0.9381	0.9883	0.0074	0.017
Mof_C 	C 	0.909	0.9434	0.0663	-0.091
Mof_C 	C 	0.0003	0.0775	0.8917	0.006
Mof_C 	C 	0.4215	0.7039	0.1493	0.385
Mof_C 	C 	0.4336	0.6104	0.0949	-0.092
Mof_C 	C 	0.3367	0.4995	0.0742	0.016
Mof_C 	C 	0.3431	0.4177	0.0227	-0.095
Mof_C 	C 	0.4505	0.4445	0.9893	0.02
Mof_C 	C 	0.5378	0.638	0.0638	-0.037
Mof_C 	C 	0.5128	0.9638	0.3099	0.324
Mof_C 	C 	0.5265	0.9735	0.3818	-0.079
Mof_C 	C 	0.4256	0.9686	0.4141	-0.046
Mof_C 	C 	0.44	0.9886	0.4825	0.028
Mof_C 	C 	0.3371	0.9857	0.5171	-0.091
Mof_C 	C 	0.647	0.9982	0.4165	0.002
Mof_C 	C 	0.0852	0.7788	0.3599	0.369
Mof_C 	C 	0.054	0.8768	0.4056	-0.086
Mof_C 	C 	0.0074	0.8452	0.4613	-0.035
Mof_C 	C 	0.9883	0.9381	0.5074	0.015
Mof_C 	C 	0.9434	0.909	0.5663	-0.09
Mof_C 	C 	0.0775	0.0003	0.3917	0.004
Mof_C 	C 	0.2961	0.5785	0.3507	0.385
Mof_C 	C 	0.3896	0.5664	0.4051	-0.092
Mof_C 	C 	0.5005	0.6633	0.4258	0.016
Mof_C 	C 	0.5823	0.6569	0.4773	-0.095
Mof_C 	C 	0.5555	0.5495	0.5107	0.02
Mof_C 	C 	0.362	0.4622	0.4362	-0.037
Mof_C 	C 	0.0362	0.4872	0.1901	0.322
Mof_C 	C 	0.0265	0.4735	0.1182	-0.076
Mof_C 	C 	0.0314	0.5744	0.0859	-0.046
Mof_C 	C 	0.0114	0.56	0.0175	0.023
Mof_C 	C 	0.0143	0.6629	0.9829	-0.078
Mof_C 	C 	0.0018	0.353	0.0835	-0.008
Mof_C 	C 	0.2212	0.9148	0.1401	0.369
Mof_C 	C 	0.1232	0.946	0.0944	-0.085
Mof_C 	C 	0.1548	0.9926	0.0387	-0.04
Mof_C 	C 	0.0619	0.0117	0.9926	0.017
Mof_C 	C 	0.091	0.0566	0.9337	-0.091
Mof_C 	C 	0.9997	0.9225	0.1083	0.006
Mof_O 	O 	0.4942	0.1932	0.84056	-0.46
Mof_O 	O 	0.67254	0.32986	0.82152	-0.425
Mof_O 	O 	0.59562	0.08178	0.72338	-0.503
Mof_O 	O 	0.39207	0.99513	0.71767	-0.415
Mof_O 	O 	0.85205	0.17735	0.68424	-0.413
Mof_O 	O 	0.9527	0.3323	0.62986	-0.474
Mof_O 	O 	0.8068	0.5058	0.65944	-0.46
Mof_O 	O 	0.67014	0.32746	0.67848	-0.425
Mof_O 	O 	0.91822	0.40438	0.77662	-0.503
Mof_O 	O 	0.00487	0.60793	0.78233	-0.414
Mof_O 	O 	0.82265	0.14795	0.81576	-0.413
Mof_O 	O 	0.6677	0.0473	0.87014	-0.474
Mof_O 	O 	0.5058	0.8068	0.15944	-0.46
Mof_O 	O 	0.32746	0.67014	0.17848	-0.425
Mof_O 	O 	0.40438	0.91822	0.27662	-0.503
Mof_O 	O 	0.60793	0.00487	0.28233	-0.415
Mof_O 	O 	0.14795	0.82265	0.31576	-0.413
Mof_O 	O 	0.0473	0.6677	0.37014	-0.474
Mof_O 	O 	0.1932	0.4942	0.34056	-0.46
Mof_O 	O 	0.32986	0.67254	0.32152	-0.425
Mof_O 	O 	0.08178	0.59562	0.22338	-0.503
Mof_O 	O 	0.99513	0.39207	0.21767	-0.414
Mof_O 	O 	0.17735	0.85205	0.18424	-0.413
Mof_O 	O 	0.3323	0.9527	0.12986	-0.474
_end
