data_functionalizedCrystal
_audit_creation_method	'EQeq! by Chris Wilmer'
_symmetry_space_group_name_H-M	'P1'
_symmetry_Int_Tables_number	1
_symmetry_cell_setting	triclinic
loop_
_symmetry_equiv_pos_as_xyz
  x,y,z
_cell_length_a	23.56
_cell_length_b	15.66
_cell_length_c	15.991
_cell_angle_alpha	90
_cell_angle_beta	123.957
_cell_angle_gamma	90
loop_
_atom_site_label
_atom_site_type_symbol
_atom_site_fract_x
_atom_site_fract_y
_atom_site_fract_z
_atom_site_charge
Mof_Tm	Tm	0.81077	0.82809	0.6258	1.708
Mof_C 	C 	0.1348	0.4586	0.3289	-0.158
Mof_C 	C 	0.1459	0.5409	0.3651	0.033
Mof_H 	H 	0.1825	0.5527	0.4326	0.048
Mof_C 	C 	0.1038	0.6064	0.3035	-0.011
Mof_C 	C 	0.0499	0.5909	0.205	0.183
Mof_C 	C 	0.0374	0.5076	0.1699	-0.187
Mof_H 	H 	0.9992	0.4956	0.1037	0.108
Mof_C 	C 	0.0794	0.442	0.2297	0.097
Mof_H 	H 	0.071	0.3854	0.204	0.014
Mof_C 	C 	0.02	0.6894	0.0755	0.19
Mof_C 	C 	0.0853	0.6897	0.0956	-0.105
Mof_H 	H 	0.1222	0.6648	0.156	0.095
Mof_C 	C 	0.0965	0.7265	0.0272	-0.073
Mof_C 	C 	0.0413	0.7596	0.9366	-0.014
Mof_H 	H 	0.0482	0.7818	0.8876	0.044
Mof_C 	C 	0.9767	0.7598	0.9186	-0.018
Mof_C 	C 	0.9655	0.7246	0.9884	-0.131
Mof_H 	H 	0.9211	0.7249	0.9759	0.119
Mof_C 	C 	0.182	0.3867	0.3922	0.462
Mof_C 	C 	0.1675	0.7297	0.0514	0.423
Mof_C 	C 	0.9174	0.7946	0.8202	0.291
Mof_N 	N 	0.119	0.692	0.3469	0.011
Mof_O 	O 	0.1758	0.3184	0.3472	-0.458
Mof_O 	O 	0.2241	0.4014	0.4851	-0.49
Mof_O 	O 	0.1536	0.6987	0.4394	-0.109
Mof_O 	O 	0.097	0.7535	0.2907	-0.101
Mof_O 	O 	0.2148	0.6924	0.1295	-0.447
Mof_O 	O 	0.1776	0.7697	0.9923	-0.522
Mof_O 	O 	0.9275	0.8188	0.7541	-0.421
Mof_O 	O 	0.8594	0.797	0.8053	-0.361
Mof_O 	O 	0.0052	0.6538	0.1411	-0.223
Mof_Tm	Tm	0.31077	0.32809	0.6258	1.709
Mof_C 	C 	0.6348	0.9586	0.3289	-0.158
Mof_C 	C 	0.6459	0.0409	0.3651	0.033
Mof_H 	H 	0.6825	0.0527	0.4326	0.048
Mof_C 	C 	0.6038	0.1064	0.3035	-0.012
Mof_C 	C 	0.5499	0.0909	0.205	0.184
Mof_C 	C 	0.5374	0.0076	0.1699	-0.191
Mof_H 	H 	0.4992	0.9956	0.1037	0.11
Mof_C 	C 	0.5794	0.942	0.2297	0.1
Mof_H 	H 	0.571	0.8854	0.204	0.013
Mof_C 	C 	0.52	0.1894	0.0755	0.188
Mof_C 	C 	0.5853	0.1897	0.0956	-0.103
Mof_H 	H 	0.6222	0.1648	0.156	0.094
Mof_C 	C 	0.5965	0.2265	0.0272	-0.075
Mof_C 	C 	0.5413	0.2596	0.9366	-0.01
Mof_H 	H 	0.5482	0.2818	0.8876	0.043
Mof_C 	C 	0.4767	0.2598	0.9186	-0.02
Mof_C 	C 	0.4655	0.2246	0.9884	-0.128
Mof_H 	H 	0.4211	0.2249	0.9759	0.118
Mof_C 	C 	0.682	0.8867	0.3922	0.462
Mof_C 	C 	0.6675	0.2297	0.0514	0.422
Mof_C 	C 	0.4174	0.2946	0.8202	0.292
Mof_N 	N 	0.619	0.192	0.3469	0.011
Mof_O 	O 	0.6758	0.8184	0.3472	-0.458
Mof_O 	O 	0.7241	0.9014	0.4851	-0.489
Mof_O 	O 	0.6536	0.1987	0.4394	-0.109
Mof_O 	O 	0.597	0.2535	0.2907	-0.101
Mof_O 	O 	0.7148	0.1924	0.1295	-0.447
Mof_O 	O 	0.6776	0.2697	0.9923	-0.521
Mof_O 	O 	0.4275	0.3188	0.7541	-0.421
Mof_O 	O 	0.3594	0.297	0.8053	-0.361
Mof_O 	O 	0.5052	0.1538	0.1411	-0.222
Mof_Tm	Tm	0.18923	0.82809	0.8742	1.708
Mof_C 	C 	0.8652	0.4586	0.1711	-0.157
Mof_C 	C 	0.8541	0.5409	0.1349	0.033
Mof_H 	H 	0.8175	0.5527	0.0674	0.047
Mof_C 	C 	0.8962	0.6064	0.1965	-0.011
Mof_C 	C 	0.9501	0.5909	0.295	0.183
Mof_C 	C 	0.9626	0.5076	0.3301	-0.187
Mof_H 	H 	0.0008	0.4956	0.3963	0.108
Mof_C 	C 	0.9206	0.442	0.2703	0.097
Mof_H 	H 	0.929	0.3854	0.296	0.014
Mof_C 	C 	0.98	0.6894	0.4245	0.189
Mof_C 	C 	0.9147	0.6897	0.4044	-0.104
Mof_H 	H 	0.8778	0.6648	0.344	0.094
Mof_C 	C 	0.9035	0.7265	0.4728	-0.074
Mof_C 	C 	0.9587	0.7596	0.5634	-0.012
Mof_H 	H 	0.9518	0.7818	0.6124	0.044
Mof_C 	C 	0.0233	0.7598	0.5814	-0.019
Mof_C 	C 	0.0345	0.7246	0.5116	-0.129
Mof_H 	H 	0.0789	0.7249	0.5241	0.118
Mof_C 	C 	0.818	0.3867	0.1078	0.462
Mof_C 	C 	0.8325	0.7297	0.4486	0.422
Mof_C 	C 	0.0826	0.7946	0.6798	0.291
Mof_N 	N 	0.881	0.692	0.1531	0.011
Mof_O 	O 	0.8242	0.3184	0.1528	-0.458
Mof_O 	O 	0.7759	0.4014	0.0149	-0.49
Mof_O 	O 	0.8464	0.6987	0.0606	-0.109
Mof_O 	O 	0.903	0.7535	0.2093	-0.101
Mof_O 	O 	0.7852	0.6924	0.3705	-0.447
Mof_O 	O 	0.8224	0.7697	0.5077	-0.521
Mof_O 	O 	0.0725	0.8188	0.7459	-0.421
Mof_O 	O 	0.1406	0.797	0.6947	-0.361
Mof_O 	O 	0.9948	0.6538	0.3589	-0.222
Mof_Tm	Tm	0.68923	0.32809	0.8742	1.709
Mof_C 	C 	0.3652	0.9586	0.1711	-0.156
Mof_C 	C 	0.3541	0.0409	0.1349	0.032
Mof_H 	H 	0.3175	0.0527	0.0674	0.048
Mof_C 	C 	0.3962	0.1064	0.1965	-0.011
Mof_C 	C 	0.4501	0.0909	0.295	0.183
Mof_C 	C 	0.4626	0.0076	0.3301	-0.188
Mof_H 	H 	0.5008	0.9956	0.3963	0.109
Mof_C 	C 	0.4206	0.942	0.2703	0.098
Mof_H 	H 	0.429	0.8854	0.296	0.014
Mof_C 	C 	0.48	0.1894	0.4245	0.189
Mof_C 	C 	0.4147	0.1897	0.4044	-0.104
Mof_H 	H 	0.3778	0.1648	0.344	0.094
Mof_C 	C 	0.4035	0.2265	0.4728	-0.074
Mof_C 	C 	0.4587	0.2596	0.5634	-0.012
Mof_H 	H 	0.4518	0.2818	0.6124	0.044
Mof_C 	C 	0.5233	0.2598	0.5814	-0.019
Mof_C 	C 	0.5345	0.2246	0.5116	-0.129
Mof_H 	H 	0.5789	0.2249	0.5241	0.119
Mof_C 	C 	0.318	0.8867	0.1078	0.462
Mof_C 	C 	0.3325	0.2297	0.4486	0.422
Mof_C 	C 	0.5826	0.2946	0.6798	0.291
Mof_N 	N 	0.381	0.192	0.1531	0.011
Mof_O 	O 	0.3242	0.8184	0.1528	-0.458
Mof_O 	O 	0.2759	0.9014	0.0149	-0.489
Mof_O 	O 	0.3464	0.1987	0.0606	-0.109
Mof_O 	O 	0.403	0.2535	0.2093	-0.101
Mof_O 	O 	0.2852	0.1924	0.3705	-0.447
Mof_O 	O 	0.3224	0.2697	0.5077	-0.521
Mof_O 	O 	0.5725	0.3188	0.7459	-0.421
Mof_O 	O 	0.6406	0.297	0.6947	-0.361
Mof_O 	O 	0.4948	0.1538	0.3589	-0.222
Mof_Tm	Tm	0.18923	0.17191	0.3742	1.709
Mof_C 	C 	0.8652	0.5414	0.6711	-0.157
Mof_C 	C 	0.8541	0.4591	0.6349	0.033
Mof_H 	H 	0.8175	0.4473	0.5674	0.048
Mof_C 	C 	0.8962	0.3936	0.6965	-0.011
Mof_C 	C 	0.9501	0.4091	0.795	0.183
Mof_C 	C 	0.9626	0.4924	0.8301	-0.187
Mof_H 	H 	0.0008	0.5044	0.8963	0.108
Mof_C 	C 	0.9206	0.558	0.7703	0.097
Mof_H 	H 	0.929	0.6146	0.796	0.014
Mof_C 	C 	0.98	0.3106	0.9245	0.19
Mof_C 	C 	0.9147	0.3103	0.9044	-0.105
Mof_H 	H 	0.8778	0.3352	0.844	0.095
Mof_C 	C 	0.9035	0.2735	0.9728	-0.073
Mof_C 	C 	0.9587	0.2404	0.0634	-0.014
Mof_H 	H 	0.9518	0.2182	0.1124	0.044
Mof_C 	C 	0.0233	0.2402	0.0814	-0.018
Mof_C 	C 	0.0345	0.2754	0.0116	-0.131
Mof_H 	H 	0.0789	0.2751	0.0241	0.119
Mof_C 	C 	0.818	0.6133	0.6078	0.462
Mof_C 	C 	0.8325	0.2703	0.9486	0.423
Mof_C 	C 	0.0826	0.2054	0.1798	0.291
Mof_N 	N 	0.881	0.308	0.6531	0.011
Mof_O 	O 	0.8242	0.6816	0.6528	-0.458
Mof_O 	O 	0.7759	0.5986	0.5149	-0.49
Mof_O 	O 	0.8464	0.3013	0.5606	-0.109
Mof_O 	O 	0.903	0.2465	0.7093	-0.101
Mof_O 	O 	0.7852	0.3076	0.8705	-0.447
Mof_O 	O 	0.8224	0.2303	0.0077	-0.522
Mof_O 	O 	0.0725	0.1812	0.2459	-0.421
Mof_O 	O 	0.1406	0.203	0.1947	-0.361
Mof_O 	O 	0.9948	0.3462	0.8589	-0.223
Mof_Tm	Tm	0.68923	0.67191	0.3742	1.709
Mof_C 	C 	0.3652	0.0414	0.6711	-0.158
Mof_C 	C 	0.3541	0.9591	0.6349	0.033
Mof_H 	H 	0.3175	0.9473	0.5674	0.048
Mof_C 	C 	0.3962	0.8936	0.6965	-0.012
Mof_C 	C 	0.4501	0.9091	0.795	0.184
Mof_C 	C 	0.4626	0.9924	0.8301	-0.191
Mof_H 	H 	0.5008	0.0044	0.8963	0.11
Mof_C 	C 	0.4206	0.058	0.7703	0.1
Mof_H 	H 	0.429	0.1146	0.796	0.013
Mof_C 	C 	0.48	0.8106	0.9245	0.188
Mof_C 	C 	0.4147	0.8103	0.9044	-0.103
Mof_H 	H 	0.3778	0.8352	0.844	0.094
Mof_C 	C 	0.4035	0.7735	0.9728	-0.075
Mof_C 	C 	0.4587	0.7404	0.0634	-0.01
Mof_H 	H 	0.4518	0.7182	0.1124	0.043
Mof_C 	C 	0.5233	0.7402	0.0814	-0.02
Mof_C 	C 	0.5345	0.7754	0.0116	-0.128
Mof_H 	H 	0.5789	0.7751	0.0241	0.118
Mof_C 	C 	0.318	0.1133	0.6078	0.462
Mof_C 	C 	0.3325	0.7703	0.9486	0.422
Mof_C 	C 	0.5826	0.7054	0.1798	0.292
Mof_N 	N 	0.381	0.808	0.6531	0.011
Mof_O 	O 	0.3242	0.1816	0.6528	-0.458
Mof_O 	O 	0.2759	0.0986	0.5149	-0.489
Mof_O 	O 	0.3464	0.8013	0.5606	-0.109
Mof_O 	O 	0.403	0.7465	0.7093	-0.101
Mof_O 	O 	0.2852	0.8076	0.8705	-0.447
Mof_O 	O 	0.3224	0.7303	0.0077	-0.521
Mof_O 	O 	0.5725	0.6812	0.2459	-0.421
Mof_O 	O 	0.6406	0.703	0.1947	-0.361
Mof_O 	O 	0.4948	0.8462	0.8589	-0.222
Mof_Tm	Tm	0.81077	0.17191	0.1258	1.708
Mof_C 	C 	0.1348	0.5414	0.8289	-0.157
Mof_C 	C 	0.1459	0.4591	0.8651	0.033
Mof_H 	H 	0.1825	0.4473	0.9326	0.047
Mof_C 	C 	0.1038	0.3936	0.8035	-0.011
Mof_C 	C 	0.0499	0.4091	0.705	0.183
Mof_C 	C 	0.0374	0.4924	0.6699	-0.187
Mof_H 	H 	0.9992	0.5044	0.6037	0.108
Mof_C 	C 	0.0794	0.558	0.7297	0.097
Mof_H 	H 	0.071	0.6146	0.704	0.014
Mof_C 	C 	0.02	0.3106	0.5755	0.189
Mof_C 	C 	0.0853	0.3103	0.5956	-0.104
Mof_H 	H 	0.1222	0.3352	0.656	0.094
Mof_C 	C 	0.0965	0.2735	0.5272	-0.074
Mof_C 	C 	0.0413	0.2404	0.4366	-0.012
Mof_H 	H 	0.0482	0.2182	0.3876	0.044
Mof_C 	C 	0.9767	0.2402	0.4186	-0.019
Mof_C 	C 	0.9655	0.2754	0.4884	-0.129
Mof_H 	H 	0.9211	0.2751	0.4759	0.118
Mof_C 	C 	0.182	0.6133	0.8922	0.462
Mof_C 	C 	0.1675	0.2703	0.5514	0.422
Mof_C 	C 	0.9174	0.2054	0.3202	0.291
Mof_N 	N 	0.119	0.308	0.8469	0.011
Mof_O 	O 	0.1758	0.6816	0.8472	-0.458
Mof_O 	O 	0.2241	0.5986	0.9851	-0.49
Mof_O 	O 	0.1536	0.3013	0.9394	-0.109
Mof_O 	O 	0.097	0.2465	0.7907	-0.101
Mof_O 	O 	0.2148	0.3076	0.6295	-0.447
Mof_O 	O 	0.1776	0.2303	0.4923	-0.521
Mof_O 	O 	0.9275	0.1812	0.2541	-0.421
Mof_O 	O 	0.8594	0.203	0.3053	-0.361
Mof_O 	O 	0.0052	0.3462	0.6411	-0.222
Mof_Tm	Tm	0.31077	0.67191	0.1258	1.709
Mof_C 	C 	0.6348	0.0414	0.8289	-0.156
Mof_C 	C 	0.6459	0.9591	0.8651	0.032
Mof_H 	H 	0.6825	0.9473	0.9326	0.048
Mof_C 	C 	0.6038	0.8936	0.8035	-0.011
Mof_C 	C 	0.5499	0.9091	0.705	0.183
Mof_C 	C 	0.5374	0.9924	0.6699	-0.188
Mof_H 	H 	0.4992	0.0044	0.6037	0.109
Mof_C 	C 	0.5794	0.058	0.7297	0.098
Mof_H 	H 	0.571	0.1146	0.704	0.014
Mof_C 	C 	0.52	0.8106	0.5755	0.189
Mof_C 	C 	0.5853	0.8103	0.5956	-0.104
Mof_H 	H 	0.6222	0.8352	0.656	0.094
Mof_C 	C 	0.5965	0.7735	0.5272	-0.074
Mof_C 	C 	0.5413	0.7404	0.4366	-0.012
Mof_H 	H 	0.5482	0.7182	0.3876	0.044
Mof_C 	C 	0.4767	0.7402	0.4186	-0.019
Mof_C 	C 	0.4655	0.7754	0.4884	-0.129
Mof_H 	H 	0.4211	0.7751	0.4759	0.119
Mof_C 	C 	0.682	0.1133	0.8922	0.462
Mof_C 	C 	0.6675	0.7703	0.5514	0.422
Mof_C 	C 	0.4174	0.7054	0.3202	0.291
Mof_N 	N 	0.619	0.808	0.8469	0.011
Mof_O 	O 	0.6758	0.1816	0.8472	-0.458
Mof_O 	O 	0.7241	0.0986	0.9851	-0.489
Mof_O 	O 	0.6536	0.8013	0.9394	-0.109
Mof_O 	O 	0.597	0.7465	0.7907	-0.101
Mof_O 	O 	0.7148	0.8076	0.6295	-0.447
Mof_O 	O 	0.6776	0.7303	0.4923	-0.521
Mof_O 	O 	0.4275	0.6812	0.2541	-0.421
Mof_O 	O 	0.3594	0.703	0.3053	-0.361
Mof_O 	O 	0.5052	0.8462	0.6411	-0.222
_end
