data_functionalizedCrystal
_audit_creation_method	'EQeq! by Chris Wilmer'
_symmetry_space_group_name_H-M	'P1'
_symmetry_Int_Tables_number	1
_symmetry_cell_setting	triclinic
loop_
_symmetry_equiv_pos_as_xyz
  x,y,z
_cell_length_a	21.056
_cell_length_b	21.3676
_cell_length_c	21.3676
_cell_angle_alpha	120
_cell_angle_beta	90
_cell_angle_gamma	90
loop_
_atom_site_label
_atom_site_type_symbol
_atom_site_fract_x
_atom_site_fract_y
_atom_site_fract_z
_atom_site_charge
Mof_K 	K 	0.25	0.33333	0.66666	5.195
Mof_K 	K 	0.75	0.66667	0.33334	5.195
Mof_Cd	Cd	0.25	0.54763	0.77382	0.371
Mof_Cd	Cd	0.25	0.22619	0.45238	0.371
Mof_Cd	Cd	0.25	0.22619	0.77382	0.37
Mof_Cd	Cd	0.75	0.45237	0.22618	0.37
Mof_Cd	Cd	0.75	0.77381	0.54762	0.37
Mof_Cd	Cd	0.75	0.77381	0.22618	0.37
Mof_H 	H 	0.0509	0.5443	0.6461	-0.006
Mof_H 	H 	0.0365	0.2954	0.5191	0.138
Mof_H 	H 	0.117	0.3504	0.5998	-0.225
Mof_H 	H 	0.9866	0.5903	0.6197	0.052
Mof_H 	H 	0.7752	0.6064	0.4991	-0.057
Mof_H 	H 	0.8443	0.5321	0.5127	0.109
Mof_H 	H 	0.941	0.7075	0.6524	0.097
Mof_H 	H 	0.8683	0.7772	0.6359	-0.007
Mof_H 	H 	0.9275	0.3685	0.4628	0.169
Mof_H 	H 	0.9428	0.3096	0.4712	0.16
Mof_H 	H 	0.0509	0.1018	0.4557	-0.006
Mof_H 	H 	0.0365	0.2237	0.7046	0.138
Mof_H 	H 	0.117	0.2494	0.6496	-0.225
Mof_H 	H 	0.9866	0.0294	0.4097	0.052
Mof_H 	H 	0.7752	0.8927	0.3936	-0.057
Mof_H 	H 	0.8443	0.9806	0.4679	0.109
Mof_H 	H 	0.941	0.9449	0.2925	0.097
Mof_H 	H 	0.8683	0.8587	0.2228	-0.007
Mof_H 	H 	0.9275	0.0943	0.6315	0.169
Mof_H 	H 	0.9428	0.1616	0.6904	0.159
Mof_H 	H 	0.0509	0.3539	0.8982	-0.006
Mof_H 	H 	0.0365	0.4809	0.7763	0.138
Mof_H 	H 	0.117	0.4002	0.7506	-0.225
Mof_H 	H 	0.9866	0.3803	0.9706	0.052
Mof_H 	H 	0.7752	0.5009	0.1073	-0.057
Mof_H 	H 	0.8443	0.4873	0.0194	0.109
Mof_H 	H 	0.941	0.3476	0.0551	0.098
Mof_H 	H 	0.8683	0.3641	0.1413	-0.007
Mof_H 	H 	0.9275	0.5372	0.9057	0.169
Mof_H 	H 	0.9428	0.5288	0.8384	0.16
Mof_H 	H 	0.4491	0.1018	0.6461	-0.006
Mof_H 	H 	0.4635	0.2237	0.5191	0.138
Mof_H 	H 	0.383	0.2494	0.5998	-0.225
Mof_H 	H 	0.5134	0.0294	0.6197	0.052
Mof_H 	H 	0.7248	0.8927	0.4991	-0.057
Mof_H 	H 	0.6557	0.9806	0.5127	0.109
Mof_H 	H 	0.559	0.9449	0.6524	0.097
Mof_H 	H 	0.6317	0.8587	0.6359	-0.007
Mof_H 	H 	0.5725	0.0943	0.4628	0.169
Mof_H 	H 	0.5572	0.1616	0.4712	0.16
Mof_H 	H 	0.4491	0.3539	0.4557	-0.006
Mof_H 	H 	0.4635	0.4809	0.7046	0.138
Mof_H 	H 	0.383	0.4002	0.6496	-0.225
Mof_H 	H 	0.5134	0.3803	0.4097	0.052
Mof_H 	H 	0.7248	0.5009	0.3936	-0.057
Mof_H 	H 	0.6557	0.4873	0.4679	0.109
Mof_H 	H 	0.559	0.3476	0.2925	0.097
Mof_H 	H 	0.6317	0.3641	0.2228	-0.007
Mof_H 	H 	0.5725	0.5372	0.6315	0.169
Mof_H 	H 	0.5572	0.5288	0.6904	0.16
Mof_H 	H 	0.4491	0.5443	0.8982	-0.006
Mof_H 	H 	0.4635	0.2954	0.7763	0.138
Mof_H 	H 	0.383	0.3504	0.7506	-0.225
Mof_H 	H 	0.5134	0.5903	0.9706	0.052
Mof_H 	H 	0.7248	0.6064	0.1073	-0.057
Mof_H 	H 	0.6557	0.5321	0.0194	0.109
Mof_H 	H 	0.559	0.7075	0.0551	0.097
Mof_H 	H 	0.6317	0.7772	0.1413	-0.007
Mof_H 	H 	0.5725	0.3685	0.9057	0.169
Mof_H 	H 	0.5572	0.3096	0.8384	0.16
Mof_H 	H 	0.9491	0.4557	0.3539	-0.006
Mof_H 	H 	0.9635	0.7046	0.4809	0.138
Mof_H 	H 	0.883	0.6496	0.4002	-0.225
Mof_H 	H 	0.0134	0.4097	0.3803	0.052
Mof_H 	H 	0.2248	0.3936	0.5009	-0.057
Mof_H 	H 	0.1557	0.4679	0.4873	0.109
Mof_H 	H 	0.059	0.2925	0.3476	0.097
Mof_H 	H 	0.1317	0.2228	0.3641	-0.007
Mof_H 	H 	0.0725	0.6315	0.5372	0.169
Mof_H 	H 	0.0572	0.6904	0.5288	0.16
Mof_H 	H 	0.9491	0.8982	0.5443	-0.006
Mof_H 	H 	0.9635	0.7763	0.2954	0.138
Mof_H 	H 	0.883	0.7506	0.3504	-0.225
Mof_H 	H 	0.0134	0.9706	0.5903	0.052
Mof_H 	H 	0.2248	0.1073	0.6064	-0.057
Mof_H 	H 	0.1557	0.0194	0.5321	0.109
Mof_H 	H 	0.059	0.0551	0.7075	0.097
Mof_H 	H 	0.1317	0.1413	0.7772	-0.007
Mof_H 	H 	0.0725	0.9057	0.3685	0.169
Mof_H 	H 	0.0572	0.8384	0.3096	0.159
Mof_H 	H 	0.9491	0.6461	0.1018	-0.006
Mof_H 	H 	0.9635	0.5191	0.2237	0.138
Mof_H 	H 	0.883	0.5998	0.2494	-0.225
Mof_H 	H 	0.0134	0.6197	0.0294	0.052
Mof_H 	H 	0.2248	0.4991	0.8927	-0.057
Mof_H 	H 	0.1557	0.5127	0.9806	0.109
Mof_H 	H 	0.059	0.6524	0.9449	0.098
Mof_H 	H 	0.1317	0.6359	0.8587	-0.007
Mof_H 	H 	0.0725	0.4628	0.0943	0.169
Mof_H 	H 	0.0572	0.4712	0.1616	0.16
Mof_H 	H 	0.5509	0.8982	0.3539	-0.006
Mof_H 	H 	0.5365	0.7763	0.4809	0.138
Mof_H 	H 	0.617	0.7506	0.4002	-0.225
Mof_H 	H 	0.4866	0.9706	0.3803	0.052
Mof_H 	H 	0.2752	0.1073	0.5009	-0.057
Mof_H 	H 	0.3443	0.0194	0.4873	0.109
Mof_H 	H 	0.441	0.0551	0.3476	0.097
Mof_H 	H 	0.3683	0.1413	0.3641	-0.007
Mof_H 	H 	0.4275	0.9057	0.5372	0.169
Mof_H 	H 	0.4428	0.8384	0.5288	0.16
Mof_H 	H 	0.5509	0.6461	0.5443	-0.006
Mof_H 	H 	0.5365	0.5191	0.2954	0.138
Mof_H 	H 	0.617	0.5998	0.3504	-0.225
Mof_H 	H 	0.4866	0.6197	0.5903	0.052
Mof_H 	H 	0.2752	0.4991	0.6064	-0.057
Mof_H 	H 	0.3443	0.5127	0.5321	0.109
Mof_H 	H 	0.441	0.6524	0.7075	0.097
Mof_H 	H 	0.3683	0.6359	0.7772	-0.007
Mof_H 	H 	0.4275	0.4628	0.3685	0.169
Mof_H 	H 	0.4428	0.4712	0.3096	0.16
Mof_H 	H 	0.5509	0.4557	0.1018	-0.006
Mof_H 	H 	0.5365	0.7046	0.2237	0.138
Mof_H 	H 	0.617	0.6496	0.2494	-0.225
Mof_H 	H 	0.4866	0.4097	0.0294	0.052
Mof_H 	H 	0.2752	0.3936	0.8927	-0.057
Mof_H 	H 	0.3443	0.4679	0.9806	0.109
Mof_H 	H 	0.441	0.2925	0.9449	0.097
Mof_H 	H 	0.3683	0.2228	0.8587	-0.007
Mof_H 	H 	0.4275	0.6315	0.0943	0.169
Mof_H 	H 	0.4428	0.6904	0.1616	0.16
Mof_C 	C 	0.14875	0.4885	0.67697	0.575
Mof_C 	C 	0.09377	0.45253	0.62981	-0.352
Mof_C 	C 	0.04751	0.49419	0.62066	0.122
Mof_C 	C 	0.99636	0.46201	0.57408	-0.08
Mof_C 	C 	0.99221	0.38671	0.53461	0.217
Mof_C 	C 	0.03885	0.34559	0.54499	-0.341
Mof_C 	C 	0.08747	0.37852	0.59246	0.325
Mof_C 	C 	0.9513	0.5672	0.5913	-0.057
Mof_C 	C 	0.80944	0.62699	0.53028	0.144
Mof_C 	C 	0.85073	0.58178	0.53751	-0.217
Mof_C 	C 	0.90232	0.61196	0.58286	0.142
Mof_C 	C 	0.90764	0.68562	0.62022	-0.207
Mof_C 	C 	0.8638	0.72726	0.61016	0.12
Mof_C 	C 	0.14875	0.18847	0.5115	0.575
Mof_C 	C 	0.09377	0.17728	0.54747	-0.352
Mof_C 	C 	0.04751	0.12647	0.50581	0.122
Mof_C 	C 	0.99636	0.11207	0.53799	-0.08
Mof_C 	C 	0.99221	0.1479	0.61329	0.217
Mof_C 	C 	0.03885	0.1994	0.65441	-0.341
Mof_C 	C 	0.08747	0.21394	0.62148	0.325
Mof_C 	C 	0.9513	0.0241	0.4328	-0.057
Mof_C 	C 	0.80944	0.90329	0.37301	0.144
Mof_C 	C 	0.85073	0.95573	0.41822	-0.217
Mof_C 	C 	0.90232	0.9709	0.38804	0.143
Mof_C 	C 	0.90764	0.9346	0.31438	-0.207
Mof_C 	C 	0.8638	0.8829	0.27274	0.12
Mof_C 	C 	0.14875	0.32303	0.81153	0.575
Mof_C 	C 	0.09377	0.37019	0.82272	-0.352
Mof_C 	C 	0.04751	0.37934	0.87353	0.122
Mof_C 	C 	0.99636	0.42592	0.88793	-0.08
Mof_C 	C 	0.99221	0.46539	0.8521	0.217
Mof_C 	C 	0.03885	0.45501	0.8006	-0.341
Mof_C 	C 	0.08747	0.40754	0.78606	0.325
Mof_C 	C 	0.9513	0.4087	0.9759	-0.057
Mof_C 	C 	0.80944	0.46972	0.09671	0.144
Mof_C 	C 	0.85073	0.46249	0.04427	-0.217
Mof_C 	C 	0.90232	0.41714	0.0291	0.143
Mof_C 	C 	0.90764	0.37978	0.0654	-0.207
Mof_C 	C 	0.8638	0.38984	0.1171	0.12
Mof_C 	C 	0.35125	0.18847	0.67697	0.575
Mof_C 	C 	0.40623	0.17728	0.62981	-0.352
Mof_C 	C 	0.45249	0.12647	0.62066	0.122
Mof_C 	C 	0.50364	0.11207	0.57408	-0.08
Mof_C 	C 	0.50779	0.1479	0.53461	0.217
Mof_C 	C 	0.46115	0.1994	0.54499	-0.342
Mof_C 	C 	0.41253	0.21394	0.59246	0.325
Mof_C 	C 	0.5487	0.0241	0.5913	-0.057
Mof_C 	C 	0.69056	0.90329	0.53028	0.144
Mof_C 	C 	0.64927	0.95573	0.53751	-0.217
Mof_C 	C 	0.59768	0.9709	0.58286	0.142
Mof_C 	C 	0.59236	0.9346	0.62022	-0.207
Mof_C 	C 	0.6362	0.8829	0.61016	0.12
Mof_C 	C 	0.35125	0.32303	0.5115	0.575
Mof_C 	C 	0.40623	0.37019	0.54747	-0.352
Mof_C 	C 	0.45249	0.37934	0.50581	0.122
Mof_C 	C 	0.50364	0.42592	0.53799	-0.08
Mof_C 	C 	0.50779	0.46539	0.61329	0.217
Mof_C 	C 	0.46115	0.45501	0.65441	-0.342
Mof_C 	C 	0.41253	0.40754	0.62148	0.325
Mof_C 	C 	0.5487	0.4087	0.4328	-0.057
Mof_C 	C 	0.69056	0.46972	0.37301	0.144
Mof_C 	C 	0.64927	0.46249	0.41822	-0.217
Mof_C 	C 	0.59768	0.41714	0.38804	0.142
Mof_C 	C 	0.59236	0.37978	0.31438	-0.207
Mof_C 	C 	0.6362	0.38984	0.27274	0.12
Mof_C 	C 	0.35125	0.4885	0.81153	0.575
Mof_C 	C 	0.40623	0.45253	0.82272	-0.352
Mof_C 	C 	0.45249	0.49419	0.87353	0.122
Mof_C 	C 	0.50364	0.46201	0.88793	-0.08
Mof_C 	C 	0.50779	0.38671	0.8521	0.217
Mof_C 	C 	0.46115	0.34559	0.8006	-0.341
Mof_C 	C 	0.41253	0.37852	0.78606	0.325
Mof_C 	C 	0.5487	0.5672	0.9759	-0.057
Mof_C 	C 	0.69056	0.62699	0.09671	0.144
Mof_C 	C 	0.64927	0.58178	0.04427	-0.217
Mof_C 	C 	0.59768	0.61196	0.0291	0.142
Mof_C 	C 	0.59236	0.68562	0.0654	-0.207
Mof_C 	C 	0.6362	0.72726	0.1171	0.12
Mof_C 	C 	0.85125	0.5115	0.32303	0.575
Mof_C 	C 	0.90623	0.54747	0.37019	-0.352
Mof_C 	C 	0.95249	0.50581	0.37934	0.122
Mof_C 	C 	0.00364	0.53799	0.42592	-0.08
Mof_C 	C 	0.00779	0.61329	0.46539	0.217
Mof_C 	C 	0.96115	0.65441	0.45501	-0.341
Mof_C 	C 	0.91253	0.62148	0.40754	0.325
Mof_C 	C 	0.0487	0.4328	0.4087	-0.057
Mof_C 	C 	0.19056	0.37301	0.46972	0.144
Mof_C 	C 	0.14927	0.41822	0.46249	-0.217
Mof_C 	C 	0.09768	0.38804	0.41714	0.142
Mof_C 	C 	0.09236	0.31438	0.37978	-0.207
Mof_C 	C 	0.1362	0.27274	0.38984	0.12
Mof_C 	C 	0.85125	0.81153	0.4885	0.575
Mof_C 	C 	0.90623	0.82272	0.45253	-0.352
Mof_C 	C 	0.95249	0.87353	0.49419	0.122
Mof_C 	C 	0.00364	0.88793	0.46201	-0.08
Mof_C 	C 	0.00779	0.8521	0.38671	0.217
Mof_C 	C 	0.96115	0.8006	0.34559	-0.341
Mof_C 	C 	0.91253	0.78606	0.37852	0.325
Mof_C 	C 	0.0487	0.9759	0.5672	-0.057
Mof_C 	C 	0.19056	0.09671	0.62699	0.144
Mof_C 	C 	0.14927	0.04427	0.58178	-0.217
Mof_C 	C 	0.09768	0.0291	0.61196	0.143
Mof_C 	C 	0.09236	0.0654	0.68562	-0.207
Mof_C 	C 	0.1362	0.1171	0.72726	0.12
Mof_C 	C 	0.85125	0.67697	0.18847	0.575
Mof_C 	C 	0.90623	0.62981	0.17728	-0.352
Mof_C 	C 	0.95249	0.62066	0.12647	0.122
Mof_C 	C 	0.00364	0.57408	0.11207	-0.08
Mof_C 	C 	0.00779	0.53461	0.1479	0.217
Mof_C 	C 	0.96115	0.54499	0.1994	-0.341
Mof_C 	C 	0.91253	0.59246	0.21394	0.325
Mof_C 	C 	0.0487	0.5913	0.0241	-0.057
Mof_C 	C 	0.19056	0.53028	0.90329	0.144
Mof_C 	C 	0.14927	0.53751	0.95573	-0.217
Mof_C 	C 	0.09768	0.58286	0.9709	0.143
Mof_C 	C 	0.09236	0.62022	0.9346	-0.207
Mof_C 	C 	0.1362	0.61016	0.8829	0.12
Mof_C 	C 	0.64875	0.81153	0.32303	0.575
Mof_C 	C 	0.59377	0.82272	0.37019	-0.352
Mof_C 	C 	0.54751	0.87353	0.37934	0.122
Mof_C 	C 	0.49636	0.88793	0.42592	-0.08
Mof_C 	C 	0.49221	0.8521	0.46539	0.217
Mof_C 	C 	0.53885	0.8006	0.45501	-0.342
Mof_C 	C 	0.58747	0.78606	0.40754	0.325
Mof_C 	C 	0.4513	0.9759	0.4087	-0.057
Mof_C 	C 	0.30944	0.09671	0.46972	0.144
Mof_C 	C 	0.35073	0.04427	0.46249	-0.217
Mof_C 	C 	0.40232	0.0291	0.41714	0.142
Mof_C 	C 	0.40764	0.0654	0.37978	-0.207
Mof_C 	C 	0.3638	0.1171	0.38984	0.12
Mof_C 	C 	0.64875	0.67697	0.4885	0.575
Mof_C 	C 	0.59377	0.62981	0.45253	-0.352
Mof_C 	C 	0.54751	0.62066	0.49419	0.122
Mof_C 	C 	0.49636	0.57408	0.46201	-0.08
Mof_C 	C 	0.49221	0.53461	0.38671	0.217
Mof_C 	C 	0.53885	0.54499	0.34559	-0.342
Mof_C 	C 	0.58747	0.59246	0.37852	0.325
Mof_C 	C 	0.4513	0.5913	0.5672	-0.057
Mof_C 	C 	0.30944	0.53028	0.62699	0.144
Mof_C 	C 	0.35073	0.53751	0.58178	-0.217
Mof_C 	C 	0.40232	0.58286	0.61196	0.142
Mof_C 	C 	0.40764	0.62022	0.68562	-0.207
Mof_C 	C 	0.3638	0.61016	0.72726	0.12
Mof_C 	C 	0.64875	0.5115	0.18847	0.575
Mof_C 	C 	0.59377	0.54747	0.17728	-0.352
Mof_C 	C 	0.54751	0.50581	0.12647	0.122
Mof_C 	C 	0.49636	0.53799	0.11207	-0.08
Mof_C 	C 	0.49221	0.61329	0.1479	0.217
Mof_C 	C 	0.53885	0.65441	0.1994	-0.341
Mof_C 	C 	0.58747	0.62148	0.21394	0.325
Mof_C 	C 	0.4513	0.4328	0.0241	-0.057
Mof_C 	C 	0.30944	0.37301	0.90329	0.144
Mof_C 	C 	0.35073	0.41822	0.95573	-0.217
Mof_C 	C 	0.40232	0.38804	0.9709	0.142
Mof_C 	C 	0.40764	0.31438	0.9346	-0.207
Mof_C 	C 	0.3638	0.27274	0.8829	0.12
Mof_N 	N 	0.94778	0.50031	0.56242	-0.083
Mof_N 	N 	0.81502	0.69883	0.56504	-0.197
Mof_N 	N 	0.9422	0.35481	0.49051	-0.349
Mof_N 	N 	0.94778	0.06211	0.49969	-0.083
Mof_N 	N 	0.81502	0.86621	0.30117	-0.197
Mof_N 	N 	0.9422	0.1357	0.64519	-0.349
Mof_N 	N 	0.94778	0.43758	0.93789	-0.083
Mof_N 	N 	0.81502	0.43496	0.13379	-0.197
Mof_N 	N 	0.9422	0.50949	0.8643	-0.349
Mof_N 	N 	0.55222	0.06211	0.56242	-0.083
Mof_N 	N 	0.68498	0.86621	0.56504	-0.197
Mof_N 	N 	0.5578	0.1357	0.49051	-0.349
Mof_N 	N 	0.55222	0.43758	0.49969	-0.083
Mof_N 	N 	0.68498	0.43496	0.30117	-0.197
Mof_N 	N 	0.5578	0.50949	0.64519	-0.349
Mof_N 	N 	0.55222	0.50031	0.93789	-0.083
Mof_N 	N 	0.68498	0.69883	0.13379	-0.197
Mof_N 	N 	0.5578	0.35481	0.8643	-0.349
Mof_N 	N 	0.05222	0.49969	0.43758	-0.083
Mof_N 	N 	0.18498	0.30117	0.43496	-0.197
Mof_N 	N 	0.0578	0.64519	0.50949	-0.349
Mof_N 	N 	0.05222	0.93789	0.50031	-0.083
Mof_N 	N 	0.18498	0.13379	0.69883	-0.197
Mof_N 	N 	0.0578	0.8643	0.35481	-0.349
Mof_N 	N 	0.05222	0.56242	0.06211	-0.083
Mof_N 	N 	0.18498	0.56504	0.86621	-0.197
Mof_N 	N 	0.0578	0.49051	0.1357	-0.349
Mof_N 	N 	0.44778	0.93789	0.43758	-0.083
Mof_N 	N 	0.31502	0.13379	0.43496	-0.197
Mof_N 	N 	0.4422	0.8643	0.50949	-0.349
Mof_N 	N 	0.44778	0.56242	0.50031	-0.083
Mof_N 	N 	0.31502	0.56504	0.69883	-0.197
Mof_N 	N 	0.4422	0.49051	0.35481	-0.349
Mof_N 	N 	0.44778	0.49969	0.06211	-0.083
Mof_N 	N 	0.31502	0.30117	0.86621	-0.197
Mof_N 	N 	0.4422	0.64519	0.1357	-0.349
Mof_O 	O 	0.19099	0.45008	0.68375	-0.889
Mof_O 	O 	0.15375	0.55722	0.71121	-0.354
Mof_O 	O 	0.19099	0.23367	0.54992	-0.889
Mof_O 	O 	0.15375	0.15399	0.44278	-0.354
Mof_O 	O 	0.19099	0.31625	0.76633	-0.889
Mof_O 	O 	0.15375	0.28879	0.84601	-0.354
Mof_O 	O 	0.30901	0.23367	0.68375	-0.889
Mof_O 	O 	0.34625	0.15399	0.71121	-0.354
Mof_O 	O 	0.30901	0.31625	0.54992	-0.889
Mof_O 	O 	0.34625	0.28879	0.44278	-0.354
Mof_O 	O 	0.30901	0.45008	0.76633	-0.889
Mof_O 	O 	0.34625	0.55722	0.84601	-0.354
Mof_O 	O 	0.80901	0.54992	0.31625	-0.889
Mof_O 	O 	0.84625	0.44278	0.28879	-0.354
Mof_O 	O 	0.80901	0.76633	0.45008	-0.889
Mof_O 	O 	0.84625	0.84601	0.55722	-0.354
Mof_O 	O 	0.80901	0.68375	0.23367	-0.889
Mof_O 	O 	0.84625	0.71121	0.15399	-0.354
Mof_O 	O 	0.69099	0.76633	0.31625	-0.889
Mof_O 	O 	0.65375	0.84601	0.28879	-0.354
Mof_O 	O 	0.69099	0.68375	0.45008	-0.889
Mof_O 	O 	0.65375	0.71121	0.55722	-0.354
Mof_O 	O 	0.69099	0.54992	0.23367	-0.889
Mof_O 	O 	0.65375	0.44278	0.15399	-0.354
_end
