data_functionalizedCrystal
_audit_creation_method	'EQeq! by Chris Wilmer'
_symmetry_space_group_name_H-M	'P1'
_symmetry_Int_Tables_number	1
_symmetry_cell_setting	triclinic
loop_
_symmetry_equiv_pos_as_xyz
  x,y,z
_cell_length_a	9.2021
_cell_length_b	9.2021
_cell_length_c	14.1973
_cell_angle_alpha	79.839
_cell_angle_beta	79.8393
_cell_angle_gamma	117.106
loop_
_atom_site_label
_atom_site_type_symbol
_atom_site_fract_x
_atom_site_fract_y
_atom_site_fract_z
_atom_site_charge
Mof_Er	Er	0.00868	0.75868	0.98264	1.774
Mof_Er	Er	0.24132	0.99132	0.51736	1.8
Mof_Er	Er	0.99132	0.24132	0.01736	1.774
Mof_Er	Er	0.75868	0.00868	0.48264	1.8
Mof_H 	H 	0.3949	0.8169	0.0696	0.085
Mof_H 	H 	0.5355	0.6135	0.0696	0.087
Mof_H 	H 	0.1831	0.6051	0.4304	0.085
Mof_H 	H 	0.3865	0.4645	0.4304	0.087
Mof_H 	H 	0.6051	0.1831	0.9304	0.085
Mof_H 	H 	0.4645	0.3865	0.9304	0.087
Mof_H 	H 	0.8169	0.3949	0.5696	0.085
Mof_H 	H 	0.6135	0.5355	0.5696	0.087
Mof_C 	C 	0.24006	0.57206	0.05948	0.43
Mof_C 	C 	0.39742	0.71822	0.06556	-0.147
Mof_C 	C 	0.70046	0.86846	0.05948	0.446
Mof_C 	C 	0.53702	0.71622	0.06556	-0.159
Mof_C 	C 	0.42794	0.75994	0.44052	0.433
Mof_C 	C 	0.28178	0.60258	0.43444	-0.15
Mof_C 	C 	0.13154	0.29954	0.44052	0.443
Mof_C 	C 	0.28378	0.46298	0.43444	-0.157
Mof_C 	C 	0.75994	0.42794	0.94052	0.43
Mof_C 	C 	0.60258	0.28178	0.93444	-0.147
Mof_C 	C 	0.29954	0.13154	0.94052	0.446
Mof_C 	C 	0.46298	0.28378	0.93444	-0.159
Mof_C 	C 	0.57206	0.24006	0.55948	0.433
Mof_C 	C 	0.71822	0.39742	0.56556	-0.15
Mof_C 	C 	0.86846	0.70046	0.55948	0.443
Mof_C 	C 	0.71622	0.53702	0.56556	-0.157
Mof_C 	C 	0.0756	0.9244	0.75	0.275
Mof_C 	C 	0.1744	0.8256	0.75	0.273
Mof_C 	C 	0.9244	0.0756	0.25	0.275
Mof_C 	C 	0.8256	0.1744	0.25	0.273
Mof_O 	O 	0.13198	0.60682	0.0348	-0.539
Mof_O 	O 	0.22029	0.42449	0.07462	-0.445
Mof_O 	O 	0.00701	0.92683	0.83336	-0.405
Mof_O 	O 	0.83322	0.85838	0.0348	-0.544
Mof_O 	O 	0.70509	0.00089	0.07462	-0.463
Mof_O 	O 	0.15963	0.73981	0.83336	-0.397
Mof_O 	O 	0.39318	0.86802	0.4652	-0.549
Mof_O 	O 	0.57551	0.77971	0.42538	-0.451
Mof_O 	O 	0.07317	0.99299	0.66664	-0.406
Mof_O 	O 	0.14162	0.16678	0.4652	-0.547
Mof_O 	O 	0.99911	0.29491	0.42538	-0.461
Mof_O 	O 	0.26019	0.84037	0.66664	-0.398
Mof_O 	O 	0.86802	0.39318	0.9652	-0.539
Mof_O 	O 	0.77971	0.57551	0.92538	-0.445
Mof_O 	O 	0.99299	0.07317	0.16664	-0.405
Mof_O 	O 	0.16678	0.14162	0.9652	-0.544
Mof_O 	O 	0.29491	0.99911	0.92538	-0.463
Mof_O 	O 	0.84037	0.26019	0.16664	-0.397
Mof_O 	O 	0.60682	0.13198	0.5348	-0.549
Mof_O 	O 	0.42449	0.22029	0.57462	-0.451
Mof_O 	O 	0.92683	0.00701	0.33336	-0.406
Mof_O 	O 	0.85838	0.83322	0.5348	-0.547
Mof_O 	O 	0.00089	0.70509	0.57462	-0.461
Mof_O 	O 	0.73981	0.15963	0.33336	-0.398
_end
