data_functionalizedCrystal
_audit_creation_method	'EQeq! by Chris Wilmer'
_symmetry_space_group_name_H-M	'P1'
_symmetry_Int_Tables_number	1
_symmetry_cell_setting	triclinic
loop_
_symmetry_equiv_pos_as_xyz
  x,y,z
_cell_length_a	17.9398
_cell_length_b	19.7466
_cell_length_c	25.7517
_cell_angle_alpha	104.053
_cell_angle_beta	101.161
_cell_angle_gamma	113.805
loop_
_atom_site_label
_atom_site_type_symbol
_atom_site_fract_x
_atom_site_fract_y
_atom_site_fract_z
_atom_site_charge
Mof_Cu	Cu	0.95829	0.97425	0.13992	0.823
Mof_Cu	Cu	0.76025	0.52331	0.35112	0.834
Mof_Cu	Cu	0.29461	0.09124	0.37036	0.83
Mof_Cu	Cu	0.89199	0.43392	0.14346	0.832
Mof_Cu	Cu	0.31837	0.83433	0.86008	0.838
Mof_Cu	Cu	0.90913	0.17219	0.64888	0.828
Mof_Cu	Cu	0.42425	0.72088	0.62964	0.836
Mof_Cu	Cu	0.24853	0.29046	0.85654	0.838
Mof_P 	P 	0.0257	0.09578	0.20112	0.003
Mof_P 	P 	0.30244	0.14922	0.3075	-0.064
Mof_P 	P 	0.68639	0.40092	0.2921	-0.088
Mof_P 	P 	0.87372	0.36103	0.19682	-0.064
Mof_P 	P 	0.32458	0.89466	0.79888	-0.046
Mof_P 	P 	0.49494	0.84172	0.6925	-0.067
Mof_P 	P 	0.89429	0.10882	0.7079	-0.099
Mof_P 	P 	0.1769	0.16421	0.80318	-0.074
Mof_H 	H 	0.8817	0.9814	0.027	0.028
Mof_H 	H 	0.7494	0.9432	0.964	0.122
Mof_H 	H 	0.6353	0.8269	0.0578	0.126
Mof_H 	H 	0.7689	0.8709	0.1218	0.009
Mof_H 	H 	0.4848	0.8489	0.847	-0.027
Mof_H 	H 	0.6114	0.8595	0.8926	0.097
Mof_H 	H 	0.5335	0.8648	0.0298	0.122
Mof_H 	H 	0.4079	0.848	0.9758	0.008
Mof_H 	H 	0.9343	0.9603	0.2526	-0.009
Mof_H 	H 	0.8904	0.8693	0.294	0.089
Mof_H 	H 	0.8594	0.704	0.1528	0.118
Mof_H 	H 	0.9034	0.8018	0.1142	0.025
Mof_H 	H 	0.8801	0.6937	0.3778	0.036
Mof_H 	H 	0.9256	0.7888	0.3364	0.112
Mof_H 	H 	0.757	0.6192	0.186	0.092
Mof_H 	H 	0.7191	0.531	0.2308	-0.013
Mof_H 	H 	0.6785	0.6318	0.365	0.002
Mof_H 	H 	0.609	0.6723	0.4216	0.134
Mof_H 	H 	0.6617	0.5567	0.5198	0.127
Mof_H 	H 	0.7322	0.5208	0.4612	0.029
Mof_H 	H 	0.4728	0.7401	0.5304	0.04
Mof_H 	H 	0.5451	0.7028	0.472	0.128
Mof_H 	H 	0.5968	0.5882	0.5682	0.141
Mof_H 	H 	0.5173	0.6191	0.621	0.002
Mof_H 	H 	0.1601	0.9726	0.2582	-0.016
Mof_H 	H 	0.0797	0.8393	0.209	0.133
Mof_H 	H 	0.1468	0.807	0.3558	0.173
Mof_H 	H 	0.2404	0.9393	0.3974	0.035
Mof_H 	H 	0.9746	0.5867	0.1218	0.093
Mof_H 	H 	0.0523	0.72	0.169	0.084
Mof_H 	H 	0.0354	0.6878	0.3146	0.081
Mof_H 	H 	0.951	0.5534	0.2628	0.008
Mof_H 	H 	0.8892	0.6419	0.4638	0.036
Mof_H 	H 	0.03	0.6917	0.5182	0.062
Mof_H 	H 	0.0431	0.5234	0.4008	0.035
Mof_H 	H 	0.9023	0.4794	0.3514	0.024
Mof_H 	H 	0.32	0.797	0.5872	-0.01
Mof_H 	H 	0.1774	0.7575	0.5322	0.151
Mof_H 	H 	0.1481	0.5404	0.4724	0.132
Mof_H 	H 	0.285	0.5851	0.5304	0.02
Mof_H 	H 	0.07	0.5123	0.1336	-0.026
Mof_H 	H 	0.1527	0.4842	0.0806	0.119
Mof_H 	H 	0.9304	0.2898	0.9728	0.121
Mof_H 	H 	0.8667	0.3199	0.0368	-0.029
Mof_H 	H 	0.1029	0.2118	0.9008	0.03
Mof_H 	H 	0.0255	0.244	0.9544	0.099
Mof_H 	H 	0.1884	0.473	0.996	0.102
Mof_H 	H 	0.2529	0.4372	0.9344	0.067
Mof_H 	H 	0.0217	0.1146	0.0948	0.063
Mof_H 	H 	0.0654	0.2254	0.064	0.1
Mof_H 	H 	0.1375	0.356	0.136	0.055
Mof_H 	H 	0.1547	0.3729	0.227	0.04
Mof_H 	H 	0.1082	0.266	0.2562	0.064
Mof_H 	H 	0.8619	0.0774	0.1924	-0.039
Mof_H 	H 	0.7826	0.1003	0.2482	0.113
Mof_H 	H 	0.8591	0.1687	0.347	-0.021
Mof_H 	H 	0.9883	0.1782	0.3856	0.155
Mof_H 	H 	0.0763	0.178	0.3234	-0.039
Mof_H 	H 	0.2769	0.271	0.2722	0.061
Mof_H 	H 	0.3553	0.4103	0.3098	0.04
Mof_H 	H 	0.4889	0.4731	0.3806	0.058
Mof_H 	H 	0.5294	0.4052	0.4292	0.097
Mof_H 	H 	0.4576	0.2675	0.3874	0.065
Mof_H 	H 	0.3475	0.1912	0.209	0.052
Mof_H 	H 	0.4087	0.1442	0.1474	0.086
Mof_H 	H 	0.4246	0.035	0.143	0.083
Mof_H 	H 	0.3883	0.9693	0.2056	0.11
Mof_H 	H 	0.3369	0.0189	0.2752	0.001
Mof_H 	H 	0.6819	0.3868	0.3998	0.079
Mof_H 	H 	0.6505	0.2817	0.4348	0.063
Mof_H 	H 	0.5946	0.1522	0.3748	0.073
Mof_H 	H 	0.5656	0.1282	0.2788	0.026
Mof_H 	H 	0.6032	0.2264	0.2442	0.09
Mof_H 	H 	0.5816	0.2913	0.1724	0.154
Mof_H 	H 	0.4654	0.2749	0.1078	0.018
Mof_H 	H 	0.3911	0.3409	0.1336	0.111
Mof_H 	H 	0.4372	0.4255	0.2206	0
Mof_H 	H 	0.5689	0.4616	0.2876	0.062
Mof_H 	H 	0.0485	0.4745	0.2392	0.012
Mof_H 	H 	0.1683	0.5124	0.3086	0.064
Mof_H 	H 	0.1616	0.4556	0.3758	0.061
Mof_H 	H 	0.0394	0.3459	0.3656	0.072
Mof_H 	H 	0.9058	0.2991	0.2876	0.065
Mof_H 	H 	0.9223	0.2586	0.1332	0.028
Mof_H 	H 	0.8673	0.1323	0.0756	0.059
Mof_H 	H 	0.7289	0.0415	0.0786	0.048
Mof_H 	H 	0.6501	0.0841	0.121	0.074
Mof_H 	H 	0.7168	0.2217	0.18	0.078
Mof_H 	H 	0.3547	0.9544	0.973	0.036
Mof_H 	H 	0.2854	0.9792	0.036	0.137
Mof_H 	H 	0.0775	0.7691	0.9422	0.142
Mof_H 	H 	0.1471	0.7491	0.8782	0.007
Mof_H 	H 	0.1378	0.0019	0.153	-0.057
Mof_H 	H 	0.2188	0.9669	0.1074	0.1
Mof_H 	H 	0.0037	0.835	0.9702	0.082
Mof_H 	H 	0.9321	0.8722	0.0242	0.055
Mof_H 	H 	0.1817	0.7077	0.7474	-0.006
Mof_H 	H 	0.0964	0.5753	0.706	0.09
Mof_H 	H 	0.2066	0.5512	0.8472	0.117
Mof_H 	H 	0.2892	0.6876	0.8858	0.036
Mof_H 	H 	0.0023	0.3159	0.6222	0.034
Mof_H 	H 	0.0892	0.4524	0.6636	0.15
Mof_H 	H 	0.071	0.4332	0.814	0.143
Mof_H 	H 	0.9883	0.3002	0.7692	-0.116
Mof_H 	H 	0.8135	0.2668	0.635	-0.01
Mof_H 	H 	0.6874	0.2507	0.5784	0.134
Mof_H 	H 	0.6419	0.0369	0.4802	0.124
Mof_H 	H 	0.771	0.0596	0.5388	0.02
Mof_H 	H 	0.4424	0.2097	0.4696	0.043
Mof_H 	H 	0.5731	0.2308	0.528	0.121
Mof_H 	H 	0.5286	0.02	0.4318	0.118
Mof_H 	H 	0.3963	0.9981	0.379	0.051
Mof_H 	H 	0.4019	0.7144	0.7418	-0.023
Mof_H 	H 	0.3707	0.6303	0.791	0.108
Mof_H 	H 	0.291	0.4512	0.6442	0.156
Mof_H 	H 	0.343	0.5419	0.6026	0.033
Mof_H 	H 	0.3528	0.4649	0.8782	0.059
Mof_H 	H 	0.3833	0.551	0.831	0.132
Mof_H 	H 	0.2208	0.3732	0.6854	0.124
Mof_H 	H 	0.1882	0.2906	0.7372	-0.02
Mof_H 	H 	0.9254	0.1781	0.5362	0.023
Mof_H 	H 	0.0118	0.1735	0.4818	0.085
Mof_H 	H 	0.1423	0.1226	0.5992	0.08
Mof_H 	H 	0.0509	0.128	0.6486	-0.017
Mof_H 	H 	0.2328	0.2098	0.4128	-0.006
Mof_H 	H 	0.1452	0.2253	0.4678	0.143
Mof_H 	H 	0.1757	0.068	0.5276	0.116
Mof_H 	H 	0.2546	0.0547	0.4696	0.018
Mof_H 	H 	0.4364	0.3787	0.8664	-0.008
Mof_H 	H 	0.5721	0.4036	0.9194	0.09
Mof_H 	H 	0.4576	0.317	0.0272	0.089
Mof_H 	H 	0.3299	0.2831	0.9632	-0.01
Mof_H 	H 	0.7021	0.311	0.0992	0.02
Mof_H 	H 	0.5711	0.2896	0.0456	0.093
Mof_H 	H 	0.6924	0.477	0.004	0.111
Mof_H 	H 	0.8185	0.5028	0.0656	0.059
Mof_H 	H 	0.4269	0.0198	0.9052	0.042
Mof_H 	H 	0.5014	0.1614	0.936	0.097
Mof_H 	H 	0.5015	0.22	0.864	0.047
Mof_H 	H 	0.4277	0.1459	0.773	0.042
Mof_H 	H 	0.352	0.0098	0.7438	0.042
Mof_H 	H 	0.1695	0.885	0.8076	0.039
Mof_H 	H 	0.0344	0.8521	0.7518	0.06
Mof_H 	H 	0.0121	0.8217	0.653	0.073
Mof_H 	H 	0.1027	0.7926	0.6144	0.092
Mof_H 	H 	0.2529	0.8546	0.6766	0.057
Mof_H 	H 	0.5047	0.9988	0.7278	0.063
Mof_H 	H 	0.5455	0.1005	0.6902	0.037
Mof_H 	H 	0.6083	0.0925	0.6194	0.077
Mof_H 	H 	0.6002	0.976	0.5708	0.079
Mof_H 	H 	0.5702	0.8801	0.6126	0.076
Mof_H 	H 	0.6385	0.9822	0.791	0.072
Mof_H 	H 	0.7613	0.9968	0.8526	0.08
Mof_H 	H 	0.7816	0.892	0.857	0.113
Mof_H 	H 	0.6827	0.7637	0.7944	0.048
Mof_H 	H 	0.5617	0.7437	0.7248	0.03
Mof_H 	H 	0.7821	0.987	0.6002	0.096
Mof_H 	H 	0.7157	0.8469	0.5652	0.057
Mof_H 	H 	0.7198	0.7774	0.6252	0.081
Mof_H 	H 	0.7868	0.8494	0.7212	0.017
Mof_H 	H 	0.859	0.9822	0.7558	0.104
Mof_H 	H 	0.9092	0.1189	0.8276	0.139
Mof_H 	H 	0.8576	0.1671	0.8922	0.014
Mof_H 	H 	0.7575	0.2073	0.8664	0.104
Mof_H 	H 	0.7166	0.2049	0.7794	-0
Mof_H 	H 	0.7813	0.174	0.7124	0.057
Mof_H 	H 	0.3093	0.2353	0.7608	0.005
Mof_H 	H 	0.3597	0.2038	0.6914	0.073
Mof_H 	H 	0.2858	0.0798	0.6242	0.025
Mof_H 	H 	0.1738	0.9803	0.6344	0.138
Mof_H 	H 	0.1182	0.0115	0.7124	0.033
Mof_H 	H 	0.2891	0.1254	0.8668	0.04
Mof_H 	H 	0.2917	0.0567	0.9244	0.076
Mof_H 	H 	0.1503	0.9629	0.9214	0.055
Mof_H 	H 	0.0291	0.9631	0.879	0.087
Mof_H 	H 	0.0368	0.0417	0.82	0.097
Mof_C 	C 	0.8313	0.9509	0.0344	0.091
Mof_C 	C 	0.7519	0.9286	0.9966	-0.107
Mof_C 	C 	0.67812	0.88632	0.00564	0.061
Mof_C 	C 	0.6857	0.8612	0.0522	-0.121
Mof_C 	C 	0.7652	0.8857	0.0892	0.074
Mof_C 	C 	0.4952	0.8514	0.8852	0.137
Mof_C 	C 	0.5719	0.8598	0.9124	-0.141
Mof_C 	C 	0.59409	0.86899	0.96998	0.095
Mof_C 	C 	0.5263	0.862	0.9916	-0.116
Mof_C 	C 	0.4514	0.8516	0.959	0.139
Mof_C 	C 	0.9207	0.9076	0.2322	0.073
Mof_C 	C 	0.8948	0.8537	0.2572	-0.133
Mof_C 	C 	0.875	0.7764	0.2302	0.06
Mof_C 	C 	0.8764	0.7571	0.1748	-0.13
Mof_C 	C 	0.9032	0.8165	0.1522	0.088
Mof_C 	C 	0.8549	0.6785	0.338	0.072
Mof_C 	C 	0.8827	0.7358	0.3136	-0.116
Mof_C 	C 	0.8474	0.7146	0.2564	0.057
Mof_C 	C 	0.7839	0.6359	0.2256	-0.133
Mof_C 	C 	0.7615	0.5843	0.253	0.084
Mof_C 	C 	0.6751	0.6158	0.3968	0.095
Mof_C 	C 	0.6337	0.6404	0.4306	-0.149
Mof_C 	C 	0.62764	0.61944	0.47748	0.066
Mof_C 	C 	0.6644	0.5733	0.4882	-0.124
Mof_C 	C 	0.7056	0.5515	0.4524	0.077
Mof_C 	C 	0.4963	0.7068	0.538	0.088
Mof_C 	C 	0.5415	0.6858	0.5034	-0.128
Mof_C 	C 	0.57923	0.64253	0.51426	0.079
Mof_C 	C 	0.5703	0.6186	0.5588	-0.155
Mof_C 	C 	0.5235	0.6377	0.5906	0.096
Mof_C 	C 	0.1613	0.9372	0.2772	0.122
Mof_C 	C 	0.1113	0.8582	0.2482	-0.178
Mof_C 	C 	0.1063	0.8049	0.2758	0.141
Mof_C 	C 	0.1528	0.8396	0.3336	-0.174
Mof_C 	C 	0.2061	0.9186	0.3586	0.142
Mof_C 	C 	0.9863	0.6069	0.1616	-0.071
Mof_C 	C 	0.033	0.6862	0.1896	0.051
Mof_C 	C 	0.0527	0.718	0.2458	-0.035
Mof_C 	C 	0.0228	0.6681	0.2748	0.012
Mof_C 	C 	0.9734	0.5875	0.243	-0.033
Mof_C 	C 	0.9212	0.617	0.451	-0.036
Mof_C 	C 	0.0053	0.6473	0.4838	0.057
Mof_C 	C 	0.0541	0.6122	0.4664	-0.04
Mof_C 	C 	0.0127	0.549	0.4154	0.053
Mof_C 	C 	0.929	0.5233	0.386	-0.062
Mof_C 	C 	0.2819	0.7423	0.5662	0.113
Mof_C 	C 	0.1971	0.7196	0.533	-0.174
Mof_C 	C 	0.1438	0.6396	0.5014	0.159
Mof_C 	C 	0.1794	0.5934	0.4986	-0.187
Mof_C 	C 	0.2621	0.6212	0.5336	0.154
Mof_C 	C 	0.042	0.4652	0.101	0.214
Mof_C 	C 	0.0923	0.4502	0.0686	-0.2
Mof_C 	C 	0.0502	0.3822	0.0168	0.185
Mof_C 	C 	0.9634	0.3356	0.0062	-0.266
Mof_C 	C 	0.9254	0.356	0.0442	0.149
Mof_C 	C 	0.1194	0.2663	0.9184	0.061
Mof_C 	C 	0.0735	0.285	0.9512	-0.075
Mof_C 	C 	0.0968	0.3618	0.9792	0.009
Mof_C 	C 	0.1671	0.4185	0.9746	-0.075
Mof_C 	C 	0.2067	0.3962	0.939	0.054
Mof_C 	C 	0.1268	0.1162	0.245	-0.055
Mof_C 	C 	0.19921	0.12871	0.26762	-0.047
Mof_C 	C 	0.7492	0.3787	0.2512	-0.044
Mof_C 	C 	0.7984	0.3696	0.2312	-0.051
Mof_C 	C 	0.0607	0.181	0.1792	0.001
Mof_C 	C 	0.0479	0.1672	0.1214	-0.04
Mof_C 	C 	0.0746	0.2324	0.103	-0.008
Mof_C 	C 	0.1169	0.3107	0.1466	-0.049
Mof_C 	C 	0.1274	0.3206	0.1996	-0.011
Mof_C 	C 	0.0998	0.257	0.217	-0.053
Mof_C 	C 	0.9742	0.1183	0.2526	-0.256
Mof_C 	C 	0.8894	0.1011	0.2324	0.135
Mof_C 	C 	0.8416	0.1146	0.264	-0.233
Mof_C 	C 	0.887	0.1518	0.3228	0.183
Mof_C 	C 	0.965	0.1644	0.3458	-0.31
Mof_C 	C 	0.0156	0.1565	0.3084	0.259
Mof_C 	C 	0.3606	0.2575	0.3306	0.01
Mof_C 	C 	0.3286	0.298	0.3036	-0.069
Mof_C 	C 	0.3761	0.3797	0.3252	-0.006
Mof_C 	C 	0.4541	0.4175	0.3694	-0.055
Mof_C 	C 	0.4807	0.3786	0.3956	-0.004
Mof_C 	C 	0.4346	0.297	0.3724	-0.056
Mof_C 	C 	0.3441	0.1164	0.2536	-0.029
Mof_C 	C 	0.3595	0.1491	0.2112	-0.034
Mof_C 	C 	0.3924	0.1185	0.1732	-0.047
Mof_C 	C 	0.4027	0.0541	0.1708	-0.005
Mof_C 	C 	0.3822	0.0155	0.2082	-0.109
Mof_C 	C 	0.3521	0.0453	0.2496	-0.018
Mof_C 	C 	0.6522	0.3171	0.3176	0.036
Mof_C 	C 	0.6619	0.3342	0.375	-0.097
Mof_C 	C 	0.6408	0.2706	0.3954	0.034
Mof_C 	C 	0.6072	0.1943	0.3606	-0.104
Mof_C 	C 	0.5926	0.1813	0.3044	0.039
Mof_C 	C 	0.6143	0.2394	0.2838	-0.11
Mof_C 	C 	0.5901	0.3792	0.237	0.075
Mof_C 	C 	0.5548	0.3228	0.183	-0.185
Mof_C 	C 	0.4852	0.3112	0.1454	0.136
Mof_C 	C 	0.4422	0.3503	0.1602	-0.201
Mof_C 	C 	0.4705	0.4005	0.2104	0.118
Mof_C 	C 	0.5475	0.421	0.2516	-0.162
Mof_C 	C 	0.9659	0.3857	0.256	-0.067
Mof_C 	C 	0.0448	0.447	0.265	0.033
Mof_C 	C 	0.1152	0.4707	0.306	-0.06
Mof_C 	C 	0.1114	0.4354	0.344	-0.037
Mof_C 	C 	0.0387	0.3719	0.339	0.022
Mof_C 	C 	0.9584	0.3431	0.2924	-0.099
Mof_C 	C 	0.8255	0.254	0.1608	-0.009
Mof_C 	C 	0.8658	0.2224	0.1302	-0.049
Mof_C 	C 	0.8369	0.1493	0.0974	-0.036
Mof_C 	C 	0.7523	0.0967	0.0984	-0.033
Mof_C 	C 	0.7069	0.12	0.1244	-0.012
Mof_C 	C 	0.7466	0.2029	0.1586	-0.045
Mof_C 	C 	0.2969	0.9165	0.9656	0.107
Mof_C 	C 	0.2553	0.932	0.0034	-0.133
Mof_C 	C 	0.17248	0.88068	0.99436	0.098
Mof_C 	C 	0.1335	0.809	0.9478	-0.143
Mof_C 	C 	0.176	0.7965	0.9108	0.085
Mof_C 	C 	0.11	0.9662	0.1148	0.168
Mof_C 	C 	0.1595	0.9474	0.0876	-0.119
Mof_C 	C 	0.12411	0.89901	0.03002	0.036
Mof_C 	C 	0.0347	0.8704	0.0084	0.038
Mof_C 	C 	0.9924	0.8926	0.041	-0.048
Mof_C 	C 	0.1885	0.6754	0.7678	0.072
Mof_C 	C 	0.1376	0.5965	0.7428	-0.111
Mof_C 	C 	0.1448	0.5462	0.7698	0.036
Mof_C 	C 	0.2016	0.5823	0.8252	-0.105
Mof_C 	C 	0.251	0.6643	0.8478	0.088
Mof_C 	C 	0.0169	0.3405	0.662	0.166
Mof_C 	C 	0.0691	0.4222	0.6864	-0.182
Mof_C 	C 	0.091	0.4582	0.7436	0.137
Mof_C 	C 	0.0583	0.4103	0.7744	-0.256
Mof_C 	C 	0.0085	0.3313	0.747	0.291
Mof_C 	C 	0.7783	0.219	0.6032	0.099
Mof_C 	C 	0.7031	0.2098	0.5694	-0.16
Mof_C 	C 	0.65016	0.14196	0.52252	0.076
Mof_C 	C 	0.6762	0.0851	0.5118	-0.133
Mof_C 	C 	0.7532	0.0991	0.5476	0.079
Mof_C 	C 	0.4583	0.1688	0.462	0.077
Mof_C 	C 	0.5381	0.1824	0.4966	-0.11
Mof_C 	C 	0.56497	0.12827	0.48574	0.053
Mof_C 	C 	0.5115	0.0598	0.4412	-0.112
Mof_C 	C 	0.4329	0.0471	0.4094	0.023
Mof_C 	C 	0.3841	0.66	0.7228	0.095
Mof_C 	C 	0.3631	0.61	0.7518	-0.147
Mof_C 	C 	0.3305	0.5291	0.7242	0.075
Mof_C 	C 	0.3192	0.506	0.6664	-0.142
Mof_C 	C 	0.3475	0.56	0.6414	0.119
Mof_C 	C 	0.3247	0.4453	0.8384	0.075
Mof_C 	C 	0.3434	0.4966	0.8104	-0.132
Mof_C 	C 	0.3069	0.4722	0.7542	0.078
Mof_C 	C 	0.248	0.3933	0.7252	-0.155
Mof_C 	C 	0.2304	0.3445	0.757	0.103
Mof_C 	C 	0.9702	0.166	0.549	-0.005
Mof_C 	C 	0.0215	0.1635	0.5162	-0.003
Mof_C 	C 	0.0877	0.1458	0.5336	0.038
Mof_C 	C 	0.0973	0.1336	0.5846	-0.113
Mof_C 	C 	0.043	0.1373	0.614	0.126
Mof_C 	C 	0.2157	0.1761	0.4338	0.102
Mof_C 	C 	0.1641	0.1866	0.467	-0.149
Mof_C 	C 	0.1424	0.1382	0.4986	0.115
Mof_C 	C 	0.1808	0.0948	0.5014	-0.158
Mof_C 	C 	0.2285	0.0876	0.4664	0.136
Mof_C 	C 	0.441	0.3642	0.899	0.109
Mof_C 	C 	0.5237	0.3816	0.9314	-0.126
Mof_C 	C 	0.5334	0.3654	0.9832	0.066
Mof_C 	C 	0.4572	0.3294	0.9938	-0.131
Mof_C 	C 	0.3812	0.3118	0.9558	0.097
Mof_C 	C 	0.701	0.3479	0.0816	0.07
Mof_C 	C 	0.6223	0.3338	0.0488	-0.11
Mof_C 	C 	0.6176	0.3826	0.0208	0.055
Mof_C 	C 	0.6925	0.4439	0.0254	-0.109
Mof_C 	C 	0.7677	0.4572	0.061	0.066
Mof_C 	C 	0.3818	0.8712	0.755	-0.047
Mof_C 	C 	0.43159	0.86109	0.73238	-0.046
Mof_C 	C 	0.998	0.1275	0.7488	-0.147
Mof_C 	C 	0.0672	0.1384	0.7688	0.042
Mof_C 	C 	0.3815	0.0018	0.8208	-0.038
Mof_C 	C 	0.4265	0.0458	0.8786	-0.032
Mof_C 	C 	0.4716	0.1294	0.897	-0.03
Mof_C 	C 	0.4703	0.1641	0.8534	-0.04
Mof_C 	C 	0.4278	0.121	0.8004	-0.034
Mof_C 	C 	0.3828	0.04	0.783	-0.043
Mof_C 	C 	0.2216	0.8657	0.7474	-0.008
Mof_C 	C 	0.157	0.8687	0.7676	-0.05
Mof_C 	C 	0.0776	0.8506	0.736	-0.023
Mof_C 	C 	0.0642	0.829	0.6772	-0.026
Mof_C 	C 	0.1192	0.8186	0.6542	-0.028
Mof_C 	C 	0.2072	0.8481	0.6916	-0.044
Mof_C 	C 	0.53	0.9269	0.6694	0.021
Mof_C 	C 	0.525	0.9944	0.6964	-0.044
Mof_C 	C 	0.5509	0.0545	0.6748	-0.017
Mof_C 	C 	0.5847	0.0481	0.6306	-0.126
Mof_C 	C 	0.5851	0.983	0.6044	0.077
Mof_C 	C 	0.5622	0.9246	0.6276	-0.089
Mof_C 	C 	0.5905	0.8628	0.7464	0.002
Mof_C 	C 	0.6483	0.9379	0.7888	-0.067
Mof_C 	C 	0.7192	0.9453	0.8268	0.008
Mof_C 	C 	0.7319	0.8833	0.8292	-0.073
Mof_C 	C 	0.674	0.8073	0.7918	-0.001
Mof_C 	C 	0.6025	0.7957	0.7504	-0.074
Mof_C 	C 	0.8346	0.9995	0.6824	0.073
Mof_C 	C 	0.7869	0.9592	0.625	-0.12
Mof_C 	C 	0.7454	0.8752	0.6046	0.056
Mof_C 	C 	0.7466	0.8337	0.6394	-0.128
Mof_C 	C 	0.7882	0.8769	0.6956	0.064
Mof_C 	C 	0.8305	0.9556	0.7162	-0.139
Mof_C 	C 	0.8531	0.1422	0.763	0.064
Mof_C 	C 	0.8718	0.1398	0.817	-0.182
Mof_C 	C 	0.8398	0.1658	0.8546	0.121
Mof_C 	C 	0.782	0.1901	0.8398	-0.196
Mof_C 	C 	0.7601	0.1901	0.7896	0.105
Mof_C 	C 	0.7959	0.1694	0.7484	-0.16
Mof_C 	C 	0.2099	0.1297	0.744	-0.043
Mof_C 	C 	0.2798	0.182	0.735	-0.002
Mof_C 	C 	0.3092	0.1647	0.694	-0.1
Mof_C 	C 	0.2674	0.0914	0.656	0.048
Mof_C 	C 	0.1997	0.0329	0.661	-0.148
Mof_C 	C 	0.166	0.0507	0.7076	0.006
Mof_C 	C 	0.1647	0.0932	0.8392	0.002
Mof_C 	C 	0.2356	0.0922	0.8698	-0.044
Mof_C 	C 	0.2395	0.0519	0.9026	-0.069
Mof_C 	C 	0.1539	0.9983	0.9016	-0.002
Mof_C 	C 	0.0825	0.9956	0.8756	0.026
Mof_C 	C 	0.088	0.0443	0.8414	-0.085
Mof_N 	N 	0.84074	0.93184	0.08068	-0.237
Mof_N 	N 	0.43448	0.84638	0.90616	-0.247
Mof_N 	N 	0.92847	0.89227	0.17994	-0.241
Mof_N 	N 	0.79385	0.60215	0.3083	-0.235
Mof_N 	N 	0.71071	0.57061	0.40622	-0.242
Mof_N 	N 	0.4858	0.6824	0.5796	-0.241
Mof_N 	N 	0.21225	0.96795	0.3311	-0.236
Mof_N 	N 	0.95499	0.55429	0.18838	-0.202
Mof_N 	N 	0.88193	0.55683	0.40346	-0.194
Mof_N 	N 	0.3101	0.6905	0.5694	-0.255
Mof_N 	N 	0.96175	0.42035	0.0899	-0.296
Mof_N 	N 	0.18585	0.32025	0.9095	-0.223
Mof_N 	N 	0.26006	0.85116	0.91932	-0.239
Mof_N 	N 	0.02832	0.94022	0.09384	-0.186
Mof_N 	N 	0.24853	0.71233	0.82006	-0.233
Mof_N 	N 	0.98555	0.29385	0.6917	-0.325
Mof_N 	N 	0.80449	0.16439	0.59378	-0.247
Mof_N 	N 	0.4062	0.1028	0.4204	-0.23
Mof_N 	N 	0.38115	0.63685	0.6689	-0.239
Mof_N 	N 	0.26661	0.36591	0.81162	-0.239
Mof_N 	N 	0.97847	0.15337	0.59654	-0.254
Mof_N 	N 	0.2407	0.1211	0.4306	-0.251
Mof_N 	N 	0.37185	0.33045	0.9101	-0.24
Mof_N 	N 	0.77635	0.41075	0.0905	-0.23
Mof_B 	B 	0.0948	0.8444	0.4698	3.976
Mof_F 	F 	0.1019	0.8382	0.5214	-1.245
Mof_F 	F 	0.1087	0.7918	0.4364	-1.258
Mof_F 	F 	0.0137	0.8292	0.4446	-1.203
Mof_F 	F 	0.1527	0.9132	0.4694	-1.232
Mof_B 	B 	0.6297	0.4094	0.552	4.034
Mof_F 	F 	0.6634	0.3776	0.586	-1.215
Mof_F 	F 	0.5509	0.3604	0.5212	-1.315
Mof_F 	F 	0.631	0.477	0.5826	-1.218
Mof_F 	F 	0.6631	0.4189	0.5112	-1.283
Mof_B 	B 	0.947	0.0584	0.9482	3.714
Mof_F 	F 	0.8838	0.0742	0.9628	-1.152
Mof_F 	F 	0.9215	0.9844	0.939	-1.278
Mof_F 	F 	0.9504	0.073	0.899	-1.19
Mof_F 	F 	0.0239	0.1031	0.9892	-1.187
Mof_B 	B 	0.946	0.6636	0.0346	3.776
Mof_F 	F 	0.9488	0.6753	0.9842	-1.158
Mof_F 	F 	0.957	0.6022	0.0338	-1.256
Mof_F 	F 	0.003	0.7327	0.0788	-1.13
Mof_F 	F 	0.8722	0.6417	0.0458	-1.201
Mof_B 	B 	0.125	0.3746	0.5302	3.977
Mof_F 	F 	0.0805	0.3168	0.4786	-1.243
Mof_F 	F 	0.1723	0.3554	0.5636	-1.264
Mof_F 	F 	0.0691	0.3846	0.5554	-1.217
Mof_F 	F 	0.1833	0.4438	0.5306	-1.243
Mof_B 	B 	0.5777	0.8574	0.448	4.035
Mof_F 	F 	0.5774	0.7916	0.414	-1.209
Mof_F 	F 	0.5297	0.8392	0.4788	-1.312
Mof_F 	F 	0.5484	0.8944	0.4174	-1.204
Mof_F 	F 	0.6519	0.9077	0.4888	-1.273
Mof_B 	B 	0.4988	0.1102	0.0518	3.875
Mof_F 	F 	0.421	0.1114	0.0372	-1.169
Mof_F 	F 	0.4825	0.0454	0.061	-1.327
Mof_F 	F 	0.5514	0.174	0.101	-1.194
Mof_F 	F 	0.5347	0.1139	0.0108	-1.245
Mof_B 	B 	0.4114	0.629	0.9654	3.871
Mof_F 	F 	0.4646	0.6911	0.0158	-1.157
Mof_F 	F 	0.4232	0.5684	0.9662	-1.259
Mof_F 	F 	0.4242	0.6539	0.9212	-1.187
Mof_F 	F 	0.3264	0.5959	0.9542	-1.212
_end
