data_functionalizedCrystal
_audit_creation_method	'EQeq! by Chris Wilmer'
_symmetry_space_group_name_H-M	'P1'
_symmetry_Int_Tables_number	1
_symmetry_cell_setting	triclinic
loop_
_symmetry_equiv_pos_as_xyz
  x,y,z
_cell_length_a	13.9842
_cell_length_b	18.4731
_cell_length_c	18.4731
_cell_angle_alpha	81.7633
_cell_angle_beta	67.759
_cell_angle_gamma	67.7591
loop_
_atom_site_label
_atom_site_type_symbol
_atom_site_fract_x
_atom_site_fract_y
_atom_site_fract_z
_atom_site_charge
Mof_Ag	Ag	0.625	0.19956	0.30044	0.555
Mof_Ag	Ag	0.125	0.80044	0.69956	0.536
Mof_Ag	Ag	0.07456	0.30044	0.80044	0.537
Mof_Ag	Ag	0.17544	0.69956	0.19956	0.548
Mof_H 	H 	0.6944	0.0465	0.1967	0.002
Mof_H 	H 	0.0724	0.0926	0.166	0.055
Mof_H 	H 	0.7301	0.2301	0.1617	0.02
Mof_H 	H 	0.7377	0.2619	0.0753	0.058
Mof_H 	H 	0.4121	0.1923	0.2877	0.027
Mof_H 	H 	0.3109	0.2321	0.2041	0.103
Mof_H 	H 	0.3916	0.269	0.0754	0.031
Mof_H 	H 	0.5735	0.266	0.0304	0.136
Mof_H 	H 	0.4875	0.9299	0.2477	0.342
Mof_H 	H 	0.5335	0.9876	0.2698	0.336
Mof_H 	H 	0.6002	0.8954	0.2652	0.341
Mof_H 	H 	0.6823	0.8349	0.1119	0.373
Mof_H 	H 	0.6544	0.9012	0.0494	0.308
Mof_H 	H 	0.5568	0.8805	0.1179	0.324
Mof_H 	H 	0.5091	0.0624	0.17	0.306
Mof_H 	H 	0.5502	0.0297	0.0835	0.272
Mof_H 	H 	0.6303	0.0544	0.1098	0.305
Mof_H 	H 	0.9376	0.9535	0.8033	-0.001
Mof_H 	H 	0.331	0.9074	0.834	0.046
Mof_H 	H 	0.1219	0.7699	0.8383	0.025
Mof_H 	H 	0.0749	0.7381	0.9247	0.062
Mof_H 	H 	0.8921	0.8077	0.7123	0.03
Mof_H 	H 	0.7471	0.7679	0.7959	0.105
Mof_H 	H 	0.736	0.731	0.9246	0.029
Mof_H 	H 	0.8699	0.734	0.9696	0.144
Mof_H 	H 	0.6651	0.0701	0.7523	0.345
Mof_H 	H 	0.7909	0.0124	0.7302	0.34
Mof_H 	H 	0.7608	0.1046	0.7348	0.344
Mof_H 	H 	0.6291	0.1651	0.8881	0.375
Mof_H 	H 	0.605	0.0988	0.9506	0.311
Mof_H 	H 	0.5552	0.1195	0.8821	0.326
Mof_H 	H 	0.7415	0.9376	0.83	0.308
Mof_H 	H 	0.6634	0.9703	0.9165	0.275
Mof_H 	H 	0.7945	0.9456	0.8902	0.308
Mof_H 	H 	0.1089	0.1967	0.9535	0.011
Mof_H 	H 	0.7616	0.166	0.9074	0.046
Mof_H 	H 	0.1082	0.1617	0.7699	0.016
Mof_H 	H 	0.187	0.0753	0.7381	0.057
Mof_H 	H 	0.3002	0.2877	0.8077	0.027
Mof_H 	H 	0.485	0.2041	0.7679	0.103
Mof_H 	H 	0.533	0.0754	0.731	0.031
Mof_H 	H 	0.3961	0.0304	0.734	0.136
Mof_H 	H 	0.2648	0.2477	0.0701	0.336
Mof_H 	H 	0.1967	0.2698	0.0124	0.327
Mof_H 	H 	0.1346	0.2652	0.1046	0.331
Mof_H 	H 	0.2058	0.1119	0.1651	0.368
Mof_H 	H 	0.2962	0.0494	0.0988	0.303
Mof_H 	H 	0.3253	0.1179	0.1195	0.32
Mof_H 	H 	0.3209	0.17	0.9376	0.302
Mof_H 	H 	0.3663	0.0835	0.9703	0.268
Mof_H 	H 	0.2599	0.1098	0.9456	0.3
Mof_H 	H 	0.2591	0.8033	0.0465	0.006
Mof_H 	H 	0.835	0.834	0.0926	0.05
Mof_H 	H 	0.0398	0.8383	0.2301	0.011
Mof_H 	H 	0.0004	0.9247	0.2619	0.047
Mof_H 	H 	0.3956	0.7123	0.1923	0.027
Mof_H 	H 	0.457	0.7959	0.2321	0.103
Mof_H 	H 	0.3394	0.9246	0.269	0.032
Mof_H 	H 	0.1605	0.9696	0.266	0.134
Mof_H 	H 	0.5826	0.7523	0.9299	0.344
Mof_H 	H 	0.4789	0.7302	0.9876	0.338
Mof_H 	H 	0.5044	0.7348	0.8954	0.342
Mof_H 	H 	0.4828	0.8881	0.8349	0.374
Mof_H 	H 	0.4444	0.9506	0.9012	0.309
Mof_H 	H 	0.5627	0.8821	0.8805	0.325
Mof_H 	H 	0.4285	0.83	0.0624	0.307
Mof_H 	H 	0.4201	0.9165	0.0297	0.273
Mof_H 	H 	0.3153	0.8902	0.0544	0.306
Mof_H 	H 	0.3124	0.6967	0.5465	0.002
Mof_H 	H 	0.919	0.666	0.5926	0.045
Mof_H 	H 	0.1281	0.6617	0.7301	0.016
Mof_H 	H 	0.1751	0.5753	0.7619	0.055
Mof_H 	H 	0.3579	0.7877	0.6923	0.027
Mof_H 	H 	0.5029	0.7041	0.7321	0.103
Mof_H 	H 	0.514	0.5754	0.769	0.031
Mof_H 	H 	0.3801	0.5304	0.766	0.136
Mof_H 	H 	0.5849	0.7477	0.4299	0.343
Mof_H 	H 	0.4591	0.7698	0.4876	0.336
Mof_H 	H 	0.4892	0.7652	0.3954	0.341
Mof_H 	H 	0.6209	0.6119	0.3349	0.374
Mof_H 	H 	0.645	0.5494	0.4012	0.31
Mof_H 	H 	0.6948	0.6179	0.3805	0.326
Mof_H 	H 	0.5085	0.67	0.5624	0.307
Mof_H 	H 	0.5866	0.5835	0.5297	0.273
Mof_H 	H 	0.4555	0.6098	0.5544	0.306
Mof_H 	H 	0.5556	0.3033	0.4535	0.002
Mof_H 	H 	0.1776	0.334	0.4074	0.048
Mof_H 	H 	0.5199	0.3383	0.2699	0.019
Mof_H 	H 	0.5123	0.4247	0.2381	0.058
Mof_H 	H 	0.8379	0.2123	0.3077	0.029
Mof_H 	H 	0.9391	0.2959	0.2679	0.11
Mof_H 	H 	0.8584	0.4246	0.231	0.033
Mof_H 	H 	0.6765	0.4696	0.234	0.137
Mof_H 	H 	0.7625	0.2523	0.5701	0.346
Mof_H 	H 	0.7165	0.2302	0.5124	0.339
Mof_H 	H 	0.6498	0.2348	0.6046	0.343
Mof_H 	H 	0.5677	0.3881	0.6651	0.374
Mof_H 	H 	0.5956	0.4506	0.5988	0.31
Mof_H 	H 	0.6932	0.3821	0.6195	0.326
Mof_H 	H 	0.7409	0.33	0.4376	0.309
Mof_H 	H 	0.6998	0.4165	0.4703	0.275
Mof_H 	H 	0.6197	0.3902	0.4456	0.307
Mof_H 	H 	0.9909	0.4535	0.6967	0.039
Mof_H 	H 	0.415	0.4074	0.666	0.045
Mof_H 	H 	0.2102	0.2699	0.6617	0.023
Mof_H 	H 	0.2496	0.2381	0.5753	0.06
Mof_H 	H 	0.8544	0.3077	0.7877	0.018
Mof_H 	H 	0.793	0.2679	0.7041	0.115
Mof_H 	H 	0.9106	0.231	0.5754	0.016
Mof_H 	H 	0.0895	0.234	0.5304	0.15
Mof_H 	H 	0.6674	0.5701	0.7477	0.342
Mof_H 	H 	0.7711	0.5124	0.7698	0.337
Mof_H 	H 	0.7456	0.6046	0.7652	0.341
Mof_H 	H 	0.7672	0.6651	0.6119	0.372
Mof_H 	H 	0.8056	0.5988	0.5494	0.309
Mof_H 	H 	0.6873	0.6195	0.6179	0.324
Mof_H 	H 	0.8215	0.4376	0.67	0.308
Mof_H 	H 	0.8299	0.4703	0.5835	0.275
Mof_H 	H 	0.9347	0.4456	0.6098	0.311
Mof_H 	H 	0.1411	0.5465	0.3033	0.002
Mof_H 	H 	0.4884	0.5926	0.334	0.045
Mof_H 	H 	0.1418	0.7301	0.3383	0.028
Mof_H 	H 	0.063	0.7619	0.4247	0.062
Mof_H 	H 	0.9498	0.6923	0.2123	0.023
Mof_H 	H 	0.765	0.7321	0.2959	0.111
Mof_H 	H 	0.717	0.769	0.4246	0.023
Mof_H 	H 	0.8539	0.766	0.4696	0.148
Mof_H 	H 	0.9852	0.4299	0.2523	0.355
Mof_H 	H 	0.0533	0.4876	0.2302	0.33
Mof_H 	H 	0.1154	0.3954	0.2348	0.338
Mof_H 	H 	0.0442	0.3349	0.3881	0.324
Mof_H 	H 	0.9538	0.4012	0.4506	0.275
Mof_H 	H 	0.9247	0.3805	0.3821	0.29
Mof_H 	H 	0.9291	0.5624	0.33	0.29
Mof_H 	H 	0.8837	0.5297	0.4165	0.253
Mof_H 	H 	0.9901	0.5544	0.3902	0.292
Mof_C 	C 	0.9415	0.1159	0.1313	-0.01
Mof_C 	C 	0.9009	0.1477	0.0713	0.111
Mof_C 	C 	0.8589	0.995	0.1778	-0.052
Mof_C 	C 	0.7575	0.0013	0.1761	0.027
Mof_C 	C 	0.7487	0.9413	0.1443	-0.159
Mof_C 	C 	0.0446	0.1143	0.1249	-0.016
Mof_C 	C 	0.7217	0.2208	0.1134	-0.024
Mof_C 	C 	0.601	0.2273	0.1323	0.093
Mof_C 	C 	0.4449	0.2073	0.2355	0.052
Mof_C 	C 	0.3847	0.2309	0.1859	-0.141
Mof_C 	C 	0.4327	0.2528	0.1094	0.053
Mof_C 	C 	0.5408	0.251	0.0826	-0.144
Mof_C 	C 	0.6189	0.9469	0.1563	0.662
Mof_C 	C 	0.5543	0.9392	0.2424	-1.021
Mof_C 	C 	0.629	0.8854	0.1042	-1.017
Mof_C 	C 	0.573	0.031	0.1272	-0.946
Mof_C 	C 	0.1887	0.8841	0.8687	-0.04
Mof_C 	C 	0.1199	0.8523	0.9287	0.12
Mof_C 	C 	0.0317	0.005	0.8222	-0.069
Mof_C 	C 	0.9349	0.9987	0.8239	0.055
Mof_C 	C 	0.8343	0.0587	0.8557	-0.168
Mof_C 	C 	0.2838	0.8857	0.8751	0.021
Mof_C 	C 	0.0559	0.7792	0.8866	-0.048
Mof_C 	C 	0.9606	0.7727	0.8677	0.117
Mof_C 	C 	0.8877	0.7927	0.7645	0.057
Mof_C 	C 	0.8015	0.7691	0.8141	-0.145
Mof_C 	C 	0.7949	0.7472	0.8906	0.062
Mof_C 	C 	0.8744	0.749	0.9174	-0.154
Mof_C 	C 	0.7221	0.0531	0.8437	0.669
Mof_C 	C 	0.7359	0.0608	0.7576	-1.03
Mof_C 	C 	0.6186	0.1146	0.8958	-1.024
Mof_C 	C 	0.7312	0.969	0.8728	-0.953
Mof_C 	C 	0.9272	0.1313	0.8841	-0.025
Mof_C 	C 	0.0278	0.0713	0.8523	0.112
Mof_C 	C 	0.9633	0.1778	0.005	-0.023
Mof_C 	C 	0.0664	0.1761	0.9987	-0.005
Mof_C 	C 	0.107	0.1443	0.0587	-0.143
Mof_C 	C 	0.8305	0.1249	0.8857	0.025
Mof_C 	C 	0.1649	0.1134	0.7792	-0.021
Mof_C 	C 	0.2667	0.1323	0.7727	0.092
Mof_C 	C 	0.3196	0.2355	0.7927	0.052
Mof_C 	C 	0.4294	0.1859	0.7691	-0.14
Mof_C 	C 	0.4579	0.1094	0.7472	0.053
Mof_C 	C 	0.3766	0.0826	0.749	-0.143
Mof_C 	C 	0.2248	0.1563	0.0531	0.645
Mof_C 	C 	0.2033	0.2424	0.0608	-1.002
Mof_C 	C 	0.2668	0.1042	0.1146	-1.002
Mof_C 	C 	0.2998	0.1272	0.969	-0.93
Mof_C 	C 	0.9426	0.8687	0.1159	-0.026
Mof_C 	C 	0.9514	0.9287	0.1477	0.142
Mof_C 	C 	0.1461	0.8222	0.995	-0.041
Mof_C 	C 	0.2412	0.8239	0.0013	0.016
Mof_C 	C 	0.31	0.8557	0.9413	-0.156
Mof_C 	C 	0.8411	0.8751	0.1143	0.02
Mof_C 	C 	0.0575	0.8866	0.2208	-0.009
Mof_C 	C 	0.1717	0.8677	0.2273	0.088
Mof_C 	C 	0.3478	0.7645	0.2073	0.051
Mof_C 	C 	0.3844	0.8141	0.2309	-0.139
Mof_C 	C 	0.3145	0.8906	0.2528	0.051
Mof_C 	C 	0.2082	0.9174	0.251	-0.14
Mof_C 	C 	0.4342	0.8437	0.9469	0.665
Mof_C 	C 	0.5065	0.7576	0.9392	-1.025
Mof_C 	C 	0.4856	0.8958	0.8854	-1.02
Mof_C 	C 	0.396	0.8728	0.031	-0.952
Mof_C 	C 	0.0613	0.6313	0.6159	-0.055
Mof_C 	C 	0.1301	0.5713	0.6477	0.12
Mof_C 	C 	0.2183	0.6778	0.495	-0.05
Mof_C 	C 	0.3151	0.6761	0.5013	0.028
Mof_C 	C 	0.4157	0.6443	0.4413	-0.162
Mof_C 	C 	0.9662	0.6249	0.6143	0.036
Mof_C 	C 	0.1941	0.6134	0.7208	-0.019
Mof_C 	C 	0.2894	0.6323	0.7273	0.092
Mof_C 	C 	0.3623	0.7355	0.7073	0.052
Mof_C 	C 	0.4485	0.6859	0.7309	-0.14
Mof_C 	C 	0.4551	0.6094	0.7528	0.053
Mof_C 	C 	0.3756	0.5826	0.751	-0.143
Mof_C 	C 	0.5279	0.6563	0.4469	0.664
Mof_C 	C 	0.5141	0.7424	0.4392	-1.023
Mof_C 	C 	0.6314	0.6042	0.3854	-1.02
Mof_C 	C 	0.5188	0.6272	0.531	-0.948
Mof_C 	C 	0.3085	0.3687	0.3841	-0.039
Mof_C 	C 	0.3491	0.4287	0.3523	0.124
Mof_C 	C 	0.3911	0.3222	0.505	-0.051
Mof_C 	C 	0.4925	0.3239	0.4987	0.029
Mof_C 	C 	0.5013	0.3557	0.5587	-0.163
Mof_C 	C 	0.2054	0.3751	0.3857	0.016
Mof_C 	C 	0.5283	0.3866	0.2792	-0.022
Mof_C 	C 	0.649	0.3677	0.2727	0.094
Mof_C 	C 	0.8051	0.2645	0.2927	0.054
Mof_C 	C 	0.8653	0.3141	0.2691	-0.14
Mof_C 	C 	0.8173	0.3906	0.2472	0.056
Mof_C 	C 	0.7092	0.4174	0.249	-0.144
Mof_C 	C 	0.6311	0.3437	0.5531	0.667
Mof_C 	C 	0.6957	0.2576	0.5608	-1.027
Mof_C 	C 	0.621	0.3958	0.6146	-1.021
Mof_C 	C 	0.677	0.3728	0.469	-0.952
Mof_C 	C 	0.3074	0.3841	0.6313	-0.041
Mof_C 	C 	0.2986	0.3523	0.5713	0.125
Mof_C 	C 	0.1039	0.505	0.6778	-0.032
Mof_C 	C 	0.0088	0.4987	0.6761	-0.041
Mof_C 	C 	0.94	0.5587	0.6443	-0.129
Mof_C 	C 	0.4089	0.3857	0.6249	0.025
Mof_C 	C 	0.1925	0.2792	0.6134	-0.031
Mof_C 	C 	0.0783	0.2727	0.6323	0.107
Mof_C 	C 	0.9022	0.2927	0.7355	0.087
Mof_C 	C 	0.8656	0.2691	0.6859	-0.174
Mof_C 	C 	0.9355	0.2472	0.6094	0.107
Mof_C 	C 	0.0418	0.249	0.5826	-0.192
Mof_C 	C 	0.8158	0.5531	0.6563	0.658
Mof_C 	C 	0.7435	0.5608	0.7424	-1.019
Mof_C 	C 	0.7644	0.6146	0.6042	-1.015
Mof_C 	C 	0.854	0.469	0.6272	-0.95
Mof_C 	C 	0.3228	0.6159	0.3687	-0.041
Mof_C 	C 	0.2222	0.6477	0.4287	0.124
Mof_C 	C 	0.2867	0.495	0.3222	-0.048
Mof_C 	C 	0.1836	0.5013	0.3239	0.02
Mof_C 	C 	0.143	0.4413	0.3557	-0.149
Mof_C 	C 	0.4195	0.6143	0.3751	0.025
Mof_C 	C 	0.0851	0.7208	0.3866	-0.057
Mof_C 	C 	0.9833	0.7273	0.3677	0.137
Mof_C 	C 	0.9304	0.7073	0.2645	0.082
Mof_C 	C 	0.8206	0.7309	0.3141	-0.162
Mof_C 	C 	0.7921	0.7528	0.3906	0.077
Mof_C 	C 	0.8734	0.751	0.4174	-0.17
Mof_C 	C 	0.0252	0.4469	0.3437	0.595
Mof_C 	C 	0.0467	0.4392	0.2576	-1.021
Mof_C 	C 	0.9832	0.3854	0.3958	-0.885
Mof_C 	C 	0.9502	0.531	0.3728	-0.876
Mof_S 	S 	0.87155	0.07306	0.21704	0.005
Mof_S 	S 	0.16165	0.92694	0.78296	0.001
Mof_S 	S 	0.91141	0.21704	0.92694	0.006
Mof_S 	S 	0.05539	0.78296	0.07306	-0.023
Mof_S 	S 	0.08835	0.71704	0.57306	-0.006
Mof_S 	S 	0.37845	0.28296	0.42694	0.001
Mof_S 	S 	0.19461	0.42694	0.71704	-0.006
Mof_S 	S 	0.33859	0.57306	0.28296	0.001
Mof_N 	N 	0.553	0.2055	0.2087	-0.191
Mof_N 	N 	0.9672	0.7945	0.7913	-0.187
Mof_N 	N 	0.2383	0.2087	0.7945	-0.19
Mof_N 	N 	0.2415	0.7913	0.2055	-0.189
Mof_N 	N 	0.2828	0.7087	0.7055	-0.189
Mof_N 	N 	0.697	0.2913	0.2945	-0.191
Mof_N 	N 	0.0085	0.2945	0.7087	-0.207
Mof_N 	N 	0.0117	0.7055	0.2913	-0.215
Mof_O 	O 	0.7957	0.1504	0.0838	-0.204
Mof_O 	O 	0.0299	0.8496	0.9162	-0.208
Mof_O 	O 	0.1205	0.0838	0.8496	-0.207
Mof_O 	O 	0.0539	0.9162	0.1504	-0.224
Mof_O 	O 	0.2201	0.5838	0.6504	-0.206
Mof_O 	O 	0.4543	0.4162	0.3496	-0.206
Mof_O 	O 	0.1961	0.3496	0.5838	-0.207
Mof_O 	O 	0.1295	0.6504	0.4162	-0.204
Mof_Sb	Sb	0.51	0.365	0.865	1.406
Mof_F 	F 	0.4071	0.4007	0.8143	-0.475
Mof_F 	F 	0.4336	0.3022	0.934	-0.477
Mof_F 	F 	0.6279	0.3143	0.9007	-0.474
Mof_F 	F 	0.5802	0.434	0.8022	-0.477
Mof_F 	F 	0.4306	0.4444	0.9444	-0.434
Mof_F 	F 	0.5906	0.2844	0.7844	-0.478
Mof_Sb	Sb	0.74	0.635	0.135	1.407
Mof_F 	F 	0.6221	0.5993	0.1857	-0.475
Mof_F 	F 	0.6698	0.6978	0.066	-0.477
Mof_F 	F 	0.8429	0.6857	0.0993	-0.472
Mof_F 	F 	0.8164	0.566	0.1978	-0.474
Mof_F 	F 	0.8194	0.5556	0.0556	-0.431
Mof_F 	F 	0.6594	0.7156	0.2156	-0.477
Mof_Sb	Sb	0.625	0.865	0.635	1.406
Mof_F 	F 	0.7786	0.8143	0.5993	-0.473
Mof_F 	F 	0.6324	0.934	0.6978	-0.477
Mof_F 	F 	0.4714	0.9007	0.6857	-0.475
Mof_F 	F 	0.6176	0.8022	0.566	-0.477
Mof_F 	F 	0.625	0.9444	0.5556	-0.433
Mof_F 	F 	0.625	0.7844	0.7156	-0.477
Mof_Sb	Sb	0.125	0.135	0.365	1.395
Mof_F 	F 	0.1922	0.1857	0.4007	-0.475
Mof_F 	F 	0.2642	0.066	0.3022	-0.476
Mof_F 	F 	0.0578	0.0993	0.3143	-0.48
Mof_F 	F 	0.9858	0.1978	0.434	-0.464
Mof_F 	F 	0.125	0.0556	0.4444	-0.437
Mof_F 	F 	0.125	0.2156	0.2844	-0.48
_end
