data_functionalizedCrystal
_audit_creation_method	'EQeq! by Chris Wilmer'
_symmetry_space_group_name_H-M	'P1'
_symmetry_Int_Tables_number	1
_symmetry_cell_setting	triclinic
loop_
_symmetry_equiv_pos_as_xyz
  x,y,z
_cell_length_a	7.6835
_cell_length_b	8.6805
_cell_length_c	12.354
_cell_angle_alpha	90
_cell_angle_beta	90
_cell_angle_gamma	90
loop_
_atom_site_label
_atom_site_type_symbol
_atom_site_fract_x
_atom_site_fract_y
_atom_site_fract_z
_atom_site_charge
Mof_O 	O 	0.4156	0.1492	0.6475	-0.492
Mof_O 	O 	0.2638	0.8654	0.5575	-0.431
Mof_C 	C 	0.7546	0.2958	0.8238	0.153
Mof_C 	C 	0.6768	0.2278	0.7307	-0.432
Mof_C 	C 	0.4941	0.2108	0.7262	0.476
Mof_C 	C 	0.211	0.808	0.6445	0.553
Mof_C 	C 	0.6141	0.7316	0.8191	-0.835
Mof_H 	H 	0.6915	0.6494	0.7938	0.256
Mof_H 	H 	0.5375	0.6914	0.8759	0.266
Mof_H 	H 	0.6839	0.8165	0.8483	0.287
Mof_C 	C 	0.9832	0.2215	0.6529	-0.732
Mof_H 	H 	0.0417	0.1802	0.5887	0.235
Mof_H 	H 	0.029	0.1706	0.7178	0.198
Mof_H 	H 	0.0044	0.3326	0.6578	0.218
Mof_N 	N 	0.822	0.3511	0.8974	-0.229
Mof_O 	O 	0.5844	0.8508	0.6475	-0.415
Mof_O 	O 	0.7362	0.1346	0.5575	-0.511
Mof_C 	C 	0.2454	0.7042	0.8238	0.191
Mof_C 	C 	0.3232	0.7722	0.7307	-0.428
Mof_C 	C 	0.5059	0.7892	0.7262	0.529
Mof_C 	C 	0.789	0.192	0.6445	0.472
Mof_C 	C 	0.3859	0.2684	0.8191	-0.762
Mof_H 	H 	0.3085	0.3506	0.7938	0.231
Mof_H 	H 	0.4625	0.3086	0.8759	0.228
Mof_H 	H 	0.3161	0.1835	0.8483	0.207
Mof_C 	C 	0.0168	0.7785	0.6529	-0.904
Mof_H 	H 	0.9583	0.8198	0.5887	0.333
Mof_H 	H 	0.971	0.8294	0.7178	0.309
Mof_H 	H 	0.9956	0.6674	0.6578	0.273
Mof_N 	N 	0.178	0.6489	0.8974	-0.222
Mof_O 	O 	0.5844	0.1492	0.3525	-0.492
Mof_O 	O 	0.7362	0.8654	0.4425	-0.422
Mof_C 	C 	0.2454	0.2958	0.1762	0.145
Mof_C 	C 	0.3232	0.2278	0.2693	-0.442
Mof_C 	C 	0.5059	0.2108	0.2738	0.465
Mof_C 	C 	0.789	0.808	0.3555	0.513
Mof_C 	C 	0.3859	0.7316	0.1809	-0.781
Mof_H 	H 	0.3085	0.6494	0.2062	0.234
Mof_H 	H 	0.4625	0.6914	0.1241	0.231
Mof_H 	H 	0.3161	0.8165	0.1517	0.255
Mof_C 	C 	0.0168	0.2215	0.3471	-0.837
Mof_H 	H 	0.9583	0.1802	0.4113	0.272
Mof_H 	H 	0.971	0.1706	0.2822	0.23
Mof_H 	H 	0.9956	0.3326	0.3422	0.254
Mof_N 	N 	0.178	0.3511	0.1026	-0.257
Mof_O 	O 	0.4156	0.8508	0.3525	-0.407
Mof_O 	O 	0.2638	0.1346	0.4425	-0.518
Mof_C 	C 	0.7546	0.7042	0.1762	0.176
Mof_C 	C 	0.6768	0.7722	0.2693	-0.406
Mof_C 	C 	0.4941	0.7892	0.2738	0.502
Mof_C 	C 	0.211	0.192	0.3555	0.499
Mof_C 	C 	0.6141	0.2684	0.1809	-0.725
Mof_H 	H 	0.6915	0.3506	0.2062	0.215
Mof_H 	H 	0.5375	0.3086	0.1241	0.199
Mof_H 	H 	0.6839	0.1835	0.1517	0.18
Mof_C 	C 	0.9832	0.7785	0.3471	-0.782
Mof_H 	H 	0.0417	0.8198	0.4113	0.291
Mof_H 	H 	0.029	0.8294	0.2822	0.264
Mof_H 	H 	0.0044	0.6674	0.3422	0.23
Mof_N 	N 	0.822	0.6489	0.1026	-0.243
Mof_Ag	Ag	-0	0.5	-0	0.462
Mof_Yb	Yb	0.5	0	0.5	1.673
_end
