data_functionalizedCrystal
_audit_creation_method	'EQeq! by Chris Wilmer'
_symmetry_space_group_name_H-M	'P1'
_symmetry_Int_Tables_number	1
_symmetry_cell_setting	triclinic
loop_
_symmetry_equiv_pos_as_xyz
  x,y,z
_cell_length_a	8.0831
_cell_length_b	16.8841
_cell_length_c	15.4044
_cell_angle_alpha	90
_cell_angle_beta	90.768
_cell_angle_gamma	90
loop_
_atom_site_label
_atom_site_type_symbol
_atom_site_fract_x
_atom_site_fract_y
_atom_site_fract_z
_atom_site_charge
Mof_Zn	Zn	0.65162	0.14919	0.24172	1.238
Mof_Zn	Zn	0.85398	0.04055	0.60781	1.231
Mof_Zn	Zn	0.93329	0.05407	0.88355	1.229
Mof_P 	P 	0.76771	0.0592	0.06915	0.469
Mof_H 	H 	0.618	0.0429	0.0513	-0.055
Mof_P 	P 	0.79757	0.05698	0.40541	0.447
Mof_H 	H 	0.683	0.9853	0.3738	-0.029
Mof_P 	P 	0.64733	0.97606	0.7701	0.455
Mof_H 	H 	0.5172	0.0252	0.8098	-0.041
Mof_P 	P 	0.04817	0.15919	0.73151	0.45
Mof_H 	H 	0.1877	0.1075	0.7397	-0.052
Mof_O 	O 	0.7801	0.1199	0.141	-0.439
Mof_O 	O 	0.5704	0.8934	0.7726	-0.422
Mof_O 	O 	0.1307	0.2382	0.7229	-0.418
Mof_O 	O 	0.7489	0.1286	0.3522	-0.44
Mof_O 	O 	0.7495	0.0694	0.4989	-0.432
Mof_O 	O 	0.9402	0.1422	0.6522	-0.431
Mof_O 	O 	0.9786	0.0381	0.3953	-0.487
Mof_O 	O 	0.6743	0.0055	0.6806	-0.46
Mof_O 	O 	0.7988	0.9751	0.8281	-0.463
Mof_O 	O 	0.9538	0.1502	0.8149	-0.444
Mof_O 	O 	0.8439	0.9804	0.0889	-0.473
Mof_O 	O 	0.8364	0.0976	0.9882	-0.434
Mof_Zn	Zn	0.84838	0.64919	0.25828	1.239
Mof_Zn	Zn	0.64602	0.54055	0.89219	1.232
Mof_Zn	Zn	0.56671	0.55407	0.61645	1.23
Mof_P 	P 	0.73229	0.5592	0.43085	0.471
Mof_H 	H 	0.882	0.5429	0.4487	-0.055
Mof_P 	P 	0.70243	0.55698	0.09459	0.447
Mof_H 	H 	0.817	0.4853	0.1262	-0.03
Mof_P 	P 	0.85267	0.47606	0.7299	0.455
Mof_H 	H 	0.9828	0.5252	0.6902	-0.041
Mof_P 	P 	0.45183	0.65919	0.76849	0.448
Mof_H 	H 	0.3123	0.6075	0.7603	-0.053
Mof_O 	O 	0.7199	0.6199	0.359	-0.438
Mof_O 	O 	0.9296	0.3934	0.7274	-0.422
Mof_O 	O 	0.3693	0.7382	0.7771	-0.418
Mof_O 	O 	0.7511	0.6286	0.1478	-0.44
Mof_O 	O 	0.7505	0.5694	0.0011	-0.432
Mof_O 	O 	0.5598	0.6422	0.8478	-0.431
Mof_O 	O 	0.5214	0.5381	0.1047	-0.487
Mof_O 	O 	0.8257	0.5055	0.8194	-0.46
Mof_O 	O 	0.7012	0.4751	0.6719	-0.463
Mof_O 	O 	0.5462	0.6502	0.6851	-0.443
Mof_O 	O 	0.6561	0.4804	0.4111	-0.476
Mof_O 	O 	0.6636	0.5976	0.5118	-0.433
Mof_Zn	Zn	0.34838	0.85081	0.75828	1.239
Mof_Zn	Zn	0.14602	0.95945	0.39219	1.232
Mof_Zn	Zn	0.06671	0.94593	0.11645	1.229
Mof_P 	P 	0.23229	0.9408	0.93085	0.469
Mof_H 	H 	0.382	0.9571	0.9487	-0.055
Mof_P 	P 	0.20243	0.94302	0.59459	0.447
Mof_H 	H 	0.317	0.0147	0.6262	-0.029
Mof_P 	P 	0.35267	0.02394	0.2299	0.455
Mof_H 	H 	0.4828	0.9748	0.1902	-0.041
Mof_P 	P 	0.95183	0.84081	0.26849	0.45
Mof_H 	H 	0.8123	0.8925	0.2603	-0.052
Mof_O 	O 	0.2199	0.8801	0.859	-0.439
Mof_O 	O 	0.4296	0.1066	0.2274	-0.422
Mof_O 	O 	0.8693	0.7618	0.2771	-0.418
Mof_O 	O 	0.2511	0.8714	0.6478	-0.44
Mof_O 	O 	0.2505	0.9306	0.5011	-0.432
Mof_O 	O 	0.0598	0.8578	0.3478	-0.431
Mof_O 	O 	0.0214	0.9619	0.6047	-0.487
Mof_O 	O 	0.3257	0.9945	0.3194	-0.46
Mof_O 	O 	0.2012	0.0249	0.1719	-0.463
Mof_O 	O 	0.0462	0.8498	0.1851	-0.444
Mof_O 	O 	0.1561	0.0196	0.9111	-0.473
Mof_O 	O 	0.1636	0.9024	0.0118	-0.434
Mof_Zn	Zn	0.15162	0.35081	0.74172	1.239
Mof_Zn	Zn	0.35398	0.45945	0.10781	1.232
Mof_Zn	Zn	0.43329	0.44593	0.38355	1.23
Mof_P 	P 	0.26771	0.4408	0.56915	0.471
Mof_H 	H 	0.118	0.4571	0.5513	-0.055
Mof_P 	P 	0.29757	0.44302	0.90541	0.447
Mof_H 	H 	0.183	0.5147	0.8738	-0.03
Mof_P 	P 	0.14733	0.52394	0.2701	0.455
Mof_H 	H 	0.0172	0.4748	0.3098	-0.041
Mof_P 	P 	0.54817	0.34081	0.23151	0.448
Mof_H 	H 	0.6877	0.3925	0.2397	-0.053
Mof_O 	O 	0.2801	0.3801	0.641	-0.438
Mof_O 	O 	0.0704	0.6066	0.2726	-0.422
Mof_O 	O 	0.6307	0.2618	0.2229	-0.418
Mof_O 	O 	0.2489	0.3714	0.8522	-0.44
Mof_O 	O 	0.2495	0.4306	0.9989	-0.432
Mof_O 	O 	0.4402	0.3578	0.1522	-0.431
Mof_O 	O 	0.4786	0.4619	0.8953	-0.487
Mof_O 	O 	0.1743	0.4945	0.1806	-0.46
Mof_O 	O 	0.2988	0.5249	0.3281	-0.463
Mof_O 	O 	0.4538	0.3498	0.3149	-0.443
Mof_O 	O 	0.3439	0.5196	0.5889	-0.476
Mof_O 	O 	0.3364	0.4024	0.4882	-0.433
_end
