data_functionalizedCrystal
_audit_creation_method	'EQeq! by Chris Wilmer'
_symmetry_space_group_name_H-M	'P1'
_symmetry_Int_Tables_number	1
_symmetry_cell_setting	triclinic
loop_
_symmetry_equiv_pos_as_xyz
  x,y,z
_cell_length_a	9.3345
_cell_length_b	12.0427
_cell_length_c	27.514
_cell_angle_alpha	90
_cell_angle_beta	90
_cell_angle_gamma	112.803
loop_
_atom_site_label
_atom_site_type_symbol
_atom_site_fract_x
_atom_site_fract_y
_atom_site_fract_z
_atom_site_charge
Mof_Cd	Cd	0.64916	0	0.5	0.4
Mof_Cd	Cd	0.35084	0	-0	0.395
Mof_Cd	Cd	0.74404	0.48808	0.25	0.418
Mof_Cd	Cd	0.25596	0.51192	0.75	0.419
Mof_H 	H 	0.7429	0.6282	0.509	-0.011
Mof_H 	H 	0.8893	0.5154	0.4939	0.154
Mof_H 	H 	0.1348	0.7516	0.3934	0.146
Mof_H 	H 	0.9797	0.8622	0.4069	-0.012
Mof_H 	H 	0.4133	0.6458	0.4474	0.151
Mof_H 	H 	0.5909	0.6462	0.3896	-0.017
Mof_H 	H 	0.2526	0.5206	0.2911	-0.013
Mof_H 	H 	0.0746	0.5234	0.3496	0.161
Mof_H 	H 	0.4786	0.2376	0.2591	0.27
Mof_H 	H 	0.3205	0.2388	0.2403	0.273
Mof_H 	H 	0.3671	0.1304	0.2276	0.266
Mof_H 	H 	0.7453	0.4552	0.1257	0.038
Mof_H 	H 	0.5264	0.325	0.0763	0.045
Mof_H 	H 	0.2739	0.136	0.0966	0.067
Mof_H 	H 	0.2433	0.0952	0.1511	0.04
Mof_H 	H 	0.1497	0.2438	0.1663	0.053
Mof_H 	H 	0.1861	0.29	0.1127	0.07
Mof_H 	H 	0.995	0.1114	0.0836	0.068
Mof_H 	H 	0.9625	0.059	0.1366	0.067
Mof_H 	H 	0.9064	0.2632	0.1062	0.033
Mof_H 	H 	0.8717	0.209	0.1587	0.031
Mof_H 	H 	0.6183	0.0048	0.1684	0.036
Mof_H 	H 	0.3938	0.9108	0.1158	0.021
Mof_H 	H 	0.6972	0.1556	0.9941	0.296
Mof_H 	H 	0.7254	0.2672	0.0278	0.3
Mof_H 	H 	0.8479	0.2078	0.0261	0.296
Mof_H 	H 	0.2571	0.3718	0.009	-0.026
Mof_H 	H 	0.1107	0.4846	0.9939	0.163
Mof_H 	H 	0.8652	0.2484	0.8934	0.148
Mof_H 	H 	0.0203	0.1378	0.9069	-0.029
Mof_H 	H 	0.5867	0.3542	0.9474	0.153
Mof_H 	H 	0.4091	0.3538	0.8896	-0.019
Mof_H 	H 	0.7474	0.4794	0.7911	-0.014
Mof_H 	H 	0.9254	0.4766	0.8496	0.16
Mof_H 	H 	0.5214	0.7624	0.7591	0.274
Mof_H 	H 	0.6795	0.7612	0.7403	0.277
Mof_H 	H 	0.6329	0.8696	0.7276	0.273
Mof_H 	H 	0.2547	0.5448	0.6257	0.038
Mof_H 	H 	0.4736	0.675	0.5763	0.046
Mof_H 	H 	0.7261	0.864	0.5966	0.078
Mof_H 	H 	0.7567	0.9048	0.6511	0.051
Mof_H 	H 	0.8503	0.7562	0.6663	0.048
Mof_H 	H 	0.8139	0.71	0.6127	0.065
Mof_H 	H 	0.005	0.8886	0.5836	0.082
Mof_H 	H 	0.0375	0.941	0.6366	0.081
Mof_H 	H 	0.0936	0.7368	0.6062	0.03
Mof_H 	H 	0.1283	0.791	0.6587	0.027
Mof_H 	H 	0.3817	0.9952	0.6684	0.012
Mof_H 	H 	0.6062	0.0892	0.6158	0.052
Mof_H 	H 	0.3028	0.8444	0.4941	0.294
Mof_H 	H 	0.2746	0.7328	0.5278	0.298
Mof_H 	H 	0.1521	0.7922	0.5261	0.297
Mof_H 	H 	0.8853	0.6282	0.991	0.002
Mof_H 	H 	0.6261	0.5154	0.0061	0.146
Mof_H 	H 	0.6168	0.7516	0.1066	0.143
Mof_H 	H 	0.8825	0.8622	0.0931	-0.009
Mof_H 	H 	0.2325	0.6458	0.0526	0.148
Mof_H 	H 	0.0553	0.6462	0.1104	-0.016
Mof_H 	H 	0.268	0.5206	0.2089	-0.012
Mof_H 	H 	0.4488	0.5234	0.1504	0.16
Mof_H 	H 	0.759	0.2376	0.2409	0.269
Mof_H 	H 	0.9183	0.2388	0.2597	0.272
Mof_H 	H 	0.7633	0.1304	0.2724	0.265
Mof_H 	H 	0.7099	0.4552	0.3743	0.038
Mof_H 	H 	0.7986	0.325	0.4237	0.045
Mof_H 	H 	0.8621	0.136	0.4034	0.067
Mof_H 	H 	0.8519	0.0952	0.3489	0.04
Mof_H 	H 	0.0941	0.2438	0.3337	0.052
Mof_H 	H 	0.1039	0.29	0.3873	0.07
Mof_H 	H 	0.1164	0.1114	0.4164	0.07
Mof_H 	H 	0.0965	0.059	0.3634	0.068
Mof_H 	H 	0.3568	0.2632	0.3938	0.035
Mof_H 	H 	0.3373	0.209	0.3413	0.032
Mof_H 	H 	0.3865	0.0048	0.3316	0.036
Mof_H 	H 	0.517	0.9108	0.3842	0.021
Mof_H 	H 	0.4584	0.1556	0.5059	0.284
Mof_H 	H 	0.5418	0.2672	0.4722	0.293
Mof_H 	H 	0.3599	0.2078	0.4739	0.291
Mof_H 	H 	0.1147	0.3718	0.491	-0.011
Mof_H 	H 	0.3739	0.4846	0.5061	0.154
Mof_H 	H 	0.3832	0.2484	0.6066	0.143
Mof_H 	H 	0.1175	0.1378	0.5931	-0.023
Mof_H 	H 	0.7675	0.3542	0.5526	0.15
Mof_H 	H 	0.9447	0.3538	0.6104	-0.019
Mof_H 	H 	0.732	0.4794	0.7089	-0.013
Mof_H 	H 	0.5512	0.4766	0.6504	0.16
Mof_H 	H 	0.241	0.7624	0.7409	0.275
Mof_H 	H 	0.0817	0.7612	0.7597	0.279
Mof_H 	H 	0.2367	0.8696	0.7724	0.274
Mof_H 	H 	0.2901	0.5448	0.8743	0.038
Mof_H 	H 	0.2014	0.675	0.9237	0.047
Mof_H 	H 	0.1379	0.864	0.9034	0.078
Mof_H 	H 	0.1481	0.9048	0.8489	0.051
Mof_H 	H 	0.9059	0.7562	0.8337	0.048
Mof_H 	H 	0.8961	0.71	0.8873	0.065
Mof_H 	H 	0.8836	0.8886	0.9164	0.082
Mof_H 	H 	0.9035	0.941	0.8634	0.081
Mof_H 	H 	0.6432	0.7368	0.8938	0.03
Mof_H 	H 	0.6627	0.791	0.8413	0.027
Mof_H 	H 	0.6135	0.9952	0.8316	0.012
Mof_H 	H 	0.483	0.0892	0.8842	0.053
Mof_H 	H 	0.5416	0.8444	0.0059	0.28
Mof_H 	H 	0.4582	0.7328	0.9722	0.29
Mof_H 	H 	0.6401	0.7922	0.9739	0.29
Mof_C 	C 	0.7567	0.834	0.4692	0.347
Mof_C 	C 	0.8467	0.755	0.4596	-0.207
Mof_C 	C 	0.8204	0.653	0.4855	0.173
Mof_C 	C 	0.9092	0.5864	0.4768	-0.325
Mof_C 	C 	0.0257	0.6238	0.4434	0.327
Mof_C 	C 	0.0557	0.7268	0.4164	-0.317
Mof_C 	C 	0.9631	0.7928	0.4248	0.168
Mof_C 	C 	0.2255	0.5766	0.4042	0.332
Mof_C 	C 	0.3805	0.6184	0.4161	-0.325
Mof_C 	C 	0.4862	0.6196	0.3815	0.185
Mof_C 	C 	0.4397	0.582	0.3349	-0.205
Mof_C 	C 	0.2853	0.5452	0.3227	0.179
Mof_C 	C 	0.1786	0.5452	0.3579	-0.326
Mof_C 	C 	0.5539	0.5686	0.2988	0.325
Mof_C 	C 	0.4056	0.2158	0.2327	-0.823
Mof_C 	C 	0.4841	0.279	0.1876	0.305
Mof_C 	C 	0.655	0.3954	0.1375	0.005
Mof_C 	C 	0.5348	0.3238	0.11	-0.009
Mof_C 	C 	0.2727	0.1644	0.1296	-0.039
Mof_C 	C 	0.1542	0.2188	0.133	-0.097
Mof_C 	C 	0.9928	0.1324	0.1176	-0.128
Mof_C 	C 	0.8739	0.1888	0.1246	-0.023
Mof_C 	C 	0.6094	0.0248	0.1362	-0.051
Mof_C 	C 	0.4857	0.9738	0.107	0.059
Mof_C 	C 	0.6569	0.1108	0.0649	0.325
Mof_C 	C 	0.7391	0.1926	0.0247	-0.893
Mof_C 	C 	0.2433	0.166	0.9692	0.365
Mof_C 	C 	0.1533	0.245	0.9596	-0.23
Mof_C 	C 	0.1796	0.347	0.9855	0.205
Mof_C 	C 	0.0908	0.4136	0.9768	-0.341
Mof_C 	C 	0.9743	0.3762	0.9434	0.337
Mof_C 	C 	0.9443	0.2732	0.9164	-0.338
Mof_C 	C 	0.0369	0.2072	0.9248	0.19
Mof_C 	C 	0.7745	0.4234	0.9042	0.334
Mof_C 	C 	0.6195	0.3816	0.9161	-0.328
Mof_C 	C 	0.5138	0.3804	0.8815	0.186
Mof_C 	C 	0.5603	0.418	0.8349	-0.209
Mof_C 	C 	0.7147	0.4548	0.8227	0.179
Mof_C 	C 	0.8214	0.4548	0.8579	-0.329
Mof_C 	C 	0.4461	0.4314	0.7988	0.325
Mof_C 	C 	0.5944	0.7842	0.7327	-0.833
Mof_C 	C 	0.5159	0.721	0.6876	0.308
Mof_C 	C 	0.345	0.6046	0.6375	0.005
Mof_C 	C 	0.4652	0.6762	0.61	-0.009
Mof_C 	C 	0.7273	0.8356	0.6296	-0.053
Mof_C 	C 	0.8458	0.7812	0.633	-0.082
Mof_C 	C 	0.0072	0.8676	0.6176	-0.146
Mof_C 	C 	0.1261	0.8112	0.6246	-0.006
Mof_C 	C 	0.3906	0.9752	0.6362	0.043
Mof_C 	C 	0.5143	0.0262	0.607	-0.06
Mof_C 	C 	0.3431	0.8892	0.5649	0.329
Mof_C 	C 	0.2609	0.8074	0.5247	-0.881
Mof_C 	C 	0.0773	0.834	0.0308	0.335
Mof_C 	C 	0.9083	0.755	0.0404	-0.194
Mof_C 	C 	0.8326	0.653	0.0145	0.147
Mof_C 	C 	0.6772	0.5864	0.0232	-0.307
Mof_C 	C 	0.5981	0.6238	0.0566	0.316
Mof_C 	C 	0.6711	0.7268	0.0836	-0.308
Mof_C 	C 	0.8297	0.7928	0.0752	0.158
Mof_C 	C 	0.3511	0.5766	0.0958	0.33
Mof_C 	C 	0.2379	0.6184	0.0839	-0.323
Mof_C 	C 	0.1334	0.6196	0.1185	0.183
Mof_C 	C 	0.1423	0.582	0.1651	-0.204
Mof_C 	C 	0.2599	0.5452	0.1773	0.177
Mof_C 	C 	0.3666	0.5452	0.1421	-0.324
Mof_C 	C 	0.0147	0.5686	0.2012	0.326
Mof_C 	C 	0.8102	0.2158	0.2673	-0.821
Mof_C 	C 	0.7949	0.279	0.3124	0.304
Mof_C 	C 	0.7404	0.3954	0.3625	0.005
Mof_C 	C 	0.789	0.3238	0.39	-0.01
Mof_C 	C 	0.8917	0.1644	0.3704	-0.041
Mof_C 	C 	0.0646	0.2188	0.367	-0.096
Mof_C 	C 	0.1396	0.1324	0.3824	-0.127
Mof_C 	C 	0.3149	0.1888	0.3754	-0.024
Mof_C 	C 	0.4154	0.0248	0.3638	-0.051
Mof_C 	C 	0.4881	0.9738	0.393	0.06
Mof_C 	C 	0.4539	0.1108	0.4351	0.319
Mof_C 	C 	0.4535	0.1926	0.4753	-0.867
Mof_C 	C 	0.9227	0.166	0.5308	0.348
Mof_C 	C 	0.0917	0.245	0.5404	-0.21
Mof_C 	C 	0.1674	0.347	0.5145	0.175
Mof_C 	C 	0.3228	0.4136	0.5232	-0.325
Mof_C 	C 	0.4019	0.3762	0.5566	0.327
Mof_C 	C 	0.3289	0.2732	0.5836	-0.322
Mof_C 	C 	0.1703	0.2072	0.5752	0.171
Mof_C 	C 	0.6489	0.4234	0.5958	0.332
Mof_C 	C 	0.7621	0.3816	0.5839	-0.326
Mof_C 	C 	0.8666	0.3804	0.6185	0.184
Mof_C 	C 	0.8577	0.418	0.6651	-0.207
Mof_C 	C 	0.7401	0.4548	0.6773	0.177
Mof_C 	C 	0.6334	0.4548	0.6421	-0.327
Mof_C 	C 	0.9853	0.4314	0.7012	0.322
Mof_C 	C 	0.1898	0.7842	0.7673	-0.835
Mof_C 	C 	0.2051	0.721	0.8124	0.309
Mof_C 	C 	0.2596	0.6046	0.8625	0.005
Mof_C 	C 	0.211	0.6762	0.89	-0.009
Mof_C 	C 	0.1083	0.8356	0.8704	-0.051
Mof_C 	C 	0.9354	0.7812	0.867	-0.083
Mof_C 	C 	0.8604	0.8676	0.8824	-0.147
Mof_C 	C 	0.6851	0.8112	0.8754	-0.006
Mof_C 	C 	0.5846	0.9752	0.8638	0.044
Mof_C 	C 	0.5119	0.0262	0.893	-0.061
Mof_C 	C 	0.5461	0.8892	0.9351	0.322
Mof_C 	C 	0.5465	0.8074	0.9753	-0.849
Mof_N 	N 	0.6237	0.3666	0.1857	-0.191
Mof_N 	N 	0.4266	0.248	0.1422	-0.156
Mof_N 	N 	0.7188	0.1114	0.1096	-0.162
Mof_N 	N 	0.5147	0.0276	0.06264	-0.216
Mof_N 	N 	0.3763	0.6334	0.6857	-0.192
Mof_N 	N 	0.5734	0.752	0.6422	-0.154
Mof_N 	N 	0.2812	0.8886	0.6096	-0.176
Mof_N 	N 	0.4853	0.9724	0.56264	-0.178
Mof_N 	N 	0.7429	0.3666	0.3143	-0.191
Mof_N 	N 	0.8214	0.248	0.3578	-0.156
Mof_N 	N 	0.3926	0.1114	0.3904	-0.16
Mof_N 	N 	0.5129	0.0276	0.43736	-0.215
Mof_N 	N 	0.2571	0.6334	0.8143	-0.192
Mof_N 	N 	0.1786	0.752	0.8578	-0.154
Mof_N 	N 	0.6074	0.8886	0.8904	-0.175
Mof_N 	N 	0.4871	0.9724	0.93736	-0.175
Mof_O 	O 	0.6563	0.8054	0.5028	-0.292
Mof_O 	O 	0.7863	0.9254	0.4447	-0.286
Mof_O 	O 	0.1185	0.5586	0.44188	-0.337
Mof_O 	O 	0.6986	0.6198	0.308	-0.272
Mof_O 	O 	0.5022	0.5028	0.2619	-0.292
Mof_O 	O 	0.3437	0.1946	0.0028	-0.306
Mof_O 	O 	0.2137	0.0746	0.9447	-0.306
Mof_O 	O 	0.8815	0.4414	0.94188	-0.34
Mof_O 	O 	0.3014	0.3802	0.808	-0.276
Mof_O 	O 	0.4978	0.4972	0.7619	-0.293
Mof_O 	O 	0.1491	0.8054	0.9972	-0.283
Mof_O 	O 	0.1391	0.9254	0.0553	-0.283
Mof_O 	O 	0.4401	0.5586	0.05812	-0.335
Mof_O 	O 	0.9212	0.6198	0.192	-0.273
Mof_O 	O 	0.0006	0.5028	0.2381	-0.291
Mof_O 	O 	0.8509	0.1946	0.4972	-0.298
Mof_O 	O 	0.8609	0.0746	0.5553	-0.305
Mof_O 	O 	0.5599	0.4414	0.55812	-0.337
Mof_O 	O 	0.0788	0.3802	0.692	-0.274
Mof_O 	O 	0.9994	0.4972	0.7381	-0.293
_end
