data_functionalizedCrystal
_audit_creation_method	'EQeq! by Chris Wilmer'
_symmetry_space_group_name_H-M	'P1'
_symmetry_Int_Tables_number	1
_symmetry_cell_setting	triclinic
loop_
_symmetry_equiv_pos_as_xyz
  x,y,z
_cell_length_a	10.985
_cell_length_b	19.856
_cell_length_c	20.45
_cell_angle_alpha	90
_cell_angle_beta	90
_cell_angle_gamma	99.73
loop_
_atom_site_label
_atom_site_type_symbol
_atom_site_fract_x
_atom_site_fract_y
_atom_site_fract_z
_atom_site_charge
Mof_La	La	0.46461	0.65494	0.87339	1.764
Mof_La	La	0.6597	0.41828	0.626	1.416
Mof_La	La	0.03539	0.84506	0.37339	1.753
Mof_La	La	0.8403	0.08172	0.126	1.412
Mof_La	La	0.53539	0.34506	0.12661	1.764
Mof_La	La	0.1597	0.91828	0.874	1.412
Mof_La	La	0.3403	0.58172	0.374	1.416
Mof_La	La	0.96461	0.15494	0.62661	1.753
Mof_Cu	Cu	0.79254	0.08927	0.32593	0.919
Mof_Cu	Cu	0.29254	0.58927	0.17407	0.919
Mof_Cu	Cu	0.5803	0.33161	0.3254	0.881
Mof_Cu	Cu	0.4197	0.66839	0.6746	0.881
Mof_Cu	Cu	0.20746	0.91073	0.67407	0.919
Mof_Cu	Cu	0.70746	0.41073	0.82593	0.919
Mof_Cu	Cu	0.0803	0.83161	0.1746	0.878
Mof_Cu	Cu	0.9197	0.16839	0.8254	0.878
Mof_H 	H 	0.6309	0.004	0.6951	0.042
Mof_H 	H 	0.9906	0.5734	0.6884	0.014
Mof_H 	H 	0.0094	0.4266	0.3116	0.014
Mof_H 	H 	0.5094	0.9266	0.1884	0.015
Mof_H 	H 	0.5815	0.9373	0.421	0.06
Mof_H 	H 	0.3691	0.996	0.3049	0.042
Mof_H 	H 	0.4906	0.0734	0.8116	0.015
Mof_H 	H 	0.0815	0.4373	0.079	0.061
Mof_H 	H 	0.4185	0.0627	0.579	0.06
Mof_H 	H 	0.1309	0.504	0.8049	0.043
Mof_H 	H 	0.9185	0.5627	0.921	0.061
Mof_H 	H 	0.6069	0.7464	0.3097	0.037
Mof_H 	H 	0.7666	0.6758	0.3165	0.025
Mof_H 	H 	0.7334	0.8242	0.8165	0.025
Mof_H 	H 	0.2334	0.3242	0.6835	0.025
Mof_H 	H 	0.8931	0.7536	0.8097	0.037
Mof_H 	H 	0.3931	0.2536	0.6903	0.037
Mof_H 	H 	0.1069	0.2464	0.1903	0.037
Mof_H 	H 	0.2666	0.1758	0.1835	0.025
Mof_H 	H 	0.8691	0.496	0.1951	0.043
Mof_C 	C 	0.8741	0.4866	0.9865	-0.031
Mof_C 	C 	0.6608	0.177	0.8327	0.34
Mof_C 	C 	0.7394	0.4753	0.9684	0.315
Mof_C 	C 	0.2183	0.1466	0.6724	0.318
Mof_C 	C 	0.485	0.7712	0.2434	-0.075
Mof_C 	C 	0.0487	0.4626	0.0473	0.001
Mof_C 	C 	0.7817	0.8534	0.3276	0.318
Mof_C 	C 	0.045	0.2777	0.7593	0.417
Mof_C 	C 	0.2606	0.5247	0.0316	0.315
Mof_C 	C 	0.7606	0.0247	0.4684	0.31
Mof_C 	C 	0.6618	0.8464	0.2897	-0.033
Mof_C 	C 	0.5834	0.2996	0.7661	0.371
Mof_C 	C 	0.2857	0.1401	0.2087	0.008
Mof_C 	C 	0.0834	0.7996	0.7339	0.371
Mof_C 	C 	0.2878	0.424	0.7048	-0.06
Mof_C 	C 	0.9647	0.3942	0.8274	0.325
Mof_C 	C 	0.744	0.5215	0.2594	-0.085
Mof_C 	C 	0.7183	0.6466	0.8276	0.319
Mof_C 	C 	0.0774	0.5508	0.9657	-0.054
Mof_C 	C 	0.1608	0.677	0.6673	0.34
Mof_C 	C 	0.0353	0.6058	0.1726	0.325
Mof_C 	C 	0.132	0.4005	0.2468	-0.096
Mof_C 	C 	0.158	0.604	0.9258	0.363
Mof_C 	C 	0.7878	0.924	0.7952	-0.062
Mof_C 	C 	0.9708	0.6097	0.7126	0.013
Mof_C 	C 	0.4091	0.4298	0.6703	0.308
Mof_C 	C 	0.8256	0.05	0.7664	0.41
Mof_C 	C 	0.658	0.104	0.5742	0.363
Mof_C 	C 	0.2143	0.3599	0.7087	0.006
Mof_C 	C 	0.2122	0.076	0.2048	-0.062
Mof_C 	C 	0.8876	0.6511	0.2499	-0.112
Mof_C 	C 	0.455	0.2223	0.2593	0.417
Mof_C 	C 	0.4553	0.8261	0.2077	-0.061
Mof_C 	C 	0.3256	0.55	0.7336	0.413
Mof_C 	C 	0.8479	0.5322	0.219	-0.006
Mof_C 	C 	0.2988	0.0277	0.74	0.416
Mof_C 	C 	0.0909	0.0702	0.1703	0.313
Mof_C 	C 	0.9553	0.3261	0.2923	-0.061
Mof_C 	C 	0.4166	0.7004	0.2339	0.371
Mof_C 	C 	0.6259	0.0134	0.4865	-0.03
Mof_C 	C 	0.9513	0.5374	0.9527	0.001
Mof_C 	C 	0.0877	0.2824	0.2151	-0.002
Mof_C 	C 	0.985	0.2712	0.2566	-0.078
Mof_C 	C 	0.3741	0.9866	0.5135	-0.03
Mof_C 	C 	0.9166	0.2004	0.2661	0.371
Mof_C 	C 	0.1744	0.95	0.2336	0.41
Mof_C 	C 	0.5487	0.9626	0.4527	0.004
Mof_C 	C 	0.3479	0.0322	0.281	-0.004
Mof_C 	C 	0.3876	0.1511	0.2501	-0.112
Mof_C 	C 	0.1618	0.3464	0.2103	-0.034
Mof_C 	C 	0.1259	0.5134	0.0135	-0.031
Mof_C 	C 	0.632	0.9005	0.2532	-0.097
Mof_C 	C 	0.0447	0.6739	0.7077	-0.061
Mof_C 	C 	0.6124	0.8489	0.7499	-0.112
Mof_C 	C 	0.9123	0.7176	0.7849	-0.002
Mof_C 	C 	0.0798	0.4032	0.7857	-0.037
Mof_C 	C 	0.3382	0.1536	0.7103	-0.033
Mof_C 	C 	0.9091	0.9298	0.8297	0.313
Mof_C 	C 	0.0292	0.3903	0.2874	0.013
Mof_C 	C 	0.2394	0.9753	0.5316	0.31
Mof_C 	C 	0.1124	0.3489	0.7501	-0.112
Mof_C 	C 	0.7143	0.8599	0.7913	0.008
Mof_C 	C 	0.4202	0.0968	0.2857	-0.039
Mof_C 	C 	0.4513	0.0374	0.5473	0.004
Mof_C 	C 	0.545	0.7777	0.7407	0.417
Mof_C 	C 	0.8392	0.323	0.3327	0.34
Mof_C 	C 	0.756	0.9785	0.7594	-0.082
Mof_C 	C 	0.515	0.2288	0.7566	-0.075
Mof_C 	C 	0.7012	0.9723	0.26	0.416
Mof_C 	C 	0.6521	0.9678	0.719	-0.004
Mof_C 	C 	0.7857	0.6401	0.2913	0.006
Mof_C 	C 	0.8382	0.6536	0.7897	-0.034
Mof_C 	C 	0.9202	0.5968	0.2143	-0.037
Mof_C 	C 	0.842	0.396	0.0742	0.363
Mof_C 	C 	0.4647	0.8942	0.6726	0.327
Mof_C 	C 	0.1521	0.4678	0.781	-0.006
Mof_C 	C 	0.244	0.0215	0.2406	-0.082
Mof_C 	C 	0.4123	0.2176	0.7151	-0.005
Mof_C 	C 	0.342	0.896	0.4258	0.363
Mof_C 	C 	0.5877	0.7824	0.2849	-0.005
Mof_C 	C 	0.2012	0.4723	0.24	0.412
Mof_C 	C 	0.5798	0.9032	0.7143	-0.039
Mof_C 	C 	0.5447	0.1739	0.7923	-0.061
Mof_C 	C 	0.4708	0.1097	0.7874	0.013
Mof_C 	C 	0.3392	0.823	0.1673	0.34
Mof_C 	C 	0.6744	0.45	0.2664	0.413
Mof_C 	C 	0.5353	0.1058	0.3274	0.327
Mof_C 	C 	0.368	0.0995	0.7468	-0.097
Mof_C 	C 	0.5292	0.8903	0.2126	0.013
Mof_C 	C 	0.5774	0.0508	0.5343	-0.057
Mof_C 	C 	0.955	0.7223	0.2407	0.417
Mof_C 	C 	0.2817	0.3534	0.1724	0.319
Mof_C 	C 	0.7122	0.576	0.2952	-0.06
Mof_C 	C 	0.015	0.7288	0.7434	-0.078
Mof_C 	C 	0.256	0.4785	0.7406	-0.085
Mof_C 	C 	0.5909	0.5702	0.3297	0.308
Mof_C 	C 	0.7988	0.5277	0.76	0.412
Mof_C 	C 	0.4226	0.9492	0.4657	-0.057
Mof_C 	C 	0.868	0.5995	0.7532	-0.096
Mof_C 	C 	0.9226	0.4492	0.0343	-0.054
Mof_O 	O 	0.7265	0.3964	0.07424	-0.482
Mof_O 	O 	0.5013	0.46764	0.69452	-0.393
Mof_O 	O 	0.239	0.80368	0.19868	-0.387
Mof_O 	O 	0.2105	0.1781	0.62059	-0.405
Mof_O 	O 	0.3391	0.5727	0.67592	-0.448
Mof_O 	O 	0.7895	0.8219	0.37941	-0.405
Mof_O 	O 	0.1264	0.81532	0.67779	-0.403
Mof_O 	O 	0.5382	0.73703	0.7874	-0.537
Mof_O 	O 	0.4618	0.26297	0.2126	-0.537
Mof_O 	O 	0.8052	0.0761	0.43418	-0.349
Mof_O 	O 	0.2895	0.3219	0.12059	-0.407
Mof_O 	O 	0.2175	0.49373	0.18271	-0.412
Mof_O 	O 	0.1358	0.61464	0.20531	-0.381
Mof_O 	O 	0.0013	0.96764	0.80548	-0.398
Mof_O 	O 	0.4075	0.65951	0.28134	-0.475
Mof_O 	O 	0.3736	0.68468	0.17779	-0.403
Mof_O 	O 	0.8463	0.3423	0.3899	-0.333
Mof_O 	O 	0.1383	0.91628	0.28349	-0.495
Mof_O 	O 	0.73	0.00678	0.20937	-0.504
Mof_O 	O 	0.27	0.99322	0.79063	-0.504
Mof_O 	O 	0.4987	0.53236	0.30548	-0.393
Mof_O 	O 	0.6264	0.31532	0.82221	-0.403
Mof_O 	O 	0.0382	0.23703	0.7126	-0.533
Mof_O 	O 	0.1948	0.9239	0.56582	-0.349
Mof_O 	O 	0.6948	0.4239	0.93418	-0.35
Mof_O 	O 	0.5813	0.606	0.37992	-0.421
Mof_O 	O 	0.1537	0.6577	0.6101	-0.333
Mof_O 	O 	0.9978	0.73725	0.1849	-0.431
Mof_O 	O 	0.4978	0.23725	0.3151	-0.434
Mof_O 	O 	0.0274	0.602	0.1132	-0.261
Mof_O 	O 	0.6537	0.1577	0.8899	-0.333
Mof_O 	O 	0.3642	0.88536	0.70531	-0.381
Mof_O 	O 	0.7825	0.50627	0.81729	-0.412
Mof_O 	O 	0.2735	0.6036	0.92576	-0.482
Mof_O 	O 	0.3052	0.5761	0.06582	-0.35
Mof_O 	O 	0.9987	0.03236	0.19452	-0.398
Mof_O 	O 	0.2825	0.00627	0.68271	-0.411
Mof_O 	O 	0.739	0.30368	0.30132	-0.386
Mof_O 	O 	0.7175	0.99373	0.31729	-0.411
Mof_O 	O 	0.9618	0.76297	0.2874	-0.533
Mof_O 	O 	0.0925	0.84049	0.78134	-0.475
Mof_O 	O 	0.6253	0.60985	0.80186	-0.404
Mof_O 	O 	0.761	0.19632	0.80132	-0.387
Mof_O 	O 	0.4187	0.394	0.62008	-0.421
Mof_O 	O 	0.9187	0.894	0.87992	-0.421
Mof_O 	O 	0.6358	0.11464	0.29469	-0.381
Mof_O 	O 	0.1609	0.9273	0.17592	-0.448
Mof_O 	O 	0.9075	0.15951	0.21866	-0.475
Mof_O 	O 	0.5022	0.76275	0.6849	-0.434
Mof_O 	O 	0.8736	0.18468	0.32221	-0.403
Mof_O 	O 	0.8923	0.3551	0.1072	-0.307
Mof_O 	O 	0.2265	0.8964	0.42576	-0.482
Mof_O 	O 	0.0022	0.26275	0.8151	-0.431
Mof_O 	O 	0.7105	0.6781	0.87941	-0.407
Mof_O 	O 	0.4726	0.898	0.6132	-0.26
Mof_O 	O 	0.23	0.50678	0.29063	-0.501
Mof_O 	O 	0.1077	0.6449	0.8928	-0.307
Mof_O 	O 	0.6383	0.41628	0.21651	-0.495
Mof_O 	O 	0.5925	0.34049	0.71866	-0.475
Mof_O 	O 	0.321	0.4799	0.0122	-0.277
Mof_O 	O 	0.5274	0.102	0.3868	-0.26
Mof_O 	O 	0.3747	0.39015	0.19814	-0.404
Mof_O 	O 	0.8747	0.89015	0.30186	-0.4
Mof_O 	O 	0.179	0.0201	0.5122	-0.272
Mof_O 	O 	0.8391	0.0727	0.82408	-0.448
Mof_O 	O 	0.8642	0.38536	0.79469	-0.381
Mof_O 	O 	0.6077	0.1449	0.6072	-0.306
Mof_O 	O 	0.7735	0.1036	0.57424	-0.482
Mof_O 	O 	0.1253	0.10985	0.69814	-0.4
Mof_O 	O 	0.3923	0.8551	0.3928	-0.306
Mof_O 	O 	0.6609	0.4273	0.32408	-0.448
Mof_O 	O 	0.9726	0.398	0.8868	-0.261
Mof_O 	O 	0.0813	0.106	0.12008	-0.421
Mof_O 	O 	0.8617	0.08372	0.71651	-0.495
Mof_O 	O 	0.679	0.5201	0.9878	-0.277
Mof_O 	O 	0.261	0.69632	0.69868	-0.386
Mof_O 	O 	0.77	0.49322	0.70937	-0.501
Mof_O 	O 	0.3463	0.8423	0.1101	-0.333
Mof_O 	O 	0.821	0.9799	0.4878	-0.272
Mof_O 	O 	0.3617	0.58372	0.78349	-0.495
_end
