data_functionalizedCrystal
_audit_creation_method	'EQeq! by Chris Wilmer'
_symmetry_space_group_name_H-M	'P1'
_symmetry_Int_Tables_number	1
_symmetry_cell_setting	triclinic
loop_
_symmetry_equiv_pos_as_xyz
  x,y,z
_cell_length_a	15.4721
_cell_length_b	15.4721
_cell_length_c	15.4721
_cell_angle_alpha	67.8468
_cell_angle_beta	75.769
_cell_angle_gamma	112.153
loop_
_atom_site_label
_atom_site_type_symbol
_atom_site_fract_x
_atom_site_fract_y
_atom_site_fract_z
_atom_site_charge
Mof_Cu	Cu	0.74482	0.19218	0.41398	0.706
Mof_Cu	Cu	0.72526	0.31857	0.19973	0.802
Mof_Cu	Cu	0.89384	0.30782	0.44736	0.707
Mof_Cu	Cu	0.9817	0.18143	0.59331	0.801
Mof_Cu	Cu	0.05264	0.6588	0.75518	0.707
Mof_Cu	Cu	0.90669	0.42499	0.77474	0.803
Mof_Cu	Cu	0.08602	0.8412	0.60616	0.706
Mof_Cu	Cu	0.30027	0.07501	0.5183	0.803
Mof_Cu	Cu	0.25518	0.80782	0.58602	0.707
Mof_Cu	Cu	0.27474	0.68143	0.80027	0.803
Mof_Cu	Cu	0.10616	0.69218	0.55264	0.707
Mof_Cu	Cu	0.0183	0.81857	0.40669	0.801
Mof_Cu	Cu	0.94736	0.3412	0.24482	0.707
Mof_Cu	Cu	0.09331	0.57501	0.22526	0.803
Mof_Cu	Cu	0.91398	0.1588	0.39384	0.706
Mof_Cu	Cu	0.69973	0.92499	0.4817	0.803
Mof_H 	H 	0.5314	0.2928	0.2054	0.194
Mof_H 	H 	0.44	0.281	0.2898	0.205
Mof_H 	H 	0.4224	0.1829	0.2733	0.222
Mof_H 	H 	0.5383	0.0517	0.6184	0.1
Mof_H 	H 	0.4237	0.9796	0.6385	0.088
Mof_H 	H 	0.0018	0.2072	0.7614	0.201
Mof_H 	H 	0.9292	0.219	0.841	0.21
Mof_H 	H 	0.0438	0.3171	0.7605	0.228
Mof_H 	H 	0.8299	0.4483	0.5134	0.1
Mof_H 	H 	0.8819	0.5204	0.5559	0.089
Mof_H 	H 	0.7386	0.2368	0.9686	0.191
Mof_H 	H 	0.659	0.2298	0.06	0.204
Mof_H 	H 	0.7395	0.1957	0.0776	0.22
Mof_H 	H 	0.9866	0.6567	0.9617	0.103
Mof_H 	H 	0.9441	0.5622	0.0763	0.09
Mof_H 	H 	0.2946	0.2632	0.4982	0.194
Mof_H 	H 	0.2102	0.2702	0.5708	0.205
Mof_H 	H 	0.2267	0.3043	0.4562	0.222
Mof_H 	H 	0.8816	0.8433	0.6701	0.098
Mof_H 	H 	0.8615	0.9378	0.6181	0.087
Mof_H 	H 	0.4686	0.7072	0.7946	0.194
Mof_H 	H 	0.56	0.719	0.7102	0.205
Mof_H 	H 	0.5776	0.8171	0.7267	0.222
Mof_H 	H 	0.4617	0.9483	0.3816	0.1
Mof_H 	H 	0.5763	0.0204	0.3615	0.088
Mof_H 	H 	0.9982	0.7928	0.2386	0.201
Mof_H 	H 	0.0708	0.781	0.159	0.21
Mof_H 	H 	0.9562	0.6829	0.2395	0.228
Mof_H 	H 	0.1701	0.5517	0.4866	0.1
Mof_H 	H 	0.1181	0.4796	0.4441	0.089
Mof_H 	H 	0.2614	0.7632	0.0314	0.191
Mof_H 	H 	0.341	0.7702	0.94	0.204
Mof_H 	H 	0.2605	0.8043	0.9224	0.22
Mof_H 	H 	0.0134	0.3433	0.0383	0.103
Mof_H 	H 	0.0559	0.4378	0.9237	0.09
Mof_H 	H 	0.7054	0.7368	0.5018	0.194
Mof_H 	H 	0.7898	0.7298	0.4292	0.205
Mof_H 	H 	0.7733	0.6957	0.5438	0.222
Mof_H 	H 	0.1184	0.1567	0.3299	0.098
Mof_H 	H 	0.1385	0.0622	0.3819	0.087
Mof_C 	C 	0.5075	0.2009	0.3544	0.244
Mof_C 	C 	0.4721	0.2433	0.2734	-0.749
Mof_C 	C 	0.5106	0.1196	0.4968	0.152
Mof_C 	C 	0.4793	0.053	0.6099	-0.321
Mof_C 	C 	0.9447	0.2991	0.6934	0.248
Mof_C 	C 	0.9833	0.2567	0.7712	-0.767
Mof_C 	C 	0.8836	0.3804	0.609	0.153
Mof_C 	C 	0.8371	0.447	0.5737	-0.322
Mof_C 	C 	0.8066	0.3619	0.9925	0.241
Mof_C 	C 	0.7288	0.2455	0.0279	-0.744
Mof_C 	C 	0.891	0.5074	0.9894	0.154
Mof_C 	C 	0.9263	0.5892	0.0207	-0.325
Mof_C 	C 	0.1456	0.1381	0.5553	0.244
Mof_C 	C 	0.2266	0.2545	0.5167	-0.749
Mof_C 	C 	0.0032	0.9926	0.6164	0.145
Mof_C 	C 	0.8901	0.9108	0.6629	-0.314
Mof_C 	C 	0.4925	0.7991	0.6456	0.244
Mof_C 	C 	0.5279	0.7567	0.7266	-0.749
Mof_C 	C 	0.4894	0.8804	0.5032	0.152
Mof_C 	C 	0.5207	0.947	0.3901	-0.321
Mof_C 	C 	0.0553	0.7009	0.3066	0.248
Mof_C 	C 	0.0167	0.7433	0.2288	-0.767
Mof_C 	C 	0.1164	0.6196	0.391	0.153
Mof_C 	C 	0.1629	0.553	0.4263	-0.322
Mof_C 	C 	0.1934	0.6381	0.0075	0.241
Mof_C 	C 	0.2712	0.7545	0.9721	-0.744
Mof_C 	C 	0.109	0.4926	0.0106	0.154
Mof_C 	C 	0.0737	0.4108	0.9793	-0.325
Mof_C 	C 	0.8544	0.8619	0.4447	0.244
Mof_C 	C 	0.7734	0.7455	0.4833	-0.749
Mof_C 	C 	0.9968	0.0074	0.3836	0.145
Mof_C 	C 	0.1099	0.0892	0.3371	-0.314
Mof_I 	I 	0.75454	0.078	0.57974	-0.792
Mof_I 	I 	0.84226	0.422	0.32346	-0.79
Mof_I 	I 	0.17654	0.83428	0.74546	-0.791
Mof_I 	I 	0.92026	0.66572	0.65774	-0.787
Mof_I 	I 	0.24546	0.922	0.42026	-0.792
Mof_I 	I 	0.15774	0.578	0.67654	-0.79
Mof_I 	I 	0.82346	0.16572	0.25454	-0.791
Mof_I 	I 	0.07974	0.33428	0.34226	-0.787
Mof_N 	N 	0.608	0.1736	0.4222	-0.245
Mof_N 	N 	0.6054	0.2262	0.3302	-0.283
Mof_N 	N 	0.446	0.1341	0.4567	-0.327
Mof_N 	N 	0.9042	0.3264	0.5656	-0.245
Mof_N 	N 	0.9436	0.2738	0.6208	-0.285
Mof_N 	N 	0.9092	0.3659	0.6881	-0.328
Mof_N 	N 	0.9344	0.5302	0.892	-0.244
Mof_N 	N 	0.8792	0.4356	0.8946	-0.283
Mof_N 	N 	0.8119	0.4027	0.054	-0.327
Mof_N 	N 	0.0778	0.9698	0.5958	-0.245
Mof_N 	N 	0.1698	0.0644	0.5564	-0.282
Mof_N 	N 	0.0433	0.0973	0.5908	-0.323
Mof_N 	N 	0.392	0.8264	0.5778	-0.245
Mof_N 	N 	0.3946	0.7738	0.6698	-0.283
Mof_N 	N 	0.554	0.8659	0.5433	-0.327
Mof_N 	N 	0.0958	0.6736	0.4344	-0.245
Mof_N 	N 	0.0564	0.7262	0.3792	-0.285
Mof_N 	N 	0.0908	0.6341	0.3119	-0.328
Mof_N 	N 	0.0656	0.4698	0.108	-0.244
Mof_N 	N 	0.1208	0.5644	0.1054	-0.283
Mof_N 	N 	0.1881	0.5973	0.946	-0.327
Mof_N 	N 	0.9222	0.0302	0.4042	-0.245
Mof_N 	N 	0.8302	0.9356	0.4436	-0.282
Mof_N 	N 	0.9567	0.9027	0.4092	-0.323
_end
