data_functionalizedCrystal
_audit_creation_method	'EQeq! by Chris Wilmer'
_symmetry_space_group_name_H-M	'P1'
_symmetry_Int_Tables_number	1
_symmetry_cell_setting	triclinic
loop_
_symmetry_equiv_pos_as_xyz
  x,y,z
_cell_length_a	10.134
_cell_length_b	10.3552
_cell_length_c	10.7436
_cell_angle_alpha	78.1625
_cell_angle_beta	89.43
_cell_angle_gamma	65.239
loop_
_atom_site_label
_atom_site_type_symbol
_atom_site_fract_x
_atom_site_fract_y
_atom_site_fract_z
_atom_site_charge
Mof_La	La	0.03339	0.2063	0.00051	1.865
Mof_La	La	0.96661	0.7937	0.99949	1.865
Mof_H 	H 	0.5217	0.8308	0.9696	0.018
Mof_H 	H 	0.6569	0.4459	0.8599	0.069
Mof_H 	H 	0.2322	0.7344	0.793	0.022
Mof_H 	H 	0.4338	0.6846	0.5652	0.087
Mof_H 	H 	0.3121	0.7679	0.3602	0.015
Mof_H 	H 	0.1093	0.5025	0.4584	0.045
Mof_H 	H 	0.25	0.3856	0.781	0.115
Mof_H 	H 	0.1442	0.3647	0.6808	0.115
Mof_H 	H 	0.4783	0.1692	0.0304	0.018
Mof_H 	H 	0.3431	0.5541	0.1401	0.069
Mof_H 	H 	0.7678	0.2656	0.207	0.022
Mof_H 	H 	0.5662	0.3154	0.4348	0.087
Mof_H 	H 	0.6879	0.2321	0.6398	0.015
Mof_H 	H 	0.8907	0.4975	0.5416	0.045
Mof_H 	H 	0.75	0.6144	0.219	0.115
Mof_H 	H 	0.8558	0.6353	0.3192	0.115
Mof_C 	C 	0.2348	0.9427	0.8959	0.34
Mof_C 	C 	0.3584	0.8037	0.8841	-0.1
Mof_C 	C 	0.5005	0.7656	0.9318	0.035
Mof_C 	C 	0.6104	0.6323	0.9236	-0.116
Mof_C 	C 	0.7653	0.5852	0.9772	0.435
Mof_C 	C 	0.5817	0.5379	0.8646	-0.067
Mof_C 	C 	0.441	0.5808	0.8129	0.137
Mof_C 	C 	0.3288	0.7096	0.8248	-0.071
Mof_C 	C 	0.3433	0.5442	0.6316	0.134
Mof_C 	C 	0.3679	0.6477	0.5431	-0.154
Mof_C 	C 	0.2955	0.6972	0.4216	0.047
Mof_C 	C 	0.199	0.6431	0.3903	-0.098
Mof_C 	C 	0.1187	0.696	0.2605	0.323
Mof_C 	C 	0.1758	0.5387	0.4804	-0.036
Mof_C 	C 	0.2484	0.4863	0.6023	0.017
Mof_C 	C 	0.7652	0.0573	0.1041	0.34
Mof_C 	C 	0.6416	0.1963	0.1159	-0.1
Mof_C 	C 	0.4995	0.2344	0.0682	0.035
Mof_C 	C 	0.3896	0.3677	0.0764	-0.116
Mof_C 	C 	0.2347	0.4148	0.0228	0.435
Mof_C 	C 	0.4183	0.4621	0.1354	-0.067
Mof_C 	C 	0.559	0.4192	0.1871	0.137
Mof_C 	C 	0.6712	0.2904	0.1752	-0.071
Mof_C 	C 	0.6567	0.4558	0.3684	0.134
Mof_C 	C 	0.6321	0.3523	0.4569	-0.154
Mof_C 	C 	0.7045	0.3028	0.5784	0.047
Mof_C 	C 	0.801	0.3569	0.6097	-0.098
Mof_C 	C 	0.8813	0.304	0.7395	0.323
Mof_C 	C 	0.8242	0.4613	0.5196	-0.036
Mof_C 	C 	0.7516	0.5137	0.3977	0.017
Mof_N 	N 	0.2369	0.3748	0.6922	-0.199
Mof_N 	N 	0.7631	0.6252	0.3078	-0.199
Mof_O 	O 	0.1084	0.9466	0.9115	-0.52
Mof_O 	O 	0.2583	0.0538	0.8925	-0.402
Mof_O 	O 	0.852	0.4528	0.9909	-0.514
Mof_O 	O 	0.7968	0.6819	0.006	-0.486
Mof_O 	O 	0.4155	0.485	0.7534	-0.237
Mof_O 	O 	0.1585	0.7691	0.1717	-0.415
Mof_O 	O 	0.0152	0.6641	0.2408	-0.404
Mof_O 	O 	0.8916	0.0534	0.0885	-0.52
Mof_O 	O 	0.7417	0.9462	0.1075	-0.402
Mof_O 	O 	0.148	0.5472	0.0091	-0.514
Mof_O 	O 	0.2032	0.3181	0.994	-0.486
Mof_O 	O 	0.5845	0.515	0.2466	-0.237
Mof_O 	O 	0.8415	0.2309	0.8283	-0.415
Mof_O 	O 	0.9848	0.3359	0.7592	-0.404
_end
