data_functionalizedCrystal
_audit_creation_method	'EQeq! by Chris Wilmer'
_symmetry_space_group_name_H-M	'P1'
_symmetry_Int_Tables_number	1
_symmetry_cell_setting	triclinic
loop_
_symmetry_equiv_pos_as_xyz
  x,y,z
_cell_length_a	9.417
_cell_length_b	15.289
_cell_length_c	16.75
_cell_angle_alpha	68.978
_cell_angle_beta	79.291
_cell_angle_gamma	89.359
loop_
_atom_site_label
_atom_site_type_symbol
_atom_site_fract_x
_atom_site_fract_y
_atom_site_fract_z
_atom_site_charge
Mof_Pr	Pr	0.08383	0.17215	0.89228	2.446
Mof_Pr	Pr	0.38327	0.23849	0.47817	2.107
Mof_Pr	Pr	0.50094	0.32236	0.10905	2.488
Mof_O 	O 	0.2506	0.1956	0.7532	-0.589
Mof_O 	O 	0.3925	0.2353	0.6236	-0.567
Mof_O 	O 	0.8913	0.2139	0.7967	-0.435
Mof_O 	O 	0.8051	0.1288	0.9353	-0.457
Mof_O 	O 	0.4921	0.8486	0.7957	-0.497
Mof_O 	O 	0.5898	0.8266	0.9093	-0.501
Mof_O 	O 	0.6723	0.4705	0.505	-0.552
Mof_H 	H 	0.7036	0.5111	0.4572	0.296
Mof_O 	O 	0.633	0.5935	0.544	-0.585
Mof_O 	O 	0.573	0.5383	0.8618	-0.624
Mof_O 	O 	0.5167	0.3928	0.9569	-0.678
Mof_O 	O 	0.5991	0.3165	0.3671	-0.581
Mof_O 	O 	0.5839	0.3014	0.2427	-0.642
Mof_O 	O 	0.2458	0.2788	0.2077	-0.466
Mof_O 	O 	0.2478	0.3641	0.0712	-0.459
Mof_O 	O 	0.032	0.6753	0.0873	-0.456
Mof_O 	O 	0.8496	0.6584	0.195	-0.489
Mof_O 	O 	0.0137	0.1098	0.0445	-0.663
Mof_O 	O 	0.9641	0.9655	0.1409	-0.634
Mof_O 	O 	0.7352	0.9088	0.439	-0.601
Mof_O 	O 	0.7347	0.0194	0.4955	-0.364
Mof_C 	C 	0.3654	0.1934	0.7045	0.566
Mof_C 	C 	0.4816	0.1374	0.7499	-0.292
Mof_C 	C 	0.5833	0.1793	0.7783	0.175
Mof_C 	C 	0.6748	0.1198	0.8293	-0.198
Mof_C 	C 	0.661	0.0238	0.8513	0.121
Mof_H 	H 	0.7173	0.9855	0.8884	-0.021
Mof_C 	C 	0.5643	0.9829	0.8189	-0.198
Mof_C 	C 	0.4754	0.0416	0.7674	0.141
Mof_H 	H 	0.4111	0.0161	0.7444	-0.031
Mof_C 	C 	0.7945	0.1583	0.855	0.346
Mof_C 	C 	0.5514	0.879	0.8432	0.378
Mof_C 	C 	0.5903	0.282	0.7587	-0.175
Mof_C 	C 	0.6125	0.3463	0.6722	0.166
Mof_H 	H 	0.6255	0.3242	0.6265	-0.011
Mof_C 	C 	0.6153	0.441	0.6544	-0.293
Mof_C 	C 	0.5966	0.4751	0.7221	0.238
Mof_H 	H 	0.5978	0.5396	0.7094	-0.078
Mof_C 	C 	0.5763	0.4145	0.808	-0.314
Mof_C 	C 	0.5737	0.3186	0.8259	0.163
Mof_H 	H 	0.5607	0.2775	0.8836	-0.051
Mof_C 	C 	0.6395	0.5097	0.5635	0.561
Mof_C 	C 	0.5546	0.4503	0.8808	0.596
Mof_C 	C 	0.649	0.3248	0.2912	0.556
Mof_C 	C 	0.8012	0.3699	0.25	-0.263
Mof_C 	C 	0.9186	0.322	0.2241	0.143
Mof_C 	C 	0.0482	0.3766	0.1754	-0.186
Mof_C 	C 	0.0537	0.4734	0.1498	0.12
Mof_H 	H 	0.1363	0.5081	0.1129	-0.021
Mof_C 	C 	0.9387	0.5204	0.1779	-0.191
Mof_C 	C 	0.8122	0.4664	0.2291	0.124
Mof_H 	H 	0.7343	0.4957	0.2493	-0.01
Mof_C 	C 	0.1869	0.3359	0.1502	0.361
Mof_C 	C 	0.9428	0.6246	0.1512	0.355
Mof_C 	C 	0.9053	0.2192	0.2435	-0.148
Mof_C 	C 	0.947	0.185	0.1772	0.124
Mof_H 	H 	0.9863	0.2265	0.1214	-0.034
Mof_C 	C 	0.9311	0.0885	0.1928	-0.277
Mof_C 	C 	0.8691	0.0292	0.276	0.181
Mof_H 	H 	0.8567	0.9653	0.2873	-0.027
Mof_C 	C 	0.8257	0.0618	0.3417	-0.221
Mof_C 	C 	0.8459	0.1572	0.3262	0.099
Mof_H 	H 	0.8193	0.1792	0.3716	-0.018
Mof_C 	C 	0.9719	0.0505	0.1213	0.6
Mof_C 	C 	0.7604	0.9917	0.4333	0.443
Mof_Pr	Pr	0.91617	0.82785	0.10772	2.447
Mof_Pr	Pr	0.61673	0.76151	0.52183	2.108
Mof_Pr	Pr	0.49906	0.67764	0.89095	2.489
Mof_O 	O 	0.7494	0.8044	0.2468	-0.588
Mof_O 	O 	0.6075	0.7647	0.3764	-0.566
Mof_O 	O 	0.1087	0.7861	0.2033	-0.434
Mof_O 	O 	0.1949	0.8712	0.0647	-0.456
Mof_O 	O 	0.5079	0.1514	0.2043	-0.496
Mof_O 	O 	0.4102	0.1734	0.0907	-0.501
Mof_O 	O 	0.3277	0.5295	0.495	-0.552
Mof_H 	H 	0.2964	0.4889	0.5428	0.296
Mof_O 	O 	0.367	0.4065	0.456	-0.585
Mof_O 	O 	0.427	0.4617	0.1382	-0.624
Mof_O 	O 	0.4833	0.6072	0.0431	-0.678
Mof_O 	O 	0.4009	0.6835	0.6329	-0.581
Mof_O 	O 	0.4161	0.6986	0.7573	-0.642
Mof_O 	O 	0.7542	0.7212	0.7923	-0.466
Mof_O 	O 	0.7522	0.6359	0.9288	-0.459
Mof_O 	O 	0.968	0.3247	0.9127	-0.456
Mof_O 	O 	0.1504	0.3416	0.805	-0.489
Mof_O 	O 	0.9863	0.8902	0.9555	-0.663
Mof_O 	O 	0.0359	0.0345	0.8591	-0.634
Mof_O 	O 	0.2648	0.0912	0.561	-0.601
Mof_O 	O 	0.2653	0.9806	0.5045	-0.364
Mof_C 	C 	0.6346	0.8066	0.2955	0.566
Mof_C 	C 	0.5184	0.8626	0.2501	-0.292
Mof_C 	C 	0.4167	0.8207	0.2217	0.175
Mof_C 	C 	0.3252	0.8802	0.1707	-0.198
Mof_C 	C 	0.339	0.9762	0.1487	0.121
Mof_H 	H 	0.2827	0.0145	0.1116	-0.021
Mof_C 	C 	0.4357	0.0171	0.1811	-0.198
Mof_C 	C 	0.5246	0.9584	0.2326	0.141
Mof_H 	H 	0.5889	0.9839	0.2556	-0.031
Mof_C 	C 	0.2055	0.8417	0.145	0.346
Mof_C 	C 	0.4486	0.121	0.1568	0.378
Mof_C 	C 	0.4097	0.718	0.2413	-0.175
Mof_C 	C 	0.3875	0.6537	0.3278	0.166
Mof_H 	H 	0.3745	0.6758	0.3735	-0.011
Mof_C 	C 	0.3847	0.559	0.3456	-0.293
Mof_C 	C 	0.4034	0.5249	0.2779	0.238
Mof_H 	H 	0.4022	0.4604	0.2906	-0.078
Mof_C 	C 	0.4237	0.5855	0.192	-0.314
Mof_C 	C 	0.4263	0.6814	0.1741	0.163
Mof_H 	H 	0.4393	0.7225	0.1164	-0.051
Mof_C 	C 	0.3605	0.4903	0.4365	0.561
Mof_C 	C 	0.4454	0.5497	0.1192	0.596
Mof_C 	C 	0.351	0.6752	0.7088	0.556
Mof_C 	C 	0.1988	0.6301	0.75	-0.263
Mof_C 	C 	0.0814	0.678	0.7759	0.143
Mof_C 	C 	0.9518	0.6234	0.8246	-0.186
Mof_C 	C 	0.9463	0.5266	0.8502	0.12
Mof_H 	H 	0.8637	0.4919	0.8871	-0.021
Mof_C 	C 	0.0613	0.4796	0.8221	-0.191
Mof_C 	C 	0.1878	0.5336	0.7709	0.124
Mof_H 	H 	0.2657	0.5043	0.7507	-0.01
Mof_C 	C 	0.8131	0.6641	0.8498	0.361
Mof_C 	C 	0.0572	0.3754	0.8488	0.355
Mof_C 	C 	0.0947	0.7808	0.7565	-0.148
Mof_C 	C 	0.053	0.815	0.8228	0.124
Mof_H 	H 	0.0137	0.7735	0.8786	-0.034
Mof_C 	C 	0.0689	0.9115	0.8072	-0.277
Mof_C 	C 	0.1309	0.9708	0.724	0.181
Mof_H 	H 	0.1433	0.0347	0.7127	-0.027
Mof_C 	C 	0.1743	0.9382	0.6583	-0.221
Mof_C 	C 	0.1541	0.8428	0.6738	0.099
Mof_H 	H 	0.1807	0.8208	0.6284	-0.018
Mof_C 	C 	0.0281	0.9495	0.8787	0.6
Mof_C 	C 	0.2396	0.0083	0.5667	0.443
_end
