data_functionalizedCrystal
_audit_creation_method	'EQeq! by Chris Wilmer'
_symmetry_space_group_name_H-M	'P1'
_symmetry_Int_Tables_number	1
_symmetry_cell_setting	triclinic
loop_
_symmetry_equiv_pos_as_xyz
  x,y,z
_cell_length_a	8.18
_cell_length_b	8.89
_cell_length_c	29.9
_cell_angle_alpha	90
_cell_angle_beta	90
_cell_angle_gamma	104.06
loop_
_atom_site_label
_atom_site_type_symbol
_atom_site_fract_x
_atom_site_fract_y
_atom_site_fract_z
_atom_site_charge
Mof_Zn	Zn	0.94002	0.49896	0.90955	1.165
Mof_Zn	Zn	0.55998	0.50104	0.40955	1.164
Mof_Zn	Zn	0.05998	0.50104	0.09045	1.165
Mof_Zn	Zn	0.44002	0.49896	0.59045	1.164
Mof_Mo	Mo	0.75636	0.06236	0.92203	1.517
Mof_Mo	Mo	0.9546	0.08681	0.04392	2.041
Mof_Mo	Mo	0.55119	0.82487	0.99755	1.032
Mof_Mo	Mo	0.74364	0.93764	0.42203	1.519
Mof_Mo	Mo	0.5454	0.91319	0.54392	2.06
Mof_Mo	Mo	0.94881	0.17513	0.49755	1.032
Mof_Mo	Mo	0.24364	0.93764	0.07797	1.516
Mof_Mo	Mo	0.0454	0.91319	0.95608	2.04
Mof_Mo	Mo	0.44881	0.17513	0.00245	1.031
Mof_Mo	Mo	0.25636	0.06236	0.57797	1.518
Mof_Mo	Mo	0.4546	0.08681	0.45608	2.06
Mof_Mo	Mo	0.05119	0.82487	0.50245	1.032
Mof_H 	H 	0.8725	0.4255	0.8014	-0.008
Mof_H 	H 	0.785	0.66	0.646	-0.03
Mof_H 	H 	0.7472	0.7471	0.8706	-0.065
Mof_H 	H 	0.5077	0.7285	0.7748	0.08
Mof_H 	H 	0.5772	0.8517	0.812	0.037
Mof_H 	H 	0.8412	0.0621	0.794	0.04
Mof_H 	H 	0.972	0.2334	0.7397	0.066
Mof_H 	H 	0.7242	0.9505	0.6454	0.043
Mof_H 	H 	0.5945	0.7793	0.6995	0.058
Mof_H 	H 	0.052	0.275	0.6587	0.04
Mof_H 	H 	0.9402	0.1693	0.6226	0.011
Mof_H 	H 	0.6339	0.2366	0.6117	-0.013
Mof_H 	H 	0.6275	0.5745	0.3014	-0.009
Mof_H 	H 	0.715	0.34	0.146	-0.031
Mof_H 	H 	0.7528	0.2529	0.3706	-0.067
Mof_H 	H 	0.9923	0.2715	0.2748	0.076
Mof_H 	H 	0.9228	0.1483	0.312	0.033
Mof_H 	H 	0.6588	0.9379	0.294	0.034
Mof_H 	H 	0.528	0.7666	0.2397	0.07
Mof_H 	H 	0.7758	0.0495	0.1454	0.048
Mof_H 	H 	0.9055	0.2207	0.1995	0.052
Mof_H 	H 	0.448	0.725	0.1587	0.043
Mof_H 	H 	0.5598	0.8307	0.1226	0.015
Mof_H 	H 	0.8661	0.7634	0.1117	-0.012
Mof_H 	H 	0.1275	0.5745	0.1986	-0.008
Mof_H 	H 	0.215	0.34	0.354	-0.03
Mof_H 	H 	0.2528	0.2529	0.1294	-0.065
Mof_H 	H 	0.4923	0.2715	0.2252	0.08
Mof_H 	H 	0.4228	0.1483	0.188	0.037
Mof_H 	H 	0.1588	0.9379	0.206	0.04
Mof_H 	H 	0.028	0.7666	0.2603	0.066
Mof_H 	H 	0.2758	0.0495	0.3546	0.043
Mof_H 	H 	0.4055	0.2207	0.3005	0.058
Mof_H 	H 	0.948	0.725	0.3413	0.04
Mof_H 	H 	0.0598	0.8307	0.3774	0.011
Mof_H 	H 	0.3661	0.7634	0.3883	-0.013
Mof_H 	H 	0.3725	0.4255	0.6986	-0.009
Mof_H 	H 	0.285	0.66	0.854	-0.031
Mof_H 	H 	0.2472	0.7471	0.6294	-0.067
Mof_H 	H 	0.0077	0.7285	0.7252	0.076
Mof_H 	H 	0.0772	0.8517	0.688	0.033
Mof_H 	H 	0.3412	0.0621	0.706	0.034
Mof_H 	H 	0.472	0.2334	0.7603	0.07
Mof_H 	H 	0.2242	0.9505	0.8546	0.048
Mof_H 	H 	0.0945	0.7793	0.8005	0.052
Mof_H 	H 	0.552	0.275	0.8413	0.043
Mof_H 	H 	0.4402	0.1693	0.8774	0.015
Mof_H 	H 	0.1339	0.2366	0.8883	-0.012
Mof_C 	C 	0.8294	0.5096	0.8092	0.096
Mof_C 	C 	0.7781	0.5547	0.6424	0.086
Mof_C 	C 	0.7633	0.6828	0.8473	0.111
Mof_C 	C 	0.6097	0.7925	0.7878	-0.105
Mof_C 	C 	0.7025	0.9026	0.7528	0.046
Mof_C 	C 	0.8167	0.0391	0.7641	-0.049
Mof_C 	C 	0.8951	0.1424	0.7314	-0.076
Mof_C 	C 	0.8599	0.1112	0.6863	0.049
Mof_C 	C 	0.748	0.9743	0.6754	-0.074
Mof_C 	C 	0.6699	0.8711	0.7079	-0.066
Mof_C 	C 	0.937	0.2245	0.6505	-0.084
Mof_C 	C 	0.6959	0.3281	0.6245	0.075
Mof_C 	C 	0.6706	0.4904	0.3092	0.095
Mof_C 	C 	0.7219	0.4453	0.1424	0.086
Mof_C 	C 	0.7367	0.3172	0.3473	0.11
Mof_C 	C 	0.8903	0.2075	0.2878	-0.096
Mof_C 	C 	0.7975	0.0974	0.2528	0.03
Mof_C 	C 	0.6833	0.9609	0.2641	-0.032
Mof_C 	C 	0.6049	0.8576	0.2314	-0.09
Mof_C 	C 	0.6401	0.8888	0.1863	0.065
Mof_C 	C 	0.752	0.0257	0.1754	-0.094
Mof_C 	C 	0.8301	0.1289	0.2079	-0.052
Mof_C 	C 	0.563	0.7755	0.1505	-0.095
Mof_C 	C 	0.8041	0.6719	0.1245	0.074
Mof_C 	C 	0.1706	0.4904	0.1908	0.096
Mof_C 	C 	0.2219	0.4453	0.3576	0.086
Mof_C 	C 	0.2367	0.3172	0.1527	0.111
Mof_C 	C 	0.3903	0.2075	0.2122	-0.105
Mof_C 	C 	0.2975	0.0974	0.2472	0.046
Mof_C 	C 	0.1833	0.9609	0.2359	-0.049
Mof_C 	C 	0.1049	0.8576	0.2686	-0.076
Mof_C 	C 	0.1401	0.8888	0.3137	0.049
Mof_C 	C 	0.252	0.0257	0.3246	-0.074
Mof_C 	C 	0.3301	0.1289	0.2921	-0.066
Mof_C 	C 	0.063	0.7755	0.3495	-0.084
Mof_C 	C 	0.3041	0.6719	0.3755	0.075
Mof_C 	C 	0.3294	0.5096	0.6908	0.095
Mof_C 	C 	0.2781	0.5547	0.8576	0.086
Mof_C 	C 	0.2633	0.6828	0.6527	0.11
Mof_C 	C 	0.1097	0.7925	0.7122	-0.096
Mof_C 	C 	0.2025	0.9026	0.7472	0.03
Mof_C 	C 	0.3167	0.0391	0.7359	-0.032
Mof_C 	C 	0.3951	0.1424	0.7686	-0.09
Mof_C 	C 	0.3599	0.1112	0.8137	0.065
Mof_C 	C 	0.248	0.9743	0.8246	-0.094
Mof_C 	C 	0.1699	0.8711	0.7921	-0.052
Mof_C 	C 	0.437	0.2245	0.8495	-0.095
Mof_C 	C 	0.1959	0.3281	0.8755	0.074
Mof_N 	N 	0.8403	0.5689	0.85113	-0.28
Mof_N 	N 	0.7123	0.6924	0.80574	-0.093
Mof_N 	N 	0.648	0.4582	0.625	-0.284
Mof_N 	N 	0.8401	0.3422	0.64402	-0.099
Mof_N 	N 	0.7527	0.581	0.78041	-0.094
Mof_N 	N 	0.8994	0.4881	0.6544	-0.109
Mof_N 	N 	0.6597	0.4311	0.35113	-0.281
Mof_N 	N 	0.7877	0.3076	0.30574	-0.095
Mof_N 	N 	0.852	0.5418	0.125	-0.285
Mof_N 	N 	0.6599	0.6578	0.14402	-0.097
Mof_N 	N 	0.7473	0.419	0.28041	-0.095
Mof_N 	N 	0.6006	0.5119	0.1544	-0.11
Mof_N 	N 	0.1597	0.4311	0.14887	-0.28
Mof_N 	N 	0.2877	0.3076	0.19426	-0.093
Mof_N 	N 	0.352	0.5418	0.375	-0.284
Mof_N 	N 	0.1599	0.6578	0.35598	-0.099
Mof_N 	N 	0.2473	0.419	0.21959	-0.094
Mof_N 	N 	0.1006	0.5119	0.3456	-0.109
Mof_N 	N 	0.3403	0.5689	0.64887	-0.281
Mof_N 	N 	0.2123	0.6924	0.69426	-0.095
Mof_N 	N 	0.148	0.4582	0.875	-0.285
Mof_N 	N 	0.3401	0.3422	0.85598	-0.097
Mof_N 	N 	0.2527	0.581	0.71959	-0.095
Mof_N 	N 	0.3994	0.4881	0.8456	-0.11
Mof_O 	O 	0.966	0.1204	0.98269	-0.786
Mof_O 	O 	0.7463	0.9894	0.04971	-0.686
Mof_O 	O 	0.7464	0.8498	0.96144	-0.686
Mof_O 	O 	0.8104	0.2582	0.90887	-0.708
Mof_O 	O 	0.5957	0.0606	0.9699	-0.69
Mof_O 	O 	0.9655	0.2672	0.06686	-0.807
Mof_O 	O 	0.9526	0.0025	0.90465	-0.689
Mof_O 	O 	0.534	0.8796	0.48269	-0.792
Mof_O 	O 	0.7537	0.0106	0.54971	-0.694
Mof_O 	O 	0.7536	0.1502	0.46144	-0.689
Mof_O 	O 	0.6896	0.7418	0.40887	-0.709
Mof_O 	O 	0.9043	0.9394	0.4699	-0.69
Mof_O 	O 	0.5345	0.7328	0.56686	-0.809
Mof_O 	O 	0.5474	0.9975	0.40465	-0.692
Mof_O 	O 	0.034	0.8796	0.01731	-0.786
Mof_O 	O 	0.2537	0.0106	0.95029	-0.686
Mof_O 	O 	0.2536	0.1502	0.03856	-0.686
Mof_O 	O 	0.1896	0.7418	0.09113	-0.708
Mof_O 	O 	0.4043	0.9394	0.0301	-0.69
Mof_O 	O 	0.0345	0.7328	0.93314	-0.807
Mof_O 	O 	0.0474	0.9975	0.09535	-0.689
Mof_O 	O 	0.466	0.1204	0.51731	-0.792
Mof_O 	O 	0.2463	0.9894	0.45029	-0.694
Mof_O 	O 	0.2464	0.8498	0.53856	-0.689
Mof_O 	O 	0.3104	0.2582	0.59113	-0.709
Mof_O 	O 	0.0957	0.0606	0.5301	-0.69
Mof_O 	O 	0.4655	0.2672	0.43314	-0.809
Mof_O 	O 	0.4526	0.0025	0.59535	-0.692
_end
