data_functionalizedCrystal
_audit_creation_method	'EQeq! by Chris Wilmer'
_symmetry_space_group_name_H-M	'P1'
_symmetry_Int_Tables_number	1
_symmetry_cell_setting	triclinic
loop_
_symmetry_equiv_pos_as_xyz
  x,y,z
_cell_length_a	16.178
_cell_length_b	16.178
_cell_length_c	6.8377
_cell_angle_alpha	90
_cell_angle_beta	90
_cell_angle_gamma	90
loop_
_atom_site_label
_atom_site_type_symbol
_atom_site_fract_x
_atom_site_fract_y
_atom_site_fract_z
_atom_site_charge
Mof_N 	N 	0.3187	0.5277	0.2164	-0.14
Mof_O 	O 	0.3294	0.4197	0.7553	-0.185
Mof_O 	O 	0.4269	0.4814	0.9312	-0.272
Mof_C 	C 	0.3534	0.4615	0.9037	0.286
Mof_C 	C 	0.293	0.4893	0.0488	0.006
Mof_C 	C 	0.1791	0.6191	0.6	0.016
Mof_N 	N 	0.1813	0.9723	0.2164	-0.141
Mof_O 	O 	0.1706	0.0803	0.7553	-0.183
Mof_O 	O 	0.0731	0.0186	0.9312	-0.269
Mof_C 	C 	0.1466	0.0385	0.9037	0.285
Mof_C 	C 	0.207	0.0107	0.0488	0.009
Mof_C 	C 	0.3209	0.8809	0.6	0.016
Mof_N 	N 	0.9723	0.3187	0.7164	-0.14
Mof_O 	O 	0.0803	0.3294	0.2553	-0.184
Mof_O 	O 	0.0186	0.4269	0.4312	-0.271
Mof_C 	C 	0.0385	0.3534	0.4037	0.286
Mof_C 	C 	0.0107	0.293	0.5488	0.007
Mof_C 	C 	0.8809	0.1791	0.1	0.015
Mof_N 	N 	0.5277	0.1813	0.7164	-0.139
Mof_O 	O 	0.4197	0.1706	0.2553	-0.184
Mof_O 	O 	0.4814	0.0731	0.4312	-0.271
Mof_C 	C 	0.4615	0.1466	0.4037	0.286
Mof_C 	C 	0.4893	0.207	0.5488	0.006
Mof_C 	C 	0.6191	0.3209	0.1	0.016
Mof_N 	N 	0.6813	0.0277	0.7836	-0.14
Mof_O 	O 	0.6706	0.9197	0.2447	-0.184
Mof_O 	O 	0.5731	0.9814	0.0688	-0.271
Mof_C 	C 	0.6466	0.9615	0.0963	0.285
Mof_C 	C 	0.707	0.9893	0.9512	0.008
Mof_C 	C 	0.8209	0.1191	0.4	0.015
Mof_N 	N 	0.8187	0.4723	0.7836	-0.139
Mof_O 	O 	0.8294	0.5803	0.2447	-0.184
Mof_O 	O 	0.9269	0.5186	0.0688	-0.271
Mof_C 	C 	0.8534	0.5385	0.0963	0.286
Mof_C 	C 	0.793	0.5107	0.9512	0.006
Mof_C 	C 	0.6791	0.3809	0.4	0.016
Mof_N 	N 	0.0277	0.8187	0.2836	-0.14
Mof_O 	O 	0.9197	0.8294	0.7447	-0.183
Mof_O 	O 	0.9814	0.9269	0.5688	-0.269
Mof_C 	C 	0.9615	0.8534	0.5963	0.285
Mof_C 	C 	0.9893	0.793	0.4512	0.009
Mof_C 	C 	0.1191	0.6791	0.9	0.016
Mof_N 	N 	0.4723	0.6813	0.2836	-0.139
Mof_O 	O 	0.5803	0.6706	0.7447	-0.184
Mof_O 	O 	0.5186	0.5731	0.5688	-0.272
Mof_C 	C 	0.5385	0.6466	0.5963	0.286
Mof_C 	C 	0.5107	0.707	0.4512	0.006
Mof_C 	C 	0.3809	0.8209	0.9	0.016
Mof_N 	N 	0.6813	0.4723	0.7836	-0.139
Mof_O 	O 	0.6706	0.5803	0.2447	-0.184
Mof_O 	O 	0.5731	0.5186	0.0688	-0.272
Mof_C 	C 	0.6466	0.5385	0.0963	0.286
Mof_C 	C 	0.707	0.5107	0.9512	0.006
Mof_C 	C 	0.8209	0.3809	0.4	0.016
Mof_N 	N 	0.8187	0.0277	0.7836	-0.141
Mof_O 	O 	0.8294	0.9197	0.2447	-0.183
Mof_O 	O 	0.9269	0.9814	0.0688	-0.269
Mof_C 	C 	0.8534	0.9615	0.0963	0.285
Mof_C 	C 	0.793	0.9893	0.9512	0.009
Mof_C 	C 	0.6791	0.1191	0.4	0.016
Mof_N 	N 	0.0277	0.6813	0.2836	-0.14
Mof_O 	O 	0.9197	0.6706	0.7447	-0.184
Mof_O 	O 	0.9814	0.5731	0.5688	-0.271
Mof_C 	C 	0.9615	0.6466	0.5963	0.286
Mof_C 	C 	0.9893	0.707	0.4512	0.007
Mof_C 	C 	0.1191	0.8209	0.9	0.015
Mof_N 	N 	0.4723	0.8187	0.2836	-0.139
Mof_O 	O 	0.5803	0.8294	0.7447	-0.184
Mof_O 	O 	0.5186	0.9269	0.5688	-0.271
Mof_C 	C 	0.5385	0.8534	0.5963	0.286
Mof_C 	C 	0.5107	0.793	0.4512	0.006
Mof_C 	C 	0.3809	0.6791	0.9	0.016
Mof_N 	N 	0.3187	0.9723	0.2164	-0.14
Mof_O 	O 	0.3294	0.0803	0.7553	-0.184
Mof_O 	O 	0.4269	0.0186	0.9312	-0.271
Mof_C 	C 	0.3534	0.0385	0.9037	0.285
Mof_C 	C 	0.293	0.0107	0.0488	0.008
Mof_C 	C 	0.1791	0.8809	0.6	0.015
Mof_N 	N 	0.1813	0.5277	0.2164	-0.139
Mof_O 	O 	0.1706	0.4197	0.7553	-0.184
Mof_O 	O 	0.0731	0.4814	0.9312	-0.271
Mof_C 	C 	0.1466	0.4615	0.9037	0.286
Mof_C 	C 	0.207	0.4893	0.0488	0.006
Mof_C 	C 	0.3209	0.6191	0.6	0.016
Mof_N 	N 	0.9723	0.1813	0.7164	-0.14
Mof_O 	O 	0.0803	0.1706	0.2553	-0.183
Mof_O 	O 	0.0186	0.0731	0.4312	-0.269
Mof_C 	C 	0.0385	0.1466	0.4037	0.285
Mof_C 	C 	0.0107	0.207	0.5488	0.009
Mof_C 	C 	0.8809	0.3209	0.1	0.016
Mof_N 	N 	0.5277	0.3187	0.7164	-0.139
Mof_O 	O 	0.4197	0.3294	0.2553	-0.184
Mof_O 	O 	0.4814	0.4269	0.4312	-0.272
Mof_C 	C 	0.4615	0.3534	0.4037	0.286
Mof_C 	C 	0.4893	0.293	0.5488	0.006
Mof_C 	C 	0.6191	0.1791	0.1	0.016
Mof_Cd	Cd	0.45721	0.54279	0.25	0.472
Mof_Cd	Cd	0.04279	0.95721	0.25	0.468
Mof_Cd	Cd	0.95721	0.45721	0.75	0.471
Mof_Cd	Cd	0.54279	0.04279	0.75	0.472
Mof_Cd	Cd	0.54279	0.45721	0.75	0.472
Mof_Cd	Cd	0.95721	0.04279	0.75	0.468
Mof_Cd	Cd	0.04279	0.54279	0.25	0.471
Mof_Cd	Cd	0.45721	0.95721	0.25	0.472
Mof_C 	C 	0.25	0.5908	0.504	-0.042
Mof_C 	C 	0.25	0.5492	0.3127	0.143
Mof_C 	C 	0.25	0.9092	0.504	-0.042
Mof_C 	C 	0.25	0.9508	0.3127	0.142
Mof_C 	C 	0.9092	0.25	0.004	-0.04
Mof_C 	C 	0.9508	0.25	0.8127	0.141
Mof_C 	C 	0.5908	0.25	0.004	-0.041
Mof_C 	C 	0.5492	0.25	0.8127	0.142
Mof_C 	C 	0.75	0.0908	0.496	-0.042
Mof_C 	C 	0.75	0.0492	0.6873	0.142
Mof_C 	C 	0.75	0.4092	0.496	-0.042
Mof_C 	C 	0.75	0.4508	0.6873	0.143
Mof_C 	C 	0.0908	0.75	0.996	-0.04
Mof_C 	C 	0.0492	0.75	0.1873	0.141
Mof_C 	C 	0.4092	0.75	0.996	-0.041
Mof_C 	C 	0.4508	0.75	0.1873	0.142
_end
