data_functionalizedCrystal
_audit_creation_method	'EQeq! by Chris Wilmer'
_symmetry_space_group_name_H-M	'P1'
_symmetry_Int_Tables_number	1
_symmetry_cell_setting	triclinic
loop_
_symmetry_equiv_pos_as_xyz
  x,y,z
_cell_length_a	17.388
_cell_length_b	12.418
_cell_length_c	19.7091
_cell_angle_alpha	90
_cell_angle_beta	90.854
_cell_angle_gamma	90
loop_
_atom_site_label
_atom_site_type_symbol
_atom_site_fract_x
_atom_site_fract_y
_atom_site_fract_z
_atom_site_charge
Mof_Mn	Mn	0.66884	0.0037	0.83619	0.755
Mof_Mn	Mn	0.6573	0.2664	0.74232	0.788
Mof_Mn	Mn	0.66135	0.0013	0.65645	0.746
Mof_O 	O 	0.6314	0.094	0.7471	-0.444
Mof_O 	O 	0.6986	0.1358	0.9024	-0.393
Mof_O 	O 	0.6702	0.2913	0.8506	-0.382
Mof_C 	C 	0.6981	0.2347	0.8986	0.349
Mof_C 	C 	0.7336	0.2966	0.9577	-0.055
Mof_C 	C 	0.7976	0.2607	0.9908	-0.062
Mof_H 	H 	0.8217	0.1957	0.9773	0.044
Mof_C 	C 	0.828	0.3209	0.0454	0.042
Mof_H 	H 	0.8743	0.2975	0.067	0.007
Mof_N 	N 	0.7937	0.4094	0.0677	-0.167
Mof_C 	C 	0.7295	0.4419	0.0358	0.048
Mof_H 	H 	0.7037	0.5034	0.0529	0.024
Mof_C 	C 	0.6989	0.3913	0.9798	-0.064
Mof_H 	H 	0.6552	0.42	0.9566	0.056
Mof_O 	O 	0.6498	0.8437	0.7984	-0.352
Mof_O 	O 	0.6125	0.8476	0.6898	-0.339
Mof_C 	C 	0.637	0.801	0.7424	0.348
Mof_C 	C 	0.6484	0.6807	0.7385	-0.046
Mof_C 	C 	0.6297	0.6211	0.6817	-0.058
Mof_H 	H 	0.6112	0.6556	0.6416	0.059
Mof_C 	C 	0.6383	0.5101	0.6838	0.043
Mof_H 	H 	0.6232	0.47	0.6448	0.022
Mof_N 	N 	0.6662	0.4566	0.737	-0.165
Mof_C 	C 	0.6867	0.5149	0.7921	0.034
Mof_H 	H 	0.7079	0.4785	0.8304	0.022
Mof_C 	C 	0.6778	0.628	0.7952	-0.056
Mof_H 	H 	0.6915	0.6668	0.8351	0.061
Mof_O 	O 	0.7871	0.9982	0.8073	-0.32
Mof_O 	O 	0.7697	0.9527	0.6979	-0.333
Mof_C 	C 	0.8076	0.9569	0.7527	0.336
Mof_C 	C 	0.8853	0.9045	0.752	-0.03
Mof_C 	C 	0.9318	0.8992	0.8105	-0.064
Mof_H 	H 	0.9145	0.9291	0.8519	0.074
Mof_C 	C 	0.0028	0.8503	0.8079	0.053
Mof_H 	H 	0.0332	0.846	0.8483	0.022
Mof_N 	N 	0.0309	0.8084	0.7504	-0.173
Mof_C 	C 	0.9859	0.8113	0.6952	0.053
Mof_H 	H 	0.0043	0.7801	0.6545	0.012
Mof_C 	C 	0.9139	0.8576	0.6942	-0.066
Mof_H 	H 	0.8838	0.8571	0.6536	0.067
Mof_O 	O 	0.6485	0.2769	0.6343	-0.389
Mof_O 	O 	0.7116	0.1303	0.603	-0.408
Mof_C 	C 	0.6935	0.2262	0.5966	0.348
Mof_C 	C 	0.7298	0.2883	0.5397	-0.064
Mof_C 	C 	0.8009	0.2612	0.5154	-0.057
Mof_H 	H 	0.8281	0.2011	0.5335	0.04
Mof_C 	C 	0.8324	0.323	0.4641	0.04
Mof_H 	H 	0.8819	0.3041	0.4481	0.008
Mof_N 	N 	0.7969	0.407	0.4364	-0.167
Mof_C 	C 	0.7268	0.4329	0.4589	0.04
Mof_H 	H 	0.7003	0.4915	0.4383	0.028
Mof_C 	C 	0.6913	0.3772	0.5114	-0.056
Mof_H 	H 	0.6424	0.3989	0.5275	0.053
Mof_Mn	Mn	0.16884	0.5037	0.83619	0.855
Mof_Mn	Mn	0.1573	0.7664	0.74232	0.801
Mof_Mn	Mn	0.16135	0.5013	0.65645	0.85
Mof_O 	O 	0.1314	0.594	0.7471	-0.443
Mof_O 	O 	0.1986	0.6358	0.9024	-0.381
Mof_O 	O 	0.1702	0.7913	0.8506	-0.375
Mof_C 	C 	0.1981	0.7347	0.8986	0.34
Mof_C 	C 	0.2336	0.7966	0.9577	-0.008
Mof_C 	C 	0.2976	0.7607	0.9908	-0.086
Mof_H 	H 	0.3217	0.6957	0.9773	0.065
Mof_C 	C 	0.328	0.8209	0.0454	0.064
Mof_H 	H 	0.3743	0.7975	0.067	0.014
Mof_N 	N 	0.2937	0.9094	0.0677	-0.175
Mof_C 	C 	0.2295	0.9419	0.0358	0.206
Mof_H 	H 	0.2037	0.0034	0.0529	-0.077
Mof_C 	C 	0.1989	0.8913	0.9798	-0.148
Mof_H 	H 	0.1552	0.92	0.9566	0.098
Mof_O 	O 	0.1498	0.3437	0.7984	-0.402
Mof_O 	O 	0.1125	0.3476	0.6898	-0.391
Mof_C 	C 	0.137	0.301	0.7424	0.402
Mof_C 	C 	0.1484	0.1807	0.7385	-0.174
Mof_C 	C 	0.1297	0.1211	0.6817	0.11
Mof_H 	H 	0.1112	0.1556	0.6416	-0.012
Mof_C 	C 	0.1383	0.0101	0.6838	-0.226
Mof_H 	H 	0.1232	0.97	0.6448	0.151
Mof_N 	N 	0.1662	0.9566	0.737	-0.028
Mof_C 	C 	0.1867	0.0149	0.7921	-0.221
Mof_H 	H 	0.2079	0.9785	0.8304	0.149
Mof_C 	C 	0.1778	0.128	0.7952	0.099
Mof_H 	H 	0.1915	0.1668	0.8351	-0.001
Mof_O 	O 	0.2871	0.4982	0.8073	-0.372
Mof_O 	O 	0.2697	0.4527	0.6979	-0.375
Mof_C 	C 	0.3076	0.4569	0.7527	0.351
Mof_C 	C 	0.3853	0.4045	0.752	-0.05
Mof_C 	C 	0.4318	0.3992	0.8105	-0.059
Mof_H 	H 	0.4145	0.4291	0.8519	0.059
Mof_C 	C 	0.5028	0.3503	0.8079	0.038
Mof_H 	H 	0.5332	0.346	0.8483	0.019
Mof_N 	N 	0.5309	0.3084	0.7504	-0.173
Mof_C 	C 	0.4859	0.3113	0.6952	0.043
Mof_H 	H 	0.5043	0.2801	0.6545	0.011
Mof_C 	C 	0.4139	0.3576	0.6942	-0.063
Mof_H 	H 	0.3838	0.3571	0.6536	0.06
Mof_O 	O 	0.1485	0.7769	0.6343	-0.388
Mof_O 	O 	0.2116	0.6303	0.603	-0.396
Mof_C 	C 	0.1935	0.7262	0.5966	0.351
Mof_C 	C 	0.2298	0.7883	0.5397	-0.055
Mof_C 	C 	0.3009	0.7612	0.5154	-0.054
Mof_H 	H 	0.3281	0.7011	0.5335	0.056
Mof_C 	C 	0.3324	0.823	0.4641	0.047
Mof_H 	H 	0.3819	0.8041	0.4481	0.019
Mof_N 	N 	0.2969	0.907	0.4364	-0.146
Mof_C 	C 	0.2268	0.9329	0.4589	0.046
Mof_H 	H 	0.2003	0.9915	0.4383	0.049
Mof_C 	C 	0.1913	0.8772	0.5114	-0.05
Mof_H 	H 	0.1424	0.8989	0.5275	0.059
Mof_Mn	Mn	0.33116	0.0037	0.16381	0.756
Mof_Mn	Mn	0.3427	0.2664	0.25768	0.789
Mof_Mn	Mn	0.33865	0.0013	0.34355	0.747
Mof_O 	O 	0.3686	0.094	0.2529	-0.443
Mof_O 	O 	0.3014	0.1358	0.0976	-0.392
Mof_O 	O 	0.3298	0.2913	0.1494	-0.381
Mof_C 	C 	0.3019	0.2347	0.1014	0.35
Mof_C 	C 	0.2664	0.2966	0.0423	-0.054
Mof_C 	C 	0.2024	0.2607	0.0092	-0.061
Mof_H 	H 	0.1783	0.1957	0.0227	0.045
Mof_C 	C 	0.172	0.3209	0.9546	0.042
Mof_H 	H 	0.1257	0.2975	0.933	0.007
Mof_N 	N 	0.2063	0.4094	0.9323	-0.167
Mof_C 	C 	0.2705	0.4419	0.9642	0.048
Mof_H 	H 	0.2963	0.5034	0.9471	0.024
Mof_C 	C 	0.3011	0.3913	0.0202	-0.064
Mof_H 	H 	0.3448	0.42	0.0434	0.056
Mof_O 	O 	0.3502	0.8437	0.2016	-0.352
Mof_O 	O 	0.3875	0.8476	0.3102	-0.339
Mof_C 	C 	0.363	0.801	0.2576	0.348
Mof_C 	C 	0.3516	0.6807	0.2615	-0.046
Mof_C 	C 	0.3703	0.6211	0.3183	-0.058
Mof_H 	H 	0.3888	0.6556	0.3584	0.059
Mof_C 	C 	0.3617	0.5101	0.3162	0.043
Mof_H 	H 	0.3768	0.47	0.3552	0.022
Mof_N 	N 	0.3338	0.4566	0.263	-0.165
Mof_C 	C 	0.3133	0.5149	0.2079	0.034
Mof_H 	H 	0.2921	0.4785	0.1696	0.022
Mof_C 	C 	0.3222	0.628	0.2048	-0.056
Mof_H 	H 	0.3085	0.6668	0.1649	0.061
Mof_O 	O 	0.2129	0.9982	0.1927	-0.32
Mof_O 	O 	0.2303	0.9527	0.3021	-0.333
Mof_C 	C 	0.1924	0.9569	0.2473	0.336
Mof_C 	C 	0.1147	0.9045	0.248	-0.03
Mof_C 	C 	0.0682	0.8992	0.1895	-0.064
Mof_H 	H 	0.0855	0.9291	0.1481	0.074
Mof_C 	C 	0.9972	0.8503	0.1921	0.053
Mof_H 	H 	0.9668	0.846	0.1517	0.022
Mof_N 	N 	0.9691	0.8084	0.2496	-0.173
Mof_C 	C 	0.0141	0.8113	0.3048	0.053
Mof_H 	H 	0.9957	0.7801	0.3455	0.012
Mof_C 	C 	0.0861	0.8576	0.3058	-0.066
Mof_H 	H 	0.1162	0.8571	0.3464	0.067
Mof_O 	O 	0.3515	0.2769	0.3657	-0.389
Mof_O 	O 	0.2884	0.1303	0.397	-0.408
Mof_C 	C 	0.3065	0.2262	0.4034	0.348
Mof_C 	C 	0.2702	0.2883	0.4603	-0.064
Mof_C 	C 	0.1991	0.2612	0.4846	-0.057
Mof_H 	H 	0.1719	0.2011	0.4665	0.04
Mof_C 	C 	0.1676	0.323	0.5359	0.04
Mof_H 	H 	0.1181	0.3041	0.5519	0.008
Mof_N 	N 	0.2031	0.407	0.5636	-0.167
Mof_C 	C 	0.2732	0.4329	0.5411	0.04
Mof_H 	H 	0.2997	0.4915	0.5617	0.028
Mof_C 	C 	0.3087	0.3772	0.4886	-0.056
Mof_H 	H 	0.3576	0.3989	0.4725	0.053
Mof_Mn	Mn	0.83116	0.5037	0.16381	0.855
Mof_Mn	Mn	0.8427	0.7664	0.25768	0.801
Mof_Mn	Mn	0.83865	0.5013	0.34355	0.85
Mof_O 	O 	0.8686	0.594	0.2529	-0.443
Mof_O 	O 	0.8014	0.6358	0.0976	-0.381
Mof_O 	O 	0.8298	0.7913	0.1494	-0.375
Mof_C 	C 	0.8019	0.7347	0.1014	0.34
Mof_C 	C 	0.7664	0.7966	0.0423	-0.008
Mof_C 	C 	0.7024	0.7607	0.0092	-0.086
Mof_H 	H 	0.6783	0.6957	0.0227	0.065
Mof_C 	C 	0.672	0.8209	0.9546	0.064
Mof_H 	H 	0.6257	0.7975	0.933	0.014
Mof_N 	N 	0.7063	0.9094	0.9323	-0.175
Mof_C 	C 	0.7705	0.9419	0.9642	0.206
Mof_H 	H 	0.7963	0.0034	0.9471	-0.077
Mof_C 	C 	0.8011	0.8913	0.0202	-0.148
Mof_H 	H 	0.8448	0.92	0.0434	0.098
Mof_O 	O 	0.8502	0.3437	0.2016	-0.402
Mof_O 	O 	0.8875	0.3476	0.3102	-0.391
Mof_C 	C 	0.863	0.301	0.2576	0.402
Mof_C 	C 	0.8516	0.1807	0.2615	-0.174
Mof_C 	C 	0.8703	0.1211	0.3183	0.11
Mof_H 	H 	0.8888	0.1556	0.3584	-0.012
Mof_C 	C 	0.8617	0.0101	0.3162	-0.226
Mof_H 	H 	0.8768	0.97	0.3552	0.151
Mof_N 	N 	0.8338	0.9566	0.263	-0.028
Mof_C 	C 	0.8133	0.0149	0.2079	-0.221
Mof_H 	H 	0.7921	0.9785	0.1696	0.149
Mof_C 	C 	0.8222	0.128	0.2048	0.099
Mof_H 	H 	0.8085	0.1668	0.1649	-0.001
Mof_O 	O 	0.7129	0.4982	0.1927	-0.372
Mof_O 	O 	0.7303	0.4527	0.3021	-0.375
Mof_C 	C 	0.6924	0.4569	0.2473	0.351
Mof_C 	C 	0.6147	0.4045	0.248	-0.05
Mof_C 	C 	0.5682	0.3992	0.1895	-0.059
Mof_H 	H 	0.5855	0.4291	0.1481	0.059
Mof_C 	C 	0.4972	0.3503	0.1921	0.038
Mof_H 	H 	0.4668	0.346	0.1517	0.019
Mof_N 	N 	0.4691	0.3084	0.2496	-0.173
Mof_C 	C 	0.5141	0.3113	0.3048	0.043
Mof_H 	H 	0.4957	0.2801	0.3455	0.011
Mof_C 	C 	0.5861	0.3576	0.3058	-0.063
Mof_H 	H 	0.6162	0.3571	0.3464	0.06
Mof_O 	O 	0.8515	0.7769	0.3657	-0.388
Mof_O 	O 	0.7884	0.6303	0.397	-0.396
Mof_C 	C 	0.8065	0.7262	0.4034	0.351
Mof_C 	C 	0.7702	0.7883	0.4603	-0.055
Mof_C 	C 	0.6991	0.7612	0.4846	-0.054
Mof_H 	H 	0.6719	0.7011	0.4665	0.056
Mof_C 	C 	0.6676	0.823	0.5359	0.047
Mof_H 	H 	0.6181	0.8041	0.5519	0.019
Mof_N 	N 	0.7031	0.907	0.5636	-0.146
Mof_C 	C 	0.7732	0.9329	0.5411	0.046
Mof_H 	H 	0.7997	0.9915	0.5617	0.049
Mof_C 	C 	0.8087	0.8772	0.4886	-0.05
Mof_H 	H 	0.8576	0.8989	0.4725	0.059
_end
