data_functionalizedCrystal
_audit_creation_method	'EQeq! by Chris Wilmer'
_symmetry_space_group_name_H-M	'P1'
_symmetry_Int_Tables_number	1
_symmetry_cell_setting	triclinic
loop_
_symmetry_equiv_pos_as_xyz
  x,y,z
_cell_length_a	13.1698
_cell_length_b	19.6747
_cell_length_c	19.6747
_cell_angle_alpha	64.8289
_cell_angle_beta	77.1074
_cell_angle_gamma	102.893
loop_
_atom_site_label
_atom_site_type_symbol
_atom_site_fract_x
_atom_site_fract_y
_atom_site_fract_z
_atom_site_charge
Mof_Zn	Zn	0.66214	0.49392	0.50503	1.235
Mof_Zn	Zn	0.38361	0.27969	0.41189	1.234
Mof_Zn	Zn	0.0168	0.55378	0.56471	1.23
Mof_Zn	Zn	0.16717	0.50503	0.00105	1.235
Mof_Zn	Zn	0.7955	0.41189	0.30842	1.234
Mof_Zn	Zn	0.58151	0.56471	0.88151	1.23
Mof_Zn	Zn	0.16822	0.00105	0.49392	1.235
Mof_Zn	Zn	0.10392	0.30842	0.27969	1.235
Mof_Zn	Zn	0.46302	0.88151	0.55378	1.231
Mof_Zn	Zn	0.33786	0.50608	0.49497	1.236
Mof_Zn	Zn	0.61639	0.72031	0.58811	1.235
Mof_Zn	Zn	0.9832	0.44622	0.43529	1.231
Mof_Zn	Zn	0.83283	0.49497	0.99895	1.236
Mof_Zn	Zn	0.2045	0.58811	0.69158	1.235
Mof_Zn	Zn	0.41849	0.43529	0.11849	1.231
Mof_Zn	Zn	0.83178	0.99895	0.50608	1.235
Mof_Zn	Zn	0.89608	0.69158	0.72031	1.235
Mof_Zn	Zn	0.53698	0.11849	0.44622	1.231
Mof_P 	P 	0.81104	0.4222	0.59021	0.481
Mof_P 	P 	0.854	0.54862	0.34493	0.475
Mof_P 	P 	0.4778	0.41691	0.44701	0.461
Mof_P 	P 	0.31542	0.40706	0.28851	0.44
Mof_P 	P 	0.40125	0.59021	0.98759	0.482
Mof_P 	P 	0.19893	0.34493	0.10645	0.475
Mof_P 	P 	0.92481	0.44701	0.13608	0.462
Mof_P 	P 	0.60393	0.28851	0.30443	0.44
Mof_P 	P 	0.38884	0.98759	0.4222	0.483
Mof_P 	P 	0.30538	0.10645	0.54862	0.475
Mof_P 	P 	0.06089	0.13608	0.41691	0.459
Mof_P 	P 	0.90836	0.30443	0.40706	0.44
Mof_P 	P 	0.18896	0.5778	0.40979	0.481
Mof_P 	P 	0.146	0.45138	0.65507	0.475
Mof_P 	P 	0.5222	0.58309	0.55299	0.461
Mof_P 	P 	0.68458	0.59294	0.71149	0.44
Mof_P 	P 	0.59875	0.40979	0.01241	0.482
Mof_P 	P 	0.80107	0.65507	0.89355	0.475
Mof_P 	P 	0.07519	0.55299	0.86392	0.462
Mof_P 	P 	0.39607	0.71149	0.69557	0.44
Mof_P 	P 	0.61116	0.01241	0.5778	0.483
Mof_P 	P 	0.69462	0.89355	0.45138	0.475
Mof_P 	P 	0.93911	0.86392	0.58309	0.459
Mof_P 	P 	0.09164	0.69557	0.59294	0.44
Mof_H 	H 	0.7882	0.3722	0.6597	-0.053
Mof_H 	H 	0.9	0.6176	0.285	-0.046
Mof_H 	H 	0.5501	0.4754	0.3654	-0.046
Mof_H 	H 	0.3384	0.4785	0.2989	-0.02
Mof_H 	H 	0.4479	0.6597	0.9681	-0.053
Mof_H 	H 	0.185	0.285	0.0974	-0.046
Mof_H 	H 	0.9155	0.3654	0.1592	-0.046
Mof_H 	H 	0.6373	0.2989	0.2226	-0.02
Mof_H 	H 	0.416	0.9681	0.3722	-0.053
Mof_H 	H 	0.2824	0.0974	0.6176	-0.046
Mof_H 	H 	0.0747	0.1592	0.4754	-0.047
Mof_H 	H 	0.8599	0.2226	0.4785	-0.02
Mof_H 	H 	0.2118	0.6278	0.3403	-0.053
Mof_H 	H 	0.1	0.3824	0.715	-0.046
Mof_H 	H 	0.4499	0.5246	0.6346	-0.046
Mof_H 	H 	0.6616	0.5215	0.7011	-0.02
Mof_H 	H 	0.5521	0.3403	0.0319	-0.053
Mof_H 	H 	0.815	0.715	0.9026	-0.046
Mof_H 	H 	0.0845	0.6346	0.8408	-0.046
Mof_H 	H 	0.3627	0.7011	0.7774	-0.02
Mof_H 	H 	0.584	0.0319	0.6278	-0.053
Mof_H 	H 	0.7176	0.9026	0.3824	-0.046
Mof_H 	H 	0.9253	0.8408	0.5246	-0.047
Mof_H 	H 	0.1401	0.7774	0.5215	-0.02
Mof_O 	O 	0.37043	0.43231	0.46148	-0.471
Mof_O 	O 	0.69908	0.41076	0.58132	-0.459
Mof_O 	O 	0.7982	0.56078	0.41208	-0.47
Mof_O 	O 	0.53924	0.42865	0.49853	-0.49
Mof_O 	O 	0.45869	0.33343	0.45866	-0.465
Mof_O 	O 	0.77256	0.49501	0.33023	-0.48
Mof_O 	O 	0.29188	0.33623	0.36858	-0.47
Mof_O 	O 	0.21453	0.40235	0.26376	-0.491
Mof_O 	O 	0.41683	0.42168	0.22339	-0.471
Mof_O 	O 	0.86561	0.50542	0.57539	-0.489
Mof_O 	O 	0.88389	0.39695	0.54348	-0.492
Mof_O 	O 	0.95305	0.52452	0.35227	-0.499
Mof_O 	O 	0.83191	0.46148	0.10621	-0.471
Mof_O 	O 	0.2804	0.58132	0.00792	-0.459
Mof_O 	O 	0.21028	0.41208	0.02714	-0.47
Mof_O 	O 	0.03777	0.49853	0.07282	-0.491
Mof_O 	O 	0.91735	0.45866	0.20791	-0.464
Mof_O 	O 	0.10279	0.33023	0.17476	-0.481
Mof_O 	O 	0.66046	0.36858	0.29519	-0.47
Mof_O 	O 	0.47829	0.26376	0.33389	-0.491
Mof_O 	O 	0.64022	0.22339	0.35493	-0.471
Mof_O 	O 	0.441	0.57539	0.91919	-0.489
Mof_O 	O 	0.42737	0.54348	0.05957	-0.492
Mof_O 	O 	0.30532	0.35227	0.12321	-0.499
Mof_O 	O 	0.93812	0.10621	0.43231	-0.469
Mof_O 	O 	0.28832	0.00792	0.41076	-0.46
Mof_O 	O 	0.23742	0.02714	0.56078	-0.471
Mof_O 	O 	0.11059	0.07282	0.42865	-0.49
Mof_O 	O 	0.12526	0.20791	0.33343	-0.465
Mof_O 	O 	0.27755	0.17476	0.49501	-0.48
Mof_O 	O 	0.95565	0.29519	0.33623	-0.469
Mof_O 	O 	0.81218	0.33389	0.40235	-0.491
Mof_O 	O 	0.99515	0.35493	0.42168	-0.471
Mof_O 	O 	0.36019	0.91919	0.50542	-0.489
Mof_O 	O 	0.48694	0.05957	0.39695	-0.492
Mof_O 	O 	0.42853	0.12321	0.52452	-0.499
Mof_O 	O 	0.62957	0.56769	0.53852	-0.471
Mof_O 	O 	0.30092	0.58924	0.41868	-0.459
Mof_O 	O 	0.2018	0.43922	0.58792	-0.47
Mof_O 	O 	0.46076	0.57135	0.50147	-0.49
Mof_O 	O 	0.54131	0.66657	0.54134	-0.465
Mof_O 	O 	0.22744	0.50499	0.66977	-0.48
Mof_O 	O 	0.70812	0.66377	0.63142	-0.47
Mof_O 	O 	0.78547	0.59765	0.73624	-0.491
Mof_O 	O 	0.58317	0.57832	0.77661	-0.471
Mof_O 	O 	0.13439	0.49458	0.42461	-0.489
Mof_O 	O 	0.11611	0.60305	0.45652	-0.492
Mof_O 	O 	0.04695	0.47548	0.64773	-0.499
Mof_O 	O 	0.16809	0.53852	0.89379	-0.471
Mof_O 	O 	0.7196	0.41868	0.99208	-0.459
Mof_O 	O 	0.78972	0.58792	0.97286	-0.47
Mof_O 	O 	0.96223	0.50147	0.92718	-0.491
Mof_O 	O 	0.08265	0.54134	0.79209	-0.464
Mof_O 	O 	0.89721	0.66977	0.82524	-0.481
Mof_O 	O 	0.33954	0.63142	0.70481	-0.47
Mof_O 	O 	0.52171	0.73624	0.66611	-0.491
Mof_O 	O 	0.35978	0.77661	0.64507	-0.471
Mof_O 	O 	0.559	0.42461	0.08081	-0.489
Mof_O 	O 	0.57263	0.45652	0.94043	-0.492
Mof_O 	O 	0.69468	0.64773	0.87679	-0.499
Mof_O 	O 	0.06188	0.89379	0.56769	-0.469
Mof_O 	O 	0.71168	0.99208	0.58924	-0.46
Mof_O 	O 	0.76258	0.97286	0.43922	-0.471
Mof_O 	O 	0.88941	0.92718	0.57135	-0.49
Mof_O 	O 	0.87474	0.79209	0.66657	-0.465
Mof_O 	O 	0.72245	0.82524	0.50499	-0.48
Mof_O 	O 	0.04435	0.70481	0.66377	-0.469
Mof_O 	O 	0.18782	0.66611	0.59765	-0.491
Mof_O 	O 	0.00485	0.64507	0.57832	-0.471
Mof_O 	O 	0.63981	0.08081	0.49458	-0.489
Mof_O 	O 	0.51306	0.94043	0.60305	-0.492
Mof_O 	O 	0.57147	0.87679	0.47548	-0.499
Mof_H 	H 	0.3843	0.243	0.1747	-0.003
Mof_H 	H 	0.3189	0.0609	0.0907	0.052
Mof_H 	H 	0.3424	0.2091	0.0796	0.05
Mof_H 	H 	0.2252	0.1445	0.1074	0.041
Mof_H 	H 	0.2061	0.1587	0.2146	0.1
Mof_H 	H 	0.244	0.0843	0.2404	0.101
Mof_H 	H 	0.2664	0.1876	0.3014	0.165
Mof_H 	H 	0.3818	0.2103	0.2962	0.156
Mof_H 	H 	0.3153	0.1262	0.3294	0.157
Mof_C 	C 	0.36398	0.18588	0.21304	0.119
Mof_C 	C 	0.4708	0.1679	0.2001	-0.044
Mof_C 	C 	0.4686	0.0956	0.1935	0.002
Mof_C 	C 	0.4602	0.102	0.1171	-0
Mof_C 	C 	0.3515	0.0971	0.1053	-0.068
Mof_C 	C 	0.294	0.1538	0.1179	-0.039
Mof_C 	C 	0.26778	0.14148	0.20224	-0.215
Mof_N 	N 	0.32846	0.17663	0.29265	-0.389
Mof_H 	H 	0.8751	0.7783	0.4481	0.002
Mof_H 	H 	0.139	0.9201	0.2035	0.054
Mof_H 	H 	0.1344	0.8974	0.3317	0.038
Mof_H 	H 	0.0109	0.8955	0.3511	0.042
Mof_H 	H 	0.0433	0.7581	0.3541	0.104
Mof_H 	H 	0.0495	0.7687	0.428	0.095
Mof_H 	H 	0.8956	0.6622	0.5195	0.158
Mof_H 	H 	0.8663	0.6336	0.4669	0.152
Mof_H 	H 	0.7847	0.6496	0.5153	0.167
Mof_C 	C 	0.8955	0.7478	0.4224	0.111
Mof_C 	C 	0.8284	0.7534	0.3683	-0.045
Mof_C 	C 	0.8649	0.8332	0.2942	-0.004
Mof_C 	C 	0.9667	0.8632	0.2294	-0.003
Mof_C 	C 	0.0701	0.8917	0.2453	-0.067
Mof_C 	C 	0.0617	0.8733	0.3316	-0.036
Mof_C 	C 	0.0185	0.7821	0.3856	-0.217
Mof_N 	N 	0.85677	0.66532	0.48731	-0.385
Mof_H 	H 	0.559	0.1747	0.5823	-0.003
Mof_H 	H 	0.4096	0.0907	0.8484	0.052
Mof_H 	H 	0.422	0.0796	0.7113	0.05
Mof_H 	H 	0.3326	0.1074	0.7481	0.041
Mof_H 	H 	0.4207	0.2146	0.6267	0.1
Mof_H 	H 	0.4844	0.2404	0.6753	0.102
Mof_H 	H 	0.5678	0.3014	0.511	0.166
Mof_H 	H 	0.678	0.2962	0.4935	0.156
Mof_H 	H 	0.6447	0.3294	0.5444	0.158
Mof_C 	C 	0.57702	0.21304	0.60108	0.12
Mof_C 	C 	0.6709	0.2001	0.632	-0.044
Mof_C 	C 	0.6621	0.1935	0.7109	0.002
Mof_C 	C 	0.5773	0.1171	0.7809	-0
Mof_C 	C 	0.4568	0.1053	0.7976	-0.068
Mof_C 	C 	0.4119	0.1179	0.7283	-0.038
Mof_C 	C 	0.47002	0.20224	0.65628	-0.216
Mof_N 	N 	0.62111	0.29265	0.53072	-0.389
Mof_H 	H 	0.3232	0.4481	0.7736	0.002
Mof_H 	H 	0.3425	0.2035	0.8764	0.055
Mof_H 	H 	0.4661	0.3317	0.7709	0.037
Mof_H 	H 	0.362	0.3511	0.7534	0.04
Mof_H 	H 	0.3974	0.3541	0.8878	0.105
Mof_H 	H 	0.4775	0.428	0.8033	0.096
Mof_H 	H 	0.4151	0.5195	0.8183	0.158
Mof_H 	H 	0.3332	0.4669	0.8995	0.153
Mof_H 	H 	0.3	0.5153	0.8351	0.167
Mof_C 	C 	0.3179	0.4224	0.8298	0.113
Mof_C 	C 	0.1967	0.3683	0.8783	-0.045
Mof_C 	C 	0.1591	0.2942	0.8726	-0.004
Mof_C 	C 	0.1961	0.2294	0.9074	-0.001
Mof_C 	C 	0.3154	0.2453	0.863	-0.07
Mof_C 	C 	0.3933	0.3316	0.7951	-0.033
Mof_C 	C 	0.4041	0.3856	0.8323	-0.221
Mof_N 	N 	0.34408	0.48731	0.84737	-0.386
Mof_H 	H 	0.1413	0.5823	0.243	-0.003
Mof_H 	H 	0.258	0.8484	0.0609	0.052
Mof_H 	H 	0.1333	0.7113	0.2091	0.05
Mof_H 	H 	0.0807	0.7481	0.1445	0.042
Mof_H 	H 	0.0474	0.6267	0.1587	0.1
Mof_H 	H 	0.1597	0.6753	0.0843	0.102
Mof_H 	H 	0.0788	0.511	0.1876	0.165
Mof_H 	H 	0.1715	0.4935	0.2103	0.156
Mof_H 	H 	0.1891	0.5444	0.1262	0.157
Mof_C 	C 	0.1781	0.60108	0.18588	0.119
Mof_C 	C 	0.3029	0.632	0.1679	-0.044
Mof_C 	C 	0.373	0.7109	0.0956	0.002
Mof_C 	C 	0.3582	0.7809	0.102	-0.001
Mof_C 	C 	0.2544	0.7976	0.0971	-0.068
Mof_C 	C 	0.1402	0.7283	0.1538	-0.039
Mof_C 	C 	0.1263	0.65628	0.14148	-0.215
Mof_N 	N 	0.15183	0.53072	0.17663	-0.389
Mof_H 	H 	0.0968	0.7736	0.7783	0.002
Mof_H 	H 	0.2189	0.8764	0.9201	0.055
Mof_H 	H 	0.237	0.7709	0.8974	0.038
Mof_H 	H 	0.1154	0.7534	0.8955	0.041
Mof_H 	H 	0.2852	0.8878	0.7581	0.105
Mof_H 	H 	0.2808	0.8033	0.7687	0.095
Mof_H 	H 	0.2334	0.8183	0.6622	0.158
Mof_H 	H 	0.2327	0.8995	0.6336	0.153
Mof_H 	H 	0.1351	0.8351	0.6496	0.167
Mof_C 	C 	0.1477	0.8298	0.7478	0.113
Mof_C 	C 	0.075	0.8783	0.7534	-0.044
Mof_C 	C 	0.0317	0.8726	0.8332	-0.003
Mof_C 	C 	0.1035	0.9074	0.8632	-0
Mof_C 	C 	0.1784	0.863	0.8917	-0.07
Mof_C 	C 	0.1884	0.7951	0.8733	-0.034
Mof_C 	C 	0.2364	0.8323	0.7821	-0.22
Mof_N 	N 	0.19145	0.84737	0.66532	-0.386
Mof_H 	H 	0.6157	0.757	0.8253	-0.003
Mof_H 	H 	0.6811	0.9391	0.9093	0.052
Mof_H 	H 	0.6576	0.7909	0.9204	0.05
Mof_H 	H 	0.7748	0.8555	0.8926	0.041
Mof_H 	H 	0.7939	0.8413	0.7854	0.1
Mof_H 	H 	0.756	0.9157	0.7596	0.101
Mof_H 	H 	0.7336	0.8124	0.6986	0.165
Mof_H 	H 	0.6182	0.7897	0.7038	0.156
Mof_H 	H 	0.6847	0.8738	0.6706	0.157
Mof_C 	C 	0.63602	0.81412	0.78696	0.119
Mof_C 	C 	0.5292	0.8321	0.7999	-0.044
Mof_C 	C 	0.5314	0.9044	0.8065	0.002
Mof_C 	C 	0.5398	0.898	0.8829	-0
Mof_C 	C 	0.6485	0.9029	0.8947	-0.068
Mof_C 	C 	0.706	0.8462	0.8821	-0.039
Mof_C 	C 	0.73222	0.85852	0.79776	-0.215
Mof_N 	N 	0.67154	0.82337	0.70735	-0.389
Mof_H 	H 	0.1249	0.2217	0.5519	0.002
Mof_H 	H 	0.861	0.0799	0.7965	0.054
Mof_H 	H 	0.8656	0.1026	0.6683	0.038
Mof_H 	H 	0.9891	0.1045	0.6489	0.042
Mof_H 	H 	0.9567	0.2419	0.6459	0.104
Mof_H 	H 	0.9505	0.2313	0.572	0.095
Mof_H 	H 	0.1044	0.3378	0.4805	0.158
Mof_H 	H 	0.1337	0.3664	0.5331	0.152
Mof_H 	H 	0.2153	0.3504	0.4847	0.167
Mof_C 	C 	0.1045	0.2522	0.5776	0.111
Mof_C 	C 	0.1716	0.2466	0.6317	-0.045
Mof_C 	C 	0.1351	0.1668	0.7058	-0.004
Mof_C 	C 	0.0333	0.1368	0.7706	-0.003
Mof_C 	C 	0.9299	0.1083	0.7547	-0.067
Mof_C 	C 	0.9383	0.1267	0.6684	-0.036
Mof_C 	C 	0.9815	0.2179	0.6144	-0.217
Mof_N 	N 	0.14323	0.33468	0.51269	-0.385
Mof_H 	H 	0.441	0.8253	0.4177	-0.003
Mof_H 	H 	0.5904	0.9093	0.1516	0.052
Mof_H 	H 	0.578	0.9204	0.2887	0.05
Mof_H 	H 	0.6674	0.8926	0.2519	0.041
Mof_H 	H 	0.5793	0.7854	0.3733	0.1
Mof_H 	H 	0.5156	0.7596	0.3247	0.102
Mof_H 	H 	0.4322	0.6986	0.489	0.166
Mof_H 	H 	0.322	0.7038	0.5065	0.156
Mof_H 	H 	0.3553	0.6706	0.4556	0.158
Mof_C 	C 	0.42298	0.78696	0.39892	0.12
Mof_C 	C 	0.3291	0.7999	0.368	-0.044
Mof_C 	C 	0.3379	0.8065	0.2891	0.002
Mof_C 	C 	0.4227	0.8829	0.2191	-0
Mof_C 	C 	0.5432	0.8947	0.2024	-0.068
Mof_C 	C 	0.5881	0.8821	0.2717	-0.038
Mof_C 	C 	0.52998	0.79776	0.34372	-0.216
Mof_N 	N 	0.37889	0.70735	0.46928	-0.389
Mof_H 	H 	0.6768	0.5519	0.2264	0.002
Mof_H 	H 	0.6575	0.7965	0.1236	0.055
Mof_H 	H 	0.5339	0.6683	0.2291	0.037
Mof_H 	H 	0.638	0.6489	0.2466	0.04
Mof_H 	H 	0.6026	0.6459	0.1122	0.105
Mof_H 	H 	0.5225	0.572	0.1967	0.096
Mof_H 	H 	0.5849	0.4805	0.1817	0.158
Mof_H 	H 	0.6668	0.5331	0.1005	0.153
Mof_H 	H 	0.7	0.4847	0.1649	0.167
Mof_C 	C 	0.6821	0.5776	0.1702	0.113
Mof_C 	C 	0.8033	0.6317	0.1217	-0.045
Mof_C 	C 	0.8409	0.7058	0.1274	-0.004
Mof_C 	C 	0.8039	0.7706	0.0926	-0.001
Mof_C 	C 	0.6846	0.7547	0.137	-0.07
Mof_C 	C 	0.6067	0.6684	0.2049	-0.033
Mof_C 	C 	0.5959	0.6144	0.1677	-0.221
Mof_N 	N 	0.65592	0.51269	0.15263	-0.386
Mof_H 	H 	0.8587	0.4177	0.757	-0.003
Mof_H 	H 	0.742	0.1516	0.9391	0.052
Mof_H 	H 	0.8667	0.2887	0.7909	0.05
Mof_H 	H 	0.9193	0.2519	0.8555	0.042
Mof_H 	H 	0.9526	0.3733	0.8413	0.1
Mof_H 	H 	0.8403	0.3247	0.9157	0.102
Mof_H 	H 	0.9212	0.489	0.8124	0.165
Mof_H 	H 	0.8285	0.5065	0.7897	0.156
Mof_H 	H 	0.8109	0.4556	0.8738	0.157
Mof_C 	C 	0.8219	0.39892	0.81412	0.119
Mof_C 	C 	0.6971	0.368	0.8321	-0.044
Mof_C 	C 	0.627	0.2891	0.9044	0.002
Mof_C 	C 	0.6418	0.2191	0.898	-0.001
Mof_C 	C 	0.7456	0.2024	0.9029	-0.068
Mof_C 	C 	0.8598	0.2717	0.8462	-0.039
Mof_C 	C 	0.8737	0.34372	0.85852	-0.215
Mof_N 	N 	0.84817	0.46928	0.82337	-0.389
Mof_H 	H 	0.9032	0.2264	0.2217	0.002
Mof_H 	H 	0.7811	0.1236	0.0799	0.055
Mof_H 	H 	0.763	0.2291	0.1026	0.038
Mof_H 	H 	0.8846	0.2466	0.1045	0.041
Mof_H 	H 	0.7148	0.1122	0.2419	0.105
Mof_H 	H 	0.7192	0.1967	0.2313	0.095
Mof_H 	H 	0.7666	0.1817	0.3378	0.158
Mof_H 	H 	0.7673	0.1005	0.3664	0.153
Mof_H 	H 	0.8649	0.1649	0.3504	0.167
Mof_C 	C 	0.8523	0.1702	0.2522	0.113
Mof_C 	C 	0.925	0.1217	0.2466	-0.044
Mof_C 	C 	0.9683	0.1274	0.1668	-0.003
Mof_C 	C 	0.8965	0.0926	0.1368	-0
Mof_C 	C 	0.8216	0.137	0.1083	-0.07
Mof_C 	C 	0.8116	0.2049	0.1267	-0.034
Mof_C 	C 	0.7636	0.1677	0.2179	-0.22
Mof_N 	N 	0.80855	0.15263	0.33468	-0.386
_end
