data_functionalizedCrystal
_audit_creation_method	'EQeq! by Chris Wilmer'
_symmetry_space_group_name_H-M	'P1'
_symmetry_Int_Tables_number	1
_symmetry_cell_setting	triclinic
loop_
_symmetry_equiv_pos_as_xyz
  x,y,z
_cell_length_a	15.744
_cell_length_b	18.343
_cell_length_c	28.121
_cell_angle_alpha	104.422
_cell_angle_beta	92.252
_cell_angle_gamma	108.122
loop_
_atom_site_label
_atom_site_type_symbol
_atom_site_fract_x
_atom_site_fract_y
_atom_site_fract_z
_atom_site_charge
Mof_Cd	Cd	0.52189	0.85982	0.27771	0.513
Mof_Cd	Cd	0.87049	0.64948	0.24077	0.516
Mof_O 	O 	0.6391	0.8578	0.22875	-0.221
Mof_O 	O 	0.6469	0.9757	0.2759	-0.251
Mof_O 	O 	0.974	0.1625	0.13604	-0.161
Mof_O 	O 	0.2707	0.1469	0.13545	-0.164
Mof_O 	O 	0.0945	0.1502	0.03119	-0.167
Mof_O 	O 	0.2021	0.3029	0.20142	-0.16
Mof_O 	O 	0.2176	0.2917	0.82576	-0.522
Mof_O 	O 	0.1348	0.3726	0.8412	-0.312
Mof_O 	O 	0.4077	0.7432	0.2485	-0.261
Mof_O 	O 	0.5211	0.6957	0.249	-0.205
Mof_O 	O 	0.461	0.8962	0.2113	-0.257
Mof_O 	O 	0.417	0.9254	0.28525	-0.261
Mof_O 	O 	0.8284	0.83	0.26512	-0.192
Mof_O 	O 	0.9409	0.7782	0.2655	-0.271
Mof_O 	O 	0.1537	0.2152	0.32126	-0.152
Mof_O 	O 	0.3347	0.3537	0.4764	-0.194
Mof_C 	C 	0.3085	0.3965	0.5148	-0.126
Mof_H 	H 	0.2809	0.4303	0.5037	0.07
Mof_H 	H 	0.3599	0.4289	0.5388	0.073
Mof_H 	H 	0.2659	0.3615	0.5295	0.073
Mof_O 	O 	0.3323	0.1958	0.68324	-0.485
Mof_O 	O 	0.4383	0.152	0.64876	-0.327
Mof_O 	O 	0.4154	0.3449	0.3761	-0.156
Mof_O 	O 	0.1237	0.3693	0.3856	-0.165
Mof_O 	O 	0.9386	0.6327	0.3161	-0.256
Mof_O 	O 	0.9866	0.6035	0.2437	-0.258
Mof_O 	O 	0.7544	0.5353	0.2478	-0.259
Mof_O 	O 	0.7357	0.6534	0.27392	-0.221
Mof_C 	C 	0.9108	0.8344	0.2739	0.309
Mof_C 	C 	0.9779	0.9161	0.2969	-0.099
Mof_C 	C 	0.9586	0.9844	0.2979	0.049
Mof_H 	H 	0.9038	0.9804	0.282	0.037
Mof_C 	C 	0.0199	0.0601	0.3224	-0.139
Mof_H 	H 	0.0073	0.106	0.3211	0.097
Mof_C 	C 	0.1004	0.066	0.3489	0.111
Mof_C 	C 	0.1193	0.9943	0.3457	-0.152
Mof_H 	H 	0.1737	0.997	0.3615	0.09
Mof_C 	C 	0.0614	0.9231	0.3209	0.056
Mof_H 	H 	0.0764	0.8775	0.3194	0.033
Mof_C 	C 	0.1611	0.142	0.3812	-0.088
Mof_C 	C 	0.1865	0.2157	0.3688	0.127
Mof_C 	C 	0.2425	0.2849	0.3995	-0.062
Mof_C 	C 	0.2786	0.2851	0.4462	0.158
Mof_C 	C 	0.2546	0.2146	0.4602	-0.134
Mof_C 	C 	0.1966	0.1451	0.4284	0.026
Mof_H 	H 	0.1805	0.0987	0.4386	0.028
Mof_C 	C 	0.2118	0.2029	0.2847	-0.261
Mof_H 	H 	0.1805	0.1928	0.2525	0.126
Mof_H 	H 	0.2296	0.1579	0.2862	0.117
Mof_H 	H 	0.2642	0.2496	0.2908	0.123
Mof_C 	C 	0.2889	0.2106	0.5107	0.23
Mof_C 	C 	0.24	0.2126	0.5477	-0.278
Mof_H 	H 	0.1844	0.2195	0.5433	0.131
Mof_C 	C 	0.2682	0.2048	0.593	0.191
Mof_H 	H 	0.2334	0.209	0.6189	-0.022
Mof_C 	C 	0.3455	0.1914	0.5991	-0.229
Mof_C 	C 	0.4026	0.1974	0.5648	0.163
Mof_H 	H 	0.4595	0.1931	0.5695	-0.009
Mof_C 	C 	0.3698	0.2106	0.5204	-0.26
Mof_H 	H 	0.4094	0.2198	0.4972	0.13
Mof_C 	C 	0.3744	0.1776	0.6482	0.455
Mof_C 	C 	0.2701	0.3584	0.3827	-0.04
Mof_C 	C 	0.3583	0.3867	0.3707	0.116
Mof_C 	C 	0.387	0.4538	0.3524	-0.078
Mof_C 	C 	0.3225	0.4895	0.3458	-0.009
Mof_H 	H 	0.3396	0.5335	0.3332	0.04
Mof_C 	C 	0.2341	0.4636	0.3567	-0.079
Mof_C 	C 	0.2093	0.3963	0.3746	0.123
Mof_C 	C 	0.1059	0.3781	0.4337	-0.184
Mof_H 	H 	0.131	0.3459	0.4482	0.094
Mof_H 	H 	0.042	0.3615	0.4344	0.095
Mof_H 	H 	0.1325	0.4331	0.4522	0.086
Mof_C 	C 	0.4963	0.3875	0.4093	-0.24
Mof_H 	H 	0.535	0.3555	0.4061	0.113
Mof_H 	H 	0.4821	0.3991	0.4426	0.12
Mof_H 	H 	0.5264	0.4364	0.4015	0.109
Mof_C 	C 	0.1712	0.5022	0.3423	0.109
Mof_C 	C 	0.1748	0.5182	0.2954	-0.147
Mof_H 	H 	0.2169	0.5058	0.2755	0.088
Mof_C 	C 	0.1166	0.5518	0.2793	0.058
Mof_H 	H 	0.1191	0.5613	0.2483	0.031
Mof_C 	C 	0.0541	0.5719	0.3089	-0.105
Mof_C 	C 	0.0509	0.5575	0.3551	0.055
Mof_H 	H 	0.0098	0.5712	0.3753	0.026
Mof_C 	C 	0.1089	0.5228	0.3711	-0.139
Mof_H 	H 	0.1058	0.5131	0.4021	0.086
Mof_C 	C 	0.9893	0.6056	0.2896	0.305
Mof_C 	C 	0.4733	0.4828	0.3344	0.1
Mof_C 	C 	0.5079	0.4329	0.3003	-0.142
Mof_H 	H 	0.4783	0.378	0.2914	0.087
Mof_C 	C 	0.5831	0.4623	0.2801	0.046
Mof_H 	H 	0.6042	0.4273	0.2578	0.03
Mof_C 	C 	0.6312	0.5465	0.2921	-0.095
Mof_C 	C 	0.5977	0.5951	0.3269	0.048
Mof_H 	H 	0.6279	0.6498	0.3365	0.045
Mof_C 	C 	0.5201	0.5644	0.348	-0.141
Mof_H 	H 	0.4996	0.5987	0.3712	0.086
Mof_C 	C 	0.7117	0.5771	0.2691	0.295
Mof_C 	C 	0.6765	0.9341	0.2426	0.297
Mof_C 	C 	0.7548	0.9682	0.218	-0.096
Mof_C 	C 	0.7859	0.9187	0.1831	0.055
Mof_H 	H 	0.7538	0.8644	0.172	0.047
Mof_C 	C 	0.8655	0.9504	0.1643	-0.148
Mof_H 	H 	0.8855	0.9172	0.1401	0.089
Mof_C 	C 	0.9149	0.0301	0.1812	0.112
Mof_C 	C 	0.881	0.0795	0.2145	-0.146
Mof_H 	H 	0.9117	0.1341	0.2238	0.093
Mof_C 	C 	0.8036	0.0506	0.2345	0.05
Mof_H 	H 	0.7838	0.0846	0.2584	0.031
Mof_C 	C 	0.0062	0.0604	0.166	-0.082
Mof_C 	C 	0.0687	0.0262	0.1758	-0.003
Mof_H 	H 	0.0511	0.9827	0.1888	0.038
Mof_C 	C 	0.1593	0.0551	0.1666	-0.083
Mof_C 	C 	0.1831	0.1178	0.1469	0.117
Mof_C 	C 	0.1219	0.1536	0.1361	-0.049
Mof_C 	C 	0.0334	0.1238	0.1446	0.119
Mof_C 	C 	0.9086	0.1198	0.095	-0.224
Mof_H 	H 	0.8682	0.1488	0.0922	0.11
Mof_H 	H 	0.8754	0.0686	0.0991	0.104
Mof_H 	H 	0.9375	0.1126	0.0655	0.113
Mof_C 	C 	0.336	0.1946	0.1761	-0.229
Mof_H 	H 	0.3948	0.2058	0.1654	0.109
Mof_H 	H 	0.3331	0.1667	0.201	0.106
Mof_H 	H 	0.3247	0.2437	0.1895	0.113
Mof_C 	C 	0.1504	0.2261	0.1171	-0.044
Mof_C 	C 	0.1883	0.2995	0.1507	0.116
Mof_C 	C 	0.2124	0.3709	0.1372	-0.077
Mof_C 	C 	0.1973	0.3651	0.0877	0
Mof_H 	H 	0.2119	0.4118	0.0779	0.036
Mof_C 	C 	0.1611	0.2922	0.0514	-0.083
Mof_C 	C 	0.1362	0.221	0.0668	0.125
Mof_C 	C 	0.1334	0.3203	0.2296	-0.269
Mof_H 	H 	0.1476	0.3218	0.2634	0.131
Mof_H 	H 	0.0764	0.2795	0.216	0.13
Mof_H 	H 	0.13	0.3711	0.2281	0.123
Mof_C 	C 	0.2631	0.4496	0.1704	0.106
Mof_C 	C 	0.3387	0.4618	0.2028	-0.136
Mof_H 	H 	0.3508	0.4181	0.2087	0.09
Mof_C 	C 	0.3978	0.5402	0.2269	0.045
Mof_H 	H 	0.4508	0.548	0.2463	0.037
Mof_C 	C 	0.3747	0.6051	0.2209	-0.106
Mof_C 	C 	0.2949	0.5917	0.1923	0.054
Mof_H 	H 	0.2777	0.635	0.1902	0.034
Mof_C 	C 	0.24	0.5156	0.1666	-0.147
Mof_H 	H 	0.1877	0.5084	0.1469	0.089
Mof_C 	C 	0.4361	0.6857	0.2405	0.3
Mof_C 	C 	0.154	0.2936	0.9987	0.141
Mof_C 	C 	0.114	0.3422	0.9839	-0.19
Mof_H 	H 	0.0835	0.3685	0.0059	0.103
Mof_C 	C 	0.1176	0.3534	0.9369	0.107
Mof_H 	H 	0.0884	0.3854	0.9274	0.01
Mof_C 	C 	0.1661	0.3157	0.9036	-0.192
Mof_C 	C 	0.206	0.2643	0.9188	0.116
Mof_H 	H 	0.2372	0.2382	0.8972	-0.028
Mof_C 	C 	0.1992	0.2527	0.9649	-0.191
Mof_H 	H 	0.2244	0.2177	0.9741	0.1
Mof_C 	C 	0.1717	0.3273	0.8544	0.408
Mof_C 	C 	0.224	0.0177	0.1838	0.105
Mof_C 	C 	0.2884	0.0005	0.1562	-0.139
Mof_H 	H 	0.2918	0.0099	0.1252	0.092
Mof_C 	C 	0.3496	0.9689	0.1742	0.046
Mof_H 	H 	0.3917	0.9559	0.1545	0.033
Mof_C 	C 	0.3479	0.9571	0.2203	-0.094
Mof_C 	C 	0.2808	0.9741	0.2491	0.047
Mof_H 	H 	0.2782	0.9662	0.2805	0.033
Mof_C 	C 	0.2198	0.0024	0.23	-0.142
Mof_H 	H 	0.1744	0.0117	0.2483	0.086
Mof_C 	C 	0.4147	0.924	0.2402	0.312
Mof_C 	C 	0.1369	0.089	0.023	-0.235
Mof_H 	H 	0.1413	0.0713	0.9883	0.102
Mof_H 	H 	0.1013	0.0448	0.0339	0.111
Mof_H 	H 	0.1961	0.1106	0.0412	0.114
Mof_La	La	0.32351	0.26539	0.76871	2.095
Mof_Cd	Cd	0.47811	0.14018	0.72229	0.49
Mof_Cd	Cd	0.12951	0.35052	0.75923	0.486
Mof_O 	O 	0.3609	0.1422	0.77125	-0.487
Mof_O 	O 	0.3531	0.0243	0.7241	-0.287
Mof_O 	O 	0.026	0.8375	0.86396	-0.166
Mof_O 	O 	0.7293	0.8531	0.86455	-0.167
Mof_O 	O 	0.9055	0.8498	0.96881	-0.163
Mof_O 	O 	0.7979	0.6971	0.79858	-0.162
Mof_O 	O 	0.7824	0.7083	0.17424	-0.206
Mof_O 	O 	0.8652	0.6274	0.1588	-0.258
Mof_O 	O 	0.5923	0.2568	0.7515	-0.312
Mof_O 	O 	0.4789	0.3043	0.751	-0.516
Mof_O 	O 	0.539	0.1038	0.7887	-0.271
Mof_O 	O 	0.583	0.0746	0.71475	-0.261
Mof_O 	O 	0.1716	0.17	0.73488	-0.459
Mof_O 	O 	0.0591	0.2218	0.7345	-0.321
Mof_O 	O 	0.8463	0.7848	0.67874	-0.152
Mof_O 	O 	0.6653	0.6463	0.5236	-0.19
Mof_C 	C 	0.6915	0.6035	0.4852	-0.132
Mof_H 	H 	0.7191	0.5697	0.4963	0.072
Mof_H 	H 	0.6401	0.5711	0.4612	0.075
Mof_H 	H 	0.7341	0.6385	0.4705	0.075
Mof_O 	O 	0.6677	0.8042	0.31676	-0.207
Mof_O 	O 	0.5617	0.848	0.35124	-0.278
Mof_O 	O 	0.5846	0.6551	0.6239	-0.158
Mof_O 	O 	0.8763	0.6307	0.6144	-0.166
Mof_O 	O 	0.0614	0.3673	0.6839	-0.255
Mof_O 	O 	0.0134	0.3965	0.7563	-0.257
Mof_O 	O 	0.2456	0.4647	0.7522	-0.303
Mof_O 	O 	0.2643	0.3466	0.72608	-0.486
Mof_C 	C 	0.0892	0.1656	0.7261	0.409
Mof_C 	C 	0.0221	0.0839	0.7031	-0.16
Mof_C 	C 	0.0414	0.0156	0.7021	0.095
Mof_H 	H 	0.0962	0.0196	0.718	0.012
Mof_C 	C 	0.9801	0.9399	0.6776	-0.17
Mof_H 	H 	0.9927	0.894	0.6789	0.107
Mof_C 	C 	0.8996	0.934	0.6511	0.128
Mof_C 	C 	0.8807	0.0057	0.6543	-0.18
Mof_H 	H 	0.8263	0.003	0.6385	0.1
Mof_C 	C 	0.9386	0.0769	0.6791	0.098
Mof_H 	H 	0.9236	0.1225	0.6806	0.018
Mof_C 	C 	0.8389	0.858	0.6188	-0.09
Mof_C 	C 	0.8135	0.7843	0.6312	0.126
Mof_C 	C 	0.7575	0.7151	0.6005	-0.058
Mof_C 	C 	0.7214	0.7149	0.5538	0.148
Mof_C 	C 	0.7454	0.7854	0.5398	-0.11
Mof_C 	C 	0.8034	0.8549	0.5716	0.016
Mof_H 	H 	0.8195	0.9013	0.5614	0.032
Mof_C 	C 	0.7882	0.7971	0.7153	-0.261
Mof_H 	H 	0.8195	0.8072	0.7475	0.126
Mof_H 	H 	0.7704	0.8421	0.7138	0.117
Mof_H 	H 	0.7358	0.7504	0.7092	0.123
Mof_C 	C 	0.7111	0.7894	0.4893	0.17
Mof_C 	C 	0.76	0.7874	0.4523	-0.2
Mof_H 	H 	0.8156	0.7805	0.4567	0.106
Mof_C 	C 	0.7318	0.7952	0.407	0.095
Mof_H 	H 	0.7666	0.791	0.3811	0.027
Mof_C 	C 	0.6545	0.8086	0.4009	-0.127
Mof_C 	C 	0.5974	0.8026	0.4352	0.085
Mof_H 	H 	0.5405	0.8069	0.4305	0.02
Mof_C 	C 	0.6302	0.7894	0.4796	-0.193
Mof_H 	H 	0.5906	0.7802	0.5028	0.108
Mof_C 	C 	0.6256	0.8224	0.3518	0.325
Mof_C 	C 	0.7299	0.6416	0.6173	-0.044
Mof_C 	C 	0.6417	0.6133	0.6293	0.122
Mof_C 	C 	0.613	0.5462	0.6476	-0.093
Mof_C 	C 	0.6775	0.5105	0.6542	-0
Mof_H 	H 	0.6604	0.4665	0.6668	0.036
Mof_C 	C 	0.7659	0.5364	0.6433	-0.083
Mof_C 	C 	0.7907	0.6037	0.6254	0.126
Mof_C 	C 	0.8941	0.6219	0.5663	-0.184
Mof_H 	H 	0.869	0.6541	0.5518	0.095
Mof_H 	H 	0.958	0.6385	0.5656	0.095
Mof_H 	H 	0.8675	0.5669	0.5478	0.086
Mof_C 	C 	0.5037	0.6125	0.5907	-0.239
Mof_H 	H 	0.465	0.6445	0.5939	0.112
Mof_H 	H 	0.5179	0.6009	0.5574	0.12
Mof_H 	H 	0.4736	0.5636	0.5985	0.109
Mof_C 	C 	0.8288	0.4978	0.6577	0.111
Mof_C 	C 	0.8252	0.4818	0.7046	-0.148
Mof_H 	H 	0.7831	0.4942	0.7245	0.09
Mof_C 	C 	0.8834	0.4482	0.7207	0.058
Mof_H 	H 	0.8809	0.4387	0.7517	0.032
Mof_C 	C 	0.9459	0.4281	0.6911	-0.104
Mof_C 	C 	0.9491	0.4425	0.6449	0.055
Mof_H 	H 	0.9902	0.4288	0.6247	0.026
Mof_C 	C 	0.8911	0.4772	0.6289	-0.14
Mof_H 	H 	0.8942	0.4869	0.5979	0.087
Mof_C 	C 	0.0107	0.3944	0.7104	0.304
Mof_C 	C 	0.5267	0.5172	0.6656	0.131
Mof_C 	C 	0.4921	0.5671	0.6997	-0.186
Mof_H 	H 	0.5217	0.622	0.7086	0.101
Mof_C 	C 	0.4169	0.5377	0.7199	0.094
Mof_H 	H 	0.3958	0.5727	0.7422	0.005
Mof_C 	C 	0.3688	0.4535	0.7079	-0.186
Mof_C 	C 	0.4023	0.4049	0.6731	0.104
Mof_H 	H 	0.3721	0.3502	0.6635	-0.008
Mof_C 	C 	0.4799	0.4356	0.652	-0.189
Mof_H 	H 	0.5004	0.4013	0.6288	0.1
Mof_C 	C 	0.2883	0.4229	0.7309	0.368
Mof_C 	C 	0.3235	0.0659	0.7574	0.4
Mof_C 	C 	0.2452	0.0318	0.782	-0.206
Mof_C 	C 	0.2141	0.0813	0.8169	0.161
Mof_H 	H 	0.2462	0.1356	0.828	-0.064
Mof_C 	C 	0.1345	0.0496	0.8357	-0.229
Mof_H 	H 	0.1145	0.0828	0.8599	0.111
Mof_C 	C 	0.0851	0.9699	0.8188	0.159
Mof_C 	C 	0.119	0.9205	0.7855	-0.208
Mof_H 	H 	0.0883	0.8659	0.7762	0.113
Mof_C 	C 	0.1964	0.9494	0.7655	0.122
Mof_H 	H 	0.2162	0.9154	0.7416	0.003
Mof_C 	C 	0.9938	0.9396	0.834	-0.102
Mof_C 	C 	0.9313	0.9738	0.8242	0.007
Mof_H 	H 	0.9489	0.0173	0.8112	0.034
Mof_C 	C 	0.8407	0.9449	0.8334	-0.091
Mof_C 	C 	0.8169	0.8822	0.8531	0.123
Mof_C 	C 	0.8781	0.8464	0.8639	-0.055
Mof_C 	C 	0.9666	0.8762	0.8554	0.13
Mof_C 	C 	0.0914	0.8802	0.905	-0.215
Mof_H 	H 	0.1318	0.8512	0.9078	0.106
Mof_H 	H 	0.1246	0.9314	0.9009	0.099
Mof_H 	H 	0.0625	0.8874	0.9345	0.109
Mof_C 	C 	0.664	0.8054	0.8239	-0.221
Mof_H 	H 	0.6052	0.7942	0.8346	0.104
Mof_H 	H 	0.6669	0.8333	0.799	0.103
Mof_H 	H 	0.6753	0.7563	0.8105	0.109
Mof_C 	C 	0.8496	0.7739	0.8829	-0.042
Mof_C 	C 	0.8117	0.7005	0.8493	0.119
Mof_C 	C 	0.7876	0.6291	0.8628	-0.089
Mof_C 	C 	0.8027	0.6349	0.9123	-0
Mof_H 	H 	0.7881	0.5882	0.9221	0.033
Mof_C 	C 	0.8389	0.7078	0.9486	-0.073
Mof_C 	C 	0.8638	0.779	0.9332	0.121
Mof_C 	C 	0.8666	0.6797	0.7704	-0.268
Mof_H 	H 	0.8524	0.6782	0.7366	0.13
Mof_H 	H 	0.9236	0.7205	0.784	0.129
Mof_H 	H 	0.87	0.6289	0.7719	0.123
Mof_C 	C 	0.7369	0.5504	0.8296	0.135
Mof_C 	C 	0.6613	0.5382	0.7972	-0.187
Mof_H 	H 	0.6492	0.5819	0.7913	0.102
Mof_C 	C 	0.6022	0.4598	0.7731	0.1
Mof_H 	H 	0.5492	0.452	0.7537	-0.012
Mof_C 	C 	0.6253	0.3949	0.7791	-0.204
Mof_C 	C 	0.7051	0.4083	0.8077	0.11
Mof_H 	H 	0.7223	0.365	0.8098	0.008
Mof_C 	C 	0.76	0.4844	0.8334	-0.194
Mof_H 	H 	0.8123	0.4916	0.8531	0.104
Mof_C 	C 	0.5639	0.3143	0.7595	0.413
Mof_C 	C 	0.846	0.7064	0.0013	0.106
Mof_C 	C 	0.886	0.6578	0.0161	-0.137
Mof_H 	H 	0.9165	0.6315	0.9941	0.083
Mof_C 	C 	0.8824	0.6466	0.0631	0.044
Mof_H 	H 	0.9116	0.6146	0.0726	0.035
Mof_C 	C 	0.8339	0.6843	0.0964	-0.095
Mof_C 	C 	0.794	0.7357	0.0812	0.043
Mof_H 	H 	0.7628	0.7618	0.1028	0.034
Mof_C 	C 	0.8008	0.7473	0.0351	-0.132
Mof_H 	H 	0.7756	0.7823	0.0259	0.085
Mof_C 	C 	0.8283	0.6727	0.1456	0.287
Mof_C 	C 	0.776	0.9823	0.8162	0.113
Mof_C 	C 	0.7116	0.9995	0.8438	-0.151
Mof_H 	H 	0.7082	0.9901	0.8748	0.095
Mof_C 	C 	0.6504	0.0311	0.8258	0.057
Mof_H 	H 	0.6083	0.0441	0.8455	0.027
Mof_C 	C 	0.6521	0.0429	0.7797	-0.104
Mof_C 	C 	0.7192	0.0259	0.7509	0.058
Mof_H 	H 	0.7218	0.0338	0.7195	0.029
Mof_C 	C 	0.7802	0.9976	0.77	-0.154
Mof_H 	H 	0.8256	0.9883	0.7517	0.089
Mof_C 	C 	0.5853	0.076	0.7598	0.318
Mof_C 	C 	0.8631	0.911	0.977	-0.247
Mof_H 	H 	0.8587	0.9287	0.0117	0.108
Mof_H 	H 	0.8987	0.9552	0.9661	0.114
Mof_H 	H 	0.8039	0.8894	0.9588	0.118
_end
