data_functionalizedCrystal
_audit_creation_method	'EQeq! by Chris Wilmer'
_symmetry_space_group_name_H-M	'P1'
_symmetry_Int_Tables_number	1
_symmetry_cell_setting	triclinic
loop_
_symmetry_equiv_pos_as_xyz
  x,y,z
_cell_length_a	8.8649
_cell_length_b	10.5565
_cell_length_c	10.631
_cell_angle_alpha	99.986
_cell_angle_beta	110.233
_cell_angle_gamma	97.819
loop_
_atom_site_label
_atom_site_type_symbol
_atom_site_fract_x
_atom_site_fract_y
_atom_site_fract_z
_atom_site_charge
Mof_Zn	Zn	0.7977	0.32194	0.24878	1.196
Mof_O 	O 	0.8099	0.3951	0.4553	-0.37
Mof_O 	O 	0.9471	0.5644	0.6378	-0.359
Mof_N 	N 	0.1877	0.2932	0.8265	-0.31
Mof_N 	N 	0.2863	0.1898	0.0268	-0.304
Mof_N 	N 	0.5474	0.2369	0.1742	-0.257
Mof_N 	N 	0.0933	0.0501	0.7976	-0.309
Mof_N 	N 	0.9925	0.2197	0.9347	-0.3
Mof_C 	C 	0.4373	0.2678	0.0703	0.131
Mof_H 	H 	0.4613	0.3363	0.0311	-0.04
Mof_C 	C 	0.3017	0.1023	0.1119	0.041
Mof_H 	H 	0.2184	0.0363	0.1086	0.002
Mof_C 	C 	0.1749	0.4203	0.851	0.139
Mof_H 	H 	0.1189	0.4539	0.9043	-0.034
Mof_C 	C 	0.9296	0.4881	0.5269	0.218
Mof_C 	C 	0.9876	0.2463	0.063	0.113
Mof_H 	H 	0.0726	0.2418	0.1423	-0.019
Mof_C 	C 	0.1917	0.9626	0.806	0.126
Mof_H 	H 	0.2967	0.978	0.8736	-0.043
Mof_C 	C 	0.7584	0.2749	0.928	-0.007
Mof_H 	H 	0.654	0.2933	0.8958	0.018
Mof_C 	C 	0.4621	0.1314	0.2011	-0.015
Mof_H 	H 	0.5071	0.0875	0.2692	0.024
Mof_C 	C 	0.8441	0.2395	0.8483	0.036
Mof_H 	H 	0.8096	0.2303	0.7535	0.011
Mof_C 	C 	0.3185	0.4057	0.7244	-0.025
Mof_H 	H 	0.3802	0.4277	0.6733	0.039
Mof_C 	C 	0.2805	0.2839	0.7456	0.047
Mof_H 	H 	0.3113	0.2085	0.7119	0
Mof_C 	C 	0.9724	0.8705	0.6306	-0.014
Mof_H 	H 	0.8962	0.81	0.5524	0.033
Mof_C 	C 	0.9508	0.9893	0.6849	0.045
Mof_H 	H 	0.8573	0.0237	0.6523	0.004
Mof_B 	B 	0.1374	0.1878	0.8961	0.917
Mof_N 	N 	0.1241	0.8533	0.7088	-0.246
Mof_N 	N 	0.8493	0.2793	0.0628	-0.246
Mof_N 	N 	0.2503	0.4919	0.7914	-0.241
Mof_Zn	Zn	0.2023	0.67806	0.75122	1.195
Mof_O 	O 	0.1901	0.6049	0.5447	-0.371
Mof_O 	O 	0.0529	0.4356	0.3622	-0.359
Mof_N 	N 	0.8123	0.7068	0.1735	-0.31
Mof_N 	N 	0.7137	0.8102	0.9732	-0.304
Mof_N 	N 	0.4526	0.7631	0.8258	-0.257
Mof_N 	N 	0.9067	0.9499	0.2024	-0.309
Mof_N 	N 	0.0075	0.7803	0.0653	-0.3
Mof_C 	C 	0.5627	0.7322	0.9297	0.131
Mof_H 	H 	0.5387	0.6637	0.9689	-0.04
Mof_C 	C 	0.6983	0.8977	0.8881	0.041
Mof_H 	H 	0.7816	0.9637	0.8914	0.002
Mof_C 	C 	0.8251	0.5797	0.149	0.139
Mof_H 	H 	0.8811	0.5461	0.0957	-0.034
Mof_C 	C 	0.0704	0.5119	0.4731	0.218
Mof_C 	C 	0.0124	0.7537	0.937	0.113
Mof_H 	H 	0.9274	0.7582	0.8577	-0.019
Mof_C 	C 	0.8083	0.0374	0.194	0.126
Mof_H 	H 	0.7033	0.022	0.1264	-0.043
Mof_C 	C 	0.2416	0.7251	0.072	-0.007
Mof_H 	H 	0.346	0.7067	0.1042	0.018
Mof_C 	C 	0.5379	0.8686	0.7989	-0.015
Mof_H 	H 	0.4929	0.9125	0.7308	0.024
Mof_C 	C 	0.1559	0.7605	0.1517	0.036
Mof_H 	H 	0.1904	0.7697	0.2465	0.011
Mof_C 	C 	0.6815	0.5943	0.2756	-0.025
Mof_H 	H 	0.6198	0.5723	0.3267	0.039
Mof_C 	C 	0.7195	0.7161	0.2544	0.047
Mof_H 	H 	0.6887	0.7915	0.2881	0
Mof_C 	C 	0.0276	0.1295	0.3694	-0.014
Mof_H 	H 	0.1038	0.19	0.4476	0.033
Mof_C 	C 	0.0492	0.0107	0.3151	0.045
Mof_H 	H 	0.1427	0.9763	0.3477	0.004
Mof_B 	B 	0.8626	0.8122	0.1039	0.917
Mof_N 	N 	0.8759	0.1467	0.2912	-0.246
Mof_N 	N 	0.1507	0.7207	0.9372	-0.246
Mof_N 	N 	0.7497	0.5081	0.2086	-0.241
_end
