data_functionalizedCrystal
_audit_creation_method	'EQeq! by Chris Wilmer'
_symmetry_space_group_name_H-M	'P1'
_symmetry_Int_Tables_number	1
_symmetry_cell_setting	triclinic
loop_
_symmetry_equiv_pos_as_xyz
  x,y,z
_cell_length_a	15.023
_cell_length_b	10.1643
_cell_length_c	18.196
_cell_angle_alpha	90
_cell_angle_beta	114.233
_cell_angle_gamma	90
loop_
_atom_site_label
_atom_site_type_symbol
_atom_site_fract_x
_atom_site_fract_y
_atom_site_fract_z
_atom_site_charge
Mof_Zn	Zn	0.1115	0.27736	0.23655	1.212
Mof_Zn	Zn	0.84417	0.05025	0.04666	1.222
Mof_C 	C 	0.17467	0.665	0.2019	-0.074
Mof_H 	H 	0.2385	0.7064	0.2163	0.065
Mof_C 	C 	0.10889	0.7402	0.23557	-0.134
Mof_H 	H 	0.1308	0.8318	0.2465	0.082
Mof_C 	C 	0.02346	0.731	0.15121	-0.107
Mof_H 	H 	0.9879	0.6493	0.1492	0.067
Mof_C 	C 	0.09852	0.7023	0.11489	-0.092
Mof_H 	H 	0.08	0.6272	0.0778	0.077
Mof_C 	C 	0.1812	0.5185	0.21858	0.319
Mof_C 	C 	0.09737	0.6846	0.30745	0.39
Mof_C 	C 	0.95059	0.8407	0.12414	0.355
Mof_C 	C 	0.13045	0.8207	0.08132	0.343
Mof_O 	O 	0.09923	0.45599	0.19243	-0.443
Mof_O 	O 	0.26031	0.4651	0.25612	-0.318
Mof_O 	O 	0.01465	0.67915	0.3096	-0.506
Mof_O 	O 	0.17405	0.64528	0.36495	-0.455
Mof_O 	O 	0.94381	0.91217	0.06528	-0.441
Mof_O 	O 	0.89605	0.85693	0.16024	-0.481
Mof_O 	O 	0.11794	0.80895	0.00752	-0.447
Mof_O 	O 	0.16755	0.9178	0.12343	-0.306
Mof_N 	N 	0.22348	0.1531	0.29592	-0.289
Mof_C 	C 	0.305	0.1506	0.2833	0.124
Mof_H 	H 	0.3112	0.2099	0.2467	-0.03
Mof_C 	C 	0.3802	0.064	0.3221	-0.212
Mof_H 	H 	0.4356	0.0656	0.3114	0.098
Mof_C 	C 	0.3735	0.9747	0.377	0.159
Mof_C 	C 	0.2891	0.9767	0.3885	-0.216
Mof_H 	H 	0.2803	0.9174	0.4238	0.105
Mof_C 	C 	0.2168	0.0667	0.3477	0.129
Mof_H 	H 	0.1605	0.0664	0.3571	-0.038
Mof_N 	N 	0.70864	0.5309	0.4939	-0.277
Mof_C 	C 	0.6649	0.5707	0.54078	0.105
Mof_H 	H 	0.6951	0.5538	0.5958	-0.008
Mof_C 	C 	0.5767	0.6358	0.5108	-0.2
Mof_H 	H 	0.5484	0.6616	0.5454	0.103
Mof_C 	C 	0.53	0.6629	0.4291	0.158
Mof_C 	C 	0.5746	0.6199	0.3817	-0.207
Mof_H 	H 	0.5451	0.634	0.3263	0.099
Mof_C 	C 	0.6629	0.5558	0.4151	0.109
Mof_H 	H 	0.692	0.5287	0.3813	-0.016
Mof_C 	C 	0.4563	0.8801	0.4213	-0.17
Mof_H 	H 	0.5141	0.9097	0.415	0.077
Mof_H 	H 	0.4704	0.8831	0.4783	0.074
Mof_C 	C 	0.4363	0.7426	0.3936	-0.18
Mof_H 	H 	0.4102	0.7397	0.3352	0.088
Mof_H 	H 	0.3882	0.7053	0.4103	0.09
Mof_Zn	Zn	0.8885	0.77736	0.26345	1.213
Mof_Zn	Zn	0.15583	0.55025	0.45334	1.226
Mof_C 	C 	0.82533	0.165	0.2981	-0.072
Mof_H 	H 	0.7615	0.2064	0.2837	0.065
Mof_C 	C 	0.89111	0.2402	0.26443	-0.133
Mof_H 	H 	0.8692	0.3318	0.2535	0.081
Mof_C 	C 	0.97654	0.231	0.34879	-0.118
Mof_H 	H 	0.0121	0.1493	0.3508	0.073
Mof_C 	C 	0.90148	0.2023	0.38511	-0.089
Mof_H 	H 	0.92	0.1272	0.4222	0.075
Mof_C 	C 	0.8188	0.0185	0.28142	0.309
Mof_C 	C 	0.90263	0.1846	0.19255	0.389
Mof_C 	C 	0.04941	0.3407	0.37586	0.361
Mof_C 	C 	0.86955	0.3207	0.41868	0.343
Mof_O 	O 	0.90077	0.95599	0.30757	-0.438
Mof_O 	O 	0.73969	0.9651	0.24388	-0.312
Mof_O 	O 	0.98535	0.17915	0.1904	-0.509
Mof_O 	O 	0.82595	0.14528	0.13505	-0.458
Mof_O 	O 	0.05619	0.41217	0.43472	-0.444
Mof_O 	O 	0.10395	0.35693	0.33976	-0.484
Mof_O 	O 	0.88206	0.30895	0.49248	-0.451
Mof_O 	O 	0.83245	0.4178	0.37657	-0.308
Mof_N 	N 	0.77652	0.6531	0.20408	-0.289
Mof_C 	C 	0.695	0.6506	0.2167	0.124
Mof_H 	H 	0.6888	0.7099	0.2533	-0.029
Mof_C 	C 	0.6198	0.564	0.1779	-0.21
Mof_H 	H 	0.5644	0.5656	0.1886	0.099
Mof_C 	C 	0.6265	0.4747	0.123	0.159
Mof_C 	C 	0.7109	0.4767	0.1115	-0.218
Mof_H 	H 	0.7197	0.4174	0.0762	0.105
Mof_C 	C 	0.7832	0.5667	0.1523	0.13
Mof_H 	H 	0.8395	0.5664	0.1429	-0.038
Mof_N 	N 	0.29136	0.0309	0.0061	-0.278
Mof_C 	C 	0.3351	0.0707	0.95922	0.107
Mof_H 	H 	0.3049	0.0538	0.9042	-0.007
Mof_C 	C 	0.4233	0.1358	0.9892	-0.192
Mof_H 	H 	0.4516	0.1616	0.9546	0.101
Mof_C 	C 	0.47	0.1629	0.0709	0.15
Mof_C 	C 	0.4254	0.1199	0.1183	-0.203
Mof_H 	H 	0.4549	0.134	0.1737	0.098
Mof_C 	C 	0.3371	0.0558	0.0849	0.105
Mof_H 	H 	0.308	0.0287	0.1187	-0.016
Mof_C 	C 	0.5437	0.3801	0.0787	-0.173
Mof_H 	H 	0.4859	0.4097	0.085	0.078
Mof_H 	H 	0.5296	0.3831	0.0217	0.075
Mof_C 	C 	0.5637	0.2426	0.1064	-0.175
Mof_H 	H 	0.5898	0.2397	0.1648	0.086
Mof_H 	H 	0.6118	0.2053	0.0897	0.087
Mof_Zn	Zn	0.8885	0.72264	0.76345	1.213
Mof_Zn	Zn	0.15583	0.94975	0.95334	1.223
Mof_C 	C 	0.82533	0.335	0.7981	-0.073
Mof_H 	H 	0.7615	0.2936	0.7837	0.066
Mof_C 	C 	0.89111	0.2598	0.76443	-0.134
Mof_H 	H 	0.8692	0.1682	0.7535	0.082
Mof_C 	C 	0.97654	0.269	0.84879	-0.107
Mof_H 	H 	0.0121	0.3507	0.8508	0.067
Mof_C 	C 	0.90148	0.2977	0.88511	-0.092
Mof_H 	H 	0.92	0.3728	0.9222	0.077
Mof_C 	C 	0.8188	0.4815	0.78142	0.319
Mof_C 	C 	0.90263	0.3154	0.69255	0.39
Mof_C 	C 	0.04941	0.1593	0.87586	0.355
Mof_C 	C 	0.86955	0.1793	0.91868	0.343
Mof_O 	O 	0.90077	0.54401	0.80757	-0.443
Mof_O 	O 	0.73969	0.5349	0.74388	-0.318
Mof_O 	O 	0.98535	0.32085	0.6904	-0.506
Mof_O 	O 	0.82595	0.35472	0.63505	-0.455
Mof_O 	O 	0.05619	0.08783	0.93472	-0.441
Mof_O 	O 	0.10395	0.14307	0.83976	-0.481
Mof_O 	O 	0.88206	0.19105	0.99248	-0.447
Mof_O 	O 	0.83245	0.0822	0.87657	-0.306
Mof_N 	N 	0.77652	0.8469	0.70408	-0.289
Mof_C 	C 	0.695	0.8494	0.7167	0.124
Mof_H 	H 	0.6888	0.7901	0.7533	-0.03
Mof_C 	C 	0.6198	0.936	0.6779	-0.212
Mof_H 	H 	0.5644	0.9344	0.6886	0.098
Mof_C 	C 	0.6265	0.0253	0.623	0.159
Mof_C 	C 	0.7109	0.0233	0.6115	-0.216
Mof_H 	H 	0.7197	0.0826	0.5762	0.105
Mof_C 	C 	0.7832	0.9333	0.6523	0.129
Mof_H 	H 	0.8395	0.9336	0.6429	-0.038
Mof_N 	N 	0.29136	0.4691	0.5061	-0.277
Mof_C 	C 	0.3351	0.4293	0.45922	0.105
Mof_H 	H 	0.3049	0.4462	0.4042	-0.008
Mof_C 	C 	0.4233	0.3642	0.4892	-0.2
Mof_H 	H 	0.4516	0.3384	0.4546	0.103
Mof_C 	C 	0.47	0.3371	0.5709	0.158
Mof_C 	C 	0.4254	0.3801	0.6183	-0.207
Mof_H 	H 	0.4549	0.366	0.6737	0.099
Mof_C 	C 	0.3371	0.4442	0.5849	0.109
Mof_H 	H 	0.308	0.4713	0.6187	-0.016
Mof_C 	C 	0.5437	0.1199	0.5787	-0.17
Mof_H 	H 	0.4859	0.0903	0.585	0.077
Mof_H 	H 	0.5296	0.1169	0.5217	0.074
Mof_C 	C 	0.5637	0.2574	0.6064	-0.18
Mof_H 	H 	0.5898	0.2603	0.6648	0.088
Mof_H 	H 	0.6118	0.2947	0.5897	0.09
Mof_Zn	Zn	0.1115	0.22264	0.73655	1.213
Mof_Zn	Zn	0.84417	0.44975	0.54666	1.226
Mof_C 	C 	0.17467	0.835	0.7019	-0.072
Mof_H 	H 	0.2385	0.7936	0.7163	0.065
Mof_C 	C 	0.10889	0.7598	0.73557	-0.133
Mof_H 	H 	0.1308	0.6682	0.7465	0.081
Mof_C 	C 	0.02346	0.769	0.65121	-0.118
Mof_H 	H 	0.9879	0.8507	0.6492	0.073
Mof_C 	C 	0.09852	0.7977	0.61489	-0.089
Mof_H 	H 	0.08	0.8728	0.5778	0.075
Mof_C 	C 	0.1812	0.9815	0.71858	0.309
Mof_C 	C 	0.09737	0.8154	0.80745	0.389
Mof_C 	C 	0.95059	0.6593	0.62414	0.361
Mof_C 	C 	0.13045	0.6793	0.58132	0.343
Mof_O 	O 	0.09923	0.04401	0.69243	-0.438
Mof_O 	O 	0.26031	0.0349	0.75612	-0.312
Mof_O 	O 	0.01465	0.82085	0.8096	-0.509
Mof_O 	O 	0.17405	0.85472	0.86495	-0.458
Mof_O 	O 	0.94381	0.58783	0.56528	-0.444
Mof_O 	O 	0.89605	0.64307	0.66024	-0.484
Mof_O 	O 	0.11794	0.69105	0.50752	-0.451
Mof_O 	O 	0.16755	0.5822	0.62343	-0.308
Mof_N 	N 	0.22348	0.3469	0.79592	-0.289
Mof_C 	C 	0.305	0.3494	0.7833	0.124
Mof_H 	H 	0.3112	0.2901	0.7467	-0.029
Mof_C 	C 	0.3802	0.436	0.8221	-0.21
Mof_H 	H 	0.4356	0.4344	0.8114	0.099
Mof_C 	C 	0.3735	0.5253	0.877	0.159
Mof_C 	C 	0.2891	0.5233	0.8885	-0.218
Mof_H 	H 	0.2803	0.5826	0.9238	0.105
Mof_C 	C 	0.2168	0.4333	0.8477	0.13
Mof_H 	H 	0.1605	0.4336	0.8571	-0.038
Mof_N 	N 	0.70864	0.9691	0.9939	-0.278
Mof_C 	C 	0.6649	0.9293	0.04078	0.107
Mof_H 	H 	0.6951	0.9462	0.0958	-0.007
Mof_C 	C 	0.5767	0.8642	0.0108	-0.192
Mof_H 	H 	0.5484	0.8384	0.0454	0.101
Mof_C 	C 	0.53	0.8371	0.9291	0.15
Mof_C 	C 	0.5746	0.8801	0.8817	-0.203
Mof_H 	H 	0.5451	0.866	0.8263	0.098
Mof_C 	C 	0.6629	0.9442	0.9151	0.105
Mof_H 	H 	0.692	0.9713	0.8813	-0.016
Mof_C 	C 	0.4563	0.6199	0.9213	-0.173
Mof_H 	H 	0.5141	0.5903	0.915	0.078
Mof_H 	H 	0.4704	0.6169	0.9783	0.075
Mof_C 	C 	0.4363	0.7574	0.8936	-0.175
Mof_H 	H 	0.4102	0.7603	0.8352	0.086
Mof_H 	H 	0.3882	0.7947	0.9103	0.087
_end
