data_functionalizedCrystal
_audit_creation_method	'EQeq! by Chris Wilmer'
_symmetry_space_group_name_H-M	'P1'
_symmetry_Int_Tables_number	1
_symmetry_cell_setting	triclinic
loop_
_symmetry_equiv_pos_as_xyz
  x,y,z
_cell_length_a	20.5138
_cell_length_b	20.5138
_cell_length_c	17.81
_cell_angle_alpha	90
_cell_angle_beta	90
_cell_angle_gamma	90
loop_
_atom_site_label
_atom_site_type_symbol
_atom_site_fract_x
_atom_site_fract_y
_atom_site_fract_z
_atom_site_charge
Mof_Zn	Zn	0.25748	0.11945	0.33239	1.159
Mof_O 	O 	0.2352	0.1295	0.2269	-0.516
Mof_O 	O 	0.3129	0.0562	0.2142	-0.574
Mof_O 	O 	0.33707	0.94511	0.9692	-0.522
Mof_O 	O 	0.2574	0.9653	0.8843	-0.57
Mof_O 	O 	0.1733	0.19184	0.88438	-0.473
Mof_O 	O 	0.1603	0.24205	0.99391	-0.464
Mof_C 	C 	0.2713	0.0931	0.1873	0.362
Mof_C 	C 	0.2607	0.0932	0.104	-0.118
Mof_C 	C 	0.2836	0.04054	0.0621	0.03
Mof_H 	H 	0.3074	0.0077	0.0854	0.028
Mof_C 	C 	0.2709	0.03711	0.9852	-0.108
Mof_C 	C 	0.2374	0.0875	0.9513	0.053
Mof_H 	H 	0.2289	0.0855	0.9001	0.036
Mof_C 	C 	0.216	0.1412	0.9921	-0.105
Mof_C 	C 	0.2267	0.1434	0.0692	0.03
Mof_H 	H 	0.2113	0.1783	0.0974	0.038
Mof_C 	C 	0.2914	0.9781	0.9424	0.364
Mof_C 	C 	0.1811	0.1965	0.9545	0.391
Mof_Zn	Zn	0.3432	0.08059	0.30964	1.129
Mof_Zn	Zn	0.75748	0.61945	0.83239	1.159
Mof_O 	O 	0.7352	0.6295	0.7269	-0.517
Mof_O 	O 	0.8129	0.5562	0.7142	-0.576
Mof_O 	O 	0.83707	0.44511	0.4692	-0.53
Mof_O 	O 	0.7574	0.4653	0.3843	-0.575
Mof_O 	O 	0.6733	0.69184	0.38438	-0.478
Mof_O 	O 	0.6603	0.74205	0.49391	-0.473
Mof_C 	C 	0.7713	0.5931	0.6873	0.375
Mof_C 	C 	0.7607	0.5932	0.604	-0.151
Mof_C 	C 	0.7836	0.54054	0.5621	0.087
Mof_H 	H 	0.8074	0.5077	0.5854	0.014
Mof_C 	C 	0.7709	0.53711	0.4852	-0.158
Mof_C 	C 	0.7374	0.5875	0.4513	0.092
Mof_H 	H 	0.7289	0.5855	0.4001	0.021
Mof_C 	C 	0.716	0.6412	0.4921	-0.155
Mof_C 	C 	0.7267	0.6434	0.5692	0.089
Mof_H 	H 	0.7113	0.6783	0.5974	0.024
Mof_C 	C 	0.7914	0.4781	0.4424	0.38
Mof_C 	C 	0.6811	0.6965	0.4545	0.406
Mof_Zn	Zn	0.8432	0.58059	0.80964	1.129
Mof_Zn	Zn	0.74252	0.88055	0.33239	1.159
Mof_O 	O 	0.7648	0.8705	0.2269	-0.516
Mof_O 	O 	0.6871	0.9438	0.2142	-0.574
Mof_O 	O 	0.66293	0.05489	0.9692	-0.522
Mof_O 	O 	0.7426	0.0347	0.8843	-0.57
Mof_O 	O 	0.8267	0.80816	0.88438	-0.473
Mof_O 	O 	0.8397	0.75795	0.99391	-0.464
Mof_C 	C 	0.7287	0.9069	0.1873	0.362
Mof_C 	C 	0.7393	0.9068	0.104	-0.118
Mof_C 	C 	0.7164	0.95946	0.0621	0.03
Mof_H 	H 	0.6926	0.9923	0.0854	0.028
Mof_C 	C 	0.7291	0.96289	0.9852	-0.108
Mof_C 	C 	0.7626	0.9125	0.9513	0.053
Mof_H 	H 	0.7711	0.9145	0.9001	0.036
Mof_C 	C 	0.784	0.8588	0.9921	-0.105
Mof_C 	C 	0.7733	0.8566	0.0692	0.03
Mof_H 	H 	0.7887	0.8217	0.0974	0.038
Mof_C 	C 	0.7086	0.0219	0.9424	0.364
Mof_C 	C 	0.8189	0.8035	0.9545	0.391
Mof_Zn	Zn	0.6568	0.91941	0.30964	1.129
Mof_Zn	Zn	0.24252	0.38055	0.83239	1.159
Mof_O 	O 	0.2648	0.3705	0.7269	-0.517
Mof_O 	O 	0.1871	0.4438	0.7142	-0.576
Mof_O 	O 	0.16293	0.55489	0.4692	-0.53
Mof_O 	O 	0.2426	0.5347	0.3843	-0.575
Mof_O 	O 	0.3267	0.30816	0.38438	-0.478
Mof_O 	O 	0.3397	0.25795	0.49391	-0.473
Mof_C 	C 	0.2287	0.4069	0.6873	0.375
Mof_C 	C 	0.2393	0.4068	0.604	-0.151
Mof_C 	C 	0.2164	0.45946	0.5621	0.087
Mof_H 	H 	0.1926	0.4923	0.5854	0.014
Mof_C 	C 	0.2291	0.46289	0.4852	-0.158
Mof_C 	C 	0.2626	0.4125	0.4513	0.092
Mof_H 	H 	0.2711	0.4145	0.4001	0.021
Mof_C 	C 	0.284	0.3588	0.4921	-0.155
Mof_C 	C 	0.2733	0.3566	0.5692	0.089
Mof_H 	H 	0.2887	0.3217	0.5974	0.024
Mof_C 	C 	0.2086	0.5219	0.4424	0.38
Mof_C 	C 	0.3189	0.3035	0.4545	0.406
Mof_Zn	Zn	0.1568	0.41941	0.80964	1.129
Mof_Zn	Zn	0.88055	0.25748	0.33239	1.159
Mof_O 	O 	0.8705	0.2352	0.2269	-0.516
Mof_O 	O 	0.9438	0.3129	0.2142	-0.574
Mof_O 	O 	0.05489	0.33707	0.9692	-0.522
Mof_O 	O 	0.0347	0.2574	0.8843	-0.57
Mof_O 	O 	0.80816	0.1733	0.88438	-0.473
Mof_O 	O 	0.75795	0.1603	0.99391	-0.464
Mof_C 	C 	0.9069	0.2713	0.1873	0.362
Mof_C 	C 	0.9068	0.2607	0.104	-0.118
Mof_C 	C 	0.95946	0.2836	0.0621	0.03
Mof_H 	H 	0.9923	0.3074	0.0854	0.028
Mof_C 	C 	0.96289	0.2709	0.9852	-0.108
Mof_C 	C 	0.9125	0.2374	0.9513	0.053
Mof_H 	H 	0.9145	0.2289	0.9001	0.036
Mof_C 	C 	0.8588	0.216	0.9921	-0.105
Mof_C 	C 	0.8566	0.2267	0.0692	0.03
Mof_H 	H 	0.8217	0.2113	0.0974	0.038
Mof_C 	C 	0.0219	0.2914	0.9424	0.364
Mof_C 	C 	0.8035	0.1811	0.9545	0.391
Mof_Zn	Zn	0.91941	0.3432	0.30964	1.129
Mof_Zn	Zn	0.38055	0.75748	0.83239	1.159
Mof_O 	O 	0.3705	0.7352	0.7269	-0.517
Mof_O 	O 	0.4438	0.8129	0.7142	-0.576
Mof_O 	O 	0.55489	0.83707	0.4692	-0.53
Mof_O 	O 	0.5347	0.7574	0.3843	-0.575
Mof_O 	O 	0.30816	0.6733	0.38438	-0.478
Mof_O 	O 	0.25795	0.6603	0.49391	-0.473
Mof_C 	C 	0.4069	0.7713	0.6873	0.375
Mof_C 	C 	0.4068	0.7607	0.604	-0.151
Mof_C 	C 	0.45946	0.7836	0.5621	0.087
Mof_H 	H 	0.4923	0.8074	0.5854	0.014
Mof_C 	C 	0.46289	0.7709	0.4852	-0.158
Mof_C 	C 	0.4125	0.7374	0.4513	0.092
Mof_H 	H 	0.4145	0.7289	0.4001	0.021
Mof_C 	C 	0.3588	0.716	0.4921	-0.155
Mof_C 	C 	0.3566	0.7267	0.5692	0.089
Mof_H 	H 	0.3217	0.7113	0.5974	0.024
Mof_C 	C 	0.5219	0.7914	0.4424	0.38
Mof_C 	C 	0.3035	0.6811	0.4545	0.406
Mof_Zn	Zn	0.41941	0.8432	0.80964	1.129
Mof_Zn	Zn	0.11945	0.74252	0.33239	1.159
Mof_O 	O 	0.1295	0.7648	0.2269	-0.516
Mof_O 	O 	0.0562	0.6871	0.2142	-0.574
Mof_O 	O 	0.94511	0.66293	0.9692	-0.522
Mof_O 	O 	0.9653	0.7426	0.8843	-0.57
Mof_O 	O 	0.19184	0.8267	0.88438	-0.473
Mof_O 	O 	0.24205	0.8397	0.99391	-0.464
Mof_C 	C 	0.0931	0.7287	0.1873	0.362
Mof_C 	C 	0.0932	0.7393	0.104	-0.118
Mof_C 	C 	0.04054	0.7164	0.0621	0.03
Mof_H 	H 	0.0077	0.6926	0.0854	0.028
Mof_C 	C 	0.03711	0.7291	0.9852	-0.108
Mof_C 	C 	0.0875	0.7626	0.9513	0.053
Mof_H 	H 	0.0855	0.7711	0.9001	0.036
Mof_C 	C 	0.1412	0.784	0.9921	-0.105
Mof_C 	C 	0.1434	0.7733	0.0692	0.03
Mof_H 	H 	0.1783	0.7887	0.0974	0.038
Mof_C 	C 	0.9781	0.7086	0.9424	0.364
Mof_C 	C 	0.1965	0.8189	0.9545	0.391
Mof_Zn	Zn	0.08059	0.6568	0.30964	1.129
Mof_Zn	Zn	0.61945	0.24252	0.83239	1.159
Mof_O 	O 	0.6295	0.2648	0.7269	-0.517
Mof_O 	O 	0.5562	0.1871	0.7142	-0.576
Mof_O 	O 	0.44511	0.16293	0.4692	-0.53
Mof_O 	O 	0.4653	0.2426	0.3843	-0.575
Mof_O 	O 	0.69184	0.3267	0.38438	-0.478
Mof_O 	O 	0.74205	0.3397	0.49391	-0.473
Mof_C 	C 	0.5931	0.2287	0.6873	0.375
Mof_C 	C 	0.5932	0.2393	0.604	-0.151
Mof_C 	C 	0.54054	0.2164	0.5621	0.087
Mof_H 	H 	0.5077	0.1926	0.5854	0.014
Mof_C 	C 	0.53711	0.2291	0.4852	-0.158
Mof_C 	C 	0.5875	0.2626	0.4513	0.092
Mof_H 	H 	0.5855	0.2711	0.4001	0.021
Mof_C 	C 	0.6412	0.284	0.4921	-0.155
Mof_C 	C 	0.6434	0.2733	0.5692	0.089
Mof_H 	H 	0.6783	0.2887	0.5974	0.024
Mof_C 	C 	0.4781	0.2086	0.4424	0.38
Mof_C 	C 	0.6965	0.3189	0.4545	0.406
Mof_Zn	Zn	0.58059	0.1568	0.80964	1.129
Mof_Zn	Zn	0.25748	0.88055	0.83239	1.159
Mof_O 	O 	0.2352	0.8705	0.7269	-0.517
Mof_O 	O 	0.3129	0.9438	0.7142	-0.576
Mof_O 	O 	0.33707	0.05489	0.4692	-0.53
Mof_O 	O 	0.2574	0.0347	0.3843	-0.575
Mof_O 	O 	0.1733	0.80816	0.38438	-0.478
Mof_O 	O 	0.1603	0.75795	0.49391	-0.473
Mof_C 	C 	0.2713	0.9069	0.6873	0.375
Mof_C 	C 	0.2607	0.9068	0.604	-0.152
Mof_C 	C 	0.2836	0.95946	0.5621	0.087
Mof_H 	H 	0.3074	0.9923	0.5854	0.014
Mof_C 	C 	0.2709	0.96289	0.4852	-0.158
Mof_C 	C 	0.2374	0.9125	0.4513	0.092
Mof_H 	H 	0.2289	0.9145	0.4001	0.021
Mof_C 	C 	0.216	0.8588	0.4921	-0.155
Mof_C 	C 	0.2267	0.8566	0.5692	0.089
Mof_H 	H 	0.2113	0.8217	0.5974	0.024
Mof_C 	C 	0.2914	0.0219	0.4424	0.38
Mof_C 	C 	0.1811	0.8035	0.4545	0.406
Mof_Zn	Zn	0.3432	0.91941	0.80964	1.129
Mof_Zn	Zn	0.75748	0.38055	0.33239	1.159
Mof_O 	O 	0.7352	0.3705	0.2269	-0.516
Mof_O 	O 	0.8129	0.4438	0.2142	-0.574
Mof_O 	O 	0.83707	0.55489	0.9692	-0.522
Mof_O 	O 	0.7574	0.5347	0.8843	-0.57
Mof_O 	O 	0.6733	0.30816	0.88438	-0.473
Mof_O 	O 	0.6603	0.25795	0.99391	-0.463
Mof_C 	C 	0.7713	0.4069	0.1873	0.362
Mof_C 	C 	0.7607	0.4068	0.104	-0.117
Mof_C 	C 	0.7836	0.45946	0.0621	0.029
Mof_H 	H 	0.8074	0.4923	0.0854	0.028
Mof_C 	C 	0.7709	0.46289	0.9852	-0.108
Mof_C 	C 	0.7374	0.4125	0.9513	0.052
Mof_H 	H 	0.7289	0.4145	0.9001	0.036
Mof_C 	C 	0.716	0.3588	0.9921	-0.104
Mof_C 	C 	0.7267	0.3566	0.0692	0.03
Mof_H 	H 	0.7113	0.3217	0.0974	0.038
Mof_C 	C 	0.7914	0.5219	0.9424	0.364
Mof_C 	C 	0.6811	0.3035	0.9545	0.391
Mof_Zn	Zn	0.8432	0.41941	0.30964	1.129
Mof_Zn	Zn	0.74252	0.11945	0.83239	1.159
Mof_O 	O 	0.7648	0.1295	0.7269	-0.517
Mof_O 	O 	0.6871	0.0562	0.7142	-0.576
Mof_O 	O 	0.66293	0.94511	0.4692	-0.53
Mof_O 	O 	0.7426	0.9653	0.3843	-0.575
Mof_O 	O 	0.8267	0.19184	0.38438	-0.478
Mof_O 	O 	0.8397	0.24205	0.49391	-0.473
Mof_C 	C 	0.7287	0.0931	0.6873	0.375
Mof_C 	C 	0.7393	0.0932	0.604	-0.152
Mof_C 	C 	0.7164	0.04054	0.5621	0.087
Mof_H 	H 	0.6926	0.0077	0.5854	0.014
Mof_C 	C 	0.7291	0.03711	0.4852	-0.158
Mof_C 	C 	0.7626	0.0875	0.4513	0.092
Mof_H 	H 	0.7711	0.0855	0.4001	0.021
Mof_C 	C 	0.784	0.1412	0.4921	-0.155
Mof_C 	C 	0.7733	0.1434	0.5692	0.089
Mof_H 	H 	0.7887	0.1783	0.5974	0.024
Mof_C 	C 	0.7086	0.9781	0.4424	0.38
Mof_C 	C 	0.8189	0.1965	0.4545	0.406
Mof_Zn	Zn	0.6568	0.08059	0.80964	1.129
Mof_Zn	Zn	0.24252	0.61945	0.33239	1.159
Mof_O 	O 	0.2648	0.6295	0.2269	-0.516
Mof_O 	O 	0.1871	0.5562	0.2142	-0.574
Mof_O 	O 	0.16293	0.44511	0.9692	-0.522
Mof_O 	O 	0.2426	0.4653	0.8843	-0.57
Mof_O 	O 	0.3267	0.69184	0.88438	-0.473
Mof_O 	O 	0.3397	0.74205	0.99391	-0.463
Mof_C 	C 	0.2287	0.5931	0.1873	0.362
Mof_C 	C 	0.2393	0.5932	0.104	-0.117
Mof_C 	C 	0.2164	0.54054	0.0621	0.029
Mof_H 	H 	0.1926	0.5077	0.0854	0.028
Mof_C 	C 	0.2291	0.53711	0.9852	-0.108
Mof_C 	C 	0.2626	0.5875	0.9513	0.052
Mof_H 	H 	0.2711	0.5855	0.9001	0.036
Mof_C 	C 	0.284	0.6412	0.9921	-0.104
Mof_C 	C 	0.2733	0.6434	0.0692	0.03
Mof_H 	H 	0.2887	0.6783	0.0974	0.038
Mof_C 	C 	0.2086	0.4781	0.9424	0.364
Mof_C 	C 	0.3189	0.6965	0.9545	0.391
Mof_Zn	Zn	0.1568	0.58059	0.30964	1.129
Mof_Zn	Zn	0.88055	0.74252	0.83239	1.159
Mof_O 	O 	0.8705	0.7648	0.7269	-0.517
Mof_O 	O 	0.9438	0.6871	0.7142	-0.576
Mof_O 	O 	0.05489	0.66293	0.4692	-0.53
Mof_O 	O 	0.0347	0.7426	0.3843	-0.575
Mof_O 	O 	0.80816	0.8267	0.38438	-0.478
Mof_O 	O 	0.75795	0.8397	0.49391	-0.473
Mof_C 	C 	0.9069	0.7287	0.6873	0.375
Mof_C 	C 	0.9068	0.7393	0.604	-0.152
Mof_C 	C 	0.95946	0.7164	0.5621	0.087
Mof_H 	H 	0.9923	0.6926	0.5854	0.014
Mof_C 	C 	0.96289	0.7291	0.4852	-0.158
Mof_C 	C 	0.9125	0.7626	0.4513	0.092
Mof_H 	H 	0.9145	0.7711	0.4001	0.021
Mof_C 	C 	0.8588	0.784	0.4921	-0.155
Mof_C 	C 	0.8566	0.7733	0.5692	0.089
Mof_H 	H 	0.8217	0.7887	0.5974	0.024
Mof_C 	C 	0.0219	0.7086	0.4424	0.38
Mof_C 	C 	0.8035	0.8189	0.4545	0.406
Mof_Zn	Zn	0.91941	0.6568	0.80964	1.129
Mof_Zn	Zn	0.38055	0.24252	0.33239	1.159
Mof_O 	O 	0.3705	0.2648	0.2269	-0.516
Mof_O 	O 	0.4438	0.1871	0.2142	-0.574
Mof_O 	O 	0.55489	0.16293	0.9692	-0.522
Mof_O 	O 	0.5347	0.2426	0.8843	-0.57
Mof_O 	O 	0.30816	0.3267	0.88438	-0.473
Mof_O 	O 	0.25795	0.3397	0.99391	-0.463
Mof_C 	C 	0.4069	0.2287	0.1873	0.362
Mof_C 	C 	0.4068	0.2393	0.104	-0.117
Mof_C 	C 	0.45946	0.2164	0.0621	0.029
Mof_H 	H 	0.4923	0.1926	0.0854	0.028
Mof_C 	C 	0.46289	0.2291	0.9852	-0.108
Mof_C 	C 	0.4125	0.2626	0.9513	0.052
Mof_H 	H 	0.4145	0.2711	0.9001	0.036
Mof_C 	C 	0.3588	0.284	0.9921	-0.104
Mof_C 	C 	0.3566	0.2733	0.0692	0.03
Mof_H 	H 	0.3217	0.2887	0.0974	0.038
Mof_C 	C 	0.5219	0.2086	0.9424	0.364
Mof_C 	C 	0.3035	0.3189	0.9545	0.391
Mof_Zn	Zn	0.41941	0.1568	0.30964	1.129
Mof_Zn	Zn	0.11945	0.25748	0.83239	1.159
Mof_O 	O 	0.1295	0.2352	0.7269	-0.517
Mof_O 	O 	0.0562	0.3129	0.7142	-0.576
Mof_O 	O 	0.94511	0.33707	0.4692	-0.53
Mof_O 	O 	0.9653	0.2574	0.3843	-0.575
Mof_O 	O 	0.19184	0.1733	0.38438	-0.478
Mof_O 	O 	0.24205	0.1603	0.49391	-0.473
Mof_C 	C 	0.0931	0.2713	0.6873	0.375
Mof_C 	C 	0.0932	0.2607	0.604	-0.152
Mof_C 	C 	0.04054	0.2836	0.5621	0.087
Mof_H 	H 	0.0077	0.3074	0.5854	0.014
Mof_C 	C 	0.03711	0.2709	0.4852	-0.158
Mof_C 	C 	0.0875	0.2374	0.4513	0.092
Mof_H 	H 	0.0855	0.2289	0.4001	0.021
Mof_C 	C 	0.1412	0.216	0.4921	-0.155
Mof_C 	C 	0.1434	0.2267	0.5692	0.089
Mof_H 	H 	0.1783	0.2113	0.5974	0.024
Mof_C 	C 	0.9781	0.2914	0.4424	0.38
Mof_C 	C 	0.1965	0.1811	0.4545	0.406
Mof_Zn	Zn	0.08059	0.3432	0.80964	1.129
Mof_Zn	Zn	0.61945	0.75748	0.33239	1.159
Mof_O 	O 	0.6295	0.7352	0.2269	-0.516
Mof_O 	O 	0.5562	0.8129	0.2142	-0.574
Mof_O 	O 	0.44511	0.83707	0.9692	-0.522
Mof_O 	O 	0.4653	0.7574	0.8843	-0.57
Mof_O 	O 	0.69184	0.6733	0.88438	-0.473
Mof_O 	O 	0.74205	0.6603	0.99391	-0.463
Mof_C 	C 	0.5931	0.7713	0.1873	0.362
Mof_C 	C 	0.5932	0.7607	0.104	-0.117
Mof_C 	C 	0.54054	0.7836	0.0621	0.029
Mof_H 	H 	0.5077	0.8074	0.0854	0.028
Mof_C 	C 	0.53711	0.7709	0.9852	-0.108
Mof_C 	C 	0.5875	0.7374	0.9513	0.052
Mof_H 	H 	0.5855	0.7289	0.9001	0.036
Mof_C 	C 	0.6412	0.716	0.9921	-0.104
Mof_C 	C 	0.6434	0.7267	0.0692	0.03
Mof_H 	H 	0.6783	0.7113	0.0974	0.038
Mof_C 	C 	0.4781	0.7914	0.9424	0.364
Mof_C 	C 	0.6965	0.6811	0.9545	0.391
Mof_Zn	Zn	0.58059	0.8432	0.30964	1.129
Mof_Zn	Zn	0.34369	0.15631	0.47802	1.207
Mof_O 	O 	0.33956	0.16044	0.3601	-1.079
Mof_O 	O 	0.4303	0.0697	0.2938	-1.341
Mof_H 	H 	0.4412	0.0588	0.2501	0.456
Mof_H 	H 	0.4507	0.0493	0.3272	0.422
Mof_Zn	Zn	0.65631	0.84369	0.47802	1.207
Mof_O 	O 	0.66044	0.83956	0.3601	-1.079
Mof_O 	O 	0.5697	0.9303	0.2938	-1.341
Mof_H 	H 	0.5588	0.9412	0.2501	0.456
Mof_H 	H 	0.5493	0.9507	0.3272	0.422
Mof_Zn	Zn	0.15631	0.34369	0.97802	1.208
Mof_O 	O 	0.16044	0.33956	0.8601	-1.079
Mof_O 	O 	0.0697	0.4303	0.7938	-1.342
Mof_H 	H 	0.0588	0.4412	0.7501	0.458
Mof_H 	H 	0.0493	0.4507	0.8272	0.424
Mof_Zn	Zn	0.84369	0.34369	0.47802	1.207
Mof_O 	O 	0.83956	0.33956	0.3601	-1.079
Mof_O 	O 	0.9303	0.4303	0.2938	-1.341
Mof_H 	H 	0.9412	0.4412	0.2501	0.456
Mof_H 	H 	0.9507	0.4507	0.3272	0.422
Mof_Zn	Zn	0.15631	0.65631	0.47802	1.207
Mof_O 	O 	0.16044	0.66044	0.3601	-1.079
Mof_O 	O 	0.0697	0.5697	0.2938	-1.341
Mof_H 	H 	0.0588	0.5588	0.2501	0.456
Mof_H 	H 	0.0493	0.5493	0.3272	0.422
Mof_Zn	Zn	0.34369	0.84369	0.97802	1.208
Mof_O 	O 	0.33956	0.83956	0.8601	-1.079
Mof_O 	O 	0.4303	0.9303	0.7938	-1.342
Mof_H 	H 	0.4412	0.9412	0.7501	0.458
Mof_H 	H 	0.4507	0.9507	0.8272	0.424
Mof_Zn	Zn	0.65631	0.15631	0.97802	1.208
Mof_O 	O 	0.66044	0.16044	0.8601	-1.079
Mof_O 	O 	0.5697	0.0697	0.7938	-1.342
Mof_H 	H 	0.5588	0.0588	0.7501	0.458
Mof_H 	H 	0.5493	0.0493	0.8272	0.424
Mof_Zn	Zn	0.84369	0.65631	0.97802	1.208
Mof_O 	O 	0.83956	0.66044	0.8601	-1.079
Mof_O 	O 	0.9303	0.5697	0.7938	-1.342
Mof_H 	H 	0.9412	0.5588	0.7501	0.458
Mof_H 	H 	0.9507	0.5493	0.8272	0.424
_end
