data_functionalizedCrystal
_audit_creation_method	'EQeq! by Chris Wilmer'
_symmetry_space_group_name_H-M	'P1'
_symmetry_Int_Tables_number	1
_symmetry_cell_setting	triclinic
loop_
_symmetry_equiv_pos_as_xyz
  x,y,z
_cell_length_a	9.7481
_cell_length_b	9.885
_cell_length_c	21.3785
_cell_angle_alpha	90
_cell_angle_beta	93.467
_cell_angle_gamma	90
loop_
_atom_site_label
_atom_site_type_symbol
_atom_site_fract_x
_atom_site_fract_y
_atom_site_fract_z
_atom_site_charge
Mof_C 	C 	0.2364	0.232	0.1724	-0.051
Mof_C 	C 	0.2467	0.145	0.1165	0.379
Mof_C 	C 	0.1463	0.3356	0.187	-0.043
Mof_C 	C 	0.0369	0.4079	0.1508	0.354
Mof_C 	C 	0.2858	0.3011	0.2653	0.106
Mof_H 	H 	0.3287	0.308	0.3052	-0.009
Mof_C 	C 	0.7252	0.9528	0.1481	-0.044
Mof_C 	C 	0.7368	0.1013	0.1498	0.376
Mof_C 	C 	0.7942	0.8507	0.1185	-0.046
Mof_C 	C 	0.9037	0.8429	0.0752	0.358
Mof_C 	C 	0.6368	0.7625	0.172	0.097
Mof_H 	H 	0.5824	0.6986	0.1906	0.013
Mof_Cd	Cd	0.46726	0.03643	0.21613	0.425
Mof_Cd	Cd	0.81012	0.53903	0.09211	0.344
Mof_Tb	Tb	0.93918	0.18787	0.03275	1.878
Mof_N 	N 	0.3273	0.2119	0.223	-0.138
Mof_N 	N 	0.1809	0.3782	0.2468	-0.141
Mof_N 	N 	0.623	0.8963	0.1809	-0.134
Mof_N 	N 	0.7344	0.7296	0.1346	-0.133
Mof_O 	O 	0.3483	0.066	0.1161	-0.327
Mof_O 	O 	0.1589	0.153	0.0715	-0.503
Mof_O 	O 	0.0053	0.3818	0.09363	-0.495
Mof_O 	O 	0.9733	0.5009	0.1777	-0.33
Mof_O 	O 	0.656	0.1652	0.1818	-0.333
Mof_O 	O 	0.8302	0.1603	0.1209	-0.533
Mof_O 	O 	0.9598	0.9483	0.05328	-0.578
Mof_O 	O 	0.9407	0.7265	0.0564	-0.48
Mof_O 	O 	0.6331	0.4162	0.1299	-0.253
Mof_H 	H 	0.673	0.358	0.154	-0.143
Mof_H 	H 	0.567	0.38	0.109	0.121
Mof_O 	O 	0.688	0.433	0.171	-0.355
Mof_H 	H 	0.6532	0.3428	0.1654	0.405
Mof_H 	H 	0.7731	0.4519	0.173	0.212
Mof_C 	C 	0.2636	0.732	0.3276	-0.052
Mof_C 	C 	0.2533	0.645	0.3835	0.381
Mof_C 	C 	0.3537	0.8356	0.313	-0.043
Mof_C 	C 	0.4631	0.9079	0.3492	0.356
Mof_C 	C 	0.2142	0.8011	0.2347	0.106
Mof_H 	H 	0.1713	0.808	0.1948	-0.009
Mof_C 	C 	0.7748	0.4528	0.3519	-0.052
Mof_C 	C 	0.7632	0.6013	0.3502	0.385
Mof_C 	C 	0.7058	0.3507	0.3815	-0.046
Mof_C 	C 	0.5963	0.3429	0.4248	0.358
Mof_C 	C 	0.8632	0.2625	0.328	0.096
Mof_H 	H 	0.9176	0.1986	0.3094	0.01
Mof_Cd	Cd	0.03274	0.53643	0.28387	0.427
Mof_Cd	Cd	0.68988	0.03903	0.40789	0.339
Mof_Tb	Tb	0.56082	0.68787	0.46725	1.907
Mof_N 	N 	0.1727	0.7119	0.277	-0.138
Mof_N 	N 	0.3191	0.8782	0.2532	-0.141
Mof_N 	N 	0.877	0.3963	0.3191	-0.135
Mof_N 	N 	0.7656	0.2296	0.3654	-0.134
Mof_O 	O 	0.1517	0.566	0.3839	-0.328
Mof_O 	O 	0.3411	0.653	0.4285	-0.509
Mof_O 	O 	0.4947	0.8818	0.40637	-0.501
Mof_O 	O 	0.5267	0.0009	0.3223	-0.331
Mof_O 	O 	0.844	0.6652	0.3182	-0.334
Mof_O 	O 	0.6698	0.6603	0.3791	-0.535
Mof_O 	O 	0.5402	0.4483	0.44672	-0.588
Mof_O 	O 	0.5593	0.2265	0.4436	-0.485
Mof_O 	O 	0.8669	0.9162	0.3701	-0.252
Mof_H 	H 	0.827	0.858	0.346	-0.141
Mof_H 	H 	0.933	0.88	0.391	0.123
Mof_O 	O 	0.812	0.933	0.329	-0.353
Mof_H 	H 	0.8468	0.8428	0.3346	0.403
Mof_H 	H 	0.7269	0.9519	0.327	0.214
Mof_C 	C 	0.7636	0.768	0.8276	-0.05
Mof_C 	C 	0.7533	0.855	0.8835	0.38
Mof_C 	C 	0.8537	0.6644	0.813	-0.042
Mof_C 	C 	0.9631	0.5921	0.8492	0.355
Mof_C 	C 	0.7142	0.6989	0.7347	0.107
Mof_H 	H 	0.6713	0.692	0.6948	-0.008
Mof_C 	C 	0.2748	0.0472	0.8519	-0.044
Mof_C 	C 	0.2632	0.8987	0.8502	0.376
Mof_C 	C 	0.2058	0.1493	0.8815	-0.046
Mof_C 	C 	0.0963	0.1571	0.9248	0.358
Mof_C 	C 	0.3632	0.2375	0.828	0.097
Mof_H 	H 	0.4176	0.3014	0.8094	0.013
Mof_Cd	Cd	0.53274	0.96357	0.78387	0.425
Mof_Cd	Cd	0.18988	0.46097	0.90789	0.344
Mof_Tb	Tb	0.06082	0.81213	0.96725	1.878
Mof_N 	N 	0.6727	0.7881	0.777	-0.138
Mof_N 	N 	0.8191	0.6218	0.7532	-0.141
Mof_N 	N 	0.377	0.1037	0.8191	-0.134
Mof_N 	N 	0.2656	0.2704	0.8654	-0.133
Mof_O 	O 	0.6517	0.934	0.8839	-0.327
Mof_O 	O 	0.8411	0.847	0.9285	-0.503
Mof_O 	O 	0.9947	0.6182	0.90637	-0.495
Mof_O 	O 	0.0267	0.4991	0.8223	-0.33
Mof_O 	O 	0.344	0.8348	0.8182	-0.333
Mof_O 	O 	0.1698	0.8397	0.8791	-0.533
Mof_O 	O 	0.0402	0.0517	0.94672	-0.578
Mof_O 	O 	0.0593	0.2735	0.9436	-0.48
Mof_O 	O 	0.3669	0.5838	0.8701	-0.253
Mof_H 	H 	0.327	0.642	0.846	-0.143
Mof_H 	H 	0.433	0.62	0.891	0.121
Mof_O 	O 	0.312	0.567	0.829	-0.355
Mof_H 	H 	0.3468	0.6572	0.8346	0.405
Mof_H 	H 	0.2269	0.5481	0.827	0.212
Mof_C 	C 	0.7364	0.268	0.6724	-0.052
Mof_C 	C 	0.7467	0.355	0.6165	0.381
Mof_C 	C 	0.6463	0.1644	0.687	-0.043
Mof_C 	C 	0.5369	0.0921	0.6508	0.356
Mof_C 	C 	0.7858	0.1989	0.7653	0.106
Mof_H 	H 	0.8287	0.192	0.8052	-0.009
Mof_C 	C 	0.2252	0.5472	0.6481	-0.052
Mof_C 	C 	0.2368	0.3987	0.6498	0.385
Mof_C 	C 	0.2942	0.6493	0.6185	-0.046
Mof_C 	C 	0.4037	0.6571	0.5752	0.358
Mof_C 	C 	0.1368	0.7375	0.672	0.096
Mof_H 	H 	0.0824	0.8014	0.6906	0.01
Mof_Cd	Cd	0.96726	0.46357	0.71613	0.427
Mof_Cd	Cd	0.31012	0.96097	0.59211	0.339
Mof_Tb	Tb	0.43918	0.31213	0.53275	1.907
Mof_N 	N 	0.8273	0.2881	0.723	-0.138
Mof_N 	N 	0.6809	0.1218	0.7468	-0.141
Mof_N 	N 	0.123	0.6037	0.6809	-0.135
Mof_N 	N 	0.2344	0.7704	0.6346	-0.134
Mof_O 	O 	0.8483	0.434	0.6161	-0.328
Mof_O 	O 	0.6589	0.347	0.5715	-0.509
Mof_O 	O 	0.5053	0.1182	0.59363	-0.501
Mof_O 	O 	0.4733	0.9991	0.6777	-0.331
Mof_O 	O 	0.156	0.3348	0.6818	-0.334
Mof_O 	O 	0.3302	0.3397	0.6209	-0.535
Mof_O 	O 	0.4598	0.5517	0.55328	-0.588
Mof_O 	O 	0.4407	0.7735	0.5564	-0.485
Mof_O 	O 	0.1331	0.0838	0.6299	-0.252
Mof_H 	H 	0.173	0.142	0.654	-0.141
Mof_H 	H 	0.067	0.12	0.609	0.123
Mof_O 	O 	0.188	0.067	0.671	-0.353
Mof_H 	H 	0.1532	0.1572	0.6654	0.403
Mof_H 	H 	0.2731	0.0481	0.673	0.214
_end
