data_functionalizedCrystal
_audit_creation_method	'EQeq! by Chris Wilmer'
_symmetry_space_group_name_H-M	'P1'
_symmetry_Int_Tables_number	1
_symmetry_cell_setting	triclinic
loop_
_symmetry_equiv_pos_as_xyz
  x,y,z
_cell_length_a	15.8267
_cell_length_b	15.8267
_cell_length_c	21.778
_cell_angle_alpha	90
_cell_angle_beta	90
_cell_angle_gamma	90
loop_
_atom_site_label
_atom_site_type_symbol
_atom_site_fract_x
_atom_site_fract_y
_atom_site_fract_z
_atom_site_charge
Mof_Cd	Cd	0.06012	0.93988	0.25	0.383
Mof_Cd	Cd	0.93988	0.06012	0.75	0.383
Mof_Cd	Cd	0.56012	0.56012	0.5	0.385
Mof_Cd	Cd	0.43988	0.43988	-0	0.383
Mof_H 	H 	0.3593	0.2687	0.0424	0.009
Mof_H 	H 	0.2633	0.2094	0.1065	0.097
Mof_H 	H 	0.2861	0.413	0.215	0.092
Mof_H 	H 	0.3853	0.4638	0.1484	0.031
Mof_H 	H 	0.2058	0.3428	0.2821	0.069
Mof_H 	H 	0.0917	0.2919	0.3363	0.023
Mof_H 	H 	0.9981	0.1986	0.2919	0.068
Mof_H 	H 	0.14	0.1962	0.1396	0.087
Mof_H 	H 	0.8792	0.9539	0.0423	0.065
Mof_H 	H 	0.7676	0.9313	0.9772	0.027
Mof_H 	H 	0.6612	0.0299	0.9692	0.056
Mof_H 	H 	0.7755	0.1718	0.0971	0.066
Mof_H 	H 	0.5972	0.1462	0.941	0.083
Mof_H 	H 	0.5055	0.2575	0.9299	0.011
Mof_H 	H 	0.558	0.34	0.0923	0.01
Mof_H 	H 	0.6516	0.2326	0.1084	0.078
Mof_H 	H 	0.9739	0.2415	0.1023	0.142
Mof_H 	H 	0.903	0.2562	0.1538	0.123
Mof_H 	H 	0.6407	0.7313	0.5424	0.011
Mof_H 	H 	0.7367	0.7906	0.6065	0.098
Mof_H 	H 	0.7139	0.587	0.715	0.093
Mof_H 	H 	0.6147	0.5362	0.6484	0.032
Mof_H 	H 	0.7942	0.6572	0.7821	0.07
Mof_H 	H 	0.9083	0.7081	0.8363	0.024
Mof_H 	H 	0.0019	0.8014	0.7919	0.07
Mof_H 	H 	0.86	0.8038	0.6396	0.088
Mof_H 	H 	0.1208	0.0461	0.5423	0.07
Mof_H 	H 	0.2324	0.0687	0.4772	0.021
Mof_H 	H 	0.3388	0.9701	0.4692	0.061
Mof_H 	H 	0.2245	0.8282	0.5971	0.068
Mof_H 	H 	0.4028	0.8538	0.441	0.083
Mof_H 	H 	0.4945	0.7425	0.4299	0.012
Mof_H 	H 	0.442	0.66	0.5923	0.01
Mof_H 	H 	0.3484	0.7674	0.6084	0.078
Mof_H 	H 	0.0261	0.7585	0.6023	0.143
Mof_H 	H 	0.097	0.7438	0.6538	0.123
Mof_H 	H 	0.2313	0.8593	0.2924	0.011
Mof_H 	H 	0.2906	0.7633	0.3565	0.097
Mof_H 	H 	0.087	0.7861	0.465	0.093
Mof_H 	H 	0.0362	0.8853	0.3984	0.031
Mof_H 	H 	0.1572	0.7058	0.5321	0.071
Mof_H 	H 	0.2081	0.5917	0.5863	0.023
Mof_H 	H 	0.3014	0.4981	0.5419	0.072
Mof_H 	H 	0.3038	0.64	0.3896	0.089
Mof_H 	H 	0.5461	0.3792	0.2923	0.07
Mof_H 	H 	0.5687	0.2676	0.2272	0.021
Mof_H 	H 	0.4701	0.1612	0.2192	0.06
Mof_H 	H 	0.3282	0.2755	0.3471	0.068
Mof_H 	H 	0.3538	0.0972	0.191	0.083
Mof_H 	H 	0.2425	0.0055	0.1799	0.012
Mof_H 	H 	0.16	0.058	0.3423	0.011
Mof_H 	H 	0.2674	0.1516	0.3584	0.078
Mof_H 	H 	0.2585	0.4739	0.3523	0.143
Mof_H 	H 	0.2438	0.403	0.4038	0.123
Mof_H 	H 	0.7687	0.1407	0.7924	0.011
Mof_H 	H 	0.7094	0.2367	0.8565	0.097
Mof_H 	H 	0.913	0.2139	0.965	0.093
Mof_H 	H 	0.9638	0.1147	0.8984	0.032
Mof_H 	H 	0.8428	0.2942	0.0321	0.073
Mof_H 	H 	0.7919	0.4083	0.0863	0.021
Mof_H 	H 	0.6986	0.5019	0.0419	0.074
Mof_H 	H 	0.6962	0.36	0.8896	0.09
Mof_H 	H 	0.4539	0.6208	0.7923	0.07
Mof_H 	H 	0.4313	0.7324	0.7272	0.021
Mof_H 	H 	0.5299	0.8388	0.7192	0.06
Mof_H 	H 	0.6718	0.7245	0.8471	0.068
Mof_H 	H 	0.6462	0.9028	0.691	0.083
Mof_H 	H 	0.7575	0.9945	0.6799	0.012
Mof_H 	H 	0.84	0.942	0.8423	0.011
Mof_H 	H 	0.7326	0.8484	0.8584	0.078
Mof_H 	H 	0.7415	0.5261	0.8523	0.143
Mof_H 	H 	0.7562	0.597	0.9038	0.123
Mof_H 	H 	0.1407	0.7687	0.2076	0.01
Mof_H 	H 	0.2367	0.7094	0.1435	0.098
Mof_H 	H 	0.2139	0.913	0.035	0.093
Mof_H 	H 	0.1147	0.9638	0.1016	0.031
Mof_H 	H 	0.2942	0.8428	0.9679	0.069
Mof_H 	H 	0.4083	0.7919	0.9137	0.025
Mof_H 	H 	0.5019	0.6986	0.9581	0.069
Mof_H 	H 	0.36	0.6962	0.1104	0.087
Mof_H 	H 	0.6208	0.4539	0.2077	0.07
Mof_H 	H 	0.7324	0.4313	0.2728	0.021
Mof_H 	H 	0.8388	0.5299	0.2808	0.06
Mof_H 	H 	0.7245	0.6718	0.1529	0.068
Mof_H 	H 	0.9028	0.6462	0.309	0.083
Mof_H 	H 	0.9945	0.7575	0.3201	0.012
Mof_H 	H 	0.942	0.84	0.1577	0.011
Mof_H 	H 	0.8484	0.7326	0.1416	0.078
Mof_H 	H 	0.5261	0.7415	0.1477	0.143
Mof_H 	H 	0.597	0.7562	0.0962	0.123
Mof_H 	H 	0.8593	0.2313	0.7076	0.011
Mof_H 	H 	0.7633	0.2906	0.6435	0.097
Mof_H 	H 	0.7861	0.087	0.535	0.093
Mof_H 	H 	0.8853	0.0362	0.6016	0.031
Mof_H 	H 	0.7058	0.1572	0.4679	0.071
Mof_H 	H 	0.5917	0.2081	0.4137	0.023
Mof_H 	H 	0.4981	0.3014	0.4581	0.072
Mof_H 	H 	0.64	0.3038	0.6104	0.089
Mof_H 	H 	0.3792	0.5461	0.7077	0.07
Mof_H 	H 	0.2676	0.5687	0.7728	0.021
Mof_H 	H 	0.1612	0.4701	0.7808	0.06
Mof_H 	H 	0.2755	0.3282	0.6529	0.068
Mof_H 	H 	0.0972	0.3538	0.809	0.083
Mof_H 	H 	0.0055	0.2425	0.8201	0.012
Mof_H 	H 	0.058	0.16	0.6577	0.011
Mof_H 	H 	0.1516	0.2674	0.6416	0.078
Mof_H 	H 	0.4739	0.2585	0.6477	0.143
Mof_H 	H 	0.403	0.2438	0.5962	0.123
Mof_H 	H 	0.2687	0.3593	0.9576	0.011
Mof_H 	H 	0.2094	0.2633	0.8935	0.098
Mof_H 	H 	0.413	0.2861	0.785	0.093
Mof_H 	H 	0.4638	0.3853	0.8516	0.032
Mof_H 	H 	0.3428	0.2058	0.7179	0.07
Mof_H 	H 	0.2919	0.0917	0.6637	0.024
Mof_H 	H 	0.1986	0.9981	0.7081	0.07
Mof_H 	H 	0.1962	0.14	0.8604	0.089
Mof_H 	H 	0.9539	0.8792	0.9577	0.074
Mof_H 	H 	0.9313	0.7676	0.0228	0.014
Mof_H 	H 	0.0299	0.6612	0.0308	0.066
Mof_H 	H 	0.1718	0.7755	0.9029	0.07
Mof_H 	H 	0.1462	0.5972	0.059	0.082
Mof_H 	H 	0.2575	0.5055	0.0701	0.012
Mof_H 	H 	0.34	0.558	0.9077	0.011
Mof_H 	H 	0.2326	0.6516	0.8916	0.077
Mof_H 	H 	0.2415	0.9739	0.8977	0.143
Mof_H 	H 	0.2562	0.903	0.8462	0.123
Mof_H 	H 	0.7313	0.6407	0.4576	0.011
Mof_H 	H 	0.7906	0.7367	0.3935	0.098
Mof_H 	H 	0.587	0.7139	0.285	0.093
Mof_H 	H 	0.5362	0.6147	0.3516	0.032
Mof_H 	H 	0.6572	0.7942	0.2179	0.07
Mof_H 	H 	0.7081	0.9083	0.1637	0.024
Mof_H 	H 	0.8014	0.0019	0.2081	0.069
Mof_H 	H 	0.8038	0.86	0.3604	0.088
Mof_H 	H 	0.0461	0.1208	0.4577	0.07
Mof_H 	H 	0.0687	0.2324	0.5228	0.021
Mof_H 	H 	0.9701	0.3388	0.5308	0.061
Mof_H 	H 	0.8282	0.2245	0.4029	0.068
Mof_H 	H 	0.8538	0.4028	0.559	0.083
Mof_H 	H 	0.7425	0.4945	0.5701	0.012
Mof_H 	H 	0.66	0.442	0.4077	0.01
Mof_H 	H 	0.7674	0.3484	0.3916	0.078
Mof_H 	H 	0.7585	0.0261	0.3977	0.143
Mof_H 	H 	0.7438	0.097	0.3462	0.123
Mof_C 	C 	0.3432	0.2988	0.07722	0.088
Mof_C 	C 	0.2847	0.2628	0.11524	-0.145
Mof_C 	C 	0.2573	0.3062	0.16685	0.072
Mof_C 	C 	0.2988	0.3829	0.17944	-0.134
Mof_C 	C 	0.3582	0.4134	0.13889	0.077
Mof_C 	C 	0.1858	0.2751	0.20426	0.034
Mof_C 	C 	0.1699	0.3035	0.264	-0.097
Mof_C 	C 	0.1008	0.2735	0.2963	0.019
Mof_C 	C 	0.0454	0.2167	0.2703	-0.094
Mof_C 	C 	0.0611	0.1868	0.2111	0.034
Mof_C 	C 	0.1301	0.2162	0.17916	-0.102
Mof_C 	C 	0.0048	0.1251	0.18113	0.095
Mof_C 	C 	0.9092	0.0746	0.11918	0.102
Mof_C 	C 	0.8386	0.0663	0.07562	0.026
Mof_C 	C 	0.8359	0.9934	0.0397	-0.08
Mof_C 	C 	0.7697	0.9802	0.0008	-0
Mof_C 	C 	0.7057	0.0392	0.9963	-0.077
Mof_C 	C 	0.7069	0.1121	0.0315	0.016
Mof_C 	C 	0.7743	0.1241	0.07221	-0.087
Mof_C 	C 	0.639	0.1782	0.02469	0.077
Mof_C 	C 	0.5919	0.1858	0.9723	-0.144
Mof_C 	C 	0.5359	0.2529	0.9662	0.087
Mof_C 	C 	0.5666	0.3011	0.06094	0.086
Mof_C 	C 	0.6237	0.2368	0.07099	-0.145
Mof_C 	C 	0.6568	0.7012	0.57722	0.088
Mof_C 	C 	0.7153	0.7372	0.61524	-0.145
Mof_C 	C 	0.7427	0.6938	0.66685	0.072
Mof_C 	C 	0.7012	0.6171	0.67944	-0.134
Mof_C 	C 	0.6418	0.5866	0.63889	0.077
Mof_C 	C 	0.8142	0.7249	0.70426	0.034
Mof_C 	C 	0.8301	0.6965	0.764	-0.097
Mof_C 	C 	0.8992	0.7265	0.7963	0.019
Mof_C 	C 	0.9546	0.7833	0.7703	-0.094
Mof_C 	C 	0.9389	0.8132	0.7111	0.035
Mof_C 	C 	0.8699	0.7838	0.67916	-0.103
Mof_C 	C 	0.9952	0.8749	0.68113	0.095
Mof_C 	C 	0.0908	0.9254	0.61918	0.1
Mof_C 	C 	0.1614	0.9337	0.57562	0.032
Mof_C 	C 	0.1641	0.0066	0.5397	-0.089
Mof_C 	C 	0.2303	0.0198	0.5008	0.015
Mof_C 	C 	0.2943	0.9608	0.4963	-0.089
Mof_C 	C 	0.2931	0.8879	0.5315	0.023
Mof_C 	C 	0.2257	0.8759	0.57221	-0.093
Mof_C 	C 	0.361	0.8218	0.52469	0.075
Mof_C 	C 	0.4081	0.8142	0.4723	-0.144
Mof_C 	C 	0.4641	0.7471	0.4662	0.085
Mof_C 	C 	0.4334	0.6989	0.56094	0.086
Mof_C 	C 	0.3763	0.7632	0.57099	-0.143
Mof_C 	C 	0.2012	0.8432	0.32722	0.088
Mof_C 	C 	0.2372	0.7847	0.36524	-0.145
Mof_C 	C 	0.1938	0.7573	0.41685	0.071
Mof_C 	C 	0.1171	0.7988	0.42944	-0.134
Mof_C 	C 	0.0866	0.8582	0.38889	0.077
Mof_C 	C 	0.2249	0.6858	0.45426	0.035
Mof_C 	C 	0.1965	0.6699	0.514	-0.099
Mof_C 	C 	0.2265	0.6008	0.5463	0.022
Mof_C 	C 	0.2833	0.5454	0.5203	-0.098
Mof_C 	C 	0.3132	0.5611	0.4611	0.036
Mof_C 	C 	0.2838	0.6301	0.42916	-0.104
Mof_C 	C 	0.3749	0.5048	0.43113	0.093
Mof_C 	C 	0.4254	0.4092	0.36918	0.1
Mof_C 	C 	0.4337	0.3386	0.32562	0.034
Mof_C 	C 	0.5066	0.3359	0.2897	-0.091
Mof_C 	C 	0.5198	0.2697	0.2508	0.014
Mof_C 	C 	0.4608	0.2057	0.2463	-0.088
Mof_C 	C 	0.3879	0.2069	0.2815	0.023
Mof_C 	C 	0.3759	0.2743	0.32221	-0.093
Mof_C 	C 	0.3218	0.139	0.27469	0.075
Mof_C 	C 	0.3142	0.0919	0.2223	-0.144
Mof_C 	C 	0.2471	0.0359	0.2162	0.084
Mof_C 	C 	0.1989	0.0666	0.31094	0.086
Mof_C 	C 	0.2632	0.1237	0.32099	-0.143
Mof_C 	C 	0.7988	0.1568	0.82722	0.087
Mof_C 	C 	0.7628	0.2153	0.86524	-0.143
Mof_C 	C 	0.8062	0.2427	0.91685	0.069
Mof_C 	C 	0.8829	0.2012	0.92944	-0.132
Mof_C 	C 	0.9134	0.1418	0.88889	0.076
Mof_C 	C 	0.7751	0.3142	0.95426	0.04
Mof_C 	C 	0.8035	0.3301	0.014	-0.105
Mof_C 	C 	0.7735	0.3992	0.0463	0.027
Mof_C 	C 	0.7167	0.4546	0.0203	-0.105
Mof_C 	C 	0.6868	0.4389	0.9611	0.041
Mof_C 	C 	0.7162	0.3699	0.92916	-0.108
Mof_C 	C 	0.6251	0.4952	0.93113	0.092
Mof_C 	C 	0.5746	0.5908	0.86918	0.1
Mof_C 	C 	0.5663	0.6614	0.82562	0.034
Mof_C 	C 	0.4934	0.6641	0.7897	-0.091
Mof_C 	C 	0.4802	0.7303	0.7508	0.015
Mof_C 	C 	0.5392	0.7943	0.7463	-0.088
Mof_C 	C 	0.6121	0.7931	0.7815	0.023
Mof_C 	C 	0.6241	0.7257	0.82221	-0.093
Mof_C 	C 	0.6782	0.861	0.77469	0.075
Mof_C 	C 	0.6858	0.9081	0.7223	-0.144
Mof_C 	C 	0.7529	0.9641	0.7162	0.085
Mof_C 	C 	0.8011	0.9334	0.81094	0.086
Mof_C 	C 	0.7368	0.8763	0.82099	-0.143
Mof_C 	C 	0.1568	0.7988	0.17278	0.088
Mof_C 	C 	0.2153	0.7628	0.13476	-0.147
Mof_C 	C 	0.2427	0.8062	0.08315	0.074
Mof_C 	C 	0.2012	0.8829	0.07056	-0.135
Mof_C 	C 	0.1418	0.9134	0.11111	0.078
Mof_C 	C 	0.3142	0.7751	0.04574	0.029
Mof_C 	C 	0.3301	0.8035	0.986	-0.091
Mof_C 	C 	0.3992	0.7735	0.9537	0.015
Mof_C 	C 	0.4546	0.7167	0.9797	-0.09
Mof_C 	C 	0.4389	0.6868	0.0389	0.03
Mof_C 	C 	0.3699	0.7162	0.07084	-0.099
Mof_C 	C 	0.4952	0.6251	0.06887	0.095
Mof_C 	C 	0.5908	0.5746	0.13082	0.1
Mof_C 	C 	0.6614	0.5663	0.17438	0.034
Mof_C 	C 	0.6641	0.4934	0.2103	-0.091
Mof_C 	C 	0.7303	0.4802	0.2492	0.014
Mof_C 	C 	0.7943	0.5392	0.2537	-0.088
Mof_C 	C 	0.7931	0.6121	0.2185	0.023
Mof_C 	C 	0.7257	0.6241	0.17779	-0.093
Mof_C 	C 	0.861	0.6782	0.22531	0.075
Mof_C 	C 	0.9081	0.6858	0.2777	-0.144
Mof_C 	C 	0.9641	0.7529	0.2838	0.084
Mof_C 	C 	0.9334	0.8011	0.18906	0.086
Mof_C 	C 	0.8763	0.7368	0.17901	-0.143
Mof_C 	C 	0.8432	0.2012	0.67278	0.087
Mof_C 	C 	0.7847	0.2372	0.63476	-0.145
Mof_C 	C 	0.7573	0.1938	0.58315	0.071
Mof_C 	C 	0.7988	0.1171	0.57056	-0.134
Mof_C 	C 	0.8582	0.0866	0.61111	0.077
Mof_C 	C 	0.6858	0.2249	0.54574	0.035
Mof_C 	C 	0.6699	0.1965	0.486	-0.099
Mof_C 	C 	0.6008	0.2265	0.4537	0.022
Mof_C 	C 	0.5454	0.2833	0.4797	-0.098
Mof_C 	C 	0.5611	0.3132	0.5389	0.036
Mof_C 	C 	0.6301	0.2838	0.57084	-0.104
Mof_C 	C 	0.5048	0.3749	0.56887	0.093
Mof_C 	C 	0.4092	0.4254	0.63082	0.1
Mof_C 	C 	0.3386	0.4337	0.67438	0.034
Mof_C 	C 	0.3359	0.5066	0.7103	-0.091
Mof_C 	C 	0.2697	0.5198	0.7492	0.015
Mof_C 	C 	0.2057	0.4608	0.7537	-0.088
Mof_C 	C 	0.2069	0.3879	0.7185	0.023
Mof_C 	C 	0.2743	0.3759	0.67779	-0.093
Mof_C 	C 	0.139	0.3218	0.72531	0.075
Mof_C 	C 	0.0919	0.3142	0.7777	-0.144
Mof_C 	C 	0.0359	0.2471	0.7838	0.085
Mof_C 	C 	0.0666	0.1989	0.68906	0.086
Mof_C 	C 	0.1237	0.2632	0.67901	-0.143
Mof_C 	C 	0.2988	0.3432	0.92278	0.088
Mof_C 	C 	0.2628	0.2847	0.88476	-0.145
Mof_C 	C 	0.3062	0.2573	0.83315	0.072
Mof_C 	C 	0.3829	0.2988	0.82056	-0.134
Mof_C 	C 	0.4134	0.3582	0.86111	0.077
Mof_C 	C 	0.2751	0.1858	0.79574	0.034
Mof_C 	C 	0.3035	0.1699	0.736	-0.098
Mof_C 	C 	0.2735	0.1008	0.7037	0.02
Mof_C 	C 	0.2167	0.0454	0.7297	-0.095
Mof_C 	C 	0.1868	0.0611	0.7889	0.035
Mof_C 	C 	0.2162	0.1301	0.82084	-0.103
Mof_C 	C 	0.1251	0.0048	0.81887	0.095
Mof_C 	C 	0.0746	0.9092	0.88082	0.098
Mof_C 	C 	0.0663	0.8386	0.92438	0.04
Mof_C 	C 	0.9934	0.8359	0.9603	-0.101
Mof_C 	C 	0.9802	0.7697	0.9992	0.033
Mof_C 	C 	0.0392	0.7057	0.0037	-0.106
Mof_C 	C 	0.1121	0.7069	0.9685	0.033
Mof_C 	C 	0.1241	0.7743	0.92779	-0.1
Mof_C 	C 	0.1782	0.639	0.97531	0.074
Mof_C 	C 	0.1858	0.5919	0.0277	-0.144
Mof_C 	C 	0.2529	0.5359	0.0338	0.082
Mof_C 	C 	0.3011	0.5666	0.93906	0.085
Mof_C 	C 	0.2368	0.6237	0.92901	-0.142
Mof_C 	C 	0.7012	0.6568	0.42278	0.088
Mof_C 	C 	0.7372	0.7153	0.38476	-0.145
Mof_C 	C 	0.6938	0.7427	0.33315	0.072
Mof_C 	C 	0.6171	0.7012	0.32056	-0.134
Mof_C 	C 	0.5866	0.6418	0.36111	0.077
Mof_C 	C 	0.7249	0.8142	0.29574	0.034
Mof_C 	C 	0.6965	0.8301	0.236	-0.097
Mof_C 	C 	0.7265	0.8992	0.2037	0.019
Mof_C 	C 	0.7833	0.9546	0.2297	-0.094
Mof_C 	C 	0.8132	0.9389	0.2889	0.034
Mof_C 	C 	0.7838	0.8699	0.32084	-0.103
Mof_C 	C 	0.8749	0.9952	0.31887	0.095
Mof_C 	C 	0.9254	0.0908	0.38082	0.1
Mof_C 	C 	0.9337	0.1614	0.42438	0.032
Mof_C 	C 	0.0066	0.1641	0.4603	-0.089
Mof_C 	C 	0.0198	0.2303	0.4992	0.015
Mof_C 	C 	0.9608	0.2943	0.5037	-0.09
Mof_C 	C 	0.8879	0.2931	0.4685	0.023
Mof_C 	C 	0.8759	0.2257	0.42779	-0.093
Mof_C 	C 	0.8218	0.361	0.47531	0.075
Mof_C 	C 	0.8142	0.4081	0.5277	-0.144
Mof_C 	C 	0.7471	0.4641	0.5338	0.085
Mof_C 	C 	0.6989	0.4334	0.43906	0.086
Mof_C 	C 	0.7632	0.3763	0.42901	-0.143
Mof_N 	N 	0.9466	0.01069	0.14539	-0.101
Mof_N 	N 	0.00744	0.04292	0.18434	-0.112
Mof_N 	N 	0.9438	0.14748	0.14005	-0.108
Mof_N 	N 	0.9241	0.2302	0.12014	-0.228
Mof_N 	N 	0.5232	0.311	0.00935	-0.154
Mof_N 	N 	0.3791	0.3742	0.08663	-0.154
Mof_N 	N 	0.0534	0.98931	0.64539	-0.1
Mof_N 	N 	0.99256	0.95708	0.68434	-0.112
Mof_N 	N 	0.0562	0.85252	0.64005	-0.107
Mof_N 	N 	0.0759	0.7698	0.62014	-0.228
Mof_N 	N 	0.4768	0.689	0.50935	-0.153
Mof_N 	N 	0.6209	0.6258	0.58663	-0.154
Mof_N 	N 	0.48931	0.4466	0.39539	-0.099
Mof_N 	N 	0.45708	0.50744	0.43434	-0.113
Mof_N 	N 	0.35252	0.4438	0.39005	-0.106
Mof_N 	N 	0.2698	0.4241	0.37014	-0.228
Mof_N 	N 	0.189	0.0232	0.25935	-0.152
Mof_N 	N 	0.1258	0.8791	0.33663	-0.154
Mof_N 	N 	0.51069	0.5534	0.89539	-0.099
Mof_N 	N 	0.54292	0.49256	0.93434	-0.112
Mof_N 	N 	0.64748	0.5562	0.89005	-0.106
Mof_N 	N 	0.7302	0.5759	0.87014	-0.228
Mof_N 	N 	0.811	0.9768	0.75935	-0.152
Mof_N 	N 	0.8742	0.1209	0.83663	-0.154
Mof_N 	N 	0.5534	0.51069	0.10461	-0.099
Mof_N 	N 	0.49256	0.54292	0.06566	-0.114
Mof_N 	N 	0.5562	0.64748	0.10995	-0.107
Mof_N 	N 	0.5759	0.7302	0.12986	-0.228
Mof_N 	N 	0.9768	0.811	0.24065	-0.152
Mof_N 	N 	0.1209	0.8742	0.16337	-0.154
Mof_N 	N 	0.4466	0.48931	0.60461	-0.099
Mof_N 	N 	0.50744	0.45708	0.56566	-0.113
Mof_N 	N 	0.4438	0.35252	0.60995	-0.106
Mof_N 	N 	0.4241	0.2698	0.62986	-0.228
Mof_N 	N 	0.0232	0.189	0.74065	-0.152
Mof_N 	N 	0.8791	0.1258	0.66337	-0.154
Mof_N 	N 	0.01069	0.9466	0.85461	-0.1
Mof_N 	N 	0.04292	0.00744	0.81566	-0.112
Mof_N 	N 	0.14748	0.9438	0.85995	-0.107
Mof_N 	N 	0.2302	0.9241	0.87986	-0.228
Mof_N 	N 	0.311	0.5232	0.99065	-0.151
Mof_N 	N 	0.3742	0.3791	0.91337	-0.154
Mof_N 	N 	0.98931	0.0534	0.35461	-0.1
Mof_N 	N 	0.95708	0.99256	0.31566	-0.112
Mof_N 	N 	0.85252	0.0562	0.35995	-0.107
Mof_N 	N 	0.7698	0.0759	0.37986	-0.228
Mof_N 	N 	0.689	0.4768	0.49065	-0.153
Mof_N 	N 	0.6258	0.6209	0.41337	-0.154
Mof_Cl	Cl	0.12713	0.12713	-0	-0.234
Mof_O 	O 	0.1179	0.0841	0.9465	-0.029
Mof_O 	O 	0.1058	0.2135	0.01	-0.048
Mof_O 	O 	0.0841	0.1179	0.0535	-0.03
Mof_O 	O 	0.2135	0.1058	0.99	-0.046
Mof_Cl	Cl	0.87287	0.87287	0.5	-0.231
Mof_O 	O 	0.8821	0.9159	0.4465	-0.03
Mof_O 	O 	0.8942	0.7865	0.51	-0.048
Mof_O 	O 	0.9159	0.8821	0.5535	-0.03
Mof_O 	O 	0.7865	0.8942	0.49	-0.047
Mof_Cl	Cl	0.37287	0.62713	0.25	-0.231
Mof_O 	O 	0.4159	0.6179	0.1965	-0.031
Mof_O 	O 	0.2865	0.6058	0.26	-0.048
Mof_O 	O 	0.3821	0.5841	0.3035	-0.031
Mof_O 	O 	0.3942	0.7135	0.24	-0.048
Mof_Cl	Cl	0.62713	0.37287	0.75	-0.231
Mof_O 	O 	0.5841	0.3821	0.6965	-0.031
Mof_O 	O 	0.7135	0.3942	0.76	-0.048
Mof_O 	O 	0.6179	0.4159	0.8035	-0.031
Mof_O 	O 	0.6058	0.2865	0.74	-0.048
_end
