data_functionalizedCrystal
_audit_creation_method	'EQeq! by Chris Wilmer'
_symmetry_space_group_name_H-M	'P1'
_symmetry_Int_Tables_number	1
_symmetry_cell_setting	triclinic
loop_
_symmetry_equiv_pos_as_xyz
  x,y,z
_cell_length_a	13.2041
_cell_length_b	13.7867
_cell_length_c	15.3818
_cell_angle_alpha	93.625
_cell_angle_beta	101.696
_cell_angle_gamma	95.857
loop_
_atom_site_label
_atom_site_type_symbol
_atom_site_fract_x
_atom_site_fract_y
_atom_site_fract_z
_atom_site_charge
Mof_Cd	Cd	0.63238	0.32349	0.33622	0.42
Mof_Cd	Cd	0.12475	0.32025	0.29456	0.424
Mof_P 	P 	0.38015	0.25389	0.37623	0.407
Mof_P 	P 	0.15097	0.21757	0.09026	0.292
Mof_P 	P 	0.5911	0.08703	0.22426	0.448
Mof_P 	P 	0.86328	0.35453	0.26057	0.459
Mof_C 	C 	0.3559	0.1489	0.4344	-0.085
Mof_H 	H 	0.3001	0.1476	0.4629	0.063
Mof_C 	C 	0.4076	0.0757	0.4407	-0.152
Mof_H 	H 	0.4641	0.0737	0.4134	0.084
Mof_H 	H 	0.3888	0.0242	0.4727	0.073
Mof_C 	C 	0.1468	0.3182	0.0227	0.612
Mof_C 	C 	0.0686	0.3711	0.0139	-0.737
Mof_H 	H 	0.0497	0.4024	0.9623	0.276
Mof_H 	H 	0.0321	0.3773	0.0594	0.272
Mof_C 	C 	0.6232	0.0022	0.3041	-0.115
Mof_H 	H 	0.5743	0.9481	0.3019	0.087
Mof_C 	C 	0.7031	0.0068	0.3624	-0.171
Mof_H 	H 	0.7546	0.0594	0.3677	0.097
Mof_H 	H 	0.7118	0.9577	0.4011	0.095
Mof_C 	C 	0.833	0.4341	0.1742	-0.091
Mof_H 	H 	0.8356	0.5009	0.1888	0.059
Mof_C 	C 	0.806	0.398	0.0877	-0.043
Mof_H 	H 	0.8035	0.3315	0.0726	0.035
Mof_H 	H 	0.7906	0.4404	0.0432	-0.015
Mof_C 	C 	0.6044	0.487	0.1953	0.024
Mof_H 	H 	0.6481	0.5235	0.244	0.025
Mof_C 	C 	0.5794	0.5314	0.1172	-0.04
Mof_C 	C 	0.5137	0.4777	0.0428	0.006
Mof_C 	C 	0.4784	0.383	0.0549	-0.094
Mof_H 	H 	0.4342	0.3445	0.0077	0.059
Mof_C 	C 	0.5066	0.3444	0.1343	0.053
Mof_H 	H 	0.4809	0.2801	0.1393	0.037
Mof_C 	C 	0.0936	0.2018	0.4622	0.063
Mof_H 	H 	0.1266	0.2613	0.4913	0.01
Mof_C 	C 	0.0685	0.1285	0.5128	-0.113
Mof_H 	H 	0.0871	0.1385	0.5746	0.059
Mof_C 	C 	0.0159	0.04	0.4732	0.006
Mof_C 	C 	0.9961	0.0299	0.382	-0.113
Mof_H 	H 	0.9628	0.9712	0.3515	0.081
Mof_C 	C 	0.0252	0.1062	0.3349	0.063
Mof_H 	H 	0.0106	0.0969	0.2731	0.026
Mof_C 	C 	0.3195	0.8399	0.0347	0.039
Mof_H 	H 	0.2788	0.8728	0.9923	0.047
Mof_C 	C 	0.2714	0.764	0.071	-0.11
Mof_H 	H 	0.1998	0.7474	0.0534	0.064
Mof_C 	C 	0.3286	0.7129	0.1329	0.041
Mof_C 	C 	0.4349	0.7438	0.1582	-0.126
Mof_H 	H 	0.477	0.713	0.2014	0.071
Mof_C 	C 	0.4771	0.8202	0.1188	0.073
Mof_H 	H 	0.5483	0.8394	0.136	0.012
Mof_C 	C 	0.2811	0.6268	0.1717	0.07
Mof_C 	C 	0.176	0.6082	0.1656	-0.149
Mof_H 	H 	0.1316	0.6504	0.1379	0.074
Mof_C 	C 	0.1361	0.5267	0.2008	0.082
Mof_H 	H 	0.0647	0.5167	0.1977	-0.003
Mof_C 	C 	0.2949	0.4798	0.2443	0.086
Mof_H 	H 	0.3373	0.435	0.2703	0.018
Mof_C 	C 	0.3418	0.5617	0.2137	-0.142
Mof_H 	H 	0.4139	0.5723	0.2215	0.083
Mof_C 	C 	0.0284	0.8668	0.1659	0.058
Mof_H 	H 	0.9595	0.8465	0.1381	0.025
Mof_C 	C 	0.0702	0.8248	0.2414	-0.13
Mof_H 	H 	0.03	0.777	0.2636	0.068
Mof_C 	C 	0.1735	0.854	0.2848	0.06
Mof_C 	C 	0.2293	0.9239	0.2478	-0.149
Mof_H 	H 	0.2987	0.9447	0.2735	0.101
Mof_C 	C 	0.1804	0.9628	0.1716	0.123
Mof_H 	H 	0.2189	0.0108	0.148	0.004
Mof_C 	C 	0.2188	0.8115	0.3681	0.066
Mof_C 	C 	0.1612	0.7922	0.4303	-0.14
Mof_H 	H 	0.0915	0.8029	0.4189	0.08
Mof_C 	C 	0.2034	0.7575	0.509	0.085
Mof_H 	H 	0.1631	0.7511	0.5518	0.019
Mof_C 	C 	0.3548	0.7489	0.466	0.084
Mof_H 	H 	0.4229	0.7333	0.4771	0.017
Mof_C 	C 	0.3185	0.7876	0.3872	-0.14
Mof_H 	H 	0.3616	0.7976	0.3469	0.083
Mof_N 	N 	0.5697	0.3948	0.2054	-0.137
Mof_N 	N 	0.0732	0.1923	0.3737	-0.142
Mof_N 	N 	0.4214	0.8685	0.0573	-0.139
Mof_N 	N 	0.1946	0.4619	0.2388	-0.158
Mof_N 	N 	0.0825	0.9359	0.1305	-0.15
Mof_N 	N 	0.2995	0.7325	0.5272	-0.153
Mof_O 	O 	0.283	0.2589	0.3053	-0.294
Mof_O 	O 	0.4048	0.342	0.4438	-0.236
Mof_O 	O 	0.4717	0.237	0.3329	-0.296
Mof_O 	O 	0.0832	0.2297	0.1569	-0.261
Mof_O 	O 	0.2678	0.2216	0.1391	-0.429
Mof_H 	H 	0.2729	0.2336	0.1928	0.291
Mof_O 	O 	0.1249	0.127	0.0279	-0.262
Mof_O 	O 	0.4735	0.0997	0.2183	-0.457
Mof_H 	H 	0.4685	0.1441	0.2548	0.301
Mof_O 	O 	0.6577	0.1826	0.256	-0.301
Mof_O 	O 	0.603	0.041	0.1366	-0.279
Mof_O 	O 	0.7966	0.3824	0.3242	-0.281
Mof_O 	O 	0.9768	0.3848	0.2915	-0.272
Mof_O 	O 	0.8468	0.2416	0.237	-0.447
Mof_H 	H 	0.7882	0.2199	0.2418	0.292
Mof_C 	C 	0.1735	0.3257	0.9573	-0.9
Mof_H 	H 	0.1395	0.3632	0.9149	0.331
Mof_H 	H 	0.2293	0.2944	0.9463	0.338
Mof_C 	C 	0.8058	0.3685	0.1486	-0.059
Mof_H 	H 	0.7638	0.317	0.1127	0.054
Mof_C 	C 	0.824	0.4566	0.116	-0.017
Mof_H 	H 	0.8667	0.5075	0.1531	-0.004
Mof_H 	H 	0.7952	0.4659	0.0578	0.054
Mof_Cd	Cd	0.36762	0.67651	0.66378	0.421
Mof_Cd	Cd	0.87525	0.67975	0.70544	0.431
Mof_P 	P 	0.61985	0.74611	0.62377	0.406
Mof_P 	P 	0.84903	0.78243	0.90974	0.256
Mof_P 	P 	0.4089	0.91297	0.77574	0.453
Mof_P 	P 	0.13672	0.64547	0.73943	0.46
Mof_C 	C 	0.6441	0.8511	0.5656	-0.069
Mof_H 	H 	0.6999	0.8524	0.5371	0.061
Mof_C 	C 	0.5924	0.9243	0.5593	-0.167
Mof_H 	H 	0.5359	0.9263	0.5866	0.098
Mof_H 	H 	0.6112	0.9758	0.5273	0.092
Mof_C 	C 	0.8532	0.6818	0.9773	0.8
Mof_C 	C 	0.9314	0.6289	0.9861	-0.779
Mof_H 	H 	0.9503	0.5976	0.0377	0.274
Mof_H 	H 	0.9679	0.6227	0.9406	0.293
Mof_C 	C 	0.3768	0.9978	0.6959	-0.115
Mof_H 	H 	0.4257	0.0519	0.6981	0.064
Mof_C 	C 	0.2969	0.9932	0.6376	-0.055
Mof_H 	H 	0.2454	0.9406	0.6323	0.063
Mof_H 	H 	0.2882	0.0423	0.5989	0.034
Mof_C 	C 	0.167	0.5659	0.8258	-0.109
Mof_H 	H 	0.1644	0.4991	0.8112	0.065
Mof_C 	C 	0.194	0.602	0.9123	-0.043
Mof_H 	H 	0.1965	0.6685	0.9274	0.042
Mof_H 	H 	0.2094	0.5596	0.9568	-0.025
Mof_C 	C 	0.3956	0.513	0.8047	0.029
Mof_H 	H 	0.3519	0.4765	0.756	0.024
Mof_C 	C 	0.4206	0.4686	0.8828	-0.046
Mof_C 	C 	0.4863	0.5223	0.9572	0.055
Mof_C 	C 	0.5216	0.617	0.9451	-0.12
Mof_H 	H 	0.5658	0.6555	0.9923	0.08
Mof_C 	C 	0.4934	0.6556	0.8657	0.069
Mof_H 	H 	0.5191	0.7199	0.8607	0.034
Mof_C 	C 	0.9064	0.7982	0.5378	0.091
Mof_H 	H 	0.8734	0.7387	0.5087	0.003
Mof_C 	C 	0.9315	0.8715	0.4872	-0.158
Mof_H 	H 	0.9129	0.8615	0.4254	0.082
Mof_C 	C 	0.9841	0.96	0.5268	0.09
Mof_C 	C 	0.0039	0.9701	0.618	-0.12
Mof_H 	H 	0.0372	0.0288	0.6485	0.057
Mof_C 	C 	0.9748	0.8938	0.6651	0.085
Mof_H 	H 	0.9894	0.9031	0.7269	0.033
Mof_C 	C 	0.6805	0.1601	0.9653	0.126
Mof_H 	H 	0.7212	0.1272	0.0077	-0.011
Mof_C 	C 	0.7286	0.236	0.929	-0.162
Mof_H 	H 	0.8002	0.2526	0.9466	0.094
Mof_C 	C 	0.6714	0.2871	0.8671	0.073
Mof_C 	C 	0.5651	0.2562	0.8418	-0.147
Mof_H 	H 	0.523	0.287	0.7986	0.079
Mof_C 	C 	0.5229	0.1798	0.8812	0.089
Mof_H 	H 	0.4517	0.1606	0.864	0.005
Mof_C 	C 	0.7189	0.3732	0.8283	0.058
Mof_C 	C 	0.824	0.3918	0.8344	-0.137
Mof_H 	H 	0.8684	0.3496	0.8621	0.076
Mof_C 	C 	0.8639	0.4733	0.7992	0.077
Mof_H 	H 	0.9353	0.4833	0.8023	0.004
Mof_C 	C 	0.7051	0.5202	0.7557	0.081
Mof_H 	H 	0.6627	0.565	0.7297	0.02
Mof_C 	C 	0.6582	0.4383	0.7863	-0.131
Mof_H 	H 	0.5861	0.4277	0.7785	0.08
Mof_C 	C 	0.9716	0.1332	0.8341	0.08
Mof_H 	H 	0.0405	0.1535	0.8619	0.01
Mof_C 	C 	0.9298	0.1752	0.7586	-0.129
Mof_H 	H 	0.97	0.223	0.7364	0.073
Mof_C 	C 	0.8265	0.146	0.7152	0.039
Mof_C 	C 	0.7707	0.0761	0.7522	-0.103
Mof_H 	H 	0.7013	0.0553	0.7265	0.073
Mof_C 	C 	0.8196	0.0372	0.8284	0.033
Mof_H 	H 	0.7811	0.9892	0.852	0.063
Mof_C 	C 	0.7812	0.1885	0.6319	0.073
Mof_C 	C 	0.8388	0.2078	0.5697	-0.149
Mof_H 	H 	0.9085	0.1971	0.5811	0.085
Mof_C 	C 	0.7966	0.2425	0.491	0.088
Mof_H 	H 	0.8369	0.2489	0.4482	0.019
Mof_C 	C 	0.6452	0.2511	0.534	0.086
Mof_H 	H 	0.5771	0.2667	0.5229	0.016
Mof_C 	C 	0.6815	0.2124	0.6128	-0.148
Mof_H 	H 	0.6384	0.2024	0.6531	0.083
Mof_N 	N 	0.4303	0.6052	0.7946	-0.141
Mof_N 	N 	0.9268	0.8077	0.6263	-0.148
Mof_N 	N 	0.5786	0.1315	0.9427	-0.156
Mof_N 	N 	0.8054	0.5381	0.7612	-0.156
Mof_N 	N 	0.9175	0.0641	0.8695	-0.139
Mof_N 	N 	0.7005	0.2675	0.4728	-0.154
Mof_O 	O 	0.717	0.7411	0.6947	-0.292
Mof_O 	O 	0.5952	0.658	0.5562	-0.236
Mof_O 	O 	0.5283	0.763	0.6671	-0.294
Mof_O 	O 	0.9168	0.7703	0.8431	-0.249
Mof_O 	O 	0.7322	0.7784	0.8609	-0.419
Mof_H 	H 	0.7271	0.7664	0.8072	0.288
Mof_O 	O 	0.8751	0.873	0.9721	-0.23
Mof_O 	O 	0.5265	0.9003	0.7817	-0.445
Mof_H 	H 	0.5315	0.8559	0.7452	0.299
Mof_O 	O 	0.3423	0.8174	0.744	-0.3
Mof_O 	O 	0.397	0.959	0.8634	-0.258
Mof_O 	O 	0.2034	0.6176	0.6758	-0.282
Mof_O 	O 	0.0232	0.6152	0.7085	-0.281
Mof_O 	O 	0.1532	0.7584	0.763	-0.45
Mof_H 	H 	0.2118	0.7801	0.7582	0.294
Mof_C 	C 	0.8265	0.6743	0.0427	-1.193
Mof_H 	H 	0.8605	0.6368	0.0851	0.429
Mof_H 	H 	0.7707	0.7056	0.0537	0.426
Mof_C 	C 	0.1942	0.6315	0.8514	-0.043
Mof_H 	H 	0.2362	0.683	0.8873	0.051
Mof_C 	C 	0.176	0.5434	0.884	-0.017
Mof_H 	H 	0.1333	0.4925	0.8469	-0.002
Mof_H 	H 	0.2048	0.5341	0.9422	0.072
Mof_Cd	Cd	0.5	0	-0	0.385
Mof_Cd	Cd	-0	0	-0	0.359
_end
