data_functionalizedCrystal
_audit_creation_method	'EQeq! by Chris Wilmer'
_symmetry_space_group_name_H-M	'P1'
_symmetry_Int_Tables_number	1
_symmetry_cell_setting	triclinic
loop_
_symmetry_equiv_pos_as_xyz
  x,y,z
_cell_length_a	15.8206
_cell_length_b	9.0295
_cell_length_c	18.3005
_cell_angle_alpha	90
_cell_angle_beta	90
_cell_angle_gamma	90
loop_
_atom_site_label
_atom_site_type_symbol
_atom_site_fract_x
_atom_site_fract_y
_atom_site_fract_z
_atom_site_charge
Mof_V 	V 	0.20914	0.24857	0.16342	1.729
Mof_V 	V 	0.78752	0.24621	0.08746	1.732
Mof_P 	P 	0.25759	0.5075	0.03592	0.554
Mof_P 	P 	0.24452	0.0039	0.28658	0.565
Mof_P 	P 	0.0038	0.3408	0.10802	0.56
Mof_O 	O 	0.3051	0.1036	0.3296	-0.515
Mof_O 	O 	0.1827	0.096	0.2399	-0.507
Mof_O 	O 	0.2012	0.406	0.0828	-0.513
Mof_O 	O 	0.1969	0.6055	0.9923	-0.529
Mof_O 	O 	0.0657	0.2758	0.1614	-0.369
Mof_O 	O 	0.9309	0.2405	0.0886	-0.366
Mof_O 	O 	0.1902	0.9125	0.3395	-0.526
Mof_O 	O 	0.3171	0.5977	0.0849	-0.49
Mof_O 	O 	0.3137	0.414	0.9846	-0.5
Mof_O 	O 	0.3002	0.905	0.2401	-0.518
Mof_O 	O 	0.9685	0.4915	0.14	-0.346
Mof_H 	H 	0.9091	0.486	0.15	0.205
Mof_O 	O 	0.0507	0.3853	0.0361	-0.356
Mof_H 	H 	0.092	0.462	0.029	0.214
Mof_Nb	Nb	0.29086	0.74857	0.16342	1.648
Mof_V 	V 	0.29086	0.75143	0.66342	1.731
Mof_V 	V 	0.71248	0.75379	0.58746	1.732
Mof_P 	P 	0.24241	0.4925	0.53592	0.556
Mof_P 	P 	0.25548	0.9961	0.78658	0.567
Mof_P 	P 	0.4962	0.6592	0.60802	0.566
Mof_O 	O 	0.1949	0.8964	0.8296	-0.514
Mof_O 	O 	0.3173	0.904	0.7399	-0.506
Mof_O 	O 	0.2988	0.594	0.5828	-0.512
Mof_O 	O 	0.3031	0.3945	0.4923	-0.531
Mof_O 	O 	0.4343	0.7242	0.6614	-0.368
Mof_O 	O 	0.5691	0.7595	0.5886	-0.369
Mof_O 	O 	0.3098	0.0875	0.8395	-0.527
Mof_O 	O 	0.1829	0.4023	0.5849	-0.49
Mof_O 	O 	0.1863	0.586	0.4846	-0.502
Mof_O 	O 	0.1998	0.095	0.7401	-0.52
Mof_O 	O 	0.5315	0.5085	0.64	-0.349
Mof_H 	H 	0.5909	0.514	0.65	0.206
Mof_O 	O 	0.4493	0.6147	0.5361	-0.355
Mof_H 	H 	0.408	0.538	0.529	0.215
Mof_Nb	Nb	0.20914	0.25143	0.66342	1.649
Mof_V 	V 	0.79086	0.74857	0.33658	1.731
Mof_V 	V 	0.21248	0.74621	0.41254	1.732
Mof_P 	P 	0.74241	0.0075	0.46408	0.557
Mof_P 	P 	0.75548	0.5039	0.21342	0.569
Mof_P 	P 	0.9962	0.8408	0.39198	0.564
Mof_O 	O 	0.6949	0.6036	0.1704	-0.515
Mof_O 	O 	0.8173	0.596	0.2601	-0.506
Mof_O 	O 	0.7988	0.906	0.4172	-0.513
Mof_O 	O 	0.8031	0.1055	0.5077	-0.53
Mof_O 	O 	0.9343	0.7758	0.3386	-0.368
Mof_O 	O 	0.0691	0.7405	0.4114	-0.369
Mof_O 	O 	0.8098	0.4125	0.1605	-0.528
Mof_O 	O 	0.6829	0.0977	0.4151	-0.49
Mof_O 	O 	0.6863	0.914	0.5154	-0.502
Mof_O 	O 	0.6998	0.405	0.2599	-0.521
Mof_O 	O 	0.0315	0.9915	0.36	-0.348
Mof_H 	H 	0.0909	0.986	0.35	0.206
Mof_O 	O 	0.9493	0.8853	0.4639	-0.355
Mof_H 	H 	0.908	0.962	0.471	0.214
Mof_Nb	Nb	0.70914	0.24857	0.33658	1.649
Mof_V 	V 	0.70914	0.25143	0.83658	1.731
Mof_V 	V 	0.28752	0.25379	0.91254	1.732
Mof_P 	P 	0.75759	0.9925	0.96408	0.547
Mof_P 	P 	0.74452	0.4961	0.71342	0.569
Mof_P 	P 	0.5038	0.1592	0.89198	0.566
Mof_O 	O 	0.8051	0.3964	0.6704	-0.515
Mof_O 	O 	0.6827	0.404	0.7601	-0.506
Mof_O 	O 	0.7012	0.094	0.9172	-0.509
Mof_O 	O 	0.6969	0.8945	0.0077	-0.527
Mof_O 	O 	0.5657	0.2242	0.8386	-0.368
Mof_O 	O 	0.4309	0.2595	0.9114	-0.37
Mof_O 	O 	0.6902	0.5875	0.6605	-0.529
Mof_O 	O 	0.8171	0.9023	0.9151	-0.49
Mof_O 	O 	0.8137	0.086	0.0154	-0.499
Mof_O 	O 	0.8002	0.595	0.7599	-0.52
Mof_O 	O 	0.4685	0.0085	0.86	-0.348
Mof_H 	H 	0.4091	0.014	0.85	0.206
Mof_O 	O 	0.5507	0.1147	0.9639	-0.355
Mof_H 	H 	0.592	0.038	0.971	0.215
Mof_Nb	Nb	0.79086	0.75143	0.83658	1.646
Mof_V 	V 	0.21248	0.75379	0.91254	1.732
Mof_P 	P 	0.74241	0.4925	0.96408	0.551
Mof_P 	P 	0.75548	0.9961	0.71342	0.565
Mof_P 	P 	0.9962	0.6592	0.89198	0.573
Mof_O 	O 	0.6949	0.8964	0.6704	-0.508
Mof_O 	O 	0.8173	0.904	0.7601	-0.503
Mof_O 	O 	0.7988	0.594	0.9172	-0.508
Mof_O 	O 	0.8031	0.3945	0.0077	-0.535
Mof_O 	O 	0.9343	0.7242	0.8386	-0.352
Mof_O 	O 	0.0691	0.7595	0.9114	-0.371
Mof_O 	O 	0.8098	0.0875	0.6605	-0.531
Mof_O 	O 	0.6829	0.4023	0.9151	-0.493
Mof_O 	O 	0.6863	0.586	0.0154	-0.496
Mof_O 	O 	0.6998	0.095	0.7599	-0.52
Mof_O 	O 	0.0315	0.5085	0.86	-0.349
Mof_H 	H 	0.0909	0.514	0.85	0.206
Mof_O 	O 	0.9493	0.6147	0.9639	-0.352
Mof_H 	H 	0.908	0.538	0.971	0.214
Mof_V 	V 	0.28752	0.24621	0.41254	1.732
Mof_P 	P 	0.75759	0.5075	0.46408	0.554
Mof_P 	P 	0.74452	0.0039	0.21342	0.567
Mof_P 	P 	0.5038	0.3408	0.39198	0.578
Mof_O 	O 	0.8051	0.1036	0.1704	-0.508
Mof_O 	O 	0.6827	0.096	0.2601	-0.503
Mof_O 	O 	0.7012	0.406	0.4172	-0.508
Mof_O 	O 	0.6969	0.6055	0.5077	-0.537
Mof_O 	O 	0.5657	0.2758	0.3386	-0.352
Mof_O 	O 	0.4309	0.2405	0.4114	-0.374
Mof_O 	O 	0.6902	0.9125	0.1605	-0.532
Mof_O 	O 	0.8171	0.5977	0.4151	-0.493
Mof_O 	O 	0.8137	0.414	0.5154	-0.497
Mof_O 	O 	0.8002	0.905	0.2599	-0.521
Mof_O 	O 	0.4685	0.4915	0.36	-0.353
Mof_H 	H 	0.4091	0.486	0.35	0.207
Mof_O 	O 	0.5507	0.3853	0.4639	-0.351
Mof_H 	H 	0.592	0.462	0.471	0.215
Mof_V 	V 	0.78752	0.25379	0.58746	1.732
Mof_P 	P 	0.25759	0.9925	0.53592	0.555
Mof_P 	P 	0.24452	0.4961	0.78658	0.569
Mof_P 	P 	0.0038	0.1592	0.60802	0.577
Mof_O 	O 	0.3051	0.3964	0.8296	-0.508
Mof_O 	O 	0.1827	0.404	0.7399	-0.502
Mof_O 	O 	0.2012	0.094	0.5828	-0.508
Mof_O 	O 	0.1969	0.8945	0.4923	-0.536
Mof_O 	O 	0.0657	0.2242	0.6614	-0.351
Mof_O 	O 	0.9309	0.2595	0.5886	-0.373
Mof_O 	O 	0.1902	0.5875	0.8395	-0.533
Mof_O 	O 	0.3171	0.9023	0.5849	-0.493
Mof_O 	O 	0.3137	0.086	0.4846	-0.498
Mof_O 	O 	0.3002	0.595	0.7401	-0.523
Mof_O 	O 	0.9685	0.0085	0.64	-0.351
Mof_H 	H 	0.9091	0.014	0.65	0.207
Mof_O 	O 	0.0507	0.1147	0.5361	-0.352
Mof_H 	H 	0.092	0.038	0.529	0.214
Mof_V 	V 	0.71248	0.74621	0.08746	1.732
Mof_P 	P 	0.24241	0.0075	0.03592	0.544
Mof_P 	P 	0.25548	0.5039	0.28658	0.569
Mof_P 	P 	0.4962	0.8408	0.10802	0.578
Mof_O 	O 	0.1949	0.6036	0.3296	-0.508
Mof_O 	O 	0.3173	0.596	0.2399	-0.502
Mof_O 	O 	0.2988	0.906	0.0828	-0.504
Mof_O 	O 	0.3031	0.1055	0.9923	-0.533
Mof_O 	O 	0.4343	0.7758	0.1614	-0.352
Mof_O 	O 	0.5691	0.7405	0.0886	-0.374
Mof_O 	O 	0.3098	0.4125	0.3395	-0.534
Mof_O 	O 	0.1829	0.0977	0.0849	-0.494
Mof_O 	O 	0.1863	0.914	0.9846	-0.495
Mof_O 	O 	0.1998	0.405	0.2401	-0.523
Mof_O 	O 	0.5315	0.9915	0.14	-0.352
Mof_H 	H 	0.5909	0.986	0.15	0.207
Mof_O 	O 	0.4493	0.8853	0.0361	-0.351
Mof_H 	H 	0.408	0.962	0.029	0.215
_end
