data_functionalizedCrystal
_audit_creation_method	'EQeq! by Chris Wilmer'
_symmetry_space_group_name_H-M	'P1'
_symmetry_Int_Tables_number	1
_symmetry_cell_setting	triclinic
loop_
_symmetry_equiv_pos_as_xyz
  x,y,z
_cell_length_a	18.1626
_cell_length_b	18.1626
_cell_length_c	30.8536
_cell_angle_alpha	103.351
_cell_angle_beta	103.351
_cell_angle_gamma	102.442
loop_
_atom_site_label
_atom_site_type_symbol
_atom_site_fract_x
_atom_site_fract_y
_atom_site_fract_z
_atom_site_charge
Mof_Cu	Cu	0.04855	0.48539	0.53394	0.907
Mof_Cu	Cu	0.48539	0.04855	0.53394	0.907
Mof_Cu	Cu	0.51461	0.95145	0.46606	0.907
Mof_Cu	Cu	0.95145	0.51461	0.46606	0.907
Mof_Cu	Cu	0.52869	0.52869	0.46944	0.909
Mof_Cu	Cu	0.94075	0.94075	0.46944	0.909
Mof_Cu	Cu	0.47131	0.47131	0.53056	0.909
Mof_Cu	Cu	0.05925	0.05925	0.53056	0.909
Mof_H 	H 	0.7584	0.5076	0.52	0.055
Mof_H 	H 	0.912	0.4892	0.629	0.076
Mof_H 	H 	0.689	0.4966	0.6312	0.072
Mof_H 	H 	0.025	0.5082	0.7566	0.054
Mof_H 	H 	0.0599	0.5141	0.836	0.081
Mof_H 	H 	0.8425	0.5187	0.8414	0.07
Mof_H 	H 	0.8018	0.5062	0.7604	0.062
Mof_H 	H 	0.9086	0.5734	0.9208	0.042
Mof_H 	H 	0.8715	0.4791	0.8966	0.055
Mof_H 	H 	0.7616	0.0124	0.52	0.056
Mof_H 	H 	0.717	0.1398	0.629	0.077
Mof_H 	H 	0.9422	0.1346	0.6312	0.072
Mof_H 	H 	0.7316	0.2484	0.7566	0.055
Mof_H 	H 	0.7761	0.3219	0.836	0.081
Mof_H 	H 	0.9989	0.3227	0.8414	0.07
Mof_H 	H 	0.9586	0.2542	0.7604	0.062
Mof_H 	H 	0.0122	0.3474	0.9208	0.041
Mof_H 	H 	0.0251	0.4175	0.8966	0.054
Mof_H 	H 	0.4924	0.2416	0.48	0.056
Mof_H 	H 	0.5108	0.088	0.371	0.077
Mof_H 	H 	0.5034	0.311	0.3688	0.072
Mof_H 	H 	0.4918	0.975	0.2434	0.055
Mof_H 	H 	0.4859	0.9401	0.164	0.081
Mof_H 	H 	0.4813	0.1575	0.1586	0.07
Mof_H 	H 	0.4938	0.1982	0.2396	0.062
Mof_H 	H 	0.4266	0.0914	0.0792	0.043
Mof_H 	H 	0.5209	0.1285	0.1034	0.055
Mof_H 	H 	0.9876	0.2384	0.48	0.056
Mof_H 	H 	0.8602	0.283	0.371	0.077
Mof_H 	H 	0.8654	0.0578	0.3688	0.072
Mof_H 	H 	0.7516	0.2684	0.2434	0.055
Mof_H 	H 	0.6781	0.2239	0.164	0.081
Mof_H 	H 	0.6773	0.0011	0.1586	0.071
Mof_H 	H 	0.7458	0.0414	0.2396	0.062
Mof_H 	H 	0.6526	0.9878	0.0792	0.042
Mof_H 	H 	0.5825	0.9749	0.1034	0.054
Mof_H 	H 	0.2416	0.4924	0.48	0.056
Mof_H 	H 	0.088	0.5108	0.371	0.077
Mof_H 	H 	0.311	0.5034	0.3688	0.072
Mof_H 	H 	0.975	0.4918	0.2434	0.055
Mof_H 	H 	0.9401	0.4859	0.164	0.081
Mof_H 	H 	0.1575	0.4813	0.1586	0.07
Mof_H 	H 	0.1982	0.4938	0.2396	0.062
Mof_H 	H 	0.0914	0.4266	0.0792	0.043
Mof_H 	H 	0.1285	0.5209	0.1034	0.055
Mof_H 	H 	0.2384	0.9876	0.48	0.056
Mof_H 	H 	0.283	0.8602	0.371	0.077
Mof_H 	H 	0.0578	0.8654	0.3688	0.072
Mof_H 	H 	0.2684	0.7516	0.2434	0.055
Mof_H 	H 	0.2239	0.6781	0.164	0.081
Mof_H 	H 	0.0011	0.6773	0.1586	0.071
Mof_H 	H 	0.0414	0.7458	0.2396	0.062
Mof_H 	H 	0.9878	0.6526	0.0792	0.042
Mof_H 	H 	0.9749	0.5825	0.1034	0.054
Mof_H 	H 	0.5076	0.7584	0.52	0.056
Mof_H 	H 	0.4892	0.912	0.629	0.077
Mof_H 	H 	0.4966	0.689	0.6312	0.072
Mof_H 	H 	0.5082	0.025	0.7566	0.054
Mof_H 	H 	0.5141	0.0599	0.836	0.081
Mof_H 	H 	0.5187	0.8425	0.8414	0.07
Mof_H 	H 	0.5062	0.8018	0.7604	0.062
Mof_H 	H 	0.5734	0.9086	0.9208	0.042
Mof_H 	H 	0.4791	0.8715	0.8966	0.055
Mof_H 	H 	0.0124	0.7616	0.52	0.056
Mof_H 	H 	0.1398	0.717	0.629	0.077
Mof_H 	H 	0.1346	0.9422	0.6312	0.072
Mof_H 	H 	0.2484	0.7316	0.7566	0.055
Mof_H 	H 	0.3219	0.7761	0.836	0.081
Mof_H 	H 	0.3227	0.9989	0.8414	0.07
Mof_H 	H 	0.2542	0.9586	0.7604	0.062
Mof_H 	H 	0.3474	0.0122	0.9208	0.041
Mof_H 	H 	0.4175	0.0251	0.8966	0.054
Mof_H 	H 	0.9362	0.599	-0	0.066
Mof_H 	H 	0.0638	0.401	-0	0.066
Mof_H 	H 	0.401	0.0638	-0	0.066
Mof_H 	H 	0.599	0.9362	-0	0.066
Mof_C 	C 	0.8977	0.4901	0.5424	0.351
Mof_C 	C 	0.631	0.5042	0.5474	0.344
Mof_C 	C 	0.76798	0.50058	0.55016	0.027
Mof_C 	C 	0.8404	0.4928	0.5692	-0.072
Mof_C 	C 	0.86054	0.49114	0.61448	-0.045
Mof_C 	C 	0.8041	0.4921	0.6394	0.08
Mof_C 	C 	0.72808	0.49608	0.61536	-0.047
Mof_C 	C 	0.70954	0.49954	0.56928	-0.071
Mof_C 	C 	0.9102	0.5052	0.7536	0.076
Mof_C 	C 	0.9877	0.5087	0.7736	-0.042
Mof_C 	C 	0.0075	0.5133	0.8212	-0.117
Mof_C 	C 	0.9565	0.5169	0.8478	0.168
Mof_C 	C 	0.8793	0.5151	0.824	-0.111
Mof_C 	C 	0.8543	0.5083	0.776	-0.043
Mof_C 	C 	0.9203	0.5219	0.915	-0.024
Mof_C 	C 	0.96067	0.50767	0.95814	0.044
Mof_C 	C 	0.6447	0.0523	0.5424	0.351
Mof_C 	C 	0.9164	0.0432	0.5474	0.346
Mof_C 	C 	0.78218	0.04958	0.55016	0.027
Mof_C 	C 	0.7288	0.0764	0.5692	-0.072
Mof_C 	C 	0.75394	0.12334	0.61448	-0.045
Mof_C 	C 	0.8353	0.1473	0.6394	0.08
Mof_C 	C 	0.88728	0.11928	0.61536	-0.047
Mof_C 	C 	0.85974	0.06974	0.56928	-0.071
Mof_C 	C 	0.8434	0.2484	0.7536	0.076
Mof_C 	C 	0.7859	0.2649	0.7736	-0.042
Mof_C 	C 	0.8137	0.3079	0.8212	-0.116
Mof_C 	C 	0.8913	0.3309	0.8478	0.168
Mof_C 	C 	0.9447	0.3089	0.824	-0.111
Mof_C 	C 	0.9217	0.2677	0.776	-0.043
Mof_C 	C 	0.9947	0.3931	0.915	-0.021
Mof_C 	C 	0.99747	0.45047	0.95814	0.043
Mof_C 	C 	0.5099	0.1023	0.4576	0.351
Mof_C 	C 	0.4958	0.369	0.4526	0.344
Mof_C 	C 	0.49942	0.23202	0.44984	0.027
Mof_C 	C 	0.5072	0.1596	0.4308	-0.072
Mof_C 	C 	0.50886	0.13946	0.38552	-0.045
Mof_C 	C 	0.5079	0.1959	0.3606	0.08
Mof_C 	C 	0.50392	0.27192	0.38464	-0.047
Mof_C 	C 	0.50046	0.29046	0.43072	-0.071
Mof_C 	C 	0.4948	0.0898	0.2464	0.076
Mof_C 	C 	0.4913	0.0123	0.2264	-0.042
Mof_C 	C 	0.4867	0.9925	0.1788	-0.116
Mof_C 	C 	0.4831	0.0435	0.1522	0.167
Mof_C 	C 	0.4849	0.1207	0.176	-0.111
Mof_C 	C 	0.4917	0.1457	0.224	-0.043
Mof_C 	C 	0.4781	0.0797	0.085	-0.024
Mof_C 	C 	0.49233	0.03933	0.04186	0.045
Mof_C 	C 	0.9477	0.3553	0.4576	0.351
Mof_C 	C 	0.9568	0.0836	0.4526	0.346
Mof_C 	C 	0.95042	0.21782	0.44984	0.027
Mof_C 	C 	0.9236	0.2712	0.4308	-0.072
Mof_C 	C 	0.87666	0.24606	0.38552	-0.045
Mof_C 	C 	0.8527	0.1647	0.3606	0.08
Mof_C 	C 	0.88072	0.11272	0.38464	-0.047
Mof_C 	C 	0.93026	0.14026	0.43072	-0.071
Mof_C 	C 	0.7516	0.1566	0.2464	0.076
Mof_C 	C 	0.7351	0.2141	0.2264	-0.042
Mof_C 	C 	0.6921	0.1863	0.1788	-0.116
Mof_C 	C 	0.6691	0.1087	0.1522	0.168
Mof_C 	C 	0.6911	0.0553	0.176	-0.111
Mof_C 	C 	0.7323	0.0783	0.224	-0.043
Mof_C 	C 	0.6069	0.0053	0.085	-0.023
Mof_C 	C 	0.54953	0.00253	0.04186	0.045
Mof_C 	C 	0.1023	0.5099	0.4576	0.351
Mof_C 	C 	0.369	0.4958	0.4526	0.344
Mof_C 	C 	0.23202	0.49942	0.44984	0.027
Mof_C 	C 	0.1596	0.5072	0.4308	-0.072
Mof_C 	C 	0.13946	0.50886	0.38552	-0.045
Mof_C 	C 	0.1959	0.5079	0.3606	0.08
Mof_C 	C 	0.27192	0.50392	0.38464	-0.047
Mof_C 	C 	0.29046	0.50046	0.43072	-0.071
Mof_C 	C 	0.0898	0.4948	0.2464	0.076
Mof_C 	C 	0.0123	0.4913	0.2264	-0.042
Mof_C 	C 	0.9925	0.4867	0.1788	-0.116
Mof_C 	C 	0.0435	0.4831	0.1522	0.167
Mof_C 	C 	0.1207	0.4849	0.176	-0.111
Mof_C 	C 	0.1457	0.4917	0.224	-0.043
Mof_C 	C 	0.0797	0.4781	0.085	-0.024
Mof_C 	C 	0.03933	0.49233	0.04186	0.045
Mof_C 	C 	0.3553	0.9477	0.4576	0.351
Mof_C 	C 	0.0836	0.9568	0.4526	0.346
Mof_C 	C 	0.21782	0.95042	0.44984	0.027
Mof_C 	C 	0.2712	0.9236	0.4308	-0.072
Mof_C 	C 	0.24606	0.87666	0.38552	-0.045
Mof_C 	C 	0.1647	0.8527	0.3606	0.08
Mof_C 	C 	0.11272	0.88072	0.38464	-0.047
Mof_C 	C 	0.14026	0.93026	0.43072	-0.071
Mof_C 	C 	0.1566	0.7516	0.2464	0.076
Mof_C 	C 	0.2141	0.7351	0.2264	-0.042
Mof_C 	C 	0.1863	0.6921	0.1788	-0.116
Mof_C 	C 	0.1087	0.6691	0.1522	0.168
Mof_C 	C 	0.0553	0.6911	0.176	-0.111
Mof_C 	C 	0.0783	0.7323	0.224	-0.043
Mof_C 	C 	0.0053	0.6069	0.085	-0.023
Mof_C 	C 	0.00253	0.54953	0.04186	0.045
Mof_C 	C 	0.4901	0.8977	0.5424	0.351
Mof_C 	C 	0.5042	0.631	0.5474	0.344
Mof_C 	C 	0.50058	0.76798	0.55016	0.027
Mof_C 	C 	0.4928	0.8404	0.5692	-0.072
Mof_C 	C 	0.49114	0.86054	0.61448	-0.045
Mof_C 	C 	0.4921	0.8041	0.6394	0.08
Mof_C 	C 	0.49608	0.72808	0.61536	-0.047
Mof_C 	C 	0.49954	0.70954	0.56928	-0.071
Mof_C 	C 	0.5052	0.9102	0.7536	0.076
Mof_C 	C 	0.5087	0.9877	0.7736	-0.042
Mof_C 	C 	0.5133	0.0075	0.8212	-0.117
Mof_C 	C 	0.5169	0.9565	0.8478	0.168
Mof_C 	C 	0.5151	0.8793	0.824	-0.111
Mof_C 	C 	0.5083	0.8543	0.776	-0.043
Mof_C 	C 	0.5219	0.9203	0.915	-0.024
Mof_C 	C 	0.50767	0.96067	0.95814	0.044
Mof_C 	C 	0.0523	0.6447	0.5424	0.351
Mof_C 	C 	0.0432	0.9164	0.5474	0.346
Mof_C 	C 	0.04958	0.78218	0.55016	0.027
Mof_C 	C 	0.0764	0.7288	0.5692	-0.072
Mof_C 	C 	0.12334	0.75394	0.61448	-0.045
Mof_C 	C 	0.1473	0.8353	0.6394	0.08
Mof_C 	C 	0.11928	0.88728	0.61536	-0.047
Mof_C 	C 	0.06974	0.85974	0.56928	-0.071
Mof_C 	C 	0.2484	0.8434	0.7536	0.076
Mof_C 	C 	0.2649	0.7859	0.7736	-0.042
Mof_C 	C 	0.3079	0.8137	0.8212	-0.116
Mof_C 	C 	0.3309	0.8913	0.8478	0.168
Mof_C 	C 	0.3089	0.9447	0.824	-0.111
Mof_C 	C 	0.2677	0.9217	0.776	-0.043
Mof_C 	C 	0.3931	0.9947	0.915	-0.021
Mof_C 	C 	0.45047	0.99747	0.95814	0.043
Mof_C 	C 	0.9622	0.5588	-0	-0.098
Mof_C 	C 	0.0378	0.4412	-0	-0.097
Mof_C 	C 	0.4412	0.0378	-0	-0.097
Mof_C 	C 	0.5588	0.9622	-0	-0.098
Mof_N 	N 	0.8135	0.4897	0.6872	-0.083
Mof_N 	N 	0.8846	0.498	0.7042	-0.082
Mof_N 	N 	0.8737	0.1975	0.6872	-0.083
Mof_N 	N 	0.8196	0.2062	0.7042	-0.082
Mof_N 	N 	0.5103	0.1865	0.3128	-0.083
Mof_N 	N 	0.502	0.1154	0.2958	-0.082
Mof_N 	N 	0.8025	0.1263	0.3128	-0.083
Mof_N 	N 	0.7938	0.1804	0.2958	-0.082
Mof_N 	N 	0.1865	0.5103	0.3128	-0.083
Mof_N 	N 	0.1154	0.502	0.2958	-0.082
Mof_N 	N 	0.1263	0.8025	0.3128	-0.083
Mof_N 	N 	0.1804	0.7938	0.2958	-0.082
Mof_N 	N 	0.4897	0.8135	0.6872	-0.083
Mof_N 	N 	0.498	0.8846	0.7042	-0.082
Mof_N 	N 	0.1975	0.8737	0.6872	-0.083
Mof_N 	N 	0.2062	0.8196	0.7042	-0.082
Mof_O 	O 	0.96539	0.48133	0.56412	-0.387
Mof_O 	O 	0.99829	0.37679	0.49488	-0.417
Mof_O 	O 	0.62759	0.52733	0.51132	-0.4
Mof_O 	O 	0.57647	0.48093	0.5642	-0.405
Mof_O 	O 	0.9842	0.521	0.8936	-0.208
Mof_O 	O 	0.59873	0.08279	0.56412	-0.387
Mof_O 	O 	0.49659	0.11809	0.49488	-0.417
Mof_O 	O 	0.88373	0.98399	0.51132	-0.401
Mof_O 	O 	0.98773	0.08327	0.5642	-0.405
Mof_O 	O 	0.9094	0.3726	0.8936	-0.208
Mof_O 	O 	0.51867	0.03461	0.43588	-0.387
Mof_O 	O 	0.62321	0.00171	0.50512	-0.417
Mof_O 	O 	0.47267	0.37241	0.48868	-0.4
Mof_O 	O 	0.51907	0.42353	0.4358	-0.405
Mof_O 	O 	0.479	0.0158	0.1064	-0.207
Mof_O 	O 	0.91721	0.40127	0.43588	-0.387
Mof_O 	O 	0.88191	0.50341	0.50512	-0.417
Mof_O 	O 	0.01601	0.11627	0.48868	-0.402
Mof_O 	O 	0.91673	0.01227	0.4358	-0.405
Mof_O 	O 	0.6274	0.0906	0.1064	-0.207
Mof_O 	O 	0.03461	0.51867	0.43588	-0.387
Mof_O 	O 	0.00171	0.62321	0.50512	-0.417
Mof_O 	O 	0.37241	0.47267	0.48868	-0.4
Mof_O 	O 	0.42353	0.51907	0.4358	-0.405
Mof_O 	O 	0.0158	0.479	0.1064	-0.207
Mof_O 	O 	0.40127	0.91721	0.43588	-0.387
Mof_O 	O 	0.50341	0.88191	0.50512	-0.417
Mof_O 	O 	0.11627	0.01601	0.48868	-0.402
Mof_O 	O 	0.01227	0.91673	0.4358	-0.405
Mof_O 	O 	0.0906	0.6274	0.1064	-0.207
Mof_O 	O 	0.48133	0.96539	0.56412	-0.387
Mof_O 	O 	0.37679	0.99829	0.49488	-0.417
Mof_O 	O 	0.52733	0.62759	0.51132	-0.4
Mof_O 	O 	0.48093	0.57647	0.5642	-0.405
Mof_O 	O 	0.521	0.9842	0.8936	-0.208
Mof_O 	O 	0.08279	0.59873	0.56412	-0.387
Mof_O 	O 	0.11809	0.49659	0.49488	-0.417
Mof_O 	O 	0.98399	0.88373	0.51132	-0.401
Mof_O 	O 	0.08327	0.98773	0.5642	-0.405
Mof_O 	O 	0.3726	0.9094	0.8936	-0.208
_end
