data_functionalizedCrystal
_audit_creation_method	'EQeq! by Chris Wilmer'
_symmetry_space_group_name_H-M	'P1'
_symmetry_Int_Tables_number	1
_symmetry_cell_setting	triclinic
loop_
_symmetry_equiv_pos_as_xyz
  x,y,z
_cell_length_a	13.464
_cell_length_b	19.717
_cell_length_c	29.985
_cell_angle_alpha	90
_cell_angle_beta	90
_cell_angle_gamma	90
loop_
_atom_site_label
_atom_site_type_symbol
_atom_site_fract_x
_atom_site_fract_y
_atom_site_fract_z
_atom_site_charge
Mof_Cu	Cu	0.11557	0.46943	0.64195	0.899
Mof_Cu	Cu	0.56885	0.46836	0.61918	0.925
Mof_Cu	Cu	0.34981	0.46895	0.69931	0.908
Mof_Cu	Cu	0.02667	0.9699	0.54216	0.843
Mof_Cu	Cu	0.88443	0.46943	0.35805	0.899
Mof_Cu	Cu	0.43115	0.46836	0.38082	0.925
Mof_Cu	Cu	0.65019	0.46895	0.30069	0.908
Mof_Cu	Cu	0.97333	0.9699	0.45784	0.85
Mof_Cu	Cu	0.61557	0.96943	0.85805	0.852
Mof_Cu	Cu	0.06885	0.96836	0.88082	0.875
Mof_Cu	Cu	0.84981	0.96895	0.80069	0.859
Mof_Cu	Cu	0.52667	0.4699	0.95784	0.902
Mof_Cu	Cu	0.38443	0.96943	0.14195	0.85
Mof_Cu	Cu	0.93115	0.96836	0.11918	0.876
Mof_Cu	Cu	0.15019	0.96895	0.19931	0.857
Mof_Cu	Cu	0.47333	0.4699	0.04216	0.9
Mof_Cu	Cu	0.5	0.47202	0.5	0.882
Mof_Cu	Cu	-0	0.97202	-0	0.83
Mof_H 	H 	0.7647	0.1373	0.4631	0.066
Mof_H 	H 	0.6766	0.2367	0.4752	0.066
Mof_H 	H 	0.7808	0.2443	0.6007	0.063
Mof_H 	H 	0.8689	0.1449	0.5885	0.062
Mof_H 	H 	0.185	0.1398	0.8216	0.065
Mof_H 	H 	0.2398	0.2389	0.7878	0.058
Mof_H 	H 	0.0066	0.2333	0.7043	0.054
Mof_H 	H 	0.9518	0.1342	0.738	0.078
Mof_H 	H 	0.2131	0.3661	0.5097	0.067
Mof_H 	H 	0.1047	0.3691	0.4496	0.043
Mof_H 	H 	0.0771	0.5708	0.4639	0.042
Mof_H 	H 	0.1855	0.5679	0.524	0.068
Mof_H 	H 	0.2429	0.7064	0.7855	0.127
Mof_H 	H 	0.1896	0.8094	0.8133	-0.041
Mof_H 	H 	0.9326	0.7884	0.7546	-0.051
Mof_H 	H 	0.9844	0.6862	0.7219	0.15
Mof_H 	H 	0.7545	0.8115	0.4598	0.022
Mof_H 	H 	0.6636	0.713	0.4709	0.078
Mof_H 	H 	0.7322	0.7173	0.6013	0.076
Mof_H 	H 	0.8231	0.8158	0.5902	0.02
Mof_H 	H 	0.2353	0.1373	0.5369	0.065
Mof_H 	H 	0.3234	0.2367	0.5248	0.066
Mof_H 	H 	0.2192	0.2443	0.3993	0.061
Mof_H 	H 	0.1311	0.1449	0.4115	0.059
Mof_H 	H 	0.815	0.1398	0.1784	0.057
Mof_H 	H 	0.7602	0.2389	0.2122	0.065
Mof_H 	H 	0.9934	0.2333	0.2957	0.07
Mof_H 	H 	0.0482	0.1342	0.262	0.049
Mof_H 	H 	0.7869	0.3661	0.4903	0.07
Mof_H 	H 	0.8953	0.3691	0.5504	0.042
Mof_H 	H 	0.9229	0.5708	0.5361	0.042
Mof_H 	H 	0.8145	0.5679	0.476	0.072
Mof_H 	H 	0.7571	0.7064	0.2145	0.1
Mof_H 	H 	0.8104	0.8094	0.1867	-0.014
Mof_H 	H 	0.0674	0.7884	0.2454	-0.005
Mof_H 	H 	0.0156	0.6862	0.2781	0.09
Mof_H 	H 	0.2455	0.8115	0.5402	0.02
Mof_H 	H 	0.3364	0.713	0.5291	0.078
Mof_H 	H 	0.2678	0.7173	0.3987	0.076
Mof_H 	H 	0.1769	0.8158	0.4098	0.018
Mof_H 	H 	0.2647	0.6373	0.0369	0.051
Mof_H 	H 	0.1766	0.7367	0.0248	0.066
Mof_H 	H 	0.2808	0.7443	0.8993	0.062
Mof_H 	H 	0.3689	0.6449	0.9115	0.047
Mof_H 	H 	0.685	0.6398	0.6784	0.051
Mof_H 	H 	0.7398	0.7389	0.7122	0.058
Mof_H 	H 	0.5066	0.7333	0.7957	0.059
Mof_H 	H 	0.4518	0.6342	0.762	0.051
Mof_H 	H 	0.7131	0.8661	0.9903	0.045
Mof_H 	H 	0.6047	0.8691	0.0504	0.05
Mof_H 	H 	0.5771	0.0708	0.0361	0.028
Mof_H 	H 	0.6855	0.0679	0.976	0.031
Mof_H 	H 	0.7429	0.2064	0.7145	0.12
Mof_H 	H 	0.6896	0.3094	0.6867	-0.015
Mof_H 	H 	0.4326	0.2884	0.7454	-0.02
Mof_H 	H 	0.4844	0.1862	0.7781	0.127
Mof_H 	H 	0.2545	0.3115	0.0402	0.036
Mof_H 	H 	0.1636	0.213	0.0291	0.086
Mof_H 	H 	0.2322	0.2173	0.8987	0.08
Mof_H 	H 	0.3231	0.3158	0.9098	0.033
Mof_H 	H 	0.7353	0.6373	0.9631	0.051
Mof_H 	H 	0.8234	0.7367	0.9752	0.066
Mof_H 	H 	0.7192	0.7443	0.1007	0.059
Mof_H 	H 	0.6311	0.6449	0.0885	0.047
Mof_H 	H 	0.315	0.6398	0.3216	0.05
Mof_H 	H 	0.2602	0.7389	0.2878	0.056
Mof_H 	H 	0.4934	0.7333	0.2043	0.058
Mof_H 	H 	0.5482	0.6342	0.238	0.052
Mof_H 	H 	0.2869	0.8661	0.0097	0.059
Mof_H 	H 	0.3953	0.8691	0.9496	0.033
Mof_H 	H 	0.4229	0.0708	0.9639	0.013
Mof_H 	H 	0.3145	0.0679	0.024	0.045
Mof_H 	H 	0.2571	0.2064	0.2855	0.118
Mof_H 	H 	0.3104	0.3094	0.3133	-0.016
Mof_H 	H 	0.5674	0.2884	0.2546	-0.02
Mof_H 	H 	0.5156	0.1862	0.2219	0.127
Mof_H 	H 	0.7455	0.3115	0.9598	0.036
Mof_H 	H 	0.8364	0.213	0.9709	0.085
Mof_H 	H 	0.7678	0.2173	0.1013	0.078
Mof_H 	H 	0.6769	0.3158	0.0902	0.034
Mof_C 	C 	0.6682	0.3125	0.5465	0.129
Mof_C 	C 	0.7679	0.1588	0.4906	-0.014
Mof_C 	C 	0.7152	0.2183	0.4979	-0.051
Mof_C 	C 	0.72	0.2504	0.5392	-0
Mof_C 	C 	0.7776	0.2228	0.5731	-0.051
Mof_C 	C 	0.8303	0.1633	0.5658	-0.012
Mof_C 	C 	0.8255	0.1312	0.5246	-0.035
Mof_C 	C 	0.8812	0.064	0.5168	0.287
Mof_C 	C 	0.8688	0.8798	0.514	0.352
Mof_C 	C 	0.0192	0.0626	0.8038	0.259
Mof_C 	C 	0.063	0.1272	0.7831	-0.018
Mof_C 	C 	0.1493	0.1586	0.798	-0.024
Mof_C 	C 	0.1821	0.2179	0.7778	-0.047
Mof_C 	C 	0.1286	0.2459	0.7427	0.001
Mof_C 	C 	0.0423	0.2145	0.7278	-0.039
Mof_C 	C 	0.0095	0.1552	0.748	-0.043
Mof_C 	C 	0.1711	0.6326	0.7201	0.068
Mof_C 	C 	0.1536	0.3147	0.727	0.117
Mof_C 	C 	0.2818	0.467	0.5599	0.116
Mof_C 	C 	0.2101	0.4667	0.52278	0.002
Mof_C 	C 	0.1859	0.4071	0.5005	-0.071
Mof_C 	C 	0.1209	0.4089	0.4645	0.012
Mof_C 	C 	0.0801	0.4702	0.45077	-0.093
Mof_C 	C 	0.1043	0.5298	0.4731	0.019
Mof_C 	C 	0.1693	0.528	0.5091	-0.072
Mof_C 	C 	0.0071	0.4631	0.4142	0.316
Mof_C 	C 	0.1236	0.6911	0.7476	0.169
Mof_C 	C 	0.1816	0.724	0.7772	-0.266
Mof_C 	C 	0.148	0.7843	0.7948	0.22
Mof_C 	C 	0.0539	0.8084	0.7856	-0.363
Mof_C 	C 	0.9967	0.7728	0.7599	0.288
Mof_C 	C 	0.0272	0.7115	0.7397	-0.299
Mof_C 	C 	0.0317	0.8752	0.8127	0.756
Mof_C 	C 	0.7978	0.8234	0.524	-0.125
Mof_C 	C 	0.75	0.7926	0.4882	0.045
Mof_C 	C 	0.6956	0.7336	0.4948	-0.114
Mof_C 	C 	0.6889	0.7053	0.5372	0.048
Mof_C 	C 	0.7366	0.7361	0.5729	-0.113
Mof_C 	C 	0.7911	0.7952	0.5663	0.046
Mof_C 	C 	0.6491	0.6382	0.5436	0.078
Mof_C 	C 	0.3318	0.3125	0.4535	0.129
Mof_C 	C 	0.2321	0.1588	0.5094	-0.014
Mof_C 	C 	0.2848	0.2183	0.5021	-0.052
Mof_C 	C 	0.28	0.2504	0.4608	-0
Mof_C 	C 	0.2224	0.2228	0.4269	-0.052
Mof_C 	C 	0.1697	0.1633	0.4342	-0.012
Mof_C 	C 	0.1745	0.1312	0.4754	-0.037
Mof_C 	C 	0.1188	0.064	0.4832	0.287
Mof_C 	C 	0.1312	0.8798	0.486	0.353
Mof_C 	C 	0.9808	0.0626	0.1962	0.286
Mof_C 	C 	0.937	0.1272	0.2169	-0.044
Mof_C 	C 	0.8507	0.1586	0.202	-0.002
Mof_C 	C 	0.8179	0.2179	0.2222	-0.066
Mof_C 	C 	0.8714	0.2459	0.2573	0.02
Mof_C 	C 	0.9577	0.2145	0.2722	-0.071
Mof_C 	C 	0.9905	0.1552	0.252	0.011
Mof_C 	C 	0.8289	0.6326	0.2799	0.091
Mof_C 	C 	0.8464	0.3147	0.273	0.113
Mof_C 	C 	0.7182	0.467	0.4401	0.114
Mof_C 	C 	0.7899	0.4667	0.47722	0.009
Mof_C 	C 	0.8141	0.4071	0.4995	-0.078
Mof_C 	C 	0.8791	0.4089	0.5355	0.025
Mof_C 	C 	0.9199	0.4702	0.54923	-0.108
Mof_C 	C 	0.8957	0.5298	0.5269	0.033
Mof_C 	C 	0.8307	0.528	0.4909	-0.079
Mof_C 	C 	0.9929	0.4631	0.5858	0.361
Mof_C 	C 	0.8764	0.6911	0.2524	0.095
Mof_C 	C 	0.8184	0.724	0.2228	-0.186
Mof_C 	C 	0.852	0.7843	0.2052	0.139
Mof_C 	C 	0.9461	0.8084	0.2144	-0.265
Mof_C 	C 	0.0033	0.7728	0.2401	0.143
Mof_C 	C 	0.9728	0.7115	0.2603	-0.16
Mof_C 	C 	0.9683	0.8752	0.1873	0.739
Mof_C 	C 	0.2022	0.8234	0.476	-0.128
Mof_C 	C 	0.25	0.7926	0.5118	0.047
Mof_C 	C 	0.3044	0.7336	0.5052	-0.116
Mof_C 	C 	0.3111	0.7053	0.4628	0.049
Mof_C 	C 	0.2634	0.7361	0.4271	-0.115
Mof_C 	C 	0.2089	0.7952	0.4337	0.047
Mof_C 	C 	0.3509	0.6382	0.4564	0.077
Mof_C 	C 	0.1682	0.8125	0.9535	0.121
Mof_C 	C 	0.2679	0.6588	0.0094	-0.012
Mof_C 	C 	0.2152	0.7183	0.0021	-0.074
Mof_C 	C 	0.22	0.7504	0.9608	0.014
Mof_C 	C 	0.2776	0.7228	0.9269	-0.067
Mof_C 	C 	0.3303	0.6633	0.9342	-0.003
Mof_C 	C 	0.3255	0.6312	0.9754	-0.051
Mof_C 	C 	0.3812	0.564	0.9832	0.304
Mof_C 	C 	0.3688	0.3798	0.986	0.369
Mof_C 	C 	0.5192	0.5626	0.6962	0.271
Mof_C 	C 	0.563	0.6272	0.7169	-0.048
Mof_C 	C 	0.6493	0.6586	0.702	-0.011
Mof_C 	C 	0.6821	0.7179	0.7222	-0.068
Mof_C 	C 	0.6286	0.7459	0.7573	0.01
Mof_C 	C 	0.5423	0.7145	0.7722	-0.067
Mof_C 	C 	0.5095	0.6552	0.752	-0.013
Mof_C 	C 	0.6711	0.1326	0.7799	0.09
Mof_C 	C 	0.6536	0.8147	0.773	0.104
Mof_C 	C 	0.7818	0.967	0.9401	0.144
Mof_C 	C 	0.7101	0.9667	0.97722	-0.177
Mof_C 	C 	0.6859	0.9071	0.9995	-0
Mof_C 	C 	0.6209	0.9089	0.0355	-0.014
Mof_C 	C 	0.5801	0.9702	0.04923	-0.197
Mof_C 	C 	0.6043	0.0298	0.0269	0.108
Mof_C 	C 	0.6693	0.028	0.9909	0.114
Mof_C 	C 	0.5071	0.9631	0.0858	0.229
Mof_C 	C 	0.6236	0.1911	0.7524	0.138
Mof_C 	C 	0.6816	0.224	0.7228	-0.216
Mof_C 	C 	0.648	0.2843	0.7052	0.178
Mof_C 	C 	0.5539	0.3084	0.7144	-0.297
Mof_C 	C 	0.4967	0.2728	0.7401	0.212
Mof_C 	C 	0.5272	0.2115	0.7603	-0.22
Mof_C 	C 	0.5317	0.3752	0.6873	0.743
Mof_C 	C 	0.2978	0.3234	0.976	-0.104
Mof_C 	C 	0.25	0.2926	0.0118	0.037
Mof_C 	C 	0.1956	0.2336	0.0052	-0.114
Mof_C 	C 	0.1889	0.2053	0.9628	0.058
Mof_C 	C 	0.2366	0.2361	0.9271	-0.106
Mof_C 	C 	0.2911	0.2952	0.9337	0.044
Mof_C 	C 	0.1491	0.1382	0.9564	0.084
Mof_C 	C 	0.8318	0.8125	0.0465	0.126
Mof_C 	C 	0.7321	0.6588	0.9906	0.001
Mof_C 	C 	0.7848	0.7183	0.9979	-0.054
Mof_C 	C 	0.78	0.7504	0.0392	-0.005
Mof_C 	C 	0.7224	0.7228	0.0731	-0.061
Mof_C 	C 	0.6697	0.6633	0.0658	-0.004
Mof_C 	C 	0.6745	0.6312	0.0246	-0.063
Mof_C 	C 	0.6188	0.564	0.0168	0.291
Mof_C 	C 	0.6312	0.3798	0.014	0.352
Mof_C 	C 	0.4808	0.5626	0.3038	0.271
Mof_C 	C 	0.437	0.6272	0.2831	-0.048
Mof_C 	C 	0.3507	0.6586	0.298	-0.012
Mof_C 	C 	0.3179	0.7179	0.2778	-0.068
Mof_C 	C 	0.3714	0.7459	0.2427	0.008
Mof_C 	C 	0.4577	0.7145	0.2278	-0.066
Mof_C 	C 	0.4905	0.6552	0.248	-0.014
Mof_C 	C 	0.3289	0.1326	0.2201	0.089
Mof_C 	C 	0.3464	0.8147	0.227	0.103
Mof_C 	C 	0.2182	0.967	0.0599	0.13
Mof_C 	C 	0.2899	0.9667	0.02278	-0.146
Mof_C 	C 	0.3141	0.9071	0.0005	-0.057
Mof_C 	C 	0.3791	0.9089	0.9645	0.042
Mof_C 	C 	0.4199	0.9702	0.95077	-0.231
Mof_C 	C 	0.3957	0.0298	0.9731	0.161
Mof_C 	C 	0.3307	0.028	0.0091	0.063
Mof_C 	C 	0.4929	0.9631	0.9142	0.244
Mof_C 	C 	0.3764	0.1911	0.2476	0.137
Mof_C 	C 	0.3184	0.224	0.2772	-0.217
Mof_C 	C 	0.352	0.2843	0.2948	0.177
Mof_C 	C 	0.4461	0.3084	0.2856	-0.297
Mof_C 	C 	0.5033	0.2728	0.2599	0.212
Mof_C 	C 	0.4728	0.2115	0.2397	-0.22
Mof_C 	C 	0.4683	0.3752	0.3127	0.743
Mof_C 	C 	0.7022	0.3234	0.024	-0.112
Mof_C 	C 	0.75	0.2926	0.9882	0.049
Mof_C 	C 	0.8044	0.2336	0.9948	-0.094
Mof_C 	C 	0.8111	0.2053	0.0372	0.041
Mof_C 	C 	0.7634	0.2361	0.0729	-0.099
Mof_C 	C 	0.7089	0.2952	0.0663	0.042
Mof_C 	C 	0.8509	0.1382	0.0436	0.088
Mof_N 	N 	0.6597	0.3418	0.5835	-0.096
Mof_N 	N 	0.6232	0.3433	0.5128	-0.103
Mof_N 	N 	0.5819	0.3926	0.5341	-0.124
Mof_N 	N 	0.6022	0.396	0.5733	-0.132
Mof_N 	N 	0.4117	0.4761	0.5993	-0.129
Mof_N 	N 	0.3778	0.4749	0.55724	-0.154
Mof_N 	N 	0.2525	0.478	0.603	-0.17
Mof_N 	N 	0.3383	0.4675	0.627	-0.139
Mof_N 	N 	0.5969	0.5995	0.5113	-0.085
Mof_N 	N 	0.5708	0.5364	0.5311	-0.173
Mof_N 	N 	0.607	0.5362	0.5755	-0.157
Mof_N 	N 	0.6554	0.5991	0.5833	-0.084
Mof_N 	N 	0.1543	0.5423	0.6841	-0.155
Mof_N 	N 	0.244	0.5445	0.7039	-0.143
Mof_N 	N 	0.2479	0.6025	0.7285	-0.092
Mof_N 	N 	0.0987	0.5969	0.6926	-0.089
Mof_N 	N 	0.1665	0.3981	0.6813	-0.162
Mof_N 	N 	0.2393	0.3977	0.7104	-0.131
Mof_N 	N 	0.2418	0.348	0.737	-0.088
Mof_N 	N 	0.1135	0.3454	0.6958	-0.101
Mof_N 	N 	0.3403	0.3418	0.4165	-0.097
Mof_N 	N 	0.3768	0.3433	0.4872	-0.103
Mof_N 	N 	0.4181	0.3926	0.4659	-0.124
Mof_N 	N 	0.3978	0.396	0.4267	-0.132
Mof_N 	N 	0.5883	0.4761	0.4007	-0.129
Mof_N 	N 	0.6222	0.4749	0.44276	-0.153
Mof_N 	N 	0.7475	0.478	0.397	-0.169
Mof_N 	N 	0.6617	0.4675	0.373	-0.139
Mof_N 	N 	0.4031	0.5995	0.4887	-0.085
Mof_N 	N 	0.4292	0.5364	0.4689	-0.173
Mof_N 	N 	0.393	0.5362	0.4245	-0.157
Mof_N 	N 	0.3446	0.5991	0.4167	-0.085
Mof_N 	N 	0.8457	0.5423	0.3159	-0.155
Mof_N 	N 	0.756	0.5445	0.2961	-0.143
Mof_N 	N 	0.7521	0.6025	0.2715	-0.096
Mof_N 	N 	0.9013	0.5969	0.3074	-0.089
Mof_N 	N 	0.8335	0.3981	0.3187	-0.161
Mof_N 	N 	0.7607	0.3977	0.2896	-0.131
Mof_N 	N 	0.7582	0.348	0.263	-0.087
Mof_N 	N 	0.8865	0.3454	0.3042	-0.098
Mof_N 	N 	0.1597	0.8418	0.9165	-0.1
Mof_N 	N 	0.1232	0.8433	0.9872	-0.101
Mof_N 	N 	0.0819	0.8926	0.9659	-0.132
Mof_N 	N 	0.1022	0.896	0.9267	-0.145
Mof_N 	N 	0.9117	0.9761	0.9007	-0.15
Mof_N 	N 	0.8778	0.9749	0.94276	-0.182
Mof_N 	N 	0.7525	0.978	0.897	-0.202
Mof_N 	N 	0.8383	0.9675	0.873	-0.156
Mof_N 	N 	0.0969	0.0995	0.9887	-0.07
Mof_N 	N 	0.0708	0.0364	0.9689	-0.124
Mof_N 	N 	0.107	0.0362	0.9245	-0.114
Mof_N 	N 	0.1554	0.0991	0.9167	-0.075
Mof_N 	N 	0.6543	0.0423	0.8159	-0.114
Mof_N 	N 	0.744	0.0445	0.7961	-0.104
Mof_N 	N 	0.7479	0.1025	0.7715	-0.085
Mof_N 	N 	0.5987	0.0969	0.8074	-0.077
Mof_N 	N 	0.6665	0.8981	0.8187	-0.175
Mof_N 	N 	0.7393	0.8977	0.7896	-0.146
Mof_N 	N 	0.7418	0.848	0.763	-0.095
Mof_N 	N 	0.6135	0.8454	0.8042	-0.106
Mof_N 	N 	0.8403	0.8418	0.0835	-0.102
Mof_N 	N 	0.8768	0.8433	0.0128	-0.105
Mof_N 	N 	0.9181	0.8926	0.0341	-0.132
Mof_N 	N 	0.8978	0.896	0.0733	-0.144
Mof_N 	N 	0.0883	0.9761	0.0993	-0.156
Mof_N 	N 	0.1222	0.9749	0.05724	-0.186
Mof_N 	N 	0.2475	0.978	0.103	-0.201
Mof_N 	N 	0.1617	0.9675	0.127	-0.158
Mof_N 	N 	0.9031	0.0995	0.0113	-0.073
Mof_N 	N 	0.9292	0.0364	0.0311	-0.124
Mof_N 	N 	0.893	0.0362	0.0755	-0.113
Mof_N 	N 	0.8446	0.0991	0.0833	-0.076
Mof_N 	N 	0.3457	0.0423	0.1841	-0.114
Mof_N 	N 	0.256	0.0445	0.2039	-0.104
Mof_N 	N 	0.2521	0.1025	0.2285	-0.086
Mof_N 	N 	0.4013	0.0969	0.1926	-0.077
Mof_N 	N 	0.3335	0.8981	0.1813	-0.175
Mof_N 	N 	0.2607	0.8977	0.2104	-0.147
Mof_N 	N 	0.2582	0.848	0.237	-0.097
Mof_N 	N 	0.3865	0.8454	0.1958	-0.107
Mof_O 	O 	0.9427	0.0379	0.7869	-0.323
Mof_O 	O 	0.0925	0.0302	0.8328	-0.278
Mof_O 	O 	0.9467	0.8937	0.7969	-0.504
Mof_O 	O 	0.0651	0.8958	0.8386	-0.692
Mof_O 	O 	0.9153	0.0389	0.5497	-0.335
Mof_O 	O 	0.8695	0.0354	0.4753	-0.31
Mof_O 	O 	0.9741	0.4177	0.3968	-0.402
Mof_O 	O 	0.9738	0.5252	0.3984	-0.334
Mof_O 	O 	0.8894	0.8961	0.4767	-0.433
Mof_O 	O 	0.9351	0.8973	0.5463	-0.403
Mof_O 	O 	0.0573	0.0379	0.2131	-0.339
Mof_O 	O 	0.9075	0.0302	0.1672	-0.281
Mof_O 	O 	0.0533	0.8937	0.2031	-0.513
Mof_O 	O 	0.9349	0.8958	0.1614	-0.68
Mof_O 	O 	0.0847	0.0389	0.4503	-0.34
Mof_O 	O 	0.1305	0.0354	0.5247	-0.313
Mof_O 	O 	0.0259	0.4177	0.6032	-0.428
Mof_O 	O 	0.0262	0.5252	0.6016	-0.354
Mof_O 	O 	0.1106	0.8961	0.5233	-0.439
Mof_O 	O 	0.0649	0.8973	0.4537	-0.411
Mof_O 	O 	0.4427	0.5379	0.7131	-0.393
Mof_O 	O 	0.5925	0.5302	0.6672	-0.345
Mof_O 	O 	0.4467	0.3937	0.7031	-0.483
Mof_O 	O 	0.5651	0.3958	0.6614	-0.658
Mof_O 	O 	0.4153	0.5389	0.9503	-0.399
Mof_O 	O 	0.3695	0.5354	0.0247	-0.381
Mof_O 	O 	0.4741	0.9177	0.1032	-0.398
Mof_O 	O 	0.4738	0.0252	0.1016	-0.223
Mof_O 	O 	0.3894	0.3961	0.0233	-0.418
Mof_O 	O 	0.4351	0.3973	0.9537	-0.381
Mof_O 	O 	0.5573	0.5379	0.2869	-0.393
Mof_O 	O 	0.4075	0.5302	0.3328	-0.345
Mof_O 	O 	0.5533	0.3937	0.2969	-0.483
Mof_O 	O 	0.4349	0.3958	0.3386	-0.658
Mof_O 	O 	0.5847	0.5389	0.0497	-0.397
Mof_O 	O 	0.6305	0.5354	0.9753	-0.368
Mof_O 	O 	0.5259	0.9177	0.8968	-0.402
Mof_O 	O 	0.5262	0.0252	0.8984	-0.225
Mof_O 	O 	0.6106	0.3961	0.9767	-0.402
Mof_O 	O 	0.5649	0.3973	0.0463	-0.38
_end
