data_functionalizedCrystal
_audit_creation_method	'EQeq! by Chris Wilmer'
_symmetry_space_group_name_H-M	'P1'
_symmetry_Int_Tables_number	1
_symmetry_cell_setting	triclinic
loop_
_symmetry_equiv_pos_as_xyz
  x,y,z
_cell_length_a	4.9579
_cell_length_b	10.9881
_cell_length_c	12.7819
_cell_angle_alpha	91.5597
_cell_angle_beta	101.183
_cell_angle_gamma	81.9322
loop_
_atom_site_label
_atom_site_type_symbol
_atom_site_fract_x
_atom_site_fract_y
_atom_site_fract_z
_atom_site_charge
Mof_Cu	Cu	0.05648	0.78373	0.22654	0.908
Mof_Cu	Cu	0.82994	0.28373	0.77346	0.922
Mof_H 	H 	0.8614	0.5207	0.663	0.024
Mof_H 	H 	0.6444	0.6285	0.5112	0.076
Mof_H 	H 	0.0968	0.3837	0.4554	0.071
Mof_H 	H 	0.3279	0.2825	0.6104	0.02
Mof_H 	H 	0.3195	0.0926	0.8042	0.032
Mof_H 	H 	0.5843	0.9579	0.9316	0.059
Mof_H 	H 	0.0619	0.0781	0.13	0.073
Mof_H 	H 	0.8252	0.2161	-0	0.012
Mof_H 	H 	0.1984	0.0207	0.337	0.045
Mof_H 	H 	0.1332	0.1285	0.4888	0.067
Mof_H 	H 	0.6414	0.8837	0.5446	0.075
Mof_H 	H 	0.7175	0.7825	0.3896	0.023
Mof_H 	H 	0.5153	0.5926	0.1958	0.028
Mof_H 	H 	0.6527	0.4579	0.0684	0.08
Mof_H 	H 	0.9319	0.5781	0.87	0.099
Mof_H 	H 	0.8252	0.7161	-0	0.002
Mof_C 	C 	0.70536	0.4929	0.62032	0.055
Mof_C 	C 	0.57681	0.5579	0.52962	-0.077
Mof_C 	C 	0.34556	0.5178	0.46552	-0.005
Mof_C 	C 	0.25267	0.4131	0.49674	-0.079
Mof_C 	C 	0.39239	0.3528	0.58938	0.051
Mof_C 	C 	0.19095	0.5879	0.3657	0.265
Mof_C 	C 	0.26879	0.0902	0.87118	0.032
Mof_C 	C 	0.42737	0.0085	0.94694	-0.044
Mof_C 	C 	0.35247	0.0019	0.04594	-0.028
Mof_C 	C 	0.12052	0.0804	0.06444	-0.097
Mof_C 	C 	0.9774	0.1615	0.9856	0.09
Mof_C 	C 	0.51829	0.9156	0.13218	0.318
Mof_C 	C 	0.08504	0.9929	0.37968	-0.003
Mof_C 	C 	0.04719	0.0579	0.47038	-0.062
Mof_C 	C 	0.88004	0.0178	0.53448	0.008
Mof_C 	C 	0.75593	0.9131	0.50326	-0.084
Mof_C 	C 	0.80301	0.8528	0.41062	0.054
Mof_C 	C 	0.82525	0.0879	0.6343	0.288
Mof_C 	C 	0.39761	0.5902	0.12882	0.05
Mof_C 	C 	0.48043	0.5085	0.05306	-0.084
Mof_C 	C 	0.30653	0.5019	0.95406	-0.007
Mof_C 	C 	0.05608	0.5804	0.93556	-0.141
Mof_C 	C 	0.9918	0.6615	0.0144	0.115
Mof_C 	C 	0.38611	0.4156	0.86782	0.316
Mof_N 	N 	0.61809	0.3915	0.65058	-0.197
Mof_N 	N 	0.04585	0.1661	0.8891	-0.212
Mof_N 	N 	0.96751	0.8915	0.34942	-0.177
Mof_N 	N 	0.15675	0.6661	0.1109	-0.222
Mof_O 	O 	0.29852	0.6785	0.34124	-0.364
Mof_O 	O 	0.9702	0.5551	0.3172	-0.256
Mof_O 	O 	0.76689	0.87844	0.12138	-0.379
Mof_O 	O 	0.40853	0.88772	0.20606	-0.361
Mof_O 	O 	0.95728	0.1785	0.65876	-0.358
Mof_O 	O 	0.653	0.0551	0.6828	-0.275
Mof_O 	O 	0.64551	0.37844	0.87862	-0.383
Mof_O 	O 	0.20247	0.38772	0.79394	-0.363
_end
