data_functionalizedCrystal
_audit_creation_method	'EQeq! by Chris Wilmer'
_symmetry_space_group_name_H-M	'P1'
_symmetry_Int_Tables_number	1
_symmetry_cell_setting	triclinic
loop_
_symmetry_equiv_pos_as_xyz
  x,y,z
_cell_length_a	13.0203
_cell_length_b	19.776
_cell_length_c	20.8274
_cell_angle_alpha	61.932
_cell_angle_beta	73.268
_cell_angle_gamma	80.162
loop_
_atom_site_label
_atom_site_type_symbol
_atom_site_fract_x
_atom_site_fract_y
_atom_site_fract_z
_atom_site_charge
Mof_Mn	Mn	0.91545	0.79765	0.09958	1.031
Mof_Mn	Mn	0.70661	0.70194	0.0962	0.765
Mof_O 	O 	0.8735	0.92184	0.02433	-0.431
Mof_O 	O 	0.9419	0.6758	0.15728	-0.377
Mof_O 	O 	0.1212	0.92579	0.96478	-0.383
Mof_O 	O 	0.07	0.80542	0.03162	-0.426
Mof_O 	O 	0.8452	0.77133	0.01639	-0.432
Mof_O 	O 	0.02	0.9448	0.11012	-0.393
Mof_O 	O 	0.7977	0.62015	0.169	-0.384
Mof_O 	O 	0.9575	0.8273	0.17248	-0.391
Mof_O 	O 	0.7573	0.788	0.1615	-0.425
Mof_O 	O 	0.8345	0.6823	0.98387	-0.306
Mof_O 	O 	0.2302	0.5486	0.3656	-0.481
Mof_H 	H 	0.2957	0.5424	0.3562	0.277
Mof_O 	O 	0.2537	0.5448	0.4689	-0.286
Mof_O 	O 	0.6058	0.7645	0.1536	-0.402
Mof_C 	C 	0.1227	0.8586	0.9744	0.438
Mof_C 	C 	0.6044	0.8497	0.2054	-0.194
Mof_C 	C 	0.1888	0.8383	0.9136	-0.184
Mof_C 	C 	0.0859	0.3191	0.3342	-0.036
Mof_C 	C 	0.0347	0.3958	0.2963	0.06
Mof_C 	C 	0.3616	0.7698	0.4893	0.147
Mof_C 	C 	0.1801	0.7678	0.9181	0.115
Mof_H 	H 	0.1429	0.7299	0.9626	0.012
Mof_C 	C 	0.0801	0.9467	0.6622	-0.013
Mof_C 	C 	0.1838	0.173	0.405	0.121
Mof_C 	C 	0.325	0.7919	0.7247	-0.089
Mof_C 	C 	0.9377	0.541	0.2223	-0.12
Mof_C 	C 	0.2953	0.8768	0.788	-0.182
Mof_H 	H 	0.3355	0.9138	0.7445	0.099
Mof_C 	C 	0.5414	0.7232	0.5158	0.144
Mof_C 	C 	0.4611	0.8037	0.6139	-0.173
Mof_H 	H 	0.5274	0.8213	0.5818	0.094
Mof_C 	C 	0.8663	0.6354	0.4701	0.077
Mof_C 	C 	0.8893	0.6189	0.1796	0.394
Mof_C 	C 	0.9603	0.865	0.8711	0.085
Mof_H 	H 	0.9516	0.8801	0.9085	0.015
Mof_C 	C 	0.2833	0.8072	0.7909	0.132
Mof_C 	C 	0.2149	0.8095	0.3994	-0.084
Mof_C 	C 	0.9222	0.7963	0.8888	-0.144
Mof_C 	C 	0.3994	0.7645	0.5992	0.156
Mof_C 	C 	0.266	0.7531	0.7082	0.057
Mof_H 	H 	0.1996	0.7354	0.7401	0.009
Mof_C 	C 	0.2488	0.8926	0.8486	0.106
Mof_H 	H 	0.258	0.9398	0.8454	0.007
Mof_C 	C 	0.0028	0.8814	0.1663	0.413
Mof_C 	C 	0.0793	0.5808	0.4433	-0.108
Mof_C 	C 	0.9346	0.7766	0.8312	0.061
Mof_H 	H 	0.9092	0.7305	0.8415	0.023
Mof_C 	C 	0.2254	0.7528	0.858	-0.185
Mof_H 	H 	0.2174	0.705	0.8621	0.1
Mof_C 	C 	0.1468	0.8326	0.3454	0.127
Mof_C 	C 	0.0244	0.8946	0.7401	0.078
Mof_C 	C 	0.4239	0.8167	0.6762	0.048
Mof_H 	H 	0.466	0.8426	0.686	0.015
Mof_C 	C 	0.7536	0.6662	0.4846	-0.046
Mof_C 	C 	0.1845	0.0477	0.5149	0.093
Mof_C 	C 	0.1946	0.3039	0.3104	0.002
Mof_H 	H 	0.2363	0.3428	0.2702	0.028
Mof_C 	C 	0.7881	0.9473	0.0026	0.362
Mof_C 	C 	0.0172	0.5954	0.3942	0.031
Mof_H 	H 	0.0464	0.5878	0.3516	0.042
Mof_C 	C 	0.0356	0.5931	0.5056	0.026
Mof_H 	H 	0.0769	0.5835	0.539	0.034
Mof_C 	C 	0.659	0.879	0.233	0.119
Mof_H 	H 	0.7321	0.8674	0.2292	0.004
Mof_C 	C 	0.0346	0.5336	0.2395	0.041
Mof_H 	H 	0.0684	0.5775	0.2268	0.031
Mof_C 	C 	0.1965	0.5556	0.4283	0.376
Mof_C 	C 	0.6077	0.9256	0.2665	-0.193
Mof_H 	H 	0.6468	0.9436	0.2859	0.098
Mof_C 	C 	0.2425	0.232	0.3452	-0.136
Mof_H 	H 	0.3154	0.2236	0.3278	0.08
Mof_C 	C 	0.8649	0.746	0.968	0.36
Mof_C 	C 	0.0832	0.4627	0.2752	-0.125
Mof_H 	H 	0.1493	0.4598	0.2853	0.079
Mof_C 	C 	0.4577	0.9846	0.3756	0.065
Mof_H 	H 	0.5159	0.9537	0.3925	0.008
Mof_C 	C 	0.9112	0.6216	0.4082	-0.108
Mof_H 	H 	0.8694	0.6301	0.3754	0.082
Mof_C 	C 	0.6581	0.7977	0.1706	0.431
Mof_C 	C 	0.3059	0.0671	0.3938	0.144
Mof_C 	C 	0.046	0.8679	0.2309	-0.173
Mof_C 	C 	0.5884	0.6704	0.5729	-0.15
Mof_H 	H 	0.5491	0.6527	0.6224	0.087
Mof_C 	C 	0.1428	0.9819	0.5301	-0.095
Mof_H 	H 	0.1478	0.97	0.491	0.07
Mof_C 	C 	0.5006	0.946	0.2719	0.132
Mof_C 	C 	0.0116	0.912	0.7984	-0.154
Mof_H 	H 	0.0386	0.9574	0.7886	0.093
Mof_C 	C 	0.7053	0.7186	0.4279	0.022
Mof_H 	H 	0.7439	0.735	0.3783	0.029
Mof_C 	C 	0.3928	0.0213	0.4167	-0.195
Mof_H 	H 	0.4085	0.0148	0.4601	0.093
Mof_C 	C 	0.2974	0.8364	0.4732	-0.166
Mof_H 	H 	0.3026	0.8689	0.4929	0.097
Mof_C 	C 	0.6931	0.6435	0.5573	0.023
Mof_H 	H 	0.7237	0.6092	0.5967	0.028
Mof_C 	C 	0.1112	0.9197	0.2249	0.098
Mof_H 	H 	0.1228	0.9663	0.1821	0.011
Mof_C 	C 	0.3019	0.74	0.647	-0.181
Mof_H 	H 	0.2595	0.714	0.6375	0.094
Mof_C 	C 	0.2261	0.8559	0.4291	0.045
Mof_H 	H 	0.1847	0.9013	0.4193	0.015
Mof_C 	C 	0.0763	0.1876	0.4302	-0.124
Mof_H 	H 	0.0355	0.1489	0.4716	0.072
Mof_C 	C 	0.4387	0.9925	0.3107	-0.069
Mof_C 	C 	0.0928	0.9319	0.6026	-0.017
Mof_H 	H 	0.0672	0.8868	0.6108	0.032
Mof_C 	C 	0.028	0.2595	0.3945	-0.028
Mof_H 	H 	0.9549	0.2676	0.4118	0.048
Mof_C 	C 	0.9847	0.8253	0.7582	-0.13
Mof_H 	H 	0.9918	0.8111	0.7204	0.078
Mof_C 	C 	0.6009	0.7473	0.4428	-0.153
Mof_H 	H 	0.571	0.7829	0.4035	0.092
Mof_C 	C 	0.1591	0.9027	0.2819	-0.179
Mof_H 	H 	0.2007	0.939	0.2778	0.093
Mof_C 	C 	0.2869	0.078	0.3277	-0.161
Mof_H 	H 	0.2295	0.1099	0.3106	0.086
Mof_C 	C 	0.9361	0.4038	0.2808	-0.111
Mof_H 	H 	0.9006	0.36	0.2953	0.069
Mof_C 	C 	0.3534	0.0415	0.2861	0.011
Mof_H 	H 	0.3402	0.0503	0.2412	0.014
Mof_C 	C 	0.2748	0.7422	0.4174	0.042
Mof_H 	H 	0.2658	0.709	0.3995	0.029
Mof_C 	C 	0.8883	0.475	0.2443	0.052
Mof_H 	H 	0.8218	0.4781	0.2346	0.022
Mof_C 	C 	0.9315	0.6195	0.5183	-0.108
Mof_H 	H 	0.9031	0.6271	0.5609	0.076
Mof_C 	C 	0.0234	0.8046	0.2972	0.09
Mof_H 	H 	0.9725	0.7722	0.3048	0.021
Mof_C 	C 	0.0729	0.7862	0.3541	-0.18
Mof_H 	H 	0.0555	0.7418	0.3987	0.099
Mof_C 	C 	0.3491	0.7205	0.4615	-0.159
Mof_H 	H 	0.3891	0.6745	0.4721	0.102
Mof_C 	C 	0.498	0.8681	0.2107	0.111
Mof_H 	H 	0.4587	0.8483	0.193	0.002
Mof_C 	C 	0.4474	0.9173	0.2431	-0.183
Mof_H 	H 	0.375	0.9307	0.245	0.096
Mof_C 	C 	0.6448	0.0274	0.9674	-0.049
Mof_H 	H 	0.6604	0.0697	0.9175	0.05
Mof_H 	H 	0.5789	0.0396	0.997	0.045
Mof_C 	C 	0.1227	0.0141	0.6452	-0.034
Mof_H 	H 	0.1162	0.027	0.6837	0.034
Mof_C 	C 	0.6379	0.9525	0.9648	0.051
Mof_H 	H 	0.5796	0.9224	0.0043	-0.002
Mof_H 	H 	0.6284	0.9619	0.9167	0.017
Mof_C 	C 	0.175	0.0633	0.5731	-0.116
Mof_H 	H 	0.2037	0.1075	0.5647	0.073
Mof_N 	N 	0.7324	0.01	0.0025	-0.273
Mof_H 	H 	0.7468	0.0369	0.0211	0.155
Mof_N 	N 	0.7392	0.9159	0.9761	-0.26
Mof_H 	H 	0.7659	0.8777	0.9667	0.15
Mof_N 	N 	0.2347	0.0997	0.4399	-0.169
Mof_N 	N 	0.4359	0.7518	0.5341	-0.181
Mof_Mn	Mn	0.08455	0.20235	0.90042	1.025
Mof_Mn	Mn	0.29339	0.29806	0.9038	0.791
Mof_O 	O 	0.1265	0.07816	0.97567	-0.431
Mof_O 	O 	0.0581	0.3242	0.84272	-0.388
Mof_O 	O 	0.8788	0.07421	0.03522	-0.386
Mof_O 	O 	0.93	0.19458	0.96838	-0.365
Mof_O 	O 	0.1548	0.22867	0.98361	-0.388
Mof_O 	O 	0.98	0.0552	0.88988	-0.399
Mof_O 	O 	0.2023	0.37985	0.831	-0.39
Mof_O 	O 	0.0425	0.1727	0.82752	-0.417
Mof_O 	O 	0.2427	0.212	0.8385	-0.425
Mof_O 	O 	0.1655	0.3177	0.01613	-0.32
Mof_O 	O 	0.7698	0.4514	0.6344	-0.487
Mof_H 	H 	0.7043	0.4576	0.6438	0.28
Mof_O 	O 	0.7463	0.4552	0.5311	-0.292
Mof_O 	O 	0.3942	0.2355	0.8464	-0.401
Mof_C 	C 	0.8773	0.1414	0.0256	0.379
Mof_C 	C 	0.3956	0.1503	0.7946	-0.197
Mof_C 	C 	0.8112	0.1617	0.0864	-0.164
Mof_C 	C 	0.9141	0.6809	0.6658	-0.115
Mof_C 	C 	0.9653	0.6042	0.7037	0.168
Mof_C 	C 	0.6384	0.2302	0.5107	0.155
Mof_C 	C 	0.8199	0.2322	0.0819	0.097
Mof_H 	H 	0.8571	0.2701	0.0374	0.009
Mof_C 	C 	0.9199	0.0533	0.3378	-0.145
Mof_C 	C 	0.8162	0.827	0.595	0.166
Mof_C 	C 	0.675	0.2081	0.2753	-0.085
Mof_C 	C 	0.0623	0.459	0.7777	-0.204
Mof_C 	C 	0.7047	0.1232	0.212	-0.171
Mof_H 	H 	0.6645	0.0862	0.2555	0.085
Mof_C 	C 	0.4586	0.2768	0.4842	0.157
Mof_C 	C 	0.5389	0.1963	0.3861	-0.173
Mof_H 	H 	0.4726	0.1787	0.4182	0.093
Mof_C 	C 	0.1337	0.3646	0.5299	0.148
Mof_C 	C 	0.1107	0.3811	0.8204	0.424
Mof_C 	C 	0.0397	0.135	0.1289	0.071
Mof_H 	H 	0.0484	0.1199	0.0915	0.001
Mof_C 	C 	0.7167	0.1928	0.2091	0.12
Mof_C 	C 	0.7851	0.1905	0.6006	-0.108
Mof_C 	C 	0.0778	0.2037	0.1112	-0.15
Mof_C 	C 	0.6006	0.2355	0.4008	0.154
Mof_C 	C 	0.734	0.2469	0.2918	0.051
Mof_H 	H 	0.8004	0.2646	0.2599	0.014
Mof_C 	C 	0.7512	0.1074	0.1514	0.088
Mof_H 	H 	0.742	0.0602	0.1546	0.003
Mof_C 	C 	0.9972	0.1186	0.8337	0.461
Mof_C 	C 	0.9207	0.4192	0.5567	-0.173
Mof_C 	C 	0.0654	0.2234	0.1688	0.085
Mof_H 	H 	0.0908	0.2695	0.1585	0.009
Mof_C 	C 	0.7746	0.2472	0.142	-0.172
Mof_H 	H 	0.7826	0.295	0.1379	0.093
Mof_C 	C 	0.8532	0.1674	0.6546	0.171
Mof_C 	C 	0.9756	0.1054	0.2599	0.153
Mof_C 	C 	0.5761	0.1833	0.3238	0.043
Mof_H 	H 	0.534	0.1574	0.314	0.014
Mof_C 	C 	0.2464	0.3338	0.5154	-0.085
Mof_C 	C 	0.8155	0.9523	0.4851	0.213
Mof_C 	C 	0.8054	0.6961	0.6896	0.064
Mof_H 	H 	0.7637	0.6572	0.7298	0.009
Mof_C 	C 	0.2119	0.0527	0.9974	0.368
Mof_C 	C 	0.9828	0.4046	0.6058	0.13
Mof_H 	H 	0.9536	0.4122	0.6484	0.014
Mof_C 	C 	0.9644	0.4069	0.4944	0.129
Mof_H 	H 	0.9231	0.4165	0.461	0.003
Mof_C 	C 	0.341	0.121	0.767	0.119
Mof_H 	H 	0.2679	0.1326	0.7708	-0
Mof_C 	C 	0.9654	0.4664	0.7605	0.148
Mof_H 	H 	0.9316	0.4225	0.7732	0.004
Mof_C 	C 	0.8035	0.4444	0.5717	0.401
Mof_C 	C 	0.3923	0.0744	0.7335	-0.2
Mof_H 	H 	0.3532	0.0564	0.7141	0.093
Mof_C 	C 	0.7575	0.768	0.6548	-0.186
Mof_H 	H 	0.6846	0.7764	0.6722	0.099
Mof_C 	C 	0.1351	0.254	0.032	0.309
Mof_C 	C 	0.9168	0.5373	0.7248	-0.214
Mof_H 	H 	0.8507	0.5402	0.7147	0.113
Mof_C 	C 	0.5423	0.0154	0.6244	0.019
Mof_H 	H 	0.4841	0.0463	0.6075	0.018
Mof_C 	C 	0.0888	0.3784	0.5918	-0.205
Mof_H 	H 	0.1306	0.3699	0.6246	0.113
Mof_C 	C 	0.3419	0.2023	0.8294	0.432
Mof_C 	C 	0.6941	0.9329	0.6062	0.144
Mof_C 	C 	0.954	0.1321	0.7691	-0.229
Mof_C 	C 	0.4116	0.3296	0.4271	-0.169
Mof_H 	H 	0.4509	0.3473	0.3776	0.092
Mof_C 	C 	0.8572	0.0181	0.4699	-0.246
Mof_H 	H 	0.8522	0.03	0.509	0.113
Mof_C 	C 	0.4994	0.054	0.7281	0.136
Mof_C 	C 	0.9884	0.088	0.2016	-0.167
Mof_H 	H 	0.9614	0.0426	0.2114	0.093
Mof_C 	C 	0.2947	0.2814	0.5721	0.049
Mof_H 	H 	0.2561	0.265	0.6217	0.018
Mof_C 	C 	0.6072	0.9787	0.5833	-0.143
Mof_H 	H 	0.5915	0.9852	0.5399	0.086
Mof_C 	C 	0.7026	0.1636	0.5268	-0.179
Mof_H 	H 	0.6974	0.1311	0.5071	0.097
Mof_C 	C 	0.3069	0.3565	0.4427	0.05
Mof_H 	H 	0.2763	0.3908	0.4033	0.018
Mof_C 	C 	0.8888	0.0803	0.7751	0.146
Mof_H 	H 	0.8772	0.0337	0.8179	-0.012
Mof_C 	C 	0.6981	0.26	0.353	-0.178
Mof_H 	H 	0.7405	0.286	0.3625	0.094
Mof_C 	C 	0.7739	0.1441	0.5709	0.064
Mof_H 	H 	0.8153	0.0987	0.5807	0.004
Mof_C 	C 	0.9237	0.8124	0.5698	-0.194
Mof_H 	H 	0.9645	0.8511	0.5284	0.105
Mof_C 	C 	0.5613	0.0075	0.6893	-0.101
Mof_C 	C 	0.9072	0.0681	0.3974	0.106
Mof_H 	H 	0.9328	0.1132	0.3892	-0.006
Mof_C 	C 	0.972	0.7405	0.6055	0.081
Mof_H 	H 	0.0451	0.7324	0.5882	-0.005
Mof_C 	C 	0.0153	0.1747	0.2418	-0.199
Mof_H 	H 	0.0082	0.1889	0.2796	0.096
Mof_C 	C 	0.3991	0.2527	0.5572	-0.172
Mof_H 	H 	0.429	0.2171	0.5965	0.099
Mof_C 	C 	0.8409	0.0973	0.7181	-0.222
Mof_H 	H 	0.7993	0.061	0.7222	0.102
Mof_C 	C 	0.7131	0.922	0.6723	-0.171
Mof_H 	H 	0.7705	0.8901	0.6894	0.095
Mof_C 	C 	0.0639	0.5962	0.7192	-0.222
Mof_H 	H 	0.0994	0.64	0.7047	0.104
Mof_C 	C 	0.6466	0.9585	0.7139	0.063
Mof_H 	H 	0.6598	0.9497	0.7588	0.009
Mof_C 	C 	0.7252	0.2578	0.5826	0.059
Mof_H 	H 	0.7342	0.291	0.6005	0.023
Mof_C 	C 	0.1117	0.525	0.7557	0.138
Mof_H 	H 	0.1782	0.5219	0.7654	-0.006
Mof_C 	C 	0.0685	0.3805	0.4817	-0.212
Mof_H 	H 	0.0969	0.3729	0.4391	0.109
Mof_C 	C 	0.9766	0.1954	0.7028	0.188
Mof_H 	H 	0.0275	0.2278	0.6952	-0.027
Mof_C 	C 	0.9271	0.2138	0.6459	-0.244
Mof_H 	H 	0.9445	0.2582	0.6013	0.127
Mof_C 	C 	0.6509	0.2795	0.5385	-0.17
Mof_H 	H 	0.6109	0.3255	0.5279	0.106
Mof_C 	C 	0.502	0.1319	0.7893	0.113
Mof_H 	H 	0.5413	0.1517	0.807	0.001
Mof_C 	C 	0.5526	0.0827	0.7569	-0.19
Mof_H 	H 	0.625	0.0693	0.755	0.092
Mof_C 	C 	0.3552	0.9726	0.0326	0.013
Mof_H 	H 	0.3396	0.9303	0.0825	0.03
Mof_H 	H 	0.4211	0.9604	0.003	0.018
Mof_C 	C 	0.8773	0.9859	0.3548	0.12
Mof_H 	H 	0.8838	0.973	0.3163	-0.006
Mof_C 	C 	0.3621	0.0475	0.0352	-0.106
Mof_H 	H 	0.4204	0.0776	0.9957	0.069
Mof_H 	H 	0.3716	0.0381	0.0833	0.047
Mof_C 	C 	0.825	0.9367	0.4269	-0.232
Mof_H 	H 	0.7963	0.8925	0.4353	0.116
Mof_N 	N 	0.2676	0.99	0.9975	-0.248
Mof_H 	H 	0.2532	0.9631	0.9789	0.165
Mof_N 	N 	0.2608	0.0841	0.0239	-0.26
Mof_H 	H 	0.2341	0.1223	0.0333	0.13
Mof_N 	N 	0.7653	0.9003	0.5601	-0.192
Mof_N 	N 	0.5641	0.2482	0.4659	-0.184
Mof_Mn	Mn	-0	0	-0	0.94
_end
