data_functionalizedCrystal
_audit_creation_method	'EQeq! by Chris Wilmer'
_symmetry_space_group_name_H-M	'P1'
_symmetry_Int_Tables_number	1
_symmetry_cell_setting	triclinic
loop_
_symmetry_equiv_pos_as_xyz
  x,y,z
_cell_length_a	16.9381
_cell_length_b	16.9381
_cell_length_c	32.598
_cell_angle_alpha	87.7734
_cell_angle_beta	87.7734
_cell_angle_gamma	70.3282
loop_
_atom_site_label
_atom_site_type_symbol
_atom_site_fract_x
_atom_site_fract_y
_atom_site_fract_z
_atom_site_charge
Mof_Zn	Zn	0.31359	0.85593	0.44289	1.164
Mof_Zn	Zn	0.85126	0.79706	0.19473	1.248
Mof_Zn	Zn	0.85593	0.31359	0.94289	1.164
Mof_Zn	Zn	0.79706	0.85126	0.69473	1.248
Mof_H 	H 	0.2928	0.7832	0.2929	0.065
Mof_H 	H 	0.4344	0.7842	0.2964	0.07
Mof_H 	H 	0.6255	0.8237	0.4174	0.061
Mof_H 	H 	0.6039	0.8463	0.4913	0.06
Mof_H 	H 	0.3462	0.8868	0.5953	0.067
Mof_H 	H 	0.2031	0.8857	0.5926	0.063
Mof_H 	H 	0.019	0.839	0.4756	0.06
Mof_H 	H 	0.044	0.8088	0.4016	0.065
Mof_H 	H 	0.078	0.9118	0.3216	0.11
Mof_H 	H 	0.9964	0.8796	0.2731	0.012
Mof_H 	H 	0.1262	0.6386	0.286	0.013
Mof_H 	H 	0.2059	0.6677	0.3359	0.099
Mof_H 	H 	0.9986	0.6724	0.2046	0.185
Mof_H 	H 	0.505	0.9062	0.3123	0.15
Mof_H 	H 	0.6142	0.8854	0.2655	-0.028
Mof_H 	H 	0.7429	0.6731	0.3222	0.002
Mof_H 	H 	0.6298	0.6918	0.3687	0.107
Mof_H 	H 	0.7077	0.8781	0.2362	0.223
Mof_H 	H 	0.4391	0.9947	0.5604	0.1
Mof_H 	H 	0.517	0.0098	0.6169	0.007
Mof_H 	H 	0.6475	0.7655	0.6133	0.001
Mof_H 	H 	0.5688	0.7514	0.5597	0.109
Mof_H 	H 	0.0243	0.9891	0.5389	0.105
Mof_H 	H 	0.9176	0.996	0.5853	-0.012
Mof_H 	H 	0.0197	0.7545	0.6112	0.011
Mof_H 	H 	0.1264	0.7426	0.5618	0.099
Mof_H 	H 	0.7832	0.2928	0.7929	0.065
Mof_H 	H 	0.7842	0.4344	0.7964	0.07
Mof_H 	H 	0.8237	0.6255	0.9174	0.061
Mof_H 	H 	0.8463	0.6039	0.9913	0.059
Mof_H 	H 	0.8868	0.3462	0.0953	0.067
Mof_H 	H 	0.8857	0.2031	0.0926	0.063
Mof_H 	H 	0.839	0.019	0.9756	0.06
Mof_H 	H 	0.8088	0.044	0.9016	0.065
Mof_H 	H 	0.9118	0.078	0.8216	0.11
Mof_H 	H 	0.8796	0.9964	0.7731	0.012
Mof_H 	H 	0.6386	0.1262	0.786	0.013
Mof_H 	H 	0.6677	0.2059	0.8359	0.099
Mof_H 	H 	0.6724	0.9986	0.7046	0.184
Mof_H 	H 	0.9062	0.505	0.8123	0.15
Mof_H 	H 	0.8854	0.6142	0.7655	-0.028
Mof_H 	H 	0.6731	0.7429	0.8222	0.002
Mof_H 	H 	0.6918	0.6298	0.8687	0.107
Mof_H 	H 	0.8781	0.7077	0.7362	0.223
Mof_H 	H 	0.9947	0.4391	0.0604	0.101
Mof_H 	H 	0.0098	0.517	0.1169	0.006
Mof_H 	H 	0.7655	0.6475	0.1133	0.001
Mof_H 	H 	0.7514	0.5688	0.0597	0.109
Mof_H 	H 	0.9891	0.0243	0.0389	0.105
Mof_H 	H 	0.996	0.9176	0.0853	-0.012
Mof_H 	H 	0.7545	0.0197	0.1112	0.011
Mof_H 	H 	0.7426	0.1264	0.0618	0.099
Mof_C 	C 	0.16136	0.82396	0.4068	0.105
Mof_C 	C 	0.19901	0.81001	0.36784	-0.159
Mof_C 	C 	0.2792	0.8068	0.35672	0.107
Mof_C 	C 	0.318	0.792	0.31635	-0.078
Mof_C 	C 	0.3956	0.7928	0.3182	-0.078
Mof_C 	C 	0.4096	0.8092	0.36017	0.113
Mof_C 	C 	0.48418	0.81198	0.37437	-0.171
Mof_C 	C 	0.49996	0.82276	0.41644	0.097
Mof_C 	C 	0.57655	0.82835	0.43258	-0.084
Mof_C 	C 	0.5648	0.8414	0.47321	-0.089
Mof_C 	C 	0.48053	0.84613	0.48306	0.1
Mof_C 	C 	0.44143	0.86143	0.52207	-0.166
Mof_C 	C 	0.35977	0.86677	0.53181	0.107
Mof_C 	C 	0.3204	0.8796	0.57177	-0.089
Mof_C 	C 	0.2417	0.8795	0.57078	-0.081
Mof_C 	C 	0.23003	0.86763	0.52818	0.102
Mof_C 	C 	0.15586	0.85966	0.51408	-0.163
Mof_C 	C 	0.14164	0.84544	0.47362	0.101
Mof_C 	C 	0.06714	0.83554	0.45996	-0.088
Mof_C 	C 	0.08106	0.82006	0.41886	-0.087
Mof_C 	C 	0.14593	0.79493	0.33456	0.16
Mof_C 	C 	0.0875	0.8561	0.31532	-0.205
Mof_C 	C 	0.0398	0.8368	0.28526	0.103
Mof_C 	C 	0.05625	0.75665	0.27384	-0.161
Mof_C 	C 	0.1163	0.6939	0.2931	0.105
Mof_C 	C 	0.1635	0.7109	0.3233	-0.194
Mof_C 	C 	0.001	0.7418	0.24136	0.392
Mof_C 	C 	0.5537	0.8013	0.34513	0.197
Mof_C 	C 	0.5519	0.8581	0.3146	-0.258
Mof_C 	C 	0.6184	0.846	0.28674	0.164
Mof_C 	C 	0.68876	0.77916	0.28953	-0.198
Mof_C 	C 	0.6948	0.72	0.31992	0.127
Mof_C 	C 	0.6264	0.7318	0.34782	-0.22
Mof_C 	C 	0.7641	0.7637	0.25995	0.374
Mof_C 	C 	0.49692	0.86952	0.55622	0.17
Mof_C 	C 	0.4805	0.9485	0.57161	-0.2
Mof_C 	C 	0.52855	0.95775	0.60514	0.095
Mof_C 	C 	0.5928	0.8882	0.62007	-0.181
Mof_C 	C 	0.6056	0.8126	0.60312	0.127
Mof_C 	C 	0.5579	0.8037	0.57094	-0.227
Mof_C 	C 	0.6438	0.9008	0.65337	0.402
Mof_C 	C 	0.08516	0.86756	0.54452	0.16
Mof_C 	C 	0.0237	0.9403	0.55283	-0.222
Mof_C 	C 	0.9599	0.9449	0.58115	0.124
Mof_C 	C 	0.95837	0.87597	0.60302	-0.174
Mof_C 	C 	0.0203	0.8019	0.59598	0.102
Mof_C 	C 	0.0851	0.7941	0.56658	-0.193
Mof_C 	C 	0.8922	0.8778	0.63455	0.349
Mof_C 	C 	0.82396	0.16136	0.9068	0.105
Mof_C 	C 	0.81001	0.19901	0.86784	-0.159
Mof_C 	C 	0.8068	0.2792	0.85672	0.107
Mof_C 	C 	0.792	0.318	0.81635	-0.078
Mof_C 	C 	0.7928	0.3956	0.8182	-0.078
Mof_C 	C 	0.8092	0.4096	0.86017	0.113
Mof_C 	C 	0.81198	0.48418	0.87437	-0.171
Mof_C 	C 	0.82276	0.49996	0.91644	0.097
Mof_C 	C 	0.82835	0.57655	0.93258	-0.084
Mof_C 	C 	0.8414	0.5648	0.97321	-0.089
Mof_C 	C 	0.84613	0.48053	0.98306	0.099
Mof_C 	C 	0.86143	0.44143	0.02207	-0.165
Mof_C 	C 	0.86677	0.35977	0.03181	0.107
Mof_C 	C 	0.8796	0.3204	0.07177	-0.089
Mof_C 	C 	0.8795	0.2417	0.07078	-0.081
Mof_C 	C 	0.86763	0.23003	0.02818	0.102
Mof_C 	C 	0.85966	0.15586	0.01408	-0.162
Mof_C 	C 	0.84544	0.14164	0.97362	0.101
Mof_C 	C 	0.83554	0.06714	0.95996	-0.087
Mof_C 	C 	0.82006	0.08106	0.91886	-0.087
Mof_C 	C 	0.79493	0.14593	0.83456	0.16
Mof_C 	C 	0.8561	0.0875	0.81532	-0.206
Mof_C 	C 	0.8368	0.0398	0.78526	0.103
Mof_C 	C 	0.75665	0.05625	0.77384	-0.161
Mof_C 	C 	0.6939	0.1163	0.7931	0.105
Mof_C 	C 	0.7109	0.1635	0.8233	-0.194
Mof_C 	C 	0.7418	0.001	0.74136	0.392
Mof_C 	C 	0.8013	0.5537	0.84513	0.197
Mof_C 	C 	0.8581	0.5519	0.8146	-0.258
Mof_C 	C 	0.846	0.6184	0.78674	0.164
Mof_C 	C 	0.77916	0.68876	0.78953	-0.198
Mof_C 	C 	0.72	0.6948	0.81992	0.127
Mof_C 	C 	0.7318	0.6264	0.84782	-0.22
Mof_C 	C 	0.7637	0.7641	0.75995	0.374
Mof_C 	C 	0.86952	0.49692	0.05622	0.17
Mof_C 	C 	0.9485	0.4805	0.07161	-0.201
Mof_C 	C 	0.95775	0.52855	0.10514	0.096
Mof_C 	C 	0.8882	0.5928	0.12007	-0.182
Mof_C 	C 	0.8126	0.6056	0.10312	0.127
Mof_C 	C 	0.8037	0.5579	0.07094	-0.227
Mof_C 	C 	0.9008	0.6438	0.15337	0.402
Mof_C 	C 	0.86756	0.08516	0.04452	0.159
Mof_C 	C 	0.9403	0.0237	0.05283	-0.222
Mof_C 	C 	0.9449	0.9599	0.08115	0.123
Mof_C 	C 	0.87597	0.95837	0.10302	-0.174
Mof_C 	C 	0.8019	0.0203	0.09598	0.102
Mof_C 	C 	0.7941	0.0851	0.06658	-0.193
Mof_C 	C 	0.8778	0.8922	0.13455	0.349
Mof_N 	N 	0.33656	0.81896	0.38293	-0.284
Mof_N 	N 	0.44031	0.83531	0.44826	-0.282
Mof_N 	N 	0.30127	0.86087	0.50547	-0.292
Mof_N 	N 	0.20024	0.83704	0.4414	-0.285
Mof_N 	N 	0.81896	0.33656	0.88293	-0.284
Mof_N 	N 	0.83531	0.44031	0.94826	-0.282
Mof_N 	N 	0.86087	0.30127	0.00547	-0.291
Mof_N 	N 	0.83704	0.20024	0.9414	-0.285
Mof_O 	O 	0.02017	0.66377	0.23243	-0.372
Mof_O 	O 	0.9452	0.801	0.22627	-0.47
Mof_O 	O 	0.82601	0.70121	0.26108	-0.311
Mof_O 	O 	0.75372	0.82712	0.2324	-0.574
Mof_O 	O 	0.70775	0.84215	0.66137	-0.465
Mof_O 	O 	0.6197	0.9699	0.67102	-0.323
Mof_O 	O 	0.90117	0.82097	0.66098	-0.437
Mof_O 	O 	0.82278	0.93978	0.6324	-0.337
Mof_O 	O 	0.66377	0.02017	0.73243	-0.372
Mof_O 	O 	0.801	0.9452	0.72627	-0.47
Mof_O 	O 	0.70121	0.82601	0.76108	-0.311
Mof_O 	O 	0.82712	0.75372	0.7324	-0.574
Mof_O 	O 	0.84215	0.70775	0.16137	-0.466
Mof_O 	O 	0.9699	0.6197	0.17102	-0.323
Mof_O 	O 	0.82097	0.90117	0.16098	-0.437
Mof_O 	O 	0.93978	0.82278	0.1324	-0.337
Mof_Zn	Zn	0.14407	0.68641	0.05711	1.165
Mof_Zn	Zn	0.20294	0.14874	0.30527	1.249
Mof_Zn	Zn	0.68641	0.14407	0.55711	1.165
Mof_Zn	Zn	0.14874	0.20294	0.80527	1.249
Mof_H 	H 	0.2168	0.7072	0.2071	0.065
Mof_H 	H 	0.2158	0.5656	0.2036	0.07
Mof_H 	H 	0.1763	0.3745	0.0826	0.061
Mof_H 	H 	0.1537	0.3961	0.0087	0.059
Mof_H 	H 	0.1132	0.6538	0.9047	0.067
Mof_H 	H 	0.1143	0.7969	0.9074	0.063
Mof_H 	H 	0.161	0.981	0.0244	0.06
Mof_H 	H 	0.1912	0.956	0.0984	0.065
Mof_H 	H 	0.0882	0.922	0.1784	0.11
Mof_H 	H 	0.1204	0.0036	0.2269	0.012
Mof_H 	H 	0.3614	0.8738	0.214	0.013
Mof_H 	H 	0.3323	0.7941	0.1641	0.099
Mof_H 	H 	0.3276	0.0014	0.2954	0.184
Mof_H 	H 	0.0938	0.495	0.1877	0.15
Mof_H 	H 	0.1146	0.3858	0.2345	-0.028
Mof_H 	H 	0.3269	0.2571	0.1778	0.002
Mof_H 	H 	0.3082	0.3702	0.1313	0.107
Mof_H 	H 	0.1219	0.2923	0.2638	0.223
Mof_H 	H 	0.0053	0.5609	0.9396	0.101
Mof_H 	H 	0.9902	0.483	0.8831	0.006
Mof_H 	H 	0.2345	0.3525	0.8867	0.001
Mof_H 	H 	0.2486	0.4312	0.9403	0.109
Mof_H 	H 	0.0109	0.9757	0.9611	0.105
Mof_H 	H 	0.004	0.0824	0.9147	-0.012
Mof_H 	H 	0.2455	0.9803	0.8888	0.011
Mof_H 	H 	0.2574	0.8736	0.9382	0.099
Mof_H 	H 	0.7072	0.2168	0.7071	0.065
Mof_H 	H 	0.5656	0.2158	0.7036	0.07
Mof_H 	H 	0.3745	0.1763	0.5826	0.061
Mof_H 	H 	0.3961	0.1537	0.5087	0.06
Mof_H 	H 	0.6538	0.1132	0.4047	0.067
Mof_H 	H 	0.7969	0.1143	0.4074	0.063
Mof_H 	H 	0.981	0.161	0.5244	0.06
Mof_H 	H 	0.956	0.1912	0.5984	0.065
Mof_H 	H 	0.922	0.0882	0.6784	0.11
Mof_H 	H 	0.0036	0.1204	0.7269	0.012
Mof_H 	H 	0.8738	0.3614	0.714	0.013
Mof_H 	H 	0.7941	0.3323	0.6641	0.099
Mof_H 	H 	0.0014	0.3276	0.7954	0.185
Mof_H 	H 	0.495	0.0938	0.6877	0.15
Mof_H 	H 	0.3858	0.1146	0.7345	-0.028
Mof_H 	H 	0.2571	0.3269	0.6778	0.002
Mof_H 	H 	0.3702	0.3082	0.6313	0.107
Mof_H 	H 	0.2923	0.1219	0.7638	0.223
Mof_H 	H 	0.5609	0.0053	0.4396	0.1
Mof_H 	H 	0.483	0.9902	0.3831	0.007
Mof_H 	H 	0.3525	0.2345	0.3867	0.001
Mof_H 	H 	0.4312	0.2486	0.4403	0.109
Mof_H 	H 	0.9757	0.0109	0.4611	0.105
Mof_H 	H 	0.0824	0.004	0.4147	-0.012
Mof_H 	H 	0.9803	0.2455	0.3888	0.011
Mof_H 	H 	0.8736	0.2574	0.4382	0.099
Mof_C 	C 	0.17604	0.83864	0.0932	0.105
Mof_C 	C 	0.18999	0.80099	0.13216	-0.159
Mof_C 	C 	0.1932	0.7208	0.14328	0.107
Mof_C 	C 	0.208	0.682	0.18365	-0.078
Mof_C 	C 	0.2072	0.6044	0.1818	-0.078
Mof_C 	C 	0.1908	0.5904	0.13983	0.113
Mof_C 	C 	0.18802	0.51582	0.12563	-0.171
Mof_C 	C 	0.17724	0.50004	0.08356	0.097
Mof_C 	C 	0.17165	0.42345	0.06742	-0.084
Mof_C 	C 	0.1586	0.4352	0.02679	-0.089
Mof_C 	C 	0.15387	0.51947	0.01694	0.099
Mof_C 	C 	0.13857	0.55857	0.97793	-0.165
Mof_C 	C 	0.13323	0.64023	0.96819	0.107
Mof_C 	C 	0.1204	0.6796	0.92823	-0.089
Mof_C 	C 	0.1205	0.7583	0.92922	-0.081
Mof_C 	C 	0.13237	0.76997	0.97182	0.102
Mof_C 	C 	0.14034	0.84414	0.98592	-0.162
Mof_C 	C 	0.15456	0.85836	0.02638	0.101
Mof_C 	C 	0.16446	0.93286	0.04004	-0.087
Mof_C 	C 	0.17994	0.91894	0.08114	-0.087
Mof_C 	C 	0.20507	0.85407	0.16544	0.16
Mof_C 	C 	0.1439	0.9125	0.18468	-0.206
Mof_C 	C 	0.1632	0.9602	0.21474	0.103
Mof_C 	C 	0.24335	0.94375	0.22616	-0.161
Mof_C 	C 	0.3061	0.8837	0.2069	0.105
Mof_C 	C 	0.2891	0.8365	0.1767	-0.194
Mof_C 	C 	0.2582	0.999	0.25864	0.392
Mof_C 	C 	0.1987	0.4463	0.15487	0.197
Mof_C 	C 	0.1419	0.4481	0.1854	-0.258
Mof_C 	C 	0.154	0.3816	0.21326	0.164
Mof_C 	C 	0.22084	0.31124	0.21047	-0.198
Mof_C 	C 	0.28	0.3052	0.18008	0.127
Mof_C 	C 	0.2682	0.3736	0.15218	-0.22
Mof_C 	C 	0.2363	0.2359	0.24005	0.374
Mof_C 	C 	0.13048	0.50308	0.94378	0.17
Mof_C 	C 	0.0515	0.5195	0.92839	-0.201
Mof_C 	C 	0.04225	0.47145	0.89486	0.096
Mof_C 	C 	0.1118	0.4072	0.87993	-0.182
Mof_C 	C 	0.1874	0.3944	0.89688	0.127
Mof_C 	C 	0.1963	0.4421	0.92906	-0.227
Mof_C 	C 	0.0992	0.3562	0.84663	0.402
Mof_C 	C 	0.13244	0.91484	0.95548	0.159
Mof_C 	C 	0.0597	0.9763	0.94717	-0.222
Mof_C 	C 	0.0551	0.0401	0.91885	0.123
Mof_C 	C 	0.12403	0.04163	0.89698	-0.174
Mof_C 	C 	0.1981	0.9797	0.90402	0.102
Mof_C 	C 	0.2059	0.9149	0.93342	-0.193
Mof_C 	C 	0.1222	0.1078	0.86545	0.349
Mof_C 	C 	0.83864	0.17604	0.5932	0.105
Mof_C 	C 	0.80099	0.18999	0.63216	-0.159
Mof_C 	C 	0.7208	0.1932	0.64328	0.107
Mof_C 	C 	0.682	0.208	0.68365	-0.078
Mof_C 	C 	0.6044	0.2072	0.6818	-0.078
Mof_C 	C 	0.5904	0.1908	0.63983	0.113
Mof_C 	C 	0.51582	0.18802	0.62563	-0.171
Mof_C 	C 	0.50004	0.17724	0.58356	0.097
Mof_C 	C 	0.42345	0.17165	0.56742	-0.084
Mof_C 	C 	0.4352	0.1586	0.52679	-0.089
Mof_C 	C 	0.51947	0.15387	0.51694	0.1
Mof_C 	C 	0.55857	0.13857	0.47793	-0.166
Mof_C 	C 	0.64023	0.13323	0.46819	0.107
Mof_C 	C 	0.6796	0.1204	0.42823	-0.089
Mof_C 	C 	0.7583	0.1205	0.42922	-0.081
Mof_C 	C 	0.76997	0.13237	0.47182	0.102
Mof_C 	C 	0.84414	0.14034	0.48592	-0.163
Mof_C 	C 	0.85836	0.15456	0.52638	0.101
Mof_C 	C 	0.93286	0.16446	0.54004	-0.088
Mof_C 	C 	0.91894	0.17994	0.58114	-0.087
Mof_C 	C 	0.85407	0.20507	0.66544	0.16
Mof_C 	C 	0.9125	0.1439	0.68468	-0.205
Mof_C 	C 	0.9602	0.1632	0.71474	0.103
Mof_C 	C 	0.94375	0.24335	0.72616	-0.161
Mof_C 	C 	0.8837	0.3061	0.7069	0.105
Mof_C 	C 	0.8365	0.2891	0.6767	-0.194
Mof_C 	C 	0.999	0.2582	0.75864	0.392
Mof_C 	C 	0.4463	0.1987	0.65487	0.197
Mof_C 	C 	0.4481	0.1419	0.6854	-0.258
Mof_C 	C 	0.3816	0.154	0.71326	0.164
Mof_C 	C 	0.31124	0.22084	0.71047	-0.198
Mof_C 	C 	0.3052	0.28	0.68008	0.127
Mof_C 	C 	0.3736	0.2682	0.65218	-0.22
Mof_C 	C 	0.2359	0.2363	0.74005	0.374
Mof_C 	C 	0.50308	0.13048	0.44378	0.17
Mof_C 	C 	0.5195	0.0515	0.42839	-0.2
Mof_C 	C 	0.47145	0.04225	0.39486	0.095
Mof_C 	C 	0.4072	0.1118	0.37993	-0.181
Mof_C 	C 	0.3944	0.1874	0.39688	0.127
Mof_C 	C 	0.4421	0.1963	0.42906	-0.227
Mof_C 	C 	0.3562	0.0992	0.34663	0.402
Mof_C 	C 	0.91484	0.13244	0.45548	0.16
Mof_C 	C 	0.9763	0.0597	0.44717	-0.222
Mof_C 	C 	0.0401	0.0551	0.41885	0.124
Mof_C 	C 	0.04163	0.12403	0.39698	-0.174
Mof_C 	C 	0.9797	0.1981	0.40402	0.102
Mof_C 	C 	0.9149	0.2059	0.43342	-0.193
Mof_C 	C 	0.1078	0.1222	0.36545	0.349
Mof_N 	N 	0.18104	0.66344	0.11707	-0.284
Mof_N 	N 	0.16469	0.55969	0.05174	-0.282
Mof_N 	N 	0.13913	0.69873	0.99453	-0.291
Mof_N 	N 	0.16296	0.79976	0.0586	-0.285
Mof_N 	N 	0.66344	0.18104	0.61707	-0.284
Mof_N 	N 	0.55969	0.16469	0.55174	-0.282
Mof_N 	N 	0.69873	0.13913	0.49453	-0.292
Mof_N 	N 	0.79976	0.16296	0.5586	-0.285
Mof_O 	O 	0.33623	0.97983	0.26757	-0.372
Mof_O 	O 	0.199	0.0548	0.27373	-0.47
Mof_O 	O 	0.29879	0.17399	0.23892	-0.311
Mof_O 	O 	0.17288	0.24628	0.2676	-0.574
Mof_O 	O 	0.15785	0.29225	0.83863	-0.466
Mof_O 	O 	0.0301	0.3803	0.82898	-0.323
Mof_O 	O 	0.17903	0.09883	0.83902	-0.437
Mof_O 	O 	0.06022	0.17722	0.8676	-0.337
Mof_O 	O 	0.97983	0.33623	0.76757	-0.372
Mof_O 	O 	0.0548	0.199	0.77373	-0.47
Mof_O 	O 	0.17399	0.29879	0.73892	-0.311
Mof_O 	O 	0.24628	0.17288	0.7676	-0.574
Mof_O 	O 	0.29225	0.15785	0.33863	-0.465
Mof_O 	O 	0.3803	0.0301	0.32898	-0.323
Mof_O 	O 	0.09883	0.17903	0.33902	-0.437
Mof_O 	O 	0.17722	0.06022	0.3676	-0.337
_end
