data_functionalizedCrystal
_audit_creation_method	'EQeq! by Chris Wilmer'
_symmetry_space_group_name_H-M	'P1'
_symmetry_Int_Tables_number	1
_symmetry_cell_setting	triclinic
loop_
_symmetry_equiv_pos_as_xyz
  x,y,z
_cell_length_a	8.6839
_cell_length_b	9.2922
_cell_length_c	31.729
_cell_angle_alpha	90
_cell_angle_beta	90
_cell_angle_gamma	98.514
loop_
_atom_site_label
_atom_site_type_symbol
_atom_site_fract_x
_atom_site_fract_y
_atom_site_fract_z
_atom_site_charge
Mof_Gd	Gd	0.56198	0.20044	0.7831	1.896
Mof_Gd	Gd	0.24532	0.68662	0.0298	1.599
Mof_Gd	Gd	0.93802	0.29956	0.2831	1.857
Mof_Gd	Gd	0.25468	0.81338	0.5298	1.598
Mof_Gd	Gd	0.43802	0.79956	0.2169	1.896
Mof_Gd	Gd	0.75468	0.31338	0.9702	1.599
Mof_Gd	Gd	0.06198	0.70044	0.7169	1.856
Mof_Gd	Gd	0.74532	0.18662	0.4702	1.597
Mof_P 	P 	0.246	0.4354	0.77453	0.526
Mof_P 	P 	0.0763	0.5628	0.92489	0.54
Mof_P 	P 	0.254	0.0646	0.27453	0.522
Mof_P 	P 	0.4237	0.9372	0.42489	0.548
Mof_P 	P 	0.754	0.5646	0.22547	0.526
Mof_P 	P 	0.9237	0.4372	0.07511	0.54
Mof_P 	P 	0.746	0.9354	0.72547	0.522
Mof_P 	P 	0.5763	0.0628	0.57511	0.548
Mof_H 	H 	0.1322	0.7395	0.8897	0.255
Mof_H 	H 	0.291	0.3532	0.8569	0.125
Mof_H 	H 	0.3454	0.5822	0.8302	0.121
Mof_H 	H 	0.1657	0.5854	0.8259	0.139
Mof_H 	H 	0.3262	0.536	0.9053	0.115
Mof_H 	H 	0.2398	0.3887	0.9224	0.105
Mof_H 	H 	0.9785	0.3646	0.8515	0.123
Mof_H 	H 	0.0462	0.2412	0.8761	0.085
Mof_H 	H 	0.1611	0.1725	0.8133	0.021
Mof_H 	H 	0.9795	0.156	0.8088	0.045
Mof_H 	H 	0.3678	0.7605	0.3897	0.256
Mof_H 	H 	0.209	0.1468	0.3569	0.125
Mof_H 	H 	0.1546	0.9178	0.3302	0.123
Mof_H 	H 	0.3343	0.9146	0.3259	0.141
Mof_H 	H 	0.1738	0.964	0.4053	0.118
Mof_H 	H 	0.2602	0.1113	0.4224	0.107
Mof_H 	H 	0.5215	0.1354	0.3515	0.111
Mof_H 	H 	0.4538	0.2588	0.3761	0.084
Mof_H 	H 	0.3389	0.3275	0.3133	0.017
Mof_H 	H 	0.5205	0.344	0.3088	0.032
Mof_H 	H 	0.8678	0.2605	0.1103	0.255
Mof_H 	H 	0.709	0.6468	0.1431	0.125
Mof_H 	H 	0.6546	0.4178	0.1698	0.121
Mof_H 	H 	0.8343	0.4146	0.1741	0.139
Mof_H 	H 	0.6738	0.464	0.0947	0.115
Mof_H 	H 	0.7602	0.6113	0.0776	0.105
Mof_H 	H 	0.0215	0.6354	0.1485	0.123
Mof_H 	H 	0.9538	0.7588	0.1239	0.085
Mof_H 	H 	0.8389	0.8275	0.1867	0.021
Mof_H 	H 	0.0205	0.844	0.1912	0.045
Mof_H 	H 	0.6322	0.2395	0.6103	0.256
Mof_H 	H 	0.791	0.8532	0.6431	0.125
Mof_H 	H 	0.8454	0.0822	0.6698	0.123
Mof_H 	H 	0.6657	0.0854	0.6741	0.141
Mof_H 	H 	0.8262	0.036	0.5947	0.118
Mof_H 	H 	0.7398	0.8887	0.5776	0.107
Mof_H 	H 	0.4785	0.8646	0.6485	0.111
Mof_H 	H 	0.5462	0.7412	0.6239	0.084
Mof_H 	H 	0.6611	0.6725	0.6867	0.017
Mof_H 	H 	0.4795	0.656	0.6912	0.032
Mof_C 	C 	0.2454	0.5225	0.8253	-0.254
Mof_C 	C 	0.2293	0.4692	0.9037	-0.246
Mof_C 	C 	0.0645	0.309	0.8528	-0.157
Mof_C 	C 	0.0734	0.226	0.812	0.07
Mof_C 	C 	0.7884	0.4299	0.7271	0.273
Mof_C 	C 	0.8206	0.4839	0.7728	0.256
Mof_C 	C 	0.5565	0.2612	0.8843	0.249
Mof_C 	C 	0.6878	0.1698	0.8778	0.266
Mof_C 	C 	0.4525	0.4306	0.0098	0.251
Mof_C 	C 	0.2546	0.9775	0.3253	-0.25
Mof_C 	C 	0.2707	0.0308	0.4037	-0.249
Mof_C 	C 	0.4355	0.191	0.3528	-0.143
Mof_C 	C 	0.4266	0.274	0.312	0.086
Mof_C 	C 	0.7116	0.0701	0.2271	0.266
Mof_C 	C 	0.6794	0.0161	0.2728	0.248
Mof_C 	C 	0.9435	0.2388	0.3843	0.231
Mof_C 	C 	0.8122	0.3302	0.3778	0.27
Mof_C 	C 	0.0475	0.0694	0.5098	0.253
Mof_C 	C 	0.7546	0.4775	0.1747	-0.254
Mof_C 	C 	0.7707	0.5308	0.0963	-0.246
Mof_C 	C 	0.9355	0.691	0.1472	-0.157
Mof_C 	C 	0.9266	0.774	0.188	0.07
Mof_C 	C 	0.2116	0.5701	0.2729	0.273
Mof_C 	C 	0.1794	0.5161	0.2272	0.256
Mof_C 	C 	0.4435	0.7388	0.1157	0.249
Mof_C 	C 	0.3122	0.8302	0.1222	0.266
Mof_C 	C 	0.5475	0.5694	0.9902	0.251
Mof_C 	C 	0.7454	0.0225	0.6747	-0.25
Mof_C 	C 	0.7293	0.9692	0.5963	-0.249
Mof_C 	C 	0.5645	0.809	0.6472	-0.143
Mof_C 	C 	0.5734	0.726	0.688	0.086
Mof_C 	C 	0.2884	0.9299	0.7729	0.266
Mof_C 	C 	0.3206	0.9839	0.7272	0.248
Mof_C 	C 	0.0565	0.7612	0.6157	0.231
Mof_C 	C 	0.1878	0.6698	0.6222	0.27
Mof_C 	C 	0.9525	0.9306	0.4902	0.253
Mof_N 	N 	0.2145	0.4098	0.8596	-0.093
Mof_N 	N 	0.2855	0.0902	0.3596	-0.095
Mof_N 	N 	0.7855	0.5902	0.1404	-0.093
Mof_N 	N 	0.7145	0.9098	0.6404	-0.095
Mof_O 	O 	0.3839	0.3589	0.7722	-0.437
Mof_O 	O 	0.0909	0.3215	0.7752	-0.271
Mof_O 	O 	0.2275	0.5421	0.7405	-0.424
Mof_O 	O 	0.1442	0.6293	0.9644	-0.492
Mof_O 	O 	0.0519	0.6813	0.8919	-0.439
Mof_O 	O 	0.9258	0.4627	0.928	-0.426
Mof_O 	O 	0.6846	0.3229	0.7222	-0.386
Mof_O 	O 	0.8696	0.5003	0.6991	-0.396
Mof_O 	O 	0.7467	0.41	0.8016	-0.385
Mof_O 	O 	0.9178	0.597	0.7779	-0.354
Mof_O 	O 	0.5429	0.3159	0.9192	-0.376
Mof_O 	O 	0.4668	0.2679	0.8532	-0.377
Mof_O 	O 	0.7732	0.1586	0.909	-0.404
Mof_O 	O 	0.7008	0.1158	0.8422	-0.377
Mof_O 	O 	0.3222	0.4438	0.0256	-0.355
Mof_O 	O 	0.5149	0.3159	0.0092	-0.389
Mof_O 	O 	0.1161	0.1411	0.2722	-0.428
Mof_O 	O 	0.4091	0.1785	0.2752	-0.269
Mof_O 	O 	0.2725	0.9579	0.2405	-0.422
Mof_O 	O 	0.3558	0.8707	0.4644	-0.492
Mof_O 	O 	0.4481	0.8187	0.3919	-0.434
Mof_O 	O 	0.5742	0.0373	0.428	-0.434
Mof_O 	O 	0.8154	0.1771	0.2222	-0.387
Mof_O 	O 	0.6304	0.9997	0.1991	-0.4
Mof_O 	O 	0.7533	0.09	0.3016	-0.386
Mof_O 	O 	0.5822	0.903	0.2779	-0.359
Mof_O 	O 	0.9571	0.1841	0.4192	-0.376
Mof_O 	O 	0.0332	0.2321	0.3532	-0.359
Mof_O 	O 	0.7268	0.3414	0.409	-0.406
Mof_O 	O 	0.7992	0.3842	0.3422	-0.379
Mof_O 	O 	0.1778	0.0562	0.5256	-0.355
Mof_O 	O 	0.9851	0.1841	0.5092	-0.391
Mof_O 	O 	0.6161	0.6411	0.2278	-0.437
Mof_O 	O 	0.9091	0.6785	0.2248	-0.271
Mof_O 	O 	0.7725	0.4579	0.2595	-0.424
Mof_O 	O 	0.8558	0.3707	0.0356	-0.492
Mof_O 	O 	0.9481	0.3187	0.1081	-0.439
Mof_O 	O 	0.0742	0.5373	0.072	-0.426
Mof_O 	O 	0.3154	0.6771	0.2778	-0.386
Mof_O 	O 	0.1304	0.4997	0.3009	-0.396
Mof_O 	O 	0.2533	0.59	0.1984	-0.385
Mof_O 	O 	0.0822	0.403	0.2221	-0.354
Mof_O 	O 	0.4571	0.6841	0.0808	-0.376
Mof_O 	O 	0.5332	0.7321	0.1468	-0.377
Mof_O 	O 	0.2268	0.8414	0.091	-0.404
Mof_O 	O 	0.2992	0.8842	0.1578	-0.377
Mof_O 	O 	0.6778	0.5562	0.9744	-0.355
Mof_O 	O 	0.4851	0.6841	0.9908	-0.389
Mof_O 	O 	0.8839	0.8589	0.7278	-0.428
Mof_O 	O 	0.5909	0.8215	0.7248	-0.269
Mof_O 	O 	0.7275	0.0421	0.7595	-0.422
Mof_O 	O 	0.6442	0.1293	0.5356	-0.492
Mof_O 	O 	0.5519	0.1813	0.6081	-0.434
Mof_O 	O 	0.4258	0.9627	0.572	-0.434
Mof_O 	O 	0.1846	0.8229	0.7778	-0.387
Mof_O 	O 	0.3696	0.0003	0.8009	-0.4
Mof_O 	O 	0.2467	0.91	0.6984	-0.386
Mof_O 	O 	0.4178	0.097	0.7221	-0.359
Mof_O 	O 	0.0429	0.8159	0.5808	-0.376
Mof_O 	O 	0.9668	0.7679	0.6468	-0.359
Mof_O 	O 	0.2732	0.6586	0.591	-0.406
Mof_O 	O 	0.2008	0.6158	0.6578	-0.379
Mof_O 	O 	0.8222	0.9438	0.4744	-0.355
Mof_O 	O 	0.0149	0.8159	0.4908	-0.391
_end
