data_functionalizedCrystal
_audit_creation_method	'EQeq! by Chris Wilmer'
_symmetry_space_group_name_H-M	'P1'
_symmetry_Int_Tables_number	1
_symmetry_cell_setting	triclinic
loop_
_symmetry_equiv_pos_as_xyz
  x,y,z
_cell_length_a	21.526
_cell_length_b	7.3473
_cell_length_c	14.68
_cell_angle_alpha	90
_cell_angle_beta	90
_cell_angle_gamma	90
loop_
_atom_site_label
_atom_site_type_symbol
_atom_site_fract_x
_atom_site_fract_y
_atom_site_fract_z
_atom_site_charge
Mof_N 	N 	0.06589	0.3436	0.4402	-0.197
Mof_C 	C 	0.1131	0.6035	0.6086	0.11
Mof_H 	H 	0.124	0.4831	0.6195	-0.005
Mof_C 	C 	0.2476	0.6451	0.6709	-0.059
Mof_C 	C 	0.1984	0.853	0.7735	-0.057
Mof_H 	H 	0.246	0.5753	0.6156	0.052
Mof_H 	H 	0.1625	0.9231	0.7897	0.073
Mof_N 	N 	0.56589	0.8436	0.9402	-0.172
Mof_C 	C 	0.6131	0.1035	0.1086	0.028
Mof_H 	H 	0.624	0.9831	0.1195	0.04
Mof_C 	C 	0.7476	0.1451	0.1709	-0.057
Mof_C 	C 	0.6984	0.353	0.2735	-0.057
Mof_H 	H 	0.746	0.0753	0.1156	0.027
Mof_H 	H 	0.6625	0.4231	0.2897	0.059
Mof_N 	N 	0.93411	0.1564	0.4402	-0.174
Mof_C 	C 	0.8869	0.8965	0.6086	0.181
Mof_H 	H 	0.876	0.0169	0.6195	-0.046
Mof_C 	C 	0.7524	0.8549	0.6709	-0.057
Mof_C 	C 	0.8016	0.647	0.7735	-0.062
Mof_H 	H 	0.754	0.9247	0.6156	0.062
Mof_H 	H 	0.8375	0.5769	0.7897	0.072
Mof_N 	N 	0.43411	0.6564	0.9402	-0.168
Mof_C 	C 	0.3869	0.3965	0.1086	0.097
Mof_H 	H 	0.376	0.5169	0.1195	-0.009
Mof_C 	C 	0.2524	0.3549	0.1709	-0.056
Mof_C 	C 	0.3016	0.147	0.2735	-0.062
Mof_H 	H 	0.254	0.4247	0.1156	0.035
Mof_H 	H 	0.3375	0.0769	0.2897	0.05
Mof_N 	N 	0.93411	0.8436	0.5598	-0.182
Mof_C 	C 	0.8869	0.1035	0.3914	0.041
Mof_H 	H 	0.876	0.9831	0.3805	0.05
Mof_C 	C 	0.7524	0.1451	0.3291	-0.065
Mof_C 	C 	0.8016	0.353	0.2265	-0.066
Mof_H 	H 	0.754	0.0753	0.3844	0.044
Mof_H 	H 	0.8375	0.4231	0.2103	0.058
Mof_N 	N 	0.43411	0.3436	0.0598	-0.205
Mof_C 	C 	0.3869	0.6035	0.8914	0.119
Mof_H 	H 	0.376	0.4831	0.8805	0.004
Mof_C 	C 	0.2524	0.6451	0.8291	-0.065
Mof_C 	C 	0.3016	0.853	0.7265	-0.064
Mof_H 	H 	0.254	0.5753	0.8844	0.069
Mof_H 	H 	0.3375	0.9231	0.7103	0.069
Mof_N 	N 	0.06589	0.6564	0.5598	-0.194
Mof_C 	C 	0.1131	0.3965	0.3914	0.104
Mof_H 	H 	0.124	0.5169	0.3805	-0.003
Mof_C 	C 	0.2476	0.3549	0.3291	-0.059
Mof_C 	C 	0.1984	0.147	0.2265	-0.068
Mof_H 	H 	0.246	0.4247	0.3844	0.053
Mof_H 	H 	0.1625	0.0769	0.2103	0.041
Mof_N 	N 	0.56589	0.1564	0.0598	-0.198
Mof_C 	C 	0.6131	0.8965	0.8914	0.185
Mof_H 	H 	0.624	0.0169	0.8805	-0.041
Mof_C 	C 	0.7476	0.8549	0.8291	-0.059
Mof_C 	C 	0.6984	0.647	0.7265	-0.067
Mof_H 	H 	0.746	0.9247	0.8844	0.079
Mof_H 	H 	0.6625	0.5769	0.7103	0.06
Mof_N 	N 	0.93411	0.6564	0.5598	-0.179
Mof_C 	C 	0.8869	0.3965	0.3914	0.108
Mof_H 	H 	0.876	0.5169	0.3805	0.002
Mof_C 	C 	0.7524	0.3549	0.3291	-0.061
Mof_C 	C 	0.8016	0.147	0.2265	-0.07
Mof_H 	H 	0.754	0.4247	0.3844	0.053
Mof_H 	H 	0.8375	0.0769	0.2103	0.049
Mof_N 	N 	0.43411	0.1564	0.0598	-0.198
Mof_C 	C 	0.3869	0.8965	0.8914	0.185
Mof_H 	H 	0.376	0.0169	0.8805	-0.042
Mof_C 	C 	0.2524	0.8549	0.8291	-0.061
Mof_C 	C 	0.3016	0.647	0.7265	-0.068
Mof_H 	H 	0.254	0.9247	0.8844	0.078
Mof_H 	H 	0.3375	0.5769	0.7103	0.061
Mof_N 	N 	0.06589	0.8436	0.5598	-0.198
Mof_C 	C 	0.1131	0.1035	0.3914	0.034
Mof_H 	H 	0.124	0.9831	0.3805	0.046
Mof_C 	C 	0.2476	0.1451	0.3291	-0.063
Mof_C 	C 	0.1984	0.353	0.2265	-0.064
Mof_H 	H 	0.246	0.0753	0.3844	0.043
Mof_H 	H 	0.1625	0.4231	0.2103	0.05
Mof_N 	N 	0.56589	0.3436	0.0598	-0.205
Mof_C 	C 	0.6131	0.6035	0.8914	0.119
Mof_H 	H 	0.624	0.4831	0.8805	0.005
Mof_C 	C 	0.7476	0.6451	0.8291	-0.063
Mof_C 	C 	0.6984	0.853	0.7265	-0.063
Mof_H 	H 	0.746	0.5753	0.8844	0.071
Mof_H 	H 	0.6625	0.9231	0.7103	0.069
Mof_N 	N 	0.06589	0.1564	0.4402	-0.189
Mof_C 	C 	0.1131	0.8965	0.6086	0.178
Mof_H 	H 	0.124	0.0169	0.6195	-0.052
Mof_C 	C 	0.2476	0.8549	0.6709	-0.056
Mof_C 	C 	0.1984	0.647	0.7735	-0.06
Mof_H 	H 	0.246	0.9247	0.6156	0.061
Mof_H 	H 	0.1625	0.5769	0.7897	0.064
Mof_N 	N 	0.56589	0.6564	0.9402	-0.168
Mof_C 	C 	0.6131	0.3965	0.1086	0.097
Mof_H 	H 	0.624	0.5169	0.1195	-0.009
Mof_C 	C 	0.7476	0.3549	0.1709	-0.054
Mof_C 	C 	0.6984	0.147	0.2735	-0.061
Mof_H 	H 	0.746	0.4247	0.1156	0.036
Mof_H 	H 	0.6625	0.0769	0.2897	0.05
Mof_N 	N 	0.93411	0.3436	0.4402	-0.181
Mof_C 	C 	0.8869	0.6035	0.6086	0.114
Mof_H 	H 	0.876	0.4831	0.6195	0
Mof_C 	C 	0.7524	0.6451	0.6709	-0.061
Mof_C 	C 	0.8016	0.853	0.7735	-0.058
Mof_H 	H 	0.754	0.5753	0.6156	0.053
Mof_H 	H 	0.8375	0.9231	0.7897	0.08
Mof_N 	N 	0.43411	0.8436	0.9402	-0.172
Mof_C 	C 	0.3869	0.1035	0.1086	0.027
Mof_H 	H 	0.376	0.9831	0.1195	0.04
Mof_C 	C 	0.2524	0.1451	0.1709	-0.06
Mof_C 	C 	0.3016	0.353	0.2735	-0.059
Mof_H 	H 	0.254	0.0753	0.1156	0.025
Mof_H 	H 	0.3375	0.4231	0.2897	0.059
Mof_Br	Br	1.65098e-33	0.25	0.64568	-0.45
Mof_Br	Br	0.5	0.75	0.14568	-0.418
Mof_Br	Br	9.05983e-34	0.75	0.35432	-0.437
Mof_Br	Br	0.5	0.25	0.85432	-0.39
Mof_Cu	Cu	3.99663e-33	0.5	0.5	0.868
Mof_Cu	Cu	0.5	0	-0	0.829
Mof_Cu	Cu	3.99663e-33	0	0.5	0.852
Mof_Cu	Cu	0.5	0.5	-0	0.845
Mof_N 	N 	0.1437	0.75	0.6407	-0.171
Mof_C 	C 	0.1983	0.75	0.6971	0.128
Mof_N 	N 	0.6437	0.25	0.1407	-0.149
Mof_C 	C 	0.6983	0.25	0.1971	0.111
Mof_N 	N 	0.8563	0.75	0.6407	-0.17
Mof_C 	C 	0.8017	0.75	0.6971	0.132
Mof_N 	N 	0.3563	0.25	0.1407	-0.149
Mof_C 	C 	0.3017	0.25	0.1971	0.113
Mof_N 	N 	0.8563	0.25	0.3593	-0.15
Mof_C 	C 	0.8017	0.25	0.3029	0.127
Mof_N 	N 	0.3563	0.75	0.8593	-0.171
Mof_C 	C 	0.3017	0.75	0.8029	0.14
Mof_N 	N 	0.1437	0.25	0.3593	-0.15
Mof_C 	C 	0.1983	0.25	0.3029	0.122
Mof_N 	N 	0.6437	0.75	0.8593	-0.17
Mof_C 	C 	0.6983	0.75	0.8029	0.138
_end
