data_functionalizedCrystal
_audit_creation_method	'EQeq! by Chris Wilmer'
_symmetry_space_group_name_H-M	'P1'
_symmetry_Int_Tables_number	1
_symmetry_cell_setting	triclinic
loop_
_symmetry_equiv_pos_as_xyz
  x,y,z
_cell_length_a	12.9406
_cell_length_b	12.9406
_cell_length_c	14.639
_cell_angle_alpha	83.932
_cell_angle_beta	83.932
_cell_angle_gamma	61.6245
loop_
_atom_site_label
_atom_site_type_symbol
_atom_site_fract_x
_atom_site_fract_y
_atom_site_fract_z
_atom_site_charge
Mof_Er	Er	0.34832	0.98972	0.02755	1.752
Mof_Er	Er	0.65168	0.01028	0.97245	1.752
Mof_Er	Er	0.01028	0.65168	0.47245	1.773
Mof_Er	Er	0.98972	0.34832	0.52755	1.773
Mof_H 	H 	0.2171	0.2677	0.7646	0.009
Mof_H 	H 	0.6983	0.5223	0.6409	0.023
Mof_H 	H 	0.4732	0.714	0.8419	0.062
Mof_H 	H 	0.7323	0.7829	0.7354	0.01
Mof_H 	H 	0.5223	0.6983	0.1409	0.023
Mof_H 	H 	0.3017	0.4777	0.3591	0.023
Mof_H 	H 	0.5268	0.286	0.1581	0.062
Mof_H 	H 	0.286	0.5268	0.6581	0.061
Mof_H 	H 	0.4777	0.3017	0.8591	0.023
Mof_H 	H 	0.714	0.4732	0.3419	0.061
Mof_H 	H 	0.7829	0.7323	0.2354	0.009
Mof_H 	H 	0.2677	0.2171	0.2646	0.01
Mof_C 	C 	0.3502	0.269	0.8235	-0.176
Mof_C 	C 	0.7381	0.6933	0.237	0.105
Mof_C 	C 	0.5998	0.7602	0.7987	-0.156
Mof_C 	C 	0.3034	0.4612	0.6986	0.024
Mof_C 	C 	0.6729	0.5829	0.6803	0.032
Mof_C 	C 	0.731	0.6498	0.6765	-0.175
Mof_C 	C 	0.2398	0.4002	0.7013	-0.158
Mof_C 	C 	0.6498	0.731	0.1765	-0.176
Mof_C 	C 	0.6933	0.7381	0.737	0.103
Mof_C 	C 	0.4845	0.4603	0.2537	0.005
Mof_C 	C 	0.3271	0.4171	0.3197	0.032
Mof_C 	C 	0.2619	0.3067	0.763	0.105
Mof_C 	C 	0.3946	0.4222	0.7582	-0.019
Mof_C 	C 	0.8571	0.5605	0.3646	0.49
Mof_C 	C 	0.3708	0.1694	0.8932	0.479
Mof_C 	C 	0.1429	0.4395	0.6354	0.49
Mof_C 	C 	0.7602	0.5998	0.2987	-0.158
Mof_C 	C 	0.5605	0.8571	0.8646	0.487
Mof_C 	C 	0.269	0.3502	0.3235	-0.175
Mof_C 	C 	0.5778	0.6054	0.7418	-0.018
Mof_C 	C 	0.6966	0.5388	0.3014	0.024
Mof_C 	C 	0.5155	0.5397	0.7463	0.005
Mof_C 	C 	0.4222	0.3946	0.2582	-0.018
Mof_C 	C 	0.4171	0.3271	0.8197	0.032
Mof_C 	C 	0.3067	0.2619	0.263	0.103
Mof_C 	C 	0.6292	0.8306	0.1068	0.479
Mof_C 	C 	0.4002	0.2398	0.2013	-0.156
Mof_C 	C 	0.1694	0.3708	0.3932	0.48
Mof_C 	C 	0.8306	0.6292	0.6068	0.48
Mof_C 	C 	0.4603	0.4845	0.7537	0.006
Mof_C 	C 	0.5388	0.6966	0.8014	0.022
Mof_C 	C 	0.4395	0.1429	0.1354	0.487
Mof_C 	C 	0.5397	0.5155	0.2463	0.006
Mof_C 	C 	0.6054	0.5778	0.2418	-0.019
Mof_C 	C 	0.4612	0.3034	0.1986	0.022
Mof_C 	C 	0.5829	0.6729	0.1803	0.032
Mof_N 	N 	0.1641	0.7281	0.5332	0.072
Mof_N 	N 	0.7281	0.1641	0.0332	0.075
Mof_N 	N 	0.8359	0.2719	0.4668	0.072
Mof_N 	N 	0.2719	0.8359	0.9668	0.075
Mof_O 	O 	0.8997	0.4563	0.3968	-0.469
Mof_O 	O 	0.1003	0.5437	0.6032	-0.469
Mof_O 	O 	0.2199	0.9461	0.9511	-0.286
Mof_O 	O 	0.4639	0.1181	0.9317	-0.566
Mof_O 	O 	0.5361	0.8819	0.0683	-0.566
Mof_O 	O 	0.1156	0.3638	0.6177	-0.528
Mof_O 	O 	0.7455	0.2315	0.0728	-0.116
Mof_O 	O 	0.2876	0.1452	0.9138	-0.47
Mof_O 	O 	0.8548	0.7124	0.5862	-0.47
Mof_O 	O 	0.1181	0.4639	0.4317	-0.567
Mof_O 	O 	0.6478	0.202	0.9787	-0.281
Mof_O 	O 	0.1452	0.2876	0.4138	-0.47
Mof_O 	O 	0.4563	0.8997	0.8968	-0.462
Mof_O 	O 	0.8844	0.6362	0.3823	-0.528
Mof_O 	O 	0.2545	0.7685	0.9272	-0.116
Mof_O 	O 	0.7801	0.0539	0.0489	-0.286
Mof_O 	O 	0.0539	0.7801	0.5489	-0.292
Mof_O 	O 	0.3522	0.798	0.0213	-0.281
Mof_O 	O 	0.202	0.6478	0.4787	-0.278
Mof_O 	O 	0.798	0.3522	0.5213	-0.278
Mof_O 	O 	0.9461	0.2199	0.4511	-0.292
Mof_O 	O 	0.6362	0.8844	0.8823	-0.521
Mof_O 	O 	0.5437	0.1003	0.1032	-0.462
Mof_O 	O 	0.7124	0.8548	0.0862	-0.47
Mof_O 	O 	0.2315	0.7455	0.5728	-0.117
Mof_O 	O 	0.3638	0.1156	0.1177	-0.521
Mof_O 	O 	0.7685	0.2545	0.4272	-0.117
Mof_O 	O 	0.8819	0.5361	0.5683	-0.567
_end
