data_functionalizedCrystal
_audit_creation_method	'EQeq! by Chris Wilmer'
_symmetry_space_group_name_H-M	'P1'
_symmetry_Int_Tables_number	1
_symmetry_cell_setting	triclinic
loop_
_symmetry_equiv_pos_as_xyz
  x,y,z
_cell_length_a	18.9584
_cell_length_b	18.9584
_cell_length_c	18.9584
_cell_angle_alpha	62.9312
_cell_angle_beta	62.9312
_cell_angle_gamma	62.9312
loop_
_atom_site_label
_atom_site_type_symbol
_atom_site_fract_x
_atom_site_fract_y
_atom_site_fract_z
_atom_site_charge
Mof_Dy	Dy	0.99568	0.56638	0.55946	1.965
Mof_Dy	Dy	0.55946	0.99568	0.56638	1.965
Mof_Dy	Dy	0.56638	0.55946	0.99568	1.965
Mof_Dy	Dy	0.00432	0.43362	0.44054	1.965
Mof_Dy	Dy	0.44054	0.00432	0.43362	1.965
Mof_Dy	Dy	0.43362	0.44054	0.00432	1.965
Mof_H 	H 	0.7726	0.7626	0.4839	0.012
Mof_H 	H 	0.6062	0.8395	0.3697	0.032
Mof_H 	H 	0.8029	0.6329	0.3484	0.068
Mof_H 	H 	0.3212	0.5792	0.6332	0.138
Mof_H 	H 	0.2487	0.559	0.5795	-0.013
Mof_H 	H 	0.0537	0.5827	0.7769	-0.013
Mof_H 	H 	0.1305	0.607	0.8282	0.109
Mof_H 	H 	0.2216	0.6428	0.8219	0.074
Mof_H 	H 	0.3013	0.5628	0.8138	0.083
Mof_H 	H 	0.4839	0.7726	0.7626	0.013
Mof_H 	H 	0.3697	0.6062	0.8395	0.033
Mof_H 	H 	0.3484	0.8029	0.6329	0.069
Mof_H 	H 	0.6332	0.3212	0.5792	0.139
Mof_H 	H 	0.5795	0.2487	0.559	-0.012
Mof_H 	H 	0.7769	0.0537	0.5827	-0.012
Mof_H 	H 	0.8282	0.1305	0.607	0.109
Mof_H 	H 	0.8219	0.2216	0.6428	0.074
Mof_H 	H 	0.8138	0.3013	0.5628	0.083
Mof_H 	H 	0.7626	0.4839	0.7726	0.013
Mof_H 	H 	0.8395	0.3697	0.6062	0.033
Mof_H 	H 	0.6329	0.3484	0.8029	0.069
Mof_H 	H 	0.5792	0.6332	0.3212	0.139
Mof_H 	H 	0.559	0.5795	0.2487	-0.012
Mof_H 	H 	0.5827	0.7769	0.0537	-0.012
Mof_H 	H 	0.607	0.8282	0.1305	0.109
Mof_H 	H 	0.6428	0.8219	0.2216	0.074
Mof_H 	H 	0.5628	0.8138	0.3013	0.083
Mof_H 	H 	0.2274	0.2374	0.5161	0.013
Mof_H 	H 	0.3938	0.1605	0.6303	0.033
Mof_H 	H 	0.1971	0.3671	0.6516	0.069
Mof_H 	H 	0.6788	0.4208	0.3668	0.139
Mof_H 	H 	0.7513	0.441	0.4205	-0.012
Mof_H 	H 	0.9463	0.4173	0.2231	-0.012
Mof_H 	H 	0.8695	0.393	0.1718	0.109
Mof_H 	H 	0.7784	0.3572	0.1781	0.074
Mof_H 	H 	0.6987	0.4372	0.1862	0.083
Mof_H 	H 	0.5161	0.2274	0.2374	0.013
Mof_H 	H 	0.6303	0.3938	0.1605	0.033
Mof_H 	H 	0.6516	0.1971	0.3671	0.069
Mof_H 	H 	0.3668	0.6788	0.4208	0.139
Mof_H 	H 	0.4205	0.7513	0.441	-0.012
Mof_H 	H 	0.2231	0.9463	0.4173	-0.012
Mof_H 	H 	0.1718	0.8695	0.393	0.109
Mof_H 	H 	0.1781	0.7784	0.3572	0.074
Mof_H 	H 	0.1862	0.6987	0.4372	0.083
Mof_H 	H 	0.2374	0.5161	0.2274	0.013
Mof_H 	H 	0.1605	0.6303	0.3938	0.033
Mof_H 	H 	0.3671	0.6516	0.1971	0.069
Mof_H 	H 	0.4208	0.3668	0.6788	0.139
Mof_H 	H 	0.441	0.4205	0.7513	-0.012
Mof_H 	H 	0.4173	0.2231	0.9463	-0.012
Mof_H 	H 	0.393	0.1718	0.8695	0.109
Mof_H 	H 	0.3572	0.1781	0.7784	0.074
Mof_H 	H 	0.4372	0.1862	0.6987	0.083
Mof_C 	C 	0.8792	0.6242	0.4401	0.491
Mof_C 	C 	0.8016	0.6888	0.4174	-0.136
Mof_C 	C 	0.75529	0.75599	0.44929	0.073
Mof_C 	C 	0.68462	0.81172	0.42952	-0.146
Mof_C 	C 	0.63654	0.88264	0.46494	0.466
Mof_C 	C 	0.6559	0.8024	0.3805	-0.026
Mof_C 	C 	0.7024	0.7372	0.3473	0.096
Mof_C 	C 	0.774	0.6786	0.3679	-0.036
Mof_C 	C 	0.2342	0.5942	0.7352	0.233
Mof_C 	C 	0.2659	0.5812	0.6634	-0.274
Mof_C 	C 	0.2222	0.5704	0.63	0.169
Mof_C 	C 	0.1412	0.5763	0.6697	-0.198
Mof_C 	C 	0.0896	0.5714	0.6311	0.363
Mof_C 	C 	0.1077	0.5848	0.7451	0.143
Mof_C 	C 	0.1554	0.597	0.777	-0.25
Mof_C 	C 	0.2664	0.6131	0.7837	-0.163
Mof_C 	C 	0.4401	0.8792	0.6242	0.491
Mof_C 	C 	0.4174	0.8016	0.6888	-0.136
Mof_C 	C 	0.44929	0.75529	0.75599	0.073
Mof_C 	C 	0.42952	0.68462	0.81172	-0.146
Mof_C 	C 	0.46494	0.63654	0.88264	0.466
Mof_C 	C 	0.3805	0.6559	0.8024	-0.026
Mof_C 	C 	0.3473	0.7024	0.7372	0.096
Mof_C 	C 	0.3679	0.774	0.6786	-0.036
Mof_C 	C 	0.7352	0.2342	0.5942	0.233
Mof_C 	C 	0.6634	0.2659	0.5812	-0.274
Mof_C 	C 	0.63	0.2222	0.5704	0.169
Mof_C 	C 	0.6697	0.1412	0.5763	-0.198
Mof_C 	C 	0.6311	0.0896	0.5714	0.363
Mof_C 	C 	0.7451	0.1077	0.5848	0.143
Mof_C 	C 	0.777	0.1554	0.597	-0.25
Mof_C 	C 	0.7837	0.2664	0.6131	-0.163
Mof_C 	C 	0.6242	0.4401	0.8792	0.491
Mof_C 	C 	0.6888	0.4174	0.8016	-0.136
Mof_C 	C 	0.75599	0.44929	0.75529	0.073
Mof_C 	C 	0.81172	0.42952	0.68462	-0.146
Mof_C 	C 	0.88264	0.46494	0.63654	0.466
Mof_C 	C 	0.8024	0.3805	0.6559	-0.026
Mof_C 	C 	0.7372	0.3473	0.7024	0.096
Mof_C 	C 	0.6786	0.3679	0.774	-0.036
Mof_C 	C 	0.5942	0.7352	0.2342	0.233
Mof_C 	C 	0.5812	0.6634	0.2659	-0.274
Mof_C 	C 	0.5704	0.63	0.2222	0.169
Mof_C 	C 	0.5763	0.6697	0.1412	-0.198
Mof_C 	C 	0.5714	0.6311	0.0896	0.363
Mof_C 	C 	0.5848	0.7451	0.1077	0.143
Mof_C 	C 	0.597	0.777	0.1554	-0.25
Mof_C 	C 	0.6131	0.7837	0.2664	-0.163
Mof_C 	C 	0.1208	0.3758	0.5599	0.491
Mof_C 	C 	0.1984	0.3112	0.5826	-0.136
Mof_C 	C 	0.24471	0.24401	0.55071	0.073
Mof_C 	C 	0.31538	0.18828	0.57048	-0.146
Mof_C 	C 	0.36346	0.11736	0.53506	0.466
Mof_C 	C 	0.3441	0.1976	0.6195	-0.026
Mof_C 	C 	0.2976	0.2628	0.6527	0.096
Mof_C 	C 	0.226	0.3214	0.6321	-0.036
Mof_C 	C 	0.7658	0.4058	0.2648	0.233
Mof_C 	C 	0.7341	0.4188	0.3366	-0.274
Mof_C 	C 	0.7778	0.4296	0.37	0.169
Mof_C 	C 	0.8588	0.4237	0.3303	-0.198
Mof_C 	C 	0.9104	0.4286	0.3689	0.363
Mof_C 	C 	0.8923	0.4152	0.2549	0.143
Mof_C 	C 	0.8446	0.403	0.223	-0.25
Mof_C 	C 	0.7336	0.3869	0.2163	-0.163
Mof_C 	C 	0.5599	0.1208	0.3758	0.491
Mof_C 	C 	0.5826	0.1984	0.3112	-0.136
Mof_C 	C 	0.55071	0.24471	0.24401	0.073
Mof_C 	C 	0.57048	0.31538	0.18828	-0.146
Mof_C 	C 	0.53506	0.36346	0.11736	0.466
Mof_C 	C 	0.6195	0.3441	0.1976	-0.026
Mof_C 	C 	0.6527	0.2976	0.2628	0.096
Mof_C 	C 	0.6321	0.226	0.3214	-0.036
Mof_C 	C 	0.2648	0.7658	0.4058	0.233
Mof_C 	C 	0.3366	0.7341	0.4188	-0.274
Mof_C 	C 	0.37	0.7778	0.4296	0.169
Mof_C 	C 	0.3303	0.8588	0.4237	-0.198
Mof_C 	C 	0.3689	0.9104	0.4286	0.363
Mof_C 	C 	0.2549	0.8923	0.4152	0.143
Mof_C 	C 	0.223	0.8446	0.403	-0.25
Mof_C 	C 	0.2163	0.7336	0.3869	-0.163
Mof_C 	C 	0.3758	0.5599	0.1208	0.491
Mof_C 	C 	0.3112	0.5826	0.1984	-0.136
Mof_C 	C 	0.24401	0.55071	0.24471	0.073
Mof_C 	C 	0.18828	0.57048	0.31538	-0.146
Mof_C 	C 	0.11736	0.53506	0.36346	0.466
Mof_C 	C 	0.1976	0.6195	0.3441	-0.026
Mof_C 	C 	0.2628	0.6527	0.2976	0.096
Mof_C 	C 	0.3214	0.6321	0.226	-0.036
Mof_C 	C 	0.4058	0.2648	0.7658	0.233
Mof_C 	C 	0.4188	0.3366	0.7341	-0.274
Mof_C 	C 	0.4296	0.37	0.7778	0.169
Mof_C 	C 	0.4237	0.3303	0.8588	-0.198
Mof_C 	C 	0.4286	0.3689	0.9104	0.363
Mof_C 	C 	0.4152	0.2549	0.8923	0.143
Mof_C 	C 	0.403	0.223	0.8446	-0.25
Mof_C 	C 	0.3869	0.2163	0.7336	-0.163
Mof_O 	O 	0.89517	0.63187	0.49377	-0.555
Mof_O 	O 	0.91985	0.56925	0.40595	-0.52
Mof_O 	O 	0.11825	0.57825	0.55495	-0.456
Mof_O 	O 	0.01993	0.56103	0.67463	-0.461
Mof_O 	O 	0.56718	0.92858	0.45398	-0.596
Mof_O 	O 	0.6646	0.8924	0.5074	-0.505
Mof_O 	O 	0.6687	0.7075	0.3174	-0.172
Mof_O 	O 	0.49377	0.89517	0.63187	-0.555
Mof_O 	O 	0.40595	0.91985	0.56925	-0.52
Mof_O 	O 	0.55495	0.11825	0.57825	-0.456
Mof_O 	O 	0.67463	0.01993	0.56103	-0.461
Mof_O 	O 	0.45398	0.56718	0.92858	-0.596
Mof_O 	O 	0.5074	0.6646	0.8924	-0.505
Mof_O 	O 	0.3174	0.6687	0.7075	-0.172
Mof_O 	O 	0.63187	0.49377	0.89517	-0.555
Mof_O 	O 	0.56925	0.40595	0.91985	-0.52
Mof_O 	O 	0.57825	0.55495	0.11825	-0.456
Mof_O 	O 	0.56103	0.67463	0.01993	-0.461
Mof_O 	O 	0.92858	0.45398	0.56718	-0.596
Mof_O 	O 	0.8924	0.5074	0.6646	-0.505
Mof_O 	O 	0.7075	0.3174	0.6687	-0.172
Mof_O 	O 	0.10483	0.36813	0.50623	-0.555
Mof_O 	O 	0.08015	0.43075	0.59405	-0.52
Mof_O 	O 	0.88175	0.42175	0.44505	-0.456
Mof_O 	O 	0.98007	0.43897	0.32537	-0.461
Mof_O 	O 	0.43282	0.07142	0.54602	-0.596
Mof_O 	O 	0.3354	0.1076	0.4926	-0.505
Mof_O 	O 	0.3313	0.2925	0.6826	-0.172
Mof_O 	O 	0.50623	0.10483	0.36813	-0.555
Mof_O 	O 	0.59405	0.08015	0.43075	-0.52
Mof_O 	O 	0.44505	0.88175	0.42175	-0.456
Mof_O 	O 	0.32537	0.98007	0.43897	-0.461
Mof_O 	O 	0.54602	0.43282	0.07142	-0.596
Mof_O 	O 	0.4926	0.3354	0.1076	-0.505
Mof_O 	O 	0.6826	0.3313	0.2925	-0.172
Mof_O 	O 	0.36813	0.50623	0.10483	-0.555
Mof_O 	O 	0.43075	0.59405	0.08015	-0.52
Mof_O 	O 	0.42175	0.44505	0.88175	-0.456
Mof_O 	O 	0.43897	0.32537	0.98007	-0.461
Mof_O 	O 	0.07142	0.54602	0.43282	-0.596
Mof_O 	O 	0.1076	0.4926	0.3354	-0.505
Mof_O 	O 	0.2925	0.6826	0.3313	-0.172
_end
