data_functionalizedCrystal
_audit_creation_method	'EQeq! by Chris Wilmer'
_symmetry_space_group_name_H-M	'P1'
_symmetry_Int_Tables_number	1
_symmetry_cell_setting	triclinic
loop_
_symmetry_equiv_pos_as_xyz
  x,y,z
_cell_length_a	12.219
_cell_length_b	16.015
_cell_length_c	22.014
_cell_angle_alpha	90
_cell_angle_beta	99.223
_cell_angle_gamma	90
loop_
_atom_site_label
_atom_site_type_symbol
_atom_site_fract_x
_atom_site_fract_y
_atom_site_fract_z
_atom_site_charge
Mof_Cu	Cu	0.258	0.669	0.10889	0.821
Mof_Cu	Cu	0.9616	0.6635	0.24734	0.802
Mof_Cu	Cu	0.6112	0.5081	0.17476	0.798
Mof_Cu	Cu	0.5861	0.198	0.19689	0.819
Mof_Cu	Cu	0.0801	0.598	0.89341	0.8
Mof_Cu	Cu	0.3033	0.9796	0.12349	0.781
Mof_Cu	Cu	0.6053	0.2064	0.43022	0.827
Mof_Cu	Cu	0.0245	0.7992	0.45396	0.8
Mof_Cu	Cu	0.6659	0.9085	0.50148	0.792
Mof_N 	N 	0.149	0.6098	0.9808	-0.225
Mof_C 	C 	0.19	0.632	0.0291	-0.253
Mof_C 	C 	0.3045	0.8614	0.1148	-0.304
Mof_C 	C 	0.295	0.7916	0.1097	-0.198
Mof_N 	N 	0.1519	0.6669	0.1708	-0.21
Mof_C 	C 	0.082	0.6629	0.1991	-0.266
Mof_N 	N 	0.996	0.756	0.3715	-0.235
Mof_C 	C 	0.977	0.721	0.3246	-0.276
Mof_C 	C 	0.397	0.6076	0.1382	-0.219
Mof_C 	C 	0.474	0.5711	0.1491	-0.257
Mof_C 	C 	0.829	0.603	0.2228	-0.275
Mof_C 	C 	0.749	0.5692	0.2051	-0.242
Mof_C 	C 	0.597	0.3893	0.1714	-0.276
Mof_C 	C 	0.582	0.318	0.174	-0.21
Mof_N 	N 	0.7364	0.1604	0.1742	-0.2
Mof_C 	C 	0.187	0.6355	0.8456	-0.279
Mof_N 	N 	0.156	0.0301	0.1183	-0.211
Mof_C 	C 	0.933	0.556	0.8849	-0.28
Mof_N 	N 	0.4715	0.1168	0.1596	-0.216
Mof_C 	C 	0.409	0.0639	0.1471	-0.25
Mof_N 	N 	0.5985	0.1957	0.2896	-0.211
Mof_C 	C 	0.597	0.203	0.3432	-0.247
Mof_N 	N 	0.7484	0.2563	0.4727	-0.207
Mof_C 	C 	0.17	0.7779	0.4992	-0.275
Mof_N 	N 	0.8139	0.8698	0.4926	-0.233
Mof_C 	C 	0.898	0.847	0.4795	-0.29
Mof_N 	N 	0.4863	0.2756	0.4601	-0.206
Mof_C 	C 	0.575	0.8237	0.5247	-0.291
Mof_N 	N 	0.6069	0.0887	0.4625	-0.209
Mof_C 	C 	0.631	0.021	0.4795	-0.244
Mof_Cu	Cu	0.742	0.169	0.89111	0.823
Mof_Cu	Cu	0.0384	0.1635	0.75266	0.806
Mof_Cu	Cu	0.3888	0.0081	0.82524	0.812
Mof_Cu	Cu	0.4139	0.698	0.80311	0.814
Mof_Cu	Cu	0.9199	0.098	0.10659	0.804
Mof_Cu	Cu	0.6967	0.4796	0.87651	0.804
Mof_Cu	Cu	0.3947	0.7064	0.56978	0.823
Mof_Cu	Cu	0.9755	0.2992	0.54604	0.805
Mof_Cu	Cu	0.3341	0.4085	0.49852	0.807
Mof_N 	N 	0.851	0.1098	0.0192	-0.22
Mof_C 	C 	0.81	0.132	0.9709	-0.245
Mof_C 	C 	0.6955	0.3614	0.8852	-0.286
Mof_C 	C 	0.705	0.2916	0.8903	-0.194
Mof_N 	N 	0.8481	0.1669	0.8292	-0.207
Mof_C 	C 	0.918	0.1629	0.8009	-0.255
Mof_N 	N 	0.004	0.256	0.6285	-0.231
Mof_C 	C 	0.023	0.221	0.6754	-0.264
Mof_C 	C 	0.603	0.1076	0.8618	-0.214
Mof_C 	C 	0.526	0.0711	0.8509	-0.242
Mof_C 	C 	0.171	0.103	0.7772	-0.267
Mof_C 	C 	0.251	0.0692	0.7949	-0.228
Mof_C 	C 	0.403	0.8893	0.8286	-0.308
Mof_C 	C 	0.418	0.818	0.826	-0.21
Mof_N 	N 	0.2636	0.6604	0.8258	-0.204
Mof_C 	C 	0.813	0.1355	0.1544	-0.267
Mof_N 	N 	0.844	0.5301	0.8817	-0.224
Mof_C 	C 	0.067	0.056	0.1151	-0.265
Mof_N 	N 	0.5285	0.6168	0.8404	-0.216
Mof_C 	C 	0.591	0.5639	0.8529	-0.279
Mof_N 	N 	0.4015	0.6957	0.7104	-0.215
Mof_C 	C 	0.403	0.703	0.6568	-0.258
Mof_N 	N 	0.2516	0.7563	0.5273	-0.21
Mof_C 	C 	0.83	0.2779	0.5008	-0.262
Mof_N 	N 	0.1861	0.3698	0.5074	-0.226
Mof_C 	C 	0.102	0.347	0.5205	-0.276
Mof_N 	N 	0.5137	0.7756	0.5399	-0.209
Mof_C 	C 	0.425	0.3237	0.4753	-0.276
Mof_N 	N 	0.3931	0.5887	0.5375	-0.209
Mof_C 	C 	0.369	0.521	0.5205	-0.276
_end
