data_functionalizedCrystal
_audit_creation_method	'EQeq! by Chris Wilmer'
_symmetry_space_group_name_H-M	'P1'
_symmetry_Int_Tables_number	1
_symmetry_cell_setting	triclinic
loop_
_symmetry_equiv_pos_as_xyz
  x,y,z
_cell_length_a	7.5292
_cell_length_b	14.0999
_cell_length_c	16.591
_cell_angle_alpha	90
_cell_angle_beta	95.74
_cell_angle_gamma	90
loop_
_atom_site_label
_atom_site_type_symbol
_atom_site_fract_x
_atom_site_fract_y
_atom_site_fract_z
_atom_site_charge
Mof_Be	Be	0.3904	0.8911	0.4275	0.795
Mof_Be	Be	0.3757	0.618	0.4468	0.775
Mof_Be	Be	0.3863	0.7506	0.1351	0.783
Mof_P 	P 	0.29514	0.08948	0.44558	0.626
Mof_P 	P 	0.21684	0.7635	0.53619	0.611
Mof_P 	P 	0.47216	0.74249	0.31664	0.629
Mof_P 	P 	0.7275	0.58995	0.54088	0.631
Mof_O 	O 	0.2776	0.17456	0.38842	-0.374
Mof_O 	O 	0.1078	0.07067	0.47762	-0.411
Mof_H 	H 	0.041	0.1154	0.4653	0.314
Mof_O 	O 	0.423	0.10822	0.51863	-0.404
Mof_O 	O 	0.339	0.00051	0.399	-0.331
Mof_O 	O 	0.2351	0.84527	0.47783	-0.373
Mof_O 	O 	0.4037	0.83821	0.34243	-0.356
Mof_O 	O 	0.0423	0.77533	0.57441	-0.378
Mof_O 	O 	0.3666	0.77046	0.60948	-0.409
Mof_H 	H 	0.4601	0.7884	0.593	0.293
Mof_O 	O 	0.2211	0.66646	0.49614	-0.376
Mof_O 	O 	0.4628	0.73548	0.22614	-0.35
Mof_O 	O 	0.6782	0.73342	0.34743	-0.4
Mof_H 	H 	0.6893	0.7078	0.392	0.287
Mof_O 	O 	0.375	0.66023	0.35394	-0.349
Mof_O 	O 	0.5711	0.6418	0.49567	-0.397
Mof_O 	O 	0.8082	0.64219	0.61662	-0.353
Mof_O 	O 	0.6779	0.49122	0.56478	-0.36
Mof_O 	O 	0.8737	0.5847	0.47867	-0.435
Mof_H 	H 	0.9631	0.6138	0.497	0.309
Mof_Be	Be	0.1096	0.3911	0.0725	0.792
Mof_Be	Be	0.1243	0.118	0.0532	0.77
Mof_Be	Be	0.1137	0.2506	0.3649	0.783
Mof_P 	P 	0.20486	0.58948	0.05442	0.621
Mof_P 	P 	0.28316	0.2635	0.96381	0.609
Mof_P 	P 	0.02784	0.24249	0.18336	0.626
Mof_P 	P 	0.7725	0.08995	0.95912	0.616
Mof_O 	O 	0.2224	0.67456	0.11158	-0.374
Mof_O 	O 	0.3922	0.57067	0.02238	-0.41
Mof_H 	H 	0.459	0.6154	0.0347	0.314
Mof_O 	O 	0.077	0.60822	0.98137	-0.397
Mof_O 	O 	0.161	0.50051	0.101	-0.33
Mof_O 	O 	0.2649	0.34527	0.02217	-0.372
Mof_O 	O 	0.0963	0.33821	0.15757	-0.355
Mof_O 	O 	0.4577	0.27533	0.92559	-0.381
Mof_O 	O 	0.1334	0.27046	0.89052	-0.409
Mof_H 	H 	0.0399	0.2884	0.907	0.294
Mof_O 	O 	0.2789	0.16646	0.00386	-0.374
Mof_O 	O 	0.0372	0.23548	0.27386	-0.351
Mof_O 	O 	0.8218	0.23342	0.15257	-0.396
Mof_H 	H 	0.8107	0.2078	0.108	0.288
Mof_O 	O 	0.125	0.16023	0.14606	-0.349
Mof_O 	O 	0.9289	0.1418	0.00433	-0.386
Mof_O 	O 	0.6918	0.14219	0.88338	-0.353
Mof_O 	O 	0.8221	0.99122	0.93522	-0.355
Mof_O 	O 	0.6263	0.0847	0.02133	-0.428
Mof_H 	H 	0.5369	0.1138	0.003	0.309
Mof_Be	Be	0.6096	0.1089	0.5725	0.796
Mof_Be	Be	0.6243	0.382	0.5532	0.776
Mof_Be	Be	0.6137	0.2494	0.8649	0.783
Mof_P 	P 	0.70486	0.91052	0.55442	0.626
Mof_P 	P 	0.78316	0.2365	0.46381	0.611
Mof_P 	P 	0.52784	0.25751	0.68336	0.629
Mof_P 	P 	0.2725	0.41005	0.45912	0.631
Mof_O 	O 	0.7224	0.82544	0.61158	-0.374
Mof_O 	O 	0.8922	0.92933	0.52238	-0.411
Mof_H 	H 	0.959	0.8846	0.5347	0.314
Mof_O 	O 	0.577	0.89178	0.48137	-0.404
Mof_O 	O 	0.661	0.99949	0.601	-0.331
Mof_O 	O 	0.7649	0.15473	0.52217	-0.373
Mof_O 	O 	0.5963	0.16179	0.65757	-0.356
Mof_O 	O 	0.9577	0.22467	0.42559	-0.378
Mof_O 	O 	0.6334	0.22954	0.39052	-0.409
Mof_H 	H 	0.5399	0.2116	0.407	0.293
Mof_O 	O 	0.7789	0.33354	0.50386	-0.376
Mof_O 	O 	0.5372	0.26452	0.77386	-0.35
Mof_O 	O 	0.3218	0.26658	0.65257	-0.4
Mof_H 	H 	0.3107	0.2922	0.608	0.287
Mof_O 	O 	0.625	0.33977	0.64606	-0.349
Mof_O 	O 	0.4289	0.3582	0.50433	-0.397
Mof_O 	O 	0.1918	0.35781	0.38338	-0.353
Mof_O 	O 	0.3221	0.50878	0.43522	-0.36
Mof_O 	O 	0.1263	0.4153	0.52133	-0.435
Mof_H 	H 	0.0369	0.3862	0.503	0.309
Mof_Be	Be	0.8904	0.6089	0.9275	0.792
Mof_Be	Be	0.8757	0.882	0.9468	0.77
Mof_Be	Be	0.8863	0.7494	0.6351	0.783
Mof_P 	P 	0.79514	0.41052	0.94558	0.621
Mof_P 	P 	0.71684	0.7365	0.03619	0.609
Mof_P 	P 	0.97216	0.75751	0.81664	0.626
Mof_P 	P 	0.2275	0.91005	0.04088	0.616
Mof_O 	O 	0.7776	0.32544	0.88842	-0.374
Mof_O 	O 	0.6078	0.42933	0.97762	-0.41
Mof_H 	H 	0.541	0.3846	0.9653	0.314
Mof_O 	O 	0.923	0.39178	0.01863	-0.397
Mof_O 	O 	0.839	0.49949	0.899	-0.33
Mof_O 	O 	0.7351	0.65473	0.97783	-0.372
Mof_O 	O 	0.9037	0.66179	0.84243	-0.355
Mof_O 	O 	0.5423	0.72467	0.07441	-0.381
Mof_O 	O 	0.8666	0.72954	0.10948	-0.409
Mof_H 	H 	0.9601	0.7116	0.093	0.294
Mof_O 	O 	0.7211	0.83354	0.99614	-0.374
Mof_O 	O 	0.9628	0.76452	0.72614	-0.351
Mof_O 	O 	0.1782	0.76658	0.84743	-0.396
Mof_H 	H 	0.1893	0.7922	0.892	0.288
Mof_O 	O 	0.875	0.83977	0.85394	-0.349
Mof_O 	O 	0.0711	0.8582	0.99567	-0.386
Mof_O 	O 	0.3082	0.85781	0.11662	-0.353
Mof_O 	O 	0.1779	0.00878	0.06478	-0.355
Mof_O 	O 	0.3737	0.9153	0.97867	-0.428
Mof_H 	H 	0.4631	0.8862	0.997	0.309
_end
