data_functionalizedCrystal
_audit_creation_method	'EQeq! by Chris Wilmer'
_symmetry_space_group_name_H-M	'P1'
_symmetry_Int_Tables_number	1
_symmetry_cell_setting	triclinic
loop_
_symmetry_equiv_pos_as_xyz
  x,y,z
_cell_length_a	11.4095
_cell_length_b	12.9948
_cell_length_c	23.103
_cell_angle_alpha	90
_cell_angle_beta	90
_cell_angle_gamma	111.628
loop_
_atom_site_label
_atom_site_type_symbol
_atom_site_fract_x
_atom_site_fract_y
_atom_site_fract_z
_atom_site_charge
Mof_Cu	Cu	0.4445	0.9648	0.5567	0.88
Mof_Cu	Cu	0.6957	0.314	0.0614	0.883
Mof_Cu	Cu	0.7554	0.8324	0.028	0.832
Mof_Cu	Cu	0.3657	0.4394	0.515	0.878
Mof_Cu	Cu	0.058	0.9748	0.68078	0.847
Mof_Cu	Cu	0.9609	0.2074	0.2468	0.797
Mof_Cu	Cu	0.9445	0.4648	0.4433	0.888
Mof_Cu	Cu	0.1957	0.814	0.9386	0.881
Mof_Cu	Cu	0.2554	0.3324	0.972	0.836
Mof_Cu	Cu	0.8657	0.9394	0.485	0.871
Mof_Cu	Cu	0.558	0.4748	0.31922	0.858
Mof_Cu	Cu	0.4609	0.7074	0.7532	0.794
Mof_H 	H 	0.2781	0.7262	0.6148	-0.001
Mof_H 	H 	0.5748	0.1754	0.4807	0.031
Mof_H 	H 	0.8279	0.0146	0.1032	-0.039
Mof_H 	H 	0.1866	0.3094	0.1805	0.005
Mof_H 	H 	0.5942	0.9352	0.9732	-0.011
Mof_H 	H 	0.5678	0.1062	0.9851	0.022
Mof_H 	H 	0.264	0.5563	0.5952	0.005
Mof_H 	H 	0.5487	0.6666	0.4888	-0.008
Mof_H 	H 	0.5418	0.332	0.4729	0.006
Mof_H 	H 	0.2797	0.2399	0.5904	0.015
Mof_H 	H 	0.8603	0.5277	0.1133	0.006
Mof_H 	H 	0.885	0.7098	0.0987	0.004
Mof_H 	H 	0.4001	0.4148	0.2025	-0.02
Mof_H 	H 	0.5964	0.6142	0.9935	-0.012
Mof_H 	H 	0.1144	0.3192	0.3471	-0.023
Mof_H 	H 	0.7781	0.2262	0.3852	0.001
Mof_H 	H 	0.0748	0.6754	0.5193	0.031
Mof_H 	H 	0.3279	0.5146	0.8968	-0.038
Mof_H 	H 	0.6866	0.8094	0.8195	0.003
Mof_H 	H 	0.0942	0.4352	0.0268	-0.02
Mof_H 	H 	0.0678	0.6062	0.0149	0.03
Mof_H 	H 	0.764	0.0563	0.4048	0.013
Mof_H 	H 	0.0487	0.1666	0.5112	-0.002
Mof_H 	H 	0.0418	0.832	0.5271	-0.007
Mof_H 	H 	0.7797	0.7399	0.4096	0.011
Mof_H 	H 	0.3603	0.0277	0.8867	0.004
Mof_H 	H 	0.385	0.2098	0.9013	0.011
Mof_H 	H 	0.9001	0.9148	0.7975	-0.022
Mof_H 	H 	0.0964	0.1142	0.0065	-0.02
Mof_H 	H 	0.6144	0.8192	0.6529	-0.024
Mof_C 	C 	0.539	0.394	0.0041	0.274
Mof_C 	C 	0.334	0.716	0.5883	-0.019
Mof_C 	C 	0.5	0.787	0.5197	-0.13
Mof_C 	C 	0.516	0.188	0.5044	-0.014
Mof_C 	C 	0.84	0.23	0.1208	0.326
Mof_C 	C 	0.78	0.142	0.0818	-0.137
Mof_C 	C 	0.781	0.038	0.0769	0.101
Mof_C 	C 	0.213	0.329	0.2184	-0.034
Mof_C 	C 	0.64	0.987	0.0008	-0.025
Mof_C 	C 	0.626	0.09	0.0075	0.01
Mof_C 	C 	0.325	0.614	0.5762	-0.009
Mof_C 	C 	0.49	0.679	0.5128	0.077
Mof_C 	C 	0.493	0.282	0.5005	0.009
Mof_C 	C 	0.343	0.232	0.5675	0.023
Mof_C 	C 	0.353	0.406	0.3911	0.311
Mof_C 	C 	0.294	0.375	0.3338	-0.111
Mof_C 	C 	0.642	0.493	0.034	-0.048
Mof_C 	C 	0.587	0.885	0.4918	0.394
Mof_C 	C 	0.807	0.545	0.0881	0.008
Mof_C 	C 	0.82	0.654	0.0799	-0.005
Mof_C 	C 	0.342	0.388	0.2324	0.005
Mof_C 	C 	0.651	0.601	0.0196	0.013
Mof_C 	C 	0.174	0.331	0.3177	0.061
Mof_C 	C 	0.367	0.134	0.571	-0.074
Mof_C 	C 	0.279	0.045	0.6148	0.426
Mof_C 	C 	0.039	0.894	0.9959	0.274
Mof_C 	C 	0.834	0.216	0.4117	-0.016
Mof_C 	C 	-5.05517e-18	0.287	0.4803	-0.125
Mof_C 	C 	0.016	0.688	0.4956	-0.034
Mof_C 	C 	0.34	0.73	0.8792	0.324
Mof_C 	C 	0.28	0.642	0.9182	-0.135
Mof_C 	C 	0.281	0.538	0.9231	0.075
Mof_C 	C 	0.713	0.829	0.7816	-0.036
Mof_C 	C 	0.14	0.487	0.9992	0.018
Mof_C 	C 	0.126	0.59	0.9925	-0.034
Mof_C 	C 	0.825	0.114	0.4238	-0.006
Mof_C 	C 	0.99	0.179	0.4872	0.078
Mof_C 	C 	0.993	0.782	0.4995	0.025
Mof_C 	C 	0.843	0.732	0.4325	0.019
Mof_C 	C 	0.853	0.906	0.6089	0.311
Mof_C 	C 	0.794	0.875	0.6662	-0.114
Mof_C 	C 	0.142	0.993	0.966	-0.087
Mof_C 	C 	0.087	0.385	0.5082	0.392
Mof_C 	C 	0.307	0.045	0.9119	0.046
Mof_C 	C 	0.32	0.154	0.9201	-0.012
Mof_C 	C 	0.842	0.888	0.7676	0.003
Mof_C 	C 	0.151	0.101	0.9804	0.057
Mof_C 	C 	0.674	0.831	0.6823	0.059
Mof_C 	C 	0.867	0.634	0.429	-0.075
Mof_C 	C 	0.779	0.545	0.3852	0.39
Mof_N 	N 	0.742	0.681	0.0451	-0.235
Mof_N 	N 	0.128	0.301	0.2642	-0.255
Mof_N 	N 	0.717	0.969	0.0355	-0.256
Mof_N 	N 	0.423	0.809	0.5635	-0.194
Mof_N 	N 	0.451	0.113	0.5433	-0.189
Mof_N 	N 	0.383	0.406	0.2861	-0.213
Mof_N 	N 	0.412	0.318	0.5304	-0.238
Mof_N 	N 	0.722	0.47	0.0613	-0.213
Mof_N 	N 	0.698	0.167	0.0455	-0.193
Mof_N 	N 	0.402	0.589	0.5374	-0.242
Mof_N 	N 	0.242	0.181	0.9549	-0.238
Mof_N 	N 	0.628	0.801	0.7358	-0.257
Mof_N 	N 	0.217	0.469	0.9645	-0.248
Mof_N 	N 	0.923	0.309	0.4365	-0.194
Mof_N 	N 	0.951	0.613	0.4567	-0.195
Mof_N 	N 	0.883	0.906	0.7139	-0.214
Mof_N 	N 	0.912	0.818	0.4696	-0.243
Mof_N 	N 	0.222	0.97	0.9387	-0.227
Mof_N 	N 	0.198	0.667	0.9545	-0.19
Mof_N 	N 	0.902	0.089	0.4626	-0.233
Mof_O 	O 	0.449	0.409	0.9795	-0.4
Mof_O 	O 	0.555	0.299	0.0126	-0.409
Mof_O 	O 	0.923	0.217	0.1568	-0.409
Mof_O 	O 	0.824	0.319	0.118	-0.44
Mof_O 	O 	0.473	0.458	0.3945	-0.426
Mof_O 	O 	0.278	0.395	0.4308	-0.374
Mof_O 	O 	0.2108	0.0648	0.6456	-0.489
Mof_O 	O 	0.3038	0.9568	0.6081	-0.486
Mof_O 	O 	0.6604	0.8678	0.4593	-0.397
Mof_O 	O 	0.579	0.975	0.503	-0.455
Mof_O 	O 	0.949	0.909	0.0205	-0.406
Mof_O 	O 	0.055	0.799	0.9874	-0.415
Mof_O 	O 	0.423	0.717	0.8432	-0.413
Mof_O 	O 	0.324	0.819	0.882	-0.447
Mof_O 	O 	0.973	0.958	0.6055	-0.433
Mof_O 	O 	0.778	0.895	0.5692	-0.377
Mof_O 	O 	0.7108	0.5648	0.3544	-0.495
Mof_O 	O 	0.8038	0.4568	0.3919	-0.457
Mof_O 	O 	0.1604	0.3678	0.5407	-0.388
Mof_O 	O 	0.079	0.475	0.497	-0.442
_end
