data_functionalizedCrystal
_audit_creation_method	'EQeq! by Chris Wilmer'
_symmetry_space_group_name_H-M	'P1'
_symmetry_Int_Tables_number	1
_symmetry_cell_setting	triclinic
loop_
_symmetry_equiv_pos_as_xyz
  x,y,z
_cell_length_a	7.727
_cell_length_b	9.705
_cell_length_c	10.58
_cell_angle_alpha	106.61
_cell_angle_beta	105.28
_cell_angle_gamma	100.69
loop_
_atom_site_label
_atom_site_type_symbol
_atom_site_fract_x
_atom_site_fract_y
_atom_site_fract_z
_atom_site_charge
Mof_Eu	Eu	0.75345	0.96811	0.5493	2.306
Mof_Eu	Eu	0.24655	0.03189	0.4507	2.306
Mof_H 	H 	0.4513	0.3745	0.3435	0.177
Mof_H 	H 	0.462	0.1981	0.952	0.167
Mof_H 	H 	0.1862	0.5096	0.037	0.17
Mof_H 	H 	0.1546	0.6022	0.2618	0.184
Mof_H 	H 	0.2243	0.5287	0.3765	0.17
Mof_H 	H 	0.632	0.1261	0.1212	0.191
Mof_H 	H 	0.7339	0.2648	0.2645	0.179
Mof_H 	H 	0.3629	0.323	0.784	0.183
Mof_H 	H 	0.2329	0.431	0.8105	0.178
Mof_H 	H 	0.5487	0.6255	0.6565	0.177
Mof_H 	H 	0.538	0.8019	0.048	0.167
Mof_H 	H 	0.8138	0.4904	0.963	0.17
Mof_H 	H 	0.8454	0.3978	0.7382	0.184
Mof_H 	H 	0.7757	0.4713	0.6235	0.17
Mof_H 	H 	0.368	0.8739	0.8788	0.191
Mof_H 	H 	0.2661	0.7352	0.7355	0.179
Mof_H 	H 	0.6371	0.677	0.216	0.183
Mof_H 	H 	0.7671	0.569	0.1895	0.178
Mof_C 	C 	0.3098	0.4587	0.2059	0.397
Mof_C 	C 	0.418	0.3697	0.2489	-0.451
Mof_C 	C 	0.4778	0.2741	0.1554	0.414
Mof_C 	C 	0.4234	0.2647	0.0167	-0.456
Mof_C 	C 	0.3135	0.3507	0.9703	0.4
Mof_C 	C 	0.2591	0.4487	0.0668	-0.449
Mof_C 	C 	0.262	0.5735	0.3113	-0.585
Mof_C 	C 	0.4256	0.712	0.3939	0.551
Mof_C 	C 	0.6122	0.1904	0.2044	-0.618
Mof_C 	C 	0.5576	0.093	0.2847	0.607
Mof_C 	C 	0.2575	0.3367	0.8182	-0.569
Mof_C 	C 	0.0869	0.2083	0.7262	0.503
Mof_C 	C 	0.6902	0.5413	0.7941	0.397
Mof_C 	C 	0.582	0.6303	0.7511	-0.451
Mof_C 	C 	0.5222	0.7259	0.8446	0.414
Mof_C 	C 	0.5766	0.7353	0.9833	-0.456
Mof_C 	C 	0.6865	0.6493	0.0297	0.4
Mof_C 	C 	0.7409	0.5513	0.9332	-0.449
Mof_C 	C 	0.738	0.4265	0.6887	-0.585
Mof_C 	C 	0.5744	0.288	0.6061	0.551
Mof_C 	C 	0.3878	0.8096	0.7956	-0.618
Mof_C 	C 	0.4424	0.907	0.7153	0.607
Mof_C 	C 	0.7425	0.6633	0.1818	-0.569
Mof_C 	C 	0.9131	0.7917	0.2738	0.503
Mof_O 	O 	0.5864	0.6997	0.4431	-0.558
Mof_O 	O 	0.4025	0.8428	0.4146	-0.701
Mof_O 	O 	0.6848	0.0418	0.3424	-0.58
Mof_O 	O 	0.3947	0.0667	0.288	-0.599
Mof_O 	O 	0.96	0.1708	0.7733	-0.505
Mof_O 	O 	0.0671	0.1394	0.5977	-0.706
Mof_O 	O 	0.4136	0.3003	0.5569	-0.558
Mof_O 	O 	0.5975	0.1572	0.5854	-0.701
Mof_O 	O 	0.3152	0.9582	0.6576	-0.58
Mof_O 	O 	0.6053	0.9333	0.712	-0.599
Mof_O 	O 	0.04	0.8292	0.2267	-0.505
Mof_O 	O 	0.9329	0.8606	0.4023	-0.706
_end
