data_functionalizedCrystal
_audit_creation_method	'EQeq! by Chris Wilmer'
_symmetry_space_group_name_H-M	'P1'
_symmetry_Int_Tables_number	1
_symmetry_cell_setting	triclinic
loop_
_symmetry_equiv_pos_as_xyz
  x,y,z
_cell_length_a	12.051
_cell_length_b	12.051
_cell_length_c	21.4272
_cell_angle_alpha	77.4218
_cell_angle_beta	77.4218
_cell_angle_gamma	87.7111
loop_
_atom_site_label
_atom_site_type_symbol
_atom_site_fract_x
_atom_site_fract_y
_atom_site_fract_z
_atom_site_charge
Mof_Dy	Dy	0.95398	0.08938	0.06909	2.192
Mof_Dy	Dy	0.91062	0.04602	0.43091	2.223
Mof_Dy	Dy	0.04602	0.91062	0.93091	2.192
Mof_Dy	Dy	0.08938	0.95398	0.56909	2.223
Mof_Zn	Zn	0.56101	0.43899	0.75	1.184
Mof_Zn	Zn	0.43899	0.56101	0.25	1.184
Mof_H 	H 	0.3084	0.085	0.8656	0.067
Mof_H 	H 	0.2196	0.3684	0.9327	0.066
Mof_H 	H 	0.4531	0.8043	0.8363	0.099
Mof_H 	H 	0.8374	0.1398	0.8038	0.072
Mof_H 	H 	0.5794	0.6832	0.7896	0.024
Mof_H 	H 	0.6477	0.4375	0.8785	0.011
Mof_H 	H 	0.7552	0.3232	0.9429	0.065
Mof_H 	H 	0.4578	0.1868	0.7913	0.019
Mof_H 	H 	0.2224	0.5534	0.8974	0.08
Mof_H 	H 	0.8918	0.0342	0.2113	0.164
Mof_H 	H 	0.9014	0.919	0.1915	0.234
Mof_H 	H 	0.0897	0.1129	0.1632	0.266
Mof_H 	H 	0.011	0.2108	0.1622	0.245
Mof_H 	H 	0.915	0.6916	0.6344	0.066
Mof_H 	H 	0.6316	0.7804	0.5673	0.067
Mof_H 	H 	0.1957	0.5469	0.6637	0.099
Mof_H 	H 	0.8602	0.1626	0.6962	0.071
Mof_H 	H 	0.3168	0.4206	0.7104	0.024
Mof_H 	H 	0.5625	0.3523	0.6215	0.012
Mof_H 	H 	0.6768	0.2448	0.5571	0.063
Mof_H 	H 	0.8132	0.5422	0.7087	0.02
Mof_H 	H 	0.4466	0.7776	0.6026	0.081
Mof_H 	H 	0.9658	0.1082	0.2887	0.165
Mof_H 	H 	0.081	0.0986	0.3085	0.235
Mof_H 	H 	0.8871	0.9103	0.3368	0.267
Mof_H 	H 	0.7892	0.989	0.3378	0.245
Mof_H 	H 	0.6916	0.915	0.1344	0.067
Mof_H 	H 	0.7804	0.6316	0.0673	0.066
Mof_H 	H 	0.5469	0.1957	0.1637	0.099
Mof_H 	H 	0.1626	0.8602	0.1962	0.072
Mof_H 	H 	0.4206	0.3168	0.2104	0.024
Mof_H 	H 	0.3523	0.5625	0.1215	0.011
Mof_H 	H 	0.2448	0.6768	0.0571	0.065
Mof_H 	H 	0.5422	0.8132	0.2087	0.019
Mof_H 	H 	0.7776	0.4466	0.1026	0.08
Mof_H 	H 	0.1082	0.9658	0.7887	0.164
Mof_H 	H 	0.0986	0.081	0.8085	0.234
Mof_H 	H 	0.9103	0.8871	0.8368	0.266
Mof_H 	H 	0.989	0.7892	0.8378	0.245
Mof_H 	H 	0.085	0.3084	0.3656	0.066
Mof_H 	H 	0.3684	0.2196	0.4327	0.067
Mof_H 	H 	0.8043	0.4531	0.3363	0.099
Mof_H 	H 	0.1398	0.8374	0.3038	0.071
Mof_H 	H 	0.6832	0.5794	0.2896	0.024
Mof_H 	H 	0.4375	0.6477	0.3785	0.012
Mof_H 	H 	0.3232	0.7552	0.4429	0.063
Mof_H 	H 	0.1868	0.4578	0.2913	0.02
Mof_H 	H 	0.5534	0.2224	0.3974	0.081
Mof_H 	H 	0.0342	0.8918	0.7113	0.165
Mof_H 	H 	0.919	0.9014	0.6915	0.235
Mof_H 	H 	0.1129	0.0897	0.6632	0.267
Mof_H 	H 	0.2108	0.011	0.6622	0.245
Mof_C 	C 	0.376	0.5092	0.8491	0.045
Mof_C 	C 	0.3186	0.1616	0.8645	-0.032
Mof_C 	C 	0.2463	0.2161	0.9075	-0.074
Mof_C 	C 	0.2654	0.33	0.9035	-0.034
Mof_C 	C 	0.8775	0.1403	0.9226	0.473
Mof_C 	C 	0.4314	0.73	0.8388	-0.09
Mof_C 	C 	0.8008	0.2006	0.8196	-0.023
Mof_C 	C 	0.8092	0.2188	0.881	-0.079
Mof_C 	C 	0.5069	0.6567	0.8116	0.064
Mof_C 	C 	0.6874	0.3776	0.8633	0.041
Mof_C 	C 	0.3215	0.6917	0.8703	-0.001
Mof_C 	C 	0.7375	0.2743	0.7836	0.047
Mof_C 	C 	0.2311	0.7713	0.8956	0.288
Mof_C 	C 	0.3536	0.3866	0.8554	0.033
Mof_C 	C 	0.7514	0.3088	0.9025	-0.03
Mof_C 	C 	0.4075	0.2243	0.8191	0.047
Mof_C 	C 	0.2947	0.5811	0.8758	-0.082
Mof_C 	C 	0.1477	0.1595	0.9595	0.449
Mof_C 	C 	0.4908	0.624	0.6509	0.046
Mof_C 	C 	0.8384	0.6814	0.6355	-0.03
Mof_C 	C 	0.7839	0.7537	0.5925	-0.076
Mof_C 	C 	0.67	0.7346	0.5965	-0.032
Mof_C 	C 	0.8597	0.1225	0.5774	0.476
Mof_C 	C 	0.27	0.5686	0.6612	-0.091
Mof_C 	C 	0.7994	0.1992	0.6804	-0.021
Mof_C 	C 	0.7812	0.1908	0.619	-0.082
Mof_C 	C 	0.3433	0.4931	0.6884	0.065
Mof_C 	C 	0.6224	0.3126	0.6367	0.039
Mof_C 	C 	0.3083	0.6785	0.6297	0.001
Mof_C 	C 	0.7257	0.2625	0.7164	0.045
Mof_C 	C 	0.2287	0.7689	0.6044	0.288
Mof_C 	C 	0.6134	0.6464	0.6446	0.032
Mof_C 	C 	0.6912	0.2486	0.5975	-0.029
Mof_C 	C 	0.7757	0.5925	0.6809	0.045
Mof_C 	C 	0.4189	0.7053	0.6242	-0.082
Mof_C 	C 	0.8405	0.8523	0.5405	0.457
Mof_C 	C 	0.624	0.4908	0.1509	0.045
Mof_C 	C 	0.6814	0.8384	0.1355	-0.032
Mof_C 	C 	0.7537	0.7839	0.0925	-0.074
Mof_C 	C 	0.7346	0.67	0.0965	-0.034
Mof_C 	C 	0.1225	0.8597	0.0774	0.473
Mof_C 	C 	0.5686	0.27	0.1612	-0.09
Mof_C 	C 	0.1992	0.7994	0.1804	-0.023
Mof_C 	C 	0.1908	0.7812	0.119	-0.079
Mof_C 	C 	0.4931	0.3433	0.1884	0.064
Mof_C 	C 	0.3126	0.6224	0.1367	0.041
Mof_C 	C 	0.6785	0.3083	0.1297	-0.001
Mof_C 	C 	0.2625	0.7257	0.2164	0.047
Mof_C 	C 	0.7689	0.2287	0.1044	0.288
Mof_C 	C 	0.6464	0.6134	0.1446	0.033
Mof_C 	C 	0.2486	0.6912	0.0975	-0.03
Mof_C 	C 	0.5925	0.7757	0.1809	0.047
Mof_C 	C 	0.7053	0.4189	0.1242	-0.082
Mof_C 	C 	0.8523	0.8405	0.0405	0.449
Mof_C 	C 	0.5092	0.376	0.3491	0.046
Mof_C 	C 	0.1616	0.3186	0.3645	-0.03
Mof_C 	C 	0.2161	0.2463	0.4075	-0.076
Mof_C 	C 	0.33	0.2654	0.4035	-0.032
Mof_C 	C 	0.1403	0.8775	0.4226	0.476
Mof_C 	C 	0.73	0.4314	0.3388	-0.091
Mof_C 	C 	0.2006	0.8008	0.3196	-0.021
Mof_C 	C 	0.2188	0.8092	0.381	-0.082
Mof_C 	C 	0.6567	0.5069	0.3116	0.065
Mof_C 	C 	0.3776	0.6874	0.3633	0.039
Mof_C 	C 	0.6917	0.3215	0.3703	0.001
Mof_C 	C 	0.2743	0.7375	0.2836	0.045
Mof_C 	C 	0.7713	0.2311	0.3956	0.288
Mof_C 	C 	0.3866	0.3536	0.3554	0.032
Mof_C 	C 	0.3088	0.7514	0.4025	-0.029
Mof_C 	C 	0.2243	0.4075	0.3191	0.045
Mof_C 	C 	0.5811	0.2947	0.3758	-0.082
Mof_C 	C 	0.1595	0.1477	0.4595	0.457
Mof_N 	N 	0.6804	0.3614	0.8049	-0.239
Mof_N 	N 	0.4236	0.3336	0.8138	-0.233
Mof_N 	N 	0.4804	0.5484	0.8155	-0.234
Mof_N 	N 	0.6386	0.3196	0.6951	-0.238
Mof_N 	N 	0.6664	0.5764	0.6862	-0.232
Mof_N 	N 	0.4516	0.5196	0.6845	-0.234
Mof_N 	N 	0.3196	0.6386	0.1951	-0.239
Mof_N 	N 	0.5764	0.6664	0.1862	-0.233
Mof_N 	N 	0.5196	0.4516	0.1845	-0.234
Mof_N 	N 	0.3614	0.6804	0.3049	-0.238
Mof_N 	N 	0.3336	0.4236	0.3138	-0.232
Mof_N 	N 	0.5484	0.4804	0.3155	-0.234
Mof_O 	O 	0.892	0.1688	0.9732	-0.508
Mof_O 	O 	0.1024	0.2122	0.0023	-0.455
Mof_O 	O 	0.1165	0.0627	0.9586	-0.603
Mof_O 	O 	0.2569	0.8691	0.899	-0.376
Mof_O 	O 	0.1302	0.7354	0.9115	-0.428
Mof_O 	O 	0.917	0.0522	0.9028	-0.524
Mof_O 	O 	0.8754	0.9968	0.1784	-0.586
Mof_O 	O 	0.057	0.1684	0.1354	-0.63
Mof_O 	O 	0.8312	0.108	0.5268	-0.518
Mof_O 	O 	0.7878	0.8976	0.4977	-0.463
Mof_O 	O 	0.9373	0.8835	0.5414	-0.609
Mof_O 	O 	0.1309	0.7431	0.601	-0.375
Mof_O 	O 	0.2646	0.8698	0.5885	-0.427
Mof_O 	O 	0.9478	0.083	0.5972	-0.533
Mof_O 	O 	0.0032	0.1246	0.3216	-0.59
Mof_O 	O 	0.8316	0.943	0.3646	-0.634
Mof_O 	O 	0.108	0.8312	0.0268	-0.508
Mof_O 	O 	0.8976	0.7878	0.9977	-0.455
Mof_O 	O 	0.8835	0.9373	0.0414	-0.603
Mof_O 	O 	0.7431	0.1309	0.101	-0.376
Mof_O 	O 	0.8698	0.2646	0.0885	-0.428
Mof_O 	O 	0.083	0.9478	0.0972	-0.524
Mof_O 	O 	0.1246	0.0032	0.8216	-0.586
Mof_O 	O 	0.943	0.8316	0.8646	-0.63
Mof_O 	O 	0.1688	0.892	0.4732	-0.518
Mof_O 	O 	0.2122	0.1024	0.5023	-0.463
Mof_O 	O 	0.0627	0.1165	0.4586	-0.609
Mof_O 	O 	0.8691	0.2569	0.399	-0.375
Mof_O 	O 	0.7354	0.1302	0.4115	-0.427
Mof_O 	O 	0.0522	0.917	0.4028	-0.533
Mof_O 	O 	0.9968	0.8754	0.6784	-0.59
Mof_O 	O 	0.1684	0.057	0.6354	-0.634
Mof_Cl	Cl	0.0856	0.2882	0.72082	-0.206
Mof_O 	O 	0.9966	0.3702	0.7061	-0.043
Mof_O 	O 	0.1198	0.301	0.7778	-0.046
Mof_O 	O 	0.0447	0.1709	0.7303	-0.095
Mof_O 	O 	0.1771	0.3075	0.6641	-0.035
Mof_Cl	Cl	0.7118	0.9144	0.77918	-0.206
Mof_O 	O 	0.6298	0.0034	0.7939	-0.043
Mof_O 	O 	0.699	0.8802	0.7222	-0.046
Mof_O 	O 	0.8291	0.9553	0.7697	-0.095
Mof_O 	O 	0.6925	0.8229	0.8359	-0.035
Mof_Cl	Cl	0.9144	0.7118	0.27918	-0.206
Mof_O 	O 	0.0034	0.6298	0.2939	-0.043
Mof_O 	O 	0.8802	0.699	0.2222	-0.046
Mof_O 	O 	0.9553	0.8291	0.2697	-0.095
Mof_O 	O 	0.8229	0.6925	0.3359	-0.035
Mof_Cl	Cl	0.2882	0.0856	0.22082	-0.206
Mof_O 	O 	0.3702	0.9966	0.2061	-0.043
Mof_O 	O 	0.301	0.1198	0.2778	-0.046
Mof_O 	O 	0.1709	0.0447	0.2303	-0.095
Mof_O 	O 	0.3075	0.1771	0.1641	-0.035
_end
