data_functionalizedCrystal
_audit_creation_method	'EQeq! by Chris Wilmer'
_symmetry_space_group_name_H-M	'P1'
_symmetry_Int_Tables_number	1
_symmetry_cell_setting	triclinic
loop_
_symmetry_equiv_pos_as_xyz
  x,y,z
_cell_length_a	18.99
_cell_length_b	18.99
_cell_length_c	19.973
_cell_angle_alpha	90
_cell_angle_beta	90
_cell_angle_gamma	90
loop_
_atom_site_label
_atom_site_type_symbol
_atom_site_fract_x
_atom_site_fract_y
_atom_site_fract_z
_atom_site_charge
Mof_N 	N 	0.3627	0.9582	0.44047	-0.093
Mof_N 	N 	0.4254	0.9926	0.42942	-0.173
Mof_C 	C 	0.4174	0.0257	0.3719	0.031
Mof_H 	H 	0.4521	0.0549	0.3518	0.007
Mof_C 	C 	0.3502	0.0121	0.3444	-0.123
Mof_C 	C 	0.3178	0.9694	0.3897	0.092
Mof_H 	H 	0.2715	0.9509	0.3861	0.007
Mof_C 	C 	0.3234	0.0372	0.2795	0.156
Mof_C 	C 	0.2717	0.0011	0.2457	-0.253
Mof_H 	H 	0.2541	0.9583	0.2636	0.132
Mof_C 	C 	0.2449	0.0265	0.1855	0.122
Mof_H 	H 	0.2079	0.0019	0.1636	-0.011
Mof_C 	C 	0.2719	0.0873	0.1576	-0.175
Mof_C 	C 	0.3245	0.122	0.1909	0.107
Mof_H 	H 	0.3436	0.1637	0.1719	0.007
Mof_C 	C 	0.3506	0.0981	0.2512	-0.193
Mof_H 	H 	0.387	0.1233	0.2733	0.095
Mof_C 	C 	0.2417	0.1164	0.0939	0.372
Mof_O 	O 	0.1876	0.0865	0.07032	-0.425
Mof_O 	O 	0.27135	0.1704	0.0703	-0.425
Mof_C 	C 	0.0512	0.0056	0.0593	0.268
Mof_H 	H 	0.9708	0.1086	0.9599	0.714
Mof_H 	H 	0.0452	0.0359	0.0992	-0.049
Mof_H 	H 	0.0981	0.983	0.0623	-0.439
Mof_N 	N 	0.6373	0.0418	0.44047	-0.079
Mof_N 	N 	0.5746	0.0074	0.42942	-0.209
Mof_C 	C 	0.5826	0.9743	0.3719	0.052
Mof_H 	H 	0.5479	0.9451	0.3518	0.011
Mof_C 	C 	0.6498	0.9879	0.3444	-0.005
Mof_C 	C 	0.6822	0.0306	0.3897	-0.021
Mof_H 	H 	0.7285	0.0491	0.3861	0.036
Mof_C 	C 	0.6766	0.9628	0.2795	0.043
Mof_C 	C 	0.7283	0.9989	0.2457	-0.044
Mof_H 	H 	0.7459	0.0417	0.2636	0.026
Mof_C 	C 	0.7551	0.9735	0.1855	0.004
Mof_H 	H 	0.7921	0.9981	0.1636	0.049
Mof_C 	C 	0.7281	0.9127	0.1576	-0.096
Mof_C 	C 	0.6755	0.878	0.1909	0.032
Mof_H 	H 	0.6564	0.8363	0.1719	0.033
Mof_C 	C 	0.6494	0.9019	0.2512	-0.1
Mof_H 	H 	0.613	0.8767	0.2733	0.066
Mof_C 	C 	0.7583	0.8836	0.0939	0.347
Mof_O 	O 	0.8124	0.9135	0.07032	-0.406
Mof_O 	O 	0.72865	0.8296	0.0703	-0.418
Mof_C 	C 	0.9488	0.9944	0.0593	0.214
Mof_H 	H 	0.0292	0.8914	0.9599	0.462
Mof_H 	H 	0.9548	0.9641	0.0992	-0.024
Mof_H 	H 	0.9019	0.017	0.0623	-0.297
Mof_N 	N 	0.9582	0.3627	0.55953	-0.093
Mof_N 	N 	0.9926	0.4254	0.57058	-0.174
Mof_C 	C 	0.0257	0.4174	0.6281	0.028
Mof_H 	H 	0.0549	0.4521	0.6482	0.006
Mof_C 	C 	0.0121	0.3502	0.6556	-0.12
Mof_C 	C 	0.9694	0.3178	0.6103	0.089
Mof_H 	H 	0.9509	0.2715	0.6139	0.007
Mof_C 	C 	0.0372	0.3234	0.7205	0.149
Mof_C 	C 	0.0011	0.2717	0.7543	-0.243
Mof_H 	H 	0.9583	0.2541	0.7364	0.129
Mof_C 	C 	0.0265	0.2449	0.8145	0.113
Mof_H 	H 	0.0019	0.2079	0.8364	-0.001
Mof_C 	C 	0.0873	0.2719	0.8424	-0.16
Mof_C 	C 	0.122	0.3245	0.8091	0.099
Mof_H 	H 	0.1637	0.3436	0.8281	0.013
Mof_C 	C 	0.0981	0.3506	0.7488	-0.185
Mof_H 	H 	0.1233	0.387	0.7267	0.093
Mof_C 	C 	0.1164	0.2417	0.9061	0.366
Mof_O 	O 	0.0865	0.1876	0.92968	-0.389
Mof_O 	O 	0.1704	0.27135	0.9297	-0.388
Mof_C 	C 	0.0056	0.0512	0.9407	0.328
Mof_H 	H 	0.1086	0.9708	0.0401	0.603
Mof_H 	H 	0.0359	0.0452	0.9008	-0.058
Mof_H 	H 	0.983	0.0981	0.9377	-0.529
Mof_N 	N 	0.0418	0.6373	0.55953	-0.079
Mof_N 	N 	0.0074	0.5746	0.57058	-0.208
Mof_C 	C 	0.9743	0.5826	0.6281	0.051
Mof_H 	H 	0.9451	0.5479	0.6482	0.012
Mof_C 	C 	0.9879	0.6498	0.6556	-0.005
Mof_C 	C 	0.0306	0.6822	0.6103	-0.021
Mof_H 	H 	0.0491	0.7285	0.6139	0.036
Mof_C 	C 	0.9628	0.6766	0.7205	0.041
Mof_C 	C 	0.9989	0.7283	0.7543	-0.041
Mof_H 	H 	0.0417	0.7459	0.7364	0.028
Mof_C 	C 	0.9735	0.7551	0.8145	0.002
Mof_H 	H 	0.9981	0.7921	0.8364	0.056
Mof_C 	C 	0.9127	0.7281	0.8424	-0.085
Mof_C 	C 	0.878	0.6755	0.8091	0.027
Mof_H 	H 	0.8363	0.6564	0.8281	0.038
Mof_C 	C 	0.9019	0.6494	0.7488	-0.095
Mof_H 	H 	0.8767	0.613	0.7267	0.065
Mof_C 	C 	0.8836	0.7583	0.9061	0.342
Mof_O 	O 	0.9135	0.8124	0.92968	-0.373
Mof_O 	O 	0.8296	0.72865	0.9297	-0.382
Mof_C 	C 	0.9944	0.9488	0.9407	0.255
Mof_H 	H 	0.8914	0.0292	0.0401	0.363
Mof_H 	H 	0.9641	0.9548	0.9008	-0.03
Mof_H 	H 	0.017	0.9019	0.9377	-0.371
Mof_N 	N 	0.6373	0.0418	0.55953	-0.079
Mof_N 	N 	0.5746	0.0074	0.57058	-0.208
Mof_C 	C 	0.5826	0.9743	0.6281	0.051
Mof_H 	H 	0.5479	0.9451	0.6482	0.012
Mof_C 	C 	0.6498	0.9879	0.6556	-0.005
Mof_C 	C 	0.6822	0.0306	0.6103	-0.021
Mof_H 	H 	0.7285	0.0491	0.6139	0.036
Mof_C 	C 	0.6766	0.9628	0.7205	0.041
Mof_C 	C 	0.7283	0.9989	0.7543	-0.041
Mof_H 	H 	0.7459	0.0417	0.7364	0.028
Mof_C 	C 	0.7551	0.9735	0.8145	0.002
Mof_H 	H 	0.7921	0.9981	0.8364	0.056
Mof_C 	C 	0.7281	0.9127	0.8424	-0.085
Mof_C 	C 	0.6755	0.878	0.8091	0.027
Mof_H 	H 	0.6564	0.8363	0.8281	0.038
Mof_C 	C 	0.6494	0.9019	0.7488	-0.095
Mof_H 	H 	0.613	0.8767	0.7267	0.065
Mof_C 	C 	0.7583	0.8836	0.9061	0.342
Mof_O 	O 	0.8124	0.9135	0.92968	-0.373
Mof_O 	O 	0.72865	0.8296	0.9297	-0.382
Mof_C 	C 	0.9488	0.9944	0.9407	0.255
Mof_H 	H 	0.0292	0.8914	0.0401	0.363
Mof_H 	H 	0.9548	0.9641	0.9008	-0.03
Mof_H 	H 	0.9019	0.017	0.9377	-0.371
Mof_N 	N 	0.3627	0.9582	0.55953	-0.093
Mof_N 	N 	0.4254	0.9926	0.57058	-0.174
Mof_C 	C 	0.4174	0.0257	0.6281	0.028
Mof_H 	H 	0.4521	0.0549	0.6482	0.006
Mof_C 	C 	0.3502	0.0121	0.6556	-0.12
Mof_C 	C 	0.3178	0.9694	0.6103	0.089
Mof_H 	H 	0.2715	0.9509	0.6139	0.007
Mof_C 	C 	0.3234	0.0372	0.7205	0.149
Mof_C 	C 	0.2717	0.0011	0.7543	-0.243
Mof_H 	H 	0.2541	0.9583	0.7364	0.129
Mof_C 	C 	0.2449	0.0265	0.8145	0.113
Mof_H 	H 	0.2079	0.0019	0.8364	-0.001
Mof_C 	C 	0.2719	0.0873	0.8424	-0.16
Mof_C 	C 	0.3245	0.122	0.8091	0.099
Mof_H 	H 	0.3436	0.1637	0.8281	0.013
Mof_C 	C 	0.3506	0.0981	0.7488	-0.185
Mof_H 	H 	0.387	0.1233	0.7267	0.093
Mof_C 	C 	0.2417	0.1164	0.9061	0.366
Mof_O 	O 	0.1876	0.0865	0.92968	-0.389
Mof_O 	O 	0.27135	0.1704	0.9297	-0.388
Mof_C 	C 	0.0512	0.0056	0.9407	0.328
Mof_H 	H 	0.9708	0.1086	0.0401	0.603
Mof_H 	H 	0.0452	0.0359	0.9008	-0.058
Mof_H 	H 	0.0981	0.983	0.9377	-0.529
Mof_N 	N 	0.0418	0.6373	0.44047	-0.079
Mof_N 	N 	0.0074	0.5746	0.42942	-0.209
Mof_C 	C 	0.9743	0.5826	0.3719	0.052
Mof_H 	H 	0.9451	0.5479	0.3518	0.011
Mof_C 	C 	0.9879	0.6498	0.3444	-0.005
Mof_C 	C 	0.0306	0.6822	0.3897	-0.021
Mof_H 	H 	0.0491	0.7285	0.3861	0.036
Mof_C 	C 	0.9628	0.6766	0.2795	0.043
Mof_C 	C 	0.9989	0.7283	0.2457	-0.044
Mof_H 	H 	0.0417	0.7459	0.2636	0.026
Mof_C 	C 	0.9735	0.7551	0.1855	0.004
Mof_H 	H 	0.9981	0.7921	0.1636	0.049
Mof_C 	C 	0.9127	0.7281	0.1576	-0.096
Mof_C 	C 	0.878	0.6755	0.1909	0.032
Mof_H 	H 	0.8363	0.6564	0.1719	0.033
Mof_C 	C 	0.9019	0.6494	0.2512	-0.1
Mof_H 	H 	0.8767	0.613	0.2733	0.066
Mof_C 	C 	0.8836	0.7583	0.0939	0.347
Mof_O 	O 	0.9135	0.8124	0.07032	-0.406
Mof_O 	O 	0.8296	0.72865	0.0703	-0.418
Mof_C 	C 	0.9944	0.9488	0.0593	0.214
Mof_H 	H 	0.8914	0.0292	0.9599	0.462
Mof_H 	H 	0.9641	0.9548	0.0992	-0.024
Mof_H 	H 	0.017	0.9019	0.0623	-0.297
Mof_N 	N 	0.9582	0.3627	0.44047	-0.094
Mof_N 	N 	0.9926	0.4254	0.42942	-0.174
Mof_C 	C 	0.0257	0.4174	0.3719	0.03
Mof_H 	H 	0.0549	0.4521	0.3518	0.006
Mof_C 	C 	0.0121	0.3502	0.3444	-0.124
Mof_C 	C 	0.9694	0.3178	0.3897	0.091
Mof_H 	H 	0.9509	0.2715	0.3861	0.006
Mof_C 	C 	0.0372	0.3234	0.2795	0.155
Mof_C 	C 	0.0011	0.2717	0.2457	-0.254
Mof_H 	H 	0.9583	0.2541	0.2636	0.131
Mof_C 	C 	0.0265	0.2449	0.1855	0.121
Mof_H 	H 	0.0019	0.2079	0.1636	-0.012
Mof_C 	C 	0.0873	0.2719	0.1576	-0.175
Mof_C 	C 	0.122	0.3245	0.1909	0.107
Mof_H 	H 	0.1637	0.3436	0.1719	0.007
Mof_C 	C 	0.0981	0.3506	0.2512	-0.193
Mof_H 	H 	0.1233	0.387	0.2733	0.095
Mof_C 	C 	0.1164	0.2417	0.0939	0.372
Mof_O 	O 	0.0865	0.1876	0.07032	-0.425
Mof_O 	O 	0.1704	0.27135	0.0703	-0.425
Mof_C 	C 	0.0056	0.0512	0.0593	0.268
Mof_H 	H 	0.1086	0.9708	0.9599	0.714
Mof_H 	H 	0.0359	0.0452	0.0992	-0.049
Mof_H 	H 	0.983	0.0981	0.0623	-0.439
Mof_Cu	Cu	0.12883	0.12883	-0	0.892
Mof_Cu	Cu	0.22742	0.22742	-0	0.878
Mof_N 	N 	0.0484	0.0484	-0	-0.162
Mof_Cu	Cu	0.87117	0.87117	-0	0.894
Mof_Cu	Cu	0.77258	0.77258	-0	0.878
Mof_N 	N 	0.9516	0.9516	-0	-0.184
Mof_C 	C 	0.355	0.9149	0.5	-0.028
Mof_H 	H 	0.308	0.8923	0.5	0.048
Mof_H 	H 	0.3911	0.8774	0.5	0.045
Mof_C 	C 	0.645	0.0851	0.5	-0.045
Mof_H 	H 	0.692	0.1077	0.5	0.053
Mof_H 	H 	0.6089	0.1226	0.5	0.047
Mof_C 	C 	0.9149	0.355	0.5	-0.028
Mof_H 	H 	0.8923	0.308	0.5	0.048
Mof_H 	H 	0.8774	0.3911	0.5	0.045
Mof_C 	C 	0.0851	0.645	0.5	-0.045
Mof_H 	H 	0.1077	0.692	0.5	0.053
Mof_H 	H 	0.1226	0.6089	0.5	0.047
Mof_Cu	Cu	0.5	0	0.5	0.849
Mof_Cu	Cu	1.97174e-33	0.5	0.5	0.849
Mof_C 	C 	0.9767	0.0785	-0	-0.804
Mof_C 	C 	0.0233	0.9215	-0	-0.444
Mof_C 	C 	0.0785	0.9767	-0	-0.804
Mof_C 	C 	0.9215	0.0233	-0	-0.444
Mof_N 	N 	0.5418	0.8627	0.94047	-0.058
Mof_N 	N 	0.5074	0.9254	0.92942	-0.17
Mof_C 	C 	0.4743	0.9174	0.8719	0.043
Mof_H 	H 	0.4451	0.9521	0.8518	0.021
Mof_C 	C 	0.4879	0.8502	0.8444	-0.057
Mof_C 	C 	0.5306	0.8178	0.8897	0.034
Mof_H 	H 	0.5491	0.7715	0.8861	0.031
Mof_C 	C 	0.4628	0.8234	0.7795	0.1
Mof_C 	C 	0.4989	0.7717	0.7457	-0.144
Mof_H 	H 	0.5417	0.7541	0.7636	0.079
Mof_C 	C 	0.4735	0.7449	0.6855	0.064
Mof_H 	H 	0.4981	0.7079	0.6636	0.021
Mof_C 	C 	0.4127	0.7719	0.6576	-0.133
Mof_C 	C 	0.378	0.8245	0.6909	0.072
Mof_H 	H 	0.3363	0.8436	0.6719	0.022
Mof_C 	C 	0.4019	0.8506	0.7512	-0.144
Mof_H 	H 	0.3767	0.887	0.7733	0.087
Mof_C 	C 	0.3836	0.7417	0.5939	0.361
Mof_O 	O 	0.4135	0.6876	0.57032	-0.406
Mof_O 	O 	0.3296	0.77135	0.5703	-0.413
Mof_C 	C 	0.4944	0.5512	0.5593	-0.013
Mof_H 	H 	0.3914	0.4708	0.4599	0.036
Mof_H 	H 	0.4641	0.5452	0.5992	0.018
Mof_H 	H 	0.517	0.5981	0.5623	0.016
Mof_N 	N 	0.4582	0.1373	0.94047	-0.058
Mof_N 	N 	0.4926	0.0746	0.92942	-0.182
Mof_C 	C 	0.5257	0.0826	0.8719	0.04
Mof_H 	H 	0.5549	0.0479	0.8518	0.004
Mof_C 	C 	0.5121	0.1498	0.8444	-0.058
Mof_C 	C 	0.4694	0.1822	0.8897	0.033
Mof_H 	H 	0.4509	0.2285	0.8861	0.032
Mof_C 	C 	0.5372	0.1766	0.7795	0.095
Mof_C 	C 	0.5011	0.2283	0.7457	-0.142
Mof_H 	H 	0.4583	0.2459	0.7636	0.078
Mof_C 	C 	0.5265	0.2551	0.6855	0.06
Mof_H 	H 	0.5019	0.2921	0.6636	0.021
Mof_C 	C 	0.5873	0.2281	0.6576	-0.131
Mof_C 	C 	0.622	0.1755	0.6909	0.064
Mof_H 	H 	0.6637	0.1564	0.6719	0.022
Mof_C 	C 	0.5981	0.1494	0.7512	-0.141
Mof_H 	H 	0.6233	0.113	0.7733	0.076
Mof_C 	C 	0.6164	0.2583	0.5939	0.36
Mof_O 	O 	0.5865	0.3124	0.57032	-0.406
Mof_O 	O 	0.6704	0.22865	0.5703	-0.413
Mof_C 	C 	0.5056	0.4488	0.5593	-0.011
Mof_H 	H 	0.6086	0.5292	0.4599	0.035
Mof_H 	H 	0.5359	0.4548	0.5992	0.019
Mof_H 	H 	0.483	0.4019	0.5623	0.014
Mof_N 	N 	0.1373	0.4582	0.05953	-0.087
Mof_N 	N 	0.0746	0.4926	0.07058	-0.204
Mof_C 	C 	0.0826	0.5257	0.1281	0.035
Mof_H 	H 	0.0479	0.5549	0.1482	-0.002
Mof_C 	C 	0.1498	0.5121	0.1556	-0.064
Mof_C 	C 	0.1822	0.4694	0.1103	0.027
Mof_H 	H 	0.2285	0.4509	0.1139	0.018
Mof_C 	C 	0.1766	0.5372	0.2205	0.09
Mof_C 	C 	0.2283	0.5011	0.2543	-0.143
Mof_H 	H 	0.2459	0.4583	0.2364	0.074
Mof_C 	C 	0.2551	0.5265	0.3145	0.057
Mof_H 	H 	0.2921	0.5019	0.3364	0.02
Mof_C 	C 	0.2281	0.5873	0.3424	-0.131
Mof_C 	C 	0.1755	0.622	0.3091	0.062
Mof_H 	H 	0.1564	0.6637	0.3281	0.022
Mof_C 	C 	0.1494	0.5981	0.2488	-0.142
Mof_H 	H 	0.113	0.6233	0.2267	0.071
Mof_C 	C 	0.2583	0.6164	0.4061	0.359
Mof_O 	O 	0.3124	0.5865	0.42968	-0.407
Mof_O 	O 	0.22865	0.6704	0.4297	-0.413
Mof_C 	C 	0.4488	0.5056	0.4407	-0.011
Mof_H 	H 	0.5292	0.6086	0.5401	0.034
Mof_H 	H 	0.4548	0.5359	0.4008	0.018
Mof_H 	H 	0.4019	0.483	0.4377	0.012
Mof_N 	N 	0.8627	0.5418	0.05953	-0.086
Mof_N 	N 	0.9254	0.5074	0.07058	-0.192
Mof_C 	C 	0.9174	0.4743	0.1281	0.039
Mof_H 	H 	0.9521	0.4451	0.1482	0.016
Mof_C 	C 	0.8502	0.4879	0.1556	-0.062
Mof_C 	C 	0.8178	0.5306	0.1103	0.027
Mof_H 	H 	0.7715	0.5491	0.1139	0.017
Mof_C 	C 	0.8234	0.4628	0.2205	0.096
Mof_C 	C 	0.7717	0.4989	0.2543	-0.144
Mof_H 	H 	0.7541	0.5417	0.2364	0.075
Mof_C 	C 	0.7449	0.4735	0.3145	0.061
Mof_H 	H 	0.7079	0.4981	0.3364	0.02
Mof_C 	C 	0.7719	0.4127	0.3424	-0.133
Mof_C 	C 	0.8245	0.378	0.3091	0.069
Mof_H 	H 	0.8436	0.3363	0.3281	0.021
Mof_C 	C 	0.8506	0.4019	0.2488	-0.145
Mof_H 	H 	0.887	0.3767	0.2267	0.083
Mof_C 	C 	0.7417	0.3836	0.4061	0.361
Mof_O 	O 	0.6876	0.4135	0.42968	-0.407
Mof_O 	O 	0.77135	0.3296	0.4297	-0.413
Mof_C 	C 	0.5512	0.4944	0.4407	-0.013
Mof_H 	H 	0.4708	0.3914	0.5401	0.035
Mof_H 	H 	0.5452	0.4641	0.4008	0.017
Mof_H 	H 	0.5981	0.517	0.4377	0.014
Mof_N 	N 	0.4582	0.1373	0.05953	-0.087
Mof_N 	N 	0.4926	0.0746	0.07058	-0.204
Mof_C 	C 	0.5257	0.0826	0.1281	0.035
Mof_H 	H 	0.5549	0.0479	0.1482	-0.002
Mof_C 	C 	0.5121	0.1498	0.1556	-0.064
Mof_C 	C 	0.4694	0.1822	0.1103	0.027
Mof_H 	H 	0.4509	0.2285	0.1139	0.018
Mof_C 	C 	0.5372	0.1766	0.2205	0.09
Mof_C 	C 	0.5011	0.2283	0.2543	-0.143
Mof_H 	H 	0.4583	0.2459	0.2364	0.074
Mof_C 	C 	0.5265	0.2551	0.3145	0.057
Mof_H 	H 	0.5019	0.2921	0.3364	0.02
Mof_C 	C 	0.5873	0.2281	0.3424	-0.131
Mof_C 	C 	0.622	0.1755	0.3091	0.062
Mof_H 	H 	0.6637	0.1564	0.3281	0.022
Mof_C 	C 	0.5981	0.1494	0.2488	-0.142
Mof_H 	H 	0.6233	0.113	0.2267	0.071
Mof_C 	C 	0.6164	0.2583	0.4061	0.359
Mof_O 	O 	0.5865	0.3124	0.42968	-0.407
Mof_O 	O 	0.6704	0.22865	0.4297	-0.413
Mof_C 	C 	0.5056	0.4488	0.4407	-0.011
Mof_H 	H 	0.6086	0.5292	0.5401	0.034
Mof_H 	H 	0.5359	0.4548	0.4008	0.018
Mof_H 	H 	0.483	0.4019	0.4377	0.012
Mof_N 	N 	0.5418	0.8627	0.05953	-0.086
Mof_N 	N 	0.5074	0.9254	0.07058	-0.192
Mof_C 	C 	0.4743	0.9174	0.1281	0.039
Mof_H 	H 	0.4451	0.9521	0.1482	0.016
Mof_C 	C 	0.4879	0.8502	0.1556	-0.062
Mof_C 	C 	0.5306	0.8178	0.1103	0.027
Mof_H 	H 	0.5491	0.7715	0.1139	0.017
Mof_C 	C 	0.4628	0.8234	0.2205	0.096
Mof_C 	C 	0.4989	0.7717	0.2543	-0.144
Mof_H 	H 	0.5417	0.7541	0.2364	0.075
Mof_C 	C 	0.4735	0.7449	0.3145	0.061
Mof_H 	H 	0.4981	0.7079	0.3364	0.02
Mof_C 	C 	0.4127	0.7719	0.3424	-0.133
Mof_C 	C 	0.378	0.8245	0.3091	0.069
Mof_H 	H 	0.3363	0.8436	0.3281	0.021
Mof_C 	C 	0.4019	0.8506	0.2488	-0.145
Mof_H 	H 	0.3767	0.887	0.2267	0.083
Mof_C 	C 	0.3836	0.7417	0.4061	0.361
Mof_O 	O 	0.4135	0.6876	0.42968	-0.407
Mof_O 	O 	0.3296	0.77135	0.4297	-0.413
Mof_C 	C 	0.4944	0.5512	0.4407	-0.013
Mof_H 	H 	0.3914	0.4708	0.5401	0.035
Mof_H 	H 	0.4641	0.5452	0.4008	0.017
Mof_H 	H 	0.517	0.5981	0.4377	0.014
Mof_N 	N 	0.8627	0.5418	0.94047	-0.058
Mof_N 	N 	0.9254	0.5074	0.92942	-0.17
Mof_C 	C 	0.9174	0.4743	0.8719	0.043
Mof_H 	H 	0.9521	0.4451	0.8518	0.021
Mof_C 	C 	0.8502	0.4879	0.8444	-0.057
Mof_C 	C 	0.8178	0.5306	0.8897	0.034
Mof_H 	H 	0.7715	0.5491	0.8861	0.031
Mof_C 	C 	0.8234	0.4628	0.7795	0.1
Mof_C 	C 	0.7717	0.4989	0.7457	-0.144
Mof_H 	H 	0.7541	0.5417	0.7636	0.079
Mof_C 	C 	0.7449	0.4735	0.6855	0.064
Mof_H 	H 	0.7079	0.4981	0.6636	0.021
Mof_C 	C 	0.7719	0.4127	0.6576	-0.133
Mof_C 	C 	0.8245	0.378	0.6909	0.072
Mof_H 	H 	0.8436	0.3363	0.6719	0.022
Mof_C 	C 	0.8506	0.4019	0.7512	-0.144
Mof_H 	H 	0.887	0.3767	0.7733	0.087
Mof_C 	C 	0.7417	0.3836	0.5939	0.361
Mof_O 	O 	0.6876	0.4135	0.57032	-0.406
Mof_O 	O 	0.77135	0.3296	0.5703	-0.413
Mof_C 	C 	0.5512	0.4944	0.5593	-0.013
Mof_H 	H 	0.4708	0.3914	0.4599	0.036
Mof_H 	H 	0.5452	0.4641	0.5992	0.018
Mof_H 	H 	0.5981	0.517	0.5623	0.016
Mof_N 	N 	0.1373	0.4582	0.94047	-0.058
Mof_N 	N 	0.0746	0.4926	0.92942	-0.182
Mof_C 	C 	0.0826	0.5257	0.8719	0.04
Mof_H 	H 	0.0479	0.5549	0.8518	0.004
Mof_C 	C 	0.1498	0.5121	0.8444	-0.058
Mof_C 	C 	0.1822	0.4694	0.8897	0.033
Mof_H 	H 	0.2285	0.4509	0.8861	0.032
Mof_C 	C 	0.1766	0.5372	0.7795	0.095
Mof_C 	C 	0.2283	0.5011	0.7457	-0.142
Mof_H 	H 	0.2459	0.4583	0.7636	0.078
Mof_C 	C 	0.2551	0.5265	0.6855	0.06
Mof_H 	H 	0.2921	0.5019	0.6636	0.021
Mof_C 	C 	0.2281	0.5873	0.6576	-0.131
Mof_C 	C 	0.1755	0.622	0.6909	0.064
Mof_H 	H 	0.1564	0.6637	0.6719	0.022
Mof_C 	C 	0.1494	0.5981	0.7512	-0.141
Mof_H 	H 	0.113	0.6233	0.7733	0.076
Mof_C 	C 	0.2583	0.6164	0.5939	0.36
Mof_O 	O 	0.3124	0.5865	0.57032	-0.406
Mof_O 	O 	0.22865	0.6704	0.5703	-0.413
Mof_C 	C 	0.4488	0.5056	0.5593	-0.011
Mof_H 	H 	0.5292	0.6086	0.4599	0.035
Mof_H 	H 	0.4548	0.5359	0.5992	0.019
Mof_H 	H 	0.4019	0.483	0.5623	0.014
Mof_Cu	Cu	0.37117	0.62883	0.5	0.914
Mof_Cu	Cu	0.27258	0.72742	0.5	0.901
Mof_N 	N 	0.4516	0.5484	0.5	-0.15
Mof_Cu	Cu	0.62883	0.37117	0.5	0.914
Mof_Cu	Cu	0.72742	0.27258	0.5	0.901
Mof_N 	N 	0.5484	0.4516	0.5	-0.15
Mof_C 	C 	0.5851	0.855	-0	-0.08
Mof_H 	H 	0.6077	0.808	-0	0.046
Mof_H 	H 	0.6226	0.8911	-0	0.044
Mof_C 	C 	0.4149	0.145	-0	-0.082
Mof_H 	H 	0.3923	0.192	-0	0.046
Mof_H 	H 	0.3774	0.1089	-0	0.038
Mof_C 	C 	0.145	0.4149	-0	-0.082
Mof_H 	H 	0.192	0.3923	-0	0.046
Mof_H 	H 	0.1089	0.3774	-0	0.038
Mof_C 	C 	0.855	0.5851	-0	-0.08
Mof_H 	H 	0.808	0.6077	-0	0.046
Mof_H 	H 	0.8911	0.6226	-0	0.044
Mof_Cu	Cu	0.5	0	-0	0.827
Mof_Cu	Cu	-3.50475e-33	0.5	-0	0.827
Mof_C 	C 	0.4215	0.4767	0.5	-0.042
Mof_C 	C 	0.5785	0.5233	0.5	-0.04
Mof_C 	C 	0.5233	0.5785	0.5	-0.04
Mof_C 	C 	0.4767	0.4215	0.5	-0.042
_end
