data_functionalizedCrystal
_audit_creation_method	'EQeq! by Chris Wilmer'
_symmetry_space_group_name_H-M	'P1'
_symmetry_Int_Tables_number	1
_symmetry_cell_setting	triclinic
loop_
_symmetry_equiv_pos_as_xyz
  x,y,z
_cell_length_a	10.312
_cell_length_b	13.919
_cell_length_c	14.174
_cell_angle_alpha	88.35
_cell_angle_beta	69.287
_cell_angle_gamma	74.727
loop_
_atom_site_label
_atom_site_type_symbol
_atom_site_fract_x
_atom_site_fract_y
_atom_site_fract_z
_atom_site_charge
Mof_O 	O 	0.5541	0.5733	0.7544	-0.341
Mof_Cd	Cd	0.56096	0.44682	0.36614	0.454
Mof_N 	N 	0.5648	0.2965	0.4382	-0.15
Mof_N 	N 	0.6467	0.1752	0.525	-0.111
Mof_N 	N 	0.7752	0.3538	0.242	-0.144
Mof_N 	N 	0.9225	0.2657	0.0971	-0.117
Mof_O 	O 	0.3475	0.5042	0.5227	-0.339
Mof_O 	O 	0.2822	0.4243	0.6606	-0.305
Mof_O 	O 	0.5822	0.4264	0.6913	-0.327
Mof_C 	C 	0.2789	0.4455	0.5766	0.463
Mof_C 	C 	0.1926	0.4025	0.5305	-0.631
Mof_H 	H 	0.1411	0.4557	0.5007	0.213
Mof_H 	H 	0.2591	0.3534	0.4761	0.219
Mof_C 	C 	0.0855	0.354	0.6024	0.468
Mof_C 	C 	0.1171	0.2515	0.6086	-0.487
Mof_H 	H 	0.2056	0.2113	0.5667	0.2
Mof_C 	C 	0.0196	0.2084	0.6756	0.397
Mof_H 	H 	0.0434	0.1395	0.6789	-0.109
Mof_C 	C 	0.8877	0.2654	0.7379	-0.488
Mof_H 	H 	0.822	0.235	0.7821	0.196
Mof_C 	C 	0.8522	0.369	0.7347	0.474
Mof_C 	C 	0.9522	0.4106	0.6665	-0.519
Mof_H 	H 	0.9291	0.4796	0.6635	0.209
Mof_C 	C 	0.7079	0.4345	0.8006	-0.66
Mof_H 	H 	0.6601	0.395	0.8519	0.225
Mof_H 	H 	0.7233	0.4874	0.8349	0.23
Mof_C 	C 	0.6098	0.4809	0.7448	0.484
Mof_C 	C 	0.6104	0.2742	0.5138	0.078
Mof_H 	H 	0.617	0.3218	0.5553	0.04
Mof_C 	C 	0.5707	0.205	0.3963	0.065
Mof_C 	C 	0.5354	0.1827	0.3148	-0.114
Mof_H 	H 	0.4988	0.2328	0.2788	0.079
Mof_C 	C 	0.5569	0.0835	0.2897	-0.008
Mof_H 	H 	0.5331	0.0664	0.2362	0.028
Mof_C 	C 	0.6131	0.0082	0.342	-0.045
Mof_H 	H 	0.6279	0.9421	0.3215	0.045
Mof_C 	C 	0.6474	0.0284	0.4229	-0.07
Mof_H 	H 	0.6844	0.9778	0.4583	0.057
Mof_C 	C 	0.6238	0.1289	0.4494	0.044
Mof_C 	C 	0.7089	0.127	0.5979	-0.126
Mof_H 	H 	0.6489	0.0867	0.6386	0.07
Mof_H 	H 	0.7103	0.1777	0.6427	0.079
Mof_C 	C 	0.955	0.0876	0.461	-0.067
Mof_H 	H 	0.9254	0.1467	0.4328	0.066
Mof_C 	C 	0.8608	0.0612	0.5464	0.067
Mof_C 	C 	0.9058	0.973	0.5838	-0.081
Mof_H 	H 	0.8422	0.9528	0.6404	0.056
Mof_C 	C 	0.788	0.322	0.1521	0.083
Mof_H 	H 	0.7122	0.3366	0.1282	0.016
Mof_C 	C 	0.9122	0.3158	0.2469	0.069
Mof_C 	C 	0.963	0.3254	0.3243	-0.103
Mof_H 	H 	0.9024	0.3606	0.3856	0.072
Mof_C 	C 	0.1061	0.2807	0.3062	-0.018
Mof_H 	H 	0.1432	0.2871	0.356	0.026
Mof_C 	C 	0.1974	0.2257	0.2151	-0.035
Mof_H 	H 	0.2935	0.1963	0.2059	0.038
Mof_C 	C 	0.148	0.2142	0.139	-0.082
Mof_H 	H 	0.2079	0.1771	0.0786	0.061
Mof_C 	C 	0.0049	0.2605	0.1569	0.05
Mof_C 	C 	0.9692	0.2146	0.997	-0.113
Mof_H 	H 	0.0609	0.2253	0.9551	0.069
Mof_H 	H 	0.8996	0.2437	0.9654	0.065
Mof_C 	C 	0.9213	0.0593	0.0879	-0.066
Mof_H 	H 	0.8694	0.0987	0.1481	0.065
Mof_C 	C 	0.9849	0.1024	0.0011	0.057
Mof_C 	C 	0.0663	0.0417	0.9137	-0.078
Mof_H 	H 	0.1133	0.0693	0.8552	0.057
Mof_O 	O 	0.4459	0.4267	0.2456	-0.341
Mof_Cd	Cd	0.43904	0.55318	0.63386	0.454
Mof_N 	N 	0.4352	0.7035	0.5618	-0.15
Mof_N 	N 	0.3533	0.8248	0.475	-0.111
Mof_N 	N 	0.2248	0.6462	0.758	-0.144
Mof_N 	N 	0.0775	0.7343	0.9029	-0.117
Mof_O 	O 	0.6525	0.4958	0.4773	-0.339
Mof_O 	O 	0.7178	0.5757	0.3394	-0.305
Mof_O 	O 	0.4178	0.5736	0.3087	-0.327
Mof_C 	C 	0.7211	0.5545	0.4234	0.463
Mof_C 	C 	0.8074	0.5975	0.4695	-0.631
Mof_H 	H 	0.8589	0.5443	0.4993	0.213
Mof_H 	H 	0.7409	0.6466	0.5239	0.219
Mof_C 	C 	0.9145	0.646	0.3976	0.468
Mof_C 	C 	0.8829	0.7485	0.3914	-0.487
Mof_H 	H 	0.7944	0.7887	0.4333	0.2
Mof_C 	C 	0.9804	0.7916	0.3244	0.397
Mof_H 	H 	0.9566	0.8605	0.3211	-0.109
Mof_C 	C 	0.1123	0.7346	0.2621	-0.488
Mof_H 	H 	0.178	0.765	0.2179	0.196
Mof_C 	C 	0.1478	0.631	0.2653	0.474
Mof_C 	C 	0.0478	0.5894	0.3335	-0.519
Mof_H 	H 	0.0709	0.5204	0.3365	0.209
Mof_C 	C 	0.2921	0.5655	0.1994	-0.66
Mof_H 	H 	0.3399	0.605	0.1481	0.225
Mof_H 	H 	0.2767	0.5126	0.1651	0.23
Mof_C 	C 	0.3902	0.5191	0.2552	0.484
Mof_C 	C 	0.3896	0.7258	0.4862	0.078
Mof_H 	H 	0.383	0.6782	0.4447	0.04
Mof_C 	C 	0.4293	0.795	0.6037	0.065
Mof_C 	C 	0.4646	0.8173	0.6852	-0.114
Mof_H 	H 	0.5012	0.7672	0.7212	0.079
Mof_C 	C 	0.4431	0.9165	0.7103	-0.008
Mof_H 	H 	0.4669	0.9336	0.7638	0.028
Mof_C 	C 	0.3869	0.9918	0.658	-0.045
Mof_H 	H 	0.3721	0.0579	0.6785	0.045
Mof_C 	C 	0.3526	0.9716	0.5771	-0.07
Mof_H 	H 	0.3156	0.0222	0.5417	0.057
Mof_C 	C 	0.3762	0.8711	0.5506	0.044
Mof_C 	C 	0.2911	0.873	0.4021	-0.126
Mof_H 	H 	0.3511	0.9133	0.3614	0.07
Mof_H 	H 	0.2897	0.8223	0.3573	0.079
Mof_C 	C 	0.045	0.9124	0.539	-0.067
Mof_H 	H 	0.0746	0.8533	0.5672	0.066
Mof_C 	C 	0.1392	0.9388	0.4536	0.067
Mof_C 	C 	0.0942	0.027	0.4162	-0.081
Mof_H 	H 	0.1578	0.0472	0.3596	0.056
Mof_C 	C 	0.212	0.678	0.8479	0.083
Mof_H 	H 	0.2878	0.6634	0.8718	0.016
Mof_C 	C 	0.0878	0.6842	0.7531	0.069
Mof_C 	C 	0.037	0.6746	0.6757	-0.103
Mof_H 	H 	0.0976	0.6394	0.6144	0.072
Mof_C 	C 	0.8939	0.7193	0.6938	-0.018
Mof_H 	H 	0.8568	0.7129	0.644	0.026
Mof_C 	C 	0.8026	0.7743	0.7849	-0.035
Mof_H 	H 	0.7065	0.8037	0.7941	0.038
Mof_C 	C 	0.852	0.7858	0.861	-0.082
Mof_H 	H 	0.7921	0.8229	0.9214	0.061
Mof_C 	C 	0.9951	0.7395	0.8431	0.05
Mof_C 	C 	0.0308	0.7854	0.003	-0.113
Mof_H 	H 	0.9391	0.7747	0.0449	0.069
Mof_H 	H 	0.1004	0.7563	0.0346	0.065
Mof_C 	C 	0.0787	0.9407	0.9121	-0.066
Mof_H 	H 	0.1306	0.9013	0.8519	0.065
Mof_C 	C 	0.0151	0.8976	0.9989	0.057
Mof_C 	C 	0.9337	0.9583	0.0863	-0.078
Mof_H 	H 	0.8867	0.9307	0.1448	0.057
_end
