data_functionalizedCrystal
_audit_creation_method	'EQeq! by Chris Wilmer'
_symmetry_space_group_name_H-M	'P1'
_symmetry_Int_Tables_number	1
_symmetry_cell_setting	triclinic
loop_
_symmetry_equiv_pos_as_xyz
  x,y,z
_cell_length_a	16.2636
_cell_length_b	16.2636
_cell_length_c	22.1993
_cell_angle_alpha	68.5119
_cell_angle_beta	68.5118
_cell_angle_gamma	60
loop_
_atom_site_label
_atom_site_type_symbol
_atom_site_fract_x
_atom_site_fract_y
_atom_site_fract_z
_atom_site_charge
Mof_Cd	Cd	0.36445	0.54508	0.28114	0.467
Mof_Cd	Cd	0.54508	0.80933	0.28114	0.467
Mof_Cd	Cd	0.80933	0.36445	0.28114	0.467
Mof_Cd	Cd	0.13555	0.69067	0.21886	0.467
Mof_Cd	Cd	0.95492	0.13555	0.21886	0.467
Mof_Cd	Cd	0.69067	0.95492	0.21886	0.467
Mof_Cd	Cd	0.63555	0.45492	0.71886	0.466
Mof_Cd	Cd	0.45492	0.19067	0.71886	0.466
Mof_Cd	Cd	0.19067	0.63555	0.71886	0.466
Mof_Cd	Cd	0.86445	0.30933	0.78114	0.466
Mof_Cd	Cd	0.04508	0.86445	0.78114	0.466
Mof_Cd	Cd	0.30933	0.04508	0.78114	0.466
Mof_H 	H 	0.2371	0.4931	0.2847	0.345
Mof_H 	H 	0.1703	0.2886	0.4701	0.052
Mof_H 	H 	0.1842	0.1993	0.5856	0.043
Mof_H 	H 	0.3918	0.5684	0.4107	0.055
Mof_H 	H 	0.4615	0.4557	0.4107	0.054
Mof_H 	H 	0.5849	0.4102	0.3114	0.05
Mof_H 	H 	0.5981	0.492	0.246	0.048
Mof_H 	H 	0.4931	0.9851	0.2847	0.345
Mof_H 	H 	0.2886	0.071	0.4701	0.053
Mof_H 	H 	0.1993	0.0309	0.5856	0.042
Mof_H 	H 	0.5684	0.6291	0.4107	0.055
Mof_H 	H 	0.4557	0.6721	0.4107	0.054
Mof_H 	H 	0.4102	0.6935	0.3114	0.05
Mof_H 	H 	0.492	0.6639	0.246	0.048
Mof_H 	H 	0.9851	0.2371	0.2847	0.345
Mof_H 	H 	0.071	0.1703	0.4701	0.053
Mof_H 	H 	0.0309	0.1842	0.5856	0.042
Mof_H 	H 	0.6291	0.3918	0.4107	0.055
Mof_H 	H 	0.6721	0.4615	0.4107	0.054
Mof_H 	H 	0.6935	0.5849	0.3114	0.05
Mof_H 	H 	0.6639	0.5981	0.246	0.048
Mof_H 	H 	0.2629	0.5149	0.2153	0.345
Mof_H 	H 	0.3297	0.429	0.0299	0.052
Mof_H 	H 	0.3158	0.4691	0.9144	0.043
Mof_H 	H 	0.1082	0.8709	0.0893	0.055
Mof_H 	H 	0.0385	0.8279	0.0893	0.054
Mof_H 	H 	0.9151	0.8065	0.1886	0.05
Mof_H 	H 	0.9019	0.8361	0.254	0.048
Mof_H 	H 	0.0069	0.2629	0.2153	0.344
Mof_H 	H 	0.2114	0.3297	0.0299	0.052
Mof_H 	H 	0.3007	0.3158	0.9144	0.043
Mof_H 	H 	0.9316	0.1082	0.0893	0.054
Mof_H 	H 	0.0443	0.0385	0.0893	0.052
Mof_H 	H 	0.0898	0.9151	0.1886	0.051
Mof_H 	H 	0.008	0.9019	0.254	0.048
Mof_H 	H 	0.5149	0.0069	0.2153	0.345
Mof_H 	H 	0.429	0.2114	0.0299	0.052
Mof_H 	H 	0.4691	0.3007	0.9144	0.043
Mof_H 	H 	0.8709	0.9316	0.0893	0.055
Mof_H 	H 	0.8279	0.0443	0.0893	0.054
Mof_H 	H 	0.8065	0.0898	0.1886	0.05
Mof_H 	H 	0.8361	0.008	0.254	0.048
Mof_H 	H 	0.7629	0.5069	0.7153	0.345
Mof_H 	H 	0.8297	0.7114	0.5299	0.052
Mof_H 	H 	0.8158	0.8007	0.4144	0.043
Mof_H 	H 	0.6082	0.4316	0.5893	0.055
Mof_H 	H 	0.5385	0.5443	0.5893	0.054
Mof_H 	H 	0.4151	0.5898	0.6886	0.05
Mof_H 	H 	0.4019	0.508	0.754	0.048
Mof_H 	H 	0.5069	0.0149	0.7153	0.345
Mof_H 	H 	0.7114	0.929	0.5299	0.053
Mof_H 	H 	0.8007	0.9691	0.4144	0.042
Mof_H 	H 	0.4316	0.3709	0.5893	0.055
Mof_H 	H 	0.5443	0.3279	0.5893	0.054
Mof_H 	H 	0.5898	0.3065	0.6886	0.05
Mof_H 	H 	0.508	0.3361	0.754	0.048
Mof_H 	H 	0.0149	0.7629	0.7153	0.345
Mof_H 	H 	0.929	0.8297	0.5299	0.053
Mof_H 	H 	0.9691	0.8158	0.4144	0.042
Mof_H 	H 	0.3709	0.6082	0.5893	0.055
Mof_H 	H 	0.3279	0.5385	0.5893	0.054
Mof_H 	H 	0.3065	0.4151	0.6886	0.05
Mof_H 	H 	0.3361	0.4019	0.754	0.048
Mof_H 	H 	0.7371	0.4851	0.7847	0.345
Mof_H 	H 	0.6703	0.571	0.9701	0.052
Mof_H 	H 	0.6842	0.5309	0.0856	0.043
Mof_H 	H 	0.8918	0.1291	0.9107	0.055
Mof_H 	H 	0.9615	0.1721	0.9107	0.054
Mof_H 	H 	0.0849	0.1935	0.8114	0.05
Mof_H 	H 	0.0981	0.1639	0.746	0.048
Mof_H 	H 	0.9931	0.7371	0.7847	0.344
Mof_H 	H 	0.7886	0.6703	0.9701	0.052
Mof_H 	H 	0.6993	0.6842	0.0856	0.043
Mof_H 	H 	0.0684	0.8918	0.9107	0.054
Mof_H 	H 	0.9557	0.9615	0.9107	0.052
Mof_H 	H 	0.9102	0.0849	0.8114	0.051
Mof_H 	H 	0.992	0.0981	0.746	0.048
Mof_H 	H 	0.4851	0.9931	0.7847	0.345
Mof_H 	H 	0.571	0.7886	0.9701	0.052
Mof_H 	H 	0.5309	0.6993	0.0856	0.043
Mof_H 	H 	0.1291	0.0684	0.9107	0.055
Mof_H 	H 	0.1721	0.9557	0.9107	0.054
Mof_H 	H 	0.1935	0.9102	0.8114	0.05
Mof_H 	H 	0.1639	0.992	0.746	0.048
Mof_C 	C 	0.27311	0.40561	0.39537	0.32
Mof_C 	C 	0.26227	0.34497	0.46419	-0.075
Mof_C 	C 	0.20847	0.29137	0.49239	-0.015
Mof_C 	C 	0.21615	0.24045	0.55875	-0.007
Mof_C 	C 	0.27452	0.25692	0.57984	-0.082
Mof_C 	C 	0.2988	0.2163	0.6465	0.329
Mof_C 	C 	0.45869	0.52239	0.39363	-0.011
Mof_C 	C 	0.58139	0.47699	0.29523	-0.01
Mof_C 	C 	0.40561	0.92591	0.39537	0.32
Mof_C 	C 	0.34497	0.92857	0.46419	-0.074
Mof_C 	C 	0.29137	0.00777	0.49239	-0.017
Mof_C 	C 	0.24045	0.98465	0.55875	-0.005
Mof_C 	C 	0.25692	0.88872	0.57984	-0.083
Mof_C 	C 	0.2163	0.8384	0.6465	0.33
Mof_C 	C 	0.52239	0.62529	0.39363	-0.011
Mof_C 	C 	0.47699	0.64639	0.29523	-0.01
Mof_C 	C 	0.92591	0.27311	0.39537	0.32
Mof_C 	C 	0.92857	0.26227	0.46419	-0.074
Mof_C 	C 	0.00777	0.20847	0.49239	-0.017
Mof_C 	C 	0.98465	0.21615	0.55875	-0.005
Mof_C 	C 	0.88872	0.27452	0.57984	-0.083
Mof_C 	C 	0.8384	0.2988	0.6465	0.33
Mof_C 	C 	0.62529	0.45869	0.39363	-0.011
Mof_C 	C 	0.64639	0.58139	0.29523	-0.01
Mof_C 	C 	0.22689	0.57409	0.10463	0.32
Mof_C 	C 	0.23773	0.57143	0.03581	-0.075
Mof_C 	C 	0.29153	0.49223	0.00761	-0.015
Mof_C 	C 	0.28385	0.51535	0.94125	-0.007
Mof_C 	C 	0.22548	0.61128	0.92016	-0.082
Mof_C 	C 	0.2012	0.6616	0.8535	0.33
Mof_C 	C 	0.04131	0.87471	0.10637	-0.01
Mof_C 	C 	0.91861	0.85361	0.20477	-0.011
Mof_C 	C 	0.09439	0.22689	0.10463	0.32
Mof_C 	C 	0.15503	0.23773	0.03581	-0.076
Mof_C 	C 	0.20863	0.29153	0.00761	-0.015
Mof_C 	C 	0.25955	0.28385	0.94125	-0.007
Mof_C 	C 	0.24308	0.22548	0.92016	-0.082
Mof_C 	C 	0.2837	0.2012	0.8535	0.33
Mof_C 	C 	0.97761	0.04131	0.10637	-0.008
Mof_C 	C 	0.02301	0.91861	0.20477	-0.01
Mof_C 	C 	0.57409	0.09439	0.10463	0.32
Mof_C 	C 	0.57143	0.15503	0.03581	-0.075
Mof_C 	C 	0.49223	0.20863	0.00761	-0.015
Mof_C 	C 	0.51535	0.25955	0.94125	-0.007
Mof_C 	C 	0.61128	0.24308	0.92016	-0.082
Mof_C 	C 	0.6616	0.2837	0.8535	0.33
Mof_C 	C 	0.87471	0.97761	0.10637	-0.011
Mof_C 	C 	0.85361	0.02301	0.20477	-0.01
Mof_C 	C 	0.72689	0.59439	0.60463	0.32
Mof_C 	C 	0.73773	0.65503	0.53581	-0.075
Mof_C 	C 	0.79153	0.70863	0.50761	-0.015
Mof_C 	C 	0.78385	0.75955	0.44125	-0.007
Mof_C 	C 	0.72548	0.74308	0.42016	-0.082
Mof_C 	C 	0.7012	0.7837	0.3535	0.329
Mof_C 	C 	0.54131	0.47761	0.60637	-0.011
Mof_C 	C 	0.41861	0.52301	0.70477	-0.01
Mof_C 	C 	0.59439	0.07409	0.60463	0.32
Mof_C 	C 	0.65503	0.07143	0.53581	-0.074
Mof_C 	C 	0.70863	0.99223	0.50761	-0.017
Mof_C 	C 	0.75955	0.01535	0.44125	-0.005
Mof_C 	C 	0.74308	0.11128	0.42016	-0.083
Mof_C 	C 	0.7837	0.1616	0.3535	0.33
Mof_C 	C 	0.47761	0.37471	0.60637	-0.011
Mof_C 	C 	0.52301	0.35361	0.70477	-0.01
Mof_C 	C 	0.07409	0.72689	0.60463	0.32
Mof_C 	C 	0.07143	0.73773	0.53581	-0.074
Mof_C 	C 	0.99223	0.79153	0.50761	-0.017
Mof_C 	C 	0.01535	0.78385	0.44125	-0.005
Mof_C 	C 	0.11128	0.72548	0.42016	-0.083
Mof_C 	C 	0.1616	0.7012	0.3535	0.33
Mof_C 	C 	0.37471	0.54131	0.60637	-0.011
Mof_C 	C 	0.35361	0.41861	0.70477	-0.01
Mof_C 	C 	0.77311	0.42591	0.89537	0.32
Mof_C 	C 	0.76227	0.42857	0.96419	-0.075
Mof_C 	C 	0.70847	0.50777	0.99239	-0.015
Mof_C 	C 	0.71615	0.48465	0.05875	-0.007
Mof_C 	C 	0.77452	0.38872	0.07984	-0.082
Mof_C 	C 	0.7988	0.3384	0.1465	0.33
Mof_C 	C 	0.95869	0.12529	0.89363	-0.01
Mof_C 	C 	0.08139	0.14639	0.79523	-0.011
Mof_C 	C 	0.90561	0.77311	0.89537	0.32
Mof_C 	C 	0.84497	0.76227	0.96419	-0.076
Mof_C 	C 	0.79137	0.70847	0.99239	-0.015
Mof_C 	C 	0.74045	0.71615	0.05875	-0.007
Mof_C 	C 	0.75692	0.77452	0.07984	-0.082
Mof_C 	C 	0.7163	0.7988	0.1465	0.33
Mof_C 	C 	0.02239	0.95869	0.89363	-0.008
Mof_C 	C 	0.97699	0.08139	0.79523	-0.01
Mof_C 	C 	0.42591	0.90561	0.89537	0.32
Mof_C 	C 	0.42857	0.84497	0.96419	-0.075
Mof_C 	C 	0.50777	0.79137	0.99239	-0.015
Mof_C 	C 	0.48465	0.74045	0.05875	-0.007
Mof_C 	C 	0.38872	0.75692	0.07984	-0.082
Mof_C 	C 	0.3384	0.7163	0.1465	0.33
Mof_C 	C 	0.12529	0.02239	0.89363	-0.011
Mof_C 	C 	0.14639	0.97699	0.79523	-0.01
Mof_S 	S 	0.32276	0.33275	0.51846	0.067
Mof_S 	S 	0.33275	0.82603	0.51846	0.067
Mof_S 	S 	0.82603	0.32276	0.51846	0.067
Mof_S 	S 	0.17724	0.67397	0.98154	0.068
Mof_S 	S 	0.16725	0.17724	0.98154	0.068
Mof_S 	S 	0.67397	0.16725	0.98154	0.068
Mof_S 	S 	0.67724	0.66725	0.48154	0.067
Mof_S 	S 	0.66725	0.17397	0.48154	0.067
Mof_S 	S 	0.17397	0.67724	0.48154	0.067
Mof_S 	S 	0.82276	0.32603	0.01846	0.068
Mof_S 	S 	0.83275	0.82276	0.01846	0.068
Mof_S 	S 	0.32603	0.83275	0.01846	0.068
Mof_N 	N 	0.48083	0.54713	0.31881	-0.114
Mof_N 	N 	0.54713	0.65323	0.31881	-0.114
Mof_N 	N 	0.65323	0.48083	0.31881	-0.114
Mof_N 	N 	0.01917	0.84677	0.18119	-0.114
Mof_N 	N 	0.95287	0.01917	0.18119	-0.114
Mof_N 	N 	0.84677	0.95287	0.18119	-0.114
Mof_N 	N 	0.51917	0.45287	0.68119	-0.114
Mof_N 	N 	0.45287	0.34677	0.68119	-0.114
Mof_N 	N 	0.34677	0.51917	0.68119	-0.114
Mof_N 	N 	0.98083	0.15323	0.81881	-0.114
Mof_N 	N 	0.04713	0.98083	0.81881	-0.114
Mof_N 	N 	0.15323	0.04713	0.81881	-0.114
Mof_N 	N 	0.52744	0.52744	0.41768	-0.097
Mof_N 	N 	0.97256	0.97256	0.08232	-0.097
Mof_N 	N 	0.47256	0.47256	0.58232	-0.097
Mof_N 	N 	0.02744	0.02744	0.91768	-0.097
Mof_O 	O 	0.34167	0.43263	0.37569	-0.284
Mof_O 	O 	0.21538	0.42438	0.36276	-0.286
Mof_O 	O 	0.27289	0.14971	0.68457	-0.288
Mof_O 	O 	0.34314	0.25138	0.65808	-0.282
Mof_O 	O 	0.43263	0.85001	0.37569	-0.284
Mof_O 	O 	0.42438	0.99748	0.36276	-0.286
Mof_O 	O 	0.14971	0.89283	0.68457	-0.288
Mof_O 	O 	0.25138	0.7474	0.65808	-0.282
Mof_O 	O 	0.85001	0.34167	0.37569	-0.284
Mof_O 	O 	0.99748	0.21538	0.36276	-0.286
Mof_O 	O 	0.89283	0.27289	0.68457	-0.288
Mof_O 	O 	0.7474	0.34314	0.65808	-0.282
Mof_O 	O 	0.15833	0.64999	0.12431	-0.284
Mof_O 	O 	0.28462	0.50252	0.13724	-0.286
Mof_O 	O 	0.22711	0.60717	0.81543	-0.288
Mof_O 	O 	0.15686	0.7526	0.84192	-0.282
Mof_O 	O 	0.06737	0.15833	0.12431	-0.285
Mof_O 	O 	0.07562	0.28462	0.13724	-0.286
Mof_O 	O 	0.35029	0.22711	0.81543	-0.288
Mof_O 	O 	0.24862	0.15686	0.84192	-0.282
Mof_O 	O 	0.64999	0.06737	0.12431	-0.284
Mof_O 	O 	0.50252	0.07562	0.13724	-0.286
Mof_O 	O 	0.60717	0.35029	0.81543	-0.288
Mof_O 	O 	0.7526	0.24862	0.84192	-0.282
Mof_O 	O 	0.65833	0.56737	0.62431	-0.284
Mof_O 	O 	0.78462	0.57562	0.63724	-0.286
Mof_O 	O 	0.72711	0.85029	0.31543	-0.288
Mof_O 	O 	0.65686	0.74862	0.34192	-0.282
Mof_O 	O 	0.56737	0.14999	0.62431	-0.284
Mof_O 	O 	0.57562	0.00252	0.63724	-0.286
Mof_O 	O 	0.85029	0.10717	0.31543	-0.288
Mof_O 	O 	0.74862	0.2526	0.34192	-0.282
Mof_O 	O 	0.14999	0.65833	0.62431	-0.284
Mof_O 	O 	0.00252	0.78462	0.63724	-0.286
Mof_O 	O 	0.10717	0.72711	0.31543	-0.288
Mof_O 	O 	0.2526	0.65686	0.34192	-0.282
Mof_O 	O 	0.84167	0.35001	0.87569	-0.284
Mof_O 	O 	0.71538	0.49748	0.86276	-0.286
Mof_O 	O 	0.77289	0.39283	0.18457	-0.288
Mof_O 	O 	0.84314	0.2474	0.15808	-0.282
Mof_O 	O 	0.93263	0.84167	0.87569	-0.285
Mof_O 	O 	0.92438	0.71538	0.86276	-0.286
Mof_O 	O 	0.64971	0.77289	0.18457	-0.288
Mof_O 	O 	0.75138	0.84314	0.15808	-0.282
Mof_O 	O 	0.35001	0.93263	0.87569	-0.284
Mof_O 	O 	0.49748	0.92438	0.86276	-0.286
Mof_O 	O 	0.39283	0.64971	0.18457	-0.288
Mof_O 	O 	0.2474	0.75138	0.15808	-0.282
Mof_O 	O 	0.25	0.53505	0.25	-0.689
Mof_O 	O 	0.53505	0.96495	0.25	-0.688
Mof_O 	O 	0.96495	0.25	0.25	-0.688
Mof_O 	O 	0.75	0.46495	0.75	-0.689
Mof_O 	O 	0.46495	0.03505	0.75	-0.688
Mof_O 	O 	0.03505	0.75	0.75	-0.688
_end
