data_functionalizedCrystal
_audit_creation_method	'EQeq! by Chris Wilmer'
_symmetry_space_group_name_H-M	'P1'
_symmetry_Int_Tables_number	1
_symmetry_cell_setting	triclinic
loop_
_symmetry_equiv_pos_as_xyz
  x,y,z
_cell_length_a	19.1212
_cell_length_b	19.1211
_cell_length_c	12.7594
_cell_angle_alpha	92.4027
_cell_angle_beta	87.5339
_cell_angle_gamma	95.0025
loop_
_atom_site_label
_atom_site_type_symbol
_atom_site_fract_x
_atom_site_fract_y
_atom_site_fract_z
_atom_site_charge
Mof_Zn	Zn	0.06376	0.76571	0.32296	1.215
Mof_Zn	Zn	0.05864	0.64802	0.49148	1.214
Mof_Zn	Zn	0.94609	0.76066	0.50584	1.212
Mof_Zn	Zn	0.94104	0.64307	0.32306	1.212
Mof_O 	O 	0.00238	0.70437	0.41083	-0.965
Mof_O 	O 	0.16155	0.75428	0.33926	-0.491
Mof_O 	O 	0.04369	0.66293	0.6404	-0.504
Mof_O 	O 	0.96595	0.8598	0.48755	-0.5
Mof_O 	O 	0.15779	0.66782	0.46308	-0.499
Mof_O 	O 	0.05241	0.86351	0.35319	-0.485
Mof_O 	O 	0.96099	0.74568	0.65095	-0.51
Mof_O 	O 	0.84695	0.74088	0.48764	-0.495
Mof_O 	O 	0.95734	0.65938	0.17602	-0.494
Mof_O 	O 	0.84324	0.65449	0.35335	-0.491
Mof_O 	O 	0.04751	0.74948	0.17595	-0.483
Mof_O 	O 	0.03879	0.5489	0.46317	-0.492
Mof_O 	O 	0.95238	0.54526	0.33943	-0.493
Mof_C 	C 	0.81956	0.6966	0.42207	0.364
Mof_C 	C 	0.74135	0.69326	0.42685	-0.091
Mof_C 	C 	0.29891	0.67211	0.45708	0.038
Mof_C 	C 	0.3724	0.67525	0.4526	-0.077
Mof_C 	C 	0.4111	0.72177	0.38578	0.065
Mof_C 	C 	0.37631	0.76515	0.32345	-0.076
Mof_C 	C 	0.30282	0.76201	0.32794	0.046
Mof_C 	C 	0.63308	0.7335	0.369	-0.039
Mof_C 	C 	0.70657	0.73663	0.36452	0.034
Mof_C 	C 	0.70265	0.64674	0.49367	0.028
Mof_C 	C 	0.62917	0.6436	0.49814	-0.058
Mof_C 	C 	0.59438	0.68698	0.43582	0.035
Mof_C 	C 	0.48621	0.72498	0.3812	-0.06
Mof_C 	C 	0.51927	0.68378	0.44041	-0.012
Mof_C 	C 	0.9945	0.52155	0.39973	0.356
Mof_C 	C 	0.99119	0.44334	0.39494	-0.105
Mof_C 	C 	0.03466	0.40852	0.45705	0.03
Mof_C 	C 	0.03155	0.33504	0.45254	-0.033
Mof_C 	C 	0.98498	0.29638	0.38592	0.028
Mof_C 	C 	0.94151	0.33121	0.3238	-0.046
Mof_C 	C 	0.94462	0.40469	0.3283	0.034
Mof_C 	C 	0.97333	0.07442	0.36908	-0.068
Mof_C 	C 	0.97023	0.00093	0.36458	0.014
Mof_C 	C 	0.06028	0.00477	0.49333	0.022
Mof_C 	C 	0.06338	0.07825	0.49784	-0.063
Mof_C 	C 	0.01991	0.11307	0.43571	0.059
Mof_C 	C 	0.9818	0.22127	0.38131	-0.043
Mof_C 	C 	0.02309	0.18818	0.44031	-0.038
Mof_C 	C 	0.18591	0.71217	0.39956	0.366
Mof_C 	C 	0.26412	0.71549	0.39475	-0.107
Mof_C 	C 	0.00243	0.70444	0.1368	0.363
Mof_C 	C 	0.00245	0.70447	0.02003	-0.059
Mof_C 	C 	0.01031	0.8879	0.42196	0.366
Mof_C 	C 	0.01369	0.96611	0.4267	-0.073
Mof_C 	C 	0.95941	0.74757	0.97065	0.018
Mof_C 	C 	0.95943	0.74759	0.86093	0.057
Mof_C 	C 	0.04554	0.66141	0.84996	0.013
Mof_C 	C 	0.04551	0.66139	0.95968	-0.011
Mof_C 	C 	0.9097	0.79733	0.97698	-0.064
Mof_C 	C 	0.90972	0.79735	0.86726	-0.085
Mof_C 	C 	0.00238	0.70435	0.6838	0.382
Mof_C 	C 	0.0025	0.70452	0.80058	-0.1
Mof_H 	H 	0.40782	0.80303	0.26905	0.062
Mof_H 	H 	0.9323	0.96945	0.31031	0.041
Mof_H 	H 	0.10131	0.10972	0.55208	0.056
Mof_H 	H 	0.51773	0.76285	0.32679	0.062
Mof_C 	C 	0.59482	0.78122	0.30043	0.075
Mof_N 	N 	0.56601	0.81716	0.24878	-0.116
Mof_H 	H 	0.85712	0.77564	0.83522	0.057
Mof_C 	C 	0.89027	0.28868	0.25051	0.088
Mof_N 	N 	0.85167	0.25665	0.19532	-0.112
Mof_C 	C 	0.8968	0.44299	0.25997	0.093
Mof_N 	N 	0.86078	0.47184	0.2085	-0.107
Mof_H 	H 	0.0806	0.62634	0.80082	0.047
Mof_H 	H 	0.92667	0.85248	0.83988	0.059
Mof_C 	C 	0.26456	0.80973	0.25937	0.087
Mof_N 	N 	0.23573	0.84567	0.20772	-0.104
Mof_H 	H 	0.59766	0.60572	0.55255	0.054
Mof_H 	H 	0.73098	0.61142	0.54441	0.028
Mof_H 	H 	0.85456	0.78042	0.00921	0.057
Mof_H 	H 	0.93794	0.10276	0.3185	0.051
Mof_H 	H 	0.08055	0.62628	0.99988	0.037
Mof_C 	C 	0.74914	0.78781	0.29101	0.071
Mof_N 	N 	0.7812	0.82635	0.23565	-0.115
Mof_C 	C 	0.93908	0.86838	0.02558	0.093
Mof_N 	N 	0.96121	0.92188	0.06218	-0.115
Mof_H 	H 	0.94387	0.18978	0.32707	0.045
Mof_H 	H 	0.09567	0.97641	0.54391	0.033
Mof_H 	H 	0.26741	0.63423	0.51148	0.043
Mof_C 	C 	0.4767	0.63261	0.51391	0.058
Mof_N 	N 	0.44462	0.59407	0.56926	-0.118
Mof_H 	H 	0.06102	0.21966	0.49456	0.058
Mof_H 	H 	0.07259	0.43999	0.51131	0.047
Mof_H 	H 	0.40072	0.63993	0.50335	0.071
Mof_C 	C 	0.07937	0.29674	0.52088	0.071
Mof_N 	N 	0.11539	0.26789	0.57236	-0.118
_end
