data_functionalizedCrystal
_audit_creation_method	'EQeq! by Chris Wilmer'
_symmetry_space_group_name_H-M	'P1'
_symmetry_Int_Tables_number	1
_symmetry_cell_setting	triclinic
loop_
_symmetry_equiv_pos_as_xyz
  x,y,z
_cell_length_a	6.8116
_cell_length_b	15.1204
_cell_length_c	15.1204
_cell_angle_alpha	62.2136
_cell_angle_beta	81.3636
_cell_angle_gamma	98.6364
loop_
_atom_site_label
_atom_site_type_symbol
_atom_site_fract_x
_atom_site_fract_y
_atom_site_fract_z
_atom_site_charge
Mof_Co	Co	0.8068	0.698	0.5856	1.178
Mof_Co	Co	0.1088	0.302	0.2836	1.149
Mof_Co	Co	0.3924	0.5856	0.7164	1.167
Mof_Co	Co	0.8068	0.4144	0.302	1.179
Mof_Co	Co	0.1088	0.7164	0.698	1.149
Mof_Co	Co	0.3924	0.2836	0.4144	1.167
Mof_H 	H 	0.25605	0.51715	-0	0.112
Mof_H 	H 	0.25605	0	0.48285	0.114
Mof_H 	H 	0.53655	0	0.57735	-0.024
Mof_H 	H 	0.53655	0.42265	-0	-0.022
Mof_H 	H 	0.7389	0.48285	0.51715	0.123
Mof_H 	H 	0.1139	0.57735	0.42265	-0.035
Mof_C 	C 	0.7485	0.5482	0.8131	0.472
Mof_C 	C 	0.6835	0	0.5565	0.253
Mof_C 	C 	0.3091	0.5812	0.5132	-0.377
Mof_C 	C 	0.9461	0.9061	0.558	0.418
Mof_C 	C 	0.5809	0.49935	0.50065	-0.347
Mof_C 	C 	0.7485	0.1869	0.4518	0.475
Mof_C 	C 	0.7279	0.9056	0.5812	-0.384
Mof_C 	C 	0.24	0.5565	0.4435	0.249
Mof_C 	C 	0.5616	0.8131	0.6387	0.495
Mof_C 	C 	0.7279	0.4188	0.0944	-0.371
Mof_C 	C 	0.5616	0.3613	0.1869	0.492
Mof_C 	C 	0.6835	0.4435	-0	0.235
Mof_C 	C 	0.04	0.5359	0.9061	0.328
Mof_C 	C 	0.04	0.0939	0.4641	0.332
Mof_C 	C 	0.2003	0.6387	0.5482	0.489
Mof_C 	C 	0.08155	0.50065	-0	-0.393
Mof_C 	C 	0.5041	0.4641	0.442	0.377
Mof_C 	C 	0.3091	0.4868	0.4188	-0.377
Mof_C 	C 	0.2003	0.4518	0.3613	0.489
Mof_C 	C 	0.9461	0.442	0.0939	0.425
Mof_C 	C 	0.08155	0	0.49935	-0.386
Mof_C 	C 	0.8223	0.0944	0.4868	-0.32
Mof_C 	C 	0.8223	0.5132	0.9056	-0.314
Mof_C 	C 	0.5041	0.558	0.5359	0.377
Mof_O 	O 	0.5638	0.511	0.8209	-0.461
Mof_O 	O 	0.2544	0.3832	0.3431	-0.644
Mof_O 	O 	0.1761	0.1805	0.398	-0.552
Mof_O 	O 	0.5741	0.398	0.4215	-0.547
Mof_O 	O 	0.8712	0.6168	0.7263	-0.605
Mof_O 	O 	0.0528	0.489	0.3319	-0.492
Mof_O 	O 	0.9956	0.8195	0.5785	-0.535
Mof_O 	O 	0.3847	0.8209	0.6681	-0.477
Mof_O 	O 	0.2544	0.6569	0.6168	-0.645
Mof_O 	O 	0.0528	0.6681	0.511	-0.493
Mof_O 	O 	0.5975	0.3431	0.2737	-0.634
Mof_O 	O 	0.5741	0.5785	0.602	-0.547
Mof_O 	O 	0.1761	0.602	0.8195	-0.553
Mof_O 	O 	0.3847	0.3319	0.1791	-0.472
Mof_O 	O 	0.5975	0.7263	0.6569	-0.635
Mof_O 	O 	0.5638	0.1791	0.489	-0.461
Mof_O 	O 	0.9956	0.4215	0.1805	-0.535
Mof_O 	O 	0.8712	0.2737	0.3832	-0.606
_end
