data_functionalizedCrystal
_audit_creation_method	'EQeq! by Chris Wilmer'
_symmetry_space_group_name_H-M	'P1'
_symmetry_Int_Tables_number	1
_symmetry_cell_setting	triclinic
loop_
_symmetry_equiv_pos_as_xyz
  x,y,z
_cell_length_a	9.4951
_cell_length_b	12.5595
_cell_length_c	18.9191
_cell_angle_alpha	106.107
_cell_angle_beta	98.869
_cell_angle_gamma	100.65
loop_
_atom_site_label
_atom_site_type_symbol
_atom_site_fract_x
_atom_site_fract_y
_atom_site_fract_z
_atom_site_charge
Mof_Yb	Yb	0.23413	0.01781	0.00391	1.473
Mof_O 	O 	0.4578	0.0295	0.0877	-0.473
Mof_O 	O 	0.689	0.0204	0.1188	-0.431
Mof_O 	O 	0.0024	0.8912	0.9243	-0.439
Mof_N 	N 	0.5678	0.1589	0.3673	-0.119
Mof_O 	O 	0.7635	0.8188	0.8837	-0.401
Mof_N 	N 	0.0054	0.1529	0.6819	-0.12
Mof_O 	O 	0.1065	0.1271	0.9388	-0.415
Mof_O 	O 	0.8605	0.0711	0.905	-0.405
Mof_N 	N 	0.9545	0.6104	0.6727	-0.116
Mof_C 	C 	0.9241	0.2323	0.5784	-0.166
Mof_C 	C 	0.8916	0.8232	0.877	0.374
Mof_C 	C 	0.5659	0.0764	0.217	-0.09
Mof_C 	C 	0.9055	0.4191	0.5733	-0.161
Mof_C 	C 	0.5699	0.0379	0.134	0.408
Mof_C 	C 	0.9808	0.3485	0.6022	0.213
Mof_C 	C 	0.4404	0.0964	0.2404	-0.029
Mof_H 	H 	0.3522	0.0822	0.2042	0.053
Mof_C 	C 	0.711	0.2535	0.5016	-0.161
Mof_C 	C 	0.6924	0.0964	0.2712	-0.037
Mof_H 	H 	0.78	0.0812	0.2566	0.052
Mof_C 	C 	0.4422	0.1367	0.3158	0.008
Mof_H 	H 	0.3549	0.1491	0.3318	0.024
Mof_C 	C 	0.7701	0.372	0.5225	0.198
Mof_C 	C 	0.69	0.1385	0.3466	0.016
Mof_H 	H 	0.7766	0.1529	0.384	0.028
Mof_C 	C 	0.9162	0.7425	0.8054	-0.084
Mof_C 	C 	0.9913	0.1265	0.8191	-0.073
Mof_C 	C 	0.7865	0.183	0.5284	0.211
Mof_C 	C 	0.8787	0.1478	0.7044	0.024
Mof_H 	H 	0.7945	0.1533	0.6725	0.021
Mof_C 	C 	0.0117	0.1552	0.6026	-0.008
Mof_H 	H 	0.1153	0.1814	0.6002	0.019
Mof_H 	H 	0.9736	0.0767	0.567	0.025
Mof_C 	C 	0.122	0.1335	0.7946	-0.036
Mof_H 	H 	0.208	0.13	0.8262	0.05
Mof_C 	C 	0.8691	0.1348	0.7732	-0.042
Mof_H 	H 	0.7787	0.1316	0.7891	0.049
Mof_C 	C 	0.1245	0.4017	0.6595	-0.56
Mof_H 	H 	0.1637	0.3417	0.6735	0.19
Mof_H 	H 	0.108	0.455	0.7045	0.193
Mof_H 	H 	0.195	0.4429	0.6377	0.177
Mof_C 	C 	0.0554	0.7398	0.7951	-0.02
Mof_H 	H 	0.1385	0.784	0.8339	0.03
Mof_C 	C 	0.7977	0.6758	0.7499	-0.038
Mof_H 	H 	0.7011	0.6759	0.7575	0.048
Mof_C 	C 	0.0728	0.6724	0.7279	0.006
Mof_H 	H 	0.1686	0.6694	0.7201	0.023
Mof_C 	C 	0.818	0.6094	0.6838	0.019
Mof_H 	H 	0.7356	0.5624	0.6455	0.018
Mof_C 	C 	0.9747	0.5453	0.5971	-0.004
Mof_H 	H 	0.0811	0.5563	0.5983	0.027
Mof_H 	H 	0.9317	0.5772	0.5589	0.024
Mof_C 	C 	0.9856	0.1075	0.8947	0.388
Mof_C 	C 	0.1282	0.1453	0.7251	0.012
Mof_H 	H 	0.217	0.1482	0.7076	0.017
Mof_C 	C 	0.561	0.2021	0.4502	-0.006
Mof_H 	H 	0.5024	0.2603	0.4569	0.023
Mof_H 	H 	0.5103	0.1379	0.4648	0.016
Mof_C 	C 	0.6849	0.4441	0.4887	-0.533
Mof_H 	H 	0.6042	0.4567	0.5142	0.167
Mof_H 	H 	0.645	0.4043	0.4348	0.175
Mof_H 	H 	0.7507	0.5178	0.4953	0.172
Mof_C 	C 	0.7254	0.0557	0.5033	-0.565
Mof_H 	H 	0.6261	0.0366	0.4721	0.186
Mof_H 	H 	0.7217	0.0301	0.5475	0.186
Mof_H 	H 	0.7885	0.0176	0.4738	0.185
Mof_Yb	Yb	0.76587	0.98219	0.99609	1.474
Mof_O 	O 	0.5422	0.9705	0.9123	-0.472
Mof_O 	O 	0.311	0.9796	0.8812	-0.43
Mof_O 	O 	0.9976	0.1088	0.0757	-0.438
Mof_N 	N 	0.4322	0.8411	0.6327	-0.118
Mof_O 	O 	0.2365	0.1812	0.1163	-0.4
Mof_N 	N 	0.9946	0.8471	0.3181	-0.119
Mof_O 	O 	0.8935	0.8729	0.0612	-0.414
Mof_O 	O 	0.1395	0.9289	0.095	-0.405
Mof_N 	N 	0.0455	0.3896	0.3273	-0.116
Mof_C 	C 	0.0759	0.7677	0.4216	-0.166
Mof_C 	C 	0.1084	0.1768	0.123	0.374
Mof_C 	C 	0.4341	0.9236	0.783	-0.09
Mof_C 	C 	0.0945	0.5809	0.4267	-0.161
Mof_C 	C 	0.4301	0.9621	0.866	0.408
Mof_C 	C 	0.0192	0.6515	0.3978	0.213
Mof_C 	C 	0.5596	0.9036	0.7596	-0.029
Mof_H 	H 	0.6478	0.9178	0.7958	0.053
Mof_C 	C 	0.289	0.7465	0.4984	-0.161
Mof_C 	C 	0.3076	0.9036	0.7288	-0.037
Mof_H 	H 	0.22	0.9188	0.7434	0.052
Mof_C 	C 	0.5578	0.8633	0.6842	0.008
Mof_H 	H 	0.6451	0.8509	0.6682	0.024
Mof_C 	C 	0.2299	0.628	0.4775	0.198
Mof_C 	C 	0.31	0.8615	0.6534	0.016
Mof_H 	H 	0.2234	0.8471	0.616	0.028
Mof_C 	C 	0.0838	0.2575	0.1946	-0.084
Mof_C 	C 	0.0087	0.8735	0.1809	-0.073
Mof_C 	C 	0.2135	0.817	0.4716	0.211
Mof_C 	C 	0.1213	0.8522	0.2956	0.024
Mof_H 	H 	0.2055	0.8467	0.3275	0.021
Mof_C 	C 	0.9883	0.8448	0.3974	-0.008
Mof_H 	H 	0.8847	0.8186	0.3998	0.019
Mof_H 	H 	0.0264	0.9233	0.433	0.025
Mof_C 	C 	0.878	0.8665	0.2054	-0.036
Mof_H 	H 	0.792	0.87	0.1738	0.05
Mof_C 	C 	0.1309	0.8652	0.2268	-0.042
Mof_H 	H 	0.2213	0.8684	0.2109	0.049
Mof_C 	C 	0.8755	0.5983	0.3405	-0.56
Mof_H 	H 	0.8363	0.6583	0.3265	0.19
Mof_H 	H 	0.892	0.545	0.2955	0.193
Mof_H 	H 	0.805	0.5571	0.3623	0.177
Mof_C 	C 	0.9446	0.2602	0.2049	-0.02
Mof_H 	H 	0.8615	0.216	0.1661	0.03
Mof_C 	C 	0.2023	0.3242	0.2501	-0.038
Mof_H 	H 	0.2989	0.3241	0.2425	0.048
Mof_C 	C 	0.9272	0.3276	0.2721	0.006
Mof_H 	H 	0.8314	0.3306	0.2799	0.023
Mof_C 	C 	0.182	0.3906	0.3162	0.019
Mof_H 	H 	0.2644	0.4376	0.3545	0.018
Mof_C 	C 	0.0253	0.4547	0.4029	-0.004
Mof_H 	H 	0.9189	0.4437	0.4017	0.027
Mof_H 	H 	0.0683	0.4228	0.4411	0.024
Mof_C 	C 	0.0144	0.8925	0.1053	0.388
Mof_C 	C 	0.8718	0.8547	0.2749	0.012
Mof_H 	H 	0.783	0.8518	0.2924	0.017
Mof_C 	C 	0.439	0.7979	0.5498	-0.006
Mof_H 	H 	0.4976	0.7397	0.5431	0.023
Mof_H 	H 	0.4897	0.8621	0.5352	0.016
Mof_C 	C 	0.3151	0.5559	0.5113	-0.533
Mof_H 	H 	0.3958	0.5433	0.4858	0.167
Mof_H 	H 	0.355	0.5957	0.5652	0.175
Mof_H 	H 	0.2493	0.4822	0.5047	0.172
Mof_C 	C 	0.2746	0.9443	0.4967	-0.565
Mof_H 	H 	0.3739	0.9634	0.5279	0.186
Mof_H 	H 	0.2783	0.9699	0.4525	0.186
Mof_H 	H 	0.2115	0.9824	0.5262	0.185
_end
