data_functionalizedCrystal
_audit_creation_method	'EQeq! by Chris Wilmer'
_symmetry_space_group_name_H-M	'P1'
_symmetry_Int_Tables_number	1
_symmetry_cell_setting	triclinic
loop_
_symmetry_equiv_pos_as_xyz
  x,y,z
_cell_length_a	9.8416
_cell_length_b	11.2145
_cell_length_c	11.2145
_cell_angle_alpha	68.183
_cell_angle_beta	72.9908
_cell_angle_gamma	107.009
loop_
_atom_site_label
_atom_site_type_symbol
_atom_site_fract_x
_atom_site_fract_y
_atom_site_fract_z
_atom_site_charge
Mof_Zn	Zn	0.62663	0.37663	0.24674	1.24
Mof_Zn	Zn	0.12663	0.75326	0.62337	1.24
Mof_Zn	Zn	0.87337	0.24674	0.37663	1.24
Mof_Zn	Zn	0.37338	0.62338	0.75325	1.24
Mof_Zn	Zn	0.75	0.62337	0.62337	1.24
Mof_Zn	Zn	0.25	0.37663	0.37663	1.24
Mof_H 	H 	0.5442	0.0823	0.6109	-0.167
Mof_H 	H 	0.0442	0.3891	0.9177	-0.168
Mof_H 	H 	0.4303	0.5944	0.0277	-0.816
Mof_H 	H 	0.0381	0.0823	0.3068	-0.168
Mof_H 	H 	0.3359	0.4056	0.6221	-0.815
Mof_H 	H 	0.4951	0.3467	0.9302	-0.11
Mof_H 	H 	0.8516	0.2769	0.6533	-0.109
Mof_H 	H 	0.0747	0.7231	0.9302	-0.109
Mof_H 	H 	0.5049	0.6533	0.0698	-0.11
Mof_H 	H 	0.9558	0.6109	0.0823	-0.168
Mof_H 	H 	0.3449	0.3068	0.6109	-0.167
Mof_H 	H 	0.9619	0.9177	0.6932	-0.168
Mof_H 	H 	0.4558	0.9177	0.3891	-0.167
Mof_H 	H 	0.0697	0.0277	0.5944	-0.814
Mof_H 	H 	0.1484	0.7231	0.3467	-0.109
Mof_H 	H 	0.8449	0.3891	0.6932	-0.167
Mof_H 	H 	0.4253	0.9302	0.7231	-0.109
Mof_H 	H 	0.1641	0.6221	0.4056	-0.814
Mof_H 	H 	0.042	0.3779	0.0277	-0.827
Mof_H 	H 	0.9253	0.2769	0.0698	-0.109
Mof_H 	H 	0.3516	0.3467	0.7231	-0.109
Mof_H 	H 	0.6551	0.6932	0.3891	-0.167
Mof_H 	H 	0.0049	0.9302	0.3467	-0.109
Mof_H 	H 	0.4619	0.3068	0.0823	-0.167
Mof_H 	H 	0.458	0.0277	0.3779	-0.815
Mof_H 	H 	0.542	0.9723	0.6221	-0.815
Mof_H 	H 	0.5747	0.0698	0.2769	-0.109
Mof_H 	H 	0.958	0.6221	0.9723	-0.827
Mof_H 	H 	0.9951	0.0698	0.6533	-0.109
Mof_H 	H 	0.9303	0.9723	0.4056	-0.814
Mof_H 	H 	0.6484	0.6533	0.2769	-0.109
Mof_H 	H 	0.8359	0.3779	0.5944	-0.814
Mof_H 	H 	0.5697	0.4056	0.9723	-0.816
Mof_H 	H 	0.5381	0.6932	0.9177	-0.167
Mof_H 	H 	0.6641	0.5944	0.3779	-0.815
Mof_H 	H 	0.1551	0.6109	0.3068	-0.167
Mof_C 	C 	0.70384	0.53018	0.41106	0.626
Mof_C 	C 	0.29616	0.46982	0.58894	0.626
Mof_C 	C 	0.1149	0.41106	0.05876	0.631
Mof_C 	C 	0.8851	0.58894	0.94124	0.631
Mof_C 	C 	0.67366	0.46982	0.94124	0.625
Mof_C 	C 	0.17366	0.05876	0.53018	0.625
Mof_C 	C 	0.79616	0.41106	0.53018	0.626
Mof_C 	C 	0.20384	0.58894	0.46982	0.626
Mof_C 	C 	0.3851	0.05876	0.41106	0.626
Mof_C 	C 	0.6149	0.94124	0.58894	0.626
Mof_C 	C 	0.82634	0.94124	0.46982	0.625
Mof_C 	C 	0.32634	0.53018	0.05876	0.625
Mof_N 	N 	0.28058	0.55875	0.63671	-0.323
Mof_N 	N 	0.5245	0.3607	0.991	0.72
Mof_N 	N 	0.8362	0.3517	0.6393	0.718
Mof_N 	N 	0.75	0.51589	0.51589	-0.44
Mof_N 	N 	0.27817	0.19546	0.44125	-0.323
Mof_N 	N 	0.41729	0.19546	0.36329	-0.323
Mof_N 	N 	0.9755	0.991	0.3607	0.718
Mof_N 	N 	0.6638	0.6393	0.3517	0.718
Mof_N 	N 	0.71942	0.44125	0.36329	-0.323
Mof_N 	N 	0.08271	0.36329	0.19546	-0.325
Mof_N 	N 	0.9845	0.6483	0.991	0.728
Mof_N 	N 	0.0155	0.3517	0.009	0.728
Mof_N 	N 	0.3362	0.3607	0.6483	0.718
Mof_N 	N 	0.91729	0.63671	0.80454	-0.325
Mof_N 	N 	0.1638	0.6483	0.3607	0.718
Mof_N 	N 	0.77817	0.55875	0.80454	-0.324
Mof_N 	N 	0.23411	0.96822	0.51589	-0.439
Mof_N 	N 	0.73411	0.48411	0.03178	-0.439
Mof_N 	N 	0.22183	0.44125	0.19546	-0.324
Mof_N 	N 	0.26589	0.51589	0.96822	-0.439
Mof_N 	N 	0.72183	0.80454	0.55875	-0.323
Mof_N 	N 	0.58271	0.80454	0.63671	-0.323
Mof_N 	N 	0.5155	0.991	0.6483	0.719
Mof_N 	N 	0.4845	0.009	0.3517	0.719
Mof_N 	N 	0.4755	0.6393	0.009	0.72
Mof_N 	N 	0.0245	0.009	0.6393	0.718
Mof_N 	N 	0.21942	0.63671	0.55875	-0.323
Mof_N 	N 	0.25	0.48411	0.48411	-0.44
Mof_N 	N 	0.78058	0.36329	0.44125	-0.323
Mof_N 	N 	0.76589	0.03178	0.48411	-0.439
Mof_F 	F 	0.75	0.25492	0.25492	-0.66
Mof_F 	F 	0.99508	0.74508	0.50984	-0.661
Mof_F 	F 	0.00492	0.25492	0.49016	-0.661
Mof_F 	F 	0.50492	0.50984	0.74508	-0.66
Mof_F 	F 	0.25	0.74508	0.74508	-0.66
Mof_F 	F 	0.49508	0.49016	0.25492	-0.66
_end
