data_functionalizedCrystal
_audit_creation_method	'EQeq! by Chris Wilmer'
_symmetry_space_group_name_H-M	'P1'
_symmetry_Int_Tables_number	1
_symmetry_cell_setting	triclinic
loop_
_symmetry_equiv_pos_as_xyz
  x,y,z
_cell_length_a	10.0345
_cell_length_b	15.2852
_cell_length_c	18.421
_cell_angle_alpha	67.732
_cell_angle_beta	87.024
_cell_angle_gamma	77.361
loop_
_atom_site_label
_atom_site_type_symbol
_atom_site_fract_x
_atom_site_fract_y
_atom_site_fract_z
_atom_site_charge
Mof_Co	Co	0.86172	0.9804	0.43287	1.178
Mof_O 	O 	0.5396	0.00079	0.8888	-0.468
Mof_O 	O 	0.864	0.96848	0.54522	-0.481
Mof_O 	O 	0.2545	0.01434	0.66944	-0.364
Mof_O 	O 	0.9591	0.01956	0.62334	-0.472
Mof_O 	O 	0.3545	0.0084	0.56305	-0.379
Mof_O 	O 	0.6067	0.4766	0.76039	-0.233
Mof_N 	N 	0.9184	0.8242	0.47102	-0.186
Mof_N 	N 	0.826	0.136	0.38262	-0.201
Mof_O 	O 	0.6672	0.4431	0.14981	-0.237
Mof_O 	O 	0.1092	0.4718	0.66367	-0.238
Mof_N 	N 	0.4982	0.3564	0.77143	-0.245
Mof_H 	H 	0.4507	0.3368	0.7448	0.132
Mof_C 	C 	0.6142	0.9918	0.62218	0.066
Mof_H 	H 	0.608	0.991	0.5717	0.05
Mof_N 	N 	0.5177	0.1507	0.95772	-0.168
Mof_O 	O 	0.7583	0.9256	0.89716	-0.287
Mof_N 	N 	0.9574	0.6118	0.65204	-0.234
Mof_H 	H 	0.9019	0.6398	0.6785	0.129
Mof_C 	C 	0.7405	0.9878	0.65305	-0.157
Mof_N 	N 	0.8446	0.3137	0.18551	-0.239
Mof_H 	H 	0.9153	0.2826	0.1692	0.13
Mof_C 	C 	0.7505	0.9816	0.7295	0.096
Mof_H 	H 	0.8361	0.9766	0.7509	0.028
Mof_C 	C 	0.4975	0.9971	0.66583	-0.098
Mof_C 	C 	0.4406	0.4868	0.5202	0.031
Mof_C 	C 	0.8637	0.9918	0.60321	0.449
Mof_C 	C 	0.8528	0.483	0.8869	0.065
Mof_C 	C 	0.6358	0.9826	0.7751	-0.152
Mof_C 	C 	0.4386	0.4612	0.6028	-0.067
Mof_H 	H 	0.3611	0.4428	0.63	0.066
Mof_C 	C 	0.5472	0.463	0.6431	-0.039
Mof_C 	C 	0.9186	0.7642	0.5462	-0.048
Mof_H 	H 	0.8872	0.7912	0.5837	0.052
Mof_C 	C 	0.5527	0.4346	0.7306	0.228
Mof_C 	C 	0.8063	0.4216	0.0477	-0.094
Mof_C 	C 	0.3612	0.0075	0.63093	0.291
Mof_C 	C 	0.7026	0.4846	0.9925	0.092
Mof_H 	H 	0.6169	0.5072	0.0097	-0.002
Mof_C 	C 	0.9624	0.6652	0.5717	0.119
Mof_C 	C 	0.5083	0.9942	0.7419	0.115
Mof_H 	H 	0.4293	0.0002	0.7709	-0.002
Mof_C 	C 	0.7251	0.513	0.9146	-0.14
Mof_H 	H 	0.6537	0.5535	0.8784	0.096
Mof_C 	C 	0.8484	0.1792	0.3065	-0.046
Mof_H 	H 	0.8882	0.1398	0.279	0.044
Mof_C 	C 	0.879	0.5137	0.8061	-0.079
Mof_H 	H 	0.8083	0.5544	0.7695	0.07
Mof_C 	C 	0.6465	0.9696	0.8598	0.396
Mof_C 	C 	0.6694	0.5164	0.5232	-0.078
Mof_H 	H 	0.7478	0.5347	0.4971	0.066
Mof_C 	C 	0.7725	0.1934	0.4216	0.023
Mof_H 	H 	0.7566	0.1647	0.4753	0.013
Mof_C 	C 	0.5023	0.2084	0.8818	-0.078
Mof_H 	H 	0.4836	0.1822	0.8458	0.052
Mof_C 	C 	0.9595	0.4211	0.9421	0.028
Mof_C 	C 	0.5124	0.3048	0.853	0.165
Mof_C 	C 	0.8169	0.2777	0.2658	0.119
Mof_C 	C 	0.0037	0.486	0.7799	-0.03
Mof_C 	C 	0.7664	0.3947	0.1319	0.234
Mof_C 	C 	0.6635	0.4935	0.6017	-0.011
Mof_H 	H 	0.7366	0.4978	0.6292	0.048
Mof_C 	C 	0.0297	0.5206	0.6938	0.211
Mof_C 	C 	0.7614	0.3364	0.3064	-0.097
Mof_H 	H 	0.7389	0.4041	0.2809	0.092
Mof_C 	C 	0.5354	0.3444	0.9059	-0.197
Mof_H 	H 	0.5378	0.4102	0.8894	0.134
Mof_C 	C 	0.9319	0.3911	0.0226	-0.049
Mof_H 	H 	0.0012	0.3492	0.0598	0.043
Mof_C 	C 	0.9622	0.7848	0.4182	0.018
Mof_H 	H 	0.9636	0.8257	0.3652	0.034
Mof_C 	C 	0.005	0.6246	0.516	-0.104
Mof_H 	H 	0.0326	0.5572	0.5307	0.083
Mof_C 	C 	0.7402	0.2922	0.3856	-0.027
Mof_H 	H 	0.7035	0.3301	0.4148	0.05
Mof_C 	C 	0.0053	0.6865	0.4385	-0.023
Mof_H 	H 	0.0349	0.6614	0.3997	0.049
Mof_C 	C 	0.1091	0.4228	0.8349	-0.013
Mof_H 	H 	0.195	0.4018	0.8171	0.049
Mof_C 	C 	0.5549	0.2842	0.9836	0.131
Mof_H 	H 	0.5745	0.3086	0.0208	-0.024
Mof_C 	C 	0.546	0.1893	0.0078	-0.109
Mof_H 	H 	0.5602	0.1499	0.0614	0.05
Mof_C 	C 	0.0878	0.3923	0.9129	-0.071
Mof_H 	H 	0.1597	0.351	0.9484	0.069
Mof_Co	Co	0.13828	0.0196	0.56713	1.166
Mof_O 	O 	0.4604	0.99921	0.1112	-0.394
Mof_O 	O 	0.136	0.03152	0.45478	-0.475
Mof_O 	O 	0.7455	0.98566	0.33056	-0.353
Mof_O 	O 	0.0409	0.98044	0.37666	-0.398
Mof_O 	O 	0.6455	0.9916	0.43695	-0.363
Mof_O 	O 	0.3933	0.5234	0.23961	-0.231
Mof_N 	N 	0.0816	0.1758	0.52898	-0.187
Mof_N 	N 	0.174	0.864	0.61738	-0.182
Mof_O 	O 	0.3328	0.5569	0.85019	-0.229
Mof_O 	O 	0.8908	0.5282	0.33633	-0.238
Mof_N 	N 	0.5018	0.6436	0.22857	-0.232
Mof_H 	H 	0.5493	0.6632	0.2552	0.133
Mof_C 	C 	0.3858	0.0082	0.37782	0.036
Mof_H 	H 	0.392	0.009	0.4283	0.044
Mof_N 	N 	0.4823	0.8493	0.04228	-0.219
Mof_O 	O 	0.2417	0.0744	0.10284	-0.287
Mof_N 	N 	0.0426	0.3882	0.34796	-0.235
Mof_H 	H 	0.0981	0.3602	0.3215	0.129
Mof_C 	C 	0.2595	0.0122	0.34695	-0.121
Mof_N 	N 	0.1554	0.6863	0.81449	-0.234
Mof_H 	H 	0.0847	0.7174	0.8308	0.132
Mof_C 	C 	0.2495	0.0184	0.2705	0.035
Mof_H 	H 	0.1639	0.0234	0.2491	0.033
Mof_C 	C 	0.5025	0.0029	0.33417	-0.104
Mof_C 	C 	0.5594	0.5132	0.4798	0.033
Mof_C 	C 	0.1363	0.0082	0.39679	0.357
Mof_C 	C 	0.1472	0.517	0.1131	0.027
Mof_C 	C 	0.3642	0.0174	0.2249	-0.083
Mof_C 	C 	0.5614	0.5388	0.3972	-0.068
Mof_H 	H 	0.6389	0.5572	0.37	0.067
Mof_C 	C 	0.4528	0.537	0.3569	-0.036
Mof_C 	C 	0.0814	0.2358	0.4538	-0.05
Mof_H 	H 	0.1128	0.2088	0.4163	0.051
Mof_C 	C 	0.4473	0.5654	0.2694	0.225
Mof_C 	C 	0.1937	0.5784	0.9523	-0.004
Mof_C 	C 	0.6388	0.9925	0.36907	0.334
Mof_C 	C 	0.2974	0.5154	0.0075	-0.091
Mof_H 	H 	0.3831	0.4928	0.9903	0.088
Mof_C 	C 	0.0376	0.3348	0.4283	0.118
Mof_C 	C 	0.4917	0.0058	0.2581	-0.03
Mof_H 	H 	0.5707	0.9998	0.2291	0.088
Mof_C 	C 	0.2749	0.487	0.0854	-0.045
Mof_H 	H 	0.3463	0.4465	0.1216	0.061
Mof_C 	C 	0.1516	0.8208	0.6935	-0.046
Mof_H 	H 	0.1118	0.8602	0.721	0.06
Mof_C 	C 	0.121	0.4863	0.1939	-0.059
Mof_H 	H 	0.1917	0.4456	0.2305	0.063
Mof_C 	C 	0.3535	0.0304	0.1402	0.291
Mof_C 	C 	0.3306	0.4836	0.4768	-0.077
Mof_H 	H 	0.2522	0.4653	0.5029	0.065
Mof_C 	C 	0.2275	0.8066	0.5784	0.021
Mof_H 	H 	0.2434	0.8353	0.5247	0.03
Mof_C 	C 	0.4977	0.7916	0.1182	-0.038
Mof_H 	H 	0.5164	0.8178	0.1542	0.045
Mof_C 	C 	0.0405	0.5789	0.0579	0.013
Mof_C 	C 	0.4876	0.6952	0.147	0.103
Mof_C 	C 	0.1831	0.7223	0.7342	0.123
Mof_C 	C 	0.9963	0.514	0.2201	-0.036
Mof_C 	C 	0.2336	0.6053	0.8681	0.209
Mof_C 	C 	0.3365	0.5065	0.3983	-0.012
Mof_H 	H 	0.2634	0.5022	0.3708	0.049
Mof_C 	C 	0.9703	0.4794	0.3062	0.214
Mof_C 	C 	0.2386	0.6636	0.6936	-0.099
Mof_H 	H 	0.2611	0.5959	0.7191	0.093
Mof_C 	C 	0.4646	0.6556	0.0941	-0.057
Mof_H 	H 	0.4622	0.5898	0.1106	0.084
Mof_C 	C 	0.0681	0.6089	0.9774	-0.044
Mof_H 	H 	0.9988	0.6508	0.9402	0.051
Mof_C 	C 	0.0378	0.2152	0.5818	0.015
Mof_H 	H 	0.0364	0.1743	0.6348	0.03
Mof_C 	C 	0.995	0.3754	0.484	-0.104
Mof_H 	H 	0.9674	0.4428	0.4693	0.083
Mof_C 	C 	0.2598	0.7078	0.6144	-0.021
Mof_H 	H 	0.2965	0.6699	0.5852	0.051
Mof_C 	C 	0.9947	0.3135	0.5615	-0.023
Mof_H 	H 	0.9651	0.3386	0.6003	0.048
Mof_C 	C 	0.8909	0.5772	0.1651	-0.012
Mof_H 	H 	0.805	0.5982	0.1829	0.049
Mof_C 	C 	0.4451	0.7158	0.0164	-0.12
Mof_H 	H 	0.4255	0.6914	0.9792	0.091
Mof_C 	C 	0.454	0.8107	0.9922	0.094
Mof_H 	H 	0.4398	0.8501	0.9386	0.003
Mof_C 	C 	0.9122	0.6077	0.0871	-0.067
Mof_H 	H 	0.8403	0.649	0.0516	0.058
Mof_Co	Co	0.5	0	-0	1.094
_end
