data_functionalizedCrystal
_audit_creation_method	'EQeq! by Chris Wilmer'
_symmetry_space_group_name_H-M	'P1'
_symmetry_Int_Tables_number	1
_symmetry_cell_setting	triclinic
loop_
_symmetry_equiv_pos_as_xyz
  x,y,z
_cell_length_a	9.6367
_cell_length_b	10.176
_cell_length_c	12.6164
_cell_angle_alpha	86.302
_cell_angle_beta	68.88
_cell_angle_gamma	61.8
loop_
_atom_site_label
_atom_site_type_symbol
_atom_site_fract_x
_atom_site_fract_y
_atom_site_fract_z
_atom_site_charge
Mof_Fe	Fe	0.09655	0.15034	0.33713	1.032
Mof_Fe	Fe	0.86291	0.92271	0.16702	1.031
Mof_Fe	Fe	0.26192	0.23158	0.57679	0.881
Mof_P 	P 	0.47679	0.02234	0.32227	0.566
Mof_P 	P 	0.8914	0.96335	0.41685	0.578
Mof_P 	P 	0.00401	0.16191	0.11181	0.562
Mof_O 	O 	0.6158	0.0256	0.2148	-0.308
Mof_O 	O 	0.3404	0.0289	0.2815	-0.321
Mof_O 	O 	0.4088	0.1565	0.4089	-0.337
Mof_O 	O 	0.5392	0.8733	0.3726	-0.36
Mof_O 	O 	0.0419	0.9863	0.3509	-0.323
Mof_O 	O 	0.9258	0.8491	0.5005	-0.378
Mof_O 	O 	0.8371	0.9069	0.3366	-0.428
Mof_O 	O 	0.7391	0.1209	0.481	-0.371
Mof_H 	H 	0.6358	0.1348	0.5256	0.258
Mof_O 	O 	0.1143	0.0789	0.9922	-0.34
Mof_O 	O 	0.8764	0.1077	0.176	-0.314
Mof_O 	O 	0.1187	0.1498	0.1738	-0.316
Mof_O 	O 	0.889	0.3341	0.1087	-0.311
Mof_H 	H 	0.9352	0.4017	0.1053	0.232
Mof_O 	O 	0.1335	0.3376	0.3269	-0.288
Mof_O 	O 	0.9865	0.588	0.3708	-0.297
Mof_O 	O 	0.8492	0.3245	0.3868	-0.264
Mof_O 	O 	0.6968	0.5721	0.441	-0.247
Mof_O 	O 	0.8731	0.7149	0.1666	-0.317
Mof_O 	O 	0.0615	0.4712	0.1079	-0.217
Mof_O 	O 	0.1164	0.7819	0.1291	-0.274
Mof_O 	O 	0.3079	0.5404	0.1019	-0.132
Mof_C 	C 	0.9996	0.4603	0.3642	0.259
Mof_C 	C 	0.8322	0.4531	0.402	0.24
Mof_C 	C 	0.0208	0.6031	0.131	0.263
Mof_C 	C 	0.1633	0.6427	0.1184	0.24
Mof_Fe	Fe	0.90345	0.84966	0.66287	1.033
Mof_Fe	Fe	0.13709	0.07729	0.83298	1.032
Mof_Fe	Fe	0.73808	0.76842	0.42321	0.881
Mof_P 	P 	0.52321	0.97766	0.67773	0.566
Mof_P 	P 	0.1086	0.03665	0.58315	0.578
Mof_P 	P 	0.99599	0.83809	0.88819	0.562
Mof_O 	O 	0.3842	0.9744	0.7852	-0.308
Mof_O 	O 	0.6596	0.9711	0.7185	-0.321
Mof_O 	O 	0.5912	0.8435	0.5911	-0.337
Mof_O 	O 	0.4608	0.1267	0.6274	-0.36
Mof_O 	O 	0.9581	0.0137	0.6491	-0.323
Mof_O 	O 	0.0742	0.1509	0.4995	-0.378
Mof_O 	O 	0.1629	0.0931	0.6634	-0.428
Mof_O 	O 	0.2609	0.8791	0.519	-0.371
Mof_H 	H 	0.3642	0.8652	0.4744	0.258
Mof_O 	O 	0.8857	0.9211	0.0078	-0.34
Mof_O 	O 	0.1236	0.8923	0.824	-0.314
Mof_O 	O 	0.8813	0.8502	0.8262	-0.316
Mof_O 	O 	0.111	0.6659	0.8913	-0.311
Mof_H 	H 	0.0648	0.5983	0.8947	0.232
Mof_O 	O 	0.8665	0.6624	0.6731	-0.288
Mof_O 	O 	0.0135	0.412	0.6292	-0.297
Mof_O 	O 	0.1508	0.6755	0.6132	-0.264
Mof_O 	O 	0.3032	0.4279	0.559	-0.247
Mof_O 	O 	0.1269	0.2851	0.8334	-0.317
Mof_O 	O 	0.9385	0.5288	0.8921	-0.217
Mof_O 	O 	0.8836	0.2181	0.8709	-0.274
Mof_O 	O 	0.6921	0.4596	0.8981	-0.132
Mof_C 	C 	0.0004	0.5397	0.6358	0.259
Mof_C 	C 	0.1678	0.5469	0.598	0.24
Mof_C 	C 	0.9792	0.3969	0.869	0.263
Mof_C 	C 	0.8367	0.3573	0.8816	0.24
_end
