data_functionalizedCrystal
_audit_creation_method	'EQeq! by Chris Wilmer'
_symmetry_space_group_name_H-M	'P1'
_symmetry_Int_Tables_number	1
_symmetry_cell_setting	triclinic
loop_
_symmetry_equiv_pos_as_xyz
  x,y,z
_cell_length_a	9.9962
_cell_length_b	10.626
_cell_length_c	10.8273
_cell_angle_alpha	80.552
_cell_angle_beta	73.117
_cell_angle_gamma	74.129
loop_
_atom_site_label
_atom_site_type_symbol
_atom_site_fract_x
_atom_site_fract_y
_atom_site_fract_z
_atom_site_charge
Mof_Gd	Gd	0.67484	0.69283	0.03667	1.614
Mof_Gd	Gd	0.32516	0.30717	0.96333	1.614
Mof_Ni	Ni	0.78685	0.86753	0.62009	1.082
Mof_Ni	Ni	0.21315	0.13247	0.37991	1.082
Mof_H 	H 	0.5638	0.6944	0.7398	-0.019
Mof_H 	H 	0.3657	0.6654	0.6907	0.115
Mof_H 	H 	0.319	0.7557	0.4939	-0.003
Mof_H 	H 	0.9832	0.2699	0.6203	0.012
Mof_H 	H 	0.7758	0.436	0.6527	0.095
Mof_H 	H 	0.6997	0.5525	0.4741	0.031
Mof_H 	H 	0.4362	0.3056	0.2602	-0.019
Mof_H 	H 	0.6343	0.3346	0.3093	0.115
Mof_H 	H 	0.681	0.2443	0.5061	-0.003
Mof_H 	H 	0.0168	0.7301	0.3797	0.012
Mof_H 	H 	0.2242	0.564	0.3473	0.095
Mof_H 	H 	0.3003	0.4475	0.5259	0.031
Mof_C 	C 	0.545	0.7311	0.6607	0.119
Mof_C 	C 	0.4263	0.7128	0.6318	-0.174
Mof_C 	C 	0.3993	0.7658	0.5145	0.103
Mof_C 	C 	0.4927	0.835	0.4262	-0.163
Mof_C 	C 	0.6089	0.8506	0.4627	0.026
Mof_C 	C 	0.7142	0.9299	0.3806	0.288
Mof_C 	C 	0.4664	0.8835	0.2948	0.461
Mof_C 	C 	0.9542	0.3183	0.5489	0.07
Mof_C 	C 	0.8291	0.417	0.5691	-0.119
Mof_C 	C 	0.7847	0.4871	0.4625	0.028
Mof_C 	C 	0.8675	0.4596	0.3383	-0.068
Mof_C 	C 	0.9933	0.3612	0.3268	-0.009
Mof_C 	C 	0.0991	0.3297	0.1989	0.291
Mof_C 	C 	0.8142	0.538	0.224	0.327
Mof_C 	C 	0.4403	0.5228	0.0609	0.249
Mof_C 	C 	0.455	0.2689	0.3393	0.119
Mof_C 	C 	0.5737	0.2872	0.3682	-0.174
Mof_C 	C 	0.6007	0.2342	0.4855	0.103
Mof_C 	C 	0.5073	0.165	0.5738	-0.163
Mof_C 	C 	0.3911	0.1494	0.5373	0.026
Mof_C 	C 	0.2858	0.0701	0.6194	0.288
Mof_C 	C 	0.5336	0.1165	0.7052	0.461
Mof_C 	C 	0.0458	0.6817	0.4511	0.07
Mof_C 	C 	0.1709	0.583	0.4309	-0.119
Mof_C 	C 	0.2153	0.5129	0.5375	0.028
Mof_C 	C 	0.1325	0.5404	0.6617	-0.068
Mof_C 	C 	0.0067	0.6388	0.6732	-0.009
Mof_C 	C 	0.9009	0.6703	0.8011	0.291
Mof_C 	C 	0.1858	0.462	0.776	0.327
Mof_C 	C 	0.5597	0.4772	0.9391	0.249
Mof_N 	N 	0.6336	0.7996	0.5792	-0.231
Mof_N 	N 	0.0347	0.2902	0.4301	-0.22
Mof_N 	N 	0.3664	0.2004	0.4208	-0.231
Mof_N 	N 	0.9653	0.7098	0.5699	-0.22
Mof_O 	O 	0.8019	0.9484	0.43546	-0.407
Mof_O 	O 	0.7063	0.9733	0.26847	-0.252
Mof_O 	O 	0.5264	0.8046	0.20968	-0.477
Mof_O 	O 	0.3829	0.9919	0.27735	-0.456
Mof_O 	O 	0.079	0.3961	0.09702	-0.347
Mof_O 	O 	0.2119	0.2384	0.20067	-0.509
Mof_O 	O 	0.7465	0.4892	0.1711	-0.372
Mof_O 	O 	0.8303	0.6527	0.1935	-0.356
Mof_O 	O 	0.4565	0.6083	0.1175	-0.364
Mof_O 	O 	0.3363	0.4683	0.09314	-0.365
Mof_O 	O 	0.1981	0.0516	0.56454	-0.407
Mof_O 	O 	0.2937	0.0267	0.73153	-0.252
Mof_O 	O 	0.4736	0.1954	0.79032	-0.477
Mof_O 	O 	0.6171	0.0081	0.72265	-0.456
Mof_O 	O 	0.921	0.6039	0.90298	-0.347
Mof_O 	O 	0.7881	0.7616	0.79933	-0.509
Mof_O 	O 	0.2535	0.5108	0.8289	-0.372
Mof_O 	O 	0.1697	0.3473	0.8065	-0.356
Mof_O 	O 	0.5435	0.3917	0.8825	-0.364
Mof_O 	O 	0.6637	0.5317	0.90686	-0.365
_end
