data_functionalizedCrystal
_audit_creation_method	'EQeq! by Chris Wilmer'
_symmetry_space_group_name_H-M	'P1'
_symmetry_Int_Tables_number	1
_symmetry_cell_setting	triclinic
loop_
_symmetry_equiv_pos_as_xyz
  x,y,z
_cell_length_a	11.6533
_cell_length_b	15.4648
_cell_length_c	15.4648
_cell_angle_alpha	90
_cell_angle_beta	90.205
_cell_angle_gamma	90
loop_
_atom_site_label
_atom_site_type_symbol
_atom_site_fract_x
_atom_site_fract_y
_atom_site_fract_z
_atom_site_charge
Mof_Zn	Zn	0.51089	0.5	0.59645	1.278
Mof_Zn	Zn	0.48911	0.5	0.40355	1.278
Mof_H 	H 	0.79774	0.3343	0.61692	0.035
Mof_H 	H 	0.34224	0.5	0.7238	0.015
Mof_H 	H 	0.20163	0.13946	0.63782	0.049
Mof_H 	H 	0.34947	0.5	0.8821	0.068
Mof_H 	H 	0.79037	0	0.47276	0.044
Mof_H 	H 	0.32433	0.7312	0.63841	0.034
Mof_H 	H 	0.67567	0.2688	0.36159	0.034
Mof_H 	H 	0.79837	0.13946	0.36218	0.049
Mof_H 	H 	0.79774	0.6657	0.61692	0.034
Mof_H 	H 	0.79837	0.86054	0.36218	0.049
Mof_H 	H 	0.20226	0.6657	0.38308	0.034
Mof_H 	H 	0.27961	0.5	0.13057	0.064
Mof_H 	H 	0.72039	0.5	0.86943	0.064
Mof_H 	H 	0.67567	0.7312	0.36159	0.034
Mof_H 	H 	0.65053	0.5	0.1179	0.068
Mof_H 	H 	0.20163	0.86054	0.63782	0.049
Mof_H 	H 	0.29508	0.5	0.29041	0.013
Mof_H 	H 	0.07801	0.20613	0.3837	0.052
Mof_H 	H 	0.70492	0.5	0.70959	0.013
Mof_H 	H 	0.92199	0.20613	0.6163	0.052
Mof_H 	H 	0.07801	0.79387	0.3837	0.052
Mof_H 	H 	0.65776	0.5	0.2762	0.014
Mof_H 	H 	0.20226	0.3343	0.38308	0.034
Mof_H 	H 	0.92199	0.79387	0.6163	0.052
Mof_H 	H 	0.20963	0	0.52724	0.044
Mof_H 	H 	0.32433	0.2688	0.63841	0.034
Mof_C 	C 	0.36294	0.5	0.1618	-0.11
Mof_C 	C 	0.12947	0.83741	0.51092	0.036
Mof_C 	C 	0.7265	0.31249	0.48916	-0.12
Mof_C 	C 	0.86959	0.78029	0.55994	-0.072
Mof_C 	C 	0.57585	0.5	0.24307	0.06
Mof_C 	C 	0.79802	0.7069	0.5603	0.034
Mof_C 	C 	0.79991	0.81781	0.41764	-0.075
Mof_C 	C 	0.88239	4.52883e-33	0.48324	-0.044
Mof_C 	C 	0.37157	0.5	0.25097	0.065
Mof_C 	C 	0.72994	0.74343	0.41724	0.033
Mof_C 	C 	0.93986	0.91962	0.49188	-0.008
Mof_C 	C 	0.12947	0.16259	0.51092	0.036
Mof_C 	C 	0.13041	0.78029	0.44006	-0.072
Mof_C 	C 	0.20009	0.81781	0.58236	-0.075
Mof_C 	C 	0.42415	0.5	0.75693	0.06
Mof_C 	C 	0.72994	0.25657	0.41724	0.033
Mof_C 	C 	0.06014	0.08038	0.50812	-0.008
Mof_C 	C 	0.11761	0	0.51676	-0.044
Mof_C 	C 	0.87053	0.83741	0.48908	0.036
Mof_C 	C 	0.06014	0.91962	0.50812	-0.008
Mof_C 	C 	0.20009	0.18219	0.58236	-0.075
Mof_C 	C 	0.53646	0.5	0.88644	0.12
Mof_C 	C 	0.57126	0.5	0.15421	-0.104
Mof_C 	C 	0.86959	0.21971	0.55994	-0.072
Mof_C 	C 	0.63706	0.5	0.8382	-0.11
Mof_C 	C 	0.42874	0.5	0.84579	-0.104
Mof_C 	C 	0.79991	0.18219	0.41764	-0.075
Mof_C 	C 	0.13041	0.21971	0.44006	-0.072
Mof_C 	C 	0.93986	0.08038	0.49188	-0.008
Mof_C 	C 	0.20198	0.2931	0.4397	0.034
Mof_C 	C 	0.27006	0.25657	0.58276	0.033
Mof_C 	C 	0.87053	0.16259	0.48908	0.036
Mof_C 	C 	0.64357	0.61312	0.49258	0.414
Mof_C 	C 	0.27006	0.74343	0.58276	0.033
Mof_C 	C 	0.20198	0.7069	0.4397	0.034
Mof_C 	C 	0.7265	0.68751	0.48916	-0.12
Mof_C 	C 	0.2735	0.31249	0.51084	-0.12
Mof_C 	C 	0.2735	0.68751	0.51084	-0.12
Mof_C 	C 	0.64357	0.38688	0.49258	0.414
Mof_C 	C 	0.79802	0.2931	0.5603	0.034
Mof_C 	C 	0.46354	0.5	0.11356	0.12
Mof_C 	C 	0.62843	0.5	0.74903	0.065
Mof_C 	C 	0.35643	0.61312	0.50742	0.414
Mof_C 	C 	0.35643	0.38688	0.50742	0.414
Mof_N 	N 	0.52307	0.5	0.71147	-0.271
Mof_N 	N 	0.45512	0.5	0.02285	-0.092
Mof_N 	N 	0.54488	0.5	0.97715	-0.092
Mof_N 	N 	0.47693	0.5	0.28853	-0.271
Mof_O 	O 	0.40178	0.41641	0.57619	-0.48
Mof_O 	O 	0.61538	0.41847	0.5651	-0.484
Mof_O 	O 	0.40178	0.58359	0.57619	-0.48
Mof_O 	O 	0.59822	0.41641	0.42381	-0.48
Mof_O 	O 	0.61538	0.58153	0.5651	-0.484
Mof_O 	O 	0.38462	0.58153	0.4349	-0.484
Mof_O 	O 	0.59822	0.58359	0.42381	-0.48
Mof_O 	O 	0.38462	0.41847	0.4349	-0.484
_end
