data_functionalizedCrystal
_audit_creation_method	'EQeq! by Chris Wilmer'
_symmetry_space_group_name_H-M	'P1'
_symmetry_Int_Tables_number	1
_symmetry_cell_setting	triclinic
loop_
_symmetry_equiv_pos_as_xyz
  x,y,z
_cell_length_a	11.2073
_cell_length_b	28.6467
_cell_length_c	21.996
_cell_angle_alpha	90
_cell_angle_beta	117.764
_cell_angle_gamma	90
loop_
_atom_site_label
_atom_site_type_symbol
_atom_site_fract_x
_atom_site_fract_y
_atom_site_fract_z
_atom_site_charge
Mof_Cu	Cu	0.49716	0.25132	0.2991	0.892
Mof_Cu	Cu	0.50564	0.36738	0.28022	0.892
Mof_O 	O 	0.1083	0.0586	0.0229	-0.396
Mof_O 	O 	0.9601	0.1092	0.0246	-0.246
Mof_O 	O 	0.1779	0.2637	0.0568	-0.257
Mof_O 	O 	0.3937	0.26738	0.1878	-0.382
Mof_O 	O 	0.4103	0.34457	0.1746	-0.394
Mof_O 	O 	0.5409	0.31304	0.3387	-0.447
Mof_N 	N 	0.0079	0.9981	0.0918	-0.233
Mof_N 	N 	0.0004	0.9963	0.4101	-0.27
Mof_N 	N 	0.4813	0.1809	0.2848	-0.22
Mof_N 	N 	0.5064	0.9369	0.2409	-0.243
Mof_N 	N 	0.3188	0.2505	0.3038	-0.232
Mof_N 	N 	0.6838	0.2464	0.3047	-0.211
Mof_N 	N 	0.3239	0.3733	0.2812	-0.218
Mof_N 	N 	0.6917	0.3666	0.283	-0.216
Mof_C 	C 	0.0687	0.0986	0.0254	0.216
Mof_C 	C 	0.1653	0.139	0.0341	0.144
Mof_C 	C 	0.2888	0.1296	0.0318	-0.368
Mof_H 	H 	0.3104	0.0992	0.0258	0.149
Mof_C 	C 	0.3767	0.1663	0.0385	0.467
Mof_C 	C 	0.3387	0.2114	0.0476	-0.502
Mof_H 	H 	0.3967	0.236	0.0529	0.197
Mof_C 	C 	0.2238	0.2205	0.0491	0.377
Mof_C 	C 	0.1349	0.1841	0.0419	-0.315
Mof_H 	H 	0.0541	0.1906	0.0424	0.141
Mof_C 	C 	0.508	0.156	0.0377	-0.994
Mof_H 	H 	0.5794	0.1543	0.0841	0.315
Mof_H 	H 	0.5271	0.1804	0.0136	0.308
Mof_H 	H 	0.5011	0.1268	0.015	0.305
Mof_C 	C 	0.2701	0.3026	0.0755	-0.129
Mof_H 	H 	0.2191	0.3315	0.0619	0.065
Mof_H 	H 	0.3227	0.3003	0.0509	0.056
Mof_C 	C 	0.3666	0.3038	0.1538	0.353
Mof_C 	C 	0.8953	0.9877	0.0966	0.1
Mof_H 	H 	0.8168	0.9803	0.057	-0.023
Mof_C 	C 	0.8937	0.9878	0.1586	-0.108
Mof_H 	H 	0.8138	0.9812	0.16	0.07
Mof_C 	C 	0.0081	0.9974	0.2186	0.048
Mof_C 	C 	0.1258	0.0077	0.214	-0.15
Mof_H 	H 	0.2059	0.0143	0.2533	0.075
Mof_C 	C 	0.1208	0.008	0.1501	0.053
Mof_H 	H 	0.1988	0.0153	0.1471	-0.002
Mof_C 	C 	0.8925	0.0094	0.3522	0.074
Mof_H 	H 	0.8142	0.0179	0.3541	-0.03
Mof_C 	C 	0.8937	0.0107	0.2897	-0.126
Mof_H 	H 	0.8182	0.0212	0.2507	0.068
Mof_C 	C 	0.0061	0.9967	0.2851	0.043
Mof_C 	C 	0.1188	0.9813	0.3456	-0.138
Mof_H 	H 	0.1973	0.9717	0.3448	0.075
Mof_C 	C 	0.109	0.981	0.4062	0.065
Mof_H 	H 	0.1815	0.9697	0.4458	-0.036
Mof_C 	C 	0.4171	0.1615	0.2228	0.058
Mof_H 	H 	0.3703	0.1809	0.1851	0.018
Mof_C 	C 	0.4166	0.1129	0.2116	-0.114
Mof_H 	H 	0.3693	0.1002	0.1678	0.071
Mof_C 	C 	0.4904	0.0845	0.2691	0.021
Mof_C 	C 	0.5533	0.1043	0.3334	-0.114
Mof_H 	H 	0.5994	0.0859	0.3723	0.052
Mof_C 	C 	0.5463	0.1532	0.3392	0.058
Mof_H 	H 	0.5886	0.1666	0.3827	-0.019
Mof_C 	C 	0.5055	0.9543	0.2963	0.137
Mof_H 	H 	0.5079	0.9336	0.3295	-0.024
Mof_C 	C 	0.501	0.0015	0.3074	-0.216
Mof_H 	H 	0.5022	0.0119	0.3477	0.085
Mof_C 	C 	0.4949	0.0333	0.2592	0.1
Mof_C 	C 	0.4979	0.0158	0.2015	-0.199
Mof_H 	H 	0.4956	0.036	0.1679	0.085
Mof_C 	C 	0.5043	0.9674	0.1934	0.115
Mof_H 	H 	0.5072	0.956	0.1545	-0.037
Mof_C 	C 	0.1996	0.2533	0.2461	0.111
Mof_H 	H 	0.2008	0.2561	0.2042	-0.007
Mof_C 	C 	0.0773	0.2523	0.2456	-0.216
Mof_H 	H 	0.9988	0.2552	0.2041	0.123
Mof_C 	C 	0.0692	0.2471	0.3049	0.07
Mof_C 	C 	0.1918	0.2436	0.3664	-0.155
Mof_H 	H 	0.1925	0.2398	0.4086	0.078
Mof_C 	C 	0.3125	0.246	0.3619	0.093
Mof_H 	H 	0.3932	0.2444	0.4025	-0.029
Mof_C 	C 	0.6936	0.2386	0.2455	0.053
Mof_H 	H 	0.6158	0.2336	0.2043	0.003
Mof_C 	C 	0.8158	0.2381	0.2467	-0.115
Mof_H 	H 	0.82	0.2327	0.206	0.063
Mof_C 	C 	0.9331	0.2455	0.3059	0.045
Mof_C 	C 	0.9239	0.2537	0.3655	-0.054
Mof_H 	H 	0.0011	0.2597	0.4065	0.032
Mof_C 	C 	0.7999	0.253	0.3636	0.039
Mof_H 	H 	0.7954	0.2573	0.4044	0.009
Mof_C 	C 	0.2103	0.3806	0.2235	0.066
Mof_H 	H 	0.2156	0.386	0.1831	-0.008
Mof_C 	C 	0.0842	0.3806	0.221	-0.117
Mof_H 	H 	0.007	0.3854	0.1795	0.051
Mof_C 	C 	0.0741	0.3735	0.2812	0.02
Mof_C 	C 	0.1951	0.3671	0.3422	-0.118
Mof_H 	H 	0.1938	0.3632	0.3838	0.068
Mof_C 	C 	0.3168	0.3668	0.3396	0.065
Mof_H 	H 	0.3962	0.3619	0.38	-0.014
Mof_C 	C 	0.7015	0.3581	0.2252	0.064
Mof_H 	H 	0.6235	0.3508	0.1852	0.003
Mof_C 	C 	0.8244	0.3597	0.223	-0.13
Mof_H 	H 	0.8286	0.3526	0.1828	0.074
Mof_C 	C 	0.9407	0.3722	0.2826	0.074
Mof_C 	C 	0.9287	0.3814	0.3407	-0.074
Mof_H 	H 	0.0045	0.3888	0.3816	0.04
Mof_C 	C 	0.8017	0.3794	0.338	0.058
Mof_H 	H 	0.7946	0.3876	0.3771	0
Mof_Cu	Cu	0.50284	0.75132	0.2009	0.89
Mof_Cu	Cu	0.49436	0.86738	0.21978	0.892
Mof_O 	O 	0.8917	0.5586	0.4771	-0.388
Mof_O 	O 	0.0399	0.6092	0.4754	-0.308
Mof_O 	O 	0.8221	0.7637	0.4432	-0.238
Mof_O 	O 	0.6063	0.76738	0.3122	-0.384
Mof_O 	O 	0.5897	0.84457	0.3254	-0.392
Mof_O 	O 	0.4591	0.81304	0.1613	-0.453
Mof_N 	N 	0.9921	0.4981	0.4082	-0.207
Mof_N 	N 	0.9996	0.4963	0.0899	-0.25
Mof_N 	N 	0.5187	0.6809	0.2152	-0.223
Mof_N 	N 	0.4936	0.4369	0.2591	-0.227
Mof_N 	N 	0.6812	0.7505	0.1962	-0.216
Mof_N 	N 	0.3162	0.7464	0.1953	-0.228
Mof_N 	N 	0.6761	0.8733	0.2188	-0.225
Mof_N 	N 	0.3083	0.8666	0.217	-0.225
Mof_C 	C 	0.9313	0.5986	0.4746	0.295
Mof_C 	C 	0.8347	0.639	0.4659	0.138
Mof_C 	C 	0.7112	0.6296	0.4682	-0.363
Mof_H 	H 	0.6896	0.5992	0.4742	0.154
Mof_C 	C 	0.6233	0.6663	0.4615	0.477
Mof_C 	C 	0.6613	0.7114	0.4524	-0.501
Mof_H 	H 	0.6033	0.736	0.4471	0.201
Mof_C 	C 	0.7762	0.7205	0.4509	0.379
Mof_C 	C 	0.8651	0.6841	0.4581	-0.302
Mof_H 	H 	0.9459	0.6906	0.4576	0.161
Mof_C 	C 	0.492	0.656	0.4623	-1.013
Mof_H 	H 	0.4206	0.6543	0.4159	0.32
Mof_H 	H 	0.4729	0.6804	0.4864	0.321
Mof_H 	H 	0.4989	0.6268	0.485	0.319
Mof_C 	C 	0.7299	0.8026	0.4245	-0.144
Mof_H 	H 	0.7809	0.8315	0.4381	0.084
Mof_H 	H 	0.6773	0.8003	0.4491	0.069
Mof_C 	C 	0.6334	0.8038	0.3462	0.36
Mof_C 	C 	0.1047	0.4877	0.4034	0.059
Mof_H 	H 	0.1832	0.4803	0.443	-0.01
Mof_C 	C 	0.1063	0.4878	0.3414	-0.176
Mof_H 	H 	0.1862	0.4812	0.34	0.083
Mof_C 	C 	0.9919	0.4974	0.2814	0.089
Mof_C 	C 	0.8742	0.5077	0.286	-0.142
Mof_H 	H 	0.7941	0.5143	0.2467	0.08
Mof_C 	C 	0.8792	0.508	0.3499	0.09
Mof_H 	H 	0.8012	0.5153	0.3529	-0.006
Mof_C 	C 	0.1075	0.5094	0.1478	0.05
Mof_H 	H 	0.1858	0.5179	0.1459	-0.029
Mof_C 	C 	0.1063	0.5107	0.2103	-0.177
Mof_H 	H 	0.1818	0.5212	0.2493	0.082
Mof_C 	C 	0.9939	0.4967	0.2149	0.087
Mof_C 	C 	0.8812	0.4813	0.1544	-0.151
Mof_H 	H 	0.8027	0.4717	0.1552	0.075
Mof_C 	C 	0.891	0.481	0.0938	0.08
Mof_H 	H 	0.8185	0.4697	0.0542	-0.046
Mof_C 	C 	0.5829	0.6615	0.2772	0.065
Mof_H 	H 	0.6297	0.6809	0.3149	0.016
Mof_C 	C 	0.5834	0.6129	0.2884	-0.125
Mof_H 	H 	0.6307	0.6002	0.3322	0.078
Mof_C 	C 	0.5096	0.5845	0.2309	0.042
Mof_C 	C 	0.4467	0.6043	0.1666	-0.128
Mof_H 	H 	0.4006	0.5859	0.1277	0.051
Mof_C 	C 	0.4537	0.6532	0.1608	0.063
Mof_H 	H 	0.4114	0.6666	0.1173	-0.029
Mof_C 	C 	0.4945	0.4543	0.2037	0.08
Mof_H 	H 	0.4921	0.4336	0.1705	-0.012
Mof_C 	C 	0.499	0.5015	0.1926	-0.15
Mof_H 	H 	0.4978	0.5119	0.1523	0.064
Mof_C 	C 	0.5051	0.5333	0.2408	0.056
Mof_C 	C 	0.5021	0.5158	0.2985	-0.136
Mof_H 	H 	0.5044	0.536	0.3321	0.067
Mof_C 	C 	0.4957	0.4674	0.3066	0.062
Mof_H 	H 	0.4928	0.456	0.3455	-0.02
Mof_C 	C 	0.8004	0.7533	0.2539	0.034
Mof_H 	H 	0.7992	0.7561	0.2958	0.028
Mof_C 	C 	0.9227	0.7523	0.2544	-0.053
Mof_H 	H 	0.0012	0.7552	0.2959	0.023
Mof_C 	C 	0.9308	0.7471	0.1951	0.044
Mof_C 	C 	0.8082	0.7436	0.1336	-0.128
Mof_H 	H 	0.8075	0.7398	0.0914	0.067
Mof_C 	C 	0.6875	0.746	0.1381	0.077
Mof_H 	H 	0.6068	0.7444	0.0975	-0.032
Mof_C 	C 	0.3064	0.7386	0.2545	0.069
Mof_H 	H 	0.3842	0.7336	0.2957	-0.003
Mof_C 	C 	0.1842	0.7381	0.2533	-0.143
Mof_H 	H 	0.18	0.7327	0.294	0.065
Mof_C 	C 	0.0669	0.7455	0.1941	0.067
Mof_C 	C 	0.0761	0.7537	0.1345	-0.214
Mof_H 	H 	0.9989	0.7597	0.0935	0.121
Mof_C 	C 	0.2001	0.753	0.1364	0.111
Mof_H 	H 	0.2046	0.7573	0.0956	-0.035
Mof_C 	C 	0.7897	0.8806	0.2765	0.089
Mof_H 	H 	0.7844	0.886	0.3169	-0.007
Mof_C 	C 	0.9158	0.8806	0.279	-0.146
Mof_H 	H 	0.993	0.8854	0.3205	0.089
Mof_C 	C 	0.9259	0.8735	0.2188	0.089
Mof_C 	C 	0.8049	0.8671	0.1578	-0.15
Mof_H 	H 	0.8062	0.8632	0.1162	0.078
Mof_C 	C 	0.6832	0.8668	0.1604	0.084
Mof_H 	H 	0.6038	0.8619	0.12	-0.027
Mof_C 	C 	0.2985	0.8581	0.2748	0.064
Mof_H 	H 	0.3765	0.8508	0.3148	0.005
Mof_C 	C 	0.1756	0.8597	0.277	-0.122
Mof_H 	H 	0.1714	0.8526	0.3172	0.059
Mof_C 	C 	0.0593	0.8722	0.2174	0.043
Mof_C 	C 	0.0713	0.8814	0.1593	-0.192
Mof_H 	H 	0.9955	0.8888	0.1184	0.114
Mof_C 	C 	0.1983	0.8794	0.162	0.11
Mof_H 	H 	0.2054	0.8876	0.1229	-0.031
Mof_Cu	Cu	0.50284	0.74868	0.7009	0.891
Mof_Cu	Cu	0.49436	0.63262	0.71978	0.892
Mof_O 	O 	0.8917	0.9414	0.9771	-0.365
Mof_O 	O 	0.0399	0.8908	0.9754	-0.289
Mof_O 	O 	0.8221	0.7363	0.9432	-0.235
Mof_O 	O 	0.6063	0.73262	0.8122	-0.384
Mof_O 	O 	0.5897	0.65543	0.8254	-0.392
Mof_O 	O 	0.4591	0.68696	0.6613	-0.449
Mof_N 	N 	0.9921	0.0019	0.9082	-0.211
Mof_N 	N 	0.9996	0.0037	0.5899	-0.257
Mof_N 	N 	0.5187	0.8191	0.7152	-0.225
Mof_N 	N 	0.4936	0.0631	0.7591	-0.21
Mof_N 	N 	0.6812	0.7495	0.6962	-0.216
Mof_N 	N 	0.3162	0.7536	0.6953	-0.227
Mof_N 	N 	0.6761	0.6267	0.7188	-0.225
Mof_N 	N 	0.3083	0.6334	0.717	-0.225
Mof_C 	C 	0.9313	0.9014	0.9746	0.287
Mof_C 	C 	0.8347	0.861	0.9659	0.155
Mof_C 	C 	0.7112	0.8704	0.9682	-0.379
Mof_H 	H 	0.6896	0.9008	0.9742	0.168
Mof_C 	C 	0.6233	0.8337	0.9615	0.506
Mof_C 	C 	0.6613	0.7886	0.9524	-0.516
Mof_H 	H 	0.6033	0.764	0.9471	0.21
Mof_C 	C 	0.7762	0.7795	0.9509	0.394
Mof_C 	C 	0.8651	0.8159	0.9581	-0.312
Mof_H 	H 	0.9459	0.8094	0.9576	0.169
Mof_C 	C 	0.492	0.844	0.9623	-1.062
Mof_H 	H 	0.4206	0.8457	0.9159	0.337
Mof_H 	H 	0.4729	0.8196	0.9864	0.344
Mof_H 	H 	0.4989	0.8732	0.985	0.344
Mof_C 	C 	0.7299	0.6974	0.9245	-0.148
Mof_H 	H 	0.7809	0.6685	0.9381	0.09
Mof_H 	H 	0.6773	0.6997	0.9491	0.075
Mof_C 	C 	0.6334	0.6962	0.8462	0.362
Mof_C 	C 	0.1047	0.0123	0.9034	0.053
Mof_H 	H 	0.1832	0.0197	0.943	0
Mof_C 	C 	0.1063	0.0122	0.8414	-0.17
Mof_H 	H 	0.1862	0.0188	0.84	0.078
Mof_C 	C 	0.9919	0.0026	0.7814	0.071
Mof_C 	C 	0.8742	0.9923	0.786	-0.119
Mof_H 	H 	0.7941	0.9857	0.7467	0.079
Mof_C 	C 	0.8792	0.992	0.8499	0.103
Mof_H 	H 	0.8012	0.9847	0.8529	-0.003
Mof_C 	C 	0.1075	0.9906	0.6478	0.064
Mof_H 	H 	0.1858	0.9821	0.6459	-0.026
Mof_C 	C 	0.1063	0.9893	0.7103	-0.148
Mof_H 	H 	0.1818	0.9788	0.7493	0.081
Mof_C 	C 	0.9939	0.0033	0.7149	0.065
Mof_C 	C 	0.8812	0.0187	0.6544	-0.143
Mof_H 	H 	0.8027	0.0283	0.6552	0.071
Mof_C 	C 	0.891	0.019	0.5938	0.073
Mof_H 	H 	0.8185	0.0303	0.5542	-0.039
Mof_C 	C 	0.5829	0.8385	0.7772	0.072
Mof_H 	H 	0.6297	0.8191	0.8149	0.014
Mof_C 	C 	0.5834	0.8871	0.7884	-0.138
Mof_H 	H 	0.6307	0.8998	0.8322	0.083
Mof_C 	C 	0.5096	0.9155	0.7309	0.065
Mof_C 	C 	0.4467	0.8957	0.6666	-0.141
Mof_H 	H 	0.4006	0.9141	0.6277	0.062
Mof_C 	C 	0.4537	0.8468	0.6608	0.072
Mof_H 	H 	0.4114	0.8334	0.6173	-0.026
Mof_C 	C 	0.4945	0.0457	0.7037	0.026
Mof_H 	H 	0.4921	0.0664	0.6705	0.005
Mof_C 	C 	0.499	0.9985	0.6926	-0.085
Mof_H 	H 	0.4978	0.9881	0.6523	0.05
Mof_C 	C 	0.5051	0.9667	0.7408	0.015
Mof_C 	C 	0.5021	0.9842	0.7985	-0.074
Mof_H 	H 	0.5044	0.964	0.8321	0.052
Mof_C 	C 	0.4957	0.0326	0.8066	0.011
Mof_H 	H 	0.4928	0.044	0.8455	-0.003
Mof_C 	C 	0.8004	0.7467	0.7539	0.037
Mof_H 	H 	0.7992	0.7439	0.7958	0.028
Mof_C 	C 	0.9227	0.7477	0.7544	-0.057
Mof_H 	H 	0.0012	0.7448	0.7959	0.027
Mof_C 	C 	0.9308	0.7529	0.6951	0.047
Mof_C 	C 	0.8082	0.7564	0.6336	-0.128
Mof_H 	H 	0.8075	0.7602	0.5914	0.075
Mof_C 	C 	0.6875	0.754	0.6381	0.079
Mof_H 	H 	0.6068	0.7556	0.5975	-0.024
Mof_C 	C 	0.3064	0.7614	0.7545	0.07
Mof_H 	H 	0.3842	0.7664	0.7957	-0.003
Mof_C 	C 	0.1842	0.7619	0.7533	-0.144
Mof_H 	H 	0.18	0.7673	0.794	0.067
Mof_C 	C 	0.0669	0.7545	0.6941	0.07
Mof_C 	C 	0.0761	0.7463	0.6345	-0.213
Mof_H 	H 	0.9989	0.7403	0.5935	0.128
Mof_C 	C 	0.2001	0.747	0.6364	0.112
Mof_H 	H 	0.2046	0.7427	0.5956	-0.029
Mof_C 	C 	0.7897	0.6194	0.7765	0.088
Mof_H 	H 	0.7844	0.614	0.8169	-0.006
Mof_C 	C 	0.9158	0.6194	0.779	-0.147
Mof_H 	H 	0.993	0.6146	0.8205	0.09
Mof_C 	C 	0.9259	0.6265	0.7188	0.089
Mof_C 	C 	0.8049	0.6329	0.6578	-0.15
Mof_H 	H 	0.8062	0.6368	0.6162	0.084
Mof_C 	C 	0.6832	0.6332	0.6604	0.084
Mof_H 	H 	0.6038	0.6381	0.62	-0.021
Mof_C 	C 	0.2985	0.6419	0.7748	0.064
Mof_H 	H 	0.3765	0.6492	0.8148	0.006
Mof_C 	C 	0.1756	0.6403	0.777	-0.123
Mof_H 	H 	0.1714	0.6474	0.8172	0.062
Mof_C 	C 	0.0593	0.6278	0.7174	0.045
Mof_C 	C 	0.0713	0.6186	0.6593	-0.194
Mof_H 	H 	0.9955	0.6112	0.6184	0.12
Mof_C 	C 	0.1983	0.6206	0.662	0.11
Mof_H 	H 	0.2054	0.6124	0.6229	-0.027
Mof_Cu	Cu	0.49716	0.24868	0.7991	0.892
Mof_Cu	Cu	0.50564	0.13262	0.78022	0.892
Mof_O 	O 	0.1083	0.4414	0.5229	-0.382
Mof_O 	O 	0.9601	0.3908	0.5246	-0.235
Mof_O 	O 	0.1779	0.2363	0.5568	-0.253
Mof_O 	O 	0.3937	0.23262	0.6878	-0.383
Mof_O 	O 	0.4103	0.15543	0.6746	-0.395
Mof_O 	O 	0.5409	0.18696	0.8387	-0.443
Mof_N 	N 	0.0079	0.5019	0.5918	-0.243
Mof_N 	N 	0.0004	0.5037	0.9101	-0.275
Mof_N 	N 	0.4813	0.3191	0.7848	-0.222
Mof_N 	N 	0.5064	0.5631	0.7409	-0.227
Mof_N 	N 	0.3188	0.2495	0.8038	-0.231
Mof_N 	N 	0.6838	0.2536	0.8047	-0.211
Mof_N 	N 	0.3239	0.1267	0.7812	-0.218
Mof_N 	N 	0.6917	0.1334	0.783	-0.216
Mof_C 	C 	0.0687	0.4014	0.5254	0.214
Mof_C 	C 	0.1653	0.361	0.5341	0.16
Mof_C 	C 	0.2888	0.3704	0.5318	-0.381
Mof_H 	H 	0.3104	0.4008	0.5258	0.161
Mof_C 	C 	0.3767	0.3337	0.5385	0.494
Mof_C 	C 	0.3387	0.2886	0.5476	-0.516
Mof_H 	H 	0.3967	0.264	0.5529	0.206
Mof_C 	C 	0.2238	0.2795	0.5491	0.391
Mof_C 	C 	0.1349	0.3159	0.5419	-0.322
Mof_H 	H 	0.0541	0.3094	0.5424	0.149
Mof_C 	C 	0.508	0.344	0.5377	-1.04
Mof_H 	H 	0.5794	0.3457	0.5841	0.332
Mof_H 	H 	0.5271	0.3196	0.5136	0.331
Mof_H 	H 	0.5011	0.3732	0.515	0.329
Mof_C 	C 	0.2701	0.1974	0.5755	-0.134
Mof_H 	H 	0.2191	0.1685	0.5619	0.071
Mof_H 	H 	0.3227	0.1997	0.5509	0.063
Mof_C 	C 	0.3666	0.1962	0.6538	0.355
Mof_C 	C 	0.8953	0.5123	0.5966	0.093
Mof_H 	H 	0.8168	0.5197	0.557	-0.015
Mof_C 	C 	0.8937	0.5122	0.6586	-0.101
Mof_H 	H 	0.8138	0.5188	0.66	0.065
Mof_C 	C 	0.0081	0.5026	0.7186	0.026
Mof_C 	C 	0.1258	0.4923	0.714	-0.124
Mof_H 	H 	0.2059	0.4857	0.7533	0.074
Mof_C 	C 	0.1208	0.492	0.6501	0.068
Mof_H 	H 	0.1988	0.4847	0.6471	-0.002
Mof_C 	C 	0.8925	0.4906	0.8522	0.088
Mof_H 	H 	0.8142	0.4821	0.8541	-0.027
Mof_C 	C 	0.8937	0.4893	0.7897	-0.101
Mof_H 	H 	0.8182	0.4788	0.7507	0.067
Mof_C 	C 	0.0061	0.5033	0.7851	0.024
Mof_C 	C 	0.1188	0.5187	0.8456	-0.132
Mof_H 	H 	0.1973	0.5283	0.8448	0.071
Mof_C 	C 	0.109	0.519	0.9062	0.059
Mof_H 	H 	0.1815	0.5303	0.9458	-0.029
Mof_C 	C 	0.4171	0.3385	0.7228	0.065
Mof_H 	H 	0.3703	0.3191	0.6851	0.015
Mof_C 	C 	0.4166	0.3871	0.7116	-0.126
Mof_H 	H 	0.3693	0.3998	0.6678	0.077
Mof_C 	C 	0.4904	0.4155	0.7691	0.044
Mof_C 	C 	0.5533	0.3957	0.8334	-0.126
Mof_H 	H 	0.5994	0.4141	0.8723	0.063
Mof_C 	C 	0.5463	0.3468	0.8392	0.066
Mof_H 	H 	0.5886	0.3334	0.8827	-0.016
Mof_C 	C 	0.5055	0.5457	0.7963	0.083
Mof_H 	H 	0.5079	0.5664	0.8295	-0.007
Mof_C 	C 	0.501	0.4985	0.8074	-0.15
Mof_H 	H 	0.5022	0.4881	0.8477	0.072
Mof_C 	C 	0.4949	0.4667	0.7592	0.059
Mof_C 	C 	0.4979	0.4842	0.7015	-0.137
Mof_H 	H 	0.4956	0.464	0.6679	0.069
Mof_C 	C 	0.5043	0.5326	0.6934	0.063
Mof_H 	H 	0.5072	0.544	0.6545	-0.02
Mof_C 	C 	0.1996	0.2467	0.7461	0.111
Mof_H 	H 	0.2008	0.2439	0.7042	-0.007
Mof_C 	C 	0.0773	0.2477	0.7456	-0.214
Mof_H 	H 	0.9988	0.2448	0.7041	0.123
Mof_C 	C 	0.0692	0.2529	0.8049	0.072
Mof_C 	C 	0.1918	0.2564	0.8664	-0.153
Mof_H 	H 	0.1925	0.2602	0.9086	0.087
Mof_C 	C 	0.3125	0.254	0.8619	0.095
Mof_H 	H 	0.3932	0.2556	0.9025	-0.022
Mof_C 	C 	0.6936	0.2614	0.7455	0.056
Mof_H 	H 	0.6158	0.2664	0.7043	0.003
Mof_C 	C 	0.8158	0.2619	0.7467	-0.117
Mof_H 	H 	0.82	0.2673	0.706	0.065
Mof_C 	C 	0.9331	0.2545	0.8059	0.049
Mof_C 	C 	0.9239	0.2463	0.8655	-0.059
Mof_H 	H 	0.0011	0.2403	0.9065	0.043
Mof_C 	C 	0.7999	0.247	0.8636	0.044
Mof_H 	H 	0.7954	0.2427	0.9044	0.014
Mof_C 	C 	0.2103	0.1194	0.7235	0.066
Mof_H 	H 	0.2156	0.114	0.6831	-0.008
Mof_C 	C 	0.0842	0.1194	0.721	-0.118
Mof_H 	H 	0.007	0.1146	0.6795	0.052
Mof_C 	C 	0.0741	0.1265	0.7812	0.022
Mof_C 	C 	0.1951	0.1329	0.8422	-0.118
Mof_H 	H 	0.1938	0.1368	0.8838	0.075
Mof_C 	C 	0.3168	0.1332	0.8396	0.065
Mof_H 	H 	0.3962	0.1381	0.88	-0.008
Mof_C 	C 	0.7015	0.1419	0.7252	0.065
Mof_H 	H 	0.6235	0.1492	0.6852	0.004
Mof_C 	C 	0.8244	0.1403	0.723	-0.131
Mof_H 	H 	0.8286	0.1474	0.6828	0.076
Mof_C 	C 	0.9407	0.1278	0.7826	0.075
Mof_C 	C 	0.9287	0.1186	0.8407	-0.078
Mof_H 	H 	0.0045	0.1112	0.8816	0.048
Mof_C 	C 	0.8017	0.1206	0.838	0.06
Mof_H 	H 	0.7946	0.1124	0.8771	0.005
Mof_Cu	Cu	-0	0	-0	0.857
Mof_Cu	Cu	5.39335e-33	0.5	0.5	0.879
Mof_Cu	Cu	5.39335e-33	4.03971e-33	0.5	0.773
Mof_Cu	Cu	-1.61588e-32	0.5	-0	0.769
_end
