data_functionalizedCrystal
_audit_creation_method	'EQeq! by Chris Wilmer'
_symmetry_space_group_name_H-M	'P1'
_symmetry_Int_Tables_number	1
_symmetry_cell_setting	triclinic
loop_
_symmetry_equiv_pos_as_xyz
  x,y,z
_cell_length_a	11.3945
_cell_length_b	14.8843
_cell_length_c	15.869
_cell_angle_alpha	64.69
_cell_angle_beta	89.747
_cell_angle_gamma	89.661
loop_
_atom_site_label
_atom_site_type_symbol
_atom_site_fract_x
_atom_site_fract_y
_atom_site_fract_z
_atom_site_charge
Mof_Cu	Cu	0.89375	0.63759	0.35754	0.864
Mof_C 	C 	0.3394	0.6394	0.8583	0.08
Mof_H 	H 	0.3652	0.6921	0.87	-0.009
Mof_C 	C 	0.3103	0.4981	0.8633	0.104
Mof_H 	H 	0.313	0.4298	0.882	-0.012
Mof_C 	C 	0.2291	0.7404	0.712	-0.148
Mof_H 	H 	0.1579	0.7282	0.6853	0.085
Mof_H 	H 	0.2116	0.7897	0.735	0.077
Mof_C 	C 	0.3212	0.7782	0.6396	0.087
Mof_C 	C 	0.3222	0.7582	0.5641	-0.09
Mof_H 	H 	0.2597	0.7231	0.5557	0.066
Mof_C 	C 	0.4091	0.7865	0.5006	-0.058
Mof_H 	H 	0.4065	0.7689	0.451	0.05
Mof_C 	C 	0.5014	0.8411	0.5083	0.062
Mof_C 	C 	0.5014	0.8631	0.5798	-0.065
Mof_H 	H 	0.5631	0.9004	0.5861	0.054
Mof_C 	C 	0.4121	0.8328	0.6473	-0.087
Mof_H 	H 	0.4152	0.85	0.6971	0.058
Mof_C 	C 	0.7014	0.752	0.3981	0.096
Mof_H 	H 	0.661	0.7664	0.343	-0.028
Mof_C 	C 	0.8137	0.6946	0.5068	0.104
Mof_H 	H 	0.8718	0.6553	0.5468	0.006
Mof_C 	C 	0.6912	0.6277	0.8868	0.103
Mof_H 	H 	0.7129	0.6455	0.9341	-0.007
Mof_C 	C 	0.6103	0.5607	0.8116	0.107
Mof_H 	H 	0.5594	0.5219	0.7955	-0.01
Mof_C 	C 	0.8323	0.7374	0.7656	-0.132
Mof_H 	H 	0.7995	0.804	0.7401	0.072
Mof_H 	H 	0.8721	0.7281	0.7157	0.083
Mof_C 	C 	0.9229	0.785	0.8862	-0.09
Mof_H 	H 	0.8706	0.8382	0.8678	0.056
Mof_C 	C 	0.919	0.7246	0.8421	0.068
Mof_C 	C 	0.996	0.6415	0.8748	-0.081
Mof_H 	H 	0.9952	0.5973	0.8475	0.076
Mof_C 	C 	0.071	0.6265	0.9463	-0.062
Mof_H 	H 	0.1205	0.5714	0.9674	0.076
Mof_C 	C 	0.0759	0.6909	0.9884	0.105
Mof_C 	C 	0.0004	0.7716	0.9569	-0.067
Mof_H 	H 	0.002	0.8166	0.9834	0.063
Mof_C 	C 	0.1603	0.673	0.0653	-0.168
Mof_H 	H 	0.223	0.6297	0.0629	0.069
Mof_H 	H 	0.1949	0.7356	0.0571	0.063
Mof_C 	C 	0.0505	0.6732	0.2011	0.095
Mof_H 	H 	0.0532	0.741	0.1848	-0.016
Mof_C 	C 	0.016	0.5248	0.2656	0.149
Mof_H 	H 	0.9869	0.4642	0.3085	-0.027
Mof_C 	C 	0.9743	0.8454	0.313	0.088
Mof_H 	H 	0.9068	0.8757	0.2802	-0.021
Mof_C 	C 	0.1422	0.8276	0.3812	0.077
Mof_H 	H 	0.2121	0.8406	0.4038	0.006
Mof_C 	C 	0.0608	0.9939	0.3252	-0.135
Mof_H 	H 	0.0063	0.0347	0.2771	0.069
Mof_H 	H 	0.1391	0.0203	0.3063	0.064
Mof_C 	C 	0.0296	0.9979	0.4153	0.109
Mof_C 	C 	0.9161	0.0141	0.4346	-0.128
Mof_H 	H 	0.8584	0.0266	0.3897	0.069
Mof_C 	C 	0.1134	0.988	0.4813	-0.118
Mof_H 	H 	0.192	0.9825	0.468	0.071
Mof_C 	C 	0.5997	0.8736	0.4399	-0.114
Mof_H 	H 	0.5675	0.9002	0.3774	0.057
Mof_H 	H 	0.642	0.9265	0.4465	0.068
Mof_N 	N 	0.3682	0.543	0.9083	-0.232
Mof_N 	N 	0.2501	0.558	0.7915	-0.103
Mof_N 	N 	0.269	0.6468	0.7902	-0.076
Mof_N 	N 	0.6802	0.7948	0.4512	-0.089
Mof_N 	N 	0.7559	0.7609	0.5243	-0.094
Mof_N 	N 	0.7859	0.6858	0.4291	-0.247
Mof_N 	N 	0.6102	0.5635	0.8944	-0.243
Mof_N 	N 	0.7374	0.6635	0.8043	-0.082
Mof_N 	N 	0.6896	0.6183	0.7558	-0.09
Mof_N 	N 	0.103	0.6279	0.1547	-0.08
Mof_N 	N 	0.0793	0.5318	0.196	-0.107
Mof_N 	N 	0.9944	0.608	0.2731	-0.266
Mof_N 	N 	0.999	0.7507	0.3432	-0.198
Mof_N 	N 	0.1026	0.7407	0.3868	-0.085
Mof_N 	N 	0.0567	0.8909	0.3352	-0.115
Mof_Cu	Cu	0.10625	0.36241	0.64246	0.868
Mof_C 	C 	0.6606	0.3606	0.1417	0.077
Mof_H 	H 	0.6348	0.3079	0.13	-0.023
Mof_C 	C 	0.6897	0.5019	0.1367	0.097
Mof_H 	H 	0.687	0.5702	0.118	-0.032
Mof_C 	C 	0.7709	0.2596	0.288	-0.138
Mof_H 	H 	0.8421	0.2718	0.3147	0.077
Mof_H 	H 	0.7884	0.2103	0.265	0.068
Mof_C 	C 	0.6788	0.2218	0.3604	0.074
Mof_C 	C 	0.6778	0.2418	0.4359	-0.077
Mof_H 	H 	0.7403	0.2769	0.4443	0.06
Mof_C 	C 	0.5909	0.2135	0.4994	-0.07
Mof_H 	H 	0.5935	0.2311	0.549	0.056
Mof_C 	C 	0.4986	0.1589	0.4917	0.073
Mof_C 	C 	0.4986	0.1369	0.4202	-0.076
Mof_H 	H 	0.4369	0.0996	0.4139	0.056
Mof_C 	C 	0.5879	0.1672	0.3527	-0.075
Mof_H 	H 	0.5848	0.15	0.3029	0.049
Mof_C 	C 	0.2986	0.248	0.6019	0.095
Mof_H 	H 	0.339	0.2336	0.657	-0.022
Mof_C 	C 	0.1863	0.3054	0.4932	0.104
Mof_H 	H 	0.1282	0.3447	0.4532	0.011
Mof_C 	C 	0.3088	0.3723	0.1132	0.097
Mof_H 	H 	0.2871	0.3545	0.0659	-0.026
Mof_C 	C 	0.3897	0.4393	0.1884	0.105
Mof_H 	H 	0.4406	0.4781	0.2045	-0.015
Mof_C 	C 	0.1677	0.2626	0.2344	-0.132
Mof_H 	H 	0.2005	0.196	0.2599	0.07
Mof_H 	H 	0.1279	0.2719	0.2843	0.086
Mof_C 	C 	0.0771	0.215	0.1138	-0.08
Mof_H 	H 	0.1294	0.1618	0.1322	0.047
Mof_C 	C 	0.081	0.2754	0.1579	0.063
Mof_C 	C 	0.004	0.3585	0.1252	-0.071
Mof_H 	H 	0.0048	0.4027	0.1525	0.072
Mof_C 	C 	0.929	0.3735	0.0537	-0.058
Mof_H 	H 	0.8795	0.4286	0.0326	0.044
Mof_C 	C 	0.9241	0.3091	0.0116	0.004
Mof_C 	C 	0.9996	0.2284	0.0431	-0.063
Mof_H 	H 	0.998	0.1834	0.0166	0.028
Mof_C 	C 	0.8397	0.327	0.9347	-0.059
Mof_H 	H 	0.777	0.3703	0.9371	0.061
Mof_H 	H 	0.8051	0.2644	0.9429	0.055
Mof_C 	C 	0.9495	0.3268	0.7989	0.085
Mof_H 	H 	0.9468	0.259	0.8152	-0.007
Mof_C 	C 	0.984	0.4752	0.7344	0.086
Mof_H 	H 	0.0131	0.5358	0.6915	0.013
Mof_C 	C 	0.0257	0.1546	0.687	0.12
Mof_H 	H 	0.0932	0.1243	0.7198	-0.022
Mof_C 	C 	0.8578	0.1724	0.6188	0.081
Mof_H 	H 	0.7879	0.1594	0.5962	0.006
Mof_C 	C 	0.9392	0.0061	0.6748	-0.084
Mof_H 	H 	0.9937	0.9653	0.7229	0.051
Mof_H 	H 	0.8609	0.9797	0.6937	0.052
Mof_C 	C 	0.9704	0.0021	0.5847	0.005
Mof_C 	C 	0.0839	0.9859	0.5654	-0.004
Mof_H 	H 	0.1416	0.9734	0.6103	0.033
Mof_C 	C 	0.8866	0.012	0.5187	-0.017
Mof_H 	H 	0.808	0.0175	0.532	0.036
Mof_C 	C 	0.4003	0.1264	0.5601	-0.122
Mof_H 	H 	0.4325	0.0998	0.6226	0.064
Mof_H 	H 	0.358	0.0735	0.5535	0.072
Mof_N 	N 	0.6318	0.457	0.0917	-0.251
Mof_N 	N 	0.7499	0.442	0.2085	-0.109
Mof_N 	N 	0.731	0.3532	0.2098	-0.079
Mof_N 	N 	0.3198	0.2052	0.5488	-0.087
Mof_N 	N 	0.2441	0.2391	0.4757	-0.093
Mof_N 	N 	0.2141	0.3142	0.5709	-0.245
Mof_N 	N 	0.3898	0.4365	0.1056	-0.259
Mof_N 	N 	0.2626	0.3365	0.1957	-0.083
Mof_N 	N 	0.3104	0.3817	0.2442	-0.091
Mof_N 	N 	0.897	0.3721	0.8453	-0.084
Mof_N 	N 	0.9207	0.4682	0.804	-0.09
Mof_N 	N 	0.0056	0.392	0.7269	-0.233
Mof_N 	N 	0.001	0.2493	0.6568	-0.191
Mof_N 	N 	0.8974	0.2593	0.6132	-0.095
Mof_N 	N 	0.9433	0.1091	0.6648	-0.136
Mof_Cu	Cu	0.5	0.5	-0	0.837
Mof_Cl	Cl	3.65059e-19	0.5	0.5	-0.515
_end
