data_functionalizedCrystal
_audit_creation_method	'EQeq! by Chris Wilmer'
_symmetry_space_group_name_H-M	'P1'
_symmetry_Int_Tables_number	1
_symmetry_cell_setting	triclinic
loop_
_symmetry_equiv_pos_as_xyz
  x,y,z
_cell_length_a	6.812
_cell_length_b	16.7331
_cell_length_c	13.038
_cell_angle_alpha	90
_cell_angle_beta	90
_cell_angle_gamma	90
loop_
_atom_site_label
_atom_site_type_symbol
_atom_site_fract_x
_atom_site_fract_y
_atom_site_fract_z
_atom_site_charge
Mof_C 	C 	0.804	0.96	0.518	-0.018
Mof_O 	O 	0.844	0.834	0.657	-0.654
Mof_H 	H 	0.66038	0.92524	0.52287	0.023
Mof_C 	C 	0.304	0.46	0.018	-0.002
Mof_O 	O 	0.344	0.334	0.157	-0.643
Mof_H 	H 	0.16038	0.42524	0.02287	0.025
Mof_C 	C 	0.196	0.54	0.518	-0.006
Mof_O 	O 	0.156	0.666	0.657	-0.644
Mof_H 	H 	0.33962	0.57476	0.52287	0.022
Mof_C 	C 	0.696	0.04	0.018	-0.005
Mof_O 	O 	0.656	0.166	0.157	-0.644
Mof_H 	H 	0.83962	0.07476	0.02287	0.017
Mof_C 	C 	0.196	0.46	0.482	-0.005
Mof_O 	O 	0.156	0.334	0.343	-0.643
Mof_H 	H 	0.33962	0.42524	0.47713	0.023
Mof_C 	C 	0.696	0.96	0.982	-0.004
Mof_O 	O 	0.656	0.834	0.843	-0.644
Mof_H 	H 	0.83962	0.92524	0.97713	0.017
Mof_C 	C 	0.804	0.04	0.482	-0.017
Mof_O 	O 	0.844	0.166	0.343	-0.653
Mof_H 	H 	0.66038	0.07476	0.47713	0.024
Mof_C 	C 	0.304	0.54	0.982	-0.001
Mof_O 	O 	0.344	0.666	0.843	-0.642
Mof_H 	H 	0.16038	0.57476	0.97713	0.026
Mof_C 	C 	0.196	0.04	0.482	-0.005
Mof_O 	O 	0.156	0.166	0.343	-0.643
Mof_H 	H 	0.33962	0.07476	0.47713	0.023
Mof_C 	C 	0.696	0.54	0.982	-0.004
Mof_O 	O 	0.656	0.666	0.843	-0.644
Mof_H 	H 	0.83962	0.57476	0.97713	0.017
Mof_C 	C 	0.804	0.46	0.482	-0.017
Mof_O 	O 	0.844	0.334	0.343	-0.653
Mof_H 	H 	0.66038	0.42524	0.47713	0.024
Mof_C 	C 	0.304	0.96	0.982	-0.002
Mof_O 	O 	0.344	0.834	0.843	-0.642
Mof_H 	H 	0.16038	0.92524	0.97713	0.026
Mof_C 	C 	0.804	0.54	0.518	-0.017
Mof_O 	O 	0.844	0.666	0.657	-0.653
Mof_H 	H 	0.66038	0.57476	0.52287	0.024
Mof_C 	C 	0.304	0.04	0.018	-0.002
Mof_O 	O 	0.344	0.166	0.157	-0.642
Mof_H 	H 	0.16038	0.07476	0.02287	0.026
Mof_C 	C 	0.196	0.96	0.518	-0.005
Mof_O 	O 	0.156	0.834	0.657	-0.643
Mof_H 	H 	0.33962	0.92524	0.52287	0.023
Mof_C 	C 	0.696	0.46	0.018	-0.004
Mof_O 	O 	0.656	0.334	0.157	-0.644
Mof_H 	H 	0.83962	0.42524	0.02287	0.017
Mof_H 	H 	0.5	0.25	0.3907	0.303
Mof_O 	O 	0.5	0.25	0.314	-1.163
Mof_H 	H 	2.33778e-32	0.75	0.8907	0.307
Mof_O 	O 	3.98133e-32	0.75	0.814	-1.156
Mof_H 	H 	0.5	0.75	0.6093	0.303
Mof_O 	O 	0.5	0.75	0.686	-1.163
Mof_H 	H 	-5.58534e-33	0.25	0.1093	0.307
Mof_O 	O 	-2.91169e-33	0.25	0.186	-1.156
Mof_Cr	Cr	0.25	0.75	0.75	2.712
Mof_Cr	Cr	0.75	0.75	0.75	2.693
Mof_Cr	Cr	0.75	0.25	0.25	2.693
Mof_Cr	Cr	0.25	0.25	0.25	2.712
Mof_C 	C 	-1.31179e-32	0.946	0.539	-0.107
Mof_C 	C 	2.98707e-32	0.875	0.612	0.457
Mof_C 	C 	0.5	0.446	0.039	-0.121
Mof_C 	C 	0.5	0.375	0.112	0.445
Mof_C 	C 	-1.31179e-32	0.554	0.539	-0.107
Mof_C 	C 	-2.1087e-32	0.625	0.612	0.457
Mof_C 	C 	0.5	0.054	0.039	-0.121
Mof_C 	C 	0.5	0.125	0.112	0.445
Mof_C 	C 	3.30825e-33	0.446	0.461	-0.107
Mof_C 	C 	1.12773e-32	0.375	0.388	0.457
Mof_C 	C 	0.5	0.946	0.961	-0.121
Mof_C 	C 	0.5	0.875	0.888	0.445
Mof_C 	C 	3.30825e-33	0.054	0.461	-0.107
Mof_C 	C 	1.12773e-32	0.125	0.388	0.457
Mof_C 	C 	0.5	0.554	0.961	-0.121
Mof_C 	C 	0.5	0.625	0.888	0.445
_end
