data_functionalizedCrystal
_audit_creation_method	'EQeq! by Chris Wilmer'
_symmetry_space_group_name_H-M	'P1'
_symmetry_Int_Tables_number	1
_symmetry_cell_setting	triclinic
loop_
_symmetry_equiv_pos_as_xyz
  x,y,z
_cell_length_a	21.11
_cell_length_b	21.11
_cell_length_c	29.855
_cell_angle_alpha	69.2959
_cell_angle_beta	69.2959
_cell_angle_gamma	90
loop_
_atom_site_label
_atom_site_type_symbol
_atom_site_fract_x
_atom_site_fract_y
_atom_site_fract_z
_atom_site_charge
Mof_Co	Co	0.06042	0.42168	0.23272	1.143
Mof_Co	Co	0.93958	0.57832	0.76728	1.143
Mof_Co	Co	0.79314	0.6544	0.76728	1.143
Mof_Co	Co	0.6544	0.93958	0.26728	1.143
Mof_Co	Co	0.57832	0.79314	0.26728	1.143
Mof_Co	Co	0.20686	0.3456	0.23272	1.143
Mof_Co	Co	0.34559	0.06042	0.73273	1.143
Mof_Co	Co	0.42168	0.20686	0.73272	1.143
Mof_H 	H 	0.5011	0.3142	0.7496	-0.029
Mof_H 	H 	0.7477	0.3369	0.9916	0.074
Mof_H 	H 	0.1285	0.4367	0.7908	0.087
Mof_H 	H 	0.0746	0.4094	0.956	0.066
Mof_H 	H 	0.2269	0.2949	0.9472	0.061
Mof_H 	H 	0.996	0.5461	0.079	0.076
Mof_H 	H 	0.7051	0.6741	0.5528	0.061
Mof_H 	H 	0.3654	0.9254	0.544	0.066
Mof_H 	H 	0.6742	0.8178	0.4128	0.015
Mof_H 	H 	0.2421	0.7731	0.5528	0.061
Mof_H 	H 	0.2071	0.2816	0.345	-0.041
Mof_H 	H 	0.295	0.4521	0.2382	-0.006
Mof_H 	H 	0.2533	0.3014	0.3978	0.092
Mof_H 	H 	0.6616	0.5197	0.71	0.097
Mof_H 	H 	0.3553	0.3436	0.6198	0.016
Mof_H 	H 	0.4094	0.4694	0.456	0.066
Mof_H 	H 	0.3968	0.9554	0.4582	0.073
Mof_H 	H 	0.4694	0.6346	0.956	0.066
Mof_H 	H 	0.1284	0.7703	0.71	0.097
Mof_H 	H 	0.5807	0.7725	0.7908	0.087
Mof_H 	H 	0.2297	0.3384	0.79	0.097
Mof_H 	H 	0.9427	0.5158	0.876	0.002
Mof_H 	H 	0.7507	0.0638	0.2504	-0.029
Mof_H 	H 	0.413	0.7694	0.4128	0.015
Mof_H 	H 	0.3285	0.2523	0.5084	0.074
Mof_H 	H 	0.4989	0.6858	0.2504	-0.029
Mof_H 	H 	0.3436	0.5249	0.1198	0.017
Mof_H 	H 	0.645	0.5864	0.4582	0.073
Mof_H 	H 	0.6992	0.7467	0.1022	0.092
Mof_H 	H 	0.7725	0.1285	0.2908	0.087
Mof_H 	H 	0.5864	0.3968	0.9582	0.073
Mof_H 	H 	0.7929	0.7184	0.655	-0.041
Mof_H 	H 	0.6266	0.7929	0.155	-0.041
Mof_H 	H 	0.0638	0.4989	0.7504	-0.029
Mof_H 	H 	0.7579	0.2269	0.4472	0.061
Mof_H 	H 	0.4136	0.6032	0.0418	0.073
Mof_H 	H 	0.0573	0.4842	0.124	0.002
Mof_H 	H 	0.6715	0.7477	0.4916	0.074
Mof_H 	H 	0.425	0.3749	0.079	0.076
Mof_H 	H 	0.3384	0.4803	0.29	0.097
Mof_H 	H 	0.0366	0.3553	0.1198	0.016
Mof_H 	H 	0.3369	0.7607	0.4916	0.074
Mof_H 	H 	0.5249	0.0366	0.6198	0.016
Mof_H 	H 	0.9554	0.645	0.9582	0.073
Mof_H 	H 	0.6741	0.2421	0.0528	0.062
Mof_H 	H 	0.575	0.6251	0.921	0.076
Mof_H 	H 	0.6564	0.4751	0.8802	0.017
Mof_H 	H 	0.1511	0.6992	0.6022	0.092
Mof_H 	H 	0.0332	0.6903	0.7618	-0.006
Mof_H 	H 	0.3749	0.996	0.579	0.076
Mof_H 	H 	0.3187	0.3918	0.124	0.002
Mof_H 	H 	0.6631	0.2393	0.5084	0.074
Mof_H 	H 	0.3258	0.1822	0.5872	0.015
Mof_H 	H 	0.5197	0.1284	0.21	0.097
Mof_H 	H 	0.7731	0.7051	0.0528	0.061
Mof_H 	H 	0.705	0.5479	0.7618	-0.006
Mof_H 	H 	0.5306	0.3654	0.044	0.066
Mof_H 	H 	0.6032	0.0446	0.5418	0.073
Mof_H 	H 	0.004	0.4539	0.921	0.076
Mof_H 	H 	0.7694	0.6742	0.9128	0.015
Mof_H 	H 	0.4367	0.5807	0.2908	0.087
Mof_H 	H 	0.2306	0.3258	0.0872	0.015
Mof_H 	H 	0.8489	0.3008	0.3978	0.092
Mof_H 	H 	0.3734	0.2071	0.845	-0.041
Mof_H 	H 	0.6346	0.0746	0.456	0.066
Mof_H 	H 	0.6903	0.705	0.2618	-0.006
Mof_H 	H 	0.5461	0.425	0.579	0.076
Mof_H 	H 	0.2275	0.8715	0.7092	0.087
Mof_H 	H 	0.6251	0.004	0.421	0.076
Mof_H 	H 	0.3142	0.2493	0.2496	-0.029
Mof_H 	H 	0.9634	0.6447	0.8802	0.016
Mof_H 	H 	0.6813	0.6082	0.876	0.002
Mof_H 	H 	0.355	0.4136	0.5418	0.073
Mof_H 	H 	0.5479	0.0332	0.2618	-0.006
Mof_H 	H 	0.0521	0.6266	0.655	-0.041
Mof_H 	H 	0.6447	0.6564	0.3802	0.016
Mof_H 	H 	0.3014	0.8489	0.8978	0.093
Mof_H 	H 	0.2393	0.3285	0.0084	0.074
Mof_H 	H 	0.7467	0.6986	0.6022	0.092
Mof_H 	H 	0.2816	0.9479	0.845	-0.041
Mof_H 	H 	0.7703	0.6616	0.21	0.097
Mof_H 	H 	0.3097	0.295	0.7382	-0.006
Mof_H 	H 	0.4539	0.575	0.421	0.076
Mof_H 	H 	0.4521	0.9668	0.7382	-0.006
Mof_H 	H 	0.0446	0.355	0.0418	0.073
Mof_H 	H 	0.9668	0.3097	0.2382	-0.006
Mof_H 	H 	0.5906	0.5306	0.544	0.066
Mof_H 	H 	0.6986	0.1511	0.1022	0.093
Mof_H 	H 	0.4751	0.9634	0.3802	0.016
Mof_H 	H 	0.3259	0.7579	0.9472	0.062
Mof_H 	H 	0.1822	0.587	0.0872	0.015
Mof_H 	H 	0.9362	0.5011	0.2496	-0.029
Mof_H 	H 	0.4193	0.2275	0.2092	0.087
Mof_H 	H 	0.9254	0.5906	0.044	0.066
Mof_H 	H 	0.5633	0.4193	0.7092	0.087
Mof_H 	H 	0.587	0.2306	0.5872	0.015
Mof_H 	H 	0.4803	0.8716	0.79	0.097
Mof_H 	H 	0.2493	0.9362	0.7496	-0.029
Mof_H 	H 	0.4842	0.3187	0.624	0.002
Mof_H 	H 	0.8178	0.413	0.9128	0.015
Mof_H 	H 	0.8715	0.5633	0.2092	0.087
Mof_H 	H 	0.7184	0.0521	0.155	-0.041
Mof_H 	H 	0.3008	0.2533	0.8978	0.092
Mof_H 	H 	0.6858	0.7507	0.7504	-0.029
Mof_H 	H 	0.5158	0.6813	0.376	0.002
Mof_H 	H 	0.2523	0.6631	0.0084	0.074
Mof_H 	H 	0.6082	0.9427	0.376	0.002
Mof_H 	H 	0.7607	0.6715	0.9916	0.074
Mof_H 	H 	0.9479	0.3734	0.345	-0.041
Mof_H 	H 	0.2949	0.3259	0.4472	0.061
Mof_H 	H 	0.3918	0.0573	0.624	0.002
Mof_H 	H 	0.8716	0.2297	0.29	0.097
Mof_C 	C 	0.72845	0.36505	0.9695	-0.135
Mof_C 	C 	0.56172	0.11432	0.19716	-0.175
Mof_C 	C 	0.34458	0.34148	0.51464	0.06
Mof_C 	C 	0.87017	0.65367	0.83806	0.403
Mof_C 	C 	0.41292	0.78772	0.88496	0.046
Mof_C 	C 	0.86596	0.65776	0.88848	-0.149
Mof_C 	C 	0.85612	0.65542	0.98536	0.06
Mof_C 	C 	0.80233	0.67963	0.06674	-0.106
Mof_C 	C 	0.36661	0.59921	0.05018	-0.133
Mof_C 	C 	0.50827	0.87017	0.33806	0.403
Mof_C 	C 	0.89228	0.61148	0.06164	-0.114
Mof_C 	C 	0.31148	0.43828	0.30284	-0.175
Mof_C 	C 	0.78772	0.20212	0.38496	0.046
Mof_C 	C 	0.59672	0.65222	0.88596	-0.144
Mof_C 	C 	0.33319	0.22929	0.57782	0.072
Mof_C 	C 	0.73876	0.09056	0.30948	-0.148
Mof_C 	C 	0.68852	0.56172	0.69716	-0.175
Mof_C 	C 	0.34778	0.98268	0.61404	-0.144
Mof_C 	C 	0.32465	0.55245	0.0973	0.066
Mof_C 	C 	0.20212	0.32732	0.88496	0.046
Mof_C 	C 	0.34224	0.25444	0.61152	-0.149
Mof_C 	C 	0.66487	0.12717	0.13446	-0.195
Mof_C 	C 	0.70156	0.60556	0.64848	0.108
Mof_C 	C 	0.36907	0.74637	0.93326	-0.107
Mof_C 	C 	0.27155	0.63495	0.0305	-0.135
Mof_C 	C 	0.60556	0.14996	0.14848	0.108
Mof_C 	C 	0.32732	0.41292	0.38496	0.046
Mof_C 	C 	0.26163	0.33513	0.36554	-0.195
Mof_C 	C 	0.66545	0.72845	0.4695	-0.135
Mof_C 	C 	0.77071	0.41101	0.92218	0.072
Mof_C 	C 	0.10772	0.38852	0.93836	-0.114
Mof_C 	C 	0.34148	0.64078	0.01464	0.06
Mof_C 	C 	0.32037	0.36907	0.43326	-0.106
Mof_C 	C 	0.21228	0.79788	0.61504	0.046
Mof_C 	C 	0.28362	0.88462	0.61076	0.062
Mof_C 	C 	0.98268	0.53818	0.11404	-0.144
Mof_C 	C 	0.66079	0.64189	0.85842	0.087
Mof_C 	C 	0.80205	0.66545	0.9695	-0.135
Mof_C 	C 	0.43553	0.56443	0.36214	0.069
Mof_C 	C 	0.54824	0.40004	0.69052	-0.148
Mof_C 	C 	0.85004	0.25404	0.35152	0.108
Mof_C 	C 	0.72473	0.05123	0.28554	0.091
Mof_C 	C 	0.74112	0.68852	0.19716	-0.175
Mof_C 	C 	0.01732	0.46182	0.88596	-0.144
Mof_C 	C 	0.71638	0.11538	0.38924	0.062
Mof_C 	C 	0.45176	0.59996	0.30948	-0.148
Mof_C 	C 	0.50462	0.28362	0.11076	0.062
Mof_C 	C 	0.33513	0.87283	0.86554	-0.195
Mof_C 	C 	0.38783	0.68733	0.96194	0.037
Mof_C 	C 	0.27527	0.94877	0.71446	0.091
Mof_C 	C 	0.65542	0.65852	0.48536	0.06
Mof_C 	C 	0.64927	0.61217	0.53806	0.037
Mof_C 	C 	0.56443	0.70233	0.86214	0.069
Mof_C 	C 	0.71528	0.57938	0.72824	0.104
Mof_C 	C 	0.53818	0.40328	0.61404	-0.144
Mof_C 	C 	0.22929	0.58899	0.07782	0.072
Mof_C 	C 	0.98079	0.49969	0.85842	0.087
Mof_C 	C 	0.65367	0.79177	0.33806	0.403
Mof_C 	C 	0.61217	0.31267	0.03806	0.037
Mof_C 	C 	0.33921	0.35811	0.14158	0.087
Mof_C 	C 	0.84977	0.64927	0.03806	0.037
Mof_C 	C 	0.65852	0.35922	0.98536	0.06
Mof_C 	C 	0.35073	0.38783	0.46194	0.037
Mof_C 	C 	0.12717	0.70067	0.63446	-0.195
Mof_C 	C 	0.50031	0.33921	0.64158	0.087
Mof_C 	C 	0.23532	0.32292	0.33236	0.129
Mof_C 	C 	0.49538	0.71638	0.88924	0.062
Mof_C 	C 	0.11432	0.74112	0.69716	-0.175
Mof_C 	C 	0.67535	0.44755	0.9027	0.066
Mof_C 	C 	0.19795	0.33455	0.0305	-0.135
Mof_C 	C 	0.73837	0.66487	0.63446	-0.195
Mof_C 	C 	0.64975	0.67535	0.4027	0.067
Mof_C 	C 	0.91679	0.64939	0.94982	-0.133
Mof_C 	C 	0.25404	0.29844	0.85152	0.108
Mof_C 	C 	0.40004	0.26124	0.19052	-0.148
Mof_C 	C 	0.35922	0.85612	0.48536	0.06
Mof_C 	C 	0.74637	0.19767	0.43326	-0.106
Mof_C 	C 	0.67268	0.58708	0.61504	0.046
Mof_C 	C 	0.65528	0.76468	0.16764	0.129
Mof_C 	C 	0.48973	0.66323	0.28554	0.091
Mof_C 	C 	0.92657	0.56447	0.13786	0.069
Mof_C 	C 	0.39444	0.85004	0.85152	0.108
Mof_C 	C 	0.30762	0.28472	0.77176	0.104
Mof_C 	C 	0.32292	0.93232	0.83236	0.129
Mof_C 	C 	0.25444	0.54624	0.11152	-0.149
Mof_C 	C 	0.59996	0.73876	0.80948	-0.148
Mof_C 	C 	0.56447	0.43557	0.63786	0.069
Mof_C 	C 	0.31267	0.84977	0.53806	0.037
Mof_C 	C 	0.67312	0.10772	0.43836	-0.113
Mof_C 	C 	0.55245	0.07805	0.5973	0.067
Mof_C 	C 	0.93232	0.34472	0.33236	0.129
Mof_C 	C 	0.94877	0.51027	0.21446	0.091
Mof_C 	C 	0.49969	0.66079	0.35842	0.087
Mof_C 	C 	0.05123	0.48973	0.78554	0.091
Mof_C 	C 	0.36505	0.80205	0.4695	-0.135
Mof_C 	C 	0.25363	0.80233	0.56674	-0.106
Mof_C 	C 	0.79177	0.50827	0.83806	0.403
Mof_C 	C 	0.67963	0.63093	0.56674	-0.106
Mof_C 	C 	0.39438	0.49538	0.38924	0.062
Mof_C 	C 	0.40328	0.34778	0.11404	-0.144
Mof_C 	C 	0.63339	0.40079	0.94982	-0.133
Mof_C 	C 	0.32688	0.89228	0.56164	-0.113
Mof_C 	C 	0.11538	0.39438	0.88924	0.062
Mof_C 	C 	0.49173	0.12983	0.66194	0.403
Mof_C 	C 	0.90944	0.54824	0.19052	-0.148
Mof_C 	C 	0.14996	0.74596	0.64848	0.108
Mof_C 	C 	0.29933	0.26163	0.86554	-0.195
Mof_C 	C 	0.29844	0.39444	0.35152	0.108
Mof_C 	C 	0.60562	0.50462	0.61076	0.062
Mof_C 	C 	0.66681	0.77071	0.42218	0.072
Mof_C 	C 	0.19289	0.33319	0.07782	0.072
Mof_C 	C 	0.92195	0.64975	0.9027	0.067
Mof_C 	C 	0.33455	0.27155	0.5305	-0.135
Mof_C 	C 	0.94352	0.30762	0.27176	0.104
Mof_C 	C 	0.44755	0.92195	0.4027	0.067
Mof_C 	C 	0.05648	0.69238	0.72824	0.104
Mof_C 	C 	0.07343	0.43553	0.86214	0.069
Mof_C 	C 	0.69238	0.71528	0.22824	0.104
Mof_C 	C 	0.63495	0.19795	0.5305	-0.135
Mof_C 	C 	0.35811	0.01921	0.64158	0.087
Mof_C 	C 	0.25888	0.31148	0.80284	-0.175
Mof_C 	C 	0.29767	0.92657	0.63786	0.069
Mof_C 	C 	0.20823	0.49173	0.16194	0.403
Mof_C 	C 	0.14388	0.34458	0.01464	0.06
Mof_C 	C 	0.64939	0.63339	0.44982	-0.133
Mof_C 	C 	0.41101	0.80711	0.42218	0.072
Mof_C 	C 	0.88462	0.60562	0.11076	0.062
Mof_C 	C 	0.74596	0.70156	0.14848	0.108
Mof_C 	C 	0.51027	0.33677	0.71446	0.091
Mof_C 	C 	0.35025	0.32465	0.5973	0.067
Mof_C 	C 	0.07805	0.35025	0.0973	0.067
Mof_C 	C 	0.70067	0.73837	0.13446	-0.195
Mof_C 	C 	0.42062	0.94352	0.77176	0.104
Mof_C 	C 	0.64189	0.98079	0.35842	0.087
Mof_C 	C 	0.45392	0.67312	0.93836	-0.114
Mof_C 	C 	0.35061	0.36661	0.55018	-0.133
Mof_C 	C 	0.57938	0.05648	0.22824	0.104
Mof_C 	C 	0.28472	0.42062	0.27176	0.104
Mof_C 	C 	0.34472	0.23532	0.83236	0.129
Mof_C 	C 	0.70233	0.07343	0.36214	0.069
Mof_C 	C 	0.58899	0.19289	0.57782	0.072
Mof_C 	C 	0.74556	0.45376	0.88848	-0.149
Mof_C 	C 	0.54624	0.13404	0.61152	-0.149
Mof_C 	C 	0.58708	0.21228	0.11504	0.046
Mof_C 	C 	0.01921	0.50031	0.14158	0.087
Mof_C 	C 	0.09056	0.45176	0.80948	-0.148
Mof_C 	C 	0.64078	0.14388	0.51464	0.06
Mof_C 	C 	0.43828	0.88568	0.80284	-0.175
Mof_C 	C 	0.65776	0.74556	0.38848	-0.149
Mof_C 	C 	0.08321	0.35061	0.05018	-0.133
Mof_C 	C 	0.87283	0.29933	0.36554	-0.195
Mof_C 	C 	0.15023	0.35073	0.96194	0.037
Mof_C 	C 	0.06768	0.65528	0.66764	0.129
Mof_C 	C 	0.12983	0.34633	0.16194	0.403
Mof_C 	C 	0.68733	0.15023	0.46194	0.037
Mof_C 	C 	0.61148	0.54608	0.56164	-0.113
Mof_C 	C 	0.43557	0.29767	0.13786	0.069
Mof_C 	C 	0.40079	0.91679	0.44982	-0.133
Mof_C 	C 	0.63093	0.25363	0.06674	-0.107
Mof_C 	C 	0.79788	0.67268	0.11504	0.046
Mof_C 	C 	0.88568	0.25888	0.30284	-0.175
Mof_C 	C 	0.66323	0.72473	0.78554	0.09
Mof_C 	C 	0.33677	0.27527	0.21446	0.09
Mof_C 	C 	0.19767	0.32037	0.93326	-0.106
Mof_C 	C 	0.80711	0.66681	0.92218	0.072
Mof_C 	C 	0.59921	0.08321	0.55018	-0.133
Mof_C 	C 	0.38852	0.45392	0.43836	-0.113
Mof_C 	C 	0.13404	0.34224	0.11152	-0.149
Mof_C 	C 	0.67708	0.06768	0.16764	0.129
Mof_C 	C 	0.65222	0.01732	0.38596	-0.144
Mof_C 	C 	0.76468	0.67708	0.66764	0.129
Mof_C 	C 	0.54608	0.32688	0.06164	-0.114
Mof_C 	C 	0.46182	0.59672	0.38596	-0.144
Mof_C 	C 	0.34633	0.20823	0.66194	0.403
Mof_C 	C 	0.45376	0.86596	0.38848	-0.149
Mof_C 	C 	0.26124	0.90944	0.69052	-0.148
Mof_N 	N 	0.67721	0.99674	0.30798	-0.241
Mof_N 	N 	0.47602	0.77269	0.86182	-0.127
Mof_N 	N 	0.32279	0.00326	0.69202	-0.241
Mof_N 	N 	0.36549	0.47602	0.36182	-0.126
Mof_N 	N 	0.75363	0.6366	0.7138	-0.257
Mof_N 	N 	0.6496	0.75363	0.2138	-0.257
Mof_N 	N 	0.24637	0.3634	0.2862	-0.257
Mof_N 	N 	0.69528	0.67721	0.80798	-0.241
Mof_N 	N 	0.3634	0.96743	0.7862	-0.257
Mof_N 	N 	0.3504	0.24637	0.7862	-0.257
Mof_N 	N 	0.30472	0.32279	0.19202	-0.241
Mof_N 	N 	0.16216	0.36549	0.86182	-0.127
Mof_N 	N 	0.51481	0.69528	0.30798	-0.241
Mof_N 	N 	0.00326	0.48519	0.19202	-0.241
Mof_N 	N 	0.22731	0.83784	0.63818	-0.126
Mof_N 	N 	0.63451	0.52398	0.63818	-0.126
Mof_N 	N 	0.03257	0.6496	0.7138	-0.257
Mof_N 	N 	0.99674	0.51481	0.80798	-0.241
Mof_N 	N 	0.48519	0.30472	0.69202	-0.241
Mof_N 	N 	0.83784	0.63451	0.13818	-0.127
Mof_N 	N 	0.6366	0.03257	0.2138	-0.257
Mof_N 	N 	0.52398	0.22731	0.13818	-0.127
Mof_N 	N 	0.77269	0.16216	0.36182	-0.126
Mof_N 	N 	0.96743	0.3504	0.2862	-0.257
Mof_O 	O 	0.07691	0.36735	0.18552	-0.444
Mof_O 	O 	0.50685	0.82201	0.3239	-0.45
Mof_O 	O 	0.63675	0.88675	0.2265	-0.488
Mof_O 	O 	0.14591	0.49315	0.1761	-0.45
Mof_O 	O 	0.76243	0.55287	0.81448	-0.444
Mof_O 	O 	0.92309	0.63265	0.81448	-0.444
Mof_O 	O 	0.11325	0.36325	0.2735	-0.488
Mof_O 	O 	0.85409	0.50685	0.8239	-0.45
Mof_O 	O 	0.36325	0.11325	0.7735	-0.488
Mof_O 	O 	0.17799	0.33075	0.1761	-0.45
Mof_O 	O 	0.88675	0.63675	0.7265	-0.488
Mof_O 	O 	0.33075	0.14591	0.6761	-0.45
Mof_O 	O 	0.44713	0.07691	0.68552	-0.444
Mof_O 	O 	0.36735	0.23757	0.68552	-0.444
Mof_O 	O 	0.49315	0.17799	0.6761	-0.45
Mof_O 	O 	0.82201	0.66925	0.8239	-0.45
Mof_O 	O 	0.55287	0.92309	0.31448	-0.444
Mof_O 	O 	0.66925	0.85409	0.3239	-0.45
Mof_O 	O 	0.23757	0.44713	0.18552	-0.444
Mof_O 	O 	0.63265	0.76243	0.31448	-0.444
_end
