data_functionalizedCrystal
_audit_creation_method	'EQeq! by Chris Wilmer'
_symmetry_space_group_name_H-M	'P1'
_symmetry_Int_Tables_number	1
_symmetry_cell_setting	triclinic
loop_
_symmetry_equiv_pos_as_xyz
  x,y,z
_cell_length_a	11.737
_cell_length_b	11.737
_cell_length_c	12.313
_cell_angle_alpha	72.0924
_cell_angle_beta	72.0924
_cell_angle_gamma	76.9133
loop_
_atom_site_label
_atom_site_type_symbol
_atom_site_fract_x
_atom_site_fract_y
_atom_site_fract_z
_atom_site_charge
Mof_Cr	Cr	0.20457	0.21381	0.47546	2.219
Mof_Cr	Cr	0.78619	0.79543	0.02454	2.204
Mof_Cr	Cr	0.79543	0.78619	0.52454	2.219
Mof_Cr	Cr	0.21381	0.20457	0.97546	2.204
Mof_Ag	Ag	0.94927	0.55609	0.74508	0.928
Mof_Ag	Ag	0.44391	0.05073	0.75492	0.919
Mof_Ag	Ag	0.05073	0.44391	0.25492	0.928
Mof_Ag	Ag	0.55609	0.94927	0.24508	0.919
Mof_Ag	Ag	0.95677	0.04323	0.75	0.931
Mof_Ag	Ag	0.04323	0.95677	0.25	0.931
Mof_C 	C 	0.0422	0.3316	0.633	0.265
Mof_C 	C 	0.1222	0.426	0.5439	0.262
Mof_C 	C 	0.8274	0.552	0.129	0.246
Mof_C 	C 	0.8577	0.5643	0.9976	0.272
Mof_C 	C 	0.0346	0.126	0.925	0.249
Mof_C 	C 	0.1563	0.0663	0.8584	0.287
Mof_C 	C 	0.6684	0.9578	0.867	0.272
Mof_C 	C 	0.574	0.8778	0.9561	0.268
Mof_C 	C 	0.448	0.1726	0.371	0.249
Mof_C 	C 	0.4357	0.1423	0.5024	0.269
Mof_C 	C 	0.874	0.9654	0.575	0.253
Mof_C 	C 	0.9337	0.8437	0.6416	0.296
Mof_C 	C 	0.9578	0.6684	0.367	0.265
Mof_C 	C 	0.8778	0.574	0.4561	0.262
Mof_C 	C 	0.1726	0.448	0.871	0.246
Mof_C 	C 	0.1423	0.4357	0.0024	0.272
Mof_C 	C 	0.9654	0.874	0.075	0.249
Mof_C 	C 	0.8437	0.9337	0.1416	0.287
Mof_C 	C 	0.3316	0.0422	0.133	0.272
Mof_C 	C 	0.426	0.1222	0.0439	0.268
Mof_C 	C 	0.552	0.8274	0.629	0.249
Mof_C 	C 	0.5643	0.8577	0.4976	0.269
Mof_C 	C 	0.126	0.0346	0.425	0.253
Mof_C 	C 	0.0663	0.1563	0.3584	0.296
Mof_O 	O 	0.0685	0.2263	0.6138	-0.609
Mof_O 	O 	0.2007	0.3845	0.4625	-0.567
Mof_O 	O 	0.9594	0.3612	0.716	-0.313
Mof_O 	O 	0.1053	0.5307	0.5523	-0.283
Mof_O 	O 	0.7889	0.6521	0.1586	-0.548
Mof_O 	O 	0.8423	0.6727	0.9339	-0.574
Mof_O 	O 	0.8453	0.4503	0.1978	-0.239
Mof_O 	O 	0.8942	0.4746	0.9564	-0.296
Mof_O 	O 	0.0458	0.1876	0.9907	-0.532
Mof_O 	O 	0.2484	0.0954	0.8712	-0.637
Mof_O 	O 	0.937	0.1132	0.9171	-0.299
Mof_O 	O 	0.1586	0.9968	0.8004	-0.288
Mof_O 	O 	0.7737	0.9315	0.8862	-0.602
Mof_O 	O 	0.6155	0.7993	0.0375	-0.571
Mof_O 	O 	0.6388	0.0406	0.784	-0.32
Mof_O 	O 	0.4693	0.8947	0.9477	-0.28
Mof_O 	O 	0.3479	0.2111	0.3414	-0.55
Mof_O 	O 	0.3273	0.1577	0.5661	-0.579
Mof_O 	O 	0.5497	0.1547	0.3022	-0.238
Mof_O 	O 	0.5254	0.1058	0.5436	-0.295
Mof_O 	O 	0.8124	0.9542	0.5093	-0.532
Mof_O 	O 	0.9046	0.7516	0.6288	-0.64
Mof_O 	O 	0.8868	0.063	0.5829	-0.301
Mof_O 	O 	0.0032	0.8414	0.6996	-0.296
Mof_O 	O 	0.9315	0.7737	0.3862	-0.609
Mof_O 	O 	0.7993	0.6155	0.5375	-0.567
Mof_O 	O 	0.0406	0.6388	0.284	-0.313
Mof_O 	O 	0.8947	0.4693	0.4477	-0.283
Mof_O 	O 	0.2111	0.3479	0.8414	-0.548
Mof_O 	O 	0.1577	0.3273	0.0661	-0.574
Mof_O 	O 	0.1547	0.5497	0.8022	-0.239
Mof_O 	O 	0.1058	0.5254	0.0436	-0.296
Mof_O 	O 	0.9542	0.8124	0.0093	-0.532
Mof_O 	O 	0.7516	0.9046	0.1288	-0.637
Mof_O 	O 	0.063	0.8868	0.0829	-0.299
Mof_O 	O 	0.8414	0.0032	0.1996	-0.288
Mof_O 	O 	0.2263	0.0685	0.1138	-0.602
Mof_O 	O 	0.3845	0.2007	0.9625	-0.571
Mof_O 	O 	0.3612	0.9594	0.216	-0.32
Mof_O 	O 	0.5307	0.1053	0.0523	-0.28
Mof_O 	O 	0.6521	0.7889	0.6586	-0.55
Mof_O 	O 	0.6727	0.8423	0.4339	-0.579
Mof_O 	O 	0.4503	0.8453	0.6978	-0.238
Mof_O 	O 	0.4746	0.8942	0.4564	-0.295
Mof_O 	O 	0.1876	0.0458	0.4907	-0.532
Mof_O 	O 	0.0954	0.2484	0.3712	-0.64
Mof_O 	O 	0.1132	0.937	0.4171	-0.301
Mof_O 	O 	0.9968	0.1586	0.3004	-0.296
_end
