data_functionalizedCrystal
_audit_creation_method	'EQeq! by Chris Wilmer'
_symmetry_space_group_name_H-M	'P1'
_symmetry_Int_Tables_number	1
_symmetry_cell_setting	triclinic
loop_
_symmetry_equiv_pos_as_xyz
  x,y,z
_cell_length_a	8.53
_cell_length_b	11.28
_cell_length_c	13.917
_cell_angle_alpha	90
_cell_angle_beta	112.75
_cell_angle_gamma	90
loop_
_atom_site_label
_atom_site_type_symbol
_atom_site_fract_x
_atom_site_fract_y
_atom_site_fract_z
_atom_site_charge
Mof_Cu	Cu	0.61642	0.41223	0.53093	0.929
Mof_C 	C 	0.9503	0.6533	0.4042	-0.261
Mof_H 	H 	0.0038	0.5961	0.4543	0.151
Mof_C 	C 	0.7797	0.662	0.3646	0.156
Mof_C 	C 	0.7812	0.8111	0.2512	0.15
Mof_C 	C 	0.9522	0.8151	0.2907	-0.237
Mof_H 	H 	0.0073	0.8722	0.2669	0.15
Mof_C 	C 	0.0507	0.7317	0.3695	0.326
Mof_C 	C 	0.6691	0.5956	0.4088	0.286
Mof_C 	C 	0.6716	0.8844	0.1591	0.289
Mof_O 	O 	0.6912	0.7372	0.28717	-0.199
Mof_O 	O 	0.2087	0.729	0.40361	-0.32
Mof_O 	O 	0.7306	0.5003	0.4549	-0.372
Mof_O 	O 	0.5331	0.6443	0.3999	-0.342
Mof_O 	O 	0.5336	0.8384	0.1006	-0.342
Mof_O 	O 	0.7321	0.982	0.14936	-0.361
Mof_Cu	Cu	0.38358	0.91223	0.96907	0.926
Mof_C 	C 	0.0497	0.1533	0.0958	-0.231
Mof_H 	H 	0.9962	0.0961	0.0457	0.135
Mof_C 	C 	0.2203	0.162	0.1354	0.146
Mof_C 	C 	0.2188	0.3111	0.2488	0.144
Mof_C 	C 	0.0478	0.3151	0.2093	-0.224
Mof_H 	H 	0.9927	0.3722	0.2331	0.147
Mof_C 	C 	0.9493	0.2317	0.1305	0.308
Mof_C 	C 	0.3309	0.0956	0.0912	0.29
Mof_C 	C 	0.3284	0.3844	0.3409	0.292
Mof_O 	O 	0.3088	0.2372	0.21283	-0.195
Mof_O 	O 	0.7913	0.229	0.09639	-0.316
Mof_O 	O 	0.2694	0.0003	0.0451	-0.372
Mof_O 	O 	0.4669	0.1443	0.1001	-0.345
Mof_O 	O 	0.4664	0.3384	0.3994	-0.346
Mof_O 	O 	0.2679	0.482	0.35064	-0.366
Mof_Cu	Cu	0.38358	0.58777	0.46907	0.93
Mof_C 	C 	0.0497	0.3467	0.5958	-0.26
Mof_H 	H 	0.9962	0.4039	0.5457	0.152
Mof_C 	C 	0.2203	0.338	0.6354	0.157
Mof_C 	C 	0.2188	0.1889	0.7488	0.151
Mof_C 	C 	0.0478	0.1849	0.7093	-0.236
Mof_H 	H 	0.9927	0.1278	0.7331	0.151
Mof_C 	C 	0.9493	0.2683	0.6305	0.327
Mof_C 	C 	0.3309	0.4044	0.5912	0.286
Mof_C 	C 	0.3284	0.1156	0.8409	0.289
Mof_O 	O 	0.3088	0.2628	0.71283	-0.199
Mof_O 	O 	0.7913	0.271	0.59639	-0.32
Mof_O 	O 	0.2694	0.4997	0.5451	-0.372
Mof_O 	O 	0.4669	0.3557	0.6001	-0.342
Mof_O 	O 	0.4664	0.1616	0.8994	-0.342
Mof_O 	O 	0.2679	0.018	0.85064	-0.361
Mof_Cu	Cu	0.61642	0.08777	0.03093	0.926
Mof_C 	C 	0.9503	0.8467	0.9042	-0.231
Mof_H 	H 	0.0038	0.9039	0.9543	0.135
Mof_C 	C 	0.7797	0.838	0.8646	0.146
Mof_C 	C 	0.7812	0.6889	0.7512	0.144
Mof_C 	C 	0.9522	0.6849	0.7907	-0.224
Mof_H 	H 	0.0073	0.6278	0.7669	0.147
Mof_C 	C 	0.0507	0.7683	0.8695	0.308
Mof_C 	C 	0.6691	0.9044	0.9088	0.29
Mof_C 	C 	0.6716	0.6156	0.6591	0.292
Mof_O 	O 	0.6912	0.7628	0.78717	-0.195
Mof_O 	O 	0.2087	0.771	0.90361	-0.316
Mof_O 	O 	0.7306	0.9997	0.9549	-0.372
Mof_O 	O 	0.5331	0.8557	0.8999	-0.345
Mof_O 	O 	0.5336	0.6616	0.6006	-0.346
Mof_O 	O 	0.7321	0.518	0.64936	-0.366
_end
