data_functionalizedCrystal
_audit_creation_method	'EQeq! by Chris Wilmer'
_symmetry_space_group_name_H-M	'P1'
_symmetry_Int_Tables_number	1
_symmetry_cell_setting	triclinic
loop_
_symmetry_equiv_pos_as_xyz
  x,y,z
_cell_length_a	8.9709
_cell_length_b	10.3426
_cell_length_c	10.3426
_cell_angle_alpha	120
_cell_angle_beta	90
_cell_angle_gamma	90
loop_
_atom_site_label
_atom_site_type_symbol
_atom_site_fract_x
_atom_site_fract_y
_atom_site_fract_z
_atom_site_charge
Mof_La	La	0.95064	0.33333	0.66666	2.428
Mof_La	La	0.04936	0.66667	0.33334	2.428
Mof_H 	H 	0.5633	0.4792	0.365	0.056
Mof_H 	H 	0.7199	0.6285	0.5698	0.079
Mof_H 	H 	0.5633	0.8858	0.5208	0.056
Mof_H 	H 	0.7199	0.9413	0.3715	0.08
Mof_H 	H 	0.5633	0.635	0.1142	0.056
Mof_H 	H 	0.7199	0.4302	0.0587	0.08
Mof_H 	H 	0.4367	0.5208	0.635	0.056
Mof_H 	H 	0.2801	0.3715	0.4302	0.079
Mof_H 	H 	0.4367	0.1142	0.4792	0.056
Mof_H 	H 	0.2801	0.0587	0.6285	0.08
Mof_H 	H 	0.4367	0.365	0.8858	0.056
Mof_H 	H 	0.2801	0.5698	0.9413	0.08
Mof_C 	C 	0.5672	0.4617	0.4497	0.064
Mof_C 	C 	0.8427	0.4452	0.4201	0.425
Mof_C 	C 	0.7149	0.5204	0.5296	-0.07
Mof_C 	C 	0.5672	0.988	0.5383	0.065
Mof_C 	C 	0.8427	0.9749	0.5548	0.428
Mof_C 	C 	0.7149	0.0092	0.4796	-0.074
Mof_C 	C 	0.5672	0.5503	0.012	0.064
Mof_C 	C 	0.8427	0.5799	0.0251	0.427
Mof_C 	C 	0.7149	0.4704	0.9908	-0.074
Mof_C 	C 	0.4328	0.5383	0.5503	0.064
Mof_C 	C 	0.1573	0.5548	0.5799	0.425
Mof_C 	C 	0.2851	0.4796	0.4704	-0.07
Mof_C 	C 	0.4328	0.012	0.4617	0.065
Mof_C 	C 	0.1573	0.0251	0.4452	0.428
Mof_C 	C 	0.2851	0.9908	0.5204	-0.074
Mof_C 	C 	0.4328	0.4497	0.988	0.064
Mof_C 	C 	0.1573	0.4201	0.9749	0.427
Mof_C 	C 	0.2851	0.5296	0.0092	-0.074
Mof_O 	O 	0.5587	0.3038	0.3932	-0.136
Mof_O 	O 	0.9205	0.3514	0.4336	-0.463
Mof_O 	O 	0.8616	0.4804	0.3217	-0.474
Mof_O 	O 	0.734	0.4887	0.6489	-0.288
Mof_O 	O 	0.5587	0.0894	0.6962	-0.137
Mof_O 	O 	0.9205	0.0822	0.6486	-0.466
Mof_O 	O 	0.8616	0.8413	0.5196	-0.475
Mof_O 	O 	0.734	0.1602	0.5113	-0.288
Mof_O 	O 	0.5587	0.6068	0.9106	-0.136
Mof_O 	O 	0.9205	0.5664	0.9178	-0.465
Mof_O 	O 	0.8616	0.6783	0.1587	-0.474
Mof_O 	O 	0.734	0.3511	0.8398	-0.288
Mof_O 	O 	0.4413	0.6962	0.6068	-0.136
Mof_O 	O 	0.0795	0.6486	0.5664	-0.463
Mof_O 	O 	0.1384	0.5196	0.6783	-0.474
Mof_O 	O 	0.266	0.5113	0.3511	-0.288
Mof_O 	O 	0.4413	0.9106	0.3038	-0.137
Mof_O 	O 	0.0795	0.9178	0.3514	-0.466
Mof_O 	O 	0.1384	0.1587	0.4804	-0.475
Mof_O 	O 	0.266	0.8398	0.4887	-0.288
Mof_O 	O 	0.4413	0.3932	0.0894	-0.136
Mof_O 	O 	0.0795	0.4336	0.0822	-0.465
Mof_O 	O 	0.1384	0.3217	0.8413	-0.474
Mof_O 	O 	0.266	0.6489	0.1602	-0.288
_end
