data_functionalizedCrystal
_audit_creation_method	'EQeq! by Chris Wilmer'
_symmetry_space_group_name_H-M	'P1'
_symmetry_Int_Tables_number	1
_symmetry_cell_setting	triclinic
loop_
_symmetry_equiv_pos_as_xyz
  x,y,z
_cell_length_a	10.3923
_cell_length_b	11.2942
_cell_length_c	12.3282
_cell_angle_alpha	98.464
_cell_angle_beta	109.478
_cell_angle_gamma	102.788
loop_
_atom_site_label
_atom_site_type_symbol
_atom_site_fract_x
_atom_site_fract_y
_atom_site_fract_z
_atom_site_charge
Mof_Eu	Eu	0.39329	0.45384	0.82555	2.262
Mof_O 	O 	0.1679	0.2811	0.7461	-0.449
Mof_O 	O 	0.3099	0.2792	0.6507	-0.428
Mof_O 	O 	0.6202	0.4346	0.8159	-0.457
Mof_O 	O 	0.6507	0.517	0.9984	-0.654
Mof_O 	O 	0.4365	0.2788	0.9037	-0.516
Mof_O 	O 	0.5202	0.3249	0.1012	-0.554
Mof_C 	C 	0.1953	0.2307	0.6648	0.341
Mof_C 	C 	0.0959	0.11	0.58	-0.069
Mof_C 	C 	0.1269	0.0516	0.4916	-0.067
Mof_H 	H 	0.2129	0.0862	0.4846	0.096
Mof_C 	C 	0.9665	0.0587	0.5889	0.102
Mof_C 	C 	0.7011	0.4815	0.9223	0.45
Mof_C 	C 	0.8537	0.4894	0.9609	-0.145
Mof_C 	C 	0.906	0.4207	0.8905	0.127
Mof_C 	C 	0.948	0.567	0.0698	-0.052
Mof_H 	H 	0.9132	0.6119	0.1173	0.05
Mof_C 	C 	0.4807	0.2519	0.0006	0.5
Mof_C 	C 	0.49	0.121	0.9974	-0.136
Mof_C 	C 	0.5277	0.0822	0.1028	-0.053
Mof_H 	H 	0.5466	0.1385	0.1732	0.071
Mof_C 	C 	0.4619	0.0367	0.8937	0.122
Mof_C 	C 	0.4365	0.492	0.5605	0.218
Mof_C 	C 	0.541	0.664	0.5783	0.164
Mof_N 	N 	0.907	0.149	0.636	-0.087
Mof_N 	N 	0.442	0.069	0.7806	-0.091
Mof_N 	N 	0.825	0.341	0.789	-0.099
Mof_N 	N 	0.4295	0.5408	0.6649	-0.266
Mof_N 	N 	0.5026	0.6583	0.6723	-0.101
Mof_N 	N 	0.5	0.555	0.497	-0.176
Mof_N 	N 	0.661	0.75	0.57	-0.103
Mof_Eu	Eu	0.60671	0.54616	0.17445	2.262
Mof_O 	O 	0.8321	0.7189	0.2539	-0.449
Mof_O 	O 	0.6901	0.7208	0.3493	-0.428
Mof_O 	O 	0.3798	0.5654	0.1841	-0.457
Mof_O 	O 	0.3493	0.483	0.0016	-0.654
Mof_O 	O 	0.5635	0.7212	0.0963	-0.516
Mof_O 	O 	0.4798	0.6751	0.8988	-0.554
Mof_C 	C 	0.8047	0.7693	0.3352	0.341
Mof_C 	C 	0.9041	0.89	0.42	-0.069
Mof_C 	C 	0.8731	0.9484	0.5084	-0.067
Mof_H 	H 	0.7871	0.9138	0.5154	0.096
Mof_C 	C 	0.0335	0.9413	0.4111	0.102
Mof_C 	C 	0.2989	0.5185	0.0777	0.45
Mof_C 	C 	0.1463	0.5106	0.0391	-0.145
Mof_C 	C 	0.094	0.5793	0.1095	0.127
Mof_C 	C 	0.052	0.433	0.9302	-0.052
Mof_H 	H 	0.0868	0.3881	0.8827	0.05
Mof_C 	C 	0.5193	0.7481	0.9994	0.5
Mof_C 	C 	0.51	0.879	0.0026	-0.136
Mof_C 	C 	0.4723	0.9178	0.8972	-0.053
Mof_H 	H 	0.4534	0.8615	0.8268	0.071
Mof_C 	C 	0.5381	0.9633	0.1063	0.122
Mof_C 	C 	0.5635	0.508	0.4395	0.218
Mof_C 	C 	0.459	0.336	0.4217	0.164
Mof_N 	N 	0.093	0.851	0.364	-0.087
Mof_N 	N 	0.558	0.931	0.2194	-0.091
Mof_N 	N 	0.175	0.659	0.211	-0.099
Mof_N 	N 	0.5705	0.4592	0.3351	-0.266
Mof_N 	N 	0.4974	0.3417	0.3277	-0.101
Mof_N 	N 	0.5	0.445	0.503	-0.176
Mof_N 	N 	0.339	0.25	0.43	-0.103
_end
