data_functionalizedCrystal
_audit_creation_method	'EQeq! by Chris Wilmer'
_symmetry_space_group_name_H-M	'P1'
_symmetry_Int_Tables_number	1
_symmetry_cell_setting	triclinic
loop_
_symmetry_equiv_pos_as_xyz
  x,y,z
_cell_length_a	14.237
_cell_length_b	15.739
_cell_length_c	16.611
_cell_angle_alpha	90
_cell_angle_beta	90
_cell_angle_gamma	90
loop_
_atom_site_label
_atom_site_type_symbol
_atom_site_fract_x
_atom_site_fract_y
_atom_site_fract_z
_atom_site_charge
Mof_La	La	0.10856	0.75	0.75	2.468
Mof_La	La	0.39144	0.25	0.25	2.473
Mof_La	La	0.89144	0.25	0.25	2.468
Mof_La	La	0.60856	0.75	0.75	2.473
Mof_Ni	Ni	0.28742	0.55995	0.88401	1.108
Mof_Ni	Ni	0.28742	0.94005	0.61599	1.107
Mof_Ni	Ni	0.21258	0.44005	0.38401	1.107
Mof_Ni	Ni	0.21258	0.05995	0.11599	1.107
Mof_Ni	Ni	0.71258	0.44005	0.11599	1.107
Mof_Ni	Ni	0.71258	0.05995	0.38401	1.106
Mof_Ni	Ni	0.78742	0.55995	0.61599	1.107
Mof_Ni	Ni	0.78742	0.94005	0.88401	1.107
Mof_H 	H 	0.0962	0.7347	0.5704	0.327
Mof_H 	H 	0.0075	0.7728	0.5928	0.369
Mof_H 	H 	0.2984	0.7578	0.6654	0.413
Mof_H 	H 	0.2462	0.6921	0.6233	0.399
Mof_H 	H 	0.2243	0.4602	0.6882	0.143
Mof_H 	H 	0.1809	0.4359	0.7722	0.136
Mof_H 	H 	0.4285	0.4988	0.7162	0.158
Mof_H 	H 	0.3435	0.5476	0.6783	0.17
Mof_H 	H 	0.3032	0.3719	0.8333	0.069
Mof_H 	H 	0.3793	0.377	0.7649	0.073
Mof_H 	H 	0.4778	0.4585	0.8474	0.058
Mof_H 	H 	0.4523	0.3747	0.8936	0.058
Mof_H 	H 	0.3573	0.3669	0.9933	0.117
Mof_H 	H 	0.3511	0.4441	0.0524	0.135
Mof_H 	H 	0.4904	0.5655	0.9429	0.065
Mof_H 	H 	0.4329	0.561	0.0231	0.051
Mof_H 	H 	0.0962	0.7653	0.9296	0.326
Mof_H 	H 	0.0075	0.7272	0.9072	0.368
Mof_H 	H 	0.2984	0.7422	0.8346	0.413
Mof_H 	H 	0.2462	0.8079	0.8767	0.399
Mof_H 	H 	0.2243	0.0398	0.8118	0.142
Mof_H 	H 	0.1809	0.0641	0.7278	0.135
Mof_H 	H 	0.4285	0.0012	0.7838	0.162
Mof_H 	H 	0.3435	0.9524	0.8217	0.171
Mof_H 	H 	0.3032	0.1281	0.6667	0.07
Mof_H 	H 	0.3793	0.123	0.7351	0.073
Mof_H 	H 	0.4778	0.0415	0.6526	0.058
Mof_H 	H 	0.4523	0.1253	0.6064	0.058
Mof_H 	H 	0.3573	0.1331	0.5067	0.116
Mof_H 	H 	0.3511	0.0559	0.4476	0.134
Mof_H 	H 	0.4904	0.9345	0.5571	0.065
Mof_H 	H 	0.4329	0.939	0.4769	0.05
Mof_H 	H 	0.4038	0.2653	0.0704	0.327
Mof_H 	H 	0.4925	0.2272	0.0928	0.37
Mof_H 	H 	0.2016	0.2422	0.1654	0.413
Mof_H 	H 	0.2538	0.3079	0.1233	0.399
Mof_H 	H 	0.2757	0.5398	0.1882	0.143
Mof_H 	H 	0.3191	0.5641	0.2722	0.136
Mof_H 	H 	0.0715	0.5012	0.2162	0.159
Mof_H 	H 	0.1565	0.4524	0.1783	0.171
Mof_H 	H 	0.1968	0.6281	0.3333	0.069
Mof_H 	H 	0.1207	0.623	0.2649	0.073
Mof_H 	H 	0.0222	0.5415	0.3474	0.059
Mof_H 	H 	0.0477	0.6253	0.3936	0.058
Mof_H 	H 	0.1427	0.6331	0.4933	0.116
Mof_H 	H 	0.1489	0.5559	0.5524	0.134
Mof_H 	H 	0.0096	0.4345	0.4429	0.066
Mof_H 	H 	0.0671	0.439	0.5231	0.05
Mof_H 	H 	0.4038	0.2347	0.4296	0.327
Mof_H 	H 	0.4925	0.2728	0.4072	0.37
Mof_H 	H 	0.2016	0.2578	0.3346	0.413
Mof_H 	H 	0.2538	0.1921	0.3767	0.399
Mof_H 	H 	0.2757	0.9602	0.3118	0.142
Mof_H 	H 	0.3191	0.9359	0.2278	0.136
Mof_H 	H 	0.0715	0.9988	0.2838	0.156
Mof_H 	H 	0.1565	0.0476	0.3217	0.169
Mof_H 	H 	0.1968	0.8719	0.1667	0.069
Mof_H 	H 	0.1207	0.877	0.2351	0.073
Mof_H 	H 	0.0222	0.9585	0.1526	0.058
Mof_H 	H 	0.0477	0.8747	0.1064	0.058
Mof_H 	H 	0.1427	0.8669	0.0067	0.115
Mof_H 	H 	0.1489	0.9441	0.9476	0.128
Mof_H 	H 	0.0096	0.0655	0.0571	0.066
Mof_H 	H 	0.0671	0.061	0.9769	0.05
Mof_H 	H 	0.9038	0.2653	0.4296	0.327
Mof_H 	H 	0.9925	0.2272	0.4072	0.369
Mof_H 	H 	0.7016	0.2422	0.3346	0.413
Mof_H 	H 	0.7538	0.3079	0.3767	0.399
Mof_H 	H 	0.7757	0.5398	0.3118	0.143
Mof_H 	H 	0.8191	0.5641	0.2278	0.136
Mof_H 	H 	0.5715	0.5012	0.2838	0.158
Mof_H 	H 	0.6565	0.4524	0.3217	0.17
Mof_H 	H 	0.6968	0.6281	0.1667	0.069
Mof_H 	H 	0.6207	0.623	0.2351	0.073
Mof_H 	H 	0.5222	0.5415	0.1526	0.058
Mof_H 	H 	0.5477	0.6253	0.1064	0.058
Mof_H 	H 	0.6427	0.6331	0.0067	0.117
Mof_H 	H 	0.6489	0.5559	0.9476	0.135
Mof_H 	H 	0.5096	0.4345	0.0571	0.065
Mof_H 	H 	0.5671	0.439	0.9769	0.051
Mof_H 	H 	0.9038	0.2347	0.0704	0.326
Mof_H 	H 	0.9925	0.2728	0.0928	0.368
Mof_H 	H 	0.7016	0.2578	0.1654	0.413
Mof_H 	H 	0.7538	0.1921	0.1233	0.399
Mof_H 	H 	0.7757	0.9602	0.1882	0.142
Mof_H 	H 	0.8191	0.9359	0.2722	0.135
Mof_H 	H 	0.5715	0.9988	0.2162	0.162
Mof_H 	H 	0.6565	0.0476	0.1783	0.171
Mof_H 	H 	0.6968	0.8719	0.3333	0.07
Mof_H 	H 	0.6207	0.877	0.2649	0.073
Mof_H 	H 	0.5222	0.9585	0.3474	0.058
Mof_H 	H 	0.5477	0.8747	0.3936	0.058
Mof_H 	H 	0.6427	0.8669	0.4933	0.116
Mof_H 	H 	0.6489	0.9441	0.5524	0.134
Mof_H 	H 	0.5096	0.0655	0.4429	0.065
Mof_H 	H 	0.5671	0.061	0.5231	0.05
Mof_H 	H 	0.5962	0.7347	0.9296	0.327
Mof_H 	H 	0.5075	0.7728	0.9072	0.37
Mof_H 	H 	0.7984	0.7578	0.8346	0.413
Mof_H 	H 	0.7462	0.6921	0.8767	0.399
Mof_H 	H 	0.7243	0.4602	0.8118	0.143
Mof_H 	H 	0.6809	0.4359	0.7278	0.136
Mof_H 	H 	0.9285	0.4988	0.7838	0.159
Mof_H 	H 	0.8435	0.5476	0.8217	0.171
Mof_H 	H 	0.8032	0.3719	0.6667	0.069
Mof_H 	H 	0.8793	0.377	0.7351	0.073
Mof_H 	H 	0.9778	0.4585	0.6526	0.059
Mof_H 	H 	0.9523	0.3747	0.6064	0.058
Mof_H 	H 	0.8573	0.3669	0.5067	0.116
Mof_H 	H 	0.8511	0.4441	0.4476	0.134
Mof_H 	H 	0.9904	0.5655	0.5571	0.066
Mof_H 	H 	0.9329	0.561	0.4769	0.05
Mof_H 	H 	0.5962	0.7653	0.5704	0.327
Mof_H 	H 	0.5075	0.7272	0.5928	0.37
Mof_H 	H 	0.7984	0.7422	0.6654	0.413
Mof_H 	H 	0.7462	0.8079	0.6233	0.399
Mof_H 	H 	0.7243	0.0398	0.6882	0.142
Mof_H 	H 	0.6809	0.0641	0.7722	0.136
Mof_H 	H 	0.9285	0.0012	0.7162	0.156
Mof_H 	H 	0.8435	0.9524	0.6783	0.169
Mof_H 	H 	0.8032	0.1281	0.8333	0.069
Mof_H 	H 	0.8793	0.123	0.7649	0.073
Mof_H 	H 	0.9778	0.0415	0.8474	0.058
Mof_H 	H 	0.9523	0.1253	0.8936	0.058
Mof_H 	H 	0.8573	0.1331	0.9933	0.115
Mof_H 	H 	0.8511	0.0559	0.0524	0.128
Mof_H 	H 	0.9904	0.9345	0.9429	0.066
Mof_H 	H 	0.9329	0.939	0.0231	0.05
Mof_C 	C 	0.168	0.5633	0.7471	0.405
Mof_C 	C 	0.2174	0.4784	0.7437	-0.352
Mof_C 	C 	0.3753	0.5351	0.7286	-0.405
Mof_C 	C 	0.4117	0.6172	0.7636	0.5
Mof_C 	C 	0.3515	0.4075	0.8097	-0.128
Mof_C 	C 	0.4269	0.4274	0.8727	-0.093
Mof_C 	C 	0.336	0.4252	0.9984	-0.322
Mof_C 	C 	0.2298	0.4274	0.9875	0.353
Mof_C 	C 	0.4618	0.5269	0.9812	-0.084
Mof_C 	C 	0.2331	0.6587	0.029	0.107
Mof_C 	C 	0.168	0.9367	0.7529	0.402
Mof_C 	C 	0.2174	0.0216	0.7563	-0.348
Mof_C 	C 	0.3753	0.9649	0.7714	-0.411
Mof_C 	C 	0.4117	0.8828	0.7364	0.502
Mof_C 	C 	0.3515	0.0925	0.6903	-0.128
Mof_C 	C 	0.4269	0.0726	0.6273	-0.093
Mof_C 	C 	0.336	0.0748	0.5016	-0.321
Mof_C 	C 	0.2298	0.0726	0.5125	0.355
Mof_C 	C 	0.4618	0.9731	0.5188	-0.084
Mof_C 	C 	0.2331	0.8413	0.471	0.103
Mof_C 	C 	0.332	0.4367	0.2471	0.406
Mof_C 	C 	0.2826	0.5216	0.2437	-0.352
Mof_C 	C 	0.1247	0.4649	0.2286	-0.405
Mof_C 	C 	0.0883	0.3828	0.2636	0.5
Mof_C 	C 	0.1485	0.5925	0.3097	-0.128
Mof_C 	C 	0.0731	0.5726	0.3727	-0.093
Mof_C 	C 	0.164	0.5748	0.4984	-0.321
Mof_C 	C 	0.2702	0.5726	0.4875	0.355
Mof_C 	C 	0.0382	0.4731	0.4812	-0.084
Mof_C 	C 	0.2669	0.3413	0.529	0.103
Mof_C 	C 	0.332	0.0633	0.2529	0.406
Mof_C 	C 	0.2826	0.9784	0.2563	-0.352
Mof_C 	C 	0.1247	0.0351	0.2714	-0.399
Mof_C 	C 	0.0883	0.1172	0.2364	0.499
Mof_C 	C 	0.1485	0.9075	0.1903	-0.128
Mof_C 	C 	0.0731	0.9274	0.1273	-0.094
Mof_C 	C 	0.164	0.9252	0.0016	-0.313
Mof_C 	C 	0.2702	0.9274	0.0125	0.357
Mof_C 	C 	0.0382	0.0269	0.0188	-0.081
Mof_C 	C 	0.2669	0.1587	0.971	0.104
Mof_C 	C 	0.832	0.4367	0.2529	0.405
Mof_C 	C 	0.7826	0.5216	0.2563	-0.352
Mof_C 	C 	0.6247	0.4649	0.2714	-0.405
Mof_C 	C 	0.5883	0.3828	0.2364	0.5
Mof_C 	C 	0.6485	0.5925	0.1903	-0.128
Mof_C 	C 	0.5731	0.5726	0.1273	-0.093
Mof_C 	C 	0.664	0.5748	0.0016	-0.322
Mof_C 	C 	0.7702	0.5726	0.0125	0.353
Mof_C 	C 	0.5382	0.4731	0.0188	-0.084
Mof_C 	C 	0.7669	0.3413	0.971	0.107
Mof_C 	C 	0.832	0.0633	0.2471	0.402
Mof_C 	C 	0.7826	0.9784	0.2437	-0.348
Mof_C 	C 	0.6247	0.0351	0.2286	-0.411
Mof_C 	C 	0.5883	0.1172	0.2636	0.502
Mof_C 	C 	0.6485	0.9075	0.3097	-0.128
Mof_C 	C 	0.5731	0.9274	0.3727	-0.093
Mof_C 	C 	0.664	0.9252	0.4984	-0.321
Mof_C 	C 	0.7702	0.9274	0.4875	0.355
Mof_C 	C 	0.5382	0.0269	0.4812	-0.084
Mof_C 	C 	0.7669	0.1587	0.529	0.103
Mof_C 	C 	0.668	0.5633	0.7529	0.406
Mof_C 	C 	0.7174	0.4784	0.7563	-0.352
Mof_C 	C 	0.8753	0.5351	0.7714	-0.405
Mof_C 	C 	0.9117	0.6172	0.7364	0.5
Mof_C 	C 	0.8515	0.4075	0.6903	-0.128
Mof_C 	C 	0.9269	0.4274	0.6273	-0.093
Mof_C 	C 	0.836	0.4252	0.5016	-0.321
Mof_C 	C 	0.7298	0.4274	0.5125	0.355
Mof_C 	C 	0.9618	0.5269	0.5188	-0.084
Mof_C 	C 	0.7331	0.6587	0.471	0.103
Mof_C 	C 	0.668	0.9367	0.7471	0.406
Mof_C 	C 	0.7174	0.0216	0.7437	-0.352
Mof_C 	C 	0.8753	0.9649	0.7286	-0.399
Mof_C 	C 	0.9117	0.8828	0.7636	0.499
Mof_C 	C 	0.8515	0.0925	0.8097	-0.128
Mof_C 	C 	0.9269	0.0726	0.8727	-0.094
Mof_C 	C 	0.836	0.0748	0.9984	-0.313
Mof_C 	C 	0.7298	0.0726	0.9875	0.357
Mof_C 	C 	0.9618	0.9731	0.9812	-0.081
Mof_C 	C 	0.7331	0.8413	0.029	0.104
Mof_S 	S 	0.1855	0.7028	0.1162	-0.091
Mof_S 	S 	0.1855	0.7972	0.3838	-0.092
Mof_S 	S 	0.3145	0.2972	0.6162	-0.091
Mof_S 	S 	0.3145	0.2028	0.8838	-0.091
Mof_S 	S 	0.8145	0.2972	0.8838	-0.091
Mof_S 	S 	0.8145	0.2028	0.6162	-0.092
Mof_S 	S 	0.6855	0.7028	0.3838	-0.091
Mof_S 	S 	0.6855	0.7972	0.1162	-0.091
Mof_N 	N 	0.3101	0.4876	0.7812	-0.093
Mof_N 	N 	0.3882	0.4784	0.9399	-0.138
Mof_N 	N 	0.2673	0.6345	0.9754	-0.282
Mof_N 	N 	0.3101	0.0124	0.7188	-0.092
Mof_N 	N 	0.3882	0.0216	0.5601	-0.137
Mof_N 	N 	0.2673	0.8655	0.5246	-0.279
Mof_N 	N 	0.1899	0.5124	0.2812	-0.093
Mof_N 	N 	0.1118	0.5216	0.4399	-0.138
Mof_N 	N 	0.2327	0.3655	0.4754	-0.279
Mof_N 	N 	0.1899	0.9876	0.2188	-0.094
Mof_N 	N 	0.1118	0.9784	0.0601	-0.139
Mof_N 	N 	0.2327	0.1345	0.0246	-0.279
Mof_N 	N 	0.6899	0.5124	0.2188	-0.093
Mof_N 	N 	0.6118	0.5216	0.0601	-0.138
Mof_N 	N 	0.7327	0.3655	0.0246	-0.282
Mof_N 	N 	0.6899	0.9876	0.2812	-0.092
Mof_N 	N 	0.6118	0.9784	0.4399	-0.137
Mof_N 	N 	0.7327	0.1345	0.4754	-0.279
Mof_N 	N 	0.8101	0.4876	0.7188	-0.093
Mof_N 	N 	0.8882	0.4784	0.5601	-0.138
Mof_N 	N 	0.7673	0.6345	0.5246	-0.279
Mof_N 	N 	0.8101	0.0124	0.7812	-0.094
Mof_N 	N 	0.8882	0.0216	0.9399	-0.139
Mof_N 	N 	0.7673	0.8655	0.9754	-0.279
Mof_O 	O 	0.1828	0.61	0.8087	-0.559
Mof_O 	O 	0.1167	0.586	0.6907	-0.415
Mof_O 	O 	0.3851	0.6385	0.8334	-0.476
Mof_O 	O 	0.4682	0.6582	0.7216	-0.507
Mof_O 	O 	0.1948	0.4733	0.9317	-0.396
Mof_O 	O 	0.1825	0.3836	0.0355	-0.302
Mof_O 	O 	0.0502	0.7368	0.6037	-0.862
Mof_O 	O 	0.2588	0.718	0.6665	-0.945
Mof_O 	O 	0.1828	0.89	0.6913	-0.558
Mof_O 	O 	0.1167	0.914	0.8093	-0.416
Mof_O 	O 	0.3851	0.8615	0.6666	-0.476
Mof_O 	O 	0.4682	0.8418	0.7784	-0.508
Mof_O 	O 	0.1948	0.0267	0.5683	-0.395
Mof_O 	O 	0.1825	0.1164	0.4645	-0.303
Mof_O 	O 	0.0502	0.7632	0.8963	-0.863
Mof_O 	O 	0.2588	0.782	0.8335	-0.945
Mof_O 	O 	0.3172	0.39	0.3087	-0.559
Mof_O 	O 	0.3833	0.414	0.1907	-0.415
Mof_O 	O 	0.1149	0.3615	0.3334	-0.475
Mof_O 	O 	0.0318	0.3418	0.2216	-0.505
Mof_O 	O 	0.3052	0.5267	0.4317	-0.396
Mof_O 	O 	0.3175	0.6164	0.5355	-0.304
Mof_O 	O 	0.4498	0.2632	0.1037	-0.862
Mof_O 	O 	0.2412	0.282	0.1665	-0.946
Mof_O 	O 	0.3172	0.11	0.1913	-0.559
Mof_O 	O 	0.3833	0.086	0.3093	-0.415
Mof_O 	O 	0.1149	0.1385	0.1666	-0.474
Mof_O 	O 	0.0318	0.1582	0.2784	-0.504
Mof_O 	O 	0.3052	0.9733	0.0683	-0.396
Mof_O 	O 	0.3175	0.8836	0.9645	-0.307
Mof_O 	O 	0.4498	0.2368	0.3963	-0.863
Mof_O 	O 	0.2412	0.218	0.3335	-0.946
Mof_O 	O 	0.8172	0.39	0.1913	-0.559
Mof_O 	O 	0.8833	0.414	0.3093	-0.415
Mof_O 	O 	0.6149	0.3615	0.1666	-0.476
Mof_O 	O 	0.5318	0.3418	0.2784	-0.507
Mof_O 	O 	0.8052	0.5267	0.0683	-0.396
Mof_O 	O 	0.8175	0.6164	0.9645	-0.302
Mof_O 	O 	0.9498	0.2632	0.3963	-0.862
Mof_O 	O 	0.7412	0.282	0.3335	-0.945
Mof_O 	O 	0.8172	0.11	0.3087	-0.558
Mof_O 	O 	0.8833	0.086	0.1907	-0.416
Mof_O 	O 	0.6149	0.1385	0.3334	-0.476
Mof_O 	O 	0.5318	0.1582	0.2216	-0.508
Mof_O 	O 	0.8052	0.9733	0.4317	-0.395
Mof_O 	O 	0.8175	0.8836	0.5355	-0.303
Mof_O 	O 	0.9498	0.2368	0.1037	-0.863
Mof_O 	O 	0.7412	0.218	0.1665	-0.945
Mof_O 	O 	0.6828	0.61	0.6913	-0.559
Mof_O 	O 	0.6167	0.586	0.8093	-0.415
Mof_O 	O 	0.8851	0.6385	0.6666	-0.475
Mof_O 	O 	0.9682	0.6582	0.7784	-0.505
Mof_O 	O 	0.6948	0.4733	0.5683	-0.396
Mof_O 	O 	0.6825	0.3836	0.4645	-0.304
Mof_O 	O 	0.5502	0.7368	0.8963	-0.862
Mof_O 	O 	0.7588	0.718	0.8335	-0.946
Mof_O 	O 	0.6828	0.89	0.8087	-0.559
Mof_O 	O 	0.6167	0.914	0.6907	-0.415
Mof_O 	O 	0.8851	0.8615	0.8334	-0.474
Mof_O 	O 	0.9682	0.8418	0.7216	-0.504
Mof_O 	O 	0.6948	0.0267	0.9317	-0.396
Mof_O 	O 	0.6825	0.1164	0.0355	-0.307
Mof_O 	O 	0.5502	0.7632	0.6037	-0.863
Mof_O 	O 	0.7588	0.782	0.6665	-0.946
_end
