data_functionalizedCrystal
_audit_creation_method	'EQeq! by Chris Wilmer'
_symmetry_space_group_name_H-M	'P1'
_symmetry_Int_Tables_number	1
_symmetry_cell_setting	triclinic
loop_
_symmetry_equiv_pos_as_xyz
  x,y,z
_cell_length_a	9.8401
_cell_length_b	10.0517
_cell_length_c	18.0642
_cell_angle_alpha	90.221
_cell_angle_beta	93.857
_cell_angle_gamma	113.891
loop_
_atom_site_label
_atom_site_type_symbol
_atom_site_fract_x
_atom_site_fract_y
_atom_site_fract_z
_atom_site_charge
Mof_Ce	Ce	0.50731	0.27658	0.49638	2.616
Mof_O 	O 	0.5737	0.1618	0.60313	-0.671
Mof_O 	O 	0.4364	0.4125	0.58596	-0.677
Mof_O 	O 	0.5581	0.9391	0.58213	-0.715
Mof_O 	O 	0.3848	0.5993	0.61815	-0.592
Mof_O 	O 	0.3024	0.3095	0.42133	-0.608
Mof_O 	O 	0.2679	0.509	0.45344	-0.597
Mof_C 	C 	0.3999	0.4839	0.6327	0.551
Mof_C 	C 	0.8802	0.125	0.9654	-0.11
Mof_C 	C 	0.735	0.001	0.9364	-0.203
Mof_H 	H 	0.7469	0.9102	0.941	0.076
Mof_H 	H 	0.6572	0.9969	0.9678	0.068
Mof_C 	C 	0.0775	0.4228	0.1854	0.176
Mof_C 	C 	0.3176	0.4914	0.7599	0.176
Mof_H 	H 	0.2976	0.5714	0.7466	-0.035
Mof_C 	C 	0.1904	0.4095	0.331	-0.27
Mof_C 	C 	0.4075	0.312	0.7312	0.192
Mof_H 	H 	0.4474	0.269	0.6982	-0.056
Mof_C 	C 	0.5758	0.0435	0.6239	0.617
Mof_C 	C 	0.2139	0.3321	0.2732	0.168
Mof_H 	H 	0.2666	0.2745	0.2826	-0.034
Mof_C 	C 	0.3823	0.26	0.802	-0.277
Mof_H 	H 	0.4076	0.1837	0.8162	0.111
Mof_C 	C 	0.7147	0.1457	0.8246	-0.269
Mof_H 	H 	0.7628	0.2306	0.8537	0.115
Mof_C 	C 	0.3198	0.3195	0.8522	0.181
Mof_C 	C 	0.3739	0.4276	0.7093	-0.289
Mof_C 	C 	0.2904	0.4375	0.8304	-0.265
Mof_H 	H 	0.2518	0.4815	0.8636	0.105
Mof_C 	C 	0.6052	0.0308	0.7059	-0.314
Mof_C 	C 	0.6072	0.8885	0.8123	-0.28
Mof_H 	H 	0.5803	0.7979	0.8333	0.108
Mof_C 	C 	0.6838	0.0125	0.8562	0.184
Mof_C 	C 	0.2985	0.4767	0.0396	-0.636
Mof_H 	H 	0.3605	0.4396	0.0682	0.206
Mof_H 	H 	0.2804	0.5463	0.0694	0.21
Mof_H 	H 	0.3477	0.523	0.9967	0.198
Mof_C 	C 	0.0122	0.1402	0.9347	0.198
Mof_C 	C 	0.2908	0.2594	0.929	-0.213
Mof_H 	H 	0.377	0.316	0.96	0.074
Mof_C 	C 	0.6753	0.155	0.7505	0.193
Mof_H 	H 	0.6962	0.2458	0.7306	-0.036
Mof_C 	C 	0.1068	0.4902	0.3158	0.179
Mof_H 	H 	0.0884	0.5412	0.3541	-0.047
Mof_C 	C 	0.1474	0.2519	0.9598	-0.112
Mof_C 	C 	0.1588	0.3402	0.2012	-0.252
Mof_H 	H 	0.1769	0.2891	0.1629	0.106
Mof_C 	C 	0.5691	0.8959	0.7372	0.195
Mof_H 	H 	0.5197	0.811	0.7082	-0.047
Mof_C 	C 	0.7455	0.1947	0.0632	-0.621
Mof_H 	H 	0.6853	0.2343	0.0349	0.194
Mof_H 	H 	0.7736	0.242	0.1115	0.202
Mof_H 	H 	0.6896	0.0922	0.0682	0.196
Mof_C 	C 	0.8849	0.2196	0.0234	0.153
Mof_C 	C 	0.0237	0.4428	0.1067	-0.206
Mof_H 	H 	0.9239	0.439	0.1081	0.076
Mof_H 	H 	0.0873	0.5396	0.092	0.079
Mof_C 	C 	0.2585	0.4086	0.4078	0.527
Mof_C 	C 	0.0507	0.4954	0.2444	-0.259
Mof_H 	H 	0.9935	0.5489	0.2356	0.109
Mof_C 	C 	0.0201	0.3354	0.047	-0.101
Mof_C 	C 	0.0081	0.033	0.8749	-0.677
Mof_H 	H 	0.0519	0.9699	0.895	0.222
Mof_H 	H 	0.0632	0.0848	0.8347	0.229
Mof_H 	H 	0.9066	0.976	0.8571	0.23
Mof_C 	C 	0.1511	0.3521	0.015	0.171
Mof_H 	H 	0.293	0.164	0.927	0.076
Mof_Ce	Ce	0.49269	0.72342	0.50362	2.617
Mof_O 	O 	0.4263	0.8382	0.39687	-0.67
Mof_O 	O 	0.5636	0.5875	0.41404	-0.676
Mof_O 	O 	0.4419	0.0609	0.41787	-0.714
Mof_O 	O 	0.6152	0.4007	0.38185	-0.592
Mof_O 	O 	0.6976	0.6905	0.57867	-0.608
Mof_O 	O 	0.7321	0.491	0.54656	-0.597
Mof_C 	C 	0.6001	0.5161	0.3673	0.551
Mof_C 	C 	0.1198	0.875	0.0346	-0.11
Mof_C 	C 	0.265	0.999	0.0636	-0.203
Mof_H 	H 	0.2531	0.0898	0.059	0.076
Mof_H 	H 	0.3428	0.0031	0.0322	0.068
Mof_C 	C 	0.9225	0.5772	0.8146	0.176
Mof_C 	C 	0.6824	0.5086	0.2401	0.176
Mof_H 	H 	0.7024	0.4286	0.2534	-0.035
Mof_C 	C 	0.8096	0.5905	0.669	-0.27
Mof_C 	C 	0.5925	0.688	0.2688	0.192
Mof_H 	H 	0.5526	0.731	0.3018	-0.056
Mof_C 	C 	0.4242	0.9565	0.3761	0.617
Mof_C 	C 	0.7861	0.6679	0.7268	0.168
Mof_H 	H 	0.7334	0.7255	0.7174	-0.034
Mof_C 	C 	0.6177	0.74	0.198	-0.277
Mof_H 	H 	0.5924	0.8163	0.1838	0.111
Mof_C 	C 	0.2853	0.8543	0.1754	-0.269
Mof_H 	H 	0.2372	0.7694	0.1463	0.115
Mof_C 	C 	0.6802	0.6805	0.1478	0.181
Mof_C 	C 	0.6261	0.5724	0.2907	-0.289
Mof_C 	C 	0.7096	0.5625	0.1696	-0.265
Mof_H 	H 	0.7482	0.5185	0.1364	0.105
Mof_C 	C 	0.3948	0.9692	0.2941	-0.314
Mof_C 	C 	0.3928	0.1115	0.1877	-0.28
Mof_H 	H 	0.4197	0.2021	0.1667	0.108
Mof_C 	C 	0.3162	0.9875	0.1438	0.184
Mof_C 	C 	0.7015	0.5233	0.9604	-0.636
Mof_H 	H 	0.6395	0.5604	0.9318	0.206
Mof_H 	H 	0.7196	0.4537	0.9306	0.21
Mof_H 	H 	0.6523	0.477	0.0033	0.198
Mof_C 	C 	0.9878	0.8598	0.0653	0.198
Mof_C 	C 	0.7092	0.7406	0.071	-0.213
Mof_H 	H 	0.623	0.684	0.04	0.074
Mof_C 	C 	0.3247	0.845	0.2495	0.193
Mof_H 	H 	0.3038	0.7542	0.2694	-0.036
Mof_C 	C 	0.8932	0.5098	0.6842	0.179
Mof_H 	H 	0.9116	0.4588	0.6459	-0.047
Mof_C 	C 	0.8526	0.7481	0.0402	-0.112
Mof_C 	C 	0.8412	0.6598	0.7988	-0.252
Mof_H 	H 	0.8231	0.7109	0.8371	0.106
Mof_C 	C 	0.4309	0.1041	0.2628	0.195
Mof_H 	H 	0.4803	0.189	0.2918	-0.047
Mof_C 	C 	0.2545	0.8053	0.9368	-0.621
Mof_H 	H 	0.3147	0.7657	0.9651	0.194
Mof_H 	H 	0.2264	0.758	0.8885	0.202
Mof_H 	H 	0.3104	0.9078	0.9318	0.196
Mof_C 	C 	0.1151	0.7804	0.9766	0.153
Mof_C 	C 	0.9763	0.5572	0.8933	-0.206
Mof_H 	H 	0.0761	0.561	0.8919	0.076
Mof_H 	H 	0.9127	0.4604	0.908	0.079
Mof_C 	C 	0.7415	0.5914	0.5922	0.527
Mof_C 	C 	0.9493	0.5046	0.7556	-0.259
Mof_H 	H 	0.0065	0.4511	0.7644	0.109
Mof_C 	C 	0.9799	0.6646	0.953	-0.101
Mof_C 	C 	0.9919	0.967	0.1251	-0.677
Mof_H 	H 	0.9481	0.0301	0.105	0.222
Mof_H 	H 	0.9368	0.9152	0.1653	0.229
Mof_H 	H 	0.0934	0.024	0.1429	0.23
Mof_C 	C 	0.8489	0.6479	0.985	0.171
Mof_H 	H 	0.707	0.836	0.073	0.076
_end
