data_functionalizedCrystal
_audit_creation_method	'EQeq! by Chris Wilmer'
_symmetry_space_group_name_H-M	'P1'
_symmetry_Int_Tables_number	1
_symmetry_cell_setting	triclinic
loop_
_symmetry_equiv_pos_as_xyz
  x,y,z
_cell_length_a	15.2561
_cell_length_b	15.2561
_cell_length_c	28.086
_cell_angle_alpha	91.1105
_cell_angle_beta	91.1105
_cell_angle_gamma	36.6965
loop_
_atom_site_label
_atom_site_type_symbol
_atom_site_fract_x
_atom_site_fract_y
_atom_site_fract_z
_atom_site_charge
Mof_Bi	Bi	0.56274	0.62944	0.03869	1.306
Mof_Bi	Bi	0.75792	0.67495	0.01576	1.124
Mof_Bi	Bi	0.44929	0.61663	0.14446	0.773
Mof_O 	O 	0.64527	0.9543	0.0303	-0.258
Mof_O 	O 	0.55631	0.88883	0.0435	-0.371
Mof_O 	O 	0.1847	0.24936	0.10334	-0.228
Mof_O 	O 	0.12726	0.35236	0.03261	-0.344
Mof_O 	O 	0.03724	0.55701	0.11302	-0.238
Mof_O 	O 	0.15887	0.58267	0.10743	-0.328
Mof_O 	O 	0.36899	0.26378	0.03767	-0.367
Mof_O 	O 	0.62793	0.54183	0.11045	-0.499
Mof_O 	O 	0.70068	0.62532	0.12247	-0.344
Mof_O 	O 	0.3864	0.76046	0.20062	-0.291
Mof_O 	O 	0.4938	0.78533	0.24273	-0.223
Mof_O 	O 	0.54608	0.57455	0.34724	-1.282
Mof_O 	O 	0.54321	0.48657	0.2877	-0.27
Mof_O 	O 	0.59681	0.49786	0.20426	-0.128
Mof_O 	O 	0.7478	0.54374	0.00614	-0.544
Mof_O 	O 	0.98116	0.34634	0.97946	-0.296
Mof_O 	O 	0.5579	0.56371	0.96831	-1.019
Mof_O 	O 	0.73753	0.35803	0.92332	-0.476
Mof_O 	O 	0.64007	0.2674	0.95514	-0.54
Mof_O 	O 	0.66365	0.19528	0.02581	-1.462
Mof_O 	O 	0.66621	0.42012	0.04409	-0.733
Mof_O 	O 	0.65228	0.38556	0.14396	-0.988
Mof_C 	C 	0.56533	0.97148	0.05357	0.343
Mof_C 	C 	0.48175	0.0774	0.09464	-0.225
Mof_H 	H 	0.55774	0.06165	0.1141	0.061
Mof_H 	H 	0.45595	0.04555	0.12016	0.085
Mof_C 	C 	0.34045	0.24017	0.07955	0.107
Mof_C 	C 	0.21585	0.27636	0.07243	0.232
Mof_C 	C 	0.30091	0.33841	0.11998	-0.13
Mof_H 	H 	0.29409	0.30973	0.15454	0.042
Mof_H 	H 	0.39077	0.31547	0.12358	-0.2
Mof_C 	C 	0.15873	0.50034	0.1123	0.288
Mof_C 	C 	0.69163	0.55883	0.13833	0.356
Mof_C 	C 	0.75338	0.49288	0.18769	-0.226
Mof_H 	H 	0.7971	0.52011	0.20341	0.089
Mof_H 	H 	0.84694	0.37155	0.18404	0.08
Mof_C 	C 	0.63917	0.54583	0.2216	0.117
Mof_C 	C 	0.50427	0.70552	0.22261	0.231
Mof_C 	C 	0.69924	0.48514	0.27287	-0.197
Mof_H 	H 	0.71896	0.53367	0.29099	0.024
Mof_H 	H 	0.80589	0.36449	0.27106	-0.003
Mof_C 	C 	0.59508	0.51423	0.30206	0.253
Mof_C 	C 	0.8805	0.39219	0.00036	0.381
Mof_C 	C 	0.90076	0.28347	0.01735	-0.266
Mof_H 	H 	0.92296	0.26856	0.05632	0.058
Mof_H 	H 	0.00145	0.17542	0.00042	0.086
Mof_C 	C 	0.76783	0.32847	0.0073	0.225
Mof_C 	C 	0.68881	0.41448	0.96271	0.267
Mof_C 	C 	0.82221	0.18863	0.0056	-0.475
Mof_H 	H 	0.90416	0.11729	0.97693	0.099
Mof_H 	H 	0.87427	0.13198	0.04037	-0.097
Mof_C 	C 	0.70765	0.21244	0.99453	0.516
Mof_O 	O 	0.23192	0.957	0.87784	-1.141
Mof_K 	K 	0.37849	0.71587	0.895	7.465
Mof_N 	N 	0.93804	0.99651	0.86353	-0.198
Mof_Bi	Bi	0.36564	0.4721	0.45275	1.231
Mof_Bi	Bi	0.20409	0.44376	0.52114	0.852
Mof_Bi	Bi	0.40957	0.56865	0.34727	0.705
Mof_O 	O 	0.20762	0.34259	0.42344	-0.236
Mof_O 	O 	0.04013	0.50369	0.48196	-0.348
Mof_O 	O 	0.77627	0.79992	0.40284	-0.204
Mof_O 	O 	0.71505	0.81751	0.478	-0.314
Mof_O 	O 	0.49113	0.9304	0.39011	-0.192
Mof_O 	O 	0.46025	0.81315	0.39338	-0.298
Mof_O 	O 	0.80187	0.57687	0.46297	-0.411
Mof_O 	O 	0.40932	0.43742	0.37612	-0.441
Mof_O 	O 	0.21113	0.50507	0.36978	-0.308
Mof_O 	O 	0.22564	0.72294	0.29942	-0.297
Mof_O 	O 	0.09623	0.7265	0.25638	-0.233
Mof_O 	O 	0.53044	0.42629	0.16755	-1.099
Mof_O 	O 	0.30695	0.63774	0.17808	-0.366
Mof_O 	O 	0.46845	0.44512	0.28483	-0.176
Mof_O 	O 	0.38761	0.32204	0.4759	-0.507
Mof_O 	O 	0.5464	0.10964	0.51772	-0.263
Mof_O 	O 	0.42977	0.46702	0.52479	-1.054
Mof_O 	O 	0.60948	0.26894	0.57212	-0.507
Mof_O 	O 	0.74213	0.33188	0.54055	-0.548
Mof_O 	O 	0.85418	0.26626	0.47333	-1.429
Mof_O 	O 	0.58835	0.33237	0.45147	-0.76
Mof_O 	O 	0.61907	0.34626	0.36085	-1.165
Mof_C 	C 	0.08041	0.4406	0.4366	0.322
Mof_C 	C 	0.96737	0.49297	0.40316	-0.209
Mof_H 	H 	0.99759	0.3993	0.39547	0.07
Mof_H 	H 	0.97435	0.52317	0.36909	0.089
Mof_C 	C 	0.80836	0.62451	0.42226	0.118
Mof_C 	C 	0.76665	0.75201	0.4334	0.222
Mof_C 	C 	0.70657	0.6668	0.38261	-0.134
Mof_H 	H 	0.73357	0.67406	0.34768	0.055
Mof_H 	H 	0.72838	0.57774	0.37913	-0.181
Mof_C 	C 	0.5452	0.81031	0.39015	0.285
Mof_C 	C 	0.31542	0.45551	0.35024	0.335
Mof_C 	C 	0.34054	0.41481	0.29814	-0.235
Mof_H 	H 	0.25158	0.44269	0.28407	0.094
Mof_H 	H 	0.4455	0.29399	0.29494	0.088
Mof_C 	C 	0.34871	0.49159	0.26834	0.129
Mof_C 	C 	0.21362	0.65453	0.27404	0.225
Mof_C 	C 	0.37239	0.44909	0.2149	-0.198
Mof_H 	H 	0.27666	0.48905	0.20026	0.033
Mof_H 	H 	0.47021	0.32758	0.21134	-0.036
Mof_C 	C 	0.39779	0.50913	0.18566	0.249
Mof_C 	C 	0.52981	0.18507	0.49154	0.343
Mof_C 	C 	0.66545	0.12703	0.4768	-0.267
Mof_H 	H 	0.68083	0.10481	0.43786	0.076
Mof_H 	H 	0.763	0.0197	0.49456	0.081
Mof_C 	C 	0.65804	0.233	0.48886	0.217
Mof_C 	C 	0.56787	0.3222	0.5324	0.274
Mof_C 	C 	0.81362	0.14782	0.49491	-0.402
Mof_H 	H 	0.87112	0.07008	0.52502	0.07
Mof_H 	H 	0.87618	0.0838	0.46179	-0.017
Mof_C 	C 	0.80938	0.24889	0.50416	0.503
Mof_O 	O 	0.04354	0.75797	0.6113	-1.155
Mof_K 	K 	0.27502	0.63821	0.59861	7.344
Mof_N 	N 	0.02284	0.10224	0.6217	-0.25
Mof_Bi	Bi	0.42496	0.39025	0.95336	1.253
Mof_Bi	Bi	0.22404	0.35031	0.97859	1.071
Mof_Bi	Bi	0.54148	0.40144	0.8462	0.703
Mof_O 	O 	0.32023	0.08079	0.96711	-0.272
Mof_O 	O 	0.42225	0.13202	0.95276	-0.376
Mof_O 	O 	0.76623	0.80493	0.89145	-0.22
Mof_O 	O 	0.8389	0.69094	0.96111	-0.352
Mof_O 	O 	0.93827	0.4828	0.88195	-0.237
Mof_O 	O 	0.83227	0.43944	0.8869	-0.296
Mof_O 	O 	0.60853	0.76183	0.95849	-0.362
Mof_O 	O 	0.36799	0.46771	0.88037	-0.5
Mof_O 	O 	0.30944	0.37022	0.86968	-0.347
Mof_O 	O 	0.63202	0.2408	0.79199	-0.286
Mof_O 	O 	0.54823	0.18067	0.75874	-0.235
Mof_O 	O 	0.38127	0.57461	0.67341	-1.004
Mof_O 	O 	0.55293	0.34363	0.67534	-0.344
Mof_O 	O 	0.41336	0.49439	0.7814	-0.116
Mof_O 	O 	0.23774	0.47883	0.9858	-0.549
Mof_O 	O 	0.00507	0.67605	0.01318	-0.268
Mof_O 	O 	0.42964	0.45717	0.02273	-1.093
Mof_O 	O 	0.25165	0.66185	0.06817	-0.508
Mof_O 	O 	0.34529	0.75708	0.03698	-0.541
Mof_O 	O 	0.3341	0.81145	0.96451	-1.523
Mof_O 	O 	0.31848	0.60115	0.94689	-0.787
Mof_O 	O 	0.33205	0.62993	0.84374	-0.952
Mof_C 	C 	0.40332	0.05774	0.94309	0.3
Mof_C 	C 	0.48112	0.95263	0.90193	-0.181
Mof_H 	H 	0.40648	0.96155	0.88654	0.039
Mof_H 	H 	0.49643	0.98914	0.87348	0.082
Mof_C 	C 	0.62918	0.79179	0.91622	0.093
Mof_C 	C 	0.74551	0.76766	0.92233	0.237
Mof_C 	C 	0.6741	0.69041	0.87594	-0.111
Mof_H 	H 	0.67443	0.72395	0.84119	0.036
Mof_H 	H 	0.59005	0.70502	0.87332	-0.208
Mof_C 	C 	0.82212	0.52999	0.8828	0.282
Mof_C 	C 	0.31664	0.43718	0.85244	0.351
Mof_C 	C 	0.26511	0.48923	0.80135	-0.219
Mof_H 	H 	0.22781	0.45451	0.78672	0.081
Mof_H 	H 	0.16827	0.61115	0.80157	0.078
Mof_C 	C 	0.38307	0.43206	0.7681	0.104
Mof_C 	C 	0.5241	0.27481	0.77289	0.235
Mof_C 	C 	0.33384	0.46992	0.7151	-0.125
Mof_H 	H 	0.33809	0.39928	0.69926	-0.007
Mof_H 	H 	0.2182	0.58542	0.7128	-0.056
Mof_C 	C 	0.42648	0.45703	0.68637	0.018
Mof_C 	C 	0.10537	0.63036	0.992	0.34
Mof_C 	C 	0.08479	0.73923	0.97508	-0.262
Mof_H 	H 	0.06021	0.75598	0.93626	0.055
Mof_H 	H 	0.98548	0.84661	0.99266	0.086
Mof_C 	C 	0.21884	0.69261	0.98423	0.216
Mof_C 	C 	0.29904	0.60608	0.02864	0.312
Mof_C 	C 	0.16616	0.83139	0.98596	-0.564
Mof_H 	H 	0.08468	0.90315	0.01473	0.144
Mof_H 	H 	0.11387	0.88862	0.95129	-0.097
Mof_C 	C 	0.28238	0.80532	0.99676	0.582
Mof_O 	O 	0.71701	0.07766	0.11543	-1.155
Mof_K 	K 	0.59883	0.30458	0.09522	7.396
Mof_N 	N 	0.03991	0.00366	0.12888	-0.251
Mof_Bi	Bi	0.63909	0.53778	0.54388	1.128
Mof_Bi	Bi	0.71799	0.7088	0.52591	1.122
Mof_Bi	Bi	0.59631	0.43919	0.64947	0.613
Mof_O 	O 	0.89403	0.6422	0.60951	-0.29
Mof_O 	O 	0.93053	0.50332	0.55444	-0.377
Mof_O 	O 	0.29613	0.1212	0.56461	-0.225
Mof_O 	O 	0.28483	0.24758	0.51728	-0.25
Mof_O 	O 	0.61525	0.95568	0.61968	-0.227
Mof_O 	O 	0.54518	0.14934	0.6249	-0.289
Mof_O 	O 	0.24693	0.38409	0.5948	-0.439
Mof_O 	O 	0.5778	0.58398	0.61875	-0.466
Mof_O 	O 	0.73776	0.56941	0.62938	-0.342
Mof_O 	O 	0.7648	0.31423	0.70451	-0.28
Mof_O 	O 	0.88367	0.33637	0.73705	-0.237
Mof_O 	O 	0.44709	0.59752	0.82179	-1.025
Mof_O 	O 	0.67856	0.39823	0.8232	-0.346
Mof_O 	O 	0.52803	0.56029	0.71489	-0.12
Mof_O 	O 	0.57494	0.71412	0.5143	-0.566
Mof_O 	O 	0.39399	0.94749	0.48734	-0.256
Mof_O 	O 	0.55455	0.55092	0.4772	-1.262
Mof_O 	O 	0.35879	0.74733	0.43206	-0.485
Mof_O 	O 	0.22343	0.69573	0.45667	-0.529
Mof_O 	O 	0.17516	0.69658	0.52874	-1.55
Mof_O 	O 	0.41526	0.67265	0.55249	-0.77
Mof_O 	O 	0.37896	0.66343	0.65102	-0.913
Mof_C 	C 	0.96737	0.52055	0.59634	0.328
Mof_C 	C 	0.0959	0.38988	0.62631	-0.262
Mof_H 	H 	0.0844	0.43059	0.6622	0.09
Mof_H 	H 	0.08968	0.3229	0.63159	0.095
Mof_C 	C 	0.24638	0.29483	0.60534	0.187
Mof_C 	C 	0.27787	0.21477	0.56151	0.193
Mof_C 	C 	0.36652	0.18252	0.64358	-0.258
Mof_H 	H 	0.37	0.10892	0.65239	0.091
Mof_H 	H 	0.3393	0.24056	0.67709	0.085
Mof_C 	C 	0.51616	0.09156	0.62835	0.337
Mof_C 	C 	0.64448	0.59728	0.64664	0.342
Mof_C 	C 	0.60173	0.64811	0.69786	-0.226
Mof_H 	H 	0.6665	0.65224	0.71282	0.087
Mof_H 	H 	0.48428	0.76171	0.69865	0.077
Mof_C 	C 	0.62467	0.54927	0.72928	0.11
Mof_C 	C 	0.76933	0.39381	0.72345	0.233
Mof_C 	C 	0.59889	0.59224	0.7826	-0.139
Mof_H 	H 	0.69085	0.55826	0.79745	0.021
Mof_H 	H 	0.4971	0.71339	0.7864	-0.069
Mof_C 	C 	0.58039	0.525	0.8109	0.071
Mof_C 	C 	0.42661	0.8547	0.50836	0.344
Mof_C 	C 	0.30508	0.89441	0.52597	-0.229
Mof_H 	H 	0.29511	0.91381	0.56499	0.053
Mof_H 	H 	0.20019	0.00087	0.50974	0.067
Mof_C 	C 	0.32869	0.77622	0.51581	0.2
Mof_C 	C 	0.41183	0.69316	0.47138	0.34
Mof_C 	C 	0.17765	0.84984	0.51346	-0.537
Mof_H 	H 	0.10702	0.94031	0.48736	0.132
Mof_H 	H 	0.12457	0.89821	0.54888	-0.135
Mof_C 	C 	0.18428	0.74915	0.49841	0.587
Mof_O 	O 	0.93592	0.26743	0.37948	-1.199
Mof_K 	K 	0.70838	0.39712	0.4072	7.589
Mof_N 	N 	0.95683	0.91141	0.37894	-0.239
Mof_N 	N 	0.17118	0.97067	0.30178	-0.251
Mof_N 	N 	0.84026	0.13747	0.24596	-0.243
Mof_N 	N 	0.89081	0.97984	0.71063	-0.223
Mof_N 	N 	0.17447	0.89353	0.75112	-0.242
Mof_H 	H 	0.85343	0.18116	0.22429	0.05
Mof_H 	H 	0.74206	0.18442	0.23714	0.044
Mof_H 	H 	0.83774	0.16018	0.2816	0.018
Mof_H 	H 	0.15246	0.9566	0.26833	0.095
Mof_H 	H 	0.14428	0.05871	0.3007	0.081
Mof_H 	H 	0.28169	0.87535	0.31102	0.118
Mof_H 	H 	0.98524	0.84276	0.35253	0.099
Mof_H 	H 	0.0359	0.89751	0.38081	0.024
Mof_H 	H 	0.95123	0.88479	0.41167	0.077
Mof_H 	H 	0.02178	0.12613	0.58694	0.051
Mof_H 	H 	0.99567	0.17525	0.64519	0.078
Mof_H 	H 	0.12729	0.99503	0.63008	-0.006
Mof_H 	H 	0.92141	0.91424	0.73831	0.075
Mof_H 	H 	0.8079	0.01643	0.69026	0.082
Mof_H 	H 	0.98149	0.91881	0.68913	-0.029
Mof_H 	H 	0.20223	0.8058	0.74439	0.068
Mof_H 	H 	0.08196	0.98414	0.73108	0.057
Mof_H 	H 	0.26171	0.86385	0.74167	0.061
Mof_H 	H 	0.92129	0.07743	0.86106	0.009
Mof_H 	H 	0.87833	0.02051	0.89212	0.033
Mof_H 	H 	0.04945	0.89475	0.86887	-0.104
Mof_H 	H 	0.94974	0.11816	0.12911	-0.042
Mof_H 	H 	0.0864	0.96496	0.16293	0.069
Mof_H 	H 	0.11746	0.96383	0.10476	0.057
Mof_H 	H 	0.15213	0.92049	0.7873	-0.016
Mof_H 	H 	0.85249	0.06999	0.72479	0.079
Mof_H 	H 	0.90339	0.99304	0.83203	0.075
Mof_H 	H 	0.94662	0.11264	0.62454	0.001
Mof_H 	H 	0.85494	0.02048	0.37078	0.014
Mof_H 	H 	0.92789	0.02406	0.24078	0.056
Mof_H 	H 	0.10635	0.99196	0.32706	0.038
Mof_H 	H 	0.00605	0.96775	0.11869	-0.019
_end
