data_functionalizedCrystal
_audit_creation_method	'EQeq! by Chris Wilmer'
_symmetry_space_group_name_H-M	'P1'
_symmetry_Int_Tables_number	1
_symmetry_cell_setting	triclinic
loop_
_symmetry_equiv_pos_as_xyz
  x,y,z
_cell_length_a	13.685
_cell_length_b	13.144
_cell_length_c	22.649
_cell_angle_alpha	90
_cell_angle_beta	100.551
_cell_angle_gamma	90
loop_
_atom_site_label
_atom_site_type_symbol
_atom_site_fract_x
_atom_site_fract_y
_atom_site_fract_z
_atom_site_charge
Mof_W 	W 	0.23809	0.48897	0.47599	1.368
Mof_W 	W 	0.35508	0.68963	0.41363	1.872
Mof_W 	W 	0.36624	0.4424	0.35741	1.857
Mof_W 	W 	0.50929	0.25307	0.44144	1.429
Mof_W 	W 	0.38202	0.30063	0.56149	1.901
Mof_W 	W 	0.3721	0.54721	0.6207	1.808
Mof_La	La	0.27569	0.40167	0.17655	2.117
Mof_La	La	0.78086	0.40149	0.22202	2.08
Mof_O 	O 	0.403	0.527	0.4564	-1.768
Mof_O 	O 	0.502	0.615	0.4841	-1.665
Mof_O 	O 	0.507	0.427	0.4403	-1.427
Mof_O 	O 	0.597	0.533	0.4727	-1.465
Mof_O 	O 	0.258	0.433	0.3993	-0.52
Mof_O 	O 	0.27	0.358	0.5137	-0.542
Mof_O 	O 	0.269	0.539	0.5563	-0.542
Mof_O 	O 	0.256	0.625	0.4425	-0.541
Mof_O 	O 	0.2932	0.7804	0.3726	-0.697
Mof_O 	O 	0.483	0.7223	0.3977	-0.55
Mof_O 	O 	0.3562	0.5791	0.3563	-0.575
Mof_O 	O 	0.402	0.312	0.3913	-0.541
Mof_O 	O 	0.608	0.245	0.5111	-0.56
Mof_O 	O 	0.412	0.236	0.4921	-0.537
Mof_O 	O 	0.333	0.205	0.5916	-0.767
Mof_O 	O 	0.368	0.403	0.6201	-0.558
Mof_O 	O 	0.3128	0.5645	0.6776	-0.639
Mof_O 	O 	0.509	0.539	0.6593	-0.584
Mof_O 	O 	0.397	0.683	0.5959	-0.531
Mof_O 	O 	0.3033	0.4129	0.2897	-0.692
Mof_O 	O 	0.4477	0.4772	0.1883	-0.54
Mof_O 	O 	0.6088	0.4527	0.1929	-0.539
Mof_O 	O 	0.7904	0.7332	0.2903	-0.472
Mof_O 	O 	0.7828	0.581	0.2505	-0.499
Mof_O 	O 	0.7224	0.2414	0.2643	-0.468
Mof_O 	O 	0.7397	0.083	0.2969	-0.568
Mof_O 	O 	0.0538	0.9546	0.2974	-0.544
Mof_O 	O 	0.8936	0.9339	0.3064	-0.519
Mof_N 	N 	0.4697	0.6625	0.2349	-0.235
Mof_H 	H 	0.4091	0.6435	0.2234	0.152
Mof_N 	N 	0.5947	0.7626	0.2739	-0.247
Mof_N 	N 	0.8915	0.2392	0.2238	-0.245
Mof_N 	N 	0.015	0.1318	0.2344	-0.183
Mof_H 	H 	0.0701	0.1043	0.2296	0.083
Mof_C 	C 	0.498	0.748	0.26	0.219
Mof_H 	H 	0.4534	0.7974	0.2677	-0.048
Mof_C 	C 	0.5523	0.6071	0.2298	-0.049
Mof_C 	C 	0.6312	0.6706	0.2541	-0.076
Mof_C 	C 	0.736	0.662	0.266	0.39
Mof_C 	C 	0.5336	0.5037	0.2003	0.475
Mof_C 	C 	0.988	0.221	0.2151	0.108
Mof_H 	H 	0.0265	0.2662	0.1979	-0.025
Mof_C 	C 	0.866	0.155	0.2516	-0.065
Mof_C 	C 	0.949	0.0855	0.2628	-0.195
Mof_C 	C 	0.966	0.984	0.2876	0.543
Mof_C 	C 	0.774	0.158	0.2721	0.381
Mof_W 	W 	0.76191	0.98897	0.02401	1.197
Mof_W 	W 	0.64492	0.18963	0.08637	1.751
Mof_W 	W 	0.63376	0.9424	0.14259	1.868
Mof_W 	W 	0.49071	0.75307	0.05856	1.21
Mof_W 	W 	0.61798	0.80063	0.93851	1.85
Mof_W 	W 	0.6279	0.04721	0.8793	1.583
Mof_La	La	0.72431	0.90167	0.32345	2.277
Mof_La	La	0.21914	0.90149	0.27798	2.223
Mof_O 	O 	0.597	0.027	0.0436	-1.374
Mof_O 	O 	0.498	0.115	0.0159	-1.248
Mof_O 	O 	0.493	0.927	0.0597	-1.028
Mof_O 	O 	0.403	0.033	0.0273	-1.18
Mof_O 	O 	0.742	0.933	0.1007	-0.5
Mof_O 	O 	0.73	0.858	0.9863	-0.429
Mof_O 	O 	0.731	0.039	0.9437	-0.52
Mof_O 	O 	0.744	0.125	0.0575	-0.596
Mof_O 	O 	0.7068	0.2804	0.1274	-0.681
Mof_O 	O 	0.517	0.2223	0.1023	-0.545
Mof_O 	O 	0.6438	0.0791	0.1437	-0.632
Mof_O 	O 	0.598	0.812	0.1087	-0.54
Mof_O 	O 	0.392	0.745	0.9889	-0.434
Mof_O 	O 	0.588	0.736	0.0079	-0.627
Mof_O 	O 	0.667	0.705	0.9084	-0.719
Mof_O 	O 	0.632	0.903	0.8799	-0.494
Mof_O 	O 	0.6872	0.0645	0.8224	-0.618
Mof_O 	O 	0.491	0.039	0.8407	-0.594
Mof_O 	O 	0.603	0.183	0.9041	-0.5
Mof_O 	O 	0.6967	0.9129	0.2103	-0.677
Mof_O 	O 	0.5523	0.9772	0.3117	-0.38
Mof_O 	O 	0.3912	0.9527	0.3071	-0.399
Mof_O 	O 	0.2096	0.2332	0.2097	-0.474
Mof_O 	O 	0.2172	0.081	0.2495	-0.567
Mof_O 	O 	0.2776	0.7414	0.2357	-0.48
Mof_O 	O 	0.2603	0.583	0.2031	-0.507
Mof_O 	O 	0.9462	0.4546	0.2026	-0.553
Mof_O 	O 	0.1064	0.4339	0.1936	-0.515
Mof_N 	N 	0.5303	0.1625	0.2651	-0.246
Mof_H 	H 	0.5909	0.1435	0.2766	0.138
Mof_N 	N 	0.4053	0.2626	0.2261	-0.231
Mof_N 	N 	0.1085	0.7392	0.2762	-0.25
Mof_N 	N 	0.985	0.6318	0.2656	-0.215
Mof_H 	H 	0.9299	0.6043	0.2704	0.119
Mof_C 	C 	0.502	0.248	0.24	0.211
Mof_H 	H 	0.5466	0.2974	0.2323	-0.045
Mof_C 	C 	0.4477	0.1071	0.2702	-0.001
Mof_C 	C 	0.3688	0.1706	0.2459	-0.119
Mof_C 	C 	0.264	0.162	0.234	0.407
Mof_C 	C 	0.4664	0.0037	0.2997	0.184
Mof_C 	C 	0.012	0.721	0.2849	0.146
Mof_H 	H 	0.9735	0.7662	0.3021	-0.034
Mof_C 	C 	0.134	0.655	0.2484	-0.084
Mof_C 	C 	0.051	0.5855	0.2372	-0.066
Mof_C 	C 	0.034	0.484	0.2124	0.418
Mof_C 	C 	0.226	0.658	0.2279	0.387
Mof_W 	W 	0.76191	0.51103	0.52401	1.369
Mof_W 	W 	0.64492	0.31037	0.58637	1.862
Mof_W 	W 	0.63376	0.5576	0.64259	1.862
Mof_W 	W 	0.49071	0.74693	0.55856	1.482
Mof_W 	W 	0.61798	0.69937	0.43851	1.913
Mof_W 	W 	0.6279	0.45279	0.3793	1.805
Mof_La	La	0.72431	0.59833	0.82345	2.223
Mof_La	La	0.21914	0.59851	0.77798	2.133
Mof_O 	O 	0.597	0.473	0.5436	-1.768
Mof_O 	O 	0.498	0.385	0.5159	-1.661
Mof_O 	O 	0.493	0.573	0.5597	-1.431
Mof_O 	O 	0.403	0.467	0.5273	-1.464
Mof_O 	O 	0.742	0.567	0.6007	-0.515
Mof_O 	O 	0.73	0.642	0.4863	-0.535
Mof_O 	O 	0.731	0.461	0.4437	-0.546
Mof_O 	O 	0.744	0.375	0.5575	-0.547
Mof_O 	O 	0.7068	0.2196	0.6274	-0.696
Mof_O 	O 	0.517	0.2777	0.6023	-0.551
Mof_O 	O 	0.6438	0.4209	0.6437	-0.574
Mof_O 	O 	0.598	0.688	0.6087	-0.537
Mof_O 	O 	0.392	0.755	0.4889	-0.542
Mof_O 	O 	0.588	0.764	0.5079	-0.517
Mof_O 	O 	0.667	0.795	0.4084	-0.764
Mof_O 	O 	0.632	0.597	0.3799	-0.56
Mof_O 	O 	0.6872	0.4355	0.3224	-0.638
Mof_O 	O 	0.491	0.461	0.3407	-0.582
Mof_O 	O 	0.603	0.317	0.4041	-0.537
Mof_O 	O 	0.6967	0.5871	0.7103	-0.701
Mof_O 	O 	0.5523	0.5228	0.8117	-0.537
Mof_O 	O 	0.3912	0.5473	0.8071	-0.532
Mof_O 	O 	0.2096	0.2668	0.7097	-0.455
Mof_O 	O 	0.2172	0.419	0.7495	-0.496
Mof_O 	O 	0.2776	0.7586	0.7357	-0.466
Mof_O 	O 	0.2603	0.917	0.7031	-0.435
Mof_O 	O 	0.9462	0.0454	0.7026	-0.534
Mof_O 	O 	0.1064	0.0661	0.6936	-0.499
Mof_N 	N 	0.5303	0.3375	0.7651	-0.233
Mof_H 	H 	0.5909	0.3565	0.7766	0.155
Mof_N 	N 	0.4053	0.2374	0.7261	-0.233
Mof_N 	N 	0.1085	0.7608	0.7762	-0.24
Mof_N 	N 	0.985	0.8682	0.7656	-0.242
Mof_H 	H 	0.9299	0.8957	0.7704	0.159
Mof_C 	C 	0.502	0.252	0.74	0.214
Mof_H 	H 	0.5466	0.2026	0.7323	-0.045
Mof_C 	C 	0.4477	0.3929	0.7702	-0.048
Mof_C 	C 	0.3688	0.3294	0.7459	-0.071
Mof_C 	C 	0.264	0.338	0.734	0.39
Mof_C 	C 	0.4664	0.4963	0.7997	0.484
Mof_C 	C 	0.012	0.779	0.7849	0.166
Mof_H 	H 	0.9735	0.7338	0.8021	-0.031
Mof_C 	C 	0.134	0.845	0.7484	-0.098
Mof_C 	C 	0.051	0.9145	0.7372	0.084
Mof_C 	C 	0.034	0.016	0.7124	0.274
Mof_C 	C 	0.226	0.842	0.7279	0.398
Mof_W 	W 	0.23809	0.01103	0.97599	1.304
Mof_W 	W 	0.35508	0.81037	0.91363	1.725
Mof_W 	W 	0.36624	0.0576	0.85741	1.629
Mof_W 	W 	0.50929	0.24693	0.94144	1.482
Mof_W 	W 	0.38202	0.19937	0.06149	1.681
Mof_W 	W 	0.3721	0.95279	0.1207	1.803
Mof_La	La	0.27569	0.09833	0.67655	2.048
Mof_La	La	0.78086	0.09851	0.72202	1.992
Mof_O 	O 	0.403	0.973	0.9564	-1.107
Mof_O 	O 	0.502	0.885	0.9841	-1.091
Mof_O 	O 	0.507	0.073	0.9403	-1.029
Mof_O 	O 	0.597	0.967	0.9727	-0.901
Mof_O 	O 	0.258	0.067	0.8993	-0.514
Mof_O 	O 	0.27	0.142	0.0137	-0.616
Mof_O 	O 	0.269	0.961	0.0563	-0.55
Mof_O 	O 	0.256	0.875	0.9425	-0.465
Mof_O 	O 	0.2932	0.7196	0.8726	-0.649
Mof_O 	O 	0.483	0.7777	0.8977	-0.534
Mof_O 	O 	0.3562	0.9209	0.8563	-0.494
Mof_O 	O 	0.402	0.188	0.8913	-0.521
Mof_O 	O 	0.608	0.255	0.0111	-0.646
Mof_O 	O 	0.412	0.264	0.9921	-0.414
Mof_O 	O 	0.333	0.295	0.0916	-0.744
Mof_O 	O 	0.368	0.097	0.1201	-0.594
Mof_O 	O 	0.3128	0.9355	0.1776	-0.606
Mof_O 	O 	0.509	0.961	0.1593	-0.551
Mof_O 	O 	0.397	0.817	0.0959	-0.551
Mof_O 	O 	0.3033	0.0871	0.7897	-0.665
Mof_O 	O 	0.4477	0.0228	0.6883	-0.704
Mof_O 	O 	0.6088	0.0473	0.6929	-0.68
Mof_O 	O 	0.7904	0.7668	0.7903	-0.452
Mof_O 	O 	0.7828	0.919	0.7505	-0.428
Mof_O 	O 	0.7224	0.2586	0.7643	-0.454
Mof_O 	O 	0.7397	0.417	0.7969	-0.5
Mof_O 	O 	0.0538	0.5454	0.7974	-0.534
Mof_O 	O 	0.8936	0.5661	0.8064	-0.504
Mof_N 	N 	0.4697	0.8375	0.7349	-0.221
Mof_H 	H 	0.4091	0.8565	0.7234	0.168
Mof_N 	N 	0.5947	0.7374	0.7739	-0.249
Mof_N 	N 	0.8915	0.2608	0.7238	-0.237
Mof_N 	N 	0.015	0.3682	0.7344	-0.205
Mof_H 	H 	0.0701	0.3957	0.7296	0.119
Mof_C 	C 	0.498	0.752	0.76	0.221
Mof_H 	H 	0.4534	0.7026	0.7677	-0.048
Mof_C 	C 	0.5523	0.8929	0.7298	-0.1
Mof_C 	C 	0.6312	0.8294	0.7541	-0.027
Mof_C 	C 	0.736	0.838	0.766	0.373
Mof_C 	C 	0.5336	0.9963	0.7003	0.784
Mof_C 	C 	0.988	0.279	0.7151	0.127
Mof_H 	H 	0.0265	0.2338	0.6979	-0.024
Mof_C 	C 	0.866	0.345	0.7516	-0.077
Mof_C 	C 	0.949	0.4145	0.7628	-0.062
Mof_C 	C 	0.966	0.516	0.7876	0.42
Mof_C 	C 	0.774	0.342	0.7721	0.39
Mof_Si	Si	0.5	0.5	0.5	8.378
Mof_Si	Si	0.5	0	-0	5.56
_end
