data_functionalizedCrystal
_audit_creation_method	'EQeq! by Chris Wilmer'
_symmetry_space_group_name_H-M	'P1'
_symmetry_Int_Tables_number	1
_symmetry_cell_setting	triclinic
loop_
_symmetry_equiv_pos_as_xyz
  x,y,z
_cell_length_a	13.4578
_cell_length_b	13.4578
_cell_length_c	27.6928
_cell_angle_alpha	90
_cell_angle_beta	90
_cell_angle_gamma	120
loop_
_atom_site_label
_atom_site_type_symbol
_atom_site_fract_x
_atom_site_fract_y
_atom_site_fract_z
_atom_site_charge
Mof_V 	V 	0.29268	0.85809	0.52647	1.797
Mof_P 	P 	0.1622	0.97502	0.58422	0.73
Mof_P 	P 	0.12733	0.63089	0.46359	0.481
Mof_O 	O 	0.151	0.7184	0.50314	-0.541
Mof_O 	O 	0.1679	0.5478	0.47575	-0.537
Mof_O 	O 	0.0008	0.5704	0.44996	-0.599
Mof_O 	O 	0.1872	0.88	0.56994	-0.485
Mof_O 	O 	0.3245	0.7722	0.57655	-0.448
Mof_O 	O 	0.1425	0.0773	0.70448	-0.578
Mof_O 	O 	0.0695	0.9283	0.62252	-0.486
Mof_O 	O 	0.1367	0.0286	0.54065	-0.681
Mof_H 	H 	0.26	0.06	0.6048	-0.152
Mof_H 	H 	0.187	0.682	0.4249	-0.034
Mof_V 	V 	0.14191	0.43459	0.52647	1.724
Mof_P 	P 	0.02498	0.18718	0.58422	0.192
Mof_P 	P 	0.36911	0.49644	0.46359	0.485
Mof_O 	O 	0.2816	0.4326	0.50314	-0.527
Mof_O 	O 	0.4522	0.6201	0.47575	-0.502
Mof_O 	O 	0.4296	0.4304	0.44996	-0.488
Mof_O 	O 	0.12	0.3072	0.56994	-0.487
Mof_O 	O 	0.2278	0.5523	0.57655	-0.508
Mof_O 	O 	0.9227	0.0652	0.70448	-0.515
Mof_O 	O 	0.0717	0.1412	0.62252	-0.512
Mof_O 	O 	0.9714	0.1081	0.54065	-0.358
Mof_H 	H 	0.94	0.2	0.6048	0.069
Mof_H 	H 	0.318	0.505	0.4249	-0.039
Mof_V 	V 	0.56541	0.70732	0.52647	1.762
Mof_P 	P 	0.81282	0.8378	0.58422	0.462
Mof_P 	P 	0.50356	0.87267	0.46359	0.488
Mof_O 	O 	0.5674	0.849	0.50314	-0.482
Mof_O 	O 	0.3799	0.8321	0.47575	-0.47
Mof_O 	O 	0.5696	0.9992	0.44996	-0.372
Mof_O 	O 	0.6928	0.8128	0.56994	-0.447
Mof_O 	O 	0.4477	0.6755	0.57655	-0.463
Mof_O 	O 	0.9348	0.8575	0.70448	-0.366
Mof_O 	O 	0.8588	0.9305	0.62252	-0.312
Mof_O 	O 	0.8919	0.8633	0.54065	-0.367
Mof_H 	H 	0.8	0.74	0.6048	-0.011
Mof_H 	H 	0.495	0.813	0.4249	-0.022
Mof_V 	V 	0.70732	0.14191	0.02647	1.719
Mof_P 	P 	0.8378	0.02498	0.08422	0.214
Mof_P 	P 	0.87267	0.36911	0.96359	0.51
Mof_O 	O 	0.849	0.2816	0.00314	-0.515
Mof_O 	O 	0.8321	0.4522	0.97575	-0.459
Mof_O 	O 	0.9992	0.4296	0.94996	-0.366
Mof_O 	O 	0.8128	0.12	0.06994	-0.464
Mof_O 	O 	0.6755	0.2278	0.07655	-0.501
Mof_O 	O 	0.8575	0.9227	0.20448	-0.401
Mof_O 	O 	0.9305	0.0717	0.12252	-0.376
Mof_O 	O 	0.8633	0.9714	0.04065	-0.282
Mof_H 	H 	0.74	0.94	0.1048	0.079
Mof_H 	H 	0.813	0.318	0.9249	-0.03
Mof_V 	V 	0.85809	0.56541	0.02647	1.79
Mof_P 	P 	0.97502	0.81282	0.08422	0.698
Mof_P 	P 	0.63089	0.50356	0.96359	0.505
Mof_O 	O 	0.7184	0.5674	0.00314	-0.53
Mof_O 	O 	0.5478	0.3799	0.97575	-0.492
Mof_O 	O 	0.5704	0.5696	0.94996	-0.481
Mof_O 	O 	0.88	0.6928	0.06994	-0.461
Mof_O 	O 	0.7722	0.4477	0.07655	-0.443
Mof_O 	O 	0.0773	0.9348	0.20448	-0.441
Mof_O 	O 	0.9283	0.8588	0.12252	-0.364
Mof_O 	O 	0.0286	0.8919	0.04065	-0.557
Mof_H 	H 	0.06	0.8	0.1048	-0.118
Mof_H 	H 	0.682	0.495	0.9249	-0.026
Mof_V 	V 	0.43459	0.29268	0.02647	1.753
Mof_P 	P 	0.18718	0.1622	0.08422	0.459
Mof_P 	P 	0.49644	0.12733	0.96359	0.503
Mof_O 	O 	0.4326	0.151	0.00314	-0.577
Mof_O 	O 	0.6201	0.1679	0.97575	-0.523
Mof_O 	O 	0.4304	0.0008	0.94996	-0.597
Mof_O 	O 	0.3072	0.1872	0.06994	-0.504
Mof_O 	O 	0.5523	0.3245	0.07655	-0.486
Mof_O 	O 	0.0652	0.1425	0.20448	-0.615
Mof_O 	O 	0.1412	0.0695	0.12252	-0.57
Mof_O 	O 	0.1081	0.1367	0.04065	-0.588
Mof_H 	H 	0.2	0.26	0.1048	-0.054
Mof_H 	H 	0.505	0.187	0.9249	-0.043
Mof_V 	V 	0.70732	0.14191	0.47353	1.726
Mof_P 	P 	0.8378	0.02498	0.41578	0.217
Mof_P 	P 	0.87267	0.36911	0.53641	0.488
Mof_O 	O 	0.849	0.2816	0.49686	-0.49
Mof_O 	O 	0.8321	0.4522	0.52425	-0.47
Mof_O 	O 	0.9992	0.4296	0.55004	-0.371
Mof_O 	O 	0.8128	0.12	0.43006	-0.46
Mof_O 	O 	0.6755	0.2278	0.42345	-0.497
Mof_O 	O 	0.8575	0.9227	0.29552	-0.401
Mof_O 	O 	0.9305	0.0717	0.37748	-0.375
Mof_O 	O 	0.8633	0.9714	0.45935	-0.274
Mof_H 	H 	0.74	0.94	0.3952	0.079
Mof_H 	H 	0.813	0.318	0.5751	-0.029
Mof_V 	V 	0.85809	0.56541	0.47353	1.796
Mof_P 	P 	0.97502	0.81282	0.41578	0.702
Mof_P 	P 	0.63089	0.50356	0.53641	0.484
Mof_O 	O 	0.7184	0.5674	0.49686	-0.507
Mof_O 	O 	0.5478	0.3799	0.52425	-0.504
Mof_O 	O 	0.5704	0.5696	0.55004	-0.485
Mof_O 	O 	0.88	0.6928	0.43006	-0.458
Mof_O 	O 	0.7722	0.4477	0.42345	-0.439
Mof_O 	O 	0.0773	0.9348	0.29552	-0.441
Mof_O 	O 	0.9283	0.8588	0.37748	-0.364
Mof_O 	O 	0.0286	0.8919	0.45935	-0.553
Mof_H 	H 	0.06	0.8	0.3952	-0.118
Mof_H 	H 	0.682	0.495	0.5751	-0.025
Mof_V 	V 	0.43459	0.29268	0.47353	1.759
Mof_P 	P 	0.18718	0.1622	0.41578	0.46
Mof_P 	P 	0.49644	0.12733	0.53641	0.481
Mof_O 	O 	0.4326	0.151	0.49686	-0.553
Mof_O 	O 	0.6201	0.1679	0.52425	-0.535
Mof_O 	O 	0.4304	0.0008	0.55004	-0.603
Mof_O 	O 	0.3072	0.1872	0.43006	-0.501
Mof_O 	O 	0.5523	0.3245	0.42345	-0.483
Mof_O 	O 	0.0652	0.1425	0.29552	-0.615
Mof_O 	O 	0.1412	0.0695	0.37748	-0.57
Mof_O 	O 	0.1081	0.1367	0.45935	-0.579
Mof_H 	H 	0.2	0.26	0.3952	-0.053
Mof_H 	H 	0.505	0.187	0.5751	-0.042
Mof_V 	V 	0.29268	0.85809	0.97353	1.801
Mof_P 	P 	0.1622	0.97502	0.91578	0.724
Mof_P 	P 	0.12733	0.63089	0.03641	0.464
Mof_O 	O 	0.151	0.7184	0.99686	-0.521
Mof_O 	O 	0.1679	0.5478	0.02425	-0.547
Mof_O 	O 	0.0008	0.5704	0.05004	-0.601
Mof_O 	O 	0.1872	0.88	0.93006	-0.482
Mof_O 	O 	0.3245	0.7722	0.92345	-0.446
Mof_O 	O 	0.1425	0.0773	0.79552	-0.578
Mof_O 	O 	0.0695	0.9283	0.87748	-0.486
Mof_O 	O 	0.1367	0.0286	0.95935	-0.665
Mof_H 	H 	0.26	0.06	0.8952	-0.149
Mof_H 	H 	0.187	0.682	0.0751	-0.033
Mof_V 	V 	0.14191	0.43459	0.97353	1.729
Mof_P 	P 	0.02498	0.18718	0.91578	0.191
Mof_P 	P 	0.36911	0.49644	0.03641	0.465
Mof_O 	O 	0.2816	0.4326	0.99686	-0.504
Mof_O 	O 	0.4522	0.6201	0.02425	-0.512
Mof_O 	O 	0.4296	0.4304	0.05004	-0.492
Mof_O 	O 	0.12	0.3072	0.93006	-0.484
Mof_O 	O 	0.2278	0.5523	0.92345	-0.505
Mof_O 	O 	0.9227	0.0652	0.79552	-0.514
Mof_O 	O 	0.0717	0.1412	0.87748	-0.511
Mof_O 	O 	0.9714	0.1081	0.95935	-0.343
Mof_H 	H 	0.94	0.2	0.8952	0.072
Mof_H 	H 	0.318	0.505	0.0751	-0.038
Mof_V 	V 	0.56541	0.70732	0.97353	1.768
Mof_P 	P 	0.81282	0.8378	0.91578	0.462
Mof_P 	P 	0.50356	0.87267	0.03641	0.47
Mof_O 	O 	0.5674	0.849	0.99686	-0.462
Mof_O 	O 	0.3799	0.8321	0.02425	-0.479
Mof_O 	O 	0.5696	0.9992	0.05004	-0.374
Mof_O 	O 	0.6928	0.8128	0.93006	-0.445
Mof_O 	O 	0.4477	0.6755	0.92345	-0.46
Mof_O 	O 	0.9348	0.8575	0.79552	-0.366
Mof_O 	O 	0.8588	0.9305	0.87748	-0.313
Mof_O 	O 	0.8919	0.8633	0.95935	-0.356
Mof_H 	H 	0.8	0.74	0.8952	-0.01
Mof_H 	H 	0.495	0.813	0.0751	-0.02
Mof_V 	V 	-1.16234e-32	0	0.5	1.635
Mof_V 	V 	-0	0	-0	1.624
Mof_V 	V 	-3.48703e-32	0	0.66396	1.642
Mof_V 	V 	-5.81172e-33	0	0.16396	1.642
Mof_V 	V 	-0	0	0.33604	1.642
Mof_V 	V 	-2.32469e-32	4.64938e-32	0.83604	1.643
Mof_P 	P 	0.33333	0.66667	0.58968	0.498
Mof_H 	H 	0.33333	0.66667	0.6367	-0.018
Mof_P 	P 	0.66667	0.33333	0.08968	0.497
Mof_H 	H 	0.66667	0.33333	0.1367	-0.018
Mof_P 	P 	0.66667	0.33333	0.41032	0.498
Mof_H 	H 	0.66667	0.33333	0.3633	-0.018
Mof_P 	P 	0.33333	0.66667	0.91032	0.5
Mof_H 	H 	0.33333	0.66667	0.8633	-0.019
Mof_P 	P 	0.19134	0.06211	0.75	0.486
Mof_O 	O 	0.3196	0.1435	0.75	-0.509
Mof_H 	H 	0.3327	0.2099	0.75	0.292
Mof_H 	H 	0.178	0.9591	0.75	-0.56
Mof_O 	O 	0.2	0.955	0.75	0.538
Mof_H 	H 	0.1354	0.8984	0.75	0.099
Mof_P 	P 	0.93789	0.12923	0.75	0.777
Mof_O 	O 	0.8565	0.1761	0.75	-0.463
Mof_H 	H 	0.7901	0.1228	0.75	0.248
Mof_H 	H 	0.0409	0.2189	0.75	-0.753
Mof_O 	O 	0.045	0.245	0.75	0.455
Mof_H 	H 	0.1016	0.237	0.75	0.173
Mof_P 	P 	0.87077	0.80866	0.75	0.652
Mof_O 	O 	0.8239	0.6804	0.75	-0.485
Mof_H 	H 	0.8772	0.6673	0.75	0.328
Mof_H 	H 	0.7811	0.822	0.75	-0.641
Mof_O 	O 	0.755	0.8	0.75	0.474
Mof_H 	H 	0.763	0.8646	0.75	0.209
Mof_P 	P 	0.80866	0.93789	0.25	0.781
Mof_O 	O 	0.6804	0.8565	0.25	-0.463
Mof_H 	H 	0.6673	0.7901	0.25	0.286
Mof_H 	H 	0.822	0.0409	0.25	-0.739
Mof_O 	O 	0.8	0.045	0.25	0.445
Mof_H 	H 	0.8646	0.1016	0.25	0.226
Mof_P 	P 	0.06211	0.87077	0.25	0.513
Mof_O 	O 	0.1435	0.8239	0.25	-0.508
Mof_H 	H 	0.2099	0.8772	0.25	0.333
Mof_H 	H 	0.9591	0.7811	0.25	-0.556
Mof_O 	O 	0.955	0.755	0.25	0.516
Mof_H 	H 	0.8984	0.763	0.25	0.15
Mof_P 	P 	0.12923	0.19134	0.25	0.621
Mof_O 	O 	0.1761	0.3196	0.25	-0.487
Mof_H 	H 	0.1228	0.3327	0.25	0.25
Mof_H 	H 	0.2189	0.178	0.25	-0.661
Mof_O 	O 	0.245	0.2	0.25	0.506
Mof_H 	H 	0.237	0.1354	0.25	0.105
_end
