data_functionalizedCrystal
_audit_creation_method	'EQeq! by Chris Wilmer'
_symmetry_space_group_name_H-M	'P1'
_symmetry_Int_Tables_number	1
_symmetry_cell_setting	triclinic
loop_
_symmetry_equiv_pos_as_xyz
  x,y,z
_cell_length_a	9.7762
_cell_length_b	9.9277
_cell_length_c	21.4526
_cell_angle_alpha	90
_cell_angle_beta	93.445
_cell_angle_gamma	90
loop_
_atom_site_label
_atom_site_type_symbol
_atom_site_fract_x
_atom_site_fract_y
_atom_site_fract_z
_atom_site_charge
Mof_Eu	Eu	0.06209	0.81114	0.96777	2.017
Mof_Eu	Eu	0.43791	0.31114	0.53223	2.048
Mof_Eu	Eu	0.93791	0.18887	0.03223	2.017
Mof_Eu	Eu	0.56209	0.68887	0.46777	2.048
Mof_Cd	Cd	0.53466	0.965	0.78438	0.423
Mof_Cd	Cd	0.18842	0.45968	0.90627	0.303
Mof_Cd	Cd	0.96534	0.465	0.71562	0.426
Mof_Cd	Cd	0.31158	0.95968	0.59373	0.301
Mof_Cd	Cd	0.46534	0.035	0.21562	0.424
Mof_Cd	Cd	0.81158	0.54032	0.09373	0.304
Mof_Cd	Cd	0.03466	0.535	0.28438	0.426
Mof_Cd	Cd	0.68842	0.04032	0.40627	0.301
Mof_H 	H 	0.6709	0.6966	0.6944	-0.011
Mof_H 	H 	0.4204	0.3009	0.8096	-0.002
Mof_H 	H 	0.8291	0.1966	0.8056	-0.011
Mof_H 	H 	0.0796	0.8009	0.6904	-0.004
Mof_H 	H 	0.3291	0.3034	0.3056	-0.011
Mof_H 	H 	0.5796	0.6991	0.1904	-0.002
Mof_H 	H 	0.1709	0.8034	0.1944	-0.011
Mof_H 	H 	0.9204	0.1991	0.3096	-0.004
Mof_C 	C 	0.7654	0.7679	0.82788	-0.055
Mof_C 	C 	0.7535	0.8541	0.88368	0.39
Mof_C 	C 	0.853	0.6649	0.81304	-0.044
Mof_C 	C 	0.9628	0.5914	0.84846	0.364
Mof_C 	C 	0.7143	0.7026	0.73409	0.102
Mof_C 	C 	0.2771	0.0465	0.85251	-0.046
Mof_C 	C 	0.2654	0.898	0.85021	0.374
Mof_C 	C 	0.2074	0.1501	0.88044	-0.051
Mof_C 	C 	0.0985	0.1572	0.92399	0.371
Mof_C 	C 	0.3647	0.2378	0.8277	0.092
Mof_C 	C 	0.7346	0.2679	0.67212	-0.057
Mof_C 	C 	0.7465	0.3541	0.61632	0.391
Mof_C 	C 	0.647	0.1649	0.68696	-0.046
Mof_C 	C 	0.5372	0.0914	0.65154	0.365
Mof_C 	C 	0.7857	0.2026	0.76591	0.101
Mof_C 	C 	0.2229	0.5465	0.64749	-0.054
Mof_C 	C 	0.2346	0.398	0.64979	0.382
Mof_C 	C 	0.2926	0.6501	0.61956	-0.052
Mof_C 	C 	0.4015	0.6572	0.57601	0.371
Mof_C 	C 	0.1353	0.7378	0.6723	0.092
Mof_C 	C 	0.2346	0.2321	0.17212	-0.055
Mof_C 	C 	0.2465	0.1459	0.11632	0.39
Mof_C 	C 	0.147	0.3351	0.18696	-0.044
Mof_C 	C 	0.0372	0.4086	0.15154	0.364
Mof_C 	C 	0.2857	0.2974	0.26591	0.102
Mof_C 	C 	0.7229	0.9535	0.14749	-0.046
Mof_C 	C 	0.7346	0.102	0.14979	0.374
Mof_C 	C 	0.7926	0.8499	0.11956	-0.051
Mof_C 	C 	0.9015	0.8428	0.07601	0.371
Mof_C 	C 	0.6353	0.7622	0.1723	0.092
Mof_C 	C 	0.2654	0.7321	0.32788	-0.057
Mof_C 	C 	0.2535	0.6459	0.38368	0.391
Mof_C 	C 	0.353	0.8351	0.31304	-0.046
Mof_C 	C 	0.4628	0.9086	0.34846	0.365
Mof_C 	C 	0.2143	0.7974	0.23409	0.101
Mof_C 	C 	0.7771	0.4535	0.35251	-0.054
Mof_C 	C 	0.7654	0.602	0.35021	0.382
Mof_C 	C 	0.7074	0.3499	0.38044	-0.052
Mof_C 	C 	0.5985	0.3428	0.42399	0.371
Mof_C 	C 	0.8647	0.2622	0.3277	0.092
Mof_N 	N 	0.6763	0.7891	0.77706	-0.136
Mof_N 	N 	0.8204	0.625	0.75293	-0.141
Mof_N 	N 	0.377	0.1042	0.81916	-0.134
Mof_N 	N 	0.2652	0.2712	0.86444	-0.14
Mof_N 	N 	0.8237	0.2891	0.72294	-0.137
Mof_N 	N 	0.6796	0.125	0.74707	-0.141
Mof_N 	N 	0.123	0.6042	0.68084	-0.135
Mof_N 	N 	0.2348	0.7712	0.63556	-0.141
Mof_N 	N 	0.3237	0.2109	0.22294	-0.136
Mof_N 	N 	0.1796	0.375	0.24707	-0.141
Mof_N 	N 	0.623	0.8958	0.18084	-0.134
Mof_N 	N 	0.7348	0.7288	0.13556	-0.14
Mof_N 	N 	0.1763	0.7109	0.27706	-0.137
Mof_N 	N 	0.3204	0.875	0.25293	-0.141
Mof_N 	N 	0.877	0.3958	0.31916	-0.135
Mof_N 	N 	0.7652	0.2288	0.36444	-0.141
Mof_O 	O 	0.654	0.9339	0.88411	-0.337
Mof_O 	O 	0.8401	0.8455	0.92887	-0.528
Mof_O 	O 	0.9951	0.6171	0.90515	-0.516
Mof_O 	O 	0.0249	0.4987	0.82163	-0.323
Mof_O 	O 	0.3471	0.8357	0.81846	-0.303
Mof_O 	O 	0.1717	0.8404	0.87872	-0.552
Mof_O 	O 	0.0432	0.0529	0.94651	-0.61
Mof_O 	O 	0.0578	0.2722	0.94189	-0.503
Mof_O 	O 	0.846	0.4339	0.61589	-0.338
Mof_O 	O 	0.6599	0.3455	0.57113	-0.534
Mof_O 	O 	0.5049	0.1171	0.59485	-0.522
Mof_O 	O 	0.4751	0.9987	0.67837	-0.323
Mof_O 	O 	0.1529	0.3357	0.68154	-0.304
Mof_O 	O 	0.3283	0.3404	0.62128	-0.554
Mof_O 	O 	0.4568	0.5529	0.55349	-0.621
Mof_O 	O 	0.4422	0.7722	0.55811	-0.508
Mof_O 	O 	0.346	0.0661	0.11589	-0.337
Mof_O 	O 	0.1599	0.1545	0.07113	-0.528
Mof_O 	O 	0.0049	0.3829	0.09485	-0.516
Mof_O 	O 	0.9751	0.5013	0.17837	-0.323
Mof_O 	O 	0.6529	0.1643	0.18154	-0.303
Mof_O 	O 	0.8283	0.1596	0.12128	-0.552
Mof_O 	O 	0.9568	0.9471	0.05349	-0.61
Mof_O 	O 	0.9422	0.7278	0.05811	-0.503
Mof_O 	O 	0.154	0.5661	0.38411	-0.338
Mof_O 	O 	0.3401	0.6545	0.42887	-0.534
Mof_O 	O 	0.4951	0.8829	0.40515	-0.522
Mof_O 	O 	0.5249	0.0013	0.32163	-0.323
Mof_O 	O 	0.8471	0.6643	0.31846	-0.304
Mof_O 	O 	0.6717	0.6596	0.37872	-0.554
Mof_O 	O 	0.5432	0.4471	0.44651	-0.621
Mof_O 	O 	0.5578	0.2278	0.44189	-0.508
_end
