data_functionalizedCrystal
_audit_creation_method	'EQeq! by Chris Wilmer'
_symmetry_space_group_name_H-M	'P1'
_symmetry_Int_Tables_number	1
_symmetry_cell_setting	triclinic
loop_
_symmetry_equiv_pos_as_xyz
  x,y,z
_cell_length_a	12.5879
_cell_length_b	12.5879
_cell_length_c	25.09
_cell_angle_alpha	90
_cell_angle_beta	90
_cell_angle_gamma	90
loop_
_atom_site_label
_atom_site_type_symbol
_atom_site_fract_x
_atom_site_fract_y
_atom_site_fract_z
_atom_site_charge
Mof_Co	Co	0.67718	0.25051	0.87543	1.13
Mof_Co	Co	0.32282	0.74949	0.37543	1.129
Mof_Co	Co	0.24949	0.17718	0.12543	1.128
Mof_Co	Co	0.75051	0.82282	0.62543	1.128
Mof_Co	Co	0.82282	0.75051	0.37457	1.127
Mof_Co	Co	0.17718	0.24949	0.87457	1.128
Mof_Co	Co	0.25051	0.67718	0.12457	1.127
Mof_Co	Co	0.74949	0.32282	0.62457	1.128
Mof_Co	Co	0.43081	0.56919	0.75	1.148
Mof_Co	Co	0.56919	0.43081	0.25	1.147
Mof_Co	Co	0.93081	0.93081	-0	1.129
Mof_Co	Co	0.06919	0.06919	0.5	1.141
Mof_H 	H 	0.4532	0.2991	0.0688	-0.004
Mof_H 	H 	0.4958	0.0853	0.9196	0.105
Mof_H 	H 	0.373	0.071	0.9112	0.098
Mof_H 	H 	0.2804	0.0802	0.0033	0.015
Mof_H 	H 	0.5468	0.7009	0.5688	-0.01
Mof_H 	H 	0.5042	0.9147	0.4196	0.1
Mof_H 	H 	0.627	0.929	0.4112	0.093
Mof_H 	H 	0.7196	0.9198	0.5033	0.013
Mof_H 	H 	0.2009	0.9532	0.3188	-0.009
Mof_H 	H 	0.4147	0.9958	0.1696	0.1
Mof_H 	H 	0.429	0.873	0.1612	0.092
Mof_H 	H 	0.4198	0.7804	0.2533	0.014
Mof_H 	H 	0.7991	0.0468	0.8188	-0.008
Mof_H 	H 	0.5853	0.0042	0.6696	0.1
Mof_H 	H 	0.571	0.127	0.6612	0.093
Mof_H 	H 	0.5802	0.2196	0.7533	0.014
Mof_H 	H 	0.0468	0.7991	0.1812	-0.009
Mof_H 	H 	0.0042	0.5853	0.3304	0.101
Mof_H 	H 	0.127	0.571	0.3388	0.094
Mof_H 	H 	0.2196	0.5802	0.2467	0.014
Mof_H 	H 	0.9532	0.2009	0.6812	-0.009
Mof_H 	H 	0.9958	0.4147	0.8304	0.103
Mof_H 	H 	0.873	0.429	0.8388	0.097
Mof_H 	H 	0.7804	0.4198	0.7467	0.015
Mof_H 	H 	0.2991	0.4532	0.9312	-0.016
Mof_H 	H 	0.0853	0.4958	0.0804	0.096
Mof_H 	H 	0.071	0.373	0.0888	0.087
Mof_H 	H 	0.0802	0.2804	0.9967	0.012
Mof_H 	H 	0.7009	0.5468	0.4312	-0.01
Mof_H 	H 	0.9147	0.5042	0.5804	0.1
Mof_H 	H 	0.929	0.627	0.5888	0.093
Mof_H 	H 	0.9198	0.7196	0.4967	0.013
Mof_C 	C 	0.5658	0.4244	0.8222	0.331
Mof_C 	C 	0.4809	0.3493	0.8386	-0.057
Mof_C 	C 	0.4278	0.2115	0.8828	0.174
Mof_C 	C 	0.288	0.4088	0.8109	0.343
Mof_C 	C 	0.3727	0.3438	0.8356	-0.063
Mof_C 	C 	0.4274	0.25	0.0444	0.068
Mof_C 	C 	0.4278	0.1215	0.9211	-0.223
Mof_C 	C 	0.3325	0.1311	0.0095	0.038
Mof_C 	C 	0.4342	0.5756	0.3222	0.331
Mof_C 	C 	0.5191	0.6507	0.3386	-0.058
Mof_C 	C 	0.5722	0.7885	0.3828	0.171
Mof_C 	C 	0.712	0.5912	0.3109	0.343
Mof_C 	C 	0.6273	0.6562	0.3356	-0.063
Mof_C 	C 	0.5726	0.75	0.5444	0.1
Mof_C 	C 	0.5722	0.8785	0.4211	-0.218
Mof_C 	C 	0.6675	0.8689	0.5095	0.069
Mof_C 	C 	0.0756	0.0658	0.0722	0.313
Mof_C 	C 	0.1507	0.9809	0.0886	-0.046
Mof_C 	C 	0.2885	0.9278	0.1328	0.173
Mof_C 	C 	0.0912	0.788	0.0609	0.344
Mof_C 	C 	0.1562	0.8727	0.0856	-0.069
Mof_C 	C 	0.25	0.9274	0.2944	0.1
Mof_C 	C 	0.3785	0.9278	0.1711	-0.218
Mof_C 	C 	0.3689	0.8325	0.2595	0.069
Mof_C 	C 	0.9244	0.9342	0.5722	0.314
Mof_C 	C 	0.8493	0.0191	0.5886	-0.046
Mof_C 	C 	0.7115	0.0722	0.6328	0.174
Mof_C 	C 	0.9088	0.212	0.5609	0.344
Mof_C 	C 	0.8438	0.1273	0.5856	-0.066
Mof_C 	C 	0.75	0.0726	0.7944	0.1
Mof_C 	C 	0.6215	0.0722	0.6711	-0.218
Mof_C 	C 	0.6311	0.1675	0.7595	0.069
Mof_C 	C 	0.9342	0.9244	0.4278	0.313
Mof_C 	C 	0.0191	0.8493	0.4114	-0.044
Mof_C 	C 	0.0722	0.7115	0.3672	0.175
Mof_C 	C 	0.212	0.9088	0.4391	0.345
Mof_C 	C 	0.1273	0.8438	0.4144	-0.067
Mof_C 	C 	0.0726	0.75	0.2056	0.099
Mof_C 	C 	0.0722	0.6215	0.3289	-0.219
Mof_C 	C 	0.1675	0.6311	0.2405	0.069
Mof_C 	C 	0.0658	0.0756	0.9278	0.308
Mof_C 	C 	0.9809	0.1507	0.9114	-0.039
Mof_C 	C 	0.9278	0.2885	0.8672	0.178
Mof_C 	C 	0.788	0.0912	0.9391	0.344
Mof_C 	C 	0.8727	0.1562	0.9144	-0.065
Mof_C 	C 	0.9274	0.25	0.7056	0.1
Mof_C 	C 	0.9278	0.3785	0.8289	-0.222
Mof_C 	C 	0.8325	0.3689	0.7405	0.069
Mof_C 	C 	0.4244	0.5658	0.1778	0.33
Mof_C 	C 	0.3493	0.4809	0.1614	-0.059
Mof_C 	C 	0.2115	0.4278	0.1172	0.168
Mof_C 	C 	0.4088	0.288	0.1891	0.343
Mof_C 	C 	0.3438	0.3727	0.1644	-0.064
Mof_C 	C 	0.25	0.4274	0.9556	0.131
Mof_C 	C 	0.1215	0.4278	0.0789	-0.212
Mof_C 	C 	0.1311	0.3325	0.9905	0.101
Mof_C 	C 	0.5756	0.4342	0.6778	0.331
Mof_C 	C 	0.6507	0.5191	0.6614	-0.058
Mof_C 	C 	0.7885	0.5722	0.6172	0.171
Mof_C 	C 	0.5912	0.712	0.6891	0.343
Mof_C 	C 	0.6562	0.6273	0.6644	-0.063
Mof_C 	C 	0.75	0.5726	0.4556	0.1
Mof_C 	C 	0.8785	0.5722	0.5789	-0.218
Mof_C 	C 	0.8689	0.6675	0.4905	0.069
Mof_N 	N 	0.3387	0.2577	0.86405	-0.246
Mof_N 	N 	0.5147	0.2628	0.86794	-0.246
Mof_N 	N 	0.3427	0.1878	0.0544	-0.228
Mof_N 	N 	0.4086	0.1588	0.97482	-0.051
Mof_N 	N 	0.471	0.2356	0.9969	-0.091
Mof_N 	N 	0.6613	0.7423	0.36405	-0.246
Mof_N 	N 	0.4853	0.7372	0.36794	-0.246
Mof_N 	N 	0.6573	0.8122	0.5544	-0.235
Mof_N 	N 	0.5914	0.8412	0.47482	-0.067
Mof_N 	N 	0.529	0.7644	0.4969	-0.109
Mof_N 	N 	0.2423	0.8387	0.11405	-0.246
Mof_N 	N 	0.2372	0.0147	0.11794	-0.252
Mof_N 	N 	0.3122	0.8427	0.3044	-0.235
Mof_N 	N 	0.3412	0.9086	0.22482	-0.067
Mof_N 	N 	0.2644	0.971	0.2469	-0.108
Mof_N 	N 	0.7577	0.1613	0.61405	-0.245
Mof_N 	N 	0.7628	0.9853	0.61794	-0.25
Mof_N 	N 	0.6878	0.1573	0.8044	-0.235
Mof_N 	N 	0.6588	0.0914	0.72482	-0.067
Mof_N 	N 	0.7356	0.029	0.7469	-0.108
Mof_N 	N 	0.1613	0.7577	0.38595	-0.245
Mof_N 	N 	0.9853	0.7628	0.38206	-0.252
Mof_N 	N 	0.1573	0.6878	0.1956	-0.235
Mof_N 	N 	0.0914	0.6588	0.27518	-0.067
Mof_N 	N 	0.029	0.7356	0.2531	-0.109
Mof_N 	N 	0.8387	0.2423	0.88595	-0.245
Mof_N 	N 	0.0147	0.2372	0.88206	-0.253
Mof_N 	N 	0.8427	0.3122	0.6956	-0.235
Mof_N 	N 	0.9086	0.3412	0.77518	-0.067
Mof_N 	N 	0.971	0.2644	0.7531	-0.108
Mof_N 	N 	0.2577	0.3387	0.13595	-0.246
Mof_N 	N 	0.2628	0.5147	0.13206	-0.246
Mof_N 	N 	0.1878	0.3427	0.9456	-0.241
Mof_N 	N 	0.1588	0.4086	0.02518	-0.084
Mof_N 	N 	0.2356	0.471	0.0031	-0.128
Mof_N 	N 	0.7423	0.6613	0.63595	-0.246
Mof_N 	N 	0.7372	0.4853	0.63206	-0.246
Mof_N 	N 	0.8122	0.6573	0.4456	-0.235
Mof_N 	N 	0.8412	0.5914	0.52518	-0.067
Mof_N 	N 	0.7644	0.529	0.5031	-0.109
Mof_O 	O 	0.6603	0.3954	0.83198	-0.406
Mof_O 	O 	0.1939	0.3874	0.82553	-0.41
Mof_O 	O 	0.545	0.5128	0.8025	-0.41
Mof_O 	O 	0.308	0.4817	0.7791	-0.443
Mof_O 	O 	0.3397	0.6046	0.33198	-0.408
Mof_O 	O 	0.8061	0.6126	0.32553	-0.411
Mof_O 	O 	0.455	0.4872	0.3025	-0.412
Mof_O 	O 	0.692	0.5183	0.2791	-0.445
Mof_O 	O 	0.1046	0.1603	0.08198	-0.411
Mof_O 	O 	0.1126	0.6939	0.07553	-0.414
Mof_O 	O 	0.9872	0.045	0.0525	-0.41
Mof_O 	O 	0.0183	0.808	0.0291	-0.45
Mof_O 	O 	0.8954	0.8397	0.58198	-0.405
Mof_O 	O 	0.8874	0.3061	0.57553	-0.41
Mof_O 	O 	0.0128	0.955	0.5525	-0.4
Mof_O 	O 	0.9817	0.192	0.5291	-0.442
Mof_O 	O 	0.8397	0.8954	0.41802	-0.405
Mof_O 	O 	0.3061	0.8874	0.42447	-0.41
Mof_O 	O 	0.955	0.0128	0.4475	-0.402
Mof_O 	O 	0.192	0.9817	0.4709	-0.441
Mof_O 	O 	0.1603	0.1046	0.91802	-0.399
Mof_O 	O 	0.6939	0.1126	0.92447	-0.406
Mof_O 	O 	0.045	0.9872	0.9475	-0.384
Mof_O 	O 	0.808	0.0183	0.9709	-0.429
Mof_O 	O 	0.3954	0.6603	0.16802	-0.41
Mof_O 	O 	0.3874	0.1939	0.17447	-0.412
Mof_O 	O 	0.5128	0.545	0.1975	-0.413
Mof_O 	O 	0.4817	0.308	0.2209	-0.445
Mof_O 	O 	0.6046	0.3397	0.66802	-0.408
Mof_O 	O 	0.6126	0.8061	0.67447	-0.41
Mof_O 	O 	0.4872	0.455	0.6975	-0.412
Mof_O 	O 	0.5183	0.692	0.7209	-0.442
_end
