data_functionalizedCrystal
_audit_creation_method	'EQeq! by Chris Wilmer'
_symmetry_space_group_name_H-M	'P1'
_symmetry_Int_Tables_number	1
_symmetry_cell_setting	triclinic
loop_
_symmetry_equiv_pos_as_xyz
  x,y,z
_cell_length_a	9.8727
_cell_length_b	17.5138
_cell_length_c	18.1642
_cell_angle_alpha	92.1357
_cell_angle_beta	90
_cell_angle_gamma	106.371
loop_
_atom_site_label
_atom_site_type_symbol
_atom_site_fract_x
_atom_site_fract_y
_atom_site_fract_z
_atom_site_charge
Mof_Zn	Zn	0.35037	0.30614	0.99656	1.241
Mof_Zn	Zn	0.04423	0.69386	0.50344	1.227
Mof_Zn	Zn	0.64963	0.69386	0.00344	1.22
Mof_Zn	Zn	0.95577	0.30614	0.49656	1.235
Mof_Zn	Zn	0.5	0.5	-0	1.225
Mof_Zn	Zn	-3.53958e-18	0.5	0.5	1.23
Mof_H 	H 	0.5127	0.2652	0.7778	0.051
Mof_H 	H 	0.7466	0.4896	0.8341	0.055
Mof_H 	H 	0.8654	0.4956	0.7229	0.046
Mof_H 	H 	0.639	0.2692	0.6686	0.047
Mof_H 	H 	0.9709	0.4318	0.1097	0.016
Mof_H 	H 	0.1805	0.4926	0.9188	0.006
Mof_H 	H 	0.2041	0.0638	0.0669	0.056
Mof_H 	H 	0.9126	0.0692	0.9135	0.048
Mof_H 	H 	0.2475	0.7348	0.7222	0.046
Mof_H 	H 	0.257	0.5104	0.6659	0.051
Mof_H 	H 	0.3698	0.5044	0.7771	0.044
Mof_H 	H 	0.3698	0.7308	0.8314	0.049
Mof_H 	H 	0.5391	0.5682	0.3903	0.049
Mof_H 	H 	0.6879	0.5074	0.5812	0.046
Mof_H 	H 	0.1403	0.9362	0.4331	0.064
Mof_H 	H 	0.8434	0.9308	0.5865	0.054
Mof_H 	H 	0.4873	0.7348	0.2222	0.047
Mof_H 	H 	0.2534	0.5104	0.1659	0.052
Mof_H 	H 	0.1346	0.5044	0.2771	0.04
Mof_H 	H 	0.361	0.7308	0.3314	0.046
Mof_H 	H 	0.0291	0.5682	0.8903	0.082
Mof_H 	H 	0.8195	0.5074	0.0812	0.086
Mof_H 	H 	0.7959	0.9362	0.9331	0.04
Mof_H 	H 	0.0874	0.9308	0.0865	0.03
Mof_H 	H 	0.7525	0.2652	0.2778	0.052
Mof_H 	H 	0.743	0.4896	0.3341	0.055
Mof_H 	H 	0.6302	0.4956	0.2229	0.042
Mof_H 	H 	0.6302	0.2692	0.1686	0.044
Mof_H 	H 	0.4609	0.4318	0.6097	0.048
Mof_H 	H 	0.3121	0.4926	0.4188	0.045
Mof_H 	H 	0.8597	0.0638	0.5669	0.032
Mof_H 	H 	0.1566	0.0692	0.4135	0.025
Mof_C 	C 	0.54674	0.37208	0.89012	0.37
Mof_C 	C 	0.61991	0.37582	0.81758	-0.073
Mof_C 	C 	0.58658	0.31156	0.76733	-0.02
Mof_C 	C 	0.72423	0.44486	0.8004	-0.024
Mof_C 	C 	0.84406	0.38752	0.61437	0.387
Mof_C 	C 	0.76487	0.38294	0.68477	-0.09
Mof_C 	C 	0.7952	0.4482	0.7345	-0.015
Mof_C 	C 	0.6601	0.3142	0.70182	-0.011
Mof_C 	C 	0.18661	0.40482	0.0353	0.337
Mof_C 	C 	0.09179	0.45538	0.0172	-0.189
Mof_C 	C 	0.98273	0.45966	0.0652	0.099
Mof_C 	C 	0.10747	0.49574	0.95184	0.109
Mof_C 	C 	0.14407	0.16694	0.9762	0.363
Mof_C 	C 	0.06857	0.08054	0.9885	-0.054
Mof_C 	C 	0.12054	0.03808	0.0396	-0.066
Mof_C 	C 	0.94874	0.04148	0.949	-0.018
Mof_C 	C 	0.17466	0.62792	0.60988	0.371
Mof_C 	C 	0.24409	0.62418	0.68242	-0.082
Mof_C 	C 	0.27502	0.68844	0.73267	-0.019
Mof_C 	C 	0.27937	0.55514	0.6996	-0.024
Mof_C 	C 	0.45654	0.61248	0.88563	0.385
Mof_C 	C 	0.38193	0.61706	0.81523	-0.089
Mof_C 	C 	0.347	0.5518	0.7655	-0.019
Mof_C 	C 	0.3459	0.6858	0.79818	-0.016
Mof_C 	C 	0.78179	0.59518	0.4647	0.337
Mof_C 	C 	0.63641	0.54462	0.4828	-0.073
Mof_C 	C 	0.52307	0.54034	0.4348	-0.017
Mof_C 	C 	0.61173	0.50426	0.54816	-0.021
Mof_C 	C 	0.97713	0.83306	0.5238	0.336
Mof_C 	C 	0.98803	0.91946	0.5115	-0.025
Mof_C 	C 	0.08246	0.96192	0.4604	-0.084
Mof_C 	C 	0.90726	0.95852	0.551	-0.065
Mof_C 	C 	0.45326	0.62792	0.10988	0.373
Mof_C 	C 	0.38009	0.62418	0.18242	-0.08
Mof_C 	C 	0.41342	0.68844	0.23267	-0.021
Mof_C 	C 	0.27577	0.55514	0.1996	-0.027
Mof_C 	C 	0.15594	0.61248	0.38563	0.386
Mof_C 	C 	0.23513	0.61706	0.31523	-0.094
Mof_C 	C 	0.2048	0.5518	0.2655	-0.017
Mof_C 	C 	0.3399	0.6858	0.29818	-0.013
Mof_C 	C 	0.81339	0.59518	0.9647	0.342
Mof_C 	C 	0.90821	0.54462	0.9828	0.049
Mof_C 	C 	0.01727	0.54034	0.9348	-0.135
Mof_C 	C 	0.89253	0.50426	0.04816	-0.153
Mof_C 	C 	0.85593	0.83306	0.0238	0.293
Mof_C 	C 	0.93143	0.91946	0.0115	-0.095
Mof_C 	C 	0.87946	0.96192	0.9604	0.021
Mof_C 	C 	0.05126	0.95852	0.051	-0.026
Mof_C 	C 	0.82534	0.37208	0.39012	0.371
Mof_C 	C 	0.75591	0.37582	0.31758	-0.073
Mof_C 	C 	0.72498	0.31156	0.26733	-0.022
Mof_C 	C 	0.72063	0.44486	0.3004	-0.027
Mof_C 	C 	0.54346	0.38752	0.11437	0.388
Mof_C 	C 	0.61807	0.38294	0.18477	-0.095
Mof_C 	C 	0.653	0.4482	0.2345	-0.014
Mof_C 	C 	0.6541	0.3142	0.20182	-0.009
Mof_C 	C 	0.21821	0.40482	0.5353	0.34
Mof_C 	C 	0.36359	0.45538	0.5172	-0.075
Mof_C 	C 	0.47693	0.45966	0.5652	-0.015
Mof_C 	C 	0.38827	0.49574	0.45184	-0.019
Mof_C 	C 	0.02287	0.16694	0.4762	0.321
Mof_C 	C 	0.01197	0.08054	0.4885	-0.114
Mof_C 	C 	0.91754	0.03808	0.5396	0.033
Mof_C 	C 	0.09274	0.04148	0.449	0.016
Mof_O 	O 	0.58954	0.42948	0.93523	-0.445
Mof_O 	O 	0.44778	0.30976	0.90153	-0.453
Mof_O 	O 	0.91009	0.45518	0.59491	-0.456
Mof_O 	O 	0.83866	0.32192	0.58126	-0.462
Mof_O 	O 	0.28691	0.40462	0.99091	-0.517
Mof_O 	O 	0.16197	0.36394	0.09053	-0.336
Mof_O 	O 	0.24614	0.19928	0.02	-0.482
Mof_O 	O 	0.10641	0.20082	0.9258	-0.327
Mof_O 	O 	0.16006	0.57052	0.56477	-0.463
Mof_O 	O 	0.13802	0.69024	0.59847	-0.467
Mof_O 	O 	0.45491	0.54482	0.90509	-0.452
Mof_O 	O 	0.51674	0.67808	0.91874	-0.454
Mof_O 	O 	0.88229	0.59538	0.50909	-0.535
Mof_O 	O 	0.79803	0.63606	0.40947	-0.324
Mof_O 	O 	0.04686	0.80072	0.48	-0.463
Mof_O 	O 	0.90559	0.79918	0.5742	-0.319
Mof_O 	O 	0.41046	0.57052	0.06477	-0.47
Mof_O 	O 	0.55222	0.69024	0.09847	-0.469
Mof_O 	O 	0.08991	0.54482	0.40509	-0.47
Mof_O 	O 	0.16134	0.67808	0.41874	-0.469
Mof_O 	O 	0.71309	0.59538	0.00909	-0.57
Mof_O 	O 	0.83803	0.63606	0.90947	-0.319
Mof_O 	O 	0.75386	0.80072	0.98	-0.409
Mof_O 	O 	0.89359	0.79918	0.0742	-0.315
Mof_O 	O 	0.83994	0.42948	0.43523	-0.454
Mof_O 	O 	0.86198	0.30976	0.40153	-0.455
Mof_O 	O 	0.54509	0.45518	0.09491	-0.471
Mof_O 	O 	0.48326	0.32192	0.08126	-0.477
Mof_O 	O 	0.11771	0.40462	0.49091	-0.551
Mof_O 	O 	0.20197	0.36394	0.59053	-0.331
Mof_O 	O 	0.95314	0.19928	0.52	-0.432
Mof_O 	O 	0.09441	0.20082	0.4258	-0.322
Mof_H 	H 	0.2018	0.2842	0.1613	0.139
Mof_H 	H 	0.0723	0.2172	0.1694	0.123
Mof_H 	H 	0.2815	0.179	0.1617	-0.018
Mof_H 	H 	0.3202	0.2214	0.2418	-0.026
Mof_H 	H 	0.2143	0.0844	0.2534	0.175
Mof_H 	H 	0.1147	0.1332	0.2895	0.193
Mof_H 	H 	0.0773	0.0906	0.2097	0.175
Mof_H 	H 	0.0703	0.2482	0.2947	-0.045
Mof_H 	H 	0.0428	0.3146	0.2432	-0.049
Mof_H 	H 	0.1997	0.3726	0.3356	0.223
Mof_H 	H 	0.3031	0.3214	0.309	0.228
Mof_H 	H 	0.2754	0.3878	0.2575	0.223
Mof_C 	C 	0.2411	0.1934	0.2083	0.183
Mof_C 	C 	0.1542	0.1188	0.2433	-0.546
Mof_C 	C 	0.1143	0.2882	0.2582	0.271
Mof_C 	C 	0.2327	0.3472	0.2929	-0.66
Mof_N 	N 	0.15371	0.24662	0.1931	-0.303
Mof_H 	H 	0.9176	0.7158	0.3387	0.147
Mof_H 	H 	0.8551	0.7828	0.3306	0.132
Mof_H 	H 	0.1025	0.821	0.3383	-0.036
Mof_H 	H 	0.0988	0.7786	0.2582	-0.048
Mof_H 	H 	0.1299	0.9156	0.2466	0.217
Mof_H 	H 	0.9815	0.8668	0.2105	0.249
Mof_H 	H 	0.9867	0.9094	0.2903	0.235
Mof_H 	H 	0.8221	0.7518	0.2053	-0.045
Mof_H 	H 	0.7282	0.6854	0.2568	-0.046
Mof_H 	H 	0.8271	0.6274	0.1644	0.226
Mof_H 	H 	0.9817	0.6786	0.191	0.235
Mof_H 	H 	0.8876	0.6122	0.2425	0.229
Mof_C 	C 	0.0477	0.8066	0.2917	0.236
Mof_C 	C 	0.0354	0.8812	0.2567	-0.699
Mof_C 	C 	0.8261	0.7118	0.2418	0.279
Mof_C 	C 	0.8855	0.6528	0.2071	-0.671
Mof_N 	N 	0.90709	0.75338	0.3069	-0.311
Mof_H 	H 	0.7982	0.7158	0.8387	0.144
Mof_H 	H 	0.9277	0.7828	0.8306	0.136
Mof_H 	H 	0.7185	0.821	0.8383	-0.019
Mof_H 	H 	0.6798	0.7786	0.7582	-0.03
Mof_H 	H 	0.7857	0.9156	0.7466	0.187
Mof_H 	H 	0.8853	0.8668	0.7105	0.205
Mof_H 	H 	0.9227	0.9094	0.7903	0.193
Mof_H 	H 	0.9297	0.7518	0.7053	-0.036
Mof_H 	H 	0.9572	0.6854	0.7568	-0.037
Mof_H 	H 	0.8003	0.6274	0.6644	0.225
Mof_H 	H 	0.6969	0.6786	0.691	0.228
Mof_H 	H 	0.7246	0.6122	0.7425	0.223
Mof_C 	C 	0.7589	0.8066	0.7917	0.197
Mof_C 	C 	0.8458	0.8812	0.7567	-0.57
Mof_C 	C 	0.8857	0.7118	0.7418	0.266
Mof_C 	C 	0.7673	0.6528	0.7071	-0.656
Mof_N 	N 	0.84629	0.75338	0.8069	-0.307
Mof_H 	H 	0.0824	0.2842	0.6613	0.135
Mof_H 	H 	0.1449	0.2172	0.6694	0.125
Mof_H 	H 	0.8975	0.179	0.6617	0.003
Mof_H 	H 	0.9012	0.2214	0.7418	-0.003
Mof_H 	H 	0.8701	0.0844	0.7534	0.134
Mof_H 	H 	0.0185	0.1332	0.7895	0.136
Mof_H 	H 	0.0133	0.0906	0.7097	0.119
Mof_H 	H 	0.1779	0.2482	0.7947	-0.036
Mof_H 	H 	0.2718	0.3146	0.7432	-0.039
Mof_H 	H 	0.1729	0.3726	0.8356	0.221
Mof_H 	H 	0.0183	0.3214	0.809	0.219
Mof_H 	H 	0.1124	0.3878	0.7575	0.216
Mof_C 	C 	0.9523	0.1934	0.7083	0.13
Mof_C 	C 	0.9646	0.1188	0.7433	-0.381
Mof_C 	C 	0.1739	0.2882	0.7582	0.256
Mof_C 	C 	0.1145	0.3472	0.7929	-0.643
Mof_N 	N 	0.09291	0.24662	0.6931	-0.298
_end
