data_functionalizedCrystal
_audit_creation_method	'EQeq! by Chris Wilmer'
_symmetry_space_group_name_H-M	'P1'
_symmetry_Int_Tables_number	1
_symmetry_cell_setting	triclinic
loop_
_symmetry_equiv_pos_as_xyz
  x,y,z
_cell_length_a	28.0134
_cell_length_b	17.8914
_cell_length_c	12.7629
_cell_angle_alpha	90
_cell_angle_beta	90
_cell_angle_gamma	90
loop_
_atom_site_label
_atom_site_type_symbol
_atom_site_fract_x
_atom_site_fract_y
_atom_site_fract_z
_atom_site_charge
Mof_C 	C 	0.9561	0.3027	0.2605	-0.358
Mof_H 	H 	0.9309	0.3148	0.2113	0.113
Mof_H 	H 	0.9623	0.347	0.3023	0.145
Mof_C 	C 	0.9391	0.2401	0.3323	0.428
Mof_H 	H 	0.9722	0.2927	0.0569	0.072
Mof_C 	C 	0.7953	0.0123	0.9071	0.111
Mof_H 	H 	0.7789	0.0225	0.8453	0.018
Mof_C 	C 	0.8719	0.0125	0.8049	0.371
Mof_C 	C 	0.8446	0.0095	0.9072	-0.127
Mof_Mg	Mg	0.946	0.05775	0.33951	1.472
Mof_Mg	Mg	0.87712	0.05914	0.58191	1.463
Mof_O 	O 	0.94741	0.1736	0.3004	-0.599
Mof_O 	O 	0.9169	0.2565	0.4133	-0.334
Mof_O 	O 	0.88711	0.0553	0.4251	-0.793
Mof_O 	O 	0.04575	0.4449	0.1166	-0.579
Mof_O 	O 	0.69634	0.0472	0.9418	-0.471
Mof_O 	O 	0.90468	0.9656	0.7932	-0.402
Mof_O 	O 	0.86018	0.062	0.7388	-0.491
Mof_Ni	Ni	0.946	0.94225	0.66049	1.107
Mof_C 	C 	0.4561	0.8027	0.2605	-0.356
Mof_H 	H 	0.4309	0.8148	0.2113	0.113
Mof_H 	H 	0.4623	0.847	0.3023	0.147
Mof_C 	C 	0.4391	0.7401	0.3323	0.429
Mof_H 	H 	0.4722	0.7927	0.0569	0.074
Mof_C 	C 	0.2953	0.5123	0.9071	0.121
Mof_H 	H 	0.2789	0.5225	0.8453	0.017
Mof_C 	C 	0.3719	0.5125	0.8049	0.401
Mof_C 	C 	0.3446	0.5095	0.9072	-0.134
Mof_Mg	Mg	0.446	0.55775	0.33951	1.472
Mof_Mg	Mg	0.37712	0.55914	0.58191	1.464
Mof_O 	O 	0.44741	0.6736	0.3004	-0.598
Mof_O 	O 	0.4169	0.7565	0.4133	-0.332
Mof_O 	O 	0.38711	0.5553	0.4251	-0.784
Mof_O 	O 	0.54575	0.9449	0.1166	-0.571
Mof_O 	O 	0.19634	0.5472	0.9418	-0.467
Mof_O 	O 	0.40468	0.4656	0.7932	-0.427
Mof_O 	O 	0.36018	0.562	0.7388	-0.494
Mof_Ni	Ni	0.446	0.44225	0.66049	1.104
Mof_C 	C 	0.0439	0.1973	0.7605	-0.355
Mof_H 	H 	0.0691	0.1852	0.7113	0.114
Mof_H 	H 	0.0377	0.153	0.8023	0.146
Mof_C 	C 	0.0609	0.2599	0.8323	0.429
Mof_H 	H 	0.0278	0.2073	0.5569	0.084
Mof_C 	C 	0.2047	0.4877	0.4071	0.102
Mof_H 	H 	0.2211	0.4775	0.3453	0.019
Mof_C 	C 	0.1281	0.4875	0.3049	0.407
Mof_C 	C 	0.1554	0.4905	0.4072	-0.162
Mof_Mg	Mg	0.054	0.44225	0.83951	1.473
Mof_Mg	Mg	0.12288	0.44086	0.08191	1.463
Mof_O 	O 	0.05259	0.3264	0.8004	-0.595
Mof_O 	O 	0.0831	0.2435	0.9133	-0.325
Mof_O 	O 	0.11289	0.4447	0.9251	-0.773
Mof_O 	O 	0.95425	0.0551	0.6166	-0.587
Mof_O 	O 	0.30366	0.4528	0.4418	-0.492
Mof_O 	O 	0.09532	0.5344	0.2932	-0.433
Mof_O 	O 	0.13982	0.438	0.2388	-0.499
Mof_Ni	Ni	0.054	0.55775	0.16049	1.103
Mof_C 	C 	0.5439	0.6973	0.7605	-0.356
Mof_H 	H 	0.5691	0.6852	0.7113	0.116
Mof_H 	H 	0.5377	0.653	0.8023	0.148
Mof_C 	C 	0.5609	0.7599	0.8323	0.43
Mof_H 	H 	0.5278	0.7073	0.5569	0.085
Mof_C 	C 	0.7047	0.9877	0.4071	0.121
Mof_H 	H 	0.7211	0.9775	0.3453	0.017
Mof_C 	C 	0.6281	0.9875	0.3049	0.426
Mof_C 	C 	0.6554	0.9905	0.4072	-0.144
Mof_Mg	Mg	0.554	0.94225	0.83951	1.473
Mof_Mg	Mg	0.62288	0.94086	0.08191	1.463
Mof_O 	O 	0.55259	0.8264	0.8004	-0.594
Mof_O 	O 	0.5831	0.7435	0.9133	-0.322
Mof_O 	O 	0.61289	0.9447	0.9251	-0.762
Mof_O 	O 	0.45425	0.5551	0.6166	-0.577
Mof_O 	O 	0.80366	0.9528	0.4418	-0.473
Mof_O 	O 	0.59532	0.0344	0.2932	-0.451
Mof_O 	O 	0.63982	0.938	0.2388	-0.501
Mof_Ni	Ni	0.554	0.05775	0.16049	1.101
Mof_C 	C 	0.0439	0.8027	0.2395	-0.346
Mof_H 	H 	0.0691	0.8148	0.2887	0.111
Mof_H 	H 	0.0377	0.847	0.1977	0.143
Mof_C 	C 	0.0609	0.7401	0.1677	0.405
Mof_H 	H 	0.0278	0.7927	0.4431	0.08
Mof_C 	C 	0.2047	0.5123	0.5929	0.105
Mof_H 	H 	0.2211	0.5225	0.6547	0.02
Mof_C 	C 	0.1281	0.5125	0.6951	0.429
Mof_C 	C 	0.1554	0.5095	0.5928	-0.167
Mof_Mg	Mg	0.12288	0.55914	0.91809	1.465
Mof_O 	O 	0.05259	0.6736	0.1996	-0.535
Mof_O 	O 	0.0831	0.7565	0.0867	-0.33
Mof_O 	O 	0.11289	0.5553	0.0749	-0.721
Mof_O 	O 	0.95425	0.9449	0.3834	-0.619
Mof_O 	O 	0.30366	0.5472	0.5582	-0.491
Mof_O 	O 	0.09532	0.4656	0.7068	-0.501
Mof_O 	O 	0.13982	0.562	0.7612	-0.507
Mof_C 	C 	0.5439	0.3027	0.2395	-0.345
Mof_H 	H 	0.5691	0.3148	0.2887	0.11
Mof_H 	H 	0.5377	0.347	0.1977	0.141
Mof_C 	C 	0.5609	0.2401	0.1677	0.404
Mof_H 	H 	0.5278	0.2927	0.4431	0.081
Mof_C 	C 	0.7047	0.0123	0.5929	0.098
Mof_H 	H 	0.7211	0.0225	0.6547	0.02
Mof_C 	C 	0.6281	0.0125	0.6951	0.398
Mof_C 	C 	0.6554	0.0095	0.5928	-0.155
Mof_Mg	Mg	0.62288	0.05914	0.91809	1.463
Mof_O 	O 	0.55259	0.1736	0.1996	-0.535
Mof_O 	O 	0.5831	0.2565	0.0867	-0.331
Mof_O 	O 	0.61289	0.0553	0.0749	-0.727
Mof_O 	O 	0.45425	0.4449	0.3834	-0.626
Mof_O 	O 	0.80366	0.0472	0.5582	-0.49
Mof_O 	O 	0.59532	0.9656	0.7068	-0.476
Mof_O 	O 	0.63982	0.062	0.7612	-0.503
Mof_C 	C 	0.9561	0.6973	0.7395	-0.347
Mof_H 	H 	0.9309	0.6852	0.7887	0.114
Mof_H 	H 	0.9623	0.653	0.6977	0.143
Mof_C 	C 	0.9391	0.7599	0.6677	0.406
Mof_H 	H 	0.9722	0.7073	0.9431	0.091
Mof_C 	C 	0.7953	0.9877	0.0929	0.117
Mof_H 	H 	0.7789	0.9775	0.1547	0.017
Mof_C 	C 	0.8719	0.9875	0.1951	0.444
Mof_C 	C 	0.8446	0.9905	0.0928	-0.146
Mof_Mg	Mg	0.87712	0.94086	0.41809	1.464
Mof_O 	O 	0.94741	0.8264	0.6996	-0.533
Mof_O 	O 	0.9169	0.7435	0.5867	-0.321
Mof_O 	O 	0.88711	0.9447	0.5749	-0.701
Mof_O 	O 	0.04575	0.5551	0.8834	-0.624
Mof_O 	O 	0.69634	0.9528	0.0582	-0.477
Mof_O 	O 	0.90468	0.0344	0.2068	-0.521
Mof_O 	O 	0.86018	0.938	0.2612	-0.511
Mof_C 	C 	0.4561	0.1973	0.7395	-0.344
Mof_H 	H 	0.4309	0.1852	0.7887	0.112
Mof_H 	H 	0.4623	0.153	0.6977	0.141
Mof_C 	C 	0.4391	0.2599	0.6677	0.405
Mof_H 	H 	0.4722	0.2073	0.9431	0.091
Mof_C 	C 	0.2953	0.4877	0.0929	0.101
Mof_H 	H 	0.2789	0.4775	0.1547	0.019
Mof_C 	C 	0.3719	0.4875	0.1951	0.425
Mof_C 	C 	0.3446	0.4905	0.0928	-0.159
Mof_Mg	Mg	0.37712	0.44086	0.41809	1.463
Mof_O 	O 	0.44741	0.3264	0.6996	-0.532
Mof_O 	O 	0.4169	0.2435	0.5867	-0.322
Mof_O 	O 	0.38711	0.4447	0.5749	-0.71
Mof_O 	O 	0.54575	0.0551	0.8834	-0.633
Mof_O 	O 	0.19634	0.4528	0.0582	-0.492
Mof_O 	O 	0.40468	0.5344	0.2068	-0.503
Mof_O 	O 	0.36018	0.438	0.2612	-0.509
Mof_C 	C 	0.0439	0.6973	0.7395	-0.357
Mof_H 	H 	0.0691	0.6852	0.7887	0.117
Mof_H 	H 	0.0377	0.653	0.6977	0.146
Mof_C 	C 	0.0609	0.7599	0.6677	0.431
Mof_H 	H 	0.0278	0.7073	0.9431	0.095
Mof_C 	C 	0.2047	0.9877	0.0929	0.114
Mof_H 	H 	0.2211	0.9775	0.1547	0.019
Mof_C 	C 	0.1281	0.9875	0.1951	0.422
Mof_C 	C 	0.1554	0.9905	0.0928	-0.14
Mof_Mg	Mg	0.054	0.94225	0.66049	1.473
Mof_Mg	Mg	0.12288	0.94086	0.41809	1.465
Mof_O 	O 	0.05259	0.8264	0.6996	-0.595
Mof_O 	O 	0.0831	0.7435	0.5867	-0.333
Mof_O 	O 	0.11289	0.9447	0.5749	-0.773
Mof_O 	O 	0.95425	0.5551	0.8834	-0.576
Mof_O 	O 	0.30366	0.9528	0.0582	-0.478
Mof_O 	O 	0.09532	0.0344	0.2068	-0.451
Mof_O 	O 	0.13982	0.938	0.2612	-0.499
Mof_Ni	Ni	0.054	0.05775	0.33951	1.101
Mof_C 	C 	0.5439	0.1973	0.7395	-0.356
Mof_H 	H 	0.5691	0.1852	0.7887	0.116
Mof_H 	H 	0.5377	0.153	0.6977	0.143
Mof_C 	C 	0.5609	0.2599	0.6677	0.429
Mof_H 	H 	0.5278	0.2073	0.9431	0.094
Mof_C 	C 	0.7047	0.4877	0.0929	0.098
Mof_H 	H 	0.7211	0.4775	0.1547	0.02
Mof_C 	C 	0.6281	0.4875	0.1951	0.403
Mof_C 	C 	0.6554	0.4905	0.0928	-0.153
Mof_Mg	Mg	0.554	0.44225	0.66049	1.472
Mof_Mg	Mg	0.62288	0.44086	0.41809	1.464
Mof_O 	O 	0.55259	0.3264	0.6996	-0.596
Mof_O 	O 	0.5831	0.2435	0.5867	-0.334
Mof_O 	O 	0.61289	0.4447	0.5749	-0.783
Mof_O 	O 	0.45425	0.0551	0.8834	-0.585
Mof_O 	O 	0.80366	0.4528	0.0582	-0.492
Mof_O 	O 	0.59532	0.5344	0.2068	-0.434
Mof_O 	O 	0.63982	0.438	0.2612	-0.497
Mof_Ni	Ni	0.554	0.55775	0.33951	1.104
Mof_C 	C 	0.9561	0.8027	0.2395	-0.359
Mof_H 	H 	0.9309	0.8148	0.2887	0.116
Mof_H 	H 	0.9623	0.847	0.1977	0.145
Mof_C 	C 	0.9391	0.7401	0.1677	0.43
Mof_H 	H 	0.9722	0.7927	0.4431	0.082
Mof_C 	C 	0.7953	0.5123	0.5929	0.102
Mof_H 	H 	0.7789	0.5225	0.6547	0.021
Mof_C 	C 	0.8719	0.5125	0.6951	0.407
Mof_C 	C 	0.8446	0.5095	0.5928	-0.161
Mof_Mg	Mg	0.946	0.55775	0.16049	1.472
Mof_Mg	Mg	0.87712	0.55914	0.91809	1.465
Mof_O 	O 	0.94741	0.6736	0.1996	-0.6
Mof_O 	O 	0.9169	0.7565	0.0867	-0.342
Mof_O 	O 	0.88711	0.5553	0.0749	-0.794
Mof_O 	O 	0.04575	0.9449	0.3834	-0.569
Mof_O 	O 	0.69634	0.5472	0.5582	-0.491
Mof_O 	O 	0.90468	0.4656	0.7068	-0.433
Mof_O 	O 	0.86018	0.562	0.7612	-0.495
Mof_Ni	Ni	0.946	0.44225	0.83951	1.104
Mof_C 	C 	0.4561	0.3027	0.2395	-0.356
Mof_H 	H 	0.4309	0.3148	0.2887	0.114
Mof_H 	H 	0.4623	0.347	0.1977	0.143
Mof_C 	C 	0.4391	0.2401	0.1677	0.429
Mof_H 	H 	0.4722	0.2927	0.4431	0.084
Mof_C 	C 	0.2953	0.0123	0.5929	0.095
Mof_H 	H 	0.2789	0.0225	0.6547	0.022
Mof_C 	C 	0.3719	0.0125	0.6951	0.376
Mof_C 	C 	0.3446	0.0095	0.5928	-0.149
Mof_Mg	Mg	0.446	0.05775	0.16049	1.472
Mof_Mg	Mg	0.37712	0.05914	0.91809	1.464
Mof_O 	O 	0.44741	0.1736	0.1996	-0.599
Mof_O 	O 	0.4169	0.2565	0.0867	-0.342
Mof_O 	O 	0.38711	0.0553	0.0749	-0.801
Mof_O 	O 	0.54575	0.4449	0.3834	-0.577
Mof_O 	O 	0.19634	0.0472	0.5582	-0.491
Mof_O 	O 	0.40468	0.9656	0.7068	-0.408
Mof_O 	O 	0.36018	0.062	0.7612	-0.492
Mof_Ni	Ni	0.446	0.94225	0.83951	1.108
Mof_C 	C 	0.9561	0.1973	0.7605	-0.345
Mof_H 	H 	0.9309	0.1852	0.7113	0.11
Mof_H 	H 	0.9623	0.153	0.8023	0.143
Mof_C 	C 	0.9391	0.2599	0.8323	0.405
Mof_H 	H 	0.9722	0.2073	0.5569	0.079
Mof_C 	C 	0.7953	0.4877	0.4071	0.105
Mof_H 	H 	0.7789	0.4775	0.3453	0.018
Mof_C 	C 	0.8719	0.4875	0.3049	0.429
Mof_C 	C 	0.8446	0.4905	0.4072	-0.169
Mof_Mg	Mg	0.87712	0.44086	0.08191	1.462
Mof_O 	O 	0.94741	0.3264	0.8004	-0.532
Mof_O 	O 	0.9169	0.2435	0.9133	-0.314
Mof_O 	O 	0.88711	0.4447	0.9251	-0.7
Mof_O 	O 	0.04575	0.0551	0.6166	-0.634
Mof_O 	O 	0.69634	0.4528	0.4418	-0.492
Mof_O 	O 	0.90468	0.5344	0.2932	-0.503
Mof_O 	O 	0.86018	0.438	0.2388	-0.511
Mof_C 	C 	0.4561	0.6973	0.7605	-0.345
Mof_H 	H 	0.4309	0.6852	0.7113	0.112
Mof_H 	H 	0.4623	0.653	0.8023	0.145
Mof_C 	C 	0.4391	0.7599	0.8323	0.405
Mof_H 	H 	0.4722	0.7073	0.5569	0.082
Mof_C 	C 	0.2953	0.9877	0.4071	0.124
Mof_H 	H 	0.2789	0.9775	0.3453	0.016
Mof_C 	C 	0.3719	0.9875	0.3049	0.448
Mof_C 	C 	0.3446	0.9905	0.4072	-0.15
Mof_Mg	Mg	0.37712	0.94086	0.08191	1.463
Mof_O 	O 	0.44741	0.8264	0.8004	-0.531
Mof_O 	O 	0.4169	0.7435	0.9133	-0.311
Mof_O 	O 	0.38711	0.9447	0.9251	-0.689
Mof_O 	O 	0.54575	0.5551	0.6166	-0.625
Mof_O 	O 	0.19634	0.9528	0.4418	-0.473
Mof_O 	O 	0.40468	0.0344	0.2932	-0.52
Mof_O 	O 	0.36018	0.938	0.2388	-0.513
Mof_C 	C 	0.0439	0.3027	0.2605	-0.343
Mof_H 	H 	0.0691	0.3148	0.2113	0.108
Mof_H 	H 	0.0377	0.347	0.3023	0.143
Mof_C 	C 	0.0609	0.2401	0.3323	0.404
Mof_H 	H 	0.0278	0.2927	0.0569	0.071
Mof_C 	C 	0.2047	0.0123	0.9071	0.114
Mof_H 	H 	0.2211	0.0225	0.8453	0.017
Mof_C 	C 	0.1281	0.0125	0.8049	0.394
Mof_C 	C 	0.1554	0.0095	0.9072	-0.134
Mof_Mg	Mg	0.12288	0.05914	0.58191	1.463
Mof_O 	O 	0.05259	0.1736	0.3004	-0.534
Mof_O 	O 	0.0831	0.2565	0.4133	-0.322
Mof_O 	O 	0.11289	0.0553	0.4251	-0.719
Mof_O 	O 	0.95425	0.4449	0.1166	-0.629
Mof_O 	O 	0.30366	0.0472	0.9418	-0.47
Mof_O 	O 	0.09532	0.9656	0.7932	-0.471
Mof_O 	O 	0.13982	0.062	0.7388	-0.503
Mof_C 	C 	0.5439	0.8027	0.2605	-0.345
Mof_H 	H 	0.5691	0.8148	0.2113	0.109
Mof_H 	H 	0.5377	0.847	0.3023	0.145
Mof_C 	C 	0.5609	0.7401	0.3323	0.404
Mof_H 	H 	0.5278	0.7927	0.0569	0.071
Mof_C 	C 	0.7047	0.5123	0.9071	0.124
Mof_H 	H 	0.7211	0.5225	0.8453	0.016
Mof_C 	C 	0.6281	0.5125	0.8049	0.423
Mof_C 	C 	0.6554	0.5095	0.9072	-0.141
Mof_Mg	Mg	0.62288	0.55914	0.58191	1.463
Mof_O 	O 	0.55259	0.6736	0.3004	-0.534
Mof_O 	O 	0.5831	0.7565	0.4133	-0.32
Mof_O 	O 	0.61289	0.5553	0.4251	-0.711
Mof_O 	O 	0.45425	0.9449	0.1166	-0.62
Mof_O 	O 	0.80366	0.5472	0.9418	-0.466
Mof_O 	O 	0.59532	0.4656	0.7932	-0.496
Mof_O 	O 	0.63982	0.562	0.7388	-0.506
Mof_P 	P 	3.64478e-34	0.41305	0.06898	0.488
Mof_N 	N 	1.33044e-33	0.2828	0.2013	-0.097
Mof_C 	C 	-8.29249e-34	0.3131	0.0921	-0.266
Mof_Ni	Ni	-6.64576e-34	0.16508	0.1885	1.05
Mof_O 	O 	-5.83094e-34	0.0583	0.2362	-0.638
Mof_O 	O 	-6.27048e-33	0.4184	0.9496	-0.571
Mof_P 	P 	0.5	0.91305	0.06898	0.484
Mof_N 	N 	0.5	0.7828	0.2013	-0.097
Mof_C 	C 	0.5	0.8131	0.0921	-0.268
Mof_Ni	Ni	0.5	0.66508	0.1885	1.049
Mof_O 	O 	0.5	0.5583	0.2362	-0.634
Mof_O 	O 	0.5	0.9184	0.9496	-0.565
Mof_P 	P 	9.71946e-34	0.08695	0.56898	0.505
Mof_N 	N 	1.19798e-33	0.2172	0.7013	-0.095
Mof_C 	C 	1.01144e-33	0.1869	0.5921	-0.274
Mof_Ni	Ni	1.17611e-33	0.33492	0.6885	1.052
Mof_O 	O 	1.2576e-33	0.4417	0.7362	-0.631
Mof_O 	O 	7.68018e-34	0.0816	0.4496	-0.591
Mof_P 	P 	0.5	0.58695	0.56898	0.505
Mof_N 	N 	0.5	0.7172	0.7013	-0.095
Mof_C 	C 	0.5	0.6869	0.5921	-0.278
Mof_Ni	Ni	0.5	0.83492	0.6885	1.052
Mof_O 	O 	0.5	0.9417	0.7362	-0.625
Mof_O 	O 	0.5	0.5816	0.4496	-0.588
Mof_P 	P 	7.36279e-34	0.91305	0.43102	0.506
Mof_N 	N 	3.46998e-33	0.7828	0.2987	-0.095
Mof_C 	C 	-3.24952e-33	0.8131	0.4079	-0.274
Mof_Ni	Ni	5.32112e-34	0.66508	0.3115	1.052
Mof_O 	O 	4.5063e-34	0.5583	0.2638	-0.631
Mof_O 	O 	-6.95241e-33	0.9184	0.5504	-0.583
Mof_P 	P 	0.5	0.41305	0.43102	0.505
Mof_N 	N 	0.5	0.2828	0.2987	-0.096
Mof_C 	C 	0.5	0.3131	0.4079	-0.277
Mof_Ni	Ni	0.5	0.16508	0.3115	1.051
Mof_O 	O 	0.5	0.0583	0.2638	-0.636
Mof_O 	O 	0.5	0.4184	0.5504	-0.588
Mof_P 	P 	1.59039e-33	0.58695	0.93102	0.524
Mof_N 	N 	5.31067e-33	0.7172	0.7987	-0.093
Mof_C 	C 	1.5509e-33	0.6869	0.9079	-0.284
Mof_Ni	Ni	9.27884e-33	0.83492	0.8115	1.056
Mof_O 	O 	1.30474e-33	0.9417	0.7638	-0.621
Mof_O 	O 	3.29247e-33	0.5816	0.0504	-0.604
Mof_P 	P 	0.5	0.08695	0.93102	0.52
Mof_N 	N 	0.5	0.2172	0.7987	-0.094
Mof_C 	C 	0.5	0.1869	0.9079	-0.285
Mof_Ni	Ni	0.5	0.33492	0.8115	1.054
Mof_O 	O 	0.5	0.4417	0.7638	-0.629
Mof_O 	O 	0.5	0.0816	0.0504	-0.607
Mof_C 	C 	0.7167	0	-0	0.386
Mof_C 	C 	0.77	0	-0	-0.188
Mof_C 	C 	0.8688	0	-0	0.052
Mof_H 	H 	0.902	0	-0	0.007
Mof_C 	C 	0.2167	0.5	-0	0.4
Mof_C 	C 	0.27	0.5	-0	-0.178
Mof_C 	C 	0.3688	0.5	-0	0.074
Mof_H 	H 	0.402	0.5	-0	0.005
Mof_C 	C 	0.2833	0.5	0.5	0.425
Mof_C 	C 	0.23	0.5	0.5	-0.161
Mof_C 	C 	0.1312	0.5	0.5	0.112
Mof_H 	H 	0.098	0.5	0.5	-0
Mof_C 	C 	0.7833	0	0.5	0.405
Mof_C 	C 	0.73	0	0.5	-0.175
Mof_C 	C 	0.6312	0	0.5	0.08
Mof_H 	H 	0.598	0	0.5	0.004
Mof_C 	C 	0.2833	0	-0	0.386
Mof_C 	C 	0.23	0	-0	-0.187
Mof_C 	C 	0.1312	0	-0	0.052
Mof_H 	H 	0.098	0	-0	0.008
Mof_C 	C 	0.7833	0.5	-0	0.4
Mof_C 	C 	0.73	0.5	-0	-0.178
Mof_C 	C 	0.6312	0.5	-0	0.074
Mof_H 	H 	0.598	0.5	-0	0.005
Mof_C 	C 	0.7167	0.5	0.5	0.425
Mof_C 	C 	0.77	0.5	0.5	-0.161
Mof_C 	C 	0.8688	0.5	0.5	0.112
Mof_H 	H 	0.902	0.5	0.5	-0.001
Mof_C 	C 	0.2167	0	0.5	0.405
Mof_C 	C 	0.27	0	0.5	-0.175
Mof_C 	C 	0.3688	0	0.5	0.08
Mof_H 	H 	0.402	0	0.5	0.004
_end
