data_functionalizedCrystal
_audit_creation_method	'EQeq! by Chris Wilmer'
_symmetry_space_group_name_H-M	'P1'
_symmetry_Int_Tables_number	1
_symmetry_cell_setting	triclinic
loop_
_symmetry_equiv_pos_as_xyz
  x,y,z
_cell_length_a	15.673
_cell_length_b	13.787
_cell_length_c	18.331
_cell_angle_alpha	90
_cell_angle_beta	90
_cell_angle_gamma	90
loop_
_atom_site_label
_atom_site_type_symbol
_atom_site_fract_x
_atom_site_fract_y
_atom_site_fract_z
_atom_site_charge
Mof_N 	N 	0.37085	0.5085	0.51263	-0.149
Mof_N 	N 	0.36379	0.62661	0.59251	-0.261
Mof_N 	N 	0.31423	0.50716	0.25276	-0.148
Mof_N 	N 	0.27542	0.62254	0.17723	-0.284
Mof_C 	C 	0.34918	0.3037	0.38244	0.077
Mof_C 	C 	0.36118	0.3559	0.44723	-0.154
Mof_H 	H 	0.3717	0.3226	0.4917	0.055
Mof_C 	C 	0.3576	0.4561	0.44619	0.153
Mof_C 	C 	0.3431	0.508	0.38268	-0.208
Mof_H 	H 	0.3421	0.5769	0.3828	0.101
Mof_C 	C 	0.3301	0.4558	0.319	0.164
Mof_C 	C 	0.33317	0.3558	0.31821	-0.166
Mof_H 	H 	0.3243	0.3219	0.2737	0.103
Mof_C 	C 	0.3347	0.5944	0.52998	0.088
Mof_H 	H 	0.2937	0.6271	0.5008	-0
Mof_C 	C 	0.4204	0.5586	0.61724	0.001
Mof_H 	H 	0.4515	0.5624	0.6616	0.025
Mof_C 	C 	0.4252	0.4853	0.56875	-0.005
Mof_H 	H 	0.4594	0.4286	0.5726	0.015
Mof_C 	C 	0.2787	0.5957	0.24608	0.097
Mof_H 	H 	0.2586	0.6336	0.2858	-0.031
Mof_C 	C 	0.31	0.5475	0.13752	0.007
Mof_H 	H 	0.3162	0.5464	0.086	0.019
Mof_C 	C 	0.3334	0.4761	0.18321	-0.005
Mof_H 	H 	0.3584	0.4158	0.1701	0.04
Mof_N 	N 	0.87085	0.9915	0.98737	-0.148
Mof_N 	N 	0.86379	0.87339	0.90749	-0.262
Mof_N 	N 	0.81423	0.99284	0.24724	-0.147
Mof_N 	N 	0.77542	0.87746	0.32277	-0.285
Mof_C 	C 	0.84918	0.1963	0.11756	0.074
Mof_C 	C 	0.86118	0.1441	0.05277	-0.152
Mof_H 	H 	0.8717	0.1774	0.0083	0.053
Mof_C 	C 	0.8576	0.0439	0.05381	0.147
Mof_C 	C 	0.8431	0.992	0.11732	-0.201
Mof_H 	H 	0.8421	0.9231	0.1172	0.099
Mof_C 	C 	0.8301	0.0442	0.181	0.159
Mof_C 	C 	0.83317	0.1442	0.18179	-0.163
Mof_H 	H 	0.8243	0.1781	0.2263	0.102
Mof_C 	C 	0.8347	0.9056	0.97002	0.088
Mof_H 	H 	0.7937	0.8729	0.9992	-0
Mof_C 	C 	0.9204	0.9414	0.88276	0.003
Mof_H 	H 	0.9515	0.9376	0.8384	0.024
Mof_C 	C 	0.9252	0.0147	0.93125	-0.008
Mof_H 	H 	0.9594	0.0714	0.9274	0.015
Mof_C 	C 	0.7787	0.9043	0.25392	0.096
Mof_H 	H 	0.7586	0.8664	0.2142	-0.031
Mof_C 	C 	0.81	0.9525	0.36248	0.01
Mof_H 	H 	0.8162	0.9536	0.414	0.018
Mof_C 	C 	0.8334	0.0239	0.31679	-0.009
Mof_H 	H 	0.8584	0.0842	0.3299	0.041
Mof_N 	N 	0.87085	0.5085	0.98737	-0.15
Mof_N 	N 	0.86379	0.62661	0.90749	-0.262
Mof_N 	N 	0.81423	0.50716	0.24724	-0.149
Mof_N 	N 	0.77542	0.62254	0.32277	-0.285
Mof_C 	C 	0.84918	0.3037	0.11756	0.077
Mof_C 	C 	0.86118	0.3559	0.05277	-0.156
Mof_H 	H 	0.8717	0.3226	0.0083	0.055
Mof_C 	C 	0.8576	0.4561	0.05381	0.153
Mof_C 	C 	0.8431	0.508	0.11732	-0.208
Mof_H 	H 	0.8421	0.5769	0.1172	0.101
Mof_C 	C 	0.8301	0.4558	0.181	0.165
Mof_C 	C 	0.83317	0.3558	0.18179	-0.167
Mof_H 	H 	0.8243	0.3219	0.2263	0.103
Mof_C 	C 	0.8347	0.5944	0.97002	0.088
Mof_H 	H 	0.7937	0.6271	0.9992	-0
Mof_C 	C 	0.9204	0.5586	0.88276	0.001
Mof_H 	H 	0.9515	0.5624	0.8384	0.025
Mof_C 	C 	0.9252	0.4853	0.93125	-0.005
Mof_H 	H 	0.9594	0.4286	0.9274	0.015
Mof_C 	C 	0.7787	0.5957	0.25392	0.097
Mof_H 	H 	0.7586	0.6336	0.2142	-0.031
Mof_C 	C 	0.81	0.5475	0.36248	0.007
Mof_H 	H 	0.8162	0.5464	0.414	0.019
Mof_C 	C 	0.8334	0.4761	0.31679	-0.005
Mof_H 	H 	0.8584	0.4158	0.3299	0.04
Mof_N 	N 	0.37085	0.9915	0.51263	-0.151
Mof_N 	N 	0.36379	0.87339	0.59251	-0.262
Mof_N 	N 	0.31423	0.99284	0.25276	-0.15
Mof_N 	N 	0.27542	0.87746	0.17723	-0.285
Mof_C 	C 	0.34918	0.1963	0.38244	0.077
Mof_C 	C 	0.36118	0.1441	0.44723	-0.156
Mof_H 	H 	0.3717	0.1774	0.4917	0.055
Mof_C 	C 	0.3576	0.0439	0.44619	0.154
Mof_C 	C 	0.3431	0.992	0.38268	-0.21
Mof_H 	H 	0.3421	0.9231	0.3828	0.101
Mof_C 	C 	0.3301	0.0442	0.319	0.166
Mof_C 	C 	0.33317	0.1442	0.31821	-0.168
Mof_H 	H 	0.3243	0.1781	0.2737	0.104
Mof_C 	C 	0.3347	0.9056	0.52998	0.088
Mof_H 	H 	0.2937	0.8729	0.5008	-0.001
Mof_C 	C 	0.4204	0.9414	0.61724	0
Mof_H 	H 	0.4515	0.9376	0.6616	0.025
Mof_C 	C 	0.4252	0.0147	0.56875	-0.004
Mof_H 	H 	0.4594	0.0714	0.5726	0.014
Mof_C 	C 	0.2787	0.9043	0.24608	0.096
Mof_H 	H 	0.2586	0.8664	0.2858	-0.031
Mof_C 	C 	0.31	0.9525	0.13752	0.006
Mof_H 	H 	0.3162	0.9536	0.086	0.019
Mof_C 	C 	0.3334	0.0239	0.18321	-0.004
Mof_H 	H 	0.3584	0.0842	0.1701	0.04
Mof_Zn	Zn	0.32777	0.75	0.64298	1.208
Mof_Zn	Zn	0.24157	0.75	0.13385	1.163
Mof_O 	O 	0.2006	0.75	0.63975	-0.455
Mof_O 	O 	0.1968	0.75	0.5188	-0.311
Mof_O 	O 	0.7922	0.75	0.46561	-0.459
Mof_O 	O 	0.911	0.75	0.40004	-0.329
Mof_O 	O 	0.8254	0.75	0.74601	-0.426
Mof_O 	O 	0.9548	0.75	0.78871	-0.369
Mof_C 	C 	0.0652	0.75	0.5844	-0.109
Mof_C 	C 	0.0145	0.75	0.5225	0.04
Mof_H 	H 	0.0403	0.75	0.4756	0.043
Mof_C 	C 	0.9264	0.75	0.5286	-0.099
Mof_C 	C 	0.8885	0.75	0.5978	0.04
Mof_H 	H 	0.8281	0.75	0.6024	0.047
Mof_C 	C 	0.9395	0.75	0.6596	-0.101
Mof_C 	C 	0.0268	0.75	0.6523	0.039
Mof_H 	H 	0.0614	0.75	0.6948	0.042
Mof_C 	C 	0.1615	0.75	0.579	0.341
Mof_C 	C 	0.8741	0.75	0.459	0.327
Mof_C 	C 	0.9047	0.75	0.736	0.317
Mof_Zn	Zn	0.82777	0.75	0.85702	1.208
Mof_Zn	Zn	0.74157	0.75	0.36615	1.163
Mof_O 	O 	0.7006	0.75	0.86025	-0.455
Mof_O 	O 	0.6968	0.75	0.9812	-0.311
Mof_O 	O 	0.2922	0.75	0.03439	-0.459
Mof_O 	O 	0.411	0.75	0.09996	-0.329
Mof_O 	O 	0.3254	0.75	0.75399	-0.426
Mof_O 	O 	0.4548	0.75	0.71129	-0.37
Mof_C 	C 	0.5652	0.75	0.9156	-0.111
Mof_C 	C 	0.5145	0.75	0.9775	0.042
Mof_H 	H 	0.5403	0.75	0.0244	0.042
Mof_C 	C 	0.4264	0.75	0.9714	-0.101
Mof_C 	C 	0.3885	0.75	0.9022	0.041
Mof_H 	H 	0.3281	0.75	0.8976	0.046
Mof_C 	C 	0.4395	0.75	0.8404	-0.104
Mof_C 	C 	0.5268	0.75	0.8477	0.042
Mof_H 	H 	0.5614	0.75	0.8052	0.041
Mof_C 	C 	0.6615	0.75	0.921	0.341
Mof_C 	C 	0.3741	0.75	0.041	0.328
Mof_C 	C 	0.4047	0.75	0.764	0.318
Mof_N 	N 	0.12915	0.4915	0.01263	-0.15
Mof_N 	N 	0.13621	0.37339	0.09251	-0.262
Mof_N 	N 	0.18577	0.49284	0.75276	-0.149
Mof_N 	N 	0.22458	0.37746	0.67723	-0.285
Mof_C 	C 	0.15082	0.6963	0.88244	0.077
Mof_C 	C 	0.13882	0.6441	0.94723	-0.156
Mof_H 	H 	0.1283	0.6774	0.9917	0.055
Mof_C 	C 	0.1424	0.5439	0.94619	0.153
Mof_C 	C 	0.1569	0.492	0.88268	-0.208
Mof_H 	H 	0.1579	0.4231	0.8828	0.101
Mof_C 	C 	0.1699	0.5442	0.819	0.165
Mof_C 	C 	0.16683	0.6442	0.81821	-0.167
Mof_H 	H 	0.1757	0.6781	0.7737	0.103
Mof_C 	C 	0.1653	0.4056	0.02998	0.088
Mof_H 	H 	0.2063	0.3729	0.0008	-0
Mof_C 	C 	0.0796	0.4414	0.11724	0.001
Mof_H 	H 	0.0485	0.4376	0.1616	0.025
Mof_C 	C 	0.0748	0.5147	0.06875	-0.005
Mof_H 	H 	0.0406	0.5714	0.0726	0.015
Mof_C 	C 	0.2213	0.4043	0.74608	0.097
Mof_H 	H 	0.2414	0.3664	0.7858	-0.031
Mof_C 	C 	0.19	0.4525	0.63752	0.007
Mof_H 	H 	0.1838	0.4536	0.586	0.019
Mof_C 	C 	0.1666	0.5239	0.68321	-0.005
Mof_H 	H 	0.1416	0.5842	0.6701	0.04
Mof_N 	N 	0.62915	0.0085	0.48737	-0.151
Mof_N 	N 	0.63621	0.12661	0.40749	-0.262
Mof_N 	N 	0.68577	0.00716	0.74724	-0.15
Mof_N 	N 	0.72458	0.12254	0.82277	-0.285
Mof_C 	C 	0.65082	0.8037	0.61756	0.077
Mof_C 	C 	0.63882	0.8559	0.55277	-0.156
Mof_H 	H 	0.6283	0.8226	0.5083	0.055
Mof_C 	C 	0.6424	0.9561	0.55381	0.154
Mof_C 	C 	0.6569	0.008	0.61732	-0.21
Mof_H 	H 	0.6579	0.0769	0.6172	0.101
Mof_C 	C 	0.6699	0.9558	0.681	0.166
Mof_C 	C 	0.66683	0.8558	0.68179	-0.168
Mof_H 	H 	0.6757	0.8219	0.7263	0.104
Mof_C 	C 	0.6653	0.0944	0.47002	0.088
Mof_H 	H 	0.7063	0.1271	0.4992	-0.001
Mof_C 	C 	0.5796	0.0586	0.38276	0
Mof_H 	H 	0.5485	0.0624	0.3384	0.025
Mof_C 	C 	0.5748	0.9853	0.43125	-0.004
Mof_H 	H 	0.5406	0.9286	0.4274	0.014
Mof_C 	C 	0.7213	0.0957	0.75392	0.096
Mof_H 	H 	0.7414	0.1336	0.7142	-0.031
Mof_C 	C 	0.69	0.0475	0.86248	0.006
Mof_H 	H 	0.6838	0.0464	0.914	0.019
Mof_C 	C 	0.6666	0.9761	0.81679	-0.004
Mof_H 	H 	0.6416	0.9158	0.8299	0.04
Mof_N 	N 	0.62915	0.4915	0.48737	-0.15
Mof_N 	N 	0.63621	0.37339	0.40749	-0.262
Mof_N 	N 	0.68577	0.49284	0.74724	-0.149
Mof_N 	N 	0.72458	0.37746	0.82277	-0.285
Mof_C 	C 	0.65082	0.6963	0.61756	0.076
Mof_C 	C 	0.63882	0.6441	0.55277	-0.155
Mof_H 	H 	0.6283	0.6774	0.5083	0.055
Mof_C 	C 	0.6424	0.5439	0.55381	0.153
Mof_C 	C 	0.6569	0.492	0.61732	-0.208
Mof_H 	H 	0.6579	0.4231	0.6172	0.101
Mof_C 	C 	0.6699	0.5442	0.681	0.164
Mof_C 	C 	0.66683	0.6442	0.68179	-0.166
Mof_H 	H 	0.6757	0.6781	0.7263	0.103
Mof_C 	C 	0.6653	0.4056	0.47002	0.088
Mof_H 	H 	0.7063	0.3729	0.4992	-0
Mof_C 	C 	0.5796	0.4414	0.38276	0.001
Mof_H 	H 	0.5485	0.4376	0.3384	0.025
Mof_C 	C 	0.5748	0.5147	0.43125	-0.005
Mof_H 	H 	0.5406	0.5714	0.4274	0.015
Mof_C 	C 	0.7213	0.4043	0.75392	0.097
Mof_H 	H 	0.7414	0.3664	0.7142	-0.031
Mof_C 	C 	0.69	0.4525	0.86248	0.007
Mof_H 	H 	0.6838	0.4536	0.914	0.019
Mof_C 	C 	0.6666	0.5239	0.81679	-0.005
Mof_H 	H 	0.6416	0.5842	0.8299	0.04
Mof_N 	N 	0.12915	0.0085	0.01263	-0.148
Mof_N 	N 	0.13621	0.12661	0.09251	-0.262
Mof_N 	N 	0.18577	0.00716	0.75276	-0.147
Mof_N 	N 	0.22458	0.12254	0.67723	-0.285
Mof_C 	C 	0.15082	0.8037	0.88244	0.074
Mof_C 	C 	0.13882	0.8559	0.94723	-0.152
Mof_H 	H 	0.1283	0.8226	0.9917	0.053
Mof_C 	C 	0.1424	0.9561	0.94619	0.147
Mof_C 	C 	0.1569	0.008	0.88268	-0.201
Mof_H 	H 	0.1579	0.0769	0.8828	0.099
Mof_C 	C 	0.1699	0.9558	0.819	0.159
Mof_C 	C 	0.16683	0.8558	0.81821	-0.163
Mof_H 	H 	0.1757	0.8219	0.7737	0.102
Mof_C 	C 	0.1653	0.0944	0.02998	0.088
Mof_H 	H 	0.2063	0.1271	0.0008	-0
Mof_C 	C 	0.0796	0.0586	0.11724	0.003
Mof_H 	H 	0.0485	0.0624	0.1616	0.024
Mof_C 	C 	0.0748	0.9853	0.06875	-0.008
Mof_H 	H 	0.0406	0.9286	0.0726	0.015
Mof_C 	C 	0.2213	0.0957	0.74608	0.096
Mof_H 	H 	0.2414	0.1336	0.7858	-0.031
Mof_C 	C 	0.19	0.0475	0.63752	0.01
Mof_H 	H 	0.1838	0.0464	0.586	0.018
Mof_C 	C 	0.1666	0.9761	0.68321	-0.009
Mof_H 	H 	0.1416	0.9158	0.6701	0.041
Mof_Zn	Zn	0.17223	0.25	0.14298	1.208
Mof_Zn	Zn	0.25843	0.25	0.63385	1.163
Mof_O 	O 	0.2994	0.25	0.13975	-0.455
Mof_O 	O 	0.3032	0.25	0.0188	-0.311
Mof_O 	O 	0.7078	0.25	0.96561	-0.459
Mof_O 	O 	0.589	0.25	0.90004	-0.329
Mof_O 	O 	0.6746	0.25	0.24601	-0.426
Mof_O 	O 	0.5452	0.25	0.28871	-0.37
Mof_C 	C 	0.4348	0.25	0.0844	-0.111
Mof_C 	C 	0.4855	0.25	0.0225	0.042
Mof_H 	H 	0.4597	0.25	0.9756	0.042
Mof_C 	C 	0.5736	0.25	0.0286	-0.101
Mof_C 	C 	0.6115	0.25	0.0978	0.041
Mof_H 	H 	0.6719	0.25	0.1024	0.046
Mof_C 	C 	0.5605	0.25	0.1596	-0.104
Mof_C 	C 	0.4732	0.25	0.1523	0.042
Mof_H 	H 	0.4386	0.25	0.1948	0.041
Mof_C 	C 	0.3385	0.25	0.079	0.341
Mof_C 	C 	0.6259	0.25	0.959	0.328
Mof_C 	C 	0.5953	0.25	0.236	0.318
Mof_Zn	Zn	0.67223	0.25	0.35702	1.208
Mof_Zn	Zn	0.75843	0.25	0.86615	1.163
Mof_O 	O 	0.7994	0.25	0.36025	-0.455
Mof_O 	O 	0.8032	0.25	0.4812	-0.311
Mof_O 	O 	0.2078	0.25	0.53439	-0.459
Mof_O 	O 	0.089	0.25	0.59996	-0.329
Mof_O 	O 	0.1746	0.25	0.25399	-0.426
Mof_O 	O 	0.0452	0.25	0.21129	-0.369
Mof_C 	C 	0.9348	0.25	0.4156	-0.109
Mof_C 	C 	0.9855	0.25	0.4775	0.04
Mof_H 	H 	0.9597	0.25	0.5244	0.043
Mof_C 	C 	0.0736	0.25	0.4714	-0.099
Mof_C 	C 	0.1115	0.25	0.4022	0.04
Mof_H 	H 	0.1719	0.25	0.3976	0.047
Mof_C 	C 	0.0605	0.25	0.3404	-0.101
Mof_C 	C 	0.9732	0.25	0.3477	0.039
Mof_H 	H 	0.9386	0.25	0.3052	0.042
Mof_C 	C 	0.8385	0.25	0.421	0.341
Mof_C 	C 	0.1259	0.25	0.541	0.327
Mof_C 	C 	0.0953	0.25	0.264	0.317
_end
