data_functionalizedCrystal
_audit_creation_method	'EQeq! by Chris Wilmer'
_symmetry_space_group_name_H-M	'P1'
_symmetry_Int_Tables_number	1
_symmetry_cell_setting	triclinic
loop_
_symmetry_equiv_pos_as_xyz
  x,y,z
_cell_length_a	20.504
_cell_length_b	9.5776
_cell_length_c	19.444
_cell_angle_alpha	90
_cell_angle_beta	103.735
_cell_angle_gamma	90
loop_
_atom_site_label
_atom_site_type_symbol
_atom_site_fract_x
_atom_site_fract_y
_atom_site_fract_z
_atom_site_charge
Mof_Zn	Zn	0.59911	0.91573	0.78959	1.2
Mof_Zn	Zn	0.71863	0.86299	0.92754	1.06
Mof_N 	N 	0.5579	0.9438	0.6843	-0.266
Mof_C 	C 	0.5129	0.9894	0.5387	0.062
Mof_C 	C 	0.5258	0.098	0.5861	-0.133
Mof_H 	H 	0.5183	0.1893	0.5698	0.072
Mof_C 	C 	0.5494	0.0732	0.6571	0.083
Mof_H 	H 	0.56	0.149	0.6876	-0.013
Mof_C 	C 	0.5205	0.8552	0.5678	-0.136
Mof_H 	H 	0.5086	0.7775	0.5388	0.077
Mof_C 	C 	0.5451	0.8387	0.6384	0.089
Mof_H 	H 	0.5537	0.7484	0.6558	-0.007
Mof_C 	C 	0.388	0.3484	0.1587	0.377
Mof_C 	C 	0.7639	0.6568	0.5633	0.343
Mof_C 	C 	0.7477	0.8325	0.7958	0.421
Mof_C 	C 	0.7608	0.7382	0.6814	0.023
Mof_H 	H 	0.7143	0.7369	0.6663	0.042
Mof_C 	C 	0.7911	0.7811	0.7501	-0.11
Mof_C 	C 	0.7988	0.6983	0.6362	-0.086
Mof_C 	C 	0.8994	0.7343	0.7284	0.08
Mof_C 	C 	0.8681	0.6997	0.6589	-0.07
Mof_H 	H 	0.8941	0.6772	0.6272	0.057
Mof_C 	C 	0.8592	0.7738	0.7741	-0.051
Mof_H 	H 	0.879	0.7951	0.8211	0.047
Mof_C 	C 	0.3711	0.6026	0.1378	0.092
Mof_H 	H 	0.3874	0.6187	0.186	0.009
Mof_C 	C 	0.3503	0.7126	0.0919	-0.189
Mof_C 	C 	0.3285	0.6903	0.0202	-0.008
Mof_H 	H 	0.3138	0.7658	0.9905	0.026
Mof_C 	C 	0.3673	0.4696	0.1114	-0.143
Mof_C 	C 	0.3515	0.8584	0.1178	0.506
Mof_C 	C 	0.3477	0.4471	0.0378	-0.046
Mof_H 	H 	0.3482	0.3568	0.0203	0.032
Mof_C 	C 	0.3279	0.5566	0.9908	0.06
Mof_N 	N 	0.3105	0.5313	0.919	-0.181
Mof_H 	H 	0.3136	0.4468	0.9052	0.126
Mof_O 	O 	0.3852	0.8863	0.1776	-0.537
Mof_O 	O 	0.6924	0.8792	0.7661	-0.508
Mof_O 	O 	0.3779	0.2255	0.1316	-0.597
Mof_O 	O 	0.772	0.8247	0.8621	-0.641
Mof_O 	O 	0.4125	0.3641	0.2212	-0.366
Mof_O 	O 	0.7039	0.6542	0.5445	-0.423
Mof_O 	O 	0.3161	0.9476	0.0773	-0.812
Mof_O 	O 	0.8014	0.6397	0.5202	-0.581
Mof_N 	N 	0.968	0.7215	0.7498	-0.195
Mof_H 	H 	0.9896	0.6826	0.7221	0.112
Mof_C 	C 	0.2157	0.67	0.8537	0.054
Mof_C 	C 	0.2881	0.6323	0.8667	-0.092
Mof_H 	H 	0.2968	0.5987	0.8226	0.058
Mof_H 	H 	0.3145	0.7163	0.8798	0.057
Mof_C 	C 	0.0023	0.7694	0.8143	-0.04
Mof_H 	H 	0.9864	0.7234	0.8516	0.033
Mof_H 	H 	0.9954	0.8691	0.8177	0.031
Mof_C 	C 	0.1666	0.5716	0.8531	-0.089
Mof_H 	H 	0.1798	0.4802	0.8653	0.069
Mof_C 	C 	0.1947	0.8049	0.8368	-0.099
Mof_H 	H 	0.2258	0.8738	0.8335	0.058
Mof_C 	C 	0.0979	0.6016	0.8353	-0.051
Mof_H 	H 	0.0662	0.531	0.8322	0.046
Mof_C 	C 	0.0788	0.7378	0.8227	0.01
Mof_C 	C 	0.1273	0.8377	0.8247	-0.053
Mof_H 	H 	0.1143	0.9306	0.8177	0.044
Mof_Zn	Zn	0.75696	0.98084	0.9387	1.055
Mof_Zn	Zn	0.40089	0.41573	0.71041	1.202
Mof_Zn	Zn	0.28137	0.36299	0.57246	1.061
Mof_N 	N 	0.4421	0.4438	0.8157	-0.264
Mof_C 	C 	0.4871	0.4894	0.9613	0.062
Mof_C 	C 	0.4742	0.598	0.9139	-0.132
Mof_H 	H 	0.4817	0.6893	0.9302	0.071
Mof_C 	C 	0.4506	0.5732	0.8429	0.079
Mof_H 	H 	0.44	0.649	0.8124	-0.013
Mof_C 	C 	0.4795	0.3552	0.9322	-0.136
Mof_H 	H 	0.4914	0.2775	0.9612	0.078
Mof_C 	C 	0.4549	0.3387	0.8616	0.089
Mof_H 	H 	0.4463	0.2484	0.8442	-0.007
Mof_C 	C 	0.612	0.8484	0.3413	0.374
Mof_C 	C 	0.2361	0.1568	0.9367	0.342
Mof_C 	C 	0.2523	0.3325	0.7042	0.421
Mof_C 	C 	0.2392	0.2382	0.8186	0.022
Mof_H 	H 	0.2857	0.2369	0.8337	0.042
Mof_C 	C 	0.2089	0.2811	0.7499	-0.109
Mof_C 	C 	0.2012	0.1983	0.8638	-0.085
Mof_C 	C 	0.1006	0.2343	0.7716	0.08
Mof_C 	C 	0.1319	0.1997	0.8411	-0.07
Mof_H 	H 	0.1059	0.1772	0.8728	0.059
Mof_C 	C 	0.1408	0.2738	0.7259	-0.051
Mof_H 	H 	0.121	0.2951	0.6789	0.047
Mof_C 	C 	0.6289	0.1026	0.3622	0.086
Mof_H 	H 	0.6126	0.1187	0.314	0.01
Mof_C 	C 	0.6497	0.2126	0.4081	-0.184
Mof_C 	C 	0.6715	0.1903	0.4798	-0.018
Mof_H 	H 	0.6862	0.2658	0.5095	0.031
Mof_C 	C 	0.6327	0.9696	0.3886	-0.137
Mof_C 	C 	0.6485	0.3584	0.3822	0.504
Mof_C 	C 	0.6523	0.9471	0.4622	-0.051
Mof_H 	H 	0.6518	0.8568	0.4797	0.035
Mof_C 	C 	0.6721	0.0566	0.5092	0.066
Mof_N 	N 	0.6895	0.0313	0.581	-0.181
Mof_H 	H 	0.6864	0.9468	0.5948	0.124
Mof_O 	O 	0.6148	0.3863	0.3224	-0.538
Mof_O 	O 	0.3076	0.3792	0.7339	-0.506
Mof_O 	O 	0.6221	0.7255	0.3684	-0.595
Mof_O 	O 	0.228	0.3247	0.6379	-0.639
Mof_O 	O 	0.5875	0.8641	0.2788	-0.364
Mof_O 	O 	0.2961	0.1542	0.9555	-0.42
Mof_O 	O 	0.6839	0.4476	0.4227	-0.817
Mof_O 	O 	0.1986	0.1397	0.9798	-0.577
Mof_N 	N 	0.032	0.2215	0.7502	-0.191
Mof_H 	H 	0.0104	0.1826	0.7779	0.113
Mof_C 	C 	0.7843	0.17	0.6463	0.045
Mof_C 	C 	0.7119	0.1323	0.6333	-0.086
Mof_H 	H 	0.7032	0.0987	0.6774	0.058
Mof_H 	H 	0.6855	0.2163	0.6202	0.056
Mof_C 	C 	0.9977	0.2694	0.6857	-0.061
Mof_H 	H 	0.0136	0.2234	0.6484	0.041
Mof_H 	H 	0.0046	0.3691	0.6823	0.04
Mof_C 	C 	0.8334	0.0716	0.6469	-0.072
Mof_H 	H 	0.8202	0.9802	0.6347	0.06
Mof_C 	C 	0.8053	0.3049	0.6632	-0.089
Mof_H 	H 	0.7742	0.3738	0.6665	0.055
Mof_C 	C 	0.9021	0.1016	0.6647	-0.065
Mof_H 	H 	0.9338	0.031	0.6678	0.052
Mof_C 	C 	0.9212	0.2378	0.6773	0.022
Mof_C 	C 	0.8727	0.3377	0.6753	-0.063
Mof_H 	H 	0.8857	0.4306	0.6823	0.048
Mof_Zn	Zn	0.24304	0.48084	0.5613	1.058
Mof_Zn	Zn	0.40089	0.08427	0.21041	1.2
Mof_Zn	Zn	0.28137	0.13701	0.07246	1.06
Mof_N 	N 	0.4421	0.0562	0.3157	-0.266
Mof_C 	C 	0.4871	0.0106	0.4613	0.062
Mof_C 	C 	0.4742	0.902	0.4139	-0.133
Mof_H 	H 	0.4817	0.8107	0.4302	0.072
Mof_C 	C 	0.4506	0.9268	0.3429	0.083
Mof_H 	H 	0.44	0.851	0.3124	-0.013
Mof_C 	C 	0.4795	0.1448	0.4322	-0.136
Mof_H 	H 	0.4914	0.2225	0.4612	0.077
Mof_C 	C 	0.4549	0.1613	0.3616	0.089
Mof_H 	H 	0.4463	0.2516	0.3442	-0.007
Mof_C 	C 	0.612	0.6516	0.8413	0.377
Mof_C 	C 	0.2361	0.3432	0.4367	0.343
Mof_C 	C 	0.2523	0.1675	0.2042	0.421
Mof_C 	C 	0.2392	0.2618	0.3186	0.023
Mof_H 	H 	0.2857	0.2631	0.3337	0.042
Mof_C 	C 	0.2089	0.2189	0.2499	-0.11
Mof_C 	C 	0.2012	0.3017	0.3638	-0.086
Mof_C 	C 	0.1006	0.2657	0.2716	0.08
Mof_C 	C 	0.1319	0.3003	0.3411	-0.07
Mof_H 	H 	0.1059	0.3228	0.3728	0.057
Mof_C 	C 	0.1408	0.2262	0.2259	-0.051
Mof_H 	H 	0.121	0.2049	0.1789	0.047
Mof_C 	C 	0.6289	0.3974	0.8622	0.092
Mof_H 	H 	0.6126	0.3813	0.814	0.009
Mof_C 	C 	0.6497	0.2874	0.9081	-0.189
Mof_C 	C 	0.6715	0.3097	0.9798	-0.008
Mof_H 	H 	0.6862	0.2342	0.0095	0.026
Mof_C 	C 	0.6327	0.5304	0.8886	-0.143
Mof_C 	C 	0.6485	0.1416	0.8822	0.506
Mof_C 	C 	0.6523	0.5529	0.9622	-0.046
Mof_H 	H 	0.6518	0.6432	0.9797	0.032
Mof_C 	C 	0.6721	0.4434	0.0092	0.06
Mof_N 	N 	0.6895	0.4687	0.081	-0.181
Mof_H 	H 	0.6864	0.5532	0.0948	0.126
Mof_O 	O 	0.6148	0.1137	0.8224	-0.537
Mof_O 	O 	0.3076	0.1208	0.2339	-0.508
Mof_O 	O 	0.6221	0.7745	0.8684	-0.597
Mof_O 	O 	0.228	0.1753	0.1379	-0.641
Mof_O 	O 	0.5875	0.6359	0.7788	-0.366
Mof_O 	O 	0.2961	0.3458	0.4555	-0.423
Mof_O 	O 	0.6839	0.0524	0.9227	-0.812
Mof_O 	O 	0.1986	0.3603	0.4798	-0.581
Mof_N 	N 	0.032	0.2785	0.2502	-0.195
Mof_H 	H 	0.0104	0.3174	0.2779	0.112
Mof_C 	C 	0.7843	0.33	0.1463	0.054
Mof_C 	C 	0.7119	0.3677	0.1333	-0.092
Mof_H 	H 	0.7032	0.4013	0.1774	0.058
Mof_H 	H 	0.6855	0.2837	0.1202	0.057
Mof_C 	C 	0.9977	0.2306	0.1857	-0.04
Mof_H 	H 	0.0136	0.2766	0.1484	0.033
Mof_H 	H 	0.0046	0.1309	0.1823	0.031
Mof_C 	C 	0.8334	0.4284	0.1469	-0.089
Mof_H 	H 	0.8202	0.5198	0.1347	0.069
Mof_C 	C 	0.8053	0.1951	0.1632	-0.099
Mof_H 	H 	0.7742	0.1262	0.1665	0.058
Mof_C 	C 	0.9021	0.3984	0.1647	-0.051
Mof_H 	H 	0.9338	0.469	0.1678	0.046
Mof_C 	C 	0.9212	0.2622	0.1773	0.01
Mof_C 	C 	0.8727	0.1623	0.1753	-0.053
Mof_H 	H 	0.8857	0.0694	0.1823	0.044
Mof_Zn	Zn	0.24304	0.01916	0.0613	1.055
Mof_Zn	Zn	0.59911	0.58427	0.28959	1.202
Mof_Zn	Zn	0.71863	0.63701	0.42754	1.061
Mof_N 	N 	0.5579	0.5562	0.1843	-0.264
Mof_C 	C 	0.5129	0.5106	0.0387	0.062
Mof_C 	C 	0.5258	0.402	0.0861	-0.132
Mof_H 	H 	0.5183	0.3107	0.0698	0.071
Mof_C 	C 	0.5494	0.4268	0.1571	0.079
Mof_H 	H 	0.56	0.351	0.1876	-0.013
Mof_C 	C 	0.5205	0.6448	0.0678	-0.136
Mof_H 	H 	0.5086	0.7225	0.0388	0.078
Mof_C 	C 	0.5451	0.6613	0.1384	0.089
Mof_H 	H 	0.5537	0.7516	0.1558	-0.007
Mof_C 	C 	0.388	0.1516	0.6587	0.374
Mof_C 	C 	0.7639	0.8432	0.0633	0.342
Mof_C 	C 	0.7477	0.6675	0.2958	0.421
Mof_C 	C 	0.7608	0.7618	0.1814	0.022
Mof_H 	H 	0.7143	0.7631	0.1663	0.042
Mof_C 	C 	0.7911	0.7189	0.2501	-0.109
Mof_C 	C 	0.7988	0.8017	0.1362	-0.085
Mof_C 	C 	0.8994	0.7657	0.2284	0.08
Mof_C 	C 	0.8681	0.8003	0.1589	-0.07
Mof_H 	H 	0.8941	0.8228	0.1272	0.059
Mof_C 	C 	0.8592	0.7262	0.2741	-0.051
Mof_H 	H 	0.879	0.7049	0.3211	0.047
Mof_C 	C 	0.3711	0.8974	0.6378	0.086
Mof_H 	H 	0.3874	0.8813	0.686	0.01
Mof_C 	C 	0.3503	0.7874	0.5919	-0.184
Mof_C 	C 	0.3285	0.8097	0.5202	-0.018
Mof_H 	H 	0.3138	0.7342	0.4905	0.031
Mof_C 	C 	0.3673	0.0304	0.6114	-0.137
Mof_C 	C 	0.3515	0.6416	0.6178	0.504
Mof_C 	C 	0.3477	0.0529	0.5378	-0.051
Mof_H 	H 	0.3482	0.1432	0.5203	0.035
Mof_C 	C 	0.3279	0.9434	0.4908	0.066
Mof_N 	N 	0.3105	0.9687	0.419	-0.181
Mof_H 	H 	0.3136	0.0532	0.4052	0.124
Mof_O 	O 	0.3852	0.6137	0.6776	-0.538
Mof_O 	O 	0.6924	0.6208	0.2661	-0.506
Mof_O 	O 	0.3779	0.2745	0.6316	-0.595
Mof_O 	O 	0.772	0.6753	0.3621	-0.639
Mof_O 	O 	0.4125	0.1359	0.7212	-0.364
Mof_O 	O 	0.7039	0.8458	0.0445	-0.42
Mof_O 	O 	0.3161	0.5524	0.5773	-0.817
Mof_O 	O 	0.8014	0.8603	0.0202	-0.577
Mof_N 	N 	0.968	0.7785	0.2498	-0.191
Mof_H 	H 	0.9896	0.8174	0.2221	0.113
Mof_C 	C 	0.2157	0.83	0.3537	0.045
Mof_C 	C 	0.2881	0.8677	0.3667	-0.086
Mof_H 	H 	0.2968	0.9013	0.3226	0.058
Mof_H 	H 	0.3145	0.7837	0.3798	0.056
Mof_C 	C 	0.0023	0.7306	0.3143	-0.061
Mof_H 	H 	0.9864	0.7766	0.3516	0.041
Mof_H 	H 	0.9954	0.6309	0.3177	0.04
Mof_C 	C 	0.1666	0.9284	0.3531	-0.072
Mof_H 	H 	0.1798	0.0198	0.3653	0.06
Mof_C 	C 	0.1947	0.6951	0.3368	-0.089
Mof_H 	H 	0.2258	0.6262	0.3335	0.055
Mof_C 	C 	0.0979	0.8984	0.3353	-0.065
Mof_H 	H 	0.0662	0.969	0.3322	0.052
Mof_C 	C 	0.0788	0.7622	0.3227	0.022
Mof_C 	C 	0.1273	0.6623	0.3247	-0.063
Mof_H 	H 	0.1143	0.5694	0.3177	0.048
Mof_Zn	Zn	0.75696	0.51916	0.4387	1.058
_end
