data_functionalizedCrystal
_audit_creation_method	'EQeq! by Chris Wilmer'
_symmetry_space_group_name_H-M	'P1'
_symmetry_Int_Tables_number	1
_symmetry_cell_setting	triclinic
loop_
_symmetry_equiv_pos_as_xyz
  x,y,z
_cell_length_a	8.478
_cell_length_b	9.695
_cell_length_c	17.243
_cell_angle_alpha	90
_cell_angle_beta	90
_cell_angle_gamma	112.28
loop_
_atom_site_label
_atom_site_type_symbol
_atom_site_fract_x
_atom_site_fract_y
_atom_site_fract_z
_atom_site_charge
Mof_Er	Er	0.8433	0.0235	0.2574	1.801
Mof_Er	Er	0.1567	0.4765	0.7574	1.823
Mof_Er	Er	0.1567	0.9765	0.7426	1.801
Mof_Er	Er	0.8433	0.5235	0.2426	1.822
Mof_C 	C 	0.9044	0.0243	0.0979	0.316
Mof_C 	C 	0.9457	0.0301	0.0145	-0.108
Mof_C 	C 	0.5625	0.1994	0.2886	0.446
Mof_C 	C 	0.3767	0.1031	0.3011	-0.114
Mof_C 	C 	0.3123	0.9606	0.2831	-0.146
Mof_C 	C 	0.1288	0.367	0.2133	0.481
Mof_C 	C 	0.0956	0.4757	0.5979	0.332
Mof_C 	C 	0.0543	0.4699	0.5145	-0.098
Mof_C 	C 	0.4375	0.3006	0.7886	0.446
Mof_C 	C 	0.6233	0.3969	0.8011	-0.113
Mof_C 	C 	0.6877	0.5394	0.7831	-0.147
Mof_C 	C 	0.8712	0.133	0.7133	0.481
Mof_C 	C 	0.0956	0.9757	0.9021	0.317
Mof_C 	C 	0.0543	0.9699	0.9855	-0.108
Mof_C 	C 	0.4375	0.8006	0.7114	0.446
Mof_C 	C 	0.6233	0.8969	0.6989	-0.114
Mof_C 	C 	0.6877	0.0394	0.7169	-0.146
Mof_C 	C 	0.8712	0.633	0.7867	0.481
Mof_C 	C 	0.9044	0.5243	0.4021	0.331
Mof_C 	C 	0.9457	0.5301	0.4855	-0.098
Mof_C 	C 	0.5625	0.6994	0.2114	0.445
Mof_C 	C 	0.3767	0.6031	0.1989	-0.113
Mof_C 	C 	0.3123	0.4606	0.2169	-0.147
Mof_C 	C 	0.1288	0.867	0.2867	0.481
Mof_O 	O 	0.9631	0.9545	0.1451	-0.404
Mof_O 	O 	0.814	0.0907	0.1217	-0.388
Mof_O 	O 	0.6644	0.1374	0.2699	-0.567
Mof_O 	O 	0.602	0.3369	0.2965	-0.487
Mof_O 	O 	0.0246	0.4244	0.1924	-0.536
Mof_O 	O 	0.0826	0.2314	0.2316	-0.5
Mof_O 	O 	0.0369	0.5455	0.6451	-0.421
Mof_O 	O 	0.186	0.4093	0.6217	-0.388
Mof_O 	O 	0.3356	0.3626	0.7699	-0.567
Mof_O 	O 	0.398	0.1631	0.7965	-0.481
Mof_O 	O 	0.9754	0.0756	0.6924	-0.538
Mof_O 	O 	0.9174	0.2686	0.7316	-0.505
Mof_O 	O 	0.0369	0.0455	0.8549	-0.405
Mof_O 	O 	0.186	0.9093	0.8783	-0.388
Mof_O 	O 	0.3356	0.8626	0.7301	-0.567
Mof_O 	O 	0.398	0.6631	0.7035	-0.487
Mof_O 	O 	0.9754	0.5756	0.8076	-0.536
Mof_O 	O 	0.9174	0.7686	0.7684	-0.5
Mof_O 	O 	0.9631	0.4545	0.3549	-0.421
Mof_O 	O 	0.814	0.5907	0.3783	-0.388
Mof_O 	O 	0.6644	0.6374	0.2301	-0.566
Mof_O 	O 	0.602	0.8369	0.2035	-0.481
Mof_O 	O 	0.0246	0.9244	0.3076	-0.538
Mof_O 	O 	0.0826	0.7314	0.2684	-0.505
Mof_H 	H 	0.88581	0.08643	0.97215	0.069
Mof_H 	H 	0.28691	0.15351	0.32698	0.058
Mof_H 	H 	0.39983	0.90258	0.26335	0.069
Mof_H 	H 	0.11419	0.41357	0.47215	0.062
Mof_H 	H 	0.71309	0.34649	0.82698	0.057
Mof_H 	H 	0.60017	0.59742	0.76335	0.068
Mof_H 	H 	0.11419	0.91357	0.02785	0.069
Mof_H 	H 	0.71309	0.84649	0.67302	0.058
Mof_H 	H 	0.59267	0.08999	0.73617	0.069
Mof_H 	H 	0.8832	0.58741	0.52597	0.062
Mof_H 	H 	0.28691	0.65351	0.17302	0.057
Mof_H 	H 	0.39983	0.40258	0.23665	0.068
_end
