data_functionalizedCrystal
_audit_creation_method	'EQeq! by Chris Wilmer'
_symmetry_space_group_name_H-M	'P1'
_symmetry_Int_Tables_number	1
_symmetry_cell_setting	triclinic
loop_
_symmetry_equiv_pos_as_xyz
  x,y,z
_cell_length_a	8.1984
_cell_length_b	24.094
_cell_length_c	11.307
_cell_angle_alpha	90
_cell_angle_beta	90
_cell_angle_gamma	90
loop_
_atom_site_label
_atom_site_type_symbol
_atom_site_fract_x
_atom_site_fract_y
_atom_site_fract_z
_atom_site_charge
Mof_Ni	Ni	0.90934	0.815	0.4706	1.087
Mof_Ni	Ni	0.09066	0.185	0.4706	1.091
Mof_Ni	Ni	0.40934	0.685	0.5294	1.089
Mof_Ni	Ni	0.59066	0.315	0.5294	1.089
Mof_H 	H 	0.4003	0.8188	0.7429	-0.011
Mof_H 	H 	0.3764	0.8949	0.8646	0.195
Mof_H 	H 	0.657	0.9821	0.64	0.149
Mof_H 	H 	0.7123	0.77	0.2622	0.014
Mof_H 	H 	0.7078	0.7684	0.061	0.085
Mof_H 	H 	0.0907	0.8714	0.0611	0.125
Mof_H 	H 	0.0846	0.8698	0.2632	0.014
Mof_H 	H 	0.8209	0.739	0.8818	0.095
Mof_H 	H 	0.8318	0.7379	0.6794	-0.008
Mof_H 	H 	0.0095	0.8879	0.6734	0.027
Mof_H 	H 	0.0013	0.8931	0.8746	0.169
Mof_H 	H 	0.5997	0.1812	0.7429	-0.015
Mof_H 	H 	0.6236	0.1051	0.8646	0.199
Mof_H 	H 	0.343	0.0179	0.64	0.166
Mof_H 	H 	0.2877	0.23	0.2622	0.01
Mof_H 	H 	0.2922	0.2316	0.061	0.092
Mof_H 	H 	0.9093	0.1286	0.0611	0.136
Mof_H 	H 	0.9154	0.1302	0.2632	0.014
Mof_H 	H 	0.1791	0.261	0.8818	0.091
Mof_H 	H 	0.1682	0.2621	0.6794	-0.003
Mof_H 	H 	0.9905	0.1121	0.6734	0.01
Mof_H 	H 	0.9987	0.1069	0.8746	0.146
Mof_H 	H 	0.9003	0.6812	0.2571	-0.014
Mof_H 	H 	0.8764	0.6051	0.1354	0.202
Mof_H 	H 	0.157	0.5179	0.36	0.163
Mof_H 	H 	0.2123	0.73	0.7378	0.014
Mof_H 	H 	0.2078	0.7316	0.939	0.09
Mof_H 	H 	0.5907	0.6286	0.9389	0.13
Mof_H 	H 	0.5846	0.6302	0.7368	0.013
Mof_H 	H 	0.3209	0.761	0.1182	0.094
Mof_H 	H 	0.3318	0.7621	0.3206	-0.005
Mof_H 	H 	0.5095	0.6121	0.3266	0.019
Mof_H 	H 	0.5013	0.6069	0.1254	0.159
Mof_H 	H 	0.0997	0.3188	0.2571	-0.014
Mof_H 	H 	0.1236	0.3949	0.1354	0.195
Mof_H 	H 	0.843	0.4821	0.36	0.155
Mof_H 	H 	0.7877	0.27	0.7378	0.01
Mof_H 	H 	0.7922	0.2684	0.939	0.086
Mof_H 	H 	0.4093	0.3714	0.9389	0.131
Mof_H 	H 	0.4154	0.3698	0.7368	0.015
Mof_H 	H 	0.6791	0.239	0.1182	0.092
Mof_H 	H 	0.6682	0.2379	0.3206	-0.006
Mof_H 	H 	0.4905	0.3879	0.3266	0.02
Mof_H 	H 	0.4987	0.3931	0.1254	0.159
Mof_C 	C 	0.6187	0.903	0.5872	0.079
Mof_C 	C 	0.54	0.85384	0.6172	-0.18
Mof_C 	C 	0.4512	0.85178	0.7217	0.163
Mof_C 	C 	0.4362	0.89729	0.7949	-0.26
Mof_C 	C 	0.5122	0.94724	0.7632	0.32
Mof_C 	C 	0.6042	0.94932	0.6604	-0.225
Mof_C 	C 	0.7103	0.911	0.4712	0.251
Mof_C 	C 	0.5479	0.80254	0.5406	0.393
Mof_C 	C 	0.6558	0.0001	0.9193	0.985
Mof_C 	C 	0.7903	0.79042	0.2211	0.097
Mof_C 	C 	0.787	0.78903	0.1001	-0.119
Mof_C 	C 	0.9027	0.81871	0.0356	0.064
Mof_C 	C 	0.0132	0.8499	0.0999	-0.113
Mof_C 	C 	0.0082	0.8489	0.2218	0.109
Mof_C 	C 	0.9074	0.81691	0.9041	0.096
Mof_C 	C 	0.8585	0.77011	0.8414	-0.158
Mof_C 	C 	0.8654	0.76965	0.7192	0.104
Mof_C 	C 	0.9696	0.8578	0.7159	0.091
Mof_C 	C 	0.9652	0.86104	0.837	-0.161
Mof_C 	C 	0.3813	0.097	0.5872	0.09
Mof_C 	C 	0.46	0.14616	0.6172	-0.187
Mof_C 	C 	0.5488	0.14822	0.7217	0.172
Mof_C 	C 	0.5638	0.10271	0.7949	-0.272
Mof_C 	C 	0.4878	0.05276	0.7632	0.341
Mof_C 	C 	0.3958	0.05068	0.6604	-0.234
Mof_C 	C 	0.2897	0.089	0.4712	0.247
Mof_C 	C 	0.4521	0.19746	0.5406	0.396
Mof_C 	C 	0.3442	0.9999	0.9193	0.951
Mof_C 	C 	0.2097	0.20958	0.2211	0.112
Mof_C 	C 	0.213	0.21097	0.1001	-0.138
Mof_C 	C 	0.0973	0.18129	0.0356	0.105
Mof_C 	C 	0.9868	0.1501	0.0999	-0.15
Mof_C 	C 	0.9918	0.1511	0.2218	0.103
Mof_C 	C 	0.0926	0.18309	0.9041	0.075
Mof_C 	C 	0.1415	0.22989	0.8414	-0.142
Mof_C 	C 	0.1346	0.23035	0.7192	0.099
Mof_C 	C 	0.0304	0.1422	0.7159	0.109
Mof_C 	C 	0.0348	0.13896	0.837	-0.123
Mof_C 	C 	0.1187	0.597	0.4128	0.089
Mof_C 	C 	0.04	0.64616	0.3828	-0.178
Mof_C 	C 	0.9512	0.64822	0.2783	0.163
Mof_C 	C 	0.9362	0.60271	0.2051	-0.285
Mof_C 	C 	0.0122	0.55276	0.2368	0.354
Mof_C 	C 	0.1042	0.55068	0.3396	-0.238
Mof_C 	C 	0.2103	0.589	0.5288	0.248
Mof_C 	C 	0.0479	0.69746	0.4594	0.405
Mof_C 	C 	0.1558	0.4999	0.0807	0.975
Mof_C 	C 	0.2903	0.70958	0.7789	0.104
Mof_C 	C 	0.287	0.71097	0.8999	-0.128
Mof_C 	C 	0.4027	0.68129	0.9644	0.083
Mof_C 	C 	0.5132	0.6501	0.9001	-0.13
Mof_C 	C 	0.5082	0.6511	0.7782	0.106
Mof_C 	C 	0.4074	0.68309	0.0959	0.087
Mof_C 	C 	0.3585	0.72989	0.1586	-0.15
Mof_C 	C 	0.3654	0.73035	0.2808	0.102
Mof_C 	C 	0.4696	0.6422	0.2841	0.1
Mof_C 	C 	0.4652	0.63896	0.163	-0.143
Mof_C 	C 	0.8813	0.403	0.4128	0.083
Mof_C 	C 	0.96	0.35384	0.3828	-0.192
Mof_C 	C 	0.0488	0.35178	0.2783	0.177
Mof_C 	C 	0.0638	0.39729	0.2051	-0.251
Mof_C 	C 	0.9878	0.44724	0.2368	0.315
Mof_C 	C 	0.8958	0.44932	0.3396	-0.226
Mof_C 	C 	0.7897	0.411	0.5288	0.25
Mof_C 	C 	0.9521	0.30254	0.4594	0.383
Mof_C 	C 	0.8442	0.5001	0.0807	0.967
Mof_C 	C 	0.7097	0.29042	0.7789	0.104
Mof_C 	C 	0.713	0.28903	0.8999	-0.129
Mof_C 	C 	0.5973	0.31871	0.9644	0.083
Mof_C 	C 	0.4868	0.3499	0.9001	-0.13
Mof_C 	C 	0.4918	0.3489	0.7782	0.106
Mof_C 	C 	0.5926	0.31691	0.0959	0.085
Mof_C 	C 	0.6415	0.27011	0.1586	-0.151
Mof_C 	C 	0.6346	0.26965	0.2808	0.101
Mof_C 	C 	0.5304	0.3578	0.2841	0.099
Mof_C 	C 	0.5348	0.36104	0.163	-0.143
Mof_C 	C 	0.5	-2.82556e-33	0.8414	-0.463
Mof_C 	C 	-1.33077e-32	0.5	0.1586	-0.471
Mof_N 	N 	0.8992	0.81938	0.2836	-0.225
Mof_N 	N 	0.9183	0.81271	0.6562	-0.238
Mof_N 	N 	0.1008	0.18062	0.2836	-0.218
Mof_N 	N 	0.0817	0.18729	0.6562	-0.237
Mof_N 	N 	0.3992	0.68062	0.7164	-0.222
Mof_N 	N 	0.4183	0.68729	0.3438	-0.238
Mof_N 	N 	0.6008	0.31938	0.7164	-0.222
Mof_N 	N 	0.5817	0.31271	0.3438	-0.237
Mof_O 	O 	0.6331	0.93072	0.3881	-0.172
Mof_O 	O 	0.8621	0.89922	0.4709	-0.35
Mof_O 	O 	0.6646	0.79484	0.4715	-0.421
Mof_O 	O 	0.4297	0.76938	0.5518	-0.417
Mof_O 	O 	0.3669	0.06928	0.3881	-0.161
Mof_O 	O 	0.1379	0.10078	0.4709	-0.338
Mof_O 	O 	0.3354	0.20516	0.4715	-0.422
Mof_O 	O 	0.5703	0.23062	0.5518	-0.419
Mof_O 	O 	0.1331	0.56928	0.6119	-0.163
Mof_O 	O 	0.3621	0.60078	0.5291	-0.344
Mof_O 	O 	0.1646	0.70516	0.5285	-0.422
Mof_O 	O 	0.9297	0.73062	0.4482	-0.427
Mof_O 	O 	0.8669	0.43072	0.6119	-0.17
Mof_O 	O 	0.6379	0.39922	0.5291	-0.345
Mof_O 	O 	0.8354	0.29484	0.5285	-0.42
Mof_O 	O 	0.0703	0.26938	0.4482	-0.408
Mof_F 	F 	0.6755	0.95036	0.9719	-0.477
Mof_F 	F 	0.7885	0.01029	0.8569	-0.508
Mof_F 	F 	0.6496	0.03729	0.007	-0.47
Mof_F 	F 	0.3245	0.04964	0.9719	-0.454
Mof_F 	F 	0.2115	0.98971	0.8569	-0.51
Mof_F 	F 	0.3504	0.96271	0.007	-0.47
Mof_F 	F 	0.1755	0.54964	0.0281	-0.464
Mof_F 	F 	0.2885	0.48971	0.1431	-0.509
Mof_F 	F 	0.1496	0.46271	0.993	-0.468
Mof_F 	F 	0.8245	0.45036	0.0281	-0.468
Mof_F 	F 	0.7115	0.51029	0.1431	-0.509
Mof_F 	F 	0.8504	0.53729	0.993	-0.472
_end
