data_functionalizedCrystal
_audit_creation_method	'EQeq! by Chris Wilmer'
_symmetry_space_group_name_H-M	'P1'
_symmetry_Int_Tables_number	1
_symmetry_cell_setting	triclinic
loop_
_symmetry_equiv_pos_as_xyz
  x,y,z
_cell_length_a	11.4607
_cell_length_b	18.7956
_cell_length_c	22.7213
_cell_angle_alpha	90
_cell_angle_beta	96.863
_cell_angle_gamma	90
loop_
_atom_site_label
_atom_site_type_symbol
_atom_site_fract_x
_atom_site_fract_y
_atom_site_fract_z
_atom_site_charge
Mof_Cd	Cd	0.64678	0.02444	0.05696	0.457
Mof_N 	N 	0.7617	0.0788	0.99111	-0.156
Mof_N 	N 	0.5242	0.0396	0.61394	-0.164
Mof_N 	N 	0.1166	0.5663	0.944	-0.156
Mof_C 	C 	0.7519	0.1476	0.9776	0.113
Mof_H 	H 	0.6924	0.1736	0.9919	0.011
Mof_C 	C 	0.8255	0.182	0.9432	-0.188
Mof_H 	H 	0.8152	0.2302	0.935	0.099
Mof_C 	C 	0.9148	0.1448	0.921	0.147
Mof_C 	C 	0.9246	0.075	0.9351	-0.205
Mof_H 	H 	0.984	0.0479	0.9217	0.12
Mof_C 	C 	0.8479	0.0438	0.9689	0.126
Mof_H 	H 	0.8562	0.9954	0.9769	0.006
Mof_C 	C 	0.9985	0.1778	0.8847	-0.082
Mof_H 	H 	0.058	0.1487	0.8739	0.059
Mof_C 	C 	0.9979	0.2431	0.8663	-0.086
Mof_H 	H 	0.9399	0.2727	0.878	0.064
Mof_C 	C 	0.0804	0.2748	0.8287	0.142
Mof_C 	C 	0.0834	0.347	0.8232	-0.2
Mof_H 	H 	0.0343	0.3747	0.8437	0.1
Mof_C 	C 	0.1574	0.38	0.7882	0.125
Mof_H 	H 	0.159	0.4294	0.786	-0.014
Mof_C 	C 	0.2285	0.3405	0.7566	-0.212
Mof_H 	H 	0.277	0.3628	0.7322	0.102
Mof_C 	C 	0.2278	0.2685	0.761	0.149
Mof_C 	C 	0.1533	0.2361	0.7974	-0.208
Mof_H 	H 	0.1533	0.1868	0.8005	0.104
Mof_C 	C 	0.3041	0.2277	0.7259	-0.1
Mof_H 	H 	0.3595	0.2538	0.7084	0.062
Mof_C 	C 	0.3039	0.1592	0.7163	-0.09
Mof_H 	H 	0.248	0.1329	0.7333	0.063
Mof_C 	C 	0.3815	0.1193	0.682	0.142
Mof_C 	C 	0.3608	0.0489	0.6694	-0.193
Mof_H 	H 	0.2976	0.0261	0.6834	0.102
Mof_C 	C 	0.4322	0.0118	0.6363	0.119
Mof_H 	H 	0.4155	0.964	0.629	0.003
Mof_C 	C 	0.5453	0.1073	0.6267	0.114
Mof_H 	H 	0.6098	0.1285	0.6126	0.004
Mof_C 	C 	0.4774	0.1484	0.6598	-0.188
Mof_H 	H 	0.4966	0.196	0.6671	0.098
Mof_C 	C 	0.1205	0.6359	0.9443	0.074
Mof_H 	H 	0.0755	0.6618	0.9681	0.015
Mof_C 	C 	0.1982	0.6733	0.9056	-0.136
Mof_H 	H 	0.2021	0.7227	0.906	0.082
Mof_C 	C 	0.2617	0.6365	0.8706	0.08
Mof_C 	C 	0.2534	0.5671	0.8729	-0.165
Mof_H 	H 	0.2963	0.5394	0.8492	0.089
Mof_C 	C 	0.1836	0.5349	0.9091	0.104
Mof_H 	H 	0.1833	0.4854	0.9091	0.006
Mof_C 	C 	0.3406	0.6738	0.831	0.049
Mof_H 	H 	0.3882	0.6441	0.8114	0.014
Mof_C 	C 	0.3498	0.7358	0.8217	-0.263
Mof_H 	H 	0.3014	0.7658	0.8405	0.13
Mof_C 	C 	0.4271	0.7699	0.7846	0.318
Mof_C 	C 	0.4293	0.843	0.7838	-0.398
Mof_H 	H 	0.3818	0.8687	0.8066	0.187
Mof_C 	C 	0.2056	0.3961	0.0336	0.307
Mof_C 	C 	0.2616	0.3233	0.0322	-0.062
Mof_C 	C 	0.2086	0.2723	0.9963	-0.019
Mof_H 	H 	0.1381	0.2824	0.9731	0.052
Mof_C 	C 	0.2584	0.2049	0.9936	-0.007
Mof_H 	H 	0.2203	0.1697	0.9698	0.05
Mof_C 	C 	0.3641	0.1911	0.0265	-0.08
Mof_C 	C 	0.4167	0.2428	0.0617	-0.013
Mof_H 	H 	0.4884	0.2333	0.0841	0.052
Mof_C 	C 	0.367	0.309	0.0653	-0.029
Mof_H 	H 	0.4045	0.3437	0.0899	0.055
Mof_C 	C 	0.4209	0.119	0.0243	0.334
Mof_C 	C 	0.8242	0.0327	0.1479	0.331
Mof_C 	C 	0.915	0.0328	0.2009	-0.127
Mof_C 	C 	0.9597	0.9738	0.2254	0.062
Mof_H 	H 	0.9354	0.9304	0.2084	0.015
Mof_C 	C 	0.9573	0.0951	0.2251	0.049
Mof_H 	H 	0.9296	0.138	0.2086	0.028
Mof_O 	O 	0.2489	0.4386	0.0717	-0.259
Mof_O 	O 	0.1161	0.4061	0.9985	-0.292
Mof_O 	O 	0.3585	0.06903	0.00317	-0.307
Mof_O 	O 	0.5254	0.11564	0.04569	-0.305
Mof_O 	O 	0.8076	0.9762	0.11937	-0.291
Mof_O 	O 	0.7656	0.0862	0.13425	-0.296
Mof_Cd	Cd	0.35322	0.02444	0.44304	0.464
Mof_N 	N 	0.2383	0.0788	0.50889	-0.159
Mof_N 	N 	0.4758	0.0396	0.88606	-0.162
Mof_N 	N 	0.8834	0.5663	0.556	-0.155
Mof_C 	C 	0.2481	0.1476	0.5224	0.115
Mof_H 	H 	0.3076	0.1736	0.5081	0.006
Mof_C 	C 	0.1745	0.182	0.5568	-0.197
Mof_H 	H 	0.1848	0.2302	0.565	0.1
Mof_C 	C 	0.0852	0.1448	0.579	0.156
Mof_C 	C 	0.0754	0.075	0.5649	-0.215
Mof_H 	H 	0.016	0.0479	0.5783	0.113
Mof_C 	C 	0.1521	0.0438	0.5311	0.124
Mof_H 	H 	0.1438	0.9954	0.5231	0.001
Mof_C 	C 	0.0015	0.1778	0.6153	-0.118
Mof_H 	H 	0.942	0.1487	0.6261	0.087
Mof_C 	C 	0.0021	0.2431	0.6337	-0.107
Mof_H 	H 	0.0601	0.2727	0.622	0.066
Mof_C 	C 	0.9196	0.2748	0.6713	0.178
Mof_C 	C 	0.9166	0.347	0.6768	-0.224
Mof_H 	H 	0.9657	0.3747	0.6563	0.115
Mof_C 	C 	0.8426	0.38	0.7118	0.149
Mof_H 	H 	0.841	0.4294	0.714	-0.02
Mof_C 	C 	0.7715	0.3405	0.7434	-0.23
Mof_H 	H 	0.723	0.3628	0.7678	0.11
Mof_C 	C 	0.7722	0.2685	0.739	0.168
Mof_C 	C 	0.8467	0.2361	0.7026	-0.23
Mof_H 	H 	0.8467	0.1868	0.6995	0.115
Mof_C 	C 	0.6959	0.2277	0.7741	-0.111
Mof_H 	H 	0.6405	0.2538	0.7916	0.066
Mof_C 	C 	0.6961	0.1592	0.7837	-0.083
Mof_H 	H 	0.752	0.1329	0.7667	0.062
Mof_C 	C 	0.6185	0.1193	0.818	0.139
Mof_C 	C 	0.6392	0.0489	0.8306	-0.192
Mof_H 	H 	0.7024	0.0261	0.8166	0.104
Mof_C 	C 	0.5678	0.0118	0.8637	0.12
Mof_H 	H 	0.5845	0.964	0.871	0.003
Mof_C 	C 	0.4547	0.1073	0.8733	0.114
Mof_H 	H 	0.3902	0.1285	0.8874	0.005
Mof_C 	C 	0.5226	0.1484	0.8402	-0.186
Mof_H 	H 	0.5034	0.196	0.8329	0.098
Mof_C 	C 	0.8795	0.6359	0.5557	0.075
Mof_H 	H 	0.9245	0.6618	0.5319	0.018
Mof_C 	C 	0.8018	0.6733	0.5944	-0.135
Mof_H 	H 	0.7979	0.7227	0.594	0.082
Mof_C 	C 	0.7383	0.6365	0.6294	0.08
Mof_C 	C 	0.7466	0.5671	0.6271	-0.164
Mof_H 	H 	0.7037	0.5394	0.6508	0.089
Mof_C 	C 	0.8164	0.5349	0.5909	0.105
Mof_H 	H 	0.8167	0.4854	0.5909	0.006
Mof_C 	C 	0.6594	0.6738	0.669	0.051
Mof_H 	H 	0.6118	0.6441	0.6886	0.013
Mof_C 	C 	0.6502	0.7358	0.6783	-0.264
Mof_H 	H 	0.6986	0.7658	0.6595	0.132
Mof_C 	C 	0.5729	0.7699	0.7154	0.319
Mof_C 	C 	0.5707	0.843	0.7162	-0.398
Mof_H 	H 	0.6182	0.8687	0.6934	0.189
Mof_C 	C 	0.7944	0.3961	0.4664	0.316
Mof_C 	C 	0.7384	0.3233	0.4678	-0.052
Mof_C 	C 	0.7914	0.2723	0.5037	-0.027
Mof_H 	H 	0.8619	0.2824	0.5269	0.059
Mof_C 	C 	0.7416	0.2049	0.5064	-0.017
Mof_H 	H 	0.7797	0.1697	0.5302	0.054
Mof_C 	C 	0.6359	0.1911	0.4735	-0.066
Mof_C 	C 	0.5833	0.2428	0.4383	-0.016
Mof_H 	H 	0.5116	0.2333	0.4159	0.053
Mof_C 	C 	0.633	0.309	0.4347	-0.028
Mof_H 	H 	0.5955	0.3437	0.4101	0.056
Mof_C 	C 	0.5791	0.119	0.4757	0.331
Mof_C 	C 	0.1758	0.0327	0.3521	0.287
Mof_C 	C 	0.085	0.0328	0.2991	-0.015
Mof_C 	C 	0.0403	0.9738	0.2746	-0.103
Mof_H 	H 	0.0646	0.9304	0.2916	0.066
Mof_C 	C 	0.0427	0.0951	0.2749	-0.093
Mof_H 	H 	0.0704	0.138	0.2914	0.071
Mof_O 	O 	0.7511	0.4386	0.4283	-0.256
Mof_O 	O 	0.8839	0.4061	0.5015	-0.295
Mof_O 	O 	0.6415	0.06903	0.49683	-0.3
Mof_O 	O 	0.4746	0.11564	0.45431	-0.302
Mof_O 	O 	0.1924	0.9762	0.38063	-0.282
Mof_O 	O 	0.2344	0.0862	0.36575	-0.286
Mof_Cd	Cd	0.35322	0.97556	0.94304	0.469
Mof_N 	N 	0.2383	0.9212	0.00889	-0.162
Mof_N 	N 	0.4758	0.9604	0.38606	-0.163
Mof_N 	N 	0.8834	0.4337	0.056	-0.156
Mof_C 	C 	0.2481	0.8524	0.0224	0.115
Mof_H 	H 	0.3076	0.8264	0.0081	0.003
Mof_C 	C 	0.1745	0.818	0.0568	-0.199
Mof_H 	H 	0.1848	0.7698	0.065	0.099
Mof_C 	C 	0.0852	0.8552	0.079	0.157
Mof_C 	C 	0.0754	0.925	0.0649	-0.218
Mof_H 	H 	0.016	0.9521	0.0783	0.113
Mof_C 	C 	0.1521	0.9562	0.0311	0.126
Mof_H 	H 	0.1438	0.0046	0.0231	-0.003
Mof_C 	C 	0.0015	0.8222	0.1153	-0.12
Mof_H 	H 	0.942	0.8513	0.1261	0.088
Mof_C 	C 	0.0021	0.7569	0.1337	-0.106
Mof_H 	H 	0.0601	0.7273	0.122	0.065
Mof_C 	C 	0.9196	0.7252	0.1713	0.178
Mof_C 	C 	0.9166	0.653	0.1768	-0.224
Mof_H 	H 	0.9657	0.6253	0.1563	0.115
Mof_C 	C 	0.8426	0.62	0.2118	0.149
Mof_H 	H 	0.841	0.5706	0.214	-0.02
Mof_C 	C 	0.7715	0.6595	0.2434	-0.23
Mof_H 	H 	0.723	0.6372	0.2678	0.11
Mof_C 	C 	0.7722	0.7315	0.239	0.168
Mof_C 	C 	0.8467	0.7639	0.2026	-0.23
Mof_H 	H 	0.8467	0.8132	0.1995	0.115
Mof_C 	C 	0.6959	0.7723	0.2741	-0.111
Mof_H 	H 	0.6405	0.7462	0.2916	0.066
Mof_C 	C 	0.6961	0.8408	0.2837	-0.083
Mof_H 	H 	0.752	0.8671	0.2667	0.062
Mof_C 	C 	0.6185	0.8807	0.318	0.139
Mof_C 	C 	0.6392	0.9511	0.3306	-0.19
Mof_H 	H 	0.7024	0.9739	0.3166	0.103
Mof_C 	C 	0.5678	0.9882	0.3637	0.117
Mof_H 	H 	0.5845	0.036	0.371	0.004
Mof_C 	C 	0.4547	0.8927	0.3733	0.113
Mof_H 	H 	0.3902	0.8715	0.3874	0.004
Mof_C 	C 	0.5226	0.8516	0.3402	-0.186
Mof_H 	H 	0.5034	0.804	0.3329	0.097
Mof_C 	C 	0.8795	0.3641	0.0557	0.075
Mof_H 	H 	0.9245	0.3382	0.0319	0.015
Mof_C 	C 	0.8018	0.3267	0.0944	-0.136
Mof_H 	H 	0.7979	0.2773	0.094	0.082
Mof_C 	C 	0.7383	0.3635	0.1294	0.08
Mof_C 	C 	0.7466	0.4329	0.1271	-0.165
Mof_H 	H 	0.7037	0.4606	0.1508	0.089
Mof_C 	C 	0.8164	0.4651	0.0909	0.105
Mof_H 	H 	0.8167	0.5146	0.0909	0.005
Mof_C 	C 	0.6594	0.3262	0.169	0.05
Mof_H 	H 	0.6118	0.3559	0.1886	0.014
Mof_C 	C 	0.6502	0.2642	0.1783	-0.263
Mof_H 	H 	0.6986	0.2342	0.1595	0.131
Mof_C 	C 	0.5729	0.2301	0.2154	0.317
Mof_C 	C 	0.5707	0.157	0.2162	-0.397
Mof_H 	H 	0.6182	0.1313	0.1934	0.188
Mof_C 	C 	0.7944	0.6039	0.9664	0.324
Mof_C 	C 	0.7384	0.6767	0.9678	-0.047
Mof_C 	C 	0.7914	0.7277	0.0037	-0.033
Mof_H 	H 	0.8619	0.7176	0.0269	0.059
Mof_C 	C 	0.7416	0.7951	0.0064	-0.028
Mof_H 	H 	0.7797	0.8303	0.0302	0.056
Mof_C 	C 	0.6359	0.8089	0.9735	-0.055
Mof_C 	C 	0.5833	0.7572	0.9383	-0.019
Mof_H 	H 	0.5116	0.7667	0.9159	0.055
Mof_C 	C 	0.633	0.691	0.9347	-0.026
Mof_H 	H 	0.5955	0.6563	0.9101	0.055
Mof_C 	C 	0.5791	0.881	0.9757	0.328
Mof_C 	C 	0.1758	0.9673	0.8521	0.287
Mof_C 	C 	0.085	0.9672	0.7991	-0.018
Mof_C 	C 	0.0403	0.0262	0.7746	-0.098
Mof_H 	H 	0.0646	0.0696	0.7916	0.064
Mof_C 	C 	0.0427	0.9049	0.7749	-0.089
Mof_H 	H 	0.0704	0.862	0.7914	0.07
Mof_O 	O 	0.7511	0.5614	0.9283	-0.256
Mof_O 	O 	0.8839	0.5939	0.0015	-0.302
Mof_O 	O 	0.6415	0.93097	0.99683	-0.295
Mof_O 	O 	0.4746	0.88436	0.95431	-0.3
Mof_O 	O 	0.1924	0.0238	0.88063	-0.28
Mof_O 	O 	0.2344	0.9138	0.86575	-0.285
Mof_Cd	Cd	0.64678	0.97556	0.55696	0.465
Mof_N 	N 	0.7617	0.9212	0.49111	-0.157
Mof_N 	N 	0.5242	0.9604	0.11394	-0.163
Mof_N 	N 	0.1166	0.4337	0.444	-0.159
Mof_C 	C 	0.7519	0.8524	0.4776	0.112
Mof_H 	H 	0.6924	0.8264	0.4919	0.008
Mof_C 	C 	0.8255	0.818	0.4432	-0.188
Mof_H 	H 	0.8152	0.7698	0.435	0.098
Mof_C 	C 	0.9148	0.8552	0.421	0.146
Mof_C 	C 	0.9246	0.925	0.4351	-0.204
Mof_H 	H 	0.984	0.9521	0.4217	0.118
Mof_C 	C 	0.8479	0.9562	0.4689	0.121
Mof_H 	H 	0.8562	0.0046	0.4769	0.006
Mof_C 	C 	0.9985	0.8222	0.3847	-0.081
Mof_H 	H 	0.058	0.8513	0.3739	0.058
Mof_C 	C 	0.9979	0.7569	0.3663	-0.085
Mof_H 	H 	0.9399	0.7273	0.378	0.064
Mof_C 	C 	0.0804	0.7252	0.3287	0.14
Mof_C 	C 	0.0834	0.653	0.3232	-0.199
Mof_H 	H 	0.0343	0.6253	0.3437	0.099
Mof_C 	C 	0.1574	0.62	0.2882	0.123
Mof_H 	H 	0.159	0.5706	0.286	-0.014
Mof_C 	C 	0.2285	0.6595	0.2566	-0.21
Mof_H 	H 	0.277	0.6372	0.2322	0.101
Mof_C 	C 	0.2278	0.7315	0.261	0.148
Mof_C 	C 	0.1533	0.7639	0.2974	-0.206
Mof_H 	H 	0.1533	0.8132	0.3005	0.103
Mof_C 	C 	0.3041	0.7723	0.2259	-0.099
Mof_H 	H 	0.3595	0.7462	0.2084	0.062
Mof_C 	C 	0.3039	0.8408	0.2163	-0.091
Mof_H 	H 	0.248	0.8671	0.2333	0.064
Mof_C 	C 	0.3815	0.8807	0.182	0.142
Mof_C 	C 	0.3608	0.9511	0.1694	-0.193
Mof_H 	H 	0.2976	0.9739	0.1834	0.102
Mof_C 	C 	0.4322	0.9882	0.1363	0.119
Mof_H 	H 	0.4155	0.036	0.129	0.002
Mof_C 	C 	0.5453	0.8927	0.1267	0.114
Mof_H 	H 	0.6098	0.8715	0.1126	0.003
Mof_C 	C 	0.4774	0.8516	0.1598	-0.189
Mof_H 	H 	0.4966	0.804	0.1671	0.098
Mof_C 	C 	0.1205	0.3641	0.4443	0.074
Mof_H 	H 	0.0755	0.3382	0.4681	0.012
Mof_C 	C 	0.1982	0.3267	0.4056	-0.138
Mof_H 	H 	0.2021	0.2773	0.406	0.081
Mof_C 	C 	0.2617	0.3635	0.3706	0.081
Mof_C 	C 	0.2534	0.4329	0.3729	-0.166
Mof_H 	H 	0.2963	0.4606	0.3492	0.089
Mof_C 	C 	0.1836	0.4651	0.4091	0.104
Mof_H 	H 	0.1833	0.5146	0.4091	0.004
Mof_C 	C 	0.3406	0.3262	0.331	0.047
Mof_H 	H 	0.3882	0.3559	0.3114	0.014
Mof_C 	C 	0.3498	0.2642	0.3217	-0.261
Mof_H 	H 	0.3014	0.2342	0.3405	0.129
Mof_C 	C 	0.4271	0.2301	0.2846	0.316
Mof_C 	C 	0.4293	0.157	0.2838	-0.396
Mof_H 	H 	0.3818	0.1313	0.3066	0.187
Mof_C 	C 	0.2056	0.6039	0.5336	0.318
Mof_C 	C 	0.2616	0.6767	0.5322	-0.057
Mof_C 	C 	0.2086	0.7277	0.4963	-0.025
Mof_H 	H 	0.1381	0.7176	0.4731	0.052
Mof_C 	C 	0.2584	0.7951	0.4936	-0.022
Mof_H 	H 	0.2203	0.8303	0.4698	0.052
Mof_C 	C 	0.3641	0.8089	0.5265	-0.065
Mof_C 	C 	0.4167	0.7572	0.5617	-0.018
Mof_H 	H 	0.4884	0.7667	0.5841	0.054
Mof_C 	C 	0.367	0.691	0.5653	-0.025
Mof_H 	H 	0.4045	0.6563	0.5899	0.054
Mof_C 	C 	0.4209	0.881	0.5243	0.33
Mof_C 	C 	0.8242	0.9673	0.6479	0.33
Mof_C 	C 	0.915	0.9672	0.7009	-0.124
Mof_C 	C 	0.9597	0.0262	0.7254	0.057
Mof_H 	H 	0.9354	0.0696	0.7084	0.016
Mof_C 	C 	0.9573	0.9049	0.7251	0.046
Mof_H 	H 	0.9296	0.862	0.7086	0.029
Mof_O 	O 	0.2489	0.5614	0.5717	-0.26
Mof_O 	O 	0.1161	0.5939	0.4985	-0.304
Mof_O 	O 	0.3585	0.93097	0.50317	-0.301
Mof_O 	O 	0.5254	0.88436	0.54569	-0.302
Mof_O 	O 	0.8076	0.0238	0.61937	-0.29
Mof_O 	O 	0.7656	0.9138	0.63425	-0.295
Mof_Cd	Cd	-0	0.5	-0	0.394
Mof_Cd	Cd	2.33955e-17	0.5	0.5	0.402
Mof_C 	C 	0.5	0.7334	0.75	-0.363
Mof_H 	H 	0.5	0.6839	0.75	0.162
Mof_C 	C 	0.5	0.8776	0.75	0.334
Mof_H 	H 	0.5	0.927	0.75	-0.082
Mof_C 	C 	0.5	0.2666	0.25	-0.361
Mof_H 	H 	0.5	0.3161	0.25	0.161
Mof_C 	C 	0.5	0.1224	0.25	0.333
Mof_H 	H 	0.5	0.073	0.25	-0.081
_end
