data_functionalizedCrystal
_audit_creation_method	'EQeq! by Chris Wilmer'
_symmetry_space_group_name_H-M	'P1'
_symmetry_Int_Tables_number	1
_symmetry_cell_setting	triclinic
loop_
_symmetry_equiv_pos_as_xyz
  x,y,z
_cell_length_a	11.126
_cell_length_b	17.361
_cell_length_c	16.119
_cell_angle_alpha	90
_cell_angle_beta	102.4
_cell_angle_gamma	90
loop_
_atom_site_label
_atom_site_type_symbol
_atom_site_fract_x
_atom_site_fract_y
_atom_site_fract_z
_atom_site_charge
Mof_Cd	Cd	0.15843	0.4453	0.88325	0.526
Mof_Cd	Cd	0.33557	0.40609	0.09503	0.535
Mof_O 	O 	0.1766	0.5592	0.8138	-0.192
Mof_O 	O 	0.2446	0.4197	0.7687	-0.193
Mof_O 	O 	0.0242	0.4917	0.1106	-0.212
Mof_O 	O 	0.4705	0.1613	0.1479	-0.152
Mof_O 	O 	0.1336	0.4439	0.0217	-0.239
Mof_O 	O 	0.3424	0.4881	0.9752	-0.235
Mof_O 	O 	0.2237	0.169	0.0908	-0.186
Mof_O 	O 	0.3244	0.4739	0.6678	-0.195
Mof_O 	O 	0.2275	0.2855	0.0903	-0.307
Mof_O 	O 	0.4668	0.2998	0.1201	-0.148
Mof_O 	O 	0.2734	0.6136	0.7231	-0.182
Mof_O 	O 	0.4656	0.5461	0.903	-0.207
Mof_C 	C 	0.2382	0.5561	0.7584	0.238
Mof_C 	C 	0.0442	0.4821	0.0388	0.24
Mof_C 	C 	0.446	0.5096	0.9643	0.244
Mof_C 	C 	0.2715	0.4765	0.7277	0.236
Mof_C 	C 	0.2742	0.2361	0.0947	0.342
Mof_C 	C 	0.4158	0.2351	0.1179	0.15
Mof_O 	O 	0.1954	0.1629	0.0348	-0.078
Mof_O 	O 	0.4886	0.3209	0.1897	-0.032
Mof_C 	C 	0.2312	0.2325	0.0403	0.057
Mof_Cd	Cd	0.65843	0.9453	0.88325	0.526
Mof_Cd	Cd	0.83557	0.90609	0.09503	0.533
Mof_O 	O 	0.6766	0.0592	0.8138	-0.193
Mof_O 	O 	0.7446	0.9197	0.7687	-0.194
Mof_O 	O 	0.5242	0.9917	0.1106	-0.213
Mof_O 	O 	0.9705	0.6613	0.1479	-0.153
Mof_O 	O 	0.6336	0.9439	0.0217	-0.24
Mof_O 	O 	0.8424	0.9881	0.9752	-0.234
Mof_O 	O 	0.7237	0.669	0.0908	-0.191
Mof_O 	O 	0.8244	0.9739	0.6678	-0.195
Mof_O 	O 	0.7275	0.7855	0.0903	-0.311
Mof_O 	O 	0.9668	0.7998	0.1201	-0.147
Mof_O 	O 	0.7734	0.1136	0.7231	-0.182
Mof_O 	O 	0.9656	0.0461	0.903	-0.207
Mof_C 	C 	0.7382	0.0561	0.7584	0.238
Mof_C 	C 	0.5442	0.9821	0.0388	0.24
Mof_C 	C 	0.946	0.0096	0.9643	0.244
Mof_C 	C 	0.7715	0.9765	0.7277	0.236
Mof_C 	C 	0.7742	0.7361	0.0947	0.361
Mof_C 	C 	0.9158	0.7351	0.1179	0.144
Mof_O 	O 	0.6954	0.6629	0.0348	-0.071
Mof_O 	O 	0.9886	0.8209	0.1897	-0.033
Mof_C 	C 	0.7312	0.7325	0.0403	0.038
Mof_Cd	Cd	0.84157	0.4453	0.61675	0.525
Mof_Cd	Cd	0.66443	0.40609	0.40497	0.533
Mof_O 	O 	0.8234	0.5592	0.6862	-0.193
Mof_O 	O 	0.7554	0.4197	0.7313	-0.194
Mof_O 	O 	0.9758	0.4917	0.3894	-0.213
Mof_O 	O 	0.5295	0.1613	0.3521	-0.153
Mof_O 	O 	0.8664	0.4439	0.4783	-0.24
Mof_O 	O 	0.6576	0.4881	0.5248	-0.235
Mof_O 	O 	0.7763	0.169	0.4092	-0.189
Mof_O 	O 	0.6756	0.4739	0.8322	-0.195
Mof_O 	O 	0.7725	0.2855	0.4097	-0.309
Mof_O 	O 	0.5332	0.2998	0.3799	-0.147
Mof_O 	O 	0.7266	0.6136	0.7769	-0.182
Mof_O 	O 	0.5344	0.5461	0.597	-0.207
Mof_C 	C 	0.7618	0.5561	0.7416	0.238
Mof_C 	C 	0.9558	0.4821	0.4612	0.24
Mof_C 	C 	0.554	0.5096	0.5357	0.244
Mof_C 	C 	0.7285	0.4765	0.7723	0.236
Mof_C 	C 	0.7258	0.2361	0.4053	0.351
Mof_C 	C 	0.5842	0.2351	0.3821	0.147
Mof_O 	O 	0.8046	0.1629	0.4652	-0.075
Mof_O 	O 	0.5114	0.3209	0.3103	-0.032
Mof_C 	C 	0.7688	0.2325	0.4597	0.047
Mof_Cd	Cd	0.34157	0.9453	0.61675	0.526
Mof_Cd	Cd	0.16443	0.90609	0.40497	0.534
Mof_O 	O 	0.3234	0.0592	0.6862	-0.193
Mof_O 	O 	0.2554	0.9197	0.7313	-0.194
Mof_O 	O 	0.4758	0.9917	0.3894	-0.213
Mof_O 	O 	0.0295	0.6613	0.3521	-0.153
Mof_O 	O 	0.3664	0.9439	0.4783	-0.24
Mof_O 	O 	0.1576	0.9881	0.5248	-0.235
Mof_O 	O 	0.2763	0.669	0.4092	-0.189
Mof_O 	O 	0.1756	0.9739	0.8322	-0.195
Mof_O 	O 	0.2725	0.7855	0.4097	-0.309
Mof_O 	O 	0.0332	0.7998	0.3799	-0.147
Mof_O 	O 	0.2266	0.1136	0.7769	-0.182
Mof_O 	O 	0.0344	0.0461	0.597	-0.208
Mof_C 	C 	0.2618	0.0561	0.7416	0.238
Mof_C 	C 	0.4558	0.9821	0.4612	0.24
Mof_C 	C 	0.054	0.0096	0.5357	0.244
Mof_C 	C 	0.2285	0.9765	0.7723	0.237
Mof_C 	C 	0.2258	0.7361	0.4053	0.351
Mof_C 	C 	0.0842	0.7351	0.3821	0.147
Mof_O 	O 	0.3046	0.6629	0.4652	-0.075
Mof_O 	O 	0.0114	0.8209	0.3103	-0.032
Mof_C 	C 	0.2688	0.7325	0.4597	0.048
Mof_Cd	Cd	0.84157	0.5547	0.11675	0.525
Mof_Cd	Cd	0.66443	0.59391	0.90497	0.534
Mof_O 	O 	0.8234	0.4408	0.1862	-0.193
Mof_O 	O 	0.7554	0.5803	0.2313	-0.194
Mof_O 	O 	0.9758	0.5083	0.8894	-0.213
Mof_O 	O 	0.5295	0.8387	0.8521	-0.153
Mof_O 	O 	0.8664	0.5561	0.9783	-0.239
Mof_O 	O 	0.6576	0.5119	0.0248	-0.235
Mof_O 	O 	0.7763	0.831	0.9092	-0.186
Mof_O 	O 	0.6756	0.5261	0.3322	-0.195
Mof_O 	O 	0.7725	0.7145	0.9097	-0.307
Mof_O 	O 	0.5332	0.7002	0.8799	-0.148
Mof_O 	O 	0.7266	0.3864	0.2769	-0.182
Mof_O 	O 	0.5344	0.4539	0.097	-0.207
Mof_C 	C 	0.7618	0.4439	0.2416	0.238
Mof_C 	C 	0.9558	0.5179	0.9612	0.24
Mof_C 	C 	0.554	0.4904	0.0357	0.244
Mof_C 	C 	0.7285	0.5235	0.2723	0.236
Mof_C 	C 	0.7258	0.7639	0.9053	0.342
Mof_C 	C 	0.5842	0.7649	0.8821	0.15
Mof_O 	O 	0.8046	0.8371	0.9652	-0.078
Mof_O 	O 	0.5114	0.6791	0.8103	-0.032
Mof_C 	C 	0.7688	0.7675	0.9597	0.057
Mof_Cd	Cd	0.34157	0.0547	0.11675	0.526
Mof_Cd	Cd	0.16443	0.09391	0.90497	0.533
Mof_O 	O 	0.3234	0.9408	0.1862	-0.193
Mof_O 	O 	0.2554	0.0803	0.2313	-0.194
Mof_O 	O 	0.4758	0.0083	0.8894	-0.213
Mof_O 	O 	0.0295	0.3387	0.8521	-0.153
Mof_O 	O 	0.3664	0.0561	0.9783	-0.24
Mof_O 	O 	0.1576	0.0119	0.0248	-0.234
Mof_O 	O 	0.2763	0.331	0.9092	-0.191
Mof_O 	O 	0.1756	0.0261	0.3322	-0.195
Mof_O 	O 	0.2725	0.2145	0.9097	-0.311
Mof_O 	O 	0.0332	0.2002	0.8799	-0.147
Mof_O 	O 	0.2266	0.8864	0.2769	-0.182
Mof_O 	O 	0.0344	0.9539	0.097	-0.207
Mof_C 	C 	0.2618	0.9439	0.2416	0.238
Mof_C 	C 	0.4558	0.0179	0.9612	0.24
Mof_C 	C 	0.054	0.9904	0.0357	0.244
Mof_C 	C 	0.2285	0.0235	0.2723	0.236
Mof_C 	C 	0.2258	0.2639	0.9053	0.361
Mof_C 	C 	0.0842	0.2649	0.8821	0.144
Mof_O 	O 	0.3046	0.3371	0.9652	-0.071
Mof_O 	O 	0.0114	0.1791	0.8103	-0.033
Mof_C 	C 	0.2688	0.2675	0.9597	0.038
Mof_Cd	Cd	0.15843	0.5547	0.38325	0.525
Mof_Cd	Cd	0.33557	0.59391	0.59503	0.533
Mof_O 	O 	0.1766	0.4408	0.3138	-0.193
Mof_O 	O 	0.2446	0.5803	0.2687	-0.194
Mof_O 	O 	0.0242	0.5083	0.6106	-0.213
Mof_O 	O 	0.4705	0.8387	0.6479	-0.153
Mof_O 	O 	0.1336	0.5561	0.5217	-0.24
Mof_O 	O 	0.3424	0.5119	0.4752	-0.235
Mof_O 	O 	0.2237	0.831	0.5908	-0.189
Mof_O 	O 	0.3244	0.5261	0.1678	-0.195
Mof_O 	O 	0.2275	0.7145	0.5903	-0.309
Mof_O 	O 	0.4668	0.7002	0.6201	-0.147
Mof_O 	O 	0.2734	0.3864	0.2231	-0.182
Mof_O 	O 	0.4656	0.4539	0.403	-0.207
Mof_C 	C 	0.2382	0.4439	0.2584	0.238
Mof_C 	C 	0.0442	0.5179	0.5388	0.24
Mof_C 	C 	0.446	0.4904	0.4643	0.244
Mof_C 	C 	0.2715	0.5235	0.2277	0.236
Mof_C 	C 	0.2742	0.7639	0.5947	0.351
Mof_C 	C 	0.4158	0.7649	0.6179	0.147
Mof_O 	O 	0.1954	0.8371	0.5348	-0.075
Mof_O 	O 	0.4886	0.6791	0.6897	-0.032
Mof_C 	C 	0.2312	0.7675	0.5403	0.047
Mof_Cd	Cd	0.65843	0.0547	0.38325	0.526
Mof_Cd	Cd	0.83557	0.09391	0.59503	0.534
Mof_O 	O 	0.6766	0.9408	0.3138	-0.193
Mof_O 	O 	0.7446	0.0803	0.2687	-0.194
Mof_O 	O 	0.5242	0.0083	0.6106	-0.213
Mof_O 	O 	0.9705	0.3387	0.6479	-0.153
Mof_O 	O 	0.6336	0.0561	0.5217	-0.24
Mof_O 	O 	0.8424	0.0119	0.4752	-0.235
Mof_O 	O 	0.7237	0.331	0.5908	-0.189
Mof_O 	O 	0.8244	0.0261	0.1678	-0.195
Mof_O 	O 	0.7275	0.2145	0.5903	-0.309
Mof_O 	O 	0.9668	0.2002	0.6201	-0.147
Mof_O 	O 	0.7734	0.8864	0.2231	-0.182
Mof_O 	O 	0.9656	0.9539	0.403	-0.208
Mof_C 	C 	0.7382	0.9439	0.2584	0.238
Mof_C 	C 	0.5442	0.0179	0.5388	0.24
Mof_C 	C 	0.946	0.9904	0.4643	0.244
Mof_C 	C 	0.7715	0.0235	0.2277	0.237
Mof_C 	C 	0.7742	0.2639	0.5947	0.351
Mof_C 	C 	0.9158	0.2649	0.6179	0.147
Mof_O 	O 	0.6954	0.3371	0.5348	-0.075
Mof_O 	O 	0.9886	0.1791	0.6897	-0.032
Mof_C 	C 	0.7312	0.2675	0.5403	0.048
_end
