data_functionalizedCrystal
_audit_creation_method	'EQeq! by Chris Wilmer'
_symmetry_space_group_name_H-M	'P1'
_symmetry_Int_Tables_number	1
_symmetry_cell_setting	triclinic
loop_
_symmetry_equiv_pos_as_xyz
  x,y,z
_cell_length_a	13.5422
_cell_length_b	21.1573
_cell_length_c	24.0112
_cell_angle_alpha	90
_cell_angle_beta	90
_cell_angle_gamma	90
loop_
_atom_site_label
_atom_site_type_symbol
_atom_site_fract_x
_atom_site_fract_y
_atom_site_fract_z
_atom_site_charge
Mof_Co	Co	0.3627	0.03143	0.1984	1.139
Mof_Co	Co	0.36636	0.18047	0.12407	1.14
Mof_Co	Co	0.6373	0.96857	0.6984	1.139
Mof_Co	Co	0.63364	0.81953	0.62407	1.14
Mof_Co	Co	0.1373	0.53143	0.1984	1.14
Mof_Co	Co	0.13364	0.68047	0.12407	1.14
Mof_Co	Co	0.8627	0.46857	0.6984	1.139
Mof_Co	Co	0.86636	0.31953	0.62407	1.14
Mof_H 	H 	0.4922	0.0902	0.1368	0.165
Mof_H 	H 	0.485	0.1265	0.1933	0.169
Mof_H 	H 	0.1121	0.9701	0.1053	0.099
Mof_H 	H 	0.9287	0.005	0.9769	0.143
Mof_H 	H 	0.15	0.1265	0.0131	0.105
Mof_H 	H 	0.1425	0.0926	0.3123	0.106
Mof_H 	H 	0.9194	0.2145	0.3402	0.132
Mof_H 	H 	0.104	0.2408	0.2108	0.101
Mof_H 	H 	0.735	0.9924	0.8084	-0.03
Mof_H 	H 	0.7908	0.0689	0.8667	0.161
Mof_H 	H 	0.7425	0.1939	0.746	0.138
Mof_H 	H 	0.6866	0.1139	0.6905	-0.048
Mof_H 	H 	0.8707	0.192	0.8594	0.179
Mof_H 	H 	0.7862	0.2348	0.8355	0.157
Mof_H 	H 	0.7747	0.2222	0.9345	-0.027
Mof_H 	H 	0.7551	0.1498	0.9255	-0.023
Mof_H 	H 	0.6306	0.247	0.8897	0.165
Mof_H 	H 	0.6122	0.1756	0.8756	0.164
Mof_H 	H 	0.016	0.5545	0.7547	-0.032
Mof_H 	H 	0.1048	0.5653	0.835	0.144
Mof_H 	H 	0.0172	0.3902	0.8756	0.137
Mof_H 	H 	0.932	0.3865	0.7958	-0.043
Mof_H 	H 	0.0963	0.5088	0.9448	0.152
Mof_H 	H 	0.1939	0.5055	0.9099	0.16
Mof_H 	H 	0.0965	0.3991	0.956	-0.018
Mof_H 	H 	0.189	0.3929	0.9171	-0.013
Mof_H 	H 	0.1917	0.4554	0.0183	0.104
Mof_H 	H 	0.2837	0.4439	0.9802	0.146
Mof_H 	H 	0.4416	0.0991	0.0234	-0.025
Mof_H 	H 	0.5283	0.1094	0.9428	0.108
Mof_H 	H 	0.6181	0.2789	0.993	0.135
Mof_H 	H 	0.5294	0.2659	0.0727	-0.01
Mof_H 	H 	0.2859	0.2162	0.0075	-0.004
Mof_H 	H 	0.2453	0.305	0.9586	0.103
Mof_H 	H 	0.2375	0.4016	0.0999	0.103
Mof_H 	H 	0.2895	0.3131	0.1446	-0.031
Mof_H 	H 	0.5078	0.9098	0.6368	0.167
Mof_H 	H 	0.515	0.8735	0.6933	0.169
Mof_H 	H 	0.8879	0.0299	0.6053	0.099
Mof_H 	H 	0.0713	0.995	0.4769	0.143
Mof_H 	H 	0.85	0.8735	0.5131	0.1
Mof_H 	H 	0.8575	0.9074	0.8123	0.104
Mof_H 	H 	0.0806	0.7855	0.8402	0.13
Mof_H 	H 	0.896	0.7592	0.7108	0.1
Mof_H 	H 	0.265	0.0076	0.3084	-0.03
Mof_H 	H 	0.2092	0.9311	0.3667	0.162
Mof_H 	H 	0.2575	0.8061	0.246	0.139
Mof_H 	H 	0.3134	0.8861	0.1905	-0.049
Mof_H 	H 	0.1293	0.808	0.3594	0.184
Mof_H 	H 	0.2138	0.7652	0.3355	0.163
Mof_H 	H 	0.2253	0.7778	0.4345	-0.04
Mof_H 	H 	0.2449	0.8502	0.4255	-0.035
Mof_H 	H 	0.3694	0.753	0.3897	0.178
Mof_H 	H 	0.3878	0.8244	0.3756	0.177
Mof_H 	H 	0.984	0.4455	0.2547	-0.038
Mof_H 	H 	0.8952	0.4347	0.335	0.153
Mof_H 	H 	0.9828	0.6098	0.3756	0.15
Mof_H 	H 	0.068	0.6135	0.2958	-0.051
Mof_H 	H 	0.9037	0.4912	0.4448	0.176
Mof_H 	H 	0.8061	0.4945	0.4099	0.188
Mof_H 	H 	0.9035	0.6009	0.456	-0.077
Mof_H 	H 	0.811	0.6071	0.4171	-0.069
Mof_H 	H 	0.8083	0.5446	0.5183	0.191
Mof_H 	H 	0.7163	0.5561	0.4802	0.212
Mof_H 	H 	0.5584	0.9009	0.5234	-0.043
Mof_H 	H 	0.4717	0.8906	0.4428	0.129
Mof_H 	H 	0.3819	0.7211	0.493	0.155
Mof_H 	H 	0.4706	0.7341	0.5727	-0.028
Mof_H 	H 	0.7141	0.7838	0.5075	-0.037
Mof_H 	H 	0.7547	0.695	0.4586	0.165
Mof_H 	H 	0.7625	0.5984	0.5999	0.148
Mof_H 	H 	0.7105	0.6869	0.6446	-0.056
Mof_H 	H 	0.0078	0.5902	0.1368	0.165
Mof_H 	H 	0.015	0.6265	0.1933	0.169
Mof_H 	H 	0.3879	0.4701	0.1053	0.098
Mof_H 	H 	0.5713	0.505	0.9769	0.141
Mof_H 	H 	0.35	0.6265	0.0131	0.104
Mof_H 	H 	0.3575	0.5926	0.3123	0.106
Mof_H 	H 	0.5806	0.7145	0.3402	0.131
Mof_H 	H 	0.396	0.7408	0.2108	0.101
Mof_H 	H 	0.765	0.4924	0.8084	-0.029
Mof_H 	H 	0.7092	0.5689	0.8667	0.161
Mof_H 	H 	0.7575	0.6939	0.746	0.138
Mof_H 	H 	0.8134	0.6139	0.6905	-0.048
Mof_H 	H 	0.6293	0.692	0.8594	0.179
Mof_H 	H 	0.7138	0.7348	0.8355	0.158
Mof_H 	H 	0.7253	0.7222	0.9345	-0.027
Mof_H 	H 	0.7449	0.6498	0.9255	-0.024
Mof_H 	H 	0.8694	0.747	0.8897	0.165
Mof_H 	H 	0.8878	0.6756	0.8756	0.164
Mof_H 	H 	0.484	0.0545	0.7547	-0.032
Mof_H 	H 	0.3952	0.0653	0.835	0.144
Mof_H 	H 	0.4828	0.8902	0.8756	0.138
Mof_H 	H 	0.568	0.8865	0.7958	-0.044
Mof_H 	H 	0.4037	0.0088	0.9448	0.152
Mof_H 	H 	0.3061	0.0055	0.9099	0.161
Mof_H 	H 	0.4035	0.8991	0.956	-0.019
Mof_H 	H 	0.311	0.8929	0.9171	-0.014
Mof_H 	H 	0.3083	0.9554	0.0183	0.104
Mof_H 	H 	0.2163	0.9439	0.9802	0.147
Mof_H 	H 	0.0584	0.5991	0.0234	-0.026
Mof_H 	H 	0.9717	0.6094	0.9428	0.108
Mof_H 	H 	0.8819	0.7789	0.993	0.136
Mof_H 	H 	0.9706	0.7659	0.0727	-0.011
Mof_H 	H 	0.2141	0.7162	0.0075	-0.004
Mof_H 	H 	0.2547	0.805	0.9586	0.102
Mof_H 	H 	0.2625	0.9016	0.0999	0.103
Mof_H 	H 	0.2105	0.8131	0.1446	-0.031
Mof_H 	H 	0.9922	0.4098	0.6368	0.166
Mof_H 	H 	0.985	0.3735	0.6933	0.169
Mof_H 	H 	0.6121	0.5299	0.6053	0.1
Mof_H 	H 	0.4287	0.495	0.4769	0.145
Mof_H 	H 	0.65	0.3735	0.5131	0.101
Mof_H 	H 	0.6425	0.4074	0.8123	0.106
Mof_H 	H 	0.4194	0.2855	0.8402	0.133
Mof_H 	H 	0.604	0.2592	0.7108	0.102
Mof_H 	H 	0.235	0.5076	0.3084	-0.031
Mof_H 	H 	0.2908	0.4311	0.3667	0.162
Mof_H 	H 	0.2425	0.3061	0.246	0.139
Mof_H 	H 	0.1866	0.3861	0.1905	-0.049
Mof_H 	H 	0.3707	0.308	0.3594	0.184
Mof_H 	H 	0.2862	0.2652	0.3355	0.163
Mof_H 	H 	0.2747	0.2778	0.4345	-0.04
Mof_H 	H 	0.2551	0.3502	0.4255	-0.035
Mof_H 	H 	0.1306	0.253	0.3897	0.178
Mof_H 	H 	0.1122	0.3244	0.3756	0.177
Mof_H 	H 	0.516	0.9455	0.2547	-0.038
Mof_H 	H 	0.6048	0.9347	0.335	0.153
Mof_H 	H 	0.5172	0.1098	0.3756	0.149
Mof_H 	H 	0.432	0.1135	0.2958	-0.05
Mof_H 	H 	0.5963	0.9912	0.4448	0.175
Mof_H 	H 	0.6939	0.9945	0.4099	0.186
Mof_H 	H 	0.5965	0.1009	0.456	-0.076
Mof_H 	H 	0.689	0.1071	0.4171	-0.068
Mof_H 	H 	0.6917	0.0446	0.5183	0.191
Mof_H 	H 	0.7837	0.0561	0.4802	0.212
Mof_H 	H 	0.9416	0.4009	0.5234	-0.042
Mof_H 	H 	0.0283	0.3906	0.4428	0.129
Mof_H 	H 	0.1181	0.2211	0.493	0.155
Mof_H 	H 	0.0294	0.2341	0.5727	-0.028
Mof_H 	H 	0.7859	0.2838	0.5075	-0.037
Mof_H 	H 	0.7453	0.195	0.4586	0.164
Mof_H 	H 	0.7375	0.0984	0.5999	0.148
Mof_H 	H 	0.7895	0.1869	0.6446	-0.056
Mof_C 	C 	0.2366	0.0665	0.0961	0.35
Mof_C 	C 	0.1458	0.0508	0.064	-0.004
Mof_C 	C 	0.0934	0.996	0.0758	-0.125
Mof_C 	C 	0.0127	0.9806	0.0428	0.135
Mof_C 	C 	0.9819	0.0169	0.9991	-0.175
Mof_C 	C 	0.0333	0.0719	0.9897	0.178
Mof_C 	C 	0.1159	0.0894	0.0211	-0.154
Mof_C 	C 	0.2309	0.1462	0.2245	0.35
Mof_C 	C 	0.139	0.1645	0.2568	-0
Mof_C 	C 	0.1084	0.129	0.3021	-0.134
Mof_C 	C 	0.0277	0.148	0.3317	0.15
Mof_C 	C 	0.9735	0.2017	0.3191	-0.199
Mof_C 	C 	0.0059	0.235	0.2728	0.149
Mof_C 	C 	0.0857	0.2173	0.2418	-0.136
Mof_C 	C 	0.7368	0.0338	0.7955	0.178
Mof_C 	C 	0.7694	0.0794	0.8311	-0.3
Mof_C 	C 	0.7702	0.1416	0.8133	0.289
Mof_C 	C 	0.7407	0.1529	0.7599	-0.304
Mof_C 	C 	0.7084	0.1045	0.7263	0.176
Mof_C 	C 	0.8001	0.1944	0.8529	-0.432
Mof_C 	C 	0.746	0.1914	0.9093	0.223
Mof_C 	C 	0.6394	0.2042	0.9033	-0.419
Mof_C 	C 	0.0159	0.5213	0.7801	0.157
Mof_C 	C 	0.0705	0.528	0.828	-0.281
Mof_C 	C 	0.0735	0.4782	0.8658	0.267
Mof_C 	C 	0.0184	0.4249	0.8517	-0.289
Mof_C 	C 	0.967	0.4232	0.8039	0.173
Mof_C 	C 	0.1328	0.4835	0.9181	-0.406
Mof_C 	C 	0.1573	0.4196	0.9447	0.171
Mof_C 	C 	0.2216	0.4258	0.9925	-0.307
Mof_C 	C 	0.4766	0.1363	0.0173	0.1
Mof_C 	C 	0.5289	0.1422	0.9685	-0.215
Mof_C 	C 	0.5824	0.1965	0.9571	0.236
Mof_C 	C 	0.5817	0.2421	0.998	-0.209
Mof_C 	C 	0.5282	0.2339	0.0461	0.093
Mof_C 	C 	0.2803	0.2545	0.0264	0.085
Mof_C 	C 	0.2548	0.3077	0.9968	-0.148
Mof_C 	C 	0.2433	0.3651	0.0234	0.166
Mof_C 	C 	0.2515	0.3652	0.0796	-0.218
Mof_C 	C 	0.2806	0.3112	0.1062	0.124
Mof_C 	C 	0.7634	0.9335	0.5961	0.353
Mof_C 	C 	0.8542	0.9492	0.564	-0.015
Mof_C 	C 	0.9066	0.004	0.5758	-0.124
Mof_C 	C 	0.9873	0.0194	0.5428	0.153
Mof_C 	C 	0.0181	0.9831	0.4991	-0.191
Mof_C 	C 	0.9667	0.9281	0.4897	0.15
Mof_C 	C 	0.8841	0.9106	0.5211	-0.12
Mof_C 	C 	0.7691	0.8538	0.7245	0.351
Mof_C 	C 	0.861	0.8355	0.7568	-0.004
Mof_C 	C 	0.8916	0.871	0.8021	-0.128
Mof_C 	C 	0.9723	0.852	0.8317	0.144
Mof_C 	C 	0.0265	0.7983	0.8191	-0.188
Mof_C 	C 	0.9941	0.765	0.7728	0.142
Mof_C 	C 	0.9143	0.7827	0.7418	-0.131
Mof_C 	C 	0.2632	0.9662	0.2955	0.178
Mof_C 	C 	0.2306	0.9206	0.3311	-0.305
Mof_C 	C 	0.2298	0.8584	0.3133	0.296
Mof_C 	C 	0.2593	0.8471	0.2599	-0.31
Mof_C 	C 	0.2916	0.8955	0.2263	0.179
Mof_C 	C 	0.1999	0.8056	0.3529	-0.452
Mof_C 	C 	0.254	0.8086	0.4093	0.257
Mof_C 	C 	0.3606	0.7958	0.4033	-0.467
Mof_C 	C 	0.9841	0.4787	0.2801	0.171
Mof_C 	C 	0.9295	0.472	0.328	-0.313
Mof_C 	C 	0.9265	0.5218	0.3658	0.313
Mof_C 	C 	0.9816	0.5751	0.3517	-0.326
Mof_C 	C 	0.033	0.5768	0.3039	0.195
Mof_C 	C 	0.8672	0.5165	0.4181	-0.513
Mof_C 	C 	0.8427	0.5804	0.4447	0.35
Mof_C 	C 	0.7784	0.5742	0.4925	-0.56
Mof_C 	C 	0.5234	0.8637	0.5173	0.162
Mof_C 	C 	0.4711	0.8578	0.4685	-0.292
Mof_C 	C 	0.4176	0.8035	0.4571	0.29
Mof_C 	C 	0.4183	0.7579	0.498	-0.285
Mof_C 	C 	0.4718	0.7661	0.5461	0.153
Mof_C 	C 	0.7197	0.7455	0.5264	0.199
Mof_C 	C 	0.7452	0.6923	0.4968	-0.332
Mof_C 	C 	0.7567	0.6349	0.5234	0.356
Mof_C 	C 	0.7485	0.6348	0.5796	-0.347
Mof_C 	C 	0.7194	0.6888	0.6062	0.199
Mof_C 	C 	0.2634	0.5665	0.0961	0.351
Mof_C 	C 	0.3542	0.5508	0.064	-0.007
Mof_C 	C 	0.4066	0.496	0.0758	-0.121
Mof_C 	C 	0.4873	0.4806	0.0428	0.13
Mof_C 	C 	0.5181	0.5169	0.9991	-0.168
Mof_C 	C 	0.4667	0.5719	0.9897	0.173
Mof_C 	C 	0.3841	0.5894	0.0211	-0.151
Mof_C 	C 	0.2691	0.6462	0.2245	0.35
Mof_C 	C 	0.361	0.6645	0.2568	-0.001
Mof_C 	C 	0.3916	0.629	0.3021	-0.133
Mof_C 	C 	0.4723	0.648	0.3317	0.149
Mof_C 	C 	0.5265	0.7017	0.3191	-0.198
Mof_C 	C 	0.4941	0.735	0.2728	0.148
Mof_C 	C 	0.4143	0.7173	0.2418	-0.135
Mof_C 	C 	0.7632	0.5338	0.7955	0.177
Mof_C 	C 	0.7306	0.5794	0.8311	-0.299
Mof_C 	C 	0.7298	0.6416	0.8133	0.289
Mof_C 	C 	0.7593	0.6529	0.7599	-0.304
Mof_C 	C 	0.7916	0.6045	0.7263	0.176
Mof_C 	C 	0.6999	0.6944	0.8529	-0.433
Mof_C 	C 	0.754	0.6914	0.9093	0.223
Mof_C 	C 	0.8606	0.7042	0.9033	-0.42
Mof_C 	C 	0.4841	0.0213	0.7801	0.156
Mof_C 	C 	0.4295	0.028	0.828	-0.282
Mof_C 	C 	0.4265	0.9782	0.8658	0.268
Mof_C 	C 	0.4816	0.9249	0.8517	-0.293
Mof_C 	C 	0.533	0.9232	0.8039	0.178
Mof_C 	C 	0.3672	0.9835	0.9181	-0.408
Mof_C 	C 	0.3427	0.9196	0.9447	0.173
Mof_C 	C 	0.2784	0.9258	0.9925	-0.308
Mof_C 	C 	0.0234	0.6363	0.0173	0.102
Mof_C 	C 	0.9711	0.6422	0.9685	-0.219
Mof_C 	C 	0.9176	0.6965	0.9571	0.237
Mof_C 	C 	0.9183	0.7421	0.998	-0.212
Mof_C 	C 	0.9718	0.7339	0.0461	0.095
Mof_C 	C 	0.2197	0.7545	0.0264	0.085
Mof_C 	C 	0.2452	0.8077	0.9968	-0.147
Mof_C 	C 	0.2567	0.8651	0.0234	0.166
Mof_C 	C 	0.2485	0.8652	0.0796	-0.218
Mof_C 	C 	0.2194	0.8112	0.1062	0.124
Mof_C 	C 	0.7366	0.4335	0.5961	0.352
Mof_C 	C 	0.6458	0.4492	0.564	-0.012
Mof_C 	C 	0.5934	0.504	0.5758	-0.128
Mof_C 	C 	0.5127	0.5194	0.5428	0.157
Mof_C 	C 	0.4819	0.4831	0.4991	-0.196
Mof_C 	C 	0.5333	0.4281	0.4897	0.154
Mof_C 	C 	0.6159	0.4106	0.5211	-0.123
Mof_C 	C 	0.7309	0.3538	0.7245	0.349
Mof_C 	C 	0.639	0.3355	0.7568	0.001
Mof_C 	C 	0.6084	0.371	0.8021	-0.134
Mof_C 	C 	0.5277	0.352	0.8317	0.152
Mof_C 	C 	0.4735	0.2983	0.8191	-0.199
Mof_C 	C 	0.5059	0.265	0.7728	0.15
Mof_C 	C 	0.5857	0.2827	0.7418	-0.136
Mof_C 	C 	0.2368	0.4662	0.2955	0.179
Mof_C 	C 	0.2694	0.4206	0.3311	-0.305
Mof_C 	C 	0.2702	0.3584	0.3133	0.297
Mof_C 	C 	0.2407	0.3471	0.2599	-0.31
Mof_C 	C 	0.2084	0.3955	0.2263	0.179
Mof_C 	C 	0.3001	0.3056	0.3529	-0.452
Mof_C 	C 	0.246	0.3086	0.4093	0.256
Mof_C 	C 	0.1394	0.2958	0.4033	-0.467
Mof_C 	C 	0.5159	0.9787	0.2801	0.17
Mof_C 	C 	0.5705	0.972	0.328	-0.313
Mof_C 	C 	0.5735	0.0218	0.3658	0.312
Mof_C 	C 	0.5184	0.0751	0.3517	-0.324
Mof_C 	C 	0.467	0.0768	0.3039	0.194
Mof_C 	C 	0.6328	0.0165	0.4181	-0.509
Mof_C 	C 	0.6573	0.0804	0.4447	0.347
Mof_C 	C 	0.7216	0.0742	0.4925	-0.558
Mof_C 	C 	0.9766	0.3637	0.5173	0.16
Mof_C 	C 	0.0289	0.3578	0.4685	-0.29
Mof_C 	C 	0.0824	0.3035	0.4571	0.289
Mof_C 	C 	0.0817	0.2579	0.498	-0.284
Mof_C 	C 	0.0282	0.2661	0.5461	0.154
Mof_C 	C 	0.7803	0.2455	0.5264	0.199
Mof_C 	C 	0.7548	0.1923	0.4968	-0.331
Mof_C 	C 	0.7433	0.1349	0.5234	0.356
Mof_C 	C 	0.7515	0.1348	0.5796	-0.346
Mof_C 	C 	0.7806	0.1888	0.6062	0.199
Mof_N 	N 	0.9603	0.9202	0.0531	-0.013
Mof_N 	N 	0.0035	0.1133	0.9438	-0.017
Mof_N 	N 	0.9957	0.1093	0.3795	-0.017
Mof_N 	N 	0.9529	0.2942	0.2596	-0.016
Mof_N 	N 	0.7073	0.0445	0.74324	-0.272
Mof_N 	N 	0.9628	0.47	0.7676	-0.28
Mof_N 	N 	0.4734	0.1813	0.0566	-0.25
Mof_N 	N 	0.2971	0.2558	0.08086	-0.25
Mof_N 	N 	0.0397	0.0798	0.5531	-0.015
Mof_N 	N 	0.9965	0.8867	0.4438	-0.016
Mof_N 	N 	0.0043	0.8907	0.8795	-0.014
Mof_N 	N 	0.0471	0.7058	0.7596	-0.015
Mof_N 	N 	0.2927	0.9555	0.24324	-0.272
Mof_N 	N 	0.0372	0.53	0.2676	-0.286
Mof_N 	N 	0.5266	0.8187	0.5566	-0.269
Mof_N 	N 	0.7029	0.7442	0.58086	-0.283
Mof_N 	N 	0.5397	0.4202	0.0531	-0.013
Mof_N 	N 	0.4965	0.6133	0.9438	-0.018
Mof_N 	N 	0.5043	0.6093	0.3795	-0.016
Mof_N 	N 	0.5471	0.7942	0.2596	-0.016
Mof_N 	N 	0.7927	0.5445	0.74324	-0.272
Mof_N 	N 	0.5372	0.97	0.7676	-0.28
Mof_N 	N 	0.0266	0.6813	0.0566	-0.251
Mof_N 	N 	0.2029	0.7558	0.08086	-0.25
Mof_N 	N 	0.4603	0.5798	0.5531	-0.016
Mof_N 	N 	0.5035	0.3867	0.4438	-0.016
Mof_N 	N 	0.4957	0.3907	0.8795	-0.017
Mof_N 	N 	0.4529	0.2058	0.7596	-0.016
Mof_N 	N 	0.2073	0.4555	0.24324	-0.273
Mof_N 	N 	0.4628	0.03	0.2676	-0.285
Mof_N 	N 	0.9734	0.3187	0.5566	-0.269
Mof_N 	N 	0.7971	0.2442	0.58086	-0.283
Mof_O 	O 	0.4462	0.10772	0.16366	-0.678
Mof_O 	O 	0.2605	0.02922	0.13446	-0.444
Mof_O 	O 	0.2823	0.11508	0.08118	-0.433
Mof_O 	O 	0.8994	0.9034	0.0186	-0.13
Mof_O 	O 	0.9803	0.891	0.0949	-0.134
Mof_O 	O 	0.9426	0.0929	0.9117	-0.129
Mof_O 	O 	0.0414	0.165	0.9397	-0.122
Mof_O 	O 	0.2734	0.09616	0.23925	-0.425
Mof_O 	O 	0.2574	0.18278	0.18666	-0.436
Mof_O 	O 	0.9334	0.1306	0.4101	-0.124
Mof_O 	O 	0.0332	0.0587	0.3865	-0.115
Mof_O 	O 	0.8891	0.3132	0.2905	-0.131
Mof_O 	O 	0.9791	0.3225	0.2184	-0.137
Mof_O 	O 	0.5538	0.89228	0.66366	-0.678
Mof_O 	O 	0.7395	0.97078	0.63446	-0.447
Mof_O 	O 	0.7177	0.88492	0.58118	-0.433
Mof_O 	O 	0.1006	0.0966	0.5186	-0.118
Mof_O 	O 	0.0197	0.109	0.5949	-0.13
Mof_O 	O 	0.0574	0.9071	0.4117	-0.129
Mof_O 	O 	0.9586	0.835	0.4397	-0.129
Mof_O 	O 	0.7266	0.90384	0.73925	-0.425
Mof_O 	O 	0.7426	0.81722	0.68666	-0.436
Mof_O 	O 	0.0666	0.8694	0.9101	-0.117
Mof_O 	O 	0.9668	0.9413	0.8865	-0.114
Mof_O 	O 	0.1109	0.6868	0.7905	-0.129
Mof_O 	O 	0.0209	0.6775	0.7184	-0.134
Mof_O 	O 	0.0538	0.60772	0.16366	-0.678
Mof_O 	O 	0.2395	0.52922	0.13446	-0.444
Mof_O 	O 	0.2177	0.61508	0.08118	-0.434
Mof_O 	O 	0.6006	0.4034	0.0186	-0.13
Mof_O 	O 	0.5197	0.391	0.0949	-0.133
Mof_O 	O 	0.5574	0.5929	0.9117	-0.128
Mof_O 	O 	0.4586	0.665	0.9397	-0.122
Mof_O 	O 	0.2266	0.59616	0.23925	-0.425
Mof_O 	O 	0.2426	0.68278	0.18666	-0.436
Mof_O 	O 	0.5666	0.6306	0.4101	-0.123
Mof_O 	O 	0.4668	0.5587	0.3865	-0.116
Mof_O 	O 	0.6109	0.8132	0.2905	-0.131
Mof_O 	O 	0.5209	0.8225	0.2184	-0.137
Mof_O 	O 	0.9462	0.39228	0.66366	-0.678
Mof_O 	O 	0.7605	0.47078	0.63446	-0.446
Mof_O 	O 	0.7823	0.38492	0.58118	-0.432
Mof_O 	O 	0.3994	0.5966	0.5186	-0.118
Mof_O 	O 	0.4803	0.609	0.5949	-0.13
Mof_O 	O 	0.4426	0.4071	0.4117	-0.13
Mof_O 	O 	0.5414	0.335	0.4397	-0.129
Mof_O 	O 	0.7734	0.40384	0.73925	-0.425
Mof_O 	O 	0.7574	0.31722	0.68666	-0.435
Mof_O 	O 	0.4334	0.3694	0.9101	-0.117
Mof_O 	O 	0.5332	0.4413	0.8865	-0.112
Mof_O 	O 	0.3891	0.1868	0.7905	-0.129
Mof_O 	O 	0.4791	0.1775	0.7184	-0.135
_end
