data_functionalizedCrystal
_audit_creation_method	'EQeq! by Chris Wilmer'
_symmetry_space_group_name_H-M	'P1'
_symmetry_Int_Tables_number	1
_symmetry_cell_setting	triclinic
loop_
_symmetry_equiv_pos_as_xyz
  x,y,z
_cell_length_a	15.061
_cell_length_b	17.069
_cell_length_c	28.353
_cell_angle_alpha	90
_cell_angle_beta	90
_cell_angle_gamma	100.653
loop_
_atom_site_label
_atom_site_type_symbol
_atom_site_fract_x
_atom_site_fract_y
_atom_site_fract_z
_atom_site_charge
Mof_Co	Co	0.52174	0.86795	0.02995	1.187
Mof_Co	Co	0.48635	0.24076	0.43085	1.194
Mof_Co	Co	0.51467	0.65341	0.03295	1.191
Mof_Co	Co	0.47826	0.13205	0.52995	1.194
Mof_Co	Co	0.51365	0.75924	0.93085	1.198
Mof_Co	Co	0.48533	0.34659	0.53295	1.198
Mof_H 	H 	0.0507	0.7192	0.3734	0.055
Mof_H 	H 	0.1167	0.7446	0.3308	0.059
Mof_H 	H 	0.9372	0.7625	0.376	0.058
Mof_H 	H 	0.8631	0.7298	0.3383	0.062
Mof_H 	H 	0.9241	0.5871	0.3133	0.033
Mof_H 	H 	0.971	0.5188	0.3329	0.035
Mof_H 	H 	0.1854	0.6335	0.3579	0.03
Mof_H 	H 	0.1082	0.6007	0.394	0.029
Mof_H 	H 	0.0742	0.5559	0.2707	0.027
Mof_H 	H 	0.0378	0.6333	0.2567	0.029
Mof_H 	H 	0.88	0.9093	0.2731	0.03
Mof_H 	H 	0.9324	0.8408	0.2595	0.033
Mof_H 	H 	0.79	0.8379	0.3625	0.034
Mof_H 	H 	0.8704	0.8745	0.396	0.034
Mof_H 	H 	0.0453	0.8883	0.3135	0.03
Mof_H 	H 	0.9968	0.957	0.3309	0.032
Mof_H 	H 	0.8598	0.6046	0.4572	0.167
Mof_H 	H 	0.7308	0.5281	0.4882	-0.02
Mof_H 	H 	0.7009	0.3953	0.3738	-0.034
Mof_H 	H 	0.8322	0.4692	0.3431	0.16
Mof_H 	H 	0.2306	0.5696	0.4249	0.162
Mof_H 	H 	0.3161	0.494	0.4682	-0.039
Mof_H 	H 	0.2668	0.3222	0.3742	-0.038
Mof_H 	H 	0.1717	0.3903	0.3332	0.172
Mof_H 	H 	0.1007	0.5712	0.1951	0.189
Mof_H 	H 	0.1695	0.5648	0.1238	-0.057
Mof_H 	H 	0.3904	0.7041	0.1732	-0.062
Mof_H 	H 	0.3197	0.7115	0.2415	0.204
Mof_H 	H 	0.8001	0.911	0.2081	0.205
Mof_H 	H 	0.7203	0.8952	0.1391	-0.091
Mof_H 	H 	0.6562	0.6717	0.1597	-0.086
Mof_H 	H 	0.6982	0.6881	0.2409	0.216
Mof_H 	H 	0.8079	0.0875	0.3356	0.147
Mof_H 	H 	0.7029	0.1515	0.3697	-0.016
Mof_H 	H 	0.6482	0.9804	0.4664	-0.023
Mof_H 	H 	0.7346	0.9049	0.4256	0.145
Mof_H 	H 	0.0992	0.8996	0.4605	0.174
Mof_H 	H 	0.2341	0.9758	0.49	-0.033
Mof_H 	H 	0.2803	0.0771	0.3651	-0.043
Mof_H 	H 	0.1502	0.0012	0.3363	0.17
Mof_H 	H 	0.5187	0.1604	0.0467	0.09
Mof_H 	H 	0.5322	0.0467	0.01	-0.008
Mof_H 	H 	0.5336	0.9361	0.1288	0.005
Mof_H 	H 	0.5211	0.0487	0.1684	0.095
Mof_H 	H 	0.5166	0.3587	0.0485	0.087
Mof_H 	H 	0.517	0.4784	0.0124	-0.005
Mof_H 	H 	0.5159	0.5843	0.1321	0.008
Mof_H 	H 	0.5168	0.4675	0.1731	0.091
Mof_H 	H 	0.5059	0.1362	0.2657	0.088
Mof_H 	H 	0.4934	0.1328	0.3463	0.01
Mof_H 	H 	0.489	0.3598	0.3492	0.006
Mof_H 	H 	0.4933	0.3665	0.2695	0.089
Mof_H 	H 	0.9493	0.2808	0.8734	0.057
Mof_H 	H 	0.8833	0.2554	0.8308	0.06
Mof_H 	H 	0.0628	0.2375	0.876	0.059
Mof_H 	H 	0.1369	0.2702	0.8383	0.063
Mof_H 	H 	0.0759	0.4129	0.8133	0.034
Mof_H 	H 	0.029	0.4812	0.8329	0.037
Mof_H 	H 	0.8146	0.3665	0.8579	0.031
Mof_H 	H 	0.8918	0.3993	0.894	0.031
Mof_H 	H 	0.9258	0.4441	0.7707	0.028
Mof_H 	H 	0.9622	0.3667	0.7567	0.03
Mof_H 	H 	0.12	0.0907	0.7731	0.031
Mof_H 	H 	0.0676	0.1592	0.7595	0.034
Mof_H 	H 	0.21	0.1621	0.8625	0.036
Mof_H 	H 	0.1296	0.1255	0.896	0.037
Mof_H 	H 	0.9547	0.1117	0.8135	0.031
Mof_H 	H 	0.0032	0.043	0.8309	0.034
Mof_H 	H 	0.1402	0.3954	0.9572	0.169
Mof_H 	H 	0.2692	0.4719	0.9882	-0.012
Mof_H 	H 	0.2991	0.6047	0.8738	-0.032
Mof_H 	H 	0.1678	0.5308	0.8431	0.159
Mof_H 	H 	0.7694	0.4304	0.9249	0.163
Mof_H 	H 	0.6839	0.506	0.9682	-0.033
Mof_H 	H 	0.7332	0.6778	0.8742	-0.036
Mof_H 	H 	0.8283	0.6097	0.8332	0.172
Mof_H 	H 	0.8993	0.4288	0.6951	0.189
Mof_H 	H 	0.8305	0.4352	0.6238	-0.054
Mof_H 	H 	0.6096	0.2959	0.6732	-0.061
Mof_H 	H 	0.6803	0.2885	0.7415	0.204
Mof_H 	H 	0.1999	0.089	0.7081	0.205
Mof_H 	H 	0.2797	0.1048	0.6391	-0.088
Mof_H 	H 	0.3438	0.3283	0.6597	-0.084
Mof_H 	H 	0.3018	0.3119	0.7409	0.215
Mof_H 	H 	0.1921	0.9125	0.8356	0.147
Mof_H 	H 	0.2971	0.8485	0.8697	-0.014
Mof_H 	H 	0.3518	0.0196	0.9664	-0.017
Mof_H 	H 	0.2654	0.0951	0.9256	0.147
Mof_H 	H 	0.9008	0.1004	0.9605	0.176
Mof_H 	H 	0.7659	0.0242	0.99	-0.027
Mof_H 	H 	0.7197	0.9229	0.8651	-0.042
Mof_H 	H 	0.8498	0.9988	0.8363	0.17
Mof_H 	H 	0.4813	0.8396	0.5467	0.094
Mof_H 	H 	0.4678	0.9533	0.51	0.001
Mof_H 	H 	0.4664	0.0639	0.6288	0.005
Mof_H 	H 	0.4789	0.9513	0.6684	0.096
Mof_H 	H 	0.4834	0.6413	0.5485	0.091
Mof_H 	H 	0.483	0.5216	0.5124	0.004
Mof_H 	H 	0.4841	0.4157	0.6321	0.008
Mof_H 	H 	0.4832	0.5325	0.6731	0.091
Mof_H 	H 	0.4941	0.8638	0.7657	0.089
Mof_H 	H 	0.5066	0.8672	0.8463	0.01
Mof_H 	H 	0.511	0.6402	0.8492	0.006
Mof_H 	H 	0.5067	0.6335	0.7695	0.09
Mof_C 	C 	0.0589	0.7129	0.3398	-0.015
Mof_C 	C 	0.921	0.7647	0.343	-0.019
Mof_C 	C 	0.0565	0.6247	0.3279	0
Mof_C 	C 	0.9136	0.849	0.33	-0.001
Mof_C 	C 	0.9671	0.5746	0.3362	0.028
Mof_C 	C 	0.1274	0.5983	0.3615	0.053
Mof_C 	C 	0.0793	0.6124	0.2772	0.047
Mof_C 	C 	0.8867	0.8551	0.2803	0.041
Mof_C 	C 	0.8475	0.8744	0.364	0.04
Mof_C 	C 	0.0026	0.902	0.3362	0.041
Mof_C 	C 	0.859	0.5421	0.3976	0.358
Mof_C 	C 	0.8286	0.5614	0.4404	-0.348
Mof_C 	C 	0.7504	0.5155	0.4585	0.236
Mof_C 	C 	0.7008	0.4525	0.4347	-0.275
Mof_C 	C 	0.7329	0.437	0.3915	0.24
Mof_C 	C 	0.812	0.4815	0.3727	-0.36
Mof_C 	C 	0.6195	0.4028	0.4536	0.453
Mof_C 	C 	0.1915	0.4846	0.3762	0.365
Mof_C 	C 	0.2357	0.5186	0.4153	-0.361
Mof_C 	C 	0.2888	0.4736	0.4403	0.251
Mof_C 	C 	0.3017	0.401	0.4251	-0.3
Mof_C 	C 	0.2583	0.3716	0.3852	0.254
Mof_C 	C 	0.2017	0.4123	0.3602	-0.363
Mof_C 	C 	0.3624	0.3562	0.4497	0.486
Mof_C 	C 	0.2046	0.6411	0.2252	0.434
Mof_C 	C 	0.1597	0.5979	0.1905	-0.442
Mof_C 	C 	0.2016	0.5934	0.1483	0.307
Mof_C 	C 	0.2888	0.6292	0.1407	-0.306
Mof_C 	C 	0.3319	0.676	0.1773	0.326
Mof_C 	C 	0.2897	0.6802	0.2175	-0.455
Mof_C 	C 	0.3361	0.6262	0.0953	0.407
Mof_C 	C 	0.7628	0.797	0.23	0.467
Mof_C 	C 	0.766	0.8615	0.2001	-0.485
Mof_C 	C 	0.7189	0.8514	0.1588	0.4
Mof_C 	C 	0.6711	0.7818	0.1455	-0.44
Mof_C 	C 	0.6763	0.7226	0.1718	0.391
Mof_C 	C 	0.7115	0.7295	0.2193	-0.488
Mof_C 	C 	0.62	0.7738	0.0995	0.557
Mof_C 	C 	0.7811	0.9888	0.3776	0.31
Mof_C 	C 	0.7732	0.0646	0.3609	-0.294
Mof_C 	C 	0.7137	0.1041	0.3826	0.189
Mof_C 	C 	0.6685	0.0745	0.424	-0.235
Mof_C 	C 	0.6784	0.0011	0.4392	0.205
Mof_C 	C 	0.732	0.9564	0.4156	-0.314
Mof_C 	C 	0.6041	0.1199	0.4467	0.449
Mof_C 	C 	0.1152	0.9447	0.3968	0.372
Mof_C 	C 	0.1364	0.9357	0.4412	-0.369
Mof_C 	C 	0.2168	0.9821	0.459	0.241
Mof_C 	C 	0.2686	0.036	0.4305	-0.278
Mof_C 	C 	0.2438	0.0415	0.385	0.266
Mof_C 	C 	0.1668	0.9965	0.3676	-0.387
Mof_C 	C 	0.3513	0.0893	0.4496	0.431
Mof_C 	C 	0.5182	0.1934	0.1386	0.089
Mof_C 	C 	0.5154	0.3248	0.1402	0.101
Mof_C 	C 	0.5092	0.2558	0.2068	0.099
Mof_C 	C 	0.5226	0.1195	0.1128	0.084
Mof_C 	C 	0.5229	0.1154	0.0644	-0.158
Mof_C 	C 	0.529	0.0472	0.0427	0.105
Mof_C 	C 	0.5301	0.982	0.1118	0.11
Mof_C 	C 	0.5241	0.05	0.1356	-0.156
Mof_C 	C 	0.5154	0.4	0.1149	0.074
Mof_C 	C 	0.5162	0.4042	0.0665	-0.148
Mof_C 	C 	0.5164	0.4762	0.0452	0.104
Mof_C 	C 	0.5159	0.5377	0.1151	0.098
Mof_C 	C 	0.5162	0.4678	0.1403	-0.143
Mof_C 	C 	0.5034	0.2527	0.2582	0.07
Mof_C 	C 	0.5021	0.1825	0.2822	-0.136
Mof_C 	C 	0.4952	0.1809	0.3306	0.088
Mof_C 	C 	0.4916	0.3137	0.3322	0.097
Mof_C 	C 	0.4957	0.3184	0.2845	-0.143
Mof_C 	C 	0.9411	0.2871	0.8398	-0.018
Mof_C 	C 	0.079	0.2353	0.843	-0.022
Mof_C 	C 	0.9435	0.3753	0.8279	0.003
Mof_C 	C 	0.0864	0.151	0.83	0.002
Mof_C 	C 	0.0329	0.4254	0.8362	0.025
Mof_C 	C 	0.8726	0.4017	0.8615	0.05
Mof_C 	C 	0.9207	0.3876	0.7772	0.044
Mof_C 	C 	0.1133	0.1449	0.7803	0.038
Mof_C 	C 	0.1525	0.1256	0.864	0.036
Mof_C 	C 	0.9974	0.098	0.8362	0.038
Mof_C 	C 	0.141	0.4579	0.8976	0.356
Mof_C 	C 	0.1714	0.4386	0.9404	-0.343
Mof_C 	C 	0.2496	0.4845	0.9585	0.233
Mof_C 	C 	0.2992	0.5475	0.9347	-0.269
Mof_C 	C 	0.2671	0.563	0.8915	0.236
Mof_C 	C 	0.188	0.5185	0.8727	-0.356
Mof_C 	C 	0.3805	0.5972	0.9536	0.451
Mof_C 	C 	0.8085	0.5154	0.8762	0.363
Mof_C 	C 	0.7643	0.4814	0.9153	-0.356
Mof_C 	C 	0.7112	0.5264	0.9403	0.247
Mof_C 	C 	0.6983	0.599	0.9251	-0.294
Mof_C 	C 	0.7417	0.6284	0.8852	0.251
Mof_C 	C 	0.7983	0.5877	0.8602	-0.359
Mof_C 	C 	0.6376	0.6438	0.9497	0.483
Mof_C 	C 	0.7954	0.3589	0.7252	0.433
Mof_C 	C 	0.8403	0.4021	0.6905	-0.438
Mof_C 	C 	0.7984	0.4066	0.6483	0.305
Mof_C 	C 	0.7112	0.3708	0.6407	-0.302
Mof_C 	C 	0.6681	0.324	0.6773	0.324
Mof_C 	C 	0.7103	0.3198	0.7175	-0.452
Mof_C 	C 	0.6639	0.3738	0.5953	0.406
Mof_C 	C 	0.2372	0.203	0.73	0.466
Mof_C 	C 	0.234	0.1385	0.7001	-0.482
Mof_C 	C 	0.2811	0.1486	0.6588	0.398
Mof_C 	C 	0.3289	0.2182	0.6455	-0.435
Mof_C 	C 	0.3237	0.2774	0.6718	0.389
Mof_C 	C 	0.2885	0.2705	0.7193	-0.485
Mof_C 	C 	0.38	0.2262	0.5995	0.556
Mof_C 	C 	0.2189	0.0112	0.8776	0.309
Mof_C 	C 	0.2268	0.9354	0.8609	-0.291
Mof_C 	C 	0.2863	0.8959	0.8826	0.187
Mof_C 	C 	0.3315	0.9255	0.924	-0.23
Mof_C 	C 	0.3216	0.9989	0.9392	0.203
Mof_C 	C 	0.268	0.0436	0.9156	-0.311
Mof_C 	C 	0.3959	0.8801	0.9467	0.447
Mof_C 	C 	0.8848	0.0553	0.8968	0.371
Mof_C 	C 	0.8636	0.0643	0.9412	-0.366
Mof_C 	C 	0.7832	0.0179	0.959	0.238
Mof_C 	C 	0.7314	0.964	0.9305	-0.273
Mof_C 	C 	0.7562	0.9585	0.885	0.264
Mof_C 	C 	0.8332	0.0035	0.8676	-0.385
Mof_C 	C 	0.6487	0.9107	0.9496	0.429
Mof_C 	C 	0.4818	0.8066	0.6386	0.09
Mof_C 	C 	0.4846	0.6752	0.6402	0.102
Mof_C 	C 	0.4908	0.7442	0.7068	0.1
Mof_C 	C 	0.4774	0.8805	0.6128	0.085
Mof_C 	C 	0.4771	0.8846	0.5644	-0.156
Mof_C 	C 	0.471	0.9528	0.5427	0.107
Mof_C 	C 	0.4699	0.018	0.6118	0.112
Mof_C 	C 	0.4759	0.95	0.6356	-0.155
Mof_C 	C 	0.4846	0.6	0.6149	0.076
Mof_C 	C 	0.4838	0.5958	0.5665	-0.146
Mof_C 	C 	0.4836	0.5238	0.5452	0.106
Mof_C 	C 	0.4841	0.4623	0.6151	0.099
Mof_C 	C 	0.4838	0.5322	0.6403	-0.143
Mof_C 	C 	0.4966	0.7473	0.7582	0.07
Mof_C 	C 	0.4979	0.8175	0.7822	-0.136
Mof_C 	C 	0.5048	0.8191	0.8306	0.088
Mof_C 	C 	0.5084	0.6863	0.8322	0.098
Mof_C 	C 	0.5043	0.6816	0.7845	-0.143
Mof_N 	N 	0.5195	0.2609	0.1139	-0.139
Mof_N 	N 	0.5122	0.3264	0.1858	-0.142
Mof_N 	N 	0.5144	0.1885	0.1855	-0.139
Mof_N 	N 	0.5309	0.9793	0.0661	-0.225
Mof_N 	N 	0.5157	0.5422	0.0688	-0.218
Mof_N 	N 	0.4911	0.2464	0.3558	-0.213
Mof_N 	N 	0.4805	0.7391	0.6139	-0.138
Mof_N 	N 	0.4878	0.6736	0.6858	-0.142
Mof_N 	N 	0.4856	0.8115	0.6855	-0.139
Mof_N 	N 	0.4691	0.0207	0.5661	-0.222
Mof_N 	N 	0.4843	0.4578	0.5688	-0.215
Mof_N 	N 	0.5089	0.7536	0.8558	-0.213
Mof_O 	O 	0.988	0.7381	0.3145	-0.162
Mof_O 	O 	0.4043	0.8278	0.076	-0.241
Mof_O 	O 	0.9378	0.5896	0.383	-0.264
Mof_O 	O 	0.1348	0.5209	0.3499	-0.27
Mof_O 	O 	0.169	0.6525	0.2688	-0.282
Mof_O 	O 	0.8017	0.801	0.2734	-0.291
Mof_O 	O 	0.8366	0.9511	0.3512	-0.256
Mof_O 	O 	0.0345	0.8936	0.3821	-0.264
Mof_O 	O 	0.5738	0.3535	0.4265	-0.43
Mof_O 	O 	0.5985	0.4111	0.496	-0.401
Mof_O 	O 	0.3951	0.382	0.4882	-0.463
Mof_O 	O 	0.3764	0.2944	0.4309	-0.466
Mof_O 	O 	0.2955	0.5685	0.0668	-0.247
Mof_O 	O 	0.4078	0.6685	0.0865	-0.374
Mof_O 	O 	0.6019	0.7071	0.0827	-0.487
Mof_O 	O 	0.5996	0.8353	0.0833	-0.475
Mof_O 	O 	0.5661	0.0912	0.4829	-0.441
Mof_O 	O 	0.596	0.1836	0.4271	-0.43
Mof_O 	O 	0.4005	0.1347	0.4215	-0.444
Mof_O 	O 	0.3656	0.0842	0.4937	-0.439
Mof_O 	O 	0.4923	0.7557	0.0027	-0.584
Mof_O 	O 	0.012	0.2619	0.8145	-0.16
Mof_O 	O 	0.5957	0.1722	0.576	-0.236
Mof_O 	O 	0.0622	0.4104	0.883	-0.262
Mof_O 	O 	0.8652	0.4791	0.8499	-0.268
Mof_O 	O 	0.831	0.3475	0.7688	-0.28
Mof_O 	O 	0.1983	0.199	0.7734	-0.29
Mof_O 	O 	0.1634	0.0489	0.8512	-0.254
Mof_O 	O 	0.9655	0.1064	0.8821	-0.262
Mof_O 	O 	0.4262	0.6465	0.9265	-0.426
Mof_O 	O 	0.4015	0.5889	0.996	-0.386
Mof_O 	O 	0.6049	0.618	0.9882	-0.45
Mof_O 	O 	0.6236	0.7056	0.9309	-0.462
Mof_O 	O 	0.7045	0.4315	0.5668	-0.237
Mof_O 	O 	0.5922	0.3315	0.5865	-0.371
Mof_O 	O 	0.3981	0.2929	0.5827	-0.482
Mof_O 	O 	0.4004	0.1647	0.5833	-0.471
Mof_O 	O 	0.4339	0.9088	0.9829	-0.429
Mof_O 	O 	0.404	0.8164	0.9271	-0.426
Mof_O 	O 	0.5995	0.8653	0.9215	-0.441
Mof_O 	O 	0.6344	0.9158	0.9937	-0.426
Mof_O 	O 	0.5077	0.2443	0.5027	-0.569
_end
