data_functionalizedCrystal
_audit_creation_method	'EQeq! by Chris Wilmer'
_symmetry_space_group_name_H-M	'P1'
_symmetry_Int_Tables_number	1
_symmetry_cell_setting	triclinic
loop_
_symmetry_equiv_pos_as_xyz
  x,y,z
_cell_length_a	15.6475
_cell_length_b	15.6475
_cell_length_c	15.6475
_cell_angle_alpha	90
_cell_angle_beta	90
_cell_angle_gamma	90
loop_
_atom_site_label
_atom_site_type_symbol
_atom_site_fract_x
_atom_site_fract_y
_atom_site_fract_z
_atom_site_charge
Mof_N 	N 	0.41159	0.82247	0.1952	-0.249
Mof_C 	C 	0.3899	0.9026	0.2159	0.083
Mof_N 	N 	0.08841	0.67753	0.1952	-0.256
Mof_C 	C 	0.1101	0.5974	0.2159	0.045
Mof_N 	N 	0.08841	0.82247	0.3048	-0.255
Mof_C 	C 	0.1101	0.9026	0.2841	0.058
Mof_N 	N 	0.41159	0.67753	0.3048	-0.247
Mof_C 	C 	0.3899	0.5974	0.2841	0.069
Mof_N 	N 	0.1952	0.41159	0.82247	-0.249
Mof_C 	C 	0.2159	0.3899	0.9026	0.084
Mof_N 	N 	0.1952	0.08841	0.67753	-0.255
Mof_C 	C 	0.2159	0.1101	0.5974	0.046
Mof_N 	N 	0.3048	0.08841	0.82247	-0.254
Mof_C 	C 	0.2841	0.1101	0.9026	0.059
Mof_N 	N 	0.3048	0.41159	0.67753	-0.246
Mof_C 	C 	0.2841	0.3899	0.5974	0.07
Mof_N 	N 	0.82247	0.1952	0.41159	-0.248
Mof_C 	C 	0.9026	0.2159	0.3899	0.084
Mof_N 	N 	0.67753	0.1952	0.08841	-0.255
Mof_C 	C 	0.5974	0.2159	0.1101	0.046
Mof_N 	N 	0.82247	0.3048	0.08841	-0.254
Mof_C 	C 	0.9026	0.2841	0.1101	0.059
Mof_N 	N 	0.67753	0.3048	0.41159	-0.246
Mof_C 	C 	0.5974	0.2841	0.3899	0.07
Mof_N 	N 	0.32247	0.91159	0.8048	-0.23
Mof_C 	C 	0.4026	0.8899	0.7841	0.105
Mof_N 	N 	0.17753	0.58841	0.8048	-0.246
Mof_C 	C 	0.0974	0.6101	0.7841	0.066
Mof_N 	N 	0.32247	0.58841	0.6952	-0.248
Mof_C 	C 	0.4026	0.6101	0.7159	0.079
Mof_N 	N 	0.17753	0.91159	0.6952	-0.231
Mof_C 	C 	0.0974	0.8899	0.7159	0.093
Mof_N 	N 	0.91159	0.6952	0.17753	-0.231
Mof_C 	C 	0.8899	0.7159	0.0974	0.093
Mof_N 	N 	0.58841	0.6952	0.32247	-0.248
Mof_C 	C 	0.6101	0.7159	0.4026	0.079
Mof_N 	N 	0.58841	0.8048	0.17753	-0.246
Mof_C 	C 	0.6101	0.7841	0.0974	0.066
Mof_N 	N 	0.91159	0.8048	0.32247	-0.23
Mof_C 	C 	0.8899	0.7841	0.4026	0.105
Mof_N 	N 	0.6952	0.32247	0.58841	-0.248
Mof_C 	C 	0.7159	0.4026	0.6101	0.079
Mof_N 	N 	0.6952	0.17753	0.91159	-0.231
Mof_C 	C 	0.7159	0.0974	0.8899	0.093
Mof_N 	N 	0.8048	0.32247	0.91159	-0.23
Mof_C 	C 	0.7841	0.4026	0.8899	0.105
Mof_N 	N 	0.8048	0.17753	0.58841	-0.246
Mof_C 	C 	0.7841	0.0974	0.6101	0.066
Mof_N 	N 	0.58841	0.17753	0.8048	-0.246
Mof_C 	C 	0.6101	0.0974	0.7841	0.066
Mof_N 	N 	0.91159	0.32247	0.8048	-0.23
Mof_C 	C 	0.8899	0.4026	0.7841	0.105
Mof_N 	N 	0.91159	0.17753	0.6952	-0.231
Mof_C 	C 	0.8899	0.0974	0.7159	0.093
Mof_N 	N 	0.58841	0.32247	0.6952	-0.248
Mof_C 	C 	0.6101	0.4026	0.7159	0.079
Mof_N 	N 	0.8048	0.58841	0.17753	-0.246
Mof_C 	C 	0.7841	0.6101	0.0974	0.066
Mof_N 	N 	0.8048	0.91159	0.32247	-0.23
Mof_C 	C 	0.7841	0.8899	0.4026	0.105
Mof_N 	N 	0.6952	0.91159	0.17753	-0.231
Mof_C 	C 	0.7159	0.8899	0.0974	0.093
Mof_N 	N 	0.6952	0.58841	0.32247	-0.248
Mof_C 	C 	0.7159	0.6101	0.4026	0.079
Mof_N 	N 	0.17753	0.8048	0.58841	-0.246
Mof_C 	C 	0.0974	0.7841	0.6101	0.066
Mof_N 	N 	0.32247	0.8048	0.91159	-0.23
Mof_C 	C 	0.4026	0.7841	0.8899	0.105
Mof_N 	N 	0.17753	0.6952	0.91159	-0.231
Mof_C 	C 	0.0974	0.7159	0.8899	0.093
Mof_N 	N 	0.32247	0.6952	0.58841	-0.248
Mof_C 	C 	0.4026	0.7159	0.6101	0.079
Mof_N 	N 	0.67753	0.08841	0.1952	-0.255
Mof_C 	C 	0.5974	0.1101	0.2159	0.046
Mof_N 	N 	0.82247	0.41159	0.1952	-0.248
Mof_C 	C 	0.9026	0.3899	0.2159	0.084
Mof_N 	N 	0.67753	0.41159	0.3048	-0.246
Mof_C 	C 	0.5974	0.3899	0.2841	0.07
Mof_N 	N 	0.82247	0.08841	0.3048	-0.254
Mof_C 	C 	0.9026	0.1101	0.2841	0.059
Mof_N 	N 	0.08841	0.3048	0.82247	-0.254
Mof_C 	C 	0.1101	0.2841	0.9026	0.059
Mof_N 	N 	0.41159	0.3048	0.67753	-0.246
Mof_C 	C 	0.3899	0.2841	0.5974	0.07
Mof_N 	N 	0.41159	0.1952	0.82247	-0.248
Mof_C 	C 	0.3899	0.2159	0.9026	0.084
Mof_N 	N 	0.08841	0.1952	0.67753	-0.255
Mof_C 	C 	0.1101	0.2159	0.5974	0.046
Mof_N 	N 	0.3048	0.67753	0.41159	-0.246
Mof_C 	C 	0.2841	0.5974	0.3899	0.07
Mof_N 	N 	0.3048	0.82247	0.08841	-0.254
Mof_C 	C 	0.2841	0.9026	0.1101	0.059
Mof_N 	N 	0.1952	0.67753	0.08841	-0.255
Mof_C 	C 	0.2159	0.5974	0.1101	0.046
Mof_N 	N 	0.1952	0.82247	0.41159	-0.248
Mof_C 	C 	0.2159	0.9026	0.3899	0.084
Mof_Cu	Cu	0.5	0.75	0.25	0.895
Mof_Cu	Cu	-5.65159e-33	0.75	0.25	0.86
Mof_Cu	Cu	0.25	0.5	0.75	0.895
Mof_Cu	Cu	0.25	0	0.75	0.86
Mof_Cu	Cu	0.75	0.25	0.5	0.895
Mof_Cu	Cu	0.75	0.25	-0	0.86
Mof_Cu	Cu	0.5	0.25	0.75	0.895
Mof_Cu	Cu	-1.03658e-32	0.25	0.75	0.86
Mof_Cu	Cu	0.75	0.5	0.25	0.895
Mof_Cu	Cu	0.75	-3.29447e-33	0.25	0.86
Mof_Cu	Cu	0.25	0.75	0.5	0.895
Mof_Cu	Cu	0.25	0.75	-0	0.86
Mof_C 	C 	0.3721	0.7829	0.1279	0.249
Mof_C 	C 	0.3269	0.9471	0.1731	-0.038
Mof_O 	O 	0.3962	0.7123	0.1038	-0.32
Mof_C 	C 	0.1279	0.7171	0.1279	0.24
Mof_C 	C 	0.1731	0.5529	0.1731	-0.068
Mof_O 	O 	0.1038	0.7877	0.1038	-0.331
Mof_C 	C 	0.1279	0.7829	0.3721	0.249
Mof_C 	C 	0.1731	0.9471	0.3269	-0.038
Mof_O 	O 	0.1038	0.7123	0.3962	-0.32
Mof_C 	C 	0.3721	0.7171	0.3721	0.248
Mof_C 	C 	0.3269	0.5529	0.3269	-0.058
Mof_O 	O 	0.3962	0.7877	0.3962	-0.295
Mof_C 	C 	0.1279	0.3721	0.7829	0.249
Mof_C 	C 	0.1731	0.3269	0.9471	-0.038
Mof_O 	O 	0.1038	0.3962	0.7123	-0.32
Mof_C 	C 	0.1279	0.1279	0.7171	0.24
Mof_C 	C 	0.1731	0.1731	0.5529	-0.068
Mof_O 	O 	0.1038	0.1038	0.7877	-0.331
Mof_C 	C 	0.3721	0.1279	0.7829	0.249
Mof_C 	C 	0.3269	0.1731	0.9471	-0.038
Mof_O 	O 	0.3962	0.1038	0.7123	-0.32
Mof_C 	C 	0.3721	0.3721	0.7171	0.248
Mof_C 	C 	0.3269	0.3269	0.5529	-0.058
Mof_O 	O 	0.3962	0.3962	0.7877	-0.295
Mof_C 	C 	0.7829	0.1279	0.3721	0.249
Mof_C 	C 	0.9471	0.1731	0.3269	-0.038
Mof_O 	O 	0.7123	0.1038	0.3962	-0.32
Mof_C 	C 	0.7171	0.1279	0.1279	0.24
Mof_C 	C 	0.5529	0.1731	0.1731	-0.068
Mof_O 	O 	0.7877	0.1038	0.1038	-0.331
Mof_C 	C 	0.7829	0.3721	0.1279	0.249
Mof_C 	C 	0.9471	0.3269	0.1731	-0.038
Mof_O 	O 	0.7123	0.3962	0.1038	-0.32
Mof_C 	C 	0.7171	0.3721	0.3721	0.248
Mof_C 	C 	0.5529	0.3269	0.3269	-0.058
Mof_O 	O 	0.7877	0.3962	0.3962	-0.295
Mof_C 	C 	0.2829	0.8721	0.8721	0.26
Mof_C 	C 	0.4471	0.8269	0.8269	-0.031
Mof_O 	O 	0.2123	0.8962	0.8962	-0.265
Mof_C 	C 	0.2171	0.6279	0.8721	0.251
Mof_C 	C 	0.0529	0.6731	0.8269	-0.06
Mof_O 	O 	0.2877	0.6038	0.8962	-0.28
Mof_C 	C 	0.2829	0.6279	0.6279	0.251
Mof_C 	C 	0.4471	0.6731	0.6731	-0.04
Mof_O 	O 	0.2123	0.6038	0.6038	-0.31
Mof_C 	C 	0.2171	0.8721	0.6279	0.251
Mof_C 	C 	0.0529	0.8269	0.6731	-0.06
Mof_O 	O 	0.2877	0.8962	0.6038	-0.28
Mof_C 	C 	0.8721	0.6279	0.2171	0.251
Mof_C 	C 	0.8269	0.6731	0.0529	-0.06
Mof_O 	O 	0.8962	0.6038	0.2877	-0.28
Mof_C 	C 	0.6279	0.6279	0.2829	0.251
Mof_C 	C 	0.6731	0.6731	0.4471	-0.04
Mof_O 	O 	0.6038	0.6038	0.2123	-0.31
Mof_C 	C 	0.6279	0.8721	0.2171	0.251
Mof_C 	C 	0.6731	0.8269	0.0529	-0.06
Mof_O 	O 	0.6038	0.8962	0.2877	-0.28
Mof_C 	C 	0.8721	0.8721	0.2829	0.26
Mof_C 	C 	0.8269	0.8269	0.4471	-0.031
Mof_O 	O 	0.8962	0.8962	0.2123	-0.265
Mof_C 	C 	0.6279	0.2829	0.6279	0.251
Mof_C 	C 	0.6731	0.4471	0.6731	-0.04
Mof_O 	O 	0.6038	0.2123	0.6038	-0.31
Mof_C 	C 	0.6279	0.2171	0.8721	0.251
Mof_C 	C 	0.6731	0.0529	0.8269	-0.06
Mof_O 	O 	0.6038	0.2877	0.8962	-0.28
Mof_C 	C 	0.8721	0.2829	0.8721	0.26
Mof_C 	C 	0.8269	0.4471	0.8269	-0.031
Mof_O 	O 	0.8962	0.2123	0.8962	-0.265
Mof_C 	C 	0.8721	0.2171	0.6279	0.251
Mof_C 	C 	0.8269	0.0529	0.6731	-0.06
Mof_O 	O 	0.8962	0.2877	0.6038	-0.28
_end
