data_functionalizedCrystal
_audit_creation_method	'EQeq! by Chris Wilmer'
_symmetry_space_group_name_H-M	'P1'
_symmetry_Int_Tables_number	1
_symmetry_cell_setting	triclinic
loop_
_symmetry_equiv_pos_as_xyz
  x,y,z
_cell_length_a	14.514
_cell_length_b	24.572
_cell_length_c	22.314
_cell_angle_alpha	90
_cell_angle_beta	90
_cell_angle_gamma	90
loop_
_atom_site_label
_atom_site_type_symbol
_atom_site_fract_x
_atom_site_fract_y
_atom_site_fract_z
_atom_site_charge
Mof_Zn	Zn	0.45773	0.84432	0.14791	1.24
Mof_Zn	Zn	0.04227	0.34432	0.14791	1.24
Mof_Zn	Zn	0.53757	0.84187	0.82622	1.241
Mof_Zn	Zn	0.96243	0.34187	0.82622	1.241
Mof_H 	H 	0.5151	0.3743	0.8894	0.023
Mof_H 	H 	0.5463	0.9165	0.5133	0.066
Mof_H 	H 	0.2356	0.1316	0.9807	0.058
Mof_H 	H 	0.8348	0.8743	0.8512	0.055
Mof_H 	H 	0.2482	0.3195	0.9639	0.02
Mof_H 	H 	0.5944	0.9947	0.1717	0.028
Mof_H 	H 	0.9056	0.4947	0.1717	0.026
Mof_H 	H 	0.1482	0.2116	0.9834	0.016
Mof_H 	H 	0.9654	0.2695	0.6464	0.034
Mof_H 	H 	0.1121	0.249	0.3595	0.032
Mof_H 	H 	0.9155	0.189	0.1635	0.027
Mof_H 	H 	0.5098	0.7554	0.544	0.066
Mof_H 	H 	0.1029	0.8286	0.925	0.101
Mof_H 	H 	0.6839	0.0739	0.1712	0.066
Mof_H 	H 	0.6747	0.6101	0.1609	0.067
Mof_H 	H 	0.3971	0.3286	0.925	0.101
Mof_H 	H 	0.4843	0.3904	0.0836	0.095
Mof_H 	H 	0.284	0.0623	0.8038	0.069
Mof_H 	H 	0.1646	0.8812	0.1225	0.014
Mof_H 	H 	0.7334	0.8567	0.0193	0.119
Mof_H 	H 	0.927	0.3936	0.4239	0.066
Mof_H 	H 	0.3518	0.7116	0.9834	0.016
Mof_H 	H 	0.1394	0.0996	0.8139	0.065
Mof_H 	H 	0.3879	0.749	0.3595	0.033
Mof_H 	H 	0.1253	0.4837	0.8	0.026
Mof_H 	H 	0.5346	0.7695	0.6464	0.034
Mof_H 	H 	0.8253	0.1101	0.1609	0.067
Mof_H 	H 	0.6652	0.3743	0.8512	0.054
Mof_H 	H 	0.8863	0.4861	0.9907	-0.012
Mof_H 	H 	0.573	0.8936	0.4239	0.066
Mof_H 	H 	0.0756	0.2581	0.4611	0.067
Mof_H 	H 	0.0157	0.8904	0.0836	0.095
Mof_H 	H 	0.1705	0.4584	0.9771	0.016
Mof_H 	H 	0.4244	0.7581	0.4611	0.067
Mof_H 	H 	0.2613	0.5371	0.9809	0.061
Mof_H 	H 	0.6165	0.3567	0.0576	-0.005
Mof_H 	H 	0.6137	0.9861	0.9907	-0.01
Mof_H 	H 	0.788	0.6596	0.0041	0.081
Mof_H 	H 	0.8835	0.8567	0.0576	-0.006
Mof_H 	H 	0.3747	0.9837	0.8	0.025
Mof_H 	H 	0.3354	0.3812	0.1225	0.014
Mof_H 	H 	0.5845	0.689	0.1635	0.027
Mof_H 	H 	0.9288	0.4307	0.6157	0.032
Mof_H 	H 	0.6978	0.7385	0.0067	0.033
Mof_H 	H 	0.8022	0.2385	0.0067	0.032
Mof_H 	H 	0.9849	0.8743	0.8894	0.021
Mof_H 	H 	0.9537	0.4165	0.5133	0.065
Mof_H 	H 	0.9635	0.3845	0.3222	0.031
Mof_H 	H 	0.052	0.1796	0.8166	0.027
Mof_H 	H 	0.7033	0.0653	0.9902	0.031
Mof_H 	H 	0.5712	0.9307	0.6157	0.032
Mof_H 	H 	0.2387	0.0371	0.9809	0.062
Mof_H 	H 	0.2644	0.6316	0.9807	0.058
Mof_H 	H 	0.9902	0.2554	0.544	0.066
Mof_H 	H 	0.7666	0.3567	0.0193	0.118
Mof_H 	H 	0.3295	0.9584	0.9771	0.016
Mof_H 	H 	0.7967	0.5653	0.9902	0.031
Mof_H 	H 	0.3606	0.5996	0.8139	0.065
Mof_H 	H 	0.448	0.6796	0.8166	0.027
Mof_H 	H 	0.712	0.1596	0.0041	0.081
Mof_H 	H 	0.5365	0.8845	0.3222	0.031
Mof_H 	H 	0.8161	0.5739	0.1712	0.067
Mof_H 	H 	0.2518	0.8195	0.9639	0.02
Mof_H 	H 	0.216	0.5623	0.8038	0.068
Mof_Ru	Ru	0.49634	0.84516	0.9904	1.36
Mof_Ru	Ru	0.00366	0.34516	0.9904	1.365
Mof_C 	C 	0.5956	0.983	0.0812	-0.144
Mof_C 	C 	0.3606	0.96364	0.8882	-0.145
Mof_C 	C 	0.1957	0.1081	0.897	0.041
Mof_C 	C 	0.6931	0.7124	0.038	0.056
Mof_C 	C 	0.2932	0.04121	0.839	-0.117
Mof_C 	C 	0.0635	0.3108	0.2695	0.316
Mof_C 	C 	0.3471	0.99449	0.8367	0.051
Mof_C 	C 	0.5355	0.8643	0.4108	-0.104
Mof_C 	C 	0.5439	0.8867	0.5403	-0.1
Mof_C 	C 	0.3202	0.9795	0.9419	0.053
Mof_C 	C 	0.0893	0.16986	0.8499	0.048
Mof_C 	C 	0.1833	0.3431	0.0682	0.4
Mof_C 	C 	0.963	0.29938	0.6194	0.032
Mof_C 	C 	0.6553	0.37072	0.8931	-0.055
Mof_C 	C 	0.5138	0.8589	0.3504	0.034
Mof_C 	C 	0.8742	0.183	0.1311	0.047
Mof_C 	C 	0.702	0.0771	0.0806	0.032
Mof_C 	C 	0.6696	0.0561	0.1345	-0.101
Mof_C 	C 	0.5022	0.8267	0.4521	0.04
Mof_C 	C 	0.8447	0.87072	0.8931	-0.057
Mof_C 	C 	0.673	0.8621	0.9043	0.437
Mof_C 	C 	0.6812	0.051	0.0271	-0.071
Mof_C 	C 	0.8188	0.551	0.0271	-0.073
Mof_C 	C 	0.2337	0.52621	0.9442	-0.118
Mof_C 	C 	0.5662	0.3707	0.9158	0.012
Mof_C 	C 	0.1394	0.46364	0.8882	-0.144
Mof_C 	C 	0.7155	0.36024	0.9929	-0.16
Mof_C 	C 	0.9483	0.8655	0.9771	-0.14
Mof_C 	C 	0.0745	0.2784	0.3725	0.034
Mof_C 	C 	0.6794	0.6361	0.1296	-0.111
Mof_C 	C 	0.9044	0.483	0.0812	-0.149
Mof_C 	C 	0.3167	0.8431	0.0682	0.4
Mof_C 	C 	0.4547	0.3604	0.0006	0.181
Mof_C 	C 	0.537	0.79938	0.6194	0.032
Mof_C 	C 	0.5407	0.9302	0.0833	0.454
Mof_C 	C 	0.9338	0.8707	0.9158	0.014
Mof_C 	C 	0.8304	0.5561	0.1345	-0.105
Mof_C 	C 	0.3536	0.68887	0.949	0.052
Mof_C 	C 	0.628	0.0039	0.0274	0.085
Mof_C 	C 	0.2663	0.02621	0.9442	-0.119
Mof_C 	C 	0.1521	0.8706	0.0824	0.091
Mof_C 	C 	0.4133	0.9114	0.888	0.416
Mof_C 	C 	0.3846	0.3393	0.9651	-0.208
Mof_C 	C 	0.8069	0.2124	0.038	0.057
Mof_C 	C 	0.9256	0.2728	0.089	0.422
Mof_C 	C 	0.1154	0.8393	0.9651	-0.207
Mof_C 	C 	0.827	0.3621	0.9043	0.438
Mof_C 	C 	0.9743	0.3346	0.519	0.038
Mof_C 	C 	0.77	0.86548	0.9316	-0.043
Mof_C 	C 	0.6327	0.72114	0.0853	-0.127
Mof_C 	C 	0.2038	0.8339	0.9882	0.066
Mof_C 	C 	0.5222	0.791	0.5585	-0.101
Mof_C 	C 	0.5517	0.3655	0.9771	-0.138
Mof_C 	C 	0.8206	0.1361	0.1296	-0.111
Mof_C 	C 	0.5744	0.7728	0.089	0.422
Mof_C 	C 	0.9778	0.291	0.5585	-0.101
Mof_C 	C 	0.4255	0.7784	0.3725	0.033
Mof_C 	C 	0.1529	0.49449	0.8367	0.05
Mof_C 	C 	0.0636	0.876	0.0593	-0.183
Mof_C 	C 	0.1412	0.12235	0.8483	-0.108
Mof_C 	C 	0.5587	0.8951	0.6012	0.031
Mof_C 	C 	0.6258	0.683	0.1311	0.047
Mof_C 	C 	0.872	0.5039	0.0274	0.091
Mof_C 	C 	0.9398	0.3627	0.7057	0.347
Mof_C 	C 	0.2778	0.3495	0.0469	-0.141
Mof_C 	C 	0.73	0.36548	0.9316	-0.045
Mof_C 	C 	0.2068	0.54121	0.839	-0.115
Mof_C 	C 	0.5602	0.8627	0.7057	0.347
Mof_C 	C 	0.0528	0.2838	0.4329	-0.104
Mof_C 	C 	0.4588	0.8159	0.3313	-0.114
Mof_C 	C 	0.0453	0.8604	0.0006	0.181
Mof_C 	C 	0.4107	0.66986	0.8499	0.048
Mof_C 	C 	0.1464	0.18887	0.949	0.051
Mof_C 	C 	0.9448	0.35143	0.6407	-0.112
Mof_C 	C 	0.9645	0.3643	0.4108	-0.105
Mof_C 	C 	0.6264	0.3602	0.0157	0.109
Mof_C 	C 	0.3479	0.3706	0.0824	0.092
Mof_C 	C 	0.0867	0.4114	0.888	0.416
Mof_C 	C 	0.0323	0.2552	0.9018	0.468
Mof_C 	C 	0.9593	0.4302	0.0833	0.456
Mof_C 	C 	0.9561	0.3867	0.5403	-0.1
Mof_C 	C 	0.6165	0.009	0.1348	0.047
Mof_C 	C 	0.7467	0.6656	0.0364	-0.112
Mof_C 	C 	0.7398	0.6274	0.0822	0.055
Mof_C 	C 	0.3043	0.6081	0.897	0.042
Mof_C 	C 	0.4677	0.7552	0.9018	0.468
Mof_C 	C 	0.3017	0.64136	0.9474	-0.112
Mof_C 	C 	0.9862	0.3589	0.3504	0.035
Mof_C 	C 	0.2528	0.05707	0.8927	0.044
Mof_C 	C 	0.2962	0.3339	0.9882	0.067
Mof_C 	C 	0.0919	0.20313	0.9003	-0.135
Mof_C 	C 	0.7602	0.1274	0.0822	0.056
Mof_C 	C 	0.4472	0.7838	0.4329	-0.103
Mof_C 	C 	0.7533	0.1656	0.0364	-0.113
Mof_C 	C 	0.2222	0.8495	0.0469	-0.141
Mof_C 	C 	0.0412	0.3159	0.3313	-0.115
Mof_C 	C 	0.7845	0.86024	0.9929	-0.164
Mof_C 	C 	0.4364	0.376	0.0593	-0.183
Mof_C 	C 	0.5257	0.8346	0.519	0.038
Mof_C 	C 	0.798	0.5771	0.0806	0.034
Mof_C 	C 	0.5552	0.85143	0.6407	-0.112
Mof_C 	C 	0.8835	0.509	0.1348	0.054
Mof_C 	C 	0.4365	0.8108	0.2695	0.315
Mof_C 	C 	0.8736	0.8602	0.0157	0.113
Mof_C 	C 	0.9413	0.3951	0.6012	0.031
Mof_C 	C 	0.3588	0.62235	0.8483	-0.109
Mof_C 	C 	0.9978	0.3267	0.4521	0.041
Mof_C 	C 	0.2472	0.55707	0.8927	0.043
Mof_C 	C 	0.4081	0.70313	0.9003	-0.135
Mof_C 	C 	0.1798	0.4795	0.9419	0.052
Mof_C 	C 	0.1983	0.14136	0.9474	-0.112
Mof_C 	C 	0.8673	0.22114	0.0853	-0.127
Mof_O 	O 	0.9983	0.4191	0.0338	-0.466
Mof_O 	O 	0.3304	0.8563	0.1237	-0.464
Mof_O 	O 	0.4905	0.7703	0.9506	-0.511
Mof_O 	O 	0.5417	0.8245	0.7409	-0.44
Mof_O 	O 	0.9069	0.4074	0.7218	-0.313
Mof_O 	O 	0.5873	0.809	0.0504	-0.47
Mof_O 	O 	0.0928	0.3781	0.9268	-0.493
Mof_O 	O 	0.8894	0.3711	0.941	-0.511
Mof_O 	O 	0.4628	0.8505	0.2336	-0.432
Mof_O 	O 	0.9712	0.409	0.131	-0.513
Mof_O 	O 	0.0383	0.4055	0.8374	-0.465
Mof_O 	O 	0.1238	0.3212	0.0366	-0.469
Mof_O 	O 	0.1043	0.2686	0.2489	-0.285
Mof_O 	O 	0.9127	0.309	0.0504	-0.471
Mof_O 	O 	0.3762	0.8212	0.0366	-0.467
Mof_O 	O 	0.9583	0.3245	0.7409	-0.44
Mof_O 	O 	0.4072	0.8781	0.9268	-0.493
Mof_O 	O 	0.6657	0.8517	0.8528	-0.508
Mof_O 	O 	0.9826	0.2751	0.1305	-0.486
Mof_O 	O 	0.6106	0.8711	0.941	-0.51
Mof_O 	O 	0.3957	0.7686	0.2489	-0.285
Mof_O 	O 	0.4617	0.9055	0.8374	-0.466
Mof_O 	O 	0.4808	0.7751	0.8503	-0.501
Mof_O 	O 	0.0095	0.2703	0.9506	-0.511
Mof_O 	O 	0.8343	0.3517	0.8528	-0.509
Mof_O 	O 	0.0372	0.3505	0.2336	-0.432
Mof_O 	O 	0.5174	0.7751	0.1305	-0.486
Mof_O 	O 	0.0192	0.2751	0.8503	-0.501
Mof_O 	O 	0.5288	0.909	0.131	-0.513
Mof_O 	O 	0.1696	0.3563	0.1237	-0.464
Mof_O 	O 	0.5017	0.9191	0.0338	-0.465
Mof_O 	O 	0.5931	0.9074	0.7218	-0.312
Mof_Zn	Zn	0.95773	0.65568	0.64791	1.238
Mof_Zn	Zn	0.03757	0.65813	0.32622	1.24
Mof_Zn	Zn	0.54227	0.15568	0.64791	1.238
Mof_Zn	Zn	0.46243	0.15813	0.32622	1.24
Mof_H 	H 	0.4654	0.2305	0.1464	0.028
Mof_H 	H 	0.1839	0.4261	0.6712	0.07
Mof_H 	H 	0.0712	0.5693	0.1157	0.027
Mof_H 	H 	0.8295	0.5416	0.4771	0.023
Mof_H 	H 	0.9244	0.7419	0.9611	0.048
Mof_H 	H 	0.3253	0.3899	0.6609	0.064
Mof_H 	H 	0.2334	0.6433	0.5193	0.026
Mof_H 	H 	0.7356	0.3684	0.4807	0.065
Mof_H 	H 	0.8879	0.751	0.8595	0.037
Mof_H 	H 	0.1747	0.8899	0.6609	0.064
Mof_H 	H 	0.784	0.4377	0.3038	0.069
Mof_H 	H 	0.1165	0.1433	0.5576	0.069
Mof_H 	H 	0.6253	0.0163	0.3	0.026
Mof_H 	H 	0.3835	0.6433	0.5576	0.069
Mof_H 	H 	0.5157	0.6096	0.5836	0.066
Mof_H 	H 	0.7387	0.4629	0.4809	0.068
Mof_H 	H 	0.3161	0.9261	0.6712	0.071
Mof_H 	H 	0.3863	0.0139	0.4907	0.016
Mof_H 	H 	0.8606	0.9004	0.3139	0.066
Mof_H 	H 	0.8747	0.5163	0.3	0.025
Mof_H 	H 	0.7613	0.9629	0.4809	0.068
Mof_H 	H 	0.073	0.6064	0.9239	0.052
Mof_H 	H 	0.6705	0.0416	0.4771	0.024
Mof_H 	H 	0.716	0.9377	0.3038	0.068
Mof_H 	H 	0.3022	0.2615	0.5067	0.024
Mof_H 	H 	0.0944	0.5053	0.6717	0.025
Mof_H 	H 	0.0845	0.811	0.6635	0.028
Mof_H 	H 	0.0346	0.7305	0.1464	0.029
Mof_H 	H 	0.3348	0.6257	0.3512	0.018
Mof_H 	H 	0.212	0.3404	0.5041	0.069
Mof_H 	H 	0.552	0.3204	0.3166	0.028
Mof_H 	H 	0.0151	0.1257	0.3894	0.068
Mof_H 	H 	0.1137	0.5139	0.4907	0.018
Mof_H 	H 	0.8971	0.1714	0.425	0.07
Mof_H 	H 	0.8354	0.1188	0.6225	0.025
Mof_H 	H 	0.7518	0.6805	0.4639	0.029
Mof_H 	H 	0.4849	0.6257	0.3894	0.068
Mof_H 	H 	0.0365	0.6155	0.8222	0.037
Mof_H 	H 	0.288	0.8404	0.5041	0.069
Mof_H 	H 	0.2967	0.9347	0.4902	0.067
Mof_H 	H 	0.6646	0.6188	0.6225	0.025
Mof_H 	H 	0.4056	0.0053	0.6717	0.023
Mof_H 	H 	0.4635	0.1155	0.8222	0.038
Mof_H 	H 	0.6482	0.2884	0.4834	0.024
Mof_H 	H 	0.9843	0.1096	0.5836	0.066
Mof_H 	H 	0.6121	0.251	0.8595	0.039
Mof_H 	H 	0.0463	0.5835	0.0133	0.085
Mof_H 	H 	0.1978	0.7615	0.5067	0.024
Mof_H 	H 	0.4155	0.311	0.6635	0.027
Mof_H 	H 	0.8518	0.7884	0.4834	0.024
Mof_H 	H 	0.7482	0.1805	0.4639	0.029
Mof_H 	H 	0.1652	0.1257	0.3512	0.018
Mof_H 	H 	0.4288	0.0693	0.1157	0.027
Mof_H 	H 	0.6029	0.6714	0.425	0.069
Mof_H 	H 	0.4537	0.0835	0.0133	0.086
Mof_H 	H 	0.4902	0.2446	0.044	0.084
Mof_H 	H 	0.427	0.1064	0.9239	0.05
Mof_H 	H 	0.6394	0.4004	0.3139	0.066
Mof_H 	H 	0.2033	0.4347	0.4902	0.066
Mof_H 	H 	0.2666	0.1433	0.5193	0.026
Mof_H 	H 	0.5756	0.2419	0.9611	0.046
Mof_H 	H 	0.948	0.8204	0.3166	0.028
Mof_H 	H 	0.0098	0.7446	0.044	0.083
Mof_H 	H 	0.7644	0.8684	0.4807	0.065
Mof_Ru	Ru	0.99634	0.65484	0.4904	1.432
Mof_Ru	Ru	0.50366	0.15484	0.4904	1.433
Mof_C 	C 	0.9677	0.7448	0.4018	0.471
Mof_C 	C 	0.9107	0.83014	0.3499	0.049
Mof_C 	C 	0.1165	0.491	0.6348	0.054
Mof_C 	C 	0.0662	0.1293	0.4158	-0.118
Mof_C 	C 	0.327	0.1379	0.4043	0.484
Mof_C 	C 	0.7038	0.6661	0.4882	0.055
Mof_C 	C 	0.8606	0.53636	0.3882	-0.144
Mof_C 	C 	0.0956	0.517	0.5812	-0.143
Mof_C 	C 	0.9472	0.7162	0.9329	-0.081
Mof_C 	C 	0.0517	0.1345	0.4771	0.047
Mof_C 	C 	0.8479	0.1294	0.5824	0.053
Mof_C 	C 	0.6529	0.00551	0.3367	0.049
Mof_C 	C 	0.2398	0.8726	0.5822	0.043
Mof_C 	C 	0.0355	0.6357	0.9108	-0.079
Mof_C 	C 	0.0587	0.6049	0.1012	0.053
Mof_C 	C 	0.4483	0.6345	0.4771	0.047
Mof_C 	C 	0.173	0.6379	0.4043	0.484
Mof_C 	C 	0.5412	0.1841	0.8313	-0.098
Mof_C 	C 	0.3736	0.6398	0.5157	-0.12
Mof_C 	C 	0.1553	0.12928	0.3931	0.059
Mof_C 	C 	0.0744	0.7272	0.589	0.424
Mof_C 	C 	0.9547	0.1396	0.5006	0.042
Mof_C 	C 	0.8202	0.5205	0.4419	0.054
Mof_C 	C 	0.0552	0.64857	0.1407	-0.126
Mof_C 	C 	0.6521	0.6294	0.5824	0.053
Mof_C 	C 	0.4398	0.1373	0.2057	0.352
Mof_C 	C 	0.4256	0.2272	0.589	0.425
Mof_C 	C 	0.4645	0.1357	0.9108	-0.074
Mof_C 	C 	0.7663	0.47379	0.4442	-0.116
Mof_C 	C 	0.298	0.9229	0.5806	0.051
Mof_C 	C 	0.9255	0.7216	0.8725	0.014
Mof_C 	C 	0.7222	0.6505	0.5469	-0.146
Mof_C 	C 	0.7932	0.45879	0.339	-0.116
Mof_C 	C 	0.4338	0.6293	0.4158	-0.118
Mof_C 	C 	0.5453	0.6396	0.5006	0.042
Mof_C 	C 	0.2467	0.8344	0.5364	-0.109
Mof_C 	C 	0.9364	0.124	0.5593	-0.113
Mof_C 	C 	0.0222	0.709	0.0585	-0.128
Mof_C 	C 	0.27	0.63452	0.4316	-0.156
Mof_C 	C 	0.3304	0.9439	0.6345	-0.115
Mof_C 	C 	0.6154	0.6607	0.4651	-0.112
Mof_C 	C 	0.4561	0.1133	0.0403	-0.13
Mof_C 	C 	0.4778	0.209	0.0585	-0.13
Mof_C 	C 	0.3206	0.3639	0.6296	-0.107
Mof_C 	C 	0.2533	0.3344	0.5364	-0.11
Mof_C 	C 	0.3673	0.27886	0.5853	-0.13
Mof_C 	C 	0.0257	0.6654	0.019	0.088
Mof_C 	C 	0.2845	0.63976	0.4929	0.062
Mof_C 	C 	0.4978	0.1733	0.9521	-0.014
Mof_C 	C 	0.5919	0.29687	0.4003	-0.133
Mof_C 	C 	0.0022	0.6733	0.9521	-0.007
Mof_C 	C 	0.5528	0.2162	0.9329	-0.074
Mof_C 	C 	0.9081	0.79687	0.4003	-0.133
Mof_C 	C 	0.4413	0.1049	0.1012	0.054
Mof_C 	C 	0.5745	0.2216	0.8725	0.01
Mof_C 	C 	0.8536	0.81113	0.449	0.053
Mof_C 	C 	0.5636	0.624	0.5593	-0.113
Mof_C 	C 	0.23	0.13452	0.4316	-0.156
Mof_C 	C 	0.6798	0.0205	0.4419	0.052
Mof_C 	C 	0.9588	0.6841	0.8313	-0.103
Mof_C 	C 	0.9133	0.5886	0.388	0.419
Mof_C 	C 	0.3069	0.2876	0.538	0.053
Mof_C 	C 	0.7337	0.97379	0.4442	-0.114
Mof_C 	C 	0.4593	0.0698	0.5833	0.459
Mof_C 	C 	0.7068	0.95879	0.339	-0.114
Mof_C 	C 	0.6833	0.1569	0.5682	0.402
Mof_C 	C 	0.1696	0.4439	0.6345	-0.112
Mof_C 	C 	0.7962	0.1661	0.4882	0.055
Mof_C 	C 	0.1931	0.7876	0.538	0.052
Mof_C 	C 	0.8471	0.50551	0.3367	0.051
Mof_C 	C 	0.3188	0.949	0.5271	-0.119
Mof_C 	C 	0.5635	0.1892	0.7695	0.309
Mof_C 	C 	0.5867	0.0886	0.388	0.419
Mof_C 	C 	0.6412	0.37765	0.3483	-0.108
Mof_C 	C 	0.0407	0.5698	0.5833	0.458
Mof_C 	C 	0.1264	0.1398	0.5157	-0.12
Mof_C 	C 	0.128	0.4961	0.5274	0.058
Mof_C 	C 	0.7778	0.1505	0.5469	-0.146
Mof_C 	C 	0.372	0.9961	0.5274	0.063
Mof_C 	C 	0.4743	0.1654	0.019	0.092
Mof_C 	C 	0.0138	0.6411	0.8504	0.018
Mof_C 	C 	0.7472	0.94293	0.3927	0.043
Mof_C 	C 	0.4862	0.1411	0.8504	0.012
Mof_C 	C 	0.202	0.4229	0.5806	0.049
Mof_C 	C 	0.8846	0.1607	0.4651	-0.112
Mof_C 	C 	0.1327	0.77886	0.5853	-0.129
Mof_C 	C 	0.7528	0.44293	0.3927	0.045
Mof_C 	C 	0.6957	0.3919	0.397	0.043
Mof_C 	C 	0.5323	0.2448	0.4018	0.471
Mof_C 	C 	0.9365	0.6892	0.7695	0.31
Mof_C 	C 	0.6464	0.31113	0.449	0.053
Mof_C 	C 	0.3835	0.991	0.6348	0.058
Mof_C 	C 	0.6394	0.03636	0.3882	-0.143
Mof_C 	C 	0.4044	0.017	0.5812	-0.148
Mof_C 	C 	0.4448	0.14857	0.1407	-0.127
Mof_C 	C 	0.8043	0.8919	0.397	0.044
Mof_C 	C 	0.1258	0.817	0.6311	0.043
Mof_C 	C 	0.1794	0.8639	0.6296	-0.106
Mof_C 	C 	0.1812	0.449	0.5271	-0.116
Mof_C 	C 	0.3742	0.317	0.6311	0.043
Mof_C 	C 	0.8167	0.6569	0.5682	0.401
Mof_C 	C 	0.0439	0.6133	0.0403	-0.128
Mof_C 	C 	0.5893	0.33014	0.3499	0.049
Mof_C 	C 	0.037	0.70062	0.1194	0.053
Mof_C 	C 	0.2155	0.13976	0.4929	0.062
Mof_C 	C 	0.3447	0.62928	0.3931	0.059
Mof_C 	C 	0.8017	0.85864	0.4474	-0.111
Mof_C 	C 	0.6983	0.35864	0.4474	-0.11
Mof_C 	C 	0.463	0.20062	0.1194	0.054
Mof_C 	C 	0.0602	0.6373	0.2057	0.352
Mof_C 	C 	0.8588	0.87765	0.3483	-0.108
Mof_C 	C 	0.2602	0.3726	0.5822	0.044
Mof_O 	O 	0.6043	0.2314	0.7489	-0.284
Mof_O 	O 	0.8762	0.6788	0.5366	-0.493
Mof_O 	O 	0.6238	0.1788	0.5366	-0.493
Mof_O 	O 	0.0017	0.5809	0.5338	-0.491
Mof_O 	O 	0.9628	0.6495	0.7336	-0.431
Mof_O 	O 	0.9072	0.6219	0.4268	-0.498
Mof_O 	O 	0.9808	0.7249	0.3503	-0.502
Mof_O 	O 	0.4983	0.0809	0.5338	-0.492
Mof_O 	O 	0.5095	0.2297	0.4506	-0.511
Mof_O 	O 	0.9617	0.5945	0.3374	-0.467
Mof_O 	O 	0.4127	0.191	0.5504	-0.488
Mof_O 	O 	0.9905	0.7297	0.4506	-0.511
Mof_O 	O 	0.0174	0.7249	0.6305	-0.488
Mof_O 	O 	0.5383	0.0945	0.3374	-0.467
Mof_O 	O 	0.1657	0.6483	0.3528	-0.521
Mof_O 	O 	0.4583	0.1755	0.2409	-0.44
Mof_O 	O 	0.5928	0.1219	0.4268	-0.498
Mof_O 	O 	0.0873	0.691	0.5504	-0.488
Mof_O 	O 	0.4712	0.091	0.631	-0.516
Mof_O 	O 	0.1106	0.6289	0.441	-0.522
Mof_O 	O 	0.5192	0.2249	0.3503	-0.502
Mof_O 	O 	0.8957	0.7314	0.7489	-0.285
Mof_O 	O 	0.3343	0.1483	0.3528	-0.521
Mof_O 	O 	0.3894	0.1289	0.441	-0.522
Mof_O 	O 	0.8304	0.6437	0.6237	-0.467
Mof_O 	O 	0.4069	0.0926	0.2218	-0.313
Mof_O 	O 	0.0417	0.6755	0.2409	-0.44
Mof_O 	O 	0.4826	0.2249	0.6305	-0.489
Mof_O 	O 	0.0288	0.591	0.631	-0.515
Mof_O 	O 	0.0931	0.5926	0.2218	-0.313
Mof_O 	O 	0.6696	0.1437	0.6237	-0.467
Mof_O 	O 	0.5372	0.1495	0.7336	-0.431
Mof_H 	H 	0.2535	0.7314	0.1506	0.121
Mof_H 	H 	0.3799	0.6363	0.2368	0.108
Mof_H 	H 	0.3963	0.7128	0.1843	0.127
Mof_H 	H 	0.2626	0.6803	0.1065	0.118
Mof_H 	H 	0.4047	0.666	0.1438	0.103
Mof_H 	H 	0.3276	0.7323	0.0975	0.118
Mof_H 	H 	0.2956	0.6198	0.1943	0.113
Mof_H 	H 	0.2865	0.6709	0.2384	0.125
Mof_C 	C 	0.2966	0.7093	0.1271	-0.275
Mof_C 	C 	0.329	0.6503	0.2127	-0.265
Mof_N 	N 	0.3642	0.6855	0.1665	-0.158
Mof_H 	H 	0.1556	0.4373	0.264	0.117
Mof_H 	H 	0.1422	0.5302	0.385	0.105
Mof_H 	H 	0.1298	0.4825	0.2151	0.119
Mof_H 	H 	0.1995	0.5208	0.2931	0.101
Mof_H 	H 	0.1049	0.5413	0.2891	0.118
Mof_H 	H 	0.0601	0.4899	0.3671	0.112
Mof_H 	H 	0.1634	0.4675	0.3715	0.105
Mof_H 	H 	0.0523	0.4597	0.2595	0.122
Mof_C 	C 	0.118	0.4694	0.2558	-0.274
Mof_C 	C 	0.125	0.4988	0.3604	-0.262
Mof_N 	N 	0.1393	0.5114	0.2982	-0.155
Mof_H 	H 	0.8702	0.5175	0.7151	0.117
Mof_H 	H 	0.9477	0.5403	0.7595	0.121
Mof_H 	H 	0.8578	0.4698	0.885	0.102
Mof_H 	H 	0.8444	0.5627	0.764	0.115
Mof_H 	H 	0.8005	0.4792	0.7931	0.1
Mof_H 	H 	0.8366	0.5325	0.8715	0.101
Mof_H 	H 	0.9399	0.5101	0.8671	0.109
Mof_H 	H 	0.8951	0.4587	0.7891	0.118
Mof_C 	C 	0.882	0.5306	0.7558	-0.272
Mof_C 	C 	0.875	0.5012	0.8604	-0.258
Mof_N 	N 	0.8607	0.4886	0.7982	-0.156
Mof_H 	H 	0.2465	0.2314	0.1506	0.121
Mof_H 	H 	0.1037	0.2128	0.1843	0.127
Mof_H 	H 	0.2135	0.1709	0.2384	0.125
Mof_H 	H 	0.2374	0.1803	0.1065	0.117
Mof_H 	H 	0.1724	0.2323	0.0975	0.118
Mof_H 	H 	0.1201	0.1363	0.2368	0.108
Mof_H 	H 	0.2044	0.1198	0.1943	0.113
Mof_H 	H 	0.0953	0.166	0.1438	0.103
Mof_C 	C 	0.2034	0.2093	0.1271	-0.275
Mof_C 	C 	0.171	0.1503	0.2127	-0.265
Mof_N 	N 	0.1358	0.1855	0.1665	-0.158
Mof_H 	H 	0.3702	0.9825	0.2151	0.119
Mof_H 	H 	0.3578	0.0302	0.385	0.104
Mof_H 	H 	0.3366	0.9675	0.3715	0.104
Mof_H 	H 	0.4477	0.9597	0.2595	0.122
Mof_H 	H 	0.3951	0.0413	0.2891	0.118
Mof_H 	H 	0.3005	0.0208	0.2931	0.101
Mof_H 	H 	0.4399	0.9899	0.3671	0.111
Mof_H 	H 	0.3444	0.9373	0.264	0.117
Mof_C 	C 	0.375	0.9988	0.3604	-0.258
Mof_C 	C 	0.382	0.9694	0.2558	-0.273
Mof_N 	N 	0.3607	0.0114	0.2982	-0.156
Mof_H 	H 	0.8799	0.8637	0.7368	0.105
Mof_H 	H 	0.7865	0.8291	0.7384	0.123
Mof_H 	H 	0.7626	0.8197	0.6065	0.111
Mof_H 	H 	0.7535	0.7686	0.6506	0.118
Mof_H 	H 	0.8963	0.7872	0.6843	0.127
Mof_H 	H 	0.7956	0.8802	0.6943	0.11
Mof_H 	H 	0.9047	0.834	0.6438	0.1
Mof_H 	H 	0.8276	0.7677	0.5975	0.112
Mof_C 	C 	0.829	0.8497	0.7127	-0.262
Mof_C 	C 	0.7966	0.7907	0.6271	-0.267
Mof_N 	N 	0.8642	0.8145	0.6665	-0.159
Mof_H 	H 	0.7044	0.3802	0.6943	0.11
Mof_H 	H 	0.7465	0.2686	0.6506	0.118
Mof_H 	H 	0.6201	0.3637	0.7368	0.105
Mof_H 	H 	0.5953	0.334	0.6438	0.1
Mof_H 	H 	0.7135	0.3291	0.7384	0.123
Mof_H 	H 	0.6037	0.2872	0.6843	0.127
Mof_H 	H 	0.7374	0.3197	0.6065	0.111
Mof_H 	H 	0.6724	0.2677	0.5975	0.112
Mof_C 	C 	0.7034	0.2907	0.6271	-0.267
Mof_C 	C 	0.671	0.3497	0.7127	-0.262
Mof_N 	N 	0.6358	0.3145	0.6665	-0.16
Mof_H 	H 	0.6995	0.9792	0.7931	0.1
Mof_H 	H 	0.5523	0.0403	0.7595	0.121
Mof_H 	H 	0.6634	0.0325	0.8715	0.101
Mof_H 	H 	0.5601	0.0101	0.8671	0.109
Mof_H 	H 	0.6049	0.9587	0.7891	0.118
Mof_H 	H 	0.6298	0.0175	0.7151	0.117
Mof_H 	H 	0.6422	0.9698	0.885	0.103
Mof_H 	H 	0.6556	0.0627	0.764	0.115
Mof_C 	C 	0.618	0.0306	0.7558	-0.272
Mof_C 	C 	0.625	0.0012	0.8604	-0.259
Mof_N 	N 	0.6393	0.9886	0.7982	-0.155
_end
