data_functionalizedCrystal
_audit_creation_method	'EQeq! by Chris Wilmer'
_symmetry_space_group_name_H-M	'P1'
_symmetry_Int_Tables_number	1
_symmetry_cell_setting	triclinic
loop_
_symmetry_equiv_pos_as_xyz
  x,y,z
_cell_length_a	14.9953
_cell_length_b	17.5335
_cell_length_c	20.2381
_cell_angle_alpha	115.225
_cell_angle_beta	92.329
_cell_angle_gamma	105.606
loop_
_atom_site_label
_atom_site_type_symbol
_atom_site_fract_x
_atom_site_fract_y
_atom_site_fract_z
_atom_site_charge
Mof_Zn	Zn	0.73128	0.63995	0.34736	1.207
Mof_Zn	Zn	0.7971	0.70182	0.94255	1.21
Mof_Zn	Zn	0.85808	0.77813	0.6785	1.183
Mof_Zn	Zn	0.68762	0.55697	0.60739	1.163
Mof_O 	O 	0.6401	0.4316	0.5802	-0.492
Mof_O 	O 	0.6952	0.5131	0.2789	-0.45
Mof_O 	O 	0.5571	0.4958	0.3159	-0.332
Mof_O 	O 	0.7527	0.581	0.9291	-0.476
Mof_O 	O 	0.9292	0.741	0.9863	-0.478
Mof_N 	N 	0.6419	0.7082	0.3448	-0.272
Mof_O 	O 	0.5487	0.4242	0.488	-0.351
Mof_O 	O 	0.8585	0.6739	0.3269	-0.469
Mof_N 	N 	0.7218	0.6212	0.5453	-0.274
Mof_N 	N 	0.464	0.1147	0.7835	-0.129
Mof_N 	N 	0.7799	0.8627	0.713	-0.281
Mof_N 	N 	0.8159	0.714	0.7399	-0.27
Mof_N 	N 	0.3412	0.9721	0.4043	-0.134
Mof_N 	N 	0.414	0.0444	0.1001	-0.132
Mof_N 	N 	0.7505	0.6323	0.7153	-0.27
Mof_N 	N 	0.7922	0.7009	0.5715	-0.265
Mof_N 	N 	0.7182	0.7822	0.9916	-0.268
Mof_N 	N 	0.7436	0.6518	0.4521	-0.276
Mof_C 	C 	0.5205	0.81	0.3622	0.065
Mof_C 	C 	0.6333	0.2337	0.1805	-0.106
Mof_H 	H 	0.68	0.2066	0.1731	0.063
Mof_N 	N 	0.7909	0.6892	0.8372	-0.275
Mof_O 	O 	0.9379	0.8602	0.9766	-0.34
Mof_C 	C 	0.6297	0.7497	0.002	0.066
Mof_H 	H 	0.6075	0.6903	0.992	0.003
Mof_O 	O 	0.6093	0.5634	0.885	-0.307
Mof_C 	C 	0.5529	0.6719	0.3138	0.088
Mof_H 	H 	0.5298	0.6104	0.286	-0.002
Mof_C 	C 	0.5395	0.2907	0.4934	-0.12
Mof_C 	C 	0.4716	0.1053	0.4405	0.044
Mof_C 	C 	0.4906	0.7204	0.32	-0.136
Mof_H 	H 	0.4286	0.6912	0.2952	0.084
Mof_C 	C 	0.613	0.4655	0.2788	0.337
Mof_O 	O 	0.8724	0.8065	0.416	-0.309
Mof_C 	C 	0.4103	0.152	0.4379	-0.112
Mof_H 	H 	0.3465	0.1221	0.4191	0.077
Mof_C 	C 	0.5666	0.1514	0.4703	-0.111
Mof_H 	H 	0.6083	0.121	0.4712	0.071
Mof_C 	C 	0.4937	0.9554	0.3968	-0.122
Mof_H 	H 	0.5581	0.9812	0.4018	0.075
Mof_C 	C 	0.591	0.0173	0.7599	0.049
Mof_C 	C 	0.4454	0.2432	0.4636	0.045
Mof_H 	H 	0.4044	0.2736	0.4607	0.012
Mof_C 	C 	0.571	0.0342	0.0955	-0.118
Mof_H 	H 	0.6355	0.0628	0.105	0.07
Mof_C 	C 	0.749	0.9984	0.7382	-0.138
Mof_H 	H 	0.7712	0.056	0.7435	0.082
Mof_C 	C 	0.5355	0.9421	0.0632	0.052
Mof_C 	C 	0.4348	0.008	0.4129	0.076
Mof_C 	C 	0.7372	0.6202	0.7745	0.101
Mof_H 	H 	0.6953	0.5693	0.7731	-0.024
Mof_C 	C 	0.3611	0.8281	0.3619	-0.128
Mof_H 	H 	0.3338	0.7671	0.3436	0.073
Mof_C 	C 	0.8076	0.9468	0.723	0.079
Mof_H 	H 	0.8694	0.9715	0.7197	-0.005
Mof_C 	C 	0.6567	0.3268	0.2209	0.034
Mof_H 	H 	0.7193	0.3612	0.2411	0.027
Mof_C 	C 	0.5578	0.1562	0.8024	0.067
Mof_C 	C 	0.2755	0.9182	0.0559	0.052
Mof_C 	C 	0.4567	0.8644	0.3734	0.055
Mof_C 	C 	0.5891	0.2547	0.8338	0.051
Mof_C 	C 	0.5891	0.367	0.2308	-0.107
Mof_C 	C 	0.5072	0.084	0.1139	0.073
Mof_C 	C 	0.4935	0.9749	0.7412	-0.12
Mof_H 	H 	0.4693	0.9133	0.7204	0.073
Mof_C 	C 	0.5775	0.3892	0.5217	0.348
Mof_C 	C 	0.5392	0.1829	0.1517	0.036
Mof_C 	C 	0.746	0.8677	0.008	0.072
Mof_H 	H 	0.8069	0.8926	0.003	0.004
Mof_C 	C 	0.6236	0.1095	0.7928	-0.115
Mof_H 	H 	0.6878	0.1401	0.8083	0.07
Mof_C 	C 	0.838	0.7433	0.8107	0.116
Mof_H 	H 	0.8831	0.7977	0.841	-0.028
Mof_C 	C 	0.613	0.8479	0.3982	-0.126
Mof_H 	H 	0.6361	0.9087	0.4295	0.078
Mof_C 	C 	0.6906	0.8298	0.7198	0.081
Mof_H 	H 	0.6693	0.7716	0.7132	-0.046
Mof_C 	C 	0.6295	0.879	0.7364	-0.146
Mof_H 	H 	0.5689	0.8536	0.7416	0.085
Mof_C 	C 	0.6949	0.5953	0.4749	0.109
Mof_H 	H 	0.647	0.5431	0.4442	-0.022
Mof_C 	C 	0.8027	0.7166	0.5143	0.103
Mof_H 	H 	0.8461	0.7671	0.5164	-0.009
Mof_C 	C 	0.439	0.9026	0.0506	-0.118
Mof_H 	H 	0.4134	0.8411	0.0302	0.072
Mof_C 	C 	0.4722	0.2265	0.1604	-0.106
Mof_H 	H 	0.4095	0.1932	0.1396	0.073
Mof_C 	C 	0.6562	0.9646	0.7455	0.07
Mof_C 	C 	0.6797	0.3031	0.8363	-0.128
Mof_H 	H 	0.7234	0.2736	0.8194	0.072
Mof_C 	C 	0.3804	0.9562	0.069	0.072
Mof_C 	C 	0.4333	0.0257	0.7541	0.076
Mof_C 	C 	0.0797	0.853	0.0222	-0.126
Mof_C 	C 	0.3039	0.884	0.378	0.074
Mof_C 	C 	0.5716	0.8013	0.0269	-0.131
Mof_H 	H 	0.5118	0.7762	0.0337	0.08
Mof_C 	C 	0.5238	0.2994	0.8551	-0.117
Mof_H 	H 	0.462	0.2684	0.8533	0.078
Mof_C 	C 	0.1338	0.7953	0.0109	0.047
Mof_H 	H 	0.1035	0.7348	0.993	0.025
Mof_C 	C 	0.5985	0.2438	0.4989	0.044
Mof_H 	H 	0.6609	0.2748	0.5222	0.021
Mof_C 	C 	0.4962	0.3166	0.1986	0.035
Mof_H 	H 	0.4502	0.3443	0.2031	0.021
Mof_C 	C 	0.2204	0.9714	0.0736	-0.126
Mof_H 	H 	0.2495	0.0325	0.1	0.081
Mof_C 	C 	0.6721	0.7967	0.3884	0.058
Mof_H 	H 	0.7344	0.8242	0.4126	0.005
Mof_C 	C 	0.7066	0.3928	0.8628	0.059
Mof_H 	H 	0.7691	0.4236	0.8663	0.019
Mof_C 	C 	0.5516	0.3924	0.8798	0.05
Mof_H 	H 	0.5073	0.4221	0.8928	0.022
Mof_C 	C 	0.2304	0.827	0.0257	-0.12
Mof_H 	H 	0.2653	0.7881	0.0158	0.071
Mof_C 	C 	0.691	0.9217	0.032	-0.135
Mof_H 	H 	0.7145	0.981	0.0417	0.082
Mof_C 	C 	0.9033	0.7516	0.3631	0.338
Mof_C 	C 	0.6005	0.8885	0.0417	0.066
Mof_C 	C 	0.6433	0.4391	0.8847	-0.136
Mof_C 	C 	0.1249	0.9405	0.0548	0.058
Mof_H 	H 	0.091	0.9803	0.0647	0.023
Mof_C 	C 	0.67	0.5335	0.9035	0.36
Mof_C 	C 	0.9736	0.8147	0.9934	0.378
Mof_C 	C 	0.1341	0.9025	0.688	-0.118
Mof_C 	C 	0.19	0.863	0.7103	0.037
Mof_H 	H 	0.1624	0.8101	0.7125	0.025
Mof_C 	C 	0.2871	0.9027	0.7292	-0.108
Mof_H 	H 	0.3245	0.8763	0.7441	0.065
Mof_C 	C 	0.3282	0.9818	0.7259	0.039
Mof_C 	C 	0.2723	0.0213	0.7036	-0.102
Mof_H 	H 	0.2999	0.0742	0.7014	0.073
Mof_C 	C 	0.1753	0.9816	0.6847	0.032
Mof_H 	H 	0.1379	0.0081	0.6698	0.033
Mof_O 	O 	0.9927	0.8064	0.6924	-0.506
Mof_O 	O 	0.9751	0.8867	0.6412	-0.331
Mof_C 	C 	0.0296	0.8645	0.6767	0.356
Mof_C 	C 	0.0552	0.8757	0.4038	0.025
Mof_H 	H 	0.0233	0.9151	0.4292	0.043
Mof_C 	C 	0.1517	0.9068	0.4072	-0.093
Mof_H 	H 	0.1844	0.967	0.4349	0.074
Mof_C 	C 	0.1993	0.8478	0.3693	0.03
Mof_C 	C 	0.1504	0.7578	0.328	-0.098
Mof_H 	H 	0.1822	0.7184	0.3026	0.059
Mof_C 	C 	0.0539	0.7267	0.3245	0.024
Mof_H 	H 	0.0211	0.6664	0.2969	0.034
Mof_C 	C 	0.0063	0.7856	0.3625	-0.099
Mof_Zn	Zn	0.26872	0.36005	0.65264	1.208
Mof_Zn	Zn	0.2029	0.29818	0.05745	1.211
Mof_Zn	Zn	0.14192	0.22187	0.3215	1.183
Mof_Zn	Zn	0.31238	0.44303	0.39261	1.163
Mof_O 	O 	0.3599	0.5684	0.4198	-0.492
Mof_O 	O 	0.3048	0.4869	0.7211	-0.45
Mof_O 	O 	0.4429	0.5042	0.6841	-0.332
Mof_O 	O 	0.2473	0.419	0.0709	-0.476
Mof_O 	O 	0.0708	0.259	0.0137	-0.478
Mof_N 	N 	0.3581	0.2918	0.6552	-0.272
Mof_O 	O 	0.4513	0.5758	0.512	-0.351
Mof_O 	O 	0.1415	0.3261	0.6731	-0.469
Mof_N 	N 	0.2782	0.3788	0.4547	-0.274
Mof_N 	N 	0.536	0.8853	0.2165	-0.129
Mof_N 	N 	0.2201	0.1373	0.287	-0.281
Mof_N 	N 	0.1841	0.286	0.2601	-0.27
Mof_N 	N 	0.6588	0.0279	0.5957	-0.134
Mof_N 	N 	0.586	0.9556	0.8999	-0.132
Mof_N 	N 	0.2495	0.3677	0.2847	-0.27
Mof_N 	N 	0.2078	0.2991	0.4285	-0.265
Mof_N 	N 	0.2818	0.2178	0.0084	-0.268
Mof_N 	N 	0.2564	0.3482	0.5479	-0.276
Mof_C 	C 	0.4795	0.19	0.6378	0.065
Mof_C 	C 	0.3667	0.7663	0.8195	-0.106
Mof_H 	H 	0.32	0.7934	0.8269	0.063
Mof_N 	N 	0.2091	0.3108	0.1628	-0.275
Mof_O 	O 	0.0621	0.1398	0.0234	-0.34
Mof_C 	C 	0.3703	0.2503	0.998	0.066
Mof_H 	H 	0.3925	0.3097	0.008	0.003
Mof_O 	O 	0.3907	0.4366	0.115	-0.307
Mof_C 	C 	0.4471	0.3281	0.6862	0.088
Mof_H 	H 	0.4702	0.3896	0.714	-0.002
Mof_C 	C 	0.4605	0.7093	0.5066	-0.12
Mof_C 	C 	0.5284	0.8947	0.5595	0.044
Mof_C 	C 	0.5094	0.2796	0.68	-0.136
Mof_H 	H 	0.5714	0.3088	0.7048	0.084
Mof_C 	C 	0.387	0.5345	0.7212	0.337
Mof_O 	O 	0.1276	0.1935	0.584	-0.309
Mof_C 	C 	0.5897	0.848	0.5621	-0.112
Mof_H 	H 	0.6535	0.8779	0.5809	0.077
Mof_C 	C 	0.4334	0.8486	0.5297	-0.111
Mof_H 	H 	0.3917	0.879	0.5288	0.071
Mof_C 	C 	0.5063	0.0446	0.6032	-0.122
Mof_H 	H 	0.4419	0.0188	0.5982	0.075
Mof_C 	C 	0.409	0.9827	0.2401	0.049
Mof_C 	C 	0.5546	0.7568	0.5364	0.045
Mof_H 	H 	0.5956	0.7264	0.5393	0.012
Mof_C 	C 	0.429	0.9658	0.9045	-0.118
Mof_H 	H 	0.3645	0.9372	0.895	0.07
Mof_C 	C 	0.251	0.0016	0.2618	-0.138
Mof_H 	H 	0.2288	0.944	0.2565	0.082
Mof_C 	C 	0.4645	0.0579	0.9368	0.052
Mof_C 	C 	0.5652	0.992	0.5871	0.076
Mof_C 	C 	0.2628	0.3798	0.2255	0.101
Mof_H 	H 	0.3047	0.4307	0.2269	-0.024
Mof_C 	C 	0.6389	0.1719	0.6381	-0.128
Mof_H 	H 	0.6662	0.2329	0.6564	0.073
Mof_C 	C 	0.1924	0.0532	0.277	0.079
Mof_H 	H 	0.1306	0.0285	0.2803	-0.005
Mof_C 	C 	0.3433	0.6732	0.7791	0.034
Mof_H 	H 	0.2807	0.6388	0.7589	0.027
Mof_C 	C 	0.4422	0.8438	0.1976	0.067
Mof_C 	C 	0.7245	0.0818	0.9441	0.052
Mof_C 	C 	0.5433	0.1356	0.6266	0.055
Mof_C 	C 	0.4109	0.7453	0.1662	0.051
Mof_C 	C 	0.4109	0.633	0.7692	-0.107
Mof_C 	C 	0.4928	0.916	0.8861	0.073
Mof_C 	C 	0.5065	0.0251	0.2588	-0.12
Mof_H 	H 	0.5307	0.0867	0.2796	0.073
Mof_C 	C 	0.4225	0.6108	0.4783	0.348
Mof_C 	C 	0.4608	0.8171	0.8483	0.036
Mof_C 	C 	0.254	0.1323	0.992	0.072
Mof_H 	H 	0.1931	0.1074	0.997	0.004
Mof_C 	C 	0.3764	0.8905	0.2072	-0.115
Mof_H 	H 	0.3122	0.8599	0.1917	0.07
Mof_C 	C 	0.162	0.2567	0.1893	0.116
Mof_H 	H 	0.1169	0.2023	0.159	-0.028
Mof_C 	C 	0.387	0.1521	0.6018	-0.126
Mof_H 	H 	0.3639	0.0913	0.5705	0.078
Mof_C 	C 	0.3094	0.1702	0.2802	0.081
Mof_H 	H 	0.3307	0.2284	0.2868	-0.046
Mof_C 	C 	0.3705	0.121	0.2636	-0.146
Mof_H 	H 	0.4311	0.1464	0.2584	0.085
Mof_C 	C 	0.3051	0.4047	0.5251	0.109
Mof_H 	H 	0.353	0.4569	0.5558	-0.022
Mof_C 	C 	0.1973	0.2834	0.4857	0.103
Mof_H 	H 	0.1539	0.2329	0.4836	-0.009
Mof_C 	C 	0.561	0.0974	0.9494	-0.118
Mof_H 	H 	0.5866	0.1589	0.9698	0.072
Mof_C 	C 	0.5278	0.7735	0.8396	-0.106
Mof_H 	H 	0.5905	0.8068	0.8604	0.073
Mof_C 	C 	0.3438	0.0354	0.2545	0.07
Mof_C 	C 	0.3203	0.6969	0.1637	-0.128
Mof_H 	H 	0.2766	0.7264	0.1806	0.072
Mof_C 	C 	0.6196	0.0438	0.931	0.072
Mof_C 	C 	0.5667	0.9743	0.2459	0.076
Mof_C 	C 	0.9203	0.147	0.9778	-0.126
Mof_C 	C 	0.6961	0.116	0.622	0.074
Mof_C 	C 	0.4284	0.1987	0.9731	-0.131
Mof_H 	H 	0.4882	0.2238	0.9663	0.08
Mof_C 	C 	0.4762	0.7006	0.1449	-0.117
Mof_H 	H 	0.538	0.7316	0.1467	0.078
Mof_C 	C 	0.8662	0.2047	0.9891	0.047
Mof_H 	H 	0.8965	0.2652	0.007	0.025
Mof_C 	C 	0.4015	0.7562	0.5011	0.044
Mof_H 	H 	0.3391	0.7252	0.4778	0.021
Mof_C 	C 	0.5038	0.6834	0.8014	0.035
Mof_H 	H 	0.5498	0.6557	0.7969	0.021
Mof_C 	C 	0.7796	0.0286	0.9264	-0.126
Mof_H 	H 	0.7505	0.9675	0.9	0.081
Mof_C 	C 	0.3279	0.2033	0.6116	0.058
Mof_H 	H 	0.2656	0.1758	0.5874	0.005
Mof_C 	C 	0.2934	0.6072	0.1372	0.059
Mof_H 	H 	0.2309	0.5764	0.1337	0.019
Mof_C 	C 	0.4484	0.6076	0.1202	0.05
Mof_H 	H 	0.4927	0.5779	0.1072	0.022
Mof_C 	C 	0.7696	0.173	0.9743	-0.12
Mof_H 	H 	0.7347	0.2119	0.9842	0.071
Mof_C 	C 	0.309	0.0783	0.968	-0.135
Mof_H 	H 	0.2855	0.019	0.9583	0.082
Mof_C 	C 	0.0967	0.2484	0.6369	0.338
Mof_C 	C 	0.3995	0.1115	0.9583	0.066
Mof_C 	C 	0.3567	0.5609	0.1153	-0.136
Mof_C 	C 	0.8751	0.0595	0.9452	0.058
Mof_H 	H 	0.909	0.0197	0.9353	0.023
Mof_C 	C 	0.33	0.4665	0.0965	0.36
Mof_C 	C 	0.0264	0.1853	0.0066	0.378
Mof_C 	C 	0.8659	0.0975	0.312	-0.118
Mof_C 	C 	0.81	0.137	0.2897	0.037
Mof_H 	H 	0.8376	0.1899	0.2875	0.025
Mof_C 	C 	0.7129	0.0973	0.2708	-0.108
Mof_H 	H 	0.6755	0.1237	0.2559	0.065
Mof_C 	C 	0.6718	0.0182	0.2741	0.039
Mof_C 	C 	0.7277	0.9787	0.2964	-0.102
Mof_H 	H 	0.7001	0.9258	0.2986	0.073
Mof_C 	C 	0.8247	0.0184	0.3153	0.032
Mof_H 	H 	0.8621	0.9919	0.3302	0.033
Mof_O 	O 	0.0073	0.1936	0.3076	-0.506
Mof_O 	O 	0.0249	0.1133	0.3588	-0.331
Mof_C 	C 	0.9704	0.1355	0.3233	0.356
Mof_C 	C 	0.9448	0.1243	0.5962	0.025
Mof_H 	H 	0.9767	0.0849	0.5708	0.043
Mof_C 	C 	0.8483	0.0932	0.5928	-0.093
Mof_H 	H 	0.8156	0.033	0.5651	0.074
Mof_C 	C 	0.8007	0.1522	0.6307	0.03
Mof_C 	C 	0.8496	0.2422	0.672	-0.098
Mof_H 	H 	0.8178	0.2816	0.6974	0.059
Mof_C 	C 	0.9461	0.2733	0.6755	0.024
Mof_H 	H 	0.9789	0.3336	0.7031	0.034
Mof_C 	C 	0.9937	0.2144	0.6375	-0.099
_end
