data_functionalizedCrystal
_audit_creation_method	'EQeq! by Chris Wilmer'
_symmetry_space_group_name_H-M	'P1'
_symmetry_Int_Tables_number	1
_symmetry_cell_setting	triclinic
loop_
_symmetry_equiv_pos_as_xyz
  x,y,z
_cell_length_a	17.3175
_cell_length_b	17.3175
_cell_length_c	26.33
_cell_angle_alpha	94.4883
_cell_angle_beta	94.4883
_cell_angle_gamma	110.217
loop_
_atom_site_label
_atom_site_type_symbol
_atom_site_fract_x
_atom_site_fract_y
_atom_site_fract_z
_atom_site_charge
Mof_In	In	0.36736	0.8613	0.88417	2.518
Mof_In	In	0.8613	0.36736	0.38417	2.518
Mof_H 	H 	0.2129	0.7667	0.0234	0.034
Mof_H 	H 	0.0972	0.686	0.0594	0.057
Mof_H 	H 	0.9664	0.6304	0.9202	0.059
Mof_H 	H 	0.0797	0.7119	0.885	0.043
Mof_H 	H 	0.8106	0.3446	0.2085	0.041
Mof_H 	H 	0.801	0.3782	0.1258	0.075
Mof_H 	H 	0.9931	0.5929	0.1664	0.061
Mof_H 	H 	0.9997	0.5617	0.2498	0.03
Mof_H 	H 	0.383	0.1416	0.8706	0.043
Mof_H 	H 	0.4544	0.2848	0.8849	0.057
Mof_H 	H 	0.6029	0.2507	0.0006	0.057
Mof_H 	H 	0.534	0.108	0.9853	0.038
Mof_H 	H 	0.576	0.7712	0.9542	0.033
Mof_H 	H 	0.6361	0.6755	0.9749	0.057
Mof_H 	H 	0.4517	0.4927	0.8853	0.057
Mof_H 	H 	0.389	0.5854	0.8653	0.036
Mof_H 	H 	0.763	0.4506	0.0699	0.07
Mof_H 	H 	0.8589	0.5885	0.9568	0.063
Mof_H 	H 	0.009	0.58	0.0811	0.062
Mof_H 	H 	0.7101	0.5995	0.9685	0.066
Mof_H 	H 	0.6914	0.3646	0.9856	0.07
Mof_H 	H 	0.494	0.4108	0.9222	0.065
Mof_H 	H 	0.7667	0.2129	0.5234	0.032
Mof_H 	H 	0.686	0.0972	0.5594	0.056
Mof_H 	H 	0.6304	0.9664	0.4202	0.059
Mof_H 	H 	0.7119	0.0797	0.385	0.042
Mof_H 	H 	0.3446	0.8106	0.7085	0.04
Mof_H 	H 	0.3782	0.801	0.6258	0.074
Mof_H 	H 	0.5929	0.9931	0.6664	0.06
Mof_H 	H 	0.5617	0.9997	0.7498	0.029
Mof_H 	H 	0.1416	0.383	0.3706	0.042
Mof_H 	H 	0.2848	0.4544	0.3849	0.056
Mof_H 	H 	0.2507	0.6029	0.5006	0.055
Mof_H 	H 	0.108	0.534	0.4853	0.038
Mof_H 	H 	0.7712	0.576	0.4542	0.033
Mof_H 	H 	0.6755	0.6361	0.4749	0.057
Mof_H 	H 	0.4927	0.4517	0.3853	0.057
Mof_H 	H 	0.5854	0.389	0.3653	0.037
Mof_H 	H 	0.4506	0.763	0.5699	0.07
Mof_H 	H 	0.5885	0.8589	0.4568	0.063
Mof_H 	H 	0.58	0.009	0.5811	0.062
Mof_H 	H 	0.5995	0.7101	0.4685	0.066
Mof_H 	H 	0.3646	0.6914	0.4856	0.071
Mof_H 	H 	0.4108	0.494	0.4222	0.065
Mof_C 	C 	0.15881	0.74677	0.95059	-0.08
Mof_C 	C 	0.16244	0.73868	0.00203	0.014
Mof_C 	C 	0.09358	0.69024	0.02365	-0.091
Mof_C 	C 	0.01899	0.64777	0.99272	0.034
Mof_C 	C 	0.01672	0.65786	0.94181	-0.088
Mof_C 	C 	0.08424	0.7062	0.92057	0.016
Mof_C 	C 	0.9042	0.45138	0.23854	-0.099
Mof_C 	C 	0.84663	0.39619	0.20029	0.038
Mof_C 	C 	0.84169	0.41579	0.15104	-0.096
Mof_C 	C 	0.8954	0.48988	0.13734	0.036
Mof_C 	C 	0.95469	0.54283	0.1751	-0.097
Mof_C 	C 	0.95886	0.52424	0.22466	0.026
Mof_C 	C 	0.45409	0.11105	0.92554	-0.075
Mof_C 	C 	0.42885	0.16377	0.89632	0.006
Mof_C 	C 	0.47112	0.24902	0.90501	-0.082
Mof_C 	C 	0.53797	0.28213	0.94312	0.021
Mof_C 	C 	0.55934	0.22868	0.9734	-0.081
Mof_C 	C 	0.5181	0.1437	0.96453	0.012
Mof_C 	C 	0.4785	0.68882	0.90564	-0.089
Mof_C 	C 	0.55524	0.57504	0.92936	0.025
Mof_C 	C 	0.5517	0.7151	0.9395	0.02
Mof_C 	C 	0.5875	0.6579	0.9511	-0.085
Mof_C 	C 	0.4779	0.5493	0.8982	-0.084
Mof_C 	C 	0.4404	0.604	0.8864	0.018
Mof_C 	C 	0.88725	0.51359	0.08439	0.041
Mof_C 	C 	0.80926	0.48744	0.05632	-0.101
Mof_C 	C 	0.79773	0.51441	0.00842	0.036
Mof_C 	C 	0.86635	0.56839	0.98865	-0.102
Mof_C 	C 	0.94572	0.59304	0.01531	0.039
Mof_C 	C 	0.95532	0.56444	0.06304	-0.1
Mof_C 	C 	0.59499	0.51541	0.94335	0.047
Mof_C 	C 	0.67765	0.54215	0.96496	-0.109
Mof_C 	C 	0.71298	0.48638	0.98121	0.046
Mof_C 	C 	0.66712	0.40264	0.97437	-0.112
Mof_C 	C 	0.58622	0.37342	0.95144	0.05
Mof_C 	C 	0.55011	0.43039	0.93682	-0.107
Mof_C 	C 	0.23352	0.79486	0.92755	0.308
Mof_C 	C 	0.90575	0.43465	0.29369	0.351
Mof_C 	C 	0.41349	0.01905	0.91376	0.308
Mof_C 	C 	0.43666	0.7483	0.89509	0.336
Mof_C 	C 	0.74677	0.15881	0.45059	-0.082
Mof_C 	C 	0.73868	0.16244	0.50203	0.016
Mof_C 	C 	0.69024	0.09358	0.52365	-0.09
Mof_C 	C 	0.64777	0.01899	0.49272	0.033
Mof_C 	C 	0.65786	0.01672	0.44181	-0.089
Mof_C 	C 	0.7062	0.08424	0.42057	0.017
Mof_C 	C 	0.45138	0.9042	0.73854	-0.098
Mof_C 	C 	0.39619	0.84663	0.70029	0.038
Mof_C 	C 	0.41579	0.84169	0.65104	-0.096
Mof_C 	C 	0.48988	0.8954	0.63734	0.036
Mof_C 	C 	0.54283	0.95469	0.6751	-0.097
Mof_C 	C 	0.52424	0.95886	0.72466	0.026
Mof_C 	C 	0.11105	0.45409	0.42554	-0.075
Mof_C 	C 	0.16377	0.42885	0.39632	0.006
Mof_C 	C 	0.24902	0.47112	0.40501	-0.082
Mof_C 	C 	0.28213	0.53797	0.44312	0.02
Mof_C 	C 	0.22868	0.55934	0.4734	-0.079
Mof_C 	C 	0.1437	0.5181	0.46453	0.011
Mof_C 	C 	0.68882	0.4785	0.40564	-0.089
Mof_C 	C 	0.57504	0.55524	0.42936	0.025
Mof_C 	C 	0.7151	0.5517	0.4395	0.02
Mof_C 	C 	0.6579	0.5875	0.4511	-0.085
Mof_C 	C 	0.5493	0.4779	0.3982	-0.084
Mof_C 	C 	0.604	0.4404	0.3864	0.018
Mof_C 	C 	0.51359	0.88725	0.58439	0.041
Mof_C 	C 	0.48744	0.80926	0.55632	-0.101
Mof_C 	C 	0.51441	0.79773	0.50842	0.034
Mof_C 	C 	0.56839	0.86635	0.48865	-0.1
Mof_C 	C 	0.59304	0.94572	0.51531	0.039
Mof_C 	C 	0.56444	0.95532	0.56304	-0.1
Mof_C 	C 	0.51541	0.59499	0.44335	0.048
Mof_C 	C 	0.54215	0.67765	0.46496	-0.11
Mof_C 	C 	0.48638	0.71298	0.48121	0.047
Mof_C 	C 	0.40264	0.66712	0.47437	-0.113
Mof_C 	C 	0.37342	0.58622	0.45144	0.051
Mof_C 	C 	0.43039	0.55011	0.43682	-0.108
Mof_C 	C 	0.79486	0.23352	0.42755	0.308
Mof_C 	C 	0.43465	0.90575	0.79369	0.351
Mof_C 	C 	0.01905	0.41349	0.41376	0.31
Mof_C 	C 	0.7483	0.43666	0.39509	0.336
Mof_O 	O 	0.22999	0.80171	0.87961	-0.519
Mof_O 	O 	0.30305	0.82693	0.95531	-0.515
Mof_O 	O 	0.85127	0.36689	0.30375	-0.599
Mof_O 	O 	0.95724	0.4851	0.32666	-0.371
Mof_O 	O 	0.34843	0.98695	0.88308	-0.488
Mof_O 	O 	0.4495	0.97396	0.93336	-0.53
Mof_O 	O 	0.47788	0.82536	0.90154	-0.536
Mof_O 	O 	0.36081	0.72383	0.88097	-0.49
Mof_O 	O 	0.80171	0.22999	0.37961	-0.519
Mof_O 	O 	0.82693	0.30305	0.45531	-0.516
Mof_O 	O 	0.36689	0.85127	0.80375	-0.599
Mof_O 	O 	0.4851	0.95724	0.82666	-0.37
Mof_O 	O 	0.98695	0.34843	0.38308	-0.49
Mof_O 	O 	0.97396	0.4495	0.43336	-0.531
Mof_O 	O 	0.82536	0.47788	0.40154	-0.536
Mof_O 	O 	0.72383	0.36081	0.38097	-0.49
Mof_In	In	0.1387	0.63264	0.61583	2.517
Mof_In	In	0.63264	0.1387	0.11583	2.517
Mof_H 	H 	0.2333	0.7871	0.4766	0.032
Mof_H 	H 	0.314	0.9028	0.4406	0.056
Mof_H 	H 	0.3696	0.0336	0.5798	0.059
Mof_H 	H 	0.2881	0.9203	0.615	0.042
Mof_H 	H 	0.6554	0.1894	0.2915	0.04
Mof_H 	H 	0.6218	0.199	0.3742	0.074
Mof_H 	H 	0.4071	0.0069	0.3336	0.06
Mof_H 	H 	0.4383	0.0003	0.2502	0.029
Mof_H 	H 	0.8584	0.617	0.6294	0.042
Mof_H 	H 	0.7152	0.5456	0.6151	0.056
Mof_H 	H 	0.7493	0.3971	0.4994	0.055
Mof_H 	H 	0.892	0.466	0.5147	0.038
Mof_H 	H 	0.2288	0.424	0.5458	0.033
Mof_H 	H 	0.3245	0.3639	0.5251	0.057
Mof_H 	H 	0.5073	0.5483	0.6147	0.057
Mof_H 	H 	0.4146	0.611	0.6347	0.037
Mof_H 	H 	0.5494	0.237	0.4301	0.07
Mof_H 	H 	0.4115	0.1411	0.5432	0.063
Mof_H 	H 	0.42	0.991	0.4189	0.062
Mof_H 	H 	0.4005	0.2899	0.5315	0.066
Mof_H 	H 	0.6354	0.3086	0.5144	0.071
Mof_H 	H 	0.5892	0.506	0.5778	0.065
Mof_H 	H 	0.7871	0.2333	0.9766	0.033
Mof_H 	H 	0.9028	0.314	0.9406	0.056
Mof_H 	H 	0.0336	0.3696	0.0798	0.058
Mof_H 	H 	0.9203	0.2881	0.115	0.042
Mof_H 	H 	0.1894	0.6554	0.7915	0.04
Mof_H 	H 	0.199	0.6218	0.8742	0.074
Mof_H 	H 	0.0069	0.4071	0.8336	0.06
Mof_H 	H 	0.0003	0.4383	0.7502	0.029
Mof_H 	H 	0.617	0.8584	0.1294	0.042
Mof_H 	H 	0.5456	0.7152	0.1151	0.056
Mof_H 	H 	0.3971	0.7493	0.9994	0.057
Mof_H 	H 	0.466	0.892	0.0147	0.038
Mof_H 	H 	0.424	0.2288	0.0458	0.033
Mof_H 	H 	0.3639	0.3245	0.0251	0.057
Mof_H 	H 	0.5483	0.5073	0.1147	0.057
Mof_H 	H 	0.611	0.4146	0.1347	0.036
Mof_H 	H 	0.237	0.5494	0.9301	0.07
Mof_H 	H 	0.1411	0.4115	0.0432	0.063
Mof_H 	H 	0.991	0.42	0.9189	0.062
Mof_H 	H 	0.2899	0.4005	0.0315	0.066
Mof_H 	H 	0.3086	0.6354	0.0144	0.07
Mof_H 	H 	0.506	0.5892	0.0778	0.065
Mof_C 	C 	0.25323	0.84119	0.54941	-0.082
Mof_C 	C 	0.26132	0.83756	0.49797	0.016
Mof_C 	C 	0.30976	0.90642	0.47635	-0.09
Mof_C 	C 	0.35223	0.98101	0.50728	0.033
Mof_C 	C 	0.34214	0.98328	0.55819	-0.089
Mof_C 	C 	0.2938	0.91576	0.57943	0.017
Mof_C 	C 	0.54862	0.0958	0.26146	-0.098
Mof_C 	C 	0.60381	0.15337	0.29971	0.038
Mof_C 	C 	0.58421	0.15831	0.34896	-0.096
Mof_C 	C 	0.51012	0.1046	0.36266	0.036
Mof_C 	C 	0.45717	0.04531	0.3249	-0.097
Mof_C 	C 	0.47576	0.04114	0.27534	0.026
Mof_C 	C 	0.88895	0.54591	0.57446	-0.075
Mof_C 	C 	0.83623	0.57115	0.60368	0.006
Mof_C 	C 	0.75098	0.52888	0.59499	-0.082
Mof_C 	C 	0.71787	0.46203	0.55688	0.02
Mof_C 	C 	0.77132	0.44066	0.5266	-0.079
Mof_C 	C 	0.8563	0.4819	0.53547	0.011
Mof_C 	C 	0.31118	0.5215	0.59436	-0.089
Mof_C 	C 	0.42496	0.44476	0.57064	0.025
Mof_C 	C 	0.2849	0.4483	0.5605	0.02
Mof_C 	C 	0.3421	0.4125	0.5489	-0.085
Mof_C 	C 	0.4507	0.5221	0.6018	-0.084
Mof_C 	C 	0.396	0.5596	0.6136	0.018
Mof_C 	C 	0.48641	0.11275	0.41561	0.041
Mof_C 	C 	0.51256	0.19074	0.44368	-0.101
Mof_C 	C 	0.48559	0.20227	0.49158	0.034
Mof_C 	C 	0.43161	0.13365	0.51135	-0.1
Mof_C 	C 	0.40696	0.05428	0.48469	0.039
Mof_C 	C 	0.43556	0.04468	0.43696	-0.1
Mof_C 	C 	0.48459	0.40501	0.55665	0.048
Mof_C 	C 	0.45785	0.32235	0.53504	-0.11
Mof_C 	C 	0.51362	0.28702	0.51879	0.047
Mof_C 	C 	0.59736	0.33288	0.52563	-0.113
Mof_C 	C 	0.62658	0.41378	0.54856	0.051
Mof_C 	C 	0.56961	0.44989	0.56318	-0.108
Mof_C 	C 	0.20514	0.76648	0.57245	0.308
Mof_C 	C 	0.56535	0.09425	0.20631	0.351
Mof_C 	C 	0.98095	0.58651	0.58624	0.31
Mof_C 	C 	0.2517	0.56334	0.60491	0.336
Mof_C 	C 	0.84119	0.25323	0.04941	-0.08
Mof_C 	C 	0.83756	0.26132	0.99797	0.014
Mof_C 	C 	0.90642	0.30976	0.97635	-0.091
Mof_C 	C 	0.98101	0.35223	0.00728	0.034
Mof_C 	C 	0.98328	0.34214	0.05819	-0.088
Mof_C 	C 	0.91576	0.2938	0.07943	0.016
Mof_C 	C 	0.0958	0.54862	0.76146	-0.099
Mof_C 	C 	0.15337	0.60381	0.79971	0.038
Mof_C 	C 	0.15831	0.58421	0.84896	-0.096
Mof_C 	C 	0.1046	0.51012	0.86266	0.036
Mof_C 	C 	0.04531	0.45717	0.8249	-0.097
Mof_C 	C 	0.04114	0.47576	0.77534	0.026
Mof_C 	C 	0.54591	0.88895	0.07446	-0.075
Mof_C 	C 	0.57115	0.83623	0.10368	0.006
Mof_C 	C 	0.52888	0.75098	0.09499	-0.082
Mof_C 	C 	0.46203	0.71787	0.05688	0.021
Mof_C 	C 	0.44066	0.77132	0.0266	-0.081
Mof_C 	C 	0.4819	0.8563	0.03547	0.012
Mof_C 	C 	0.5215	0.31118	0.09436	-0.089
Mof_C 	C 	0.44476	0.42496	0.07064	0.025
Mof_C 	C 	0.4483	0.2849	0.0605	0.02
Mof_C 	C 	0.4125	0.3421	0.0489	-0.085
Mof_C 	C 	0.5221	0.4507	0.1018	-0.084
Mof_C 	C 	0.5596	0.396	0.1136	0.018
Mof_C 	C 	0.11275	0.48641	0.91561	0.041
Mof_C 	C 	0.19074	0.51256	0.94368	-0.101
Mof_C 	C 	0.20227	0.48559	0.99158	0.036
Mof_C 	C 	0.13365	0.43161	0.01135	-0.102
Mof_C 	C 	0.05428	0.40696	0.98469	0.039
Mof_C 	C 	0.04468	0.43556	0.93696	-0.1
Mof_C 	C 	0.40501	0.48459	0.05665	0.047
Mof_C 	C 	0.32235	0.45785	0.03504	-0.109
Mof_C 	C 	0.28702	0.51362	0.01879	0.046
Mof_C 	C 	0.33288	0.59736	0.02563	-0.112
Mof_C 	C 	0.41378	0.62658	0.04856	0.05
Mof_C 	C 	0.44989	0.56961	0.06318	-0.107
Mof_C 	C 	0.76648	0.20514	0.07245	0.308
Mof_C 	C 	0.09425	0.56535	0.70631	0.351
Mof_C 	C 	0.58651	0.98095	0.08624	0.308
Mof_C 	C 	0.56334	0.2517	0.10491	0.336
Mof_O 	O 	0.19829	0.77001	0.62039	-0.519
Mof_O 	O 	0.17307	0.69695	0.54469	-0.516
Mof_O 	O 	0.63311	0.14873	0.19625	-0.599
Mof_O 	O 	0.5149	0.04276	0.17334	-0.37
Mof_O 	O 	0.01305	0.65157	0.61692	-0.49
Mof_O 	O 	0.02604	0.5505	0.56664	-0.531
Mof_O 	O 	0.17464	0.52212	0.59846	-0.536
Mof_O 	O 	0.27617	0.63919	0.61903	-0.49
Mof_O 	O 	0.77001	0.19829	0.12039	-0.519
Mof_O 	O 	0.69695	0.17307	0.04469	-0.515
Mof_O 	O 	0.14873	0.63311	0.69625	-0.599
Mof_O 	O 	0.04276	0.5149	0.67334	-0.371
Mof_O 	O 	0.65157	0.01305	0.11692	-0.488
Mof_O 	O 	0.5505	0.02604	0.06664	-0.53
Mof_O 	O 	0.52212	0.17464	0.09846	-0.536
Mof_O 	O 	0.63919	0.27617	0.11903	-0.49
Mof_H 	H 	0.6316	0.9538	0.8836	0.108
Mof_H 	H 	0.562	0.9748	0.9032	0.126
Mof_H 	H 	0.6251	0.9273	0.9678	0.103
Mof_H 	H 	0.7105	0.9995	0.9621	0.095
Mof_H 	H 	0.6358	0.022	0.9833	0.107
Mof_H 	H 	0.6369	0.0833	0.8585	0.112
Mof_H 	H 	0.6453	0.1169	0.9178	0.114
Mof_H 	H 	0.7187	0.0937	0.8953	0.103
Mof_C 	C 	0.65025	0.98415	0.95936	-0.226
Mof_C 	C 	0.6585	0.0789	0.8933	-0.26
Mof_N 	N 	0.6187	0.98956	0.90616	-0.169
Mof_H 	H 	0.0462	0.3684	0.6164	0.108
Mof_H 	H 	0.0252	0.438	0.5968	0.125
Mof_H 	H 	0.0727	0.3749	0.5322	0.104
Mof_H 	H 	0.0005	0.2895	0.5379	0.096
Mof_H 	H 	0.978	0.3642	0.5167	0.11
Mof_H 	H 	0.9167	0.3631	0.6415	0.112
Mof_H 	H 	0.8831	0.3547	0.5822	0.114
Mof_H 	H 	0.9063	0.2813	0.6047	0.103
Mof_C 	C 	0.01585	0.34975	0.54064	-0.23
Mof_C 	C 	0.9211	0.3415	0.6067	-0.259
Mof_N 	N 	0.01044	0.3813	0.59384	-0.168
Mof_H 	H 	0.3684	0.0462	0.1164	0.108
Mof_H 	H 	0.438	0.0252	0.0968	0.126
Mof_H 	H 	0.3749	0.0727	0.0322	0.103
Mof_H 	H 	0.2895	0.0005	0.0379	0.095
Mof_H 	H 	0.3642	0.978	0.0167	0.107
Mof_H 	H 	0.3631	0.9167	0.1415	0.112
Mof_H 	H 	0.3547	0.8831	0.0822	0.114
Mof_H 	H 	0.2813	0.9063	0.1047	0.103
Mof_C 	C 	0.34975	0.01585	0.04064	-0.226
Mof_C 	C 	0.3415	0.9211	0.1067	-0.26
Mof_N 	N 	0.3813	0.01044	0.09384	-0.169
Mof_H 	H 	0.9538	0.6316	0.3836	0.108
Mof_H 	H 	0.9748	0.562	0.4032	0.125
Mof_H 	H 	0.9273	0.6251	0.4678	0.104
Mof_H 	H 	0.9995	0.7105	0.4621	0.096
Mof_H 	H 	0.022	0.6358	0.4833	0.11
Mof_H 	H 	0.0833	0.6369	0.3585	0.112
Mof_H 	H 	0.1169	0.6453	0.4178	0.114
Mof_H 	H 	0.0937	0.7187	0.3953	0.103
Mof_C 	C 	0.98415	0.65025	0.45936	-0.23
Mof_C 	C 	0.0789	0.6585	0.3933	-0.259
Mof_N 	N 	0.98956	0.6187	0.40616	-0.168
_end
