data_functionalizedCrystal
_audit_creation_method	'EQeq! by Chris Wilmer'
_symmetry_space_group_name_H-M	'P1'
_symmetry_Int_Tables_number	1
_symmetry_cell_setting	triclinic
loop_
_symmetry_equiv_pos_as_xyz
  x,y,z
_cell_length_a	17.4393
_cell_length_b	10.1483
_cell_length_c	17.5771
_cell_angle_alpha	90
_cell_angle_beta	90
_cell_angle_gamma	90
loop_
_atom_site_label
_atom_site_type_symbol
_atom_site_fract_x
_atom_site_fract_y
_atom_site_fract_z
_atom_site_charge
Mof_Y 	Y 	0.82157	0.8807	0.27247	1.595
Mof_Y 	Y 	0.5211	0.84112	0.25859	1.557
Mof_O 	O 	0.9217	0.8952	0.1953	-0.501
Mof_O 	O 	0.0855	0.0713	0.8633	-0.458
Mof_O 	O 	0.7476	0.9503	0.1684	-0.446
Mof_O 	O 	0.6979	0.2204	0.8681	-0.412
Mof_O 	O 	0.7156	0.9368	0.3327	-0.503
Mof_C 	C 	0.6791	0.9329	0.151	0.451
Mof_O 	O 	0.6301	0.8804	0.1945	-0.468
Mof_O 	O 	0.5934	0.9107	0.3648	-0.452
Mof_C 	C 	0.6616	0.941	0.3782	0.486
Mof_C 	C 	0.6799	0.9957	0.4546	-0.157
Mof_C 	C 	0.7479	0.0401	0.481	0.032
Mof_H 	H 	0.7929	0.0344	0.4528	0.017
Mof_C 	C 	0.6515	0.9745	0.0758	-0.142
Mof_S 	S 	0.70226	0.07861	0.01865	0.063
Mof_O 	O 	0.5742	0.1163	0.6703	-0.457
Mof_C 	C 	0.6393	0.1524	0.8788	0.428
Mof_O 	O 	0.6912	0.1905	0.7014	-0.431
Mof_O 	O 	0.5832	0.1474	0.8337	-0.489
Mof_C 	C 	0.6444	0.1361	0.6568	0.427
Mof_S 	S 	0.61029	0.01597	0.5215	0.075
Mof_S 	S 	0.04062	0.96204	0.01107	0.061
Mof_O 	O 	0.0361	0.8239	0.1627	-0.411
Mof_C 	C 	0.5838	0.9364	0.0416	-0.015
Mof_H 	H 	0.5486	0.8792	0.0637	0.038
Mof_C 	C 	0.9676	0.9552	0.0756	-0.129
Mof_C 	C 	0.5743	0.9938	0.9699	0.014
Mof_H 	H 	0.532	0.9782	0.9389	0.028
Mof_C 	C 	0.6329	0.0742	0.9501	-0.123
Mof_C 	C 	0.9771	0.887	0.1492	0.44
Mof_C 	C 	0.9034	0.0178	0.0502	-0.02
Mof_H 	H 	0.8582	0.0245	0.0779	0.043
Mof_C 	C 	0.6731	0.0884	0.5827	-0.121
Mof_C 	C 	0.7457	0.0949	0.5537	-0.021
Mof_H 	H 	0.7877	0.1308	0.5789	0.053
Mof_O 	O 	0.97	0.1519	0.8297	-0.433
Mof_C 	C 	0.9839	0.05	0.9487	-0.12
Mof_C 	C 	0.9137	0.0705	0.9779	0.018
Mof_H 	H 	0.8754	0.1158	0.952	0.042
Mof_C 	C 	0.0159	0.0938	0.8743	0.432
Mof_Y 	Y 	0.17843	0.1193	0.77247	1.598
Mof_Y 	Y 	0.4789	0.15888	0.75859	1.559
Mof_O 	O 	0.0783	0.1048	0.6953	-0.502
Mof_O 	O 	0.9145	0.9287	0.3633	-0.458
Mof_O 	O 	0.2524	0.0497	0.6684	-0.446
Mof_O 	O 	0.3021	0.7796	0.3681	-0.414
Mof_O 	O 	0.2844	0.0632	0.8327	-0.502
Mof_C 	C 	0.3209	0.0671	0.651	0.456
Mof_O 	O 	0.3699	0.1196	0.6945	-0.469
Mof_O 	O 	0.4066	0.0893	0.8648	-0.45
Mof_C 	C 	0.3384	0.059	0.8782	0.487
Mof_C 	C 	0.3201	0.0043	0.9546	-0.154
Mof_C 	C 	0.2521	0.9599	0.981	0.052
Mof_H 	H 	0.2071	0.9656	0.9528	0.014
Mof_C 	C 	0.3485	0.0255	0.5758	-0.151
Mof_S 	S 	0.29774	0.92139	0.51865	0.079
Mof_O 	O 	0.4258	0.8837	0.1703	-0.456
Mof_C 	C 	0.3607	0.8476	0.3788	0.428
Mof_O 	O 	0.3088	0.8095	0.2014	-0.43
Mof_O 	O 	0.4168	0.8526	0.3337	-0.489
Mof_C 	C 	0.3556	0.8639	0.1568	0.423
Mof_S 	S 	0.38971	0.98403	0.0215	0.062
Mof_S 	S 	0.95938	0.03796	0.51107	0.073
Mof_O 	O 	0.9639	0.1761	0.6627	-0.412
Mof_C 	C 	0.4162	0.0636	0.5416	0.006
Mof_H 	H 	0.4514	0.1208	0.5637	0.032
Mof_C 	C 	0.0324	0.0448	0.5756	-0.14
Mof_C 	C 	0.4257	0.0062	0.4699	-0.004
Mof_H 	H 	0.468	0.0218	0.4389	0.032
Mof_C 	C 	0.3671	0.9258	0.4501	-0.128
Mof_C 	C 	0.0229	0.113	0.6492	0.445
Mof_C 	C 	0.0966	0.9822	0.5502	0.007
Mof_H 	H 	0.1418	0.9755	0.5779	0.035
Mof_C 	C 	0.3269	0.9116	0.0827	-0.113
Mof_C 	C 	0.2543	0.9051	0.0537	-0.043
Mof_H 	H 	0.2123	0.8692	0.0789	0.06
Mof_O 	O 	0.03	0.8481	0.3297	-0.432
Mof_C 	C 	0.0161	0.95	0.4487	-0.12
Mof_C 	C 	0.0863	0.9295	0.4779	-0.005
Mof_H 	H 	0.1246	0.8842	0.452	0.047
Mof_C 	C 	0.9841	0.9062	0.3743	0.428
Mof_Y 	Y 	0.32157	0.6193	0.27247	1.596
Mof_Y 	Y 	0.0211	0.65888	0.25859	1.559
Mof_O 	O 	0.4217	0.6048	0.1953	-0.5
Mof_O 	O 	0.5855	0.4287	0.8633	-0.456
Mof_O 	O 	0.2476	0.5497	0.1684	-0.445
Mof_O 	O 	0.1979	0.2796	0.8681	-0.412
Mof_O 	O 	0.2156	0.5632	0.3327	-0.502
Mof_C 	C 	0.1791	0.5671	0.151	0.452
Mof_O 	O 	0.1301	0.6196	0.1945	-0.468
Mof_O 	O 	0.0934	0.5893	0.3648	-0.452
Mof_C 	C 	0.1616	0.559	0.3782	0.486
Mof_C 	C 	0.1799	0.5043	0.4546	-0.158
Mof_C 	C 	0.2479	0.4599	0.481	0.033
Mof_H 	H 	0.2929	0.4656	0.4528	0.017
Mof_C 	C 	0.1515	0.5255	0.0758	-0.142
Mof_S 	S 	0.20226	0.42139	0.01865	0.063
Mof_O 	O 	0.0742	0.3837	0.6703	-0.457
Mof_C 	C 	0.1393	0.3476	0.8788	0.429
Mof_O 	O 	0.1912	0.3095	0.7014	-0.431
Mof_O 	O 	0.0832	0.3526	0.8337	-0.489
Mof_C 	C 	0.1444	0.3639	0.6568	0.427
Mof_S 	S 	0.11029	0.48403	0.5215	0.076
Mof_S 	S 	0.54062	0.53796	0.01107	0.059
Mof_O 	O 	0.5361	0.6761	0.1627	-0.411
Mof_C 	C 	0.0838	0.5636	0.0416	-0.018
Mof_H 	H 	0.0486	0.6208	0.0637	0.039
Mof_C 	C 	0.4676	0.5448	0.0756	-0.129
Mof_C 	C 	0.0743	0.5062	0.9699	0.018
Mof_H 	H 	0.032	0.5218	0.9389	0.028
Mof_C 	C 	0.1329	0.4258	0.9501	-0.124
Mof_C 	C 	0.4771	0.613	0.1492	0.44
Mof_C 	C 	0.4034	0.4822	0.0502	-0.02
Mof_H 	H 	0.3582	0.4755	0.0779	0.043
Mof_C 	C 	0.1731	0.4116	0.5827	-0.121
Mof_C 	C 	0.2457	0.4051	0.5537	-0.021
Mof_H 	H 	0.2877	0.3692	0.5789	0.053
Mof_O 	O 	0.47	0.3481	0.8297	-0.433
Mof_C 	C 	0.4839	0.45	0.9487	-0.119
Mof_C 	C 	0.4137	0.4295	0.9779	0.018
Mof_H 	H 	0.3754	0.3842	0.952	0.042
Mof_C 	C 	0.5159	0.4062	0.8743	0.431
Mof_Y 	Y 	0.67843	0.3807	0.77247	1.598
Mof_Y 	Y 	0.9789	0.34112	0.75859	1.56
Mof_O 	O 	0.5783	0.3952	0.6953	-0.501
Mof_O 	O 	0.4145	0.5713	0.3633	-0.458
Mof_O 	O 	0.7524	0.4503	0.6684	-0.446
Mof_O 	O 	0.8021	0.7204	0.3681	-0.414
Mof_O 	O 	0.7844	0.4368	0.8327	-0.502
Mof_C 	C 	0.8209	0.4329	0.651	0.456
Mof_O 	O 	0.8699	0.3804	0.6945	-0.469
Mof_O 	O 	0.9066	0.4107	0.8648	-0.45
Mof_C 	C 	0.8384	0.441	0.8782	0.486
Mof_C 	C 	0.8201	0.4957	0.9546	-0.153
Mof_C 	C 	0.7521	0.5401	0.981	0.052
Mof_H 	H 	0.7071	0.5344	0.9528	0.014
Mof_C 	C 	0.8485	0.4745	0.5758	-0.15
Mof_S 	S 	0.79774	0.57861	0.51865	0.079
Mof_O 	O 	0.9258	0.6163	0.1703	-0.456
Mof_C 	C 	0.8607	0.6524	0.3788	0.429
Mof_O 	O 	0.8088	0.6905	0.2014	-0.43
Mof_O 	O 	0.9168	0.6474	0.3337	-0.49
Mof_C 	C 	0.8556	0.6361	0.1568	0.423
Mof_S 	S 	0.88971	0.51597	0.0215	0.061
Mof_S 	S 	0.45938	0.46204	0.51107	0.073
Mof_O 	O 	0.4639	0.3239	0.6627	-0.412
Mof_C 	C 	0.9162	0.4364	0.5416	0.005
Mof_H 	H 	0.9514	0.3792	0.5637	0.032
Mof_C 	C 	0.5324	0.4552	0.5756	-0.138
Mof_C 	C 	0.9257	0.4938	0.4699	-0.002
Mof_H 	H 	0.968	0.4782	0.4389	0.031
Mof_C 	C 	0.8671	0.5742	0.4501	-0.129
Mof_C 	C 	0.5229	0.387	0.6492	0.444
Mof_C 	C 	0.5966	0.5178	0.5502	0.004
Mof_H 	H 	0.6418	0.5245	0.5779	0.036
Mof_C 	C 	0.8269	0.5884	0.0827	-0.113
Mof_C 	C 	0.7543	0.5949	0.0537	-0.043
Mof_H 	H 	0.7123	0.6308	0.0789	0.06
Mof_O 	O 	0.53	0.6519	0.3297	-0.434
Mof_C 	C 	0.5161	0.55	0.4487	-0.123
Mof_C 	C 	0.5863	0.5705	0.4779	-0.003
Mof_H 	H 	0.6246	0.6158	0.452	0.046
Mof_C 	C 	0.4841	0.5938	0.3743	0.43
_end
