data_functionalizedCrystal
_audit_creation_method	'EQeq! by Chris Wilmer'
_symmetry_space_group_name_H-M	'P1'
_symmetry_Int_Tables_number	1
_symmetry_cell_setting	triclinic
loop_
_symmetry_equiv_pos_as_xyz
  x,y,z
_cell_length_a	14.0316
_cell_length_b	15.2564
_cell_length_c	17.7817
_cell_angle_alpha	90
_cell_angle_beta	102.405
_cell_angle_gamma	90
loop_
_atom_site_label
_atom_site_type_symbol
_atom_site_fract_x
_atom_site_fract_y
_atom_site_fract_z
_atom_site_charge
Mof_U 	U 	0.86978	0.166	0.61374	0.01
Mof_U 	U 	0.6148	0.85378	0.89071	0.031
Mof_O 	O 	0.8917	0.0551	0.72164	-0.214
Mof_O 	O 	0.9708	0.1803	0.7449	-0.169
Mof_O 	O 	0.7113	0.9726	0.93993	-0.192
Mof_O 	O 	0.8653	0.949	0.0002	-0.419
Mof_O 	O 	0.0704	0.8083	0.8707	-0.188
Mof_O 	O 	0.0519	0.8838	0.97342	-0.328
Mof_O 	O 	0.7875	0.041	0.56269	-0.182
Mof_O 	O 	0.6344	0.0527	0.4985	-0.368
Mof_O 	O 	0.6105	0.9553	0.77898	-0.191
Mof_O 	O 	0.5143	0.8394	0.76132	-0.19
Mof_O 	O 	0.4601	0.2194	0.6111	-0.211
Mof_O 	O 	0.4487	0.1192	0.52026	-0.403
Mof_N 	N 	0.9396	0.0095	0.88272	-0.093
Mof_N 	N 	0.5589	0.9989	0.61755	-0.069
Mof_C 	C 	0.9866	0.0832	0.851	-0.169
Mof_H 	H 	0.0568	0.0693	0.8572	0.06
Mof_H 	H 	0.9818	0.1358	0.8826	0.129
Mof_C 	C 	0.9466	0.1066	0.7674	0.315
Mof_C 	C 	0.8353	0.0255	0.8795	-0.392
Mof_H 	H 	0.7963	0.0043	0.8297	0.167
Mof_H 	H 	0.8238	0.0893	0.883	0.179
Mof_C 	C 	0.8024	0.9784	0.9457	0.506
Mof_C 	C 	0.9575	0.923	0.8492	-0.21
Mof_H 	H 	0.98	0.9329	0.8007	0.172
Mof_H 	H 	0.8953	0.8901	0.8363	0.148
Mof_C 	C 	0.0328	0.8683	0.9033	0.32
Mof_C 	C 	0.664	0.9833	0.622	-0.156
Mof_H 	H 	0.6762	0.9196	0.6193	0.12
Mof_H 	H 	0.7023	0.0054	0.6717	0.086
Mof_C 	C 	0.6959	0.0298	0.5558	0.295
Mof_C 	C 	0.5117	0.9267	0.6512	-0.272
Mof_H 	H 	0.5185	0.8726	0.6221	0.135
Mof_H 	H 	0.4411	0.9398	0.6427	0.147
Mof_C 	C 	0.5483	0.9072	0.736	0.35
Mof_C 	C 	0.5402	0.0871	0.6485	-0.367
Mof_H 	H 	0.6033	0.1164	0.669	0.167
Mof_H 	H 	0.5065	0.0793	0.6916	0.16
Mof_C 	C 	0.4785	0.1449	0.5877	0.391
Mof_U 	U 	0.13022	0.666	0.88626	0.015
Mof_U 	U 	0.3852	0.35378	0.60929	0.005
Mof_O 	O 	0.1083	0.5551	0.77836	-0.227
Mof_O 	O 	0.0292	0.6803	0.7551	-0.218
Mof_O 	O 	0.2887	0.4726	0.56007	-0.204
Mof_O 	O 	0.1347	0.449	0.4998	-0.393
Mof_O 	O 	0.9296	0.3083	0.6293	-0.208
Mof_O 	O 	0.9481	0.3838	0.52658	-0.384
Mof_O 	O 	0.2125	0.541	0.93731	-0.208
Mof_O 	O 	0.3656	0.5527	0.0015	-0.458
Mof_O 	O 	0.3895	0.4553	0.72102	-0.219
Mof_O 	O 	0.4857	0.3394	0.73868	-0.198
Mof_O 	O 	0.5399	0.7194	0.8889	-0.188
Mof_O 	O 	0.5513	0.6192	0.97974	-0.344
Mof_N 	N 	0.0604	0.5095	0.61728	-0.064
Mof_N 	N 	0.4411	0.4989	0.88245	-0.066
Mof_C 	C 	0.0134	0.5832	0.649	-0.396
Mof_H 	H 	0.9432	0.5693	0.6428	0.214
Mof_H 	H 	0.0182	0.6358	0.6174	0.157
Mof_C 	C 	0.0534	0.6066	0.7326	0.373
Mof_C 	C 	0.1647	0.5255	0.6205	-0.328
Mof_H 	H 	0.2037	0.5043	0.6703	0.167
Mof_H 	H 	0.1762	0.5893	0.617	0.157
Mof_C 	C 	0.1976	0.4784	0.5543	0.379
Mof_C 	C 	0.0425	0.423	0.6508	-0.408
Mof_H 	H 	0.02	0.4329	0.6993	0.175
Mof_H 	H 	0.1047	0.3901	0.6637	0.168
Mof_C 	C 	0.9672	0.3683	0.5967	0.452
Mof_C 	C 	0.336	0.4833	0.878	-0.359
Mof_H 	H 	0.3238	0.4196	0.8807	0.17
Mof_H 	H 	0.2977	0.5054	0.8283	0.175
Mof_C 	C 	0.3041	0.5298	0.9442	0.472
Mof_C 	C 	0.4883	0.4267	0.8488	-0.289
Mof_H 	H 	0.4815	0.3726	0.8779	0.147
Mof_H 	H 	0.5589	0.4398	0.8573	0.146
Mof_C 	C 	0.4517	0.4072	0.764	0.351
Mof_C 	C 	0.4598	0.5871	0.8515	-0.321
Mof_H 	H 	0.3967	0.6164	0.831	0.163
Mof_H 	H 	0.4935	0.5793	0.8084	0.165
Mof_C 	C 	0.5215	0.6449	0.9123	0.384
Mof_U 	U 	0.13022	0.834	0.38626	0.004
Mof_U 	U 	0.3852	0.14622	0.10929	-0.014
Mof_O 	O 	0.1083	0.9449	0.27836	-0.216
Mof_O 	O 	0.0292	0.8197	0.2551	-0.225
Mof_O 	O 	0.2887	0.0274	0.06007	-0.205
Mof_O 	O 	0.1347	0.051	0.9998	-0.301
Mof_O 	O 	0.9296	0.1917	0.1293	-0.226
Mof_O 	O 	0.9481	0.1162	0.02658	-0.427
Mof_O 	O 	0.2125	0.959	0.43731	-0.213
Mof_O 	O 	0.3656	0.9473	0.5015	-0.383
Mof_O 	O 	0.3895	0.0447	0.22102	-0.246
Mof_O 	O 	0.4857	0.1606	0.23868	-0.207
Mof_O 	O 	0.5399	0.7806	0.3889	-0.198
Mof_O 	O 	0.5513	0.8808	0.47974	-0.365
Mof_N 	N 	0.0604	0.9905	0.11728	-0.049
Mof_N 	N 	0.4411	0.0011	0.38245	-0.087
Mof_C 	C 	0.0134	0.9168	0.149	-0.385
Mof_H 	H 	0.9432	0.9307	0.1428	0.217
Mof_H 	H 	0.0182	0.8642	0.1174	0.142
Mof_C 	C 	0.0534	0.8934	0.2326	0.371
Mof_C 	C 	0.1647	0.9745	0.1205	-0.223
Mof_H 	H 	0.2037	0.9957	0.1703	0.158
Mof_H 	H 	0.1762	0.9107	0.117	0.124
Mof_C 	C 	0.1976	0.0216	0.0543	0.224
Mof_C 	C 	0.0425	0.077	0.1508	-0.459
Mof_H 	H 	0.02	0.0671	0.1993	0.165
Mof_H 	H 	0.1047	0.1099	0.1637	0.167
Mof_C 	C 	0.9672	0.1317	0.0967	0.465
Mof_C 	C 	0.336	0.0167	0.378	-0.507
Mof_H 	H 	0.3238	0.0804	0.3807	0.19
Mof_H 	H 	0.2977	0.9946	0.3283	0.253
Mof_C 	C 	0.3041	0.9702	0.4442	0.468
Mof_C 	C 	0.4883	0.0733	0.3488	-0.292
Mof_H 	H 	0.4815	0.1274	0.3779	0.136
Mof_H 	H 	0.5589	0.0602	0.3573	0.13
Mof_C 	C 	0.4517	0.0928	0.264	0.345
Mof_C 	C 	0.4598	0.9129	0.3515	-0.284
Mof_H 	H 	0.3967	0.8836	0.331	0.154
Mof_H 	H 	0.4935	0.9207	0.3084	0.169
Mof_C 	C 	0.5215	0.8551	0.4123	0.379
Mof_U 	U 	0.86978	0.334	0.11374	0.001
Mof_U 	U 	0.6148	0.64622	0.39071	0.014
Mof_O 	O 	0.8917	0.4449	0.22164	-0.203
Mof_O 	O 	0.9708	0.3197	0.2449	-0.174
Mof_O 	O 	0.7113	0.5274	0.43993	-0.196
Mof_O 	O 	0.8653	0.551	0.5002	-0.353
Mof_O 	O 	0.0704	0.6917	0.3707	-0.204
Mof_O 	O 	0.0519	0.6162	0.47342	-0.386
Mof_O 	O 	0.7875	0.459	0.06269	-0.187
Mof_O 	O 	0.6344	0.4473	0.9985	-0.292
Mof_O 	O 	0.6105	0.5447	0.27898	-0.216
Mof_O 	O 	0.5143	0.6606	0.26132	-0.199
Mof_O 	O 	0.4601	0.2806	0.1111	-0.222
Mof_O 	O 	0.4487	0.3808	0.02026	-0.424
Mof_N 	N 	0.9396	0.4905	0.38272	-0.091
Mof_N 	N 	0.5589	0.5011	0.11755	-0.09
Mof_C 	C 	0.9866	0.4168	0.351	-0.155
Mof_H 	H 	0.0568	0.4307	0.3572	0.058
Mof_H 	H 	0.9818	0.3642	0.3826	0.113
Mof_C 	C 	0.9466	0.3934	0.2674	0.313
Mof_C 	C 	0.8353	0.4745	0.3795	-0.308
Mof_H 	H 	0.7963	0.4957	0.3297	0.161
Mof_H 	H 	0.8238	0.4107	0.383	0.15
Mof_C 	C 	0.8024	0.5216	0.4457	0.373
Mof_C 	C 	0.9575	0.577	0.3492	-0.25
Mof_H 	H 	0.98	0.5671	0.3007	0.163
Mof_H 	H 	0.8953	0.6099	0.3363	0.146
Mof_C 	C 	0.0328	0.6317	0.4033	0.323
Mof_C 	C 	0.664	0.5167	0.122	-0.293
Mof_H 	H 	0.6762	0.5804	0.1193	0.139
Mof_H 	H 	0.7023	0.4946	0.1717	0.158
Mof_C 	C 	0.6959	0.4702	0.0558	0.287
Mof_C 	C 	0.5117	0.5733	0.1512	-0.274
Mof_H 	H 	0.5185	0.6274	0.1221	0.125
Mof_H 	H 	0.4411	0.5602	0.1427	0.13
Mof_C 	C 	0.5483	0.5928	0.236	0.344
Mof_C 	C 	0.5402	0.4129	0.1485	-0.331
Mof_H 	H 	0.6033	0.3836	0.169	0.158
Mof_H 	H 	0.5065	0.4207	0.1916	0.162
Mof_C 	C 	0.4785	0.3551	0.0877	0.386
Mof_Ni	Ni	-0	0	-0	1.044
Mof_Ni	Ni	2.88609e-33	0.5	0.5	1.098
Mof_Ni	Ni	0.5	6.79012e-33	0.5	1.099
Mof_Ni	Ni	0.5	0.5	-0	1.094
_end
