data_functionalizedCrystal
_audit_creation_method	'EQeq! by Chris Wilmer'
_symmetry_space_group_name_H-M	'P1'
_symmetry_Int_Tables_number	1
_symmetry_cell_setting	triclinic
loop_
_symmetry_equiv_pos_as_xyz
  x,y,z
_cell_length_a	22.7118
_cell_length_b	22.7118
_cell_length_c	22.7118
_cell_angle_alpha	109.471
_cell_angle_beta	109.471
_cell_angle_gamma	109.471
loop_
_atom_site_label
_atom_site_type_symbol
_atom_site_fract_x
_atom_site_fract_y
_atom_site_fract_z
_atom_site_charge
Mof_Yb	Yb	0.8971	0.5	0.3971	1.477
Mof_Yb	Yb	0.1029	0.5	0.6029	1.469
Mof_Yb	Yb	0.3971	0.8971	0.5	1.477
Mof_Yb	Yb	0.6029	0.1029	0.5	1.47
Mof_Yb	Yb	0.5	0.6029	0.1029	1.47
Mof_Yb	Yb	0.5	0.3971	0.8971	1.478
Mof_Yb	Yb	0.5	0.1029	0.6029	1.47
Mof_Yb	Yb	0.5	0.8971	0.3971	1.478
Mof_Yb	Yb	0.1029	0.6029	0.5	1.47
Mof_Yb	Yb	0.8971	0.3971	0.5	1.478
Mof_Yb	Yb	0.3971	0.5	0.8971	1.478
Mof_Yb	Yb	0.6029	0.5	0.1029	1.47
Mof_H 	H 	0.746	0.551	0.4434	0.004
Mof_H 	H 	0.6731	0.5862	0.4793	0.091
Mof_H 	H 	0.1076	0.3026	0.5566	0.003
Mof_H 	H 	0.1069	0.1938	0.5207	0.09
Mof_H 	H 	0.8924	0.449	0.195	0.002
Mof_H 	H 	0.8931	0.4138	0.0869	0.088
Mof_H 	H 	0.254	0.6974	0.805	0.004
Mof_H 	H 	0.3269	0.8062	0.9131	0.091
Mof_H 	H 	0.195	0.8924	0.449	0.002
Mof_H 	H 	0.0869	0.8931	0.4138	0.088
Mof_H 	H 	0.805	0.254	0.6974	0.004
Mof_H 	H 	0.9131	0.3269	0.8062	0.091
Mof_H 	H 	0.4434	0.746	0.551	0.004
Mof_H 	H 	0.4793	0.6731	0.5862	0.091
Mof_H 	H 	0.5566	0.1076	0.3026	0.003
Mof_H 	H 	0.5207	0.1069	0.1938	0.09
Mof_H 	H 	0.3026	0.5566	0.1076	0.003
Mof_H 	H 	0.1938	0.5207	0.1069	0.09
Mof_H 	H 	0.551	0.4434	0.746	0.004
Mof_H 	H 	0.5862	0.4793	0.6731	0.091
Mof_H 	H 	0.6974	0.805	0.254	0.004
Mof_H 	H 	0.8062	0.9131	0.3269	0.091
Mof_H 	H 	0.449	0.195	0.8924	0.002
Mof_H 	H 	0.4138	0.0869	0.8931	0.088
Mof_H 	H 	0.449	0.254	0.5566	0.003
Mof_H 	H 	0.4138	0.3269	0.5207	0.09
Mof_H 	H 	0.6974	0.8924	0.4434	0.003
Mof_H 	H 	0.8062	0.8931	0.4793	0.089
Mof_H 	H 	0.551	0.1076	0.805	0.004
Mof_H 	H 	0.5862	0.1069	0.9131	0.091
Mof_H 	H 	0.3026	0.746	0.195	0.003
Mof_H 	H 	0.1938	0.6731	0.0869	0.089
Mof_H 	H 	0.1076	0.805	0.551	0.004
Mof_H 	H 	0.1069	0.9131	0.5862	0.091
Mof_H 	H 	0.746	0.195	0.3026	0.003
Mof_H 	H 	0.6731	0.0869	0.1938	0.089
Mof_H 	H 	0.254	0.5566	0.449	0.003
Mof_H 	H 	0.3269	0.5207	0.4138	0.09
Mof_H 	H 	0.8924	0.4434	0.6974	0.003
Mof_H 	H 	0.8931	0.4793	0.8062	0.089
Mof_H 	H 	0.4434	0.6974	0.8924	0.003
Mof_H 	H 	0.4793	0.8062	0.8931	0.089
Mof_H 	H 	0.5566	0.449	0.254	0.003
Mof_H 	H 	0.5207	0.4138	0.3269	0.09
Mof_H 	H 	0.195	0.3026	0.746	0.003
Mof_H 	H 	0.0869	0.1938	0.6731	0.089
Mof_H 	H 	0.805	0.551	0.1076	0.004
Mof_H 	H 	0.9131	0.5862	0.1069	0.091
Mof_H 	H 	0.254	0.449	0.5566	0.003
Mof_H 	H 	0.3269	0.4138	0.5207	0.09
Mof_H 	H 	0.8924	0.6974	0.4434	0.003
Mof_H 	H 	0.8931	0.8062	0.4793	0.089
Mof_H 	H 	0.1076	0.551	0.805	0.004
Mof_H 	H 	0.1069	0.5862	0.9131	0.091
Mof_H 	H 	0.746	0.3026	0.195	0.003
Mof_H 	H 	0.6731	0.1938	0.0869	0.089
Mof_H 	H 	0.805	0.1076	0.551	0.004
Mof_H 	H 	0.9131	0.1069	0.5862	0.091
Mof_H 	H 	0.195	0.746	0.3026	0.003
Mof_H 	H 	0.0869	0.6731	0.1938	0.089
Mof_H 	H 	0.5566	0.254	0.449	0.003
Mof_H 	H 	0.5207	0.3269	0.4138	0.09
Mof_H 	H 	0.4434	0.8924	0.6974	0.003
Mof_H 	H 	0.4793	0.8931	0.8062	0.089
Mof_H 	H 	0.6974	0.4434	0.8924	0.003
Mof_H 	H 	0.8062	0.4793	0.8931	0.089
Mof_H 	H 	0.449	0.5566	0.254	0.003
Mof_H 	H 	0.4138	0.5207	0.3269	0.09
Mof_H 	H 	0.3026	0.195	0.746	0.003
Mof_H 	H 	0.1938	0.0869	0.6731	0.089
Mof_H 	H 	0.551	0.805	0.1076	0.004
Mof_H 	H 	0.5862	0.9131	0.1069	0.091
Mof_H 	H 	0.551	0.746	0.4434	0.004
Mof_H 	H 	0.5862	0.6731	0.4793	0.091
Mof_H 	H 	0.3026	0.1076	0.5566	0.003
Mof_H 	H 	0.1938	0.1069	0.5207	0.09
Mof_H 	H 	0.449	0.8924	0.195	0.002
Mof_H 	H 	0.4138	0.8931	0.0869	0.088
Mof_H 	H 	0.6974	0.254	0.805	0.004
Mof_H 	H 	0.8062	0.3269	0.9131	0.091
Mof_H 	H 	0.8924	0.195	0.449	0.002
Mof_H 	H 	0.8931	0.0869	0.4138	0.088
Mof_H 	H 	0.254	0.805	0.6974	0.004
Mof_H 	H 	0.3269	0.9131	0.8062	0.091
Mof_H 	H 	0.746	0.4434	0.551	0.004
Mof_H 	H 	0.6731	0.4793	0.5862	0.091
Mof_H 	H 	0.1076	0.5566	0.3026	0.003
Mof_H 	H 	0.1069	0.5207	0.1938	0.09
Mof_H 	H 	0.5566	0.3026	0.1076	0.003
Mof_H 	H 	0.5207	0.1938	0.1069	0.09
Mof_H 	H 	0.4434	0.551	0.746	0.004
Mof_H 	H 	0.4793	0.5862	0.6731	0.091
Mof_H 	H 	0.805	0.6974	0.254	0.004
Mof_H 	H 	0.9131	0.8062	0.3269	0.091
Mof_H 	H 	0.195	0.449	0.8924	0.002
Mof_H 	H 	0.0869	0.4138	0.8931	0.088
Mof_C 	C 	0.7326	0.5373	0.4737	0.103
Mof_C 	C 	0.688	0.5572	0.4942	-0.153
Mof_C 	C 	0.0636	0.2589	0.5263	0.102
Mof_C 	C 	0.063	0.1938	0.5058	-0.152
Mof_C 	C 	0.9364	0.4627	0.1953	0.107
Mof_C 	C 	0.937	0.4428	0.1308	-0.146
Mof_C 	C 	0.2674	0.7411	0.8047	0.101
Mof_C 	C 	0.312	0.8062	0.8692	-0.151
Mof_C 	C 	0.1953	0.9364	0.4627	0.107
Mof_C 	C 	0.1308	0.937	0.4428	-0.146
Mof_C 	C 	0.8047	0.2674	0.7411	0.101
Mof_C 	C 	0.8692	0.312	0.8062	-0.151
Mof_C 	C 	0.4737	0.7326	0.5373	0.103
Mof_C 	C 	0.4942	0.688	0.5572	-0.153
Mof_C 	C 	0.5263	0.0636	0.2589	0.102
Mof_C 	C 	0.5058	0.063	0.1938	-0.152
Mof_C 	C 	0.2589	0.5263	0.0636	0.102
Mof_C 	C 	0.1938	0.5058	0.063	-0.152
Mof_C 	C 	0.5373	0.4737	0.7326	0.103
Mof_C 	C 	0.5572	0.4942	0.688	-0.153
Mof_C 	C 	0.7411	0.8047	0.2674	0.101
Mof_C 	C 	0.8062	0.8692	0.312	-0.151
Mof_C 	C 	0.4627	0.1953	0.9364	0.107
Mof_C 	C 	0.4428	0.1308	0.937	-0.146
Mof_C 	C 	0.4627	0.2674	0.5263	0.102
Mof_C 	C 	0.4428	0.312	0.5058	-0.153
Mof_C 	C 	0.7411	0.9364	0.4737	0.107
Mof_C 	C 	0.8062	0.937	0.4942	-0.144
Mof_C 	C 	0.5373	0.0636	0.8047	0.102
Mof_C 	C 	0.5572	0.063	0.8692	-0.15
Mof_C 	C 	0.2589	0.7326	0.1953	0.102
Mof_C 	C 	0.1938	0.688	0.1308	-0.153
Mof_C 	C 	0.0636	0.8047	0.5373	0.102
Mof_C 	C 	0.063	0.8692	0.5572	-0.15
Mof_C 	C 	0.7326	0.1953	0.2589	0.102
Mof_C 	C 	0.688	0.1308	0.1938	-0.153
Mof_C 	C 	0.2674	0.5263	0.4627	0.102
Mof_C 	C 	0.312	0.5058	0.4428	-0.153
Mof_C 	C 	0.9364	0.4737	0.7411	0.107
Mof_C 	C 	0.937	0.4942	0.8062	-0.144
Mof_C 	C 	0.4737	0.7411	0.9364	0.107
Mof_C 	C 	0.4942	0.8062	0.937	-0.144
Mof_C 	C 	0.5263	0.4627	0.2674	0.102
Mof_C 	C 	0.5058	0.4428	0.312	-0.153
Mof_C 	C 	0.1953	0.2589	0.7326	0.102
Mof_C 	C 	0.1308	0.1938	0.688	-0.153
Mof_C 	C 	0.8047	0.5373	0.0636	0.102
Mof_C 	C 	0.8692	0.5572	0.063	-0.15
Mof_C 	C 	0.2674	0.4627	0.5263	0.102
Mof_C 	C 	0.312	0.4428	0.5058	-0.153
Mof_C 	C 	0.9364	0.7411	0.4737	0.107
Mof_C 	C 	0.937	0.8062	0.4942	-0.144
Mof_C 	C 	0.0636	0.5373	0.8047	0.102
Mof_C 	C 	0.063	0.5572	0.8692	-0.15
Mof_C 	C 	0.7326	0.2589	0.1953	0.102
Mof_C 	C 	0.688	0.1938	0.1308	-0.153
Mof_C 	C 	0.8047	0.0636	0.5373	0.102
Mof_C 	C 	0.8692	0.063	0.5572	-0.15
Mof_C 	C 	0.1953	0.7326	0.2589	0.102
Mof_C 	C 	0.1308	0.688	0.1938	-0.153
Mof_C 	C 	0.5263	0.2674	0.4627	0.102
Mof_C 	C 	0.5058	0.312	0.4428	-0.153
Mof_C 	C 	0.4737	0.9364	0.7411	0.107
Mof_C 	C 	0.4942	0.937	0.8062	-0.144
Mof_C 	C 	0.7411	0.4737	0.9364	0.107
Mof_C 	C 	0.8062	0.4942	0.937	-0.144
Mof_C 	C 	0.4627	0.5263	0.2674	0.102
Mof_C 	C 	0.4428	0.5058	0.312	-0.153
Mof_C 	C 	0.2589	0.1953	0.7326	0.102
Mof_C 	C 	0.1938	0.1308	0.688	-0.153
Mof_C 	C 	0.5373	0.8047	0.0636	0.102
Mof_C 	C 	0.5572	0.8692	0.063	-0.15
Mof_C 	C 	0.5373	0.7326	0.4737	0.103
Mof_C 	C 	0.5572	0.688	0.4942	-0.153
Mof_C 	C 	0.2589	0.0636	0.5263	0.102
Mof_C 	C 	0.1938	0.063	0.5058	-0.152
Mof_C 	C 	0.4627	0.9364	0.1953	0.107
Mof_C 	C 	0.4428	0.937	0.1308	-0.146
Mof_C 	C 	0.7411	0.2674	0.8047	0.101
Mof_C 	C 	0.8062	0.312	0.8692	-0.151
Mof_C 	C 	0.9364	0.1953	0.4627	0.107
Mof_C 	C 	0.937	0.1308	0.4428	-0.146
Mof_C 	C 	0.2674	0.8047	0.7411	0.101
Mof_C 	C 	0.312	0.8692	0.8062	-0.151
Mof_C 	C 	0.7326	0.4737	0.5373	0.103
Mof_C 	C 	0.688	0.4942	0.5572	-0.153
Mof_C 	C 	0.0636	0.5263	0.2589	0.102
Mof_C 	C 	0.063	0.5058	0.1938	-0.152
Mof_C 	C 	0.5263	0.2589	0.0636	0.102
Mof_C 	C 	0.5058	0.1938	0.063	-0.152
Mof_C 	C 	0.4737	0.5373	0.7326	0.103
Mof_C 	C 	0.4942	0.5572	0.688	-0.153
Mof_C 	C 	0.8047	0.7411	0.2674	0.101
Mof_C 	C 	0.8692	0.8062	0.312	-0.151
Mof_C 	C 	0.1953	0.4627	0.9364	0.107
Mof_C 	C 	0.1308	0.4428	0.937	-0.146
Mof_C 	C 	0.6654	0.5354	0.5354	0.082
Mof_C 	C 	0.6136	0.5545	0.5545	0.096
Mof_C 	C 	0.7994	0.4729	0.4729	0.447
Mof_C 	C 	0.7568	0.4976	0.4976	-0.203
Mof_C 	C 	-2.52118e-17	0.13	0.4646	0.074
Mof_C 	C 	-3.78177e-17	0.0591	0.4455	0.091
Mof_C 	C 	-3.78177e-17	0.3265	0.5271	0.44
Mof_C 	C 	-0	0.2592	0.5024	-0.208
Mof_C 	C 	-0	0.4646	0.13	0.074
Mof_C 	C 	6.30295e-18	0.4455	0.0591	0.091
Mof_C 	C 	-1.89089e-17	0.5271	0.3265	0.44
Mof_C 	C 	-6.30295e-18	0.5024	0.2592	-0.208
Mof_C 	C 	0.3346	0.87	0.87	0.079
Mof_C 	C 	0.3864	0.9409	0.9409	0.108
Mof_C 	C 	0.2006	0.6735	0.6735	0.445
Mof_C 	C 	0.2432	0.7408	0.7408	-0.201
Mof_C 	C 	0.13	0	0.4646	0.074
Mof_C 	C 	0.0591	-2.52118e-17	0.4455	0.091
Mof_C 	C 	0.3265	-5.04236e-17	0.5271	0.44
Mof_C 	C 	0.2592	0	0.5024	-0.208
Mof_C 	C 	0.87	0.3346	0.87	0.079
Mof_C 	C 	0.9409	0.3864	0.9409	0.108
Mof_C 	C 	0.6735	0.2006	0.6735	0.445
Mof_C 	C 	0.7408	0.2432	0.7408	-0.201
Mof_C 	C 	0.5354	0.6654	0.5354	0.082
Mof_C 	C 	0.5545	0.6136	0.5545	0.096
Mof_C 	C 	0.4729	0.7994	0.4729	0.447
Mof_C 	C 	0.4976	0.7568	0.4976	-0.203
Mof_C 	C 	0.4646	0	0.13	0.074
Mof_C 	C 	0.4455	0	0.0591	0.091
Mof_C 	C 	0.5271	-2.52118e-17	0.3265	0.44
Mof_C 	C 	0.5024	0	0.2592	-0.208
Mof_C 	C 	0.13	0.4646	-0	0.074
Mof_C 	C 	0.0591	0.4455	-0	0.091
Mof_C 	C 	0.3265	0.5271	-0	0.44
Mof_C 	C 	0.2592	0.5024	-0	-0.208
Mof_C 	C 	0.5354	0.5354	0.6654	0.082
Mof_C 	C 	0.5545	0.5545	0.6136	0.096
Mof_C 	C 	0.4729	0.4729	0.7994	0.447
Mof_C 	C 	0.4976	0.4976	0.7568	-0.203
Mof_C 	C 	0.87	0.87	0.3346	0.079
Mof_C 	C 	0.9409	0.9409	0.3864	0.108
Mof_C 	C 	0.6735	0.6735	0.2006	0.445
Mof_C 	C 	0.7408	0.7408	0.2432	-0.201
Mof_C 	C 	0.4646	0.13	-0	0.074
Mof_C 	C 	0.4455	0.0591	-0	0.091
Mof_C 	C 	0.5271	0.3265	-0	0.44
Mof_C 	C 	0.5024	0.2592	-0	-0.208
Mof_C 	C 	0.4646	0.3346	0.4646	0.081
Mof_C 	C 	0.4455	0.3864	0.4455	0.096
Mof_C 	C 	0.5271	0.2006	0.5271	0.446
Mof_C 	C 	0.5024	0.2432	0.5024	-0.203
Mof_C 	C 	0.87	0	0.5354	0.073
Mof_C 	C 	0.9409	0	0.5545	0.098
Mof_C 	C 	0.6735	0	0.4729	0.44
Mof_C 	C 	0.7408	-5.04236e-17	0.4976	-0.207
Mof_C 	C 	0.5354	0	0.87	0.073
Mof_C 	C 	0.5545	0	0.9409	0.098
Mof_C 	C 	0.4729	0	0.6735	0.44
Mof_C 	C 	0.4976	0	0.7408	-0.207
Mof_C 	C 	0.13	0.6654	0.13	0.081
Mof_C 	C 	0.0591	0.6136	0.0591	0.094
Mof_C 	C 	0.3265	0.7994	0.3265	0.447
Mof_C 	C 	0.2592	0.7568	0.2592	-0.203
Mof_C 	C 	3.78177e-17	0.87	0.5354	0.073
Mof_C 	C 	3.78177e-17	0.9409	0.5545	0.098
Mof_C 	C 	-5.04236e-17	0.6735	0.4729	0.44
Mof_C 	C 	-8.82413e-17	0.7408	0.4976	-0.207
Mof_C 	C 	0.6654	0.13	0.13	0.081
Mof_C 	C 	0.6136	0.0591	0.0591	0.094
Mof_C 	C 	0.7994	0.3265	0.3265	0.447
Mof_C 	C 	0.7568	0.2592	0.2592	-0.203
Mof_C 	C 	0.3346	0.4646	0.4646	0.081
Mof_C 	C 	0.3864	0.4455	0.4455	0.096
Mof_C 	C 	0.2006	0.5271	0.5271	0.446
Mof_C 	C 	0.2432	0.5024	0.5024	-0.203
Mof_C 	C 	2.52118e-17	0.5354	0.87	0.073
Mof_C 	C 	-2.52118e-17	0.5545	0.9409	0.098
Mof_C 	C 	-3.78177e-17	0.4729	0.6735	0.44
Mof_C 	C 	-0	0.4976	0.7408	-0.207
Mof_C 	C 	0.5354	0.87	-0	0.073
Mof_C 	C 	0.5545	0.9409	-0	0.098
Mof_C 	C 	0.4729	0.6735	-0	0.44
Mof_C 	C 	0.4976	0.7408	-0	-0.207
Mof_C 	C 	0.4646	0.4646	0.3346	0.081
Mof_C 	C 	0.4455	0.4455	0.3864	0.096
Mof_C 	C 	0.5271	0.5271	0.2006	0.446
Mof_C 	C 	0.5024	0.5024	0.2432	-0.203
Mof_C 	C 	0.13	0.13	0.6654	0.081
Mof_C 	C 	0.0591	0.0591	0.6136	0.094
Mof_C 	C 	0.3265	0.3265	0.7994	0.447
Mof_C 	C 	0.2592	0.2592	0.7568	-0.203
Mof_C 	C 	0.87	0.5354	-0	0.073
Mof_C 	C 	0.9409	0.5545	-0	0.098
Mof_C 	C 	0.6735	0.4729	-0	0.44
Mof_C 	C 	0.7408	0.4976	-0	-0.207
Mof_N 	N 	0.5986	0.5986	0.534	-0.14
Mof_N 	N 	0.0646	0.0646	0.466	-0.14
Mof_N 	N 	0.9354	0.4014	-0	-0.142
Mof_N 	N 	0.4014	0.9354	-0	-0.142
Mof_N 	N 	-6.30295e-17	0.9354	0.4014	-0.142
Mof_N 	N 	-1.00847e-16	0.4014	0.9354	-0.142
Mof_N 	N 	0.534	0.5986	0.5986	-0.14
Mof_N 	N 	0.466	0.0646	0.0646	-0.14
Mof_N 	N 	0.0646	0.466	0.0646	-0.14
Mof_N 	N 	0.5986	0.534	0.5986	-0.14
Mof_N 	N 	0.9354	-2.52118e-17	0.4014	-0.142
Mof_N 	N 	0.4014	-1.00847e-16	0.9354	-0.142
Mof_N 	N 	0.4014	0.4014	0.466	-0.14
Mof_N 	N 	0.9354	0.9354	0.534	-0.135
Mof_N 	N 	0.5986	0.0646	-0	-0.144
Mof_N 	N 	0.0646	0.5986	-0	-0.144
Mof_N 	N 	0.0646	-5.04236e-17	0.5986	-0.144
Mof_N 	N 	0.5986	0	0.0646	-0.144
Mof_N 	N 	0.4014	0.466	0.4014	-0.14
Mof_N 	N 	0.9354	0.534	0.9354	-0.135
Mof_N 	N 	0.534	0.9354	0.9354	-0.135
Mof_N 	N 	0.466	0.4014	0.4014	-0.14
Mof_N 	N 	2.52118e-17	0.0646	0.5986	-0.144
Mof_N 	N 	1.10302e-17	0.5986	0.0646	-0.144
Mof_O 	O 	0.8179	0.4952	0.4335	-0.512
Mof_O 	O 	0.0617	0.3844	0.5665	-0.511
Mof_O 	O 	0.9383	0.5048	0.3227	-0.507
Mof_O 	O 	0.1821	0.6156	0.6773	-0.511
Mof_O 	O 	0.3227	0.9383	0.5048	-0.507
Mof_O 	O 	0.6773	0.1821	0.6156	-0.511
Mof_O 	O 	0.4335	0.8179	0.4952	-0.512
Mof_O 	O 	0.5665	0.0617	0.3844	-0.511
Mof_O 	O 	0.3844	0.5665	0.0617	-0.511
Mof_O 	O 	0.4952	0.4335	0.8179	-0.512
Mof_O 	O 	0.6156	0.6773	0.1821	-0.511
Mof_O 	O 	0.5048	0.3227	0.9383	-0.507
Mof_O 	O 	0.5048	0.1821	0.5665	-0.511
Mof_O 	O 	0.6156	0.9383	0.4335	-0.506
Mof_O 	O 	0.4952	0.0617	0.6773	-0.511
Mof_O 	O 	0.3844	0.8179	0.3227	-0.512
Mof_O 	O 	0.0617	0.6773	0.4952	-0.511
Mof_O 	O 	0.8179	0.3227	0.3844	-0.512
Mof_O 	O 	0.1821	0.5665	0.5048	-0.511
Mof_O 	O 	0.9383	0.4335	0.6156	-0.506
Mof_O 	O 	0.4335	0.6156	0.9383	-0.506
Mof_O 	O 	0.5665	0.5048	0.1821	-0.511
Mof_O 	O 	0.3227	0.3844	0.8179	-0.512
Mof_O 	O 	0.6773	0.4952	0.0617	-0.511
Mof_O 	O 	0.1821	0.5048	0.5665	-0.511
Mof_O 	O 	0.9383	0.6156	0.4335	-0.506
Mof_O 	O 	0.0617	0.4952	0.6773	-0.511
Mof_O 	O 	0.8179	0.3844	0.3227	-0.512
Mof_O 	O 	0.6773	0.0617	0.4952	-0.511
Mof_O 	O 	0.3227	0.8179	0.3844	-0.512
Mof_O 	O 	0.5665	0.1821	0.5048	-0.511
Mof_O 	O 	0.4335	0.9383	0.6156	-0.506
Mof_O 	O 	0.6156	0.4335	0.9383	-0.506
Mof_O 	O 	0.5048	0.5665	0.1821	-0.511
Mof_O 	O 	0.3844	0.3227	0.8179	-0.512
Mof_O 	O 	0.4952	0.6773	0.0617	-0.511
Mof_O 	O 	0.4952	0.8179	0.4335	-0.512
Mof_O 	O 	0.3844	0.0617	0.5665	-0.511
Mof_O 	O 	0.5048	0.9383	0.3227	-0.507
Mof_O 	O 	0.6156	0.1821	0.6773	-0.511
Mof_O 	O 	0.9383	0.3227	0.5048	-0.507
Mof_O 	O 	0.1821	0.6773	0.6156	-0.511
Mof_O 	O 	0.8179	0.4335	0.4952	-0.512
Mof_O 	O 	0.0617	0.5665	0.3844	-0.511
Mof_O 	O 	0.5665	0.3844	0.0617	-0.511
Mof_O 	O 	0.4335	0.4952	0.8179	-0.512
Mof_O 	O 	0.6773	0.6156	0.1821	-0.511
Mof_O 	O 	0.3227	0.5048	0.9383	-0.507
Mof_O 	O 	-2.52118e-17	0.5	0.5	-0.638
Mof_O 	O 	0.5	0	0.5	-0.638
Mof_O 	O 	0.5	0.5	-0	-0.638
_end
