data_functionalizedCrystal
_audit_creation_method	'EQeq! by Chris Wilmer'
_symmetry_space_group_name_H-M	'P1'
_symmetry_Int_Tables_number	1
_symmetry_cell_setting	triclinic
loop_
_symmetry_equiv_pos_as_xyz
  x,y,z
_cell_length_a	17.492
_cell_length_b	17.492
_cell_length_c	13.242
_cell_angle_alpha	90
_cell_angle_beta	90
_cell_angle_gamma	120
loop_
_atom_site_label
_atom_site_type_symbol
_atom_site_fract_x
_atom_site_fract_y
_atom_site_fract_z
_atom_site_charge
Mof_Cu	Cu	0.55764	0.42464	0.1386	0.915
Mof_Cu	Cu	0.55283	0.41905	0.3909	0.913
Mof_O 	O 	0.5315	0.3613	0.262	-0.492
Mof_N 	N 	0.6041	0.5098	0.036	-0.194
Mof_N 	N 	0.4055	0.5033	0.008	-0.212
Mof_O 	O 	0.3246	0.5608	0.894	-0.529
Mof_O 	O 	0.677	0.4419	0.136	-0.484
Mof_O 	O 	0.5524	0.5709	0.909	-0.315
Mof_O 	O 	0.1992	0.492	0.982	-0.397
Mof_O 	O 	0.8036	0.5082	0.05	-0.279
Mof_O 	O 	0.444	0.4275	0.115	-0.315
Mof_C 	C 	0.5464	0.5261	0.99	0.062
Mof_C 	C 	0.457	0.4814	0.043	0.18
Mof_C 	C 	0.6966	0.5482	0.005	-0.111
Mof_H 	H 	0.6962	0.5326	0.9324	0.08
Mof_C 	C 	0.7251	0.496	0.062	0.327
Mof_C 	C 	0.3187	0.475	0.0427	-0.093
Mof_H 	H 	0.285	0.4086	0.0396	0.078
Mof_C 	C 	0.274	0.512	0.96	0.377
Mof_C 	C 	0.758	0.6402	0.014	0.049
Mof_H 	H 	0.7222	0.6685	0.0039	0.043
Mof_H 	H 	0.795	0.6539	0.9524	0.046
Mof_C 	C 	0.8219	0.6945	0.0926	-0.241
Mof_H 	H 	0.8779	0.7427	0.0646	0.15
Mof_H 	H 	0.8341	0.6592	0.1418	0.13
Mof_C 	C 	0.736	0.804	0.048	-0.475
Mof_H 	H 	0.7414	0.7862	0.9794	0.206
Mof_H 	H 	0.7815	0.8657	0.0589	0.247
Mof_H 	H 	0.6777	0.7971	0.0575	0.198
Mof_S 	S 	0.7524	0.7321	0.1417	0.169
Mof_C 	C 	0.313	0.5002	0.1441	0.023
Mof_H 	H 	0.3694	0.5168	0.1786	0.04
Mof_H 	H 	0.266	0.4479	0.1794	0.01
Mof_C 	C 	0.295	0.5722	0.1568	-0.212
Mof_H 	H 	0.2472	0.5671	0.1123	0.103
Mof_H 	H 	0.3483	0.6311	0.1496	0.087
Mof_S 	S 	0.2593	0.5422	0.2911	0.074
Mof_Hg	Hg	0.7443	0.7607	0.325	0.268
Mof_Cl	Cl	0.5885	0.7326	0.3891	-0.37
Mof_Cl	Cl	0.8984	0.7792	0.3701	-0.308
Mof_Cl	Cl	0.8056	0.8619	0.2272	-0.335
Mof_Hg	Hg	0.1931	0.354	0.2439	0.194
Mof_Cu	Cu	0.57536	0.133	0.1386	0.914
Mof_Cu	Cu	0.58095	0.13378	0.3909	0.913
Mof_O 	O 	0.6387	0.1702	0.262	-0.493
Mof_N 	N 	0.4902	0.0943	0.036	-0.196
Mof_N 	N 	0.4967	0.9022	0.008	-0.212
Mof_O 	O 	0.4392	0.7638	0.894	-0.53
Mof_O 	O 	0.5581	0.2351	0.136	-0.485
Mof_O 	O 	0.4291	0.9815	0.909	-0.319
Mof_O 	O 	0.508	0.7072	0.982	-0.398
Mof_O 	O 	0.4918	0.2954	0.05	-0.279
Mof_O 	O 	0.5725	0.0165	0.115	-0.313
Mof_C 	C 	0.4739	0.0203	0.99	0.067
Mof_C 	C 	0.5186	0.9756	0.043	0.174
Mof_C 	C 	0.4518	0.1484	0.005	-0.111
Mof_H 	H 	0.4674	0.1636	0.9324	0.081
Mof_C 	C 	0.504	0.2291	0.062	0.327
Mof_C 	C 	0.525	0.8437	0.0427	-0.093
Mof_H 	H 	0.5914	0.8764	0.0396	0.077
Mof_C 	C 	0.488	0.762	0.96	0.377
Mof_C 	C 	0.3598	0.1178	0.014	0.049
Mof_H 	H 	0.3315	0.0537	0.0039	0.044
Mof_H 	H 	0.3461	0.1411	0.9524	0.046
Mof_C 	C 	0.3055	0.1274	0.0926	-0.242
Mof_H 	H 	0.2573	0.1352	0.0646	0.15
Mof_H 	H 	0.3408	0.1749	0.1418	0.13
Mof_C 	C 	0.196	0.932	0.048	-0.478
Mof_H 	H 	0.2138	0.9552	0.9794	0.206
Mof_H 	H 	0.1343	0.9158	0.0589	0.247
Mof_H 	H 	0.2029	0.8806	0.0575	0.198
Mof_S 	S 	0.2679	0.0203	0.1417	0.172
Mof_C 	C 	0.4998	0.8128	0.1441	0.024
Mof_H 	H 	0.4832	0.8526	0.1786	0.039
Mof_H 	H 	0.5521	0.8181	0.1794	0.01
Mof_C 	C 	0.4278	0.7228	0.1568	-0.212
Mof_H 	H 	0.4329	0.6801	0.1123	0.103
Mof_H 	H 	0.3689	0.7172	0.1496	0.087
Mof_S 	S 	0.4578	0.7171	0.2911	0.074
Mof_Hg	Hg	0.2393	0.9836	0.325	0.266
Mof_Cl	Cl	0.2674	0.8559	0.3891	-0.371
Mof_Cl	Cl	0.2208	0.1192	0.3701	-0.308
Mof_Cl	Cl	0.1381	0.9437	0.2272	-0.337
Mof_Hg	Hg	0.646	0.8391	0.2439	0.193
Mof_Cu	Cu	0.867	0.44236	0.1386	0.914
Mof_Cu	Cu	0.86622	0.44717	0.3909	0.913
Mof_O 	O 	0.8298	0.4685	0.262	-0.493
Mof_N 	N 	0.9057	0.3959	0.036	-0.196
Mof_N 	N 	0.0978	0.5945	0.008	-0.212
Mof_O 	O 	0.2362	0.6754	0.894	-0.53
Mof_O 	O 	0.7649	0.323	0.136	-0.485
Mof_O 	O 	0.0185	0.4476	0.909	-0.319
Mof_O 	O 	0.2928	0.8008	0.982	-0.398
Mof_O 	O 	0.7046	0.1964	0.05	-0.279
Mof_O 	O 	0.9835	0.556	0.115	-0.313
Mof_C 	C 	0.9797	0.4536	0.99	0.068
Mof_C 	C 	0.0244	0.543	0.043	0.174
Mof_C 	C 	0.8516	0.3034	0.005	-0.111
Mof_H 	H 	0.8364	0.3038	0.9324	0.081
Mof_C 	C 	0.7709	0.2749	0.062	0.327
Mof_C 	C 	0.1563	0.6813	0.0427	-0.093
Mof_H 	H 	0.1236	0.715	0.0396	0.077
Mof_C 	C 	0.238	0.726	0.96	0.377
Mof_C 	C 	0.8822	0.242	0.014	0.048
Mof_H 	H 	0.9463	0.2778	0.0039	0.044
Mof_H 	H 	0.8589	0.205	0.9524	0.047
Mof_C 	C 	0.8726	0.1781	0.0926	-0.241
Mof_H 	H 	0.8648	0.1221	0.0646	0.15
Mof_H 	H 	0.8251	0.1659	0.1418	0.13
Mof_C 	C 	0.068	0.264	0.048	-0.478
Mof_H 	H 	0.0448	0.2586	0.9794	0.206
Mof_H 	H 	0.0842	0.2185	0.0589	0.248
Mof_H 	H 	0.1194	0.3223	0.0575	0.198
Mof_S 	S 	0.9797	0.2476	0.1417	0.171
Mof_C 	C 	0.1872	0.687	0.1441	0.024
Mof_H 	H 	0.1474	0.6306	0.1786	0.039
Mof_H 	H 	0.1819	0.734	0.1794	0.01
Mof_C 	C 	0.2772	0.705	0.1568	-0.212
Mof_H 	H 	0.3199	0.7528	0.1123	0.103
Mof_H 	H 	0.2828	0.6517	0.1496	0.087
Mof_S 	S 	0.2829	0.7407	0.2911	0.074
Mof_Hg	Hg	0.0164	0.2557	0.325	0.267
Mof_Cl	Cl	0.1441	0.4115	0.3891	-0.371
Mof_Cl	Cl	0.8808	0.1016	0.3701	-0.307
Mof_Cl	Cl	0.0563	0.1944	0.2272	-0.336
Mof_Hg	Hg	0.1609	0.8069	0.2439	0.193
Mof_Cu	Cu	0.44236	0.57536	0.6386	0.912
Mof_Cu	Cu	0.44717	0.58095	0.8909	0.907
Mof_O 	O 	0.4685	0.6387	0.762	-0.493
Mof_N 	N 	0.3959	0.4902	0.536	-0.213
Mof_N 	N 	0.5945	0.4967	0.508	-0.214
Mof_O 	O 	0.6754	0.4392	0.394	-0.531
Mof_O 	O 	0.323	0.5581	0.636	-0.487
Mof_O 	O 	0.4476	0.4291	0.409	-0.32
Mof_O 	O 	0.8008	0.508	0.482	-0.39
Mof_O 	O 	0.1964	0.4918	0.55	-0.291
Mof_O 	O 	0.556	0.5725	0.615	-0.31
Mof_C 	C 	0.4536	0.4739	0.49	0.114
Mof_C 	C 	0.543	0.5186	0.543	0.145
Mof_C 	C 	0.3034	0.4518	0.505	-0.137
Mof_H 	H 	0.3038	0.4674	0.4324	0.103
Mof_C 	C 	0.2749	0.504	0.562	0.33
Mof_C 	C 	0.6813	0.525	0.5427	-0.12
Mof_H 	H 	0.715	0.5914	0.5396	0.077
Mof_C 	C 	0.726	0.488	0.46	0.402
Mof_C 	C 	0.242	0.3598	0.514	0.009
Mof_H 	H 	0.2778	0.3315	0.5039	0.043
Mof_H 	H 	0.205	0.3461	0.4524	0.074
Mof_C 	C 	0.1781	0.3055	0.5926	-0.228
Mof_H 	H 	0.1221	0.2573	0.5646	0.137
Mof_H 	H 	0.1659	0.3408	0.6418	0.125
Mof_C 	C 	0.264	0.196	0.548	-0.557
Mof_H 	H 	0.2586	0.2138	0.4794	0.249
Mof_H 	H 	0.2185	0.1343	0.5589	0.264
Mof_H 	H 	0.3223	0.2029	0.5575	0.214
Mof_S 	S 	0.2476	0.2679	0.6417	0.175
Mof_C 	C 	0.687	0.4998	0.6441	0.033
Mof_H 	H 	0.6306	0.4832	0.6786	0.036
Mof_H 	H 	0.734	0.5521	0.6794	0.006
Mof_C 	C 	0.705	0.4278	0.6568	-0.216
Mof_H 	H 	0.7528	0.4329	0.6123	0.096
Mof_H 	H 	0.6517	0.3689	0.6496	0.087
Mof_S 	S 	0.7407	0.4578	0.7911	0.07
Mof_Hg	Hg	0.2557	0.2393	0.825	0.262
Mof_Cl	Cl	0.4115	0.2674	0.8891	-0.384
Mof_Cl	Cl	0.1016	0.2208	0.8701	-0.319
Mof_Cl	Cl	0.1944	0.1381	0.7272	-0.339
Mof_Hg	Hg	0.8069	0.646	0.7439	0.193
Mof_Cu	Cu	0.42464	0.867	0.6386	0.912
Mof_Cu	Cu	0.41905	0.86622	0.8909	0.907
Mof_O 	O 	0.3613	0.8298	0.762	-0.494
Mof_N 	N 	0.5098	0.9057	0.536	-0.212
Mof_N 	N 	0.5033	0.0978	0.508	-0.215
Mof_O 	O 	0.5608	0.2362	0.394	-0.531
Mof_O 	O 	0.4419	0.7649	0.636	-0.487
Mof_O 	O 	0.5709	0.0185	0.409	-0.318
Mof_O 	O 	0.492	0.2928	0.482	-0.39
Mof_O 	O 	0.5082	0.7046	0.55	-0.291
Mof_O 	O 	0.4275	0.9835	0.615	-0.313
Mof_C 	C 	0.5261	0.9797	0.49	0.109
Mof_C 	C 	0.4814	0.0244	0.543	0.149
Mof_C 	C 	0.5482	0.8516	0.505	-0.137
Mof_H 	H 	0.5326	0.8364	0.4324	0.103
Mof_C 	C 	0.496	0.7709	0.562	0.33
Mof_C 	C 	0.475	0.1563	0.5427	-0.119
Mof_H 	H 	0.4086	0.1236	0.5396	0.077
Mof_C 	C 	0.512	0.238	0.46	0.402
Mof_C 	C 	0.6402	0.8822	0.514	0.009
Mof_H 	H 	0.6685	0.9463	0.5039	0.042
Mof_H 	H 	0.6539	0.8589	0.4524	0.074
Mof_C 	C 	0.6945	0.8726	0.5926	-0.227
Mof_H 	H 	0.7427	0.8648	0.5646	0.137
Mof_H 	H 	0.6592	0.8251	0.6418	0.124
Mof_C 	C 	0.804	0.068	0.548	-0.554
Mof_H 	H 	0.7862	0.0448	0.4794	0.249
Mof_H 	H 	0.8657	0.0842	0.5589	0.263
Mof_H 	H 	0.7971	0.1194	0.5575	0.213
Mof_S 	S 	0.7321	0.9797	0.6417	0.172
Mof_C 	C 	0.5002	0.1872	0.6441	0.033
Mof_H 	H 	0.5168	0.1474	0.6786	0.037
Mof_H 	H 	0.4479	0.1819	0.6794	0.007
Mof_C 	C 	0.5722	0.2772	0.6568	-0.215
Mof_H 	H 	0.5671	0.3199	0.6123	0.096
Mof_H 	H 	0.6311	0.2828	0.6496	0.087
Mof_S 	S 	0.5422	0.2829	0.7911	0.07
Mof_Hg	Hg	0.7607	0.0164	0.825	0.264
Mof_Cl	Cl	0.7326	0.1441	0.8891	-0.383
Mof_Cl	Cl	0.7792	0.8808	0.8701	-0.319
Mof_Cl	Cl	0.8619	0.0563	0.7272	-0.338
Mof_Hg	Hg	0.354	0.1609	0.7439	0.193
Mof_Cu	Cu	0.133	0.55764	0.6386	0.912
Mof_Cu	Cu	0.13378	0.55283	0.8909	0.907
Mof_O 	O 	0.1702	0.5315	0.762	-0.493
Mof_N 	N 	0.0943	0.6041	0.536	-0.212
Mof_N 	N 	0.9022	0.4055	0.508	-0.215
Mof_O 	O 	0.7638	0.3246	0.394	-0.531
Mof_O 	O 	0.2351	0.677	0.636	-0.487
Mof_O 	O 	0.9815	0.5524	0.409	-0.318
Mof_O 	O 	0.7072	0.1992	0.482	-0.39
Mof_O 	O 	0.2954	0.8036	0.55	-0.291
Mof_O 	O 	0.0165	0.444	0.615	-0.313
Mof_C 	C 	0.0203	0.5464	0.49	0.109
Mof_C 	C 	0.9756	0.457	0.543	0.149
Mof_C 	C 	0.1484	0.6966	0.505	-0.137
Mof_H 	H 	0.1636	0.6962	0.4324	0.103
Mof_C 	C 	0.2291	0.7251	0.562	0.33
Mof_C 	C 	0.8437	0.3187	0.5427	-0.119
Mof_H 	H 	0.8764	0.285	0.5396	0.077
Mof_C 	C 	0.762	0.274	0.46	0.402
Mof_C 	C 	0.1178	0.758	0.514	0.009
Mof_H 	H 	0.0537	0.7222	0.5039	0.042
Mof_H 	H 	0.1411	0.795	0.4524	0.074
Mof_C 	C 	0.1274	0.8219	0.5926	-0.227
Mof_H 	H 	0.1352	0.8779	0.5646	0.136
Mof_H 	H 	0.1749	0.8341	0.6418	0.124
Mof_C 	C 	0.932	0.736	0.548	-0.553
Mof_H 	H 	0.9552	0.7414	0.4794	0.249
Mof_H 	H 	0.9158	0.7815	0.5589	0.262
Mof_H 	H 	0.8806	0.6777	0.5575	0.213
Mof_S 	S 	0.0203	0.7524	0.6417	0.171
Mof_C 	C 	0.8128	0.313	0.6441	0.033
Mof_H 	H 	0.8526	0.3694	0.6786	0.037
Mof_H 	H 	0.8181	0.266	0.6794	0.007
Mof_C 	C 	0.7228	0.295	0.6568	-0.215
Mof_H 	H 	0.6801	0.2472	0.6123	0.096
Mof_H 	H 	0.7172	0.3483	0.6496	0.087
Mof_S 	S 	0.7171	0.2593	0.7911	0.07
Mof_Hg	Hg	0.9836	0.7443	0.825	0.264
Mof_Cl	Cl	0.8559	0.5885	0.8891	-0.384
Mof_Cl	Cl	0.1192	0.8984	0.8701	-0.32
Mof_Cl	Cl	0.9437	0.8056	0.7272	-0.338
Mof_Hg	Hg	0.8391	0.1931	0.7439	0.193
Mof_Ca	Ca	0.66667	0.33333	0.2625	1.373
Mof_Ca	Ca	0.33333	0.66667	0.7625	1.369
Mof_C 	C 	0.33333	0.66667	0.302	-0.038
Mof_C 	C 	0.66667	0.33333	0.802	-0.041
_end
