data_functionalizedCrystal
_audit_creation_method	'EQeq! by Chris Wilmer'
_symmetry_space_group_name_H-M	'P1'
_symmetry_Int_Tables_number	1
_symmetry_cell_setting	triclinic
loop_
_symmetry_equiv_pos_as_xyz
  x,y,z
_cell_length_a	24.36
_cell_length_b	24.36
_cell_length_c	16.909
_cell_angle_alpha	90
_cell_angle_beta	90
_cell_angle_gamma	90
loop_
_atom_site_label
_atom_site_type_symbol
_atom_site_fract_x
_atom_site_fract_y
_atom_site_fract_z
_atom_site_charge
Mof_C 	C 	0.34069	0.21081	0.98469	0.031
Mof_C 	C 	0.36042	0.23281	0.91297	-0.092
Mof_C 	C 	0.39996	0.27508	0.91283	0.05
Mof_C 	C 	0.41929	0.29524	0.98575	-0.112
Mof_C 	C 	0.39987	0.27425	0.05814	0.064
Mof_C 	C 	0.36074	0.23165	0.05696	-0.076
Mof_H 	H 	0.34597	0.2161	0.85735	0.053
Mof_H 	H 	0.44996	0.32749	0.98619	0.055
Mof_H 	H 	0.34637	0.21423	0.11217	0.054
Mof_C 	C 	0.80051	0.6703	0.98517	0.036
Mof_C 	C 	0.77913	0.6501	0.91303	-0.09
Mof_C 	C 	0.74177	0.60605	0.91186	0.053
Mof_C 	C 	0.72387	0.58356	0.98405	-0.11
Mof_C 	C 	0.74445	0.60272	0.05674	0.066
Mof_C 	C 	0.78319	0.64558	0.05663	-0.076
Mof_H 	H 	0.79242	0.66784	0.85749	0.055
Mof_H 	H 	0.69428	0.55032	0.98356	0.059
Mof_H 	H 	0.80064	0.65889	0.11234	0.057
Mof_C 	C 	0.31319	0.71147	0.48476	0.049
Mof_C 	C 	0.29187	0.73198	0.41301	-0.09
Mof_C 	C 	0.24867	0.77043	0.41291	0.049
Mof_C 	C 	0.22808	0.78939	0.48587	-0.088
Mof_C 	C 	0.24883	0.76956	0.55823	0.049
Mof_C 	C 	0.29154	0.73062	0.55705	-0.09
Mof_H 	H 	0.30778	0.71673	0.35734	0.056
Mof_H 	H 	0.19505	0.81921	0.48633	0.06
Mof_H 	H 	0.30733	0.71452	0.61229	0.054
Mof_C 	C 	0.84875	0.16625	0.4845	0.045
Mof_C 	C 	0.86841	0.14392	0.55634	-0.084
Mof_C 	C 	0.90939	0.10315	0.55672	0.038
Mof_C 	C 	0.93094	0.0848	0.48416	-0.082
Mof_C 	C 	0.91234	0.10651	0.41187	0.044
Mof_C 	C 	0.87267	0.14845	0.41272	-0.086
Mof_H 	H 	0.85058	0.15685	0.61199	0.051
Mof_H 	H 	0.96177	0.05271	0.48386	0.056
Mof_H 	H 	0.85898	0.16577	0.3571	0.057
Mof_Zn	Zn	0.06268	0.00997	0.98336	1.231
Mof_Zn	Zn	0.15201	0.92221	0.98554	1.239
Mof_Zn	Zn	0.0452	0.9044	0.07251	1.248
Mof_Zn	Zn	0.04608	0.90252	0.89794	1.244
Mof_O 	O 	0.07684	0.93508	0.98484	-1.017
Mof_O 	O 	0.12562	0.04969	0.98192	-0.527
Mof_O 	O 	0.17409	0.88422	0.07392	-0.503
Mof_O 	O 	0.0132	0.9545	0.13429	-0.502
Mof_O 	O 	0.19076	0.98617	0.98568	-0.493
Mof_O 	O 	0.02493	0.03324	0.07127	-0.503
Mof_O 	O 	0.09463	0.87094	0.1347	-0.526
Mof_O 	O 	0.99497	0.85096	0.92058	-0.506
Mof_O 	O 	0.17514	0.88378	0.89779	-0.514
Mof_O 	O 	0.99231	0.85438	0.05101	-0.492
Mof_O 	O 	0.09604	0.86967	0.83666	-0.533
Mof_O 	O 	0.0127	0.95128	0.83487	-0.508
Mof_O 	O 	0.02394	0.03107	0.89543	-0.523
Mof_C 	C 	0.17622	0.03646	0.98362	0.358
Mof_C 	C 	0.14649	0.86519	0.13202	0.39
Mof_C 	C 	0.0069	0.00618	0.13046	0.33
Mof_C 	C 	0.97494	0.83488	0.98596	0.376
Mof_C 	C 	0.14786	0.8643	0.83966	0.392
Mof_C 	C 	0.00575	0.00296	0.83734	0.343
Mof_Zn	Zn	0.59172	0.50997	0.48341	1.243
Mof_Zn	Zn	0.5014	0.42353	0.48558	1.242
Mof_Zn	Zn	0.60685	0.40242	0.39777	1.249
Mof_Zn	Zn	0.60786	0.40416	0.57269	1.248
Mof_O 	O 	0.57666	0.4353	0.48489	-1.016
Mof_O 	O 	0.52937	0.55059	0.48195	-0.52
Mof_O 	O 	0.47768	0.3856	0.39801	-0.514
Mof_O 	O 	0.64116	0.45072	0.33491	-0.525
Mof_O 	O 	0.46344	0.48793	0.48585	-0.518
Mof_O 	O 	0.63068	0.53057	0.39559	-0.514
Mof_O 	O 	0.55628	0.37071	0.33602	-0.528
Mof_O 	O 	0.65975	0.35304	0.55098	-0.523
Mof_O 	O 	0.47883	0.38594	0.5737	-0.516
Mof_O 	O 	0.65684	0.34982	0.42049	-0.523
Mof_O 	O 	0.55779	0.37178	0.63537	-0.525
Mof_O 	O 	0.64083	0.45388	0.63427	-0.529
Mof_O 	O 	0.62976	0.53271	0.5712	-0.513
Mof_C 	C 	0.47861	0.53802	0.48373	0.39
Mof_C 	C 	0.50438	0.36616	0.33934	0.39
Mof_C 	C 	0.64862	0.50233	0.3375	0.391
Mof_C 	C 	0.67655	0.33319	0.48581	0.394
Mof_C 	C 	0.50584	0.36688	0.63231	0.389
Mof_C 	C 	0.64761	0.5055	0.63035	0.392
Mof_C 	C 	0.71843	0.24719	0.43035	-0.024
Mof_C 	C 	0.71983	0.29004	0.48579	-0.099
Mof_C 	C 	0.76261	0.29106	0.54133	0.01
Mof_C 	C 	0.80401	0.25104	0.53997	-0.044
Mof_C 	C 	0.80299	0.2077	0.48473	-0.029
Mof_C 	C 	0.75819	0.20516	0.43087	0.06
Mof_N 	N 	0.75031	0.15895	0.37955	-0.19
Mof_H 	H 	0.6848	0.24509	0.38849	0.044
Mof_H 	H 	0.83738	0.25435	0.58201	0.04
Mof_H 	H 	0.72022	0.15991	0.33557	0.08
Mof_H 	H 	0.76985	0.12149	0.38963	0.082
Mof_C 	C 	0.94712	0.00258	0.25093	-0.069
Mof_C 	C 	0.97862	0.03403	0.19789	-0.06
Mof_C 	C 	0.98463	0.09049	0.21293	0.026
Mof_C 	C 	0.9617	0.11423	0.28131	-0.046
Mof_C 	C 	0.93191	0.08219	0.33576	-0.027
Mof_C 	C 	0.92318	0.02605	0.31847	0.054
Mof_N 	N 	0.88907	0.99244	0.36778	-0.162
Mof_H 	H 	0.94074	0.95926	0.23971	0.082
Mof_H 	H 	0.96856	0.15741	0.29296	0.047
Mof_H 	H 	0.88616	0.9502	0.35803	0.088
Mof_H 	H 	0.863	0.00956	0.41002	0.064
Mof_C 	C 	0.94956	0.99739	0.71305	0.05
Mof_C 	C 	0.97686	0.02989	0.76955	-0.116
Mof_C 	C 	0.97797	0.08706	0.75811	0.02
Mof_C 	C 	0.95432	0.11072	0.69025	-0.058
Mof_C 	C 	0.92877	0.07791	0.6324	-0.007
Mof_C 	C 	0.92509	0.02067	0.64567	-0.003
Mof_N 	N 	0.89563	0.98561	0.59242	-0.153
Mof_H 	H 	0.94701	0.95335	0.72124	0.043
Mof_H 	H 	0.95748	0.15467	0.68164	0.045
Mof_H 	H 	0.89643	0.94302	0.59953	0.087
Mof_H 	H 	0.86938	0.00153	0.54946	0.063
Mof_C 	C 	0.34229	0.61405	0.50486	-0.042
Mof_C 	C 	0.35648	0.66811	0.48423	-0.033
Mof_C 	C 	0.41152	0.67956	0.46313	0.064
Mof_C 	C 	0.45083	0.63702	0.46339	-0.028
Mof_C 	C 	0.43645	0.58276	0.48351	-0.095
Mof_C 	C 	0.38155	0.57189	0.50395	0.006
Mof_H 	H 	0.30039	0.60436	0.52117	0.038
Mof_H 	H 	0.49285	0.64647	0.4474	0.05
Mof_N 	N 	0.42847	0.7341	0.4426	-0.19
Mof_H 	H 	0.4014	0.76728	0.44431	0.088
Mof_H 	H 	0.46907	0.74206	0.42637	0.085
Mof_C 	C 	0.25625	0.817	0.69029	-0.042
Mof_C 	C 	0.22405	0.78854	0.63453	-0.031
Mof_C 	C 	0.16747	0.78138	0.65038	0.061
Mof_C 	C 	0.14396	0.80538	0.71795	-0.028
Mof_C 	C 	0.17565	0.83566	0.77227	-0.097
Mof_C 	C 	0.23241	0.84016	0.75848	0.007
Mof_H 	H 	0.29971	0.82282	0.67972	0.042
Mof_H 	H 	0.10035	0.80017	0.728	0.046
Mof_N 	N 	0.13338	0.7489	0.59951	-0.19
Mof_H 	H 	0.15015	0.72304	0.55672	0.081
Mof_H 	H 	0.09099	0.74708	0.60837	0.077
Mof_C 	C 	0.14257	0.80752	0.25514	-0.028
Mof_C 	C 	0.17422	0.83683	0.19975	-0.092
Mof_C 	C 	0.23118	0.84053	0.21242	0.007
Mof_C 	C 	0.25533	0.81742	0.28039	-0.04
Mof_C 	C 	0.22327	0.78977	0.33714	-0.031
Mof_C 	C 	0.16639	0.78347	0.32249	0.063
Mof_N 	N 	0.1323	0.75163	0.37419	-0.19
Mof_H 	H 	0.09879	0.80295	0.24598	0.049
Mof_H 	H 	0.299	0.82256	0.28992	0.042
Mof_H 	H 	0.08979	0.75059	0.36635	0.079
Mof_H 	H 	0.14909	0.7253	0.41636	0.082
Mof_C 	C 	0.69996	0.61001	0.19049	-0.037
Mof_C 	C 	0.72543	0.57726	0.13249	-0.035
Mof_C 	C 	0.72927	0.52001	0.14578	0.069
Mof_C 	C 	0.70488	0.49668	0.21322	-0.029
Mof_C 	C 	0.67762	0.52917	0.26977	-0.093
Mof_C 	C 	0.67647	0.58633	0.25838	0.006
Mof_H 	H 	0.69668	0.65396	0.18192	0.04
Mof_H 	H 	0.70746	0.45265	0.22143	0.053
Mof_N 	N 	0.75887	0.48503	0.0926	-0.19
Mof_H 	H 	0.7853	0.50102	0.04994	0.091
Mof_H 	H 	0.75809	0.44244	0.09963	0.087
Mof_C 	C 	0.69332	0.61359	0.78065	-0.041
Mof_C 	C 	0.7227	0.58154	0.83555	-0.034
Mof_C 	C 	0.73113	0.52527	0.81864	0.063
Mof_C 	C 	0.70719	0.50175	0.7511	-0.027
Mof_C 	C 	0.67606	0.53325	0.69769	-0.096
Mof_C 	C 	0.67045	0.5898	0.7123	0.007
Mof_H 	H 	0.68662	0.65683	0.79198	0.04
Mof_H 	H 	0.71327	0.45834	0.74017	0.049
Mof_N 	N 	0.76495	0.4916	0.86825	-0.19
Mof_H 	H 	0.79122	0.50871	0.91023	0.081
Mof_H 	H 	0.76752	0.4493	0.85887	0.08
Mof_C 	C 	0.84342	0.75866	0.04044	0.078
Mof_C 	C 	0.84354	0.71459	0.98529	-0.044
Mof_C 	C 	0.88688	0.71193	0.93011	-0.04
Mof_C 	C 	0.92899	0.75115	0.92972	0.01
Mof_C 	C 	0.9302	0.79325	0.98625	-0.106
Mof_C 	C 	0.88744	0.79625	0.0418	-0.01
Mof_N 	N 	0.79787	0.76794	0.09248	-0.191
Mof_H 	H 	0.96142	0.74781	0.88617	0.038
Mof_C 	C 	0.41804	0.33995	0.26366	-0.029
Mof_C 	C 	0.47557	0.33897	0.27155	-0.095
Mof_C 	C 	0.5065	0.31441	0.21084	0.006
Mof_C 	C 	0.48113	0.29284	0.14352	-0.039
Mof_C 	C 	0.42389	0.29492	0.13407	-0.035
Mof_C 	C 	0.39193	0.31862	0.19547	0.064
Mof_N 	N 	0.33354	0.32407	0.1882	-0.191
Mof_H 	H 	0.39336	0.35907	0.30928	0.048
Mof_H 	H 	0.50658	0.27484	0.0978	0.041
Mof_H 	H 	0.31034	0.34013	0.23469	0.082
Mof_H 	H 	0.31289	0.31468	0.1359	0.087
Mof_C 	C 	0.41938	0.34053	0.70736	-0.029
Mof_C 	C 	0.47698	0.33993	0.70029	-0.095
Mof_C 	C 	0.50766	0.31604	0.76177	0.005
Mof_C 	C 	0.4819	0.29454	0.82889	-0.042
Mof_C 	C 	0.42453	0.29614	0.83741	-0.034
Mof_C 	C 	0.3929	0.31939	0.77533	0.061
Mof_N 	N 	0.33443	0.32461	0.78166	-0.191
Mof_H 	H 	0.39488	0.35921	0.66117	0.047
Mof_H 	H 	0.50714	0.27688	0.87512	0.035
Mof_H 	H 	0.31147	0.34009	0.7345	0.078
Mof_H 	H 	0.31349	0.31591	0.83397	0.081
Mof_C 	C 	0.24483	0.17684	0.96507	-0.043
Mof_C 	C 	0.29974	0.16526	0.98408	-0.049
Mof_C 	C 	0.31444	0.11049	0.00245	0.076
Mof_C 	C 	0.27412	0.06888	0.00159	-0.016
Mof_C 	C 	0.21895	0.08068	0.98338	-0.11
Mof_C 	C 	0.20493	0.1353	0.96523	0.003
Mof_H 	H 	0.2327	0.21845	0.9507	0.033
Mof_H 	H 	0.28599	0.02717	0.01575	0.043
Mof_N 	N 	0.37007	0.09616	0.02099	-0.191
Mof_H 	H 	0.40171	0.12502	0.0196	0.089
Mof_H 	H 	0.38043	0.05576	0.03531	0.08
Mof_H 	H 	0.76479	0.32371	0.5847	0.034
Mof_H 	H 	0.99857	0.11336	0.80035	0.039
Mof_H 	H 	0.36895	0.53075	0.52006	0.037
Mof_H 	H 	0.25808	0.86313	0.79895	0.038
Mof_H 	H 	0.25686	0.86275	0.1711	0.042
Mof_H 	H 	0.64675	0.61526	0.67243	0.038
Mof_H 	H 	0.88869	0.67884	0.88744	0.04
Mof_H 	H 	0.55084	0.31257	0.21455	0.041
Mof_H 	H 	0.65589	0.61262	0.30067	0.039
Mof_H 	H 	0.88704	0.82949	0.08438	0.048
Mof_H 	H 	0.00861	0.1159	0.17334	0.017
Mof_H 	H 	0.55204	0.31457	0.75871	0.038
Mof_H 	H 	0.16299	0.14599	0.95064	0.032
Mof_H 	H 	0.75973	0.74963	0.08291	0.09
Mof_H 	H 	0.80027	0.79762	0.13693	0.087
_end
