data_functionalizedCrystal
_audit_creation_method	'EQeq! by Chris Wilmer'
_symmetry_space_group_name_H-M	'P1'
_symmetry_Int_Tables_number	1
_symmetry_cell_setting	triclinic
loop_
_symmetry_equiv_pos_as_xyz
  x,y,z
_cell_length_a	19.598
_cell_length_b	19.598
_cell_length_c	3.5015
_cell_angle_alpha	90
_cell_angle_beta	90
_cell_angle_gamma	90
loop_
_atom_site_label
_atom_site_type_symbol
_atom_site_fract_x
_atom_site_fract_y
_atom_site_fract_z
_atom_site_charge
Mof_Ag	Ag	0.46241	0.62253	0.0042	0.416
Mof_C 	C 	0.2696	0.561	0.619	1.371
Mof_C 	C 	0.3192	0.656	0.624	0.169
Mof_N 	N 	0.3623	0.6117	0.777	-0.217
Mof_N 	N 	0.26	0.6264	0.538	-0.495
Mof_N 	N 	0.3303	0.5508	0.784	-0.429
Mof_N 	N 	0.3373	0.7263	0.611	0.296
Mof_H 	H 	0.3758	0.7397	0.7019	-0.001
Mof_H 	H 	0.3096	0.7555	0.5117	0.001
Mof_N 	N 	0.2174	0.51	0.614	2.301
Mof_H 	H 	0.1761	0.5224	0.5701	-0.594
Mof_H 	H 	0.2265	0.4678	0.6588	-0.564
Mof_H 	H 	0.2379	0.5253	0.5572	-2.188
Mof_H 	H 	0.3325	0.715	0.5902	-0.371
Mof_Ag	Ag	0.53759	0.37747	0.0042	0.417
Mof_C 	C 	0.7304	0.439	0.619	1.372
Mof_C 	C 	0.6808	0.344	0.624	0.17
Mof_N 	N 	0.6377	0.3883	0.777	-0.216
Mof_N 	N 	0.74	0.3736	0.538	-0.495
Mof_N 	N 	0.6697	0.4492	0.784	-0.429
Mof_N 	N 	0.6627	0.2737	0.611	0.296
Mof_H 	H 	0.6242	0.2603	0.7019	-0.001
Mof_H 	H 	0.6904	0.2445	0.5117	0.001
Mof_N 	N 	0.7826	0.49	0.614	2.301
Mof_H 	H 	0.8239	0.4776	0.5701	-0.594
Mof_H 	H 	0.7735	0.5322	0.6588	-0.564
Mof_H 	H 	0.7621	0.4747	0.5572	-2.188
Mof_H 	H 	0.6675	0.285	0.5902	-0.371
Mof_Ag	Ag	0.62253	0.53759	0.9958	0.417
Mof_C 	C 	0.561	0.7304	0.381	1.372
Mof_C 	C 	0.656	0.6808	0.376	0.17
Mof_N 	N 	0.6117	0.6377	0.223	-0.216
Mof_N 	N 	0.6264	0.74	0.462	-0.495
Mof_N 	N 	0.5508	0.6697	0.216	-0.429
Mof_N 	N 	0.7263	0.6627	0.389	0.296
Mof_H 	H 	0.7397	0.6242	0.2981	-0.001
Mof_H 	H 	0.7555	0.6904	0.4883	0.001
Mof_N 	N 	0.51	0.7826	0.386	2.301
Mof_H 	H 	0.5224	0.8239	0.4299	-0.594
Mof_H 	H 	0.4678	0.7735	0.3412	-0.564
Mof_H 	H 	0.5253	0.7621	0.4428	-2.188
Mof_H 	H 	0.715	0.6675	0.4098	-0.371
Mof_Ag	Ag	0.37747	0.46241	0.9958	0.417
Mof_C 	C 	0.439	0.2696	0.381	1.372
Mof_C 	C 	0.344	0.3192	0.376	0.17
Mof_N 	N 	0.3883	0.3623	0.223	-0.216
Mof_N 	N 	0.3736	0.26	0.462	-0.495
Mof_N 	N 	0.4492	0.3303	0.216	-0.429
Mof_N 	N 	0.2737	0.3373	0.389	0.296
Mof_H 	H 	0.2603	0.3758	0.2981	-0.001
Mof_H 	H 	0.2445	0.3096	0.4883	0.001
Mof_N 	N 	0.49	0.2174	0.386	2.301
Mof_H 	H 	0.4776	0.1761	0.4299	-0.594
Mof_H 	H 	0.5322	0.2265	0.3412	-0.564
Mof_H 	H 	0.4747	0.2379	0.4428	-2.188
Mof_H 	H 	0.285	0.3325	0.4098	-0.371
Mof_Ag	Ag	0.96241	0.87747	0.5042	0.411
Mof_C 	C 	0.7696	0.939	0.119	1.384
Mof_C 	C 	0.8192	0.844	0.124	0.17
Mof_N 	N 	0.8623	0.8883	0.277	-0.217
Mof_N 	N 	0.76	0.8736	0.038	-0.494
Mof_N 	N 	0.8303	0.9492	0.284	-0.432
Mof_N 	N 	0.8373	0.7737	0.111	0.296
Mof_H 	H 	0.8758	0.7603	0.2019	-0.002
Mof_H 	H 	0.8096	0.7445	0.0117	0.002
Mof_N 	N 	0.7174	0.99	0.114	2.324
Mof_H 	H 	0.6761	0.9776	0.0701	-0.598
Mof_H 	H 	0.7265	0.0322	0.1588	-0.57
Mof_H 	H 	0.7379	0.9747	0.0572	-2.208
Mof_H 	H 	0.8325	0.785	0.0902	-0.372
Mof_Ag	Ag	0.03759	0.12253	0.5042	0.411
Mof_C 	C 	0.2304	0.061	0.119	1.384
Mof_C 	C 	0.1808	0.156	0.124	0.17
Mof_N 	N 	0.1377	0.1117	0.277	-0.217
Mof_N 	N 	0.24	0.1264	0.038	-0.494
Mof_N 	N 	0.1697	0.0508	0.284	-0.432
Mof_N 	N 	0.1627	0.2263	0.111	0.296
Mof_H 	H 	0.1242	0.2397	0.2019	-0.002
Mof_H 	H 	0.1904	0.2555	0.0117	0.002
Mof_N 	N 	0.2826	0.01	0.114	2.324
Mof_H 	H 	0.3239	0.0224	0.0701	-0.598
Mof_H 	H 	0.2735	0.9678	0.1588	-0.57
Mof_H 	H 	0.2621	0.0253	0.0572	-2.208
Mof_H 	H 	0.1675	0.215	0.0902	-0.372
Mof_Ag	Ag	0.12253	0.96241	0.4958	0.411
Mof_C 	C 	0.061	0.7696	0.881	1.384
Mof_C 	C 	0.156	0.8192	0.876	0.17
Mof_N 	N 	0.1117	0.8623	0.723	-0.217
Mof_N 	N 	0.1264	0.76	0.962	-0.494
Mof_N 	N 	0.0508	0.8303	0.716	-0.432
Mof_N 	N 	0.2263	0.8373	0.889	0.296
Mof_H 	H 	0.2397	0.8758	0.7981	-0.002
Mof_H 	H 	0.2555	0.8096	0.9883	0.002
Mof_N 	N 	0.01	0.7174	0.886	2.324
Mof_H 	H 	0.0224	0.6761	0.9299	-0.598
Mof_H 	H 	0.9678	0.7265	0.8412	-0.57
Mof_H 	H 	0.0253	0.7379	0.9428	-2.208
Mof_H 	H 	0.215	0.8325	0.9098	-0.372
Mof_Ag	Ag	0.87747	0.03759	0.4958	0.411
Mof_C 	C 	0.939	0.2304	0.881	1.384
Mof_C 	C 	0.844	0.1808	0.876	0.17
Mof_N 	N 	0.8883	0.1377	0.723	-0.217
Mof_N 	N 	0.8736	0.24	0.962	-0.494
Mof_N 	N 	0.9492	0.1697	0.716	-0.432
Mof_N 	N 	0.7737	0.1627	0.889	0.296
Mof_H 	H 	0.7603	0.1242	0.7981	-0.002
Mof_H 	H 	0.7445	0.1904	0.9883	0.002
Mof_N 	N 	0.99	0.2826	0.886	2.324
Mof_H 	H 	0.9776	0.3239	0.9299	-0.598
Mof_H 	H 	0.0322	0.2735	0.8412	-0.57
Mof_H 	H 	0.9747	0.2621	0.9428	-2.208
Mof_H 	H 	0.785	0.1675	0.9098	-0.372
Mof_Ag	Ag	0.17726	0.67726	0.25	0.608
Mof_Ag	Ag	0.82274	0.32274	0.25	0.608
Mof_Ag	Ag	0.67726	0.82274	0.75	0.608
Mof_Ag	Ag	0.32274	0.17726	0.75	0.608
_end
