data_functionalizedCrystal
_audit_creation_method	'EQeq! by Chris Wilmer'
_symmetry_space_group_name_H-M	'P1'
_symmetry_Int_Tables_number	1
_symmetry_cell_setting	triclinic
loop_
_symmetry_equiv_pos_as_xyz
  x,y,z
_cell_length_a	10.402
_cell_length_b	16.373
_cell_length_c	17.0657
_cell_angle_alpha	61.3339
_cell_angle_beta	87.3193
_cell_angle_gamma	84.4049
loop_
_atom_site_label
_atom_site_type_symbol
_atom_site_fract_x
_atom_site_fract_y
_atom_site_fract_z
_atom_site_charge
Mof_Co	Co	0.0459	0.69374	0.0532	1.127
Mof_Co	Co	0.5464	0.37047	0.69878	1.135
Mof_H 	H 	0.8069	0.7136	0.3146	0.057
Mof_H 	H 	0.3166	0.6745	0.1408	0
Mof_H 	H 	0.6886	0.4183	0.9614	0.031
Mof_H 	H 	0.7254	0.5534	0.4166	0.12
Mof_H 	H 	0.8187	0.2585	0.7894	-0.015
Mof_H 	H 	0.517	0.3778	0.8898	0.028
Mof_H 	H 	0.5595	0.6304	0.183	0.138
Mof_H 	H 	0.2765	0.3875	0.7884	-0.009
Mof_H 	H 	0.7788	0.624	0.1384	0.011
Mof_H 	H 	0.2787	0.7186	0.7148	0.069
Mof_H 	H 	0.2356	0.7966	0.5382	0.048
Mof_H 	H 	0.2845	0.275	0.727	-0.026
Mof_H 	H 	0.7383	0.005	0.6348	0.047
Mof_H 	H 	0.5613	0.1884	0.9044	0.021
Mof_H 	H 	0.9314	0.1057	0.6096	0.085
Mof_H 	H 	0.2578	0.9667	0.9364	0.14
Mof_H 	H 	0.0115	0.4589	0.7576	0.11
Mof_H 	H 	0.1949	0.5935	0.8594	0.108
Mof_H 	H 	0.2084	0.2603	0.3768	0.04
Mof_H 	H 	0.0368	0.3152	0.2778	0.013
Mof_H 	H 	0.0132	0.4779	0.1636	0.05
Mof_H 	H 	0.0064	0.7576	0.2058	-0.076
Mof_H 	H 	0.0946	0.2194	0.762	0.168
Mof_H 	H 	0.5412	0.1038	0.58	0.031
Mof_H 	H 	0.3869	0.4588	0.4162	0.097
Mof_H 	H 	0.5013	0.6061	0.5318	0.075
Mof_H 	H 	0.8023	0.4634	0.7176	0.002
Mof_H 	H 	0.832	0.5226	0.9408	0.093
Mof_H 	H 	0.4534	0.7682	0.484	0.04
Mof_H 	H 	0.4258	0.0569	0.949	0.032
Mof_H 	H 	0.899	0.9926	0.8518	0.135
Mof_H 	H 	0.3559	0.3678	0.368	0.061
Mof_H 	H 	0.5286	0.2416	0.5964	0.073
Mof_C 	C 	0.096	0.3562	0.2744	-0.006
Mof_C 	C 	0.407	0.7231	0.5296	-0.014
Mof_C 	C 	0.54	0.5041	0.4304	0.051
Mof_C 	C 	0.5975	0.196	0.6192	-0.121
Mof_C 	C 	0.608	0.1191	0.6032	-0.011
Mof_C 	C 	0.4398	0.6278	0.5604	-0.104
Mof_C 	C 	0.0165	0.5674	0.905	-0.008
Mof_C 	C 	0.28	0.6057	0.6808	0.069
Mof_C 	C 	0.4126	0.1157	0.8996	0.005
Mof_C 	C 	0.4516	0.4978	0.3856	-0.164
Mof_C 	C 	0.2835	0.6979	0.6726	-0.094
Mof_C 	C 	0.8497	0.1059	0.6342	-0.083
Mof_C 	C 	0.0803	0.9649	0.9082	0.08
Mof_C 	C 	0.0924	0.1551	0.7958	-0.444
Mof_C 	C 	0.254	0.4689	0.269	0.041
Mof_C 	C 	0.1208	0.5682	0.8554	-0.166
Mof_C 	C 	0.4918	0.1865	0.8732	-0
Mof_C 	C 	0.8114	0.6522	0.1684	0.089
Mof_C 	C 	0.9834	0.1155	0.8	0.316
Mof_C 	C 	0.198	0.3232	0.3344	-0.048
Mof_C 	C 	0.9022	0.5236	0.9046	-0.104
Mof_C 	C 	0.6534	0.6004	0.2958	0.199
Mof_C 	C 	0.0121	0.4864	0.7942	-0.281
Mof_C 	C 	0.3372	0.2347	0.7754	0.104
Mof_C 	C 	0.2987	0.4478	0.7508	0.075
Mof_C 	C 	0.1161	0.5304	0.7978	0.176
Mof_C 	C 	0.2848	0.3851	0.3306	-0.079
Mof_C 	C 	0.0786	0.4534	0.2062	-0.133
Mof_C 	C 	0.194	0.1043	0.8386	0.259
Mof_C 	C 	0.754	0.4408	0.77	0.102
Mof_C 	C 	0.6917	0.4194	0.9064	0.025
Mof_C 	C 	0.687	0.2012	0.667	0.067
Mof_C 	C 	0.0248	0.608	0.9692	0.197
Mof_C 	C 	0.4464	0.5491	0.2874	0.165
Mof_C 	C 	0.5983	0.3951	0.866	-0.017
Mof_C 	C 	0.9365	0.7272	0.204	0.152
Mof_C 	C 	0.8239	0.6989	0.2686	-0.027
Mof_C 	C 	0.9731	0.0196	0.8528	-0.196
Mof_C 	C 	0.542	0.4482	0.5308	0.246
Mof_C 	C 	0.1866	0.0025	0.902	-0.248
Mof_C 	C 	0.8989	0.4857	0.8534	0.206
Mof_C 	C 	0.0669	0.8633	0.9622	0.14
Mof_C 	C 	0.804	0.1441	0.6896	0.057
Mof_C 	C 	0.7317	0.0661	0.6254	-0.036
Mof_C 	C 	0.167	0.5029	0.2118	0.067
Mof_C 	C 	0.373	0.5661	0.6378	0.049
Mof_C 	C 	0.554	0.5988	0.245	-0.234
Mof_C 	C 	0.297	0.7487	0.5728	-0.037
Mof_C 	C 	0.2833	0.6165	0.1718	0.114
Mof_C 	C 	0.655	0.5543	0.3844	-0.192
Mof_C 	C 	0.8007	0.2356	0.751	0.129
Mof_N 	N 	0.308	0.1463	0.8396	-0.166
Mof_N 	N 	0.9146	0.699	0.1428	-0.242
Mof_N 	N 	0.7856	0.4442	0.8458	-0.147
Mof_N 	N 	0.8695	0.1706	0.7458	-0.18
Mof_N 	N 	0.3958	0.4674	0.6968	-0.236
Mof_N 	N 	0.226	0.5338	0.7456	-0.161
Mof_N 	N 	0.447	0.2536	0.7914	-0.24
Mof_N 	N 	0.7003	0.2678	0.6966	-0.233
Mof_N 	N 	0.6445	0.4004	0.7826	-0.243
Mof_N 	N 	0.3375	0.5478	0.2406	-0.159
Mof_N 	N 	0.1766	0.5971	0.1494	-0.258
Mof_N 	N 	0.7549	0.6491	0.2472	-0.147
Mof_O 	O 	0.4642	0.4004	0.5722	-0.398
Mof_O 	O 	0.9406	0.5992	0.025	-0.294
Mof_O 	O 	0.1091	0.6648	0.951	-0.376
Mof_O 	O 	0.637	0.4712	0.5722	-0.338
Mof_O 	O 	0.1465	0.8163	0.0274	-0.343
Mof_O 	O 	0.9723	0.8271	0.9512	-0.28
Mof_Co	Co	0.5459	0.74694	0.9468	1.159
Mof_Co	Co	0.0464	0.06925	0.30122	1.102
Mof_H 	H 	0.332	0.4634	0.0592	0.104
Mof_H 	H 	0.8166	0.8153	0.8592	0.004
Mof_H 	H 	0.0412	0.6838	0.42	0.013
Mof_H 	H 	0.8559	0.7358	0.632	0.077
Mof_H 	H 	0.0613	0.0928	0.0956	-0.094
Mof_H 	H 	0.6949	0.4529	0.1406	0.117
Mof_H 	H 	0.9534	0.2522	0.516	0.092
Mof_H 	H 	0.3069	0.0282	0.6854	0.007
Mof_H 	H 	0.017	0.2676	0.1102	0.001
Mof_H 	H 	0.2788	0.7624	0.8616	0.008
Mof_H 	H 	0.7084	0.6371	0.6232	0.051
Mof_H 	H 	0.9258	0.0059	0.051	0.081
Mof_H 	H 	0.0286	0.838	0.4036	0.051
Mof_H 	H 	0.7787	0.4334	0.2852	0.088
Mof_H 	H 	0.3023	0.181	0.2824	-0.011
Mof_H 	H 	0.3187	0.0479	0.2106	-0.038
Mof_H 	H 	0.7765	0.1759	0.2116	-0.004
Mof_H 	H 	0.7845	0.002	0.273	-0.017
Mof_H 	H 	0.5115	0.2165	0.2424	0.107
Mof_H 	H 	0.8869	0.875	0.5838	0.078
Mof_H 	H 	0.1886	0.3797	0.0386	0.021
Mof_H 	H 	0.0595	0.8134	0.817	0.151
Mof_H 	H 	0.399	0.8444	0.1482	0.118
Mof_H 	H 	0.5946	0.9814	0.238	0.139
Mof_H 	H 	0.2383	0.6398	0.3652	0.046
Mof_H 	H 	0.7356	0.3348	0.4618	0.034
Mof_H 	H 	0.5064	0.9634	0.7942	0.032
Mof_H 	H 	0.5132	0.6415	0.8364	0.076
Mof_H 	H 	0.4314	0.7153	0.3904	0.066
Mof_H 	H 	0.5368	0.593	0.7222	0.036
Mof_H 	H 	0.0013	0.1379	0.4682	-0.045
Mof_H 	H 	0.2254	0.97	0.5834	0.112
Mof_H 	H 	0.7578	0.9031	0.0636	0.118
Mof_C 	C 	0.4365	0.9312	0.796	-0.012
Mof_C 	C 	0.042	0.979	0.4692	0.175
Mof_C 	C 	0.5248	0.5772	0.0308	0.261
Mof_C 	C 	0.667	0.7147	0.7882	0.077
Mof_C 	C 	0.5924	0.9509	0.2042	-0.285
Mof_C 	C 	0.8372	0.0101	0.2246	0.1
Mof_C 	C 	0.0975	0.8152	0.3808	-0.123
Mof_C 	C 	0.6866	0.9045	0.098	-0.179
Mof_C 	C 	0.596	0.6306	0.7256	-0.001
Mof_C 	C 	0.4731	0.8724	0.1472	-0.189
Mof_C 	C 	0.907	0.2527	0.4704	-0.112
Mof_C 	C 	0.155	0.9387	0.6156	-0.186
Mof_C 	C 	0.5786	0.6596	0.7938	-0.127
Mof_C 	C 	0.108	0.7223	0.3968	-0.012
Mof_C 	C 	0.7835	0.3705	0.3274	-0.111
Mof_C 	C 	0.9126	0.0153	0.1004	-0.086
Mof_C 	C 	0.797	0.3215	0.4272	0.02
Mof_C 	C 	0.6161	0.3282	0.2022	0.175
Mof_C 	C 	0.1917	0.3258	0.0936	0.015
Mof_C 	C 	0.254	0.2108	0.23	0.094
Mof_C 	C 	0.7987	0.1986	0.2492	0.087
Mof_C 	C 	0.698	0.6576	0.6656	-0.035
Mof_C 	C 	0.3497	0.7401	0.3658	-0.078
Mof_C 	C 	0.9398	0.1882	0.4396	0.094
Mof_C 	C 	0.4834	0.9155	0.2	0.202
Mof_C 	C 	0.7848	0.7157	0.6694	-0.076
Mof_C 	C 	0.5803	0.8731	0.0918	0.073
Mof_C 	C 	0.3989	0.3391	0.1466	0.157
Mof_C 	C 	0.7833	0.7883	0.8282	0.128
Mof_C 	C 	0.054	0.8438	0.755	-0.328
Mof_C 	C 	0.187	0.8682	0.333	0.058
Mof_C 	C 	0.3114	0.8206	0.8316	0.083
Mof_C 	C 	0.1534	0.8962	0.7042	0.211
Mof_C 	C 	0.694	0.9429	0.1614	0.201
Mof_C 	C 	0.754	0.7379	0.731	0.049
Mof_C 	C 	0.5121	0.2806	0.2058	-0.206
Mof_C 	C 	0.78	0.2865	0.3192	0.102
Mof_C 	C 	0.9918	0.0597	0.1268	0.188
Mof_C 	C 	0.9516	0.8834	0.6144	-0.063
Mof_C 	C 	0.2317	0.6915	0.3746	-0.045
Mof_C 	C 	0.5165	0.4724	0.095	0.051
Mof_C 	C 	0.0983	0.2611	0.134	-0.021
Mof_C 	C 	0.304	0.8337	0.3104	0.051
Mof_C 	C 	0.9464	0.8365	0.7126	0.226
Mof_C 	C 	0.6208	0.4236	0.1446	-0.175
Mof_C 	C 	0.04	0.9345	0.5696	-0.028
Mof_C 	C 	0.3007	0.9866	0.249	0.138
Mof_C 	C 	0.3239	0.9675	0.7314	0.041
Mof_C 	C 	0.873	0.2039	0.3622	0.002
Mof_C 	C 	0.5669	0.8255	0.0378	0.221
Mof_C 	C 	0.4022	0.4282	0.0954	-0.172
Mof_N 	N 	0.6766	0.7465	0.8506	-0.251
Mof_N 	N 	0.726	0.2794	0.2544	-0.16
Mof_N 	N 	0.3695	0.9164	0.2542	-0.172
Mof_N 	N 	0.2549	0.8963	0.7528	-0.163
Mof_N 	N 	0.808	0.9859	0.1604	-0.128
Mof_N 	N 	0.4146	0.8418	0.8572	-0.235
Mof_N 	N 	0.2003	0.9644	0.3034	-0.24
Mof_N 	N 	0.8375	0.7884	0.7594	-0.162
Mof_N 	N 	0.1445	0.183	0.2174	-0.253
Mof_N 	N 	0.2856	0.29	0.1542	-0.146
Mof_N 	N 	0.947	0.045	0.2086	-0.247
Mof_N 	N 	0.8958	0.1642	0.3032	-0.208
Mof_O 	O 	0.4406	0.6242	0.975	-0.366
Mof_O 	O 	0.4723	0.7783	0.0488	-0.359
Mof_O 	O 	0.6465	0.8437	0.9726	-0.344
Mof_O 	O 	0.9642	0.9726	0.4278	-0.301
Mof_O 	O 	0.137	0.0434	0.4278	-0.343
Mof_O 	O 	0.6091	0.6158	0.049	-0.383
_end
