data_functionalizedCrystal
_audit_creation_method	'EQeq! by Chris Wilmer'
_symmetry_space_group_name_H-M	'P1'
_symmetry_Int_Tables_number	1
_symmetry_cell_setting	triclinic
loop_
_symmetry_equiv_pos_as_xyz
  x,y,z
_cell_length_a	7.3781
_cell_length_b	13.574
_cell_length_c	13.578
_cell_angle_alpha	113.181
_cell_angle_beta	103.841
_cell_angle_gamma	90.952
loop_
_atom_site_label
_atom_site_type_symbol
_atom_site_fract_x
_atom_site_fract_y
_atom_site_fract_z
_atom_site_charge
Mof_Cd	Cd	0.31565	0.22785	0.98577	0.454
Mof_Cd	Cd	0.36573	0.76845	0.60502	0.395
Mof_Cd	Cd	0.82032	0.24499	0.00416	0.459
Mof_Cd	Cd	0.60071	0.43771	0.23774	0.455
Mof_Cd	Cd	0.17968	0.75501	0.99584	0.459
Mof_Cd	Cd	0.39929	0.56229	0.76226	0.455
Mof_Cd	Cd	0.68435	0.77215	0.01423	0.453
Mof_Cd	Cd	0.63427	0.23155	0.39498	0.395
Mof_Cd	Cd	0.5	0.5	0.5	0.455
Mof_H 	H 	0.0804	0.2253	0.5185	0.193
Mof_H 	H 	0.7838	0.4002	0.7536	0.205
Mof_H 	H 	0.8065	0.7169	0.3563	0.203
Mof_H 	H 	0.9046	0.4052	0.8673	0.209
Mof_H 	H 	0.8258	0.8937	0.7338	0.206
Mof_H 	H 	0.0706	0.9992	0.1654	0.203
Mof_H 	H 	0.0954	0.5948	0.1327	0.209
Mof_H 	H 	0.9196	0.7747	0.4815	0.193
Mof_H 	H 	0.1742	0.1063	0.2662	0.206
Mof_H 	H 	0.2162	0.5998	0.2464	0.205
Mof_H 	H 	0.9294	0.0008	0.8346	0.203
Mof_H 	H 	0.1935	0.2831	0.6437	0.203
Mof_C 	C 	0.9589	0.6176	0.4117	0.258
Mof_C 	C 	0.3716	0.5968	0.1425	0.266
Mof_C 	C 	0.8309	0.9414	0.8099	-0.507
Mof_C 	C 	0.6669	0.6939	0.4604	0.451
Mof_C 	C 	0.6284	0.4032	0.8575	0.266
Mof_C 	C 	0.1691	0.0586	0.1901	-0.507
Mof_C 	C 	0.6468	0.9845	0.814	0.277
Mof_C 	C 	0.1988	0.5654	0.1666	-0.52
Mof_C 	C 	0.157	0.2914	0.5741	-0.519
Mof_C 	C 	0.1402	0.4449	0.128	0.455
Mof_C 	C 	0.3331	0.3061	0.5396	0.451
Mof_C 	C 	0.3532	0.0155	0.186	0.277
Mof_C 	C 	0.8012	0.4346	0.8334	-0.52
Mof_C 	C 	0.8598	0.5551	0.872	0.455
Mof_C 	C 	0.1223	0.1206	0.1161	0.451
Mof_C 	C 	0.0411	0.3824	0.5883	0.258
Mof_C 	C 	0.843	0.7086	0.4259	-0.519
Mof_C 	C 	0.8777	0.8794	0.8839	0.451
Mof_N 	N 	0.6266	0.0822	0.8829	-0.139
Mof_N 	N 	0.6583	0.6069	0.132	-0.05
Mof_N 	N 	0.3483	0.9892	0.7944	-0.046
Mof_N 	N 	0.0481	0.8144	0.2113	-0.042
Mof_N 	N 	0.8849	0.1665	0.6988	-0.076
Mof_N 	N 	0.189	0.5275	0.4319	-0.066
Mof_N 	N 	0.4377	0.0823	0.8687	-0.063
Mof_N 	N 	0.0429	0.4581	0.3645	-0.042
Mof_N 	N 	0.6517	0.0108	0.2056	-0.046
Mof_N 	N 	0.9854	0.7913	0.1154	-0.125
Mof_N 	N 	0.102	0.4861	0.6486	-0.138
Mof_N 	N 	0.6146	0.3349	0.9041	-0.138
Mof_N 	N 	0.3417	0.3931	0.868	-0.05
Mof_N 	N 	0.3734	0.9178	0.1171	-0.139
Mof_N 	N 	0.9519	0.1856	0.7887	-0.042
Mof_N 	N 	0.5379	0.5591	0.1647	-0.139
Mof_N 	N 	0.1151	0.8335	0.3012	-0.076
Mof_N 	N 	0.5657	0.6692	0.0904	-0.072
Mof_N 	N 	0.9571	0.5419	0.6355	-0.042
Mof_N 	N 	0.4621	0.4409	0.8353	-0.139
Mof_N 	N 	0.811	0.4725	0.5681	-0.066
Mof_N 	N 	0.3854	0.6651	0.0959	-0.138
Mof_N 	N 	0.8601	0.372	0.5374	-0.15
Mof_N 	N 	0.5623	0.9177	0.1313	-0.063
Mof_N 	N 	0.898	0.5139	0.3514	-0.138
Mof_N 	N 	0.0146	0.2087	0.8846	-0.125
Mof_N 	N 	0.1399	0.628	0.4626	-0.15
Mof_N 	N 	0.5204	0.0736	0.2421	-0.139
Mof_N 	N 	0.4796	0.9264	0.7579	-0.139
Mof_N 	N 	0.4343	0.3308	0.9096	-0.072
Mof_O 	O 	0.5731	0.601	0.4115	-0.339
Mof_O 	O 	0.6206	0.7737	0.5304	-0.332
Mof_O 	O 	0.0288	0.8376	0.885	-0.305
Mof_O 	O 	0.4269	0.399	0.5885	-0.339
Mof_O 	O 	0.2695	0.3847	0.1335	-0.324
Mof_O 	O 	0.5028	0.6411	0.6606	-0.23
Mof_O 	O 	0.3794	0.2263	0.4696	-0.332
Mof_O 	O 	0.6102	0.2761	0.108	-0.223
Mof_O 	O 	0.7651	0.877	0.9377	-0.313
Mof_O 	O 	0.2349	0.123	0.0623	-0.313
Mof_O 	O 	0.9701	0.4144	0.096	-0.33
Mof_O 	O 	0.4972	0.3589	0.3394	-0.23
Mof_O 	O 	0.7305	0.6153	0.8665	-0.324
Mof_O 	O 	0.0299	0.5856	0.904	-0.33
Mof_O 	O 	0.3898	0.7239	0.892	-0.223
Mof_O 	O 	0.9712	0.1624	0.115	-0.305
_end
