data_functionalizedCrystal
_audit_creation_method	'EQeq! by Chris Wilmer'
_symmetry_space_group_name_H-M	'P1'
_symmetry_Int_Tables_number	1
_symmetry_cell_setting	triclinic
loop_
_symmetry_equiv_pos_as_xyz
  x,y,z
_cell_length_a	10.639
_cell_length_b	10.6982
_cell_length_c	11.9375
_cell_angle_alpha	70.078
_cell_angle_beta	77.61
_cell_angle_gamma	60.7997
loop_
_atom_site_label
_atom_site_type_symbol
_atom_site_fract_x
_atom_site_fract_y
_atom_site_fract_z
_atom_site_charge
Mof_Ho	Ho	0.54876	0.99808	0.16083	2.091
Mof_Ho	Ho	0.45124	0.00192	0.83917	1.785
Mof_Cu	Cu	-0	0	-0	0.802
Mof_Cu	Cu	-0	0	0.5	0.819
Mof_H 	H 	0.0096	0.273	0.514	-0.114
Mof_H 	H 	0.9122	0.5247	0.4283	0.134
Mof_H 	H 	0.6868	0.4799	0.231	0.094
Mof_H 	H 	0.7834	0.2307	0.3278	-0.019
Mof_H 	H 	0.9971	0.7213	0.1787	0.123
Mof_H 	H 	0.1318	0.4661	0.2207	0.011
Mof_H 	H 	0.3942	0.5297	0.9356	0.054
Mof_H 	H 	0.2534	0.7779	0.9002	0.012
Mof_H 	H 	0.9904	0.727	0.486	0.121
Mof_H 	H 	0.0878	0.4753	0.5717	0.021
Mof_H 	H 	0.3132	0.5201	0.769	0.07
Mof_H 	H 	0.2166	0.7693	0.6722	0.027
Mof_H 	H 	0.0029	0.2787	0.8213	-0.106
Mof_H 	H 	0.8682	0.5339	0.7793	0.151
Mof_H 	H 	0.6058	0.4703	0.0644	0.109
Mof_H 	H 	0.7466	0.2221	0.0998	-0.046
Mof_C 	C 	0.1775	0.978	0.2819	-0.05
Mof_C 	C 	0.1717	0.9887	0.1643	0.061
Mof_C 	C 	0.2844	0.9648	0.3571	0.406
Mof_C 	C 	0.2649	0.0028	0.0539	0.238
Mof_C 	C 	0.9429	0.3154	0.4564	0.261
Mof_C 	C 	0.8861	0.4666	0.4047	-0.205
Mof_C 	C 	0.7899	0.5306	0.3173	0.066
Mof_C 	C 	0.7523	0.4402	0.289	-0.142
Mof_C 	C 	0.8118	0.2902	0.347	0.104
Mof_C 	C 	0.7208	0.6969	0.2558	0.278
Mof_C 	C 	0.0779	0.6815	0.1293	-0.129
Mof_C 	C 	0.1583	0.5281	0.1552	0.034
Mof_C 	C 	0.2794	0.4682	0.0814	-0.126
Mof_C 	C 	0.3133	0.5659	0.9861	0.009
Mof_C 	C 	0.229	0.7144	0.9658	0.072
Mof_C 	C 	0.3708	0.3032	0.1071	0.337
Mof_C 	C 	0.8225	0.022	0.7181	-0.009
Mof_C 	C 	0.8283	0.0113	0.8357	-0.122
Mof_C 	C 	0.7156	0.0352	0.6429	0.361
Mof_C 	C 	0.7351	0.9972	0.9461	0.507
Mof_C 	C 	0.0571	0.6846	0.5436	-0.098
Mof_C 	C 	0.1139	0.5334	0.5953	0
Mof_C 	C 	0.2101	0.4694	0.6827	-0.053
Mof_C 	C 	0.2477	0.5598	0.711	-0.051
Mof_C 	C 	0.1882	0.7098	0.653	0.04
Mof_C 	C 	0.2792	0.3031	0.7442	0.317
Mof_C 	C 	0.9221	0.3185	0.8707	0.27
Mof_C 	C 	0.8417	0.4719	0.8448	-0.224
Mof_C 	C 	0.7206	0.5318	0.9186	0.127
Mof_C 	C 	0.6867	0.4341	0.0139	-0.219
Mof_C 	C 	0.771	0.2856	0.0342	0.11
Mof_C 	C 	0.6292	0.6968	0.8929	0.241
Mof_N 	N 	0.0539	0.9765	0.337	-0.169
Mof_N 	N 	0.9755	0.9811	0.2619	-0.006
Mof_N 	N 	0.0473	0.9897	0.156	-0.185
Mof_N 	N 	0.9079	0.2265	0.4289	-0.241
Mof_N 	N 	0.1121	0.7747	0.0356	-0.192
Mof_N 	N 	0.9461	0.0235	0.663	-0.132
Mof_N 	N 	0.0245	0.0189	0.7381	-0.141
Mof_N 	N 	0.9527	0.0103	0.844	-0.111
Mof_N 	N 	0.0921	0.7735	0.5711	-0.168
Mof_N 	N 	0.8879	0.2253	0.9644	-0.225
Mof_O 	O 	0.2351	0.9921	0.4545	-0.316
Mof_O 	O 	0.4137	0.923	0.3173	-0.475
Mof_O 	O 	0.3821	0.0048	0.0566	-0.601
Mof_O 	O 	0.2234	0.0146	0.9582	-0.462
Mof_O 	O 	0.7382	0.7832	0.2926	-0.395
Mof_O 	O 	0.6494	0.7412	0.1681	-0.413
Mof_O 	O 	0.487	0.2534	0.0461	-0.48
Mof_O 	O 	0.3331	0.2176	0.1916	-0.478
Mof_O 	O 	0.7649	0.0079	0.5455	-0.364
Mof_O 	O 	0.5863	0.077	0.6827	-0.476
Mof_O 	O 	0.6179	0.9952	0.9434	-0.516
Mof_O 	O 	0.7766	0.9854	0.0418	-0.512
Mof_O 	O 	0.2618	0.2168	0.7074	-0.409
Mof_O 	O 	0.3506	0.2588	0.8319	-0.398
Mof_O 	O 	0.513	0.7466	0.9539	-0.344
Mof_O 	O 	0.6669	0.7824	0.8084	-0.341
_end
