data_functionalizedCrystal
_audit_creation_method	'EQeq! by Chris Wilmer'
_symmetry_space_group_name_H-M	'P1'
_symmetry_Int_Tables_number	1
_symmetry_cell_setting	triclinic
loop_
_symmetry_equiv_pos_as_xyz
  x,y,z
_cell_length_a	10.7822
_cell_length_b	12.1806
_cell_length_c	12.3369
_cell_angle_alpha	94.2028
_cell_angle_beta	106.305
_cell_angle_gamma	100.919
loop_
_atom_site_label
_atom_site_type_symbol
_atom_site_fract_x
_atom_site_fract_y
_atom_site_fract_z
_atom_site_charge
Mof_Tb	Tb	0.91283	0.19031	0.00122	2.092
Mof_Tb	Tb	0.08717	0.80969	0.99878	2.092
Mof_H 	H 	0.7066	0.9326	0.9731	0.003
Mof_H 	H 	0.4913	0.8303	0.9009	0.06
Mof_H 	H 	0.3286	0.9132	0.8007	0.055
Mof_H 	H 	0.2671	0.0858	0.7135	0.061
Mof_H 	H 	0.329	0.268	0.6865	0.049
Mof_H 	H 	0.5106	0.4407	0.7087	0.039
Mof_H 	H 	0.7298	0.5273	0.7801	0.074
Mof_H 	H 	0.8783	0.4325	0.8852	0.009
Mof_H 	H 	0.7419	0.302	0.3197	0.037
Mof_H 	H 	0.7624	0.3904	0.4939	0.061
Mof_H 	H 	0.1038	0.4708	0.334	0.06
Mof_H 	H 	0.177	0.4574	0.8321	0.045
Mof_H 	H 	0.3598	0.5898	0.8326	0.064
Mof_H 	H 	0.3975	0.3255	0.0871	0.057
Mof_H 	H 	0.9694	0.1828	0.7114	0.01
Mof_H 	H 	0.9732	0.2097	0.5303	0.075
Mof_H 	H 	0.0163	0.8663	0.6601	0.033
Mof_H 	H 	0.2934	0.0674	0.0269	0.004
Mof_H 	H 	0.5087	0.1697	0.0991	0.061
Mof_H 	H 	0.6714	0.0868	0.1993	0.056
Mof_H 	H 	0.7329	0.9142	0.2865	0.062
Mof_H 	H 	0.671	0.732	0.3135	0.049
Mof_H 	H 	0.4894	0.5593	0.2913	0.039
Mof_H 	H 	0.2702	0.4727	0.2199	0.074
Mof_H 	H 	0.1217	0.5675	0.1148	0.009
Mof_H 	H 	0.2581	0.698	0.6803	0.037
Mof_H 	H 	0.2376	0.6096	0.5061	0.061
Mof_H 	H 	0.8962	0.5292	0.666	0.06
Mof_H 	H 	0.823	0.5426	0.1679	0.045
Mof_H 	H 	0.6402	0.4102	0.1674	0.064
Mof_H 	H 	0.6025	0.6745	0.9129	0.057
Mof_H 	H 	0.0306	0.8172	0.2886	0.01
Mof_H 	H 	0.0268	0.7903	0.4697	0.075
Mof_H 	H 	0.9837	0.1337	0.3399	0.033
Mof_C 	C 	0.6423	0.9675	0.9319	0.063
Mof_C 	C 	0.5121	0.9051	0.8886	-0.076
Mof_C 	C 	0.4159	0.9537	0.8285	-0.052
Mof_C 	C 	0.4501	0.0671	0.8087	0.021
Mof_C 	C 	0.3552	0.1238	0.7442	-0.069
Mof_C 	C 	0.3924	0.2321	0.7273	-0.044
Mof_C 	C 	0.5268	0.2921	0.7711	-0.002
Mof_C 	C 	0.5707	0.4028	0.7511	-0.023
Mof_C 	C 	0.7002	0.4542	0.7933	-0.098
Mof_C 	C 	0.7894	0.3962	0.857	0.077
Mof_C 	C 	0.6224	0.2397	0.836	0.037
Mof_C 	C 	0.5824	0.1236	0.8554	0.025
Mof_C 	C 	0.9081	0.3207	0.1932	0.292
Mof_C 	C 	0.9222	0.3778	0.3091	-0.066
Mof_C 	C 	0.8193	0.3545	0.3588	-0.001
Mof_C 	C 	0.8315	0.4072	0.4624	-0.09
Mof_C 	C 	0.0357	0.4552	0.3669	-0.043
Mof_C 	C 	0.9484	0.488	0.5244	0.022
Mof_C 	C 	0.1475	0.3039	0.9696	0.302
Mof_C 	C 	0.2711	0.3812	0.9636	-0.058
Mof_C 	C 	0.2589	0.4592	0.8842	-0.002
Mof_C 	C 	0.3683	0.5375	0.884	-0.085
Mof_C 	C 	0.3908	0.3795	0.0374	-0.045
Mof_C 	C 	0.494	0.5397	0.9611	0.027
Mof_C 	C 	0.9898	0.0043	0.8219	0.566
Mof_C 	C 	0.9931	0.0203	0.7026	-0.172
Mof_C 	C 	0.9795	0.1247	0.6635	0.068
Mof_C 	C 	0.9809	0.1403	0.5551	-0.121
Mof_C 	C 	0.0066	0.9344	0.6329	-0.003
Mof_C 	C 	0.9939	0.053	0.481	0.019
Mof_C 	C 	0.3577	0.0325	0.0681	0.063
Mof_C 	C 	0.4879	0.0949	0.1114	-0.076
Mof_C 	C 	0.5841	0.0463	0.1715	-0.052
Mof_C 	C 	0.5499	0.9329	0.1913	0.021
Mof_C 	C 	0.6448	0.8762	0.2558	-0.069
Mof_C 	C 	0.6076	0.7679	0.2727	-0.044
Mof_C 	C 	0.4732	0.7079	0.2289	-0.002
Mof_C 	C 	0.4293	0.5972	0.2489	-0.023
Mof_C 	C 	0.2998	0.5458	0.2067	-0.098
Mof_C 	C 	0.2106	0.6038	0.143	0.077
Mof_C 	C 	0.3776	0.7603	0.164	0.037
Mof_C 	C 	0.4176	0.8764	0.1446	0.025
Mof_C 	C 	0.0919	0.6793	0.8068	0.292
Mof_C 	C 	0.0778	0.6222	0.6909	-0.066
Mof_C 	C 	0.1807	0.6455	0.6412	-0.001
Mof_C 	C 	0.1685	0.5928	0.5376	-0.09
Mof_C 	C 	0.9643	0.5448	0.6331	-0.043
Mof_C 	C 	0.0516	0.512	0.4756	0.022
Mof_C 	C 	0.8525	0.6961	0.0304	0.302
Mof_C 	C 	0.7289	0.6188	0.0364	-0.058
Mof_C 	C 	0.7411	0.5408	0.1158	-0.002
Mof_C 	C 	0.6317	0.4625	0.116	-0.085
Mof_C 	C 	0.6092	0.6205	0.9626	-0.045
Mof_C 	C 	0.506	0.4603	0.0389	0.027
Mof_C 	C 	0.0102	0.9957	0.1781	0.566
Mof_C 	C 	0.0069	0.9797	0.2974	-0.172
Mof_C 	C 	0.0205	0.8753	0.3365	0.068
Mof_C 	C 	0.0191	0.8597	0.4449	-0.121
Mof_C 	C 	0.9934	0.0656	0.3671	-0.003
Mof_C 	C 	0.0061	0.947	0.519	0.019
Mof_N 	N 	0.6783	0.0743	0.917	-0.228
Mof_N 	N 	0.753	0.2914	0.8792	-0.241
Mof_N 	N 	0.3217	0.9257	0.083	-0.228
Mof_N 	N 	0.247	0.7086	0.1208	-0.241
Mof_O 	O 	0.8047	0.2492	0.1391	-0.432
Mof_O 	O 	0.0031	0.3442	0.1513	-0.43
Mof_O 	O 	0.037	0.3161	0.9103	-0.45
Mof_O 	O 	0.1558	0.2295	0.037	-0.399
Mof_O 	O 	0.9286	0.0632	0.8653	-0.582
Mof_O 	O 	0.0492	0.9337	0.8708	-0.593
Mof_O 	O 	0.1953	0.7508	0.8609	-0.432
Mof_O 	O 	0.9969	0.6558	0.8487	-0.43
Mof_O 	O 	0.963	0.6839	0.0897	-0.45
Mof_O 	O 	0.8442	0.7705	0.963	-0.399
Mof_O 	O 	0.0714	0.9368	0.1347	-0.582
Mof_O 	O 	0.9508	0.0663	0.1292	-0.593
_end
