data_functionalizedCrystal
_audit_creation_method	'EQeq! by Chris Wilmer'
_symmetry_space_group_name_H-M	'P1'
_symmetry_Int_Tables_number	1
_symmetry_cell_setting	triclinic
loop_
_symmetry_equiv_pos_as_xyz
  x,y,z
_cell_length_a	13.102
_cell_length_b	13.134
_cell_length_c	25.336
_cell_angle_alpha	93.935
_cell_angle_beta	90
_cell_angle_gamma	90
loop_
_atom_site_label
_atom_site_type_symbol
_atom_site_fract_x
_atom_site_fract_y
_atom_site_fract_z
_atom_site_charge
Mof_Mn	Mn	0.05282	0.76149	0.48483	0.948
Mof_Mn	Mn	0.55282	0.73851	0.01517	0.939
Mof_Mn	Mn	0.30616	0.47132	0.99833	0.853
Mof_Mn	Mn	0.5	0	-0	0.941
Mof_Mn	Mn	0.19384	0.97132	0.49833	0.839
Mof_Mn	Mn	0.69384	0.52868	0.00167	0.801
Mof_Mn	Mn	0.80616	0.02868	0.50167	0.814
Mof_Mn	Mn	0.94718	0.23851	0.51517	0.977
Mof_Mn	Mn	-1.52346e-32	0.5	0.5	0.97
Mof_Mn	Mn	0.44718	0.26149	0.98483	0.99
Mof_H 	H 	0.8918	0.0393	0.3472	0.148
Mof_H 	H 	0.6486	0.7001	0.88	-0
Mof_H 	H 	0.6156	0.3311	0.1527	0.137
Mof_H 	H 	0.8393	0.4446	0.1431	-0.006
Mof_H 	H 	0.8617	0.1495	0.1679	0.118
Mof_H 	H 	0.4682	0.1831	0.7459	0.154
Mof_H 	H 	0.7437	0.5906	0.5955	0.007
Mof_H 	H 	0.6667	0.7358	0.7902	0.141
Mof_H 	H 	0.3097	0.9965	0.1425	-0.013
Mof_H 	H 	0.8149	0.8088	0.3787	-0.022
Mof_H 	H 	0.8348	0.8734	0.2286	0.125
Mof_H 	H 	0.9407	0.8661	0.8253	0.141
Mof_H 	H 	0.1486	0.7999	0.62	-0.005
Mof_H 	H 	0.3617	0.3505	0.3321	0.127
Mof_H 	H 	0.1383	0.8505	0.8321	0.134
Mof_H 	H 	0.2563	0.4094	0.4045	0.005
Mof_H 	H 	0.8333	0.2358	0.2902	0.144
Mof_H 	H 	0.7321	0.8195	0.1574	0.023
Mof_H 	H 	0.0318	0.6831	0.2459	0.133
Mof_H 	H 	0.6082	0.5393	0.8472	0.138
Mof_H 	H 	0.5144	0.9477	0.8741	0.153
Mof_H 	H 	0.1607	0.5554	0.8569	-0.009
Mof_H 	H 	0.5318	0.8169	0.2541	0.157
Mof_H 	H 	0.6383	0.6495	0.6679	0.127
Mof_H 	H 	0.4625	0.7702	0.3336	0.003
Mof_H 	H 	0.2679	0.1805	0.8426	0
Mof_H 	H 	0.4184	0.6644	0.5844	0.01
Mof_H 	H 	0.0489	0.9333	0.2186	0.189
Mof_H 	H 	0.9148	0.402	0.2221	0.146
Mof_H 	H 	0.6174	0.1328	0.2692	0.16
Mof_H 	H 	0.3844	0.6689	0.8473	0.142
Mof_H 	H 	0.1903	0.4965	0.6425	-0.019
Mof_H 	H 	0.7563	0.0906	0.0955	0.018
Mof_H 	H 	0.2216	0.6789	0.1987	0.154
Mof_H 	H 	0.6903	0.0035	0.8575	-0.021
Mof_H 	H 	0.3149	0.6912	0.1213	-0.027
Mof_H 	H 	0.0816	0.1644	0.0844	0.002
Mof_H 	H 	0.2437	0.9094	0.9045	-0.004
Mof_H 	H 	0.3333	0.2642	0.2098	0.142
Mof_H 	H 	0.4856	0.0523	0.1259	0.133
Mof_H 	H 	0.7216	0.8211	0.3013	0.157
Mof_H 	H 	0.7679	0.3195	0.6574	0.011
Mof_H 	H 	0.1667	0.7642	0.7098	0.139
Mof_H 	H 	0.1156	0.1689	0.3473	0.141
Mof_H 	H 	0.2321	0.6805	0.3426	0.01
Mof_H 	H 	0.1174	0.3672	0.2308	0.168
Mof_H 	H 	0.7784	0.3211	0.8013	0.156
Mof_H 	H 	0.8826	0.6328	0.7692	0.163
Mof_H 	H 	0.3514	0.2999	0.12	-0.004
Mof_H 	H 	0.1652	0.1266	0.7714	0.149
Mof_H 	H 	0.8514	0.2001	0.38	-0
Mof_H 	H 	0.0144	0.5523	0.6259	0.113
Mof_H 	H 	0.9184	0.8356	0.9156	0.019
Mof_H 	H 	0.6607	0.9446	0.6431	-0.008
Mof_H 	H 	0.9682	0.3169	0.7541	0.179
Mof_H 	H 	0.1082	0.9607	0.6528	0.128
Mof_H 	H 	0.5375	0.2298	0.6664	0.002
Mof_H 	H 	0.9856	0.4477	0.3741	0.17
Mof_H 	H 	0.6652	0.3734	0.7286	0.138
Mof_H 	H 	0.3348	0.6266	0.2714	0.138
Mof_H 	H 	0.6299	0.6509	0.1361	0.137
Mof_H 	H 	0.3701	0.3491	0.8639	0.138
Mof_H 	H 	0.1299	0.8491	0.3639	0.14
Mof_H 	H 	0.1851	0.1912	0.6213	-0.028
Mof_H 	H 	0.8097	0.5035	0.3575	-0.016
Mof_H 	H 	0.3393	0.0554	0.3569	-0.007
Mof_H 	H 	0.4511	0.4333	0.7186	0.174
Mof_H 	H 	0.2294	0.9832	0.2242	0.17
Mof_H 	H 	0.3826	0.8672	0.7308	0.172
Mof_H 	H 	0.5816	0.3356	0.4156	0.01
Mof_H 	H 	0.7294	0.5168	0.2758	0.164
Mof_H 	H 	0.4407	0.6339	0.6747	0.135
Mof_H 	H 	0.0852	0.598	0.7779	0.139
Mof_H 	H 	0.5489	0.5667	0.2814	0.174
Mof_H 	H 	0.5852	0.902	0.7221	0.139
Mof_H 	H 	0.2784	0.1789	0.6987	0.153
Mof_H 	H 	0.2706	0.4832	0.7242	0.165
Mof_H 	H 	0.6851	0.3088	0.8787	-0.022
Mof_H 	H 	0.9625	0.7298	0.1664	0.013
Mof_H 	H 	0.8701	0.1509	0.6361	0.135
Mof_H 	H 	0.0593	0.1339	0.1747	0.129
Mof_H 	H 	0.0375	0.2702	0.8336	-0.008
Mof_H 	H 	0.5593	0.3661	0.3253	0.135
Mof_H 	H 	0.3918	0.4607	0.1528	0.136
Mof_H 	H 	0.8844	0.8311	0.6527	0.137
Mof_H 	H 	0.4148	0.098	0.2779	0.146
Mof_H 	H 	0.7706	0.0168	0.7758	0.159
Mof_H 	H 	0.9511	0.0667	0.7814	0.16
Mof_C 	C 	0.482	0.962	0.26076	0.339
Mof_C 	C 	0.3511	0.8561	0.40611	0.41
Mof_C 	C 	0.6657	0.584	0.66597	-0.238
Mof_C 	C 	0.242	0.1144	0.8404	0.187
Mof_C 	C 	0.4947	0.864	0.27543	-0.285
Mof_C 	C 	0.9236	0.4669	0.21031	-0.291
Mof_C 	C 	0.6085	0.0946	0.64651	-0.173
Mof_C 	C 	0.2281	0.9524	0.87794	0.173
Mof_C 	C 	0.9513	0.578	0.70055	0.288
Mof_C 	C 	0.2351	0.5502	0.38072	-0.17
Mof_C 	C 	0.5485	0.1646	0.67738	0.136
Mof_C 	C 	0.5879	0.6138	0.15736	-0.233
Mof_C 	C 	0.7971	0.7497	0.35852	0.2
Mof_C 	C 	0.9819	0.7191	0.57821	0.295
Mof_C 	C 	0.518	0.038	0.73924	0.306
Mof_C 	C 	0.0487	0.422	0.29945	0.323
Mof_C 	C 	0.9887	0.0541	0.63589	0.073
Mof_C 	C 	0.742	0.3856	0.6596	0.156
Mof_C 	C 	0.1249	0.2572	0.28371	0.316
Mof_C 	C 	0.2175	0.7474	0.68509	-0.253
Mof_C 	C 	0.1472	0.9831	0.79388	0.31
Mof_C 	C 	0.8244	0.6574	0.37564	-0.228
Mof_C 	C 	0.0485	0.3354	0.82262	0.153
Mof_C 	C 	0.1222	0.5076	0.83672	0.145
Mof_C 	C 	0.1657	0.916	0.83403	-0.265
Mof_C 	C 	0.6169	0.3322	0.33643	-0.255
Mof_C 	C 	0.9636	0.9981	0.27903	0.391
Mof_C 	C 	0.4515	0.8354	0.32262	0.134
Mof_C 	C 	0.3183	0.5823	0.29726	-0.271
Mof_C 	C 	0.2228	0.83	0.21879	0.336
Mof_C 	C 	0.6905	0.2984	0.30068	0.267
Mof_C 	C 	0.2825	0.2474	0.18509	-0.256
Mof_C 	C 	0.6303	0.3145	0.3905	0.119
Mof_C 	C 	0.8352	0.4085	0.57522	0.402
Mof_C 	C 	0.7772	0.17	0.78121	0.332
Mof_C 	C 	0.6002	0.1484	0.23507	-0.342
Mof_C 	C 	0.7228	0.67	0.28121	0.334
Mof_C 	C 	0.8697	0.8145	0.8905	0.118
Mof_C 	C 	0.0542	0.9986	0.6677	-0.217
Mof_C 	C 	0.1017	0.8823	0.28708	0.331
Mof_C 	C 	0.0879	0.8862	0.34264	-0.245
Mof_C 	C 	0.0053	0.364	0.77543	-0.319
Mof_C 	C 	0.6151	0.1503	0.92498	0.417
Mof_C 	C 	0.2971	0.7503	0.14148	0.199
Mof_C 	C 	0.6249	0.2428	0.21629	0.301
Mof_C 	C 	0.7538	0.0751	0.79698	-0.321
Mof_C 	C 	0.8983	0.1177	0.71292	0.293
Mof_C 	C 	0.7719	0.0476	0.12206	0.084
Mof_C 	C 	0.4907	0.5525	0.07688	0.341
Mof_C 	C 	0.5053	0.136	0.72457	-0.279
Mof_C 	C 	0.3831	0.6678	0.66357	-0.256
Mof_C 	C 	0.021	0.4009	0.35177	-0.286
Mof_C 	C 	0.6489	0.1439	0.59389	0.416
Mof_C 	C 	0.7825	0.2526	0.31491	-0.251
Mof_C 	C 	0.8849	0.6503	0.42498	0.418
Mof_C 	C 	0.758	0.8856	0.1596	0.122
Mof_C 	C 	0.6756	0.1574	0.87564	-0.229
Mof_C 	C 	0.2188	0.2357	0.09507	-0.172
Mof_C 	C 	0.979	0.5991	0.64823	-0.187
Mof_C 	C 	0.7957	0.5672	0.34535	0.194
Mof_C 	C 	0.7064	0.7335	0.86877	0.123
Mof_C 	C 	0.6222	0.9924	0.66328	0.157
Mof_C 	C 	0.5502	0.1944	0.13244	0.077
Mof_C 	C 	0.7255	0.2408	0.46388	0.357
Mof_C 	C 	0.7029	0.2497	0.85852	0.199
Mof_C 	C 	0.0502	0.3056	0.36756	0.107
Mof_C 	C 	0.3983	0.3823	0.78708	0.312
Mof_C 	C 	0.3528	0.4831	0.29388	0.281
Mof_C 	C 	0.1303	0.1855	0.1095	0.12
Mof_C 	C 	0.5093	0.4475	0.92312	0.337
Mof_C 	C 	0.5995	0.2676	0.16462	-0.235
Mof_C 	C 	0.2812	0.7357	0.59507	-0.165
Mof_C 	C 	0.1169	0.1678	0.16357	-0.261
Mof_C 	C 	0.2431	0.742	0.18838	-0.323
Mof_C 	C 	0.521	0.0991	0.14823	-0.228
Mof_C 	C 	0.6648	0.9085	0.07522	0.386
Mof_C 	C 	0.1756	0.3426	0.62436	-0.234
Mof_C 	C 	0.1489	0.3561	0.90611	0.416
Mof_C 	C 	0.479	0.9009	0.85177	-0.248
Mof_C 	C 	0.2957	0.9328	0.15465	0.195
Mof_C 	C 	0.3697	0.6855	0.6095	0.12
Mof_C 	C 	0.2255	0.2592	0.03612	0.36
Mof_C 	C 	0.0398	0.9371	0.25509	-0.419
Mof_C 	C 	0.8778	0.4924	0.16328	0.14
Mof_C 	C 	0.4236	0.0331	0.28969	-0.31
Mof_C 	C 	0.2029	0.2503	0.64148	0.2
Mof_C 	C 	0.2745	0.7592	0.53612	0.358
Mof_C 	C 	0.7462	0.5751	0.29698	-0.322
Mof_C 	C 	0.7351	0.9498	0.11928	-0.127
Mof_C 	C 	0.3998	0.8516	0.76493	-0.362
Mof_C 	C 	0.3352	0.0915	0.92478	0.412
Mof_C 	C 	0.4636	0.5019	0.22097	0.324
Mof_C 	C 	0.2538	0.4249	0.70302	-0.325
Mof_C 	C 	0.8095	0.7984	0.80068	0.267
Mof_C 	C 	0.2569	0.242	0.68838	-0.323
Mof_C 	C 	0.8998	0.6484	0.73507	-0.336
Mof_C 	C 	0.1085	0.4054	0.85349	-0.167
Mof_C 	C 	0.8183	0.9177	0.20274	-0.223
Mof_C 	C 	0.5181	0.2191	0.07821	0.27
Mof_C 	C 	0.8915	0.5946	0.14651	-0.152
Mof_C 	C 	0.5113	0.5541	0.13589	0.069
Mof_C 	C 	0.9602	0.0629	0.74491	-0.325
Mof_C 	C 	0.3915	0.9054	0.35349	-0.145
Mof_C 	C 	0.7043	0.0672	0.84535	0.193
Mof_C 	C 	0.9498	0.6944	0.63244	0.062
Mof_C 	C 	0.5764	0.9669	0.71031	-0.276
Mof_C 	C 	0.5487	0.078	0.20055	0.286
Mof_C 	C 	0.1002	0.3516	0.26493	-0.368
Mof_C 	C 	0.4005	0.7324	0.83538	-0.248
Mof_C 	C 	0.3343	0.416	0.33403	-0.238
Mof_C 	C 	0.7745	0.7408	0.96388	0.354
Mof_C 	C 	0.3849	0.8497	0.07502	0.415
Mof_C 	C 	0.982	0.538	0.23924	0.327
Mof_C 	C 	0.1151	0.3497	0.57502	0.418
Mof_C 	C 	0.7431	0.758	0.31162	-0.319
Mof_C 	C 	0.3095	0.7016	0.69932	0.268
Mof_C 	C 	0.7649	0.4498	0.61928	-0.169
Mof_C 	C 	0.3778	0.0076	0.33672	0.128
Mof_C 	C 	0.2772	0.33	0.71879	0.335
Mof_C 	C 	0.7569	0.258	0.81162	-0.317
Mof_C 	C 	0.6472	0.5169	0.70612	0.281
Mof_C 	C 	0.2043	0.4328	0.65465	0.195
Mof_C 	C 	0.4887	0.4459	0.86411	0.071
Mof_C 	C 	0.6817	0.4177	0.70274	-0.27
Mof_C 	C 	0.9907	0.9475	0.42312	0.37
Mof_C 	C 	0.9121	0.1138	0.65736	-0.225
Mof_C 	C 	0.4121	0.3862	0.84264	-0.235
Mof_C 	C 	0.258	0.6144	0.3404	0.157
Mof_C 	C 	0.5542	0.5014	0.8323	-0.253
Mof_C 	C 	0.5364	0.4981	0.77903	0.325
Mof_C 	C 	0.8751	0.7428	0.71629	0.298
Mof_C 	C 	0.7281	0.5476	0.62206	0.132
Mof_C 	C 	0.1817	0.0823	0.79726	-0.312
Mof_C 	C 	0.8511	0.6439	0.09389	0.411
Mof_C 	C 	0.7175	0.7526	0.81491	-0.248
Mof_C 	C 	0.2649	0.0502	0.88072	-0.205
Mof_C 	C 	0.8343	0.084	0.16597	-0.207
Mof_C 	C 	0.8831	0.8322	0.83643	-0.249
Mof_C 	C 	0.2462	0.9249	0.20302	-0.325
Mof_C 	C 	0.7936	0.2335	0.36877	0.124
Mof_C 	C 	0.0364	0.0019	0.72097	0.263
Mof_C 	C 	0.4498	0.8056	0.86756	0.094
Mof_C 	C 	0.3751	0.7572	0.78371	0.313
Mof_C 	C 	0.3244	0.8426	0.12436	-0.231
Mof_C 	C 	0.7188	0.2643	0.40493	-0.165
Mof_C 	C 	0.018	0.462	0.76076	0.316
Mof_C 	C 	0.9947	0.636	0.22457	-0.246
Mof_C 	C 	0.0113	0.9459	0.36411	0.069
Mof_C 	C 	0.4819	0.7809	0.92179	0.262
Mof_C 	C 	0.5398	0.5629	0.24491	-0.37
Mof_C 	C 	0.8528	0.0169	0.20612	0.246
Mof_C 	C 	0.7812	0.7643	0.90493	-0.157
Mof_C 	C 	0.9515	0.6646	0.17738	0.118
Mof_C 	C 	0.1905	0.2016	0.19932	0.267
Mof_C 	C 	0.6017	0.6177	0.21292	0.311
Mof_C 	C 	0.0995	0.2324	0.33538	-0.259
Mof_C 	C 	0.4602	0.4371	0.75509	-0.371
Mof_C 	C 	0.4513	0.922	0.79945	0.325
Mof_C 	C 	0.9458	0.0014	0.3323	-0.292
Mof_C 	C 	0.0764	0.5331	0.78969	-0.294
Mof_C 	C 	0.0093	0.0525	0.57688	0.309
Mof_C 	C 	0.4458	0.4986	0.1677	-0.251
Mof_C 	C 	0.1648	0.5915	0.42478	0.4
Mof_C 	C 	0.9005	0.7676	0.66462	-0.222
Mof_C 	C 	0.0181	0.2809	0.42179	0.241
Mof_C 	C 	0.2936	0.2665	0.13123	0.127
Mof_C 	C 	0.2719	0.4524	0.37794	0.132
Mof_C 	C 	0.2064	0.7665	0.63123	0.126
Mof_O 	O 	0.4084	0.7645	0.05009	-0.392
Mof_O 	O 	0.0596	0.91188	0.45211	-0.447
Mof_O 	O 	0.6788	0.3158	0.24646	-0.303
Mof_O 	O 	0.63387	0.81958	0.07404	-0.395
Mof_O 	O 	0.4104	0.9348	0.05992	-0.383
Mof_O 	O 	0.4705	0.69175	0.93631	-0.311
Mof_O 	O 	0.1318	0.2828	0.91605	-0.318
Mof_O 	O 	0.1404	0.5236	0.45818	-0.366
Mof_O 	O 	0.9705	0.80825	0.56369	-0.315
Mof_O 	O 	0.6616	0.2743	0.49437	-0.252
Mof_O 	O 	0.8682	0.7172	0.08395	-0.321
Mof_O 	O 	0.6949	0.68537	0.97465	-0.402
Mof_O 	O 	0.4404	0.41188	0.95211	-0.431
Mof_O 	O 	0.0952	0.02	0.56188	-0.382
Mof_O 	O 	0.1788	0.1842	0.25354	-0.311
Mof_O 	O 	0.8051	0.18537	0.47465	-0.42
Mof_O 	O 	0.9081	0.0612	0.24863	-0.331
Mof_O 	O 	0.9789	0.35055	0.45376	-0.378
Mof_O 	O 	0.36613	0.18042	0.92596	-0.403
Mof_O 	O 	0.0295	0.19175	0.43631	-0.326
Mof_O 	O 	0.4081	0.4388	0.25137	-0.32
Mof_O 	O 	0.9737	0.4801	0.71395	-0.302
Mof_O 	O 	0.4048	0.52	0.06188	-0.387
Mof_O 	O 	0.86613	0.31958	0.57404	-0.399
Mof_O 	O 	0.0896	0.4348	0.55992	-0.394
Mof_O 	O 	0.1616	0.2257	0.00563	-0.268
Mof_O 	O 	0.9048	0.98	0.43812	-0.37
Mof_O 	O 	0.2945	0.9371	0.43167	-0.344
Mof_O 	O 	0.5596	0.58812	0.04789	-0.434
Mof_O 	O 	0.1949	0.81463	0.52535	-0.419
Mof_O 	O 	0.5211	0.85055	0.95376	-0.377
Mof_O 	O 	0.7055	0.0629	0.56833	-0.351
Mof_O 	O 	0.1771	0.8154	0.26767	-0.326
Mof_O 	O 	0.5295	0.30825	0.06369	-0.329
Mof_O 	O 	0.3051	0.31463	0.02535	-0.437
Mof_O 	O 	0.0263	0.5199	0.28605	-0.335
Mof_O 	O 	0.5916	0.2355	0.94991	-0.386
Mof_O 	O 	0.8229	0.1846	0.73233	-0.317
Mof_O 	O 	0.5952	0.48	0.93812	-0.365
Mof_O 	O 	0.3384	0.7257	0.50563	-0.251
Mof_O 	O 	0.9404	0.08812	0.54789	-0.418
Mof_O 	O 	0.3596	0.0236	0.95818	-0.361
Mof_O 	O 	0.8384	0.7743	0.99437	-0.234
Mof_O 	O 	0.5263	0.9801	0.21395	-0.308
Mof_O 	O 	0.7945	0.5629	0.06833	-0.347
Mof_O 	O 	0.0919	0.9388	0.75137	-0.31
Mof_O 	O 	0.0211	0.64945	0.54624	-0.414
Mof_O 	O 	0.2055	0.4371	0.93167	-0.348
Mof_O 	O 	0.6318	0.2172	0.58395	-0.321
Mof_O 	O 	0.3212	0.6842	0.75354	-0.307
Mof_O 	O 	0.4737	0.0199	0.78605	-0.328
Mof_O 	O 	0.3682	0.7828	0.41605	-0.318
Mof_O 	O 	0.13387	0.68042	0.42596	-0.402
Mof_O 	O 	0.0916	0.2645	0.55009	-0.399
Mof_O 	O 	0.5896	0.0652	0.94008	-0.386
Mof_O 	O 	0.4789	0.14945	0.04624	-0.407
Mof_O 	O 	0.6771	0.6846	0.23233	-0.321
Mof_O 	O 	0.8596	0.4764	0.54182	-0.359
Mof_O 	O 	0.6404	0.9764	0.04182	-0.353
Mof_O 	O 	0.8212	0.8158	0.74646	-0.299
Mof_O 	O 	0.9104	0.5652	0.44008	-0.385
Mof_O 	O 	0.9084	0.7355	0.44991	-0.382
Mof_O 	O 	0.3229	0.3154	0.76767	-0.322
Mof_O 	O 	0.5919	0.5612	0.74863	-0.319
_end
