data_functionalizedCrystal
_audit_creation_method	'EQeq! by Chris Wilmer'
_symmetry_space_group_name_H-M	'P1'
_symmetry_Int_Tables_number	1
_symmetry_cell_setting	triclinic
loop_
_symmetry_equiv_pos_as_xyz
  x,y,z
_cell_length_a	17.3867
_cell_length_b	17.3867
_cell_length_c	11.3455
_cell_angle_alpha	90
_cell_angle_beta	90
_cell_angle_gamma	120
loop_
_atom_site_label
_atom_site_type_symbol
_atom_site_fract_x
_atom_site_fract_y
_atom_site_fract_z
_atom_site_charge
Mof_O 	O 	0.5195	0.3149	0.3679	-0.223
Mof_O 	O 	0.5424	0.2444	0.2297	-0.261
Mof_C 	C 	0.4852	0.2647	0.2745	0.484
Mof_C 	C 	0.3992	0.2361	0.2361	-0.887
Mof_C 	C 	0.3378	0.245	0.3044	1.841
Mof_H 	H 	0.3537	0.2708	0.3788	-0.511
Mof_C 	C 	0.2526	0.2154	0.2616	-2.869
Mof_C 	C 	0.2288	0.1769	0.1505	-1.859
Mof_C 	C 	0.2903	0.168	0.0822	1.335
Mof_H 	H 	0.2744	0.1422	0.0078	0.969
Mof_C 	C 	0.3755	0.1976	0.125	0.121
Mof_H 	H 	0.4166	0.1916	0.0792	0.099
Mof_O 	O 	0.1404	0.1462	0.1158	0.046
Mof_P 	P 	0.091	0.091	0.0045	0.369
Mof_H 	H 	0.2115	0.2214	0.3073	2.972
Mof_N 	N 	0.091	-1.69978e-32	0.9955	-0.096
Mof_C 	C 	0.502	0.2301	0.2655	0.162
Mof_C 	C 	0.4033	0.1652	0.2173	0.321
Mof_C 	C 	0.3421	0.0965	0.2881	-0.089
Mof_C 	C 	0.2566	0.0401	0.2469	-0.066
Mof_C 	C 	0.2323	0.0524	0.1348	0.695
Mof_C 	C 	0.2934	0.121	0.064	-1.446
Mof_C 	C 	0.3789	0.1774	0.1052	-0.021
Mof_H 	H 	0.3584	0.0883	0.3631	0.085
Mof_H 	H 	0.2157	0.9942	0.2943	-0.024
Mof_H 	H 	0.2771	0.1293	0.989	-0.661
Mof_H 	H 	0.4198	0.2234	0.0578	-0.019
Mof_O 	O 	0.5221	0.2091	0.3531	-0.185
Mof_O 	O 	0.5454	0.2877	0.1998	-0.114
Mof_O 	O 	0.1443	0.9921	0.1007	-0.206
Mof_O 	O 	0.6851	0.2046	0.3679	-0.223
Mof_O 	O 	0.7556	0.298	0.2297	-0.252
Mof_C 	C 	0.7353	0.2205	0.2745	0.479
Mof_C 	C 	0.7639	0.1631	0.2361	-0.863
Mof_C 	C 	0.755	0.0928	0.3044	1.777
Mof_H 	H 	0.7292	0.0829	0.3788	-0.488
Mof_C 	C 	0.7846	0.0372	0.2616	-2.782
Mof_C 	C 	0.8231	0.0519	0.1505	-1.619
Mof_C 	C 	0.832	0.1223	0.0822	1.134
Mof_H 	H 	0.8578	0.1322	0.0078	0.902
Mof_C 	C 	0.8024	0.1779	0.125	0.11
Mof_H 	H 	0.8084	0.225	0.0792	0.063
Mof_O 	O 	0.8538	0.9942	0.1158	0.035
Mof_P 	P 	0.909	0	0.0045	0.344
Mof_H 	H 	0.7786	0.9901	0.3073	2.825
Mof_N 	N 	6.56665e-18	0.091	0.9955	-0.097
Mof_C 	C 	0.7699	0.2719	0.2655	0.154
Mof_C 	C 	0.8348	0.2381	0.2173	0.321
Mof_C 	C 	0.9035	0.2456	0.2881	-0.13
Mof_C 	C 	0.9599	0.2165	0.2469	0.019
Mof_C 	C 	0.9476	0.1799	0.1348	0.617
Mof_C 	C 	0.879	0.1724	0.064	-1.274
Mof_C 	C 	0.8226	0.2015	0.1052	0.011
Mof_H 	H 	0.9117	0.2701	0.3631	0.103
Mof_H 	H 	0.0058	0.2215	0.2943	-0.069
Mof_H 	H 	0.8707	0.1478	0.989	-0.609
Mof_H 	H 	0.7766	0.1964	0.0578	-0.002
Mof_O 	O 	0.7909	0.313	0.3531	-0.181
Mof_O 	O 	0.7123	0.2577	0.1998	-0.118
Mof_O 	O 	0.0079	0.1522	0.1007	-0.21
Mof_O 	O 	0.7954	0.4805	0.3679	-0.221
Mof_O 	O 	0.702	0.4576	0.2297	-0.255
Mof_C 	C 	0.7795	0.5148	0.2745	0.476
Mof_C 	C 	0.8369	0.6008	0.2361	-0.863
Mof_C 	C 	0.9072	0.6622	0.3044	1.78
Mof_H 	H 	0.9171	0.6463	0.3788	-0.486
Mof_C 	C 	0.9628	0.7474	0.2616	-2.764
Mof_C 	C 	0.9481	0.7712	0.1505	-1.867
Mof_C 	C 	0.8777	0.7097	0.0822	1.343
Mof_H 	H 	0.8678	0.7256	0.0078	0.964
Mof_C 	C 	0.8221	0.6245	0.125	0.11
Mof_H 	H 	0.775	0.5834	0.0792	0.11
Mof_O 	O 	0.0058	0.8596	0.1158	0.049
Mof_P 	P 	-3.59608e-19	0.909	0.0045	0.373
Mof_H 	H 	0.0099	0.7885	0.3073	2.894
Mof_N 	N 	0.909	0.909	0.9955	-0.082
Mof_C 	C 	0.7281	0.498	0.2655	0.156
Mof_C 	C 	0.7619	0.5967	0.2173	0.33
Mof_C 	C 	0.7544	0.6579	0.2881	-0.122
Mof_C 	C 	0.7835	0.7434	0.2469	-0.004
Mof_C 	C 	0.8201	0.7677	0.1348	0.696
Mof_C 	C 	0.8276	0.7066	0.064	-1.441
Mof_C 	C 	0.7985	0.6211	0.1052	-0.032
Mof_H 	H 	0.7299	0.6416	0.3631	0.098
Mof_H 	H 	0.7785	0.7843	0.2943	-0.055
Mof_H 	H 	0.8522	0.7229	0.989	-0.659
Mof_H 	H 	0.8036	0.5802	0.0578	-0.021
Mof_O 	O 	0.687	0.4779	0.3531	-0.182
Mof_O 	O 	0.7423	0.4546	0.1998	-0.115
Mof_O 	O 	0.8478	0.8557	0.1007	-0.216
Mof_O 	O 	0.3149	0.5195	0.1321	-0.227
Mof_O 	O 	0.2444	0.5424	0.2703	-0.252
Mof_C 	C 	0.2647	0.4852	0.2255	0.474
Mof_C 	C 	0.2361	0.3992	0.2639	-0.856
Mof_C 	C 	0.245	0.3378	0.1956	1.763
Mof_H 	H 	0.2708	0.3537	0.1212	-0.485
Mof_C 	C 	0.2154	0.2526	0.2384	-2.736
Mof_C 	C 	0.1769	0.2288	0.3495	-2.047
Mof_C 	C 	0.168	0.2903	0.4178	1.529
Mof_H 	H 	0.1422	0.2744	0.4922	0.957
Mof_C 	C 	0.1976	0.3755	0.375	0.103
Mof_H 	H 	0.1916	0.4166	0.4208	0.157
Mof_O 	O 	0.1462	0.1404	0.3842	0.081
Mof_P 	P 	0.091	0.091	0.4955	0.397
Mof_H 	H 	0.2214	0.2115	0.1927	2.878
Mof_N 	N 	7.52836e-18	0.091	0.5045	-0.116
Mof_C 	C 	0.2301	0.502	0.2345	0.153
Mof_C 	C 	0.1652	0.4033	0.2827	0.334
Mof_C 	C 	0.0965	0.3421	0.2119	-0.099
Mof_C 	C 	0.0401	0.2566	0.2531	-0.054
Mof_C 	C 	0.0524	0.2323	0.3652	0.759
Mof_C 	C 	0.121	0.2934	0.436	-1.568
Mof_C 	C 	0.1774	0.3789	0.3948	-0.073
Mof_H 	H 	0.0883	0.3584	0.1369	0.082
Mof_H 	H 	0.9942	0.2157	0.2057	-0.026
Mof_H 	H 	0.1293	0.2771	0.511	-0.656
Mof_H 	H 	0.2234	0.4198	0.4422	-0.033
Mof_O 	O 	0.2091	0.5221	0.1469	-0.186
Mof_O 	O 	0.2877	0.5454	0.3002	-0.112
Mof_O 	O 	0.9921	0.1443	0.3993	-0.215
Mof_O 	O 	0.2046	0.6851	0.1321	-0.226
Mof_O 	O 	0.298	0.7556	0.2703	-0.251
Mof_C 	C 	0.2205	0.7353	0.2255	0.473
Mof_C 	C 	0.1631	0.7639	0.2639	-0.854
Mof_C 	C 	0.0928	0.755	0.1956	1.762
Mof_H 	H 	0.0829	0.7292	0.1212	-0.486
Mof_C 	C 	0.0372	0.7846	0.2384	-2.741
Mof_C 	C 	0.0519	0.8231	0.3495	-1.97
Mof_C 	C 	0.1223	0.832	0.4178	1.47
Mof_H 	H 	0.1322	0.8578	0.4922	0.923
Mof_C 	C 	0.1779	0.8024	0.375	0.097
Mof_H 	H 	0.225	0.8084	0.4208	0.146
Mof_O 	O 	0.9942	0.8538	0.3842	0.086
Mof_P 	P 	-3.95969e-17	0.909	0.4955	0.391
Mof_H 	H 	0.9901	0.7786	0.1927	2.856
Mof_N 	N 	0.091	-8.49888e-33	0.5045	-0.113
Mof_C 	C 	0.2719	0.7699	0.2345	0.153
Mof_C 	C 	0.2381	0.8348	0.2827	0.335
Mof_C 	C 	0.2456	0.9035	0.2119	-0.101
Mof_C 	C 	0.2165	0.9599	0.2531	-0.038
Mof_C 	C 	0.1799	0.9476	0.3652	0.727
Mof_C 	C 	0.1724	0.879	0.436	-1.507
Mof_C 	C 	0.2015	0.8226	0.3948	-0.062
Mof_H 	H 	0.2701	0.9117	0.1369	0.091
Mof_H 	H 	0.2215	0.0058	0.2057	-0.03
Mof_H 	H 	0.1478	0.8707	0.511	-0.631
Mof_H 	H 	0.1964	0.7766	0.4422	-0.027
Mof_O 	O 	0.313	0.7909	0.1469	-0.183
Mof_O 	O 	0.2577	0.7123	0.3002	-0.112
Mof_O 	O 	0.1522	0.0079	0.3993	-0.223
Mof_O 	O 	0.4805	0.7954	0.1321	-0.223
Mof_O 	O 	0.4576	0.702	0.2703	-0.225
Mof_C 	C 	0.5148	0.7795	0.2255	0.469
Mof_C 	C 	0.6008	0.8369	0.2639	-0.78
Mof_C 	C 	0.6622	0.9072	0.1956	1.582
Mof_H 	H 	0.6463	0.9171	0.1212	-0.418
Mof_C 	C 	0.7474	0.9628	0.2384	-2.435
Mof_C 	C 	0.7712	0.9481	0.3495	-1.981
Mof_C 	C 	0.7097	0.8777	0.4178	1.481
Mof_H 	H 	0.7256	0.8678	0.4922	0.926
Mof_C 	C 	0.6245	0.8221	0.375	0.087
Mof_H 	H 	0.5834	0.775	0.4208	0.168
Mof_O 	O 	0.8596	0.0058	0.3842	0.074
Mof_P 	P 	0.909	8.49888e-33	0.4955	0.395
Mof_H 	H 	0.7885	0.0099	0.1927	2.618
Mof_N 	N 	0.909	0.909	0.5045	-0.102
Mof_C 	C 	0.498	0.7281	0.2345	0.124
Mof_C 	C 	0.5967	0.7619	0.2827	0.318
Mof_C 	C 	0.6579	0.7544	0.2119	-0.104
Mof_C 	C 	0.7434	0.7835	0.2531	-0.03
Mof_C 	C 	0.7677	0.8201	0.3652	0.727
Mof_C 	C 	0.7066	0.8276	0.436	-1.506
Mof_C 	C 	0.6211	0.7985	0.3948	-0.084
Mof_H 	H 	0.6416	0.7299	0.1369	0.086
Mof_H 	H 	0.7843	0.7785	0.2057	-0.05
Mof_H 	H 	0.7229	0.8522	0.511	-0.636
Mof_H 	H 	0.5802	0.8036	0.4422	-0.033
Mof_O 	O 	0.4779	0.687	0.1469	-0.179
Mof_O 	O 	0.4546	0.7423	0.3002	-0.12
Mof_O 	O 	0.8557	0.8478	0.3993	-0.214
Mof_O 	O 	0.4805	0.6851	0.6321	-0.229
Mof_O 	O 	0.4576	0.7556	0.7703	-0.327
Mof_C 	C 	0.5148	0.7353	0.7255	0.496
Mof_C 	C 	0.6008	0.7639	0.7639	-1.065
Mof_C 	C 	0.6622	0.755	0.6956	2.29
Mof_H 	H 	0.6463	0.7292	0.6212	-0.682
Mof_C 	C 	0.7474	0.7846	0.7384	-3.576
Mof_C 	C 	0.7712	0.8231	0.8495	-2.727
Mof_C 	C 	0.7097	0.832	0.9178	2.057
Mof_H 	H 	0.7256	0.8578	0.9922	1.172
Mof_C 	C 	0.6245	0.8024	0.875	0.153
Mof_H 	H 	0.5834	0.8084	0.9208	0.214
Mof_O 	O 	0.8596	0.8538	0.8842	0.261
Mof_H 	H 	0.7885	0.7786	0.6927	3.771
Mof_C 	C 	0.498	0.7699	0.7345	0.227
Mof_C 	C 	0.5967	0.8348	0.7827	0.357
Mof_C 	C 	0.6579	0.9035	0.7119	0.061
Mof_C 	C 	0.7434	0.9599	0.7531	-0.342
Mof_C 	C 	0.7677	0.9476	0.8652	0.975
Mof_C 	C 	0.7066	0.879	0.936	-2.042
Mof_C 	C 	0.6211	0.8226	0.8948	-0.117
Mof_H 	H 	0.6416	0.9117	0.6369	0.043
Mof_H 	H 	0.7843	0.0058	0.7057	0.14
Mof_H 	H 	0.7229	0.8707	0.011	-0.825
Mof_H 	H 	0.5802	0.7766	0.9422	-0.068
Mof_O 	O 	0.4779	0.7909	0.6469	-0.198
Mof_O 	O 	0.4546	0.7123	0.8002	-0.08
Mof_O 	O 	0.8557	0.0079	0.8993	-0.315
Mof_O 	O 	0.3149	0.7954	0.6321	-0.228
Mof_O 	O 	0.2444	0.702	0.7703	-0.317
Mof_C 	C 	0.2647	0.7795	0.7255	0.497
Mof_C 	C 	0.2361	0.8369	0.7639	-1.041
Mof_C 	C 	0.245	0.9072	0.6956	2.231
Mof_H 	H 	0.2708	0.9171	0.6212	-0.66
Mof_C 	C 	0.2154	0.9628	0.7384	-3.482
Mof_C 	C 	0.1769	0.9481	0.8495	-2.616
Mof_C 	C 	0.168	0.8777	0.9178	1.951
Mof_H 	H 	0.1422	0.8678	0.9922	1.161
Mof_C 	C 	0.1976	0.8221	0.875	0.155
Mof_H 	H 	0.1916	0.775	0.9208	0.196
Mof_O 	O 	0.1462	0.0058	0.8842	0.242
Mof_H 	H 	0.2214	0.0099	0.6927	3.667
Mof_C 	C 	0.2301	0.7281	0.7345	0.216
Mof_C 	C 	0.1652	0.7619	0.7827	0.343
Mof_C 	C 	0.0965	0.7544	0.7119	0.057
Mof_C 	C 	0.0401	0.7835	0.7531	-0.341
Mof_C 	C 	0.0524	0.8201	0.8652	0.939
Mof_C 	C 	0.121	0.8276	0.936	-1.966
Mof_C 	C 	0.1774	0.7985	0.8948	-0.101
Mof_H 	H 	0.0883	0.7299	0.6369	0.038
Mof_H 	H 	0.9942	0.7785	0.7057	0.126
Mof_H 	H 	0.1293	0.8522	0.011	-0.816
Mof_H 	H 	0.2234	0.8036	0.9422	-0.062
Mof_O 	O 	0.2091	0.687	0.6469	-0.198
Mof_O 	O 	0.2877	0.7423	0.8002	-0.085
Mof_O 	O 	0.9921	0.8478	0.8993	-0.304
Mof_O 	O 	0.2046	0.5195	0.6321	-0.23
Mof_O 	O 	0.298	0.5424	0.7703	-0.336
Mof_C 	C 	0.2205	0.4852	0.7255	0.495
Mof_C 	C 	0.1631	0.3992	0.7639	-1.092
Mof_C 	C 	0.0928	0.3378	0.6956	2.351
Mof_H 	H 	0.0829	0.3537	0.6212	-0.704
Mof_C 	C 	0.0372	0.2526	0.7384	-3.682
Mof_C 	C 	0.0519	0.2288	0.8495	-2.733
Mof_C 	C 	0.1223	0.2903	0.9178	2.062
Mof_H 	H 	0.1322	0.2744	0.9922	1.169
Mof_C 	C 	0.1779	0.3755	0.875	0.155
Mof_H 	H 	0.225	0.4166	0.9208	0.211
Mof_O 	O 	0.9942	0.1404	0.8842	0.272
Mof_H 	H 	0.9901	0.2115	0.6927	3.847
Mof_C 	C 	0.2719	0.502	0.7345	0.238
Mof_C 	C 	0.2381	0.4033	0.7827	0.37
Mof_C 	C 	0.2456	0.3421	0.7119	0.043
Mof_C 	C 	0.2165	0.2566	0.7531	-0.32
Mof_C 	C 	0.1799	0.2323	0.8652	0.985
Mof_C 	C 	0.1724	0.2934	0.936	-2.051
Mof_C 	C 	0.2015	0.3789	0.8948	-0.112
Mof_H 	H 	0.2701	0.3584	0.6369	0.046
Mof_H 	H 	0.2215	0.2157	0.7057	0.128
Mof_H 	H 	0.1478	0.2771	0.011	-0.821
Mof_H 	H 	0.1964	0.4198	0.9422	-0.068
Mof_O 	O 	0.313	0.5221	0.6469	-0.201
Mof_O 	O 	0.2577	0.5454	0.8002	-0.077
Mof_O 	O 	0.1522	0.1443	0.8993	-0.325
Mof_O 	O 	0.6851	0.4805	0.8679	-0.222
Mof_O 	O 	0.7556	0.4576	0.7297	-0.337
Mof_C 	C 	0.7353	0.5148	0.7745	0.495
Mof_C 	C 	0.7639	0.6008	0.7361	-1.09
Mof_C 	C 	0.755	0.6622	0.8044	2.347
Mof_H 	H 	0.7292	0.6463	0.8788	-0.698
Mof_C 	C 	0.7846	0.7474	0.7616	-3.67
Mof_C 	C 	0.8231	0.7712	0.6505	-2.597
Mof_C 	C 	0.832	0.7097	0.5822	1.919
Mof_H 	H 	0.8578	0.7256	0.5078	1.184
Mof_C 	C 	0.8024	0.6245	0.625	0.161
Mof_H 	H 	0.8084	0.5834	0.5792	0.177
Mof_O 	O 	0.8538	0.8596	0.6158	0.234
Mof_H 	H 	0.7786	0.7885	0.8073	3.837
Mof_C 	C 	0.7699	0.498	0.7655	0.238
Mof_C 	C 	0.8348	0.5967	0.7173	0.369
Mof_C 	C 	0.9035	0.6579	0.7881	0.02
Mof_C 	C 	0.9599	0.7434	0.7469	-0.27
Mof_C 	C 	0.9476	0.7677	0.6348	0.945
Mof_C 	C 	0.879	0.7066	0.564	-1.958
Mof_C 	C 	0.8226	0.6211	0.6052	-0.083
Mof_H 	H 	0.9117	0.6416	0.8631	0.064
Mof_H 	H 	0.0058	0.7843	0.7943	0.109
Mof_H 	H 	0.8707	0.7229	0.489	-0.831
Mof_H 	H 	0.7766	0.5802	0.5578	-0.058
Mof_O 	O 	0.7909	0.4779	0.8531	-0.194
Mof_O 	O 	0.7123	0.4546	0.6998	-0.079
Mof_O 	O 	0.0079	0.8557	0.6007	-0.341
Mof_O 	O 	0.7954	0.3149	0.8679	-0.22
Mof_O 	O 	0.702	0.2444	0.7297	-0.334
Mof_C 	C 	0.7795	0.2647	0.7745	0.499
Mof_C 	C 	0.8369	0.2361	0.7361	-1.084
Mof_C 	C 	0.9072	0.245	0.8044	2.339
Mof_H 	H 	0.9171	0.2708	0.8788	-0.695
Mof_C 	C 	0.9628	0.2154	0.7616	-3.65
Mof_C 	C 	0.9481	0.1769	0.6505	-2.673
Mof_C 	C 	0.8777	0.168	0.5822	1.975
Mof_H 	H 	0.8678	0.1422	0.5078	1.214
Mof_C 	C 	0.8221	0.1976	0.625	0.167
Mof_H 	H 	0.775	0.1916	0.5792	0.188
Mof_O 	O 	0.0058	0.1462	0.6158	0.236
Mof_H 	H 	0.0099	0.2214	0.8073	3.855
Mof_C 	C 	0.7281	0.2301	0.7655	0.233
Mof_C 	C 	0.7619	0.1652	0.7173	0.353
Mof_C 	C 	0.7544	0.0965	0.7881	0.061
Mof_C 	C 	0.7835	0.0401	0.7469	-0.349
Mof_C 	C 	0.8201	0.0524	0.6348	0.959
Mof_C 	C 	0.8276	0.121	0.564	-2.007
Mof_C 	C 	0.7985	0.1774	0.6052	-0.093
Mof_H 	H 	0.7299	0.0883	0.8631	0.048
Mof_H 	H 	0.7785	0.9942	0.7943	0.144
Mof_H 	H 	0.8522	0.1293	0.489	-0.855
Mof_H 	H 	0.8036	0.2234	0.5578	-0.064
Mof_O 	O 	0.687	0.2091	0.8531	-0.194
Mof_O 	O 	0.7423	0.2877	0.6998	-0.08
Mof_O 	O 	0.8478	0.9921	0.6007	-0.322
Mof_O 	O 	0.5195	0.2046	0.8679	-0.221
Mof_O 	O 	0.5424	0.298	0.7297	-0.323
Mof_C 	C 	0.4852	0.2205	0.7745	0.496
Mof_C 	C 	0.3992	0.1631	0.7361	-1.056
Mof_C 	C 	0.3378	0.0928	0.8044	2.266
Mof_H 	H 	0.3537	0.0829	0.8788	-0.669
Mof_C 	C 	0.2526	0.0372	0.7616	-3.544
Mof_C 	C 	0.2288	0.0519	0.6505	-2.537
Mof_C 	C 	0.2903	0.1223	0.5822	1.874
Mof_H 	H 	0.2744	0.1322	0.5078	1.157
Mof_C 	C 	0.3755	0.1779	0.625	0.157
Mof_H 	H 	0.4166	0.225	0.5792	0.176
Mof_O 	O 	0.1404	0.9942	0.6158	0.229
Mof_H 	H 	0.2115	0.9901	0.8073	3.709
Mof_C 	C 	0.502	0.2719	0.7655	0.223
Mof_C 	C 	0.4033	0.2381	0.7173	0.351
Mof_C 	C 	0.3421	0.2456	0.7881	0.037
Mof_C 	C 	0.2566	0.2165	0.7469	-0.3
Mof_C 	C 	0.2323	0.1799	0.6348	0.92
Mof_C 	C 	0.2934	0.1724	0.564	-1.913
Mof_C 	C 	0.3789	0.2015	0.6052	-0.082
Mof_H 	H 	0.3584	0.2701	0.8631	0.055
Mof_H 	H 	0.2157	0.2215	0.7943	0.111
Mof_H 	H 	0.2771	0.1478	0.489	-0.811
Mof_H 	H 	0.4198	0.1964	0.5578	-0.057
Mof_O 	O 	0.5221	0.313	0.8531	-0.192
Mof_O 	O 	0.5454	0.2577	0.6998	-0.084
Mof_O 	O 	0.1443	0.1522	0.6007	-0.329
Mof_Cd	Cd	0.66667	0.33333	0.3366	0.603
Mof_Cd	Cd	0.33333	0.66667	0.1634	0.598
Mof_Cd	Cd	0.33333	0.66667	0.6634	0.616
Mof_Cd	Cd	0.66667	0.33333	0.8366	0.623
_end
