data_functionalizedCrystal
_audit_creation_method	'EQeq! by Chris Wilmer'
_symmetry_space_group_name_H-M	'P1'
_symmetry_Int_Tables_number	1
_symmetry_cell_setting	triclinic
loop_
_symmetry_equiv_pos_as_xyz
  x,y,z
_cell_length_a	5.7716
_cell_length_b	29.4517
_cell_length_c	30.5119
_cell_angle_alpha	90
_cell_angle_beta	90
_cell_angle_gamma	90
loop_
_atom_site_label
_atom_site_type_symbol
_atom_site_fract_x
_atom_site_fract_y
_atom_site_fract_z
_atom_site_charge
Mof_N 	N 	0.3971	0.1657	0.0862	-0.196
Mof_C 	C 	0.7638	0.2	0.0513	-0.042
Mof_C 	C 	0.8641	0.2383	0.0693	-0.021
Mof_H 	H 	0.8036	0.2513	0.0954	0.032
Mof_C 	C 	0.0559	0.2577	0.0486	-0.073
Mof_H 	H 	0.1238	0.2842	0.0608	0.049
Mof_C 	C 	0.1487	0.2396	0.0112	0.026
Mof_C 	C 	0.0497	0.2001	0.9946	-0.073
Mof_H 	H 	0.1142	0.1862	0.9693	0.048
Mof_C 	C 	0.8601	0.181	0.0145	-0.02
Mof_H 	H 	0.7942	0.1542	0.0026	0.03
Mof_C 	C 	0.5608	0.1807	0.071	0.085
Mof_N 	N 	0.3971	0.6657	0.5862	-0.197
Mof_C 	C 	0.7638	0.7	0.5513	-0.043
Mof_C 	C 	0.8641	0.7383	0.5693	-0.023
Mof_H 	H 	0.8036	0.7513	0.5954	0.031
Mof_C 	C 	0.0559	0.7577	0.5486	-0.073
Mof_H 	H 	0.1238	0.7842	0.5608	0.048
Mof_C 	C 	0.1487	0.7396	0.5112	0.025
Mof_C 	C 	0.0497	0.7001	0.4946	-0.074
Mof_H 	H 	0.1142	0.6862	0.4693	0.048
Mof_C 	C 	0.8601	0.681	0.5145	-0.02
Mof_H 	H 	0.7942	0.6542	0.5026	0.031
Mof_C 	C 	0.5608	0.6807	0.571	0.085
Mof_N 	N 	0.8971	0.1657	0.5862	-0.197
Mof_C 	C 	0.2638	0.2	0.5513	-0.039
Mof_C 	C 	0.3641	0.2383	0.5693	-0.028
Mof_H 	H 	0.3036	0.2513	0.5954	0.033
Mof_C 	C 	0.5559	0.2577	0.5486	-0.067
Mof_H 	H 	0.6238	0.2842	0.5608	0.046
Mof_C 	C 	0.6487	0.2396	0.5112	0.02
Mof_C 	C 	0.5497	0.2001	0.4946	-0.068
Mof_H 	H 	0.6142	0.1862	0.4693	0.046
Mof_C 	C 	0.3601	0.181	0.5145	-0.026
Mof_H 	H 	0.2942	0.1542	0.5026	0.032
Mof_C 	C 	0.0608	0.1807	0.571	0.083
Mof_N 	N 	0.8971	0.6657	0.0862	-0.197
Mof_C 	C 	0.2638	0.7	0.0513	-0.039
Mof_C 	C 	0.3641	0.7383	0.0693	-0.028
Mof_H 	H 	0.3036	0.7513	0.0954	0.033
Mof_C 	C 	0.5559	0.7577	0.0486	-0.067
Mof_H 	H 	0.6238	0.7842	0.0608	0.046
Mof_C 	C 	0.6487	0.7396	0.0112	0.02
Mof_C 	C 	0.5497	0.7001	0.9946	-0.068
Mof_H 	H 	0.6142	0.6862	0.9693	0.046
Mof_C 	C 	0.3601	0.681	0.0145	-0.026
Mof_H 	H 	0.2942	0.6542	0.0026	0.032
Mof_C 	C 	0.0608	0.6807	0.071	0.083
Mof_N 	N 	0.3529	0.5843	0.0862	-0.197
Mof_C 	C 	0.9862	0.55	0.0513	-0.04
Mof_C 	C 	0.8859	0.5117	0.0693	-0.028
Mof_H 	H 	0.9464	0.4987	0.0954	0.032
Mof_C 	C 	0.6941	0.4923	0.0486	-0.069
Mof_H 	H 	0.6262	0.4658	0.0608	0.046
Mof_C 	C 	0.6013	0.5104	0.0112	0.022
Mof_C 	C 	0.7003	0.5499	0.9946	-0.069
Mof_H 	H 	0.6358	0.5638	0.9693	0.046
Mof_C 	C 	0.8899	0.569	0.0145	-0.025
Mof_H 	H 	0.9558	0.5958	0.0026	0.032
Mof_C 	C 	0.1892	0.5693	0.071	0.083
Mof_N 	N 	0.3529	0.0843	0.5862	-0.197
Mof_C 	C 	0.9862	0.05	0.5513	-0.04
Mof_C 	C 	0.8859	0.0117	0.5693	-0.027
Mof_H 	H 	0.9464	0.9987	0.5954	0.032
Mof_C 	C 	0.6941	0.9923	0.5486	-0.069
Mof_H 	H 	0.6262	0.9658	0.5608	0.047
Mof_C 	C 	0.6013	0.0104	0.5112	0.022
Mof_C 	C 	0.7003	0.0499	0.4946	-0.069
Mof_H 	H 	0.6358	0.0638	0.4693	0.046
Mof_C 	C 	0.8899	0.069	0.5145	-0.025
Mof_H 	H 	0.9558	0.0958	0.5026	0.032
Mof_C 	C 	0.1892	0.0693	0.571	0.083
Mof_N 	N 	0.8529	0.5843	0.5862	-0.196
Mof_C 	C 	0.4862	0.55	0.5513	-0.04
Mof_C 	C 	0.3859	0.5117	0.5693	-0.027
Mof_H 	H 	0.4464	0.4987	0.5954	0.032
Mof_C 	C 	0.1941	0.4923	0.5486	-0.069
Mof_H 	H 	0.1262	0.4658	0.5608	0.047
Mof_C 	C 	0.1013	0.5104	0.5112	0.022
Mof_C 	C 	0.2003	0.5499	0.4946	-0.069
Mof_H 	H 	0.1358	0.5638	0.4693	0.047
Mof_C 	C 	0.3899	0.569	0.5145	-0.025
Mof_H 	H 	0.4558	0.5958	0.5026	0.032
Mof_C 	C 	0.6892	0.5693	0.571	0.084
Mof_N 	N 	0.8529	0.0843	0.0862	-0.196
Mof_C 	C 	0.4862	0.05	0.0513	-0.039
Mof_C 	C 	0.3859	0.0117	0.0693	-0.028
Mof_H 	H 	0.4464	0.9987	0.0954	0.033
Mof_C 	C 	0.1941	0.9923	0.0486	-0.068
Mof_H 	H 	0.1262	0.9658	0.0608	0.046
Mof_C 	C 	0.1013	0.0104	0.0112	0.022
Mof_C 	C 	0.2003	0.0499	0.9946	-0.069
Mof_H 	H 	0.1358	0.0638	0.9693	0.046
Mof_C 	C 	0.3899	0.069	0.0145	-0.025
Mof_H 	H 	0.4558	0.0958	0.0026	0.032
Mof_C 	C 	0.6892	0.0693	0.071	0.084
Mof_N 	N 	0.3529	0.1657	0.6638	-0.197
Mof_C 	C 	0.9862	0.2	0.6987	-0.04
Mof_C 	C 	0.8859	0.2383	0.6807	-0.028
Mof_H 	H 	0.9464	0.2513	0.6546	0.032
Mof_C 	C 	0.6941	0.2577	0.7014	-0.069
Mof_H 	H 	0.6262	0.2842	0.6892	0.046
Mof_C 	C 	0.6013	0.2396	0.7388	0.022
Mof_C 	C 	0.7003	0.2001	0.7554	-0.069
Mof_H 	H 	0.6358	0.1862	0.7807	0.046
Mof_C 	C 	0.8899	0.181	0.7355	-0.025
Mof_H 	H 	0.9558	0.1542	0.7474	0.032
Mof_C 	C 	0.1892	0.1807	0.679	0.083
Mof_N 	N 	0.3529	0.6657	0.1638	-0.197
Mof_C 	C 	0.9862	0.7	0.1987	-0.04
Mof_C 	C 	0.8859	0.7383	0.1807	-0.028
Mof_H 	H 	0.9464	0.7513	0.1546	0.032
Mof_C 	C 	0.6941	0.7577	0.2014	-0.069
Mof_H 	H 	0.6262	0.7842	0.1892	0.046
Mof_C 	C 	0.6013	0.7396	0.2388	0.022
Mof_C 	C 	0.7003	0.7001	0.2554	-0.069
Mof_H 	H 	0.6358	0.6862	0.2807	0.046
Mof_C 	C 	0.8899	0.681	0.2355	-0.025
Mof_H 	H 	0.9558	0.6542	0.2474	0.032
Mof_C 	C 	0.1892	0.6807	0.179	0.083
Mof_N 	N 	0.8529	0.1657	0.1638	-0.196
Mof_C 	C 	0.4862	0.2	0.1987	-0.04
Mof_C 	C 	0.3859	0.2383	0.1807	-0.028
Mof_H 	H 	0.4464	0.2513	0.1546	0.032
Mof_C 	C 	0.1941	0.2577	0.2014	-0.069
Mof_H 	H 	0.1262	0.2842	0.1892	0.046
Mof_C 	C 	0.1013	0.2396	0.2388	0.022
Mof_C 	C 	0.2003	0.2001	0.2554	-0.069
Mof_H 	H 	0.1358	0.1862	0.2807	0.046
Mof_C 	C 	0.3899	0.181	0.2355	-0.025
Mof_H 	H 	0.4558	0.1542	0.2474	0.032
Mof_C 	C 	0.6892	0.1807	0.179	0.084
Mof_N 	N 	0.8529	0.6657	0.6638	-0.196
Mof_C 	C 	0.4862	0.7	0.6987	-0.04
Mof_C 	C 	0.3859	0.7383	0.6807	-0.027
Mof_H 	H 	0.4464	0.7513	0.6546	0.032
Mof_C 	C 	0.1941	0.7577	0.7014	-0.069
Mof_H 	H 	0.1262	0.7842	0.6892	0.047
Mof_C 	C 	0.1013	0.7396	0.7388	0.022
Mof_C 	C 	0.2003	0.7001	0.7554	-0.069
Mof_H 	H 	0.1358	0.6862	0.7807	0.047
Mof_C 	C 	0.3899	0.681	0.7355	-0.025
Mof_H 	H 	0.4558	0.6542	0.7474	0.032
Mof_C 	C 	0.6892	0.6807	0.679	0.084
Mof_N 	N 	0.3971	0.5843	0.6638	-0.197
Mof_C 	C 	0.7638	0.55	0.6987	-0.043
Mof_C 	C 	0.8641	0.5117	0.6807	-0.023
Mof_H 	H 	0.8036	0.4987	0.6546	0.031
Mof_C 	C 	0.0559	0.4923	0.7014	-0.073
Mof_H 	H 	0.1238	0.4658	0.6892	0.048
Mof_C 	C 	0.1487	0.5104	0.7388	0.025
Mof_C 	C 	0.0497	0.5499	0.7554	-0.074
Mof_H 	H 	0.1142	0.5638	0.7807	0.048
Mof_C 	C 	0.8601	0.569	0.7355	-0.02
Mof_H 	H 	0.7942	0.5958	0.7474	0.031
Mof_C 	C 	0.5608	0.5693	0.679	0.085
Mof_N 	N 	0.3971	0.0843	0.1638	-0.197
Mof_C 	C 	0.7638	0.05	0.1987	-0.043
Mof_C 	C 	0.8641	0.0117	0.1807	-0.022
Mof_H 	H 	0.8036	0.9987	0.1546	0.031
Mof_C 	C 	0.0559	0.9923	0.2014	-0.074
Mof_H 	H 	0.1238	0.9658	0.1892	0.048
Mof_C 	C 	0.1487	0.0104	0.2388	0.025
Mof_C 	C 	0.0497	0.0499	0.2554	-0.074
Mof_H 	H 	0.1142	0.0638	0.2807	0.048
Mof_C 	C 	0.8601	0.069	0.2355	-0.02
Mof_H 	H 	0.7942	0.0958	0.2474	0.03
Mof_C 	C 	0.5608	0.0693	0.179	0.085
Mof_N 	N 	0.8971	0.5843	0.1638	-0.197
Mof_C 	C 	0.2638	0.55	0.1987	-0.039
Mof_C 	C 	0.3641	0.5117	0.1807	-0.028
Mof_H 	H 	0.3036	0.4987	0.1546	0.033
Mof_C 	C 	0.5559	0.4923	0.2014	-0.067
Mof_H 	H 	0.6238	0.4658	0.1892	0.046
Mof_C 	C 	0.6487	0.5104	0.2388	0.02
Mof_C 	C 	0.5497	0.5499	0.2554	-0.068
Mof_H 	H 	0.6142	0.5638	0.2807	0.046
Mof_C 	C 	0.3601	0.569	0.2355	-0.026
Mof_H 	H 	0.2942	0.5958	0.2474	0.032
Mof_C 	C 	0.0608	0.5693	0.179	0.083
Mof_N 	N 	0.8971	0.0843	0.6638	-0.197
Mof_C 	C 	0.2638	0.05	0.6987	-0.039
Mof_C 	C 	0.3641	0.0117	0.6807	-0.028
Mof_H 	H 	0.3036	0.9987	0.6546	0.033
Mof_C 	C 	0.5559	0.9923	0.7014	-0.067
Mof_H 	H 	0.6238	0.9658	0.6892	0.046
Mof_C 	C 	0.6487	0.0104	0.7388	0.02
Mof_C 	C 	0.5497	0.0499	0.7554	-0.068
Mof_H 	H 	0.6142	0.0638	0.7807	0.046
Mof_C 	C 	0.3601	0.069	0.7355	-0.026
Mof_H 	H 	0.2942	0.0958	0.7474	0.032
Mof_C 	C 	0.0608	0.0693	0.679	0.083
Mof_N 	N 	0.6029	0.8343	0.9138	-0.197
Mof_C 	C 	0.2362	0.8	0.9487	-0.043
Mof_C 	C 	0.1359	0.7617	0.9307	-0.022
Mof_H 	H 	0.1964	0.7487	0.9046	0.031
Mof_C 	C 	0.9441	0.7423	0.9514	-0.074
Mof_H 	H 	0.8762	0.7158	0.9392	0.048
Mof_C 	C 	0.8513	0.7604	0.9888	0.025
Mof_C 	C 	0.9503	0.7999	0.0054	-0.074
Mof_H 	H 	0.8858	0.8138	0.0307	0.048
Mof_C 	C 	0.1399	0.819	0.9855	-0.02
Mof_H 	H 	0.2058	0.8458	0.9974	0.03
Mof_C 	C 	0.4392	0.8193	0.929	0.085
Mof_N 	N 	0.6029	0.3343	0.4138	-0.197
Mof_C 	C 	0.2362	0.3	0.4487	-0.043
Mof_C 	C 	0.1359	0.2617	0.4307	-0.023
Mof_H 	H 	0.1964	0.2487	0.4046	0.031
Mof_C 	C 	0.9441	0.2423	0.4514	-0.073
Mof_H 	H 	0.8762	0.2158	0.4392	0.048
Mof_C 	C 	0.8513	0.2604	0.4888	0.025
Mof_C 	C 	0.9503	0.2999	0.5054	-0.074
Mof_H 	H 	0.8858	0.3138	0.5307	0.048
Mof_C 	C 	0.1399	0.319	0.4855	-0.02
Mof_H 	H 	0.2058	0.3458	0.4974	0.031
Mof_C 	C 	0.4392	0.3193	0.429	0.085
Mof_N 	N 	0.1029	0.8343	0.4138	-0.197
Mof_C 	C 	0.7362	0.8	0.4487	-0.039
Mof_C 	C 	0.6359	0.7617	0.4307	-0.028
Mof_H 	H 	0.6964	0.7487	0.4046	0.033
Mof_C 	C 	0.4441	0.7423	0.4514	-0.067
Mof_H 	H 	0.3762	0.7158	0.4392	0.046
Mof_C 	C 	0.3513	0.7604	0.4888	0.02
Mof_C 	C 	0.4503	0.7999	0.5054	-0.068
Mof_H 	H 	0.3858	0.8138	0.5307	0.046
Mof_C 	C 	0.6399	0.819	0.4855	-0.026
Mof_H 	H 	0.7058	0.8458	0.4974	0.032
Mof_C 	C 	0.9392	0.8193	0.429	0.083
Mof_N 	N 	0.1029	0.3343	0.9138	-0.197
Mof_C 	C 	0.7362	0.3	0.9487	-0.039
Mof_C 	C 	0.6359	0.2617	0.9307	-0.028
Mof_H 	H 	0.6964	0.2487	0.9046	0.033
Mof_C 	C 	0.4441	0.2423	0.9514	-0.067
Mof_H 	H 	0.3762	0.2158	0.9392	0.046
Mof_C 	C 	0.3513	0.2604	0.9888	0.02
Mof_C 	C 	0.4503	0.2999	0.0054	-0.068
Mof_H 	H 	0.3858	0.3138	0.0307	0.046
Mof_C 	C 	0.6399	0.319	0.9855	-0.026
Mof_H 	H 	0.7058	0.3458	0.9974	0.032
Mof_C 	C 	0.9392	0.3193	0.929	0.083
Mof_N 	N 	0.6471	0.4157	0.9138	-0.197
Mof_C 	C 	0.0138	0.45	0.9487	-0.04
Mof_C 	C 	0.1141	0.4883	0.9307	-0.028
Mof_H 	H 	0.0536	0.5013	0.9046	0.032
Mof_C 	C 	0.3059	0.5077	0.9514	-0.069
Mof_H 	H 	0.3738	0.5342	0.9392	0.046
Mof_C 	C 	0.3987	0.4896	0.9888	0.022
Mof_C 	C 	0.2997	0.4501	0.0054	-0.069
Mof_H 	H 	0.3642	0.4362	0.0307	0.046
Mof_C 	C 	0.1101	0.431	0.9855	-0.025
Mof_H 	H 	0.0442	0.4042	0.9974	0.032
Mof_C 	C 	0.8108	0.4307	0.929	0.083
Mof_N 	N 	0.6471	0.9157	0.4138	-0.197
Mof_C 	C 	0.0138	0.95	0.4487	-0.04
Mof_C 	C 	0.1141	0.9883	0.4307	-0.027
Mof_H 	H 	0.0536	0.0013	0.4046	0.032
Mof_C 	C 	0.3059	0.0077	0.4514	-0.069
Mof_H 	H 	0.3738	0.0342	0.4392	0.047
Mof_C 	C 	0.3987	0.9896	0.4888	0.022
Mof_C 	C 	0.2997	0.9501	0.5054	-0.069
Mof_H 	H 	0.3642	0.9362	0.5307	0.046
Mof_C 	C 	0.1101	0.931	0.4855	-0.025
Mof_H 	H 	0.0442	0.9042	0.4974	0.032
Mof_C 	C 	0.8108	0.9307	0.429	0.083
Mof_N 	N 	0.1471	0.4157	0.4138	-0.196
Mof_C 	C 	0.5138	0.45	0.4487	-0.04
Mof_C 	C 	0.6141	0.4883	0.4307	-0.027
Mof_H 	H 	0.5536	0.5013	0.4046	0.032
Mof_C 	C 	0.8059	0.5077	0.4514	-0.069
Mof_H 	H 	0.8738	0.5342	0.4392	0.047
Mof_C 	C 	0.8987	0.4896	0.4888	0.022
Mof_C 	C 	0.7997	0.4501	0.5054	-0.069
Mof_H 	H 	0.8642	0.4362	0.5307	0.047
Mof_C 	C 	0.6101	0.431	0.4855	-0.025
Mof_H 	H 	0.5442	0.4042	0.4974	0.032
Mof_C 	C 	0.3108	0.4307	0.429	0.084
Mof_N 	N 	0.1471	0.9157	0.9138	-0.196
Mof_C 	C 	0.5138	0.95	0.9487	-0.039
Mof_C 	C 	0.6141	0.9883	0.9307	-0.028
Mof_H 	H 	0.5536	0.0013	0.9046	0.033
Mof_C 	C 	0.8059	0.0077	0.9514	-0.068
Mof_H 	H 	0.8738	0.0342	0.9392	0.046
Mof_C 	C 	0.8987	0.9896	0.9888	0.022
Mof_C 	C 	0.7997	0.9501	0.0054	-0.069
Mof_H 	H 	0.8642	0.9362	0.0307	0.046
Mof_C 	C 	0.6101	0.931	0.9855	-0.025
Mof_H 	H 	0.5442	0.9042	0.9974	0.032
Mof_C 	C 	0.3108	0.9307	0.929	0.084
Mof_N 	N 	0.6471	0.8343	0.3362	-0.197
Mof_C 	C 	0.0138	0.8	0.3013	-0.04
Mof_C 	C 	0.1141	0.7617	0.3193	-0.028
Mof_H 	H 	0.0536	0.7487	0.3454	0.032
Mof_C 	C 	0.3059	0.7423	0.2986	-0.069
Mof_H 	H 	0.3738	0.7158	0.3108	0.046
Mof_C 	C 	0.3987	0.7604	0.2612	0.022
Mof_C 	C 	0.2997	0.7999	0.2446	-0.069
Mof_H 	H 	0.3642	0.8138	0.2193	0.046
Mof_C 	C 	0.1101	0.819	0.2645	-0.025
Mof_H 	H 	0.0442	0.8458	0.2526	0.032
Mof_C 	C 	0.8108	0.8193	0.321	0.083
Mof_N 	N 	0.6471	0.3343	0.8362	-0.197
Mof_C 	C 	0.0138	0.3	0.8013	-0.04
Mof_C 	C 	0.1141	0.2617	0.8193	-0.028
Mof_H 	H 	0.0536	0.2487	0.8454	0.032
Mof_C 	C 	0.3059	0.2423	0.7986	-0.069
Mof_H 	H 	0.3738	0.2158	0.8108	0.046
Mof_C 	C 	0.3987	0.2604	0.7612	0.022
Mof_C 	C 	0.2997	0.2999	0.7446	-0.069
Mof_H 	H 	0.3642	0.3138	0.7193	0.046
Mof_C 	C 	0.1101	0.319	0.7645	-0.025
Mof_H 	H 	0.0442	0.3458	0.7526	0.032
Mof_C 	C 	0.8108	0.3193	0.821	0.083
Mof_N 	N 	0.1471	0.8343	0.8362	-0.196
Mof_C 	C 	0.5138	0.8	0.8013	-0.04
Mof_C 	C 	0.6141	0.7617	0.8193	-0.028
Mof_H 	H 	0.5536	0.7487	0.8454	0.032
Mof_C 	C 	0.8059	0.7423	0.7986	-0.069
Mof_H 	H 	0.8738	0.7158	0.8108	0.046
Mof_C 	C 	0.8987	0.7604	0.7612	0.022
Mof_C 	C 	0.7997	0.7999	0.7446	-0.069
Mof_H 	H 	0.8642	0.8138	0.7193	0.046
Mof_C 	C 	0.6101	0.819	0.7645	-0.025
Mof_H 	H 	0.5442	0.8458	0.7526	0.032
Mof_C 	C 	0.3108	0.8193	0.821	0.084
Mof_N 	N 	0.1471	0.3343	0.3362	-0.196
Mof_C 	C 	0.5138	0.3	0.3013	-0.04
Mof_C 	C 	0.6141	0.2617	0.3193	-0.027
Mof_H 	H 	0.5536	0.2487	0.3454	0.032
Mof_C 	C 	0.8059	0.2423	0.2986	-0.069
Mof_H 	H 	0.8738	0.2158	0.3108	0.047
Mof_C 	C 	0.8987	0.2604	0.2612	0.022
Mof_C 	C 	0.7997	0.2999	0.2446	-0.069
Mof_H 	H 	0.8642	0.3138	0.2193	0.047
Mof_C 	C 	0.6101	0.319	0.2645	-0.025
Mof_H 	H 	0.5442	0.3458	0.2526	0.032
Mof_C 	C 	0.3108	0.3193	0.321	0.084
Mof_N 	N 	0.6029	0.4157	0.3362	-0.197
Mof_C 	C 	0.2362	0.45	0.3013	-0.043
Mof_C 	C 	0.1359	0.4883	0.3193	-0.023
Mof_H 	H 	0.1964	0.5013	0.3454	0.031
Mof_C 	C 	0.9441	0.5077	0.2986	-0.073
Mof_H 	H 	0.8762	0.5342	0.3108	0.048
Mof_C 	C 	0.8513	0.4896	0.2612	0.025
Mof_C 	C 	0.9503	0.4501	0.2446	-0.074
Mof_H 	H 	0.8858	0.4362	0.2193	0.048
Mof_C 	C 	0.1399	0.431	0.2645	-0.02
Mof_H 	H 	0.2058	0.4042	0.2526	0.031
Mof_C 	C 	0.4392	0.4307	0.321	0.085
Mof_N 	N 	0.6029	0.9157	0.8362	-0.197
Mof_C 	C 	0.2362	0.95	0.8013	-0.043
Mof_C 	C 	0.1359	0.9883	0.8193	-0.022
Mof_H 	H 	0.1964	0.0013	0.8454	0.031
Mof_C 	C 	0.9441	0.0077	0.7986	-0.074
Mof_H 	H 	0.8762	0.0342	0.8108	0.048
Mof_C 	C 	0.8513	0.9896	0.7612	0.025
Mof_C 	C 	0.9503	0.9501	0.7446	-0.074
Mof_H 	H 	0.8858	0.9362	0.7193	0.048
Mof_C 	C 	0.1399	0.931	0.7645	-0.02
Mof_H 	H 	0.2058	0.9042	0.7526	0.03
Mof_C 	C 	0.4392	0.9307	0.821	0.085
Mof_N 	N 	0.1029	0.4157	0.8362	-0.197
Mof_C 	C 	0.7362	0.45	0.8013	-0.039
Mof_C 	C 	0.6359	0.4883	0.8193	-0.028
Mof_H 	H 	0.6964	0.5013	0.8454	0.033
Mof_C 	C 	0.4441	0.5077	0.7986	-0.067
Mof_H 	H 	0.3762	0.5342	0.8108	0.046
Mof_C 	C 	0.3513	0.4896	0.7612	0.02
Mof_C 	C 	0.4503	0.4501	0.7446	-0.068
Mof_H 	H 	0.3858	0.4362	0.7193	0.046
Mof_C 	C 	0.6399	0.431	0.7645	-0.026
Mof_H 	H 	0.7058	0.4042	0.7526	0.032
Mof_C 	C 	0.9392	0.4307	0.821	0.083
Mof_N 	N 	0.1029	0.9157	0.3362	-0.197
Mof_C 	C 	0.7362	0.95	0.3013	-0.039
Mof_C 	C 	0.6359	0.9883	0.3193	-0.028
Mof_H 	H 	0.6964	0.0013	0.3454	0.033
Mof_C 	C 	0.4441	0.0077	0.2986	-0.067
Mof_H 	H 	0.3762	0.0342	0.3108	0.046
Mof_C 	C 	0.3513	0.9896	0.2612	0.02
Mof_C 	C 	0.4503	0.9501	0.2446	-0.068
Mof_H 	H 	0.3858	0.9362	0.2193	0.046
Mof_C 	C 	0.6399	0.931	0.2645	-0.026
Mof_H 	H 	0.7058	0.9042	0.2526	0.032
Mof_C 	C 	0.9392	0.9307	0.321	0.083
Mof_Ag	Ag	0.125	0.125	0.125	0.654
Mof_Ag	Ag	0.125	0.625	0.625	0.655
Mof_Ag	Ag	0.625	0.125	0.625	0.657
Mof_Ag	Ag	0.625	0.625	0.125	0.657
Mof_Ag	Ag	0.875	0.875	0.875	0.654
Mof_Ag	Ag	0.875	0.375	0.375	0.655
Mof_Ag	Ag	0.375	0.875	0.375	0.657
Mof_Ag	Ag	0.375	0.375	0.875	0.657
_end
