data_functionalizedCrystal
_audit_creation_method	'EQeq! by Chris Wilmer'
_symmetry_space_group_name_H-M	'P1'
_symmetry_Int_Tables_number	1
_symmetry_cell_setting	triclinic
loop_
_symmetry_equiv_pos_as_xyz
  x,y,z
_cell_length_a	13.3607
_cell_length_b	13.3607
_cell_length_c	13.3607
_cell_angle_alpha	90
_cell_angle_beta	90
_cell_angle_gamma	90
loop_
_atom_site_label
_atom_site_type_symbol
_atom_site_fract_x
_atom_site_fract_y
_atom_site_fract_z
_atom_site_charge
Mof_N 	N 	0.439	0.1387	0.9654	0.553
Mof_N 	N 	0.439	0.6387	0.4654	-0.062
Mof_N 	N 	0.939	0.1387	0.4654	-0.549
Mof_N 	N 	0.939	0.6387	0.9654	0.246
Mof_N 	N 	0.561	0.8613	0.9654	1.203
Mof_N 	N 	0.561	0.3613	0.4654	-0.094
Mof_N 	N 	0.061	0.8613	0.4654	0.787
Mof_N 	N 	0.061	0.3613	0.9654	1.529
Mof_N 	N 	0.561	0.1387	0.0346	-0.716
Mof_N 	N 	0.561	0.6387	0.5346	-0.021
Mof_N 	N 	0.061	0.1387	0.5346	0.39
Mof_N 	N 	0.061	0.6387	0.0346	-0.383
Mof_N 	N 	0.439	0.8613	0.0346	-1.223
Mof_N 	N 	0.439	0.3613	0.5346	0.001
Mof_N 	N 	0.939	0.8613	0.5346	-0.812
Mof_N 	N 	0.939	0.3613	0.0346	-1.575
Mof_N 	N 	0.9654	0.439	0.1387	0.553
Mof_N 	N 	0.9654	0.939	0.6387	0.246
Mof_N 	N 	0.4654	0.439	0.6387	-0.062
Mof_N 	N 	0.4654	0.939	0.1387	-0.549
Mof_N 	N 	0.9654	0.561	0.8613	1.203
Mof_N 	N 	0.9654	0.061	0.3613	1.529
Mof_N 	N 	0.4654	0.561	0.3613	-0.094
Mof_N 	N 	0.4654	0.061	0.8613	0.787
Mof_N 	N 	0.0346	0.561	0.1387	-0.716
Mof_N 	N 	0.0346	0.061	0.6387	-0.383
Mof_N 	N 	0.5346	0.561	0.6387	-0.021
Mof_N 	N 	0.5346	0.061	0.1387	0.391
Mof_N 	N 	0.0346	0.439	0.8613	-1.222
Mof_N 	N 	0.0346	0.939	0.3613	-1.574
Mof_N 	N 	0.5346	0.439	0.3613	0.002
Mof_N 	N 	0.5346	0.939	0.8613	-0.811
Mof_N 	N 	0.1387	0.9654	0.439	0.554
Mof_N 	N 	0.1387	0.4654	0.939	-0.548
Mof_N 	N 	0.6387	0.9654	0.939	0.247
Mof_N 	N 	0.6387	0.4654	0.439	-0.061
Mof_N 	N 	0.8613	0.9654	0.561	1.204
Mof_N 	N 	0.8613	0.4654	0.061	0.788
Mof_N 	N 	0.3613	0.9654	0.061	1.53
Mof_N 	N 	0.3613	0.4654	0.561	-0.093
Mof_N 	N 	0.1387	0.0346	0.561	-0.715
Mof_N 	N 	0.1387	0.5346	0.061	0.391
Mof_N 	N 	0.6387	0.0346	0.061	-0.382
Mof_N 	N 	0.6387	0.5346	0.561	-0.02
Mof_N 	N 	0.8613	0.0346	0.439	-1.222
Mof_N 	N 	0.8613	0.5346	0.939	-0.811
Mof_N 	N 	0.3613	0.0346	0.939	-1.574
Mof_N 	N 	0.3613	0.5346	0.439	0.002
Mof_N 	N 	0.1387	0.439	0.0346	-0.742
Mof_N 	N 	0.1387	0.939	0.5346	-0.608
Mof_N 	N 	0.6387	0.439	0.5346	0.047
Mof_N 	N 	0.6387	0.939	0.0346	-1.811
Mof_N 	N 	0.8613	0.561	0.0346	-1.332
Mof_N 	N 	0.8613	0.061	0.5346	0.984
Mof_N 	N 	0.3613	0.561	0.5346	-0.038
Mof_N 	N 	0.3613	0.061	0.0346	-0.347
Mof_N 	N 	0.1387	0.561	0.9654	0.579
Mof_N 	N 	0.1387	0.061	0.4654	0.426
Mof_N 	N 	0.6387	0.561	0.4654	-0.125
Mof_N 	N 	0.6387	0.061	0.9654	1.775
Mof_N 	N 	0.8613	0.439	0.9654	1.316
Mof_N 	N 	0.8613	0.939	0.4654	-0.982
Mof_N 	N 	0.3613	0.439	0.4654	-0.055
Mof_N 	N 	0.3613	0.939	0.9654	0.204
Mof_N 	N 	0.439	0.9654	0.8613	1.316
Mof_N 	N 	0.439	0.4654	0.3613	-0.055
Mof_N 	N 	0.939	0.9654	0.3613	0.204
Mof_N 	N 	0.939	0.4654	0.8613	-0.982
Mof_N 	N 	0.561	0.9654	0.1387	0.579
Mof_N 	N 	0.561	0.4654	0.6387	-0.125
Mof_N 	N 	0.061	0.9654	0.6387	1.775
Mof_N 	N 	0.061	0.4654	0.1387	0.426
Mof_N 	N 	0.561	0.0346	0.8613	-1.332
Mof_N 	N 	0.561	0.5346	0.3613	-0.038
Mof_N 	N 	0.061	0.0346	0.3613	-0.347
Mof_N 	N 	0.061	0.5346	0.8613	0.984
Mof_N 	N 	0.439	0.0346	0.1387	-0.742
Mof_N 	N 	0.439	0.5346	0.6387	0.047
Mof_N 	N 	0.939	0.0346	0.6387	-1.811
Mof_N 	N 	0.939	0.5346	0.1387	-0.608
Mof_N 	N 	0.9654	0.1387	0.561	0.579
Mof_N 	N 	0.9654	0.6387	0.061	1.775
Mof_N 	N 	0.4654	0.1387	0.061	0.426
Mof_N 	N 	0.4654	0.6387	0.561	-0.125
Mof_N 	N 	0.9654	0.8613	0.439	1.316
Mof_N 	N 	0.9654	0.3613	0.939	0.204
Mof_N 	N 	0.4654	0.8613	0.939	-0.982
Mof_N 	N 	0.4654	0.3613	0.439	-0.055
Mof_N 	N 	0.0346	0.1387	0.439	-0.742
Mof_N 	N 	0.0346	0.6387	0.939	-1.811
Mof_N 	N 	0.5346	0.1387	0.939	-0.608
Mof_N 	N 	0.5346	0.6387	0.439	0.047
Mof_N 	N 	0.0346	0.8613	0.561	-1.332
Mof_N 	N 	0.0346	0.3613	0.061	-0.347
Mof_N 	N 	0.5346	0.8613	0.061	0.984
Mof_N 	N 	0.5346	0.3613	0.561	-0.038
Mof_N 	N 	0.561	0.8613	0.0346	-1.332
Mof_N 	N 	0.561	0.3613	0.5346	-0.038
Mof_N 	N 	0.061	0.8613	0.5346	0.984
Mof_N 	N 	0.061	0.3613	0.0346	-0.347
Mof_N 	N 	0.439	0.1387	0.0346	-0.742
Mof_N 	N 	0.439	0.6387	0.5346	0.047
Mof_N 	N 	0.939	0.1387	0.5346	-0.608
Mof_N 	N 	0.939	0.6387	0.0346	-1.811
Mof_N 	N 	0.439	0.8613	0.9654	1.316
Mof_N 	N 	0.439	0.3613	0.4654	-0.055
Mof_N 	N 	0.939	0.8613	0.4654	-0.982
Mof_N 	N 	0.939	0.3613	0.9654	0.204
Mof_N 	N 	0.561	0.1387	0.9654	0.579
Mof_N 	N 	0.561	0.6387	0.4654	-0.125
Mof_N 	N 	0.061	0.1387	0.4654	0.426
Mof_N 	N 	0.061	0.6387	0.9654	1.775
Mof_N 	N 	0.0346	0.561	0.8613	-1.332
Mof_N 	N 	0.0346	0.061	0.3613	-0.347
Mof_N 	N 	0.5346	0.561	0.3613	-0.038
Mof_N 	N 	0.5346	0.061	0.8613	0.984
Mof_N 	N 	0.0346	0.439	0.1387	-0.742
Mof_N 	N 	0.0346	0.939	0.6387	-1.811
Mof_N 	N 	0.5346	0.439	0.6387	0.047
Mof_N 	N 	0.5346	0.939	0.1387	-0.608
Mof_N 	N 	0.9654	0.439	0.8613	1.316
Mof_N 	N 	0.9654	0.939	0.3613	0.204
Mof_N 	N 	0.4654	0.439	0.3613	-0.055
Mof_N 	N 	0.4654	0.939	0.8613	-0.982
Mof_N 	N 	0.9654	0.561	0.1387	0.579
Mof_N 	N 	0.9654	0.061	0.6387	1.775
Mof_N 	N 	0.4654	0.561	0.6387	-0.125
Mof_N 	N 	0.4654	0.061	0.1387	0.426
Mof_N 	N 	0.8613	0.0346	0.561	-1.332
Mof_N 	N 	0.8613	0.5346	0.061	0.984
Mof_N 	N 	0.3613	0.0346	0.061	-0.347
Mof_N 	N 	0.3613	0.5346	0.561	-0.038
Mof_N 	N 	0.1387	0.0346	0.439	-0.742
Mof_N 	N 	0.1387	0.5346	0.939	-0.608
Mof_N 	N 	0.6387	0.0346	0.939	-1.811
Mof_N 	N 	0.6387	0.5346	0.439	0.047
Mof_N 	N 	0.8613	0.9654	0.439	1.316
Mof_N 	N 	0.8613	0.4654	0.939	-0.982
Mof_N 	N 	0.3613	0.9654	0.939	0.204
Mof_N 	N 	0.3613	0.4654	0.439	-0.055
Mof_N 	N 	0.1387	0.9654	0.561	0.579
Mof_N 	N 	0.1387	0.4654	0.061	0.426
Mof_N 	N 	0.6387	0.9654	0.061	1.775
Mof_N 	N 	0.6387	0.4654	0.561	-0.125
Mof_N 	N 	0.8613	0.561	0.9654	1.204
Mof_N 	N 	0.8613	0.061	0.4654	0.788
Mof_N 	N 	0.3613	0.561	0.4654	-0.093
Mof_N 	N 	0.3613	0.061	0.9654	1.53
Mof_N 	N 	0.1387	0.439	0.9654	0.554
Mof_N 	N 	0.1387	0.939	0.4654	-0.548
Mof_N 	N 	0.6387	0.439	0.4654	-0.061
Mof_N 	N 	0.6387	0.939	0.9654	0.247
Mof_N 	N 	0.8613	0.439	0.0346	-1.222
Mof_N 	N 	0.8613	0.939	0.5346	-0.811
Mof_N 	N 	0.3613	0.439	0.5346	0.002
Mof_N 	N 	0.3613	0.939	0.0346	-1.574
Mof_N 	N 	0.1387	0.561	0.0346	-0.715
Mof_N 	N 	0.1387	0.061	0.5346	0.391
Mof_N 	N 	0.6387	0.561	0.5346	-0.02
Mof_N 	N 	0.6387	0.061	0.0346	-0.382
Mof_N 	N 	0.561	0.0346	0.1387	-0.715
Mof_N 	N 	0.561	0.5346	0.6387	-0.02
Mof_N 	N 	0.061	0.0346	0.6387	-0.382
Mof_N 	N 	0.061	0.5346	0.1387	0.391
Mof_N 	N 	0.439	0.0346	0.8613	-1.222
Mof_N 	N 	0.439	0.5346	0.3613	0.002
Mof_N 	N 	0.939	0.0346	0.3613	-1.574
Mof_N 	N 	0.939	0.5346	0.8613	-0.811
Mof_N 	N 	0.439	0.9654	0.1387	0.554
Mof_N 	N 	0.439	0.4654	0.6387	-0.061
Mof_N 	N 	0.939	0.9654	0.6387	0.247
Mof_N 	N 	0.939	0.4654	0.1387	-0.548
Mof_N 	N 	0.561	0.9654	0.8613	1.204
Mof_N 	N 	0.561	0.4654	0.3613	-0.093
Mof_N 	N 	0.061	0.9654	0.3613	1.53
Mof_N 	N 	0.061	0.4654	0.8613	0.788
Mof_N 	N 	0.0346	0.8613	0.439	-1.222
Mof_N 	N 	0.0346	0.3613	0.939	-1.574
Mof_N 	N 	0.5346	0.8613	0.939	-0.811
Mof_N 	N 	0.5346	0.3613	0.439	0.002
Mof_N 	N 	0.0346	0.1387	0.561	-0.715
Mof_N 	N 	0.0346	0.6387	0.061	-0.382
Mof_N 	N 	0.5346	0.1387	0.061	0.391
Mof_N 	N 	0.5346	0.6387	0.561	-0.02
Mof_N 	N 	0.9654	0.8613	0.561	1.204
Mof_N 	N 	0.9654	0.3613	0.061	1.53
Mof_N 	N 	0.4654	0.8613	0.061	0.788
Mof_N 	N 	0.4654	0.3613	0.561	-0.093
Mof_N 	N 	0.9654	0.1387	0.439	0.554
Mof_N 	N 	0.9654	0.6387	0.939	0.247
Mof_N 	N 	0.4654	0.1387	0.939	-0.548
Mof_N 	N 	0.4654	0.6387	0.439	-0.061
Mof_K 	K 	0.5	0.5	-0	3.113
Mof_K 	K 	1.8747e-33	0.5	0.5	3.113
Mof_K 	K 	0.5	0	0.5	3.113
Mof_K 	K 	-0	0	-0	3.107
Mof_N 	N 	0.4793	0.2162	0.9793	0.195
Mof_N 	N 	0.4793	0.7162	0.4793	0.016
Mof_N 	N 	0.5207	0.7838	0.9793	0.237
Mof_N 	N 	0.5207	0.2838	0.4793	-0.003
Mof_N 	N 	0.0207	0.7838	0.4793	-0.247
Mof_N 	N 	0.5207	0.2162	0.0207	-0.195
Mof_N 	N 	0.5207	0.7162	0.5207	-0.017
Mof_N 	N 	0.0207	0.7162	0.0207	-0.175
Mof_N 	N 	0.4793	0.7838	0.0207	-0.247
Mof_N 	N 	0.4793	0.2838	0.5207	-0.003
Mof_N 	N 	0.9793	0.4793	0.2162	0.195
Mof_N 	N 	0.9793	0.9793	0.7162	0.275
Mof_N 	N 	0.4793	0.4793	0.7162	0.016
Mof_N 	N 	0.9793	0.5207	0.7838	0.237
Mof_N 	N 	0.9793	0.0207	0.2838	-0.058
Mof_N 	N 	0.4793	0.0207	0.7838	-0.247
Mof_N 	N 	0.0207	0.5207	0.2162	-0.195
Mof_N 	N 	0.0207	0.0207	0.7162	-0.175
Mof_N 	N 	0.0207	0.4793	0.7838	-0.247
Mof_N 	N 	0.0207	0.9793	0.2838	-0.058
Mof_N 	N 	0.2162	0.9793	0.4793	0.195
Mof_N 	N 	0.7162	0.9793	0.9793	0.275
Mof_N 	N 	0.7162	0.4793	0.4793	0.016
Mof_N 	N 	0.7838	0.9793	0.5207	0.237
Mof_N 	N 	0.7838	0.4793	0.0207	-0.247
Mof_N 	N 	0.2838	0.9793	0.0207	-0.058
Mof_N 	N 	0.2162	0.0207	0.5207	-0.195
Mof_N 	N 	0.7162	0.0207	0.0207	-0.175
Mof_N 	N 	0.7838	0.0207	0.4793	-0.247
Mof_N 	N 	0.2838	0.0207	0.9793	-0.058
Mof_N 	N 	0.2162	0.4793	0.0207	-0.174
Mof_N 	N 	0.7162	0.4793	0.5207	0
Mof_N 	N 	0.7838	0.5207	0.0207	-0.263
Mof_N 	N 	0.2838	0.5207	0.5207	0.004
Mof_N 	N 	0.2838	0.0207	0.0207	-0.001
Mof_N 	N 	0.2162	0.5207	0.9793	0.176
Mof_N 	N 	0.2162	0.0207	0.4793	-0.174
Mof_N 	N 	0.7162	0.5207	0.4793	0
Mof_N 	N 	0.7838	0.4793	0.9793	0.25
Mof_N 	N 	0.2838	0.4793	0.4793	-0.011
Mof_N 	N 	0.4793	0.9793	0.7838	0.25
Mof_N 	N 	0.4793	0.4793	0.2838	-0.011
Mof_N 	N 	0.5207	0.9793	0.2162	0.176
Mof_N 	N 	0.5207	0.4793	0.7162	0
Mof_N 	N 	0.0207	0.4793	0.2162	-0.174
Mof_N 	N 	0.5207	0.0207	0.7838	-0.263
Mof_N 	N 	0.5207	0.5207	0.2838	0.004
Mof_N 	N 	0.0207	0.0207	0.2838	-0.001
Mof_N 	N 	0.4793	0.0207	0.2162	-0.174
Mof_N 	N 	0.4793	0.5207	0.7162	0
Mof_N 	N 	0.9793	0.2162	0.5207	0.176
Mof_N 	N 	0.9793	0.7162	0.0207	-0.059
Mof_N 	N 	0.4793	0.2162	0.0207	-0.174
Mof_N 	N 	0.9793	0.7838	0.4793	0.25
Mof_N 	N 	0.9793	0.2838	0.9793	0.102
Mof_N 	N 	0.4793	0.2838	0.4793	-0.011
Mof_N 	N 	0.0207	0.2162	0.4793	-0.174
Mof_N 	N 	0.0207	0.7162	0.9793	-0.059
Mof_N 	N 	0.0207	0.7838	0.5207	-0.263
Mof_N 	N 	0.0207	0.2838	0.0207	-0.001
Mof_N 	N 	0.5207	0.7838	0.0207	-0.263
Mof_N 	N 	0.5207	0.2838	0.5207	0.004
Mof_N 	N 	0.4793	0.7162	0.5207	0
Mof_N 	N 	0.4793	0.7838	0.9793	0.25
Mof_N 	N 	0.5207	0.2162	0.9793	0.176
Mof_N 	N 	0.5207	0.7162	0.4793	0
Mof_N 	N 	0.0207	0.5207	0.7838	-0.263
Mof_N 	N 	0.0207	0.9793	0.7162	-0.059
Mof_N 	N 	0.9793	0.4793	0.7838	0.25
Mof_N 	N 	0.9793	0.9793	0.2838	0.102
Mof_N 	N 	0.9793	0.5207	0.2162	0.176
Mof_N 	N 	0.9793	0.0207	0.7162	-0.059
Mof_N 	N 	0.7838	0.0207	0.5207	-0.263
Mof_N 	N 	0.7162	0.0207	0.9793	-0.059
Mof_N 	N 	0.7838	0.9793	0.4793	0.25
Mof_N 	N 	0.2838	0.9793	0.9793	0.102
Mof_N 	N 	0.2162	0.9793	0.5207	0.176
Mof_N 	N 	0.7162	0.9793	0.0207	-0.059
Mof_N 	N 	0.7838	0.5207	0.9793	0.237
Mof_N 	N 	0.2838	0.5207	0.4793	-0.003
Mof_N 	N 	0.2162	0.4793	0.9793	0.195
Mof_N 	N 	0.2838	0.4793	0.5207	-0.003
Mof_N 	N 	0.2162	0.5207	0.0207	-0.195
Mof_N 	N 	0.7162	0.5207	0.5207	-0.017
Mof_N 	N 	0.5207	0.0207	0.2162	-0.195
Mof_N 	N 	0.5207	0.5207	0.7162	-0.017
Mof_N 	N 	0.4793	0.5207	0.2838	-0.003
Mof_N 	N 	0.4793	0.9793	0.2162	0.195
Mof_N 	N 	0.5207	0.9793	0.7838	0.237
Mof_N 	N 	0.5207	0.4793	0.2838	-0.003
Mof_N 	N 	0.0207	0.2838	0.9793	-0.058
Mof_N 	N 	0.0207	0.2162	0.5207	-0.195
Mof_N 	N 	0.9793	0.7838	0.5207	0.237
Mof_N 	N 	0.9793	0.2838	0.0207	-0.058
Mof_N 	N 	0.9793	0.2162	0.4793	0.195
Mof_N 	N 	0.9793	0.7162	0.9793	0.275
Mof_N 	N 	0.519	0.2925	-0	-0.075
Mof_N 	N 	0.519	0.7925	0.5	-0.023
Mof_N 	N 	0.019	0.2925	0.5	0.601
Mof_N 	N 	0.019	0.7925	-0	0.337
Mof_N 	N 	0.481	0.7075	-0	-0.179
Mof_N 	N 	0.481	0.2075	0.5	-0.089
Mof_N 	N 	0.981	0.7075	0.5	-0.935
Mof_N 	N 	0.981	0.2075	-0	-0.11
Mof_N 	N 	0.481	0.2925	-0	-0.159
Mof_N 	N 	0.481	0.7925	0.5	-0.135
Mof_N 	N 	0.981	0.2925	0.5	-0.711
Mof_N 	N 	0.981	0.7925	-0	-0.491
Mof_N 	N 	0.519	0.7075	-0	-0.077
Mof_N 	N 	0.519	0.2075	0.5	-0.094
Mof_N 	N 	0.019	0.7075	0.5	0.876
Mof_N 	N 	0.019	0.2075	-0	-0.057
Mof_N 	N 	3.74278e-33	0.519	0.2925	-0.075
Mof_N 	N 	2.9714e-33	0.019	0.7925	0.337
Mof_N 	N 	0.5	0.519	0.7925	-0.023
Mof_N 	N 	0.5	0.019	0.2925	0.601
Mof_N 	N 	7.94486e-33	0.481	0.7075	-0.179
Mof_N 	N 	6.07016e-33	0.981	0.2075	-0.11
Mof_N 	N 	0.5	0.481	0.2075	-0.089
Mof_N 	N 	0.5	0.981	0.7075	-0.935
Mof_N 	N 	9.03494e-33	0.481	0.2925	-0.159
Mof_N 	N 	-7.61292e-33	0.981	0.7925	-0.491
Mof_N 	N 	0.5	0.481	0.7925	-0.135
Mof_N 	N 	0.5	0.981	0.2925	-0.711
Mof_N 	N 	-2.63946e-33	0.519	0.7075	-0.077
Mof_N 	N 	7.78e-34	0.019	0.2075	-0.057
Mof_N 	N 	0.5	0.519	0.2075	-0.094
Mof_N 	N 	0.5	0.019	0.7075	0.876
Mof_N 	N 	0.2925	0	0.519	-0.075
Mof_N 	N 	0.2925	0.5	0.019	0.601
Mof_N 	N 	0.7925	-1.6538e-34	0.019	0.337
Mof_N 	N 	0.7925	0.5	0.519	-0.023
Mof_N 	N 	0.7075	5.29216e-33	0.481	-0.179
Mof_N 	N 	0.7075	0.5	0.981	-0.935
Mof_N 	N 	0.2075	0	0.981	-0.11
Mof_N 	N 	0.2075	0.5	0.481	-0.089
Mof_N 	N 	0.2925	5.29216e-33	0.481	-0.159
Mof_N 	N 	0.2925	0.5	0.981	-0.711
Mof_N 	N 	0.7925	0	0.981	-0.491
Mof_N 	N 	0.7925	0.5	0.481	-0.135
Mof_N 	N 	0.7075	0	0.519	-0.077
Mof_N 	N 	0.7075	0.5	0.019	0.876
Mof_N 	N 	0.2075	-1.6538e-34	0.019	-0.057
Mof_N 	N 	0.2075	0.5	0.519	-0.094
Mof_N 	N 	0.2925	0.519	-0	-0.075
Mof_N 	N 	0.2925	0.019	0.5	0.601
Mof_N 	N 	0.7925	0.519	0.5	-0.023
Mof_N 	N 	0.7925	0.019	-0	0.337
Mof_N 	N 	0.7075	0.481	-0	-0.179
Mof_N 	N 	0.7075	0.981	0.5	-0.935
Mof_N 	N 	0.2075	0.481	0.5	-0.089
Mof_N 	N 	0.2075	0.981	-0	-0.11
Mof_N 	N 	0.2925	0.481	-0	-0.159
Mof_N 	N 	0.2925	0.981	0.5	-0.711
Mof_N 	N 	0.7925	0.481	0.5	-0.135
Mof_N 	N 	0.7925	0.981	-0	-0.491
Mof_N 	N 	0.7075	0.519	-0	-0.077
Mof_N 	N 	0.7075	0.019	0.5	0.876
Mof_N 	N 	0.2075	0.519	0.5	-0.094
Mof_N 	N 	0.2075	0.019	-0	-0.057
Mof_N 	N 	0.519	5.29216e-33	0.7075	-0.077
Mof_N 	N 	0.519	0.5	0.2075	-0.094
Mof_N 	N 	0.019	0	0.2075	-0.057
Mof_N 	N 	0.019	0.5	0.7075	0.876
Mof_N 	N 	0.481	2.64608e-33	0.2925	-0.159
Mof_N 	N 	0.481	0.5	0.7925	-0.135
Mof_N 	N 	0.981	0	0.7925	-0.491
Mof_N 	N 	0.981	0.5	0.2925	-0.711
Mof_N 	N 	0.481	5.29216e-33	0.7075	-0.179
Mof_N 	N 	0.481	0.5	0.2075	-0.089
Mof_N 	N 	0.981	0	0.2075	-0.11
Mof_N 	N 	0.981	0.5	0.7075	-0.935
Mof_N 	N 	0.519	2.64608e-33	0.2925	-0.075
Mof_N 	N 	0.519	0.5	0.7925	-0.023
Mof_N 	N 	0.019	0	0.7925	0.337
Mof_N 	N 	0.019	0.5	0.2925	0.601
Mof_N 	N 	7.09562e-33	0.2925	0.481	-0.159
Mof_N 	N 	-6.90615e-33	0.7925	0.981	-0.491
Mof_N 	N 	0.5	0.2925	0.981	-0.711
Mof_N 	N 	0.5	0.7925	0.481	-0.135
Mof_N 	N 	1.94594e-33	0.7075	0.519	-0.077
Mof_N 	N 	5.67378e-34	0.2075	0.019	-0.057
Mof_N 	N 	0.5	0.7075	0.019	0.876
Mof_N 	N 	0.5	0.2075	0.519	-0.094
Mof_N 	N 	1.94594e-33	0.2925	0.519	-0.075
Mof_N 	N 	5.85954e-33	0.7925	0.019	0.337
Mof_N 	N 	0.5	0.2925	0.019	0.601
Mof_N 	N 	0.5	0.7925	0.519	-0.023
Mof_N 	N 	1.23878e-32	0.7075	0.481	-0.179
Mof_N 	N 	3.67816e-33	0.2075	0.981	-0.11
Mof_N 	N 	0.5	0.7075	0.981	-0.935
Mof_N 	N 	0.5	0.2075	0.481	-0.089
Mof_Fe	Fe	0.5	0	-0	1.093
Mof_Fe	Fe	0.5	0.5	0.5	1.009
Mof_Fe	Fe	1.8747e-33	0	0.5	1.093
Mof_Fe	Fe	-0	0.5	-0	1.093
_end
