data_functionalizedCrystal
_audit_creation_method	'EQeq! by Chris Wilmer'
_symmetry_space_group_name_H-M	'P1'
_symmetry_Int_Tables_number	1
_symmetry_cell_setting	triclinic
loop_
_symmetry_equiv_pos_as_xyz
  x,y,z
_cell_length_a	19.0427
_cell_length_b	19.0427
_cell_length_c	5.8108
_cell_angle_alpha	90
_cell_angle_beta	90
_cell_angle_gamma	90
loop_
_atom_site_label
_atom_site_type_symbol
_atom_site_fract_x
_atom_site_fract_y
_atom_site_fract_z
_atom_site_charge
Mof_O 	O 	0.3155	0.7562	0.06	-0.56
Mof_O 	O 	0.4105	0.7693	0.262	-0.321
Mof_C 	C 	0.381	0.7592	0.089	0.38
Mof_O 	O 	0.3755	0.7341	0.6826	-0.554
Mof_H 	H 	0.397	0.732	0.565	0.34
Mof_C 	C 	0.4755	0.6863	0.888	0.119
Mof_H 	H 	0.5049	0.6947	0.0235	0.011
Mof_O 	O 	0.4397	0.6261	0.9252	-0.112
Mof_O 	O 	0.5703	0.621	0.7093	-0.088
Mof_C 	C 	0.5699	0.7437	0.627	0.008
Mof_H 	H 	0.5398	0.7842	0.5928	0.055
Mof_O 	O 	0.6136	0.7288	0.4244	-0.516
Mof_H 	H 	0.611	0.748	0.303	0.3
Mof_C 	C 	0.6172	0.762	0.832	0.397
Mof_O 	O 	0.6822	0.7534	0.8059	-0.549
Mof_O 	O 	0.5856	0.7864	0.009	-0.329
Mof_C 	C 	0.4257	0.7496	0.864	0.017
Mof_H 	H 	0.4521	0.7925	0.8282	0.063
Mof_C 	C 	0.5246	0.682	0.678	0.007
Mof_H 	H 	0.4954	0.6733	0.5423	0.078
Mof_O 	O 	0.6845	0.2438	0.56	-0.537
Mof_O 	O 	0.5895	0.2307	0.762	-0.297
Mof_C 	C 	0.619	0.2408	0.589	0.41
Mof_O 	O 	0.6245	0.2659	0.1826	-0.562
Mof_H 	H 	0.603	0.268	0.065	0.33
Mof_C 	C 	0.5245	0.3137	0.388	0.04
Mof_H 	H 	0.4951	0.3053	0.5235	0.071
Mof_O 	O 	0.5603	0.3739	0.4252	-0.111
Mof_O 	O 	0.4297	0.379	0.2093	-0.118
Mof_C 	C 	0.4301	0.2563	0.127	-0.04
Mof_H 	H 	0.4602	0.2158	0.0928	0.054
Mof_O 	O 	0.3864	0.2712	0.9244	-0.455
Mof_H 	H 	0.389	0.252	0.803	0.288
Mof_C 	C 	0.3828	0.238	0.332	0.35
Mof_O 	O 	0.3178	0.2466	0.3059	-0.562
Mof_O 	O 	0.4144	0.2136	0.509	-0.276
Mof_C 	C 	0.5743	0.2504	0.364	0.005
Mof_H 	H 	0.5479	0.2075	0.3282	0.05
Mof_C 	C 	0.4754	0.318	0.178	0.042
Mof_H 	H 	0.5046	0.3267	0.0423	0.055
Mof_O 	O 	0.7438	0.8155	0.31	-0.553
Mof_O 	O 	0.7307	0.9105	0.512	-0.321
Mof_C 	C 	0.7408	0.881	0.339	0.423
Mof_O 	O 	0.7659	0.8755	0.9326	-0.503
Mof_H 	H 	0.768	0.897	0.815	0.333
Mof_C 	C 	0.8137	0.9755	0.138	0.028
Mof_H 	H 	0.8053	0.0049	0.2735	0.063
Mof_O 	O 	0.8739	0.9397	0.1752	-0.131
Mof_O 	O 	0.879	0.0703	0.9593	-0.081
Mof_C 	C 	0.7563	0.0699	0.877	0.054
Mof_H 	H 	0.7158	0.0398	0.8428	0.052
Mof_O 	O 	0.7712	0.1136	0.6744	-0.519
Mof_H 	H 	0.752	0.111	0.553	0.305
Mof_C 	C 	0.738	0.1172	0.082	0.296
Mof_O 	O 	0.7466	0.1822	0.0559	-0.566
Mof_O 	O 	0.7136	0.0856	0.259	-0.277
Mof_C 	C 	0.7504	0.9257	0.114	-0.043
Mof_H 	H 	0.7075	0.9521	0.0782	0.052
Mof_C 	C 	0.818	0.0246	0.928	0.044
Mof_H 	H 	0.8267	0.9954	0.7923	0.078
Mof_O 	O 	0.2562	0.1845	0.81	-0.546
Mof_O 	O 	0.2693	0.0895	0.012	-0.386
Mof_C 	C 	0.2592	0.119	0.839	0.49
Mof_O 	O 	0.2341	0.1245	0.4326	-0.557
Mof_H 	H 	0.232	0.103	0.315	0.342
Mof_C 	C 	0.1863	0.0245	0.638	0.048
Mof_H 	H 	0.1947	0.9951	0.7735	0.078
Mof_O 	O 	0.1261	0.0603	0.6752	-0.108
Mof_O 	O 	0.121	0.9297	0.4593	-0.098
Mof_C 	C 	0.2437	0.9301	0.377	0.012
Mof_H 	H 	0.2842	0.9602	0.3428	0.049
Mof_O 	O 	0.2288	0.8864	0.1744	-0.516
Mof_H 	H 	0.248	0.889	0.053	0.285
Mof_C 	C 	0.262	0.8828	0.582	0.339
Mof_O 	O 	0.2534	0.8178	0.5559	-0.547
Mof_O 	O 	0.2864	0.9144	0.759	-0.258
Mof_C 	C 	0.2496	0.0743	0.614	-0.019
Mof_H 	H 	0.2925	0.0479	0.5782	0.063
Mof_C 	C 	0.182	0.9754	0.428	0.027
Mof_H 	H 	0.1733	0.0046	0.2923	0.068
Mof_O 	O 	0.1845	0.2562	0.19	-0.538
Mof_O 	O 	0.0895	0.2693	0.988	-0.261
Mof_C 	C 	0.119	0.2592	0.161	0.343
Mof_O 	O 	0.1245	0.2341	0.5674	-0.56
Mof_H 	H 	0.103	0.232	0.685	0.348
Mof_C 	C 	0.0245	0.1863	0.362	0.061
Mof_H 	H 	0.9951	0.1947	0.2265	0.045
Mof_O 	O 	0.0603	0.1261	0.3248	-0.128
Mof_O 	O 	0.9297	0.121	0.5407	-0.101
Mof_C 	C 	0.9301	0.2437	0.623	0.023
Mof_H 	H 	0.9602	0.2842	0.6572	0.05
Mof_O 	O 	0.8864	0.2288	0.8256	-0.518
Mof_H 	H 	0.889	0.248	0.947	0.323
Mof_C 	C 	0.8828	0.262	0.418	0.34
Mof_O 	O 	0.8178	0.2534	0.4441	-0.556
Mof_O 	O 	0.9144	0.2864	0.241	-0.301
Mof_C 	C 	0.0743	0.2496	0.386	0.012
Mof_H 	H 	0.0479	0.2925	0.4218	0.048
Mof_C 	C 	0.9754	0.182	0.572	0.006
Mof_H 	H 	0.0046	0.1733	0.7077	0.089
Mof_O 	O 	0.8155	0.7438	0.69	-0.531
Mof_O 	O 	0.9105	0.7307	0.488	-0.327
Mof_C 	C 	0.881	0.7408	0.661	0.412
Mof_O 	O 	0.8755	0.7659	0.0674	-0.607
Mof_H 	H 	0.897	0.768	0.185	0.355
Mof_C 	C 	0.9755	0.8137	0.862	0.081
Mof_H 	H 	0.0049	0.8053	0.7265	0.06
Mof_O 	O 	0.9397	0.8739	0.8248	-0.105
Mof_O 	O 	0.0703	0.879	0.0407	-0.117
Mof_C 	C 	0.0699	0.7563	0.123	-0.017
Mof_H 	H 	0.0398	0.7158	0.1572	0.047
Mof_O 	O 	0.1136	0.7712	0.3256	-0.515
Mof_H 	H 	0.111	0.752	0.447	0.303
Mof_C 	C 	0.1172	0.738	0.918	0.381
Mof_O 	O 	0.1822	0.7466	0.9441	-0.537
Mof_O 	O 	0.0856	0.7136	0.741	-0.282
Mof_C 	C 	0.9257	0.7504	0.886	0.035
Mof_H 	H 	0.9521	0.7075	0.9218	0.059
Mof_C 	C 	0.0246	0.818	0.072	-0.011
Mof_H 	H 	0.9954	0.8267	0.2077	0.079
Mof_O 	O 	0.7562	0.3155	0.94	-0.529
Mof_O 	O 	0.7693	0.4105	0.738	-0.329
Mof_C 	C 	0.7592	0.381	0.911	0.457
Mof_O 	O 	0.7341	0.3755	0.3174	-0.564
Mof_H 	H 	0.732	0.397	0.435	0.35
Mof_C 	C 	0.6863	0.4755	0.112	-0.01
Mof_H 	H 	0.6947	0.5049	0.9765	0.113
Mof_O 	O 	0.6261	0.4397	0.0748	-0.125
Mof_O 	O 	0.621	0.5703	0.2907	-0.111
Mof_C 	C 	0.7437	0.5699	0.373	0.028
Mof_H 	H 	0.7842	0.5398	0.4072	0.044
Mof_O 	O 	0.7288	0.6136	0.5756	-0.518
Mof_H 	H 	0.748	0.611	0.697	0.308
Mof_C 	C 	0.762	0.6172	0.168	0.279
Mof_O 	O 	0.7534	0.6822	0.1941	-0.547
Mof_O 	O 	0.7864	0.5856	0.991	-0.228
Mof_C 	C 	0.7496	0.4257	0.136	-0.026
Mof_H 	H 	0.7925	0.4521	0.1718	0.048
Mof_C 	C 	0.682	0.5246	0.322	0.025
Mof_H 	H 	0.6733	0.4954	0.4577	0.08
Mof_O 	O 	0.2438	0.6845	0.44	-0.551
Mof_O 	O 	0.2307	0.5895	0.238	-0.35
Mof_C 	C 	0.2408	0.619	0.411	0.425
Mof_O 	O 	0.2659	0.6245	0.8174	-0.555
Mof_H 	H 	0.268	0.603	0.935	0.359
Mof_C 	C 	0.3137	0.5245	0.612	0.071
Mof_H 	H 	0.3053	0.4951	0.4765	0.051
Mof_O 	O 	0.3739	0.5603	0.5748	-0.124
Mof_O 	O 	0.379	0.4297	0.7907	-0.08
Mof_C 	C 	0.2563	0.4301	0.873	0.075
Mof_H 	H 	0.2158	0.4602	0.9072	0.045
Mof_O 	O 	0.2712	0.3864	0.0756	-0.572
Mof_H 	H 	0.252	0.389	0.197	0.318
Mof_C 	C 	0.238	0.3828	0.668	0.328
Mof_O 	O 	0.2466	0.3178	0.6941	-0.535
Mof_O 	O 	0.2136	0.4144	0.491	-0.281
Mof_C 	C 	0.2504	0.5743	0.636	-0.013
Mof_H 	H 	0.2075	0.5479	0.6718	0.061
Mof_C 	C 	0.318	0.4754	0.822	-0.01
Mof_H 	H 	0.3267	0.5046	0.9577	0.101
Mof_Zn	Zn	0.27042	0.72958	0.75	1.27
Mof_Zn	Zn	0.72958	0.27042	0.25	1.258
Mof_Zn	Zn	0.77042	0.77042	-0	1.249
Mof_Zn	Zn	0.22958	0.22958	0.5	1.264
Mof_Zn	Zn	0.22252	0.77748	0.25	1.243
Mof_Zn	Zn	0.77748	0.22252	0.75	1.255
Mof_Zn	Zn	0.72252	0.72252	0.5	1.249
Mof_Zn	Zn	0.27748	0.27748	-0	1.233
_end
