data_functionalizedCrystal
_audit_creation_method	'EQeq! by Chris Wilmer'
_symmetry_space_group_name_H-M	'P1'
_symmetry_Int_Tables_number	1
_symmetry_cell_setting	triclinic
loop_
_symmetry_equiv_pos_as_xyz
  x,y,z
_cell_length_a	26.5738
_cell_length_b	26.5738
_cell_length_c	6.8088
_cell_angle_alpha	90
_cell_angle_beta	90
_cell_angle_gamma	120
loop_
_atom_site_label
_atom_site_type_symbol
_atom_site_fract_x
_atom_site_fract_y
_atom_site_fract_z
_atom_site_charge
Mof_Mn	Mn	0.39072	0.35177	0.14297	0.877
Mof_C 	C 	0.32125	0.20173	0.28665	-0.177
Mof_C 	C 	0.33897	0.21815	0.09342	0.205
Mof_C 	C 	0.35106	0.18309	0.97344	-0.072
Mof_H 	H 	0.36482	0.19584	0.82338	0.057
Mof_C 	C 	0.30825	0.23943	0.4157	0.405
Mof_O 	O 	0.31334	0.28585	0.3496	-0.415
Mof_O 	O 	0.29227	0.22463	0.5899	-0.426
Mof_O 	O 	0.34444	0.26801	0.0225	-0.446
Mof_Mn	Mn	0.05739	0.6851	0.4763	0.876
Mof_C 	C 	0.98792	0.53506	0.61998	-0.178
Mof_C 	C 	0.00564	0.55148	0.42675	0.205
Mof_C 	C 	0.01773	0.51642	0.30677	-0.074
Mof_H 	H 	0.03149	0.52917	0.15671	0.056
Mof_C 	C 	0.97492	0.57276	0.74903	0.404
Mof_O 	O 	0.98001	0.61918	0.68293	-0.416
Mof_O 	O 	0.95894	0.55796	0.92323	-0.427
Mof_O 	O 	0.01111	0.60134	0.35583	-0.446
Mof_Mn	Mn	0.72405	0.01844	0.80964	0.877
Mof_C 	C 	0.65458	0.8684	0.95332	-0.179
Mof_C 	C 	0.6723	0.88482	0.76009	0.205
Mof_C 	C 	0.68439	0.84976	0.64011	-0.075
Mof_H 	H 	0.69815	0.86251	0.49005	0.056
Mof_C 	C 	0.64158	0.9061	0.08237	0.404
Mof_O 	O 	0.64667	0.95252	0.01627	-0.416
Mof_O 	O 	0.6256	0.8913	0.25657	-0.427
Mof_O 	O 	0.67777	0.93468	0.68917	-0.446
Mof_Mn	Mn	0.64823	0.03895	0.14297	0.876
Mof_C 	C 	0.79827	0.11952	0.28665	-0.178
Mof_C 	C 	0.78185	0.12082	0.09342	0.204
Mof_C 	C 	0.81691	0.16797	0.97344	-0.073
Mof_H 	H 	0.80416	0.16898	0.82338	0.056
Mof_C 	C 	0.76057	0.06882	0.4157	0.404
Mof_O 	O 	0.71415	0.02749	0.3496	-0.416
Mof_O 	O 	0.77537	0.06764	0.5899	-0.427
Mof_O 	O 	0.73199	0.07643	0.0225	-0.446
Mof_Mn	Mn	0.3149	0.37228	0.4763	0.876
Mof_C 	C 	0.46494	0.45285	0.61998	-0.178
Mof_C 	C 	0.44852	0.45415	0.42675	0.205
Mof_C 	C 	0.48358	0.5013	0.30677	-0.074
Mof_H 	H 	0.47083	0.50231	0.15671	0.056
Mof_C 	C 	0.42724	0.40215	0.74903	0.404
Mof_O 	O 	0.38082	0.36082	0.68293	-0.416
Mof_O 	O 	0.44204	0.40097	0.92323	-0.427
Mof_O 	O 	0.39866	0.40976	0.35583	-0.446
Mof_Mn	Mn	0.98156	0.70562	0.80964	0.876
Mof_C 	C 	0.1316	0.78619	0.95332	-0.18
Mof_C 	C 	0.11518	0.78749	0.76009	0.205
Mof_C 	C 	0.15024	0.83464	0.64011	-0.075
Mof_H 	H 	0.13749	0.83565	0.49005	0.057
Mof_C 	C 	0.0939	0.73549	0.08237	0.405
Mof_O 	O 	0.04748	0.69416	0.01627	-0.416
Mof_O 	O 	0.1087	0.73431	0.25657	-0.427
Mof_O 	O 	0.06532	0.7431	0.68917	-0.446
Mof_Mn	Mn	0.96105	0.60928	0.14297	0.876
Mof_C 	C 	0.88048	0.67875	0.28665	-0.178
Mof_C 	C 	0.87918	0.66103	0.09342	0.204
Mof_C 	C 	0.83203	0.64894	0.97344	-0.073
Mof_H 	H 	0.83102	0.63518	0.82338	0.056
Mof_C 	C 	0.93118	0.69175	0.4157	0.404
Mof_O 	O 	0.97251	0.68666	0.3496	-0.416
Mof_O 	O 	0.93236	0.70773	0.5899	-0.427
Mof_O 	O 	0.92357	0.65556	0.0225	-0.446
Mof_Mn	Mn	0.62772	0.94261	0.4763	0.876
Mof_C 	C 	0.54715	0.01208	0.61998	-0.178
Mof_C 	C 	0.54585	0.99436	0.42675	0.205
Mof_C 	C 	0.4987	0.98227	0.30677	-0.074
Mof_H 	H 	0.49769	0.96851	0.15671	0.056
Mof_C 	C 	0.59785	0.02508	0.74903	0.404
Mof_O 	O 	0.63918	0.01999	0.68293	-0.416
Mof_O 	O 	0.59903	0.04106	0.92323	-0.427
Mof_O 	O 	0.59024	0.98889	0.35583	-0.446
Mof_Mn	Mn	0.29438	0.27595	0.80964	0.876
Mof_C 	C 	0.21381	0.34542	0.95332	-0.179
Mof_C 	C 	0.21251	0.3277	0.76009	0.205
Mof_C 	C 	0.16536	0.31561	0.64011	-0.075
Mof_H 	H 	0.16435	0.30185	0.49005	0.056
Mof_C 	C 	0.26451	0.35842	0.08237	0.404
Mof_O 	O 	0.30584	0.35333	0.01627	-0.416
Mof_O 	O 	0.26569	0.3744	0.25657	-0.427
Mof_O 	O 	0.2569	0.32223	0.68917	-0.446
Mof_Mn	Mn	0.60928	0.64823	0.85703	0.876
Mof_C 	C 	0.67875	0.79827	0.71335	-0.178
Mof_C 	C 	0.66103	0.78185	0.90658	0.204
Mof_C 	C 	0.64894	0.81691	0.02656	-0.073
Mof_H 	H 	0.63518	0.80416	0.17662	0.056
Mof_C 	C 	0.69175	0.76057	0.5843	0.404
Mof_O 	O 	0.68666	0.71415	0.6504	-0.416
Mof_O 	O 	0.70773	0.77537	0.4101	-0.427
Mof_O 	O 	0.65556	0.73199	0.9775	-0.446
Mof_Mn	Mn	0.27595	0.98156	0.19036	0.877
Mof_C 	C 	0.34542	0.1316	0.04668	-0.179
Mof_C 	C 	0.3277	0.11518	0.23991	0.205
Mof_C 	C 	0.31561	0.15024	0.35989	-0.075
Mof_H 	H 	0.30185	0.13749	0.50995	0.056
Mof_C 	C 	0.35842	0.0939	0.91763	0.404
Mof_O 	O 	0.35333	0.04748	0.98373	-0.416
Mof_O 	O 	0.3744	0.1087	0.74343	-0.427
Mof_O 	O 	0.32223	0.06532	0.31083	-0.446
Mof_Mn	Mn	0.94261	0.3149	0.5237	0.876
Mof_C 	C 	0.01208	0.46494	0.38002	-0.178
Mof_C 	C 	0.99436	0.44852	0.57325	0.205
Mof_C 	C 	0.98227	0.48358	0.69323	-0.074
Mof_H 	H 	0.96851	0.47083	0.84329	0.056
Mof_C 	C 	0.02508	0.42724	0.25097	0.404
Mof_O 	O 	0.01999	0.38082	0.31707	-0.416
Mof_O 	O 	0.04106	0.44204	0.07677	-0.427
Mof_O 	O 	0.98889	0.39866	0.64417	-0.446
Mof_Mn	Mn	0.35177	0.96105	0.85703	0.876
Mof_C 	C 	0.20173	0.88048	0.71335	-0.178
Mof_C 	C 	0.21815	0.87918	0.90658	0.204
Mof_C 	C 	0.18309	0.83203	0.02656	-0.073
Mof_H 	H 	0.19584	0.83102	0.17662	0.056
Mof_C 	C 	0.23943	0.93118	0.5843	0.404
Mof_O 	O 	0.28585	0.97251	0.6504	-0.416
Mof_O 	O 	0.22463	0.93236	0.4101	-0.427
Mof_O 	O 	0.26801	0.92357	0.9775	-0.446
Mof_Mn	Mn	0.01844	0.29438	0.19036	0.876
Mof_C 	C 	0.8684	0.21381	0.04668	-0.18
Mof_C 	C 	0.88482	0.21251	0.23991	0.205
Mof_C 	C 	0.84976	0.16536	0.35989	-0.075
Mof_H 	H 	0.86251	0.16435	0.50995	0.057
Mof_C 	C 	0.9061	0.26451	0.91763	0.405
Mof_O 	O 	0.95252	0.30584	0.98373	-0.416
Mof_O 	O 	0.8913	0.26569	0.74343	-0.427
Mof_O 	O 	0.93468	0.2569	0.31083	-0.446
Mof_Mn	Mn	0.6851	0.62772	0.5237	0.876
Mof_C 	C 	0.53506	0.54715	0.38002	-0.178
Mof_C 	C 	0.55148	0.54585	0.57325	0.205
Mof_C 	C 	0.51642	0.4987	0.69323	-0.074
Mof_H 	H 	0.52917	0.49769	0.84329	0.056
Mof_C 	C 	0.57276	0.59785	0.25097	0.404
Mof_O 	O 	0.61918	0.63918	0.31707	-0.416
Mof_O 	O 	0.55796	0.59903	0.07677	-0.427
Mof_O 	O 	0.60134	0.59024	0.64417	-0.446
Mof_Mn	Mn	0.03895	0.39072	0.85703	0.876
Mof_C 	C 	0.11952	0.32125	0.71335	-0.178
Mof_C 	C 	0.12082	0.33897	0.90658	0.204
Mof_C 	C 	0.16797	0.35106	0.02656	-0.073
Mof_H 	H 	0.16898	0.36482	0.17662	0.056
Mof_C 	C 	0.06882	0.30825	0.5843	0.404
Mof_O 	O 	0.02749	0.31334	0.6504	-0.416
Mof_O 	O 	0.06764	0.29227	0.4101	-0.427
Mof_O 	O 	0.07643	0.34444	0.9775	-0.446
Mof_Mn	Mn	0.70562	0.72405	0.19036	0.876
Mof_C 	C 	0.78619	0.65458	0.04668	-0.179
Mof_C 	C 	0.78749	0.6723	0.23991	0.205
Mof_C 	C 	0.83464	0.68439	0.35989	-0.075
Mof_H 	H 	0.83565	0.69815	0.50995	0.056
Mof_C 	C 	0.73549	0.64158	0.91763	0.404
Mof_O 	O 	0.69416	0.64667	0.98373	-0.416
Mof_O 	O 	0.73431	0.6256	0.74343	-0.427
Mof_O 	O 	0.7431	0.67777	0.31083	-0.446
Mof_Mn	Mn	0.37228	0.05739	0.5237	0.876
Mof_C 	C 	0.45285	0.98792	0.38002	-0.178
Mof_C 	C 	0.45415	0.00564	0.57325	0.205
Mof_C 	C 	0.5013	0.01773	0.69323	-0.074
Mof_H 	H 	0.50231	0.03149	0.84329	0.056
Mof_C 	C 	0.40215	0.97492	0.25097	0.404
Mof_O 	O 	0.36082	0.98001	0.31707	-0.416
Mof_O 	O 	0.40097	0.95894	0.07677	-0.427
Mof_O 	O 	0.40976	0.01111	0.64417	-0.446
_end
