data_functionalizedCrystal
_audit_creation_method	'EQeq! by Chris Wilmer'
_symmetry_space_group_name_H-M	'P1'
_symmetry_Int_Tables_number	1
_symmetry_cell_setting	triclinic
loop_
_symmetry_equiv_pos_as_xyz
  x,y,z
_cell_length_a	13.804
_cell_length_b	13.804
_cell_length_c	18.435
_cell_angle_alpha	90
_cell_angle_beta	90
_cell_angle_gamma	120
loop_
_atom_site_label
_atom_site_type_symbol
_atom_site_fract_x
_atom_site_fract_y
_atom_site_fract_z
_atom_site_charge
Mof_O 	O 	0.4885	0.3503	0.3346	-0.753
Mof_C 	C 	0.4286	0.4022	0.4662	0.146
Mof_O 	O 	0.3497	0.3052	0.4349	-0.207
Mof_O 	O 	0.6497	0.1382	0.3346	-0.748
Mof_C 	C 	0.5978	0.0264	0.4662	-0.043
Mof_O 	O 	0.6948	0.0445	0.4349	-0.178
Mof_O 	O 	0.8618	0.5115	0.3346	-0.759
Mof_C 	C 	0.9736	0.5714	0.4662	0.341
Mof_O 	O 	0.9555	0.6503	0.4349	-0.177
Mof_O 	O 	0.5115	0.6497	0.8346	-0.754
Mof_C 	C 	0.5714	0.5978	0.9662	0.15
Mof_O 	O 	0.6503	0.6948	0.9349	-0.169
Mof_O 	O 	0.3503	0.8618	0.8346	-0.758
Mof_C 	C 	0.4022	0.9736	0.9662	0.34
Mof_O 	O 	0.3052	0.9555	0.9349	-0.193
Mof_O 	O 	0.1382	0.4885	0.8346	-0.748
Mof_C 	C 	0.0264	0.4286	0.9662	-0.045
Mof_O 	O 	0.0445	0.3497	0.9349	-0.198
Mof_O 	O 	0.3503	0.4885	0.6654	-0.753
Mof_C 	C 	0.4022	0.4286	0.5338	0.146
Mof_O 	O 	0.3052	0.3497	0.5651	-0.207
Mof_O 	O 	0.1382	0.6497	0.6654	-0.748
Mof_C 	C 	0.0264	0.5978	0.5338	-0.043
Mof_O 	O 	0.0445	0.6948	0.5651	-0.178
Mof_O 	O 	0.5115	0.8618	0.6654	-0.759
Mof_C 	C 	0.5714	0.9736	0.5338	0.341
Mof_O 	O 	0.6503	0.9555	0.5651	-0.177
Mof_O 	O 	0.6497	0.5115	0.1654	-0.754
Mof_C 	C 	0.5978	0.5714	0.0338	0.15
Mof_O 	O 	0.6948	0.6503	0.0651	-0.169
Mof_O 	O 	0.8618	0.3503	0.1654	-0.758
Mof_C 	C 	0.9736	0.4022	0.0338	0.34
Mof_O 	O 	0.9555	0.3052	0.0651	-0.193
Mof_O 	O 	0.4885	0.1382	0.1654	-0.748
Mof_C 	C 	0.4286	0.0264	0.0338	-0.045
Mof_O 	O 	0.3497	0.0445	0.0651	-0.198
Mof_O 	O 	0.5115	0.6497	0.6654	-0.754
Mof_C 	C 	0.5714	0.5978	0.5338	0.15
Mof_O 	O 	0.6503	0.6948	0.5651	-0.169
Mof_O 	O 	0.3503	0.8618	0.6654	-0.758
Mof_C 	C 	0.4022	0.9736	0.5338	0.342
Mof_O 	O 	0.3052	0.9555	0.5651	-0.194
Mof_O 	O 	0.1382	0.4885	0.6654	-0.748
Mof_C 	C 	0.0264	0.4286	0.5338	-0.047
Mof_O 	O 	0.0445	0.3497	0.5651	-0.198
Mof_O 	O 	0.4885	0.3503	0.1654	-0.753
Mof_C 	C 	0.4286	0.4022	0.0338	0.146
Mof_O 	O 	0.3497	0.3052	0.0651	-0.207
Mof_O 	O 	0.6497	0.1382	0.1654	-0.748
Mof_C 	C 	0.5978	0.0264	0.0338	-0.04
Mof_O 	O 	0.6948	0.0445	0.0651	-0.178
Mof_O 	O 	0.8618	0.5115	0.1654	-0.759
Mof_C 	C 	0.9736	0.5714	0.0338	0.338
Mof_O 	O 	0.9555	0.6503	0.0651	-0.177
Mof_O 	O 	0.6497	0.5115	0.3346	-0.754
Mof_C 	C 	0.5978	0.5714	0.4662	0.15
Mof_O 	O 	0.6948	0.6503	0.4349	-0.169
Mof_O 	O 	0.8618	0.3503	0.3346	-0.758
Mof_C 	C 	0.9736	0.4022	0.4662	0.342
Mof_O 	O 	0.9555	0.3052	0.4349	-0.194
Mof_O 	O 	0.4885	0.1382	0.3346	-0.748
Mof_C 	C 	0.4286	0.0264	0.4662	-0.047
Mof_O 	O 	0.3497	0.0445	0.4349	-0.198
Mof_O 	O 	0.3503	0.4885	0.8346	-0.753
Mof_C 	C 	0.4022	0.4286	0.9662	0.146
Mof_O 	O 	0.3052	0.3497	0.9349	-0.207
Mof_O 	O 	0.1382	0.6497	0.8346	-0.748
Mof_C 	C 	0.0264	0.5978	0.9662	-0.04
Mof_O 	O 	0.0445	0.6948	0.9349	-0.178
Mof_O 	O 	0.5115	0.8618	0.8346	-0.759
Mof_C 	C 	0.5714	0.9736	0.9662	0.338
Mof_O 	O 	0.6503	0.9555	0.9349	-0.177
Mof_In	In	0.49766	0.24883	0.25	2.853
Mof_N 	N 	0.3176	0.1588	0.25	-0.433
Mof_In	In	0.75117	0.24883	0.25	2.882
Mof_N 	N 	0.8412	0.1588	0.25	-0.433
Mof_In	In	0.75117	0.50234	0.25	2.908
Mof_N 	N 	0.8412	0.6824	0.25	-0.432
Mof_In	In	0.50234	0.75117	0.75	2.908
Mof_N 	N 	0.6824	0.8412	0.75	-0.432
Mof_In	In	0.24883	0.75117	0.75	2.882
Mof_N 	N 	0.1588	0.8412	0.75	-0.433
Mof_In	In	0.24883	0.49766	0.75	2.853
Mof_N 	N 	0.1588	0.3176	0.75	-0.433
Mof_O 	O 	0.66667	0.33333	0.25	-1.501
Mof_O 	O 	0.33333	0.66667	0.75	-1.501
Mof_C 	C 	0.557	0.443	0.3613	0.658
Mof_C 	C 	0.5287	0.4713	0.434	-0.252
Mof_C 	C 	0.557	0.114	0.3613	0.609
Mof_C 	C 	0.5287	0.0574	0.434	-0.144
Mof_C 	C 	0.886	0.443	0.3613	0.707
Mof_C 	C 	0.9426	0.4713	0.434	-0.359
Mof_C 	C 	0.443	0.557	0.8613	0.658
Mof_C 	C 	0.4713	0.5287	0.934	-0.252
Mof_C 	C 	0.443	0.886	0.8613	0.706
Mof_C 	C 	0.4713	0.9426	0.934	-0.358
Mof_C 	C 	0.114	0.557	0.8613	0.609
Mof_C 	C 	0.0574	0.5287	0.934	-0.146
Mof_C 	C 	0.443	0.557	0.6387	0.658
Mof_C 	C 	0.4713	0.5287	0.566	-0.252
Mof_C 	C 	0.114	0.557	0.6387	0.609
Mof_C 	C 	0.0574	0.5287	0.566	-0.144
Mof_C 	C 	0.443	0.886	0.6387	0.707
Mof_C 	C 	0.4713	0.9426	0.566	-0.359
Mof_C 	C 	0.557	0.443	0.1387	0.658
Mof_C 	C 	0.5287	0.4713	0.066	-0.252
Mof_C 	C 	0.886	0.443	0.1387	0.706
Mof_C 	C 	0.9426	0.4713	0.066	-0.358
Mof_C 	C 	0.557	0.114	0.1387	0.609
Mof_C 	C 	0.5287	0.0574	0.066	-0.146
Mof_C 	C 	0.2521	0.12605	0.3046	0.164
Mof_N 	N 	0.1454	0.0727	0.2874	-0.294
Mof_H 	H 	0.2775	0.13875	0.3522	-0.063
Mof_C 	C 	0.87395	0.12605	0.3046	0.182
Mof_N 	N 	0.9273	0.0727	0.2874	-0.241
Mof_H 	H 	0.86125	0.13875	0.3522	-0.047
Mof_C 	C 	0.87395	0.7479	0.3046	0.198
Mof_N 	N 	0.9273	0.8546	0.2874	-0.197
Mof_H 	H 	0.86125	0.7225	0.3522	-0.032
Mof_C 	C 	0.7479	0.87395	0.8046	0.198
Mof_N 	N 	0.8546	0.9273	0.7874	-0.197
Mof_H 	H 	0.7225	0.86125	0.8522	-0.033
Mof_C 	C 	0.12605	0.87395	0.8046	0.182
Mof_N 	N 	0.0727	0.9273	0.7874	-0.241
Mof_H 	H 	0.13875	0.86125	0.8522	-0.046
Mof_C 	C 	0.12605	0.2521	0.8046	0.164
Mof_N 	N 	0.0727	0.1454	0.7874	-0.294
Mof_H 	H 	0.13875	0.2775	0.8522	-0.063
Mof_C 	C 	0.12605	0.2521	0.6954	0.164
Mof_N 	N 	0.0727	0.1454	0.7126	-0.294
Mof_H 	H 	0.13875	0.2775	0.6478	-0.063
Mof_C 	C 	0.12605	0.87395	0.6954	0.182
Mof_N 	N 	0.0727	0.9273	0.7126	-0.241
Mof_H 	H 	0.13875	0.86125	0.6478	-0.047
Mof_C 	C 	0.7479	0.87395	0.6954	0.198
Mof_N 	N 	0.8546	0.9273	0.7126	-0.197
Mof_H 	H 	0.7225	0.86125	0.6478	-0.032
Mof_C 	C 	0.87395	0.7479	0.1954	0.198
Mof_N 	N 	0.9273	0.8546	0.2126	-0.197
Mof_H 	H 	0.86125	0.7225	0.1478	-0.033
Mof_C 	C 	0.87395	0.12605	0.1954	0.182
Mof_N 	N 	0.9273	0.0727	0.2126	-0.241
Mof_H 	H 	0.86125	0.13875	0.1478	-0.046
Mof_C 	C 	0.2521	0.12605	0.1954	0.164
Mof_N 	N 	0.1454	0.0727	0.2126	-0.294
Mof_H 	H 	0.2775	0.13875	0.1478	-0.063
Mof_Co	Co	-0	0	0.35263	0.943
Mof_Co	Co	-8.29787e-33	0	0.85263	0.944
Mof_Co	Co	8.29787e-33	0	0.64737	0.943
Mof_Co	Co	-0	0	0.14737	0.944
_end
