data_functionalizedCrystal
_audit_creation_method	'EQeq! by Chris Wilmer'
_symmetry_space_group_name_H-M	'P1'
_symmetry_Int_Tables_number	1
_symmetry_cell_setting	triclinic
loop_
_symmetry_equiv_pos_as_xyz
  x,y,z
_cell_length_a	14.1008
_cell_length_b	14.1006
_cell_length_c	14.1006
_cell_angle_alpha	109.471
_cell_angle_beta	109.471
_cell_angle_gamma	109.471
loop_
_atom_site_label
_atom_site_type_symbol
_atom_site_fract_x
_atom_site_fract_y
_atom_site_fract_z
_atom_site_charge
Mof_Zn	Zn	0.99142	0.85379	0.39531	1.112
Mof_Zn	Zn	0.13763	0.54152	0.14621	1.147
Mof_Zn	Zn	0.45848	0.59611	0.60469	1.142
Mof_Zn	Zn	0.85379	0.39531	0.99142	1.111
Mof_Zn	Zn	0.40389	0.86237	0.00858	1.142
Mof_Zn	Zn	0.59611	0.60469	0.45848	1.142
Mof_Zn	Zn	0.14621	0.13763	0.54152	1.147
Mof_Zn	Zn	0.86237	0.00858	0.40389	1.142
Mof_Zn	Zn	0.54152	0.14621	0.13763	1.147
Mof_Zn	Zn	0.60469	0.45848	0.59611	1.142
Mof_Zn	Zn	0.39531	0.99142	0.85379	1.111
Mof_Zn	Zn	0.00858	0.40389	0.86237	1.142
Mof_H 	H 	0.2017	0.5644	0.4753	0.11
Mof_H 	H 	0.0891	0.7264	0.5247	0.115
Mof_H 	H 	0.7983	0.2736	0.3627	0.096
Mof_H 	H 	0.6556	0.4199	0.8089	-0.079
Mof_H 	H 	0.6373	0.9109	0.4356	0.083
Mof_H 	H 	0.5247	0.0891	0.7264	0.115
Mof_H 	H 	0.1533	0.7643	0.3444	-0.094
Mof_H 	H 	0.4237	0.8726	0.2351	0.086
Mof_H 	H 	0.4356	0.6373	0.9109	0.083
Mof_H 	H 	0.3444	0.1533	0.7643	-0.094
Mof_H 	H 	0.6375	0.1886	0.7649	0.096
Mof_H 	H 	0.7264	0.5247	0.0891	0.115
Mof_H 	H 	0.1886	0.7649	0.6375	0.096
Mof_H 	H 	0.3625	0.1274	0.5511	0.109
Mof_H 	H 	0.1911	0.611	0.8467	-0.05
Mof_H 	H 	0.8114	0.4489	0.5763	0.087
Mof_H 	H 	0.2357	0.389	0.5801	-0.064
Mof_H 	H 	0.7649	0.6375	0.1886	0.096
Mof_H 	H 	0.8089	0.6556	0.4199	-0.079
Mof_H 	H 	0.3627	0.7983	0.2736	0.096
Mof_H 	H 	0.5801	0.2357	0.389	-0.064
Mof_H 	H 	0.9109	0.4356	0.6373	0.083
Mof_H 	H 	0.8467	0.1911	0.611	-0.05
Mof_H 	H 	0.8726	0.2351	0.4237	0.086
Mof_H 	H 	0.2736	0.3627	0.7983	0.096
Mof_H 	H 	0.5644	0.4753	0.2017	0.11
Mof_H 	H 	0.4199	0.8089	0.6556	-0.079
Mof_H 	H 	0.7643	0.3444	0.1533	-0.094
Mof_H 	H 	0.611	0.8467	0.1911	-0.05
Mof_H 	H 	0.5511	0.3625	0.1274	0.109
Mof_H 	H 	0.4489	0.5763	0.8114	0.087
Mof_H 	H 	0.4753	0.2017	0.5644	0.11
Mof_H 	H 	0.389	0.5801	0.2357	-0.064
Mof_H 	H 	0.5763	0.8114	0.4489	0.087
Mof_H 	H 	0.1274	0.5511	0.3625	0.109
Mof_H 	H 	0.2351	0.4237	0.8726	0.086
Mof_C 	C 	0.077	0.7082	0.287	0.16
Mof_C 	C 	0.79	0.713	0.4212	0.089
Mof_C 	C 	0.7056	0.8139	0.4309	0.149
Mof_C 	C 	0.1861	0.8917	0.617	0.156
Mof_C 	C 	0.5788	0.2918	0.3688	0.097
Mof_C 	C 	0.4309	0.7056	0.8139	0.149
Mof_C 	C 	0.2944	0.7253	0.1083	0.168
Mof_C 	C 	0.7253	0.1083	0.2944	0.168
Mof_C 	C 	0.3688	0.5788	0.2918	0.097
Mof_C 	C 	0.21	0.6312	0.923	0.031
Mof_C 	C 	0.383	0.2747	0.5691	0.168
Mof_C 	C 	0.617	0.1861	0.8917	0.156
Mof_C 	C 	0.4212	0.79	0.713	0.089
Mof_C 	C 	0.1083	0.2944	0.7253	0.168
Mof_C 	C 	0.287	0.077	0.7082	0.16
Mof_C 	C 	0.7082	0.287	0.077	0.16
Mof_C 	C 	0.8139	0.4309	0.7056	0.149
Mof_C 	C 	0.2747	0.5691	0.383	0.168
Mof_C 	C 	0.923	0.21	0.6312	0.031
Mof_C 	C 	0.8917	0.617	0.1861	0.156
Mof_C 	C 	0.6312	0.923	0.21	0.031
Mof_C 	C 	0.2918	0.3688	0.5788	0.097
Mof_C 	C 	0.5691	0.383	0.2747	0.168
Mof_C 	C 	0.713	0.4212	0.79	0.089
Mof_S 	S 	1.31689e-17	0.35308	-0	-0.729
Mof_S 	S 	0.35308	0	-0	-0.729
Mof_S 	S 	0.64692	0.64692	0.64692	-0.886
Mof_S 	S 	-0	-2.63378e-17	0.35308	-0.729
Mof_N 	N 	0.7161	0.4349	0.7006	-0.331
Mof_N 	N 	0.2657	0.5651	0.2812	-0.327
Mof_N 	N 	0.5902	0.3889	0.4373	-0.293
Mof_N 	N 	0.8471	0.7987	0.4098	-0.311
Mof_N 	N 	0.2013	0.0484	0.6111	-0.279
Mof_N 	N 	0.5651	0.2812	0.2657	-0.327
Mof_N 	N 	0.0484	0.6111	0.2013	-0.279
Mof_N 	N 	0.9516	0.1529	0.5627	-0.306
Mof_N 	N 	0.4101	0.1914	0.5605	-0.329
Mof_N 	N 	0.623	0.0721	0.2067	-0.277
Mof_N 	N 	0.7343	0.0155	0.2994	-0.295
Mof_N 	N 	0.8654	0.4163	0.7933	-0.322
Mof_N 	N 	0.5837	0.4491	0.377	-0.302
Mof_N 	N 	0.9845	0.7188	0.2839	-0.374
Mof_N 	N 	0.4491	0.377	0.5837	-0.302
Mof_N 	N 	0.1346	0.9279	0.5509	-0.317
Mof_N 	N 	0.8086	0.2187	0.3691	-0.321
Mof_N 	N 	0.3889	0.4373	0.5902	-0.293
Mof_N 	N 	0.2812	0.2657	0.5651	-0.327
Mof_N 	N 	0.2994	0.7343	0.0155	-0.295
Mof_N 	N 	0.7813	0.5899	0.1504	-0.327
Mof_N 	N 	0.4395	0.6309	0.8496	-0.32
Mof_N 	N 	0.377	0.5837	0.4491	-0.302
Mof_N 	N 	0.0721	0.2067	0.623	-0.277
Mof_N 	N 	0.8496	0.4395	0.6309	-0.32
Mof_N 	N 	0.5605	0.4101	0.1914	-0.329
Mof_N 	N 	0.7006	0.7161	0.4349	-0.331
Mof_N 	N 	0.5899	0.1504	0.7813	-0.327
Mof_N 	N 	0.4163	0.7933	0.8654	-0.322
Mof_N 	N 	0.2839	0.9845	0.7188	-0.374
Mof_N 	N 	0.6111	0.2013	0.0484	-0.279
Mof_N 	N 	0.1504	0.7813	0.5899	-0.327
Mof_N 	N 	0.2067	0.623	0.0721	-0.277
Mof_N 	N 	0.7987	0.4098	0.8471	-0.311
Mof_N 	N 	0.2187	0.3691	0.8086	-0.321
Mof_N 	N 	0.0155	0.2994	0.7343	-0.295
Mof_N 	N 	0.5627	0.9516	0.1529	-0.306
Mof_N 	N 	0.4349	0.7006	0.7161	-0.331
Mof_N 	N 	0.1914	0.5605	0.4101	-0.329
Mof_N 	N 	0.7188	0.2839	0.9845	-0.374
Mof_N 	N 	0.4373	0.5902	0.3889	-0.293
Mof_N 	N 	0.6309	0.8496	0.4395	-0.32
Mof_N 	N 	0.1529	0.5627	0.9516	-0.306
Mof_N 	N 	0.3691	0.8086	0.2187	-0.321
Mof_N 	N 	0.7933	0.8654	0.4163	-0.322
Mof_N 	N 	0.5509	0.1346	0.9279	-0.317
Mof_N 	N 	0.9279	0.5509	0.1346	-0.317
Mof_N 	N 	0.4098	0.8471	0.7987	-0.311
_end
