data_functionalizedCrystal
_audit_creation_method	'EQeq! by Chris Wilmer'
_symmetry_space_group_name_H-M	'P1'
_symmetry_Int_Tables_number	1
_symmetry_cell_setting	triclinic
loop_
_symmetry_equiv_pos_as_xyz
  x,y,z
_cell_length_a	27.7529
_cell_length_b	27.7529
_cell_length_c	3.6022
_cell_angle_alpha	90
_cell_angle_beta	90
_cell_angle_gamma	90
loop_
_atom_site_label
_atom_site_type_symbol
_atom_site_fract_x
_atom_site_fract_y
_atom_site_fract_z
_atom_site_charge
Mof_Zn	Zn	0.28445	0.21407	0.8519	1.21
Mof_N 	N 	0.2589	0.1451	0.788	-0.274
Mof_C 	C 	0.281	0.109	0.946	0.105
Mof_H 	H 	0.3112	0.1111	0.0561	0.01
Mof_N 	N 	0.2543	0.068	0.929	-0.163
Mof_C 	C 	0.2149	0.1298	0.655	0.058
Mof_O 	O 	0.2735	0.8585	0.601	-0.522
Mof_C 	C 	0.1782	0.1532	0.469	-0.141
Mof_H 	H 	0.1807	0.1857	0.41	0.06
Mof_O 	O 	0.3383	0.8616	0.259	-0.279
Mof_C 	C 	0.1374	0.127	0.373	0.065
Mof_C 	C 	0.0999	0.1488	0.185	-0.102
Mof_H 	H 	0.1023	0.1813	0.1254	0.078
Mof_C 	C 	0.0587	0.1237	0.081	-0.012
Mof_H 	H 	0.0338	0.1389	0.9543	0.027
Mof_C 	C 	0.0561	0.0751	0.175	-0.039
Mof_H 	H 	0.0289	0.0575	0.11	0.037
Mof_C 	C 	0.0934	0.0526	0.363	-0.076
Mof_H 	H 	0.0908	0.02	0.4223	0.054
Mof_C 	C 	0.1348	0.0781	0.466	0.036
Mof_C 	C 	0.1716	0.0542	0.652	-0.126
Mof_H 	H 	0.1688	0.0219	0.7166	0.072
Mof_C 	C 	0.2127	0.0805	0.737	0.08
Mof_C 	C 	0.2451	0.9449	0.309	0.138
Mof_H 	H 	0.2215	0.9238	0.3946	-0.004
Mof_C 	C 	0.2932	0.9311	0.313	-0.197
Mof_C 	C 	0.3285	0.9627	0.185	0.162
Mof_H 	H 	0.3607	0.9534	0.1875	0.01
Mof_C 	C 	0.3155	0.008	0.055	-0.233
Mof_H 	H 	0.3391	0.0291	0.9694	0.133
Mof_C 	C 	0.2674	0.0218	0.051	0.203
Mof_C 	C 	0.2322	0.9902	0.179	-0.22
Mof_H 	H 	0.1999	0.9994	0.1765	0.108
Mof_C 	C 	0.3013	0.8797	0.44	0.565
Mof_O 	O 	0.2847	0.2461	0.361	-0.736
Mof_H 	H 	0.3077	0.2339	0.2371	0.143
Mof_O 	O 	0.3407	0.879	0.641	-0.224
Mof_Zn	Zn	0.71555	0.78593	0.8519	1.209
Mof_N 	N 	0.7411	0.8549	0.788	-0.275
Mof_C 	C 	0.719	0.891	0.946	0.104
Mof_H 	H 	0.6888	0.8889	0.0561	0.009
Mof_N 	N 	0.7457	0.932	0.929	-0.164
Mof_C 	C 	0.7851	0.8702	0.655	0.057
Mof_O 	O 	0.7265	0.1415	0.601	-0.523
Mof_C 	C 	0.8218	0.8468	0.469	-0.142
Mof_H 	H 	0.8193	0.8143	0.41	0.059
Mof_O 	O 	0.6617	0.1384	0.259	-0.28
Mof_C 	C 	0.8626	0.873	0.373	0.064
Mof_C 	C 	0.9001	0.8512	0.185	-0.103
Mof_H 	H 	0.8977	0.8187	0.1254	0.078
Mof_C 	C 	0.9413	0.8763	0.081	-0.012
Mof_H 	H 	0.9662	0.8611	0.9543	0.027
Mof_C 	C 	0.9439	0.9249	0.175	-0.039
Mof_H 	H 	0.9711	0.9425	0.11	0.037
Mof_C 	C 	0.9066	0.9474	0.363	-0.076
Mof_H 	H 	0.9092	0.98	0.4223	0.054
Mof_C 	C 	0.8652	0.9219	0.466	0.036
Mof_C 	C 	0.8284	0.9458	0.652	-0.126
Mof_H 	H 	0.8312	0.9781	0.7166	0.072
Mof_C 	C 	0.7873	0.9195	0.737	0.08
Mof_C 	C 	0.7549	0.0551	0.309	0.138
Mof_H 	H 	0.7785	0.0762	0.3946	-0.004
Mof_C 	C 	0.7068	0.0689	0.313	-0.197
Mof_C 	C 	0.6715	0.0373	0.185	0.162
Mof_H 	H 	0.6393	0.0466	0.1875	0.01
Mof_C 	C 	0.6845	0.992	0.055	-0.233
Mof_H 	H 	0.6609	0.9709	0.9694	0.133
Mof_C 	C 	0.7326	0.9782	0.051	0.203
Mof_C 	C 	0.7678	0.0098	0.179	-0.22
Mof_H 	H 	0.8001	0.0006	0.1765	0.108
Mof_C 	C 	0.6987	0.1203	0.44	0.565
Mof_O 	O 	0.7153	0.7539	0.361	-0.736
Mof_H 	H 	0.6923	0.7661	0.2371	0.143
Mof_O 	O 	0.6593	0.121	0.641	-0.224
Mof_Zn	Zn	0.71407	0.21555	0.6481	1.207
Mof_N 	N 	0.6451	0.2411	0.712	-0.272
Mof_C 	C 	0.609	0.219	0.554	0.091
Mof_H 	H 	0.6111	0.1888	0.4439	0.019
Mof_N 	N 	0.568	0.2457	0.571	-0.163
Mof_C 	C 	0.6298	0.2851	0.845	0.045
Mof_O 	O 	0.3585	0.2265	0.899	-0.505
Mof_C 	C 	0.6532	0.3218	0.031	-0.128
Mof_H 	H 	0.6857	0.3193	0.09	0.057
Mof_O 	O 	0.3616	0.1617	0.241	-0.28
Mof_C 	C 	0.627	0.3626	0.127	0.058
Mof_C 	C 	0.6488	0.4001	0.315	-0.098
Mof_H 	H 	0.6813	0.3977	0.3746	0.078
Mof_C 	C 	0.6237	0.4413	0.419	-0.014
Mof_H 	H 	0.6389	0.4662	0.5457	0.026
Mof_C 	C 	0.5751	0.4439	0.325	-0.036
Mof_H 	H 	0.5575	0.4711	0.39	0.035
Mof_C 	C 	0.5526	0.4066	0.137	-0.08
Mof_H 	H 	0.52	0.4092	0.0777	0.055
Mof_C 	C 	0.5781	0.3652	0.034	0.043
Mof_C 	C 	0.5542	0.3284	0.848	-0.134
Mof_H 	H 	0.5219	0.3312	0.7834	0.076
Mof_C 	C 	0.5805	0.2873	0.763	0.085
Mof_C 	C 	0.4449	0.2549	0.191	0.13
Mof_H 	H 	0.4238	0.2785	0.1054	-0.005
Mof_C 	C 	0.4311	0.2068	0.187	-0.188
Mof_C 	C 	0.4627	0.1715	0.315	0.151
Mof_H 	H 	0.4534	0.1393	0.3125	0.013
Mof_C 	C 	0.508	0.1845	0.445	-0.222
Mof_H 	H 	0.5291	0.1609	0.5306	0.128
Mof_C 	C 	0.5218	0.2326	0.449	0.201
Mof_C 	C 	0.4902	0.2678	0.321	-0.216
Mof_H 	H 	0.4994	0.3001	0.3235	0.106
Mof_C 	C 	0.3797	0.1987	0.06	0.537
Mof_O 	O 	0.7461	0.2153	0.139	-0.731
Mof_H 	H 	0.7339	0.1923	0.2629	0.145
Mof_O 	O 	0.379	0.1593	0.859	-0.211
Mof_Zn	Zn	0.28593	0.78445	0.6481	1.207
Mof_N 	N 	0.3549	0.7589	0.712	-0.272
Mof_C 	C 	0.391	0.781	0.554	0.091
Mof_H 	H 	0.3889	0.8112	0.4439	0.019
Mof_N 	N 	0.432	0.7543	0.571	-0.163
Mof_C 	C 	0.3702	0.7149	0.845	0.045
Mof_O 	O 	0.6415	0.7735	0.899	-0.505
Mof_C 	C 	0.3468	0.6782	0.031	-0.128
Mof_H 	H 	0.3143	0.6807	0.09	0.057
Mof_O 	O 	0.6384	0.8383	0.241	-0.28
Mof_C 	C 	0.373	0.6374	0.127	0.058
Mof_C 	C 	0.3512	0.5999	0.315	-0.098
Mof_H 	H 	0.3187	0.6023	0.3746	0.078
Mof_C 	C 	0.3763	0.5587	0.419	-0.014
Mof_H 	H 	0.3611	0.5338	0.5457	0.026
Mof_C 	C 	0.4249	0.5561	0.325	-0.036
Mof_H 	H 	0.4425	0.5289	0.39	0.035
Mof_C 	C 	0.4474	0.5934	0.137	-0.08
Mof_H 	H 	0.48	0.5908	0.0777	0.055
Mof_C 	C 	0.4219	0.6348	0.034	0.043
Mof_C 	C 	0.4458	0.6716	0.848	-0.134
Mof_H 	H 	0.4781	0.6688	0.7834	0.076
Mof_C 	C 	0.4195	0.7127	0.763	0.085
Mof_C 	C 	0.5551	0.7451	0.191	0.13
Mof_H 	H 	0.5762	0.7215	0.1054	-0.005
Mof_C 	C 	0.5689	0.7932	0.187	-0.188
Mof_C 	C 	0.5373	0.8285	0.315	0.151
Mof_H 	H 	0.5466	0.8607	0.3125	0.013
Mof_C 	C 	0.492	0.8155	0.445	-0.222
Mof_H 	H 	0.4709	0.8391	0.5306	0.128
Mof_C 	C 	0.4782	0.7674	0.449	0.201
Mof_C 	C 	0.5098	0.7322	0.321	-0.216
Mof_H 	H 	0.5006	0.6999	0.3235	0.106
Mof_C 	C 	0.6203	0.8013	0.06	0.537
Mof_O 	O 	0.2539	0.7847	0.139	-0.731
Mof_H 	H 	0.2661	0.8077	0.2629	0.145
Mof_O 	O 	0.621	0.8407	0.859	-0.211
Mof_Zn	Zn	0.78445	0.71407	0.3519	1.207
Mof_N 	N 	0.7589	0.6451	0.288	-0.272
Mof_C 	C 	0.781	0.609	0.446	0.091
Mof_H 	H 	0.8112	0.6111	0.5561	0.019
Mof_N 	N 	0.7543	0.568	0.429	-0.163
Mof_C 	C 	0.7149	0.6298	0.155	0.045
Mof_O 	O 	0.7735	0.3585	0.101	-0.505
Mof_C 	C 	0.6782	0.6532	0.969	-0.128
Mof_H 	H 	0.6807	0.6857	0.91	0.057
Mof_O 	O 	0.8383	0.3616	0.759	-0.28
Mof_C 	C 	0.6374	0.627	0.873	0.058
Mof_C 	C 	0.5999	0.6488	0.685	-0.098
Mof_H 	H 	0.6023	0.6813	0.6254	0.078
Mof_C 	C 	0.5587	0.6237	0.581	-0.014
Mof_H 	H 	0.5338	0.6389	0.4543	0.026
Mof_C 	C 	0.5561	0.5751	0.675	-0.036
Mof_H 	H 	0.5289	0.5575	0.61	0.035
Mof_C 	C 	0.5934	0.5526	0.863	-0.08
Mof_H 	H 	0.5908	0.52	0.9223	0.055
Mof_C 	C 	0.6348	0.5781	0.966	0.043
Mof_C 	C 	0.6716	0.5542	0.152	-0.134
Mof_H 	H 	0.6688	0.5219	0.2166	0.076
Mof_C 	C 	0.7127	0.5805	0.237	0.085
Mof_C 	C 	0.7451	0.4449	0.809	0.13
Mof_H 	H 	0.7215	0.4238	0.8946	-0.005
Mof_C 	C 	0.7932	0.4311	0.813	-0.188
Mof_C 	C 	0.8285	0.4627	0.685	0.151
Mof_H 	H 	0.8607	0.4534	0.6875	0.013
Mof_C 	C 	0.8155	0.508	0.555	-0.222
Mof_H 	H 	0.8391	0.5291	0.4694	0.128
Mof_C 	C 	0.7674	0.5218	0.551	0.201
Mof_C 	C 	0.7322	0.4902	0.679	-0.216
Mof_H 	H 	0.6999	0.4994	0.6765	0.106
Mof_C 	C 	0.8013	0.3797	0.94	0.537
Mof_O 	O 	0.7847	0.7461	0.861	-0.731
Mof_H 	H 	0.8077	0.7339	0.7371	0.145
Mof_O 	O 	0.8407	0.379	0.141	-0.211
Mof_Zn	Zn	0.21555	0.28593	0.3519	1.207
Mof_N 	N 	0.2411	0.3549	0.288	-0.272
Mof_C 	C 	0.219	0.391	0.446	0.091
Mof_H 	H 	0.1888	0.3889	0.5561	0.019
Mof_N 	N 	0.2457	0.432	0.429	-0.163
Mof_C 	C 	0.2851	0.3702	0.155	0.045
Mof_O 	O 	0.2265	0.6415	0.101	-0.505
Mof_C 	C 	0.3218	0.3468	0.969	-0.128
Mof_H 	H 	0.3193	0.3143	0.91	0.057
Mof_O 	O 	0.1617	0.6384	0.759	-0.28
Mof_C 	C 	0.3626	0.373	0.873	0.058
Mof_C 	C 	0.4001	0.3512	0.685	-0.098
Mof_H 	H 	0.3977	0.3187	0.6254	0.078
Mof_C 	C 	0.4413	0.3763	0.581	-0.014
Mof_H 	H 	0.4662	0.3611	0.4543	0.026
Mof_C 	C 	0.4439	0.4249	0.675	-0.036
Mof_H 	H 	0.4711	0.4425	0.61	0.035
Mof_C 	C 	0.4066	0.4474	0.863	-0.08
Mof_H 	H 	0.4092	0.48	0.9223	0.055
Mof_C 	C 	0.3652	0.4219	0.966	0.043
Mof_C 	C 	0.3284	0.4458	0.152	-0.134
Mof_H 	H 	0.3312	0.4781	0.2166	0.076
Mof_C 	C 	0.2873	0.4195	0.237	0.085
Mof_C 	C 	0.2549	0.5551	0.809	0.13
Mof_H 	H 	0.2785	0.5762	0.8946	-0.005
Mof_C 	C 	0.2068	0.5689	0.813	-0.188
Mof_C 	C 	0.1715	0.5373	0.685	0.151
Mof_H 	H 	0.1393	0.5466	0.6875	0.013
Mof_C 	C 	0.1845	0.492	0.555	-0.222
Mof_H 	H 	0.1609	0.4709	0.4694	0.128
Mof_C 	C 	0.2326	0.4782	0.551	0.201
Mof_C 	C 	0.2678	0.5098	0.679	-0.216
Mof_H 	H 	0.3001	0.5006	0.6765	0.106
Mof_C 	C 	0.1987	0.6203	0.94	0.537
Mof_O 	O 	0.2153	0.2539	0.861	-0.731
Mof_H 	H 	0.1923	0.2661	0.7371	0.145
Mof_O 	O 	0.1593	0.621	0.141	-0.211
Mof_Zn	Zn	0.21407	0.71555	0.1481	1.209
Mof_N 	N 	0.1451	0.7411	0.212	-0.275
Mof_C 	C 	0.109	0.719	0.054	0.104
Mof_H 	H 	0.1111	0.6888	0.9439	0.009
Mof_N 	N 	0.068	0.7457	0.071	-0.164
Mof_C 	C 	0.1298	0.7851	0.345	0.057
Mof_O 	O 	0.8585	0.7265	0.399	-0.523
Mof_C 	C 	0.1532	0.8218	0.531	-0.142
Mof_H 	H 	0.1857	0.8193	0.59	0.059
Mof_O 	O 	0.8616	0.6617	0.741	-0.28
Mof_C 	C 	0.127	0.8626	0.627	0.064
Mof_C 	C 	0.1488	0.9001	0.815	-0.103
Mof_H 	H 	0.1813	0.8977	0.8746	0.078
Mof_C 	C 	0.1237	0.9413	0.919	-0.012
Mof_H 	H 	0.1389	0.9662	0.0457	0.027
Mof_C 	C 	0.0751	0.9439	0.825	-0.039
Mof_H 	H 	0.0575	0.9711	0.89	0.037
Mof_C 	C 	0.0526	0.9066	0.637	-0.076
Mof_H 	H 	0.02	0.9092	0.5777	0.054
Mof_C 	C 	0.0781	0.8652	0.534	0.036
Mof_C 	C 	0.0542	0.8284	0.348	-0.126
Mof_H 	H 	0.0219	0.8312	0.2834	0.072
Mof_C 	C 	0.0805	0.7873	0.263	0.08
Mof_C 	C 	0.9449	0.7549	0.691	0.138
Mof_H 	H 	0.9238	0.7785	0.6054	-0.004
Mof_C 	C 	0.9311	0.7068	0.687	-0.197
Mof_C 	C 	0.9627	0.6715	0.815	0.162
Mof_H 	H 	0.9534	0.6393	0.8125	0.01
Mof_C 	C 	0.008	0.6845	0.945	-0.233
Mof_H 	H 	0.0291	0.6609	0.0306	0.133
Mof_C 	C 	0.0218	0.7326	0.949	0.203
Mof_C 	C 	0.9902	0.7678	0.821	-0.22
Mof_H 	H 	0.9994	0.8001	0.8235	0.108
Mof_C 	C 	0.8797	0.6987	0.56	0.565
Mof_O 	O 	0.2461	0.7153	0.639	-0.736
Mof_H 	H 	0.2339	0.6923	0.7629	0.143
Mof_O 	O 	0.879	0.6593	0.359	-0.224
Mof_Zn	Zn	0.78593	0.28445	0.1481	1.209
Mof_N 	N 	0.8549	0.2589	0.212	-0.275
Mof_C 	C 	0.891	0.281	0.054	0.104
Mof_H 	H 	0.8889	0.3112	0.9439	0.009
Mof_N 	N 	0.932	0.2543	0.071	-0.164
Mof_C 	C 	0.8702	0.2149	0.345	0.057
Mof_O 	O 	0.1415	0.2735	0.399	-0.523
Mof_C 	C 	0.8468	0.1782	0.531	-0.142
Mof_H 	H 	0.8143	0.1807	0.59	0.059
Mof_O 	O 	0.1384	0.3383	0.741	-0.28
Mof_C 	C 	0.873	0.1374	0.627	0.064
Mof_C 	C 	0.8512	0.0999	0.815	-0.103
Mof_H 	H 	0.8187	0.1023	0.8746	0.078
Mof_C 	C 	0.8763	0.0587	0.919	-0.012
Mof_H 	H 	0.8611	0.0338	0.0457	0.027
Mof_C 	C 	0.9249	0.0561	0.825	-0.039
Mof_H 	H 	0.9425	0.0289	0.89	0.037
Mof_C 	C 	0.9474	0.0934	0.637	-0.076
Mof_H 	H 	0.98	0.0908	0.5777	0.054
Mof_C 	C 	0.9219	0.1348	0.534	0.036
Mof_C 	C 	0.9458	0.1716	0.348	-0.126
Mof_H 	H 	0.9781	0.1688	0.2834	0.072
Mof_C 	C 	0.9195	0.2127	0.263	0.08
Mof_C 	C 	0.0551	0.2451	0.691	0.138
Mof_H 	H 	0.0762	0.2215	0.6054	-0.004
Mof_C 	C 	0.0689	0.2932	0.687	-0.197
Mof_C 	C 	0.0373	0.3285	0.815	0.162
Mof_H 	H 	0.0466	0.3607	0.8125	0.01
Mof_C 	C 	0.992	0.3155	0.945	-0.233
Mof_H 	H 	0.9709	0.3391	0.0306	0.133
Mof_C 	C 	0.9782	0.2674	0.949	0.203
Mof_C 	C 	0.0098	0.2322	0.821	-0.22
Mof_H 	H 	0.0006	0.1999	0.8235	0.108
Mof_C 	C 	0.1203	0.3013	0.56	0.565
Mof_O 	O 	0.7539	0.2847	0.639	-0.736
Mof_H 	H 	0.7661	0.3077	0.7629	0.143
Mof_O 	O 	0.121	0.3407	0.359	-0.224
_end
