data_functionalizedCrystal
_audit_creation_method	'EQeq! by Chris Wilmer'
_symmetry_space_group_name_H-M	'P1'
_symmetry_Int_Tables_number	1
_symmetry_cell_setting	triclinic
loop_
_symmetry_equiv_pos_as_xyz
  x,y,z
_cell_length_a	21.751
_cell_length_b	9.389
_cell_length_c	17.03
_cell_angle_alpha	90
_cell_angle_beta	109.965
_cell_angle_gamma	90
loop_
_atom_site_label
_atom_site_type_symbol
_atom_site_fract_x
_atom_site_fract_y
_atom_site_fract_z
_atom_site_charge
Mof_C 	C 	0.41209	0.8686	0.26501	0.431
Mof_C 	C 	0.36919	0.97173	0.28918	-0.1
Mof_C 	C 	0.38994	0.0261	0.36985	-0.005
Mof_H 	H 	0.4288	0.9948	0.4093	0.052
Mof_C 	C 	0.35158	0.1282	0.39087	-0.052
Mof_C 	C 	0.29297	0.1709	0.33289	-0.098
Mof_H 	H 	0.2675	0.2378	0.3481	0.074
Mof_C 	C 	0.27081	0.1155	0.2512	0.1
Mof_C 	C 	0.31041	0.0166	0.22969	-0.072
Mof_H 	H 	0.2976	0.9805	0.1756	0.072
Mof_C 	C 	0.18688	0.1182	0.10846	-0.09
Mof_H 	H 	0.1408	0.1425	0.0858	0.043
Mof_H 	H 	0.1902	0.0155	0.1051	0.06
Mof_C 	C 	0.22102	0.1853	0.05366	0.047
Mof_C 	C 	0.23769	0.1056	0.99535	-0.08
Mof_H 	H 	0.2297	0.0081	0.9916	0.065
Mof_C 	C 	0.23389	0.3312	0.05744	-0.063
Mof_H 	H 	0.2232	0.387	0.096	0.06
Mof_C 	C 	0.37481	0.1933	0.47691	0.306
Mof_N 	N 	0.21148	0.159	0.1958	-0.191
Mof_H 	H 	0.1876	0.2136	0.214	0.117
Mof_O 	O 	0.39527	0.83706	0.18933	-0.52
Mof_O 	O 	0.45952	0.8179	0.32008	-0.549
Mof_O 	O 	0.42954	0.1476	0.52605	-0.455
Mof_O 	O 	0.34285	0.2852	0.49675	-0.349
Mof_Zn	Zn	0.44856	0.75236	0.13075	1.192
Mof_C 	C 	0.91209	0.3686	0.26501	0.433
Mof_C 	C 	0.86919	0.47173	0.28918	-0.101
Mof_C 	C 	0.88994	0.5261	0.36985	-0.002
Mof_H 	H 	0.9288	0.4948	0.4093	0.052
Mof_C 	C 	0.85158	0.6282	0.39087	-0.052
Mof_C 	C 	0.79297	0.6709	0.33289	-0.096
Mof_H 	H 	0.7675	0.7378	0.3481	0.074
Mof_C 	C 	0.77081	0.6155	0.2512	0.098
Mof_C 	C 	0.81041	0.5166	0.22969	-0.07
Mof_H 	H 	0.7976	0.4805	0.1756	0.071
Mof_C 	C 	0.68688	0.6182	0.10846	-0.091
Mof_H 	H 	0.6408	0.6425	0.0858	0.043
Mof_H 	H 	0.6902	0.5155	0.1051	0.061
Mof_C 	C 	0.72102	0.6853	0.05366	0.048
Mof_C 	C 	0.73769	0.6056	0.99535	-0.082
Mof_H 	H 	0.7297	0.5081	0.9916	0.066
Mof_C 	C 	0.73389	0.8312	0.05744	-0.065
Mof_H 	H 	0.7232	0.887	0.096	0.061
Mof_C 	C 	0.87481	0.6933	0.47691	0.307
Mof_N 	N 	0.71148	0.659	0.1958	-0.191
Mof_H 	H 	0.6876	0.7136	0.214	0.117
Mof_O 	O 	0.89527	0.33706	0.18933	-0.52
Mof_O 	O 	0.95952	0.3179	0.32008	-0.549
Mof_O 	O 	0.92954	0.6476	0.52605	-0.455
Mof_O 	O 	0.84285	0.7852	0.49675	-0.349
Mof_Zn	Zn	0.94856	0.25236	0.13075	1.192
Mof_C 	C 	0.58791	0.8686	0.23499	0.431
Mof_C 	C 	0.63081	0.97173	0.21082	-0.098
Mof_C 	C 	0.61006	0.0261	0.13015	-0.006
Mof_H 	H 	0.5712	0.9948	0.0907	0.054
Mof_C 	C 	0.64842	0.1282	0.10913	-0.05
Mof_C 	C 	0.70703	0.1709	0.16711	-0.098
Mof_H 	H 	0.7325	0.2378	0.1519	0.074
Mof_C 	C 	0.72919	0.1155	0.2488	0.1
Mof_C 	C 	0.68959	0.0166	0.27031	-0.073
Mof_H 	H 	0.7024	0.9805	0.3244	0.072
Mof_C 	C 	0.81312	0.1182	0.39154	-0.09
Mof_H 	H 	0.8592	0.1425	0.4142	0.043
Mof_H 	H 	0.8098	0.0155	0.3949	0.061
Mof_C 	C 	0.77898	0.1853	0.44634	0.048
Mof_C 	C 	0.76231	0.1056	0.50465	-0.081
Mof_H 	H 	0.7703	0.0081	0.5084	0.066
Mof_C 	C 	0.76611	0.3312	0.44256	-0.064
Mof_H 	H 	0.7768	0.387	0.404	0.061
Mof_C 	C 	0.62519	0.1933	0.02309	0.305
Mof_N 	N 	0.78852	0.159	0.3042	-0.191
Mof_H 	H 	0.8124	0.2136	0.286	0.117
Mof_O 	O 	0.60473	0.83706	0.31067	-0.52
Mof_O 	O 	0.54048	0.8179	0.17992	-0.549
Mof_O 	O 	0.57046	0.1476	0.97395	-0.455
Mof_O 	O 	0.65715	0.2852	0.00325	-0.35
Mof_Zn	Zn	0.55144	0.75236	0.36925	1.192
Mof_C 	C 	0.08791	0.3686	0.23499	0.433
Mof_C 	C 	0.13081	0.47173	0.21082	-0.101
Mof_C 	C 	0.11006	0.5261	0.13015	-0.002
Mof_H 	H 	0.0712	0.4948	0.0907	0.052
Mof_C 	C 	0.14842	0.6282	0.10913	-0.052
Mof_C 	C 	0.20703	0.6709	0.16711	-0.096
Mof_H 	H 	0.2325	0.7378	0.1519	0.074
Mof_C 	C 	0.22919	0.6155	0.2488	0.098
Mof_C 	C 	0.18959	0.5166	0.27031	-0.07
Mof_H 	H 	0.2024	0.4805	0.3244	0.071
Mof_C 	C 	0.31312	0.6182	0.39154	-0.09
Mof_H 	H 	0.3592	0.6425	0.4142	0.043
Mof_H 	H 	0.3098	0.5155	0.3949	0.061
Mof_C 	C 	0.27898	0.6853	0.44634	0.048
Mof_C 	C 	0.26231	0.6056	0.50465	-0.081
Mof_H 	H 	0.2703	0.5081	0.5084	0.066
Mof_C 	C 	0.26611	0.8312	0.44256	-0.064
Mof_H 	H 	0.2768	0.887	0.404	0.061
Mof_C 	C 	0.12519	0.6933	0.02309	0.308
Mof_N 	N 	0.28852	0.659	0.3042	-0.191
Mof_H 	H 	0.3124	0.7136	0.286	0.117
Mof_O 	O 	0.10473	0.33706	0.31067	-0.52
Mof_O 	O 	0.04048	0.3179	0.17992	-0.549
Mof_O 	O 	0.07046	0.6476	0.97395	-0.456
Mof_O 	O 	0.15715	0.7852	0.00325	-0.349
Mof_Zn	Zn	0.05144	0.25236	0.36925	1.192
Mof_C 	C 	0.58791	0.1314	0.73499	0.432
Mof_C 	C 	0.63081	0.02827	0.71082	-0.099
Mof_C 	C 	0.61006	0.9739	0.63015	-0.004
Mof_H 	H 	0.5712	0.0052	0.5907	0.053
Mof_C 	C 	0.64842	0.8718	0.60913	-0.051
Mof_C 	C 	0.70703	0.8291	0.66711	-0.097
Mof_H 	H 	0.7325	0.7622	0.6519	0.074
Mof_C 	C 	0.72919	0.8845	0.7488	0.1
Mof_C 	C 	0.68959	0.9834	0.77031	-0.072
Mof_H 	H 	0.7024	0.0195	0.8244	0.072
Mof_C 	C 	0.81312	0.8818	0.89154	-0.09
Mof_H 	H 	0.8592	0.8575	0.9142	0.043
Mof_H 	H 	0.8098	0.9845	0.8949	0.06
Mof_C 	C 	0.77898	0.8147	0.94634	0.047
Mof_C 	C 	0.76231	0.8944	0.00465	-0.08
Mof_H 	H 	0.7703	0.9919	0.0084	0.065
Mof_C 	C 	0.76611	0.6688	0.94256	-0.063
Mof_H 	H 	0.7768	0.613	0.904	0.06
Mof_C 	C 	0.62519	0.8067	0.52309	0.306
Mof_N 	N 	0.78852	0.841	0.8042	-0.191
Mof_H 	H 	0.8124	0.7864	0.786	0.117
Mof_O 	O 	0.60473	0.16294	0.81067	-0.52
Mof_O 	O 	0.54048	0.1821	0.67992	-0.549
Mof_O 	O 	0.57046	0.8524	0.47395	-0.455
Mof_O 	O 	0.65715	0.7148	0.50325	-0.349
Mof_Zn	Zn	0.55144	0.24764	0.86925	1.192
Mof_C 	C 	0.08791	0.6314	0.73499	0.433
Mof_C 	C 	0.13081	0.52827	0.71082	-0.101
Mof_C 	C 	0.11006	0.4739	0.63015	-0.002
Mof_H 	H 	0.0712	0.5052	0.5907	0.052
Mof_C 	C 	0.14842	0.3718	0.60913	-0.052
Mof_C 	C 	0.20703	0.3291	0.66711	-0.096
Mof_H 	H 	0.2325	0.2622	0.6519	0.074
Mof_C 	C 	0.22919	0.3845	0.7488	0.098
Mof_C 	C 	0.18959	0.4834	0.77031	-0.07
Mof_H 	H 	0.2024	0.5195	0.8244	0.071
Mof_C 	C 	0.31312	0.3818	0.89154	-0.091
Mof_H 	H 	0.3592	0.3575	0.9142	0.043
Mof_H 	H 	0.3098	0.4845	0.8949	0.061
Mof_C 	C 	0.27898	0.3147	0.94634	0.048
Mof_C 	C 	0.26231	0.3944	0.00465	-0.082
Mof_H 	H 	0.2703	0.4919	0.0084	0.066
Mof_C 	C 	0.26611	0.1688	0.94256	-0.065
Mof_H 	H 	0.2768	0.113	0.904	0.061
Mof_C 	C 	0.12519	0.3067	0.52309	0.307
Mof_N 	N 	0.28852	0.341	0.8042	-0.191
Mof_H 	H 	0.3124	0.2864	0.786	0.117
Mof_O 	O 	0.10473	0.66294	0.81067	-0.52
Mof_O 	O 	0.04048	0.6821	0.67992	-0.549
Mof_O 	O 	0.07046	0.3524	0.47395	-0.455
Mof_O 	O 	0.15715	0.2148	0.50325	-0.349
Mof_Zn	Zn	0.05144	0.74764	0.86925	1.192
Mof_C 	C 	0.41209	0.1314	0.76501	0.431
Mof_C 	C 	0.36919	0.02827	0.78918	-0.098
Mof_C 	C 	0.38994	0.9739	0.86985	-0.006
Mof_H 	H 	0.4288	0.0052	0.9093	0.054
Mof_C 	C 	0.35158	0.8718	0.89087	-0.05
Mof_C 	C 	0.29297	0.8291	0.83289	-0.098
Mof_H 	H 	0.2675	0.7622	0.8481	0.074
Mof_C 	C 	0.27081	0.8845	0.7512	0.1
Mof_C 	C 	0.31041	0.9834	0.72969	-0.073
Mof_H 	H 	0.2976	0.0195	0.6756	0.072
Mof_C 	C 	0.18688	0.8818	0.60846	-0.09
Mof_H 	H 	0.1408	0.8575	0.5858	0.043
Mof_H 	H 	0.1902	0.9845	0.6051	0.061
Mof_C 	C 	0.22102	0.8147	0.55366	0.048
Mof_C 	C 	0.23769	0.8944	0.49535	-0.081
Mof_H 	H 	0.2297	0.9919	0.4916	0.066
Mof_C 	C 	0.23389	0.6688	0.55744	-0.064
Mof_H 	H 	0.2232	0.613	0.596	0.061
Mof_C 	C 	0.37481	0.8067	0.97691	0.305
Mof_N 	N 	0.21148	0.841	0.6958	-0.191
Mof_H 	H 	0.1876	0.7864	0.714	0.117
Mof_O 	O 	0.39527	0.16294	0.68933	-0.52
Mof_O 	O 	0.45952	0.1821	0.82008	-0.549
Mof_O 	O 	0.42954	0.8524	0.02605	-0.455
Mof_O 	O 	0.34285	0.7148	0.99675	-0.35
Mof_Zn	Zn	0.44856	0.24764	0.63075	1.192
Mof_C 	C 	0.91209	0.6314	0.76501	0.433
Mof_C 	C 	0.86919	0.52827	0.78918	-0.101
Mof_C 	C 	0.88994	0.4739	0.86985	-0.002
Mof_H 	H 	0.9288	0.5052	0.9093	0.052
Mof_C 	C 	0.85158	0.3718	0.89087	-0.052
Mof_C 	C 	0.79297	0.3291	0.83289	-0.096
Mof_H 	H 	0.7675	0.2622	0.8481	0.074
Mof_C 	C 	0.77081	0.3845	0.7512	0.098
Mof_C 	C 	0.81041	0.4834	0.72969	-0.07
Mof_H 	H 	0.7976	0.5195	0.6756	0.071
Mof_C 	C 	0.68688	0.3818	0.60846	-0.09
Mof_H 	H 	0.6408	0.3575	0.5858	0.043
Mof_H 	H 	0.6902	0.4845	0.6051	0.061
Mof_C 	C 	0.72102	0.3147	0.55366	0.048
Mof_C 	C 	0.73769	0.3944	0.49535	-0.081
Mof_H 	H 	0.7297	0.4919	0.4916	0.066
Mof_C 	C 	0.73389	0.1688	0.55744	-0.064
Mof_H 	H 	0.7232	0.113	0.596	0.061
Mof_C 	C 	0.87481	0.3067	0.97691	0.308
Mof_N 	N 	0.71148	0.341	0.6958	-0.191
Mof_H 	H 	0.6876	0.2864	0.714	0.117
Mof_O 	O 	0.89527	0.66294	0.68933	-0.52
Mof_O 	O 	0.95952	0.6821	0.82008	-0.549
Mof_O 	O 	0.92954	0.3524	0.02605	-0.456
Mof_O 	O 	0.84285	0.2148	0.99675	-0.349
Mof_Zn	Zn	0.94856	0.74764	0.63075	1.192
_end
