data_functionalizedCrystal
_audit_creation_method	'EQeq! by Chris Wilmer'
_symmetry_space_group_name_H-M	'P1'
_symmetry_Int_Tables_number	1
_symmetry_cell_setting	triclinic
loop_
_symmetry_equiv_pos_as_xyz
  x,y,z
_cell_length_a	7.6978
_cell_length_b	17.25
_cell_length_c	14.089
_cell_angle_alpha	90
_cell_angle_beta	93.102
_cell_angle_gamma	90
loop_
_atom_site_label
_atom_site_type_symbol
_atom_site_fract_x
_atom_site_fract_y
_atom_site_fract_z
_atom_site_charge
Mof_Zn	Zn	0.41149	0.62629	0.29507	1.212
Mof_O 	O 	0.3457	0.76508	0.7995	-0.452
Mof_O 	O 	0.2867	0.77715	0.6456	-0.317
Mof_O 	O 	0.9574	0.39795	0.644	-0.3
Mof_O 	O 	0.7581	0.45461	0.7286	-0.461
Mof_N 	N 	0.5966	0.60033	0.2053	-0.286
Mof_N 	N 	0.4994	0.61632	0.4353	-0.248
Mof_C 	C 	0.6594	0.6351	0.4706	0.055
Mof_H 	H 	0.7471	0.6429	0.4288	0.007
Mof_C 	C 	0.698	0.6433	0.5669	-0.094
Mof_H 	H 	0.8105	0.6559	0.5891	0.073
Mof_C 	C 	0.5705	0.6328	0.6296	-0.005
Mof_H 	H 	0.5951	0.6386	0.6946	0.037
Mof_C 	C 	0.4045	0.6133	0.5952	-0.032
Mof_C 	C 	0.3783	0.6044	0.4983	0.027
Mof_H 	H 	0.2684	0.5891	0.475	0.019
Mof_C 	C 	0.2542	0.6025	0.6557	0.059
Mof_C 	C 	0.2057	0.661	0.7194	-0.1
Mof_C 	C 	0.0666	0.6486	0.7755	0.007
Mof_H 	H 	0.0381	0.6861	0.8195	0.04
Mof_C 	C 	0.7336	0.645	0.1914	0.129
Mof_H 	H 	0.7442	0.6915	0.2246	-0.03
Mof_C 	C 	0.8608	0.6257	0.1305	-0.198
Mof_H 	H 	0.9541	0.659	0.1232	0.112
Mof_C 	C 	0.8497	0.5568	0.0801	0.142
Mof_C 	C 	0.7041	0.5111	0.092	-0.185
Mof_H 	H 	0.6886	0.4652	0.0579	0.102
Mof_C 	C 	0.583	0.534	0.1543	0.105
Mof_H 	H 	0.4869	0.5024	0.1618	-0.015
Mof_C 	C 	0.9904	0.5338	0.0195	-0.092
Mof_H 	H 	0.0737	0.5712	0.0078	0.068
Mof_C 	C 	0.9048	0.4528	0.6904	0.323
Mof_C 	C 	0.0122	0.5246	0.7041	-0.038
Mof_C 	C 	0.1567	0.535	0.6499	-0.076
Mof_H 	H 	0.1883	0.4958	0.6089	0.062
Mof_C 	C 	0.9692	0.5816	0.7673	-0.052
Mof_H 	H 	0.8742	0.5748	0.8045	0.063
Mof_C 	C 	0.2871	0.7396	0.7196	0.341
Mof_Zn	Zn	0.58851	0.12629	0.20493	1.211
Mof_O 	O 	0.6543	0.26508	0.7005	-0.453
Mof_O 	O 	0.7133	0.27715	0.8544	-0.317
Mof_O 	O 	0.0426	0.89795	0.856	-0.3
Mof_O 	O 	0.2419	0.95461	0.7714	-0.461
Mof_N 	N 	0.4034	0.10033	0.2947	-0.286
Mof_N 	N 	0.5006	0.11632	0.0647	-0.247
Mof_C 	C 	0.3406	0.1351	0.0294	0.053
Mof_H 	H 	0.2529	0.1429	0.0712	0.007
Mof_C 	C 	0.302	0.1433	0.9331	-0.091
Mof_H 	H 	0.1895	0.1559	0.9109	0.072
Mof_C 	C 	0.4295	0.1328	0.8704	-0.007
Mof_H 	H 	0.4049	0.1386	0.8054	0.038
Mof_C 	C 	0.5955	0.1133	0.9048	-0.029
Mof_C 	C 	0.6217	0.1044	0.0017	0.025
Mof_H 	H 	0.7316	0.0891	0.025	0.019
Mof_C 	C 	0.7458	0.1025	0.8443	0.056
Mof_C 	C 	0.7943	0.161	0.7806	-0.099
Mof_C 	C 	0.9334	0.1486	0.7245	0.005
Mof_H 	H 	0.9619	0.1861	0.6805	0.041
Mof_C 	C 	0.2664	0.145	0.3086	0.13
Mof_H 	H 	0.2558	0.1915	0.2754	-0.03
Mof_C 	C 	0.1392	0.1257	0.3695	-0.199
Mof_H 	H 	0.0459	0.159	0.3768	0.112
Mof_C 	C 	0.1503	0.0568	0.4199	0.142
Mof_C 	C 	0.2959	0.0111	0.408	-0.186
Mof_H 	H 	0.3114	0.9652	0.4421	0.103
Mof_C 	C 	0.417	0.034	0.3457	0.105
Mof_H 	H 	0.5131	0.0024	0.3382	-0.015
Mof_C 	C 	0.0096	0.0338	0.4805	-0.093
Mof_H 	H 	0.9263	0.0712	0.4922	0.069
Mof_C 	C 	0.0952	0.9528	0.8096	0.324
Mof_C 	C 	0.9878	0.0246	0.7959	-0.04
Mof_C 	C 	0.8433	0.035	0.8501	-0.073
Mof_H 	H 	0.8117	0.9958	0.8911	0.06
Mof_C 	C 	0.0308	0.0816	0.7327	-0.049
Mof_H 	H 	0.1258	0.0748	0.6955	0.062
Mof_C 	C 	0.7129	0.2396	0.7804	0.34
Mof_Zn	Zn	0.58851	0.37371	0.70493	1.211
Mof_O 	O 	0.6543	0.23492	0.2005	-0.453
Mof_O 	O 	0.7133	0.22285	0.3544	-0.317
Mof_O 	O 	0.0426	0.60205	0.356	-0.3
Mof_O 	O 	0.2419	0.54539	0.2714	-0.461
Mof_N 	N 	0.4034	0.39967	0.7947	-0.286
Mof_N 	N 	0.5006	0.38368	0.5647	-0.248
Mof_C 	C 	0.3406	0.3649	0.5294	0.055
Mof_H 	H 	0.2529	0.3571	0.5712	0.007
Mof_C 	C 	0.302	0.3567	0.4331	-0.094
Mof_H 	H 	0.1895	0.3441	0.4109	0.073
Mof_C 	C 	0.4295	0.3672	0.3704	-0.005
Mof_H 	H 	0.4049	0.3614	0.3054	0.037
Mof_C 	C 	0.5955	0.3867	0.4048	-0.032
Mof_C 	C 	0.6217	0.3956	0.5017	0.027
Mof_H 	H 	0.7316	0.4109	0.525	0.019
Mof_C 	C 	0.7458	0.3975	0.3443	0.059
Mof_C 	C 	0.7943	0.339	0.2806	-0.1
Mof_C 	C 	0.9334	0.3514	0.2245	0.007
Mof_H 	H 	0.9619	0.3139	0.1805	0.04
Mof_C 	C 	0.2664	0.355	0.8086	0.129
Mof_H 	H 	0.2558	0.3085	0.7754	-0.03
Mof_C 	C 	0.1392	0.3743	0.8695	-0.198
Mof_H 	H 	0.0459	0.341	0.8768	0.112
Mof_C 	C 	0.1503	0.4432	0.9199	0.142
Mof_C 	C 	0.2959	0.4889	0.908	-0.185
Mof_H 	H 	0.3114	0.5348	0.9421	0.102
Mof_C 	C 	0.417	0.466	0.8457	0.105
Mof_H 	H 	0.5131	0.4976	0.8382	-0.015
Mof_C 	C 	0.0096	0.4662	0.9805	-0.092
Mof_H 	H 	0.9263	0.4288	0.9922	0.068
Mof_C 	C 	0.0952	0.5472	0.3096	0.323
Mof_C 	C 	0.9878	0.4754	0.2959	-0.038
Mof_C 	C 	0.8433	0.465	0.3501	-0.076
Mof_H 	H 	0.8117	0.5042	0.3911	0.062
Mof_C 	C 	0.0308	0.4184	0.2327	-0.052
Mof_H 	H 	0.1258	0.4252	0.1955	0.063
Mof_C 	C 	0.7129	0.2604	0.2804	0.341
Mof_Zn	Zn	0.41149	0.87371	0.79507	1.211
Mof_O 	O 	0.3457	0.73492	0.2995	-0.453
Mof_O 	O 	0.2867	0.72285	0.1456	-0.317
Mof_O 	O 	0.9574	0.10205	0.144	-0.3
Mof_O 	O 	0.7581	0.04539	0.2286	-0.461
Mof_N 	N 	0.5966	0.89967	0.7053	-0.286
Mof_N 	N 	0.4994	0.88368	0.9353	-0.247
Mof_C 	C 	0.6594	0.8649	0.9706	0.053
Mof_H 	H 	0.7471	0.8571	0.9288	0.007
Mof_C 	C 	0.698	0.8567	0.0669	-0.091
Mof_H 	H 	0.8105	0.8441	0.0891	0.072
Mof_C 	C 	0.5705	0.8672	0.1296	-0.007
Mof_H 	H 	0.5951	0.8614	0.1946	0.038
Mof_C 	C 	0.4045	0.8867	0.0952	-0.029
Mof_C 	C 	0.3783	0.8956	0.9983	0.025
Mof_H 	H 	0.2684	0.9109	0.975	0.019
Mof_C 	C 	0.2542	0.8975	0.1557	0.056
Mof_C 	C 	0.2057	0.839	0.2194	-0.099
Mof_C 	C 	0.0666	0.8514	0.2755	0.005
Mof_H 	H 	0.0381	0.8139	0.3195	0.041
Mof_C 	C 	0.7336	0.855	0.6914	0.13
Mof_H 	H 	0.7442	0.8085	0.7246	-0.03
Mof_C 	C 	0.8608	0.8743	0.6305	-0.199
Mof_H 	H 	0.9541	0.841	0.6232	0.112
Mof_C 	C 	0.8497	0.9432	0.5801	0.142
Mof_C 	C 	0.7041	0.9889	0.592	-0.186
Mof_H 	H 	0.6886	0.0348	0.5579	0.103
Mof_C 	C 	0.583	0.966	0.6543	0.105
Mof_H 	H 	0.4869	0.9976	0.6618	-0.015
Mof_C 	C 	0.9904	0.9662	0.5195	-0.093
Mof_H 	H 	0.0737	0.9288	0.5078	0.069
Mof_C 	C 	0.9048	0.0472	0.1904	0.324
Mof_C 	C 	0.0122	0.9754	0.2041	-0.04
Mof_C 	C 	0.1567	0.965	0.1499	-0.073
Mof_H 	H 	0.1883	0.0042	0.1089	0.06
Mof_C 	C 	0.9692	0.9184	0.2673	-0.049
Mof_H 	H 	0.8742	0.9252	0.3045	0.062
Mof_C 	C 	0.2871	0.7604	0.2196	0.34
_end
