data_functionalizedCrystal
_audit_creation_method	'EQeq! by Chris Wilmer'
_symmetry_space_group_name_H-M	'P1'
_symmetry_Int_Tables_number	1
_symmetry_cell_setting	triclinic
loop_
_symmetry_equiv_pos_as_xyz
  x,y,z
_cell_length_a	24.2603
_cell_length_b	24.2603
_cell_length_c	15.1465
_cell_angle_alpha	90
_cell_angle_beta	90
_cell_angle_gamma	90
loop_
_atom_site_label
_atom_site_type_symbol
_atom_site_fract_x
_atom_site_fract_y
_atom_site_fract_z
_atom_site_charge
Mof_O 	O 	0.4449	0.14881	0.0859	-0.596
Mof_O 	O 	0.397	0.0831	0.1615	-0.728
Mof_C 	C 	0.2972	0.2556	0.2337	-0.281
Mof_C 	C 	0.3344	0.2666	0.1693	0.865
Mof_H 	H 	0.3338	0.3019	0.1423	-0.737
Mof_C 	C 	0.3732	0.2288	0.1411	-0.507
Mof_H 	H 	0.4017	0.2395	0.1017	0.301
Mof_C 	C 	0.3699	0.1756	0.1711	0.241
Mof_C 	C 	0.3334	0.1646	0.2369	-0.437
Mof_H 	H 	0.3331	0.1286	0.2617	0.227
Mof_C 	C 	0.2958	0.2039	0.2704	0.722
Mof_C 	C 	0.4068	0.1335	0.1389	0.376
Mof_C 	C 	0.2474	0.1767	0.3545	1.373
Mof_F 	F 	0.2677	0.1267	0.37	-0.587
Mof_F 	F 	0.2541	0.2133	0.4191	-0.476
Mof_F 	F 	0.1999	0.1778	0.311	-0.529
Mof_H 	H 	0.2706	0.195	0.3163	-0.591
Mof_F 	F 	0.3739	0.3254	0.0499	-0.487
Mof_F 	F 	0.283	0.3321	0.0733	-0.513
Mof_F 	F 	0.3425	0.3676	0.1735	-0.503
Mof_C 	C 	0.333	0.3319	0.1088	1.526
Mof_O 	O 	0.5551	0.85119	0.0859	-0.583
Mof_O 	O 	0.603	0.9169	0.1615	-0.598
Mof_C 	C 	0.7028	0.7444	0.2337	-0.305
Mof_C 	C 	0.6656	0.7334	0.1693	0.908
Mof_H 	H 	0.6662	0.6981	0.1423	-0.759
Mof_C 	C 	0.6268	0.7712	0.1411	-0.547
Mof_H 	H 	0.5983	0.7605	0.1017	0.317
Mof_C 	C 	0.6301	0.8244	0.1711	0.31
Mof_C 	C 	0.6666	0.8354	0.2369	-0.481
Mof_H 	H 	0.6669	0.8714	0.2617	0.299
Mof_C 	C 	0.7042	0.7961	0.2704	0.788
Mof_C 	C 	0.5932	0.8665	0.1389	0.347
Mof_C 	C 	0.7526	0.8233	0.3545	1.408
Mof_F 	F 	0.7323	0.8733	0.37	-0.493
Mof_F 	F 	0.7459	0.7867	0.4191	-0.451
Mof_F 	F 	0.8001	0.8222	0.311	-0.452
Mof_H 	H 	0.7294	0.805	0.3163	-0.622
Mof_F 	F 	0.6261	0.6746	0.0499	-0.489
Mof_F 	F 	0.717	0.6679	0.0733	-0.508
Mof_F 	F 	0.6575	0.6324	0.1735	-0.502
Mof_C 	C 	0.667	0.6681	0.1088	1.544
Mof_O 	O 	0.85119	0.4449	0.5859	-0.575
Mof_O 	O 	0.9169	0.397	0.6615	-0.599
Mof_C 	C 	0.7444	0.2972	0.7337	-0.332
Mof_C 	C 	0.7334	0.3344	0.6693	0.934
Mof_H 	H 	0.6981	0.3338	0.6423	-0.772
Mof_C 	C 	0.7712	0.3732	0.6411	-0.563
Mof_H 	H 	0.7605	0.4017	0.6017	0.327
Mof_C 	C 	0.8244	0.3699	0.6711	0.322
Mof_C 	C 	0.8354	0.3334	0.7369	-0.494
Mof_H 	H 	0.8714	0.3331	0.7617	0.299
Mof_C 	C 	0.7961	0.2958	0.7704	0.804
Mof_C 	C 	0.8665	0.4068	0.6389	0.342
Mof_C 	C 	0.8233	0.2474	0.8545	1.407
Mof_F 	F 	0.8733	0.2677	0.87	-0.509
Mof_F 	F 	0.7867	0.2541	0.9191	-0.458
Mof_F 	F 	0.8222	0.1999	0.811	-0.488
Mof_H 	H 	0.805	0.2706	0.8163	-0.628
Mof_F 	F 	0.6746	0.3739	0.5499	-0.479
Mof_F 	F 	0.6679	0.283	0.5733	-0.509
Mof_F 	F 	0.6324	0.3425	0.6735	-0.503
Mof_C 	C 	0.6681	0.333	0.6088	1.554
Mof_O 	O 	0.14881	0.5551	0.5859	-0.589
Mof_O 	O 	0.0831	0.603	0.6615	-0.72
Mof_C 	C 	0.2556	0.7028	0.7337	-0.259
Mof_C 	C 	0.2666	0.6656	0.6693	0.853
Mof_H 	H 	0.3019	0.6662	0.6423	-0.73
Mof_C 	C 	0.2288	0.6268	0.6411	-0.498
Mof_H 	H 	0.2395	0.5983	0.6017	0.303
Mof_C 	C 	0.1756	0.6301	0.6711	0.244
Mof_C 	C 	0.1646	0.6666	0.7369	-0.43
Mof_H 	H 	0.1286	0.6669	0.7617	0.234
Mof_C 	C 	0.2039	0.7042	0.7704	0.718
Mof_C 	C 	0.1335	0.5932	0.6389	0.377
Mof_C 	C 	0.1767	0.7526	0.8545	1.38
Mof_F 	F 	0.1267	0.7323	0.87	-0.56
Mof_F 	F 	0.2133	0.7459	0.9191	-0.456
Mof_F 	F 	0.1778	0.8001	0.811	-0.486
Mof_H 	H 	0.195	0.7294	0.8163	-0.591
Mof_F 	F 	0.3254	0.6261	0.5499	-0.473
Mof_F 	F 	0.3321	0.717	0.5733	-0.496
Mof_F 	F 	0.3676	0.6575	0.6735	-0.495
Mof_C 	C 	0.3319	0.667	0.6088	1.521
Mof_O 	O 	0.5551	0.14881	0.9141	-0.579
Mof_O 	O 	0.603	0.0831	0.8385	-0.715
Mof_C 	C 	0.7028	0.2556	0.7663	-0.264
Mof_C 	C 	0.6656	0.2666	0.8307	0.861
Mof_H 	H 	0.6662	0.3019	0.8577	-0.733
Mof_C 	C 	0.6268	0.2288	0.8589	-0.503
Mof_H 	H 	0.5983	0.2395	0.8983	0.309
Mof_C 	C 	0.6301	0.1756	0.8289	0.25
Mof_C 	C 	0.6666	0.1646	0.7631	-0.434
Mof_H 	H 	0.6669	0.1286	0.7383	0.234
Mof_C 	C 	0.7042	0.2039	0.7296	0.723
Mof_C 	C 	0.5932	0.1335	0.8611	0.375
Mof_C 	C 	0.7526	0.1767	0.6455	1.381
Mof_F 	F 	0.7323	0.1267	0.63	-0.565
Mof_F 	F 	0.7459	0.2133	0.5809	-0.464
Mof_F 	F 	0.8001	0.1778	0.689	-0.488
Mof_H 	H 	0.7294	0.195	0.6837	-0.593
Mof_F 	F 	0.6261	0.3254	0.9501	-0.462
Mof_F 	F 	0.717	0.3321	0.9267	-0.489
Mof_F 	F 	0.6575	0.3676	0.8265	-0.494
Mof_C 	C 	0.667	0.3319	0.8912	1.525
Mof_O 	O 	0.4449	0.85119	0.9141	-0.565
Mof_O 	O 	0.397	0.9169	0.8385	-0.596
Mof_C 	C 	0.2972	0.7444	0.7663	-0.337
Mof_C 	C 	0.3344	0.7334	0.8307	0.942
Mof_H 	H 	0.3338	0.6981	0.8577	-0.776
Mof_C 	C 	0.3732	0.7712	0.8589	-0.568
Mof_H 	H 	0.4017	0.7605	0.8983	0.333
Mof_C 	C 	0.3699	0.8244	0.8289	0.327
Mof_C 	C 	0.3334	0.8354	0.7631	-0.498
Mof_H 	H 	0.3331	0.8714	0.7383	0.299
Mof_C 	C 	0.2958	0.7961	0.7296	0.808
Mof_C 	C 	0.4068	0.8665	0.8611	0.34
Mof_C 	C 	0.2474	0.8233	0.6455	1.408
Mof_F 	F 	0.2677	0.8733	0.63	-0.514
Mof_F 	F 	0.2541	0.7867	0.5809	-0.465
Mof_F 	F 	0.1999	0.8222	0.689	-0.49
Mof_H 	H 	0.2706	0.805	0.6837	-0.63
Mof_F 	F 	0.3739	0.6746	0.9501	-0.468
Mof_F 	F 	0.283	0.6679	0.9267	-0.502
Mof_F 	F 	0.3425	0.6324	0.8265	-0.502
Mof_C 	C 	0.333	0.6681	0.8912	1.557
Mof_O 	O 	0.14881	0.4449	0.4141	-0.59
Mof_O 	O 	0.0831	0.397	0.3385	-0.729
Mof_C 	C 	0.2556	0.2972	0.2663	-0.286
Mof_C 	C 	0.2666	0.3344	0.3307	0.872
Mof_H 	H 	0.3019	0.3338	0.3577	-0.741
Mof_C 	C 	0.2288	0.3732	0.3589	-0.511
Mof_H 	H 	0.2395	0.4017	0.3983	0.307
Mof_C 	C 	0.1756	0.3699	0.3289	0.246
Mof_C 	C 	0.1646	0.3334	0.2631	-0.44
Mof_H 	H 	0.1286	0.3331	0.2383	0.227
Mof_C 	C 	0.2039	0.2958	0.2296	0.726
Mof_C 	C 	0.1335	0.4068	0.3611	0.374
Mof_C 	C 	0.1767	0.2474	0.1455	1.374
Mof_F 	F 	0.1267	0.2677	0.13	-0.592
Mof_F 	F 	0.2133	0.2541	0.0809	-0.483
Mof_F 	F 	0.1778	0.1999	0.189	-0.531
Mof_H 	H 	0.195	0.2706	0.1837	-0.593
Mof_F 	F 	0.3254	0.3739	0.4501	-0.476
Mof_F 	F 	0.3321	0.283	0.4267	-0.506
Mof_F 	F 	0.3676	0.3425	0.3265	-0.501
Mof_C 	C 	0.3319	0.333	0.3912	1.529
Mof_O 	O 	0.85119	0.5551	0.4141	-0.575
Mof_O 	O 	0.9169	0.603	0.3385	-0.596
Mof_C 	C 	0.7444	0.7028	0.2663	-0.31
Mof_C 	C 	0.7334	0.6656	0.3307	0.916
Mof_H 	H 	0.6981	0.6662	0.3577	-0.763
Mof_C 	C 	0.7712	0.6268	0.3589	-0.552
Mof_H 	H 	0.7605	0.5983	0.3983	0.323
Mof_C 	C 	0.8244	0.6301	0.3289	0.316
Mof_C 	C 	0.8354	0.6666	0.2631	-0.485
Mof_H 	H 	0.8714	0.6669	0.2383	0.299
Mof_C 	C 	0.7961	0.7042	0.2296	0.792
Mof_C 	C 	0.8665	0.5932	0.3611	0.344
Mof_C 	C 	0.8233	0.7526	0.1455	1.408
Mof_F 	F 	0.8733	0.7323	0.13	-0.499
Mof_F 	F 	0.7867	0.7459	0.0809	-0.46
Mof_F 	F 	0.8222	0.8001	0.189	-0.454
Mof_H 	H 	0.805	0.7294	0.1837	-0.624
Mof_F 	F 	0.6746	0.6261	0.4501	-0.477
Mof_F 	F 	0.6679	0.717	0.4267	-0.5
Mof_F 	F 	0.6324	0.6575	0.3265	-0.501
Mof_C 	C 	0.6681	0.667	0.3912	1.547
Mof_O 	O 	0.5551	0.85119	0.9141	-0.565
Mof_O 	O 	0.603	0.9169	0.8385	-0.589
Mof_C 	C 	0.7028	0.7444	0.7663	-0.312
Mof_C 	C 	0.6656	0.7334	0.8307	0.923
Mof_H 	H 	0.6662	0.6981	0.8577	-0.765
Mof_C 	C 	0.6268	0.7712	0.8589	-0.555
Mof_H 	H 	0.5983	0.7605	0.8983	0.329
Mof_C 	C 	0.6301	0.8244	0.8289	0.323
Mof_C 	C 	0.6666	0.8354	0.7631	-0.488
Mof_H 	H 	0.6669	0.8714	0.7383	0.303
Mof_C 	C 	0.7042	0.7961	0.7296	0.798
Mof_C 	C 	0.5932	0.8665	0.8611	0.343
Mof_C 	C 	0.7526	0.8233	0.6455	1.411
Mof_F 	F 	0.7323	0.8733	0.63	-0.492
Mof_F 	F 	0.7459	0.7867	0.5809	-0.452
Mof_F 	F 	0.8001	0.8222	0.689	-0.45
Mof_H 	H 	0.7294	0.805	0.6837	-0.627
Mof_F 	F 	0.6261	0.6746	0.9501	-0.466
Mof_F 	F 	0.717	0.6679	0.9267	-0.493
Mof_F 	F 	0.6575	0.6324	0.8265	-0.498
Mof_C 	C 	0.667	0.6681	0.8912	1.55
Mof_O 	O 	0.4449	0.14881	0.9141	-0.579
Mof_O 	O 	0.397	0.0831	0.8385	-0.721
Mof_C 	C 	0.2972	0.2556	0.7663	-0.289
Mof_C 	C 	0.3344	0.2666	0.8307	0.879
Mof_H 	H 	0.3338	0.3019	0.8577	-0.744
Mof_C 	C 	0.3732	0.2288	0.8589	-0.515
Mof_H 	H 	0.4017	0.2395	0.8983	0.313
Mof_C 	C 	0.3699	0.1756	0.8289	0.254
Mof_C 	C 	0.3334	0.1646	0.7631	-0.444
Mof_H 	H 	0.3331	0.1286	0.7383	0.231
Mof_C 	C 	0.2958	0.2039	0.7296	0.732
Mof_C 	C 	0.4068	0.1335	0.8611	0.372
Mof_C 	C 	0.2474	0.1767	0.6455	1.377
Mof_F 	F 	0.2677	0.1267	0.63	-0.586
Mof_F 	F 	0.2541	0.2133	0.5809	-0.477
Mof_F 	F 	0.1999	0.1778	0.689	-0.528
Mof_H 	H 	0.2706	0.195	0.6837	-0.596
Mof_F 	F 	0.3739	0.3254	0.9501	-0.464
Mof_F 	F 	0.283	0.3321	0.9267	-0.498
Mof_F 	F 	0.3425	0.3676	0.8265	-0.498
Mof_C 	C 	0.333	0.3319	0.8912	1.532
Mof_O 	O 	0.14881	0.5551	0.4141	-0.59
Mof_O 	O 	0.0831	0.603	0.3385	-0.723
Mof_C 	C 	0.2556	0.7028	0.2663	-0.262
Mof_C 	C 	0.2666	0.6656	0.3307	0.853
Mof_H 	H 	0.3019	0.6662	0.3577	-0.73
Mof_C 	C 	0.2288	0.6268	0.3589	-0.499
Mof_H 	H 	0.2395	0.5983	0.3983	0.303
Mof_C 	C 	0.1756	0.6301	0.3289	0.242
Mof_C 	C 	0.1646	0.6666	0.2631	-0.431
Mof_H 	H 	0.1286	0.6669	0.2383	0.23
Mof_C 	C 	0.2039	0.7042	0.2296	0.716
Mof_C 	C 	0.1335	0.5932	0.3611	0.377
Mof_C 	C 	0.1767	0.7526	0.1455	1.377
Mof_F 	F 	0.1267	0.7323	0.13	-0.571
Mof_F 	F 	0.2133	0.7459	0.0809	-0.471
Mof_F 	F 	0.1778	0.8001	0.189	-0.491
Mof_H 	H 	0.195	0.7294	0.1837	-0.59
Mof_F 	F 	0.3254	0.6261	0.4501	-0.473
Mof_F 	F 	0.3321	0.717	0.4267	-0.496
Mof_F 	F 	0.3676	0.6575	0.3265	-0.497
Mof_C 	C 	0.3319	0.667	0.3912	1.522
Mof_O 	O 	0.85119	0.4449	0.4141	-0.576
Mof_O 	O 	0.9169	0.397	0.3385	-0.602
Mof_C 	C 	0.7444	0.2972	0.2663	-0.334
Mof_C 	C 	0.7334	0.3344	0.3307	0.935
Mof_H 	H 	0.6981	0.3338	0.3577	-0.773
Mof_C 	C 	0.7712	0.3732	0.3589	-0.564
Mof_H 	H 	0.7605	0.4017	0.3983	0.327
Mof_C 	C 	0.8244	0.3699	0.3289	0.32
Mof_C 	C 	0.8354	0.3334	0.2631	-0.495
Mof_H 	H 	0.8714	0.3331	0.2383	0.296
Mof_C 	C 	0.7961	0.2958	0.2296	0.802
Mof_C 	C 	0.8665	0.4068	0.3611	0.341
Mof_C 	C 	0.8233	0.2474	0.1455	1.405
Mof_F 	F 	0.8733	0.2677	0.13	-0.52
Mof_F 	F 	0.7867	0.2541	0.0809	-0.472
Mof_F 	F 	0.8222	0.1999	0.189	-0.493
Mof_H 	H 	0.805	0.2706	0.1837	-0.628
Mof_F 	F 	0.6746	0.3739	0.4501	-0.48
Mof_F 	F 	0.6679	0.283	0.4267	-0.509
Mof_F 	F 	0.6324	0.3425	0.3265	-0.505
Mof_C 	C 	0.6681	0.333	0.3912	1.555
Mof_O 	O 	0.4449	0.85119	0.0859	-0.583
Mof_O 	O 	0.397	0.9169	0.1615	-0.604
Mof_C 	C 	0.2972	0.7444	0.2337	-0.329
Mof_C 	C 	0.3344	0.7334	0.1693	0.927
Mof_H 	H 	0.3338	0.6981	0.1423	-0.769
Mof_C 	C 	0.3732	0.7712	0.1411	-0.559
Mof_H 	H 	0.4017	0.7605	0.1017	0.321
Mof_C 	C 	0.3699	0.8244	0.1711	0.314
Mof_C 	C 	0.3334	0.8354	0.2369	-0.491
Mof_H 	H 	0.3331	0.8714	0.2617	0.295
Mof_C 	C 	0.2958	0.7961	0.2704	0.798
Mof_C 	C 	0.4068	0.8665	0.1389	0.344
Mof_C 	C 	0.2474	0.8233	0.3545	1.404
Mof_F 	F 	0.2677	0.8733	0.37	-0.515
Mof_F 	F 	0.2541	0.7867	0.4191	-0.465
Mof_F 	F 	0.1999	0.8222	0.311	-0.492
Mof_H 	H 	0.2706	0.805	0.3163	-0.626
Mof_F 	F 	0.3739	0.6746	0.0499	-0.491
Mof_F 	F 	0.283	0.6679	0.0733	-0.517
Mof_F 	F 	0.3425	0.6324	0.1735	-0.506
Mof_C 	C 	0.333	0.6681	0.1088	1.551
Mof_O 	O 	0.5551	0.14881	0.0859	-0.596
Mof_O 	O 	0.603	0.0831	0.1615	-0.723
Mof_C 	C 	0.7028	0.2556	0.2337	-0.257
Mof_C 	C 	0.6656	0.2666	0.1693	0.846
Mof_H 	H 	0.6662	0.3019	0.1423	-0.727
Mof_C 	C 	0.6268	0.2288	0.1411	-0.494
Mof_H 	H 	0.5983	0.2395	0.1017	0.297
Mof_C 	C 	0.6301	0.1756	0.1711	0.237
Mof_C 	C 	0.6666	0.1646	0.2369	-0.427
Mof_H 	H 	0.6669	0.1286	0.2617	0.23
Mof_C 	C 	0.7042	0.2039	0.2704	0.713
Mof_C 	C 	0.5932	0.1335	0.1389	0.379
Mof_C 	C 	0.7526	0.1767	0.3545	1.377
Mof_F 	F 	0.7323	0.1267	0.37	-0.565
Mof_F 	F 	0.7459	0.2133	0.4191	-0.463
Mof_F 	F 	0.8001	0.1778	0.311	-0.489
Mof_H 	H 	0.7294	0.195	0.3163	-0.588
Mof_F 	F 	0.6261	0.3254	0.0499	-0.485
Mof_F 	F 	0.717	0.3321	0.0733	-0.504
Mof_F 	F 	0.6575	0.3676	0.1735	-0.498
Mof_C 	C 	0.667	0.3319	0.1088	1.519
Mof_O 	O 	0.85119	0.5551	0.5859	-0.575
Mof_O 	O 	0.9169	0.603	0.6615	-0.593
Mof_C 	C 	0.7444	0.7028	0.7337	-0.307
Mof_C 	C 	0.7334	0.6656	0.6693	0.915
Mof_H 	H 	0.6981	0.6662	0.6423	-0.762
Mof_C 	C 	0.7712	0.6268	0.6411	-0.551
Mof_H 	H 	0.7605	0.5983	0.6017	0.324
Mof_C 	C 	0.8244	0.6301	0.6711	0.318
Mof_C 	C 	0.8354	0.6666	0.7369	-0.484
Mof_H 	H 	0.8714	0.6669	0.7617	0.303
Mof_C 	C 	0.7961	0.7042	0.7704	0.794
Mof_C 	C 	0.8665	0.5932	0.6389	0.345
Mof_C 	C 	0.8233	0.7526	0.8545	1.41
Mof_F 	F 	0.8733	0.7323	0.87	-0.488
Mof_F 	F 	0.7867	0.7459	0.9191	-0.445
Mof_F 	F 	0.8222	0.8001	0.811	-0.449
Mof_H 	H 	0.805	0.7294	0.8163	-0.625
Mof_F 	F 	0.6746	0.6261	0.5499	-0.477
Mof_F 	F 	0.6679	0.717	0.5733	-0.5
Mof_F 	F 	0.6324	0.6575	0.6735	-0.499
Mof_C 	C 	0.6681	0.667	0.6088	1.547
Mof_O 	O 	0.14881	0.4449	0.5859	-0.589
Mof_O 	O 	0.0831	0.397	0.6615	-0.726
Mof_C 	C 	0.2556	0.2972	0.7337	-0.283
Mof_C 	C 	0.2666	0.3344	0.6693	0.871
Mof_H 	H 	0.3019	0.3338	0.6423	-0.74
Mof_C 	C 	0.2288	0.3732	0.6411	-0.51
Mof_H 	H 	0.2395	0.4017	0.6017	0.307
Mof_C 	C 	0.1756	0.3699	0.6711	0.248
Mof_C 	C 	0.1646	0.3334	0.7369	-0.44
Mof_H 	H 	0.1286	0.3331	0.7617	0.23
Mof_C 	C 	0.2039	0.2958	0.7704	0.728
Mof_C 	C 	0.1335	0.4068	0.6389	0.375
Mof_C 	C 	0.1767	0.2474	0.8545	1.376
Mof_F 	F 	0.1267	0.2677	0.87	-0.581
Mof_F 	F 	0.2133	0.2541	0.9191	-0.468
Mof_F 	F 	0.1778	0.1999	0.811	-0.525
Mof_H 	H 	0.195	0.2706	0.8163	-0.594
Mof_F 	F 	0.3254	0.3739	0.5499	-0.475
Mof_F 	F 	0.3321	0.283	0.5733	-0.505
Mof_F 	F 	0.3676	0.3425	0.6735	-0.499
Mof_C 	C 	0.3319	0.333	0.6088	1.529
Mof_Zr	Zr	0.5	0.10058	-0	3.212
Mof_Zr	Zr	0.5	0.89942	-0	3.21
Mof_Zr	Zr	0.89942	0.5	0.5	3.212
Mof_Zr	Zr	0.10058	0.5	0.5	3.214
Mof_Zr	Zr	0.42719	0	0.11608	3.152
Mof_Zr	Zr	0.57281	0	0.11608	3.152
Mof_Zr	Zr	-7.05291e-33	0.42719	0.61608	3.151
Mof_Zr	Zr	-7.05291e-33	0.57281	0.61608	3.152
Mof_Zr	Zr	0.57281	0	0.88392	3.154
Mof_Zr	Zr	0.42719	0	0.88392	3.153
Mof_Zr	Zr	-1.93298e-33	0.42719	0.38392	3.151
Mof_Zr	Zr	-1.93298e-33	0.57281	0.38392	3.152
Mof_O 	O 	0.4261	0.0501	-0	-1.397
Mof_O 	O 	0.5739	0.9499	-0	-1.225
Mof_O 	O 	0.9499	0.4261	0.5	-1.213
Mof_O 	O 	0.0501	0.5739	0.5	-1.382
Mof_O 	O 	0.5739	0.0501	-0	-1.392
Mof_O 	O 	0.4261	0.9499	-0	-1.229
Mof_O 	O 	0.0501	0.4261	0.5	-1.387
Mof_O 	O 	0.9499	0.5739	0.5	-1.208
Mof_O 	O 	0.5	0.0485	0.1144	-1.427
Mof_O 	O 	0.5	0.9515	0.1144	-1.249
Mof_O 	O 	0.9515	0.5	0.6144	-1.245
Mof_O 	O 	0.0485	0.5	0.6144	-1.426
Mof_O 	O 	0.5	0.0485	0.8856	-1.416
Mof_O 	O 	0.5	0.9515	0.8856	-1.238
Mof_O 	O 	0.0485	0.5	0.3856	-1.428
Mof_O 	O 	0.9515	0.5	0.3856	-1.247
_end
