data_functionalizedCrystal
_audit_creation_method	'EQeq! by Chris Wilmer'
_symmetry_space_group_name_H-M	'P1'
_symmetry_Int_Tables_number	1
_symmetry_cell_setting	triclinic
loop_
_symmetry_equiv_pos_as_xyz
  x,y,z
_cell_length_a	13.921
_cell_length_b	16.5104
_cell_length_c	18.994
_cell_angle_alpha	113.254
_cell_angle_beta	90
_cell_angle_gamma	114.934
loop_
_atom_site_label
_atom_site_type_symbol
_atom_site_fract_x
_atom_site_fract_y
_atom_site_fract_z
_atom_site_charge
Mof_Zn	Zn	0.08095	0.46952	0.89768	1.228
Mof_Zn	Zn	0.55865	0.43474	0.16064	1.208
Mof_Zn	Zn	0.61143	0.53048	0.60232	1.229
Mof_Zn	Zn	0.12391	0.56526	0.33936	1.209
Mof_Zn	Zn	0.91905	0.53048	0.10232	1.229
Mof_Zn	Zn	0.44135	0.56526	0.83936	1.209
Mof_Zn	Zn	0.38857	0.46952	0.39768	1.229
Mof_Zn	Zn	0.87609	0.43474	0.66064	1.209
Mof_H 	H 	0.4861	0.761	0.7165	0.016
Mof_H 	H 	0.3631	0.8248	0.7364	0.071
Mof_H 	H 	0.1823	0.7204	0.7131	0.033
Mof_H 	H 	0.1551	0.2626	0.696	0.016
Mof_H 	H 	0.1634	0.1752	0.5672	0.078
Mof_H 	H 	0.2206	0.2564	0.489	0.027
Mof_H 	H 	0.2105	0.6504	0.0439	-0.015
Mof_H 	H 	0.2941	0.8214	0.0889	0.115
Mof_H 	H 	0.1931	0.7852	0.8795	0.119
Mof_H 	H 	0.0982	0.6168	0.8426	-0.015
Mof_H 	H 	0.3387	0.2788	0.157	0.002
Mof_H 	H 	0.2469	0.1126	0.1215	0.111
Mof_H 	H 	0.5028	0.0826	0.0551	0.107
Mof_H 	H 	0.5976	0.2548	0.094	-0.016
Mof_H 	H 	0.7251	0.239	0.7835	0.016
Mof_H 	H 	0.5383	0.1752	0.7636	0.071
Mof_H 	H 	0.4619	0.2796	0.7869	0.033
Mof_H 	H 	0.8925	0.7374	0.804	0.016
Mof_H 	H 	0.9882	0.8248	0.9328	0.078
Mof_H 	H 	0.9642	0.7436	0.011	0.027
Mof_H 	H 	0.5601	0.3496	0.4561	-0.016
Mof_H 	H 	0.4727	0.1786	0.4111	0.116
Mof_H 	H 	0.4079	0.2148	0.6205	0.12
Mof_H 	H 	0.4814	0.3832	0.6574	-0.016
Mof_H 	H 	0.0599	0.7212	0.343	0.002
Mof_H 	H 	0.1343	0.8874	0.3785	0.111
Mof_H 	H 	0.4202	0.9174	0.4449	0.108
Mof_H 	H 	0.3428	0.7452	0.406	-0.016
Mof_H 	H 	0.5139	0.239	0.2835	0.016
Mof_H 	H 	0.6369	0.1752	0.2636	0.071
Mof_H 	H 	0.8177	0.2796	0.2869	0.033
Mof_H 	H 	0.8449	0.7374	0.304	0.016
Mof_H 	H 	0.8366	0.8248	0.4328	0.078
Mof_H 	H 	0.7794	0.7436	0.511	0.027
Mof_H 	H 	0.7895	0.3496	0.9561	-0.015
Mof_H 	H 	0.7059	0.1786	0.9111	0.115
Mof_H 	H 	0.8069	0.2148	0.1205	0.119
Mof_H 	H 	0.9018	0.3832	0.1574	-0.015
Mof_H 	H 	0.6613	0.7212	0.843	0.002
Mof_H 	H 	0.7531	0.8874	0.8785	0.111
Mof_H 	H 	0.4972	0.9174	0.9449	0.107
Mof_H 	H 	0.4024	0.7452	0.906	-0.016
Mof_H 	H 	0.2749	0.761	0.2165	0.016
Mof_H 	H 	0.4617	0.8248	0.2364	0.071
Mof_H 	H 	0.5381	0.7204	0.2131	0.033
Mof_H 	H 	0.1075	0.2626	0.196	0.016
Mof_H 	H 	0.0118	0.1752	0.0672	0.078
Mof_H 	H 	0.0358	0.2564	0.989	0.027
Mof_H 	H 	0.4399	0.6504	0.5439	-0.016
Mof_H 	H 	0.5273	0.8214	0.5889	0.116
Mof_H 	H 	0.5921	0.7852	0.3795	0.12
Mof_H 	H 	0.5186	0.6168	0.3426	-0.016
Mof_H 	H 	0.9401	0.2788	0.657	0.002
Mof_H 	H 	0.8657	0.1126	0.6215	0.111
Mof_H 	H 	0.5798	0.0826	0.5551	0.108
Mof_H 	H 	0.6572	0.2548	0.594	-0.016
Mof_C 	C 	0.4555	0.5778	0.681	0.371
Mof_C 	C 	0.38	0.6206	0.691	-0.156
Mof_C 	C 	0.4132	0.7192	0.7102	0.065
Mof_C 	C 	0.3392	0.7572	0.7204	-0.12
Mof_C 	C 	0.2316	0.695	0.7067	0.037
Mof_C 	C 	0.1943	0.5938	0.6834	-0.094
Mof_C 	C 	0.2668	0.5548	0.6755	0.065
Mof_C 	C 	0.0731	0.5292	0.6674	0.307
Mof_C 	C 	0.2032	0.4482	0.7771	0.394
Mof_C 	C 	0.2071	0.3946	0.6946	-0.157
Mof_C 	C 	0.178	0.2954	0.6644	0.076
Mof_C 	C 	0.182	0.2422	0.5867	-0.126
Mof_C 	C 	0.214	0.2904	0.5396	0.055
Mof_C 	C 	0.2365	0.3898	0.5669	-0.112
Mof_C 	C 	0.2347	0.4438	0.6458	0.084
Mof_C 	C 	0.2683	0.4356	0.5104	0.347
Mof_C 	C 	0.2047	0.6774	0.0104	0.127
Mof_C 	C 	0.2556	0.7804	0.0377	-0.216
Mof_C 	C 	0.2486	0.8202	0.9889	0.192
Mof_C 	C 	0.1948	0.7598	0.915	-0.227
Mof_C 	C 	0.1412	0.6582	0.8924	0.135
Mof_C 	C 	0.3735	0.2398	0.1366	0.111
Mof_C 	C 	0.3176	0.1398	0.1143	-0.207
Mof_C 	C 	0.3644	0.0804	0.082	0.176
Mof_C 	C 	0.4684	0.122	0.0754	-0.198
Mof_C 	C 	0.526	0.2264	0.0994	0.096
Mof_C 	C 	0.8777	0.4222	0.819	0.371
Mof_C 	C 	0.7594	0.3794	0.809	-0.156
Mof_C 	C 	0.694	0.2808	0.7898	0.065
Mof_C 	C 	0.582	0.2428	0.7796	-0.12
Mof_C 	C 	0.5366	0.305	0.7933	0.037
Mof_C 	C 	0.6005	0.4062	0.8166	-0.094
Mof_C 	C 	0.712	0.4452	0.8245	0.065
Mof_C 	C 	0.5439	0.4708	0.8326	0.307
Mof_C 	C 	0.755	0.5518	0.7229	0.394
Mof_C 	C 	0.8125	0.6054	0.8054	-0.157
Mof_C 	C 	0.8826	0.7046	0.8356	0.077
Mof_C 	C 	0.9398	0.7578	0.9133	-0.127
Mof_C 	C 	0.9236	0.7096	0.9604	0.055
Mof_C 	C 	0.8467	0.6102	0.9331	-0.113
Mof_C 	C 	0.7909	0.5562	0.8542	0.085
Mof_C 	C 	0.8327	0.5644	0.9896	0.348
Mof_C 	C 	0.5273	0.3226	0.4896	0.127
Mof_C 	C 	0.4752	0.2196	0.4623	-0.221
Mof_C 	C 	0.4284	0.1798	0.5111	0.197
Mof_C 	C 	0.435	0.2402	0.585	-0.23
Mof_C 	C 	0.483	0.3418	0.6076	0.137
Mof_C 	C 	0.1337	0.7602	0.3634	0.112
Mof_C 	C 	0.1778	0.8602	0.3857	-0.208
Mof_C 	C 	0.284	0.9196	0.418	0.179
Mof_C 	C 	0.3464	0.878	0.4246	-0.199
Mof_C 	C 	0.2996	0.7736	0.4006	0.097
Mof_C 	C 	0.5445	0.4222	0.319	0.371
Mof_C 	C 	0.62	0.3794	0.309	-0.156
Mof_C 	C 	0.5868	0.2808	0.2898	0.065
Mof_C 	C 	0.6608	0.2428	0.2796	-0.12
Mof_C 	C 	0.7684	0.305	0.2933	0.037
Mof_C 	C 	0.8057	0.4062	0.3166	-0.094
Mof_C 	C 	0.7332	0.4452	0.3245	0.065
Mof_C 	C 	0.9269	0.4708	0.3326	0.307
Mof_C 	C 	0.7968	0.5518	0.2229	0.394
Mof_C 	C 	0.7929	0.6054	0.3054	-0.157
Mof_C 	C 	0.822	0.7046	0.3356	0.076
Mof_C 	C 	0.818	0.7578	0.4133	-0.126
Mof_C 	C 	0.786	0.7096	0.4604	0.055
Mof_C 	C 	0.7635	0.6102	0.4331	-0.112
Mof_C 	C 	0.7653	0.5562	0.3542	0.084
Mof_C 	C 	0.7317	0.5644	0.4896	0.347
Mof_C 	C 	0.7953	0.3226	0.9896	0.127
Mof_C 	C 	0.7444	0.2196	0.9623	-0.216
Mof_C 	C 	0.7514	0.1798	0.0111	0.192
Mof_C 	C 	0.8052	0.2402	0.085	-0.227
Mof_C 	C 	0.8588	0.3418	0.1076	0.135
Mof_C 	C 	0.6265	0.7602	0.8634	0.111
Mof_C 	C 	0.6824	0.8602	0.8857	-0.207
Mof_C 	C 	0.6356	0.9196	0.918	0.176
Mof_C 	C 	0.5316	0.878	0.9246	-0.198
Mof_C 	C 	0.474	0.7736	0.9006	0.096
Mof_C 	C 	0.1223	0.5778	0.181	0.371
Mof_C 	C 	0.2406	0.6206	0.191	-0.156
Mof_C 	C 	0.306	0.7192	0.2102	0.065
Mof_C 	C 	0.418	0.7572	0.2204	-0.12
Mof_C 	C 	0.4634	0.695	0.2067	0.037
Mof_C 	C 	0.3995	0.5938	0.1834	-0.094
Mof_C 	C 	0.288	0.5548	0.1755	0.065
Mof_C 	C 	0.4561	0.5292	0.1674	0.307
Mof_C 	C 	0.245	0.4482	0.2771	0.394
Mof_C 	C 	0.1875	0.3946	0.1946	-0.157
Mof_C 	C 	0.1174	0.2954	0.1644	0.077
Mof_C 	C 	0.0602	0.2422	0.0867	-0.127
Mof_C 	C 	0.0764	0.2904	0.0396	0.055
Mof_C 	C 	0.1533	0.3898	0.0669	-0.113
Mof_C 	C 	0.2091	0.4438	0.1458	0.085
Mof_C 	C 	0.1673	0.4356	0.0104	0.348
Mof_C 	C 	0.4727	0.6774	0.5104	0.127
Mof_C 	C 	0.5248	0.7804	0.5377	-0.221
Mof_C 	C 	0.5716	0.8202	0.4889	0.197
Mof_C 	C 	0.565	0.7598	0.415	-0.23
Mof_C 	C 	0.517	0.6582	0.3924	0.137
Mof_C 	C 	0.8663	0.2398	0.6366	0.112
Mof_C 	C 	0.8222	0.1398	0.6143	-0.208
Mof_C 	C 	0.716	0.0804	0.582	0.179
Mof_C 	C 	0.6536	0.122	0.5754	-0.199
Mof_C 	C 	0.7004	0.2264	0.5994	0.097
Mof_N 	N 	0.14862	0.61752	0.93858	-0.288
Mof_N 	N 	0.30458	0.92446	0.00911	-0.099
Mof_N 	N 	0.3004	0.97506	0.06067	-0.092
Mof_N 	N 	0.47772	0.28414	0.12989	-0.267
Mof_N 	N 	0.5311	0.38248	0.56142	-0.288
Mof_N 	N 	0.38012	0.07554	0.49089	-0.101
Mof_N 	N 	0.32534	0.02494	0.43933	-0.093
Mof_N 	N 	0.19358	0.71586	0.37011	-0.268
Mof_N 	N 	0.85138	0.38248	0.06142	-0.288
Mof_N 	N 	0.69542	0.07554	0.99089	-0.099
Mof_N 	N 	0.6996	0.02494	0.93933	-0.092
Mof_N 	N 	0.52228	0.71586	0.87011	-0.267
Mof_N 	N 	0.4689	0.61752	0.43858	-0.288
Mof_N 	N 	0.61988	0.92446	0.50911	-0.101
Mof_N 	N 	0.67466	0.97506	0.56067	-0.093
Mof_N 	N 	0.80642	0.28414	0.62989	-0.268
Mof_O 	O 	0.51433	0.5904	0.63003	-0.445
Mof_O 	O 	0.46616	0.53644	0.72137	-0.437
Mof_O 	O 	0.28221	0.52974	0.82271	-0.492
Mof_O 	O 	0.11842	0.40438	0.79958	-0.458
Mof_O 	O 	0.01114	0.5706	0.6815	-0.395
Mof_O 	O 	0.0342	0.43762	0.64185	-0.375
Mof_O 	O 	0.22329	0.48596	0.50524	-0.3
Mof_O 	O 	0.33453	0.41556	0.47097	-0.464
Mof_O 	O 	0.92393	0.4096	0.86997	-0.444
Mof_O 	O 	0.92972	0.46356	0.77863	-0.437
Mof_O 	O 	0.75247	0.47026	0.67729	-0.492
Mof_O 	O 	0.71404	0.59562	0.70042	-0.458
Mof_O 	O 	0.44054	0.4294	0.8185	-0.395
Mof_O 	O 	0.59658	0.56238	0.85815	-0.374
Mof_O 	O 	0.73733	0.51404	0.99476	-0.3
Mof_O 	O 	0.91897	0.58444	0.02903	-0.465
Mof_O 	O 	0.48567	0.4096	0.36997	-0.445
Mof_O 	O 	0.53384	0.46356	0.27863	-0.437
Mof_O 	O 	0.71779	0.47026	0.17729	-0.492
Mof_O 	O 	0.88158	0.59562	0.20042	-0.458
Mof_O 	O 	0.98886	0.4294	0.3185	-0.395
Mof_O 	O 	0.9658	0.56238	0.35815	-0.375
Mof_O 	O 	0.77671	0.51404	0.49476	-0.3
Mof_O 	O 	0.66547	0.58444	0.52903	-0.464
Mof_O 	O 	0.07607	0.5904	0.13003	-0.444
Mof_O 	O 	0.07028	0.53644	0.22137	-0.437
Mof_O 	O 	0.24753	0.52974	0.32271	-0.492
Mof_O 	O 	0.28596	0.40438	0.29958	-0.458
Mof_O 	O 	0.55946	0.5706	0.1815	-0.395
Mof_O 	O 	0.40342	0.43762	0.14185	-0.374
Mof_O 	O 	0.26267	0.48596	0.00524	-0.3
Mof_O 	O 	0.08103	0.41556	0.97097	-0.465
_end
