data_functionalizedCrystal
_audit_creation_method	'EQeq! by Chris Wilmer'
_symmetry_space_group_name_H-M	'P1'
_symmetry_Int_Tables_number	1
_symmetry_cell_setting	triclinic
loop_
_symmetry_equiv_pos_as_xyz
  x,y,z
_cell_length_a	8.2728
_cell_length_b	8.2728
_cell_length_c	15.249
_cell_angle_alpha	88.8199
_cell_angle_beta	88.8199
_cell_angle_gamma	86.4734
loop_
_atom_site_label
_atom_site_type_symbol
_atom_site_fract_x
_atom_site_fract_y
_atom_site_fract_z
_atom_site_charge
Mof_Cd	Cd	0.5	0	0.5	0.304
Mof_Cd	Cd	-0	0.5	-0	0.281
Mof_Cd	Cd	0.48895	0.51105	0.25	0.265
Mof_Cd	Cd	0.51105	0.48895	0.75	0.271
Mof_C 	C 	0.48	0.7182	0.339	-0.003
Mof_C 	C 	0.4948	0.2992	0.3412	-0.013
Mof_C 	C 	0.2818	0.52	0.161	-0.018
Mof_C 	C 	0.7008	0.5052	0.1588	-0.005
Mof_C 	C 	0.52	0.2818	0.661	-0.012
Mof_C 	C 	0.5052	0.7008	0.6588	0.003
Mof_C 	C 	0.7182	0.48	0.839	0.003
Mof_C 	C 	0.2992	0.4948	0.8412	-0.005
Mof_N 	N 	0.4757	0.8121	0.392	-0.128
Mof_N 	N 	0.5003	0.1999	0.3926	-0.143
Mof_N 	N 	0.1879	0.5243	0.108	-0.144
Mof_N 	N 	0.8001	0.4997	0.1074	-0.132
Mof_N 	N 	0.5243	0.1879	0.608	-0.142
Mof_N 	N 	0.4997	0.8001	0.6074	-0.129
Mof_N 	N 	0.8121	0.4757	0.892	-0.12
Mof_N 	N 	0.1999	0.5003	0.8926	-0.133
_end
