data_functionalizedCrystal
_audit_creation_method	'EQeq! by Chris Wilmer'
_symmetry_space_group_name_H-M	'P1'
_symmetry_Int_Tables_number	1
_symmetry_cell_setting	triclinic
loop_
_symmetry_equiv_pos_as_xyz
  x,y,z
_cell_length_a	19.1912
_cell_length_b	9.347
_cell_length_c	9.6375
_cell_angle_alpha	90
_cell_angle_beta	92.709
_cell_angle_gamma	90
loop_
_atom_site_label
_atom_site_type_symbol
_atom_site_fract_x
_atom_site_fract_y
_atom_site_fract_z
_atom_site_charge
Mof_P 	P 	0.8334	0.1508	0.5289	1.572
Mof_P 	P 	0.952	0.8448	0.2165	1.195
Mof_P 	P 	0.5808	0.9064	0.4005	1.339
Mof_P 	P 	0.605	0.1568	0.7802	1.293
Mof_Al	Al	0.9441	0.9195	0.5192	5.718
Mof_Al	Al	0.9183	0.1572	0.2725	6.743
Mof_Al	Al	0.6746	0.1554	0.4891	6.424
Mof_Al	Al	0.466	0.1392	0.2853	5.174
Mof_O 	O 	0.8706	0.0152	0.58	-1.62
Mof_O 	O 	0.8391	0.1782	0.3722	-1.766
Mof_O 	O 	0.7575	0.1453	0.559	-1.927
Mof_O 	O 	0.8653	0.2756	0.6154	-1.607
Mof_O 	O 	0.9149	0.8183	0.3533	-1.438
Mof_O 	O 	0.9113	0.7452	0.1162	-1.339
Mof_O 	O 	0.0309	0.82	0.2357	-1.864
Mof_O 	O 	0.9347	0.999	0.1699	-1.758
Mof_O 	O 	0.5133	0.9857	0.3641	-1.527
Mof_O 	O 	0.5727	0.8331	0.5405	-1.359
Mof_O 	O 	0.59	0.7855	0.293	-1.333
Mof_O 	O 	0.6502	0.9904	0.4133	-1.844
Mof_O 	O 	0.5388	0.2281	0.8271	-1.532
Mof_O 	O 	0.6209	0.196	0.6283	-1.853
Mof_O 	O 	0.6016	0.9919	0.7895	-1.341
Mof_O 	O 	0.6714	0.1999	0.8701	-1.778
Mof_O 	O 	0.9692	0.0813	0.4208	-3.597
Mof_P 	P 	0.1666	0.6508	0.9711	1.571
Mof_P 	P 	0.048	0.3448	0.2835	1.209
Mof_P 	P 	0.4192	0.4064	0.0995	1.342
Mof_P 	P 	0.395	0.6568	0.7198	1.292
Mof_Al	Al	0.0559	0.4195	0.9808	5.72
Mof_Al	Al	0.0817	0.6572	0.2275	6.734
Mof_Al	Al	0.3254	0.6554	0.0109	6.466
Mof_Al	Al	0.534	0.6392	0.2147	5.179
Mof_O 	O 	0.1294	0.5152	0.92	-1.626
Mof_O 	O 	0.1609	0.6782	0.1278	-1.758
Mof_O 	O 	0.2425	0.6453	0.941	-1.938
Mof_O 	O 	0.1347	0.7756	0.8846	-1.609
Mof_O 	O 	0.0851	0.3183	0.1467	-1.433
Mof_O 	O 	0.0887	0.2452	0.3838	-1.34
Mof_O 	O 	0.9691	0.32	0.2643	-1.881
Mof_O 	O 	0.0653	0.499	0.3301	-1.748
Mof_O 	O 	0.4867	0.4857	0.1359	-1.528
Mof_O 	O 	0.4273	0.3331	0.9595	-1.357
Mof_O 	O 	0.41	0.2855	0.207	-1.333
Mof_O 	O 	0.3498	0.4904	0.0867	-1.847
Mof_O 	O 	0.4612	0.7281	0.6729	-1.532
Mof_O 	O 	0.3791	0.696	0.8717	-1.862
Mof_O 	O 	0.3984	0.4919	0.7105	-1.336
Mof_O 	O 	0.3286	0.6999	0.6299	-1.772
Mof_O 	O 	0.0308	0.5813	0.0792	-3.59
Mof_P 	P 	0.1666	0.8492	0.4711	1.573
Mof_P 	P 	0.048	0.1552	0.7835	1.196
Mof_P 	P 	0.4192	0.0936	0.5995	1.34
Mof_P 	P 	0.395	0.8432	0.2198	1.294
Mof_Al	Al	0.0559	0.0805	0.4808	5.718
Mof_Al	Al	0.0817	0.8428	0.7275	6.743
Mof_Al	Al	0.3254	0.8446	0.5109	6.424
Mof_Al	Al	0.534	0.8608	0.7147	5.174
Mof_O 	O 	0.1294	0.9848	0.42	-1.62
Mof_O 	O 	0.1609	0.8218	0.6278	-1.766
Mof_O 	O 	0.2425	0.8547	0.441	-1.927
Mof_O 	O 	0.1347	0.7244	0.3846	-1.607
Mof_O 	O 	0.0851	0.1817	0.6467	-1.438
Mof_O 	O 	0.0887	0.2548	0.8838	-1.339
Mof_O 	O 	0.9691	0.18	0.7643	-1.864
Mof_O 	O 	0.0653	0.001	0.8301	-1.758
Mof_O 	O 	0.4867	0.0143	0.6359	-1.527
Mof_O 	O 	0.4273	0.1669	0.4595	-1.359
Mof_O 	O 	0.41	0.2145	0.707	-1.333
Mof_O 	O 	0.3498	0.0096	0.5867	-1.844
Mof_O 	O 	0.4612	0.7719	0.1729	-1.532
Mof_O 	O 	0.3791	0.804	0.3717	-1.853
Mof_O 	O 	0.3984	0.0081	0.2105	-1.341
Mof_O 	O 	0.3286	0.8001	0.1299	-1.778
Mof_O 	O 	0.0308	0.9187	0.5792	-3.597
Mof_P 	P 	0.8334	0.3492	0.0289	1.571
Mof_P 	P 	0.952	0.6552	0.7165	1.209
Mof_P 	P 	0.5808	0.5936	0.9005	1.342
Mof_P 	P 	0.605	0.3432	0.2802	1.292
Mof_Al	Al	0.9441	0.5805	0.0192	5.72
Mof_Al	Al	0.9183	0.3428	0.7725	6.734
Mof_Al	Al	0.6746	0.3446	0.9891	6.466
Mof_Al	Al	0.466	0.3608	0.7853	5.179
Mof_O 	O 	0.8706	0.4848	0.08	-1.626
Mof_O 	O 	0.8391	0.3218	0.8722	-1.758
Mof_O 	O 	0.7575	0.3547	0.059	-1.938
Mof_O 	O 	0.8653	0.2244	0.1154	-1.609
Mof_O 	O 	0.9149	0.6817	0.8533	-1.433
Mof_O 	O 	0.9113	0.7548	0.6162	-1.34
Mof_O 	O 	0.0309	0.68	0.7357	-1.881
Mof_O 	O 	0.9347	0.501	0.6699	-1.748
Mof_O 	O 	0.5133	0.5143	0.8641	-1.528
Mof_O 	O 	0.5727	0.6669	0.0405	-1.357
Mof_O 	O 	0.59	0.7145	0.793	-1.333
Mof_O 	O 	0.6502	0.5096	0.9133	-1.847
Mof_O 	O 	0.5388	0.2719	0.3271	-1.532
Mof_O 	O 	0.6209	0.304	0.1283	-1.862
Mof_O 	O 	0.6016	0.5081	0.2895	-1.336
Mof_O 	O 	0.6714	0.3001	0.3701	-1.772
Mof_O 	O 	0.9692	0.4187	0.9208	-3.59
_end
