data_functionalizedCrystal
_audit_creation_method	'EQeq! by Chris Wilmer'
_symmetry_space_group_name_H-M	'P1'
_symmetry_Int_Tables_number	1
_symmetry_cell_setting	triclinic
loop_
_symmetry_equiv_pos_as_xyz
  x,y,z
_cell_length_a	6.8953
_cell_length_b	10.1226
_cell_length_c	20.2406
_cell_angle_alpha	92.703
_cell_angle_beta	90
_cell_angle_gamma	109.913
loop_
_atom_site_label
_atom_site_type_symbol
_atom_site_fract_x
_atom_site_fract_y
_atom_site_fract_z
_atom_site_charge
Mof_Sr	Sr	0.90512	0.15664	0.31859	1.432
Mof_Sr	Sr	0.74848	0.84336	0.1814	1.234
Mof_Sr	Sr	0.09488	0.84336	0.6814	1.184
Mof_Sr	Sr	0.5	0.5	-0	1.049
Mof_Sr	Sr	4.82043e-17	0.5	0.5	1.109
Mof_Sr	Sr	0.25152	0.15664	0.81859	1.386
Mof_H 	H 	0.9234	0.4588	0.0986	0.062
Mof_H 	H 	0.9606	0.2952	0.7346	0.017
Mof_H 	H 	0.8584	0.0388	0.7185	0.239
Mof_H 	H 	0.0394	0.7048	0.2654	0.081
Mof_H 	H 	0.6654	0.7048	0.7654	0.065
Mof_H 	H 	0.5354	0.4588	0.5986	0.051
Mof_H 	H 	0.1416	0.9612	0.2815	0.159
Mof_H 	H 	0.1804	0.0388	0.2185	0.231
Mof_H 	H 	0.8196	0.9612	0.7815	0.166
Mof_H 	H 	0.4646	0.5412	0.4014	0.047
Mof_H 	H 	0.3346	0.2952	0.2346	0.058
Mof_H 	H 	0.0766	0.5412	0.9014	0.031
Mof_C 	C 	0.01401	0.39042	0.82595	0.056
Mof_C 	C 	0.16293	0.79006	0.84788	0.332
Mof_C 	C 	0.46135	0.5023	0.22196	0.008
Mof_C 	C 	0.45951	0.52682	0.35631	-0.161
Mof_C 	C 	0.06731	0.52682	0.85631	-0.093
Mof_C 	C 	0.98599	0.60958	0.17405	0.272
Mof_C 	C 	0.97023	0.50266	0.35232	0.335
Mof_C 	C 	0.04095	0.5023	0.72196	-0.07
Mof_C 	C 	0.53243	0.50266	0.85232	0.312
Mof_C 	C 	0.4648	0.3586	0.68236	0.004
Mof_C 	C 	0.83707	0.20994	0.15212	0.311
Mof_C 	C 	0.46757	0.49734	0.14768	0.313
Mof_C 	C 	0.93269	0.47318	0.14369	-0.202
Mof_C 	C 	0.99905	0.3823	0.75685	-0.014
Mof_C 	C 	0.5352	0.6414	0.31764	-0.006
Mof_C 	C 	0.54049	0.47318	0.64369	-0.164
Mof_C 	C 	0.62359	0.60958	0.67405	0.205
Mof_C 	C 	0.53865	0.4977	0.77804	0.017
Mof_C 	C 	0.95905	0.4977	0.27804	0.049
Mof_C 	C 	0.62713	0.79006	0.34788	0.328
Mof_C 	C 	0.38325	0.3823	0.25685	-0.182
Mof_C 	C 	0.37641	0.39042	0.32595	0.192
Mof_C 	C 	0.61675	0.6177	0.74315	-0.178
Mof_C 	C 	0.8938	0.3586	0.18236	0.021
Mof_C 	C 	0.00095	0.6177	0.24315	-0.265
Mof_C 	C 	0.1062	0.6414	0.81764	-0.039
Mof_C 	C 	0.37287	0.20994	0.65212	0.311
Mof_C 	C 	0.02977	0.49734	0.64768	0.288
Mof_N 	N 	0.90541	0.36802	0.24865	-0.204
Mof_N 	N 	0.09459	0.63198	0.75135	-0.168
Mof_N 	N 	0.53739	0.63198	0.25135	-0.186
Mof_N 	N 	0.46261	0.36802	0.74865	-0.195
Mof_O 	O 	0.37104	0.19248	0.59021	-0.327
Mof_O 	O 	0.69882	0.88704	0.30878	-0.544
Mof_O 	O 	0.0977	0	0.25	-0.646
Mof_O 	O 	0.62896	0.80752	0.40979	-0.363
Mof_O 	O 	0.54416	0.61232	0.12008	-0.521
Mof_O 	O 	0.81178	0.11296	0.19122	-0.485
Mof_O 	O 	0.82144	0.19248	0.09021	-0.334
Mof_O 	O 	0.17856	0.80752	0.90979	-0.351
Mof_O 	O 	0.93184	0.38768	0.37992	-0.52
Mof_O 	O 	0.017	0.6178	0.3843	-0.424
Mof_O 	O 	0.45584	0.38768	0.87992	-0.499
Mof_O 	O 	0.9023	0	0.75	-0.613
Mof_O 	O 	0.29249	0.27778	0.35977	-0.399
Mof_O 	O 	0.6008	0.6178	0.8843	-0.368
Mof_O 	O 	0.30118	0.11296	0.69122	-0.484
Mof_O 	O 	0.18822	0.88704	0.80878	-0.544
Mof_O 	O 	0.06816	0.61232	0.62008	-0.518
Mof_O 	O 	0.983	0.3822	0.6157	-0.348
Mof_O 	O 	0.98529	0.27778	0.85977	-0.311
Mof_O 	O 	0.70751	0.72222	0.64023	-0.387
Mof_O 	O 	0.3992	0.3822	0.1157	-0.397
Mof_O 	O 	0.01471	0.72222	0.14023	-0.445
_end
