data_functionalizedCrystal
_audit_creation_method	'EQeq! by Chris Wilmer'
_symmetry_space_group_name_H-M	'P1'
_symmetry_Int_Tables_number	1
_symmetry_cell_setting	triclinic
loop_
_symmetry_equiv_pos_as_xyz
  x,y,z
_cell_length_a	26.166
_cell_length_b	26.166
_cell_length_c	6.8595
_cell_angle_alpha	90
_cell_angle_beta	90
_cell_angle_gamma	120
loop_
_atom_site_label
_atom_site_type_symbol
_atom_site_fract_x
_atom_site_fract_y
_atom_site_fract_z
_atom_site_charge
Mof_Fe	Fe	0.38189	0.35205	0.1437	0.818
Mof_O 	O 	0.32786	0.29573	0.3676	-0.453
Mof_O 	O 	0.30104	0.22715	0.6019	-0.38
Mof_O 	O 	0.35497	0.2738	0.0084	-0.411
Mof_C 	C 	0.3193	0.2463	0.4292	0.385
Mof_C 	C 	0.32747	0.20628	0.2887	-0.153
Mof_C 	C 	0.3438	0.22133	0.0924	0.193
Mof_C 	C 	0.3506	0.18166	0.9728	-0.073
Mof_H 	H 	0.3619	0.19304	0.8288	0.072
Mof_Fe	Fe	0.04856	0.68538	0.47703	0.819
Mof_O 	O 	0.99453	0.62906	0.70093	-0.452
Mof_O 	O 	0.96771	0.56048	0.93523	-0.38
Mof_O 	O 	0.02164	0.60713	0.34173	-0.411
Mof_C 	C 	0.98597	0.57963	0.76253	0.385
Mof_C 	C 	0.99414	0.53961	0.62203	-0.153
Mof_C 	C 	0.01047	0.55466	0.42573	0.193
Mof_C 	C 	0.01727	0.51499	0.30613	-0.073
Mof_H 	H 	0.02857	0.52637	0.16213	0.072
Mof_Fe	Fe	0.71522	0.01872	0.81037	0.819
Mof_O 	O 	0.66119	0.9624	0.03427	-0.452
Mof_O 	O 	0.63437	0.89382	0.26857	-0.38
Mof_O 	O 	0.6883	0.94047	0.67507	-0.411
Mof_C 	C 	0.65263	0.91297	0.09587	0.386
Mof_C 	C 	0.6608	0.87295	0.95537	-0.153
Mof_C 	C 	0.67713	0.888	0.75907	0.193
Mof_C 	C 	0.68393	0.84833	0.63947	-0.073
Mof_H 	H 	0.69523	0.85971	0.49547	0.072
Mof_Fe	Fe	0.64795	0.02984	0.1437	0.819
Mof_O 	O 	0.70427	0.03213	0.3676	-0.452
Mof_O 	O 	0.77285	0.07389	0.6019	-0.38
Mof_O 	O 	0.7262	0.08117	0.0084	-0.411
Mof_C 	C 	0.7537	0.073	0.4292	0.385
Mof_C 	C 	0.79372	0.12119	0.2887	-0.152
Mof_C 	C 	0.77867	0.12247	0.0924	0.192
Mof_C 	C 	0.81834	0.16894	0.9728	-0.072
Mof_H 	H 	0.80696	0.16886	0.8288	0.072
Mof_Fe	Fe	0.31462	0.36317	0.47703	0.819
Mof_O 	O 	0.37094	0.36546	0.70093	-0.452
Mof_O 	O 	0.43952	0.40722	0.93523	-0.38
Mof_O 	O 	0.39287	0.4145	0.34173	-0.411
Mof_C 	C 	0.42037	0.40633	0.76253	0.385
Mof_C 	C 	0.46039	0.45452	0.62203	-0.153
Mof_C 	C 	0.44534	0.4558	0.42573	0.193
Mof_C 	C 	0.48501	0.50227	0.30613	-0.073
Mof_H 	H 	0.47363	0.50219	0.16213	0.072
Mof_Fe	Fe	0.98128	0.69651	0.81037	0.819
Mof_O 	O 	0.0376	0.6988	0.03427	-0.452
Mof_O 	O 	0.10618	0.74056	0.26857	-0.38
Mof_O 	O 	0.05953	0.74784	0.67507	-0.411
Mof_C 	C 	0.08703	0.73967	0.09587	0.386
Mof_C 	C 	0.12705	0.78786	0.95537	-0.154
Mof_C 	C 	0.112	0.78914	0.75907	0.193
Mof_C 	C 	0.15167	0.83561	0.63947	-0.073
Mof_H 	H 	0.14029	0.83553	0.49547	0.072
Mof_Fe	Fe	0.97016	0.61811	0.1437	0.818
Mof_O 	O 	0.96787	0.67214	0.3676	-0.452
Mof_O 	O 	0.92611	0.69896	0.6019	-0.38
Mof_O 	O 	0.91883	0.64503	0.0084	-0.411
Mof_C 	C 	0.927	0.6807	0.4292	0.385
Mof_C 	C 	0.87881	0.67253	0.2887	-0.153
Mof_C 	C 	0.87753	0.6562	0.0924	0.193
Mof_C 	C 	0.83106	0.6494	0.9728	-0.073
Mof_H 	H 	0.83114	0.6381	0.8288	0.072
Mof_Fe	Fe	0.63683	0.95144	0.47703	0.819
Mof_O 	O 	0.63454	0.00547	0.70093	-0.452
Mof_O 	O 	0.59278	0.03229	0.93523	-0.38
Mof_O 	O 	0.5855	0.97836	0.34173	-0.411
Mof_C 	C 	0.59367	0.01403	0.76253	0.385
Mof_C 	C 	0.54548	0.00586	0.62203	-0.153
Mof_C 	C 	0.5442	0.98953	0.42573	0.193
Mof_C 	C 	0.49773	0.98273	0.30613	-0.073
Mof_H 	H 	0.49781	0.97143	0.16213	0.072
Mof_Fe	Fe	0.30349	0.28478	0.81037	0.819
Mof_O 	O 	0.3012	0.33881	0.03427	-0.452
Mof_O 	O 	0.25944	0.36563	0.26857	-0.38
Mof_O 	O 	0.25216	0.3117	0.67507	-0.411
Mof_C 	C 	0.26033	0.34737	0.09587	0.385
Mof_C 	C 	0.21214	0.3392	0.95537	-0.153
Mof_C 	C 	0.21086	0.32287	0.75907	0.193
Mof_C 	C 	0.16439	0.31607	0.63947	-0.073
Mof_H 	H 	0.16447	0.30477	0.49547	0.072
Mof_Fe	Fe	0.61811	0.64795	0.8563	0.819
Mof_O 	O 	0.67214	0.70427	0.6324	-0.452
Mof_O 	O 	0.69896	0.77285	0.3981	-0.38
Mof_O 	O 	0.64503	0.7262	0.9916	-0.411
Mof_C 	C 	0.6807	0.7537	0.5708	0.385
Mof_C 	C 	0.67253	0.79372	0.7113	-0.153
Mof_C 	C 	0.6562	0.77867	0.9076	0.193
Mof_C 	C 	0.6494	0.81834	0.0272	-0.073
Mof_H 	H 	0.6381	0.80696	0.1712	0.072
Mof_Fe	Fe	0.28478	0.98128	0.18963	0.819
Mof_O 	O 	0.33881	0.0376	0.96573	-0.452
Mof_O 	O 	0.36563	0.10618	0.73143	-0.38
Mof_O 	O 	0.3117	0.05953	0.32493	-0.411
Mof_C 	C 	0.34737	0.08703	0.90413	0.386
Mof_C 	C 	0.3392	0.12705	0.04463	-0.153
Mof_C 	C 	0.32287	0.112	0.24093	0.193
Mof_C 	C 	0.31607	0.15167	0.36053	-0.073
Mof_H 	H 	0.30477	0.14029	0.50453	0.072
Mof_Fe	Fe	0.95144	0.31462	0.52297	0.819
Mof_O 	O 	0.00547	0.37094	0.29907	-0.452
Mof_O 	O 	0.03229	0.43952	0.06477	-0.38
Mof_O 	O 	0.97836	0.39287	0.65827	-0.411
Mof_C 	C 	0.01403	0.42037	0.23747	0.385
Mof_C 	C 	0.00586	0.46039	0.37797	-0.153
Mof_C 	C 	0.98953	0.44534	0.57427	0.193
Mof_C 	C 	0.98273	0.48501	0.69387	-0.073
Mof_H 	H 	0.97143	0.47363	0.83787	0.072
Mof_Fe	Fe	0.35205	0.97016	0.8563	0.819
Mof_O 	O 	0.29573	0.96787	0.6324	-0.452
Mof_O 	O 	0.22715	0.92611	0.3981	-0.38
Mof_O 	O 	0.2738	0.91883	0.9916	-0.411
Mof_C 	C 	0.2463	0.927	0.5708	0.385
Mof_C 	C 	0.20628	0.87881	0.7113	-0.152
Mof_C 	C 	0.22133	0.87753	0.9076	0.192
Mof_C 	C 	0.18166	0.83106	0.0272	-0.072
Mof_H 	H 	0.19304	0.83114	0.1712	0.072
Mof_Fe	Fe	0.01872	0.30349	0.18963	0.819
Mof_O 	O 	0.9624	0.3012	0.96573	-0.452
Mof_O 	O 	0.89382	0.25944	0.73143	-0.38
Mof_O 	O 	0.94047	0.25216	0.32493	-0.411
Mof_C 	C 	0.91297	0.26033	0.90413	0.386
Mof_C 	C 	0.87295	0.21214	0.04463	-0.154
Mof_C 	C 	0.888	0.21086	0.24093	0.193
Mof_C 	C 	0.84833	0.16439	0.36053	-0.073
Mof_H 	H 	0.85971	0.16447	0.50453	0.072
Mof_Fe	Fe	0.68538	0.63683	0.52297	0.819
Mof_O 	O 	0.62906	0.63454	0.29907	-0.452
Mof_O 	O 	0.56048	0.59278	0.06477	-0.38
Mof_O 	O 	0.60713	0.5855	0.65827	-0.411
Mof_C 	C 	0.57963	0.59367	0.23747	0.385
Mof_C 	C 	0.53961	0.54548	0.37797	-0.153
Mof_C 	C 	0.55466	0.5442	0.57427	0.193
Mof_C 	C 	0.51499	0.49773	0.69387	-0.073
Mof_H 	H 	0.52637	0.49781	0.83787	0.072
Mof_Fe	Fe	0.02984	0.38189	0.8563	0.818
Mof_O 	O 	0.03213	0.32786	0.6324	-0.452
Mof_O 	O 	0.07389	0.30104	0.3981	-0.38
Mof_O 	O 	0.08117	0.35497	0.9916	-0.411
Mof_C 	C 	0.073	0.3193	0.5708	0.385
Mof_C 	C 	0.12119	0.32747	0.7113	-0.153
Mof_C 	C 	0.12247	0.3438	0.9076	0.193
Mof_C 	C 	0.16894	0.3506	0.0272	-0.073
Mof_H 	H 	0.16886	0.3619	0.1712	0.072
Mof_Fe	Fe	0.69651	0.71522	0.18963	0.819
Mof_O 	O 	0.6988	0.66119	0.96573	-0.452
Mof_O 	O 	0.74056	0.63437	0.73143	-0.38
Mof_O 	O 	0.74784	0.6883	0.32493	-0.411
Mof_C 	C 	0.73967	0.65263	0.90413	0.385
Mof_C 	C 	0.78786	0.6608	0.04463	-0.153
Mof_C 	C 	0.78914	0.67713	0.24093	0.193
Mof_C 	C 	0.83561	0.68393	0.36053	-0.073
Mof_H 	H 	0.83553	0.69523	0.50453	0.072
Mof_Fe	Fe	0.36317	0.04856	0.52297	0.819
Mof_O 	O 	0.36546	0.99453	0.29907	-0.452
Mof_O 	O 	0.40722	0.96771	0.06477	-0.38
Mof_O 	O 	0.4145	0.02164	0.65827	-0.411
Mof_C 	C 	0.40633	0.98597	0.23747	0.385
Mof_C 	C 	0.45452	0.99414	0.37797	-0.153
Mof_C 	C 	0.4558	0.01047	0.57427	0.193
Mof_C 	C 	0.50227	0.01727	0.69387	-0.073
Mof_H 	H 	0.50219	0.02857	0.83787	0.072
_end
