data_functionalizedCrystal
_audit_creation_method	'EQeq! by Chris Wilmer'
_symmetry_space_group_name_H-M	'P1'
_symmetry_Int_Tables_number	1
_symmetry_cell_setting	triclinic
loop_
_symmetry_equiv_pos_as_xyz
  x,y,z
_cell_length_a	15.2978
_cell_length_b	15.5927
_cell_length_c	22.148
_cell_angle_alpha	88.841
_cell_angle_beta	86.538
_cell_angle_gamma	62.085
loop_
_atom_site_label
_atom_site_type_symbol
_atom_site_fract_x
_atom_site_fract_y
_atom_site_fract_z
_atom_site_charge
Mof_H 	H 	0.6762	0.2139	0.9322	0.158
Mof_H 	H 	0.495	0.3678	0.8364	0.414
Mof_H 	H 	0.4931	0.3987	0.9028	0.417
Mof_H 	H 	0.5149	0.2935	0.8881	0.406
Mof_H 	H 	0.6252	0.4084	0.7975	0.17
Mof_H 	H 	0.7916	0.3624	0.7864	-0.046
Mof_H 	H 	0.9033	0.2445	0.8489	0.111
Mof_H 	H 	0.0934	0.8841	0.7989	0.131
Mof_H 	H 	0.1123	0.8598	0.6885	0.369
Mof_H 	H 	0.0939	0.7802	0.6596	0.386
Mof_H 	H 	0.1919	0.7517	0.6907	0.362
Mof_H 	H 	0.0424	0.6804	0.7217	0.17
Mof_H 	H 	0.9754	0.6575	0.8142	-0.036
Mof_H 	H 	0.9665	0.7476	0.8992	0.109
Mof_H 	H 	0.9559	0.4527	0.8633	0.152
Mof_H 	H 	0.8122	0.5167	0.938	0.369
Mof_H 	H 	0.7569	0.4691	0.9074	0.382
Mof_H 	H 	0.7062	0.5807	0.9168	0.368
Mof_H 	H 	0.6784	0.6204	0.8095	0.146
Mof_H 	H 	0.7436	0.6429	0.7165	-0.045
Mof_H 	H 	0.9143	0.5743	0.6969	0.109
Mof_H 	H 	0.2805	0.0745	0.6901	0.137
Mof_H 	H 	0.2806	0.9207	0.6696	0.335
Mof_H 	H 	0.3824	0.8735	0.6334	0.355
Mof_H 	H 	0.2883	0.8856	0.6035	0.371
Mof_H 	H 	0.3022	0.9817	0.5185	0.163
Mof_H 	H 	0.2778	0.1322	0.4823	-0.033
Mof_H 	H 	0.2539	0.2558	0.5501	0.109
Mof_H 	H 	0.5962	0.1609	0.7737	0.159
Mof_H 	H 	0.7668	0.0709	0.8062	0.402
Mof_H 	H 	0.8542	0.0696	0.7661	0.406
Mof_H 	H 	0.8067	0.0055	0.7487	0.411
Mof_H 	H 	0.8265	0.1567	0.6716	0.178
Mof_H 	H 	0.7154	0.2833	0.6132	-0.039
Mof_H 	H 	0.5448	0.35	0.6354	0.123
Mof_H 	H 	0.2857	0.662	0.7915	0.14
Mof_H 	H 	0.2815	0.8187	0.8081	0.345
Mof_H 	H 	0.3828	0.778	0.8373	0.34
Mof_H 	H 	0.287	0.8517	0.8728	0.372
Mof_H 	H 	0.3061	0.7459	0.9592	0.167
Mof_H 	H 	0.2889	0.616	0.0004	-0.053
Mof_H 	H 	0.2726	0.506	0.9374	0.095
Mof_H 	H 	0.68	0.0662	0.5872	0.152
Mof_H 	H 	0.5167	0.1232	0.637	0.371
Mof_H 	H 	0.4959	0.0607	0.6854	0.379
Mof_H 	H 	0.5009	0.0368	0.6173	0.368
Mof_H 	H 	0.6294	0.9007	0.7115	0.149
Mof_H 	H 	0.8	0.7971	0.7142	-0.039
Mof_H 	H 	0.9111	0.8259	0.6502	0.097
Mof_H 	H 	0.9016	0.9644	0.3074	0.118
Mof_H 	H 	0.8224	0.9573	0.2142	0.354
Mof_H 	H 	0.853	0.8585	0.1827	0.37
Mof_H 	H 	0.9203	0.908	0.1743	0.375
Mof_H 	H 	0.9776	0.7078	0.2239	0.166
Mof_H 	H 	0.0626	0.6253	0.3079	-0.031
Mof_H 	H 	0.0676	0.7111	0.3914	0.11
Mof_H 	H 	0.3238	0.7861	0.0678	0.157
Mof_H 	H 	0.505	0.6322	0.1636	0.413
Mof_H 	H 	0.5069	0.6013	0.0972	0.416
Mof_H 	H 	0.4851	0.7065	0.1119	0.405
Mof_H 	H 	0.3748	0.5916	0.2025	0.169
Mof_H 	H 	0.2084	0.6376	0.2136	-0.047
Mof_H 	H 	0.0967	0.7555	0.1511	0.11
Mof_H 	H 	0.9066	0.1159	0.2011	0.13
Mof_H 	H 	0.8877	0.1402	0.3115	0.368
Mof_H 	H 	0.9061	0.2198	0.3404	0.385
Mof_H 	H 	0.8081	0.2483	0.3093	0.361
Mof_H 	H 	0.9576	0.3196	0.2783	0.169
Mof_H 	H 	0.0246	0.3425	0.1858	-0.036
Mof_H 	H 	0.0335	0.2524	0.1008	0.109
Mof_H 	H 	0.0441	0.5473	0.1367	0.152
Mof_H 	H 	0.1878	0.4833	0.062	0.369
Mof_H 	H 	0.2431	0.5309	0.0926	0.382
Mof_H 	H 	0.2938	0.4193	0.0832	0.368
Mof_H 	H 	0.3216	0.3796	0.1905	0.146
Mof_H 	H 	0.2564	0.3571	0.2835	-0.045
Mof_H 	H 	0.0857	0.4257	0.3031	0.109
Mof_H 	H 	0.7195	0.9255	0.3099	0.137
Mof_H 	H 	0.7194	0.0793	0.3304	0.335
Mof_H 	H 	0.6176	0.1265	0.3666	0.355
Mof_H 	H 	0.7117	0.1144	0.3965	0.371
Mof_H 	H 	0.6978	0.0183	0.4815	0.163
Mof_H 	H 	0.7222	0.8678	0.5177	-0.033
Mof_H 	H 	0.7461	0.7442	0.4499	0.109
Mof_H 	H 	0.4038	0.8391	0.2263	0.159
Mof_H 	H 	0.2332	0.9291	0.1938	0.402
Mof_H 	H 	0.1458	0.9304	0.2339	0.406
Mof_H 	H 	0.1933	0.9945	0.2513	0.411
Mof_H 	H 	0.1735	0.8433	0.3284	0.178
Mof_H 	H 	0.2846	0.7167	0.3868	-0.039
Mof_H 	H 	0.4552	0.65	0.3646	0.123
Mof_H 	H 	0.7143	0.338	0.2085	0.14
Mof_H 	H 	0.7185	0.1813	0.1919	0.345
Mof_H 	H 	0.6172	0.222	0.1627	0.34
Mof_H 	H 	0.713	0.1483	0.1272	0.372
Mof_H 	H 	0.6939	0.2541	0.0408	0.167
Mof_H 	H 	0.7111	0.384	0.9996	-0.053
Mof_H 	H 	0.7274	0.494	0.0626	0.095
Mof_H 	H 	0.32	0.9338	0.4128	0.152
Mof_H 	H 	0.4833	0.8768	0.363	0.371
Mof_H 	H 	0.5041	0.9393	0.3146	0.379
Mof_H 	H 	0.4991	0.9632	0.3827	0.368
Mof_H 	H 	0.3706	0.0993	0.2885	0.149
Mof_H 	H 	0.2	0.2029	0.2858	-0.039
Mof_H 	H 	0.0889	0.1741	0.3498	0.097
Mof_H 	H 	0.0984	0.0356	0.6926	0.118
Mof_H 	H 	0.1776	0.0427	0.7858	0.354
Mof_H 	H 	0.147	0.1415	0.8173	0.37
Mof_H 	H 	0.0797	0.092	0.8257	0.375
Mof_H 	H 	0.0224	0.2922	0.7761	0.166
Mof_H 	H 	0.9374	0.3747	0.6921	-0.031
Mof_H 	H 	0.9324	0.2889	0.6086	0.11
Mof_Ru	Ru	0.06184	0.01376	0.97816	0.925
Mof_Ru	Ru	0.26521	0.33041	0.78405	0.924
Mof_Ru	Ru	0.2417	0.43371	0.70493	0.961
Mof_Ru	Ru	0.06439	0.93138	0.51733	0.941
Mof_Ru	Ru	0.93816	0.98624	0.02184	0.925
Mof_Ru	Ru	0.73479	0.66959	0.21595	0.924
Mof_Ru	Ru	0.7583	0.56629	0.29507	0.961
Mof_Ru	Ru	0.93561	0.06862	0.48267	0.941
Mof_C 	C 	0.8712	0.142	0.9357	0.275
Mof_C 	C 	0.801	0.2183	0.89672	0.108
Mof_C 	C 	0.6997	0.2454	0.90312	-0.382
Mof_C 	C 	0.6327	0.317	0.8669	0.523
Mof_C 	C 	0.5238	0.3478	0.8745	-1.261
Mof_C 	C 	0.6692	0.3596	0.8232	-0.437
Mof_C 	C 	0.7688	0.3322	0.8163	0.221
Mof_C 	C 	0.835	0.2623	0.8534	-0.241
Mof_C 	C 	0.0226	0.8833	0.90977	0.281
Mof_C 	C 	0.0292	0.8243	0.8568	0.103
Mof_C 	C 	0.0694	0.8377	0.80174	-0.354
Mof_C 	C 	0.0756	0.7839	0.75103	0.486
Mof_C 	C 	0.1223	0.7953	0.69208	-1.161
Mof_C 	C 	0.0395	0.7173	0.75637	-0.397
Mof_C 	C 	0.999	0.7041	0.8111	0.21
Mof_C 	C 	0.9937	0.7575	0.86149	-0.211
Mof_C 	C 	0.2474	0.0589	0.93595	0.105
Mof_C 	C 	0.3179	0.0925	0.93372	-0.1
Mof_C 	C 	0.2977	0.1715	0.89494	0.114
Mof_C 	C 	0.4071	0.0466	0.96685	-0.004
Mof_C 	C 	0.4555	0.9476	0.97957	0.033
Mof_C 	C 	0.5464	0.901	0.01113	0.03
Mof_C 	C 	0.0601	0.461	0.76619	0.286
Mof_C 	C 	0.9513	0.5056	0.77816	0.101
Mof_C 	C 	0.9118	0.492	0.83389	-0.353
Mof_C 	C 	0.8109	0.5351	0.84698	0.485
Mof_C 	C 	0.7675	0.5241	0.9076	-1.158
Mof_C 	C 	0.7484	0.5912	0.8022	-0.39
Mof_C 	C 	0.7865	0.6055	0.7466	0.197
Mof_C 	C 	0.888	0.5634	0.7345	-0.204
Mof_C 	C 	0.2541	0.2521	0.66987	0.282
Mof_C 	C 	0.2651	0.1769	0.62678	0.088
Mof_C 	C 	0.2803	0.0857	0.64781	-0.342
Mof_C 	C 	0.2948	0.0122	0.60799	0.468
Mof_C 	C 	0.3136	0.9137	0.6305	-1.12
Mof_C 	C 	0.2933	0.0313	0.5465	-0.387
Mof_C 	C 	0.2775	0.1211	0.52492	0.19
Mof_C 	C 	0.2637	0.194	0.56491	-0.199
Mof_C 	C 	0.4464	0.3043	0.72141	0.256
Mof_C 	C 	0.555	0.2619	0.70763	0.116
Mof_C 	C 	0.6207	0.1863	0.74134	-0.392
Mof_C 	C 	0.7226	0.147	0.7292	0.548
Mof_C 	C 	0.794	0.066	0.7656	-1.257
Mof_C 	C 	0.757	0.1836	0.6809	-0.432
Mof_C 	C 	0.6911	0.2588	0.6463	0.233
Mof_C 	C 	0.5902	0.2983	0.6592	-0.235
Mof_C 	C 	0.265	0.507	0.81773	0.279
Mof_C 	C 	0.2763	0.5746	0.85866	0.093
Mof_C 	C 	0.2869	0.6526	0.83397	-0.339
Mof_C 	C 	0.2989	0.7167	0.8711	0.476
Mof_C 	C 	0.3132	0.7991	0.845	-1.115
Mof_C 	C 	0.2987	0.7024	0.93325	-0.396
Mof_C 	C 	0.2887	0.6248	0.95775	0.196
Mof_C 	C 	0.2784	0.56	0.92062	-0.218
Mof_C 	C 	0.2562	0.5691	0.59502	0.12
Mof_C 	C 	0.2988	0.6123	0.55591	-0.101
Mof_C 	C 	0.2412	0.7126	0.54962	0.112
Mof_C 	C 	0.3971	0.5573	0.52752	0.002
Mof_C 	C 	0.4446	0.4552	0.52191	0.034
Mof_C 	C 	0.5447	0.3995	0.49504	0.03
Mof_C 	C 	0.8751	0.9661	0.57129	0.28
Mof_C 	C 	0.8054	0.9486	0.61225	0.095
Mof_C 	C 	0.7043	0.0108	0.61232	-0.343
Mof_C 	C 	0.6374	0.9926	0.64903	0.482
Mof_C 	C 	0.528	0.0589	0.6473	-1.148
Mof_C 	C 	0.6749	0.9132	0.6863	-0.401
Mof_C 	C 	0.7763	0.8514	0.6879	0.185
Mof_C 	C 	0.8418	0.8687	0.65023	-0.21
Mof_C 	C 	0.9866	0.9009	0.4095	0.284
Mof_C 	C 	0.9845	0.8455	0.35683	0.088
Mof_C 	C 	0.9341	0.8952	0.30692	-0.332
Mof_C 	C 	0.9312	0.8449	0.25624	0.468
Mof_C 	C 	0.8768	0.8973	0.20199	-1.145
Mof_C 	C 	0.9792	0.744	0.25745	-0.387
Mof_C 	C 	0.0296	0.6946	0.30787	0.199
Mof_C 	C 	0.0327	0.745	0.35716	-0.198
Mof_C 	C 	0.1288	0.858	0.0643	0.275
Mof_C 	C 	0.199	0.7817	0.10328	0.108
Mof_C 	C 	0.3003	0.7546	0.09688	-0.382
Mof_C 	C 	0.3673	0.683	0.1331	0.523
Mof_C 	C 	0.4762	0.6522	0.1255	-1.261
Mof_C 	C 	0.3308	0.6404	0.1768	-0.437
Mof_C 	C 	0.2312	0.6678	0.1837	0.221
Mof_C 	C 	0.165	0.7377	0.1466	-0.241
Mof_C 	C 	0.9774	0.1167	0.09023	0.281
Mof_C 	C 	0.9708	0.1757	0.1432	0.103
Mof_C 	C 	0.9306	0.1623	0.19826	-0.354
Mof_C 	C 	0.9244	0.2161	0.24897	0.486
Mof_C 	C 	0.8777	0.2047	0.30792	-1.161
Mof_C 	C 	0.9605	0.2827	0.24363	-0.397
Mof_C 	C 	0.001	0.2959	0.1889	0.21
Mof_C 	C 	0.0063	0.2425	0.13851	-0.211
Mof_C 	C 	0.7526	0.9411	0.06405	0.105
Mof_C 	C 	0.6821	0.9075	0.06628	-0.1
Mof_C 	C 	0.7023	0.8285	0.10506	0.114
Mof_C 	C 	0.5929	0.9534	0.03315	-0.004
Mof_C 	C 	0.5445	0.0524	0.02043	0.033
Mof_C 	C 	0.4536	0.099	0.98887	0.03
Mof_C 	C 	0.9399	0.539	0.23381	0.286
Mof_C 	C 	0.0487	0.4944	0.22184	0.101
Mof_C 	C 	0.0882	0.508	0.16611	-0.353
Mof_C 	C 	0.1891	0.4649	0.15302	0.485
Mof_C 	C 	0.2325	0.4759	0.0924	-1.158
Mof_C 	C 	0.2516	0.4088	0.1978	-0.39
Mof_C 	C 	0.2135	0.3945	0.2534	0.197
Mof_C 	C 	0.112	0.4366	0.2655	-0.204
Mof_C 	C 	0.7459	0.7479	0.33013	0.282
Mof_C 	C 	0.7349	0.8231	0.37322	0.088
Mof_C 	C 	0.7197	0.9143	0.35219	-0.342
Mof_C 	C 	0.7052	0.9878	0.39201	0.468
Mof_C 	C 	0.6864	0.0863	0.3695	-1.12
Mof_C 	C 	0.7067	0.9687	0.4535	-0.387
Mof_C 	C 	0.7225	0.8789	0.47508	0.19
Mof_C 	C 	0.7363	0.806	0.43509	-0.199
Mof_C 	C 	0.5536	0.6957	0.27859	0.256
Mof_C 	C 	0.445	0.7381	0.29237	0.116
Mof_C 	C 	0.3793	0.8137	0.25866	-0.392
Mof_C 	C 	0.2774	0.853	0.2708	0.548
Mof_C 	C 	0.206	0.934	0.2344	-1.257
Mof_C 	C 	0.243	0.8164	0.3191	-0.432
Mof_C 	C 	0.3089	0.7412	0.3537	0.233
Mof_C 	C 	0.4098	0.7017	0.3408	-0.235
Mof_C 	C 	0.735	0.493	0.18227	0.279
Mof_C 	C 	0.7237	0.4254	0.14134	0.093
Mof_C 	C 	0.7131	0.3474	0.16603	-0.339
Mof_C 	C 	0.7011	0.2833	0.1289	0.476
Mof_C 	C 	0.6868	0.2009	0.155	-1.115
Mof_C 	C 	0.7013	0.2976	0.06675	-0.396
Mof_C 	C 	0.7113	0.3752	0.04225	0.196
Mof_C 	C 	0.7216	0.44	0.07938	-0.218
Mof_C 	C 	0.7438	0.4309	0.40498	0.12
Mof_C 	C 	0.7012	0.3877	0.44409	-0.101
Mof_C 	C 	0.7588	0.2874	0.45038	0.112
Mof_C 	C 	0.6029	0.4427	0.47248	0.002
Mof_C 	C 	0.5554	0.5448	0.47809	0.034
Mof_C 	C 	0.4553	0.6005	0.50496	0.03
Mof_C 	C 	0.1249	0.0339	0.42871	0.28
Mof_C 	C 	0.1946	0.0514	0.38775	0.095
Mof_C 	C 	0.2957	0.9892	0.38768	-0.343
Mof_C 	C 	0.3626	0.0074	0.35097	0.482
Mof_C 	C 	0.472	0.9411	0.3527	-1.148
Mof_C 	C 	0.3251	0.0868	0.3137	-0.401
Mof_C 	C 	0.2237	0.1486	0.3121	0.185
Mof_C 	C 	0.1582	0.1313	0.34977	-0.21
Mof_C 	C 	0.0134	0.0991	0.5905	0.284
Mof_C 	C 	0.0155	0.1545	0.64317	0.088
Mof_C 	C 	0.0659	0.1048	0.69308	-0.332
Mof_C 	C 	0.0688	0.1551	0.74376	0.468
Mof_C 	C 	0.1232	0.1027	0.79801	-1.145
Mof_C 	C 	0.0208	0.256	0.74255	-0.387
Mof_C 	C 	0.9704	0.3054	0.69213	0.199
Mof_C 	C 	0.9673	0.255	0.64284	-0.198
Mof_S 	S 	0.50717	0.77784	0.98225	0.015
Mof_S 	S 	0.48217	0.28877	0.52111	0.055
Mof_S 	S 	0.49283	0.22216	0.01775	0.015
Mof_S 	S 	0.51783	0.71123	0.47889	0.055
Mof_N 	N 	0.1871	0.0342	0.93841	-0.211
Mof_N 	N 	0.4252	0.8825	0.96092	-0.121
Mof_N 	N 	0.5826	0.8034	0.01543	-0.121
Mof_N 	N 	0.2813	0.2332	0.86177	-0.203
Mof_N 	N 	0.2204	0.5351	0.62805	-0.196
Mof_N 	N 	0.402	0.3983	0.53811	-0.11
Mof_N 	N 	0.5736	0.3025	0.49232	-0.122
Mof_N 	N 	0.19	0.7948	0.54648	-0.21
Mof_N 	N 	0.8129	0.9658	0.06159	-0.211
Mof_N 	N 	0.5748	0.1175	0.03908	-0.121
Mof_N 	N 	0.4174	0.1966	0.98457	-0.121
Mof_N 	N 	0.7187	0.7668	0.13823	-0.203
Mof_N 	N 	0.7796	0.4649	0.37195	-0.196
Mof_N 	N 	0.598	0.6017	0.46189	-0.11
Mof_N 	N 	0.4264	0.6975	0.50768	-0.122
Mof_N 	N 	0.81	0.2052	0.45352	-0.21
Mof_O 	O 	0.96172	0.12374	0.9303	-0.403
Mof_O 	O 	0.83971	0.09745	0.97249	-0.39
Mof_O 	O 	0.07799	0.92401	0.90964	-0.408
Mof_O 	O 	0.95971	0.8935	0.95333	-0.387
Mof_O 	O 	0.11576	0.39292	0.80021	-0.397
Mof_O 	O 	0.09331	0.49182	0.72158	-0.397
Mof_O 	O 	0.26331	0.23223	0.7261	-0.4
Mof_O 	O 	0.23895	0.3347	0.64885	-0.388
Mof_O 	O 	0.41425	0.27124	0.76571	-0.401
Mof_O 	O 	0.38937	0.37346	0.68829	-0.392
Mof_O 	O 	0.27102	0.42801	0.8399	-0.398
Mof_O 	O 	0.25068	0.52824	0.76219	-0.4
Mof_O 	O 	0.96736	0.90587	0.57086	-0.405
Mof_O 	O 	0.84048	0.04069	0.5368	-0.39
Mof_O 	O 	0.05099	0.85585	0.44851	-0.388
Mof_O 	O 	0.92571	0.99104	0.41411	-0.413
Mof_O 	O 	0.03828	0.87626	0.0697	-0.403
Mof_O 	O 	0.16029	0.90255	0.02751	-0.39
Mof_O 	O 	0.92201	0.07599	0.09036	-0.408
Mof_O 	O 	0.04029	0.1065	0.04667	-0.387
Mof_O 	O 	0.88424	0.60708	0.19979	-0.397
Mof_O 	O 	0.90669	0.50818	0.27842	-0.397
Mof_O 	O 	0.73669	0.76777	0.2739	-0.4
Mof_O 	O 	0.76105	0.6653	0.35115	-0.388
Mof_O 	O 	0.58575	0.72876	0.23429	-0.401
Mof_O 	O 	0.61063	0.62654	0.31171	-0.392
Mof_O 	O 	0.72898	0.57199	0.1601	-0.398
Mof_O 	O 	0.74932	0.47176	0.23781	-0.4
Mof_O 	O 	0.03264	0.09413	0.42914	-0.405
Mof_O 	O 	0.15952	0.95931	0.4632	-0.39
Mof_O 	O 	0.94901	0.14415	0.55149	-0.388
Mof_O 	O 	0.07429	0.00896	0.58589	-0.413
_end
