data_functionalizedCrystal
_audit_creation_method	'EQeq! by Chris Wilmer'
_symmetry_space_group_name_H-M	'P1'
_symmetry_Int_Tables_number	1
_symmetry_cell_setting	triclinic
loop_
_symmetry_equiv_pos_as_xyz
  x,y,z
_cell_length_a	17.758
_cell_length_b	8.281
_cell_length_c	13.993
_cell_angle_alpha	90
_cell_angle_beta	107.21
_cell_angle_gamma	90
loop_
_atom_site_label
_atom_site_type_symbol
_atom_site_fract_x
_atom_site_fract_y
_atom_site_fract_z
_atom_site_charge
Mof_Sr	Sr	0.06664	0.90497	0.15704	1.504
Mof_O 	O 	0.18251	0.7146	0.23633	-0.447
Mof_O 	O 	0.29609	0.5779	0.2762	-0.413
Mof_O 	O 	0.41752	0.4449	0.15827	-0.557
Mof_O 	O 	0.41621	0.537	0.00932	-0.579
Mof_N 	N 	0.25412	0.42	0.09458	-0.088
Mof_H 	H 	0.29	0.3734	0.1477	0.103
Mof_C 	C 	0.19216	0.4973	0.1323	-0.276
Mof_H 	H 	0.1607	0.4137	0.1506	0.085
Mof_H 	H 	0.1575	0.5612	0.0792	0.069
Mof_C 	C 	0.22769	0.6055	0.2229	0.42
Mof_C 	C 	0.29662	0.5425	0.0513	-0.34
Mof_H 	H 	0.2907	0.648	0.0784	0.106
Mof_H 	H 	0.2728	0.5469	0.9794	0.119
Mof_C 	C 	0.38372	0.5048	0.0737	0.484
Mof_C 	C 	0.21902	0.2883	0.0204	-0.078
Mof_H 	H 	0.1772	0.3331	0.9655	0.041
Mof_H 	H 	0.1961	0.2061	0.0527	0.046
Mof_H 	H 	0.9616	0.6126	0.2411	0.181
Mof_Sr	Sr	0.56664	0.40497	0.15704	1.444
Mof_O 	O 	0.68251	0.2146	0.23633	-0.444
Mof_O 	O 	0.79609	0.0779	0.2762	-0.408
Mof_O 	O 	0.91752	0.9449	0.15827	-0.577
Mof_O 	O 	0.91621	0.037	0.00932	-0.585
Mof_N 	N 	0.75412	0.92	0.09458	-0.093
Mof_H 	H 	0.79	0.8734	0.1477	0.105
Mof_C 	C 	0.69216	0.9973	0.1323	-0.273
Mof_H 	H 	0.6607	0.9137	0.1506	0.078
Mof_H 	H 	0.6575	0.0612	0.0792	0.066
Mof_C 	C 	0.72769	0.1055	0.2229	0.417
Mof_C 	C 	0.79662	0.0425	0.0513	-0.323
Mof_H 	H 	0.7907	0.148	0.0784	0.102
Mof_H 	H 	0.7728	0.0469	0.9794	0.109
Mof_C 	C 	0.88372	0.0048	0.0737	0.479
Mof_C 	C 	0.71902	0.7883	0.0204	-0.067
Mof_H 	H 	0.6772	0.8331	0.9655	0.033
Mof_H 	H 	0.6961	0.7061	0.0527	0.041
Mof_H 	H 	0.4616	0.1126	0.2411	0.259
Mof_Sr	Sr	0.93336	0.90497	0.34296	1.356
Mof_O 	O 	0.81749	0.7146	0.26367	-0.439
Mof_O 	O 	0.70391	0.5779	0.2238	-0.41
Mof_O 	O 	0.58248	0.4449	0.34173	-0.556
Mof_O 	O 	0.58379	0.537	0.49068	-0.575
Mof_N 	N 	0.74588	0.42	0.40542	-0.094
Mof_H 	H 	0.71	0.3734	0.3523	0.104
Mof_C 	C 	0.80784	0.4973	0.3677	-0.263
Mof_H 	H 	0.8393	0.4137	0.3494	0.071
Mof_H 	H 	0.8425	0.5612	0.4208	0.058
Mof_C 	C 	0.77231	0.6055	0.2771	0.411
Mof_C 	C 	0.70338	0.5425	0.4487	-0.33
Mof_H 	H 	0.7093	0.648	0.4216	0.104
Mof_H 	H 	0.7272	0.5469	0.5206	0.111
Mof_C 	C 	0.61628	0.5048	0.4263	0.48
Mof_C 	C 	0.78098	0.2883	0.4796	-0.056
Mof_H 	H 	0.8228	0.3331	0.5345	0.024
Mof_H 	H 	0.8039	0.2061	0.4473	0.037
Mof_H 	H 	0.0384	0.6126	0.2589	0.236
Mof_Sr	Sr	0.43336	0.40497	0.34296	1.446
Mof_O 	O 	0.31749	0.2146	0.26367	-0.444
Mof_O 	O 	0.20391	0.0779	0.2238	-0.412
Mof_O 	O 	0.08248	0.9449	0.34173	-0.541
Mof_O 	O 	0.08379	0.037	0.49068	-0.56
Mof_N 	N 	0.24588	0.92	0.40542	-0.093
Mof_H 	H 	0.21	0.8734	0.3523	0.103
Mof_C 	C 	0.30784	0.9973	0.3677	-0.271
Mof_H 	H 	0.3393	0.9137	0.3494	0.077
Mof_H 	H 	0.3425	0.0612	0.4208	0.065
Mof_C 	C 	0.27231	0.1055	0.2771	0.417
Mof_C 	C 	0.20338	0.0425	0.4487	-0.33
Mof_H 	H 	0.2093	0.148	0.4216	0.106
Mof_H 	H 	0.2272	0.0469	0.5206	0.111
Mof_C 	C 	0.11628	0.0048	0.4263	0.484
Mof_C 	C 	0.28098	0.7883	0.4796	-0.058
Mof_H 	H 	0.3228	0.8331	0.5345	0.029
Mof_H 	H 	0.3039	0.7061	0.4473	0.039
Mof_H 	H 	0.5384	0.1126	0.2589	0.259
Mof_Sr	Sr	0.93336	0.09503	0.84296	1.348
Mof_O 	O 	0.81749	0.2854	0.76367	-0.439
Mof_O 	O 	0.70391	0.4221	0.7238	-0.41
Mof_O 	O 	0.58248	0.5551	0.84173	-0.557
Mof_O 	O 	0.58379	0.463	0.99068	-0.575
Mof_N 	N 	0.74588	0.58	0.90542	-0.095
Mof_H 	H 	0.71	0.6266	0.8523	0.104
Mof_C 	C 	0.80784	0.5027	0.8677	-0.262
Mof_H 	H 	0.8393	0.5863	0.8494	0.071
Mof_H 	H 	0.8425	0.4388	0.9208	0.057
Mof_C 	C 	0.77231	0.3945	0.7771	0.411
Mof_C 	C 	0.70338	0.4575	0.9487	-0.33
Mof_H 	H 	0.7093	0.352	0.9216	0.104
Mof_H 	H 	0.7272	0.4531	0.0206	0.112
Mof_C 	C 	0.61628	0.4952	0.9263	0.48
Mof_C 	C 	0.78098	0.7117	0.9796	-0.053
Mof_H 	H 	0.8228	0.6669	0.0345	0.024
Mof_H 	H 	0.8039	0.7939	0.9473	0.036
Mof_H 	H 	0.0384	0.3874	0.7589	0.235
Mof_Sr	Sr	0.43336	0.59503	0.84296	1.448
Mof_O 	O 	0.31749	0.7854	0.76367	-0.445
Mof_O 	O 	0.20391	0.9221	0.7238	-0.413
Mof_O 	O 	0.08248	0.0551	0.84173	-0.541
Mof_O 	O 	0.08379	0.963	0.99068	-0.554
Mof_N 	N 	0.24588	0.08	0.90542	-0.096
Mof_H 	H 	0.21	0.1266	0.8523	0.103
Mof_C 	C 	0.30784	0.0027	0.8677	-0.275
Mof_H 	H 	0.3393	0.0863	0.8494	0.078
Mof_H 	H 	0.3425	0.9388	0.9208	0.068
Mof_C 	C 	0.27231	0.8945	0.7771	0.42
Mof_C 	C 	0.20338	0.9575	0.9487	-0.315
Mof_H 	H 	0.2093	0.852	0.9216	0.102
Mof_H 	H 	0.2272	0.9531	0.0206	0.102
Mof_C 	C 	0.11628	0.9952	0.9263	0.481
Mof_C 	C 	0.28098	0.2117	0.9796	-0.046
Mof_H 	H 	0.3228	0.1669	0.0345	0.025
Mof_H 	H 	0.3039	0.2939	0.9473	0.036
Mof_H 	H 	0.5384	0.8874	0.7589	0.259
Mof_Sr	Sr	0.06664	0.09503	0.65704	1.513
Mof_O 	O 	0.18251	0.2854	0.73633	-0.448
Mof_O 	O 	0.29609	0.4221	0.7762	-0.413
Mof_O 	O 	0.41752	0.5551	0.65827	-0.557
Mof_O 	O 	0.41621	0.463	0.50932	-0.576
Mof_N 	N 	0.25412	0.58	0.59458	-0.091
Mof_H 	H 	0.29	0.6266	0.6477	0.104
Mof_C 	C 	0.19216	0.5027	0.6323	-0.276
Mof_H 	H 	0.1607	0.5863	0.6506	0.085
Mof_H 	H 	0.1575	0.4388	0.5792	0.071
Mof_C 	C 	0.22769	0.3945	0.7229	0.421
Mof_C 	C 	0.29662	0.4575	0.5513	-0.331
Mof_H 	H 	0.2907	0.352	0.5784	0.104
Mof_H 	H 	0.2728	0.4531	0.4794	0.114
Mof_C 	C 	0.38372	0.4952	0.5737	0.481
Mof_C 	C 	0.21902	0.7117	0.5204	-0.063
Mof_H 	H 	0.1772	0.6669	0.4655	0.035
Mof_H 	H 	0.1961	0.7939	0.5527	0.042
Mof_H 	H 	0.9616	0.3874	0.7411	0.175
Mof_Sr	Sr	0.56664	0.59503	0.65704	1.445
Mof_O 	O 	0.68251	0.7854	0.73633	-0.444
Mof_O 	O 	0.79609	0.9221	0.7762	-0.407
Mof_O 	O 	0.91752	0.0551	0.65827	-0.578
Mof_O 	O 	0.91621	0.963	0.50932	-0.589
Mof_N 	N 	0.75412	0.08	0.59458	-0.092
Mof_H 	H 	0.79	0.1266	0.6477	0.105
Mof_C 	C 	0.69216	0.0027	0.6323	-0.269
Mof_H 	H 	0.6607	0.0863	0.6506	0.077
Mof_H 	H 	0.6575	0.9388	0.5792	0.064
Mof_C 	C 	0.72769	0.8945	0.7229	0.414
Mof_C 	C 	0.79662	0.9575	0.5513	-0.33
Mof_H 	H 	0.7907	0.852	0.5784	0.104
Mof_H 	H 	0.7728	0.9531	0.4794	0.113
Mof_C 	C 	0.88372	0.9952	0.5737	0.48
Mof_C 	C 	0.71902	0.2117	0.5204	-0.061
Mof_H 	H 	0.6772	0.1669	0.4655	0.03
Mof_H 	H 	0.6961	0.2939	0.5527	0.04
Mof_H 	H 	0.4616	0.8874	0.7411	0.259
Mof_O 	O 	7.2298e-18	0.6779	0.25	-0.665
Mof_O 	O 	0.5	0.1779	0.25	-0.783
Mof_O 	O 	2.87146e-33	0.3221	0.75	-0.657
Mof_O 	O 	0.5	0.8221	0.75	-0.783
_end
