data_functionalizedCrystal
_audit_creation_method	'EQeq! by Chris Wilmer'
_symmetry_space_group_name_H-M	'P1'
_symmetry_Int_Tables_number	1
_symmetry_cell_setting	triclinic
loop_
_symmetry_equiv_pos_as_xyz
  x,y,z
_cell_length_a	10.11
_cell_length_b	21.835
_cell_length_c	13.987
_cell_angle_alpha	91.62
_cell_angle_beta	90
_cell_angle_gamma	90
loop_
_atom_site_label
_atom_site_type_symbol
_atom_site_fract_x
_atom_site_fract_y
_atom_site_fract_z
_atom_site_charge
Mof_Gd	Gd	0.43666	0.75975	0.76872	1.755
Mof_Gd	Gd	0.25015	0.74868	0.027	1.887
Mof_Gd	Gd	0.93666	0.24025	0.73128	1.752
Mof_Gd	Gd	0.75015	0.25132	0.473	1.891
Mof_Gd	Gd	0.56334	0.24025	0.23128	1.754
Mof_Gd	Gd	0.74985	0.25132	0.973	1.886
Mof_Gd	Gd	0.06334	0.75975	0.26872	1.751
Mof_Gd	Gd	0.24985	0.74868	0.527	1.89
Mof_H 	H 	0.712	0.4567	0.8105	0.068
Mof_H 	H 	0.1411	0.0349	0.866	0.077
Mof_H 	H 	0.1171	0.8393	0.7219	0.172
Mof_H 	H 	0.9844	0.8129	0.7622	0.16
Mof_H 	H 	0.8234	0.8854	0.8185	0.056
Mof_H 	H 	0.6467	0.5476	0.8826	0.073
Mof_H 	H 	0.2024	0.9385	0.8102	0.067
Mof_H 	H 	0.2708	0.4938	0.866	0.076
Mof_H 	H 	0.4581	0.596	0.9882	0.199
Mof_H 	H 	0.3151	0.5857	0.9483	0.2
Mof_H 	H 	0.7647	0.9823	0.8735	0.078
Mof_H 	H 	0.3368	0.4033	0.7913	0.055
Mof_H 	H 	0.9022	0.5714	0.9048	0.064
Mof_H 	H 	0.0385	0.5226	0.16	0.08
Mof_H 	H 	0.85	0.6335	0.05	0.174
Mof_H 	H 	0.9131	0.6161	0.1478	0.187
Mof_H 	H 	0.5017	0.3417	0.7128	0.172
Mof_H 	H 	0.6415	0.3705	0.6957	0.179
Mof_H 	H 	0.9628	0.0901	0.972	0.176
Mof_H 	H 	0.8166	0.0769	0.9414	0.18
Mof_H 	H 	0.6984	0.8763	0.9889	0.191
Mof_H 	H 	0.6314	0.8718	0.0897	0.188
Mof_H 	H 	0.5833	0.9722	0.146	0.074
Mof_H 	H 	0.5011	0.9311	0.8722	0.086
Mof_H 	H 	0.212	0.5433	0.6895	0.071
Mof_H 	H 	0.6411	0.9651	0.634	0.081
Mof_H 	H 	0.6171	0.1607	0.7781	0.172
Mof_H 	H 	0.4844	0.1871	0.7378	0.162
Mof_H 	H 	0.3234	0.1146	0.6815	0.053
Mof_H 	H 	0.1467	0.4524	0.6174	0.071
Mof_H 	H 	0.7024	0.0615	0.6898	0.063
Mof_H 	H 	0.7708	0.5062	0.634	0.073
Mof_H 	H 	0.9581	0.404	0.5118	0.198
Mof_H 	H 	0.8151	0.4143	0.5517	0.198
Mof_H 	H 	0.2647	0.0177	0.6265	0.082
Mof_H 	H 	0.8368	0.5967	0.7087	0.057
Mof_H 	H 	0.4022	0.4286	0.5952	0.063
Mof_H 	H 	0.5385	0.4774	0.34	0.078
Mof_H 	H 	0.35	0.3665	0.45	0.173
Mof_H 	H 	0.4131	0.3839	0.3522	0.186
Mof_H 	H 	0.0017	0.6583	0.7872	0.174
Mof_H 	H 	0.1415	0.6295	0.8043	0.181
Mof_H 	H 	0.4628	0.9099	0.528	0.18
Mof_H 	H 	0.3166	0.9231	0.5586	0.183
Mof_H 	H 	0.1984	0.1237	0.5111	0.192
Mof_H 	H 	0.1314	0.1282	0.4103	0.188
Mof_H 	H 	0.0833	0.0278	0.354	0.074
Mof_H 	H 	0.0011	0.0689	0.6278	0.086
Mof_H 	H 	0.288	0.5433	0.1895	0.068
Mof_H 	H 	0.8589	0.9651	0.134	0.077
Mof_H 	H 	0.8829	0.1607	0.2781	0.172
Mof_H 	H 	0.0156	0.1871	0.2378	0.16
Mof_H 	H 	0.1766	0.1146	0.1815	0.056
Mof_H 	H 	0.3533	0.4524	0.1174	0.073
Mof_H 	H 	0.7976	0.0615	0.1898	0.067
Mof_H 	H 	0.7292	0.5062	0.134	0.076
Mof_H 	H 	0.5419	0.404	0.0118	0.199
Mof_H 	H 	0.6849	0.4143	0.0517	0.2
Mof_H 	H 	0.2353	0.0177	0.1265	0.078
Mof_H 	H 	0.6632	0.5967	0.2087	0.055
Mof_H 	H 	0.0978	0.4286	0.0952	0.064
Mof_H 	H 	0.9615	0.4774	0.84	0.08
Mof_H 	H 	0.15	0.3665	0.95	0.174
Mof_H 	H 	0.0869	0.3839	0.8522	0.187
Mof_H 	H 	0.4983	0.6583	0.2872	0.172
Mof_H 	H 	0.3585	0.6295	0.3043	0.179
Mof_H 	H 	0.0372	0.9099	0.028	0.176
Mof_H 	H 	0.1834	0.9231	0.0586	0.18
Mof_H 	H 	0.3016	0.1237	0.0111	0.191
Mof_H 	H 	0.3686	0.1282	0.9103	0.188
Mof_H 	H 	0.4167	0.0278	0.854	0.074
Mof_H 	H 	0.4989	0.0689	0.1278	0.086
Mof_H 	H 	0.788	0.4567	0.3105	0.071
Mof_H 	H 	0.3589	0.0349	0.366	0.081
Mof_H 	H 	0.3829	0.8393	0.2219	0.172
Mof_H 	H 	0.5156	0.8129	0.2622	0.162
Mof_H 	H 	0.6766	0.8854	0.3185	0.053
Mof_H 	H 	0.8533	0.5476	0.3826	0.071
Mof_H 	H 	0.2976	0.9385	0.3102	0.063
Mof_H 	H 	0.2292	0.4938	0.366	0.073
Mof_H 	H 	0.0419	0.596	0.4882	0.198
Mof_H 	H 	0.1849	0.5857	0.4483	0.198
Mof_H 	H 	0.7353	0.9823	0.3735	0.082
Mof_H 	H 	0.1632	0.4033	0.2913	0.057
Mof_H 	H 	0.5978	0.5714	0.4048	0.063
Mof_H 	H 	0.4615	0.5226	0.66	0.078
Mof_H 	H 	0.65	0.6335	0.55	0.173
Mof_H 	H 	0.5869	0.6161	0.6478	0.186
Mof_H 	H 	0.9983	0.3417	0.2128	0.174
Mof_H 	H 	0.8585	0.3705	0.1957	0.181
Mof_H 	H 	0.5372	0.0901	0.472	0.18
Mof_H 	H 	0.6834	0.0769	0.4414	0.183
Mof_H 	H 	0.8016	0.8763	0.4889	0.192
Mof_H 	H 	0.8686	0.8718	0.5897	0.188
Mof_H 	H 	0.9167	0.9722	0.646	0.074
Mof_H 	H 	0.9989	0.9311	0.3722	0.086
Mof_C 	C 	0.1376	0.80745	0.8576	0.488
Mof_C 	C 	0.4198	0.64737	0.8721	0.539
Mof_C 	C 	0.4511	0.53128	0.8811	0.197
Mof_C 	C 	0.5314	0.4205	0.7924	0.168
Mof_C 	C 	0.6224	0.46405	0.8208	-0.11
Mof_C 	C 	0.0769	0.00474	0.857	-0.125
Mof_C 	C 	0.0619	0.83719	0.7785	-0.47
Mof_C 	C 	0.02	0.90116	0.8107	0.147
Mof_C 	C 	0.8882	0.91508	0.8286	-0.102
Mof_C 	C 	0.5831	0.51874	0.8643	-0.125
Mof_C 	C 	0.9473	0.01838	0.8768	0.189
Mof_C 	C 	0.1141	0.94674	0.8237	-0.1
Mof_C 	C 	0.3602	0.48694	0.8542	-0.139
Mof_C 	C 	0.407	0.59016	0.9299	-0.542
Mof_C 	C 	0.8532	0.97338	0.8615	-0.138
Mof_C 	C 	0.3999	0.43226	0.8097	-0.102
Mof_C 	C 	0.636	0.31798	0.8137	0.514
Mof_C 	C 	0.9416	0.54263	0.9434	-0.114
Mof_C 	C 	0.9637	0.55714	0.0394	0.196
Mof_C 	C 	0.0376	0.66606	0.0663	0.517
Mof_C 	C 	0.0227	0.51372	0.0956	-0.129
Mof_C 	C 	0.9305	0.61929	0.08	-0.518
Mof_C 	C 	0.9115	0.13291	0.8509	0.529
Mof_C 	C 	0.5766	0.36136	0.7443	-0.505
Mof_C 	C 	0.9064	0.08025	0.9176	-0.521
Mof_C 	C 	0.5236	0.82857	0.9834	0.595
Mof_C 	C 	0.6145	0.87839	0.0225	-0.547
Mof_C 	C 	0.5538	0.94125	0.0111	0.182
Mof_C 	C 	0.5503	0.98317	0.0868	-0.122
Mof_C 	C 	0.5014	0.95879	0.9239	-0.121
Mof_C 	C 	0.6376	0.19255	0.6424	0.488
Mof_C 	C 	0.9198	0.35263	0.6279	0.538
Mof_C 	C 	0.9511	0.46872	0.6189	0.191
Mof_C 	C 	0.0314	0.5795	0.7076	0.176
Mof_C 	C 	0.1224	0.53595	0.6792	-0.116
Mof_C 	C 	0.5769	0.99526	0.643	-0.141
Mof_C 	C 	0.5619	0.16281	0.7215	-0.471
Mof_C 	C 	0.52	0.09884	0.6893	0.138
Mof_C 	C 	0.3882	0.08492	0.6714	-0.09
Mof_C 	C 	0.0831	0.48126	0.6357	-0.117
Mof_C 	C 	0.4473	0.98162	0.6232	0.203
Mof_C 	C 	0.6141	0.05326	0.6763	-0.09
Mof_C 	C 	0.8602	0.51306	0.6458	-0.132
Mof_C 	C 	0.907	0.40984	0.5701	-0.538
Mof_C 	C 	0.3532	0.02662	0.6385	-0.15
Mof_C 	C 	0.8999	0.56774	0.6903	-0.111
Mof_C 	C 	0.136	0.68202	0.6863	0.516
Mof_C 	C 	0.4416	0.45737	0.5566	-0.109
Mof_C 	C 	0.4637	0.44286	0.4606	0.187
Mof_C 	C 	0.5376	0.33394	0.4337	0.52
Mof_C 	C 	0.5227	0.48628	0.4044	-0.123
Mof_C 	C 	0.4305	0.38071	0.42	-0.518
Mof_C 	C 	0.4115	0.86709	0.6491	0.533
Mof_C 	C 	0.0766	0.63864	0.7557	-0.51
Mof_C 	C 	0.4064	0.91975	0.5824	-0.529
Mof_C 	C 	0.0236	0.17143	0.5166	0.595
Mof_C 	C 	0.1145	0.12161	0.4775	-0.55
Mof_C 	C 	0.0538	0.05875	0.4889	0.182
Mof_C 	C 	0.0503	0.01683	0.4132	-0.123
Mof_C 	C 	0.0014	0.04121	0.5761	-0.12
Mof_C 	C 	0.8624	0.19255	0.1424	0.488
Mof_C 	C 	0.5802	0.35263	0.1279	0.539
Mof_C 	C 	0.5489	0.46872	0.1189	0.197
Mof_C 	C 	0.4686	0.5795	0.2076	0.168
Mof_C 	C 	0.3776	0.53595	0.1792	-0.11
Mof_C 	C 	0.9231	0.99526	0.143	-0.125
Mof_C 	C 	0.9381	0.16281	0.2215	-0.47
Mof_C 	C 	0.98	0.09884	0.1893	0.147
Mof_C 	C 	0.1118	0.08492	0.1714	-0.102
Mof_C 	C 	0.4169	0.48126	0.1357	-0.125
Mof_C 	C 	0.0527	0.98162	0.1232	0.189
Mof_C 	C 	0.8859	0.05326	0.1763	-0.1
Mof_C 	C 	0.6398	0.51306	0.1458	-0.139
Mof_C 	C 	0.593	0.40984	0.0701	-0.542
Mof_C 	C 	0.1468	0.02662	0.1385	-0.138
Mof_C 	C 	0.6001	0.56774	0.1903	-0.102
Mof_C 	C 	0.364	0.68202	0.1863	0.514
Mof_C 	C 	0.0584	0.45737	0.0566	-0.114
Mof_C 	C 	0.0363	0.44286	0.9606	0.196
Mof_C 	C 	0.9624	0.33394	0.9337	0.517
Mof_C 	C 	0.9773	0.48628	0.9044	-0.129
Mof_C 	C 	0.0695	0.38071	0.92	-0.518
Mof_C 	C 	0.0885	0.86709	0.1491	0.529
Mof_C 	C 	0.4234	0.63864	0.2557	-0.505
Mof_C 	C 	0.0936	0.91975	0.0824	-0.521
Mof_C 	C 	0.4764	0.17143	0.0166	0.595
Mof_C 	C 	0.3855	0.12161	0.9775	-0.547
Mof_C 	C 	0.4462	0.05875	0.9889	0.182
Mof_C 	C 	0.4497	0.01683	0.9132	-0.122
Mof_C 	C 	0.4986	0.04121	0.0761	-0.121
Mof_C 	C 	0.3624	0.80745	0.3576	0.488
Mof_C 	C 	0.0802	0.64737	0.3721	0.538
Mof_C 	C 	0.0489	0.53128	0.3811	0.191
Mof_C 	C 	0.9686	0.4205	0.2924	0.176
Mof_C 	C 	0.8776	0.46405	0.3208	-0.116
Mof_C 	C 	0.4231	0.00474	0.357	-0.141
Mof_C 	C 	0.4381	0.83719	0.2785	-0.471
Mof_C 	C 	0.48	0.90116	0.3107	0.138
Mof_C 	C 	0.6118	0.91508	0.3286	-0.09
Mof_C 	C 	0.9169	0.51874	0.3643	-0.117
Mof_C 	C 	0.5527	0.01838	0.3768	0.203
Mof_C 	C 	0.3859	0.94674	0.3237	-0.09
Mof_C 	C 	0.1398	0.48694	0.3542	-0.132
Mof_C 	C 	0.093	0.59016	0.4299	-0.538
Mof_C 	C 	0.6468	0.97338	0.3615	-0.15
Mof_C 	C 	0.1001	0.43226	0.3097	-0.111
Mof_C 	C 	0.864	0.31798	0.3137	0.516
Mof_C 	C 	0.5584	0.54263	0.4434	-0.109
Mof_C 	C 	0.5363	0.55714	0.5394	0.187
Mof_C 	C 	0.4624	0.66606	0.5663	0.52
Mof_C 	C 	0.4773	0.51372	0.5956	-0.123
Mof_C 	C 	0.5695	0.61929	0.58	-0.518
Mof_C 	C 	0.5885	0.13291	0.3509	0.533
Mof_C 	C 	0.9234	0.36136	0.2443	-0.51
Mof_C 	C 	0.5936	0.08025	0.4176	-0.529
Mof_C 	C 	0.9764	0.82857	0.4834	0.595
Mof_C 	C 	0.8855	0.87839	0.5225	-0.55
Mof_C 	C 	0.9462	0.94125	0.5111	0.182
Mof_C 	C 	0.9497	0.98317	0.5868	-0.123
Mof_C 	C 	0.9986	0.95879	0.4239	-0.12
Mof_O 	O 	0.3653	0.6965	0.90364	-0.617
Mof_O 	O 	0.0742	0.782	0.92303	-0.478
Mof_O 	O 	0.831	0.17645	0.86525	-0.606
Mof_O 	O 	0.431	0.81232	0.03584	-0.55
Mof_O 	O 	0.0292	0.71795	0.10936	-0.581
Mof_O 	O 	0.1331	0.6542	0.01343	-0.498
Mof_O 	O 	0.9916	0.13555	0.78388	-0.471
Mof_O 	O 	0.4813	0.64909	0.79604	-0.484
Mof_O 	O 	0.5847	0.31338	0.8945	-0.473
Mof_O 	O 	0.2614	0.80914	0.86121	-0.543
Mof_O 	O 	0.5457	0.80676	0.90134	-0.534
Mof_O 	O 	0.7352	0.28524	0.79292	-0.569
Mof_O 	O 	0.8653	0.3035	0.59636	-0.618
Mof_O 	O 	0.5742	0.218	0.57697	-0.481
Mof_O 	O 	0.331	0.82355	0.63475	-0.607
Mof_O 	O 	0.931	0.18768	0.46416	-0.55
Mof_O 	O 	0.5292	0.28205	0.39064	-0.581
Mof_O 	O 	0.6331	0.3458	0.48657	-0.498
Mof_O 	O 	0.4916	0.86445	0.71612	-0.471
Mof_O 	O 	0.9813	0.35091	0.70396	-0.484
Mof_O 	O 	0.0847	0.68662	0.6055	-0.474
Mof_O 	O 	0.7614	0.19086	0.63879	-0.543
Mof_O 	O 	0.0457	0.19324	0.59866	-0.533
Mof_O 	O 	0.2352	0.71476	0.70708	-0.57
Mof_O 	O 	0.6347	0.3035	0.09636	-0.617
Mof_O 	O 	0.9258	0.218	0.07697	-0.478
Mof_O 	O 	0.169	0.82355	0.13475	-0.606
Mof_O 	O 	0.569	0.18768	0.96416	-0.55
Mof_O 	O 	0.9708	0.28205	0.89064	-0.581
Mof_O 	O 	0.8669	0.3458	0.98657	-0.498
Mof_O 	O 	0.0084	0.86445	0.21612	-0.471
Mof_O 	O 	0.5187	0.35091	0.20396	-0.484
Mof_O 	O 	0.4153	0.68662	0.1055	-0.473
Mof_O 	O 	0.7386	0.19086	0.13879	-0.543
Mof_O 	O 	0.4543	0.19324	0.09866	-0.534
Mof_O 	O 	0.2648	0.71476	0.20708	-0.569
Mof_O 	O 	0.1347	0.6965	0.40364	-0.618
Mof_O 	O 	0.4258	0.782	0.42303	-0.481
Mof_O 	O 	0.669	0.17645	0.36525	-0.607
Mof_O 	O 	0.069	0.81232	0.53584	-0.55
Mof_O 	O 	0.4708	0.71795	0.60936	-0.581
Mof_O 	O 	0.3669	0.6542	0.51343	-0.498
Mof_O 	O 	0.5084	0.13555	0.28388	-0.471
Mof_O 	O 	0.0187	0.64909	0.29604	-0.484
Mof_O 	O 	0.9153	0.31338	0.3945	-0.474
Mof_O 	O 	0.2386	0.80914	0.36121	-0.543
Mof_O 	O 	0.9543	0.80676	0.40134	-0.533
Mof_O 	O 	0.7648	0.28524	0.29292	-0.57
_end
