data_functionalizedCrystal
_audit_creation_method	'EQeq! by Chris Wilmer'
_symmetry_space_group_name_H-M	'P1'
_symmetry_Int_Tables_number	1
_symmetry_cell_setting	triclinic
loop_
_symmetry_equiv_pos_as_xyz
  x,y,z
_cell_length_a	15.6304
_cell_length_b	17.7732
_cell_length_c	17.2482
_cell_angle_alpha	90
_cell_angle_beta	91.591
_cell_angle_gamma	90
loop_
_atom_site_label
_atom_site_type_symbol
_atom_site_fract_x
_atom_site_fract_y
_atom_site_fract_z
_atom_site_charge
Mof_Zn	Zn	0.4697	0.64139	0.67501	1.211
Mof_Zn	Zn	0.46567	0.67756	0.26537	1.193
Mof_N 	N 	0.3802	0.7014	0.732	-0.262
Mof_N 	N 	0.3066	0.7626	0.8176	-0.162
Mof_N 	N 	0.3059	0.7818	0.1011	-0.156
Mof_N 	N 	0.3774	0.7272	0.1967	-0.28
Mof_N 	N 	0.0912	0.0673	0.895	-0.267
Mof_N 	N 	0.174	0.974	0.943	-0.116
Mof_O 	O 	0.5515	0.702	0.6186	-0.467
Mof_O 	O 	0.4415	0.7527	0.5597	-0.311
Mof_O 	O 	0.5241	0.7566	0.327	-0.459
Mof_O 	O 	0.5217	0.6792	0.4284	-0.308
Mof_O 	O 	0.9554	0.097	0.2633	-0.465
Mof_O 	O 	0.9277	0.1809	0.3526	-0.34
Mof_O 	O 	0.9667	0.0959	0.736	-0.44
Mof_O 	O 	0.8985	0.0375	0.83	-0.327
Mof_C 	C 	0.5213	0.7424	0.5683	0.354
Mof_C 	C 	0.5816	0.7929	0.5256	-0.045
Mof_C 	C 	0.633	0.8417	0.5728	-0.029
Mof_H 	H 	0.6297	0.8392	0.6265	0.047
Mof_C 	C 	0.6892	0.894	0.539	-0.015
Mof_C 	C 	0.6892	0.9014	0.459	-0.018
Mof_C 	C 	0.6383	0.8515	0.4121	-0.03
Mof_H 	H 	0.6399	0.8552	0.3583	0.056
Mof_C 	C 	0.5854	0.7967	0.4455	-0.046
Mof_C 	C 	0.5403	0.7409	0.3966	0.323
Mof_C 	C 	0.7423	0.9599	0.4195	0.072
Mof_C 	C 	0.7956	0.9399	0.3616	-0.139
Mof_H 	H 	0.7943	0.8908	0.3431	0.079
Mof_C 	C 	0.8515	0.9912	0.3299	0.048
Mof_H 	H 	0.8888	0.9759	0.2918	0.009
Mof_C 	C 	0.8517	0.0665	0.3556	-0.115
Mof_C 	C 	0.7973	0.0868	0.4114	0.053
Mof_H 	H 	0.798	0.1363	0.4292	0.029
Mof_C 	C 	0.7405	0.0361	0.443	-0.122
Mof_H 	H 	0.7015	0.0521	0.4793	0.084
Mof_C 	C 	0.9152	0.1202	0.322	0.341
Mof_C 	C 	0.7473	0.9362	0.5932	0.064
Mof_C 	C 	0.7172	0.9623	0.6623	-0.121
Mof_H 	H 	0.6601	0.9548	0.6739	0.072
Mof_C 	C 	0.7703	0.9995	0.7146	0.016
Mof_H 	H 	0.7483	0.0156	0.7613	0.031
Mof_C 	C 	0.8516	0.0129	0.7003	-0.099
Mof_C 	C 	0.8855	0.9862	0.6305	0.01
Mof_H 	H 	0.9427	0.9941	0.6195	0.033
Mof_C 	C 	0.8326	0.9486	0.5793	-0.118
Mof_H 	H 	0.855	0.9307	0.5334	0.074
Mof_C 	C 	0.9098	0.0512	0.7599	0.315
Mof_C 	C 	0.2967	0.714	0.7034	-0.012
Mof_H 	H 	0.2749	0.6977	0.6556	0.027
Mof_C 	C 	0.2544	0.752	0.7541	0.018
Mof_H 	H 	0.1984	0.769	0.7481	0.033
Mof_C 	C 	0.382	0.7308	0.8002	0.118
Mof_H 	H 	0.4297	0.7302	0.8336	-0.019
Mof_C 	C 	0.2847	0.8006	0.8889	0.222
Mof_C 	C 	0.3088	0.7736	0.9598	-0.286
Mof_H 	H 	0.3419	0.7302	0.9638	0.136
Mof_C 	C 	0.2842	0.8105	0.0257	0.232
Mof_C 	C 	0.2335	0.8772	0.02	-0.293
Mof_H 	H 	0.2177	0.9028	0.0643	0.153
Mof_C 	C 	0.2093	0.902	0.9496	0.25
Mof_C 	C 	0.2357	0.8681	0.8811	-0.274
Mof_H 	H 	0.222	0.8886	0.8327	0.137
Mof_C 	C 	0.3784	0.7438	0.1242	0.117
Mof_H 	H 	0.4227	0.7315	0.0916	-0.014
Mof_C 	C 	0.3005	0.7525	0.2228	0.002
Mof_H 	H 	0.282	0.7465	0.2732	0.003
Mof_C 	C 	0.257	0.786	0.1676	0.001
Mof_H 	H 	0.2036	0.8084	0.1716	0.047
Mof_C 	C 	0.1298	0.0059	0.8848	0.141
Mof_H 	H 	0.1481	0.993	0.8357	-0.021
Mof_C 	C 	0.1907	0.0405	0.9916	-0.004
Mof_H 	H 	0.2272	0.043	0.0351	0.031
Mof_C 	C 	0.1432	0.0976	0.961	-0.033
Mof_H 	H 	0.1433	0.1471	0.9784	0.041
Mof_N 	N 	0.143	0.963	0.941	-0.054
Mof_C 	C 	0.0825	0.9789	0.993	0.006
Mof_H 	H 	0.0686	0.9529	0.0377	0.038
Mof_C 	C 	0.0468	0.0437	0.9625	-0.022
Mof_H 	H 	0.0003	0.0687	0.9829	0.034
Mof_Zn	Zn	0.0303	0.14139	0.82499	1.209
Mof_Zn	Zn	0.03433	0.17756	0.23463	1.189
Mof_N 	N 	0.1198	0.2014	0.768	-0.264
Mof_N 	N 	0.1934	0.2626	0.6824	-0.164
Mof_N 	N 	0.1941	0.2818	0.3989	-0.158
Mof_N 	N 	0.1226	0.2272	0.3033	-0.282
Mof_N 	N 	0.4088	0.5673	0.605	-0.272
Mof_N 	N 	0.326	0.474	0.557	-0.14
Mof_O 	O 	0.9485	0.202	0.8814	-0.467
Mof_O 	O 	0.0585	0.2527	0.9403	-0.314
Mof_O 	O 	0.9759	0.2566	0.173	-0.457
Mof_O 	O 	0.9783	0.1792	0.0716	-0.305
Mof_O 	O 	0.5446	0.597	0.2367	-0.47
Mof_O 	O 	0.5723	0.6809	0.1474	-0.343
Mof_O 	O 	0.5333	0.5959	0.764	-0.446
Mof_O 	O 	0.6015	0.5375	0.67	-0.332
Mof_C 	C 	0.9787	0.2424	0.9317	0.358
Mof_C 	C 	0.9184	0.2929	0.9744	-0.05
Mof_C 	C 	0.867	0.3417	0.9272	-0.023
Mof_H 	H 	0.8703	0.3392	0.8735	0.045
Mof_C 	C 	0.8108	0.394	0.961	-0.025
Mof_C 	C 	0.8108	0.4014	0.041	-0.015
Mof_C 	C 	0.8617	0.3515	0.0879	-0.033
Mof_H 	H 	0.8601	0.3552	0.1417	0.057
Mof_C 	C 	0.9146	0.2967	0.0545	-0.041
Mof_C 	C 	0.9597	0.2409	0.1034	0.321
Mof_C 	C 	0.7577	0.4599	0.0805	0.083
Mof_C 	C 	0.7044	0.4399	0.1384	-0.151
Mof_H 	H 	0.7057	0.3908	0.1569	0.084
Mof_C 	C 	0.6485	0.4912	0.1701	0.066
Mof_H 	H 	0.6112	0.4759	0.2082	0.006
Mof_C 	C 	0.6483	0.5665	0.1444	-0.131
Mof_C 	C 	0.7027	0.5868	0.0886	0.066
Mof_H 	H 	0.702	0.6363	0.0708	0.024
Mof_C 	C 	0.7595	0.5361	0.057	-0.137
Mof_H 	H 	0.7985	0.5521	0.0207	0.089
Mof_C 	C 	0.5848	0.6202	0.178	0.346
Mof_C 	C 	0.7527	0.4362	0.9068	0.086
Mof_C 	C 	0.7828	0.4623	0.8377	-0.153
Mof_H 	H 	0.8399	0.4548	0.8261	0.083
Mof_C 	C 	0.7297	0.4995	0.7854	0.062
Mof_H 	H 	0.7517	0.5156	0.7387	0.012
Mof_C 	C 	0.6484	0.5129	0.7997	-0.136
Mof_C 	C 	0.6145	0.4862	0.8695	0.044
Mof_H 	H 	0.5573	0.4941	0.8805	0.024
Mof_C 	C 	0.6674	0.4486	0.9207	-0.144
Mof_H 	H 	0.645	0.4307	0.9666	0.083
Mof_C 	C 	0.5902	0.5512	0.7401	0.327
Mof_C 	C 	0.2033	0.214	0.7966	-0.013
Mof_H 	H 	0.2251	0.1977	0.8444	0.027
Mof_C 	C 	0.2456	0.252	0.7459	0.018
Mof_H 	H 	0.3016	0.269	0.7519	0.033
Mof_C 	C 	0.118	0.2308	0.6998	0.118
Mof_H 	H 	0.0703	0.2302	0.6664	-0.02
Mof_C 	C 	0.2153	0.3006	0.6111	0.223
Mof_C 	C 	0.1912	0.2736	0.5402	-0.288
Mof_H 	H 	0.1581	0.2302	0.5362	0.136
Mof_C 	C 	0.2158	0.3105	0.4743	0.234
Mof_C 	C 	0.2665	0.3772	0.48	-0.293
Mof_H 	H 	0.2823	0.4028	0.4357	0.154
Mof_C 	C 	0.2907	0.402	0.5504	0.252
Mof_C 	C 	0.2643	0.3681	0.6189	-0.276
Mof_H 	H 	0.278	0.3886	0.6673	0.137
Mof_C 	C 	0.1216	0.2438	0.3758	0.117
Mof_H 	H 	0.0773	0.2315	0.4084	-0.015
Mof_C 	C 	0.1995	0.2525	0.2772	0.001
Mof_H 	H 	0.218	0.2465	0.2268	0.002
Mof_C 	C 	0.243	0.286	0.3324	0.001
Mof_H 	H 	0.2964	0.3084	0.3284	0.047
Mof_C 	C 	0.3702	0.5059	0.6152	0.158
Mof_H 	H 	0.3519	0.493	0.6643	-0.031
Mof_C 	C 	0.3093	0.5405	0.5084	0.011
Mof_H 	H 	0.2728	0.543	0.4649	0.028
Mof_C 	C 	0.3568	0.5976	0.539	-0.042
Mof_H 	H 	0.3567	0.6471	0.5216	0.045
Mof_N 	N 	0.357	0.463	0.559	-0.035
Mof_C 	C 	0.4175	0.4789	0.507	-0.023
Mof_H 	H 	0.4314	0.4529	0.4623	0.047
Mof_C 	C 	0.4532	0.5437	0.5375	-0.002
Mof_H 	H 	0.4997	0.5687	0.5171	0.03
Mof_Zn	Zn	0.5303	0.35861	0.32499	1.21
Mof_Zn	Zn	0.53433	0.32244	0.73463	1.192
Mof_N 	N 	0.6198	0.2986	0.268	-0.263
Mof_N 	N 	0.6934	0.2374	0.1824	-0.163
Mof_N 	N 	0.6941	0.2182	0.8989	-0.157
Mof_N 	N 	0.6226	0.2728	0.8033	-0.281
Mof_N 	N 	0.9088	0.9327	0.105	-0.268
Mof_N 	N 	0.826	0.026	0.057	-0.117
Mof_O 	O 	0.4485	0.298	0.3814	-0.467
Mof_O 	O 	0.5585	0.2473	0.4403	-0.311
Mof_O 	O 	0.4759	0.2434	0.673	-0.459
Mof_O 	O 	0.4783	0.3208	0.5716	-0.308
Mof_O 	O 	0.0446	0.903	0.7367	-0.465
Mof_O 	O 	0.0723	0.8191	0.6474	-0.34
Mof_O 	O 	0.0333	0.9041	0.264	-0.44
Mof_O 	O 	0.1015	0.9625	0.17	-0.327
Mof_C 	C 	0.4787	0.2576	0.4317	0.354
Mof_C 	C 	0.4184	0.2071	0.4744	-0.045
Mof_C 	C 	0.367	0.1583	0.4272	-0.029
Mof_H 	H 	0.3703	0.1608	0.3735	0.047
Mof_C 	C 	0.3108	0.106	0.461	-0.015
Mof_C 	C 	0.3108	0.0986	0.541	-0.018
Mof_C 	C 	0.3617	0.1485	0.5879	-0.03
Mof_H 	H 	0.3601	0.1448	0.6417	0.056
Mof_C 	C 	0.4146	0.2033	0.5545	-0.046
Mof_C 	C 	0.4597	0.2591	0.6034	0.323
Mof_C 	C 	0.2577	0.0401	0.5805	0.072
Mof_C 	C 	0.2044	0.0601	0.6384	-0.139
Mof_H 	H 	0.2057	0.1092	0.6569	0.079
Mof_C 	C 	0.1485	0.0088	0.6701	0.048
Mof_H 	H 	0.1112	0.0241	0.7082	0.009
Mof_C 	C 	0.1483	0.9335	0.6444	-0.115
Mof_C 	C 	0.2027	0.9132	0.5886	0.053
Mof_H 	H 	0.202	0.8637	0.5708	0.029
Mof_C 	C 	0.2595	0.9639	0.557	-0.122
Mof_H 	H 	0.2985	0.9479	0.5207	0.084
Mof_C 	C 	0.0848	0.8798	0.678	0.341
Mof_C 	C 	0.2527	0.0638	0.4068	0.064
Mof_C 	C 	0.2828	0.0377	0.3377	-0.121
Mof_H 	H 	0.3399	0.0452	0.3261	0.072
Mof_C 	C 	0.2297	0.0005	0.2854	0.016
Mof_H 	H 	0.2517	0.9844	0.2387	0.031
Mof_C 	C 	0.1484	0.9871	0.2997	-0.099
Mof_C 	C 	0.1145	0.0138	0.3695	0.01
Mof_H 	H 	0.0573	0.0059	0.3805	0.033
Mof_C 	C 	0.1674	0.0514	0.4207	-0.118
Mof_H 	H 	0.145	0.0693	0.4666	0.074
Mof_C 	C 	0.0902	0.9488	0.2401	0.315
Mof_C 	C 	0.7033	0.286	0.2966	-0.012
Mof_H 	H 	0.7251	0.3023	0.3444	0.027
Mof_C 	C 	0.7456	0.248	0.2459	0.018
Mof_H 	H 	0.8016	0.231	0.2519	0.033
Mof_C 	C 	0.618	0.2692	0.1998	0.118
Mof_H 	H 	0.5703	0.2698	0.1664	-0.019
Mof_C 	C 	0.7153	0.1994	0.1111	0.222
Mof_C 	C 	0.6912	0.2264	0.0402	-0.286
Mof_H 	H 	0.6581	0.2698	0.0362	0.136
Mof_C 	C 	0.7158	0.1895	0.9743	0.232
Mof_C 	C 	0.7665	0.1228	0.98	-0.293
Mof_H 	H 	0.7823	0.0972	0.9357	0.153
Mof_C 	C 	0.7907	0.098	0.0504	0.25
Mof_C 	C 	0.7643	0.1319	0.1189	-0.274
Mof_H 	H 	0.778	0.1114	0.1673	0.137
Mof_C 	C 	0.6216	0.2562	0.8758	0.117
Mof_H 	H 	0.5773	0.2685	0.9084	-0.014
Mof_C 	C 	0.6995	0.2475	0.7772	0.002
Mof_H 	H 	0.718	0.2535	0.7268	0.003
Mof_C 	C 	0.743	0.214	0.8324	0.001
Mof_H 	H 	0.7964	0.1916	0.8284	0.047
Mof_C 	C 	0.8702	0.9941	0.1152	0.141
Mof_H 	H 	0.8519	0.007	0.1643	-0.021
Mof_C 	C 	0.8093	0.9595	0.0084	-0.004
Mof_H 	H 	0.7728	0.957	0.9649	0.031
Mof_C 	C 	0.8568	0.9024	0.039	-0.033
Mof_H 	H 	0.8567	0.8529	0.0216	0.041
Mof_N 	N 	0.857	0.037	0.059	-0.054
Mof_C 	C 	0.9175	0.0211	0.007	0.006
Mof_H 	H 	0.9314	0.0471	0.9623	0.038
Mof_C 	C 	0.9532	0.9563	0.0375	-0.022
Mof_H 	H 	0.9997	0.9313	0.0171	0.034
Mof_Zn	Zn	0.9697	0.85861	0.17501	1.209
Mof_Zn	Zn	0.96567	0.82244	0.76537	1.189
Mof_N 	N 	0.8802	0.7986	0.232	-0.264
Mof_N 	N 	0.8066	0.7374	0.3176	-0.164
Mof_N 	N 	0.8059	0.7182	0.6011	-0.158
Mof_N 	N 	0.8774	0.7728	0.6967	-0.282
Mof_N 	N 	0.5912	0.4327	0.395	-0.272
Mof_N 	N 	0.674	0.526	0.443	-0.14
Mof_O 	O 	0.0515	0.798	0.1186	-0.467
Mof_O 	O 	0.9415	0.7473	0.0597	-0.314
Mof_O 	O 	0.0241	0.7434	0.827	-0.457
Mof_O 	O 	0.0217	0.8208	0.9284	-0.305
Mof_O 	O 	0.4554	0.403	0.7633	-0.47
Mof_O 	O 	0.4277	0.3191	0.8526	-0.343
Mof_O 	O 	0.4667	0.4041	0.236	-0.446
Mof_O 	O 	0.3985	0.4625	0.33	-0.332
Mof_C 	C 	0.0213	0.7576	0.0683	0.358
Mof_C 	C 	0.0816	0.7071	0.0256	-0.05
Mof_C 	C 	0.133	0.6583	0.0728	-0.023
Mof_H 	H 	0.1297	0.6608	0.1265	0.045
Mof_C 	C 	0.1892	0.606	0.039	-0.025
Mof_C 	C 	0.1892	0.5986	0.959	-0.015
Mof_C 	C 	0.1383	0.6485	0.9121	-0.033
Mof_H 	H 	0.1399	0.6448	0.8583	0.057
Mof_C 	C 	0.0854	0.7033	0.9455	-0.041
Mof_C 	C 	0.0403	0.7591	0.8966	0.321
Mof_C 	C 	0.2423	0.5401	0.9195	0.083
Mof_C 	C 	0.2956	0.5601	0.8616	-0.151
Mof_H 	H 	0.2943	0.6092	0.8431	0.084
Mof_C 	C 	0.3515	0.5088	0.8299	0.066
Mof_H 	H 	0.3888	0.5241	0.7918	0.006
Mof_C 	C 	0.3517	0.4335	0.8556	-0.131
Mof_C 	C 	0.2973	0.4132	0.9114	0.066
Mof_H 	H 	0.298	0.3637	0.9292	0.024
Mof_C 	C 	0.2405	0.4639	0.943	-0.137
Mof_H 	H 	0.2015	0.4479	0.9793	0.089
Mof_C 	C 	0.4152	0.3798	0.822	0.346
Mof_C 	C 	0.2473	0.5638	0.0932	0.086
Mof_C 	C 	0.2172	0.5377	0.1623	-0.153
Mof_H 	H 	0.1601	0.5452	0.1739	0.083
Mof_C 	C 	0.2703	0.5005	0.2146	0.062
Mof_H 	H 	0.2483	0.4844	0.2613	0.012
Mof_C 	C 	0.3516	0.4871	0.2003	-0.136
Mof_C 	C 	0.3855	0.5138	0.1305	0.044
Mof_H 	H 	0.4427	0.5059	0.1195	0.024
Mof_C 	C 	0.3326	0.5514	0.0793	-0.144
Mof_H 	H 	0.355	0.5693	0.0334	0.083
Mof_C 	C 	0.4098	0.4488	0.2599	0.327
Mof_C 	C 	0.7967	0.786	0.2034	-0.013
Mof_H 	H 	0.7749	0.8023	0.1556	0.027
Mof_C 	C 	0.7544	0.748	0.2541	0.018
Mof_H 	H 	0.6984	0.731	0.2481	0.033
Mof_C 	C 	0.882	0.7692	0.3002	0.118
Mof_H 	H 	0.9297	0.7698	0.3336	-0.02
Mof_C 	C 	0.7847	0.6994	0.3889	0.223
Mof_C 	C 	0.8088	0.7264	0.4598	-0.288
Mof_H 	H 	0.8419	0.7698	0.4638	0.136
Mof_C 	C 	0.7842	0.6895	0.5257	0.234
Mof_C 	C 	0.7335	0.6228	0.52	-0.293
Mof_H 	H 	0.7177	0.5972	0.5643	0.154
Mof_C 	C 	0.7093	0.598	0.4496	0.252
Mof_C 	C 	0.7357	0.6319	0.3811	-0.276
Mof_H 	H 	0.722	0.6114	0.3327	0.137
Mof_C 	C 	0.8784	0.7562	0.6242	0.117
Mof_H 	H 	0.9227	0.7685	0.5916	-0.015
Mof_C 	C 	0.8005	0.7475	0.7228	0.001
Mof_H 	H 	0.782	0.7535	0.7732	0.002
Mof_C 	C 	0.757	0.714	0.6676	0.001
Mof_H 	H 	0.7036	0.6916	0.6716	0.047
Mof_C 	C 	0.6298	0.4941	0.3848	0.158
Mof_H 	H 	0.6481	0.507	0.3357	-0.031
Mof_C 	C 	0.6907	0.4595	0.4916	0.011
Mof_H 	H 	0.7272	0.457	0.5351	0.028
Mof_C 	C 	0.6432	0.4024	0.461	-0.042
Mof_H 	H 	0.6433	0.3529	0.4784	0.045
Mof_N 	N 	0.643	0.537	0.441	-0.035
Mof_C 	C 	0.5825	0.5211	0.493	-0.023
Mof_H 	H 	0.5686	0.5471	0.5377	0.047
Mof_C 	C 	0.5468	0.4563	0.4625	-0.002
Mof_H 	H 	0.5003	0.4313	0.4829	0.03
_end
