data_functionalizedCrystal
_audit_creation_method	'EQeq! by Chris Wilmer'
_symmetry_space_group_name_H-M	'P1'
_symmetry_Int_Tables_number	1
_symmetry_cell_setting	triclinic
loop_
_symmetry_equiv_pos_as_xyz
  x,y,z
_cell_length_a	12.264
_cell_length_b	12.264
_cell_length_c	5.2535
_cell_angle_alpha	90
_cell_angle_beta	90
_cell_angle_gamma	90
loop_
_atom_site_label
_atom_site_type_symbol
_atom_site_fract_x
_atom_site_fract_y
_atom_site_fract_z
_atom_site_charge
Mof_Co	Co	0.17871	0.5153	0.21753	1.164
Mof_S 	S 	0.06093	0.19272	0.1529	0.034
Mof_N 	N 	0.1159	0.3736	0.4019	-0.272
Mof_H 	H 	0.0909	0.3957	0.5267	0.151
Mof_C 	C 	0.0244	0.3302	0.2529	-0.141
Mof_H 	H 	0.9585	0.3279	0.3585	0.086
Mof_C 	C 	0.003	0.3962	0.0164	0.363
Mof_C 	C 	0.2035	0.2936	0.435	-0.096
Mof_H 	H 	0.2341	0.3024	0.6061	0.05
Mof_C 	C 	0.2931	0.3139	0.2428	0.335
Mof_C 	C 	0.1545	0.1812	0.4156	-0.122
Mof_H 	H 	0.1166	0.1617	0.5711	0.074
Mof_H 	H 	0.2102	0.127	0.3811	0.078
Mof_O 	O 	0.9182	0.3721	0.8974	-0.435
Mof_O 	O 	0.0698	0.4677	0.946	-0.443
Mof_O 	O 	0.2927	0.3988	0.114	-0.417
Mof_O 	O 	0.3674	0.2434	0.2208	-0.407
Mof_Co	Co	0.82129	0.4847	0.71753	1.164
Mof_S 	S 	0.93907	0.80728	0.6529	0.035
Mof_N 	N 	0.8841	0.6264	0.9019	-0.274
Mof_H 	H 	0.9091	0.6043	0.0267	0.154
Mof_C 	C 	0.9756	0.6698	0.7529	-0.141
Mof_H 	H 	0.0415	0.6721	0.8585	0.085
Mof_C 	C 	0.997	0.6038	0.5164	0.363
Mof_C 	C 	0.7965	0.7064	0.935	-0.1
Mof_H 	H 	0.7659	0.6976	0.1061	0.054
Mof_C 	C 	0.7069	0.6861	0.7428	0.336
Mof_C 	C 	0.8455	0.8188	0.9156	-0.13
Mof_H 	H 	0.8834	0.8383	0.0711	0.08
Mof_H 	H 	0.7898	0.873	0.8811	0.078
Mof_O 	O 	0.0818	0.6279	0.3974	-0.434
Mof_O 	O 	0.9302	0.5323	0.446	-0.443
Mof_O 	O 	0.7073	0.6012	0.614	-0.418
Mof_O 	O 	0.6326	0.7566	0.7208	-0.408
Mof_Co	Co	0.4847	0.17871	0.46753	1.164
Mof_S 	S 	0.80728	0.06093	0.4029	0.034
Mof_N 	N 	0.6264	0.1159	0.6519	-0.272
Mof_H 	H 	0.6043	0.0909	0.7767	0.15
Mof_C 	C 	0.6698	0.0244	0.5029	-0.139
Mof_H 	H 	0.6721	0.9585	0.6085	0.084
Mof_C 	C 	0.6038	0.003	0.2664	0.36
Mof_C 	C 	0.7064	0.2035	0.685	-0.096
Mof_H 	H 	0.6976	0.2341	0.8561	0.049
Mof_C 	C 	0.6861	0.2931	0.4928	0.335
Mof_C 	C 	0.8188	0.1545	0.6656	-0.122
Mof_H 	H 	0.8383	0.1166	0.8211	0.073
Mof_H 	H 	0.873	0.2102	0.6311	0.077
Mof_O 	O 	0.6279	0.9182	0.1474	-0.429
Mof_O 	O 	0.5323	0.0698	0.196	-0.442
Mof_O 	O 	0.6012	0.2927	0.364	-0.417
Mof_O 	O 	0.7566	0.3674	0.4708	-0.407
Mof_Co	Co	0.5153	0.82129	0.96753	1.161
Mof_S 	S 	0.19272	0.93907	0.9029	0.024
Mof_N 	N 	0.3736	0.8841	0.1519	-0.272
Mof_H 	H 	0.3957	0.9091	0.2767	0.152
Mof_C 	C 	0.3302	0.9756	0.0029	-0.125
Mof_H 	H 	0.3279	0.0415	0.1085	0.08
Mof_C 	C 	0.3962	0.997	0.7664	0.353
Mof_C 	C 	0.2936	0.7965	0.185	-0.092
Mof_H 	H 	0.3024	0.7659	0.3561	0.049
Mof_C 	C 	0.3139	0.7069	0.9928	0.331
Mof_C 	C 	0.1812	0.8455	0.1656	-0.118
Mof_H 	H 	0.1617	0.8834	0.3211	0.073
Mof_H 	H 	0.127	0.7898	0.1311	0.077
Mof_O 	O 	0.3721	0.0818	0.6474	-0.431
Mof_O 	O 	0.4677	0.9302	0.696	-0.442
Mof_O 	O 	0.3988	0.7073	0.864	-0.418
Mof_O 	O 	0.2434	0.6326	0.9708	-0.407
_end
