data_functionalizedCrystal
_audit_creation_method	'EQeq! by Chris Wilmer'
_symmetry_space_group_name_H-M	'P1'
_symmetry_Int_Tables_number	1
_symmetry_cell_setting	triclinic
loop_
_symmetry_equiv_pos_as_xyz
  x,y,z
_cell_length_a	12.848
_cell_length_b	13.37
_cell_length_c	13.967
_cell_angle_alpha	90
_cell_angle_beta	90
_cell_angle_gamma	90
loop_
_atom_site_label
_atom_site_type_symbol
_atom_site_fract_x
_atom_site_fract_y
_atom_site_fract_z
_atom_site_charge
Mof_Cu	Cu	0.39472	0.18663	0.63628	0.797
Mof_Cu	Cu	0.54851	0.05078	0.9417	0.777
Mof_C 	C 	0.46395	0.13169	0.74539	-0.279
Mof_N 	N 	0.49498	0.09973	0.81703	-0.22
Mof_C 	C 	0.45686	0.3935	0.55453	-0.365
Mof_N 	N 	0.42683	0.32222	0.59089	-0.215
Mof_C 	C 	0.27699	0.12684	0.5722	-0.272
Mof_N 	N 	0.19587	0.09534	0.553	-0.223
Mof_Cu	Cu	0.10528	0.81337	0.13628	0.796
Mof_Cu	Cu	0.95149	0.94922	0.4417	0.774
Mof_C 	C 	0.03605	0.86831	0.24539	-0.279
Mof_N 	N 	0.00502	0.90027	0.31703	-0.219
Mof_C 	C 	0.04314	0.6065	0.05453	-0.366
Mof_N 	N 	0.07317	0.67778	0.09089	-0.215
Mof_C 	C 	0.22301	0.87316	0.0722	-0.271
Mof_N 	N 	0.30413	0.90466	0.053	-0.222
Mof_Cu	Cu	0.60528	0.68663	0.86372	0.796
Mof_Cu	Cu	0.45149	0.55078	0.5583	0.777
Mof_C 	C 	0.53605	0.63169	0.75461	-0.28
Mof_N 	N 	0.50502	0.59973	0.68297	-0.221
Mof_C 	C 	0.54314	0.8935	0.94547	-0.363
Mof_N 	N 	0.57317	0.82222	0.90911	-0.215
Mof_C 	C 	0.72301	0.62684	0.9278	-0.272
Mof_N 	N 	0.80413	0.59534	0.947	-0.222
Mof_Cu	Cu	0.89472	0.31337	0.36372	0.796
Mof_Cu	Cu	0.04851	0.44922	0.0583	0.776
Mof_C 	C 	0.96395	0.36831	0.25461	-0.279
Mof_N 	N 	0.99498	0.40027	0.18297	-0.22
Mof_C 	C 	0.95686	0.1065	0.44547	-0.361
Mof_N 	N 	0.92683	0.17778	0.40911	-0.215
Mof_C 	C 	0.77699	0.37316	0.4278	-0.271
Mof_N 	N 	0.69587	0.40466	0.447	-0.222
Mof_Cu	Cu	0.60528	0.81337	0.36372	0.796
Mof_Cu	Cu	0.45149	0.94922	0.0583	0.776
Mof_C 	C 	0.53605	0.86831	0.25461	-0.28
Mof_N 	N 	0.50502	0.90027	0.18297	-0.221
Mof_C 	C 	0.54314	0.6065	0.44547	-0.365
Mof_N 	N 	0.57317	0.67778	0.40911	-0.215
Mof_C 	C 	0.72301	0.87316	0.4278	-0.272
Mof_N 	N 	0.80413	0.90466	0.447	-0.223
Mof_Cu	Cu	0.89472	0.18663	0.86372	0.796
Mof_Cu	Cu	0.04851	0.05078	0.5583	0.774
Mof_C 	C 	0.96395	0.13169	0.75461	-0.279
Mof_N 	N 	0.99498	0.09973	0.68297	-0.219
Mof_C 	C 	0.95686	0.3935	0.94547	-0.366
Mof_N 	N 	0.92683	0.32222	0.90911	-0.215
Mof_C 	C 	0.77699	0.12684	0.9278	-0.271
Mof_N 	N 	0.69587	0.09534	0.947	-0.222
Mof_Cu	Cu	0.39472	0.31337	0.13628	0.796
Mof_Cu	Cu	0.54851	0.44922	0.4417	0.777
Mof_C 	C 	0.46395	0.36831	0.24539	-0.28
Mof_N 	N 	0.49498	0.40027	0.31703	-0.221
Mof_C 	C 	0.45686	0.1065	0.05453	-0.363
Mof_N 	N 	0.42683	0.17778	0.09089	-0.215
Mof_C 	C 	0.27699	0.37316	0.0722	-0.272
Mof_N 	N 	0.19587	0.40466	0.053	-0.222
Mof_Cu	Cu	0.10528	0.68663	0.63628	0.796
Mof_Cu	Cu	0.95149	0.55078	0.9417	0.776
Mof_C 	C 	0.03605	0.63169	0.74539	-0.279
Mof_N 	N 	0.00502	0.59973	0.81703	-0.22
Mof_C 	C 	0.04314	0.8935	0.55453	-0.361
Mof_N 	N 	0.07317	0.82222	0.59089	-0.215
Mof_C 	C 	0.22301	0.62684	0.5722	-0.271
Mof_N 	N 	0.30413	0.59534	0.553	-0.222
_end
