data_functionalizedCrystal
_audit_creation_method	'EQeq! by Chris Wilmer'
_symmetry_space_group_name_H-M	'P1'
_symmetry_Int_Tables_number	1
_symmetry_cell_setting	triclinic
loop_
_symmetry_equiv_pos_as_xyz
  x,y,z
_cell_length_a	18.525
_cell_length_b	18.525
_cell_length_c	38.83
_cell_angle_alpha	90
_cell_angle_beta	90
_cell_angle_gamma	120
loop_
_atom_site_label
_atom_site_type_symbol
_atom_site_fract_x
_atom_site_fract_y
_atom_site_fract_z
_atom_site_charge
Mof_C 	C 	0.02688	0.24222	0.30596	0.328
Mof_C 	C 	0.94635	0.1833	0.28865	0.042
Mof_C 	C 	0.93255	0.19808	0.25502	-0.129
Mof_H 	H 	0.9721	0.2474	0.2435	0.176
Mof_C 	C 	0.8294	0.0956	0.17634	0.216
Mof_C 	C 	0.8496	0.2263	0.19049	0.231
Mof_O 	O 	0.07824	0.30463	0.28907	-0.358
Mof_O 	O 	0.03781	0.22275	0.33595	-0.371
Mof_F 	F 	0.8269	0.0227	0.18487	-0.314
Mof_F 	F 	0.8643	0.2868	0.2135	-0.324
Mof_C 	C 	0.69355	0.57555	0.63929	0.328
Mof_C 	C 	0.61302	0.51663	0.62198	0.039
Mof_C 	C 	0.59922	0.53141	0.58835	-0.129
Mof_H 	H 	0.63877	0.58073	0.57683	0.174
Mof_C 	C 	0.49607	0.42893	0.50967	0.216
Mof_C 	C 	0.51627	0.55963	0.52382	0.23
Mof_O 	O 	0.74491	0.63796	0.6224	-0.358
Mof_O 	O 	0.70448	0.55608	0.66928	-0.371
Mof_F 	F 	0.49357	0.35603	0.5182	-0.314
Mof_F 	F 	0.53097	0.62013	0.54683	-0.325
Mof_C 	C 	0.36021	0.90889	0.97263	0.328
Mof_C 	C 	0.27968	0.84997	0.95532	0.039
Mof_C 	C 	0.26588	0.86475	0.92169	-0.129
Mof_H 	H 	0.30543	0.91407	0.91017	0.174
Mof_C 	C 	0.16273	0.76227	0.84301	0.216
Mof_C 	C 	0.18293	0.89297	0.85716	0.231
Mof_O 	O 	0.41157	0.9713	0.95574	-0.358
Mof_O 	O 	0.37114	0.88942	0.00262	-0.371
Mof_F 	F 	0.16023	0.68937	0.85154	-0.314
Mof_F 	F 	0.19763	0.95347	0.88017	-0.325
Mof_C 	C 	0.75778	0.78466	0.30596	0.328
Mof_C 	C 	0.8167	0.76305	0.28865	0.04
Mof_C 	C 	0.80192	0.73447	0.25502	-0.13
Mof_H 	H 	0.7526	0.7247	0.2435	0.174
Mof_C 	C 	0.9044	0.7338	0.17634	0.216
Mof_C 	C 	0.7737	0.6233	0.19049	0.231
Mof_O 	O 	0.69537	0.77361	0.28907	-0.358
Mof_O 	O 	0.77725	0.81506	0.33595	-0.371
Mof_F 	F 	0.9773	0.8042	0.18487	-0.314
Mof_F 	F 	0.7132	0.5775	0.2135	-0.325
Mof_C 	C 	0.42445	0.11799	0.63929	0.328
Mof_C 	C 	0.48337	0.09638	0.62198	0.039
Mof_C 	C 	0.46859	0.0678	0.58835	-0.129
Mof_H 	H 	0.41927	0.05803	0.57683	0.174
Mof_C 	C 	0.57107	0.06713	0.50967	0.216
Mof_C 	C 	0.44037	0.95663	0.52382	0.231
Mof_O 	O 	0.36204	0.10694	0.6224	-0.358
Mof_O 	O 	0.44392	0.14839	0.66928	-0.371
Mof_F 	F 	0.64397	0.13753	0.5182	-0.314
Mof_F 	F 	0.37987	0.91083	0.54683	-0.324
Mof_C 	C 	0.09111	0.45133	0.97263	0.328
Mof_C 	C 	0.15003	0.42972	0.95532	0.039
Mof_C 	C 	0.13525	0.40114	0.92169	-0.129
Mof_H 	H 	0.08593	0.39137	0.91017	0.174
Mof_C 	C 	0.23773	0.40047	0.84301	0.216
Mof_C 	C 	0.10703	0.28997	0.85716	0.231
Mof_O 	O 	0.0287	0.44028	0.95574	-0.358
Mof_O 	O 	0.11058	0.48173	0.00262	-0.371
Mof_F 	F 	0.31063	0.47087	0.85154	-0.314
Mof_F 	F 	0.04653	0.24417	0.88017	-0.325
Mof_C 	C 	0.21534	0.97312	0.30596	0.327
Mof_C 	C 	0.23695	0.05365	0.28865	0.041
Mof_C 	C 	0.26553	0.06745	0.25502	-0.13
Mof_H 	H 	0.2753	0.0279	0.2435	0.174
Mof_C 	C 	0.2662	0.1706	0.17634	0.216
Mof_C 	C 	0.3767	0.1504	0.19049	0.231
Mof_O 	O 	0.22639	0.92176	0.28907	-0.358
Mof_O 	O 	0.18494	0.96219	0.33595	-0.371
Mof_F 	F 	0.1958	0.1731	0.18487	-0.314
Mof_F 	F 	0.4225	0.1357	0.2135	-0.324
Mof_C 	C 	0.88201	0.30645	0.63929	0.328
Mof_C 	C 	0.90362	0.38698	0.62198	0.039
Mof_C 	C 	0.9322	0.40078	0.58835	-0.129
Mof_H 	H 	0.94197	0.36123	0.57683	0.174
Mof_C 	C 	0.93287	0.50393	0.50967	0.216
Mof_C 	C 	0.04337	0.48373	0.52382	0.231
Mof_O 	O 	0.89306	0.25509	0.6224	-0.358
Mof_O 	O 	0.85161	0.29552	0.66928	-0.371
Mof_F 	F 	0.86247	0.50643	0.5182	-0.314
Mof_F 	F 	0.08917	0.46903	0.54683	-0.324
Mof_C 	C 	0.54867	0.63979	0.97263	0.328
Mof_C 	C 	0.57028	0.72032	0.95532	0.039
Mof_C 	C 	0.59886	0.73412	0.92169	-0.129
Mof_H 	H 	0.60863	0.69457	0.91017	0.174
Mof_C 	C 	0.59953	0.83727	0.84301	0.216
Mof_C 	C 	0.71003	0.81707	0.85716	0.23
Mof_O 	O 	0.55972	0.58843	0.95574	-0.358
Mof_O 	O 	0.51827	0.62886	0.00262	-0.371
Mof_F 	F 	0.52913	0.83977	0.85154	-0.314
Mof_F 	F 	0.75583	0.80237	0.88017	-0.325
Mof_C 	C 	0.24222	0.02688	0.69404	0.327
Mof_C 	C 	0.1833	0.94635	0.71135	0.041
Mof_C 	C 	0.19808	0.93255	0.74498	-0.13
Mof_H 	H 	0.2474	0.9721	0.7565	0.175
Mof_C 	C 	0.0956	0.8294	0.82366	0.216
Mof_C 	C 	0.2263	0.8496	0.80951	0.231
Mof_O 	O 	0.30463	0.07824	0.71093	-0.358
Mof_O 	O 	0.22275	0.03781	0.66405	-0.371
Mof_F 	F 	0.0227	0.8269	0.81513	-0.314
Mof_F 	F 	0.2868	0.8643	0.7865	-0.324
Mof_C 	C 	0.90889	0.36021	0.02737	0.328
Mof_C 	C 	0.84997	0.27968	0.04468	0.039
Mof_C 	C 	0.86475	0.26588	0.07831	-0.129
Mof_H 	H 	0.91407	0.30543	0.08983	0.174
Mof_C 	C 	0.76227	0.16273	0.15699	0.216
Mof_C 	C 	0.89297	0.18293	0.14284	0.231
Mof_O 	O 	0.9713	0.41157	0.04426	-0.358
Mof_O 	O 	0.88942	0.37114	0.99738	-0.371
Mof_F 	F 	0.68937	0.16023	0.14846	-0.314
Mof_F 	F 	0.95347	0.19763	0.11983	-0.325
Mof_C 	C 	0.57555	0.69355	0.36071	0.328
Mof_C 	C 	0.51663	0.61302	0.37802	0.039
Mof_C 	C 	0.53141	0.59922	0.41165	-0.129
Mof_H 	H 	0.58073	0.63877	0.42317	0.174
Mof_C 	C 	0.42893	0.49607	0.49033	0.216
Mof_C 	C 	0.55963	0.51627	0.47618	0.23
Mof_O 	O 	0.63796	0.74491	0.3776	-0.358
Mof_O 	O 	0.55608	0.70448	0.33072	-0.371
Mof_F 	F 	0.35603	0.49357	0.4818	-0.314
Mof_F 	F 	0.62013	0.53097	0.45317	-0.325
Mof_C 	C 	0.78466	0.75778	0.69404	0.328
Mof_C 	C 	0.76305	0.8167	0.71135	0.04
Mof_C 	C 	0.73447	0.80192	0.74498	-0.13
Mof_H 	H 	0.7247	0.7526	0.7565	0.174
Mof_C 	C 	0.7338	0.9044	0.82366	0.216
Mof_C 	C 	0.6233	0.7737	0.80951	0.231
Mof_O 	O 	0.77361	0.69537	0.71093	-0.358
Mof_O 	O 	0.81506	0.77725	0.66405	-0.371
Mof_F 	F 	0.8042	0.9773	0.81513	-0.314
Mof_F 	F 	0.5775	0.7132	0.7865	-0.325
Mof_C 	C 	0.45133	0.09111	0.02737	0.328
Mof_C 	C 	0.42972	0.15003	0.04468	0.039
Mof_C 	C 	0.40114	0.13525	0.07831	-0.129
Mof_H 	H 	0.39137	0.08593	0.08983	0.174
Mof_C 	C 	0.40047	0.23773	0.15699	0.216
Mof_C 	C 	0.28997	0.10703	0.14284	0.231
Mof_O 	O 	0.44028	0.0287	0.04426	-0.358
Mof_O 	O 	0.48173	0.11058	0.99738	-0.371
Mof_F 	F 	0.47087	0.31063	0.14846	-0.314
Mof_F 	F 	0.24417	0.04653	0.11983	-0.325
Mof_C 	C 	0.11799	0.42445	0.36071	0.328
Mof_C 	C 	0.09638	0.48337	0.37802	0.039
Mof_C 	C 	0.0678	0.46859	0.41165	-0.129
Mof_H 	H 	0.05803	0.41927	0.42317	0.174
Mof_C 	C 	0.06713	0.57107	0.49033	0.216
Mof_C 	C 	0.95663	0.44037	0.47618	0.231
Mof_O 	O 	0.10694	0.36204	0.3776	-0.358
Mof_O 	O 	0.14839	0.44392	0.33072	-0.371
Mof_F 	F 	0.13753	0.64397	0.4818	-0.314
Mof_F 	F 	0.91083	0.37987	0.45317	-0.324
Mof_C 	C 	0.97312	0.21534	0.69404	0.327
Mof_C 	C 	0.05365	0.23695	0.71135	0.041
Mof_C 	C 	0.06745	0.26553	0.74498	-0.13
Mof_H 	H 	0.0279	0.2753	0.7565	0.174
Mof_C 	C 	0.1706	0.2662	0.82366	0.216
Mof_C 	C 	0.1504	0.3767	0.80951	0.231
Mof_O 	O 	0.92176	0.22639	0.71093	-0.358
Mof_O 	O 	0.96219	0.18494	0.66405	-0.371
Mof_F 	F 	0.1731	0.1958	0.81513	-0.314
Mof_F 	F 	0.1357	0.4225	0.7865	-0.324
Mof_C 	C 	0.63979	0.54867	0.02737	0.328
Mof_C 	C 	0.72032	0.57028	0.04468	0.039
Mof_C 	C 	0.73412	0.59886	0.07831	-0.129
Mof_H 	H 	0.69457	0.60863	0.08983	0.174
Mof_C 	C 	0.83727	0.59953	0.15699	0.216
Mof_C 	C 	0.81707	0.71003	0.14284	0.23
Mof_O 	O 	0.58843	0.55972	0.04426	-0.358
Mof_O 	O 	0.62886	0.51827	0.99738	-0.371
Mof_F 	F 	0.83977	0.52913	0.14846	-0.314
Mof_F 	F 	0.80237	0.75583	0.11983	-0.325
Mof_C 	C 	0.30645	0.88201	0.36071	0.328
Mof_C 	C 	0.38698	0.90362	0.37802	0.039
Mof_C 	C 	0.40078	0.9322	0.41165	-0.129
Mof_H 	H 	0.36123	0.94197	0.42317	0.174
Mof_C 	C 	0.50393	0.93287	0.49033	0.216
Mof_C 	C 	0.48373	0.04337	0.47618	0.231
Mof_O 	O 	0.25509	0.89306	0.3776	-0.358
Mof_O 	O 	0.29552	0.85161	0.33072	-0.371
Mof_F 	F 	0.50643	0.86247	0.4818	-0.314
Mof_F 	F 	0.46903	0.08917	0.45317	-0.324
Mof_C 	C 	0.97312	0.75778	0.69404	0.327
Mof_C 	C 	0.05365	0.8167	0.71135	0.041
Mof_C 	C 	0.06745	0.80192	0.74498	-0.13
Mof_H 	H 	0.0279	0.7526	0.7565	0.175
Mof_C 	C 	0.1706	0.9044	0.82366	0.216
Mof_C 	C 	0.1504	0.7737	0.80951	0.231
Mof_O 	O 	0.92176	0.69537	0.71093	-0.358
Mof_O 	O 	0.96219	0.77725	0.66405	-0.371
Mof_F 	F 	0.1731	0.9773	0.81513	-0.314
Mof_F 	F 	0.1357	0.7132	0.7865	-0.324
Mof_C 	C 	0.63979	0.09111	0.02737	0.328
Mof_C 	C 	0.72032	0.15003	0.04468	0.039
Mof_C 	C 	0.73412	0.13525	0.07831	-0.129
Mof_H 	H 	0.69457	0.08593	0.08983	0.174
Mof_C 	C 	0.83727	0.23773	0.15699	0.216
Mof_C 	C 	0.81707	0.10703	0.14284	0.231
Mof_O 	O 	0.58843	0.0287	0.04426	-0.358
Mof_O 	O 	0.62886	0.11058	0.99738	-0.371
Mof_F 	F 	0.83977	0.31063	0.14846	-0.314
Mof_F 	F 	0.80237	0.04653	0.11983	-0.325
Mof_C 	C 	0.30645	0.42445	0.36071	0.328
Mof_C 	C 	0.38698	0.48337	0.37802	0.039
Mof_C 	C 	0.40078	0.46859	0.41165	-0.129
Mof_H 	H 	0.36123	0.41927	0.42317	0.174
Mof_C 	C 	0.50393	0.57107	0.49033	0.216
Mof_C 	C 	0.48373	0.44037	0.47618	0.23
Mof_O 	O 	0.25509	0.36204	0.3776	-0.358
Mof_O 	O 	0.29552	0.44392	0.33072	-0.371
Mof_F 	F 	0.50643	0.64397	0.4818	-0.314
Mof_F 	F 	0.46903	0.37987	0.45317	-0.325
Mof_C 	C 	0.24222	0.21534	0.69404	0.328
Mof_C 	C 	0.1833	0.23695	0.71135	0.04
Mof_C 	C 	0.19808	0.26553	0.74498	-0.13
Mof_H 	H 	0.2474	0.2753	0.7565	0.174
Mof_C 	C 	0.0956	0.2662	0.82366	0.216
Mof_C 	C 	0.2263	0.3767	0.80951	0.231
Mof_O 	O 	0.30463	0.22639	0.71093	-0.358
Mof_O 	O 	0.22275	0.18494	0.66405	-0.371
Mof_F 	F 	0.0227	0.1958	0.81513	-0.314
Mof_F 	F 	0.2868	0.4225	0.7865	-0.325
Mof_C 	C 	0.90889	0.54867	0.02737	0.328
Mof_C 	C 	0.84997	0.57028	0.04468	0.039
Mof_C 	C 	0.86475	0.59886	0.07831	-0.129
Mof_H 	H 	0.91407	0.60863	0.08983	0.174
Mof_C 	C 	0.76227	0.59953	0.15699	0.216
Mof_C 	C 	0.89297	0.71003	0.14284	0.231
Mof_O 	O 	0.9713	0.55972	0.04426	-0.358
Mof_O 	O 	0.88942	0.51827	0.99738	-0.371
Mof_F 	F 	0.68937	0.52913	0.14846	-0.314
Mof_F 	F 	0.95347	0.75583	0.11983	-0.325
Mof_C 	C 	0.57555	0.88201	0.36071	0.328
Mof_C 	C 	0.51663	0.90362	0.37802	0.039
Mof_C 	C 	0.53141	0.9322	0.41165	-0.129
Mof_H 	H 	0.58073	0.94197	0.42317	0.174
Mof_C 	C 	0.42893	0.93287	0.49033	0.216
Mof_C 	C 	0.55963	0.04337	0.47618	0.231
Mof_O 	O 	0.63796	0.89306	0.3776	-0.358
Mof_O 	O 	0.55608	0.85161	0.33072	-0.371
Mof_F 	F 	0.35603	0.86247	0.4818	-0.314
Mof_F 	F 	0.62013	0.08917	0.45317	-0.324
Mof_C 	C 	0.78466	0.02688	0.69404	0.327
Mof_C 	C 	0.76305	0.94635	0.71135	0.041
Mof_C 	C 	0.73447	0.93255	0.74498	-0.13
Mof_H 	H 	0.7247	0.9721	0.7565	0.174
Mof_C 	C 	0.7338	0.8294	0.82366	0.216
Mof_C 	C 	0.6233	0.8496	0.80951	0.231
Mof_O 	O 	0.77361	0.07824	0.71093	-0.358
Mof_O 	O 	0.81506	0.03781	0.66405	-0.371
Mof_F 	F 	0.8042	0.8269	0.81513	-0.314
Mof_F 	F 	0.5775	0.8643	0.7865	-0.324
Mof_C 	C 	0.45133	0.36021	0.02737	0.328
Mof_C 	C 	0.42972	0.27968	0.04468	0.039
Mof_C 	C 	0.40114	0.26588	0.07831	-0.129
Mof_H 	H 	0.39137	0.30543	0.08983	0.174
Mof_C 	C 	0.40047	0.16273	0.15699	0.216
Mof_C 	C 	0.28997	0.18293	0.14284	0.23
Mof_O 	O 	0.44028	0.41157	0.04426	-0.358
Mof_O 	O 	0.48173	0.37114	0.99738	-0.371
Mof_F 	F 	0.47087	0.16023	0.14846	-0.314
Mof_F 	F 	0.24417	0.19763	0.11983	-0.325
Mof_C 	C 	0.11799	0.69355	0.36071	0.328
Mof_C 	C 	0.09638	0.61302	0.37802	0.039
Mof_C 	C 	0.0678	0.59922	0.41165	-0.129
Mof_H 	H 	0.05803	0.63877	0.42317	0.174
Mof_C 	C 	0.06713	0.49607	0.49033	0.216
Mof_C 	C 	0.95663	0.51627	0.47618	0.231
Mof_O 	O 	0.10694	0.74491	0.3776	-0.358
Mof_O 	O 	0.14839	0.70448	0.33072	-0.371
Mof_F 	F 	0.13753	0.49357	0.4818	-0.314
Mof_F 	F 	0.91083	0.53097	0.45317	-0.324
Mof_C 	C 	0.75778	0.97312	0.30596	0.327
Mof_C 	C 	0.8167	0.05365	0.28865	0.041
Mof_C 	C 	0.80192	0.06745	0.25502	-0.13
Mof_H 	H 	0.7526	0.0279	0.2435	0.175
Mof_C 	C 	0.9044	0.1706	0.17634	0.216
Mof_C 	C 	0.7737	0.1504	0.19049	0.231
Mof_O 	O 	0.69537	0.92176	0.28907	-0.358
Mof_O 	O 	0.77725	0.96219	0.33595	-0.371
Mof_F 	F 	0.9773	0.1731	0.18487	-0.314
Mof_F 	F 	0.7132	0.1357	0.2135	-0.324
Mof_C 	C 	0.42445	0.30645	0.63929	0.328
Mof_C 	C 	0.48337	0.38698	0.62198	0.039
Mof_C 	C 	0.46859	0.40078	0.58835	-0.129
Mof_H 	H 	0.41927	0.36123	0.57683	0.174
Mof_C 	C 	0.57107	0.50393	0.50967	0.216
Mof_C 	C 	0.44037	0.48373	0.52382	0.23
Mof_O 	O 	0.36204	0.25509	0.6224	-0.358
Mof_O 	O 	0.44392	0.29552	0.66928	-0.371
Mof_F 	F 	0.64397	0.50643	0.5182	-0.314
Mof_F 	F 	0.37987	0.46903	0.54683	-0.325
Mof_C 	C 	0.09111	0.63979	0.97263	0.328
Mof_C 	C 	0.15003	0.72032	0.95532	0.039
Mof_C 	C 	0.13525	0.73412	0.92169	-0.129
Mof_H 	H 	0.08593	0.69457	0.91017	0.174
Mof_C 	C 	0.23773	0.83727	0.84301	0.216
Mof_C 	C 	0.10703	0.81707	0.85716	0.231
Mof_O 	O 	0.0287	0.58843	0.95574	-0.358
Mof_O 	O 	0.11058	0.62886	0.00262	-0.371
Mof_F 	F 	0.31063	0.83977	0.85154	-0.314
Mof_F 	F 	0.04653	0.80237	0.88017	-0.325
Mof_C 	C 	0.21534	0.24222	0.30596	0.328
Mof_C 	C 	0.23695	0.1833	0.28865	0.04
Mof_C 	C 	0.26553	0.19808	0.25502	-0.13
Mof_H 	H 	0.2753	0.2474	0.2435	0.174
Mof_C 	C 	0.2662	0.0956	0.17634	0.216
Mof_C 	C 	0.3767	0.2263	0.19049	0.231
Mof_O 	O 	0.22639	0.30463	0.28907	-0.358
Mof_O 	O 	0.18494	0.22275	0.33595	-0.371
Mof_F 	F 	0.1958	0.0227	0.18487	-0.314
Mof_F 	F 	0.4225	0.2868	0.2135	-0.325
Mof_C 	C 	0.88201	0.57555	0.63929	0.328
Mof_C 	C 	0.90362	0.51663	0.62198	0.039
Mof_C 	C 	0.9322	0.53141	0.58835	-0.129
Mof_H 	H 	0.94197	0.58073	0.57683	0.174
Mof_C 	C 	0.93287	0.42893	0.50967	0.216
Mof_C 	C 	0.04337	0.55963	0.52382	0.231
Mof_O 	O 	0.89306	0.63796	0.6224	-0.358
Mof_O 	O 	0.85161	0.55608	0.66928	-0.371
Mof_F 	F 	0.86247	0.35603	0.5182	-0.314
Mof_F 	F 	0.08917	0.62013	0.54683	-0.324
Mof_C 	C 	0.54867	0.90889	0.97263	0.328
Mof_C 	C 	0.57028	0.84997	0.95532	0.039
Mof_C 	C 	0.59886	0.86475	0.92169	-0.129
Mof_H 	H 	0.60863	0.91407	0.91017	0.174
Mof_C 	C 	0.59953	0.76227	0.84301	0.216
Mof_C 	C 	0.71003	0.89297	0.85716	0.231
Mof_O 	O 	0.55972	0.9713	0.95574	-0.358
Mof_O 	O 	0.51827	0.88942	0.00262	-0.371
Mof_F 	F 	0.52913	0.68937	0.85154	-0.314
Mof_F 	F 	0.75583	0.95347	0.88017	-0.325
Mof_C 	C 	0.02688	0.78466	0.30596	0.327
Mof_C 	C 	0.94635	0.76305	0.28865	0.041
Mof_C 	C 	0.93255	0.73447	0.25502	-0.13
Mof_H 	H 	0.9721	0.7247	0.2435	0.174
Mof_C 	C 	0.8294	0.7338	0.17634	0.216
Mof_C 	C 	0.8496	0.6233	0.19049	0.231
Mof_O 	O 	0.07824	0.77361	0.28907	-0.358
Mof_O 	O 	0.03781	0.81506	0.33595	-0.371
Mof_F 	F 	0.8269	0.8042	0.18487	-0.314
Mof_F 	F 	0.8643	0.5775	0.2135	-0.324
Mof_C 	C 	0.69355	0.11799	0.63929	0.328
Mof_C 	C 	0.61302	0.09638	0.62198	0.039
Mof_C 	C 	0.59922	0.0678	0.58835	-0.129
Mof_H 	H 	0.63877	0.05803	0.57683	0.174
Mof_C 	C 	0.49607	0.06713	0.50967	0.216
Mof_C 	C 	0.51627	0.95663	0.52382	0.231
Mof_O 	O 	0.74491	0.10694	0.6224	-0.358
Mof_O 	O 	0.70448	0.14839	0.66928	-0.371
Mof_F 	F 	0.49357	0.13753	0.5182	-0.314
Mof_F 	F 	0.53097	0.91083	0.54683	-0.324
Mof_C 	C 	0.36021	0.45133	0.97263	0.328
Mof_C 	C 	0.27968	0.42972	0.95532	0.039
Mof_C 	C 	0.26588	0.40114	0.92169	-0.129
Mof_H 	H 	0.30543	0.39137	0.91017	0.174
Mof_C 	C 	0.16273	0.40047	0.84301	0.216
Mof_C 	C 	0.18293	0.28997	0.85716	0.23
Mof_O 	O 	0.41157	0.44028	0.95574	-0.358
Mof_O 	O 	0.37114	0.48173	0.00262	-0.371
Mof_F 	F 	0.16023	0.47087	0.85154	-0.314
Mof_F 	F 	0.19763	0.24417	0.88017	-0.325
Mof_Cu	Cu	0.19081	0.38162	0.30568	0.918
Mof_Cu	Cu	0.85747	0.71495	0.63901	0.918
Mof_Cu	Cu	0.52414	0.04828	0.97234	0.918
Mof_Cu	Cu	0.61838	0.80919	0.30568	0.918
Mof_Cu	Cu	0.28505	0.14253	0.63901	0.918
Mof_Cu	Cu	0.95172	0.47586	0.97234	0.918
Mof_Cu	Cu	0.19081	0.80919	0.30568	0.918
Mof_Cu	Cu	0.85747	0.14253	0.63901	0.918
Mof_Cu	Cu	0.52414	0.47586	0.97234	0.918
Mof_Cu	Cu	0.38162	0.19081	0.69432	0.918
Mof_Cu	Cu	0.04828	0.52414	0.02766	0.918
Mof_Cu	Cu	0.71495	0.85747	0.36099	0.918
Mof_Cu	Cu	0.80919	0.61838	0.69432	0.918
Mof_Cu	Cu	0.47586	0.95172	0.02766	0.918
Mof_Cu	Cu	0.14253	0.28505	0.36099	0.918
Mof_Cu	Cu	0.80919	0.19081	0.69432	0.918
Mof_Cu	Cu	0.47586	0.52414	0.02766	0.918
Mof_Cu	Cu	0.14253	0.85747	0.36099	0.918
Mof_C 	C 	0.88927	0.11073	0.30549	-0.047
Mof_H 	H 	0.89975	0.10025	0.3283	0.102
Mof_C 	C 	0.86012	0.13988	0.23818	0.299
Mof_C 	C 	0.84627	0.15373	0.20162	-0.256
Mof_C 	C 	0.55594	0.44406	0.63882	-0.046
Mof_H 	H 	0.56642	0.43358	0.66163	0.102
Mof_C 	C 	0.52679	0.47321	0.57151	0.299
Mof_C 	C 	0.51294	0.48706	0.53495	-0.255
Mof_C 	C 	0.2226	0.7774	0.97216	-0.046
Mof_H 	H 	0.23308	0.76692	0.99497	0.102
Mof_C 	C 	0.19345	0.80655	0.90485	0.299
Mof_C 	C 	0.1796	0.8204	0.86829	-0.255
Mof_C 	C 	0.88927	0.77854	0.30549	-0.046
Mof_H 	H 	0.89975	0.7995	0.3283	0.102
Mof_C 	C 	0.86012	0.72024	0.23818	0.299
Mof_C 	C 	0.84627	0.69254	0.20162	-0.256
Mof_C 	C 	0.55594	0.11187	0.63882	-0.046
Mof_H 	H 	0.56642	0.13283	0.66163	0.101
Mof_C 	C 	0.52679	0.05357	0.57151	0.299
Mof_C 	C 	0.51294	0.02587	0.53495	-0.256
Mof_C 	C 	0.2226	0.44521	0.97216	-0.046
Mof_H 	H 	0.23308	0.46617	0.99497	0.102
Mof_C 	C 	0.19345	0.38691	0.90485	0.299
Mof_C 	C 	0.1796	0.35921	0.86829	-0.255
Mof_C 	C 	0.22146	0.11073	0.30549	-0.046
Mof_H 	H 	0.2005	0.10025	0.3283	0.102
Mof_C 	C 	0.27976	0.13988	0.23818	0.299
Mof_C 	C 	0.30746	0.15373	0.20162	-0.256
Mof_C 	C 	0.88813	0.44406	0.63882	-0.046
Mof_H 	H 	0.86717	0.43358	0.66163	0.101
Mof_C 	C 	0.94643	0.47321	0.57151	0.299
Mof_C 	C 	0.97413	0.48706	0.53495	-0.256
Mof_C 	C 	0.55479	0.7774	0.97216	-0.046
Mof_H 	H 	0.53383	0.76692	0.99497	0.102
Mof_C 	C 	0.61309	0.80655	0.90485	0.299
Mof_C 	C 	0.64079	0.8204	0.86829	-0.255
Mof_C 	C 	0.11073	0.88927	0.69451	-0.047
Mof_H 	H 	0.10025	0.89975	0.6717	0.102
Mof_C 	C 	0.13988	0.86012	0.76182	0.299
Mof_C 	C 	0.15373	0.84627	0.79838	-0.256
Mof_C 	C 	0.7774	0.2226	0.02784	-0.046
Mof_H 	H 	0.76692	0.23308	0.00503	0.102
Mof_C 	C 	0.80655	0.19345	0.09515	0.299
Mof_C 	C 	0.8204	0.1796	0.13171	-0.255
Mof_C 	C 	0.44406	0.55594	0.36118	-0.046
Mof_H 	H 	0.43358	0.56642	0.33837	0.102
Mof_C 	C 	0.47321	0.52679	0.42849	0.299
Mof_C 	C 	0.48706	0.51294	0.46505	-0.255
Mof_C 	C 	0.77854	0.88927	0.69451	-0.046
Mof_H 	H 	0.7995	0.89975	0.6717	0.102
Mof_C 	C 	0.72024	0.86012	0.76182	0.299
Mof_C 	C 	0.69254	0.84627	0.79838	-0.256
Mof_C 	C 	0.44521	0.2226	0.02784	-0.046
Mof_H 	H 	0.46617	0.23308	0.00503	0.102
Mof_C 	C 	0.38691	0.19345	0.09515	0.299
Mof_C 	C 	0.35921	0.1796	0.13171	-0.255
Mof_C 	C 	0.11187	0.55594	0.36118	-0.046
Mof_H 	H 	0.13283	0.56642	0.33837	0.101
Mof_C 	C 	0.05357	0.52679	0.42849	0.299
Mof_C 	C 	0.02587	0.51294	0.46505	-0.256
Mof_C 	C 	0.11073	0.22146	0.69451	-0.046
Mof_H 	H 	0.10025	0.2005	0.6717	0.102
Mof_C 	C 	0.13988	0.27976	0.76182	0.299
Mof_C 	C 	0.15373	0.30746	0.79838	-0.256
Mof_C 	C 	0.7774	0.55479	0.02784	-0.046
Mof_H 	H 	0.76692	0.53383	0.00503	0.102
Mof_C 	C 	0.80655	0.61309	0.09515	0.299
Mof_C 	C 	0.8204	0.64079	0.13171	-0.255
Mof_C 	C 	0.44406	0.88813	0.36118	-0.046
Mof_H 	H 	0.43358	0.86717	0.33837	0.101
Mof_C 	C 	0.47321	0.94643	0.42849	0.299
Mof_C 	C 	0.48706	0.97413	0.46505	-0.256
_end
