data_functionalizedCrystal
_audit_creation_method	'EQeq! by Chris Wilmer'
_symmetry_space_group_name_H-M	'P1'
_symmetry_Int_Tables_number	1
_symmetry_cell_setting	triclinic
loop_
_symmetry_equiv_pos_as_xyz
  x,y,z
_cell_length_a	11.4482
_cell_length_b	11.5408
_cell_length_c	11.7663
_cell_angle_alpha	65.37
_cell_angle_beta	80.54
_cell_angle_gamma	72.759
loop_
_atom_site_label
_atom_site_type_symbol
_atom_site_fract_x
_atom_site_fract_y
_atom_site_fract_z
_atom_site_charge
Mof_Co	Co	0.5	0	0.5	1.119
Mof_Co	Co	0.5	0.5	-0	1.126
Mof_Co	Co	0.5	0.5	0.5	1.183
Mof_H 	H 	0.545	0.1618	0.1779	-0.031
Mof_H 	H 	0.7016	0.8743	0.7039	0.001
Mof_H 	H 	0.9096	0.7799	0.7201	0.093
Mof_H 	H 	0.9457	0.9418	0.3413	0.118
Mof_H 	H 	0.7369	0.03	0.3377	-0.101
Mof_H 	H 	0.0767	0.6186	0.7038	0.068
Mof_H 	H 	0.2783	0.5032	0.693	0.018
Mof_H 	H 	0.3397	0.777	0.3692	0.027
Mof_H 	H 	0.141	0.9031	0.371	0.075
Mof_H 	H 	0.6576	0.6846	0.9776	0.021
Mof_H 	H 	0.8569	0.6919	0.9742	0.042
Mof_H 	H 	0.9619	0.3061	0.0377	0.024
Mof_H 	H 	0.7588	0.3086	0.0433	0.002
Mof_H 	H 	0.455	0.8382	0.8221	0.006
Mof_H 	H 	0.2984	0.1257	0.2961	-0.007
Mof_H 	H 	0.0904	0.2201	0.2799	0.049
Mof_H 	H 	0.0543	0.0582	0.6587	0.027
Mof_H 	H 	0.2631	0.97	0.6623	0.097
Mof_H 	H 	0.9233	0.3814	0.2962	0.08
Mof_H 	H 	0.7217	0.4968	0.307	0.004
Mof_H 	H 	0.6603	0.223	0.6308	0.013
Mof_H 	H 	0.859	0.0969	0.629	0.067
Mof_H 	H 	0.3424	0.3154	0.0224	-0.02
Mof_H 	H 	0.1431	0.3081	0.0258	0.099
Mof_H 	H 	0.0381	0.6939	0.9623	0.111
Mof_H 	H 	0.2412	0.6914	0.9567	-0.004
Mof_C 	C 	0.5242	0.2164	0.2241	0.116
Mof_C 	C 	0.4778	0.2787	0.3781	-0.055
Mof_C 	C 	0.481	0.3878	0.2684	-0.06
Mof_C 	C 	0.447	0.2566	0.5116	0.316
Mof_C 	C 	0.4615	0.5316	0.2346	0.328
Mof_C 	C 	0.7519	0.8859	0.6292	0.106
Mof_C 	C 	0.8762	0.8288	0.6399	-0.157
Mof_C 	C 	0.9521	0.8438	0.5318	0.119
Mof_C 	C 	0.8973	0.9238	0.4175	-0.205
Mof_C 	C 	0.7726	0.9764	0.4163	0.232
Mof_C 	C 	0.0838	0.7741	0.5353	0.017
Mof_C 	C 	0.1286	0.653	0.6332	-0.097
Mof_C 	C 	0.249	0.5845	0.6256	0.065
Mof_C 	C 	0.285	0.7441	0.4374	0.058
Mof_C 	C 	0.1661	0.8199	0.4376	-0.09
Mof_C 	C 	0.7207	0.6061	0.9896	0.079
Mof_C 	C 	0.8399	0.6116	0.9867	0.011
Mof_C 	C 	0.9344	0.5	0.0022	-0.133
Mof_C 	C 	0.9007	0.3863	0.0243	-0.035
Mof_C 	C 	0.7792	0.3883	0.0271	0.012
Mof_C 	C 	0.4758	0.7836	0.7759	0.117
Mof_C 	C 	0.5222	0.7213	0.6219	-0.047
Mof_C 	C 	0.519	0.6122	0.7316	-0.052
Mof_C 	C 	0.553	0.7434	0.4884	0.311
Mof_C 	C 	0.5385	0.4684	0.7654	0.326
Mof_C 	C 	0.2481	0.1141	0.3708	0.044
Mof_C 	C 	0.1238	0.1712	0.3601	-0.096
Mof_C 	C 	0.0479	0.1562	0.4682	-0.011
Mof_C 	C 	0.1027	0.0762	0.5825	-0.037
Mof_C 	C 	0.2274	0.0236	0.5837	-0.08
Mof_C 	C 	0.9162	0.2259	0.4647	0.078
Mof_C 	C 	0.8714	0.347	0.3668	-0.137
Mof_C 	C 	0.751	0.4155	0.3744	0.082
Mof_C 	C 	0.715	0.2559	0.5626	0.069
Mof_C 	C 	0.8339	0.1801	0.5624	-0.134
Mof_C 	C 	0.2793	0.3939	0.0104	0.079
Mof_C 	C 	0.1601	0.3884	0.0133	-0.266
Mof_C 	C 	0.0656	0.5	0.9978	0.231
Mof_C 	C 	0.0993	0.6137	0.9757	-0.21
Mof_C 	C 	0.2208	0.6117	0.9729	0.131
Mof_N 	N 	0.5058	0.1707	0.348	-0.239
Mof_N 	N 	0.5104	0.3466	0.1713	-0.236
Mof_N 	N 	0.6984	0.9563	0.5199	-0.236
Mof_N 	N 	0.3266	0.6262	0.5289	-0.214
Mof_N 	N 	0.6889	0.4985	0.0078	-0.244
Mof_N 	N 	0.4942	0.8293	0.652	-0.218
Mof_N 	N 	0.4896	0.6534	0.8287	-0.218
Mof_N 	N 	0.3016	0.0437	0.4801	-0.207
Mof_N 	N 	0.6734	0.3738	0.4711	-0.221
Mof_N 	N 	0.3111	0.5015	0.9922	-0.209
Mof_O 	O 	0.4149	0.3505	0.5469	-0.386
Mof_O 	O 	0.4526	0.1378	0.5859	-0.402
Mof_O 	O 	0.4572	0.5776	0.3144	-0.395
Mof_O 	O 	0.4515	0.6035	0.1188	-0.409
Mof_O 	O 	0.5851	0.6495	0.4531	-0.383
Mof_O 	O 	0.5474	0.8622	0.4141	-0.361
Mof_O 	O 	0.5428	0.4224	0.6856	-0.389
Mof_O 	O 	0.5485	0.3965	0.8812	-0.365
_end
