data_functionalizedCrystal
_audit_creation_method	'EQeq! by Chris Wilmer'
_symmetry_space_group_name_H-M	'P1'
_symmetry_Int_Tables_number	1
_symmetry_cell_setting	triclinic
loop_
_symmetry_equiv_pos_as_xyz
  x,y,z
_cell_length_a	13.2235
_cell_length_b	15.2141
_cell_length_c	15.2141
_cell_angle_alpha	90
_cell_angle_beta	90
_cell_angle_gamma	90
loop_
_atom_site_label
_atom_site_type_symbol
_atom_site_fract_x
_atom_site_fract_y
_atom_site_fract_z
_atom_site_charge
Mof_Cu	Cu	3.14028e-33	0.75	0.25	0.839
Mof_H 	H 	0.0285	0.6928	0.0654	-0.07
Mof_H 	H 	0.9638	0.5954	0.9649	0.142
Mof_H 	H 	0.7357	0.5482	0.1331	0.095
Mof_H 	H 	0.806	0.6471	0.2278	-0.014
Mof_H 	H 	0.838	0.5596	0.862	0.103
Mof_H 	H 	0.7492	0.4722	0.7641	0.126
Mof_H 	H 	0.6548	0.3202	0.9666	0.095
Mof_H 	H 	0.741	0.4108	0.0632	0.011
Mof_H 	H 	0.6019	0.2303	0.8521	0.04
Mof_H 	H 	0.5227	0.3061	0.873	0.035
Mof_H 	H 	0.0285	0.8072	0.4346	-0.07
Mof_H 	H 	0.9638	0.9046	0.5351	0.142
Mof_H 	H 	0.7357	0.9518	0.3669	0.091
Mof_H 	H 	0.806	0.8529	0.2722	-0.013
Mof_H 	H 	0.838	0.9404	0.638	0.111
Mof_H 	H 	0.7492	0.0278	0.7359	0.12
Mof_H 	H 	0.6548	0.1798	0.5334	0.09
Mof_H 	H 	0.741	0.0892	0.4368	0.018
Mof_H 	H 	0.6019	0.2697	0.6479	0.041
Mof_H 	H 	0.5227	0.1939	0.627	0.036
Mof_H 	H 	0.9715	0.5654	0.3072	0.048
Mof_H 	H 	0.0362	0.4649	0.4046	0.083
Mof_H 	H 	0.2643	0.6331	0.4518	0.079
Mof_H 	H 	0.194	0.7278	0.3529	-0.008
Mof_H 	H 	0.162	0.362	0.4404	0.106
Mof_H 	H 	0.2508	0.2641	0.5278	0.12
Mof_H 	H 	0.3452	0.4666	0.6798	0.088
Mof_H 	H 	0.259	0.5632	0.5892	0.015
Mof_H 	H 	0.3981	0.3521	0.7697	0.04
Mof_H 	H 	0.4773	0.373	0.6939	0.036
Mof_H 	H 	0.9715	0.9346	0.1928	0.046
Mof_H 	H 	0.0362	0.0351	0.0954	0.087
Mof_H 	H 	0.2643	0.8669	0.0482	0.08
Mof_H 	H 	0.194	0.7722	0.1471	-0.008
Mof_H 	H 	0.162	0.138	0.0596	0.106
Mof_H 	H 	0.2508	0.2359	0.9722	0.12
Mof_H 	H 	0.3452	0.0334	0.8202	0.086
Mof_H 	H 	0.259	0.9368	0.9108	0.018
Mof_H 	H 	0.3981	0.1479	0.7303	0.041
Mof_H 	H 	0.4773	0.127	0.8061	0.036
Mof_C 	C 	0.9684	0.6629	0.0793	0.199
Mof_C 	C 	0.93	0.6044	0.0185	-0.206
Mof_C 	C 	0.8416	0.559	0.0366	0.158
Mof_C 	C 	0.796	0.5769	0.1175	-0.185
Mof_C 	C 	0.8387	0.6361	0.1741	0.111
Mof_C 	C 	0.7954	0.4968	0.9735	-0.085
Mof_C 	C 	0.7991	0.5125	0.8834	0.041
Mof_C 	C 	0.7466	0.4603	0.8247	-0.177
Mof_C 	C 	0.6897	0.3897	0.856	0.214
Mof_C 	C 	0.6898	0.3698	0.9455	-0.2
Mof_C 	C 	0.7418	0.4238	0.0028	0.064
Mof_C 	C 	0.5653	0.2803	0.827	0.014
Mof_C 	C 	0.9684	0.8371	0.4207	0.199
Mof_C 	C 	0.93	0.8956	0.4815	-0.204
Mof_C 	C 	0.8416	0.941	0.4634	0.146
Mof_C 	C 	0.796	0.9231	0.3825	-0.178
Mof_C 	C 	0.8387	0.8639	0.3259	0.107
Mof_C 	C 	0.7954	0.0032	0.5265	-0.062
Mof_C 	C 	0.7991	0.9875	0.6166	0.018
Mof_C 	C 	0.7466	0.0397	0.6753	-0.159
Mof_C 	C 	0.6897	0.1103	0.644	0.202
Mof_C 	C 	0.6898	0.1302	0.5545	-0.182
Mof_C 	C 	0.7418	0.0762	0.4972	0.042
Mof_C 	C 	0.5653	0.2197	0.673	0.013
Mof_C 	C 	0.0316	0.5793	0.3371	0.006
Mof_C 	C 	0.07	0.5185	0.3956	-0.106
Mof_C 	C 	0.1584	0.5366	0.441	0.093
Mof_C 	C 	0.204	0.6175	0.4231	-0.145
Mof_C 	C 	0.1613	0.6741	0.3639	0.082
Mof_C 	C 	0.2046	0.4735	0.5032	-0.056
Mof_C 	C 	0.2009	0.3834	0.4875	0.016
Mof_C 	C 	0.2534	0.3247	0.5397	-0.165
Mof_C 	C 	0.3103	0.356	0.6103	0.201
Mof_C 	C 	0.3102	0.4455	0.6302	-0.181
Mof_C 	C 	0.2582	0.5028	0.5762	0.033
Mof_C 	C 	0.4347	0.327	0.7197	0.013
Mof_C 	C 	0.0316	0.9207	0.1629	0.009
Mof_C 	C 	0.07	0.9815	0.1044	-0.11
Mof_C 	C 	0.1584	0.9634	0.059	0.094
Mof_C 	C 	0.204	0.8825	0.0769	-0.145
Mof_C 	C 	0.1613	0.8259	0.1361	0.082
Mof_C 	C 	0.2046	0.0265	0.9968	-0.051
Mof_C 	C 	0.2009	0.1166	0.0125	0.018
Mof_C 	C 	0.2534	0.1753	0.9603	-0.165
Mof_C 	C 	0.3103	0.144	0.8897	0.198
Mof_C 	C 	0.3102	0.0545	0.8698	-0.173
Mof_C 	C 	0.2582	0.9972	0.9238	0.021
Mof_C 	C 	0.4347	0.173	0.7803	0.012
Mof_C 	C 	0.5	0.25	0.75	0.01
Mof_N 	N 	0.9251	0.6794	0.1568	-0.252
Mof_N 	N 	0.9251	0.8206	0.3432	-0.251
Mof_N 	N 	0.0749	0.6568	0.3206	-0.231
Mof_N 	N 	0.0749	0.8432	0.1794	-0.232
Mof_O 	O 	0.6353	0.3445	0.7948	-0.235
Mof_O 	O 	0.6353	0.1555	0.7052	-0.232
Mof_O 	O 	0.3647	0.2948	0.6555	-0.232
Mof_O 	O 	0.3647	0.2052	0.8445	-0.231
Mof_Cu	Cu	3.23536e-33	0.25	0.75	0.84
Mof_H 	H 	0.0285	0.4346	0.6928	-0.071
Mof_H 	H 	0.9638	0.5351	0.5954	0.144
Mof_H 	H 	0.7357	0.3669	0.5482	0.094
Mof_H 	H 	0.806	0.2722	0.6471	-0.013
Mof_H 	H 	0.838	0.638	0.5596	0.106
Mof_H 	H 	0.7492	0.7359	0.4722	0.124
Mof_H 	H 	0.6548	0.5334	0.3202	0.093
Mof_H 	H 	0.741	0.4368	0.4108	0.014
Mof_H 	H 	0.6019	0.6479	0.2303	0.041
Mof_H 	H 	0.5227	0.627	0.3061	0.036
Mof_H 	H 	0.0285	0.0654	0.8072	-0.068
Mof_H 	H 	0.9638	0.9649	0.9046	0.138
Mof_H 	H 	0.7357	0.1331	0.9518	0.092
Mof_H 	H 	0.806	0.2278	0.8529	-0.013
Mof_H 	H 	0.838	0.862	0.9404	0.11
Mof_H 	H 	0.7492	0.7641	0.0278	0.121
Mof_H 	H 	0.6548	0.9666	0.1798	0.091
Mof_H 	H 	0.741	0.0632	0.0892	0.016
Mof_H 	H 	0.6019	0.8521	0.2697	0.041
Mof_H 	H 	0.5227	0.873	0.1939	0.036
Mof_H 	H 	0.9715	0.3072	0.9346	0.047
Mof_H 	H 	0.0362	0.4046	0.0351	0.086
Mof_H 	H 	0.2643	0.4518	0.8669	0.078
Mof_H 	H 	0.194	0.3529	0.7722	-0.008
Mof_H 	H 	0.162	0.4404	0.138	0.109
Mof_H 	H 	0.2508	0.5278	0.2359	0.118
Mof_H 	H 	0.3452	0.6798	0.0334	0.085
Mof_H 	H 	0.259	0.5892	0.9368	0.02
Mof_H 	H 	0.3981	0.7697	0.1479	0.041
Mof_H 	H 	0.4773	0.6939	0.127	0.036
Mof_H 	H 	0.9715	0.1928	0.5654	0.047
Mof_H 	H 	0.0362	0.0954	0.4649	0.086
Mof_H 	H 	0.2643	0.0482	0.6331	0.082
Mof_H 	H 	0.194	0.1471	0.7278	-0.009
Mof_H 	H 	0.162	0.0596	0.362	0.101
Mof_H 	H 	0.2508	0.9722	0.2641	0.124
Mof_H 	H 	0.3452	0.8202	0.4666	0.091
Mof_H 	H 	0.259	0.9108	0.5632	0.011
Mof_H 	H 	0.3981	0.7303	0.3521	0.04
Mof_H 	H 	0.4773	0.8061	0.373	0.035
Mof_C 	C 	0.9684	0.4207	0.6629	0.202
Mof_C 	C 	0.93	0.4815	0.6044	-0.209
Mof_C 	C 	0.8416	0.4634	0.559	0.154
Mof_C 	C 	0.796	0.3825	0.5769	-0.183
Mof_C 	C 	0.8387	0.3259	0.6361	0.11
Mof_C 	C 	0.7954	0.5265	0.4968	-0.075
Mof_C 	C 	0.7991	0.6166	0.5125	0.035
Mof_C 	C 	0.7466	0.6753	0.4603	-0.172
Mof_C 	C 	0.6897	0.644	0.3897	0.209
Mof_C 	C 	0.6898	0.5545	0.3698	-0.19
Mof_C 	C 	0.7418	0.4972	0.4238	0.051
Mof_C 	C 	0.5653	0.673	0.2803	0.014
Mof_C 	C 	0.9684	0.0793	0.8371	0.195
Mof_C 	C 	0.93	0.0185	0.8956	-0.198
Mof_C 	C 	0.8416	0.0366	0.941	0.147
Mof_C 	C 	0.796	0.1175	0.9231	-0.178
Mof_C 	C 	0.8387	0.1741	0.8639	0.107
Mof_C 	C 	0.7954	0.9735	0.0032	-0.067
Mof_C 	C 	0.7991	0.8834	0.9875	0.02
Mof_C 	C 	0.7466	0.8247	0.0397	-0.161
Mof_C 	C 	0.6897	0.856	0.1103	0.204
Mof_C 	C 	0.6898	0.9455	0.1302	-0.188
Mof_C 	C 	0.7418	0.0028	0.0762	0.049
Mof_C 	C 	0.5653	0.827	0.2197	0.013
Mof_C 	C 	0.0316	0.3371	0.9207	0.007
Mof_C 	C 	0.07	0.3956	0.9815	-0.108
Mof_C 	C 	0.1584	0.441	0.9634	0.088
Mof_C 	C 	0.204	0.4231	0.8825	-0.142
Mof_C 	C 	0.1613	0.3639	0.8259	0.08
Mof_C 	C 	0.2046	0.5032	0.0265	-0.043
Mof_C 	C 	0.2009	0.4875	0.1166	0.008
Mof_C 	C 	0.2534	0.5397	0.1753	-0.158
Mof_C 	C 	0.3103	0.6103	0.144	0.195
Mof_C 	C 	0.3102	0.6302	0.0545	-0.169
Mof_C 	C 	0.2582	0.5762	0.9972	0.017
Mof_C 	C 	0.4347	0.7197	0.173	0.012
Mof_C 	C 	0.0316	0.1629	0.5793	0.009
Mof_C 	C 	0.07	0.1044	0.5185	-0.111
Mof_C 	C 	0.1584	0.059	0.5366	0.102
Mof_C 	C 	0.204	0.0769	0.6175	-0.15
Mof_C 	C 	0.1613	0.1361	0.6741	0.085
Mof_C 	C 	0.2046	0.9968	0.4735	-0.069
Mof_C 	C 	0.2009	0.0125	0.3834	0.031
Mof_C 	C 	0.2534	0.9603	0.3247	-0.177
Mof_C 	C 	0.3103	0.8897	0.356	0.207
Mof_C 	C 	0.3102	0.8698	0.4455	-0.189
Mof_C 	C 	0.2582	0.9238	0.5028	0.042
Mof_C 	C 	0.4347	0.7803	0.327	0.014
Mof_C 	C 	0.5	0.75	0.25	0.01
Mof_N 	N 	0.9251	0.3432	0.6794	-0.252
Mof_N 	N 	0.9251	0.1568	0.8206	-0.25
Mof_N 	N 	0.0749	0.3206	0.8432	-0.231
Mof_N 	N 	0.0749	0.1794	0.6568	-0.232
Mof_O 	O 	0.6353	0.7052	0.3445	-0.233
Mof_O 	O 	0.6353	0.7948	0.1555	-0.232
Mof_O 	O 	0.3647	0.6555	0.2052	-0.23
Mof_O 	O 	0.3647	0.8445	0.2948	-0.234
Mof_B 	B 	0.759	0.75	0.75	4.015
Mof_F 	F 	0.795	0.822	0.782	-1.196
Mof_F 	F 	0.795	0.678	0.718	-1.195
Mof_F 	F 	0.795	0.718	0.822	-1.196
Mof_F 	F 	0.795	0.782	0.678	-1.196
Mof_B 	B 	0.241	0.25	0.25	4.026
Mof_F 	F 	0.205	0.178	0.218	-1.202
Mof_F 	F 	0.205	0.322	0.282	-1.202
Mof_F 	F 	0.205	0.282	0.178	-1.202
Mof_F 	F 	0.205	0.218	0.322	-1.202
_end
