data_functionalizedCrystal
_audit_creation_method	'EQeq! by Chris Wilmer'
_symmetry_space_group_name_H-M	'P1'
_symmetry_Int_Tables_number	1
_symmetry_cell_setting	triclinic
loop_
_symmetry_equiv_pos_as_xyz
  x,y,z
_cell_length_a	21.818
_cell_length_b	14.704
_cell_length_c	26.282
_cell_angle_alpha	90
_cell_angle_beta	126.84
_cell_angle_gamma	90
loop_
_atom_site_label
_atom_site_type_symbol
_atom_site_fract_x
_atom_site_fract_y
_atom_site_fract_z
_atom_site_charge
Mof_Co	Co	0.35252	0.35684	0.8578	1.086
Mof_Co	Co	0.4407	0.34273	0.78265	1.188
Mof_Co	Co	0.92629	0.31097	0.65916	1.188
Mof_Co	Co	0.82037	0.32545	0.49178	1.092
Mof_O 	O 	0.387	0.4877	0.8553	-0.457
Mof_O 	O 	0.4191	0.4733	0.7887	-0.444
Mof_O 	O 	0.5217	0.7253	0.742	-0.357
Mof_O 	O 	0.5269	0.8608	0.7776	-0.366
Mof_O 	O 	0.5502	0.7013	0.1332	-0.521
Mof_O 	O 	0.4486	0.6659	0.1274	-0.382
Mof_O 	O 	0.185	0.7739	0.9354	-0.521
Mof_O 	O 	0.1772	0.8114	0.851	-0.381
Mof_O 	O 	0.4423	0.8272	0.9147	-0.268
Mof_O 	O 	0.333	0.3015	0.7156	-0.438
Mof_O 	O 	0.2758	0.3366	0.7603	-0.478
Mof_O 	O 	0.0006	0.2758	0.6402	-0.451
Mof_O 	O 	0.9291	0.2732	0.5347	-0.469
Mof_O 	O 	0.9982	0.1684	0.2593	-0.36
Mof_O 	O 	0.9599	0.3049	0.2222	-0.36
Mof_O 	O 	0.0821	0.5583	0.3652	-0.458
Mof_O 	O 	0.1357	0.5476	0.4686	-0.476
Mof_O 	O 	0.1242	0.2029	0.4949	-0.261
Mof_C 	C 	0.4461	0.7663	0.8777	0.206
Mof_C 	C 	0.4264	0.6735	0.8725	-0.153
Mof_H 	H 	0.4083	0.6505	0.8942	0.09
Mof_C 	C 	0.4344	0.6176	0.8347	-0.022
Mof_C 	C 	0.4634	0.6504	0.8035	-0.061
Mof_H 	H 	0.4696	0.6113	0.7791	0.076
Mof_C 	C 	0.4827	0.7392	0.8086	0.002
Mof_C 	C 	0.4752	0.7979	0.847	-0.162
Mof_H 	H 	0.4901	0.8584	0.8516	0.113
Mof_C 	C 	0.4126	0.5171	0.826	0.35
Mof_C 	C 	0.5129	0.7765	0.7743	0.276
Mof_C 	C 	0.4114	0.7961	0.9457	0.174
Mof_C 	C 	0.4598	0.7661	0.0074	-0.114
Mof_H 	H 	0.5125	0.7657	0.0286	0.046
Mof_C 	C 	0.429	0.7367	0.0378	-0.072
Mof_C 	C 	0.3477	0.7442	0.0053	-0.015
Mof_H 	H 	0.3261	0.7252	0.0251	0.019
Mof_C 	C 	0.3022	0.7793	0.9452	-0.054
Mof_C 	C 	0.3337	0.8054	0.9144	-0.125
Mof_H 	H 	0.3028	0.8287	0.8733	0.1
Mof_C 	C 	0.4768	0.6996	0.1011	0.311
Mof_C 	C 	0.2161	0.7885	0.9079	0.317
Mof_C 	C 	0.1263	0.2357	0.5455	0.175
Mof_C 	C 	0.198	0.2576	0.6025	-0.116
Mof_H 	H 	0.2427	0.2546	0.6056	0.095
Mof_C 	C 	0.1992	0.2843	0.6545	-0.057
Mof_C 	C 	0.1343	0.2883	0.6501	-0.007
Mof_H 	H 	0.1368	0.3067	0.6852	0.049
Mof_C 	C 	0.064	0.2652	0.5941	-0.053
Mof_C 	C 	0.0594	0.2424	0.5408	-0.116
Mof_H 	H 	0.012	0.2316	0.5022	0.086
Mof_C 	C 	0.2754	0.3111	0.7153	0.379
Mof_C 	C 	0.9915	0.2739	0.59	0.391
Mof_C 	C 	0.1001	0.2639	0.4465	0.192
Mof_C 	C 	0.0624	0.2298	0.3852	-0.147
Mof_H 	H 	0.0539	0.1675	0.3781	0.107
Mof_C 	C 	0.0375	0.2876	0.3344	-0.008
Mof_C 	C 	0.0493	0.3797	0.3443	-0.043
Mof_H 	H 	0.0319	0.4183	0.3101	0.076
Mof_C 	C 	0.0872	0.4158	0.4052	-0.04
Mof_C 	C 	0.1122	0.3575	0.4575	-0.135
Mof_H 	H 	0.1361	0.3811	0.4981	0.088
Mof_C 	C 	0.9955	0.253	0.2675	0.285
Mof_C 	C 	0.1028	0.5177	0.4138	0.394
Mof_Co	Co	0.64748	0.85684	0.6422	1.086
Mof_Co	Co	0.5593	0.84273	0.71735	1.188
Mof_Co	Co	0.07371	0.81097	0.84084	1.189
Mof_Co	Co	0.17963	0.82545	0.00822	1.09
Mof_O 	O 	0.613	0.9877	0.6447	-0.455
Mof_O 	O 	0.5809	0.9733	0.7113	-0.443
Mof_O 	O 	0.4783	0.2253	0.758	-0.358
Mof_O 	O 	0.4731	0.3608	0.7224	-0.366
Mof_O 	O 	0.4498	0.2013	0.3668	-0.521
Mof_O 	O 	0.5514	0.1659	0.3726	-0.382
Mof_O 	O 	0.815	0.2739	0.5646	-0.523
Mof_O 	O 	0.8228	0.3114	0.649	-0.382
Mof_O 	O 	0.5577	0.3272	0.5853	-0.267
Mof_O 	O 	0.667	0.8015	0.7844	-0.438
Mof_O 	O 	0.7242	0.8366	0.7397	-0.478
Mof_O 	O 	0.9994	0.7758	0.8598	-0.456
Mof_O 	O 	0.0709	0.7732	0.9653	-0.469
Mof_O 	O 	0.0018	0.6684	0.2407	-0.36
Mof_O 	O 	0.0401	0.8049	0.2778	-0.361
Mof_O 	O 	0.9179	0.0583	0.1348	-0.458
Mof_O 	O 	0.8643	0.0476	0.0314	-0.474
Mof_O 	O 	0.8758	0.7029	0.0051	-0.26
Mof_C 	C 	0.5539	0.2663	0.6223	0.205
Mof_C 	C 	0.5736	0.1735	0.6275	-0.153
Mof_H 	H 	0.5917	0.1505	0.6058	0.09
Mof_C 	C 	0.5656	0.1176	0.6653	-0.021
Mof_C 	C 	0.5366	0.1504	0.6965	-0.061
Mof_H 	H 	0.5304	0.1113	0.7209	0.076
Mof_C 	C 	0.5173	0.2392	0.6914	0.002
Mof_C 	C 	0.5248	0.2979	0.653	-0.162
Mof_H 	H 	0.5099	0.3584	0.6484	0.113
Mof_C 	C 	0.5874	0.0171	0.674	0.346
Mof_C 	C 	0.4871	0.2765	0.7257	0.276
Mof_C 	C 	0.5886	0.2961	0.5543	0.168
Mof_C 	C 	0.5402	0.2661	0.4926	-0.108
Mof_H 	H 	0.4875	0.2657	0.4714	0.045
Mof_C 	C 	0.571	0.2367	0.4622	-0.076
Mof_C 	C 	0.6523	0.2442	0.4947	-0.008
Mof_H 	H 	0.6739	0.2252	0.4749	0.017
Mof_C 	C 	0.6978	0.2793	0.5548	-0.06
Mof_C 	C 	0.6663	0.3054	0.5856	-0.12
Mof_H 	H 	0.6972	0.3287	0.6267	0.098
Mof_C 	C 	0.5232	0.1996	0.3989	0.313
Mof_C 	C 	0.7839	0.2885	0.5921	0.319
Mof_C 	C 	0.8737	0.7357	0.9545	0.172
Mof_C 	C 	0.802	0.7576	0.8975	-0.114
Mof_H 	H 	0.7573	0.7546	0.8944	0.094
Mof_C 	C 	0.8008	0.7843	0.8455	-0.06
Mof_C 	C 	0.8657	0.7883	0.8499	-0.003
Mof_H 	H 	0.8632	0.8067	0.8148	0.047
Mof_C 	C 	0.936	0.7652	0.9059	-0.059
Mof_C 	C 	0.9406	0.7424	0.9592	-0.112
Mof_H 	H 	0.988	0.7316	0.9978	0.083
Mof_C 	C 	0.7246	0.8111	0.7847	0.38
Mof_C 	C 	0.0085	0.7739	0.91	0.399
Mof_C 	C 	0.8999	0.7639	0.0535	0.194
Mof_C 	C 	0.9376	0.7298	0.1148	-0.149
Mof_H 	H 	0.9461	0.6675	0.1219	0.108
Mof_C 	C 	0.9625	0.7876	0.1656	-0.003
Mof_C 	C 	0.9507	0.8797	0.1557	-0.045
Mof_H 	H 	0.9681	0.9183	0.1899	0.077
Mof_C 	C 	0.9128	0.9158	0.0948	-0.039
Mof_C 	C 	0.8878	0.8575	0.0425	-0.136
Mof_H 	H 	0.8639	0.8811	0.0019	0.089
Mof_C 	C 	0.0045	0.753	0.2325	0.28
Mof_C 	C 	0.8972	0.0177	0.0862	0.393
Mof_Co	Co	0.64748	0.64316	0.1422	1.086
Mof_Co	Co	0.5593	0.65727	0.21735	1.188
Mof_Co	Co	0.07371	0.68903	0.34084	1.188
Mof_Co	Co	0.17963	0.67455	0.50822	1.092
Mof_O 	O 	0.613	0.5123	0.1447	-0.457
Mof_O 	O 	0.5809	0.5267	0.2113	-0.444
Mof_O 	O 	0.4783	0.2747	0.258	-0.357
Mof_O 	O 	0.4731	0.1392	0.2224	-0.366
Mof_O 	O 	0.4498	0.2987	0.8668	-0.521
Mof_O 	O 	0.5514	0.3341	0.8726	-0.382
Mof_O 	O 	0.815	0.2261	0.0646	-0.521
Mof_O 	O 	0.8228	0.1886	0.149	-0.381
Mof_O 	O 	0.5577	0.1728	0.0853	-0.268
Mof_O 	O 	0.667	0.6985	0.2844	-0.438
Mof_O 	O 	0.7242	0.6634	0.2397	-0.478
Mof_O 	O 	0.9994	0.7242	0.3598	-0.451
Mof_O 	O 	0.0709	0.7268	0.4653	-0.469
Mof_O 	O 	0.0018	0.8316	0.7407	-0.36
Mof_O 	O 	0.0401	0.6951	0.7778	-0.36
Mof_O 	O 	0.9179	0.4417	0.6348	-0.458
Mof_O 	O 	0.8643	0.4524	0.5314	-0.476
Mof_O 	O 	0.8758	0.7971	0.5051	-0.261
Mof_C 	C 	0.5539	0.2337	0.1223	0.206
Mof_C 	C 	0.5736	0.3265	0.1275	-0.153
Mof_H 	H 	0.5917	0.3495	0.1058	0.09
Mof_C 	C 	0.5656	0.3824	0.1653	-0.022
Mof_C 	C 	0.5366	0.3496	0.1965	-0.061
Mof_H 	H 	0.5304	0.3887	0.2209	0.076
Mof_C 	C 	0.5173	0.2608	0.1914	0.002
Mof_C 	C 	0.5248	0.2021	0.153	-0.162
Mof_H 	H 	0.5099	0.1416	0.1484	0.113
Mof_C 	C 	0.5874	0.4829	0.174	0.35
Mof_C 	C 	0.4871	0.2235	0.2257	0.276
Mof_C 	C 	0.5886	0.2039	0.0543	0.174
Mof_C 	C 	0.5402	0.2339	0.9926	-0.114
Mof_H 	H 	0.4875	0.2343	0.9714	0.046
Mof_C 	C 	0.571	0.2633	0.9622	-0.072
Mof_C 	C 	0.6523	0.2558	0.9947	-0.015
Mof_H 	H 	0.6739	0.2748	0.9749	0.019
Mof_C 	C 	0.6978	0.2207	0.0548	-0.054
Mof_C 	C 	0.6663	0.1946	0.0856	-0.125
Mof_H 	H 	0.6972	0.1713	0.1267	0.1
Mof_C 	C 	0.5232	0.3004	0.8989	0.311
Mof_C 	C 	0.7839	0.2115	0.0921	0.317
Mof_C 	C 	0.8737	0.7643	0.4545	0.175
Mof_C 	C 	0.802	0.7424	0.3975	-0.116
Mof_H 	H 	0.7573	0.7454	0.3944	0.095
Mof_C 	C 	0.8008	0.7157	0.3455	-0.057
Mof_C 	C 	0.8657	0.7117	0.3499	-0.007
Mof_H 	H 	0.8632	0.6933	0.3148	0.049
Mof_C 	C 	0.936	0.7348	0.4059	-0.053
Mof_C 	C 	0.9406	0.7576	0.4592	-0.116
Mof_H 	H 	0.988	0.7684	0.4978	0.086
Mof_C 	C 	0.7246	0.6889	0.2847	0.379
Mof_C 	C 	0.0085	0.7261	0.41	0.391
Mof_C 	C 	0.8999	0.7361	0.5535	0.192
Mof_C 	C 	0.9376	0.7702	0.6148	-0.147
Mof_H 	H 	0.9461	0.8325	0.6219	0.107
Mof_C 	C 	0.9625	0.7124	0.6656	-0.008
Mof_C 	C 	0.9507	0.6203	0.6557	-0.043
Mof_H 	H 	0.9681	0.5817	0.6899	0.076
Mof_C 	C 	0.9128	0.5842	0.5948	-0.04
Mof_C 	C 	0.8878	0.6425	0.5425	-0.135
Mof_H 	H 	0.8639	0.6189	0.5019	0.088
Mof_C 	C 	0.0045	0.747	0.7325	0.285
Mof_C 	C 	0.8972	0.4823	0.5862	0.394
Mof_Co	Co	0.35252	0.14316	0.3578	1.086
Mof_Co	Co	0.4407	0.15727	0.28265	1.188
Mof_Co	Co	0.92629	0.18903	0.15916	1.189
Mof_Co	Co	0.82037	0.17455	0.99178	1.09
Mof_O 	O 	0.387	0.0123	0.3553	-0.455
Mof_O 	O 	0.4191	0.0267	0.2887	-0.443
Mof_O 	O 	0.5217	0.7747	0.242	-0.358
Mof_O 	O 	0.5269	0.6392	0.2776	-0.366
Mof_O 	O 	0.5502	0.7987	0.6332	-0.521
Mof_O 	O 	0.4486	0.8341	0.6274	-0.382
Mof_O 	O 	0.185	0.7261	0.4354	-0.523
Mof_O 	O 	0.1772	0.6886	0.351	-0.382
Mof_O 	O 	0.4423	0.6728	0.4147	-0.267
Mof_O 	O 	0.333	0.1985	0.2156	-0.438
Mof_O 	O 	0.2758	0.1634	0.2603	-0.478
Mof_O 	O 	0.0006	0.2242	0.1402	-0.456
Mof_O 	O 	0.9291	0.2268	0.0347	-0.469
Mof_O 	O 	0.9982	0.3316	0.7593	-0.36
Mof_O 	O 	0.9599	0.1951	0.7222	-0.361
Mof_O 	O 	0.0821	0.9417	0.8652	-0.458
Mof_O 	O 	0.1357	0.9524	0.9686	-0.474
Mof_O 	O 	0.1242	0.2971	0.9949	-0.26
Mof_C 	C 	0.4461	0.7337	0.3777	0.205
Mof_C 	C 	0.4264	0.8265	0.3725	-0.153
Mof_H 	H 	0.4083	0.8495	0.3942	0.09
Mof_C 	C 	0.4344	0.8824	0.3347	-0.021
Mof_C 	C 	0.4634	0.8496	0.3035	-0.061
Mof_H 	H 	0.4696	0.8887	0.2791	0.076
Mof_C 	C 	0.4827	0.7608	0.3086	0.002
Mof_C 	C 	0.4752	0.7021	0.347	-0.162
Mof_H 	H 	0.4901	0.6416	0.3516	0.113
Mof_C 	C 	0.4126	0.9829	0.326	0.346
Mof_C 	C 	0.5129	0.7235	0.2743	0.276
Mof_C 	C 	0.4114	0.7039	0.4457	0.168
Mof_C 	C 	0.4598	0.7339	0.5074	-0.108
Mof_H 	H 	0.5125	0.7343	0.5286	0.045
Mof_C 	C 	0.429	0.7633	0.5378	-0.076
Mof_C 	C 	0.3477	0.7558	0.5053	-0.008
Mof_H 	H 	0.3261	0.7748	0.5251	0.017
Mof_C 	C 	0.3022	0.7207	0.4452	-0.06
Mof_C 	C 	0.3337	0.6946	0.4144	-0.12
Mof_H 	H 	0.3028	0.6713	0.3733	0.098
Mof_C 	C 	0.4768	0.8004	0.6011	0.313
Mof_C 	C 	0.2161	0.7115	0.4079	0.319
Mof_C 	C 	0.1263	0.2643	0.0455	0.172
Mof_C 	C 	0.198	0.2424	0.1025	-0.114
Mof_H 	H 	0.2427	0.2454	0.1056	0.094
Mof_C 	C 	0.1992	0.2157	0.1545	-0.06
Mof_C 	C 	0.1343	0.2117	0.1501	-0.003
Mof_H 	H 	0.1368	0.1933	0.1852	0.047
Mof_C 	C 	0.064	0.2348	0.0941	-0.059
Mof_C 	C 	0.0594	0.2576	0.0408	-0.112
Mof_H 	H 	0.012	0.2684	0.0022	0.083
Mof_C 	C 	0.2754	0.1889	0.2153	0.38
Mof_C 	C 	0.9915	0.2261	0.09	0.399
Mof_C 	C 	0.1001	0.2361	0.9465	0.194
Mof_C 	C 	0.0624	0.2702	0.8852	-0.149
Mof_H 	H 	0.0539	0.3325	0.8781	0.108
Mof_C 	C 	0.0375	0.2124	0.8344	-0.003
Mof_C 	C 	0.0493	0.1203	0.8443	-0.045
Mof_H 	H 	0.0319	0.0817	0.8101	0.077
Mof_C 	C 	0.0872	0.0842	0.9052	-0.039
Mof_C 	C 	0.1122	0.1425	0.9575	-0.136
Mof_H 	H 	0.1361	0.1189	0.9981	0.089
Mof_C 	C 	0.9955	0.247	0.7675	0.28
Mof_C 	C 	0.1028	0.9823	0.9138	0.393
_end
