data_functionalizedCrystal
_audit_creation_method	'EQeq! by Chris Wilmer'
_symmetry_space_group_name_H-M	'P1'
_symmetry_Int_Tables_number	1
_symmetry_cell_setting	triclinic
loop_
_symmetry_equiv_pos_as_xyz
  x,y,z
_cell_length_a	13.9337
_cell_length_b	13.9337
_cell_length_c	16.599
_cell_angle_alpha	80.8041
_cell_angle_beta	80.8041
_cell_angle_gamma	61.254
loop_
_atom_site_label
_atom_site_type_symbol
_atom_site_fract_x
_atom_site_fract_y
_atom_site_fract_z
_atom_site_charge
Mof_Co	Co	0.83751	0.78155	0.41769	1.168
Mof_Co	Co	0.21845	0.16249	0.08231	1.168
Mof_Co	Co	0.16249	0.21845	0.58231	1.168
Mof_Co	Co	0.78155	0.83751	0.91769	1.168
Mof_Ni	Ni	0.95573	0.59163	0.69169	1.055
Mof_Ni	Ni	0.40837	0.04427	0.80831	1.054
Mof_Ni	Ni	0.04427	0.40837	0.30831	1.055
Mof_Ni	Ni	0.59163	0.95573	0.19169	1.054
Mof_Ni	Ni	0.1082	0.8918	0.25	1.041
Mof_Ni	Ni	0.8918	0.1082	0.75	1.041
Mof_H 	H 	0.1366	0.5918	0.6458	0.096
Mof_H 	H 	0.0776	0.6696	0.7149	0.09
Mof_H 	H 	0.2284	0.4538	0.7284	-0.058
Mof_H 	H 	0.2217	0.5491	0.7702	-0.052
Mof_H 	H 	0.1956	0.433	0.8615	0.214
Mof_H 	H 	0.0905	0.5459	0.8589	0.188
Mof_H 	H 	0.1092	0.364	0.809	-0.057
Mof_H 	H 	0.0565	0.4065	0.8942	-0.048
Mof_H 	H 	0.9312	0.5482	0.8429	0.073
Mof_H 	H 	0.9452	0.373	0.7985	-0.011
Mof_H 	H 	0.9013	0.4235	0.8818	-0.001
Mof_H 	H 	0.7548	0.5418	0.8379	0.136
Mof_H 	H 	0.7776	0.4268	0.8189	0.098
Mof_H 	H 	0.6833	0.5749	0.7235	-0.009
Mof_H 	H 	0.7807	0.4719	0.6871	-0.016
Mof_H 	H 	0.8153	0.5871	0.6165	0.089
Mof_H 	H 	0.7531	0.6737	0.6794	0.091
Mof_H 	H 	0.1744	0.86	0.3892	0.088
Mof_H 	H 	0.2254	0.9258	0.331	0.097
Mof_H 	H 	0.0842	0.9834	0.4469	-0.137
Mof_H 	H 	0.1388	0.0476	0.391	-0.148
Mof_H 	H 	0.9476	0.0952	0.4237	0.296
Mof_H 	H 	0.0023	0.1593	0.3676	0.256
Mof_H 	H 	0.8628	0.1128	0.3386	-0.111
Mof_H 	H 	0.9152	0.1796	0.2833	-0.158
Mof_H 	H 	0.4082	0.8634	0.8542	0.096
Mof_H 	H 	0.3304	0.9224	0.7851	0.09
Mof_H 	H 	0.5462	0.7716	0.7716	-0.058
Mof_H 	H 	0.4509	0.7783	0.7298	-0.052
Mof_H 	H 	0.567	0.8044	0.6385	0.214
Mof_H 	H 	0.4541	0.9095	0.6411	0.188
Mof_H 	H 	0.636	0.8908	0.691	-0.057
Mof_H 	H 	0.5935	0.9435	0.6058	-0.048
Mof_H 	H 	0.4518	0.0688	0.6571	0.073
Mof_H 	H 	0.627	0.0548	0.7015	-0.011
Mof_H 	H 	0.5765	0.0987	0.6182	-0
Mof_H 	H 	0.4582	0.2452	0.6621	0.136
Mof_H 	H 	0.5732	0.2224	0.6811	0.098
Mof_H 	H 	0.4251	0.3167	0.7765	-0.009
Mof_H 	H 	0.5281	0.2193	0.8129	-0.016
Mof_H 	H 	0.4129	0.1847	0.8835	0.089
Mof_H 	H 	0.3263	0.2469	0.8206	0.091
Mof_H 	H 	0.14	0.8256	0.1108	0.086
Mof_H 	H 	0.0742	0.7746	0.169	0.096
Mof_H 	H 	0.0166	0.9158	0.0531	-0.133
Mof_H 	H 	0.9524	0.8612	0.109	-0.142
Mof_H 	H 	0.9048	0.0524	0.0763	0.288
Mof_H 	H 	0.8407	0.9977	0.1324	0.247
Mof_H 	H 	0.8872	0.1372	0.1614	-0.106
Mof_H 	H 	0.8204	0.0848	0.2167	-0.152
Mof_H 	H 	0.8634	0.4082	0.3542	0.096
Mof_H 	H 	0.9224	0.3304	0.2851	0.09
Mof_H 	H 	0.7716	0.5462	0.2716	-0.058
Mof_H 	H 	0.7783	0.4509	0.2298	-0.052
Mof_H 	H 	0.8044	0.567	0.1385	0.214
Mof_H 	H 	0.9095	0.4541	0.1411	0.188
Mof_H 	H 	0.8908	0.636	0.191	-0.057
Mof_H 	H 	0.9435	0.5935	0.1058	-0.048
Mof_H 	H 	0.0688	0.4518	0.1571	0.073
Mof_H 	H 	0.0548	0.627	0.2015	-0.011
Mof_H 	H 	0.0987	0.5765	0.1182	-0.001
Mof_H 	H 	0.2452	0.4582	0.1621	0.136
Mof_H 	H 	0.2224	0.5732	0.1811	0.098
Mof_H 	H 	0.3167	0.4251	0.2765	-0.009
Mof_H 	H 	0.2193	0.5281	0.3129	-0.016
Mof_H 	H 	0.1847	0.4129	0.3835	0.089
Mof_H 	H 	0.2469	0.3263	0.3206	0.091
Mof_H 	H 	0.8256	0.14	0.6108	0.088
Mof_H 	H 	0.7746	0.0742	0.669	0.097
Mof_H 	H 	0.9158	0.0166	0.5531	-0.137
Mof_H 	H 	0.8612	0.9524	0.609	-0.148
Mof_H 	H 	0.0524	0.9048	0.5763	0.296
Mof_H 	H 	0.9977	0.8407	0.6324	0.256
Mof_H 	H 	0.1372	0.8872	0.6614	-0.111
Mof_H 	H 	0.0848	0.8204	0.7167	-0.158
Mof_H 	H 	0.5918	0.1366	0.1458	0.096
Mof_H 	H 	0.6696	0.0776	0.2149	0.09
Mof_H 	H 	0.4538	0.2284	0.2284	-0.058
Mof_H 	H 	0.5491	0.2217	0.2702	-0.052
Mof_H 	H 	0.433	0.1956	0.3615	0.214
Mof_H 	H 	0.5459	0.0905	0.3589	0.188
Mof_H 	H 	0.364	0.1092	0.309	-0.057
Mof_H 	H 	0.4065	0.0565	0.3942	-0.048
Mof_H 	H 	0.5482	0.9312	0.3429	0.073
Mof_H 	H 	0.373	0.9452	0.2985	-0.011
Mof_H 	H 	0.4235	0.9013	0.3818	-0
Mof_H 	H 	0.5418	0.7548	0.3379	0.136
Mof_H 	H 	0.4268	0.7776	0.3189	0.098
Mof_H 	H 	0.5749	0.6833	0.2235	-0.009
Mof_H 	H 	0.4719	0.7807	0.1871	-0.016
Mof_H 	H 	0.5871	0.8153	0.1165	0.089
Mof_H 	H 	0.6737	0.7531	0.1794	0.091
Mof_H 	H 	0.86	0.1744	0.8892	0.086
Mof_H 	H 	0.9258	0.2254	0.831	0.096
Mof_H 	H 	0.9834	0.0842	0.9469	-0.133
Mof_H 	H 	0.0476	0.1388	0.891	-0.142
Mof_H 	H 	0.0952	0.9476	0.9237	0.288
Mof_H 	H 	0.1593	0.0023	0.8676	0.247
Mof_H 	H 	0.1128	0.8628	0.8386	-0.106
Mof_H 	H 	0.1796	0.9152	0.7833	-0.152
Mof_C 	C 	0.8989	0.7309	0.5191	-0.211
Mof_C 	C 	0.9575	0.8013	0.3664	-0.218
Mof_C 	C 	0.9119	0.6361	0.3878	-0.198
Mof_C 	C 	0.7647	0.9307	0.4445	-0.22
Mof_C 	C 	0.7162	0.7568	0.4638	-0.225
Mof_C 	C 	0.7725	0.8329	0.318	-0.206
Mof_C 	C 	0.183	0.515	0.756	0.235
Mof_C 	C 	0.138	0.48	0.831	-0.554
Mof_C 	C 	0.074	0.426	0.837	0.243
Mof_C 	C 	0.9	0.44	0.822	0.091
Mof_C 	C 	0.791	0.491	0.801	-0.325
Mof_C 	C 	0.7556	0.5356	0.712	0.083
Mof_C 	C 	0.095	0.013	0.391	0.514
Mof_C 	C 	0.993	0.093	0.374	-0.856
Mof_C 	C 	0.9329	0.1109	0.309	0.522
Mof_C 	C 	0.2691	0.1011	0.9809	-0.213
Mof_C 	C 	0.1987	0.0425	0.1336	-0.216
Mof_C 	C 	0.3639	0.0881	0.1122	-0.197
Mof_C 	C 	0.0693	0.2353	0.0555	-0.221
Mof_C 	C 	0.2432	0.2838	0.0362	-0.225
Mof_C 	C 	0.1671	0.2275	0.182	-0.206
Mof_C 	C 	0.485	0.817	0.744	0.235
Mof_C 	C 	0.52	0.862	0.669	-0.554
Mof_C 	C 	0.574	0.926	0.663	0.243
Mof_C 	C 	0.56	0.1	0.678	0.091
Mof_C 	C 	0.509	0.209	0.699	-0.326
Mof_C 	C 	0.4644	0.2444	0.788	0.083
Mof_C 	C 	0.987	0.905	0.109	0.496
Mof_C 	C 	0.907	0.007	0.126	-0.828
Mof_C 	C 	0.8891	0.0671	0.191	0.505
Mof_C 	C 	0.1011	0.2691	0.4809	-0.211
Mof_C 	C 	0.0425	0.1987	0.6336	-0.218
Mof_C 	C 	0.0881	0.3639	0.6122	-0.198
Mof_C 	C 	0.2353	0.0693	0.5555	-0.22
Mof_C 	C 	0.2838	0.2432	0.5362	-0.225
Mof_C 	C 	0.2275	0.1671	0.682	-0.206
Mof_C 	C 	0.817	0.485	0.244	0.235
Mof_C 	C 	0.862	0.52	0.169	-0.554
Mof_C 	C 	0.926	0.574	0.163	0.243
Mof_C 	C 	0.1	0.56	0.178	0.091
Mof_C 	C 	0.209	0.509	0.199	-0.325
Mof_C 	C 	0.2444	0.4644	0.288	0.083
Mof_C 	C 	0.905	0.987	0.609	0.514
Mof_C 	C 	0.007	0.907	0.626	-0.856
Mof_C 	C 	0.0671	0.8891	0.691	0.522
Mof_C 	C 	0.7309	0.8989	0.0191	-0.213
Mof_C 	C 	0.8013	0.9575	0.8664	-0.216
Mof_C 	C 	0.6361	0.9119	0.8878	-0.197
Mof_C 	C 	0.9307	0.7647	0.9445	-0.221
Mof_C 	C 	0.7568	0.7162	0.9638	-0.225
Mof_C 	C 	0.8329	0.7725	0.818	-0.206
Mof_C 	C 	0.515	0.183	0.256	0.235
Mof_C 	C 	0.48	0.138	0.331	-0.554
Mof_C 	C 	0.426	0.074	0.337	0.243
Mof_C 	C 	0.44	0.9	0.322	0.091
Mof_C 	C 	0.491	0.791	0.301	-0.326
Mof_C 	C 	0.5356	0.7556	0.212	0.083
Mof_C 	C 	0.013	0.095	0.891	0.496
Mof_C 	C 	0.093	0.993	0.874	-0.828
Mof_C 	C 	0.1109	0.9329	0.809	0.505
Mof_N 	N 	0.9344	0.6944	0.5805	-0.183
Mof_N 	N 	0.0286	0.8174	0.3295	-0.189
Mof_N 	N 	0.9573	0.5505	0.367	-0.182
Mof_N 	N 	0.7218	0.022	0.4569	-0.06
Mof_N 	N 	0.6439	0.7351	0.4894	-0.074
Mof_N 	N 	0.7267	0.8681	0.2599	-0.185
Mof_N 	N 	0.1007	0.5987	0.6977	-0.346
Mof_N 	N 	0.9677	0.4917	0.8044	-0.291
Mof_N 	N 	0.8062	0.6008	0.6716	-0.322
Mof_N 	N 	0.1597	0.9217	0.3495	-0.408
Mof_N 	N 	0.3056	0.0656	0.9195	-0.183
Mof_N 	N 	0.1826	0.9714	0.1705	-0.19
Mof_N 	N 	0.4495	0.0427	0.133	-0.181
Mof_N 	N 	0.978	0.2782	0.0431	-0.058
Mof_N 	N 	0.2649	0.3561	0.0106	-0.075
Mof_N 	N 	0.1319	0.2733	0.2401	-0.185
Mof_N 	N 	0.4013	0.8993	0.8023	-0.346
Mof_N 	N 	0.5083	0.0323	0.6956	-0.291
Mof_N 	N 	0.3992	0.1938	0.8284	-0.322
Mof_N 	N 	0.0783	0.8403	0.1505	-0.404
Mof_N 	N 	0.0656	0.3056	0.4195	-0.183
Mof_N 	N 	0.9714	0.1826	0.6705	-0.189
Mof_N 	N 	0.0427	0.4495	0.633	-0.182
Mof_N 	N 	0.2782	0.978	0.5431	-0.06
Mof_N 	N 	0.3561	0.2649	0.5106	-0.074
Mof_N 	N 	0.2733	0.1319	0.7401	-0.185
Mof_N 	N 	0.8993	0.4013	0.3023	-0.346
Mof_N 	N 	0.0323	0.5083	0.1956	-0.291
Mof_N 	N 	0.1938	0.3992	0.3284	-0.322
Mof_N 	N 	0.8403	0.0783	0.6505	-0.408
Mof_N 	N 	0.6944	0.9344	0.0805	-0.183
Mof_N 	N 	0.8174	0.0286	0.8295	-0.19
Mof_N 	N 	0.5505	0.9573	0.867	-0.181
Mof_N 	N 	0.022	0.7218	0.9569	-0.058
Mof_N 	N 	0.7351	0.6439	0.9894	-0.075
Mof_N 	N 	0.8681	0.7267	0.7599	-0.185
Mof_N 	N 	0.5987	0.1007	0.1977	-0.346
Mof_N 	N 	0.4917	0.9677	0.3044	-0.291
Mof_N 	N 	0.6008	0.8062	0.1716	-0.322
Mof_N 	N 	0.9217	0.1597	0.8495	-0.404
Mof_N 	N 	0.9587	0.0413	0.25	-0.367
Mof_N 	N 	0.0413	0.9587	0.75	-0.367
_end
