data_functionalizedCrystal
_audit_creation_method	'EQeq! by Chris Wilmer'
_symmetry_space_group_name_H-M	'P1'
_symmetry_Int_Tables_number	1
_symmetry_cell_setting	triclinic
loop_
_symmetry_equiv_pos_as_xyz
  x,y,z
_cell_length_a	8.818
_cell_length_b	10.2
_cell_length_c	19.737
_cell_angle_alpha	90
_cell_angle_beta	102.4
_cell_angle_gamma	90
loop_
_atom_site_label
_atom_site_type_symbol
_atom_site_fract_x
_atom_site_fract_y
_atom_site_fract_z
_atom_site_charge
Mof_Ba	Ba	0.65658	0.81035	0.96774	1.645
Mof_Ba	Ba	0.34342	0.31035	0.53226	1.648
Mof_Ba	Ba	0.34342	0.18965	0.03226	1.645
Mof_Ba	Ba	0.65658	0.68965	0.46774	1.648
Mof_Cu	Cu	0.76377	0.06618	0.79623	0.929
Mof_Cu	Cu	0.23623	0.56618	0.70377	0.929
Mof_Cu	Cu	0.23623	0.93382	0.20377	0.929
Mof_Cu	Cu	0.76377	0.43382	0.29623	0.929
Mof_H 	H 	0.7374	0.3202	0.6883	0.025
Mof_H 	H 	0.8651	0.4167	0.7425	0.058
Mof_H 	H 	0.6153	0.4194	0.7747	0.057
Mof_H 	H 	0.7544	0.3574	0.8368	0.045
Mof_H 	H 	0.9014	0.1755	0.6587	0.074
Mof_H 	H 	0.0581	0.1275	0.6949	0.082
Mof_H 	H 	0.1414	0.2395	0.8228	0.088
Mof_H 	H 	0.0555	0.3671	0.8271	0.105
Mof_H 	H 	0.6297	0.2604	0.8924	0.077
Mof_H 	H 	0.4474	0.272	0.8494	0.097
Mof_H 	H 	0.4259	0.2761	0.7096	0.087
Mof_H 	H 	0.3964	0.1486	0.7476	0.096
Mof_H 	H 	0.2626	0.8202	0.8117	0.024
Mof_H 	H 	0.1349	0.9167	0.7575	0.058
Mof_H 	H 	0.3847	0.9194	0.7253	0.057
Mof_H 	H 	0.2456	0.8574	0.6632	0.044
Mof_H 	H 	0.0986	0.6755	0.8413	0.072
Mof_H 	H 	0.9419	0.6275	0.8051	0.077
Mof_H 	H 	0.8586	0.7395	0.6772	0.089
Mof_H 	H 	0.9445	0.8671	0.6729	0.107
Mof_H 	H 	0.3703	0.7604	0.6076	0.076
Mof_H 	H 	0.5526	0.772	0.6506	0.096
Mof_H 	H 	0.5741	0.7761	0.7904	0.087
Mof_H 	H 	0.6036	0.6486	0.7524	0.095
Mof_H 	H 	0.2626	0.6798	0.3117	0.025
Mof_H 	H 	0.1349	0.5833	0.2575	0.058
Mof_H 	H 	0.3847	0.5806	0.2253	0.057
Mof_H 	H 	0.2456	0.6426	0.1632	0.045
Mof_H 	H 	0.0986	0.8245	0.3413	0.074
Mof_H 	H 	0.9419	0.8725	0.3051	0.082
Mof_H 	H 	0.8586	0.7605	0.1772	0.088
Mof_H 	H 	0.9445	0.6329	0.1729	0.105
Mof_H 	H 	0.3703	0.7396	0.1076	0.077
Mof_H 	H 	0.5526	0.728	0.1506	0.097
Mof_H 	H 	0.5741	0.7239	0.2904	0.087
Mof_H 	H 	0.6036	0.8514	0.2524	0.096
Mof_H 	H 	0.7374	0.1798	0.1883	0.024
Mof_H 	H 	0.8651	0.0833	0.2425	0.058
Mof_H 	H 	0.6153	0.0806	0.2747	0.057
Mof_H 	H 	0.7544	0.1426	0.3368	0.044
Mof_H 	H 	0.9014	0.3245	0.1587	0.072
Mof_H 	H 	0.0581	0.3725	0.1949	0.077
Mof_H 	H 	0.1414	0.2605	0.3228	0.089
Mof_H 	H 	0.0555	0.1329	0.3271	0.107
Mof_H 	H 	0.6297	0.2396	0.3924	0.076
Mof_H 	H 	0.4474	0.228	0.3494	0.096
Mof_H 	H 	0.4259	0.2239	0.2096	0.087
Mof_H 	H 	0.3964	0.3514	0.2476	0.095
Mof_C 	C 	0.79606	0.33707	0.73747	-0.075
Mof_C 	C 	0.69066	0.34404	0.78834	-0.082
Mof_C 	C 	0.07871	0.3143	0.67119	0.401
Mof_C 	C 	0.98796	0.20443	0.69842	-0.233
Mof_C 	C 	0.03196	0.27035	0.82067	-0.26
Mof_C 	C 	0.99962	0.21524	0.8876	0.396
Mof_C 	C 	0.54472	0.2172	0.85711	-0.285
Mof_C 	C 	0.51454	0.07862	0.88044	0.411
Mof_C 	C 	0.48312	0.19601	0.73153	-0.272
Mof_C 	C 	0.53019	0.10336	0.67937	0.383
Mof_C 	C 	0.20394	0.83707	0.76253	-0.075
Mof_C 	C 	0.30934	0.84404	0.71166	-0.082
Mof_C 	C 	0.92129	0.8143	0.82881	0.396
Mof_C 	C 	0.01204	0.70443	0.80158	-0.223
Mof_C 	C 	0.96804	0.77035	0.67933	-0.269
Mof_C 	C 	0.00038	0.71524	0.6124	0.405
Mof_C 	C 	0.45528	0.7172	0.64289	-0.285
Mof_C 	C 	0.48546	0.57862	0.61956	0.41
Mof_C 	C 	0.51688	0.69601	0.76847	-0.272
Mof_C 	C 	0.46981	0.60336	0.82063	0.383
Mof_C 	C 	0.20394	0.66293	0.26253	-0.075
Mof_C 	C 	0.30934	0.65596	0.21166	-0.082
Mof_C 	C 	0.92129	0.6857	0.32881	0.401
Mof_C 	C 	0.01204	0.79557	0.30158	-0.233
Mof_C 	C 	0.96804	0.72965	0.17933	-0.26
Mof_C 	C 	0.00038	0.78476	0.1124	0.396
Mof_C 	C 	0.45528	0.7828	0.14289	-0.285
Mof_C 	C 	0.48546	0.92138	0.11956	0.411
Mof_C 	C 	0.51688	0.80399	0.26847	-0.272
Mof_C 	C 	0.46981	0.89664	0.32063	0.383
Mof_C 	C 	0.79606	0.16293	0.23747	-0.075
Mof_C 	C 	0.69066	0.15596	0.28834	-0.082
Mof_C 	C 	0.07871	0.1857	0.17119	0.396
Mof_C 	C 	0.98796	0.29557	0.19842	-0.223
Mof_C 	C 	0.03196	0.22965	0.32067	-0.269
Mof_C 	C 	0.99962	0.28476	0.3876	0.405
Mof_C 	C 	0.54472	0.2828	0.35711	-0.285
Mof_C 	C 	0.51454	0.42138	0.38044	0.41
Mof_C 	C 	0.48312	0.30399	0.23153	-0.272
Mof_C 	C 	0.53019	0.39664	0.17937	0.383
Mof_N 	N 	0.91832	0.237	0.75741	-0.08
Mof_N 	N 	0.60952	0.21814	0.79384	-0.111
Mof_N 	N 	0.08168	0.737	0.74259	-0.079
Mof_N 	N 	0.39048	0.71814	0.70616	-0.111
Mof_N 	N 	0.08168	0.763	0.24259	-0.08
Mof_N 	N 	0.39048	0.78186	0.20616	-0.111
Mof_N 	N 	0.91832	0.263	0.25741	-0.079
Mof_N 	N 	0.60952	0.28186	0.29384	-0.111
Mof_O 	O 	0.11789	0.29501	0.61486	-0.435
Mof_O 	O 	0.10883	0.4147	0.70901	-0.421
Mof_O 	O 	0.07985	0.25587	0.94255	-0.463
Mof_O 	O 	0.89389	0.12907	0.88473	-0.439
Mof_O 	O 	0.43477	0.06762	0.92412	-0.538
Mof_O 	O 	0.5791	0.98547	0.85601	-0.493
Mof_O 	O 	0.44662	0.09961	0.62063	-0.453
Mof_O 	O 	0.64736	0.03024	0.70071	-0.413
Mof_O 	O 	0.88211	0.79501	0.88514	-0.434
Mof_O 	O 	0.89117	0.9147	0.79099	-0.42
Mof_O 	O 	0.92015	0.75587	0.55745	-0.469
Mof_O 	O 	0.10611	0.62907	0.61527	-0.44
Mof_O 	O 	0.56523	0.56762	0.57588	-0.54
Mof_O 	O 	0.4209	0.48547	0.64399	-0.492
Mof_O 	O 	0.55338	0.59961	0.87937	-0.453
Mof_O 	O 	0.35264	0.53024	0.79929	-0.412
Mof_O 	O 	0.88211	0.70499	0.38514	-0.435
Mof_O 	O 	0.89117	0.5853	0.29099	-0.421
Mof_O 	O 	0.92015	0.74413	0.05745	-0.463
Mof_O 	O 	0.10611	0.87093	0.11527	-0.439
Mof_O 	O 	0.56523	0.93238	0.07588	-0.538
Mof_O 	O 	0.4209	0.01453	0.14399	-0.493
Mof_O 	O 	0.55338	0.90039	0.37937	-0.453
Mof_O 	O 	0.35264	0.96976	0.29929	-0.413
Mof_O 	O 	0.11789	0.20499	0.11486	-0.434
Mof_O 	O 	0.10883	0.0853	0.20901	-0.42
Mof_O 	O 	0.07985	0.24413	0.44255	-0.469
Mof_O 	O 	0.89389	0.37093	0.38473	-0.44
Mof_O 	O 	0.43477	0.43238	0.42412	-0.54
Mof_O 	O 	0.5791	0.51453	0.35601	-0.492
Mof_O 	O 	0.44662	0.40039	0.12063	-0.453
Mof_O 	O 	0.64736	0.46976	0.20071	-0.412
_end
