data_functionalizedCrystal
_audit_creation_method	'EQeq! by Chris Wilmer'
_symmetry_space_group_name_H-M	'P1'
_symmetry_Int_Tables_number	1
_symmetry_cell_setting	triclinic
loop_
_symmetry_equiv_pos_as_xyz
  x,y,z
_cell_length_a	18.658
_cell_length_b	18.658
_cell_length_c	14.84
_cell_angle_alpha	90
_cell_angle_beta	90
_cell_angle_gamma	120
loop_
_atom_site_label
_atom_site_type_symbol
_atom_site_fract_x
_atom_site_fract_y
_atom_site_fract_z
_atom_site_charge
Mof_N 	N 	0.3444	0.5734	0.0868	-0.257
Mof_O 	O 	0.4207	0.5058	0.0821	-0.772
Mof_O 	O 	0.4932	0.5907	0.9304	-0.679
Mof_O 	O 	0.4199	0.6539	0.9363	-0.317
Mof_C 	C 	0.3044	0.5351	0.1682	0.09
Mof_C 	C 	0.2232	0.47	0.1693	-0.147
Mof_C 	C 	0.398	0.5565	0.053	-0.084
Mof_C 	C 	0.4384	0.6035	0.9658	0.425
Mof_N 	N 	0.4266	0.771	0.0868	-0.246
Mof_O 	O 	0.4942	0.9149	0.0821	-0.485
Mof_O 	O 	0.4093	0.9025	0.9304	-0.446
Mof_O 	O 	0.3461	0.766	0.9363	-0.319
Mof_C 	C 	0.4649	0.7693	0.1682	0.088
Mof_C 	C 	0.53	0.7532	0.1693	-0.095
Mof_C 	C 	0.4435	0.8415	0.053	-0.075
Mof_C 	C 	0.3965	0.8349	0.9658	0.435
Mof_N 	N 	0.229	0.6556	0.0868	-0.252
Mof_O 	O 	0.0851	0.5793	0.0821	-0.624
Mof_O 	O 	0.0975	0.5068	0.9304	-0.586
Mof_O 	O 	0.234	0.5801	0.9363	-0.347
Mof_C 	C 	0.2307	0.6956	0.1682	0.081
Mof_C 	C 	0.2468	0.7768	0.1693	-0.113
Mof_C 	C 	0.1585	0.602	0.053	-0.089
Mof_C 	C 	0.1651	0.5616	0.9658	0.436
Mof_N 	N 	0.6556	0.4266	0.5868	-0.254
Mof_O 	O 	0.5793	0.4942	0.5821	-0.945
Mof_O 	O 	0.5068	0.4093	0.4304	-0.934
Mof_O 	O 	0.5801	0.3461	0.4363	-0.384
Mof_C 	C 	0.6956	0.4649	0.6682	0.095
Mof_C 	C 	0.7768	0.53	0.6693	-0.059
Mof_C 	C 	0.602	0.4435	0.553	0.105
Mof_C 	C 	0.5616	0.3965	0.4658	0.232
Mof_N 	N 	0.5734	0.229	0.5868	-0.261
Mof_O 	O 	0.5058	0.0851	0.5821	-0.817
Mof_O 	O 	0.5907	0.0975	0.4304	-0.793
Mof_O 	O 	0.6539	0.234	0.4363	-0.377
Mof_C 	C 	0.5351	0.2307	0.6682	0.09
Mof_C 	C 	0.47	0.2468	0.6693	-0.117
Mof_C 	C 	0.5565	0.1585	0.553	0.096
Mof_C 	C 	0.6035	0.1651	0.4658	0.229
Mof_N 	N 	0.771	0.3444	0.5868	-0.252
Mof_O 	O 	0.9149	0.4207	0.5821	-0.687
Mof_O 	O 	0.9025	0.4932	0.4304	-0.663
Mof_O 	O 	0.766	0.4199	0.4363	-0.359
Mof_C 	C 	0.7693	0.3044	0.6682	0.094
Mof_C 	C 	0.7532	0.2232	0.6693	-0.078
Mof_C 	C 	0.8415	0.398	0.553	0.108
Mof_C 	C 	0.8349	0.4384	0.4658	0.233
Mof_N 	N 	0.6556	0.4266	0.9132	-0.248
Mof_O 	O 	0.5793	0.4942	0.9179	-0.713
Mof_O 	O 	0.5068	0.4093	0.0696	-0.757
Mof_O 	O 	0.5801	0.3461	0.0637	-0.407
Mof_C 	C 	0.6956	0.4649	0.8318	0.092
Mof_C 	C 	0.7768	0.53	0.8307	-0.004
Mof_C 	C 	0.602	0.4435	0.947	0.292
Mof_C 	C 	0.5616	0.3965	0.0342	0.039
Mof_N 	N 	0.5734	0.229	0.9132	-0.255
Mof_O 	O 	0.5058	0.0851	0.9179	-0.589
Mof_O 	O 	0.5907	0.0975	0.0696	-0.62
Mof_O 	O 	0.6539	0.234	0.0637	-0.4
Mof_C 	C 	0.5351	0.2307	0.8318	0.086
Mof_C 	C 	0.47	0.2468	0.8307	-0.059
Mof_C 	C 	0.5565	0.1585	0.947	0.283
Mof_C 	C 	0.6035	0.1651	0.0342	0.037
Mof_N 	N 	0.771	0.3444	0.9132	-0.246
Mof_O 	O 	0.9149	0.4207	0.9179	-0.459
Mof_O 	O 	0.9025	0.4932	0.0696	-0.487
Mof_O 	O 	0.766	0.4199	0.0637	-0.382
Mof_C 	C 	0.7693	0.3044	0.8318	0.091
Mof_C 	C 	0.7532	0.2232	0.8307	-0.022
Mof_C 	C 	0.8415	0.398	0.947	0.292
Mof_C 	C 	0.8349	0.4384	0.0342	0.044
Mof_N 	N 	0.3444	0.5734	0.4132	-0.263
Mof_O 	O 	0.4207	0.5058	0.4179	-0.973
Mof_O 	O 	0.4932	0.5907	0.5696	-0.892
Mof_O 	O 	0.4199	0.6539	0.5637	-0.347
Mof_C 	C 	0.3044	0.5351	0.3318	0.098
Mof_C 	C 	0.2232	0.47	0.3307	-0.12
Mof_C 	C 	0.398	0.5565	0.447	0.106
Mof_C 	C 	0.4384	0.6035	0.5342	0.221
Mof_N 	N 	0.4266	0.771	0.4132	-0.25
Mof_O 	O 	0.4942	0.9149	0.4179	-0.68
Mof_O 	O 	0.4093	0.9025	0.5696	-0.652
Mof_O 	O 	0.3461	0.766	0.5637	-0.349
Mof_C 	C 	0.4649	0.7693	0.3318	0.096
Mof_C 	C 	0.53	0.7532	0.3307	-0.068
Mof_C 	C 	0.4435	0.8415	0.447	0.113
Mof_C 	C 	0.3965	0.8349	0.5342	0.235
Mof_N 	N 	0.229	0.6556	0.4132	-0.256
Mof_O 	O 	0.0851	0.5793	0.4179	-0.822
Mof_O 	O 	0.0975	0.5068	0.5696	-0.797
Mof_O 	O 	0.234	0.5801	0.5637	-0.377
Mof_C 	C 	0.2307	0.6956	0.3318	0.089
Mof_C 	C 	0.2468	0.7768	0.3307	-0.086
Mof_C 	C 	0.1585	0.602	0.447	0.101
Mof_C 	C 	0.1651	0.5616	0.5342	0.232
Mof_Co	Co	0.33333	0.66667	0.01918	1.06
Mof_Co	Co	0.66667	0.33333	0.51918	1.138
Mof_Co	Co	0.66667	0.33333	0.98082	1.227
Mof_Co	Co	0.33333	0.66667	0.48082	1.139
Mof_Li	Li	0.5	0.5	-0	2.802
Mof_Li	Li	0.5	0	-0	1.835
Mof_Li	Li	-0	0.5	-0	1.848
Mof_Li	Li	0.5	0.5	0.5	3.862
Mof_Li	Li	0.5	0	0.5	2.868
Mof_Li	Li	2.11894e-18	0.5	0.5	2.897
Mof_C 	C 	0.3465	0.5666	0.25	-0.086
Mof_C 	C 	0.1843	0.4387	0.25	-0.073
Mof_C 	C 	0.4334	0.7799	0.25	-0.061
Mof_C 	C 	0.5613	0.7456	0.25	-0.014
Mof_C 	C 	0.2201	0.6535	0.25	-0.088
Mof_C 	C 	0.2544	0.8157	0.25	-0.008
Mof_C 	C 	0.6535	0.4334	0.75	-0.071
Mof_C 	C 	0.8157	0.5613	0.75	0.042
Mof_C 	C 	0.5666	0.2201	0.75	-0.082
Mof_C 	C 	0.4387	0.2544	0.75	-0.049
Mof_C 	C 	0.7799	0.3465	0.75	-0.054
Mof_C 	C 	0.7456	0.1843	0.75	-0.023
_end
