data_functionalizedCrystal
_audit_creation_method	'EQeq! by Chris Wilmer'
_symmetry_space_group_name_H-M	'P1'
_symmetry_Int_Tables_number	1
_symmetry_cell_setting	triclinic
loop_
_symmetry_equiv_pos_as_xyz
  x,y,z
_cell_length_a	8.0306
_cell_length_b	19.408
_cell_length_c	8.8862
_cell_angle_alpha	90
_cell_angle_beta	92.816
_cell_angle_gamma	90
loop_
_atom_site_label
_atom_site_type_symbol
_atom_site_fract_x
_atom_site_fract_y
_atom_site_fract_z
_atom_site_charge
Mof_N 	N 	0.8638	0.0801	0.084	-0.163
Mof_N 	N 	0.6944	0.0863	0.0698	-0.103
Mof_N 	N 	0.7962	0.1783	0.1633	-0.118
Mof_N 	N 	0.8254	0.2434	0.2239	-0.034
Mof_N 	N 	0.6933	0.2745	0.2224	-0.039
Mof_N 	N 	0.7205	0.3381	0.2823	-0.11
Mof_N 	N 	0.646	0.4291	0.3956	-0.16
Mof_N 	N 	0.8165	0.4252	0.4045	-0.088
Mof_N 	N 	0.1545	0.0036	0.1928	-0.161
Mof_N 	N 	0.0792	0.0049	0.3317	-0.111
Mof_N 	N 	0.3444	0.0025	0.3682	-0.117
Mof_N 	N 	0.5018	0.9999	0.4306	-0.011
Mof_C 	C 	0.9217	0.1346	0.1412	0.175
Mof_H 	H 	0.0339	0.1433	0.1646	-0.029
Mof_C 	C 	0.6568	0.145	0.1187	0.11
Mof_H 	H 	0.5491	0.1623	0.123	0.015
Mof_C 	C 	0.5927	0.3768	0.3214	0.127
Mof_H 	H 	0.481	0.3672	0.2979	0.004
Mof_C 	C 	0.8565	0.3698	0.3397	0.114
Mof_H 	H 	0.9649	0.3537	0.3331	0.03
Mof_C 	C 	0.3138	0.0027	0.2194	0.116
Mof_H 	H 	0.3937	0.0022	0.1471	0.005
Mof_C 	C 	0.1948	0.0037	0.4337	0.105
Mof_H 	H 	0.1799	0.0036	0.5369	0.018
Mof_N 	N 	0.6362	0.5801	0.416	-0.161
Mof_N 	N 	0.8056	0.5863	0.4302	-0.089
Mof_N 	N 	0.7038	0.6783	0.3367	-0.11
Mof_N 	N 	0.6746	0.7434	0.2761	-0.039
Mof_N 	N 	0.8067	0.7745	0.2776	-0.032
Mof_N 	N 	0.7795	0.8381	0.2177	-0.116
Mof_N 	N 	0.854	0.9291	0.1044	-0.15
Mof_N 	N 	0.6835	0.9252	0.0955	-0.092
Mof_N 	N 	0.3455	0.5036	0.3072	-0.16
Mof_N 	N 	0.4208	0.5049	0.1683	-0.088
Mof_N 	N 	0.1556	0.5025	0.1318	-0.109
Mof_N 	N 	0.9982	0.4999	0.0694	-0.033
Mof_C 	C 	0.5783	0.6346	0.3588	0.132
Mof_H 	H 	0.4661	0.6433	0.3354	0.003
Mof_C 	C 	0.8432	0.645	0.3813	0.115
Mof_H 	H 	0.9509	0.6623	0.377	0.029
Mof_C 	C 	0.9073	0.8768	0.1786	0.17
Mof_H 	H 	0.019	0.8672	0.2021	-0.02
Mof_C 	C 	0.6435	0.8698	0.1603	0.112
Mof_H 	H 	0.5351	0.8537	0.1669	0.02
Mof_C 	C 	0.1862	0.5027	0.2806	0.12
Mof_H 	H 	0.1063	0.5022	0.3529	0.011
Mof_C 	C 	0.3052	0.5037	0.0663	0.046
Mof_H 	H 	0.3201	0.5036	0.9631	0.069
Mof_N 	N 	0.1362	0.9199	0.916	-0.132
Mof_N 	N 	0.3056	0.9137	0.9302	-0.078
Mof_N 	N 	0.2038	0.8217	0.8367	-0.101
Mof_N 	N 	0.1746	0.7566	0.7761	-0.038
Mof_N 	N 	0.3067	0.7255	0.7776	-0.032
Mof_N 	N 	0.2795	0.6619	0.7177	-0.109
Mof_N 	N 	0.354	0.5709	0.6044	-0.16
Mof_N 	N 	0.1835	0.5748	0.5955	-0.095
Mof_N 	N 	0.8455	0.9964	0.8072	-0.13
Mof_N 	N 	0.9208	0.9951	0.6683	-0.08
Mof_N 	N 	0.6556	0.9975	0.6318	-0.093
Mof_N 	N 	0.4982	0.0001	0.5694	-0.059
Mof_C 	C 	0.0783	0.8654	0.8588	0.092
Mof_H 	H 	0.9661	0.8567	0.8354	0.042
Mof_C 	C 	0.3432	0.855	0.8813	0.118
Mof_H 	H 	0.4509	0.8377	0.877	0.029
Mof_C 	C 	0.4073	0.6232	0.6786	0.128
Mof_H 	H 	0.519	0.6328	0.7021	0.011
Mof_C 	C 	0.1435	0.6302	0.6603	0.113
Mof_H 	H 	0.0351	0.6463	0.6669	0.017
Mof_C 	C 	0.6862	0.9973	0.7806	0.126
Mof_H 	H 	0.6063	0.9978	0.8529	0.038
Mof_C 	C 	0.8052	0.9963	0.5663	0.113
Mof_H 	H 	0.8201	0.9964	0.4631	0.043
Mof_N 	N 	0.3638	0.4199	0.584	-0.161
Mof_N 	N 	0.1944	0.4137	0.5698	-0.096
Mof_N 	N 	0.2962	0.3217	0.6633	-0.11
Mof_N 	N 	0.3254	0.2566	0.7239	-0.034
Mof_N 	N 	0.1933	0.2255	0.7224	-0.039
Mof_N 	N 	0.2205	0.1619	0.7823	-0.102
Mof_N 	N 	0.146	0.0709	0.8956	-0.14
Mof_N 	N 	0.3165	0.0748	0.9045	-0.088
Mof_N 	N 	0.6545	0.4964	0.6928	-0.158
Mof_N 	N 	0.5792	0.4951	0.8317	-0.105
Mof_N 	N 	0.8444	0.4975	0.8682	-0.104
Mof_N 	N 	0.0018	0.5001	0.9306	-0.036
Mof_C 	C 	0.4217	0.3654	0.6412	0.132
Mof_H 	H 	0.5339	0.3567	0.6646	0.009
Mof_C 	C 	0.1568	0.355	0.6187	0.114
Mof_H 	H 	0.0491	0.3377	0.623	0.016
Mof_C 	C 	0.0927	0.1232	0.8214	0.083
Mof_H 	H 	0.981	0.1328	0.7979	0.041
Mof_C 	C 	0.3565	0.1302	0.8397	0.115
Mof_H 	H 	0.4649	0.1463	0.8331	0.027
Mof_C 	C 	0.8138	0.4973	0.7194	0.127
Mof_H 	H 	0.8937	0.4978	0.6471	0.025
Mof_C 	C 	0.6948	0.4963	0.9337	0.169
Mof_H 	H 	0.6799	0.4964	0.0369	-0.008
Mof_Fe	Fe	-0	0	-0	0.622
Mof_Fe	Fe	0.5	0.5	0.5	0.735
_end
