data_functionalizedCrystal
_audit_creation_method	'EQeq! by Chris Wilmer'
_symmetry_space_group_name_H-M	'P1'
_symmetry_Int_Tables_number	1
_symmetry_cell_setting	triclinic
loop_
_symmetry_equiv_pos_as_xyz
  x,y,z
_cell_length_a	7.7815
_cell_length_b	9.26
_cell_length_c	25.543
_cell_angle_alpha	90
_cell_angle_beta	90
_cell_angle_gamma	97.36
loop_
_atom_site_label
_atom_site_type_symbol
_atom_site_fract_x
_atom_site_fract_y
_atom_site_fract_z
_atom_site_charge
Mof_Gd	Gd	0.41277	0.48775	0.3494	1.516
Mof_Gd	Gd	0.08723	0.51225	0.8494	1.478
Mof_Gd	Gd	0.58723	0.51225	0.6506	1.526
Mof_Gd	Gd	0.91277	0.48775	0.1506	1.535
Mof_Cu	Cu	0.5	0	0.5	0.898
Mof_Cu	Cu	-0	0	-0	0.878
Mof_C 	C 	0.7204	0.4035	0.272	0.404
Mof_C 	C 	0.6628	0.2541	0.2951	-0.034
Mof_C 	C 	0.7291	0.1302	0.2772	-0.041
Mof_C 	C 	0.6731	0.9976	0.3009	0.097
Mof_C 	C 	0.5526	0.9932	0.341	-0.098
Mof_C 	C 	0.4931	0.1221	0.3563	0.054
Mof_C 	C 	0.4839	0.8522	0.368	0.376
Mof_C 	C 	0.6976	0.7773	0.4927	0.29
Mof_C 	C 	0.8002	0.9044	0.4633	-0.009
Mof_C 	C 	0.9483	0.8935	0.435	0.057
Mof_C 	C 	0.0309	0.019	0.4114	-0.033
Mof_C 	C 	0.9601	0.1497	0.4152	-0.088
Mof_C 	C 	0.8081	0.1502	0.443	0.084
Mof_C 	C 	0.0425	0.2881	0.3894	0.345
Mof_C 	C 	0.7796	0.5965	0.772	0.412
Mof_C 	C 	0.8372	0.7459	0.7951	-0.053
Mof_C 	C 	0.7709	0.8698	0.7772	0.058
Mof_C 	C 	0.8269	0.0024	0.8009	-0.003
Mof_C 	C 	0.9474	0.0068	0.841	-0.118
Mof_C 	C 	0.0069	0.8779	0.8563	0.099
Mof_C 	C 	0.0161	0.1478	0.868	0.321
Mof_C 	C 	0.8024	0.2227	0.9927	0.329
Mof_C 	C 	0.6998	0.0956	0.9633	-0.047
Mof_C 	C 	0.5517	0.1065	0.935	-0.038
Mof_C 	C 	0.4691	0.981	0.9114	0.113
Mof_C 	C 	0.5399	0.8503	0.9152	-0.144
Mof_C 	C 	0.6919	0.8498	0.943	0.123
Mof_C 	C 	0.4575	0.7119	0.8894	0.386
Mof_C 	C 	0.2796	0.5965	0.728	0.409
Mof_C 	C 	0.3372	0.7459	0.7049	-0.052
Mof_C 	C 	0.2709	0.8698	0.7228	0.049
Mof_C 	C 	0.3269	0.0024	0.6991	0.007
Mof_C 	C 	0.4474	0.0068	0.659	-0.184
Mof_C 	C 	0.5069	0.8779	0.6437	0.146
Mof_C 	C 	0.5161	0.1478	0.632	0.389
Mof_C 	C 	0.3024	0.2227	0.5073	0.294
Mof_C 	C 	0.1998	0.0956	0.5367	-0.045
Mof_C 	C 	0.0517	0.1065	0.565	-0.069
Mof_C 	C 	0.9691	0.981	0.5886	0.142
Mof_C 	C 	0.0399	0.8503	0.5848	-0.181
Mof_C 	C 	0.1919	0.8498	0.557	0.121
Mof_C 	C 	0.9575	0.7119	0.6106	0.421
Mof_C 	C 	0.2204	0.4035	0.228	0.401
Mof_C 	C 	0.1628	0.2541	0.2049	-0.031
Mof_C 	C 	0.2291	0.1302	0.2228	-0.053
Mof_C 	C 	0.1731	0.9976	0.1991	0.11
Mof_C 	C 	0.0526	0.9932	0.159	-0.125
Mof_C 	C 	0.9931	0.1221	0.1437	0.08
Mof_C 	C 	0.9839	0.8522	0.132	0.398
Mof_C 	C 	0.1976	0.7773	0.0073	0.256
Mof_C 	C 	0.3002	0.9044	0.0367	0.002
Mof_C 	C 	0.4483	0.8935	0.065	0.035
Mof_C 	C 	0.5309	0.019	0.0886	-0.009
Mof_C 	C 	0.4601	0.1497	0.0848	-0.121
Mof_C 	C 	0.3081	0.1502	0.057	0.08
Mof_C 	C 	0.5425	0.2881	0.1106	0.37
Mof_N 	N 	0.5452	0.2506	0.3335	-0.182
Mof_N 	N 	0.7301	0.0302	0.4666	-0.224
Mof_N 	N 	0.9548	0.7494	0.8335	-0.166
Mof_N 	N 	0.7699	0.9698	0.9666	-0.169
Mof_N 	N 	0.4548	0.7494	0.6665	-0.189
Mof_N 	N 	0.2699	0.9698	0.5334	-0.18
Mof_N 	N 	0.0452	0.2506	0.1665	-0.195
Mof_N 	N 	0.2301	0.0302	0.0334	-0.235
Mof_O 	O 	0.6652	0.5098	0.29354	-0.407
Mof_O 	O 	0.8221	0.4097	0.23434	-0.436
Mof_O 	O 	0.5076	0.7368	0.3434	-0.435
Mof_O 	O 	0.4112	0.8584	0.41117	-0.331
Mof_O 	O 	0.5633	0.8086	0.5166	-0.371
Mof_O 	O 	0.7522	0.6577	0.49162	-0.262
Mof_O 	O 	0.2006	0.2956	0.3767	-0.423
Mof_O 	O 	0.9482	0.3858	0.3829	-0.285
Mof_O 	O 	0.8348	0.4902	0.79354	-0.402
Mof_O 	O 	0.6779	0.5903	0.73434	-0.44
Mof_O 	O 	0.9924	0.2632	0.8434	-0.399
Mof_O 	O 	0.0888	0.1416	0.91117	-0.346
Mof_O 	O 	0.9367	0.1914	0.0166	-0.404
Mof_O 	O 	0.7478	0.3423	0.99162	-0.256
Mof_O 	O 	0.2994	0.7044	0.8767	-0.426
Mof_O 	O 	0.5518	0.6142	0.8829	-0.296
Mof_O 	O 	0.3348	0.4902	0.70646	-0.414
Mof_O 	O 	0.1779	0.5903	0.76566	-0.443
Mof_O 	O 	0.4924	0.2632	0.6566	-0.443
Mof_O 	O 	0.5888	0.1416	0.58883	-0.363
Mof_O 	O 	0.4367	0.1914	0.4834	-0.387
Mof_O 	O 	0.2478	0.3423	0.50838	-0.264
Mof_O 	O 	0.7994	0.7044	0.6233	-0.439
Mof_O 	O 	0.0518	0.6142	0.6171	-0.321
Mof_O 	O 	0.1652	0.5098	0.20646	-0.411
Mof_O 	O 	0.3221	0.4097	0.26566	-0.437
Mof_O 	O 	0.0076	0.7368	0.1566	-0.451
Mof_O 	O 	0.9112	0.8584	0.08883	-0.337
Mof_O 	O 	0.0633	0.8086	0.9834	-0.343
Mof_O 	O 	0.2522	0.6577	0.00838	-0.268
Mof_O 	O 	0.7006	0.2956	0.1233	-0.432
Mof_O 	O 	0.4482	0.3858	0.1171	-0.301
_end
