data_functionalizedCrystal
_audit_creation_method	'EQeq! by Chris Wilmer'
_symmetry_space_group_name_H-M	'P1'
_symmetry_Int_Tables_number	1
_symmetry_cell_setting	triclinic
loop_
_symmetry_equiv_pos_as_xyz
  x,y,z
_cell_length_a	8.861
_cell_length_b	9.352
_cell_length_c	10.124
_cell_angle_alpha	64.106
_cell_angle_beta	75.004
_cell_angle_gamma	75.389
loop_
_atom_site_label
_atom_site_type_symbol
_atom_site_fract_x
_atom_site_fract_y
_atom_site_fract_z
_atom_site_charge
Mof_Gd	Gd	0.33139	0.36576	0.84394	1.692
Mof_O 	O 	0.0841	0.2982	0.0253	-0.33
Mof_O 	O 	0.3279	0.0806	0.9171	-0.35
Mof_O 	O 	0.5271	0.3085	0.6438	-0.348
Mof_O 	O 	0.5254	0.529	0.8113	-0.334
Mof_O 	O 	0.4347	0.8201	0.0392	-0.321
Mof_O 	O 	0.8591	0.3956	0.1446	-0.342
Mof_O 	O 	0.6612	0.6087	0.923	-0.329
Mof_O 	O 	0.6592	0.4032	0.4071	-0.329
Mof_C 	C 	0.9826	0.4112	0.0494	0.245
Mof_C 	C 	0.4321	0.9704	0.9876	0.249
Mof_C 	C 	0.5535	0.4168	0.5148	0.246
Mof_C 	C 	0.5535	0.5404	0.9244	0.251
Mof_Gd	Gd	0.66861	0.63424	0.15606	1.692
Mof_O 	O 	0.9159	0.7018	0.9747	-0.33
Mof_O 	O 	0.6721	0.9194	0.0829	-0.35
Mof_O 	O 	0.4729	0.6915	0.3562	-0.348
Mof_O 	O 	0.4746	0.471	0.1887	-0.334
Mof_O 	O 	0.5653	0.1799	0.9608	-0.321
Mof_O 	O 	0.1409	0.6044	0.8554	-0.342
Mof_O 	O 	0.3388	0.3913	0.077	-0.329
Mof_O 	O 	0.3408	0.5968	0.5929	-0.329
Mof_C 	C 	0.0174	0.5888	0.9506	0.245
Mof_C 	C 	0.5679	0.0296	0.0124	0.249
Mof_C 	C 	0.4465	0.5832	0.4852	0.246
Mof_C 	C 	0.4465	0.4596	0.0756	0.251
_end
