data_functionalizedCrystal
_audit_creation_method	'EQeq! by Chris Wilmer'
_symmetry_space_group_name_H-M	'P1'
_symmetry_Int_Tables_number	1
_symmetry_cell_setting	triclinic
loop_
_symmetry_equiv_pos_as_xyz
  x,y,z
_cell_length_a	9.687
_cell_length_b	13.3514
_cell_length_c	13.4083
_cell_angle_alpha	90
_cell_angle_beta	93.07
_cell_angle_gamma	90
loop_
_atom_site_label
_atom_site_type_symbol
_atom_site_fract_x
_atom_site_fract_y
_atom_site_fract_z
_atom_site_charge
Mof_Zn	Zn	0.14037	0.5484	0.25616	1.215
Mof_Zn	Zn	0.84712	0.54669	0.24391	1.212
Mof_O 	O 	0.895	0.8996	0.7701	-0.463
Mof_O 	O 	0.1229	0.9013	0.8053	-0.469
Mof_O 	O 	0.0969	0.5736	0.1091	-0.433
Mof_O 	O 	0.8692	0.5956	0.1043	-0.419
Mof_O 	O 	0.1045	0.6938	0.2824	-0.504
Mof_O 	O 	0.8774	0.689	0.293	-0.47
Mof_O 	O 	0.8842	0.021	0.5976	-0.525
Mof_O 	O 	0.1083	0.9972	0.6151	-0.47
Mof_N 	N 	0.636	0.5476	0.2444	-0.231
Mof_N 	N 	0.3501	0.5507	0.2542	-0.25
Mof_N 	N 	0.3565	0.732	0.2319	-0.295
Mof_H 	H 	0.277	0.7374	0.2604	0.145
Mof_H 	H 	0.3982	0.786	0.2108	0.13
Mof_C 	C 	0.984	0.5941	0.0645	0.211
Mof_C 	C 	0.9847	0.6225	0.9549	0.337
Mof_C 	C 	0.9955	0.9969	0.5648	0.425
Mof_C 	C 	0.9955	0.9685	0.4542	0.001
Mof_C 	C 	0.9905	0.8423	0.3282	-0.093
Mof_C 	C 	0.006	0.797	0.5083	-0.102
Mof_C 	C 	0.9927	0.7326	0.2988	0.393
Mof_C 	C 	0.0456	0.7334	0.9406	0.134
Mof_C 	C 	0.0039	0.7482	0.8284	-0.148
Mof_C 	C 	0.0074	0.8599	0.7982	0.402
Mof_C 	C 	0.8901	0.6942	0.8055	0.148
Mof_H 	H 	0.8926	0.6665	0.7371	-0.041
Mof_H 	H 	0.8061	0.7359	0.8095	-0.008
Mof_C 	C 	0.8912	0.6023	0.8898	-0.717
Mof_H 	H 	0.8006	0.5982	0.9203	0.568
Mof_H 	H 	0.91	0.5372	0.8578	0.236
Mof_C 	C 	0.1862	0.761	0.9918	-0.903
Mof_H 	H 	0.2008	0.8335	0.9867	0.244
Mof_H 	H 	0.26	0.7256	0.959	0.294
Mof_H 	H 	0.1876	0.7416	0.0623	0.29
Mof_C 	C 	0.9423	0.8052	0.9961	-0.875
Mof_H 	H 	0.967	0.8753	0.9844	-0.384
Mof_H 	H 	0.9492	0.7913	0.068	0.509
Mof_H 	H 	0.8473	0.7931	0.97	-0.34
Mof_C 	C 	0.133	0.6972	0.7761	0.122
Mof_H 	H 	0.1134	0.6948	0.7037	0.01
Mof_H 	H 	0.1467	0.6291	0.8019	0.112
Mof_H 	H 	0.2164	0.7369	0.7911	-0.03
Mof_C 	C 	0.124	0.8923	0.3305	-0.157
Mof_H 	H 	0.1422	0.916	0.2625	0.041
Mof_H 	H 	0.1973	0.8438	0.3513	0.053
Mof_C 	C 	0.13	0.9831	0.4037	-0.356
Mof_H 	H 	0.2108	0.979	0.452	0.124
Mof_H 	H 	0.1318	0.0477	0.3676	0.064
Mof_C 	C 	0.9444	0.86	0.4353	-0.184
Mof_C 	C 	0.793	0.8343	0.4548	-0.193
Mof_H 	H 	0.7804	0.8354	0.5268	0.093
Mof_H 	H 	0.7707	0.7675	0.4283	0.094
Mof_H 	H 	0.7316	0.8838	0.4216	0.077
Mof_C 	C 	0.878	0.8955	0.2539	0.068
Mof_H 	H 	0.7851	0.8761	0.2718	-0.01
Mof_H 	H 	0.8924	0.8747	0.1852	0.008
Mof_H 	H 	0.8882	0.9684	0.2594	0.077
Mof_C 	C 	0.5592	0.4624	0.2483	-0.009
Mof_C 	C 	0.4257	0.4624	0.2518	0.016
Mof_C 	C 	0.4086	0.6342	0.2506	0.001
Mof_C 	C 	0.5695	0.6332	0.2499	-0.028
Mof_C 	C 	0.5672	0.4641	0.2787	0.078
Mof_C 	C 	0.4243	0.4656	0.2836	0.069
Mof_C 	C 	0.4189	0.6342	0.2199	0.089
Mof_C 	C 	0.5618	0.6327	0.215	0.029
Mof_C 	C 	0.8777	0.9788	0.393	0.013
Mof_H 	H 	0.8757	0.0465	0.3628	-0.009
Mof_H 	H 	0.7954	0.9718	0.4331	0.041
Mof_C 	C 	0.872	0.9005	0.3107	-0.075
Mof_H 	H 	0.7881	0.859	0.3136	0.064
Mof_H 	H 	0.8727	0.9328	0.2442	-0.067
Mof_C 	C 	0.0458	0.8523	0.4424	0.427
Mof_C 	C 	0.1907	0.8233	0.466	-0.742
Mof_H 	H 	0.2007	0.7508	0.4578	0.246
Mof_H 	H 	0.217	0.8418	0.5352	0.247
Mof_H 	H 	0.2509	0.8581	0.4208	0.225
Mof_C 	C 	0.101	0.028	0.4004	-0.17
Mof_H 	H 	0.0555	0.0821	0.3627	0.037
Mof_H 	H 	0.1479	0.9834	0.3543	0.262
Mof_H 	H 	0.1699	0.0556	0.4491	0.063
Mof_C 	C 	0.9364	0.7383	0.9364	-0.103
Mof_C 	C 	0.0967	0.6067	0.9069	-0.325
Mof_H 	H 	0.0904	0.5401	0.8745	0.107
Mof_H 	H 	0.1774	0.6059	0.9554	0.124
Mof_C 	C 	0.1196	0.6846	0.8289	-0.089
Mof_H 	H 	0.2054	0.7227	0.8456	0.04
Mof_H 	H 	0.1271	0.653	0.7626	-0.109
Mof_C 	C 	0.7938	0.769	0.95	1.391
Mof_H 	H 	0.786	0.8418	0.9423	-0.208
Mof_H 	H 	0.7676	0.7498	0.0169	-0.33
Mof_H 	H 	0.7322	0.736	0.8998	-0.426
Mof_C 	C 	0.025	0.8077	0.0047	0.82
Mof_H 	H 	0.0147	0.7888	0.0746	-0.483
Mof_H 	H 	0.9946	0.8771	0.9944	0.442
Mof_H 	H 	0.1222	0.8016	0.9889	0.02
Mof_C 	C 	0.848	0.557	0.8966	-0.138
Mof_H 	H 	0.8702	0.4855	0.8961	-0.005
Mof_H 	H 	0.8331	0.581	0.8278	0.144
Mof_H 	H 	0.7644	0.568	0.9329	-0.32
Mof_N 	N 	0.6197	0.3701	0.2509	-0.283
Mof_H 	H 	0.692	0.3669	0.214	0.144
Mof_H 	H 	0.5802	0.3146	0.2705	0.119
Mof_N 	N 	0.3667	0.3728	0.2714	-0.293
Mof_H 	H 	0.2821	0.3666	0.2448	0.161
Mof_H 	H 	0.4142	0.3192	0.2901	0.126
Mof_Zn	Zn	0.85963	0.0484	0.74384	1.206
Mof_Zn	Zn	0.15288	0.04669	0.75609	1.199
Mof_O 	O 	0.105	0.3996	0.2299	-0.485
Mof_O 	O 	0.8771	0.4013	0.1947	-0.49
Mof_O 	O 	0.9031	0.0736	0.8909	-0.438
Mof_O 	O 	0.1308	0.0956	0.8957	-0.423
Mof_O 	O 	0.8955	0.1938	0.7176	-0.507
Mof_O 	O 	0.1226	0.189	0.707	-0.48
Mof_O 	O 	0.1158	0.521	0.4024	-0.467
Mof_O 	O 	0.8917	0.4972	0.3849	-0.474
Mof_N 	N 	0.364	0.0476	0.7556	-0.258
Mof_N 	N 	0.6499	0.0507	0.7458	-0.274
Mof_N 	N 	0.6435	0.232	0.7681	-0.294
Mof_H 	H 	0.723	0.2374	0.7396	0.145
Mof_H 	H 	0.6018	0.286	0.7892	0.126
Mof_C 	C 	0.016	0.0941	0.9355	0.179
Mof_C 	C 	0.0153	0.1225	0.0451	0.389
Mof_C 	C 	0.0045	0.4969	0.4352	0.347
Mof_C 	C 	0.0045	0.4685	0.5458	0.052
Mof_C 	C 	0.0095	0.3423	0.6718	-0.134
Mof_C 	C 	0.994	0.297	0.4917	-0.094
Mof_C 	C 	0.0073	0.2326	0.7012	0.405
Mof_C 	C 	0.9544	0.2334	0.0594	0.144
Mof_C 	C 	0.9961	0.2482	0.1716	-0.17
Mof_C 	C 	0.9926	0.3599	0.2018	0.416
Mof_C 	C 	0.1099	0.1942	0.1945	0.198
Mof_H 	H 	0.1074	0.1665	0.2629	-0.057
Mof_H 	H 	0.1939	0.2359	0.1905	-0.024
Mof_C 	C 	0.1088	0.1023	0.1102	-0.834
Mof_H 	H 	0.1994	0.0982	0.0797	0.643
Mof_H 	H 	0.09	0.0372	0.1422	0.232
Mof_C 	C 	0.8138	0.261	0.0082	-0.932
Mof_H 	H 	0.7992	0.3335	0.0133	0.24
Mof_H 	H 	0.74	0.2256	0.041	0.3
Mof_H 	H 	0.8124	0.2416	0.9377	0.297
Mof_C 	C 	0.0577	0.3052	0.0039	-0.863
Mof_H 	H 	0.033	0.3753	0.0156	-0.386
Mof_H 	H 	0.0508	0.2913	0.932	0.499
Mof_H 	H 	0.1527	0.2931	0.03	-0.331
Mof_C 	C 	0.867	0.1972	0.2239	0.136
Mof_H 	H 	0.8866	0.1948	0.2963	0.01
Mof_H 	H 	0.8533	0.1291	0.1981	0.107
Mof_H 	H 	0.7836	0.2369	0.2089	-0.034
Mof_C 	C 	0.876	0.3923	0.6695	-0.108
Mof_H 	H 	0.8578	0.416	0.7375	0.021
Mof_H 	H 	0.8027	0.3438	0.6487	0.04
Mof_C 	C 	0.87	0.4831	0.5963	-0.316
Mof_H 	H 	0.7892	0.479	0.548	0.096
Mof_H 	H 	0.8682	0.5477	0.6324	0.135
Mof_C 	C 	0.0556	0.36	0.5647	-0.129
Mof_C 	C 	0.207	0.3343	0.5452	-0.228
Mof_H 	H 	0.2196	0.3354	0.4732	0.097
Mof_H 	H 	0.2293	0.2675	0.5717	0.101
Mof_H 	H 	0.2684	0.3838	0.5784	0.081
Mof_C 	C 	0.122	0.3955	0.7461	0.084
Mof_H 	H 	0.2149	0.3761	0.7282	-0.022
Mof_H 	H 	0.1076	0.3747	0.8148	0.005
Mof_H 	H 	0.1118	0.4684	0.7406	0.078
Mof_C 	C 	0.4408	0.9624	0.7517	0.006
Mof_C 	C 	0.5743	0.9624	0.7482	0.035
Mof_C 	C 	0.5914	0.1342	0.7494	-0.008
Mof_C 	C 	0.4305	0.1332	0.7501	-0.035
Mof_C 	C 	0.4328	0.9641	0.7213	0.095
Mof_C 	C 	0.5757	0.9656	0.7164	0.082
Mof_C 	C 	0.5811	0.1342	0.7801	0.093
Mof_C 	C 	0.4382	0.1327	0.785	0.028
Mof_C 	C 	0.1223	0.4788	0.607	-0.134
Mof_H 	H 	0.1243	0.5465	0.6372	0.058
Mof_H 	H 	0.2046	0.4718	0.5669	0.07
Mof_C 	C 	0.128	0.4005	0.6893	-0.005
Mof_H 	H 	0.2119	0.359	0.6864	0.048
Mof_H 	H 	0.1273	0.4328	0.7558	-0.108
Mof_C 	C 	0.9542	0.3523	0.5576	0.361
Mof_C 	C 	0.8093	0.3233	0.534	-0.677
Mof_H 	H 	0.7993	0.2508	0.5422	0.226
Mof_H 	H 	0.783	0.3418	0.4648	0.227
Mof_H 	H 	0.7491	0.3581	0.5792	0.206
Mof_C 	C 	0.899	0.528	0.5996	-0.252
Mof_H 	H 	0.9445	0.5821	0.6373	0.044
Mof_H 	H 	0.8521	0.4834	0.6457	0.211
Mof_H 	H 	0.8301	0.5556	0.5509	0.1
Mof_C 	C 	0.0636	0.2383	0.0636	-0.115
Mof_C 	C 	0.9033	0.1067	0.0931	-0.346
Mof_H 	H 	0.9096	0.0401	0.1255	0.102
Mof_H 	H 	0.8226	0.1059	0.0446	0.125
Mof_C 	C 	0.8804	0.1846	0.1711	-0.074
Mof_H 	H 	0.7946	0.2227	0.1544	0.034
Mof_H 	H 	0.8729	0.153	0.2374	-0.119
Mof_C 	C 	0.2062	0.269	0.05	1.37
Mof_H 	H 	0.214	0.3418	0.0577	-0.212
Mof_H 	H 	0.2324	0.2498	0.9831	-0.327
Mof_H 	H 	0.2678	0.236	0.1002	-0.421
Mof_C 	C 	0.975	0.3077	0.9953	0.805
Mof_H 	H 	0.9853	0.2888	0.9254	-0.473
Mof_H 	H 	0.0054	0.3771	0.0056	0.433
Mof_H 	H 	0.8778	0.3016	0.0111	0.035
Mof_C 	C 	0.152	0.057	0.1034	-0.112
Mof_H 	H 	0.1298	0.9855	0.1039	0.021
Mof_H 	H 	0.1669	0.081	0.1722	0.153
Mof_H 	H 	0.2356	0.068	0.0671	-0.391
Mof_N 	N 	0.3803	0.8701	0.7491	-0.287
Mof_H 	H 	0.308	0.8669	0.786	0.15
Mof_H 	H 	0.4198	0.8146	0.7295	0.122
Mof_N 	N 	0.6333	0.8728	0.7286	-0.297
Mof_H 	H 	0.7179	0.8666	0.7552	0.167
Mof_H 	H 	0.5858	0.8192	0.7099	0.13
_end
