data_functionalizedCrystal
_audit_creation_method	'EQeq! by Chris Wilmer'
_symmetry_space_group_name_H-M	'P1'
_symmetry_Int_Tables_number	1
_symmetry_cell_setting	triclinic
loop_
_symmetry_equiv_pos_as_xyz
  x,y,z
_cell_length_a	15.653
_cell_length_b	13.533
_cell_length_c	13.615
_cell_angle_alpha	90
_cell_angle_beta	103.918
_cell_angle_gamma	90
loop_
_atom_site_label
_atom_site_type_symbol
_atom_site_fract_x
_atom_site_fract_y
_atom_site_fract_z
_atom_site_charge
Mof_Cu	Cu	0.57263	0.05758	0.52446	0.92
Mof_O 	O 	0.5111	0.1452	0.4164	-0.392
Mof_O 	O 	0.3909	0.0488	0.3767	-0.394
Mof_O 	O 	0.3981	0.4697	0.0779	-0.402
Mof_O 	O 	0.5173	0.3726	0.1185	-0.389
Mof_N 	N 	0.7054	0.3856	0.063	-0.188
Mof_N 	N 	0.1611	0.2928	0.1878	-0.144
Mof_C 	C 	0.3879	0.1999	0.2932	-0.054
Mof_C 	C 	0.4359	0.2632	0.2459	0.005
Mof_H 	H 	0.4983	0.2581	0.2603	0.061
Mof_C 	C 	0.3926	0.333	0.1784	-0.057
Mof_C 	C 	0.3018	0.3411	0.1592	-0.066
Mof_H 	H 	0.2716	0.3888	0.1122	0.072
Mof_C 	C 	0.2556	0.2801	0.2083	0.088
Mof_C 	C 	0.2963	0.2075	0.2746	-0.067
Mof_H 	H 	0.2633	0.1645	0.3065	0.07
Mof_C 	C 	0.1294	0.3852	0.184	0.07
Mof_H 	H 	0.1687	0.4397	0.1967	0.013
Mof_C 	C 	0.0417	0.4005	0.162	-0.118
Mof_H 	H 	0.0206	0.4664	0.1609	0.068
Mof_C 	C 	0.9823	0.3251	0.1413	0.044
Mof_C 	C 	0.0176	0.2299	0.1469	-0.11
Mof_H 	H 	0.9792	0.1745	0.1358	0.065
Mof_C 	C 	0.106	0.2153	0.168	0.067
Mof_H 	H 	0.1289	0.1502	0.1687	0.014
Mof_C 	C 	0.8862	0.3436	0.1139	0.057
Mof_C 	C 	0.8558	0.4397	0.0906	-0.122
Mof_H 	H 	0.896	0.4924	0.091	0.07
Mof_C 	C 	0.7673	0.4565	0.0672	0.07
Mof_H 	H 	0.7477	0.5225	0.0529	0.016
Mof_C 	C 	0.7364	0.2949	0.0828	0.084
Mof_H 	H 	0.6952	0.2428	0.0794	0.011
Mof_C 	C 	0.8249	0.2711	0.1081	-0.127
Mof_H 	H 	0.8428	0.2043	0.1215	0.074
Mof_C 	C 	0.4339	0.1262	0.3687	0.342
Mof_C 	C 	0.4401	0.397	0.1207	0.349
Mof_Cu	Cu	0.42737	0.55758	0.97554	0.921
Mof_O 	O 	0.4889	0.6452	0.0836	-0.39
Mof_O 	O 	0.6091	0.5488	0.1233	-0.395
Mof_O 	O 	0.6019	0.9697	0.4221	-0.402
Mof_O 	O 	0.4827	0.8726	0.3815	-0.389
Mof_N 	N 	0.2946	0.8856	0.437	-0.188
Mof_N 	N 	0.8389	0.7928	0.3122	-0.145
Mof_C 	C 	0.6121	0.6999	0.2068	-0.054
Mof_C 	C 	0.5641	0.7632	0.2541	0.005
Mof_H 	H 	0.5017	0.7581	0.2397	0.061
Mof_C 	C 	0.6074	0.833	0.3216	-0.057
Mof_C 	C 	0.6982	0.8411	0.3408	-0.066
Mof_H 	H 	0.7284	0.8888	0.3878	0.072
Mof_C 	C 	0.7444	0.7801	0.2917	0.088
Mof_C 	C 	0.7037	0.7075	0.2254	-0.067
Mof_H 	H 	0.7367	0.6645	0.1935	0.07
Mof_C 	C 	0.8706	0.8852	0.316	0.073
Mof_H 	H 	0.8313	0.9397	0.3033	0.012
Mof_C 	C 	0.9583	0.9005	0.338	-0.122
Mof_H 	H 	0.9794	0.9664	0.3391	0.069
Mof_C 	C 	0.0177	0.8251	0.3587	0.049
Mof_C 	C 	0.9824	0.7299	0.3531	-0.118
Mof_H 	H 	0.0208	0.6745	0.3642	0.068
Mof_C 	C 	0.894	0.7153	0.332	0.071
Mof_H 	H 	0.8711	0.6502	0.3313	0.012
Mof_C 	C 	0.1138	0.8436	0.3861	0.054
Mof_C 	C 	0.1442	0.9397	0.4094	-0.119
Mof_H 	H 	0.104	0.9924	0.409	0.068
Mof_C 	C 	0.2327	0.9565	0.4328	0.067
Mof_H 	H 	0.2523	0.0225	0.4471	0.018
Mof_C 	C 	0.2636	0.7949	0.4172	0.083
Mof_H 	H 	0.3048	0.7428	0.4206	0.012
Mof_C 	C 	0.1751	0.7711	0.3919	-0.125
Mof_H 	H 	0.1572	0.7043	0.3785	0.073
Mof_C 	C 	0.5661	0.6262	0.1313	0.342
Mof_C 	C 	0.5599	0.897	0.3793	0.348
Mof_Cu	Cu	0.42737	0.94242	0.47554	0.921
Mof_O 	O 	0.4889	0.8548	0.5836	-0.391
Mof_O 	O 	0.6091	0.9512	0.6233	-0.394
Mof_O 	O 	0.6019	0.5303	0.9221	-0.402
Mof_O 	O 	0.4827	0.6274	0.8815	-0.389
Mof_N 	N 	0.2946	0.6144	0.937	-0.188
Mof_N 	N 	0.8389	0.7072	0.8122	-0.144
Mof_C 	C 	0.6121	0.8001	0.7068	-0.054
Mof_C 	C 	0.5641	0.7368	0.7541	0.005
Mof_H 	H 	0.5017	0.7419	0.7397	0.061
Mof_C 	C 	0.6074	0.667	0.8216	-0.057
Mof_C 	C 	0.6982	0.6589	0.8408	-0.066
Mof_H 	H 	0.7284	0.6112	0.8878	0.072
Mof_C 	C 	0.7444	0.7199	0.7917	0.088
Mof_C 	C 	0.7037	0.7925	0.7254	-0.067
Mof_H 	H 	0.7367	0.8355	0.6935	0.07
Mof_C 	C 	0.8706	0.6148	0.816	0.07
Mof_H 	H 	0.8313	0.5603	0.8033	0.013
Mof_C 	C 	0.9583	0.5995	0.838	-0.118
Mof_H 	H 	0.9794	0.5336	0.8391	0.068
Mof_C 	C 	0.0177	0.6749	0.8587	0.044
Mof_C 	C 	0.9824	0.7701	0.8531	-0.11
Mof_H 	H 	0.0208	0.8255	0.8642	0.065
Mof_C 	C 	0.894	0.7847	0.832	0.067
Mof_H 	H 	0.8711	0.8498	0.8313	0.014
Mof_C 	C 	0.1138	0.6564	0.8861	0.057
Mof_C 	C 	0.1442	0.5603	0.9094	-0.122
Mof_H 	H 	0.104	0.5076	0.909	0.07
Mof_C 	C 	0.2327	0.5435	0.9328	0.07
Mof_H 	H 	0.2523	0.4775	0.9471	0.016
Mof_C 	C 	0.2636	0.7051	0.9172	0.084
Mof_H 	H 	0.3048	0.7572	0.9206	0.011
Mof_C 	C 	0.1751	0.7289	0.8919	-0.127
Mof_H 	H 	0.1572	0.7957	0.8785	0.074
Mof_C 	C 	0.5661	0.8738	0.6313	0.342
Mof_C 	C 	0.5599	0.603	0.8793	0.349
Mof_Cu	Cu	0.57263	0.44242	0.02446	0.921
Mof_O 	O 	0.5111	0.3548	0.9164	-0.39
Mof_O 	O 	0.3909	0.4512	0.8767	-0.395
Mof_O 	O 	0.3981	0.0303	0.5779	-0.402
Mof_O 	O 	0.5173	0.1274	0.6185	-0.389
Mof_N 	N 	0.7054	0.1144	0.563	-0.188
Mof_N 	N 	0.1611	0.2072	0.6878	-0.145
Mof_C 	C 	0.3879	0.3001	0.7932	-0.054
Mof_C 	C 	0.4359	0.2368	0.7459	0.005
Mof_H 	H 	0.4983	0.2419	0.7603	0.061
Mof_C 	C 	0.3926	0.167	0.6784	-0.057
Mof_C 	C 	0.3018	0.1589	0.6592	-0.066
Mof_H 	H 	0.2716	0.1112	0.6122	0.072
Mof_C 	C 	0.2556	0.2199	0.7083	0.088
Mof_C 	C 	0.2963	0.2925	0.7746	-0.067
Mof_H 	H 	0.2633	0.3355	0.8065	0.07
Mof_C 	C 	0.1294	0.1148	0.684	0.073
Mof_H 	H 	0.1687	0.0603	0.6967	0.012
Mof_C 	C 	0.0417	0.0995	0.662	-0.122
Mof_H 	H 	0.0206	0.0336	0.6609	0.069
Mof_C 	C 	0.9823	0.1749	0.6413	0.049
Mof_C 	C 	0.0176	0.2701	0.6469	-0.118
Mof_H 	H 	0.9792	0.3255	0.6358	0.068
Mof_C 	C 	0.106	0.2847	0.668	0.071
Mof_H 	H 	0.1289	0.3498	0.6687	0.012
Mof_C 	C 	0.8862	0.1564	0.6139	0.054
Mof_C 	C 	0.8558	0.0603	0.5906	-0.119
Mof_H 	H 	0.896	0.0076	0.591	0.068
Mof_C 	C 	0.7673	0.0435	0.5672	0.067
Mof_H 	H 	0.7477	0.9775	0.5529	0.018
Mof_C 	C 	0.7364	0.2051	0.5828	0.083
Mof_H 	H 	0.6952	0.2572	0.5794	0.012
Mof_C 	C 	0.8249	0.2289	0.6081	-0.125
Mof_H 	H 	0.8428	0.2957	0.6215	0.073
Mof_C 	C 	0.4339	0.3738	0.8687	0.342
Mof_C 	C 	0.4401	0.103	0.6207	0.348
_end
