data_functionalizedCrystal
_audit_creation_method	'EQeq! by Chris Wilmer'
_symmetry_space_group_name_H-M	'P1'
_symmetry_Int_Tables_number	1
_symmetry_cell_setting	triclinic
loop_
_symmetry_equiv_pos_as_xyz
  x,y,z
_cell_length_a	10.895
_cell_length_b	17.52
_cell_length_c	20.545
_cell_angle_alpha	90
_cell_angle_beta	99.16
_cell_angle_gamma	90
loop_
_atom_site_label
_atom_site_type_symbol
_atom_site_fract_x
_atom_site_fract_y
_atom_site_fract_z
_atom_site_charge
Mof_O 	O 	0.3558	0.94386	0.50388	-0.502
Mof_N 	N 	0.4903	0.9808	0.86938	-0.252
Mof_C 	C 	0.3797	0.0074	0.8406	0.079
Mof_H 	H 	0.36	0.0579	0.8483	-0.01
Mof_C 	C 	0.5143	0.9082	0.8562	0.091
Mof_H 	H 	0.5913	0.8885	0.8745	-0.024
Mof_Co	Co	0.61894	0.96007	0.44289	1.118
Mof_N 	N 	0.7576	0.9107	0.51651	-0.248
Mof_C 	C 	0.3178	0.8884	0.7884	0.101
Mof_C 	C 	0.3946	0.8854	0.4797	0.432
Mof_C 	C 	0.7492	0.8412	0.5429	0.08
Mof_H 	H 	0.6786	0.8123	0.5283	-0.008
Mof_C 	C 	0.9468	0.852	0.6127	0.094
Mof_C 	C 	0.2265	0.8387	0.74703	-0.053
Mof_C 	C 	0.1312	0.869	0.70116	-0.023
Mof_H 	H 	0.1238	0.9217	0.6961	0.024
Mof_C 	C 	0.8386	0.8103	0.5902	-0.154
Mof_H 	H 	0.8274	0.762	0.6072	0.071
Mof_C 	C 	0.0469	0.8213	0.66287	-0.051
Mof_C 	C 	0.9557	0.9237	0.585	-0.16
Mof_H 	H 	0.0255	0.9538	0.5982	0.068
Mof_C 	C 	0.4337	0.8609	0.8176	-0.167
Mof_H 	H 	0.456	0.8107	0.8109	0.082
Mof_C 	C 	0.8612	0.95	0.5379	0.081
Mof_H 	H 	0.8699	0.998	0.5199	-0.023
Mof_N 	N 	0.1528	0.7122	0.7157	-0.129
Mof_C 	C 	0.232	0.7593	0.7522	0.028
Mof_H 	H 	0.2945	0.7379	0.7829	0.012
Mof_C 	C 	0.0631	0.7431	0.6727	0.035
Mof_H 	H 	0.0072	0.7105	0.6475	0.013
Mof_O 	O 	0.4963	0.88056	0.45847	-0.492
Mof_C 	C 	0.2939	0.9643	0.8006	-0.161
Mof_H 	H 	0.2191	0.9862	0.7814	0.079
Mof_C 	C 	0.3146	0.8145	0.4742	-0.175
Mof_H 	H 	0.2987	0.8002	0.4275	0.09
Mof_C 	C 	0.3862	0.7484	0.5115	-0.062
Mof_H 	H 	0.4064	0.7615	0.5579	0.045
Mof_H 	H 	0.4635	0.7405	0.4947	0.05
Mof_C 	C 	0.1898	0.8256	0.4958	-0.046
Mof_H 	H 	0.1442	0.8653	0.4693	0.037
Mof_H 	H 	0.2019	0.8419	0.5415	0.043
Mof_O 	O 	0.8558	0.44386	0.50388	-0.504
Mof_N 	N 	0.9903	0.4808	0.86938	-0.257
Mof_C 	C 	0.8797	0.5074	0.8406	0.092
Mof_H 	H 	0.86	0.5579	0.8483	-0.015
Mof_C 	C 	0.0143	0.4082	0.8562	0.089
Mof_H 	H 	0.0913	0.3885	0.8745	-0.026
Mof_Co	Co	0.11894	0.46007	0.44289	1.117
Mof_N 	N 	0.2576	0.4107	0.51651	-0.249
Mof_C 	C 	0.8178	0.3884	0.7884	0.105
Mof_C 	C 	0.8946	0.3854	0.4797	0.431
Mof_C 	C 	0.2492	0.3412	0.5429	0.079
Mof_H 	H 	0.1786	0.3123	0.5283	-0.009
Mof_C 	C 	0.4468	0.352	0.6127	0.094
Mof_C 	C 	0.7265	0.3387	0.74703	-0.055
Mof_C 	C 	0.6312	0.369	0.70116	-0.021
Mof_H 	H 	0.6238	0.4217	0.6961	0.023
Mof_C 	C 	0.3386	0.3103	0.5902	-0.154
Mof_H 	H 	0.3274	0.262	0.6072	0.071
Mof_C 	C 	0.5469	0.3213	0.66287	-0.052
Mof_C 	C 	0.4557	0.4237	0.585	-0.16
Mof_H 	H 	0.5255	0.4538	0.5982	0.067
Mof_C 	C 	0.9337	0.3609	0.8176	-0.169
Mof_H 	H 	0.956	0.3107	0.8109	0.083
Mof_C 	C 	0.3612	0.45	0.5379	0.081
Mof_H 	H 	0.3699	0.498	0.5199	-0.023
Mof_N 	N 	0.6528	0.2122	0.7157	-0.13
Mof_C 	C 	0.732	0.2593	0.7522	0.03
Mof_H 	H 	0.7945	0.2379	0.7829	0.011
Mof_C 	C 	0.5631	0.2431	0.6727	0.035
Mof_H 	H 	0.5072	0.2105	0.6475	0.013
Mof_O 	O 	0.9963	0.38056	0.45847	-0.492
Mof_C 	C 	0.7939	0.4643	0.8006	-0.172
Mof_H 	H 	0.7191	0.4862	0.7814	0.082
Mof_C 	C 	0.8146	0.3145	0.4742	-0.175
Mof_H 	H 	0.7987	0.3002	0.4275	0.091
Mof_C 	C 	0.8862	0.2484	0.5115	-0.062
Mof_H 	H 	0.9064	0.2615	0.5579	0.045
Mof_H 	H 	0.9635	0.2405	0.4947	0.05
Mof_C 	C 	0.6898	0.3256	0.4958	-0.046
Mof_H 	H 	0.6442	0.3653	0.4693	0.037
Mof_H 	H 	0.7019	0.3419	0.5415	0.043
Mof_O 	O 	0.6442	0.94386	0.99612	-0.497
Mof_N 	N 	0.5097	0.9808	0.63062	-0.256
Mof_C 	C 	0.6203	0.0074	0.6594	0.087
Mof_H 	H 	0.64	0.0579	0.6517	-0.013
Mof_C 	C 	0.4857	0.9082	0.6438	0.091
Mof_H 	H 	0.4087	0.8885	0.6255	-0.026
Mof_Co	Co	0.38106	0.96007	0.05711	1.114
Mof_N 	N 	0.2424	0.9107	0.98349	-0.247
Mof_C 	C 	0.6822	0.8884	0.7116	0.103
Mof_C 	C 	0.6054	0.8854	0.0203	0.425
Mof_C 	C 	0.2508	0.8412	0.9571	0.079
Mof_H 	H 	0.3214	0.8123	0.9717	-0.008
Mof_C 	C 	0.0532	0.852	0.8873	0.094
Mof_C 	C 	0.7735	0.8387	0.75297	-0.054
Mof_C 	C 	0.8688	0.869	0.79884	-0.022
Mof_H 	H 	0.8762	0.9217	0.8039	0.024
Mof_C 	C 	0.1614	0.8103	0.9098	-0.153
Mof_H 	H 	0.1726	0.762	0.8928	0.071
Mof_C 	C 	0.9531	0.8213	0.83713	-0.051
Mof_C 	C 	0.0443	0.9237	0.915	-0.161
Mof_H 	H 	0.9745	0.9538	0.9018	0.069
Mof_C 	C 	0.5663	0.8609	0.6824	-0.17
Mof_H 	H 	0.544	0.8107	0.6891	0.083
Mof_C 	C 	0.1388	0.95	0.9621	0.082
Mof_H 	H 	0.1301	0.998	0.9801	-0.022
Mof_N 	N 	0.8472	0.7122	0.7843	-0.129
Mof_C 	C 	0.768	0.7593	0.7478	0.029
Mof_H 	H 	0.7055	0.7379	0.7171	0.011
Mof_C 	C 	0.9369	0.7431	0.8273	0.035
Mof_H 	H 	0.9928	0.7105	0.8525	0.013
Mof_O 	O 	0.5037	0.88056	0.04153	-0.492
Mof_C 	C 	0.7061	0.9643	0.6994	-0.168
Mof_H 	H 	0.7809	0.9862	0.7186	0.081
Mof_C 	C 	0.6854	0.8145	0.0258	-0.181
Mof_H 	H 	0.7013	0.8002	0.0725	0.092
Mof_C 	C 	0.6138	0.7484	0.9885	-0.048
Mof_H 	H 	0.5936	0.7615	0.9421	0.041
Mof_H 	H 	0.5365	0.7405	0.0053	0.043
Mof_C 	C 	0.8102	0.8256	0.0042	-0.046
Mof_H 	H 	0.8558	0.8653	0.0307	0.035
Mof_H 	H 	0.7981	0.8419	0.9585	0.045
Mof_O 	O 	0.1442	0.44386	0.99612	-0.505
Mof_N 	N 	0.0097	0.4808	0.63062	-0.259
Mof_C 	C 	0.1203	0.5074	0.6594	0.093
Mof_H 	H 	0.14	0.5579	0.6517	-0.015
Mof_C 	C 	0.9857	0.4082	0.6438	0.093
Mof_H 	H 	0.9087	0.3885	0.6255	-0.027
Mof_Co	Co	0.88106	0.46007	0.05711	1.117
Mof_N 	N 	0.7424	0.4107	0.98349	-0.249
Mof_C 	C 	0.1822	0.3884	0.7116	0.106
Mof_C 	C 	0.1054	0.3854	0.0203	0.43
Mof_C 	C 	0.7508	0.3412	0.9571	0.079
Mof_H 	H 	0.8214	0.3123	0.9717	-0.01
Mof_C 	C 	0.5532	0.352	0.8873	0.095
Mof_C 	C 	0.2735	0.3387	0.75297	-0.056
Mof_C 	C 	0.3688	0.369	0.79884	-0.021
Mof_H 	H 	0.3762	0.4217	0.8039	0.023
Mof_C 	C 	0.6614	0.3103	0.9098	-0.154
Mof_H 	H 	0.6726	0.262	0.8928	0.071
Mof_C 	C 	0.4531	0.3213	0.83713	-0.052
Mof_C 	C 	0.5443	0.4237	0.915	-0.16
Mof_H 	H 	0.4745	0.4538	0.9018	0.067
Mof_C 	C 	0.0663	0.3609	0.6824	-0.173
Mof_H 	H 	0.044	0.3107	0.6891	0.084
Mof_C 	C 	0.6388	0.45	0.9621	0.081
Mof_H 	H 	0.6301	0.498	0.9801	-0.023
Mof_N 	N 	0.3472	0.2122	0.7843	-0.13
Mof_C 	C 	0.268	0.2593	0.7478	0.03
Mof_H 	H 	0.2055	0.2379	0.7171	0.011
Mof_C 	C 	0.4369	0.2431	0.8273	0.035
Mof_H 	H 	0.4928	0.2105	0.8525	0.012
Mof_O 	O 	0.0037	0.38056	0.04153	-0.491
Mof_C 	C 	0.2061	0.4643	0.6994	-0.174
Mof_H 	H 	0.2809	0.4862	0.7186	0.082
Mof_C 	C 	0.1854	0.3145	0.0258	-0.166
Mof_H 	H 	0.2013	0.3002	0.0725	0.088
Mof_C 	C 	0.1138	0.2484	0.9885	-0.077
Mof_H 	H 	0.0936	0.2615	0.9421	0.049
Mof_H 	H 	0.0365	0.2405	0.0053	0.057
Mof_C 	C 	0.3102	0.3256	0.0042	-0.051
Mof_H 	H 	0.3558	0.3653	0.0307	0.039
Mof_H 	H 	0.2981	0.3419	0.9585	0.043
Mof_O 	O 	0.6442	0.05614	0.49612	-0.503
Mof_N 	N 	0.5097	0.0192	0.13062	-0.253
Mof_C 	C 	0.6203	0.9926	0.1594	0.078
Mof_H 	H 	0.64	0.9421	0.1517	-0.011
Mof_C 	C 	0.4857	0.0918	0.1438	0.09
Mof_H 	H 	0.4087	0.1115	0.1255	-0.025
Mof_Co	Co	0.38106	0.03993	0.55711	1.117
Mof_N 	N 	0.2424	0.0893	0.48349	-0.249
Mof_C 	C 	0.6822	0.1116	0.2116	0.1
Mof_C 	C 	0.6054	0.1146	0.5203	0.431
Mof_C 	C 	0.2508	0.1588	0.4571	0.079
Mof_H 	H 	0.3214	0.1877	0.4717	-0.009
Mof_C 	C 	0.0532	0.148	0.3873	0.094
Mof_C 	C 	0.7735	0.1613	0.25297	-0.053
Mof_C 	C 	0.8688	0.131	0.29884	-0.023
Mof_H 	H 	0.8762	0.0783	0.3039	0.024
Mof_C 	C 	0.1614	0.1897	0.4098	-0.154
Mof_H 	H 	0.1726	0.238	0.3928	0.071
Mof_C 	C 	0.9531	0.1787	0.33713	-0.051
Mof_C 	C 	0.0443	0.0763	0.415	-0.16
Mof_H 	H 	0.9745	0.0462	0.4018	0.068
Mof_C 	C 	0.5663	0.1391	0.1824	-0.167
Mof_H 	H 	0.544	0.1893	0.1891	0.082
Mof_C 	C 	0.1388	0.05	0.4621	0.081
Mof_H 	H 	0.1301	0.002	0.4801	-0.023
Mof_N 	N 	0.8472	0.2878	0.2843	-0.129
Mof_C 	C 	0.768	0.2407	0.2478	0.028
Mof_H 	H 	0.7055	0.2621	0.2171	0.012
Mof_C 	C 	0.9369	0.2569	0.3273	0.035
Mof_H 	H 	0.9928	0.2895	0.3525	0.013
Mof_O 	O 	0.5037	0.11944	0.54153	-0.492
Mof_C 	C 	0.7061	0.0357	0.1994	-0.161
Mof_H 	H 	0.7809	0.0138	0.2186	0.079
Mof_C 	C 	0.6854	0.1855	0.5258	-0.175
Mof_H 	H 	0.7013	0.1998	0.5725	0.09
Mof_C 	C 	0.6138	0.2516	0.4885	-0.062
Mof_H 	H 	0.5936	0.2385	0.4421	0.045
Mof_H 	H 	0.5365	0.2595	0.5053	0.05
Mof_C 	C 	0.8102	0.1744	0.5042	-0.046
Mof_H 	H 	0.8558	0.1347	0.5307	0.037
Mof_H 	H 	0.7981	0.1581	0.4585	0.043
Mof_O 	O 	0.1442	0.55614	0.49612	-0.504
Mof_N 	N 	0.0097	0.5192	0.13062	-0.257
Mof_C 	C 	0.1203	0.4926	0.1594	0.092
Mof_H 	H 	0.14	0.4421	0.1517	-0.015
Mof_C 	C 	0.9857	0.5918	0.1438	0.089
Mof_H 	H 	0.9087	0.6115	0.1255	-0.026
Mof_Co	Co	0.88106	0.53993	0.55711	1.117
Mof_N 	N 	0.7424	0.5893	0.48349	-0.249
Mof_C 	C 	0.1822	0.6116	0.2116	0.105
Mof_C 	C 	0.1054	0.6146	0.5203	0.431
Mof_C 	C 	0.7508	0.6588	0.4571	0.079
Mof_H 	H 	0.8214	0.6877	0.4717	-0.009
Mof_C 	C 	0.5532	0.648	0.3873	0.094
Mof_C 	C 	0.2735	0.6613	0.25297	-0.055
Mof_C 	C 	0.3688	0.631	0.29884	-0.021
Mof_H 	H 	0.3762	0.5783	0.3039	0.023
Mof_C 	C 	0.6614	0.6897	0.4098	-0.154
Mof_H 	H 	0.6726	0.738	0.3928	0.071
Mof_C 	C 	0.4531	0.6787	0.33713	-0.052
Mof_C 	C 	0.5443	0.5763	0.415	-0.16
Mof_H 	H 	0.4745	0.5462	0.4018	0.067
Mof_C 	C 	0.0663	0.6391	0.1824	-0.169
Mof_H 	H 	0.044	0.6893	0.1891	0.083
Mof_C 	C 	0.6388	0.55	0.4621	0.081
Mof_H 	H 	0.6301	0.502	0.4801	-0.023
Mof_N 	N 	0.3472	0.7878	0.2843	-0.13
Mof_C 	C 	0.268	0.7407	0.2478	0.03
Mof_H 	H 	0.2055	0.7621	0.2171	0.011
Mof_C 	C 	0.4369	0.7569	0.3273	0.035
Mof_H 	H 	0.4928	0.7895	0.3525	0.013
Mof_O 	O 	0.0037	0.61944	0.54153	-0.492
Mof_C 	C 	0.2061	0.5357	0.1994	-0.172
Mof_H 	H 	0.2809	0.5138	0.2186	0.082
Mof_C 	C 	0.1854	0.6855	0.5258	-0.175
Mof_H 	H 	0.2013	0.6998	0.5725	0.091
Mof_C 	C 	0.1138	0.7516	0.4885	-0.062
Mof_H 	H 	0.0936	0.7385	0.4421	0.045
Mof_H 	H 	0.0365	0.7595	0.5053	0.05
Mof_C 	C 	0.3102	0.6744	0.5042	-0.046
Mof_H 	H 	0.3558	0.6347	0.5307	0.037
Mof_H 	H 	0.2981	0.6581	0.4585	0.043
Mof_O 	O 	0.3558	0.05614	0.00388	-0.497
Mof_N 	N 	0.4903	0.0192	0.36938	-0.256
Mof_C 	C 	0.3797	0.9926	0.3406	0.087
Mof_H 	H 	0.36	0.9421	0.3483	-0.013
Mof_C 	C 	0.5143	0.0918	0.3562	0.091
Mof_H 	H 	0.5913	0.1115	0.3745	-0.026
Mof_Co	Co	0.61894	0.03993	0.94289	1.114
Mof_N 	N 	0.7576	0.0893	0.01651	-0.247
Mof_C 	C 	0.3178	0.1116	0.2884	0.103
Mof_C 	C 	0.3946	0.1146	0.9797	0.425
Mof_C 	C 	0.7492	0.1588	0.0429	0.079
Mof_H 	H 	0.6786	0.1877	0.0283	-0.008
Mof_C 	C 	0.9468	0.148	0.1127	0.094
Mof_C 	C 	0.2265	0.1613	0.24703	-0.054
Mof_C 	C 	0.1312	0.131	0.20116	-0.022
Mof_H 	H 	0.1238	0.0783	0.1961	0.024
Mof_C 	C 	0.8386	0.1897	0.0902	-0.153
Mof_H 	H 	0.8274	0.238	0.1072	0.071
Mof_C 	C 	0.0469	0.1787	0.16287	-0.051
Mof_C 	C 	0.9557	0.0763	0.085	-0.161
Mof_H 	H 	0.0255	0.0462	0.0982	0.069
Mof_C 	C 	0.4337	0.1391	0.3176	-0.17
Mof_H 	H 	0.456	0.1893	0.3109	0.083
Mof_C 	C 	0.8612	0.05	0.0379	0.082
Mof_H 	H 	0.8699	0.002	0.0199	-0.022
Mof_N 	N 	0.1528	0.2878	0.2157	-0.129
Mof_C 	C 	0.232	0.2407	0.2522	0.029
Mof_H 	H 	0.2945	0.2621	0.2829	0.011
Mof_C 	C 	0.0631	0.2569	0.1727	0.035
Mof_H 	H 	0.0072	0.2895	0.1475	0.013
Mof_O 	O 	0.4963	0.11944	0.95847	-0.492
Mof_C 	C 	0.2939	0.0357	0.3006	-0.168
Mof_H 	H 	0.2191	0.0138	0.2814	0.081
Mof_C 	C 	0.3146	0.1855	0.9742	-0.181
Mof_H 	H 	0.2987	0.1998	0.9275	0.092
Mof_C 	C 	0.3862	0.2516	0.0115	-0.048
Mof_H 	H 	0.4064	0.2385	0.0579	0.041
Mof_H 	H 	0.4635	0.2595	0.9947	0.043
Mof_C 	C 	0.1898	0.1744	0.9958	-0.046
Mof_H 	H 	0.1442	0.1347	0.9693	0.035
Mof_H 	H 	0.2019	0.1581	0.0415	0.045
Mof_O 	O 	0.8558	0.55614	0.00388	-0.505
Mof_N 	N 	0.9903	0.5192	0.36938	-0.259
Mof_C 	C 	0.8797	0.4926	0.3406	0.093
Mof_H 	H 	0.86	0.4421	0.3483	-0.015
Mof_C 	C 	0.0143	0.5918	0.3562	0.093
Mof_H 	H 	0.0913	0.6115	0.3745	-0.027
Mof_Co	Co	0.11894	0.53993	0.94289	1.117
Mof_N 	N 	0.2576	0.5893	0.01651	-0.249
Mof_C 	C 	0.8178	0.6116	0.2884	0.106
Mof_C 	C 	0.8946	0.6146	0.9797	0.43
Mof_C 	C 	0.2492	0.6588	0.0429	0.079
Mof_H 	H 	0.1786	0.6877	0.0283	-0.01
Mof_C 	C 	0.4468	0.648	0.1127	0.095
Mof_C 	C 	0.7265	0.6613	0.24703	-0.056
Mof_C 	C 	0.6312	0.631	0.20116	-0.021
Mof_H 	H 	0.6238	0.5783	0.1961	0.023
Mof_C 	C 	0.3386	0.6897	0.0902	-0.154
Mof_H 	H 	0.3274	0.738	0.1072	0.071
Mof_C 	C 	0.5469	0.6787	0.16287	-0.052
Mof_C 	C 	0.4557	0.5763	0.085	-0.16
Mof_H 	H 	0.5255	0.5462	0.0982	0.067
Mof_C 	C 	0.9337	0.6391	0.3176	-0.173
Mof_H 	H 	0.956	0.6893	0.3109	0.084
Mof_C 	C 	0.3612	0.55	0.0379	0.081
Mof_H 	H 	0.3699	0.502	0.0199	-0.023
Mof_N 	N 	0.6528	0.7878	0.2157	-0.13
Mof_C 	C 	0.732	0.7407	0.2522	0.03
Mof_H 	H 	0.7945	0.7621	0.2829	0.011
Mof_C 	C 	0.5631	0.7569	0.1727	0.035
Mof_H 	H 	0.5072	0.7895	0.1475	0.012
Mof_O 	O 	0.9963	0.61944	0.95847	-0.491
Mof_C 	C 	0.7939	0.5357	0.3006	-0.174
Mof_H 	H 	0.7191	0.5138	0.2814	0.082
Mof_C 	C 	0.8146	0.6855	0.9742	-0.166
Mof_H 	H 	0.7987	0.6998	0.9275	0.088
Mof_C 	C 	0.8862	0.7516	0.0115	-0.077
Mof_H 	H 	0.9064	0.7385	0.0579	0.049
Mof_H 	H 	0.9635	0.7595	0.9947	0.057
Mof_C 	C 	0.6898	0.6744	0.9958	-0.051
Mof_H 	H 	0.6442	0.6347	0.9693	0.039
Mof_H 	H 	0.7019	0.6581	0.0415	0.043
_end
