data_functionalizedCrystal
_audit_creation_method	'EQeq! by Chris Wilmer'
_symmetry_space_group_name_H-M	'P1'
_symmetry_Int_Tables_number	1
_symmetry_cell_setting	triclinic
loop_
_symmetry_equiv_pos_as_xyz
  x,y,z
_cell_length_a	12.7517
_cell_length_b	26.209
_cell_length_c	26.209
_cell_angle_alpha	120
_cell_angle_beta	90
_cell_angle_gamma	90
loop_
_atom_site_label
_atom_site_type_symbol
_atom_site_fract_x
_atom_site_fract_y
_atom_site_fract_z
_atom_site_charge
Mof_Cd	Cd	-1.99665e-32	0.30114	0.30114	0.425
Mof_Cd	Cd	-1.3311e-32	0	0.69886	0.419
Mof_Cd	Cd	-0	0.69886	-0	0.419
Mof_H 	H 	0.0656	0.2342	0.1867	0.312
Mof_H 	H 	0.174	0.2592	0.2186	0.289
Mof_H 	H 	0.8286	0.2752	0.3776	-0.004
Mof_H 	H 	0.702	0.3152	0.4458	0.09
Mof_H 	H 	0.7958	0.4753	0.4802	0.099
Mof_H 	H 	0.9143	0.4286	0.4019	0.024
Mof_H 	H 	0.7689	0.4761	0.5825	0.098
Mof_H 	H 	0.3207	0.4455	0.5821	0.037
Mof_H 	H 	0.2595	0.3801	0.4893	0.128
Mof_H 	H 	0.5554	0.3612	0.4214	0.136
Mof_H 	H 	0.8066	0.5548	0.6725	-0.009
Mof_H 	H 	0.7957	0.4956	0.6762	-0.029
Mof_H 	H 	0.8587	0.5715	0.7686	0.221
Mof_H 	H 	0.7423	0.555	0.7782	0.211
Mof_H 	H 	0.7624	0.613	0.7739	0.235
Mof_H 	H 	0.6435	0.4267	0.7852	0.335
Mof_H 	H 	0.6765	0.4368	0.7321	0.332
Mof_H 	H 	0.601	0.3832	0.7202	0.321
Mof_H 	H 	0.5508	0.5015	0.7889	-0.137
Mof_H 	H 	0.4752	0.4476	0.7763	-0.129
Mof_H 	H 	0.3551	0.5188	0.7862	0.103
Mof_H 	H 	0.1976	0.6593	0.7523	0.14
Mof_H 	H 	0.3353	0.6387	0.6062	0.13
Mof_H 	H 	0.4257	0.5614	0.5969	0.019
Mof_H 	H 	0.1621	0.7324	0.9298	0.016
Mof_H 	H 	0.2798	0.6902	0.8492	0.088
Mof_H 	H 	0.1481	0.5304	0.7987	0.102
Mof_H 	H 	0.0428	0.5768	0.8802	0.019
Mof_H 	H 	0.0656	0.9525	0.7658	0.314
Mof_H 	H 	0.174	0.9594	0.7408	0.29
Mof_H 	H 	0.8286	0.1024	0.7248	-0.004
Mof_H 	H 	0.702	0.1306	0.6848	0.089
Mof_H 	H 	0.7958	0.0049	0.5247	0.094
Mof_H 	H 	0.9143	0.9733	0.5714	0.033
Mof_H 	H 	0.7689	0.1064	0.5239	0.098
Mof_H 	H 	0.3207	0.1366	0.5545	0.037
Mof_H 	H 	0.2595	0.1092	0.6199	0.128
Mof_H 	H 	0.5554	0.0602	0.6388	0.135
Mof_H 	H 	0.8066	0.1177	0.4452	-0.01
Mof_H 	H 	0.7957	0.1806	0.5044	-0.029
Mof_H 	H 	0.8587	0.1971	0.4285	0.221
Mof_H 	H 	0.7423	0.2232	0.445	0.211
Mof_H 	H 	0.7624	0.1609	0.387	0.234
Mof_H 	H 	0.6435	0.3585	0.5733	0.335
Mof_H 	H 	0.6765	0.2953	0.5632	0.332
Mof_H 	H 	0.601	0.337	0.6168	0.321
Mof_H 	H 	0.5508	0.2874	0.4985	-0.137
Mof_H 	H 	0.4752	0.3287	0.5524	-0.129
Mof_H 	H 	0.3551	0.2674	0.4812	0.103
Mof_H 	H 	0.1976	0.093	0.3407	0.139
Mof_H 	H 	0.3353	0.9675	0.3613	0.14
Mof_H 	H 	0.4257	0.0355	0.4386	0.014
Mof_H 	H 	0.1621	0.1974	0.2676	0.014
Mof_H 	H 	0.2798	0.159	0.3098	0.087
Mof_H 	H 	0.1481	0.2683	0.4696	0.102
Mof_H 	H 	0.0428	0.3034	0.4232	0.019
Mof_H 	H 	0.0656	0.8133	0.0475	0.311
Mof_H 	H 	0.174	0.7814	0.0406	0.288
Mof_H 	H 	0.8286	0.6224	0.8976	-0.005
Mof_H 	H 	0.702	0.5542	0.8694	0.091
Mof_H 	H 	0.7958	0.5198	0.9951	0.104
Mof_H 	H 	0.9143	0.5981	0.0267	0.016
Mof_H 	H 	0.7689	0.4175	0.8936	0.098
Mof_H 	H 	0.3207	0.4179	0.8634	0.037
Mof_H 	H 	0.2595	0.5107	0.8908	0.129
Mof_H 	H 	0.5554	0.5786	0.9398	0.138
Mof_H 	H 	0.8066	0.3275	0.8823	-0.009
Mof_H 	H 	0.7957	0.3238	0.8194	-0.029
Mof_H 	H 	0.8587	0.2314	0.8029	0.221
Mof_H 	H 	0.7423	0.2218	0.7768	0.211
Mof_H 	H 	0.7624	0.2261	0.8391	0.235
Mof_H 	H 	0.6435	0.2148	0.6415	0.335
Mof_H 	H 	0.6765	0.2679	0.7047	0.332
Mof_H 	H 	0.601	0.2798	0.663	0.321
Mof_H 	H 	0.5508	0.2111	0.7126	-0.137
Mof_H 	H 	0.4752	0.2237	0.6713	-0.129
Mof_H 	H 	0.3551	0.2138	0.7326	0.104
Mof_H 	H 	0.1976	0.2477	0.907	0.14
Mof_H 	H 	0.3353	0.3938	0.0325	0.121
Mof_H 	H 	0.4257	0.4031	0.9645	0.024
Mof_H 	H 	0.1621	0.0702	0.8026	0.013
Mof_H 	H 	0.2798	0.1508	0.841	0.087
Mof_H 	H 	0.1481	0.2013	0.7317	0.102
Mof_H 	H 	0.0428	0.1198	0.6966	0.019
Mof_H 	H 	0.9344	0.0475	0.8133	0.322
Mof_H 	H 	0.826	0.0406	0.7814	0.289
Mof_H 	H 	0.1714	0.8976	0.6224	-0.009
Mof_H 	H 	0.298	0.8694	0.5542	0.091
Mof_H 	H 	0.2042	0.9951	0.5198	0.102
Mof_H 	H 	0.0857	0.0267	0.5981	0.007
Mof_H 	H 	0.2311	0.8936	0.4175	0.096
Mof_H 	H 	0.6793	0.8634	0.4179	0.039
Mof_H 	H 	0.7405	0.8908	0.5107	0.129
Mof_H 	H 	0.4446	0.9398	0.5786	0.138
Mof_H 	H 	0.1934	0.8823	0.3275	-0.011
Mof_H 	H 	0.2043	0.8194	0.3238	-0.029
Mof_H 	H 	0.1413	0.8029	0.2314	0.212
Mof_H 	H 	0.2577	0.7768	0.2218	0.208
Mof_H 	H 	0.2376	0.8391	0.2261	0.23
Mof_H 	H 	0.3565	0.6415	0.2148	0.334
Mof_H 	H 	0.3235	0.7047	0.2679	0.33
Mof_H 	H 	0.399	0.663	0.2798	0.32
Mof_H 	H 	0.4492	0.7126	0.2111	-0.137
Mof_H 	H 	0.5248	0.6713	0.2237	-0.128
Mof_H 	H 	0.6449	0.7326	0.2138	0.104
Mof_H 	H 	0.8024	0.907	0.2477	0.144
Mof_H 	H 	0.6647	0.0325	0.3938	0.12
Mof_H 	H 	0.5743	0.9645	0.4031	0.025
Mof_H 	H 	0.8379	0.8026	0.0702	0.018
Mof_H 	H 	0.7202	0.841	0.1508	0.088
Mof_H 	H 	0.8519	0.7317	0.2013	0.107
Mof_H 	H 	0.9572	0.6966	0.1198	0.03
Mof_H 	H 	0.9344	0.1867	0.2342	0.321
Mof_H 	H 	0.826	0.2186	0.2592	0.29
Mof_H 	H 	0.1714	0.3776	0.2752	-0.009
Mof_H 	H 	0.298	0.4458	0.3152	0.09
Mof_H 	H 	0.2042	0.4802	0.4753	0.097
Mof_H 	H 	0.0857	0.4019	0.4286	0.016
Mof_H 	H 	0.2311	0.5825	0.4761	0.096
Mof_H 	H 	0.6793	0.5821	0.4455	0.039
Mof_H 	H 	0.7405	0.4893	0.3801	0.129
Mof_H 	H 	0.4446	0.4214	0.3612	0.136
Mof_H 	H 	0.1934	0.6725	0.5548	-0.011
Mof_H 	H 	0.2043	0.6762	0.4956	-0.03
Mof_H 	H 	0.1413	0.7686	0.5715	0.212
Mof_H 	H 	0.2577	0.7782	0.555	0.208
Mof_H 	H 	0.2376	0.7739	0.613	0.231
Mof_H 	H 	0.3565	0.7852	0.4267	0.334
Mof_H 	H 	0.3235	0.7321	0.4368	0.33
Mof_H 	H 	0.399	0.7202	0.3832	0.32
Mof_H 	H 	0.4492	0.7889	0.5015	-0.137
Mof_H 	H 	0.5248	0.7763	0.4476	-0.128
Mof_H 	H 	0.6449	0.7862	0.5188	0.103
Mof_H 	H 	0.8024	0.7523	0.6593	0.144
Mof_H 	H 	0.6647	0.6062	0.6387	0.13
Mof_H 	H 	0.5743	0.5969	0.5614	0.019
Mof_H 	H 	0.8379	0.9298	0.7324	0.021
Mof_H 	H 	0.7202	0.8492	0.6902	0.089
Mof_H 	H 	0.8519	0.7987	0.5304	0.107
Mof_H 	H 	0.9572	0.8802	0.5768	0.03
Mof_H 	H 	0.9344	0.7658	0.9525	0.324
Mof_H 	H 	0.826	0.7408	0.9594	0.292
Mof_H 	H 	0.1714	0.7248	0.1024	-0.008
Mof_H 	H 	0.298	0.6848	0.1306	0.089
Mof_H 	H 	0.2042	0.5247	0.0049	0.092
Mof_H 	H 	0.0857	0.5714	0.9733	0.026
Mof_H 	H 	0.2311	0.5239	0.1064	0.097
Mof_H 	H 	0.6793	0.5545	0.1366	0.039
Mof_H 	H 	0.7405	0.6199	0.1092	0.128
Mof_H 	H 	0.4446	0.6388	0.0602	0.135
Mof_H 	H 	0.1934	0.4452	0.1177	-0.012
Mof_H 	H 	0.2043	0.5044	0.1806	-0.03
Mof_H 	H 	0.1413	0.4285	0.1971	0.212
Mof_H 	H 	0.2577	0.445	0.2232	0.207
Mof_H 	H 	0.2376	0.387	0.1609	0.23
Mof_H 	H 	0.3565	0.5733	0.3585	0.334
Mof_H 	H 	0.3235	0.5632	0.2953	0.33
Mof_H 	H 	0.399	0.6168	0.337	0.32
Mof_H 	H 	0.4492	0.4985	0.2874	-0.137
Mof_H 	H 	0.5248	0.5524	0.3287	-0.128
Mof_H 	H 	0.6449	0.4812	0.2674	0.103
Mof_H 	H 	0.8024	0.3407	0.093	0.144
Mof_H 	H 	0.6647	0.3613	0.9675	0.139
Mof_H 	H 	0.5743	0.4386	0.0355	0.014
Mof_H 	H 	0.8379	0.2676	0.1974	0.018
Mof_H 	H 	0.7202	0.3098	0.159	0.087
Mof_H 	H 	0.8519	0.4696	0.2683	0.107
Mof_H 	H 	0.9572	0.4232	0.3034	0.03
Mof_C 	C 	0.8209	0.3168	0.3978	0.135
Mof_C 	C 	0.7473	0.3402	0.4394	-0.172
Mof_C 	C 	0.7366	0.4	0.4728	0.118
Mof_C 	C 	0.8005	0.4336	0.4588	-0.139
Mof_C 	C 	0.8721	0.4055	0.4125	0.104
Mof_C 	C 	0.6574	0.4287	0.5216	-0.032
Mof_C 	C 	0.6959	0.4681	0.577	-0.135
Mof_C 	C 	0.6263	0.4962	0.6252	0.145
Mof_C 	C 	0.5167	0.484	0.6169	-0.012
Mof_C 	C 	0.4793	0.4439	0.5609	-0.036
Mof_C 	C 	0.3683	0.4286	0.5499	0.046
Mof_C 	C 	0.3313	0.3911	0.4952	-0.193
Mof_C 	C 	0.4007	0.369	0.4478	0.249
Mof_C 	C 	0.5096	0.3791	0.4545	-0.198
Mof_C 	C 	0.5485	0.4167	0.512	0.072
Mof_C 	C 	0.7688	0.5361	0.6919	0.252
Mof_C 	C 	0.7845	0.5722	0.7593	-0.596
Mof_C 	C 	0.6199	0.424	0.7484	-1.021
Mof_C 	C 	0.5322	0.4604	0.7596	0.596
Mof_C 	C 	0.4432	0.5172	0.669	-0.033
Mof_C 	C 	0.4307	0.5011	0.7113	0.208
Mof_C 	C 	0.3608	0.5304	0.7573	-0.151
Mof_C 	C 	0.2989	0.5761	0.7626	-0.005
Mof_C 	C 	0.308	0.5939	0.7188	0.091
Mof_C 	C 	0.2491	0.6408	0.7223	-0.241
Mof_C 	C 	0.2634	0.6593	0.6855	0.282
Mof_C 	C 	0.3299	0.6276	0.6355	-0.205
Mof_C 	C 	0.383	0.5828	0.6308	0.065
Mof_C 	C 	0.381	0.5641	0.6729	-0.035
Mof_C 	C 	0.1611	0.691	0.9034	0.086
Mof_C 	C 	0.2302	0.6659	0.8541	-0.12
Mof_C 	C 	0.2253	0.6054	0.8129	0.09
Mof_C 	C 	0.1537	0.5717	0.8244	-0.139
Mof_C 	C 	0.092	0.6003	0.8738	0.095
Mof_C 	C 	0.8209	0.081	0.6832	0.132
Mof_C 	C 	0.7473	0.0992	0.6598	-0.169
Mof_C 	C 	0.7366	0.0728	0.6	0.113
Mof_C 	C 	0.8005	0.0252	0.5664	-0.132
Mof_C 	C 	0.8721	0.007	0.5945	0.089
Mof_C 	C 	0.6574	0.0929	0.5713	-0.03
Mof_C 	C 	0.6959	0.1089	0.5319	-0.136
Mof_C 	C 	0.6263	0.129	0.5038	0.146
Mof_C 	C 	0.5167	0.1329	0.516	-0.013
Mof_C 	C 	0.4793	0.117	0.5561	-0.035
Mof_C 	C 	0.3683	0.1213	0.5714	0.045
Mof_C 	C 	0.3313	0.1041	0.6089	-0.193
Mof_C 	C 	0.4007	0.0788	0.631	0.248
Mof_C 	C 	0.5096	0.0754	0.6209	-0.198
Mof_C 	C 	0.5485	0.0953	0.5833	0.07
Mof_C 	C 	0.7688	0.1558	0.4639	0.252
Mof_C 	C 	0.7845	0.1871	0.4278	-0.596
Mof_C 	C 	0.6199	0.3244	0.576	-1.021
Mof_C 	C 	0.5322	0.2992	0.5396	0.596
Mof_C 	C 	0.4432	0.1518	0.4828	-0.031
Mof_C 	C 	0.4307	0.2102	0.4989	0.207
Mof_C 	C 	0.3608	0.2269	0.4696	-0.15
Mof_C 	C 	0.2989	0.1865	0.4239	-0.006
Mof_C 	C 	0.308	0.1249	0.4061	0.093
Mof_C 	C 	0.2491	0.0815	0.3592	-0.243
Mof_C 	C 	0.2634	0.0262	0.3407	0.282
Mof_C 	C 	0.3299	0.0079	0.3724	-0.222
Mof_C 	C 	0.383	0.048	0.4172	0.075
Mof_C 	C 	0.381	0.1088	0.4359	-0.041
Mof_C 	C 	0.1611	0.2124	0.309	0.086
Mof_C 	C 	0.2302	0.1882	0.3341	-0.121
Mof_C 	C 	0.2253	0.2075	0.3946	0.091
Mof_C 	C 	0.1537	0.2527	0.4283	-0.139
Mof_C 	C 	0.092	0.2735	0.3997	0.095
Mof_C 	C 	0.8209	0.6022	0.919	0.137
Mof_C 	C 	0.7473	0.5606	0.9008	-0.175
Mof_C 	C 	0.7366	0.5272	0.9272	0.122
Mof_C 	C 	0.8005	0.5412	0.9748	-0.146
Mof_C 	C 	0.8721	0.5875	0.993	0.118
Mof_C 	C 	0.6574	0.4784	0.9071	-0.033
Mof_C 	C 	0.6959	0.423	0.8911	-0.134
Mof_C 	C 	0.6263	0.3748	0.871	0.145
Mof_C 	C 	0.5167	0.3831	0.8671	-0.011
Mof_C 	C 	0.4793	0.4391	0.883	-0.036
Mof_C 	C 	0.3683	0.4501	0.8787	0.047
Mof_C 	C 	0.3313	0.5048	0.8959	-0.192
Mof_C 	C 	0.4007	0.5522	0.9212	0.25
Mof_C 	C 	0.5096	0.5455	0.9246	-0.198
Mof_C 	C 	0.5485	0.488	0.9047	0.073
Mof_C 	C 	0.7688	0.3081	0.8442	0.251
Mof_C 	C 	0.7845	0.2407	0.8129	-0.596
Mof_C 	C 	0.6199	0.2516	0.6756	-1.021
Mof_C 	C 	0.5322	0.2404	0.7008	0.597
Mof_C 	C 	0.4432	0.331	0.8482	-0.035
Mof_C 	C 	0.4307	0.2887	0.7898	0.209
Mof_C 	C 	0.3608	0.2427	0.7731	-0.152
Mof_C 	C 	0.2989	0.2374	0.8135	-0.004
Mof_C 	C 	0.308	0.2812	0.8751	0.088
Mof_C 	C 	0.2491	0.2777	0.9185	-0.238
Mof_C 	C 	0.2634	0.3145	0.9738	0.281
Mof_C 	C 	0.3299	0.3645	0.9921	-0.188
Mof_C 	C 	0.383	0.3692	0.952	0.055
Mof_C 	C 	0.381	0.3271	0.8912	-0.031
Mof_C 	C 	0.1611	0.0966	0.7876	0.086
Mof_C 	C 	0.2302	0.1459	0.8118	-0.12
Mof_C 	C 	0.2253	0.1871	0.7925	0.09
Mof_C 	C 	0.1537	0.1756	0.7473	-0.138
Mof_C 	C 	0.092	0.1262	0.7265	0.095
Mof_C 	C 	0.1791	0.919	0.6022	0.135
Mof_C 	C 	0.2527	0.9008	0.5606	-0.176
Mof_C 	C 	0.2634	0.9272	0.5272	0.122
Mof_C 	C 	0.1995	0.9748	0.5412	-0.149
Mof_C 	C 	0.1279	0.993	0.5875	0.116
Mof_C 	C 	0.3426	0.9071	0.4784	-0.034
Mof_C 	C 	0.3041	0.8911	0.423	-0.133
Mof_C 	C 	0.3737	0.871	0.3748	0.144
Mof_C 	C 	0.4833	0.8671	0.3831	-0.01
Mof_C 	C 	0.5207	0.883	0.4391	-0.036
Mof_C 	C 	0.6317	0.8787	0.4501	0.046
Mof_C 	C 	0.6687	0.8959	0.5048	-0.192
Mof_C 	C 	0.5993	0.9212	0.5522	0.25
Mof_C 	C 	0.4904	0.9246	0.5455	-0.198
Mof_C 	C 	0.4515	0.9047	0.488	0.073
Mof_C 	C 	0.2312	0.8442	0.3081	0.248
Mof_C 	C 	0.2155	0.8129	0.2407	-0.587
Mof_C 	C 	0.3801	0.6756	0.2516	-1.018
Mof_C 	C 	0.4678	0.7008	0.2404	0.595
Mof_C 	C 	0.5568	0.8482	0.331	-0.035
Mof_C 	C 	0.5693	0.7898	0.2887	0.21
Mof_C 	C 	0.6392	0.7731	0.2427	-0.152
Mof_C 	C 	0.7011	0.8135	0.2374	-0.003
Mof_C 	C 	0.692	0.8751	0.2812	0.09
Mof_C 	C 	0.7509	0.9185	0.2777	-0.237
Mof_C 	C 	0.7366	0.9738	0.3145	0.282
Mof_C 	C 	0.6701	0.9921	0.3645	-0.186
Mof_C 	C 	0.617	0.952	0.3692	0.055
Mof_C 	C 	0.619	0.8912	0.3271	-0.03
Mof_C 	C 	0.8389	0.7876	0.0966	0.089
Mof_C 	C 	0.7698	0.8118	0.1459	-0.119
Mof_C 	C 	0.7747	0.7925	0.1871	0.092
Mof_C 	C 	0.8463	0.7473	0.1756	-0.135
Mof_C 	C 	0.908	0.7265	0.1262	0.097
Mof_C 	C 	0.1791	0.3978	0.3168	0.132
Mof_C 	C 	0.2527	0.4394	0.3402	-0.173
Mof_C 	C 	0.2634	0.4728	0.4	0.118
Mof_C 	C 	0.1995	0.4588	0.4336	-0.142
Mof_C 	C 	0.1279	0.4125	0.4055	0.1
Mof_C 	C 	0.3426	0.5216	0.4287	-0.032
Mof_C 	C 	0.3041	0.577	0.4681	-0.135
Mof_C 	C 	0.3737	0.6252	0.4962	0.145
Mof_C 	C 	0.4833	0.6169	0.484	-0.012
Mof_C 	C 	0.5207	0.5609	0.4439	-0.036
Mof_C 	C 	0.6317	0.5499	0.4286	0.046
Mof_C 	C 	0.6687	0.4952	0.3911	-0.192
Mof_C 	C 	0.5993	0.4478	0.369	0.249
Mof_C 	C 	0.4904	0.4545	0.3791	-0.198
Mof_C 	C 	0.4515	0.512	0.4167	0.072
Mof_C 	C 	0.2312	0.6919	0.5361	0.249
Mof_C 	C 	0.2155	0.7593	0.5722	-0.588
Mof_C 	C 	0.3801	0.7484	0.424	-1.018
Mof_C 	C 	0.4678	0.7596	0.4604	0.594
Mof_C 	C 	0.5568	0.669	0.5172	-0.033
Mof_C 	C 	0.5693	0.7113	0.5011	0.208
Mof_C 	C 	0.6392	0.7573	0.5304	-0.15
Mof_C 	C 	0.7011	0.7626	0.5761	-0.004
Mof_C 	C 	0.692	0.7188	0.5939	0.093
Mof_C 	C 	0.7509	0.7223	0.6408	-0.239
Mof_C 	C 	0.7366	0.6855	0.6593	0.283
Mof_C 	C 	0.6701	0.6355	0.6276	-0.203
Mof_C 	C 	0.617	0.6308	0.5828	0.065
Mof_C 	C 	0.619	0.6729	0.5641	-0.035
Mof_C 	C 	0.8389	0.9034	0.691	0.089
Mof_C 	C 	0.7698	0.8541	0.6659	-0.119
Mof_C 	C 	0.7747	0.8129	0.6054	0.092
Mof_C 	C 	0.8463	0.8244	0.5717	-0.135
Mof_C 	C 	0.908	0.8738	0.6003	0.098
Mof_C 	C 	0.1791	0.6832	0.081	0.129
Mof_C 	C 	0.2527	0.6598	0.0992	-0.17
Mof_C 	C 	0.2634	0.6	0.0728	0.113
Mof_C 	C 	0.1995	0.5664	0.0252	-0.134
Mof_C 	C 	0.1279	0.5945	0.007	0.085
Mof_C 	C 	0.3426	0.5713	0.0929	-0.031
Mof_C 	C 	0.3041	0.5319	0.1089	-0.136
Mof_C 	C 	0.3737	0.5038	0.129	0.145
Mof_C 	C 	0.4833	0.516	0.1329	-0.013
Mof_C 	C 	0.5207	0.5561	0.117	-0.035
Mof_C 	C 	0.6317	0.5714	0.1213	0.045
Mof_C 	C 	0.6687	0.6089	0.1041	-0.192
Mof_C 	C 	0.5993	0.631	0.0788	0.248
Mof_C 	C 	0.4904	0.6209	0.0754	-0.198
Mof_C 	C 	0.4515	0.5833	0.0953	0.07
Mof_C 	C 	0.2312	0.4639	0.1558	0.248
Mof_C 	C 	0.2155	0.4278	0.1871	-0.587
Mof_C 	C 	0.3801	0.576	0.3244	-1.018
Mof_C 	C 	0.4678	0.5396	0.2992	0.594
Mof_C 	C 	0.5568	0.4828	0.1518	-0.031
Mof_C 	C 	0.5693	0.4989	0.2102	0.207
Mof_C 	C 	0.6392	0.4696	0.2269	-0.149
Mof_C 	C 	0.7011	0.4239	0.1865	-0.005
Mof_C 	C 	0.692	0.4061	0.1249	0.095
Mof_C 	C 	0.7509	0.3592	0.0815	-0.242
Mof_C 	C 	0.7366	0.3407	0.0262	0.283
Mof_C 	C 	0.6701	0.3724	0.0079	-0.219
Mof_C 	C 	0.617	0.4172	0.048	0.074
Mof_C 	C 	0.619	0.4359	0.1088	-0.04
Mof_C 	C 	0.8389	0.309	0.2124	0.089
Mof_C 	C 	0.7698	0.3341	0.1882	-0.119
Mof_C 	C 	0.7747	0.3946	0.2075	0.092
Mof_C 	C 	0.8463	0.4283	0.2527	-0.136
Mof_C 	C 	0.908	0.3997	0.2735	0.098
Mof_N 	N 	0.883	0.3464	0.3827	-0.153
Mof_N 	N 	0.0942	0.657	0.9132	-0.148
Mof_N 	N 	0.883	0.0363	0.6536	-0.15
Mof_N 	N 	0.0942	0.2562	0.343	-0.15
Mof_N 	N 	0.883	0.6173	0.9637	-0.154
Mof_N 	N 	0.0942	0.0868	0.7438	-0.15
Mof_N 	N 	0.117	0.9637	0.6173	-0.161
Mof_N 	N 	0.9058	0.7438	0.0868	-0.143
Mof_N 	N 	0.117	0.3827	0.3464	-0.16
Mof_N 	N 	0.9058	0.9132	0.657	-0.141
Mof_N 	N 	0.117	0.6536	0.0363	-0.158
Mof_N 	N 	0.9058	0.343	0.2562	-0.142
Mof_Cl	Cl	0.35283	0.32218	0.37699	-0.363
Mof_Cl	Cl	0.1786	0.713	0.68547	-0.359
Mof_Cl	Cl	0.35283	0.05481	0.67782	-0.366
Mof_Cl	Cl	0.1786	0.97247	0.287	-0.355
Mof_Cl	Cl	0.35283	0.62301	0.94519	-0.358
Mof_Cl	Cl	0.1786	0.31453	0.02753	-0.365
Mof_Cl	Cl	0.64717	0.94519	0.62301	-0.358
Mof_Cl	Cl	0.8214	0.02753	0.31453	-0.353
Mof_Cl	Cl	0.64717	0.37699	0.32218	-0.363
Mof_Cl	Cl	0.8214	0.68547	0.713	-0.346
Mof_Cl	Cl	0.64717	0.67782	0.05481	-0.365
Mof_Cl	Cl	0.8214	0.287	0.97247	-0.343
Mof_O 	O 	0.6579	0.5351	0.6814	-0.25
Mof_O 	O 	0.4956	0.4581	0.7064	-0.334
Mof_O 	O 	0.104	0.2542	0.2161	-0.635
Mof_O 	O 	0.6579	0.1463	0.4649	-0.251
Mof_O 	O 	0.4956	0.2483	0.5419	-0.334
Mof_O 	O 	0.104	0.9619	0.7458	-0.633
Mof_O 	O 	0.6579	0.3186	0.8537	-0.25
Mof_O 	O 	0.4956	0.2936	0.7517	-0.335
Mof_O 	O 	0.104	0.7839	0.0381	-0.636
Mof_O 	O 	0.3421	0.8537	0.3186	-0.249
Mof_O 	O 	0.5044	0.7517	0.2936	-0.334
Mof_O 	O 	0.896	0.0381	0.7839	-0.63
Mof_O 	O 	0.3421	0.6814	0.5351	-0.25
Mof_O 	O 	0.5044	0.7064	0.4581	-0.334
Mof_O 	O 	0.896	0.2161	0.2542	-0.629
Mof_O 	O 	0.3421	0.4649	0.1463	-0.25
Mof_O 	O 	0.5044	0.5419	0.2483	-0.333
Mof_O 	O 	0.896	0.7458	0.9619	-0.627
Mof_Cl	Cl	0.9893	0.6068	0.1649	-0.193
Mof_O 	O 	0.9602	0.5975	0.1121	-0.03
Mof_O 	O 	0.051	0.5589	0.1575	-0.049
Mof_O 	O 	0.051	0.6555	0.1943	-0.052
Mof_O 	O 	0.906	0.612	0.1996	-0.014
Mof_Cl	Cl	0.9893	0.5581	0.3932	-0.193
Mof_O 	O 	0.9602	0.5146	0.4025	-0.029
Mof_O 	O 	0.051	0.5986	0.4411	-0.048
Mof_O 	O 	0.051	0.5388	0.3445	-0.053
Mof_O 	O 	0.906	0.5876	0.388	-0.014
Mof_Cl	Cl	0.9893	0.8351	0.4419	-0.194
Mof_O 	O 	0.9602	0.8879	0.4854	-0.028
Mof_O 	O 	0.051	0.8425	0.4014	-0.048
Mof_O 	O 	0.051	0.8057	0.4612	-0.052
Mof_O 	O 	0.906	0.8004	0.4124	-0.014
Mof_Cl	Cl	0.0107	0.4419	0.8351	-0.274
Mof_O 	O 	0.0398	0.4854	0.8879	-0.025
Mof_O 	O 	0.949	0.4014	0.8425	-0.008
Mof_O 	O 	0.949	0.4612	0.8057	-0.009
Mof_O 	O 	0.094	0.4124	0.8004	-0.01
Mof_Cl	Cl	0.0107	0.1649	0.6068	-0.274
Mof_O 	O 	0.0398	0.1121	0.5975	-0.026
Mof_O 	O 	0.949	0.1575	0.5589	-0.009
Mof_O 	O 	0.949	0.1943	0.6555	-0.009
Mof_O 	O 	0.094	0.1996	0.612	-0.01
Mof_Cl	Cl	0.0107	0.3932	0.5581	-0.275
Mof_O 	O 	0.0398	0.4025	0.5146	-0.026
Mof_O 	O 	0.949	0.4411	0.5986	-0.008
Mof_O 	O 	0.949	0.3445	0.5388	-0.009
Mof_O 	O 	0.094	0.388	0.5876	-0.01
_end
