data_functionalizedCrystal
_audit_creation_method	'EQeq! by Chris Wilmer'
_symmetry_space_group_name_H-M	'P1'
_symmetry_Int_Tables_number	1
_symmetry_cell_setting	triclinic
loop_
_symmetry_equiv_pos_as_xyz
  x,y,z
_cell_length_a	15.884
_cell_length_b	15.884
_cell_length_c	21.44
_cell_angle_alpha	90
_cell_angle_beta	90
_cell_angle_gamma	90
loop_
_atom_site_label
_atom_site_type_symbol
_atom_site_fract_x
_atom_site_fract_y
_atom_site_fract_z
_atom_site_charge
Mof_C 	C 	0.9317	0.8026	0.8099	0.083
Mof_H 	H 	0.9397	0.8414	0.8419	0.01
Mof_C 	C 	0.8748	0.7389	0.8193	-0.143
Mof_H 	H 	0.8465	0.7351	0.8572	0.078
Mof_C 	C 	0.859	0.6802	0.7729	0.073
Mof_C 	C 	0.9075	0.6887	0.7194	-0.143
Mof_H 	H 	0.9022	0.6498	0.6872	0.078
Mof_C 	C 	0.9641	0.7553	0.7139	0.082
Mof_H 	H 	0.9951	0.7597	0.6772	0.005
Mof_C 	C 	0.7938	0.6144	0.7786	0.019
Mof_C 	C 	0.7926	0.5427	0.7412	-0.085
Mof_H 	H 	0.8346	0.5352	0.7115	0.058
Mof_C 	C 	0.7304	0.4827	0.7474	0.01
Mof_H 	H 	0.7335	0.4334	0.7242	0.022
Mof_C 	C 	0.6638	0.4951	0.7874	-0.091
Mof_H 	H 	0.6207	0.4556	0.79	0.065
Mof_C 	C 	0.6616	0.5672	0.8237	0.03
Mof_C 	C 	0.7258	0.6258	0.8194	-0.091
Mof_H 	H 	0.7237	0.6739	0.8442	0.068
Mof_C 	C 	0.5921	0.5756	0.8681	0.088
Mof_C 	C 	0.4952	0.6257	0.931	0.085
Mof_C 	C 	0.44	0.6883	0.9612	0.045
Mof_C 	C 	0.4585	0.72	0.0205	-0.113
Mof_H 	H 	0.5064	0.7026	0.0418	0.076
Mof_C 	C 	0.4036	0.7783	0.0469	0.028
Mof_H 	H 	0.4136	0.7982	0.087	0.018
Mof_C 	C 	0.3338	0.8072	0.0138	-0.115
Mof_H 	H 	0.2981	0.8467	0.0319	0.07
Mof_C 	C 	0.317	0.7784	0.955	0.043
Mof_C 	C 	0.3712	0.7163	0.9293	-0.106
Mof_H 	H 	0.3595	0.6943	0.8901	0.066
Mof_C 	C 	0.2455	0.8088	0.9171	0.06
Mof_C 	C 	0.2018	0.8831	0.9304	-0.132
Mof_H 	H 	0.2142	0.9128	0.9667	0.078
Mof_C 	C 	0.1408	0.9129	0.8906	0.077
Mof_H 	H 	0.1129	0.9625	0.9009	0.012
Mof_C 	C 	0.1563	0.7998	0.8269	0.08
Mof_H 	H 	0.1396	0.7698	0.7917	0.003
Mof_C 	C 	0.2166	0.7653	0.8641	-0.138
Mof_H 	H 	0.2389	0.7128	0.8544	0.075
Mof_N 	N 	0.4931	0.5442	0.9335	-0.113
Mof_N 	N 	0.5535	0.5114	0.8941	-0.1
Mof_N 	N 	0.5567	0.649	0.8902	-0.103
Mof_N 	N 	0.5773	0.7305	0.87	-0.223
Mof_H 	H 	0.533	0.7531	0.8509	0.118
Mof_H 	H 	0.5911	0.7619	0.9029	0.119
Mof_N 	N 	0.9763	0.8124	0.7577	-0.154
Mof_N 	N 	0.1199	0.8737	0.8378	-0.155
Mof_C 	C 	0.0683	0.1974	0.3099	0.084
Mof_H 	H 	0.0603	0.1586	0.3419	0.01
Mof_C 	C 	0.1252	0.2611	0.3193	-0.142
Mof_H 	H 	0.1535	0.2649	0.3572	0.077
Mof_C 	C 	0.141	0.3198	0.2729	0.072
Mof_C 	C 	0.0925	0.3113	0.2194	-0.143
Mof_H 	H 	0.0978	0.3502	0.1872	0.077
Mof_C 	C 	0.0359	0.2447	0.2139	0.081
Mof_H 	H 	0.0049	0.2403	0.1772	0.005
Mof_C 	C 	0.2062	0.3856	0.2786	0.019
Mof_C 	C 	0.2074	0.4573	0.2412	-0.085
Mof_H 	H 	0.1654	0.4648	0.2115	0.057
Mof_C 	C 	0.2696	0.5173	0.2474	0.01
Mof_H 	H 	0.2665	0.5666	0.2242	0.022
Mof_C 	C 	0.3362	0.5049	0.2874	-0.091
Mof_H 	H 	0.3793	0.5444	0.29	0.065
Mof_C 	C 	0.3384	0.4328	0.3237	0.03
Mof_C 	C 	0.2742	0.3742	0.3194	-0.091
Mof_H 	H 	0.2763	0.3261	0.3442	0.068
Mof_C 	C 	0.4079	0.4244	0.3681	0.087
Mof_C 	C 	0.5048	0.3743	0.431	0.09
Mof_C 	C 	0.56	0.3117	0.4612	0.025
Mof_C 	C 	0.5415	0.28	0.5205	-0.088
Mof_H 	H 	0.4936	0.2974	0.5418	0.068
Mof_C 	C 	0.5964	0.2217	0.5469	0.007
Mof_H 	H 	0.5864	0.2018	0.587	0.026
Mof_C 	C 	0.6662	0.1928	0.5138	-0.089
Mof_H 	H 	0.7019	0.1533	0.5319	0.062
Mof_C 	C 	0.683	0.2216	0.455	0.023
Mof_C 	C 	0.6288	0.2837	0.4293	-0.09
Mof_H 	H 	0.6405	0.3057	0.3901	0.061
Mof_C 	C 	0.7545	0.1912	0.4171	0.068
Mof_C 	C 	0.7982	0.1169	0.4304	-0.138
Mof_H 	H 	0.7858	0.0872	0.4667	0.079
Mof_C 	C 	0.8592	0.0871	0.3906	0.079
Mof_H 	H 	0.8871	0.0375	0.4009	0.011
Mof_C 	C 	0.8437	0.2002	0.3269	0.083
Mof_H 	H 	0.8604	0.2302	0.2917	0.002
Mof_C 	C 	0.7834	0.2347	0.3641	-0.144
Mof_H 	H 	0.7611	0.2872	0.3544	0.077
Mof_N 	N 	0.5069	0.4558	0.4335	-0.116
Mof_N 	N 	0.4465	0.4886	0.3941	-0.1
Mof_N 	N 	0.4433	0.351	0.3902	-0.105
Mof_N 	N 	0.4227	0.2695	0.37	-0.222
Mof_H 	H 	0.467	0.2469	0.3509	0.117
Mof_H 	H 	0.4089	0.2381	0.4029	0.118
Mof_N 	N 	0.0237	0.1876	0.2577	-0.154
Mof_N 	N 	0.8801	0.1263	0.3378	-0.156
Mof_C 	C 	0.6974	0.4317	0.5599	0.084
Mof_H 	H 	0.6586	0.4397	0.5919	0.01
Mof_C 	C 	0.7611	0.3748	0.5693	-0.142
Mof_H 	H 	0.7649	0.3465	0.6072	0.077
Mof_C 	C 	0.8198	0.359	0.5229	0.073
Mof_C 	C 	0.8113	0.4075	0.4694	-0.143
Mof_H 	H 	0.8502	0.4022	0.4372	0.077
Mof_C 	C 	0.7447	0.4641	0.4639	0.082
Mof_H 	H 	0.7403	0.4951	0.4272	0.005
Mof_C 	C 	0.8856	0.2938	0.5286	0.019
Mof_C 	C 	0.9573	0.2926	0.4912	-0.086
Mof_H 	H 	0.9648	0.3346	0.4615	0.058
Mof_C 	C 	0.0173	0.2304	0.4974	0.01
Mof_H 	H 	0.0666	0.2335	0.4742	0.022
Mof_C 	C 	0.0049	0.1638	0.5374	-0.09
Mof_H 	H 	0.0444	0.1207	0.54	0.065
Mof_C 	C 	0.9328	0.1616	0.5737	0.029
Mof_C 	C 	0.8742	0.2258	0.5694	-0.09
Mof_H 	H 	0.8261	0.2237	0.5942	0.068
Mof_C 	C 	0.9244	0.0921	0.6181	0.087
Mof_C 	C 	0.8743	0.9952	0.681	0.091
Mof_C 	C 	0.8117	0.94	0.7112	0.024
Mof_C 	C 	0.78	0.9585	0.7705	-0.086
Mof_H 	H 	0.7974	0.0064	0.7918	0.068
Mof_C 	C 	0.7217	0.9036	0.7969	0.006
Mof_H 	H 	0.7018	0.9136	0.837	0.027
Mof_C 	C 	0.6928	0.8338	0.7638	-0.088
Mof_H 	H 	0.6533	0.7981	0.7819	0.062
Mof_C 	C 	0.7216	0.817	0.705	0.022
Mof_C 	C 	0.7837	0.8712	0.6793	-0.089
Mof_H 	H 	0.8057	0.8595	0.6401	0.061
Mof_C 	C 	0.6912	0.7455	0.6671	0.068
Mof_C 	C 	0.6169	0.7018	0.6804	-0.138
Mof_H 	H 	0.5872	0.7142	0.7167	0.079
Mof_C 	C 	0.5871	0.6408	0.6406	0.08
Mof_H 	H 	0.5375	0.6129	0.6509	0.011
Mof_C 	C 	0.7002	0.6563	0.5769	0.083
Mof_H 	H 	0.7302	0.6396	0.5417	0.002
Mof_C 	C 	0.7347	0.7166	0.6141	-0.144
Mof_H 	H 	0.7872	0.7389	0.6044	0.077
Mof_N 	N 	0.9558	0.9931	0.6835	-0.116
Mof_N 	N 	0.9886	0.0535	0.6441	-0.101
Mof_N 	N 	0.851	0.0567	0.6402	-0.105
Mof_N 	N 	0.7695	0.0773	0.62	-0.222
Mof_H 	H 	0.7469	0.033	0.6009	0.117
Mof_H 	H 	0.7381	0.0911	0.6529	0.118
Mof_N 	N 	0.6876	0.4763	0.5077	-0.154
Mof_N 	N 	0.6263	0.6199	0.5878	-0.156
Mof_C 	C 	0.3026	0.5683	0.0599	0.081
Mof_H 	H 	0.3414	0.5603	0.0919	0.011
Mof_C 	C 	0.2389	0.6252	0.0693	-0.139
Mof_H 	H 	0.2351	0.6535	0.1072	0.076
Mof_C 	C 	0.1802	0.641	0.0229	0.064
Mof_C 	C 	0.1887	0.5925	0.9694	-0.134
Mof_H 	H 	0.1498	0.5978	0.9372	0.075
Mof_C 	C 	0.2553	0.5359	0.9639	0.085
Mof_H 	H 	0.2597	0.5049	0.9272	0.005
Mof_C 	C 	0.1144	0.7062	0.0286	0.018
Mof_C 	C 	0.0427	0.7074	0.9912	-0.086
Mof_H 	H 	0.0352	0.6654	0.9615	0.059
Mof_C 	C 	0.9827	0.7696	0.9974	0.025
Mof_H 	H 	0.9334	0.7665	0.9742	0.019
Mof_C 	C 	0.9951	0.8362	0.0374	-0.105
Mof_H 	H 	0.9556	0.8793	0.04	0.069
Mof_C 	C 	0.0672	0.8384	0.0737	0.034
Mof_C 	C 	0.1258	0.7742	0.0694	-0.095
Mof_H 	H 	0.1739	0.7763	0.0942	0.069
Mof_C 	C 	0.0756	0.9079	0.1181	0.085
Mof_C 	C 	0.1257	0.0048	0.181	0.091
Mof_C 	C 	0.1883	0.06	0.2112	0.024
Mof_C 	C 	0.22	0.0415	0.2705	-0.086
Mof_H 	H 	0.2026	0.9936	0.2918	0.067
Mof_C 	C 	0.2783	0.0964	0.2969	0.006
Mof_H 	H 	0.2982	0.0864	0.337	0.027
Mof_C 	C 	0.3072	0.1662	0.2638	-0.088
Mof_H 	H 	0.3467	0.2019	0.2819	0.062
Mof_C 	C 	0.2784	0.183	0.205	0.022
Mof_C 	C 	0.2163	0.1288	0.1793	-0.089
Mof_H 	H 	0.1943	0.1405	0.1401	0.06
Mof_C 	C 	0.3088	0.2545	0.1671	0.068
Mof_C 	C 	0.3831	0.2982	0.1804	-0.139
Mof_H 	H 	0.4128	0.2858	0.2167	0.079
Mof_C 	C 	0.4129	0.3592	0.1406	0.079
Mof_H 	H 	0.4625	0.3871	0.1509	0.011
Mof_C 	C 	0.2998	0.3437	0.0769	0.083
Mof_H 	H 	0.2698	0.3604	0.0417	0.001
Mof_C 	C 	0.2653	0.2834	0.1141	-0.145
Mof_H 	H 	0.2128	0.2611	0.1044	0.076
Mof_N 	N 	0.0442	0.0069	0.1835	-0.116
Mof_N 	N 	0.0114	0.9465	0.1441	-0.1
Mof_N 	N 	0.149	0.9433	0.1402	-0.105
Mof_N 	N 	0.2305	0.9227	0.12	-0.223
Mof_H 	H 	0.2531	0.967	0.1009	0.116
Mof_H 	H 	0.2619	0.9089	0.1529	0.118
Mof_N 	N 	0.3124	0.5237	0.0077	-0.157
Mof_N 	N 	0.3737	0.3801	0.0878	-0.156
Mof_C 	C 	0.5683	0.3026	0.9401	0.087
Mof_H 	H 	0.5603	0.3414	0.9081	0.009
Mof_C 	C 	0.6252	0.2389	0.9307	-0.145
Mof_H 	H 	0.6535	0.2351	0.8928	0.078
Mof_C 	C 	0.641	0.1802	0.9771	0.08
Mof_C 	C 	0.5925	0.1887	0.0306	-0.151
Mof_H 	H 	0.5978	0.1498	0.0628	0.079
Mof_C 	C 	0.5359	0.2553	0.0361	0.077
Mof_H 	H 	0.5049	0.2597	0.0728	0.006
Mof_C 	C 	0.7062	0.1144	0.9714	0.024
Mof_C 	C 	0.7074	0.0427	0.0088	-0.092
Mof_H 	H 	0.6654	0.0352	0.0385	0.058
Mof_C 	C 	0.7696	0.9827	0.0026	0.002
Mof_H 	H 	0.7665	0.9334	0.0258	0.023
Mof_C 	C 	0.8362	0.9951	0.9626	-0.08
Mof_H 	H 	0.8793	0.9556	0.96	0.064
Mof_C 	C 	0.8384	0.0672	0.9263	0.028
Mof_C 	C 	0.7742	0.1258	0.9306	-0.089
Mof_H 	H 	0.7763	0.1739	0.9058	0.067
Mof_C 	C 	0.9079	0.0756	0.8819	0.089
Mof_C 	C 	0.0048	0.1257	0.819	0.091
Mof_C 	C 	0.06	0.1883	0.7888	0.024
Mof_C 	C 	0.0415	0.22	0.7295	-0.086
Mof_H 	H 	0.9936	0.2026	0.7082	0.067
Mof_C 	C 	0.0964	0.2783	0.7031	0.006
Mof_H 	H 	0.0864	0.2982	0.663	0.027
Mof_C 	C 	0.1662	0.3072	0.7362	-0.089
Mof_H 	H 	0.2019	0.3467	0.7181	0.062
Mof_C 	C 	0.183	0.2784	0.795	0.022
Mof_C 	C 	0.1288	0.2163	0.8207	-0.089
Mof_H 	H 	0.1405	0.1943	0.8599	0.061
Mof_C 	C 	0.2545	0.3088	0.8329	0.068
Mof_C 	C 	0.2982	0.3831	0.8196	-0.138
Mof_H 	H 	0.2858	0.4128	0.7833	0.079
Mof_C 	C 	0.3592	0.4129	0.8594	0.08
Mof_H 	H 	0.3871	0.4625	0.8491	0.011
Mof_C 	C 	0.3437	0.2998	0.9231	0.083
Mof_H 	H 	0.3604	0.2698	0.9583	0.005
Mof_C 	C 	0.2834	0.2653	0.8859	-0.144
Mof_H 	H 	0.2611	0.2128	0.8956	0.078
Mof_N 	N 	0.0069	0.0442	0.8165	-0.115
Mof_N 	N 	0.9465	0.0114	0.8559	-0.101
Mof_N 	N 	0.9433	0.149	0.8598	-0.105
Mof_N 	N 	0.9227	0.2305	0.88	-0.222
Mof_H 	H 	0.967	0.2531	0.8991	0.118
Mof_H 	H 	0.9089	0.2619	0.8471	0.118
Mof_N 	N 	0.5237	0.3124	0.9923	-0.149
Mof_N 	N 	0.3801	0.3737	0.9122	-0.154
Mof_C 	C 	0.4317	0.6974	0.4401	0.084
Mof_H 	H 	0.4397	0.6586	0.4081	0.01
Mof_C 	C 	0.3748	0.7611	0.4307	-0.142
Mof_H 	H 	0.3465	0.7649	0.3928	0.077
Mof_C 	C 	0.359	0.8198	0.4771	0.072
Mof_C 	C 	0.4075	0.8113	0.5306	-0.143
Mof_H 	H 	0.4022	0.8502	0.5628	0.077
Mof_C 	C 	0.4641	0.7447	0.5361	0.082
Mof_H 	H 	0.4951	0.7403	0.5728	0.005
Mof_C 	C 	0.2938	0.8856	0.4714	0.019
Mof_C 	C 	0.2926	0.9573	0.5088	-0.086
Mof_H 	H 	0.3346	0.9648	0.5385	0.058
Mof_C 	C 	0.2304	0.0173	0.5026	0.01
Mof_H 	H 	0.2335	0.0666	0.5258	0.022
Mof_C 	C 	0.1638	0.0049	0.4626	-0.09
Mof_H 	H 	0.1207	0.0444	0.46	0.065
Mof_C 	C 	0.1616	0.9328	0.4263	0.029
Mof_C 	C 	0.2258	0.8742	0.4306	-0.091
Mof_H 	H 	0.2237	0.8261	0.4058	0.068
Mof_C 	C 	0.0921	0.9244	0.3819	0.087
Mof_C 	C 	0.9952	0.8743	0.319	0.091
Mof_C 	C 	0.94	0.8117	0.2888	0.024
Mof_C 	C 	0.9585	0.78	0.2295	-0.086
Mof_H 	H 	0.0064	0.7974	0.2082	0.067
Mof_C 	C 	0.9036	0.7217	0.2031	0.006
Mof_H 	H 	0.9136	0.7018	0.163	0.026
Mof_C 	C 	0.8338	0.6928	0.2362	-0.089
Mof_H 	H 	0.7981	0.6533	0.2181	0.062
Mof_C 	C 	0.817	0.7216	0.295	0.022
Mof_C 	C 	0.8712	0.7837	0.3207	-0.089
Mof_H 	H 	0.8595	0.8057	0.3599	0.061
Mof_C 	C 	0.7455	0.6912	0.3329	0.068
Mof_C 	C 	0.7018	0.6169	0.3196	-0.138
Mof_H 	H 	0.7142	0.5872	0.2833	0.079
Mof_C 	C 	0.6408	0.5871	0.3594	0.079
Mof_H 	H 	0.6129	0.5375	0.3491	0.011
Mof_C 	C 	0.6563	0.7002	0.4231	0.083
Mof_H 	H 	0.6396	0.7302	0.4583	0.003
Mof_C 	C 	0.7166	0.7347	0.3859	-0.144
Mof_H 	H 	0.7389	0.7872	0.3956	0.077
Mof_N 	N 	0.9931	0.9558	0.3165	-0.115
Mof_N 	N 	0.0535	0.9886	0.3559	-0.101
Mof_N 	N 	0.0567	0.851	0.3598	-0.105
Mof_N 	N 	0.0773	0.7695	0.38	-0.222
Mof_H 	H 	0.033	0.7469	0.3991	0.117
Mof_H 	H 	0.0911	0.7381	0.3471	0.118
Mof_N 	N 	0.4763	0.6876	0.4923	-0.154
Mof_N 	N 	0.6199	0.6263	0.4122	-0.156
Mof_C 	C 	0.8026	0.9317	0.1901	0.084
Mof_H 	H 	0.8414	0.9397	0.1581	0.01
Mof_C 	C 	0.7389	0.8748	0.1807	-0.142
Mof_H 	H 	0.7351	0.8465	0.1428	0.077
Mof_C 	C 	0.6802	0.859	0.2271	0.072
Mof_C 	C 	0.6887	0.9075	0.2806	-0.143
Mof_H 	H 	0.6498	0.9022	0.3128	0.078
Mof_C 	C 	0.7553	0.9641	0.2861	0.082
Mof_H 	H 	0.7597	0.9951	0.3228	0.005
Mof_C 	C 	0.6144	0.7938	0.2214	0.019
Mof_C 	C 	0.5427	0.7926	0.2588	-0.085
Mof_H 	H 	0.5352	0.8346	0.2885	0.058
Mof_C 	C 	0.4827	0.7304	0.2526	0.01
Mof_H 	H 	0.4334	0.7335	0.2758	0.022
Mof_C 	C 	0.4951	0.6638	0.2126	-0.091
Mof_H 	H 	0.4556	0.6207	0.21	0.065
Mof_C 	C 	0.5672	0.6616	0.1763	0.03
Mof_C 	C 	0.6258	0.7258	0.1806	-0.091
Mof_H 	H 	0.6739	0.7237	0.1558	0.067
Mof_C 	C 	0.5756	0.5921	0.1319	0.087
Mof_C 	C 	0.6257	0.4952	0.069	0.095
Mof_C 	C 	0.6883	0.44	0.0388	0.004
Mof_C 	C 	0.72	0.4585	0.9795	-0.061
Mof_H 	H 	0.7026	0.5064	0.9582	0.061
Mof_C 	C 	0.7783	0.4036	0.9531	-0.015
Mof_H 	H 	0.7982	0.4136	0.913	0.034
Mof_C 	C 	0.8072	0.3338	0.9862	-0.061
Mof_H 	H 	0.8467	0.2981	0.9681	0.054
Mof_C 	C 	0.7784	0.317	0.045	-0
Mof_C 	C 	0.7163	0.3712	0.0707	-0.072
Mof_H 	H 	0.6943	0.3595	0.1099	0.055
Mof_C 	C 	0.8088	0.2455	0.0829	0.077
Mof_C 	C 	0.8831	0.2018	0.0696	-0.145
Mof_H 	H 	0.9128	0.2142	0.0333	0.079
Mof_C 	C 	0.9129	0.1408	0.1094	0.082
Mof_H 	H 	0.9625	0.1129	0.0991	0.009
Mof_C 	C 	0.7998	0.1563	0.1731	0.086
Mof_H 	H 	0.7698	0.1396	0.2083	0.001
Mof_C 	C 	0.7653	0.2166	0.1359	-0.15
Mof_H 	H 	0.7128	0.2389	0.1456	0.079
Mof_N 	N 	0.5442	0.4931	0.0665	-0.118
Mof_N 	N 	0.5114	0.5535	0.1059	-0.1
Mof_N 	N 	0.649	0.5567	0.1098	-0.106
Mof_N 	N 	0.7305	0.5773	0.13	-0.222
Mof_H 	H 	0.7531	0.533	0.1491	0.117
Mof_H 	H 	0.7619	0.5911	0.0971	0.116
Mof_N 	N 	0.8124	0.9763	0.2423	-0.154
Mof_N 	N 	0.8737	0.1199	0.1622	-0.157
Mof_C 	C 	0.1974	0.0683	0.6901	0.084
Mof_H 	H 	0.1586	0.0603	0.6581	0.01
Mof_C 	C 	0.2611	0.1252	0.6807	-0.142
Mof_H 	H 	0.2649	0.1535	0.6428	0.077
Mof_C 	C 	0.3198	0.141	0.7271	0.073
Mof_C 	C 	0.3113	0.0925	0.7806	-0.143
Mof_H 	H 	0.3502	0.0978	0.8128	0.078
Mof_C 	C 	0.2447	0.0359	0.7861	0.082
Mof_H 	H 	0.2403	0.0049	0.8228	0.006
Mof_C 	C 	0.3856	0.2062	0.7214	0.019
Mof_C 	C 	0.4573	0.2074	0.7588	-0.085
Mof_H 	H 	0.4648	0.1654	0.7885	0.058
Mof_C 	C 	0.5173	0.2696	0.7526	0.01
Mof_H 	H 	0.5666	0.2665	0.7758	0.022
Mof_C 	C 	0.5049	0.3362	0.7126	-0.091
Mof_H 	H 	0.5444	0.3793	0.71	0.065
Mof_C 	C 	0.4328	0.3384	0.6763	0.03
Mof_C 	C 	0.3742	0.2742	0.6806	-0.091
Mof_H 	H 	0.3261	0.2763	0.6558	0.068
Mof_C 	C 	0.4244	0.4079	0.6319	0.087
Mof_C 	C 	0.3743	0.5048	0.569	0.09
Mof_C 	C 	0.3117	0.56	0.5388	0.025
Mof_C 	C 	0.28	0.5415	0.4795	-0.088
Mof_H 	H 	0.2974	0.4936	0.4582	0.068
Mof_C 	C 	0.2217	0.5964	0.4531	0.007
Mof_H 	H 	0.2018	0.5864	0.413	0.026
Mof_C 	C 	0.1928	0.6662	0.4862	-0.089
Mof_H 	H 	0.1533	0.7019	0.4681	0.062
Mof_C 	C 	0.2216	0.683	0.545	0.023
Mof_C 	C 	0.2837	0.6288	0.5707	-0.09
Mof_H 	H 	0.3057	0.6405	0.6099	0.061
Mof_C 	C 	0.1912	0.7545	0.5829	0.068
Mof_C 	C 	0.1169	0.7982	0.5696	-0.138
Mof_H 	H 	0.0872	0.7858	0.5333	0.079
Mof_C 	C 	0.0871	0.8592	0.6094	0.079
Mof_H 	H 	0.0375	0.8871	0.5991	0.011
Mof_C 	C 	0.2002	0.8437	0.6731	0.083
Mof_H 	H 	0.2302	0.8604	0.7083	0.002
Mof_C 	C 	0.2347	0.7834	0.6359	-0.144
Mof_H 	H 	0.2872	0.7611	0.6456	0.077
Mof_N 	N 	0.4558	0.5069	0.5665	-0.116
Mof_N 	N 	0.4886	0.4465	0.6059	-0.1
Mof_N 	N 	0.351	0.4433	0.6098	-0.105
Mof_N 	N 	0.2695	0.4227	0.63	-0.222
Mof_H 	H 	0.2469	0.467	0.6491	0.117
Mof_H 	H 	0.2381	0.4089	0.5971	0.118
Mof_N 	N 	0.1876	0.0237	0.7423	-0.154
Mof_N 	N 	0.1263	0.8801	0.6622	-0.156
Mof_Cd	Cd	0.44041	0.44041	-0	0.376
Mof_Cd	Cd	0.55959	0.55959	0.5	0.382
Mof_Cd	Cd	0.05959	0.94041	0.75	0.381
Mof_Cd	Cd	0.94041	0.05959	0.25	0.381
_end
