data_functionalizedCrystal
_audit_creation_method	'EQeq! by Chris Wilmer'
_symmetry_space_group_name_H-M	'P1'
_symmetry_Int_Tables_number	1
_symmetry_cell_setting	triclinic
loop_
_symmetry_equiv_pos_as_xyz
  x,y,z
_cell_length_a	27.6922
_cell_length_b	27.6922
_cell_length_c	3.5492
_cell_angle_alpha	90
_cell_angle_beta	90
_cell_angle_gamma	90
loop_
_atom_site_label
_atom_site_type_symbol
_atom_site_fract_x
_atom_site_fract_y
_atom_site_fract_z
_atom_site_charge
Mof_Zn	Zn	0.28489	0.21388	0.8424	1.211
Mof_N 	N 	0.26	0.1464	0.774	-0.281
Mof_C 	C 	0.2803	0.1088	0.9295	0.106
Mof_H 	H 	0.3106	0.1103	0.0414	0.014
Mof_N 	N 	0.2541	0.0673	0.9171	-0.166
Mof_C 	C 	0.2153	0.1294	0.6445	0.056
Mof_O 	O 	0.2721	0.8584	0.623	-0.483
Mof_C 	C 	0.1787	0.1534	0.458	-0.139
Mof_H 	H 	0.1817	0.186	0.3992	0.061
Mof_O 	O 	0.3386	0.8589	0.294	-0.26
Mof_C 	C 	0.1375	0.1281	0.3611	0.066
Mof_C 	C 	0.0996	0.1497	0.17	-0.103
Mof_H 	H 	0.1019	0.1822	0.1079	0.081
Mof_C 	C 	0.0583	0.1245	0.069	-0.009
Mof_H 	H 	0.0334	0.1398	0.9405	0.027
Mof_C 	C 	0.0548	0.076	0.163	-0.039
Mof_H 	H 	0.0272	0.0586	0.0998	0.038
Mof_C 	C 	0.0924	0.0536	0.352	-0.075
Mof_H 	H 	0.09	0.021	0.4118	0.055
Mof_C 	C 	0.134	0.0792	0.4534	0.038
Mof_C 	C 	0.1706	0.0547	0.64	-0.127
Mof_H 	H 	0.1677	0.0221	0.6986	0.072
Mof_C 	C 	0.2116	0.0805	0.736	0.08
Mof_C 	C 	0.245	0.9455	0.309	0.126
Mof_H 	H 	0.2211	0.9247	0.3955	-0.001
Mof_C 	C 	0.2931	0.9311	0.31	-0.181
Mof_C 	C 	0.3287	0.9623	0.18	0.145
Mof_H 	H 	0.3609	0.9526	0.1816	0.01
Mof_C 	C 	0.3163	0.0079	0.049	-0.226
Mof_H 	H 	0.3401	0.0288	0.962	0.127
Mof_C 	C 	0.2682	0.0223	0.047	0.203
Mof_C 	C 	0.2325	0.9912	0.177	-0.216
Mof_H 	H 	0.2004	0.0008	0.1759	0.108
Mof_C 	C 	0.3012	0.88	0.451	0.491
Mof_O 	O 	0.2861	0.2476	0.355	-0.738
Mof_H 	H 	0.3092	0.2353	0.2304	0.15
Mof_O 	O 	0.3411	0.872	0.64	-0.207
Mof_Zn	Zn	0.71511	0.78612	0.8424	1.21
Mof_N 	N 	0.74	0.8536	0.774	-0.282
Mof_C 	C 	0.7197	0.8912	0.9295	0.105
Mof_H 	H 	0.6894	0.8897	0.0414	0.013
Mof_N 	N 	0.7459	0.9327	0.9171	-0.167
Mof_C 	C 	0.7847	0.8706	0.6445	0.055
Mof_O 	O 	0.7279	0.1416	0.623	-0.484
Mof_C 	C 	0.8213	0.8466	0.458	-0.14
Mof_H 	H 	0.8183	0.814	0.3992	0.06
Mof_O 	O 	0.6614	0.1411	0.294	-0.261
Mof_C 	C 	0.8625	0.8719	0.3611	0.065
Mof_C 	C 	0.9004	0.8503	0.17	-0.104
Mof_H 	H 	0.8981	0.8178	0.1079	0.08
Mof_C 	C 	0.9417	0.8755	0.069	-0.01
Mof_H 	H 	0.9666	0.8602	0.9405	0.026
Mof_C 	C 	0.9452	0.924	0.163	-0.04
Mof_H 	H 	0.9728	0.9414	0.0998	0.037
Mof_C 	C 	0.9076	0.9464	0.352	-0.076
Mof_H 	H 	0.91	0.979	0.4118	0.054
Mof_C 	C 	0.866	0.9208	0.4534	0.037
Mof_C 	C 	0.8294	0.9453	0.64	-0.127
Mof_H 	H 	0.8323	0.9779	0.6986	0.072
Mof_C 	C 	0.7884	0.9195	0.736	0.08
Mof_C 	C 	0.755	0.0545	0.309	0.126
Mof_H 	H 	0.7789	0.0753	0.3955	-0.001
Mof_C 	C 	0.7069	0.0689	0.31	-0.181
Mof_C 	C 	0.6713	0.0377	0.18	0.145
Mof_H 	H 	0.6391	0.0474	0.1816	0.01
Mof_C 	C 	0.6837	0.9921	0.049	-0.226
Mof_H 	H 	0.6599	0.9712	0.962	0.127
Mof_C 	C 	0.7318	0.9777	0.047	0.203
Mof_C 	C 	0.7675	0.0088	0.177	-0.216
Mof_H 	H 	0.7996	0.9992	0.1759	0.108
Mof_C 	C 	0.6988	0.12	0.451	0.491
Mof_O 	O 	0.7139	0.7524	0.355	-0.738
Mof_H 	H 	0.6908	0.7647	0.2304	0.15
Mof_O 	O 	0.6589	0.128	0.64	-0.207
Mof_Zn	Zn	0.71388	0.21511	0.6576	1.207
Mof_N 	N 	0.6464	0.24	0.726	-0.28
Mof_C 	C 	0.6088	0.2197	0.5705	0.095
Mof_H 	H 	0.6103	0.1894	0.4586	0.02
Mof_N 	N 	0.5673	0.2459	0.5829	-0.166
Mof_C 	C 	0.6294	0.2847	0.8555	0.045
Mof_O 	O 	0.3584	0.2279	0.877	-0.47
Mof_C 	C 	0.6534	0.3213	0.042	-0.127
Mof_H 	H 	0.686	0.3183	0.1008	0.059
Mof_O 	O 	0.3589	0.1614	0.206	-0.263
Mof_C 	C 	0.6281	0.3625	0.1389	0.059
Mof_C 	C 	0.6497	0.4004	0.33	-0.1
Mof_H 	H 	0.6822	0.3981	0.3921	0.08
Mof_C 	C 	0.6245	0.4417	0.431	-0.011
Mof_H 	H 	0.6398	0.4666	0.5595	0.025
Mof_C 	C 	0.576	0.4452	0.337	-0.038
Mof_H 	H 	0.5586	0.4728	0.4002	0.036
Mof_C 	C 	0.5536	0.4076	0.148	-0.079
Mof_H 	H 	0.521	0.41	0.0882	0.054
Mof_C 	C 	0.5792	0.366	0.0466	0.043
Mof_C 	C 	0.5547	0.3294	0.86	-0.135
Mof_H 	H 	0.5221	0.3323	0.8014	0.075
Mof_C 	C 	0.5805	0.2884	0.764	0.085
Mof_C 	C 	0.4455	0.255	0.191	0.121
Mof_H 	H 	0.4247	0.2789	0.1045	-0.002
Mof_C 	C 	0.4311	0.2069	0.19	-0.175
Mof_C 	C 	0.4623	0.1713	0.32	0.138
Mof_H 	H 	0.4526	0.1391	0.3184	0.011
Mof_C 	C 	0.5079	0.1837	0.451	-0.22
Mof_H 	H 	0.5288	0.1599	0.538	0.125
Mof_C 	C 	0.5223	0.2318	0.453	0.202
Mof_C 	C 	0.4912	0.2675	0.323	-0.214
Mof_H 	H 	0.5008	0.2996	0.3241	0.107
Mof_C 	C 	0.38	0.1988	0.049	0.471
Mof_O 	O 	0.7476	0.2139	0.145	-0.733
Mof_H 	H 	0.7353	0.1908	0.2696	0.152
Mof_O 	O 	0.372	0.1589	0.86	-0.196
Mof_Zn	Zn	0.28612	0.78489	0.6576	1.207
Mof_N 	N 	0.3536	0.76	0.726	-0.28
Mof_C 	C 	0.3912	0.7803	0.5705	0.095
Mof_H 	H 	0.3897	0.8106	0.4586	0.02
Mof_N 	N 	0.4327	0.7541	0.5829	-0.166
Mof_C 	C 	0.3706	0.7153	0.8555	0.045
Mof_O 	O 	0.6416	0.7721	0.877	-0.47
Mof_C 	C 	0.3466	0.6787	0.042	-0.127
Mof_H 	H 	0.314	0.6817	0.1008	0.059
Mof_O 	O 	0.6411	0.8386	0.206	-0.263
Mof_C 	C 	0.3719	0.6375	0.1389	0.059
Mof_C 	C 	0.3503	0.5996	0.33	-0.1
Mof_H 	H 	0.3178	0.6019	0.3921	0.08
Mof_C 	C 	0.3755	0.5583	0.431	-0.011
Mof_H 	H 	0.3602	0.5334	0.5595	0.025
Mof_C 	C 	0.424	0.5548	0.337	-0.038
Mof_H 	H 	0.4414	0.5272	0.4002	0.036
Mof_C 	C 	0.4464	0.5924	0.148	-0.079
Mof_H 	H 	0.479	0.59	0.0882	0.054
Mof_C 	C 	0.4208	0.634	0.0466	0.043
Mof_C 	C 	0.4453	0.6706	0.86	-0.135
Mof_H 	H 	0.4779	0.6677	0.8014	0.075
Mof_C 	C 	0.4195	0.7116	0.764	0.085
Mof_C 	C 	0.5545	0.745	0.191	0.121
Mof_H 	H 	0.5753	0.7211	0.1045	-0.002
Mof_C 	C 	0.5689	0.7931	0.19	-0.175
Mof_C 	C 	0.5377	0.8287	0.32	0.138
Mof_H 	H 	0.5474	0.8609	0.3184	0.011
Mof_C 	C 	0.4921	0.8163	0.451	-0.22
Mof_H 	H 	0.4712	0.8401	0.538	0.125
Mof_C 	C 	0.4777	0.7682	0.453	0.202
Mof_C 	C 	0.5088	0.7325	0.323	-0.214
Mof_H 	H 	0.4992	0.7004	0.3241	0.107
Mof_C 	C 	0.62	0.8012	0.049	0.471
Mof_O 	O 	0.2524	0.7861	0.145	-0.733
Mof_H 	H 	0.2647	0.8092	0.2696	0.152
Mof_O 	O 	0.628	0.8411	0.86	-0.196
Mof_Zn	Zn	0.78489	0.71388	0.3424	1.207
Mof_N 	N 	0.76	0.6464	0.274	-0.28
Mof_C 	C 	0.7803	0.6088	0.4295	0.095
Mof_H 	H 	0.8106	0.6103	0.5414	0.02
Mof_N 	N 	0.7541	0.5673	0.4171	-0.166
Mof_C 	C 	0.7153	0.6294	0.1445	0.045
Mof_O 	O 	0.7721	0.3584	0.123	-0.47
Mof_C 	C 	0.6787	0.6534	0.958	-0.127
Mof_H 	H 	0.6817	0.686	0.8992	0.059
Mof_O 	O 	0.8386	0.3589	0.794	-0.263
Mof_C 	C 	0.6375	0.6281	0.8611	0.059
Mof_C 	C 	0.5996	0.6497	0.67	-0.1
Mof_H 	H 	0.6019	0.6822	0.6079	0.08
Mof_C 	C 	0.5583	0.6245	0.569	-0.011
Mof_H 	H 	0.5334	0.6398	0.4405	0.025
Mof_C 	C 	0.5548	0.576	0.663	-0.038
Mof_H 	H 	0.5272	0.5586	0.5998	0.036
Mof_C 	C 	0.5924	0.5536	0.852	-0.079
Mof_H 	H 	0.59	0.521	0.9118	0.054
Mof_C 	C 	0.634	0.5792	0.9534	0.043
Mof_C 	C 	0.6706	0.5547	0.14	-0.135
Mof_H 	H 	0.6677	0.5221	0.1986	0.075
Mof_C 	C 	0.7116	0.5805	0.236	0.085
Mof_C 	C 	0.745	0.4455	0.809	0.121
Mof_H 	H 	0.7211	0.4247	0.8955	-0.002
Mof_C 	C 	0.7931	0.4311	0.81	-0.175
Mof_C 	C 	0.8287	0.4623	0.68	0.138
Mof_H 	H 	0.8609	0.4526	0.6816	0.011
Mof_C 	C 	0.8163	0.5079	0.549	-0.22
Mof_H 	H 	0.8401	0.5288	0.462	0.125
Mof_C 	C 	0.7682	0.5223	0.547	0.202
Mof_C 	C 	0.7325	0.4912	0.677	-0.214
Mof_H 	H 	0.7004	0.5008	0.6759	0.107
Mof_C 	C 	0.8012	0.38	0.951	0.471
Mof_O 	O 	0.7861	0.7476	0.855	-0.733
Mof_H 	H 	0.8092	0.7353	0.7304	0.152
Mof_O 	O 	0.8411	0.372	0.14	-0.196
Mof_Zn	Zn	0.21511	0.28612	0.3424	1.207
Mof_N 	N 	0.24	0.3536	0.274	-0.28
Mof_C 	C 	0.2197	0.3912	0.4295	0.095
Mof_H 	H 	0.1894	0.3897	0.5414	0.02
Mof_N 	N 	0.2459	0.4327	0.4171	-0.166
Mof_C 	C 	0.2847	0.3706	0.1445	0.045
Mof_O 	O 	0.2279	0.6416	0.123	-0.47
Mof_C 	C 	0.3213	0.3466	0.958	-0.127
Mof_H 	H 	0.3183	0.314	0.8992	0.059
Mof_O 	O 	0.1614	0.6411	0.794	-0.263
Mof_C 	C 	0.3625	0.3719	0.8611	0.059
Mof_C 	C 	0.4004	0.3503	0.67	-0.1
Mof_H 	H 	0.3981	0.3178	0.6079	0.08
Mof_C 	C 	0.4417	0.3755	0.569	-0.011
Mof_H 	H 	0.4666	0.3602	0.4405	0.025
Mof_C 	C 	0.4452	0.424	0.663	-0.038
Mof_H 	H 	0.4728	0.4414	0.5998	0.036
Mof_C 	C 	0.4076	0.4464	0.852	-0.079
Mof_H 	H 	0.41	0.479	0.9118	0.054
Mof_C 	C 	0.366	0.4208	0.9534	0.043
Mof_C 	C 	0.3294	0.4453	0.14	-0.135
Mof_H 	H 	0.3323	0.4779	0.1986	0.075
Mof_C 	C 	0.2884	0.4195	0.236	0.085
Mof_C 	C 	0.255	0.5545	0.809	0.121
Mof_H 	H 	0.2789	0.5753	0.8955	-0.002
Mof_C 	C 	0.2069	0.5689	0.81	-0.175
Mof_C 	C 	0.1713	0.5377	0.68	0.138
Mof_H 	H 	0.1391	0.5474	0.6816	0.011
Mof_C 	C 	0.1837	0.4921	0.549	-0.22
Mof_H 	H 	0.1599	0.4712	0.462	0.125
Mof_C 	C 	0.2318	0.4777	0.547	0.202
Mof_C 	C 	0.2675	0.5088	0.677	-0.214
Mof_H 	H 	0.2996	0.4992	0.6759	0.107
Mof_C 	C 	0.1988	0.62	0.951	0.471
Mof_O 	O 	0.2139	0.2524	0.855	-0.733
Mof_H 	H 	0.1908	0.2647	0.7304	0.152
Mof_O 	O 	0.1589	0.628	0.14	-0.196
Mof_Zn	Zn	0.21388	0.71511	0.1576	1.21
Mof_N 	N 	0.1464	0.74	0.226	-0.282
Mof_C 	C 	0.1088	0.7197	0.0705	0.105
Mof_H 	H 	0.1103	0.6894	0.9586	0.013
Mof_N 	N 	0.0673	0.7459	0.0829	-0.167
Mof_C 	C 	0.1294	0.7847	0.3555	0.055
Mof_O 	O 	0.8584	0.7279	0.377	-0.484
Mof_C 	C 	0.1534	0.8213	0.542	-0.14
Mof_H 	H 	0.186	0.8183	0.6008	0.06
Mof_O 	O 	0.8589	0.6614	0.706	-0.261
Mof_C 	C 	0.1281	0.8625	0.6389	0.065
Mof_C 	C 	0.1497	0.9004	0.83	-0.104
Mof_H 	H 	0.1822	0.8981	0.8921	0.08
Mof_C 	C 	0.1245	0.9417	0.931	-0.01
Mof_H 	H 	0.1398	0.9666	0.0595	0.026
Mof_C 	C 	0.076	0.9452	0.837	-0.04
Mof_H 	H 	0.0586	0.9728	0.9002	0.037
Mof_C 	C 	0.0536	0.9076	0.648	-0.076
Mof_H 	H 	0.021	0.91	0.5882	0.054
Mof_C 	C 	0.0792	0.866	0.5466	0.037
Mof_C 	C 	0.0547	0.8294	0.36	-0.127
Mof_H 	H 	0.0221	0.8323	0.3014	0.072
Mof_C 	C 	0.0805	0.7884	0.264	0.08
Mof_C 	C 	0.9455	0.755	0.691	0.126
Mof_H 	H 	0.9247	0.7789	0.6045	-0.001
Mof_C 	C 	0.9311	0.7069	0.69	-0.181
Mof_C 	C 	0.9623	0.6713	0.82	0.145
Mof_H 	H 	0.9526	0.6391	0.8184	0.01
Mof_C 	C 	0.0079	0.6837	0.951	-0.226
Mof_H 	H 	0.0288	0.6599	0.038	0.127
Mof_C 	C 	0.0223	0.7318	0.953	0.203
Mof_C 	C 	0.9912	0.7675	0.823	-0.216
Mof_H 	H 	0.0008	0.7996	0.8241	0.108
Mof_C 	C 	0.88	0.6988	0.549	0.491
Mof_O 	O 	0.2476	0.7139	0.645	-0.738
Mof_H 	H 	0.2353	0.6908	0.7696	0.15
Mof_O 	O 	0.872	0.6589	0.36	-0.207
Mof_Zn	Zn	0.78612	0.28489	0.1576	1.21
Mof_N 	N 	0.8536	0.26	0.226	-0.282
Mof_C 	C 	0.8912	0.2803	0.0705	0.105
Mof_H 	H 	0.8897	0.3106	0.9586	0.013
Mof_N 	N 	0.9327	0.2541	0.0829	-0.167
Mof_C 	C 	0.8706	0.2153	0.3555	0.055
Mof_O 	O 	0.1416	0.2721	0.377	-0.484
Mof_C 	C 	0.8466	0.1787	0.542	-0.14
Mof_H 	H 	0.814	0.1817	0.6008	0.06
Mof_O 	O 	0.1411	0.3386	0.706	-0.261
Mof_C 	C 	0.8719	0.1375	0.6389	0.065
Mof_C 	C 	0.8503	0.0996	0.83	-0.104
Mof_H 	H 	0.8178	0.1019	0.8921	0.08
Mof_C 	C 	0.8755	0.0583	0.931	-0.01
Mof_H 	H 	0.8602	0.0334	0.0595	0.026
Mof_C 	C 	0.924	0.0548	0.837	-0.04
Mof_H 	H 	0.9414	0.0272	0.9002	0.037
Mof_C 	C 	0.9464	0.0924	0.648	-0.076
Mof_H 	H 	0.979	0.09	0.5882	0.054
Mof_C 	C 	0.9208	0.134	0.5466	0.037
Mof_C 	C 	0.9453	0.1706	0.36	-0.127
Mof_H 	H 	0.9779	0.1677	0.3014	0.072
Mof_C 	C 	0.9195	0.2116	0.264	0.08
Mof_C 	C 	0.0545	0.245	0.691	0.126
Mof_H 	H 	0.0753	0.2211	0.6045	-0.001
Mof_C 	C 	0.0689	0.2931	0.69	-0.181
Mof_C 	C 	0.0377	0.3287	0.82	0.145
Mof_H 	H 	0.0474	0.3609	0.8184	0.01
Mof_C 	C 	0.9921	0.3163	0.951	-0.226
Mof_H 	H 	0.9712	0.3401	0.038	0.127
Mof_C 	C 	0.9777	0.2682	0.953	0.203
Mof_C 	C 	0.0088	0.2325	0.823	-0.216
Mof_H 	H 	0.9992	0.2004	0.8241	0.108
Mof_C 	C 	0.12	0.3012	0.549	0.491
Mof_O 	O 	0.7524	0.2861	0.645	-0.738
Mof_H 	H 	0.7647	0.3092	0.7696	0.15
Mof_O 	O 	0.128	0.3411	0.36	-0.207
_end
