data_functionalizedCrystal
_audit_creation_method	'EQeq! by Chris Wilmer'
_symmetry_space_group_name_H-M	'P1'
_symmetry_Int_Tables_number	1
_symmetry_cell_setting	triclinic
loop_
_symmetry_equiv_pos_as_xyz
  x,y,z
_cell_length_a	15.661
_cell_length_b	15.661
_cell_length_c	15.661
_cell_angle_alpha	90
_cell_angle_beta	90
_cell_angle_gamma	90
loop_
_atom_site_label
_atom_site_type_symbol
_atom_site_fract_x
_atom_site_fract_y
_atom_site_fract_z
_atom_site_charge
Mof_N 	N 	0.2401	0.3784	0.0844	-0.153
Mof_C 	C 	0.2317	0.3233	0.1237	-0.009
Mof_N 	N 	0.7599	0.6216	0.0844	-0.149
Mof_C 	C 	0.7683	0.6767	0.1237	0.003
Mof_N 	N 	0.7599	0.3784	0.9156	-0.134
Mof_C 	C 	0.7683	0.3233	0.8763	0.015
Mof_N 	N 	0.2401	0.6216	0.9156	-0.136
Mof_C 	C 	0.2317	0.6767	0.8763	0.009
Mof_N 	N 	0.0844	0.2401	0.3784	-0.152
Mof_C 	C 	0.1237	0.2317	0.3233	-0.009
Mof_N 	N 	0.0844	0.7599	0.6216	-0.149
Mof_C 	C 	0.1237	0.7683	0.6767	0.003
Mof_N 	N 	0.9156	0.7599	0.3784	-0.134
Mof_C 	C 	0.8763	0.7683	0.3233	0.015
Mof_N 	N 	0.9156	0.2401	0.6216	-0.136
Mof_C 	C 	0.8763	0.2317	0.6767	0.009
Mof_N 	N 	0.3784	0.0844	0.2401	-0.152
Mof_C 	C 	0.3233	0.1237	0.2317	-0.009
Mof_N 	N 	0.6216	0.0844	0.7599	-0.149
Mof_C 	C 	0.6767	0.1237	0.7683	0.003
Mof_N 	N 	0.3784	0.9156	0.7599	-0.134
Mof_C 	C 	0.3233	0.8763	0.7683	0.015
Mof_N 	N 	0.6216	0.9156	0.2401	-0.136
Mof_C 	C 	0.6767	0.8763	0.2317	0.009
Mof_N 	N 	0.8784	0.7401	0.5844	-0.134
Mof_C 	C 	0.8233	0.7317	0.6237	0.016
Mof_N 	N 	0.1216	0.2599	0.5844	-0.151
Mof_C 	C 	0.1767	0.2683	0.6237	-0.005
Mof_N 	N 	0.8784	0.2599	0.4156	-0.136
Mof_C 	C 	0.8233	0.2683	0.3763	0.005
Mof_N 	N 	0.1216	0.7401	0.4156	-0.149
Mof_C 	C 	0.1767	0.7317	0.3763	0.001
Mof_N 	N 	0.7401	0.5844	0.8784	-0.134
Mof_C 	C 	0.7317	0.6237	0.8233	0.016
Mof_N 	N 	0.2599	0.5844	0.1216	-0.151
Mof_C 	C 	0.2683	0.6237	0.1767	-0.005
Mof_N 	N 	0.2599	0.4156	0.8784	-0.136
Mof_C 	C 	0.2683	0.3763	0.8233	0.005
Mof_N 	N 	0.7401	0.4156	0.1216	-0.149
Mof_C 	C 	0.7317	0.3763	0.1767	0.001
Mof_N 	N 	0.5844	0.8784	0.7401	-0.134
Mof_C 	C 	0.6237	0.8233	0.7317	0.016
Mof_N 	N 	0.5844	0.1216	0.2599	-0.151
Mof_C 	C 	0.6237	0.1767	0.2683	-0.005
Mof_N 	N 	0.4156	0.8784	0.2599	-0.136
Mof_C 	C 	0.3763	0.8233	0.2683	0.005
Mof_N 	N 	0.4156	0.1216	0.7401	-0.149
Mof_C 	C 	0.3763	0.1767	0.7317	0.001
Mof_Cd	Cd	0.25	0.5	-0	0.291
Mof_Cd	Cd	0.75	0.5	-0	0.303
Mof_Cd	Cd	-4.69722e-33	0.25	0.5	0.291
Mof_Cd	Cd	-1.12691e-32	0.75	0.5	0.303
Mof_Cd	Cd	0.5	0	0.25	0.291
Mof_Cd	Cd	0.5	-6.57192e-33	0.75	0.303
Mof_Cd	Cd	-0	0	-0	0.18
Mof_Cd	Cd	0.5	0.5	0.5	0.29
Mof_Cd	Cd	0.20754	0.20754	0.20754	0.248
Mof_C 	C 	0.08127	0.08127	0.08127	-0.097
Mof_C 	C 	0.1252	0.1252	0.1252	-0.081
Mof_Cd	Cd	0.79246	0.79246	0.20754	0.267
Mof_C 	C 	0.91873	0.91873	0.08127	-0.025
Mof_C 	C 	0.8748	0.8748	0.1252	-0.073
Mof_Cd	Cd	0.79246	0.20754	0.79246	0.267
Mof_C 	C 	0.91873	0.08127	0.91873	-0.025
Mof_C 	C 	0.8748	0.1252	0.8748	-0.073
Mof_Cd	Cd	0.20754	0.79246	0.79246	0.267
Mof_C 	C 	0.08127	0.91873	0.91873	-0.025
Mof_C 	C 	0.1252	0.8748	0.8748	-0.073
Mof_Cd	Cd	0.70754	0.70754	0.70754	0.27
Mof_C 	C 	0.58127	0.58127	0.58127	-0.07
Mof_C 	C 	0.6252	0.6252	0.6252	-0.064
Mof_Cd	Cd	0.29246	0.29246	0.70754	0.257
Mof_C 	C 	0.41873	0.41873	0.58127	-0.072
Mof_C 	C 	0.3748	0.3748	0.6252	-0.067
Mof_Cd	Cd	0.70754	0.29246	0.29246	0.257
Mof_C 	C 	0.58127	0.41873	0.41873	-0.072
Mof_C 	C 	0.6252	0.3748	0.3748	-0.067
Mof_Cd	Cd	0.29246	0.70754	0.29246	0.257
Mof_C 	C 	0.41873	0.58127	0.41873	-0.072
Mof_C 	C 	0.3748	0.6252	0.3748	-0.067
_end
