data_functionalizedCrystal
_audit_creation_method	'EQeq! by Chris Wilmer'
_symmetry_space_group_name_H-M	'P1'
_symmetry_Int_Tables_number	1
_symmetry_cell_setting	triclinic
loop_
_symmetry_equiv_pos_as_xyz
  x,y,z
_cell_length_a	15.4375
_cell_length_b	15.4375
_cell_length_c	12.2848
_cell_angle_alpha	90
_cell_angle_beta	90
_cell_angle_gamma	90
loop_
_atom_site_label
_atom_site_type_symbol
_atom_site_fract_x
_atom_site_fract_y
_atom_site_fract_z
_atom_site_charge
Mof_O 	O 	0.614	0.3806	0.6173	-0.865
Mof_O 	O 	0.591	0.2909	0.7508	-0.803
Mof_C 	C 	0.5833	0.3637	0.7085	0.73
Mof_C 	C 	0.53734	0.43096	0.7673	-0.296
Mof_C 	C 	0.53734	0.43096	0.8812	0.064
Mof_H 	H 	0.5654	0.3792	0.9239	0.017
Mof_O 	O 	0.114	0.8806	0.1173	-0.824
Mof_O 	O 	0.091	0.7909	0.2508	-0.792
Mof_C 	C 	0.0833	0.8637	0.2085	0.706
Mof_C 	C 	0.03734	0.93096	0.2673	-0.299
Mof_C 	C 	0.03734	0.93096	0.3812	0.128
Mof_H 	H 	0.0654	0.8792	0.4239	-0.028
Mof_O 	O 	0.886	0.1194	0.1173	-0.83
Mof_O 	O 	0.909	0.2091	0.2508	-0.793
Mof_C 	C 	0.9167	0.1363	0.2085	0.707
Mof_C 	C 	0.96266	0.06904	0.2673	-0.311
Mof_C 	C 	0.96266	0.06904	0.3812	0.115
Mof_H 	H 	0.9346	0.1208	0.4239	-0.027
Mof_O 	O 	0.386	0.6194	0.6173	-0.865
Mof_O 	O 	0.409	0.7091	0.7508	-0.8
Mof_C 	C 	0.4167	0.6363	0.7085	0.73
Mof_C 	C 	0.46266	0.56904	0.7673	-0.295
Mof_C 	C 	0.46266	0.56904	0.8812	0.064
Mof_H 	H 	0.4346	0.6208	0.9239	0.019
Mof_O 	O 	0.6194	0.114	0.8673	-0.937
Mof_O 	O 	0.7091	0.091	0.0008	-0.914
Mof_C 	C 	0.6363	0.0833	0.9585	1.048
Mof_C 	C 	0.56904	0.03734	0.0173	-0.721
Mof_C 	C 	0.56904	0.03734	0.1312	0.306
Mof_H 	H 	0.6208	0.0654	0.1739	-0.084
Mof_O 	O 	0.1194	0.614	0.3673	-0.866
Mof_O 	O 	0.2091	0.591	0.5008	-0.806
Mof_C 	C 	0.1363	0.5833	0.4585	0.74
Mof_C 	C 	0.06904	0.53734	0.5173	-0.342
Mof_C 	C 	0.06904	0.53734	0.6312	0.142
Mof_H 	H 	0.1208	0.5654	0.6739	-0.033
Mof_O 	O 	0.8806	0.386	0.3673	-0.863
Mof_O 	O 	0.7909	0.409	0.5008	-0.804
Mof_C 	C 	0.8637	0.4167	0.4585	0.739
Mof_C 	C 	0.93096	0.46266	0.5173	-0.335
Mof_C 	C 	0.93096	0.46266	0.6312	0.15
Mof_H 	H 	0.8792	0.4346	0.6739	-0.033
Mof_O 	O 	0.3806	0.886	0.8673	-0.931
Mof_O 	O 	0.2909	0.909	0.0008	-0.913
Mof_C 	C 	0.3637	0.9167	0.9585	1.054
Mof_C 	C 	0.43096	0.96266	0.0173	-0.706
Mof_C 	C 	0.43096	0.96266	0.1312	0.327
Mof_H 	H 	0.3792	0.9346	0.1739	-0.085
Mof_O 	O 	0.886	0.3806	0.1327	-0.773
Mof_O 	O 	0.909	0.2909	0.9992	-0.582
Mof_C 	C 	0.9167	0.3637	0.0415	0.373
Mof_C 	C 	0.96266	0.43096	0.9827	0.108
Mof_C 	C 	0.96266	0.43096	0.8688	-0.095
Mof_H 	H 	0.9346	0.3792	0.8261	0.039
Mof_O 	O 	0.386	0.8806	0.6327	-0.864
Mof_O 	O 	0.409	0.7909	0.4992	-0.803
Mof_C 	C 	0.4167	0.8637	0.5415	0.73
Mof_C 	C 	0.46266	0.93096	0.4827	-0.29
Mof_C 	C 	0.46266	0.93096	0.3688	0.102
Mof_H 	H 	0.4346	0.8792	0.3261	-0.021
Mof_O 	O 	0.614	0.1194	0.6327	-0.872
Mof_O 	O 	0.591	0.2091	0.4992	-0.806
Mof_C 	C 	0.5833	0.1363	0.5415	0.732
Mof_C 	C 	0.53734	0.06904	0.4827	-0.31
Mof_C 	C 	0.53734	0.06904	0.3688	0.082
Mof_H 	H 	0.5654	0.1208	0.3261	-0.02
Mof_O 	O 	0.114	0.6194	0.1327	-0.776
Mof_O 	O 	0.091	0.7091	0.9992	-0.581
Mof_C 	C 	0.0833	0.6363	0.0415	0.373
Mof_C 	C 	0.03734	0.56904	0.9827	0.102
Mof_C 	C 	0.03734	0.56904	0.8688	-0.103
Mof_H 	H 	0.0654	0.6208	0.8261	0.04
Mof_O 	O 	0.8806	0.114	0.8827	-0.77
Mof_O 	O 	0.7909	0.091	0.7492	-0.791
Mof_C 	C 	0.8637	0.0833	0.7915	0.703
Mof_C 	C 	0.93096	0.03734	0.7327	-0.29
Mof_C 	C 	0.93096	0.03734	0.6188	0.107
Mof_H 	H 	0.8792	0.0654	0.5761	-0.025
Mof_O 	O 	0.3806	0.614	0.3827	-0.871
Mof_O 	O 	0.2909	0.591	0.2492	-0.81
Mof_C 	C 	0.3637	0.5833	0.2915	0.746
Mof_C 	C 	0.43096	0.53734	0.2327	-0.361
Mof_C 	C 	0.43096	0.53734	0.1188	0.158
Mof_H 	H 	0.3792	0.5654	0.0761	-0.067
Mof_O 	O 	0.6194	0.386	0.3827	-0.871
Mof_O 	O 	0.7091	0.409	0.2492	-0.809
Mof_C 	C 	0.6363	0.4167	0.2915	0.746
Mof_C 	C 	0.56904	0.46266	0.2327	-0.361
Mof_C 	C 	0.56904	0.46266	0.1188	0.158
Mof_H 	H 	0.6208	0.4346	0.0761	-0.066
Mof_O 	O 	0.1194	0.886	0.8827	-0.763
Mof_O 	O 	0.2091	0.909	0.7492	-0.786
Mof_C 	C 	0.1363	0.9167	0.7915	0.701
Mof_C 	C 	0.06904	0.96266	0.7327	-0.275
Mof_C 	C 	0.06904	0.96266	0.6188	0.121
Mof_H 	H 	0.1208	0.9346	0.5761	-0.025
Mof_In	In	0.6837	0.3163	0.5	3.087
Mof_In	In	0.1837	0.8163	-0	2.741
Mof_In	In	0.8163	0.1837	-0	2.742
Mof_In	In	0.3163	0.6837	0.5	3.089
Mof_In	In	0.6837	0.1837	0.75	3.146
Mof_In	In	0.1837	0.6837	0.25	3.028
Mof_In	In	0.8163	0.3163	0.25	3.028
Mof_In	In	0.3163	0.8163	0.75	3.153
Mof_O 	O 	0.758	0.25	0.625	-1.216
Mof_H 	H 	0.8163	0.25	0.625	0.365
Mof_O 	O 	0.258	0.75	0.125	-1.161
Mof_H 	H 	0.3163	0.75	0.125	0.34
Mof_O 	O 	0.742	0.25	0.125	-1.161
Mof_H 	H 	0.6837	0.25	0.125	0.339
Mof_O 	O 	0.242	0.75	0.625	-1.217
Mof_H 	H 	0.1837	0.75	0.625	0.366
Mof_O 	O 	0.75	0.258	0.875	-1.139
Mof_H 	H 	0.75	0.3163	0.875	0.363
Mof_O 	O 	0.25	0.758	0.375	-1.199
Mof_H 	H 	0.25	0.8163	0.375	0.363
Mof_O 	O 	0.75	0.242	0.375	-1.199
Mof_H 	H 	0.75	0.1837	0.375	0.361
Mof_O 	O 	0.25	0.742	0.875	-1.139
Mof_H 	H 	0.25	0.6837	0.875	0.362
Mof_C 	C 	0.5	0.5	0.7104	0.199
Mof_C 	C 	0.5	0.5	0.9381	0.06
Mof_H 	H 	0.5	0.5	0.6249	-0.013
Mof_C 	C 	6.27767e-34	0	0.2104	0.171
Mof_C 	C 	1.30715e-33	0	0.4381	-0.108
Mof_H 	H 	-7.05138e-34	-1.0778e-33	0.1249	-0.033
Mof_C 	C 	0.5	-8.6224e-33	0.9604	0.631
Mof_C 	C 	0.5	-1.0778e-33	0.1881	-0.25
Mof_H 	H 	0.5	0	0.8749	-0.125
Mof_C 	C 	-7.24872e-33	0.5	0.4604	0.222
Mof_C 	C 	-1.51917e-32	0.5	0.6881	-0.145
Mof_H 	H 	-9.65942e-33	0.5	0.3749	-0.028
Mof_C 	C 	-4.73195e-33	0.5	0.0396	-0.253
Mof_C 	C 	-6.19995e-33	0.5	0.8119	0.079
Mof_H 	H 	-5.01574e-33	0.5	0.1251	0.094
Mof_C 	C 	0.5	0	0.5396	0.177
Mof_C 	C 	0.5	2.1556e-33	0.3119	-0.046
Mof_H 	H 	0.5	0	0.6251	-0.01
Mof_C 	C 	-1.95529e-33	-4.3112e-33	0.7896	0.159
Mof_C 	C 	1.67653e-33	0	0.5619	-0.1
Mof_H 	H 	2.61102e-33	0	0.8751	0.008
Mof_C 	C 	0.5	0.5	0.2896	0.242
Mof_C 	C 	0.5	0.5	0.0619	-0.216
Mof_H 	H 	0.5	0.5	0.3751	-0.026
_end
