data_functionalizedCrystal
_audit_creation_method	'EQeq! by Chris Wilmer'
_symmetry_space_group_name_H-M	'P1'
_symmetry_Int_Tables_number	1
_symmetry_cell_setting	triclinic
loop_
_symmetry_equiv_pos_as_xyz
  x,y,z
_cell_length_a	24.6661
_cell_length_b	24.6661
_cell_length_c	24.6661
_cell_angle_alpha	109.471
_cell_angle_beta	109.471
_cell_angle_gamma	109.471
loop_
_atom_site_label
_atom_site_type_symbol
_atom_site_fract_x
_atom_site_fract_y
_atom_site_fract_z
_atom_site_charge
Mof_Ni	Ni	0.0802	0.08945	0.40686	1.136
Mof_Ni	Ni	0.68259	0.67334	0.59313	1.136
Mof_Ni	Ni	0.31741	0.91055	0.99075	1.129
Mof_Ni	Ni	0.9198	0.32666	0.00926	1.137
Mof_Ni	Ni	0.99075	0.31741	0.91055	1.129
Mof_Ni	Ni	0.00925	0.91979	0.32666	1.137
Mof_Ni	Ni	0.40686	0.0802	0.08945	1.137
Mof_Ni	Ni	0.59314	0.6826	0.67334	1.137
Mof_Ni	Ni	0.67334	0.59314	0.68259	1.137
Mof_Ni	Ni	0.08946	0.40687	0.08021	1.137
Mof_Ni	Ni	0.32666	0.00925	0.9198	1.138
Mof_Ni	Ni	0.91054	0.99074	0.3174	1.13
Mof_H 	H 	0.1828	0.1093	0.5943	0.033
Mof_H 	H 	0.2422	0.1126	0.6942	0.065
Mof_H 	H 	0.2099	0.9335	0.594	0.068
Mof_H 	H 	0.1481	0.9265	0.4924	0.031
Mof_H 	H 	0.301	0.1175	0.7797	0.079
Mof_H 	H 	0.3386	0.1115	0.8727	0.003
Mof_H 	H 	0.2625	0.9215	0.7742	0.013
Mof_H 	H 	0.222	0.9189	0.6725	0.075
Mof_H 	H 	0.1281	0.9203	0.2326	0.063
Mof_H 	H 	0.1657	0.8693	0.1596	0.062
Mof_H 	H 	0.2218	0.1202	0.3436	0.046
Mof_H 	H 	0.515	0.5885	0.4057	0.032
Mof_H 	H 	0.4184	0.548	0.3058	0.064
Mof_H 	H 	0.3395	0.6159	0.406	0.065
Mof_H 	H 	0.4341	0.6557	0.5076	0.028
Mof_H 	H 	0.3378	0.5213	0.2203	0.078
Mof_H 	H 	0.2388	0.4659	0.1273	0.006
Mof_H 	H 	0.1473	0.4883	0.2258	0.012
Mof_H 	H 	0.2464	0.5495	0.3275	0.072
Mof_H 	H 	0.6877	0.8955	0.7674	0.046
Mof_H 	H 	0.7097	0.0061	0.8404	0.048
Mof_H 	H 	0.7766	0.8782	0.6564	0.034
Mof_H 	H 	0.485	0.8907	0.0735	0.034
Mof_H 	H 	0.5816	0.8874	0.1296	0.063
Mof_H 	H 	0.6605	0.0665	0.2764	0.062
Mof_H 	H 	0.5659	0.0735	0.2216	0.027
Mof_H 	H 	0.6622	0.8825	0.1835	0.078
Mof_H 	H 	0.7612	0.8885	0.2271	0.006
Mof_H 	H 	0.8527	0.0785	0.341	0.009
Mof_H 	H 	0.7536	0.0811	0.3031	0.07
Mof_H 	H 	0.3123	0.0797	0.2078	0.055
Mof_H 	H 	0.2903	0.1307	0.2964	0.061
Mof_H 	H 	0.2234	0.8798	0.1016	0.045
Mof_H 	H 	0.8172	0.4115	0.9265	0.03
Mof_H 	H 	0.7578	0.452	0.8704	0.063
Mof_H 	H 	0.7901	0.3841	0.7236	0.065
Mof_H 	H 	0.8519	0.3443	0.7784	0.027
Mof_H 	H 	0.699	0.4787	0.8165	0.077
Mof_H 	H 	0.6614	0.5341	0.7729	0.005
Mof_H 	H 	0.7375	0.5117	0.659	0.011
Mof_H 	H 	0.778	0.4505	0.6969	0.071
Mof_H 	H 	0.8719	0.1045	0.7922	0.069
Mof_H 	H 	0.8343	0.9939	0.7036	0.071
Mof_H 	H 	0.7782	0.1218	0.8984	0.053
Mof_H 	H 	0.0735	0.485	0.8907	0.034
Mof_H 	H 	0.1296	0.5816	0.8874	0.063
Mof_H 	H 	0.2764	0.6605	0.0665	0.062
Mof_H 	H 	0.2216	0.5659	0.0735	0.027
Mof_H 	H 	0.1835	0.6622	0.8825	0.078
Mof_H 	H 	0.2271	0.7612	0.8885	0.006
Mof_H 	H 	0.341	0.8527	0.0785	0.009
Mof_H 	H 	0.3031	0.7536	0.0811	0.07
Mof_H 	H 	0.2078	0.3123	0.0797	0.055
Mof_H 	H 	0.2964	0.2903	0.1307	0.061
Mof_H 	H 	0.1016	0.2234	0.8798	0.045
Mof_H 	H 	0.9265	0.8172	0.4115	0.03
Mof_H 	H 	0.8704	0.7578	0.452	0.063
Mof_H 	H 	0.7236	0.7901	0.3841	0.065
Mof_H 	H 	0.7784	0.8519	0.3443	0.027
Mof_H 	H 	0.8165	0.699	0.4787	0.077
Mof_H 	H 	0.7729	0.6614	0.5341	0.005
Mof_H 	H 	0.659	0.7375	0.5117	0.011
Mof_H 	H 	0.6969	0.778	0.4505	0.071
Mof_H 	H 	0.7922	0.8719	0.1045	0.069
Mof_H 	H 	0.7036	0.8343	0.9939	0.071
Mof_H 	H 	0.8984	0.7782	0.1218	0.053
Mof_H 	H 	0.5943	0.1828	0.1093	0.033
Mof_H 	H 	0.6942	0.2422	0.1126	0.065
Mof_H 	H 	0.594	0.2099	0.9335	0.068
Mof_H 	H 	0.4924	0.1481	0.9265	0.031
Mof_H 	H 	0.7797	0.301	0.1175	0.079
Mof_H 	H 	0.8727	0.3386	0.1115	0.003
Mof_H 	H 	0.7742	0.2625	0.9215	0.013
Mof_H 	H 	0.6725	0.222	0.9189	0.075
Mof_H 	H 	0.2326	0.1281	0.9203	0.063
Mof_H 	H 	0.1596	0.1657	0.8693	0.062
Mof_H 	H 	0.3436	0.2218	0.1202	0.046
Mof_H 	H 	0.4057	0.515	0.5885	0.032
Mof_H 	H 	0.3058	0.4184	0.548	0.064
Mof_H 	H 	0.406	0.3395	0.6159	0.065
Mof_H 	H 	0.5076	0.4341	0.6557	0.028
Mof_H 	H 	0.2203	0.3378	0.5213	0.078
Mof_H 	H 	0.1273	0.2388	0.4659	0.006
Mof_H 	H 	0.2258	0.1473	0.4883	0.012
Mof_H 	H 	0.3275	0.2464	0.5495	0.072
Mof_H 	H 	0.7674	0.6877	0.8955	0.046
Mof_H 	H 	0.8404	0.7097	0.0061	0.048
Mof_H 	H 	0.6564	0.7766	0.8782	0.034
Mof_H 	H 	0.5885	0.4057	0.515	0.032
Mof_H 	H 	0.548	0.3058	0.4184	0.064
Mof_H 	H 	0.6159	0.406	0.3395	0.065
Mof_H 	H 	0.6557	0.5076	0.4341	0.028
Mof_H 	H 	0.5213	0.2203	0.3378	0.078
Mof_H 	H 	0.4659	0.1273	0.2388	0.006
Mof_H 	H 	0.4883	0.2258	0.1473	0.012
Mof_H 	H 	0.5495	0.3275	0.2464	0.072
Mof_H 	H 	0.8955	0.7674	0.6877	0.046
Mof_H 	H 	0.0061	0.8404	0.7097	0.048
Mof_H 	H 	0.8782	0.6564	0.7766	0.034
Mof_H 	H 	0.1093	0.5943	0.1828	0.033
Mof_H 	H 	0.1126	0.6942	0.2422	0.065
Mof_H 	H 	0.9335	0.594	0.2099	0.068
Mof_H 	H 	0.9265	0.4924	0.1481	0.031
Mof_H 	H 	0.1175	0.7797	0.301	0.079
Mof_H 	H 	0.1115	0.8727	0.3386	0.003
Mof_H 	H 	0.9215	0.7742	0.2625	0.013
Mof_H 	H 	0.9189	0.6725	0.222	0.075
Mof_H 	H 	0.9203	0.2326	0.1281	0.063
Mof_H 	H 	0.8693	0.1596	0.1657	0.062
Mof_H 	H 	0.1202	0.3436	0.2218	0.046
Mof_H 	H 	0.4115	0.9265	0.8172	0.03
Mof_H 	H 	0.452	0.8704	0.7578	0.063
Mof_H 	H 	0.3841	0.7236	0.7901	0.065
Mof_H 	H 	0.3443	0.7784	0.8519	0.027
Mof_H 	H 	0.4787	0.8165	0.699	0.077
Mof_H 	H 	0.5341	0.7729	0.6614	0.005
Mof_H 	H 	0.5117	0.659	0.7375	0.011
Mof_H 	H 	0.4505	0.6969	0.778	0.071
Mof_H 	H 	0.1045	0.7922	0.8719	0.069
Mof_H 	H 	0.9939	0.7036	0.8343	0.071
Mof_H 	H 	0.1218	0.8984	0.7782	0.053
Mof_H 	H 	0.8907	0.0735	0.485	0.034
Mof_H 	H 	0.8874	0.1296	0.5816	0.063
Mof_H 	H 	0.0665	0.2764	0.6605	0.062
Mof_H 	H 	0.0735	0.2216	0.5659	0.027
Mof_H 	H 	0.8825	0.1835	0.6622	0.078
Mof_H 	H 	0.8885	0.2271	0.7612	0.006
Mof_H 	H 	0.0785	0.341	0.8527	0.009
Mof_H 	H 	0.0811	0.3031	0.7536	0.07
Mof_H 	H 	0.0797	0.2078	0.3123	0.055
Mof_H 	H 	0.1307	0.2964	0.2903	0.061
Mof_H 	H 	0.8798	0.1016	0.2234	0.045
Mof_C 	C 	0.11786	0.01292	0.47056	0.414
Mof_C 	C 	0.15809	0.01632	0.53385	-0.118
Mof_C 	C 	0.1864	0.07179	0.59297	0.046
Mof_C 	C 	0.22153	0.07339	0.65288	-0.105
Mof_C 	C 	0.22593	0.01936	0.65189	0.058
Mof_C 	C 	0.20265	0.9692	0.59507	-0.123
Mof_C 	C 	0.16623	0.96522	0.53333	0.04
Mof_C 	C 	0.25336	0.01974	0.71612	0.074
Mof_C 	C 	0.29036	0.0754	0.77636	-0.149
Mof_C 	C 	0.31193	0.07103	0.8315	0.104
Mof_C 	C 	0.2685	0.9618	0.7749	0.073
Mof_C 	C 	0.2438	0.95906	0.71338	-0.138
Mof_C 	C 	0.11979	0.01033	0.31846	0.394
Mof_C 	C 	0.16646	0.01714	0.29012	-0.063
Mof_C 	C 	0.15982	0.96312	0.24458	-0.046
Mof_C 	C 	0.20035	0.96908	0.21335	0.018
Mof_C 	C 	0.19372	0.91181	0.16763	-0.081
Mof_C 	C 	0.21608	0.08177	0.31051	0.007
Mof_C 	C 	0.54236	0.6473	0.52944	0.402
Mof_C 	C 	0.48247	0.62424	0.46615	-0.129
Mof_C 	C 	0.47882	0.59343	0.40703	0.046
Mof_C 	C 	0.42051	0.56865	0.34712	-0.104
Mof_C 	C 	0.36747	0.57404	0.34811	0.045
Mof_C 	C 	0.37413	0.60758	0.40493	-0.109
Mof_C 	C 	0.43189	0.6329	0.46667	0.05
Mof_C 	C 	0.30362	0.53724	0.28388	0.065
Mof_C 	C 	0.29904	0.514	0.22364	-0.146
Mof_C 	C 	0.23953	0.48043	0.1685	0.099
Mof_C 	C 	0.1869	0.4936	0.2251	0.08
Mof_C 	C 	0.24568	0.53042	0.28662	-0.127
Mof_C 	C 	0.69187	0.80133	0.68154	0.39
Mof_C 	C 	0.72702	0.87634	0.70988	-0.1
Mof_C 	C 	0.71854	0.91524	0.75542	-0.001
Mof_C 	C 	0.75573	0.987	0.78665	-0.032
Mof_C 	C 	0.74418	0.02609	0.83237	-0.035
Mof_C 	C 	0.77126	0.90557	0.68949	0.037
Mof_C 	C 	0.45764	0.98708	0.10494	0.389
Mof_C 	C 	0.51753	0.98368	0.14177	-0.136
Mof_C 	C 	0.52118	0.92821	0.11461	0.044
Mof_C 	C 	0.57949	0.92661	0.14814	-0.1
Mof_C 	C 	0.63253	0.98064	0.20657	0.031
Mof_C 	C 	0.62587	0.0308	0.23345	-0.093
Mof_C 	C 	0.56811	0.03478	0.20101	0.058
Mof_C 	C 	0.69638	0.98026	0.23362	0.057
Mof_C 	C 	0.70096	0.9246	0.21496	-0.144
Mof_C 	C 	0.76047	0.92897	0.2409	0.096
Mof_C 	C 	0.8131	0.0382	0.3067	0.088
Mof_C 	C 	0.75432	0.04094	0.28474	-0.117
Mof_C 	C 	0.30813	0.98967	0.10946	0.371
Mof_C 	C 	0.27298	0.98286	0.14932	-0.087
Mof_C 	C 	0.28146	0.03688	0.1967	-0.016
Mof_C 	C 	0.24427	0.03092	0.23127	0.032
Mof_C 	C 	0.25582	0.08819	0.28191	-0.078
Mof_C 	C 	0.22874	0.91823	0.13431	0.012
Mof_C 	C 	0.88214	0.3527	0.89506	0.403
Mof_C 	C 	0.84191	0.37576	0.85823	-0.131
Mof_C 	C 	0.8136	0.40657	0.88539	0.046
Mof_C 	C 	0.77847	0.43135	0.85186	-0.106
Mof_C 	C 	0.77407	0.42596	0.79343	0.045
Mof_C 	C 	0.79735	0.39242	0.76655	-0.111
Mof_C 	C 	0.83377	0.3671	0.79899	0.051
Mof_C 	C 	0.74664	0.46276	0.76638	0.063
Mof_C 	C 	0.70964	0.486	0.78504	-0.146
Mof_C 	C 	0.68807	0.51957	0.7591	0.099
Mof_C 	C 	0.7315	0.5064	0.6933	0.08
Mof_C 	C 	0.7562	0.46958	0.71526	-0.127
Mof_C 	C 	0.88021	0.19867	0.89054	0.376
Mof_C 	C 	0.83354	0.12366	0.85068	-0.055
Mof_C 	C 	0.84018	0.08476	0.8033	-0.063
Mof_C 	C 	0.79965	0.013	0.76873	0.08
Mof_C 	C 	0.80628	0.97391	0.71809	-0.127
Mof_C 	C 	0.78392	0.09443	0.86569	-0.019
Mof_C 	C 	0.10494	0.45764	0.98708	0.389
Mof_C 	C 	0.14177	0.51753	0.98368	-0.136
Mof_C 	C 	0.11461	0.52118	0.92821	0.044
Mof_C 	C 	0.14814	0.57949	0.92661	-0.1
Mof_C 	C 	0.20657	0.63253	0.98064	0.031
Mof_C 	C 	0.23345	0.62587	0.0308	-0.093
Mof_C 	C 	0.20101	0.56811	0.03478	0.058
Mof_C 	C 	0.23362	0.69638	0.98026	0.057
Mof_C 	C 	0.21496	0.70096	0.9246	-0.144
Mof_C 	C 	0.2409	0.76047	0.92897	0.096
Mof_C 	C 	0.3067	0.8131	0.0382	0.088
Mof_C 	C 	0.28474	0.75432	0.04094	-0.117
Mof_C 	C 	0.10946	0.30813	0.98967	0.371
Mof_C 	C 	0.14932	0.27298	0.98286	-0.087
Mof_C 	C 	0.1967	0.28146	0.03688	-0.016
Mof_C 	C 	0.23127	0.24427	0.03092	0.032
Mof_C 	C 	0.28191	0.25582	0.08819	-0.078
Mof_C 	C 	0.13431	0.22874	0.91823	0.012
Mof_C 	C 	0.89506	0.88214	0.3527	0.403
Mof_C 	C 	0.85823	0.84191	0.37576	-0.131
Mof_C 	C 	0.88539	0.8136	0.40657	0.046
Mof_C 	C 	0.85186	0.77847	0.43135	-0.106
Mof_C 	C 	0.79343	0.77407	0.42596	0.045
Mof_C 	C 	0.76655	0.79735	0.39242	-0.111
Mof_C 	C 	0.79899	0.83377	0.3671	0.051
Mof_C 	C 	0.76638	0.74664	0.46276	0.063
Mof_C 	C 	0.78504	0.70964	0.486	-0.146
Mof_C 	C 	0.7591	0.68807	0.51957	0.099
Mof_C 	C 	0.6933	0.7315	0.5064	0.08
Mof_C 	C 	0.71526	0.7562	0.46958	-0.127
Mof_C 	C 	0.89054	0.88021	0.19867	0.376
Mof_C 	C 	0.85068	0.83354	0.12366	-0.055
Mof_C 	C 	0.8033	0.84018	0.08476	-0.063
Mof_C 	C 	0.76873	0.79965	0.013	0.08
Mof_C 	C 	0.71809	0.80628	0.97391	-0.127
Mof_C 	C 	0.86569	0.78392	0.09443	-0.019
Mof_C 	C 	0.47056	0.11786	0.01292	0.414
Mof_C 	C 	0.53385	0.15809	0.01632	-0.118
Mof_C 	C 	0.59297	0.1864	0.07179	0.046
Mof_C 	C 	0.65288	0.22153	0.07339	-0.105
Mof_C 	C 	0.65189	0.22593	0.01936	0.058
Mof_C 	C 	0.59507	0.20265	0.9692	-0.123
Mof_C 	C 	0.53333	0.16623	0.96522	0.04
Mof_C 	C 	0.71612	0.25336	0.01974	0.074
Mof_C 	C 	0.77636	0.29036	0.0754	-0.149
Mof_C 	C 	0.8315	0.31193	0.07103	0.104
Mof_C 	C 	0.7749	0.2685	0.9618	0.073
Mof_C 	C 	0.71338	0.2438	0.95906	-0.138
Mof_C 	C 	0.31846	0.11979	0.01033	0.394
Mof_C 	C 	0.29012	0.16646	0.01714	-0.063
Mof_C 	C 	0.24458	0.15982	0.96312	-0.046
Mof_C 	C 	0.21335	0.20035	0.96908	0.018
Mof_C 	C 	0.16763	0.19372	0.91181	-0.081
Mof_C 	C 	0.31051	0.21608	0.08177	0.007
Mof_C 	C 	0.52944	0.54236	0.6473	0.402
Mof_C 	C 	0.46615	0.48247	0.62424	-0.129
Mof_C 	C 	0.40703	0.47882	0.59343	0.046
Mof_C 	C 	0.34712	0.42051	0.56865	-0.104
Mof_C 	C 	0.34811	0.36747	0.57404	0.045
Mof_C 	C 	0.40493	0.37413	0.60758	-0.109
Mof_C 	C 	0.46667	0.43189	0.6329	0.05
Mof_C 	C 	0.28388	0.30362	0.53724	0.065
Mof_C 	C 	0.22364	0.29904	0.514	-0.146
Mof_C 	C 	0.1685	0.23953	0.48043	0.099
Mof_C 	C 	0.2251	0.1869	0.4936	0.08
Mof_C 	C 	0.28662	0.24568	0.53042	-0.127
Mof_C 	C 	0.68154	0.69187	0.80133	0.39
Mof_C 	C 	0.70988	0.72702	0.87634	-0.1
Mof_C 	C 	0.75542	0.71854	0.91524	-0.001
Mof_C 	C 	0.78665	0.75573	0.987	-0.032
Mof_C 	C 	0.83237	0.74418	0.02609	-0.035
Mof_C 	C 	0.68949	0.77126	0.90557	0.037
Mof_C 	C 	0.6473	0.52944	0.54236	0.402
Mof_C 	C 	0.62424	0.46615	0.48247	-0.129
Mof_C 	C 	0.59343	0.40703	0.47882	0.046
Mof_C 	C 	0.56865	0.34712	0.42051	-0.104
Mof_C 	C 	0.57404	0.34811	0.36747	0.045
Mof_C 	C 	0.60758	0.40493	0.37413	-0.109
Mof_C 	C 	0.6329	0.46667	0.43189	0.05
Mof_C 	C 	0.53724	0.28388	0.30362	0.065
Mof_C 	C 	0.514	0.22364	0.29904	-0.146
Mof_C 	C 	0.48043	0.1685	0.23953	0.099
Mof_C 	C 	0.4936	0.2251	0.1869	0.08
Mof_C 	C 	0.53042	0.28662	0.24568	-0.127
Mof_C 	C 	0.80133	0.68154	0.69187	0.39
Mof_C 	C 	0.87634	0.70988	0.72702	-0.1
Mof_C 	C 	0.91524	0.75542	0.71854	-0.001
Mof_C 	C 	0.987	0.78665	0.75573	-0.032
Mof_C 	C 	0.02609	0.83237	0.74418	-0.035
Mof_C 	C 	0.90557	0.68949	0.77126	0.037
Mof_C 	C 	0.01292	0.47056	0.11786	0.414
Mof_C 	C 	0.01632	0.53385	0.15809	-0.118
Mof_C 	C 	0.07179	0.59297	0.1864	0.046
Mof_C 	C 	0.07339	0.65288	0.22153	-0.105
Mof_C 	C 	0.01936	0.65189	0.22593	0.058
Mof_C 	C 	0.9692	0.59507	0.20265	-0.123
Mof_C 	C 	0.96522	0.53333	0.16623	0.04
Mof_C 	C 	0.01974	0.71612	0.25336	0.074
Mof_C 	C 	0.0754	0.77636	0.29036	-0.149
Mof_C 	C 	0.07103	0.8315	0.31193	0.104
Mof_C 	C 	0.9618	0.7749	0.2685	0.073
Mof_C 	C 	0.95906	0.71338	0.2438	-0.138
Mof_C 	C 	0.01033	0.31846	0.11979	0.394
Mof_C 	C 	0.01714	0.29012	0.16646	-0.063
Mof_C 	C 	0.96312	0.24458	0.15982	-0.046
Mof_C 	C 	0.96908	0.21335	0.20035	0.018
Mof_C 	C 	0.91181	0.16763	0.19372	-0.081
Mof_C 	C 	0.08177	0.31051	0.21608	0.007
Mof_C 	C 	0.3527	0.89506	0.88214	0.403
Mof_C 	C 	0.37576	0.85823	0.84191	-0.131
Mof_C 	C 	0.40657	0.88539	0.8136	0.046
Mof_C 	C 	0.43135	0.85186	0.77847	-0.106
Mof_C 	C 	0.42596	0.79343	0.77407	0.045
Mof_C 	C 	0.39242	0.76655	0.79735	-0.111
Mof_C 	C 	0.3671	0.79899	0.83377	0.051
Mof_C 	C 	0.46276	0.76638	0.74664	0.063
Mof_C 	C 	0.486	0.78504	0.70964	-0.146
Mof_C 	C 	0.51957	0.7591	0.68807	0.099
Mof_C 	C 	0.5064	0.6933	0.7315	0.08
Mof_C 	C 	0.46958	0.71526	0.7562	-0.127
Mof_C 	C 	0.19867	0.89054	0.88021	0.376
Mof_C 	C 	0.12366	0.85068	0.83354	-0.055
Mof_C 	C 	0.08476	0.8033	0.84018	-0.063
Mof_C 	C 	0.013	0.76873	0.79965	0.08
Mof_C 	C 	0.97391	0.71809	0.80628	-0.127
Mof_C 	C 	0.09443	0.86569	0.78392	-0.019
Mof_C 	C 	0.98708	0.10494	0.45764	0.389
Mof_C 	C 	0.98368	0.14177	0.51753	-0.136
Mof_C 	C 	0.92821	0.11461	0.52118	0.044
Mof_C 	C 	0.92661	0.14814	0.57949	-0.1
Mof_C 	C 	0.98064	0.20657	0.63253	0.031
Mof_C 	C 	0.0308	0.23345	0.62587	-0.093
Mof_C 	C 	0.03478	0.20101	0.56811	0.058
Mof_C 	C 	0.98026	0.23362	0.69638	0.057
Mof_C 	C 	0.9246	0.21496	0.70096	-0.144
Mof_C 	C 	0.92897	0.2409	0.76047	0.096
Mof_C 	C 	0.0382	0.3067	0.8131	0.088
Mof_C 	C 	0.04094	0.28474	0.75432	-0.117
Mof_C 	C 	0.98967	0.10946	0.30813	0.371
Mof_C 	C 	0.98286	0.14932	0.27298	-0.087
Mof_C 	C 	0.03688	0.1967	0.28146	-0.016
Mof_C 	C 	0.03092	0.23127	0.24427	0.032
Mof_C 	C 	0.08819	0.28191	0.25582	-0.078
Mof_C 	C 	0.91823	0.13431	0.22874	0.012
Mof_N 	N 	0.29967	0.01572	0.83393	-0.209
Mof_N 	N 	0.18179	0.46574	0.16607	-0.214
Mof_N 	N 	0.81821	0.98428	0.28395	-0.221
Mof_N 	N 	0.70033	0.53426	0.71605	-0.214
Mof_N 	N 	0.28395	0.81821	0.98428	-0.221
Mof_N 	N 	0.71605	0.70033	0.53426	-0.214
Mof_N 	N 	0.83393	0.29967	0.01572	-0.209
Mof_N 	N 	0.16607	0.18179	0.46574	-0.214
Mof_N 	N 	0.46574	0.16607	0.18179	-0.214
Mof_N 	N 	0.01572	0.83393	0.29967	-0.209
Mof_N 	N 	0.53426	0.71605	0.70033	-0.214
Mof_N 	N 	0.98428	0.28395	0.81821	-0.221
Mof_O 	O 	0.11724	0.06558	0.47686	-0.416
Mof_O 	O 	0.08809	0.95962	0.41939	-0.431
Mof_O 	O 	0.12996	0.0631	0.35962	-0.412
Mof_O 	O 	0.07448	0.953	0.2951	-0.413
Mof_O 	O 	0.58872	0.64038	0.52314	-0.415
Mof_O 	O 	0.54023	0.6687	0.58061	-0.421
Mof_O 	O 	0.70348	0.77034	0.64038	-0.414
Mof_O 	O 	0.6579	0.77938	0.7049	-0.407
Mof_O 	O 	0.41128	0.93442	0.05166	-0.409
Mof_O 	O 	0.45977	0.04038	0.12847	-0.41
Mof_O 	O 	0.29652	0.9369	0.06686	-0.406
Mof_O 	O 	0.3421	0.047	0.12148	-0.394
Mof_O 	O 	0.88276	0.35962	0.94834	-0.421
Mof_O 	O 	0.91191	0.3313	0.87153	-0.425
Mof_O 	O 	0.87004	0.22966	0.93314	-0.415
Mof_O 	O 	0.92552	0.22062	0.87852	-0.407
Mof_O 	O 	0.05166	0.41128	0.93442	-0.409
Mof_O 	O 	0.12847	0.45977	0.04038	-0.41
Mof_O 	O 	0.06686	0.29652	0.9369	-0.406
Mof_O 	O 	0.12148	0.3421	0.047	-0.394
Mof_O 	O 	0.94834	0.88276	0.35962	-0.421
Mof_O 	O 	0.87153	0.91191	0.3313	-0.425
Mof_O 	O 	0.93314	0.87004	0.22966	-0.415
Mof_O 	O 	0.87852	0.92552	0.22062	-0.407
Mof_O 	O 	0.47686	0.11724	0.06558	-0.416
Mof_O 	O 	0.41939	0.08809	0.95962	-0.431
Mof_O 	O 	0.35962	0.12996	0.0631	-0.412
Mof_O 	O 	0.2951	0.07448	0.953	-0.413
Mof_O 	O 	0.52314	0.58872	0.64038	-0.415
Mof_O 	O 	0.58061	0.54023	0.6687	-0.421
Mof_O 	O 	0.64038	0.70348	0.77034	-0.414
Mof_O 	O 	0.7049	0.6579	0.77938	-0.407
Mof_O 	O 	0.64038	0.52314	0.58872	-0.415
Mof_O 	O 	0.6687	0.58061	0.54023	-0.421
Mof_O 	O 	0.77034	0.64038	0.70348	-0.414
Mof_O 	O 	0.77938	0.7049	0.6579	-0.407
Mof_O 	O 	0.06558	0.47686	0.11724	-0.416
Mof_O 	O 	0.95962	0.41939	0.08809	-0.431
Mof_O 	O 	0.0631	0.35962	0.12996	-0.412
Mof_O 	O 	0.953	0.2951	0.07448	-0.413
Mof_O 	O 	0.35962	0.94834	0.88276	-0.421
Mof_O 	O 	0.3313	0.87153	0.91191	-0.425
Mof_O 	O 	0.22966	0.93314	0.87004	-0.415
Mof_O 	O 	0.22062	0.87852	0.92552	-0.407
Mof_O 	O 	0.93442	0.05166	0.41128	-0.409
Mof_O 	O 	0.04038	0.12847	0.45977	-0.41
Mof_O 	O 	0.9369	0.06686	0.29652	-0.406
Mof_O 	O 	0.047	0.12148	0.3421	-0.394
Mof_O 	O 	-9.84072e-18	-3.93629e-17	0.34858	-0.553
Mof_O 	O 	0.65142	0.65142	0.65142	-0.567
Mof_O 	O 	0.34858	0	-0	-0.553
Mof_O 	O 	1.96814e-17	0.34858	-0	-0.553
_end
