data_functionalizedCrystal
_audit_creation_method	'EQeq! by Chris Wilmer'
_symmetry_space_group_name_H-M	'P1'
_symmetry_Int_Tables_number	1
_symmetry_cell_setting	triclinic
loop_
_symmetry_equiv_pos_as_xyz
  x,y,z
_cell_length_a	9.1726
_cell_length_b	9.7145
_cell_length_c	22.3444
_cell_angle_alpha	90
_cell_angle_beta	90
_cell_angle_gamma	117.295
loop_
_atom_site_label
_atom_site_type_symbol
_atom_site_fract_x
_atom_site_fract_y
_atom_site_fract_z
_atom_site_charge
Mof_Sm	Sm	0.88233	0.14285	0.00869	2.555
Mof_Sm	Sm	0.61767	0.85715	0.50868	2.594
Mof_Sm	Sm	0.11767	0.85715	0.99131	2.556
Mof_Sm	Sm	0.38233	0.14285	0.49132	2.595
Mof_Ag	Ag	0.51691	0.17933	0.14763	0.693
Mof_Ag	Ag	0.98309	0.82067	0.64763	0.697
Mof_Ag	Ag	0.48309	0.82067	0.85237	0.693
Mof_Ag	Ag	0.01691	0.17933	0.35237	0.697
Mof_H 	H 	0.756	0.4696	0.8681	0.12
Mof_H 	H 	0.3166	0.5291	0.9334	-0.033
Mof_H 	H 	0.7221	0.6788	0.841	-0.044
Mof_H 	H 	0.5608	0.2795	0.9279	-0.026
Mof_H 	H 	0.9883	0.1395	0.2184	-0.024
Mof_H 	H 	0.1006	0.8124	0.1589	-0.024
Mof_H 	H 	0.1141	0.9097	0.3322	-0.024
Mof_H 	H 	0.14	0.7635	0.2573	0.1
Mof_H 	H 	0.744	0.5304	0.3681	0.12
Mof_H 	H 	0.1834	0.4709	0.4334	-0.033
Mof_H 	H 	0.7779	0.3212	0.341	-0.044
Mof_H 	H 	0.9392	0.7205	0.4279	-0.028
Mof_H 	H 	0.5117	0.8605	0.7184	-0.03
Mof_H 	H 	0.3994	0.1876	0.6589	-0.03
Mof_H 	H 	0.3859	0.0903	0.8322	-0.025
Mof_H 	H 	0.36	0.2365	0.7573	0.103
Mof_H 	H 	0.244	0.5304	0.1319	0.12
Mof_H 	H 	0.6834	0.4709	0.0666	-0.033
Mof_H 	H 	0.2779	0.3212	0.159	-0.044
Mof_H 	H 	0.4392	0.7205	0.0721	-0.026
Mof_H 	H 	0.0117	0.8605	0.7816	-0.024
Mof_H 	H 	0.8994	0.1876	0.8411	-0.024
Mof_H 	H 	0.8859	0.0903	0.6678	-0.024
Mof_H 	H 	0.86	0.2365	0.7427	0.1
Mof_H 	H 	0.256	0.4696	0.6319	0.12
Mof_H 	H 	0.8166	0.5291	0.5666	-0.033
Mof_H 	H 	0.2221	0.6788	0.659	-0.044
Mof_H 	H 	0.0608	0.2795	0.5721	-0.028
Mof_H 	H 	0.4883	0.1395	0.2816	-0.03
Mof_H 	H 	0.6006	0.8124	0.3411	-0.03
Mof_H 	H 	0.6141	0.9097	0.1678	-0.025
Mof_H 	H 	0.64	0.7635	0.2427	0.103
Mof_C 	C 	0.4147	0.3834	0.93617	-0.257
Mof_C 	C 	0.6648	0.4789	0.88129	-0.228
Mof_C 	C 	0.4047	0.5154	0.91951	0.157
Mof_C 	C 	0.6441	0.6042	0.86566	0.139
Mof_C 	C 	0.2811	0.2586	0.97226	0.549
Mof_C 	C 	0.549	0.3662	0.9169	0.172
Mof_C 	C 	0.0208	0.0636	0.22618	0.11
Mof_C 	C 	0.0864	0.8691	0.1899	0.135
Mof_C 	C 	0.0931	0.9278	0.29305	0.137
Mof_C 	C 	0.0401	0.9831	0.17816	-0.226
Mof_C 	C 	0.1111	0.8412	0.2483	-0.22
Mof_C 	C 	0.4972	0.0207	0.03303	0.262
Mof_C 	C 	0.0078	0.0229	0.11643	0.508
Mof_C 	C 	0.0083	0.5081	0.03469	0.283
Mof_C 	C 	0.0853	0.6166	0.43617	-0.259
Mof_C 	C 	0.8352	0.5211	0.38129	-0.23
Mof_C 	C 	0.0953	0.4846	0.41951	0.158
Mof_C 	C 	0.8559	0.3958	0.36566	0.14
Mof_C 	C 	0.2189	0.7414	0.47226	0.553
Mof_C 	C 	0.951	0.6338	0.4169	0.173
Mof_C 	C 	0.4792	0.9364	0.72618	0.126
Mof_C 	C 	0.4136	0.1309	0.6899	0.149
Mof_C 	C 	0.4069	0.0722	0.79305	0.142
Mof_C 	C 	0.4599	0.0169	0.67816	-0.248
Mof_C 	C 	0.3889	0.1588	0.7483	-0.23
Mof_C 	C 	0.0028	0.9793	0.53303	0.276
Mof_C 	C 	0.4922	0.9771	0.61643	0.53
Mof_C 	C 	0.4917	0.4919	0.53469	0.279
Mof_C 	C 	0.5853	0.6166	0.06383	-0.257
Mof_C 	C 	0.3352	0.5211	0.11871	-0.228
Mof_C 	C 	0.5953	0.4846	0.08049	0.157
Mof_C 	C 	0.3559	0.3958	0.13434	0.139
Mof_C 	C 	0.7189	0.7414	0.02774	0.549
Mof_C 	C 	0.451	0.6338	0.0831	0.172
Mof_C 	C 	0.9792	0.9364	0.77382	0.11
Mof_C 	C 	0.9136	0.1309	0.8101	0.135
Mof_C 	C 	0.9069	0.0722	0.70695	0.137
Mof_C 	C 	0.9599	0.0169	0.82184	-0.226
Mof_C 	C 	0.8889	0.1588	0.7517	-0.22
Mof_C 	C 	0.5028	0.9793	0.96697	0.262
Mof_C 	C 	0.9922	0.9771	0.88357	0.508
Mof_C 	C 	0.9917	0.4919	0.96531	0.283
Mof_C 	C 	0.9147	0.3834	0.56383	-0.259
Mof_C 	C 	0.1648	0.4789	0.61871	-0.23
Mof_C 	C 	0.9047	0.5154	0.58049	0.158
Mof_C 	C 	0.1441	0.6042	0.63434	0.14
Mof_C 	C 	0.7811	0.2586	0.52774	0.553
Mof_C 	C 	0.049	0.3662	0.5831	0.173
Mof_C 	C 	0.5208	0.0636	0.27382	0.126
Mof_C 	C 	0.5864	0.8691	0.3101	0.149
Mof_C 	C 	0.5931	0.9278	0.20695	0.142
Mof_C 	C 	0.5401	0.9831	0.32184	-0.248
Mof_C 	C 	0.6111	0.8412	0.2517	-0.23
Mof_C 	C 	0.9972	0.0207	0.46697	0.276
Mof_C 	C 	0.5078	0.0229	0.38357	0.53
Mof_C 	C 	0.5083	0.5081	0.46531	0.279
Mof_N 	N 	0.5163	0.6254	0.88411	-0.245
Mof_N 	N 	0.0463	0.0381	0.28296	-0.241
Mof_N 	N 	0.9837	0.3746	0.38411	-0.245
Mof_N 	N 	0.4537	0.9619	0.78296	-0.245
Mof_N 	N 	0.4837	0.3746	0.11589	-0.245
Mof_N 	N 	0.9537	0.9619	0.71704	-0.241
Mof_N 	N 	0.0163	0.6254	0.61589	-0.245
Mof_N 	N 	0.5463	0.0381	0.21704	-0.245
Mof_O 	O 	0.6305	0.1165	0.05598	-0.525
Mof_O 	O 	0.1769	0.29	0.99674	-0.578
Mof_O 	O 	0.2834	0.1309	0.97383	-0.587
Mof_O 	O 	0.9504	0.3844	0.06382	-0.468
Mof_O 	O 	0.3614	0.9582	0.05886	-0.471
Mof_O 	O 	0.0787	0.642	0.0557	-0.48
Mof_O 	O 	0.9443	0.1118	0.11157	-0.562
Mof_O 	O 	0.0448	0.965	0.07246	-0.656
Mof_O 	O 	0.8695	0.8835	0.55598	-0.531
Mof_O 	O 	0.3231	0.71	0.49674	-0.583
Mof_O 	O 	0.2166	0.8691	0.47383	-0.595
Mof_O 	O 	0.5496	0.6156	0.56382	-0.467
Mof_O 	O 	0.1386	0.0418	0.55886	-0.487
Mof_O 	O 	0.4213	0.358	0.5557	-0.486
Mof_O 	O 	0.5557	0.8882	0.61157	-0.57
Mof_O 	O 	0.4552	0.035	0.57246	-0.676
Mof_O 	O 	0.3695	0.8835	0.94402	-0.525
Mof_O 	O 	0.8231	0.71	0.00326	-0.578
Mof_O 	O 	0.7166	0.8691	0.02617	-0.587
Mof_O 	O 	0.0496	0.6156	0.93618	-0.468
Mof_O 	O 	0.6386	0.0418	0.94114	-0.471
Mof_O 	O 	0.9213	0.358	0.9443	-0.48
Mof_O 	O 	0.0557	0.8882	0.88843	-0.562
Mof_O 	O 	0.9552	0.035	0.92754	-0.656
Mof_O 	O 	0.1305	0.1165	0.44402	-0.531
Mof_O 	O 	0.6769	0.29	0.50326	-0.583
Mof_O 	O 	0.7834	0.1309	0.52617	-0.595
Mof_O 	O 	0.4504	0.3844	0.43618	-0.467
Mof_O 	O 	0.8614	0.9582	0.44114	-0.487
Mof_O 	O 	0.5787	0.642	0.4443	-0.486
Mof_O 	O 	0.4443	0.1118	0.38843	-0.57
Mof_O 	O 	0.5448	0.965	0.42754	-0.676
_end
