data_functionalizedCrystal
_audit_creation_method	'EQeq! by Chris Wilmer'
_symmetry_space_group_name_H-M	'P1'
_symmetry_Int_Tables_number	1
_symmetry_cell_setting	triclinic
loop_
_symmetry_equiv_pos_as_xyz
  x,y,z
_cell_length_a	27.112
_cell_length_b	17.0697
_cell_length_c	27.5614
_cell_angle_alpha	90
_cell_angle_beta	101.518
_cell_angle_gamma	90
loop_
_atom_site_label
_atom_site_type_symbol
_atom_site_fract_x
_atom_site_fract_y
_atom_site_fract_z
_atom_site_charge
Mof_Cu	Cu	0.19521	0.20202	0.62084	0.409
Mof_Cu	Cu	0.37714	0.21262	0.61144	0.589
Mof_Cu	Cu	0.45309	0.97709	0.7065	0.618
Mof_Cu	Cu	0.39503	0.34646	0.45865	0.436
Mof_Cu	Cu	0.60214	0.89967	0.63723	0.371
Mof_Cu	Cu	0.38132	0.58507	0.35398	0.433
Mof_Cu	Cu	0.68982	0.15256	0.62558	0.43
Mof_Cu	Cu	0.87143	0.19638	0.62188	0.378
Mof_Cu	Cu	0.98676	0.02144	0.73042	0.359
Mof_Cu	Cu	0.11188	0.69578	0.54185	0.379
Mof_Cu	Cu	0.10326	0.45047	0.63472	0.442
Mof_Cu	Cu	0.12033	0.94056	0.64026	0.416
Mof_Cu	Cu	0.1906	0.1847	0.6225	0.352
Mof_Cu	Cu	0.3723	0.2016	0.6213	0.199
Mof_Cu	Cu	0.4839	0.0177	0.7272	0.554
Mof_Cu	Cu	0.3873	0.3088	0.4558	0.548
Mof_Cu	Cu	0.3824	0.0662	0.3586	0.689
Mof_Cu	Cu	0.3962	0.5565	0.3629	0.478
Mof_Cu	Cu	0.3101	0.8065	0.3783	0.587
Mof_Cu	Cu	0.1243	0.7954	0.3849	0.368
Mof_Cu	Cu	0.0223	0.9865	0.2789	0.414
Mof_Cu	Cu	0.1099	0.6844	0.5439	0.358
Mof_Cu	Cu	0.1099	0.4362	0.6424	0.337
Mof_Cu	Cu	0.113	0.9248	0.6411	0.357
Mof_C 	C 	0.3086	0.2231	0.6192	-0.303
Mof_N 	N 	0.2659	0.2172	0.6208	-0.225
Mof_C 	C 	0.1338	0.3522	0.6276	-0.327
Mof_N 	N 	0.155	0.2936	0.6243	-0.22
Mof_C 	C 	0.4129	0.1315	0.6507	-0.321
Mof_N 	N 	0.4285	0.0754	0.6723	-0.278
Mof_C 	C 	0.3983	0.306	0.5227	-0.374
Mof_N 	N 	0.3946	0.2744	0.5594	-0.221
Mof_C 	C 	0.5111	0.9355	0.687	-0.418
Mof_N 	N 	0.548	0.9201	0.6727	-0.228
Mof_N 	N 	0.3897	0.2004	0.3919	-0.191
Mof_C 	C 	0.3894	0.2583	0.413	-0.459
Mof_C 	C 	0.3915	0.4415	0.425	-0.277
Mof_N 	N 	0.3871	0.4971	0.3995	-0.327
Mof_N 	N 	0.4015	0.9373	0.792	-0.254
Mof_C 	C 	0.4194	0.9493	0.757	-0.374
Mof_C 	C 	0.3456	0.7515	0.3726	-0.532
Mof_N 	N 	0.3609	0.689	0.368	-0.177
Mof_N 	N 	0.6601	0.0526	0.6293	-0.129
Mof_C 	C 	0.6394	0.992	0.6328	-0.697
Mof_N 	N 	0.8006	0.188	0.6236	-0.209
Mof_C 	C 	0.7584	0.174	0.6235	-0.354
Mof_C 	C 	0.922	0.1526	0.6709	-0.275
Mof_N 	N 	0.9514	0.1145	0.6978	-0.23
Mof_C 	C 	0.1104	0.7318	0.4773	-0.259
Mof_N 	N 	0.1144	0.7572	0.4396	-0.251
Mof_C 	C 	0.1058	0.5967	0.57	-0.311
Mof_N 	N 	0.1049	0.5387	0.5914	-0.212
Mof_C 	C 	0.1251	0.8395	0.6125	-0.316
Mof_N 	N 	0.1246	0.7819	0.59023	-0.205
Mof_C 	C 	0.039	0.9809	0.7015	-0.284
Mof_N 	N 	0.071	0.9609	0.6823	-0.236
Mof_C 	C 	0.1527	0.0345	0.6286	-0.247
Mof_N 	N 	0.1692	0.0954	0.6229	-0.267
Mof_N 	N 	0.0693	0.4733	0.6887	-0.235
Mof_C 	C 	0.046	0.4904	0.7185	-0.277
Mof_Cu	Cu	0.80479	0.70202	0.87916	0.408
Mof_Cu	Cu	0.62286	0.71262	0.88856	0.588
Mof_Cu	Cu	0.54691	0.47709	0.7935	0.617
Mof_Cu	Cu	0.60497	0.84646	0.04135	0.435
Mof_Cu	Cu	0.39786	0.39967	0.86277	0.371
Mof_Cu	Cu	0.61868	0.08507	0.14602	0.433
Mof_Cu	Cu	0.31018	0.65256	0.87442	0.43
Mof_Cu	Cu	0.12857	0.69638	0.87812	0.378
Mof_Cu	Cu	0.01324	0.52144	0.76958	0.359
Mof_Cu	Cu	0.88812	0.19578	0.95815	0.379
Mof_Cu	Cu	0.89674	0.95047	0.86528	0.441
Mof_Cu	Cu	0.87967	0.44056	0.85974	0.416
Mof_Cu	Cu	0.8094	0.6847	0.8775	0.352
Mof_Cu	Cu	0.6277	0.7016	0.8787	0.2
Mof_Cu	Cu	0.5161	0.5177	0.7728	0.554
Mof_Cu	Cu	0.6127	0.8088	0.0442	0.548
Mof_Cu	Cu	0.6176	0.5662	0.1414	0.69
Mof_Cu	Cu	0.6038	0.0565	0.1371	0.478
Mof_Cu	Cu	0.6899	0.3065	0.1217	0.587
Mof_Cu	Cu	0.8757	0.2954	0.1151	0.368
Mof_Cu	Cu	0.9777	0.4865	0.2211	0.415
Mof_Cu	Cu	0.8901	0.1844	0.9561	0.358
Mof_Cu	Cu	0.8901	0.9362	0.8576	0.337
Mof_Cu	Cu	0.887	0.4248	0.8589	0.358
Mof_C 	C 	0.6914	0.7231	0.8808	-0.303
Mof_N 	N 	0.7341	0.7172	0.8792	-0.225
Mof_C 	C 	0.8662	0.8522	0.8724	-0.327
Mof_N 	N 	0.845	0.7936	0.8757	-0.22
Mof_C 	C 	0.5871	0.6315	0.8493	-0.321
Mof_N 	N 	0.5715	0.5754	0.8277	-0.278
Mof_C 	C 	0.6017	0.806	0.9773	-0.374
Mof_N 	N 	0.6054	0.7744	0.9406	-0.221
Mof_C 	C 	0.4889	0.4355	0.813	-0.418
Mof_N 	N 	0.452	0.4201	0.8273	-0.228
Mof_N 	N 	0.6103	0.7004	0.1081	-0.191
Mof_C 	C 	0.6106	0.7583	0.087	-0.459
Mof_C 	C 	0.6085	0.9415	0.075	-0.277
Mof_N 	N 	0.6129	0.9971	0.1005	-0.327
Mof_N 	N 	0.5985	0.4373	0.708	-0.254
Mof_C 	C 	0.5806	0.4493	0.743	-0.374
Mof_C 	C 	0.6544	0.2515	0.1274	-0.532
Mof_N 	N 	0.6391	0.189	0.132	-0.177
Mof_N 	N 	0.3399	0.5526	0.8707	-0.128
Mof_C 	C 	0.3606	0.492	0.8672	-0.698
Mof_N 	N 	0.1994	0.688	0.8764	-0.209
Mof_C 	C 	0.2416	0.674	0.8765	-0.353
Mof_C 	C 	0.078	0.6526	0.8291	-0.275
Mof_N 	N 	0.0486	0.6145	0.8022	-0.23
Mof_C 	C 	0.8896	0.2318	0.0227	-0.259
Mof_N 	N 	0.8856	0.2572	0.0604	-0.251
Mof_C 	C 	0.8942	0.0967	0.93	-0.311
Mof_N 	N 	0.8951	0.0387	0.9086	-0.212
Mof_C 	C 	0.8749	0.3395	0.8875	-0.316
Mof_N 	N 	0.8754	0.2819	0.90977	-0.205
Mof_C 	C 	0.961	0.4809	0.7985	-0.284
Mof_N 	N 	0.929	0.4609	0.8177	-0.236
Mof_C 	C 	0.8473	0.5345	0.8714	-0.247
Mof_N 	N 	0.8308	0.5954	0.8771	-0.267
Mof_N 	N 	0.9307	0.9733	0.8113	-0.235
Mof_C 	C 	0.954	0.9904	0.7815	-0.277
Mof_Cu	Cu	0.80479	0.79798	0.37916	0.408
Mof_Cu	Cu	0.62286	0.78738	0.38856	0.588
Mof_Cu	Cu	0.54691	0.02291	0.2935	0.617
Mof_Cu	Cu	0.60497	0.65354	0.54135	0.435
Mof_Cu	Cu	0.39786	0.10033	0.36277	0.371
Mof_Cu	Cu	0.61868	0.41493	0.64602	0.433
Mof_Cu	Cu	0.31018	0.84744	0.37442	0.43
Mof_Cu	Cu	0.12857	0.80362	0.37812	0.378
Mof_Cu	Cu	0.01324	0.97856	0.26958	0.359
Mof_Cu	Cu	0.88812	0.30422	0.45815	0.379
Mof_Cu	Cu	0.89674	0.54953	0.36528	0.442
Mof_Cu	Cu	0.87967	0.05944	0.35974	0.416
Mof_Cu	Cu	0.8094	0.8153	0.3775	0.352
Mof_Cu	Cu	0.6277	0.7984	0.3787	0.199
Mof_Cu	Cu	0.5161	0.9823	0.2728	0.554
Mof_Cu	Cu	0.6127	0.6912	0.5442	0.548
Mof_Cu	Cu	0.6176	0.9338	0.6414	0.689
Mof_Cu	Cu	0.6038	0.4435	0.6371	0.478
Mof_Cu	Cu	0.6899	0.1935	0.6217	0.587
Mof_Cu	Cu	0.8757	0.2046	0.6151	0.368
Mof_Cu	Cu	0.9777	0.0135	0.7211	0.414
Mof_Cu	Cu	0.8901	0.3156	0.4561	0.358
Mof_Cu	Cu	0.8901	0.5638	0.3576	0.337
Mof_Cu	Cu	0.887	0.0752	0.3589	0.357
Mof_C 	C 	0.6914	0.7769	0.3808	-0.303
Mof_N 	N 	0.7341	0.7828	0.3792	-0.225
Mof_C 	C 	0.8662	0.6478	0.3724	-0.327
Mof_N 	N 	0.845	0.7064	0.3757	-0.22
Mof_C 	C 	0.5871	0.8685	0.3493	-0.321
Mof_N 	N 	0.5715	0.9246	0.3277	-0.278
Mof_C 	C 	0.6017	0.694	0.4773	-0.374
Mof_N 	N 	0.6054	0.7256	0.4406	-0.221
Mof_C 	C 	0.4889	0.0645	0.313	-0.418
Mof_N 	N 	0.452	0.0799	0.3273	-0.228
Mof_N 	N 	0.6103	0.7996	0.6081	-0.191
Mof_C 	C 	0.6106	0.7417	0.587	-0.459
Mof_C 	C 	0.6085	0.5585	0.575	-0.277
Mof_N 	N 	0.6129	0.5029	0.6005	-0.327
Mof_N 	N 	0.5985	0.0627	0.208	-0.254
Mof_C 	C 	0.5806	0.0507	0.243	-0.374
Mof_C 	C 	0.6544	0.2485	0.6274	-0.532
Mof_N 	N 	0.6391	0.311	0.632	-0.177
Mof_N 	N 	0.3399	0.9474	0.3707	-0.129
Mof_C 	C 	0.3606	0.008	0.3672	-0.697
Mof_N 	N 	0.1994	0.812	0.3764	-0.209
Mof_C 	C 	0.2416	0.826	0.3765	-0.354
Mof_C 	C 	0.078	0.8474	0.3291	-0.275
Mof_N 	N 	0.0486	0.8855	0.3022	-0.23
Mof_C 	C 	0.8896	0.2682	0.5227	-0.259
Mof_N 	N 	0.8856	0.2428	0.5604	-0.251
Mof_C 	C 	0.8942	0.4033	0.43	-0.311
Mof_N 	N 	0.8951	0.4613	0.4086	-0.212
Mof_C 	C 	0.8749	0.1605	0.3875	-0.316
Mof_N 	N 	0.8754	0.2181	0.40977	-0.205
Mof_C 	C 	0.961	0.0191	0.2985	-0.284
Mof_N 	N 	0.929	0.0391	0.3177	-0.236
Mof_C 	C 	0.8473	0.9655	0.3714	-0.247
Mof_N 	N 	0.8308	0.9046	0.3771	-0.267
Mof_N 	N 	0.9307	0.5267	0.3113	-0.235
Mof_C 	C 	0.954	0.5096	0.2815	-0.277
Mof_Cu	Cu	0.19521	0.29798	0.12084	0.408
Mof_Cu	Cu	0.37714	0.28738	0.11144	0.588
Mof_Cu	Cu	0.45309	0.52291	0.2065	0.617
Mof_Cu	Cu	0.39503	0.15354	0.95865	0.435
Mof_Cu	Cu	0.60214	0.60033	0.13723	0.371
Mof_Cu	Cu	0.38132	0.91493	0.85398	0.433
Mof_Cu	Cu	0.68982	0.34744	0.12558	0.43
Mof_Cu	Cu	0.87143	0.30362	0.12188	0.378
Mof_Cu	Cu	0.98676	0.47856	0.23042	0.359
Mof_Cu	Cu	0.11188	0.80422	0.04185	0.379
Mof_Cu	Cu	0.10326	0.04953	0.13472	0.441
Mof_Cu	Cu	0.12033	0.55944	0.14026	0.416
Mof_Cu	Cu	0.1906	0.3153	0.1225	0.352
Mof_Cu	Cu	0.3723	0.2984	0.1213	0.2
Mof_Cu	Cu	0.4839	0.4823	0.2272	0.554
Mof_Cu	Cu	0.3873	0.1912	0.9558	0.548
Mof_Cu	Cu	0.3824	0.4338	0.8586	0.69
Mof_Cu	Cu	0.3962	0.9435	0.8629	0.478
Mof_Cu	Cu	0.3101	0.6935	0.8783	0.587
Mof_Cu	Cu	0.1243	0.7046	0.8849	0.368
Mof_Cu	Cu	0.0223	0.5135	0.7789	0.415
Mof_Cu	Cu	0.1099	0.8156	0.0439	0.358
Mof_Cu	Cu	0.1099	0.0638	0.1424	0.337
Mof_Cu	Cu	0.113	0.5752	0.1411	0.358
Mof_C 	C 	0.3086	0.2769	0.1192	-0.303
Mof_N 	N 	0.2659	0.2828	0.1208	-0.225
Mof_C 	C 	0.1338	0.1478	0.1276	-0.327
Mof_N 	N 	0.155	0.2064	0.1243	-0.22
Mof_C 	C 	0.4129	0.3685	0.1507	-0.321
Mof_N 	N 	0.4285	0.4246	0.1723	-0.278
Mof_C 	C 	0.3983	0.194	0.0227	-0.374
Mof_N 	N 	0.3946	0.2256	0.0594	-0.221
Mof_C 	C 	0.5111	0.5645	0.187	-0.418
Mof_N 	N 	0.548	0.5799	0.1727	-0.228
Mof_N 	N 	0.3897	0.2996	0.8919	-0.191
Mof_C 	C 	0.3894	0.2417	0.913	-0.459
Mof_C 	C 	0.3915	0.0585	0.925	-0.277
Mof_N 	N 	0.3871	0.0029	0.8995	-0.327
Mof_N 	N 	0.4015	0.5627	0.292	-0.254
Mof_C 	C 	0.4194	0.5507	0.257	-0.374
Mof_C 	C 	0.3456	0.7485	0.8726	-0.532
Mof_N 	N 	0.3609	0.811	0.868	-0.177
Mof_N 	N 	0.6601	0.4474	0.1293	-0.128
Mof_C 	C 	0.6394	0.508	0.1328	-0.698
Mof_N 	N 	0.8006	0.312	0.1236	-0.209
Mof_C 	C 	0.7584	0.326	0.1235	-0.353
Mof_C 	C 	0.922	0.3474	0.1709	-0.275
Mof_N 	N 	0.9514	0.3855	0.1978	-0.23
Mof_C 	C 	0.1104	0.7682	0.9773	-0.259
Mof_N 	N 	0.1144	0.7428	0.9396	-0.251
Mof_C 	C 	0.1058	0.9033	0.07	-0.311
Mof_N 	N 	0.1049	0.9613	0.0914	-0.212
Mof_C 	C 	0.1251	0.6605	0.1125	-0.316
Mof_N 	N 	0.1246	0.7181	0.09023	-0.205
Mof_C 	C 	0.039	0.5191	0.2015	-0.284
Mof_N 	N 	0.071	0.5391	0.1823	-0.236
Mof_C 	C 	0.1527	0.4655	0.1286	-0.247
Mof_N 	N 	0.1692	0.4046	0.1229	-0.267
Mof_N 	N 	0.0693	0.0267	0.1887	-0.235
Mof_C 	C 	0.046	0.0096	0.2185	-0.277
_end
