data_functionalizedCrystal
_audit_creation_method	'EQeq! by Chris Wilmer'
_symmetry_space_group_name_H-M	'P1'
_symmetry_Int_Tables_number	1
_symmetry_cell_setting	triclinic
loop_
_symmetry_equiv_pos_as_xyz
  x,y,z
_cell_length_a	13.4154
_cell_length_b	13.4154
_cell_length_c	13.4154
_cell_angle_alpha	90
_cell_angle_beta	90
_cell_angle_gamma	90
loop_
_atom_site_label
_atom_site_type_symbol
_atom_site_fract_x
_atom_site_fract_y
_atom_site_fract_z
_atom_site_charge
Mof_P 	P 	0.2714	0.448	0.8955	0.671
Mof_O 	O 	0.1919	0.5284	0.8866	-0.69
Mof_O 	O 	0.3743	0.4935	0.903	-0.591
Mof_O 	O 	0.2626	0.37	0.8183	-0.581
Mof_P 	P 	0.7714	0.948	0.3955	0.669
Mof_O 	O 	0.6919	0.0284	0.3866	-0.674
Mof_O 	O 	0.8743	0.9935	0.403	-0.592
Mof_O 	O 	0.7626	0.87	0.3183	-0.585
Mof_P 	P 	0.2286	0.552	0.3955	0.688
Mof_O 	O 	0.3081	0.4716	0.3866	-0.69
Mof_O 	O 	0.1257	0.5065	0.403	-0.577
Mof_O 	O 	0.2374	0.63	0.3183	-0.581
Mof_P 	P 	0.7286	0.052	0.8955	0.685
Mof_O 	O 	0.8081	0.9716	0.8866	-0.697
Mof_O 	O 	0.6257	0.0065	0.903	-0.57
Mof_O 	O 	0.7374	0.13	0.8183	-0.581
Mof_P 	P 	0.7286	0.948	0.6045	0.67
Mof_O 	O 	0.8081	0.0284	0.6134	-0.671
Mof_O 	O 	0.6257	0.9935	0.597	-0.595
Mof_O 	O 	0.7374	0.87	0.6817	-0.582
Mof_P 	P 	0.2286	0.448	0.1045	0.687
Mof_O 	O 	0.3081	0.5284	0.1134	-0.69
Mof_O 	O 	0.1257	0.4935	0.097	-0.56
Mof_O 	O 	0.2374	0.37	0.1817	-0.577
Mof_P 	P 	0.7714	0.052	0.1045	0.701
Mof_O 	O 	0.6919	0.9716	0.1134	-0.704
Mof_O 	O 	0.8743	0.0065	0.097	-0.541
Mof_O 	O 	0.7626	0.13	0.1817	-0.58
Mof_P 	P 	0.2714	0.552	0.6045	0.687
Mof_O 	O 	0.1919	0.4716	0.6134	-0.692
Mof_O 	O 	0.3743	0.5065	0.597	-0.577
Mof_O 	O 	0.2626	0.63	0.6817	-0.581
Mof_P 	P 	0.8955	0.2714	0.448	0.672
Mof_O 	O 	0.8866	0.1919	0.5284	-0.69
Mof_O 	O 	0.903	0.3743	0.4935	-0.591
Mof_O 	O 	0.8183	0.2626	0.37	-0.581
Mof_P 	P 	0.3955	0.7714	0.948	0.669
Mof_O 	O 	0.3866	0.6919	0.0284	-0.674
Mof_O 	O 	0.403	0.8743	0.9935	-0.592
Mof_O 	O 	0.3183	0.7626	0.87	-0.585
Mof_P 	P 	0.3955	0.2286	0.552	0.688
Mof_O 	O 	0.3866	0.3081	0.4716	-0.69
Mof_O 	O 	0.403	0.1257	0.5065	-0.577
Mof_O 	O 	0.3183	0.2374	0.63	-0.581
Mof_P 	P 	0.8955	0.7286	0.052	0.685
Mof_O 	O 	0.8866	0.8081	0.9716	-0.697
Mof_O 	O 	0.903	0.6257	0.0065	-0.57
Mof_O 	O 	0.8183	0.7374	0.13	-0.581
Mof_P 	P 	0.6045	0.7286	0.948	0.67
Mof_O 	O 	0.6134	0.8081	0.0284	-0.671
Mof_O 	O 	0.597	0.6257	0.9935	-0.595
Mof_O 	O 	0.6817	0.7374	0.87	-0.582
Mof_P 	P 	0.1045	0.2286	0.448	0.687
Mof_O 	O 	0.1134	0.3081	0.5284	-0.69
Mof_O 	O 	0.097	0.1257	0.4935	-0.56
Mof_O 	O 	0.1817	0.2374	0.37	-0.577
Mof_P 	P 	0.1045	0.7714	0.052	0.701
Mof_O 	O 	0.1134	0.6919	0.9716	-0.704
Mof_O 	O 	0.097	0.8743	0.0065	-0.541
Mof_O 	O 	0.1817	0.7626	0.13	-0.58
Mof_P 	P 	0.6045	0.2714	0.552	0.687
Mof_O 	O 	0.6134	0.1919	0.4716	-0.692
Mof_O 	O 	0.597	0.3743	0.5065	-0.577
Mof_O 	O 	0.6817	0.2626	0.63	-0.581
Mof_P 	P 	0.448	0.8955	0.2714	0.672
Mof_O 	O 	0.5284	0.8866	0.1919	-0.69
Mof_O 	O 	0.4935	0.903	0.3743	-0.591
Mof_O 	O 	0.37	0.8183	0.2626	-0.581
Mof_P 	P 	0.948	0.3955	0.7714	0.669
Mof_O 	O 	0.0284	0.3866	0.6919	-0.674
Mof_O 	O 	0.9935	0.403	0.8743	-0.592
Mof_O 	O 	0.87	0.3183	0.7626	-0.585
Mof_P 	P 	0.552	0.3955	0.2286	0.688
Mof_O 	O 	0.4716	0.3866	0.3081	-0.69
Mof_O 	O 	0.5065	0.403	0.1257	-0.577
Mof_O 	O 	0.63	0.3183	0.2374	-0.581
Mof_P 	P 	0.052	0.8955	0.7286	0.685
Mof_O 	O 	0.9716	0.8866	0.8081	-0.697
Mof_O 	O 	0.0065	0.903	0.6257	-0.57
Mof_O 	O 	0.13	0.8183	0.7374	-0.581
Mof_P 	P 	0.948	0.6045	0.7286	0.67
Mof_O 	O 	0.0284	0.6134	0.8081	-0.671
Mof_O 	O 	0.9935	0.597	0.6257	-0.595
Mof_O 	O 	0.87	0.6817	0.7374	-0.582
Mof_P 	P 	0.448	0.1045	0.2286	0.687
Mof_O 	O 	0.5284	0.1134	0.3081	-0.69
Mof_O 	O 	0.4935	0.097	0.1257	-0.56
Mof_O 	O 	0.37	0.1817	0.2374	-0.577
Mof_P 	P 	0.052	0.1045	0.7714	0.701
Mof_O 	O 	0.9716	0.1134	0.6919	-0.704
Mof_O 	O 	0.0065	0.097	0.8743	-0.541
Mof_O 	O 	0.13	0.1817	0.7626	-0.58
Mof_P 	P 	0.552	0.6045	0.2714	0.687
Mof_O 	O 	0.4716	0.6134	0.1919	-0.692
Mof_O 	O 	0.5065	0.597	0.3743	-0.577
Mof_O 	O 	0.63	0.6817	0.2626	-0.581
Mof_Er	Er	0.18513	0.68513	0.81487	2.143
Mof_Er	Er	0.03164	0.53164	0.96836	1.947
Mof_Er	Er	0.68513	0.18513	0.31487	2.151
Mof_Er	Er	0.53164	0.03164	0.46836	2.004
Mof_Er	Er	0.31487	0.31487	0.31487	2.153
Mof_Er	Er	0.46836	0.46836	0.46836	1.952
Mof_Er	Er	0.81487	0.81487	0.81487	2.13
Mof_Er	Er	0.96836	0.96836	0.96836	1.806
Mof_Er	Er	0.81487	0.18513	0.68513	2.143
Mof_Er	Er	0.96836	0.03164	0.53164	1.947
Mof_Er	Er	0.31487	0.68513	0.18513	2.151
Mof_Er	Er	0.46836	0.53164	0.03164	2.004
Mof_Er	Er	0.68513	0.81487	0.18513	2.143
Mof_Er	Er	0.53164	0.96836	0.03164	1.947
Mof_Er	Er	0.18513	0.31487	0.68513	2.151
Mof_Er	Er	0.03164	0.46836	0.53164	2.004
Mof_O 	O 	0.25	0.3932	-0	-0.394
Mof_O 	O 	0.25	0.6068	0.5	-0.416
Mof_O 	O 	0.75	0.8932	0.5	-0.419
Mof_O 	O 	0.75	0.1068	-0	-0.396
Mof_O 	O 	1.47426e-33	0.25	0.3932	-0.394
Mof_O 	O 	0.5	0.25	0.6068	-0.416
Mof_O 	O 	0.5	0.75	0.8932	-0.419
Mof_O 	O 	-9.06486e-34	0.75	0.1068	-0.396
Mof_O 	O 	0.3932	0	0.25	-0.394
Mof_O 	O 	0.6068	0.5	0.25	-0.416
Mof_O 	O 	0.8932	0.5	0.75	-0.419
Mof_O 	O 	0.1068	0	0.75	-0.396
_end
