data_functionalizedCrystal
_audit_creation_method	'EQeq! by Chris Wilmer'
_symmetry_space_group_name_H-M	'P1'
_symmetry_Int_Tables_number	1
_symmetry_cell_setting	triclinic
loop_
_symmetry_equiv_pos_as_xyz
  x,y,z
_cell_length_a	18.2721
_cell_length_b	18.2721
_cell_length_c	18.2721
_cell_angle_alpha	105.051
_cell_angle_beta	105.051
_cell_angle_gamma	118.728
loop_
_atom_site_label
_atom_site_type_symbol
_atom_site_fract_x
_atom_site_fract_y
_atom_site_fract_z
_atom_site_charge
Mof_Cd	Cd	0.4096	0.92216	0.1231	0.464
Mof_Cd	Cd	0.56678	0.1862	0.21506	0.453
Mof_Cd	Cd	0.57085	0.82989	0.20624	0.459
Mof_H 	H 	0.77154	0.27209	0.42492	0.073
Mof_H 	H 	0.81689	0.27384	0.34471	0.088
Mof_H 	H 	0.85104	0.23603	0.42466	0.094
Mof_H 	H 	0.14673	0.71055	0.1589	0.096
Mof_H 	H 	0.19974	0.79094	0.11352	0.124
Mof_H 	H 	0.228	0.83943	0.22803	0.107
Mof_C 	C 	0.7098	0.1372	0.324	0.165
Mof_C 	C 	0.7921	0.2355	0.383	-0.216
Mof_C 	C 	0.2929	0.7729	0.1938	0.174
Mof_C 	C 	0.2121	0.7788	0.1723	-0.228
Mof_N 	N 	0.6294	0.1117	0.2645	-0.128
Mof_N 	N 	0.575	0.0171	0.2267	-0.066
Mof_N 	N 	0.6202	0.9885	0.2617	-0.063
Mof_N 	N 	0.705	0.0618	0.3236	-0.118
Mof_N 	N 	0.4591	0.0004	0.0417	-0.052
Mof_N 	N 	0.5204	0.0935	0.0705	-0.116
Mof_N 	N 	0.2973	0.7137	0.2226	-0.128
Mof_N 	N 	0.3798	0.7302	0.233	-0.065
Mof_N 	N 	0.4243	0.7961	0.2118	-0.065
Mof_N 	N 	0.3708	0.8253	0.1879	-0.122
Mof_N 	N 	0.5041	0.8049	0.0688	-0.123
Mof_N 	N 	0.4394	0.8206	0.0414	-0.056
Mof_Cl	Cl	0.41523	0.0579	0.21295	-0.344
Mof_Cl	Cl	0.49393	0.2631	0.16135	-0.348
Mof_Cd	Cd	0.79906	0.2865	0.8769	0.455
Mof_Cd	Cd	0.97114	0.35172	0.78494	0.458
Mof_Cd	Cd	0.62365	0.36461	0.79376	0.457
Mof_H 	H 	0.92772	0.47493	0.6552	0.089
Mof_H 	H 	0.80854	0.42187	0.57252	0.093
Mof_H 	H 	0.8514	0.34839	0.57799	0.073
Mof_H 	H 	0.61608	0.00368	0.77379	0.107
Mof_H 	H 	0.54932	0.98469	0.83682	0.094
Mof_H 	H 	0.67506	0.08565	0.88894	0.118
Mof_C 	C 	0.8132	0.3858	0.676	0.167
Mof_C 	C 	0.8525	0.4091	0.617	-0.216
Mof_C 	C 	0.5791	0.0991	0.8062	0.173
Mof_C 	C 	0.6065	0.0398	0.8277	-0.228
Mof_N 	N 	0.8472	0.3649	0.7355	-0.128
Mof_N 	N 	0.7904	0.3483	0.7733	-0.065
Mof_N 	N 	0.7268	0.3585	0.7383	-0.065
Mof_N 	N 	0.7382	0.3814	0.6764	-0.117
Mof_N 	N 	0.9587	0.4174	0.9583	-0.061
Mof_N 	N 	0.023	0.4499	0.9295	-0.126
Mof_N 	N 	0.4911	0.0747	0.7774	-0.128
Mof_N 	N 	0.4972	0.1468	0.767	-0.066
Mof_N 	N 	0.5843	0.2125	0.7882	-0.066
Mof_N 	N 	0.6374	0.1829	0.8121	-0.122
Mof_N 	N 	0.7361	0.4353	0.9312	-0.131
Mof_N 	N 	0.7792	0.398	0.9586	-0.07
Mof_Cl	Cl	0.84495	0.20228	0.78705	-0.344
Mof_Cl	Cl	0.10175	0.33258	0.83865	-0.353
Mof_Cd	Cd	0.07784	0.20094	0.48744	0.457
Mof_Cd	Cd	0.8138	0.02886	0.38058	0.452
Mof_Cd	Cd	0.17011	0.37635	0.74097	0.459
Mof_H 	H 	0.76396	0.19261	0.61253	0.092
Mof_H 	H 	0.72806	0.07296	0.549	0.087
Mof_H 	H 	0.72603	0.14676	0.49599	0.073
Mof_H 	H 	0.25526	0.3555	0.42557	0.111
Mof_H 	H 	0.25926	0.45891	0.42438	0.095
Mof_H 	H 	0.14456	0.34513	0.3836	0.115
Mof_C 	C 	0.8628	0.1868	0.5726	0.166
Mof_C 	C 	0.7645	0.1475	0.5566	-0.215
Mof_C 	C 	0.2271	0.4209	0.52	0.172
Mof_C 	C 	0.2212	0.3935	0.4333	-0.225
Mof_N 	N 	0.8883	0.1528	0.5177	-0.128
Mof_N 	N 	0.9829	0.2096	0.5579	-0.062
Mof_N 	N 	0.0115	0.2732	0.6317	-0.069
Mof_N 	N 	0.9382	0.2618	0.6432	-0.115
Mof_N 	N 	0.9996	0.0413	0.4587	-0.055
Mof_N 	N 	0.9065	0.977	0.4269	-0.114
Mof_N 	N 	0.2863	0.5089	0.5836	-0.127
Mof_N 	N 	0.2698	0.5028	0.6496	-0.065
Mof_N 	N 	0.2039	0.4157	0.6282	-0.066
Mof_N 	N 	0.1747	0.3626	0.5455	-0.122
Mof_N 	N 	0.1951	0.2639	0.6992	-0.123
Mof_N 	N 	0.1794	0.2208	0.6188	-0.064
Mof_Cl	Cl	0.9421	0.15505	0.35733	-0.34
Mof_Cl	Cl	0.7369	0.89825	0.23083	-0.345
Mof_Cd	Cd	0.7135	0.5904	0.51256	0.461
Mof_Cd	Cd	0.64828	0.43322	0.61942	0.453
Mof_Cd	Cd	0.63539	0.42915	0.25904	0.458
Mof_H 	H 	0.53499	0.18971	0.46639	0.085
Mof_H 	H 	0.65646	0.22521	0.49406	0.072
Mof_H 	H 	0.56337	0.14561	0.38204	0.096
Mof_H 	H 	0.00819	0.85441	0.56299	0.088
Mof_H 	H 	0.00437	0.77449	0.61013	0.098
Mof_H 	H 	0.91342	0.79663	0.59332	0.121
Mof_C 	C 	0.6142	0.2902	0.4274	0.167
Mof_C 	C 	0.5909	0.2079	0.4434	-0.216
Mof_C 	C 	0.9009	0.7071	0.48	0.171
Mof_C 	C 	0.9602	0.7879	0.5667	-0.21
Mof_N 	N 	0.6351	0.3706	0.4823	-0.127
Mof_N 	N 	0.6517	0.425	0.4421	-0.065
Mof_N 	N 	0.6415	0.3798	0.3683	-0.064
Mof_N 	N 	0.6186	0.295	0.3568	-0.117
Mof_N 	N 	0.5826	0.5409	0.5413	-0.058
Mof_N 	N 	0.5501	0.4796	0.5731	-0.117
Mof_N 	N 	0.9253	0.7027	0.4164	-0.125
Mof_N 	N 	0.8532	0.6202	0.3504	-0.065
Mof_N 	N 	0.7875	0.5757	0.3718	-0.065
Mof_N 	N 	0.8171	0.6292	0.4545	-0.121
Mof_N 	N 	0.5647	0.4959	0.3008	-0.123
Mof_N 	N 	0.602	0.5606	0.3812	-0.063
Mof_Cl	Cl	0.79772	0.58477	0.64267	-0.342
Mof_Cl	Cl	0.66742	0.50607	0.76917	-0.348
Mof_Cd	Cd	0.20094	0.07784	0.48744	0.461
Mof_Cd	Cd	0.02886	0.8138	0.38058	0.447
Mof_Cd	Cd	0.37635	0.17011	0.74097	0.457
Mof_H 	H 	0.07926	0.73248	0.56201	0.087
Mof_H 	H 	0.19978	0.76327	0.60552	0.087
Mof_H 	H 	0.1333	0.72229	0.48999	0.074
Mof_H 	H 	0.40075	0.16919	0.39154	0.106
Mof_H 	H 	0.44108	0.29316	0.43778	0.096
Mof_H 	H 	0.3177	0.19673	0.40423	0.124
Mof_C 	C 	0.1868	0.8628	0.5726	0.165
Mof_C 	C 	0.1475	0.7645	0.5566	-0.214
Mof_C 	C 	0.4209	0.2271	0.52	0.173
Mof_C 	C 	0.3935	0.2212	0.4333	-0.228
Mof_N 	N 	0.1528	0.8883	0.5177	-0.128
Mof_N 	N 	0.2096	0.9829	0.5579	-0.065
Mof_N 	N 	0.2732	0.0115	0.6317	-0.065
Mof_N 	N 	0.2618	0.9382	0.6432	-0.117
Mof_N 	N 	0.0413	0.9996	0.4587	-0.063
Mof_N 	N 	0.977	0.9065	0.4269	-0.112
Mof_N 	N 	0.5089	0.2863	0.5836	-0.129
Mof_N 	N 	0.5028	0.2698	0.6496	-0.066
Mof_N 	N 	0.4157	0.2039	0.6282	-0.065
Mof_N 	N 	0.3626	0.1747	0.5455	-0.122
Mof_N 	N 	0.2639	0.1951	0.6992	-0.123
Mof_N 	N 	0.2208	0.1794	0.6188	-0.063
Mof_Cl	Cl	0.15505	0.9421	0.35733	-0.343
Mof_Cl	Cl	0.89825	0.7369	0.23083	-0.34
Mof_Cd	Cd	0.5904	0.7135	0.51256	0.462
Mof_Cd	Cd	0.43322	0.64828	0.61942	0.454
Mof_Cd	Cd	0.42915	0.63539	0.25904	0.46
Mof_H 	H 	0.23177	0.6459	0.50837	0.074
Mof_H 	H 	0.17312	0.5191	0.44207	0.089
Mof_H 	H 	0.15563	0.58981	0.39205	0.089
Mof_H 	H 	0.84802	0.0231	0.56738	0.094
Mof_H 	H 	0.81182	0.91729	0.58449	0.12
Mof_H 	H 	0.76569	0.98559	0.61457	0.111
Mof_C 	C 	0.2902	0.6142	0.4274	0.164
Mof_C 	C 	0.2079	0.5909	0.4434	-0.215
Mof_C 	C 	0.7071	0.9009	0.48	0.172
Mof_C 	C 	0.7879	0.9602	0.5667	-0.227
Mof_N 	N 	0.3706	0.6351	0.4823	-0.128
Mof_N 	N 	0.425	0.6517	0.4421	-0.065
Mof_N 	N 	0.3798	0.6415	0.3683	-0.065
Mof_N 	N 	0.295	0.6186	0.3568	-0.118
Mof_N 	N 	0.5409	0.5826	0.5413	-0.058
Mof_N 	N 	0.4796	0.5501	0.5731	-0.115
Mof_N 	N 	0.7027	0.9253	0.4164	-0.127
Mof_N 	N 	0.6202	0.8532	0.3504	-0.065
Mof_N 	N 	0.5757	0.7875	0.3718	-0.065
Mof_N 	N 	0.6292	0.8171	0.4545	-0.122
Mof_N 	N 	0.4959	0.5647	0.3008	-0.123
Mof_N 	N 	0.5606	0.602	0.3812	-0.063
Mof_Cl	Cl	0.58477	0.79772	0.64267	-0.343
Mof_Cl	Cl	0.50607	0.66742	0.76917	-0.35
Mof_Cd	Cd	0.2865	0.79906	0.8769	0.455
Mof_Cd	Cd	0.35172	0.97114	0.78494	0.452
Mof_Cd	Cd	0.36461	0.62365	0.79376	0.458
Mof_H 	H 	0.48214	0.92153	0.65352	0.089
Mof_H 	H 	0.35577	0.86525	0.58791	0.075
Mof_H 	H 	0.40727	0.80089	0.56428	0.088
Mof_H 	H 	0.98415	0.54893	0.83606	0.099
Mof_H 	H 	0.00436	0.61692	0.77414	0.107
Mof_H 	H 	0.08551	0.67461	0.88935	0.118
Mof_C 	C 	0.3858	0.8132	0.676	0.165
Mof_C 	C 	0.4091	0.8525	0.617	-0.215
Mof_C 	C 	0.0991	0.5791	0.8062	0.172
Mof_C 	C 	0.0398	0.6065	0.8277	-0.235
Mof_N 	N 	0.3649	0.8472	0.7355	-0.128
Mof_N 	N 	0.3483	0.7904	0.7733	-0.065
Mof_N 	N 	0.3585	0.7268	0.7383	-0.065
Mof_N 	N 	0.3814	0.7382	0.6764	-0.118
Mof_N 	N 	0.4174	0.9587	0.9583	-0.065
Mof_N 	N 	0.4499	0.023	0.9295	-0.123
Mof_N 	N 	0.0747	0.4911	0.7774	-0.13
Mof_N 	N 	0.1468	0.4972	0.767	-0.066
Mof_N 	N 	0.2125	0.5843	0.7882	-0.066
Mof_N 	N 	0.1829	0.6374	0.8121	-0.123
Mof_N 	N 	0.4353	0.7361	0.9312	-0.131
Mof_N 	N 	0.398	0.7792	0.9586	-0.071
Mof_Cl	Cl	0.20228	0.84495	0.78705	-0.345
Mof_Cl	Cl	0.33258	0.10175	0.83865	-0.351
Mof_Cd	Cd	0.92216	0.4096	0.1231	0.468
Mof_Cd	Cd	0.1862	0.56678	0.21506	0.453
Mof_Cd	Cd	0.82989	0.57085	0.20624	0.46
Mof_H 	H 	0.23709	0.84022	0.43851	0.087
Mof_H 	H 	0.26619	0.83189	0.34767	0.089
Mof_H 	H 	0.27867	0.76736	0.4081	0.076
Mof_H 	H 	0.74627	0.1713	0.10027	0.112
Mof_H 	H 	0.73928	0.16422	0.19831	0.095
Mof_H 	H 	0.85536	0.23896	0.20187	0.117
Mof_C 	C 	0.1372	0.7098	0.324	0.165
Mof_C 	C 	0.2355	0.7921	0.383	-0.215
Mof_C 	C 	0.7729	0.2929	0.1938	0.173
Mof_C 	C 	0.7788	0.2121	0.1723	-0.226
Mof_N 	N 	0.1117	0.6294	0.2645	-0.128
Mof_N 	N 	0.0171	0.575	0.2267	-0.069
Mof_N 	N 	0.9885	0.6202	0.2617	-0.059
Mof_N 	N 	0.0618	0.705	0.3236	-0.12
Mof_N 	N 	0.0004	0.4591	0.0417	-0.056
Mof_N 	N 	0.0935	0.5204	0.0705	-0.116
Mof_N 	N 	0.7137	0.2973	0.2226	-0.127
Mof_N 	N 	0.7302	0.3798	0.233	-0.065
Mof_N 	N 	0.7961	0.4243	0.2118	-0.065
Mof_N 	N 	0.8253	0.3708	0.1879	-0.121
Mof_N 	N 	0.8049	0.5041	0.0688	-0.123
Mof_N 	N 	0.8206	0.4394	0.0414	-0.057
Mof_Cl	Cl	0.0579	0.41523	0.21295	-0.346
Mof_Cl	Cl	0.2631	0.49393	0.16135	-0.343
Mof_C 	C 	0.5129	0.1049	-0	0.2
Mof_C 	C 	0.5669	0.1991	-0	-0.205
Mof_C 	C 	0.5016	0.7544	-0	0.221
Mof_C 	C 	0.5602	0.7202	-0	-0.23
Mof_Cl	Cl	0.24448	0.81942	-0	-0.358
Mof_C 	C 	0.1049	0.5129	-0	0.196
Mof_C 	C 	0.1991	0.5669	-0	-0.185
Mof_C 	C 	0.7544	0.5016	-0	0.221
Mof_C 	C 	0.7202	0.5602	-0	-0.23
Mof_Cl	Cl	0.81942	0.24448	-0	-0.354
Mof_C 	C 	0.8951	0.8951	0.408	0.191
Mof_C 	C 	0.8009	0.8009	0.3678	-0.218
Mof_C 	C 	0.2456	0.2456	0.7472	0.209
Mof_C 	C 	0.2798	0.2798	0.84	-0.242
Mof_Cl	Cl	0.18058	0.18058	0.42506	-0.366
Mof_C 	C 	0.4871	0.4871	0.592	0.19
Mof_C 	C 	0.4331	0.4331	0.6322	-0.218
Mof_C 	C 	0.4984	0.4984	0.2528	0.21
Mof_C 	C 	0.4398	0.4398	0.16	-0.244
Mof_Cl	Cl	0.75552	0.75552	0.57494	-0.368
Mof_Cl	Cl	0.5	0.65788	0.15788	-0.368
Mof_Cl	Cl	0.5	0.34212	0.84212	-0.372
Mof_Cl	Cl	0.34212	0.5	0.84212	-0.375
Mof_Cl	Cl	0.65788	0.5	0.15788	-0.368
Mof_H 	H 	0.54186	0.18919	0.93186	0.098
Mof_H 	H 	0.64486	0.23094	0.02924	0.096
Mof_H 	H 	0.55455	0.24793	0.0389	0.124
Mof_H 	H 	0.56995	0.71108	0.93992	0.117
Mof_H 	H 	0.52442	0.65002	0.00179	0.135
Mof_H 	H 	0.63147	0.77309	0.05829	0.128
Mof_H 	H 	0.18997	0.58068	0.94205	0.085
Mof_H 	H 	0.22851	0.52413	0.99757	0.111
Mof_H 	H 	0.24957	0.63645	0.06038	0.096
Mof_H 	H 	0.65591	0.53016	0.01175	0.135
Mof_H 	H 	0.70071	0.56098	0.9358	0.118
Mof_H 	H 	0.77758	0.63471	0.05245	0.128
Mof_H 	H 	0.81208	0.74661	0.37564	0.103
Mof_H 	H 	0.76262	0.7783	0.29724	0.128
Mof_H 	H 	0.75725	0.80704	0.40033	0.099
Mof_H 	H 	0.33697	0.35848	0.87387	0.131
Mof_H 	H 	0.30949	0.24254	0.86176	0.126
Mof_H 	H 	0.21934	0.26479	0.85602	0.124
Mof_H 	H 	0.43558	0.37039	0.62354	0.103
Mof_H 	H 	0.35715	0.40758	0.6003	0.098
Mof_H 	H 	0.46601	0.48077	0.70295	0.127
Mof_H 	H 	0.44133	0.37628	0.13935	0.13
Mof_H 	H 	0.46818	0.4825	0.12583	0.135
Mof_H 	H 	0.36465	0.41538	0.14317	0.129
_end
