data_functionalizedCrystal
_audit_creation_method	'EQeq! by Chris Wilmer'
_symmetry_space_group_name_H-M	'P1'
_symmetry_Int_Tables_number	1
_symmetry_cell_setting	triclinic
loop_
_symmetry_equiv_pos_as_xyz
  x,y,z
_cell_length_a	17.4722
_cell_length_b	17.4722
_cell_length_c	14.4508
_cell_angle_alpha	90
_cell_angle_beta	90
_cell_angle_gamma	90
loop_
_atom_site_label
_atom_site_type_symbol
_atom_site_fract_x
_atom_site_fract_y
_atom_site_fract_z
_atom_site_charge
Mof_Pb	Pb	0.03376	0.87644	0.3971	0.969
Mof_Pb	Pb	0.59636	0.58766	0.25793	0.985
Mof_O 	O 	0.0924	0.9894	0.4169	-0.361
Mof_O 	O 	0.1234	0.0875	0.506	-0.348
Mof_O 	O 	0.9595	0.0607	0.1178	-0.345
Mof_O 	O 	0.0245	0.1438	0.0331	-0.344
Mof_O 	O 	0.1616	0.3016	0.2836	-0.198
Mof_O 	O 	0.9412	0.7949	0.3373	-0.298
Mof_O 	O 	0.0443	0.7375	0.3868	-0.306
Mof_O 	O 	0.7126	0.6529	0.2535	-0.312
Mof_O 	O 	0.7161	0.5308	0.2226	-0.298
Mof_O 	O 	0.9854	0.4545	0.3419	-0.197
Mof_O 	O 	0.6349	0.5462	0.3954	-0.355
Mof_O 	O 	0.5335	0.5617	0.4839	-0.363
Mof_O 	O 	0.5293	0.4052	0.7789	-0.37
Mof_O 	O 	0.6328	0.423	0.8629	-0.36
Mof_O 	O 	0.8347	0.4393	0.5989	-0.193
Mof_N 	N 	0.1987	0.3259	0.0415	-0.144
Mof_N 	N 	0.9356	0.3684	0.1833	-0.137
Mof_N 	N 	0.975	0.2964	0.6118	-0.167
Mof_C 	C 	0.098	0.1127	0.3467	-0.042
Mof_C 	C 	0.0589	0.0881	0.2693	-0.016
Mof_H 	H 	0.0362	0.04	0.2682	0.052
Mof_C 	C 	0.0538	0.1363	0.1929	-0.042
Mof_C 	C 	0.0902	0.2085	0.1947	-0.124
Mof_H 	H 	0.0895	0.2396	0.1425	0.097
Mof_C 	C 	0.1268	0.2327	0.2738	0.176
Mof_C 	C 	0.1314	0.1843	0.3503	-0.114
Mof_H 	H 	0.1568	0.2002	0.4035	0.092
Mof_C 	C 	0.1038	0.0587	0.4286	0.357
Mof_C 	C 	0.0103	0.1123	0.1089	0.34
Mof_C 	C 	0.1641	0.3537	0.2071	-0.106
Mof_H 	H 	0.1771	0.4043	0.2297	0.084
Mof_H 	H 	0.1138	0.3565	0.179	0.082
Mof_C 	C 	0.2204	0.3306	0.1363	0.16
Mof_C 	C 	0.2979	0.3157	0.1537	-0.259
Mof_H 	H 	0.3166	0.319	0.2138	0.137
Mof_C 	C 	0.3447	0.2968	0.0849	0.232
Mof_H 	H 	0.3948	0.2849	0.1011	-0.034
Mof_C 	C 	0.3282	0.2931	0.9988	-0.278
Mof_H 	H 	0.3642	0.2808	0.9538	0.137
Mof_C 	C 	0.2543	0.3085	0.9781	0.143
Mof_H 	H 	0.2401	0.3072	0.9161	0.001
Mof_C 	C 	0.9415	0.658	0.3316	0.004
Mof_C 	C 	0.8688	0.6577	0.2959	-0.065
Mof_H 	H 	0.8436	0.7036	0.2843	0.077
Mof_C 	C 	0.833	0.5882	0.2771	0.013
Mof_C 	C 	0.8685	0.5206	0.2935	-0.152
Mof_H 	H 	0.8429	0.4747	0.2831	0.103
Mof_C 	C 	0.9434	0.5203	0.326	0.192
Mof_C 	C 	0.9799	0.5886	0.3474	-0.144
Mof_H 	H 	0.0291	0.5884	0.372	0.102
Mof_C 	C 	0.9795	0.7324	0.3524	0.275
Mof_C 	C 	0.7501	0.5908	0.2466	0.269
Mof_C 	C 	0.946	0.3838	0.3584	-0.081
Mof_H 	H 	0.8992	0.3947	0.3921	0.068
Mof_H 	H 	0.9778	0.3518	0.3976	0.076
Mof_C 	C 	0.926	0.3398	0.2726	0.135
Mof_C 	C 	0.8962	0.2664	0.2804	-0.201
Mof_H 	H 	0.889	0.2444	0.3384	0.11
Mof_C 	C 	0.8775	0.2266	0.2019	0.143
Mof_H 	H 	0.8578	0.1775	0.2088	0.001
Mof_C 	C 	0.8856	0.2531	0.1186	-0.209
Mof_H 	H 	0.8723	0.2243	0.0669	0.112
Mof_C 	C 	0.9132	0.3217	0.1111	0.12
Mof_H 	H 	0.9184	0.3412	0.0516	0.01
Mof_C 	C 	0.642	0.5022	0.5492	-0.059
Mof_C 	C 	0.6025	0.4791	0.63	0.002
Mof_H 	H 	0.5499	0.4867	0.6342	0.047
Mof_C 	C 	0.6409	0.4457	0.702	-0.062
Mof_C 	C 	0.7207	0.4319	0.6965	-0.106
Mof_H 	H 	0.7472	0.4103	0.7458	0.082
Mof_C 	C 	0.7581	0.4517	0.615	0.157
Mof_C 	C 	0.7193	0.4862	0.5441	-0.105
Mof_H 	H 	0.7458	0.4992	0.4906	0.094
Mof_C 	C 	0.5999	0.5398	0.4716	0.369
Mof_C 	C 	0.5985	0.4218	0.7872	0.375
Mof_C 	C 	0.8733	0.3868	0.6573	-0.119
Mof_H 	H 	0.8441	0.3398	0.662	0.081
Mof_H 	H 	0.8785	0.4083	0.7189	0.078
Mof_C 	C 	0.9492	0.3707	0.6185	0.195
Mof_C 	C 	0.9968	0.427	0.5867	-0.296
Mof_H 	H 	0.9824	0.4782	0.587	0.157
Mof_C 	C 	0.0704	0.4028	0.5529	0.319
Mof_H 	H 	0.1036	0.4414	0.5341	-0.067
Mof_C 	C 	0.0941	0.3378	0.5462	-0.413
Mof_H 	H 	0.1421	0.327	0.5215	0.186
Mof_C 	C 	0.049	0.2843	0.5753	0.228
Mof_H 	H 	0.0666	0.2341	0.5719	-0.03
Mof_Pb	Pb	0.96624	0.12356	0.8971	0.963
Mof_Pb	Pb	0.40365	0.41234	0.75793	0.985
Mof_O 	O 	0.9076	0.0106	0.9169	-0.361
Mof_O 	O 	0.8766	0.9125	0.006	-0.339
Mof_O 	O 	0.0405	0.9393	0.6178	-0.348
Mof_O 	O 	0.9755	0.8562	0.5331	-0.348
Mof_O 	O 	0.8384	0.6984	0.7836	-0.2
Mof_O 	O 	0.0588	0.2051	0.8373	-0.299
Mof_O 	O 	0.9557	0.2625	0.8868	-0.309
Mof_O 	O 	0.2874	0.3471	0.7535	-0.313
Mof_O 	O 	0.2839	0.4692	0.7226	-0.298
Mof_O 	O 	0.0146	0.5455	0.8419	-0.198
Mof_O 	O 	0.3651	0.4538	0.8954	-0.355
Mof_O 	O 	0.4665	0.4383	0.9839	-0.367
Mof_O 	O 	0.4707	0.5948	0.2789	-0.369
Mof_O 	O 	0.3672	0.577	0.3629	-0.356
Mof_O 	O 	0.1653	0.5607	0.0989	-0.19
Mof_N 	N 	0.8013	0.6741	0.5415	-0.144
Mof_N 	N 	0.0644	0.6316	0.6833	-0.137
Mof_N 	N 	0.025	0.7036	0.1118	-0.169
Mof_C 	C 	0.902	0.8873	0.8467	-0.041
Mof_C 	C 	0.9411	0.9119	0.7693	-0.017
Mof_H 	H 	0.9638	0.96	0.7682	0.053
Mof_C 	C 	0.9462	0.8637	0.6929	-0.042
Mof_C 	C 	0.9098	0.7915	0.6947	-0.124
Mof_H 	H 	0.9105	0.7604	0.6425	0.097
Mof_C 	C 	0.8732	0.7673	0.7738	0.177
Mof_C 	C 	0.8686	0.8157	0.8503	-0.116
Mof_H 	H 	0.8432	0.7998	0.9035	0.09
Mof_C 	C 	0.8962	0.9413	0.9286	0.349
Mof_C 	C 	0.9897	0.8877	0.6089	0.342
Mof_C 	C 	0.8359	0.6463	0.7071	-0.099
Mof_H 	H 	0.8229	0.5957	0.7297	0.082
Mof_H 	H 	0.8862	0.6435	0.679	0.08
Mof_C 	C 	0.7796	0.6694	0.6363	0.15
Mof_C 	C 	0.7021	0.6843	0.6537	-0.237
Mof_H 	H 	0.6834	0.681	0.7138	0.129
Mof_C 	C 	0.6553	0.7032	0.5849	0.196
Mof_H 	H 	0.6052	0.7151	0.6011	-0.023
Mof_C 	C 	0.6718	0.7069	0.4988	-0.246
Mof_H 	H 	0.6358	0.7192	0.4538	0.127
Mof_C 	C 	0.7457	0.6915	0.4781	0.134
Mof_H 	H 	0.7599	0.6928	0.4161	0.005
Mof_C 	C 	0.0585	0.342	0.8316	0.001
Mof_C 	C 	0.1312	0.3423	0.7959	-0.063
Mof_H 	H 	0.1564	0.2964	0.7843	0.077
Mof_C 	C 	0.167	0.4118	0.7771	0.011
Mof_C 	C 	0.1315	0.4794	0.7935	-0.151
Mof_H 	H 	0.1571	0.5253	0.7831	0.103
Mof_C 	C 	0.0566	0.4797	0.826	0.191
Mof_C 	C 	0.0201	0.4114	0.8474	-0.142
Mof_H 	H 	0.9709	0.4116	0.872	0.099
Mof_C 	C 	0.0205	0.2676	0.8524	0.277
Mof_C 	C 	0.2499	0.4092	0.7466	0.269
Mof_C 	C 	0.054	0.6162	0.8584	-0.079
Mof_H 	H 	0.1008	0.6053	0.8921	0.066
Mof_H 	H 	0.0222	0.6482	0.8976	0.073
Mof_C 	C 	0.074	0.6602	0.7726	0.133
Mof_C 	C 	0.1038	0.7336	0.7804	-0.2
Mof_H 	H 	0.111	0.7556	0.8384	0.108
Mof_C 	C 	0.1225	0.7734	0.7019	0.141
Mof_H 	H 	0.1422	0.8225	0.7088	0.002
Mof_C 	C 	0.1144	0.7469	0.6186	-0.208
Mof_H 	H 	0.1277	0.7757	0.5669	0.11
Mof_C 	C 	0.0868	0.6783	0.6111	0.119
Mof_H 	H 	0.0816	0.6588	0.5516	0.008
Mof_C 	C 	0.358	0.4978	0.0492	-0.057
Mof_C 	C 	0.3975	0.5209	0.13	0.003
Mof_H 	H 	0.4501	0.5133	0.1342	0.048
Mof_C 	C 	0.3591	0.5543	0.202	-0.062
Mof_C 	C 	0.2793	0.5681	0.1965	-0.103
Mof_H 	H 	0.2528	0.5897	0.2458	0.082
Mof_C 	C 	0.2419	0.5483	0.115	0.152
Mof_C 	C 	0.2807	0.5138	0.0441	-0.093
Mof_H 	H 	0.2542	0.5008	0.9906	0.086
Mof_C 	C 	0.4001	0.4602	0.9716	0.365
Mof_C 	C 	0.4015	0.5782	0.2872	0.374
Mof_C 	C 	0.1267	0.6132	0.1573	-0.123
Mof_H 	H 	0.1559	0.6602	0.162	0.083
Mof_H 	H 	0.1215	0.5917	0.2189	0.08
Mof_C 	C 	0.0508	0.6293	0.1185	0.2
Mof_C 	C 	0.0032	0.573	0.0867	-0.306
Mof_H 	H 	0.0176	0.5218	0.087	0.161
Mof_C 	C 	0.9296	0.5972	0.0529	0.335
Mof_H 	H 	0.8964	0.5586	0.0341	-0.07
Mof_C 	C 	0.9059	0.6622	0.0462	-0.427
Mof_H 	H 	0.8579	0.673	0.0215	0.193
Mof_C 	C 	0.951	0.7157	0.0753	0.239
Mof_H 	H 	0.9334	0.7659	0.0719	-0.033
Mof_Pb	Pb	0.12356	0.03376	0.6471	0.97
Mof_Pb	Pb	0.41234	0.59636	0.50793	0.985
Mof_O 	O 	0.0106	0.0924	0.6669	-0.36
Mof_O 	O 	0.9125	0.1234	0.756	-0.346
Mof_O 	O 	0.9393	0.9595	0.3678	-0.348
Mof_O 	O 	0.8562	0.0245	0.2831	-0.348
Mof_O 	O 	0.6984	0.1616	0.5336	-0.199
Mof_O 	O 	0.2051	0.9412	0.5873	-0.298
Mof_O 	O 	0.2625	0.0443	0.6368	-0.306
Mof_O 	O 	0.3471	0.7126	0.5035	-0.312
Mof_O 	O 	0.4692	0.7161	0.4726	-0.298
Mof_O 	O 	0.5455	0.9854	0.5919	-0.197
Mof_O 	O 	0.4538	0.6349	0.6454	-0.355
Mof_O 	O 	0.4383	0.5335	0.7339	-0.363
Mof_O 	O 	0.5948	0.5293	0.0289	-0.37
Mof_O 	O 	0.577	0.6328	0.1129	-0.356
Mof_O 	O 	0.5607	0.8347	0.8489	-0.193
Mof_N 	N 	0.6741	0.1987	0.2915	-0.144
Mof_N 	N 	0.6316	0.9356	0.4333	-0.137
Mof_N 	N 	0.7036	0.975	0.8618	-0.166
Mof_C 	C 	0.8873	0.098	0.5967	-0.043
Mof_C 	C 	0.9119	0.0589	0.5193	-0.015
Mof_H 	H 	0.96	0.0362	0.5182	0.052
Mof_C 	C 	0.8637	0.0538	0.4429	-0.043
Mof_C 	C 	0.7915	0.0902	0.4447	-0.123
Mof_H 	H 	0.7604	0.0895	0.3925	0.096
Mof_C 	C 	0.7673	0.1268	0.5238	0.176
Mof_C 	C 	0.8157	0.1314	0.6003	-0.114
Mof_H 	H 	0.7998	0.1568	0.6535	0.092
Mof_C 	C 	0.9413	0.1038	0.6786	0.357
Mof_C 	C 	0.8877	0.0103	0.3589	0.343
Mof_C 	C 	0.6463	0.1641	0.4571	-0.1
Mof_H 	H 	0.5957	0.1771	0.4797	0.083
Mof_H 	H 	0.6435	0.1138	0.429	0.08
Mof_C 	C 	0.6694	0.2204	0.3863	0.151
Mof_C 	C 	0.6843	0.2979	0.4037	-0.237
Mof_H 	H 	0.681	0.3166	0.4638	0.13
Mof_C 	C 	0.7032	0.3447	0.3349	0.197
Mof_H 	H 	0.7151	0.3948	0.3511	-0.023
Mof_C 	C 	0.7069	0.3282	0.2488	-0.246
Mof_H 	H 	0.7192	0.3642	0.2038	0.128
Mof_C 	C 	0.6915	0.2543	0.2281	0.134
Mof_H 	H 	0.6928	0.2401	0.1661	0.005
Mof_C 	C 	0.342	0.9415	0.5816	0.004
Mof_C 	C 	0.3423	0.8688	0.5459	-0.065
Mof_H 	H 	0.2964	0.8436	0.5343	0.077
Mof_C 	C 	0.4118	0.833	0.5271	0.012
Mof_C 	C 	0.4794	0.8685	0.5435	-0.152
Mof_H 	H 	0.5253	0.8429	0.5331	0.103
Mof_C 	C 	0.4797	0.9434	0.576	0.192
Mof_C 	C 	0.4114	0.9799	0.5974	-0.145
Mof_H 	H 	0.4116	0.0291	0.622	0.102
Mof_C 	C 	0.2676	0.9795	0.6024	0.275
Mof_C 	C 	0.4092	0.7501	0.4966	0.269
Mof_C 	C 	0.6162	0.946	0.6084	-0.081
Mof_H 	H 	0.6053	0.8992	0.6421	0.068
Mof_H 	H 	0.6482	0.9778	0.6476	0.076
Mof_C 	C 	0.6602	0.926	0.5226	0.135
Mof_C 	C 	0.7336	0.8962	0.5304	-0.201
Mof_H 	H 	0.7556	0.889	0.5884	0.11
Mof_C 	C 	0.7734	0.8775	0.4519	0.143
Mof_H 	H 	0.8225	0.8578	0.4588	0.001
Mof_C 	C 	0.7469	0.8856	0.3686	-0.209
Mof_H 	H 	0.7757	0.8723	0.3169	0.11
Mof_C 	C 	0.6783	0.9132	0.3611	0.119
Mof_H 	H 	0.6588	0.9184	0.3016	0.008
Mof_C 	C 	0.4978	0.642	0.7992	-0.062
Mof_C 	C 	0.5209	0.6025	0.88	0.007
Mof_H 	H 	0.5133	0.5499	0.8842	0.044
Mof_C 	C 	0.5543	0.6409	0.952	-0.072
Mof_C 	C 	0.5681	0.7207	0.9465	-0.102
Mof_H 	H 	0.5897	0.7472	0.9958	0.079
Mof_C 	C 	0.5483	0.7581	0.865	0.154
Mof_C 	C 	0.5138	0.7193	0.7941	-0.103
Mof_H 	H 	0.5008	0.7458	0.7406	0.093
Mof_C 	C 	0.4602	0.5999	0.7216	0.369
Mof_C 	C 	0.5782	0.5985	0.0372	0.383
Mof_C 	C 	0.6132	0.8733	0.9073	-0.116
Mof_H 	H 	0.6602	0.8441	0.912	0.08
Mof_H 	H 	0.5917	0.8785	0.9689	0.076
Mof_C 	C 	0.6293	0.9492	0.8685	0.19
Mof_C 	C 	0.573	0.9968	0.8367	-0.29
Mof_H 	H 	0.5218	0.9824	0.837	0.154
Mof_C 	C 	0.5972	0.0704	0.8029	0.308
Mof_H 	H 	0.5586	0.1036	0.7841	-0.064
Mof_C 	C 	0.6622	0.0941	0.7962	-0.403
Mof_H 	H 	0.673	0.1421	0.7715	0.181
Mof_C 	C 	0.7157	0.049	0.8253	0.221
Mof_H 	H 	0.7659	0.0666	0.8219	-0.029
Mof_Pb	Pb	0.87644	0.96624	0.1471	0.971
Mof_Pb	Pb	0.58766	0.40365	0.00793	0.996
Mof_O 	O 	0.9894	0.9076	0.1669	-0.359
Mof_O 	O 	0.0875	0.8766	0.256	-0.346
Mof_O 	O 	0.0607	0.0405	0.8678	-0.349
Mof_O 	O 	0.1438	0.9755	0.7831	-0.348
Mof_O 	O 	0.3016	0.8384	0.0336	-0.195
Mof_O 	O 	0.7949	0.0588	0.0873	-0.296
Mof_O 	O 	0.7375	0.9557	0.1368	-0.304
Mof_O 	O 	0.6529	0.2874	0.0035	-0.303
Mof_O 	O 	0.5308	0.2839	0.9726	-0.298
Mof_O 	O 	0.4545	0.0146	0.0919	-0.198
Mof_O 	O 	0.5462	0.3651	0.1454	-0.354
Mof_O 	O 	0.5617	0.4665	0.2339	-0.363
Mof_O 	O 	0.4052	0.4707	0.5289	-0.369
Mof_O 	O 	0.423	0.3672	0.6129	-0.356
Mof_O 	O 	0.4393	0.1653	0.3489	-0.193
Mof_N 	N 	0.3259	0.8013	0.7915	-0.144
Mof_N 	N 	0.3684	0.0644	0.9333	-0.138
Mof_N 	N 	0.2964	0.025	0.3618	-0.166
Mof_C 	C 	0.1127	0.902	0.0967	-0.043
Mof_C 	C 	0.0881	0.9411	0.0193	-0.009
Mof_H 	H 	0.04	0.9638	0.0182	0.051
Mof_C 	C 	0.1363	0.9462	0.9429	-0.047
Mof_C 	C 	0.2085	0.9098	0.9447	-0.13
Mof_H 	H 	0.2396	0.9105	0.8925	0.098
Mof_C 	C 	0.2327	0.8732	0.0238	0.182
Mof_C 	C 	0.1843	0.8686	0.1003	-0.115
Mof_H 	H 	0.2002	0.8432	0.1535	0.092
Mof_C 	C 	0.0587	0.8962	0.1786	0.356
Mof_C 	C 	0.1123	0.9897	0.8589	0.344
Mof_C 	C 	0.3537	0.8359	0.9571	-0.107
Mof_H 	H 	0.4043	0.8229	0.9797	0.083
Mof_H 	H 	0.3565	0.8862	0.929	0.081
Mof_C 	C 	0.3306	0.7796	0.8863	0.152
Mof_C 	C 	0.3157	0.7021	0.9037	-0.238
Mof_H 	H 	0.319	0.6834	0.9638	0.128
Mof_C 	C 	0.2968	0.6553	0.8349	0.197
Mof_H 	H 	0.2849	0.6052	0.8511	-0.024
Mof_C 	C 	0.2931	0.6718	0.7488	-0.246
Mof_H 	H 	0.2808	0.6358	0.7038	0.128
Mof_C 	C 	0.3085	0.7457	0.7281	0.134
Mof_H 	H 	0.3072	0.7599	0.6661	0.005
Mof_C 	C 	0.658	0.0585	0.0816	0.011
Mof_C 	C 	0.6577	0.1312	0.0459	-0.074
Mof_H 	H 	0.7036	0.1564	0.0343	0.082
Mof_C 	C 	0.5882	0.167	0.0271	0.029
Mof_C 	C 	0.5206	0.1315	0.0435	-0.161
Mof_H 	H 	0.4747	0.1571	0.0331	0.109
Mof_C 	C 	0.5203	0.0566	0.076	0.199
Mof_C 	C 	0.5886	0.0201	0.0974	-0.15
Mof_H 	H 	0.5884	0.9709	0.122	0.105
Mof_C 	C 	0.7324	0.0205	0.1024	0.273
Mof_C 	C 	0.5908	0.2499	0.9966	0.249
Mof_C 	C 	0.3838	0.054	0.1084	-0.078
Mof_H 	H 	0.3947	0.1008	0.1421	0.067
Mof_H 	H 	0.3518	0.0222	0.1476	0.075
Mof_C 	C 	0.3398	0.074	0.0226	0.133
Mof_C 	C 	0.2664	0.1038	0.0304	-0.181
Mof_H 	H 	0.2444	0.111	0.0884	0.103
Mof_C 	C 	0.2266	0.1225	0.9519	0.117
Mof_H 	H 	0.1775	0.1422	0.9588	0.008
Mof_C 	C 	0.2531	0.1144	0.8686	-0.19
Mof_H 	H 	0.2243	0.1277	0.8169	0.103
Mof_C 	C 	0.3217	0.0868	0.8611	0.107
Mof_H 	H 	0.3412	0.0816	0.8016	0.012
Mof_C 	C 	0.5022	0.358	0.2992	-0.058
Mof_C 	C 	0.4791	0.3975	0.38	0.001
Mof_H 	H 	0.4867	0.4501	0.3842	0.047
Mof_C 	C 	0.4457	0.3591	0.452	-0.061
Mof_C 	C 	0.4319	0.2793	0.4465	-0.107
Mof_H 	H 	0.4103	0.2528	0.4958	0.083
Mof_C 	C 	0.4517	0.2419	0.365	0.158
Mof_C 	C 	0.4862	0.2807	0.2941	-0.106
Mof_H 	H 	0.4992	0.2542	0.2406	0.095
Mof_C 	C 	0.5398	0.4001	0.2216	0.368
Mof_C 	C 	0.4218	0.4015	0.5372	0.374
Mof_C 	C 	0.3868	0.1267	0.4073	-0.119
Mof_H 	H 	0.3398	0.1559	0.412	0.081
Mof_H 	H 	0.4083	0.1215	0.4689	0.079
Mof_C 	C 	0.3707	0.0508	0.3685	0.194
Mof_C 	C 	0.427	0.0032	0.3367	-0.294
Mof_H 	H 	0.4782	0.0176	0.337	0.156
Mof_C 	C 	0.4028	0.9296	0.3029	0.317
Mof_H 	H 	0.4414	0.8964	0.2841	-0.066
Mof_C 	C 	0.3378	0.9059	0.2962	-0.41
Mof_H 	H 	0.327	0.8579	0.2715	0.185
Mof_C 	C 	0.2843	0.951	0.3253	0.227
Mof_H 	H 	0.2341	0.9334	0.3219	-0.03
_end
