data_functionalizedCrystal
_audit_creation_method	'EQeq! by Chris Wilmer'
_symmetry_space_group_name_H-M	'P1'
_symmetry_Int_Tables_number	1
_symmetry_cell_setting	triclinic
loop_
_symmetry_equiv_pos_as_xyz
  x,y,z
_cell_length_a	11.029
_cell_length_b	22.762
_cell_length_c	14.48
_cell_angle_alpha	90
_cell_angle_beta	97.147
_cell_angle_gamma	90
loop_
_atom_site_label
_atom_site_type_symbol
_atom_site_fract_x
_atom_site_fract_y
_atom_site_fract_z
_atom_site_charge
Mof_Cd	Cd	0.63583	0.92555	0.21634	0.372
Mof_C 	C 	0.9375	0.9052	0.2747	0.085
Mof_H 	H 	0.9146	0.8916	0.3305	0.007
Mof_C 	C 	0.0596	0.9077	0.266	-0.134
Mof_H 	H 	0.1172	0.8958	0.3148	0.091
Mof_C 	C 	0.0966	0.92812	0.184	0.07
Mof_C 	C 	0.0055	0.9434	0.1134	-0.132
Mof_H 	H 	0.0257	0.9564	0.0564	0.093
Mof_C 	C 	0.8862	0.9393	0.128	0.09
Mof_H 	H 	0.8268	0.9497	0.0794	0.02
Mof_C 	C 	0.225	0.9357	0.1693	0.096
Mof_C 	C 	0.5821	0.7091	0.7626	0.081
Mof_H 	H 	0.5522	0.7083	0.6997	0.021
Mof_C 	C 	0.5773	0.7609	0.8092	-0.123
Mof_H 	H 	0.5462	0.7944	0.7781	0.092
Mof_C 	C 	0.6192	0.76315	0.9032	0.053
Mof_C 	C 	0.6658	0.71205	0.9453	-0.096
Mof_H 	H 	0.6954	0.7116	0.0083	0.068
Mof_C 	C 	0.6678	0.66163	0.8925	0.067
Mof_H 	H 	0.6994	0.6275	0.9217	0.012
Mof_C 	C 	0.6123	0.81717	0.9566	0.112
Mof_N 	N 	0.8493	0.92122	0.2076	-0.152
Mof_N 	N 	0.2567	0.96094	0.0926	-0.084
Mof_N 	N 	0.3769	0.96008	0.1047	-0.064
Mof_N 	N 	0.4176	0.93478	0.186	-0.068
Mof_N 	N 	0.322	0.91896	0.2284	-0.085
Mof_N 	N 	0.6271	0.65922	0.8021	-0.152
Mof_N 	N 	0.5733	0.8687	0.9191	-0.08
Mof_N 	N 	0.5777	0.90511	0.9911	-0.056
Mof_N 	N 	0.6167	0.87661	0.0691	-0.073
Mof_N 	N 	0.6395	0.82086	0.0489	-0.096
Mof_N 	N 	0.6361	0.01183	0.1319	-0.121
Mof_N 	N 	0.6978	0.05254	0.1522	-0.034
Mof_N 	N 	0.7572	0.0928	0.1731	-0.062
Mof_Cd	Cd	0.36417	0.42555	0.28366	0.367
Mof_C 	C 	0.0625	0.4052	0.2253	0.088
Mof_H 	H 	0.0854	0.3916	0.1695	0.005
Mof_C 	C 	0.9404	0.4077	0.234	-0.138
Mof_H 	H 	0.8828	0.3958	0.1852	0.09
Mof_C 	C 	0.9034	0.42812	0.316	0.071
Mof_C 	C 	0.9945	0.4434	0.3866	-0.136
Mof_H 	H 	0.9743	0.4564	0.4436	0.094
Mof_C 	C 	0.1138	0.4393	0.372	0.092
Mof_H 	H 	0.1732	0.4497	0.4206	0.019
Mof_C 	C 	0.775	0.4357	0.3307	0.094
Mof_C 	C 	0.4179	0.2091	0.7374	0.088
Mof_H 	H 	0.4478	0.2083	0.8003	0.02
Mof_C 	C 	0.4227	0.2609	0.6908	-0.137
Mof_H 	H 	0.4538	0.2944	0.7219	0.097
Mof_C 	C 	0.3808	0.26315	0.5968	0.071
Mof_C 	C 	0.3342	0.21205	0.5547	-0.137
Mof_H 	H 	0.3046	0.2116	0.4917	0.09
Mof_C 	C 	0.3322	0.16163	0.6075	0.086
Mof_H 	H 	0.3006	0.1275	0.5783	0.001
Mof_C 	C 	0.3877	0.31717	0.5434	0.094
Mof_N 	N 	0.1507	0.42122	0.2924	-0.154
Mof_N 	N 	0.7433	0.46094	0.4074	-0.084
Mof_N 	N 	0.6231	0.46008	0.3953	-0.067
Mof_N 	N 	0.5824	0.43478	0.314	-0.069
Mof_N 	N 	0.678	0.41896	0.2716	-0.087
Mof_N 	N 	0.3729	0.15922	0.6979	-0.158
Mof_N 	N 	0.4267	0.3687	0.5809	-0.08
Mof_N 	N 	0.4223	0.40511	0.5089	-0.067
Mof_N 	N 	0.3833	0.37661	0.4309	-0.069
Mof_N 	N 	0.3605	0.32086	0.4511	-0.088
Mof_N 	N 	0.3639	0.51183	0.3681	-0.115
Mof_N 	N 	0.3022	0.55254	0.3478	-0.032
Mof_N 	N 	0.2428	0.5928	0.3269	-0.059
Mof_Cd	Cd	0.36417	0.07445	0.78366	0.364
Mof_C 	C 	0.0625	0.0948	0.7253	0.086
Mof_H 	H 	0.0854	0.1084	0.6695	0.006
Mof_C 	C 	0.9404	0.0923	0.734	-0.136
Mof_H 	H 	0.8828	0.1042	0.6852	0.09
Mof_C 	C 	0.9034	0.07188	0.816	0.07
Mof_C 	C 	0.9945	0.0566	0.8866	-0.134
Mof_H 	H 	0.9743	0.0436	0.9436	0.094
Mof_C 	C 	0.1138	0.0607	0.872	0.09
Mof_H 	H 	0.1732	0.0503	0.9206	0.019
Mof_C 	C 	0.775	0.0643	0.8307	0.095
Mof_C 	C 	0.4179	0.2909	0.2374	0.095
Mof_H 	H 	0.4478	0.2917	0.3003	0.015
Mof_C 	C 	0.4227	0.2391	0.1908	-0.151
Mof_H 	H 	0.4538	0.2056	0.2219	0.099
Mof_C 	C 	0.3808	0.23685	0.0968	0.09
Mof_C 	C 	0.3342	0.28795	0.0547	-0.177
Mof_H 	H 	0.3046	0.2884	0.9917	0.114
Mof_C 	C 	0.3322	0.33837	0.1075	0.104
Mof_H 	H 	0.3006	0.3725	0.0783	-0.007
Mof_C 	C 	0.3877	0.18283	0.0434	0.076
Mof_N 	N 	0.1507	0.07878	0.7924	-0.154
Mof_N 	N 	0.7433	0.03906	0.9074	-0.083
Mof_N 	N 	0.6231	0.03992	0.8953	-0.065
Mof_N 	N 	0.5824	0.06522	0.814	-0.069
Mof_N 	N 	0.678	0.08104	0.7716	-0.086
Mof_N 	N 	0.3729	0.34078	0.1979	-0.163
Mof_N 	N 	0.4267	0.1313	0.0809	-0.08
Mof_N 	N 	0.4223	0.09489	0.0089	-0.074
Mof_N 	N 	0.3833	0.12339	0.9309	-0.064
Mof_N 	N 	0.3605	0.17914	0.9511	-0.08
Mof_N 	N 	0.3639	0.98817	0.8681	-0.104
Mof_N 	N 	0.3022	0.94746	0.8478	-0.028
Mof_N 	N 	0.2428	0.9072	0.8269	-0.054
Mof_Cd	Cd	0.63583	0.57445	0.71634	0.369
Mof_C 	C 	0.9375	0.5948	0.7747	0.088
Mof_H 	H 	0.9146	0.6084	0.8305	0.008
Mof_C 	C 	0.0596	0.5923	0.766	-0.136
Mof_H 	H 	0.1172	0.6042	0.8148	0.093
Mof_C 	C 	0.0966	0.57188	0.684	0.071
Mof_C 	C 	0.0055	0.5566	0.6134	-0.134
Mof_H 	H 	0.0257	0.5436	0.5564	0.093
Mof_C 	C 	0.8862	0.5607	0.628	0.091
Mof_H 	H 	0.8268	0.5503	0.5794	0.019
Mof_C 	C 	0.225	0.5643	0.6693	0.095
Mof_C 	C 	0.5821	0.7909	0.2626	0.088
Mof_H 	H 	0.5522	0.7917	0.1997	0.017
Mof_C 	C 	0.5773	0.7391	0.3092	-0.137
Mof_H 	H 	0.5462	0.7056	0.2781	0.095
Mof_C 	C 	0.6192	0.73685	0.4032	0.071
Mof_C 	C 	0.6658	0.78795	0.4453	-0.136
Mof_H 	H 	0.6954	0.7884	0.5083	0.092
Mof_C 	C 	0.6678	0.83837	0.3925	0.086
Mof_H 	H 	0.6994	0.8725	0.4217	0.005
Mof_C 	C 	0.6123	0.68283	0.4566	0.094
Mof_N 	N 	0.8493	0.57878	0.7076	-0.153
Mof_N 	N 	0.2567	0.53906	0.5926	-0.084
Mof_N 	N 	0.3769	0.53992	0.6047	-0.067
Mof_N 	N 	0.4176	0.56522	0.686	-0.069
Mof_N 	N 	0.322	0.58104	0.7284	-0.085
Mof_N 	N 	0.6271	0.84078	0.3021	-0.158
Mof_N 	N 	0.5733	0.6313	0.4191	-0.081
Mof_N 	N 	0.5777	0.59489	0.4911	-0.067
Mof_N 	N 	0.6167	0.62339	0.5691	-0.069
Mof_N 	N 	0.6395	0.67914	0.5489	-0.088
Mof_N 	N 	0.6361	0.48817	0.6319	-0.115
Mof_N 	N 	0.6978	0.44746	0.6522	-0.031
Mof_N 	N 	0.7572	0.4072	0.6731	-0.057
Mof_Cd	Cd	0.5	0	-0	0.381
Mof_Cd	Cd	0.5	0.5	0.5	0.405
_end
