data_functionalizedCrystal
_audit_creation_method	'EQeq! by Chris Wilmer'
_symmetry_space_group_name_H-M	'P1'
_symmetry_Int_Tables_number	1
_symmetry_cell_setting	triclinic
loop_
_symmetry_equiv_pos_as_xyz
  x,y,z
_cell_length_a	7.8022
_cell_length_b	11.1795
_cell_length_c	13.4306
_cell_angle_alpha	114.595
_cell_angle_beta	102.582
_cell_angle_gamma	90
loop_
_atom_site_label
_atom_site_type_symbol
_atom_site_fract_x
_atom_site_fract_y
_atom_site_fract_z
_atom_site_charge
Mof_Zr	Zr	0.67802	0.03151	0.11366	3.2
Mof_Zr	Zr	0.82232	0.91885	0.8864	3.202
Mof_Zr	Zr	0.32232	0.96827	0.88647	3.203
Mof_Zr	Zr	0.17806	0.08188	0.11366	3.201
Mof_C 	C 	0.46817	0.04361	0.29562	0.469
Mof_C 	C 	0.48581	0.02304	0.40111	-0.118
Mof_C 	C 	0.6194	0.95149	0.43218	0.014
Mof_C 	C 	0.36637	0.07137	0.47055	0
Mof_C 	C 	0.78517	0.49062	0.90907	-0.016
Mof_C 	C 	0.78415	0.36565	0.9101	0.064
Mof_C 	C 	0.03185	0.74775	0.70395	0.498
Mof_C 	C 	0.01393	0.62149	0.59854	-0.118
Mof_C 	C 	0.87948	0.51932	0.56719	0.007
Mof_C 	C 	0.13414	0.5997	0.52952	0.002
Mof_C 	C 	0.71351	0.58131	0.09513	-0.031
Mof_C 	C 	0.71471	0.45551	0.09359	0.03
Mof_C 	C 	0.53172	0.95697	0.70414	0.468
Mof_C 	C 	0.51382	0.97757	0.59864	-0.122
Mof_C 	C 	0.38018	0.0491	0.56756	0.019
Mof_C 	C 	0.63325	0.92926	0.52919	0.002
Mof_C 	C 	0.21525	0.50955	0.09124	0.01
Mof_C 	C 	0.21561	0.63516	0.0914	0.007
Mof_C 	C 	0.96812	0.25188	0.2959	0.495
Mof_C 	C 	0.98583	0.3781	0.4013	-0.122
Mof_C 	C 	0.12024	0.48028	0.43265	0.011
Mof_C 	C 	0.86562	0.39986	0.47032	0.004
Mof_C 	C 	0.2851	0.41843	0.90887	0.049
Mof_C 	C 	0.2845	0.5439	0.90874	0.022
Mof_C 	C 	0.74975	0.21215	0.00073	0.411
Mof_C 	C 	0.75058	0.73474	0.99935	0.492
Mof_C 	C 	0.75051	0.60146	0.99929	-0.078
Mof_C 	C 	0.74955	0.34626	0.00145	-0.15
Mof_C 	C 	0.24989	0.78819	8e-05	0.464
Mof_C 	C 	0.25029	0.26549	3e-05	0.438
Mof_C 	C 	0.25022	0.39928	5e-05	-0.147
Mof_C 	C 	0.24997	0.65431	7e-05	-0.131
Mof_O 	O 	0.71483	0.19991	0.08541	-0.774
Mof_O 	O 	0.58161	0.99567	0.23596	-0.69
Mof_O 	O 	0.4179	0.08843	0.05829	-1.295
Mof_O 	O 	0.69987	0.8296	0.07972	-0.66
Mof_O 	O 	0.33907	0.10568	0.27044	-0.739
Mof_O 	O 	0.78475	0.11584	0.91561	-0.723
Mof_O 	O 	0.9161	0.76092	0.76235	-0.721
Mof_O 	O 	0.08271	0.03067	0.94185	-1.213
Mof_O 	O 	0.80126	0.75003	0.91928	-0.665
Mof_O 	O 	0.1629	0.83376	0.72981	-0.75
Mof_O 	O 	0.28507	0.80004	0.91525	-0.772
Mof_O 	O 	0.41659	0.0029	0.7629	-0.683
Mof_O 	O 	0.58265	0.91168	0.94172	-1.268
Mof_O 	O 	0.30116	0.17025	0.9199	-0.604
Mof_O 	O 	0.66238	0.89641	0.72982	-0.739
Mof_O 	O 	0.21467	0.88482	0.08493	-0.77
Mof_O 	O 	0.0824	0.23969	0.23669	-0.721
Mof_O 	O 	0.91784	0.96975	0.05814	-1.246
Mof_O 	O 	0.19934	0.25034	0.08012	-0.664
Mof_O 	O 	0.83836	0.16501	0.27049	-0.75
Mof_H 	H 	0.71369	0.9119	0.38122	0.044
Mof_H 	H 	0.26124	0.12654	0.44994	0.041
Mof_H 	H 	0.8132	0.50009	0.83702	0.054
Mof_H 	H 	0.81154	0.28324	0.83842	0.037
Mof_H 	H 	0.78461	0.5312	0.61785	0.043
Mof_H 	H 	0.23993	0.67507	0.55032	0.039
Mof_H 	H 	0.6854	0.66327	0.16681	0.056
Mof_H 	H 	0.68739	0.44375	0.16485	0.041
Mof_H 	H 	0.28594	0.0887	0.61855	0.045
Mof_H 	H 	0.7384	0.87409	0.54976	0.04
Mof_H 	H 	0.18759	0.49903	0.16295	0.046
Mof_H 	H 	0.18822	0.71732	0.16324	0.045
Mof_H 	H 	0.21515	0.46842	0.38202	0.042
Mof_H 	H 	0.75984	0.32447	0.4495	0.038
Mof_H 	H 	0.31287	0.33627	0.83717	0.043
Mof_H 	H 	0.31184	0.55428	0.8369	0.044
_end
