data_functionalizedCrystal
_audit_creation_method	'EQeq! by Chris Wilmer'
_symmetry_space_group_name_H-M	'P1'
_symmetry_Int_Tables_number	1
_symmetry_cell_setting	triclinic
loop_
_symmetry_equiv_pos_as_xyz
  x,y,z
_cell_length_a	7.7113
_cell_length_b	23.1896
_cell_length_c	23.1896
_cell_angle_alpha	61.212
_cell_angle_beta	83.636
_cell_angle_gamma	96.364
loop_
_atom_site_label
_atom_site_type_symbol
_atom_site_fract_x
_atom_site_fract_y
_atom_site_fract_z
_atom_site_charge
Mof_Cd	Cd	0.25386	0.47577	0.56294	0.513
Mof_Cd	Cd	0.81692	0.52212	0.59915	0.472
Mof_Cd	Cd	0.8168	0.56294	0.96129	0.511
Mof_Cd	Cd	0.41607	0.59915	0.87873	0.472
Mof_Cd	Cd	0.77809	0.96129	0.47577	0.511
Mof_Cd	Cd	0.2948	0.87873	0.52212	0.472
Mof_Cd	Cd	0.74614	0.52423	0.43706	0.513
Mof_Cd	Cd	0.18308	0.47788	0.40085	0.472
Mof_Cd	Cd	0.1832	0.43706	0.03871	0.511
Mof_Cd	Cd	0.58393	0.40085	0.12127	0.472
Mof_Cd	Cd	0.22191	0.03871	0.52423	0.511
Mof_Cd	Cd	0.7052	0.12127	0.47788	0.472
Mof_H 	H 	0.0299	0.2993	0.6097	0.142
Mof_H 	H 	0.6034	0.2073	0.758	0.273
Mof_H 	H 	0.4638	0.2957	0.7018	0.076
Mof_H 	H 	0.8864	0.1705	0.6237	0.176
Mof_H 	H 	0.4738	0.1677	0.6404	0.04
Mof_H 	H 	0.2855	0.1806	0.7157	0.241
Mof_H 	H 	0.6396	0.6097	0.091	0.146
Mof_H 	H 	0.3614	0.758	0.0347	0.274
Mof_H 	H 	0.1656	0.7018	0.0025	0.075
Mof_H 	H 	0.5101	0.6237	0.2058	0.172
Mof_H 	H 	0.1142	0.6404	0.1919	0.041
Mof_H 	H 	0.0012	0.7157	0.1037	0.242
Mof_H 	H 	0.7306	0.091	0.2993	0.146
Mof_H 	H 	0.3961	0.0347	0.2073	0.274
Mof_H 	H 	0.1681	0.0025	0.2957	0.075
Mof_H 	H 	0.7159	0.2058	0.1705	0.173
Mof_H 	H 	0.3061	0.1919	0.1677	0.04
Mof_H 	H 	0.1049	0.1037	0.1806	0.242
Mof_H 	H 	0.9701	0.7007	0.3903	0.142
Mof_H 	H 	0.3966	0.7927	0.242	0.273
Mof_H 	H 	0.5362	0.7043	0.2982	0.076
Mof_H 	H 	0.1136	0.8295	0.3763	0.176
Mof_H 	H 	0.5262	0.8323	0.3596	0.04
Mof_H 	H 	0.7145	0.8194	0.2843	0.241
Mof_H 	H 	0.3604	0.3903	0.909	0.146
Mof_H 	H 	0.6386	0.242	0.9653	0.274
Mof_H 	H 	0.8344	0.2982	0.9975	0.075
Mof_H 	H 	0.4899	0.3763	0.7942	0.172
Mof_H 	H 	0.8858	0.3596	0.8081	0.041
Mof_H 	H 	0.9988	0.2843	0.8963	0.242
Mof_H 	H 	0.2694	0.909	0.7007	0.146
Mof_H 	H 	0.6039	0.9653	0.7927	0.274
Mof_H 	H 	0.8319	0.9975	0.7043	0.075
Mof_H 	H 	0.2841	0.7942	0.8295	0.173
Mof_H 	H 	0.6939	0.8081	0.8323	0.04
Mof_H 	H 	0.8951	0.8963	0.8194	0.242
Mof_C 	C 	0.55554	0.40485	0.58643	0.337
Mof_C 	C 	0.65658	0.34921	0.62007	-0.122
Mof_C 	C 	0.82799	0.35012	0.59275	0.077
Mof_C 	C 	0.91407	0.29762	0.62761	-0.215
Mof_C 	C 	0.82865	0.24226	0.68931	0.344
Mof_C 	C 	0.66065	0.24292	0.71637	-0.249
Mof_C 	C 	0.57636	0.29594	0.68236	0.149
Mof_C 	C 	0.91789	0.40319	0.52372	0.255
Mof_C 	C 	0.92748	0.18468	0.72674	-0.483
Mof_C 	C 	0.06378	0.17651	0.67867	0.364
Mof_C 	C 	0.00411	0.16829	0.62836	-0.239
Mof_C 	C 	0.11426	0.15695	0.58447	0.096
Mof_C 	C 	0.29296	0.15736	0.58818	-0.119
Mof_C 	C 	0.35434	0.16698	0.63746	0.177
Mof_C 	C 	0.24122	0.1755	0.68234	-0.249
Mof_C 	C 	0.03315	0.14635	0.5331	0.265
Mof_C 	C 	0.42842	0.14828	0.54232	0.335
Mof_C 	C 	0.79465	0.11645	0.7684	0.964
Mof_C 	C 	0.0135	0.19944	0.77624	0.973
Mof_C 	C 	0.14197	0.58643	0.00872	0.335
Mof_C 	C 	0.27665	0.62007	0.03072	-0.124
Mof_C 	C 	0.42074	0.59275	0.05713	0.08
Mof_C 	C 	0.54168	0.62761	0.07477	-0.222
Mof_C 	C 	0.51796	0.68931	0.06843	0.347
Mof_C 	C 	0.37702	0.71637	0.04071	-0.251
Mof_C 	C 	0.25872	0.68236	0.0217	0.151
Mof_C 	C 	0.44161	0.52372	0.07309	0.253
Mof_C 	C 	0.65422	0.72674	0.08858	-0.488
Mof_C 	C 	0.74245	0.67867	0.14482	0.366
Mof_C 	C 	0.63247	0.62836	0.20335	-0.233
Mof_C 	C 	0.69873	0.58447	0.25858	0.093
Mof_C 	C 	0.88114	0.58818	0.25446	-0.118
Mof_C 	C 	0.9918	0.63746	0.19556	0.176
Mof_C 	C 	0.92356	0.68234	0.14216	-0.25
Mof_C 	C 	0.56625	0.5331	0.32055	0.269
Mof_C 	C 	0.97074	0.54232	0.3094	0.334
Mof_C 	C 	0.56305	0.7684	0.11515	0.965
Mof_C 	C 	0.78974	0.77624	0.02432	0.978
Mof_C 	C 	0.15069	0.00872	0.40485	0.336
Mof_C 	C 	0.30737	0.03072	0.34921	-0.124
Mof_C 	C 	0.47787	0.05713	0.35012	0.08
Mof_C 	C 	0.61645	0.07477	0.29762	-0.222
Mof_C 	C 	0.58639	0.06843	0.24226	0.347
Mof_C 	C 	0.41773	0.04071	0.24292	-0.251
Mof_C 	C 	0.28042	0.0217	0.29594	0.15
Mof_C 	C 	0.5147	0.07309	0.40319	0.253
Mof_C 	C 	0.7428	0.08858	0.18468	-0.488
Mof_C 	C 	0.88727	0.14482	0.17651	0.366
Mof_C 	C 	0.83582	0.20335	0.16829	-0.233
Mof_C 	C 	0.95731	0.25858	0.15695	0.094
Mof_C 	C 	0.1356	0.25446	0.15736	-0.119
Mof_C 	C 	0.18736	0.19556	0.16698	0.178
Mof_C 	C 	0.06572	0.14216	0.1755	-0.25
Mof_C 	C 	0.8868	0.32055	0.14635	0.269
Mof_C 	C 	0.28014	0.3094	0.14828	0.335
Mof_C 	C 	0.6782	0.11515	0.11645	0.965
Mof_C 	C 	0.81406	0.02432	0.19944	0.977
Mof_C 	C 	0.44446	0.59515	0.41357	0.337
Mof_C 	C 	0.34342	0.65079	0.37993	-0.122
Mof_C 	C 	0.17201	0.64988	0.40725	0.077
Mof_C 	C 	0.08593	0.70238	0.37239	-0.215
Mof_C 	C 	0.17135	0.75774	0.31069	0.344
Mof_C 	C 	0.33935	0.75708	0.28363	-0.249
Mof_C 	C 	0.42364	0.70406	0.31764	0.149
Mof_C 	C 	0.08211	0.59681	0.47628	0.255
Mof_C 	C 	0.07252	0.81532	0.27326	-0.483
Mof_C 	C 	0.93622	0.82349	0.32133	0.364
Mof_C 	C 	0.99589	0.83171	0.37164	-0.239
Mof_C 	C 	0.88574	0.84305	0.41553	0.096
Mof_C 	C 	0.70704	0.84264	0.41182	-0.119
Mof_C 	C 	0.64566	0.83302	0.36254	0.177
Mof_C 	C 	0.75878	0.8245	0.31766	-0.249
Mof_C 	C 	0.96685	0.85365	0.4669	0.265
Mof_C 	C 	0.57158	0.85172	0.45768	0.335
Mof_C 	C 	0.20535	0.88355	0.2316	0.964
Mof_C 	C 	0.9865	0.80056	0.22376	0.973
Mof_C 	C 	0.85803	0.41357	0.99128	0.335
Mof_C 	C 	0.72335	0.37993	0.96928	-0.124
Mof_C 	C 	0.57926	0.40725	0.94287	0.08
Mof_C 	C 	0.45832	0.37239	0.92523	-0.222
Mof_C 	C 	0.48204	0.31069	0.93157	0.347
Mof_C 	C 	0.62298	0.28363	0.95929	-0.251
Mof_C 	C 	0.74128	0.31764	0.9783	0.151
Mof_C 	C 	0.55839	0.47628	0.92691	0.253
Mof_C 	C 	0.34578	0.27326	0.91142	-0.488
Mof_C 	C 	0.25755	0.32133	0.85518	0.366
Mof_C 	C 	0.36753	0.37164	0.79665	-0.233
Mof_C 	C 	0.30127	0.41553	0.74142	0.093
Mof_C 	C 	0.11886	0.41182	0.74554	-0.118
Mof_C 	C 	0.0082	0.36254	0.80444	0.176
Mof_C 	C 	0.07644	0.31766	0.85784	-0.25
Mof_C 	C 	0.43375	0.4669	0.67945	0.269
Mof_C 	C 	0.02926	0.45768	0.6906	0.334
Mof_C 	C 	0.43695	0.2316	0.88485	0.965
Mof_C 	C 	0.21026	0.22376	0.97568	0.978
Mof_C 	C 	0.84931	0.99128	0.59515	0.336
Mof_C 	C 	0.69263	0.96928	0.65079	-0.124
Mof_C 	C 	0.52213	0.94287	0.64988	0.08
Mof_C 	C 	0.38355	0.92523	0.70238	-0.222
Mof_C 	C 	0.41361	0.93157	0.75774	0.347
Mof_C 	C 	0.58227	0.95929	0.75708	-0.251
Mof_C 	C 	0.71958	0.9783	0.70406	0.15
Mof_C 	C 	0.4853	0.92691	0.59681	0.253
Mof_C 	C 	0.2572	0.91142	0.81532	-0.488
Mof_C 	C 	0.11273	0.85518	0.82349	0.366
Mof_C 	C 	0.16418	0.79665	0.83171	-0.233
Mof_C 	C 	0.04269	0.74142	0.84305	0.094
Mof_C 	C 	0.8644	0.74554	0.84264	-0.119
Mof_C 	C 	0.81264	0.80444	0.83302	0.178
Mof_C 	C 	0.93428	0.85784	0.8245	-0.25
Mof_C 	C 	0.1132	0.67945	0.85365	0.269
Mof_C 	C 	0.71986	0.6906	0.85172	0.335
Mof_C 	C 	0.3218	0.88485	0.88355	0.965
Mof_C 	C 	0.18594	0.97568	0.80056	0.977
Mof_O 	O 	0.64104	0.4649	0.55078	-0.297
Mof_O 	O 	0.39008	0.3892	0.59766	-0.264
Mof_O 	O 	0.83559	0.41884	0.47577	-0.247
Mof_O 	O 	0.07971	0.42935	0.51412	-0.28
Mof_O 	O 	0.86977	0.1473	0.53579	-0.25
Mof_O 	O 	0.12807	0.13656	0.49265	-0.253
Mof_O 	O 	0.53606	0.19669	0.49761	-0.25
Mof_O 	O 	0.43769	0.08798	0.55561	-0.273
Mof_O 	O 	0.19182	0.55078	0.98432	-0.296
Mof_O 	O 	0.98774	0.59766	0.01314	-0.262
Mof_O 	O 	0.31136	0.47577	0.10539	-0.247
Mof_O 	O 	0.59383	0.51412	0.05653	-0.279
Mof_O 	O 	0.40556	0.53579	0.31691	-0.253
Mof_O 	O 	0.62072	0.49265	0.37079	-0.254
Mof_O 	O 	0.03367	0.49761	0.3057	-0.249
Mof_O 	O 	0.9933	0.55561	0.35641	-0.273
Mof_O 	O 	0.17614	0.98432	0.4649	-0.296
Mof_O 	O 	0.00088	0.01314	0.3892	-0.264
Mof_O 	O 	0.41675	0.10539	0.41884	-0.247
Mof_O 	O 	0.65036	0.05653	0.42935	-0.279
Mof_O 	O 	0.72247	0.31691	0.1473	-0.252
Mof_O 	O 	0.99151	0.37079	0.13656	-0.253
Mof_O 	O 	0.33937	0.3057	0.19669	-0.25
Mof_O 	O 	0.34971	0.35641	0.08798	-0.273
Mof_O 	O 	0.35896	0.5351	0.44922	-0.297
Mof_O 	O 	0.60992	0.6108	0.40234	-0.264
Mof_O 	O 	0.16441	0.58116	0.52423	-0.247
Mof_O 	O 	0.92029	0.57065	0.48588	-0.28
Mof_O 	O 	0.13023	0.8527	0.46421	-0.25
Mof_O 	O 	0.87193	0.86344	0.50735	-0.253
Mof_O 	O 	0.46394	0.80331	0.50239	-0.25
Mof_O 	O 	0.56231	0.91202	0.44439	-0.273
Mof_O 	O 	0.80818	0.44922	0.01568	-0.296
Mof_O 	O 	0.01226	0.40234	0.98686	-0.262
Mof_O 	O 	0.68864	0.52423	0.89461	-0.247
Mof_O 	O 	0.40617	0.48588	0.94347	-0.279
Mof_O 	O 	0.59444	0.46421	0.68309	-0.253
Mof_O 	O 	0.37928	0.50735	0.62921	-0.254
Mof_O 	O 	0.96633	0.50239	0.6943	-0.249
Mof_O 	O 	0.0067	0.44439	0.64359	-0.273
Mof_O 	O 	0.82386	0.01568	0.5351	-0.296
Mof_O 	O 	0.99912	0.98686	0.6108	-0.264
Mof_O 	O 	0.58325	0.89461	0.58116	-0.247
Mof_O 	O 	0.34964	0.94347	0.57065	-0.279
Mof_O 	O 	0.27753	0.68309	0.8527	-0.252
Mof_O 	O 	0.00849	0.62921	0.86344	-0.253
Mof_O 	O 	0.66063	0.6943	0.80331	-0.25
Mof_O 	O 	0.65029	0.64359	0.91202	-0.273
Mof_F 	F 	0.87721	0.06497	0.78784	-0.392
Mof_F 	F 	0.69766	0.10918	0.8238	-0.355
Mof_F 	F 	0.67864	0.10984	0.73212	-0.478
Mof_F 	F 	0.08752	0.1492	0.81654	-0.361
Mof_F 	F 	0.89801	0.21067	0.81504	-0.399
Mof_F 	F 	0.14034	0.25437	0.74285	-0.492
Mof_F 	F 	0.66505	0.78784	0.14719	-0.393
Mof_F 	F 	0.52146	0.8238	0.06702	-0.356
Mof_F 	F 	0.41076	0.73212	0.15804	-0.478
Mof_F 	F 	0.90406	0.81654	0.03426	-0.361
Mof_F 	F 	0.71305	0.81504	0.97429	-0.402
Mof_F 	F 	0.88319	0.74285	0.00278	-0.492
Mof_F 	F 	0.81224	0.14719	0.06497	-0.393
Mof_F 	F 	0.58848	0.06702	0.10918	-0.356
Mof_F 	F 	0.5688	0.15804	0.10984	-0.478
Mof_F 	F 	0.93832	0.03426	0.1492	-0.362
Mof_F 	F 	0.68734	0.97429	0.21067	-0.401
Mof_F 	F 	0.88597	0.00278	0.25437	-0.493
Mof_F 	F 	0.12279	0.93503	0.21216	-0.392
Mof_F 	F 	0.30234	0.89082	0.1762	-0.355
Mof_F 	F 	0.32136	0.89016	0.26788	-0.478
Mof_F 	F 	0.91248	0.8508	0.18346	-0.361
Mof_F 	F 	0.10199	0.78933	0.18496	-0.399
Mof_F 	F 	0.85966	0.74563	0.25715	-0.492
Mof_F 	F 	0.33495	0.21216	0.85281	-0.393
Mof_F 	F 	0.47854	0.1762	0.93298	-0.356
Mof_F 	F 	0.58924	0.26788	0.84196	-0.478
Mof_F 	F 	0.09594	0.18346	0.96574	-0.361
Mof_F 	F 	0.28695	0.18496	0.02571	-0.402
Mof_F 	F 	0.11681	0.25715	0.99722	-0.492
Mof_F 	F 	0.18776	0.85281	0.93503	-0.393
Mof_F 	F 	0.41152	0.93298	0.89082	-0.356
Mof_F 	F 	0.4312	0.84196	0.89016	-0.478
Mof_F 	F 	0.06168	0.96574	0.8508	-0.362
Mof_F 	F 	0.31266	0.02571	0.78933	-0.401
Mof_F 	F 	0.11403	0.99722	0.74563	-0.493
_end
