data_functionalizedCrystal
_audit_creation_method	'EQeq! by Chris Wilmer'
_symmetry_space_group_name_H-M	'P1'
_symmetry_Int_Tables_number	1
_symmetry_cell_setting	triclinic
loop_
_symmetry_equiv_pos_as_xyz
  x,y,z
_cell_length_a	14.6675
_cell_length_b	14.6675
_cell_length_c	14.6675
_cell_angle_alpha	60
_cell_angle_beta	60
_cell_angle_gamma	60
loop_
_atom_site_label
_atom_site_type_symbol
_atom_site_fract_x
_atom_site_fract_y
_atom_site_fract_z
_atom_site_charge
Mof_C 	C 	0.9198	0.0802	0.4484	0.08
Mof_O 	O 	0.9234	0.0766	0.2686	-0.617
Mof_H 	H 	0.85249	0.14751	0.40954	0.032
Mof_C 	C 	0.0802	0.9198	0.5516	0.086
Mof_O 	O 	0.0766	0.9234	0.7314	-0.597
Mof_H 	H 	0.14751	0.85249	0.59046	0.032
Mof_C 	C 	0.4484	0.5516	0.9198	0.093
Mof_O 	O 	0.2686	0.7314	0.9234	-0.608
Mof_H 	H 	0.40954	0.59046	0.85249	0.035
Mof_C 	C 	0.5516	0.4484	0.0802	0.017
Mof_O 	O 	0.7314	0.2686	0.0766	-0.678
Mof_H 	H 	0.59046	0.40954	0.14751	0.04
Mof_C 	C 	0.4484	0.9198	0.0802	0.081
Mof_O 	O 	0.2686	0.9234	0.0766	-0.616
Mof_H 	H 	0.40954	0.85249	0.14751	0.033
Mof_C 	C 	0.5516	0.0802	0.9198	0.087
Mof_O 	O 	0.7314	0.0766	0.9234	-0.596
Mof_H 	H 	0.59046	0.14751	0.85249	0.033
Mof_C 	C 	0.9198	0.4484	0.5516	0.094
Mof_O 	O 	0.9234	0.2686	0.7314	-0.607
Mof_H 	H 	0.85249	0.40954	0.59046	0.036
Mof_C 	C 	0.0802	0.5516	0.4484	0.018
Mof_O 	O 	0.0766	0.7314	0.2686	-0.677
Mof_H 	H 	0.14751	0.59046	0.40954	0.04
Mof_C 	C 	0.0802	0.4484	0.9198	0.081
Mof_O 	O 	0.0766	0.2686	0.9234	-0.616
Mof_H 	H 	0.14751	0.40954	0.85249	0.033
Mof_C 	C 	0.9198	0.5516	0.0802	0.087
Mof_O 	O 	0.9234	0.7314	0.0766	-0.596
Mof_H 	H 	0.85249	0.59046	0.14751	0.033
Mof_C 	C 	0.5516	0.9198	0.4484	0.094
Mof_O 	O 	0.7314	0.9234	0.2686	-0.607
Mof_H 	H 	0.59046	0.85249	0.40954	0.036
Mof_C 	C 	0.4484	0.0802	0.5516	0.018
Mof_O 	O 	0.2686	0.0766	0.7314	-0.677
Mof_H 	H 	0.40954	0.14751	0.59046	0.04
Mof_C 	C 	0.0802	0.9198	0.4484	0.081
Mof_O 	O 	0.0766	0.9234	0.2686	-0.616
Mof_H 	H 	0.14751	0.85249	0.40954	0.033
Mof_C 	C 	0.9198	0.0802	0.5516	0.087
Mof_O 	O 	0.9234	0.0766	0.7314	-0.596
Mof_H 	H 	0.85249	0.14751	0.59046	0.033
Mof_C 	C 	0.5516	0.4484	0.9198	0.094
Mof_O 	O 	0.7314	0.2686	0.9234	-0.607
Mof_H 	H 	0.59046	0.40954	0.85249	0.036
Mof_C 	C 	0.4484	0.5516	0.0802	0.018
Mof_O 	O 	0.2686	0.7314	0.0766	-0.677
Mof_H 	H 	0.40954	0.59046	0.14751	0.04
Mof_C 	C 	0.9198	0.4484	0.0802	0.081
Mof_O 	O 	0.9234	0.2686	0.0766	-0.616
Mof_H 	H 	0.85249	0.40954	0.14751	0.033
Mof_C 	C 	0.0802	0.5516	0.9198	0.087
Mof_O 	O 	0.0766	0.7314	0.9234	-0.596
Mof_H 	H 	0.14751	0.59046	0.85249	0.033
Mof_C 	C 	0.4484	0.9198	0.5516	0.094
Mof_O 	O 	0.2686	0.9234	0.7314	-0.607
Mof_H 	H 	0.40954	0.85249	0.59046	0.036
Mof_C 	C 	0.5516	0.0802	0.4484	0.018
Mof_O 	O 	0.7314	0.0766	0.2686	-0.677
Mof_H 	H 	0.59046	0.14751	0.40954	0.04
Mof_C 	C 	0.4484	0.0802	0.9198	0.081
Mof_O 	O 	0.2686	0.0766	0.9234	-0.616
Mof_H 	H 	0.40954	0.14751	0.85249	0.033
Mof_C 	C 	0.5516	0.9198	0.0802	0.087
Mof_O 	O 	0.7314	0.9234	0.0766	-0.596
Mof_H 	H 	0.59046	0.85249	0.14751	0.033
Mof_C 	C 	0.9198	0.5516	0.4484	0.094
Mof_O 	O 	0.9234	0.7314	0.2686	-0.607
Mof_H 	H 	0.85249	0.59046	0.40954	0.036
Mof_C 	C 	0.0802	0.4484	0.5516	0.018
Mof_O 	O 	0.0766	0.2686	0.7314	-0.677
Mof_H 	H 	0.14751	0.40954	0.59046	0.04
Mof_Zr	Zr	0.8796	0.1204	0.1204	3.213
Mof_Zr	Zr	0.1204	0.8796	0.8796	3.218
Mof_Zr	Zr	0.1204	0.8796	0.1204	3.213
Mof_Zr	Zr	0.8796	0.1204	0.8796	3.218
Mof_Zr	Zr	0.1204	0.1204	0.8796	3.213
Mof_Zr	Zr	0.8796	0.8796	0.1204	3.218
Mof_C 	C 	-2.54757e-17	1.27379e-17	0.2946	0.429
Mof_C 	C 	-1.27379e-17	0	0.4038	-0.235
Mof_C 	C 	2.54757e-17	5.09515e-17	0.7054	0.395
Mof_C 	C 	-2.54757e-17	0	0.5962	-0.237
Mof_C 	C 	0.2946	0.7054	-0	0.489
Mof_C 	C 	0.4038	0.5962	-0	-0.18
Mof_C 	C 	0.7054	0.2946	-0	0.489
Mof_C 	C 	0.5962	0.4038	-0	-0.18
Mof_C 	C 	0.2946	0	-0	0.429
Mof_C 	C 	0.4038	0	-0	-0.235
Mof_C 	C 	0.7054	0	-0	0.395
Mof_C 	C 	0.5962	0	-0	-0.237
Mof_C 	C 	2.54757e-17	0.2946	0.7054	0.489
Mof_C 	C 	2.54757e-17	0.4038	0.5962	-0.18
Mof_C 	C 	-1.27379e-17	0.7054	0.2946	0.489
Mof_C 	C 	1.27379e-17	0.5962	0.4038	-0.18
Mof_C 	C 	-0	0.2946	-0	0.429
Mof_C 	C 	-0	0.4038	-0	-0.235
Mof_C 	C 	5.09515e-17	0.7054	-0	0.395
Mof_C 	C 	-5.09515e-17	0.5962	-0	-0.237
Mof_C 	C 	0.7054	1.27379e-17	0.2946	0.489
Mof_C 	C 	0.5962	0	0.4038	-0.18
Mof_C 	C 	0.2946	5.09515e-17	0.7054	0.489
Mof_C 	C 	0.4038	0	0.5962	-0.18
Mof_O 	O 	0.9439	0.1683	0.9439	-1.149
Mof_O 	O 	0.0561	0.8317	0.0561	-1.338
Mof_O 	O 	0.1683	0.9439	0.9439	-1.149
Mof_O 	O 	0.8317	0.0561	0.0561	-1.338
Mof_O 	O 	0.9439	0.9439	0.9439	-1.072
Mof_O 	O 	0.0561	0.0561	0.0561	-1.36
Mof_O 	O 	0.9439	0.9439	0.1683	-1.149
Mof_O 	O 	0.0561	0.0561	0.8317	-1.338
Mof_H 	H 	0.092	0.092	0.092	0.034
Mof_H 	H 	0.092	0.092	0.724	0.037
Mof_H 	H 	0.092	0.724	0.092	0.037
Mof_H 	H 	0.724	0.092	0.092	0.037
_end
