data_functionalizedCrystal
_audit_creation_method	'EQeq! by Chris Wilmer'
_symmetry_space_group_name_H-M	'P1'
_symmetry_Int_Tables_number	1
_symmetry_cell_setting	triclinic
loop_
_symmetry_equiv_pos_as_xyz
  x,y,z
_cell_length_a	19.0289
_cell_length_b	19.0289
_cell_length_c	21.9107
_cell_angle_alpha	90
_cell_angle_beta	90
_cell_angle_gamma	90
loop_
_atom_site_label
_atom_site_type_symbol
_atom_site_fract_x
_atom_site_fract_y
_atom_site_fract_z
_atom_site_charge
Mof_Cu	Cu	0.78601	0.77732	0.5826	0.905
Mof_Cu	Cu	0.27773	0.28672	0.67501	0.902
Mof_Cu	Cu	0.21399	0.22268	0.5826	0.905
Mof_Cu	Cu	0.72227	0.71328	0.67501	0.902
Mof_Cu	Cu	0.22268	0.78601	0.5826	0.905
Mof_Cu	Cu	0.71328	0.27773	0.67501	0.902
Mof_Cu	Cu	0.77732	0.21399	0.5826	0.905
Mof_Cu	Cu	0.28672	0.72227	0.67501	0.902
Mof_H 	H 	0.1098	0.6924	0.7904	0.069
Mof_H 	H 	0.0037	0.751	0.6402	0.06
Mof_H 	H 	0.8986	0.6902	0.7903	0.068
Mof_H 	H 	0.2574	0.5045	0.6127	0.062
Mof_H 	H 	0.1879	0.402	0.4641	0.07
Mof_H 	H 	0.1926	0.6131	0.4658	0.071
Mof_H 	H 	0.8902	0.3076	0.7904	0.07
Mof_H 	H 	0.9963	0.249	0.6402	0.061
Mof_H 	H 	0.1014	0.3098	0.7903	0.069
Mof_H 	H 	0.7426	0.4955	0.6127	0.063
Mof_H 	H 	0.8121	0.598	0.4641	0.07
Mof_H 	H 	0.8074	0.3869	0.4658	0.071
Mof_H 	H 	0.3076	0.1098	0.7904	0.07
Mof_H 	H 	0.249	0.0037	0.6402	0.061
Mof_H 	H 	0.3098	0.8986	0.7903	0.068
Mof_H 	H 	0.4955	0.2574	0.6127	0.063
Mof_H 	H 	0.598	0.1879	0.4641	0.07
Mof_H 	H 	0.3869	0.1926	0.4658	0.071
Mof_H 	H 	0.6924	0.8902	0.7904	0.07
Mof_H 	H 	0.751	0.9963	0.6402	0.061
Mof_H 	H 	0.6902	0.1014	0.7903	0.069
Mof_H 	H 	0.5045	0.7426	0.6127	0.063
Mof_H 	H 	0.402	0.8121	0.4641	0.07
Mof_H 	H 	0.6131	0.8074	0.4658	0.071
Mof_C 	C 	0.0372	0.5597	0.9521	-0.008
Mof_C 	C 	0.0553	0.584	0.0098	0.006
Mof_C 	C 	0.0621	0.537	0.058	-0.004
Mof_C 	C 	0.0506	0.4657	0.0485	0.017
Mof_C 	C 	0.9676	0.5586	0.9908	-0.011
Mof_C 	C 	0.0257	0.4884	0.9426	0.004
Mof_C 	C 	0.2304	0.3697	0.5775	0.376
Mof_C 	C 	0.1257	0.4901	0.2765	0.015
Mof_C 	C 	0.1729	0.4747	0.23	-0.034
Mof_C 	C 	0.1483	0.4514	0.1737	0.116
Mof_C 	C 	0.0766	0.4436	0.164	-0.017
Mof_C 	C 	0.0294	0.459	0.2105	0.01
Mof_C 	C 	0.0539	0.4823	0.2668	-0.005
Mof_C 	C 	0.0043	0.6874	0.8003	0.034
Mof_C 	C 	0.0674	0.6999	0.7703	-0.045
Mof_C 	C 	0.06719	0.7238	0.7104	-0.059
Mof_C 	C 	0.0038	0.7351	0.6804	0.008
Mof_C 	C 	0.94068	0.7225	0.7103	-0.062
Mof_C 	C 	0.9409	0.6986	0.7703	-0.041
Mof_C 	C 	0.2394	0.5053	0.5732	-0.002
Mof_C 	C 	0.2246	0.4426	0.5432	-0.05
Mof_C 	C 	0.1978	0.4439	0.4842	-0.049
Mof_C 	C 	0.1858	0.5077	0.4552	0.038
Mof_C 	C 	0.2006	0.5704	0.4852	-0.049
Mof_C 	C 	0.2274	0.5691	0.5442	-0.052
Mof_C 	C 	0.1367	0.7345	0.6817	0.328
Mof_C 	C 	0.8736	0.7324	0.6775	0.34
Mof_C 	C 	0.2404	0.6397	0.5787	0.375
Mof_C 	C 	0.1682	0.497	0.3904	-0.02
Mof_C 	C 	0.9793	0.6329	0.9836	0.008
Mof_C 	C 	0.9585	0.452	0.1987	-0.002
Mof_C 	C 	0.1577	0.4975	0.3365	0.006
Mof_C 	C 	0.0691	0.5078	0.3009	-0.007
Mof_C 	C 	0.093	0.5378	0.2457	-0.001
Mof_C 	C 	0.0089	0.6494	0.8587	-0.02
Mof_C 	C 	0.0202	0.6092	0.9018	0.007
Mof_C 	C 	0.0619	0.4209	0.0983	-0.015
Mof_C 	C 	0.9706	0.68	0.031	-0.023
Mof_C 	C 	0.05	0.3493	0.0888	0.119
Mof_C 	C 	0.9797	0.2777	0.198	-0.021
Mof_C 	C 	0.0176	0.297	0.25	0.019
Mof_C 	C 	0.983	0.323	0.3007	-0.008
Mof_C 	C 	0.91	0.3293	0.3002	0.001
Mof_C 	C 	0.8722	0.31	0.249	-0.002
Mof_C 	C 	0.907	0.284	0.1975	0.008
Mof_C 	C 	0.02	0.2504	0.143	0.084
Mof_C 	C 	0.2425	0.5513	0.122	-0.018
Mof_C 	C 	0.2796	0.6088	0.1442	0.005
Mof_C 	C 	0.2525	0.6761	0.1373	0.005
Mof_C 	C 	0.1884	0.686	0.1082	0.006
Mof_C 	C 	0.1512	0.629	0.0861	-0.008
Mof_C 	C 	0.1783	0.5611	0.093	0.023
Mof_C 	C 	0.2636	0.4702	0.1254	0.084
Mof_C 	C 	0.9628	0.4403	0.9521	-0.008
Mof_C 	C 	0.9447	0.416	0.0098	0.006
Mof_C 	C 	0.9379	0.463	0.058	-0.004
Mof_C 	C 	0.9494	0.5343	0.0485	0.017
Mof_C 	C 	0.0324	0.4414	0.9908	-0.011
Mof_C 	C 	0.9743	0.5116	0.9426	0.005
Mof_C 	C 	0.7696	0.6303	0.5775	0.376
Mof_C 	C 	0.8743	0.5099	0.2765	0.015
Mof_C 	C 	0.8271	0.5253	0.23	-0.034
Mof_C 	C 	0.8517	0.5486	0.1737	0.116
Mof_C 	C 	0.9234	0.5564	0.164	-0.017
Mof_C 	C 	0.9706	0.541	0.2105	0.01
Mof_C 	C 	0.9461	0.5177	0.2668	-0.005
Mof_C 	C 	0.9957	0.3126	0.8003	0.035
Mof_C 	C 	0.9326	0.3001	0.7703	-0.045
Mof_C 	C 	0.93281	0.2762	0.7104	-0.059
Mof_C 	C 	0.9962	0.2649	0.6804	0.008
Mof_C 	C 	0.05932	0.2775	0.7103	-0.062
Mof_C 	C 	0.0591	0.3014	0.7703	-0.041
Mof_C 	C 	0.7606	0.4947	0.5732	-0.002
Mof_C 	C 	0.7754	0.5574	0.5432	-0.05
Mof_C 	C 	0.8022	0.5561	0.4842	-0.049
Mof_C 	C 	0.8142	0.4923	0.4552	0.038
Mof_C 	C 	0.7994	0.4296	0.4852	-0.049
Mof_C 	C 	0.7726	0.4309	0.5442	-0.052
Mof_C 	C 	0.8633	0.2655	0.6817	0.328
Mof_C 	C 	0.1264	0.2676	0.6775	0.34
Mof_C 	C 	0.7596	0.3603	0.5787	0.375
Mof_C 	C 	0.8318	0.503	0.3904	-0.02
Mof_C 	C 	0.0207	0.3671	0.9836	0.008
Mof_C 	C 	0.0415	0.548	0.1987	-0.002
Mof_C 	C 	0.8423	0.5025	0.3365	0.006
Mof_C 	C 	0.9309	0.4922	0.3009	-0.007
Mof_C 	C 	0.907	0.4622	0.2457	-0.001
Mof_C 	C 	0.9911	0.3506	0.8587	-0.02
Mof_C 	C 	0.9798	0.3908	0.9018	0.008
Mof_C 	C 	0.9381	0.5791	0.0983	-0.015
Mof_C 	C 	0.0294	0.32	0.031	-0.023
Mof_C 	C 	0.95	0.6507	0.0888	0.119
Mof_C 	C 	0.0203	0.7223	0.198	-0.021
Mof_C 	C 	0.9824	0.703	0.25	0.02
Mof_C 	C 	0.017	0.677	0.3007	-0.008
Mof_C 	C 	0.09	0.6707	0.3002	0.001
Mof_C 	C 	0.1278	0.69	0.249	-0.002
Mof_C 	C 	0.093	0.716	0.1975	0.008
Mof_C 	C 	0.98	0.7496	0.143	0.085
Mof_C 	C 	0.7575	0.4487	0.122	-0.018
Mof_C 	C 	0.7204	0.3912	0.1442	0.005
Mof_C 	C 	0.7475	0.3239	0.1373	0.005
Mof_C 	C 	0.8116	0.314	0.1082	0.006
Mof_C 	C 	0.8488	0.371	0.0861	-0.008
Mof_C 	C 	0.8217	0.4389	0.093	0.023
Mof_C 	C 	0.7364	0.5298	0.1254	0.084
Mof_C 	C 	0.4403	0.0372	0.9521	-0.008
Mof_C 	C 	0.416	0.0553	0.0098	0.006
Mof_C 	C 	0.463	0.0621	0.058	-0.004
Mof_C 	C 	0.5343	0.0506	0.0485	0.017
Mof_C 	C 	0.4414	0.9676	0.9908	-0.011
Mof_C 	C 	0.5116	0.0257	0.9426	0.004
Mof_C 	C 	0.6303	0.2304	0.5775	0.376
Mof_C 	C 	0.5099	0.1257	0.2765	0.015
Mof_C 	C 	0.5253	0.1729	0.23	-0.034
Mof_C 	C 	0.5486	0.1483	0.1737	0.116
Mof_C 	C 	0.5564	0.0766	0.164	-0.017
Mof_C 	C 	0.541	0.0294	0.2105	0.01
Mof_C 	C 	0.5177	0.0539	0.2668	-0.005
Mof_C 	C 	0.3126	0.0043	0.8003	0.034
Mof_C 	C 	0.3001	0.0674	0.7703	-0.045
Mof_C 	C 	0.2762	0.06719	0.7104	-0.059
Mof_C 	C 	0.2649	0.0038	0.6804	0.008
Mof_C 	C 	0.2775	0.94068	0.7103	-0.062
Mof_C 	C 	0.3014	0.9409	0.7703	-0.041
Mof_C 	C 	0.4947	0.2394	0.5732	-0.002
Mof_C 	C 	0.5574	0.2246	0.5432	-0.05
Mof_C 	C 	0.5561	0.1978	0.4842	-0.049
Mof_C 	C 	0.4923	0.1858	0.4552	0.038
Mof_C 	C 	0.4296	0.2006	0.4852	-0.049
Mof_C 	C 	0.4309	0.2274	0.5442	-0.052
Mof_C 	C 	0.2655	0.1367	0.6817	0.328
Mof_C 	C 	0.2676	0.8736	0.6775	0.34
Mof_C 	C 	0.3603	0.2404	0.5787	0.375
Mof_C 	C 	0.503	0.1682	0.3904	-0.02
Mof_C 	C 	0.3671	0.9793	0.9836	0.008
Mof_C 	C 	0.548	0.9585	0.1987	-0.002
Mof_C 	C 	0.5025	0.1577	0.3365	0.006
Mof_C 	C 	0.4922	0.0691	0.3009	-0.007
Mof_C 	C 	0.4622	0.093	0.2457	-0.001
Mof_C 	C 	0.3506	0.0089	0.8587	-0.02
Mof_C 	C 	0.3908	0.0202	0.9018	0.007
Mof_C 	C 	0.5791	0.0619	0.0983	-0.015
Mof_C 	C 	0.32	0.9706	0.031	-0.023
Mof_C 	C 	0.6507	0.05	0.0888	0.119
Mof_C 	C 	0.7223	0.9797	0.198	-0.021
Mof_C 	C 	0.703	0.0176	0.25	0.02
Mof_C 	C 	0.677	0.983	0.3007	-0.008
Mof_C 	C 	0.6707	0.91	0.3002	0.001
Mof_C 	C 	0.69	0.8722	0.249	-0.002
Mof_C 	C 	0.716	0.907	0.1975	0.008
Mof_C 	C 	0.7496	0.02	0.143	0.084
Mof_C 	C 	0.4487	0.2425	0.122	-0.018
Mof_C 	C 	0.3912	0.2796	0.1442	0.005
Mof_C 	C 	0.3239	0.2525	0.1373	0.005
Mof_C 	C 	0.314	0.1884	0.1082	0.006
Mof_C 	C 	0.371	0.1512	0.0861	-0.008
Mof_C 	C 	0.4389	0.1783	0.093	0.023
Mof_C 	C 	0.5298	0.2636	0.1254	0.084
Mof_C 	C 	0.5597	0.9628	0.9521	-0.008
Mof_C 	C 	0.584	0.9447	0.0098	0.006
Mof_C 	C 	0.537	0.9379	0.058	-0.004
Mof_C 	C 	0.4657	0.9494	0.0485	0.017
Mof_C 	C 	0.5586	0.0324	0.9908	-0.011
Mof_C 	C 	0.4884	0.9743	0.9426	0.005
Mof_C 	C 	0.3697	0.7696	0.5775	0.376
Mof_C 	C 	0.4901	0.8743	0.2765	0.015
Mof_C 	C 	0.4747	0.8271	0.23	-0.034
Mof_C 	C 	0.4514	0.8517	0.1737	0.116
Mof_C 	C 	0.4436	0.9234	0.164	-0.017
Mof_C 	C 	0.459	0.9706	0.2105	0.01
Mof_C 	C 	0.4823	0.9461	0.2668	-0.005
Mof_C 	C 	0.6874	0.9957	0.8003	0.035
Mof_C 	C 	0.6999	0.9326	0.7703	-0.045
Mof_C 	C 	0.7238	0.93281	0.7104	-0.059
Mof_C 	C 	0.7351	0.9962	0.6804	0.008
Mof_C 	C 	0.7225	0.05932	0.7103	-0.062
Mof_C 	C 	0.6986	0.0591	0.7703	-0.041
Mof_C 	C 	0.5053	0.7606	0.5732	-0.002
Mof_C 	C 	0.4426	0.7754	0.5432	-0.05
Mof_C 	C 	0.4439	0.8022	0.4842	-0.049
Mof_C 	C 	0.5077	0.8142	0.4552	0.038
Mof_C 	C 	0.5704	0.7994	0.4852	-0.049
Mof_C 	C 	0.5691	0.7726	0.5442	-0.052
Mof_C 	C 	0.7345	0.8633	0.6817	0.328
Mof_C 	C 	0.7324	0.1264	0.6775	0.34
Mof_C 	C 	0.6397	0.7596	0.5787	0.375
Mof_C 	C 	0.497	0.8318	0.3904	-0.02
Mof_C 	C 	0.6329	0.0207	0.9836	0.008
Mof_C 	C 	0.452	0.0415	0.1987	-0.002
Mof_C 	C 	0.4975	0.8423	0.3365	0.006
Mof_C 	C 	0.5078	0.9309	0.3009	-0.007
Mof_C 	C 	0.5378	0.907	0.2457	-0.001
Mof_C 	C 	0.6494	0.9911	0.8587	-0.02
Mof_C 	C 	0.6092	0.9798	0.9018	0.008
Mof_C 	C 	0.4209	0.9381	0.0983	-0.015
Mof_C 	C 	0.68	0.0294	0.031	-0.023
Mof_C 	C 	0.3493	0.95	0.0888	0.119
Mof_C 	C 	0.2777	0.0203	0.198	-0.021
Mof_C 	C 	0.297	0.9824	0.25	0.02
Mof_C 	C 	0.323	0.017	0.3007	-0.008
Mof_C 	C 	0.3293	0.09	0.3002	0.001
Mof_C 	C 	0.31	0.1278	0.249	-0.002
Mof_C 	C 	0.284	0.093	0.1975	0.008
Mof_C 	C 	0.2504	0.98	0.143	0.085
Mof_C 	C 	0.5513	0.7575	0.122	-0.018
Mof_C 	C 	0.6088	0.7204	0.1442	0.005
Mof_C 	C 	0.6761	0.7475	0.1373	0.005
Mof_C 	C 	0.686	0.8116	0.1082	0.006
Mof_C 	C 	0.629	0.8488	0.0861	-0.008
Mof_C 	C 	0.5611	0.8217	0.093	0.023
Mof_C 	C 	0.4702	0.7364	0.1254	0.084
Mof_C 	C 	-5.01136e-33	0.5	0.3132	0.007
Mof_C 	C 	0.5	-3.18176e-33	0.3132	0.007
Mof_O 	O 	0.2639	0.3728	0.6276	-0.406
Mof_O 	O 	0.8748	0.7641	0.6274	-0.394
Mof_O 	O 	0.134	0.7676	0.6283	-0.373
Mof_O 	O 	0.2683	0.6368	0.627	-0.425
Mof_O 	O 	0.8196	0.7091	0.7057	-0.398
Mof_O 	O 	0.2066	0.3195	0.5528	-0.428
Mof_O 	O 	0.2189	0.6932	0.5488	-0.414
Mof_O 	O 	0.1901	0.7149	0.708	-0.401
Mof_O 	O 	0.0754	0.3021	0.1298	-0.195
Mof_O 	O 	0.1931	0.4383	0.1233	-0.191
Mof_O 	O 	0.7361	0.6272	0.6276	-0.406
Mof_O 	O 	0.1252	0.2359	0.6274	-0.394
Mof_O 	O 	0.866	0.2324	0.6283	-0.373
Mof_O 	O 	0.7317	0.3632	0.627	-0.425
Mof_O 	O 	0.1804	0.2909	0.7057	-0.398
Mof_O 	O 	0.7934	0.6805	0.5528	-0.428
Mof_O 	O 	0.7811	0.3068	0.5488	-0.414
Mof_O 	O 	0.8099	0.2851	0.708	-0.401
Mof_O 	O 	0.9246	0.6979	0.1298	-0.195
Mof_O 	O 	0.8069	0.5617	0.1233	-0.191
Mof_O 	O 	0.6272	0.2639	0.6276	-0.406
Mof_O 	O 	0.2359	0.8748	0.6274	-0.394
Mof_O 	O 	0.2324	0.134	0.6283	-0.373
Mof_O 	O 	0.3632	0.2683	0.627	-0.425
Mof_O 	O 	0.2909	0.8196	0.7057	-0.398
Mof_O 	O 	0.6805	0.2066	0.5528	-0.428
Mof_O 	O 	0.3068	0.2189	0.5488	-0.414
Mof_O 	O 	0.2851	0.1901	0.708	-0.401
Mof_O 	O 	0.6979	0.0754	0.1298	-0.195
Mof_O 	O 	0.5617	0.1931	0.1233	-0.191
Mof_O 	O 	0.3728	0.7361	0.6276	-0.406
Mof_O 	O 	0.7641	0.1252	0.6274	-0.394
Mof_O 	O 	0.7676	0.866	0.6283	-0.373
Mof_O 	O 	0.6368	0.7317	0.627	-0.425
Mof_O 	O 	0.7091	0.1804	0.7057	-0.398
Mof_O 	O 	0.3195	0.7934	0.5528	-0.428
Mof_O 	O 	0.6932	0.7811	0.5488	-0.414
Mof_O 	O 	0.7149	0.8099	0.708	-0.401
Mof_O 	O 	0.3021	0.9246	0.1298	-0.195
Mof_O 	O 	0.4383	0.8069	0.1233	-0.191
_end
