data_functionalizedCrystal
_audit_creation_method	'EQeq! by Chris Wilmer'
_symmetry_space_group_name_H-M	'P1'
_symmetry_Int_Tables_number	1
_symmetry_cell_setting	triclinic
loop_
_symmetry_equiv_pos_as_xyz
  x,y,z
_cell_length_a	8.153
_cell_length_b	13.6802
_cell_length_c	13.6802
_cell_angle_alpha	120
_cell_angle_beta	90
_cell_angle_gamma	90
loop_
_atom_site_label
_atom_site_type_symbol
_atom_site_fract_x
_atom_site_fract_y
_atom_site_fract_z
_atom_site_charge
Mof_Mn	Mn	0.20692	0.33427	0.03788	0.749
Mof_Mn	Mn	0.20692	0.70361	0.66573	0.751
Mof_Mn	Mn	0.20692	0.96212	0.29639	0.749
Mof_Mn	Mn	0.70692	0.66573	0.96212	0.788
Mof_Mn	Mn	0.70692	0.29639	0.33427	0.791
Mof_Mn	Mn	0.70692	0.03788	0.70361	0.788
Mof_Cr	Cr	0.5896	0.66667	0.33334	1.358
Mof_Cr	Cr	0.0896	0.33333	0.66666	1.168
Mof_H 	H 	0.6095	0.2543	0.8481	0.101
Mof_H 	H 	0.6058	0.1972	0.9142	0.141
Mof_H 	H 	0.8692	0.2858	0.866	0.058
Mof_H 	H 	0.7241	0.3954	0.0434	0.02
Mof_H 	H 	0.8163	0.3204	0.0828	0.042
Mof_H 	H 	0.9602	0.4802	0.1332	0.113
Mof_H 	H 	0.9686	0.4566	0.0172	0.118
Mof_H 	H 	0.6095	0.5938	0.7457	0.101
Mof_H 	H 	0.6058	0.717	0.8028	0.142
Mof_H 	H 	0.8692	0.5802	0.7142	0.058
Mof_H 	H 	0.7241	0.648	0.6046	0.02
Mof_H 	H 	0.8163	0.7624	0.6796	0.043
Mof_H 	H 	0.9602	0.653	0.5198	0.113
Mof_H 	H 	0.9686	0.5606	0.5434	0.117
Mof_H 	H 	0.6095	0.1519	0.4062	0.101
Mof_H 	H 	0.6058	0.0858	0.283	0.141
Mof_H 	H 	0.8692	0.134	0.4198	0.058
Mof_H 	H 	0.7241	0.9566	0.352	0.02
Mof_H 	H 	0.8163	0.9172	0.2376	0.043
Mof_H 	H 	0.9602	0.8668	0.347	0.113
Mof_H 	H 	0.9686	0.9828	0.4394	0.118
Mof_H 	H 	0.1095	0.7457	0.1519	0.082
Mof_H 	H 	0.1058	0.8028	0.0858	0.124
Mof_H 	H 	0.3692	0.7142	0.134	0.046
Mof_H 	H 	0.2241	0.6046	0.9566	0.012
Mof_H 	H 	0.3163	0.6796	0.9172	0.034
Mof_H 	H 	0.4602	0.5198	0.8668	0.098
Mof_H 	H 	0.4686	0.5434	0.9828	0.103
Mof_H 	H 	0.1095	0.4062	0.2543	0.082
Mof_H 	H 	0.1058	0.283	0.1972	0.125
Mof_H 	H 	0.3692	0.4198	0.2858	0.046
Mof_H 	H 	0.2241	0.352	0.3954	0.012
Mof_H 	H 	0.3163	0.2376	0.3204	0.034
Mof_H 	H 	0.4602	0.347	0.4802	0.098
Mof_H 	H 	0.4686	0.4394	0.4566	0.104
Mof_H 	H 	0.1095	0.8481	0.5938	0.082
Mof_H 	H 	0.1058	0.9142	0.717	0.125
Mof_H 	H 	0.3692	0.866	0.5802	0.046
Mof_H 	H 	0.2241	0.0434	0.648	0.013
Mof_H 	H 	0.3163	0.0828	0.7624	0.034
Mof_H 	H 	0.4602	0.1332	0.653	0.098
Mof_H 	H 	0.4686	0.0172	0.5606	0.104
Mof_C 	C 	0.4391	0.5566	0.2026	-0.261
Mof_C 	C 	0.8266	0.2541	0.9112	-0.127
Mof_C 	C 	0.8221	0.3507	0.0322	0.003
Mof_C 	C 	0.7211	0.6795	0.2098	-0.258
Mof_C 	C 	0.9448	0.1586	0.892	0.405
Mof_C 	C 	0.4391	0.646	0.4434	-0.261
Mof_C 	C 	0.8266	0.6571	0.7459	-0.125
Mof_C 	C 	0.8221	0.6815	0.6493	-0
Mof_C 	C 	0.7211	0.5303	0.3205	-0.258
Mof_C 	C 	0.9448	0.7334	0.8414	0.41
Mof_C 	C 	0.4391	0.7974	0.354	-0.261
Mof_C 	C 	0.8266	0.0888	0.3429	-0.128
Mof_C 	C 	0.8221	0.9678	0.3185	0.003
Mof_C 	C 	0.7211	0.7902	0.4697	-0.258
Mof_C 	C 	0.9448	0.108	0.2666	0.409
Mof_C 	C 	0.9391	0.4434	0.7974	-0.191
Mof_C 	C 	0.3266	0.7459	0.0888	-0.111
Mof_C 	C 	0.3221	0.6493	0.9678	-0.01
Mof_C 	C 	0.2211	0.3205	0.7902	-0.249
Mof_C 	C 	0.4448	0.8414	0.108	0.339
Mof_C 	C 	0.9391	0.354	0.5566	-0.191
Mof_C 	C 	0.3266	0.3429	0.2541	-0.11
Mof_C 	C 	0.3221	0.3185	0.3507	-0.01
Mof_C 	C 	0.2211	0.4697	0.6795	-0.249
Mof_C 	C 	0.4448	0.2666	0.1586	0.339
Mof_C 	C 	0.9391	0.2026	0.646	-0.192
Mof_C 	C 	0.3266	0.9112	0.6571	-0.11
Mof_C 	C 	0.3221	0.0322	0.6815	-0.011
Mof_C 	C 	0.2211	0.2098	0.5303	-0.249
Mof_C 	C 	0.4448	0.892	0.7334	0.339
Mof_N 	N 	0.6647	0.2071	0.8642	-0.275
Mof_N 	N 	0.3536	0.4955	0.1294	-0.123
Mof_N 	N 	0.7688	0.6804	0.1299	-0.11
Mof_N 	N 	0.9682	0.4245	0.0608	-0.286
Mof_N 	N 	0.6647	0.6571	0.7929	-0.275
Mof_N 	N 	0.3536	0.6339	0.5045	-0.123
Mof_N 	N 	0.7688	0.4495	0.3196	-0.111
Mof_N 	N 	0.9682	0.6363	0.5755	-0.286
Mof_N 	N 	0.6647	0.1358	0.3429	-0.275
Mof_N 	N 	0.3536	0.8706	0.3661	-0.123
Mof_N 	N 	0.7688	0.8701	0.5505	-0.11
Mof_N 	N 	0.9682	0.9392	0.3637	-0.286
Mof_N 	N 	0.1647	0.7929	0.1358	-0.269
Mof_N 	N 	0.8536	0.5045	0.8706	-0.133
Mof_N 	N 	0.2688	0.3196	0.8701	-0.126
Mof_N 	N 	0.4682	0.5755	0.9392	-0.294
Mof_N 	N 	0.1647	0.3429	0.2071	-0.27
Mof_N 	N 	0.8536	0.3661	0.4955	-0.132
Mof_N 	N 	0.2688	0.5505	0.6804	-0.126
Mof_N 	N 	0.4682	0.3637	0.4245	-0.294
Mof_N 	N 	0.1647	0.8642	0.6571	-0.27
Mof_N 	N 	0.8536	0.1294	0.6339	-0.133
Mof_N 	N 	0.2688	0.1299	0.4495	-0.126
Mof_N 	N 	0.4682	0.0608	0.6363	-0.294
Mof_O 	O 	0.0664	0.1797	0.9522	-0.393
Mof_O 	O 	0.9103	0.0577	0.8131	-0.333
Mof_O 	O 	0.0664	0.7725	0.8203	-0.398
Mof_O 	O 	0.9103	0.7554	0.9423	-0.333
Mof_O 	O 	0.0664	0.0478	0.2275	-0.397
Mof_O 	O 	0.9103	0.1869	0.2446	-0.332
Mof_O 	O 	0.5664	0.8203	0.0478	-0.339
Mof_O 	O 	0.4103	0.9423	0.1869	-0.332
Mof_O 	O 	0.5664	0.2275	0.1797	-0.34
Mof_O 	O 	0.4103	0.2446	0.0577	-0.332
Mof_O 	O 	0.5664	0.9522	0.7725	-0.34
Mof_O 	O 	0.4103	0.8131	0.7554	-0.333
_end
