data_functionalizedCrystal
_audit_creation_method	'EQeq! by Chris Wilmer'
_symmetry_space_group_name_H-M	'P1'
_symmetry_Int_Tables_number	1
_symmetry_cell_setting	triclinic
loop_
_symmetry_equiv_pos_as_xyz
  x,y,z
_cell_length_a	31.4689
_cell_length_b	31.4689
_cell_length_c	16.8714
_cell_angle_alpha	90
_cell_angle_beta	90
_cell_angle_gamma	120
loop_
_atom_site_label
_atom_site_type_symbol
_atom_site_fract_x
_atom_site_fract_y
_atom_site_fract_z
_atom_site_charge
Mof_O 	O 	0.34	0.74954	0.085	-0.423
Mof_C 	C 	0.3712	0.8188	0.2048	0.101
Mof_H 	H 	0.3396	0.8066	0.1851	0.002
Mof_C 	C 	0.389	0.8551	0.2638	-0.192
Mof_H 	H 	0.3696	0.8675	0.2829	0.092
Mof_O 	O 	0.25046	0.59046	0.085	-0.423
Mof_C 	C 	0.1812	0.5524	0.2048	0.1
Mof_H 	H 	0.1934	0.533	0.1851	0.001
Mof_C 	C 	0.1449	0.5339	0.2638	-0.192
Mof_H 	H 	0.1325	0.5021	0.2829	0.091
Mof_O 	O 	0.40954	0.66	0.085	-0.424
Mof_C 	C 	0.4476	0.6288	0.2048	0.099
Mof_H 	H 	0.467	0.6604	0.1851	0.001
Mof_C 	C 	0.4661	0.611	0.2638	-0.193
Mof_H 	H 	0.4979	0.6304	0.2829	0.091
Mof_O 	O 	0.66	0.25046	0.085	-0.424
Mof_C 	C 	0.6288	0.1812	0.2048	0.1
Mof_H 	H 	0.6604	0.1934	0.1851	0
Mof_C 	C 	0.611	0.1449	0.2638	-0.193
Mof_H 	H 	0.6304	0.1325	0.2829	0.091
Mof_O 	O 	0.74954	0.40954	0.085	-0.424
Mof_C 	C 	0.8188	0.4476	0.2048	0.1
Mof_H 	H 	0.8066	0.467	0.1851	0.001
Mof_C 	C 	0.8551	0.4661	0.2638	-0.193
Mof_H 	H 	0.8675	0.4979	0.2829	0.091
Mof_O 	O 	0.59046	0.34	0.085	-0.424
Mof_C 	C 	0.5524	0.3712	0.2048	0.099
Mof_H 	H 	0.533	0.3396	0.1851	0
Mof_C 	C 	0.5339	0.389	0.2638	-0.193
Mof_H 	H 	0.5021	0.3696	0.2829	0.09
Mof_O 	O 	0.74954	0.34	0.915	-0.373
Mof_C 	C 	0.8188	0.3712	0.7952	0.093
Mof_H 	H 	0.8066	0.3396	0.8149	0.017
Mof_C 	C 	0.8551	0.389	0.7362	-0.179
Mof_H 	H 	0.8675	0.3696	0.7171	0.095
Mof_O 	O 	0.59046	0.25046	0.915	-0.373
Mof_C 	C 	0.5524	0.1812	0.7952	0.093
Mof_H 	H 	0.533	0.1934	0.8149	0.017
Mof_C 	C 	0.5339	0.1449	0.7362	-0.18
Mof_H 	H 	0.5021	0.1325	0.7171	0.094
Mof_O 	O 	0.66	0.40954	0.915	-0.372
Mof_C 	C 	0.6288	0.4476	0.7952	0.093
Mof_H 	H 	0.6604	0.467	0.8149	0.018
Mof_C 	C 	0.611	0.4661	0.7362	-0.179
Mof_H 	H 	0.6304	0.4979	0.7171	0.095
Mof_O 	O 	0.25046	0.66	0.915	-0.373
Mof_C 	C 	0.1812	0.6288	0.7952	0.093
Mof_H 	H 	0.1934	0.6604	0.8149	0.017
Mof_C 	C 	0.1449	0.611	0.7362	-0.18
Mof_H 	H 	0.1325	0.6304	0.7171	0.094
Mof_O 	O 	0.40954	0.74954	0.915	-0.372
Mof_C 	C 	0.4476	0.8188	0.7952	0.093
Mof_H 	H 	0.467	0.8066	0.8149	0.018
Mof_C 	C 	0.4661	0.8551	0.7362	-0.179
Mof_H 	H 	0.4979	0.8675	0.7171	0.095
Mof_O 	O 	0.34	0.59046	0.915	-0.373
Mof_C 	C 	0.3712	0.5524	0.7952	0.093
Mof_H 	H 	0.3396	0.533	0.8149	0.017
Mof_C 	C 	0.389	0.5339	0.7362	-0.179
Mof_H 	H 	0.3696	0.5021	0.7171	0.094
Mof_O 	O 	0.66	0.25046	0.915	-0.373
Mof_C 	C 	0.6288	0.1812	0.7952	0.093
Mof_H 	H 	0.6604	0.1934	0.8149	0.017
Mof_C 	C 	0.611	0.1449	0.7362	-0.18
Mof_H 	H 	0.6304	0.1325	0.7171	0.094
Mof_O 	O 	0.74954	0.40954	0.915	-0.372
Mof_C 	C 	0.8188	0.4476	0.7952	0.093
Mof_H 	H 	0.8066	0.467	0.8149	0.018
Mof_C 	C 	0.8551	0.4661	0.7362	-0.179
Mof_H 	H 	0.8675	0.4979	0.7171	0.095
Mof_O 	O 	0.59046	0.34	0.915	-0.373
Mof_C 	C 	0.5524	0.3712	0.7952	0.093
Mof_H 	H 	0.533	0.3396	0.8149	0.017
Mof_C 	C 	0.5339	0.389	0.7362	-0.179
Mof_H 	H 	0.5021	0.3696	0.7171	0.094
Mof_O 	O 	0.34	0.74954	0.915	-0.373
Mof_C 	C 	0.3712	0.8188	0.7952	0.093
Mof_H 	H 	0.3396	0.8066	0.8149	0.017
Mof_C 	C 	0.389	0.8551	0.7362	-0.179
Mof_H 	H 	0.3696	0.8675	0.7171	0.095
Mof_O 	O 	0.25046	0.59046	0.915	-0.373
Mof_C 	C 	0.1812	0.5524	0.7952	0.093
Mof_H 	H 	0.1934	0.533	0.8149	0.017
Mof_C 	C 	0.1449	0.5339	0.7362	-0.18
Mof_H 	H 	0.1325	0.5021	0.7171	0.094
Mof_O 	O 	0.40954	0.66	0.915	-0.372
Mof_C 	C 	0.4476	0.6288	0.7952	0.093
Mof_H 	H 	0.467	0.6604	0.8149	0.018
Mof_C 	C 	0.4661	0.611	0.7362	-0.179
Mof_H 	H 	0.4979	0.6304	0.7171	0.095
Mof_O 	O 	0.25046	0.66	0.085	-0.424
Mof_C 	C 	0.1812	0.6288	0.2048	0.1
Mof_H 	H 	0.1934	0.6604	0.1851	0
Mof_C 	C 	0.1449	0.611	0.2638	-0.193
Mof_H 	H 	0.1325	0.6304	0.2829	0.091
Mof_O 	O 	0.40954	0.74954	0.085	-0.424
Mof_C 	C 	0.4476	0.8188	0.2048	0.1
Mof_H 	H 	0.467	0.8066	0.1851	0.001
Mof_C 	C 	0.4661	0.8551	0.2638	-0.193
Mof_H 	H 	0.4979	0.8675	0.2829	0.091
Mof_O 	O 	0.34	0.59046	0.085	-0.424
Mof_C 	C 	0.3712	0.5524	0.2048	0.099
Mof_H 	H 	0.3396	0.533	0.1851	0
Mof_C 	C 	0.389	0.5339	0.2638	-0.193
Mof_H 	H 	0.3696	0.5021	0.2829	0.09
Mof_O 	O 	0.74954	0.34	0.085	-0.424
Mof_C 	C 	0.8188	0.3712	0.2048	0.1
Mof_H 	H 	0.8066	0.3396	0.1851	0.001
Mof_C 	C 	0.8551	0.389	0.2638	-0.193
Mof_H 	H 	0.8675	0.3696	0.2829	0.091
Mof_O 	O 	0.59046	0.25046	0.085	-0.424
Mof_C 	C 	0.5524	0.1812	0.2048	0.099
Mof_H 	H 	0.533	0.1934	0.1851	-0
Mof_C 	C 	0.5339	0.1449	0.2638	-0.193
Mof_H 	H 	0.5021	0.1325	0.2829	0.09
Mof_O 	O 	0.66	0.40954	0.085	-0.424
Mof_C 	C 	0.6288	0.4476	0.2048	0.099
Mof_H 	H 	0.6604	0.467	0.1851	0.001
Mof_C 	C 	0.611	0.4661	0.2638	-0.193
Mof_H 	H 	0.6304	0.4979	0.2829	0.091
Mof_Fe	Fe	0.29639	0.70361	-0	0.867
Mof_Fe	Fe	0.29639	0.59278	-0	0.866
Mof_Fe	Fe	0.40722	0.70361	-0	0.867
Mof_Fe	Fe	0.70361	0.29639	-0	0.867
Mof_Fe	Fe	0.70361	0.40722	-0	0.867
Mof_Fe	Fe	0.59278	0.29639	-0	0.866
Mof_Co	Co	0.4924	-6.97856e-33	0.5	0.573
Mof_Co	Co	-1.39983e-18	0.4924	0.5	0.573
Mof_Co	Co	0.5076	0.5076	0.5	0.575
Mof_Co	Co	0.5076	-6.97856e-33	0.5	0.574
Mof_Co	Co	6.14574e-17	0.5076	0.5	0.574
Mof_Co	Co	0.4924	0.4924	0.5	0.574
Mof_C 	C 	0.4483	0.8966	0.4356	0.108
Mof_C 	C 	0.48055	0.9611	0.3319	0.108
Mof_C 	C 	0.45545	0.9109	0.3571	-0.164
Mof_C 	C 	0.42395	0.8479	0.4593	-0.093
Mof_H 	H 	0.41025	0.8205	0.4264	0.066
Mof_C 	C 	0.48745	0.9749	0.2541	-0.088
Mof_H 	H 	0.4772	0.9544	0.2101	0.056
Mof_C 	C 	0.43615	0.8723	0.2934	0.144
Mof_C 	C 	0.40045	0.8009	0.1757	-0.182
Mof_C 	C 	0.38155	0.7631	0.1087	0.459
Mof_C 	C 	0.1034	0.5517	0.4356	0.107
Mof_C 	C 	0.0389	0.51945	0.3319	0.109
Mof_C 	C 	0.0891	0.54455	0.3571	-0.166
Mof_C 	C 	0.1521	0.57605	0.4593	-0.094
Mof_H 	H 	0.1795	0.58975	0.4264	0.066
Mof_C 	C 	0.0251	0.51255	0.2541	-0.11
Mof_H 	H 	0.0456	0.5228	0.2101	0.061
Mof_C 	C 	0.1277	0.56385	0.2934	0.145
Mof_C 	C 	0.1991	0.59955	0.1757	-0.182
Mof_C 	C 	0.2369	0.61845	0.1087	0.459
Mof_C 	C 	0.4483	0.5517	0.4356	0.107
Mof_C 	C 	0.48055	0.51945	0.3319	0.106
Mof_C 	C 	0.45545	0.54455	0.3571	-0.164
Mof_C 	C 	0.42395	0.57605	0.4593	-0.093
Mof_H 	H 	0.41025	0.58975	0.4264	0.066
Mof_C 	C 	0.48745	0.51255	0.2541	-0.098
Mof_H 	H 	0.4772	0.5228	0.2101	0.058
Mof_C 	C 	0.43615	0.56385	0.2934	0.144
Mof_C 	C 	0.40045	0.59955	0.1757	-0.182
Mof_C 	C 	0.38155	0.61845	0.1087	0.459
Mof_C 	C 	0.5517	0.1034	0.4356	0.107
Mof_C 	C 	0.51945	0.0389	0.3319	0.109
Mof_C 	C 	0.54455	0.0891	0.3571	-0.166
Mof_C 	C 	0.57605	0.1521	0.4593	-0.094
Mof_H 	H 	0.58975	0.1795	0.4264	0.066
Mof_C 	C 	0.51255	0.0251	0.2541	-0.11
Mof_H 	H 	0.5228	0.0456	0.2101	0.061
Mof_C 	C 	0.56385	0.1277	0.2934	0.145
Mof_C 	C 	0.59955	0.1991	0.1757	-0.182
Mof_C 	C 	0.61845	0.2369	0.1087	0.459
Mof_C 	C 	0.8966	0.4483	0.4356	0.108
Mof_C 	C 	0.9611	0.48055	0.3319	0.108
Mof_C 	C 	0.9109	0.45545	0.3571	-0.164
Mof_C 	C 	0.8479	0.42395	0.4593	-0.093
Mof_H 	H 	0.8205	0.41025	0.4264	0.066
Mof_C 	C 	0.9749	0.48745	0.2541	-0.088
Mof_H 	H 	0.9544	0.4772	0.2101	0.056
Mof_C 	C 	0.8723	0.43615	0.2934	0.144
Mof_C 	C 	0.8009	0.40045	0.1757	-0.182
Mof_C 	C 	0.7631	0.38155	0.1087	0.459
Mof_C 	C 	0.5517	0.4483	0.4356	0.107
Mof_C 	C 	0.51945	0.48055	0.3319	0.106
Mof_C 	C 	0.54455	0.45545	0.3571	-0.164
Mof_C 	C 	0.57605	0.42395	0.4593	-0.093
Mof_H 	H 	0.58975	0.41025	0.4264	0.066
Mof_C 	C 	0.51255	0.48745	0.2541	-0.098
Mof_H 	H 	0.5228	0.4772	0.2101	0.058
Mof_C 	C 	0.56385	0.43615	0.2934	0.144
Mof_C 	C 	0.59955	0.40045	0.1757	-0.182
Mof_C 	C 	0.61845	0.38155	0.1087	0.459
Mof_C 	C 	0.8966	0.4483	0.5644	0.107
Mof_C 	C 	0.9611	0.48055	0.6681	0.111
Mof_C 	C 	0.9109	0.45545	0.6429	-0.16
Mof_C 	C 	0.8479	0.42395	0.5407	-0.092
Mof_H 	H 	0.8205	0.41025	0.5736	0.066
Mof_C 	C 	0.9749	0.48745	0.7459	-0.082
Mof_H 	H 	0.9544	0.4772	0.7899	0.072
Mof_C 	C 	0.8723	0.43615	0.7066	0.141
Mof_C 	C 	0.8009	0.40045	0.8243	-0.158
Mof_C 	C 	0.7631	0.38155	0.8913	0.451
Mof_C 	C 	0.5517	0.1034	0.5644	0.107
Mof_C 	C 	0.51945	0.0389	0.6681	0.112
Mof_C 	C 	0.54455	0.0891	0.6429	-0.162
Mof_C 	C 	0.57605	0.1521	0.5407	-0.092
Mof_H 	H 	0.58975	0.1795	0.5736	0.066
Mof_C 	C 	0.51255	0.0251	0.7459	-0.105
Mof_H 	H 	0.5228	0.0456	0.7899	0.077
Mof_C 	C 	0.56385	0.1277	0.7066	0.141
Mof_C 	C 	0.59955	0.1991	0.8243	-0.159
Mof_C 	C 	0.61845	0.2369	0.8913	0.451
Mof_C 	C 	0.5517	0.4483	0.5644	0.107
Mof_C 	C 	0.51945	0.48055	0.6681	0.109
Mof_C 	C 	0.54455	0.45545	0.6429	-0.16
Mof_C 	C 	0.57605	0.42395	0.5407	-0.092
Mof_H 	H 	0.58975	0.41025	0.5736	0.066
Mof_C 	C 	0.51255	0.48745	0.7459	-0.093
Mof_H 	H 	0.5228	0.4772	0.7899	0.074
Mof_C 	C 	0.56385	0.43615	0.7066	0.14
Mof_C 	C 	0.59955	0.40045	0.8243	-0.158
Mof_C 	C 	0.61845	0.38155	0.8913	0.451
Mof_C 	C 	0.1034	0.5517	0.5644	0.107
Mof_C 	C 	0.0389	0.51945	0.6681	0.112
Mof_C 	C 	0.0891	0.54455	0.6429	-0.162
Mof_C 	C 	0.1521	0.57605	0.5407	-0.092
Mof_H 	H 	0.1795	0.58975	0.5736	0.066
Mof_C 	C 	0.0251	0.51255	0.7459	-0.105
Mof_H 	H 	0.0456	0.5228	0.7899	0.077
Mof_C 	C 	0.1277	0.56385	0.7066	0.141
Mof_C 	C 	0.1991	0.59955	0.8243	-0.159
Mof_C 	C 	0.2369	0.61845	0.8913	0.451
Mof_C 	C 	0.4483	0.8966	0.5644	0.107
Mof_C 	C 	0.48055	0.9611	0.6681	0.111
Mof_C 	C 	0.45545	0.9109	0.6429	-0.16
Mof_C 	C 	0.42395	0.8479	0.5407	-0.092
Mof_H 	H 	0.41025	0.8205	0.5736	0.066
Mof_C 	C 	0.48745	0.9749	0.7459	-0.082
Mof_H 	H 	0.4772	0.9544	0.7899	0.072
Mof_C 	C 	0.43615	0.8723	0.7066	0.141
Mof_C 	C 	0.40045	0.8009	0.8243	-0.158
Mof_C 	C 	0.38155	0.7631	0.8913	0.451
Mof_C 	C 	0.4483	0.5517	0.5644	0.107
Mof_C 	C 	0.48055	0.51945	0.6681	0.109
Mof_C 	C 	0.45545	0.54455	0.6429	-0.16
Mof_C 	C 	0.42395	0.57605	0.5407	-0.092
Mof_H 	H 	0.41025	0.58975	0.5736	0.066
Mof_C 	C 	0.48745	0.51255	0.7459	-0.093
Mof_H 	H 	0.4772	0.5228	0.7899	0.074
Mof_C 	C 	0.43615	0.56385	0.7066	0.14
Mof_C 	C 	0.40045	0.59955	0.8243	-0.158
Mof_C 	C 	0.38155	0.61845	0.8913	0.451
Mof_N 	N 	0.4638	0.9276	0.5	-0.294
Mof_N 	N 	0.0724	0.5362	0.5	-0.296
Mof_N 	N 	0.4638	0.5362	0.5	-0.296
Mof_N 	N 	0.5362	0.0724	0.5	-0.296
Mof_N 	N 	0.9276	0.4638	0.5	-0.294
Mof_N 	N 	0.5362	0.4638	0.5	-0.296
Mof_O 	O 	0.33333	0.66667	-0	-0.457
Mof_O 	O 	0.66667	0.33333	-0	-0.457
Mof_N 	N 	0.5	-3.48928e-33	0.3818	-0.298
Mof_N 	N 	-5.64964e-17	0.5	0.3818	-0.298
Mof_N 	N 	0.5	0.5	0.3818	-0.295
Mof_N 	N 	2.22681e-17	0.5	0.6182	-0.298
Mof_N 	N 	0.5	0	0.6182	-0.298
Mof_N 	N 	0.5	0.5	0.6182	-0.294
_end
