data_functionalizedCrystal
_audit_creation_method	'EQeq! by Chris Wilmer'
_symmetry_space_group_name_H-M	'P1'
_symmetry_Int_Tables_number	1
_symmetry_cell_setting	triclinic
loop_
_symmetry_equiv_pos_as_xyz
  x,y,z
_cell_length_a	13.8684
_cell_length_b	13.8684
_cell_length_c	18.6368
_cell_angle_alpha	90
_cell_angle_beta	90
_cell_angle_gamma	120
loop_
_atom_site_label
_atom_site_type_symbol
_atom_site_fract_x
_atom_site_fract_y
_atom_site_fract_z
_atom_site_charge
Mof_H 	H 	0.273	0.988	0.985	0.056
Mof_H 	H 	0.365	0.103	0.987	-1.354
Mof_In	In	0.43918	0.14564	0.0398	5.202
Mof_P 	P 	0.19152	0.0316	0.12807	0.442
Mof_H 	H 	0.2019	0.974	0.1514	-0.045
Mof_P 	P 	0.63055	0.12406	0.94196	1.247
Mof_H 	H 	0.6749	0.1647	0.9	-0.376
Mof_O 	O 	0.1161	0.9775	0.0634	-0.479
Mof_O 	O 	0.1459	0.0776	0.1848	-0.609
Mof_O 	O 	0.5576	0.2332	0.1206	-1.23
Mof_O 	O 	0.5529	0.1683	0.9574	-1.091
Mof_O 	O 	0.568	0.0017	0.9218	-1.321
Mof_O 	O 	0.7127	0.1457	0.0029	-1.243
Mof_O 	O 	0.3071	0.1262	0.1071	-0.936
Mof_O 	O 	0.3085	0.0526	0.9557	0.079
Mof_H 	H 	0.012	0.285	0.985	-0.27
Mof_H 	H 	0.897	0.262	0.987	-1.683
Mof_In	In	0.85436	0.29354	0.0398	6.194
Mof_P 	P 	0.9684	0.15992	0.12807	1.273
Mof_H 	H 	0.026	0.2279	0.1514	-0.496
Mof_P 	P 	0.87594	0.50649	0.94196	1.211
Mof_H 	H 	0.8353	0.5102	0.9	-0.353
Mof_O 	O 	0.0225	0.1386	0.0634	-0.841
Mof_O 	O 	0.9224	0.0683	0.1848	-0.661
Mof_O 	O 	0.7668	0.3244	0.1206	-1.317
Mof_O 	O 	0.8317	0.3846	0.9574	-1.156
Mof_O 	O 	0.9983	0.5663	0.9218	-1.019
Mof_O 	O 	0.8543	0.567	0.0029	-1.155
Mof_O 	O 	0.8738	0.1809	0.1071	-1.119
Mof_O 	O 	0.9474	0.2559	0.9557	0.575
Mof_H 	H 	0.715	0.727	0.985	-0.085
Mof_H 	H 	0.738	0.635	0.987	-1.571
Mof_In	In	0.70646	0.56082	0.0398	5.866
Mof_P 	P 	0.84008	0.80848	0.12807	0.905
Mof_H 	H 	0.7721	0.7981	0.1514	-0.282
Mof_P 	P 	0.49351	0.36945	0.94196	1.2
Mof_H 	H 	0.4898	0.3251	0.9	-0.357
Mof_O 	O 	0.8614	0.8839	0.0634	-0.58
Mof_O 	O 	0.9317	0.8541	0.1848	-0.485
Mof_O 	O 	0.6756	0.4424	0.1206	-1.278
Mof_O 	O 	0.6154	0.4471	0.9574	-1.142
Mof_O 	O 	0.4337	0.432	0.9218	-1.202
Mof_O 	O 	0.433	0.2873	0.0029	-1.096
Mof_O 	O 	0.8191	0.6929	0.1071	-1.018
Mof_O 	O 	0.7441	0.6915	0.9557	0.311
Mof_H 	H 	0.988	0.273	0.515	0.071
Mof_H 	H 	0.103	0.365	0.513	-1.481
Mof_In	In	0.14564	0.43918	0.4602	5.571
Mof_P 	P 	0.0316	0.19152	0.37193	0.524
Mof_H 	H 	0.974	0.2019	0.3486	-0.089
Mof_P 	P 	0.12406	0.63055	0.55804	1.219
Mof_H 	H 	0.1647	0.6749	0.6	-0.38
Mof_O 	O 	0.9775	0.1161	0.4366	-0.54
Mof_O 	O 	0.0776	0.1459	0.3152	-0.621
Mof_O 	O 	0.2332	0.5576	0.3794	-1.287
Mof_O 	O 	0.1683	0.5529	0.5426	-1.165
Mof_O 	O 	0.0017	0.568	0.5782	-1.357
Mof_O 	O 	0.1457	0.7127	0.4971	-1.246
Mof_O 	O 	0.1262	0.3071	0.3929	-0.984
Mof_O 	O 	0.0526	0.3085	0.5443	0.074
Mof_H 	H 	0.285	0.012	0.515	-0.277
Mof_H 	H 	0.262	0.897	0.513	-1.843
Mof_In	In	0.29354	0.85436	0.4602	6.643
Mof_P 	P 	0.15992	0.9684	0.37193	1.355
Mof_H 	H 	0.2279	0.026	0.3486	-0.537
Mof_P 	P 	0.50649	0.87594	0.55804	1.198
Mof_H 	H 	0.5102	0.8353	0.6	-0.358
Mof_O 	O 	0.1386	0.0225	0.4366	-0.878
Mof_O 	O 	0.0683	0.9224	0.3152	-0.657
Mof_O 	O 	0.3244	0.7668	0.3794	-1.382
Mof_O 	O 	0.3846	0.8317	0.5426	-1.242
Mof_O 	O 	0.5663	0.9983	0.5782	-1.058
Mof_O 	O 	0.567	0.8543	0.4971	-1.154
Mof_O 	O 	0.1809	0.8738	0.3929	-1.169
Mof_O 	O 	0.2559	0.9474	0.5443	0.59
Mof_H 	H 	0.727	0.715	0.515	-0.109
Mof_H 	H 	0.635	0.738	0.513	-1.673
Mof_In	In	0.56082	0.70646	0.4602	6.132
Mof_P 	P 	0.80848	0.84008	0.37193	0.925
Mof_H 	H 	0.7981	0.7721	0.3486	-0.29
Mof_P 	P 	0.36945	0.49351	0.55804	1.178
Mof_H 	H 	0.3251	0.4898	0.6	-0.359
Mof_O 	O 	0.8839	0.8614	0.4366	-0.602
Mof_O 	O 	0.8541	0.9317	0.3152	-0.485
Mof_O 	O 	0.4424	0.6756	0.3794	-1.324
Mof_O 	O 	0.4471	0.6154	0.5426	-1.197
Mof_O 	O 	0.432	0.4337	0.5782	-1.194
Mof_O 	O 	0.2873	0.433	0.4971	-1.107
Mof_O 	O 	0.6929	0.8191	0.3929	-1.046
Mof_O 	O 	0.6915	0.7441	0.5443	0.344
Mof_H 	H 	0.727	0.012	0.015	-0.308
Mof_H 	H 	0.635	0.897	0.013	-1.851
Mof_In	In	0.56082	0.85436	0.9602	6.619
Mof_P 	P 	0.80848	0.9684	0.87193	1.207
Mof_H 	H 	0.7981	0.026	0.8486	-0.443
Mof_P 	P 	0.36945	0.87594	0.05804	1.155
Mof_H 	H 	0.3251	0.8353	0.1	-0.34
Mof_O 	O 	0.8839	0.0225	0.9366	-0.681
Mof_O 	O 	0.8541	0.9224	0.8152	-0.552
Mof_O 	O 	0.4424	0.7668	0.8794	-1.375
Mof_O 	O 	0.4471	0.8317	0.0426	-1.233
Mof_O 	O 	0.432	0.9983	0.0782	-0.982
Mof_O 	O 	0.2873	0.8543	0.9971	-1.082
Mof_O 	O 	0.6929	0.8738	0.8929	-1.129
Mof_O 	O 	0.6915	0.9474	0.0443	0.611
Mof_H 	H 	0.988	0.715	0.015	0.023
Mof_H 	H 	0.103	0.738	0.013	-1.487
Mof_In	In	0.14564	0.70646	0.9602	5.558
Mof_P 	P 	0.0316	0.84008	0.87193	0.5
Mof_H 	H 	0.974	0.7721	0.8486	-0.066
Mof_P 	P 	0.12406	0.49351	0.05804	1.166
Mof_H 	H 	0.1647	0.4898	0.1	-0.363
Mof_O 	O 	0.9775	0.8614	0.9366	-0.431
Mof_O 	O 	0.0776	0.9317	0.8152	-0.516
Mof_O 	O 	0.2332	0.6756	0.8794	-1.28
Mof_O 	O 	0.1683	0.6154	0.0426	-1.153
Mof_O 	O 	0.0017	0.4337	0.0782	-1.288
Mof_O 	O 	0.1457	0.433	0.9971	-1.179
Mof_O 	O 	0.1262	0.8191	0.8929	-0.958
Mof_O 	O 	0.0526	0.7441	0.0443	0.131
Mof_H 	H 	0.285	0.273	0.015	-0.124
Mof_H 	H 	0.262	0.365	0.013	-1.713
Mof_In	In	0.29354	0.43918	0.9602	6.232
Mof_P 	P 	0.15992	0.19152	0.87193	0.93
Mof_H 	H 	0.2279	0.2019	0.8486	-0.31
Mof_P 	P 	0.50649	0.63055	0.05804	1.185
Mof_H 	H 	0.5102	0.6749	0.1	-0.362
Mof_O 	O 	0.1386	0.1161	0.9366	-0.701
Mof_O 	O 	0.0683	0.1459	0.8152	-0.705
Mof_O 	O 	0.3244	0.5576	0.8794	-1.357
Mof_O 	O 	0.3846	0.5529	0.0426	-1.224
Mof_O 	O 	0.5663	0.568	0.0782	-1.171
Mof_O 	O 	0.567	0.7127	0.9971	-1.203
Mof_O 	O 	0.1809	0.3071	0.8929	-1.099
Mof_O 	O 	0.2559	0.3085	0.0443	0.356
Mof_H 	H 	0.012	0.727	0.485	-0.27
Mof_H 	H 	0.897	0.635	0.487	-1.843
Mof_In	In	0.85436	0.56082	0.5398	6.646
Mof_P 	P 	0.9684	0.80848	0.62807	1.311
Mof_H 	H 	0.026	0.7981	0.6514	-0.505
Mof_P 	P 	0.87594	0.36945	0.44196	1.177
Mof_H 	H 	0.8353	0.3251	0.4	-0.351
Mof_O 	O 	0.0225	0.8839	0.5634	-0.786
Mof_O 	O 	0.9224	0.8541	0.6848	-0.567
Mof_O 	O 	0.7668	0.4424	0.6206	-1.374
Mof_O 	O 	0.8317	0.4471	0.4574	-1.236
Mof_O 	O 	0.9983	0.432	0.4218	-1.04
Mof_O 	O 	0.8543	0.2873	0.5029	-1.096
Mof_O 	O 	0.8738	0.6929	0.6071	-1.145
Mof_O 	O 	0.9474	0.6915	0.4557	0.58
Mof_H 	H 	0.715	0.988	0.485	0.047
Mof_H 	H 	0.738	0.103	0.487	-1.508
Mof_In	In	0.70646	0.14564	0.5398	5.646
Mof_P 	P 	0.84008	0.0316	0.62807	0.594
Mof_H 	H 	0.7721	0.974	0.6514	-0.118
Mof_P 	P 	0.49351	0.12406	0.44196	1.203
Mof_H 	H 	0.4898	0.1647	0.4	-0.374
Mof_O 	O 	0.8614	0.9775	0.5634	-0.501
Mof_O 	O 	0.9317	0.0776	0.6848	-0.504
Mof_O 	O 	0.6756	0.2332	0.6206	-1.285
Mof_O 	O 	0.6154	0.1683	0.4574	-1.167
Mof_O 	O 	0.4337	0.0017	0.4218	-1.354
Mof_O 	O 	0.433	0.1457	0.5029	-1.185
Mof_O 	O 	0.8191	0.1262	0.6071	-0.973
Mof_O 	O 	0.7441	0.0526	0.4557	0.11
Mof_H 	H 	0.273	0.285	0.485	-0.108
Mof_H 	H 	0.365	0.262	0.487	-1.661
Mof_In	In	0.43918	0.29354	0.5398	6.098
Mof_P 	P 	0.19152	0.15992	0.62807	0.933
Mof_H 	H 	0.2019	0.2279	0.6514	-0.315
Mof_P 	P 	0.63055	0.50649	0.44196	1.215
Mof_H 	H 	0.6749	0.5102	0.4	-0.37
Mof_O 	O 	0.1161	0.1386	0.5634	-0.751
Mof_O 	O 	0.1459	0.0683	0.6848	-0.702
Mof_O 	O 	0.5576	0.3244	0.6206	-1.339
Mof_O 	O 	0.5529	0.3846	0.4574	-1.204
Mof_O 	O 	0.568	0.5663	0.4218	-1.2
Mof_O 	O 	0.7127	0.567	0.5029	-1.229
Mof_O 	O 	0.3071	0.1809	0.6071	-1.086
Mof_O 	O 	0.3085	0.2559	0.4557	0.337
Mof_In	In	-0	0	-0	2.241
Mof_In	In	-8.13197e-33	0	0.5	2.454
Mof_In	In	-4.06598e-33	0	0.25	2.089
Mof_In	In	-2.43959e-32	0	0.75	2.116
Mof_P 	P 	0.66667	0.33333	0.141	1.3
Mof_H 	H 	0.66667	0.33333	0.1936	-0.353
Mof_P 	P 	0.33333	0.66667	0.359	1.351
Mof_H 	H 	0.33333	0.66667	0.3064	-0.368
Mof_P 	P 	0.33333	0.66667	0.859	1.357
Mof_H 	H 	0.33333	0.66667	0.8064	-0.373
Mof_P 	P 	0.66667	0.33333	0.641	1.353
Mof_H 	H 	0.66667	0.33333	0.6936	-0.368
_end
