data_functionalizedCrystal
_audit_creation_method	'EQeq! by Chris Wilmer'
_symmetry_space_group_name_H-M	'P1'
_symmetry_Int_Tables_number	1
_symmetry_cell_setting	triclinic
loop_
_symmetry_equiv_pos_as_xyz
  x,y,z
_cell_length_a	7.942
_cell_length_b	8.4643
_cell_length_c	19.644
_cell_angle_alpha	87.8699
_cell_angle_beta	85.4559
_cell_angle_gamma	62.0211
loop_
_atom_site_label
_atom_site_type_symbol
_atom_site_fract_x
_atom_site_fract_y
_atom_site_fract_z
_atom_site_charge
Mof_Tb	Tb	0.79345	0.92574	0.48774	2.086
Mof_Tb	Tb	0.28081	0.92574	0.01226	2.09
Mof_Tb	Tb	0.20655	0.07426	0.51226	2.086
Mof_Tb	Tb	0.71919	0.07426	0.98774	2.09
Mof_H 	H 	0.2447	0.5338	0.3218	0.19
Mof_H 	H 	0.0557	0.5516	0.2952	0.173
Mof_H 	H 	0.0097	0.8068	0.2345	-0.059
Mof_H 	H 	0.6788	0.529	0.461	0.187
Mof_H 	H 	0.8512	0.4392	0.4065	0.179
Mof_H 	H 	0.6408	0.4568	0.3253	-0.095
Mof_H 	H 	0.468	0.546	0.3798	-0.082
Mof_H 	H 	0.5059	0.7598	0.3024	0.207
Mof_H 	H 	0.6964	0.714	0.3362	0.196
Mof_H 	H 	0.2215	0.5338	0.1782	0.19
Mof_H 	H 	0.3927	0.5516	0.2048	0.174
Mof_H 	H 	0.1835	0.8068	0.2655	-0.058
Mof_H 	H 	0.7922	0.529	0.039	0.188
Mof_H 	H 	0.7096	0.4392	0.0935	0.18
Mof_H 	H 	0.9024	0.4568	0.1747	-0.096
Mof_H 	H 	0.986	0.546	0.1202	-0.084
Mof_H 	H 	0.7343	0.7598	0.1976	0.207
Mof_H 	H 	0.5896	0.714	0.1638	0.197
Mof_H 	H 	0.7553	0.4662	0.6782	0.19
Mof_H 	H 	0.9443	0.4484	0.7048	0.173
Mof_H 	H 	0.9903	0.1932	0.7655	-0.059
Mof_H 	H 	0.3212	0.471	0.539	0.187
Mof_H 	H 	0.1488	0.5608	0.5935	0.179
Mof_H 	H 	0.3592	0.5432	0.6747	-0.095
Mof_H 	H 	0.532	0.454	0.6202	-0.082
Mof_H 	H 	0.4941	0.2402	0.6976	0.207
Mof_H 	H 	0.3036	0.286	0.6638	0.196
Mof_H 	H 	0.7785	0.4662	0.8218	0.19
Mof_H 	H 	0.6073	0.4484	0.7952	0.174
Mof_H 	H 	0.8165	0.1932	0.7345	-0.058
Mof_H 	H 	0.2078	0.471	0.961	0.188
Mof_H 	H 	0.2904	0.5608	0.9065	0.18
Mof_H 	H 	0.0976	0.5432	0.8253	-0.096
Mof_H 	H 	0.014	0.454	0.8798	-0.084
Mof_H 	H 	0.2657	0.2402	0.8024	0.207
Mof_H 	H 	0.4104	0.286	0.8362	0.197
Mof_C 	C 	0.006	0.7266	0.3719	0.463
Mof_C 	C 	0.1173	0.619	0.3096	-0.543
Mof_C 	C 	0.7525	0.2692	0.4438	0.551
Mof_C 	C 	0.7272	0.4498	0.4218	-0.585
Mof_C 	C 	0.5926	0.5346	0.3649	0.371
Mof_C 	C 	0.5709	0.7212	0.3443	-0.615
Mof_C 	C 	0.4594	0.8538	0.3996	0.555
Mof_C 	C 	0.2674	0.7266	0.1281	0.462
Mof_C 	C 	0.2637	0.619	0.1904	-0.543
Mof_C 	C 	0.9783	0.2692	0.0562	0.553
Mof_C 	C 	0.823	0.4498	0.0782	-0.587
Mof_C 	C 	0.8728	0.5346	0.1351	0.373
Mof_C 	C 	0.7079	0.7212	0.1557	-0.617
Mof_C 	C 	0.6868	0.8538	0.1004	0.556
Mof_C 	C 	0.994	0.2734	0.6281	0.463
Mof_C 	C 	0.8827	0.381	0.6904	-0.543
Mof_C 	C 	0.2475	0.7308	0.5562	0.551
Mof_C 	C 	0.2728	0.5502	0.5782	-0.585
Mof_C 	C 	0.4074	0.4654	0.6351	0.371
Mof_C 	C 	0.4291	0.2788	0.6557	-0.615
Mof_C 	C 	0.5406	0.1462	0.6004	0.555
Mof_C 	C 	0.7326	0.2734	0.8719	0.462
Mof_C 	C 	0.7363	0.381	0.8096	-0.543
Mof_C 	C 	0.0217	0.7308	0.9438	0.553
Mof_C 	C 	0.177	0.5502	0.9218	-0.587
Mof_C 	C 	0.1272	0.4654	0.8649	0.373
Mof_C 	C 	0.2921	0.2788	0.8443	-0.617
Mof_C 	C 	0.3132	0.1462	0.8996	0.556
Mof_C 	C 	0.1344	0.7312	0.25	0.339
Mof_C 	C 	0.8656	0.2688	0.75	0.339
Mof_O 	O 	0.9067	0.8922	0.3692	-0.477
Mof_O 	O 	0.0111	0.6448	0.4283	-0.512
Mof_O 	O 	0.6193	0.2266	0.4413	-0.508
Mof_O 	O 	0.9104	0.1556	0.4664	-0.661
Mof_O 	O 	0.539	0.9104	0.4394	-0.67
Mof_O 	O 	0.282	0.9058	0.4083	-0.521
Mof_O 	O 	0.2011	0.8922	0.1308	-0.476
Mof_O 	O 	0.3441	0.6448	0.0717	-0.512
Mof_O 	O 	0.1541	0.2266	0.0587	-0.51
Mof_O 	O 	0.934	0.1556	0.0336	-0.66
Mof_O 	O 	0.5506	0.9104	0.0606	-0.672
Mof_O 	O 	0.8122	0.9058	0.0917	-0.524
Mof_O 	O 	0.0933	0.1078	0.6308	-0.477
Mof_O 	O 	0.9889	0.3552	0.5717	-0.512
Mof_O 	O 	0.3807	0.7734	0.5587	-0.508
Mof_O 	O 	0.0896	0.8444	0.5336	-0.661
Mof_O 	O 	0.461	0.0896	0.5606	-0.67
Mof_O 	O 	0.718	0.0942	0.5917	-0.521
Mof_O 	O 	0.7989	0.1078	0.8692	-0.476
Mof_O 	O 	0.6559	0.3552	0.9283	-0.512
Mof_O 	O 	0.8459	0.7734	0.9413	-0.51
Mof_O 	O 	0.066	0.8444	0.9664	-0.66
Mof_O 	O 	0.4494	0.0896	0.9394	-0.672
Mof_O 	O 	0.1878	0.0942	0.9083	-0.524
_end
