data_functionalizedCrystal
_audit_creation_method	'EQeq! by Chris Wilmer'
_symmetry_space_group_name_H-M	'P1'
_symmetry_Int_Tables_number	1
_symmetry_cell_setting	triclinic
loop_
_symmetry_equiv_pos_as_xyz
  x,y,z
_cell_length_a	7.9896
_cell_length_b	10.0831
_cell_length_c	15.0367
_cell_angle_alpha	79.4624
_cell_angle_beta	74.5933
_cell_angle_gamma	66.66
loop_
_atom_site_label
_atom_site_type_symbol
_atom_site_fract_x
_atom_site_fract_y
_atom_site_fract_z
_atom_site_charge
Mof_Cd	Cd	0.33012	0.21901	0.53237	0.411
Mof_Cd	Cd	0.0815	0.78099	0.46763	0.383
Mof_Cd	Cd	0.51744	0.89817	0.25371	0.455
Mof_Cd	Cd	0.66932	0.10183	0.74629	0.45
Mof_H 	H 	0.5665	0.2532	0.004	0.146
Mof_H 	H 	0.8001	0.5153	0.7463	0.139
Mof_H 	H 	0.9801	0.0854	0.1908	-0.014
Mof_H 	H 	0.2071	0.3408	0.9912	0.113
Mof_H 	H 	0.1431	0.5991	0.7585	0.107
Mof_H 	H 	0.8237	0.7468	0.996	0.128
Mof_H 	H 	0.0617	0.4847	0.2537	0.152
Mof_H 	H 	0.3092	0.7128	0.9138	0.123
Mof_H 	H 	0.9358	0.2872	0.0862	0.16
Mof_H 	H 	0.5007	0.4009	0.2415	0.102
Mof_H 	H 	0.5391	0.6592	0.0088	0.129
Mof_H 	H 	0.2563	0.9146	0.8092	-0.002
Mof_C 	C 	0.0764	0.283	0.3052	0.104
Mof_C 	C 	0.517	0.4148	0.1774	-0.118
Mof_C 	C 	0.8209	0.7198	0.6136	0.264
Mof_C 	C 	0.9685	0.6947	0.8701	0.096
Mof_C 	C 	0.9983	0.1653	0.2031	0.215
Mof_C 	C 	0.9715	0.2856	0.1406	-0.294
Mof_C 	C 	0.0541	0.1609	0.2875	-0.198
Mof_C 	C 	0.201	0.4562	0.8666	0.063
Mof_C 	C 	0.5238	0.6626	0.182	0.243
Mof_C 	C 	0.1543	0.2802	0.3864	0.252
Mof_C 	C 	0.5647	0.5932	0.8406	0.264
Mof_C 	C 	0.3667	0.8347	0.7969	0.12
Mof_C 	C 	0.0064	0.5446	0.012	0.187
Mof_C 	C 	0.5269	0.1641	0.1755	0.223
Mof_C 	C 	0.1495	0.4306	0.9612	-0.194
Mof_C 	C 	0.3977	0.7144	0.8594	-0.235
Mof_C 	C 	0.5025	0.8391	0.7125	-0.138
Mof_C 	C 	0.9985	0.4068	0.1594	0.345
Mof_C 	C 	0.3684	0.3374	0.818	0.239
Mof_C 	C 	0.0474	0.4034	0.241	-0.298
Mof_C 	C 	0.563	0.4554	0.988	0.265
Mof_C 	C 	0.6646	0.717	0.6948	0.071
Mof_C 	C 	0.5413	0.5694	0.0388	-0.204
Mof_C 	C 	0.1092	0.5852	0.8226	-0.171
Mof_C 	C 	0.0788	0.0312	0.3482	0.303
Mof_C 	C 	0.9195	0.6727	0.9635	-0.16
Mof_C 	C 	0.6918	0.5966	0.759	-0.204
Mof_C 	C 	0.4582	0.9688	0.6518	0.337
Mof_C 	C 	0.8665	0.8359	0.8245	0.216
Mof_C 	C 	0.5238	0.5438	0.1334	0.059
Mof_C 	C 	0.5557	0.3273	0.0365	-0.216
Mof_C 	C 	0.5333	0.3053	0.1299	0.061
Mof_O 	O 	0.4224	0.2147	0.8587	-0.251
Mof_O 	O 	0.9244	0.8719	0.7377	-0.22
Mof_O 	O 	0.9562	0.5388	0.1038	-0.266
Mof_O 	O 	0.5988	0.4612	0.8962	-0.292
Mof_O 	O 	0.796	0.8336	0.5606	-0.234
Mof_O 	O 	0.4793	0.0816	0.663	-0.302
Mof_O 	O 	0.5547	0.6338	0.2654	-0.229
Mof_O 	O 	0.2239	0.9184	0.337	-0.291
Mof_O 	O 	0.9413	0.0234	0.4142	-0.21
Mof_O 	O 	0.5016	0.0813	0.1311	-0.238
Mof_O 	O 	0.534	0.1281	0.2623	-0.237
Mof_O 	O 	0.4539	0.3662	0.7346	-0.232
Mof_O 	O 	0.4958	0.7853	0.1413	-0.248
Mof_O 	O 	0.1701	0.3895	0.4029	-0.26
Mof_O 	O 	0.3789	0.9766	0.5858	-0.253
Mof_O 	O 	0.9625	0.6105	0.5971	-0.232
Mof_O 	O 	0.1902	0.1664	0.4394	-0.253
Mof_O 	O 	0.714	0.9187	0.8689	-0.231
_end
