data_functionalizedCrystal
_audit_creation_method	'EQeq! by Chris Wilmer'
_symmetry_space_group_name_H-M	'P1'
_symmetry_Int_Tables_number	1
_symmetry_cell_setting	triclinic
loop_
_symmetry_equiv_pos_as_xyz
  x,y,z
_cell_length_a	15.597
_cell_length_b	18.492
_cell_length_c	23.295
_cell_angle_alpha	91.822
_cell_angle_beta	90
_cell_angle_gamma	90
loop_
_atom_site_label
_atom_site_type_symbol
_atom_site_fract_x
_atom_site_fract_y
_atom_site_fract_z
_atom_site_charge
Mof_Cu	Cu	0.34302	0.79754	0.02977	0.852
Mof_Cu	Cu	0.84302	0.70246	0.47023	0.859
Mof_Cu	Cu	0.65698	0.20246	0.97023	0.861
Mof_Cu	Cu	0.15698	0.29754	0.52977	0.856
Mof_Cu	Cu	0.5	0	0.5	0.846
Mof_Cu	Cu	-7.51817e-33	0.5	-0	0.845
Mof_H 	H 	0.3194	0.8539	0.907	-0.007
Mof_H 	H 	0.5256	0.8704	0.0011	0.023
Mof_H 	H 	0.5653	0.8969	0.9038	0.036
Mof_H 	H 	0.3061	0.9194	0.8277	0.075
Mof_H 	H 	0.2897	0.9393	0.7314	0.062
Mof_H 	H 	0.5329	0.8811	0.703	0.055
Mof_H 	H 	0.5505	0.8641	0.8007	0.061
Mof_H 	H 	0.2724	0.9039	0.6305	0.029
Mof_H 	H 	0.3054	0.9483	0.535	0.011
Mof_H 	H 	0.5151	0.9697	0.6273	-0.019
Mof_H 	H 	0.236	0.784	0.1446	-0.014
Mof_H 	H 	0.3155	0.6282	0.0392	-0.003
Mof_H 	H 	0.2288	0.5719	0.113	0.031
Mof_H 	H 	0.2223	0.733	0.2487	0.055
Mof_H 	H 	0.1292	0.7161	0.3265	0.068
Mof_H 	H 	0.9842	0.5852	0.2309	0.085
Mof_H 	H 	0.0716	0.607	0.1512	0.052
Mof_H 	H 	0.9761	0.738	0.3684	-0.014
Mof_H 	H 	0.8792	0.5523	0.4129	0.022
Mof_H 	H 	0.9703	0.5277	0.3294	0.04
Mof_H 	H 	0.1917	0.7421	0.9332	0.011
Mof_H 	H 	0.0654	0.8179	0.9162	0.027
Mof_H 	H 	0.2098	0.9139	0.035	-0.013
Mof_H 	H 	0.1453	0.0195	0.0048	0.09
Mof_H 	H 	0.9498	0.887	0.971	0.084
Mof_H 	H 	0.6397	0.1124	0.5509	-0.023
Mof_H 	H 	0.3944	0.1417	0.5279	0.006
Mof_H 	H 	0.4544	0.2599	0.5516	0.038
Mof_H 	H 	0.6053	0.2978	0.6397	0.05
Mof_H 	H 	0.7014	0.3941	0.6424	0.09
Mof_H 	H 	0.7857	0.3354	0.4868	0.083
Mof_H 	H 	0.6873	0.2401	0.4831	0.046
Mof_H 	H 	0.8194	0.6461	0.593	-0.008
Mof_H 	H 	0.0256	0.6296	0.4989	0.013
Mof_H 	H 	0.0653	0.6031	0.5962	0.043
Mof_H 	H 	0.8061	0.5806	0.6723	0.07
Mof_H 	H 	0.7897	0.5607	0.7686	0.06
Mof_H 	H 	0.0329	0.6189	0.797	0.044
Mof_H 	H 	0.0505	0.6359	0.6993	0.047
Mof_H 	H 	0.7724	0.5961	0.8695	0.029
Mof_H 	H 	0.8054	0.5517	0.965	0.011
Mof_H 	H 	0.0151	0.5303	0.8727	-0.036
Mof_H 	H 	0.736	0.716	0.3554	-0.014
Mof_H 	H 	0.8155	0.8718	0.4608	0.004
Mof_H 	H 	0.7288	0.9281	0.387	0.037
Mof_H 	H 	0.7223	0.767	0.2513	0.059
Mof_H 	H 	0.6292	0.7839	0.1735	0.067
Mof_H 	H 	0.4842	0.9148	0.2691	0.069
Mof_H 	H 	0.5716	0.893	0.3488	0.064
Mof_H 	H 	0.4761	0.762	0.1316	-0.019
Mof_H 	H 	0.3792	0.9477	0.0871	0.024
Mof_H 	H 	0.4703	0.9723	0.1706	0.042
Mof_H 	H 	0.6917	0.7579	0.5668	0.011
Mof_H 	H 	0.5654	0.6821	0.5838	0.029
Mof_H 	H 	0.7098	0.5861	0.465	-0.022
Mof_H 	H 	0.6453	0.4805	0.4952	0.072
Mof_H 	H 	0.4498	0.613	0.529	0.063
Mof_H 	H 	0.1397	0.3876	0.9491	-0.019
Mof_H 	H 	0.8944	0.3583	0.9721	0.009
Mof_H 	H 	0.9544	0.2401	0.9484	0.039
Mof_H 	H 	0.1053	0.2022	0.8603	0.047
Mof_H 	H 	0.2014	0.1059	0.8576	0.086
Mof_H 	H 	0.2857	0.1646	0.0132	0.069
Mof_H 	H 	0.1873	0.2599	0.0169	0.032
Mof_H 	H 	0.6806	0.1461	0.093	-0.01
Mof_H 	H 	0.4744	0.1296	0.9989	0.056
Mof_H 	H 	0.4347	0.1031	0.0962	0.017
Mof_H 	H 	0.6939	0.0806	0.1723	0.069
Mof_H 	H 	0.7103	0.0607	0.2686	0.056
Mof_H 	H 	0.4671	0.1189	0.297	0.051
Mof_H 	H 	0.4495	0.1359	0.1993	0.057
Mof_H 	H 	0.7276	0.0961	0.3695	0.028
Mof_H 	H 	0.6946	0.0517	0.465	0.005
Mof_H 	H 	0.4849	0.0303	0.3727	-0.028
Mof_H 	H 	0.764	0.216	0.8554	-0.015
Mof_H 	H 	0.6845	0.3718	0.9608	0.002
Mof_H 	H 	0.7712	0.4281	0.887	0.031
Mof_H 	H 	0.7777	0.267	0.7513	0.06
Mof_H 	H 	0.8708	0.2839	0.6735	0.066
Mof_H 	H 	0.0158	0.4148	0.7691	0.05
Mof_H 	H 	0.9284	0.393	0.8488	0.068
Mof_H 	H 	0.0239	0.262	0.6316	-0.021
Mof_H 	H 	0.1208	0.4477	0.5871	0.022
Mof_H 	H 	0.0297	0.4723	0.6706	0.034
Mof_H 	H 	0.8083	0.2579	0.0668	0.008
Mof_H 	H 	0.9346	0.1821	0.0838	0.032
Mof_H 	H 	0.7902	0.0861	0.965	-0.029
Mof_H 	H 	0.8547	0.9805	0.9952	0.055
Mof_H 	H 	0.0502	0.113	0.029	0.042
Mof_H 	H 	0.3603	0.8876	0.4491	-0.019
Mof_H 	H 	0.6056	0.8583	0.4721	0.011
Mof_H 	H 	0.5456	0.7401	0.4484	0.038
Mof_H 	H 	0.3947	0.7022	0.3603	0.05
Mof_H 	H 	0.2986	0.6059	0.3576	0.09
Mof_H 	H 	0.2143	0.6646	0.5132	0.082
Mof_H 	H 	0.3127	0.7599	0.5169	0.046
Mof_H 	H 	0.1806	0.3539	0.407	-0.009
Mof_H 	H 	0.9744	0.3704	0.5011	0.068
Mof_H 	H 	0.9347	0.3969	0.4038	0.009
Mof_H 	H 	0.1939	0.4194	0.3277	0.073
Mof_H 	H 	0.2103	0.4393	0.2314	0.058
Mof_H 	H 	0.9671	0.3811	0.203	0.065
Mof_H 	H 	0.9495	0.3641	0.3007	0.071
Mof_H 	H 	0.2276	0.4039	0.1305	0.027
Mof_H 	H 	0.1946	0.4483	0.035	0.005
Mof_H 	H 	0.9849	0.4697	0.1273	-0.008
Mof_H 	H 	0.264	0.284	0.6446	-0.014
Mof_H 	H 	0.1845	0.1282	0.5392	-0.004
Mof_H 	H 	0.2712	0.0719	0.613	0.025
Mof_H 	H 	0.2777	0.233	0.7487	0.057
Mof_H 	H 	0.3708	0.2161	0.8265	0.068
Mof_H 	H 	0.5158	0.0852	0.7309	0.062
Mof_H 	H 	0.4284	0.107	0.6512	0.058
Mof_H 	H 	0.5239	0.238	0.8684	-0.017
Mof_H 	H 	0.6208	0.0523	0.9129	0.019
Mof_H 	H 	0.5297	0.0277	0.8294	0.031
Mof_H 	H 	0.3083	0.2421	0.4332	0.007
Mof_H 	H 	0.4346	0.3179	0.4162	0.029
Mof_H 	H 	0.2902	0.4139	0.535	-0.022
Mof_H 	H 	0.3547	0.5195	0.5048	0.072
Mof_H 	H 	0.5502	0.387	0.471	0.063
Mof_H 	H 	0.8603	0.6124	0.0509	-0.023
Mof_H 	H 	0.1056	0.6417	0.0279	0.009
Mof_H 	H 	0.0456	0.7599	0.0516	0.036
Mof_H 	H 	0.8947	0.7978	0.1397	0.053
Mof_H 	H 	0.7986	0.8941	0.1424	0.094
Mof_H 	H 	0.7143	0.8354	0.9868	0.096
Mof_H 	H 	0.8127	0.7401	0.9831	0.058
Mof_C 	C 	0.376	0.8607	0.9185	0.104
Mof_C 	C 	0.4887	0.8698	0.9697	0.025
Mof_C 	C 	0.5107	0.8847	0.9163	0.006
Mof_C 	C 	0.4306	0.8896	0.8236	0.098
Mof_C 	C 	0.3521	0.9123	0.8027	-0.078
Mof_C 	C 	0.3423	0.9241	0.7455	-0.071
Mof_C 	C 	0.4102	0.9136	0.709	0.089
Mof_C 	C 	0.4878	0.8898	0.7284	-0.075
Mof_C 	C 	0.4977	0.8788	0.7867	-0.084
Mof_C 	C 	0.3248	0.9219	0.6183	-0.004
Mof_C 	C 	0.3435	0.9469	0.5657	0.007
Mof_C 	C 	0.4593	0.9587	0.616	0.091
Mof_C 	C 	0.2451	0.7388	0.1271	0.091
Mof_C 	C 	0.2887	0.6527	0.0697	-0.003
Mof_C 	C 	0.2405	0.621	0.11	-0.005
Mof_C 	C 	0.1569	0.667	0.1941	0.075
Mof_C 	C 	0.1747	0.7029	0.2449	-0.064
Mof_C 	C 	0.119	0.6927	0.2912	-0.095
Mof_C 	C 	0.0499	0.6484	0.2842	0.112
Mof_C 	C 	0.0317	0.6154	0.2345	-0.125
Mof_C 	C 	0.0854	0.627	0.1872	-0.052
Mof_C 	C 	0.9638	0.6889	0.3697	0.102
Mof_C 	C 	0.911	0.5866	0.3938	0.003
Mof_C 	C 	0.9606	0.5726	0.3473	0.015
Mof_C 	C 	0.1795	0.7863	0.9516	0.004
Mof_C 	C 	0.1096	0.8278	0.9421	0.006
Mof_C 	C 	0.19	0.8802	0.0076	0.082
Mof_C 	C 	0.0565	0.9447	0.9877	0.152
Mof_C 	C 	0.0865	0.0113	0.0032	-0.165
Mof_C 	C 	0.9703	0.9323	0.9831	-0.119
Mof_C 	C 	0.5862	0.1341	0.5476	0.098
Mof_C 	C 	0.452	0.151	0.5354	0.004
Mof_C 	C 	0.4842	0.2163	0.5483	-0.006
Mof_C 	C 	0.6354	0.2621	0.5606	0.061
Mof_C 	C 	0.6408	0.3058	0.6085	-0.043
Mof_C 	C 	0.6993	0.3623	0.6107	-0.127
Mof_C 	C 	0.7534	0.3703	0.566	0.158
Mof_C 	C 	0.7494	0.3274	0.5176	-0.129
Mof_C 	C 	0.69	0.2712	0.5153	-0.045
Mof_C 	C 	0.876	0.6393	0.5815	0.102
Mof_C 	C 	0.9887	0.6302	0.5303	0.051
Mof_C 	C 	0.0107	0.6153	0.5837	-0.033
Mof_C 	C 	0.9306	0.6104	0.6764	0.089
Mof_C 	C 	0.8521	0.5877	0.6973	-0.074
Mof_C 	C 	0.8423	0.5759	0.7545	-0.074
Mof_C 	C 	0.9102	0.5864	0.791	0.087
Mof_C 	C 	0.9878	0.6102	0.7716	-0.066
Mof_C 	C 	0.9977	0.6212	0.7133	-0.067
Mof_C 	C 	0.8248	0.5781	0.8817	-0.005
Mof_C 	C 	0.8435	0.5531	0.9343	0.006
Mof_C 	C 	0.9593	0.5413	0.884	0.107
Mof_C 	C 	0.7451	0.7612	0.3729	0.093
Mof_C 	C 	0.7887	0.8473	0.4303	-0
Mof_C 	C 	0.7405	0.879	0.39	-0.003
Mof_C 	C 	0.6569	0.833	0.3059	0.087
Mof_C 	C 	0.6747	0.7971	0.2551	-0.072
Mof_C 	C 	0.619	0.8073	0.2088	-0.086
Mof_C 	C 	0.5499	0.8516	0.2158	0.107
Mof_C 	C 	0.5317	0.8846	0.2655	-0.089
Mof_C 	C 	0.5854	0.873	0.3128	-0.07
Mof_C 	C 	0.4638	0.8111	0.1303	0.1
Mof_C 	C 	0.411	0.9134	0.1062	0.002
Mof_C 	C 	0.4606	0.9274	0.1527	0.015
Mof_C 	C 	0.6795	0.7137	0.5484	0.003
Mof_C 	C 	0.6096	0.6722	0.5579	0.002
Mof_C 	C 	0.69	0.6198	0.4924	0.106
Mof_C 	C 	0.5565	0.5553	0.5123	0.093
Mof_C 	C 	0.5865	0.4887	0.4968	-0.083
Mof_C 	C 	0.4703	0.5677	0.5169	-0.076
Mof_C 	C 	0.0862	0.3659	0.9524	0.098
Mof_C 	C 	0.952	0.349	0.9646	0.012
Mof_C 	C 	0.9842	0.2837	0.9517	0.002
Mof_C 	C 	0.1354	0.2379	0.9394	0.056
Mof_C 	C 	0.1408	0.1942	0.8915	-0.041
Mof_C 	C 	0.1993	0.1377	0.8893	-0.127
Mof_C 	C 	0.2534	0.1297	0.934	0.154
Mof_C 	C 	0.2494	0.1726	0.9824	-0.115
Mof_C 	C 	0.19	0.2288	0.9847	-0.028
Mof_C 	C 	0.624	0.1393	0.0815	0.098
Mof_C 	C 	0.5113	0.1302	0.0303	-0.035
Mof_C 	C 	0.4893	0.1153	0.0837	0.03
Mof_C 	C 	0.5694	0.1104	0.1764	0.093
Mof_C 	C 	0.6479	0.0877	0.1973	-0.081
Mof_C 	C 	0.6577	0.0759	0.2545	-0.073
Mof_C 	C 	0.5898	0.0864	0.291	0.083
Mof_C 	C 	0.5122	0.1102	0.2716	-0.077
Mof_C 	C 	0.5023	0.1212	0.2133	-0.088
Mof_C 	C 	0.6752	0.0781	0.3817	-0.008
Mof_C 	C 	0.6565	0.0531	0.4343	0.003
Mof_C 	C 	0.5407	0.0413	0.384	0.085
Mof_C 	C 	0.7549	0.2612	0.8729	0.093
Mof_C 	C 	0.7113	0.3473	0.9303	-0.002
Mof_C 	C 	0.7595	0.379	0.89	-0.003
Mof_C 	C 	0.8431	0.333	0.8059	0.092
Mof_C 	C 	0.8253	0.2971	0.7551	-0.079
Mof_C 	C 	0.881	0.3073	0.7088	-0.081
Mof_C 	C 	0.9501	0.3516	0.7158	0.103
Mof_C 	C 	0.9683	0.3846	0.7655	-0.064
Mof_C 	C 	0.9146	0.373	0.8128	-0.085
Mof_C 	C 	0.0362	0.3111	0.6303	0.098
Mof_C 	C 	0.089	0.4134	0.6062	-0.001
Mof_C 	C 	0.0394	0.4274	0.6527	0.013
Mof_C 	C 	0.8205	0.2137	0.0484	0.003
Mof_C 	C 	0.8904	0.1722	0.0579	-0.002
Mof_C 	C 	0.81	0.1198	0.9924	0.121
Mof_C 	C 	0.9435	0.0553	0.0123	0.039
Mof_C 	C 	0.9135	0.9887	0.9968	-0.003
Mof_C 	C 	0.0297	0.0677	0.0169	-0.036
Mof_C 	C 	0.4138	0.8659	0.4524	0.098
Mof_C 	C 	0.548	0.849	0.4646	0.005
Mof_C 	C 	0.5158	0.7837	0.4517	-0.005
Mof_C 	C 	0.3646	0.7379	0.4394	0.061
Mof_C 	C 	0.3592	0.6942	0.3915	-0.042
Mof_C 	C 	0.3007	0.6377	0.3893	-0.128
Mof_C 	C 	0.2466	0.6297	0.434	0.158
Mof_C 	C 	0.2506	0.6726	0.4824	-0.129
Mof_C 	C 	0.31	0.7288	0.4847	-0.045
Mof_C 	C 	0.124	0.3607	0.4185	0.1
Mof_C 	C 	0.0113	0.3698	0.4697	-0.064
Mof_C 	C 	0.9893	0.3847	0.4163	0.071
Mof_C 	C 	0.0694	0.3896	0.3236	0.101
Mof_C 	C 	0.1479	0.4123	0.3027	-0.084
Mof_C 	C 	0.1577	0.4241	0.2455	-0.071
Mof_C 	C 	0.0898	0.4136	0.209	0.087
Mof_C 	C 	0.0122	0.3898	0.2284	-0.09
Mof_C 	C 	0.0023	0.3788	0.2867	-0.106
Mof_C 	C 	0.1752	0.4219	0.1183	-0.007
Mof_C 	C 	0.1565	0.4469	0.0657	0.004
Mof_C 	C 	0.0407	0.4587	0.116	0.064
Mof_C 	C 	0.2549	0.2388	0.6271	0.091
Mof_C 	C 	0.2113	0.1527	0.5697	-0.004
Mof_C 	C 	0.2595	0.121	0.61	-0.005
Mof_C 	C 	0.3431	0.167	0.6941	0.083
Mof_C 	C 	0.3253	0.2029	0.7449	-0.072
Mof_C 	C 	0.381	0.1927	0.7912	-0.088
Mof_C 	C 	0.4501	0.1484	0.7842	0.105
Mof_C 	C 	0.4683	0.1154	0.7345	-0.093
Mof_C 	C 	0.4146	0.127	0.6872	-0.071
Mof_C 	C 	0.5362	0.1889	0.8697	0.1
Mof_C 	C 	0.589	0.0866	0.8938	0
Mof_C 	C 	0.5394	0.0726	0.8473	0.013
Mof_C 	C 	0.3205	0.2863	0.4516	0.003
Mof_C 	C 	0.3904	0.3278	0.4421	0.001
Mof_C 	C 	0.31	0.3802	0.5076	0.106
Mof_C 	C 	0.4435	0.4447	0.4877	0.092
Mof_C 	C 	0.4135	0.5113	0.5032	-0.083
Mof_C 	C 	0.5297	0.4323	0.4831	-0.076
Mof_C 	C 	0.9138	0.6341	0.0476	0.098
Mof_C 	C 	0.048	0.651	0.0354	-0.006
Mof_C 	C 	0.0158	0.7163	0.0483	-0.016
Mof_C 	C 	0.8646	0.7621	0.0606	0.065
Mof_C 	C 	0.8592	0.8058	0.1085	-0.042
Mof_C 	C 	0.8007	0.8623	0.1107	-0.129
Mof_C 	C 	0.7466	0.8703	0.066	0.163
Mof_C 	C 	0.7506	0.8274	0.0176	-0.144
Mof_C 	C 	0.81	0.7712	0.0153	-0.057
Mof_Br	Br	0.83234	0.44746	0.56748	-0.286
Mof_Br	Br	0.33234	0.05254	0.93252	-0.296
Mof_Br	Br	0.16766	0.55254	0.43252	-0.292
Mof_Br	Br	0.66766	0.94746	0.06748	-0.282
Mof_N 	N 	0.404	0.8535	0.9714	-0.228
Mof_N 	N 	0.4399	0.8791	0.8835	-0.136
Mof_N 	N 	0.3992	0.9285	0.6502	-0.135
Mof_N 	N 	0.4274	0.9702	0.5645	-0.23
Mof_N 	N 	0.2925	0.726	0.0799	-0.239
Mof_N 	N 	0.2127	0.6761	0.1453	-0.134
Mof_N 	N 	0.9937	0.6373	0.3319	-0.134
Mof_N 	N 	0.9146	0.6589	0.4085	-0.231
Mof_N 	N 	0.2297	0.8205	0.9933	-0.219
Mof_N 	N 	0.1173	0.887	0.9781	-0.138
Mof_N 	N 	0.515	0.0996	0.5346	-0.236
Mof_N 	N 	0.571	0.2056	0.5556	-0.133
Mof_N 	N 	0.904	0.6465	0.5286	-0.236
Mof_N 	N 	0.9399	0.6209	0.6165	-0.125
Mof_N 	N 	0.8992	0.5715	0.8498	-0.137
Mof_N 	N 	0.9274	0.5298	0.9355	-0.233
Mof_N 	N 	0.7925	0.774	0.4201	-0.237
Mof_N 	N 	0.7127	0.8239	0.3547	-0.135
Mof_N 	N 	0.4937	0.8627	0.1681	-0.137
Mof_N 	N 	0.4146	0.8411	0.0915	-0.233
Mof_N 	N 	0.7297	0.6795	0.5067	-0.231
Mof_N 	N 	0.6173	0.613	0.5219	-0.139
Mof_N 	N 	0.015	0.4004	0.9654	-0.236
Mof_N 	N 	0.071	0.2944	0.9444	-0.135
Mof_N 	N 	0.596	0.1465	0.0286	-0.227
Mof_N 	N 	0.5601	0.1209	0.1165	-0.142
Mof_N 	N 	0.6008	0.0715	0.3498	-0.136
Mof_N 	N 	0.5726	0.0298	0.4355	-0.238
Mof_N 	N 	0.7075	0.274	0.9201	-0.237
Mof_N 	N 	0.7873	0.3239	0.8547	-0.137
Mof_N 	N 	0.0063	0.3627	0.6681	-0.141
Mof_N 	N 	0.0854	0.3411	0.5915	-0.233
Mof_N 	N 	0.7703	0.1795	0.0067	-0.241
Mof_N 	N 	0.8827	0.113	0.0219	-0.137
Mof_N 	N 	0.485	0.9004	0.4654	-0.229
Mof_N 	N 	0.429	0.7944	0.4444	-0.132
Mof_N 	N 	0.096	0.3535	0.4714	-0.22
Mof_N 	N 	0.0601	0.3791	0.3835	-0.153
Mof_N 	N 	0.1008	0.4285	0.1502	-0.133
Mof_N 	N 	0.0726	0.4702	0.0645	-0.234
Mof_N 	N 	0.2075	0.226	0.5799	-0.239
Mof_N 	N 	0.2873	0.1761	0.6453	-0.136
Mof_N 	N 	0.5063	0.1373	0.8319	-0.138
Mof_N 	N 	0.5854	0.1589	0.9085	-0.231
Mof_N 	N 	0.2703	0.3205	0.4933	-0.232
Mof_N 	N 	0.3827	0.387	0.4781	-0.139
Mof_N 	N 	0.985	0.5996	0.0346	-0.226
Mof_N 	N 	0.929	0.7056	0.0556	-0.128
_end
