data_functionalizedCrystal
_audit_creation_method	'EQeq! by Chris Wilmer'
_symmetry_space_group_name_H-M	'P1'
_symmetry_Int_Tables_number	1
_symmetry_cell_setting	triclinic
loop_
_symmetry_equiv_pos_as_xyz
  x,y,z
_cell_length_a	9.5879
_cell_length_b	11.57
_cell_length_c	14.583
_cell_angle_alpha	69.16
_cell_angle_beta	85.2
_cell_angle_gamma	86.3
loop_
_atom_site_label
_atom_site_type_symbol
_atom_site_fract_x
_atom_site_fract_y
_atom_site_fract_z
_atom_site_charge
Mof_Ce	Ce	0.79391	0.95685	0.00121	2.269
Mof_Ce	Ce	0.20609	0.04315	0.99879	2.269
Mof_H 	H 	0.8676	0.3698	0.8364	0.152
Mof_H 	H 	0.9696	0.3728	0.7461	0.165
Mof_H 	H 	0.329	0.384	0.894	0.146
Mof_H 	H 	0.258	0.48	0.802	0.112
Mof_H 	H 	0.8787	0.9444	0.5559	0.077
Mof_H 	H 	0.8756	0.0663	0.4632	0.081
Mof_H 	H 	0.2727	0.3481	0.394	0.134
Mof_H 	H 	0.2584	0.286	0.3218	0.13
Mof_H 	H 	0.8512	0.1069	0.2855	0.171
Mof_H 	H 	0.8182	0.2303	0.198	0.173
Mof_H 	H 	0.1191	0.5333	0.4338	0.085
Mof_H 	H 	0.1109	0.4104	0.5257	0.089
Mof_H 	H 	0.6728	0.0489	0.6052	0.125
Mof_H 	H 	0.6307	0.1197	0.6713	0.128
Mof_H 	H 	0.4816	0.8341	0.8049	0.12
Mof_H 	H 	0.6312	0.8275	0.7553	0.125
Mof_H 	H 	0.0312	0.4824	0.9088	0.084
Mof_H 	H 	0.0786	0.3883	0.0097	0.105
Mof_H 	H 	0.1324	0.6302	0.1636	0.151
Mof_H 	H 	0.0304	0.6272	0.2539	0.164
Mof_H 	H 	0.671	0.616	0.106	0.146
Mof_H 	H 	0.742	0.52	0.198	0.112
Mof_H 	H 	0.1213	0.0556	0.4441	0.077
Mof_H 	H 	0.1244	0.9337	0.5368	0.081
Mof_H 	H 	0.7273	0.6519	0.606	0.134
Mof_H 	H 	0.7416	0.714	0.6782	0.13
Mof_H 	H 	0.1488	0.8931	0.7145	0.171
Mof_H 	H 	0.1818	0.7697	0.802	0.173
Mof_H 	H 	0.8809	0.4667	0.5662	0.085
Mof_H 	H 	0.8891	0.5896	0.4743	0.089
Mof_H 	H 	0.3272	0.9511	0.3948	0.125
Mof_H 	H 	0.3693	0.8803	0.3287	0.128
Mof_H 	H 	0.5184	0.1659	0.1951	0.12
Mof_H 	H 	0.3688	0.1725	0.2447	0.125
Mof_H 	H 	0.9688	0.5176	0.0912	0.084
Mof_H 	H 	0.9214	0.6117	0.9903	0.105
Mof_C 	C 	0.9231	0.0976	0.1499	0.593
Mof_C 	C 	0.8884	0.1934	0.6807	0.103
Mof_C 	C 	0.0078	0.2236	0.8685	0.501
Mof_C 	C 	0.9129	0.3192	0.8011	-0.4
Mof_C 	C 	0.9294	0.0183	0.5186	-0.153
Mof_C 	C 	0.9853	0.3056	0.3164	0.068
Mof_C 	C 	0.888	0.1643	0.223	-0.451
Mof_C 	C 	0.944	0.093	0.5824	0.146
Mof_C 	C 	0.9956	0.4072	0.4154	0.14
Mof_C 	C 	0.0566	0.4704	0.4757	-0.159
Mof_C 	C 	0.5752	0.7973	0.8171	-0.334
Mof_C 	C 	0.6355	0.8448	0.8888	0.392
Mof_C 	C 	0.3988	0.6126	0.9127	0.093
Mof_C 	C 	0.1886	0.5451	0.961	0.14
Mof_C 	C 	0.0595	0.4752	0.973	-0.183
Mof_C 	C 	0.0769	0.9024	0.8501	0.593
Mof_C 	C 	0.1116	0.8066	0.3193	0.103
Mof_C 	C 	0.9922	0.7764	0.1315	0.501
Mof_C 	C 	0.0871	0.6808	0.1989	-0.4
Mof_C 	C 	0.0706	0.9817	0.4814	-0.153
Mof_C 	C 	0.0147	0.6944	0.6836	0.068
Mof_C 	C 	0.112	0.8357	0.777	-0.451
Mof_C 	C 	0.056	0.907	0.4176	0.146
Mof_C 	C 	0.0044	0.5928	0.5846	0.14
Mof_C 	C 	0.9434	0.5296	0.5243	-0.159
Mof_C 	C 	0.4248	0.2027	0.1829	-0.334
Mof_C 	C 	0.3645	0.1552	0.1112	0.392
Mof_C 	C 	0.6012	0.3874	0.0873	0.093
Mof_C 	C 	0.8114	0.4549	0.039	0.14
Mof_C 	C 	0.9405	0.5248	0.027	-0.183
Mof_S 	S 	0.04846	0.22684	0.23868	0.077
Mof_S 	S 	0.5639	0.63193	0.85124	0.043
Mof_S 	S 	0.78031	0.25658	0.75418	-0.019
Mof_S 	S 	0.95154	0.77316	0.76132	0.077
Mof_S 	S 	0.4361	0.36807	0.14876	0.043
Mof_S 	S 	0.21969	0.74342	0.24582	-0.019
Mof_N 	N 	0.3066	0.5326	0.9051	-0.118
Mof_N 	N 	0.2061	0.6288	0.9996	-0.126
Mof_N 	N 	0.0757	0.3487	0.3626	-0.106
Mof_N 	N 	0.0232	0.2014	0.6618	-0.113
Mof_N 	N 	0.3417	0.6706	0.9696	-0.118
Mof_N 	N 	0.8335	0.1267	0.6333	-0.114
Mof_N 	N 	0.3337	0.4545	0.85	-0.218
Mof_N 	N 	0.2211	0.3245	0.359	-0.246
Mof_N 	N 	0.0586	0.1353	0.5973	-0.117
Mof_N 	N 	0.8663	0.4015	0.4029	-0.108
Mof_N 	N 	0.8574	0.3352	0.3385	-0.096
Mof_N 	N 	0.6945	0.0943	0.6371	-0.241
Mof_N 	N 	0.6934	0.4674	0.0949	-0.118
Mof_N 	N 	0.7939	0.3712	0.0004	-0.126
Mof_N 	N 	0.9243	0.6513	0.6374	-0.106
Mof_N 	N 	0.9768	0.7986	0.3382	-0.113
Mof_N 	N 	0.6583	0.3294	0.0304	-0.118
Mof_N 	N 	0.1665	0.8733	0.3667	-0.114
Mof_N 	N 	0.6663	0.5455	0.15	-0.218
Mof_N 	N 	0.7789	0.6755	0.641	-0.246
Mof_N 	N 	0.9414	0.8647	0.4027	-0.117
Mof_N 	N 	0.1337	0.5985	0.5971	-0.108
Mof_N 	N 	0.1426	0.6648	0.6615	-0.096
Mof_N 	N 	0.3055	0.9057	0.3629	-0.241
Mof_O 	O 	0.8254	0.0476	0.12938	-0.597
Mof_O 	O 	0.9595	0.1217	0.92507	-0.682
Mof_O 	O 	0.1315	0.2491	0.86917	-0.53
Mof_O 	O 	0.0489	0.0994	0.1174	-0.558
Mof_O 	O 	0.6828	0.7762	0.96695	-0.469
Mof_O 	O 	0.6383	0.9629	0.86146	-0.51
Mof_O 	O 	0.1746	0.9524	0.87062	-0.597
Mof_O 	O 	0.0405	0.8783	0.07493	-0.682
Mof_O 	O 	0.8685	0.7509	0.13083	-0.53
Mof_O 	O 	0.9511	0.9006	0.8826	-0.558
Mof_O 	O 	0.3172	0.2238	0.03305	-0.469
Mof_O 	O 	0.3617	0.0371	0.13854	-0.51
_end
