data_functionalizedCrystal
_audit_creation_method	'EQeq! by Chris Wilmer'
_symmetry_space_group_name_H-M	'P1'
_symmetry_Int_Tables_number	1
_symmetry_cell_setting	triclinic
loop_
_symmetry_equiv_pos_as_xyz
  x,y,z
_cell_length_a	10.464
_cell_length_b	17.142
_cell_length_c	8.4481
_cell_angle_alpha	90
_cell_angle_beta	90
_cell_angle_gamma	90
loop_
_atom_site_label
_atom_site_type_symbol
_atom_site_fract_x
_atom_site_fract_y
_atom_site_fract_z
_atom_site_charge
Mof_V 	V 	0.85891	0.43838	0.22045	1.696
Mof_P 	P 	0.62872	0.41284	0.47438	0.548
Mof_O 	O 	0.84236	0.32603	0.2543	-1.178
Mof_O 	O 	0.66278	0.45293	0.63259	-0.55
Mof_O 	O 	0.4826	0.41388	0.45157	-0.587
Mof_O 	O 	0.67482	0.32784	0.49053	-0.569
Mof_O 	O 	0.69461	0.45521	0.33579	-0.628
Mof_H 	H 	0.901	0.31	0.219	0.42
Mof_V 	V 	0.64109	0.56162	0.72045	1.695
Mof_P 	P 	0.87128	0.58716	0.97438	0.542
Mof_O 	O 	0.65764	0.67397	0.7543	-1.179
Mof_O 	O 	0.83722	0.54707	0.13259	-0.549
Mof_O 	O 	0.0174	0.58612	0.95157	-0.585
Mof_O 	O 	0.82518	0.67216	0.99053	-0.572
Mof_O 	O 	0.80539	0.54479	0.83579	-0.628
Mof_H 	H 	0.599	0.69	0.719	0.419
Mof_V 	V 	0.14109	0.93838	0.77955	1.695
Mof_P 	P 	0.37128	0.91284	0.52562	0.547
Mof_O 	O 	0.15764	0.82603	0.7457	-1.179
Mof_O 	O 	0.33722	0.95293	0.36741	-0.55
Mof_O 	O 	0.5174	0.91388	0.54843	-0.587
Mof_O 	O 	0.32518	0.82784	0.50947	-0.57
Mof_O 	O 	0.30539	0.95521	0.66421	-0.629
Mof_H 	H 	0.099	0.81	0.781	0.42
Mof_V 	V 	0.35891	0.06162	0.27955	1.695
Mof_P 	P 	0.12872	0.08716	0.02562	0.54
Mof_O 	O 	0.34236	0.17397	0.2457	-1.179
Mof_O 	O 	0.16278	0.04707	0.86741	-0.545
Mof_O 	O 	0.9826	0.08612	0.04843	-0.586
Mof_O 	O 	0.17482	0.17216	0.00947	-0.572
Mof_O 	O 	0.19461	0.04479	0.16421	-0.629
Mof_H 	H 	0.401	0.19	0.281	0.419
Mof_V 	V 	0.14109	0.56162	0.77955	1.695
Mof_P 	P 	0.37128	0.58716	0.52562	0.547
Mof_O 	O 	0.15764	0.67397	0.7457	-1.179
Mof_O 	O 	0.33722	0.54707	0.36741	-0.551
Mof_O 	O 	0.5174	0.58612	0.54843	-0.588
Mof_O 	O 	0.32518	0.67216	0.50947	-0.57
Mof_O 	O 	0.30539	0.54479	0.66421	-0.628
Mof_H 	H 	0.099	0.69	0.781	0.42
Mof_V 	V 	0.35891	0.43838	0.27955	1.695
Mof_P 	P 	0.12872	0.41284	0.02562	0.542
Mof_O 	O 	0.34236	0.32603	0.2457	-1.179
Mof_O 	O 	0.16278	0.45293	0.86741	-0.549
Mof_O 	O 	0.9826	0.41388	0.04843	-0.585
Mof_O 	O 	0.17482	0.32784	0.00947	-0.572
Mof_O 	O 	0.19461	0.45521	0.16421	-0.628
Mof_H 	H 	0.401	0.31	0.281	0.419
Mof_V 	V 	0.85891	0.06162	0.22045	1.695
Mof_P 	P 	0.62872	0.08716	0.47438	0.547
Mof_O 	O 	0.84236	0.17397	0.2543	-1.179
Mof_O 	O 	0.66278	0.04707	0.63259	-0.55
Mof_O 	O 	0.4826	0.08612	0.45157	-0.587
Mof_O 	O 	0.67482	0.17216	0.49053	-0.57
Mof_O 	O 	0.69461	0.04479	0.33579	-0.629
Mof_H 	H 	0.901	0.19	0.219	0.42
Mof_V 	V 	0.64109	0.93838	0.72045	1.695
Mof_P 	P 	0.87128	0.91284	0.97438	0.54
Mof_O 	O 	0.65764	0.82603	0.7543	-1.179
Mof_O 	O 	0.83722	0.95293	0.13259	-0.545
Mof_O 	O 	0.0174	0.91388	0.95157	-0.586
Mof_O 	O 	0.82518	0.82784	0.99053	-0.572
Mof_O 	O 	0.80539	0.95521	0.83579	-0.629
Mof_H 	H 	0.599	0.81	0.719	0.419
Mof_V 	V 	0.71662	0.25	0.32863	1.709
Mof_V 	V 	0.78338	0.75	0.82863	1.709
Mof_V 	V 	0.28338	0.75	0.67137	1.709
Mof_V 	V 	0.21662	0.25	0.17137	1.709
_end
