data_functionalizedCrystal
_audit_creation_method	'EQeq! by Chris Wilmer'
_symmetry_space_group_name_H-M	'P1'
_symmetry_Int_Tables_number	1
_symmetry_cell_setting	triclinic
loop_
_symmetry_equiv_pos_as_xyz
  x,y,z
_cell_length_a	10.615
_cell_length_b	9.6419
_cell_length_c	28.48
_cell_angle_alpha	90
_cell_angle_beta	94.819
_cell_angle_gamma	90
loop_
_atom_site_label
_atom_site_type_symbol
_atom_site_fract_x
_atom_site_fract_y
_atom_site_fract_z
_atom_site_charge
Mof_Mn	Mn	0.55212	0.19468	0.09425	0.839
Mof_Mn	Mn	0.7677	0.26041	0.69087	0.947
Mof_O 	O 	0.35143	0.1487	0.09054	-0.342
Mof_O 	O 	0.3438	0.0051	0.02878	-0.285
Mof_O 	O 	0.9044	0.2153	0.14198	-0.37
Mof_O 	O 	0.7484	0.2343	0.08571	-0.403
Mof_O 	O 	0.4728	0.6201	0.8672	-0.374
Mof_O 	O 	0.2975	0.5557	0.82418	-0.367
Mof_O 	O 	0.3877	0.8958	0.83569	-0.421
Mof_O 	O 	0.2414	0.0299	0.80041	-0.287
Mof_O 	O 	0.9107	0.2099	0.75057	-0.311
Mof_O 	O 	0.719	0.2571	0.76477	-0.322
Mof_C 	C 	0.2951	0.0922	0.05434	0.313
Mof_C 	C 	0.1609	0.1344	0.04084	-0.083
Mof_C 	C 	0.0792	0.1648	0.07546	0.029
Mof_H 	H 	0.1089	0.1636	0.1071	0.053
Mof_C 	C 	0.954	0.1967	0.06252	-0.101
Mof_C 	C 	0.9118	0.2053	0.01461	0.003
Mof_H 	H 	0.8281	0.2293	0.0061	0.042
Mof_C 	C 	0.9916	0.179	0.97957	-0.03
Mof_C 	C 	0.1164	0.1396	0.99386	-0.005
Mof_H 	H 	0.1706	0.1164	0.9711	0.038
Mof_C 	C 	0.8619	0.2171	0.09947	0.375
Mof_C 	C 	0.9487	0.1879	0.92823	0.084
Mof_C 	C 	0.8212	0.2082	0.91309	-0.143
Mof_H 	H 	0.7632	0.2169	0.9356	0.092
Mof_C 	C 	0.7773	0.2159	0.86545	0.089
Mof_C 	C 	0.8642	0.2062	0.83139	-0.109
Mof_C 	C 	0.9914	0.183	0.84621	0.045
Mof_H 	H 	0.0495	0.1735	0.8237	0.05
Mof_C 	C 	0.0326	0.1741	0.89301	-0.119
Mof_H 	H 	0.1179	0.1585	0.9016	0.074
Mof_C 	C 	0.6379	0.2343	0.85398	-0.01
Mof_C 	C 	0.5846	0.3659	0.85524	-0.006
Mof_H 	H 	0.6361	0.4417	0.8634	0.057
Mof_C 	C 	0.4548	0.3865	0.8444	-0.091
Mof_C 	C 	0.3779	0.2723	0.83303	0.029
Mof_H 	H 	0.2919	0.2848	0.8251	0.048
Mof_C 	C 	0.4296	0.1397	0.83356	-0.09
Mof_C 	C 	0.5594	0.1215	0.84351	-0.009
Mof_H 	H 	0.5937	0.0328	0.8431	0.056
Mof_C 	C 	0.4038	0.5314	0.84537	0.37
Mof_C 	C 	0.3469	0.0157	0.82223	0.326
Mof_C 	C 	0.8287	0.2247	0.77952	0.328
Mof_Mn	Mn	0.44788	0.69468	0.40575	0.838
Mof_Mn	Mn	0.2323	0.76041	0.80913	0.946
Mof_O 	O 	0.64857	0.6487	0.40946	-0.343
Mof_O 	O 	0.6562	0.5051	0.47122	-0.287
Mof_O 	O 	0.0956	0.7153	0.35802	-0.371
Mof_O 	O 	0.2516	0.7343	0.41429	-0.404
Mof_O 	O 	0.5272	0.1201	0.6328	-0.375
Mof_O 	O 	0.7025	0.0557	0.67582	-0.368
Mof_O 	O 	0.6123	0.3958	0.66431	-0.422
Mof_O 	O 	0.7586	0.5299	0.69959	-0.288
Mof_O 	O 	0.0893	0.7099	0.74943	-0.312
Mof_O 	O 	0.281	0.7571	0.73523	-0.323
Mof_C 	C 	0.7049	0.5922	0.44566	0.313
Mof_C 	C 	0.8391	0.6344	0.45916	-0.083
Mof_C 	C 	0.9208	0.6648	0.42454	0.029
Mof_H 	H 	0.8911	0.6636	0.3929	0.053
Mof_C 	C 	0.046	0.6967	0.43748	-0.101
Mof_C 	C 	0.0882	0.7053	0.48539	0.002
Mof_H 	H 	0.1719	0.7293	0.4939	0.042
Mof_C 	C 	0.0084	0.679	0.52043	-0.03
Mof_C 	C 	0.8836	0.6396	0.50614	-0.005
Mof_H 	H 	0.8294	0.6164	0.5289	0.038
Mof_C 	C 	0.1381	0.7171	0.40053	0.375
Mof_C 	C 	0.0513	0.6879	0.57177	0.084
Mof_C 	C 	0.1788	0.7082	0.58691	-0.143
Mof_H 	H 	0.2368	0.7169	0.5644	0.092
Mof_C 	C 	0.2227	0.7159	0.63455	0.089
Mof_C 	C 	0.1358	0.7062	0.66861	-0.109
Mof_C 	C 	0.0086	0.683	0.65379	0.046
Mof_H 	H 	0.9505	0.6735	0.6763	0.05
Mof_C 	C 	0.9674	0.6741	0.60699	-0.12
Mof_H 	H 	0.8821	0.6585	0.5984	0.074
Mof_C 	C 	0.3621	0.7343	0.64602	-0.009
Mof_C 	C 	0.4154	0.8659	0.64476	-0.006
Mof_H 	H 	0.3639	0.9417	0.6366	0.057
Mof_C 	C 	0.5452	0.8865	0.6556	-0.091
Mof_C 	C 	0.6221	0.7723	0.66697	0.029
Mof_H 	H 	0.7081	0.7848	0.6749	0.048
Mof_C 	C 	0.5704	0.6397	0.66644	-0.09
Mof_C 	C 	0.4406	0.6215	0.65649	-0.009
Mof_H 	H 	0.4063	0.5328	0.6569	0.057
Mof_C 	C 	0.5962	0.0314	0.65463	0.37
Mof_C 	C 	0.6531	0.5157	0.67777	0.326
Mof_C 	C 	0.1713	0.7247	0.72048	0.328
Mof_Mn	Mn	0.44788	0.80532	0.90575	0.838
Mof_Mn	Mn	0.2323	0.73959	0.30913	0.946
Mof_O 	O 	0.64857	0.8513	0.90946	-0.343
Mof_O 	O 	0.6562	0.9949	0.97122	-0.286
Mof_O 	O 	0.0956	0.7847	0.85802	-0.371
Mof_O 	O 	0.2516	0.7657	0.91429	-0.404
Mof_O 	O 	0.5272	0.3799	0.1328	-0.375
Mof_O 	O 	0.7025	0.4443	0.17582	-0.368
Mof_O 	O 	0.6123	0.1042	0.16431	-0.422
Mof_O 	O 	0.7586	0.9701	0.19959	-0.288
Mof_O 	O 	0.0893	0.7901	0.24943	-0.312
Mof_O 	O 	0.281	0.7429	0.23523	-0.323
Mof_C 	C 	0.7049	0.9078	0.94566	0.313
Mof_C 	C 	0.8391	0.8656	0.95916	-0.083
Mof_C 	C 	0.9208	0.8352	0.92454	0.029
Mof_H 	H 	0.8911	0.8364	0.8929	0.053
Mof_C 	C 	0.046	0.8033	0.93748	-0.101
Mof_C 	C 	0.0882	0.7947	0.98539	0.003
Mof_H 	H 	0.1719	0.7707	0.9939	0.042
Mof_C 	C 	0.0084	0.821	0.02043	-0.03
Mof_C 	C 	0.8836	0.8604	0.00614	-0.005
Mof_H 	H 	0.8294	0.8836	0.0289	0.038
Mof_C 	C 	0.1381	0.7829	0.90053	0.375
Mof_C 	C 	0.0513	0.8121	0.07177	0.084
Mof_C 	C 	0.1788	0.7918	0.08691	-0.143
Mof_H 	H 	0.2368	0.7831	0.0644	0.092
Mof_C 	C 	0.2227	0.7841	0.13455	0.089
Mof_C 	C 	0.1358	0.7938	0.16861	-0.109
Mof_C 	C 	0.0086	0.817	0.15379	0.045
Mof_H 	H 	0.9505	0.8265	0.1763	0.05
Mof_C 	C 	0.9674	0.8259	0.10699	-0.119
Mof_H 	H 	0.8821	0.8415	0.0984	0.074
Mof_C 	C 	0.3621	0.7657	0.14602	-0.01
Mof_C 	C 	0.4154	0.6341	0.14476	-0.006
Mof_H 	H 	0.3639	0.5583	0.1366	0.057
Mof_C 	C 	0.5452	0.6135	0.1556	-0.091
Mof_C 	C 	0.6221	0.7277	0.16697	0.029
Mof_H 	H 	0.7081	0.7152	0.1749	0.048
Mof_C 	C 	0.5704	0.8603	0.16644	-0.09
Mof_C 	C 	0.4406	0.8785	0.15649	-0.009
Mof_H 	H 	0.4063	0.9672	0.1569	0.056
Mof_C 	C 	0.5962	0.4686	0.15463	0.37
Mof_C 	C 	0.6531	0.9843	0.17777	0.326
Mof_C 	C 	0.1713	0.7753	0.22048	0.328
Mof_Mn	Mn	0.55212	0.30532	0.59425	0.838
Mof_Mn	Mn	0.7677	0.23959	0.19087	0.946
Mof_O 	O 	0.35143	0.3513	0.59054	-0.343
Mof_O 	O 	0.3438	0.4949	0.52878	-0.287
Mof_O 	O 	0.9044	0.2847	0.64198	-0.371
Mof_O 	O 	0.7484	0.2657	0.58571	-0.404
Mof_O 	O 	0.4728	0.8799	0.3672	-0.375
Mof_O 	O 	0.2975	0.9443	0.32418	-0.368
Mof_O 	O 	0.3877	0.6042	0.33569	-0.422
Mof_O 	O 	0.2414	0.4701	0.30041	-0.288
Mof_O 	O 	0.9107	0.2901	0.25057	-0.312
Mof_O 	O 	0.719	0.2429	0.26477	-0.323
Mof_C 	C 	0.2951	0.4078	0.55434	0.313
Mof_C 	C 	0.1609	0.3656	0.54084	-0.083
Mof_C 	C 	0.0792	0.3352	0.57546	0.029
Mof_H 	H 	0.1089	0.3364	0.6071	0.053
Mof_C 	C 	0.954	0.3033	0.56252	-0.101
Mof_C 	C 	0.9118	0.2947	0.51461	0.002
Mof_H 	H 	0.8281	0.2707	0.5061	0.042
Mof_C 	C 	0.9916	0.321	0.47957	-0.03
Mof_C 	C 	0.1164	0.3604	0.49386	-0.005
Mof_H 	H 	0.1706	0.3836	0.4711	0.038
Mof_C 	C 	0.8619	0.2829	0.59947	0.375
Mof_C 	C 	0.9487	0.3121	0.42823	0.084
Mof_C 	C 	0.8212	0.2918	0.41309	-0.143
Mof_H 	H 	0.7632	0.2831	0.4356	0.092
Mof_C 	C 	0.7773	0.2841	0.36545	0.089
Mof_C 	C 	0.8642	0.2938	0.33139	-0.109
Mof_C 	C 	0.9914	0.317	0.34621	0.046
Mof_H 	H 	0.0495	0.3265	0.3237	0.05
Mof_C 	C 	0.0326	0.3259	0.39301	-0.12
Mof_H 	H 	0.1179	0.3415	0.4016	0.074
Mof_C 	C 	0.6379	0.2657	0.35398	-0.009
Mof_C 	C 	0.5846	0.1341	0.35524	-0.006
Mof_H 	H 	0.6361	0.0583	0.3634	0.057
Mof_C 	C 	0.4548	0.1135	0.3444	-0.091
Mof_C 	C 	0.3779	0.2277	0.33303	0.029
Mof_H 	H 	0.2919	0.2152	0.3251	0.048
Mof_C 	C 	0.4296	0.3603	0.33356	-0.09
Mof_C 	C 	0.5594	0.3785	0.34351	-0.009
Mof_H 	H 	0.5937	0.4672	0.3431	0.057
Mof_C 	C 	0.4038	0.9686	0.34537	0.37
Mof_C 	C 	0.3469	0.4843	0.32223	0.326
Mof_C 	C 	0.8287	0.2753	0.27952	0.328
_end
