data_functionalizedCrystal
_audit_creation_method	'EQeq! by Chris Wilmer'
_symmetry_space_group_name_H-M	'P1'
_symmetry_Int_Tables_number	1
_symmetry_cell_setting	triclinic
loop_
_symmetry_equiv_pos_as_xyz
  x,y,z
_cell_length_a	27.574
_cell_length_b	9.776
_cell_length_c	15.557
_cell_angle_alpha	90
_cell_angle_beta	119.48
_cell_angle_gamma	90
loop_
_atom_site_label
_atom_site_type_symbol
_atom_site_fract_x
_atom_site_fract_y
_atom_site_fract_z
_atom_site_charge
Mof_Co	Co	0.29002	0.63531	0.03208	1.159
Mof_N 	N 	0.48764	0.9756	0.4584	-0.07
Mof_O 	O 	0.33284	0.7328	0.1642	-0.421
Mof_C 	C 	0.391	0.3222	0.0247	0.074
Mof_H 	H 	0.4097	0.2782	0.9966	0.06
Mof_O 	O 	0.26544	0.8901	0.1147	-0.46
Mof_N 	N 	0.3901	0.2855	0.1092	0.002
Mof_C 	C 	0.31341	0.9793	0.3129	-0.006
Mof_H 	H 	0.2747	0.979	0.2793	0.039
Mof_C 	C 	0.42857	0.9802	0.4128	0.11
Mof_N 	N 	0.33872	0.4689	0.0524	-0.208
Mof_C 	C 	0.4001	0.055	0.4503	-0.048
Mof_H 	H 	0.4196	0.1064	0.5076	0.093
Mof_C 	C 	0.39974	0.9064	0.3255	-0.06
Mof_H 	H 	0.4191	0.8564	0.3013	0.084
Mof_C 	C 	0.3589	0.4354	0.9909	-0.024
Mof_H 	H 	0.3517	0.4832	0.9342	0.043
Mof_C 	C 	0.34204	0.9076	0.275	-0.062
Mof_C 	C 	0.31108	0.8374	0.1767	0.362
Mof_C 	C 	0.3568	0.3737	0.1201	0.004
Mof_C 	C 	0.34237	0.0517	0.401	-0.066
Mof_C 	C 	0.31104	0.1284	0.4418	0.378
Mof_O 	O 	0.26653	0.0767	0.4282	-0.465
Mof_O 	O 	0.33224	0.2376	0.4867	-0.424
Mof_C 	C 	0.3394	0.3598	0.1948	0.215
Mof_H 	H 	0.3716	0.3271	0.2545	-0.003
Mof_H 	H 	0.3316	0.4513	0.2088	-0.036
Mof_C 	C 	0.2929	0.2752	0.179	-0.781
Mof_H 	H 	0.2959	0.1878	0.1538	0.271
Mof_H 	H 	0.2588	0.3187	0.1322	0.267
Mof_H 	H 	0.2932	0.2628	0.2404	0.274
Mof_C 	C 	0.4039	0.1444	0.161	1.946
Mof_C 	C 	0.4665	0.1258	0.2027	1.609
Mof_C 	C 	0.4395	0.1998	0.1749	-2.15
Mof_C 	C 	0.501	0.2356	0.2118	0.001
Mof_H 	H 	0.3834	0.0724	0.1141	-0.546
Mof_H 	H 	0.4841	0.0485	0.2579	-0.428
Mof_H 	H 	0.4334	0.1122	0.1419	-0.197
Mof_H 	H 	0.3946	0.1427	0.2134	-0.591
Mof_H 	H 	0.5082	0.3247	0.205	0.155
Mof_H 	H 	0.4367	0.1832	0.2338	0.198
Mof_H 	H 	0.4773	0.0975	0.1566	-0.277
Mof_H 	H 	0.5208	0.1727	0.1901	-0.022
Mof_Co	Co	0.79002	0.13531	0.03208	1.16
Mof_N 	N 	0.98764	0.4756	0.4584	-0.069
Mof_O 	O 	0.83284	0.2328	0.1642	-0.421
Mof_C 	C 	0.891	0.8222	0.0247	0.078
Mof_H 	H 	0.9097	0.7782	0.9966	0.058
Mof_O 	O 	0.76544	0.3901	0.1147	-0.46
Mof_N 	N 	0.8901	0.7855	0.1092	0.002
Mof_C 	C 	0.81341	0.4793	0.3129	-0.006
Mof_H 	H 	0.7747	0.479	0.2793	0.039
Mof_C 	C 	0.92857	0.4802	0.4128	0.11
Mof_N 	N 	0.83872	0.9689	0.0524	-0.207
Mof_C 	C 	0.9001	0.555	0.4503	-0.048
Mof_H 	H 	0.9196	0.6064	0.5076	0.093
Mof_C 	C 	0.89974	0.4064	0.3255	-0.06
Mof_H 	H 	0.9191	0.3564	0.3013	0.084
Mof_C 	C 	0.8589	0.9354	0.9909	-0.028
Mof_H 	H 	0.8517	0.9832	0.9342	0.044
Mof_C 	C 	0.84204	0.4076	0.275	-0.062
Mof_C 	C 	0.81108	0.3374	0.1767	0.362
Mof_C 	C 	0.8568	0.8737	0.1201	0.004
Mof_C 	C 	0.84237	0.5517	0.401	-0.066
Mof_C 	C 	0.81104	0.6284	0.4418	0.378
Mof_O 	O 	0.76653	0.5767	0.4282	-0.465
Mof_O 	O 	0.83224	0.7376	0.4867	-0.424
Mof_C 	C 	0.8394	0.8598	0.1948	0.216
Mof_H 	H 	0.8716	0.8271	0.2545	-0.003
Mof_H 	H 	0.8316	0.9513	0.2088	-0.036
Mof_C 	C 	0.7929	0.7752	0.179	-0.783
Mof_H 	H 	0.7959	0.6878	0.1538	0.272
Mof_H 	H 	0.7588	0.8187	0.1322	0.268
Mof_H 	H 	0.7932	0.7628	0.2404	0.275
Mof_C 	C 	0.9039	0.6444	0.161	1.947
Mof_C 	C 	0.9665	0.6258	0.2027	1.611
Mof_C 	C 	0.9395	0.6998	0.1749	-2.151
Mof_C 	C 	0.001	0.7356	0.2118	-0.003
Mof_H 	H 	0.8834	0.5724	0.1141	-0.546
Mof_H 	H 	0.9841	0.5485	0.2579	-0.428
Mof_H 	H 	0.9334	0.6122	0.1419	-0.198
Mof_H 	H 	0.8946	0.6427	0.2134	-0.591
Mof_H 	H 	0.0082	0.8247	0.205	0.156
Mof_H 	H 	0.9367	0.6832	0.2338	0.198
Mof_H 	H 	0.9773	0.5975	0.1566	-0.278
Mof_H 	H 	0.0208	0.6727	0.1901	-0.021
Mof_Co	Co	0.70998	0.63531	0.46792	1.16
Mof_N 	N 	0.51236	0.9756	0.0416	-0.069
Mof_O 	O 	0.66716	0.7328	0.3358	-0.421
Mof_C 	C 	0.609	0.3222	0.4753	0.075
Mof_H 	H 	0.5903	0.2782	0.5034	0.059
Mof_O 	O 	0.73456	0.8901	0.3853	-0.46
Mof_N 	N 	0.6099	0.2855	0.3908	0.002
Mof_C 	C 	0.68659	0.9793	0.1871	-0.006
Mof_H 	H 	0.7253	0.979	0.2207	0.04
Mof_C 	C 	0.57143	0.9802	0.0872	0.112
Mof_N 	N 	0.66128	0.4689	0.4476	-0.208
Mof_C 	C 	0.5999	0.055	0.0497	-0.053
Mof_H 	H 	0.5804	0.1064	0.9924	0.095
Mof_C 	C 	0.60026	0.9064	0.1745	-0.062
Mof_H 	H 	0.5809	0.8564	0.1987	0.084
Mof_C 	C 	0.6411	0.4354	0.5091	-0.026
Mof_H 	H 	0.6483	0.4832	0.5658	0.043
Mof_C 	C 	0.65796	0.9076	0.225	-0.061
Mof_C 	C 	0.68892	0.8374	0.3233	0.362
Mof_C 	C 	0.6432	0.3737	0.3799	0.004
Mof_C 	C 	0.65763	0.0517	0.099	-0.065
Mof_C 	C 	0.68896	0.1284	0.0582	0.377
Mof_O 	O 	0.73347	0.0767	0.0718	-0.466
Mof_O 	O 	0.66776	0.2376	0.0133	-0.424
Mof_C 	C 	0.6606	0.3598	0.3052	0.215
Mof_H 	H 	0.6284	0.3271	0.2455	-0.003
Mof_H 	H 	0.6684	0.4513	0.2912	-0.036
Mof_C 	C 	0.7071	0.2752	0.321	-0.782
Mof_H 	H 	0.7041	0.1878	0.3462	0.271
Mof_H 	H 	0.7412	0.3187	0.3678	0.267
Mof_H 	H 	0.7068	0.2628	0.2596	0.274
Mof_C 	C 	0.5961	0.1444	0.339	1.947
Mof_C 	C 	0.5335	0.1258	0.2973	1.609
Mof_C 	C 	0.5605	0.1998	0.3251	-2.15
Mof_C 	C 	0.499	0.2356	0.2882	0.002
Mof_H 	H 	0.6166	0.0724	0.3859	-0.546
Mof_H 	H 	0.5159	0.0485	0.2421	-0.428
Mof_H 	H 	0.5666	0.1122	0.3581	-0.197
Mof_H 	H 	0.6054	0.1427	0.2866	-0.591
Mof_H 	H 	0.4918	0.3247	0.295	0.154
Mof_H 	H 	0.5633	0.1832	0.2662	0.198
Mof_H 	H 	0.5227	0.0975	0.3434	-0.277
Mof_H 	H 	0.4792	0.1727	0.3099	-0.022
Mof_Co	Co	0.20998	0.13531	0.46792	1.16
Mof_N 	N 	0.01236	0.4756	0.0416	-0.069
Mof_O 	O 	0.16716	0.2328	0.3358	-0.421
Mof_C 	C 	0.109	0.8222	0.4753	0.075
Mof_H 	H 	0.0903	0.7782	0.5034	0.059
Mof_O 	O 	0.23456	0.3901	0.3853	-0.46
Mof_N 	N 	0.1099	0.7855	0.3908	0.002
Mof_C 	C 	0.18659	0.4793	0.1871	-0.006
Mof_H 	H 	0.2253	0.479	0.2207	0.039
Mof_C 	C 	0.07143	0.4802	0.0872	0.109
Mof_N 	N 	0.16128	0.9689	0.4476	-0.208
Mof_C 	C 	0.0999	0.555	0.0497	-0.047
Mof_H 	H 	0.0804	0.6064	0.9924	0.092
Mof_C 	C 	0.10026	0.4064	0.1745	-0.06
Mof_H 	H 	0.0809	0.3564	0.1987	0.084
Mof_C 	C 	0.1411	0.9354	0.5091	-0.026
Mof_H 	H 	0.1483	0.9832	0.5658	0.043
Mof_C 	C 	0.15796	0.4076	0.225	-0.062
Mof_C 	C 	0.18892	0.3374	0.3233	0.362
Mof_C 	C 	0.1432	0.8737	0.3799	0.004
Mof_C 	C 	0.15763	0.5517	0.099	-0.066
Mof_C 	C 	0.18896	0.6284	0.0582	0.378
Mof_O 	O 	0.23347	0.5767	0.0718	-0.465
Mof_O 	O 	0.16776	0.7376	0.0133	-0.423
Mof_C 	C 	0.1606	0.8598	0.3052	0.215
Mof_H 	H 	0.1284	0.8271	0.2455	-0.003
Mof_H 	H 	0.1684	0.9513	0.2912	-0.036
Mof_C 	C 	0.2071	0.7752	0.321	-0.782
Mof_H 	H 	0.2041	0.6878	0.3462	0.271
Mof_H 	H 	0.2412	0.8187	0.3678	0.267
Mof_H 	H 	0.2068	0.7628	0.2596	0.275
Mof_C 	C 	0.0961	0.6444	0.339	1.949
Mof_C 	C 	0.0335	0.6258	0.2973	1.609
Mof_C 	C 	0.0605	0.6998	0.3251	-2.153
Mof_C 	C 	0.999	0.7356	0.2882	0.006
Mof_H 	H 	0.1166	0.5724	0.3859	-0.546
Mof_H 	H 	0.0159	0.5485	0.2421	-0.427
Mof_H 	H 	0.0666	0.6122	0.3581	-0.197
Mof_H 	H 	0.1054	0.6427	0.2866	-0.591
Mof_H 	H 	0.9918	0.8247	0.295	0.153
Mof_H 	H 	0.0633	0.6832	0.2662	0.199
Mof_H 	H 	0.0227	0.5975	0.3434	-0.277
Mof_H 	H 	0.9792	0.6727	0.3099	-0.024
Mof_Co	Co	0.70998	0.36469	0.96792	1.16
Mof_N 	N 	0.51236	0.0244	0.5416	-0.069
Mof_O 	O 	0.66716	0.2672	0.8358	-0.421
Mof_C 	C 	0.609	0.6778	0.9753	0.074
Mof_H 	H 	0.5903	0.7218	0.0034	0.06
Mof_O 	O 	0.73456	0.1099	0.8853	-0.46
Mof_N 	N 	0.6099	0.7145	0.8908	0.002
Mof_C 	C 	0.68659	0.0207	0.6871	-0.006
Mof_H 	H 	0.7253	0.021	0.7207	0.039
Mof_C 	C 	0.57143	0.0198	0.5872	0.11
Mof_N 	N 	0.66128	0.5311	0.9476	-0.208
Mof_C 	C 	0.5999	0.945	0.5497	-0.048
Mof_H 	H 	0.5804	0.8936	0.4924	0.093
Mof_C 	C 	0.60026	0.0936	0.6745	-0.06
Mof_H 	H 	0.5809	0.1436	0.6987	0.084
Mof_C 	C 	0.6411	0.5646	0.0091	-0.024
Mof_H 	H 	0.6483	0.5168	0.0658	0.043
Mof_C 	C 	0.65796	0.0924	0.725	-0.062
Mof_C 	C 	0.68892	0.1626	0.8233	0.362
Mof_C 	C 	0.6432	0.6263	0.8799	0.004
Mof_C 	C 	0.65763	0.9483	0.599	-0.066
Mof_C 	C 	0.68896	0.8716	0.5582	0.378
Mof_O 	O 	0.73347	0.9233	0.5718	-0.465
Mof_O 	O 	0.66776	0.7624	0.5133	-0.424
Mof_C 	C 	0.6606	0.6402	0.8052	0.215
Mof_H 	H 	0.6284	0.6729	0.7455	-0.003
Mof_H 	H 	0.6684	0.5487	0.7912	-0.036
Mof_C 	C 	0.7071	0.7248	0.821	-0.781
Mof_H 	H 	0.7041	0.8122	0.8462	0.271
Mof_H 	H 	0.7412	0.6813	0.8678	0.267
Mof_H 	H 	0.7068	0.7372	0.7596	0.274
Mof_C 	C 	0.5961	0.8556	0.839	1.946
Mof_C 	C 	0.5335	0.8742	0.7973	1.609
Mof_C 	C 	0.5605	0.8002	0.8251	-2.15
Mof_C 	C 	0.499	0.7644	0.7882	0.001
Mof_H 	H 	0.6166	0.9276	0.8859	-0.546
Mof_H 	H 	0.5159	0.9515	0.7421	-0.428
Mof_H 	H 	0.5666	0.8878	0.8581	-0.197
Mof_H 	H 	0.6054	0.8573	0.7866	-0.591
Mof_H 	H 	0.4918	0.6753	0.795	0.155
Mof_H 	H 	0.5633	0.8168	0.7662	0.198
Mof_H 	H 	0.5227	0.9025	0.8434	-0.277
Mof_H 	H 	0.4792	0.8273	0.8099	-0.022
Mof_Co	Co	0.20998	0.86469	0.96792	1.16
Mof_N 	N 	0.01236	0.5244	0.5416	-0.069
Mof_O 	O 	0.16716	0.7672	0.8358	-0.421
Mof_C 	C 	0.109	0.1778	0.9753	0.078
Mof_H 	H 	0.0903	0.2218	0.0034	0.058
Mof_O 	O 	0.23456	0.6099	0.8853	-0.46
Mof_N 	N 	0.1099	0.2145	0.8908	0.002
Mof_C 	C 	0.18659	0.5207	0.6871	-0.006
Mof_H 	H 	0.2253	0.521	0.7207	0.039
Mof_C 	C 	0.07143	0.5198	0.5872	0.11
Mof_N 	N 	0.16128	0.0311	0.9476	-0.207
Mof_C 	C 	0.0999	0.445	0.5497	-0.048
Mof_H 	H 	0.0804	0.3936	0.4924	0.093
Mof_C 	C 	0.10026	0.5936	0.6745	-0.06
Mof_H 	H 	0.0809	0.6436	0.6987	0.084
Mof_C 	C 	0.1411	0.0646	0.0091	-0.028
Mof_H 	H 	0.1483	0.0168	0.0658	0.044
Mof_C 	C 	0.15796	0.5924	0.725	-0.062
Mof_C 	C 	0.18892	0.6626	0.8233	0.362
Mof_C 	C 	0.1432	0.1263	0.8799	0.004
Mof_C 	C 	0.15763	0.4483	0.599	-0.066
Mof_C 	C 	0.18896	0.3716	0.5582	0.378
Mof_O 	O 	0.23347	0.4233	0.5718	-0.465
Mof_O 	O 	0.16776	0.2624	0.5133	-0.424
Mof_C 	C 	0.1606	0.1402	0.8052	0.216
Mof_H 	H 	0.1284	0.1729	0.7455	-0.003
Mof_H 	H 	0.1684	0.0487	0.7912	-0.036
Mof_C 	C 	0.2071	0.2248	0.821	-0.783
Mof_H 	H 	0.2041	0.3122	0.8462	0.272
Mof_H 	H 	0.2412	0.1813	0.8678	0.268
Mof_H 	H 	0.2068	0.2372	0.7596	0.275
Mof_C 	C 	0.0961	0.3556	0.839	1.947
Mof_C 	C 	0.0335	0.3742	0.7973	1.611
Mof_C 	C 	0.0605	0.3002	0.8251	-2.151
Mof_C 	C 	0.999	0.2644	0.7882	-0.003
Mof_H 	H 	0.1166	0.4276	0.8859	-0.546
Mof_H 	H 	0.0159	0.4515	0.7421	-0.428
Mof_H 	H 	0.0666	0.3878	0.8581	-0.198
Mof_H 	H 	0.1054	0.3573	0.7866	-0.591
Mof_H 	H 	0.9918	0.1753	0.795	0.156
Mof_H 	H 	0.0633	0.3168	0.7662	0.198
Mof_H 	H 	0.0227	0.4025	0.8434	-0.278
Mof_H 	H 	0.9792	0.3273	0.8099	-0.021
Mof_Co	Co	0.29002	0.36469	0.53208	1.16
Mof_N 	N 	0.48764	0.0244	0.9584	-0.069
Mof_O 	O 	0.33284	0.2672	0.6642	-0.421
Mof_C 	C 	0.391	0.6778	0.5247	0.075
Mof_H 	H 	0.4097	0.7218	0.4966	0.059
Mof_O 	O 	0.26544	0.1099	0.6147	-0.46
Mof_N 	N 	0.3901	0.7145	0.6092	0.002
Mof_C 	C 	0.31341	0.0207	0.8129	-0.006
Mof_H 	H 	0.2747	0.021	0.7793	0.04
Mof_C 	C 	0.42857	0.0198	0.9128	0.112
Mof_N 	N 	0.33872	0.5311	0.5524	-0.208
Mof_C 	C 	0.4001	0.945	0.9503	-0.053
Mof_H 	H 	0.4196	0.8936	0.0076	0.095
Mof_C 	C 	0.39974	0.0936	0.8255	-0.062
Mof_H 	H 	0.4191	0.1436	0.8013	0.084
Mof_C 	C 	0.3589	0.5646	0.4909	-0.026
Mof_H 	H 	0.3517	0.5168	0.4342	0.043
Mof_C 	C 	0.34204	0.0924	0.775	-0.061
Mof_C 	C 	0.31108	0.1626	0.6767	0.362
Mof_C 	C 	0.3568	0.6263	0.6201	0.004
Mof_C 	C 	0.34237	0.9483	0.901	-0.065
Mof_C 	C 	0.31104	0.8716	0.9418	0.377
Mof_O 	O 	0.26653	0.9233	0.9282	-0.466
Mof_O 	O 	0.33224	0.7624	0.9867	-0.424
Mof_C 	C 	0.3394	0.6402	0.6948	0.215
Mof_H 	H 	0.3716	0.6729	0.7545	-0.003
Mof_H 	H 	0.3316	0.5487	0.7088	-0.036
Mof_C 	C 	0.2929	0.7248	0.679	-0.782
Mof_H 	H 	0.2959	0.8122	0.6538	0.271
Mof_H 	H 	0.2588	0.6813	0.6322	0.267
Mof_H 	H 	0.2932	0.7372	0.7404	0.274
Mof_C 	C 	0.4039	0.8556	0.661	1.947
Mof_C 	C 	0.4665	0.8742	0.7027	1.609
Mof_C 	C 	0.4395	0.8002	0.6749	-2.15
Mof_C 	C 	0.501	0.7644	0.7118	0.002
Mof_H 	H 	0.3834	0.9276	0.6141	-0.546
Mof_H 	H 	0.4841	0.9515	0.7579	-0.428
Mof_H 	H 	0.4334	0.8878	0.6419	-0.197
Mof_H 	H 	0.3946	0.8573	0.7134	-0.591
Mof_H 	H 	0.5082	0.6753	0.705	0.154
Mof_H 	H 	0.4367	0.8168	0.7338	0.198
Mof_H 	H 	0.4773	0.9025	0.6566	-0.277
Mof_H 	H 	0.5208	0.8273	0.6901	-0.022
Mof_Co	Co	0.79002	0.86469	0.53208	1.16
Mof_N 	N 	0.98764	0.5244	0.9584	-0.069
Mof_O 	O 	0.83284	0.7672	0.6642	-0.421
Mof_C 	C 	0.891	0.1778	0.5247	0.075
Mof_H 	H 	0.9097	0.2218	0.4966	0.059
Mof_O 	O 	0.76544	0.6099	0.6147	-0.46
Mof_N 	N 	0.8901	0.2145	0.6092	0.002
Mof_C 	C 	0.81341	0.5207	0.8129	-0.006
Mof_H 	H 	0.7747	0.521	0.7793	0.039
Mof_C 	C 	0.92857	0.5198	0.9128	0.109
Mof_N 	N 	0.83872	0.0311	0.5524	-0.208
Mof_C 	C 	0.9001	0.445	0.9503	-0.047
Mof_H 	H 	0.9196	0.3936	0.0076	0.092
Mof_C 	C 	0.89974	0.5936	0.8255	-0.06
Mof_H 	H 	0.9191	0.6436	0.8013	0.084
Mof_C 	C 	0.8589	0.0646	0.4909	-0.026
Mof_H 	H 	0.8517	0.0168	0.4342	0.043
Mof_C 	C 	0.84204	0.5924	0.775	-0.062
Mof_C 	C 	0.81108	0.6626	0.6767	0.362
Mof_C 	C 	0.8568	0.1263	0.6201	0.004
Mof_C 	C 	0.84237	0.4483	0.901	-0.066
Mof_C 	C 	0.81104	0.3716	0.9418	0.378
Mof_O 	O 	0.76653	0.4233	0.9282	-0.465
Mof_O 	O 	0.83224	0.2624	0.9867	-0.423
Mof_C 	C 	0.8394	0.1402	0.6948	0.215
Mof_H 	H 	0.8716	0.1729	0.7545	-0.003
Mof_H 	H 	0.8316	0.0487	0.7088	-0.036
Mof_C 	C 	0.7929	0.2248	0.679	-0.782
Mof_H 	H 	0.7959	0.3122	0.6538	0.271
Mof_H 	H 	0.7588	0.1813	0.6322	0.267
Mof_H 	H 	0.7932	0.2372	0.7404	0.275
Mof_C 	C 	0.9039	0.3556	0.661	1.949
Mof_C 	C 	0.9665	0.3742	0.7027	1.609
Mof_C 	C 	0.9395	0.3002	0.6749	-2.153
Mof_C 	C 	0.001	0.2644	0.7118	0.006
Mof_H 	H 	0.8834	0.4276	0.6141	-0.546
Mof_H 	H 	0.9841	0.4515	0.7579	-0.427
Mof_H 	H 	0.9334	0.3878	0.6419	-0.197
Mof_H 	H 	0.8946	0.3573	0.7134	-0.591
Mof_H 	H 	0.0082	0.1753	0.705	0.153
Mof_H 	H 	0.9367	0.3168	0.7338	0.199
Mof_H 	H 	0.9773	0.4025	0.6566	-0.277
Mof_H 	H 	0.0208	0.3273	0.6901	-0.024
_end
