data_functionalizedCrystal
_audit_creation_method	'EQeq! by Chris Wilmer'
_symmetry_space_group_name_H-M	'P1'
_symmetry_Int_Tables_number	1
_symmetry_cell_setting	triclinic
loop_
_symmetry_equiv_pos_as_xyz
  x,y,z
_cell_length_a	11.6755
_cell_length_b	12.2521
_cell_length_c	12.4948
_cell_angle_alpha	90
_cell_angle_beta	117.046
_cell_angle_gamma	90
loop_
_atom_site_label
_atom_site_type_symbol
_atom_site_fract_x
_atom_site_fract_y
_atom_site_fract_z
_atom_site_charge
Mof_Cu	Cu	0.1788	0.96438	0.46738	0.919
Mof_Cu	Cu	0.3212	0.46438	0.03262	0.921
Mof_H 	H 	0.1119	0.7574	0.1476	0.073
Mof_H 	H 	0.1321	0.6193	0.0343	0.028
Mof_H 	H 	0.5007	0.5998	0.2426	0.019
Mof_H 	H 	0.492	0.7434	0.3552	0.074
Mof_H 	H 	0.3881	0.2574	0.3524	0.075
Mof_H 	H 	0.3679	0.1193	0.4657	0.028
Mof_H 	H 	0.9993	0.0998	0.2574	0.014
Mof_H 	H 	0.008	0.2434	0.1448	0.076
Mof_H 	H 	0.0272	0.2046	0.7435	0.082
Mof_H 	H 	0.0997	0.3416	0.8832	0.013
Mof_H 	H 	0.3839	0.1722	0.7848	0.074
Mof_H 	H 	0.4475	0.3077	0.9281	0.009
Mof_H 	H 	0.4728	0.7046	0.7565	0.08
Mof_H 	H 	0.4003	0.8416	0.6168	0.012
Mof_H 	H 	0.1161	0.6722	0.7152	0.073
Mof_H 	H 	0.0525	0.8077	0.5719	0.007
Mof_C 	C 	0.2933	0.8509	0.3515	0.297
Mof_C 	C 	0.1921	0.7267	0.1683	-0.074
Mof_C 	C 	0.205	0.6433	0.1014	0.052
Mof_C 	C 	0.3011	0.7648	0.2679	-0.012
Mof_C 	C 	0.4217	0.6325	0.2228	0.056
Mof_C 	C 	0.4168	0.7177	0.292	-0.081
Mof_C 	C 	0.2067	0.3509	0.1485	0.295
Mof_C 	C 	0.3079	0.2267	0.3317	-0.076
Mof_C 	C 	0.295	0.1433	0.3986	0.054
Mof_C 	C 	0.1989	0.2648	0.2321	-0.009
Mof_C 	C 	0.0783	0.1325	0.2772	0.064
Mof_C 	C 	0.0832	0.2177	0.208	-0.086
Mof_C 	C 	0.1485	0.0858	0.6498	0.339
Mof_C 	C 	0.1979	0.1731	0.7461	-0.023
Mof_C 	C 	0.1134	0.2247	0.7786	-0.083
Mof_C 	C 	0.1583	0.3064	0.8638	0.063
Mof_C 	C 	0.3235	0.2053	0.8035	-0.076
Mof_C 	C 	0.3614	0.2873	0.8898	0.065
Mof_C 	C 	0.3515	0.5858	0.8502	0.339
Mof_C 	C 	0.3021	0.6731	0.7539	-0.024
Mof_C 	C 	0.3866	0.7247	0.7214	-0.083
Mof_C 	C 	0.3417	0.8064	0.6362	0.061
Mof_C 	C 	0.1765	0.7053	0.6965	-0.076
Mof_C 	C 	0.1386	0.7873	0.6102	0.064
Mof_N 	N 	0.3175	0.5949	0.1282	-0.201
Mof_N 	N 	0.1825	0.0949	0.3718	-0.201
Mof_N 	N 	0.2796	0.3373	0.9193	-0.208
Mof_N 	N 	0.2204	0.8373	0.5807	-0.209
Mof_O 	O 	0.18134	0.86713	0.34204	-0.371
Mof_O 	O 	0.3925	0.8952	0.4245	-0.283
Mof_O 	O 	0.31866	0.36713	0.15796	-0.37
Mof_O 	O 	0.1075	0.3952	0.0755	-0.283
Mof_O 	O 	0.0435	0.0436	0.6242	-0.359
Mof_O 	O 	0.2223	0.06407	0.6033	-0.387
Mof_O 	O 	0.4565	0.5436	0.8758	-0.363
Mof_O 	O 	0.2777	0.56407	0.8967	-0.388
Mof_Cu	Cu	0.8212	0.03562	0.53262	0.919
Mof_Cu	Cu	0.6788	0.53562	0.96738	0.921
Mof_H 	H 	0.9728	0.7954	0.2565	0.082
Mof_H 	H 	0.9003	0.6584	0.1168	0.013
Mof_H 	H 	0.6161	0.8278	0.2152	0.074
Mof_H 	H 	0.5525	0.6923	0.0719	0.009
Mof_H 	H 	0.5272	0.2954	0.2435	0.08
Mof_H 	H 	0.5997	0.1584	0.3832	0.012
Mof_H 	H 	0.8839	0.3278	0.2848	0.073
Mof_H 	H 	0.9475	0.1923	0.4281	0.007
Mof_H 	H 	0.8881	0.2426	0.8524	0.073
Mof_H 	H 	0.8679	0.3807	0.9657	0.028
Mof_H 	H 	0.4993	0.4002	0.7574	0.019
Mof_H 	H 	0.508	0.2566	0.6448	0.074
Mof_H 	H 	0.6119	0.7426	0.6476	0.075
Mof_H 	H 	0.6321	0.8807	0.5343	0.028
Mof_H 	H 	0.0007	0.9002	0.7426	0.014
Mof_H 	H 	0.992	0.7566	0.8552	0.076
Mof_C 	C 	0.8515	0.9142	0.3502	0.339
Mof_C 	C 	0.8021	0.8269	0.2539	-0.023
Mof_C 	C 	0.8866	0.7753	0.2214	-0.083
Mof_C 	C 	0.8417	0.6936	0.1362	0.063
Mof_C 	C 	0.6765	0.7947	0.1965	-0.076
Mof_C 	C 	0.6386	0.7127	0.1102	0.065
Mof_C 	C 	0.6485	0.4142	0.1498	0.339
Mof_C 	C 	0.6979	0.3269	0.2461	-0.024
Mof_C 	C 	0.6134	0.2753	0.2786	-0.083
Mof_C 	C 	0.6583	0.1936	0.3638	0.061
Mof_C 	C 	0.8235	0.2947	0.3035	-0.076
Mof_C 	C 	0.8614	0.2127	0.3898	0.064
Mof_C 	C 	0.7067	0.1491	0.6485	0.297
Mof_C 	C 	0.8079	0.2733	0.8317	-0.074
Mof_C 	C 	0.795	0.3567	0.8986	0.052
Mof_C 	C 	0.6989	0.2352	0.7321	-0.012
Mof_C 	C 	0.5783	0.3675	0.7772	0.056
Mof_C 	C 	0.5832	0.2823	0.708	-0.081
Mof_C 	C 	0.7933	0.6491	0.8515	0.295
Mof_C 	C 	0.6921	0.7733	0.6683	-0.076
Mof_C 	C 	0.705	0.8567	0.6014	0.054
Mof_C 	C 	0.8011	0.7352	0.7679	-0.009
Mof_C 	C 	0.9217	0.8675	0.7228	0.064
Mof_C 	C 	0.9168	0.7823	0.792	-0.086
Mof_N 	N 	0.7204	0.6627	0.0807	-0.208
Mof_N 	N 	0.7796	0.1627	0.4193	-0.209
Mof_N 	N 	0.6825	0.4051	0.8718	-0.201
Mof_N 	N 	0.8175	0.9051	0.6282	-0.201
Mof_O 	O 	0.9565	0.9564	0.3758	-0.359
Mof_O 	O 	0.7777	0.93593	0.3967	-0.387
Mof_O 	O 	0.5435	0.4564	0.1242	-0.363
Mof_O 	O 	0.7223	0.43593	0.1033	-0.388
Mof_O 	O 	0.81866	0.13287	0.65796	-0.371
Mof_O 	O 	0.6075	0.1048	0.5755	-0.283
Mof_O 	O 	0.68134	0.63287	0.84204	-0.37
Mof_O 	O 	0.8925	0.6048	0.9245	-0.283
_end
