data_functionalizedCrystal
_audit_creation_method	'EQeq! by Chris Wilmer'
_symmetry_space_group_name_H-M	'P1'
_symmetry_Int_Tables_number	1
_symmetry_cell_setting	triclinic
loop_
_symmetry_equiv_pos_as_xyz
  x,y,z
_cell_length_a	13.0323
_cell_length_b	13.0323
_cell_length_c	13.0323
_cell_angle_alpha	90
_cell_angle_beta	90
_cell_angle_gamma	90
loop_
_atom_site_label
_atom_site_type_symbol
_atom_site_fract_x
_atom_site_fract_y
_atom_site_fract_z
_atom_site_charge
Mof_N 	N 	0.4663	0.1441	0.9394	0.126
Mof_N 	N 	0.4663	0.6441	0.4394	-0.028
Mof_N 	N 	0.9663	0.1441	0.4394	-0.2
Mof_N 	N 	0.9663	0.6441	0.9394	-0.08
Mof_N 	N 	0.5337	0.8559	0.9394	0.123
Mof_N 	N 	0.5337	0.3559	0.4394	-0.043
Mof_N 	N 	0.0337	0.8559	0.4394	0.178
Mof_N 	N 	0.0337	0.3559	0.9394	0.32
Mof_N 	N 	0.5337	0.1441	0.0606	-0.171
Mof_N 	N 	0.5337	0.6441	0.5606	-0.042
Mof_N 	N 	0.0337	0.1441	0.5606	0.155
Mof_N 	N 	0.0337	0.6441	0.0606	0.023
Mof_N 	N 	0.4663	0.8559	0.0606	-0.202
Mof_N 	N 	0.4663	0.3559	0.5606	-0.02
Mof_N 	N 	0.9663	0.8559	0.5606	-0.256
Mof_N 	N 	0.9663	0.3559	0.0606	-0.385
Mof_N 	N 	0.9394	0.4663	0.1441	0.126
Mof_N 	N 	0.9394	0.9663	0.6441	-0.08
Mof_N 	N 	0.4394	0.4663	0.6441	-0.028
Mof_N 	N 	0.4394	0.9663	0.1441	-0.2
Mof_N 	N 	0.9394	0.5337	0.8559	0.123
Mof_N 	N 	0.9394	0.0337	0.3559	0.32
Mof_N 	N 	0.4394	0.5337	0.3559	-0.043
Mof_N 	N 	0.4394	0.0337	0.8559	0.178
Mof_N 	N 	0.0606	0.5337	0.1441	-0.171
Mof_N 	N 	0.0606	0.0337	0.6441	0.023
Mof_N 	N 	0.5606	0.5337	0.6441	-0.042
Mof_N 	N 	0.5606	0.0337	0.1441	0.155
Mof_N 	N 	0.0606	0.4663	0.8559	-0.202
Mof_N 	N 	0.0606	0.9663	0.3559	-0.385
Mof_N 	N 	0.5606	0.4663	0.3559	-0.02
Mof_N 	N 	0.5606	0.9663	0.8559	-0.256
Mof_N 	N 	0.1441	0.9394	0.4663	0.126
Mof_N 	N 	0.1441	0.4394	0.9663	-0.2
Mof_N 	N 	0.6441	0.9394	0.9663	-0.08
Mof_N 	N 	0.6441	0.4394	0.4663	-0.028
Mof_N 	N 	0.8559	0.9394	0.5337	0.123
Mof_N 	N 	0.8559	0.4394	0.0337	0.178
Mof_N 	N 	0.3559	0.9394	0.0337	0.32
Mof_N 	N 	0.3559	0.4394	0.5337	-0.043
Mof_N 	N 	0.1441	0.0606	0.5337	-0.171
Mof_N 	N 	0.1441	0.5606	0.0337	0.155
Mof_N 	N 	0.6441	0.0606	0.0337	0.023
Mof_N 	N 	0.6441	0.5606	0.5337	-0.042
Mof_N 	N 	0.8559	0.0606	0.4663	-0.202
Mof_N 	N 	0.8559	0.5606	0.9663	-0.256
Mof_N 	N 	0.3559	0.0606	0.9663	-0.385
Mof_N 	N 	0.3559	0.5606	0.4663	-0.02
Mof_N 	N 	0.1441	0.4663	0.0606	-0.159
Mof_N 	N 	0.1441	0.9663	0.5606	-0.198
Mof_N 	N 	0.6441	0.4663	0.5606	-0.021
Mof_N 	N 	0.6441	0.9663	0.0606	-0.411
Mof_N 	N 	0.8559	0.5337	0.0606	-0.228
Mof_N 	N 	0.8559	0.0337	0.5606	0.188
Mof_N 	N 	0.3559	0.5337	0.5606	-0.036
Mof_N 	N 	0.3559	0.0337	0.0606	0.026
Mof_N 	N 	0.1441	0.5337	0.9394	0.118
Mof_N 	N 	0.1441	0.0337	0.4394	0.152
Mof_N 	N 	0.6441	0.5337	0.4394	-0.05
Mof_N 	N 	0.6441	0.0337	0.9394	0.339
Mof_N 	N 	0.8559	0.4663	0.9394	0.145
Mof_N 	N 	0.8559	0.9663	0.4394	-0.264
Mof_N 	N 	0.3559	0.4663	0.4394	-0.027
Mof_N 	N 	0.3559	0.9663	0.9394	-0.076
Mof_N 	N 	0.4663	0.9394	0.8559	0.145
Mof_N 	N 	0.4663	0.4394	0.3559	-0.027
Mof_N 	N 	0.9663	0.9394	0.3559	-0.076
Mof_N 	N 	0.9663	0.4394	0.8559	-0.264
Mof_N 	N 	0.5337	0.9394	0.1441	0.118
Mof_N 	N 	0.5337	0.4394	0.6441	-0.05
Mof_N 	N 	0.0337	0.9394	0.6441	0.339
Mof_N 	N 	0.0337	0.4394	0.1441	0.152
Mof_N 	N 	0.5337	0.0606	0.8559	-0.228
Mof_N 	N 	0.5337	0.5606	0.3559	-0.036
Mof_N 	N 	0.0337	0.0606	0.3559	0.026
Mof_N 	N 	0.0337	0.5606	0.8559	0.188
Mof_N 	N 	0.4663	0.0606	0.1441	-0.159
Mof_N 	N 	0.4663	0.5606	0.6441	-0.021
Mof_N 	N 	0.9663	0.0606	0.6441	-0.411
Mof_N 	N 	0.9663	0.5606	0.1441	-0.198
Mof_N 	N 	0.9394	0.1441	0.5337	0.118
Mof_N 	N 	0.9394	0.6441	0.0337	0.339
Mof_N 	N 	0.4394	0.1441	0.0337	0.152
Mof_N 	N 	0.4394	0.6441	0.5337	-0.05
Mof_N 	N 	0.9394	0.8559	0.4663	0.145
Mof_N 	N 	0.9394	0.3559	0.9663	-0.076
Mof_N 	N 	0.4394	0.8559	0.9663	-0.264
Mof_N 	N 	0.4394	0.3559	0.4663	-0.027
Mof_N 	N 	0.0606	0.1441	0.4663	-0.159
Mof_N 	N 	0.0606	0.6441	0.9663	-0.411
Mof_N 	N 	0.5606	0.1441	0.9663	-0.198
Mof_N 	N 	0.5606	0.6441	0.4663	-0.021
Mof_N 	N 	0.0606	0.8559	0.5337	-0.228
Mof_N 	N 	0.0606	0.3559	0.0337	0.026
Mof_N 	N 	0.5606	0.8559	0.0337	0.188
Mof_N 	N 	0.5606	0.3559	0.5337	-0.036
Mof_N 	N 	0.5337	0.8559	0.0606	-0.228
Mof_N 	N 	0.5337	0.3559	0.5606	-0.036
Mof_N 	N 	0.0337	0.8559	0.5606	0.188
Mof_N 	N 	0.0337	0.3559	0.0606	0.026
Mof_N 	N 	0.4663	0.1441	0.0606	-0.159
Mof_N 	N 	0.4663	0.6441	0.5606	-0.021
Mof_N 	N 	0.9663	0.1441	0.5606	-0.198
Mof_N 	N 	0.9663	0.6441	0.0606	-0.411
Mof_N 	N 	0.4663	0.8559	0.9394	0.145
Mof_N 	N 	0.4663	0.3559	0.4394	-0.027
Mof_N 	N 	0.9663	0.8559	0.4394	-0.264
Mof_N 	N 	0.9663	0.3559	0.9394	-0.076
Mof_N 	N 	0.5337	0.1441	0.9394	0.118
Mof_N 	N 	0.5337	0.6441	0.4394	-0.05
Mof_N 	N 	0.0337	0.1441	0.4394	0.152
Mof_N 	N 	0.0337	0.6441	0.9394	0.339
Mof_N 	N 	0.0606	0.5337	0.8559	-0.228
Mof_N 	N 	0.0606	0.0337	0.3559	0.026
Mof_N 	N 	0.5606	0.5337	0.3559	-0.036
Mof_N 	N 	0.5606	0.0337	0.8559	0.188
Mof_N 	N 	0.0606	0.4663	0.1441	-0.159
Mof_N 	N 	0.0606	0.9663	0.6441	-0.411
Mof_N 	N 	0.5606	0.4663	0.6441	-0.021
Mof_N 	N 	0.5606	0.9663	0.1441	-0.198
Mof_N 	N 	0.9394	0.4663	0.8559	0.145
Mof_N 	N 	0.9394	0.9663	0.3559	-0.076
Mof_N 	N 	0.4394	0.4663	0.3559	-0.027
Mof_N 	N 	0.4394	0.9663	0.8559	-0.264
Mof_N 	N 	0.9394	0.5337	0.1441	0.118
Mof_N 	N 	0.9394	0.0337	0.6441	0.339
Mof_N 	N 	0.4394	0.5337	0.6441	-0.05
Mof_N 	N 	0.4394	0.0337	0.1441	0.152
Mof_N 	N 	0.8559	0.0606	0.5337	-0.228
Mof_N 	N 	0.8559	0.5606	0.0337	0.188
Mof_N 	N 	0.3559	0.0606	0.0337	0.026
Mof_N 	N 	0.3559	0.5606	0.5337	-0.036
Mof_N 	N 	0.1441	0.0606	0.4663	-0.159
Mof_N 	N 	0.1441	0.5606	0.9663	-0.198
Mof_N 	N 	0.6441	0.0606	0.9663	-0.411
Mof_N 	N 	0.6441	0.5606	0.4663	-0.021
Mof_N 	N 	0.8559	0.9394	0.4663	0.145
Mof_N 	N 	0.8559	0.4394	0.9663	-0.264
Mof_N 	N 	0.3559	0.9394	0.9663	-0.076
Mof_N 	N 	0.3559	0.4394	0.4663	-0.027
Mof_N 	N 	0.1441	0.9394	0.5337	0.118
Mof_N 	N 	0.1441	0.4394	0.0337	0.152
Mof_N 	N 	0.6441	0.9394	0.0337	0.339
Mof_N 	N 	0.6441	0.4394	0.5337	-0.05
Mof_N 	N 	0.8559	0.5337	0.9394	0.123
Mof_N 	N 	0.8559	0.0337	0.4394	0.178
Mof_N 	N 	0.3559	0.5337	0.4394	-0.043
Mof_N 	N 	0.3559	0.0337	0.9394	0.32
Mof_N 	N 	0.1441	0.4663	0.9394	0.126
Mof_N 	N 	0.1441	0.9663	0.4394	-0.2
Mof_N 	N 	0.6441	0.4663	0.4394	-0.028
Mof_N 	N 	0.6441	0.9663	0.9394	-0.08
Mof_N 	N 	0.8559	0.4663	0.0606	-0.202
Mof_N 	N 	0.8559	0.9663	0.5606	-0.256
Mof_N 	N 	0.3559	0.4663	0.5606	-0.02
Mof_N 	N 	0.3559	0.9663	0.0606	-0.385
Mof_N 	N 	0.1441	0.5337	0.0606	-0.171
Mof_N 	N 	0.1441	0.0337	0.5606	0.155
Mof_N 	N 	0.6441	0.5337	0.5606	-0.042
Mof_N 	N 	0.6441	0.0337	0.0606	0.023
Mof_N 	N 	0.5337	0.0606	0.1441	-0.171
Mof_N 	N 	0.5337	0.5606	0.6441	-0.042
Mof_N 	N 	0.0337	0.0606	0.6441	0.023
Mof_N 	N 	0.0337	0.5606	0.1441	0.155
Mof_N 	N 	0.4663	0.0606	0.8559	-0.202
Mof_N 	N 	0.4663	0.5606	0.3559	-0.02
Mof_N 	N 	0.9663	0.0606	0.3559	-0.385
Mof_N 	N 	0.9663	0.5606	0.8559	-0.256
Mof_N 	N 	0.4663	0.9394	0.1441	0.126
Mof_N 	N 	0.4663	0.4394	0.6441	-0.028
Mof_N 	N 	0.9663	0.9394	0.6441	-0.08
Mof_N 	N 	0.9663	0.4394	0.1441	-0.2
Mof_N 	N 	0.5337	0.9394	0.8559	0.123
Mof_N 	N 	0.5337	0.4394	0.3559	-0.043
Mof_N 	N 	0.0337	0.9394	0.3559	0.32
Mof_N 	N 	0.0337	0.4394	0.8559	0.178
Mof_N 	N 	0.0606	0.8559	0.4663	-0.202
Mof_N 	N 	0.0606	0.3559	0.9663	-0.385
Mof_N 	N 	0.5606	0.8559	0.9663	-0.256
Mof_N 	N 	0.5606	0.3559	0.4663	-0.02
Mof_N 	N 	0.0606	0.1441	0.5337	-0.171
Mof_N 	N 	0.0606	0.6441	0.0337	0.023
Mof_N 	N 	0.5606	0.1441	0.0337	0.155
Mof_N 	N 	0.5606	0.6441	0.5337	-0.042
Mof_N 	N 	0.9394	0.8559	0.5337	0.123
Mof_N 	N 	0.9394	0.3559	0.0337	0.32
Mof_N 	N 	0.4394	0.8559	0.0337	0.178
Mof_N 	N 	0.4394	0.3559	0.5337	-0.043
Mof_N 	N 	0.9394	0.1441	0.4663	0.126
Mof_N 	N 	0.9394	0.6441	0.9663	-0.08
Mof_N 	N 	0.4394	0.1441	0.9663	-0.2
Mof_N 	N 	0.4394	0.6441	0.4663	-0.028
Mof_Fe	Fe	0.5	0	-0	0.851
Mof_Fe	Fe	0.5	0.5	0.5	0.958
Mof_Fe	Fe	1.8747e-33	0	0.5	0.851
Mof_Fe	Fe	-0	0.5	-0	0.851
Mof_Na	Na	0.5	0.5	-0	2.093
Mof_Na	Na	1.8747e-33	0.5	0.5	2.093
Mof_Na	Na	0.5	0	0.5	2.093
Mof_Na	Na	-0	0	-0	1.979
Mof_N 	N 	0.48	0.226	0.98	-0.186
Mof_N 	N 	0.48	0.726	0.48	-0.029
Mof_N 	N 	0.52	0.774	0.98	-0.184
Mof_N 	N 	0.52	0.274	0.48	0.003
Mof_N 	N 	0.02	0.774	0.48	0.186
Mof_N 	N 	0.52	0.226	0.02	0.191
Mof_N 	N 	0.52	0.726	0.52	0.027
Mof_N 	N 	0.02	0.726	0.02	0.258
Mof_N 	N 	0.48	0.774	0.02	0.186
Mof_N 	N 	0.48	0.274	0.52	0.003
Mof_N 	N 	0.98	0.48	0.226	-0.186
Mof_N 	N 	0.98	0.98	0.726	-0.284
Mof_N 	N 	0.48	0.48	0.726	-0.029
Mof_N 	N 	0.98	0.52	0.774	-0.184
Mof_N 	N 	0.98	0.02	0.274	0.018
Mof_N 	N 	0.48	0.02	0.774	0.186
Mof_N 	N 	0.02	0.52	0.226	0.191
Mof_N 	N 	0.02	0.02	0.726	0.258
Mof_N 	N 	0.02	0.48	0.774	0.186
Mof_N 	N 	0.02	0.98	0.274	0.018
Mof_N 	N 	0.226	0.98	0.48	-0.186
Mof_N 	N 	0.726	0.98	0.98	-0.284
Mof_N 	N 	0.726	0.48	0.48	-0.029
Mof_N 	N 	0.774	0.98	0.52	-0.184
Mof_N 	N 	0.774	0.48	0.02	0.186
Mof_N 	N 	0.274	0.98	0.02	0.018
Mof_N 	N 	0.226	0.02	0.52	0.191
Mof_N 	N 	0.726	0.02	0.02	0.258
Mof_N 	N 	0.774	0.02	0.48	0.186
Mof_N 	N 	0.274	0.02	0.98	0.018
Mof_N 	N 	0.226	0.48	0.02	0.168
Mof_N 	N 	0.726	0.48	0.52	-0.001
Mof_N 	N 	0.774	0.52	0.02	0.21
Mof_N 	N 	0.274	0.52	0.52	0.01
Mof_N 	N 	0.274	0.02	0.02	0.2
Mof_N 	N 	0.226	0.52	0.98	-0.165
Mof_N 	N 	0.226	0.02	0.48	0.168
Mof_N 	N 	0.726	0.52	0.48	-0.001
Mof_N 	N 	0.774	0.48	0.98	-0.206
Mof_N 	N 	0.274	0.48	0.48	-0.004
Mof_N 	N 	0.48	0.98	0.774	-0.206
Mof_N 	N 	0.48	0.48	0.274	-0.004
Mof_N 	N 	0.52	0.98	0.226	-0.165
Mof_N 	N 	0.52	0.48	0.726	-0.001
Mof_N 	N 	0.02	0.48	0.226	0.168
Mof_N 	N 	0.52	0.02	0.774	0.21
Mof_N 	N 	0.52	0.52	0.274	0.01
Mof_N 	N 	0.02	0.02	0.274	0.2
Mof_N 	N 	0.48	0.02	0.226	0.168
Mof_N 	N 	0.48	0.52	0.726	-0.001
Mof_N 	N 	0.98	0.226	0.52	-0.165
Mof_N 	N 	0.98	0.726	0.02	0.016
Mof_N 	N 	0.48	0.226	0.02	0.168
Mof_N 	N 	0.98	0.774	0.48	-0.206
Mof_N 	N 	0.98	0.274	0.98	-0.219
Mof_N 	N 	0.48	0.274	0.48	-0.004
Mof_N 	N 	0.02	0.226	0.48	0.168
Mof_N 	N 	0.02	0.726	0.98	0.016
Mof_N 	N 	0.02	0.774	0.52	0.21
Mof_N 	N 	0.02	0.274	0.02	0.2
Mof_N 	N 	0.52	0.774	0.02	0.21
Mof_N 	N 	0.52	0.274	0.52	0.01
Mof_N 	N 	0.48	0.726	0.52	-0.001
Mof_N 	N 	0.48	0.774	0.98	-0.206
Mof_N 	N 	0.52	0.226	0.98	-0.165
Mof_N 	N 	0.52	0.726	0.48	-0.001
Mof_N 	N 	0.02	0.52	0.774	0.21
Mof_N 	N 	0.02	0.98	0.726	0.016
Mof_N 	N 	0.98	0.48	0.774	-0.206
Mof_N 	N 	0.98	0.98	0.274	-0.219
Mof_N 	N 	0.98	0.52	0.226	-0.165
Mof_N 	N 	0.98	0.02	0.726	0.016
Mof_N 	N 	0.774	0.02	0.52	0.21
Mof_N 	N 	0.726	0.02	0.98	0.016
Mof_N 	N 	0.774	0.98	0.48	-0.206
Mof_N 	N 	0.274	0.98	0.98	-0.219
Mof_N 	N 	0.226	0.98	0.52	-0.165
Mof_N 	N 	0.726	0.98	0.02	0.016
Mof_N 	N 	0.774	0.52	0.98	-0.184
Mof_N 	N 	0.274	0.52	0.48	0.003
Mof_N 	N 	0.226	0.48	0.98	-0.186
Mof_N 	N 	0.274	0.48	0.52	0.003
Mof_N 	N 	0.226	0.52	0.02	0.191
Mof_N 	N 	0.726	0.52	0.52	0.027
Mof_N 	N 	0.52	0.02	0.226	0.191
Mof_N 	N 	0.52	0.52	0.726	0.027
Mof_N 	N 	0.48	0.52	0.274	0.003
Mof_N 	N 	0.48	0.98	0.226	-0.186
Mof_N 	N 	0.52	0.98	0.774	-0.184
Mof_N 	N 	0.52	0.48	0.274	0.003
Mof_N 	N 	0.02	0.274	0.98	0.018
Mof_N 	N 	0.02	0.226	0.52	0.191
Mof_N 	N 	0.98	0.774	0.52	-0.184
Mof_N 	N 	0.98	0.274	0.02	0.018
Mof_N 	N 	0.98	0.226	0.48	-0.186
Mof_N 	N 	0.98	0.726	0.98	-0.284
Mof_N 	N 	0.5	0.3069	0.019	-0.917
Mof_N 	N 	0.5	0.8069	0.519	-0.134
Mof_N 	N 	-9.45885e-33	0.3069	0.519	-0.073
Mof_N 	N 	-7.05675e-33	0.8069	0.019	-0.749
Mof_N 	N 	0.5	0.6931	0.019	-1.021
Mof_N 	N 	0.5	0.1931	0.519	-0.074
Mof_N 	N 	1.94594e-33	0.6931	0.519	-0.077
Mof_N 	N 	-1.35436e-33	0.1931	0.019	-0.596
Mof_N 	N 	0.5	0.3069	0.981	0.719
Mof_N 	N 	0.5	0.8069	0.481	-0.004
Mof_N 	N 	1.80346e-33	0.3069	0.481	0.025
Mof_N 	N 	3.67816e-33	0.8069	0.981	0.613
Mof_N 	N 	0.5	0.6931	0.981	0.809
Mof_N 	N 	0.5	0.1931	0.481	-0.028
Mof_N 	N 	1.80346e-33	0.6931	0.481	0.034
Mof_N 	N 	3.67816e-33	0.1931	0.981	0.486
Mof_N 	N 	0.019	0.5	0.3069	-0.917
Mof_N 	N 	0.019	-5.70239e-33	0.8069	-0.749
Mof_N 	N 	0.519	0.5	0.8069	-0.134
Mof_N 	N 	0.519	0	0.3069	-0.073
Mof_N 	N 	0.019	0.5	0.6931	-1.021
Mof_N 	N 	0.019	-1.4256e-33	0.1931	-0.596
Mof_N 	N 	0.519	0.5	0.1931	-0.074
Mof_N 	N 	0.519	0	0.6931	-0.077
Mof_N 	N 	0.981	0.5	0.3069	0.719
Mof_N 	N 	0.981	-5.70239e-33	0.8069	0.613
Mof_N 	N 	0.481	0.5	0.8069	-0.004
Mof_N 	N 	0.481	0	0.3069	0.025
Mof_N 	N 	0.981	0.5	0.6931	0.809
Mof_N 	N 	0.981	-1.4256e-33	0.1931	0.486
Mof_N 	N 	0.481	0.5	0.1931	-0.028
Mof_N 	N 	0.481	0	0.6931	0.034
Mof_N 	N 	0.3069	0.019	0.5	-0.917
Mof_N 	N 	0.3069	0.519	-0	-0.073
Mof_N 	N 	0.8069	0.019	-0	-0.749
Mof_N 	N 	0.8069	0.519	0.5	-0.134
Mof_N 	N 	0.6931	0.019	0.5	-1.021
Mof_N 	N 	0.6931	0.519	-0	-0.077
Mof_N 	N 	0.1931	0.019	-0	-0.596
Mof_N 	N 	0.1931	0.519	0.5	-0.074
Mof_N 	N 	0.3069	0.981	0.5	0.719
Mof_N 	N 	0.3069	0.481	-0	0.025
Mof_N 	N 	0.8069	0.981	-0	0.613
Mof_N 	N 	0.8069	0.481	0.5	-0.004
Mof_N 	N 	0.6931	0.981	0.5	0.809
Mof_N 	N 	0.6931	0.481	-0	0.034
Mof_N 	N 	0.1931	0.981	-0	0.486
Mof_N 	N 	0.1931	0.481	0.5	-0.028
Mof_N 	N 	0.3069	0.5	0.981	0.719
Mof_N 	N 	0.3069	0	0.481	0.025
Mof_N 	N 	0.8069	0.5	0.481	-0.004
Mof_N 	N 	0.8069	0	0.981	0.613
Mof_N 	N 	0.6931	0.5	0.981	0.809
Mof_N 	N 	0.6931	0	0.481	0.034
Mof_N 	N 	0.1931	0.5	0.481	-0.028
Mof_N 	N 	0.1931	0	0.981	0.486
Mof_N 	N 	0.3069	0.5	0.019	-0.917
Mof_N 	N 	0.3069	0	0.519	-0.073
Mof_N 	N 	0.8069	0.5	0.519	-0.134
Mof_N 	N 	0.8069	0	0.019	-0.749
Mof_N 	N 	0.6931	0.5	0.019	-1.021
Mof_N 	N 	0.6931	0	0.519	-0.077
Mof_N 	N 	0.1931	0.5	0.519	-0.074
Mof_N 	N 	0.1931	0	0.019	-0.596
Mof_N 	N 	0.5	0.019	0.6931	-1.021
Mof_N 	N 	0.5	0.519	0.1931	-0.074
Mof_N 	N 	-2.12719e-33	0.019	0.1931	-0.596
Mof_N 	N 	-3.10369e-33	0.519	0.6931	-0.077
Mof_N 	N 	0.5	0.019	0.3069	-0.917
Mof_N 	N 	0.5	0.519	0.8069	-0.134
Mof_N 	N 	-8.3794e-33	0.019	0.8069	-0.749
Mof_N 	N 	-1.02541e-32	0.519	0.3069	-0.073
Mof_N 	N 	0.5	0.981	0.6931	0.809
Mof_N 	N 	0.5	0.481	0.1931	-0.028
Mof_N 	N 	7.24009e-34	0.981	0.1931	0.486
Mof_N 	N 	-3.10369e-33	0.481	0.6931	0.034
Mof_N 	N 	0.5	0.981	0.3069	0.719
Mof_N 	N 	0.5	0.481	0.8069	-0.004
Mof_N 	N 	3.02539e-33	0.981	0.8069	0.613
Mof_N 	N 	1.15069e-33	0.481	0.3069	0.025
Mof_N 	N 	0.019	0.3069	0.5	-0.917
Mof_N 	N 	0.019	0.8069	-0	-0.749
Mof_N 	N 	0.519	0.3069	-0	-0.073
Mof_N 	N 	0.519	0.8069	0.5	-0.134
Mof_N 	N 	0.019	0.6931	0.5	-1.021
Mof_N 	N 	0.019	0.1931	-0	-0.596
Mof_N 	N 	0.519	0.6931	-0	-0.077
Mof_N 	N 	0.519	0.1931	0.5	-0.074
Mof_N 	N 	0.981	0.3069	0.5	0.719
Mof_N 	N 	0.981	0.8069	-0	0.613
Mof_N 	N 	0.481	0.3069	-0	0.025
Mof_N 	N 	0.481	0.8069	0.5	-0.004
Mof_N 	N 	0.981	0.6931	0.5	0.809
Mof_N 	N 	0.981	0.1931	-0	0.486
Mof_N 	N 	0.481	0.6931	-0	0.034
Mof_N 	N 	0.481	0.1931	0.5	-0.028
_end
