data_functionalizedCrystal
_audit_creation_method	'EQeq! by Chris Wilmer'
_symmetry_space_group_name_H-M	'P1'
_symmetry_Int_Tables_number	1
_symmetry_cell_setting	triclinic
loop_
_symmetry_equiv_pos_as_xyz
  x,y,z
_cell_length_a	10.3265
_cell_length_b	14.1976
_cell_length_c	18.2477
_cell_angle_alpha	90
_cell_angle_beta	93.759
_cell_angle_gamma	90
loop_
_atom_site_label
_atom_site_type_symbol
_atom_site_fract_x
_atom_site_fract_y
_atom_site_fract_z
_atom_site_charge
Mof_Zn	Zn	0.21948	0.98943	0.23927	1.215
Mof_Zn	Zn	0.71948	0.51057	0.23927	1.215
Mof_Zn	Zn	0.28052	0.48943	0.76073	1.215
Mof_Zn	Zn	0.78052	0.01057	0.76073	1.215
Mof_H 	H 	0.8605	0.624	0.0258	0.062
Mof_H 	H 	0.5494	0.2218	0.577	0.132
Mof_H 	H 	0.9144	0.7168	0.2423	0.03
Mof_H 	H 	0.1601	0.7925	0.7895	0.043
Mof_H 	H 	0.6395	0.124	0.9742	0.064
Mof_H 	H 	0.908	0.2659	0.0512	0.133
Mof_H 	H 	0.6543	0.3642	0.1088	0.009
Mof_H 	H 	0.1395	0.376	0.9742	0.063
Mof_H 	H 	0.0856	0.2832	0.7577	0.03
Mof_H 	H 	0.6555	0.6355	0.3771	0.004
Mof_H 	H 	0.3264	0.1042	0.479	0.063
Mof_H 	H 	0.092	0.7341	0.9488	0.133
Mof_H 	H 	0.0494	0.2782	0.577	0.133
Mof_H 	H 	0.6601	0.7075	0.7895	0.043
Mof_H 	H 	0.5856	0.2168	0.7577	0.031
Mof_H 	H 	0.408	0.2341	0.0512	0.132
Mof_H 	H 	0.8445	0.1355	0.6229	0.004
Mof_H 	H 	0.3457	0.6358	0.8912	0.009
Mof_H 	H 	0.8399	0.2075	0.2105	0.043
Mof_H 	H 	0.3605	0.876	0.0258	0.064
Mof_H 	H 	0.9506	0.7218	0.423	0.133
Mof_H 	H 	0.592	0.7659	0.9488	0.132
Mof_H 	H 	0.1736	0.6042	0.521	0.063
Mof_H 	H 	0.6736	0.8958	0.521	0.063
Mof_H 	H 	0.4506	0.7782	0.423	0.133
Mof_H 	H 	0.8457	0.8642	0.8912	0.009
Mof_H 	H 	0.1543	0.1358	0.1088	0.009
Mof_H 	H 	0.1555	0.8645	0.3771	0.004
Mof_H 	H 	0.3445	0.3645	0.6229	0.004
Mof_H 	H 	0.4144	0.7832	0.2423	0.031
Mof_H 	H 	0.8264	0.3958	0.479	0.063
Mof_H 	H 	0.3399	0.2925	0.2105	0.043
Mof_C 	C 	0.5882	0.36246	0.14259	0.11
Mof_C 	C 	0.4335	0.00142	0.06437	-0.037
Mof_C 	C 	0.569	0.9984	0.56849	-0.048
Mof_C 	C 	0.4745	0.7367	0.2603	0.108
Mof_C 	C 	0.9118	0.86246	0.85741	0.11
Mof_C 	C 	0.603	0.9381	0.51267	-0.016
Mof_C 	C 	0.9169	0.57364	0.01537	-0.019
Mof_C 	C 	0.4118	0.63754	0.85741	0.11
Mof_C 	C 	0.4828	0.92495	0.95134	-0.022
Mof_C 	C 	0.1055	0.8435	0.33471	0.108
Mof_C 	C 	0.9656	0.43988	0.55469	-0.021
Mof_C 	C 	0.4165	0.3242	0.19825	0.105
Mof_C 	C 	0.8589	0.49676	0.13221	0.289
Mof_C 	C 	0.5762	0.8705	0.38866	0.231
Mof_C 	C 	0.8945	0.1565	0.66529	0.108
Mof_C 	C 	0.0835	0.8242	0.80175	0.105
Mof_C 	C 	0.0255	0.2367	0.7397	0.109
Mof_C 	C 	0.431	0.0016	0.43151	-0.048
Mof_C 	C 	0.0344	0.56012	0.44531	-0.021
Mof_C 	C 	0.3945	0.3435	0.66529	0.108
Mof_C 	C 	0.0172	0.42495	0.04866	-0.024
Mof_C 	C 	0.5665	0.99858	0.93563	-0.037
Mof_C 	C 	0.9541	0.65553	0.89891	0.231
Mof_C 	C 	0.9335	0.49858	0.06437	-0.038
Mof_C 	C 	0.1411	0.50324	0.86779	0.289
Mof_C 	C 	0.3563	0.0005	0.35763	0.319
Mof_C 	C 	0.0762	0.6295	0.38866	0.231
Mof_C 	C 	0.931	0.4984	0.43151	-0.048
Mof_C 	C 	0.0831	0.42636	0.98463	-0.019
Mof_C 	C 	0.1437	0.5005	0.64237	0.317
Mof_C 	C 	0.0882	0.13754	0.14259	0.11
Mof_C 	C 	0.9165	0.1758	0.19825	0.105
Mof_C 	C 	0.5255	0.2633	0.7397	0.108
Mof_C 	C 	0.3589	0.00324	0.13221	0.291
Mof_C 	C 	0.897	0.4381	0.48733	-0.017
Mof_C 	C 	0.4656	0.06012	0.55469	-0.021
Mof_C 	C 	0.9828	0.57505	0.95134	-0.024
Mof_C 	C 	0.8563	0.4995	0.35763	0.317
Mof_C 	C 	0.4238	0.1295	0.61134	0.231
Mof_C 	C 	0.6437	0.9995	0.64237	0.319
Mof_C 	C 	0.0665	0.50142	0.93563	-0.038
Mof_C 	C 	0.6411	0.99676	0.86779	0.291
Mof_C 	C 	0.9238	0.3705	0.61134	0.231
Mof_C 	C 	0.5172	0.07505	0.04866	-0.022
Mof_C 	C 	0.9745	0.7633	0.2603	0.109
Mof_C 	C 	0.5459	0.15553	0.10109	0.231
Mof_C 	C 	0.103	0.5619	0.51267	-0.017
Mof_C 	C 	0.0459	0.34447	0.10109	0.231
Mof_C 	C 	0.5835	0.6758	0.80175	0.105
Mof_C 	C 	0.069	0.5016	0.56849	-0.048
Mof_C 	C 	0.397	0.0619	0.48733	-0.016
Mof_C 	C 	0.5831	0.07364	0.98463	-0.022
Mof_C 	C 	0.4541	0.84447	0.89891	0.231
Mof_C 	C 	0.4169	0.92636	0.01537	-0.022
Mof_C 	C 	0.6055	0.6565	0.33471	0.108
Mof_C 	C 	0.5344	0.93988	0.44531	-0.021
Mof_N 	N 	0.028	0.89263	0.76393	-0.087
Mof_N 	N 	0.5155	0.69514	0.86168	-0.089
Mof_N 	N 	0.0155	0.80486	0.86168	-0.089
Mof_N 	N 	0.9665	0.26827	0.08845	-0.178
Mof_N 	N 	0.972	0.10737	0.23607	-0.087
Mof_N 	N 	0.1067	0.88022	0.2687	-0.219
Mof_N 	N 	0.9756	0.1709	0.77944	-0.091
Mof_N 	N 	0.8933	0.11978	0.7313	-0.219
Mof_N 	N 	0.5244	0.6709	0.22056	-0.09
Mof_N 	N 	0.4756	0.3291	0.77944	-0.09
Mof_N 	N 	0.9845	0.19514	0.13832	-0.089
Mof_N 	N 	0.4954	0.20995	0.6112	-0.178
Mof_N 	N 	0.9954	0.29005	0.6112	-0.179
Mof_N 	N 	0.0335	0.73173	0.91155	-0.178
Mof_N 	N 	0.0218	0.77174	0.33193	-0.088
Mof_N 	N 	0.0833	0.08433	0.20073	-0.219
Mof_N 	N 	0.5335	0.76827	0.91155	-0.178
Mof_N 	N 	0.4665	0.23173	0.08845	-0.178
Mof_N 	N 	0.9782	0.22826	0.66807	-0.088
Mof_N 	N 	0.0244	0.8291	0.22056	-0.091
Mof_N 	N 	0.472	0.39263	0.23607	-0.087
Mof_N 	N 	0.6067	0.61978	0.2687	-0.219
Mof_N 	N 	0.4782	0.27174	0.66807	-0.088
Mof_N 	N 	0.9167	0.91567	0.79927	-0.219
Mof_N 	N 	0.5833	0.41567	0.20073	-0.219
Mof_N 	N 	0.5046	0.79005	0.3888	-0.178
Mof_N 	N 	0.4167	0.58433	0.79927	-0.219
Mof_N 	N 	0.4845	0.30486	0.13832	-0.089
Mof_N 	N 	0.3933	0.38022	0.7313	-0.219
Mof_N 	N 	0.5218	0.72826	0.33193	-0.088
Mof_N 	N 	0.0046	0.70995	0.3888	-0.179
Mof_N 	N 	0.528	0.60737	0.76393	-0.087
Mof_O 	O 	0.13237	0.57394	0.82687	-0.33
Mof_O 	O 	0.2873	0.93372	0.14459	-0.396
Mof_O 	O 	0.6677	0.88113	0.35131	-0.199
Mof_O 	O 	0.3323	0.11887	0.64869	-0.199
Mof_O 	O 	0.86763	0.42606	0.17313	-0.33
Mof_O 	O 	0.86111	0.65561	0.85486	-0.205
Mof_O 	O 	0.2127	0.43372	0.85541	-0.395
Mof_O 	O 	0.2658	0.0556	0.34601	-0.381
Mof_O 	O 	0.63237	0.92606	0.82687	-0.33
Mof_O 	O 	0.36763	0.07394	0.17313	-0.33
Mof_O 	O 	0.1138	0.44316	0.68975	-0.368
Mof_O 	O 	0.3862	0.94316	0.31025	-0.369
Mof_O 	O 	0.7873	0.56628	0.14459	-0.395
Mof_O 	O 	0.8862	0.55684	0.31025	-0.368
Mof_O 	O 	0.7342	0.9444	0.65399	-0.381
Mof_O 	O 	0.7658	0.4444	0.34601	-0.381
Mof_O 	O 	0.7127	0.06628	0.85541	-0.396
Mof_O 	O 	0.8323	0.38113	0.64869	-0.199
Mof_O 	O 	0.6138	0.05684	0.68975	-0.369
Mof_O 	O 	0.1677	0.61887	0.35131	-0.199
Mof_O 	O 	0.13889	0.34439	0.14514	-0.205
Mof_O 	O 	0.36111	0.84439	0.85486	-0.205
Mof_O 	O 	0.63889	0.15561	0.14514	-0.205
Mof_O 	O 	0.2342	0.5556	0.65399	-0.381
_end
