data_functionalizedCrystal
_audit_creation_method	'EQeq! by Chris Wilmer'
_symmetry_space_group_name_H-M	'P1'
_symmetry_Int_Tables_number	1
_symmetry_cell_setting	triclinic
loop_
_symmetry_equiv_pos_as_xyz
  x,y,z
_cell_length_a	11.5432
_cell_length_b	11.6723
_cell_length_c	11.8414
_cell_angle_alpha	65.44
_cell_angle_beta	78.968
_cell_angle_gamma	72.175
loop_
_atom_site_label
_atom_site_type_symbol
_atom_site_fract_x
_atom_site_fract_y
_atom_site_fract_z
_atom_site_charge
Mof_O 	O 	0.5465	0.4014	0.3784	-0.397
Mof_O 	O 	0.5397	0.4275	0.1839	-0.407
Mof_O 	O 	0.5788	0.6528	0.9521	-0.365
Mof_O 	O 	0.5491	0.8614	0.9158	-0.359
Mof_N 	N 	0.4809	0.6571	0.3288	-0.228
Mof_N 	N 	0.4835	0.8303	0.1528	-0.213
Mof_N 	N 	0.6912	0.5042	0.4973	-0.238
Mof_N 	N 	0.696	0.9497	0.0333	-0.288
Mof_N 	N 	0.3245	0.6226	0.0308	-0.267
Mof_C 	C 	0.5347	0.4738	0.2625	0.309
Mof_C 	C 	0.5119	0.6158	0.2317	-0.038
Mof_C 	C 	0.514	0.7244	0.1219	-0.14
Mof_C 	C 	0.5489	0.7454	0.9891	0.408
Mof_C 	C 	0.4642	0.7865	0.2774	0.113
Mof_C 	C 	0.4296	0.8714	0.352	-0.048
Mof_H 	H 	0.47	0.9417	0.3123	0.058
Mof_H 	H 	0.4586	0.8203	0.4345	0.05
Mof_C 	C 	0.2927	0.9291	0.3641	-0.475
Mof_H 	H 	0.2759	0.9833	0.4109	0.188
Mof_H 	H 	0.2524	0.86	0.4063	0.173
Mof_H 	H 	0.2635	0.9802	0.2827	0.183
Mof_C 	C 	0.7811	0.4018	0.5021	0.087
Mof_H 	H 	0.7625	0.3294	0.5028	-0.021
Mof_C 	C 	0.9033	0.395	0.5062	-0.147
Mof_H 	H 	0.9629	0.3181	0.5136	0.067
Mof_C 	C 	0.9351	0.5017	0.4992	0.061
Mof_C 	C 	0.8405	0.6051	0.4962	-0.157
Mof_H 	H 	0.8552	0.6792	0.4961	0.085
Mof_C 	C 	0.7227	0.6029	0.4933	0.105
Mof_H 	H 	0.6613	0.6779	0.4881	-0.01
Mof_C 	C 	0.7451	0.8627	0.1369	0.09
Mof_H 	H 	0.6934	0.8389	0.2086	-0.008
Mof_C 	C 	0.8685	0.8048	0.1457	-0.156
Mof_H 	H 	0.897	0.7446	0.2222	0.084
Mof_C 	C 	0.9498	0.8346	0.0433	0.031
Mof_C 	C 	0.8996	0.9313	0.9361	-0.118
Mof_H 	H 	0.9492	0.9596	0.8637	0.096
Mof_C 	C 	0.7747	0.9859	0.9374	0.284
Mof_H 	H 	0.7442	0.0533	0.865	-0.102
Mof_C 	C 	0.0814	0.7663	0.0438	-0.053
Mof_C 	C 	0.1275	0.6478	0.1378	-0.095
Mof_H 	H 	0.0771	0.6141	0.2078	0.061
Mof_C 	C 	0.2459	0.5808	0.1281	0.045
Mof_H 	H 	0.2737	0.5017	0.1925	0.011
Mof_C 	C 	0.2814	0.7393	0.9429	0.132
Mof_H 	H 	0.3346	0.773	0.8758	0.01
Mof_C 	C 	0.163	0.8123	0.9463	-0.003
Mof_H 	H 	0.1382	0.8929	0.8826	0.06
Mof_O 	O 	0.4535	0.5986	0.6216	-0.394
Mof_O 	O 	0.4603	0.5725	0.8161	-0.367
Mof_O 	O 	0.4212	0.3472	0.0479	-0.391
Mof_O 	O 	0.4509	0.1386	0.0842	-0.409
Mof_N 	N 	0.5191	0.3429	0.6712	-0.223
Mof_N 	N 	0.5165	0.1697	0.8472	-0.225
Mof_N 	N 	0.3088	0.4958	0.5027	-0.238
Mof_N 	N 	0.304	0.0503	0.9667	-0.151
Mof_N 	N 	0.6755	0.3774	0.9692	-0.166
Mof_C 	C 	0.4653	0.5262	0.7375	0.335
Mof_C 	C 	0.4881	0.3842	0.7683	-0.079
Mof_C 	C 	0.486	0.2756	0.8781	0.049
Mof_C 	C 	0.4511	0.2546	0.0109	0.209
Mof_C 	C 	0.5358	0.2135	0.7226	0.122
Mof_C 	C 	0.5704	0.1286	0.648	-0.084
Mof_H 	H 	0.53	0.0583	0.6877	0.044
Mof_H 	H 	0.5414	0.1797	0.5655	0.051
Mof_C 	C 	0.7073	0.0709	0.6359	-0.38
Mof_H 	H 	0.7241	0.0167	0.5891	0.128
Mof_H 	H 	0.7476	0.14	0.5937	0.134
Mof_H 	H 	0.7365	0.0198	0.7173	0.132
Mof_C 	C 	0.2189	0.5982	0.4979	0.093
Mof_H 	H 	0.2375	0.6706	0.4972	-0.017
Mof_C 	C 	0.0967	0.605	0.4938	-0.146
Mof_H 	H 	0.0371	0.6819	0.4864	0.079
Mof_C 	C 	0.0649	0.4983	0.5008	0.061
Mof_C 	C 	0.1595	0.3949	0.5038	-0.157
Mof_H 	H 	0.1448	0.3208	0.5039	0.072
Mof_C 	C 	0.2773	0.3971	0.5067	0.104
Mof_H 	H 	0.3387	0.3221	0.5119	-0.018
Mof_C 	C 	0.2549	0.1373	0.8631	0.097
Mof_H 	H 	0.3066	0.1611	0.7914	-0.015
Mof_C 	C 	0.1315	0.1952	0.8543	-0.141
Mof_H 	H 	0.103	0.2554	0.7778	0.075
Mof_C 	C 	0.0502	0.1654	0.9567	0.104
Mof_C 	C 	0.1004	0.0687	0.0639	-0.166
Mof_H 	H 	0.0508	0.0404	0.1363	0.049
Mof_C 	C 	0.2253	0.0141	0.0626	-0.143
Mof_H 	H 	0.2558	0.9467	0.135	0.088
Mof_C 	C 	0.9186	0.2337	0.9562	0.167
Mof_C 	C 	0.8725	0.3522	0.8622	-0.176
Mof_H 	H 	0.9229	0.3859	0.7922	0.096
Mof_C 	C 	0.7541	0.4192	0.8719	0.122
Mof_H 	H 	0.7263	0.4983	0.8075	-0.001
Mof_C 	C 	0.7186	0.2607	0.0571	0.019
Mof_H 	H 	0.6654	0.227	0.1242	0.014
Mof_C 	C 	0.837	0.1877	0.0537	-0.263
Mof_H 	H 	0.8618	0.1071	0.1174	0.09
Mof_Co	Co	0.5	0.5	0.5	1.144
Mof_Co	Co	0.5	0.5	-0	1.14
Mof_Co	Co	0.5	0	-0	1.074
_end
