data_functionalizedCrystal
_audit_creation_method	'EQeq! by Chris Wilmer'
_symmetry_space_group_name_H-M	'P1'
_symmetry_Int_Tables_number	1
_symmetry_cell_setting	triclinic
loop_
_symmetry_equiv_pos_as_xyz
  x,y,z
_cell_length_a	7.2172
_cell_length_b	25.613
_cell_length_c	30.66
_cell_angle_alpha	90
_cell_angle_beta	96.392
_cell_angle_gamma	90
loop_
_atom_site_label
_atom_site_type_symbol
_atom_site_fract_x
_atom_site_fract_y
_atom_site_fract_z
_atom_site_charge
Mof_O 	O 	0.3108	0.3831	0.2725	-0.257
Mof_O 	O 	0.895	0.3433	0.1945	-0.274
Mof_O 	O 	0.358	0.9874	0.2012	-0.251
Mof_O 	O 	0.651	0.9549	0.1953	-0.237
Mof_N 	N 	0.862	0.2202	0.0592	-0.191
Mof_N 	N 	0.9544	0.2985	0.9993	-0.192
Mof_C 	C 	0.796	0.1807	0.081	0.121
Mof_C 	C 	0.916	0.1764	0.1239	-0.071
Mof_H 	H 	0.8989	0.1536	0.1468	0.067
Mof_C 	C 	0.046	0.2101	0.123	-0.083
Mof_H 	H 	0.1441	0.2136	0.1452	0.066
Mof_C 	C 	0.024	0.2435	0.0827	0.098
Mof_C 	C 	0.14	0.2806	0.0709	-0.142
Mof_C 	C 	0.11	0.3048	0.0318	0.106
Mof_C 	C 	0.226	0.3449	0.02	-0.105
Mof_H 	H 	0.3366	0.3553	0.0361	0.068
Mof_C 	C 	0.149	0.3671	0.9798	-0.08
Mof_H 	H 	0.1942	0.3949	0.9646	0.064
Mof_C 	C 	0.985	0.3365	0.968	0.118
Mof_C 	C 	0.637	0.1545	0.0709	-0.14
Mof_C 	C 	0.291	0.2988	0.1034	0.139
Mof_C 	C 	0.255	0.3275	0.1409	-0.18
Mof_H 	H 	0.1338	0.3376	0.1441	0.118
Mof_C 	C 	0.392	0.3404	0.1714	0.091
Mof_H 	H 	0.3633	0.3562	0.1972	0.042
Mof_C 	C 	0.574	0.3308	0.1659	-0.118
Mof_C 	C 	0.62	0.303	0.1299	0.07
Mof_H 	H 	0.743	0.2954	0.126	0.02
Mof_C 	C 	0.473	0.2871	0.1	-0.17
Mof_H 	H 	0.5003	0.2672	0.0761	0.085
Mof_C 	C 	0.731	0.3547	0.1982	0.333
Mof_C 	C 	0.597	0.1112	0.0997	0.124
Mof_C 	C 	0.444	0.1119	0.1235	-0.153
Mof_H 	H 	0.3608	0.1398	0.1207	0.088
Mof_C 	C 	0.415	0.0708	0.1516	0.05
Mof_H 	H 	0.3123	0.0713	0.1676	0.035
Mof_C 	C 	0.538	0.0291	0.1559	-0.09
Mof_C 	C 	0.691	0.0284	0.132	0.05
Mof_H 	H 	0.7741	0.0005	0.1348	0.038
Mof_C 	C 	0.72	0.0695	0.1039	-0.152
Mof_H 	H 	0.8226	0.069	0.088	0.088
Mof_C 	C 	0.51	0.987	0.1893	0.305
Mof_O 	O 	0.6892	0.3831	0.2275	-0.255
Mof_O 	O 	0.105	0.3433	0.3055	-0.285
Mof_O 	O 	0.642	0.9874	0.2988	-0.249
Mof_O 	O 	0.349	0.9549	0.3047	-0.238
Mof_N 	N 	0.138	0.2202	0.4408	-0.2
Mof_N 	N 	0.0456	0.2985	0.5007	-0.206
Mof_C 	C 	0.204	0.1807	0.419	0.129
Mof_C 	C 	0.084	0.1764	0.3761	-0.107
Mof_H 	H 	0.1011	0.1536	0.3532	0.076
Mof_C 	C 	0.954	0.2101	0.377	-0.05
Mof_H 	H 	0.8559	0.2136	0.3548	0.057
Mof_C 	C 	0.976	0.2435	0.4173	0.108
Mof_C 	C 	0.86	0.2806	0.4291	-0.152
Mof_C 	C 	0.89	0.3048	0.4682	0.13
Mof_C 	C 	0.774	0.3449	0.48	-0.105
Mof_H 	H 	0.6634	0.3553	0.4639	0.07
Mof_C 	C 	0.851	0.3671	0.5202	-0.066
Mof_H 	H 	0.8058	0.3949	0.5354	0.06
Mof_C 	C 	0.015	0.3365	0.532	0.095
Mof_C 	C 	0.363	0.1545	0.4291	-0.143
Mof_C 	C 	0.709	0.2988	0.3966	0.148
Mof_C 	C 	0.745	0.3275	0.3591	-0.19
Mof_H 	H 	0.8662	0.3376	0.3559	0.126
Mof_C 	C 	0.608	0.3404	0.3286	0.1
Mof_H 	H 	0.6367	0.3562	0.3028	0.04
Mof_C 	C 	0.426	0.3308	0.3341	-0.126
Mof_C 	C 	0.38	0.303	0.3701	0.079
Mof_H 	H 	0.257	0.2954	0.374	0.014
Mof_C 	C 	0.527	0.2871	0.4	-0.179
Mof_H 	H 	0.4997	0.2672	0.4239	0.088
Mof_C 	C 	0.269	0.3547	0.3018	0.336
Mof_C 	C 	0.403	0.1112	0.4003	0.126
Mof_C 	C 	0.556	0.1119	0.3765	-0.153
Mof_H 	H 	0.6392	0.1398	0.3793	0.089
Mof_C 	C 	0.585	0.0708	0.3484	0.05
Mof_H 	H 	0.6877	0.0713	0.3324	0.037
Mof_C 	C 	0.462	0.0291	0.3441	-0.09
Mof_C 	C 	0.309	0.0284	0.368	0.05
Mof_H 	H 	0.2259	0.0005	0.3652	0.037
Mof_C 	C 	0.28	0.0695	0.3961	-0.153
Mof_H 	H 	0.1774	0.069	0.412	0.087
Mof_C 	C 	0.49	0.987	0.3107	0.305
Mof_O 	O 	0.1892	0.1169	0.7275	-0.259
Mof_O 	O 	0.605	0.1567	0.8055	-0.282
Mof_O 	O 	0.142	0.5126	0.7988	-0.258
Mof_O 	O 	0.849	0.5451	0.8047	-0.237
Mof_N 	N 	0.638	0.2798	0.9408	-0.193
Mof_N 	N 	0.5456	0.2015	0.0007	-0.208
Mof_C 	C 	0.704	0.3193	0.919	0.127
Mof_C 	C 	0.584	0.3236	0.8761	-0.088
Mof_H 	H 	0.6011	0.3464	0.8532	0.071
Mof_C 	C 	0.454	0.2899	0.877	-0.069
Mof_H 	H 	0.3559	0.2864	0.8548	0.062
Mof_C 	C 	0.476	0.2565	0.9173	0.108
Mof_C 	C 	0.36	0.2194	0.9291	-0.155
Mof_C 	C 	0.39	0.1952	0.9682	0.126
Mof_C 	C 	0.274	0.1551	0.98	-0.082
Mof_H 	H 	0.1634	0.1447	0.9639	0.063
Mof_C 	C 	0.351	0.1329	0.0202	-0.1
Mof_H 	H 	0.3058	0.1051	0.0354	0.067
Mof_C 	C 	0.515	0.1635	0.032	0.111
Mof_C 	C 	0.863	0.3455	0.9291	-0.144
Mof_C 	C 	0.209	0.2012	0.8966	0.16
Mof_C 	C 	0.245	0.1725	0.8591	-0.195
Mof_H 	H 	0.3662	0.1624	0.8559	0.126
Mof_C 	C 	0.108	0.1596	0.8286	0.097
Mof_H 	H 	0.1367	0.1438	0.8028	0.039
Mof_C 	C 	0.926	0.1692	0.8341	-0.126
Mof_C 	C 	0.88	0.197	0.8701	0.101
Mof_H 	H 	0.757	0.2046	0.874	0.009
Mof_C 	C 	0.027	0.2129	0.9	-0.211
Mof_H 	H 	0.9997	0.2328	0.9239	0.105
Mof_C 	C 	0.769	0.1453	0.8018	0.337
Mof_C 	C 	0.903	0.3888	0.9003	0.137
Mof_C 	C 	0.056	0.3881	0.8765	-0.164
Mof_H 	H 	0.1392	0.3602	0.8793	0.091
Mof_C 	C 	0.085	0.4292	0.8484	0.045
Mof_H 	H 	0.1877	0.4287	0.8324	0.036
Mof_C 	C 	0.962	0.4709	0.8441	-0.085
Mof_C 	C 	0.809	0.4716	0.868	0.053
Mof_H 	H 	0.7259	0.4995	0.8652	0.038
Mof_C 	C 	0.78	0.4305	0.8961	-0.156
Mof_H 	H 	0.6774	0.431	0.912	0.091
Mof_C 	C 	0.99	0.513	0.8107	0.315
Mof_O 	O 	0.8108	0.1169	0.7725	-0.256
Mof_O 	O 	0.395	0.1567	0.6945	-0.281
Mof_O 	O 	0.858	0.5126	0.7012	-0.241
Mof_O 	O 	0.151	0.5451	0.6953	-0.236
Mof_N 	N 	0.362	0.2798	0.5592	-0.194
Mof_N 	N 	0.4544	0.2015	0.4993	-0.203
Mof_C 	C 	0.296	0.3193	0.581	0.121
Mof_C 	C 	0.416	0.3236	0.6239	-0.088
Mof_H 	H 	0.3989	0.3464	0.6468	0.071
Mof_C 	C 	0.546	0.2899	0.623	-0.066
Mof_H 	H 	0.6441	0.2864	0.6452	0.062
Mof_C 	C 	0.524	0.2565	0.5827	0.101
Mof_C 	C 	0.64	0.2194	0.5709	-0.139
Mof_C 	C 	0.61	0.1952	0.5318	0.116
Mof_C 	C 	0.726	0.1551	0.52	-0.094
Mof_H 	H 	0.8366	0.1447	0.5361	0.067
Mof_C 	C 	0.649	0.1329	0.4798	-0.084
Mof_H 	H 	0.6942	0.1051	0.4646	0.066
Mof_C 	C 	0.485	0.1635	0.468	0.11
Mof_C 	C 	0.137	0.3455	0.5709	-0.133
Mof_C 	C 	0.791	0.2012	0.6034	0.127
Mof_C 	C 	0.755	0.1725	0.6409	-0.175
Mof_H 	H 	0.6338	0.1624	0.6441	0.119
Mof_C 	C 	0.892	0.1596	0.6714	0.094
Mof_H 	H 	0.8633	0.1438	0.6972	0.043
Mof_C 	C 	0.074	0.1692	0.6659	-0.119
Mof_C 	C 	0.12	0.197	0.6299	0.048
Mof_H 	H 	0.243	0.2046	0.626	0.026
Mof_C 	C 	0.973	0.2129	0.6	-0.136
Mof_H 	H 	0.0003	0.2328	0.5761	0.068
Mof_C 	C 	0.231	0.1453	0.6982	0.332
Mof_C 	C 	0.097	0.3888	0.5997	0.111
Mof_C 	C 	0.944	0.3881	0.6235	-0.14
Mof_H 	H 	0.8608	0.3602	0.6207	0.086
Mof_C 	C 	0.915	0.4292	0.6516	0.055
Mof_H 	H 	0.8123	0.4287	0.6676	0.035
Mof_C 	C 	0.038	0.4709	0.6559	-0.094
Mof_C 	C 	0.191	0.4716	0.632	0.047
Mof_H 	H 	0.2741	0.4995	0.6348	0.039
Mof_C 	C 	0.22	0.4305	0.6039	-0.146
Mof_H 	H 	0.3226	0.431	0.588	0.086
Mof_C 	C 	0.01	0.513	0.6893	0.294
Mof_Cd	Cd	2.01845e-17	0.40505	0.25	0.484
Mof_Cd	Cd	0.5	0.09495	0.75	0.492
Mof_Pd	Pd	0.75	0.25	-0	0.514
Mof_Pd	Pd	0.25	0.25	0.5	0.523
Mof_O 	O 	0.8108	0.8831	0.2725	-0.256
Mof_O 	O 	0.395	0.8433	0.1945	-0.281
Mof_O 	O 	0.858	0.4874	0.2012	-0.241
Mof_O 	O 	0.151	0.4549	0.1953	-0.236
Mof_N 	N 	0.362	0.7202	0.0592	-0.194
Mof_N 	N 	0.4544	0.7985	0.9993	-0.194
Mof_C 	C 	0.296	0.6807	0.081	0.122
Mof_C 	C 	0.416	0.6764	0.1239	-0.089
Mof_H 	H 	0.3989	0.6536	0.1468	0.071
Mof_C 	C 	0.546	0.7101	0.123	-0.065
Mof_H 	H 	0.6441	0.7136	0.1452	0.062
Mof_C 	C 	0.524	0.7435	0.0827	0.099
Mof_C 	C 	0.64	0.7806	0.0709	-0.138
Mof_C 	C 	0.61	0.8048	0.0318	0.112
Mof_C 	C 	0.726	0.8449	0.02	-0.11
Mof_H 	H 	0.8366	0.8553	0.0361	0.071
Mof_C 	C 	0.649	0.8671	0.9798	-0.066
Mof_H 	H 	0.6942	0.8949	0.9646	0.061
Mof_C 	C 	0.485	0.8365	0.968	0.106
Mof_C 	C 	0.137	0.6545	0.0709	-0.135
Mof_C 	C 	0.791	0.7988	0.1034	0.127
Mof_C 	C 	0.755	0.8275	0.1409	-0.175
Mof_H 	H 	0.6338	0.8376	0.1441	0.119
Mof_C 	C 	0.892	0.8404	0.1714	0.094
Mof_H 	H 	0.8633	0.8562	0.1972	0.043
Mof_C 	C 	0.074	0.8308	0.1659	-0.119
Mof_C 	C 	0.12	0.803	0.1299	0.047
Mof_H 	H 	0.243	0.7954	0.126	0.026
Mof_C 	C 	0.973	0.7871	0.1	-0.137
Mof_H 	H 	0.0003	0.7672	0.0761	0.068
Mof_C 	C 	0.231	0.8547	0.1982	0.332
Mof_C 	C 	0.097	0.6112	0.0997	0.111
Mof_C 	C 	0.944	0.6119	0.1235	-0.141
Mof_H 	H 	0.8608	0.6398	0.1207	0.086
Mof_C 	C 	0.915	0.5708	0.1516	0.055
Mof_H 	H 	0.8123	0.5713	0.1676	0.035
Mof_C 	C 	0.038	0.5291	0.1559	-0.095
Mof_C 	C 	0.191	0.5284	0.132	0.047
Mof_H 	H 	0.2741	0.5005	0.1348	0.038
Mof_C 	C 	0.22	0.5695	0.1039	-0.147
Mof_H 	H 	0.3226	0.569	0.088	0.085
Mof_C 	C 	0.01	0.487	0.1893	0.294
Mof_O 	O 	0.1892	0.8831	0.2275	-0.259
Mof_O 	O 	0.605	0.8433	0.3055	-0.282
Mof_O 	O 	0.142	0.4874	0.2988	-0.258
Mof_O 	O 	0.849	0.4549	0.3047	-0.237
Mof_N 	N 	0.638	0.7202	0.4408	-0.197
Mof_N 	N 	0.5456	0.7985	0.5007	-0.204
Mof_C 	C 	0.704	0.6807	0.419	0.128
Mof_C 	C 	0.584	0.6764	0.3761	-0.089
Mof_H 	H 	0.6011	0.6536	0.3532	0.072
Mof_C 	C 	0.454	0.7101	0.377	-0.068
Mof_H 	H 	0.3559	0.7136	0.3548	0.062
Mof_C 	C 	0.476	0.7435	0.4173	0.106
Mof_C 	C 	0.36	0.7806	0.4291	-0.155
Mof_C 	C 	0.39	0.8048	0.4682	0.122
Mof_C 	C 	0.274	0.8449	0.48	-0.099
Mof_H 	H 	0.1634	0.8553	0.4639	0.066
Mof_C 	C 	0.351	0.8671	0.5202	-0.082
Mof_H 	H 	0.3058	0.8949	0.5354	0.063
Mof_C 	C 	0.515	0.8365	0.532	0.108
Mof_C 	C 	0.863	0.6545	0.4291	-0.148
Mof_C 	C 	0.209	0.7988	0.3966	0.159
Mof_C 	C 	0.245	0.8275	0.3591	-0.195
Mof_H 	H 	0.3662	0.8376	0.3559	0.126
Mof_C 	C 	0.108	0.8404	0.3286	0.097
Mof_H 	H 	0.1367	0.8562	0.3028	0.039
Mof_C 	C 	0.926	0.8308	0.3341	-0.126
Mof_C 	C 	0.88	0.803	0.3701	0.1
Mof_H 	H 	0.757	0.7954	0.374	0.008
Mof_C 	C 	0.027	0.7871	0.4	-0.211
Mof_H 	H 	0.9997	0.7672	0.4239	0.104
Mof_C 	C 	0.769	0.8547	0.3018	0.337
Mof_C 	C 	0.903	0.6112	0.4003	0.138
Mof_C 	C 	0.056	0.6119	0.3765	-0.165
Mof_H 	H 	0.1392	0.6398	0.3793	0.091
Mof_C 	C 	0.085	0.5708	0.3484	0.045
Mof_H 	H 	0.1877	0.5713	0.3324	0.036
Mof_C 	C 	0.962	0.5291	0.3441	-0.085
Mof_C 	C 	0.809	0.5284	0.368	0.053
Mof_H 	H 	0.7259	0.5005	0.3652	0.037
Mof_C 	C 	0.78	0.5695	0.3961	-0.157
Mof_H 	H 	0.6774	0.569	0.412	0.09
Mof_C 	C 	0.99	0.487	0.3107	0.315
Mof_O 	O 	0.6892	0.6169	0.7275	-0.255
Mof_O 	O 	0.105	0.6567	0.8055	-0.285
Mof_O 	O 	0.642	0.0126	0.7988	-0.249
Mof_O 	O 	0.349	0.0451	0.8047	-0.238
Mof_N 	N 	0.138	0.7798	0.9408	-0.196
Mof_N 	N 	0.0456	0.7015	0.0007	-0.21
Mof_C 	C 	0.204	0.8193	0.919	0.128
Mof_C 	C 	0.084	0.8236	0.8761	-0.105
Mof_H 	H 	0.1011	0.8464	0.8532	0.075
Mof_C 	C 	0.954	0.7899	0.877	-0.051
Mof_H 	H 	0.8559	0.7864	0.8548	0.058
Mof_C 	C 	0.976	0.7565	0.9173	0.11
Mof_C 	C 	0.86	0.7194	0.9291	-0.152
Mof_C 	C 	0.89	0.6952	0.9682	0.134
Mof_C 	C 	0.774	0.6551	0.98	-0.089
Mof_H 	H 	0.6634	0.6447	0.9639	0.067
Mof_C 	C 	0.851	0.6329	0.0202	-0.084
Mof_H 	H 	0.8058	0.6051	0.0354	0.064
Mof_C 	C 	0.015	0.6635	0.032	0.099
Mof_C 	C 	0.363	0.8455	0.9291	-0.14
Mof_C 	C 	0.709	0.7012	0.8966	0.149
Mof_C 	C 	0.745	0.6725	0.8591	-0.19
Mof_H 	H 	0.8662	0.6624	0.8559	0.127
Mof_C 	C 	0.608	0.6596	0.8286	0.101
Mof_H 	H 	0.6367	0.6438	0.8028	0.04
Mof_C 	C 	0.426	0.6692	0.8341	-0.127
Mof_C 	C 	0.38	0.697	0.8701	0.08
Mof_H 	H 	0.257	0.7046	0.874	0.014
Mof_C 	C 	0.527	0.7129	0.9	-0.18
Mof_H 	H 	0.4997	0.7328	0.9239	0.09
Mof_C 	C 	0.269	0.6453	0.8018	0.337
Mof_C 	C 	0.403	0.8888	0.9003	0.125
Mof_C 	C 	0.556	0.8881	0.8765	-0.152
Mof_H 	H 	0.6392	0.8602	0.8793	0.089
Mof_C 	C 	0.585	0.9292	0.8484	0.05
Mof_H 	H 	0.6877	0.9287	0.8324	0.037
Mof_C 	C 	0.462	0.9709	0.8441	-0.089
Mof_C 	C 	0.309	0.9716	0.868	0.05
Mof_H 	H 	0.2259	0.9995	0.8652	0.037
Mof_C 	C 	0.28	0.9305	0.8961	-0.152
Mof_H 	H 	0.1774	0.931	0.912	0.088
Mof_C 	C 	0.49	0.013	0.8107	0.305
Mof_O 	O 	0.3108	0.6169	0.7725	-0.258
Mof_O 	O 	0.895	0.6567	0.6945	-0.275
Mof_O 	O 	0.358	0.0126	0.7012	-0.252
Mof_O 	O 	0.651	0.0451	0.6953	-0.237
Mof_N 	N 	0.862	0.7798	0.5592	-0.191
Mof_N 	N 	0.9544	0.7015	0.4993	-0.201
Mof_C 	C 	0.796	0.8193	0.581	0.12
Mof_C 	C 	0.916	0.8236	0.6239	-0.07
Mof_H 	H 	0.8989	0.8464	0.6468	0.066
Mof_C 	C 	0.046	0.7899	0.623	-0.084
Mof_H 	H 	0.1441	0.7864	0.6452	0.067
Mof_C 	C 	0.024	0.7565	0.5827	0.1
Mof_C 	C 	0.14	0.7194	0.5709	-0.143
Mof_C 	C 	0.11	0.6952	0.5318	0.109
Mof_C 	C 	0.226	0.6551	0.52	-0.088
Mof_H 	H 	0.3366	0.6447	0.5361	0.064
Mof_C 	C 	0.149	0.6329	0.4798	-0.099
Mof_H 	H 	0.1942	0.6051	0.4646	0.068
Mof_C 	C 	0.985	0.6635	0.468	0.122
Mof_C 	C 	0.637	0.8455	0.5709	-0.138
Mof_C 	C 	0.291	0.7012	0.6034	0.139
Mof_C 	C 	0.255	0.6725	0.6409	-0.181
Mof_H 	H 	0.1338	0.6624	0.6441	0.119
Mof_C 	C 	0.392	0.6596	0.6714	0.091
Mof_H 	H 	0.3633	0.6438	0.6972	0.042
Mof_C 	C 	0.574	0.6692	0.6659	-0.118
Mof_C 	C 	0.62	0.697	0.6299	0.071
Mof_H 	H 	0.743	0.7046	0.626	0.02
Mof_C 	C 	0.473	0.7129	0.6	-0.17
Mof_H 	H 	0.5003	0.7328	0.5761	0.085
Mof_C 	C 	0.731	0.6453	0.6982	0.333
Mof_C 	C 	0.597	0.8888	0.5997	0.124
Mof_C 	C 	0.444	0.8881	0.6235	-0.153
Mof_H 	H 	0.3608	0.8602	0.6207	0.088
Mof_C 	C 	0.415	0.9292	0.6516	0.05
Mof_H 	H 	0.3123	0.9287	0.6676	0.035
Mof_C 	C 	0.538	0.9709	0.6559	-0.09
Mof_C 	C 	0.691	0.9716	0.632	0.05
Mof_H 	H 	0.7741	0.9995	0.6348	0.039
Mof_C 	C 	0.72	0.9305	0.6039	-0.151
Mof_H 	H 	0.8226	0.931	0.588	0.089
Mof_C 	C 	0.51	0.013	0.6893	0.305
Mof_Cd	Cd	0.5	0.90505	0.25	0.492
Mof_Cd	Cd	-4.03689e-17	0.59495	0.75	0.484
Mof_Pd	Pd	0.25	0.75	-0	0.51
Mof_Pd	Pd	0.75	0.75	0.5	0.527
_end
