data_functionalizedCrystal
_audit_creation_method	'EQeq! by Chris Wilmer'
_symmetry_space_group_name_H-M	'P1'
_symmetry_Int_Tables_number	1
_symmetry_cell_setting	triclinic
loop_
_symmetry_equiv_pos_as_xyz
  x,y,z
_cell_length_a	16.8552
_cell_length_b	16.8552
_cell_length_c	16.8552
_cell_angle_alpha	90
_cell_angle_beta	90
_cell_angle_gamma	90
loop_
_atom_site_label
_atom_site_type_symbol
_atom_site_fract_x
_atom_site_fract_y
_atom_site_fract_z
_atom_site_charge
Mof_O 	O 	0.1944	0.5173	0.0946	-0.698
Mof_O 	O 	0.6944	0.0173	0.5946	-0.76
Mof_O 	O 	0.8056	0.4827	0.0946	-0.68
Mof_O 	O 	0.3056	0.9827	0.5946	-0.431
Mof_O 	O 	0.8056	0.5173	0.9054	-0.463
Mof_O 	O 	0.3056	0.0173	0.4054	-0.779
Mof_O 	O 	0.1944	0.4827	0.9054	-0.477
Mof_O 	O 	0.6944	0.9827	0.4054	-0.443
Mof_O 	O 	0.0946	0.1944	0.5173	-0.698
Mof_O 	O 	0.5946	0.6944	0.0173	-0.76
Mof_O 	O 	0.0946	0.8056	0.4827	-0.68
Mof_O 	O 	0.5946	0.3056	0.9827	-0.431
Mof_O 	O 	0.9054	0.8056	0.5173	-0.463
Mof_O 	O 	0.4054	0.3056	0.0173	-0.779
Mof_O 	O 	0.9054	0.1944	0.4827	-0.477
Mof_O 	O 	0.4054	0.6944	0.9827	-0.443
Mof_O 	O 	0.5173	0.0946	0.1944	-0.698
Mof_O 	O 	0.0173	0.5946	0.6944	-0.76
Mof_O 	O 	0.4827	0.0946	0.8056	-0.68
Mof_O 	O 	0.9827	0.5946	0.3056	-0.431
Mof_O 	O 	0.5173	0.9054	0.8056	-0.463
Mof_O 	O 	0.0173	0.4054	0.3056	-0.779
Mof_O 	O 	0.4827	0.9054	0.1944	-0.477
Mof_O 	O 	0.9827	0.4054	0.6944	-0.443
Mof_O 	O 	0.5173	0.1944	0.0946	-0.698
Mof_O 	O 	0.0173	0.6944	0.5946	-0.76
Mof_O 	O 	0.4827	0.8056	0.0946	-0.68
Mof_O 	O 	0.9827	0.3056	0.5946	-0.431
Mof_O 	O 	0.5173	0.8056	0.9054	-0.463
Mof_O 	O 	0.0173	0.3056	0.4054	-0.779
Mof_O 	O 	0.4827	0.1944	0.9054	-0.477
Mof_O 	O 	0.9827	0.6944	0.4054	-0.443
Mof_O 	O 	0.1944	0.0946	0.5173	-0.698
Mof_O 	O 	0.6944	0.5946	0.0173	-0.76
Mof_O 	O 	0.8056	0.0946	0.4827	-0.68
Mof_O 	O 	0.3056	0.5946	0.9827	-0.431
Mof_O 	O 	0.8056	0.9054	0.5173	-0.463
Mof_O 	O 	0.3056	0.4054	0.0173	-0.779
Mof_O 	O 	0.1944	0.9054	0.4827	-0.477
Mof_O 	O 	0.6944	0.4054	0.9827	-0.443
Mof_O 	O 	0.0946	0.5173	0.1944	-0.698
Mof_O 	O 	0.5946	0.0173	0.6944	-0.76
Mof_O 	O 	0.0946	0.4827	0.8056	-0.68
Mof_O 	O 	0.5946	0.9827	0.3056	-0.431
Mof_O 	O 	0.9054	0.5173	0.8056	-0.463
Mof_O 	O 	0.4054	0.0173	0.3056	-0.779
Mof_O 	O 	0.9054	0.4827	0.1944	-0.477
Mof_O 	O 	0.4054	0.9827	0.6944	-0.443
Mof_Ga	Ga	5.27168e-33	0.5	-0	0.513
Mof_Ga	Ga	0.5	5.27168e-33	0.5	1.916
Mof_Ga	Ga	7.14638e-33	5.27168e-33	0.5	0.513
Mof_Ga	Ga	0.5	0.5	-0	1.916
Mof_Ga	Ga	0.5	0	-0	0.513
Mof_Ga	Ga	1.24181e-32	0.5	0.5	1.916
Mof_Ga	Ga	0.25	0.5	-0	1.844
Mof_Ga	Ga	0.75	0.5	-0	1.946
Mof_Ga	Ga	0.25	5.27168e-33	0.5	1.844
Mof_Ga	Ga	1.24181e-32	0.25	0.5	1.844
Mof_Ga	Ga	1.8747e-33	0.75	0.5	1.946
Mof_Ga	Ga	0.5	0.25	-0	1.844
Mof_Ga	Ga	0.5	2.63584e-33	0.25	1.844
Mof_Ga	Ga	0.5	5.27168e-33	0.75	1.946
Mof_Ga	Ga	1.14807e-32	0.5	0.25	1.844
Mof_Ga	Ga	0.5	0.75	-0	1.946
Mof_Ga	Ga	0.75	5.27168e-33	0.5	1.946
Mof_Ga	Ga	2.81205e-33	0.5	0.75	1.946
Mof_P 	P 	0.12361	0.5664	0.12361	0.641
Mof_O 	O 	0.0589	0.5716	0.0589	-0.633
Mof_O 	O 	0.1458	0.6486	0.1458	-0.35
Mof_P 	P 	0.62361	0.0664	0.62361	0.708
Mof_O 	O 	0.5589	0.0716	0.5589	-0.78
Mof_O 	O 	0.6458	0.1486	0.6458	-0.249
Mof_P 	P 	0.87639	0.4336	0.12361	0.647
Mof_O 	O 	0.9411	0.4284	0.0589	-0.359
Mof_O 	O 	0.8542	0.3514	0.1458	-0.257
Mof_P 	P 	0.37639	0.9336	0.62361	0.691
Mof_O 	O 	0.4411	0.9284	0.5589	-0.538
Mof_O 	O 	0.3542	0.8514	0.6458	-0.205
Mof_P 	P 	0.87639	0.5664	0.87639	0.65
Mof_O 	O 	0.9411	0.5716	0.9411	-0.043
Mof_O 	O 	0.8542	0.6486	0.8542	-0.069
Mof_P 	P 	0.37639	0.0664	0.37639	0.698
Mof_O 	O 	0.4411	0.0716	0.4411	-0.777
Mof_O 	O 	0.3542	0.1486	0.3542	-0.301
Mof_P 	P 	0.12361	0.4336	0.87639	0.647
Mof_O 	O 	0.0589	0.4284	0.9411	-0.359
Mof_O 	O 	0.1458	0.3514	0.8542	-0.257
Mof_P 	P 	0.62361	0.9336	0.37639	0.691
Mof_O 	O 	0.5589	0.9284	0.4411	-0.538
Mof_O 	O 	0.6458	0.8514	0.3542	-0.205
Mof_P 	P 	0.12361	0.12361	0.5664	0.641
Mof_O 	O 	0.0589	0.0589	0.5716	-0.633
Mof_O 	O 	0.1458	0.1458	0.6486	-0.35
Mof_P 	P 	0.62361	0.62361	0.0664	0.708
Mof_O 	O 	0.5589	0.5589	0.0716	-0.78
Mof_O 	O 	0.6458	0.6458	0.1486	-0.249
Mof_P 	P 	0.12361	0.87639	0.4336	0.647
Mof_O 	O 	0.0589	0.9411	0.4284	-0.359
Mof_O 	O 	0.1458	0.8542	0.3514	-0.257
Mof_P 	P 	0.62361	0.37639	0.9336	0.691
Mof_O 	O 	0.5589	0.4411	0.9284	-0.538
Mof_O 	O 	0.6458	0.3542	0.8514	-0.205
Mof_P 	P 	0.87639	0.87639	0.5664	0.65
Mof_O 	O 	0.9411	0.9411	0.5716	-0.043
Mof_O 	O 	0.8542	0.8542	0.6486	-0.069
Mof_P 	P 	0.37639	0.37639	0.0664	0.698
Mof_O 	O 	0.4411	0.4411	0.0716	-0.777
Mof_O 	O 	0.3542	0.3542	0.1486	-0.301
Mof_P 	P 	0.87639	0.12361	0.4336	0.647
Mof_O 	O 	0.9411	0.0589	0.4284	-0.359
Mof_O 	O 	0.8542	0.1458	0.3514	-0.257
Mof_P 	P 	0.37639	0.62361	0.9336	0.691
Mof_O 	O 	0.4411	0.5589	0.9284	-0.538
Mof_O 	O 	0.3542	0.6458	0.8514	-0.205
Mof_P 	P 	0.5664	0.12361	0.12361	0.641
Mof_O 	O 	0.5716	0.0589	0.0589	-0.633
Mof_O 	O 	0.6486	0.1458	0.1458	-0.35
Mof_P 	P 	0.0664	0.62361	0.62361	0.708
Mof_O 	O 	0.0716	0.5589	0.5589	-0.78
Mof_O 	O 	0.1486	0.6458	0.6458	-0.249
Mof_P 	P 	0.4336	0.12361	0.87639	0.647
Mof_O 	O 	0.4284	0.0589	0.9411	-0.359
Mof_O 	O 	0.3514	0.1458	0.8542	-0.257
Mof_P 	P 	0.9336	0.62361	0.37639	0.691
Mof_O 	O 	0.9284	0.5589	0.4411	-0.538
Mof_O 	O 	0.8514	0.6458	0.3542	-0.205
Mof_P 	P 	0.5664	0.87639	0.87639	0.65
Mof_O 	O 	0.5716	0.9411	0.9411	-0.043
Mof_O 	O 	0.6486	0.8542	0.8542	-0.069
Mof_P 	P 	0.0664	0.37639	0.37639	0.698
Mof_O 	O 	0.0716	0.4411	0.4411	-0.777
Mof_O 	O 	0.1486	0.3542	0.3542	-0.301
Mof_P 	P 	0.4336	0.87639	0.12361	0.647
Mof_O 	O 	0.4284	0.9411	0.0589	-0.359
Mof_O 	O 	0.3514	0.8542	0.1458	-0.257
Mof_P 	P 	0.9336	0.37639	0.62361	0.691
Mof_O 	O 	0.9284	0.4411	0.5589	-0.538
Mof_O 	O 	0.8514	0.3542	0.6458	-0.205
_end
