data_functionalizedCrystal
_audit_creation_method	'EQeq! by Chris Wilmer'
_symmetry_space_group_name_H-M	'P1'
_symmetry_Int_Tables_number	1
_symmetry_cell_setting	triclinic
loop_
_symmetry_equiv_pos_as_xyz
  x,y,z
_cell_length_a	6.0922
_cell_length_b	9.9633
_cell_length_c	13.3598
_cell_angle_alpha	68.853
_cell_angle_beta	81.104
_cell_angle_gamma	76.848
loop_
_atom_site_label
_atom_site_type_symbol
_atom_site_fract_x
_atom_site_fract_y
_atom_site_fract_z
_atom_site_charge
Mof_Gd	Gd	0.83214	0.61429	0.19572	1.571
Mof_Gd	Gd	0.16786	0.38571	0.80429	1.571
Mof_H 	H 	0.3269	0.0471	0.0281	0.021
Mof_H 	H 	0.704	0.3248	0.6297	0.011
Mof_H 	H 	0.6731	0.9529	0.9719	0.021
Mof_H 	H 	0.296	0.6752	0.3703	0.011
Mof_C 	C 	0.2883	0.7661	0.141	0.39
Mof_C 	C 	0.134	0.8934	0.0687	-0.078
Mof_C 	C 	0.1921	0.0298	0.0152	0.072
Mof_C 	C 	0.9507	0.3826	0.4395	0.342
Mof_C 	C 	0.7101	0.4441	0.4728	-0.056
Mof_C 	C 	0.6172	0.3976	0.5776	0.071
Mof_C 	C 	0.0888	0.4399	0.0345	0.247
Mof_C 	C 	0.7117	0.2339	0.859	0.39
Mof_C 	C 	0.866	0.1066	0.9313	-0.078
Mof_C 	C 	0.8079	0.9702	0.9848	0.072
Mof_C 	C 	0.0493	0.6174	0.5605	0.342
Mof_C 	C 	0.2899	0.5559	0.5272	-0.056
Mof_C 	C 	0.3828	0.6024	0.4224	0.071
Mof_C 	C 	0.9112	0.5601	0.9655	0.247
Mof_N 	N 	0.9401	0.8637	0.0542	-0.168
Mof_N 	N 	0.5934	0.5465	0.3933	-0.173
Mof_N 	N 	0.0599	0.1363	0.9458	-0.168
Mof_N 	N 	0.4066	0.4535	0.6067	-0.173
Mof_O 	O 	0.2142	0.6493	0.1837	-0.43
Mof_O 	O 	0.4799	0.7834	0.1514	-0.438
Mof_O 	O 	0.0142	0.4315	0.3418	-0.401
Mof_O 	O 	0.0691	0.2906	0.5102	-0.262
Mof_O 	O 	0.0847	0.4295	0.1303	-0.35
Mof_O 	O 	0.223	0.3612	0.9873	-0.369
Mof_O 	O 	0.7858	0.3507	0.8163	-0.43
Mof_O 	O 	0.5201	0.2166	0.8486	-0.438
Mof_O 	O 	0.9858	0.5685	0.6582	-0.401
Mof_O 	O 	0.9309	0.7094	0.4898	-0.262
Mof_O 	O 	0.9153	0.5705	0.8697	-0.35
Mof_O 	O 	0.777	0.6388	0.0127	-0.369
_end
