data_functionalizedCrystal
_audit_creation_method	'EQeq! by Chris Wilmer'
_symmetry_space_group_name_H-M	'P1'
_symmetry_Int_Tables_number	1
_symmetry_cell_setting	triclinic
loop_
_symmetry_equiv_pos_as_xyz
  x,y,z
_cell_length_a	7.644
_cell_length_b	11.148
_cell_length_c	22.262
_cell_angle_alpha	90
_cell_angle_beta	90
_cell_angle_gamma	98.828
loop_
_atom_site_label
_atom_site_type_symbol
_atom_site_fract_x
_atom_site_fract_y
_atom_site_fract_z
_atom_site_charge
Mof_Gd	Gd	0.60511	0.26633	0.77882	1.851
Mof_Gd	Gd	0.89489	0.73367	0.27882	1.852
Mof_Gd	Gd	0.39489	0.73367	0.22118	1.851
Mof_Gd	Gd	0.10511	0.26633	0.72118	1.852
Mof_H 	H 	0.4046	0.1226	0.5356	-0
Mof_H 	H 	0.2707	0.2159	0.5384	-0.003
Mof_H 	H 	0.5219	0.3727	0.5522	0.217
Mof_H 	H 	0.6375	0.2689	0.5605	0.212
Mof_H 	H 	0.3039	0.5165	0.3746	-0.34
Mof_H 	H 	0.4113	0.484	0.3178	-0.347
Mof_H 	H 	0.0982	0.3714	0.3398	0.533
Mof_H 	H 	0.2031	0.3902	0.2798	0.543
Mof_H 	H 	0.7684	0.1146	0.3667	0.007
Mof_H 	H 	0.7504	0.2018	0.3125	-0.01
Mof_H 	H 	0.5627	0.0652	0.2639	0.19
Mof_H 	H 	0.4986	0.9944	0.3225	0.176
Mof_H 	H 	0.0954	0.8774	0.0356	0
Mof_H 	H 	0.2293	0.7841	0.0384	-0.002
Mof_H 	H 	0.9781	0.6273	0.0522	0.216
Mof_H 	H 	0.8625	0.7311	0.0605	0.21
Mof_H 	H 	0.1961	0.4835	0.8746	-0.34
Mof_H 	H 	0.0887	0.516	0.8178	-0.347
Mof_H 	H 	0.4018	0.6286	0.8398	0.534
Mof_H 	H 	0.2969	0.6098	0.7798	0.544
Mof_H 	H 	0.7316	0.8854	0.8667	0.007
Mof_H 	H 	0.7496	0.7982	0.8125	-0.011
Mof_H 	H 	0.9373	0.9348	0.7639	0.19
Mof_H 	H 	0.0014	0.0056	0.8225	0.176
Mof_H 	H 	0.5954	0.8774	0.4644	-0
Mof_H 	H 	0.7293	0.7841	0.4616	-0.003
Mof_H 	H 	0.4781	0.6273	0.4478	0.217
Mof_H 	H 	0.3625	0.7311	0.4395	0.212
Mof_H 	H 	0.6961	0.4835	0.6254	-0.34
Mof_H 	H 	0.5887	0.516	0.6822	-0.347
Mof_H 	H 	0.9018	0.6286	0.6602	0.533
Mof_H 	H 	0.7969	0.6098	0.7202	0.543
Mof_H 	H 	0.2316	0.8854	0.6333	0.007
Mof_H 	H 	0.2496	0.7982	0.6875	-0.01
Mof_H 	H 	0.4373	0.9348	0.7361	0.19
Mof_H 	H 	0.5014	0.0056	0.6775	0.176
Mof_H 	H 	0.9046	0.1226	0.9644	0
Mof_H 	H 	0.7707	0.2159	0.9616	-0.002
Mof_H 	H 	0.0219	0.3727	0.9478	0.216
Mof_H 	H 	0.1375	0.2689	0.9395	0.21
Mof_H 	H 	0.8039	0.5165	0.1254	-0.34
Mof_H 	H 	0.9113	0.484	0.1822	-0.347
Mof_H 	H 	0.5982	0.3714	0.1602	0.534
Mof_H 	H 	0.7031	0.3902	0.2202	0.544
Mof_H 	H 	0.2684	0.1146	0.1333	0.007
Mof_H 	H 	0.2504	0.2018	0.1875	-0.011
Mof_H 	H 	0.0627	0.0652	0.2361	0.19
Mof_H 	H 	0.9986	0.9944	0.1775	0.176
Mof_C 	C 	0.5391	0.1738	0.4332	0.297
Mof_C 	C 	0.323	0.311	0.4377	0.299
Mof_C 	C 	0.456	0.265	0.3419	0.303
Mof_C 	C 	0.3905	0.206	0.5274	0.203
Mof_C 	C 	0.5195	0.2895	0.5654	-0.541
Mof_C 	C 	0.467	0.2786	0.6309	0.581
Mof_C 	C 	0.313	0.4554	0.3443	1.243
Mof_C 	C 	0.175	0.431	0.3163	-1.671
Mof_C 	C 	0.0676	0.5258	0.298	0.923
Mof_C 	C 	0.685	0.1413	0.3387	0.18
Mof_C 	C 	0.6024	0.0349	0.3015	-0.486
Mof_C 	C 	0.7203	0.9437	0.2879	0.491
Mof_C 	C 	0.9609	0.8262	0.9332	0.296
Mof_C 	C 	0.177	0.689	0.9377	0.299
Mof_C 	C 	0.044	0.735	0.8419	0.304
Mof_C 	C 	0.1095	0.794	0.0274	0.198
Mof_C 	C 	0.9805	0.7105	0.0654	-0.535
Mof_C 	C 	0.033	0.7214	0.1309	0.578
Mof_C 	C 	0.187	0.5446	0.8443	1.244
Mof_C 	C 	0.325	0.569	0.8163	-1.673
Mof_C 	C 	0.4324	0.4742	0.798	0.924
Mof_C 	C 	0.815	0.8587	0.8387	0.18
Mof_C 	C 	0.8976	0.9651	0.8015	-0.486
Mof_C 	C 	0.7797	0.0563	0.7879	0.491
Mof_C 	C 	0.4609	0.8262	0.5668	0.297
Mof_C 	C 	0.677	0.689	0.5623	0.299
Mof_C 	C 	0.544	0.735	0.6581	0.303
Mof_C 	C 	0.6095	0.794	0.4726	0.203
Mof_C 	C 	0.4805	0.7105	0.4346	-0.541
Mof_C 	C 	0.533	0.7214	0.3691	0.581
Mof_C 	C 	0.687	0.5446	0.6557	1.243
Mof_C 	C 	0.825	0.569	0.6837	-1.671
Mof_C 	C 	0.9324	0.4742	0.702	0.923
Mof_C 	C 	0.315	0.8587	0.6613	0.18
Mof_C 	C 	0.3976	0.9651	0.6985	-0.486
Mof_C 	C 	0.2797	0.0563	0.7121	0.491
Mof_C 	C 	0.0391	0.1738	0.0668	0.296
Mof_C 	C 	0.823	0.311	0.0623	0.299
Mof_C 	C 	0.956	0.265	0.1581	0.304
Mof_C 	C 	0.8905	0.206	0.9726	0.198
Mof_C 	C 	0.0195	0.2895	0.9346	-0.535
Mof_C 	C 	0.967	0.2786	0.8691	0.578
Mof_C 	C 	0.813	0.4554	0.1557	1.244
Mof_C 	C 	0.675	0.431	0.1837	-1.673
Mof_C 	C 	0.5676	0.5258	0.202	0.924
Mof_C 	C 	0.185	0.1413	0.1613	0.18
Mof_C 	C 	0.1024	0.0349	0.1985	-0.486
Mof_C 	C 	0.2203	0.9437	0.2121	0.491
Mof_N 	N 	0.4162	0.2301	0.4635	-0.224
Mof_N 	N 	0.337	0.319	0.3763	-0.303
Mof_N 	N 	0.5536	0.1966	0.3723	-0.228
Mof_N 	N 	0.0838	0.7699	0.9635	-0.222
Mof_N 	N 	0.163	0.681	0.8763	-0.303
Mof_N 	N 	0.9464	0.8034	0.8723	-0.228
Mof_N 	N 	0.5838	0.7699	0.5365	-0.224
Mof_N 	N 	0.663	0.681	0.6237	-0.303
Mof_N 	N 	0.4464	0.8034	0.6277	-0.228
Mof_N 	N 	0.9162	0.2301	0.0365	-0.222
Mof_N 	N 	0.837	0.319	0.1237	-0.303
Mof_N 	N 	0.0536	0.1966	0.1277	-0.228
Mof_O 	O 	0.46	0.2758	0.2877	-0.3
Mof_O 	O 	0.6268	0.1096	0.4587	-0.251
Mof_O 	O 	0.229	0.367	0.4664	-0.262
Mof_O 	O 	0.5837	0.2608	0.669	-0.491
Mof_O 	O 	0.3121	0.2911	0.6434	-0.513
Mof_O 	O 	0.9137	0.5228	0.3158	-0.56
Mof_O 	O 	0.1352	0.6104	0.2631	-0.685
Mof_O 	O 	0.6697	0.8611	0.2484	-0.587
Mof_O 	O 	0.8629	0.9423	0.3144	-0.448
Mof_O 	O 	0.04	0.7242	0.7877	-0.3
Mof_O 	O 	0.8732	0.8904	0.9587	-0.25
Mof_O 	O 	0.271	0.633	0.9664	-0.262
Mof_O 	O 	0.9163	0.7392	0.169	-0.489
Mof_O 	O 	0.1879	0.7089	0.1434	-0.513
Mof_O 	O 	0.5863	0.4772	0.8158	-0.561
Mof_O 	O 	0.3648	0.3896	0.7631	-0.685
Mof_O 	O 	0.8303	0.1389	0.7484	-0.587
Mof_O 	O 	0.6371	0.0577	0.8144	-0.448
Mof_O 	O 	0.54	0.7242	0.7123	-0.3
Mof_O 	O 	0.3732	0.8904	0.5413	-0.251
Mof_O 	O 	0.771	0.633	0.5336	-0.262
Mof_O 	O 	0.4163	0.7392	0.331	-0.491
Mof_O 	O 	0.6879	0.7089	0.3566	-0.513
Mof_O 	O 	0.0863	0.4772	0.6842	-0.56
Mof_O 	O 	0.8648	0.3896	0.7369	-0.685
Mof_O 	O 	0.3303	0.1389	0.7516	-0.587
Mof_O 	O 	0.1371	0.0577	0.6856	-0.448
Mof_O 	O 	0.96	0.2758	0.2123	-0.3
Mof_O 	O 	0.1268	0.1096	0.0413	-0.25
Mof_O 	O 	0.729	0.367	0.0336	-0.262
Mof_O 	O 	0.0837	0.2608	0.831	-0.489
Mof_O 	O 	0.8121	0.2911	0.8566	-0.513
Mof_O 	O 	0.4137	0.5228	0.1842	-0.561
Mof_O 	O 	0.6352	0.6104	0.2369	-0.685
Mof_O 	O 	0.1697	0.8611	0.2516	-0.587
Mof_O 	O 	0.3629	0.9423	0.1856	-0.448
_end
