data_functionalizedCrystal
_audit_creation_method	'EQeq! by Chris Wilmer'
_symmetry_space_group_name_H-M	'P1'
_symmetry_Int_Tables_number	1
_symmetry_cell_setting	triclinic
loop_
_symmetry_equiv_pos_as_xyz
  x,y,z
_cell_length_a	15.1154
_cell_length_b	8.7269
_cell_length_c	16.1675
_cell_angle_alpha	90
_cell_angle_beta	108.156
_cell_angle_gamma	90
loop_
_atom_site_label
_atom_site_type_symbol
_atom_site_fract_x
_atom_site_fract_y
_atom_site_fract_z
_atom_site_charge
Mof_Zn	Zn	0.3657	0.37073	0.48484	1.232
Mof_P 	P 	0.15444	0.3885	0.37817	0.451
Mof_H 	H 	0.1147	0.5248	0.3662	-0.038
Mof_P 	P 	0.98403	0.9083	0.11747	0.566
Mof_H 	H 	0.9747	0.803	0.1728	-0.013
Mof_O 	O 	0.2557	0.4152	0.3858	-0.425
Mof_O 	O 	0.1393	0.3246	0.4592	-0.489
Mof_O 	O 	0.1081	0.2975	0.2948	-0.456
Mof_O 	O 	0.0428	0.0362	0.1728	-0.533
Mof_O 	O 	0.0321	0.831	0.0604	-0.52
Mof_O 	O 	0.8861	0.9621	0.0684	-0.452
Mof_Zn	Zn	0.8657	0.87073	0.48484	1.235
Mof_P 	P 	0.65444	0.8885	0.37817	0.452
Mof_H 	H 	0.6147	0.0248	0.3662	-0.022
Mof_P 	P 	0.48403	0.4083	0.11747	0.434
Mof_H 	H 	0.4747	0.303	0.1728	-0.028
Mof_O 	O 	0.7557	0.9152	0.3858	-0.416
Mof_O 	O 	0.6393	0.8246	0.4592	-0.474
Mof_O 	O 	0.6081	0.7975	0.2948	-0.434
Mof_O 	O 	0.5428	0.5362	0.1728	-0.456
Mof_O 	O 	0.5321	0.331	0.0604	-0.437
Mof_O 	O 	0.3861	0.4621	0.0684	-0.451
Mof_Zn	Zn	0.6343	0.37073	0.01516	1.234
Mof_P 	P 	0.84556	0.3885	0.12183	0.454
Mof_H 	H 	0.8853	0.5248	0.1338	-0.006
Mof_P 	P 	0.01597	0.9083	0.38253	0.302
Mof_H 	H 	0.0253	0.803	0.3272	-0.041
Mof_O 	O 	0.7443	0.4152	0.1142	-0.417
Mof_O 	O 	0.8607	0.3246	0.0408	-0.455
Mof_O 	O 	0.8919	0.2975	0.2052	-0.404
Mof_O 	O 	0.9572	0.0362	0.3272	-0.37
Mof_O 	O 	0.9679	0.831	0.4396	-0.356
Mof_O 	O 	0.1139	0.9621	0.4316	-0.448
Mof_Zn	Zn	0.1343	0.87073	0.01516	1.23
Mof_P 	P 	0.34556	0.8885	0.12183	0.452
Mof_H 	H 	0.3853	0.0248	0.1338	-0.023
Mof_P 	P 	0.51597	0.4083	0.38253	0.434
Mof_H 	H 	0.5253	0.303	0.3272	-0.027
Mof_O 	O 	0.2443	0.9152	0.1142	-0.426
Mof_O 	O 	0.3607	0.8246	0.0408	-0.473
Mof_O 	O 	0.3919	0.7975	0.2052	-0.438
Mof_O 	O 	0.4572	0.5362	0.3272	-0.459
Mof_O 	O 	0.4679	0.331	0.4396	-0.44
Mof_O 	O 	0.6139	0.4621	0.4316	-0.449
Mof_Zn	Zn	0.6343	0.62927	0.51516	1.232
Mof_P 	P 	0.84556	0.6115	0.62183	0.454
Mof_H 	H 	0.8853	0.4752	0.6338	-0.007
Mof_P 	P 	0.01597	0.0917	0.88253	0.305
Mof_H 	H 	0.0253	0.197	0.8272	-0.041
Mof_O 	O 	0.7443	0.5848	0.6142	-0.419
Mof_O 	O 	0.8607	0.6754	0.5408	-0.459
Mof_O 	O 	0.8919	0.7025	0.7052	-0.405
Mof_O 	O 	0.9572	0.9638	0.8272	-0.372
Mof_O 	O 	0.9679	0.169	0.9396	-0.36
Mof_O 	O 	0.1139	0.0379	0.9316	-0.45
Mof_Zn	Zn	0.1343	0.12927	0.51516	1.228
Mof_P 	P 	0.34556	0.1115	0.62183	0.452
Mof_H 	H 	0.3853	0.9752	0.6338	-0.024
Mof_P 	P 	0.51597	0.5917	0.88253	0.434
Mof_H 	H 	0.5253	0.697	0.8272	-0.028
Mof_O 	O 	0.2443	0.0848	0.6142	-0.428
Mof_O 	O 	0.3607	0.1754	0.5408	-0.476
Mof_O 	O 	0.3919	0.2025	0.7052	-0.438
Mof_O 	O 	0.4572	0.4638	0.8272	-0.46
Mof_O 	O 	0.4679	0.669	0.9396	-0.442
Mof_O 	O 	0.6139	0.5379	0.9316	-0.452
Mof_Zn	Zn	0.3657	0.62927	0.98484	1.23
Mof_P 	P 	0.15444	0.6115	0.87817	0.45
Mof_H 	H 	0.1147	0.4752	0.8662	-0.039
Mof_P 	P 	0.98403	0.0917	0.61747	0.565
Mof_H 	H 	0.9747	0.197	0.6728	-0.014
Mof_O 	O 	0.2557	0.5848	0.8858	-0.426
Mof_O 	O 	0.1393	0.6754	0.9592	-0.491
Mof_O 	O 	0.1081	0.7025	0.7948	-0.457
Mof_O 	O 	0.0428	0.9638	0.6728	-0.534
Mof_O 	O 	0.0321	0.169	0.5604	-0.523
Mof_O 	O 	0.8861	0.0379	0.5684	-0.454
Mof_Zn	Zn	0.8657	0.12927	0.98484	1.233
Mof_P 	P 	0.65444	0.1115	0.87817	0.452
Mof_H 	H 	0.6147	0.9752	0.8662	-0.023
Mof_P 	P 	0.48403	0.5917	0.61747	0.434
Mof_H 	H 	0.4747	0.697	0.6728	-0.028
Mof_O 	O 	0.7557	0.0848	0.8858	-0.418
Mof_O 	O 	0.6393	0.1754	0.9592	-0.478
Mof_O 	O 	0.6081	0.2025	0.7948	-0.435
Mof_O 	O 	0.5428	0.4638	0.6728	-0.457
Mof_O 	O 	0.5321	0.669	0.5604	-0.44
Mof_O 	O 	0.3861	0.5379	0.5684	-0.454
Mof_Zn	Zn	1.31501e-33	0.16565	0.25	1.201
Mof_Zn	Zn	0.5	0.66565	0.25	1.23
Mof_Zn	Zn	3.94502e-33	0.83435	0.75	1.202
Mof_Zn	Zn	0.5	0.33435	0.75	1.23
_end
