data_functionalizedCrystal
_audit_creation_method	'EQeq! by Chris Wilmer'
_symmetry_space_group_name_H-M	'P1'
_symmetry_Int_Tables_number	1
_symmetry_cell_setting	triclinic
loop_
_symmetry_equiv_pos_as_xyz
  x,y,z
_cell_length_a	7.247
_cell_length_b	10.718
_cell_length_c	11.545
_cell_angle_alpha	90
_cell_angle_beta	90
_cell_angle_gamma	90
loop_
_atom_site_label
_atom_site_type_symbol
_atom_site_fract_x
_atom_site_fract_y
_atom_site_fract_z
_atom_site_charge
Mof_Cd	Cd	0.6112	0.4339	0.4601	0.428
Mof_C 	C 	0.97	0.286	0.399	0.271
Mof_C 	C 	0.071	0.218	0.305	-0.065
Mof_C 	C 	0.934	0.168	0.211	-0.009
Mof_C 	C 	0.8	0.065	0.268	-0.18
Mof_C 	C 	0.662	0.024	0.178	0.32
Mof_N 	N 	0.188	0.127	0.357	-0.164
Mof_O 	O 	0.969	0.251	0.503	-0.275
Mof_O 	O 	0.866	0.382	0.363	-0.258
Mof_O 	O 	0.521	0.958	0.214	-0.266
Mof_O 	O 	0.681	0.038	0.074	-0.282
Mof_Cd	Cd	0.8888	0.5661	0.9601	0.44
Mof_C 	C 	0.53	0.714	0.899	0.27
Mof_C 	C 	0.429	0.782	0.805	-0.059
Mof_C 	C 	0.566	0.832	0.711	-0.015
Mof_C 	C 	0.7	0.935	0.768	-0.176
Mof_C 	C 	0.838	0.976	0.678	0.319
Mof_N 	N 	0.312	0.873	0.857	-0.139
Mof_O 	O 	0.531	0.749	0.003	-0.264
Mof_O 	O 	0.634	0.618	0.863	-0.259
Mof_O 	O 	0.979	0.042	0.714	-0.266
Mof_O 	O 	0.819	0.962	0.574	-0.282
Mof_Cd	Cd	0.3888	0.9339	0.0399	0.444
Mof_C 	C 	0.03	0.786	0.101	0.266
Mof_C 	C 	0.929	0.718	0.195	-0.056
Mof_C 	C 	0.066	0.668	0.289	-0.017
Mof_C 	C 	0.2	0.565	0.232	-0.178
Mof_C 	C 	0.338	0.524	0.322	0.319
Mof_N 	N 	0.812	0.627	0.143	-0.14
Mof_O 	O 	0.031	0.751	0.997	-0.261
Mof_O 	O 	0.134	0.882	0.137	-0.26
Mof_O 	O 	0.479	0.458	0.286	-0.265
Mof_O 	O 	0.319	0.538	0.426	-0.284
Mof_Cd	Cd	0.1112	0.0661	0.5399	0.421
Mof_C 	C 	0.47	0.214	0.601	0.265
Mof_C 	C 	0.571	0.282	0.695	-0.055
Mof_C 	C 	0.434	0.332	0.789	-0.018
Mof_C 	C 	0.3	0.435	0.732	-0.177
Mof_C 	C 	0.162	0.476	0.822	0.32
Mof_N 	N 	0.688	0.373	0.643	-0.166
Mof_O 	O 	0.469	0.249	0.497	-0.269
Mof_O 	O 	0.366	0.118	0.637	-0.259
Mof_O 	O 	0.021	0.542	0.786	-0.265
Mof_O 	O 	0.181	0.462	0.926	-0.282
Mof_H 	H 	0.16445	0.28888	0.2605	0.061
Mof_H 	H 	0.84773	0.24861	0.17611	0.05
Mof_H 	H 	0.72441	0.10737	0.34515	0.093
Mof_H 	H 	0.33555	0.71112	0.7605	0.057
Mof_H 	H 	0.48468	0.87612	0.63706	0.052
Mof_H 	H 	0.65227	0.75139	0.67611	0.046
Mof_H 	H 	0.77559	0.89263	0.84515	0.09
Mof_H 	H 	0.83555	0.78888	0.2395	0.056
Mof_H 	H 	0.15227	0.74861	0.32389	0.046
Mof_H 	H 	0.27559	0.60737	0.15485	0.09
Mof_H 	H 	0.1146	0.4817	0.20205	0.083
Mof_H 	H 	0.66445	0.21112	0.7395	0.058
Mof_H 	H 	0.51532	0.37612	0.86294	0.053
Mof_H 	H 	0.34773	0.25139	0.82389	0.05
Mof_H 	H 	0.22441	0.39263	0.65485	0.09
Mof_H 	H 	0.3854	0.5183	0.70205	0.078
Mof_H 	H 	0.6146	0.0183	0.79795	0.082
Mof_H 	H 	0.01532	0.12388	0.13706	0.046
Mof_H 	H 	0.98468	0.62388	0.36294	0.053
Mof_H 	H 	0.8854	0.9817	0.29795	0.08
Mof_H 	H 	0.19398	0.03103	0.32106	0.079
Mof_H 	H 	0.27316	0.15209	0.43345	0.079
Mof_H 	H 	0.16088	0.87004	0.8416	0.096
Mof_H 	H 	0.37199	0.94685	0.91291	0.002
Mof_H 	H 	0.87199	0.55315	0.08709	0.003
Mof_H 	H 	0.66088	0.62996	0.1584	0.095
Mof_H 	H 	0.82151	0.34438	0.60409	0.1
Mof_H 	H 	0.64562	0.47251	0.64141	0.06
_end
