data_functionalizedCrystal
_audit_creation_method	'EQeq! by Chris Wilmer'
_symmetry_space_group_name_H-M	'P1'
_symmetry_Int_Tables_number	1
_symmetry_cell_setting	triclinic
loop_
_symmetry_equiv_pos_as_xyz
  x,y,z
_cell_length_a	15.0933
_cell_length_b	15.0933
_cell_length_c	10.0587
_cell_angle_alpha	90
_cell_angle_beta	90
_cell_angle_gamma	90
loop_
_atom_site_label
_atom_site_type_symbol
_atom_site_fract_x
_atom_site_fract_y
_atom_site_fract_z
_atom_site_charge
Mof_Li	Li	0.444	0.1906	0.3617	3.048
Mof_O 	O 	0.39032	0.12306	0.492	-1.281
Mof_O 	O 	0.3332	0.0763	0.6813	-1.22
Mof_O 	O 	0.08849	0.43546	0.6203	-0.833
Mof_O 	O 	0.07092	0.34479	0.794	-0.588
Mof_N 	N 	0.2099	0.3192	0.5067	-0.155
Mof_H 	H 	0.196	0.357	0.448	0
Mof_N 	N 	0.2727	0.2595	0.479	-0.192
Mof_C 	C 	0.3348	0.1289	0.5847	0.818
Mof_C 	C 	0.2693	0.2021	0.5793	-0.463
Mof_C 	C 	0.2045	0.2251	0.6712	0.221
Mof_H 	H 	0.1896	0.1951	0.7488	-0.252
Mof_C 	C 	0.1673	0.3016	0.6231	-0.302
Mof_C 	C 	0.1034	0.3648	0.6826	0.415
Mof_Li	Li	0.556	0.8094	0.3617	3.16
Mof_O 	O 	0.60968	0.87694	0.492	-1.27
Mof_O 	O 	0.6668	0.9237	0.6813	-1.317
Mof_O 	O 	0.91151	0.56454	0.6203	-0.762
Mof_O 	O 	0.92908	0.65521	0.794	-0.487
Mof_N 	N 	0.7901	0.6808	0.5067	-0.158
Mof_H 	H 	0.804	0.643	0.448	0.016
Mof_N 	N 	0.7273	0.7405	0.479	-0.183
Mof_C 	C 	0.6652	0.8711	0.5847	0.891
Mof_C 	C 	0.7307	0.7979	0.5793	-0.47
Mof_C 	C 	0.7955	0.7749	0.6712	0.238
Mof_H 	H 	0.8104	0.8049	0.7488	-0.245
Mof_C 	C 	0.8327	0.6984	0.6231	-0.262
Mof_C 	C 	0.8966	0.6352	0.6826	0.41
Mof_Li	Li	0.1906	0.556	0.6383	3.066
Mof_O 	O 	0.12306	0.60968	0.508	-1.283
Mof_O 	O 	0.0763	0.6668	0.3187	-1.237
Mof_O 	O 	0.43546	0.91151	0.3797	-0.764
Mof_O 	O 	0.34479	0.92908	0.206	-0.492
Mof_N 	N 	0.3192	0.7901	0.4933	-0.159
Mof_H 	H 	0.357	0.804	0.552	0.014
Mof_N 	N 	0.2595	0.7273	0.521	-0.187
Mof_C 	C 	0.1289	0.6652	0.4153	0.831
Mof_C 	C 	0.2021	0.7307	0.4207	-0.451
Mof_C 	C 	0.2251	0.7955	0.3288	0.216
Mof_H 	H 	0.1951	0.8104	0.2512	-0.23
Mof_C 	C 	0.3016	0.8327	0.3769	-0.262
Mof_C 	C 	0.3648	0.8966	0.3174	0.407
Mof_Li	Li	0.8094	0.444	0.6383	3.144
Mof_O 	O 	0.87694	0.39032	0.508	-1.267
Mof_O 	O 	0.9237	0.3332	0.3187	-1.299
Mof_O 	O 	0.56454	0.08849	0.3797	-0.831
Mof_O 	O 	0.65521	0.07092	0.206	-0.583
Mof_N 	N 	0.6808	0.2099	0.4933	-0.154
Mof_H 	H 	0.643	0.196	0.552	0.002
Mof_N 	N 	0.7405	0.2727	0.521	-0.188
Mof_C 	C 	0.8711	0.3348	0.4153	0.879
Mof_C 	C 	0.7979	0.2693	0.4207	-0.481
Mof_C 	C 	0.7749	0.2045	0.3288	0.243
Mof_H 	H 	0.8049	0.1896	0.2512	-0.267
Mof_C 	C 	0.6984	0.1673	0.3769	-0.302
Mof_C 	C 	0.6352	0.1034	0.3174	0.418
Mof_Li	Li	0.056	0.6906	0.1383	2.85
Mof_O 	O 	0.10968	0.62306	0.008	-1.238
Mof_O 	O 	0.1668	0.5763	0.8187	-1.266
Mof_O 	O 	0.41151	0.93546	0.8797	-0.704
Mof_O 	O 	0.42908	0.84479	0.706	-0.52
Mof_N 	N 	0.2901	0.8192	0.9933	-0.161
Mof_H 	H 	0.304	0.857	0.052	0.027
Mof_N 	N 	0.2273	0.7595	0.021	-0.177
Mof_C 	C 	0.1652	0.6289	0.9153	0.828
Mof_C 	C 	0.2307	0.7021	0.9207	-0.453
Mof_C 	C 	0.2955	0.7251	0.8288	0.215
Mof_H 	H 	0.3104	0.6951	0.7512	-0.241
Mof_C 	C 	0.3327	0.8016	0.8769	-0.259
Mof_C 	C 	0.3966	0.8648	0.8174	0.398
Mof_Li	Li	0.944	0.3094	0.1383	3.367
Mof_O 	O 	0.89032	0.37694	0.008	-1.315
Mof_O 	O 	0.8332	0.4237	0.8187	-1.27
Mof_O 	O 	0.58849	0.06454	0.8797	-0.892
Mof_O 	O 	0.57092	0.15521	0.706	-0.557
Mof_N 	N 	0.7099	0.1808	0.9933	-0.153
Mof_H 	H 	0.696	0.143	0.052	-0.011
Mof_N 	N 	0.7727	0.2405	0.021	-0.199
Mof_C 	C 	0.8348	0.3711	0.9153	0.881
Mof_C 	C 	0.7693	0.2979	0.9207	-0.481
Mof_C 	C 	0.7045	0.2749	0.8288	0.244
Mof_H 	H 	0.6896	0.3049	0.7512	-0.256
Mof_C 	C 	0.6673	0.1984	0.8769	-0.306
Mof_C 	C 	0.6034	0.1352	0.8174	0.427
Mof_Li	Li	0.3094	0.056	0.8617	2.74
Mof_O 	O 	0.37694	0.10968	0.992	-1.215
Mof_O 	O 	0.4237	0.1668	0.1813	-1.262
Mof_O 	O 	0.06454	0.41151	0.1203	-0.883
Mof_O 	O 	0.15521	0.42908	0.294	-0.558
Mof_N 	N 	0.1808	0.2901	0.0067	-0.159
Mof_H 	H 	0.143	0.304	0.948	-0.009
Mof_N 	N 	0.2405	0.2273	0.979	-0.187
Mof_C 	C 	0.3711	0.1652	0.0847	0.817
Mof_C 	C 	0.2979	0.2307	0.0793	-0.458
Mof_C 	C 	0.2749	0.2955	0.1712	0.221
Mof_H 	H 	0.3049	0.3104	0.2488	-0.245
Mof_C 	C 	0.1984	0.3327	0.1231	-0.301
Mof_C 	C 	0.1352	0.3966	0.1826	0.42
Mof_Li	Li	0.6906	0.944	0.8617	3.476
Mof_O 	O 	0.62306	0.89032	0.992	-1.338
Mof_O 	O 	0.5763	0.8332	0.1813	-1.274
Mof_O 	O 	0.93546	0.58849	0.1203	-0.713
Mof_O 	O 	0.84479	0.57092	0.294	-0.519
Mof_N 	N 	0.8192	0.7099	0.0067	-0.154
Mof_H 	H 	0.857	0.696	0.948	0.025
Mof_N 	N 	0.7595	0.7727	0.979	-0.189
Mof_C 	C 	0.6289	0.8348	0.0847	0.892
Mof_C 	C 	0.7021	0.7693	0.0793	-0.476
Mof_C 	C 	0.7251	0.7045	0.1712	0.238
Mof_H 	H 	0.6951	0.6896	0.2488	-0.252
Mof_C 	C 	0.8016	0.6673	0.1231	-0.264
Mof_C 	C 	0.8648	0.6034	0.1826	0.405
Mof_Ba	Ba	0.5	5.50821e-33	0.60891	1.224
Mof_Ba	Ba	3.73133e-33	0.5	0.39109	1.223
Mof_Ba	Ba	-8.78982e-33	0.5	0.89109	1.219
Mof_Ba	Ba	0.5	0	0.10891	1.218
_end
