data_functionalizedCrystal
_audit_creation_method	'EQeq! by Chris Wilmer'
_symmetry_space_group_name_H-M	'P1'
_symmetry_Int_Tables_number	1
_symmetry_cell_setting	triclinic
loop_
_symmetry_equiv_pos_as_xyz
  x,y,z
_cell_length_a	12.825
_cell_length_b	14.903
_cell_length_c	15.963
_cell_angle_alpha	90
_cell_angle_beta	92.847
_cell_angle_gamma	90
loop_
_atom_site_label
_atom_site_type_symbol
_atom_site_fract_x
_atom_site_fract_y
_atom_site_fract_z
_atom_site_charge
Mof_Cu	Cu	0.97122	0.1967	0.10749	0.873
Mof_C 	C 	0.5988	0.3146	0.765	0.097
Mof_H 	H 	0.5724	0.3726	0.7665	-0.004
Mof_C 	C 	0.6674	0.2865	0.8292	-0.143
Mof_H 	H 	0.6849	0.3251	0.8735	0.097
Mof_C 	C 	0.7096	0.2021	0.8279	0.079
Mof_C 	C 	0.68	0.1474	0.7608	-0.149
Mof_H 	H 	0.7062	0.0895	0.7572	0.091
Mof_C 	C 	0.6112	0.1803	0.6999	0.103
Mof_H 	H 	0.5927	0.1433	0.6546	-0.029
Mof_C 	C 	0.783	0.1702	0.8942	0.097
Mof_C 	C 	0.3225	0.2526	0.7313	0.096
Mof_H 	H 	0.3455	0.3066	0.7549	-0.007
Mof_C 	C 	0.2562	0.2012	0.775	-0.152
Mof_H 	H 	0.2347	0.2205	0.8268	0.096
Mof_C 	C 	0.2211	0.1206	0.7423	0.079
Mof_C 	C 	0.254	0.0968	0.664	-0.153
Mof_H 	H 	0.2311	0.0437	0.6386	0.078
Mof_C 	C 	0.3212	0.1532	0.6242	0.093
Mof_H 	H 	0.3432	0.1365	0.5718	-0.022
Mof_C 	C 	0.1555	0.0604	0.79	0.058
Mof_N 	N 	0.5695	0.2616	0.7015	-0.238
Mof_N 	N 	0.8106	0.2184	0.9629	-0.073
Mof_N 	N 	0.8791	0.1661	0.0044	-0.184
Mof_N 	N 	0.8927	0.0915	0.9616	-0.12
Mof_N 	N 	0.8327	0.0924	0.8922	-0.087
Mof_N 	N 	0.3559	0.2299	0.6571	-0.237
Mof_N 	N 	0.1175	0.0845	0.8631	-0.086
Mof_N 	N 	0.0697	0.0121	0.8885	-0.161
Mof_N 	N 	0.0792	0.9456	0.8337	-0.105
Mof_N 	N 	0.1344	0.9752	0.7705	-0.07
Mof_N 	N 	0.0843	0.1261	0.0578	-0.261
Mof_N 	N 	0.1701	0.1378	0.0709	-0.04
Mof_N 	N 	0.256	0.1453	0.0868	-0.087
Mof_Cu	Cu	0.52878	0.6967	0.39251	0.864
Mof_C 	C 	0.9012	0.8146	0.735	0.098
Mof_H 	H 	0.9276	0.8726	0.7335	0.01
Mof_C 	C 	0.8326	0.7865	0.6708	-0.136
Mof_H 	H 	0.8151	0.8251	0.6265	0.096
Mof_C 	C 	0.7904	0.7021	0.6721	0.078
Mof_C 	C 	0.82	0.6474	0.7392	-0.142
Mof_H 	H 	0.7938	0.5895	0.7428	0.098
Mof_C 	C 	0.8888	0.6803	0.8001	0.104
Mof_H 	H 	0.9073	0.6433	0.8454	-0.011
Mof_C 	C 	0.717	0.6702	0.6058	0.096
Mof_C 	C 	0.1775	0.7526	0.7687	0.094
Mof_H 	H 	0.1545	0.8066	0.7451	-0.009
Mof_C 	C 	0.2438	0.7012	0.725	-0.145
Mof_H 	H 	0.2653	0.7205	0.6732	0.093
Mof_C 	C 	0.2789	0.6206	0.7577	0.073
Mof_C 	C 	0.246	0.5968	0.836	-0.144
Mof_H 	H 	0.2689	0.5437	0.8614	0.091
Mof_C 	C 	0.1788	0.6532	0.8758	0.093
Mof_H 	H 	0.1568	0.6365	0.9282	-0.012
Mof_C 	C 	0.3445	0.5604	0.71	0.092
Mof_N 	N 	0.9305	0.7616	0.7985	-0.225
Mof_N 	N 	0.6894	0.7184	0.5371	-0.093
Mof_N 	N 	0.6209	0.6661	0.4956	-0.154
Mof_N 	N 	0.6073	0.5915	0.5384	-0.147
Mof_N 	N 	0.6673	0.5924	0.6078	-0.086
Mof_N 	N 	0.1441	0.7299	0.8429	-0.236
Mof_N 	N 	0.3825	0.5845	0.6369	-0.09
Mof_N 	N 	0.4303	0.5121	0.6115	-0.147
Mof_N 	N 	0.4208	0.4456	0.6663	-0.115
Mof_N 	N 	0.3656	0.4752	0.7295	-0.09
Mof_N 	N 	0.4157	0.6261	0.4422	-0.238
Mof_N 	N 	0.3299	0.6378	0.4291	-0.032
Mof_N 	N 	0.244	0.6453	0.4132	-0.076
Mof_Cu	Cu	0.02878	0.8033	0.89251	0.853
Mof_C 	C 	0.4012	0.6854	0.235	0.092
Mof_H 	H 	0.4276	0.6274	0.2335	-0.008
Mof_C 	C 	0.3326	0.7135	0.1708	-0.143
Mof_H 	H 	0.3151	0.6749	0.1265	0.081
Mof_C 	C 	0.2904	0.7979	0.1721	0.073
Mof_C 	C 	0.32	0.8526	0.2392	-0.148
Mof_H 	H 	0.2938	0.9105	0.2428	0.099
Mof_C 	C 	0.3888	0.8197	0.3001	0.101
Mof_H 	H 	0.4073	0.8567	0.3454	-0.021
Mof_C 	C 	0.217	0.8298	0.1058	0.088
Mof_C 	C 	0.6775	0.7474	0.2687	0.092
Mof_H 	H 	0.6545	0.6934	0.2451	-0.007
Mof_C 	C 	0.7438	0.7988	0.225	-0.136
Mof_H 	H 	0.7653	0.7795	0.1732	0.088
Mof_C 	C 	0.7789	0.8794	0.2577	0.066
Mof_C 	C 	0.746	0.9032	0.336	-0.134
Mof_H 	H 	0.7689	0.9563	0.3614	0.098
Mof_C 	C 	0.6788	0.8468	0.3758	0.093
Mof_H 	H 	0.6568	0.8635	0.4282	-0.01
Mof_C 	C 	0.8445	0.9396	0.21	0.128
Mof_N 	N 	0.4305	0.7384	0.2985	-0.237
Mof_N 	N 	0.1894	0.7816	0.0371	-0.116
Mof_N 	N 	0.1209	0.8339	0.9956	-0.13
Mof_N 	N 	0.1073	0.9085	0.0384	-0.161
Mof_N 	N 	0.1673	0.9076	0.1078	-0.086
Mof_N 	N 	0.6441	0.7701	0.3429	-0.233
Mof_N 	N 	0.8825	0.9155	0.1369	-0.093
Mof_N 	N 	0.9303	0.9879	0.1115	-0.118
Mof_N 	N 	0.9208	0.0544	0.1663	-0.125
Mof_N 	N 	0.8656	0.0248	0.2295	-0.113
Mof_N 	N 	0.9157	0.8739	0.9422	-0.206
Mof_N 	N 	0.8299	0.8622	0.9291	-0.024
Mof_N 	N 	0.744	0.8547	0.9132	-0.054
Mof_Cu	Cu	0.47122	0.3033	0.60749	0.863
Mof_C 	C 	0.0988	0.1854	0.265	0.091
Mof_H 	H 	0.0724	0.1274	0.2665	-0.022
Mof_C 	C 	0.1674	0.2135	0.3292	-0.149
Mof_H 	H 	0.1849	0.1749	0.3735	0.081
Mof_C 	C 	0.2096	0.2979	0.3279	0.073
Mof_C 	C 	0.18	0.3526	0.2608	-0.154
Mof_H 	H 	0.2062	0.4105	0.2572	0.09
Mof_C 	C 	0.1112	0.3197	0.1999	0.099
Mof_H 	H 	0.0927	0.3567	0.1546	-0.038
Mof_C 	C 	0.283	0.3298	0.3942	0.087
Mof_C 	C 	0.8225	0.2474	0.2313	0.094
Mof_H 	H 	0.8455	0.1934	0.2549	-0.005
Mof_C 	C 	0.7562	0.2988	0.275	-0.144
Mof_H 	H 	0.7347	0.2795	0.3268	0.091
Mof_C 	C 	0.7211	0.3794	0.2423	0.071
Mof_C 	C 	0.754	0.4032	0.164	-0.145
Mof_H 	H 	0.7311	0.4563	0.1386	0.084
Mof_C 	C 	0.8212	0.3468	0.1242	0.092
Mof_H 	H 	0.8432	0.3635	0.0718	-0.02
Mof_C 	C 	0.6555	0.4396	0.29	0.092
Mof_N 	N 	0.0695	0.2384	0.2015	-0.25
Mof_N 	N 	0.3106	0.2816	0.4629	-0.099
Mof_N 	N 	0.3791	0.3339	0.5044	-0.156
Mof_N 	N 	0.3927	0.4085	0.4616	-0.149
Mof_N 	N 	0.3327	0.4076	0.3922	-0.089
Mof_N 	N 	0.8559	0.2701	0.1571	-0.234
Mof_N 	N 	0.6175	0.4155	0.3631	-0.091
Mof_N 	N 	0.5697	0.4879	0.3885	-0.147
Mof_N 	N 	0.5792	0.5544	0.3337	-0.115
Mof_N 	N 	0.6344	0.5248	0.2705	-0.091
Mof_N 	N 	0.5843	0.3739	0.5578	-0.238
Mof_N 	N 	0.6701	0.3622	0.5709	-0.032
Mof_N 	N 	0.756	0.3547	0.5868	-0.066
Mof_Cu	Cu	-0	0	-0	0.824
Mof_Cu	Cu	0.5	0.5	0.5	0.872
_end
