data_functionalizedCrystal
_audit_creation_method	'EQeq! by Chris Wilmer'
_symmetry_space_group_name_H-M	'P1'
_symmetry_Int_Tables_number	1
_symmetry_cell_setting	triclinic
loop_
_symmetry_equiv_pos_as_xyz
  x,y,z
_cell_length_a	9.8184
_cell_length_b	9.8184
_cell_length_c	13.2616
_cell_angle_alpha	84.7887
_cell_angle_beta	70.7729
_cell_angle_gamma	115.627
loop_
_atom_site_label
_atom_site_type_symbol
_atom_site_fract_x
_atom_site_fract_y
_atom_site_fract_z
_atom_site_charge
Mof_Yb	Yb	0.26497	0.5388	0.00349	1.743
Mof_Yb	Yb	0.04229	0.26846	0.49651	1.731
Mof_Yb	Yb	0.73503	0.4612	0.99651	1.743
Mof_Yb	Yb	0.95771	0.73154	0.50349	1.731
Mof_H 	H 	0.9921	0.0524	0.1493	0.049
Mof_H 	H 	0.8228	0.7591	0.1793	0.028
Mof_H 	H 	0.7017	0.1414	0.3507	0.048
Mof_H 	H 	0.4384	0.0021	0.3207	0.025
Mof_H 	H 	0.0079	0.9476	0.8507	0.049
Mof_H 	H 	0.1772	0.2409	0.8207	0.028
Mof_H 	H 	0.2983	0.8586	0.6493	0.048
Mof_H 	H 	0.5616	0.9979	0.6793	0.025
Mof_C 	C 	0.8841	0.2339	0.0398	0.444
Mof_C 	C 	0.6893	0.816	0.1095	-0.026
Mof_C 	C 	0.9023	0.0015	0.1312	-0.021
Mof_C 	C 	0.5624	0.6767	0.0961	0.437
Mof_C 	C 	0.8073	0.837	0.1481	-0.024
Mof_C 	C 	0.0683	0.4131	0.265	0.267
Mof_C 	C 	0.8359	0.0691	0.0838	-0.026
Mof_C 	C 	0.7737	0.9239	0.4602	0.429
Mof_C 	C 	0.4255	0.7988	0.3905	-0.029
Mof_C 	C 	0.6327	0.0335	0.3688	-0.028
Mof_C 	C 	0.2728	0.6585	0.4039	0.437
Mof_C 	C 	0.4851	0.9554	0.3519	-0.015
Mof_C 	C 	0.1781	0.3333	0.235	0.271
Mof_C 	C 	0.6529	0.9197	0.4162	-0.029
Mof_C 	C 	0.1159	0.7661	0.9602	0.444
Mof_C 	C 	0.3107	0.184	0.8905	-0.026
Mof_C 	C 	0.0977	0.9985	0.8688	-0.021
Mof_C 	C 	0.4376	0.3233	0.9039	0.437
Mof_C 	C 	0.1927	0.163	0.8519	-0.024
Mof_C 	C 	0.9317	0.5869	0.735	0.267
Mof_C 	C 	0.1641	0.9309	0.9162	-0.026
Mof_C 	C 	0.2263	0.0761	0.5398	0.429
Mof_C 	C 	0.5745	0.2012	0.6095	-0.029
Mof_C 	C 	0.3673	0.9665	0.6312	-0.028
Mof_C 	C 	0.7272	0.3415	0.5961	0.437
Mof_C 	C 	0.5149	0.0446	0.6481	-0.015
Mof_C 	C 	0.8219	0.6667	0.765	0.271
Mof_C 	C 	0.3471	0.0803	0.5838	-0.029
Mof_O 	O 	0.0143	0.3382	0.0403	-0.523
Mof_O 	O 	0.7881	0.2585	0.006	-0.478
Mof_O 	O 	0.0804	0.5034	0.1852	-0.38
Mof_O 	O 	0.5857	0.5606	0.0945	-0.512
Mof_O 	O 	0.7024	0.9573	0.0711	-0.149
Mof_O 	O 	0.4417	0.6821	0.086	-0.435
Mof_O 	O 	0.9758	0.3781	0.3641	-0.386
Mof_O 	O 	0.8785	0.0546	0.4597	-0.51
Mof_O 	O 	0.7645	0.7941	0.494	-0.477
Mof_O 	O 	0.1886	0.2656	0.3148	-0.381
Mof_O 	O 	0.1551	0.6802	0.4055	-0.51
Mof_O 	O 	0.5284	0.7735	0.4289	-0.144
Mof_O 	O 	0.2681	0.5277	0.414	-0.434
Mof_O 	O 	0.2422	0.3399	0.1359	-0.392
Mof_O 	O 	0.9857	0.6618	0.9597	-0.523
Mof_O 	O 	0.2119	0.7415	0.994	-0.478
Mof_O 	O 	0.9196	0.4966	0.8148	-0.38
Mof_O 	O 	0.4143	0.4394	0.9055	-0.512
Mof_O 	O 	0.2976	0.0427	0.9289	-0.149
Mof_O 	O 	0.5583	0.3179	0.914	-0.435
Mof_O 	O 	0.0242	0.6219	0.6359	-0.386
Mof_O 	O 	0.1215	0.9454	0.5403	-0.51
Mof_O 	O 	0.2355	0.2059	0.506	-0.477
Mof_O 	O 	0.8114	0.7344	0.6852	-0.381
Mof_O 	O 	0.8449	0.3198	0.5945	-0.51
Mof_O 	O 	0.4716	0.2265	0.5711	-0.144
Mof_O 	O 	0.7319	0.4723	0.586	-0.434
Mof_O 	O 	0.7578	0.6601	0.8641	-0.392
_end
