data_functionalizedCrystal
_audit_creation_method	'EQeq! by Chris Wilmer'
_symmetry_space_group_name_H-M	'P1'
_symmetry_Int_Tables_number	1
_symmetry_cell_setting	triclinic
loop_
_symmetry_equiv_pos_as_xyz
  x,y,z
_cell_length_a	18.615
_cell_length_b	18.615
_cell_length_c	22.4291
_cell_angle_alpha	114.518
_cell_angle_beta	114.518
_cell_angle_gamma	90
loop_
_atom_site_label
_atom_site_type_symbol
_atom_site_fract_x
_atom_site_fract_y
_atom_site_fract_z
_atom_site_charge
Mof_Cu	Cu	0.50623	0.93975	0.4452	0.909
Mof_Cu	Cu	0.93897	0.50545	0.4452	0.909
Mof_Cu	Cu	0.93975	0.93897	0.4452	0.908
Mof_Cu	Cu	0.50545	0.50623	0.4452	0.911
Mof_Cu	Cu	0.49377	0.06025	0.5548	0.914
Mof_Cu	Cu	0.06103	0.49455	0.5548	0.914
Mof_Cu	Cu	0.06025	0.06103	0.5548	0.914
Mof_Cu	Cu	0.49455	0.49377	0.5548	0.913
Mof_Cu	Cu	0.7124	0.0013	-0	0.831
Mof_Cu	Cu	0.2876	0.9987	-0	0.827
Mof_Cu	Cu	0.0013	0.2876	-0	0.832
Mof_Cu	Cu	0.9987	0.7124	-0	0.825
Mof_H 	H 	0.4931	0.7616	0.5154	0.056
Mof_H 	H 	0.5665	0.7444	0.7118	0.067
Mof_H 	H 	0.5723	0.967	0.7158	0.064
Mof_H 	H 	0.4561	0.8202	0.7576	0.052
Mof_H 	H 	0.7197	0.9337	0.7582	0.056
Mof_H 	H 	0.4204	0.8397	0.8598	0.083
Mof_H 	H 	0.8593	0.0211	0.8528	0.079
Mof_H 	H 	0.0223	0.7538	0.5154	0.057
Mof_H 	H 	0.1453	0.9674	0.7118	0.066
Mof_H 	H 	0.1435	0.7488	0.7158	0.065
Mof_H 	H 	0.3015	0.9374	0.7576	0.053
Mof_H 	H 	0.0385	0.8245	0.7582	0.056
Mof_H 	H 	0.4394	0.0201	0.8598	0.082
Mof_H 	H 	0.9935	0.8317	0.8528	0.075
Mof_H 	H 	0.7616	0.0223	0.5154	0.057
Mof_H 	H 	0.7444	0.1453	0.7118	0.067
Mof_H 	H 	0.967	0.1435	0.7158	0.064
Mof_H 	H 	0.8202	0.3015	0.7576	0.052
Mof_H 	H 	0.9337	0.0385	0.7582	0.056
Mof_H 	H 	0.8397	0.4394	0.8598	0.083
Mof_H 	H 	0.0211	0.9935	0.8528	0.077
Mof_H 	H 	0.7538	0.4931	0.5154	0.056
Mof_H 	H 	0.9674	0.5665	0.7118	0.066
Mof_H 	H 	0.7488	0.5723	0.7158	0.065
Mof_H 	H 	0.9374	0.4561	0.7576	0.053
Mof_H 	H 	0.8245	0.7197	0.7582	0.054
Mof_H 	H 	0.0201	0.4204	0.8598	0.082
Mof_H 	H 	0.8317	0.8593	0.8528	0.081
Mof_H 	H 	0.5069	0.2384	0.4846	0.057
Mof_H 	H 	0.4335	0.2556	0.2882	0.063
Mof_H 	H 	0.4277	0.033	0.2842	0.062
Mof_H 	H 	0.5439	0.1798	0.2424	0.054
Mof_H 	H 	0.2803	0.0663	0.2418	0.055
Mof_H 	H 	0.5796	0.1603	0.1402	0.067
Mof_H 	H 	0.1407	0.9789	0.1472	0.073
Mof_H 	H 	0.9777	0.2462	0.4846	0.056
Mof_H 	H 	0.8547	0.0326	0.2882	0.064
Mof_H 	H 	0.8565	0.2512	0.2842	0.061
Mof_H 	H 	0.6985	0.0626	0.2424	0.051
Mof_H 	H 	0.9615	0.1755	0.2418	0.054
Mof_H 	H 	0.5606	0.9799	0.1402	0.068
Mof_H 	H 	0.0065	0.1683	0.1472	0.077
Mof_H 	H 	0.2384	0.9777	0.4846	0.056
Mof_H 	H 	0.2556	0.8547	0.2882	0.063
Mof_H 	H 	0.033	0.8565	0.2842	0.062
Mof_H 	H 	0.1798	0.6985	0.2424	0.053
Mof_H 	H 	0.0663	0.9615	0.2418	0.05
Mof_H 	H 	0.1603	0.5606	0.1402	0.067
Mof_H 	H 	0.9789	0.0065	0.1472	0.083
Mof_H 	H 	0.2462	0.5069	0.4846	0.057
Mof_H 	H 	0.0326	0.4335	0.2882	0.064
Mof_H 	H 	0.2512	0.4277	0.2842	0.061
Mof_H 	H 	0.0626	0.5439	0.2424	0.051
Mof_H 	H 	0.1755	0.2803	0.2418	0.057
Mof_H 	H 	0.9799	0.5796	0.1402	0.067
Mof_H 	H 	0.1683	0.1407	0.1472	0.071
Mof_H 	H 	0.4987	0.9078	-0	0.113
Mof_H 	H 	0.9436	0.0802	-0	0.107
Mof_H 	H 	0.5013	0.0922	-0	0.112
Mof_H 	H 	0.0564	0.9198	-0	0.109
Mof_H 	H 	0.9078	0.5013	-0	0.112
Mof_H 	H 	0.0802	0.0564	-0	0.108
Mof_H 	H 	0.0922	0.4987	-0	0.113
Mof_H 	H 	0.9198	0.9436	-0	0.107
Mof_C 	C 	0.5172	0.922	0.5744	0.327
Mof_C 	C 	0.5127	0.6546	0.5758	0.297
Mof_C 	C 	0.5312	0.8686	0.6104	-0.059
Mof_C 	C 	0.5134	0.7866	0.5674	0.003
Mof_C 	C 	0.5284	0.7437	0.6086	-0.054
Mof_C 	C 	0.5585	0.7769	0.6872	-0.068
Mof_C 	C 	0.5747	0.8619	0.724	0.056
Mof_C 	C 	0.5617	0.9097	0.6892	-0.063
Mof_C 	C 	0.6132	0.9027	0.8068	-0.095
Mof_C 	C 	0.6919	0.9466	0.8446	0.069
Mof_C 	C 	0.5689	0.8946	0.843	0.073
Mof_C 	C 	0.4898	0.8507	0.809	-0.045
Mof_C 	C 	0.7391	0.9568	0.81	-0.057
Mof_C 	C 	0.8211	0.0247	0.9324	0.171
Mof_C 	C 	0.542	0.9091	0.9316	0.229
Mof_C 	C 	0.4702	0.8605	0.8646	-0.143
Mof_C 	C 	0.8182	0.0053	0.8622	-0.118
Mof_C 	C 	0.0572	0.6524	0.5744	0.332
Mof_C 	C 	0.0631	0.9212	0.5758	0.302
Mof_C 	C 	0.0792	0.7418	0.6104	-0.06
Mof_C 	C 	0.054	0.7808	0.5674	0.005
Mof_C 	C 	0.0802	0.8649	0.6086	-0.055
Mof_C 	C 	0.1287	0.9103	0.6872	-0.067
Mof_C 	C 	0.1493	0.8621	0.724	0.056
Mof_C 	C 	0.1275	0.7795	0.6892	-0.063
Mof_C 	C 	0.1936	0.9041	0.8068	-0.096
Mof_C 	C 	0.1527	0.898	0.8446	0.07
Mof_C 	C 	0.2741	0.9484	0.843	0.074
Mof_C 	C 	0.3192	0.9583	0.809	-0.05
Mof_C 	C 	0.0709	0.8532	0.81	-0.055
Mof_C 	C 	0.1113	0.9077	0.9324	0.168
Mof_C 	C 	0.3896	0.0225	0.9316	0.224
Mof_C 	C 	0.3944	0.0041	0.8646	-0.137
Mof_C 	C 	0.044	0.8569	0.8622	-0.115
Mof_C 	C 	0.922	0.0572	0.5744	0.333
Mof_C 	C 	0.6546	0.0631	0.5758	0.301
Mof_C 	C 	0.8686	0.0792	0.6104	-0.06
Mof_C 	C 	0.7866	0.054	0.5674	0.005
Mof_C 	C 	0.7437	0.0802	0.6086	-0.055
Mof_C 	C 	0.7769	0.1287	0.6872	-0.067
Mof_C 	C 	0.8619	0.1493	0.724	0.056
Mof_C 	C 	0.9097	0.1275	0.6892	-0.062
Mof_C 	C 	0.9027	0.1936	0.8068	-0.095
Mof_C 	C 	0.9466	0.1527	0.8446	0.069
Mof_C 	C 	0.8946	0.2741	0.843	0.073
Mof_C 	C 	0.8507	0.3192	0.809	-0.045
Mof_C 	C 	0.9568	0.0709	0.81	-0.056
Mof_C 	C 	0.0247	0.1113	0.9324	0.165
Mof_C 	C 	0.9091	0.3896	0.9316	0.228
Mof_C 	C 	0.8605	0.3944	0.8646	-0.143
Mof_C 	C 	0.0053	0.044	0.8622	-0.116
Mof_C 	C 	0.6524	0.5172	0.5744	0.327
Mof_C 	C 	0.9212	0.5127	0.5758	0.297
Mof_C 	C 	0.7418	0.5312	0.6104	-0.059
Mof_C 	C 	0.7808	0.5134	0.5674	0.003
Mof_C 	C 	0.8649	0.5284	0.6086	-0.054
Mof_C 	C 	0.9103	0.5585	0.6872	-0.068
Mof_C 	C 	0.8621	0.5747	0.724	0.056
Mof_C 	C 	0.7795	0.5617	0.6892	-0.063
Mof_C 	C 	0.9041	0.6132	0.8068	-0.095
Mof_C 	C 	0.898	0.6919	0.8446	0.068
Mof_C 	C 	0.9484	0.5689	0.843	0.074
Mof_C 	C 	0.9583	0.4898	0.809	-0.05
Mof_C 	C 	0.8532	0.7391	0.81	-0.051
Mof_C 	C 	0.9077	0.8211	0.9324	0.175
Mof_C 	C 	0.0225	0.542	0.9316	0.225
Mof_C 	C 	0.0041	0.4702	0.8646	-0.137
Mof_C 	C 	0.8569	0.8182	0.8622	-0.125
Mof_C 	C 	0.4828	0.078	0.4256	0.327
Mof_C 	C 	0.4873	0.3454	0.4242	0.297
Mof_C 	C 	0.4688	0.1314	0.3896	-0.059
Mof_C 	C 	0.4866	0.2134	0.4326	0.003
Mof_C 	C 	0.4716	0.2563	0.3914	-0.054
Mof_C 	C 	0.4415	0.2231	0.3128	-0.067
Mof_C 	C 	0.4253	0.1381	0.276	0.056
Mof_C 	C 	0.4383	0.0903	0.3108	-0.063
Mof_C 	C 	0.3868	0.0973	0.1932	-0.1
Mof_C 	C 	0.3081	0.0534	0.1554	0.064
Mof_C 	C 	0.4311	0.1054	0.157	0.072
Mof_C 	C 	0.5102	0.1493	0.191	-0.056
Mof_C 	C 	0.2609	0.0432	0.19	-0.052
Mof_C 	C 	0.1789	0.9753	0.0676	0.117
Mof_C 	C 	0.458	0.0909	0.0684	0.174
Mof_C 	C 	0.5298	0.1395	0.1354	-0.127
Mof_C 	C 	0.1818	0.9947	0.1378	-0.117
Mof_C 	C 	0.9428	0.3476	0.4256	0.323
Mof_C 	C 	0.9369	0.0788	0.4242	0.295
Mof_C 	C 	0.9208	0.2582	0.3896	-0.058
Mof_C 	C 	0.946	0.2192	0.4326	0.002
Mof_C 	C 	0.9198	0.1351	0.3914	-0.054
Mof_C 	C 	0.8713	0.0897	0.3128	-0.068
Mof_C 	C 	0.8507	0.1379	0.276	0.056
Mof_C 	C 	0.8725	0.2205	0.3108	-0.063
Mof_C 	C 	0.8064	0.0959	0.1932	-0.099
Mof_C 	C 	0.8473	0.102	0.1554	0.063
Mof_C 	C 	0.7259	0.0516	0.157	0.068
Mof_C 	C 	0.6808	0.0417	0.191	-0.045
Mof_C 	C 	0.9291	0.1468	0.19	-0.055
Mof_C 	C 	0.8887	0.0923	0.0676	0.123
Mof_C 	C 	0.6104	0.9775	0.0684	0.171
Mof_C 	C 	0.6056	0.9959	0.1354	-0.138
Mof_C 	C 	0.956	0.1431	0.1378	-0.121
Mof_C 	C 	0.078	0.9428	0.4256	0.324
Mof_C 	C 	0.3454	0.9369	0.4242	0.294
Mof_C 	C 	0.1314	0.9208	0.3896	-0.058
Mof_C 	C 	0.2134	0.946	0.4326	0.002
Mof_C 	C 	0.2563	0.9198	0.3914	-0.054
Mof_C 	C 	0.2231	0.8713	0.3128	-0.067
Mof_C 	C 	0.1381	0.8507	0.276	0.055
Mof_C 	C 	0.0903	0.8725	0.3108	-0.063
Mof_C 	C 	0.0973	0.8064	0.1932	-0.098
Mof_C 	C 	0.0534	0.8473	0.1554	0.06
Mof_C 	C 	0.1054	0.7259	0.157	0.071
Mof_C 	C 	0.1493	0.6808	0.191	-0.056
Mof_C 	C 	0.0432	0.9291	0.19	-0.041
Mof_C 	C 	0.9753	0.8887	0.0676	0.121
Mof_C 	C 	0.0909	0.6104	0.0684	0.174
Mof_C 	C 	0.1395	0.6056	0.1354	-0.127
Mof_C 	C 	0.9947	0.956	0.1378	-0.137
Mof_C 	C 	0.3476	0.4828	0.4256	0.327
Mof_C 	C 	0.0788	0.4873	0.4242	0.297
Mof_C 	C 	0.2582	0.4688	0.3896	-0.059
Mof_C 	C 	0.2192	0.4866	0.4326	0.003
Mof_C 	C 	0.1351	0.4716	0.3914	-0.054
Mof_C 	C 	0.0897	0.4415	0.3128	-0.067
Mof_C 	C 	0.1379	0.4253	0.276	0.056
Mof_C 	C 	0.2205	0.4383	0.3108	-0.063
Mof_C 	C 	0.0959	0.3868	0.1932	-0.099
Mof_C 	C 	0.102	0.3081	0.1554	0.065
Mof_C 	C 	0.0516	0.4311	0.157	0.069
Mof_C 	C 	0.0417	0.5102	0.191	-0.046
Mof_C 	C 	0.1468	0.2609	0.19	-0.059
Mof_C 	C 	0.0923	0.1789	0.0676	0.119
Mof_C 	C 	0.9775	0.458	0.0684	0.171
Mof_C 	C 	0.9959	0.5298	0.1354	-0.138
Mof_C 	C 	0.1431	0.1818	0.1378	-0.11
Mof_C 	C 	0.5451	0.929	-0	-0.333
Mof_C 	C 	0.894	0.0681	-0	-0.277
Mof_C 	C 	0.4549	0.071	-0	-0.323
Mof_C 	C 	0.106	0.9319	-0	-0.276
Mof_C 	C 	0.929	0.4549	-0	-0.331
Mof_C 	C 	0.0681	0.106	-0	-0.27
Mof_C 	C 	0.071	0.5451	-0	-0.324
Mof_C 	C 	0.9319	0.894	-0	-0.286
Mof_N 	N 	0.6003	0.9284	0.92	-0.25
Mof_N 	N 	0.7456	0.9909	0.9206	-0.233
Mof_N 	N 	0.3197	0.9916	0.92	-0.249
Mof_N 	N 	0.175	0.9297	0.9206	-0.231
Mof_N 	N 	0.9284	0.3197	0.92	-0.25
Mof_N 	N 	0.9909	0.175	0.9206	-0.232
Mof_N 	N 	0.9916	0.6003	0.92	-0.249
Mof_N 	N 	0.9297	0.7456	0.9206	-0.231
Mof_N 	N 	0.3997	0.0716	0.08	-0.259
Mof_N 	N 	0.2544	0.0091	0.0794	-0.241
Mof_N 	N 	0.6803	0.0084	0.08	-0.257
Mof_N 	N 	0.825	0.0703	0.0794	-0.244
Mof_N 	N 	0.0716	0.6803	0.08	-0.259
Mof_N 	N 	0.0091	0.825	0.0794	-0.241
Mof_N 	N 	0.0084	0.3997	0.08	-0.257
Mof_N 	N 	0.0703	0.2544	0.0794	-0.244
Mof_O 	O 	0.5117	0.8843	0.5072	-0.376
Mof_O 	O 	0.5046	0.9909	0.5996	-0.406
Mof_O 	O 	0.5104	0.6048	0.5988	-0.41
Mof_O 	O 	0.5168	0.6197	0.5072	-0.362
Mof_O 	O 	0.9955	0.6229	0.5072	-0.38
Mof_O 	O 	0.095	0.6087	0.5996	-0.405
Mof_O 	O 	0.0884	0.994	0.5988	-0.412
Mof_O 	O 	0.9904	0.8875	0.5072	-0.368
Mof_O 	O 	0.8843	0.9955	0.5072	-0.381
Mof_O 	O 	0.9909	0.095	0.5996	-0.407
Mof_O 	O 	0.6048	0.0884	0.5988	-0.41
Mof_O 	O 	0.6197	0.9904	0.5072	-0.367
Mof_O 	O 	0.6229	0.5117	0.5072	-0.375
Mof_O 	O 	0.6087	0.5046	0.5996	-0.404
Mof_O 	O 	0.994	0.5104	0.5988	-0.412
Mof_O 	O 	0.8875	0.5168	0.5072	-0.363
Mof_O 	O 	0.4883	0.1157	0.4928	-0.373
Mof_O 	O 	0.4954	0.0091	0.4004	-0.405
Mof_O 	O 	0.4896	0.3952	0.4012	-0.412
Mof_O 	O 	0.4832	0.3803	0.4928	-0.361
Mof_O 	O 	0.0045	0.3771	0.4928	-0.369
Mof_O 	O 	0.905	0.3913	0.4004	-0.407
Mof_O 	O 	0.9116	0.006	0.4012	-0.41
Mof_O 	O 	0.0096	0.1125	0.4928	-0.357
Mof_O 	O 	0.1157	0.0045	0.4928	-0.37
Mof_O 	O 	0.0091	0.905	0.4004	-0.404
Mof_O 	O 	0.3952	0.9116	0.4012	-0.413
Mof_O 	O 	0.3803	0.0096	0.4928	-0.357
Mof_O 	O 	0.3771	0.4883	0.4928	-0.373
Mof_O 	O 	0.3913	0.4954	0.4004	-0.407
Mof_O 	O 	0.006	0.4896	0.4012	-0.41
Mof_O 	O 	0.1125	0.4832	0.4928	-0.36
_end
