data_functionalizedCrystal
_audit_creation_method	'EQeq! by Chris Wilmer'
_symmetry_space_group_name_H-M	'P1'
_symmetry_Int_Tables_number	1
_symmetry_cell_setting	triclinic
loop_
_symmetry_equiv_pos_as_xyz
  x,y,z
_cell_length_a	22.457
_cell_length_b	22.457
_cell_length_c	22.457
_cell_angle_alpha	90
_cell_angle_beta	90
_cell_angle_gamma	90
loop_
_atom_site_label
_atom_site_type_symbol
_atom_site_fract_x
_atom_site_fract_y
_atom_site_fract_z
_atom_site_charge
Mof_In	In	0.67769	0.73929	0.80642	2.822
Mof_C 	C 	0.8051	0.72	0.1015	0.584
Mof_C 	C 	0.7949	0.7053	0.8771	0.588
Mof_C 	C 	0.8285	0.7064	0.9346	-0.197
Mof_C 	C 	0.8949	0.7057	0.039	0.029
Mof_H 	H 	0.9178	0.7053	0.0746	0.046
Mof_C 	C 	0.8005	0.7143	0.989	0.125
Mof_H 	H 	0.7587	0.7205	0.9907	0.013
Mof_C 	C 	0.8341	0.7131	0.0415	-0.193
Mof_C 	C 	0.9227	0.6987	0.9843	0.028
Mof_C 	C 	0.8896	0.6986	0.9318	0.028
Mof_H 	H 	0.9087	0.6931	0.8944	0.045
Mof_O 	O 	0.6071	0.7388	0.872	-0.452
Mof_N 	N 	0.9862	0.6957	0.9771	-0.075
Mof_O 	O 	0.7407	0.7205	0.87857	-0.705
Mof_O 	O 	0.8245	0.69	0.83225	-0.738
Mof_O 	O 	0.8372	0.7061	0.14586	-0.734
Mof_O 	O 	0.75246	0.7387	0.1033	-0.704
Mof_Cl	Cl	0.6044	0.7372	0.8878	-0.01
Mof_In	In	0.32231	0.26071	0.80642	2.822
Mof_C 	C 	0.1949	0.28	0.1015	0.584
Mof_C 	C 	0.2051	0.2947	0.8771	0.588
Mof_C 	C 	0.1715	0.2936	0.9346	-0.197
Mof_C 	C 	0.1051	0.2943	0.039	0.029
Mof_H 	H 	0.0822	0.2947	0.0746	0.046
Mof_C 	C 	0.1995	0.2857	0.989	0.125
Mof_H 	H 	0.2413	0.2795	0.9907	0.013
Mof_C 	C 	0.1659	0.2869	0.0415	-0.193
Mof_C 	C 	0.0773	0.3013	0.9843	0.027
Mof_C 	C 	0.1104	0.3014	0.9318	0.027
Mof_H 	H 	0.0913	0.3069	0.8944	0.044
Mof_O 	O 	0.3929	0.2612	0.872	-0.453
Mof_N 	N 	0.0138	0.3043	0.9771	-0.076
Mof_O 	O 	0.2593	0.2795	0.87857	-0.706
Mof_O 	O 	0.1755	0.31	0.83225	-0.739
Mof_O 	O 	0.1628	0.2939	0.14586	-0.735
Mof_O 	O 	0.24754	0.2613	0.1033	-0.705
Mof_Cl	Cl	0.3956	0.2628	0.8878	-0.011
Mof_In	In	0.32231	0.73929	0.19358	2.821
Mof_C 	C 	0.1949	0.72	0.8985	0.583
Mof_C 	C 	0.2051	0.7053	0.1229	0.587
Mof_C 	C 	0.1715	0.7064	0.0654	-0.198
Mof_C 	C 	0.1051	0.7057	0.961	0.028
Mof_H 	H 	0.0822	0.7053	0.9254	0.045
Mof_C 	C 	0.1995	0.7143	0.011	0.124
Mof_H 	H 	0.2413	0.7205	0.0093	0.012
Mof_C 	C 	0.1659	0.7131	0.9585	-0.194
Mof_C 	C 	0.0773	0.6987	0.0157	0.027
Mof_C 	C 	0.1104	0.6986	0.0682	0.027
Mof_H 	H 	0.0913	0.6931	0.1056	0.044
Mof_O 	O 	0.3929	0.7388	0.128	-0.453
Mof_N 	N 	0.0138	0.6957	0.0229	-0.076
Mof_O 	O 	0.2593	0.7205	0.12143	-0.706
Mof_O 	O 	0.1755	0.69	0.16775	-0.739
Mof_O 	O 	0.1628	0.7061	0.85414	-0.735
Mof_O 	O 	0.24754	0.7387	0.8967	-0.705
Mof_Cl	Cl	0.3956	0.7372	0.1122	-0.011
Mof_In	In	0.67769	0.26071	0.19358	2.821
Mof_C 	C 	0.8051	0.28	0.8985	0.583
Mof_C 	C 	0.7949	0.2947	0.1229	0.587
Mof_C 	C 	0.8285	0.2936	0.0654	-0.198
Mof_C 	C 	0.8949	0.2943	0.961	0.028
Mof_H 	H 	0.9178	0.2947	0.9254	0.045
Mof_C 	C 	0.8005	0.2857	0.011	0.124
Mof_H 	H 	0.7587	0.2795	0.0093	0.012
Mof_C 	C 	0.8341	0.2869	0.9585	-0.194
Mof_C 	C 	0.9227	0.3013	0.0157	0.027
Mof_C 	C 	0.8896	0.3014	0.0682	0.027
Mof_H 	H 	0.9087	0.3069	0.1056	0.044
Mof_O 	O 	0.6071	0.2612	0.128	-0.453
Mof_N 	N 	0.9862	0.3043	0.0229	-0.076
Mof_O 	O 	0.7407	0.2795	0.12143	-0.706
Mof_O 	O 	0.8245	0.31	0.16775	-0.739
Mof_O 	O 	0.8372	0.2939	0.85414	-0.735
Mof_O 	O 	0.75246	0.2613	0.8967	-0.705
Mof_Cl	Cl	0.6044	0.2628	0.1122	-0.011
Mof_In	In	0.80642	0.67769	0.73929	2.821
Mof_C 	C 	0.1015	0.8051	0.72	0.583
Mof_C 	C 	0.8771	0.7949	0.7053	0.587
Mof_C 	C 	0.9346	0.8285	0.7064	-0.198
Mof_C 	C 	0.039	0.8949	0.7057	0.028
Mof_H 	H 	0.0746	0.9178	0.7053	0.045
Mof_C 	C 	0.989	0.8005	0.7143	0.124
Mof_H 	H 	0.9907	0.7587	0.7205	0.012
Mof_C 	C 	0.0415	0.8341	0.7131	-0.194
Mof_C 	C 	0.9843	0.9227	0.6987	0.027
Mof_C 	C 	0.9318	0.8896	0.6986	0.027
Mof_H 	H 	0.8944	0.9087	0.6931	0.044
Mof_O 	O 	0.872	0.6071	0.7388	-0.453
Mof_N 	N 	0.9771	0.9862	0.6957	-0.076
Mof_O 	O 	0.87857	0.7407	0.7205	-0.706
Mof_O 	O 	0.83225	0.8245	0.69	-0.739
Mof_O 	O 	0.14586	0.8372	0.7061	-0.735
Mof_O 	O 	0.1033	0.75246	0.7387	-0.705
Mof_Cl	Cl	0.8878	0.6044	0.7372	-0.011
Mof_In	In	0.80642	0.32231	0.26071	2.821
Mof_C 	C 	0.1015	0.1949	0.28	0.583
Mof_C 	C 	0.8771	0.2051	0.2947	0.587
Mof_C 	C 	0.9346	0.1715	0.2936	-0.198
Mof_C 	C 	0.039	0.1051	0.2943	0.028
Mof_H 	H 	0.0746	0.0822	0.2947	0.045
Mof_C 	C 	0.989	0.1995	0.2857	0.124
Mof_H 	H 	0.9907	0.2413	0.2795	0.012
Mof_C 	C 	0.0415	0.1659	0.2869	-0.194
Mof_C 	C 	0.9843	0.0773	0.3013	0.027
Mof_C 	C 	0.9318	0.1104	0.3014	0.027
Mof_H 	H 	0.8944	0.0913	0.3069	0.044
Mof_O 	O 	0.872	0.3929	0.2612	-0.453
Mof_N 	N 	0.9771	0.0138	0.3043	-0.076
Mof_O 	O 	0.87857	0.2593	0.2795	-0.706
Mof_O 	O 	0.83225	0.1755	0.31	-0.739
Mof_O 	O 	0.14586	0.1628	0.2939	-0.735
Mof_O 	O 	0.1033	0.24754	0.2613	-0.705
Mof_Cl	Cl	0.8878	0.3956	0.2628	-0.011
Mof_In	In	0.19358	0.32231	0.73929	2.821
Mof_C 	C 	0.8985	0.1949	0.72	0.583
Mof_C 	C 	0.1229	0.2051	0.7053	0.587
Mof_C 	C 	0.0654	0.1715	0.7064	-0.198
Mof_C 	C 	0.961	0.1051	0.7057	0.028
Mof_H 	H 	0.9254	0.0822	0.7053	0.045
Mof_C 	C 	0.011	0.1995	0.7143	0.124
Mof_H 	H 	0.0093	0.2413	0.7205	0.012
Mof_C 	C 	0.9585	0.1659	0.7131	-0.194
Mof_C 	C 	0.0157	0.0773	0.6987	0.027
Mof_C 	C 	0.0682	0.1104	0.6986	0.027
Mof_H 	H 	0.1056	0.0913	0.6931	0.044
Mof_O 	O 	0.128	0.3929	0.7388	-0.453
Mof_N 	N 	0.0229	0.0138	0.6957	-0.076
Mof_O 	O 	0.12143	0.2593	0.7205	-0.706
Mof_O 	O 	0.16775	0.1755	0.69	-0.739
Mof_O 	O 	0.85414	0.1628	0.7061	-0.735
Mof_O 	O 	0.8967	0.24754	0.7387	-0.705
Mof_Cl	Cl	0.1122	0.3956	0.7372	-0.011
Mof_In	In	0.19358	0.67769	0.26071	2.821
Mof_C 	C 	0.8985	0.8051	0.28	0.583
Mof_C 	C 	0.1229	0.7949	0.2947	0.587
Mof_C 	C 	0.0654	0.8285	0.2936	-0.198
Mof_C 	C 	0.961	0.8949	0.2943	0.028
Mof_H 	H 	0.9254	0.9178	0.2947	0.045
Mof_C 	C 	0.011	0.8005	0.2857	0.124
Mof_H 	H 	0.0093	0.7587	0.2795	0.012
Mof_C 	C 	0.9585	0.8341	0.2869	-0.194
Mof_C 	C 	0.0157	0.9227	0.3013	0.027
Mof_C 	C 	0.0682	0.8896	0.3014	0.027
Mof_H 	H 	0.1056	0.9087	0.3069	0.044
Mof_O 	O 	0.128	0.6071	0.2612	-0.453
Mof_N 	N 	0.0229	0.9862	0.3043	-0.076
Mof_O 	O 	0.12143	0.7407	0.2795	-0.706
Mof_O 	O 	0.16775	0.8245	0.31	-0.739
Mof_O 	O 	0.85414	0.8372	0.2939	-0.735
Mof_O 	O 	0.8967	0.75246	0.2613	-0.705
Mof_Cl	Cl	0.1122	0.6044	0.2628	-0.011
Mof_In	In	0.73929	0.80642	0.67769	2.821
Mof_C 	C 	0.72	0.1015	0.8051	0.583
Mof_C 	C 	0.7053	0.8771	0.7949	0.587
Mof_C 	C 	0.7064	0.9346	0.8285	-0.198
Mof_C 	C 	0.7057	0.039	0.8949	0.028
Mof_H 	H 	0.7053	0.0746	0.9178	0.045
Mof_C 	C 	0.7143	0.989	0.8005	0.124
Mof_H 	H 	0.7205	0.9907	0.7587	0.012
Mof_C 	C 	0.7131	0.0415	0.8341	-0.194
Mof_C 	C 	0.6987	0.9843	0.9227	0.027
Mof_C 	C 	0.6986	0.9318	0.8896	0.027
Mof_H 	H 	0.6931	0.8944	0.9087	0.044
Mof_O 	O 	0.7388	0.872	0.6071	-0.453
Mof_N 	N 	0.6957	0.9771	0.9862	-0.076
Mof_O 	O 	0.7205	0.87857	0.7407	-0.706
Mof_O 	O 	0.69	0.83225	0.8245	-0.739
Mof_O 	O 	0.7061	0.14586	0.8372	-0.735
Mof_O 	O 	0.7387	0.1033	0.75246	-0.705
Mof_Cl	Cl	0.7372	0.8878	0.6044	-0.011
Mof_In	In	0.26071	0.80642	0.32231	2.821
Mof_C 	C 	0.28	0.1015	0.1949	0.583
Mof_C 	C 	0.2947	0.8771	0.2051	0.587
Mof_C 	C 	0.2936	0.9346	0.1715	-0.198
Mof_C 	C 	0.2943	0.039	0.1051	0.028
Mof_H 	H 	0.2947	0.0746	0.0822	0.045
Mof_C 	C 	0.2857	0.989	0.1995	0.124
Mof_H 	H 	0.2795	0.9907	0.2413	0.012
Mof_C 	C 	0.2869	0.0415	0.1659	-0.194
Mof_C 	C 	0.3013	0.9843	0.0773	0.027
Mof_C 	C 	0.3014	0.9318	0.1104	0.027
Mof_H 	H 	0.3069	0.8944	0.0913	0.044
Mof_O 	O 	0.2612	0.872	0.3929	-0.453
Mof_N 	N 	0.3043	0.9771	0.0138	-0.076
Mof_O 	O 	0.2795	0.87857	0.2593	-0.706
Mof_O 	O 	0.31	0.83225	0.1755	-0.739
Mof_O 	O 	0.2939	0.14586	0.1628	-0.735
Mof_O 	O 	0.2613	0.1033	0.24754	-0.705
Mof_Cl	Cl	0.2628	0.8878	0.3956	-0.011
Mof_In	In	0.73929	0.19358	0.32231	2.821
Mof_C 	C 	0.72	0.8985	0.1949	0.583
Mof_C 	C 	0.7053	0.1229	0.2051	0.587
Mof_C 	C 	0.7064	0.0654	0.1715	-0.198
Mof_C 	C 	0.7057	0.961	0.1051	0.028
Mof_H 	H 	0.7053	0.9254	0.0822	0.045
Mof_C 	C 	0.7143	0.011	0.1995	0.124
Mof_H 	H 	0.7205	0.0093	0.2413	0.012
Mof_C 	C 	0.7131	0.9585	0.1659	-0.194
Mof_C 	C 	0.6987	0.0157	0.0773	0.027
Mof_C 	C 	0.6986	0.0682	0.1104	0.027
Mof_H 	H 	0.6931	0.1056	0.0913	0.044
Mof_O 	O 	0.7388	0.128	0.3929	-0.453
Mof_N 	N 	0.6957	0.0229	0.0138	-0.076
Mof_O 	O 	0.7205	0.12143	0.2593	-0.706
Mof_O 	O 	0.69	0.16775	0.1755	-0.739
Mof_O 	O 	0.7061	0.85414	0.1628	-0.735
Mof_O 	O 	0.7387	0.8967	0.24754	-0.705
Mof_Cl	Cl	0.7372	0.1122	0.3956	-0.011
Mof_In	In	0.26071	0.19358	0.67769	2.821
Mof_C 	C 	0.28	0.8985	0.8051	0.583
Mof_C 	C 	0.2947	0.1229	0.7949	0.587
Mof_C 	C 	0.2936	0.0654	0.8285	-0.198
Mof_C 	C 	0.2943	0.961	0.8949	0.028
Mof_H 	H 	0.2947	0.9254	0.9178	0.045
Mof_C 	C 	0.2857	0.011	0.8005	0.124
Mof_H 	H 	0.2795	0.0093	0.7587	0.012
Mof_C 	C 	0.2869	0.9585	0.8341	-0.194
Mof_C 	C 	0.3013	0.0157	0.9227	0.027
Mof_C 	C 	0.3014	0.0682	0.8896	0.027
Mof_H 	H 	0.3069	0.1056	0.9087	0.044
Mof_O 	O 	0.2612	0.128	0.6071	-0.453
Mof_N 	N 	0.3043	0.0229	0.9862	-0.076
Mof_O 	O 	0.2795	0.12143	0.7407	-0.706
Mof_O 	O 	0.31	0.16775	0.8245	-0.739
Mof_O 	O 	0.2939	0.85414	0.8372	-0.735
Mof_O 	O 	0.2613	0.8967	0.75246	-0.705
Mof_Cl	Cl	0.2628	0.1122	0.6044	-0.011
Mof_In	In	0.23929	0.17769	0.30642	2.821
Mof_C 	C 	0.22	0.3051	0.6015	0.583
Mof_C 	C 	0.2053	0.2949	0.3771	0.587
Mof_C 	C 	0.2064	0.3285	0.4346	-0.198
Mof_C 	C 	0.2057	0.3949	0.539	0.028
Mof_H 	H 	0.2053	0.4178	0.5746	0.045
Mof_C 	C 	0.2143	0.3005	0.489	0.124
Mof_H 	H 	0.2205	0.2587	0.4907	0.012
Mof_C 	C 	0.2131	0.3341	0.5415	-0.194
Mof_C 	C 	0.1987	0.4227	0.4843	0.027
Mof_C 	C 	0.1986	0.3896	0.4318	0.027
Mof_H 	H 	0.1931	0.4087	0.3944	0.044
Mof_O 	O 	0.2388	0.1071	0.372	-0.453
Mof_N 	N 	0.1957	0.4862	0.4771	-0.075
Mof_O 	O 	0.2205	0.2407	0.37857	-0.706
Mof_O 	O 	0.19	0.3245	0.33225	-0.739
Mof_O 	O 	0.2061	0.3372	0.64586	-0.735
Mof_O 	O 	0.2387	0.25246	0.6033	-0.705
Mof_Cl	Cl	0.2372	0.1044	0.3878	-0.011
Mof_In	In	0.76071	0.82231	0.30642	2.821
Mof_C 	C 	0.78	0.6949	0.6015	0.583
Mof_C 	C 	0.7947	0.7051	0.3771	0.587
Mof_C 	C 	0.7936	0.6715	0.4346	-0.198
Mof_C 	C 	0.7943	0.6051	0.539	0.028
Mof_H 	H 	0.7947	0.5822	0.5746	0.045
Mof_C 	C 	0.7857	0.6995	0.489	0.124
Mof_H 	H 	0.7795	0.7413	0.4907	0.012
Mof_C 	C 	0.7869	0.6659	0.5415	-0.194
Mof_C 	C 	0.8013	0.5773	0.4843	0.027
Mof_C 	C 	0.8014	0.6104	0.4318	0.027
Mof_H 	H 	0.8069	0.5913	0.3944	0.044
Mof_O 	O 	0.7612	0.8929	0.372	-0.453
Mof_N 	N 	0.8043	0.5138	0.4771	-0.075
Mof_O 	O 	0.7795	0.7593	0.37857	-0.706
Mof_O 	O 	0.81	0.6755	0.33225	-0.739
Mof_O 	O 	0.7939	0.6628	0.64586	-0.735
Mof_O 	O 	0.7613	0.74754	0.6033	-0.705
Mof_Cl	Cl	0.7628	0.8956	0.3878	-0.011
Mof_In	In	0.23929	0.82231	0.69358	2.821
Mof_C 	C 	0.22	0.6949	0.3985	0.583
Mof_C 	C 	0.2053	0.7051	0.6229	0.587
Mof_C 	C 	0.2064	0.6715	0.5654	-0.198
Mof_C 	C 	0.2057	0.6051	0.461	0.028
Mof_H 	H 	0.2053	0.5822	0.4254	0.045
Mof_C 	C 	0.2143	0.6995	0.511	0.124
Mof_H 	H 	0.2205	0.7413	0.5093	0.012
Mof_C 	C 	0.2131	0.6659	0.4585	-0.194
Mof_C 	C 	0.1987	0.5773	0.5157	0.027
Mof_C 	C 	0.1986	0.6104	0.5682	0.027
Mof_H 	H 	0.1931	0.5913	0.6056	0.044
Mof_O 	O 	0.2388	0.8929	0.628	-0.453
Mof_N 	N 	0.1957	0.5138	0.5229	-0.075
Mof_O 	O 	0.2205	0.7593	0.62143	-0.706
Mof_O 	O 	0.19	0.6755	0.66775	-0.739
Mof_O 	O 	0.2061	0.6628	0.35414	-0.735
Mof_O 	O 	0.2387	0.74754	0.3967	-0.705
Mof_Cl	Cl	0.2372	0.8956	0.6122	-0.011
Mof_In	In	0.76071	0.17769	0.69358	2.821
Mof_C 	C 	0.78	0.3051	0.3985	0.583
Mof_C 	C 	0.7947	0.2949	0.6229	0.587
Mof_C 	C 	0.7936	0.3285	0.5654	-0.198
Mof_C 	C 	0.7943	0.3949	0.461	0.028
Mof_H 	H 	0.7947	0.4178	0.4254	0.045
Mof_C 	C 	0.7857	0.3005	0.511	0.124
Mof_H 	H 	0.7795	0.2587	0.5093	0.012
Mof_C 	C 	0.7869	0.3341	0.4585	-0.194
Mof_C 	C 	0.8013	0.4227	0.5157	0.027
Mof_C 	C 	0.8014	0.3896	0.5682	0.027
Mof_H 	H 	0.8069	0.4087	0.6056	0.044
Mof_O 	O 	0.7612	0.1071	0.628	-0.453
Mof_N 	N 	0.8043	0.4862	0.5229	-0.075
Mof_O 	O 	0.7795	0.2407	0.62143	-0.706
Mof_O 	O 	0.81	0.3245	0.66775	-0.739
Mof_O 	O 	0.7939	0.3372	0.35414	-0.735
Mof_O 	O 	0.7613	0.25246	0.3967	-0.705
Mof_Cl	Cl	0.7628	0.1044	0.6122	-0.011
Mof_In	In	0.17769	0.30642	0.23929	2.821
Mof_C 	C 	0.3051	0.6015	0.22	0.583
Mof_C 	C 	0.2949	0.3771	0.2053	0.587
Mof_C 	C 	0.3285	0.4346	0.2064	-0.198
Mof_C 	C 	0.3949	0.539	0.2057	0.028
Mof_H 	H 	0.4178	0.5746	0.2053	0.045
Mof_C 	C 	0.3005	0.489	0.2143	0.124
Mof_H 	H 	0.2587	0.4907	0.2205	0.012
Mof_C 	C 	0.3341	0.5415	0.2131	-0.194
Mof_C 	C 	0.4227	0.4843	0.1987	0.027
Mof_C 	C 	0.3896	0.4318	0.1986	0.027
Mof_H 	H 	0.4087	0.3944	0.1931	0.044
Mof_O 	O 	0.1071	0.372	0.2388	-0.453
Mof_N 	N 	0.4862	0.4771	0.1957	-0.075
Mof_O 	O 	0.2407	0.37857	0.2205	-0.706
Mof_O 	O 	0.3245	0.33225	0.19	-0.739
Mof_O 	O 	0.3372	0.64586	0.2061	-0.735
Mof_O 	O 	0.25246	0.6033	0.2387	-0.705
Mof_Cl	Cl	0.1044	0.3878	0.2372	-0.011
Mof_In	In	0.82231	0.30642	0.76071	2.821
Mof_C 	C 	0.6949	0.6015	0.78	0.583
Mof_C 	C 	0.7051	0.3771	0.7947	0.587
Mof_C 	C 	0.6715	0.4346	0.7936	-0.198
Mof_C 	C 	0.6051	0.539	0.7943	0.028
Mof_H 	H 	0.5822	0.5746	0.7947	0.045
Mof_C 	C 	0.6995	0.489	0.7857	0.124
Mof_H 	H 	0.7413	0.4907	0.7795	0.012
Mof_C 	C 	0.6659	0.5415	0.7869	-0.194
Mof_C 	C 	0.5773	0.4843	0.8013	0.027
Mof_C 	C 	0.6104	0.4318	0.8014	0.027
Mof_H 	H 	0.5913	0.3944	0.8069	0.044
Mof_O 	O 	0.8929	0.372	0.7612	-0.453
Mof_N 	N 	0.5138	0.4771	0.8043	-0.075
Mof_O 	O 	0.7593	0.37857	0.7795	-0.706
Mof_O 	O 	0.6755	0.33225	0.81	-0.739
Mof_O 	O 	0.6628	0.64586	0.7939	-0.735
Mof_O 	O 	0.74754	0.6033	0.7613	-0.705
Mof_Cl	Cl	0.8956	0.3878	0.7628	-0.011
Mof_In	In	0.82231	0.69358	0.23929	2.821
Mof_C 	C 	0.6949	0.3985	0.22	0.583
Mof_C 	C 	0.7051	0.6229	0.2053	0.587
Mof_C 	C 	0.6715	0.5654	0.2064	-0.198
Mof_C 	C 	0.6051	0.461	0.2057	0.028
Mof_H 	H 	0.5822	0.4254	0.2053	0.045
Mof_C 	C 	0.6995	0.511	0.2143	0.124
Mof_H 	H 	0.7413	0.5093	0.2205	0.012
Mof_C 	C 	0.6659	0.4585	0.2131	-0.194
Mof_C 	C 	0.5773	0.5157	0.1987	0.027
Mof_C 	C 	0.6104	0.5682	0.1986	0.027
Mof_H 	H 	0.5913	0.6056	0.1931	0.044
Mof_O 	O 	0.8929	0.628	0.2388	-0.453
Mof_N 	N 	0.5138	0.5229	0.1957	-0.075
Mof_O 	O 	0.7593	0.62143	0.2205	-0.706
Mof_O 	O 	0.6755	0.66775	0.19	-0.739
Mof_O 	O 	0.6628	0.35414	0.2061	-0.735
Mof_O 	O 	0.74754	0.3967	0.2387	-0.705
Mof_Cl	Cl	0.8956	0.6122	0.2372	-0.011
Mof_In	In	0.17769	0.69358	0.76071	2.821
Mof_C 	C 	0.3051	0.3985	0.78	0.583
Mof_C 	C 	0.2949	0.6229	0.7947	0.587
Mof_C 	C 	0.3285	0.5654	0.7936	-0.198
Mof_C 	C 	0.3949	0.461	0.7943	0.028
Mof_H 	H 	0.4178	0.4254	0.7947	0.045
Mof_C 	C 	0.3005	0.511	0.7857	0.124
Mof_H 	H 	0.2587	0.5093	0.7795	0.012
Mof_C 	C 	0.3341	0.4585	0.7869	-0.194
Mof_C 	C 	0.4227	0.5157	0.8013	0.027
Mof_C 	C 	0.3896	0.5682	0.8014	0.027
Mof_H 	H 	0.4087	0.6056	0.8069	0.044
Mof_O 	O 	0.1071	0.628	0.7612	-0.453
Mof_N 	N 	0.4862	0.5229	0.8043	-0.075
Mof_O 	O 	0.2407	0.62143	0.7795	-0.706
Mof_O 	O 	0.3245	0.66775	0.81	-0.739
Mof_O 	O 	0.3372	0.35414	0.7939	-0.735
Mof_O 	O 	0.25246	0.3967	0.7613	-0.705
Mof_Cl	Cl	0.1044	0.6122	0.7628	-0.011
Mof_In	In	0.30642	0.23929	0.17769	2.821
Mof_C 	C 	0.6015	0.22	0.3051	0.583
Mof_C 	C 	0.3771	0.2053	0.2949	0.587
Mof_C 	C 	0.4346	0.2064	0.3285	-0.198
Mof_C 	C 	0.539	0.2057	0.3949	0.028
Mof_H 	H 	0.5746	0.2053	0.4178	0.045
Mof_C 	C 	0.489	0.2143	0.3005	0.124
Mof_H 	H 	0.4907	0.2205	0.2587	0.012
Mof_C 	C 	0.5415	0.2131	0.3341	-0.194
Mof_C 	C 	0.4843	0.1987	0.4227	0.027
Mof_C 	C 	0.4318	0.1986	0.3896	0.027
Mof_H 	H 	0.3944	0.1931	0.4087	0.044
Mof_O 	O 	0.372	0.2388	0.1071	-0.453
Mof_N 	N 	0.4771	0.1957	0.4862	-0.075
Mof_O 	O 	0.37857	0.2205	0.2407	-0.706
Mof_O 	O 	0.33225	0.19	0.3245	-0.739
Mof_O 	O 	0.64586	0.2061	0.3372	-0.735
Mof_O 	O 	0.6033	0.2387	0.25246	-0.705
Mof_Cl	Cl	0.3878	0.2372	0.1044	-0.011
Mof_In	In	0.30642	0.76071	0.82231	2.821
Mof_C 	C 	0.6015	0.78	0.6949	0.583
Mof_C 	C 	0.3771	0.7947	0.7051	0.587
Mof_C 	C 	0.4346	0.7936	0.6715	-0.198
Mof_C 	C 	0.539	0.7943	0.6051	0.028
Mof_H 	H 	0.5746	0.7947	0.5822	0.045
Mof_C 	C 	0.489	0.7857	0.6995	0.124
Mof_H 	H 	0.4907	0.7795	0.7413	0.012
Mof_C 	C 	0.5415	0.7869	0.6659	-0.194
Mof_C 	C 	0.4843	0.8013	0.5773	0.027
Mof_C 	C 	0.4318	0.8014	0.6104	0.027
Mof_H 	H 	0.3944	0.8069	0.5913	0.044
Mof_O 	O 	0.372	0.7612	0.8929	-0.453
Mof_N 	N 	0.4771	0.8043	0.5138	-0.075
Mof_O 	O 	0.37857	0.7795	0.7593	-0.706
Mof_O 	O 	0.33225	0.81	0.6755	-0.739
Mof_O 	O 	0.64586	0.7939	0.6628	-0.735
Mof_O 	O 	0.6033	0.7613	0.74754	-0.705
Mof_Cl	Cl	0.3878	0.7628	0.8956	-0.011
Mof_In	In	0.69358	0.23929	0.82231	2.821
Mof_C 	C 	0.3985	0.22	0.6949	0.583
Mof_C 	C 	0.6229	0.2053	0.7051	0.587
Mof_C 	C 	0.5654	0.2064	0.6715	-0.198
Mof_C 	C 	0.461	0.2057	0.6051	0.028
Mof_H 	H 	0.4254	0.2053	0.5822	0.045
Mof_C 	C 	0.511	0.2143	0.6995	0.124
Mof_H 	H 	0.5093	0.2205	0.7413	0.012
Mof_C 	C 	0.4585	0.2131	0.6659	-0.194
Mof_C 	C 	0.5157	0.1987	0.5773	0.027
Mof_C 	C 	0.5682	0.1986	0.6104	0.027
Mof_H 	H 	0.6056	0.1931	0.5913	0.044
Mof_O 	O 	0.628	0.2388	0.8929	-0.453
Mof_N 	N 	0.5229	0.1957	0.5138	-0.075
Mof_O 	O 	0.62143	0.2205	0.7593	-0.706
Mof_O 	O 	0.66775	0.19	0.6755	-0.739
Mof_O 	O 	0.35414	0.2061	0.6628	-0.735
Mof_O 	O 	0.3967	0.2387	0.74754	-0.705
Mof_Cl	Cl	0.6122	0.2372	0.8956	-0.011
Mof_In	In	0.69358	0.76071	0.17769	2.821
Mof_C 	C 	0.3985	0.78	0.3051	0.583
Mof_C 	C 	0.6229	0.7947	0.2949	0.587
Mof_C 	C 	0.5654	0.7936	0.3285	-0.198
Mof_C 	C 	0.461	0.7943	0.3949	0.028
Mof_H 	H 	0.4254	0.7947	0.4178	0.045
Mof_C 	C 	0.511	0.7857	0.3005	0.124
Mof_H 	H 	0.5093	0.7795	0.2587	0.012
Mof_C 	C 	0.4585	0.7869	0.3341	-0.194
Mof_C 	C 	0.5157	0.8013	0.4227	0.027
Mof_C 	C 	0.5682	0.8014	0.3896	0.027
Mof_H 	H 	0.6056	0.8069	0.4087	0.044
Mof_O 	O 	0.628	0.7612	0.1071	-0.453
Mof_N 	N 	0.5229	0.8043	0.4862	-0.075
Mof_O 	O 	0.62143	0.7795	0.2407	-0.706
Mof_O 	O 	0.66775	0.81	0.3245	-0.739
Mof_O 	O 	0.35414	0.7939	0.3372	-0.735
Mof_O 	O 	0.3967	0.7613	0.25246	-0.705
Mof_Cl	Cl	0.6122	0.7628	0.1044	-0.011
Mof_O 	O 	0.7403	0.7403	0.7403	-1.448
Mof_O 	O 	0.2597	0.2597	0.7403	-1.448
Mof_O 	O 	0.2597	0.7403	0.2597	-1.448
Mof_O 	O 	0.7403	0.2597	0.2597	-1.448
Mof_O 	O 	0.2403	0.2403	0.2403	-1.448
Mof_O 	O 	0.7597	0.7597	0.2403	-1.448
Mof_O 	O 	0.2403	0.7597	0.7597	-1.448
Mof_O 	O 	0.7597	0.2403	0.7597	-1.448
_end
