data_functionalizedCrystal
_audit_creation_method	'EQeq! by Chris Wilmer'
_symmetry_space_group_name_H-M	'P1'
_symmetry_Int_Tables_number	1
_symmetry_cell_setting	triclinic
loop_
_symmetry_equiv_pos_as_xyz
  x,y,z
_cell_length_a	18.7316
_cell_length_b	18.7316
_cell_length_c	18.7316
_cell_angle_alpha	60
_cell_angle_beta	60
_cell_angle_gamma	60
loop_
_atom_site_label
_atom_site_type_symbol
_atom_site_fract_x
_atom_site_fract_y
_atom_site_fract_z
_atom_site_charge
Mof_Ca	Ca	0.5	0.5	0.5	1.635
Mof_Ca	Ca	-3.66937e-17	0	0.5	1
Mof_Ca	Ca	-0	0.5	-0	1.001
Mof_Ca	Ca	-3.66937e-17	0.5	0.5	1.315
Mof_Ca	Ca	0.5	0.5	-0	1.324
Mof_Ca	Ca	-0	0	-0	0.685
Mof_Ca	Ca	0.5	0	0.5	1.323
Mof_Ca	Ca	0.5	0	-0	1.008
Mof_Ho	Ho	0.75	0.25	0.25	2.145
Mof_Ho	Ho	0.75	0.25	0.75	2.159
Mof_Ho	Ho	0.75	0.75	0.25	2.159
Mof_Ho	Ho	0.25	0.25	0.25	2.131
Mof_Ho	Ho	0.25	0.75	0.75	2.157
Mof_Ho	Ho	0.25	0.75	0.25	2.144
Mof_Ho	Ho	0.25	0.25	0.75	2.144
Mof_Ho	Ho	0.75	0.75	0.75	2.17
Mof_H 	H 	0.5157	0.4165	0.3443	0.097
Mof_H 	H 	0.5757	0.4743	0.2947	0.094
Mof_H 	H 	0.9165	0.0157	0.7235	0.088
Mof_H 	H 	0.9743	0.0757	0.6553	0.127
Mof_H 	H 	0.8443	0.7235	0.0157	0.062
Mof_H 	H 	0.7947	0.6553	0.0757	0.064
Mof_H 	H 	0.2235	0.3443	0.4165	0.097
Mof_H 	H 	0.1553	0.2947	0.4743	0.077
Mof_H 	H 	0.5157	0.3443	0.7235	0.103
Mof_H 	H 	0.5757	0.2947	0.6553	0.095
Mof_H 	H 	0.9165	0.7235	0.3443	0.151
Mof_H 	H 	0.9743	0.6553	0.2947	0.164
Mof_H 	H 	0.8443	0.0157	0.4165	0.056
Mof_H 	H 	0.7947	0.0757	0.4743	0.062
Mof_H 	H 	0.2235	0.4165	0.0157	0.031
Mof_H 	H 	0.1553	0.4743	0.0757	0.039
Mof_H 	H 	0.5157	0.7235	0.4165	0.105
Mof_H 	H 	0.5757	0.6553	0.4743	0.1
Mof_H 	H 	0.9165	0.3443	0.0157	0.08
Mof_H 	H 	0.9743	0.2947	0.0757	0.121
Mof_H 	H 	0.8443	0.4165	0.7235	0.126
Mof_H 	H 	0.7947	0.4743	0.6553	0.105
Mof_H 	H 	0.2235	0.0157	0.3443	0.029
Mof_H 	H 	0.1553	0.0757	0.2947	0.033
Mof_H 	H 	0.5835	0.4843	0.1557	0.081
Mof_H 	H 	0.5257	0.4243	0.2053	0.097
Mof_H 	H 	0.9843	0.0835	0.7765	0.129
Mof_H 	H 	0.9243	0.0257	0.8447	0.109
Mof_H 	H 	0.2765	0.1557	0.4843	0.074
Mof_H 	H 	0.3447	0.2053	0.4243	0.096
Mof_H 	H 	0.6557	0.7765	0.0835	0.061
Mof_H 	H 	0.7053	0.8447	0.0257	0.065
Mof_H 	H 	0.6557	0.4843	0.7765	0.103
Mof_H 	H 	0.7053	0.4243	0.8447	0.124
Mof_H 	H 	0.2765	0.0835	0.1557	0.029
Mof_H 	H 	0.3447	0.0257	0.2053	0.034
Mof_H 	H 	0.9843	0.1557	0.0835	0.109
Mof_H 	H 	0.9243	0.2053	0.0257	0.089
Mof_H 	H 	0.5835	0.7765	0.4843	0.102
Mof_H 	H 	0.5257	0.8447	0.4243	0.119
Mof_H 	H 	0.2765	0.4843	0.0835	0.049
Mof_H 	H 	0.3447	0.4243	0.0257	0.034
Mof_H 	H 	0.6557	0.0835	0.4843	0.058
Mof_H 	H 	0.7053	0.0257	0.4243	0.042
Mof_H 	H 	0.5835	0.1557	0.7765	0.084
Mof_H 	H 	0.5257	0.2053	0.8447	0.12
Mof_H 	H 	0.9843	0.7765	0.1557	0.154
Mof_H 	H 	0.9243	0.8447	0.2053	0.169
Mof_H 	H 	0.4843	0.5835	0.6557	0.101
Mof_H 	H 	0.4243	0.5257	0.7053	0.103
Mof_H 	H 	0.0835	0.9843	0.2765	0.119
Mof_H 	H 	0.0257	0.9243	0.3447	0.084
Mof_H 	H 	0.1557	0.2765	0.9843	0.145
Mof_H 	H 	0.2053	0.3447	0.9243	0.147
Mof_H 	H 	0.7765	0.6557	0.5835	0.103
Mof_H 	H 	0.8447	0.7053	0.5257	0.125
Mof_H 	H 	0.4843	0.6557	0.2765	0.095
Mof_H 	H 	0.4243	0.7053	0.3447	0.101
Mof_H 	H 	0.0835	0.2765	0.6557	0.049
Mof_H 	H 	0.0257	0.3447	0.7053	0.039
Mof_H 	H 	0.1557	0.9843	0.5835	0.15
Mof_H 	H 	0.2053	0.9243	0.5257	0.148
Mof_H 	H 	0.7765	0.5835	0.9843	0.168
Mof_H 	H 	0.8447	0.5257	0.9243	0.167
Mof_H 	H 	0.4843	0.2765	0.5835	0.093
Mof_H 	H 	0.4243	0.3447	0.5257	0.096
Mof_H 	H 	0.0835	0.6557	0.9843	0.126
Mof_H 	H 	0.0257	0.7053	0.9243	0.091
Mof_H 	H 	0.1557	0.5835	0.2765	0.074
Mof_H 	H 	0.2053	0.5257	0.3447	0.096
Mof_H 	H 	0.7765	0.9843	0.6557	0.169
Mof_H 	H 	0.8447	0.9243	0.7053	0.17
Mof_H 	H 	0.4165	0.5157	0.8443	0.12
Mof_H 	H 	0.4743	0.5757	0.7947	0.105
Mof_H 	H 	0.0157	0.9165	0.2235	0.078
Mof_H 	H 	0.0757	0.9743	0.1553	0.108
Mof_H 	H 	0.7235	0.8443	0.5157	0.126
Mof_H 	H 	0.6553	0.7947	0.5757	0.106
Mof_H 	H 	0.3443	0.2235	0.9165	0.144
Mof_H 	H 	0.2947	0.1553	0.9743	0.148
Mof_H 	H 	0.3443	0.5157	0.2235	0.096
Mof_H 	H 	0.2947	0.5757	0.1553	0.078
Mof_H 	H 	0.7235	0.9165	0.8443	0.168
Mof_H 	H 	0.6553	0.9743	0.7947	0.17
Mof_H 	H 	0.0157	0.8443	0.9165	0.099
Mof_H 	H 	0.0757	0.7947	0.9743	0.128
Mof_H 	H 	0.4165	0.2235	0.5157	0.098
Mof_H 	H 	0.4743	0.1553	0.5757	0.084
Mof_H 	H 	0.7235	0.5157	0.9165	0.15
Mof_H 	H 	0.6553	0.5757	0.9743	0.167
Mof_H 	H 	0.3443	0.9165	0.5157	0.144
Mof_H 	H 	0.2947	0.9743	0.5757	0.162
Mof_H 	H 	0.4165	0.8443	0.2235	0.12
Mof_H 	H 	0.4743	0.7947	0.1553	0.09
Mof_H 	H 	0.0157	0.2235	0.8443	0.052
Mof_H 	H 	0.0757	0.1553	0.7947	0.045
Mof_C 	C 	0.57581	0.41499	0.31787	-0.228
Mof_C 	C 	0.62062	0.35944	0.38558	0.476
Mof_C 	C 	0.91499	0.07581	0.69133	-0.222
Mof_C 	C 	0.85944	0.12062	0.63436	0.45
Mof_C 	C 	0.81787	0.69133	0.07581	-0.169
Mof_C 	C 	0.88558	0.63436	0.12062	0.423
Mof_C 	C 	0.19133	0.31787	0.41499	-0.219
Mof_C 	C 	0.13436	0.38558	0.35944	0.46
Mof_C 	C 	0.57581	0.31787	0.69133	-0.232
Mof_C 	C 	0.62062	0.38558	0.63436	0.479
Mof_C 	C 	0.91499	0.69133	0.31787	-0.277
Mof_C 	C 	0.85944	0.63436	0.38558	0.491
Mof_C 	C 	0.81787	0.07581	0.41499	-0.164
Mof_C 	C 	0.88558	0.12062	0.35944	0.42
Mof_C 	C 	0.19133	0.41499	0.07581	-0.162
Mof_C 	C 	0.13436	0.35944	0.12062	0.418
Mof_C 	C 	0.57581	0.69133	0.41499	-0.236
Mof_C 	C 	0.62062	0.63436	0.35944	0.481
Mof_C 	C 	0.91499	0.31787	0.07581	-0.214
Mof_C 	C 	0.85944	0.38558	0.12062	0.445
Mof_C 	C 	0.81787	0.41499	0.69133	-0.228
Mof_C 	C 	0.88558	0.35944	0.63436	0.466
Mof_C 	C 	0.19133	0.07581	0.31787	-0.157
Mof_C 	C 	0.13436	0.12062	0.38558	0.416
Mof_C 	C 	0.58501	0.42419	0.18213	-0.225
Mof_C 	C 	0.64056	0.37938	0.11442	0.462
Mof_C 	C 	0.92419	0.08501	0.80867	-0.21
Mof_C 	C 	0.87938	0.14056	0.86564	0.435
Mof_C 	C 	0.30867	0.18213	0.42419	-0.219
Mof_C 	C 	0.36564	0.11442	0.37938	0.459
Mof_C 	C 	0.68213	0.80867	0.08501	-0.169
Mof_C 	C 	0.61442	0.86564	0.14056	0.424
Mof_C 	C 	0.68213	0.42419	0.80867	-0.228
Mof_C 	C 	0.61442	0.37938	0.86564	0.465
Mof_C 	C 	0.30867	0.08501	0.18213	-0.156
Mof_C 	C 	0.36564	0.14056	0.11442	0.417
Mof_C 	C 	0.92419	0.18213	0.08501	-0.21
Mof_C 	C 	0.87938	0.11442	0.14056	0.434
Mof_C 	C 	0.58501	0.80867	0.42419	-0.226
Mof_C 	C 	0.64056	0.86564	0.37938	0.463
Mof_C 	C 	0.30867	0.42419	0.08501	-0.166
Mof_C 	C 	0.36564	0.37938	0.14056	0.433
Mof_C 	C 	0.68213	0.08501	0.42419	-0.176
Mof_C 	C 	0.61442	0.14056	0.37938	0.438
Mof_C 	C 	0.58501	0.18213	0.80867	-0.217
Mof_C 	C 	0.64056	0.11442	0.86564	0.448
Mof_C 	C 	0.92419	0.80867	0.18213	-0.262
Mof_C 	C 	0.87938	0.86564	0.11442	0.461
Mof_C 	C 	0.42419	0.58501	0.68213	-0.236
Mof_C 	C 	0.37938	0.64056	0.61442	0.48
Mof_C 	C 	0.08501	0.92419	0.30867	-0.21
Mof_C 	C 	0.14056	0.87938	0.36564	0.447
Mof_C 	C 	0.18213	0.30867	0.92419	-0.265
Mof_C 	C 	0.11442	0.36564	0.87938	0.473
Mof_C 	C 	0.80867	0.68213	0.58501	-0.228
Mof_C 	C 	0.86564	0.61442	0.64056	0.465
Mof_C 	C 	0.42419	0.68213	0.30867	-0.231
Mof_C 	C 	0.37938	0.61442	0.36564	0.477
Mof_C 	C 	0.08501	0.30867	0.68213	-0.168
Mof_C 	C 	0.14056	0.36564	0.61442	0.435
Mof_C 	C 	0.18213	0.92419	0.58501	-0.269
Mof_C 	C 	0.11442	0.87938	0.64056	0.475
Mof_C 	C 	0.80867	0.58501	0.92419	-0.268
Mof_C 	C 	0.86564	0.64056	0.87938	0.476
Mof_C 	C 	0.42419	0.30867	0.58501	-0.228
Mof_C 	C 	0.37938	0.36564	0.64056	0.475
Mof_C 	C 	0.08501	0.68213	0.92419	-0.218
Mof_C 	C 	0.14056	0.61442	0.87938	0.452
Mof_C 	C 	0.18213	0.58501	0.30867	-0.219
Mof_C 	C 	0.11442	0.64056	0.36564	0.459
Mof_C 	C 	0.80867	0.92419	0.68213	-0.269
Mof_C 	C 	0.86564	0.87938	0.61442	0.477
Mof_C 	C 	0.41499	0.57581	0.81787	-0.224
Mof_C 	C 	0.35944	0.62062	0.88558	0.465
Mof_C 	C 	0.07581	0.91499	0.19133	-0.207
Mof_C 	C 	0.12062	0.85944	0.13436	0.431
Mof_C 	C 	0.69133	0.81787	0.57581	-0.228
Mof_C 	C 	0.63436	0.88558	0.62062	0.467
Mof_C 	C 	0.31787	0.19133	0.91499	-0.265
Mof_C 	C 	0.38558	0.13436	0.85944	0.473
Mof_C 	C 	0.31787	0.57581	0.19133	-0.219
Mof_C 	C 	0.38558	0.62062	0.13436	0.461
Mof_C 	C 	0.69133	0.91499	0.81787	-0.27
Mof_C 	C 	0.63436	0.85944	0.88558	0.477
Mof_C 	C 	0.07581	0.81787	0.91499	-0.207
Mof_C 	C 	0.12062	0.88558	0.85944	0.432
Mof_C 	C 	0.41499	0.19133	0.57581	-0.224
Mof_C 	C 	0.35944	0.13436	0.62062	0.464
Mof_C 	C 	0.69133	0.57581	0.91499	-0.279
Mof_C 	C 	0.63436	0.62062	0.85944	0.493
Mof_C 	C 	0.31787	0.91499	0.57581	-0.273
Mof_C 	C 	0.38558	0.85944	0.62062	0.489
Mof_C 	C 	0.41499	0.81787	0.19133	-0.217
Mof_C 	C 	0.35944	0.88558	0.13436	0.449
Mof_C 	C 	0.07581	0.19133	0.81787	-0.154
Mof_C 	C 	0.12062	0.13436	0.88558	0.404
Mof_O 	O 	0.68745	0.29497	0.37199	-0.47
Mof_O 	O 	0.58941	0.38137	0.45047	-0.472
Mof_O 	O 	0.79497	0.18745	0.64559	-0.466
Mof_O 	O 	0.88137	0.08941	0.57875	-0.393
Mof_O 	O 	0.87199	0.64559	0.18745	-0.439
Mof_O 	O 	0.95047	0.57875	0.08941	-0.346
Mof_O 	O 	0.14559	0.37199	0.29497	-0.492
Mof_O 	O 	0.07875	0.45047	0.38137	-0.487
Mof_O 	O 	0.68745	0.37199	0.64559	-0.471
Mof_O 	O 	0.58941	0.45047	0.57875	-0.472
Mof_O 	O 	0.79497	0.64559	0.37199	-0.47
Mof_O 	O 	0.88137	0.57875	0.45047	-0.399
Mof_O 	O 	0.87199	0.18745	0.29497	-0.437
Mof_O 	O 	0.95047	0.08941	0.38137	-0.346
Mof_O 	O 	0.14559	0.29497	0.18745	-0.489
Mof_O 	O 	0.07875	0.38137	0.08941	-0.484
Mof_O 	O 	0.68745	0.64559	0.29497	-0.472
Mof_O 	O 	0.58941	0.57875	0.38137	-0.473
Mof_O 	O 	0.79497	0.37199	0.18745	-0.464
Mof_O 	O 	0.88137	0.45047	0.08941	-0.392
Mof_O 	O 	0.87199	0.29497	0.64559	-0.443
Mof_O 	O 	0.95047	0.38137	0.57875	-0.353
Mof_O 	O 	0.14559	0.18745	0.37199	-0.487
Mof_O 	O 	0.07875	0.08941	0.45047	-0.482
Mof_O 	O 	0.70503	0.31255	0.12801	-0.493
Mof_O 	O 	0.61863	0.41059	0.04953	-0.5
Mof_O 	O 	0.81255	0.20503	0.85441	-0.43
Mof_O 	O 	0.91059	0.11863	0.92125	-0.259
Mof_O 	O 	0.35441	0.12801	0.31255	-0.494
Mof_O 	O 	0.42125	0.04953	0.41059	-0.502
Mof_O 	O 	0.62801	0.85441	0.20503	-0.438
Mof_O 	O 	0.54953	0.92125	0.11863	-0.348
Mof_O 	O 	0.62801	0.31255	0.85441	-0.447
Mof_O 	O 	0.54953	0.41059	0.92125	-0.371
Mof_O 	O 	0.35441	0.20503	0.12801	-0.485
Mof_O 	O 	0.42125	0.11863	0.04953	-0.481
Mof_O 	O 	0.81255	0.12801	0.20503	-0.478
Mof_O 	O 	0.91059	0.04953	0.11863	-0.388
Mof_O 	O 	0.70503	0.85441	0.31255	-0.445
Mof_O 	O 	0.61863	0.92125	0.41059	-0.37
Mof_O 	O 	0.35441	0.31255	0.20503	-0.468
Mof_O 	O 	0.42125	0.41059	0.11863	-0.456
Mof_O 	O 	0.62801	0.20503	0.31255	-0.471
Mof_O 	O 	0.54953	0.11863	0.41059	-0.457
Mof_O 	O 	0.70503	0.12801	0.85441	-0.46
Mof_O 	O 	0.61863	0.04953	0.92125	-0.391
Mof_O 	O 	0.81255	0.85441	0.12801	-0.454
Mof_O 	O 	0.91059	0.92125	0.04953	-0.304
Mof_O 	O 	0.31255	0.70503	0.62801	-0.476
Mof_O 	O 	0.41059	0.61863	0.54953	-0.474
Mof_O 	O 	0.20503	0.81255	0.35441	-0.458
Mof_O 	O 	0.11863	0.91059	0.42125	-0.363
Mof_O 	O 	0.12801	0.35441	0.81255	-0.484
Mof_O 	O 	0.04953	0.42125	0.91059	-0.409
Mof_O 	O 	0.85441	0.62801	0.70503	-0.443
Mof_O 	O 	0.92125	0.54953	0.61863	-0.366
Mof_O 	O 	0.31255	0.62801	0.35441	-0.476
Mof_O 	O 	0.41059	0.54953	0.42125	-0.476
Mof_O 	O 	0.20503	0.35441	0.62801	-0.467
Mof_O 	O 	0.11863	0.42125	0.54953	-0.454
Mof_O 	O 	0.12801	0.81255	0.70503	-0.483
Mof_O 	O 	0.04953	0.91059	0.61863	-0.408
Mof_O 	O 	0.85441	0.70503	0.81255	-0.436
Mof_O 	O 	0.92125	0.61863	0.91059	-0.281
Mof_O 	O 	0.31255	0.35441	0.70503	-0.473
Mof_O 	O 	0.41059	0.42125	0.61863	-0.473
Mof_O 	O 	0.20503	0.62801	0.81255	-0.46
Mof_O 	O 	0.11863	0.54953	0.91059	-0.363
Mof_O 	O 	0.12801	0.70503	0.35441	-0.49
Mof_O 	O 	0.04953	0.61863	0.42125	-0.498
Mof_O 	O 	0.85441	0.81255	0.62801	-0.437
Mof_O 	O 	0.92125	0.91059	0.54953	-0.282
Mof_O 	O 	0.29497	0.68745	0.87199	-0.439
Mof_O 	O 	0.38137	0.58941	0.95047	-0.353
Mof_O 	O 	0.18745	0.79497	0.14559	-0.482
Mof_O 	O 	0.08941	0.88137	0.07875	-0.406
Mof_O 	O 	0.64559	0.87199	0.68745	-0.441
Mof_O 	O 	0.57875	0.95047	0.58941	-0.353
Mof_O 	O 	0.37199	0.14559	0.79497	-0.485
Mof_O 	O 	0.45047	0.07875	0.88137	-0.409
Mof_O 	O 	0.37199	0.68745	0.14559	-0.487
Mof_O 	O 	0.45047	0.58941	0.07875	-0.482
Mof_O 	O 	0.64559	0.79497	0.87199	-0.44
Mof_O 	O 	0.57875	0.88137	0.95047	-0.285
Mof_O 	O 	0.18745	0.87199	0.79497	-0.433
Mof_O 	O 	0.08941	0.95047	0.88137	-0.276
Mof_O 	O 	0.29497	0.14559	0.68745	-0.488
Mof_O 	O 	0.38137	0.07875	0.58941	-0.484
Mof_O 	O 	0.64559	0.68745	0.79497	-0.467
Mof_O 	O 	0.57875	0.58941	0.88137	-0.399
Mof_O 	O 	0.37199	0.79497	0.68745	-0.465
Mof_O 	O 	0.45047	0.88137	0.58941	-0.398
Mof_O 	O 	0.29497	0.87199	0.14559	-0.459
Mof_O 	O 	0.38137	0.95047	0.07875	-0.364
Mof_O 	O 	0.18745	0.14559	0.87199	-0.455
Mof_O 	O 	0.08941	0.07875	0.95047	-0.359
Mof_O 	O 	0.62012	0.37988	0.25	-0.251
Mof_O 	O 	0.87988	0.12012	0.75	-0.246
Mof_O 	O 	0.75	0.75	0.12012	-0.272
Mof_O 	O 	0.25	0.25	0.37988	-0.255
Mof_O 	O 	0.62012	0.25	0.75	-0.248
Mof_O 	O 	0.87988	0.75	0.25	-0.219
Mof_O 	O 	0.75	0.12012	0.37988	-0.275
Mof_O 	O 	0.25	0.37988	0.12012	-0.283
Mof_O 	O 	0.62012	0.75	0.37988	-0.243
Mof_O 	O 	0.87988	0.25	0.12012	-0.253
Mof_O 	O 	0.75	0.37988	0.75	-0.24
Mof_O 	O 	0.25	0.12012	0.25	-0.289
Mof_O 	O 	0.37988	0.62012	0.75	-0.242
Mof_O 	O 	0.12012	0.87988	0.25	-0.254
Mof_O 	O 	0.25	0.25	0.87988	-0.226
Mof_O 	O 	0.75	0.75	0.62012	-0.24
Mof_O 	O 	0.37988	0.75	0.25	-0.246
Mof_O 	O 	0.12012	0.25	0.75	-0.281
Mof_O 	O 	0.25	0.87988	0.62012	-0.222
Mof_O 	O 	0.75	0.62012	0.87988	-0.215
Mof_O 	O 	0.37988	0.25	0.62012	-0.25
Mof_O 	O 	0.12012	0.75	0.87988	-0.247
Mof_O 	O 	0.25	0.62012	0.25	-0.256
Mof_O 	O 	0.75	0.87988	0.75	-0.213
_end
