data_functionalizedCrystal
_audit_creation_method	'EQeq! by Chris Wilmer'
_symmetry_space_group_name_H-M	'P1'
_symmetry_Int_Tables_number	1
_symmetry_cell_setting	triclinic
loop_
_symmetry_equiv_pos_as_xyz
  x,y,z
_cell_length_a	16.043
_cell_length_b	19.7227
_cell_length_c	19.7227
_cell_angle_alpha	80.4785
_cell_angle_beta	66.0014
_cell_angle_gamma	66.0013
loop_
_atom_site_label
_atom_site_type_symbol
_atom_site_fract_x
_atom_site_fract_y
_atom_site_fract_z
_atom_site_charge
Mof_Dy	Dy	0.95911	0.70162	0.88457	1.936
Mof_Dy	Dy	0.54529	0.29838	0.11544	2.025
Mof_Cu	Cu	0.6127	0.59071	0.18723	0.848
Mof_Cu	Cu	0.39064	0.40929	0.81277	0.848
Mof_H 	H 	0.1195	0.5826	0.0678	0.042
Mof_H 	H 	0.2385	0.5571	0.1159	0.065
Mof_H 	H 	0.2235	0.7248	0.924	0.043
Mof_H 	H 	0.3364	0.7025	0.9737	0.064
Mof_H 	H 	0.415	0.5057	0.1025	0.068
Mof_H 	H 	0.5342	0.4928	0.1448	-0.003
Mof_H 	H 	0.3593	0.7241	0.0795	0.086
Mof_H 	H 	0.4745	0.7045	0.1277	-0.008
Mof_H 	H 	0.843	0.5847	0.7677	0.033
Mof_H 	H 	0.7343	0.5463	0.7531	0.06
Mof_H 	H 	0.6835	0.6146	0.9846	0.016
Mof_H 	H 	0.5724	0.5753	0.9715	0.07
Mof_H 	H 	0.5707	0.577	0.7538	0.077
Mof_H 	H 	0.4656	0.5315	0.7423	-0.017
Mof_H 	H 	0.5399	0.4767	0.9499	0.086
Mof_H 	H 	0.4314	0.4366	0.9362	-0.005
Mof_H 	H 	0.1107	0.7596	0.6288	0.047
Mof_H 	H 	0.2196	0.7369	0.5059	0.075
Mof_H 	H 	0.2761	0.5633	0.6879	0.025
Mof_H 	H 	0.3835	0.5422	0.567	0.066
Mof_H 	H 	0.2865	0.652	0.3992	0.09
Mof_H 	H 	0.4006	0.6275	0.2785	-0.006
Mof_H 	H 	0.5113	0.5907	0.4655	0.078
Mof_H 	H 	0.6165	0.5735	0.3449	-0.023
Mof_H 	H 	0.8275	0.9646	0.9214	0.028
Mof_H 	H 	0.7325	0.0882	0.9122	0.073
Mof_H 	H 	0.6875	0.9051	0.8325	0.037
Mof_H 	H 	0.6055	0.0283	0.8109	0.071
Mof_H 	H 	0.5737	0.1906	0.9464	0.074
Mof_H 	H 	0.4817	0.3097	0.9271	-0.004
Mof_H 	H 	0.6182	0.1421	0.7425	0.085
Mof_H 	H 	0.5227	0.2626	0.7298	-0.006
Mof_H 	H 	0.7699	0.4174	0.9322	0.041
Mof_H 	H 	0.9115	0.4429	0.8841	0.051
Mof_H 	H 	0.8723	0.2752	0.076	0.031
Mof_H 	H 	0.0126	0.2975	0.0263	0.095
Mof_H 	H 	0.0232	0.4943	0.8975	0.09
Mof_H 	H 	0.1718	0.5072	0.8552	-0.006
Mof_H 	H 	0.1629	0.2759	0.9205	0.098
Mof_H 	H 	0.3067	0.2955	0.8723	-0.013
Mof_H 	H 	0.1954	0.4153	0.2323	0.028
Mof_H 	H 	0.0337	0.4537	0.2469	0.083
Mof_H 	H 	0.2827	0.3854	0.0154	0.009
Mof_H 	H 	0.1192	0.4247	0.0285	0.088
Mof_H 	H 	0.9015	0.423	0.2462	0.056
Mof_H 	H 	0.7394	0.4685	0.2577	-0.011
Mof_H 	H 	0.9665	0.5233	0.0501	0.064
Mof_H 	H 	0.8042	0.5634	0.0638	0.001
Mof_H 	H 	0.4991	0.2404	0.3712	0.041
Mof_H 	H 	0.4624	0.2631	0.4941	0.075
Mof_H 	H 	0.5273	0.4367	0.3121	0.024
Mof_H 	H 	0.4927	0.4578	0.433	0.067
Mof_H 	H 	0.3377	0.348	0.6008	0.088
Mof_H 	H 	0.3066	0.3725	0.7215	-0.005
Mof_H 	H 	0.5675	0.4093	0.5345	0.077
Mof_H 	H 	0.5349	0.4265	0.6551	-0.022
Mof_H 	H 	0.7135	0.0354	0.0786	0.032
Mof_H 	H 	0.7329	0.9118	0.0878	0.073
Mof_H 	H 	0.4251	0.0949	0.1675	0.037
Mof_H 	H 	0.4447	0.9717	0.1891	0.071
Mof_H 	H 	0.7107	0.8094	0.0536	0.076
Mof_H 	H 	0.7185	0.6903	0.0729	-0.004
Mof_H 	H 	0.5028	0.8579	0.2575	0.085
Mof_H 	H 	0.5151	0.7374	0.2702	-0.007
Mof_C 	C 	0.0834	0.6718	0.9568	0.317
Mof_C 	C 	0.1605	0.6535	0.9895	-0.079
Mof_C 	C 	0.1645	0.6058	0.0478	0.014
Mof_C 	C 	0.235	0.5915	0.0777	-0.087
Mof_C 	C 	0.2262	0.691	0.9626	0.017
Mof_C 	C 	0.2931	0.6776	0.9928	-0.088
Mof_C 	C 	0.3003	0.6282	0.0512	0.027
Mof_C 	C 	0.3732	0.6173	0.0829	0.061
Mof_C 	C 	0.42747	0.5471	0.10516	-0.128
Mof_C 	C 	0.4993	0.5397	0.1309	0.066
Mof_C 	C 	0.3935	0.6762	0.092	-0.136
Mof_C 	C 	0.465	0.6634	0.12	0.079
Mof_C 	C 	0.8495	0.6252	0.8842	0.33
Mof_C 	C 	0.77534	0.60109	0.87803	-0.108
Mof_C 	C 	0.7887	0.5822	0.8088	0.022
Mof_C 	C 	0.7231	0.5599	0.7999	-0.098
Mof_C 	C 	0.6941	0.6001	0.9383	0.031
Mof_C 	C 	0.6266	0.5772	0.93	-0.104
Mof_C 	C 	0.6392	0.5573	0.8607	0.025
Mof_C 	C 	0.5681	0.53206	0.85294	0.07
Mof_C 	C 	0.5444	0.5476	0.7914	-0.145
Mof_C 	C 	0.4809	0.5196	0.7846	0.075
Mof_C 	C 	0.5257	0.4888	0.9072	-0.139
Mof_C 	C 	0.4615	0.4635	0.8979	0.069
Mof_C 	C 	0.1078	0.6775	0.7481	0.311
Mof_C 	C 	0.1808	0.6634	0.6708	-0.086
Mof_C 	C 	0.1655	0.7154	0.6162	0.018
Mof_C 	C 	0.2314	0.7023	0.5425	-0.095
Mof_C 	C 	0.2641	0.5984	0.6518	0.026
Mof_C 	C 	0.3286	0.5863	0.5793	-0.099
Mof_C 	C 	0.3145	0.6374	0.5242	0.027
Mof_C 	C 	0.3855	0.6234	0.4462	0.074
Mof_C 	C 	0.3535	0.6349	0.3897	-0.141
Mof_C 	C 	0.4233	0.6205	0.3167	0.076
Mof_C 	C 	0.4867	0.5992	0.4282	-0.158
Mof_C 	C 	0.5495	0.5882	0.3556	0.085
Mof_C 	C 	0.8186	0.8417	0.8941	0.322
Mof_C 	C 	0.7631	0.9227	0.8831	-0.102
Mof_C 	C 	0.779	0.9769	0.9021	0.034
Mof_C 	C 	0.7247	0.0516	0.8938	-0.11
Mof_C 	C 	0.6981	0.9419	0.8479	0.027
Mof_C 	C 	0.6482	0.016	0.8356	-0.105
Mof_C 	C 	0.6606	0.0711	0.8593	0.04
Mof_C 	C 	0.6057	0.1503	0.8471	0.061
Mof_C 	C 	0.5642	0.2035	0.9017	-0.137
Mof_C 	C 	0.5088	0.2752	0.8896	0.071
Mof_C 	C 	0.59	0.175	0.7816	-0.136
Mof_C 	C 	0.5329	0.248	0.774	0.08
Mof_C 	C 	0.712	0.3282	0.0432	0.32
Mof_C 	C 	0.8035	0.3465	0.0105	-0.083
Mof_C 	C 	0.8181	0.3942	0.9522	0.001
Mof_C 	C 	0.9042	0.4085	0.9223	-0.073
Mof_C 	C 	0.8798	0.309	0.0374	0.033
Mof_C 	C 	0.9635	0.3224	0.0072	-0.126
Mof_C 	C 	0.9797	0.3718	0.9488	-0.012
Mof_C 	C 	0.0734	0.3827	0.9171	0.109
Mof_C 	C 	0.07973	0.4529	0.89484	-0.153
Mof_C 	C 	0.1699	0.4603	0.8691	0.081
Mof_C 	C 	0.1617	0.3238	0.908	-0.162
Mof_C 	C 	0.2484	0.3366	0.88	0.093
Mof_C 	C 	0.3589	0.3748	0.1158	0.336
Mof_C 	C 	0.25446	0.39891	0.12197	-0.123
Mof_C 	C 	0.1797	0.4178	0.1912	0.05
Mof_C 	C 	0.0829	0.4401	0.2001	-0.134
Mof_C 	C 	0.2325	0.3999	0.0617	0.056
Mof_C 	C 	0.1338	0.4228	0.07	-0.139
Mof_C 	C 	0.0572	0.4427	0.1393	0.086
Mof_C 	C 	0.9531	0.46794	0.14706	0.008
Mof_C 	C 	0.8834	0.4524	0.2086	-0.111
Mof_C 	C 	0.7851	0.4804	0.2154	0.055
Mof_C 	C 	0.9217	0.5112	0.0928	-0.105
Mof_C 	C 	0.8229	0.5365	0.1021	0.049
Mof_C 	C 	0.5334	0.3225	0.2519	0.314
Mof_C 	C 	0.515	0.3366	0.3292	-0.094
Mof_C 	C 	0.4971	0.2846	0.3838	0.021
Mof_C 	C 	0.4762	0.2977	0.4575	-0.1
Mof_C 	C 	0.5143	0.4016	0.3482	0.029
Mof_C 	C 	0.4942	0.4137	0.4207	-0.103
Mof_C 	C 	0.4761	0.3626	0.4758	0.029
Mof_C 	C 	0.4551	0.3766	0.5538	0.072
Mof_C 	C 	0.3781	0.3651	0.6103	-0.139
Mof_C 	C 	0.3605	0.3795	0.6833	0.076
Mof_C 	C 	0.5141	0.4008	0.5718	-0.156
Mof_C 	C 	0.4933	0.4118	0.6444	0.084
Mof_C 	C 	0.5544	0.1583	0.1059	0.322
Mof_C 	C 	0.5689	0.0773	0.1169	-0.098
Mof_C 	C 	0.658	0.0231	0.0979	0.033
Mof_C 	C 	0.6701	0.9484	0.1062	-0.107
Mof_C 	C 	0.4879	0.0581	0.1521	0.025
Mof_C 	C 	0.4998	0.984	0.1644	-0.103
Mof_C 	C 	0.591	0.9289	0.1407	0.039
Mof_C 	C 	0.6031	0.8497	0.1529	0.062
Mof_C 	C 	0.6694	0.7965	0.0983	-0.138
Mof_C 	C 	0.6736	0.7248	0.1104	0.071
Mof_C 	C 	0.5466	0.825	0.2184	-0.137
Mof_C 	C 	0.5549	0.752	0.226	0.08
Mof_N 	N 	0.52102	0.5973	0.13686	-0.241
Mof_N 	N 	0.44104	0.47622	0.8361	-0.246
Mof_N 	N 	0.52069	0.59716	0.29866	-0.238
Mof_N 	N 	0.4916	0.29858	0.82702	-0.224
Mof_N 	N 	0.25518	0.4027	0.86314	-0.246
Mof_N 	N 	0.75336	0.52378	0.1639	-0.239
Mof_N 	N 	0.41651	0.40284	0.70134	-0.237
Mof_N 	N 	0.6172	0.70142	0.17298	-0.224
Mof_O 	O 	0.07519	0.72477	0.91125	-0.413
Mof_O 	O 	0.0296	0.63519	0.97381	-0.423
Mof_O 	O 	0.83718	0.64594	0.9465	-0.439
Mof_O 	O 	0.92137	0.62643	0.82823	-0.455
Mof_O 	O 	0.11522	0.62626	0.7965	-0.406
Mof_O 	O 	0.03561	0.73935	0.76443	-0.411
Mof_O 	O 	0.8168	0.7936	0.8624	-0.424
Mof_O 	O 	0.87101	0.82399	0.93299	-0.446
Mof_O 	O 	0.71121	0.27523	0.08875	-0.436
Mof_O 	O 	0.6386	0.36481	0.02619	-0.447
Mof_O 	O 	0.42962	0.35406	0.0535	-0.441
Mof_O 	O 	0.37603	0.37357	0.17177	-0.449
Mof_O 	O 	0.53798	0.37374	0.2035	-0.423
Mof_O 	O 	0.53939	0.26065	0.23557	-0.438
Mof_O 	O 	0.4728	0.2064	0.1376	-0.428
Mof_O 	O 	0.62799	0.17601	0.06701	-0.445
Mof_Dy	Dy	0.15633	0.88456	0.29838	2.05
Mof_Dy	Dy	0.33926	0.11544	0.70163	2.028
Mof_Cu	Cu	0.20007	0.18723	0.40929	0.85
Mof_Cu	Cu	0.79659	0.81277	0.59071	0.847
Mof_H 	H 	0.8127	0.0678	0.4174	0.04
Mof_H 	H 	0.6456	0.1159	0.4429	0.064
Mof_H 	H 	0.8525	0.924	0.2752	0.037
Mof_H 	H 	0.6899	0.9737	0.2975	0.061
Mof_H 	H 	0.4825	0.1025	0.4943	0.068
Mof_H 	H 	0.321	0.1448	0.5072	-0.002
Mof_H 	H 	0.5612	0.0795	0.2759	0.085
Mof_H 	H 	0.3978	0.1277	0.2955	-0.009
Mof_H 	H 	0.3893	0.7677	0.4153	0.039
Mof_H 	H 	0.5126	0.7531	0.4537	0.06
Mof_H 	H 	0.3319	0.9846	0.3854	0.019
Mof_H 	H 	0.4561	0.9715	0.4247	0.069
Mof_H 	H 	0.6755	0.7538	0.423	0.076
Mof_H 	H 	0.7921	0.7423	0.4685	-0.022
Mof_H 	H 	0.5102	0.9499	0.5233	0.087
Mof_H 	H 	0.6324	0.9362	0.5634	-0.006
Mof_H 	H 	0.2605	0.6288	0.2404	0.042
Mof_H 	H 	0.2745	0.5059	0.2631	0.074
Mof_H 	H 	0.036	0.6879	0.4367	0.034
Mof_H 	H 	0.0495	0.567	0.4578	0.073
Mof_H 	H 	0.3143	0.3992	0.348	0.089
Mof_H 	H 	0.3209	0.2785	0.3725	-0.005
Mof_H 	H 	0.0232	0.4655	0.4093	0.085
Mof_H 	H 	0.0386	0.3449	0.4265	-0.015
Mof_H 	H 	0.2511	0.9214	0.0354	0.033
Mof_H 	H 	0.3553	0.9122	0.9118	0.079
Mof_H 	H 	0.48	0.8325	0.0949	0.034
Mof_H 	H 	0.5836	0.8109	0.9717	0.074
Mof_H 	H 	0.4799	0.9464	0.8094	0.074
Mof_H 	H 	0.5912	0.9271	0.6903	-0.004
Mof_H 	H 	0.6393	0.7425	0.8579	0.085
Mof_H 	H 	0.7475	0.7298	0.7374	-0.006
Mof_H 	H 	0.2979	0.9322	0.5826	0.054
Mof_H 	H 	0.2044	0.8841	0.5571	0.049
Mof_H 	H 	0.0517	0.076	0.7248	0.076
Mof_H 	H 	0.9611	0.0263	0.7025	0.002
Mof_H 	H 	0.0793	0.8975	0.5057	0.066
Mof_H 	H 	0.973	0.8552	0.4928	-0.001
Mof_H 	H 	0.9166	0.9205	0.7241	0.101
Mof_H 	H 	0.821	0.8723	0.7045	-0.017
Mof_H 	H 	0.5723	0.2323	0.5847	0.038
Mof_H 	H 	0.7194	0.2469	0.5463	0.059
Mof_H 	H 	0.7019	0.0154	0.6146	0.019
Mof_H 	H 	0.8523	0.0285	0.5753	0.065
Mof_H 	H 	0.8523	0.2462	0.577	0.059
Mof_H 	H 	0.0029	0.2577	0.5315	0.038
Mof_H 	H 	0.9834	0.0501	0.4767	0.093
Mof_H 	H 	0.132	0.0638	0.4366	-0.018
Mof_H 	H 	0.1297	0.3712	0.7596	0.022
Mof_H 	H 	0.0435	0.4941	0.7369	0.113
Mof_H 	H 	0.1606	0.3121	0.5633	0.003
Mof_H 	H 	0.0743	0.433	0.5422	0.103
Mof_H 	H 	0.0615	0.6008	0.652	0.029
Mof_H 	H 	0.9719	0.7215	0.6275	0.024
Mof_H 	H 	0.898	0.5345	0.5907	0.034
Mof_H 	H 	0.81	0.6551	0.5735	-0.001
Mof_H 	H 	0.2079	0.0786	0.9646	0.036
Mof_H 	H 	0.1793	0.0878	0.0882	0.078
Mof_H 	H 	0.4074	0.1675	0.9051	0.038
Mof_H 	H 	0.3662	0.1891	0.0283	0.071
Mof_H 	H 	0.2357	0.0536	0.1906	0.076
Mof_H 	H 	0.2086	0.0729	0.3097	-0.003
Mof_H 	H 	0.2397	0.2575	0.1421	0.086
Mof_H 	H 	0.2147	0.2702	0.2626	-0.006
Mof_C 	C 	0.9598	0.9568	0.3282	0.284
Mof_C 	C 	0.85	0.9895	0.3465	-0.076
Mof_C 	C 	0.7877	0.0478	0.3942	0.008
Mof_C 	C 	0.6873	0.0777	0.4085	-0.086
Mof_C 	C 	0.8112	0.9626	0.309	0.009
Mof_C 	C 	0.7141	0.9928	0.3224	-0.086
Mof_C 	C 	0.6485	0.0512	0.3718	0.023
Mof_C 	C 	0.5439	0.0829	0.3827	0.061
Mof_C 	C 	0.46737	0.10516	0.4529	-0.129
Mof_C 	C 	0.3698	0.1309	0.4603	0.066
Mof_C 	C 	0.5145	0.092	0.3238	-0.137
Mof_C 	C 	0.415	0.12	0.3366	0.078
Mof_C 	C 	0.2663	0.8842	0.3748	0.327
Mof_C 	C 	0.34663	0.87803	0.39891	-0.1
Mof_C 	C 	0.4025	0.8088	0.4178	0.019
Mof_C 	C 	0.477	0.7999	0.4401	-0.094
Mof_C 	C 	0.3676	0.9383	0.3999	0.027
Mof_C 	C 	0.4434	0.93	0.4228	-0.101
Mof_C 	C 	0.5001	0.8607	0.4427	0.022
Mof_C 	C 	0.57896	0.85294	0.46794	0.072
Mof_C 	C 	0.6642	0.7914	0.4524	-0.147
Mof_C 	C 	0.7345	0.7846	0.4804	0.075
Mof_C 	C 	0.5671	0.9072	0.5112	-0.14
Mof_C 	C 	0.6406	0.8979	0.5365	0.07
Mof_C 	C 	0.1441	0.7481	0.3225	0.312
Mof_C 	C 	0.1484	0.6708	0.3366	-0.088
Mof_C 	C 	0.2183	0.6162	0.2846	0.019
Mof_C 	C 	0.2261	0.5425	0.2977	-0.097
Mof_C 	C 	0.0841	0.6518	0.4016	0.027
Mof_C 	C 	0.0921	0.5793	0.4137	-0.099
Mof_C 	C 	0.1613	0.5242	0.3626	0.029
Mof_C 	C 	0.1683	0.4462	0.3766	0.075
Mof_C 	C 	0.2568	0.3897	0.3651	-0.141
Mof_C 	C 	0.26	0.3167	0.3795	0.077
Mof_C 	C 	0.0851	0.4282	0.4008	-0.157
Mof_C 	C 	0.0949	0.3556	0.4118	0.085
Mof_C 	C 	0.2873	0.8941	0.1583	0.324
Mof_C 	C 	0.3538	0.8831	0.0773	-0.103
Mof_C 	C 	0.3189	0.9021	0.0231	0.042
Mof_C 	C 	0.3815	0.8938	0.9484	-0.116
Mof_C 	C 	0.454	0.8479	0.0581	0.035
Mof_C 	C 	0.5162	0.8356	0.984	-0.114
Mof_C 	C 	0.4801	0.8593	0.9289	0.047
Mof_C 	C 	0.5472	0.8471	0.8497	0.059
Mof_C 	C 	0.5341	0.9017	0.7965	-0.134
Mof_C 	C 	0.6016	0.8896	0.7248	0.071
Mof_C 	C 	0.6284	0.7816	0.825	-0.134
Mof_C 	C 	0.6931	0.774	0.752	0.079
Mof_C 	C 	0.2448	0.0432	0.6718	0.307
Mof_C 	C 	0.186	0.0105	0.6535	-0.042
Mof_C 	C 	0.2297	0.9522	0.6058	-0.028
Mof_C 	C 	0.1735	0.9223	0.5915	-0.038
Mof_C 	C 	0.0828	0.0374	0.691	-0.057
Mof_C 	C 	0.0293	0.0072	0.6776	0.03
Mof_C 	C 	0.0715	0.9488	0.6282	-0.035
Mof_C 	C 	0.0095	0.9171	0.6173	0.122
Mof_C 	C 	0.02543	0.89484	0.5471	-0.104
Mof_C 	C 	0.961	0.8691	0.5397	0.029
Mof_C 	C 	0.9303	0.908	0.6762	-0.204
Mof_C 	C 	0.8716	0.88	0.6634	0.1
Mof_C 	C 	0.5253	0.1158	0.6252	0.328
Mof_C 	C 	0.62357	0.12197	0.60109	-0.101
Mof_C 	C 	0.6291	0.1912	0.5822	0.018
Mof_C 	C 	0.717	0.2001	0.5599	-0.094
Mof_C 	C 	0.7058	0.0617	0.6001	0.026
Mof_C 	C 	0.7962	0.07	0.5772	-0.099
Mof_C 	C 	0.8035	0.1393	0.5573	0.022
Mof_C 	C 	0.89984	0.14706	0.53206	0.066
Mof_C 	C 	0.908	0.2086	0.5476	-0.107
Mof_C 	C 	0.9995	0.2154	0.5196	-0.027
Mof_C 	C 	0.9855	0.0928	0.4888	-0.183
Mof_C 	C 	0.075	0.1021	0.4635	0.116
Mof_C 	C 	0.2147	0.2519	0.6775	0.331
Mof_C 	C 	0.1558	0.3292	0.6634	-0.136
Mof_C 	C 	0.1191	0.3838	0.7154	0.084
Mof_C 	C 	0.0663	0.4575	0.7023	-0.18
Mof_C 	C 	0.1375	0.3482	0.5984	0.093
Mof_C 	C 	0.0851	0.4207	0.5863	-0.188
Mof_C 	C 	0.0481	0.4758	0.6374	0.154
Mof_C 	C 	0.9911	0.5538	0.6234	-0.099
Mof_C 	C 	0.0116	0.6103	0.6349	0.048
Mof_C 	C 	0.9562	0.6833	0.6205	-0.041
Mof_C 	C 	0.9141	0.5718	0.5992	-0.056
Mof_C 	C 	0.8623	0.6444	0.5882	0.019
Mof_C 	C 	0.3397	0.1059	0.8417	0.322
Mof_C 	C 	0.3142	0.1169	0.9227	-0.097
Mof_C 	C 	0.2441	0.0979	0.9769	0.034
Mof_C 	C 	0.2237	0.1062	0.0516	-0.107
Mof_C 	C 	0.36	0.1521	0.9419	0.025
Mof_C 	C 	0.3358	0.1644	0.016	-0.103
Mof_C 	C 	0.2683	0.1407	0.0711	0.041
Mof_C 	C 	0.244	0.1529	0.1503	0.064
Mof_C 	C 	0.2323	0.0983	0.2035	-0.135
Mof_C 	C 	0.216	0.1104	0.2752	0.074
Mof_C 	C 	0.235	0.2184	0.175	-0.135
Mof_C 	C 	0.2191	0.226	0.248	0.083
Mof_N 	N 	0.34212	0.13686	0.4027	-0.241
Mof_N 	N 	0.72286	0.8361	0.52378	-0.247
Mof_N 	N 	0.18065	0.29866	0.40284	-0.236
Mof_N 	N 	0.68138	0.82702	0.70142	-0.223
Mof_N 	N 	0.88168	0.86314	0.5973	-0.242
Mof_N 	N 	0.08274	0.1639	0.47622	-0.225
Mof_N 	N 	0.88215	0.70134	0.59716	-0.208
Mof_N 	N 	0.20982	0.17298	0.29858	-0.223
Mof_O 	O 	0.01356	0.91125	0.27523	-0.403
Mof_O 	O 	0.99659	0.97381	0.36481	-0.457
Mof_O 	O 	0.21632	0.9465	0.35406	-0.437
Mof_O 	O 	0.2504	0.82823	0.37357	-0.448
Mof_O 	O 	0.08828	0.7965	0.37374	-0.414
Mof_O 	O 	0.19996	0.76443	0.26065	-0.438
Mof_O 	O 	0.3208	0.8624	0.2064	-0.43
Mof_O 	O 	0.196	0.93299	0.17601	-0.442
Mof_O 	O 	0.20004	0.08875	0.72477	-0.427
Mof_O 	O 	0.33521	0.02619	0.63519	-0.444
Mof_O 	O 	0.51688	0.0535	0.64594	-0.44
Mof_O 	O 	0.4522	0.17177	0.62643	-0.447
Mof_O 	O 	0.25852	0.2035	0.62626	-0.426
Mof_O 	O 	0.22504	0.23557	0.73935	-0.439
Mof_O 	O 	0.3896	0.1376	0.7936	-0.427
Mof_O 	O 	0.305	0.06701	0.82399	-0.442
_end
