data_functionalizedCrystal
_audit_creation_method	'EQeq! by Chris Wilmer'
_symmetry_space_group_name_H-M	'P1'
_symmetry_Int_Tables_number	1
_symmetry_cell_setting	triclinic
loop_
_symmetry_equiv_pos_as_xyz
  x,y,z
_cell_length_a	18.0648
_cell_length_b	18.0648
_cell_length_c	17.1132
_cell_angle_alpha	90
_cell_angle_beta	90
_cell_angle_gamma	90
loop_
_atom_site_label
_atom_site_type_symbol
_atom_site_fract_x
_atom_site_fract_y
_atom_site_fract_z
_atom_site_charge
Mof_C 	C 	0.7268	0.0011	0.4863	0.002
Mof_H 	H 	0.7539	0.0014	0.4387	0.065
Mof_C 	C 	0.7104	0.0675	0.5237	-0.067
Mof_C 	C 	0.6707	0.0671	0.5933	-0.028
Mof_H 	H 	0.6596	0.1124	0.6189	0.065
Mof_C 	C 	0.6475	0.0004	0.6255	0.027
Mof_C 	C 	0.6638	0.9341	0.5881	-0.038
Mof_H 	H 	0.6479	0.8885	0.6101	0.069
Mof_C 	C 	0.7035	0.9344	0.5185	-0.046
Mof_C 	C 	0.545	0.057	0.9825	0.005
Mof_C 	C 	0.536	0.1061	0.048	0
Mof_C 	C 	0.5019	0.1414	0.1806	0.025
Mof_C 	C 	0.4352	0.1567	0.2177	-0.029
Mof_H 	H 	0.39	0.1395	0.1959	0.064
Mof_C 	C 	0.4346	0.1973	0.2867	-0.071
Mof_C 	C 	0.5007	0.2225	0.3187	0.012
Mof_H 	H 	0.5002	0.2503	0.3658	0.058
Mof_C 	C 	0.5674	0.2072	0.2816	-0.058
Mof_C 	C 	0.568	0.1666	0.2126	-0.033
Mof_H 	H 	0.6136	0.1562	0.1872	0.066
Mof_C 	C 	0.5445	0.9323	0.9387	-0.023
Mof_C 	C 	0.5346	0.9821	0.9993	0.007
Mof_C 	C 	0.5144	0.9577	0.0731	0.001
Mof_C 	C 	0.496	0.1167	0.0865	0.031
Mof_C 	C 	0.486	0.1665	0.026	-0.046
Mof_C 	C 	0.5342	0.858	0.9521	0.126
Mof_C 	C 	0.514	0.0754	0.12	-0.036
Mof_C 	C 	0.513	0.0015	0.1396	0.01
Mof_C 	C 	0.6207	0.9975	0.7125	0.01
Mof_C 	C 	0.5457	0.989	0.7278	0.002
Mof_C 	C 	0.522	0.9722	0.8031	0.003
Mof_C 	C 	0.5733	0.964	0.8629	-0.005
Mof_C 	C 	0.6484	0.9725	0.8475	0.095
Mof_C 	C 	0.6721	0.9893	0.7723	-0.024
Mof_C 	C 	0.5747	0.0148	0.6789	-0.021
Mof_C 	C 	0.6044	0.0455	0.7474	0
Mof_C 	C 	0.4485	0.9471	0.8086	0.009
Mof_Cu	Cu	0.7093	0.7141	0.45289	0.911
Mof_Cu	Cu	0.7869	0.7896	0.34758	0.923
Mof_C 	C 	0.6356	0.2294	0.3248	0.312
Mof_C 	C 	0.3645	0.2157	0.3252	0.339
Mof_O 	O 	0.7625	0.874	0.4122	-0.38
Mof_C 	C 	0.7238	0.8656	0.4761	0.302
Mof_O 	O 	0.697	0.8068	0.5069	-0.389
Mof_O 	O 	0.8668	0.7594	0.4093	-0.398
Mof_C 	C 	0.7278	0.1335	0.4791	0.323
Mof_O 	O 	0.8053	0.7067	0.5084	-0.381
Mof_O 	O 	0.3046	0.1877	0.3003	-0.397
Mof_O 	O 	0.7001	0.2062	0.2948	-0.384
Mof_O 	O 	0.6318	0.2678	0.3869	-0.391
Mof_O 	O 	0.3661	0.2667	0.3778	-0.401
Mof_O 	O 	0.5508	0.8175	0.887	-0.217
Mof_O 	O 	0.7005	0.9847	0.9113	-0.196
Mof_C 	C 	0.813	0.922	0.93	-0.029
Mof_C 	C 	0.839	0.877	0.99	0.008
Mof_C 	C 	0.912	0.882	0.013	0.003
Mof_C 	C 	0.96	0.93	0.976	-0
Mof_C 	C 	0.935	0.975	0.916	-0.003
Mof_C 	C 	0.861	0.971	0.893	0.021
Mof_C 	C 	0.737	0.918	0.908	0.1
Mof_C 	C 	0.5292	0.6984	0.9323	-0.029
Mof_C 	C 	0.466	0.687	0.8871	0.022
Mof_C 	C 	0.415	0.633	0.909	-0.008
Mof_C 	C 	0.426	0.592	0.977	-0.002
Mof_C 	C 	0.489	0.6039	0.022	0.005
Mof_C 	C 	0.541	0.657	0.9998	0.007
Mof_C 	C 	0.585	0.7545	0.91	0.105
Mof_C 	C 	0.2732	0.9989	0.4863	0.002
Mof_H 	H 	0.2461	0.9986	0.4387	0.064
Mof_C 	C 	0.2896	0.9325	0.5237	-0.068
Mof_C 	C 	0.3293	0.9329	0.5933	-0.029
Mof_H 	H 	0.3404	0.8876	0.6189	0.064
Mof_C 	C 	0.3525	0.9996	0.6255	0.027
Mof_C 	C 	0.3362	0.0659	0.5881	-0.04
Mof_H 	H 	0.3521	0.1115	0.6101	0.068
Mof_C 	C 	0.2965	0.0656	0.5185	-0.047
Mof_C 	C 	0.455	0.943	0.9825	0.006
Mof_C 	C 	0.464	0.8939	0.048	0
Mof_C 	C 	0.4981	0.8586	0.1806	0.025
Mof_C 	C 	0.5648	0.8433	0.2177	-0.029
Mof_H 	H 	0.61	0.8605	0.1959	0.064
Mof_C 	C 	0.5654	0.8027	0.2867	-0.071
Mof_C 	C 	0.4993	0.7775	0.3187	0.012
Mof_H 	H 	0.4998	0.7497	0.3658	0.058
Mof_C 	C 	0.4326	0.7928	0.2816	-0.058
Mof_C 	C 	0.432	0.8334	0.2126	-0.033
Mof_H 	H 	0.3864	0.8438	0.1872	0.066
Mof_C 	C 	0.4555	0.0677	0.9387	-0.023
Mof_C 	C 	0.4654	0.0179	0.9993	0.006
Mof_C 	C 	0.4856	0.0423	0.0731	0.001
Mof_C 	C 	0.504	0.8833	0.0865	0.031
Mof_C 	C 	0.514	0.8335	0.026	-0.046
Mof_C 	C 	0.4658	0.142	0.9521	0.126
Mof_C 	C 	0.486	0.9246	0.12	-0.035
Mof_C 	C 	0.487	0.9985	0.1396	0.008
Mof_C 	C 	0.3793	0.0025	0.7125	0.008
Mof_C 	C 	0.4543	0.011	0.7278	0.001
Mof_C 	C 	0.478	0.0278	0.8031	0.003
Mof_C 	C 	0.4267	0.036	0.8629	-0.005
Mof_C 	C 	0.3516	0.0275	0.8475	0.095
Mof_C 	C 	0.3279	0.0107	0.7723	-0.024
Mof_C 	C 	0.4253	0.9852	0.6789	-0.02
Mof_C 	C 	0.3956	0.9545	0.7474	0.001
Mof_C 	C 	0.5515	0.0529	0.8086	0.009
Mof_Cu	Cu	0.2907	0.2859	0.45289	0.911
Mof_Cu	Cu	0.2131	0.2104	0.34758	0.923
Mof_C 	C 	0.3644	0.7706	0.3248	0.312
Mof_C 	C 	0.6355	0.7843	0.3252	0.339
Mof_O 	O 	0.2375	0.126	0.4122	-0.38
Mof_C 	C 	0.2762	0.1344	0.4761	0.302
Mof_O 	O 	0.303	0.1932	0.5069	-0.389
Mof_O 	O 	0.1332	0.2406	0.4093	-0.398
Mof_C 	C 	0.2722	0.8665	0.4791	0.323
Mof_O 	O 	0.1947	0.2933	0.5084	-0.381
Mof_O 	O 	0.6954	0.8123	0.3003	-0.397
Mof_O 	O 	0.2999	0.7938	0.2948	-0.384
Mof_O 	O 	0.3682	0.7322	0.3869	-0.391
Mof_O 	O 	0.6339	0.7333	0.3778	-0.401
Mof_O 	O 	0.4492	0.1825	0.887	-0.217
Mof_O 	O 	0.2995	0.0153	0.9113	-0.197
Mof_C 	C 	0.187	0.078	0.93	-0.029
Mof_C 	C 	0.161	0.123	0.99	0.008
Mof_C 	C 	0.088	0.118	0.013	0.003
Mof_C 	C 	0.04	0.07	0.976	-0
Mof_C 	C 	0.065	0.025	0.916	-0.004
Mof_C 	C 	0.139	0.029	0.893	0.021
Mof_C 	C 	0.263	0.082	0.908	0.1
Mof_C 	C 	0.4708	0.3016	0.9323	-0.029
Mof_C 	C 	0.534	0.313	0.8871	0.022
Mof_C 	C 	0.585	0.367	0.909	-0.008
Mof_C 	C 	0.574	0.408	0.977	-0.002
Mof_C 	C 	0.511	0.3961	0.022	0.005
Mof_C 	C 	0.459	0.343	0.9998	0.007
Mof_C 	C 	0.415	0.2455	0.91	0.105
Mof_C 	C 	0.9989	0.7268	0.4863	0.002
Mof_H 	H 	0.9986	0.7539	0.4387	0.064
Mof_C 	C 	0.9325	0.7104	0.5237	-0.068
Mof_C 	C 	0.9329	0.6707	0.5933	-0.029
Mof_H 	H 	0.8876	0.6596	0.6189	0.064
Mof_C 	C 	0.9996	0.6475	0.6255	0.027
Mof_C 	C 	0.0659	0.6638	0.5881	-0.04
Mof_H 	H 	0.1115	0.6479	0.6101	0.068
Mof_C 	C 	0.0656	0.7035	0.5185	-0.047
Mof_C 	C 	0.943	0.545	0.9825	0.006
Mof_C 	C 	0.8939	0.536	0.048	0
Mof_C 	C 	0.8586	0.5019	0.1806	0.025
Mof_C 	C 	0.8433	0.4352	0.2177	-0.029
Mof_H 	H 	0.8605	0.39	0.1959	0.064
Mof_C 	C 	0.8027	0.4346	0.2867	-0.071
Mof_C 	C 	0.7775	0.5007	0.3187	0.012
Mof_H 	H 	0.7497	0.5002	0.3658	0.058
Mof_C 	C 	0.7928	0.5674	0.2816	-0.058
Mof_C 	C 	0.8334	0.568	0.2126	-0.033
Mof_H 	H 	0.8438	0.6136	0.1872	0.066
Mof_C 	C 	0.0677	0.5445	0.9387	-0.023
Mof_C 	C 	0.0179	0.5346	0.9993	0.006
Mof_C 	C 	0.0423	0.5144	0.0731	0.001
Mof_C 	C 	0.8833	0.496	0.0865	0.031
Mof_C 	C 	0.8335	0.486	0.026	-0.046
Mof_C 	C 	0.142	0.5342	0.9521	0.126
Mof_C 	C 	0.9246	0.514	0.12	-0.035
Mof_C 	C 	0.9985	0.513	0.1396	0.008
Mof_C 	C 	0.0025	0.6207	0.7125	0.008
Mof_C 	C 	0.011	0.5457	0.7278	0.001
Mof_C 	C 	0.0278	0.522	0.8031	0.003
Mof_C 	C 	0.036	0.5733	0.8629	-0.005
Mof_C 	C 	0.0275	0.6484	0.8475	0.095
Mof_C 	C 	0.0107	0.6721	0.7723	-0.024
Mof_C 	C 	0.9852	0.5747	0.6789	-0.02
Mof_C 	C 	0.9545	0.6044	0.7474	0.001
Mof_C 	C 	0.0529	0.4485	0.8086	0.009
Mof_Cu	Cu	0.2859	0.7093	0.45289	0.911
Mof_Cu	Cu	0.2104	0.7869	0.34758	0.923
Mof_C 	C 	0.7706	0.6356	0.3248	0.312
Mof_C 	C 	0.7843	0.3645	0.3252	0.339
Mof_O 	O 	0.126	0.7625	0.4122	-0.38
Mof_C 	C 	0.1344	0.7238	0.4761	0.302
Mof_O 	O 	0.1932	0.697	0.5069	-0.389
Mof_O 	O 	0.2406	0.8668	0.4093	-0.398
Mof_C 	C 	0.8665	0.7278	0.4791	0.323
Mof_O 	O 	0.2933	0.8053	0.5084	-0.381
Mof_O 	O 	0.8123	0.3046	0.3003	-0.397
Mof_O 	O 	0.7938	0.7001	0.2948	-0.384
Mof_O 	O 	0.7322	0.6318	0.3869	-0.391
Mof_O 	O 	0.7333	0.3661	0.3778	-0.401
Mof_O 	O 	0.1825	0.5508	0.887	-0.217
Mof_O 	O 	0.0153	0.7005	0.9113	-0.197
Mof_C 	C 	0.078	0.813	0.93	-0.029
Mof_C 	C 	0.123	0.839	0.99	0.008
Mof_C 	C 	0.118	0.912	0.013	0.003
Mof_C 	C 	0.07	0.96	0.976	-0
Mof_C 	C 	0.025	0.935	0.916	-0.004
Mof_C 	C 	0.029	0.861	0.893	0.021
Mof_C 	C 	0.082	0.737	0.908	0.1
Mof_C 	C 	0.3016	0.5292	0.9323	-0.029
Mof_C 	C 	0.313	0.466	0.8871	0.022
Mof_C 	C 	0.367	0.415	0.909	-0.008
Mof_C 	C 	0.408	0.426	0.977	-0.002
Mof_C 	C 	0.3961	0.489	0.022	0.005
Mof_C 	C 	0.343	0.541	0.9998	0.007
Mof_C 	C 	0.2455	0.585	0.91	0.105
Mof_C 	C 	0.0011	0.2732	0.4863	0.001
Mof_H 	H 	0.0014	0.2461	0.4387	0.064
Mof_C 	C 	0.0675	0.2896	0.5237	-0.068
Mof_C 	C 	0.0671	0.3293	0.5933	-0.029
Mof_H 	H 	0.1124	0.3404	0.6189	0.064
Mof_C 	C 	0.0004	0.3525	0.6255	0.026
Mof_C 	C 	0.9341	0.3362	0.5881	-0.039
Mof_H 	H 	0.8885	0.3521	0.6101	0.068
Mof_C 	C 	0.9344	0.2965	0.5185	-0.047
Mof_C 	C 	0.057	0.455	0.9825	0.005
Mof_C 	C 	0.1061	0.464	0.048	0
Mof_C 	C 	0.1414	0.4981	0.1806	0.025
Mof_C 	C 	0.1567	0.5648	0.2177	-0.029
Mof_H 	H 	0.1395	0.61	0.1959	0.064
Mof_C 	C 	0.1973	0.5654	0.2867	-0.071
Mof_C 	C 	0.2225	0.4993	0.3187	0.012
Mof_H 	H 	0.2503	0.4998	0.3658	0.058
Mof_C 	C 	0.2072	0.4326	0.2816	-0.058
Mof_C 	C 	0.1666	0.432	0.2126	-0.033
Mof_H 	H 	0.1562	0.3864	0.1872	0.066
Mof_C 	C 	0.9323	0.4555	0.9387	-0.023
Mof_C 	C 	0.9821	0.4654	0.9993	0.007
Mof_C 	C 	0.9577	0.4856	0.0731	0.001
Mof_C 	C 	0.1167	0.504	0.0865	0.031
Mof_C 	C 	0.1665	0.514	0.026	-0.046
Mof_C 	C 	0.858	0.4658	0.9521	0.126
Mof_C 	C 	0.0754	0.486	0.12	-0.036
Mof_C 	C 	0.0015	0.487	0.1396	0.01
Mof_C 	C 	0.9975	0.3793	0.7125	0.01
Mof_C 	C 	0.989	0.4543	0.7278	0.002
Mof_C 	C 	0.9722	0.478	0.8031	0.003
Mof_C 	C 	0.964	0.4267	0.8629	-0.005
Mof_C 	C 	0.9725	0.3516	0.8475	0.095
Mof_C 	C 	0.9893	0.3279	0.7723	-0.024
Mof_C 	C 	0.0148	0.4253	0.6789	-0.021
Mof_C 	C 	0.0455	0.3956	0.7474	0
Mof_C 	C 	0.9471	0.5515	0.8086	0.009
Mof_Cu	Cu	0.7141	0.2907	0.45289	0.911
Mof_Cu	Cu	0.7896	0.2131	0.34758	0.923
Mof_C 	C 	0.2294	0.3644	0.3248	0.312
Mof_C 	C 	0.2157	0.6355	0.3252	0.339
Mof_O 	O 	0.874	0.2375	0.4122	-0.38
Mof_C 	C 	0.8656	0.2762	0.4761	0.302
Mof_O 	O 	0.8068	0.303	0.5069	-0.389
Mof_O 	O 	0.7594	0.1332	0.4093	-0.398
Mof_C 	C 	0.1335	0.2722	0.4791	0.323
Mof_O 	O 	0.7067	0.1947	0.5084	-0.381
Mof_O 	O 	0.1877	0.6954	0.3003	-0.397
Mof_O 	O 	0.2062	0.2999	0.2948	-0.384
Mof_O 	O 	0.2678	0.3682	0.3869	-0.391
Mof_O 	O 	0.2667	0.6339	0.3778	-0.401
Mof_O 	O 	0.8175	0.4492	0.887	-0.217
Mof_O 	O 	0.9847	0.2995	0.9113	-0.196
Mof_C 	C 	0.922	0.187	0.93	-0.029
Mof_C 	C 	0.877	0.161	0.99	0.008
Mof_C 	C 	0.882	0.088	0.013	0.003
Mof_C 	C 	0.93	0.04	0.976	-0
Mof_C 	C 	0.975	0.065	0.916	-0.004
Mof_C 	C 	0.971	0.139	0.893	0.021
Mof_C 	C 	0.918	0.263	0.908	0.1
Mof_C 	C 	0.6984	0.4708	0.9323	-0.029
Mof_C 	C 	0.687	0.534	0.8871	0.022
Mof_C 	C 	0.633	0.585	0.909	-0.008
Mof_C 	C 	0.592	0.574	0.977	-0.002
Mof_C 	C 	0.6039	0.511	0.022	0.005
Mof_C 	C 	0.657	0.459	0.9998	0.007
Mof_C 	C 	0.7545	0.415	0.91	0.105
Mof_C 	C 	0.5	0	0.6653	0.011
Mof_C 	C 	-2.15708e-33	0.5	0.6653	0.011
_end
