data_functionalizedCrystal
_audit_creation_method	'EQeq! by Chris Wilmer'
_symmetry_space_group_name_H-M	'P1'
_symmetry_Int_Tables_number	1
_symmetry_cell_setting	triclinic
loop_
_symmetry_equiv_pos_as_xyz
  x,y,z
_cell_length_a	12.0249
_cell_length_b	12.1873
_cell_length_c	14.8685
_cell_angle_alpha	67.916
_cell_angle_beta	74.121
_cell_angle_gamma	63.581
loop_
_atom_site_label
_atom_site_type_symbol
_atom_site_fract_x
_atom_site_fract_y
_atom_site_fract_z
_atom_site_charge
Mof_Cd	Cd	0.73841	0.66588	0.99184	0.523
Mof_Mo	Mo	0.26322	0.5955	0.32267	1.119
Mof_Mo	Mo	0.57791	0.79088	0.32646	1.143
Mof_Mo	Mo	0.74712	0.30293	0.33316	1.124
Mof_Mo	Mo	0.28105	0.79804	0.32472	1.13
Mof_Mo	Mo	0.52894	0.31032	0.33042	1.129
Mof_Mo	Mo	0.77606	0.58154	0.32896	1.14
Mof_P 	P 	0.55163	0.60596	0.21542	0.587
Mof_P 	P 	0.39171	0.00809	0.15956	0.556
Mof_P 	P 	0.93785	0.42362	0.16583	0.557
Mof_P 	P 	0.3067	0.40693	0.19429	0.546
Mof_O 	O 	0.5723	0.6514	0.1063	-0.251
Mof_O 	O 	0.356	0.1476	0.115	-0.262
Mof_O 	O 	0.9137	0.5162	0.2229	-0.399
Mof_O 	O 	0.3115	0.4302	0.0855	-0.221
Mof_O 	O 	0.883	0.4854	0.0715	-0.258
Mof_O 	O 	0.0846	0.3591	0.1413	-0.219
Mof_O 	O 	0.8979	0.3123	0.2316	-0.405
Mof_O 	O 	0.4683	0.5269	0.2551	-0.406
Mof_O 	O 	0.2531	0.537	0.2145	-0.385
Mof_O 	O 	0.2228	0.332	0.2562	-0.254
Mof_O 	O 	0.6184	0.6162	0.4178	-0.557
Mof_O 	O 	0.6754	0.5205	0.2609	-0.429
Mof_O 	O 	0.2855	0.9666	0.2219	-0.395
Mof_O 	O 	0.441	0.3296	0.2224	-0.381
Mof_O 	O 	0.4986	0.9556	0.2208	-0.398
Mof_O 	O 	0.2498	0.7577	0.2233	-0.504
Mof_O 	O 	0.8109	0.3854	0.4022	-0.464
Mof_O 	O 	0.3903	0.8321	0.3954	-0.464
Mof_O 	O 	0.3473	0.3979	0.3959	-0.473
Mof_O 	O 	0.4858	0.7212	0.2591	-0.422
Mof_O 	O 	0.5884	0.353	0.419	-0.553
Mof_O 	O 	0.3344	0.6231	0.4136	-0.55
Mof_O 	O 	0.6743	0.3021	0.2321	-0.501
Mof_O 	O 	0.7182	0.7426	0.229	-0.527
Mof_O 	O 	0.4413	0.9396	0.0764	-0.174
Mof_Cd	Cd	0.26159	0.33412	0.00816	0.522
Mof_Mo	Mo	0.73678	0.4045	0.67733	1.118
Mof_Mo	Mo	0.42209	0.20912	0.67354	1.142
Mof_Mo	Mo	0.25288	0.69707	0.66684	1.124
Mof_Mo	Mo	0.71895	0.20196	0.67528	1.13
Mof_Mo	Mo	0.47106	0.68968	0.66958	1.129
Mof_Mo	Mo	0.22394	0.41846	0.67104	1.14
Mof_P 	P 	0.44837	0.39404	0.78458	0.587
Mof_P 	P 	0.60829	0.99191	0.84044	0.556
Mof_P 	P 	0.06215	0.57638	0.83417	0.557
Mof_P 	P 	0.6933	0.59307	0.80571	0.546
Mof_O 	O 	0.4277	0.3486	0.8937	-0.251
Mof_O 	O 	0.644	0.8524	0.885	-0.262
Mof_O 	O 	0.0863	0.4838	0.7771	-0.399
Mof_O 	O 	0.6885	0.5698	0.9145	-0.221
Mof_O 	O 	0.117	0.5146	0.9285	-0.258
Mof_O 	O 	0.9154	0.6409	0.8587	-0.219
Mof_O 	O 	0.1021	0.6877	0.7684	-0.405
Mof_O 	O 	0.5317	0.4731	0.7449	-0.406
Mof_O 	O 	0.7469	0.463	0.7855	-0.385
Mof_O 	O 	0.7772	0.668	0.7438	-0.254
Mof_O 	O 	0.3816	0.3838	0.5822	-0.557
Mof_O 	O 	0.3246	0.4795	0.7391	-0.429
Mof_O 	O 	0.7145	0.0334	0.7781	-0.395
Mof_O 	O 	0.559	0.6704	0.7776	-0.381
Mof_O 	O 	0.5014	0.0444	0.7792	-0.398
Mof_O 	O 	0.7502	0.2423	0.7767	-0.504
Mof_O 	O 	0.1891	0.6146	0.5978	-0.464
Mof_O 	O 	0.6097	0.1679	0.6046	-0.464
Mof_O 	O 	0.6527	0.6021	0.6041	-0.473
Mof_O 	O 	0.5142	0.2788	0.7409	-0.422
Mof_O 	O 	0.4116	0.647	0.581	-0.553
Mof_O 	O 	0.6656	0.3769	0.5864	-0.55
Mof_O 	O 	0.3257	0.6979	0.7679	-0.501
Mof_O 	O 	0.2818	0.2574	0.771	-0.527
Mof_O 	O 	0.5587	0.0604	0.9236	-0.174
Mof_Cd	Cd	0.5	0.5	0.5	0.599
_end
