data_functionalizedCrystal
_audit_creation_method	'EQeq! by Chris Wilmer'
_symmetry_space_group_name_H-M	'P1'
_symmetry_Int_Tables_number	1
_symmetry_cell_setting	triclinic
loop_
_symmetry_equiv_pos_as_xyz
  x,y,z
_cell_length_a	7.8681
_cell_length_b	10.1311
_cell_length_c	13.4927
_cell_angle_alpha	68.376
_cell_angle_beta	79.855
_cell_angle_gamma	70.823
loop_
_atom_site_label
_atom_site_type_symbol
_atom_site_fract_x
_atom_site_fract_y
_atom_site_fract_z
_atom_site_charge
Mof_Cd	Cd	0.67278	0.84377	0.95656	0.502
Mof_Cd	Cd	0.32722	0.15623	0.04344	0.436
Mof_Cd	Cd	-3.01557e-17	0.5	-0	0.375
Mof_H 	H 	0.7023	0.2745	0.6723	0.063
Mof_H 	H 	0.6452	0.3684	0.9432	0.074
Mof_H 	H 	0.5648	0.7392	0.4869	0.081
Mof_H 	H 	0.6679	0.6845	0.6576	0.063
Mof_H 	H 	0.9481	0.3861	0.346	0.044
Mof_H 	H 	0.8987	0.3322	0.5277	0.088
Mof_H 	H 	0.6136	0.7966	0.3042	0.048
Mof_H 	H 	0.2977	0.7255	0.3277	0.056
Mof_H 	H 	0.3548	0.6316	0.0568	0.049
Mof_H 	H 	0.4352	0.2608	0.5131	0.082
Mof_H 	H 	0.3321	0.3155	0.3424	0.051
Mof_H 	H 	0.0519	0.6139	0.654	0.028
Mof_H 	H 	0.1013	0.6678	0.4723	0.077
Mof_H 	H 	0.3864	0.2034	0.6958	0.044
Mof_C 	C 	0.6631	0.1434	0.8768	0.294
Mof_C 	C 	0.67	0.2989	0.8166	-0.041
Mof_C 	C 	0.6904	0.3426	0.706	-0.032
Mof_C 	C 	0.6587	0.5422	0.8089	-0.041
Mof_C 	C 	0.6564	0.6498	0.8612	0.297
Mof_C 	C 	0.6561	0.3983	0.869	-0.003
Mof_C 	C 	0.6409	0.668	0.4585	-0.115
Mof_C 	C 	0.6726	0.5865	0.6973	-0.03
Mof_C 	C 	0.871	0.4578	0.3736	0.044
Mof_C 	C 	0.7869	0.5982	0.3043	-0.093
Mof_C 	C 	0.6933	0.4866	0.6444	-0
Mof_C 	C 	0.8399	0.4253	0.4825	-0.117
Mof_C 	C 	0.7234	0.5284	0.5256	0.074
Mof_C 	C 	0.6712	0.7026	0.3488	0.038
Mof_C 	C 	0.816	0.6321	0.1856	0.339
Mof_C 	C 	0.3369	0.8566	0.1232	0.297
Mof_C 	C 	0.33	0.7011	0.1834	-0.064
Mof_C 	C 	0.3096	0.6574	0.294	-0.025
Mof_C 	C 	0.3413	0.4578	0.1911	-0.064
Mof_C 	C 	0.3436	0.3502	0.1388	0.299
Mof_C 	C 	0.3439	0.6017	0.131	0.006
Mof_C 	C 	0.3591	0.332	0.5415	-0.126
Mof_C 	C 	0.3274	0.4135	0.3027	-0.025
Mof_C 	C 	0.129	0.5422	0.6264	0.043
Mof_C 	C 	0.2131	0.4018	0.6957	-0.104
Mof_C 	C 	0.3067	0.5134	0.3556	-0.017
Mof_C 	C 	0.1601	0.5747	0.5175	-0.129
Mof_C 	C 	0.2766	0.4716	0.4744	0.074
Mof_C 	C 	0.3288	0.2974	0.6512	0.038
Mof_C 	C 	0.184	0.3679	0.8144	0.336
Mof_O 	O 	0.701	0.0531	0.8284	-0.266
Mof_O 	O 	0.62	0.1063	0.9778	-0.246
Mof_O 	O 	0.701	0.5983	0.9578	-0.269
Mof_O 	O 	0.6131	0.7843	0.8124	-0.255
Mof_O 	O 	0.9201	0.5276	0.156	-0.282
Mof_O 	O 	0.737	0.7576	0.1271	-0.294
Mof_O 	O 	0.299	0.9469	0.1716	-0.272
Mof_O 	O 	0.38	0.8937	0.0222	-0.282
Mof_O 	O 	0.299	0.4017	0.0422	-0.305
Mof_O 	O 	0.3869	0.2157	0.1876	-0.268
Mof_O 	O 	0.0799	0.4724	0.844	-0.294
Mof_O 	O 	0.263	0.2424	0.8729	-0.281
_end
