data_functionalizedCrystal
_audit_creation_method	'EQeq! by Chris Wilmer'
_symmetry_space_group_name_H-M	'P1'
_symmetry_Int_Tables_number	1
_symmetry_cell_setting	triclinic
loop_
_symmetry_equiv_pos_as_xyz
  x,y,z
_cell_length_a	48.561
_cell_length_b	66.34
_cell_length_c	10.0376
_cell_angle_alpha	90
_cell_angle_beta	90
_cell_angle_gamma	90
loop_
_atom_site_label
_atom_site_type_symbol
_atom_site_fract_x
_atom_site_fract_y
_atom_site_fract_z
_atom_site_charge
Mof_Zn	Zn	0.23525	0.09093	0.43139	1.236
Mof_Zn	Zn	0.06307	0.01404	0.32851	1.239
Mof_Zn	Zn	0.23064	0.13721	0.92292	1.238
Mof_Zn	Zn	0.12618	0.99042	0.18091	1.241
Mof_P 	P 	0.1908	0.99634	0.2211	0.347
Mof_P 	P 	0.24243	0.04361	0.47449	0.151
Mof_P 	P 	0.10206	0.03054	0.09549	0.208
Mof_P 	P 	0.20855	0.10735	0.15093	0.205
Mof_P 	P 	0.2119	0.12136	0.63686	0.205
Mof_P 	P 	0.21155	0.18254	0.00918	0.328
Mof_P 	P 	0.08587	0.97201	0.38873	0.203
Mof_O 	O 	0.21452	0.97924	0.18666	-0.623
Mof_O 	O 	0.16379	0.98204	0.18461	-0.41
Mof_O 	O 	0.18992	0.99232	0.38201	-0.563
Mof_O 	O 	0.21894	0.02631	0.44156	-0.512
Mof_O 	O 	0.26176	0.95652	0.13654	-0.584
Mof_O 	O 	0.22266	0.06356	0.44435	-0.401
Mof_O 	O 	0.12763	0.01665	0.14236	-0.445
Mof_O 	O 	0.07761	0.01578	0.15361	-0.448
Mof_O 	O 	0.1017	0.97811	0.05788	-0.372
Mof_O 	O 	0.22835	0.12574	0.09645	-0.398
Mof_O 	O 	0.21805	0.1085	0.30782	-0.406
Mof_O 	O 	0.2707	0.08907	0.38542	-0.407
Mof_O 	O 	0.23365	0.10351	0.597	-0.416
Mof_O 	O 	0.21635	0.11943	0.79808	-0.422
Mof_O 	O 	0.26652	0.13981	0.88236	-0.394
Mof_O 	O 	0.24251	0.18125	0.06935	-0.448
Mof_O 	O 	0.21525	0.16351	0.90489	-0.411
Mof_O 	O 	0.1102	0.98802	0.34925	-0.442
Mof_O 	O 	0.08823	0.02471	0.44977	-0.384
Mof_O 	O 	0.06039	0.98762	0.36887	-0.436
Mof_O 	O 	0.02679	0.02507	0.35006	-0.423
Mof_O 	O 	0.02715	0.9809	0.02281	-0.534
Mof_O 	O 	0.22464	0.16128	0.28549	-0.496
Mof_O 	O 	0.2241	0.20115	0.27269	-0.487
Mof_F 	F 	0.25945	0.99339	0.12365	-0.785
Mof_Zn	Zn	0.23246	0.22742	0.92074	1.241
Mof_P 	P 	0.79024	0.74376	0.85668	-0.004
Mof_O 	O 	0.218	0.20073	0.90128	-0.402
Mof_O 	O 	0.26866	0.22554	0.88487	-0.393
Mof_O 	O 	0.21766	0.24596	0.80105	-0.373
Mof_O 	O 	0.22971	0.23788	0.0928	-0.36
Mof_N 	N 	0.29851	0.92655	0.32626	-0.172
Mof_C 	C 	0.32625	0.93352	0.35821	-0.014
Mof_C 	C 	0.34732	0.91637	0.34892	-0.093
Mof_C 	C 	0.37604	0.92424	0.38553	-0.03
Mof_C 	C 	0.3984	0.90852	0.36158	-0.153
Mof_H 	H 	0.02669	0.97568	0.11513	0.158
Mof_H 	H 	0.20562	0.16639	0.27395	0.152
Mof_H 	H 	0.21425	0.19873	0.35768	0.136
Mof_H 	H 	0.28469	0.93821	0.34507	-0.011
Mof_H 	H 	0.29318	0.91435	0.38609	0.048
Mof_H 	H 	0.3263	0.94	0.46038	-0.011
Mof_H 	H 	0.332	0.94545	0.28621	0.003
Mof_H 	H 	0.34739	0.91028	0.2458	0.04
Mof_H 	H 	0.34141	0.90403	0.41839	0.033
Mof_H 	H 	0.37625	0.92864	0.49241	0.014
Mof_H 	H 	0.38094	0.93779	0.32494	0.016
Mof_H 	H 	0.41868	0.91501	0.38944	0.04
Mof_H 	H 	0.39904	0.90422	0.25477	0.044
Mof_H 	H 	0.39464	0.89491	0.42343	0.043
Mof_H 	H 	0.79734	0.57739	0.77423	-0.01
Mof_Ga	Ga	0.25	0.97618	0.25	2.027
Mof_Zn	Zn	0.25	0.18124	0.25	1.195
Mof_Ga	Ga	0.21631	0	0.5	1.136
Mof_Zn	Zn	-0	0	-0	1.137
Mof_P 	P 	1.92999e-34	0.02689	0.24903	0.185
Mof_O 	O 	-2.50135e-34	0.00475	0.18089	-0.5
Mof_H 	H 	-2.67209e-34	0.04395	0.15886	-0.076
_end
