data_functionalizedCrystal
_audit_creation_method	'EQeq! by Chris Wilmer'
_symmetry_space_group_name_H-M	'P1'
_symmetry_Int_Tables_number	1
_symmetry_cell_setting	triclinic
loop_
_symmetry_equiv_pos_as_xyz
  x,y,z
_cell_length_a	17.1161
_cell_length_b	38.6862
_cell_length_c	25.6467
_cell_angle_alpha	90
_cell_angle_beta	101.441
_cell_angle_gamma	90
loop_
_atom_site_label
_atom_site_type_symbol
_atom_site_fract_x
_atom_site_fract_y
_atom_site_fract_z
_atom_site_charge
Mof_Cu	Cu	0.9402	0.266	0.20506	0.906
Mof_Cu	Cu	0.07217	0.25232	0.2742	0.906
Mof_Cu	Cu	0.00609	0.96601	0.49967	0.905
Mof_O 	O 	0.11504	0.97656	0.49088	-0.413
Mof_O 	O 	0.8843	0.78903	0.26432	-0.417
Mof_O 	O 	0.995	0.79992	0.32421	-0.409
Mof_O 	O 	0.8947	0.231	0.24423	-0.412
Mof_O 	O 	0.0088	0.21751	0.30243	-0.392
Mof_O 	O 	0.0387	0.9713	0.5763	-0.419
Mof_O 	O 	0.979	0.22885	0.16429	-0.411
Mof_O 	O 	0.0917	0.21834	0.22207	-0.413
Mof_O 	O 	0.0779	0.80083	0.24328	-0.405
Mof_O 	O 	0.9674	0.78817	0.18361	-0.41
Mof_C 	C 	0.1414	0.00664	0.48752	0.373
Mof_C 	C 	0.2239	0.00967	0.47529	-0.118
Mof_C 	C 	0.2563	0.04156	0.4699	0.053
Mof_H 	H 	0.2282	0.0617	0.4751	0.028
Mof_C 	C 	0.3325	0.04374	0.4566	-0.13
Mof_H 	H 	0.3551	0.0655	0.4525	0.077
Mof_C 	C 	0.3731	0.01427	0.4496	0.083
Mof_C 	C 	0.3408	0.9826	0.4563	-0.128
Mof_H 	H 	0.3699	0.9624	0.4526	0.078
Mof_C 	C 	0.2649	0.97993	0.4688	0.055
Mof_H 	H 	0.2424	0.9581	0.4727	0.029
Mof_C 	C 	0.4505	0.01649	0.4352	-0.022
Mof_C 	C 	0.5167	0.01629	0.4224	-0.05
Mof_C 	C 	0.5912	0.01511	0.40848	0.124
Mof_C 	C 	0.6267	0.98374	0.40344	-0.173
Mof_H 	H 	0.6012	0.9632	0.4101	0.096
Mof_C 	C 	0.7017	0.9825	0.38819	0.115
Mof_C 	C 	0.7401	0.01274	0.3797	-0.175
Mof_H 	H 	0.7911	0.0119	0.3712	0.104
Mof_C 	C 	0.7037	0.04402	0.3836	0.122
Mof_C 	C 	0.6288	0.04535	0.39817	-0.177
Mof_H 	H 	0.6041	0.0668	0.4009	0.096
Mof_C 	C 	0.7391	0.94935	0.3819	-0.032
Mof_C 	C 	0.771	0.92336	0.3724	-0.028
Mof_C 	C 	0.808	0.89286	0.3594	0.095
Mof_C 	C 	0.7659	0.87078	0.321	-0.141
Mof_H 	H 	0.7116	0.8747	0.307	0.082
Mof_C 	C 	0.8053	0.84279	0.3038	0.067
Mof_H 	H 	0.7774	0.8284	0.2768	0.024
Mof_C 	C 	0.8825	0.83564	0.3246	-0.131
Mof_C 	C 	0.9225	0.85646	0.3635	0.07
Mof_H 	H 	0.9756	0.8514	0.3794	0.022
Mof_C 	C 	0.8855	0.88521	0.3799	-0.145
Mof_H 	H 	0.9148	0.8998	0.4059	0.085
Mof_C 	C 	0.9232	0.80515	0.3028	0.377
Mof_C 	C 	0.7427	0.07495	0.3715	-0.045
Mof_C 	C 	0.7757	0.09952	0.3596	-0.016
Mof_C 	C 	0.816	0.12943	0.3429	0.069
Mof_C 	C 	0.8967	0.13352	0.3582	-0.117
Mof_H 	H 	0.9261	0.1171	0.3811	0.074
Mof_C 	C 	0.9365	0.16144	0.3407	0.037
Mof_H 	H 	0.9918	0.1642	0.3523	0.034
Mof_C 	C 	0.8924	0.18521	0.3057	-0.1
Mof_C 	C 	0.8116	0.18177	0.2899	0.033
Mof_H 	H 	0.7827	0.1977	0.2659	0.035
Mof_C 	C 	0.7709	0.15383	0.3099	-0.112
Mof_H 	H 	0.7151	0.152	0.301	0.072
Mof_C 	C 	0.9334	0.21407	0.2817	0.344
Mof_C 	C 	0.0425	0.00012	0.59874	0.372
Mof_C 	C 	0.0623	0.99975	0.659	-0.128
Mof_C 	C 	0.0722	0.96915	0.6871	0.063
Mof_H 	H 	0.0695	0.9481	0.6686	0.024
Mof_C 	C 	0.0859	0.969	0.7416	-0.136
Mof_H 	H 	0.0928	0.9478	0.7599	0.082
Mof_C 	C 	0.0897	0.99975	0.7701	0.087
Mof_C 	C 	0.0859	0.03011	0.7425	-0.135
Mof_H 	H 	0.0932	0.0511	0.7612	0.083
Mof_C 	C 	0.0713	0.03042	0.6869	0.06
Mof_H 	H 	0.0676	0.0516	0.6686	0.027
Mof_C 	C 	0.0985	8e-05	0.8269	-0.024
Mof_C 	C 	0.103	0.00073	0.8732	-0.043
Mof_C 	C 	0.1044	0.00226	0.9304	0.122
Mof_C 	C 	0.1026	0.03386	0.9547	-0.185
Mof_H 	H 	0.1013	0.0543	0.9348	0.1
Mof_C 	C 	0.1028	0.03539	0.0084	0.128
Mof_C 	C 	0.1044	0.00551	0.0371	-0.183
Mof_H 	H 	0.1046	0.0067	0.0738	0.101
Mof_C 	C 	0.1058	0.9736	0.013	0.125
Mof_C 	C 	0.1039	0.97178	0.9595	-0.183
Mof_H 	H 	0.1023	0.9502	0.9424	0.099
Mof_C 	C 	0.1003	0.06868	0.0342	-0.044
Mof_C 	C 	0.0929	0.09545	0.0571	-0.029
Mof_C 	C 	0.0827	0.12562	0.0857	0.09
Mof_C 	C 	0.0184	0.14644	0.0701	-0.141
Mof_H 	H 	0.9822	0.1413	0.0384	0.081
Mof_C 	C 	0.0044	0.17506	0.0995	0.072
Mof_H 	H 	0.9589	0.1888	0.0883	0.021
Mof_C 	C 	0.0583	0.18299	0.1453	-0.136
Mof_C 	C 	0.1249	0.16354	0.1613	0.065
Mof_H 	H 	0.1627	0.1699	0.1916	0.024
Mof_C 	C 	0.1369	0.13391	0.1322	-0.136
Mof_H 	H 	0.1814	0.1197	0.1441	0.081
Mof_C 	C 	0.0427	0.21216	0.1798	0.378
Mof_C 	C 	0.1008	0.94204	0.0441	-0.042
Mof_C 	C 	0.0902	0.91753	0.0687	-0.025
Mof_C 	C 	0.0774	0.88846	0.1	0.084
Mof_C 	C 	0.0111	0.86871	0.0853	-0.137
Mof_H 	H 	0.9748	0.8737	0.0536	0.08
Mof_C 	C 	0.9966	0.84085	0.1174	0.059
Mof_H 	H 	0.9511	0.827	0.1067	0.027
Mof_C 	C 	0.0485	0.83392	0.1641	-0.127
Mof_C 	C 	0.1146	0.8529	0.1788	0.056
Mof_H 	H 	0.1502	0.8475	0.2106	0.028
Mof_C 	C 	0.132	0.88122	0.1469	-0.129
Mof_H 	H 	0.1786	0.8945	0.1572	0.079
Mof_C 	C 	0.0304	0.80502	0.1989	0.365
Mof_O 	O 	0.10507	0.03418	0.49134	-0.412
Mof_O 	O 	0.02957	0.02915	0.5767	-0.417
Mof_Cu	Cu	0.0598	0.766	0.29494	0.905
Mof_Cu	Cu	0.92783	0.75232	0.2258	0.905
Mof_Cu	Cu	0.99391	0.46601	0.00033	0.905
Mof_O 	O 	0.88496	0.47656	0.00912	-0.413
Mof_O 	O 	0.1157	0.28903	0.23568	-0.417
Mof_O 	O 	0.005	0.29992	0.17579	-0.409
Mof_O 	O 	0.1053	0.731	0.25577	-0.413
Mof_O 	O 	0.9912	0.71751	0.19757	-0.393
Mof_O 	O 	0.9613	0.4713	0.9237	-0.418
Mof_O 	O 	0.021	0.72885	0.33571	-0.41
Mof_O 	O 	0.9083	0.71834	0.27793	-0.413
Mof_O 	O 	0.9221	0.30083	0.25672	-0.405
Mof_O 	O 	0.0326	0.28817	0.31639	-0.409
Mof_C 	C 	0.8586	0.50664	0.01248	0.373
Mof_C 	C 	0.7761	0.50967	0.02471	-0.119
Mof_C 	C 	0.7437	0.54156	0.0301	0.053
Mof_H 	H 	0.7718	0.5617	0.0249	0.028
Mof_C 	C 	0.6675	0.54374	0.0434	-0.13
Mof_H 	H 	0.6449	0.5655	0.0475	0.077
Mof_C 	C 	0.6269	0.51427	0.0504	0.083
Mof_C 	C 	0.6592	0.4826	0.0437	-0.128
Mof_H 	H 	0.6301	0.4624	0.0474	0.078
Mof_C 	C 	0.7351	0.47993	0.0312	0.055
Mof_H 	H 	0.7576	0.4581	0.0273	0.029
Mof_C 	C 	0.5495	0.51649	0.0648	-0.022
Mof_C 	C 	0.4833	0.51629	0.0776	-0.049
Mof_C 	C 	0.4088	0.51511	0.09152	0.124
Mof_C 	C 	0.3733	0.48374	0.09656	-0.173
Mof_H 	H 	0.3988	0.4632	0.0899	0.096
Mof_C 	C 	0.2983	0.4825	0.11181	0.115
Mof_C 	C 	0.2599	0.51274	0.1203	-0.174
Mof_H 	H 	0.2089	0.5119	0.1288	0.104
Mof_C 	C 	0.2963	0.54402	0.1164	0.122
Mof_C 	C 	0.3712	0.54535	0.10183	-0.177
Mof_H 	H 	0.3959	0.5668	0.0991	0.096
Mof_C 	C 	0.2609	0.44935	0.1181	-0.032
Mof_C 	C 	0.229	0.42336	0.1276	-0.028
Mof_C 	C 	0.192	0.39286	0.1406	0.095
Mof_C 	C 	0.2341	0.37078	0.179	-0.141
Mof_H 	H 	0.2884	0.3747	0.193	0.082
Mof_C 	C 	0.1947	0.34279	0.1962	0.067
Mof_H 	H 	0.2226	0.3284	0.2232	0.024
Mof_C 	C 	0.1175	0.33564	0.1754	-0.131
Mof_C 	C 	0.0775	0.35646	0.1365	0.07
Mof_H 	H 	0.0244	0.3514	0.1206	0.022
Mof_C 	C 	0.1145	0.38521	0.1201	-0.145
Mof_H 	H 	0.0852	0.3998	0.0941	0.085
Mof_C 	C 	0.0768	0.30515	0.1972	0.377
Mof_C 	C 	0.2573	0.57495	0.1285	-0.045
Mof_C 	C 	0.2243	0.59952	0.1404	-0.016
Mof_C 	C 	0.184	0.62943	0.1571	0.069
Mof_C 	C 	0.1033	0.63352	0.1418	-0.117
Mof_H 	H 	0.0739	0.6171	0.1189	0.074
Mof_C 	C 	0.0635	0.66144	0.1593	0.038
Mof_H 	H 	0.0082	0.6642	0.1477	0.034
Mof_C 	C 	0.1076	0.68521	0.1943	-0.1
Mof_C 	C 	0.1884	0.68177	0.2101	0.034
Mof_H 	H 	0.2173	0.6977	0.2341	0.035
Mof_C 	C 	0.2291	0.65383	0.1901	-0.112
Mof_H 	H 	0.2849	0.652	0.199	0.072
Mof_C 	C 	0.0666	0.71407	0.2183	0.345
Mof_C 	C 	0.9575	0.50012	0.90126	0.372
Mof_C 	C 	0.9377	0.49975	0.841	-0.128
Mof_C 	C 	0.9278	0.46915	0.8129	0.063
Mof_H 	H 	0.9305	0.4481	0.8314	0.024
Mof_C 	C 	0.9141	0.469	0.7584	-0.136
Mof_H 	H 	0.9072	0.4478	0.7401	0.082
Mof_C 	C 	0.9103	0.49975	0.7299	0.087
Mof_C 	C 	0.9141	0.53011	0.7575	-0.135
Mof_H 	H 	0.9068	0.5511	0.7388	0.083
Mof_C 	C 	0.9287	0.53042	0.8131	0.06
Mof_H 	H 	0.9324	0.5516	0.8314	0.027
Mof_C 	C 	0.9015	0.50008	0.6731	-0.024
Mof_C 	C 	0.897	0.50073	0.6268	-0.042
Mof_C 	C 	0.8956	0.50226	0.5696	0.12
Mof_C 	C 	0.8974	0.53386	0.5453	-0.183
Mof_H 	H 	0.8987	0.5543	0.5652	0.1
Mof_C 	C 	0.8972	0.53539	0.4916	0.125
Mof_C 	C 	0.8956	0.50551	0.4629	-0.181
Mof_H 	H 	0.8954	0.5067	0.4262	0.1
Mof_C 	C 	0.8942	0.4736	0.487	0.123
Mof_C 	C 	0.8961	0.47178	0.5405	-0.18
Mof_H 	H 	0.8977	0.4502	0.5576	0.098
Mof_C 	C 	0.8997	0.56868	0.4658	-0.043
Mof_C 	C 	0.9071	0.59545	0.4429	-0.03
Mof_C 	C 	0.9173	0.62562	0.4143	0.091
Mof_C 	C 	0.9816	0.64644	0.4299	-0.143
Mof_H 	H 	0.0178	0.6413	0.4616	0.082
Mof_C 	C 	0.9956	0.67506	0.4005	0.071
Mof_H 	H 	0.0411	0.6888	0.4117	0.022
Mof_C 	C 	0.9417	0.68299	0.3547	-0.136
Mof_C 	C 	0.8751	0.66354	0.3387	0.065
Mof_H 	H 	0.8373	0.6699	0.3084	0.024
Mof_C 	C 	0.8631	0.63391	0.3678	-0.136
Mof_H 	H 	0.8186	0.6197	0.3559	0.081
Mof_C 	C 	0.9573	0.71216	0.3202	0.377
Mof_C 	C 	0.8992	0.44204	0.4559	-0.04
Mof_C 	C 	0.9098	0.41753	0.4313	-0.027
Mof_C 	C 	0.9226	0.38846	0.4	0.087
Mof_C 	C 	0.9889	0.36871	0.4147	-0.142
Mof_H 	H 	0.0252	0.3737	0.4464	0.082
Mof_C 	C 	0.0034	0.34085	0.3826	0.064
Mof_H 	H 	0.0489	0.327	0.3933	0.025
Mof_C 	C 	0.9515	0.33392	0.3359	-0.13
Mof_C 	C 	0.8854	0.3529	0.3212	0.059
Mof_H 	H 	0.8498	0.3475	0.2894	0.027
Mof_C 	C 	0.868	0.38122	0.3531	-0.131
Mof_H 	H 	0.8214	0.3945	0.3428	0.079
Mof_C 	C 	0.9696	0.30502	0.3011	0.365
Mof_O 	O 	0.89493	0.53418	0.00866	-0.412
Mof_O 	O 	0.97043	0.52915	0.9233	-0.417
Mof_Cu	Cu	0.0598	0.734	0.79494	0.905
Mof_Cu	Cu	0.92783	0.74768	0.7258	0.905
Mof_Cu	Cu	0.99391	0.03399	0.50033	0.905
Mof_O 	O 	0.88496	0.02344	0.50912	-0.413
Mof_O 	O 	0.1157	0.21097	0.73568	-0.417
Mof_O 	O 	0.005	0.20008	0.67579	-0.409
Mof_O 	O 	0.1053	0.769	0.75577	-0.412
Mof_O 	O 	0.9912	0.78249	0.69757	-0.392
Mof_O 	O 	0.9613	0.0287	0.4237	-0.419
Mof_O 	O 	0.021	0.77115	0.83571	-0.411
Mof_O 	O 	0.9083	0.78166	0.77793	-0.413
Mof_O 	O 	0.9221	0.19917	0.75672	-0.405
Mof_O 	O 	0.0326	0.21183	0.81639	-0.41
Mof_C 	C 	0.8586	0.99336	0.51248	0.373
Mof_C 	C 	0.7761	0.99033	0.52471	-0.118
Mof_C 	C 	0.7437	0.95844	0.5301	0.053
Mof_H 	H 	0.7718	0.9383	0.5249	0.028
Mof_C 	C 	0.6675	0.95626	0.5434	-0.13
Mof_H 	H 	0.6449	0.9345	0.5475	0.077
Mof_C 	C 	0.6269	0.98573	0.5504	0.083
Mof_C 	C 	0.6592	0.0174	0.5437	-0.128
Mof_H 	H 	0.6301	0.0376	0.5474	0.078
Mof_C 	C 	0.7351	0.02007	0.5312	0.055
Mof_H 	H 	0.7576	0.0419	0.5273	0.029
Mof_C 	C 	0.5495	0.98351	0.5648	-0.022
Mof_C 	C 	0.4833	0.98371	0.5776	-0.05
Mof_C 	C 	0.4088	0.98489	0.59152	0.124
Mof_C 	C 	0.3733	0.01626	0.59656	-0.173
Mof_H 	H 	0.3988	0.0368	0.5899	0.096
Mof_C 	C 	0.2983	0.0175	0.61181	0.115
Mof_C 	C 	0.2599	0.98726	0.6203	-0.175
Mof_H 	H 	0.2089	0.9881	0.6288	0.104
Mof_C 	C 	0.2963	0.95598	0.6164	0.122
Mof_C 	C 	0.3712	0.95465	0.60183	-0.177
Mof_H 	H 	0.3959	0.9332	0.5991	0.096
Mof_C 	C 	0.2609	0.05065	0.6181	-0.032
Mof_C 	C 	0.229	0.07664	0.6276	-0.028
Mof_C 	C 	0.192	0.10714	0.6406	0.095
Mof_C 	C 	0.2341	0.12922	0.679	-0.141
Mof_H 	H 	0.2884	0.1253	0.693	0.082
Mof_C 	C 	0.1947	0.15721	0.6962	0.067
Mof_H 	H 	0.2226	0.1716	0.7232	0.024
Mof_C 	C 	0.1175	0.16436	0.6754	-0.131
Mof_C 	C 	0.0775	0.14354	0.6365	0.07
Mof_H 	H 	0.0244	0.1486	0.6206	0.022
Mof_C 	C 	0.1145	0.11479	0.6201	-0.145
Mof_H 	H 	0.0852	0.1002	0.5941	0.085
Mof_C 	C 	0.0768	0.19485	0.6972	0.377
Mof_C 	C 	0.2573	0.92505	0.6285	-0.045
Mof_C 	C 	0.2243	0.90048	0.6404	-0.016
Mof_C 	C 	0.184	0.87057	0.6571	0.069
Mof_C 	C 	0.1033	0.86648	0.6418	-0.117
Mof_H 	H 	0.0739	0.8829	0.6189	0.074
Mof_C 	C 	0.0635	0.83856	0.6593	0.037
Mof_H 	H 	0.0082	0.8358	0.6477	0.034
Mof_C 	C 	0.1076	0.81479	0.6943	-0.1
Mof_C 	C 	0.1884	0.81823	0.7101	0.033
Mof_H 	H 	0.2173	0.8023	0.7341	0.035
Mof_C 	C 	0.2291	0.84617	0.6901	-0.112
Mof_H 	H 	0.2849	0.848	0.699	0.072
Mof_C 	C 	0.0666	0.78593	0.7183	0.344
Mof_C 	C 	0.9575	0.99988	0.40126	0.372
Mof_C 	C 	0.9377	0.00025	0.341	-0.128
Mof_C 	C 	0.9278	0.03085	0.3129	0.063
Mof_H 	H 	0.9305	0.0519	0.3314	0.024
Mof_C 	C 	0.9141	0.031	0.2584	-0.136
Mof_H 	H 	0.9072	0.0522	0.2401	0.082
Mof_C 	C 	0.9103	0.00025	0.2299	0.087
Mof_C 	C 	0.9141	0.96989	0.2575	-0.135
Mof_H 	H 	0.9068	0.9489	0.2388	0.083
Mof_C 	C 	0.9287	0.96958	0.3131	0.06
Mof_H 	H 	0.9324	0.9484	0.3314	0.027
Mof_C 	C 	0.9015	0.99992	0.1731	-0.024
Mof_C 	C 	0.897	0.99927	0.1268	-0.043
Mof_C 	C 	0.8956	0.99774	0.0696	0.122
Mof_C 	C 	0.8974	0.96614	0.0453	-0.185
Mof_H 	H 	0.8987	0.9457	0.0652	0.1
Mof_C 	C 	0.8972	0.96461	0.9916	0.128
Mof_C 	C 	0.8956	0.99449	0.9629	-0.183
Mof_H 	H 	0.8954	0.9933	0.9262	0.101
Mof_C 	C 	0.8942	0.0264	0.987	0.125
Mof_C 	C 	0.8961	0.02822	0.0405	-0.183
Mof_H 	H 	0.8977	0.0498	0.0576	0.099
Mof_C 	C 	0.8997	0.93132	0.9658	-0.044
Mof_C 	C 	0.9071	0.90455	0.9429	-0.029
Mof_C 	C 	0.9173	0.87438	0.9143	0.09
Mof_C 	C 	0.9816	0.85356	0.9299	-0.141
Mof_H 	H 	0.0178	0.8587	0.9616	0.081
Mof_C 	C 	0.9956	0.82494	0.9005	0.072
Mof_H 	H 	0.0411	0.8112	0.9117	0.021
Mof_C 	C 	0.9417	0.81701	0.8547	-0.136
Mof_C 	C 	0.8751	0.83646	0.8387	0.065
Mof_H 	H 	0.8373	0.8301	0.8084	0.024
Mof_C 	C 	0.8631	0.86609	0.8678	-0.136
Mof_H 	H 	0.8186	0.8803	0.8559	0.081
Mof_C 	C 	0.9573	0.78784	0.8202	0.378
Mof_C 	C 	0.8992	0.05796	0.9559	-0.042
Mof_C 	C 	0.9098	0.08247	0.9313	-0.025
Mof_C 	C 	0.9226	0.11154	0.9	0.084
Mof_C 	C 	0.9889	0.13129	0.9147	-0.137
Mof_H 	H 	0.0252	0.1263	0.9464	0.08
Mof_C 	C 	0.0034	0.15915	0.8826	0.059
Mof_H 	H 	0.0489	0.173	0.8933	0.027
Mof_C 	C 	0.9515	0.16608	0.8359	-0.127
Mof_C 	C 	0.8854	0.1471	0.8212	0.056
Mof_H 	H 	0.8498	0.1525	0.7894	0.028
Mof_C 	C 	0.868	0.11878	0.8531	-0.129
Mof_H 	H 	0.8214	0.1055	0.8428	0.079
Mof_C 	C 	0.9696	0.19498	0.8011	0.365
Mof_O 	O 	0.89493	0.96582	0.50866	-0.412
Mof_O 	O 	0.97043	0.97085	0.4233	-0.417
Mof_Cu	Cu	0.9402	0.234	0.70506	0.905
Mof_Cu	Cu	0.07217	0.24768	0.7742	0.905
Mof_Cu	Cu	0.00609	0.53399	0.99967	0.905
Mof_O 	O 	0.11504	0.52344	0.99088	-0.413
Mof_O 	O 	0.8843	0.71097	0.76432	-0.417
Mof_O 	O 	0.995	0.70008	0.82421	-0.409
Mof_O 	O 	0.8947	0.269	0.74423	-0.413
Mof_O 	O 	0.0088	0.28249	0.80243	-0.393
Mof_O 	O 	0.0387	0.5287	0.0763	-0.418
Mof_O 	O 	0.979	0.27115	0.66429	-0.41
Mof_O 	O 	0.0917	0.28166	0.72207	-0.413
Mof_O 	O 	0.0779	0.69917	0.74328	-0.405
Mof_O 	O 	0.9674	0.71183	0.68361	-0.409
Mof_C 	C 	0.1414	0.49336	0.98752	0.373
Mof_C 	C 	0.2239	0.49033	0.97529	-0.119
Mof_C 	C 	0.2563	0.45844	0.9699	0.053
Mof_H 	H 	0.2282	0.4383	0.9751	0.028
Mof_C 	C 	0.3325	0.45626	0.9566	-0.13
Mof_H 	H 	0.3551	0.4345	0.9525	0.077
Mof_C 	C 	0.3731	0.48573	0.9496	0.083
Mof_C 	C 	0.3408	0.5174	0.9563	-0.128
Mof_H 	H 	0.3699	0.5376	0.9526	0.078
Mof_C 	C 	0.2649	0.52007	0.9688	0.055
Mof_H 	H 	0.2424	0.5419	0.9727	0.029
Mof_C 	C 	0.4505	0.48351	0.9352	-0.022
Mof_C 	C 	0.5167	0.48371	0.9224	-0.049
Mof_C 	C 	0.5912	0.48489	0.90848	0.124
Mof_C 	C 	0.6267	0.51626	0.90344	-0.173
Mof_H 	H 	0.6012	0.5368	0.9101	0.096
Mof_C 	C 	0.7017	0.5175	0.88819	0.115
Mof_C 	C 	0.7401	0.48726	0.8797	-0.174
Mof_H 	H 	0.7911	0.4881	0.8712	0.104
Mof_C 	C 	0.7037	0.45598	0.8836	0.122
Mof_C 	C 	0.6288	0.45465	0.89817	-0.177
Mof_H 	H 	0.6041	0.4332	0.9009	0.096
Mof_C 	C 	0.7391	0.55065	0.8819	-0.032
Mof_C 	C 	0.771	0.57664	0.8724	-0.028
Mof_C 	C 	0.808	0.60714	0.8594	0.095
Mof_C 	C 	0.7659	0.62922	0.821	-0.141
Mof_H 	H 	0.7116	0.6253	0.807	0.082
Mof_C 	C 	0.8053	0.65721	0.8038	0.067
Mof_H 	H 	0.7774	0.6716	0.7768	0.024
Mof_C 	C 	0.8825	0.66436	0.8246	-0.131
Mof_C 	C 	0.9225	0.64354	0.8635	0.07
Mof_H 	H 	0.9756	0.6486	0.8794	0.022
Mof_C 	C 	0.8855	0.61479	0.8799	-0.145
Mof_H 	H 	0.9148	0.6002	0.9059	0.085
Mof_C 	C 	0.9232	0.69485	0.8028	0.377
Mof_C 	C 	0.7427	0.42505	0.8715	-0.045
Mof_C 	C 	0.7757	0.40048	0.8596	-0.016
Mof_C 	C 	0.816	0.37057	0.8429	0.069
Mof_C 	C 	0.8967	0.36648	0.8582	-0.117
Mof_H 	H 	0.9261	0.3829	0.8811	0.074
Mof_C 	C 	0.9365	0.33856	0.8407	0.038
Mof_H 	H 	0.9918	0.3358	0.8523	0.034
Mof_C 	C 	0.8924	0.31479	0.8057	-0.1
Mof_C 	C 	0.8116	0.31823	0.7899	0.034
Mof_H 	H 	0.7827	0.3023	0.7659	0.035
Mof_C 	C 	0.7709	0.34617	0.8099	-0.112
Mof_H 	H 	0.7151	0.348	0.801	0.072
Mof_C 	C 	0.9334	0.28593	0.7817	0.345
Mof_C 	C 	0.0425	0.49988	0.09874	0.372
Mof_C 	C 	0.0623	0.50025	0.159	-0.128
Mof_C 	C 	0.0722	0.53085	0.1871	0.063
Mof_H 	H 	0.0695	0.5519	0.1686	0.024
Mof_C 	C 	0.0859	0.531	0.2416	-0.136
Mof_H 	H 	0.0928	0.5522	0.2599	0.082
Mof_C 	C 	0.0897	0.50025	0.2701	0.087
Mof_C 	C 	0.0859	0.46989	0.2425	-0.135
Mof_H 	H 	0.0932	0.4489	0.2612	0.083
Mof_C 	C 	0.0713	0.46958	0.1869	0.06
Mof_H 	H 	0.0676	0.4484	0.1686	0.027
Mof_C 	C 	0.0985	0.49992	0.3269	-0.024
Mof_C 	C 	0.103	0.49927	0.3732	-0.042
Mof_C 	C 	0.1044	0.49774	0.4304	0.12
Mof_C 	C 	0.1026	0.46614	0.4547	-0.183
Mof_H 	H 	0.1013	0.4457	0.4348	0.1
Mof_C 	C 	0.1028	0.46461	0.5084	0.125
Mof_C 	C 	0.1044	0.49449	0.5371	-0.181
Mof_H 	H 	0.1046	0.4933	0.5738	0.1
Mof_C 	C 	0.1058	0.5264	0.513	0.123
Mof_C 	C 	0.1039	0.52822	0.4595	-0.18
Mof_H 	H 	0.1023	0.5498	0.4424	0.098
Mof_C 	C 	0.1003	0.43132	0.5342	-0.043
Mof_C 	C 	0.0929	0.40455	0.5571	-0.03
Mof_C 	C 	0.0827	0.37438	0.5857	0.091
Mof_C 	C 	0.0184	0.35356	0.5701	-0.143
Mof_H 	H 	0.9822	0.3587	0.5384	0.082
Mof_C 	C 	0.0044	0.32494	0.5995	0.071
Mof_H 	H 	0.9589	0.3112	0.5883	0.022
Mof_C 	C 	0.0583	0.31701	0.6453	-0.136
Mof_C 	C 	0.1249	0.33646	0.6613	0.065
Mof_H 	H 	0.1627	0.3301	0.6916	0.024
Mof_C 	C 	0.1369	0.36609	0.6322	-0.136
Mof_H 	H 	0.1814	0.3803	0.6441	0.081
Mof_C 	C 	0.0427	0.28784	0.6798	0.377
Mof_C 	C 	0.1008	0.55796	0.5441	-0.04
Mof_C 	C 	0.0902	0.58247	0.5687	-0.027
Mof_C 	C 	0.0774	0.61154	0.6	0.087
Mof_C 	C 	0.0111	0.63129	0.5853	-0.142
Mof_H 	H 	0.9748	0.6263	0.5536	0.082
Mof_C 	C 	0.9966	0.65915	0.6174	0.064
Mof_H 	H 	0.9511	0.673	0.6067	0.025
Mof_C 	C 	0.0485	0.66608	0.6641	-0.13
Mof_C 	C 	0.1146	0.6471	0.6788	0.059
Mof_H 	H 	0.1502	0.6525	0.7106	0.027
Mof_C 	C 	0.132	0.61878	0.6469	-0.131
Mof_H 	H 	0.1786	0.6055	0.6572	0.079
Mof_C 	C 	0.0304	0.69498	0.6989	0.365
Mof_O 	O 	0.10507	0.46582	0.99134	-0.412
Mof_O 	O 	0.02957	0.47085	0.0767	-0.417
_end
