data_functionalizedCrystal
_audit_creation_method	'EQeq! by Chris Wilmer'
_symmetry_space_group_name_H-M	'P1'
_symmetry_Int_Tables_number	1
_symmetry_cell_setting	triclinic
loop_
_symmetry_equiv_pos_as_xyz
  x,y,z
_cell_length_a	16.6324
_cell_length_b	6.3219
_cell_length_c	11.0725
_cell_angle_alpha	90
_cell_angle_beta	94.362
_cell_angle_gamma	90
loop_
_atom_site_label
_atom_site_type_symbol
_atom_site_fract_x
_atom_site_fract_y
_atom_site_fract_z
_atom_site_charge
Mof_P 	P 	0.5571	0.5711	0.6691	0.389
Mof_O 	O 	0.6398	0.8064	0.4076	-0.458
Mof_O 	O 	0.7859	0.3053	0.1502	-0.509
Mof_O 	O 	0.5567	0.8191	0.6753	-0.086
Mof_P 	P 	0.0571	0.0711	0.6691	0.012
Mof_O 	O 	0.1398	0.3064	0.4076	-0.493
Mof_O 	O 	0.2859	0.8053	0.1502	-0.469
Mof_O 	O 	0.0567	0.3191	0.6753	-0.036
Mof_P 	P 	0.4429	0.5711	0.3309	0.389
Mof_O 	O 	0.3602	0.8064	0.5924	-0.458
Mof_O 	O 	0.2141	0.3053	0.8498	-0.509
Mof_O 	O 	0.4433	0.8191	0.3247	-0.086
Mof_P 	P 	0.9429	0.0711	0.3309	0.012
Mof_O 	O 	0.8602	0.3064	0.5924	-0.493
Mof_O 	O 	0.7141	0.8053	0.8498	-0.469
Mof_O 	O 	0.9433	0.3191	0.3247	-0.036
Mof_P 	P 	0.4429	0.4289	0.3309	0.397
Mof_O 	O 	0.3602	0.1936	0.5924	-0.512
Mof_O 	O 	0.2141	0.6947	0.8498	-0.482
Mof_O 	O 	0.4433	0.1809	0.3247	-0.146
Mof_P 	P 	0.9429	0.9289	0.3309	0.846
Mof_O 	O 	0.8602	0.6936	0.5924	-0.471
Mof_O 	O 	0.7141	0.1947	0.8498	-0.524
Mof_O 	O 	0.9433	0.6809	0.3247	-0.182
Mof_P 	P 	0.5571	0.4289	0.6691	0.397
Mof_O 	O 	0.6398	0.1936	0.4076	-0.512
Mof_O 	O 	0.7859	0.6947	0.1502	-0.482
Mof_O 	O 	0.5567	0.1809	0.6753	-0.146
Mof_P 	P 	0.0571	0.9289	0.6691	0.846
Mof_O 	O 	0.1398	0.6936	0.4076	-0.471
Mof_O 	O 	0.2859	0.1947	0.1502	-0.524
Mof_O 	O 	0.0567	0.6809	0.6753	-0.182
Mof_Ti	Ti	0.6411	0.5	0.3996	2.04
Mof_Ti	Ti	0.7167	0.5	0.8504	2.174
Mof_P 	P 	0.7318	0.5	0.1388	0.797
Mof_F 	F 	0.8234	0.5	0.9104	-0.596
Mof_O 	O 	0.5938	0.5	0.5564	-0.535
Mof_O 	O 	0.4705	0.5	0.673	-0.481
Mof_O 	O 	0.6719	0.5	0.2376	-0.524
Mof_O 	O 	0.6825	0.5	0.0158	-0.482
Mof_O 	O 	0.604	0.5	0.7856	-0.498
Mof_Ti	Ti	0.1411	5.43628e-33	0.3996	1.991
Mof_Ti	Ti	0.2167	0	0.8504	2.112
Mof_P 	P 	0.2318	0	0.1388	0.749
Mof_F 	F 	0.3234	2.17451e-32	0.9104	-0.625
Mof_O 	O 	0.0938	0	0.5564	-0.569
Mof_O 	O 	0.9705	-1.08726e-32	0.673	-0.514
Mof_O 	O 	0.1719	0	0.2376	-0.536
Mof_O 	O 	0.1825	0	0.0158	-0.491
Mof_O 	O 	0.104	0	0.7856	-0.532
Mof_Ti	Ti	0.3589	0.5	0.6004	2.04
Mof_Ti	Ti	0.2833	0.5	0.1496	2.174
Mof_P 	P 	0.2682	0.5	0.8612	0.797
Mof_F 	F 	0.1766	0.5	0.0896	-0.596
Mof_O 	O 	0.4062	0.5	0.4436	-0.535
Mof_O 	O 	0.5295	0.5	0.327	-0.481
Mof_O 	O 	0.3281	0.5	0.7624	-0.524
Mof_O 	O 	0.3175	0.5	0.9842	-0.482
Mof_O 	O 	0.396	0.5	0.2144	-0.498
Mof_Ti	Ti	0.8589	-1.08726e-32	0.6004	1.991
Mof_Ti	Ti	0.7833	0	0.1496	2.112
Mof_P 	P 	0.7682	-2.17451e-32	0.8612	0.749
Mof_F 	F 	0.6766	0	0.0896	-0.625
Mof_O 	O 	0.9062	0	0.4436	-0.569
Mof_O 	O 	0.0295	0	0.327	-0.514
Mof_O 	O 	0.8281	-1.08726e-32	0.7624	-0.536
Mof_O 	O 	0.8175	0	0.9842	-0.491
Mof_O 	O 	0.896	0	0.2144	-0.532
Mof_P 	P 	0.6957	5.43628e-33	0.4136	0.747
Mof_O 	O 	0.7492	0	0.5323	-0.573
Mof_O 	O 	0.7494	0	0.3093	-0.592
Mof_P 	P 	0.1957	0.5	0.4136	0.797
Mof_O 	O 	0.2492	0.5	0.5323	-0.554
Mof_O 	O 	0.2494	0.5	0.3093	-0.581
Mof_P 	P 	0.3043	-1.08726e-32	0.5864	0.747
Mof_O 	O 	0.2508	-1.08726e-32	0.4677	-0.573
Mof_O 	O 	0.2506	0	0.6907	-0.592
Mof_P 	P 	0.8043	0.5	0.5864	0.797
Mof_O 	O 	0.7508	0.5	0.4677	-0.554
Mof_O 	O 	0.7506	0.5	0.6907	-0.581
_end
