data_functionalizedCrystal
_audit_creation_method	'EQeq! by Chris Wilmer'
_symmetry_space_group_name_H-M	'P1'
_symmetry_Int_Tables_number	1
_symmetry_cell_setting	triclinic
loop_
_symmetry_equiv_pos_as_xyz
  x,y,z
_cell_length_a	15.508
_cell_length_b	19.22
_cell_length_c	25.211
_cell_angle_alpha	90
_cell_angle_beta	90
_cell_angle_gamma	90
loop_
_atom_site_label
_atom_site_type_symbol
_atom_site_fract_x
_atom_site_fract_y
_atom_site_fract_z
_atom_site_charge
Mof_Zn	Zn	0.05372	0.83782	0.22766	1.19
Mof_Zn	Zn	0.02579	0.96432	0.45013	1.215
Mof_Zn	Zn	0.44628	0.16218	0.72766	1.191
Mof_Zn	Zn	0.47421	0.03568	0.95013	1.216
Mof_Zn	Zn	0.94628	0.33782	0.77234	1.189
Mof_Zn	Zn	0.97421	0.46432	0.54987	1.215
Mof_Zn	Zn	0.55372	0.66218	0.27234	1.19
Mof_Zn	Zn	0.52579	0.53568	0.04987	1.215
Mof_Zn	Zn	0.94628	0.16218	0.77234	1.189
Mof_Zn	Zn	0.97421	0.03568	0.54987	1.214
Mof_Zn	Zn	0.55372	0.83782	0.27234	1.19
Mof_Zn	Zn	0.52579	0.96432	0.04987	1.215
Mof_Zn	Zn	0.05372	0.66218	0.22766	1.189
Mof_Zn	Zn	0.02579	0.53568	0.45013	1.215
Mof_Zn	Zn	0.44628	0.33782	0.72766	1.19
Mof_Zn	Zn	0.47421	0.46432	0.95013	1.215
Mof_Zn	Zn	0.1829	0.75	0.30419	1.172
Mof_Zn	Zn	0.3171	0.25	0.80419	1.172
Mof_Zn	Zn	0.8171	0.25	0.69581	1.172
Mof_Zn	Zn	0.6829	0.75	0.19581	1.172
Mof_H 	H 	0.9113	0.9475	0.3207	0.281
Mof_H 	H 	0.9708	0.009	0.339	0.288
Mof_H 	H 	0.977	0.9807	0.2808	0.265
Mof_H 	H 	0.2236	0.8088	0.4127	0.237
Mof_H 	H 	0.2123	0.8821	0.4391	0.289
Mof_H 	H 	0.1488	0.8215	0.4534	0.284
Mof_H 	H 	0.9649	0.8546	0.6473	-0.007
Mof_H 	H 	0.0223	0.003	0.0957	0.012
Mof_H 	H 	0.0644	0.0493	0.0143	0.077
Mof_H 	H 	0.2069	0.0523	0.9908	-0.012
Mof_H 	H 	0.2661	0.9303	0.1129	0.007
Mof_H 	H 	0.2855	0.8865	0.2704	0.256
Mof_H 	H 	0.3798	0.9084	0.2853	0.255
Mof_H 	H 	0.3139	0.889	0.33	0.259
Mof_H 	H 	0.5887	0.0525	0.8207	0.29
Mof_H 	H 	0.5292	0.991	0.839	0.301
Mof_H 	H 	0.523	0.0193	0.7808	0.273
Mof_H 	H 	0.2764	0.1912	0.9127	0.237
Mof_H 	H 	0.2877	0.1179	0.9391	0.29
Mof_H 	H 	0.3512	0.1785	0.9534	0.285
Mof_H 	H 	0.5351	0.1454	0.1473	-0.006
Mof_H 	H 	0.4777	0.997	0.5957	0.002
Mof_H 	H 	0.4356	0.9507	0.5143	0.083
Mof_H 	H 	0.2931	0.9477	0.4908	-0.017
Mof_H 	H 	0.2339	0.0697	0.6129	0.005
Mof_H 	H 	0.2145	0.1135	0.7704	0.257
Mof_H 	H 	0.1202	0.0916	0.7853	0.257
Mof_H 	H 	0.1861	0.111	0.83	0.261
Mof_H 	H 	0.0887	0.4475	0.6793	0.289
Mof_H 	H 	0.0292	0.509	0.661	0.3
Mof_H 	H 	0.023	0.4807	0.7192	0.273
Mof_H 	H 	0.7764	0.3088	0.5873	0.237
Mof_H 	H 	0.7877	0.3821	0.5609	0.289
Mof_H 	H 	0.8512	0.3215	0.5466	0.285
Mof_H 	H 	0.0351	0.3546	0.3527	-0.007
Mof_H 	H 	0.9777	0.503	0.9043	0.003
Mof_H 	H 	0.9356	0.5493	0.9857	0.081
Mof_H 	H 	0.7931	0.5523	0.0092	-0.015
Mof_H 	H 	0.7339	0.4303	0.8871	0.005
Mof_H 	H 	0.7145	0.3865	0.7296	0.256
Mof_H 	H 	0.6202	0.4084	0.7147	0.255
Mof_H 	H 	0.6861	0.389	0.67	0.259
Mof_H 	H 	0.4113	0.5525	0.1793	0.29
Mof_H 	H 	0.4708	0.491	0.161	0.301
Mof_H 	H 	0.477	0.5193	0.2192	0.273
Mof_H 	H 	0.7236	0.6912	0.0873	0.237
Mof_H 	H 	0.7123	0.6179	0.0609	0.29
Mof_H 	H 	0.6488	0.6785	0.0466	0.285
Mof_H 	H 	0.4649	0.6454	0.8527	-0.006
Mof_H 	H 	0.5223	0.497	0.4043	0.003
Mof_H 	H 	0.5644	0.4507	0.4857	0.083
Mof_H 	H 	0.7069	0.4477	0.5092	-0.017
Mof_H 	H 	0.7661	0.5697	0.3871	0.005
Mof_H 	H 	0.7855	0.6135	0.2296	0.257
Mof_H 	H 	0.8798	0.5916	0.2147	0.256
Mof_H 	H 	0.8139	0.611	0.17	0.26
Mof_H 	H 	0.0887	0.0525	0.6793	0.281
Mof_H 	H 	0.0292	0.991	0.661	0.288
Mof_H 	H 	0.023	0.0193	0.7192	0.265
Mof_H 	H 	0.7764	0.1912	0.5873	0.237
Mof_H 	H 	0.7877	0.1179	0.5609	0.289
Mof_H 	H 	0.8512	0.1785	0.5466	0.284
Mof_H 	H 	0.0351	0.1454	0.3527	-0.007
Mof_H 	H 	0.9777	0.997	0.9043	0.012
Mof_H 	H 	0.9356	0.9507	0.9857	0.077
Mof_H 	H 	0.7931	0.9477	0.0092	-0.012
Mof_H 	H 	0.7339	0.0697	0.8871	0.007
Mof_H 	H 	0.7145	0.1135	0.7296	0.256
Mof_H 	H 	0.6202	0.0916	0.7147	0.255
Mof_H 	H 	0.6861	0.111	0.67	0.259
Mof_H 	H 	0.4113	0.9475	0.1793	0.29
Mof_H 	H 	0.4708	0.009	0.161	0.301
Mof_H 	H 	0.477	0.9807	0.2192	0.273
Mof_H 	H 	0.7236	0.8088	0.0873	0.237
Mof_H 	H 	0.7123	0.8821	0.0609	0.29
Mof_H 	H 	0.6488	0.8215	0.0466	0.285
Mof_H 	H 	0.4649	0.8546	0.8527	-0.006
Mof_H 	H 	0.5223	0.003	0.4043	0.002
Mof_H 	H 	0.5644	0.0493	0.4857	0.083
Mof_H 	H 	0.7069	0.0523	0.5092	-0.017
Mof_H 	H 	0.7661	0.9303	0.3871	0.005
Mof_H 	H 	0.7855	0.8865	0.2296	0.257
Mof_H 	H 	0.8798	0.9084	0.2147	0.257
Mof_H 	H 	0.8139	0.889	0.17	0.261
Mof_H 	H 	0.9113	0.5525	0.3207	0.289
Mof_H 	H 	0.9708	0.491	0.339	0.3
Mof_H 	H 	0.977	0.5193	0.2808	0.273
Mof_H 	H 	0.2236	0.6912	0.4127	0.237
Mof_H 	H 	0.2123	0.6179	0.4391	0.289
Mof_H 	H 	0.1488	0.6785	0.4534	0.285
Mof_H 	H 	0.9649	0.6454	0.6473	-0.007
Mof_H 	H 	0.0223	0.497	0.0957	0.003
Mof_H 	H 	0.0644	0.4507	0.0143	0.081
Mof_H 	H 	0.2069	0.4477	0.9908	-0.015
Mof_H 	H 	0.2661	0.5697	0.1129	0.005
Mof_H 	H 	0.2855	0.6135	0.2704	0.256
Mof_H 	H 	0.3798	0.5916	0.2853	0.255
Mof_H 	H 	0.3139	0.611	0.33	0.259
Mof_H 	H 	0.5887	0.4475	0.8207	0.29
Mof_H 	H 	0.5292	0.509	0.839	0.301
Mof_H 	H 	0.523	0.4807	0.7808	0.273
Mof_H 	H 	0.2764	0.3088	0.9127	0.237
Mof_H 	H 	0.2877	0.3821	0.9391	0.29
Mof_H 	H 	0.3512	0.3215	0.9534	0.285
Mof_H 	H 	0.5351	0.3546	0.1473	-0.006
Mof_H 	H 	0.4777	0.503	0.5957	0.003
Mof_H 	H 	0.4356	0.5493	0.5143	0.083
Mof_H 	H 	0.2931	0.5523	0.4908	-0.017
Mof_H 	H 	0.2339	0.4303	0.6129	0.005
Mof_H 	H 	0.2145	0.3865	0.7704	0.257
Mof_H 	H 	0.1202	0.4084	0.7853	0.256
Mof_H 	H 	0.1861	0.389	0.83	0.26
Mof_H 	H 	0.1685	0.75	0.2102	0.232
Mof_H 	H 	0.9578	0.75	0.6937	0.086
Mof_H 	H 	0.0054	0.75	0.5129	-0.005
Mof_H 	H 	0.3315	0.25	0.7102	0.232
Mof_H 	H 	0.5422	0.25	0.1937	0.084
Mof_H 	H 	0.4946	0.25	0.0129	-0.002
Mof_H 	H 	0.8315	0.25	0.7898	0.232
Mof_H 	H 	0.0422	0.25	0.3063	0.086
Mof_H 	H 	0.9946	0.25	0.4871	-0.005
Mof_H 	H 	0.6685	0.75	0.2898	0.232
Mof_H 	H 	0.4578	0.75	0.8063	0.084
Mof_H 	H 	0.5054	0.75	0.9871	-0.002
Mof_C 	C 	0.9674	0.9681	0.3172	-0.89
Mof_C 	C 	0.0341	0.9174	0.3342	0.324
Mof_C 	C 	0.1249	0.8636	0.3817	0.31
Mof_C 	C 	0.1825	0.8421	0.4256	-0.893
Mof_C 	C 	0.9939	0.8802	0.5471	0.45
Mof_C 	C 	0.9882	0.8132	0.5758	-0.204
Mof_C 	C 	0.9719	0.8127	0.6293	0.114
Mof_C 	C 	0.1145	0.9153	0.1604	0.438
Mof_C 	C 	0.1405	0.9567	0.1106	-0.169
Mof_C 	C 	0.0781	0.9973	0.0829	0.066
Mof_C 	C 	0.105	0.0278	0.0359	-0.156
Mof_C 	C 	0.1901	0.027	0.0205	0.096
Mof_C 	C 	0.2503	0.9898	0.048	-0.18
Mof_C 	C 	0.2253	0.9551	0.0935	0.101
Mof_C 	C 	0.342	0.9882	0.0306	0.416
Mof_C 	C 	0.3323	0.8787	0.2945	-0.866
Mof_C 	C 	0.36	0.8047	0.2913	0.292
Mof_C 	C 	0.5326	0.0319	0.8172	-0.923
Mof_C 	C 	0.4659	0.0826	0.8342	0.336
Mof_C 	C 	0.3751	0.1364	0.8817	0.31
Mof_C 	C 	0.3175	0.1579	0.9256	-0.894
Mof_C 	C 	0.5061	0.1198	0.0471	0.444
Mof_C 	C 	0.5118	0.1868	0.0758	-0.2
Mof_C 	C 	0.5281	0.1873	0.1293	0.11
Mof_C 	C 	0.3855	0.0847	0.6604	0.442
Mof_C 	C 	0.3595	0.0433	0.6106	-0.177
Mof_C 	C 	0.4219	0.0027	0.5829	0.087
Mof_C 	C 	0.395	0.9722	0.5359	-0.175
Mof_C 	C 	0.3099	0.973	0.5205	0.106
Mof_C 	C 	0.2497	0.0102	0.548	-0.185
Mof_C 	C 	0.2747	0.0449	0.5935	0.108
Mof_C 	C 	0.158	0.0118	0.5306	0.424
Mof_C 	C 	0.1677	0.1213	0.7945	-0.87
Mof_C 	C 	0.14	0.1953	0.7913	0.294
Mof_C 	C 	0.0326	0.4681	0.6828	-0.921
Mof_C 	C 	0.9659	0.4174	0.6658	0.334
Mof_C 	C 	0.8751	0.3636	0.6183	0.31
Mof_C 	C 	0.8175	0.3421	0.5744	-0.893
Mof_C 	C 	0.0061	0.3802	0.4529	0.447
Mof_C 	C 	0.0118	0.3132	0.4242	-0.203
Mof_C 	C 	0.0281	0.3127	0.3707	0.114
Mof_C 	C 	0.8855	0.4153	0.8396	0.441
Mof_C 	C 	0.8595	0.4567	0.8894	-0.176
Mof_C 	C 	0.9219	0.4973	0.9171	0.084
Mof_C 	C 	0.895	0.5278	0.9641	-0.172
Mof_C 	C 	0.8099	0.527	0.9795	0.105
Mof_C 	C 	0.7497	0.4898	0.952	-0.185
Mof_C 	C 	0.7747	0.4551	0.9065	0.107
Mof_C 	C 	0.658	0.4882	0.9694	0.42
Mof_C 	C 	0.6677	0.3787	0.7055	-0.867
Mof_C 	C 	0.64	0.3047	0.7087	0.292
Mof_C 	C 	0.4674	0.5319	0.1828	-0.924
Mof_C 	C 	0.5341	0.5826	0.1658	0.336
Mof_C 	C 	0.6249	0.6364	0.1183	0.31
Mof_C 	C 	0.6825	0.6579	0.0744	-0.894
Mof_C 	C 	0.4939	0.6198	0.9529	0.444
Mof_C 	C 	0.4882	0.6868	0.9242	-0.2
Mof_C 	C 	0.4719	0.6873	0.8707	0.11
Mof_C 	C 	0.6145	0.5847	0.3396	0.442
Mof_C 	C 	0.6405	0.5433	0.3894	-0.177
Mof_C 	C 	0.5781	0.5027	0.4171	0.085
Mof_C 	C 	0.605	0.4722	0.4641	-0.174
Mof_C 	C 	0.6901	0.473	0.4795	0.109
Mof_C 	C 	0.7503	0.5102	0.452	-0.186
Mof_C 	C 	0.7253	0.5449	0.4065	0.108
Mof_C 	C 	0.842	0.5118	0.4694	0.421
Mof_C 	C 	0.8323	0.6213	0.2055	-0.867
Mof_C 	C 	0.86	0.6953	0.2087	0.293
Mof_C 	C 	0.0326	0.0319	0.6828	-0.89
Mof_C 	C 	0.9659	0.0826	0.6658	0.324
Mof_C 	C 	0.8751	0.1364	0.6183	0.31
Mof_C 	C 	0.8175	0.1579	0.5744	-0.893
Mof_C 	C 	0.0061	0.1198	0.4529	0.45
Mof_C 	C 	0.0118	0.1868	0.4242	-0.204
Mof_C 	C 	0.0281	0.1873	0.3707	0.114
Mof_C 	C 	0.8855	0.0847	0.8396	0.438
Mof_C 	C 	0.8595	0.0433	0.8894	-0.169
Mof_C 	C 	0.9219	0.0027	0.9171	0.066
Mof_C 	C 	0.895	0.9722	0.9641	-0.156
Mof_C 	C 	0.8099	0.973	0.9795	0.096
Mof_C 	C 	0.7497	0.0102	0.952	-0.18
Mof_C 	C 	0.7747	0.0449	0.9065	0.101
Mof_C 	C 	0.658	0.0118	0.9694	0.416
Mof_C 	C 	0.6677	0.1213	0.7055	-0.866
Mof_C 	C 	0.64	0.1953	0.7087	0.292
Mof_C 	C 	0.4674	0.9681	0.1828	-0.923
Mof_C 	C 	0.5341	0.9174	0.1658	0.336
Mof_C 	C 	0.6249	0.8636	0.1183	0.31
Mof_C 	C 	0.6825	0.8421	0.0744	-0.894
Mof_C 	C 	0.4939	0.8802	0.9529	0.444
Mof_C 	C 	0.4882	0.8132	0.9242	-0.2
Mof_C 	C 	0.4719	0.8127	0.8707	0.11
Mof_C 	C 	0.6145	0.9153	0.3396	0.442
Mof_C 	C 	0.6405	0.9567	0.3894	-0.177
Mof_C 	C 	0.5781	0.9973	0.4171	0.087
Mof_C 	C 	0.605	0.0278	0.4641	-0.175
Mof_C 	C 	0.6901	0.027	0.4795	0.106
Mof_C 	C 	0.7503	0.9898	0.452	-0.185
Mof_C 	C 	0.7253	0.9551	0.4065	0.108
Mof_C 	C 	0.842	0.9882	0.4694	0.424
Mof_C 	C 	0.8323	0.8787	0.2055	-0.87
Mof_C 	C 	0.86	0.8047	0.2087	0.294
Mof_C 	C 	0.9674	0.5319	0.3172	-0.921
Mof_C 	C 	0.0341	0.5826	0.3342	0.334
Mof_C 	C 	0.1249	0.6364	0.3817	0.31
Mof_C 	C 	0.1825	0.6579	0.4256	-0.893
Mof_C 	C 	0.9939	0.6198	0.5471	0.447
Mof_C 	C 	0.9882	0.6868	0.5758	-0.203
Mof_C 	C 	0.9719	0.6873	0.6293	0.114
Mof_C 	C 	0.1145	0.5847	0.1604	0.441
Mof_C 	C 	0.1405	0.5433	0.1106	-0.176
Mof_C 	C 	0.0781	0.5027	0.0829	0.084
Mof_C 	C 	0.105	0.4722	0.0359	-0.172
Mof_C 	C 	0.1901	0.473	0.0205	0.105
Mof_C 	C 	0.2503	0.5102	0.048	-0.185
Mof_C 	C 	0.2253	0.5449	0.0935	0.107
Mof_C 	C 	0.342	0.5118	0.0306	0.42
Mof_C 	C 	0.3323	0.6213	0.2945	-0.867
Mof_C 	C 	0.36	0.6953	0.2913	0.292
Mof_C 	C 	0.5326	0.4681	0.8172	-0.924
Mof_C 	C 	0.4659	0.4174	0.8342	0.336
Mof_C 	C 	0.3751	0.3636	0.8817	0.31
Mof_C 	C 	0.3175	0.3421	0.9256	-0.894
Mof_C 	C 	0.5061	0.3802	0.0471	0.444
Mof_C 	C 	0.5118	0.3132	0.0758	-0.2
Mof_C 	C 	0.5281	0.3127	0.1293	0.11
Mof_C 	C 	0.3855	0.4153	0.6604	0.442
Mof_C 	C 	0.3595	0.4567	0.6106	-0.177
Mof_C 	C 	0.4219	0.4973	0.5829	0.085
Mof_C 	C 	0.395	0.5278	0.5359	-0.174
Mof_C 	C 	0.3099	0.527	0.5205	0.109
Mof_C 	C 	0.2497	0.4898	0.548	-0.186
Mof_C 	C 	0.2747	0.4551	0.5935	0.108
Mof_C 	C 	0.158	0.4882	0.5306	0.421
Mof_C 	C 	0.1677	0.3787	0.7945	-0.867
Mof_C 	C 	0.14	0.3047	0.7913	0.293
Mof_C 	C 	0.9658	0.75	0.6571	-0.183
Mof_C 	C 	0.9954	0.75	0.5493	0.134
Mof_C 	C 	0.5342	0.25	0.1571	-0.18
Mof_C 	C 	0.5046	0.25	0.0493	0.126
Mof_C 	C 	0.0342	0.25	0.3429	-0.183
Mof_C 	C 	0.0046	0.25	0.4507	0.134
Mof_C 	C 	0.4658	0.75	0.8429	-0.18
Mof_C 	C 	0.4954	0.75	0.9507	0.126
Mof_N 	N 	0.0675	0.8693	0.30332	-0.313
Mof_N 	N 	0.1268	0.8344	0.33405	-0.32
Mof_N 	N 	0.0664	0.9154	0.3834	-0.347
Mof_N 	N 	0.4405	0.7853	0.2811	-0.298
Mof_N 	N 	0.4325	0.1307	0.80332	-0.315
Mof_N 	N 	0.3732	0.1656	0.83405	-0.32
Mof_N 	N 	0.4336	0.0846	0.8834	-0.349
Mof_N 	N 	0.0595	0.2147	0.7811	-0.297
Mof_N 	N 	0.9325	0.3693	0.69668	-0.315
Mof_N 	N 	0.8732	0.3344	0.66595	-0.32
Mof_N 	N 	0.9336	0.4154	0.6166	-0.348
Mof_N 	N 	0.5595	0.2853	0.7189	-0.298
Mof_N 	N 	0.5675	0.6307	0.19668	-0.315
Mof_N 	N 	0.6268	0.6656	0.16595	-0.32
Mof_N 	N 	0.5664	0.5846	0.1166	-0.349
Mof_N 	N 	0.9405	0.7147	0.2189	-0.297
Mof_N 	N 	0.9325	0.1307	0.69668	-0.313
Mof_N 	N 	0.8732	0.1656	0.66595	-0.32
Mof_N 	N 	0.9336	0.0846	0.6166	-0.347
Mof_N 	N 	0.5595	0.2147	0.7189	-0.298
Mof_N 	N 	0.5675	0.8693	0.19668	-0.315
Mof_N 	N 	0.6268	0.8344	0.16595	-0.32
Mof_N 	N 	0.5664	0.9154	0.1166	-0.349
Mof_N 	N 	0.9405	0.7853	0.2189	-0.297
Mof_N 	N 	0.0675	0.6307	0.30332	-0.315
Mof_N 	N 	0.1268	0.6656	0.33405	-0.32
Mof_N 	N 	0.0664	0.5846	0.3834	-0.348
Mof_N 	N 	0.4405	0.7147	0.2811	-0.298
Mof_N 	N 	0.4325	0.3693	0.80332	-0.315
Mof_N 	N 	0.3732	0.3344	0.83405	-0.32
Mof_N 	N 	0.4336	0.4154	0.8834	-0.349
Mof_N 	N 	0.0595	0.2853	0.7811	-0.297
Mof_N 	N 	0.3082	0.75	0.298	-0.399
Mof_N 	N 	0.1918	0.25	0.798	-0.399
Mof_N 	N 	0.6918	0.25	0.702	-0.399
Mof_N 	N 	0.8082	0.75	0.202	-0.399
Mof_O 	O 	0.0124	0.8793	0.4994	-0.492
Mof_O 	O 	0.9795	0.9336	0.5739	-0.492
Mof_O 	O 	0.3953	0.9602	0.0614	-0.474
Mof_O 	O 	0.3591	0.0163	0.98704	-0.488
Mof_O 	O 	0.1671	0.889	0.1868	-0.483
Mof_O 	O 	0.0392	0.9133	0.1718	-0.515
Mof_O 	O 	0.4876	0.1207	0.9994	-0.488
Mof_O 	O 	0.5205	0.0664	0.0739	-0.494
Mof_O 	O 	0.1047	0.0398	0.5614	-0.473
Mof_O 	O 	0.1409	0.9837	0.48704	-0.493
Mof_O 	O 	0.3329	0.111	0.6868	-0.483
Mof_O 	O 	0.4608	0.0867	0.6718	-0.514
Mof_O 	O 	0.9876	0.3793	0.5006	-0.49
Mof_O 	O 	0.0205	0.4336	0.4261	-0.494
Mof_O 	O 	0.6047	0.4602	0.9386	-0.475
Mof_O 	O 	0.6409	0.5163	0.01296	-0.49
Mof_O 	O 	0.8329	0.389	0.8132	-0.483
Mof_O 	O 	0.9608	0.4133	0.8282	-0.515
Mof_O 	O 	0.5124	0.6207	0.0006	-0.489
Mof_O 	O 	0.4795	0.5664	0.9261	-0.493
Mof_O 	O 	0.8953	0.5398	0.4386	-0.474
Mof_O 	O 	0.8591	0.4837	0.51296	-0.49
Mof_O 	O 	0.6671	0.611	0.3132	-0.483
Mof_O 	O 	0.5392	0.5867	0.3282	-0.514
Mof_O 	O 	0.9876	0.1207	0.5006	-0.492
Mof_O 	O 	0.0205	0.0664	0.4261	-0.492
Mof_O 	O 	0.6047	0.0398	0.9386	-0.474
Mof_O 	O 	0.6409	0.9837	0.01296	-0.488
Mof_O 	O 	0.8329	0.111	0.8132	-0.483
Mof_O 	O 	0.9608	0.0867	0.8282	-0.515
Mof_O 	O 	0.5124	0.8793	0.0006	-0.488
Mof_O 	O 	0.4795	0.9336	0.9261	-0.494
Mof_O 	O 	0.8953	0.9602	0.4386	-0.473
Mof_O 	O 	0.8591	0.0163	0.51296	-0.493
Mof_O 	O 	0.6671	0.889	0.3132	-0.483
Mof_O 	O 	0.5392	0.9133	0.3282	-0.514
Mof_O 	O 	0.0124	0.6207	0.4994	-0.49
Mof_O 	O 	0.9795	0.5664	0.5739	-0.494
Mof_O 	O 	0.3953	0.5398	0.0614	-0.475
Mof_O 	O 	0.3591	0.4837	0.98704	-0.49
Mof_O 	O 	0.1671	0.611	0.1868	-0.483
Mof_O 	O 	0.0392	0.5867	0.1718	-0.515
Mof_O 	O 	0.4876	0.3793	0.9994	-0.489
Mof_O 	O 	0.5205	0.4336	0.0739	-0.493
Mof_O 	O 	0.1047	0.4602	0.5614	-0.474
Mof_O 	O 	0.1409	0.5163	0.48704	-0.49
Mof_O 	O 	0.3329	0.389	0.6868	-0.483
Mof_O 	O 	0.4608	0.4133	0.6718	-0.514
Mof_O 	O 	0.1251	0.75	0.2337	-0.892
Mof_O 	O 	0.3749	0.25	0.7337	-0.892
Mof_O 	O 	0.8749	0.25	0.7663	-0.892
Mof_O 	O 	0.6251	0.75	0.2663	-0.892
_end
