data_functionalizedCrystal
_audit_creation_method	'EQeq! by Chris Wilmer'
_symmetry_space_group_name_H-M	'P1'
_symmetry_Int_Tables_number	1
_symmetry_cell_setting	triclinic
loop_
_symmetry_equiv_pos_as_xyz
  x,y,z
_cell_length_a	10.3036
_cell_length_b	15.2248
_cell_length_c	20.4069
_cell_angle_alpha	68.0974
_cell_angle_beta	75.3772
_cell_angle_gamma	90
loop_
_atom_site_label
_atom_site_type_symbol
_atom_site_fract_x
_atom_site_fract_y
_atom_site_fract_z
_atom_site_charge
Mof_Cu	Cu	0.61855	0.52527	0.94946	0.91
Mof_Cu	Cu	0.06801	0.97473	0.05054	0.905
Mof_Cu	Cu	0.93199	0.02527	0.94946	0.905
Mof_Cu	Cu	0.38145	0.47473	0.05054	0.91
Mof_H 	H 	0.4843	0.7567	0.7824	0.09
Mof_H 	H 	0.2411	0.8226	0.5646	0.06
Mof_H 	H 	0.7667	0.7433	0.2176	0.09
Mof_H 	H 	0.3057	0.6774	0.4354	0.06
Mof_H 	H 	0.2333	0.9609	0.7824	0.09
Mof_H 	H 	0.6943	0.1128	0.5646	0.059
Mof_H 	H 	0.5157	0.5391	0.2176	0.089
Mof_H 	H 	0.7589	0.3872	0.4354	0.06
Mof_H 	H 	0.5157	0.2433	0.2176	0.09
Mof_H 	H 	0.7589	0.1774	0.4354	0.06
Mof_H 	H 	0.2333	0.2567	0.7824	0.09
Mof_H 	H 	0.6943	0.3226	0.5646	0.06
Mof_H 	H 	0.7667	0.0391	0.2176	0.09
Mof_H 	H 	0.3057	0.8872	0.4354	0.059
Mof_H 	H 	0.4843	0.4609	0.7824	0.089
Mof_H 	H 	0.2411	0.6128	0.5646	0.06
Mof_H 	H 	0.2625	0.7625	0.975	0.065
Mof_H 	H 	0.7375	0.7375	0.025	0.064
Mof_H 	H 	0.7375	0.2375	0.025	0.065
Mof_H 	H 	0.2625	0.2625	0.975	0.064
Mof_C 	C 	0.4284	0.65415	0.9262	0.346
Mof_C 	C 	0.37712	0.74471	0.88536	-0.036
Mof_C 	C 	0.41908	0.78433	0.80864	-0.078
Mof_C 	C 	0.33192	0.86662	0.65796	0.223
Mof_C 	C 	0.37471	0.90731	0.57618	-0.055
Mof_C 	C 	0.3118	0.8731	0.5386	-0.022
Mof_C 	C 	0.8546	0.84585	0.0738	0.346
Mof_C 	C 	0.76248	0.75529	0.11464	-0.037
Mof_C 	C 	0.72772	0.71567	0.19136	-0.078
Mof_C 	C 	0.48988	0.63338	0.34204	0.222
Mof_C 	C 	0.45089	0.59269	0.42382	-0.055
Mof_C 	C 	0.3504	0.6269	0.4614	-0.021
Mof_C 	C 	0.1454	0.91965	0.9262	0.345
Mof_C 	C 	0.23752	0.86993	0.88536	-0.036
Mof_C 	C 	0.27228	0.90703	0.80864	-0.078
Mof_C 	C 	0.51012	0.97542	0.65796	0.226
Mof_C 	C 	0.54911	0.01651	0.57618	-0.057
Mof_C 	C 	0.6496	0.0883	0.5386	-0.02
Mof_C 	C 	0.5716	0.58035	0.0738	0.346
Mof_C 	C 	0.62288	0.63007	0.11464	-0.037
Mof_C 	C 	0.58092	0.59297	0.19136	-0.078
Mof_C 	C 	0.66808	0.52458	0.34204	0.222
Mof_C 	C 	0.62529	0.48349	0.42382	-0.054
Mof_C 	C 	0.6882	0.4117	0.4614	-0.022
Mof_C 	C 	0.5716	0.34585	0.0738	0.346
Mof_C 	C 	0.62288	0.25529	0.11464	-0.036
Mof_C 	C 	0.58092	0.21567	0.19136	-0.078
Mof_C 	C 	0.66808	0.13338	0.34204	0.223
Mof_C 	C 	0.62529	0.09269	0.42382	-0.055
Mof_C 	C 	0.6882	0.1269	0.4614	-0.022
Mof_C 	C 	0.1454	0.15415	0.9262	0.346
Mof_C 	C 	0.23752	0.24471	0.88536	-0.037
Mof_C 	C 	0.27228	0.28433	0.80864	-0.078
Mof_C 	C 	0.51012	0.36662	0.65796	0.222
Mof_C 	C 	0.54911	0.40731	0.57618	-0.055
Mof_C 	C 	0.6496	0.3731	0.5386	-0.021
Mof_C 	C 	0.8546	0.08035	0.0738	0.345
Mof_C 	C 	0.76248	0.13007	0.11464	-0.036
Mof_C 	C 	0.72772	0.09297	0.19136	-0.078
Mof_C 	C 	0.48988	0.02458	0.34204	0.226
Mof_C 	C 	0.45089	0.98349	0.42382	-0.057
Mof_C 	C 	0.3504	0.9117	0.4614	-0.02
Mof_C 	C 	0.4284	0.41965	0.9262	0.346
Mof_C 	C 	0.37712	0.36993	0.88536	-0.037
Mof_C 	C 	0.41908	0.40703	0.80864	-0.078
Mof_C 	C 	0.33192	0.47542	0.65796	0.222
Mof_C 	C 	0.37471	0.51651	0.57618	-0.054
Mof_C 	C 	0.3118	0.5883	0.5386	-0.022
Mof_C 	C 	0.28857	0.78857	0.92286	-0.004
Mof_C 	C 	0.364	0.864	0.772	0.138
Mof_C 	C 	0.48059	0.98059	0.53882	0.033
Mof_C 	C 	0.71143	0.71143	0.07714	-0.004
Mof_C 	C 	0.636	0.636	0.228	0.138
Mof_C 	C 	0.51941	0.51941	0.46118	0.032
Mof_C 	C 	0.71143	0.21143	0.07714	-0.004
Mof_C 	C 	0.636	0.136	0.228	0.138
Mof_C 	C 	0.51941	0.01941	0.46118	0.033
Mof_C 	C 	0.28857	0.28857	0.92286	-0.004
Mof_C 	C 	0.364	0.364	0.772	0.138
Mof_C 	C 	0.48059	0.48059	0.53882	0.032
Mof_N 	N 	0.4039	0.9039	0.6922	-0.185
Mof_N 	N 	0.5961	0.5961	0.3078	-0.184
Mof_N 	N 	0.5961	0.0961	0.3078	-0.185
Mof_N 	N 	0.4039	0.4039	0.6922	-0.184
Mof_O 	O 	0.54465	0.64012	0.8975	-0.393
Mof_O 	O 	0.34779	0.59967	0.9852	-0.398
Mof_O 	O 	0.24221	0.80381	0.69358	-0.214
Mof_O 	O 	0.94215	0.85988	0.1025	-0.391
Mof_O 	O 	0.83299	0.90033	0.0148	-0.398
Mof_O 	O 	0.43579	0.69619	0.30642	-0.215
Mof_O 	O 	0.05785	0.96238	0.8975	-0.39
Mof_O 	O 	0.16701	0.91513	0.9852	-0.396
Mof_O 	O 	0.56421	0.00261	0.69358	-0.217
Mof_O 	O 	0.45535	0.53762	0.1025	-0.393
Mof_O 	O 	0.65221	0.58487	0.0148	-0.399
Mof_O 	O 	0.75779	0.49739	0.30642	-0.214
Mof_O 	O 	0.45535	0.35988	0.1025	-0.393
Mof_O 	O 	0.65221	0.40033	0.0148	-0.398
Mof_O 	O 	0.75779	0.19619	0.30642	-0.214
Mof_O 	O 	0.05785	0.14012	0.8975	-0.391
Mof_O 	O 	0.16701	0.09967	0.9852	-0.398
Mof_O 	O 	0.56421	0.30381	0.69358	-0.215
Mof_O 	O 	0.94215	0.03762	0.1025	-0.39
Mof_O 	O 	0.83299	0.08487	0.0148	-0.396
Mof_O 	O 	0.43579	0.99739	0.30642	-0.217
Mof_O 	O 	0.54465	0.46238	0.8975	-0.393
Mof_O 	O 	0.34779	0.41513	0.9852	-0.399
Mof_O 	O 	0.24221	0.50261	0.69358	-0.214
_end
