data_functionalizedCrystal
_audit_creation_method	'EQeq! by Chris Wilmer'
_symmetry_space_group_name_H-M	'P1'
_symmetry_Int_Tables_number	1
_symmetry_cell_setting	triclinic
loop_
_symmetry_equiv_pos_as_xyz
  x,y,z
_cell_length_a	12.31
_cell_length_b	26.25
_cell_length_c	26.341
_cell_angle_alpha	90
_cell_angle_beta	90
_cell_angle_gamma	90
loop_
_atom_site_label
_atom_site_type_symbol
_atom_site_fract_x
_atom_site_fract_y
_atom_site_fract_z
_atom_site_charge
Mof_Zn	Zn	0.41733	0.99266	0.9591	1.197
Mof_Zn	Zn	0.58267	0.00734	0.4591	1.198
Mof_Zn	Zn	0.58267	0.49266	0.5409	1.198
Mof_Zn	Zn	0.41733	0.50734	0.0409	1.197
Mof_Zn	Zn	0.58267	0.00734	0.0409	1.197
Mof_Zn	Zn	0.41733	0.99266	0.5409	1.198
Mof_Zn	Zn	0.41733	0.50734	0.4591	1.198
Mof_Zn	Zn	0.58267	0.49266	0.9591	1.198
Mof_Zn	Zn	0.49251	0.80555	0.75	1.201
Mof_Zn	Zn	0.66086	0.7236	0.75	1.195
Mof_Zn	Zn	0.50749	0.19445	0.25	1.201
Mof_Zn	Zn	0.33914	0.2764	0.25	1.194
Mof_Zn	Zn	0.50749	0.30555	0.75	1.201
Mof_Zn	Zn	0.33914	0.2236	0.75	1.194
Mof_Zn	Zn	0.49251	0.69445	0.25	1.2
Mof_Zn	Zn	0.66086	0.7764	0.25	1.194
Mof_H 	H 	0.9207	0.7419	0.9482	0.051
Mof_H 	H 	0.0197	0.7725	0.9257	0.05
Mof_H 	H 	0.0731	0.6774	0.971	0.049
Mof_H 	H 	0.1642	0.6943	0.0095	0.05
Mof_H 	H 	0.8128	0.8893	0.9915	0.09
Mof_H 	H 	0.6096	0.89	0.873	0.054
Mof_H 	H 	0.844	0.7844	0.8813	0.084
Mof_H 	H 	0.2613	0.6355	0.9711	0.085
Mof_H 	H 	0.2975	0.7461	0.8673	0.087
Mof_H 	H 	0.5063	0.6296	0.8705	0.053
Mof_H 	H 	0.0793	0.2581	0.4482	0.051
Mof_H 	H 	0.9803	0.2275	0.4257	0.05
Mof_H 	H 	0.9269	0.3226	0.471	0.049
Mof_H 	H 	0.8358	0.3057	0.5095	0.05
Mof_H 	H 	0.1872	0.1107	0.4915	0.09
Mof_H 	H 	0.3904	0.11	0.373	0.054
Mof_H 	H 	0.156	0.2156	0.3813	0.084
Mof_H 	H 	0.7387	0.3645	0.4711	0.085
Mof_H 	H 	0.7025	0.2539	0.3673	0.087
Mof_H 	H 	0.4937	0.3704	0.3705	0.053
Mof_H 	H 	0.0793	0.2419	0.5518	0.051
Mof_H 	H 	0.9803	0.2725	0.5743	0.051
Mof_H 	H 	0.9269	0.1774	0.529	0.049
Mof_H 	H 	0.8358	0.1943	0.4905	0.05
Mof_H 	H 	0.1872	0.3893	0.5085	0.09
Mof_H 	H 	0.3904	0.39	0.627	0.054
Mof_H 	H 	0.156	0.2844	0.6187	0.084
Mof_H 	H 	0.7387	0.1355	0.5289	0.085
Mof_H 	H 	0.7025	0.2461	0.6327	0.087
Mof_H 	H 	0.4937	0.1296	0.6295	0.054
Mof_H 	H 	0.9207	0.7581	0.0518	0.051
Mof_H 	H 	0.0197	0.7275	0.0743	0.05
Mof_H 	H 	0.0731	0.8226	0.029	0.048
Mof_H 	H 	0.1642	0.8057	0.9905	0.049
Mof_H 	H 	0.8128	0.6107	0.0085	0.09
Mof_H 	H 	0.6096	0.61	0.127	0.054
Mof_H 	H 	0.844	0.7156	0.1187	0.084
Mof_H 	H 	0.2613	0.8645	0.0289	0.085
Mof_H 	H 	0.2975	0.7539	0.1327	0.087
Mof_H 	H 	0.5063	0.8704	0.1295	0.054
Mof_H 	H 	0.0793	0.2581	0.0518	0.05
Mof_H 	H 	0.9803	0.2275	0.0743	0.05
Mof_H 	H 	0.9269	0.3226	0.029	0.049
Mof_H 	H 	0.8358	0.3057	0.9905	0.051
Mof_H 	H 	0.1872	0.1107	0.0085	0.09
Mof_H 	H 	0.3904	0.11	0.127	0.054
Mof_H 	H 	0.156	0.2156	0.1187	0.084
Mof_H 	H 	0.7387	0.3645	0.0289	0.085
Mof_H 	H 	0.7025	0.2539	0.1327	0.087
Mof_H 	H 	0.4937	0.3704	0.1295	0.053
Mof_H 	H 	0.9207	0.7419	0.5518	0.051
Mof_H 	H 	0.0197	0.7725	0.5743	0.05
Mof_H 	H 	0.0731	0.6774	0.529	0.049
Mof_H 	H 	0.1642	0.6943	0.4905	0.05
Mof_H 	H 	0.8128	0.8893	0.5085	0.09
Mof_H 	H 	0.6096	0.89	0.627	0.054
Mof_H 	H 	0.844	0.7844	0.6187	0.084
Mof_H 	H 	0.2613	0.6355	0.5289	0.085
Mof_H 	H 	0.2975	0.7461	0.6327	0.087
Mof_H 	H 	0.5063	0.6296	0.6295	0.053
Mof_H 	H 	0.9207	0.7581	0.4482	0.051
Mof_H 	H 	0.0197	0.7275	0.4257	0.05
Mof_H 	H 	0.0731	0.8226	0.471	0.049
Mof_H 	H 	0.1642	0.8057	0.5095	0.05
Mof_H 	H 	0.8128	0.6107	0.4915	0.09
Mof_H 	H 	0.6096	0.61	0.373	0.054
Mof_H 	H 	0.844	0.7156	0.3813	0.084
Mof_H 	H 	0.2613	0.8645	0.4711	0.085
Mof_H 	H 	0.2975	0.7539	0.3673	0.087
Mof_H 	H 	0.5063	0.8704	0.3705	0.054
Mof_H 	H 	0.0793	0.2419	0.9482	0.051
Mof_H 	H 	0.9803	0.2725	0.9257	0.05
Mof_H 	H 	0.9269	0.1774	0.971	0.047
Mof_H 	H 	0.8358	0.1943	0.0095	0.047
Mof_H 	H 	0.1872	0.3893	0.9915	0.09
Mof_H 	H 	0.3904	0.39	0.873	0.054
Mof_H 	H 	0.156	0.2844	0.8813	0.084
Mof_H 	H 	0.7387	0.1355	0.9711	0.086
Mof_H 	H 	0.7025	0.2461	0.8673	0.087
Mof_H 	H 	0.4937	0.1296	0.8705	0.054
Mof_C 	C 	0.97543	0.7674	0.95575	-0.012
Mof_C 	C 	0.11769	0.7058	0.98205	-0.005
Mof_C 	C 	0.843	0.83352	0.94043	0.167
Mof_C 	C 	0.7894	0.87545	0.96089	-0.108
Mof_C 	C 	0.7018	0.89648	0.93608	-0.05
Mof_C 	C 	0.6683	0.87576	0.89022	-0.01
Mof_C 	C 	0.7218	0.83391	0.86983	-0.047
Mof_C 	C 	0.8086	0.81262	0.89485	-0.115
Mof_C 	C 	0.637	0.93846	0.96049	0.375
Mof_C 	C 	0.6772	0.80998	0.82213	0.372
Mof_C 	C 	0.299	0.64975	0.94403	-0.117
Mof_C 	C 	0.2658	0.69547	0.92348	0.17
Mof_C 	C 	0.3216	0.71585	0.88194	-0.104
Mof_C 	C 	0.3897	0.625	0.92386	-0.049
Mof_C 	C 	0.4456	0.64607	0.88359	-0.005
Mof_C 	C 	0.4112	0.69191	0.86255	-0.057
Mof_C 	C 	0.4729	0.71659	0.81964	0.396
Mof_C 	C 	0.4296	0.5766	0.94881	0.376
Mof_C 	C 	0.02457	0.2326	0.45575	-0.013
Mof_C 	C 	0.88231	0.2942	0.48205	-0.005
Mof_C 	C 	0.157	0.16648	0.44043	0.167
Mof_C 	C 	0.2106	0.12455	0.46089	-0.107
Mof_C 	C 	0.2982	0.10352	0.43608	-0.051
Mof_C 	C 	0.3317	0.12424	0.39022	-0.009
Mof_C 	C 	0.2782	0.16609	0.36983	-0.047
Mof_C 	C 	0.1914	0.18738	0.39485	-0.115
Mof_C 	C 	0.363	0.06154	0.46049	0.377
Mof_C 	C 	0.3228	0.19002	0.32213	0.372
Mof_C 	C 	0.701	0.35025	0.44403	-0.117
Mof_C 	C 	0.7342	0.30453	0.42348	0.171
Mof_C 	C 	0.6784	0.28415	0.38194	-0.104
Mof_C 	C 	0.6103	0.375	0.42386	-0.049
Mof_C 	C 	0.5544	0.35393	0.38359	-0.005
Mof_C 	C 	0.5888	0.30809	0.36255	-0.057
Mof_C 	C 	0.5271	0.28341	0.31964	0.396
Mof_C 	C 	0.5704	0.4234	0.44881	0.376
Mof_C 	C 	0.02457	0.2674	0.54425	-0.013
Mof_C 	C 	0.88231	0.2058	0.51795	-0.005
Mof_C 	C 	0.157	0.33352	0.55957	0.167
Mof_C 	C 	0.2106	0.37545	0.53911	-0.107
Mof_C 	C 	0.2982	0.39648	0.56392	-0.051
Mof_C 	C 	0.3317	0.37576	0.60978	-0.009
Mof_C 	C 	0.2782	0.33391	0.63017	-0.047
Mof_C 	C 	0.1914	0.31262	0.60515	-0.115
Mof_C 	C 	0.363	0.43846	0.53951	0.377
Mof_C 	C 	0.3228	0.30998	0.67787	0.372
Mof_C 	C 	0.701	0.14975	0.55597	-0.117
Mof_C 	C 	0.7342	0.19547	0.57652	0.171
Mof_C 	C 	0.6784	0.21585	0.61806	-0.104
Mof_C 	C 	0.6103	0.125	0.57614	-0.048
Mof_C 	C 	0.5544	0.14607	0.61641	-0.005
Mof_C 	C 	0.5888	0.19191	0.63745	-0.057
Mof_C 	C 	0.5271	0.21659	0.68036	0.396
Mof_C 	C 	0.5704	0.0766	0.55119	0.376
Mof_C 	C 	0.97543	0.7326	0.04425	-0.012
Mof_C 	C 	0.11769	0.7942	0.01795	-0.004
Mof_C 	C 	0.843	0.66648	0.05957	0.167
Mof_C 	C 	0.7894	0.62455	0.03911	-0.108
Mof_C 	C 	0.7018	0.60352	0.06392	-0.051
Mof_C 	C 	0.6683	0.62424	0.10978	-0.01
Mof_C 	C 	0.7218	0.66609	0.13017	-0.047
Mof_C 	C 	0.8086	0.68738	0.10515	-0.115
Mof_C 	C 	0.637	0.56154	0.03951	0.377
Mof_C 	C 	0.6772	0.69002	0.17787	0.372
Mof_C 	C 	0.299	0.85025	0.05597	-0.117
Mof_C 	C 	0.2658	0.80453	0.07652	0.171
Mof_C 	C 	0.3216	0.78415	0.11806	-0.104
Mof_C 	C 	0.3897	0.875	0.07614	-0.048
Mof_C 	C 	0.4456	0.85393	0.11641	-0.005
Mof_C 	C 	0.4112	0.80809	0.13745	-0.057
Mof_C 	C 	0.4729	0.78341	0.18036	0.396
Mof_C 	C 	0.4296	0.9234	0.05119	0.376
Mof_C 	C 	0.02457	0.2326	0.04425	-0.011
Mof_C 	C 	0.88231	0.2942	0.01795	-0.006
Mof_C 	C 	0.157	0.16648	0.05957	0.167
Mof_C 	C 	0.2106	0.12455	0.03911	-0.108
Mof_C 	C 	0.2982	0.10352	0.06392	-0.05
Mof_C 	C 	0.3317	0.12424	0.10978	-0.01
Mof_C 	C 	0.2782	0.16609	0.13017	-0.047
Mof_C 	C 	0.1914	0.18738	0.10515	-0.115
Mof_C 	C 	0.363	0.06154	0.03951	0.374
Mof_C 	C 	0.3228	0.19002	0.17787	0.372
Mof_C 	C 	0.701	0.35025	0.05597	-0.116
Mof_C 	C 	0.7342	0.30453	0.07652	0.17
Mof_C 	C 	0.6784	0.28415	0.11806	-0.104
Mof_C 	C 	0.6103	0.375	0.07614	-0.049
Mof_C 	C 	0.5544	0.35393	0.11641	-0.005
Mof_C 	C 	0.5888	0.30809	0.13745	-0.058
Mof_C 	C 	0.5271	0.28341	0.18036	0.396
Mof_C 	C 	0.5704	0.4234	0.05119	0.376
Mof_C 	C 	0.97543	0.7674	0.54425	-0.012
Mof_C 	C 	0.11769	0.7058	0.51795	-0.005
Mof_C 	C 	0.843	0.83352	0.55957	0.167
Mof_C 	C 	0.7894	0.87545	0.53911	-0.108
Mof_C 	C 	0.7018	0.89648	0.56392	-0.051
Mof_C 	C 	0.6683	0.87576	0.60978	-0.01
Mof_C 	C 	0.7218	0.83391	0.63017	-0.047
Mof_C 	C 	0.8086	0.81262	0.60515	-0.115
Mof_C 	C 	0.637	0.93846	0.53951	0.377
Mof_C 	C 	0.6772	0.80998	0.67787	0.372
Mof_C 	C 	0.299	0.64975	0.55597	-0.117
Mof_C 	C 	0.2658	0.69547	0.57652	0.171
Mof_C 	C 	0.3216	0.71585	0.61806	-0.104
Mof_C 	C 	0.3897	0.625	0.57614	-0.049
Mof_C 	C 	0.4456	0.64607	0.61641	-0.005
Mof_C 	C 	0.4112	0.69191	0.63745	-0.057
Mof_C 	C 	0.4729	0.71659	0.68036	0.396
Mof_C 	C 	0.4296	0.5766	0.55119	0.376
Mof_C 	C 	0.97543	0.7326	0.45575	-0.012
Mof_C 	C 	0.11769	0.7942	0.48205	-0.005
Mof_C 	C 	0.843	0.66648	0.44043	0.167
Mof_C 	C 	0.7894	0.62455	0.46089	-0.107
Mof_C 	C 	0.7018	0.60352	0.43608	-0.051
Mof_C 	C 	0.6683	0.62424	0.39022	-0.009
Mof_C 	C 	0.7218	0.66609	0.36983	-0.047
Mof_C 	C 	0.8086	0.68738	0.39485	-0.115
Mof_C 	C 	0.637	0.56154	0.46049	0.377
Mof_C 	C 	0.6772	0.69002	0.32213	0.372
Mof_C 	C 	0.299	0.85025	0.44403	-0.117
Mof_C 	C 	0.2658	0.80453	0.42348	0.171
Mof_C 	C 	0.3216	0.78415	0.38194	-0.104
Mof_C 	C 	0.3897	0.875	0.42386	-0.048
Mof_C 	C 	0.4456	0.85393	0.38359	-0.005
Mof_C 	C 	0.4112	0.80809	0.36255	-0.057
Mof_C 	C 	0.4729	0.78341	0.31964	0.396
Mof_C 	C 	0.4296	0.9234	0.44881	0.376
Mof_C 	C 	0.02457	0.2674	0.95575	-0.01
Mof_C 	C 	0.88231	0.2058	0.98205	0.002
Mof_C 	C 	0.157	0.33352	0.94043	0.167
Mof_C 	C 	0.2106	0.37545	0.96089	-0.107
Mof_C 	C 	0.2982	0.39648	0.93608	-0.051
Mof_C 	C 	0.3317	0.37576	0.89022	-0.009
Mof_C 	C 	0.2782	0.33391	0.86983	-0.047
Mof_C 	C 	0.1914	0.31262	0.89485	-0.115
Mof_C 	C 	0.363	0.43846	0.96049	0.378
Mof_C 	C 	0.3228	0.30998	0.82213	0.372
Mof_C 	C 	0.701	0.14975	0.94403	-0.117
Mof_C 	C 	0.7342	0.19547	0.92348	0.172
Mof_C 	C 	0.6784	0.21585	0.88194	-0.105
Mof_C 	C 	0.6103	0.125	0.92386	-0.048
Mof_C 	C 	0.5544	0.14607	0.88359	-0.006
Mof_C 	C 	0.5888	0.19191	0.86255	-0.057
Mof_C 	C 	0.5271	0.21659	0.81964	0.396
Mof_C 	C 	0.5704	0.0766	0.94881	0.376
Mof_C 	C 	0.0458	0.75	-0	0.03
Mof_C 	C 	0.9542	0.25	0.5	0.031
Mof_C 	C 	0.9542	0.25	-0	0.026
Mof_C 	C 	0.0458	0.75	0.5	0.03
Mof_O 	O 	0.9249	0.8142	0.97035	-0.219
Mof_O 	O 	0.18145	0.72419	0.94106	-0.222
Mof_O 	O 	0.67439	0.95799	0.00017	-0.466
Mof_O 	O 	0.54914	0.95045	0.93896	-0.483
Mof_O 	O 	0.59482	0.83204	0.80315	-0.476
Mof_O 	O 	0.72187	0.77075	0.8053	-0.47
Mof_O 	O 	0.43409	0.7578	0.80328	-0.484
Mof_O 	O 	0.55593	0.69558	0.80398	-0.479
Mof_O 	O 	0.50859	0.55433	0.92807	-0.468
Mof_O 	O 	0.38298	0.5631	0.98895	-0.476
Mof_O 	O 	0.0751	0.1858	0.47035	-0.219
Mof_O 	O 	0.81855	0.27581	0.44106	-0.222
Mof_O 	O 	0.32561	0.04201	0.50017	-0.467
Mof_O 	O 	0.45086	0.04955	0.43896	-0.482
Mof_O 	O 	0.40518	0.16796	0.30315	-0.476
Mof_O 	O 	0.27813	0.22925	0.3053	-0.47
Mof_O 	O 	0.56591	0.2422	0.30328	-0.484
Mof_O 	O 	0.44407	0.30442	0.30398	-0.479
Mof_O 	O 	0.49141	0.44567	0.42807	-0.468
Mof_O 	O 	0.61702	0.4369	0.48895	-0.476
Mof_O 	O 	0.0751	0.3142	0.52965	-0.219
Mof_O 	O 	0.81855	0.22419	0.55894	-0.222
Mof_O 	O 	0.32561	0.45799	0.49983	-0.467
Mof_O 	O 	0.45086	0.45045	0.56104	-0.483
Mof_O 	O 	0.40518	0.33204	0.69685	-0.476
Mof_O 	O 	0.27813	0.27075	0.6947	-0.47
Mof_O 	O 	0.56591	0.2578	0.69672	-0.484
Mof_O 	O 	0.44407	0.19558	0.69602	-0.479
Mof_O 	O 	0.49141	0.05433	0.57193	-0.468
Mof_O 	O 	0.61702	0.0631	0.51105	-0.476
Mof_O 	O 	0.9249	0.6858	0.02965	-0.219
Mof_O 	O 	0.18145	0.77581	0.05894	-0.222
Mof_O 	O 	0.67439	0.54201	0.99983	-0.467
Mof_O 	O 	0.54914	0.54955	0.06104	-0.483
Mof_O 	O 	0.59482	0.66796	0.19685	-0.476
Mof_O 	O 	0.72187	0.72925	0.1947	-0.47
Mof_O 	O 	0.43409	0.7422	0.19672	-0.484
Mof_O 	O 	0.55593	0.80442	0.19602	-0.479
Mof_O 	O 	0.50859	0.94567	0.07193	-0.467
Mof_O 	O 	0.38298	0.9369	0.01105	-0.476
Mof_O 	O 	0.0751	0.1858	0.02965	-0.22
Mof_O 	O 	0.81855	0.27581	0.05894	-0.222
Mof_O 	O 	0.32561	0.04201	0.99983	-0.464
Mof_O 	O 	0.45086	0.04955	0.06104	-0.483
Mof_O 	O 	0.40518	0.16796	0.19685	-0.476
Mof_O 	O 	0.27813	0.22925	0.1947	-0.47
Mof_O 	O 	0.56591	0.2422	0.19672	-0.484
Mof_O 	O 	0.44407	0.30442	0.19602	-0.479
Mof_O 	O 	0.49141	0.44567	0.07193	-0.468
Mof_O 	O 	0.61702	0.4369	0.01105	-0.477
Mof_O 	O 	0.9249	0.8142	0.52965	-0.219
Mof_O 	O 	0.18145	0.72419	0.55894	-0.222
Mof_O 	O 	0.67439	0.95799	0.49983	-0.467
Mof_O 	O 	0.54914	0.95045	0.56104	-0.482
Mof_O 	O 	0.59482	0.83204	0.69685	-0.476
Mof_O 	O 	0.72187	0.77075	0.6947	-0.47
Mof_O 	O 	0.43409	0.7578	0.69672	-0.484
Mof_O 	O 	0.55593	0.69558	0.69602	-0.479
Mof_O 	O 	0.50859	0.55433	0.57193	-0.468
Mof_O 	O 	0.38298	0.5631	0.51105	-0.476
Mof_O 	O 	0.9249	0.6858	0.47035	-0.219
Mof_O 	O 	0.18145	0.77581	0.44106	-0.222
Mof_O 	O 	0.67439	0.54201	0.50017	-0.467
Mof_O 	O 	0.54914	0.54955	0.43896	-0.483
Mof_O 	O 	0.59482	0.66796	0.30315	-0.476
Mof_O 	O 	0.72187	0.72925	0.3053	-0.47
Mof_O 	O 	0.43409	0.7422	0.30328	-0.484
Mof_O 	O 	0.55593	0.80442	0.30398	-0.479
Mof_O 	O 	0.50859	0.94567	0.42807	-0.468
Mof_O 	O 	0.38298	0.9369	0.48895	-0.476
Mof_O 	O 	0.0751	0.3142	0.97035	-0.219
Mof_O 	O 	0.81855	0.22419	0.94106	-0.223
Mof_O 	O 	0.32561	0.45799	0.00017	-0.469
Mof_O 	O 	0.45086	0.45045	0.93896	-0.483
Mof_O 	O 	0.40518	0.33204	0.80315	-0.476
Mof_O 	O 	0.27813	0.27075	0.8053	-0.47
Mof_O 	O 	0.56591	0.2578	0.80328	-0.484
Mof_O 	O 	0.44407	0.19558	0.80398	-0.479
Mof_O 	O 	0.49141	0.05433	0.92807	-0.467
Mof_O 	O 	0.61702	0.0631	0.98895	-0.475
_end
