data_functionalizedCrystal
_audit_creation_method	'EQeq! by Chris Wilmer'
_symmetry_space_group_name_H-M	'P1'
_symmetry_Int_Tables_number	1
_symmetry_cell_setting	triclinic
loop_
_symmetry_equiv_pos_as_xyz
  x,y,z
_cell_length_a	8.887
_cell_length_b	25.053
_cell_length_c	10.039
_cell_angle_alpha	90
_cell_angle_beta	101.565
_cell_angle_gamma	90
loop_
_atom_site_label
_atom_site_type_symbol
_atom_site_fract_x
_atom_site_fract_y
_atom_site_fract_z
_atom_site_charge
Mof_C 	C 	0.3505	0.26685	0.2478	0.427
Mof_C 	C 	0.3024	0.25817	0.3795	-0.172
Mof_C 	C 	0.2601	0.30109	0.4527	0.161
Mof_C 	C 	0.2949	0.20754	0.4327	0.163
Mof_C 	C 	0.0241	0.0267	0.1279	0.147
Mof_Cl	Cl	0.26937	0.36493	0.38424	-0.231
Mof_Cl	Cl	0.35364	0.15378	0.34406	-0.246
Mof_Cl	Cl	0.04586	0.06292	0.2725	-0.22
Mof_O 	O 	0.2668	0.25516	0.1341	-0.549
Mof_O 	O 	0.4887	0.28225	0.2482	-0.374
Mof_O 	O 	0.8749	0.141	0.9939	0.013
Mof_C 	C 	0.8505	0.76685	0.2478	0.427
Mof_C 	C 	0.8024	0.75817	0.3795	-0.154
Mof_C 	C 	0.7601	0.80109	0.4527	0.17
Mof_C 	C 	0.7949	0.70754	0.4327	0.173
Mof_C 	C 	0.5241	0.5267	0.1279	0.149
Mof_Cl	Cl	0.76937	0.86493	0.38424	-0.187
Mof_Cl	Cl	0.85364	0.65378	0.34406	-0.206
Mof_Cl	Cl	0.54586	0.56292	0.2725	-0.185
Mof_O 	O 	0.7668	0.75516	0.1341	-0.531
Mof_O 	O 	0.9887	0.78225	0.2482	-0.313
Mof_O 	O 	0.3749	0.641	0.9939	-0.063
Mof_C 	C 	0.6495	0.26685	0.7522	0.403
Mof_C 	C 	0.6976	0.25817	0.6205	-0.121
Mof_C 	C 	0.7399	0.30109	0.5473	0.153
Mof_C 	C 	0.7051	0.20754	0.5673	0.153
Mof_C 	C 	0.9759	0.0267	0.8721	0.345
Mof_Cl	Cl	0.73063	0.36493	0.61576	-0.129
Mof_Cl	Cl	0.64636	0.15378	0.65594	-0.181
Mof_Cl	Cl	0.95414	0.06292	0.7275	-0.106
Mof_O 	O 	0.7332	0.25516	0.8659	-0.351
Mof_O 	O 	0.5113	0.28225	0.7518	-0.299
Mof_O 	O 	0.1251	0.141	0.0061	-0.335
Mof_C 	C 	0.1495	0.76685	0.7522	0.412
Mof_C 	C 	0.1976	0.75817	0.6205	-0.144
Mof_C 	C 	0.2399	0.80109	0.5473	0.144
Mof_C 	C 	0.2051	0.70754	0.5673	0.144
Mof_C 	C 	0.4759	0.5267	0.8721	0.303
Mof_Cl	Cl	0.23063	0.86493	0.61576	-0.171
Mof_Cl	Cl	0.14636	0.65378	0.65594	-0.219
Mof_Cl	Cl	0.45414	0.56292	0.7275	-0.142
Mof_O 	O 	0.2332	0.75516	0.8659	-0.377
Mof_O 	O 	0.0113	0.78225	0.7518	-0.32
Mof_O 	O 	0.6251	0.641	0.0061	-0.342
Mof_C 	C 	0.6495	0.73315	0.7522	0.403
Mof_C 	C 	0.6976	0.74183	0.6205	-0.121
Mof_C 	C 	0.7399	0.69891	0.5473	0.153
Mof_C 	C 	0.7051	0.79246	0.5673	0.153
Mof_C 	C 	0.9759	0.9733	0.8721	0.345
Mof_Cl	Cl	0.73063	0.63507	0.61576	-0.129
Mof_Cl	Cl	0.64636	0.84622	0.65594	-0.181
Mof_Cl	Cl	0.95414	0.93708	0.7275	-0.106
Mof_O 	O 	0.7332	0.74484	0.8659	-0.351
Mof_O 	O 	0.5113	0.71775	0.7518	-0.299
Mof_O 	O 	0.1251	0.859	0.0061	-0.335
Mof_C 	C 	0.1495	0.23315	0.7522	0.412
Mof_C 	C 	0.1976	0.24183	0.6205	-0.144
Mof_C 	C 	0.2399	0.19891	0.5473	0.144
Mof_C 	C 	0.2051	0.29246	0.5673	0.144
Mof_C 	C 	0.4759	0.4733	0.8721	0.303
Mof_Cl	Cl	0.23063	0.13507	0.61576	-0.171
Mof_Cl	Cl	0.14636	0.34622	0.65594	-0.219
Mof_Cl	Cl	0.45414	0.43708	0.7275	-0.142
Mof_O 	O 	0.2332	0.24484	0.8659	-0.377
Mof_O 	O 	0.0113	0.21775	0.7518	-0.32
Mof_O 	O 	0.6251	0.359	0.0061	-0.342
Mof_C 	C 	0.3505	0.73315	0.2478	0.428
Mof_C 	C 	0.3024	0.74183	0.3795	-0.171
Mof_C 	C 	0.2601	0.69891	0.4527	0.161
Mof_C 	C 	0.2949	0.79246	0.4327	0.163
Mof_C 	C 	0.0241	0.9733	0.1279	0.147
Mof_Cl	Cl	0.26937	0.63507	0.38424	-0.231
Mof_Cl	Cl	0.35364	0.84622	0.34406	-0.246
Mof_Cl	Cl	0.04586	0.93708	0.2725	-0.22
Mof_O 	O 	0.2668	0.74484	0.1341	-0.549
Mof_O 	O 	0.4887	0.71775	0.2482	-0.374
Mof_O 	O 	0.8749	0.859	0.9939	0.013
Mof_C 	C 	0.8505	0.23315	0.2478	0.427
Mof_C 	C 	0.8024	0.24183	0.3795	-0.154
Mof_C 	C 	0.7601	0.19891	0.4527	0.17
Mof_C 	C 	0.7949	0.29246	0.4327	0.173
Mof_C 	C 	0.5241	0.4733	0.1279	0.149
Mof_Cl	Cl	0.76937	0.13507	0.38424	-0.187
Mof_Cl	Cl	0.85364	0.34622	0.34406	-0.206
Mof_Cl	Cl	0.54586	0.43708	0.2725	-0.185
Mof_O 	O 	0.7668	0.24484	0.1341	-0.531
Mof_O 	O 	0.9887	0.21775	0.2482	-0.313
Mof_O 	O 	0.3749	0.359	0.9939	-0.063
Mof_C 	C 	-2.88199e-33	0.1159	-0	0.073
Mof_C 	C 	-0	0.0565	-0	-0.278
Mof_La	La	-5.76399e-33	0.23412	-0	1.449
Mof_C 	C 	0.5	0.6159	-0	0.138
Mof_C 	C 	0.5	0.5565	-0	-0.234
Mof_La	La	0.5	0.73412	-0	1.632
Mof_C 	C 	-2.30559e-32	0.8841	-0	0.073
Mof_C 	C 	-0	0.9435	-0	-0.278
Mof_La	La	-2.30559e-32	0.76588	-0	1.449
Mof_C 	C 	0.5	0.3841	-0	0.138
Mof_C 	C 	0.5	0.4435	-0	-0.234
Mof_La	La	0.5	0.26588	-0	1.632
_end
