data_functionalizedCrystal
_audit_creation_method	'EQeq! by Chris Wilmer'
_symmetry_space_group_name_H-M	'P1'
_symmetry_Int_Tables_number	1
_symmetry_cell_setting	triclinic
loop_
_symmetry_equiv_pos_as_xyz
  x,y,z
_cell_length_a	12.7792
_cell_length_b	14.8175
_cell_length_c	15.4737
_cell_angle_alpha	90
_cell_angle_beta	90
_cell_angle_gamma	90
loop_
_atom_site_label
_atom_site_type_symbol
_atom_site_fract_x
_atom_site_fract_y
_atom_site_fract_z
_atom_site_charge
Mof_Cd	Cd	0.23507	0.71983	0.27248	0.529
Mof_Cd	Cd	0.4334	0.59261	0.40875	0.417
Mof_Cl	Cl	0.1003	0.7992	0.19324	-0.289
Mof_O 	O 	0.2599	0.5625	0.4143	-0.276
Mof_O 	O 	0.1455	0.6708	0.3823	-0.269
Mof_O 	O 	0.8813	0.7601	0.6018	-0.293
Mof_O 	O 	0.8641	0.6786	0.7189	-0.272
Mof_O 	O 	0.0789	0.4089	0.7643	-0.287
Mof_O 	O 	0.2186	0.387	0.6827	-0.274
Mof_C 	C 	0.1822	0.6106	0.4316	0.331
Mof_C 	C 	0.9089	0.6972	0.6505	0.333
Mof_C 	C 	0.1379	0.4284	0.7023	0.339
Mof_C 	C 	0.1267	0.5944	0.5145	-0.089
Mof_C 	C 	0.0471	0.6523	0.5432	0.043
Mof_H 	H 	0.0282	0.7017	0.5095	0.047
Mof_C 	C 	0.9961	0.6369	0.6209	-0.093
Mof_C 	C 	0.0261	0.5636	0.6722	0.043
Mof_H 	H 	0.992	0.5526	0.7242	0.051
Mof_C 	C 	0.1063	0.5076	0.6456	-0.087
Mof_C 	C 	0.1554	0.5236	0.5688	0.043
Mof_H 	H 	0.2099	0.4859	0.552	0.056
Mof_Cd	Cd	0.26493	0.28017	0.77248	0.528
Mof_Cd	Cd	0.0666	0.40739	0.90875	0.416
Mof_Cl	Cl	0.3997	0.2008	0.69324	-0.291
Mof_O 	O 	0.2401	0.4375	0.9143	-0.277
Mof_O 	O 	0.3545	0.3292	0.8823	-0.269
Mof_O 	O 	0.6187	0.2399	0.1018	-0.293
Mof_O 	O 	0.6359	0.3214	0.2189	-0.272
Mof_O 	O 	0.4211	0.5911	0.2643	-0.287
Mof_O 	O 	0.2814	0.613	0.1827	-0.274
Mof_C 	C 	0.3178	0.3894	0.9316	0.331
Mof_C 	C 	0.5911	0.3028	0.1505	0.333
Mof_C 	C 	0.3621	0.5716	0.2023	0.339
Mof_C 	C 	0.3733	0.4056	0.0145	-0.089
Mof_C 	C 	0.4529	0.3477	0.0432	0.043
Mof_H 	H 	0.4718	0.2983	0.0095	0.047
Mof_C 	C 	0.5039	0.3631	0.1209	-0.092
Mof_C 	C 	0.4739	0.4364	0.1722	0.042
Mof_H 	H 	0.508	0.4474	0.2242	0.051
Mof_C 	C 	0.3937	0.4924	0.1456	-0.086
Mof_C 	C 	0.3446	0.4764	0.0688	0.043
Mof_H 	H 	0.2901	0.5141	0.052	0.056
Mof_Cd	Cd	0.76493	0.21983	0.22752	0.528
Mof_Cd	Cd	0.5666	0.09261	0.09125	0.416
Mof_Cl	Cl	0.8997	0.2992	0.30676	-0.291
Mof_O 	O 	0.7401	0.0625	0.0857	-0.277
Mof_O 	O 	0.8545	0.1708	0.1177	-0.269
Mof_O 	O 	0.1187	0.2601	0.8982	-0.293
Mof_O 	O 	0.1359	0.1786	0.7811	-0.272
Mof_O 	O 	0.9211	0.9089	0.7357	-0.287
Mof_O 	O 	0.7814	0.887	0.8173	-0.274
Mof_C 	C 	0.8178	0.1106	0.0684	0.331
Mof_C 	C 	0.0911	0.1972	0.8495	0.334
Mof_C 	C 	0.8621	0.9284	0.7977	0.338
Mof_C 	C 	0.8733	0.0944	0.9855	-0.09
Mof_C 	C 	0.9529	0.1523	0.9568	0.045
Mof_H 	H 	0.9718	0.2017	0.9905	0.047
Mof_C 	C 	0.0039	0.1369	0.8791	-0.095
Mof_C 	C 	0.9739	0.0636	0.8278	0.045
Mof_H 	H 	0.008	0.0526	0.7758	0.05
Mof_C 	C 	0.8937	0.0076	0.8544	-0.088
Mof_C 	C 	0.8446	0.0236	0.9312	0.046
Mof_H 	H 	0.7901	0.9859	0.948	0.055
Mof_Cd	Cd	0.73507	0.78017	0.72752	0.528
Mof_Cd	Cd	0.9334	0.90739	0.59125	0.416
Mof_Cl	Cl	0.6003	0.7008	0.80676	-0.291
Mof_O 	O 	0.7599	0.9375	0.5857	-0.277
Mof_O 	O 	0.6455	0.8292	0.6177	-0.269
Mof_O 	O 	0.3813	0.7399	0.3982	-0.293
Mof_O 	O 	0.3641	0.8214	0.2811	-0.272
Mof_O 	O 	0.5789	0.0911	0.2357	-0.287
Mof_O 	O 	0.7186	0.113	0.3173	-0.274
Mof_C 	C 	0.6822	0.8894	0.5684	0.331
Mof_C 	C 	0.4089	0.8028	0.3495	0.333
Mof_C 	C 	0.6379	0.0716	0.2977	0.338
Mof_C 	C 	0.6267	0.9056	0.4855	-0.089
Mof_C 	C 	0.5471	0.8477	0.4568	0.043
Mof_H 	H 	0.5282	0.7983	0.4905	0.047
Mof_C 	C 	0.4961	0.8631	0.3791	-0.092
Mof_C 	C 	0.5261	0.9364	0.3278	0.042
Mof_H 	H 	0.492	0.9474	0.2758	0.052
Mof_C 	C 	0.6063	0.9924	0.3544	-0.086
Mof_C 	C 	0.6554	0.9764	0.4312	0.043
Mof_H 	H 	0.7099	0.0141	0.448	0.056
_end
