data_functionalizedCrystal
_audit_creation_method	'EQeq! by Chris Wilmer'
_symmetry_space_group_name_H-M	'P1'
_symmetry_Int_Tables_number	1
_symmetry_cell_setting	triclinic
loop_
_symmetry_equiv_pos_as_xyz
  x,y,z
_cell_length_a	11.583
_cell_length_b	11.665
_cell_length_c	14.159
_cell_angle_alpha	93.932
_cell_angle_beta	111.98
_cell_angle_gamma	110.018
loop_
_atom_site_label
_atom_site_type_symbol
_atom_site_fract_x
_atom_site_fract_y
_atom_site_fract_z
_atom_site_charge
Mof_Cu	Cu	0.3912	0.35341	0.35517	0.879
Mof_Cu	Cu	0.36843	0.91268	0.52451	0.897
Mof_Cu	Cu	0.6088	0.64659	0.64483	0.886
Mof_Cu	Cu	0.63157	0.08732	0.47549	0.868
Mof_Cu	Cu	0.5	0	-0	0.834
Mof_H 	H 	0.1104	0.9654	0.3266	0.168
Mof_H 	H 	0.1462	0.1074	0.3761	0.146
Mof_H 	H 	0.2789	0.1808	0.5587	0.146
Mof_H 	H 	0.1741	0.1008	0.6007	0.144
Mof_H 	H 	0.6949	0.6	0.1651	0.105
Mof_H 	H 	0.7914	0.7412	0.2282	0.119
Mof_H 	H 	0.707	0.4349	0.2451	0.125
Mof_H 	H 	0.8061	0.4606	0.3656	0.127
Mof_H 	H 	0.9665	0.5359	0.6214	0.125
Mof_H 	H 	0.0023	0.5852	0.7411	0.138
Mof_H 	H 	0.0873	0.8944	0.7427	0.139
Mof_H 	H 	0.0627	0.7905	0.8088	0.138
Mof_H 	H 	0.8896	0.0346	0.6734	0.088
Mof_H 	H 	0.8538	0.8926	0.6239	0.118
Mof_H 	H 	0.7211	0.8192	0.4413	0.141
Mof_H 	H 	0.8259	0.8992	0.3993	0.154
Mof_H 	H 	0.3051	0.4	0.8349	0.123
Mof_H 	H 	0.2086	0.2588	0.7718	0.122
Mof_H 	H 	0.293	0.5651	0.7549	0.139
Mof_H 	H 	0.1939	0.5394	0.6344	0.13
Mof_H 	H 	0.0335	0.4641	0.3786	0.123
Mof_H 	H 	0.9977	0.4148	0.2589	0.123
Mof_H 	H 	0.9127	0.1056	0.2573	0.115
Mof_H 	H 	0.9373	0.2095	0.1912	0.114
Mof_C 	C 	0.3213	0.0791	0.3837	0.404
Mof_C 	C 	0.1767	0.0377	0.3856	-0.357
Mof_C 	C 	0.2443	0.0996	0.5772	-0.32
Mof_C 	C 	0.3583	0.0926	0.6679	0.408
Mof_C 	C 	0.0885	0.8891	0.4818	0.138
Mof_C 	C 	0.9295	0.6973	0.3997	0.162
Mof_C 	C 	0.7898	0.6566	0.2117	-0.199
Mof_C 	C 	0.8734	0.6622	0.1551	0.243
Mof_C 	C 	0.7469	0.4927	0.314	-0.265
Mof_C 	C 	0.6349	0.488	0.343	0.383
Mof_C 	C 	0.0239	0.7514	0.573	0.161
Mof_C 	C 	0.9604	0.5969	0.6695	-0.263
Mof_C 	C 	0.8129	0.5684	0.6409	0.381
Mof_C 	C 	0.1049	0.8198	0.761	-0.264
Mof_C 	C 	0.2558	0.8591	0.819	0.387
Mof_C 	C 	0.6787	0.9209	0.6163	0.374
Mof_C 	C 	0.8233	0.9623	0.6144	-0.223
Mof_C 	C 	0.7557	0.9004	0.4228	-0.312
Mof_C 	C 	0.6417	0.9074	0.3321	0.414
Mof_C 	C 	0.9115	0.1109	0.5182	0.088
Mof_C 	C 	0.0705	0.3027	0.6003	0.163
Mof_C 	C 	0.2102	0.3434	0.7883	-0.206
Mof_C 	C 	0.1266	0.3378	0.8449	0.251
Mof_C 	C 	0.2531	0.5073	0.686	-0.271
Mof_C 	C 	0.3651	0.512	0.657	0.39
Mof_C 	C 	0.9761	0.2486	0.427	0.157
Mof_C 	C 	0.0396	0.4031	0.3305	-0.251
Mof_C 	C 	0.1871	0.4316	0.3591	0.374
Mof_C 	C 	0.8951	0.1802	0.239	-0.255
Mof_C 	C 	0.7442	0.1409	0.181	0.383
Mof_N 	N 	0.1793	0.0032	0.484	-0.086
Mof_N 	N 	0.0015	0.8093	0.3888	-0.161
Mof_N 	N 	0.8306	0.6139	0.3085	-0.059
Mof_N 	N 	0.9382	0.6596	0.4883	-0.158
Mof_N 	N 	0.0372	0.7214	0.6653	-0.053
Mof_N 	N 	0.0969	0.8702	0.5744	-0.156
Mof_N 	N 	0.8207	0.9968	0.516	-0.065
Mof_N 	N 	0.9985	0.1907	0.6112	-0.16
Mof_N 	N 	0.1694	0.3861	0.6915	-0.056
Mof_N 	N 	0.0618	0.3404	0.5117	-0.156
Mof_N 	N 	0.9628	0.2786	0.3347	-0.059
Mof_N 	N 	0.9031	0.1298	0.4256	-0.163
Mof_O 	O 	0.3346	0.1402	0.3165	-0.386
Mof_O 	O 	0.4045	0.0419	0.444	-0.503
Mof_O 	O 	0.4222	0.0296	0.652	-0.414
Mof_O 	O 	0.3901	0.1542	0.7539	-0.277
Mof_O 	O 	0.9795	0.624	0.1958	-0.209
Mof_O 	O 	0.8184	0.7009	0.0611	-0.218
Mof_O 	O 	0.6114	0.5845	0.3535	-0.308
Mof_O 	O 	0.5665	0.384	0.3542	-0.433
Mof_O 	O 	0.7797	0.6618	0.6459	-0.415
Mof_O 	O 	0.7311	0.4565	0.6201	-0.316
Mof_O 	O 	0.3191	0.8147	0.7842	-0.283
Mof_O 	O 	0.309	0.9398	0.9042	-0.376
Mof_O 	O 	0.6654	0.8598	0.6835	-0.347
Mof_O 	O 	0.5955	0.9581	0.556	-0.46
Mof_O 	O 	0.5778	0.9704	0.348	-0.386
Mof_O 	O 	0.6099	0.8458	0.2461	-0.281
Mof_O 	O 	0.0205	0.376	0.8042	-0.193
Mof_O 	O 	0.1816	0.2991	0.9389	-0.181
Mof_O 	O 	0.3886	0.4155	0.6465	-0.302
Mof_O 	O 	0.4335	0.616	0.6458	-0.424
Mof_O 	O 	0.2203	0.3382	0.3541	-0.423
Mof_O 	O 	0.2689	0.5435	0.3799	-0.319
Mof_O 	O 	0.6809	0.1853	0.2158	-0.314
Mof_O 	O 	0.691	0.0602	0.0958	-0.449
_end
