data_functionalizedCrystal
_audit_creation_method	'EQeq! by Chris Wilmer'
_symmetry_space_group_name_H-M	'P1'
_symmetry_Int_Tables_number	1
_symmetry_cell_setting	triclinic
loop_
_symmetry_equiv_pos_as_xyz
  x,y,z
_cell_length_a	14.7879
_cell_length_b	14.7879
_cell_length_c	27.9057
_cell_angle_alpha	79.6516
_cell_angle_beta	74.9658
_cell_angle_gamma	99.8765
loop_
_atom_site_label
_atom_site_type_symbol
_atom_site_fract_x
_atom_site_fract_y
_atom_site_fract_z
_atom_site_charge
Mof_La	La	0.60845	0.87391	0.99676	1.922
Mof_La	La	0.37067	0.60521	0.50324	1.921
Mof_La	La	0.39155	0.12609	0.00324	1.923
Mof_La	La	0.62933	0.39479	0.49676	1.922
Mof_P 	P 	0.639	0.72937	0.89877	0.429
Mof_P 	P 	0.83833	0.43227	0.55602	0.472
Mof_P 	P 	0.41587	0.86075	0.52228	0.436
Mof_P 	P 	0.64679	0.64873	0.45812	0.477
Mof_P 	P 	0.12814	0.53777	0.60123	0.429
Mof_P 	P 	0.48829	0.39435	0.94398	0.472
Mof_P 	P 	0.88303	0.93815	0.97772	0.434
Mof_P 	P 	0.60685	0.10491	0.04188	0.477
Mof_P 	P 	0.361	0.27063	0.10123	0.429
Mof_P 	P 	0.16167	0.56773	0.44398	0.472
Mof_P 	P 	0.58413	0.13925	0.47772	0.436
Mof_P 	P 	0.35321	0.35127	0.54188	0.477
Mof_P 	P 	0.87186	0.46223	0.39877	0.429
Mof_P 	P 	0.51171	0.60565	0.05602	0.472
Mof_P 	P 	0.11697	0.06185	0.02228	0.434
Mof_P 	P 	0.39315	0.89509	0.95812	0.477
Mof_H 	H 	0.7905	0.8909	0.8364	0.025
Mof_H 	H 	0.8809	0.9381	0.7522	0.04
Mof_H 	H 	0.6963	0.738	0.7207	0.049
Mof_H 	H 	0.7746	0.9892	0.6626	0.126
Mof_H 	H 	0.8725	0.0244	0.6753	0.124
Mof_H 	H 	0.8772	0.9954	0.531	0.119
Mof_H 	H 	0.7773	0.9714	0.5757	0.126
Mof_H 	H 	0.735	0.8263	0.6473	0.124
Mof_H 	H 	0.8091	0.7592	0.6489	0.129
Mof_H 	H 	0.0312	0.0603	0.6057	0.127
Mof_H 	H 	0.0322	0.0486	0.5496	0.12
Mof_H 	H 	0.9914	0.8858	0.5342	0.124
Mof_H 	H 	0.9629	0.7952	0.5809	0.137
Mof_H 	H 	0.988	0.9205	0.6771	0.127
Mof_H 	H 	0.9634	0.8163	0.6681	0.129
Mof_H 	H 	0.9544	0.1789	0.6317	0.042
Mof_H 	H 	0.9344	0.3305	0.6159	0.057
Mof_H 	H 	0.8053	0.2733	0.5118	0.009
Mof_H 	H 	0.8263	0.1223	0.5272	0.043
Mof_H 	H 	0.6734	0.8399	0.5769	0.044
Mof_H 	H 	0.5952	0.7605	0.5297	0.035
Mof_H 	H 	0.837	0.6722	0.4722	0.064
Mof_H 	H 	0.9123	0.7543	0.5188	0.047
Mof_H 	H 	0.1808	0.0481	0.5523	0.041
Mof_H 	H 	0.3359	0.0256	0.5203	0.062
Mof_H 	H 	0.2373	0.7497	0.5866	0.043
Mof_H 	H 	0.0846	0.7699	0.6175	0.043
Mof_H 	H 	0.2273	0.6269	0.6636	0.025
Mof_H 	H 	0.1903	0.6331	0.7478	0.041
Mof_H 	H 	0.9587	0.417	0.7793	0.05
Mof_H 	H 	0.1518	0.4372	0.8374	0.125
Mof_H 	H 	0.1997	0.5478	0.8247	0.122
Mof_H 	H 	0.0264	0.4082	0.969	0.119
Mof_H 	H 	0.0471	0.353	0.9243	0.126
Mof_H 	H 	0.9736	0.3823	0.8527	0.123
Mof_H 	H 	0.9081	0.458	0.8511	0.129
Mof_H 	H 	0.166	0.6369	0.8943	0.128
Mof_H 	H 	0.0982	0.5818	0.9504	0.122
Mof_H 	H 	0.92	0.5256	0.9658	0.124
Mof_H 	H 	0.8761	0.5438	0.9191	0.137
Mof_H 	H 	0.0976	0.6651	0.8229	0.127
Mof_H 	H 	0.9844	0.6315	0.8319	0.129
Mof_H 	H 	0.3106	0.5861	0.8683	0.042
Mof_H 	H 	0.4464	0.5503	0.8841	0.057
Mof_H 	H 	0.2851	0.3171	0.9882	0.01
Mof_H 	H 	0.1495	0.3535	0.9728	0.043
Mof_H 	H 	0.9168	0.2503	0.9231	0.044
Mof_H 	H 	0.7902	0.1249	0.9703	0.035
Mof_H 	H 	0.6444	0.3092	0.0278	0.064
Mof_H 	H 	0.7731	0.4311	0.9812	0.048
Mof_H 	H 	0.1004	0.7331	0.9477	0.041
Mof_H 	H 	0.0459	0.8562	0.9797	0.062
Mof_H 	H 	0.8363	0.8239	0.9134	0.042
Mof_H 	H 	0.8874	0.7021	0.8825	0.042
Mof_H 	H 	0.2095	0.1091	0.1636	0.025
Mof_H 	H 	0.1191	0.0619	0.2478	0.04
Mof_H 	H 	0.3037	0.262	0.2793	0.049
Mof_H 	H 	0.2254	0.0108	0.3374	0.126
Mof_H 	H 	0.1275	0.9756	0.3247	0.124
Mof_H 	H 	0.1228	0.0046	0.469	0.119
Mof_H 	H 	0.2227	0.0286	0.4243	0.126
Mof_H 	H 	0.265	0.1737	0.3527	0.124
Mof_H 	H 	0.1909	0.2408	0.3511	0.129
Mof_H 	H 	0.9688	0.9397	0.3943	0.127
Mof_H 	H 	0.9678	0.9514	0.4504	0.12
Mof_H 	H 	0.0086	0.1142	0.4658	0.124
Mof_H 	H 	0.0371	0.2048	0.4191	0.137
Mof_H 	H 	0.012	0.0795	0.3229	0.127
Mof_H 	H 	0.0366	0.1837	0.3319	0.129
Mof_H 	H 	0.0456	0.8211	0.3683	0.042
Mof_H 	H 	0.0656	0.6695	0.3841	0.057
Mof_H 	H 	0.1947	0.7267	0.4882	0.009
Mof_H 	H 	0.1737	0.8777	0.4728	0.043
Mof_H 	H 	0.3266	0.1601	0.4231	0.044
Mof_H 	H 	0.4048	0.2395	0.4703	0.035
Mof_H 	H 	0.163	0.3278	0.5278	0.064
Mof_H 	H 	0.0877	0.2457	0.4812	0.047
Mof_H 	H 	0.8192	0.9519	0.4477	0.041
Mof_H 	H 	0.6641	0.9744	0.4797	0.062
Mof_H 	H 	0.7627	0.2503	0.4134	0.043
Mof_H 	H 	0.9154	0.2301	0.3825	0.043
Mof_H 	H 	0.7727	0.3731	0.3364	0.025
Mof_H 	H 	0.8097	0.3669	0.2522	0.041
Mof_H 	H 	0.0413	0.583	0.2207	0.05
Mof_H 	H 	0.8482	0.5628	0.1626	0.125
Mof_H 	H 	0.8003	0.4522	0.1753	0.122
Mof_H 	H 	0.9736	0.5918	0.031	0.119
Mof_H 	H 	0.9529	0.647	0.0757	0.126
Mof_H 	H 	0.0264	0.6177	0.1473	0.123
Mof_H 	H 	0.0919	0.542	0.1489	0.129
Mof_H 	H 	0.834	0.3631	0.1057	0.128
Mof_H 	H 	0.9018	0.4182	0.0496	0.122
Mof_H 	H 	0.08	0.4744	0.0342	0.124
Mof_H 	H 	0.1239	0.4562	0.0809	0.137
Mof_H 	H 	0.9024	0.3349	0.1771	0.127
Mof_H 	H 	0.0156	0.3685	0.1681	0.129
Mof_H 	H 	0.6894	0.4139	0.1317	0.042
Mof_H 	H 	0.5536	0.4497	0.1159	0.057
Mof_H 	H 	0.7149	0.6829	0.0118	0.01
Mof_H 	H 	0.8505	0.6465	0.0272	0.043
Mof_H 	H 	0.0832	0.7497	0.0769	0.044
Mof_H 	H 	0.2098	0.8751	0.0297	0.035
Mof_H 	H 	0.3556	0.6908	0.9722	0.064
Mof_H 	H 	0.2269	0.5689	0.0188	0.048
Mof_H 	H 	0.8996	0.2669	0.0523	0.041
Mof_H 	H 	0.9541	0.1438	0.0203	0.062
Mof_H 	H 	0.1637	0.1761	0.0866	0.042
Mof_H 	H 	0.1126	0.2979	0.1175	0.042
Mof_C 	C 	0.7049	0.7716	0.8329	-0.086
Mof_C 	C 	0.7762	0.8546	0.8134	0.002
Mof_C 	C 	0.8267	0.8864	0.7629	-0.058
Mof_C 	C 	0.7181	0.7673	0.7446	-0.071
Mof_C 	C 	0.6701	0.7349	0.7968	0.048
Mof_C 	C 	0.7993	0.8436	0.7275	-0.042
Mof_C 	C 	0.8504	0.8835	0.6707	0.226
Mof_C 	C 	0.8433	0.9865	0.655	-0.337
Mof_C 	C 	0.8943	0.0288	0.5981	0.228
Mof_C 	C 	0.846	0.9688	0.568	-0.337
Mof_C 	C 	0.8532	0.8651	0.5817	0.233
Mof_C 	C 	0.8042	0.8255	0.6393	-0.337
Mof_C 	C 	0.999	0.0221	0.5865	-0.34
Mof_C 	C 	0.9582	0.8616	0.5712	-0.352
Mof_C 	C 	0.957	0.8819	0.6577	-0.345
Mof_C 	C 	0.0082	0.9202	0.6008	0.237
Mof_C 	C 	0.8846	0.131	0.5838	-0.052
Mof_C 	C 	0.9209	0.1972	0.6081	-0.044
Mof_C 	C 	0.9092	0.2873	0.5987	-0.004
Mof_C 	C 	0.8619	0.317	0.5647	-0.078
Mof_C 	C 	0.8338	0.2536	0.5376	0.008
Mof_C 	C 	0.8458	0.1636	0.547	-0.056
Mof_C 	C 	0.803	0.8082	0.5518	-0.062
Mof_C 	C 	0.7074	0.807	0.5548	-0.044
Mof_C 	C 	0.6606	0.7596	0.5266	-0.011
Mof_C 	C 	0.7072	0.7111	0.4941	-0.084
Mof_C 	C 	0.8036	0.708	0.4926	-0.019
Mof_C 	C 	0.8476	0.7565	0.5207	-0.033
Mof_C 	C 	0.1144	0.9118	0.5872	-0.062
Mof_C 	C 	0.1914	0.9861	0.5589	-0.034
Mof_C 	C 	0.2846	0.9731	0.5397	-0.024
Mof_C 	C 	0.301	0.885	0.549	-0.058
Mof_C 	C 	0.2254	0.811	0.5788	-0.02
Mof_C 	C 	0.1346	0.8228	0.5974	-0.036
Mof_C 	C 	0.1045	0.5378	0.6671	-0.087
Mof_C 	C 	0.168	0.5896	0.6866	0.003
Mof_C 	C 	0.1493	0.5896	0.7371	-0.059
Mof_C 	C 	0.0119	0.4627	0.7554	-0.072
Mof_C 	C 	0.0317	0.4669	0.7032	0.048
Mof_C 	C 	0.0711	0.5268	0.7725	-0.04
Mof_C 	C 	0.0542	0.5211	0.8293	0.224
Mof_C 	C 	0.1415	0.4983	0.845	-0.332
Mof_C 	C 	0.1269	0.4924	0.9019	0.226
Mof_C 	C 	0.0368	0.414	0.932	-0.335
Mof_C 	C 	0.9468	0.4349	0.9183	0.232
Mof_C 	C 	0.9648	0.4435	0.8607	-0.336
Mof_C 	C 	0.1086	0.5855	0.9135	-0.343
Mof_C 	C 	0.9328	0.5294	0.9288	-0.351
Mof_C 	C 	0.0396	0.6147	0.8423	-0.342
Mof_C 	C 	0.021	0.609	0.8992	0.236
Mof_C 	C 	0.2148	0.4684	0.9162	-0.052
Mof_C 	C 	0.3053	0.529	0.8919	-0.044
Mof_C 	C 	0.386	0.5079	0.9013	-0.004
Mof_C 	C 	0.3817	0.4266	0.9353	-0.078
Mof_C 	C 	0.2912	0.3714	0.9624	0.008
Mof_C 	C 	0.2106	0.3928	0.953	-0.057
Mof_C 	C 	0.86	0.3548	0.9482	-0.061
Mof_C 	C 	0.8618	0.2622	0.9452	-0.044
Mof_C 	C 	0.7862	0.1872	0.9734	-0.009
Mof_C 	C 	0.7052	0.2013	0.0059	-0.084
Mof_C 	C 	0.7006	0.2962	0.0074	-0.018
Mof_C 	C 	0.7772	0.3683	0.9793	-0.033
Mof_C 	C 	0.999	0.7016	0.9128	-0.062
Mof_C 	C 	0.045	0.7503	0.9411	-0.034
Mof_C 	C 	0.0128	0.8243	0.9603	-0.024
Mof_C 	C 	0.934	0.85	0.951	-0.059
Mof_C 	C 	0.8898	0.8042	0.9212	-0.02
Mof_C 	C 	0.9202	0.732	0.9026	-0.036
Mof_C 	C 	0.2951	0.2284	0.1671	-0.086
Mof_C 	C 	0.2238	0.1454	0.1866	0.002
Mof_C 	C 	0.1733	0.1136	0.2371	-0.058
Mof_C 	C 	0.2819	0.2327	0.2554	-0.071
Mof_C 	C 	0.3299	0.2651	0.2032	0.048
Mof_C 	C 	0.2007	0.1564	0.2725	-0.042
Mof_C 	C 	0.1496	0.1165	0.3293	0.226
Mof_C 	C 	0.1567	0.0135	0.345	-0.337
Mof_C 	C 	0.1057	0.9712	0.4019	0.228
Mof_C 	C 	0.154	0.0312	0.432	-0.337
Mof_C 	C 	0.1468	0.1349	0.4183	0.233
Mof_C 	C 	0.1958	0.1745	0.3607	-0.337
Mof_C 	C 	0.001	0.9779	0.4135	-0.34
Mof_C 	C 	0.0418	0.1384	0.4288	-0.352
Mof_C 	C 	0.043	0.1181	0.3423	-0.345
Mof_C 	C 	0.9918	0.0798	0.3992	0.237
Mof_C 	C 	0.1154	0.869	0.4162	-0.052
Mof_C 	C 	0.0791	0.8028	0.3919	-0.044
Mof_C 	C 	0.0908	0.7127	0.4013	-0.004
Mof_C 	C 	0.1381	0.683	0.4353	-0.078
Mof_C 	C 	0.1662	0.7464	0.4624	0.008
Mof_C 	C 	0.1542	0.8364	0.453	-0.056
Mof_C 	C 	0.197	0.1918	0.4482	-0.062
Mof_C 	C 	0.2926	0.193	0.4452	-0.044
Mof_C 	C 	0.3394	0.2404	0.4734	-0.011
Mof_C 	C 	0.2928	0.2889	0.5059	-0.084
Mof_C 	C 	0.1964	0.292	0.5074	-0.019
Mof_C 	C 	0.1524	0.2435	0.4793	-0.033
Mof_C 	C 	0.8856	0.0882	0.4128	-0.062
Mof_C 	C 	0.8086	0.0139	0.4411	-0.034
Mof_C 	C 	0.7154	0.0269	0.4603	-0.024
Mof_C 	C 	0.699	0.115	0.451	-0.058
Mof_C 	C 	0.7746	0.189	0.4212	-0.02
Mof_C 	C 	0.8654	0.1772	0.4026	-0.036
Mof_C 	C 	0.8955	0.4622	0.3329	-0.087
Mof_C 	C 	0.832	0.4104	0.3134	0.003
Mof_C 	C 	0.8507	0.4104	0.2629	-0.059
Mof_C 	C 	0.9881	0.5373	0.2446	-0.072
Mof_C 	C 	0.9683	0.5331	0.2968	0.048
Mof_C 	C 	0.9289	0.4732	0.2275	-0.04
Mof_C 	C 	0.9458	0.4789	0.1707	0.224
Mof_C 	C 	0.8585	0.5017	0.155	-0.332
Mof_C 	C 	0.8731	0.5076	0.0981	0.226
Mof_C 	C 	0.9632	0.586	0.068	-0.335
Mof_C 	C 	0.0532	0.5651	0.0817	0.232
Mof_C 	C 	0.0352	0.5565	0.1393	-0.336
Mof_C 	C 	0.8914	0.4145	0.0865	-0.343
Mof_C 	C 	0.0672	0.4706	0.0712	-0.351
Mof_C 	C 	0.9604	0.3853	0.1577	-0.342
Mof_C 	C 	0.979	0.391	0.1008	0.236
Mof_C 	C 	0.7852	0.5316	0.0838	-0.052
Mof_C 	C 	0.6947	0.471	0.1081	-0.044
Mof_C 	C 	0.614	0.4921	0.0987	-0.004
Mof_C 	C 	0.6183	0.5734	0.0647	-0.078
Mof_C 	C 	0.7088	0.6286	0.0376	0.008
Mof_C 	C 	0.7894	0.6072	0.047	-0.057
Mof_C 	C 	0.14	0.6452	0.0518	-0.061
Mof_C 	C 	0.1382	0.7378	0.0548	-0.044
Mof_C 	C 	0.2138	0.8128	0.0266	-0.009
Mof_C 	C 	0.2948	0.7987	0.9941	-0.084
Mof_C 	C 	0.2994	0.7038	0.9926	-0.018
Mof_C 	C 	0.2228	0.6317	0.0207	-0.033
Mof_C 	C 	0.001	0.2984	0.0872	-0.062
Mof_C 	C 	0.955	0.2497	0.0589	-0.034
Mof_C 	C 	0.9872	0.1757	0.0397	-0.024
Mof_C 	C 	0.066	0.15	0.049	-0.059
Mof_C 	C 	0.1102	0.1958	0.0788	-0.02
Mof_C 	C 	0.0798	0.268	0.0974	-0.036
Mof_O 	O 	0.6682	0.7939	0.9289	-0.437
Mof_O 	O 	0.6572	0.6254	0.913	-0.195
Mof_O 	O 	0.5299	0.7205	0.9038	-0.212
Mof_O 	O 	0.7626	0.4351	0.5337	-0.466
Mof_O 	O 	0.9291	0.5048	0.5283	-0.191
Mof_O 	O 	0.8071	0.4533	0.6106	-0.227
Mof_O 	O 	0.4039	0.7602	0.5217	-0.47
Mof_O 	O 	0.4812	0.8914	0.5536	-0.218
Mof_O 	O 	0.4628	0.9272	0.467	-0.215
Mof_O 	O 	0.5431	0.6277	0.4818	-0.544
Mof_O 	O 	0.6726	0.7189	0.4041	-0.24
Mof_O 	O 	0.6885	0.5655	0.4494	-0.436
Mof_O 	O 	0.2228	0.5971	0.5711	-0.437
Mof_O 	O 	0.0384	0.5702	0.587	-0.195
Mof_O 	O 	0.1243	0.4337	0.5962	-0.212
Mof_O 	O 	0.4688	0.2963	0.9663	-0.466
Mof_O 	O 	0.5331	0.4574	0.9717	-0.19
Mof_O 	O 	0.5639	0.4177	0.8894	-0.227
Mof_O 	O 	0.7819	0.9256	0.9783	-0.47
Mof_O 	O 	0.945	0.0348	0.9464	-0.217
Mof_O 	O 	0.8942	0.9298	0.033	-0.215
Mof_O 	O 	0.6095	0.0249	0.0182	-0.544
Mof_O 	O 	0.623	0.0767	0.0959	-0.24
Mof_O 	O 	0.5149	0.1379	0.0506	-0.436
Mof_O 	O 	0.3318	0.2061	0.0711	-0.437
Mof_O 	O 	0.3428	0.3746	0.087	-0.195
Mof_O 	O 	0.4701	0.2795	0.0962	-0.212
Mof_O 	O 	0.2374	0.5649	0.4663	-0.466
Mof_O 	O 	0.0709	0.4952	0.4717	-0.191
Mof_O 	O 	0.1929	0.5467	0.3894	-0.227
Mof_O 	O 	0.5961	0.2398	0.4783	-0.47
Mof_O 	O 	0.5188	0.1086	0.4464	-0.218
Mof_O 	O 	0.5372	0.0728	0.533	-0.215
Mof_O 	O 	0.4569	0.3723	0.5182	-0.544
Mof_O 	O 	0.3274	0.2811	0.5959	-0.24
Mof_O 	O 	0.3115	0.4345	0.5506	-0.436
Mof_O 	O 	0.7772	0.4029	0.4289	-0.437
Mof_O 	O 	0.9616	0.4298	0.413	-0.195
Mof_O 	O 	0.8757	0.5663	0.4038	-0.212
Mof_O 	O 	0.5312	0.7037	0.0337	-0.466
Mof_O 	O 	0.4669	0.5426	0.0283	-0.19
Mof_O 	O 	0.4361	0.5823	0.1106	-0.227
Mof_O 	O 	0.2181	0.0744	0.0217	-0.47
Mof_O 	O 	0.055	0.9652	0.0536	-0.217
Mof_O 	O 	0.1058	0.0702	0.967	-0.215
Mof_O 	O 	0.3905	0.9751	0.9818	-0.544
Mof_O 	O 	0.377	0.9233	0.9041	-0.24
Mof_O 	O 	0.4851	0.8621	0.9494	-0.436
_end
