data_functionalizedCrystal
_audit_creation_method	'EQeq! by Chris Wilmer'
_symmetry_space_group_name_H-M	'P1'
_symmetry_Int_Tables_number	1
_symmetry_cell_setting	triclinic
loop_
_symmetry_equiv_pos_as_xyz
  x,y,z
_cell_length_a	9.038
_cell_length_b	9.038
_cell_length_c	14.9034
_cell_angle_alpha	105.972
_cell_angle_beta	105.973
_cell_angle_gamma	95.3063
loop_
_atom_site_label
_atom_site_type_symbol
_atom_site_fract_x
_atom_site_fract_y
_atom_site_fract_z
_atom_site_charge
Mof_La	La	0.25386	0.50386	0.00772	1.972
Mof_La	La	0.49614	0.74614	0.49228	1.987
Mof_La	La	0.74614	0.49614	0.99228	1.973
Mof_La	La	0.50386	0.25386	0.50772	1.988
Mof_H 	H 	0.6193	0.0169	0.1502	0.238
Mof_H 	H 	0.7417	0.9079	0.125	0.221
Mof_H 	H 	0.6395	0.9729	0.0432	0.253
Mof_H 	H 	0.0309	0.1333	0.1502	0.196
Mof_H 	H 	0.8833	0.2171	0.125	0.191
Mof_H 	H 	0.9037	0.0703	0.0432	0.227
Mof_H 	H 	0.9831	0.3807	0.3498	0.244
Mof_H 	H 	0.0921	0.2583	0.375	0.221
Mof_H 	H 	0.0271	0.3605	0.4568	0.255
Mof_H 	H 	0.8667	0.9691	0.3498	0.222
Mof_H 	H 	0.7829	0.1167	0.375	0.209
Mof_H 	H 	0.9297	0.0963	0.4568	0.243
Mof_H 	H 	0.3807	0.9831	0.8498	0.238
Mof_H 	H 	0.2583	0.0921	0.875	0.221
Mof_H 	H 	0.3605	0.0271	0.9568	0.253
Mof_H 	H 	0.9691	0.8667	0.8498	0.196
Mof_H 	H 	0.1167	0.7829	0.875	0.191
Mof_H 	H 	0.0963	0.9297	0.9568	0.227
Mof_H 	H 	0.0169	0.6193	0.6502	0.244
Mof_H 	H 	0.9079	0.7417	0.625	0.221
Mof_H 	H 	0.9729	0.6395	0.5432	0.255
Mof_H 	H 	0.1333	0.0309	0.6502	0.222
Mof_H 	H 	0.2171	0.8833	0.625	0.209
Mof_H 	H 	0.0703	0.9037	0.5432	0.243
Mof_C 	C 	0.51449	0.79269	0.06478	0.579
Mof_C 	C 	0.63954	0.93494	0.09868	-0.837
Mof_C 	C 	0.05029	0.27209	0.06478	0.523
Mof_C 	C 	0.95914	0.16374	0.09868	-0.728
Mof_C 	C 	0.20731	0.48551	0.43522	0.583
Mof_C 	C 	0.06506	0.36046	0.40132	-0.849
Mof_C 	C 	0.72791	0.94971	0.43522	0.561
Mof_C 	C 	0.83626	0.04086	0.40132	-0.796
Mof_C 	C 	0.48551	0.20731	0.93522	0.579
Mof_C 	C 	0.36046	0.06506	0.90132	-0.837
Mof_C 	C 	0.94971	0.72791	0.93522	0.523
Mof_C 	C 	0.04086	0.83626	0.90132	-0.728
Mof_C 	C 	0.79269	0.51449	0.56478	0.583
Mof_C 	C 	0.93494	0.63954	0.59868	-0.849
Mof_C 	C 	0.27209	0.05029	0.56478	0.561
Mof_C 	C 	0.16374	0.95914	0.59868	-0.796
Mof_C 	C 	0.3174	0.6826	0.25	0.254
Mof_C 	C 	0.4326	0.5674	0.25	0.253
Mof_C 	C 	0.6826	0.3174	0.75	0.254
Mof_C 	C 	0.5674	0.4326	0.75	0.253
Mof_O 	O 	0.37675	0.80599	0.06514	-0.503
Mof_O 	O 	0.54729	0.65775	0.03484	-0.64
Mof_O 	O 	0.21962	0.66802	0.16864	-0.423
Mof_O 	O 	0.18839	0.25915	0.06514	-0.49
Mof_O 	O 	0.98755	0.37709	0.03484	-0.616
Mof_O 	O 	0.44902	0.50062	0.16864	-0.421
Mof_O 	O 	0.19401	0.62325	0.43486	-0.504
Mof_O 	O 	0.34225	0.45271	0.46516	-0.645
Mof_O 	O 	0.33198	0.78038	0.33136	-0.422
Mof_O 	O 	0.74085	0.81161	0.43486	-0.499
Mof_O 	O 	0.62291	0.01245	0.46516	-0.638
Mof_O 	O 	0.49938	0.55098	0.33136	-0.422
Mof_O 	O 	0.62325	0.19401	0.93486	-0.503
Mof_O 	O 	0.45271	0.34225	0.96516	-0.64
Mof_O 	O 	0.78038	0.33198	0.83136	-0.423
Mof_O 	O 	0.81161	0.74085	0.93486	-0.49
Mof_O 	O 	0.01245	0.62291	0.96516	-0.616
Mof_O 	O 	0.55098	0.49938	0.83136	-0.421
Mof_O 	O 	0.80599	0.37675	0.56514	-0.504
Mof_O 	O 	0.65775	0.54729	0.53484	-0.645
Mof_O 	O 	0.66802	0.21962	0.66864	-0.422
Mof_O 	O 	0.25915	0.18839	0.56514	-0.499
Mof_O 	O 	0.37709	0.98755	0.53484	-0.638
Mof_O 	O 	0.50062	0.44902	0.66864	-0.422
_end
