data_functionalizedCrystal
_audit_creation_method	'EQeq! by Chris Wilmer'
_symmetry_space_group_name_H-M	'P1'
_symmetry_Int_Tables_number	1
_symmetry_cell_setting	triclinic
loop_
_symmetry_equiv_pos_as_xyz
  x,y,z
_cell_length_a	17.53
_cell_length_b	20.037
_cell_length_c	21.05
_cell_angle_alpha	90
_cell_angle_beta	90
_cell_angle_gamma	90
loop_
_atom_site_label
_atom_site_type_symbol
_atom_site_fract_x
_atom_site_fract_y
_atom_site_fract_z
_atom_site_charge
Mof_Cu	Cu	0.1337	0.58833	0.0491	0.908
Mof_Cu	Cu	0.97701	0.66596	0.06968	0.876
Mof_O 	O 	0.11256	0.43425	0.8913	-0.298
Mof_O 	O 	0.30639	0.82026	0.9772	-0.307
Mof_O 	O 	0.4334	0.6984	0.855	-0.229
Mof_O 	O 	0.07029	0.56458	0.97508	-0.41
Mof_O 	O 	0.9655	0.62929	0.98489	-0.45
Mof_O 	O 	0.3711	0.6918	0.6252	-0.265
Mof_O 	O 	0.3986	0.81603	0.04809	-0.468
Mof_O 	O 	0.058	0.61316	0.75379	-0.234
Mof_O 	O 	0.9875	0.41866	0.89306	-0.439
Mof_N 	N 	0.2851	0.6144	0.59703	-0.281
Mof_O 	O 	0.1773	0.49957	0.44747	-0.432
Mof_O 	O 	0.4013	0.5633	0.46408	-0.39
Mof_O 	O 	0.4324	0.5666	0.07078	-0.432
Mof_O 	O 	0.4122	0.5415	0.56824	-0.376
Mof_O 	O 	0.4464	0.59377	0.96886	-0.42
Mof_C 	C 	0.3102	0.6695	0.8173	-0.051
Mof_C 	C 	0.9783	0.5673	0.8915	-0.411
Mof_O 	O 	0.2411	0.484	0.5373	-0.3
Mof_N 	N 	0.1033	0.557	0.84002	-0.195
Mof_C 	C 	0.2375	0.645	0.8306	-0.018
Mof_C 	C 	0.2131	0.6326	0.7181	-0.012
Mof_C 	C 	0.3594	0.7898	0.0026	0.274
Mof_N 	N 	0.3384	0.6976	0.92591	-0.231
Mof_C 	C 	0.316	0.6549	0.6386	0.252
Mof_C 	C 	0.3659	0.6909	0.8682	0.242
Mof_C 	C 	0.2211	0.5191	0.4921	0.429
Mof_C 	C 	0.0471	0.4544	0.88226	0.297
Mof_C 	C 	0.1893	0.6274	0.7809	-0.042
Mof_C 	C 	0.2874	0.6528	0.7052	-0.064
Mof_C 	C 	0.335	0.6732	0.7546	-0.003
Mof_C 	C 	0.3801	0.5675	0.5215	0.306
Mof_C 	C 	0.1108	0.5995	0.7912	0.216
Mof_C 	C 	0.0318	0.5235	0.853	0.069
Mof_C 	C 	0.3089	0.6123	0.5307	0.086
Mof_C 	C 	0.4235	0.604	0.0236	0.438
Mof_C 	C 	0.3838	0.7192	0.9803	0.059
Mof_C 	C 	0.0079	0.5885	0.9561	0.467
Mof_C 	C 	0.244	0.5925	0.4871	-0.4
Mof_C 	C 	0.3784	0.6694	0.0352	-0.369
Mof_Cu	Cu	0.49424	0.51478	0.43913	0.901
Mof_H 	H 	0.9309	0.5433	0.8975	0.168
Mof_H 	H 	0.9671	0.607	0.867	0.175
Mof_H 	H 	0.2214	0.6404	0.8724	0.058
Mof_H 	H 	0.1785	0.6237	0.6847	0.05
Mof_H 	H 	0.2909	0.6888	0.932	0.166
Mof_H 	H 	0.3834	0.6892	0.7455	0.057
Mof_H 	H 	0.3234	0.6578	0.5188	0.019
Mof_H 	H 	0.2585	0.6018	0.444	0.167
Mof_H 	H 	0.1999	0.6198	0.4974	0.16
Mof_H 	H 	0.3254	0.6582	0.0422	0.147
Mof_H 	H 	0.3978	0.6903	0.0734	0.14
Mof_H 	H 	0.4389	0.723	0.9683	0.035
Mof_H 	H 	0.1463	0.5445	0.8672	0.134
Mof_H 	H 	0.2588	0.5854	0.6096	0.2
Mof_H 	H 	0.0122	0.5129	0.8138	0.031
Mof_Cu	Cu	0.1337	0.41167	0.4509	0.908
Mof_Cu	Cu	0.97701	0.33404	0.43032	0.876
Mof_O 	O 	0.11256	0.56575	0.6087	-0.298
Mof_O 	O 	0.30639	0.17974	0.5228	-0.309
Mof_O 	O 	0.4334	0.3016	0.645	-0.23
Mof_O 	O 	0.07029	0.43542	0.52492	-0.411
Mof_O 	O 	0.9655	0.37071	0.51511	-0.449
Mof_O 	O 	0.3711	0.3082	0.8748	-0.265
Mof_O 	O 	0.3986	0.18397	0.45191	-0.469
Mof_O 	O 	0.058	0.38684	0.74621	-0.234
Mof_O 	O 	0.9875	0.58134	0.60694	-0.439
Mof_N 	N 	0.2851	0.3856	0.90297	-0.281
Mof_O 	O 	0.1773	0.50043	0.05253	-0.432
Mof_O 	O 	0.4013	0.4367	0.03592	-0.389
Mof_O 	O 	0.4324	0.4334	0.42922	-0.432
Mof_O 	O 	0.4122	0.4585	0.93176	-0.375
Mof_O 	O 	0.4464	0.40623	0.53114	-0.42
Mof_C 	C 	0.3102	0.3305	0.6827	-0.051
Mof_C 	C 	0.9783	0.4327	0.6085	-0.409
Mof_O 	O 	0.2411	0.516	0.9627	-0.3
Mof_N 	N 	0.1033	0.443	0.65998	-0.195
Mof_C 	C 	0.2375	0.355	0.6694	-0.019
Mof_C 	C 	0.2131	0.3674	0.7819	-0.012
Mof_C 	C 	0.3594	0.2102	0.4974	0.278
Mof_N 	N 	0.3384	0.3024	0.57409	-0.231
Mof_C 	C 	0.316	0.3451	0.8614	0.252
Mof_C 	C 	0.3659	0.3091	0.6318	0.242
Mof_C 	C 	0.2211	0.4809	0.0079	0.428
Mof_C 	C 	0.0471	0.5456	0.61774	0.297
Mof_C 	C 	0.1893	0.3726	0.7191	-0.042
Mof_C 	C 	0.2874	0.3472	0.7948	-0.064
Mof_C 	C 	0.335	0.3268	0.7454	-0.003
Mof_C 	C 	0.3801	0.4325	0.9785	0.306
Mof_C 	C 	0.1108	0.4005	0.7088	0.215
Mof_C 	C 	0.0318	0.4765	0.647	0.068
Mof_C 	C 	0.3089	0.3877	0.9693	0.086
Mof_C 	C 	0.4235	0.396	0.4764	0.438
Mof_C 	C 	0.3838	0.2808	0.5197	0.055
Mof_C 	C 	0.0079	0.4115	0.5439	0.466
Mof_C 	C 	0.244	0.4075	0.0129	-0.4
Mof_C 	C 	0.3784	0.3306	0.4648	-0.366
Mof_Cu	Cu	0.49424	0.48522	0.06087	0.901
Mof_H 	H 	0.9309	0.4567	0.6025	0.168
Mof_H 	H 	0.9671	0.393	0.633	0.174
Mof_H 	H 	0.2214	0.3596	0.6276	0.058
Mof_H 	H 	0.1785	0.3763	0.8153	0.05
Mof_H 	H 	0.2909	0.3112	0.568	0.166
Mof_H 	H 	0.3834	0.3108	0.7545	0.057
Mof_H 	H 	0.3234	0.3422	0.9812	0.019
Mof_H 	H 	0.2585	0.3982	0.056	0.167
Mof_H 	H 	0.1999	0.3802	0.0026	0.16
Mof_H 	H 	0.3254	0.3418	0.4578	0.147
Mof_H 	H 	0.3978	0.3097	0.4266	0.139
Mof_H 	H 	0.4389	0.277	0.5317	0.035
Mof_H 	H 	0.1463	0.4555	0.6328	0.134
Mof_H 	H 	0.2588	0.4146	0.8904	0.2
Mof_H 	H 	0.0122	0.4871	0.6862	0.031
Mof_Cu	Cu	0.3663	0.08833	0.4509	0.908
Mof_Cu	Cu	0.52299	0.16596	0.43032	0.876
Mof_O 	O 	0.38744	0.93425	0.6087	-0.298
Mof_O 	O 	0.19361	0.32026	0.5228	-0.309
Mof_O 	O 	0.0666	0.1984	0.645	-0.229
Mof_O 	O 	0.42971	0.06458	0.52492	-0.41
Mof_O 	O 	0.5345	0.12929	0.51511	-0.449
Mof_O 	O 	0.1289	0.1918	0.8748	-0.265
Mof_O 	O 	0.1014	0.31603	0.45191	-0.469
Mof_O 	O 	0.442	0.11316	0.74621	-0.234
Mof_O 	O 	0.5125	0.91866	0.60694	-0.439
Mof_N 	N 	0.2149	0.1144	0.90297	-0.281
Mof_O 	O 	0.3227	0.99957	0.05253	-0.435
Mof_O 	O 	0.0987	0.0633	0.03592	-0.387
Mof_O 	O 	0.0676	0.0666	0.42922	-0.432
Mof_O 	O 	0.0878	0.0415	0.93176	-0.376
Mof_O 	O 	0.0536	0.09377	0.53114	-0.42
Mof_C 	C 	0.1898	0.1695	0.6827	-0.051
Mof_C 	C 	0.5217	0.0673	0.6085	-0.409
Mof_O 	O 	0.2589	0.984	0.9627	-0.299
Mof_N 	N 	0.3967	0.057	0.65998	-0.195
Mof_C 	C 	0.2625	0.145	0.6694	-0.019
Mof_C 	C 	0.2869	0.1326	0.7819	-0.012
Mof_C 	C 	0.1406	0.2898	0.4974	0.278
Mof_N 	N 	0.1616	0.1976	0.57409	-0.231
Mof_C 	C 	0.184	0.1549	0.8614	0.251
Mof_C 	C 	0.1341	0.1909	0.6318	0.242
Mof_C 	C 	0.2789	0.0191	0.0079	0.432
Mof_C 	C 	0.4529	0.9544	0.61774	0.298
Mof_C 	C 	0.3107	0.1274	0.7191	-0.042
Mof_C 	C 	0.2126	0.1528	0.7948	-0.064
Mof_C 	C 	0.165	0.1732	0.7454	-0.003
Mof_C 	C 	0.1199	0.0675	0.9785	0.304
Mof_C 	C 	0.3892	0.0995	0.7088	0.215
Mof_C 	C 	0.4682	0.0235	0.647	0.067
Mof_C 	C 	0.1911	0.1123	0.9693	0.085
Mof_C 	C 	0.0765	0.104	0.4764	0.438
Mof_C 	C 	0.1162	0.2192	0.5197	0.055
Mof_C 	C 	0.4921	0.0885	0.5439	0.466
Mof_C 	C 	0.256	0.0925	0.0129	-0.399
Mof_C 	C 	0.1216	0.1694	0.4648	-0.366
Mof_Cu	Cu	0.00576	0.01478	0.06087	0.902
Mof_H 	H 	0.5691	0.0433	0.6025	0.168
Mof_H 	H 	0.5329	0.107	0.633	0.174
Mof_H 	H 	0.2786	0.1404	0.6276	0.058
Mof_H 	H 	0.3215	0.1237	0.8153	0.05
Mof_H 	H 	0.2091	0.1888	0.568	0.166
Mof_H 	H 	0.1166	0.1892	0.7545	0.057
Mof_H 	H 	0.1766	0.1578	0.9812	0.019
Mof_H 	H 	0.2415	0.1018	0.056	0.167
Mof_H 	H 	0.3001	0.1198	0.0026	0.161
Mof_H 	H 	0.1746	0.1582	0.4578	0.147
Mof_H 	H 	0.1022	0.1903	0.4266	0.139
Mof_H 	H 	0.0611	0.223	0.5317	0.036
Mof_H 	H 	0.3537	0.0445	0.6328	0.134
Mof_H 	H 	0.2412	0.0854	0.8904	0.2
Mof_H 	H 	0.4878	0.0129	0.6862	0.03
Mof_Cu	Cu	0.3663	0.91167	0.0491	0.907
Mof_Cu	Cu	0.52299	0.83404	0.06968	0.875
Mof_O 	O 	0.38744	0.06575	0.8913	-0.298
Mof_O 	O 	0.19361	0.67974	0.9772	-0.307
Mof_O 	O 	0.0666	0.8016	0.855	-0.229
Mof_O 	O 	0.42971	0.93542	0.97508	-0.409
Mof_O 	O 	0.5345	0.87071	0.98489	-0.448
Mof_O 	O 	0.1289	0.8082	0.6252	-0.265
Mof_O 	O 	0.1014	0.68397	0.04809	-0.468
Mof_O 	O 	0.442	0.88684	0.75379	-0.234
Mof_O 	O 	0.5125	0.08134	0.89306	-0.439
Mof_N 	N 	0.2149	0.8856	0.59703	-0.281
Mof_O 	O 	0.3227	0.00043	0.44747	-0.431
Mof_O 	O 	0.0987	0.9367	0.46408	-0.39
Mof_O 	O 	0.0676	0.9334	0.07078	-0.432
Mof_O 	O 	0.0878	0.9585	0.56824	-0.375
Mof_O 	O 	0.0536	0.90623	0.96886	-0.417
Mof_C 	C 	0.1898	0.8305	0.8173	-0.05
Mof_C 	C 	0.5217	0.9327	0.8915	-0.41
Mof_O 	O 	0.2589	0.016	0.5373	-0.3
Mof_N 	N 	0.3967	0.943	0.84002	-0.195
Mof_C 	C 	0.2625	0.855	0.8306	-0.018
Mof_C 	C 	0.2869	0.8674	0.7181	-0.012
Mof_C 	C 	0.1406	0.7102	0.0026	0.274
Mof_N 	N 	0.1616	0.8024	0.92591	-0.231
Mof_C 	C 	0.184	0.8451	0.6386	0.252
Mof_C 	C 	0.1341	0.8091	0.8682	0.242
Mof_C 	C 	0.2789	0.9809	0.4921	0.429
Mof_C 	C 	0.4529	0.0456	0.88226	0.295
Mof_C 	C 	0.3107	0.8726	0.7809	-0.042
Mof_C 	C 	0.2126	0.8472	0.7052	-0.064
Mof_C 	C 	0.165	0.8268	0.7546	-0.003
Mof_C 	C 	0.1199	0.9325	0.5215	0.306
Mof_C 	C 	0.3892	0.9005	0.7912	0.216
Mof_C 	C 	0.4682	0.9765	0.853	0.07
Mof_C 	C 	0.1911	0.8877	0.5307	0.086
Mof_C 	C 	0.0765	0.896	0.0236	0.435
Mof_C 	C 	0.1162	0.7808	0.9803	0.059
Mof_C 	C 	0.4921	0.9115	0.9561	0.466
Mof_C 	C 	0.256	0.9075	0.4871	-0.4
Mof_C 	C 	0.1216	0.8306	0.0352	-0.369
Mof_Cu	Cu	0.00576	0.98522	0.43913	0.901
Mof_H 	H 	0.5691	0.9567	0.8975	0.169
Mof_H 	H 	0.5329	0.893	0.867	0.175
Mof_H 	H 	0.2786	0.8596	0.8724	0.058
Mof_H 	H 	0.3215	0.8763	0.6847	0.05
Mof_H 	H 	0.2091	0.8112	0.932	0.166
Mof_H 	H 	0.1166	0.8108	0.7455	0.057
Mof_H 	H 	0.1766	0.8422	0.5188	0.019
Mof_H 	H 	0.2415	0.8982	0.444	0.167
Mof_H 	H 	0.3001	0.8802	0.4974	0.16
Mof_H 	H 	0.1746	0.8418	0.0422	0.147
Mof_H 	H 	0.1022	0.8097	0.0734	0.14
Mof_H 	H 	0.0611	0.777	0.9683	0.035
Mof_H 	H 	0.3537	0.9555	0.8672	0.134
Mof_H 	H 	0.2412	0.9146	0.6096	0.201
Mof_H 	H 	0.4878	0.9871	0.8138	0.03
Mof_Cu	Cu	0.8663	0.41167	0.9509	0.908
Mof_Cu	Cu	0.02299	0.33404	0.93032	0.876
Mof_O 	O 	0.88744	0.56575	0.1087	-0.298
Mof_O 	O 	0.69361	0.17974	0.0228	-0.307
Mof_O 	O 	0.5666	0.3016	0.145	-0.229
Mof_O 	O 	0.92971	0.43542	0.02492	-0.41
Mof_O 	O 	0.0345	0.37071	0.01511	-0.45
Mof_O 	O 	0.6289	0.3082	0.3748	-0.265
Mof_O 	O 	0.6014	0.18397	0.95191	-0.468
Mof_O 	O 	0.942	0.38684	0.24621	-0.234
Mof_O 	O 	0.0125	0.58134	0.10694	-0.439
Mof_N 	N 	0.7149	0.3856	0.40297	-0.281
Mof_O 	O 	0.8227	0.50043	0.55253	-0.432
Mof_O 	O 	0.5987	0.4367	0.53592	-0.39
Mof_O 	O 	0.5676	0.4334	0.92922	-0.432
Mof_O 	O 	0.5878	0.4585	0.43176	-0.376
Mof_O 	O 	0.5536	0.40623	0.03114	-0.42
Mof_C 	C 	0.6898	0.3305	0.1827	-0.051
Mof_C 	C 	0.0217	0.4327	0.1085	-0.411
Mof_O 	O 	0.7589	0.516	0.4627	-0.3
Mof_N 	N 	0.8967	0.443	0.15998	-0.195
Mof_C 	C 	0.7625	0.355	0.1694	-0.018
Mof_C 	C 	0.7869	0.3674	0.2819	-0.012
Mof_C 	C 	0.6406	0.2102	0.9974	0.274
Mof_N 	N 	0.6616	0.3024	0.07409	-0.231
Mof_C 	C 	0.684	0.3451	0.3614	0.252
Mof_C 	C 	0.6341	0.3091	0.1318	0.242
Mof_C 	C 	0.7789	0.4809	0.5079	0.429
Mof_C 	C 	0.9529	0.5456	0.11774	0.297
Mof_C 	C 	0.8107	0.3726	0.2191	-0.042
Mof_C 	C 	0.7126	0.3472	0.2948	-0.064
Mof_C 	C 	0.665	0.3268	0.2454	-0.003
Mof_C 	C 	0.6199	0.4325	0.4785	0.306
Mof_C 	C 	0.8892	0.4005	0.2088	0.216
Mof_C 	C 	0.9682	0.4765	0.147	0.069
Mof_C 	C 	0.6911	0.3877	0.4693	0.086
Mof_C 	C 	0.5765	0.396	0.9764	0.438
Mof_C 	C 	0.6162	0.2808	0.0197	0.059
Mof_C 	C 	0.9921	0.4115	0.0439	0.467
Mof_C 	C 	0.756	0.4075	0.5129	-0.4
Mof_C 	C 	0.6216	0.3306	0.9648	-0.369
Mof_Cu	Cu	0.50576	0.48522	0.56087	0.901
Mof_H 	H 	0.0691	0.4567	0.1025	0.168
Mof_H 	H 	0.0329	0.393	0.133	0.175
Mof_H 	H 	0.7786	0.3596	0.1276	0.058
Mof_H 	H 	0.8215	0.3763	0.3153	0.05
Mof_H 	H 	0.7091	0.3112	0.068	0.166
Mof_H 	H 	0.6166	0.3108	0.2545	0.057
Mof_H 	H 	0.6766	0.3422	0.4812	0.019
Mof_H 	H 	0.7415	0.3982	0.556	0.167
Mof_H 	H 	0.8001	0.3802	0.5026	0.16
Mof_H 	H 	0.6746	0.3418	0.9578	0.147
Mof_H 	H 	0.6022	0.3097	0.9266	0.14
Mof_H 	H 	0.5611	0.277	0.0317	0.035
Mof_H 	H 	0.8537	0.4555	0.1328	0.134
Mof_H 	H 	0.7412	0.4146	0.3904	0.2
Mof_H 	H 	0.9878	0.4871	0.1862	0.031
Mof_Cu	Cu	0.8663	0.58833	0.5491	0.908
Mof_Cu	Cu	0.02299	0.66596	0.56968	0.876
Mof_O 	O 	0.88744	0.43425	0.3913	-0.298
Mof_O 	O 	0.69361	0.82026	0.4772	-0.309
Mof_O 	O 	0.5666	0.6984	0.355	-0.23
Mof_O 	O 	0.92971	0.56458	0.47508	-0.411
Mof_O 	O 	0.0345	0.62929	0.48489	-0.449
Mof_O 	O 	0.6289	0.6918	0.1252	-0.265
Mof_O 	O 	0.6014	0.81603	0.54809	-0.469
Mof_O 	O 	0.942	0.61316	0.25379	-0.234
Mof_O 	O 	0.0125	0.41866	0.39306	-0.439
Mof_N 	N 	0.7149	0.6144	0.09703	-0.281
Mof_O 	O 	0.8227	0.49957	0.94747	-0.432
Mof_O 	O 	0.5987	0.5633	0.96408	-0.389
Mof_O 	O 	0.5676	0.5666	0.57078	-0.432
Mof_O 	O 	0.5878	0.5415	0.06824	-0.375
Mof_O 	O 	0.5536	0.59377	0.46886	-0.42
Mof_C 	C 	0.6898	0.6695	0.3173	-0.051
Mof_C 	C 	0.0217	0.5673	0.3915	-0.409
Mof_O 	O 	0.7589	0.484	0.0373	-0.3
Mof_N 	N 	0.8967	0.557	0.34002	-0.195
Mof_C 	C 	0.7625	0.645	0.3306	-0.019
Mof_C 	C 	0.7869	0.6326	0.2181	-0.012
Mof_C 	C 	0.6406	0.7898	0.5026	0.278
Mof_N 	N 	0.6616	0.6976	0.42591	-0.231
Mof_C 	C 	0.684	0.6549	0.1386	0.252
Mof_C 	C 	0.6341	0.6909	0.3682	0.242
Mof_C 	C 	0.7789	0.5191	0.9921	0.428
Mof_C 	C 	0.9529	0.4544	0.38226	0.297
Mof_C 	C 	0.8107	0.6274	0.2809	-0.042
Mof_C 	C 	0.7126	0.6528	0.2052	-0.064
Mof_C 	C 	0.665	0.6732	0.2546	-0.003
Mof_C 	C 	0.6199	0.5675	0.0215	0.306
Mof_C 	C 	0.8892	0.5995	0.2912	0.215
Mof_C 	C 	0.9682	0.5235	0.353	0.068
Mof_C 	C 	0.6911	0.6123	0.0307	0.086
Mof_C 	C 	0.5765	0.604	0.5236	0.438
Mof_C 	C 	0.6162	0.7192	0.4803	0.055
Mof_C 	C 	0.9921	0.5885	0.4561	0.466
Mof_C 	C 	0.756	0.5925	0.9871	-0.4
Mof_C 	C 	0.6216	0.6694	0.5352	-0.366
Mof_Cu	Cu	0.50576	0.51478	0.93913	0.901
Mof_H 	H 	0.0691	0.5433	0.3975	0.168
Mof_H 	H 	0.0329	0.607	0.367	0.174
Mof_H 	H 	0.7786	0.6404	0.3724	0.058
Mof_H 	H 	0.8215	0.6237	0.1847	0.05
Mof_H 	H 	0.7091	0.6888	0.432	0.166
Mof_H 	H 	0.6166	0.6892	0.2455	0.057
Mof_H 	H 	0.6766	0.6578	0.0188	0.019
Mof_H 	H 	0.7415	0.6018	0.944	0.167
Mof_H 	H 	0.8001	0.6198	0.9974	0.16
Mof_H 	H 	0.6746	0.6582	0.5422	0.147
Mof_H 	H 	0.6022	0.6903	0.5734	0.139
Mof_H 	H 	0.5611	0.723	0.4683	0.035
Mof_H 	H 	0.8537	0.5445	0.3672	0.134
Mof_H 	H 	0.7412	0.5854	0.1096	0.2
Mof_H 	H 	0.9878	0.5129	0.3138	0.031
Mof_Cu	Cu	0.6337	0.91167	0.5491	0.908
Mof_Cu	Cu	0.47701	0.83404	0.56968	0.876
Mof_O 	O 	0.61256	0.06575	0.3913	-0.298
Mof_O 	O 	0.80639	0.67974	0.4772	-0.309
Mof_O 	O 	0.9334	0.8016	0.355	-0.229
Mof_O 	O 	0.57029	0.93542	0.47508	-0.41
Mof_O 	O 	0.4655	0.87071	0.48489	-0.449
Mof_O 	O 	0.8711	0.8082	0.1252	-0.265
Mof_O 	O 	0.8986	0.68397	0.54809	-0.469
Mof_O 	O 	0.558	0.88684	0.25379	-0.234
Mof_O 	O 	0.4875	0.08134	0.39306	-0.439
Mof_N 	N 	0.7851	0.8856	0.09703	-0.281
Mof_O 	O 	0.6773	0.00043	0.94747	-0.435
Mof_O 	O 	0.9013	0.9367	0.96408	-0.387
Mof_O 	O 	0.9324	0.9334	0.57078	-0.432
Mof_O 	O 	0.9122	0.9585	0.06824	-0.376
Mof_O 	O 	0.9464	0.90623	0.46886	-0.42
Mof_C 	C 	0.8102	0.8305	0.3173	-0.051
Mof_C 	C 	0.4783	0.9327	0.3915	-0.409
Mof_O 	O 	0.7411	0.016	0.0373	-0.299
Mof_N 	N 	0.6033	0.943	0.34002	-0.195
Mof_C 	C 	0.7375	0.855	0.3306	-0.019
Mof_C 	C 	0.7131	0.8674	0.2181	-0.012
Mof_C 	C 	0.8594	0.7102	0.5026	0.278
Mof_N 	N 	0.8384	0.8024	0.42591	-0.231
Mof_C 	C 	0.816	0.8451	0.1386	0.251
Mof_C 	C 	0.8659	0.8091	0.3682	0.242
Mof_C 	C 	0.7211	0.9809	0.9921	0.432
Mof_C 	C 	0.5471	0.0456	0.38226	0.298
Mof_C 	C 	0.6893	0.8726	0.2809	-0.042
Mof_C 	C 	0.7874	0.8472	0.2052	-0.064
Mof_C 	C 	0.835	0.8268	0.2546	-0.003
Mof_C 	C 	0.8801	0.9325	0.0215	0.304
Mof_C 	C 	0.6108	0.9005	0.2912	0.215
Mof_C 	C 	0.5318	0.9765	0.353	0.067
Mof_C 	C 	0.8089	0.8877	0.0307	0.085
Mof_C 	C 	0.9235	0.896	0.5236	0.438
Mof_C 	C 	0.8838	0.7808	0.4803	0.055
Mof_C 	C 	0.5079	0.9115	0.4561	0.466
Mof_C 	C 	0.744	0.9075	0.9871	-0.399
Mof_C 	C 	0.8784	0.8306	0.5352	-0.366
Mof_Cu	Cu	0.99424	0.98522	0.93913	0.902
Mof_H 	H 	0.4309	0.9567	0.3975	0.168
Mof_H 	H 	0.4671	0.893	0.367	0.174
Mof_H 	H 	0.7214	0.8596	0.3724	0.058
Mof_H 	H 	0.6785	0.8763	0.1847	0.05
Mof_H 	H 	0.7909	0.8112	0.432	0.166
Mof_H 	H 	0.8834	0.8108	0.2455	0.057
Mof_H 	H 	0.8234	0.8422	0.0188	0.019
Mof_H 	H 	0.7585	0.8982	0.944	0.167
Mof_H 	H 	0.6999	0.8802	0.9974	0.161
Mof_H 	H 	0.8254	0.8418	0.5422	0.147
Mof_H 	H 	0.8978	0.8097	0.5734	0.139
Mof_H 	H 	0.9389	0.777	0.4683	0.036
Mof_H 	H 	0.6463	0.9555	0.3672	0.134
Mof_H 	H 	0.7588	0.9146	0.1096	0.2
Mof_H 	H 	0.5122	0.9871	0.3138	0.03
Mof_Cu	Cu	0.6337	0.08833	0.9509	0.907
Mof_Cu	Cu	0.47701	0.16596	0.93032	0.875
Mof_O 	O 	0.61256	0.93425	0.1087	-0.298
Mof_O 	O 	0.80639	0.32026	0.0228	-0.307
Mof_O 	O 	0.9334	0.1984	0.145	-0.229
Mof_O 	O 	0.57029	0.06458	0.02492	-0.409
Mof_O 	O 	0.4655	0.12929	0.01511	-0.448
Mof_O 	O 	0.8711	0.1918	0.3748	-0.265
Mof_O 	O 	0.8986	0.31603	0.95191	-0.468
Mof_O 	O 	0.558	0.11316	0.24621	-0.234
Mof_O 	O 	0.4875	0.91866	0.10694	-0.439
Mof_N 	N 	0.7851	0.1144	0.40297	-0.281
Mof_O 	O 	0.6773	0.99957	0.55253	-0.431
Mof_O 	O 	0.9013	0.0633	0.53592	-0.39
Mof_O 	O 	0.9324	0.0666	0.92922	-0.432
Mof_O 	O 	0.9122	0.0415	0.43176	-0.375
Mof_O 	O 	0.9464	0.09377	0.03114	-0.417
Mof_C 	C 	0.8102	0.1695	0.1827	-0.05
Mof_C 	C 	0.4783	0.0673	0.1085	-0.41
Mof_O 	O 	0.7411	0.984	0.4627	-0.3
Mof_N 	N 	0.6033	0.057	0.15998	-0.195
Mof_C 	C 	0.7375	0.145	0.1694	-0.018
Mof_C 	C 	0.7131	0.1326	0.2819	-0.012
Mof_C 	C 	0.8594	0.2898	0.9974	0.274
Mof_N 	N 	0.8384	0.1976	0.07409	-0.231
Mof_C 	C 	0.816	0.1549	0.3614	0.252
Mof_C 	C 	0.8659	0.1909	0.1318	0.242
Mof_C 	C 	0.7211	0.0191	0.5079	0.429
Mof_C 	C 	0.5471	0.9544	0.11774	0.295
Mof_C 	C 	0.6893	0.1274	0.2191	-0.042
Mof_C 	C 	0.7874	0.1528	0.2948	-0.064
Mof_C 	C 	0.835	0.1732	0.2454	-0.003
Mof_C 	C 	0.8801	0.0675	0.4785	0.306
Mof_C 	C 	0.6108	0.0995	0.2088	0.216
Mof_C 	C 	0.5318	0.0235	0.147	0.07
Mof_C 	C 	0.8089	0.1123	0.4693	0.086
Mof_C 	C 	0.9235	0.104	0.9764	0.435
Mof_C 	C 	0.8838	0.2192	0.0197	0.059
Mof_C 	C 	0.5079	0.0885	0.0439	0.466
Mof_C 	C 	0.744	0.0925	0.5129	-0.4
Mof_C 	C 	0.8784	0.1694	0.9648	-0.369
Mof_Cu	Cu	0.99424	0.01478	0.56087	0.901
Mof_H 	H 	0.4309	0.0433	0.1025	0.169
Mof_H 	H 	0.4671	0.107	0.133	0.175
Mof_H 	H 	0.7214	0.1404	0.1276	0.058
Mof_H 	H 	0.6785	0.1237	0.3153	0.05
Mof_H 	H 	0.7909	0.1888	0.068	0.166
Mof_H 	H 	0.8834	0.1892	0.2545	0.057
Mof_H 	H 	0.8234	0.1578	0.4812	0.019
Mof_H 	H 	0.7585	0.1018	0.556	0.167
Mof_H 	H 	0.6999	0.1198	0.5026	0.16
Mof_H 	H 	0.8254	0.1582	0.9578	0.147
Mof_H 	H 	0.8978	0.1903	0.9266	0.14
Mof_H 	H 	0.9389	0.223	0.0317	0.035
Mof_H 	H 	0.6463	0.0445	0.1328	0.134
Mof_H 	H 	0.7588	0.0854	0.3904	0.201
Mof_H 	H 	0.5122	0.0129	0.1862	0.03
_end
