data_functionalizedCrystal
_audit_creation_method	'EQeq! by Chris Wilmer'
_symmetry_space_group_name_H-M	'P1'
_symmetry_Int_Tables_number	1
_symmetry_cell_setting	triclinic
loop_
_symmetry_equiv_pos_as_xyz
  x,y,z
_cell_length_a	10.911
_cell_length_b	6.413
_cell_length_c	17.045
_cell_angle_alpha	90
_cell_angle_beta	105.867
_cell_angle_gamma	90
loop_
_atom_site_label
_atom_site_type_symbol
_atom_site_fract_x
_atom_site_fract_y
_atom_site_fract_z
_atom_site_charge
Mof_Co	Co	0.53436	0.99644	0.41579	1.121
Mof_O 	O 	0.3599	0.1264	0.3452	-0.474
Mof_O 	O 	0.3842	0.4627	0.3815	-0.459
Mof_O 	O 	0.3433	0.0326	0.0486	-0.496
Mof_O 	O 	0.2759	0.3616	0.0346	-0.473
Mof_O 	O 	0.4431	0.8098	0.4826	-0.677
Mof_H 	H 	0.3523	0.8097	0.4535	0.177
Mof_C 	C 	0.3304	0.3151	0.336	0.374
Mof_C 	C 	0.2214	0.3832	0.2642	-0.129
Mof_C 	C 	0.1785	0.2445	0.1986	0.009
Mof_H 	H 	0.2171	0.1147	0.2	0.022
Mof_C 	C 	0.078	0.3002	0.1312	-0.064
Mof_C 	C 	0.0187	0.4944	0.1308	-0.006
Mof_H 	H 	0.9491	0.5304	0.0877	0.032
Mof_C 	C 	0.0645	0.6341	0.1954	-0.093
Mof_H 	H 	0.0265	0.7639	0.195	0.073
Mof_C 	C 	0.1673	0.5769	0.2601	0.028
Mof_H 	H 	0.2001	0.6724	0.3016	0.024
Mof_C 	C 	0.0384	0.1522	0.0618	0.15
Mof_C 	C 	0.9151	0.0693	0.0398	-0.245
Mof_H 	H 	0.8562	0.1181	0.0658	0.098
Mof_C 	C 	0.1223	0.0849	0.0202	-0.257
Mof_C 	C 	0.259	0.1704	0.0365	0.411
Mof_Co	Co	0.46564	0.49644	0.08421	1.105
Mof_O 	O 	0.6401	0.6264	0.1548	-0.466
Mof_O 	O 	0.6158	0.9627	0.1185	-0.449
Mof_O 	O 	0.6567	0.5326	0.4514	-0.462
Mof_O 	O 	0.7241	0.8616	0.4654	-0.437
Mof_O 	O 	0.5569	0.3098	0.0174	-0.71
Mof_H 	H 	0.6477	0.3097	0.0465	0.162
Mof_C 	C 	0.6696	0.8151	0.164	0.36
Mof_C 	C 	0.7786	0.8832	0.2358	-0.096
Mof_C 	C 	0.8215	0.7445	0.3014	-0.014
Mof_H 	H 	0.7829	0.6147	0.3	0.034
Mof_C 	C 	0.922	0.8002	0.3688	-0.036
Mof_C 	C 	0.9813	0.9944	0.3692	0.049
Mof_H 	H 	0.0509	0.0304	0.4123	0.013
Mof_C 	C 	0.9355	0.1341	0.3046	-0.126
Mof_H 	H 	0.9735	0.2639	0.305	0.079
Mof_C 	C 	0.8327	0.0769	0.2399	0.002
Mof_H 	H 	0.7999	0.1724	0.1984	0.022
Mof_C 	C 	0.9616	0.6522	0.4382	0.057
Mof_C 	C 	0.0849	0.5693	0.4602	-0.057
Mof_H 	H 	0.1438	0.6181	0.4342	0.053
Mof_C 	C 	0.8777	0.5849	0.4798	-0.104
Mof_C 	C 	0.741	0.6704	0.4635	0.369
Mof_Co	Co	0.46564	0.00356	0.58421	1.104
Mof_O 	O 	0.6401	0.8736	0.6548	-0.448
Mof_O 	O 	0.6158	0.5373	0.6185	-0.453
Mof_O 	O 	0.6567	0.9674	0.9514	-0.413
Mof_O 	O 	0.7241	0.6384	0.9654	-0.408
Mof_O 	O 	0.5569	0.1902	0.5174	-0.689
Mof_H 	H 	0.6477	0.1903	0.5465	0.168
Mof_C 	C 	0.6696	0.6849	0.664	0.351
Mof_C 	C 	0.7786	0.6168	0.7358	-0.071
Mof_C 	C 	0.8215	0.7555	0.8014	-0.079
Mof_H 	H 	0.7829	0.8853	0.8	0.063
Mof_C 	C 	0.922	0.6998	0.8688	0.073
Mof_C 	C 	0.9813	0.5056	0.8692	-0.106
Mof_H 	H 	0.0509	0.4696	0.9123	0.093
Mof_C 	C 	0.9355	0.3659	0.8046	-0.011
Mof_H 	H 	0.9735	0.2361	0.805	0.037
Mof_C 	C 	0.8327	0.4231	0.7399	-0.039
Mof_H 	H 	0.7999	0.3276	0.6984	0.041
Mof_C 	C 	0.9616	0.8478	0.9382	-0.085
Mof_C 	C 	0.0849	0.9307	0.9602	0.16
Mof_H 	H 	0.1438	0.8819	0.9342	-0.006
Mof_C 	C 	0.8777	0.9151	0.9798	0.083
Mof_C 	C 	0.741	0.8296	0.9635	0.315
Mof_Co	Co	0.53436	0.50356	0.91579	1.122
Mof_O 	O 	0.3599	0.3736	0.8452	-0.454
Mof_O 	O 	0.3842	0.0373	0.8815	-0.452
Mof_O 	O 	0.3433	0.4674	0.5486	-0.458
Mof_O 	O 	0.2759	0.1384	0.5346	-0.445
Mof_O 	O 	0.4431	0.6902	0.9826	-0.647
Mof_H 	H 	0.3523	0.6903	0.9535	0.183
Mof_C 	C 	0.3304	0.1849	0.836	0.362
Mof_C 	C 	0.2214	0.1168	0.7642	-0.102
Mof_C 	C 	0.1785	0.2555	0.6986	-0.058
Mof_H 	H 	0.2171	0.3853	0.7	0.051
Mof_C 	C 	0.078	0.1998	0.6312	0.047
Mof_C 	C 	0.0187	0.0056	0.6308	-0.16
Mof_H 	H 	0.9491	0.9696	0.5877	0.114
Mof_C 	C 	0.0645	0.8659	0.6954	0.02
Mof_H 	H 	0.0265	0.7361	0.695	0.031
Mof_C 	C 	0.1673	0.9231	0.7601	-0.014
Mof_H 	H 	0.2001	0.8276	0.8016	0.043
Mof_C 	C 	0.0384	0.3478	0.5618	0.005
Mof_C 	C 	0.9151	0.4307	0.5398	-0.021
Mof_H 	H 	0.8562	0.3819	0.5658	0.036
Mof_C 	C 	0.1223	0.4151	0.5202	-0.074
Mof_C 	C 	0.259	0.3296	0.5365	0.36
Mof_Co	Co	0.5	0.5	0.5	1.185
Mof_Co	Co	0.5	0	-0	1.152
_end
