data_functionalizedCrystal
_audit_creation_method	'EQeq! by Chris Wilmer'
_symmetry_space_group_name_H-M	'P1'
_symmetry_Int_Tables_number	1
_symmetry_cell_setting	triclinic
loop_
_symmetry_equiv_pos_as_xyz
  x,y,z
_cell_length_a	7.5174
_cell_length_b	14.3676
_cell_length_c	16.35
_cell_angle_alpha	76.831
_cell_angle_beta	84.282
_cell_angle_gamma	89.965
loop_
_atom_site_label
_atom_site_type_symbol
_atom_site_fract_x
_atom_site_fract_y
_atom_site_fract_z
_atom_site_charge
Mof_Pt	Pt	0.49365	0.2389	0.03256	0.099
Mof_N 	N 	0.02	0.1004	0.8762	-0.158
Mof_N 	N 	0.191	0.0865	0.0353	-0.186
Mof_N 	N 	0.799	0.3907	0.0201	-0.171
Mof_N 	N 	0.204	0.3979	0.007	-0.185
Mof_N 	N 	0.993	0.476	0.1374	-0.157
Mof_N 	N 	0.788	0.0823	0.0387	-0.172
Mof_C 	C 	0.043	0.0657	0.8092	0.087
Mof_H 	H 	0.0538	0.0002	0.8145	-0.011
Mof_C 	C 	0.053	0.1283	0.7279	-0.15
Mof_H 	H 	0.0744	0.1034	0.6802	0.078
Mof_C 	C 	0.03	0.2285	0.7183	0.093
Mof_C 	C 	0.013	0.2617	0.7916	-0.126
Mof_H 	H 	0.0057	0.3269	0.789	0.079
Mof_C 	C 	0.006	0.1976	0.8682	0.024
Mof_H 	H 	0.9912	0.2209	0.917	0.072
Mof_C 	C 	0.031	0.293	0.6351	-0.064
Mof_C 	C 	0.016	0.334	0.5634	0.02
Mof_C 	C 	0.301	0.1422	0.0375	0.005
Mof_C 	C 	0.688	0.3364	0.0259	0.021
Mof_C 	C 	0.31	0.3406	0.0181	0.012
Mof_C 	C 	0.68	0.1383	0.0412	0.015
Mof_C 	C 	0.148	0.487	0.1719	0.043
Mof_H 	H 	0.2525	0.5065	0.1365	-0.001
Mof_C 	C 	0.153	0.468	0.2617	-0.181
Mof_H 	H 	0.258	0.4754	0.2854	0.086
Mof_C 	C 	0.99	0.436	0.3132	0.118
Mof_C 	C 	0.837	0.432	0.2773	-0.161
Mof_H 	H 	0.7293	0.4169	0.3113	0.086
Mof_C 	C 	0.838	0.451	0.1875	0.084
Mof_H 	H 	0.7325	0.4471	0.1635	-0.005
Mof_C 	C 	0.995	0.407	0.4045	0.003
Mof_C 	C 	0.006	0.3814	0.4777	-0.058
Mof_Pt	Pt	0.50635	0.7611	0.96744	0.153
Mof_N 	N 	0.98	0.8996	0.1238	-0.187
Mof_N 	N 	0.809	0.9135	0.9647	-0.124
Mof_N 	N 	0.201	0.6093	0.9799	-0.151
Mof_N 	N 	0.796	0.6021	0.993	-0.138
Mof_N 	N 	0.007	0.524	0.8626	-0.178
Mof_N 	N 	0.212	0.9177	0.9613	-0.136
Mof_C 	C 	0.957	0.9343	0.1908	0.111
Mof_H 	H 	0.9462	0.9998	0.1855	0.009
Mof_C 	C 	0.947	0.8717	0.2721	-0.173
Mof_H 	H 	0.9256	0.8966	0.3198	0.102
Mof_C 	C 	0.97	0.7715	0.2817	0.132
Mof_C 	C 	0.987	0.7383	0.2084	-0.221
Mof_H 	H 	0.9943	0.6731	0.211	0.117
Mof_C 	C 	0.994	0.8024	0.1318	0.174
Mof_H 	H 	0.0088	0.7791	0.083	-0.074
Mof_C 	C 	0.969	0.707	0.3649	-0.047
Mof_C 	C 	0.984	0.666	0.4366	-0.004
Mof_C 	C 	0.699	0.8578	0.9625	0.052
Mof_C 	C 	0.312	0.6636	0.9741	0.044
Mof_C 	C 	0.69	0.6594	0.9819	0.048
Mof_C 	C 	0.32	0.8617	0.9588	0.047
Mof_C 	C 	0.852	0.513	0.8281	0.098
Mof_H 	H 	0.7475	0.4935	0.8635	0.013
Mof_C 	C 	0.847	0.532	0.7383	-0.123
Mof_H 	H 	0.742	0.5246	0.7146	0.085
Mof_C 	C 	0.01	0.564	0.6868	0.097
Mof_C 	C 	0.163	0.568	0.7227	-0.161
Mof_H 	H 	0.2707	0.5831	0.6887	0.091
Mof_C 	C 	0.162	0.549	0.8125	0.082
Mof_H 	H 	0.2675	0.5529	0.8365	0.01
Mof_C 	C 	0.005	0.593	0.5955	-0.11
Mof_C 	C 	0.994	0.6186	0.5223	0.072
Mof_Fe	Fe	-0	0.5	-0	0.542
Mof_Fe	Fe	-0	0	-0	0.509
_end
