data_functionalizedCrystal
_audit_creation_method	'EQeq! by Chris Wilmer'
_symmetry_space_group_name_H-M	'P1'
_symmetry_Int_Tables_number	1
_symmetry_cell_setting	triclinic
loop_
_symmetry_equiv_pos_as_xyz
  x,y,z
_cell_length_a	33.69
_cell_length_b	12.97
_cell_length_c	14.771
_cell_angle_alpha	90
_cell_angle_beta	101.572
_cell_angle_gamma	90
loop_
_atom_site_label
_atom_site_type_symbol
_atom_site_fract_x
_atom_site_fract_y
_atom_site_fract_z
_atom_site_charge
Mof_C 	C 	0.25256	0.4379	0.0692	0.399
Mof_C 	C 	0.28008	0.5092	0.1342	-0.151
Mof_C 	C 	0.2642	0.5647	0.2	0.075
Mof_H 	H 	0.2371	0.5571	0.2037	0.011
Mof_C 	C 	0.28893	0.6307	0.2593	-0.151
Mof_C 	C 	0.32923	0.6451	0.2517	0.022
Mof_H 	H 	0.3455	0.6908	0.2913	0.032
Mof_C 	C 	0.34546	0.5916	0.1852	-0.054
Mof_C 	C 	0.32031	0.5212	0.1283	0.018
Mof_H 	H 	0.3309	0.4821	0.0859	0.015
Mof_C 	C 	0.27247	0.6887	0.3337	0.444
Mof_C 	C 	0.38763	0.6113	0.1717	0.053
Mof_C 	C 	0.40464	0.7096	0.1857	-0.09
Mof_H 	H 	0.3904	0.7611	0.2094	0.058
Mof_C 	C 	0.4425	0.7328	0.1652	-0.019
Mof_H 	H 	0.4528	0.7994	0.1744	0.03
Mof_C 	C 	0.46479	0.6571	0.1311	-0.03
Mof_C 	C 	0.44849	0.5588	0.1214	-0.017
Mof_H 	H 	0.4634	0.5059	0.1018	0.034
Mof_C 	C 	0.4106	0.5367	0.14	-0.095
Mof_H 	H 	0.4005	0.47	0.1308	0.063
Mof_C 	C 	0.50388	0.6819	0.1026	0.077
Mof_C 	C 	0.5126	0.7824	0.0801	-0.134
Mof_H 	H 	0.4943	0.835	0.0844	0.07
Mof_C 	C 	0.54834	0.8047	0.0512	0.045
Mof_H 	H 	0.554	0.8728	0.0387	0.017
Mof_C 	C 	0.57573	0.7289	0.0403	-0.118
Mof_C 	C 	0.56777	0.6316	0.065	0.047
Mof_H 	H 	0.5862	0.5793	0.0606	0.023
Mof_C 	C 	0.5324	0.6081	0.097	-0.133
Mof_H 	H 	0.5282	0.5409	0.1149	0.074
Mof_C 	C 	0.61325	0.7534	0.0039	0.32
Mof_La	La	0.30913	0.19977	0.05111	1.923
Mof_O 	O 	0.26786	0.3605	0.0364	-0.568
Mof_O 	O 	0.21521	0.458	0.0493	-0.448
Mof_O 	O 	0.23578	0.6713	0.3365	-0.52
Mof_O 	O 	0.29602	0.75	0.3843	-0.469
Mof_O 	O 	0.62353	0.8465	0.9971	-0.43
Mof_O 	O 	0.63314	0.6795	0.9787	-0.419
Mof_C 	C 	0.75256	0.9379	0.0692	0.398
Mof_C 	C 	0.78008	0.0092	0.1342	-0.153
Mof_C 	C 	0.7642	0.0647	0.2	0.074
Mof_H 	H 	0.7371	0.0571	0.2037	0.009
Mof_C 	C 	0.78893	0.1307	0.2593	-0.151
Mof_C 	C 	0.82923	0.1451	0.2517	0.022
Mof_H 	H 	0.8455	0.1908	0.2913	0.032
Mof_C 	C 	0.84546	0.0916	0.1852	-0.054
Mof_C 	C 	0.82031	0.0212	0.1283	0.016
Mof_H 	H 	0.8309	0.9821	0.0859	0.015
Mof_C 	C 	0.77247	0.1887	0.3337	0.444
Mof_C 	C 	0.88763	0.1113	0.1717	0.054
Mof_C 	C 	0.90464	0.2096	0.1857	-0.09
Mof_H 	H 	0.8904	0.2611	0.2094	0.058
Mof_C 	C 	0.9425	0.2328	0.1652	-0.018
Mof_H 	H 	0.9528	0.2994	0.1744	0.03
Mof_C 	C 	0.96479	0.1571	0.1311	-0.03
Mof_C 	C 	0.94849	0.0588	0.1214	-0.016
Mof_H 	H 	0.9634	0.0059	0.1018	0.033
Mof_C 	C 	0.9106	0.0367	0.14	-0.097
Mof_H 	H 	0.9005	0.97	0.1308	0.064
Mof_C 	C 	0.00388	0.1819	0.1026	0.076
Mof_C 	C 	0.0126	0.2824	0.0801	-0.134
Mof_H 	H 	0.9943	0.335	0.0844	0.07
Mof_C 	C 	0.04834	0.3047	0.0512	0.044
Mof_H 	H 	0.054	0.3728	0.0387	0.017
Mof_C 	C 	0.07573	0.2289	0.0403	-0.117
Mof_C 	C 	0.06777	0.1316	0.065	0.047
Mof_H 	H 	0.0862	0.0793	0.0606	0.023
Mof_C 	C 	0.0324	0.1081	0.097	-0.132
Mof_H 	H 	0.0282	0.0409	0.1149	0.074
Mof_C 	C 	0.11325	0.2534	0.0039	0.318
Mof_La	La	0.80913	0.69977	0.05111	1.925
Mof_O 	O 	0.76786	0.8605	0.0364	-0.567
Mof_O 	O 	0.71521	0.958	0.0493	-0.448
Mof_O 	O 	0.73578	0.1713	0.3365	-0.52
Mof_O 	O 	0.79602	0.25	0.3843	-0.469
Mof_O 	O 	0.12353	0.3465	0.9971	-0.428
Mof_O 	O 	0.13314	0.1795	0.9787	-0.418
Mof_C 	C 	0.74744	0.4379	0.4308	0.398
Mof_C 	C 	0.71992	0.5092	0.3658	-0.152
Mof_C 	C 	0.7358	0.5647	0.3	0.074
Mof_H 	H 	0.7629	0.5571	0.2963	0.01
Mof_C 	C 	0.71107	0.6307	0.2407	-0.151
Mof_C 	C 	0.67077	0.6451	0.2483	0.022
Mof_H 	H 	0.6545	0.6908	0.2087	0.032
Mof_C 	C 	0.65454	0.5916	0.3148	-0.054
Mof_C 	C 	0.67969	0.5212	0.3717	0.018
Mof_H 	H 	0.6691	0.4821	0.4141	0.015
Mof_C 	C 	0.72753	0.6887	0.1663	0.443
Mof_C 	C 	0.61237	0.6113	0.3283	0.053
Mof_C 	C 	0.59536	0.7096	0.3143	-0.09
Mof_H 	H 	0.6096	0.7611	0.2906	0.058
Mof_C 	C 	0.5575	0.7328	0.3348	-0.019
Mof_H 	H 	0.5472	0.7994	0.3256	0.03
Mof_C 	C 	0.53521	0.6571	0.3689	-0.03
Mof_C 	C 	0.55151	0.5588	0.3786	-0.017
Mof_H 	H 	0.5366	0.5059	0.3982	0.034
Mof_C 	C 	0.5894	0.5367	0.36	-0.095
Mof_H 	H 	0.5995	0.47	0.3692	0.063
Mof_C 	C 	0.49612	0.6819	0.3974	0.076
Mof_C 	C 	0.4874	0.7824	0.4199	-0.134
Mof_H 	H 	0.5057	0.835	0.4156	0.07
Mof_C 	C 	0.45166	0.8047	0.4488	0.044
Mof_H 	H 	0.446	0.8728	0.4613	0.017
Mof_C 	C 	0.42427	0.7289	0.4597	-0.117
Mof_C 	C 	0.43223	0.6316	0.435	0.047
Mof_H 	H 	0.4138	0.5793	0.4394	0.023
Mof_C 	C 	0.4676	0.6081	0.403	-0.132
Mof_H 	H 	0.4718	0.5409	0.3851	0.074
Mof_C 	C 	0.38675	0.7534	0.4961	0.319
Mof_La	La	0.69087	0.19977	0.44889	1.924
Mof_O 	O 	0.73214	0.3605	0.4636	-0.568
Mof_O 	O 	0.78479	0.458	0.4507	-0.448
Mof_O 	O 	0.76422	0.6713	0.1635	-0.52
Mof_O 	O 	0.70398	0.75	0.1157	-0.468
Mof_O 	O 	0.37647	0.8465	0.5029	-0.429
Mof_O 	O 	0.36686	0.6795	0.5213	-0.419
Mof_C 	C 	0.24744	0.9379	0.4308	0.398
Mof_C 	C 	0.21992	0.0092	0.3658	-0.153
Mof_C 	C 	0.2358	0.0647	0.3	0.074
Mof_H 	H 	0.2629	0.0571	0.2963	0.009
Mof_C 	C 	0.21107	0.1307	0.2407	-0.151
Mof_C 	C 	0.17077	0.1451	0.2483	0.022
Mof_H 	H 	0.1545	0.1908	0.2087	0.032
Mof_C 	C 	0.15454	0.0916	0.3148	-0.054
Mof_C 	C 	0.17969	0.0212	0.3717	0.017
Mof_H 	H 	0.1691	0.9821	0.4141	0.015
Mof_C 	C 	0.22753	0.1887	0.1663	0.443
Mof_C 	C 	0.11237	0.1113	0.3283	0.053
Mof_C 	C 	0.09536	0.2096	0.3143	-0.09
Mof_H 	H 	0.1096	0.2611	0.2906	0.058
Mof_C 	C 	0.0575	0.2328	0.3348	-0.018
Mof_H 	H 	0.0472	0.2994	0.3256	0.03
Mof_C 	C 	0.03521	0.1571	0.3689	-0.03
Mof_C 	C 	0.05151	0.0588	0.3786	-0.017
Mof_H 	H 	0.0366	0.0059	0.3982	0.033
Mof_C 	C 	0.0894	0.0367	0.36	-0.096
Mof_H 	H 	0.0995	0.97	0.3692	0.063
Mof_C 	C 	0.99612	0.1819	0.3974	0.076
Mof_C 	C 	0.9874	0.2824	0.4199	-0.134
Mof_H 	H 	0.0057	0.335	0.4156	0.07
Mof_C 	C 	0.95166	0.3047	0.4488	0.044
Mof_H 	H 	0.946	0.3728	0.4613	0.017
Mof_C 	C 	0.92427	0.2289	0.4597	-0.117
Mof_C 	C 	0.93223	0.1316	0.435	0.047
Mof_H 	H 	0.9138	0.0793	0.4394	0.023
Mof_C 	C 	0.9676	0.1081	0.403	-0.132
Mof_H 	H 	0.9718	0.0409	0.3851	0.074
Mof_C 	C 	0.88675	0.2534	0.4961	0.319
Mof_La	La	0.19087	0.69977	0.44889	1.924
Mof_O 	O 	0.23214	0.8605	0.4636	-0.568
Mof_O 	O 	0.28479	0.958	0.4507	-0.448
Mof_O 	O 	0.26422	0.1713	0.1635	-0.52
Mof_O 	O 	0.20398	0.25	0.1157	-0.469
Mof_O 	O 	0.87647	0.3465	0.5029	-0.429
Mof_O 	O 	0.86686	0.1795	0.5213	-0.419
Mof_C 	C 	0.74744	0.5621	0.9308	0.398
Mof_C 	C 	0.71992	0.4908	0.8658	-0.152
Mof_C 	C 	0.7358	0.4353	0.8	0.074
Mof_H 	H 	0.7629	0.4429	0.7963	0.01
Mof_C 	C 	0.71107	0.3693	0.7407	-0.151
Mof_C 	C 	0.67077	0.3549	0.7483	0.022
Mof_H 	H 	0.6545	0.3092	0.7087	0.032
Mof_C 	C 	0.65454	0.4084	0.8148	-0.054
Mof_C 	C 	0.67969	0.4788	0.8717	0.018
Mof_H 	H 	0.6691	0.5179	0.9141	0.015
Mof_C 	C 	0.72753	0.3113	0.6663	0.444
Mof_C 	C 	0.61237	0.3887	0.8283	0.053
Mof_C 	C 	0.59536	0.2904	0.8143	-0.09
Mof_H 	H 	0.6096	0.2389	0.7906	0.058
Mof_C 	C 	0.5575	0.2672	0.8348	-0.019
Mof_H 	H 	0.5472	0.2006	0.8256	0.03
Mof_C 	C 	0.53521	0.3429	0.8689	-0.03
Mof_C 	C 	0.55151	0.4412	0.8786	-0.017
Mof_H 	H 	0.5366	0.4941	0.8982	0.034
Mof_C 	C 	0.5894	0.4633	0.86	-0.095
Mof_H 	H 	0.5995	0.53	0.8692	0.063
Mof_C 	C 	0.49612	0.3181	0.8974	0.077
Mof_C 	C 	0.4874	0.2176	0.9199	-0.134
Mof_H 	H 	0.5057	0.165	0.9156	0.07
Mof_C 	C 	0.45166	0.1953	0.9488	0.045
Mof_H 	H 	0.446	0.1272	0.9613	0.017
Mof_C 	C 	0.42427	0.2711	0.9597	-0.118
Mof_C 	C 	0.43223	0.3684	0.935	0.047
Mof_H 	H 	0.4138	0.4207	0.9394	0.023
Mof_C 	C 	0.4676	0.3919	0.903	-0.133
Mof_H 	H 	0.4718	0.4591	0.8851	0.074
Mof_C 	C 	0.38675	0.2466	0.9961	0.32
Mof_La	La	0.69087	0.80023	0.94889	1.923
Mof_O 	O 	0.73214	0.6395	0.9636	-0.568
Mof_O 	O 	0.78479	0.542	0.9507	-0.448
Mof_O 	O 	0.76422	0.3287	0.6635	-0.52
Mof_O 	O 	0.70398	0.25	0.6157	-0.469
Mof_O 	O 	0.37647	0.1535	0.0029	-0.43
Mof_O 	O 	0.36686	0.3205	0.0213	-0.419
Mof_C 	C 	0.24744	0.0621	0.9308	0.398
Mof_C 	C 	0.21992	0.9908	0.8658	-0.153
Mof_C 	C 	0.2358	0.9353	0.8	0.074
Mof_H 	H 	0.2629	0.9429	0.7963	0.009
Mof_C 	C 	0.21107	0.8693	0.7407	-0.151
Mof_C 	C 	0.17077	0.8549	0.7483	0.022
Mof_H 	H 	0.1545	0.8092	0.7087	0.032
Mof_C 	C 	0.15454	0.9084	0.8148	-0.054
Mof_C 	C 	0.17969	0.9788	0.8717	0.016
Mof_H 	H 	0.1691	0.0179	0.9141	0.015
Mof_C 	C 	0.22753	0.8113	0.6663	0.444
Mof_C 	C 	0.11237	0.8887	0.8283	0.054
Mof_C 	C 	0.09536	0.7904	0.8143	-0.09
Mof_H 	H 	0.1096	0.7389	0.7906	0.058
Mof_C 	C 	0.0575	0.7672	0.8348	-0.018
Mof_H 	H 	0.0472	0.7006	0.8256	0.03
Mof_C 	C 	0.03521	0.8429	0.8689	-0.03
Mof_C 	C 	0.05151	0.9412	0.8786	-0.016
Mof_H 	H 	0.0366	0.9941	0.8982	0.033
Mof_C 	C 	0.0894	0.9633	0.86	-0.097
Mof_H 	H 	0.0995	0.03	0.8692	0.064
Mof_C 	C 	0.99612	0.8181	0.8974	0.076
Mof_C 	C 	0.9874	0.7176	0.9199	-0.134
Mof_H 	H 	0.0057	0.665	0.9156	0.07
Mof_C 	C 	0.95166	0.6953	0.9488	0.044
Mof_H 	H 	0.946	0.6272	0.9613	0.017
Mof_C 	C 	0.92427	0.7711	0.9597	-0.117
Mof_C 	C 	0.93223	0.8684	0.935	0.047
Mof_H 	H 	0.9138	0.9207	0.9394	0.023
Mof_C 	C 	0.9676	0.8919	0.903	-0.132
Mof_H 	H 	0.9718	0.9591	0.8851	0.074
Mof_C 	C 	0.88675	0.7466	0.9961	0.318
Mof_La	La	0.19087	0.30023	0.94889	1.925
Mof_O 	O 	0.23214	0.1395	0.9636	-0.567
Mof_O 	O 	0.28479	0.042	0.9507	-0.448
Mof_O 	O 	0.26422	0.8287	0.6635	-0.52
Mof_O 	O 	0.20398	0.75	0.6157	-0.469
Mof_O 	O 	0.87647	0.6535	0.0029	-0.428
Mof_O 	O 	0.86686	0.8205	0.0213	-0.418
Mof_C 	C 	0.25256	0.5621	0.5692	0.398
Mof_C 	C 	0.28008	0.4908	0.6342	-0.152
Mof_C 	C 	0.2642	0.4353	0.7	0.074
Mof_H 	H 	0.2371	0.4429	0.7037	0.01
Mof_C 	C 	0.28893	0.3693	0.7593	-0.151
Mof_C 	C 	0.32923	0.3549	0.7517	0.022
Mof_H 	H 	0.3455	0.3092	0.7913	0.032
Mof_C 	C 	0.34546	0.4084	0.6852	-0.054
Mof_C 	C 	0.32031	0.4788	0.6283	0.018
Mof_H 	H 	0.3309	0.5179	0.5859	0.015
Mof_C 	C 	0.27247	0.3113	0.8337	0.443
Mof_C 	C 	0.38763	0.3887	0.6717	0.053
Mof_C 	C 	0.40464	0.2904	0.6857	-0.09
Mof_H 	H 	0.3904	0.2389	0.7094	0.058
Mof_C 	C 	0.4425	0.2672	0.6652	-0.019
Mof_H 	H 	0.4528	0.2006	0.6744	0.03
Mof_C 	C 	0.46479	0.3429	0.6311	-0.03
Mof_C 	C 	0.44849	0.4412	0.6214	-0.017
Mof_H 	H 	0.4634	0.4941	0.6018	0.034
Mof_C 	C 	0.4106	0.4633	0.64	-0.095
Mof_H 	H 	0.4005	0.53	0.6308	0.063
Mof_C 	C 	0.50388	0.3181	0.6026	0.076
Mof_C 	C 	0.5126	0.2176	0.5801	-0.134
Mof_H 	H 	0.4943	0.165	0.5844	0.07
Mof_C 	C 	0.54834	0.1953	0.5512	0.044
Mof_H 	H 	0.554	0.1272	0.5387	0.017
Mof_C 	C 	0.57573	0.2711	0.5403	-0.117
Mof_C 	C 	0.56777	0.3684	0.565	0.047
Mof_H 	H 	0.5862	0.4207	0.5606	0.023
Mof_C 	C 	0.5324	0.3919	0.597	-0.132
Mof_H 	H 	0.5282	0.4591	0.6149	0.074
Mof_C 	C 	0.61325	0.2466	0.5039	0.319
Mof_La	La	0.30913	0.80023	0.55111	1.924
Mof_O 	O 	0.26786	0.6395	0.5364	-0.568
Mof_O 	O 	0.21521	0.542	0.5493	-0.448
Mof_O 	O 	0.23578	0.3287	0.8365	-0.52
Mof_O 	O 	0.29602	0.25	0.8843	-0.468
Mof_O 	O 	0.62353	0.1535	0.4971	-0.429
Mof_O 	O 	0.63314	0.3205	0.4787	-0.419
Mof_C 	C 	0.75256	0.0621	0.5692	0.398
Mof_C 	C 	0.78008	0.9908	0.6342	-0.153
Mof_C 	C 	0.7642	0.9353	0.7	0.074
Mof_H 	H 	0.7371	0.9429	0.7037	0.009
Mof_C 	C 	0.78893	0.8693	0.7593	-0.151
Mof_C 	C 	0.82923	0.8549	0.7517	0.022
Mof_H 	H 	0.8455	0.8092	0.7913	0.032
Mof_C 	C 	0.84546	0.9084	0.6852	-0.054
Mof_C 	C 	0.82031	0.9788	0.6283	0.017
Mof_H 	H 	0.8309	0.0179	0.5859	0.015
Mof_C 	C 	0.77247	0.8113	0.8337	0.443
Mof_C 	C 	0.88763	0.8887	0.6717	0.053
Mof_C 	C 	0.90464	0.7904	0.6857	-0.09
Mof_H 	H 	0.8904	0.7389	0.7094	0.058
Mof_C 	C 	0.9425	0.7672	0.6652	-0.018
Mof_H 	H 	0.9528	0.7006	0.6744	0.03
Mof_C 	C 	0.96479	0.8429	0.6311	-0.03
Mof_C 	C 	0.94849	0.9412	0.6214	-0.017
Mof_H 	H 	0.9634	0.9941	0.6018	0.033
Mof_C 	C 	0.9106	0.9633	0.64	-0.096
Mof_H 	H 	0.9005	0.03	0.6308	0.063
Mof_C 	C 	0.00388	0.8181	0.6026	0.076
Mof_C 	C 	0.0126	0.7176	0.5801	-0.134
Mof_H 	H 	0.9943	0.665	0.5844	0.07
Mof_C 	C 	0.04834	0.6953	0.5512	0.044
Mof_H 	H 	0.054	0.6272	0.5387	0.017
Mof_C 	C 	0.07573	0.7711	0.5403	-0.117
Mof_C 	C 	0.06777	0.8684	0.565	0.047
Mof_H 	H 	0.0862	0.9207	0.5606	0.023
Mof_C 	C 	0.0324	0.8919	0.597	-0.132
Mof_H 	H 	0.0282	0.9591	0.6149	0.074
Mof_C 	C 	0.11325	0.7466	0.5039	0.319
Mof_La	La	0.80913	0.30023	0.55111	1.924
Mof_O 	O 	0.76786	0.1395	0.5364	-0.568
Mof_O 	O 	0.71521	0.042	0.5493	-0.448
Mof_O 	O 	0.73578	0.8287	0.8365	-0.52
Mof_O 	O 	0.79602	0.75	0.8843	-0.469
Mof_O 	O 	0.12353	0.6535	0.4971	-0.429
Mof_O 	O 	0.13314	0.8205	0.4787	-0.419
_end
