data_functionalizedCrystal
_audit_creation_method	'EQeq! by Chris Wilmer'
_symmetry_space_group_name_H-M	'P1'
_symmetry_Int_Tables_number	1
_symmetry_cell_setting	triclinic
loop_
_symmetry_equiv_pos_as_xyz
  x,y,z
_cell_length_a	7.4106
_cell_length_b	16.622
_cell_length_c	16.683
_cell_angle_alpha	104.24
_cell_angle_beta	101.49
_cell_angle_gamma	98.67
loop_
_atom_site_label
_atom_site_type_symbol
_atom_site_fract_x
_atom_site_fract_y
_atom_site_fract_z
_atom_site_charge
Mof_Cd	Cd	0.48669	0.483	0.62798	0.46
Mof_Cd	Cd	0.31649	0.95599	0.54158	0.426
Mof_Cd	Cd	0.50972	0.50125	0.88126	0.46
Mof_Cd	Cd	0.51331	0.517	0.37202	0.46
Mof_Cd	Cd	0.68351	0.04401	0.45842	0.426
Mof_Cd	Cd	0.49028	0.49875	0.11874	0.46
Mof_H 	H 	0.3962	0.6593	0.5745	0.053
Mof_H 	H 	0.4965	0.8045	0.6675	0.046
Mof_H 	H 	0.7026	0.6497	0.7905	0.019
Mof_H 	H 	0.6391	0.9131	0.7813	0.09
Mof_H 	H 	0.8203	0.0272	0.8885	0.046
Mof_H 	H 	0.021	0.8707	0.0137	0.041
Mof_H 	H 	0.8487	0.7561	0.9037	0.097
Mof_H 	H 	0.2556	0.3176	0.7313	0.053
Mof_H 	H 	0.2264	0.1766	0.7497	0.054
Mof_H 	H 	0.5824	0.3396	0.9551	0.017
Mof_H 	H 	0.5989	0.2401	0.0208	0.091
Mof_H 	H 	0.6366	0.131	0.0804	0.046
Mof_H 	H 	0.3267	0.9648	0.8656	0.054
Mof_H 	H 	0.2928	0.0724	0.8053	0.088
Mof_H 	H 	0.9998	0.5104	0.6304	0.085
Mof_H 	H 	0.2457	0.7229	0.8198	0.107
Mof_H 	H 	0.9086	0.736	0.6062	0.111
Mof_H 	H 	0.9036	0.8512	0.6812	0.099
Mof_H 	H 	0.0232	0.9331	0.7519	0.102
Mof_H 	H 	0.038	0.252	0.9264	0.1
Mof_H 	H 	0.6898	0.2473	0.7064	0.099
Mof_H 	H 	0.9784	0.4704	0.8726	0.079
Mof_H 	H 	0.6333	0.0431	0.7383	0.108
Mof_H 	H 	0.5787	0.1235	0.7153	0.096
Mof_H 	H 	0.6038	0.3407	0.4255	0.054
Mof_H 	H 	0.5035	0.1955	0.3325	0.047
Mof_H 	H 	0.2974	0.3503	0.2095	0.019
Mof_H 	H 	0.3609	0.0869	0.2187	0.09
Mof_H 	H 	0.1797	0.9728	0.1115	0.046
Mof_H 	H 	0.979	0.1293	0.9863	0.041
Mof_H 	H 	0.1513	0.2439	0.0963	0.097
Mof_H 	H 	0.7444	0.6824	0.2687	0.053
Mof_H 	H 	0.7736	0.8234	0.2503	0.054
Mof_H 	H 	0.4176	0.6604	0.0449	0.017
Mof_H 	H 	0.4011	0.7599	0.9792	0.091
Mof_H 	H 	0.3634	0.869	0.9196	0.046
Mof_H 	H 	0.6733	0.0352	0.1344	0.054
Mof_H 	H 	0.7072	0.9276	0.1947	0.088
Mof_H 	H 	0.0002	0.4896	0.3696	0.085
Mof_H 	H 	0.7543	0.2771	0.1802	0.107
Mof_H 	H 	0.0914	0.264	0.3938	0.111
Mof_H 	H 	0.0964	0.1488	0.3188	0.099
Mof_H 	H 	0.9768	0.0669	0.2481	0.102
Mof_H 	H 	0.962	0.748	0.0736	0.1
Mof_H 	H 	0.3102	0.7527	0.2936	0.099
Mof_H 	H 	0.0216	0.5296	0.1274	0.079
Mof_H 	H 	0.3667	0.9569	0.2617	0.108
Mof_H 	H 	0.4213	0.8765	0.2847	0.096
Mof_C 	C 	0.471	0.6758	0.63	0.012
Mof_C 	C 	0.5254	0.7561	0.681	0.003
Mof_C 	C 	0.6387	0.67	0.7483	0.106
Mof_C 	C 	0.7316	0.8227	0.8294	0.135
Mof_C 	C 	0.7198	0.9044	0.8274	-0.129
Mof_C 	C 	0.8259	0.9728	0.8925	-0.007
Mof_C 	C 	0.942	0.9632	0.9647	-0.005
Mof_C 	C 	0.946	0.8798	0.9663	-0.001
Mof_C 	C 	0.8431	0.8108	0.9004	-0.128
Mof_C 	C 	0.3175	0.3041	0.7789	0.015
Mof_C 	C 	0.3003	0.2264	0.7886	-0
Mof_C 	C 	0.4971	0.317	0.9021	0.104
Mof_C 	C 	0.4397	0.1669	0.9061	0.132
Mof_C 	C 	0.5439	0.1843	0.989	-0.124
Mof_C 	C 	0.5661	0.1184	0.0244	-0.01
Mof_C 	C 	0.4884	0.0351	0.9804	-0.001
Mof_C 	C 	0.3839	0.0203	0.8977	-0.012
Mof_C 	C 	0.3621	0.085	0.8615	-0.123
Mof_C 	C 	0.258	0.5597	0.7766	0.265
Mof_C 	C 	0.7855	0.5727	0.5251	0.262
Mof_C 	C 	0.9287	0.6167	0.6067	0.018
Mof_C 	C 	0.0208	0.569	0.6525	-0.074
Mof_C 	C 	0.1438	0.6095	0.7313	0.015
Mof_C 	C 	0.1687	0.6963	0.7655	-0.148
Mof_C 	C 	0.0786	0.7436	0.7186	0.196
Mof_C 	C 	0.9635	0.704	0.6388	-0.159
Mof_C 	C 	0.0309	0.8809	0.7123	-0.173
Mof_C 	C 	0.1403	0.9023	0.6498	0.332
Mof_C 	C 	0.7083	0.4133	0.7311	0.271
Mof_C 	C 	0.1936	0.4158	0.9865	0.269
Mof_C 	C 	0.0378	0.3681	0.9103	0.002
Mof_C 	C 	0.9856	0.2805	0.8892	-0.134
Mof_C 	C 	0.8561	0.2347	0.8134	0.184
Mof_C 	C 	0.7727	0.2774	0.7586	-0.137
Mof_C 	C 	0.8154	0.3656	0.7832	0.006
Mof_C 	C 	0.9487	0.4114	0.8578	-0.058
Mof_C 	C 	0.6822	0.095	0.726	-0.186
Mof_C 	C 	0.7527	0.0721	0.6461	0.345
Mof_C 	C 	0.529	0.3242	0.37	0.012
Mof_C 	C 	0.4746	0.2439	0.319	0.003
Mof_C 	C 	0.3613	0.33	0.2517	0.106
Mof_C 	C 	0.2684	0.1773	0.1706	0.135
Mof_C 	C 	0.2802	0.0956	0.1726	-0.129
Mof_C 	C 	0.1741	0.0272	0.1075	-0.007
Mof_C 	C 	0.058	0.0368	0.0353	-0.005
Mof_C 	C 	0.054	0.1202	0.0337	-0.001
Mof_C 	C 	0.1569	0.1892	0.0996	-0.128
Mof_C 	C 	0.6825	0.6959	0.2211	0.015
Mof_C 	C 	0.6997	0.7736	0.2114	-0
Mof_C 	C 	0.5029	0.683	0.0979	0.104
Mof_C 	C 	0.5603	0.8331	0.0939	0.132
Mof_C 	C 	0.4561	0.8157	0.011	-0.124
Mof_C 	C 	0.4339	0.8816	0.9756	-0.01
Mof_C 	C 	0.5116	0.9649	0.0196	-0.001
Mof_C 	C 	0.6161	0.9797	0.1023	-0.012
Mof_C 	C 	0.6379	0.915	0.1385	-0.123
Mof_C 	C 	0.742	0.4403	0.2234	0.265
Mof_C 	C 	0.2145	0.4273	0.4749	0.262
Mof_C 	C 	0.0713	0.3833	0.3933	0.018
Mof_C 	C 	0.9792	0.431	0.3475	-0.074
Mof_C 	C 	0.8562	0.3905	0.2687	0.015
Mof_C 	C 	0.8313	0.3037	0.2345	-0.148
Mof_C 	C 	0.9214	0.2564	0.2814	0.196
Mof_C 	C 	0.0365	0.296	0.3612	-0.159
Mof_C 	C 	0.9691	0.1191	0.2877	-0.173
Mof_C 	C 	0.8597	0.0977	0.3502	0.332
Mof_C 	C 	0.2917	0.5867	0.2689	0.271
Mof_C 	C 	0.8064	0.5842	0.0135	0.269
Mof_C 	C 	0.9622	0.6319	0.0897	0.002
Mof_C 	C 	0.0144	0.7195	0.1108	-0.134
Mof_C 	C 	0.1439	0.7653	0.1866	0.184
Mof_C 	C 	0.2273	0.7226	0.2414	-0.137
Mof_C 	C 	0.1846	0.6344	0.2168	0.006
Mof_C 	C 	0.0513	0.5886	0.1422	-0.058
Mof_C 	C 	0.3178	0.905	0.274	-0.186
Mof_C 	C 	0.2473	0.9279	0.3539	0.345
Mof_N 	N 	0.5427	0.622	0.6723	-0.144
Mof_N 	N 	0.6332	0.7523	0.7577	-0.141
Mof_N 	N 	0.4406	0.3618	0.8501	-0.143
Mof_N 	N 	0.4145	0.2344	0.8682	-0.139
Mof_N 	N 	0.4573	0.378	0.3277	-0.144
Mof_N 	N 	0.3668	0.2477	0.2423	-0.141
Mof_N 	N 	0.5594	0.6382	0.1499	-0.143
Mof_N 	N 	0.5855	0.7656	0.1318	-0.139
Mof_O 	O 	0.6965	0.4997	0.5147	-0.261
Mof_O 	O 	0.753	0.6126	0.4693	-0.25
Mof_O 	O 	0.279	0.4888	0.7356	-0.265
Mof_O 	O 	0.3374	0.5942	0.8547	-0.265
Mof_O 	O 	0.1158	0.8293	0.7592	-0.186
Mof_O 	O 	0.313	0.9261	0.6731	-0.294
Mof_O 	O 	0.0456	0.8979	0.576	-0.276
Mof_O 	O 	0.6851	0.4851	0.7671	-0.277
Mof_O 	O 	0.643	0.3794	0.652	-0.255
Mof_O 	O 	0.2358	0.3839	0.0463	-0.26
Mof_O 	O 	0.2855	0.4869	0.9869	-0.273
Mof_O 	O 	0.8222	0.1484	0.7995	-0.179
Mof_O 	O 	0.9139	0.1003	0.6451	-0.261
Mof_O 	O 	0.6289	0.0228	0.5805	-0.322
Mof_O 	O 	0.3035	0.5003	0.4853	-0.261
Mof_O 	O 	0.247	0.3874	0.5307	-0.25
Mof_O 	O 	0.721	0.5112	0.2644	-0.265
Mof_O 	O 	0.6626	0.4058	0.1453	-0.265
Mof_O 	O 	0.8842	0.1707	0.2408	-0.186
Mof_O 	O 	0.687	0.0739	0.3269	-0.294
Mof_O 	O 	0.9544	0.1021	0.424	-0.276
Mof_O 	O 	0.3149	0.5149	0.2329	-0.277
Mof_O 	O 	0.357	0.6206	0.348	-0.255
Mof_O 	O 	0.7642	0.6161	0.9537	-0.26
Mof_O 	O 	0.7145	0.5131	0.0131	-0.273
Mof_O 	O 	0.1778	0.8516	0.2005	-0.179
Mof_O 	O 	0.0861	0.8997	0.3549	-0.261
Mof_O 	O 	0.3711	0.9772	0.4195	-0.322
_end
