data_functionalizedCrystal
_audit_creation_method	'EQeq! by Chris Wilmer'
_symmetry_space_group_name_H-M	'P1'
_symmetry_Int_Tables_number	1
_symmetry_cell_setting	triclinic
loop_
_symmetry_equiv_pos_as_xyz
  x,y,z
_cell_length_a	14.3449
_cell_length_b	14.6994
_cell_length_c	20.0322
_cell_angle_alpha	108.675
_cell_angle_beta	90.123
_cell_angle_gamma	107.786
loop_
_atom_site_label
_atom_site_type_symbol
_atom_site_fract_x
_atom_site_fract_y
_atom_site_fract_z
_atom_site_charge
Mof_Ag	Ag	0.48425	0.4014	0.54064	0.488
Mof_C 	C 	0.3918	0.2968	0.6577	0.119
Mof_N 	N 	0.4677	0.3411	0.632	-0.169
Mof_Ag	Ag	0.39784	0.59425	0.14837	0.399
Mof_C 	C 	0.2931	0.2505	0.6205	-0.057
Mof_N 	N 	0.5437	0.3761	0.6834	-0.114
Mof_Ag	Ag	0.2375	0.97769	0.25604	0.477
Mof_C 	C 	0.2578	0.2923	0.5763	-0.024
Mof_H 	H 	0.2971	0.3526	0.5713	-0.002
Mof_N 	N 	0.5138	0.3576	0.7378	-0.123
Mof_Ag	Ag	0.05844	0.13944	0.02894	0.462
Mof_C 	C 	0.1604	0.2415	0.5384	-0.058
Mof_H 	H 	0.1385	0.2681	0.5074	0.033
Mof_N 	N 	0.415	0.3072	0.7263	-0.164
Mof_Ag	Ag	0.21692	0.22032	0.23094	0.425
Mof_C 	C 	0.102	0.158	0.5469	-0.027
Mof_H 	H 	0.0377	0.1286	0.5244	0.03
Mof_N 	N 	0.3191	0.295	0.33	-0.178
Mof_N 	N 	0.3688	0.3948	0.3446	-0.129
Mof_Ag	Ag	0.30724	0.49465	0.29878	0.465
Mof_C 	C 	0.138	0.111	0.5925	-0.061
Mof_H 	H 	0.0996	0.0492	0.5959	0.038
Mof_Ag	Ag	0.4939	0.7888	0.04415	0.26
Mof_C 	C 	0.228	0.1584	0.6284	-0.026
Mof_H 	H 	0.2491	0.1316	0.6594	0.018
Mof_N 	N 	0.422	0.4278	0.4038	-0.13
Mof_N 	N 	0.407	0.3524	0.4324	-0.176
Mof_Ag	Ag	0.3675	0.3267	0.83435	0.336
Mof_C 	C 	0.3456	0.2714	0.3869	0.105
Mof_N 	N 	0.0441	0.9375	0.0698	-0.183
Mof_Ag	Ag	0.329	0.9618	0.0778	0.539
Mof_C 	C 	0.3027	0.1725	0.3936	-0.077
Mof_C 	C 	0.208	0.1068	0.3615	-0.053
Mof_H 	H 	0.1724	0.1256	0.3324	-0.007
Mof_N 	N 	0.0738	0.039	0.0989	-0.129
Mof_N 	N 	0.1343	0.069	0.1554	-0.145
Mof_C 	C 	0.1672	0.0154	0.3723	-0.127
Mof_H 	H 	0.1036	0.9738	0.3526	0.044
Mof_C 	C 	0.2244	0.9872	0.4138	-0.004
Mof_H 	H 	0.2006	0.9225	0.417	0.018
Mof_N 	N 	0.1383	0.9816	0.1677	-0.183
Mof_N 	N 	0.2724	0.442	0.1244	-0.158
Mof_C 	C 	0.3107	0.0486	0.4485	-0.088
Mof_H 	H 	0.3426	0.0309	0.4805	0.047
Mof_N 	N 	0.2572	0.4074	0.1788	-0.132
Mof_C 	C 	0.3546	0.1419	0.4367	-0.019
Mof_H 	H 	0.4179	0.1827	0.4576	0.002
Mof_N 	N 	0.199	0.3117	0.1545	-0.125
Mof_C 	C 	0.0835	0.9046	0.1125	0.096
Mof_N 	N 	0.1805	0.2837	0.0851	-0.171
Mof_C 	C 	0.0758	0.7996	0.1031	-0.058
Mof_N 	N 	0.3002	0.8579	0.1986	-0.169
Mof_C 	C 	0.096	0.7412	0.0385	-0.033
Mof_H 	H 	0.1116	0.7669	0.0017	-0.008
Mof_N 	N 	0.3346	0.8614	0.1367	-0.131
Mof_C 	C 	0.092	0.64	0.0314	-0.059
Mof_H 	H 	0.108	0.6008	0.9895	0.038
Mof_C 	C 	0.066	0.5997	0.081	-0.027
Mof_H 	H 	0.0628	0.5331	0.0737	0.033
Mof_N 	N 	0.3688	0.7834	0.1091	-0.119
Mof_N 	N 	0.3536	0.7288	0.1533	-0.166
Mof_C 	C 	0.0419	0.6596	0.1469	-0.055
Mof_H 	H 	0.0234	0.6318	0.1824	0.04
Mof_C 	C 	0.0468	0.7603	0.1574	-0.028
Mof_H 	H 	0.031	0.7997	0.1994	0.019
Mof_C 	C 	0.2237	0.3611	0.0665	0.091
Mof_C 	C 	0.2192	0.369	0.9946	-0.051
Mof_C 	C 	0.2409	0.46	0.9829	-0.067
Mof_H 	H 	0.2584	0.521	0.0205	0.018
Mof_C 	C 	0.236	0.458	0.913	-0.04
Mof_H 	H 	0.2467	0.5202	0.9058	0.008
Mof_C 	C 	0.2161	0.374	0.8547	-0.091
Mof_H 	H 	0.2118	0.3771	0.8092	0.03
Mof_C 	C 	0.2026	0.282	0.8666	-0.09
Mof_H 	H 	0.1952	0.2231	0.8283	0.017
Mof_C 	C 	0.2002	0.2776	0.936	-0.048
Mof_H 	H 	0.1864	0.2157	0.9432	-0.008
Mof_C 	C 	0.3129	0.7776	0.2082	0.114
Mof_C 	C 	0.2847	0.739	0.2661	-0.067
Mof_C 	C 	0.2176	0.6394	0.2491	-0.031
Mof_H 	H 	0.1983	0.5984	0.2019	0.022
Mof_C 	C 	0.18	0.602	0.304	-0.114
Mof_H 	H 	0.1277	0.5414	0.2935	0.031
Mof_C 	C 	0.216	0.65	0.3653	-0.015
Mof_H 	H 	0.1945	0.6204	0.3994	-0.004
Mof_C 	C 	0.291	0.751	0.3899	-0.09
Mof_H 	H 	0.3189	0.7844	0.4367	0.038
Mof_C 	C 	0.317	0.791	0.3341	-0.016
Mof_H 	H 	0.3587	0.8573	0.3459	0.016
Mof_Ag	Ag	0.4089	0.9526	0.0598	-0.288
Mof_Ag	Ag	0.51575	0.5986	0.45936	0.487
Mof_C 	C 	0.6082	0.7032	0.3423	0.118
Mof_N 	N 	0.5323	0.6589	0.368	-0.17
Mof_Ag	Ag	0.60216	0.40575	0.85163	0.398
Mof_C 	C 	0.7069	0.7495	0.3795	-0.058
Mof_N 	N 	0.4563	0.6239	0.3166	-0.115
Mof_Ag	Ag	0.7625	0.02231	0.74396	0.476
Mof_C 	C 	0.7422	0.7077	0.4237	-0.025
Mof_H 	H 	0.7029	0.6474	0.4287	-0.002
Mof_N 	N 	0.4862	0.6424	0.2622	-0.123
Mof_Ag	Ag	0.94156	0.86056	0.97106	0.462
Mof_C 	C 	0.8396	0.7585	0.4616	-0.058
Mof_H 	H 	0.8615	0.7319	0.4926	0.033
Mof_N 	N 	0.585	0.6928	0.2737	-0.164
Mof_Ag	Ag	0.78308	0.77968	0.76906	0.425
Mof_C 	C 	0.898	0.842	0.4531	-0.027
Mof_H 	H 	0.9623	0.8714	0.4756	0.03
Mof_N 	N 	0.6809	0.705	0.67	-0.178
Mof_N 	N 	0.6312	0.6052	0.6554	-0.129
Mof_Ag	Ag	0.69276	0.50535	0.70122	0.465
Mof_C 	C 	0.862	0.889	0.4075	-0.061
Mof_H 	H 	0.9004	0.9508	0.4041	0.038
Mof_Ag	Ag	0.5061	0.2112	0.95585	0.26
Mof_C 	C 	0.772	0.8416	0.3716	-0.026
Mof_H 	H 	0.7509	0.8684	0.3406	0.018
Mof_N 	N 	0.578	0.5722	0.5962	-0.13
Mof_N 	N 	0.593	0.6476	0.5676	-0.176
Mof_Ag	Ag	0.6325	0.6733	0.16565	0.336
Mof_C 	C 	0.6544	0.7286	0.6131	0.105
Mof_N 	N 	0.9559	0.0625	0.9302	-0.183
Mof_Ag	Ag	0.671	0.0382	0.9222	0.539
Mof_C 	C 	0.6973	0.8275	0.6064	-0.077
Mof_C 	C 	0.792	0.8932	0.6385	-0.053
Mof_H 	H 	0.8276	0.8744	0.6676	-0.007
Mof_N 	N 	0.9262	0.961	0.9011	-0.129
Mof_N 	N 	0.8657	0.931	0.8446	-0.145
Mof_C 	C 	0.8328	0.9846	0.6277	-0.127
Mof_H 	H 	0.8964	0.0262	0.6474	0.044
Mof_C 	C 	0.7756	0.0128	0.5862	-0.004
Mof_H 	H 	0.7994	0.0775	0.583	0.018
Mof_N 	N 	0.8617	0.0184	0.8323	-0.183
Mof_N 	N 	0.7276	0.558	0.8756	-0.158
Mof_C 	C 	0.6893	0.9514	0.5515	-0.088
Mof_H 	H 	0.6574	0.9691	0.5195	0.047
Mof_N 	N 	0.7428	0.5926	0.8212	-0.132
Mof_C 	C 	0.6454	0.8581	0.5633	-0.019
Mof_H 	H 	0.5821	0.8173	0.5424	0.002
Mof_N 	N 	0.801	0.6883	0.8455	-0.125
Mof_C 	C 	0.9165	0.0954	0.8875	0.096
Mof_N 	N 	0.8195	0.7163	0.9149	-0.171
Mof_C 	C 	0.9242	0.2004	0.8969	-0.058
Mof_N 	N 	0.6998	0.1421	0.8014	-0.169
Mof_C 	C 	0.904	0.2588	0.9615	-0.033
Mof_H 	H 	0.8884	0.2331	0.9983	-0.008
Mof_N 	N 	0.6654	0.1386	0.8633	-0.131
Mof_C 	C 	0.908	0.36	0.9686	-0.059
Mof_H 	H 	0.892	0.3992	0.0105	0.038
Mof_C 	C 	0.934	0.4003	0.919	-0.027
Mof_H 	H 	0.9372	0.4669	0.9263	0.033
Mof_N 	N 	0.6312	0.2166	0.8909	-0.119
Mof_N 	N 	0.6464	0.2712	0.8467	-0.166
Mof_C 	C 	0.9581	0.3404	0.8531	-0.055
Mof_H 	H 	0.9766	0.3682	0.8176	0.04
Mof_C 	C 	0.9532	0.2397	0.8426	-0.028
Mof_H 	H 	0.969	0.2003	0.8006	0.019
Mof_C 	C 	0.7763	0.6389	0.9335	0.091
Mof_C 	C 	0.7808	0.631	0.0054	-0.051
Mof_C 	C 	0.7591	0.54	0.0171	-0.067
Mof_H 	H 	0.7416	0.479	0.9795	0.018
Mof_C 	C 	0.764	0.542	0.087	-0.04
Mof_H 	H 	0.7533	0.4798	0.0942	0.008
Mof_C 	C 	0.7839	0.626	0.1453	-0.091
Mof_H 	H 	0.7882	0.6229	0.1908	0.03
Mof_C 	C 	0.7974	0.718	0.1334	-0.09
Mof_H 	H 	0.8048	0.7769	0.1717	0.017
Mof_C 	C 	0.7998	0.7224	0.064	-0.048
Mof_H 	H 	0.8136	0.7843	0.0568	-0.008
Mof_C 	C 	0.6871	0.2224	0.7918	0.114
Mof_C 	C 	0.7153	0.261	0.7339	-0.067
Mof_C 	C 	0.7824	0.3606	0.7509	-0.031
Mof_H 	H 	0.8017	0.4016	0.7981	0.022
Mof_C 	C 	0.82	0.398	0.696	-0.114
Mof_H 	H 	0.8723	0.4586	0.7065	0.031
Mof_C 	C 	0.784	0.35	0.6347	-0.015
Mof_H 	H 	0.8055	0.3796	0.6006	-0.004
Mof_C 	C 	0.709	0.249	0.6101	-0.09
Mof_H 	H 	0.6811	0.2156	0.5633	0.038
Mof_C 	C 	0.683	0.209	0.6659	-0.016
Mof_H 	H 	0.6413	0.1427	0.6541	0.016
Mof_Ag	Ag	0.5911	0.0474	0.9402	-0.288
_end
