data_functionalizedCrystal
_audit_creation_method	'EQeq! by Chris Wilmer'
_symmetry_space_group_name_H-M	'P1'
_symmetry_Int_Tables_number	1
_symmetry_cell_setting	triclinic
loop_
_symmetry_equiv_pos_as_xyz
  x,y,z
_cell_length_a	29.647
_cell_length_b	24.669
_cell_length_c	9.7421
_cell_angle_alpha	90
_cell_angle_beta	90
_cell_angle_gamma	90
loop_
_atom_site_label
_atom_site_type_symbol
_atom_site_fract_x
_atom_site_fract_y
_atom_site_fract_z
_atom_site_charge
Mof_Zn	Zn	0.45812	0.23926	0.9783	1.176
Mof_Zn	Zn	0.79653	0.18914	0.861	1.191
Mof_O 	O 	0.72317	0.22102	0.8357	-0.37
Mof_O 	O 	0.74316	0.13711	0.8755	-0.439
Mof_O 	O 	0.66737	0.2553	0.2807	-0.429
Mof_O 	O 	0.69947	0.20015	0.1343	-0.364
Mof_O 	O 	0.56286	0.2907	0.6514	-0.469
Mof_O 	O 	0.61675	0.22966	0.6275	-0.353
Mof_N 	N 	0.65256	0.63056	0.8652	-0.266
Mof_N 	N 	0.47645	0.31768	0.9736	-0.313
Mof_O 	O 	0.50976	0.19522	0.9141	-0.457
Mof_O 	O 	0.55102	0.23509	0.0783	-0.264
Mof_C 	C 	0.54704	0.20375	0.9787	0.262
Mof_C 	C 	0.58608	0.1702	0.9296	-0.096
Mof_C 	C 	0.5771	0.11442	0.9081	0.008
Mof_H 	H 	0.5478	0.1013	0.9165	0.019
Mof_C 	C 	0.6118	0.07968	0.8747	-0.096
Mof_H 	H 	0.6061	0.043	0.8614	0.045
Mof_C 	C 	0.65578	0.09977	0.8608	0.008
Mof_H 	H 	0.6792	0.0761	0.8397	0.036
Mof_C 	C 	0.66481	0.15516	0.8783	-0.092
Mof_C 	C 	0.71332	0.17271	0.8629	0.315
Mof_C 	C 	0.62978	0.19152	0.9113	0.055
Mof_C 	C 	0.67547	0.24082	0.1576	0.311
Mof_C 	C 	0.65542	0.27478	0.0446	-0.064
Mof_C 	C 	0.65581	0.33162	0.064	0.127
Mof_H 	H 	0.6679	0.3466	0.1435	0.004
Mof_C 	C 	0.63795	0.36455	0.963	-0.217
Mof_H 	H 	0.6388	0.402	0.974	0.092
Mof_C 	C 	0.61898	0.34294	0.8467	0.087
Mof_H 	H 	0.6066	0.3658	0.7807	0.007
Mof_C 	C 	0.61823	0.28747	0.8271	-0.12
Mof_C 	C 	0.59874	0.26636	0.6934	0.339
Mof_C 	C 	0.63644	0.25184	0.9257	0.034
Mof_C 	C 	0.48771	0.34237	0.8555	0.092
Mof_H 	H 	0.4805	0.3255	0.7729	-0.019
Mof_C 	C 	0.50946	0.39163	0.8522	-0.164
Mof_H 	H 	0.5159	0.4079	0.7683	0.09
Mof_C 	C 	0.52176	0.41709	0.9733	0.089
Mof_C 	C 	0.50862	0.39239	0.0959	-0.12
Mof_H 	H 	0.5146	0.4091	0.1795	0.075
Mof_C 	C 	0.48664	0.34292	0.0921	0.137
Mof_H 	H 	0.4786	0.3265	0.1745	-0.017
Mof_C 	C 	0.6374	0.6074	0.7536	0.111
Mof_H 	H 	0.6461	0.6222	0.6698	-0.01
Mof_C 	C 	0.60941	0.5626	0.7511	-0.189
Mof_H 	H 	0.6005	0.5474	0.6682	0.094
Mof_C 	C 	0.59489	0.54099	0.8741	0.133
Mof_C 	C 	0.60874	0.56593	0.9921	-0.243
Mof_H 	H 	0.5987	0.5534	0.0767	0.148
Mof_C 	C 	0.63789	0.6101	0.986	0.017
Mof_H 	H 	0.6476	0.626	0.0673	0.044
Mof_C 	C 	0.56582	0.49247	0.8714	-0.063
Mof_H 	H 	0.5588	0.4782	0.7856	0.049
Mof_C 	C 	0.54877	0.4672	0.9805	-0.185
Mof_H 	H 	0.5542	0.4821	0.0666	0.124
Mof_Zn	Zn	0.45812	0.73926	0.4783	1.19
Mof_Zn	Zn	0.79653	0.68914	0.361	1.197
Mof_O 	O 	0.72317	0.72102	0.3357	-0.356
Mof_O 	O 	0.74316	0.63711	0.3755	-0.423
Mof_O 	O 	0.66737	0.7553	0.7807	-0.445
Mof_O 	O 	0.69947	0.70015	0.6343	-0.387
Mof_O 	O 	0.56286	0.7907	0.1514	-0.447
Mof_O 	O 	0.61675	0.72966	0.1275	-0.333
Mof_N 	N 	0.65256	0.13056	0.3652	-0.271
Mof_N 	N 	0.47645	0.81768	0.4736	-0.28
Mof_O 	O 	0.50976	0.69522	0.4141	-0.46
Mof_O 	O 	0.55102	0.73509	0.5783	-0.327
Mof_C 	C 	0.54704	0.70375	0.4787	0.332
Mof_C 	C 	0.58608	0.6702	0.4296	-0.104
Mof_C 	C 	0.5771	0.61442	0.4081	0.023
Mof_H 	H 	0.5478	0.6013	0.4165	0.025
Mof_C 	C 	0.6118	0.57968	0.3747	-0.091
Mof_H 	H 	0.6061	0.543	0.3614	0.056
Mof_C 	C 	0.65578	0.59977	0.3608	0.013
Mof_H 	H 	0.6792	0.5761	0.3397	0.045
Mof_C 	C 	0.66481	0.65516	0.3783	-0.081
Mof_C 	C 	0.71332	0.67271	0.3629	0.319
Mof_C 	C 	0.62978	0.69152	0.4113	0.061
Mof_C 	C 	0.67547	0.74082	0.6576	0.316
Mof_C 	C 	0.65542	0.77478	0.5446	-0.098
Mof_C 	C 	0.65581	0.83162	0.564	0.032
Mof_H 	H 	0.6679	0.8466	0.6435	0.022
Mof_C 	C 	0.63795	0.86455	0.463	-0.102
Mof_H 	H 	0.6388	0.902	0.474	0.067
Mof_C 	C 	0.61898	0.84294	0.3467	0.042
Mof_H 	H 	0.6066	0.8658	0.2807	0.03
Mof_C 	C 	0.61823	0.78747	0.3271	-0.102
Mof_C 	C 	0.59874	0.76636	0.1934	0.331
Mof_C 	C 	0.63644	0.75184	0.4257	0.076
Mof_C 	C 	0.48771	0.84237	0.3555	0.1
Mof_H 	H 	0.4805	0.8255	0.2729	-0.014
Mof_C 	C 	0.50946	0.89163	0.3522	-0.163
Mof_H 	H 	0.5159	0.9079	0.2683	0.095
Mof_C 	C 	0.52176	0.91709	0.4733	0.113
Mof_C 	C 	0.50862	0.89239	0.5959	-0.163
Mof_H 	H 	0.5146	0.9091	0.6795	0.078
Mof_C 	C 	0.48664	0.84292	0.5921	0.089
Mof_H 	H 	0.4786	0.8265	0.6745	-0.007
Mof_C 	C 	0.6374	0.1074	0.2536	0.116
Mof_H 	H 	0.6461	0.1222	0.1698	0.003
Mof_C 	C 	0.60941	0.0626	0.2511	-0.191
Mof_H 	H 	0.6005	0.0474	0.1682	0.11
Mof_C 	C 	0.59489	0.04099	0.3741	0.139
Mof_C 	C 	0.60874	0.06593	0.4921	-0.178
Mof_H 	H 	0.5987	0.0534	0.5767	0.093
Mof_C 	C 	0.63789	0.1101	0.486	0.091
Mof_H 	H 	0.6476	0.126	0.5673	-0.015
Mof_C 	C 	0.56582	0.99247	0.3714	-0.102
Mof_H 	H 	0.5588	0.9782	0.2856	0.067
Mof_C 	C 	0.54877	0.9672	0.4805	-0.078
Mof_H 	H 	0.5542	0.9821	0.5666	0.051
Mof_Zn	Zn	0.54188	0.76074	0.9783	1.175
Mof_Zn	Zn	0.20347	0.81086	0.861	1.19
Mof_O 	O 	0.27683	0.77898	0.8357	-0.371
Mof_O 	O 	0.25684	0.86289	0.8755	-0.44
Mof_O 	O 	0.33263	0.7447	0.2807	-0.429
Mof_O 	O 	0.30053	0.79985	0.1343	-0.364
Mof_O 	O 	0.43714	0.7093	0.6514	-0.469
Mof_O 	O 	0.38325	0.77034	0.6275	-0.353
Mof_N 	N 	0.34744	0.36944	0.8652	-0.266
Mof_N 	N 	0.52355	0.68232	0.9736	-0.313
Mof_O 	O 	0.49024	0.80478	0.9141	-0.457
Mof_O 	O 	0.44898	0.76491	0.0783	-0.264
Mof_C 	C 	0.45296	0.79625	0.9787	0.262
Mof_C 	C 	0.41392	0.8298	0.9296	-0.096
Mof_C 	C 	0.4229	0.88558	0.9081	0.008
Mof_H 	H 	0.4522	0.8987	0.9165	0.019
Mof_C 	C 	0.3882	0.92032	0.8747	-0.096
Mof_H 	H 	0.3939	0.957	0.8614	0.045
Mof_C 	C 	0.34422	0.90023	0.8608	0.008
Mof_H 	H 	0.3208	0.9239	0.8397	0.036
Mof_C 	C 	0.33519	0.84484	0.8783	-0.092
Mof_C 	C 	0.28668	0.82729	0.8629	0.315
Mof_C 	C 	0.37022	0.80848	0.9113	0.055
Mof_C 	C 	0.32453	0.75918	0.1576	0.311
Mof_C 	C 	0.34458	0.72522	0.0446	-0.064
Mof_C 	C 	0.34419	0.66838	0.064	0.127
Mof_H 	H 	0.3321	0.6534	0.1435	0.004
Mof_C 	C 	0.36205	0.63545	0.963	-0.217
Mof_H 	H 	0.3612	0.598	0.974	0.092
Mof_C 	C 	0.38102	0.65706	0.8467	0.087
Mof_H 	H 	0.3934	0.6342	0.7807	0.007
Mof_C 	C 	0.38177	0.71253	0.8271	-0.12
Mof_C 	C 	0.40126	0.73364	0.6934	0.339
Mof_C 	C 	0.36356	0.74816	0.9257	0.034
Mof_C 	C 	0.51229	0.65763	0.8555	0.092
Mof_H 	H 	0.5195	0.6745	0.7729	-0.019
Mof_C 	C 	0.49054	0.60837	0.8522	-0.164
Mof_H 	H 	0.4841	0.5921	0.7683	0.09
Mof_C 	C 	0.47824	0.58291	0.9733	0.089
Mof_C 	C 	0.49138	0.60761	0.0959	-0.12
Mof_H 	H 	0.4854	0.5909	0.1795	0.075
Mof_C 	C 	0.51336	0.65708	0.0921	0.137
Mof_H 	H 	0.5214	0.6735	0.1745	-0.017
Mof_C 	C 	0.3626	0.3926	0.7536	0.111
Mof_H 	H 	0.3539	0.3778	0.6698	-0.01
Mof_C 	C 	0.39059	0.4374	0.7511	-0.189
Mof_H 	H 	0.3995	0.4526	0.6682	0.094
Mof_C 	C 	0.40511	0.45901	0.8741	0.133
Mof_C 	C 	0.39126	0.43407	0.9921	-0.243
Mof_H 	H 	0.4013	0.4466	0.0767	0.148
Mof_C 	C 	0.36211	0.3899	0.986	0.017
Mof_H 	H 	0.3524	0.374	0.0673	0.044
Mof_C 	C 	0.43418	0.50753	0.8714	-0.063
Mof_H 	H 	0.4412	0.5218	0.7856	0.049
Mof_C 	C 	0.45123	0.5328	0.9805	-0.185
Mof_H 	H 	0.4458	0.5179	0.0666	0.124
Mof_Zn	Zn	0.54188	0.26074	0.4783	1.19
Mof_Zn	Zn	0.20347	0.31086	0.361	1.197
Mof_O 	O 	0.27683	0.27898	0.3357	-0.356
Mof_O 	O 	0.25684	0.36289	0.3755	-0.423
Mof_O 	O 	0.33263	0.2447	0.7807	-0.445
Mof_O 	O 	0.30053	0.29985	0.6343	-0.387
Mof_O 	O 	0.43714	0.2093	0.1514	-0.447
Mof_O 	O 	0.38325	0.27034	0.1275	-0.333
Mof_N 	N 	0.34744	0.86944	0.3652	-0.271
Mof_N 	N 	0.52355	0.18232	0.4736	-0.28
Mof_O 	O 	0.49024	0.30478	0.4141	-0.46
Mof_O 	O 	0.44898	0.26491	0.5783	-0.327
Mof_C 	C 	0.45296	0.29625	0.4787	0.332
Mof_C 	C 	0.41392	0.3298	0.4296	-0.104
Mof_C 	C 	0.4229	0.38558	0.4081	0.023
Mof_H 	H 	0.4522	0.3987	0.4165	0.025
Mof_C 	C 	0.3882	0.42032	0.3747	-0.091
Mof_H 	H 	0.3939	0.457	0.3614	0.056
Mof_C 	C 	0.34422	0.40023	0.3608	0.013
Mof_H 	H 	0.3208	0.4239	0.3397	0.045
Mof_C 	C 	0.33519	0.34484	0.3783	-0.081
Mof_C 	C 	0.28668	0.32729	0.3629	0.319
Mof_C 	C 	0.37022	0.30848	0.4113	0.061
Mof_C 	C 	0.32453	0.25918	0.6576	0.316
Mof_C 	C 	0.34458	0.22522	0.5446	-0.098
Mof_C 	C 	0.34419	0.16838	0.564	0.032
Mof_H 	H 	0.3321	0.1534	0.6435	0.022
Mof_C 	C 	0.36205	0.13545	0.463	-0.102
Mof_H 	H 	0.3612	0.098	0.474	0.067
Mof_C 	C 	0.38102	0.15706	0.3467	0.042
Mof_H 	H 	0.3934	0.1342	0.2807	0.03
Mof_C 	C 	0.38177	0.21253	0.3271	-0.102
Mof_C 	C 	0.40126	0.23364	0.1934	0.331
Mof_C 	C 	0.36356	0.24816	0.4257	0.076
Mof_C 	C 	0.51229	0.15763	0.3555	0.1
Mof_H 	H 	0.5195	0.1745	0.2729	-0.014
Mof_C 	C 	0.49054	0.10837	0.3522	-0.163
Mof_H 	H 	0.4841	0.0921	0.2683	0.095
Mof_C 	C 	0.47824	0.08291	0.4733	0.113
Mof_C 	C 	0.49138	0.10761	0.5959	-0.163
Mof_H 	H 	0.4854	0.0909	0.6795	0.078
Mof_C 	C 	0.51336	0.15708	0.5921	0.089
Mof_H 	H 	0.5214	0.1735	0.6745	-0.007
Mof_C 	C 	0.3626	0.8926	0.2536	0.116
Mof_H 	H 	0.3539	0.8778	0.1698	0.003
Mof_C 	C 	0.39059	0.9374	0.2511	-0.191
Mof_H 	H 	0.3995	0.9526	0.1682	0.11
Mof_C 	C 	0.40511	0.95901	0.3741	0.139
Mof_C 	C 	0.39126	0.93407	0.4921	-0.178
Mof_H 	H 	0.4013	0.9466	0.5767	0.093
Mof_C 	C 	0.36211	0.8899	0.486	0.091
Mof_H 	H 	0.3524	0.874	0.5673	-0.015
Mof_C 	C 	0.43418	0.00753	0.3714	-0.102
Mof_H 	H 	0.4412	0.0218	0.2856	0.067
Mof_C 	C 	0.45123	0.0328	0.4805	-0.078
Mof_H 	H 	0.4458	0.0179	0.5666	0.051
Mof_Zn	Zn	0.95812	0.26074	0.9783	1.175
Mof_Zn	Zn	0.29653	0.31086	0.861	1.19
Mof_O 	O 	0.22317	0.27898	0.8357	-0.371
Mof_O 	O 	0.24316	0.36289	0.8755	-0.44
Mof_O 	O 	0.16737	0.2447	0.2807	-0.429
Mof_O 	O 	0.19947	0.29985	0.1343	-0.364
Mof_O 	O 	0.06286	0.2093	0.6514	-0.469
Mof_O 	O 	0.11675	0.27034	0.6275	-0.353
Mof_N 	N 	0.15256	0.86944	0.8652	-0.266
Mof_N 	N 	0.97645	0.18232	0.9736	-0.313
Mof_O 	O 	0.00976	0.30478	0.9141	-0.457
Mof_O 	O 	0.05102	0.26491	0.0783	-0.264
Mof_C 	C 	0.04704	0.29625	0.9787	0.262
Mof_C 	C 	0.08608	0.3298	0.9296	-0.096
Mof_C 	C 	0.0771	0.38558	0.9081	0.008
Mof_H 	H 	0.0478	0.3987	0.9165	0.019
Mof_C 	C 	0.1118	0.42032	0.8747	-0.096
Mof_H 	H 	0.1061	0.457	0.8614	0.045
Mof_C 	C 	0.15578	0.40023	0.8608	0.008
Mof_H 	H 	0.1792	0.4239	0.8397	0.036
Mof_C 	C 	0.16481	0.34484	0.8783	-0.092
Mof_C 	C 	0.21332	0.32729	0.8629	0.315
Mof_C 	C 	0.12978	0.30848	0.9113	0.055
Mof_C 	C 	0.17547	0.25918	0.1576	0.311
Mof_C 	C 	0.15542	0.22522	0.0446	-0.064
Mof_C 	C 	0.15581	0.16838	0.064	0.126
Mof_H 	H 	0.1679	0.1534	0.1435	0.004
Mof_C 	C 	0.13795	0.13545	0.963	-0.217
Mof_H 	H 	0.1388	0.098	0.974	0.092
Mof_C 	C 	0.11898	0.15706	0.8467	0.086
Mof_H 	H 	0.1066	0.1342	0.7807	0.007
Mof_C 	C 	0.11823	0.21253	0.8271	-0.12
Mof_C 	C 	0.09874	0.23364	0.6934	0.339
Mof_C 	C 	0.13644	0.24816	0.9257	0.034
Mof_C 	C 	0.98771	0.15763	0.8555	0.092
Mof_H 	H 	0.9805	0.1745	0.7729	-0.019
Mof_C 	C 	0.00946	0.10837	0.8522	-0.164
Mof_H 	H 	0.0159	0.0921	0.7683	0.09
Mof_C 	C 	0.02176	0.08291	0.9733	0.089
Mof_C 	C 	0.00862	0.10761	0.0959	-0.12
Mof_H 	H 	0.0146	0.0909	0.1795	0.075
Mof_C 	C 	0.98664	0.15708	0.0921	0.136
Mof_H 	H 	0.9786	0.1735	0.1745	-0.017
Mof_C 	C 	0.1374	0.8926	0.7536	0.111
Mof_H 	H 	0.1461	0.8778	0.6698	-0.01
Mof_C 	C 	0.10941	0.9374	0.7511	-0.189
Mof_H 	H 	0.1005	0.9526	0.6682	0.094
Mof_C 	C 	0.09489	0.95901	0.8741	0.133
Mof_C 	C 	0.10874	0.93407	0.9921	-0.243
Mof_H 	H 	0.0987	0.9466	0.0767	0.147
Mof_C 	C 	0.13789	0.8899	0.986	0.017
Mof_H 	H 	0.1476	0.874	0.0673	0.044
Mof_C 	C 	0.06582	0.00753	0.8714	-0.063
Mof_H 	H 	0.0588	0.0218	0.7856	0.049
Mof_C 	C 	0.04877	0.0328	0.9805	-0.184
Mof_H 	H 	0.0542	0.0179	0.0666	0.124
Mof_Zn	Zn	0.95812	0.76074	0.4783	1.19
Mof_Zn	Zn	0.29653	0.81086	0.361	1.197
Mof_O 	O 	0.22317	0.77898	0.3357	-0.356
Mof_O 	O 	0.24316	0.86289	0.3755	-0.423
Mof_O 	O 	0.16737	0.7447	0.7807	-0.445
Mof_O 	O 	0.19947	0.79985	0.6343	-0.387
Mof_O 	O 	0.06286	0.7093	0.1514	-0.447
Mof_O 	O 	0.11675	0.77034	0.1275	-0.333
Mof_N 	N 	0.15256	0.36944	0.3652	-0.271
Mof_N 	N 	0.97645	0.68232	0.4736	-0.28
Mof_O 	O 	0.00976	0.80478	0.4141	-0.46
Mof_O 	O 	0.05102	0.76491	0.5783	-0.327
Mof_C 	C 	0.04704	0.79625	0.4787	0.333
Mof_C 	C 	0.08608	0.8298	0.4296	-0.104
Mof_C 	C 	0.0771	0.88558	0.4081	0.023
Mof_H 	H 	0.0478	0.8987	0.4165	0.025
Mof_C 	C 	0.1118	0.92032	0.3747	-0.091
Mof_H 	H 	0.1061	0.957	0.3614	0.056
Mof_C 	C 	0.15578	0.90023	0.3608	0.013
Mof_H 	H 	0.1792	0.9239	0.3397	0.045
Mof_C 	C 	0.16481	0.84484	0.3783	-0.081
Mof_C 	C 	0.21332	0.82729	0.3629	0.319
Mof_C 	C 	0.12978	0.80848	0.4113	0.061
Mof_C 	C 	0.17547	0.75918	0.6576	0.316
Mof_C 	C 	0.15542	0.72522	0.5446	-0.098
Mof_C 	C 	0.15581	0.66838	0.564	0.032
Mof_H 	H 	0.1679	0.6534	0.6435	0.022
Mof_C 	C 	0.13795	0.63545	0.463	-0.102
Mof_H 	H 	0.1388	0.598	0.474	0.067
Mof_C 	C 	0.11898	0.65706	0.3467	0.042
Mof_H 	H 	0.1066	0.6342	0.2807	0.03
Mof_C 	C 	0.11823	0.71253	0.3271	-0.102
Mof_C 	C 	0.09874	0.73364	0.1934	0.331
Mof_C 	C 	0.13644	0.74816	0.4257	0.076
Mof_C 	C 	0.98771	0.65763	0.3555	0.1
Mof_H 	H 	0.9805	0.6745	0.2729	-0.014
Mof_C 	C 	0.00946	0.60837	0.3522	-0.163
Mof_H 	H 	0.0159	0.5921	0.2683	0.095
Mof_C 	C 	0.02176	0.58291	0.4733	0.113
Mof_C 	C 	0.00862	0.60761	0.5959	-0.163
Mof_H 	H 	0.0146	0.5909	0.6795	0.078
Mof_C 	C 	0.98664	0.65708	0.5921	0.089
Mof_H 	H 	0.9786	0.6735	0.6745	-0.007
Mof_C 	C 	0.1374	0.3926	0.2536	0.116
Mof_H 	H 	0.1461	0.3778	0.1698	0.003
Mof_C 	C 	0.10941	0.4374	0.2511	-0.191
Mof_H 	H 	0.1005	0.4526	0.1682	0.11
Mof_C 	C 	0.09489	0.45901	0.3741	0.139
Mof_C 	C 	0.10874	0.43407	0.4921	-0.178
Mof_H 	H 	0.0987	0.4466	0.5767	0.093
Mof_C 	C 	0.13789	0.3899	0.486	0.091
Mof_H 	H 	0.1476	0.374	0.5673	-0.015
Mof_C 	C 	0.06582	0.50753	0.3714	-0.102
Mof_H 	H 	0.0588	0.5218	0.2856	0.067
Mof_C 	C 	0.04877	0.5328	0.4805	-0.078
Mof_H 	H 	0.0542	0.5179	0.5666	0.051
Mof_Zn	Zn	0.04188	0.73926	0.9783	1.175
Mof_Zn	Zn	0.70347	0.68914	0.861	1.19
Mof_O 	O 	0.77683	0.72102	0.8357	-0.371
Mof_O 	O 	0.75684	0.63711	0.8755	-0.44
Mof_O 	O 	0.83263	0.7553	0.2807	-0.429
Mof_O 	O 	0.80053	0.70015	0.1343	-0.364
Mof_O 	O 	0.93714	0.7907	0.6514	-0.469
Mof_O 	O 	0.88325	0.72966	0.6275	-0.353
Mof_N 	N 	0.84744	0.13056	0.8652	-0.266
Mof_N 	N 	0.02355	0.81768	0.9736	-0.313
Mof_O 	O 	0.99024	0.69522	0.9141	-0.457
Mof_O 	O 	0.94898	0.73509	0.0783	-0.264
Mof_C 	C 	0.95296	0.70375	0.9787	0.262
Mof_C 	C 	0.91392	0.6702	0.9296	-0.096
Mof_C 	C 	0.9229	0.61442	0.9081	0.008
Mof_H 	H 	0.9522	0.6013	0.9165	0.019
Mof_C 	C 	0.8882	0.57968	0.8747	-0.096
Mof_H 	H 	0.8939	0.543	0.8614	0.045
Mof_C 	C 	0.84422	0.59977	0.8608	0.008
Mof_H 	H 	0.8208	0.5761	0.8397	0.036
Mof_C 	C 	0.83519	0.65516	0.8783	-0.092
Mof_C 	C 	0.78668	0.67271	0.8629	0.315
Mof_C 	C 	0.87022	0.69152	0.9113	0.055
Mof_C 	C 	0.82453	0.74082	0.1576	0.311
Mof_C 	C 	0.84458	0.77478	0.0446	-0.064
Mof_C 	C 	0.84419	0.83162	0.064	0.126
Mof_H 	H 	0.8321	0.8466	0.1435	0.004
Mof_C 	C 	0.86205	0.86455	0.963	-0.217
Mof_H 	H 	0.8612	0.902	0.974	0.092
Mof_C 	C 	0.88102	0.84294	0.8467	0.086
Mof_H 	H 	0.8934	0.8658	0.7807	0.007
Mof_C 	C 	0.88177	0.78747	0.8271	-0.12
Mof_C 	C 	0.90126	0.76636	0.6934	0.339
Mof_C 	C 	0.86356	0.75184	0.9257	0.034
Mof_C 	C 	0.01229	0.84237	0.8555	0.092
Mof_H 	H 	0.0195	0.8255	0.7729	-0.019
Mof_C 	C 	0.99054	0.89163	0.8522	-0.164
Mof_H 	H 	0.9841	0.9079	0.7683	0.09
Mof_C 	C 	0.97824	0.91709	0.9733	0.089
Mof_C 	C 	0.99138	0.89239	0.0959	-0.12
Mof_H 	H 	0.9854	0.9091	0.1795	0.075
Mof_C 	C 	0.01336	0.84292	0.0921	0.136
Mof_H 	H 	0.0214	0.8265	0.1745	-0.017
Mof_C 	C 	0.8626	0.1074	0.7536	0.111
Mof_H 	H 	0.8539	0.1222	0.6698	-0.01
Mof_C 	C 	0.89059	0.0626	0.7511	-0.189
Mof_H 	H 	0.8995	0.0474	0.6682	0.094
Mof_C 	C 	0.90511	0.04099	0.8741	0.133
Mof_C 	C 	0.89126	0.06593	0.9921	-0.243
Mof_H 	H 	0.9013	0.0534	0.0767	0.147
Mof_C 	C 	0.86211	0.1101	0.986	0.017
Mof_H 	H 	0.8524	0.126	0.0673	0.044
Mof_C 	C 	0.93418	0.99247	0.8714	-0.063
Mof_H 	H 	0.9412	0.9782	0.7856	0.049
Mof_C 	C 	0.95123	0.9672	0.9805	-0.184
Mof_H 	H 	0.9458	0.9821	0.0666	0.124
Mof_Zn	Zn	0.04188	0.23926	0.4783	1.19
Mof_Zn	Zn	0.70347	0.18914	0.361	1.197
Mof_O 	O 	0.77683	0.22102	0.3357	-0.356
Mof_O 	O 	0.75684	0.13711	0.3755	-0.423
Mof_O 	O 	0.83263	0.2553	0.7807	-0.445
Mof_O 	O 	0.80053	0.20015	0.6343	-0.387
Mof_O 	O 	0.93714	0.2907	0.1514	-0.447
Mof_O 	O 	0.88325	0.22966	0.1275	-0.333
Mof_N 	N 	0.84744	0.63056	0.3652	-0.271
Mof_N 	N 	0.02355	0.31768	0.4736	-0.28
Mof_O 	O 	0.99024	0.19522	0.4141	-0.46
Mof_O 	O 	0.94898	0.23509	0.5783	-0.327
Mof_C 	C 	0.95296	0.20375	0.4787	0.333
Mof_C 	C 	0.91392	0.1702	0.4296	-0.104
Mof_C 	C 	0.9229	0.11442	0.4081	0.023
Mof_H 	H 	0.9522	0.1013	0.4165	0.025
Mof_C 	C 	0.8882	0.07968	0.3747	-0.091
Mof_H 	H 	0.8939	0.043	0.3614	0.056
Mof_C 	C 	0.84422	0.09977	0.3608	0.013
Mof_H 	H 	0.8208	0.0761	0.3397	0.045
Mof_C 	C 	0.83519	0.15516	0.3783	-0.081
Mof_C 	C 	0.78668	0.17271	0.3629	0.319
Mof_C 	C 	0.87022	0.19152	0.4113	0.061
Mof_C 	C 	0.82453	0.24082	0.6576	0.316
Mof_C 	C 	0.84458	0.27478	0.5446	-0.098
Mof_C 	C 	0.84419	0.33162	0.564	0.032
Mof_H 	H 	0.8321	0.3466	0.6435	0.022
Mof_C 	C 	0.86205	0.36455	0.463	-0.102
Mof_H 	H 	0.8612	0.402	0.474	0.067
Mof_C 	C 	0.88102	0.34294	0.3467	0.042
Mof_H 	H 	0.8934	0.3658	0.2807	0.03
Mof_C 	C 	0.88177	0.28747	0.3271	-0.102
Mof_C 	C 	0.90126	0.26636	0.1934	0.331
Mof_C 	C 	0.86356	0.25184	0.4257	0.076
Mof_C 	C 	0.01229	0.34237	0.3555	0.1
Mof_H 	H 	0.0195	0.3255	0.2729	-0.014
Mof_C 	C 	0.99054	0.39163	0.3522	-0.163
Mof_H 	H 	0.9841	0.4079	0.2683	0.095
Mof_C 	C 	0.97824	0.41709	0.4733	0.113
Mof_C 	C 	0.99138	0.39239	0.5959	-0.163
Mof_H 	H 	0.9854	0.4091	0.6795	0.078
Mof_C 	C 	0.01336	0.34292	0.5921	0.089
Mof_H 	H 	0.0214	0.3265	0.6745	-0.007
Mof_C 	C 	0.8626	0.6074	0.2536	0.116
Mof_H 	H 	0.8539	0.6222	0.1698	0.003
Mof_C 	C 	0.89059	0.5626	0.2511	-0.191
Mof_H 	H 	0.8995	0.5474	0.1682	0.11
Mof_C 	C 	0.90511	0.54099	0.3741	0.139
Mof_C 	C 	0.89126	0.56593	0.4921	-0.178
Mof_H 	H 	0.9013	0.5534	0.5767	0.093
Mof_C 	C 	0.86211	0.6101	0.486	0.091
Mof_H 	H 	0.8524	0.626	0.5673	-0.015
Mof_C 	C 	0.93418	0.49247	0.3714	-0.102
Mof_H 	H 	0.9412	0.4782	0.2856	0.067
Mof_C 	C 	0.95123	0.4672	0.4805	-0.078
Mof_H 	H 	0.9458	0.4821	0.5666	0.051
_end
