data_functionalizedCrystal
_audit_creation_method	'EQeq! by Chris Wilmer'
_symmetry_space_group_name_H-M	'P1'
_symmetry_Int_Tables_number	1
_symmetry_cell_setting	triclinic
loop_
_symmetry_equiv_pos_as_xyz
  x,y,z
_cell_length_a	11.3475
_cell_length_b	11.786
_cell_length_c	21.203
_cell_angle_alpha	96.259
_cell_angle_beta	90.978
_cell_angle_gamma	108.258
loop_
_atom_site_label
_atom_site_type_symbol
_atom_site_fract_x
_atom_site_fract_y
_atom_site_fract_z
_atom_site_charge
Mof_Mn	Mn	0.13715	0.4777	0.24059	0.767
Mof_Mn	Mn	0.86285	0.5223	0.75941	0.787
Mof_Mn	Mn	-0	0	0.5	0.695
Mof_Mn	Mn	0.5	0.5	-0	0.718
Mof_H 	H 	0.0293	0.6609	0.3208	-0.007
Mof_H 	H 	0.6015	0.601	0.8706	-0.008
Mof_H 	H 	0.5457	0.6074	0.7669	0.11
Mof_H 	H 	0.3414	0.6463	0.1581	-0.002
Mof_H 	H 	0.2632	0.4121	0.902	-0.012
Mof_H 	H 	0.1982	0.4127	0.7998	0.117
Mof_H 	H 	0.5445	0.7691	0.1622	0.118
Mof_H 	H 	0.5624	0.7428	0.3486	0.119
Mof_H 	H 	0.0954	0.1223	0.3771	-0.013
Mof_H 	H 	0.9637	0.826	0.3176	0.108
Mof_H 	H 	0.3614	0.6202	0.3395	-0.016
Mof_H 	H 	0.7608	0.7921	0.2808	0.137
Mof_H 	H 	0.7271	0.9108	0.2939	0.14
Mof_H 	H 	0.8863	0.3844	0.1522	-0.017
Mof_H 	H 	0.6885	0.251	0.1395	0.114
Mof_H 	H 	0.7485	0.1368	0.3051	0.119
Mof_H 	H 	0.018	0.8095	0.1311	0.123
Mof_H 	H 	0.7632	0.8192	0.1701	-0.02
Mof_H 	H 	0.7519	0.9473	0.1904	-0.022
Mof_H 	H 	0.2069	0.8826	0.451	-0.029
Mof_H 	H 	0.3273	0.8659	0.367	0.129
Mof_H 	H 	0.287	0.4257	0.6825	0.133
Mof_H 	H 	0.2482	0.5397	0.7035	0.139
Mof_H 	H 	0.4475	0.662	0.6795	-0.017
Mof_H 	H 	0.4787	0.5452	0.6543	-0.024
Mof_H 	H 	0.086	0.6475	0.1393	-0.012
Mof_H 	H 	0.2119	0.1122	0.2906	0.12
Mof_H 	H 	0.319	0.9939	0.2235	0.146
Mof_H 	H 	0.3699	0.9014	0.2535	0.149
Mof_H 	H 	0.9458	0.2695	0.3115	0.001
Mof_H 	H 	0.5701	0.0068	0.1974	0.13
Mof_H 	H 	0.5182	0.1079	0.1793	0.131
Mof_H 	H 	0.3411	0.7595	0.5275	0.125
Mof_H 	H 	0.5926	0.5984	0.5638	0.126
Mof_H 	H 	0.9002	0.3553	0.5633	0.052
Mof_H 	H 	0.944	0.9917	0.2562	0.153
Mof_H 	H 	0.9622	0.9813	0.1828	0.155
Mof_H 	H 	0.327	0.5011	0.572	0.143
Mof_H 	H 	0.2852	0.6109	0.5987	0.147
Mof_H 	H 	0.8772	0.3261	0.0367	0.053
Mof_H 	H 	0.5357	0.054	0.3041	-0.024
Mof_H 	H 	0.4803	0.1522	0.2848	-0.018
Mof_H 	H 	0.7273	0.724	0.503	0
Mof_H 	H 	0.4837	0.8795	0.4672	-0.006
Mof_H 	H 	0.9707	0.3391	0.6792	-0.013
Mof_H 	H 	0.3985	0.399	0.1294	-0.015
Mof_H 	H 	0.4543	0.3926	0.2331	0.11
Mof_H 	H 	0.6586	0.3537	0.8419	-0.002
Mof_H 	H 	0.7368	0.5879	0.098	-0.021
Mof_H 	H 	0.8018	0.5873	0.2002	0.125
Mof_H 	H 	0.4555	0.2309	0.8378	0.114
Mof_H 	H 	0.4376	0.2572	0.6514	0.114
Mof_H 	H 	0.9046	0.8777	0.6229	0.009
Mof_H 	H 	0.0363	0.174	0.6824	0.104
Mof_H 	H 	0.6386	0.3798	0.6605	-0.015
Mof_H 	H 	0.2392	0.2079	0.7192	0.129
Mof_H 	H 	0.2729	0.0892	0.7061	0.123
Mof_H 	H 	0.1137	0.6156	0.8478	-0.027
Mof_H 	H 	0.3115	0.749	0.8605	0.13
Mof_H 	H 	0.2515	0.8632	0.6949	0.134
Mof_H 	H 	0.982	0.1905	0.8689	0.118
Mof_H 	H 	0.2368	0.1808	0.8299	-0.011
Mof_H 	H 	0.2481	0.0527	0.8096	-0.023
Mof_H 	H 	0.7931	0.1174	0.549	-0.011
Mof_H 	H 	0.6727	0.1341	0.633	0.112
Mof_H 	H 	0.713	0.5743	0.3175	0.139
Mof_H 	H 	0.7518	0.4603	0.2965	0.147
Mof_H 	H 	0.5525	0.338	0.3205	-0.024
Mof_H 	H 	0.5213	0.4548	0.3457	-0.028
Mof_H 	H 	0.914	0.3525	0.8607	-0.001
Mof_H 	H 	0.7881	0.8878	0.7094	0.108
Mof_H 	H 	0.681	0.0061	0.7765	0.148
Mof_H 	H 	0.6301	0.0986	0.7465	0.156
Mof_H 	H 	0.0542	0.7305	0.6885	-0.011
Mof_H 	H 	0.4299	0.9932	0.8026	0.165
Mof_H 	H 	0.4818	0.8921	0.8207	0.16
Mof_H 	H 	0.6589	0.2405	0.4725	0.124
Mof_H 	H 	0.4074	0.4016	0.4362	0.127
Mof_H 	H 	0.0998	0.6447	0.4367	0.04
Mof_H 	H 	0.056	0.0083	0.7438	0.121
Mof_H 	H 	0.0378	0.0187	0.8172	0.126
Mof_H 	H 	0.673	0.4989	0.428	0.148
Mof_H 	H 	0.7148	0.3891	0.4013	0.152
Mof_H 	H 	0.1228	0.6739	0.9633	0.045
Mof_H 	H 	0.4643	0.946	0.6959	-0.035
Mof_H 	H 	0.5197	0.8478	0.7152	-0.035
Mof_H 	H 	0.2727	0.276	0.497	-0.003
Mof_H 	H 	0.5163	0.1205	0.5328	-0.015
Mof_C 	C 	0.9679	0.24313	0.46486	0.33
Mof_C 	C 	0.1154	0.4371	0.38513	0.314
Mof_C 	C 	0.9923	0.37787	0.48266	-0.027
Mof_C 	C 	0.0269	0.6909	0.28218	0.101
Mof_C 	C 	0.5192	0.5628	0.85623	0.128
Mof_C 	C 	0.4863	0.5667	0.79328	-0.237
Mof_C 	C 	0.0539	0.46669	0.44453	-0.078
Mof_C 	C 	0.3869	0.6651	0.19686	0.128
Mof_C 	C 	0.3208	0.4519	0.87465	0.136
Mof_C 	C 	0.281	0.4517	0.81288	-0.249
Mof_C 	C 	0.5097	0.7394	0.19879	-0.246
Mof_C 	C 	0.5795	0.7686	0.25593	0.225
Mof_C 	C 	0.5198	0.7233	0.30907	-0.257
Mof_C 	C 	0.1415	0.0693	0.37476	0.142
Mof_C 	C 	0.1036	0.3779	0.08851	0.321
Mof_C 	C 	0.9864	0.7903	0.28052	-0.229
Mof_C 	C 	0.9796	0.8367	0.22301	0.242
Mof_C 	C 	0.3642	0.5096	0.76967	0.223
Mof_C 	C 	0.3984	0.65	0.30332	0.131
Mof_C 	C 	0.7172	0.8411	0.26299	-0.372
Mof_C 	C 	0.8588	0.3329	0.18299	0.133
Mof_C 	C 	0.7387	0.2528	0.175	-0.245
Mof_C 	C 	0.6937	0.175	0.22064	0.217
Mof_C 	C 	0.7746	0.1849	0.27277	-0.243
Mof_C 	C 	0.019	0.7809	0.17024	-0.275
Mof_C 	C 	0.7825	0.8853	0.20416	0.167
Mof_C 	C 	0.2072	0.9286	0.41798	0.176
Mof_C 	C 	0.2806	0.9183	0.36759	-0.276
Mof_C 	C 	0.284	0.9874	0.3176	0.269
Mof_C 	C 	0.318	0.5087	0.70198	-0.371
Mof_C 	C 	0.4119	0.58	0.65921	0.168
Mof_C 	C 	0.0597	0.6827	0.17546	0.132
Mof_C 	C 	0.2123	0.0641	0.32254	-0.289
Mof_C 	C 	0.3613	0.981	0.26087	-0.383
Mof_C 	C 	0.8935	0.2661	0.27662	0.12
Mof_C 	C 	0.5638	0.0854	0.21229	-0.37
Mof_C 	C 	0.2691	0.5848	0.02779	0.326
Mof_C 	C 	0.4188	0.7495	0.52326	-0.248
Mof_C 	C 	0.5674	0.6549	0.54459	-0.243
Mof_C 	C 	0.9402	0.4133	0.53766	-0.031
Mof_C 	C 	0.9251	0.9367	0.21723	-0.39
Mof_C 	C 	0.3563	0.5824	0.59381	-0.381
Mof_C 	C 	0.9266	0.3964	0.02213	-0.043
Mof_C 	C 	0.4896	0.0745	0.27062	0.157
Mof_C 	C 	0.6485	0.7312	0.50751	0.129
Mof_C 	C 	0.5059	0.8218	0.48682	0.13
Mof_C 	C 	0.4489	0.6628	0.55302	0.232
Mof_C 	C 	0.1283	0.5431	0.01612	-0.084
Mof_C 	C 	0.0537	0.4382	0.03926	-0.05
Mof_C 	C 	0.0321	0.75687	0.53514	0.302
Mof_C 	C 	0.8846	0.5629	0.61487	0.305
Mof_C 	C 	0.0077	0.62213	0.51734	-0.072
Mof_C 	C 	0.9731	0.3091	0.71782	0.14
Mof_C 	C 	0.4808	0.4372	0.14377	0.129
Mof_C 	C 	0.5137	0.4333	0.20672	-0.243
Mof_C 	C 	0.9461	0.53331	0.55547	-0.028
Mof_C 	C 	0.6131	0.3349	0.80314	0.125
Mof_C 	C 	0.6792	0.5481	0.12535	0.139
Mof_C 	C 	0.719	0.5483	0.18712	-0.257
Mof_C 	C 	0.4903	0.2606	0.80121	-0.241
Mof_C 	C 	0.4205	0.2314	0.74407	0.21
Mof_C 	C 	0.4802	0.2767	0.69093	-0.25
Mof_C 	C 	0.8585	0.9307	0.62524	0.118
Mof_C 	C 	0.8964	0.6221	0.91149	0.328
Mof_C 	C 	0.0136	0.2097	0.71948	-0.257
Mof_C 	C 	0.0204	0.1633	0.77699	0.193
Mof_C 	C 	0.6358	0.4904	0.23033	0.231
Mof_C 	C 	0.6016	0.35	0.69668	0.127
Mof_C 	C 	0.2828	0.1589	0.73701	-0.349
Mof_C 	C 	0.1412	0.6671	0.81701	0.148
Mof_C 	C 	0.2613	0.7472	0.825	-0.267
Mof_C 	C 	0.3063	0.825	0.77936	0.254
Mof_C 	C 	0.2254	0.8151	0.72723	-0.264
Mof_C 	C 	0.981	0.2191	0.82976	-0.219
Mof_C 	C 	0.2175	0.1147	0.79584	0.135
Mof_C 	C 	0.7928	0.0714	0.58202	0.112
Mof_C 	C 	0.7194	0.0817	0.63241	-0.234
Mof_C 	C 	0.716	0.0126	0.6824	0.211
Mof_C 	C 	0.682	0.4913	0.29802	-0.385
Mof_C 	C 	0.5881	0.42	0.34079	0.182
Mof_C 	C 	0.9403	0.3173	0.82454	0.119
Mof_C 	C 	0.7877	0.9359	0.67746	-0.206
Mof_C 	C 	0.6387	0.019	0.73913	-0.423
Mof_C 	C 	0.1065	0.7339	0.72338	0.136
Mof_C 	C 	0.4362	0.9146	0.78771	-0.43
Mof_C 	C 	0.7309	0.4152	0.97221	0.311
Mof_C 	C 	0.5812	0.2505	0.47674	-0.254
Mof_C 	C 	0.4326	0.3451	0.45541	-0.248
Mof_C 	C 	0.0598	0.5867	0.46234	-0.002
Mof_C 	C 	0.0749	0.0633	0.78277	-0.344
Mof_C 	C 	0.6437	0.4176	0.40619	-0.392
Mof_C 	C 	0.0734	0.6036	0.97787	0.014
Mof_C 	C 	0.5104	0.9255	0.72938	0.233
Mof_C 	C 	0.3515	0.2688	0.49249	0.13
Mof_C 	C 	0.4941	0.1782	0.51318	0.129
Mof_C 	C 	0.5511	0.3372	0.44698	0.236
Mof_C 	C 	0.8717	0.4569	0.98388	-0.013
Mof_C 	C 	0.9463	0.5618	0.96074	-0.049
Mof_N 	N 	0.4391	0.507	0.89741	-0.201
Mof_N 	N 	0.13648	0.00126	0.42198	-0.228
Mof_N 	N 	0.0629	0.63613	0.23059	-0.204
Mof_N 	N 	0.93779	0.3407	0.23237	-0.202
Mof_N 	N 	0.62	0.8133	0.47829	-0.159
Mof_N 	N 	0.33022	0.61899	0.24748	-0.207
Mof_N 	N 	0.5609	0.493	0.10259	-0.211
Mof_N 	N 	0.86352	0.99874	0.57802	-0.185
Mof_N 	N 	0.9371	0.36387	0.76941	-0.203
Mof_N 	N 	0.06221	0.6593	0.76763	-0.217
Mof_N 	N 	0.38	0.1867	0.52171	-0.165
Mof_N 	N 	0.66978	0.38101	0.75252	-0.207
Mof_O 	O 	0.12368	0.50655	0.34214	-0.358
Mof_O 	O 	0.0256	0.19191	0.49797	-0.361
Mof_O 	O 	0.15322	0.34796	0.38138	-0.275
Mof_O 	O 	0.88631	0.19187	0.42159	-0.281
Mof_O 	O 	0.15044	0.44396	0.13954	-0.355
Mof_O 	O 	0.0896	0.2674	0.07721	-0.271
Mof_O 	O 	0.31887	0.50349	0.02765	-0.357
Mof_O 	O 	0.32552	0.6953	0.035	-0.281
Mof_O 	O 	0.87632	0.49345	0.65786	-0.352
Mof_O 	O 	0.9744	0.80809	0.50203	-0.321
Mof_O 	O 	0.84678	0.65204	0.61862	-0.264
Mof_O 	O 	0.11369	0.80813	0.57841	-0.273
Mof_O 	O 	0.84956	0.55604	0.86046	-0.352
Mof_O 	O 	0.9104	0.7326	0.92279	-0.24
Mof_O 	O 	0.68113	0.49651	0.97235	-0.333
Mof_O 	O 	0.67448	0.3047	0.965	-0.262
_end
