data_functionalizedCrystal
_audit_creation_method	'EQeq! by Chris Wilmer'
_symmetry_space_group_name_H-M	'P1'
_symmetry_Int_Tables_number	1
_symmetry_cell_setting	triclinic
loop_
_symmetry_equiv_pos_as_xyz
  x,y,z
_cell_length_a	13.5874
_cell_length_b	13.5874
_cell_length_c	25.7243
_cell_angle_alpha	83.8019
_cell_angle_beta	75.0966
_cell_angle_gamma	107.979
loop_
_atom_site_label
_atom_site_type_symbol
_atom_site_fract_x
_atom_site_fract_y
_atom_site_fract_z
_atom_site_charge
Mof_Zn	Zn	0.67495	0.88669	0.05254	1.225
Mof_Zn	Zn	0.23529	0.82606	0.08705	1.225
Mof_Zn	Zn	0.49056	0.09265	0.12821	1.218
Mof_Zn	Zn	0.43923	0.72749	0.44746	1.222
Mof_Zn	Zn	0.41311	0.32234	0.41295	1.224
Mof_Zn	Zn	0.72086	0.61877	0.37179	1.223
Mof_Zn	Zn	0.32505	0.11331	0.94746	1.219
Mof_Zn	Zn	0.76471	0.17394	0.91295	1.225
Mof_Zn	Zn	0.50944	0.90735	0.87179	1.23
Mof_Zn	Zn	0.56077	0.27251	0.55254	1.222
Mof_Zn	Zn	0.58689	0.67766	0.58705	1.226
Mof_Zn	Zn	0.27914	0.38123	0.62821	1.224
Mof_Zn	Zn	0.5	0	-0	1.214
Mof_Zn	Zn	0.5	0.5	0.5	1.23
Mof_Cd	Cd	0.86747	0.7392	0.18309	0.435
Mof_Cd	Cd	0.42229	0.05056	0.31691	0.403
Mof_Cd	Cd	0.13253	0.2608	0.81691	0.427
Mof_Cd	Cd	0.57771	0.94944	0.68309	0.459
Mof_P 	P 	0.43933	0.85458	0.12305	0.44
Mof_P 	P 	0.70739	0.12708	0.04087	0.423
Mof_P 	P 	0.6932	0.92915	0.92779	0.462
Mof_P 	P 	0.47763	0.56238	0.37695	0.439
Mof_P 	P 	0.66795	0.74826	0.45913	0.438
Mof_P 	P 	0.35694	0.62099	0.57221	0.438
Mof_P 	P 	0.56067	0.14542	0.87695	0.438
Mof_P 	P 	0.29261	0.87292	0.95913	0.448
Mof_P 	P 	0.3068	0.07085	0.07221	0.409
Mof_P 	P 	0.52237	0.43762	0.62305	0.439
Mof_P 	P 	0.33205	0.25174	0.54087	0.435
Mof_P 	P 	0.64306	0.37901	0.42779	0.436
Mof_H 	H 	0.0438	0.4881	0.1509	0.046
Mof_H 	H 	0.1343	0.4683	0.1742	0.039
Mof_H 	H 	0.2143	0.49	0.0809	0.054
Mof_H 	H 	0.1691	0.5806	0.0667	0.059
Mof_H 	H 	0.3357	0.598	0.1181	0.051
Mof_H 	H 	0.3455	0.6756	0.0651	0.024
Mof_H 	H 	0.3418	0.6935	0.1849	0.127
Mof_H 	H 	0.2794	0.7726	0.1962	0.107
Mof_H 	H 	0.1333	0.6108	0.2105	0.08
Mof_H 	H 	0.6947	0.3087	0.1674	0.085
Mof_H 	H 	0.5169	0.3643	0.19	0.041
Mof_H 	H 	0.6331	0.4403	0.1524	0.042
Mof_H 	H 	0.5426	0.433	0.0886	0.061
Mof_H 	H 	0.4632	0.3159	0.1163	0.064
Mof_H 	H 	0.5904	0.2909	0.0425	0.027
Mof_H 	H 	0.6885	0.3763	0.0532	0.048
Mof_H 	H 	0.7317	0.1689	0.1234	0.098
Mof_H 	H 	0.7864	0.2712	0.0768	0.124
Mof_H 	H 	0.8665	0.7697	0.9932	0.087
Mof_H 	H 	0.8041	0.592	0.0043	0.061
Mof_H 	H 	0.7121	0.5778	0.0595	0.07
Mof_H 	H 	0.7007	0.6202	0.9513	0.016
Mof_H 	H 	0.6087	0.539	0.0023	-0.005
Mof_H 	H 	0.5684	0.6717	0.0411	0.062
Mof_H 	H 	0.5851	0.7104	0.9783	0.086
Mof_H 	H 	0.7754	0.8018	0.9186	0.13
Mof_H 	H 	0.845	0.8949	0.9397	0.116
Mof_H 	H 	0.139	0.1947	0.3491	0.041
Mof_H 	H 	0.1425	0.3085	0.3258	0.038
Mof_H 	H 	0.0709	0.2952	0.4191	0.057
Mof_H 	H 	0.1473	0.2358	0.4333	0.059
Mof_H 	H 	0.2161	0.4538	0.3819	0.054
Mof_H 	H 	0.2407	0.4106	0.4349	0.028
Mof_H 	H 	0.3784	0.5267	0.3151	0.126
Mof_H 	H 	0.4688	0.4756	0.3038	0.104
Mof_H 	H 	0.3213	0.3438	0.2895	0.08
Mof_H 	H 	0.9761	0.8621	0.3326	0.094
Mof_H 	H 	0.0543	0.7069	0.31	0.039
Mof_H 	H 	0.0927	0.7855	0.3476	0.044
Mof_H 	H 	0.0216	0.6312	0.4114	0.069
Mof_H 	H 	0.9322	0.5795	0.3837	0.068
Mof_H 	H 	0.8334	0.6329	0.4575	0.027
Mof_H 	H 	0.9295	0.7417	0.4468	0.051
Mof_H 	H 	0.7923	0.8551	0.3766	0.111
Mof_H 	H 	0.848	0.8632	0.4232	0.135
Mof_H 	H 	0.2629	0.8597	0.5068	0.081
Mof_H 	H 	0.0963	0.8084	0.4957	0.051
Mof_H 	H 	0.1373	0.7716	0.4405	0.053
Mof_H 	H 	0.0715	0.652	0.5487	0.054
Mof_H 	H 	0.0413	0.611	0.4977	0.046
Mof_H 	H 	0.2128	0.6095	0.4589	0.034
Mof_H 	H 	0.1887	0.5634	0.5217	0.048
Mof_H 	H 	0.2204	0.694	0.5814	0.129
Mof_H 	H 	0.3346	0.7847	0.5603	0.111
Mof_H 	H 	0.9562	0.5119	0.8491	0.049
Mof_H 	H 	0.8657	0.5317	0.8258	0.042
Mof_H 	H 	0.7857	0.51	0.9191	0.062
Mof_H 	H 	0.8309	0.4194	0.9333	0.064
Mof_H 	H 	0.6643	0.402	0.8819	0.056
Mof_H 	H 	0.6545	0.3244	0.9349	0.033
Mof_H 	H 	0.6582	0.3065	0.8151	0.125
Mof_H 	H 	0.7206	0.2274	0.8038	0.101
Mof_H 	H 	0.8667	0.3892	0.7895	0.079
Mof_H 	H 	0.3053	0.6913	0.8326	0.088
Mof_H 	H 	0.4831	0.6357	0.81	0.042
Mof_H 	H 	0.3669	0.5597	0.8476	0.045
Mof_H 	H 	0.4574	0.567	0.9114	0.061
Mof_H 	H 	0.5368	0.6841	0.8837	0.064
Mof_H 	H 	0.4096	0.7091	0.9575	0.032
Mof_H 	H 	0.3115	0.6237	0.9468	0.056
Mof_H 	H 	0.2683	0.8311	0.8766	0.111
Mof_H 	H 	0.2136	0.7288	0.9232	0.133
Mof_H 	H 	0.1335	0.2303	0.0068	0.062
Mof_H 	H 	0.1959	0.408	0.9957	0.028
Mof_H 	H 	0.2879	0.4222	0.9405	0.028
Mof_H 	H 	0.2993	0.3798	0.0487	0.091
Mof_H 	H 	0.3913	0.461	0.9977	0.097
Mof_H 	H 	0.4316	0.3283	0.9589	0.004
Mof_H 	H 	0.4149	0.2896	0.0217	0.008
Mof_H 	H 	0.2246	0.1982	0.0814	0.121
Mof_H 	H 	0.155	0.1051	0.0603	0.095
Mof_H 	H 	0.861	0.8053	0.6509	0.054
Mof_H 	H 	0.8575	0.6915	0.6742	0.044
Mof_H 	H 	0.9291	0.7048	0.5809	0.058
Mof_H 	H 	0.8527	0.7642	0.5667	0.064
Mof_H 	H 	0.7839	0.5462	0.6181	0.053
Mof_H 	H 	0.7593	0.5894	0.5651	0.028
Mof_H 	H 	0.6216	0.4733	0.6849	0.125
Mof_H 	H 	0.5312	0.5244	0.6962	0.104
Mof_H 	H 	0.6787	0.6562	0.7105	0.079
Mof_H 	H 	0.0239	0.1379	0.6674	0.08
Mof_H 	H 	0.9457	0.2931	0.69	0.042
Mof_H 	H 	0.9073	0.2145	0.6524	0.042
Mof_H 	H 	0.9784	0.3688	0.5886	0.057
Mof_H 	H 	0.0678	0.4205	0.6163	0.062
Mof_H 	H 	0.1666	0.3671	0.5425	0.031
Mof_H 	H 	0.0705	0.2583	0.5532	0.052
Mof_H 	H 	0.2077	0.1449	0.6234	0.098
Mof_H 	H 	0.152	0.1368	0.5768	0.121
Mof_H 	H 	0.7371	0.1403	0.4932	0.07
Mof_H 	H 	0.9037	0.1916	0.5043	0.039
Mof_H 	H 	0.8627	0.2284	0.5595	0.046
Mof_H 	H 	0.9285	0.348	0.4513	0.052
Mof_H 	H 	0.9587	0.389	0.5023	0.045
Mof_H 	H 	0.7872	0.3905	0.5411	0.033
Mof_H 	H 	0.8113	0.4366	0.4783	0.047
Mof_H 	H 	0.7796	0.306	0.4186	0.123
Mof_H 	H 	0.6654	0.2153	0.4397	0.101
Mof_C 	C 	0.1183	0.5189	0.1512	-0.04
Mof_C 	C 	0.1974	0.55	0.0928	-0.126
Mof_C 	C 	0.2965	0.6319	0.1002	-0.062
Mof_C 	C 	0.3193	0.746	0.1675	-0.276
Mof_C 	C 	0.1358	0.6224	0.1718	-0.141
Mof_C 	C 	0.0507	0.6684	0.1645	0.316
Mof_C 	C 	0.5458	0.1951	0.2129	0.316
Mof_C 	C 	0.6214	0.2819	0.1639	-0.145
Mof_C 	C 	0.5767	0.3723	0.1576	-0.037
Mof_C 	C 	0.5375	0.3643	0.1068	-0.137
Mof_C 	C 	0.618	0.3214	0.0706	-0.055
Mof_C 	C 	0.7221	0.2081	0.0924	-0.275
Mof_C 	C 	0.8011	0.7634	0.0763	0.316
Mof_C 	C 	0.7939	0.7394	0.0201	-0.128
Mof_C 	C 	0.7471	0.6173	0.022	-0.127
Mof_C 	C 	0.6656	0.6081	0.9905	0.038
Mof_C 	C 	0.6203	0.6933	0.0046	-0.172
Mof_C 	C 	0.7714	0.8492	0.944	-0.266
Mof_C 	C 	0.1701	0.2695	0.3488	-0.038
Mof_C 	C 	0.1428	0.2902	0.4072	-0.127
Mof_C 	C 	0.2321	0.3967	0.3998	-0.063
Mof_C 	C 	0.4135	0.4868	0.3325	-0.275
Mof_C 	C 	0.2942	0.3076	0.3282	-0.143
Mof_C 	C 	0.3329	0.2152	0.3355	0.314
Mof_C 	C 	0.908	0.7587	0.2871	0.318
Mof_C 	C 	0.9458	0.7853	0.3361	-0.151
Mof_C 	C 	0.0299	0.7343	0.3424	-0.023
Mof_C 	C 	0.9711	0.6443	0.3932	-0.153
Mof_C 	C 	0.892	0.6886	0.4294	-0.051
Mof_C 	C 	0.8005	0.8145	0.4076	-0.282
Mof_C 	C 	0.3397	0.8774	0.4237	0.317
Mof_C 	C 	0.2595	0.814	0.4799	-0.126
Mof_C 	C 	0.1393	0.7691	0.478	-0.06
Mof_C 	C 	0.0986	0.6561	0.5095	-0.093
Mof_C 	C 	0.1979	0.6249	0.4954	-0.072
Mof_C 	C 	0.2932	0.7154	0.556	-0.271
Mof_C 	C 	0.8817	0.4811	0.8488	-0.042
Mof_C 	C 	0.8026	0.45	0.9072	-0.126
Mof_C 	C 	0.7035	0.3681	0.8998	-0.064
Mof_C 	C 	0.6807	0.254	0.8325	-0.274
Mof_C 	C 	0.8642	0.3776	0.8282	-0.139
Mof_C 	C 	0.9493	0.3316	0.8355	0.31
Mof_C 	C 	0.4542	0.8049	0.7871	0.314
Mof_C 	C 	0.3786	0.7181	0.8361	-0.142
Mof_C 	C 	0.4233	0.6277	0.8424	-0.039
Mof_C 	C 	0.4625	0.6357	0.8932	-0.133
Mof_C 	C 	0.382	0.6786	0.9294	-0.061
Mof_C 	C 	0.2779	0.7919	0.9076	-0.281
Mof_C 	C 	0.1989	0.2366	0.9237	0.32
Mof_C 	C 	0.2061	0.2606	0.9799	-0.127
Mof_C 	C 	0.2529	0.3827	0.978	0.015
Mof_C 	C 	0.3344	0.3919	0.0095	-0.231
Mof_C 	C 	0.3797	0.3067	0.9954	0.034
Mof_C 	C 	0.2286	0.1508	0.056	-0.271
Mof_C 	C 	0.8299	0.7305	0.6512	-0.045
Mof_C 	C 	0.8572	0.7098	0.5928	-0.124
Mof_C 	C 	0.7679	0.6033	0.6002	-0.063
Mof_C 	C 	0.5865	0.5132	0.6675	-0.275
Mof_C 	C 	0.7058	0.6924	0.6718	-0.137
Mof_C 	C 	0.6671	0.7848	0.6645	0.311
Mof_C 	C 	0.092	0.2413	0.7129	0.313
Mof_C 	C 	0.0542	0.2147	0.6639	-0.14
Mof_C 	C 	0.9701	0.2657	0.6576	-0.045
Mof_C 	C 	0.0289	0.3557	0.6068	-0.126
Mof_C 	C 	0.108	0.3114	0.5706	-0.061
Mof_C 	C 	0.1995	0.1855	0.5924	-0.275
Mof_C 	C 	0.6603	0.1226	0.5763	0.319
Mof_C 	C 	0.7405	0.186	0.5201	-0.13
Mof_C 	C 	0.8607	0.2309	0.522	-0.054
Mof_C 	C 	0.9014	0.3439	0.4905	-0.097
Mof_C 	C 	0.8021	0.3751	0.5046	-0.07
Mof_C 	C 	0.7068	0.2846	0.444	-0.266
Mof_N 	N 	0.2478	0.6965	0.1361	-0.155
Mof_N 	N 	0.7196	0.7867	0.0015	-0.157
Mof_N 	N 	0.624	0.2391	0.1117	-0.154
Mof_N 	N 	0.3326	0.3839	0.3639	-0.155
Mof_N 	N 	0.2882	0.7211	0.4985	-0.162
Mof_N 	N 	0.8508	0.7357	0.3883	-0.152
Mof_N 	N 	0.7522	0.3035	0.8639	-0.155
Mof_N 	N 	0.2804	0.2133	0.9985	-0.167
Mof_N 	N 	0.376	0.7609	0.8883	-0.151
Mof_N 	N 	0.6674	0.6161	0.6361	-0.156
Mof_N 	N 	0.7118	0.2789	0.5015	-0.163
Mof_N 	N 	0.1492	0.2643	0.6117	-0.154
Mof_O 	O 	0.53326	0.8136	0.10714	-0.438
Mof_O 	O 	0.40621	0.8861	0.07229	-0.553
Mof_O 	O 	0.4617	0.941	0.1559	-0.418
Mof_O 	O 	0.07496	0.754	0.13124	-0.406
Mof_O 	O 	0.95363	0.6183	0.19467	-0.268
Mof_O 	O 	0.47726	0.1131	0.20644	-0.434
Mof_O 	O 	0.5538	0.2084	0.2594	-0.277
Mof_O 	O 	0.58398	0.0862	0.04842	-0.57
Mof_O 	O 	0.74946	0.0377	0.05344	-0.459
Mof_O 	O 	0.77419	0.1989	0.98491	-0.43
Mof_O 	O 	0.8498	0.7141	0.0989	-0.281
Mof_O 	O 	0.76152	0.8281	0.09538	-0.414
Mof_O 	O 	0.77801	0.0384	0.89699	-0.451
Mof_O 	O 	0.62779	0.8779	0.89191	-0.442
Mof_O 	O 	0.622	0.9329	0.9845	-0.536
Mof_O 	O 	0.42074	0.6404	0.39286	-0.439
Mof_O 	O 	0.45839	0.4785	0.42771	-0.563
Mof_O 	O 	0.5969	0.6176	0.3441	-0.437
Mof_O 	O 	0.38524	0.2062	0.36876	-0.413
Mof_O 	O 	0.31297	0.1483	0.30533	-0.271
Mof_O 	O 	0.81954	0.6837	0.29356	-0.425
Mof_O 	O 	0.9678	0.8132	0.2406	-0.271
Mof_O 	O 	0.63462	0.6324	0.45158	-0.558
Mof_O 	O 	0.59114	0.8029	0.44656	-0.431
Mof_O 	O 	0.68381	0.7591	0.51509	-0.436
Mof_O 	O 	0.313	0.9487	0.4011	-0.26
Mof_O 	O 	0.42348	0.8569	0.40462	-0.412
Mof_O 	O 	0.43539	0.675	0.60301	-0.424
Mof_O 	O 	0.26981	0.5197	0.60809	-0.445
Mof_O 	O 	0.4174	0.6065	0.5155	-0.556
Mof_O 	O 	0.46674	0.1864	0.89286	-0.442
Mof_O 	O 	0.59379	0.1139	0.92771	-0.567
Mof_O 	O 	0.5383	0.059	0.8441	-0.458
Mof_O 	O 	0.92504	0.246	0.86876	-0.409
Mof_O 	O 	0.04637	0.3817	0.80533	-0.262
Mof_O 	O 	0.52274	0.8869	0.79356	-0.415
Mof_O 	O 	0.4462	0.7916	0.7406	-0.271
Mof_O 	O 	0.41602	0.9138	0.95158	-0.541
Mof_O 	O 	0.25054	0.9623	0.94656	-0.415
Mof_O 	O 	0.22581	0.8011	0.01509	-0.447
Mof_O 	O 	0.1502	0.2859	0.9011	-0.281
Mof_O 	O 	0.23848	0.1719	0.90462	-0.429
Mof_O 	O 	0.22199	0.9616	0.10301	-0.398
Mof_O 	O 	0.37221	0.1221	0.10809	-0.45
Mof_O 	O 	0.378	0.0671	0.0155	-0.573
Mof_O 	O 	0.57926	0.3596	0.60714	-0.442
Mof_O 	O 	0.54161	0.5215	0.57229	-0.563
Mof_O 	O 	0.4031	0.3824	0.6559	-0.44
Mof_O 	O 	0.61476	0.7938	0.63124	-0.403
Mof_O 	O 	0.68703	0.8517	0.69467	-0.258
Mof_O 	O 	0.18046	0.3163	0.70644	-0.425
Mof_O 	O 	0.0322	0.1868	0.7594	-0.279
Mof_O 	O 	0.36538	0.3676	0.54842	-0.558
Mof_O 	O 	0.40886	0.1971	0.55344	-0.443
Mof_O 	O 	0.31619	0.2409	0.48491	-0.443
Mof_O 	O 	0.687	0.0513	0.5989	-0.301
Mof_O 	O 	0.57652	0.1431	0.59538	-0.431
Mof_O 	O 	0.56461	0.325	0.39699	-0.428
Mof_O 	O 	0.73019	0.4803	0.39191	-0.446
Mof_O 	O 	0.5826	0.3935	0.4845	-0.556
_end
