data_functionalizedCrystal
_audit_creation_method	'EQeq! by Chris Wilmer'
_symmetry_space_group_name_H-M	'P1'
_symmetry_Int_Tables_number	1
_symmetry_cell_setting	triclinic
loop_
_symmetry_equiv_pos_as_xyz
  x,y,z
_cell_length_a	18.45
_cell_length_b	18.45
_cell_length_c	23.201
_cell_angle_alpha	90
_cell_angle_beta	90
_cell_angle_gamma	90
loop_
_atom_site_label
_atom_site_type_symbol
_atom_site_fract_x
_atom_site_fract_y
_atom_site_fract_z
_atom_site_charge
Mof_Zn	Zn	0.73032	0.72482	0.97313	1.238
Mof_C 	C 	0.5453	0.735	0.8528	-0.075
Mof_C 	C 	0.5029	0.7311	0.9035	0.039
Mof_H 	H 	0.5256	0.7326	0.9393	0.046
Mof_C 	C 	0.4284	0.7251	0.9008	-0.101
Mof_C 	C 	0.3946	0.7247	0.8484	0.065
Mof_H 	H 	0.3443	0.7214	0.8467	0.044
Mof_C 	C 	0.4342	0.729	0.7976	-0.134
Mof_C 	C 	0.509	0.7334	0.8006	0.057
Mof_H 	H 	0.5355	0.7354	0.7666	0.043
Mof_C 	C 	0.3866	0.723	0.9562	0.343
Mof_C 	C 	0.3948	0.7283	0.741	0.43
Mof_O 	O 	0.6587	0.8222	0.8619	-0.47
Mof_O 	O 	0.6636	0.7024	0.9135	-0.446
Mof_O 	O 	0.6727	0.7071	0.8047	-0.428
Mof_O 	O 	0.3177	0.7214	0.9509	-0.428
Mof_O 	O 	0.4173	0.7274	0.0021	-0.3
Mof_O 	O 	0.3292	0.7203	0.7424	-0.519
Mof_O 	O 	0.4322	0.7396	0.6957	-0.459
Mof_P 	P 	0.64134	0.74269	0.85834	0.444
Mof_Zn	Zn	0.23032	0.22482	0.47313	1.238
Mof_C 	C 	0.0453	0.235	0.3528	-0.075
Mof_C 	C 	0.0029	0.2311	0.4035	0.039
Mof_H 	H 	0.0256	0.2326	0.4393	0.046
Mof_C 	C 	0.9284	0.2251	0.4008	-0.101
Mof_C 	C 	0.8946	0.2247	0.3484	0.065
Mof_H 	H 	0.8443	0.2214	0.3467	0.044
Mof_C 	C 	0.9342	0.229	0.2976	-0.134
Mof_C 	C 	0.009	0.2334	0.3006	0.057
Mof_H 	H 	0.0355	0.2354	0.2666	0.043
Mof_C 	C 	0.8866	0.223	0.4562	0.342
Mof_C 	C 	0.8948	0.2283	0.241	0.43
Mof_O 	O 	0.1587	0.3222	0.3619	-0.47
Mof_O 	O 	0.1636	0.2024	0.4135	-0.446
Mof_O 	O 	0.1727	0.2071	0.3047	-0.428
Mof_O 	O 	0.8177	0.2214	0.4509	-0.428
Mof_O 	O 	0.9173	0.2274	0.5021	-0.3
Mof_O 	O 	0.8292	0.2203	0.2424	-0.519
Mof_O 	O 	0.9322	0.2396	0.1957	-0.459
Mof_P 	P 	0.14134	0.24269	0.35834	0.444
Mof_Zn	Zn	0.26968	0.27518	0.97313	1.238
Mof_C 	C 	0.4547	0.265	0.8528	-0.075
Mof_C 	C 	0.4971	0.2689	0.9035	0.039
Mof_H 	H 	0.4744	0.2674	0.9393	0.046
Mof_C 	C 	0.5716	0.2749	0.9008	-0.101
Mof_C 	C 	0.6054	0.2753	0.8484	0.065
Mof_H 	H 	0.6557	0.2786	0.8467	0.044
Mof_C 	C 	0.5658	0.271	0.7976	-0.134
Mof_C 	C 	0.491	0.2666	0.8006	0.057
Mof_H 	H 	0.4645	0.2646	0.7666	0.043
Mof_C 	C 	0.6134	0.277	0.9562	0.343
Mof_C 	C 	0.6052	0.2717	0.741	0.43
Mof_O 	O 	0.3413	0.1778	0.8619	-0.47
Mof_O 	O 	0.3364	0.2976	0.9135	-0.446
Mof_O 	O 	0.3273	0.2929	0.8047	-0.428
Mof_O 	O 	0.6823	0.2786	0.9509	-0.428
Mof_O 	O 	0.5827	0.2726	0.0021	-0.3
Mof_O 	O 	0.6708	0.2797	0.7424	-0.519
Mof_O 	O 	0.5678	0.2604	0.6957	-0.459
Mof_P 	P 	0.35866	0.25731	0.85834	0.444
Mof_Zn	Zn	0.76968	0.77518	0.47313	1.238
Mof_C 	C 	0.9547	0.765	0.3528	-0.075
Mof_C 	C 	0.9971	0.7689	0.4035	0.039
Mof_H 	H 	0.9744	0.7674	0.4393	0.046
Mof_C 	C 	0.0716	0.7749	0.4008	-0.101
Mof_C 	C 	0.1054	0.7753	0.3484	0.065
Mof_H 	H 	0.1557	0.7786	0.3467	0.044
Mof_C 	C 	0.0658	0.771	0.2976	-0.134
Mof_C 	C 	0.991	0.7666	0.3006	0.057
Mof_H 	H 	0.9645	0.7646	0.2666	0.043
Mof_C 	C 	0.1134	0.777	0.4562	0.342
Mof_C 	C 	0.1052	0.7717	0.241	0.43
Mof_O 	O 	0.8413	0.6778	0.3619	-0.47
Mof_O 	O 	0.8364	0.7976	0.4135	-0.446
Mof_O 	O 	0.8273	0.7929	0.3047	-0.428
Mof_O 	O 	0.1823	0.7786	0.4509	-0.428
Mof_O 	O 	0.0827	0.7726	0.5021	-0.3
Mof_O 	O 	0.1708	0.7797	0.2424	-0.519
Mof_O 	O 	0.0678	0.7604	0.1957	-0.459
Mof_P 	P 	0.85866	0.75731	0.35834	0.444
Mof_Zn	Zn	0.72482	0.26968	0.02687	1.238
Mof_C 	C 	0.735	0.4547	0.1472	-0.075
Mof_C 	C 	0.7311	0.4971	0.0965	0.039
Mof_H 	H 	0.7326	0.4744	0.0607	0.046
Mof_C 	C 	0.7251	0.5716	0.0992	-0.101
Mof_C 	C 	0.7247	0.6054	0.1516	0.065
Mof_H 	H 	0.7214	0.6557	0.1533	0.044
Mof_C 	C 	0.729	0.5658	0.2024	-0.134
Mof_C 	C 	0.7334	0.491	0.1994	0.057
Mof_H 	H 	0.7354	0.4645	0.2334	0.043
Mof_C 	C 	0.723	0.6134	0.0438	0.343
Mof_C 	C 	0.7283	0.6052	0.259	0.43
Mof_O 	O 	0.8222	0.3413	0.1381	-0.47
Mof_O 	O 	0.7024	0.3364	0.0865	-0.446
Mof_O 	O 	0.7071	0.3273	0.1953	-0.428
Mof_O 	O 	0.7214	0.6823	0.0491	-0.428
Mof_O 	O 	0.7274	0.5827	0.9979	-0.3
Mof_O 	O 	0.7203	0.6708	0.2576	-0.519
Mof_O 	O 	0.7396	0.5678	0.3043	-0.459
Mof_P 	P 	0.74269	0.35866	0.14166	0.444
Mof_Zn	Zn	0.22482	0.76968	0.52687	1.238
Mof_C 	C 	0.235	0.9547	0.6472	-0.075
Mof_C 	C 	0.2311	0.9971	0.5965	0.039
Mof_H 	H 	0.2326	0.9744	0.5607	0.046
Mof_C 	C 	0.2251	0.0716	0.5992	-0.101
Mof_C 	C 	0.2247	0.1054	0.6516	0.065
Mof_H 	H 	0.2214	0.1557	0.6533	0.044
Mof_C 	C 	0.229	0.0658	0.7024	-0.134
Mof_C 	C 	0.2334	0.991	0.6994	0.057
Mof_H 	H 	0.2354	0.9645	0.7334	0.043
Mof_C 	C 	0.223	0.1134	0.5438	0.342
Mof_C 	C 	0.2283	0.1052	0.759	0.43
Mof_O 	O 	0.3222	0.8413	0.6381	-0.47
Mof_O 	O 	0.2024	0.8364	0.5865	-0.446
Mof_O 	O 	0.2071	0.8273	0.6953	-0.428
Mof_O 	O 	0.2214	0.1823	0.5491	-0.428
Mof_O 	O 	0.2274	0.0827	0.4979	-0.3
Mof_O 	O 	0.2203	0.1708	0.7576	-0.519
Mof_O 	O 	0.2396	0.0678	0.8043	-0.459
Mof_P 	P 	0.24269	0.85866	0.64166	0.444
Mof_Zn	Zn	0.27518	0.73032	0.02687	1.238
Mof_C 	C 	0.265	0.5453	0.1472	-0.075
Mof_C 	C 	0.2689	0.5029	0.0965	0.039
Mof_H 	H 	0.2674	0.5256	0.0607	0.046
Mof_C 	C 	0.2749	0.4284	0.0992	-0.101
Mof_C 	C 	0.2753	0.3946	0.1516	0.065
Mof_H 	H 	0.2786	0.3443	0.1533	0.044
Mof_C 	C 	0.271	0.4342	0.2024	-0.134
Mof_C 	C 	0.2666	0.509	0.1994	0.057
Mof_H 	H 	0.2646	0.5355	0.2334	0.043
Mof_C 	C 	0.277	0.3866	0.0438	0.343
Mof_C 	C 	0.2717	0.3948	0.259	0.43
Mof_O 	O 	0.1778	0.6587	0.1381	-0.47
Mof_O 	O 	0.2976	0.6636	0.0865	-0.446
Mof_O 	O 	0.2929	0.6727	0.1953	-0.428
Mof_O 	O 	0.2786	0.3177	0.0491	-0.428
Mof_O 	O 	0.2726	0.4173	0.9979	-0.3
Mof_O 	O 	0.2797	0.3292	0.2576	-0.519
Mof_O 	O 	0.2604	0.4322	0.3043	-0.459
Mof_P 	P 	0.25731	0.64134	0.14166	0.444
Mof_Zn	Zn	0.77518	0.23032	0.52687	1.238
Mof_C 	C 	0.765	0.0453	0.6472	-0.075
Mof_C 	C 	0.7689	0.0029	0.5965	0.039
Mof_H 	H 	0.7674	0.0256	0.5607	0.046
Mof_C 	C 	0.7749	0.9284	0.5992	-0.101
Mof_C 	C 	0.7753	0.8946	0.6516	0.065
Mof_H 	H 	0.7786	0.8443	0.6533	0.044
Mof_C 	C 	0.771	0.9342	0.7024	-0.134
Mof_C 	C 	0.7666	0.009	0.6994	0.057
Mof_H 	H 	0.7646	0.0355	0.7334	0.043
Mof_C 	C 	0.777	0.8866	0.5438	0.342
Mof_C 	C 	0.7717	0.8948	0.759	0.43
Mof_O 	O 	0.6778	0.1587	0.6381	-0.47
Mof_O 	O 	0.7976	0.1636	0.5865	-0.446
Mof_O 	O 	0.7929	0.1727	0.6953	-0.428
Mof_O 	O 	0.7786	0.8177	0.5491	-0.428
Mof_O 	O 	0.7726	0.9173	0.4979	-0.3
Mof_O 	O 	0.7797	0.8292	0.7576	-0.519
Mof_O 	O 	0.7604	0.9322	0.8043	-0.459
Mof_P 	P 	0.75731	0.14134	0.64166	0.444
Mof_Zn	Zn	0.76968	0.72482	0.77687	1.238
Mof_C 	C 	0.9547	0.735	0.8972	-0.075
Mof_C 	C 	0.9971	0.7311	0.8465	0.039
Mof_H 	H 	0.9744	0.7326	0.8107	0.046
Mof_C 	C 	0.0716	0.7251	0.8492	-0.101
Mof_C 	C 	0.1054	0.7247	0.9016	0.065
Mof_H 	H 	0.1557	0.7214	0.9033	0.044
Mof_C 	C 	0.0658	0.729	0.9524	-0.134
Mof_C 	C 	0.991	0.7334	0.9494	0.057
Mof_H 	H 	0.9645	0.7354	0.9834	0.043
Mof_C 	C 	0.1134	0.723	0.7938	0.342
Mof_C 	C 	0.1052	0.7283	0.009	0.43
Mof_O 	O 	0.8413	0.8222	0.8881	-0.47
Mof_O 	O 	0.8364	0.7024	0.8365	-0.446
Mof_O 	O 	0.8273	0.7071	0.9453	-0.428
Mof_O 	O 	0.1823	0.7214	0.7991	-0.428
Mof_O 	O 	0.0827	0.7274	0.7479	-0.3
Mof_O 	O 	0.1708	0.7203	0.0076	-0.519
Mof_O 	O 	0.0678	0.7396	0.0543	-0.459
Mof_P 	P 	0.85866	0.74269	0.89166	0.444
Mof_Zn	Zn	0.26968	0.22482	0.27687	1.238
Mof_C 	C 	0.4547	0.235	0.3972	-0.075
Mof_C 	C 	0.4971	0.2311	0.3465	0.039
Mof_H 	H 	0.4744	0.2326	0.3107	0.046
Mof_C 	C 	0.5716	0.2251	0.3492	-0.101
Mof_C 	C 	0.6054	0.2247	0.4016	0.065
Mof_H 	H 	0.6557	0.2214	0.4033	0.044
Mof_C 	C 	0.5658	0.229	0.4524	-0.134
Mof_C 	C 	0.491	0.2334	0.4494	0.057
Mof_H 	H 	0.4645	0.2354	0.4834	0.043
Mof_C 	C 	0.6134	0.223	0.2938	0.343
Mof_C 	C 	0.6052	0.2283	0.509	0.43
Mof_O 	O 	0.3413	0.3222	0.3881	-0.47
Mof_O 	O 	0.3364	0.2024	0.3365	-0.446
Mof_O 	O 	0.3273	0.2071	0.4453	-0.428
Mof_O 	O 	0.6823	0.2214	0.2991	-0.428
Mof_O 	O 	0.5827	0.2274	0.2479	-0.3
Mof_O 	O 	0.6708	0.2203	0.5076	-0.519
Mof_O 	O 	0.5678	0.2396	0.5543	-0.459
Mof_P 	P 	0.35866	0.24269	0.39166	0.444
Mof_Zn	Zn	0.23032	0.27518	0.77687	1.238
Mof_C 	C 	0.0453	0.265	0.8972	-0.075
Mof_C 	C 	0.0029	0.2689	0.8465	0.039
Mof_H 	H 	0.0256	0.2674	0.8107	0.046
Mof_C 	C 	0.9284	0.2749	0.8492	-0.101
Mof_C 	C 	0.8946	0.2753	0.9016	0.065
Mof_H 	H 	0.8443	0.2786	0.9033	0.044
Mof_C 	C 	0.9342	0.271	0.9524	-0.134
Mof_C 	C 	0.009	0.2666	0.9494	0.057
Mof_H 	H 	0.0355	0.2646	0.9834	0.043
Mof_C 	C 	0.8866	0.277	0.7938	0.342
Mof_C 	C 	0.8948	0.2717	0.009	0.43
Mof_O 	O 	0.1587	0.1778	0.8881	-0.47
Mof_O 	O 	0.1636	0.2976	0.8365	-0.446
Mof_O 	O 	0.1727	0.2929	0.9453	-0.428
Mof_O 	O 	0.8177	0.2786	0.7991	-0.428
Mof_O 	O 	0.9173	0.2726	0.7479	-0.3
Mof_O 	O 	0.8292	0.2797	0.0076	-0.519
Mof_O 	O 	0.9322	0.2604	0.0543	-0.459
Mof_P 	P 	0.14134	0.25731	0.89166	0.444
Mof_Zn	Zn	0.73032	0.77518	0.27687	1.238
Mof_C 	C 	0.5453	0.765	0.3972	-0.075
Mof_C 	C 	0.5029	0.7689	0.3465	0.039
Mof_H 	H 	0.5256	0.7674	0.3107	0.046
Mof_C 	C 	0.4284	0.7749	0.3492	-0.101
Mof_C 	C 	0.3946	0.7753	0.4016	0.065
Mof_H 	H 	0.3443	0.7786	0.4033	0.044
Mof_C 	C 	0.4342	0.771	0.4524	-0.134
Mof_C 	C 	0.509	0.7666	0.4494	0.057
Mof_H 	H 	0.5355	0.7646	0.4834	0.043
Mof_C 	C 	0.3866	0.777	0.2938	0.343
Mof_C 	C 	0.3948	0.7717	0.509	0.43
Mof_O 	O 	0.6587	0.6778	0.3881	-0.47
Mof_O 	O 	0.6636	0.7976	0.3365	-0.446
Mof_O 	O 	0.6727	0.7929	0.4453	-0.428
Mof_O 	O 	0.3177	0.7786	0.2991	-0.428
Mof_O 	O 	0.4173	0.7726	0.2479	-0.3
Mof_O 	O 	0.3292	0.7797	0.5076	-0.519
Mof_O 	O 	0.4322	0.7604	0.5543	-0.459
Mof_P 	P 	0.64134	0.75731	0.39166	0.444
Mof_Zn	Zn	0.77518	0.26968	0.72313	1.238
Mof_C 	C 	0.765	0.4547	0.6028	-0.075
Mof_C 	C 	0.7689	0.4971	0.6535	0.039
Mof_H 	H 	0.7674	0.4744	0.6893	0.046
Mof_C 	C 	0.7749	0.5716	0.6508	-0.101
Mof_C 	C 	0.7753	0.6054	0.5984	0.065
Mof_H 	H 	0.7786	0.6557	0.5967	0.044
Mof_C 	C 	0.771	0.5658	0.5476	-0.134
Mof_C 	C 	0.7666	0.491	0.5506	0.057
Mof_H 	H 	0.7646	0.4645	0.5166	0.043
Mof_C 	C 	0.777	0.6134	0.7062	0.343
Mof_C 	C 	0.7717	0.6052	0.491	0.43
Mof_O 	O 	0.6778	0.3413	0.6119	-0.47
Mof_O 	O 	0.7976	0.3364	0.6635	-0.446
Mof_O 	O 	0.7929	0.3273	0.5547	-0.428
Mof_O 	O 	0.7786	0.6823	0.7009	-0.428
Mof_O 	O 	0.7726	0.5827	0.7521	-0.3
Mof_O 	O 	0.7797	0.6708	0.4924	-0.519
Mof_O 	O 	0.7604	0.5678	0.4457	-0.459
Mof_P 	P 	0.75731	0.35866	0.60834	0.444
Mof_Zn	Zn	0.27518	0.76968	0.22313	1.238
Mof_C 	C 	0.265	0.9547	0.1028	-0.075
Mof_C 	C 	0.2689	0.9971	0.1535	0.039
Mof_H 	H 	0.2674	0.9744	0.1893	0.046
Mof_C 	C 	0.2749	0.0716	0.1508	-0.101
Mof_C 	C 	0.2753	0.1054	0.0984	0.065
Mof_H 	H 	0.2786	0.1557	0.0967	0.044
Mof_C 	C 	0.271	0.0658	0.0476	-0.134
Mof_C 	C 	0.2666	0.991	0.0506	0.057
Mof_H 	H 	0.2646	0.9645	0.0166	0.043
Mof_C 	C 	0.277	0.1134	0.2062	0.342
Mof_C 	C 	0.2717	0.1052	0.991	0.43
Mof_O 	O 	0.1778	0.8413	0.1119	-0.47
Mof_O 	O 	0.2976	0.8364	0.1635	-0.446
Mof_O 	O 	0.2929	0.8273	0.0547	-0.428
Mof_O 	O 	0.2786	0.1823	0.2009	-0.428
Mof_O 	O 	0.2726	0.0827	0.2521	-0.3
Mof_O 	O 	0.2797	0.1708	0.9924	-0.519
Mof_O 	O 	0.2604	0.0678	0.9457	-0.459
Mof_P 	P 	0.25731	0.85866	0.10834	0.444
Mof_Zn	Zn	0.22482	0.73032	0.72313	1.238
Mof_C 	C 	0.235	0.5453	0.6028	-0.075
Mof_C 	C 	0.2311	0.5029	0.6535	0.039
Mof_H 	H 	0.2326	0.5256	0.6893	0.046
Mof_C 	C 	0.2251	0.4284	0.6508	-0.101
Mof_C 	C 	0.2247	0.3946	0.5984	0.065
Mof_H 	H 	0.2214	0.3443	0.5967	0.044
Mof_C 	C 	0.229	0.4342	0.5476	-0.134
Mof_C 	C 	0.2334	0.509	0.5506	0.057
Mof_H 	H 	0.2354	0.5355	0.5166	0.043
Mof_C 	C 	0.223	0.3866	0.7062	0.343
Mof_C 	C 	0.2283	0.3948	0.491	0.43
Mof_O 	O 	0.3222	0.6587	0.6119	-0.47
Mof_O 	O 	0.2024	0.6636	0.6635	-0.446
Mof_O 	O 	0.2071	0.6727	0.5547	-0.428
Mof_O 	O 	0.2214	0.3177	0.7009	-0.428
Mof_O 	O 	0.2274	0.4173	0.7521	-0.3
Mof_O 	O 	0.2203	0.3292	0.4924	-0.519
Mof_O 	O 	0.2396	0.4322	0.4457	-0.459
Mof_P 	P 	0.24269	0.64134	0.60834	0.444
Mof_Zn	Zn	0.72482	0.23032	0.22313	1.238
Mof_C 	C 	0.735	0.0453	0.1028	-0.075
Mof_C 	C 	0.7311	0.0029	0.1535	0.039
Mof_H 	H 	0.7326	0.0256	0.1893	0.046
Mof_C 	C 	0.7251	0.9284	0.1508	-0.101
Mof_C 	C 	0.7247	0.8946	0.0984	0.065
Mof_H 	H 	0.7214	0.8443	0.0967	0.044
Mof_C 	C 	0.729	0.9342	0.0476	-0.134
Mof_C 	C 	0.7334	0.009	0.0506	0.057
Mof_H 	H 	0.7354	0.0355	0.0166	0.043
Mof_C 	C 	0.723	0.8866	0.2062	0.342
Mof_C 	C 	0.7283	0.8948	0.991	0.43
Mof_O 	O 	0.8222	0.1587	0.1119	-0.47
Mof_O 	O 	0.7024	0.1636	0.1635	-0.446
Mof_O 	O 	0.7071	0.1727	0.0547	-0.428
Mof_O 	O 	0.7214	0.8177	0.2009	-0.428
Mof_O 	O 	0.7274	0.9173	0.2521	-0.3
Mof_O 	O 	0.7203	0.8292	0.9924	-0.519
Mof_O 	O 	0.7396	0.9322	0.9457	-0.459
Mof_P 	P 	0.74269	0.14134	0.10834	0.444
Mof_Zn	Zn	0.75	0.87295	0.875	1.223
Mof_Zn	Zn	0.25	0.37295	0.375	1.223
Mof_Zn	Zn	0.25	0.12705	0.875	1.223
Mof_Zn	Zn	0.75	0.62705	0.375	1.223
Mof_Zn	Zn	0.87295	0.25	0.125	1.223
Mof_Zn	Zn	0.12705	0.75	0.125	1.223
Mof_Zn	Zn	0.62705	0.25	0.625	1.223
Mof_Zn	Zn	0.37295	0.75	0.625	1.223
_end
