data_functionalizedCrystal
_audit_creation_method	'EQeq! by Chris Wilmer'
_symmetry_space_group_name_H-M	'P1'
_symmetry_Int_Tables_number	1
_symmetry_cell_setting	triclinic
loop_
_symmetry_equiv_pos_as_xyz
  x,y,z
_cell_length_a	11.683
_cell_length_b	16.583
_cell_length_c	22.832
_cell_angle_alpha	90
_cell_angle_beta	90
_cell_angle_gamma	90
loop_
_atom_site_label
_atom_site_type_symbol
_atom_site_fract_x
_atom_site_fract_y
_atom_site_fract_z
_atom_site_charge
Mof_U 	U 	0.20497	0.03435	0.09931	0.035
Mof_O 	O 	0.635	0.1616	0.2691	-0.148
Mof_O 	O 	0.6753	0.0369	0.2968	-0.16
Mof_O 	O 	0.4384	0.1142	0.2111	-0.175
Mof_O 	O 	0.3913	0.0349	0.1364	-0.162
Mof_O 	O 	0.6663	0.9785	0.9846	-0.161
Mof_O 	O 	0.8506	0.9771	0.0031	-0.145
Mof_O 	O 	0.0089	0.037	0.1056	-0.141
Mof_O 	O 	0.9494	0.9105	0.118	-0.161
Mof_C 	C 	0.4638	0.069	0.1685	0.278
Mof_C 	C 	0.5854	0.0532	0.1543	-0.019
Mof_C 	C 	0.6141	0.0271	0.0987	-0.014
Mof_H 	H 	0.5561	0.0225	0.071	0.093
Mof_C 	C 	0.7233	0.0077	0.0824	-0.015
Mof_C 	C 	0.7484	0.9855	0.0214	0.263
Mof_C 	C 	0.8124	0.0124	0.1247	-0.003
Mof_C 	C 	0.9316	0.9836	0.114	0.277
Mof_C 	C 	0.7864	0.0398	0.1804	-0.023
Mof_H 	H 	0.8442	0.0434	0.2083	0.093
Mof_C 	C 	0.6749	0.0623	0.1956	0
Mof_C 	C 	0.6578	0.0896	0.2586	0.278
Mof_U 	U 	0.29503	0.96565	0.59931	0.036
Mof_O 	O 	0.865	0.8384	0.7691	-0.147
Mof_O 	O 	0.8247	0.9631	0.7968	-0.158
Mof_O 	O 	0.0616	0.8858	0.7111	-0.174
Mof_O 	O 	0.1087	0.9651	0.6364	-0.162
Mof_O 	O 	0.8337	0.0215	0.4846	-0.163
Mof_O 	O 	0.6494	0.0229	0.5031	-0.145
Mof_O 	O 	0.4911	0.963	0.6056	-0.143
Mof_O 	O 	0.5506	0.0895	0.618	-0.161
Mof_C 	C 	0.0362	0.931	0.6685	0.277
Mof_C 	C 	0.9146	0.9468	0.6543	-0.018
Mof_C 	C 	0.8859	0.9729	0.5987	-0.013
Mof_H 	H 	0.9439	0.9775	0.571	0.093
Mof_C 	C 	0.7767	0.9923	0.5824	-0.016
Mof_C 	C 	0.7516	0.0145	0.5214	0.266
Mof_C 	C 	0.6876	0.9876	0.6247	-0.004
Mof_C 	C 	0.5684	0.0164	0.614	0.279
Mof_C 	C 	0.7136	0.9602	0.6804	-0.023
Mof_H 	H 	0.6558	0.9566	0.7083	0.093
Mof_C 	C 	0.8251	0.9377	0.6956	0
Mof_C 	C 	0.8422	0.9104	0.7586	0.278
Mof_U 	U 	0.79503	0.53435	0.90069	0.036
Mof_O 	O 	0.365	0.6616	0.7309	-0.147
Mof_O 	O 	0.3247	0.5369	0.7032	-0.159
Mof_O 	O 	0.5616	0.6142	0.7889	-0.174
Mof_O 	O 	0.6087	0.5349	0.8636	-0.163
Mof_O 	O 	0.3337	0.4785	0.0154	-0.163
Mof_O 	O 	0.1494	0.4771	0.9969	-0.145
Mof_O 	O 	0.9911	0.537	0.8944	-0.142
Mof_O 	O 	0.0506	0.4105	0.882	-0.162
Mof_C 	C 	0.5362	0.569	0.8315	0.278
Mof_C 	C 	0.4146	0.5532	0.8457	-0.019
Mof_C 	C 	0.3859	0.5271	0.9013	-0.013
Mof_H 	H 	0.4439	0.5225	0.929	0.093
Mof_C 	C 	0.2767	0.5077	0.9176	-0.017
Mof_C 	C 	0.2516	0.4855	0.9786	0.265
Mof_C 	C 	0.1876	0.5124	0.8753	-0.004
Mof_C 	C 	0.0684	0.4836	0.886	0.278
Mof_C 	C 	0.2136	0.5398	0.8196	-0.023
Mof_H 	H 	0.1558	0.5434	0.7917	0.093
Mof_C 	C 	0.3251	0.5623	0.8044	0
Mof_C 	C 	0.3422	0.5896	0.7414	0.278
Mof_U 	U 	0.70497	0.46565	0.40069	0.036
Mof_O 	O 	0.135	0.3384	0.2309	-0.147
Mof_O 	O 	0.1753	0.4631	0.2032	-0.159
Mof_O 	O 	0.9384	0.3858	0.2889	-0.174
Mof_O 	O 	0.8913	0.4651	0.3636	-0.163
Mof_O 	O 	0.1663	0.5215	0.5154	-0.163
Mof_O 	O 	0.3506	0.5229	0.4969	-0.145
Mof_O 	O 	0.5089	0.463	0.3944	-0.143
Mof_O 	O 	0.4494	0.5895	0.382	-0.161
Mof_C 	C 	0.9638	0.431	0.3315	0.277
Mof_C 	C 	0.0854	0.4468	0.3457	-0.019
Mof_C 	C 	0.1141	0.4729	0.4013	-0.013
Mof_H 	H 	0.0561	0.4775	0.429	0.093
Mof_C 	C 	0.2233	0.4923	0.4176	-0.016
Mof_C 	C 	0.2484	0.5145	0.4786	0.266
Mof_C 	C 	0.3124	0.4876	0.3753	-0.004
Mof_C 	C 	0.4316	0.5164	0.386	0.28
Mof_C 	C 	0.2864	0.4602	0.3196	-0.023
Mof_H 	H 	0.3442	0.4566	0.2917	0.093
Mof_C 	C 	0.1749	0.4377	0.3044	-0
Mof_C 	C 	0.1578	0.4104	0.2414	0.278
Mof_U 	U 	0.79503	0.96565	0.90069	0.036
Mof_O 	O 	0.365	0.8384	0.7309	-0.147
Mof_O 	O 	0.3247	0.9631	0.7032	-0.159
Mof_O 	O 	0.5616	0.8858	0.7889	-0.174
Mof_O 	O 	0.6087	0.9651	0.8636	-0.162
Mof_O 	O 	0.3337	0.0215	0.0154	-0.161
Mof_O 	O 	0.1494	0.0229	0.9969	-0.145
Mof_O 	O 	0.9911	0.963	0.8944	-0.141
Mof_O 	O 	0.0506	0.0895	0.882	-0.161
Mof_C 	C 	0.5362	0.931	0.8315	0.278
Mof_C 	C 	0.4146	0.9468	0.8457	-0.019
Mof_C 	C 	0.3859	0.9729	0.9013	-0.014
Mof_H 	H 	0.4439	0.9775	0.929	0.093
Mof_C 	C 	0.2767	0.9923	0.9176	-0.015
Mof_C 	C 	0.2516	0.0145	0.9786	0.263
Mof_C 	C 	0.1876	0.9876	0.8753	-0.003
Mof_C 	C 	0.0684	0.0164	0.886	0.277
Mof_C 	C 	0.2136	0.9602	0.8196	-0.023
Mof_H 	H 	0.1558	0.9566	0.7917	0.093
Mof_C 	C 	0.3251	0.9377	0.8044	0
Mof_C 	C 	0.3422	0.9104	0.7414	0.278
Mof_U 	U 	0.70497	0.03435	0.40069	0.036
Mof_O 	O 	0.135	0.1616	0.2309	-0.147
Mof_O 	O 	0.1753	0.0369	0.2032	-0.158
Mof_O 	O 	0.9384	0.1142	0.2889	-0.174
Mof_O 	O 	0.8913	0.0349	0.3636	-0.162
Mof_O 	O 	0.1663	0.9785	0.5154	-0.163
Mof_O 	O 	0.3506	0.9771	0.4969	-0.145
Mof_O 	O 	0.5089	0.037	0.3944	-0.143
Mof_O 	O 	0.4494	0.9105	0.382	-0.161
Mof_C 	C 	0.9638	0.069	0.3315	0.277
Mof_C 	C 	0.0854	0.0532	0.3457	-0.018
Mof_C 	C 	0.1141	0.0271	0.4013	-0.013
Mof_H 	H 	0.0561	0.0225	0.429	0.093
Mof_C 	C 	0.2233	0.0077	0.4176	-0.016
Mof_C 	C 	0.2484	0.9855	0.4786	0.266
Mof_C 	C 	0.3124	0.0124	0.3753	-0.004
Mof_C 	C 	0.4316	0.9836	0.386	0.279
Mof_C 	C 	0.2864	0.0398	0.3196	-0.023
Mof_H 	H 	0.3442	0.0434	0.2917	0.093
Mof_C 	C 	0.1749	0.0623	0.3044	0
Mof_C 	C 	0.1578	0.0896	0.2414	0.278
Mof_U 	U 	0.20497	0.46565	0.09931	0.036
Mof_O 	O 	0.635	0.3384	0.2691	-0.147
Mof_O 	O 	0.6753	0.4631	0.2968	-0.159
Mof_O 	O 	0.4384	0.3858	0.2111	-0.174
Mof_O 	O 	0.3913	0.4651	0.1364	-0.163
Mof_O 	O 	0.6663	0.5215	0.9846	-0.163
Mof_O 	O 	0.8506	0.5229	0.0031	-0.145
Mof_O 	O 	0.0089	0.463	0.1056	-0.142
Mof_O 	O 	0.9494	0.5895	0.118	-0.162
Mof_C 	C 	0.4638	0.431	0.1685	0.278
Mof_C 	C 	0.5854	0.4468	0.1543	-0.019
Mof_C 	C 	0.6141	0.4729	0.0987	-0.013
Mof_H 	H 	0.5561	0.4775	0.071	0.093
Mof_C 	C 	0.7233	0.4923	0.0824	-0.017
Mof_C 	C 	0.7484	0.5145	0.0214	0.265
Mof_C 	C 	0.8124	0.4876	0.1247	-0.004
Mof_C 	C 	0.9316	0.5164	0.114	0.278
Mof_C 	C 	0.7864	0.4602	0.1804	-0.023
Mof_H 	H 	0.8442	0.4566	0.2083	0.093
Mof_C 	C 	0.6749	0.4377	0.1956	0
Mof_C 	C 	0.6578	0.4104	0.2586	0.278
Mof_U 	U 	0.29503	0.53435	0.59931	0.036
Mof_O 	O 	0.865	0.6616	0.7691	-0.147
Mof_O 	O 	0.8247	0.5369	0.7968	-0.159
Mof_O 	O 	0.0616	0.6142	0.7111	-0.174
Mof_O 	O 	0.1087	0.5349	0.6364	-0.163
Mof_O 	O 	0.8337	0.4785	0.4846	-0.163
Mof_O 	O 	0.6494	0.4771	0.5031	-0.145
Mof_O 	O 	0.4911	0.537	0.6056	-0.143
Mof_O 	O 	0.5506	0.4105	0.618	-0.161
Mof_C 	C 	0.0362	0.569	0.6685	0.277
Mof_C 	C 	0.9146	0.5532	0.6543	-0.019
Mof_C 	C 	0.8859	0.5271	0.5987	-0.013
Mof_H 	H 	0.9439	0.5225	0.571	0.093
Mof_C 	C 	0.7767	0.5077	0.5824	-0.016
Mof_C 	C 	0.7516	0.4855	0.5214	0.266
Mof_C 	C 	0.6876	0.5124	0.6247	-0.004
Mof_C 	C 	0.5684	0.4836	0.614	0.28
Mof_C 	C 	0.7136	0.5398	0.6804	-0.023
Mof_H 	H 	0.6558	0.5434	0.7083	0.093
Mof_C 	C 	0.8251	0.5623	0.6956	-0
Mof_C 	C 	0.8422	0.5896	0.7586	0.278
Mof_U 	U 	0.49214	0.25	0.22767	0.015
Mof_U 	U 	0.00786	0.75	0.72767	0.015
Mof_U 	U 	0.50786	0.75	0.77233	0.015
Mof_U 	U 	0.99214	0.25	0.27233	0.015
_end
