data_functionalizedCrystal
_audit_creation_method	'EQeq! by Chris Wilmer'
_symmetry_space_group_name_H-M	'P1'
_symmetry_Int_Tables_number	1
_symmetry_cell_setting	triclinic
loop_
_symmetry_equiv_pos_as_xyz
  x,y,z
_cell_length_a	9.254
_cell_length_b	12.0442
_cell_length_c	13.17
_cell_angle_alpha	80.0637
_cell_angle_beta	69.4314
_cell_angle_gamma	67.4079
loop_
_atom_site_label
_atom_site_type_symbol
_atom_site_fract_x
_atom_site_fract_y
_atom_site_fract_z
_atom_site_charge
Mof_Cd	Cd	-0	0	-0	0.251
Mof_Cd	Cd	-7.56699e-17	0.5	0.5	0.286
Mof_Ni	Ni	0.36207	0.25	0.75	1.063
Mof_Ni	Ni	0.63793	0.75	0.25	1.065
Mof_H 	H 	0.00597	0.30882	0.39864	0.057
Mof_H 	H 	0.84239	0.33799	0.50575	0.093
Mof_H 	H 	0.1804	0.19786	0.50614	0.034
Mof_H 	H 	0.9987	0.22802	0.62276	0.066
Mof_H 	H 	0.82295	0.11568	0.66296	0.041
Mof_H 	H 	0.78431	0.93292	0.63714	0.03
Mof_H 	H 	0.71343	0.19118	0.10136	0.077
Mof_H 	H 	0.68613	0.16201	0.99425	0.102
Mof_H 	H 	0.8844	0.30214	0.99386	0.04
Mof_H 	H 	0.84948	0.27198	0.87724	0.045
Mof_H 	H 	0.60159	0.38432	0.83704	0.045
Mof_H 	H 	0.35437	0.56708	0.86286	0.022
Mof_H 	H 	0.99403	0.69118	0.60136	0.101
Mof_H 	H 	0.15761	0.66201	0.49425	0.092
Mof_H 	H 	0.8196	0.80214	0.49386	0.023
Mof_H 	H 	0.0013	0.77198	0.37724	0.013
Mof_H 	H 	0.17705	0.88432	0.33704	0.038
Mof_H 	H 	0.21569	0.06708	0.36286	0.027
Mof_H 	H 	0.28657	0.80882	0.89864	0.085
Mof_H 	H 	0.31387	0.83799	0.00575	0.084
Mof_H 	H 	0.1156	0.69786	0.00614	0.018
Mof_H 	H 	0.15052	0.72802	0.12276	0.034
Mof_H 	H 	0.39841	0.61568	0.16296	0.033
Mof_H 	H 	0.64563	0.43292	0.13714	0.035
Mof_C 	C 	0.2316	0.1583	0.8229	-0.257
Mof_C 	C 	0.5111	0.1656	0.8254	-0.248
Mof_C 	C 	0.9525	0.7865	0.4649	-0.002
Mof_C 	C 	0.9774	0.8967	0.4841	0.024
Mof_C 	C 	0.0988	0.9352	0.4086	-0.046
Mof_C 	C 	0.1216	0.0378	0.4232	-0.079
Mof_C 	C 	0.2128	0.3417	0.6771	-0.255
Mof_C 	C 	0.5021	0.3344	0.6746	-0.247
Mof_C 	C 	0.2039	0.7135	0.0351	-0.05
Mof_C 	C 	0.3582	0.6033	0.0159	-0.014
Mof_C 	C 	0.4426	0.5648	0.0914	-0.034
Mof_C 	C 	0.5826	0.4622	0.0768	-0.082
Mof_C 	C 	0.7684	0.8417	0.1771	-0.241
Mof_C 	C 	0.4889	0.8344	0.1746	-0.242
Mof_C 	C 	0.0475	0.2135	0.5351	-0.098
Mof_C 	C 	0.0226	0.1033	0.5159	0.007
Mof_C 	C 	0.9012	0.0648	0.5914	-0.053
Mof_C 	C 	0.8784	0.9622	0.5768	-0.027
Mof_C 	C 	0.7872	0.6583	0.3229	-0.243
Mof_C 	C 	0.4979	0.6656	0.3254	-0.244
Mof_C 	C 	0.7961	0.2865	0.9649	-0.05
Mof_C 	C 	0.6418	0.3967	0.9841	0.046
Mof_C 	C 	0.5574	0.4352	0.9086	-0.07
Mof_C 	C 	0.4174	0.5378	0.9232	-0.019
Mof_N 	N 	0.155	0.0991	0.8679	-0.085
Mof_N 	N 	0.6012	0.1178	0.8734	-0.061
Mof_N 	N 	0.0368	0.6762	0.522	-0.235
Mof_N 	N 	0.122	0.4009	0.6321	-0.089
Mof_N 	N 	0.5924	0.3822	0.6266	-0.06
Mof_N 	N 	0.235	0.8238	0.978	-0.189
Mof_N 	N 	0.845	0.9009	0.1321	-0.068
Mof_N 	N 	0.3988	0.8822	0.1266	-0.06
Mof_N 	N 	0.9632	0.3238	0.478	-0.175
Mof_N 	N 	0.878	0.5991	0.3679	-0.075
Mof_N 	N 	0.4076	0.6178	0.3734	-0.063
Mof_N 	N 	0.765	0.1762	0.022	-0.216
_end
