data_functionalizedCrystal
_audit_creation_method	'EQeq! by Chris Wilmer'
_symmetry_space_group_name_H-M	'P1'
_symmetry_Int_Tables_number	1
_symmetry_cell_setting	triclinic
loop_
_symmetry_equiv_pos_as_xyz
  x,y,z
_cell_length_a	28.3903
_cell_length_b	28.3903
_cell_length_c	28.3903
_cell_angle_alpha	60
_cell_angle_beta	60
_cell_angle_gamma	60
loop_
_atom_site_label
_atom_site_type_symbol
_atom_site_fract_x
_atom_site_fract_y
_atom_site_fract_z
_atom_site_charge
Mof_Cr	Cr	0.92924	0.81128	0.4482	2.952
Mof_Cr	Cr	0.81128	0.92924	0.81128	2.952
Mof_Cr	Cr	0.4482	0.81128	0.92924	2.952
Mof_Cr	Cr	0.81128	0.4482	0.81128	2.952
Mof_Cr	Cr	0.92924	0.4482	0.81128	2.952
Mof_Cr	Cr	0.81128	0.81128	0.4482	2.952
Mof_Cr	Cr	0.4482	0.92924	0.81128	2.952
Mof_Cr	Cr	0.81128	0.81128	0.92924	2.952
Mof_Cr	Cr	0.92924	0.81128	0.81128	2.952
Mof_Cr	Cr	0.81128	0.4482	0.92924	2.952
Mof_Cr	Cr	0.4482	0.81128	0.81128	2.952
Mof_Cr	Cr	0.81128	0.92924	0.4482	2.952
Mof_Cr	Cr	0.18872	0.07076	0.5518	2.952
Mof_Cr	Cr	0.07076	0.18872	0.18872	2.952
Mof_Cr	Cr	0.18872	0.5518	0.07076	2.952
Mof_Cr	Cr	0.5518	0.18872	0.18872	2.952
Mof_Cr	Cr	0.5518	0.07076	0.18872	2.952
Mof_Cr	Cr	0.18872	0.18872	0.5518	2.952
Mof_Cr	Cr	0.07076	0.5518	0.18872	2.953
Mof_Cr	Cr	0.18872	0.18872	0.07076	2.953
Mof_Cr	Cr	0.18872	0.07076	0.18872	2.953
Mof_Cr	Cr	0.5518	0.18872	0.07076	2.953
Mof_Cr	Cr	0.18872	0.5518	0.18872	2.953
Mof_Cr	Cr	0.07076	0.18872	0.5518	2.953
Mof_H 	H 	0.04615	0.73939	0.32349	0.013
Mof_H 	H 	0.95481	0.79961	0.57833	0.014
Mof_H 	H 	0.73939	0.04615	0.89097	0.013
Mof_H 	H 	0.79961	0.95481	0.66725	0.014
Mof_H 	H 	0.32349	0.89097	0.04615	0.013
Mof_H 	H 	0.57833	0.66725	0.95481	0.014
Mof_H 	H 	0.89097	0.32349	0.73939	0.013
Mof_H 	H 	0.66725	0.57833	0.79961	0.014
Mof_H 	H 	0.04615	0.32349	0.89097	0.013
Mof_H 	H 	0.95481	0.57833	0.66725	0.014
Mof_H 	H 	0.73939	0.89097	0.32349	0.013
Mof_H 	H 	0.79961	0.66725	0.57833	0.014
Mof_H 	H 	0.32349	0.04615	0.73939	0.013
Mof_H 	H 	0.57833	0.95481	0.79961	0.014
Mof_H 	H 	0.89097	0.73939	0.04615	0.013
Mof_H 	H 	0.66725	0.79961	0.95481	0.014
Mof_H 	H 	0.04615	0.89097	0.73939	0.013
Mof_H 	H 	0.95481	0.66725	0.79961	0.014
Mof_H 	H 	0.73939	0.32349	0.04615	0.013
Mof_H 	H 	0.79961	0.57833	0.95481	0.014
Mof_H 	H 	0.32349	0.73939	0.89097	0.013
Mof_H 	H 	0.57833	0.79961	0.66725	0.014
Mof_H 	H 	0.89097	0.04615	0.32349	0.013
Mof_H 	H 	0.66725	0.95481	0.57833	0.014
Mof_H 	H 	0.26061	0.95385	0.67651	0.013
Mof_H 	H 	0.20039	0.04519	0.42167	0.014
Mof_H 	H 	0.95385	0.26061	0.10903	0.013
Mof_H 	H 	0.04519	0.20039	0.33275	0.014
Mof_H 	H 	0.10903	0.67651	0.95385	0.013
Mof_H 	H 	0.33275	0.42167	0.04519	0.014
Mof_H 	H 	0.67651	0.10903	0.26061	0.013
Mof_H 	H 	0.42167	0.33275	0.20039	0.014
Mof_H 	H 	0.67651	0.95385	0.10903	0.013
Mof_H 	H 	0.42167	0.04519	0.33275	0.014
Mof_H 	H 	0.10903	0.26061	0.67651	0.013
Mof_H 	H 	0.33275	0.20039	0.42167	0.014
Mof_H 	H 	0.95385	0.67651	0.26061	0.013
Mof_H 	H 	0.04519	0.42167	0.20039	0.014
Mof_H 	H 	0.26061	0.10903	0.95385	0.013
Mof_H 	H 	0.20039	0.33275	0.04519	0.014
Mof_H 	H 	0.10903	0.95385	0.26061	0.013
Mof_H 	H 	0.33275	0.04519	0.20039	0.014
Mof_H 	H 	0.67651	0.26061	0.95385	0.013
Mof_H 	H 	0.42167	0.20039	0.04519	0.014
Mof_H 	H 	0.26061	0.67651	0.10903	0.013
Mof_H 	H 	0.20039	0.42167	0.33275	0.014
Mof_H 	H 	0.95385	0.10903	0.67651	0.013
Mof_H 	H 	0.04519	0.33275	0.42167	0.014
Mof_H 	H 	0.95385	0.26061	0.67651	0.013
Mof_H 	H 	0.04519	0.20039	0.42167	0.014
Mof_H 	H 	0.26061	0.95385	0.10903	0.013
Mof_H 	H 	0.20039	0.04519	0.33275	0.014
Mof_H 	H 	0.67651	0.10903	0.95385	0.013
Mof_H 	H 	0.42167	0.33275	0.04519	0.014
Mof_H 	H 	0.10903	0.67651	0.26061	0.013
Mof_H 	H 	0.33275	0.42167	0.20039	0.014
Mof_H 	H 	0.95385	0.67651	0.10903	0.013
Mof_H 	H 	0.04519	0.42167	0.33275	0.014
Mof_H 	H 	0.26061	0.10903	0.67651	0.013
Mof_H 	H 	0.20039	0.33275	0.42167	0.014
Mof_H 	H 	0.67651	0.95385	0.26061	0.013
Mof_H 	H 	0.42167	0.04519	0.20039	0.014
Mof_H 	H 	0.10903	0.26061	0.95385	0.013
Mof_H 	H 	0.33275	0.20039	0.04519	0.014
Mof_H 	H 	0.95385	0.10903	0.26061	0.013
Mof_H 	H 	0.04519	0.33275	0.20039	0.014
Mof_H 	H 	0.26061	0.67651	0.95385	0.013
Mof_H 	H 	0.20039	0.42167	0.04519	0.014
Mof_H 	H 	0.67651	0.26061	0.10903	0.013
Mof_H 	H 	0.42167	0.20039	0.33275	0.014
Mof_H 	H 	0.10903	0.95385	0.67651	0.013
Mof_H 	H 	0.33275	0.04519	0.42167	0.014
Mof_H 	H 	0.73939	0.04615	0.32349	0.013
Mof_H 	H 	0.79961	0.95481	0.57833	0.014
Mof_H 	H 	0.04615	0.73939	0.89097	0.013
Mof_H 	H 	0.95481	0.79961	0.66725	0.014
Mof_H 	H 	0.89097	0.32349	0.04615	0.013
Mof_H 	H 	0.66725	0.57833	0.95481	0.014
Mof_H 	H 	0.32349	0.89097	0.73939	0.013
Mof_H 	H 	0.57833	0.66725	0.79961	0.014
Mof_H 	H 	0.32349	0.04615	0.89097	0.013
Mof_H 	H 	0.57833	0.95481	0.66725	0.014
Mof_H 	H 	0.89097	0.73939	0.32349	0.013
Mof_H 	H 	0.66725	0.79961	0.57833	0.014
Mof_H 	H 	0.04615	0.32349	0.73939	0.013
Mof_H 	H 	0.95481	0.57833	0.79961	0.014
Mof_H 	H 	0.73939	0.89097	0.04615	0.013
Mof_H 	H 	0.79961	0.66725	0.95481	0.014
Mof_H 	H 	0.89097	0.04615	0.73939	0.013
Mof_H 	H 	0.66725	0.95481	0.79961	0.014
Mof_H 	H 	0.32349	0.73939	0.04615	0.013
Mof_H 	H 	0.57833	0.79961	0.95481	0.014
Mof_H 	H 	0.73939	0.32349	0.89097	0.013
Mof_H 	H 	0.79961	0.57833	0.66725	0.014
Mof_H 	H 	0.04615	0.89097	0.32349	0.013
Mof_H 	H 	0.95481	0.66725	0.57833	0.014
Mof_C 	C 	0.0252	0.72484	0.31	0.025
Mof_C 	C 	0.91972	0.83446	0.59828	0.032
Mof_C 	C 	0.72484	0.0252	0.93996	0.024
Mof_C 	C 	0.83446	0.91972	0.64754	0.032
Mof_C 	C 	0.31	0.93996	0.0252	0.025
Mof_C 	C 	0.59828	0.64754	0.91972	0.032
Mof_C 	C 	0.93996	0.31	0.72484	0.025
Mof_C 	C 	0.64754	0.59828	0.83446	0.032
Mof_C 	C 	0.0252	0.31	0.93996	0.025
Mof_C 	C 	0.91972	0.59828	0.64754	0.032
Mof_C 	C 	0.72484	0.93996	0.31	0.025
Mof_C 	C 	0.83446	0.64754	0.59828	0.032
Mof_C 	C 	0.31	0.0252	0.72484	0.025
Mof_C 	C 	0.59828	0.91972	0.83446	0.032
Mof_C 	C 	0.93996	0.72484	0.0252	0.024
Mof_C 	C 	0.64754	0.83446	0.91972	0.032
Mof_C 	C 	0.0252	0.93996	0.72484	0.024
Mof_C 	C 	0.91972	0.64754	0.83446	0.032
Mof_C 	C 	0.72484	0.31	0.0252	0.025
Mof_C 	C 	0.83446	0.59828	0.91972	0.032
Mof_C 	C 	0.31	0.72484	0.93996	0.025
Mof_C 	C 	0.59828	0.83446	0.64754	0.032
Mof_C 	C 	0.93996	0.0252	0.31	0.025
Mof_C 	C 	0.64754	0.91972	0.59828	0.032
Mof_C 	C 	0.27516	0.9748	0.69	0.025
Mof_C 	C 	0.16554	0.08028	0.40172	0.032
Mof_C 	C 	0.9748	0.27516	0.06004	0.024
Mof_C 	C 	0.08028	0.16554	0.35246	0.032
Mof_C 	C 	0.06004	0.69	0.9748	0.025
Mof_C 	C 	0.35246	0.40172	0.08028	0.032
Mof_C 	C 	0.69	0.06004	0.27516	0.025
Mof_C 	C 	0.40172	0.35246	0.16554	0.032
Mof_C 	C 	0.69	0.9748	0.06004	0.025
Mof_C 	C 	0.40172	0.08028	0.35246	0.032
Mof_C 	C 	0.06004	0.27516	0.69	0.025
Mof_C 	C 	0.35246	0.16554	0.40172	0.032
Mof_C 	C 	0.9748	0.69	0.27516	0.025
Mof_C 	C 	0.08028	0.40172	0.16554	0.032
Mof_C 	C 	0.27516	0.06004	0.9748	0.024
Mof_C 	C 	0.16554	0.35246	0.08028	0.032
Mof_C 	C 	0.06004	0.9748	0.27516	0.024
Mof_C 	C 	0.35246	0.08028	0.16554	0.032
Mof_C 	C 	0.69	0.27516	0.9748	0.025
Mof_C 	C 	0.40172	0.16554	0.08028	0.032
Mof_C 	C 	0.27516	0.69	0.06004	0.025
Mof_C 	C 	0.16554	0.40172	0.35246	0.032
Mof_C 	C 	0.9748	0.06004	0.69	0.025
Mof_C 	C 	0.08028	0.35246	0.40172	0.032
Mof_C 	C 	0.9748	0.27516	0.69	0.025
Mof_C 	C 	0.08028	0.16554	0.40172	0.032
Mof_C 	C 	0.27516	0.9748	0.06004	0.024
Mof_C 	C 	0.16554	0.08028	0.35246	0.032
Mof_C 	C 	0.69	0.06004	0.9748	0.025
Mof_C 	C 	0.40172	0.35246	0.08028	0.032
Mof_C 	C 	0.06004	0.69	0.27516	0.025
Mof_C 	C 	0.35246	0.40172	0.16554	0.032
Mof_C 	C 	0.9748	0.69	0.06004	0.025
Mof_C 	C 	0.08028	0.40172	0.35246	0.032
Mof_C 	C 	0.27516	0.06004	0.69	0.025
Mof_C 	C 	0.16554	0.35246	0.40172	0.032
Mof_C 	C 	0.69	0.9748	0.27516	0.025
Mof_C 	C 	0.40172	0.08028	0.16554	0.032
Mof_C 	C 	0.06004	0.27516	0.9748	0.024
Mof_C 	C 	0.35246	0.16554	0.08028	0.032
Mof_C 	C 	0.9748	0.06004	0.27516	0.024
Mof_C 	C 	0.08028	0.35246	0.16554	0.032
Mof_C 	C 	0.27516	0.69	0.9748	0.025
Mof_C 	C 	0.16554	0.40172	0.08028	0.032
Mof_C 	C 	0.69	0.27516	0.06004	0.025
Mof_C 	C 	0.40172	0.16554	0.35246	0.032
Mof_C 	C 	0.06004	0.9748	0.69	0.025
Mof_C 	C 	0.35246	0.08028	0.40172	0.032
Mof_C 	C 	0.72484	0.0252	0.31	0.025
Mof_C 	C 	0.83446	0.91972	0.59828	0.032
Mof_C 	C 	0.0252	0.72484	0.93996	0.024
Mof_C 	C 	0.91972	0.83446	0.64754	0.032
Mof_C 	C 	0.93996	0.31	0.0252	0.025
Mof_C 	C 	0.64754	0.59828	0.91972	0.032
Mof_C 	C 	0.31	0.93996	0.72484	0.025
Mof_C 	C 	0.59828	0.64754	0.83446	0.032
Mof_C 	C 	0.31	0.0252	0.93996	0.025
Mof_C 	C 	0.59828	0.91972	0.64754	0.032
Mof_C 	C 	0.93996	0.72484	0.31	0.025
Mof_C 	C 	0.64754	0.83446	0.59828	0.032
Mof_C 	C 	0.0252	0.31	0.72484	0.025
Mof_C 	C 	0.91972	0.59828	0.83446	0.032
Mof_C 	C 	0.72484	0.93996	0.0252	0.024
Mof_C 	C 	0.83446	0.64754	0.91972	0.032
Mof_C 	C 	0.93996	0.0252	0.72484	0.024
Mof_C 	C 	0.64754	0.91972	0.83446	0.032
Mof_C 	C 	0.31	0.72484	0.0252	0.025
Mof_C 	C 	0.59828	0.83446	0.91972	0.032
Mof_C 	C 	0.72484	0.31	0.93996	0.025
Mof_C 	C 	0.83446	0.59828	0.64754	0.032
Mof_C 	C 	0.0252	0.93996	0.31	0.025
Mof_C 	C 	0.91972	0.64754	0.59828	0.032
Mof_C 	C 	0.92839	0.77157	0.37165	0.729
Mof_C 	C 	0.96487	0.74189	0.32837	-0.218
Mof_C 	C 	0.77157	0.92839	0.92839	0.729
Mof_C 	C 	0.74189	0.96487	0.96487	-0.217
Mof_C 	C 	0.37165	0.92839	0.92839	0.729
Mof_C 	C 	0.32837	0.96487	0.96487	-0.218
Mof_C 	C 	0.92839	0.37165	0.77157	0.729
Mof_C 	C 	0.96487	0.32837	0.74189	-0.218
Mof_C 	C 	0.92839	0.37165	0.92839	0.729
Mof_C 	C 	0.96487	0.32837	0.96487	-0.218
Mof_C 	C 	0.77157	0.92839	0.37165	0.729
Mof_C 	C 	0.74189	0.96487	0.32837	-0.218
Mof_C 	C 	0.37165	0.92839	0.77157	0.729
Mof_C 	C 	0.32837	0.96487	0.74189	-0.218
Mof_C 	C 	0.92839	0.77157	0.92839	0.729
Mof_C 	C 	0.96487	0.74189	0.96487	-0.217
Mof_C 	C 	0.92839	0.92839	0.77157	0.729
Mof_C 	C 	0.96487	0.96487	0.74189	-0.217
Mof_C 	C 	0.77157	0.37165	0.92839	0.729
Mof_C 	C 	0.74189	0.32837	0.96487	-0.218
Mof_C 	C 	0.37165	0.77157	0.92839	0.729
Mof_C 	C 	0.32837	0.74189	0.96487	-0.218
Mof_C 	C 	0.92839	0.92839	0.37165	0.729
Mof_C 	C 	0.96487	0.96487	0.32837	-0.218
Mof_C 	C 	0.22843	0.07161	0.62835	0.729
Mof_C 	C 	0.25811	0.03513	0.67163	-0.218
Mof_C 	C 	0.07161	0.22843	0.07161	0.729
Mof_C 	C 	0.03513	0.25811	0.03513	-0.217
Mof_C 	C 	0.07161	0.62835	0.07161	0.729
Mof_C 	C 	0.03513	0.67163	0.03513	-0.218
Mof_C 	C 	0.62835	0.07161	0.22843	0.729
Mof_C 	C 	0.67163	0.03513	0.25811	-0.218
Mof_C 	C 	0.62835	0.07161	0.07161	0.729
Mof_C 	C 	0.67163	0.03513	0.03513	-0.218
Mof_C 	C 	0.07161	0.22843	0.62835	0.729
Mof_C 	C 	0.03513	0.25811	0.67163	-0.218
Mof_C 	C 	0.07161	0.62835	0.22843	0.729
Mof_C 	C 	0.03513	0.67163	0.25811	-0.218
Mof_C 	C 	0.22843	0.07161	0.07161	0.729
Mof_C 	C 	0.25811	0.03513	0.03513	-0.217
Mof_C 	C 	0.07161	0.07161	0.22843	0.729
Mof_C 	C 	0.03513	0.03513	0.25811	-0.217
Mof_C 	C 	0.62835	0.22843	0.07161	0.729
Mof_C 	C 	0.67163	0.25811	0.03513	-0.218
Mof_C 	C 	0.22843	0.62835	0.07161	0.729
Mof_C 	C 	0.25811	0.67163	0.03513	-0.218
Mof_C 	C 	0.07161	0.07161	0.62835	0.729
Mof_C 	C 	0.03513	0.03513	0.67163	-0.218
Mof_C 	C 	0.87515	0.87515	0.52319	0.797
Mof_C 	C 	0.87695	0.87695	0.57335	-0.232
Mof_C 	C 	0.87515	0.87515	0.72651	0.797
Mof_C 	C 	0.87695	0.87695	0.67275	-0.232
Mof_C 	C 	0.52319	0.72651	0.87515	0.797
Mof_C 	C 	0.57335	0.67275	0.87695	-0.232
Mof_C 	C 	0.72651	0.52319	0.87515	0.797
Mof_C 	C 	0.67275	0.57335	0.87695	-0.232
Mof_C 	C 	0.87515	0.52319	0.72651	0.797
Mof_C 	C 	0.87695	0.57335	0.67275	-0.232
Mof_C 	C 	0.87515	0.72651	0.52319	0.797
Mof_C 	C 	0.87695	0.67275	0.57335	-0.232
Mof_C 	C 	0.52319	0.87515	0.87515	0.797
Mof_C 	C 	0.57335	0.87695	0.87695	-0.232
Mof_C 	C 	0.72651	0.87515	0.87515	0.797
Mof_C 	C 	0.67275	0.87695	0.87695	-0.232
Mof_C 	C 	0.87515	0.72651	0.87515	0.797
Mof_C 	C 	0.87695	0.67275	0.87695	-0.232
Mof_C 	C 	0.87515	0.52319	0.87515	0.797
Mof_C 	C 	0.87695	0.57335	0.87695	-0.232
Mof_C 	C 	0.52319	0.87515	0.72651	0.797
Mof_C 	C 	0.57335	0.87695	0.67275	-0.232
Mof_C 	C 	0.72651	0.87515	0.52319	0.797
Mof_C 	C 	0.67275	0.87695	0.57335	-0.232
Mof_C 	C 	0.12485	0.12485	0.47681	0.797
Mof_C 	C 	0.12305	0.12305	0.42665	-0.232
Mof_C 	C 	0.12485	0.12485	0.27349	0.797
Mof_C 	C 	0.12305	0.12305	0.32725	-0.232
Mof_C 	C 	0.27349	0.47681	0.12485	0.797
Mof_C 	C 	0.32725	0.42665	0.12305	-0.232
Mof_C 	C 	0.47681	0.27349	0.12485	0.797
Mof_C 	C 	0.42665	0.32725	0.12305	-0.232
Mof_C 	C 	0.47681	0.12485	0.27349	0.797
Mof_C 	C 	0.42665	0.12305	0.32725	-0.232
Mof_C 	C 	0.27349	0.12485	0.47681	0.797
Mof_C 	C 	0.32725	0.12305	0.42665	-0.232
Mof_C 	C 	0.12485	0.47681	0.12485	0.797
Mof_C 	C 	0.12305	0.42665	0.12305	-0.232
Mof_C 	C 	0.12485	0.27349	0.12485	0.797
Mof_C 	C 	0.12305	0.32725	0.12305	-0.232
Mof_C 	C 	0.27349	0.12485	0.12485	0.797
Mof_C 	C 	0.32725	0.12305	0.12305	-0.232
Mof_C 	C 	0.47681	0.12485	0.12485	0.797
Mof_C 	C 	0.42665	0.12305	0.12305	-0.232
Mof_C 	C 	0.12485	0.47681	0.27349	0.797
Mof_C 	C 	0.12305	0.42665	0.32725	-0.232
Mof_C 	C 	0.12485	0.27349	0.47681	0.797
Mof_C 	C 	0.12305	0.32725	0.42665	-0.232
Mof_O 	O 	0.91366	0.83466	0.50326	-0.978
Mof_O 	O 	0.95302	0.7824	0.39028	-0.889
Mof_O 	O 	0.83466	0.91366	0.74842	-0.978
Mof_O 	O 	0.7824	0.95302	0.8743	-0.889
Mof_O 	O 	0.50326	0.74842	0.91366	-0.978
Mof_O 	O 	0.39028	0.8743	0.95302	-0.889
Mof_O 	O 	0.74842	0.50326	0.83466	-0.978
Mof_O 	O 	0.8743	0.39028	0.7824	-0.889
Mof_O 	O 	0.91366	0.50326	0.74842	-0.978
Mof_O 	O 	0.95302	0.39028	0.8743	-0.889
Mof_O 	O 	0.83466	0.74842	0.50326	-0.978
Mof_O 	O 	0.7824	0.8743	0.39028	-0.889
Mof_O 	O 	0.50326	0.91366	0.83466	-0.978
Mof_O 	O 	0.39028	0.95302	0.7824	-0.889
Mof_O 	O 	0.74842	0.83466	0.91366	-0.978
Mof_O 	O 	0.8743	0.7824	0.95302	-0.889
Mof_O 	O 	0.91366	0.74842	0.83466	-0.978
Mof_O 	O 	0.95302	0.8743	0.7824	-0.889
Mof_O 	O 	0.83466	0.50326	0.91366	-0.978
Mof_O 	O 	0.7824	0.39028	0.95302	-0.889
Mof_O 	O 	0.50326	0.83466	0.74842	-0.978
Mof_O 	O 	0.39028	0.7824	0.8743	-0.889
Mof_O 	O 	0.74842	0.91366	0.50326	-0.978
Mof_O 	O 	0.8743	0.95302	0.39028	-0.889
Mof_O 	O 	0.16534	0.08634	0.49674	-0.978
Mof_O 	O 	0.2176	0.04698	0.60972	-0.889
Mof_O 	O 	0.08634	0.16534	0.25158	-0.978
Mof_O 	O 	0.04698	0.2176	0.1257	-0.889
Mof_O 	O 	0.25158	0.49674	0.08634	-0.978
Mof_O 	O 	0.1257	0.60972	0.04698	-0.889
Mof_O 	O 	0.49674	0.25158	0.16534	-0.978
Mof_O 	O 	0.60972	0.1257	0.2176	-0.889
Mof_O 	O 	0.49674	0.08634	0.25158	-0.978
Mof_O 	O 	0.60972	0.04698	0.1257	-0.889
Mof_O 	O 	0.25158	0.16534	0.49674	-0.978
Mof_O 	O 	0.1257	0.2176	0.60972	-0.889
Mof_O 	O 	0.08634	0.49674	0.16534	-0.978
Mof_O 	O 	0.04698	0.60972	0.2176	-0.889
Mof_O 	O 	0.16534	0.25158	0.08634	-0.978
Mof_O 	O 	0.2176	0.1257	0.04698	-0.889
Mof_O 	O 	0.25158	0.08634	0.16534	-0.978
Mof_O 	O 	0.1257	0.04698	0.2176	-0.889
Mof_O 	O 	0.49674	0.16534	0.08634	-0.978
Mof_O 	O 	0.60972	0.2176	0.04698	-0.889
Mof_O 	O 	0.16534	0.49674	0.25158	-0.978
Mof_O 	O 	0.2176	0.60972	0.1257	-0.889
Mof_O 	O 	0.08634	0.25158	0.49674	-0.978
Mof_O 	O 	0.04698	0.1257	0.60972	-0.889
Mof_O 	O 	0.08634	0.16534	0.49674	-0.978
Mof_O 	O 	0.04698	0.2176	0.60972	-0.889
Mof_O 	O 	0.16534	0.08634	0.25158	-0.978
Mof_O 	O 	0.2176	0.04698	0.1257	-0.889
Mof_O 	O 	0.49674	0.25158	0.08634	-0.978
Mof_O 	O 	0.60972	0.1257	0.04698	-0.889
Mof_O 	O 	0.25158	0.49674	0.16534	-0.978
Mof_O 	O 	0.1257	0.60972	0.2176	-0.889
Mof_O 	O 	0.08634	0.49674	0.25158	-0.978
Mof_O 	O 	0.04698	0.60972	0.1257	-0.889
Mof_O 	O 	0.16534	0.25158	0.49674	-0.978
Mof_O 	O 	0.2176	0.1257	0.60972	-0.889
Mof_O 	O 	0.49674	0.08634	0.16534	-0.978
Mof_O 	O 	0.60972	0.04698	0.2176	-0.889
Mof_O 	O 	0.25158	0.16534	0.08634	-0.978
Mof_O 	O 	0.1257	0.2176	0.04698	-0.889
Mof_O 	O 	0.08634	0.25158	0.16534	-0.978
Mof_O 	O 	0.04698	0.1257	0.2176	-0.889
Mof_O 	O 	0.16534	0.49674	0.08634	-0.978
Mof_O 	O 	0.2176	0.60972	0.04698	-0.889
Mof_O 	O 	0.49674	0.16534	0.25158	-0.978
Mof_O 	O 	0.60972	0.2176	0.1257	-0.889
Mof_O 	O 	0.25158	0.08634	0.49674	-0.978
Mof_O 	O 	0.1257	0.04698	0.60972	-0.889
Mof_O 	O 	0.83466	0.91366	0.50326	-0.978
Mof_O 	O 	0.7824	0.95302	0.39028	-0.889
Mof_O 	O 	0.91366	0.83466	0.74842	-0.978
Mof_O 	O 	0.95302	0.7824	0.8743	-0.889
Mof_O 	O 	0.74842	0.50326	0.91366	-0.978
Mof_O 	O 	0.8743	0.39028	0.95302	-0.889
Mof_O 	O 	0.50326	0.74842	0.83466	-0.978
Mof_O 	O 	0.39028	0.8743	0.7824	-0.889
Mof_O 	O 	0.50326	0.91366	0.74842	-0.978
Mof_O 	O 	0.39028	0.95302	0.8743	-0.889
Mof_O 	O 	0.74842	0.83466	0.50326	-0.978
Mof_O 	O 	0.8743	0.7824	0.39028	-0.889
Mof_O 	O 	0.91366	0.50326	0.83466	-0.978
Mof_O 	O 	0.95302	0.39028	0.7824	-0.889
Mof_O 	O 	0.83466	0.74842	0.91366	-0.978
Mof_O 	O 	0.7824	0.8743	0.95302	-0.889
Mof_O 	O 	0.74842	0.91366	0.83466	-0.978
Mof_O 	O 	0.8743	0.95302	0.7824	-0.889
Mof_O 	O 	0.50326	0.83466	0.91366	-0.978
Mof_O 	O 	0.39028	0.7824	0.95302	-0.889
Mof_O 	O 	0.83466	0.50326	0.74842	-0.978
Mof_O 	O 	0.7824	0.39028	0.8743	-0.889
Mof_O 	O 	0.91366	0.74842	0.50326	-0.978
Mof_O 	O 	0.95302	0.8743	0.39028	-0.889
Mof_O 	O 	0.85102	0.85102	0.44694	-1.386
Mof_O 	O 	0.85102	0.85102	0.85102	-1.386
Mof_O 	O 	0.44694	0.85102	0.85102	-1.386
Mof_O 	O 	0.85102	0.44694	0.85102	-1.386
Mof_O 	O 	0.14898	0.14898	0.55306	-1.386
Mof_O 	O 	0.14898	0.14898	0.14898	-1.386
Mof_O 	O 	0.14898	0.55306	0.14898	-1.386
Mof_O 	O 	0.55306	0.14898	0.14898	-1.386
_end
