data_functionalizedCrystal
_audit_creation_method	'EQeq! by Chris Wilmer'
_symmetry_space_group_name_H-M	'P1'
_symmetry_Int_Tables_number	1
_symmetry_cell_setting	triclinic
loop_
_symmetry_equiv_pos_as_xyz
  x,y,z
_cell_length_a	9.666
_cell_length_b	11.358
_cell_length_c	13.671
_cell_angle_alpha	69.701
_cell_angle_beta	70.792
_cell_angle_gamma	81.668
loop_
_atom_site_label
_atom_site_type_symbol
_atom_site_fract_x
_atom_site_fract_y
_atom_site_fract_z
_atom_site_charge
Mof_O 	O 	0.3004	0.42392	0.6181	-0.419
Mof_O 	O 	0.1587	0.1163	0.97996	-0.372
Mof_N 	N 	0.9587	0.1644	0.87735	-0.187
Mof_N 	N 	0.299	0.9225	0.7105	-0.163
Mof_N 	N 	0.7488	0.1493	0.5626	-0.103
Mof_O 	O 	0.2795	0.2874	0.86748	-0.234
Mof_C 	C 	0.0658	0.2474	0.837	-0.014
Mof_N 	N 	0.4178	0.4588	0.22551	-0.159
Mof_C 	C 	0.0746	0.3514	0.7434	-0.145
Mof_N 	N 	0.5937	0.3128	0.55405	-0.215
Mof_C 	C 	0.1784	0.2169	0.8986	0.289
Mof_C 	C 	0.8757	0.0737	0.5306	-0.095
Mof_N 	N 	0.4266	0.4602	0.38416	-0.222
Mof_O 	O 	0.1747	0.54	0.7233	-0.285
Mof_C 	C 	0.4005	0.9621	0.6034	0.206
Mof_C 	C 	0.4925	0.4948	0.2777	0.092
Mof_H 	H 	0.579	0.5384	0.2431	0.019
Mof_C 	C 	0.5458	0.2223	0.6548	0.002
Mof_H 	H 	0.4616	0.2297	0.7105	0.046
Mof_C 	C 	0.1949	0.446	0.6926	0.372
Mof_C 	C 	0.296	0.3988	0.3032	0.006
Mof_H 	H 	0.2238	0.3641	0.2915	0.021
Mof_N 	N 	0.1457	0.9324	0.8685	-0.213
Mof_C 	C 	0.4595	0.4807	0.1105	0.235
Mof_C 	C 	0.6397	0.1214	0.6603	-0.005
Mof_H 	H 	0.6317	0.0475	0.719	0.038
Mof_C 	C 	0.3024	0.4006	0.4009	-0.002
Mof_H 	H 	0.2336	0.3668	0.4684	0.024
Mof_C 	C 	0.2287	0.9961	0.7718	0.177
Mof_H 	H 	0.238	0.0826	0.7483	-0.052
Mof_C 	C 	0.2551	0.8022	0.7723	0.008
Mof_H 	H 	0.2838	0.7301	0.752	0.044
Mof_C 	C 	0.9667	0.3682	0.6929	0.125
Mof_H 	H 	0.9703	0.4353	0.6293	0.005
Mof_C 	C 	0.7155	0.2661	0.5011	0.081
Mof_H 	H 	0.772	0.3076	0.4305	0.021
Mof_C 	C 	0.162	0.8098	0.8683	0.01
Mof_H 	H 	0.1153	0.742	0.9261	0.044
Mof_C 	C 	0.8538	0.1834	0.8289	0.102
Mof_H 	H 	0.779	0.1266	0.8578	0.006
Mof_C 	C 	0.854	0.2854	0.7369	-0.157
Mof_H 	H 	0.7792	0.2981	0.7051	0.098
Mof_C 	C 	0.9152	0.9713	0.6077	0.195
Mof_H 	H 	0.8591	0.9516	0.6807	-0.007
Mof_C 	C 	0.4825	0.1155	0.4268	0.026
Mof_H 	H 	0.4703	0.1939	0.3777	0.028
Mof_C 	C 	0.3827	0.0777	0.5302	-0.21
Mof_H 	H 	0.3035	0.1305	0.5502	0.1
Mof_C 	C 	0.6471	0.5014	0.9405	0.167
Mof_H 	H 	0.7457	0.502	0.9003	0.007
Mof_C 	C 	0.6067	0.4824	0.052	-0.311
Mof_H 	H 	0.6777	0.4711	0.087	0.149
Mof_C 	C 	0.0384	0.8973	0.5771	-0.324
Mof_H 	H 	0.0632	0.8276	0.6297	0.149
Mof_O 	O 	0.6996	0.57608	0.3819	-0.405
Mof_O 	O 	0.8413	0.8837	0.02004	-0.384
Mof_N 	N 	0.0413	0.8356	0.12265	-0.24
Mof_N 	N 	0.701	0.0775	0.2895	-0.111
Mof_N 	N 	0.2512	0.8507	0.4374	-0.168
Mof_O 	O 	0.7205	0.7126	0.13252	-0.249
Mof_C 	C 	0.9342	0.7526	0.163	0.016
Mof_N 	N 	0.5822	0.5412	0.77449	-0.106
Mof_C 	C 	0.9254	0.6486	0.2566	-0.029
Mof_N 	N 	0.4063	0.6872	0.44595	-0.217
Mof_C 	C 	0.8216	0.7831	0.1014	0.286
Mof_C 	C 	0.1243	0.9263	0.4694	0.292
Mof_N 	N 	0.5734	0.5398	0.61584	-0.22
Mof_O 	O 	0.8253	0.46	0.2767	-0.269
Mof_C 	C 	0.5995	0.0379	0.3966	-0.018
Mof_C 	C 	0.5075	0.5052	0.7223	0.079
Mof_H 	H 	0.421	0.4616	0.7569	0.03
Mof_C 	C 	0.4542	0.7777	0.3452	-0.009
Mof_H 	H 	0.5384	0.7703	0.2895	0.05
Mof_C 	C 	0.8051	0.554	0.3074	0.343
Mof_C 	C 	0.704	0.6012	0.6968	-0.005
Mof_H 	H 	0.7762	0.6359	0.7085	0.052
Mof_N 	N 	0.8543	0.0676	0.1315	-0.211
Mof_C 	C 	0.5405	0.5193	0.8895	-0.044
Mof_C 	C 	0.3603	0.8786	0.3397	0.027
Mof_H 	H 	0.3683	0.9525	0.281	0.034
Mof_C 	C 	0.6976	0.5994	0.5991	0.005
Mof_H 	H 	0.7664	0.6332	0.5316	0.04
Mof_C 	C 	0.7713	0.0039	0.2282	0.03
Mof_H 	H 	0.762	0.9174	0.2517	0.046
Mof_C 	C 	0.7449	0.1978	0.2277	-0.006
Mof_H 	H 	0.7162	0.2699	0.248	0.048
Mof_C 	C 	0.0333	0.6318	0.3071	-0.048
Mof_H 	H 	0.0297	0.5647	0.3707	0.033
Mof_C 	C 	0.2845	0.7339	0.4989	0.098
Mof_H 	H 	0.228	0.6924	0.5695	0.002
Mof_C 	C 	0.838	0.1902	0.1317	0.009
Mof_H 	H 	0.8847	0.258	0.0739	0.022
Mof_C 	C 	0.1462	0.8166	0.1711	0.043
Mof_H 	H 	0.221	0.8734	0.1422	0.009
Mof_C 	C 	0.146	0.7146	0.2631	-0.082
Mof_H 	H 	0.2208	0.7019	0.2949	0.064
Mof_C 	C 	0.0848	0.0287	0.3923	-0.378
Mof_H 	H 	0.1409	0.0484	0.3193	0.142
Mof_C 	C 	0.5175	0.8845	0.5732	-0.181
Mof_H 	H 	0.5297	0.8061	0.6223	0.107
Mof_C 	C 	0.6173	0.9223	0.4698	0.064
Mof_H 	H 	0.6965	0.8695	0.4498	0.027
Mof_C 	C 	0.3529	0.4986	0.0595	-0.317
Mof_H 	H 	0.2543	0.498	0.0997	0.132
Mof_C 	C 	0.3933	0.5176	0.948	0.168
Mof_H 	H 	0.3223	0.5289	0.913	0.001
Mof_C 	C 	0.9616	0.1027	0.4229	0.185
Mof_H 	H 	0.9368	0.1724	0.3703	-0.011
Mof_Co	Co	0.5	0.5	0.5	1.15
Mof_Co	Co	-0	0	-0	1.076
_end
