data_functionalizedCrystal
_audit_creation_method	'EQeq! by Chris Wilmer'
_symmetry_space_group_name_H-M	'P1'
_symmetry_Int_Tables_number	1
_symmetry_cell_setting	triclinic
loop_
_symmetry_equiv_pos_as_xyz
  x,y,z
_cell_length_a	8.1405
_cell_length_b	10.5245
_cell_length_c	11.4295
_cell_angle_alpha	62.5864
_cell_angle_beta	84.3939
_cell_angle_gamma	77.75
loop_
_atom_site_label
_atom_site_type_symbol
_atom_site_fract_x
_atom_site_fract_y
_atom_site_fract_z
_atom_site_charge
Mof_Co	Co	0.62792	0.20032	0.50748	1.107
Mof_Co	Co	0.12792	0.7078	0.49252	1.088
Mof_H 	H 	0.5417	0.8898	0.633	-0.033
Mof_H 	H 	0.7266	0.0841	0.7986	-0.012
Mof_H 	H 	0.5591	0.3043	0.2142	-0.012
Mof_H 	H 	0.5384	0.6883	0.8294	0.073
Mof_H 	H 	0.6781	0.7258	0.1854	0.068
Mof_H 	H 	0.5632	0.4965	0.01	0.073
Mof_H 	H 	0.6748	0.5212	0.3848	-0.023
Mof_H 	H 	0.7222	0.8871	0.0022	0.082
Mof_H 	H 	0.856	0.904	0.54	-0.178
Mof_H 	H 	0.0417	0.5228	0.367	-0.045
Mof_H 	H 	0.2266	0.8827	0.2014	-0.026
Mof_H 	H 	0.0591	0.5185	0.7858	-0.023
Mof_H 	H 	0.0384	0.5177	0.1706	0.057
Mof_H 	H 	0.1781	0.9112	0.8146	0.055
Mof_H 	H 	0.0632	0.5065	0.99	0.062
Mof_H 	H 	0.1748	0.906	0.6152	-0.043
Mof_H 	H 	0.2222	0.8893	0.9978	0.066
Mof_H 	H 	0.356	0.444	0.46	-0.207
Mof_C 	C 	0.5798	0.8895	0.7092	0.067
Mof_C 	C 	0.6863	0.0029	0.8048	0.103
Mof_C 	C 	0.6276	0.7633	0.9414	0.068
Mof_C 	C 	0.621	0.6357	0.0722	0.05
Mof_C 	C 	0.5852	0.3909	0.2082	0.084
Mof_C 	C 	0.5763	0.7693	0.8262	-0.132
Mof_C 	C 	0.6542	0.6399	0.1882	-0.12
Mof_C 	C 	0.5861	0.5054	0.0856	-0.123
Mof_C 	C 	0.6515	0.5168	0.307	0.073
Mof_C 	C 	0.6844	0.885	0.9272	-0.144
Mof_C 	C 	0.8651	0.9677	0.4552	0.486
Mof_C 	C 	0.0798	0.5987	0.2908	0.066
Mof_C 	C 	0.1863	0.8077	0.1952	0.066
Mof_C 	C 	0.1276	0.7047	0.0586	0.045
Mof_C 	C 	0.121	0.7079	0.9278	0.043
Mof_C 	C 	0.0852	0.5991	0.7918	0.073
Mof_C 	C 	0.0763	0.5955	0.1738	-0.139
Mof_C 	C 	0.1542	0.8281	0.8118	-0.135
Mof_C 	C 	0.0861	0.591	0.9144	-0.135
Mof_C 	C 	0.1515	0.8238	0.693	0.059
Mof_C 	C 	0.1844	0.8122	0.0728	-0.135
Mof_C 	C 	0.3651	0.4229	0.5448	0.525
Mof_N 	N 	0.6343	0.0093	0.6938	-0.243
Mof_N 	N 	0.6179	0.3912	0.3198	-0.243
Mof_N 	N 	0.1343	0.7031	0.3062	-0.257
Mof_N 	N 	0.1179	0.711	0.6802	-0.254
Mof_O 	O 	0.7774	0.0936	0.4052	-0.459
Mof_O 	O 	0.9789	0.91883	0.39714	-0.441
Mof_O 	O 	0.2774	0.4988	0.5948	-0.494
Mof_O 	O 	0.4789	0.31597	0.60286	-0.483
_end
