data_functionalizedCrystal
_audit_creation_method	'EQeq! by Chris Wilmer'
_symmetry_space_group_name_H-M	'P1'
_symmetry_Int_Tables_number	1
_symmetry_cell_setting	triclinic
loop_
_symmetry_equiv_pos_as_xyz
  x,y,z
_cell_length_a	11.2208
_cell_length_b	11.7575
_cell_length_c	16.2014
_cell_angle_alpha	90
_cell_angle_beta	129.17
_cell_angle_gamma	90
loop_
_atom_site_label
_atom_site_type_symbol
_atom_site_fract_x
_atom_site_fract_y
_atom_site_fract_z
_atom_site_charge
Mof_Zn	Zn	0.17659	0.02719	0.01762	1.233
Mof_S 	S 	0.02169	0.97379	0.78517	0.496
Mof_O 	O 	0.06269	0.92963	0.88587	-0.409
Mof_O 	O 	0.86555	0.94595	0.69596	-0.222
Mof_O 	O 	0.0626	0.09157	0.79461	-0.263
Mof_O 	O 	0.2135	0.57976	0.62536	-0.444
Mof_O 	O 	0.97498	0.64971	0.53342	-0.458
Mof_O 	O 	0.64156	0.85211	0.86878	-0.343
Mof_O 	O 	0.60734	0.9859	0.94563	-0.373
Mof_C 	C 	0.1416	0.89782	0.76806	-0.084
Mof_C 	C 	0.0828	0.80947	0.69552	0.061
Mof_H 	H 	0.9774	0.7893	0.6537	0.057
Mof_C 	C 	0.1795	0.75024	0.68415	-0.104
Mof_C 	C 	0.1173	0.65266	0.60838	0.4
Mof_C 	C 	0.3332	0.78114	0.74468	0.051
Mof_H 	H 	0.3989	0.7411	0.7367	0.06
Mof_C 	C 	0.3913	0.87061	0.81703	-0.073
Mof_C 	C 	0.2959	0.92857	0.82967	0.038
Mof_H 	H 	0.3355	0.9887	0.8799	0.06
Mof_C 	C 	0.5563	0.90431	0.88079	0.307
Mof_Zn	Zn	0.82341	0.52719	0.48238	1.237
Mof_S 	S 	0.97831	0.47379	0.71483	0.496
Mof_O 	O 	0.93731	0.42963	0.61413	-0.409
Mof_O 	O 	0.13445	0.44595	0.80404	-0.218
Mof_O 	O 	0.9374	0.59157	0.70539	-0.272
Mof_O 	O 	0.7865	0.07976	0.87464	-0.438
Mof_O 	O 	0.02502	0.14971	0.96658	-0.442
Mof_O 	O 	0.35844	0.35211	0.63122	-0.338
Mof_O 	O 	0.39266	0.4859	0.55437	-0.369
Mof_C 	C 	0.8584	0.39782	0.73194	-0.075
Mof_C 	C 	0.9172	0.30947	0.80448	0.038
Mof_H 	H 	0.0226	0.2893	0.8463	0.07
Mof_C 	C 	0.8205	0.25024	0.81585	-0.09
Mof_C 	C 	0.8827	0.15266	0.89162	0.382
Mof_C 	C 	0.6668	0.28114	0.75532	0.042
Mof_H 	H 	0.6011	0.2411	0.7633	0.064
Mof_C 	C 	0.6087	0.37061	0.68297	-0.066
Mof_C 	C 	0.7041	0.42857	0.67033	0.031
Mof_H 	H 	0.6645	0.4887	0.6201	0.063
Mof_C 	C 	0.4437	0.40431	0.61921	0.304
Mof_Zn	Zn	0.82341	0.97281	0.98238	1.233
Mof_S 	S 	0.97831	0.02621	0.21483	0.496
Mof_O 	O 	0.93731	0.07037	0.11413	-0.409
Mof_O 	O 	0.13445	0.05405	0.30404	-0.222
Mof_O 	O 	0.9374	0.90843	0.20539	-0.263
Mof_O 	O 	0.7865	0.42024	0.37464	-0.444
Mof_O 	O 	0.02502	0.35029	0.46658	-0.458
Mof_O 	O 	0.35844	0.14789	0.13122	-0.343
Mof_O 	O 	0.39266	0.0141	0.05437	-0.373
Mof_C 	C 	0.8584	0.10218	0.23194	-0.084
Mof_C 	C 	0.9172	0.19053	0.30448	0.061
Mof_H 	H 	0.0226	0.2107	0.3463	0.057
Mof_C 	C 	0.8205	0.24976	0.31585	-0.104
Mof_C 	C 	0.8827	0.34734	0.39162	0.4
Mof_C 	C 	0.6668	0.21886	0.25532	0.051
Mof_H 	H 	0.6011	0.2589	0.2633	0.06
Mof_C 	C 	0.6087	0.12939	0.18297	-0.073
Mof_C 	C 	0.7041	0.07143	0.17033	0.038
Mof_H 	H 	0.6645	0.0113	0.1201	0.06
Mof_C 	C 	0.4437	0.09569	0.11921	0.307
Mof_Zn	Zn	0.17659	0.47281	0.51762	1.237
Mof_S 	S 	0.02169	0.52621	0.28517	0.496
Mof_O 	O 	0.06269	0.57037	0.38587	-0.409
Mof_O 	O 	0.86555	0.55405	0.19596	-0.218
Mof_O 	O 	0.0626	0.40843	0.29461	-0.272
Mof_O 	O 	0.2135	0.92024	0.12536	-0.438
Mof_O 	O 	0.97498	0.85029	0.03342	-0.442
Mof_O 	O 	0.64156	0.64789	0.36878	-0.338
Mof_O 	O 	0.60734	0.5141	0.44563	-0.369
Mof_C 	C 	0.1416	0.60218	0.26806	-0.075
Mof_C 	C 	0.0828	0.69053	0.19552	0.038
Mof_H 	H 	0.9774	0.7107	0.1537	0.07
Mof_C 	C 	0.1795	0.74976	0.18415	-0.09
Mof_C 	C 	0.1173	0.84734	0.10838	0.382
Mof_C 	C 	0.3332	0.71886	0.24468	0.042
Mof_H 	H 	0.3989	0.7589	0.2367	0.064
Mof_C 	C 	0.3913	0.62939	0.31703	-0.066
Mof_C 	C 	0.2959	0.57143	0.32967	0.031
Mof_H 	H 	0.3355	0.5113	0.3799	0.063
Mof_C 	C 	0.5563	0.59569	0.38079	0.304
_end
