data_functionalizedCrystal
_audit_creation_method	'EQeq! by Chris Wilmer'
_symmetry_space_group_name_H-M	'P1'
_symmetry_Int_Tables_number	1
_symmetry_cell_setting	triclinic
loop_
_symmetry_equiv_pos_as_xyz
  x,y,z
_cell_length_a	14.1239
_cell_length_b	18.3243
_cell_length_c	20.6657
_cell_angle_alpha	90
_cell_angle_beta	99.1218
_cell_angle_gamma	90
loop_
_atom_site_label
_atom_site_type_symbol
_atom_site_fract_x
_atom_site_fract_y
_atom_site_fract_z
_atom_site_charge
Mof_Co	Co	0.72019	0.24478	0.18762	1.126
Mof_O 	O 	0.64482	0.15394	0.15693	-0.456
Mof_O 	O 	0.49567	0.1731	0.17739	-0.423
Mof_O 	O 	0.63255	0.31251	0.12935	-0.472
Mof_O 	O 	0.50864	0.33448	0.1826	-0.423
Mof_O 	O 	0.78847	0.19329	0.27725	-0.4
Mof_O 	O 	0.65484	0.25612	0.27448	-0.497
Mof_C 	C 	0.556	0.14399	0.14751	0.383
Mof_C 	C 	0.5188	0.09102	0.09291	-0.089
Mof_C 	C 	0.4206	0.08816	0.06775	0.008
Mof_H 	H 	0.3769	0.1172	0.0871	0.044
Mof_C 	C 	0.3871	0.04427	0.01599	-0.081
Mof_H 	H 	0.3205	0.0438	0.9991	0.054
Mof_C 	C 	0.5817	0.04842	0.06618	-0.037
Mof_H 	H 	0.6481	0.0506	0.0834	0.048
Mof_C 	C 	0.5493	0.00089	0.01297	0.022
Mof_C 	C 	0.5585	0.34703	0.13939	0.38
Mof_C 	C 	0.5277	0.4095	0.09323	-0.098
Mof_C 	C 	0.4572	0.45909	0.10799	0.012
Mof_H 	H 	0.4312	0.4534	0.1474	0.035
Mof_C 	C 	0.4262	0.51492	0.06641	-0.089
Mof_H 	H 	0.3789	0.5477	0.0771	0.049
Mof_C 	C 	0.566	0.4182	0.03688	-0.026
Mof_H 	H 	0.6137	0.3851	0.0273	0.041
Mof_C 	C 	0.5358	0.47537	0.99284	0.011
Mof_C 	C 	0.7259	0.22204	0.30657	0.318
Mof_C 	C 	0.7405	0.22078	0.37983	-0.077
Mof_C 	C 	0.803	0.16902	0.41418	0.009
Mof_H 	H 	0.8326	0.1335	0.3906	0.042
Mof_C 	C 	0.8213	0.16943	0.48117	-0.09
Mof_H 	H 	0.8618	0.1331	0.5037	0.071
Mof_C 	C 	0.6986	0.27235	0.41336	-0.042
Mof_H 	H 	0.6548	0.306	0.3899	0.059
Mof_C 	C 	0.7191	0.27681	0.48287	0.024
Mof_Co	Co	0.22019	0.74478	0.18762	1.122
Mof_O 	O 	0.14482	0.65394	0.15693	-0.456
Mof_O 	O 	0.99567	0.6731	0.17739	-0.387
Mof_O 	O 	0.13255	0.81251	0.12935	-0.485
Mof_O 	O 	0.00864	0.83448	0.1826	-0.45
Mof_O 	O 	0.28847	0.69329	0.27725	-0.408
Mof_O 	O 	0.15484	0.75612	0.27448	-0.503
Mof_C 	C 	0.056	0.64399	0.14751	0.366
Mof_C 	C 	0.0188	0.59102	0.09291	-0.173
Mof_C 	C 	0.9206	0.58816	0.06775	0.117
Mof_H 	H 	0.8769	0.6172	0.0871	0.012
Mof_C 	C 	0.8871	0.54427	0.01599	-0.167
Mof_H 	H 	0.8205	0.5438	0.9991	0.085
Mof_C 	C 	0.0817	0.54842	0.06618	0.036
Mof_H 	H 	0.1481	0.5506	0.0834	0.022
Mof_C 	C 	0.0493	0.50089	0.01297	-0.088
Mof_C 	C 	0.0585	0.84703	0.13939	0.41
Mof_C 	C 	0.0277	0.9095	0.09323	-0.196
Mof_C 	C 	0.9572	0.95909	0.10799	0.128
Mof_H 	H 	0.9312	0.9534	0.1474	0.006
Mof_C 	C 	0.9262	0.01492	0.06641	-0.181
Mof_H 	H 	0.8789	0.0477	0.0771	0.083
Mof_C 	C 	0.066	0.9182	0.03688	0.056
Mof_H 	H 	0.1137	0.8851	0.0273	0.01
Mof_C 	C 	0.0358	0.97537	0.99284	-0.106
Mof_C 	C 	0.2259	0.72204	0.30657	0.318
Mof_C 	C 	0.2405	0.72078	0.37983	-0.083
Mof_C 	C 	0.303	0.66902	0.41418	0.008
Mof_H 	H 	0.3326	0.6335	0.3906	0.037
Mof_C 	C 	0.3213	0.66943	0.48117	-0.092
Mof_H 	H 	0.3618	0.6331	0.5037	0.065
Mof_C 	C 	0.1986	0.77235	0.41336	-0.041
Mof_H 	H 	0.1548	0.806	0.3899	0.052
Mof_C 	C 	0.2191	0.77681	0.48287	0.021
Mof_Co	Co	0.27981	0.24478	0.31238	1.121
Mof_O 	O 	0.35518	0.15394	0.34307	-0.46
Mof_O 	O 	0.50433	0.1731	0.32261	-0.425
Mof_O 	O 	0.36745	0.31251	0.37065	-0.476
Mof_O 	O 	0.49136	0.33448	0.3174	-0.423
Mof_O 	O 	0.21153	0.19329	0.22275	-0.412
Mof_O 	O 	0.34516	0.25612	0.22552	-0.499
Mof_C 	C 	0.444	0.14399	0.35249	0.385
Mof_C 	C 	0.4812	0.09102	0.40709	-0.093
Mof_C 	C 	0.5794	0.08816	0.43225	0.014
Mof_H 	H 	0.6231	0.1172	0.4129	0.041
Mof_C 	C 	0.6129	0.04427	0.48401	-0.089
Mof_H 	H 	0.6795	0.0438	0.5009	0.059
Mof_C 	C 	0.4183	0.04842	0.43382	-0.032
Mof_H 	H 	0.3519	0.0506	0.4166	0.045
Mof_C 	C 	0.4507	0.00089	0.48703	0.015
Mof_C 	C 	0.4415	0.34703	0.36061	0.38
Mof_C 	C 	0.4723	0.4095	0.40677	-0.097
Mof_C 	C 	0.5428	0.45909	0.39201	0.01
Mof_H 	H 	0.5688	0.4534	0.3526	0.036
Mof_C 	C 	0.5738	0.51492	0.43359	-0.087
Mof_H 	H 	0.6211	0.5477	0.4229	0.048
Mof_C 	C 	0.434	0.4182	0.46312	-0.029
Mof_H 	H 	0.3863	0.3851	0.4727	0.04
Mof_C 	C 	0.4642	0.47537	0.50716	0.014
Mof_C 	C 	0.2741	0.22204	0.19343	0.316
Mof_C 	C 	0.2595	0.22078	0.12017	-0.076
Mof_C 	C 	0.197	0.16902	0.08582	-0.001
Mof_H 	H 	0.1674	0.1335	0.1094	0.036
Mof_C 	C 	0.1787	0.16943	0.01883	-0.081
Mof_H 	H 	0.1382	0.1331	0.9963	0.055
Mof_C 	C 	0.3014	0.27235	0.08664	-0.05
Mof_H 	H 	0.3452	0.306	0.1101	0.061
Mof_C 	C 	0.2809	0.27681	0.01713	0.034
Mof_Co	Co	0.77981	0.74478	0.31238	1.124
Mof_O 	O 	0.85518	0.65394	0.34307	-0.46
Mof_O 	O 	0.00433	0.6731	0.32261	-0.458
Mof_O 	O 	0.86745	0.81251	0.37065	-0.463
Mof_O 	O 	0.99136	0.83448	0.3174	-0.392
Mof_O 	O 	0.71153	0.69329	0.22275	-0.405
Mof_O 	O 	0.84516	0.75612	0.22552	-0.488
Mof_C 	C 	0.944	0.64399	0.35249	0.401
Mof_C 	C 	0.9812	0.59102	0.40709	-0.008
Mof_C 	C 	0.0794	0.58816	0.43225	-0.096
Mof_H 	H 	0.1231	0.6172	0.4129	0.073
Mof_C 	C 	0.1129	0.54427	0.48401	-0.001
Mof_H 	H 	0.1795	0.5438	0.5009	0.028
Mof_C 	C 	0.9183	0.54842	0.43382	-0.107
Mof_H 	H 	0.8519	0.5506	0.4166	0.071
Mof_C 	C 	0.9507	0.50089	0.48703	0.128
Mof_C 	C 	0.9415	0.84703	0.36061	0.349
Mof_C 	C 	0.9723	0.9095	0.40677	0.003
Mof_C 	C 	0.0428	0.95909	0.39201	-0.108
Mof_H 	H 	0.0688	0.9534	0.3526	0.065
Mof_C 	C 	0.0738	0.01492	0.43359	0.006
Mof_H 	H 	0.1211	0.0477	0.4229	0.014
Mof_C 	C 	0.934	0.9182	0.46312	-0.114
Mof_H 	H 	0.8863	0.8851	0.4727	0.071
Mof_C 	C 	0.9642	0.97537	0.50716	0.134
Mof_C 	C 	0.7741	0.72204	0.19343	0.315
Mof_C 	C 	0.7595	0.72078	0.12017	-0.071
Mof_C 	C 	0.697	0.66902	0.08582	0.002
Mof_H 	H 	0.6674	0.6335	0.1094	0.04
Mof_C 	C 	0.6787	0.66943	0.01883	-0.083
Mof_H 	H 	0.6382	0.6331	0.9963	0.062
Mof_C 	C 	0.8014	0.77235	0.08664	-0.048
Mof_H 	H 	0.8452	0.806	0.1101	0.067
Mof_C 	C 	0.7809	0.77681	0.01713	0.033
Mof_Co	Co	0.27981	0.75522	0.81238	1.121
Mof_O 	O 	0.35518	0.84606	0.84307	-0.46
Mof_O 	O 	0.50433	0.8269	0.82261	-0.425
Mof_O 	O 	0.36745	0.68749	0.87065	-0.476
Mof_O 	O 	0.49136	0.66552	0.8174	-0.423
Mof_O 	O 	0.21153	0.80671	0.72275	-0.412
Mof_O 	O 	0.34516	0.74388	0.72552	-0.499
Mof_C 	C 	0.444	0.85601	0.85249	0.385
Mof_C 	C 	0.4812	0.90898	0.90709	-0.095
Mof_C 	C 	0.5794	0.91184	0.93225	0.017
Mof_H 	H 	0.6231	0.8828	0.9129	0.041
Mof_C 	C 	0.6129	0.95573	0.98401	-0.093
Mof_H 	H 	0.6795	0.9562	0.0009	0.06
Mof_C 	C 	0.4183	0.95158	0.93382	-0.029
Mof_H 	H 	0.3519	0.9494	0.9166	0.044
Mof_C 	C 	0.4507	0.99911	0.98703	0.011
Mof_C 	C 	0.4415	0.65297	0.86061	0.379
Mof_C 	C 	0.4723	0.5905	0.90677	-0.095
Mof_C 	C 	0.5428	0.54091	0.89201	0.008
Mof_H 	H 	0.5688	0.5466	0.8526	0.037
Mof_C 	C 	0.5738	0.48508	0.93359	-0.084
Mof_H 	H 	0.6211	0.4523	0.9229	0.047
Mof_C 	C 	0.434	0.5818	0.96312	-0.032
Mof_H 	H 	0.3863	0.6149	0.9727	0.041
Mof_C 	C 	0.4642	0.52463	0.00716	0.018
Mof_C 	C 	0.2741	0.77796	0.69343	0.318
Mof_C 	C 	0.2595	0.77922	0.62017	-0.08
Mof_C 	C 	0.197	0.83098	0.58582	0.005
Mof_H 	H 	0.1674	0.8665	0.6094	0.034
Mof_C 	C 	0.1787	0.83057	0.51883	-0.091
Mof_H 	H 	0.1382	0.8669	0.4963	0.059
Mof_C 	C 	0.3014	0.72765	0.58664	-0.045
Mof_H 	H 	0.3452	0.694	0.6101	0.059
Mof_C 	C 	0.2809	0.72319	0.51713	0.026
Mof_Co	Co	0.77981	0.25522	0.81238	1.124
Mof_O 	O 	0.85518	0.34606	0.84307	-0.46
Mof_O 	O 	0.00433	0.3269	0.82261	-0.458
Mof_O 	O 	0.86745	0.18749	0.87065	-0.463
Mof_O 	O 	0.99136	0.16552	0.8174	-0.391
Mof_O 	O 	0.71153	0.30671	0.72275	-0.405
Mof_O 	O 	0.84516	0.24388	0.72552	-0.488
Mof_C 	C 	0.944	0.35601	0.85249	0.402
Mof_C 	C 	0.9812	0.40898	0.90709	-0.012
Mof_C 	C 	0.0794	0.41184	0.93225	-0.091
Mof_H 	H 	0.1231	0.3828	0.9129	0.072
Mof_C 	C 	0.1129	0.45573	0.98401	-0.009
Mof_H 	H 	0.1795	0.4562	0.0009	0.031
Mof_C 	C 	0.9183	0.45158	0.93382	-0.103
Mof_H 	H 	0.8519	0.4494	0.9166	0.07
Mof_C 	C 	0.9507	0.49911	0.98703	0.121
Mof_C 	C 	0.9415	0.15297	0.86061	0.348
Mof_C 	C 	0.9723	0.0905	0.90677	0.005
Mof_C 	C 	0.0428	0.04091	0.89201	-0.11
Mof_H 	H 	0.0688	0.0466	0.8526	0.066
Mof_C 	C 	0.0738	0.98508	0.93359	0.009
Mof_H 	H 	0.1211	0.9523	0.9229	0.013
Mof_C 	C 	0.934	0.0818	0.96312	-0.117
Mof_H 	H 	0.8863	0.1149	0.9727	0.071
Mof_C 	C 	0.9642	0.02463	0.00716	0.137
Mof_C 	C 	0.7741	0.27796	0.69343	0.316
Mof_C 	C 	0.7595	0.27922	0.62017	-0.073
Mof_C 	C 	0.697	0.33098	0.58582	0.005
Mof_H 	H 	0.6674	0.3665	0.6094	0.039
Mof_C 	C 	0.6787	0.33057	0.51883	-0.088
Mof_H 	H 	0.6382	0.3669	0.4963	0.064
Mof_C 	C 	0.8014	0.22765	0.58664	-0.046
Mof_H 	H 	0.8452	0.194	0.6101	0.066
Mof_C 	C 	0.7809	0.22319	0.51713	0.03
Mof_Co	Co	0.72019	0.75522	0.68762	1.125
Mof_O 	O 	0.64482	0.84606	0.65693	-0.457
Mof_O 	O 	0.49567	0.8269	0.67739	-0.425
Mof_O 	O 	0.63255	0.68749	0.62935	-0.473
Mof_O 	O 	0.50864	0.66552	0.6826	-0.423
Mof_O 	O 	0.78847	0.80671	0.77725	-0.401
Mof_O 	O 	0.65484	0.74388	0.77448	-0.497
Mof_C 	C 	0.556	0.85601	0.64751	0.384
Mof_C 	C 	0.5188	0.90898	0.59291	-0.091
Mof_C 	C 	0.4206	0.91184	0.56775	0.012
Mof_H 	H 	0.3769	0.8828	0.5871	0.042
Mof_C 	C 	0.3871	0.95573	0.51599	-0.087
Mof_H 	H 	0.3205	0.9562	0.4991	0.057
Mof_C 	C 	0.5817	0.95158	0.56618	-0.034
Mof_H 	H 	0.6481	0.9494	0.5834	0.047
Mof_C 	C 	0.5493	0.99911	0.51297	0.018
Mof_C 	C 	0.5585	0.65297	0.63939	0.38
Mof_C 	C 	0.5277	0.5905	0.59323	-0.096
Mof_C 	C 	0.4572	0.54091	0.60799	0.01
Mof_H 	H 	0.4312	0.5466	0.6474	0.035
Mof_C 	C 	0.4262	0.48508	0.56641	-0.086
Mof_H 	H 	0.3789	0.4523	0.5771	0.048
Mof_C 	C 	0.566	0.5818	0.53688	-0.03
Mof_H 	H 	0.6137	0.6149	0.5273	0.041
Mof_C 	C 	0.5358	0.52463	0.49284	0.015
Mof_C 	C 	0.7259	0.77796	0.80657	0.318
Mof_C 	C 	0.7405	0.77922	0.87983	-0.078
Mof_C 	C 	0.803	0.83098	0.91418	0.012
Mof_H 	H 	0.8326	0.8665	0.8906	0.041
Mof_C 	C 	0.8213	0.83057	0.98117	-0.093
Mof_H 	H 	0.8618	0.8669	0.0037	0.072
Mof_C 	C 	0.6986	0.72765	0.91336	-0.04
Mof_H 	H 	0.6548	0.694	0.8899	0.058
Mof_C 	C 	0.7191	0.72319	0.98287	0.02
Mof_Co	Co	0.22019	0.25522	0.68762	1.122
Mof_O 	O 	0.14482	0.34606	0.65693	-0.456
Mof_O 	O 	0.99567	0.3269	0.67739	-0.387
Mof_O 	O 	0.13255	0.18749	0.62935	-0.485
Mof_O 	O 	0.00864	0.16552	0.6826	-0.45
Mof_O 	O 	0.28847	0.30671	0.77725	-0.408
Mof_O 	O 	0.15484	0.24388	0.77448	-0.504
Mof_C 	C 	0.056	0.35601	0.64751	0.367
Mof_C 	C 	0.0188	0.40898	0.59291	-0.176
Mof_C 	C 	0.9206	0.41184	0.56775	0.122
Mof_H 	H 	0.8769	0.3828	0.5871	0.01
Mof_C 	C 	0.8871	0.45573	0.51599	-0.175
Mof_H 	H 	0.8205	0.4562	0.4991	0.088
Mof_C 	C 	0.0817	0.45158	0.56618	0.041
Mof_H 	H 	0.1481	0.4494	0.5834	0.021
Mof_C 	C 	0.0493	0.49911	0.51297	-0.095
Mof_C 	C 	0.0585	0.15297	0.63939	0.409
Mof_C 	C 	0.0277	0.0905	0.59323	-0.196
Mof_C 	C 	0.9572	0.04091	0.60799	0.127
Mof_H 	H 	0.9312	0.0466	0.6474	0.006
Mof_C 	C 	0.9262	0.98508	0.56641	-0.179
Mof_H 	H 	0.8789	0.9523	0.5771	0.082
Mof_C 	C 	0.066	0.0818	0.53688	0.055
Mof_H 	H 	0.1137	0.1149	0.5273	0.011
Mof_C 	C 	0.0358	0.02463	0.49284	-0.104
Mof_C 	C 	0.2259	0.27796	0.80657	0.32
Mof_C 	C 	0.2405	0.27922	0.87983	-0.087
Mof_C 	C 	0.303	0.33098	0.91418	0.013
Mof_H 	H 	0.3326	0.3665	0.8906	0.035
Mof_C 	C 	0.3213	0.33057	0.98117	-0.1
Mof_H 	H 	0.3618	0.3669	0.0037	0.069
Mof_C 	C 	0.1986	0.22765	0.91336	-0.036
Mof_H 	H 	0.1548	0.194	0.8899	0.05
Mof_C 	C 	0.2191	0.22319	0.98287	0.012
Mof_Co	Co	0.5	0.25167	0.25	1.2
Mof_Co	Co	1.58893e-33	0.75167	0.25	1.185
Mof_Co	Co	0.5	0.74833	0.75	1.2
Mof_Co	Co	4.7668e-33	0.24833	0.75	1.185
_end
