data_functionalizedCrystal
_audit_creation_method	'EQeq! by Chris Wilmer'
_symmetry_space_group_name_H-M	'P1'
_symmetry_Int_Tables_number	1
_symmetry_cell_setting	triclinic
loop_
_symmetry_equiv_pos_as_xyz
  x,y,z
_cell_length_a	7.8516
_cell_length_b	10.7383
_cell_length_c	14.1928
_cell_angle_alpha	112.229
_cell_angle_beta	90
_cell_angle_gamma	90
loop_
_atom_site_label
_atom_site_type_symbol
_atom_site_fract_x
_atom_site_fract_y
_atom_site_fract_z
_atom_site_charge
Mof_Cd	Cd	0.0327	0.01092	0.02184	0.393
Mof_Cd	Cd	0.4539	0.23973	0.47946	0.394
Mof_Cd	Cd	0.5327	0.98908	0.97816	0.386
Mof_Cd	Cd	0.9539	0.76027	0.52054	0.383
Mof_Cd	Cd	0.746	0.62408	0.24816	0.39
Mof_Cd	Cd	0.246	0.37592	0.75184	0.396
Mof_H 	H 	0.9957	0.8142	0.1652	0.012
Mof_H 	H 	0.523	0.7334	0.0734	0.012
Mof_H 	H 	0.5621	0.3688	0.3002	0.003
Mof_H 	H 	0.7438	0.503	0.5724	0.015
Mof_H 	H 	0.4957	0.1858	0.8348	0.015
Mof_H 	H 	0.023	0.2666	0.9266	0.015
Mof_H 	H 	0.0621	0.6312	0.6998	0.005
Mof_H 	H 	0.2438	0.497	0.4276	0.018
Mof_H 	H 	0.4957	0.649	0.8348	0.015
Mof_H 	H 	0.023	0.66	0.9266	0.015
Mof_H 	H 	0.0621	0.0686	0.6998	0.006
Mof_H 	H 	0.2438	0.9306	0.4276	0.017
Mof_H 	H 	0.9957	0.351	0.1652	0.012
Mof_H 	H 	0.523	0.34	0.0734	0.012
Mof_H 	H 	0.5621	0.9314	0.3002	0.003
Mof_H 	H 	0.7438	0.0694	0.5724	0.016
Mof_H 	H 	0.5784	0.1193	0.2386	0.01
Mof_H 	H 	0.0932	0.1488	0.2976	0.008
Mof_H 	H 	0.0784	0.8807	0.7614	0.026
Mof_H 	H 	0.5932	0.8512	0.7024	0.006
Mof_C 	C 	0.891	0.8131	0.1342	0.093
Mof_C 	C 	0.633	0.768	0.084	0.087
Mof_C 	C 	0.617	0.4219	0.3598	0.105
Mof_C 	C 	0.715	0.4943	0.5066	0.097
Mof_C 	C 	0.391	0.1869	0.8658	0.095
Mof_C 	C 	0.133	0.232	0.916	0.088
Mof_C 	C 	0.117	0.5781	0.6402	0.107
Mof_C 	C 	0.215	0.5057	0.4934	0.099
Mof_C 	C 	0.391	0.6789	0.8658	0.094
Mof_C 	C 	0.133	0.684	0.916	0.088
Mof_C 	C 	0.117	0.0621	0.6402	0.105
Mof_C 	C 	0.215	0.9877	0.4934	0.101
Mof_C 	C 	0.891	0.3211	0.1342	0.093
Mof_C 	C 	0.633	0.316	0.084	0.087
Mof_C 	C 	0.617	0.9379	0.3598	0.106
Mof_C 	C 	0.715	0.0123	0.5066	0.097
Mof_C 	C 	0.461	0.1149	0.2298	0.078
Mof_C 	C 	0.195	0.1309	0.2618	0.104
Mof_C 	C 	0.961	0.8851	0.7702	0.053
Mof_C 	C 	0.695	0.8691	0.7382	0.102
Mof_Br	Br	0.0599	0.65536	0.31072	-0.299
Mof_Br	Br	0.5599	0.34464	0.68928	-0.314
Mof_N 	N 	0.856	0.8882	0.0844	-0.124
Mof_N 	N 	0.689	0.8598	0.05	-0.115
Mof_N 	N 	0.757	0.7305	0.1366	-0.153
Mof_N 	N 	0.696	0.533	0.3706	-0.117
Mof_N 	N 	0.759	0.5826	0.4652	-0.112
Mof_N 	N 	0.624	0.3927	0.4424	-0.157
Mof_N 	N 	0.356	0.1118	0.9156	-0.121
Mof_N 	N 	0.189	0.1402	0.95	-0.114
Mof_N 	N 	0.257	0.2695	0.8634	-0.152
Mof_N 	N 	0.196	0.467	0.6294	-0.115
Mof_N 	N 	0.259	0.4174	0.5348	-0.111
Mof_N 	N 	0.124	0.6073	0.5576	-0.153
Mof_N 	N 	0.356	0.8038	0.9156	-0.122
Mof_N 	N 	0.189	0.8098	0.95	-0.114
Mof_N 	N 	0.257	0.5939	0.8634	-0.152
Mof_N 	N 	0.196	0.1624	0.6294	-0.115
Mof_N 	N 	0.259	0.1174	0.5348	-0.112
Mof_N 	N 	0.124	0.9503	0.5576	-0.153
Mof_N 	N 	0.856	0.1962	0.0844	-0.124
Mof_N 	N 	0.689	0.1902	0.05	-0.116
Mof_N 	N 	0.757	0.4061	0.1366	-0.153
Mof_N 	N 	0.696	0.8376	0.3706	-0.117
Mof_N 	N 	0.759	0.8826	0.4652	-0.112
Mof_N 	N 	0.624	0.0497	0.4424	-0.157
Mof_N 	N 	0.347	0.152	0.304	-0.154
Mof_N 	N 	0.373	0.0663	0.1326	-0.107
Mof_N 	N 	0.208	0.0804	0.1608	-0.118
Mof_N 	N 	0.847	0.848	0.696	-0.152
Mof_N 	N 	0.873	0.9337	0.8674	-0.108
Mof_N 	N 	0.708	0.9196	0.8392	-0.119
_end
