data_functionalizedCrystal
_audit_creation_method	'EQeq! by Chris Wilmer'
_symmetry_space_group_name_H-M	'P1'
_symmetry_Int_Tables_number	1
_symmetry_cell_setting	triclinic
loop_
_symmetry_equiv_pos_as_xyz
  x,y,z
_cell_length_a	8.1403
_cell_length_b	13.2828
_cell_length_c	17.5175
_cell_angle_alpha	90
_cell_angle_beta	90
_cell_angle_gamma	90
loop_
_atom_site_label
_atom_site_type_symbol
_atom_site_fract_x
_atom_site_fract_y
_atom_site_fract_z
_atom_site_charge
Mof_Mn	Mn	0.52332	0.79092	0.60412	0.724
Mof_Mn	Mn	0.02332	0.20908	0.39588	0.662
Mof_Mn	Mn	0.52332	0.70908	0.10412	0.721
Mof_Mn	Mn	0.02332	0.29092	0.89588	0.663
Mof_Hg	Hg	0.00259	0.77216	0.33839	0.115
Mof_Hg	Hg	0.50259	0.22784	0.66161	0.134
Mof_Hg	Hg	0.00259	0.72784	0.83839	0.115
Mof_Hg	Hg	0.50259	0.27216	0.16161	0.134
Mof_H 	H 	0.3471	0.5665	0.6385	-0.001
Mof_H 	H 	0.2915	0.4198	0.3992	0
Mof_H 	H 	0.3834	0.5052	0.294	0.095
Mof_H 	H 	0.4933	0.663	0.3083	0.001
Mof_H 	H 	0.8471	0.4335	0.3615	0.012
Mof_H 	H 	0.7915	0.5802	0.6008	0.006
Mof_H 	H 	0.8834	0.4948	0.706	0.104
Mof_H 	H 	0.9933	0.337	0.6917	0.015
Mof_H 	H 	0.3471	0.9335	0.1385	-0.001
Mof_H 	H 	0.2915	0.0802	0.8992	0.004
Mof_H 	H 	0.3834	0.9948	0.794	0.092
Mof_H 	H 	0.4933	0.837	0.8083	0.003
Mof_H 	H 	0.8471	0.0665	0.8615	0.012
Mof_H 	H 	0.7915	0.9198	0.1008	0.006
Mof_H 	H 	0.8834	0.0052	0.206	0.102
Mof_H 	H 	0.9933	0.163	0.1917	0.015
Mof_C 	C 	0.426	0.6219	0.4784	0.19
Mof_C 	C 	0.3604	0.5687	0.5858	0.106
Mof_C 	C 	0.3383	0.4834	0.4034	0.108
Mof_C 	C 	0.3913	0.5336	0.3424	-0.178
Mof_C 	C 	0.4587	0.629	0.3518	0.111
Mof_C 	C 	0.166	0.8359	0.6951	0.09
Mof_C 	C 	0.6666	0.6674	0.7569	0.098
Mof_C 	C 	0.8867	0.7584	0.5157	0.158
Mof_C 	C 	0.6592	0.0068	0.6761	0.09
Mof_C 	C 	0.926	0.3781	0.5216	0.2
Mof_C 	C 	0.8604	0.4313	0.4142	0.114
Mof_C 	C 	0.8383	0.5166	0.5966	0.118
Mof_C 	C 	0.8913	0.4664	0.6576	-0.174
Mof_C 	C 	0.9587	0.371	0.6482	0.115
Mof_C 	C 	0.666	0.1641	0.3049	0.091
Mof_C 	C 	0.1666	0.3326	0.2431	0.085
Mof_C 	C 	0.3867	0.2416	0.4843	0.098
Mof_C 	C 	0.1592	0.9932	0.3239	0.078
Mof_C 	C 	0.426	0.8781	0.9784	0.196
Mof_C 	C 	0.3604	0.9313	0.0858	0.104
Mof_C 	C 	0.3383	0.0166	0.9034	0.097
Mof_C 	C 	0.3913	0.9664	0.8424	-0.167
Mof_C 	C 	0.4587	0.871	0.8518	0.107
Mof_C 	C 	0.166	0.6641	0.1951	0.09
Mof_C 	C 	0.6666	0.8326	0.2569	0.098
Mof_C 	C 	0.8867	0.7416	0.0157	0.148
Mof_C 	C 	0.6592	0.4932	0.1761	0.092
Mof_C 	C 	0.926	0.1219	0.0216	0.195
Mof_C 	C 	0.8604	0.0687	0.9142	0.113
Mof_C 	C 	0.8383	0.9834	0.0966	0.113
Mof_C 	C 	0.8913	0.0336	0.1576	-0.17
Mof_C 	C 	0.9587	0.129	0.1482	0.113
Mof_C 	C 	0.666	0.3359	0.8049	0.092
Mof_C 	C 	0.1666	0.1674	0.7431	0.084
Mof_C 	C 	0.3867	0.2584	0.9843	0.105
Mof_C 	C 	0.1592	0.5068	0.8239	0.077
Mof_S 	S 	0.74203	0.61949	0.83612	-0.051
Mof_S 	S 	0.0705	0.74392	0.47646	-0.123
Mof_S 	S 	0.7406	0.11251	0.70844	-0.047
Mof_S 	S 	0.0003	0.86929	0.74399	-0.101
Mof_S 	S 	0.24203	0.38051	0.16388	-0.095
Mof_S 	S 	0.5705	0.25608	0.52354	-0.065
Mof_S 	S 	0.2406	0.88749	0.29156	-0.074
Mof_S 	S 	0.5003	0.13071	0.25601	-0.069
Mof_S 	S 	0.74203	0.88051	0.33612	-0.054
Mof_S 	S 	0.0705	0.75608	0.97646	-0.113
Mof_S 	S 	0.7406	0.38749	0.20844	-0.048
Mof_S 	S 	0.0003	0.63071	0.24399	-0.102
Mof_S 	S 	0.24203	0.11949	0.66388	-0.095
Mof_S 	S 	0.5705	0.24392	0.02354	-0.072
Mof_S 	S 	0.2406	0.61251	0.79156	-0.073
Mof_S 	S 	0.5003	0.36929	0.75601	-0.068
Mof_N 	N 	0.4308	0.6476	0.5513	-0.21
Mof_N 	N 	0.3555	0.5294	0.4715	-0.127
Mof_N 	N 	0.2815	0.8157	0.6605	-0.199
Mof_N 	N 	0.6111	0.7005	0.7021	-0.19
Mof_N 	N 	0.7662	0.7681	0.5463	-0.207
Mof_N 	N 	0.6041	0.9319	0.655	-0.198
Mof_N 	N 	0.3109	0.4944	0.542	-0.098
Mof_N 	N 	0.4766	0.6742	0.4179	-0.164
Mof_N 	N 	0.9308	0.3524	0.4487	-0.194
Mof_N 	N 	0.8555	0.4706	0.5285	-0.124
Mof_N 	N 	0.7815	0.1843	0.3395	-0.18
Mof_N 	N 	0.1111	0.2995	0.2979	-0.199
Mof_N 	N 	0.2662	0.2319	0.4537	-0.199
Mof_N 	N 	0.1041	0.0681	0.345	-0.209
Mof_N 	N 	0.8109	0.5056	0.458	-0.086
Mof_N 	N 	0.9766	0.3258	0.5821	-0.154
Mof_N 	N 	0.4308	0.8524	0.0513	-0.213
Mof_N 	N 	0.3555	0.9706	0.9715	-0.121
Mof_N 	N 	0.2815	0.6843	0.1605	-0.199
Mof_N 	N 	0.6111	0.7995	0.2021	-0.19
Mof_N 	N 	0.7662	0.7319	0.0463	-0.205
Mof_N 	N 	0.6041	0.5681	0.155	-0.2
Mof_N 	N 	0.3109	0.0056	0.042	-0.101
Mof_N 	N 	0.4766	0.8258	0.9179	-0.163
Mof_N 	N 	0.9308	0.1476	0.9487	-0.191
Mof_N 	N 	0.8555	0.0294	0.0285	-0.125
Mof_N 	N 	0.7815	0.3157	0.8395	-0.18
Mof_N 	N 	0.1111	0.2005	0.7979	-0.2
Mof_N 	N 	0.2662	0.2681	0.9537	-0.199
Mof_N 	N 	0.1041	0.4319	0.845	-0.207
Mof_N 	N 	0.8109	0.9944	0.958	-0.082
Mof_N 	N 	0.9766	0.1742	0.0821	-0.154
_end
