data_functionalizedCrystal
_audit_creation_method	'EQeq! by Chris Wilmer'
_symmetry_space_group_name_H-M	'P1'
_symmetry_Int_Tables_number	1
_symmetry_cell_setting	triclinic
loop_
_symmetry_equiv_pos_as_xyz
  x,y,z
_cell_length_a	6.0408
_cell_length_b	12.3324
_cell_length_c	23.577
_cell_angle_alpha	90
_cell_angle_beta	90
_cell_angle_gamma	94.1104
loop_
_atom_site_label
_atom_site_type_symbol
_atom_site_fract_x
_atom_site_fract_y
_atom_site_fract_z
_atom_site_charge
Mof_Tm	Tm	0.51017	0.60973	0.17145	1.596
Mof_Tm	Tm	0.01017	0.10973	0.32855	1.518
Mof_Tm	Tm	0.48983	0.39027	0.82855	1.606
Mof_Tm	Tm	0.98983	0.89027	0.67145	1.642
Mof_Cu	Cu	-0	0	-0	0.886
Mof_Cu	Cu	0.5	0.5	0.5	0.927
Mof_H 	H 	0.5295	0.2745	0.3358	0.037
Mof_H 	H 	0.9513	0.6234	0.3285	0.056
Mof_H 	H 	0.1124	0.0782	0.7921	0.004
Mof_H 	H 	0.4513	0.1234	0.1715	0.069
Mof_H 	H 	0.0487	0.3766	0.6715	0.057
Mof_H 	H 	0.1748	0.1429	0.1037	0.035
Mof_H 	H 	0.5487	0.8766	0.8285	0.045
Mof_H 	H 	0.6124	0.5782	0.7079	0.034
Mof_H 	H 	0.9705	0.2255	0.8358	0.048
Mof_H 	H 	0.8252	0.8571	0.8963	0.064
Mof_H 	H 	0.8876	0.9218	0.2079	0.075
Mof_H 	H 	0.3876	0.4218	0.2921	0.032
Mof_H 	H 	0.4705	0.7255	0.6642	0.034
Mof_H 	H 	0.0295	0.7745	0.1642	0.016
Mof_H 	H 	0.3252	0.3571	0.6037	0.048
Mof_H 	H 	0.6748	0.6429	0.3963	0.054
Mof_C 	C 	0.9329	0.5731	0.3578	0.039
Mof_C 	C 	0.3024	0.1667	0.9073	0.408
Mof_C 	C 	0.9851	0.5112	0.1964	0.449
Mof_C 	C 	0.1343	0.5691	0.5562	-0.029
Mof_C 	C 	0.4731	0.5988	0.7184	0.03
Mof_C 	C 	0.7354	0.9151	0.8988	0.016
Mof_C 	C 	0.9731	0.0988	0.7816	0.065
Mof_C 	C 	0.5149	0.9888	0.6964	0.443
Mof_C 	C 	0.0269	0.9012	0.2184	-0.023
Mof_C 	C 	0.1555	0.5724	0.77	-0.042
Mof_C 	C 	0.4675	0.0794	0.9043	-0.037
Mof_C 	C 	0.8925	0.1907	0.8062	0.006
Mof_C 	C 	0.5269	0.4012	0.2816	0.03
Mof_C 	C 	0.9111	0.3276	0.248	0.028
Mof_C 	C 	0.8164	0.3541	0.4921	0.286
Mof_C 	C 	0.1075	0.8093	0.1938	0.047
Mof_C 	C 	0.4329	0.0731	0.1422	-0.034
Mof_C 	C 	0.6976	0.8333	0.0927	0.414
Mof_C 	C 	0.4851	0.0112	0.3036	0.368
Mof_C 	C 	0.5671	0.9269	0.8578	0.061
Mof_C 	C 	0.4111	0.8276	0.252	-0.014
Mof_C 	C 	0.4026	0.2312	0.7221	0.332
Mof_C 	C 	0.8024	0.6667	0.5927	0.412
Mof_C 	C 	0.0974	0.2688	0.2221	0.302
Mof_C 	C 	0.6555	0.0724	0.73	-0.078
Mof_C 	C 	0.2646	0.0849	0.1012	0.037
Mof_C 	C 	0.8657	0.4309	0.4438	0.01
Mof_C 	C 	0.5325	0.9206	0.0957	-0.052
Mof_C 	C 	0.0889	0.6724	0.752	-0.02
Mof_C 	C 	0.6836	0.1459	0.9921	0.336
Mof_C 	C 	0.9675	0.5794	0.5957	-0.03
Mof_C 	C 	0.6075	0.3093	0.3062	0.024
Mof_C 	C 	0.7646	0.5849	0.3988	0.023
Mof_C 	C 	0.6343	0.0691	0.9438	-0.045
Mof_C 	C 	0.3445	0.9276	0.27	-0.014
Mof_C 	C 	0.0671	0.4269	0.6422	0.002
Mof_C 	C 	0.1836	0.6459	0.5079	0.294
Mof_C 	C 	0.3657	0.9309	0.0562	0.025
Mof_C 	C 	0.3925	0.6907	0.6938	0.022
Mof_C 	C 	0.5889	0.1724	0.748	-0.004
Mof_C 	C 	0.3164	0.8541	0.0079	0.244
Mof_C 	C 	0.2354	0.4151	0.6012	0.027
Mof_C 	C 	0.9026	0.7312	0.7779	0.346
Mof_C 	C 	0.0149	0.4888	0.8036	0.392
Mof_C 	C 	0.5974	0.7688	0.2779	0.338
Mof_C 	C 	0.8445	0.4276	0.23	-0.062
Mof_C 	C 	0.1976	0.3333	0.4073	0.411
Mof_C 	C 	0.0325	0.4206	0.4043	-0.068
Mof_N 	N 	0.7025	0.2297	0.78774	-0.171
Mof_N 	N 	0.3563	0.5401	0.75652	-0.161
Mof_N 	N 	0.5647	0.9914	0.1396	-0.061
Mof_N 	N 	0.2654	0.4865	0.55943	-0.182
Mof_N 	N 	0.2025	0.7297	0.71226	-0.176
Mof_N 	N 	0.7346	0.5135	0.44057	-0.183
Mof_N 	N 	0.7975	0.2703	0.28774	-0.169
Mof_N 	N 	0.4353	0.0086	0.8604	-0.116
Mof_N 	N 	0.6437	0.4599	0.24348	-0.157
Mof_N 	N 	0.1437	0.9599	0.25652	-0.143
Mof_N 	N 	0.2975	0.7703	0.21226	-0.178
Mof_N 	N 	0.2346	0.0135	0.05943	-0.216
Mof_N 	N 	0.0647	0.4914	0.3604	-0.101
Mof_N 	N 	0.8563	0.0401	0.74348	-0.172
Mof_N 	N 	0.9353	0.5086	0.6396	-0.084
Mof_N 	N 	0.7654	0.9865	0.94057	-0.143
Mof_O 	O 	0.3368	0.3094	0.75086	-0.431
Mof_O 	O 	0.178	0.8873	0.97121	-0.304
Mof_O 	O 	0.1879	0.5217	0.20657	-0.501
Mof_O 	O 	0.8368	0.8094	0.74914	-0.429
Mof_O 	O 	0.3389	0.2474	0.8747	-0.481
Mof_O 	O 	0.3121	0.9783	0.70657	-0.474
Mof_O 	O 	0.322	0.6127	0.47121	-0.35
Mof_O 	O 	0.3811	0.0688	0.33738	-0.449
Mof_O 	O 	0.3363	0.2044	0.67401	-0.28
Mof_O 	O 	0.4073	0.7692	0.0051	-0.259
Mof_O 	O 	0.8363	0.7044	0.82599	-0.265
Mof_O 	O 	0.3581	0.3498	0.4387	-0.345
Mof_O 	O 	0.1611	0.2526	0.3747	-0.476
Mof_O 	O 	0.6189	0.9312	0.66262	-0.465
Mof_O 	O 	0.1632	0.1906	0.25086	-0.422
Mof_O 	O 	0.822	0.1127	0.02879	-0.375
Mof_O 	O 	0.6879	0.0217	0.29343	-0.457
Mof_O 	O 	0.5927	0.2308	0.9949	-0.254
Mof_O 	O 	0.6637	0.7956	0.32599	-0.258
Mof_O 	O 	0.6419	0.6502	0.5613	-0.34
Mof_O 	O 	0.1419	0.1502	0.9387	-0.346
Mof_O 	O 	0.678	0.3873	0.52879	-0.348
Mof_O 	O 	0.8811	0.5688	0.16262	-0.463
Mof_O 	O 	0.6611	0.7526	0.1253	-0.477
Mof_O 	O 	0.8389	0.7474	0.6253	-0.48
Mof_O 	O 	0.8121	0.4783	0.79343	-0.46
Mof_O 	O 	0.8581	0.8498	0.0613	-0.331
Mof_O 	O 	0.0927	0.7308	0.5051	-0.259
Mof_O 	O 	0.9073	0.2692	0.4949	-0.249
Mof_O 	O 	0.6632	0.6906	0.24914	-0.424
Mof_O 	O 	0.1189	0.4312	0.83738	-0.459
Mof_O 	O 	0.1637	0.2956	0.17401	-0.274
_end
