data_functionalizedCrystal
_audit_creation_method	'EQeq! by Chris Wilmer'
_symmetry_space_group_name_H-M	'P1'
_symmetry_Int_Tables_number	1
_symmetry_cell_setting	triclinic
loop_
_symmetry_equiv_pos_as_xyz
  x,y,z
_cell_length_a	21.9524
_cell_length_b	21.9524
_cell_length_c	21.9524
_cell_angle_alpha	90
_cell_angle_beta	90
_cell_angle_gamma	90
loop_
_atom_site_label
_atom_site_type_symbol
_atom_site_fract_x
_atom_site_fract_y
_atom_site_fract_z
_atom_site_charge
Mof_Fe	Fe	0.76066	0.30344	0.17957	0.969
Mof_O 	O 	0.74559	0.24928	0.1069	-0.384
Mof_O 	O 	0.70377	0.16589	0.1492	-0.385
Mof_O 	O 	0.72652	0.2626	0.87422	-0.384
Mof_O 	O 	0.68617	0.1811	0.82914	-0.392
Mof_C 	C 	0.72181	0.1973	0.10426	0.386
Mof_C 	C 	0.7061	0.209	0.87463	0.397
Mof_C 	C 	0.7159	0.2028	0.98946	0.025
Mof_H 	H 	0.7239	0.2444	0.9913	0.05
Mof_C 	C 	0.7135	0.1689	0.04274	-0.075
Mof_C 	C 	0.7062	0.175	0.93328	-0.08
Mof_C 	C 	0.6971	0.1128	0.93005	-0.054
Mof_H 	H 	0.6915	0.0938	0.8926	0.079
Mof_C 	C 	0.6964	0.0794	0.9837	0.09
Mof_C 	C 	0.7036	0.1072	0.04	-0.054
Mof_H 	H 	0.7018	0.0842	0.0755	0.082
Mof_N 	N 	0.6926	0.01372	0.97621	-0.08
Mof_Fe	Fe	0.23934	0.69656	0.17957	0.969
Mof_O 	O 	0.25441	0.75072	0.1069	-0.384
Mof_O 	O 	0.29623	0.83411	0.1492	-0.385
Mof_O 	O 	0.27348	0.7374	0.87422	-0.384
Mof_O 	O 	0.31383	0.8189	0.82914	-0.392
Mof_C 	C 	0.27819	0.8027	0.10426	0.386
Mof_C 	C 	0.2939	0.791	0.87463	0.397
Mof_C 	C 	0.2841	0.7972	0.98946	0.025
Mof_H 	H 	0.2761	0.7556	0.9913	0.05
Mof_C 	C 	0.2865	0.8311	0.04274	-0.075
Mof_C 	C 	0.2938	0.825	0.93328	-0.08
Mof_C 	C 	0.3029	0.8872	0.93005	-0.054
Mof_H 	H 	0.3085	0.9062	0.8926	0.079
Mof_C 	C 	0.3036	0.9206	0.9837	0.09
Mof_C 	C 	0.2964	0.8928	0.04	-0.054
Mof_H 	H 	0.2982	0.9158	0.0755	0.082
Mof_N 	N 	0.3074	0.98628	0.97621	-0.08
Mof_Fe	Fe	0.23934	0.30344	0.82043	0.969
Mof_O 	O 	0.25441	0.24928	0.8931	-0.384
Mof_O 	O 	0.29623	0.16589	0.8508	-0.385
Mof_O 	O 	0.27348	0.2626	0.12578	-0.384
Mof_O 	O 	0.31383	0.1811	0.17086	-0.392
Mof_C 	C 	0.27819	0.1973	0.89574	0.386
Mof_C 	C 	0.2939	0.209	0.12537	0.397
Mof_C 	C 	0.2841	0.2028	0.01054	0.025
Mof_H 	H 	0.2761	0.2444	0.0087	0.05
Mof_C 	C 	0.2865	0.1689	0.95726	-0.075
Mof_C 	C 	0.2938	0.175	0.06672	-0.08
Mof_C 	C 	0.3029	0.1128	0.06995	-0.054
Mof_H 	H 	0.3085	0.0938	0.1074	0.079
Mof_C 	C 	0.3036	0.0794	0.0163	0.09
Mof_C 	C 	0.2964	0.1072	0.96	-0.055
Mof_H 	H 	0.2982	0.0842	0.9245	0.081
Mof_N 	N 	0.3074	0.01372	0.02379	-0.081
Mof_Fe	Fe	0.76066	0.69656	0.82043	0.968
Mof_O 	O 	0.74559	0.75072	0.8931	-0.385
Mof_O 	O 	0.70377	0.83411	0.8508	-0.386
Mof_O 	O 	0.72652	0.7374	0.12578	-0.385
Mof_O 	O 	0.68617	0.8189	0.17086	-0.393
Mof_C 	C 	0.72181	0.8027	0.89574	0.385
Mof_C 	C 	0.7061	0.791	0.12537	0.396
Mof_C 	C 	0.7159	0.7972	0.01054	0.024
Mof_H 	H 	0.7239	0.7556	0.0087	0.049
Mof_C 	C 	0.7135	0.8311	0.95726	-0.076
Mof_C 	C 	0.7062	0.825	0.06672	-0.081
Mof_C 	C 	0.6971	0.8872	0.06995	-0.055
Mof_H 	H 	0.6915	0.9062	0.1074	0.078
Mof_C 	C 	0.6964	0.9206	0.0163	0.089
Mof_C 	C 	0.7036	0.8928	0.96	-0.055
Mof_H 	H 	0.7018	0.9158	0.9245	0.081
Mof_N 	N 	0.6926	0.98628	0.02379	-0.081
Mof_Fe	Fe	0.17957	0.76066	0.30344	0.968
Mof_O 	O 	0.1069	0.74559	0.24928	-0.385
Mof_O 	O 	0.1492	0.70377	0.16589	-0.386
Mof_O 	O 	0.87422	0.72652	0.2626	-0.385
Mof_O 	O 	0.82914	0.68617	0.1811	-0.393
Mof_C 	C 	0.10426	0.72181	0.1973	0.385
Mof_C 	C 	0.87463	0.7061	0.209	0.396
Mof_C 	C 	0.98946	0.7159	0.2028	0.024
Mof_H 	H 	0.9913	0.7239	0.2444	0.049
Mof_C 	C 	0.04274	0.7135	0.1689	-0.076
Mof_C 	C 	0.93328	0.7062	0.175	-0.081
Mof_C 	C 	0.93005	0.6971	0.1128	-0.055
Mof_H 	H 	0.8926	0.6915	0.0938	0.078
Mof_C 	C 	0.9837	0.6964	0.0794	0.089
Mof_C 	C 	0.04	0.7036	0.1072	-0.055
Mof_H 	H 	0.0755	0.7018	0.0842	0.081
Mof_N 	N 	0.97621	0.6926	0.01372	-0.081
Mof_Fe	Fe	0.17957	0.23934	0.69656	0.968
Mof_O 	O 	0.1069	0.25441	0.75072	-0.385
Mof_O 	O 	0.1492	0.29623	0.83411	-0.386
Mof_O 	O 	0.87422	0.27348	0.7374	-0.385
Mof_O 	O 	0.82914	0.31383	0.8189	-0.393
Mof_C 	C 	0.10426	0.27819	0.8027	0.385
Mof_C 	C 	0.87463	0.2939	0.791	0.396
Mof_C 	C 	0.98946	0.2841	0.7972	0.024
Mof_H 	H 	0.9913	0.2761	0.7556	0.049
Mof_C 	C 	0.04274	0.2865	0.8311	-0.076
Mof_C 	C 	0.93328	0.2938	0.825	-0.081
Mof_C 	C 	0.93005	0.3029	0.8872	-0.055
Mof_H 	H 	0.8926	0.3085	0.9062	0.078
Mof_C 	C 	0.9837	0.3036	0.9206	0.089
Mof_C 	C 	0.04	0.2964	0.8928	-0.055
Mof_H 	H 	0.0755	0.2982	0.9158	0.081
Mof_N 	N 	0.97621	0.3074	0.98628	-0.081
Mof_Fe	Fe	0.82043	0.23934	0.30344	0.968
Mof_O 	O 	0.8931	0.25441	0.24928	-0.385
Mof_O 	O 	0.8508	0.29623	0.16589	-0.386
Mof_O 	O 	0.12578	0.27348	0.2626	-0.385
Mof_O 	O 	0.17086	0.31383	0.1811	-0.393
Mof_C 	C 	0.89574	0.27819	0.1973	0.385
Mof_C 	C 	0.12537	0.2939	0.209	0.396
Mof_C 	C 	0.01054	0.2841	0.2028	0.024
Mof_H 	H 	0.0087	0.2761	0.2444	0.049
Mof_C 	C 	0.95726	0.2865	0.1689	-0.076
Mof_C 	C 	0.06672	0.2938	0.175	-0.081
Mof_C 	C 	0.06995	0.3029	0.1128	-0.055
Mof_H 	H 	0.1074	0.3085	0.0938	0.078
Mof_C 	C 	0.0163	0.3036	0.0794	0.089
Mof_C 	C 	0.96	0.2964	0.1072	-0.055
Mof_H 	H 	0.9245	0.2982	0.0842	0.081
Mof_N 	N 	0.02379	0.3074	0.01372	-0.081
Mof_Fe	Fe	0.82043	0.76066	0.69656	0.968
Mof_O 	O 	0.8931	0.74559	0.75072	-0.385
Mof_O 	O 	0.8508	0.70377	0.83411	-0.386
Mof_O 	O 	0.12578	0.72652	0.7374	-0.385
Mof_O 	O 	0.17086	0.68617	0.8189	-0.393
Mof_C 	C 	0.89574	0.72181	0.8027	0.385
Mof_C 	C 	0.12537	0.7061	0.791	0.396
Mof_C 	C 	0.01054	0.7159	0.7972	0.024
Mof_H 	H 	0.0087	0.7239	0.7556	0.049
Mof_C 	C 	0.95726	0.7135	0.8311	-0.076
Mof_C 	C 	0.06672	0.7062	0.825	-0.081
Mof_C 	C 	0.06995	0.6971	0.8872	-0.055
Mof_H 	H 	0.1074	0.6915	0.9062	0.078
Mof_C 	C 	0.0163	0.6964	0.9206	0.089
Mof_C 	C 	0.96	0.7036	0.8928	-0.055
Mof_H 	H 	0.9245	0.7018	0.9158	0.081
Mof_N 	N 	0.02379	0.6926	0.98628	-0.081
Mof_Fe	Fe	0.30344	0.17957	0.76066	0.968
Mof_O 	O 	0.24928	0.1069	0.74559	-0.385
Mof_O 	O 	0.16589	0.1492	0.70377	-0.386
Mof_O 	O 	0.2626	0.87422	0.72652	-0.385
Mof_O 	O 	0.1811	0.82914	0.68617	-0.393
Mof_C 	C 	0.1973	0.10426	0.72181	0.385
Mof_C 	C 	0.209	0.87463	0.7061	0.396
Mof_C 	C 	0.2028	0.98946	0.7159	0.024
Mof_H 	H 	0.2444	0.9913	0.7239	0.049
Mof_C 	C 	0.1689	0.04274	0.7135	-0.076
Mof_C 	C 	0.175	0.93328	0.7062	-0.081
Mof_C 	C 	0.1128	0.93005	0.6971	-0.055
Mof_H 	H 	0.0938	0.8926	0.6915	0.078
Mof_C 	C 	0.0794	0.9837	0.6964	0.089
Mof_C 	C 	0.1072	0.04	0.7036	-0.055
Mof_H 	H 	0.0842	0.0755	0.7018	0.081
Mof_N 	N 	0.01372	0.97621	0.6926	-0.081
Mof_Fe	Fe	0.69656	0.17957	0.23934	0.968
Mof_O 	O 	0.75072	0.1069	0.25441	-0.385
Mof_O 	O 	0.83411	0.1492	0.29623	-0.386
Mof_O 	O 	0.7374	0.87422	0.27348	-0.385
Mof_O 	O 	0.8189	0.82914	0.31383	-0.393
Mof_C 	C 	0.8027	0.10426	0.27819	0.385
Mof_C 	C 	0.791	0.87463	0.2939	0.396
Mof_C 	C 	0.7972	0.98946	0.2841	0.024
Mof_H 	H 	0.7556	0.9913	0.2761	0.049
Mof_C 	C 	0.8311	0.04274	0.2865	-0.076
Mof_C 	C 	0.825	0.93328	0.2938	-0.081
Mof_C 	C 	0.8872	0.93005	0.3029	-0.055
Mof_H 	H 	0.9062	0.8926	0.3085	0.078
Mof_C 	C 	0.9206	0.9837	0.3036	0.089
Mof_C 	C 	0.8928	0.04	0.2964	-0.055
Mof_H 	H 	0.9158	0.0755	0.2982	0.081
Mof_N 	N 	0.98628	0.97621	0.3074	-0.081
Mof_Fe	Fe	0.30344	0.82043	0.23934	0.968
Mof_O 	O 	0.24928	0.8931	0.25441	-0.385
Mof_O 	O 	0.16589	0.8508	0.29623	-0.386
Mof_O 	O 	0.2626	0.12578	0.27348	-0.385
Mof_O 	O 	0.1811	0.17086	0.31383	-0.393
Mof_C 	C 	0.1973	0.89574	0.27819	0.385
Mof_C 	C 	0.209	0.12537	0.2939	0.396
Mof_C 	C 	0.2028	0.01054	0.2841	0.024
Mof_H 	H 	0.2444	0.0087	0.2761	0.049
Mof_C 	C 	0.1689	0.95726	0.2865	-0.076
Mof_C 	C 	0.175	0.06672	0.2938	-0.081
Mof_C 	C 	0.1128	0.06995	0.3029	-0.055
Mof_H 	H 	0.0938	0.1074	0.3085	0.078
Mof_C 	C 	0.0794	0.0163	0.3036	0.089
Mof_C 	C 	0.1072	0.96	0.2964	-0.055
Mof_H 	H 	0.0842	0.9245	0.2982	0.081
Mof_N 	N 	0.01372	0.02379	0.3074	-0.081
Mof_Fe	Fe	0.69656	0.82043	0.76066	0.968
Mof_O 	O 	0.75072	0.8931	0.74559	-0.385
Mof_O 	O 	0.83411	0.8508	0.70377	-0.386
Mof_O 	O 	0.7374	0.12578	0.72652	-0.385
Mof_O 	O 	0.8189	0.17086	0.68617	-0.393
Mof_C 	C 	0.8027	0.89574	0.72181	0.385
Mof_C 	C 	0.791	0.12537	0.7061	0.396
Mof_C 	C 	0.7972	0.01054	0.7159	0.024
Mof_H 	H 	0.7556	0.0087	0.7239	0.049
Mof_C 	C 	0.8311	0.95726	0.7135	-0.076
Mof_C 	C 	0.825	0.06672	0.7062	-0.081
Mof_C 	C 	0.8872	0.06995	0.6971	-0.055
Mof_H 	H 	0.9062	0.1074	0.6915	0.078
Mof_C 	C 	0.9206	0.0163	0.6964	0.089
Mof_C 	C 	0.8928	0.96	0.7036	-0.055
Mof_H 	H 	0.9158	0.9245	0.7018	0.081
Mof_N 	N 	0.98628	0.02379	0.6926	-0.081
Mof_Fe	Fe	0.80344	0.26066	0.67957	0.968
Mof_O 	O 	0.74928	0.24559	0.6069	-0.385
Mof_O 	O 	0.66589	0.20377	0.6492	-0.386
Mof_O 	O 	0.7626	0.22652	0.37422	-0.385
Mof_O 	O 	0.6811	0.18617	0.32914	-0.393
Mof_C 	C 	0.6973	0.22181	0.60426	0.385
Mof_C 	C 	0.709	0.2061	0.37463	0.396
Mof_C 	C 	0.7028	0.2159	0.48946	0.024
Mof_H 	H 	0.7444	0.2239	0.4913	0.049
Mof_C 	C 	0.6689	0.2135	0.54274	-0.076
Mof_C 	C 	0.675	0.2062	0.43328	-0.081
Mof_C 	C 	0.6128	0.1971	0.43005	-0.055
Mof_H 	H 	0.5938	0.1915	0.3926	0.078
Mof_C 	C 	0.5794	0.1964	0.4837	0.089
Mof_C 	C 	0.6072	0.2036	0.54	-0.055
Mof_H 	H 	0.5842	0.2018	0.5755	0.081
Mof_N 	N 	0.51372	0.1926	0.47621	-0.081
Mof_Fe	Fe	0.19656	0.73934	0.67957	0.968
Mof_O 	O 	0.25072	0.75441	0.6069	-0.385
Mof_O 	O 	0.33411	0.79623	0.6492	-0.386
Mof_O 	O 	0.2374	0.77348	0.37422	-0.385
Mof_O 	O 	0.3189	0.81383	0.32914	-0.393
Mof_C 	C 	0.3027	0.77819	0.60426	0.385
Mof_C 	C 	0.291	0.7939	0.37463	0.396
Mof_C 	C 	0.2972	0.7841	0.48946	0.024
Mof_H 	H 	0.2556	0.7761	0.4913	0.049
Mof_C 	C 	0.3311	0.7865	0.54274	-0.076
Mof_C 	C 	0.325	0.7938	0.43328	-0.081
Mof_C 	C 	0.3872	0.8029	0.43005	-0.055
Mof_H 	H 	0.4062	0.8085	0.3926	0.078
Mof_C 	C 	0.4206	0.8036	0.4837	0.089
Mof_C 	C 	0.3928	0.7964	0.54	-0.055
Mof_H 	H 	0.4158	0.7982	0.5755	0.081
Mof_N 	N 	0.48628	0.8074	0.47621	-0.081
Mof_Fe	Fe	0.80344	0.73934	0.32043	0.968
Mof_O 	O 	0.74928	0.75441	0.3931	-0.385
Mof_O 	O 	0.66589	0.79623	0.3508	-0.386
Mof_O 	O 	0.7626	0.77348	0.62578	-0.385
Mof_O 	O 	0.6811	0.81383	0.67086	-0.393
Mof_C 	C 	0.6973	0.77819	0.39574	0.385
Mof_C 	C 	0.709	0.7939	0.62537	0.396
Mof_C 	C 	0.7028	0.7841	0.51054	0.024
Mof_H 	H 	0.7444	0.7761	0.5087	0.049
Mof_C 	C 	0.6689	0.7865	0.45726	-0.076
Mof_C 	C 	0.675	0.7938	0.56672	-0.081
Mof_C 	C 	0.6128	0.8029	0.56995	-0.055
Mof_H 	H 	0.5938	0.8085	0.6074	0.078
Mof_C 	C 	0.5794	0.8036	0.5163	0.089
Mof_C 	C 	0.6072	0.7964	0.46	-0.055
Mof_H 	H 	0.5842	0.7982	0.4245	0.081
Mof_N 	N 	0.51372	0.8074	0.52379	-0.081
Mof_Fe	Fe	0.19656	0.26066	0.32043	0.968
Mof_O 	O 	0.25072	0.24559	0.3931	-0.385
Mof_O 	O 	0.33411	0.20377	0.3508	-0.386
Mof_O 	O 	0.2374	0.22652	0.62578	-0.385
Mof_O 	O 	0.3189	0.18617	0.67086	-0.393
Mof_C 	C 	0.3027	0.22181	0.39574	0.385
Mof_C 	C 	0.291	0.2061	0.62537	0.396
Mof_C 	C 	0.2972	0.2159	0.51054	0.024
Mof_H 	H 	0.2556	0.2239	0.5087	0.049
Mof_C 	C 	0.3311	0.2135	0.45726	-0.076
Mof_C 	C 	0.325	0.2062	0.56672	-0.081
Mof_C 	C 	0.3872	0.1971	0.56995	-0.055
Mof_H 	H 	0.4062	0.1915	0.6074	0.078
Mof_C 	C 	0.4206	0.1964	0.5163	0.089
Mof_C 	C 	0.3928	0.2036	0.46	-0.055
Mof_H 	H 	0.4158	0.2018	0.4245	0.081
Mof_N 	N 	0.48628	0.1926	0.52379	-0.081
Mof_Fe	Fe	0.26066	0.67957	0.80344	0.968
Mof_O 	O 	0.24559	0.6069	0.74928	-0.385
Mof_O 	O 	0.20377	0.6492	0.66589	-0.386
Mof_O 	O 	0.22652	0.37422	0.7626	-0.385
Mof_O 	O 	0.18617	0.32914	0.6811	-0.393
Mof_C 	C 	0.22181	0.60426	0.6973	0.385
Mof_C 	C 	0.2061	0.37463	0.709	0.396
Mof_C 	C 	0.2159	0.48946	0.7028	0.024
Mof_H 	H 	0.2239	0.4913	0.7444	0.049
Mof_C 	C 	0.2135	0.54274	0.6689	-0.076
Mof_C 	C 	0.2062	0.43328	0.675	-0.081
Mof_C 	C 	0.1971	0.43005	0.6128	-0.055
Mof_H 	H 	0.1915	0.3926	0.5938	0.078
Mof_C 	C 	0.1964	0.4837	0.5794	0.089
Mof_C 	C 	0.2036	0.54	0.6072	-0.055
Mof_H 	H 	0.2018	0.5755	0.5842	0.081
Mof_N 	N 	0.1926	0.47621	0.51372	-0.081
Mof_Fe	Fe	0.73934	0.67957	0.19656	0.968
Mof_O 	O 	0.75441	0.6069	0.25072	-0.385
Mof_O 	O 	0.79623	0.6492	0.33411	-0.386
Mof_O 	O 	0.77348	0.37422	0.2374	-0.385
Mof_O 	O 	0.81383	0.32914	0.3189	-0.393
Mof_C 	C 	0.77819	0.60426	0.3027	0.385
Mof_C 	C 	0.7939	0.37463	0.291	0.396
Mof_C 	C 	0.7841	0.48946	0.2972	0.024
Mof_H 	H 	0.7761	0.4913	0.2556	0.049
Mof_C 	C 	0.7865	0.54274	0.3311	-0.076
Mof_C 	C 	0.7938	0.43328	0.325	-0.081
Mof_C 	C 	0.8029	0.43005	0.3872	-0.055
Mof_H 	H 	0.8085	0.3926	0.4062	0.078
Mof_C 	C 	0.8036	0.4837	0.4206	0.089
Mof_C 	C 	0.7964	0.54	0.3928	-0.055
Mof_H 	H 	0.7982	0.5755	0.4158	0.081
Mof_N 	N 	0.8074	0.47621	0.48628	-0.081
Mof_Fe	Fe	0.73934	0.32043	0.80344	0.968
Mof_O 	O 	0.75441	0.3931	0.74928	-0.385
Mof_O 	O 	0.79623	0.3508	0.66589	-0.386
Mof_O 	O 	0.77348	0.62578	0.7626	-0.385
Mof_O 	O 	0.81383	0.67086	0.6811	-0.393
Mof_C 	C 	0.77819	0.39574	0.6973	0.385
Mof_C 	C 	0.7939	0.62537	0.709	0.396
Mof_C 	C 	0.7841	0.51054	0.7028	0.024
Mof_H 	H 	0.7761	0.5087	0.7444	0.049
Mof_C 	C 	0.7865	0.45726	0.6689	-0.076
Mof_C 	C 	0.7938	0.56672	0.675	-0.081
Mof_C 	C 	0.8029	0.56995	0.6128	-0.055
Mof_H 	H 	0.8085	0.6074	0.5938	0.078
Mof_C 	C 	0.8036	0.5163	0.5794	0.089
Mof_C 	C 	0.7964	0.46	0.6072	-0.055
Mof_H 	H 	0.7982	0.4245	0.5842	0.081
Mof_N 	N 	0.8074	0.52379	0.51372	-0.081
Mof_Fe	Fe	0.26066	0.32043	0.19656	0.968
Mof_O 	O 	0.24559	0.3931	0.25072	-0.385
Mof_O 	O 	0.20377	0.3508	0.33411	-0.386
Mof_O 	O 	0.22652	0.62578	0.2374	-0.385
Mof_O 	O 	0.18617	0.67086	0.3189	-0.393
Mof_C 	C 	0.22181	0.39574	0.3027	0.385
Mof_C 	C 	0.2061	0.62537	0.291	0.396
Mof_C 	C 	0.2159	0.51054	0.2972	0.024
Mof_H 	H 	0.2239	0.5087	0.2556	0.049
Mof_C 	C 	0.2135	0.45726	0.3311	-0.076
Mof_C 	C 	0.2062	0.56672	0.325	-0.081
Mof_C 	C 	0.1971	0.56995	0.3872	-0.055
Mof_H 	H 	0.1915	0.6074	0.4062	0.078
Mof_C 	C 	0.1964	0.5163	0.4206	0.089
Mof_C 	C 	0.2036	0.46	0.3928	-0.055
Mof_H 	H 	0.2018	0.4245	0.4158	0.081
Mof_N 	N 	0.1926	0.52379	0.48628	-0.081
Mof_Fe	Fe	0.67957	0.80344	0.26066	0.968
Mof_O 	O 	0.6069	0.74928	0.24559	-0.385
Mof_O 	O 	0.6492	0.66589	0.20377	-0.386
Mof_O 	O 	0.37422	0.7626	0.22652	-0.385
Mof_O 	O 	0.32914	0.6811	0.18617	-0.393
Mof_C 	C 	0.60426	0.6973	0.22181	0.385
Mof_C 	C 	0.37463	0.709	0.2061	0.396
Mof_C 	C 	0.48946	0.7028	0.2159	0.024
Mof_H 	H 	0.4913	0.7444	0.2239	0.049
Mof_C 	C 	0.54274	0.6689	0.2135	-0.076
Mof_C 	C 	0.43328	0.675	0.2062	-0.081
Mof_C 	C 	0.43005	0.6128	0.1971	-0.055
Mof_H 	H 	0.3926	0.5938	0.1915	0.078
Mof_C 	C 	0.4837	0.5794	0.1964	0.089
Mof_C 	C 	0.54	0.6072	0.2036	-0.055
Mof_H 	H 	0.5755	0.5842	0.2018	0.081
Mof_N 	N 	0.47621	0.51372	0.1926	-0.081
Mof_Fe	Fe	0.67957	0.19656	0.73934	0.968
Mof_O 	O 	0.6069	0.25072	0.75441	-0.385
Mof_O 	O 	0.6492	0.33411	0.79623	-0.386
Mof_O 	O 	0.37422	0.2374	0.77348	-0.385
Mof_O 	O 	0.32914	0.3189	0.81383	-0.393
Mof_C 	C 	0.60426	0.3027	0.77819	0.385
Mof_C 	C 	0.37463	0.291	0.7939	0.396
Mof_C 	C 	0.48946	0.2972	0.7841	0.024
Mof_H 	H 	0.4913	0.2556	0.7761	0.049
Mof_C 	C 	0.54274	0.3311	0.7865	-0.076
Mof_C 	C 	0.43328	0.325	0.7938	-0.081
Mof_C 	C 	0.43005	0.3872	0.8029	-0.055
Mof_H 	H 	0.3926	0.4062	0.8085	0.078
Mof_C 	C 	0.4837	0.4206	0.8036	0.089
Mof_C 	C 	0.54	0.3928	0.7964	-0.055
Mof_H 	H 	0.5755	0.4158	0.7982	0.081
Mof_N 	N 	0.47621	0.48628	0.8074	-0.081
Mof_Fe	Fe	0.32043	0.80344	0.73934	0.968
Mof_O 	O 	0.3931	0.74928	0.75441	-0.385
Mof_O 	O 	0.3508	0.66589	0.79623	-0.386
Mof_O 	O 	0.62578	0.7626	0.77348	-0.385
Mof_O 	O 	0.67086	0.6811	0.81383	-0.393
Mof_C 	C 	0.39574	0.6973	0.77819	0.385
Mof_C 	C 	0.62537	0.709	0.7939	0.396
Mof_C 	C 	0.51054	0.7028	0.7841	0.024
Mof_H 	H 	0.5087	0.7444	0.7761	0.049
Mof_C 	C 	0.45726	0.6689	0.7865	-0.076
Mof_C 	C 	0.56672	0.675	0.7938	-0.081
Mof_C 	C 	0.56995	0.6128	0.8029	-0.055
Mof_H 	H 	0.6074	0.5938	0.8085	0.078
Mof_C 	C 	0.5163	0.5794	0.8036	0.089
Mof_C 	C 	0.46	0.6072	0.7964	-0.055
Mof_H 	H 	0.4245	0.5842	0.7982	0.081
Mof_N 	N 	0.52379	0.51372	0.8074	-0.081
Mof_Fe	Fe	0.32043	0.19656	0.26066	0.968
Mof_O 	O 	0.3931	0.25072	0.24559	-0.385
Mof_O 	O 	0.3508	0.33411	0.20377	-0.386
Mof_O 	O 	0.62578	0.2374	0.22652	-0.385
Mof_O 	O 	0.67086	0.3189	0.18617	-0.393
Mof_C 	C 	0.39574	0.3027	0.22181	0.385
Mof_C 	C 	0.62537	0.291	0.2061	0.396
Mof_C 	C 	0.51054	0.2972	0.2159	0.024
Mof_H 	H 	0.5087	0.2556	0.2239	0.049
Mof_C 	C 	0.45726	0.3311	0.2135	-0.076
Mof_C 	C 	0.56672	0.325	0.2062	-0.081
Mof_C 	C 	0.56995	0.3872	0.1971	-0.055
Mof_H 	H 	0.6074	0.4062	0.1915	0.078
Mof_C 	C 	0.5163	0.4206	0.1964	0.089
Mof_C 	C 	0.46	0.3928	0.2036	-0.055
Mof_H 	H 	0.4245	0.4158	0.2018	0.081
Mof_N 	N 	0.52379	0.48628	0.1926	-0.081
Mof_O 	O 	0.75942	0.24058	0.24058	-0.525
Mof_O 	O 	0.24058	0.75942	0.24058	-0.525
Mof_O 	O 	0.24058	0.24058	0.75942	-0.525
Mof_O 	O 	0.75942	0.75942	0.75942	-0.525
Mof_O 	O 	0.74058	0.25942	0.74058	-0.525
Mof_O 	O 	0.25942	0.74058	0.74058	-0.525
Mof_O 	O 	0.74058	0.74058	0.25942	-0.525
Mof_O 	O 	0.25942	0.25942	0.25942	-0.525
_end
