data_functionalizedCrystal
_audit_creation_method	'EQeq! by Chris Wilmer'
_symmetry_space_group_name_H-M	'P1'
_symmetry_Int_Tables_number	1
_symmetry_cell_setting	triclinic
loop_
_symmetry_equiv_pos_as_xyz
  x,y,z
_cell_length_a	27.55
_cell_length_b	13.281
_cell_length_c	20.356
_cell_angle_alpha	90
_cell_angle_beta	97.03
_cell_angle_gamma	90
loop_
_atom_site_label
_atom_site_type_symbol
_atom_site_fract_x
_atom_site_fract_y
_atom_site_fract_z
_atom_site_charge
Mof_Mo	Mo	0.85686	0.47143	0.86109	0.523
Mof_Cu	Cu	0.78812	0.42052	0.76046	0.822
Mof_Cu	Cu	0.80964	0.64943	0.86923	0.821
Mof_Cu	Cu	0.91189	0.54552	0.7715	0.827
Mof_S 	S 	0.87063	0.3956	0.76608	-0.548
Mof_S 	S 	0.8924	0.62512	0.86395	-0.549
Mof_S 	S 	0.775	0.49139	0.85948	-0.541
Mof_N 	N 	0.7674	0.5288	0.6831	-0.223
Mof_N 	N 	0.8189	0.7077	0.9687	-0.208
Mof_N 	N 	0.6148	0.8648	0.3081	-0.226
Mof_N 	N 	0.7483	0.3122	0.7156	-0.193
Mof_C 	C 	0.7261	0.2533	0.6828	-0.181
Mof_C 	C 	0.671	0.7391	0.3577	-0.042
Mof_C 	C 	0.7341	0.5995	0.6882	-0.004
Mof_H 	H 	0.7594	0.6531	0.6984	0.019
Mof_C 	C 	0.6492	0.7948	0.3045	0.025
Mof_H 	H 	0.6595	0.7823	0.2624	-0.026
Mof_C 	C 	0.8463	0.658	0.0174	0.021
Mof_H 	H 	0.8568	0.5917	0.0088	-0.007
Mof_C 	C 	0.8599	0.6992	0.08	-0.037
Mof_C 	C 	0.7787	0.507	0.6231	0.038
Mof_H 	H 	0.8032	0.4574	0.6198	-0.004
Mof_C 	C 	0.5999	0.8803	0.3675	0.018
Mof_H 	H 	0.5756	0.9298	0.3714	0
Mof_C 	C 	0.8042	0.7995	0.9812	0.022
Mof_H 	H 	0.7844	0.8344	0.9471	0.005
Mof_C 	C 	0.7573	0.552	0.5647	-0.089
Mof_H 	H 	0.736	0.4957	0.5453	0.056
Mof_C 	C 	0.9795	0.5241	0.7558	-0.247
Mof_N 	N 	0.0191	0.5402	0.7425	0.045
Mof_C 	C 	0.8383	0.7561	0.5874	0.021
Mof_C 	C 	0.6862	0.6947	0.5296	-0.032
Mof_C 	C 	0.7914	0.8439	0.504	-0.015
Mof_C 	C 	0.707	0.6575	0.6434	-0.028
Mof_C 	C 	0.6188	0.8268	0.4239	-0.042
Mof_C 	C 	0.7705	0.8822	0.4399	0.01
Mof_C 	C 	0.6696	0.7187	0.4889	-0.015
Mof_C 	C 	0.8161	0.8482	0.042	-0.039
Mof_C 	C 	0.6464	0.7707	0.4255	-0.004
Mof_C 	C 	0.8084	0.8183	0.5335	0.016
Mof_C 	C 	0.7836	0.8555	0.3815	-0.043
Mof_C 	C 	0.7132	0.6378	0.5831	0.046
Mof_Mo	Mo	0.35686	0.97143	0.86109	0.524
Mof_Cu	Cu	0.28812	0.92052	0.76046	0.823
Mof_Cu	Cu	0.30964	0.14943	0.86923	0.822
Mof_Cu	Cu	0.41189	0.04552	0.7715	0.828
Mof_S 	S 	0.37063	0.8956	0.76608	-0.547
Mof_S 	S 	0.3924	0.12512	0.86395	-0.548
Mof_S 	S 	0.275	0.99139	0.85948	-0.539
Mof_N 	N 	0.2674	0.0288	0.6831	-0.222
Mof_N 	N 	0.3189	0.2077	0.9687	-0.208
Mof_N 	N 	0.1148	0.3648	0.3081	-0.226
Mof_N 	N 	0.2483	0.8122	0.7156	-0.193
Mof_C 	C 	0.2261	0.7533	0.6828	-0.181
Mof_C 	C 	0.171	0.2391	0.3577	-0.042
Mof_C 	C 	0.2341	0.0995	0.6882	-0.004
Mof_H 	H 	0.2594	0.1531	0.6984	0.019
Mof_C 	C 	0.1492	0.2948	0.3045	0.025
Mof_H 	H 	0.1595	0.2823	0.2624	-0.026
Mof_C 	C 	0.3463	0.158	0.0174	0.021
Mof_H 	H 	0.3568	0.0917	0.0088	-0.007
Mof_C 	C 	0.3599	0.1992	0.08	-0.037
Mof_C 	C 	0.2787	0.007	0.6231	0.038
Mof_H 	H 	0.3032	0.9574	0.6198	-0.004
Mof_C 	C 	0.0999	0.3803	0.3675	0.018
Mof_H 	H 	0.0756	0.4298	0.3714	-0
Mof_C 	C 	0.3042	0.2995	0.9812	0.022
Mof_H 	H 	0.2844	0.3344	0.9471	0.005
Mof_C 	C 	0.2573	0.052	0.5647	-0.089
Mof_H 	H 	0.236	0.9957	0.5453	0.056
Mof_C 	C 	0.4795	0.0241	0.7558	-0.247
Mof_N 	N 	0.5191	0.0402	0.7425	0.045
Mof_C 	C 	0.3383	0.2561	0.5874	0.02
Mof_C 	C 	0.1862	0.1947	0.5296	-0.032
Mof_C 	C 	0.2914	0.3439	0.504	-0.015
Mof_C 	C 	0.207	0.1575	0.6434	-0.028
Mof_C 	C 	0.1188	0.3268	0.4239	-0.042
Mof_C 	C 	0.2705	0.3822	0.4399	0.01
Mof_C 	C 	0.1696	0.2187	0.4889	-0.016
Mof_C 	C 	0.3161	0.3482	0.042	-0.039
Mof_C 	C 	0.1464	0.2707	0.4255	-0.004
Mof_C 	C 	0.3084	0.3183	0.5335	0.016
Mof_C 	C 	0.2836	0.3555	0.3815	-0.043
Mof_C 	C 	0.2132	0.1378	0.5831	0.047
Mof_Mo	Mo	0.14314	0.47143	0.63891	0.524
Mof_Cu	Cu	0.21188	0.42052	0.73954	0.823
Mof_Cu	Cu	0.19036	0.64943	0.63077	0.822
Mof_Cu	Cu	0.08811	0.54552	0.7285	0.828
Mof_S 	S 	0.12937	0.3956	0.73392	-0.547
Mof_S 	S 	0.1076	0.62512	0.63605	-0.548
Mof_S 	S 	0.225	0.49139	0.64052	-0.54
Mof_N 	N 	0.2326	0.5288	0.8169	-0.222
Mof_N 	N 	0.1811	0.7077	0.5313	-0.208
Mof_N 	N 	0.3852	0.8648	0.1919	-0.226
Mof_N 	N 	0.2517	0.3122	0.7844	-0.193
Mof_C 	C 	0.2739	0.2533	0.8172	-0.181
Mof_C 	C 	0.329	0.7391	0.1423	-0.041
Mof_C 	C 	0.2659	0.5995	0.8118	-0.004
Mof_H 	H 	0.2406	0.6531	0.8016	0.019
Mof_C 	C 	0.3508	0.7948	0.1955	0.025
Mof_H 	H 	0.3405	0.7823	0.2376	-0.026
Mof_C 	C 	0.1537	0.658	0.4826	0.021
Mof_H 	H 	0.1432	0.5917	0.4912	-0.007
Mof_C 	C 	0.1401	0.6992	0.42	-0.037
Mof_C 	C 	0.2213	0.507	0.8769	0.038
Mof_H 	H 	0.1968	0.4574	0.8802	-0.004
Mof_C 	C 	0.4001	0.8803	0.1325	0.018
Mof_H 	H 	0.4244	0.9298	0.1286	-0
Mof_C 	C 	0.1958	0.7995	0.5188	0.022
Mof_H 	H 	0.2156	0.8344	0.5529	0.005
Mof_C 	C 	0.2427	0.552	0.9353	-0.09
Mof_H 	H 	0.264	0.4957	0.9547	0.056
Mof_C 	C 	0.0205	0.5241	0.7442	-0.247
Mof_N 	N 	0.9809	0.5402	0.7575	0.045
Mof_C 	C 	0.1617	0.7561	0.9126	0.02
Mof_C 	C 	0.3138	0.6947	0.9704	-0.033
Mof_C 	C 	0.2086	0.8439	0.996	-0.014
Mof_C 	C 	0.293	0.6575	0.8566	-0.027
Mof_C 	C 	0.3812	0.8268	0.0761	-0.042
Mof_C 	C 	0.2295	0.8822	0.0601	0.011
Mof_C 	C 	0.3304	0.7187	0.0111	-0.014
Mof_C 	C 	0.1839	0.8482	0.458	-0.039
Mof_C 	C 	0.3536	0.7707	0.0745	-0.003
Mof_C 	C 	0.1916	0.8183	0.9665	0.014
Mof_C 	C 	0.2164	0.8555	0.1185	-0.043
Mof_C 	C 	0.2868	0.6378	0.9169	0.046
Mof_Mo	Mo	0.64314	0.97143	0.63891	0.524
Mof_Cu	Cu	0.71188	0.92052	0.73954	0.823
Mof_Cu	Cu	0.69036	0.14943	0.63077	0.822
Mof_Cu	Cu	0.58811	0.04552	0.7285	0.828
Mof_S 	S 	0.62937	0.8956	0.73392	-0.547
Mof_S 	S 	0.6076	0.12512	0.63605	-0.547
Mof_S 	S 	0.725	0.99139	0.64052	-0.539
Mof_N 	N 	0.7326	0.0288	0.8169	-0.222
Mof_N 	N 	0.6811	0.2077	0.5313	-0.208
Mof_N 	N 	0.8852	0.3648	0.1919	-0.226
Mof_N 	N 	0.7517	0.8122	0.7844	-0.193
Mof_C 	C 	0.7739	0.7533	0.8172	-0.181
Mof_C 	C 	0.829	0.2391	0.1423	-0.041
Mof_C 	C 	0.7659	0.0995	0.8118	-0.004
Mof_H 	H 	0.7406	0.1531	0.8016	0.019
Mof_C 	C 	0.8508	0.2948	0.1955	0.025
Mof_H 	H 	0.8405	0.2823	0.2376	-0.026
Mof_C 	C 	0.6537	0.158	0.4826	0.021
Mof_H 	H 	0.6432	0.0917	0.4912	-0.007
Mof_C 	C 	0.6401	0.1992	0.42	-0.037
Mof_C 	C 	0.7213	0.007	0.8769	0.038
Mof_H 	H 	0.6968	0.9574	0.8802	-0.004
Mof_C 	C 	0.9001	0.3803	0.1325	0.018
Mof_H 	H 	0.9244	0.4298	0.1286	-0
Mof_C 	C 	0.6958	0.2995	0.5188	0.022
Mof_H 	H 	0.7156	0.3344	0.5529	0.005
Mof_C 	C 	0.7427	0.052	0.9353	-0.09
Mof_H 	H 	0.764	0.9957	0.9547	0.056
Mof_C 	C 	0.5205	0.0241	0.7442	-0.247
Mof_N 	N 	0.4809	0.0402	0.7575	0.045
Mof_C 	C 	0.6617	0.2561	0.9126	0.02
Mof_C 	C 	0.8138	0.1947	0.9704	-0.033
Mof_C 	C 	0.7086	0.3439	0.996	-0.014
Mof_C 	C 	0.793	0.1575	0.8566	-0.027
Mof_C 	C 	0.8812	0.3268	0.0761	-0.042
Mof_C 	C 	0.7295	0.3822	0.0601	0.011
Mof_C 	C 	0.8304	0.2187	0.0111	-0.014
Mof_C 	C 	0.6839	0.3482	0.458	-0.039
Mof_C 	C 	0.8536	0.2707	0.0745	-0.003
Mof_C 	C 	0.6916	0.3183	0.9665	0.014
Mof_C 	C 	0.7164	0.3555	0.1185	-0.043
Mof_C 	C 	0.7868	0.1378	0.9169	0.046
Mof_Mo	Mo	0.14314	0.52857	0.13891	0.524
Mof_Cu	Cu	0.21188	0.57948	0.23954	0.823
Mof_Cu	Cu	0.19036	0.35057	0.13077	0.822
Mof_Cu	Cu	0.08811	0.45448	0.2285	0.828
Mof_S 	S 	0.12937	0.6044	0.23392	-0.547
Mof_S 	S 	0.1076	0.37488	0.13605	-0.548
Mof_S 	S 	0.225	0.50861	0.14052	-0.54
Mof_N 	N 	0.2326	0.4712	0.3169	-0.222
Mof_N 	N 	0.1811	0.2923	0.0313	-0.208
Mof_N 	N 	0.3852	0.1352	0.6919	-0.226
Mof_N 	N 	0.2517	0.6878	0.2844	-0.193
Mof_C 	C 	0.2739	0.7467	0.3172	-0.181
Mof_C 	C 	0.329	0.2609	0.6423	-0.042
Mof_C 	C 	0.2659	0.4005	0.3118	-0.004
Mof_H 	H 	0.2406	0.3469	0.3016	0.019
Mof_C 	C 	0.3508	0.2052	0.6955	0.025
Mof_H 	H 	0.3405	0.2177	0.7376	-0.026
Mof_C 	C 	0.1537	0.342	0.9826	0.021
Mof_H 	H 	0.1432	0.4083	0.9912	-0.007
Mof_C 	C 	0.1401	0.3008	0.92	-0.037
Mof_C 	C 	0.2213	0.493	0.3769	0.038
Mof_H 	H 	0.1968	0.5426	0.3802	-0.004
Mof_C 	C 	0.4001	0.1197	0.6325	0.018
Mof_H 	H 	0.4244	0.0702	0.6286	0
Mof_C 	C 	0.1958	0.2005	0.0188	0.022
Mof_H 	H 	0.2156	0.1656	0.0529	0.005
Mof_C 	C 	0.2427	0.448	0.4353	-0.089
Mof_H 	H 	0.264	0.5043	0.4547	0.056
Mof_C 	C 	0.0205	0.4759	0.2442	-0.247
Mof_N 	N 	0.9809	0.4598	0.2575	0.045
Mof_C 	C 	0.1617	0.2439	0.4126	0.021
Mof_C 	C 	0.3138	0.3053	0.4704	-0.032
Mof_C 	C 	0.2086	0.1561	0.496	-0.015
Mof_C 	C 	0.293	0.3425	0.3566	-0.028
Mof_C 	C 	0.3812	0.1732	0.5761	-0.042
Mof_C 	C 	0.2295	0.1178	0.5601	0.01
Mof_C 	C 	0.3304	0.2813	0.5111	-0.015
Mof_C 	C 	0.1839	0.1518	0.958	-0.039
Mof_C 	C 	0.3536	0.2293	0.5745	-0.004
Mof_C 	C 	0.1916	0.1817	0.4665	0.016
Mof_C 	C 	0.2164	0.1445	0.6185	-0.043
Mof_C 	C 	0.2868	0.3622	0.4169	0.046
Mof_Mo	Mo	0.64314	0.02857	0.13891	0.524
Mof_Cu	Cu	0.71188	0.07948	0.23954	0.823
Mof_Cu	Cu	0.69036	0.85057	0.13077	0.822
Mof_Cu	Cu	0.58811	0.95448	0.2285	0.828
Mof_S 	S 	0.62937	0.1044	0.23392	-0.547
Mof_S 	S 	0.6076	0.87488	0.13605	-0.548
Mof_S 	S 	0.725	0.00861	0.14052	-0.539
Mof_N 	N 	0.7326	0.9712	0.3169	-0.222
Mof_N 	N 	0.6811	0.7923	0.0313	-0.208
Mof_N 	N 	0.8852	0.6352	0.6919	-0.226
Mof_N 	N 	0.7517	0.1878	0.2844	-0.193
Mof_C 	C 	0.7739	0.2467	0.3172	-0.181
Mof_C 	C 	0.829	0.7609	0.6423	-0.042
Mof_C 	C 	0.7659	0.9005	0.3118	-0.004
Mof_H 	H 	0.7406	0.8469	0.3016	0.019
Mof_C 	C 	0.8508	0.7052	0.6955	0.025
Mof_H 	H 	0.8405	0.7177	0.7376	-0.026
Mof_C 	C 	0.6537	0.842	0.9826	0.021
Mof_H 	H 	0.6432	0.9083	0.9912	-0.007
Mof_C 	C 	0.6401	0.8008	0.92	-0.037
Mof_C 	C 	0.7213	0.993	0.3769	0.038
Mof_H 	H 	0.6968	0.0426	0.3802	-0.004
Mof_C 	C 	0.9001	0.6197	0.6325	0.018
Mof_H 	H 	0.9244	0.5702	0.6286	-0
Mof_C 	C 	0.6958	0.7005	0.0188	0.022
Mof_H 	H 	0.7156	0.6656	0.0529	0.005
Mof_C 	C 	0.7427	0.948	0.4353	-0.089
Mof_H 	H 	0.764	0.0043	0.4547	0.056
Mof_C 	C 	0.5205	0.9759	0.2442	-0.247
Mof_N 	N 	0.4809	0.9598	0.2575	0.045
Mof_C 	C 	0.6617	0.7439	0.4126	0.02
Mof_C 	C 	0.8138	0.8053	0.4704	-0.032
Mof_C 	C 	0.7086	0.6561	0.496	-0.015
Mof_C 	C 	0.793	0.8425	0.3566	-0.028
Mof_C 	C 	0.8812	0.6732	0.5761	-0.042
Mof_C 	C 	0.7295	0.6178	0.5601	0.01
Mof_C 	C 	0.8304	0.7813	0.5111	-0.016
Mof_C 	C 	0.6839	0.6518	0.958	-0.039
Mof_C 	C 	0.8536	0.7293	0.5745	-0.004
Mof_C 	C 	0.6916	0.6817	0.4665	0.016
Mof_C 	C 	0.7164	0.6445	0.6185	-0.043
Mof_C 	C 	0.7868	0.8622	0.4169	0.047
Mof_Mo	Mo	0.85686	0.52857	0.36109	0.524
Mof_Cu	Cu	0.78812	0.57948	0.26046	0.823
Mof_Cu	Cu	0.80964	0.35057	0.36923	0.822
Mof_Cu	Cu	0.91189	0.45448	0.2715	0.828
Mof_S 	S 	0.87063	0.6044	0.26608	-0.547
Mof_S 	S 	0.8924	0.37488	0.36395	-0.548
Mof_S 	S 	0.775	0.50861	0.35948	-0.54
Mof_N 	N 	0.7674	0.4712	0.1831	-0.222
Mof_N 	N 	0.8189	0.2923	0.4687	-0.208
Mof_N 	N 	0.6148	0.1352	0.8081	-0.226
Mof_N 	N 	0.7483	0.6878	0.2156	-0.193
Mof_C 	C 	0.7261	0.7467	0.1828	-0.181
Mof_C 	C 	0.671	0.2609	0.8577	-0.041
Mof_C 	C 	0.7341	0.4005	0.1882	-0.004
Mof_H 	H 	0.7594	0.3469	0.1984	0.019
Mof_C 	C 	0.6492	0.2052	0.8045	0.025
Mof_H 	H 	0.6595	0.2177	0.7624	-0.026
Mof_C 	C 	0.8463	0.342	0.5174	0.021
Mof_H 	H 	0.8568	0.4083	0.5088	-0.007
Mof_C 	C 	0.8599	0.3008	0.58	-0.037
Mof_C 	C 	0.7787	0.493	0.1231	0.038
Mof_H 	H 	0.8032	0.5426	0.1198	-0.004
Mof_C 	C 	0.5999	0.1197	0.8675	0.018
Mof_H 	H 	0.5756	0.0702	0.8714	-0
Mof_C 	C 	0.8042	0.2005	0.4812	0.022
Mof_H 	H 	0.7844	0.1656	0.4471	0.005
Mof_C 	C 	0.7573	0.448	0.0647	-0.09
Mof_H 	H 	0.736	0.5043	0.0453	0.056
Mof_C 	C 	0.9795	0.4759	0.2558	-0.247
Mof_N 	N 	0.0191	0.4598	0.2425	0.045
Mof_C 	C 	0.8383	0.2439	0.0874	0.02
Mof_C 	C 	0.6862	0.3053	0.0296	-0.033
Mof_C 	C 	0.7914	0.1561	0.004	-0.014
Mof_C 	C 	0.707	0.3425	0.1434	-0.027
Mof_C 	C 	0.6188	0.1732	0.9239	-0.042
Mof_C 	C 	0.7705	0.1178	0.9399	0.011
Mof_C 	C 	0.6696	0.2813	0.9889	-0.014
Mof_C 	C 	0.8161	0.1518	0.542	-0.039
Mof_C 	C 	0.6464	0.2293	0.9255	-0.003
Mof_C 	C 	0.8084	0.1817	0.0335	0.014
Mof_C 	C 	0.7836	0.1445	0.8815	-0.043
Mof_C 	C 	0.7132	0.3622	0.0831	0.046
Mof_Mo	Mo	0.35686	0.02857	0.36109	0.524
Mof_Cu	Cu	0.28812	0.07948	0.26046	0.823
Mof_Cu	Cu	0.30964	0.85057	0.36923	0.822
Mof_Cu	Cu	0.41189	0.95448	0.2715	0.828
Mof_S 	S 	0.37063	0.1044	0.26608	-0.547
Mof_S 	S 	0.3924	0.87488	0.36395	-0.547
Mof_S 	S 	0.275	0.00861	0.35948	-0.539
Mof_N 	N 	0.2674	0.9712	0.1831	-0.222
Mof_N 	N 	0.3189	0.7923	0.4687	-0.208
Mof_N 	N 	0.1148	0.6352	0.8081	-0.226
Mof_N 	N 	0.2483	0.1878	0.2156	-0.193
Mof_C 	C 	0.2261	0.2467	0.1828	-0.181
Mof_C 	C 	0.171	0.7609	0.8577	-0.041
Mof_C 	C 	0.2341	0.9005	0.1882	-0.004
Mof_H 	H 	0.2594	0.8469	0.1984	0.019
Mof_C 	C 	0.1492	0.7052	0.8045	0.025
Mof_H 	H 	0.1595	0.7177	0.7624	-0.026
Mof_C 	C 	0.3463	0.842	0.5174	0.021
Mof_H 	H 	0.3568	0.9083	0.5088	-0.007
Mof_C 	C 	0.3599	0.8008	0.58	-0.037
Mof_C 	C 	0.2787	0.993	0.1231	0.038
Mof_H 	H 	0.3032	0.0426	0.1198	-0.004
Mof_C 	C 	0.0999	0.6197	0.8675	0.018
Mof_H 	H 	0.0756	0.5702	0.8714	-0
Mof_C 	C 	0.3042	0.7005	0.4812	0.022
Mof_H 	H 	0.2844	0.6656	0.4471	0.005
Mof_C 	C 	0.2573	0.948	0.0647	-0.09
Mof_H 	H 	0.236	0.0043	0.0453	0.056
Mof_C 	C 	0.4795	0.9759	0.2558	-0.247
Mof_N 	N 	0.5191	0.9598	0.2425	0.045
Mof_C 	C 	0.3383	0.7439	0.0874	0.02
Mof_C 	C 	0.1862	0.8053	0.0296	-0.033
Mof_C 	C 	0.2914	0.6561	0.004	-0.014
Mof_C 	C 	0.207	0.8425	0.1434	-0.027
Mof_C 	C 	0.1188	0.6732	0.9239	-0.042
Mof_C 	C 	0.2705	0.6178	0.9399	0.011
Mof_C 	C 	0.1696	0.7813	0.9889	-0.014
Mof_C 	C 	0.3161	0.6518	0.542	-0.039
Mof_C 	C 	0.1464	0.7293	0.9255	-0.003
Mof_C 	C 	0.3084	0.6817	0.0335	0.014
Mof_C 	C 	0.2836	0.6445	0.8815	-0.043
Mof_C 	C 	0.2132	0.8622	0.0831	0.046
_end
