data_functionalizedCrystal
_audit_creation_method	'EQeq! by Chris Wilmer'
_symmetry_space_group_name_H-M	'P1'
_symmetry_Int_Tables_number	1
_symmetry_cell_setting	triclinic
loop_
_symmetry_equiv_pos_as_xyz
  x,y,z
_cell_length_a	18.6874
_cell_length_b	18.6874
_cell_length_c	18.6874
_cell_angle_alpha	60
_cell_angle_beta	60
_cell_angle_gamma	60
loop_
_atom_site_label
_atom_site_type_symbol
_atom_site_fract_x
_atom_site_fract_y
_atom_site_fract_z
_atom_site_charge
Mof_Yb	Yb	0.75	0.25	0.75	1.917
Mof_Yb	Yb	0.75	0.25	0.25	1.906
Mof_Yb	Yb	0.25	0.25	0.25	1.895
Mof_Yb	Yb	0.75	0.75	0.25	1.917
Mof_Yb	Yb	0.25	0.75	0.25	1.905
Mof_Yb	Yb	0.25	0.75	0.75	1.916
Mof_Yb	Yb	0.75	0.75	0.75	1.927
Mof_Yb	Yb	0.25	0.25	0.75	1.905
Mof_Ca	Ca	0.5	0.5	0.5	1.602
Mof_Ca	Ca	-6.15912e-17	0	0.5	0.982
Mof_Ca	Ca	-0	0.5	-0	0.984
Mof_Ca	Ca	-6.15912e-17	0.5	0.5	1.291
Mof_Ca	Ca	0.5	0.5	-0	1.299
Mof_Ca	Ca	-0	0	-0	0.677
Mof_Ca	Ca	0.5	0	0.5	1.3
Mof_Ca	Ca	0.5	0	-0	0.991
Mof_H 	H 	0.5162	0.3448	0.7224	0.108
Mof_H 	H 	0.5769	0.2947	0.6543	0.1
Mof_H 	H 	0.8448	0.0162	0.4166	0.062
Mof_H 	H 	0.7947	0.0769	0.4741	0.069
Mof_H 	H 	0.2224	0.4166	0.0162	0.037
Mof_H 	H 	0.1543	0.4741	0.0769	0.045
Mof_H 	H 	0.9166	0.7224	0.3448	0.156
Mof_H 	H 	0.9741	0.6543	0.2947	0.169
Mof_H 	H 	0.5162	0.7224	0.4166	0.109
Mof_H 	H 	0.5769	0.6543	0.4741	0.105
Mof_H 	H 	0.8448	0.4166	0.7224	0.131
Mof_H 	H 	0.7947	0.4741	0.6543	0.111
Mof_H 	H 	0.2224	0.0162	0.3448	0.035
Mof_H 	H 	0.1543	0.0769	0.2947	0.039
Mof_H 	H 	0.9166	0.3448	0.0162	0.086
Mof_H 	H 	0.9741	0.2947	0.0769	0.127
Mof_H 	H 	0.5162	0.4166	0.3448	0.102
Mof_H 	H 	0.5769	0.4741	0.2947	0.099
Mof_H 	H 	0.8448	0.7224	0.0162	0.068
Mof_H 	H 	0.7947	0.6543	0.0769	0.07
Mof_H 	H 	0.2224	0.3448	0.4166	0.102
Mof_H 	H 	0.1543	0.2947	0.4741	0.083
Mof_H 	H 	0.9166	0.0162	0.7224	0.094
Mof_H 	H 	0.9741	0.0769	0.6543	0.133
Mof_H 	H 	0.6552	0.4838	0.7776	0.109
Mof_H 	H 	0.7053	0.4231	0.8457	0.13
Mof_H 	H 	0.9838	0.1552	0.0834	0.114
Mof_H 	H 	0.9231	0.2053	0.0259	0.094
Mof_H 	H 	0.5834	0.7776	0.4838	0.107
Mof_H 	H 	0.5259	0.8457	0.4231	0.125
Mof_H 	H 	0.2776	0.0834	0.1552	0.035
Mof_H 	H 	0.3457	0.0259	0.2053	0.04
Mof_H 	H 	0.2776	0.4838	0.0834	0.054
Mof_H 	H 	0.3457	0.4231	0.0259	0.04
Mof_H 	H 	0.5834	0.1552	0.7776	0.09
Mof_H 	H 	0.5259	0.2053	0.8457	0.126
Mof_H 	H 	0.9838	0.7776	0.1552	0.159
Mof_H 	H 	0.9231	0.8457	0.2053	0.175
Mof_H 	H 	0.6552	0.0834	0.4838	0.063
Mof_H 	H 	0.7053	0.0259	0.4231	0.048
Mof_H 	H 	0.5834	0.4838	0.1552	0.086
Mof_H 	H 	0.5259	0.4231	0.2053	0.103
Mof_H 	H 	0.2776	0.1552	0.4838	0.08
Mof_H 	H 	0.3457	0.2053	0.4231	0.101
Mof_H 	H 	0.6552	0.7776	0.0834	0.067
Mof_H 	H 	0.7053	0.8457	0.0259	0.072
Mof_H 	H 	0.9838	0.0834	0.7776	0.135
Mof_H 	H 	0.9231	0.0259	0.8457	0.115
Mof_H 	H 	0.4838	0.6552	0.2776	0.1
Mof_H 	H 	0.4231	0.7053	0.3457	0.107
Mof_H 	H 	0.1552	0.9838	0.5834	0.155
Mof_H 	H 	0.2053	0.9231	0.5259	0.154
Mof_H 	H 	0.7776	0.5834	0.9838	0.174
Mof_H 	H 	0.8457	0.5259	0.9231	0.173
Mof_H 	H 	0.0834	0.2776	0.6552	0.055
Mof_H 	H 	0.0259	0.3457	0.7053	0.045
Mof_H 	H 	0.4838	0.2776	0.5834	0.099
Mof_H 	H 	0.4231	0.3457	0.5259	0.101
Mof_H 	H 	0.1552	0.5834	0.2776	0.079
Mof_H 	H 	0.2053	0.5259	0.3457	0.102
Mof_H 	H 	0.7776	0.9838	0.6552	0.174
Mof_H 	H 	0.8457	0.9231	0.7053	0.176
Mof_H 	H 	0.0834	0.6552	0.9838	0.131
Mof_H 	H 	0.0259	0.7053	0.9231	0.097
Mof_H 	H 	0.4838	0.5834	0.6552	0.106
Mof_H 	H 	0.4231	0.5259	0.7053	0.108
Mof_H 	H 	0.1552	0.2776	0.9838	0.15
Mof_H 	H 	0.2053	0.3457	0.9231	0.152
Mof_H 	H 	0.7776	0.6552	0.5834	0.108
Mof_H 	H 	0.8457	0.7053	0.5259	0.131
Mof_H 	H 	0.0834	0.9838	0.2776	0.124
Mof_H 	H 	0.0259	0.9231	0.3457	0.09
Mof_H 	H 	0.3448	0.5162	0.2224	0.101
Mof_H 	H 	0.2947	0.5769	0.1543	0.084
Mof_H 	H 	0.0162	0.8448	0.9166	0.105
Mof_H 	H 	0.0769	0.7947	0.9741	0.134
Mof_H 	H 	0.4166	0.2224	0.5162	0.103
Mof_H 	H 	0.4741	0.1543	0.5769	0.09
Mof_H 	H 	0.7224	0.9166	0.8448	0.174
Mof_H 	H 	0.6543	0.9741	0.7947	0.175
Mof_H 	H 	0.7224	0.5162	0.9166	0.155
Mof_H 	H 	0.6543	0.5769	0.9741	0.172
Mof_H 	H 	0.4166	0.8448	0.2224	0.125
Mof_H 	H 	0.4741	0.7947	0.1543	0.095
Mof_H 	H 	0.0162	0.2224	0.8448	0.058
Mof_H 	H 	0.0769	0.1543	0.7947	0.052
Mof_H 	H 	0.3448	0.9166	0.5162	0.149
Mof_H 	H 	0.2947	0.9741	0.5769	0.167
Mof_H 	H 	0.4166	0.5162	0.8448	0.125
Mof_H 	H 	0.4741	0.5769	0.7947	0.11
Mof_H 	H 	0.7224	0.8448	0.5162	0.131
Mof_H 	H 	0.6543	0.7947	0.5769	0.112
Mof_H 	H 	0.3448	0.2224	0.9166	0.15
Mof_H 	H 	0.2947	0.1543	0.9741	0.153
Mof_H 	H 	0.0162	0.9166	0.2224	0.084
Mof_H 	H 	0.0769	0.9741	0.1543	0.114
Mof_C 	C 	0.5766	0.318	0.6906	-0.244
Mof_C 	C 	0.62168	0.38488	0.63452	0.469
Mof_C 	C 	0.818	0.0766	0.4148	-0.178
Mof_C 	C 	0.88488	0.12168	0.35892	0.413
Mof_C 	C 	0.1906	0.4148	0.0766	-0.174
Mof_C 	C 	0.13452	0.35892	0.12168	0.409
Mof_C 	C 	0.9148	0.6906	0.318	-0.291
Mof_C 	C 	0.85892	0.63452	0.38488	0.483
Mof_C 	C 	0.5766	0.6906	0.4148	-0.248
Mof_C 	C 	0.62168	0.63452	0.35892	0.471
Mof_C 	C 	0.818	0.4148	0.6906	-0.242
Mof_C 	C 	0.88488	0.35892	0.63452	0.457
Mof_C 	C 	0.1906	0.0766	0.318	-0.169
Mof_C 	C 	0.13452	0.12168	0.38488	0.407
Mof_C 	C 	0.9148	0.318	0.0766	-0.228
Mof_C 	C 	0.85892	0.38488	0.12168	0.438
Mof_C 	C 	0.5766	0.4148	0.318	-0.24
Mof_C 	C 	0.62168	0.35892	0.38488	0.466
Mof_C 	C 	0.818	0.6906	0.0766	-0.183
Mof_C 	C 	0.88488	0.63452	0.12168	0.416
Mof_C 	C 	0.1906	0.318	0.4148	-0.231
Mof_C 	C 	0.13452	0.38488	0.35892	0.45
Mof_C 	C 	0.9148	0.0766	0.6906	-0.236
Mof_C 	C 	0.85892	0.12168	0.63452	0.443
Mof_C 	C 	0.682	0.4234	0.8094	-0.242
Mof_C 	C 	0.61512	0.37832	0.86548	0.456
Mof_C 	C 	0.9234	0.182	0.0852	-0.223
Mof_C 	C 	0.87832	0.11512	0.14108	0.427
Mof_C 	C 	0.5852	0.8094	0.4234	-0.239
Mof_C 	C 	0.64108	0.86548	0.37832	0.455
Mof_C 	C 	0.3094	0.0852	0.182	-0.169
Mof_C 	C 	0.36548	0.14108	0.11512	0.408
Mof_C 	C 	0.3094	0.4234	0.0852	-0.178
Mof_C 	C 	0.36548	0.37832	0.14108	0.423
Mof_C 	C 	0.5852	0.182	0.8094	-0.231
Mof_C 	C 	0.64108	0.11512	0.86548	0.441
Mof_C 	C 	0.9234	0.8094	0.182	-0.277
Mof_C 	C 	0.87832	0.86548	0.11512	0.455
Mof_C 	C 	0.682	0.0852	0.4234	-0.188
Mof_C 	C 	0.61512	0.14108	0.37832	0.429
Mof_C 	C 	0.5852	0.4234	0.182	-0.237
Mof_C 	C 	0.64108	0.37832	0.11512	0.453
Mof_C 	C 	0.3094	0.182	0.4234	-0.232
Mof_C 	C 	0.36548	0.11512	0.37832	0.449
Mof_C 	C 	0.682	0.8094	0.0852	-0.183
Mof_C 	C 	0.61512	0.86548	0.14108	0.416
Mof_C 	C 	0.9234	0.0852	0.8094	-0.225
Mof_C 	C 	0.87832	0.14108	0.86548	0.429
Mof_C 	C 	0.4234	0.682	0.3094	-0.244
Mof_C 	C 	0.37832	0.61512	0.36548	0.467
Mof_C 	C 	0.182	0.9234	0.5852	-0.283
Mof_C 	C 	0.11512	0.87832	0.64108	0.468
Mof_C 	C 	0.8094	0.5852	0.9234	-0.283
Mof_C 	C 	0.86548	0.64108	0.87832	0.469
Mof_C 	C 	0.0852	0.3094	0.682	-0.181
Mof_C 	C 	0.14108	0.36548	0.61512	0.425
Mof_C 	C 	0.4234	0.3094	0.5852	-0.24
Mof_C 	C 	0.37832	0.36548	0.64108	0.465
Mof_C 	C 	0.182	0.5852	0.3094	-0.232
Mof_C 	C 	0.11512	0.64108	0.36548	0.45
Mof_C 	C 	0.8094	0.9234	0.682	-0.284
Mof_C 	C 	0.86548	0.87832	0.61512	0.47
Mof_C 	C 	0.0852	0.682	0.9234	-0.232
Mof_C 	C 	0.14108	0.61512	0.87832	0.443
Mof_C 	C 	0.4234	0.5852	0.682	-0.249
Mof_C 	C 	0.37832	0.64108	0.61512	0.47
Mof_C 	C 	0.182	0.3094	0.9234	-0.278
Mof_C 	C 	0.11512	0.36548	0.87832	0.465
Mof_C 	C 	0.8094	0.682	0.5852	-0.242
Mof_C 	C 	0.86548	0.61512	0.64108	0.457
Mof_C 	C 	0.0852	0.9234	0.3094	-0.224
Mof_C 	C 	0.14108	0.87832	0.36548	0.439
Mof_C 	C 	0.318	0.5766	0.1906	-0.231
Mof_C 	C 	0.38488	0.62168	0.13452	0.451
Mof_C 	C 	0.0766	0.818	0.9148	-0.222
Mof_C 	C 	0.12168	0.88488	0.85892	0.426
Mof_C 	C 	0.4148	0.1906	0.5766	-0.236
Mof_C 	C 	0.35892	0.13452	0.62168	0.454
Mof_C 	C 	0.6906	0.9148	0.818	-0.285
Mof_C 	C 	0.63452	0.85892	0.88488	0.47
Mof_C 	C 	0.6906	0.5766	0.9148	-0.293
Mof_C 	C 	0.63452	0.62168	0.85892	0.485
Mof_C 	C 	0.4148	0.818	0.1906	-0.23
Mof_C 	C 	0.35892	0.88488	0.13452	0.441
Mof_C 	C 	0.0766	0.1906	0.818	-0.167
Mof_C 	C 	0.12168	0.13452	0.88488	0.397
Mof_C 	C 	0.318	0.9148	0.5766	-0.287
Mof_C 	C 	0.38488	0.85892	0.62168	0.481
Mof_C 	C 	0.4148	0.5766	0.818	-0.238
Mof_C 	C 	0.35892	0.62168	0.88488	0.456
Mof_C 	C 	0.6906	0.818	0.5766	-0.242
Mof_C 	C 	0.63452	0.88488	0.62168	0.458
Mof_C 	C 	0.318	0.1906	0.9148	-0.279
Mof_C 	C 	0.38488	0.13452	0.85892	0.465
Mof_C 	C 	0.0766	0.9148	0.1906	-0.221
Mof_C 	C 	0.12168	0.85892	0.13452	0.424
Mof_O 	O 	0.68847	0.37119	0.64627	-0.442
Mof_O 	O 	0.59062	0.45118	0.57836	-0.46
Mof_O 	O 	0.87119	0.18847	0.29407	-0.409
Mof_O 	O 	0.95118	0.09062	0.37984	-0.337
Mof_O 	O 	0.14627	0.29407	0.18847	-0.459
Mof_O 	O 	0.07836	0.37984	0.09062	-0.474
Mof_O 	O 	0.79407	0.64627	0.37119	-0.441
Mof_O 	O 	0.87984	0.57836	0.45118	-0.39
Mof_O 	O 	0.68847	0.64627	0.29407	-0.443
Mof_O 	O 	0.59062	0.57836	0.37984	-0.461
Mof_O 	O 	0.87119	0.29407	0.64627	-0.415
Mof_O 	O 	0.95118	0.37984	0.57836	-0.343
Mof_O 	O 	0.14627	0.18847	0.37119	-0.457
Mof_O 	O 	0.07836	0.09062	0.45118	-0.472
Mof_O 	O 	0.79407	0.37119	0.18847	-0.435
Mof_O 	O 	0.87984	0.45118	0.09062	-0.384
Mof_O 	O 	0.68847	0.29407	0.37119	-0.441
Mof_O 	O 	0.59062	0.37984	0.45118	-0.46
Mof_O 	O 	0.87119	0.64627	0.18847	-0.41
Mof_O 	O 	0.95118	0.57836	0.09062	-0.337
Mof_O 	O 	0.14627	0.37119	0.29407	-0.462
Mof_O 	O 	0.07836	0.45118	0.37984	-0.476
Mof_O 	O 	0.79407	0.18847	0.64627	-0.437
Mof_O 	O 	0.87984	0.09062	0.57836	-0.384
Mof_O 	O 	0.62881	0.31153	0.85373	-0.418
Mof_O 	O 	0.54882	0.40938	0.92164	-0.361
Mof_O 	O 	0.81153	0.12881	0.20593	-0.449
Mof_O 	O 	0.90938	0.04882	0.12016	-0.381
Mof_O 	O 	0.70593	0.85373	0.31153	-0.416
Mof_O 	O 	0.62016	0.92164	0.40938	-0.36
Mof_O 	O 	0.35373	0.20593	0.12881	-0.455
Mof_O 	O 	0.42164	0.12016	0.04882	-0.471
Mof_O 	O 	0.35373	0.31153	0.20593	-0.439
Mof_O 	O 	0.42164	0.40938	0.12016	-0.444
Mof_O 	O 	0.70593	0.12881	0.85373	-0.431
Mof_O 	O 	0.62016	0.04882	0.92164	-0.382
Mof_O 	O 	0.81153	0.85373	0.12881	-0.426
Mof_O 	O 	0.90938	0.92164	0.04882	-0.298
Mof_O 	O 	0.62881	0.20593	0.31153	-0.441
Mof_O 	O 	0.54882	0.12016	0.40938	-0.445
Mof_O 	O 	0.70593	0.31153	0.12881	-0.463
Mof_O 	O 	0.62016	0.40938	0.04882	-0.489
Mof_O 	O 	0.35373	0.12881	0.31153	-0.464
Mof_O 	O 	0.42164	0.04882	0.40938	-0.491
Mof_O 	O 	0.62881	0.85373	0.20593	-0.409
Mof_O 	O 	0.54882	0.92164	0.12016	-0.339
Mof_O 	O 	0.81153	0.20593	0.85373	-0.402
Mof_O 	O 	0.90938	0.12016	0.92164	-0.253
Mof_O 	O 	0.31153	0.62881	0.35373	-0.446
Mof_O 	O 	0.40938	0.54882	0.42164	-0.463
Mof_O 	O 	0.12881	0.81153	0.70593	-0.454
Mof_O 	O 	0.04882	0.90938	0.62016	-0.4
Mof_O 	O 	0.85373	0.70593	0.81153	-0.408
Mof_O 	O 	0.92164	0.62016	0.90938	-0.275
Mof_O 	O 	0.20593	0.35373	0.62881	-0.437
Mof_O 	O 	0.12016	0.42164	0.54882	-0.442
Mof_O 	O 	0.31153	0.35373	0.70593	-0.444
Mof_O 	O 	0.40938	0.42164	0.62016	-0.461
Mof_O 	O 	0.12881	0.70593	0.35373	-0.46
Mof_O 	O 	0.04882	0.62016	0.42164	-0.487
Mof_O 	O 	0.85373	0.81153	0.62881	-0.409
Mof_O 	O 	0.92164	0.90938	0.54882	-0.275
Mof_O 	O 	0.20593	0.62881	0.81153	-0.431
Mof_O 	O 	0.12016	0.54882	0.90938	-0.355
Mof_O 	O 	0.31153	0.70593	0.62881	-0.446
Mof_O 	O 	0.40938	0.62016	0.54882	-0.462
Mof_O 	O 	0.12881	0.35373	0.81153	-0.455
Mof_O 	O 	0.04882	0.42164	0.90938	-0.401
Mof_O 	O 	0.85373	0.62881	0.70593	-0.414
Mof_O 	O 	0.92164	0.54882	0.62016	-0.356
Mof_O 	O 	0.20593	0.81153	0.35373	-0.429
Mof_O 	O 	0.12016	0.90938	0.42164	-0.354
Mof_O 	O 	0.37119	0.68847	0.14627	-0.457
Mof_O 	O 	0.45118	0.59062	0.07836	-0.471
Mof_O 	O 	0.18847	0.87119	0.79407	-0.406
Mof_O 	O 	0.09062	0.95118	0.87984	-0.27
Mof_O 	O 	0.29407	0.14627	0.68847	-0.458
Mof_O 	O 	0.37984	0.07836	0.59062	-0.473
Mof_O 	O 	0.64627	0.79407	0.87119	-0.412
Mof_O 	O 	0.57836	0.87984	0.95118	-0.278
Mof_O 	O 	0.64627	0.68847	0.79407	-0.438
Mof_O 	O 	0.57836	0.59062	0.87984	-0.389
Mof_O 	O 	0.29407	0.87119	0.14627	-0.431
Mof_O 	O 	0.37984	0.95118	0.07836	-0.355
Mof_O 	O 	0.18847	0.14627	0.87119	-0.426
Mof_O 	O 	0.09062	0.07836	0.95118	-0.351
Mof_O 	O 	0.37119	0.79407	0.68847	-0.436
Mof_O 	O 	0.45118	0.87984	0.59062	-0.389
Mof_O 	O 	0.29407	0.68847	0.87119	-0.411
Mof_O 	O 	0.37984	0.59062	0.95118	-0.343
Mof_O 	O 	0.64627	0.87119	0.68847	-0.412
Mof_O 	O 	0.57836	0.95118	0.59062	-0.343
Mof_O 	O 	0.37119	0.14627	0.79407	-0.456
Mof_O 	O 	0.45118	0.07836	0.87984	-0.401
Mof_O 	O 	0.18847	0.79407	0.14627	-0.453
Mof_O 	O 	0.09062	0.87984	0.07836	-0.398
Mof_O 	O 	0.6205	0.25	0.75	-0.217
Mof_O 	O 	0.75	0.1205	0.3795	-0.244
Mof_O 	O 	0.25	0.3795	0.1205	-0.253
Mof_O 	O 	0.8795	0.75	0.25	-0.187
Mof_O 	O 	0.6205	0.75	0.3795	-0.212
Mof_O 	O 	0.75	0.3795	0.75	-0.209
Mof_O 	O 	0.25	0.1205	0.25	-0.259
Mof_O 	O 	0.8795	0.25	0.1205	-0.222
Mof_O 	O 	0.6205	0.3795	0.25	-0.22
Mof_O 	O 	0.75	0.75	0.1205	-0.241
Mof_O 	O 	0.25	0.25	0.3795	-0.225
Mof_O 	O 	0.8795	0.1205	0.75	-0.214
Mof_O 	O 	0.3795	0.75	0.25	-0.216
Mof_O 	O 	0.25	0.8795	0.6205	-0.191
Mof_O 	O 	0.75	0.6205	0.8795	-0.184
Mof_O 	O 	0.1205	0.25	0.75	-0.25
Mof_O 	O 	0.3795	0.25	0.6205	-0.219
Mof_O 	O 	0.25	0.6205	0.25	-0.225
Mof_O 	O 	0.75	0.8795	0.75	-0.181
Mof_O 	O 	0.1205	0.75	0.8795	-0.215
Mof_O 	O 	0.3795	0.6205	0.75	-0.211
Mof_O 	O 	0.25	0.25	0.8795	-0.195
Mof_O 	O 	0.75	0.75	0.6205	-0.209
Mof_O 	O 	0.1205	0.8795	0.25	-0.223
_end
