data_functionalizedCrystal
_audit_creation_method	'EQeq! by Chris Wilmer'
_symmetry_space_group_name_H-M	'P1'
_symmetry_Int_Tables_number	1
_symmetry_cell_setting	triclinic
loop_
_symmetry_equiv_pos_as_xyz
  x,y,z
_cell_length_a	21.847
_cell_length_b	21.847
_cell_length_c	6.8729
_cell_angle_alpha	90
_cell_angle_beta	90
_cell_angle_gamma	120
loop_
_atom_site_label
_atom_site_type_symbol
_atom_site_fract_x
_atom_site_fract_y
_atom_site_fract_z
_atom_site_charge
Mof_Fe	Fe	0.6129	0.2854	0.156	0.841
Mof_O 	O 	0.646	0.2416	0.966	-0.451
Mof_O 	O 	0.6371	0.2799	0.583	-0.518
Mof_O 	O 	0.5864	0.2052	0.359	-0.385
Mof_C 	C 	0.6138	0.1744	0.8787	0.271
Mof_C 	C 	0.594	0.1649	0.681	-0.265
Mof_C 	C 	0.5602	0.0958	0.6029	0.06
Mof_C 	C 	0.5449	0.0355	0.7105	-0.041
Mof_C 	C 	0.5638	0.0465	0.9089	0.041
Mof_C 	C 	0.5962	0.1132	0.9911	-0.209
Mof_C 	C 	0.605	0.2229	0.5481	0.505
Mof_H 	H 	0.547	0.0898	0.4694	0.021
Mof_H 	H 	0.5538	0.0067	0.9881	0.016
Mof_H 	H 	0.607	0.1182	0.1262	0.11
Mof_Fe	Fe	0.7146	0.3275	0.82267	0.843
Mof_O 	O 	0.7584	0.4044	0.63267	-0.45
Mof_O 	O 	0.7201	0.3572	0.24967	-0.517
Mof_O 	O 	0.7948	0.3812	0.02567	-0.384
Mof_C 	C 	0.8256	0.4394	0.54537	0.272
Mof_C 	C 	0.8351	0.4291	0.34767	-0.265
Mof_C 	C 	0.9042	0.4644	0.26957	0.061
Mof_C 	C 	0.9645	0.5094	0.37717	-0.042
Mof_C 	C 	0.9535	0.5173	0.57557	0.043
Mof_C 	C 	0.8868	0.483	0.65777	-0.213
Mof_C 	C 	0.7771	0.3821	0.21477	0.505
Mof_H 	H 	0.9102	0.4572	0.13607	0.021
Mof_H 	H 	0.9933	0.5471	0.65477	0.015
Mof_H 	H 	0.8818	0.4888	0.79287	0.112
Mof_Fe	Fe	0.6725	0.3871	0.48933	0.843
Mof_O 	O 	0.5956	0.354	0.29933	-0.45
Mof_O 	O 	0.6428	0.3629	0.91633	-0.517
Mof_O 	O 	0.6188	0.4136	0.69233	-0.384
Mof_C 	C 	0.5606	0.3862	0.21203	0.272
Mof_C 	C 	0.5709	0.406	0.01433	-0.266
Mof_C 	C 	0.5356	0.4398	0.93623	0.062
Mof_C 	C 	0.4906	0.4551	0.04383	-0.042
Mof_C 	C 	0.4827	0.4362	0.24223	0.043
Mof_C 	C 	0.517	0.4038	0.32443	-0.213
Mof_C 	C 	0.6179	0.395	0.88143	0.505
Mof_H 	H 	0.5428	0.453	0.80273	0.021
Mof_H 	H 	0.4529	0.4462	0.32143	0.015
Mof_H 	H 	0.5112	0.393	0.45953	0.112
Mof_Fe	Fe	0.2854	0.6129	0.844	0.842
Mof_O 	O 	0.2416	0.646	0.034	-0.45
Mof_O 	O 	0.2799	0.6371	0.417	-0.517
Mof_O 	O 	0.2052	0.5864	0.641	-0.384
Mof_C 	C 	0.1744	0.6138	0.1213	0.271
Mof_C 	C 	0.1649	0.594	0.319	-0.265
Mof_C 	C 	0.0958	0.5602	0.3971	0.06
Mof_C 	C 	0.0355	0.5449	0.2895	-0.041
Mof_C 	C 	0.0465	0.5638	0.0911	0.041
Mof_C 	C 	0.1132	0.5962	0.0089	-0.209
Mof_C 	C 	0.2229	0.605	0.4519	0.505
Mof_H 	H 	0.0898	0.547	0.5306	0.021
Mof_H 	H 	0.0067	0.5538	0.0119	0.016
Mof_H 	H 	0.1182	0.607	0.8738	0.11
Mof_Fe	Fe	0.3275	0.7146	0.17733	0.843
Mof_O 	O 	0.4044	0.7584	0.36733	-0.45
Mof_O 	O 	0.3572	0.7201	0.75033	-0.517
Mof_O 	O 	0.3812	0.7948	0.97433	-0.384
Mof_C 	C 	0.4394	0.8256	0.45463	0.272
Mof_C 	C 	0.4291	0.8351	0.65233	-0.265
Mof_C 	C 	0.4644	0.9042	0.73043	0.061
Mof_C 	C 	0.5094	0.9645	0.62283	-0.042
Mof_C 	C 	0.5173	0.9535	0.42443	0.043
Mof_C 	C 	0.483	0.8868	0.34223	-0.213
Mof_C 	C 	0.3821	0.7771	0.78523	0.505
Mof_H 	H 	0.4572	0.9102	0.86393	0.021
Mof_H 	H 	0.5471	0.9933	0.34523	0.015
Mof_H 	H 	0.4888	0.8818	0.20713	0.112
Mof_Fe	Fe	0.3871	0.6725	0.51067	0.843
Mof_O 	O 	0.354	0.5956	0.70067	-0.45
Mof_O 	O 	0.3629	0.6428	0.08367	-0.517
Mof_O 	O 	0.4136	0.6188	0.30767	-0.384
Mof_C 	C 	0.3862	0.5606	0.78797	0.272
Mof_C 	C 	0.406	0.5709	0.98567	-0.266
Mof_C 	C 	0.4398	0.5356	0.06377	0.062
Mof_C 	C 	0.4551	0.4906	0.95617	-0.042
Mof_C 	C 	0.4362	0.4827	0.75777	0.043
Mof_C 	C 	0.4038	0.517	0.67557	-0.213
Mof_C 	C 	0.395	0.6179	0.11857	0.505
Mof_H 	H 	0.453	0.5428	0.19727	0.021
Mof_H 	H 	0.4462	0.4529	0.67857	0.015
Mof_H 	H 	0.393	0.5112	0.54047	0.112
_end
