data_functionalizedCrystal
_audit_creation_method	'EQeq! by Chris Wilmer'
_symmetry_space_group_name_H-M	'P1'
_symmetry_Int_Tables_number	1
_symmetry_cell_setting	triclinic
loop_
_symmetry_equiv_pos_as_xyz
  x,y,z
_cell_length_a	10.663
_cell_length_b	11.09
_cell_length_c	14.718
_cell_angle_alpha	106.88
_cell_angle_beta	95.76
_cell_angle_gamma	112.99
loop_
_atom_site_label
_atom_site_type_symbol
_atom_site_fract_x
_atom_site_fract_y
_atom_site_fract_z
_atom_site_charge
Mof_U 	U 	0.60813	0.83075	0.88942	0.017
Mof_U 	U 	0.34101	0.35138	0.50982	0.039
Mof_O 	O 	0.6474	0.6359	0.788	-0.204
Mof_O 	O 	0.5732	0.6122	0.9181	-0.186
Mof_C 	C 	0.6098	0.5656	0.8434	0.273
Mof_C 	C 	0.61	0.4215	0.8152	0.033
Mof_C 	C 	0.657	0.3763	0.7326	-0.114
Mof_H 	H 	0.6849	0.4312	0.6944	0.121
Mof_C 	C 	0.661	0.2499	0.7091	0.153
Mof_C 	C 	0.6262	0.1667	0.7667	-0.116
Mof_H 	H 	0.6321	0.0818	0.7497	0.122
Mof_C 	C 	0.5824	0.215	0.8504	0.032
Mof_C 	C 	0.5738	0.3432	0.873	-0.06
Mof_H 	H 	0.5431	0.375	0.9281	0.103
Mof_C 	C 	0.5515	0.1333	0.9157	0.255
Mof_O 	O 	0.4686	0.1498	0.9684	-0.158
Mof_O 	O 	0.6042	0.049	0.9136	-0.164
Mof_N 	N 	0.7009	0.1967	0.6189	-0.02
Mof_O 	O 	0.6847	0.0737	0.5916	-0.082
Mof_O 	O 	0.7503	0.2759	0.5756	-0.076
Mof_O 	O 	0.6991	0.8957	0.764	-0.18
Mof_O 	O 	0.7868	0.8364	0.6367	-0.163
Mof_C 	C 	0.7899	0.9251	0.7153	0.25
Mof_C 	C 	0.9097	0.0669	0.751	0.037
Mof_C 	C 	0.9399	0.1617	0.8465	-0.128
Mof_H 	H 	0.884	0.1381	0.889	0.131
Mof_C 	C 	0.0549	0.2907	0.8754	0.162
Mof_C 	C 	0.1414	0.3314	0.8165	-0.126
Mof_H 	H 	0.2198	0.4181	0.8395	0.125
Mof_C 	C 	0.1081	0.2378	0.7201	0.037
Mof_C 	C 	0.9937	0.1096	0.6881	-0.068
Mof_H 	H 	0.9712	0.0496	0.6236	0.113
Mof_C 	C 	0.1945	0.2795	0.65	0.256
Mof_O 	O 	0.1488	0.198	0.5605	-0.168
Mof_O 	O 	0.3069	0.3911	0.6791	-0.186
Mof_N 	N 	0.0851	0.3901	0.9757	-0.02
Mof_O 	O 	0.151	0.5176	0.9901	-0.086
Mof_O 	O 	0.0444	0.3454	0.0388	-0.077
Mof_O 	O 	0.521	0.5732	0.5959	-0.712
Mof_H 	H 	0.569	0.5714	0.6412	0.418
Mof_H 	H 	0.489	0.6268	0.6174	0.421
Mof_U 	U 	0.39187	0.16925	0.11058	0.016
Mof_U 	U 	0.65899	0.64862	0.49018	0.038
Mof_O 	O 	0.3526	0.3641	0.212	-0.205
Mof_O 	O 	0.4268	0.3878	0.0819	-0.187
Mof_C 	C 	0.3902	0.4344	0.1566	0.272
Mof_C 	C 	0.39	0.5785	0.1848	0.032
Mof_C 	C 	0.343	0.6237	0.2674	-0.115
Mof_H 	H 	0.3151	0.5688	0.3056	0.12
Mof_C 	C 	0.339	0.7501	0.2909	0.153
Mof_C 	C 	0.3738	0.8333	0.2333	-0.116
Mof_H 	H 	0.3679	0.9182	0.2503	0.122
Mof_C 	C 	0.4176	0.785	0.1496	0.032
Mof_C 	C 	0.4262	0.6568	0.127	-0.06
Mof_H 	H 	0.4569	0.625	0.0719	0.103
Mof_C 	C 	0.4485	0.8667	0.0843	0.255
Mof_O 	O 	0.5314	0.8502	0.0316	-0.158
Mof_O 	O 	0.3958	0.951	0.0864	-0.164
Mof_N 	N 	0.2991	0.8033	0.3811	-0.02
Mof_O 	O 	0.3153	0.9263	0.4084	-0.082
Mof_O 	O 	0.2497	0.7241	0.4244	-0.076
Mof_O 	O 	0.3009	0.1043	0.236	-0.18
Mof_O 	O 	0.2132	0.1636	0.3633	-0.163
Mof_C 	C 	0.2101	0.0749	0.2847	0.25
Mof_C 	C 	0.0903	0.9331	0.249	0.037
Mof_C 	C 	0.0601	0.8383	0.1535	-0.128
Mof_H 	H 	0.116	0.8619	0.111	0.131
Mof_C 	C 	0.9451	0.7093	0.1246	0.162
Mof_C 	C 	0.8586	0.6686	0.1835	-0.126
Mof_H 	H 	0.7802	0.5819	0.1605	0.125
Mof_C 	C 	0.8919	0.7622	0.2799	0.037
Mof_C 	C 	0.0063	0.8904	0.3119	-0.068
Mof_H 	H 	0.0288	0.9504	0.3764	0.113
Mof_C 	C 	0.8055	0.7205	0.35	0.256
Mof_O 	O 	0.8512	0.802	0.4395	-0.168
Mof_O 	O 	0.6931	0.6089	0.3209	-0.186
Mof_N 	N 	0.9149	0.6099	0.0243	-0.02
Mof_O 	O 	0.849	0.4824	0.0099	-0.086
Mof_O 	O 	0.9556	0.6546	0.9612	-0.077
Mof_O 	O 	0.479	0.4268	0.4041	-0.712
Mof_H 	H 	0.431	0.4286	0.3588	0.418
Mof_H 	H 	0.511	0.3732	0.3826	0.421
_end
