data_functionalizedCrystal
_audit_creation_method	'EQeq! by Chris Wilmer'
_symmetry_space_group_name_H-M	'P1'
_symmetry_Int_Tables_number	1
_symmetry_cell_setting	triclinic
loop_
_symmetry_equiv_pos_as_xyz
  x,y,z
_cell_length_a	18.375
_cell_length_b	24.688
_cell_length_c	35.257
_cell_angle_alpha	90.345
_cell_angle_beta	90
_cell_angle_gamma	90
loop_
_atom_site_label
_atom_site_type_symbol
_atom_site_fract_x
_atom_site_fract_y
_atom_site_fract_z
_atom_site_charge
Mof_Fe	Fe	0.34049	0.82819	0.89128	0.966
Mof_Fe	Fe	0.76592	0.29304	0.62137	0.984
Mof_Fe	Fe	0.90455	0.25434	0.67461	0.977
Mof_Fe	Fe	0.40455	0.74566	0.82539	0.977
Mof_Fe	Fe	0.84049	0.17181	0.60872	0.966
Mof_Fe	Fe	0.23408	0.70696	0.37863	0.984
Mof_Fe	Fe	0.59545	0.25434	0.17461	0.977
Mof_Fe	Fe	0.73408	0.29304	0.12137	0.984
Mof_Fe	Fe	0.15951	0.82819	0.39128	0.966
Mof_Fe	Fe	0.09545	0.74566	0.32539	0.977
Mof_Fe	Fe	0.65951	0.17181	0.10872	0.966
Mof_Fe	Fe	0.26592	0.70696	0.87863	0.984
Mof_H 	H 	0.2896	0.9549	0.8095	0.017
Mof_H 	H 	0.565	0.3561	0.7672	0.081
Mof_H 	H 	0.4114	0.9278	0.6945	0.089
Mof_H 	H 	0.4363	0.7507	0.0678	0.093
Mof_H 	H 	0.7816	0.9799	0.7389	0.097
Mof_H 	H 	0.3231	0.645	0.9745	0.02
Mof_H 	H 	0.081	0.863	0.2427	0.016
Mof_H 	H 	0.7841	0.0046	0.2968	0.227
Mof_H 	H 	0.5368	0.0447	0.6353	0.077
Mof_H 	H 	0.5718	0.5147	0.8363	0.091
Mof_H 	H 	0.5912	0.5373	0.0965	0.109
Mof_H 	H 	0.7184	0.9799	0.2389	0.096
Mof_H 	H 	0.0718	0.4853	0.6637	0.091
Mof_H 	H 	0.581	0.137	0.2573	0.016
Mof_H 	H 	0.448	0.7658	0.3677	0.024
Mof_H 	H 	0.4536	0.0299	0.6888	0.035
Mof_H 	H 	0.1014	0.7898	0.5112	0.015
Mof_H 	H 	0.7635	0.3163	0.3329	0.078
Mof_H 	H 	0.935	0.3561	0.2672	0.08
Mof_H 	H 	0.065	0.6439	0.7328	0.08
Mof_H 	H 	0.419	0.863	0.7427	0.016
Mof_H 	H 	0.1317	0.6644	0.7864	0.019
Mof_H 	H 	0.6014	0.2102	0.9888	0.015
Mof_H 	H 	0.5586	0.8083	0.353	0.075
Mof_H 	H 	0.0886	0.9278	0.1945	0.088
Mof_H 	H 	0.8759	0.7683	0.3495	0.019
Mof_H 	H 	0.5142	0.5988	0.831	0.014
Mof_H 	H 	0.4408	0.5752	0.1837	0.032
Mof_H 	H 	0.2159	0.9954	0.7032	0.227
Mof_H 	H 	0.8231	0.355	0.5255	0.019
Mof_H 	H 	0.656	0.953	0.8755	0.097
Mof_H 	H 	0.5886	0.0722	0.3055	0.088
Mof_H 	H 	0.8036	0.2934	0.7788	0.022
Mof_H 	H 	0.919	0.137	0.7573	0.016
Mof_H 	H 	0.7159	0.0046	0.7968	0.227
Mof_H 	H 	0.8986	0.2102	0.4888	0.015
Mof_H 	H 	0.1769	0.645	0.4745	0.019
Mof_H 	H 	0.8533	0.0869	0.1192	0.022
Mof_H 	H 	0.4858	0.4012	0.169	0.014
Mof_H 	H 	0.9408	0.4248	0.3163	0.032
Mof_H 	H 	0.9414	0.8083	0.853	0.075
Mof_H 	H 	0.4632	0.9553	0.3647	0.077
Mof_H 	H 	0.0637	0.7507	0.5678	0.092
Mof_H 	H 	0.6317	0.3356	0.7136	0.019
Mof_H 	H 	0.7365	0.3163	0.8329	0.078
Mof_H 	H 	0.9858	0.5988	0.331	0.015
Mof_H 	H 	0.9088	0.5373	0.5965	0.109
Mof_H 	H 	0.141	0.701	0.6244	0.033
Mof_H 	H 	0.3683	0.6644	0.2864	0.019
Mof_H 	H 	0.5268	0.4503	0.9438	0.222
Mof_H 	H 	0.156	0.047	0.6245	0.097
Mof_H 	H 	0.4732	0.5497	0.0562	0.222
Mof_H 	H 	0.9732	0.4503	0.4438	0.222
Mof_H 	H 	0.359	0.701	0.1244	0.033
Mof_H 	H 	0.6241	0.7683	0.8495	0.018
Mof_H 	H 	0.6964	0.2934	0.2788	0.022
Mof_H 	H 	0.6467	0.0869	0.6192	0.022
Mof_H 	H 	0.9632	0.0447	0.1353	0.077
Mof_H 	H 	0.4088	0.4627	0.9035	0.109
Mof_H 	H 	0.0368	0.9553	0.8647	0.077
Mof_H 	H 	0.844	0.953	0.3755	0.097
Mof_H 	H 	0.8683	0.3356	0.2136	0.019
Mof_H 	H 	0.5637	0.2493	0.9322	0.092
Mof_H 	H 	0.2816	0.0201	0.7611	0.096
Mof_H 	H 	0.1393	0.6058	0.5314	0.09
Mof_H 	H 	0.1241	0.2317	0.6505	0.019
Mof_H 	H 	0.0268	0.5497	0.5562	0.222
Mof_H 	H 	0.0464	0.0299	0.1888	0.035
Mof_H 	H 	0.2635	0.6837	0.1671	0.078
Mof_H 	H 	0.3986	0.7898	0.0112	0.015
Mof_H 	H 	0.9114	0.0722	0.8055	0.088
Mof_H 	H 	0.3759	0.2317	0.1505	0.018
Mof_H 	H 	0.6393	0.3942	0.9686	0.09
Mof_H 	H 	0.0437	0.0888	0.6123	0.018
Mof_H 	H 	0.1467	0.9131	0.8808	0.022
Mof_H 	H 	0.8607	0.3942	0.4686	0.09
Mof_H 	H 	0.7104	0.0451	0.1905	0.016
Mof_H 	H 	0.052	0.7658	0.8677	0.024
Mof_H 	H 	0.2365	0.6837	0.6671	0.078
Mof_H 	H 	0.641	0.299	0.8756	0.033
Mof_H 	H 	0.0142	0.4012	0.669	0.015
Mof_H 	H 	0.344	0.047	0.1245	0.097
Mof_H 	H 	0.1586	0.1403	0.1269	0.036
Mof_H 	H 	0.3522	0.5468	0.8991	0.011
Mof_H 	H 	0.0912	0.4627	0.4035	0.109
Mof_H 	H 	0.3533	0.9131	0.3808	0.022
Mof_H 	H 	0.5592	0.4248	0.8163	0.032
Mof_H 	H 	0.2367	0.1904	0.6614	0.087
Mof_H 	H 	0.4563	0.0888	0.1123	0.018
Mof_H 	H 	0.4414	0.1917	0.647	0.075
Mof_H 	H 	0.8414	0.8597	0.8731	0.036
Mof_H 	H 	0.3607	0.6058	0.0314	0.09
Mof_H 	H 	0.6769	0.355	0.0255	0.019
Mof_H 	H 	0.552	0.2342	0.6323	0.024
Mof_H 	H 	0.0592	0.5752	0.6837	0.032
Mof_H 	H 	0.4282	0.4853	0.1637	0.091
Mof_H 	H 	0.6478	0.4532	0.1009	0.011
Mof_H 	H 	0.8522	0.4532	0.6009	0.012
Mof_H 	H 	0.0586	0.1917	0.147	0.075
Mof_H 	H 	0.7896	0.0451	0.6905	0.016
Mof_H 	H 	0.3414	0.1403	0.6269	0.036
Mof_H 	H 	0.948	0.2342	0.1323	0.024
Mof_H 	H 	0.7367	0.8096	0.8386	0.087
Mof_H 	H 	0.9363	0.2493	0.4322	0.092
Mof_H 	H 	0.7633	0.8096	0.3386	0.087
Mof_H 	H 	0.2184	0.0201	0.2611	0.096
Mof_H 	H 	0.1964	0.7066	0.2212	0.022
Mof_H 	H 	0.3036	0.7066	0.7212	0.022
Mof_H 	H 	0.1478	0.5468	0.3991	0.012
Mof_H 	H 	0.6586	0.8597	0.3731	0.036
Mof_H 	H 	0.435	0.6439	0.2328	0.08
Mof_H 	H 	0.2841	0.9954	0.2032	0.227
Mof_H 	H 	0.2633	0.1904	0.1614	0.087
Mof_H 	H 	0.5464	0.9701	0.3112	0.035
Mof_H 	H 	0.9563	0.9112	0.3877	0.018
Mof_H 	H 	0.9536	0.9701	0.8112	0.035
Mof_H 	H 	0.9282	0.5147	0.3363	0.091
Mof_H 	H 	0.859	0.299	0.3756	0.033
Mof_H 	H 	0.2104	0.9549	0.3095	0.016
Mof_H 	H 	0.5437	0.9112	0.8877	0.018
Mof_C 	C 	0.88628	0.34391	0.26983	-0.142
Mof_C 	C 	0.8908	0.24777	0.48476	0.092
Mof_C 	C 	0.22329	0.08919	0.15677	-0.097
Mof_C 	C 	0.13674	0.86188	0.31135	0.424
Mof_C 	C 	0.71492	0.32011	0.80857	-0.136
Mof_C 	C 	0.19724	0.16956	0.6518	-0.155
Mof_C 	C 	0.15401	0.66652	0.49344	0.087
Mof_C 	C 	0.83028	0.2533	0.54818	0.415
Mof_C 	C 	0.51691	0.82969	0.35852	-0.129
Mof_C 	C 	0.63151	0.35665	0.97269	-0.158
Mof_C 	C 	0.395	0.89186	0.37505	0.067
Mof_C 	C 	0.5422	0.399	0.90571	0.194
Mof_C 	C 	0.27671	0.08919	0.65677	-0.097
Mof_C 	C 	0.90872	0.95501	0.81933	-0.003
Mof_C 	C 	0.6581	0.8895	0.3561	-0.01
Mof_C 	C 	0.50451	0.51912	0.1292	0.139
Mof_C 	C 	0.3908	0.75223	0.01524	0.092
Mof_C 	C 	0.605	0.10814	0.62495	0.067
Mof_C 	C 	0.81457	0.05063	0.71375	0.089
Mof_C 	C 	0.85739	0.27831	0.51245	-0.158
Mof_C 	C 	0.4669	0.57292	0.1283	-0.112
Mof_C 	C 	0.2665	0.70073	0.79333	0.403
Mof_C 	C 	0.88643	0.33159	0.3746	-0.002
Mof_C 	C 	0.49264	0.57121	0.84592	0.095
Mof_C 	C 	0.61357	0.33159	0.8746	-0.002
Mof_C 	C 	0.53935	0.08307	0.63435	-0.131
Mof_C 	C 	0.39485	0.64181	0.16002	-0.044
Mof_C 	C 	0.41721	0.10939	0.12257	0.086
Mof_C 	C 	0.7665	0.29927	0.70667	0.403
Mof_C 	C 	0.3468	0.66869	0.26206	0.077
Mof_C 	C 	0.60874	0.10498	0.25346	0.087
Mof_C 	C 	0.22245	0.04575	0.18191	0.2
Mof_C 	C 	0.5648	0.40612	0.83955	0.001
Mof_C 	C 	0.65439	0.01981	0.27654	0.125
Mof_C 	C 	0.85029	0.91547	0.37023	-0.15
Mof_C 	C 	0.3419	0.1105	0.6439	-0.01
Mof_C 	C 	0.3565	0.66077	0.19413	0.088
Mof_C 	C 	0.36928	0.19424	0.14513	0.08
Mof_C 	C 	0.14971	0.08453	0.62977	-0.15
Mof_C 	C 	0.39198	0.63581	0.86258	0.429
Mof_C 	C 	0.15717	0.02345	0.19381	-0.116
Mof_C 	C 	0.00451	0.48088	0.3708	0.138
Mof_C 	C 	0.80972	0.01174	0.7427	-0.17
Mof_C 	C 	0.15439	0.98019	0.22346	0.124
Mof_C 	C 	0.40832	0.08876	0.65555	-0.036
Mof_C 	C 	0.39114	0.83578	0.37597	-0.147
Mof_C 	C 	0.01691	0.17031	0.14148	-0.129
Mof_C 	C 	0.57277	0.41871	0.1356	-0.168
Mof_C 	C 	0.07277	0.58129	0.3644	-0.168
Mof_C 	C 	0.39126	0.89502	0.74654	0.087
Mof_C 	C 	0.895	0.10814	0.12495	0.067
Mof_C 	C 	0.1581	0.1105	0.1439	-0.01
Mof_C 	C 	0.4352	0.59388	0.16045	0.001
Mof_C 	C 	0.90832	0.91124	0.84445	-0.036
Mof_C 	C 	0.65717	0.97655	0.30619	-0.116
Mof_C 	C 	0.66972	0.2533	0.04818	0.415
Mof_C 	C 	0.4578	0.601	0.09429	0.194
Mof_C 	C 	0.02214	0.11369	0.14237	0.081
Mof_C 	C 	0.4018	0.67397	0.05499	0.136
Mof_C 	C 	0.34283	0.02345	0.69381	-0.116
Mof_C 	C 	0.08279	0.10939	0.62257	0.086
Mof_C 	C 	0.04874	0.8042	0.86745	0.066
Mof_C 	C 	0.89485	0.35819	0.33998	-0.044
Mof_C 	C 	0.57354	0.83676	0.86965	-0.151
Mof_C 	C 	0.10886	0.83578	0.87597	-0.147
Mof_C 	C 	0.86326	0.13812	0.68865	0.424
Mof_C 	C 	0.45126	0.8042	0.36745	0.066
Mof_C 	C 	0.1445	0.90333	0.28084	-0.162
Mof_C 	C 	0.5982	0.32603	0.94501	0.136
Mof_C 	C 	0.9352	0.40612	0.33955	0.001
Mof_C 	C 	0.0648	0.59388	0.66045	0.001
Mof_C 	C 	0.52701	0.52116	0.84904	-0.173
Mof_C 	C 	0.1092	0.75223	0.51524	0.092
Mof_C 	C 	0.60333	0.4595	0.11391	0.099
Mof_C 	C 	0.65401	0.33348	0.00656	0.087
Mof_C 	C 	0.60802	0.36419	0.13742	0.429
Mof_C 	C 	0.6435	0.33923	0.80587	0.088
Mof_C 	C 	0.28508	0.67989	0.19143	-0.136
Mof_C 	C 	0.2931	0.1145	0.14454	0.133
Mof_C 	C 	0.54874	0.1958	0.63255	0.066
Mof_C 	C 	0.69028	0.01174	0.2427	-0.169
Mof_C 	C 	0.88665	0.06655	0.7822	-0.163
Mof_C 	C 	0.35029	0.08453	0.12977	-0.15
Mof_C 	C 	0.48309	0.17031	0.64148	-0.129
Mof_C 	C 	0.56934	0.50948	0.11109	-0.18
Mof_C 	C 	0.99928	0.1894	0.62859	0.419
Mof_C 	C 	0.72329	0.91081	0.34323	-0.097
Mof_C 	C 	0.84283	0.97655	0.80619	-0.116
Mof_C 	C 	0.64971	0.91547	0.87023	-0.15
Mof_C 	C 	0.77755	0.95425	0.81809	0.2
Mof_C 	C 	0.19028	0.98826	0.2573	-0.17
Mof_C 	C 	0.59168	0.91124	0.34445	-0.036
Mof_C 	C 	0.30276	0.16956	0.1518	-0.155
Mof_C 	C 	0.61372	0.34391	0.76983	-0.142
Mof_C 	C 	0.49549	0.48088	0.8708	0.139
Mof_C 	C 	0.89114	0.16422	0.12403	-0.147
Mof_C 	C 	0.00736	0.57121	0.34592	0.094
Mof_C 	C 	0.93066	0.50948	0.61109	-0.179
Mof_C 	C 	0.25519	0.69345	0.72356	0.07
Mof_C 	C 	0.42723	0.58129	0.8644	-0.168
Mof_C 	C 	0.91322	0.27089	0.45109	-0.164
Mof_C 	C 	0.47299	0.47884	0.15096	-0.173
Mof_C 	C 	0.7069	0.8855	0.85546	0.133
Mof_C 	C 	0.41748	0.64792	0.09275	-0.106
Mof_C 	C 	0.7238	0.31242	0.74073	-0.152
Mof_C 	C 	0.58279	0.89061	0.87743	0.086
Mof_C 	C 	0.97786	0.88631	0.85763	0.081
Mof_C 	C 	0.8555	0.09667	0.71916	-0.162
Mof_C 	C 	0.3555	0.90333	0.78084	-0.162
Mof_C 	C 	0.63674	0.13812	0.18865	0.424
Mof_C 	C 	0.64261	0.27831	0.01245	-0.158
Mof_C 	C 	0.11357	0.66841	0.6254	-0.002
Mof_C 	C 	0.7931	0.8855	0.35546	0.133
Mof_C 	C 	0.24481	0.69345	0.22356	0.07
Mof_C 	C 	0.0982	0.67397	0.55499	0.136
Mof_C 	C 	0.60515	0.35819	0.83998	-0.044
Mof_C 	C 	0.38643	0.66841	0.1254	-0.002
Mof_C 	C 	0.18543	0.94937	0.28625	0.089
Mof_C 	C 	0.58678	0.27089	0.95109	-0.164
Mof_C 	C 	0.679	0.19136	0.61517	0.419
Mof_C 	C 	0.86928	0.80576	0.35487	0.08
Mof_C 	C 	0.96065	0.08307	0.13435	-0.132
Mof_C 	C 	0.03935	0.91693	0.86565	-0.132
Mof_C 	C 	0.179	0.80864	0.88483	0.419
Mof_C 	C 	0.8565	0.33923	0.30587	0.088
Mof_C 	C 	0.91721	0.89061	0.37743	0.086
Mof_C 	C 	0.13072	0.19424	0.64513	0.08
Mof_C 	C 	0.10802	0.63581	0.36258	0.429
Mof_C 	C 	0.33028	0.7467	0.95182	0.415
Mof_C 	C 	0.75519	0.30655	0.77644	0.07
Mof_C 	C 	0.42646	0.16324	0.13035	-0.151
Mof_C 	C 	0.08252	0.64792	0.59275	-0.106
Mof_C 	C 	0.69724	0.83044	0.8482	-0.155
Mof_C 	C 	0.91748	0.35208	0.40725	-0.106
Mof_C 	C 	0.31457	0.94937	0.78625	0.089
Mof_C 	C 	0.38628	0.65609	0.23017	-0.142
Mof_C 	C 	0.2762	0.68758	0.25927	-0.152
Mof_C 	C 	0.72245	0.95425	0.31809	0.2
Mof_C 	C 	0.1532	0.66869	0.76206	0.077
Mof_C 	C 	0.6445	0.09667	0.21916	-0.162
Mof_C 	C 	0.46065	0.91693	0.36565	-0.131
Mof_C 	C 	0.74481	0.30655	0.27644	0.07
Mof_C 	C 	0.1435	0.66077	0.69413	0.088
Mof_C 	C 	0.321	0.80864	0.38483	0.419
Mof_C 	C 	0.105	0.89186	0.87505	0.067
Mof_C 	C 	0.78508	0.32011	0.30857	-0.136
Mof_C 	C 	0.49928	0.8106	0.87141	0.419
Mof_C 	C 	0.11372	0.65609	0.73017	-0.142
Mof_C 	C 	0.27755	0.04575	0.68191	0.2
Mof_C 	C 	0.2335	0.70073	0.29333	0.403
Mof_C 	C 	0.9669	0.42708	0.3717	-0.112
Mof_C 	C 	0.8468	0.33131	0.23794	0.077
Mof_C 	C 	0.16972	0.7467	0.45182	0.415
Mof_C 	C 	0.821	0.19136	0.11517	0.419
Mof_C 	C 	0.02701	0.47884	0.65096	-0.172
Mof_C 	C 	0.89126	0.10498	0.75346	0.087
Mof_C 	C 	0.8419	0.8895	0.8561	-0.01
Mof_C 	C 	0.0331	0.57292	0.6283	-0.112
Mof_C 	C 	0.36326	0.86188	0.81135	0.424
Mof_C 	C 	0.89667	0.4595	0.61391	0.099
Mof_C 	C 	0.63072	0.80576	0.85487	0.08
Mof_C 	C 	0.77671	0.91081	0.84323	-0.097
Mof_C 	C 	0.50072	0.1894	0.12859	0.419
Mof_C 	C 	0.36849	0.64335	0.02731	-0.158
Mof_C 	C 	0.92723	0.41871	0.6356	-0.168
Mof_C 	C 	0.86849	0.35665	0.47269	-0.158
Mof_C 	C 	0.30972	0.98826	0.7573	-0.169
Mof_C 	C 	0.21492	0.67989	0.69143	-0.136
Mof_C 	C 	0.35739	0.72169	0.98755	-0.158
Mof_C 	C 	0.59128	0.95501	0.31933	-0.003
Mof_C 	C 	0.9018	0.32603	0.44501	0.136
Mof_C 	C 	0.2069	0.1145	0.64454	0.133
Mof_C 	C 	0.47786	0.11369	0.64237	0.081
Mof_C 	C 	0.09168	0.08876	0.15555	-0.036
Mof_C 	C 	0.97299	0.52116	0.34904	-0.172
Mof_C 	C 	0.80276	0.83044	0.3482	-0.155
Mof_C 	C 	0.95126	0.1958	0.13255	0.066
Mof_C 	C 	0.2238	0.68758	0.75927	-0.152
Mof_C 	C 	0.7335	0.29927	0.20667	0.403
Mof_C 	C 	0.09128	0.04499	0.18067	-0.003
Mof_C 	C 	0.0422	0.601	0.59429	0.194
Mof_C 	C 	0.08678	0.72911	0.54891	-0.164
Mof_C 	C 	0.58252	0.35208	0.90725	-0.106
Mof_C 	C 	0.99264	0.42879	0.65408	0.094
Mof_C 	C 	0.14261	0.72169	0.48755	-0.158
Mof_C 	C 	0.84599	0.33348	0.50656	0.087
Mof_C 	C 	0.00072	0.8106	0.37141	0.419
Mof_C 	C 	0.07354	0.16324	0.63035	-0.151
Mof_C 	C 	0.6092	0.24777	0.98476	0.092
Mof_C 	C 	0.38665	0.93345	0.7178	-0.163
Mof_C 	C 	0.61335	0.06655	0.2822	-0.163
Mof_C 	C 	0.68543	0.05063	0.21375	0.089
Mof_C 	C 	0.10515	0.64181	0.66002	-0.044
Mof_C 	C 	0.5331	0.42708	0.8717	-0.112
Mof_C 	C 	0.60886	0.16422	0.62403	-0.147
Mof_C 	C 	0.89198	0.36419	0.63742	0.429
Mof_C 	C 	0.98309	0.82969	0.85852	-0.129
Mof_C 	C 	0.84561	0.01981	0.77654	0.124
Mof_C 	C 	0.92646	0.83676	0.36965	-0.151
Mof_C 	C 	0.6532	0.33131	0.73794	0.077
Mof_C 	C 	0.10333	0.5405	0.38609	0.099
Mof_C 	C 	0.10874	0.89502	0.24654	0.087
Mof_C 	C 	0.52214	0.88631	0.35763	0.081
Mof_C 	C 	0.34599	0.66652	0.99344	0.087
Mof_C 	C 	0.41322	0.72911	0.04891	-0.164
Mof_C 	C 	0.13151	0.64335	0.52731	-0.158
Mof_C 	C 	0.9578	0.399	0.40571	0.194
Mof_C 	C 	0.99549	0.51912	0.6292	0.138
Mof_C 	C 	0.7762	0.31242	0.24073	-0.152
Mof_C 	C 	0.39667	0.5405	0.88609	0.099
Mof_C 	C 	0.06934	0.49052	0.38891	-0.179
Mof_C 	C 	0.40872	0.04499	0.68067	-0.003
Mof_C 	C 	0.50736	0.42879	0.15408	0.095
Mof_C 	C 	0.11335	0.93345	0.2178	-0.163
Mof_C 	C 	0.43066	0.49052	0.88891	-0.18
Mof_C 	C 	0.34561	0.98019	0.72346	0.125
Mof_O 	O 	0.83592	0.23818	0.63471	-0.533
Mof_O 	O 	0.45084	0.83851	0.8879	-0.388
Mof_O 	O 	0.09803	0.82153	0.30484	-0.407
Mof_O 	O 	0.16408	0.76182	0.36529	-0.533
Mof_O 	O 	0.9921	0.42032	0.43813	-0.38
Mof_O 	O 	0.5079	0.42032	0.93813	-0.38
Mof_O 	O 	0.31835	0.75825	0.37783	-0.396
Mof_O 	O 	0.81835	0.24175	0.12217	-0.397
Mof_O 	O 	0.50943	0.23457	0.14293	-0.406
Mof_O 	O 	0.33592	0.76182	0.86529	-0.533
Mof_O 	O 	0.25857	0.68748	0.32542	-0.398
Mof_O 	O 	0.95084	0.16149	0.6121	-0.388
Mof_O 	O 	0.85522	0.20848	0.55783	-0.392
Mof_O 	O 	0.4207	0.66796	0.83869	-0.4
Mof_O 	O 	0.2683	0.83611	0.39602	-0.4
Mof_O 	O 	0.68165	0.24175	0.62217	-0.396
Mof_O 	O 	0.6688	0.12819	0.15795	-0.388
Mof_O 	O 	0.00943	0.76543	0.35707	-0.406
Mof_O 	O 	0.28932	0.02642	0.19393	-0.385
Mof_O 	O 	0.2317	0.83611	0.89602	-0.4
Mof_O 	O 	0.54916	0.16149	0.1121	-0.388
Mof_O 	O 	0.16316	0.64471	0.3815	-0.409
Mof_O 	O 	0.66408	0.23818	0.13471	-0.533
Mof_O 	O 	0.7683	0.16389	0.10398	-0.4
Mof_O 	O 	0.7317	0.16389	0.60398	-0.4
Mof_O 	O 	0.49057	0.76543	0.85707	-0.406
Mof_O 	O 	0.04916	0.83851	0.3879	-0.388
Mof_O 	O 	0.40197	0.82153	0.80484	-0.407
Mof_O 	O 	0.33684	0.64471	0.8815	-0.409
Mof_O 	O 	0.35522	0.79152	0.94217	-0.392
Mof_O 	O 	0.4921	0.57968	0.06187	-0.38
Mof_O 	O 	0.14478	0.79152	0.44217	-0.392
Mof_O 	O 	0.8312	0.12819	0.65795	-0.388
Mof_O 	O 	0.99057	0.23457	0.64293	-0.406
Mof_O 	O 	0.71668	0.28094	0.06651	-0.4
Mof_O 	O 	0.3312	0.87181	0.84205	-0.388
Mof_O 	O 	0.82753	0.27493	0.71169	-0.392
Mof_O 	O 	0.1688	0.87181	0.34205	-0.388
Mof_O 	O 	0.0079	0.57968	0.56187	-0.38
Mof_O 	O 	0.67247	0.27493	0.21169	-0.392
Mof_O 	O 	0.59803	0.17847	0.19516	-0.407
Mof_O 	O 	0.74143	0.31252	0.67458	-0.398
Mof_O 	O 	0.83684	0.35529	0.6185	-0.409
Mof_O 	O 	0.9207	0.33204	0.66131	-0.4
Mof_O 	O 	0.24143	0.68748	0.82542	-0.398
Mof_O 	O 	0.71068	0.97358	0.80607	-0.385
Mof_O 	O 	0.75857	0.31252	0.17458	-0.398
Mof_O 	O 	0.78332	0.28094	0.56651	-0.4
Mof_O 	O 	0.18165	0.75825	0.87783	-0.397
Mof_O 	O 	0.21668	0.71906	0.43349	-0.4
Mof_O 	O 	0.78932	0.97358	0.30607	-0.385
Mof_O 	O 	0.28332	0.71906	0.93349	-0.4
Mof_O 	O 	0.66316	0.35529	0.1185	-0.409
Mof_O 	O 	0.21068	0.02642	0.69393	-0.385
Mof_O 	O 	0.90197	0.17847	0.69516	-0.407
Mof_O 	O 	0.5793	0.33204	0.16131	-0.4
Mof_O 	O 	0.0793	0.66796	0.33869	-0.4
Mof_O 	O 	0.32753	0.72507	0.78831	-0.392
Mof_O 	O 	0.17247	0.72507	0.28831	-0.392
Mof_O 	O 	0.64478	0.20848	0.05783	-0.392
_end
