data_functionalizedCrystal
_audit_creation_method	'EQeq! by Chris Wilmer'
_symmetry_space_group_name_H-M	'P1'
_symmetry_Int_Tables_number	1
_symmetry_cell_setting	triclinic
loop_
_symmetry_equiv_pos_as_xyz
  x,y,z
_cell_length_a	12.6227
_cell_length_b	13.8253
_cell_length_c	32.699
_cell_angle_alpha	85.5877
_cell_angle_beta	80.2979
_cell_angle_gamma	62.8381
loop_
_atom_site_label
_atom_site_type_symbol
_atom_site_fract_x
_atom_site_fract_y
_atom_site_fract_z
_atom_site_charge
Mof_Mn	Mn	0.78803	0.99986	0.20831	0.679
Mof_Mn	Mn	0.78789	0.00014	0.70831	0.595
Mof_Mn	Mn	0.21211	0.99986	0.29169	0.671
Mof_Mn	Mn	-0	0	-0	0.572
Mof_Mn	Mn	0.21197	0.00014	0.79169	0.577
Mof_Mn	Mn	2.24581e-17	0	0.5	0.577
Mof_H 	H 	0.7547	0.2496	0.8056	0.09
Mof_H 	H 	0.5795	0.2962	0.9772	0.104
Mof_H 	H 	0.6622	0.5658	0.7034	0.078
Mof_H 	H 	0.5222	0.4144	0.2213	0.105
Mof_H 	H 	0.9366	0.5856	0.7213	0.106
Mof_H 	H 	0.198	0.5818	0.516	0.1
Mof_H 	H 	0.0839	0.5534	0.3059	0.052
Mof_H 	H 	0.3713	0.5852	0.2894	0.094
Mof_H 	H 	0.8243	0.2448	0.486	-0.007
Mof_H 	H 	0.6827	0.2516	0.2254	-0.013
Mof_H 	H 	0.1249	0.1272	0.5285	-0.01
Mof_H 	H 	0.4711	0.9022	0.8125	-0.021
Mof_H 	H 	0.893	0.5412	0.4873	0.052
Mof_H 	H 	0.0657	0.2516	0.2746	-0.02
Mof_H 	H 	0.5289	0.0978	0.1875	-0.035
Mof_H 	H 	0.802	0.4182	0.484	0.102
Mof_H 	H 	0.3733	0.0978	0.3125	-0.036
Mof_H 	H 	0.2453	0.7504	0.1944	0.093
Mof_H 	H 	0.4342	0.4588	0.9873	0.045
Mof_H 	H 	0.8757	0.7038	0.4772	0.096
Mof_H 	H 	0.8751	0.8728	0.4715	-0.006
Mof_H 	H 	0.0691	0.7552	0.986	-0.007
Mof_H 	H 	0.9309	0.2448	0.014	-0.003
Mof_H 	H 	0.9161	0.4466	0.6941	0.06
Mof_H 	H 	0.9735	0.097	0.7014	-0.005
Mof_H 	H 	0.1757	0.7552	0.514	-0.004
Mof_H 	H 	0.6373	0.4466	0.8059	0.052
Mof_H 	H 	0.3173	0.7484	0.7746	-0.012
Mof_H 	H 	0.3627	0.5534	0.1941	0.059
Mof_H 	H 	0.772	0.5658	0.7966	0.081
Mof_H 	H 	0.7798	0.4182	0.016	0.112
Mof_H 	H 	0.8798	0.7468	0.2075	-0.039
Mof_H 	H 	0.0043	0.7504	0.3056	0.086
Mof_H 	H 	0.6287	0.4148	0.7106	0.093
Mof_H 	H 	0.3917	0.2528	0.3177	0.117
Mof_H 	H 	0.0435	0.5852	0.2106	0.104
Mof_H 	H 	0.6083	0.7472	0.6823	0.117
Mof_H 	H 	0.4205	0.7038	0.0228	0.089
Mof_H 	H 	0.1202	0.2532	0.7925	-0.019
Mof_H 	H 	0.7479	0.1272	0.9715	-0.016
Mof_H 	H 	0.4778	0.5856	0.7787	0.103
Mof_H 	H 	0.1243	0.2962	0.5228	0.097
Mof_H 	H 	0.6267	0.9022	0.6875	-0.021
Mof_H 	H 	0.3734	0.7468	0.2925	-0.027
Mof_H 	H 	0.5658	0.5412	0.0127	0.083
Mof_H 	H 	0.0634	0.4144	0.2787	0.101
Mof_H 	H 	0.2202	0.5818	0.984	0.091
Mof_H 	H 	0.107	0.4588	0.5127	0.075
Mof_H 	H 	0.0265	0.903	0.2986	-0.006
Mof_H 	H 	0.6445	0.7472	0.8177	0.117
Mof_H 	H 	0.3378	0.4342	0.2966	0.079
Mof_H 	H 	0.6266	0.2532	0.7075	-0.032
Mof_H 	H 	0.2521	0.8728	0.0285	0.001
Mof_H 	H 	0.3555	0.2528	0.1823	0.116
Mof_H 	H 	0.9565	0.4148	0.7894	0.081
Mof_H 	H 	0.9343	0.7484	0.7254	-0.007
Mof_H 	H 	0.9957	0.2496	0.6944	0.097
Mof_H 	H 	0.9295	0.097	0.7986	-0.013
Mof_H 	H 	0.228	0.4342	0.2034	0.076
Mof_H 	H 	0.0705	0.903	0.2014	0.001
Mof_W 	W 	0.87972	0.86562	0.86784	0.563
Mof_W 	W 	0.74534	0.13438	0.36784	0.509
Mof_W 	W 	0.25466	0.86562	0.63216	0.547
Mof_W 	W 	0.12028	0.13438	0.13216	0.486
Mof_C 	C 	0.2342	0.35	0.2978	0.151
Mof_C 	C 	0.8852	0.256	0.494	0.111
Mof_C 	C 	0.0528	0.6484	0.2065	-0.219
Mof_C 	C 	0.3839	0.7464	0.784	0.129
Mof_C 	C 	0.3433	0.6208	0.0021	0.088
Mof_C 	C 	0.3105	0.1634	0.306	0.128
Mof_C 	C 	0.2322	0.6388	0.9919	-0.156
Mof_C 	C 	0.2181	0.9586	0.12528	-0.013
Mof_C 	C 	0.9315	0.9134	0.9205	0.001
Mof_C 	C 	0.6161	0.2536	0.216	0.13
Mof_C 	C 	0.3868	0.7994	0.5779	-0.037
Mof_C 	C 	0.4787	0.6494	0.7853	-0.202
Mof_C 	C 	0.8139	0.3586	0.6996	0.108
Mof_C 	C 	0.1729	0.746	0.1981	-0.161
Mof_C 	C 	0.1068	0.2736	0.1628	-0.042
Mof_C 	C 	0.5842	0.65	0.7978	0.152
Mof_C 	C 	0.2267	0.922	0.6956	-0.017
Mof_C 	C 	0.7003	0.2534	0.7071	0.112
Mof_C 	C 	0.129	0.6388	0.5081	-0.183
Mof_C 	C 	0.1148	0.744	0.506	0.104
Mof_C 	C 	0.3804	0.7264	0.6628	-0.04
Mof_C 	C 	0.8275	0.3586	0.8004	0.092
Mof_C 	C 	0.0811	0.746	0.3019	-0.161
Mof_C 	C 	0.1725	0.6414	0.1996	0.118
Mof_C 	C 	0.6756	0.7448	0.6912	-0.212
Mof_C 	C 	0.8271	0.254	0.8019	-0.161
Mof_C 	C 	0.5261	0.1634	0.194	0.129
Mof_C 	C 	0.9326	0.163	0.79794	0.115
Mof_C 	C 	0.0603	0.2888	0.51547	-0.195
Mof_C 	C 	0.7012	0.3516	0.7065	-0.175
Mof_C 	C 	0.6895	0.8366	0.694	0.128
Mof_C 	C 	0.7658	0.65	0.7022	0.15
Mof_C 	C 	0.9044	0.163	0.70206	0.096
Mof_C 	C 	0.0359	0.6208	0.4979	0.117
Mof_C 	C 	0.8138	0.7994	0.9221	-0.033
Mof_C 	C 	0.0685	0.0866	0.0795	-0.036
Mof_C 	C 	0.0674	0.837	0.20206	0.077
Mof_C 	C 	0.4204	0.2552	0.1912	-0.217
Mof_C 	C 	0.3244	0.2552	0.3088	-0.219
Mof_C 	C 	0.1281	0.3506	0.2853	-0.207
Mof_C 	C 	0.3965	0.9124	0.6354	-0.023
Mof_C 	C 	0.7733	0.078	0.3044	-0.023
Mof_C 	C 	0.8588	0.256	0.006	0.115
Mof_C 	C 	0.8233	0.9586	0.37472	-0.012
Mof_C 	C 	0.7073	0.455	0.8023	-0.06
Mof_C 	C 	0.3491	0.7112	0.01547	-0.153
Mof_C 	C 	0.8932	0.7264	0.8372	-0.034
Mof_C 	C 	0.8449	0.0866	0.4205	-0.022
Mof_C 	C 	0.0956	0.837	0.29794	0.093
Mof_C 	C 	0.2927	0.545	0.1977	-0.076
Mof_C 	C 	0.9384	0.8146	0.482	0.127
Mof_C 	C 	0.753	0.1854	0.982	0.118
Mof_C 	C 	0.1551	0.9134	0.5795	-0.009
Mof_C 	C 	0.9257	0.1026	0.3404	-0.006
Mof_C 	C 	0.9641	0.3792	0.5021	0.136
Mof_C 	C 	0.6567	0.3792	0.9979	0.163
Mof_C 	C 	0.7407	0.5566	0.7014	-0.107
Mof_C 	C 	0.0283	0.8974	0.8404	-0.047
Mof_C 	C 	0.9717	0.1026	0.1596	-0.012
Mof_C 	C 	0.8513	0.922	0.8044	-0.011
Mof_C 	C 	0.2997	0.7466	0.2929	0.111
Mof_C 	C 	0.7027	0.5566	0.7986	-0.114
Mof_C 	C 	0.7678	0.3612	0.0081	-0.205
Mof_C 	C 	0.247	0.8146	0.018	0.094
Mof_C 	C 	0.2973	0.4434	0.2014	-0.105
Mof_C 	C 	0.5526	0.4864	0.00328	-0.141
Mof_C 	C 	0.6132	0.2006	0.4221	-0.039
Mof_C 	C 	0.2988	0.6484	0.2935	-0.173
Mof_C 	C 	0.4158	0.35	0.2022	0.149
Mof_C 	C 	0.039	0.5136	0.50328	-0.135
Mof_C 	C 	0.1412	0.744	0.994	0.101
Mof_C 	C 	0.1862	0.2006	0.0779	-0.043
Mof_C 	C 	0.1303	0.2536	0.284	0.129
Mof_C 	C 	0.8377	0.455	0.6977	-0.07
Mof_C 	C 	0.3089	0.0876	0.1354	-0.034
Mof_C 	C 	0.4739	0.8366	0.806	0.127
Mof_C 	C 	0.5213	0.3506	0.2147	-0.203
Mof_C 	C 	0.9599	0.2754	0.1187	-0.011
Mof_C 	C 	0.8719	0.6494	0.7147	-0.2
Mof_C 	C 	0.4474	0.5136	0.99672	-0.03
Mof_C 	C 	0.0463	0.2534	0.7929	0.059
Mof_C 	C 	0.8697	0.7464	0.716	0.129
Mof_C 	C 	0.0616	0.1854	0.518	0.082
Mof_C 	C 	0.5796	0.7448	0.8088	-0.213
Mof_C 	C 	0.0401	0.7246	0.8813	-0.059
Mof_C 	C 	0.2353	0.7246	0.6187	-0.041
Mof_C 	C 	0.961	0.4864	0.49672	-0.037
Mof_C 	C 	0.9472	0.3516	0.7935	-0.126
Mof_C 	C 	0.9189	0.254	0.6981	-0.161
Mof_C 	C 	0.6509	0.2888	0.98453	-0.195
Mof_C 	C 	0.6196	0.2736	0.3372	-0.034
Mof_C 	C 	0.0743	0.8974	0.6596	-0.051
Mof_C 	C 	0.6911	0.9124	0.8646	-0.027
Mof_C 	C 	0.1487	0.078	0.1956	-0.032
Mof_C 	C 	0.1861	0.6414	0.3004	0.103
Mof_C 	C 	0.1623	0.545	0.3023	-0.067
Mof_C 	C 	0.1767	0.0414	0.62528	-0.076
Mof_C 	C 	0.9537	0.7466	0.2071	0.16
Mof_C 	C 	0.2593	0.4434	0.2986	-0.112
Mof_C 	C 	0.7819	0.0414	0.87472	-0.068
Mof_C 	C 	0.7647	0.2754	0.3813	-0.032
Mof_C 	C 	0.6035	0.0876	0.3646	-0.037
Mof_C 	C 	0.9397	0.7112	0.48453	-0.156
Mof_C 	C 	0.871	0.3612	0.4919	-0.179
Mof_N 	N 	0.8991	0.653	0.82048	-0.096
Mof_N 	N 	0.21744	0.15812	0.29491	-0.226
Mof_N 	N 	0.2292	0.647	0.60968	-0.093
Mof_N 	N 	0.4087	0.0524	0.13726	-0.107
Mof_N 	N 	0.0422	0.0608	0.05253	-0.178
Mof_N 	N 	0.7708	0.353	0.39032	-0.088
Mof_N 	N 	0.4479	0.653	0.67952	-0.099
Mof_N 	N 	0.9787	0.9204	0.67657	-0.133
Mof_N 	N 	0.2208	0.2376	0.04787	-0.096
Mof_N 	N 	0.5521	0.347	0.32048	-0.099
Mof_N 	N 	0.7287	0.1338	0.8795	-0.093
Mof_N 	N 	0.8991	0.0796	0.17657	-0.172
Mof_N 	N 	0.0213	0.0796	0.32343	-0.194
Mof_N 	N 	0.8362	0.9528	0.7717	-0.154
Mof_N 	N 	0.5913	0.9476	0.86274	-0.094
Mof_N 	N 	0.62444	0.15812	0.20509	-0.224
Mof_N 	N 	0.9549	0.8404	0.20707	-0.204
Mof_N 	N 	0.0219	0.8314	0.4937	-0.212
Mof_N 	N 	0.4584	0.7624	0.54787	-0.086
Mof_N 	N 	0.2047	0.8404	0.29293	-0.208
Mof_N 	N 	0.0451	0.1596	0.79293	-0.214
Mof_N 	N 	0.8533	0.1686	0.9937	-0.202
Mof_N 	N 	0.1467	0.8314	0.0063	-0.199
Mof_N 	N 	0.1375	0.1338	0.6205	-0.099
Mof_N 	N 	0.2713	0.8662	0.1205	-0.099
Mof_N 	N 	0.5389	0.0524	0.36274	-0.106
Mof_N 	N 	0.1638	0.0472	0.2283	-0.179
Mof_N 	N 	0.78256	0.84188	0.70509	-0.207
Mof_N 	N 	0.1009	0.9204	0.82343	-0.148
Mof_N 	N 	0.8625	0.8662	0.3795	-0.092
Mof_N 	N 	0.8762	0.353	0.10968	-0.091
Mof_N 	N 	0.7953	0.1596	0.70707	-0.209
Mof_N 	N 	0.5416	0.2376	0.45213	-0.092
Mof_N 	N 	0.4611	0.9476	0.63726	-0.095
Mof_N 	N 	0.1238	0.647	0.89032	-0.09
Mof_N 	N 	0.9578	0.9392	0.94747	-0.151
Mof_N 	N 	0.7792	0.7624	0.95213	-0.083
Mof_N 	N 	0.897	0.0608	0.44747	-0.166
Mof_N 	N 	0.9781	0.1686	0.5063	-0.189
Mof_N 	N 	0.1009	0.347	0.17952	-0.102
Mof_N 	N 	0.103	0.9392	0.55253	-0.162
Mof_N 	N 	0.37556	0.84188	0.79491	-0.207
Mof_N 	N 	0.211	0.9528	0.7283	-0.155
Mof_N 	N 	0.789	0.0472	0.2717	-0.174
_end
