data_functionalizedCrystal
_audit_creation_method	'EQeq! by Chris Wilmer'
_symmetry_space_group_name_H-M	'P1'
_symmetry_Int_Tables_number	1
_symmetry_cell_setting	triclinic
loop_
_symmetry_equiv_pos_as_xyz
  x,y,z
_cell_length_a	17.5504
_cell_length_b	17.5504
_cell_length_c	17.5504
_cell_angle_alpha	60
_cell_angle_beta	60
_cell_angle_gamma	60
loop_
_atom_site_label
_atom_site_type_symbol
_atom_site_fract_x
_atom_site_fract_y
_atom_site_fract_z
_atom_site_charge
Mof_Cu	Cu	0.6369	0.3631	0.75	0.844
Mof_Cu	Cu	0.8631	0.1369	0.25	0.844
Mof_Cu	Cu	0.25	0.25	0.1369	0.843
Mof_Cu	Cu	0.75	0.75	0.3631	0.844
Mof_Cu	Cu	0.6369	0.75	0.25	0.844
Mof_Cu	Cu	0.8631	0.25	0.75	0.844
Mof_Cu	Cu	0.25	0.1369	0.3631	0.842
Mof_Cu	Cu	0.75	0.3631	0.1369	0.843
Mof_Cu	Cu	0.6369	0.25	0.3631	0.843
Mof_Cu	Cu	0.8631	0.75	0.1369	0.843
Mof_Cu	Cu	0.25	0.3631	0.25	0.843
Mof_Cu	Cu	0.75	0.1369	0.75	0.843
Mof_Cu	Cu	0.3631	0.6369	0.25	0.843
Mof_Cu	Cu	0.1369	0.8631	0.75	0.843
Mof_Cu	Cu	0.75	0.75	0.8631	0.842
Mof_Cu	Cu	0.25	0.25	0.6369	0.843
Mof_Cu	Cu	0.3631	0.25	0.75	0.843
Mof_Cu	Cu	0.1369	0.75	0.25	0.843
Mof_Cu	Cu	0.75	0.8631	0.6369	0.842
Mof_Cu	Cu	0.25	0.6369	0.8631	0.843
Mof_Cu	Cu	0.3631	0.75	0.6369	0.843
Mof_Cu	Cu	0.1369	0.25	0.8631	0.843
Mof_Cu	Cu	0.75	0.6369	0.75	0.843
Mof_Cu	Cu	0.25	0.8631	0.25	0.843
Mof_H 	H 	0.6186	0.5486	0.766	-0.051
Mof_H 	H 	0.0486	0.1186	0.0668	-0.051
Mof_H 	H 	0.266	0.0668	0.1186	-0.051
Mof_H 	H 	0.5668	0.766	0.5486	-0.051
Mof_H 	H 	0.6186	0.766	0.0668	-0.051
Mof_H 	H 	0.0486	0.0668	0.766	-0.051
Mof_H 	H 	0.266	0.1186	0.5486	-0.051
Mof_H 	H 	0.5668	0.5486	0.1186	-0.051
Mof_H 	H 	0.6186	0.0668	0.5486	-0.051
Mof_H 	H 	0.0486	0.766	0.1186	-0.051
Mof_H 	H 	0.266	0.5486	0.0668	-0.051
Mof_H 	H 	0.5668	0.1186	0.766	-0.051
Mof_H 	H 	0.4514	0.3814	0.734	-0.051
Mof_H 	H 	0.8814	0.9514	0.4332	-0.051
Mof_H 	H 	0.9332	0.734	0.3814	-0.051
Mof_H 	H 	0.234	0.4332	0.9514	-0.051
Mof_H 	H 	0.234	0.3814	0.4332	-0.051
Mof_H 	H 	0.9332	0.9514	0.734	-0.05
Mof_H 	H 	0.8814	0.734	0.9514	-0.051
Mof_H 	H 	0.4514	0.4332	0.3814	-0.051
Mof_H 	H 	0.9332	0.3814	0.9514	-0.051
Mof_H 	H 	0.234	0.9514	0.3814	-0.051
Mof_H 	H 	0.4514	0.734	0.4332	-0.051
Mof_H 	H 	0.8814	0.4332	0.734	-0.051
Mof_H 	H 	0.3814	0.4514	0.234	-0.051
Mof_H 	H 	0.9514	0.8814	0.9332	-0.051
Mof_H 	H 	0.734	0.9332	0.8814	-0.051
Mof_H 	H 	0.4332	0.234	0.4514	-0.051
Mof_H 	H 	0.3814	0.234	0.9332	-0.051
Mof_H 	H 	0.9514	0.9332	0.234	-0.051
Mof_H 	H 	0.734	0.8814	0.4514	-0.051
Mof_H 	H 	0.4332	0.4514	0.8814	-0.051
Mof_H 	H 	0.3814	0.9332	0.4514	-0.051
Mof_H 	H 	0.9514	0.234	0.8814	-0.051
Mof_H 	H 	0.734	0.4514	0.9332	-0.051
Mof_H 	H 	0.4332	0.8814	0.234	-0.051
Mof_H 	H 	0.5486	0.6186	0.266	-0.051
Mof_H 	H 	0.1186	0.0486	0.5668	-0.051
Mof_H 	H 	0.0668	0.266	0.6186	-0.051
Mof_H 	H 	0.766	0.5668	0.0486	-0.051
Mof_H 	H 	0.766	0.6186	0.5668	-0.051
Mof_H 	H 	0.0668	0.0486	0.266	-0.05
Mof_H 	H 	0.1186	0.266	0.0486	-0.051
Mof_H 	H 	0.5486	0.5668	0.6186	-0.051
Mof_H 	H 	0.0668	0.6186	0.0486	-0.051
Mof_H 	H 	0.766	0.0486	0.6186	-0.051
Mof_H 	H 	0.5486	0.266	0.5668	-0.051
Mof_H 	H 	0.1186	0.5668	0.266	-0.051
Mof_C 	C 	0.6789	0.5061	0.7587	0.091
Mof_C 	C 	0.0061	0.1789	0.0563	0.088
Mof_C 	C 	0.2587	0.0563	0.1789	0.09
Mof_C 	C 	0.5563	0.7587	0.5061	0.091
Mof_C 	C 	0.6789	0.7587	0.0563	0.092
Mof_C 	C 	0.0061	0.0563	0.7587	0.09
Mof_C 	C 	0.2587	0.1789	0.5061	0.091
Mof_C 	C 	0.5563	0.5061	0.1789	0.091
Mof_C 	C 	0.6789	0.0563	0.5061	0.092
Mof_C 	C 	0.0061	0.7587	0.1789	0.091
Mof_C 	C 	0.2587	0.5061	0.0563	0.091
Mof_C 	C 	0.5563	0.1789	0.7587	0.091
Mof_C 	C 	0.4939	0.3211	0.7413	0.091
Mof_C 	C 	0.8211	0.9939	0.4437	0.09
Mof_C 	C 	0.9437	0.7413	0.3211	0.091
Mof_C 	C 	0.2413	0.4437	0.9939	0.092
Mof_C 	C 	0.2413	0.3211	0.4437	0.091
Mof_C 	C 	0.9437	0.9939	0.7413	0.088
Mof_C 	C 	0.8211	0.7413	0.9939	0.09
Mof_C 	C 	0.4939	0.4437	0.3211	0.091
Mof_C 	C 	0.9437	0.3211	0.9939	0.09
Mof_C 	C 	0.2413	0.9939	0.3211	0.092
Mof_C 	C 	0.4939	0.7413	0.4437	0.091
Mof_C 	C 	0.8211	0.4437	0.7413	0.091
Mof_C 	C 	0.3211	0.4939	0.2413	0.091
Mof_C 	C 	0.9939	0.8211	0.9437	0.088
Mof_C 	C 	0.7413	0.9437	0.8211	0.09
Mof_C 	C 	0.4437	0.2413	0.4939	0.091
Mof_C 	C 	0.3211	0.2413	0.9437	0.092
Mof_C 	C 	0.9939	0.9437	0.2413	0.09
Mof_C 	C 	0.7413	0.8211	0.4939	0.091
Mof_C 	C 	0.4437	0.4939	0.8211	0.091
Mof_C 	C 	0.3211	0.9437	0.4939	0.092
Mof_C 	C 	0.9939	0.2413	0.8211	0.091
Mof_C 	C 	0.7413	0.4939	0.9437	0.091
Mof_C 	C 	0.4437	0.8211	0.2413	0.091
Mof_C 	C 	0.5061	0.6789	0.2587	0.091
Mof_C 	C 	0.1789	0.0061	0.5563	0.09
Mof_C 	C 	0.0563	0.2587	0.6789	0.091
Mof_C 	C 	0.7587	0.5563	0.0061	0.092
Mof_C 	C 	0.7587	0.6789	0.5563	0.091
Mof_C 	C 	0.0563	0.0061	0.2587	0.088
Mof_C 	C 	0.1789	0.2587	0.0061	0.09
Mof_C 	C 	0.5061	0.5563	0.6789	0.091
Mof_C 	C 	0.0563	0.6789	0.0061	0.09
Mof_C 	C 	0.7587	0.0061	0.6789	0.092
Mof_C 	C 	0.5061	0.2587	0.5563	0.091
Mof_C 	C 	0.1789	0.5563	0.2587	0.091
Mof_N 	N 	0.70343	0.42369	0.75571	-0.229
Mof_N 	N 	0.92369	0.20343	0.11717	-0.228
Mof_N 	N 	0.25571	0.11717	0.20343	-0.229
Mof_N 	N 	0.61717	0.75571	0.42369	-0.229
Mof_N 	N 	0.70343	0.75571	0.11717	-0.229
Mof_N 	N 	0.92369	0.11717	0.75571	-0.229
Mof_N 	N 	0.25571	0.20343	0.42369	-0.229
Mof_N 	N 	0.61717	0.42369	0.20343	-0.229
Mof_N 	N 	0.70343	0.11717	0.42369	-0.229
Mof_N 	N 	0.92369	0.75571	0.20343	-0.229
Mof_N 	N 	0.25571	0.42369	0.11717	-0.229
Mof_N 	N 	0.61717	0.20343	0.75571	-0.229
Mof_N 	N 	0.57631	0.29657	0.74429	-0.229
Mof_N 	N 	0.79657	0.07631	0.38283	-0.229
Mof_N 	N 	0.88283	0.74429	0.29657	-0.229
Mof_N 	N 	0.24429	0.38283	0.07631	-0.23
Mof_N 	N 	0.24429	0.29657	0.38283	-0.229
Mof_N 	N 	0.88283	0.07631	0.74429	-0.228
Mof_N 	N 	0.79657	0.74429	0.07631	-0.229
Mof_N 	N 	0.57631	0.38283	0.29657	-0.229
Mof_N 	N 	0.88283	0.29657	0.07631	-0.229
Mof_N 	N 	0.24429	0.07631	0.29657	-0.23
Mof_N 	N 	0.57631	0.74429	0.38283	-0.229
Mof_N 	N 	0.79657	0.38283	0.74429	-0.229
Mof_N 	N 	0.29657	0.57631	0.24429	-0.229
Mof_N 	N 	0.07631	0.79657	0.88283	-0.228
Mof_N 	N 	0.74429	0.88283	0.79657	-0.229
Mof_N 	N 	0.38283	0.24429	0.57631	-0.229
Mof_N 	N 	0.29657	0.24429	0.88283	-0.229
Mof_N 	N 	0.07631	0.88283	0.24429	-0.229
Mof_N 	N 	0.74429	0.79657	0.57631	-0.229
Mof_N 	N 	0.38283	0.57631	0.79657	-0.229
Mof_N 	N 	0.29657	0.88283	0.57631	-0.229
Mof_N 	N 	0.07631	0.24429	0.79657	-0.229
Mof_N 	N 	0.74429	0.57631	0.88283	-0.229
Mof_N 	N 	0.38283	0.79657	0.24429	-0.229
Mof_N 	N 	0.42369	0.70343	0.25571	-0.229
Mof_N 	N 	0.20343	0.92369	0.61717	-0.229
Mof_N 	N 	0.11717	0.25571	0.70343	-0.229
Mof_N 	N 	0.75571	0.61717	0.92369	-0.23
Mof_N 	N 	0.75571	0.70343	0.61717	-0.229
Mof_N 	N 	0.11717	0.92369	0.25571	-0.228
Mof_N 	N 	0.20343	0.25571	0.92369	-0.229
Mof_N 	N 	0.42369	0.61717	0.70343	-0.229
Mof_N 	N 	0.11717	0.70343	0.92369	-0.229
Mof_N 	N 	0.75571	0.92369	0.70343	-0.23
Mof_N 	N 	0.42369	0.25571	0.61717	-0.229
Mof_N 	N 	0.20343	0.61717	0.25571	-0.229
Mof_N 	N 	0.75	0.5224	0.75	-0.261
Mof_N 	N 	0.0224	0.25	0.9776	-0.259
Mof_N 	N 	0.25	0.9776	0.25	-0.26
Mof_N 	N 	0.4776	0.75	0.5224	-0.261
Mof_N 	N 	0.75	0.75	0.9776	-0.261
Mof_N 	N 	0.0224	0.9776	0.75	-0.259
Mof_N 	N 	0.25	0.25	0.5224	-0.261
Mof_N 	N 	0.4776	0.5224	0.25	-0.261
Mof_N 	N 	0.75	0.9776	0.5224	-0.261
Mof_N 	N 	0.0224	0.75	0.25	-0.261
Mof_N 	N 	0.25	0.5224	0.9776	-0.261
Mof_N 	N 	0.4776	0.25	0.75	-0.261
Mof_N 	N 	0.25	0.4776	0.25	-0.261
Mof_N 	N 	0.9776	0.75	0.0224	-0.259
Mof_N 	N 	0.75	0.0224	0.75	-0.26
Mof_N 	N 	0.5224	0.25	0.4776	-0.261
Mof_N 	N 	0.25	0.25	0.0224	-0.261
Mof_N 	N 	0.9776	0.0224	0.25	-0.259
Mof_N 	N 	0.75	0.75	0.4776	-0.261
Mof_N 	N 	0.5224	0.4776	0.75	-0.261
Mof_N 	N 	0.25	0.0224	0.4776	-0.261
Mof_N 	N 	0.9776	0.25	0.75	-0.261
Mof_N 	N 	0.75	0.4776	0.0224	-0.261
Mof_N 	N 	0.5224	0.75	0.25	-0.261
Mof_O 	O 	0.75	0.25	0.75	-0.612
Mof_O 	O 	0.75	0.25	0.25	-0.612
Mof_O 	O 	0.25	0.25	0.25	-0.612
Mof_O 	O 	0.75	0.75	0.25	-0.612
Mof_O 	O 	0.25	0.75	0.25	-0.612
Mof_O 	O 	0.25	0.75	0.75	-0.612
Mof_O 	O 	0.75	0.75	0.75	-0.612
Mof_O 	O 	0.25	0.25	0.75	-0.612
_end
