data_functionalizedCrystal
_audit_creation_method	'EQeq! by Chris Wilmer'
_symmetry_space_group_name_H-M	'P1'
_symmetry_Int_Tables_number	1
_symmetry_cell_setting	triclinic
loop_
_symmetry_equiv_pos_as_xyz
  x,y,z
_cell_length_a	26.713
_cell_length_b	26.713
_cell_length_c	5.0883
_cell_angle_alpha	90
_cell_angle_beta	90
_cell_angle_gamma	90
loop_
_atom_site_label
_atom_site_type_symbol
_atom_site_fract_x
_atom_site_fract_y
_atom_site_fract_z
_atom_site_charge
Mof_Zn	Zn	0.7867	0.77091	0.30051	1.225
Mof_H 	H 	0.8929	0.7923	0.0578	-0.014
Mof_H 	H 	0.8203	0.688	0.7144	0.026
Mof_H 	H 	0.8283	0.6222	0.0615	0.041
Mof_H 	H 	0.8765	0.5633	0.2814	0.041
Mof_H 	H 	0.962	0.5534	0.1761	0.032
Mof_H 	H 	0.9984	0.5993	0.8468	0.058
Mof_H 	H 	0.9939	0.6684	0.5208	0.075
Mof_H 	H 	0.9615	0.7781	0.7833	0.09
Mof_H 	H 	0.0394	0.7999	0.602	0.031
Mof_H 	H 	0.107	0.7635	0.2865	0.018
Mof_H 	H 	0.0297	0.7443	0.473	0.087
Mof_C 	C 	0.89617	0.76647	0.185	0.1
Mof_C 	C 	0.87799	0.71156	0.4897	0.042
Mof_C 	C 	0.85486	0.68367	0.6764	-0.118
Mof_C 	C 	0.88384	0.64804	0.8117	0.027
Mof_C 	C 	0.86257	0.61804	0.016	-0.067
Mof_C 	C 	0.8911	0.5833	0.1474	-0.036
Mof_C 	C 	0.94252	0.57723	0.0828	-0.025
Mof_C 	C 	0.96429	0.60483	0.8906	-0.079
Mof_C 	C 	0.93627	0.64228	0.7532	0.045
Mof_C 	C 	0.95941	0.67207	0.5615	-0.124
Mof_C 	C 	0.93002	0.70694	0.4345	0.073
Mof_C 	C 	0.98811	0.75749	0.1376	0.142
Mof_C 	C 	0.08022	0.78528	0.9391	-0.115
Mof_C 	C 	0.12966	0.80023	0.8215	0.32
Mof_C 	C 	0.991	0.7751	0.8859	-0.153
Mof_C 	C 	0.037	0.7886	0.7787	0.048
Mof_C 	C 	0.0773	0.7674	0.186	0.071
Mof_C 	C 	0.0318	0.7547	0.295	-0.161
Mof_N 	N 	0.85844	0.74912	0.3246	-0.275
Mof_N 	N 	0.94012	0.7435	0.2423	-0.156
Mof_O 	O 	0.74869	0.71902	0.1238	-0.819
Mof_O 	O 	0.16822	0.78026	0.9167	-0.467
Mof_O 	O 	0.1298	0.8165	0.5802	-0.303
Mof_H 	H 	0.25618	0.18907	0.6238	0.323
Mof_Zn	Zn	0.2867	0.27091	0.80051	1.224
Mof_H 	H 	0.3929	0.2923	0.5578	-0.014
Mof_H 	H 	0.3203	0.188	0.2144	0.024
Mof_H 	H 	0.3283	0.1222	0.5615	0.038
Mof_H 	H 	0.3765	0.0633	0.7814	0.042
Mof_H 	H 	0.462	0.0534	0.6761	0.029
Mof_H 	H 	0.4984	0.0993	0.3468	0.06
Mof_H 	H 	0.4939	0.1684	0.0208	0.075
Mof_H 	H 	0.4615	0.2781	0.2833	0.094
Mof_H 	H 	0.5394	0.2999	0.102	0.029
Mof_H 	H 	0.607	0.2635	0.7865	0.015
Mof_H 	H 	0.5297	0.2443	0.973	0.089
Mof_C 	C 	0.39617	0.26647	0.685	0.1
Mof_C 	C 	0.37799	0.21156	0.9897	0.032
Mof_C 	C 	0.35486	0.18367	0.1764	-0.105
Mof_C 	C 	0.38384	0.14804	0.3117	0.02
Mof_C 	C 	0.36257	0.11804	0.516	-0.06
Mof_C 	C 	0.3911	0.0833	0.6474	-0.043
Mof_C 	C 	0.44252	0.07723	0.5828	-0.014
Mof_C 	C 	0.46429	0.10483	0.3906	-0.089
Mof_C 	C 	0.43627	0.14228	0.2532	0.05
Mof_C 	C 	0.45941	0.17207	0.0615	-0.121
Mof_C 	C 	0.43002	0.20694	0.9345	0.071
Mof_C 	C 	0.48811	0.25749	0.6376	0.149
Mof_C 	C 	0.58022	0.28528	0.4391	-0.126
Mof_C 	C 	0.62966	0.30023	0.3215	0.324
Mof_C 	C 	0.491	0.2751	0.3859	-0.162
Mof_C 	C 	0.537	0.2886	0.2787	0.056
Mof_C 	C 	0.5773	0.2674	0.686	0.084
Mof_C 	C 	0.5318	0.2547	0.795	-0.168
Mof_N 	N 	0.35844	0.24912	0.8246	-0.275
Mof_N 	N 	0.44012	0.2435	0.7423	-0.157
Mof_O 	O 	0.24869	0.21902	0.6238	-0.823
Mof_O 	O 	0.66822	0.28026	0.4167	-0.47
Mof_O 	O 	0.6298	0.3165	0.0802	-0.304
Mof_H 	H 	0.75618	0.68907	0.1238	0.323
Mof_Zn	Zn	0.2133	0.22909	0.30051	1.225
Mof_H 	H 	0.1071	0.2077	0.0578	-0.014
Mof_H 	H 	0.1797	0.312	0.7144	0.026
Mof_H 	H 	0.1717	0.3778	0.0615	0.041
Mof_H 	H 	0.1235	0.4367	0.2814	0.041
Mof_H 	H 	0.038	0.4466	0.1761	0.032
Mof_H 	H 	0.0016	0.4007	0.8468	0.058
Mof_H 	H 	0.0061	0.3316	0.5208	0.075
Mof_H 	H 	0.0385	0.2219	0.7833	0.09
Mof_H 	H 	0.9606	0.2001	0.602	0.031
Mof_H 	H 	0.893	0.2365	0.2865	0.018
Mof_H 	H 	0.9703	0.2557	0.473	0.087
Mof_C 	C 	0.10383	0.23353	0.185	0.1
Mof_C 	C 	0.12201	0.28844	0.4897	0.042
Mof_C 	C 	0.14514	0.31633	0.6764	-0.118
Mof_C 	C 	0.11616	0.35196	0.8117	0.027
Mof_C 	C 	0.13743	0.38196	0.016	-0.067
Mof_C 	C 	0.1089	0.4167	0.1474	-0.036
Mof_C 	C 	0.05748	0.42277	0.0828	-0.025
Mof_C 	C 	0.03571	0.39517	0.8906	-0.079
Mof_C 	C 	0.06373	0.35772	0.7532	0.045
Mof_C 	C 	0.04059	0.32793	0.5615	-0.124
Mof_C 	C 	0.06998	0.29306	0.4345	0.073
Mof_C 	C 	0.01189	0.24251	0.1376	0.142
Mof_C 	C 	0.91978	0.21472	0.9391	-0.115
Mof_C 	C 	0.87034	0.19977	0.8215	0.32
Mof_C 	C 	0.009	0.2249	0.8859	-0.153
Mof_C 	C 	0.963	0.2114	0.7787	0.048
Mof_C 	C 	0.9227	0.2326	0.186	0.071
Mof_C 	C 	0.9682	0.2453	0.295	-0.161
Mof_N 	N 	0.14156	0.25088	0.3246	-0.275
Mof_N 	N 	0.05988	0.2565	0.2423	-0.156
Mof_O 	O 	0.25131	0.28098	0.1238	-0.819
Mof_O 	O 	0.83178	0.21974	0.9167	-0.467
Mof_O 	O 	0.8702	0.1835	0.5802	-0.303
Mof_H 	H 	0.74382	0.81093	0.6238	0.323
Mof_Zn	Zn	0.7133	0.72909	0.80051	1.224
Mof_H 	H 	0.6071	0.7077	0.5578	-0.014
Mof_H 	H 	0.6797	0.812	0.2144	0.024
Mof_H 	H 	0.6717	0.8778	0.5615	0.038
Mof_H 	H 	0.6235	0.9367	0.7814	0.042
Mof_H 	H 	0.538	0.9466	0.6761	0.029
Mof_H 	H 	0.5016	0.9007	0.3468	0.06
Mof_H 	H 	0.5061	0.8316	0.0208	0.075
Mof_H 	H 	0.5385	0.7219	0.2833	0.094
Mof_H 	H 	0.4606	0.7001	0.102	0.029
Mof_H 	H 	0.393	0.7365	0.7865	0.015
Mof_H 	H 	0.4703	0.7557	0.973	0.089
Mof_C 	C 	0.60383	0.73353	0.685	0.1
Mof_C 	C 	0.62201	0.78844	0.9897	0.032
Mof_C 	C 	0.64514	0.81633	0.1764	-0.105
Mof_C 	C 	0.61616	0.85196	0.3117	0.02
Mof_C 	C 	0.63743	0.88196	0.516	-0.06
Mof_C 	C 	0.6089	0.9167	0.6474	-0.043
Mof_C 	C 	0.55748	0.92277	0.5828	-0.014
Mof_C 	C 	0.53571	0.89517	0.3906	-0.089
Mof_C 	C 	0.56373	0.85772	0.2532	0.05
Mof_C 	C 	0.54059	0.82793	0.0615	-0.121
Mof_C 	C 	0.56998	0.79306	0.9345	0.071
Mof_C 	C 	0.51189	0.74251	0.6376	0.149
Mof_C 	C 	0.41978	0.71472	0.4391	-0.126
Mof_C 	C 	0.37034	0.69977	0.3215	0.324
Mof_C 	C 	0.509	0.7249	0.3859	-0.162
Mof_C 	C 	0.463	0.7114	0.2787	0.056
Mof_C 	C 	0.4227	0.7326	0.686	0.084
Mof_C 	C 	0.4682	0.7453	0.795	-0.168
Mof_N 	N 	0.64156	0.75088	0.8246	-0.275
Mof_N 	N 	0.55988	0.7565	0.7423	-0.157
Mof_O 	O 	0.75131	0.78098	0.6238	-0.823
Mof_O 	O 	0.33178	0.71974	0.4167	-0.47
Mof_O 	O 	0.3702	0.6835	0.0802	-0.304
Mof_H 	H 	0.24382	0.31093	0.1238	0.323
Mof_Zn	Zn	0.77091	0.2133	0.69949	1.225
Mof_H 	H 	0.7923	0.1071	0.9422	-0.014
Mof_H 	H 	0.688	0.1797	0.2856	0.026
Mof_H 	H 	0.6222	0.1717	0.9385	0.041
Mof_H 	H 	0.5633	0.1235	0.7186	0.041
Mof_H 	H 	0.5534	0.038	0.8239	0.032
Mof_H 	H 	0.5993	0.0016	0.1532	0.058
Mof_H 	H 	0.6684	0.0061	0.4792	0.075
Mof_H 	H 	0.7781	0.0385	0.2167	0.09
Mof_H 	H 	0.7999	0.9606	0.398	0.031
Mof_H 	H 	0.7635	0.893	0.7135	0.018
Mof_H 	H 	0.7443	0.9703	0.527	0.087
Mof_C 	C 	0.76647	0.10383	0.815	0.1
Mof_C 	C 	0.71156	0.12201	0.5103	0.042
Mof_C 	C 	0.68367	0.14514	0.3236	-0.118
Mof_C 	C 	0.64804	0.11616	0.1883	0.027
Mof_C 	C 	0.61804	0.13743	0.984	-0.067
Mof_C 	C 	0.5833	0.1089	0.8526	-0.036
Mof_C 	C 	0.57723	0.05748	0.9172	-0.025
Mof_C 	C 	0.60483	0.03571	0.1094	-0.079
Mof_C 	C 	0.64228	0.06373	0.2468	0.045
Mof_C 	C 	0.67207	0.04059	0.4385	-0.124
Mof_C 	C 	0.70694	0.06998	0.5655	0.073
Mof_C 	C 	0.75749	0.01189	0.8624	0.142
Mof_C 	C 	0.78528	0.91978	0.0609	-0.115
Mof_C 	C 	0.80023	0.87034	0.1785	0.32
Mof_C 	C 	0.7751	0.009	0.1141	-0.153
Mof_C 	C 	0.7886	0.963	0.2213	0.048
Mof_C 	C 	0.7674	0.9227	0.814	0.071
Mof_C 	C 	0.7547	0.9682	0.705	-0.161
Mof_N 	N 	0.74912	0.14156	0.6754	-0.275
Mof_N 	N 	0.7435	0.05988	0.7577	-0.156
Mof_O 	O 	0.71902	0.25131	0.8762	-0.819
Mof_O 	O 	0.78026	0.83178	0.0833	-0.467
Mof_O 	O 	0.8165	0.8702	0.4198	-0.303
Mof_H 	H 	0.18907	0.74382	0.3762	0.323
Mof_Zn	Zn	0.27091	0.7133	0.19949	1.224
Mof_H 	H 	0.2923	0.6071	0.4422	-0.014
Mof_H 	H 	0.188	0.6797	0.7856	0.024
Mof_H 	H 	0.1222	0.6717	0.4385	0.038
Mof_H 	H 	0.0633	0.6235	0.2186	0.042
Mof_H 	H 	0.0534	0.538	0.3239	0.029
Mof_H 	H 	0.0993	0.5016	0.6532	0.06
Mof_H 	H 	0.1684	0.5061	0.9792	0.075
Mof_H 	H 	0.2781	0.5385	0.7167	0.094
Mof_H 	H 	0.2999	0.4606	0.898	0.029
Mof_H 	H 	0.2635	0.393	0.2135	0.015
Mof_H 	H 	0.2443	0.4703	0.027	0.089
Mof_C 	C 	0.26647	0.60383	0.315	0.1
Mof_C 	C 	0.21156	0.62201	0.0103	0.032
Mof_C 	C 	0.18367	0.64514	0.8236	-0.105
Mof_C 	C 	0.14804	0.61616	0.6883	0.02
Mof_C 	C 	0.11804	0.63743	0.484	-0.06
Mof_C 	C 	0.0833	0.6089	0.3526	-0.043
Mof_C 	C 	0.07723	0.55748	0.4172	-0.014
Mof_C 	C 	0.10483	0.53571	0.6094	-0.089
Mof_C 	C 	0.14228	0.56373	0.7468	0.05
Mof_C 	C 	0.17207	0.54059	0.9385	-0.121
Mof_C 	C 	0.20694	0.56998	0.0655	0.071
Mof_C 	C 	0.25749	0.51189	0.3624	0.149
Mof_C 	C 	0.28528	0.41978	0.5609	-0.126
Mof_C 	C 	0.30023	0.37034	0.6785	0.324
Mof_C 	C 	0.2751	0.509	0.6141	-0.162
Mof_C 	C 	0.2886	0.463	0.7213	0.056
Mof_C 	C 	0.2674	0.4227	0.314	0.084
Mof_C 	C 	0.2547	0.4682	0.205	-0.168
Mof_N 	N 	0.24912	0.64156	0.1754	-0.275
Mof_N 	N 	0.2435	0.55988	0.2577	-0.157
Mof_O 	O 	0.21902	0.75131	0.3762	-0.823
Mof_O 	O 	0.28026	0.33178	0.5833	-0.47
Mof_O 	O 	0.3165	0.3702	0.9198	-0.304
Mof_H 	H 	0.68907	0.24382	0.8762	0.323
Mof_Zn	Zn	0.22909	0.7867	0.69949	1.225
Mof_H 	H 	0.2077	0.8929	0.9422	-0.014
Mof_H 	H 	0.312	0.8203	0.2856	0.026
Mof_H 	H 	0.3778	0.8283	0.9385	0.041
Mof_H 	H 	0.4367	0.8765	0.7186	0.041
Mof_H 	H 	0.4466	0.962	0.8239	0.032
Mof_H 	H 	0.4007	0.9984	0.1532	0.058
Mof_H 	H 	0.3316	0.9939	0.4792	0.075
Mof_H 	H 	0.2219	0.9615	0.2167	0.09
Mof_H 	H 	0.2001	0.0394	0.398	0.031
Mof_H 	H 	0.2365	0.107	0.7135	0.018
Mof_H 	H 	0.2557	0.0297	0.527	0.087
Mof_C 	C 	0.23353	0.89617	0.815	0.1
Mof_C 	C 	0.28844	0.87799	0.5103	0.042
Mof_C 	C 	0.31633	0.85486	0.3236	-0.118
Mof_C 	C 	0.35196	0.88384	0.1883	0.027
Mof_C 	C 	0.38196	0.86257	0.984	-0.067
Mof_C 	C 	0.4167	0.8911	0.8526	-0.036
Mof_C 	C 	0.42277	0.94252	0.9172	-0.025
Mof_C 	C 	0.39517	0.96429	0.1094	-0.079
Mof_C 	C 	0.35772	0.93627	0.2468	0.045
Mof_C 	C 	0.32793	0.95941	0.4385	-0.124
Mof_C 	C 	0.29306	0.93002	0.5655	0.073
Mof_C 	C 	0.24251	0.98811	0.8624	0.142
Mof_C 	C 	0.21472	0.08022	0.0609	-0.115
Mof_C 	C 	0.19977	0.12966	0.1785	0.32
Mof_C 	C 	0.2249	0.991	0.1141	-0.153
Mof_C 	C 	0.2114	0.037	0.2213	0.048
Mof_C 	C 	0.2326	0.0773	0.814	0.071
Mof_C 	C 	0.2453	0.0318	0.705	-0.161
Mof_N 	N 	0.25088	0.85844	0.6754	-0.275
Mof_N 	N 	0.2565	0.94012	0.7577	-0.156
Mof_O 	O 	0.28098	0.74869	0.8762	-0.819
Mof_O 	O 	0.21974	0.16822	0.0833	-0.467
Mof_O 	O 	0.1835	0.1298	0.4198	-0.303
Mof_H 	H 	0.81093	0.25618	0.3762	0.323
Mof_Zn	Zn	0.72909	0.2867	0.19949	1.224
Mof_H 	H 	0.7077	0.3929	0.4422	-0.014
Mof_H 	H 	0.812	0.3203	0.7856	0.024
Mof_H 	H 	0.8778	0.3283	0.4385	0.038
Mof_H 	H 	0.9367	0.3765	0.2186	0.042
Mof_H 	H 	0.9466	0.462	0.3239	0.029
Mof_H 	H 	0.9007	0.4984	0.6532	0.06
Mof_H 	H 	0.8316	0.4939	0.9792	0.075
Mof_H 	H 	0.7219	0.4615	0.7167	0.094
Mof_H 	H 	0.7001	0.5394	0.898	0.029
Mof_H 	H 	0.7365	0.607	0.2135	0.015
Mof_H 	H 	0.7557	0.5297	0.027	0.089
Mof_C 	C 	0.73353	0.39617	0.315	0.1
Mof_C 	C 	0.78844	0.37799	0.0103	0.032
Mof_C 	C 	0.81633	0.35486	0.8236	-0.105
Mof_C 	C 	0.85196	0.38384	0.6883	0.02
Mof_C 	C 	0.88196	0.36257	0.484	-0.06
Mof_C 	C 	0.9167	0.3911	0.3526	-0.043
Mof_C 	C 	0.92277	0.44252	0.4172	-0.014
Mof_C 	C 	0.89517	0.46429	0.6094	-0.089
Mof_C 	C 	0.85772	0.43627	0.7468	0.05
Mof_C 	C 	0.82793	0.45941	0.9385	-0.121
Mof_C 	C 	0.79306	0.43002	0.0655	0.071
Mof_C 	C 	0.74251	0.48811	0.3624	0.149
Mof_C 	C 	0.71472	0.58022	0.5609	-0.126
Mof_C 	C 	0.69977	0.62966	0.6785	0.324
Mof_C 	C 	0.7249	0.491	0.6141	-0.162
Mof_C 	C 	0.7114	0.537	0.7213	0.056
Mof_C 	C 	0.7326	0.5773	0.314	0.084
Mof_C 	C 	0.7453	0.5318	0.205	-0.168
Mof_N 	N 	0.75088	0.35844	0.1754	-0.275
Mof_N 	N 	0.7565	0.44012	0.2577	-0.157
Mof_O 	O 	0.78098	0.24869	0.3762	-0.823
Mof_O 	O 	0.71974	0.66822	0.5833	-0.47
Mof_O 	O 	0.6835	0.6298	0.9198	-0.304
Mof_H 	H 	0.31093	0.75618	0.8762	0.323
_end
