data_functionalizedCrystal
_audit_creation_method	'EQeq! by Chris Wilmer'
_symmetry_space_group_name_H-M	'P1'
_symmetry_Int_Tables_number	1
_symmetry_cell_setting	triclinic
loop_
_symmetry_equiv_pos_as_xyz
  x,y,z
_cell_length_a	18.478
_cell_length_b	12.181
_cell_length_c	23.055
_cell_angle_alpha	90
_cell_angle_beta	90
_cell_angle_gamma	90
loop_
_atom_site_label
_atom_site_type_symbol
_atom_site_fract_x
_atom_site_fract_y
_atom_site_fract_z
_atom_site_charge
Mof_Zn	Zn	0.29917	0.23754	0.18567	1.208
Mof_Zn	Zn	0.20014	0.23794	0.29952	1.213
Mof_Zn	Zn	0.1702	0.06638	0.20422	1.171
Mof_Zn	Zn	0.31982	0.06147	0.28798	1.171
Mof_C 	C 	0.114	0.4627	0.175	-0.111
Mof_C 	C 	0.0461	0.4898	0.19855	0.044
Mof_H 	H 	0.0306	0.4566	0.2327	0.038
Mof_C 	C 	0.0023	0.5658	0.17096	-0.116
Mof_C 	C 	0.0251	0.6159	0.1202	0.009
Mof_H 	H 	0.9955	0.667	0.102	0.036
Mof_C 	C 	0.0921	0.5901	0.09624	-0.053
Mof_C 	C 	0.1348	0.5126	0.1234	0.011
Mof_H 	H 	0.1788	0.4931	0.1066	0.036
Mof_C 	C 	0.1611	0.3805	0.20324	0.365
Mof_C 	C 	0.931	0.5948	0.1986	0.38
Mof_C 	C 	0.1171	0.6485	0.04146	0.092
Mof_C 	C 	0.0688	0.6923	0.0029	-0.15
Mof_H 	H 	0.0195	0.6833	0.0095	0.082
Mof_C 	C 	0.0913	0.7497	0.9542	0.065
Mof_H 	H 	0.0574	0.7813	0.9295	0.021
Mof_C 	C 	0.1644	0.7598	0.94257	-0.132
Mof_C 	C 	0.2134	0.7101	0.9803	0.061
Mof_H 	H 	0.2627	0.7145	0.9726	0.016
Mof_C 	C 	0.19	0.6547	0.0288	-0.152
Mof_H 	H 	0.2235	0.6213	0.0531	0.077
Mof_C 	C 	0.1906	0.8181	0.88895	0.358
Mof_C 	C 	0.497	0.036	0.17268	-0.119
Mof_C 	C 	0.5427	0.9648	0.20083	0.047
Mof_H 	H 	0.5277	0.9299	0.2346	0.035
Mof_C 	C 	0.6123	0.9448	0.1786	-0.109
Mof_C 	C 	0.6338	0.9982	0.1273	0.007
Mof_H 	H 	0.6799	0.9858	0.1124	0.041
Mof_C 	C 	0.5871	0.0692	0.0987	-0.047
Mof_C 	C 	0.519	0.0899	0.1224	0.008
Mof_H 	H 	0.4881	0.1399	0.1046	0.034
Mof_C 	C 	0.4233	0.065	0.1976	0.399
Mof_C 	C 	0.6631	0.8687	0.20925	0.373
Mof_C 	C 	0.6104	0.1289	0.04575	0.084
Mof_C 	C 	0.56	0.1603	0.0025	-0.135
Mof_H 	H 	0.5116	0.1402	0.0061	0.076
Mof_C 	C 	0.5829	0.2226	0.9536	0.057
Mof_H 	H 	0.5493	0.2458	0.9262	0.025
Mof_C 	C 	0.6552	0.2483	0.9469	-0.14
Mof_C 	C 	0.7031	0.2094	0.986	0.068
Mof_H 	H 	0.752	0.2241	0.9804	0.007
Mof_C 	C 	0.6829	0.1486	0.0343	-0.152
Mof_H 	H 	0.7181	0.1209	0.059	0.077
Mof_C 	C 	0.679	0.3163	0.89522	0.372
Mof_O 	O 	0.24784	0.1384	0.24341	-0.949
Mof_O 	O 	0.22282	0.3625	0.18058	-0.468
Mof_O 	O 	0.13799	0.3359	0.25027	-0.46
Mof_O 	O 	0.91518	0.5493	0.24576	-0.526
Mof_O 	O 	0.89219	0.6646	0.17144	-0.464
Mof_O 	O 	0.14176	0.86	0.85658	-0.485
Mof_O 	O 	0.2569	0.8244	0.87931	-0.471
Mof_O 	O 	0.38427	0.1268	0.16945	-0.493
Mof_O 	O 	0.40803	0.0187	0.2454	-0.512
Mof_O 	O 	0.7261	0.861	0.1873	-0.459
Mof_O 	O 	0.63902	0.8176	0.25237	-0.479
Mof_O 	O 	0.62874	0.3474	0.86153	-0.483
Mof_O 	O 	0.74353	0.3347	0.88764	-0.494
Mof_Zn	Zn	0.20083	0.76246	0.68567	1.207
Mof_Zn	Zn	0.29986	0.76206	0.79952	1.212
Mof_Zn	Zn	0.3298	0.93362	0.70422	1.17
Mof_Zn	Zn	0.18018	0.93853	0.78798	1.17
Mof_C 	C 	0.386	0.5373	0.675	-0.112
Mof_C 	C 	0.4539	0.5102	0.69855	0.043
Mof_H 	H 	0.4694	0.5434	0.7327	0.037
Mof_C 	C 	0.4977	0.4342	0.67096	-0.117
Mof_C 	C 	0.4749	0.3841	0.6202	0.009
Mof_H 	H 	0.5045	0.333	0.602	0.037
Mof_C 	C 	0.4079	0.4099	0.59624	-0.052
Mof_C 	C 	0.3652	0.4874	0.6234	0.011
Mof_H 	H 	0.3212	0.5069	0.6066	0.036
Mof_C 	C 	0.3389	0.6195	0.70324	0.365
Mof_C 	C 	0.569	0.4052	0.6986	0.38
Mof_C 	C 	0.3829	0.3515	0.54146	0.092
Mof_C 	C 	0.4312	0.3077	0.5029	-0.15
Mof_H 	H 	0.4805	0.3167	0.5095	0.082
Mof_C 	C 	0.4087	0.2503	0.4542	0.065
Mof_H 	H 	0.4426	0.2187	0.4295	0.021
Mof_C 	C 	0.3356	0.2402	0.44257	-0.132
Mof_C 	C 	0.2866	0.2899	0.4803	0.062
Mof_H 	H 	0.2373	0.2855	0.4726	0.016
Mof_C 	C 	0.31	0.3453	0.5288	-0.153
Mof_H 	H 	0.2765	0.3787	0.5531	0.077
Mof_C 	C 	0.3094	0.1819	0.38895	0.358
Mof_C 	C 	0.003	0.964	0.67268	-0.118
Mof_C 	C 	0.9573	0.0352	0.70083	0.046
Mof_H 	H 	0.9723	0.0701	0.7346	0.036
Mof_C 	C 	0.8877	0.0552	0.6786	-0.108
Mof_C 	C 	0.8662	0.0018	0.6273	0.006
Mof_H 	H 	0.8201	0.0142	0.6124	0.041
Mof_C 	C 	0.9129	0.9308	0.5987	-0.046
Mof_C 	C 	0.981	0.9101	0.6224	0.006
Mof_H 	H 	0.0119	0.8601	0.6046	0.035
Mof_C 	C 	0.0767	0.935	0.6976	0.398
Mof_C 	C 	0.8369	0.1313	0.70925	0.373
Mof_C 	C 	0.8896	0.8711	0.54575	0.083
Mof_C 	C 	0.94	0.8397	0.5025	-0.134
Mof_H 	H 	0.9884	0.8598	0.5061	0.076
Mof_C 	C 	0.9171	0.7774	0.4536	0.056
Mof_H 	H 	0.9507	0.7542	0.4262	0.025
Mof_C 	C 	0.8448	0.7517	0.4469	-0.14
Mof_C 	C 	0.7969	0.7906	0.486	0.067
Mof_H 	H 	0.748	0.7759	0.4804	0.007
Mof_C 	C 	0.8171	0.8514	0.5343	-0.151
Mof_H 	H 	0.7819	0.8791	0.559	0.077
Mof_C 	C 	0.821	0.6837	0.39522	0.371
Mof_O 	O 	0.25216	0.8616	0.74341	-0.949
Mof_O 	O 	0.27718	0.6375	0.68058	-0.468
Mof_O 	O 	0.36201	0.6641	0.75027	-0.46
Mof_O 	O 	0.58482	0.4507	0.74576	-0.526
Mof_O 	O 	0.60781	0.3354	0.67144	-0.464
Mof_O 	O 	0.35824	0.14	0.35658	-0.485
Mof_O 	O 	0.2431	0.1756	0.37931	-0.471
Mof_O 	O 	0.11573	0.8732	0.66945	-0.493
Mof_O 	O 	0.09197	0.9813	0.7454	-0.512
Mof_O 	O 	0.7739	0.139	0.6873	-0.459
Mof_O 	O 	0.86098	0.1824	0.75237	-0.479
Mof_O 	O 	0.87126	0.6526	0.36153	-0.483
Mof_O 	O 	0.75647	0.6653	0.38764	-0.493
Mof_Zn	Zn	0.70083	0.73754	0.31433	1.207
Mof_Zn	Zn	0.79986	0.73794	0.20048	1.212
Mof_Zn	Zn	0.8298	0.56638	0.29578	1.17
Mof_Zn	Zn	0.68018	0.56147	0.21202	1.17
Mof_C 	C 	0.886	0.9627	0.325	-0.113
Mof_C 	C 	0.9539	0.9898	0.30145	0.043
Mof_H 	H 	0.9694	0.9566	0.2673	0.037
Mof_C 	C 	0.9977	0.0658	0.32904	-0.117
Mof_C 	C 	0.9749	0.1159	0.3798	0.009
Mof_H 	H 	0.0045	0.167	0.398	0.036
Mof_C 	C 	0.9079	0.0901	0.40376	-0.053
Mof_C 	C 	0.8652	0.0126	0.3766	0.012
Mof_H 	H 	0.8212	0.9931	0.3934	0.036
Mof_C 	C 	0.8389	0.8805	0.29676	0.365
Mof_C 	C 	0.069	0.0948	0.3014	0.38
Mof_C 	C 	0.8829	0.1485	0.45854	0.093
Mof_C 	C 	0.9312	0.1923	0.4971	-0.15
Mof_H 	H 	0.9805	0.1833	0.4905	0.082
Mof_C 	C 	0.9087	0.2497	0.5458	0.065
Mof_H 	H 	0.9426	0.2813	0.5705	0.021
Mof_C 	C 	0.8356	0.2598	0.55743	-0.132
Mof_C 	C 	0.7866	0.2101	0.5197	0.062
Mof_H 	H 	0.7373	0.2145	0.5274	0.016
Mof_C 	C 	0.81	0.1547	0.4712	-0.153
Mof_H 	H 	0.7765	0.1213	0.4469	0.077
Mof_C 	C 	0.8094	0.3181	0.61105	0.358
Mof_C 	C 	0.503	0.536	0.32732	-0.119
Mof_C 	C 	0.4573	0.4648	0.29917	0.046
Mof_H 	H 	0.4723	0.4299	0.2654	0.036
Mof_C 	C 	0.3877	0.4448	0.3214	-0.108
Mof_C 	C 	0.3662	0.4982	0.3727	0.006
Mof_H 	H 	0.3201	0.4858	0.3876	0.041
Mof_C 	C 	0.4129	0.5692	0.4013	-0.046
Mof_C 	C 	0.481	0.5899	0.3776	0.007
Mof_H 	H 	0.5119	0.6399	0.3954	0.034
Mof_C 	C 	0.5767	0.565	0.3024	0.399
Mof_C 	C 	0.3369	0.3687	0.29075	0.373
Mof_C 	C 	0.3896	0.6289	0.45425	0.083
Mof_C 	C 	0.44	0.6603	0.4975	-0.134
Mof_H 	H 	0.4884	0.6402	0.4939	0.076
Mof_C 	C 	0.4171	0.7226	0.5464	0.056
Mof_H 	H 	0.4507	0.7458	0.5738	0.025
Mof_C 	C 	0.3448	0.7483	0.5531	-0.14
Mof_C 	C 	0.2969	0.7094	0.514	0.067
Mof_H 	H 	0.248	0.7241	0.5196	0.007
Mof_C 	C 	0.3171	0.6486	0.4657	-0.151
Mof_H 	H 	0.2819	0.6209	0.441	0.077
Mof_C 	C 	0.321	0.8163	0.60478	0.372
Mof_O 	O 	0.75216	0.6384	0.25659	-0.949
Mof_O 	O 	0.77718	0.8625	0.31942	-0.468
Mof_O 	O 	0.86201	0.8359	0.24973	-0.46
Mof_O 	O 	0.08482	0.0493	0.25424	-0.526
Mof_O 	O 	0.10781	0.1646	0.32856	-0.464
Mof_O 	O 	0.85824	0.36	0.64342	-0.485
Mof_O 	O 	0.7431	0.3244	0.62069	-0.471
Mof_O 	O 	0.61573	0.6268	0.33055	-0.493
Mof_O 	O 	0.59197	0.5187	0.2546	-0.512
Mof_O 	O 	0.2739	0.361	0.3127	-0.459
Mof_O 	O 	0.36098	0.3176	0.24763	-0.479
Mof_O 	O 	0.37126	0.8474	0.63847	-0.483
Mof_O 	O 	0.25647	0.8347	0.61236	-0.493
Mof_Zn	Zn	0.79917	0.26246	0.81433	1.207
Mof_Zn	Zn	0.70014	0.26206	0.70048	1.212
Mof_Zn	Zn	0.6702	0.43362	0.79578	1.17
Mof_Zn	Zn	0.81982	0.43853	0.71202	1.17
Mof_C 	C 	0.614	0.0373	0.825	-0.112
Mof_C 	C 	0.5461	0.0102	0.80145	0.043
Mof_H 	H 	0.5306	0.0434	0.7673	0.038
Mof_C 	C 	0.5023	0.9342	0.82904	-0.117
Mof_C 	C 	0.5251	0.8841	0.8798	0.009
Mof_H 	H 	0.4955	0.833	0.898	0.037
Mof_C 	C 	0.5921	0.9099	0.90376	-0.052
Mof_C 	C 	0.6348	0.9874	0.8766	0.01
Mof_H 	H 	0.6788	0.0069	0.8934	0.036
Mof_C 	C 	0.6611	0.1195	0.79676	0.364
Mof_C 	C 	0.431	0.9052	0.8014	0.38
Mof_C 	C 	0.6171	0.8515	0.95854	0.093
Mof_C 	C 	0.5688	0.8077	0.9971	-0.151
Mof_H 	H 	0.5195	0.8167	0.9905	0.082
Mof_C 	C 	0.5913	0.7503	0.0458	0.066
Mof_H 	H 	0.5574	0.7187	0.0705	0.021
Mof_C 	C 	0.6644	0.7402	0.05743	-0.132
Mof_C 	C 	0.7134	0.7899	0.0197	0.062
Mof_H 	H 	0.7627	0.7855	0.0274	0.016
Mof_C 	C 	0.69	0.8453	0.9712	-0.153
Mof_H 	H 	0.7235	0.8787	0.9469	0.077
Mof_C 	C 	0.6906	0.6819	0.11105	0.358
Mof_C 	C 	0.997	0.464	0.82732	-0.119
Mof_C 	C 	0.0427	0.5352	0.79917	0.046
Mof_H 	H 	0.0277	0.5701	0.7654	0.035
Mof_C 	C 	0.1123	0.5552	0.8214	-0.108
Mof_C 	C 	0.1338	0.5018	0.8727	0.006
Mof_H 	H 	0.1799	0.5142	0.8876	0.041
Mof_C 	C 	0.0871	0.4308	0.9013	-0.046
Mof_C 	C 	0.019	0.4101	0.8776	0.008
Mof_H 	H 	0.9881	0.3601	0.8954	0.034
Mof_C 	C 	0.9233	0.435	0.8024	0.399
Mof_C 	C 	0.1631	0.6313	0.79075	0.373
Mof_C 	C 	0.1104	0.3711	0.95425	0.083
Mof_C 	C 	0.06	0.3397	0.9975	-0.134
Mof_H 	H 	0.0116	0.3598	0.9939	0.076
Mof_C 	C 	0.0829	0.2774	0.0464	0.056
Mof_H 	H 	0.0493	0.2542	0.0738	0.025
Mof_C 	C 	0.1552	0.2517	0.0531	-0.14
Mof_C 	C 	0.2031	0.2906	0.014	0.067
Mof_H 	H 	0.252	0.2759	0.0196	0.007
Mof_C 	C 	0.1829	0.3514	0.9657	-0.151
Mof_H 	H 	0.2181	0.3791	0.941	0.077
Mof_C 	C 	0.179	0.1837	0.10478	0.371
Mof_O 	O 	0.74784	0.3616	0.75659	-0.949
Mof_O 	O 	0.72282	0.1375	0.81942	-0.468
Mof_O 	O 	0.63799	0.1641	0.74973	-0.46
Mof_O 	O 	0.41518	0.9507	0.75424	-0.525
Mof_O 	O 	0.39219	0.8354	0.82856	-0.464
Mof_O 	O 	0.64176	0.64	0.14342	-0.485
Mof_O 	O 	0.7569	0.6756	0.12069	-0.471
Mof_O 	O 	0.88427	0.3732	0.83055	-0.493
Mof_O 	O 	0.90803	0.4813	0.7546	-0.512
Mof_O 	O 	0.2261	0.639	0.8127	-0.459
Mof_O 	O 	0.13902	0.6824	0.74763	-0.479
Mof_O 	O 	0.12874	0.1526	0.13847	-0.483
Mof_O 	O 	0.24353	0.1653	0.11236	-0.493
_end
