data_functionalizedCrystal
_audit_creation_method	'EQeq! by Chris Wilmer'
_symmetry_space_group_name_H-M	'P1'
_symmetry_Int_Tables_number	1
_symmetry_cell_setting	triclinic
loop_
_symmetry_equiv_pos_as_xyz
  x,y,z
_cell_length_a	13.8166
_cell_length_b	21.7847
_cell_length_c	20.1414
_cell_angle_alpha	90
_cell_angle_beta	103.312
_cell_angle_gamma	90
loop_
_atom_site_label
_atom_site_type_symbol
_atom_site_fract_x
_atom_site_fract_y
_atom_site_fract_z
_atom_site_charge
Mof_Zn	Zn	0.8419	0.5156	0.1587	1.213
Mof_Zn	Zn	0.6294	0.4856	0.128	1.217
Mof_O 	O 	0.8392	0.4652	0.2432	-0.459
Mof_O 	O 	0.6821	0.4316	0.2102	-0.464
Mof_O 	O 	0.8181	0.0679	0.6072	-0.464
Mof_O 	O 	0.6552	0.0839	0.567	-0.449
Mof_O 	O 	0.5656	0.2645	0.3741	-0.211
Mof_O 	O 	0.7892	0.5587	0.0678	-0.469
Mof_O 	O 	0.6245	0.5457	0.0508	-0.46
Mof_O 	O 	0.6672	0.9397	0.6919	-0.472
Mof_O 	O 	0.8236	0.906	0.7084	-0.442
Mof_O 	O 	0.9042	0.7077	0.8813	-0.219
Mof_C 	C 	0.7674	0.4316	0.2488	0.394
Mof_C 	C 	0.785	0.3857	0.3062	-0.11
Mof_C 	C 	0.8812	0.3751	0.3444	0.039
Mof_H 	H 	0.9344	0.3992	0.3358	0.035
Mof_C 	C 	0.9012	0.3305	0.3944	-0.097
Mof_H 	H 	0.9671	0.323	0.4197	0.069
Mof_C 	C 	0.8208	0.2969	0.4064	0.036
Mof_C 	C 	0.8188	0.245	0.4536	0.031
Mof_C 	C 	0.8941	0.2146	0.4984	-0.092
Mof_H 	H 	0.9616	0.2264	0.5034	0.078
Mof_C 	C 	0.8686	0.1663	0.5359	0.032
Mof_H 	H 	0.9196	0.1442	0.5662	0.047
Mof_C 	C 	0.7697	0.1493	0.5301	-0.109
Mof_C 	C 	0.7455	0.0964	0.5714	0.378
Mof_C 	C 	0.6937	0.1802	0.4849	0.022
Mof_H 	H 	0.6262	0.1688	0.4804	0.047
Mof_C 	C 	0.7188	0.2277	0.447	-0.06
Mof_C 	C 	0.6544	0.2665	0.3934	0.168
Mof_C 	C 	0.7251	0.3085	0.3694	-0.063
Mof_C 	C 	0.706	0.3523	0.3189	0.032
Mof_H 	H 	0.6401	0.3594	0.2932	0.045
Mof_C 	C 	0.7007	0.5699	0.0377	0.389
Mof_C 	C 	0.6843	0.6163	0.9816	-0.107
Mof_C 	C 	0.5878	0.6379	0.9544	0.031
Mof_H 	H 	0.5339	0.6215	0.9706	0.04
Mof_C 	C 	0.5695	0.683	0.9043	-0.092
Mof_H 	H 	0.5038	0.6973	0.886	0.069
Mof_C 	C 	0.6496	0.7067	0.8815	0.032
Mof_C 	C 	0.6549	0.7559	0.8332	0.032
Mof_C 	C 	0.5807	0.7928	0.7947	-0.087
Mof_H 	H 	0.5127	0.7865	0.7949	0.07
Mof_C 	C 	0.6094	0.8391	0.756	0.036
Mof_H 	H 	0.56	0.8651	0.7297	0.041
Mof_C 	C 	0.7093	0.8487	0.7546	-0.104
Mof_C 	C 	0.7354	0.9019	0.7153	0.381
Mof_C 	C 	0.7827	0.8099	0.7909	0.027
Mof_H 	H 	0.8503	0.8149	0.7889	0.049
Mof_C 	C 	0.7551	0.7641	0.8296	-0.059
Mof_C 	C 	0.8168	0.7177	0.8748	0.165
Mof_C 	C 	0.7465	0.6835	0.9084	-0.062
Mof_C 	C 	0.7648	0.6395	0.9578	0.028
Mof_H 	H 	0.8304	0.6249	0.9757	0.042
Mof_N 	N 	0.4856	0.48723	0.1321	-0.248
Mof_C 	C 	0.4216	0.5253	0.0907	0.069
Mof_H 	H 	0.4441	0.5489	0.0575	0.016
Mof_C 	C 	0.3237	0.5307	0.0957	-0.116
Mof_H 	H 	0.2796	0.5571	0.0656	0.074
Mof_C 	C 	0.2898	0.4975	0.145	0.06
Mof_C 	C 	0.3562	0.4586	0.187	-0.122
Mof_H 	H 	0.3353	0.4345	0.2205	0.074
Mof_C 	C 	0.4526	0.455	0.1796	0.074
Mof_H 	H 	0.4978	0.4287	0.2092	0.008
Mof_N 	N 	0.9878	0.51377	0.1607	-0.093
Mof_C 	C 	0.0403	0.45978	0.1803	0.047
Mof_H 	H 	0.0087	0.4261	0.1965	0.016
Mof_C 	C 	0.139	0.45507	0.176	-0.104
Mof_H 	H 	0.1749	0.4182	0.1893	0.071
Mof_C 	C 	0.1852	0.50435	0.1521	0.011
Mof_C 	C 	0.1328	0.55833	0.1326	-0.089
Mof_H 	H 	0.1644	0.592	0.1163	0.063
Mof_C 	C 	0.0341	0.56304	0.1369	0.049
Mof_H 	H 	0.9982	0.5999	0.1235	0.008
Mof_N 	N 	0.987	0.5132	0.1541	-0.109
Mof_C 	C 	0.0607	0.5023	0.2127	-0.038
Mof_H 	H 	0.0438	0.4994	0.2557	0.036
Mof_C 	C 	0.1591	0.4958	0.2084	0.011
Mof_H 	H 	0.2095	0.4884	0.2484	0.028
Mof_C 	C 	0.1839	0.5002	0.1454	0.013
Mof_C 	C 	0.1102	0.511	0.0869	-0.016
Mof_H 	H 	0.1271	0.514	0.0438	0.038
Mof_C 	C 	0.0117	0.5175	0.0912	-0.04
Mof_H 	H 	0.9614	0.5249	0.0512	0.04
Mof_Zn	Zn	0.8419	0.9844	0.6587	1.214
Mof_Zn	Zn	0.6294	0.0144	0.628	1.218
Mof_O 	O 	0.8392	0.0348	0.7432	-0.457
Mof_O 	O 	0.6821	0.0684	0.7102	-0.463
Mof_O 	O 	0.8181	0.4321	0.1072	-0.463
Mof_O 	O 	0.6552	0.4161	0.067	-0.449
Mof_O 	O 	0.5656	0.2355	0.8741	-0.211
Mof_O 	O 	0.7892	0.9413	0.5678	-0.469
Mof_O 	O 	0.6245	0.9543	0.5508	-0.46
Mof_O 	O 	0.6672	0.5603	0.1919	-0.472
Mof_O 	O 	0.8236	0.594	0.2084	-0.442
Mof_O 	O 	0.9042	0.7923	0.3813	-0.219
Mof_C 	C 	0.7674	0.0684	0.7488	0.394
Mof_C 	C 	0.785	0.1143	0.8062	-0.11
Mof_C 	C 	0.8812	0.1249	0.8444	0.039
Mof_H 	H 	0.9344	0.1008	0.8358	0.035
Mof_C 	C 	0.9012	0.1695	0.8944	-0.097
Mof_H 	H 	0.9671	0.177	0.9197	0.07
Mof_C 	C 	0.8208	0.2031	0.9064	0.037
Mof_C 	C 	0.8188	0.255	0.9536	0.031
Mof_C 	C 	0.8941	0.2854	0.9984	-0.091
Mof_H 	H 	0.9616	0.2736	0.0034	0.077
Mof_C 	C 	0.8686	0.3337	0.0359	0.031
Mof_H 	H 	0.9196	0.3558	0.0662	0.047
Mof_C 	C 	0.7697	0.3507	0.0301	-0.109
Mof_C 	C 	0.7455	0.4036	0.0714	0.378
Mof_C 	C 	0.6937	0.3198	0.9849	0.022
Mof_H 	H 	0.6262	0.3312	0.9804	0.047
Mof_C 	C 	0.7188	0.2723	0.947	-0.059
Mof_C 	C 	0.6544	0.2335	0.8934	0.168
Mof_C 	C 	0.7251	0.1915	0.8694	-0.063
Mof_C 	C 	0.706	0.1477	0.8189	0.032
Mof_H 	H 	0.6401	0.1406	0.7932	0.045
Mof_C 	C 	0.7007	0.9301	0.5377	0.389
Mof_C 	C 	0.6843	0.8837	0.4816	-0.107
Mof_C 	C 	0.5878	0.8621	0.4544	0.031
Mof_H 	H 	0.5339	0.8785	0.4706	0.04
Mof_C 	C 	0.5695	0.817	0.4043	-0.092
Mof_H 	H 	0.5038	0.8027	0.386	0.069
Mof_C 	C 	0.6496	0.7933	0.3815	0.033
Mof_C 	C 	0.6549	0.7441	0.3332	0.032
Mof_C 	C 	0.5807	0.7072	0.2947	-0.087
Mof_H 	H 	0.5127	0.7135	0.2949	0.07
Mof_C 	C 	0.6094	0.6609	0.256	0.036
Mof_H 	H 	0.56	0.6349	0.2297	0.041
Mof_C 	C 	0.7093	0.6513	0.2546	-0.104
Mof_C 	C 	0.7354	0.5981	0.2153	0.381
Mof_C 	C 	0.7827	0.6901	0.2909	0.027
Mof_H 	H 	0.8503	0.6851	0.2889	0.049
Mof_C 	C 	0.7551	0.7359	0.3296	-0.059
Mof_C 	C 	0.8168	0.7823	0.3748	0.165
Mof_C 	C 	0.7465	0.8165	0.4084	-0.062
Mof_C 	C 	0.7648	0.8605	0.4578	0.028
Mof_H 	H 	0.8304	0.8751	0.4757	0.041
Mof_N 	N 	0.4856	0.01277	0.6321	-0.248
Mof_C 	C 	0.4216	0.9747	0.5907	0.069
Mof_H 	H 	0.4441	0.9511	0.5575	0.016
Mof_C 	C 	0.3237	0.9693	0.5957	-0.115
Mof_H 	H 	0.2796	0.9429	0.5656	0.074
Mof_C 	C 	0.2898	0.0025	0.645	0.058
Mof_C 	C 	0.3562	0.0414	0.687	-0.121
Mof_H 	H 	0.3353	0.0655	0.7205	0.074
Mof_C 	C 	0.4526	0.045	0.6796	0.073
Mof_H 	H 	0.4978	0.0713	0.7092	0.008
Mof_N 	N 	0.9878	0.98623	0.6607	-0.094
Mof_C 	C 	0.0403	0.04022	0.6803	0.06
Mof_H 	H 	0.0087	0.0739	0.6965	0.012
Mof_C 	C 	0.139	0.04493	0.676	-0.12
Mof_H 	H 	0.1749	0.0818	0.6893	0.076
Mof_C 	C 	0.1852	0.99565	0.6521	0.012
Mof_C 	C 	0.1328	0.94167	0.6326	-0.095
Mof_H 	H 	0.1644	0.908	0.6163	0.065
Mof_C 	C 	0.0341	0.93696	0.6369	0.055
Mof_H 	H 	0.9982	0.9001	0.6235	0.006
Mof_N 	N 	0.987	0.9868	0.6541	-0.109
Mof_C 	C 	0.0607	0.9977	0.7127	-0.049
Mof_H 	H 	0.0438	0.0006	0.7557	0.039
Mof_C 	C 	0.1591	0.0042	0.7084	0.026
Mof_H 	H 	0.2095	0.0116	0.7484	0.023
Mof_C 	C 	0.1839	0.9998	0.6454	0.013
Mof_C 	C 	0.1102	0.989	0.5869	-0.011
Mof_H 	H 	0.1271	0.986	0.5438	0.036
Mof_C 	C 	0.0117	0.9825	0.5912	-0.044
Mof_H 	H 	0.9614	0.9751	0.5512	0.041
Mof_Zn	Zn	0.1581	0.0156	0.3413	1.214
Mof_Zn	Zn	0.3706	0.9856	0.372	1.218
Mof_O 	O 	0.1608	0.9652	0.2568	-0.457
Mof_O 	O 	0.3179	0.9316	0.2898	-0.463
Mof_O 	O 	0.1819	0.5679	0.8928	-0.463
Mof_O 	O 	0.3448	0.5839	0.933	-0.449
Mof_O 	O 	0.4344	0.7645	0.1259	-0.211
Mof_O 	O 	0.2108	0.0587	0.4322	-0.469
Mof_O 	O 	0.3755	0.0457	0.4492	-0.46
Mof_O 	O 	0.3328	0.4397	0.8081	-0.472
Mof_O 	O 	0.1764	0.406	0.7916	-0.442
Mof_O 	O 	0.0958	0.2077	0.6187	-0.219
Mof_C 	C 	0.2326	0.9316	0.2512	0.394
Mof_C 	C 	0.215	0.8857	0.1938	-0.11
Mof_C 	C 	0.1188	0.8751	0.1556	0.039
Mof_H 	H 	0.0656	0.8992	0.1642	0.035
Mof_C 	C 	0.0988	0.8305	0.1056	-0.097
Mof_H 	H 	0.0329	0.823	0.0803	0.07
Mof_C 	C 	0.1792	0.7969	0.0936	0.037
Mof_C 	C 	0.1812	0.745	0.0464	0.031
Mof_C 	C 	0.1059	0.7146	0.0016	-0.091
Mof_H 	H 	0.0384	0.7264	0.9966	0.077
Mof_C 	C 	0.1314	0.6663	0.9641	0.031
Mof_H 	H 	0.0804	0.6442	0.9338	0.047
Mof_C 	C 	0.2303	0.6493	0.9699	-0.109
Mof_C 	C 	0.2545	0.5964	0.9286	0.378
Mof_C 	C 	0.3063	0.6802	0.0151	0.022
Mof_H 	H 	0.3738	0.6688	0.0196	0.047
Mof_C 	C 	0.2812	0.7277	0.053	-0.059
Mof_C 	C 	0.3456	0.7665	0.1066	0.168
Mof_C 	C 	0.2749	0.8085	0.1306	-0.063
Mof_C 	C 	0.294	0.8523	0.1811	0.032
Mof_H 	H 	0.3599	0.8594	0.2068	0.045
Mof_C 	C 	0.2993	0.0699	0.4623	0.389
Mof_C 	C 	0.3157	0.1163	0.5184	-0.107
Mof_C 	C 	0.4122	0.1379	0.5456	0.031
Mof_H 	H 	0.4661	0.1215	0.5294	0.04
Mof_C 	C 	0.4305	0.183	0.5957	-0.092
Mof_H 	H 	0.4962	0.1973	0.614	0.069
Mof_C 	C 	0.3504	0.2067	0.6185	0.033
Mof_C 	C 	0.3451	0.2559	0.6668	0.032
Mof_C 	C 	0.4193	0.2928	0.7053	-0.087
Mof_H 	H 	0.4873	0.2865	0.7051	0.07
Mof_C 	C 	0.3906	0.3391	0.744	0.036
Mof_H 	H 	0.44	0.3651	0.7703	0.041
Mof_C 	C 	0.2907	0.3487	0.7454	-0.104
Mof_C 	C 	0.2646	0.4019	0.7847	0.381
Mof_C 	C 	0.2173	0.3099	0.7091	0.027
Mof_H 	H 	0.1497	0.3149	0.7111	0.049
Mof_C 	C 	0.2449	0.2641	0.6704	-0.059
Mof_C 	C 	0.1832	0.2177	0.6252	0.165
Mof_C 	C 	0.2535	0.1835	0.5916	-0.062
Mof_C 	C 	0.2352	0.1395	0.5422	0.028
Mof_H 	H 	0.1696	0.1249	0.5243	0.041
Mof_N 	N 	0.5144	0.98723	0.3679	-0.248
Mof_C 	C 	0.5784	0.0253	0.4093	0.069
Mof_H 	H 	0.5559	0.0489	0.4425	0.016
Mof_C 	C 	0.6763	0.0307	0.4043	-0.115
Mof_H 	H 	0.7204	0.0571	0.4344	0.074
Mof_C 	C 	0.7102	0.9975	0.355	0.058
Mof_C 	C 	0.6438	0.9586	0.313	-0.121
Mof_H 	H 	0.6647	0.9345	0.2795	0.074
Mof_C 	C 	0.5474	0.955	0.3204	0.073
Mof_H 	H 	0.5022	0.9287	0.2908	0.008
Mof_N 	N 	0.0122	0.01377	0.3393	-0.094
Mof_C 	C 	0.9597	0.95978	0.3197	0.06
Mof_H 	H 	0.9913	0.9261	0.3035	0.012
Mof_C 	C 	0.861	0.95507	0.324	-0.12
Mof_H 	H 	0.8251	0.9182	0.3107	0.076
Mof_C 	C 	0.8148	0.00435	0.3479	0.012
Mof_C 	C 	0.8672	0.05833	0.3674	-0.095
Mof_H 	H 	0.8356	0.092	0.3837	0.065
Mof_C 	C 	0.9659	0.06304	0.3631	0.055
Mof_H 	H 	0.0018	0.0999	0.3765	0.006
Mof_N 	N 	0.013	0.0132	0.3459	-0.109
Mof_C 	C 	0.9393	0.0023	0.2873	-0.049
Mof_H 	H 	0.9562	0.9994	0.2443	0.039
Mof_C 	C 	0.8409	0.9958	0.2916	0.026
Mof_H 	H 	0.7905	0.9884	0.2516	0.023
Mof_C 	C 	0.8161	0.0002	0.3546	0.013
Mof_C 	C 	0.8898	0.011	0.4131	-0.011
Mof_H 	H 	0.8729	0.014	0.4562	0.036
Mof_C 	C 	0.9883	0.0175	0.4088	-0.044
Mof_H 	H 	0.0386	0.0249	0.4488	0.041
Mof_Zn	Zn	0.1581	0.4844	0.8413	1.214
Mof_Zn	Zn	0.3706	0.5144	0.872	1.218
Mof_O 	O 	0.1608	0.5348	0.7568	-0.458
Mof_O 	O 	0.3179	0.5684	0.7898	-0.463
Mof_O 	O 	0.1819	0.9321	0.3928	-0.463
Mof_O 	O 	0.3448	0.9161	0.433	-0.448
Mof_O 	O 	0.4344	0.7355	0.6259	-0.211
Mof_O 	O 	0.2108	0.4413	0.9322	-0.469
Mof_O 	O 	0.3755	0.4543	0.9492	-0.46
Mof_O 	O 	0.3328	0.0603	0.3081	-0.472
Mof_O 	O 	0.1764	0.094	0.2916	-0.442
Mof_O 	O 	0.0958	0.2923	0.1187	-0.219
Mof_C 	C 	0.2326	0.5684	0.7512	0.394
Mof_C 	C 	0.215	0.6143	0.6938	-0.11
Mof_C 	C 	0.1188	0.6249	0.6556	0.039
Mof_H 	H 	0.0656	0.6008	0.6642	0.035
Mof_C 	C 	0.0988	0.6695	0.6056	-0.097
Mof_H 	H 	0.0329	0.677	0.5803	0.069
Mof_C 	C 	0.1792	0.7031	0.5936	0.036
Mof_C 	C 	0.1812	0.755	0.5464	0.031
Mof_C 	C 	0.1059	0.7854	0.5016	-0.092
Mof_H 	H 	0.0384	0.7736	0.4966	0.078
Mof_C 	C 	0.1314	0.8337	0.4641	0.032
Mof_H 	H 	0.0804	0.8558	0.4338	0.047
Mof_C 	C 	0.2303	0.8507	0.4699	-0.109
Mof_C 	C 	0.2545	0.9036	0.4286	0.378
Mof_C 	C 	0.3063	0.8198	0.5151	0.022
Mof_H 	H 	0.3738	0.8312	0.5196	0.047
Mof_C 	C 	0.2812	0.7723	0.553	-0.06
Mof_C 	C 	0.3456	0.7335	0.6066	0.168
Mof_C 	C 	0.2749	0.6915	0.6306	-0.063
Mof_C 	C 	0.294	0.6477	0.6811	0.032
Mof_H 	H 	0.3599	0.6406	0.7068	0.045
Mof_C 	C 	0.2993	0.4301	0.9623	0.389
Mof_C 	C 	0.3157	0.3837	0.0184	-0.107
Mof_C 	C 	0.4122	0.3621	0.0456	0.031
Mof_H 	H 	0.4661	0.3785	0.0294	0.04
Mof_C 	C 	0.4305	0.317	0.0957	-0.092
Mof_H 	H 	0.4962	0.3027	0.114	0.069
Mof_C 	C 	0.3504	0.2933	0.1185	0.032
Mof_C 	C 	0.3451	0.2441	0.1668	0.032
Mof_C 	C 	0.4193	0.2072	0.2053	-0.087
Mof_H 	H 	0.4873	0.2135	0.2051	0.07
Mof_C 	C 	0.3906	0.1609	0.244	0.036
Mof_H 	H 	0.44	0.1349	0.2703	0.041
Mof_C 	C 	0.2907	0.1513	0.2454	-0.104
Mof_C 	C 	0.2646	0.0981	0.2847	0.381
Mof_C 	C 	0.2173	0.1901	0.2091	0.027
Mof_H 	H 	0.1497	0.1851	0.2111	0.049
Mof_C 	C 	0.2449	0.2359	0.1704	-0.059
Mof_C 	C 	0.1832	0.2823	0.1252	0.165
Mof_C 	C 	0.2535	0.3165	0.0916	-0.062
Mof_C 	C 	0.2352	0.3605	0.0422	0.028
Mof_H 	H 	0.1696	0.3751	0.0243	0.042
Mof_N 	N 	0.5144	0.51277	0.8679	-0.248
Mof_C 	C 	0.5784	0.4747	0.9093	0.069
Mof_H 	H 	0.5559	0.4511	0.9425	0.016
Mof_C 	C 	0.6763	0.4693	0.9043	-0.116
Mof_H 	H 	0.7204	0.4429	0.9344	0.074
Mof_C 	C 	0.7102	0.5025	0.855	0.06
Mof_C 	C 	0.6438	0.5414	0.813	-0.122
Mof_H 	H 	0.6647	0.5655	0.7795	0.074
Mof_C 	C 	0.5474	0.545	0.8204	0.074
Mof_H 	H 	0.5022	0.5713	0.7908	0.008
Mof_N 	N 	0.0122	0.48623	0.8393	-0.093
Mof_C 	C 	0.9597	0.54022	0.8197	0.047
Mof_H 	H 	0.9913	0.5739	0.8035	0.016
Mof_C 	C 	0.861	0.54493	0.824	-0.104
Mof_H 	H 	0.8251	0.5818	0.8107	0.071
Mof_C 	C 	0.8148	0.49565	0.8479	0.011
Mof_C 	C 	0.8672	0.44167	0.8674	-0.089
Mof_H 	H 	0.8356	0.408	0.8837	0.063
Mof_C 	C 	0.9659	0.43696	0.8631	0.049
Mof_H 	H 	0.0018	0.4001	0.8765	0.008
Mof_N 	N 	0.013	0.4868	0.8459	-0.109
Mof_C 	C 	0.9393	0.4977	0.7873	-0.038
Mof_H 	H 	0.9562	0.5006	0.7443	0.036
Mof_C 	C 	0.8409	0.5042	0.7916	0.011
Mof_H 	H 	0.7905	0.5116	0.7516	0.028
Mof_C 	C 	0.8161	0.4998	0.8546	0.013
Mof_C 	C 	0.8898	0.489	0.9131	-0.016
Mof_H 	H 	0.8729	0.486	0.9562	0.038
Mof_C 	C 	0.9883	0.4825	0.9088	-0.04
Mof_H 	H 	0.0386	0.4751	0.9488	0.04
_end
