data_functionalizedCrystal
_audit_creation_method	'EQeq! by Chris Wilmer'
_symmetry_space_group_name_H-M	'P1'
_symmetry_Int_Tables_number	1
_symmetry_cell_setting	triclinic
loop_
_symmetry_equiv_pos_as_xyz
  x,y,z
_cell_length_a	13.9335
_cell_length_b	14.102
_cell_length_c	24.5722
_cell_angle_alpha	90
_cell_angle_beta	90
_cell_angle_gamma	90
loop_
_atom_site_label
_atom_site_type_symbol
_atom_site_fract_x
_atom_site_fract_y
_atom_site_fract_z
_atom_site_charge
Mof_Co	Co	0.43012	0.09594	0.62672	1.176
Mof_O 	O 	0.3039	0.1573	0.59249	-0.396
Mof_O 	O 	0.3811	0.0538	0.54455	-0.514
Mof_O 	O 	0.086	0.3821	0.48295	-0.434
Mof_O 	O 	0.0384	0.3315	0.40122	-0.491
Mof_O 	O 	0.4675	0.9631	0.6438	-0.393
Mof_O 	O 	0.5411	0.9255	0.56599	-0.414
Mof_O 	O 	0.5589	0.7755	0.80657	-0.259
Mof_O 	O 	0.5854	0.6221	0.79436	-0.399
Mof_C 	C 	0.2507	0.1325	0.5005	-0.141
Mof_C 	C 	0.1969	0.2153	0.49686	0.067
Mof_H 	H 	0.1968	0.2582	0.5256	0.031
Mof_C 	C 	0.1434	0.2344	0.45045	-0.142
Mof_C 	C 	0.1429	0.1688	0.40796	0.05
Mof_H 	H 	0.1075	0.1812	0.3766	0.025
Mof_C 	C 	0.1946	0.086	0.4122	-0.124
Mof_H 	H 	0.1926	0.0421	0.384	0.055
Mof_C 	C 	0.2494	0.0673	0.45792	0.053
Mof_H 	H 	0.2851	0.0117	0.4602	0.007
Mof_C 	C 	0.3151	0.1146	0.54806	0.361
Mof_C 	C 	0.0847	0.3242	0.44506	0.404
Mof_C 	C 	0.5529	0.8186	0.63812	-0.106
Mof_C 	C 	0.5467	0.8028	0.69384	0.044
Mof_H 	H 	0.519	0.8485	0.7161	0.06
Mof_C 	C 	0.5815	0.7198	0.71656	-0.085
Mof_C 	C 	0.6222	0.6516	0.6833	0.031
Mof_H 	H 	0.6453	0.5955	0.6982	0.044
Mof_C 	C 	0.6287	0.6673	0.6275	-0.09
Mof_H 	H 	0.6555	0.6211	0.6052	0.069
Mof_C 	C 	0.5955	0.7511	0.6049	0.04
Mof_H 	H 	0.6017	0.7621	0.5678	0.036
Mof_C 	C 	0.5173	0.9094	0.61367	0.393
Mof_C 	C 	0.5748	0.706	0.77724	0.336
Mof_Co	Co	0.06988	0.90406	0.12672	1.193
Mof_O 	O 	0.1961	0.8427	0.09249	-0.392
Mof_O 	O 	0.1189	0.9462	0.04455	-0.49
Mof_O 	O 	0.414	0.6179	0.98295	-0.408
Mof_O 	O 	0.4616	0.6685	0.90122	-0.461
Mof_O 	O 	0.0325	0.0369	0.1438	-0.535
Mof_O 	O 	0.9589	0.0745	0.06599	-0.459
Mof_O 	O 	0.9411	0.2245	0.30657	-0.264
Mof_O 	O 	0.9146	0.3779	0.29436	-0.394
Mof_C 	C 	0.2493	0.8675	0.0005	-0.25
Mof_C 	C 	0.3031	0.7847	0.99686	0.221
Mof_H 	H 	0.3032	0.7418	0.0256	-0.03
Mof_C 	C 	0.3566	0.7656	0.95045	-0.199
Mof_C 	C 	0.3571	0.8312	0.90796	0.136
Mof_H 	H 	0.3925	0.8188	0.8766	0.021
Mof_C 	C 	0.3054	0.914	0.9122	-0.196
Mof_H 	H 	0.3074	0.9579	0.884	0.126
Mof_C 	C 	0.2506	0.9327	0.95792	0.174
Mof_H 	H 	0.2149	0.9883	0.9602	0.013
Mof_C 	C 	0.1849	0.8854	0.04806	0.395
Mof_C 	C 	0.4153	0.6758	0.94506	0.43
Mof_C 	C 	0.9471	0.1814	0.13812	-0.145
Mof_C 	C 	0.9533	0.1972	0.19384	0.074
Mof_H 	H 	0.981	0.1515	0.2161	0.048
Mof_C 	C 	0.9185	0.2802	0.21656	-0.103
Mof_C 	C 	0.8778	0.3484	0.1833	0.051
Mof_H 	H 	0.8547	0.4045	0.1982	0.039
Mof_C 	C 	0.8713	0.3327	0.1275	-0.111
Mof_H 	H 	0.8445	0.3789	0.1052	0.079
Mof_C 	C 	0.9045	0.2489	0.1049	0.073
Mof_H 	H 	0.8983	0.2379	0.0678	0.028
Mof_C 	C 	0.9827	0.0906	0.11367	0.48
Mof_C 	C 	0.9252	0.294	0.27724	0.344
Mof_Co	Co	0.56988	0.59594	0.87328	1.193
Mof_O 	O 	0.6961	0.6573	0.90751	-0.357
Mof_O 	O 	0.6189	0.5538	0.95545	-0.467
Mof_O 	O 	0.914	0.8821	0.01705	-0.363
Mof_O 	O 	0.9616	0.8315	0.09878	-0.402
Mof_O 	O 	0.5325	0.4631	0.8562	-0.431
Mof_O 	O 	0.4589	0.4255	0.93401	-0.432
Mof_O 	O 	0.4411	0.2755	0.69343	-0.278
Mof_O 	O 	0.4146	0.1221	0.70564	-0.426
Mof_C 	C 	0.7493	0.6325	0.9995	0.03
Mof_C 	C 	0.8031	0.7153	0.00314	-0.11
Mof_H 	H 	0.8032	0.7582	0.9744	0.126
Mof_C 	C 	0.8566	0.7344	0.04955	-0.015
Mof_C 	C 	0.8571	0.6688	0.09204	-0.057
Mof_H 	H 	0.8925	0.6812	0.1234	0.093
Mof_C 	C 	0.8054	0.586	0.0878	0.016
Mof_H 	H 	0.8074	0.5421	0.116	0.035
Mof_C 	C 	0.7506	0.5673	0.04208	-0.091
Mof_H 	H 	0.7149	0.5117	0.0398	0.074
Mof_C 	C 	0.6849	0.6146	0.95194	0.309
Mof_C 	C 	0.9153	0.8242	0.05494	0.358
Mof_C 	C 	0.4471	0.3186	0.86188	-0.118
Mof_C 	C 	0.4533	0.3028	0.80616	0.05
Mof_H 	H 	0.481	0.3485	0.7839	0.047
Mof_C 	C 	0.4185	0.2198	0.78344	-0.105
Mof_C 	C 	0.3778	0.1516	0.8167	0.033
Mof_H 	H 	0.3547	0.0955	0.8018	0.02
Mof_C 	C 	0.3713	0.1673	0.8725	-0.102
Mof_H 	H 	0.3445	0.1211	0.8948	0.054
Mof_C 	C 	0.4045	0.2511	0.8951	0.042
Mof_H 	H 	0.3983	0.2621	0.9322	0.037
Mof_C 	C 	0.4827	0.4094	0.88633	0.397
Mof_C 	C 	0.4252	0.206	0.72276	0.341
Mof_Co	Co	0.93012	0.40406	0.37328	1.204
Mof_O 	O 	0.8039	0.3427	0.40751	-0.378
Mof_O 	O 	0.8811	0.4462	0.45545	-0.47
Mof_O 	O 	0.586	0.1179	0.51705	-0.437
Mof_O 	O 	0.5384	0.1685	0.59878	-0.468
Mof_O 	O 	0.9675	0.5369	0.3562	-0.365
Mof_O 	O 	0.0411	0.5745	0.43401	-0.438
Mof_O 	O 	0.0589	0.7245	0.19343	-0.295
Mof_O 	O 	0.0854	0.8779	0.20564	-0.395
Mof_C 	C 	0.7507	0.3675	0.4995	-0.118
Mof_C 	C 	0.6969	0.2847	0.50314	0.06
Mof_H 	H 	0.6968	0.2418	0.4744	0.037
Mof_C 	C 	0.6434	0.2656	0.54955	-0.127
Mof_C 	C 	0.6429	0.3312	0.59204	0.046
Mof_H 	H 	0.6075	0.3188	0.6234	0.043
Mof_C 	C 	0.6946	0.414	0.5878	-0.104
Mof_H 	H 	0.6926	0.4579	0.616	0.074
Mof_C 	C 	0.7494	0.4327	0.54208	0.046
Mof_H 	H 	0.7851	0.4883	0.5398	0.033
Mof_C 	C 	0.8151	0.3854	0.45194	0.354
Mof_C 	C 	0.5847	0.1758	0.55494	0.401
Mof_C 	C 	0.0529	0.6814	0.36188	-0.103
Mof_C 	C 	0.0467	0.6972	0.30616	0.035
Mof_H 	H 	0.019	0.6515	0.2839	0.036
Mof_C 	C 	0.0815	0.7802	0.28344	-0.093
Mof_C 	C 	0.1222	0.8484	0.3167	0.031
Mof_H 	H 	0.1453	0.9045	0.3018	0.053
Mof_C 	C 	0.1287	0.8327	0.3725	-0.093
Mof_H 	H 	0.1555	0.8789	0.3948	0.082
Mof_C 	C 	0.0955	0.7489	0.3951	0.034
Mof_H 	H 	0.1017	0.7379	0.4322	0.035
Mof_C 	C 	0.0173	0.5906	0.38633	0.321
Mof_C 	C 	0.0748	0.794	0.22276	0.334
Mof_Co	Co	0.56988	0.90406	0.37328	1.208
Mof_O 	O 	0.6961	0.8427	0.40751	-0.364
Mof_O 	O 	0.6189	0.9462	0.45545	-0.456
Mof_O 	O 	0.914	0.6179	0.51705	-0.389
Mof_O 	O 	0.9616	0.6685	0.59878	-0.42
Mof_O 	O 	0.5325	0.0369	0.3562	-0.471
Mof_O 	O 	0.4589	0.0745	0.43401	-0.459
Mof_O 	O 	0.4411	0.2245	0.19343	-0.289
Mof_O 	O 	0.4146	0.3779	0.20564	-0.408
Mof_C 	C 	0.7493	0.8675	0.4995	-0.094
Mof_C 	C 	0.8031	0.7847	0.50314	0.047
Mof_H 	H 	0.8032	0.7418	0.4744	0.053
Mof_C 	C 	0.8566	0.7656	0.54955	-0.097
Mof_C 	C 	0.8571	0.8312	0.59204	0.035
Mof_H 	H 	0.8925	0.8188	0.6234	0.067
Mof_C 	C 	0.8054	0.914	0.5878	-0.077
Mof_H 	H 	0.8074	0.9579	0.616	0.09
Mof_C 	C 	0.7506	0.9327	0.54208	0.035
Mof_H 	H 	0.7149	0.9883	0.5398	0.059
Mof_C 	C 	0.6849	0.8854	0.45194	0.347
Mof_C 	C 	0.9153	0.6758	0.55494	0.392
Mof_C 	C 	0.4471	0.1814	0.36188	-0.131
Mof_C 	C 	0.4533	0.1972	0.30616	0.058
Mof_H 	H 	0.481	0.1515	0.2839	0.036
Mof_C 	C 	0.4185	0.2802	0.28344	-0.108
Mof_C 	C 	0.3778	0.3484	0.3167	0.043
Mof_H 	H 	0.3547	0.4045	0.3018	0.034
Mof_C 	C 	0.3713	0.3327	0.3725	-0.108
Mof_H 	H 	0.3445	0.3789	0.3948	0.073
Mof_C 	C 	0.4045	0.2489	0.3951	0.055
Mof_H 	H 	0.3983	0.2379	0.4322	0.032
Mof_C 	C 	0.4827	0.0906	0.38633	0.405
Mof_C 	C 	0.4252	0.294	0.22276	0.342
Mof_Co	Co	0.93012	0.09594	0.87328	1.189
Mof_O 	O 	0.8039	0.1573	0.90751	-0.37
Mof_O 	O 	0.8811	0.0538	0.95545	-0.473
Mof_O 	O 	0.586	0.3821	0.01705	-0.421
Mof_O 	O 	0.5384	0.3315	0.09878	-0.453
Mof_O 	O 	0.9675	0.9631	0.8562	-0.325
Mof_O 	O 	0.0411	0.9255	0.93401	-0.401
Mof_O 	O 	0.0589	0.7755	0.69343	-0.284
Mof_O 	O 	0.0854	0.6221	0.70564	-0.413
Mof_C 	C 	0.7507	0.1325	0.9995	0.011
Mof_C 	C 	0.6969	0.2153	0.00314	-0.102
Mof_H 	H 	0.6968	0.2582	0.9744	0.112
Mof_C 	C 	0.6434	0.2344	0.04955	-0.043
Mof_C 	C 	0.6429	0.1688	0.09204	-0.048
Mof_H 	H 	0.6075	0.1812	0.1234	0.07
Mof_C 	C 	0.6946	0.086	0.0878	-0.009
Mof_H 	H 	0.6926	0.0421	0.116	0.019
Mof_C 	C 	0.7494	0.0673	0.04208	-0.084
Mof_H 	H 	0.7851	0.0117	0.0398	0.051
Mof_C 	C 	0.8151	0.1146	0.95194	0.312
Mof_C 	C 	0.5847	0.3242	0.05494	0.368
Mof_C 	C 	0.0529	0.8186	0.86188	-0.088
Mof_C 	C 	0.0467	0.8028	0.80616	0.026
Mof_H 	H 	0.019	0.8485	0.7839	0.048
Mof_C 	C 	0.0815	0.7198	0.78344	-0.089
Mof_C 	C 	0.1222	0.6516	0.8167	0.021
Mof_H 	H 	0.1453	0.5955	0.8018	0.039
Mof_C 	C 	0.1287	0.6673	0.8725	-0.085
Mof_H 	H 	0.1555	0.6211	0.8948	0.063
Mof_C 	C 	0.0955	0.7511	0.8951	0.02
Mof_H 	H 	0.1017	0.7621	0.9322	0.041
Mof_C 	C 	0.0173	0.9094	0.88633	0.311
Mof_C 	C 	0.0748	0.706	0.72276	0.333
Mof_Co	Co	0.43012	0.40406	0.12672	1.19
Mof_O 	O 	0.3039	0.3427	0.09249	-0.407
Mof_O 	O 	0.3811	0.4462	0.04455	-0.512
Mof_O 	O 	0.086	0.1179	0.98295	-0.445
Mof_O 	O 	0.0384	0.1685	0.90122	-0.505
Mof_O 	O 	0.4675	0.5369	0.1438	-0.435
Mof_O 	O 	0.5411	0.5745	0.06599	-0.448
Mof_O 	O 	0.5589	0.7245	0.30657	-0.27
Mof_O 	O 	0.5854	0.8779	0.29436	-0.381
Mof_C 	C 	0.2507	0.3675	0.0005	-0.279
Mof_C 	C 	0.1969	0.2847	0.99686	0.239
Mof_H 	H 	0.1968	0.2418	0.0256	-0.048
Mof_C 	C 	0.1434	0.2656	0.95045	-0.23
Mof_C 	C 	0.1429	0.3312	0.90796	0.149
Mof_H 	H 	0.1075	0.3188	0.8766	-0.003
Mof_C 	C 	0.1946	0.414	0.9122	-0.226
Mof_H 	H 	0.1926	0.4579	0.884	0.112
Mof_C 	C 	0.2494	0.4327	0.95792	0.19
Mof_H 	H 	0.2851	0.4883	0.9602	-0.014
Mof_C 	C 	0.3151	0.3854	0.04806	0.405
Mof_C 	C 	0.0847	0.1758	0.94506	0.437
Mof_C 	C 	0.5529	0.6814	0.13812	-0.12
Mof_C 	C 	0.5467	0.6972	0.19384	0.052
Mof_H 	H 	0.519	0.6515	0.2161	0.048
Mof_C 	C 	0.5815	0.7802	0.21656	-0.089
Mof_C 	C 	0.6222	0.8484	0.1833	0.041
Mof_H 	H 	0.6453	0.9045	0.1982	0.058
Mof_C 	C 	0.6287	0.8327	0.1275	-0.097
Mof_H 	H 	0.6555	0.8789	0.1052	0.089
Mof_C 	C 	0.5955	0.7489	0.1049	0.054
Mof_H 	H 	0.6017	0.7379	0.0678	0.031
Mof_C 	C 	0.5173	0.5906	0.11367	0.403
Mof_C 	C 	0.5748	0.794	0.27724	0.337
Mof_Co	Co	0.06988	0.59594	0.62672	1.178
Mof_O 	O 	0.1961	0.6573	0.59249	-0.384
Mof_O 	O 	0.1189	0.5538	0.54455	-0.503
Mof_O 	O 	0.414	0.8821	0.48295	-0.387
Mof_O 	O 	0.4616	0.8315	0.40122	-0.444
Mof_O 	O 	0.0325	0.4631	0.6438	-0.498
Mof_O 	O 	0.9589	0.4255	0.56599	-0.437
Mof_O 	O 	0.9411	0.2755	0.80657	-0.255
Mof_O 	O 	0.9146	0.1221	0.79436	-0.414
Mof_C 	C 	0.2493	0.6325	0.5005	-0.118
Mof_C 	C 	0.3031	0.7153	0.49686	0.054
Mof_H 	H 	0.3032	0.7582	0.5256	0.046
Mof_C 	C 	0.3566	0.7344	0.45045	-0.113
Mof_C 	C 	0.3571	0.6688	0.40796	0.039
Mof_H 	H 	0.3925	0.6812	0.3766	0.048
Mof_C 	C 	0.3054	0.586	0.4122	-0.098
Mof_H 	H 	0.3074	0.5421	0.384	0.07
Mof_C 	C 	0.2506	0.5673	0.45792	0.042
Mof_H 	H 	0.2149	0.5117	0.4602	0.031
Mof_C 	C 	0.1849	0.6146	0.54806	0.355
Mof_C 	C 	0.4153	0.8242	0.44506	0.395
Mof_C 	C 	0.9471	0.3186	0.63812	-0.133
Mof_C 	C 	0.9533	0.3028	0.69384	0.067
Mof_H 	H 	0.981	0.3485	0.7161	0.059
Mof_C 	C 	0.9185	0.2198	0.71656	-0.101
Mof_C 	C 	0.8778	0.1516	0.6833	0.042
Mof_H 	H 	0.8547	0.0955	0.6982	0.024
Mof_C 	C 	0.8713	0.1673	0.6275	-0.106
Mof_H 	H 	0.8445	0.1211	0.6052	0.059
Mof_C 	C 	0.9045	0.2511	0.6049	0.061
Mof_H 	H 	0.8983	0.2621	0.5678	0.033
Mof_C 	C 	0.9827	0.4094	0.61367	0.475
Mof_C 	C 	0.9252	0.206	0.77724	0.344
Mof_Co	Co	0.5	0	0.5	1.177
Mof_Co	Co	-0	0	-0	1.141
Mof_Co	Co	0.5	0.5	-0	1.198
Mof_Co	Co	3.3061e-33	0.5	0.5	1.183
_end
