data_functionalizedCrystal
_audit_creation_method	'EQeq! by Chris Wilmer'
_symmetry_space_group_name_H-M	'P1'
_symmetry_Int_Tables_number	1
_symmetry_cell_setting	triclinic
loop_
_symmetry_equiv_pos_as_xyz
  x,y,z
_cell_length_a	7.3628
_cell_length_b	18.111
_cell_length_c	18.111
_cell_angle_alpha	99.1384
_cell_angle_beta	94.884
_cell_angle_gamma	85.116
loop_
_atom_site_label
_atom_site_type_symbol
_atom_site_fract_x
_atom_site_fract_y
_atom_site_fract_z
_atom_site_charge
Mof_K 	K 	0.78291	0.00916	0.42384	2.863
Mof_K 	K 	0.71709	0.42384	0.00916	2.865
Mof_K 	K 	0.21709	0.99084	0.57616	2.862
Mof_K 	K 	0.28291	0.57616	0.99084	2.864
Mof_In	In	0.70259	0.86188	0.55229	1.894
Mof_In	In	0.79741	0.55229	0.86188	1.892
Mof_In	In	0.29741	0.13812	0.44771	1.894
Mof_In	In	0.20259	0.44771	0.13812	1.892
Mof_H 	H 	0.5435	0.2574	0.6852	0.063
Mof_H 	H 	0.9447	0.6889	0.7115	0.054
Mof_H 	H 	0.8419	0.0449	0.7555	-0.019
Mof_H 	H 	0.9565	0.6852	0.2574	0.061
Mof_H 	H 	0.5553	0.7115	0.6889	0.044
Mof_H 	H 	0.6581	0.7555	0.0449	-0.018
Mof_H 	H 	0.4565	0.7426	0.3148	0.063
Mof_H 	H 	0.0553	0.3111	0.2885	0.054
Mof_H 	H 	0.1581	0.9551	0.2445	-0.019
Mof_H 	H 	0.0435	0.3148	0.7426	0.061
Mof_H 	H 	0.4447	0.2885	0.3111	0.044
Mof_H 	H 	0.3419	0.2445	0.9551	-0.018
Mof_C 	C 	0.6013	0.21411	0.70049	-0.015
Mof_C 	C 	0.6962	0.08365	0.67035	-0.241
Mof_C 	C 	0.7094	0.01064	0.61996	0.571
Mof_C 	C 	0.1177	0.74	0.66	-0.044
Mof_C 	C 	0.6024	0.14848	0.64972	-0.055
Mof_C 	C 	0.0681	0.69341	0.70719	0.01
Mof_C 	C 	0.3024	0.74833	0.65327	-0.119
Mof_C 	C 	0.365	0.7984	0.6034	0.482
Mof_C 	C 	0.9659	0.78062	0.61838	0.335
Mof_C 	C 	0.498	0.148	0.5754	0.327
Mof_C 	C 	0.7788	0.08787	0.74173	0.095
Mof_C 	C 	0.6815	0.2189	0.7727	-0.063
Mof_C 	C 	0.7734	0.15251	0.79429	-0.079
Mof_C 	C 	0.6568	0.2964	0.8184	0.403
Mof_C 	C 	0.8676	0.1427	0.8701	0.323
Mof_C 	C 	0.8987	0.70049	0.21411	-0.012
Mof_C 	C 	0.8038	0.67035	0.08365	-0.238
Mof_C 	C 	0.7906	0.61996	0.01064	0.567
Mof_C 	C 	0.3823	0.66	0.74	-0.047
Mof_C 	C 	0.8976	0.64972	0.14848	-0.061
Mof_C 	C 	0.4319	0.70719	0.69341	0.029
Mof_C 	C 	0.1976	0.65327	0.74833	-0.11
Mof_C 	C 	0.135	0.6034	0.7984	0.47
Mof_C 	C 	0.5341	0.61838	0.78062	0.332
Mof_C 	C 	0.002	0.5754	0.148	0.331
Mof_C 	C 	0.7212	0.74173	0.08787	0.093
Mof_C 	C 	0.8185	0.7727	0.2189	-0.065
Mof_C 	C 	0.7266	0.79429	0.15251	-0.077
Mof_C 	C 	0.8432	0.8184	0.2964	0.403
Mof_C 	C 	0.6324	0.8701	0.1427	0.322
Mof_C 	C 	0.3987	0.78589	0.29951	-0.015
Mof_C 	C 	0.3038	0.91635	0.32965	-0.241
Mof_C 	C 	0.2906	0.98936	0.38004	0.571
Mof_C 	C 	0.8823	0.26	0.34	-0.044
Mof_C 	C 	0.3976	0.85152	0.35028	-0.055
Mof_C 	C 	0.9319	0.30659	0.29281	0.01
Mof_C 	C 	0.6976	0.25167	0.34673	-0.119
Mof_C 	C 	0.635	0.2016	0.3966	0.482
Mof_C 	C 	0.0341	0.21938	0.38162	0.335
Mof_C 	C 	0.502	0.852	0.4246	0.327
Mof_C 	C 	0.2212	0.91213	0.25827	0.095
Mof_C 	C 	0.3185	0.7811	0.2273	-0.063
Mof_C 	C 	0.2266	0.84749	0.20571	-0.079
Mof_C 	C 	0.3432	0.7036	0.1816	0.403
Mof_C 	C 	0.1324	0.8573	0.1299	0.323
Mof_C 	C 	0.1013	0.29951	0.78589	-0.012
Mof_C 	C 	0.1962	0.32965	0.91635	-0.238
Mof_C 	C 	0.2094	0.38004	0.98936	0.567
Mof_C 	C 	0.6177	0.34	0.26	-0.047
Mof_C 	C 	0.1024	0.35028	0.85152	-0.061
Mof_C 	C 	0.5681	0.29281	0.30659	0.029
Mof_C 	C 	0.8024	0.34673	0.25167	-0.11
Mof_C 	C 	0.865	0.3966	0.2016	0.47
Mof_C 	C 	0.4659	0.38162	0.21938	0.332
Mof_C 	C 	0.998	0.4246	0.852	0.331
Mof_C 	C 	0.2788	0.25827	0.91213	0.093
Mof_C 	C 	0.1815	0.2273	0.7811	-0.065
Mof_C 	C 	0.2734	0.20571	0.84749	-0.077
Mof_C 	C 	0.1568	0.1816	0.7036	0.403
Mof_C 	C 	0.3676	0.1299	0.8573	0.322
Mof_O 	O 	0.5999	0.96251	0.62851	-0.78
Mof_O 	O 	0.7109	0.3077	0.88694	-0.562
Mof_O 	O 	0.8844	0.74603	0.56197	-0.418
Mof_O 	O 	0.426	0.20716	0.5553	-0.478
Mof_O 	O 	0.9195	0.84775	0.64253	-0.56
Mof_O 	O 	0.8316	0.99567	0.57711	-1.032
Mof_O 	O 	0.255	0.8306	0.5628	-0.64
Mof_O 	O 	0.4748	0.08545	0.53391	-0.876
Mof_O 	O 	0.5351	0.8047	0.61108	-0.589
Mof_O 	O 	0.5794	0.34679	0.78681	-0.365
Mof_O 	O 	0.8654	0.19724	0.92436	-0.25
Mof_O 	O 	0.9499	0.08305	0.87715	-0.239
Mof_O 	O 	0.9001	0.62851	0.96251	-0.776
Mof_O 	O 	0.7891	0.88694	0.3077	-0.562
Mof_O 	O 	0.6156	0.56197	0.74603	-0.419
Mof_O 	O 	0.074	0.5553	0.20716	-0.479
Mof_O 	O 	0.5805	0.64253	0.84775	-0.561
Mof_O 	O 	0.6684	0.57711	0.99567	-1.032
Mof_O 	O 	0.245	0.5628	0.8306	-0.637
Mof_O 	O 	0.0252	0.53391	0.08545	-0.875
Mof_O 	O 	0.9649	0.61108	0.8047	-0.582
Mof_O 	O 	0.9206	0.78681	0.34679	-0.365
Mof_O 	O 	0.6346	0.92436	0.19724	-0.25
Mof_O 	O 	0.5501	0.87715	0.08305	-0.238
Mof_O 	O 	0.4001	0.03749	0.37149	-0.78
Mof_O 	O 	0.2891	0.6923	0.11306	-0.562
Mof_O 	O 	0.1156	0.25397	0.43803	-0.418
Mof_O 	O 	0.574	0.79284	0.4447	-0.478
Mof_O 	O 	0.0805	0.15225	0.35747	-0.56
Mof_O 	O 	0.1684	0.00433	0.42289	-1.032
Mof_O 	O 	0.745	0.1694	0.4372	-0.64
Mof_O 	O 	0.5252	0.91455	0.46609	-0.876
Mof_O 	O 	0.4649	0.1953	0.38892	-0.589
Mof_O 	O 	0.4206	0.65321	0.21319	-0.365
Mof_O 	O 	0.1346	0.80276	0.07564	-0.25
Mof_O 	O 	0.0501	0.91695	0.12285	-0.239
Mof_O 	O 	0.0999	0.37149	0.03749	-0.776
Mof_O 	O 	0.2109	0.11306	0.6923	-0.562
Mof_O 	O 	0.3844	0.43803	0.25397	-0.419
Mof_O 	O 	0.926	0.4447	0.79284	-0.479
Mof_O 	O 	0.4195	0.35747	0.15225	-0.561
Mof_O 	O 	0.3316	0.42289	0.00433	-1.032
Mof_O 	O 	0.755	0.4372	0.1694	-0.637
Mof_O 	O 	0.9748	0.46609	0.91455	-0.875
Mof_O 	O 	0.0351	0.38892	0.1953	-0.582
Mof_O 	O 	0.0794	0.21319	0.65321	-0.365
Mof_O 	O 	0.3654	0.07564	0.80276	-0.25
Mof_O 	O 	0.4499	0.12285	0.91695	-0.238
_end
