data_functionalizedCrystal
_audit_creation_method	'EQeq! by Chris Wilmer'
_symmetry_space_group_name_H-M	'P1'
_symmetry_Int_Tables_number	1
_symmetry_cell_setting	triclinic
loop_
_symmetry_equiv_pos_as_xyz
  x,y,z
_cell_length_a	7.38
_cell_length_b	28.29
_cell_length_c	22.47
_cell_angle_alpha	90
_cell_angle_beta	99.13
_cell_angle_gamma	90
loop_
_atom_site_label
_atom_site_type_symbol
_atom_site_fract_x
_atom_site_fract_y
_atom_site_fract_z
_atom_site_charge
Mof_C 	C 	0.9104	0.08731	0.2554	0.44
Mof_C 	C 	0.0634	0.12059	0.2798	-0.285
Mof_C 	C 	0.021	0.16242	0.307	0.143
Mof_H 	H 	0.8986	0.1692	0.3085	-0.007
Mof_C 	C 	0.1542	0.19446	0.3319	-0.169
Mof_C 	C 	0.3378	0.18303	0.3278	0.155
Mof_H 	H 	0.4306	0.2039	0.3435	-0.025
Mof_C 	C 	0.383	0.1416	0.301	-0.328
Mof_H 	H 	0.5056	0.1352	0.2992	0.129
Mof_C 	C 	0.2509	0.10932	0.2769	0.33
Mof_C 	C 	0.112	0.23982	0.3612	0.192
Mof_C 	C 	0.9535	0.26561	0.3418	-0.249
Mof_H 	H 	0.8679	0.2539	0.3104	0.123
Mof_C 	C 	0.9199	0.30849	0.3681	0.187
Mof_C 	C 	0.0531	0.3265	0.4146	-0.238
Mof_H 	H 	0.0342	0.3556	0.4318	0.119
Mof_C 	C 	0.2145	0.30086	0.4354	0.187
Mof_C 	C 	0.2378	0.2578	0.4076	-0.252
Mof_H 	H 	0.3433	0.2404	0.4209	0.121
Mof_C 	C 	0.7522	0.33654	0.3464	-0.156
Mof_C 	C 	0.5838	0.31398	0.3317	0.13
Mof_H 	H 	0.5803	0.2812	0.334	-0.014
Mof_C 	C 	0.4185	0.3385	0.3134	-0.286
Mof_H 	H 	0.307	0.3225	0.3063	0.153
Mof_C 	C 	0.4263	0.3874	0.3062	0.351
Mof_C 	C 	0.5935	0.41142	0.3175	-0.291
Mof_C 	C 	0.753	0.38505	0.3381	0.137
Mof_H 	H 	0.8644	0.401	0.3466	0.003
Mof_C 	C 	0.6084	0.46233	0.3087	0.463
Mof_C 	C 	0.36	0.3204	0.483	-0.164
Mof_C 	C 	0.3227	0.34952	0.5302	0.143
Mof_H 	H 	0.201	0.3568	0.5323	-0.002
Mof_C 	C 	0.4572	0.3679	0.5734	-0.284
Mof_C 	C 	0.6388	0.3564	0.5709	0.351
Mof_C 	C 	0.6834	0.3269	0.5251	-0.305
Mof_H 	H 	0.8049	0.3194	0.5231	0.156
Mof_C 	C 	0.5451	0.3096	0.4841	0.156
Mof_H 	H 	0.5753	0.2892	0.4547	-0.022
Mof_C 	C 	0.4085	0.39921	0.6218	0.445
Mof_O 	O 	0.2966	0.06872	0.25272	-0.596
Mof_O 	O 	0.9246	0.05735	0.21536	-0.523
Mof_O 	O 	0.7618	0.09121	0.27741	-0.489
Mof_O 	O 	0.2634	0.41018	0.2877	-0.464
Mof_H 	H 	0.2838	0.4376	0.2788	0.284
Mof_O 	O 	0.4611	0.48561	0.2907	-0.517
Mof_O 	O 	0.7637	0.48133	0.31958	-0.511
Mof_O 	O 	0.2382	0.40869	0.6213	-0.492
Mof_O 	O 	0.5349	0.41591	0.6599	-0.484
Mof_O 	O 	0.7844	0.3739	0.6115	-0.477
Mof_H 	H 	0.7457	0.3921	0.6349	0.291
Mof_Zn	Zn	0.1373	0.04717	0.17419	1.222
Mof_Zn	Zn	0.55402	0.05087	0.24499	1.215
Mof_C 	C 	0.0896	0.58731	0.2446	0.441
Mof_C 	C 	0.9366	0.62059	0.2202	-0.284
Mof_C 	C 	0.979	0.66242	0.193	0.145
Mof_H 	H 	0.1014	0.6692	0.1915	-0.007
Mof_C 	C 	0.8458	0.69446	0.1681	-0.168
Mof_C 	C 	0.6622	0.68303	0.1722	0.156
Mof_H 	H 	0.5694	0.7039	0.1565	-0.025
Mof_C 	C 	0.617	0.6416	0.199	-0.328
Mof_H 	H 	0.4944	0.6352	0.2008	0.129
Mof_C 	C 	0.7491	0.60932	0.2231	0.33
Mof_C 	C 	0.888	0.73982	0.1388	0.193
Mof_C 	C 	0.0465	0.76561	0.1582	-0.25
Mof_H 	H 	0.1321	0.7539	0.1896	0.123
Mof_C 	C 	0.0801	0.80849	0.1319	0.187
Mof_C 	C 	0.9469	0.8265	0.0854	-0.238
Mof_H 	H 	0.9658	0.8556	0.0682	0.12
Mof_C 	C 	0.7855	0.80086	0.0646	0.187
Mof_C 	C 	0.7622	0.7578	0.0924	-0.252
Mof_H 	H 	0.6567	0.7404	0.0791	0.121
Mof_C 	C 	0.2478	0.83654	0.1536	-0.156
Mof_C 	C 	0.4162	0.81398	0.1683	0.13
Mof_H 	H 	0.4197	0.7812	0.166	-0.014
Mof_C 	C 	0.5815	0.8385	0.1866	-0.286
Mof_H 	H 	0.693	0.8225	0.1937	0.153
Mof_C 	C 	0.5737	0.8874	0.1938	0.351
Mof_C 	C 	0.4065	0.91142	0.1825	-0.291
Mof_C 	C 	0.247	0.88505	0.1619	0.137
Mof_H 	H 	0.1356	0.901	0.1534	0.003
Mof_C 	C 	0.3916	0.96233	0.1913	0.462
Mof_C 	C 	0.64	0.8204	0.017	-0.163
Mof_C 	C 	0.6773	0.84952	0.9698	0.142
Mof_H 	H 	0.799	0.8568	0.9677	-0.002
Mof_C 	C 	0.5428	0.8679	0.9266	-0.284
Mof_C 	C 	0.3612	0.8564	0.9291	0.351
Mof_C 	C 	0.3166	0.8269	0.9749	-0.306
Mof_H 	H 	0.1951	0.8194	0.9769	0.156
Mof_C 	C 	0.4549	0.8096	0.0159	0.157
Mof_H 	H 	0.4247	0.7892	0.0453	-0.023
Mof_C 	C 	0.5915	0.89921	0.8782	0.445
Mof_O 	O 	0.7034	0.56872	0.24728	-0.596
Mof_O 	O 	0.0754	0.55735	0.28464	-0.523
Mof_O 	O 	0.2382	0.59121	0.22259	-0.488
Mof_O 	O 	0.7366	0.91018	0.2123	-0.464
Mof_H 	H 	0.7162	0.9376	0.2212	0.284
Mof_O 	O 	0.5389	0.98561	0.2093	-0.517
Mof_O 	O 	0.2363	0.98133	0.18042	-0.511
Mof_O 	O 	0.7618	0.90869	0.8787	-0.493
Mof_O 	O 	0.4651	0.91591	0.8401	-0.484
Mof_O 	O 	0.2156	0.8739	0.8885	-0.477
Mof_H 	H 	0.2543	0.8921	0.8651	0.291
Mof_Zn	Zn	0.8627	0.54717	0.32581	1.222
Mof_Zn	Zn	0.44598	0.55087	0.25501	1.215
Mof_C 	C 	0.0896	0.91269	0.7446	0.441
Mof_C 	C 	0.9366	0.87941	0.7202	-0.284
Mof_C 	C 	0.979	0.83758	0.693	0.144
Mof_H 	H 	0.1014	0.8308	0.6915	-0.006
Mof_C 	C 	0.8458	0.80554	0.6681	-0.168
Mof_C 	C 	0.6622	0.81697	0.6722	0.156
Mof_H 	H 	0.5694	0.7961	0.6565	-0.025
Mof_C 	C 	0.617	0.8584	0.699	-0.328
Mof_H 	H 	0.4944	0.8648	0.7008	0.129
Mof_C 	C 	0.7491	0.89068	0.7231	0.33
Mof_C 	C 	0.888	0.76018	0.6388	0.192
Mof_C 	C 	0.0465	0.73439	0.6582	-0.249
Mof_H 	H 	0.1321	0.7461	0.6896	0.123
Mof_C 	C 	0.0801	0.69151	0.6319	0.187
Mof_C 	C 	0.9469	0.6735	0.5854	-0.238
Mof_H 	H 	0.9658	0.6444	0.5682	0.119
Mof_C 	C 	0.7855	0.69914	0.5646	0.187
Mof_C 	C 	0.7622	0.7422	0.5924	-0.252
Mof_H 	H 	0.6567	0.7596	0.5791	0.121
Mof_C 	C 	0.2478	0.66346	0.6536	-0.156
Mof_C 	C 	0.4162	0.68602	0.6683	0.13
Mof_H 	H 	0.4197	0.7188	0.666	-0.014
Mof_C 	C 	0.5815	0.6615	0.6866	-0.286
Mof_H 	H 	0.693	0.6775	0.6937	0.153
Mof_C 	C 	0.5737	0.6126	0.6938	0.351
Mof_C 	C 	0.4065	0.58858	0.6825	-0.291
Mof_C 	C 	0.247	0.61495	0.6619	0.137
Mof_H 	H 	0.1356	0.599	0.6534	0.003
Mof_C 	C 	0.3916	0.53767	0.6913	0.463
Mof_C 	C 	0.64	0.6796	0.517	-0.164
Mof_C 	C 	0.6773	0.65048	0.4698	0.143
Mof_H 	H 	0.799	0.6432	0.4677	-0.002
Mof_C 	C 	0.5428	0.6321	0.4266	-0.284
Mof_C 	C 	0.3612	0.6436	0.4291	0.351
Mof_C 	C 	0.3166	0.6731	0.4749	-0.305
Mof_H 	H 	0.1951	0.6806	0.4769	0.156
Mof_C 	C 	0.4549	0.6904	0.5159	0.156
Mof_H 	H 	0.4247	0.7108	0.5453	-0.022
Mof_C 	C 	0.5915	0.60079	0.3782	0.445
Mof_O 	O 	0.7034	0.93128	0.74728	-0.596
Mof_O 	O 	0.0754	0.94265	0.78464	-0.523
Mof_O 	O 	0.2382	0.90879	0.72259	-0.489
Mof_O 	O 	0.7366	0.58982	0.7123	-0.464
Mof_H 	H 	0.7162	0.5624	0.7212	0.284
Mof_O 	O 	0.5389	0.51439	0.7093	-0.517
Mof_O 	O 	0.2363	0.51867	0.68042	-0.511
Mof_O 	O 	0.7618	0.59131	0.3787	-0.492
Mof_O 	O 	0.4651	0.58409	0.3401	-0.484
Mof_O 	O 	0.2156	0.6261	0.3885	-0.477
Mof_H 	H 	0.2543	0.6079	0.3651	0.291
Mof_Zn	Zn	0.8627	0.95283	0.82581	1.222
Mof_Zn	Zn	0.44598	0.94913	0.75501	1.215
Mof_C 	C 	0.9104	0.41269	0.7554	0.441
Mof_C 	C 	0.0634	0.37941	0.7798	-0.284
Mof_C 	C 	0.021	0.33758	0.807	0.145
Mof_H 	H 	0.8986	0.3308	0.8085	-0.007
Mof_C 	C 	0.1542	0.30554	0.8319	-0.168
Mof_C 	C 	0.3378	0.31697	0.8278	0.156
Mof_H 	H 	0.4306	0.2961	0.8435	-0.025
Mof_C 	C 	0.383	0.3584	0.801	-0.328
Mof_H 	H 	0.5056	0.3648	0.7992	0.129
Mof_C 	C 	0.2509	0.39068	0.7769	0.33
Mof_C 	C 	0.112	0.26018	0.8612	0.193
Mof_C 	C 	0.9535	0.23439	0.8418	-0.25
Mof_H 	H 	0.8679	0.2461	0.8104	0.123
Mof_C 	C 	0.9199	0.19151	0.8681	0.187
Mof_C 	C 	0.0531	0.1735	0.9146	-0.238
Mof_H 	H 	0.0342	0.1444	0.9318	0.12
Mof_C 	C 	0.2145	0.19914	0.9354	0.187
Mof_C 	C 	0.2378	0.2422	0.9076	-0.252
Mof_H 	H 	0.3433	0.2596	0.9209	0.121
Mof_C 	C 	0.7522	0.16346	0.8464	-0.156
Mof_C 	C 	0.5838	0.18602	0.8317	0.13
Mof_H 	H 	0.5803	0.2188	0.834	-0.014
Mof_C 	C 	0.4185	0.1615	0.8134	-0.286
Mof_H 	H 	0.307	0.1775	0.8063	0.153
Mof_C 	C 	0.4263	0.1126	0.8062	0.351
Mof_C 	C 	0.5935	0.08858	0.8175	-0.291
Mof_C 	C 	0.753	0.11495	0.8381	0.137
Mof_H 	H 	0.8644	0.099	0.8466	0.003
Mof_C 	C 	0.6084	0.03767	0.8087	0.462
Mof_C 	C 	0.36	0.1796	0.983	-0.163
Mof_C 	C 	0.3227	0.15048	0.0302	0.142
Mof_H 	H 	0.201	0.1432	0.0323	-0.002
Mof_C 	C 	0.4572	0.1321	0.0734	-0.284
Mof_C 	C 	0.6388	0.1436	0.0709	0.351
Mof_C 	C 	0.6834	0.1731	0.0251	-0.306
Mof_H 	H 	0.8049	0.1806	0.0231	0.156
Mof_C 	C 	0.5451	0.1904	0.9841	0.157
Mof_H 	H 	0.5753	0.2108	0.9547	-0.023
Mof_C 	C 	0.4085	0.10079	0.1218	0.445
Mof_O 	O 	0.2966	0.43128	0.75272	-0.596
Mof_O 	O 	0.9246	0.44265	0.71536	-0.523
Mof_O 	O 	0.7618	0.40879	0.77741	-0.488
Mof_O 	O 	0.2634	0.08982	0.7877	-0.464
Mof_H 	H 	0.2838	0.0624	0.7788	0.284
Mof_O 	O 	0.4611	0.01439	0.7907	-0.517
Mof_O 	O 	0.7637	0.01867	0.81958	-0.511
Mof_O 	O 	0.2382	0.09131	0.1213	-0.493
Mof_O 	O 	0.5349	0.08409	0.1599	-0.484
Mof_O 	O 	0.7844	0.1261	0.1115	-0.477
Mof_H 	H 	0.7457	0.1079	0.1349	0.291
Mof_Zn	Zn	0.1373	0.45283	0.67419	1.222
Mof_Zn	Zn	0.55402	0.44913	0.74499	1.215
_end
