data_functionalizedCrystal
_audit_creation_method	'EQeq! by Chris Wilmer'
_symmetry_space_group_name_H-M	'P1'
_symmetry_Int_Tables_number	1
_symmetry_cell_setting	triclinic
loop_
_symmetry_equiv_pos_as_xyz
  x,y,z
_cell_length_a	7.3599
_cell_length_b	24.7921
_cell_length_c	29.7428
_cell_angle_alpha	90
_cell_angle_beta	94.438
_cell_angle_gamma	90
loop_
_atom_site_label
_atom_site_type_symbol
_atom_site_fract_x
_atom_site_fract_y
_atom_site_fract_z
_atom_site_charge
Mof_Cs	Cs	0.50432	0.76916	0.27118	2.059
Mof_C 	C 	0.6712	0.0538	0.53435	0.116
Mof_C 	C 	0.5401	0.0954	0.52325	-0.098
Mof_H 	H 	0.4442	0.1054	0.5401	0.036
Mof_N 	N 	0.7928	0.04926	0.50128	-0.285
Mof_C 	C 	0.5817	0.1173	0.484	-0.101
Mof_H 	H 	0.5209	0.1454	0.4686	0.048
Mof_C 	C 	0.7388	0.08865	0.4704	0.118
Mof_C 	C 	0.822	0.10099	0.43147	-0.211
Mof_C 	C 	0.9723	0.07251	0.41853	0.174
Mof_C 	C 	0.0494	0.0812	0.37586	-0.153
Mof_H 	H 	0.012	0.1064	0.3539	0.045
Mof_N 	N 	0.0597	0.03103	0.44253	-0.308
Mof_C 	C 	0.1868	0.0453	0.37435	-0.056
Mof_H 	H 	0.2628	0.0411	0.351	0.044
Mof_C 	C 	0.1936	0.01468	0.41562	0.046
Mof_C 	C 	0.6772	0.02514	0.57401	-0.223
Mof_C 	C 	0.7435	0.1436	0.40093	0.225
Mof_C 	C 	0.8374	0.1909	0.3932	-0.303
Mof_H 	H 	0.9517	0.1971	0.4079	0.096
Mof_C 	C 	0.7576	0.2293	0.363	0.175
Mof_H 	H 	0.8188	0.2613	0.3579	-0.198
Mof_C 	C 	0.5878	0.2198	0.3405	-0.374
Mof_C 	C 	0.4947	0.1738	0.3486	0.255
Mof_H 	H 	0.3799	0.1679	0.3341	-0.108
Mof_C 	C 	0.5712	0.1355	0.3786	-0.321
Mof_H 	H 	0.5069	0.1041	0.3839	0.134
Mof_C 	C 	0.4796	0.2601	0.3049	0.648
Mof_O 	O 	0.3432	0.2455	0.2863	-0.902
Mof_O 	O 	0.5881	0.2976	0.29721	-0.666
Mof_C 	C 	0.5488	0.0401	0.60844	0.192
Mof_C 	C 	0.6159	0.0678	0.64696	-0.285
Mof_H 	H 	0.7402	0.0745	0.6519	0.134
Mof_C 	C 	0.4978	0.0855	0.67801	0.186
Mof_H 	H 	0.5429	0.1047	0.7034	-0.133
Mof_C 	C 	0.3131	0.07483	0.67133	-0.286
Mof_C 	C 	0.2451	0.04526	0.63391	0.151
Mof_H 	H 	0.1217	0.0369	0.63	-0.044
Mof_C 	C 	0.3631	0.02826	0.60228	-0.26
Mof_H 	H 	0.318	0.009	0.577	0.083
Mof_C 	C 	0.1876	0.09841	0.70273	0.427
Mof_O 	O 	0.252	0.13042	0.73408	-0.64
Mof_O 	O 	0.0196	0.09047	0.69884	-0.397
Mof_O 	O 	0.569	0.6415	0.2419	-0.301
Mof_N 	N 	0.789	0.5724	0.2493	-0.116
Mof_C 	C 	0.615	0.5387	0.2464	0.054
Mof_C 	C 	0.737	0.6298	0.2475	0.079
Mof_Cs	Cs	0.00432	0.26916	0.27118	2.488
Mof_C 	C 	0.1712	0.5538	0.53435	0.127
Mof_C 	C 	0.0401	0.5954	0.52325	-0.172
Mof_H 	H 	0.9442	0.6054	0.5401	0.086
Mof_N 	N 	0.2928	0.54926	0.50128	-0.287
Mof_C 	C 	0.0817	0.6173	0.484	-0.06
Mof_H 	H 	0.0209	0.6454	0.4686	0.03
Mof_C 	C 	0.2388	0.58865	0.4704	0.103
Mof_C 	C 	0.322	0.60099	0.43147	-0.203
Mof_C 	C 	0.4723	0.57251	0.41853	0.106
Mof_C 	C 	0.5494	0.5812	0.37586	-0.069
Mof_H 	H 	0.512	0.6064	0.3539	0.036
Mof_N 	N 	0.5597	0.53103	0.44253	-0.281
Mof_C 	C 	0.6868	0.5453	0.37435	-0.097
Mof_H 	H 	0.7628	0.5411	0.351	0.074
Mof_C 	C 	0.6936	0.51468	0.41562	0.105
Mof_C 	C 	0.1772	0.52514	0.57401	-0.196
Mof_C 	C 	0.2435	0.6436	0.40093	0.274
Mof_C 	C 	0.3374	0.6909	0.3932	-0.37
Mof_H 	H 	0.4517	0.6971	0.4079	0.115
Mof_C 	C 	0.2576	0.7293	0.363	0.262
Mof_H 	H 	0.3188	0.7613	0.3579	-0.217
Mof_C 	C 	0.0878	0.7198	0.3405	-0.493
Mof_C 	C 	0.9947	0.6738	0.3486	0.415
Mof_H 	H 	0.8799	0.6679	0.3341	-0.15
Mof_C 	C 	0.0712	0.6355	0.3786	-0.435
Mof_H 	H 	0.0069	0.6041	0.3839	0.168
Mof_C 	C 	0.9796	0.7601	0.3049	0.731
Mof_O 	O 	0.8432	0.7455	0.2863	-0.89
Mof_O 	O 	0.0881	0.7976	0.29721	-0.688
Mof_C 	C 	0.0488	0.5401	0.60844	0.189
Mof_C 	C 	0.1159	0.5678	0.64696	-0.363
Mof_H 	H 	0.2402	0.5745	0.6519	0.158
Mof_C 	C 	0.9978	0.5855	0.67801	0.321
Mof_H 	H 	0.0429	0.6047	0.7034	-0.191
Mof_C 	C 	0.8131	0.57483	0.67133	-0.319
Mof_C 	C 	0.7451	0.54526	0.63391	0.172
Mof_H 	H 	0.6217	0.5369	0.63	-0.031
Mof_C 	C 	0.8631	0.52826	0.60228	-0.235
Mof_H 	H 	0.818	0.509	0.577	0.093
Mof_C 	C 	0.6876	0.59841	0.70273	0.449
Mof_O 	O 	0.752	0.63042	0.73408	-0.637
Mof_O 	O 	0.5196	0.59047	0.69884	-0.38
Mof_O 	O 	0.069	0.1415	0.2419	-0.328
Mof_N 	N 	0.289	0.0724	0.2493	-0.127
Mof_C 	C 	0.115	0.0387	0.2464	0.011
Mof_C 	C 	0.237	0.1298	0.2475	0.071
Mof_Cs	Cs	0.49568	0.76916	0.22882	2.113
Mof_C 	C 	0.3288	0.0538	0.96565	0.099
Mof_C 	C 	0.4599	0.0954	0.97675	-0.054
Mof_H 	H 	0.5558	0.1054	0.9599	0.031
Mof_N 	N 	0.2072	0.04926	0.99872	-0.273
Mof_C 	C 	0.4183	0.1173	0.016	-0.13
Mof_H 	H 	0.4791	0.1454	0.0314	0.06
Mof_C 	C 	0.2612	0.08865	0.0296	0.08
Mof_C 	C 	0.178	0.10099	0.06853	-0.152
Mof_C 	C 	0.0277	0.07251	0.08147	0.016
Mof_C 	C 	0.9506	0.0812	0.12414	0.003
Mof_H 	H 	0.988	0.1064	0.1461	0.026
Mof_N 	N 	0.9403	0.03103	0.05747	-0.253
Mof_C 	C 	0.8132	0.0453	0.12565	-0.119
Mof_H 	H 	0.7372	0.0411	0.149	0.073
Mof_C 	C 	0.8064	0.01468	0.08438	0.084
Mof_C 	C 	0.3228	0.02514	0.92599	-0.204
Mof_C 	C 	0.2565	0.1436	0.09907	0.176
Mof_C 	C 	0.1626	0.1909	0.1068	-0.273
Mof_H 	H 	0.0483	0.1971	0.0921	0.071
Mof_C 	C 	0.2424	0.2293	0.137	0.153
Mof_H 	H 	0.1812	0.2613	0.1421	-0.172
Mof_C 	C 	0.4122	0.2198	0.1595	-0.337
Mof_C 	C 	0.5053	0.1738	0.1514	0.218
Mof_H 	H 	0.6201	0.1679	0.1659	-0.082
Mof_C 	C 	0.4288	0.1355	0.1214	-0.281
Mof_H 	H 	0.4931	0.1041	0.1161	0.122
Mof_C 	C 	0.5204	0.2601	0.1951	0.627
Mof_O 	O 	0.6568	0.2455	0.2137	-0.841
Mof_O 	O 	0.4119	0.2976	0.20279	-0.64
Mof_C 	C 	0.4512	0.0401	0.89156	0.17
Mof_C 	C 	0.3841	0.0678	0.85304	-0.259
Mof_H 	H 	0.2598	0.0745	0.8481	0.111
Mof_C 	C 	0.5022	0.0855	0.82199	0.163
Mof_H 	H 	0.4571	0.1047	0.7966	-0.125
Mof_C 	C 	0.6869	0.07483	0.82867	-0.261
Mof_C 	C 	0.7549	0.04526	0.86609	0.132
Mof_H 	H 	0.8783	0.0369	0.87	-0.016
Mof_C 	C 	0.6369	0.02826	0.89772	-0.234
Mof_H 	H 	0.682	0.009	0.923	0.084
Mof_C 	C 	0.8124	0.09841	0.79727	0.416
Mof_O 	O 	0.748	0.13042	0.76592	-0.625
Mof_O 	O 	0.9804	0.09047	0.80116	-0.35
Mof_O 	O 	0.431	0.6415	0.2581	-0.293
Mof_N 	N 	0.211	0.5724	0.2507	-0.125
Mof_C 	C 	0.385	0.5387	0.2536	0.049
Mof_C 	C 	0.263	0.6298	0.2525	0.057
Mof_Cs	Cs	0.99568	0.26916	0.22882	1.69
Mof_C 	C 	0.8288	0.5538	0.96565	0.064
Mof_C 	C 	0.9599	0.5954	0.97675	0.04
Mof_H 	H 	0.0558	0.6054	0.9599	-0.028
Mof_N 	N 	0.7072	0.54926	0.99872	-0.261
Mof_C 	C 	0.9183	0.6173	0.016	-0.177
Mof_H 	H 	0.9791	0.6454	0.0314	0.082
Mof_C 	C 	0.7612	0.58865	0.0296	0.103
Mof_C 	C 	0.678	0.60099	0.06853	-0.153
Mof_C 	C 	0.5277	0.57251	0.08147	0.08
Mof_C 	C 	0.4506	0.5812	0.12414	-0.051
Mof_H 	H 	0.488	0.6064	0.1461	0.026
Mof_N 	N 	0.4403	0.53103	0.05747	-0.285
Mof_C 	C 	0.3132	0.5453	0.12565	-0.118
Mof_H 	H 	0.2372	0.5411	0.149	0.074
Mof_C 	C 	0.3064	0.51468	0.08438	0.122
Mof_C 	C 	0.8228	0.52514	0.92599	-0.14
Mof_C 	C 	0.7565	0.6436	0.09907	0.122
Mof_C 	C 	0.6626	0.6909	0.1068	-0.199
Mof_H 	H 	0.5483	0.6971	0.0921	0.048
Mof_C 	C 	0.7424	0.7293	0.137	0.058
Mof_H 	H 	0.6812	0.7613	0.1421	-0.15
Mof_C 	C 	0.9122	0.7198	0.1595	-0.207
Mof_C 	C 	0.0053	0.6738	0.1514	0.044
Mof_H 	H 	0.1201	0.6679	0.1659	-0.035
Mof_C 	C 	0.9288	0.6355	0.1214	-0.156
Mof_H 	H 	0.9931	0.6041	0.1161	0.092
Mof_C 	C 	0.0204	0.7601	0.1951	0.533
Mof_O 	O 	0.1568	0.7455	0.2137	-0.846
Mof_O 	O 	0.9119	0.7976	0.20279	-0.597
Mof_C 	C 	0.9512	0.5401	0.89156	0.15
Mof_C 	C 	0.8841	0.5678	0.85304	-0.15
Mof_H 	H 	0.7598	0.5745	0.8481	0.082
Mof_C 	C 	0.0022	0.5855	0.82199	0.018
Mof_H 	H 	0.9571	0.6047	0.7966	-0.059
Mof_C 	C 	0.1869	0.57483	0.82867	-0.207
Mof_C 	C 	0.2549	0.54526	0.86609	0.101
Mof_H 	H 	0.3783	0.5369	0.87	-0.008
Mof_C 	C 	0.1369	0.52826	0.89772	-0.228
Mof_H 	H 	0.182	0.509	0.923	0.083
Mof_C 	C 	0.3124	0.59841	0.79727	0.395
Mof_O 	O 	0.248	0.63042	0.76592	-0.642
Mof_O 	O 	0.4804	0.59047	0.80116	-0.366
Mof_O 	O 	0.931	0.1415	0.2581	-0.265
Mof_N 	N 	0.711	0.0724	0.2507	-0.128
Mof_C 	C 	0.885	0.0387	0.2536	0.069
Mof_C 	C 	0.763	0.1298	0.2525	0.061
Mof_Cs	Cs	0.49568	0.23084	0.72882	2.115
Mof_C 	C 	0.3288	0.9462	0.46565	0.086
Mof_C 	C 	0.4599	0.9046	0.47675	-0.083
Mof_H 	H 	0.5558	0.8946	0.4599	0.037
Mof_N 	N 	0.2072	0.95074	0.49872	-0.271
Mof_C 	C 	0.4183	0.8827	0.516	-0.093
Mof_H 	H 	0.4791	0.8546	0.5314	0.052
Mof_C 	C 	0.2612	0.91135	0.5296	0.096
Mof_C 	C 	0.178	0.89901	0.56853	-0.148
Mof_C 	C 	0.0277	0.92749	0.58147	0.022
Mof_C 	C 	0.9506	0.9188	0.62414	0.025
Mof_H 	H 	0.988	0.8936	0.6461	0.019
Mof_N 	N 	0.9403	0.96897	0.55747	-0.249
Mof_C 	C 	0.8132	0.9547	0.62565	-0.154
Mof_H 	H 	0.7372	0.9589	0.649	0.1
Mof_C 	C 	0.8064	0.98532	0.58438	0.178
Mof_C 	C 	0.3228	0.97486	0.42599	-0.118
Mof_C 	C 	0.2565	0.8564	0.59907	0.18
Mof_C 	C 	0.1626	0.8091	0.6068	-0.274
Mof_H 	H 	0.0483	0.8029	0.5921	0.074
Mof_C 	C 	0.2424	0.7707	0.637	0.156
Mof_H 	H 	0.1812	0.7387	0.6421	-0.172
Mof_C 	C 	0.4122	0.7802	0.6595	-0.338
Mof_C 	C 	0.5053	0.8262	0.6514	0.221
Mof_H 	H 	0.6201	0.8321	0.6659	-0.083
Mof_C 	C 	0.4288	0.8645	0.6214	-0.283
Mof_H 	H 	0.4931	0.8959	0.6161	0.129
Mof_C 	C 	0.5204	0.7399	0.6951	0.629
Mof_O 	O 	0.6568	0.7545	0.7137	-0.843
Mof_O 	O 	0.4119	0.7024	0.70279	-0.641
Mof_C 	C 	0.4512	0.9599	0.39156	0.148
Mof_C 	C 	0.3841	0.9322	0.35304	-0.229
Mof_H 	H 	0.2598	0.9255	0.3481	0.108
Mof_C 	C 	0.5022	0.9145	0.32199	0.151
Mof_H 	H 	0.4571	0.8953	0.2966	-0.117
Mof_C 	C 	0.6869	0.92517	0.32867	-0.24
Mof_C 	C 	0.7549	0.95474	0.36609	0.121
Mof_H 	H 	0.8783	0.9631	0.37	0.004
Mof_C 	C 	0.6369	0.97174	0.39772	-0.205
Mof_H 	H 	0.682	0.991	0.423	0.091
Mof_C 	C 	0.8124	0.90159	0.29727	0.415
Mof_O 	O 	0.748	0.86958	0.26592	-0.623
Mof_O 	O 	0.9804	0.90953	0.30116	-0.339
Mof_O 	O 	0.431	0.3585	0.7581	-0.293
Mof_N 	N 	0.211	0.4276	0.7507	-0.125
Mof_C 	C 	0.385	0.4613	0.7536	0.049
Mof_C 	C 	0.263	0.3702	0.7525	0.057
Mof_Cs	Cs	0.99568	0.73084	0.72882	1.703
Mof_C 	C 	0.8288	0.4462	0.46565	0.072
Mof_C 	C 	0.9599	0.4046	0.47675	-0.005
Mof_H 	H 	0.0558	0.3946	0.4599	-0.017
Mof_N 	N 	0.7072	0.45074	0.49872	-0.278
Mof_C 	C 	0.9183	0.3827	0.516	-0.136
Mof_H 	H 	0.9791	0.3546	0.5314	0.072
Mof_C 	C 	0.7612	0.41135	0.5296	0.11
Mof_C 	C 	0.678	0.39901	0.56853	-0.153
Mof_C 	C 	0.5277	0.42749	0.58147	0.083
Mof_C 	C 	0.4506	0.4188	0.62414	-0.053
Mof_H 	H 	0.488	0.3936	0.6461	0.027
Mof_N 	N 	0.4403	0.46897	0.55747	-0.283
Mof_C 	C 	0.3132	0.4547	0.62565	-0.116
Mof_H 	H 	0.2372	0.4589	0.649	0.073
Mof_C 	C 	0.3064	0.48532	0.58438	0.12
Mof_C 	C 	0.8228	0.47486	0.42599	-0.147
Mof_C 	C 	0.7565	0.3564	0.59907	0.122
Mof_C 	C 	0.6626	0.3091	0.6068	-0.198
Mof_H 	H 	0.5483	0.3029	0.5921	0.05
Mof_C 	C 	0.7424	0.2707	0.637	0.058
Mof_H 	H 	0.6812	0.2387	0.6421	-0.149
Mof_C 	C 	0.9122	0.2802	0.6595	-0.205
Mof_C 	C 	0.0053	0.3262	0.6514	0.043
Mof_H 	H 	0.1201	0.3321	0.6659	-0.034
Mof_C 	C 	0.9288	0.3645	0.6214	-0.154
Mof_H 	H 	0.9931	0.3959	0.6161	0.091
Mof_C 	C 	0.0204	0.2399	0.6951	0.532
Mof_O 	O 	0.1568	0.2545	0.7137	-0.846
Mof_O 	O 	0.9119	0.2024	0.70279	-0.596
Mof_C 	C 	0.9512	0.4599	0.39156	0.152
Mof_C 	C 	0.8841	0.4322	0.35304	-0.149
Mof_H 	H 	0.7598	0.4255	0.3481	0.082
Mof_C 	C 	0.0022	0.4145	0.32199	0.015
Mof_H 	H 	0.9571	0.3953	0.2966	-0.058
Mof_C 	C 	0.1869	0.42517	0.32867	-0.206
Mof_C 	C 	0.2549	0.45474	0.36609	0.1
Mof_H 	H 	0.3783	0.4631	0.37	-0.009
Mof_C 	C 	0.1369	0.47174	0.39772	-0.229
Mof_H 	H 	0.182	0.491	0.423	0.08
Mof_C 	C 	0.3124	0.40159	0.29727	0.394
Mof_O 	O 	0.248	0.36958	0.26592	-0.642
Mof_O 	O 	0.4804	0.40953	0.30116	-0.366
Mof_O 	O 	0.931	0.8585	0.7581	-0.267
Mof_N 	N 	0.711	0.9276	0.7507	-0.126
Mof_C 	C 	0.885	0.9613	0.7536	0.089
Mof_C 	C 	0.763	0.8702	0.7525	0.062
Mof_Cs	Cs	0.50432	0.23084	0.77118	2.06
Mof_C 	C 	0.6712	0.9462	0.03435	0.103
Mof_C 	C 	0.5401	0.9046	0.02325	-0.126
Mof_H 	H 	0.4442	0.8946	0.0401	0.041
Mof_N 	N 	0.7928	0.95074	0.00128	-0.28
Mof_C 	C 	0.5817	0.8827	0.984	-0.065
Mof_H 	H 	0.5209	0.8546	0.9686	0.041
Mof_C 	C 	0.7388	0.91135	0.9704	0.132
Mof_C 	C 	0.822	0.89901	0.93147	-0.203
Mof_C 	C 	0.9723	0.92749	0.91853	0.173
Mof_C 	C 	0.0494	0.9188	0.87586	-0.125
Mof_H 	H 	0.012	0.8936	0.8539	0.037
Mof_N 	N 	0.0597	0.96897	0.94253	-0.299
Mof_C 	C 	0.1868	0.9547	0.87435	-0.094
Mof_H 	H 	0.2628	0.9589	0.851	0.072
Mof_C 	C 	0.1936	0.98532	0.91562	0.141
Mof_C 	C 	0.6772	0.97486	0.07401	-0.137
Mof_C 	C 	0.7435	0.8564	0.90093	0.226
Mof_C 	C 	0.8374	0.8091	0.8932	-0.303
Mof_H 	H 	0.9517	0.8029	0.9079	0.098
Mof_C 	C 	0.7576	0.7707	0.863	0.177
Mof_H 	H 	0.8188	0.7387	0.8579	-0.198
Mof_C 	C 	0.5878	0.7802	0.8405	-0.374
Mof_C 	C 	0.4947	0.8262	0.8486	0.257
Mof_H 	H 	0.3799	0.8321	0.8341	-0.108
Mof_C 	C 	0.5712	0.8645	0.8786	-0.321
Mof_H 	H 	0.5069	0.8959	0.8839	0.141
Mof_C 	C 	0.4796	0.7399	0.8049	0.649
Mof_O 	O 	0.3432	0.7545	0.7863	-0.902
Mof_O 	O 	0.5881	0.7024	0.79721	-0.666
Mof_C 	C 	0.5488	0.9599	0.10844	0.17
Mof_C 	C 	0.6159	0.9322	0.14696	-0.255
Mof_H 	H 	0.7402	0.9255	0.1519	0.13
Mof_C 	C 	0.4978	0.9145	0.17801	0.173
Mof_H 	H 	0.5429	0.8953	0.2034	-0.125
Mof_C 	C 	0.3131	0.92517	0.17133	-0.266
Mof_C 	C 	0.2451	0.95474	0.13391	0.14
Mof_H 	H 	0.1217	0.9631	0.13	-0.023
Mof_C 	C 	0.3631	0.97174	0.10228	-0.231
Mof_H 	H 	0.318	0.991	0.077	0.092
Mof_C 	C 	0.1876	0.90159	0.20273	0.425
Mof_O 	O 	0.252	0.86958	0.23408	-0.637
Mof_O 	O 	0.0196	0.90953	0.19884	-0.385
Mof_O 	O 	0.569	0.3585	0.7419	-0.301
Mof_N 	N 	0.789	0.4276	0.7493	-0.116
Mof_C 	C 	0.615	0.4613	0.7464	0.054
Mof_C 	C 	0.737	0.3702	0.7475	0.079
Mof_Cs	Cs	0.00432	0.73084	0.77118	2.48
Mof_C 	C 	0.1712	0.4462	0.03435	0.137
Mof_C 	C 	0.0401	0.4046	0.02325	-0.222
Mof_H 	H 	0.9442	0.3946	0.0401	0.099
Mof_N 	N 	0.2928	0.45074	0.00128	-0.301
Mof_C 	C 	0.0817	0.3827	0.984	-0.016
Mof_H 	H 	0.0209	0.3546	0.9686	0.02
Mof_C 	C 	0.2388	0.41135	0.9704	0.11
Mof_C 	C 	0.322	0.39901	0.93147	-0.202
Mof_C 	C 	0.4723	0.42749	0.91853	0.11
Mof_C 	C 	0.5494	0.4188	0.87586	-0.071
Mof_H 	H 	0.512	0.3936	0.8539	0.036
Mof_N 	N 	0.5597	0.46897	0.94253	-0.275
Mof_C 	C 	0.6868	0.4547	0.87435	-0.095
Mof_H 	H 	0.7628	0.4589	0.851	0.073
Mof_C 	C 	0.6936	0.48532	0.91562	0.104
Mof_C 	C 	0.1772	0.47486	0.07401	-0.204
Mof_C 	C 	0.2435	0.3564	0.90093	0.275
Mof_C 	C 	0.3374	0.3091	0.8932	-0.37
Mof_H 	H 	0.4517	0.3029	0.9079	0.118
Mof_C 	C 	0.2576	0.2707	0.863	0.264
Mof_H 	H 	0.3188	0.2387	0.8579	-0.217
Mof_C 	C 	0.0878	0.2802	0.8405	-0.493
Mof_C 	C 	0.9947	0.3262	0.8486	0.416
Mof_H 	H 	0.8799	0.3321	0.8341	-0.15
Mof_C 	C 	0.0712	0.3645	0.8786	-0.435
Mof_H 	H 	0.0069	0.3959	0.8839	0.169
Mof_C 	C 	0.9796	0.2399	0.8049	0.732
Mof_O 	O 	0.8432	0.2545	0.7863	-0.89
Mof_O 	O 	0.0881	0.2024	0.79721	-0.688
Mof_C 	C 	0.0488	0.4599	0.10844	0.192
Mof_C 	C 	0.1159	0.4322	0.14696	-0.366
Mof_H 	H 	0.2402	0.4255	0.1519	0.159
Mof_C 	C 	0.9978	0.4145	0.17801	0.323
Mof_H 	H 	0.0429	0.3953	0.2034	-0.192
Mof_C 	C 	0.8131	0.42517	0.17133	-0.321
Mof_C 	C 	0.7451	0.45474	0.13391	0.173
Mof_H 	H 	0.6217	0.4631	0.13	-0.032
Mof_C 	C 	0.8631	0.47174	0.10228	-0.238
Mof_H 	H 	0.818	0.491	0.077	0.091
Mof_C 	C 	0.6876	0.40159	0.20273	0.449
Mof_O 	O 	0.752	0.36958	0.23408	-0.636
Mof_O 	O 	0.5196	0.40953	0.19884	-0.381
Mof_O 	O 	0.069	0.8585	0.7419	-0.327
Mof_N 	N 	0.289	0.9276	0.7493	-0.125
Mof_C 	C 	0.115	0.9613	0.7464	0.034
Mof_C 	C 	0.237	0.8702	0.7475	0.072
Mof_Ni	Ni	8.16226e-33	-4.66538e-33	0.5	1.016
Mof_Ni	Ni	0.5	0.5	0.5	1.044
Mof_Ni	Ni	-0	0	-0	1.006
Mof_Ni	Ni	0.5	0.5	-0	1.034
Mof_Fe	Fe	1.05055e-17	0.84657	0.25	0.825
Mof_C 	C 	1.05055e-17	0.5642	0.25	0.026
Mof_Fe	Fe	0.5	0.34657	0.25	0.875
Mof_C 	C 	0.5	0.0642	0.25	0.042
Mof_Fe	Fe	1.22434e-32	0.15343	0.75	0.823
Mof_C 	C 	1.22434e-32	0.4358	0.75	0.026
Mof_Fe	Fe	0.5	0.65343	0.75	0.875
Mof_C 	C 	0.5	0.9358	0.75	0.061
_end
