data_functionalizedCrystal
_audit_creation_method	'EQeq! by Chris Wilmer'
_symmetry_space_group_name_H-M	'P1'
_symmetry_Int_Tables_number	1
_symmetry_cell_setting	triclinic
loop_
_symmetry_equiv_pos_as_xyz
  x,y,z
_cell_length_a	24.074
_cell_length_b	24.074
_cell_length_c	5.1021
_cell_angle_alpha	90
_cell_angle_beta	90
_cell_angle_gamma	90
loop_
_atom_site_label
_atom_site_type_symbol
_atom_site_fract_x
_atom_site_fract_y
_atom_site_fract_z
_atom_site_charge
Mof_C 	C 	0.56737	0.91159	0.8776	0.398
Mof_O 	O 	0.51884	0.93015	0.8187	-0.361
Mof_N 	N 	0.64082	0.83977	0.7762	-0.058
Mof_C 	C 	0.5872	0.86471	0.6894	-0.251
Mof_H 	H 	0.5591	0.8359	0.6817	0.121
Mof_H 	H 	0.5916	0.8798	0.5144	0.148
Mof_N 	N 	0.69011	0.85436	0.6656	-0.028
Mof_O 	O 	0.59718	0.92796	0.0571	-0.285
Mof_N 	N 	0.72908	0.82883	0.794	-0.038
Mof_N 	N 	0.70637	0.79748	0.9935	-0.167
Mof_C 	C 	0.65123	0.80552	0.976	0.158
Mof_H 	H 	0.6246	0.7898	0.0854	-0.027
Mof_C 	C 	0.06737	0.41159	0.3776	0.355
Mof_O 	O 	0.01884	0.43015	0.3187	-0.402
Mof_N 	N 	0.14082	0.33977	0.2762	-0.055
Mof_C 	C 	0.0872	0.36471	0.1894	-0.24
Mof_H 	H 	0.0591	0.3359	0.1817	0.104
Mof_H 	H 	0.0916	0.3798	0.0144	0.133
Mof_N 	N 	0.19011	0.35436	0.1656	-0.036
Mof_O 	O 	0.09718	0.42796	0.5571	-0.266
Mof_N 	N 	0.22908	0.32883	0.294	-0.046
Mof_N 	N 	0.20637	0.29748	0.4935	-0.168
Mof_C 	C 	0.15123	0.30552	0.476	0.102
Mof_H 	H 	0.1246	0.2898	0.5854	0.009
Mof_C 	C 	0.93263	0.08841	0.3776	0.356
Mof_O 	O 	0.98116	0.06985	0.3187	-0.363
Mof_N 	N 	0.85918	0.16023	0.2762	-0.053
Mof_C 	C 	0.9128	0.13529	0.1894	-0.247
Mof_H 	H 	0.9409	0.1641	0.1817	0.124
Mof_H 	H 	0.9084	0.1202	0.0144	0.139
Mof_N 	N 	0.80989	0.14564	0.1656	-0.039
Mof_O 	O 	0.90282	0.07204	0.5571	-0.269
Mof_N 	N 	0.77092	0.17117	0.294	-0.048
Mof_N 	N 	0.79363	0.20252	0.4935	-0.168
Mof_C 	C 	0.84877	0.19448	0.476	0.101
Mof_H 	H 	0.8754	0.2102	0.5854	0.016
Mof_C 	C 	0.43263	0.58841	0.8776	0.397
Mof_O 	O 	0.48116	0.56985	0.8187	-0.377
Mof_N 	N 	0.35918	0.66023	0.7762	-0.058
Mof_C 	C 	0.4128	0.63529	0.6894	-0.253
Mof_H 	H 	0.4409	0.6641	0.6817	0.122
Mof_H 	H 	0.4084	0.6202	0.5144	0.145
Mof_N 	N 	0.30989	0.64564	0.6656	-0.031
Mof_O 	O 	0.40282	0.57204	0.0571	-0.3
Mof_N 	N 	0.27092	0.67117	0.794	-0.04
Mof_N 	N 	0.29363	0.70252	0.9935	-0.167
Mof_C 	C 	0.34877	0.69448	0.976	0.157
Mof_H 	H 	0.3754	0.7102	0.0854	-0.027
Mof_C 	C 	0.83841	0.81737	0.1276	0.334
Mof_O 	O 	0.81985	0.76884	0.0687	-0.385
Mof_N 	N 	0.91023	0.89082	0.0262	-0.069
Mof_C 	C 	0.88529	0.8372	0.9394	-0.201
Mof_H 	H 	0.9141	0.8091	0.9317	0.117
Mof_H 	H 	0.8702	0.8416	0.7644	0.137
Mof_N 	N 	0.89564	0.94011	0.9156	-0.006
Mof_O 	O 	0.82204	0.84718	0.3071	-0.259
Mof_N 	N 	0.92117	0.97908	0.044	-0.035
Mof_N 	N 	0.95252	0.95637	0.2435	-0.146
Mof_C 	C 	0.94448	0.90123	0.226	0.109
Mof_H 	H 	0.9602	0.8746	0.3354	0.019
Mof_C 	C 	0.33841	0.31737	0.6276	0.356
Mof_O 	O 	0.31985	0.26884	0.5687	-0.377
Mof_N 	N 	0.41023	0.39082	0.5262	-0.054
Mof_C 	C 	0.38529	0.3372	0.4394	-0.24
Mof_H 	H 	0.4141	0.3091	0.4317	0.114
Mof_H 	H 	0.3702	0.3416	0.2644	0.136
Mof_N 	N 	0.39564	0.44011	0.4156	-0.033
Mof_O 	O 	0.32204	0.34718	0.8071	-0.257
Mof_N 	N 	0.42117	0.47908	0.544	-0.043
Mof_N 	N 	0.45252	0.45637	0.7435	-0.161
Mof_C 	C 	0.44448	0.40123	0.726	0.104
Mof_H 	H 	0.4602	0.3746	0.8354	0.018
Mof_C 	C 	0.66159	0.18263	0.6276	0.356
Mof_O 	O 	0.68015	0.23116	0.5687	-0.378
Mof_N 	N 	0.58977	0.10918	0.5262	-0.054
Mof_C 	C 	0.61471	0.1628	0.4394	-0.242
Mof_H 	H 	0.5859	0.1909	0.4317	0.114
Mof_H 	H 	0.6298	0.1584	0.2644	0.136
Mof_N 	N 	0.60436	0.05989	0.4156	-0.039
Mof_O 	O 	0.67796	0.15282	0.8071	-0.261
Mof_N 	N 	0.57883	0.02092	0.544	-0.056
Mof_N 	N 	0.54748	0.04363	0.7435	-0.167
Mof_C 	C 	0.55552	0.09877	0.726	0.103
Mof_H 	H 	0.5398	0.1254	0.8354	0.018
Mof_C 	C 	0.16159	0.68263	0.1276	0.331
Mof_O 	O 	0.18015	0.73116	0.0687	-0.386
Mof_N 	N 	0.08977	0.60918	0.0262	-0.075
Mof_C 	C 	0.11471	0.6628	0.9394	-0.199
Mof_H 	H 	0.0859	0.6909	0.9317	0.103
Mof_H 	H 	0.1298	0.6584	0.7644	0.132
Mof_N 	N 	0.10436	0.55989	0.9156	-0.018
Mof_O 	O 	0.17796	0.65282	0.3071	-0.264
Mof_N 	N 	0.07883	0.52092	0.044	-0.058
Mof_N 	N 	0.04748	0.54363	0.2435	-0.177
Mof_C 	C 	0.05552	0.59877	0.226	0.095
Mof_H 	H 	0.0398	0.6254	0.3354	-0.003
Mof_C 	C 	0.43263	0.08841	0.1224	0.32
Mof_O 	O 	0.48116	0.06985	0.1813	-0.386
Mof_N 	N 	0.35918	0.16023	0.2238	-0.048
Mof_C 	C 	0.4128	0.13529	0.3106	-0.241
Mof_H 	H 	0.4409	0.1641	0.3183	0.114
Mof_H 	H 	0.4084	0.1202	0.4856	0.142
Mof_N 	N 	0.30989	0.14564	0.3344	-0.034
Mof_O 	O 	0.40282	0.07204	0.9429	-0.247
Mof_N 	N 	0.27092	0.17117	0.206	-0.048
Mof_N 	N 	0.29363	0.20252	0.0065	-0.169
Mof_C 	C 	0.34877	0.19448	0.024	0.052
Mof_H 	H 	0.3754	0.2102	0.9146	0.044
Mof_C 	C 	0.93263	0.58841	0.6224	0.361
Mof_O 	O 	0.98116	0.56985	0.6813	-0.351
Mof_N 	N 	0.85918	0.66023	0.7238	-0.05
Mof_C 	C 	0.9128	0.63529	0.8106	-0.253
Mof_H 	H 	0.9409	0.6641	0.8183	0.132
Mof_H 	H 	0.9084	0.6202	0.9856	0.157
Mof_N 	N 	0.80989	0.64564	0.8344	-0.026
Mof_O 	O 	0.90282	0.57204	0.4429	-0.267
Mof_N 	N 	0.77092	0.67117	0.706	-0.04
Mof_N 	N 	0.79363	0.70252	0.5065	-0.169
Mof_C 	C 	0.84877	0.69448	0.524	0.102
Mof_H 	H 	0.8754	0.7102	0.4146	0.011
Mof_C 	C 	0.06737	0.91159	0.6224	0.359
Mof_O 	O 	0.01884	0.93015	0.6813	-0.381
Mof_N 	N 	0.14082	0.83977	0.7238	-0.052
Mof_C 	C 	0.0872	0.86471	0.8106	-0.246
Mof_H 	H 	0.0591	0.8359	0.8183	0.111
Mof_H 	H 	0.0916	0.8798	0.9856	0.151
Mof_N 	N 	0.19011	0.85436	0.8344	-0.022
Mof_O 	O 	0.09718	0.92796	0.4429	-0.261
Mof_N 	N 	0.22908	0.82883	0.706	-0.038
Mof_N 	N 	0.20637	0.79748	0.5065	-0.169
Mof_C 	C 	0.15123	0.80552	0.524	0.103
Mof_H 	H 	0.1246	0.7898	0.4146	0.004
Mof_C 	C 	0.56737	0.41159	0.1224	0.322
Mof_O 	O 	0.51884	0.43015	0.1813	-0.378
Mof_N 	N 	0.64082	0.33977	0.2238	-0.048
Mof_C 	C 	0.5872	0.36471	0.3106	-0.239
Mof_H 	H 	0.5591	0.3359	0.3183	0.113
Mof_H 	H 	0.5916	0.3798	0.4856	0.144
Mof_N 	N 	0.69011	0.35436	0.3344	-0.031
Mof_O 	O 	0.59718	0.42796	0.9429	-0.234
Mof_N 	N 	0.72908	0.32883	0.206	-0.046
Mof_N 	N 	0.70637	0.29748	0.0065	-0.169
Mof_C 	C 	0.65123	0.30552	0.024	0.053
Mof_H 	H 	0.6246	0.2898	0.9146	0.044
Mof_C 	C 	0.16159	0.18263	0.8724	0.379
Mof_O 	O 	0.18015	0.23116	0.9313	-0.377
Mof_N 	N 	0.08977	0.10918	0.9738	-0.039
Mof_C 	C 	0.11471	0.1628	0.0606	-0.285
Mof_H 	H 	0.0859	0.1909	0.0683	0.117
Mof_H 	H 	0.1298	0.1584	0.2356	0.15
Mof_N 	N 	0.10436	0.05989	0.0844	-0.054
Mof_O 	O 	0.17796	0.15282	0.6929	-0.275
Mof_N 	N 	0.07883	0.02092	0.956	-0.05
Mof_N 	N 	0.04748	0.04363	0.7565	-0.18
Mof_C 	C 	0.05552	0.09877	0.774	0.094
Mof_H 	H 	0.0398	0.1254	0.6646	0.002
Mof_C 	C 	0.66159	0.68263	0.3724	0.362
Mof_O 	O 	0.68015	0.73116	0.4313	-0.384
Mof_N 	N 	0.58977	0.60918	0.4738	-0.051
Mof_C 	C 	0.61471	0.6628	0.5606	-0.253
Mof_H 	H 	0.5859	0.6909	0.5683	0.121
Mof_H 	H 	0.6298	0.6584	0.7356	0.154
Mof_N 	N 	0.60436	0.55989	0.5844	-0.028
Mof_O 	O 	0.67796	0.65282	0.1929	-0.279
Mof_N 	N 	0.57883	0.52092	0.456	-0.043
Mof_N 	N 	0.54748	0.54363	0.2565	-0.172
Mof_C 	C 	0.55552	0.59877	0.274	0.1
Mof_H 	H 	0.5398	0.6254	0.1646	0.003
Mof_C 	C 	0.33841	0.81737	0.3724	0.362
Mof_O 	O 	0.31985	0.76884	0.4313	-0.383
Mof_N 	N 	0.41023	0.89082	0.4738	-0.051
Mof_C 	C 	0.38529	0.8372	0.5606	-0.252
Mof_H 	H 	0.4141	0.8091	0.5683	0.121
Mof_H 	H 	0.3702	0.8416	0.7356	0.155
Mof_N 	N 	0.39564	0.94011	0.5844	-0.021
Mof_O 	O 	0.32204	0.84718	0.1929	-0.275
Mof_N 	N 	0.42117	0.97908	0.456	-0.028
Mof_N 	N 	0.45252	0.95637	0.2565	-0.16
Mof_C 	C 	0.44448	0.90123	0.274	0.101
Mof_H 	H 	0.4602	0.8746	0.1646	0.003
Mof_C 	C 	0.83841	0.31737	0.8724	0.382
Mof_O 	O 	0.81985	0.26884	0.9313	-0.376
Mof_N 	N 	0.91023	0.39082	0.9738	-0.033
Mof_C 	C 	0.88529	0.3372	0.0606	-0.287
Mof_H 	H 	0.9141	0.3091	0.0683	0.131
Mof_H 	H 	0.8702	0.3416	0.2356	0.156
Mof_N 	N 	0.89564	0.44011	0.0844	-0.042
Mof_O 	O 	0.82204	0.34718	0.6929	-0.271
Mof_N 	N 	0.92117	0.47908	0.956	-0.029
Mof_N 	N 	0.95252	0.45637	0.7565	-0.154
Mof_C 	C 	0.94448	0.40123	0.774	0.109
Mof_H 	H 	0.9602	0.3746	0.6646	0.023
Mof_Cu	Cu	0.5	0	-0	0.881
Mof_Cu	Cu	-1.73694e-33	0.5	0.5	0.895
Mof_Cu	Cu	-6.69811e-34	-1.06712e-33	0.5	0.875
Mof_Cu	Cu	0.5	0.5	-0	0.901
Mof_Cu	Cu	0.75	0.75	0.25	0.909
Mof_Cu	Cu	0.75	0.25	0.75	0.918
Mof_Cu	Cu	0.25	0.25	0.75	0.917
Mof_Cu	Cu	0.25	0.75	0.25	0.909
_end
