data_functionalizedCrystal
_audit_creation_method	'EQeq! by Chris Wilmer'
_symmetry_space_group_name_H-M	'P1'
_symmetry_Int_Tables_number	1
_symmetry_cell_setting	triclinic
loop_
_symmetry_equiv_pos_as_xyz
  x,y,z
_cell_length_a	7.8927
_cell_length_b	10.326
_cell_length_c	12.799
_cell_angle_alpha	111.008
_cell_angle_beta	95.351
_cell_angle_gamma	106.177
loop_
_atom_site_label
_atom_site_type_symbol
_atom_site_fract_x
_atom_site_fract_y
_atom_site_fract_z
_atom_site_charge
Mof_Cd	Cd	0.31759	0.57797	0.44917	0.477
Mof_Cd	Cd	0.61205	0.71078	0.02624	0.411
Mof_O 	O 	0.5027	0.55529	0.1194	-0.313
Mof_O 	O 	0.1732	0.34055	0.38065	-0.271
Mof_O 	O 	0.0533	0.62237	0.36684	-0.238
Mof_O 	O 	0.2958	0.808	0.47757	-0.277
Mof_O 	O 	0.6957	0.96711	0.06776	-0.27
Mof_N 	N 	0.6394	0.86634	0.23734	-0.047
Mof_O 	O 	0.3856	0.5316	0.2657	-0.286
Mof_C 	C 	0.8259	0.9151	0.29495	0.088
Mof_C 	C 	0.122	0.1033	0.37836	-0.028
Mof_C 	C 	0.9426	0.0586	0.32332	-0.084
Mof_H 	H 	0.8994	0.1246	0.305	0.09
Mof_C 	C 	0.2399	0.2606	0.41225	0.316
Mof_C 	C 	0.8941	0.8179	0.32306	-0.091
Mof_H 	H 	0.819	0.7219	0.3039	0.088
Mof_C 	C 	0.1446	0.7591	0.4113	0.266
Mof_O 	O 	0.3931	0.3021	0.4722	-0.299
Mof_O 	O 	0.6542	0.17707	0.16879	-0.241
Mof_C 	C 	0.0736	0.8633	0.37953	-0.023
Mof_C 	C 	0.1889	0.0062	0.40706	-0.036
Mof_H 	H 	0.3089	0.0362	0.4441	0.065
Mof_C 	C 	0.5156	0.7724	0.28118	-0.391
Mof_C 	C 	0.5755	0.9863	0.23448	-0.291
Mof_H 	H 	0.6118	0.065	0.3105	0.145
Mof_H 	H 	0.4446	0.9499	0.2135	0.133
Mof_C 	C 	0.4676	0.6078	0.21666	0.394
Mof_C 	C 	0.6491	0.0477	0.15041	0.359
Mof_H 	H 	0.557	0.795	0.356	0.19
Mof_H 	H 	0.398	0.78	0.271	0.163
Mof_Cd	Cd	0.68241	0.42203	0.55083	0.478
Mof_Cd	Cd	0.38795	0.28922	0.97376	0.412
Mof_O 	O 	0.4973	0.44471	0.8806	-0.313
Mof_O 	O 	0.8268	0.65945	0.61935	-0.271
Mof_O 	O 	0.9467	0.37763	0.63316	-0.238
Mof_O 	O 	0.7042	0.192	0.52243	-0.277
Mof_O 	O 	0.3043	0.03289	0.93224	-0.27
Mof_N 	N 	0.3606	0.13366	0.76266	-0.047
Mof_O 	O 	0.6144	0.4684	0.7343	-0.286
Mof_C 	C 	0.1741	0.0849	0.70505	0.088
Mof_C 	C 	0.878	0.8967	0.62164	-0.028
Mof_C 	C 	0.0574	0.9414	0.67668	-0.084
Mof_H 	H 	0.1006	0.8754	0.695	0.09
Mof_C 	C 	0.7601	0.7394	0.58775	0.316
Mof_C 	C 	0.1059	0.1821	0.67694	-0.091
Mof_H 	H 	0.181	0.2781	0.6961	0.088
Mof_C 	C 	0.8554	0.2409	0.5887	0.266
Mof_O 	O 	0.6069	0.6979	0.5278	-0.299
Mof_O 	O 	0.3458	0.82293	0.83121	-0.241
Mof_C 	C 	0.9264	0.1367	0.62047	-0.023
Mof_C 	C 	0.8111	0.9938	0.59294	-0.036
Mof_H 	H 	0.6911	0.9638	0.5559	0.065
Mof_C 	C 	0.4844	0.2276	0.71882	-0.391
Mof_C 	C 	0.4245	0.0137	0.76552	-0.291
Mof_H 	H 	0.3882	0.935	0.6895	0.145
Mof_H 	H 	0.5554	0.0501	0.7865	0.133
Mof_C 	C 	0.5324	0.3922	0.78334	0.394
Mof_C 	C 	0.3509	0.9523	0.84959	0.359
Mof_H 	H 	0.443	0.205	0.644	0.19
Mof_H 	H 	0.602	0.22	0.729	0.163
_end
