data_functionalizedCrystal
_audit_creation_method	'EQeq! by Chris Wilmer'
_symmetry_space_group_name_H-M	'P1'
_symmetry_Int_Tables_number	1
_symmetry_cell_setting	triclinic
loop_
_symmetry_equiv_pos_as_xyz
  x,y,z
_cell_length_a	10.192
_cell_length_b	11.611
_cell_length_c	16.848
_cell_angle_alpha	110.04
_cell_angle_beta	97.66
_cell_angle_gamma	92.04
loop_
_atom_site_label
_atom_site_type_symbol
_atom_site_fract_x
_atom_site_fract_y
_atom_site_fract_z
_atom_site_charge
Mof_Cd	Cd	0.4779	0.5275	0.86884	0.404
Mof_Cd	Cd	0.55435	0.96901	0.2542	0.402
Mof_Cd	Cd	0.4479	0.43226	0.58961	0.469
Mof_C 	C 	0.81	0.4483	0.7205	-0.073
Mof_C 	C 	0.835	0.3607	0.645	-0.004
Mof_H 	H 	0.7634	0.3053	0.6117	0.035
Mof_C 	C 	0.951	0.3485	0.6155	-0.046
Mof_H 	H 	0.9605	0.2856	0.5651	0.054
Mof_C 	C 	0.066	0.4395	0.6666	-0.044
Mof_C 	C 	0.046	0.5311	0.7402	-0.032
Mof_H 	H 	0.1153	0.5902	0.7722	0.061
Mof_C 	C 	0.924	0.535	0.7662	-0.01
Mof_H 	H 	0.9137	0.5974	0.8166	0.048
Mof_C 	C 	0.68	0.455	0.7509	0.302
Mof_C 	C 	0.197	0.428	0.6414	0.272
Mof_C 	C 	0.113	0.3356	0.8639	-0.016
Mof_C 	C 	0.049	0.353	0.935	-0.061
Mof_H 	H 	0.0822	0.4145	0.9867	0.067
Mof_C 	C 	0.939	0.2803	0.9288	0.016
Mof_H 	H 	0.903	0.2913	0.9785	0.044
Mof_C 	C 	0.877	0.1928	0.8562	-0.086
Mof_C 	C 	0.946	0.1807	0.7808	0.009
Mof_H 	H 	0.9072	0.1258	0.7275	0.037
Mof_C 	C 	0.061	0.2448	0.7861	-0.057
Mof_H 	H 	0.1051	0.2289	0.739	0.073
Mof_C 	C 	0.245	0.4124	0.8661	0.289
Mof_C 	C 	0.758	0.124	0.8481	0.283
Mof_C 	C 	0.9805	0.1561	0.295	-0.015
Mof_C 	C 	0.0869	0.1444	0.2499	-0.058
Mof_H 	H 	0.0811	0.0839	0.1961	0.073
Mof_C 	C 	0.2021	0.2232	0.2852	0.005
Mof_H 	H 	0.2733	0.2154	0.255	0.045
Mof_C 	C 	0.2108	0.3137	0.3656	-0.08
Mof_C 	C 	0.1043	0.3254	0.4107	0.002
Mof_H 	H 	0.1102	0.3859	0.4645	0.048
Mof_C 	C 	0.9892	0.2466	0.3754	-0.05
Mof_H 	H 	0.918	0.2544	0.4056	0.055
Mof_C 	C 	0.833	0.0783	0.2535	0.332
Mof_C 	C 	0.33	0.4069	0.4007	0.344
Mof_C 	C 	0.652	0.7783	0.9975	0.259
Mof_C 	C 	0.51	0.7193	0.0703	0.227
Mof_C 	C 	0.549	0.2011	0.4363	0.22
Mof_C 	C 	0.398	0.0534	0.4259	0.25
Mof_O 	O 	0.678	0.532	0.8252	-0.297
Mof_O 	O 	0.579	0.3854	0.7058	-0.278
Mof_O 	O 	0.281	0.5247	0.6601	-0.253
Mof_O 	O 	0.227	0.3239	0.5956	-0.252
Mof_O 	O 	0.283	0.5019	0.9326	-0.289
Mof_O 	O 	0.301	0.3867	0.8017	-0.274
Mof_O 	O 	0.6588	0.1132	0.7797	-0.265
Mof_O 	O 	0.744	0.0775	0.9014	-0.246
Mof_O 	O 	0.771	0.0616	0.2991	-0.339
Mof_O 	O 	0.836	0.043	0.1702	-0.261
Mof_O 	O 	0.414	0.3953	0.3532	-0.297
Mof_O 	O 	0.3418	0.4815	0.473	-0.317
Mof_N 	N 	0.583	0.8229	0.1228	-0.124
Mof_N 	N 	0.666	0.8564	0.0736	-0.222
Mof_H 	H 	0.72	0.9219	0.0922	0.171
Mof_N 	N 	0.559	0.6861	0.9895	-0.196
Mof_N 	N 	0.718	0.7834	0.9349	-0.355
Mof_H 	H 	0.7769	0.8437	0.9443	0.18
Mof_H 	H 	0.7025	0.7263	0.8853	0.186
Mof_N 	N 	0.429	0.6481	0.0896	-0.36
Mof_H 	H 	0.417	0.6649	0.1418	0.178
Mof_H 	H 	0.3871	0.584	0.0502	0.184
Mof_N 	N 	0.478	0.2457	0.503	-0.128
Mof_N 	N 	0.388	0.1464	0.4911	-0.217
Mof_H 	H 	0.3312	0.1478	0.5248	0.15
Mof_N 	N 	0.5	0.0818	0.3855	-0.193
Mof_N 	N 	0.651	0.2605	0.423	-0.352
Mof_H 	H 	0.6792	0.3335	0.4576	0.191
Mof_H 	H 	0.6903	0.2262	0.3796	0.186
Mof_N 	N 	0.328	0.9464	0.403	-0.354
Mof_H 	H 	0.2705	0.9355	0.4333	0.166
Mof_H 	H 	0.3402	0.8873	0.3578	0.183
Mof_Cd	Cd	0.5221	0.4725	0.13116	0.405
Mof_Cd	Cd	0.44565	0.03099	0.7458	0.403
Mof_Cd	Cd	0.5521	0.56774	0.41039	0.469
Mof_C 	C 	0.19	0.5517	0.2795	-0.073
Mof_C 	C 	0.165	0.6393	0.355	-0.004
Mof_H 	H 	0.2366	0.6947	0.3883	0.035
Mof_C 	C 	0.049	0.6515	0.3845	-0.046
Mof_H 	H 	0.0395	0.7144	0.4349	0.054
Mof_C 	C 	0.934	0.5605	0.3334	-0.044
Mof_C 	C 	0.954	0.4689	0.2598	-0.032
Mof_H 	H 	0.8847	0.4098	0.2278	0.061
Mof_C 	C 	0.076	0.465	0.2338	-0.01
Mof_H 	H 	0.0863	0.4026	0.1834	0.048
Mof_C 	C 	0.32	0.545	0.2491	0.302
Mof_C 	C 	0.803	0.572	0.3586	0.272
Mof_C 	C 	0.887	0.6644	0.1361	-0.016
Mof_C 	C 	0.951	0.647	0.065	-0.061
Mof_H 	H 	0.9178	0.5855	0.0133	0.067
Mof_C 	C 	0.061	0.7197	0.0712	0.016
Mof_H 	H 	0.097	0.7087	0.0215	0.044
Mof_C 	C 	0.123	0.8072	0.1438	-0.086
Mof_C 	C 	0.054	0.8193	0.2192	0.009
Mof_H 	H 	0.0928	0.8742	0.2725	0.037
Mof_C 	C 	0.939	0.7552	0.2139	-0.057
Mof_H 	H 	0.8949	0.7711	0.261	0.073
Mof_C 	C 	0.755	0.5876	0.1339	0.289
Mof_C 	C 	0.242	0.876	0.1519	0.283
Mof_C 	C 	0.0195	0.8439	0.705	-0.015
Mof_C 	C 	0.9131	0.8556	0.7501	-0.058
Mof_H 	H 	0.9189	0.9161	0.8039	0.073
Mof_C 	C 	0.7979	0.7768	0.7148	0.005
Mof_H 	H 	0.7267	0.7846	0.745	0.045
Mof_C 	C 	0.7892	0.6863	0.6344	-0.08
Mof_C 	C 	0.8957	0.6746	0.5893	0.002
Mof_H 	H 	0.8898	0.6141	0.5355	0.048
Mof_C 	C 	0.0108	0.7534	0.6246	-0.05
Mof_H 	H 	0.082	0.7456	0.5944	0.055
Mof_C 	C 	0.167	0.9217	0.7465	0.332
Mof_C 	C 	0.67	0.5931	0.5993	0.344
Mof_C 	C 	0.348	0.2217	0.0025	0.259
Mof_C 	C 	0.49	0.2807	0.9297	0.227
Mof_C 	C 	0.451	0.7989	0.5637	0.22
Mof_C 	C 	0.602	0.9466	0.5741	0.25
Mof_O 	O 	0.322	0.468	0.1748	-0.297
Mof_O 	O 	0.421	0.6146	0.2942	-0.278
Mof_O 	O 	0.719	0.4753	0.3399	-0.253
Mof_O 	O 	0.773	0.6761	0.4044	-0.252
Mof_O 	O 	0.717	0.4981	0.0674	-0.289
Mof_O 	O 	0.699	0.6133	0.1983	-0.274
Mof_O 	O 	0.3412	0.8868	0.2203	-0.265
Mof_O 	O 	0.256	0.9225	0.0986	-0.246
Mof_O 	O 	0.229	0.9384	0.7009	-0.339
Mof_O 	O 	0.164	0.957	0.8298	-0.261
Mof_O 	O 	0.586	0.6047	0.6468	-0.297
Mof_O 	O 	0.6582	0.5185	0.527	-0.317
Mof_N 	N 	0.417	0.1771	0.8772	-0.124
Mof_N 	N 	0.334	0.1436	0.9264	-0.222
Mof_H 	H 	0.28	0.0781	0.9078	0.171
Mof_N 	N 	0.441	0.3139	0.0105	-0.196
Mof_N 	N 	0.282	0.2166	0.0651	-0.355
Mof_H 	H 	0.2231	0.1563	0.0557	0.18
Mof_H 	H 	0.2975	0.2737	0.1147	0.186
Mof_N 	N 	0.571	0.3519	0.9104	-0.36
Mof_H 	H 	0.583	0.3351	0.8582	0.178
Mof_H 	H 	0.6129	0.416	0.9498	0.184
Mof_N 	N 	0.522	0.7543	0.497	-0.128
Mof_N 	N 	0.612	0.8536	0.5089	-0.217
Mof_H 	H 	0.6688	0.8522	0.4752	0.15
Mof_N 	N 	0.5	0.9182	0.6145	-0.193
Mof_N 	N 	0.349	0.7395	0.577	-0.352
Mof_H 	H 	0.3208	0.6665	0.5424	0.191
Mof_H 	H 	0.3097	0.7738	0.6204	0.186
Mof_N 	N 	0.672	0.0536	0.597	-0.354
Mof_H 	H 	0.7295	0.0645	0.5667	0.166
Mof_H 	H 	0.6598	0.1127	0.6422	0.183
_end
