data_functionalizedCrystal
_audit_creation_method	'EQeq! by Chris Wilmer'
_symmetry_space_group_name_H-M	'P1'
_symmetry_Int_Tables_number	1
_symmetry_cell_setting	triclinic
loop_
_symmetry_equiv_pos_as_xyz
  x,y,z
_cell_length_a	8.5552
_cell_length_b	10.1133
_cell_length_c	16.7025
_cell_angle_alpha	90
_cell_angle_beta	94.94
_cell_angle_gamma	90
loop_
_atom_site_label
_atom_site_type_symbol
_atom_site_fract_x
_atom_site_fract_y
_atom_site_fract_z
_atom_site_charge
Mof_P 	P 	0.65562	0.2677	0.17795	1.378
Mof_P 	P 	0.4739	0.78816	0.08375	1.274
Mof_P 	P 	0.62484	0.26808	0.49267	1.406
Mof_P 	P 	0.84313	0.55025	0.32252	1.425
Mof_P 	P 	0.0253	0.03079	0.41588	0.983
Mof_P 	P 	0.87519	0.54958	0.00899	1.512
Mof_Al	Al	0.8332	0.25785	0.34987	6.167
Mof_Al	Al	0.9806	0.2317	0.5484	6.021
Mof_Al	Al	0.6644	0.5581	0.15113	6.188
Mof_Al	Al	0.4791	0.087	0.04863	5.531
Mof_Al	Al	0.3248	0.0767	0.51886	5.236
Mof_Al	Al	0.82413	0.24115	0.01952	6.019
Mof_F 	F 	0.5495	0.5039	0.052	-2.047
Mof_F 	F 	0.1975	0.2301	0.5301	-1.788
Mof_F 	F 	0.9503	0.3168	0.44742	-1.997
Mof_F 	F 	0.6935	0.0876	0.0307	-1.943
Mof_O 	O 	0.6699	0.2315	0.4073	-1.721
Mof_O 	O 	0.7875	0.2791	0.1207	-1.791
Mof_O 	O 	0.8308	0.5827	0.0938	-1.673
Mof_O 	O 	0.717	0.2019	0.2579	-1.527
Mof_O 	O 	0.2936	0.7726	0.0713	-1.547
Mof_O 	O 	0.2047	0.0478	0.4259	-1.528
Mof_O 	O 	0.9299	0.4041	0.0072	-1.424
Mof_O 	O 	0.7595	0.2414	0.5563	-1.45
Mof_O 	O 	0.5355	0.7013	0.1556	-1.459
Mof_O 	O 	0.7383	0.5749	0.9438	-1.491
Mof_O 	O 	0.517	0.1849	0.1423	-1.411
Mof_O 	O 	0.5155	0.9306	0.105	-0.993
Mof_O 	O 	0.5675	0.413	0.4921	-1.442
Mof_O 	O 	0.5493	0.7476	0.0076	-1.492
Mof_O 	O 	0.9017	0.4077	0.3063	-1.623
Mof_O 	O 	0.9815	0.636	0.3571	-1.444
Mof_O 	O 	0.9625	0.12	0.3445	-1.609
Mof_O 	O 	0.5986	0.4086	0.1938	-1.658
Mof_O 	O 	0.772	0.6127	0.24498	-1.475
Mof_O 	O 	0.4892	0.1742	0.5095	-1.534
Mof_O 	O 	0.0108	0.6366	0.9894	-1.592
Mof_O 	O 	0.9832	0.8874	0.3935	-1.082
Mof_O 	O 	0.9524	0.0731	0.492	-1.65
Mof_O 	O 	0.7142	0.535	0.3814	-1.84
Mof_P 	P 	0.34438	0.7677	0.82205	1.375
Mof_P 	P 	0.5261	0.28816	0.91625	1.236
Mof_P 	P 	0.37516	0.76808	0.50733	1.457
Mof_P 	P 	0.15687	0.05025	0.67748	1.047
Mof_P 	P 	0.9747	0.53079	0.58412	1.255
Mof_P 	P 	0.12481	0.04958	0.99101	1.135
Mof_Al	Al	0.1668	0.75785	0.65013	6.327
Mof_Al	Al	0.0194	0.7317	0.4516	6.22
Mof_Al	Al	0.3356	0.0581	0.84887	4.873
Mof_Al	Al	0.5209	0.587	0.95137	6.338
Mof_Al	Al	0.6752	0.5767	0.48114	6.311
Mof_Al	Al	0.17587	0.74115	0.98048	6.11
Mof_F 	F 	0.4505	0.0039	0.948	-1.966
Mof_F 	F 	0.8025	0.7301	0.4699	-1.909
Mof_F 	F 	0.0497	0.8168	0.55258	-1.932
Mof_F 	F 	0.3065	0.5876	0.9693	-1.951
Mof_O 	O 	0.3301	0.7315	0.5927	-1.668
Mof_O 	O 	0.2125	0.7791	0.8793	-1.684
Mof_O 	O 	0.1692	0.0827	0.9062	-1.473
Mof_O 	O 	0.283	0.7019	0.7421	-1.461
Mof_O 	O 	0.7064	0.2726	0.9287	-1.648
Mof_O 	O 	0.7953	0.5478	0.5741	-1.616
Mof_O 	O 	0.0701	0.9041	0.9928	-1.138
Mof_O 	O 	0.2405	0.7414	0.4437	-1.38
Mof_O 	O 	0.4645	0.2013	0.8444	-1.291
Mof_O 	O 	0.2617	0.0749	0.0562	-1.42
Mof_O 	O 	0.483	0.6849	0.8577	-1.441
Mof_O 	O 	0.4845	0.4306	0.895	-1.402
Mof_O 	O 	0.4325	0.913	0.5079	-1.036
Mof_O 	O 	0.4507	0.2476	0.9924	-1.431
Mof_O 	O 	0.0983	0.9077	0.6937	-1.333
Mof_O 	O 	0.0185	0.136	0.6429	-1.425
Mof_O 	O 	0.0375	0.62	0.6555	-1.561
Mof_O 	O 	0.4014	0.9086	0.8062	-1.162
Mof_O 	O 	0.228	0.1127	0.75502	-1.303
Mof_O 	O 	0.5108	0.6742	0.4905	-1.665
Mof_O 	O 	0.9892	0.1366	0.0106	-1.608
Mof_O 	O 	0.0168	0.3874	0.6065	-1.333
Mof_O 	O 	0.0476	0.5731	0.508	-1.604
Mof_O 	O 	0.2858	0.035	0.6186	-1.752
_end
