data_functionalizedCrystal
_audit_creation_method	'EQeq! by Chris Wilmer'
_symmetry_space_group_name_H-M	'P1'
_symmetry_Int_Tables_number	1
_symmetry_cell_setting	triclinic
loop_
_symmetry_equiv_pos_as_xyz
  x,y,z
_cell_length_a	13.6013
_cell_length_b	13.6013
_cell_length_c	8.1404
_cell_angle_alpha	90
_cell_angle_beta	90
_cell_angle_gamma	120
loop_
_atom_site_label
_atom_site_type_symbol
_atom_site_fract_x
_atom_site_fract_y
_atom_site_fract_z
_atom_site_charge
Mof_Mn	Mn	0.29616	0.33503	0.54316	0.786
Mof_O 	O 	0.2273	0.1809	0.4043	-0.338
Mof_C 	C 	0.5295	0.3208	0.5556	-0.27
Mof_C 	C 	0.3549	0.5564	0.7762	-0.252
Mof_O 	O 	0.245	0.0585	0.2464	-0.339
Mof_C 	C 	0.267	0.1589	0.2799	0.338
Mof_N 	N 	0.3459	0.2098	0.0027	-0.245
Mof_H 	H 	0.4103	0.2575	0.9491	0.079
Mof_H 	H 	0.2864	0.2011	0.9427	0.12
Mof_C 	C 	0.3446	0.2549	0.1651	-0.106
Mof_H 	H 	0.4216	0.2868	0.2093	0.048
Mof_N 	N 	0.3644	0.4265	0.3055	-0.293
Mof_H 	H 	0.3479	0.4827	0.2978	0.098
Mof_H 	H 	0.4405	0.4585	0.306	0.105
Mof_C 	C 	0.3189	0.3528	0.1595	-0.019
Mof_H 	H 	0.3523	0.3976	0.0612	0.032
Mof_H 	H 	0.2374	0.3219	0.1539	0.043
Mof_N 	N 	0.4485	0.3187	0.6043	-0.115
Mof_N 	N 	0.3667	0.4955	0.6911	-0.123
Mof_Mn	Mn	0.66497	0.96113	0.54316	0.786
Mof_O 	O 	0.8191	0.0464	0.4043	-0.339
Mof_C 	C 	0.6792	0.2087	0.5556	-0.27
Mof_C 	C 	0.4436	0.7985	0.7762	-0.252
Mof_O 	O 	0.9415	0.1865	0.2464	-0.339
Mof_C 	C 	0.8411	0.1081	0.2799	0.339
Mof_N 	N 	0.7902	0.1361	0.0027	-0.248
Mof_H 	H 	0.7425	0.1528	0.9491	0.081
Mof_H 	H 	0.7989	0.0853	0.9427	0.121
Mof_C 	C 	0.7451	0.0897	0.1651	-0.108
Mof_H 	H 	0.7132	0.1348	0.2093	0.048
Mof_N 	N 	0.5735	0.9379	0.3055	-0.293
Mof_H 	H 	0.5173	0.8652	0.2978	0.098
Mof_H 	H 	0.5415	0.982	0.306	0.105
Mof_C 	C 	0.6472	0.9661	0.1595	-0.017
Mof_H 	H 	0.6024	0.9547	0.0612	0.032
Mof_H 	H 	0.6781	0.9155	0.1539	0.043
Mof_N 	N 	0.6813	0.1298	0.6043	-0.115
Mof_N 	N 	0.5045	0.8712	0.6911	-0.124
Mof_Mn	Mn	0.03887	0.70384	0.54316	0.786
Mof_O 	O 	0.9536	0.7727	0.4043	-0.338
Mof_C 	C 	0.7913	0.4705	0.5556	-0.27
Mof_C 	C 	0.2015	0.6451	0.7762	-0.252
Mof_O 	O 	0.8135	0.755	0.2464	-0.338
Mof_C 	C 	0.8919	0.733	0.2799	0.339
Mof_N 	N 	0.8639	0.6541	0.0027	-0.246
Mof_H 	H 	0.8472	0.5897	0.9491	0.079
Mof_H 	H 	0.9147	0.7136	0.9427	0.12
Mof_C 	C 	0.9103	0.6554	0.1651	-0.107
Mof_H 	H 	0.8652	0.5784	0.2093	0.048
Mof_N 	N 	0.0621	0.6356	0.3055	-0.293
Mof_H 	H 	0.1348	0.6521	0.2978	0.098
Mof_H 	H 	0.018	0.5595	0.306	0.105
Mof_C 	C 	0.0339	0.6811	0.1595	-0.018
Mof_H 	H 	0.0453	0.6477	0.0612	0.032
Mof_H 	H 	0.0845	0.7626	0.1539	0.043
Mof_N 	N 	0.8702	0.5515	0.6043	-0.115
Mof_N 	N 	0.1288	0.6333	0.6911	-0.124
Mof_Mn	Mn	0.70384	0.66497	0.04316	0.811
Mof_O 	O 	0.7727	0.8191	0.9043	-0.351
Mof_C 	C 	0.4705	0.6792	0.0556	-0.24
Mof_C 	C 	0.6451	0.4436	0.2762	-0.257
Mof_O 	O 	0.755	0.9415	0.7464	-0.341
Mof_C 	C 	0.733	0.8411	0.7799	0.337
Mof_N 	N 	0.6541	0.7902	0.5027	-0.276
Mof_H 	H 	0.5897	0.7425	0.4491	0.101
Mof_H 	H 	0.7136	0.7989	0.4427	0.14
Mof_C 	C 	0.6554	0.7451	0.6651	-0.107
Mof_H 	H 	0.5784	0.7132	0.7093	0.044
Mof_N 	N 	0.6356	0.5735	0.8055	-0.297
Mof_H 	H 	0.6521	0.5173	0.7978	0.095
Mof_H 	H 	0.5595	0.5415	0.806	0.101
Mof_C 	C 	0.6811	0.6472	0.6595	-0.019
Mof_H 	H 	0.6477	0.6024	0.5612	0.025
Mof_H 	H 	0.7626	0.6781	0.6539	0.038
Mof_N 	N 	0.5515	0.6813	0.1043	-0.12
Mof_N 	N 	0.6333	0.5045	0.1911	-0.119
Mof_Mn	Mn	0.33503	0.03887	0.04316	0.81
Mof_O 	O 	0.1809	0.9536	0.9043	-0.352
Mof_C 	C 	0.3208	0.7913	0.0556	-0.239
Mof_C 	C 	0.5564	0.2015	0.2762	-0.257
Mof_O 	O 	0.0585	0.8135	0.7464	-0.342
Mof_C 	C 	0.1589	0.8919	0.7799	0.337
Mof_N 	N 	0.2098	0.8639	0.5027	-0.276
Mof_H 	H 	0.2575	0.8472	0.4491	0.101
Mof_H 	H 	0.2011	0.9147	0.4427	0.141
Mof_C 	C 	0.2549	0.9103	0.6651	-0.107
Mof_H 	H 	0.2868	0.8652	0.7093	0.044
Mof_N 	N 	0.4265	0.0621	0.8055	-0.297
Mof_H 	H 	0.4827	0.1348	0.7978	0.095
Mof_H 	H 	0.4585	0.018	0.806	0.101
Mof_C 	C 	0.3528	0.0339	0.6595	-0.018
Mof_H 	H 	0.3976	0.0453	0.5612	0.025
Mof_H 	H 	0.3219	0.0845	0.6539	0.038
Mof_N 	N 	0.3187	0.8702	0.1043	-0.119
Mof_N 	N 	0.4955	0.1288	0.1911	-0.119
Mof_Mn	Mn	0.96113	0.29616	0.04316	0.808
Mof_O 	O 	0.0464	0.2273	0.9043	-0.351
Mof_C 	C 	0.2087	0.5295	0.0556	-0.239
Mof_C 	C 	0.7985	0.3549	0.2762	-0.257
Mof_O 	O 	0.1865	0.245	0.7464	-0.341
Mof_C 	C 	0.1081	0.267	0.7799	0.337
Mof_N 	N 	0.1361	0.3459	0.5027	-0.277
Mof_H 	H 	0.1528	0.4103	0.4491	0.101
Mof_H 	H 	0.0853	0.2864	0.4427	0.141
Mof_C 	C 	0.0897	0.3446	0.6651	-0.107
Mof_H 	H 	0.1348	0.4216	0.7093	0.044
Mof_N 	N 	0.9379	0.3644	0.8055	-0.296
Mof_H 	H 	0.8652	0.3479	0.7978	0.095
Mof_H 	H 	0.982	0.4405	0.806	0.101
Mof_C 	C 	0.9661	0.3189	0.6595	-0.018
Mof_H 	H 	0.9547	0.3523	0.5612	0.025
Mof_H 	H 	0.9155	0.2374	0.6539	0.038
Mof_N 	N 	0.1298	0.4485	0.1043	-0.119
Mof_N 	N 	0.8712	0.3667	0.1911	-0.119
Mof_Cr	Cr	0.33333	0.66667	0.92642	1.287
Mof_Cr	Cr	0.66667	0.33333	0.42642	1.37
_end
