data_functionalizedCrystal
_audit_creation_method	'EQeq! by Chris Wilmer'
_symmetry_space_group_name_H-M	'P1'
_symmetry_Int_Tables_number	1
_symmetry_cell_setting	triclinic
loop_
_symmetry_equiv_pos_as_xyz
  x,y,z
_cell_length_a	23.985
_cell_length_b	15.449
_cell_length_c	7.34
_cell_angle_alpha	90
_cell_angle_beta	107.6
_cell_angle_gamma	90
loop_
_atom_site_label
_atom_site_type_symbol
_atom_site_fract_x
_atom_site_fract_y
_atom_site_fract_z
_atom_site_charge
Mof_N 	N 	0.2788	0.6177	0.026	-0.245
Mof_C 	C 	0.0619	0.7162	0.3162	0.028
Mof_N 	N 	0.1848	0.718	0.7415	-0.264
Mof_N 	N 	0.1896	0.7197	0.159	-0.269
Mof_C 	C 	0.1262	0.7175	0.3839	-0.129
Mof_C 	C 	0.0315	0.7161	0.1196	-0.011
Mof_H 	H 	0.0523	0.7162	0.0314	0.026
Mof_C 	C 	0.16	0.7183	0.2623	0.109
Mof_C 	C 	0.1577	0.7176	0.5814	0.121
Mof_C 	C 	0.0291	0.7158	0.4445	-0.044
Mof_H 	H 	0.0482	0.7153	0.5752	0.055
Mof_C 	C 	0.2594	0.4661	0.0185	-0.125
Mof_H 	H 	0.233	0.4216	0.0144	0.063
Mof_C 	C 	0.242	0.5517	0.0164	0.064
Mof_H 	H 	0.2033	0.5636	0.008	-0.014
Mof_O 	O 	0.4395	0.5708	0.9601	-0.171
Mof_N 	N 	0.4395	0.4301	0.0293	-0.23
Mof_H 	H 	0.4722	0.4225	0.0061	0.228
Mof_H 	H 	0.4224	0.387	0.0644	0.119
Mof_C 	C 	0.3166	0.4473	0.0267	0.075
Mof_H 	H 	0.3294	0.3903	0.032	-0.035
Mof_C 	C 	0.3545	0.5162	0.0269	-0.001
Mof_C 	C 	0.3341	0.5992	0.0337	-0.082
Mof_H 	H 	0.3601	0.6449	0.0443	0.034
Mof_C 	C 	0.4159	0.5063	0.0112	0.081
Mof_O 	O 	0.4411	0.5721	0.393	-0.354
Mof_C 	C 	0.3543	0.513	0.197	-0.105
Mof_N 	N 	0.4425	0.428	0.32	-0.242
Mof_H 	H 	0.4791	0.4214	0.378	0.136
Mof_H 	H 	0.4217	0.3854	0.2629	0.133
Mof_C 	C 	0.417	0.508	0.319	0.298
Mof_C 	C 	0.3336	0.601	0.156	0.113
Mof_H 	H 	0.357	0.6464	0.2169	-0.017
Mof_C 	C 	0.3179	0.449	0.117	-0.048
Mof_H 	H 	0.3316	0.3919	0.1267	0.042
Mof_N 	N 	0.7788	0.1177	0.026	-0.246
Mof_C 	C 	0.5619	0.2162	0.3162	0.02
Mof_N 	N 	0.6848	0.218	0.7415	-0.263
Mof_N 	N 	0.6896	0.2197	0.159	-0.268
Mof_C 	C 	0.6262	0.2175	0.3839	-0.126
Mof_C 	C 	0.5315	0.2161	0.1196	0.001
Mof_H 	H 	0.5523	0.2162	0.0314	0.023
Mof_C 	C 	0.66	0.2183	0.2623	0.109
Mof_C 	C 	0.6577	0.2176	0.5814	0.121
Mof_C 	C 	0.5291	0.2158	0.4445	-0.033
Mof_H 	H 	0.5482	0.2153	0.5752	0.052
Mof_C 	C 	0.7594	0.9661	0.0185	-0.129
Mof_H 	H 	0.733	0.9216	0.0144	0.064
Mof_C 	C 	0.742	0.0517	0.0164	0.068
Mof_H 	H 	0.7033	0.0636	0.008	-0.015
Mof_O 	O 	0.9395	0.0708	0.9601	-0.171
Mof_N 	N 	0.9395	0.9301	0.0293	-0.232
Mof_H 	H 	0.9722	0.9225	0.0061	0.23
Mof_H 	H 	0.9224	0.887	0.0644	0.12
Mof_C 	C 	0.8166	0.9473	0.0267	0.074
Mof_H 	H 	0.8294	0.8903	0.032	-0.035
Mof_C 	C 	0.8545	0.0162	0.0269	-0.001
Mof_C 	C 	0.8341	0.0992	0.0337	-0.081
Mof_H 	H 	0.8601	0.1449	0.0443	0.034
Mof_C 	C 	0.9159	0.0063	0.0112	0.085
Mof_O 	O 	0.9411	0.0721	0.393	-0.356
Mof_C 	C 	0.8543	0.013	0.197	-0.104
Mof_N 	N 	0.9425	0.928	0.32	-0.245
Mof_H 	H 	0.9791	0.9214	0.378	0.138
Mof_H 	H 	0.9217	0.8854	0.2629	0.134
Mof_C 	C 	0.917	0.008	0.319	0.303
Mof_C 	C 	0.8336	0.101	0.156	0.113
Mof_H 	H 	0.857	0.1464	0.2169	-0.017
Mof_C 	C 	0.8179	0.949	0.117	-0.048
Mof_H 	H 	0.8316	0.8919	0.1267	0.042
Mof_N 	N 	0.7212	0.6177	0.474	-0.237
Mof_C 	C 	0.9381	0.7162	0.1838	0.121
Mof_N 	N 	0.8152	0.718	0.7585	-0.285
Mof_N 	N 	0.8104	0.7197	0.341	-0.272
Mof_C 	C 	0.8738	0.7175	0.1161	-0.207
Mof_C 	C 	0.9685	0.7161	0.3804	-0.113
Mof_H 	H 	0.9477	0.7162	0.4686	0.075
Mof_C 	C 	0.84	0.7183	0.2377	0.129
Mof_C 	C 	0.8423	0.7176	0.9186	0.177
Mof_C 	C 	0.9709	0.7158	0.0555	-0.191
Mof_H 	H 	0.9518	0.7153	0.9248	0.124
Mof_C 	C 	0.7406	0.4661	0.4815	-0.119
Mof_H 	H 	0.767	0.4216	0.4856	0.066
Mof_C 	C 	0.758	0.5517	0.4836	0.062
Mof_H 	H 	0.7967	0.5636	0.492	-0.008
Mof_O 	O 	0.5605	0.5708	0.5399	-0.211
Mof_N 	N 	0.5605	0.4301	0.4707	-0.226
Mof_H 	H 	0.5278	0.4225	0.4939	0.258
Mof_H 	H 	0.5776	0.387	0.4356	0.125
Mof_C 	C 	0.6834	0.4473	0.4733	0.093
Mof_H 	H 	0.6706	0.3903	0.468	-0.035
Mof_C 	C 	0.6455	0.5162	0.4731	0.044
Mof_C 	C 	0.6659	0.5992	0.4663	-0.179
Mof_H 	H 	0.6399	0.6449	0.4557	0.076
Mof_C 	C 	0.5841	0.5063	0.4888	0.12
Mof_O 	O 	0.5589	0.5721	0.107	-0.401
Mof_C 	C 	0.6457	0.513	0.303	-0.152
Mof_N 	N 	0.5575	0.428	0.18	-0.235
Mof_H 	H 	0.5209	0.4214	0.122	0.138
Mof_H 	H 	0.5783	0.3854	0.2371	0.129
Mof_C 	C 	0.583	0.508	0.181	0.303
Mof_C 	C 	0.6664	0.601	0.344	0.209
Mof_H 	H 	0.643	0.6464	0.2831	-0.052
Mof_C 	C 	0.6821	0.449	0.383	-0.065
Mof_H 	H 	0.6684	0.3919	0.3733	0.045
Mof_N 	N 	0.2212	0.1177	0.474	-0.238
Mof_C 	C 	0.4381	0.2162	0.1838	0.128
Mof_N 	N 	0.3152	0.218	0.7585	-0.286
Mof_N 	N 	0.3104	0.2197	0.341	-0.272
Mof_C 	C 	0.3738	0.2175	0.1161	-0.21
Mof_C 	C 	0.4685	0.2161	0.3804	-0.124
Mof_H 	H 	0.4477	0.2162	0.4686	0.078
Mof_C 	C 	0.34	0.2183	0.2377	0.13
Mof_C 	C 	0.3423	0.2176	0.9186	0.178
Mof_C 	C 	0.4709	0.2158	0.0555	-0.202
Mof_H 	H 	0.4518	0.2153	0.9248	0.127
Mof_C 	C 	0.2406	0.9661	0.4815	-0.123
Mof_H 	H 	0.267	0.9216	0.4856	0.067
Mof_C 	C 	0.258	0.0517	0.4836	0.066
Mof_H 	H 	0.2967	0.0636	0.492	-0.009
Mof_O 	O 	0.0605	0.0708	0.5399	-0.212
Mof_N 	N 	0.0605	0.9301	0.4707	-0.228
Mof_H 	H 	0.0278	0.9225	0.4939	0.256
Mof_H 	H 	0.0776	0.887	0.4356	0.125
Mof_C 	C 	0.1834	0.9473	0.4733	0.093
Mof_H 	H 	0.1706	0.8903	0.468	-0.035
Mof_C 	C 	0.1455	0.0162	0.4731	0.045
Mof_C 	C 	0.1659	0.0992	0.4663	-0.18
Mof_H 	H 	0.1399	0.1449	0.4557	0.076
Mof_C 	C 	0.0841	0.0063	0.4888	0.124
Mof_O 	O 	0.0589	0.0721	0.107	-0.402
Mof_C 	C 	0.1457	0.013	0.303	-0.152
Mof_N 	N 	0.0575	0.928	0.18	-0.236
Mof_H 	H 	0.0209	0.9214	0.122	0.136
Mof_H 	H 	0.0783	0.8854	0.2371	0.129
Mof_C 	C 	0.083	0.008	0.181	0.307
Mof_C 	C 	0.1664	0.101	0.344	0.21
Mof_H 	H 	0.143	0.1464	0.2831	-0.053
Mof_C 	C 	0.1821	0.949	0.383	-0.066
Mof_H 	H 	0.1684	0.8919	0.3733	0.045
Mof_N 	N 	0.7212	0.3823	0.974	-0.226
Mof_C 	C 	0.9381	0.2838	0.6838	0.096
Mof_N 	N 	0.8152	0.282	0.2585	-0.282
Mof_N 	N 	0.8104	0.2803	0.841	-0.257
Mof_C 	C 	0.8738	0.2825	0.6161	-0.155
Mof_C 	C 	0.9685	0.2839	0.8804	-0.134
Mof_H 	H 	0.9477	0.2838	0.9686	0.092
Mof_C 	C 	0.84	0.2817	0.7377	0.126
Mof_C 	C 	0.8423	0.2824	0.4186	0.125
Mof_C 	C 	0.9709	0.2842	0.5555	-0.106
Mof_H 	H 	0.9518	0.2847	0.4248	0.067
Mof_C 	C 	0.7406	0.5339	0.9815	-0.111
Mof_H 	H 	0.767	0.5784	0.9856	0.074
Mof_C 	C 	0.758	0.4483	0.9836	0.068
Mof_H 	H 	0.7967	0.4364	0.992	0.001
Mof_O 	O 	0.5605	0.4292	0.0399	-0.254
Mof_N 	N 	0.5605	0.5699	0.9707	-0.224
Mof_H 	H 	0.5278	0.5775	0.9939	0.286
Mof_H 	H 	0.5776	0.613	0.9356	0.131
Mof_C 	C 	0.6834	0.5527	0.9733	0.106
Mof_H 	H 	0.6706	0.6097	0.968	-0.031
Mof_C 	C 	0.6455	0.4838	0.9731	0.063
Mof_C 	C 	0.6659	0.4008	0.9663	-0.247
Mof_H 	H 	0.6399	0.3551	0.9557	0.108
Mof_C 	C 	0.5841	0.4937	0.9888	0.17
Mof_O 	O 	0.5589	0.4279	0.607	-0.355
Mof_C 	C 	0.6457	0.487	0.803	-0.165
Mof_N 	N 	0.5575	0.572	0.68	-0.248
Mof_H 	H 	0.5209	0.5786	0.622	0.136
Mof_H 	H 	0.5783	0.6146	0.7371	0.134
Mof_C 	C 	0.583	0.492	0.681	0.314
Mof_C 	C 	0.6664	0.399	0.844	0.282
Mof_H 	H 	0.643	0.3536	0.7831	-0.071
Mof_C 	C 	0.6821	0.551	0.883	-0.072
Mof_H 	H 	0.6684	0.6081	0.8733	0.049
Mof_N 	N 	0.2212	0.8823	0.974	-0.226
Mof_C 	C 	0.4381	0.7838	0.6838	0.104
Mof_N 	N 	0.3152	0.782	0.2585	-0.283
Mof_N 	N 	0.3104	0.7803	0.841	-0.257
Mof_C 	C 	0.3738	0.7825	0.6161	-0.159
Mof_C 	C 	0.4685	0.7839	0.8804	-0.148
Mof_H 	H 	0.4477	0.7838	0.9686	0.096
Mof_C 	C 	0.34	0.7817	0.7377	0.127
Mof_C 	C 	0.3423	0.7824	0.4186	0.126
Mof_C 	C 	0.4709	0.7842	0.5555	-0.119
Mof_H 	H 	0.4518	0.7847	0.4248	0.071
Mof_C 	C 	0.2406	0.0339	0.9815	-0.107
Mof_H 	H 	0.267	0.0784	0.9856	0.073
Mof_C 	C 	0.258	0.9483	0.9836	0.063
Mof_H 	H 	0.2967	0.9364	0.992	0.001
Mof_O 	O 	0.0605	0.9292	0.0399	-0.252
Mof_N 	N 	0.0605	0.0699	0.9707	-0.221
Mof_H 	H 	0.0278	0.0775	0.9939	0.284
Mof_H 	H 	0.0776	0.113	0.9356	0.13
Mof_C 	C 	0.1834	0.0527	0.9733	0.107
Mof_H 	H 	0.1706	0.1097	0.968	-0.031
Mof_C 	C 	0.1455	0.9838	0.9731	0.061
Mof_C 	C 	0.1659	0.9008	0.9663	-0.244
Mof_H 	H 	0.1399	0.8551	0.9557	0.107
Mof_C 	C 	0.0841	0.9937	0.9888	0.165
Mof_O 	O 	0.0589	0.9279	0.607	-0.354
Mof_C 	C 	0.1457	0.987	0.803	-0.165
Mof_N 	N 	0.0575	0.072	0.68	-0.245
Mof_H 	H 	0.0209	0.0786	0.622	0.134
Mof_H 	H 	0.0783	0.1146	0.7371	0.133
Mof_C 	C 	0.083	0.992	0.681	0.309
Mof_C 	C 	0.1664	0.899	0.844	0.278
Mof_H 	H 	0.143	0.8536	0.7831	-0.07
Mof_C 	C 	0.1821	0.051	0.883	-0.071
Mof_H 	H 	0.1684	0.1081	0.8733	0.049
Mof_N 	N 	0.2788	0.3823	0.526	-0.238
Mof_C 	C 	0.0619	0.2838	0.8162	0.006
Mof_N 	N 	0.1848	0.282	0.2415	-0.264
Mof_N 	N 	0.1896	0.2803	0.659	-0.257
Mof_C 	C 	0.1262	0.2825	0.8839	-0.08
Mof_C 	C 	0.0315	0.2839	0.6196	-0.037
Mof_H 	H 	0.0523	0.2838	0.5314	0.045
Mof_C 	C 	0.16	0.2817	0.7623	0.107
Mof_C 	C 	0.1577	0.2824	0.0814	0.071
Mof_C 	C 	0.0291	0.2842	0.9445	0.035
Mof_H 	H 	0.0482	0.2847	0.0752	0
Mof_C 	C 	0.2594	0.5339	0.5185	-0.117
Mof_H 	H 	0.233	0.5784	0.5144	0.07
Mof_C 	C 	0.242	0.4483	0.5164	0.07
Mof_H 	H 	0.2033	0.4364	0.508	-0.006
Mof_O 	O 	0.4395	0.4292	0.4601	-0.214
Mof_N 	N 	0.4395	0.5699	0.5293	-0.227
Mof_H 	H 	0.4722	0.5775	0.5061	0.256
Mof_H 	H 	0.4224	0.613	0.5644	0.125
Mof_C 	C 	0.3166	0.5527	0.5267	0.087
Mof_H 	H 	0.3294	0.6097	0.532	-0.032
Mof_C 	C 	0.3545	0.4838	0.5269	0.018
Mof_C 	C 	0.3341	0.4008	0.5337	-0.15
Mof_H 	H 	0.3601	0.3551	0.5443	0.065
Mof_C 	C 	0.4159	0.4937	0.5112	0.131
Mof_O 	O 	0.4411	0.4279	0.893	-0.308
Mof_C 	C 	0.3543	0.487	0.697	-0.117
Mof_N 	N 	0.4425	0.572	0.82	-0.256
Mof_H 	H 	0.4791	0.5786	0.878	0.134
Mof_H 	H 	0.4217	0.6146	0.7629	0.138
Mof_C 	C 	0.417	0.492	0.819	0.309
Mof_C 	C 	0.3336	0.399	0.656	0.186
Mof_H 	H 	0.357	0.3536	0.7169	-0.037
Mof_C 	C 	0.3179	0.551	0.617	-0.054
Mof_H 	H 	0.3316	0.6081	0.6267	0.046
Mof_N 	N 	0.7788	0.8823	0.526	-0.237
Mof_C 	C 	0.5619	0.7838	0.8162	-0.003
Mof_N 	N 	0.6848	0.782	0.2415	-0.264
Mof_N 	N 	0.6896	0.7803	0.659	-0.257
Mof_C 	C 	0.6262	0.7825	0.8839	-0.076
Mof_C 	C 	0.5315	0.7839	0.6196	-0.025
Mof_H 	H 	0.5523	0.7838	0.5314	0.041
Mof_C 	C 	0.66	0.7817	0.7623	0.106
Mof_C 	C 	0.6577	0.7824	0.0814	0.07
Mof_C 	C 	0.5291	0.7842	0.9445	0.049
Mof_H 	H 	0.5482	0.7847	0.0752	-0.004
Mof_C 	C 	0.7594	0.0339	0.5185	-0.113
Mof_H 	H 	0.733	0.0784	0.5144	0.069
Mof_C 	C 	0.742	0.9483	0.5164	0.066
Mof_H 	H 	0.7033	0.9364	0.508	-0.005
Mof_O 	O 	0.9395	0.9292	0.4601	-0.212
Mof_N 	N 	0.9395	0.0699	0.5293	-0.226
Mof_H 	H 	0.9722	0.0775	0.5061	0.258
Mof_H 	H 	0.9224	0.113	0.5644	0.125
Mof_C 	C 	0.8166	0.0527	0.5267	0.088
Mof_H 	H 	0.8294	0.1097	0.532	-0.032
Mof_C 	C 	0.8545	0.9838	0.5269	0.017
Mof_C 	C 	0.8341	0.9008	0.5337	-0.149
Mof_H 	H 	0.8601	0.8551	0.5443	0.065
Mof_C 	C 	0.9159	0.9937	0.5112	0.127
Mof_O 	O 	0.9411	0.9279	0.893	-0.307
Mof_C 	C 	0.8543	0.987	0.697	-0.118
Mof_N 	N 	0.9425	0.072	0.82	-0.255
Mof_H 	H 	0.9791	0.0786	0.878	0.136
Mof_H 	H 	0.9217	0.1146	0.7629	0.138
Mof_C 	C 	0.917	0.992	0.819	0.306
Mof_C 	C 	0.8336	0.899	0.656	0.185
Mof_H 	H 	0.857	0.8536	0.7169	-0.036
Mof_C 	C 	0.8179	0.051	0.617	-0.054
Mof_H 	H 	0.8316	0.1081	0.6267	0.046
Mof_Zn	Zn	0.25	0.75	-0	1.175
Mof_Zn	Zn	0.75	0.75	0.5	1.186
Mof_Zn	Zn	0.75	0.25	-0	1.175
Mof_Zn	Zn	0.25	0.25	0.5	1.186
_end
