data_functionalizedCrystal
_audit_creation_method	'EQeq! by Chris Wilmer'
_symmetry_space_group_name_H-M	'P1'
_symmetry_Int_Tables_number	1
_symmetry_cell_setting	triclinic
loop_
_symmetry_equiv_pos_as_xyz
  x,y,z
_cell_length_a	13.386
_cell_length_b	21.482
_cell_length_c	10.176
_cell_angle_alpha	90
_cell_angle_beta	94.752
_cell_angle_gamma	90
loop_
_atom_site_label
_atom_site_type_symbol
_atom_site_fract_x
_atom_site_fract_y
_atom_site_fract_z
_atom_site_charge
Mof_Cd	Cd	0.51522	0.5731	0.419	0.514
Mof_O 	O 	0.0044	0.86616	0.37214	-0.233
Mof_C 	C 	0.89673	0.78043	0.24654	0.022
Mof_C 	C 	0.8572	0.7571	0.1272	-0.032
Mof_H 	H 	0.8826	0.77	0.0471	0.056
Mof_C 	C 	0.7795	0.7143	0.1269	0.003
Mof_H 	H 	0.7528	0.6967	0.0459	0.03
Mof_C 	C 	0.74016	0.69696	0.24479	-0.071
Mof_C 	C 	0.7848	0.72007	0.3625	-0.003
Mof_H 	H 	0.7613	0.7065	0.4433	0.033
Mof_C 	C 	0.863	0.76264	0.3653	-0.026
Mof_H 	H 	0.8923	0.7789	0.4463	0.062
Mof_C 	C 	0.65243	0.65289	0.24625	0.323
Mof_O 	O 	0.62065	0.62974	0.13743	-0.279
Mof_O 	O 	0.61986	0.64348	0.3572	-0.288
Mof_O 	O 	0.00492	0.28242	0.12808	-0.224
Mof_C 	C 	0.10519	0.36581	0.26844	-0.009
Mof_C 	C 	0.13875	0.38825	0.39254	-0.061
Mof_H 	H 	0.104	0.3781	0.4674	0.059
Mof_C 	C 	0.22332	0.42561	0.40586	-0.005
Mof_H 	H 	0.2474	0.4408	0.4903	0.051
Mof_C 	C 	0.27308	0.44084	0.29507	-0.069
Mof_C 	C 	0.23793	0.41879	0.17107	-0.004
Mof_H 	H 	0.2718	0.4295	0.0958	0.057
Mof_C 	C 	0.15385	0.38131	0.1574	-0.056
Mof_H 	H 	0.1295	0.3663	0.073	0.056
Mof_C 	C 	0.36325	0.48288	0.30633	0.321
Mof_O 	O 	0.40942	0.49072	0.42103	-0.289
Mof_O 	O 	0.38609	0.50926	0.20491	-0.275
Mof_C 	C 	0.8837	0.7345	0.1468	-0.049
Mof_H 	H 	0.9287	0.7317	0.0796	0.062
Mof_C 	C 	0.8027	0.6933	0.1498	-0.005
Mof_H 	H 	0.7923	0.6623	0.0833	0.032
Mof_C 	C 	0.7491	0.7441	0.3413	-0.002
Mof_H 	H 	0.7009	0.7479	0.4043	0.038
Mof_C 	C 	0.8293	0.7846	0.3428	-0.054
Mof_H 	H 	0.8383	0.8154	0.4097	0.06
Mof_Cd	Cd	0.48478	0.5731	0.081	0.515
Mof_O 	O 	0.9956	0.86616	0.12786	-0.195
Mof_C 	C 	0.10327	0.78043	0.25346	-0.007
Mof_C 	C 	0.1428	0.7571	0.3728	-0.007
Mof_H 	H 	0.1174	0.77	0.4529	0.046
Mof_C 	C 	0.2205	0.7143	0.3731	0.021
Mof_H 	H 	0.2472	0.6967	0.4541	0.025
Mof_C 	C 	0.25984	0.69696	0.25521	-0.061
Mof_C 	C 	0.2152	0.72007	0.1375	-0.17
Mof_H 	H 	0.2387	0.7065	0.0567	0.082
Mof_C 	C 	0.137	0.76264	0.1347	-0.155
Mof_H 	H 	0.1077	0.7789	0.0537	0.09
Mof_C 	C 	0.34757	0.65289	0.25375	0.319
Mof_O 	O 	0.37935	0.62974	0.36257	-0.278
Mof_O 	O 	0.38014	0.64348	0.1428	-0.287
Mof_O 	O 	0.99508	0.28242	0.37192	-0.191
Mof_C 	C 	0.89481	0.36581	0.23156	0.018
Mof_C 	C 	0.86125	0.38825	0.10746	-0.07
Mof_H 	H 	0.896	0.3781	0.0326	0.071
Mof_C 	C 	0.77668	0.42561	0.09414	0.006
Mof_H 	H 	0.7526	0.4408	0.0097	0.049
Mof_C 	C 	0.72692	0.44084	0.20493	-0.075
Mof_C 	C 	0.76207	0.41879	0.32893	0.007
Mof_H 	H 	0.7282	0.4295	0.4042	0.055
Mof_C 	C 	0.84615	0.38131	0.3426	-0.067
Mof_H 	H 	0.8705	0.3663	0.427	0.066
Mof_C 	C 	0.63675	0.48288	0.19367	0.324
Mof_O 	O 	0.59058	0.49072	0.07897	-0.289
Mof_O 	O 	0.61391	0.50926	0.29509	-0.275
Mof_C 	C 	0.1163	0.7345	0.3532	-0.065
Mof_H 	H 	0.0713	0.7317	0.4204	0.055
Mof_C 	C 	0.1973	0.6933	0.3502	-0.032
Mof_H 	H 	0.2077	0.6623	0.4167	0.039
Mof_C 	C 	0.2509	0.7441	0.1587	0.15
Mof_H 	H 	0.2991	0.7479	0.0957	-0.009
Mof_C 	C 	0.1707	0.7846	0.1572	0.089
Mof_H 	H 	0.1617	0.8154	0.0903	0.013
Mof_Cd	Cd	0.48478	0.4269	0.581	0.515
Mof_O 	O 	0.9956	0.13384	0.62786	-0.192
Mof_C 	C 	0.10327	0.21957	0.75346	-0.006
Mof_C 	C 	0.1428	0.2429	0.8728	-0.006
Mof_H 	H 	0.1174	0.23	0.9529	0.046
Mof_C 	C 	0.2205	0.2857	0.8731	0.022
Mof_H 	H 	0.2472	0.3033	0.9541	0.024
Mof_C 	C 	0.25984	0.30304	0.75521	-0.062
Mof_C 	C 	0.2152	0.27993	0.6375	-0.176
Mof_H 	H 	0.2387	0.2935	0.5567	0.084
Mof_C 	C 	0.137	0.23736	0.6347	-0.16
Mof_H 	H 	0.1077	0.2211	0.5537	0.091
Mof_C 	C 	0.34757	0.34711	0.75375	0.319
Mof_O 	O 	0.37935	0.37026	0.86257	-0.278
Mof_O 	O 	0.38014	0.35652	0.6428	-0.287
Mof_O 	O 	0.99508	0.71758	0.87192	-0.189
Mof_C 	C 	0.89481	0.63419	0.73156	0.02
Mof_C 	C 	0.86125	0.61175	0.60746	-0.071
Mof_H 	H 	0.896	0.6219	0.5326	0.072
Mof_C 	C 	0.77668	0.57439	0.59414	0.007
Mof_H 	H 	0.7526	0.5592	0.5097	0.049
Mof_C 	C 	0.72692	0.55916	0.70493	-0.076
Mof_C 	C 	0.76207	0.58121	0.82893	0.008
Mof_H 	H 	0.7282	0.5705	0.9042	0.055
Mof_C 	C 	0.84615	0.61869	0.8426	-0.069
Mof_H 	H 	0.8705	0.6337	0.927	0.067
Mof_C 	C 	0.63675	0.51712	0.69367	0.324
Mof_O 	O 	0.59058	0.50928	0.57897	-0.289
Mof_O 	O 	0.61391	0.49074	0.79509	-0.275
Mof_C 	C 	0.1163	0.2655	0.8532	-0.067
Mof_H 	H 	0.0713	0.2683	0.9204	0.055
Mof_C 	C 	0.1973	0.3067	0.8502	-0.033
Mof_H 	H 	0.2077	0.3377	0.9167	0.039
Mof_C 	C 	0.2509	0.2559	0.6587	0.156
Mof_H 	H 	0.2991	0.2521	0.5957	-0.012
Mof_C 	C 	0.1707	0.2154	0.6572	0.094
Mof_H 	H 	0.1617	0.1846	0.5903	0.011
Mof_Cd	Cd	0.51522	0.4269	0.919	0.515
Mof_O 	O 	0.0044	0.13384	0.87214	-0.233
Mof_C 	C 	0.89673	0.21957	0.74654	0.024
Mof_C 	C 	0.8572	0.2429	0.6272	-0.033
Mof_H 	H 	0.8826	0.23	0.5471	0.057
Mof_C 	C 	0.7795	0.2857	0.6269	0.002
Mof_H 	H 	0.7528	0.3033	0.5459	0.03
Mof_C 	C 	0.74016	0.30304	0.74479	-0.072
Mof_C 	C 	0.7848	0.27993	0.8625	0.003
Mof_H 	H 	0.7613	0.2935	0.9433	0.032
Mof_C 	C 	0.863	0.23736	0.8653	-0.022
Mof_H 	H 	0.8923	0.2211	0.9463	0.061
Mof_C 	C 	0.65243	0.34711	0.74625	0.324
Mof_O 	O 	0.62065	0.37026	0.63743	-0.279
Mof_O 	O 	0.61986	0.35652	0.8572	-0.288
Mof_O 	O 	0.00492	0.71758	0.62808	-0.224
Mof_C 	C 	0.10519	0.63419	0.76844	-0.008
Mof_C 	C 	0.13875	0.61175	0.89254	-0.062
Mof_H 	H 	0.104	0.6219	0.9674	0.058
Mof_C 	C 	0.22332	0.57439	0.90586	-0.004
Mof_H 	H 	0.2474	0.5592	0.9903	0.051
Mof_C 	C 	0.27308	0.55916	0.79507	-0.07
Mof_C 	C 	0.23793	0.58121	0.67107	-0.004
Mof_H 	H 	0.2718	0.5705	0.5958	0.057
Mof_C 	C 	0.15385	0.61869	0.6574	-0.057
Mof_H 	H 	0.1295	0.6337	0.573	0.056
Mof_C 	C 	0.36325	0.51712	0.80633	0.321
Mof_O 	O 	0.40942	0.50928	0.92103	-0.289
Mof_O 	O 	0.38609	0.49074	0.70491	-0.275
Mof_C 	C 	0.8837	0.2655	0.6468	-0.049
Mof_H 	H 	0.9287	0.2683	0.5796	0.062
Mof_C 	C 	0.8027	0.3067	0.6498	-0.004
Mof_H 	H 	0.7923	0.3377	0.5833	0.032
Mof_C 	C 	0.7491	0.2559	0.8413	-0.008
Mof_H 	H 	0.7009	0.2521	0.9043	0.04
Mof_C 	C 	0.8293	0.2154	0.8428	-0.059
Mof_H 	H 	0.8383	0.1846	0.9097	0.062
Mof_S 	S 	-2.43659e-18	0.83155	0.25	0.227
Mof_S 	S 	2.31481e-33	0.16845	0.75	0.222
Mof_S 	S 	7.71602e-34	0.31575	0.25	0.223
Mof_S 	S 	2.31481e-33	0.68425	0.75	0.219
Mof_Cd	Cd	0.01522	0.0731	0.419	0.487
Mof_O 	O 	0.5044	0.36616	0.37214	-0.23
Mof_C 	C 	0.39673	0.28043	0.24654	-0.012
Mof_C 	C 	0.3572	0.2571	0.1272	-0.017
Mof_H 	H 	0.3826	0.27	0.0471	0.05
Mof_C 	C 	0.2795	0.2143	0.1269	0.009
Mof_H 	H 	0.2528	0.1967	0.0459	0.028
Mof_C 	C 	0.24016	0.19696	0.24479	-0.065
Mof_C 	C 	0.2848	0.22007	0.3625	-0.086
Mof_H 	H 	0.2613	0.2065	0.4433	0.057
Mof_C 	C 	0.363	0.26264	0.3653	-0.083
Mof_H 	H 	0.3923	0.2789	0.4463	0.074
Mof_C 	C 	0.15243	0.15289	0.24625	0.321
Mof_O 	O 	0.12065	0.12974	0.13743	-0.286
Mof_O 	O 	0.11986	0.14348	0.3572	-0.292
Mof_O 	O 	0.50492	0.78242	0.12808	-0.225
Mof_C 	C 	0.60519	0.86581	0.26844	-0.02
Mof_C 	C 	0.63875	0.88825	0.39254	-0.049
Mof_H 	H 	0.604	0.8781	0.4674	0.059
Mof_C 	C 	0.72332	0.92561	0.40586	-0.01
Mof_H 	H 	0.7474	0.9408	0.4903	0.054
Mof_C 	C 	0.77308	0.94084	0.29507	-0.063
Mof_C 	C 	0.73793	0.91879	0.17107	-0.009
Mof_H 	H 	0.7718	0.9295	0.0958	0.06
Mof_C 	C 	0.65385	0.88131	0.1574	-0.044
Mof_H 	H 	0.6295	0.8663	0.073	0.055
Mof_C 	C 	0.86325	0.98288	0.30633	0.32
Mof_O 	O 	0.90942	0.99072	0.42103	-0.28
Mof_O 	O 	0.88609	0.00926	0.20491	-0.27
Mof_C 	C 	0.3837	0.2345	0.1468	-0.051
Mof_H 	H 	0.4287	0.2317	0.0796	0.056
Mof_C 	C 	0.3027	0.1933	0.1498	-0.02
Mof_H 	H 	0.2923	0.1623	0.0833	0.036
Mof_C 	C 	0.2491	0.2441	0.3413	0.069
Mof_H 	H 	0.2009	0.2479	0.4043	0.014
Mof_C 	C 	0.3293	0.2846	0.3428	0.02
Mof_H 	H 	0.3383	0.3154	0.4097	0.035
Mof_Cd	Cd	0.98478	0.0731	0.081	0.539
Mof_O 	O 	0.4956	0.36616	0.12786	-0.23
Mof_C 	C 	0.60327	0.28043	0.25346	-0.013
Mof_C 	C 	0.6428	0.2571	0.3728	-0.012
Mof_H 	H 	0.6174	0.27	0.4529	0.049
Mof_C 	C 	0.7205	0.2143	0.3731	0.012
Mof_H 	H 	0.7472	0.1967	0.4541	0.029
Mof_C 	C 	0.75984	0.19696	0.25521	-0.061
Mof_C 	C 	0.7152	0.22007	0.1375	-0.102
Mof_H 	H 	0.7387	0.2065	0.0567	0.062
Mof_C 	C 	0.637	0.26264	0.1347	-0.097
Mof_H 	H 	0.6077	0.2789	0.0537	0.077
Mof_C 	C 	0.84757	0.15289	0.25375	0.319
Mof_O 	O 	0.87935	0.12974	0.36257	-0.27
Mof_O 	O 	0.88014	0.14348	0.1428	-0.283
Mof_O 	O 	0.49508	0.78242	0.37192	-0.226
Mof_C 	C 	0.39481	0.86581	0.23156	-0.023
Mof_C 	C 	0.36125	0.88825	0.10746	-0.049
Mof_H 	H 	0.396	0.8781	0.0326	0.059
Mof_C 	C 	0.27668	0.92561	0.09414	-0.011
Mof_H 	H 	0.2526	0.9408	0.0097	0.055
Mof_C 	C 	0.22692	0.94084	0.20493	-0.065
Mof_C 	C 	0.26207	0.91879	0.32893	-0.011
Mof_H 	H 	0.2282	0.9295	0.4042	0.059
Mof_C 	C 	0.34615	0.88131	0.3426	-0.046
Mof_H 	H 	0.3705	0.8663	0.427	0.054
Mof_C 	C 	0.13675	0.98288	0.19367	0.318
Mof_O 	O 	0.09058	0.99072	0.07897	-0.296
Mof_O 	O 	0.11391	0.00926	0.29509	-0.278
Mof_C 	C 	0.6163	0.2345	0.3532	-0.054
Mof_H 	H 	0.5713	0.2317	0.4204	0.058
Mof_C 	C 	0.6973	0.1933	0.3502	-0.024
Mof_H 	H 	0.7077	0.1623	0.4167	0.037
Mof_C 	C 	0.7509	0.2441	0.1587	0.084
Mof_H 	H 	0.7991	0.2479	0.0957	0.013
Mof_C 	C 	0.6707	0.2846	0.1572	0.035
Mof_H 	H 	0.6617	0.3154	0.0903	0.031
Mof_Cd	Cd	0.98478	0.9269	0.581	0.541
Mof_O 	O 	0.4956	0.63384	0.62786	-0.23
Mof_C 	C 	0.60327	0.71957	0.75346	-0.013
Mof_C 	C 	0.6428	0.7429	0.8728	-0.012
Mof_H 	H 	0.6174	0.73	0.9529	0.05
Mof_C 	C 	0.7205	0.7857	0.8731	0.012
Mof_H 	H 	0.7472	0.8033	0.9541	0.029
Mof_C 	C 	0.75984	0.80304	0.75521	-0.061
Mof_C 	C 	0.7152	0.77993	0.6375	-0.104
Mof_H 	H 	0.7387	0.7935	0.5567	0.063
Mof_C 	C 	0.637	0.73736	0.6347	-0.098
Mof_H 	H 	0.6077	0.7211	0.5537	0.077
Mof_C 	C 	0.84757	0.84711	0.75375	0.319
Mof_O 	O 	0.87935	0.87026	0.86257	-0.27
Mof_O 	O 	0.88014	0.85652	0.6428	-0.283
Mof_O 	O 	0.49508	0.21758	0.87192	-0.226
Mof_C 	C 	0.39481	0.13419	0.73156	-0.023
Mof_C 	C 	0.36125	0.11175	0.60746	-0.049
Mof_H 	H 	0.396	0.1219	0.5326	0.059
Mof_C 	C 	0.27668	0.07439	0.59414	-0.011
Mof_H 	H 	0.2526	0.0592	0.5097	0.054
Mof_C 	C 	0.22692	0.05916	0.70493	-0.066
Mof_C 	C 	0.26207	0.08121	0.82893	-0.011
Mof_H 	H 	0.2282	0.0705	0.9042	0.058
Mof_C 	C 	0.34615	0.11869	0.8426	-0.047
Mof_H 	H 	0.3705	0.1337	0.927	0.054
Mof_C 	C 	0.13675	0.01712	0.69367	0.319
Mof_O 	O 	0.09058	0.00928	0.57897	-0.298
Mof_O 	O 	0.11391	0.99074	0.79509	-0.279
Mof_C 	C 	0.6163	0.7655	0.8532	-0.054
Mof_H 	H 	0.5713	0.7683	0.9204	0.058
Mof_C 	C 	0.6973	0.8067	0.8502	-0.024
Mof_H 	H 	0.7077	0.8377	0.9167	0.038
Mof_C 	C 	0.7509	0.7559	0.6587	0.085
Mof_H 	H 	0.7991	0.7521	0.5957	0.013
Mof_C 	C 	0.6707	0.7154	0.6572	0.036
Mof_H 	H 	0.6617	0.6846	0.5903	0.03
Mof_Cd	Cd	0.01522	0.9269	0.919	0.486
Mof_O 	O 	0.5044	0.63384	0.87214	-0.23
Mof_C 	C 	0.39673	0.71957	0.74654	-0.012
Mof_C 	C 	0.3572	0.7429	0.6272	-0.017
Mof_H 	H 	0.3826	0.73	0.5471	0.05
Mof_C 	C 	0.2795	0.7857	0.6269	0.01
Mof_H 	H 	0.2528	0.8033	0.5459	0.027
Mof_C 	C 	0.24016	0.80304	0.74479	-0.065
Mof_C 	C 	0.2848	0.77993	0.8625	-0.085
Mof_H 	H 	0.2613	0.7935	0.9433	0.057
Mof_C 	C 	0.363	0.73736	0.8653	-0.082
Mof_H 	H 	0.3923	0.7211	0.9463	0.073
Mof_C 	C 	0.15243	0.84711	0.74625	0.321
Mof_O 	O 	0.12065	0.87026	0.63743	-0.287
Mof_O 	O 	0.11986	0.85652	0.8572	-0.292
Mof_O 	O 	0.50492	0.21758	0.62808	-0.225
Mof_C 	C 	0.60519	0.13419	0.76844	-0.02
Mof_C 	C 	0.63875	0.11175	0.89254	-0.048
Mof_H 	H 	0.604	0.1219	0.9674	0.059
Mof_C 	C 	0.72332	0.07439	0.90586	-0.01
Mof_H 	H 	0.7474	0.0592	0.9903	0.054
Mof_C 	C 	0.77308	0.05916	0.79507	-0.062
Mof_C 	C 	0.73793	0.08121	0.67107	-0.009
Mof_H 	H 	0.7718	0.0705	0.5958	0.06
Mof_C 	C 	0.65385	0.11869	0.6574	-0.044
Mof_H 	H 	0.6295	0.1337	0.573	0.055
Mof_C 	C 	0.86325	0.01712	0.80633	0.32
Mof_O 	O 	0.90942	0.00928	0.92103	-0.279
Mof_O 	O 	0.88609	0.99074	0.70491	-0.269
Mof_C 	C 	0.3837	0.7655	0.6468	-0.051
Mof_H 	H 	0.4287	0.7683	0.5796	0.056
Mof_C 	C 	0.3027	0.8067	0.6498	-0.02
Mof_H 	H 	0.2923	0.8377	0.5833	0.036
Mof_C 	C 	0.2491	0.7559	0.8413	0.068
Mof_H 	H 	0.2009	0.7521	0.9043	0.014
Mof_C 	C 	0.3293	0.7154	0.8428	0.019
Mof_H 	H 	0.3383	0.6846	0.9097	0.035
Mof_S 	S 	0.5	0.33155	0.25	0.284
Mof_S 	S 	0.5	0.66845	0.75	0.284
Mof_S 	S 	0.5	0.81575	0.25	0.286
Mof_S 	S 	0.5	0.18425	0.75	0.286
_end
