data_functionalizedCrystal
_audit_creation_method	'EQeq! by Chris Wilmer'
_symmetry_space_group_name_H-M	'P1'
_symmetry_Int_Tables_number	1
_symmetry_cell_setting	triclinic
loop_
_symmetry_equiv_pos_as_xyz
  x,y,z
_cell_length_a	13.996
_cell_length_b	14.6219
_cell_length_c	18.5851
_cell_angle_alpha	69.1245
_cell_angle_beta	67.8805
_cell_angle_gamma	61.4061
loop_
_atom_site_label
_atom_site_type_symbol
_atom_site_fract_x
_atom_site_fract_y
_atom_site_fract_z
_atom_site_charge
Mof_Zn	Zn	0.38087	0.43628	0.10158	1.226
Mof_Zn	Zn	0.56718	0.23608	0.31568	1.218
Mof_Zn	Zn	0.91873	0.06372	0.39842	1.225
Mof_Zn	Zn	0.11894	0.26392	0.18432	1.218
Mof_Zn	Zn	0.61913	0.56372	0.89842	1.225
Mof_Zn	Zn	0.43282	0.76392	0.68432	1.217
Mof_Zn	Zn	0.08127	0.93628	0.60158	1.224
Mof_Zn	Zn	0.88106	0.73608	0.81568	1.217
Mof_H 	H 	0.4909	0.5892	0.209	0.018
Mof_H 	H 	0.5944	0.643	0.2454	0.065
Mof_H 	H 	0.7832	0.5365	0.2387	0.035
Mof_H 	H 	0.8977	0.031	0.177	0.016
Mof_H 	H 	0.9065	0.0564	0.045	0.07
Mof_H 	H 	0.8349	0.2277	0.9715	0.026
Mof_H 	H 	0.3896	0.3631	0.9685	0.003
Mof_H 	H 	0.4803	0.2165	0.9125	0.08
Mof_H 	H 	0.6676	0.0739	0.0707	0.081
Mof_H 	H 	0.5668	0.2245	0.1233	0.007
Mof_H 	H 	0.9095	0.8668	0.8912	0.021
Mof_H 	H 	0.8079	0.0087	0.9513	0.062
Mof_H 	H 	0.5298	0.0325	0.9187	0.069
Mof_H 	H 	0.6373	0.8802	0.869	0.008
Mof_H 	H 	0.2891	0.9108	0.291	0.02
Mof_H 	H 	0.4828	0.857	0.2546	0.063
Mof_H 	H 	0.5584	0.9635	0.2613	0.037
Mof_H 	H 	0.1057	0.469	0.323	0.018
Mof_H 	H 	0.0079	0.4436	0.455	0.068
Mof_H 	H 	0.0341	0.2723	0.5285	0.03
Mof_H 	H 	0.7212	0.1369	0.5315	0.003
Mof_H 	H 	0.6093	0.2835	0.5875	0.078
Mof_H 	H 	0.8122	0.4261	0.4293	0.08
Mof_H 	H 	0.9146	0.2755	0.3767	0.007
Mof_H 	H 	0.6675	0.6332	0.6088	0.015
Mof_H 	H 	0.7679	0.4913	0.5487	0.075
Mof_H 	H 	0.481	0.4675	0.5813	0.077
Mof_H 	H 	0.3865	0.6198	0.631	0.004
Mof_H 	H 	0.5091	0.4108	0.791	0.018
Mof_H 	H 	0.4056	0.357	0.7546	0.065
Mof_H 	H 	0.2168	0.4635	0.7613	0.035
Mof_H 	H 	0.1023	0.969	0.823	0.016
Mof_H 	H 	0.0935	0.9436	0.955	0.07
Mof_H 	H 	0.1651	0.7723	0.0285	0.026
Mof_H 	H 	0.6104	0.6369	0.0315	0.003
Mof_H 	H 	0.5197	0.7835	0.0875	0.08
Mof_H 	H 	0.3324	0.9261	0.9293	0.081
Mof_H 	H 	0.4332	0.7755	0.8767	0.007
Mof_H 	H 	0.0905	0.1332	0.1088	0.021
Mof_H 	H 	0.1921	0.9913	0.0487	0.062
Mof_H 	H 	0.4702	0.9675	0.0813	0.069
Mof_H 	H 	0.3627	0.1198	0.131	0.008
Mof_H 	H 	0.7109	0.0892	0.709	0.02
Mof_H 	H 	0.5172	0.143	0.7454	0.063
Mof_H 	H 	0.4416	0.0365	0.7387	0.037
Mof_H 	H 	0.8943	0.531	0.677	0.018
Mof_H 	H 	0.9921	0.5564	0.545	0.068
Mof_H 	H 	0.9659	0.7277	0.4715	0.03
Mof_H 	H 	0.2788	0.8631	0.4685	0.003
Mof_H 	H 	0.3907	0.7165	0.4125	0.078
Mof_H 	H 	0.1878	0.5739	0.5707	0.08
Mof_H 	H 	0.0854	0.7245	0.6233	0.007
Mof_H 	H 	0.3325	0.3668	0.3912	0.015
Mof_H 	H 	0.2321	0.5087	0.4513	0.075
Mof_H 	H 	0.519	0.5325	0.4187	0.077
Mof_H 	H 	0.6135	0.3802	0.369	0.004
Mof_C 	C 	0.5432	0.4152	0.1678	0.392
Mof_C 	C 	0.6177	0.451	0.1818	-0.157
Mof_C 	C 	0.5667	0.547	0.2066	0.058
Mof_C 	C 	0.6284	0.5798	0.2278	-0.114
Mof_C 	C 	0.7419	0.5168	0.2224	0.034
Mof_C 	C 	0.7949	0.4244	0.1928	-0.097
Mof_C 	C 	0.7325	0.3887	0.1725	0.067
Mof_C 	C 	0.92	0.3662	0.1848	0.327
Mof_C 	C 	0.8137	0.1631	0.2691	0.391
Mof_C 	C 	0.822	0.1873	0.1819	-0.154
Mof_C 	C 	0.8696	0.0997	0.1469	0.066
Mof_C 	C 	0.8753	0.1146	0.0682	-0.125
Mof_C 	C 	0.8338	0.2175	0.0241	0.051
Mof_C 	C 	0.7904	0.3063	0.0569	-0.107
Mof_C 	C 	0.7837	0.2921	0.1371	0.078
Mof_C 	C 	0.7519	0.4161	0.0029	0.343
Mof_C 	C 	0.4468	0.304	0.9892	0.088
Mof_C 	C 	0.5024	0.2169	0.9537	-0.141
Mof_C 	C 	0.5907	0.1312	0.9808	0.066
Mof_C 	C 	0.6126	0.1326	0.0478	-0.133
Mof_C 	C 	0.5508	0.2233	0.0795	0.08
Mof_C 	C 	0.832	0.8991	0.8981	0.054
Mof_C 	C 	0.7713	0.9852	0.9336	-0.098
Mof_C 	C 	0.6551	0.0376	0.9434	0.029
Mof_C 	C 	0.6064	0.9985	0.9159	-0.111
Mof_C 	C 	0.6724	0.9084	0.8838	0.062
Mof_C 	C 	0.1262	0.0848	0.3322	0.39
Mof_C 	C 	0.2505	0.049	0.3182	-0.151
Mof_C 	C 	0.3203	0.953	0.2934	0.049
Mof_C 	C 	0.436	0.9202	0.2722	-0.108
Mof_C 	C 	0.4811	0.9832	0.2776	0.027
Mof_C 	C 	0.4121	0.0756	0.3072	-0.093
Mof_C 	C 	0.2937	0.1113	0.3275	0.064
Mof_C 	C 	0.471	0.1338	0.3152	0.326
Mof_C 	C 	0.2459	0.3369	0.2309	0.391
Mof_C 	C 	0.1912	0.3127	0.3181	-0.153
Mof_C 	C 	0.1162	0.4003	0.3531	0.064
Mof_C 	C 	0.0581	0.3854	0.4318	-0.121
Mof_C 	C 	0.0754	0.2825	0.4759	0.045
Mof_C 	C 	0.1536	0.1937	0.4431	-0.105
Mof_C 	C 	0.2129	0.2079	0.3629	0.077
Mof_C 	C 	0.1709	0.0839	0.4971	0.341
Mof_C 	C 	0.74	0.196	0.5108	0.085
Mof_C 	C 	0.673	0.2831	0.5463	-0.136
Mof_C 	C 	0.7027	0.3688	0.5192	0.058
Mof_C 	C 	0.793	0.3674	0.4522	-0.131
Mof_C 	C 	0.8536	0.2767	0.4205	0.078
Mof_C 	C 	0.6292	0.6009	0.6019	0.067
Mof_C 	C 	0.6901	0.5148	0.5664	-0.125
Mof_C 	C 	0.6361	0.4624	0.5566	0.05
Mof_C 	C 	0.5208	0.5015	0.5841	-0.131
Mof_C 	C 	0.4646	0.5916	0.6162	0.072
Mof_C 	C 	0.4568	0.5848	0.8322	0.392
Mof_C 	C 	0.3823	0.549	0.8182	-0.157
Mof_C 	C 	0.4333	0.453	0.7934	0.058
Mof_C 	C 	0.3716	0.4202	0.7722	-0.114
Mof_C 	C 	0.2581	0.4832	0.7776	0.034
Mof_C 	C 	0.2051	0.5756	0.8072	-0.097
Mof_C 	C 	0.2675	0.6113	0.8275	0.067
Mof_C 	C 	0.08	0.6338	0.8152	0.327
Mof_C 	C 	0.1863	0.8369	0.7309	0.391
Mof_C 	C 	0.178	0.8127	0.8181	-0.154
Mof_C 	C 	0.1304	0.9003	0.8531	0.066
Mof_C 	C 	0.1247	0.8854	0.9318	-0.125
Mof_C 	C 	0.1662	0.7825	0.9759	0.051
Mof_C 	C 	0.2096	0.6937	0.9431	-0.107
Mof_C 	C 	0.2163	0.7079	0.8629	0.078
Mof_C 	C 	0.2481	0.5839	0.9971	0.343
Mof_C 	C 	0.5532	0.696	0.0108	0.088
Mof_C 	C 	0.4976	0.7831	0.0463	-0.141
Mof_C 	C 	0.4093	0.8688	0.0192	0.066
Mof_C 	C 	0.3874	0.8674	0.9522	-0.133
Mof_C 	C 	0.4492	0.7767	0.9205	0.08
Mof_C 	C 	0.168	0.1009	0.1019	0.054
Mof_C 	C 	0.2287	0.0148	0.0664	-0.098
Mof_C 	C 	0.3449	0.9624	0.0566	0.029
Mof_C 	C 	0.3936	0.0015	0.0841	-0.111
Mof_C 	C 	0.3276	0.0916	0.1162	0.062
Mof_C 	C 	0.8738	0.9152	0.6678	0.39
Mof_C 	C 	0.7495	0.951	0.6818	-0.151
Mof_C 	C 	0.6797	0.047	0.7066	0.049
Mof_C 	C 	0.564	0.0798	0.7278	-0.108
Mof_C 	C 	0.5189	0.0168	0.7224	0.027
Mof_C 	C 	0.5879	0.9244	0.6928	-0.093
Mof_C 	C 	0.7063	0.8887	0.6725	0.064
Mof_C 	C 	0.529	0.8662	0.6848	0.326
Mof_C 	C 	0.7541	0.6631	0.7691	0.391
Mof_C 	C 	0.8088	0.6873	0.6819	-0.153
Mof_C 	C 	0.8838	0.5997	0.6469	0.064
Mof_C 	C 	0.9419	0.6146	0.5682	-0.121
Mof_C 	C 	0.9246	0.7175	0.5241	0.045
Mof_C 	C 	0.8464	0.8063	0.5569	-0.105
Mof_C 	C 	0.7871	0.7921	0.6371	0.077
Mof_C 	C 	0.8291	0.9161	0.5029	0.341
Mof_C 	C 	0.26	0.804	0.4892	0.085
Mof_C 	C 	0.327	0.7169	0.4537	-0.136
Mof_C 	C 	0.2973	0.6312	0.4808	0.058
Mof_C 	C 	0.207	0.6326	0.5478	-0.131
Mof_C 	C 	0.1464	0.7233	0.5795	0.078
Mof_C 	C 	0.3708	0.3991	0.3981	0.067
Mof_C 	C 	0.3099	0.4852	0.4336	-0.125
Mof_C 	C 	0.3639	0.5376	0.4434	0.05
Mof_C 	C 	0.4792	0.4985	0.4159	-0.131
Mof_C 	C 	0.5354	0.4084	0.3838	0.072
Mof_N 	N 	0.4691	0.3091	0.0499	-0.265
Mof_N 	N 	0.784	0.8604	0.873	-0.25
Mof_N 	N 	0.8281	0.1909	0.4501	-0.265
Mof_N 	N 	0.5174	0.6396	0.627	-0.255
Mof_N 	N 	0.5309	0.6909	0.9501	-0.265
Mof_N 	N 	0.216	0.1396	0.127	-0.25
Mof_N 	N 	0.1719	0.8091	0.5499	-0.265
Mof_N 	N 	0.4826	0.3604	0.373	-0.255
Mof_O 	O 	0.4849	0.4788	0.1188	-0.455
Mof_O 	O 	0.54119	0.32592	0.2043	-0.471
Mof_O 	O 	0.72227	0.20726	0.3162	-0.498
Mof_O 	O 	0.90204	0.09462	0.2909	-0.461
Mof_O 	O 	0.965	0.3907	0.2173	-0.408
Mof_O 	O 	0.9752	0.2965	0.1451	-0.39
Mof_O 	O 	0.7706	0.4879	0.0061	-0.308
Mof_O 	O 	0.698	0.4232	0.957	-0.449
Mof_O 	O 	0.0825	0.0212	0.3812	-0.452
Mof_O 	O 	0.07141	0.17408	0.2957	-0.469
Mof_O 	O 	0.24573	0.29274	0.1838	-0.497
Mof_O 	O 	0.28756	0.40538	0.2091	-0.459
Mof_O 	O 	0.573	0.1093	0.2827	-0.408
Mof_O 	O 	0.4168	0.2035	0.3549	-0.388
Mof_O 	O 	0.2646	0.0121	0.4939	-0.306
Mof_O 	O 	0.0782	0.0768	0.543	-0.446
Mof_O 	O 	0.5151	0.5212	0.8812	-0.455
Mof_O 	O 	0.45881	0.67408	0.7957	-0.471
Mof_O 	O 	0.27773	0.79274	0.6838	-0.498
Mof_O 	O 	0.09796	0.90538	0.7091	-0.461
Mof_O 	O 	0.035	0.6093	0.7827	-0.408
Mof_O 	O 	0.0248	0.7035	0.8549	-0.39
Mof_O 	O 	0.2294	0.5121	0.9939	-0.308
Mof_O 	O 	0.302	0.5768	0.043	-0.449
Mof_O 	O 	0.9175	0.9788	0.6188	-0.452
Mof_O 	O 	0.92859	0.82592	0.7043	-0.469
Mof_O 	O 	0.75427	0.70726	0.8162	-0.497
Mof_O 	O 	0.71244	0.59462	0.7909	-0.459
Mof_O 	O 	0.427	0.8907	0.7173	-0.408
Mof_O 	O 	0.5832	0.7965	0.6451	-0.388
Mof_O 	O 	0.7354	0.9879	0.5061	-0.306
Mof_O 	O 	0.9218	0.9232	0.457	-0.446
_end
