data_functionalizedCrystal
_audit_creation_method	'EQeq! by Chris Wilmer'
_symmetry_space_group_name_H-M	'P1'
_symmetry_Int_Tables_number	1
_symmetry_cell_setting	triclinic
loop_
_symmetry_equiv_pos_as_xyz
  x,y,z
_cell_length_a	6.4265
_cell_length_b	16.6399
_cell_length_c	16.6399
_cell_angle_alpha	61.6315
_cell_angle_beta	82.6034
_cell_angle_gamma	97.3966
loop_
_atom_site_label
_atom_site_type_symbol
_atom_site_fract_x
_atom_site_fract_y
_atom_site_fract_z
_atom_site_charge
Mof_Mn	Mn	0.52649	0.24414	0.42157	0.814
Mof_Mn	Mn	0.94806	0.42157	0.33429	0.814
Mof_Mn	Mn	0.28235	0.33429	0.24414	0.814
Mof_Mn	Mn	0.47351	0.75586	0.57843	0.814
Mof_Mn	Mn	0.05194	0.57843	0.66571	0.814
Mof_Mn	Mn	0.71765	0.66571	0.75586	0.814
Mof_P 	P 	0.78276	0.35156	0.19227	0.438
Mof_P 	P 	0.97503	0.19227	0.45617	0.438
Mof_P 	P 	0.4312	0.45617	0.35156	0.438
Mof_P 	P 	0.21724	0.64844	0.80773	0.438
Mof_P 	P 	0.02497	0.80773	0.54383	0.438
Mof_P 	P 	0.5688	0.54383	0.64844	0.438
Mof_C 	C 	0.70071	0.45496	0.10409	-0.066
Mof_C 	C 	0.44753	0.56036	0.03657	-0.014
Mof_C 	C 	0.39241	0.40203	0.0562	-0.05
Mof_C 	C 	0.8048	0.10409	0.44095	-0.066
Mof_C 	C 	0.4841	0.03657	0.40307	-0.014
Mof_C 	C 	0.44861	0.0562	0.54177	-0.05
Mof_C 	C 	0.24575	0.44095	0.45496	-0.066
Mof_C 	C 	0.88717	0.40307	0.56036	-0.014
Mof_C 	C 	0.99038	0.54177	0.40203	-0.051
Mof_C 	C 	0.29929	0.54504	0.89591	-0.066
Mof_C 	C 	0.55247	0.43964	0.96343	-0.014
Mof_C 	C 	0.60759	0.59797	0.9438	-0.051
Mof_C 	C 	0.1952	0.89591	0.55905	-0.066
Mof_C 	C 	0.5159	0.96343	0.59693	-0.014
Mof_C 	C 	0.55139	0.9438	0.45823	-0.051
Mof_C 	C 	0.75425	0.55905	0.54504	-0.066
Mof_C 	C 	0.11283	0.59693	0.43964	-0.014
Mof_C 	C 	0.00962	0.45823	0.59797	-0.051
Mof_N 	N 	0.46907	0.4601	0.09987	-0.14
Mof_N 	N 	0.56894	0.09987	0.44003	-0.14
Mof_N 	N 	0.00897	0.44003	0.4601	-0.14
Mof_N 	N 	0.53093	0.5399	0.90013	-0.14
Mof_N 	N 	0.43106	0.90013	0.55997	-0.14
Mof_N 	N 	0.99103	0.55997	0.5399	-0.14
Mof_O 	O 	0.84828	0.29495	0.14901	-0.264
Mof_O 	O 	0.58724	0.29234	0.26892	-0.414
Mof_O 	O 	0.95385	0.36963	0.23872	-0.429
Mof_O 	O 	0.99729	0.14901	0.55604	-0.264
Mof_O 	O 	0.85616	0.26892	0.43874	-0.414
Mof_O 	O 	0.19257	0.23872	0.39165	-0.429
Mof_O 	O 	0.55333	0.55604	0.29495	-0.264
Mof_O 	O 	0.2949	0.43874	0.29234	-0.414
Mof_O 	O 	0.58422	0.39165	0.36963	-0.429
Mof_O 	O 	0.15172	0.70505	0.85099	-0.264
Mof_O 	O 	0.41276	0.70766	0.73108	-0.414
Mof_O 	O 	0.04615	0.63037	0.76128	-0.429
Mof_O 	O 	0.00271	0.85099	0.44396	-0.264
Mof_O 	O 	0.14384	0.73108	0.56126	-0.414
Mof_O 	O 	0.80743	0.76128	0.60835	-0.429
Mof_O 	O 	0.44667	0.44396	0.70505	-0.264
Mof_O 	O 	0.7051	0.56126	0.70766	-0.414
Mof_O 	O 	0.41578	0.60835	0.63037	-0.429
Mof_H 	H 	0.27703	0.56048	0.02433	0.038
Mof_H 	H 	0.48835	0.6059	0.06872	0.039
Mof_H 	H 	0.39123	0.32522	0.10452	0.006
Mof_H 	H 	0.22497	0.40992	0.04236	0.042
Mof_H 	H 	0.30137	0.02433	0.41519	0.037
Mof_H 	H 	0.55707	0.06872	0.32537	0.039
Mof_H 	H 	0.49575	0.10452	0.57027	0.006
Mof_H 	H 	0.26733	0.04236	0.54772	0.042
Mof_H 	H 	0.71656	0.41519	0.56048	0.038
Mof_H 	H 	0.88245	0.32537	0.6059	0.039
Mof_H 	H 	0.06602	0.57027	0.32522	0.007
Mof_H 	H 	0.81505	0.54772	0.40992	0.042
Mof_H 	H 	0.51125	0.39514	0.93023	0.039
Mof_H 	H 	0.72217	0.43823	0.97646	0.038
Mof_H 	H 	0.7751	0.58933	0.95711	0.042
Mof_H 	H 	0.60961	0.67506	0.89635	0.007
Mof_H 	H 	0.44148	0.93023	0.67463	0.039
Mof_H 	H 	0.69863	0.97646	0.58531	0.038
Mof_H 	H 	0.73222	0.95711	0.45355	0.042
Mof_H 	H 	0.50596	0.89635	0.42859	0.007
Mof_H 	H 	0.11611	0.67463	0.39514	0.039
Mof_H 	H 	0.28395	0.58531	0.43823	0.038
Mof_H 	H 	0.18577	0.45355	0.58933	0.042
Mof_H 	H 	0.93455	0.42859	0.67506	0.008
_end
