data_functionalizedCrystal
_audit_creation_method	'EQeq! by Chris Wilmer'
_symmetry_space_group_name_H-M	'P1'
_symmetry_Int_Tables_number	1
_symmetry_cell_setting	triclinic
loop_
_symmetry_equiv_pos_as_xyz
  x,y,z
_cell_length_a	10.799
_cell_length_b	18.1608
_cell_length_c	19.6826
_cell_angle_alpha	82.7946
_cell_angle_beta	74.078
_cell_angle_gamma	72.7035
loop_
_atom_site_label
_atom_site_type_symbol
_atom_site_fract_x
_atom_site_fract_y
_atom_site_fract_z
_atom_site_charge
Mof_Cd	Cd	0.24915	0.75	0.75	0.38
Mof_Cd	Cd	0.05702	0.63369	0.59855	0.471
Mof_Cd	Cd	0.94298	0.36631	0.40145	0.479
Mof_Cd	Cd	0.37926	0.93953	0.51668	0.437
Mof_Cd	Cd	0.78926	0.86631	0.90145	0.477
Mof_Cd	Cd	0.33547	0.56047	0.98332	0.443
Mof_Cd	Cd	-3.21138e-17	0.5	0.5	0.503
Mof_Cd	Cd	0.66453	0.43953	0.01668	0.421
Mof_Cd	Cd	0.75085	0.25	0.25	0.38
Mof_Cd	Cd	0.62074	0.06047	0.48332	0.428
Mof_Cd	Cd	0.21074	0.13369	0.09855	0.474
Mof_Cd	Cd	0.5	0	-0	0.489
Mof_H 	H 	0.4354	0.3892	0.8222	0.076
Mof_H 	H 	0.1712	0.8516	0.2356	0.069
Mof_H 	H 	0.6904	0.5877	0.3945	0.078
Mof_H 	H 	0.5442	0.9422	0.723	0.043
Mof_H 	H 	0.8532	0.8892	0.3222	0.078
Mof_H 	H 	0.7289	0.1559	0.6737	0.044
Mof_H 	H 	0.3573	0.2006	0.768	0.075
Mof_H 	H 	0.4871	0.122	0.8376	0.029
Mof_H 	H 	0.5129	0.878	0.1624	0.045
Mof_H 	H 	0.3607	0.8261	0.0563	0.038
Mof_H 	H 	0.1725	0.9795	0.7639	0.1
Mof_H 	H 	0.4876	0.596	0.4748	0.041
Mof_H 	H 	0.5646	0.6108	0.1778	0.071
Mof_H 	H 	0.9467	0.378	0.6624	0.04
Mof_H 	H 	0.1468	0.1108	0.6778	0.07
Mof_H 	H 	0.7657	0.249	0.8706	0.08
Mof_H 	H 	0.4159	0.5205	0.7361	0.085
Mof_H 	H 	0.6163	0.515	0.6546	0.04
Mof_H 	H 	0.8823	0.9279	0.6537	0.053
Mof_H 	H 	0.0361	0.4279	0.1537	0.038
Mof_H 	H 	0.8274	0.0877	0.8945	0.088
Mof_H 	H 	0.2859	0.985	0.8454	0.043
Mof_H 	H 	0.2906	0.4422	0.223	0.054
Mof_H 	H 	0.8275	0.0205	0.2361	0.063
Mof_H 	H 	0.6147	0.749	0.3706	0.079
Mof_H 	H 	0.2343	0.751	0.1294	0.073
Mof_H 	H 	0.1741	0.7006	0.268	0.067
Mof_H 	H 	0.0533	0.622	0.3376	0.036
Mof_H 	H 	0.9415	0.6559	0.1737	0.035
Mof_H 	H 	0.3837	0.485	0.3454	0.042
Mof_H 	H 	0.7141	0.015	0.1546	0.041
Mof_H 	H 	0.6427	0.7994	0.232	0.062
Mof_H 	H 	0.0323	0.2538	0.388	0.304
Mof_H 	H 	0.8288	0.1484	0.7644	0.06
Mof_H 	H 	0.7094	0.5578	0.777	0.055
Mof_H 	H 	0.3096	0.4123	0.6055	0.081
Mof_H 	H 	0.0111	0.2199	0.3295	0.331
Mof_H 	H 	0.0585	0.3441	0.8263	0.05
Mof_H 	H 	0.692	0.6843	0.1031	0.041
Mof_H 	H 	0.4558	0.0578	0.277	0.064
Mof_H 	H 	0.9639	0.5721	0.8463	0.069
Mof_H 	H 	0.9416	0.096	0.9748	0.035
Mof_H 	H 	0.6393	0.1739	0.9437	0.034
Mof_H 	H 	0.2416	0.3516	0.7356	0.058
Mof_H 	H 	0.3853	0.251	0.6294	0.074
Mof_H 	H 	0.1177	0.0721	0.3463	0.047
Mof_H 	H 	0.7431	0.6739	0.4437	0.034
Mof_H 	H 	0.2711	0.8441	0.3263	0.038
Mof_H 	H 	0.1726	0.9123	0.1055	0.07
Mof_H 	H 	0.308	0.3157	0.8969	0.037
Mof_H 	H 	0.9794	0.8157	0.3969	0.04
Mof_H 	H 	0.9889	0.7801	0.6705	0.336
Mof_H 	H 	0.8259	0.2994	0.732	0.068
Mof_H 	H 	0.8259	0.7538	0.888	0.307
Mof_H 	H 	0.5124	0.404	0.5252	0.039
Mof_H 	H 	0.2569	0.3261	0.5563	0.038
Mof_H 	H 	0.7584	0.6484	0.2644	0.07
Mof_H 	H 	0.9395	0.7199	0.8295	0.335
Mof_H 	H 	0.0605	0.2801	0.1705	0.332
Mof_H 	H 	0.9677	0.7462	0.612	0.309
Mof_H 	H 	0.5841	0.4795	0.2639	0.082
Mof_H 	H 	0.0584	0.904	0.0252	0.046
Mof_H 	H 	0.0206	0.1843	0.6031	0.039
Mof_H 	H 	0.1741	0.2462	0.112	0.305
Mof_C 	C 	0.12927	0.26116	0.5695	-0.091
Mof_C 	C 	0.28036	0.54681	0.47067	0.319
Mof_C 	C 	0.98839	0.07218	0.93244	0.063
Mof_C 	C 	0.71707	0.82883	0.34103	0.061
Mof_C 	C 	0.92001	0.06765	0.88413	-0.128
Mof_C 	C 	0.52786	0.89847	0.19941	0.008
Mof_C 	C 	0.82894	0.84681	0.34791	-0.106
Mof_C 	C 	0.84769	0.38878	0.25544	0.329
Mof_C 	C 	0.7803	0.10853	0.68767	0.012
Mof_C 	C 	0.50643	0.99432	0.73182	0.068
Mof_C 	C 	0.49301	0.42782	0.56756	0.04
Mof_C 	C 	0.5452	0.49465	0.87115	0.311
Mof_C 	C 	0.68702	0.76312	0.37644	-0.113
Mof_C 	C 	0.12548	0.00278	0.80646	-0.143
Mof_C 	C 	0.87404	0.4514	0.90572	0.282
Mof_C 	C 	0.59738	0.21826	0.92058	0.043
Mof_C 	C 	0.07999	0.93235	0.11587	-0.077
Mof_C 	C 	0.12596	0.5486	0.09428	0.301
Mof_C 	C 	0.39975	0.30266	0.89244	0.041
Mof_C 	C 	0.31298	0.23688	0.62356	-0.101
Mof_C 	C 	0.00726	0.54245	0.15343	-0.103
Mof_C 	C 	0.18602	0.39625	0.75771	-0.075
Mof_C 	C 	0.20314	0.95755	0.34657	-0.082
Mof_C 	C 	0.23622	0.28174	0.57942	0.028
Mof_C 	C 	0.19362	0.00641	0.85515	0.046
Mof_C 	C 	0.08304	0.96658	0.23474	0.064
Mof_C 	C 	0.91866	0.52772	0.66676	0.31
Mof_C 	C 	0.87059	0.46691	0.23151	-0.107
Mof_C 	C 	0.40262	0.78174	0.07942	0.021
Mof_C 	C 	0.1983	0.64862	0.25858	-0.099
Mof_C 	C 	0.26743	0.49432	0.23182	0.028
Mof_C 	C 	0.12941	0.53309	0.76849	-0.077
Mof_C 	C 	0.20216	0.04681	0.97067	0.336
Mof_C 	C 	0.01161	0.92782	0.06756	0.006
Mof_C 	C 	0.98012	0.47234	0.17602	0.058
Mof_C 	C 	0.81398	0.60375	0.24229	-0.109
Mof_C 	C 	0.60025	0.69734	0.10756	0.019
Mof_C 	C 	0.65885	0.53347	0.32003	0.049
Mof_C 	C 	0.93099	0.96691	0.73151	-0.067
Mof_C 	C 	0.37584	0.19657	0.98455	0.342
Mof_C 	C 	0.49357	0.00568	0.26818	-0.004
Mof_C 	C 	0.32658	0.73688	0.12356	-0.099
Mof_C 	C 	0.79784	0.95319	0.02933	0.294
Mof_C 	C 	0.84008	0.47627	0.71197	-0.085
Mof_C 	C 	0.57085	0.95875	0.31135	-0.076
Mof_C 	C 	0.69237	0.37996	0.7979	0.044
Mof_C 	C 	0.26884	0.9514	0.40572	0.302
Mof_C 	C 	0.16002	0.89625	0.25771	-0.108
Mof_C 	C 	0.52832	0.02373	0.78803	-0.12
Mof_C 	C 	0.3945	0.14862	0.75858	-0.117
Mof_C 	C 	0.01235	0.96653	0.17997	0.024
Mof_C 	C 	0.47214	0.10153	0.80059	0.051
Mof_C 	C 	0.34095	0.54125	0.18865	-0.096
Mof_C 	C 	0.80638	0.99359	0.14485	0.018
Mof_C 	C 	0.42915	0.04125	0.68865	-0.118
Mof_C 	C 	0.9235	0.60853	0.18767	0.041
Mof_C 	C 	0.83998	0.10375	0.74229	-0.081
Mof_C 	C 	0.67342	0.26312	0.87644	-0.113
Mof_C 	C 	0.87402	0.95831	0.08145	-0.067
Mof_C 	C 	0.12848	0.02766	0.32398	0.034
Mof_C 	C 	0.38686	0.02772	0.16676	0.29
Mof_C 	C 	0.4548	0.50535	0.12885	0.314
Mof_C 	C 	0.45993	0.23884	0.9305	-0.106
Mof_C 	C 	0.09485	0.19734	0.60756	0.025
Mof_C 	C 	0.87073	0.73884	0.4305	-0.1
Mof_C 	C 	0.62416	0.80343	0.01545	0.277
Mof_C 	C 	0.87426	0.39847	0.69941	0.027
Mof_C 	C 	0.28293	0.17117	0.65897	0.044
Mof_C 	C 	0.62821	0.56765	0.38413	-0.1
Mof_C 	C 	0.99274	0.45755	0.84657	-0.044
Mof_C 	C 	0.38693	0.67117	0.15897	0.046
Mof_C 	C 	0.94304	0.69657	0.48455	0.325
Mof_C 	C 	0.52366	0.65319	0.15209	-0.092
Mof_C 	C 	0.78436	0.53342	0.26526	0.054
Mof_C 	C 	0.44482	0.50641	0.35515	0.032
Mof_C 	C 	0.61314	0.97228	0.83324	0.32
Mof_C 	C 	0.21564	0.46658	0.73474	0.028
Mof_C 	C 	0.01988	0.52766	0.82398	-0.009
Mof_C 	C 	0.2197	0.89147	0.31233	0.028
Mof_C 	C 	0.30763	0.62004	0.2021	0.048
Mof_C 	C 	0.47168	0.97627	0.21197	-0.058
Mof_C 	C 	0.41378	0.54169	0.41855	-0.089
Mof_C 	C 	0.56528	0.50278	0.30646	-0.102
Mof_C 	C 	0.411	0.00535	0.62885	0.311
Mof_C 	C 	0.34115	0.46653	0.67997	0.062
Mof_C 	C 	0.12598	0.04169	0.91855	-0.111
Mof_C 	C 	0.12574	0.60153	0.30059	0.027
Mof_C 	C 	0.00809	0.88878	0.75544	0.3
Mof_C 	C 	0.50699	0.57218	0.43244	0.033
Mof_C 	C 	0.8017	0.35138	0.74142	-0.096
Mof_C 	C 	0.91696	0.03342	0.76526	0.016
Mof_C 	C 	0.37179	0.43235	0.61587	-0.109
Mof_C 	C 	0.58622	0.45831	0.58145	-0.094
Mof_C 	C 	0.55518	0.49359	0.64485	0.039
Mof_C 	C 	0.37023	0.12004	0.7021	0.061
Mof_C 	C 	0.87452	0.99722	0.19354	-0.064
Mof_C 	C 	0.54007	0.76116	0.0695	-0.081
Mof_C 	C 	0.6055	0.85138	0.24142	-0.082
Mof_C 	C 	0.87152	0.97234	0.67602	0.031
Mof_C 	C 	0.99191	0.11122	0.24456	0.334
Mof_C 	C 	0.65905	0.45875	0.81135	-0.093
Mof_C 	C 	0.05696	0.30343	0.51545	0.308
Mof_C 	C 	0.98765	0.03347	0.82003	0.083
Mof_C 	C 	0.15231	0.61122	0.74456	0.316
Mof_C 	C 	0.589	0.99465	0.37115	0.316
Mof_C 	C 	0.17106	0.15319	0.65209	-0.093
Mof_C 	C 	0.90515	0.80266	0.39244	0.038
Mof_C 	C 	0.06901	0.03309	0.26849	-0.11
Mof_C 	C 	0.73257	0.50568	0.76818	0.028
Mof_C 	C 	0.79686	0.04245	0.65343	-0.081
Mof_C 	C 	0.47634	0.34681	0.84791	-0.106
Mof_C 	C 	0.76378	0.71826	0.42058	0.04
Mof_C 	C 	0.43472	0.49722	0.69354	-0.112
Mof_C 	C 	0.08134	0.47228	0.33324	0.298
Mof_C 	C 	0.62977	0.87996	0.2979	0.033
Mof_C 	C 	0.71964	0.45319	0.52933	0.321
Mof_C 	C 	0.73116	0.0486	0.59428	0.283
Mof_C 	C 	0.15992	0.52373	0.28803	-0.085
Mof_C 	C 	0.0765	0.39147	0.81233	-0.01
Mof_C 	C 	0.61307	0.32883	0.84103	0.058
Mof_O 	O 	0.24745	0.59204	0.51966	-0.278
Mof_O 	O 	0.98586	0.49978	0.38534	-0.279
Mof_O 	O 	0.01761	0.72583	0.50415	-0.292
Mof_O 	O 	0.07859	0.36679	0.48763	-0.285
Mof_O 	O 	0.62033	0.05651	0.35883	-0.282
Mof_O 	O 	0.14085	0.09204	0.01966	-0.289
Mof_O 	O 	0.98408	0.8675	0.81912	-0.268
Mof_O 	O 	0.56699	0.86679	0.98763	-0.261
Mof_O 	O 	0.33134	0.09717	0.18215	-0.247
Mof_O 	O 	0.05201	0.24555	0.34423	-0.609
Mof_O 	O 	0.01592	0.1325	0.18088	-0.288
Mof_O 	O 	0.66591	0.11316	0.57478	-0.265
Mof_O 	O 	0.74379	0.98755	0.56407	-0.244
Mof_O 	O 	0.53567	0.44349	0.14117	-0.278
Mof_O 	O 	0.98239	0.27417	0.49585	-0.279
Mof_O 	O 	0.75255	0.40796	0.48034	-0.278
Mof_O 	O 	0.46433	0.55651	0.85883	-0.276
Mof_O 	O 	0.01414	0.50022	0.61466	-0.29
Mof_O 	O 	0.8293	0.3675	0.31912	-0.283
Mof_O 	O 	0.33409	0.88684	0.42522	-0.27
Mof_O 	O 	0.90271	0.15255	0.29143	-0.298
Mof_O 	O 	0.14179	0.25445	0.15577	-0.609
Mof_O 	O 	0.42651	0.03704	0.567	-0.289
Mof_O 	O 	0.21129	0.50539	0.46063	-0.279
Mof_O 	O 	0.92141	0.63321	0.51237	-0.284
Mof_O 	O 	0.66866	0.90283	0.81785	-0.252
Mof_O 	O 	0.53055	0.46296	0.933	-0.282
Mof_O 	O 	0.94799	0.75445	0.65577	-0.609
Mof_O 	O 	0.85821	0.74555	0.84423	-0.609
Mof_O 	O 	0.74759	0.77417	0.99585	-0.263
Mof_O 	O 	0.85915	0.90796	0.98034	-0.257
Mof_O 	O 	0.62902	0.99978	0.88534	-0.28
Mof_O 	O 	0.85385	0.38684	0.92522	-0.259
Mof_O 	O 	0.57349	0.96296	0.433	-0.284
Mof_O 	O 	0.43301	0.13321	0.01237	-0.299
Mof_O 	O 	0.11066	0.40283	0.31785	-0.25
Mof_O 	O 	0.84669	0.34745	0.20857	-0.298
Mof_O 	O 	0.32269	0.00539	0.96063	-0.281
Mof_O 	O 	0.1707	0.6325	0.68088	-0.281
Mof_O 	O 	0.09729	0.84745	0.70857	-0.294
Mof_O 	O 	0.25621	0.01245	0.43593	-0.263
Mof_O 	O 	0.14615	0.61316	0.07478	-0.276
Mof_O 	O 	0.78871	0.49461	0.53937	-0.277
Mof_O 	O 	0.15331	0.65255	0.79143	-0.297
Mof_O 	O 	0.37967	0.94349	0.64117	-0.273
Mof_O 	O 	0.25241	0.22583	0.00415	-0.299
Mof_O 	O 	0.79541	0.51245	0.93593	-0.245
Mof_O 	O 	0.20459	0.48755	0.06407	-0.262
Mof_O 	O 	0.88934	0.59717	0.68215	-0.248
Mof_O 	O 	0.37098	0.00022	0.11466	-0.284
Mof_O 	O 	0.67731	0.99461	0.03937	-0.271
Mof_O 	O 	0.46945	0.53704	0.067	-0.291
_end
