data_functionalizedCrystal
_audit_creation_method	'EQeq! by Chris Wilmer'
_symmetry_space_group_name_H-M	'P1'
_symmetry_Int_Tables_number	1
_symmetry_cell_setting	triclinic
loop_
_symmetry_equiv_pos_as_xyz
  x,y,z
_cell_length_a	17.5575
_cell_length_b	17.5575
_cell_length_c	17.5575
_cell_angle_alpha	108.339
_cell_angle_beta	110.04
_cell_angle_gamma	110.04
loop_
_atom_site_label
_atom_site_type_symbol
_atom_site_fract_x
_atom_site_fract_y
_atom_site_fract_z
_atom_site_charge
Mof_Cu	Cu	0.47032	0.04468	0.04716	0.897
Mof_Cu	Cu	0.52968	0.57684	0.57436	0.911
Mof_Cu	Cu	0.99752	0.42316	0.95284	0.921
Mof_Cu	Cu	0.00248	0.95532	0.42564	0.908
Mof_Cu	Cu	0.52968	0.95532	0.95284	0.919
Mof_Cu	Cu	0.47032	0.42316	0.42564	0.911
Mof_Cu	Cu	0.00248	0.57684	0.04716	0.902
Mof_Cu	Cu	0.99752	0.04468	0.57436	0.907
Mof_Cu	Cu	0.066	0.5	0.566	0.911
Mof_Cu	Cu	0.934	0.5	0.434	0.907
Mof_Cu	Cu	0.4344	0.4344	-0	0.895
Mof_Cu	Cu	0.5656	0.5656	-0	0.896
Mof_H 	H 	0.4544	0.7466	0.9962	0.036
Mof_H 	H 	0.6629	0.8884	0.1457	0.107
Mof_H 	H 	0.7364	0.2009	0.2641	0.021
Mof_H 	H 	0.2363	0.837	0.9929	0.157
Mof_H 	H 	0.5456	0.5418	0.2922	0.018
Mof_H 	H 	0.3371	0.4828	0.2255	0.112
Mof_H 	H 	0.2636	0.5277	0.4645	0.022
Mof_H 	H 	0.7637	0.7566	0.6007	0.147
Mof_H 	H 	0.7504	0.4582	0.0038	0.004
Mof_H 	H 	0.7427	0.5172	0.8543	0.126
Mof_H 	H 	0.9368	0.4723	0.7359	0.021
Mof_H 	H 	0.8441	0.2434	0.0071	0.128
Mof_H 	H 	0.2496	0.2534	0.7078	0.023
Mof_H 	H 	0.2573	0.1116	0.7745	0.12
Mof_H 	H 	0.0632	0.7991	0.5355	0.024
Mof_H 	H 	0.1559	0.163	0.3993	0.145
Mof_H 	H 	0.5456	0.2534	0.0038	0.003
Mof_H 	H 	0.3371	0.1116	0.8543	0.125
Mof_H 	H 	0.2636	0.7991	0.7359	0.025
Mof_H 	H 	0.7637	0.163	0.0071	0.127
Mof_H 	H 	0.4544	0.4582	0.7078	0.022
Mof_H 	H 	0.6629	0.5172	0.7745	0.122
Mof_H 	H 	0.7364	0.4723	0.5355	0.021
Mof_H 	H 	0.2363	0.2434	0.3993	0.144
Mof_H 	H 	0.2496	0.5418	0.9962	0.038
Mof_H 	H 	0.2573	0.4828	0.1457	0.107
Mof_H 	H 	0.0632	0.5277	0.2641	0.021
Mof_H 	H 	0.1559	0.7566	0.9929	0.158
Mof_H 	H 	0.7504	0.7466	0.2922	0.019
Mof_H 	H 	0.7427	0.8884	0.2255	0.111
Mof_H 	H 	0.9368	0.2009	0.4645	0.021
Mof_H 	H 	0.8441	0.837	0.6007	0.147
Mof_C 	C 	0.3458	0.7658	0.9902	-0.217
Mof_C 	C 	0.3954	0.7206	0.9928	0.089
Mof_C 	C 	0.3929	0.851	0.9853	0.507
Mof_C 	C 	0.7272	0.0797	0.2341	-0.171
Mof_C 	C 	0.7676	0.1694	0.2818	0.106
Mof_C 	C 	0.6326	0.0292	0.1412	0.406
Mof_C 	C 	0.6542	0.6444	0.42	-0.223
Mof_C 	C 	0.6046	0.5974	0.3252	0.115
Mof_C 	C 	0.6071	0.5924	0.4581	0.471
Mof_C 	C 	0.2728	0.5069	0.3525	-0.173
Mof_C 	C 	0.2324	0.5142	0.4018	0.108
Mof_C 	C 	0.3674	0.5086	0.3966	0.415
Mof_C 	C 	0.7756	0.3556	0.0098	-0.225
Mof_C 	C 	0.7278	0.4026	0.0072	0.138
Mof_C 	C 	0.8657	0.4076	0.0147	0.426
Mof_C 	C 	0.8456	0.4931	0.7659	-0.171
Mof_C 	C 	0.8876	0.4858	0.7182	0.109
Mof_C 	C 	0.888	0.4914	0.8588	0.412
Mof_C 	C 	0.2244	0.2342	0.58	-0.219
Mof_C 	C 	0.2722	0.2794	0.6748	0.113
Mof_C 	C 	0.1343	0.149	0.5419	0.469
Mof_C 	C 	0.1544	0.9203	0.6475	-0.162
Mof_C 	C 	0.1124	0.8306	0.5982	0.1
Mof_C 	C 	0.112	0.9708	0.6034	0.391
Mof_C 	C 	0.6542	0.2342	0.0098	-0.224
Mof_C 	C 	0.6046	0.2794	0.0072	0.138
Mof_C 	C 	0.6071	0.149	0.0147	0.42
Mof_C 	C 	0.2728	0.9203	0.7659	-0.16
Mof_C 	C 	0.2324	0.8306	0.7182	0.099
Mof_C 	C 	0.3674	0.9708	0.8588	0.39
Mof_C 	C 	0.3458	0.3556	0.58	-0.221
Mof_C 	C 	0.3954	0.4026	0.6748	0.113
Mof_C 	C 	0.3929	0.4076	0.5419	0.471
Mof_C 	C 	0.7272	0.4931	0.6475	-0.174
Mof_C 	C 	0.7676	0.4858	0.5982	0.11
Mof_C 	C 	0.6326	0.4914	0.6034	0.415
Mof_C 	C 	0.2244	0.6444	0.9902	-0.217
Mof_C 	C 	0.2722	0.5974	0.9928	0.09
Mof_C 	C 	0.1343	0.5924	0.9853	0.513
Mof_C 	C 	0.1544	0.5069	0.2341	-0.175
Mof_C 	C 	0.1124	0.5142	0.2818	0.109
Mof_C 	C 	0.112	0.5086	0.1412	0.417
Mof_C 	C 	0.7756	0.7658	0.42	-0.223
Mof_C 	C 	0.7278	0.7206	0.3252	0.115
Mof_C 	C 	0.8657	0.851	0.4581	0.471
Mof_C 	C 	0.8456	0.0797	0.3525	-0.169
Mof_C 	C 	0.8876	0.1694	0.4018	0.105
Mof_C 	C 	0.888	0.0292	0.3966	0.402
Mof_C 	C 	0.7568	0.0243	0.2675	0.15
Mof_C 	C 	0.699	0.9125	0.2135	-0.228
Mof_C 	C 	0.634	0.882	0.248	0.037
Mof_C 	C 	0.8589	0.2194	0.3605	-0.146
Mof_C 	C 	0.9123	0.3264	0.4141	0.405
Mof_C 	C 	0.2432	0.5107	0.2675	0.158
Mof_C 	C 	0.301	0.5145	0.2135	-0.235
Mof_C 	C 	0.366	0.614	0.248	0.037
Mof_C 	C 	0.1411	0.5016	0.3605	-0.146
Mof_C 	C 	0.0877	0.5018	0.4141	0.405
Mof_C 	C 	0.7568	0.4893	0.7325	0.163
Mof_C 	C 	0.699	0.4855	0.7865	-0.249
Mof_C 	C 	0.634	0.386	0.752	0.055
Mof_C 	C 	0.8589	0.4984	0.6395	-0.146
Mof_C 	C 	0.9123	0.4982	0.5859	0.406
Mof_C 	C 	0.2432	0.9757	0.7325	0.146
Mof_C 	C 	0.301	0.0875	0.7865	-0.234
Mof_C 	C 	0.366	0.118	0.752	0.056
Mof_C 	C 	0.1411	0.7806	0.6395	-0.14
Mof_C 	C 	0.0877	0.6736	0.5859	0.403
Mof_C 	C 	0.4129	0.5873	0.0002	0.195
Mof_C 	C 	0.142	0.716	0.858	0.064
Mof_C 	C 	0.2539	0.7265	0.9804	0.242
Mof_C 	C 	0.3568	0.6337	0.9905	-0.069
Mof_C 	C 	0.1977	0.7692	0.9669	-0.331
Mof_C 	C 	0.5871	0.5873	0.1744	0.315
Mof_C 	C 	0.858	0.716	0.574	0.059
Mof_C 	C 	0.7461	0.7265	0.4726	0.235
Mof_C 	C 	0.6432	0.6337	0.2769	-0.14
Mof_C 	C 	0.8023	0.7692	0.5715	-0.322
Mof_C 	C 	0.5871	0.4127	0.9998	0.44
Mof_C 	C 	0.858	0.284	0.142	0.049
Mof_C 	C 	0.7461	0.2735	0.0196	0.222
Mof_C 	C 	0.6432	0.3663	0.0095	-0.208
Mof_C 	C 	0.8023	0.2308	0.0331	-0.304
Mof_C 	C 	0.4129	0.4127	0.8256	0.314
Mof_C 	C 	0.142	0.284	0.426	0.059
Mof_C 	C 	0.2539	0.2735	0.5274	0.233
Mof_C 	C 	0.3568	0.3663	0.7231	-0.134
Mof_C 	C 	0.1977	0.2308	0.4285	-0.32
Mof_O 	O 	0.5706	0.0552	0.1468	-0.415
Mof_O 	O 	0.9875	0.3643	0.4864	-0.424
Mof_O 	O 	0.4355	0.8532	0.9481	-0.482
Mof_O 	O 	0.3854	0.921	0.027	-0.459
Mof_O 	O 	0.3735	0.5058	0.9953	-0.33
Mof_O 	O 	0.6239	0.9805	0.0738	-0.458
Mof_O 	O 	0.4294	0.5762	0.4846	-0.41
Mof_O 	O 	0.0125	0.4989	0.3768	-0.419
Mof_O 	O 	0.5645	0.5126	0.4177	-0.479
Mof_O 	O 	0.6146	0.6416	0.5356	-0.42
Mof_O 	O 	0.6265	0.6218	0.1323	-0.395
Mof_O 	O 	0.3761	0.4499	0.3566	-0.451
Mof_O 	O 	0.9084	0.4238	0.8532	-0.405
Mof_O 	O 	0.8779	0.5011	0.5136	-0.423
Mof_O 	O 	0.9051	0.4874	0.0519	-0.474
Mof_O 	O 	0.894	0.3584	0.973	-0.378
Mof_O 	O 	0.5105	0.3782	0.0047	-0.444
Mof_O 	O 	0.9067	0.5501	0.9262	-0.432
Mof_O 	O 	0.0916	0.9448	0.5154	-0.409
Mof_O 	O 	0.1221	0.6357	0.6232	-0.42
Mof_O 	O 	0.0949	0.1468	0.5823	-0.471
Mof_O 	O 	0.106	0.079	0.4644	-0.416
Mof_O 	O 	0.4895	0.4942	0.8677	-0.376
Mof_O 	O 	0.0933	0.0195	0.6434	-0.427
Mof_O 	O 	0.4294	0.9448	0.8532	-0.402
Mof_O 	O 	0.0125	0.6357	0.5136	-0.42
Mof_O 	O 	0.5645	0.1468	0.0519	-0.473
Mof_O 	O 	0.6146	0.079	0.973	-0.369
Mof_O 	O 	0.6265	0.4942	0.0047	-0.443
Mof_O 	O 	0.3761	0.0195	0.9262	-0.411
Mof_O 	O 	0.5706	0.4238	0.5154	-0.411
Mof_O 	O 	0.9875	0.5011	0.6232	-0.423
Mof_O 	O 	0.4355	0.4874	0.5823	-0.477
Mof_O 	O 	0.3854	0.3584	0.4644	-0.422
Mof_O 	O 	0.3735	0.3782	0.8677	-0.375
Mof_O 	O 	0.6239	0.5501	0.6434	-0.447
Mof_O 	O 	0.0916	0.5762	0.1468	-0.416
Mof_O 	O 	0.1221	0.4989	0.4864	-0.42
Mof_O 	O 	0.0949	0.5126	0.9481	-0.478
Mof_O 	O 	0.106	0.6416	0.027	-0.463
Mof_O 	O 	0.4895	0.6218	0.9953	-0.332
Mof_O 	O 	0.0933	0.4499	0.0738	-0.466
Mof_O 	O 	0.9084	0.0552	0.4846	-0.41
Mof_O 	O 	0.8779	0.3643	0.3768	-0.423
Mof_O 	O 	0.9051	0.8532	0.4177	-0.477
Mof_O 	O 	0.894	0.921	0.5356	-0.419
Mof_O 	O 	0.5105	0.5058	0.1323	-0.396
Mof_O 	O 	0.9067	0.9805	0.3566	-0.442
_end
