data_functionalizedCrystal
_audit_creation_method	'EQeq! by Chris Wilmer'
_symmetry_space_group_name_H-M	'P1'
_symmetry_Int_Tables_number	1
_symmetry_cell_setting	triclinic
loop_
_symmetry_equiv_pos_as_xyz
  x,y,z
_cell_length_a	12.024
_cell_length_b	15.032
_cell_length_c	12.948
_cell_angle_alpha	90
_cell_angle_beta	90
_cell_angle_gamma	90
loop_
_atom_site_label
_atom_site_type_symbol
_atom_site_fract_x
_atom_site_fract_y
_atom_site_fract_z
_atom_site_charge
Mof_O 	O 	0.3377	0.4203	0.72071	-1.317
Mof_O 	O 	0.4316	0.4821	0.8484	-0.863
Mof_O 	O 	0.1031	0.15251	0.8076	-0.626
Mof_O 	O 	0.1357	0.08251	0.9545	-3.259
Mof_C 	C 	0.3225	0.3562	0.8876	-0.43
Mof_C 	C 	0.2548	0.2872	0.8567	0.253
Mof_H 	H 	0.2326	0.2827	0.7865	-0.098
Mof_C 	C 	0.2187	0.2242	0.9282	-0.387
Mof_C 	C 	0.2269	0.2441	0.035	0.009
Mof_H 	H 	0.1875	0.2097	0.0845	-0.042
Mof_C 	C 	0.2935	0.3149	0.0661	-0.314
Mof_H 	H 	0.311	0.3225	0.1371	0.079
Mof_C 	C 	0.3342	0.374	0.9939	0.001
Mof_H 	H 	0.3701	0.4269	0.0159	-0
Mof_C 	C 	0.271	0.2226	0.0274	0.203
Mof_H 	H 	0.2552	0.1754	0.0738	-0.145
Mof_C 	C 	0.3428	0.2874	0.0561	0.064
Mof_H 	H 	0.3721	0.2879	0.1242	-0.023
Mof_C 	C 	0.3739	0.3539	0.9857	0.166
Mof_H 	H 	0.4287	0.3967	0.0037	-0.1
Mof_C 	C 	0.3664	0.4236	0.8123	0.804
Mof_C 	C 	0.1477	0.1476	0.8952	0.635
Mof_Li	Li	0.4056	0.4596	0.5896	1.401
Mof_Li	Li	0.3029	0.4638	0.5877	2.887
Mof_O 	O 	0.145	0.4949	0.567	0.126
Mof_H 	H 	0.1115	0.4933	0.6246	0.333
Mof_H 	H 	0.1067	0.5128	0.5161	-0.102
Mof_O 	O 	0.14	0.4539	0.593	-1.832
Mof_H 	H 	0.1065	0.4649	0.6497	0.223
Mof_H 	H 	0.0897	0.4278	0.5585	0.593
Mof_O 	O 	0.186	0.087	0.945	1.976
Mof_H 	H 	0.2127	0.114	0.9971	-0.854
Mof_O 	O 	0.8377	0.9203	0.72071	-1.318
Mof_O 	O 	0.9316	0.9821	0.8484	-0.816
Mof_O 	O 	0.6031	0.65251	0.8076	-0.617
Mof_O 	O 	0.6357	0.58251	0.9545	-3.208
Mof_C 	C 	0.8225	0.8562	0.8876	-0.403
Mof_C 	C 	0.7548	0.7872	0.8567	0.261
Mof_H 	H 	0.7326	0.7827	0.7865	-0.093
Mof_C 	C 	0.7187	0.7242	0.9282	-0.401
Mof_C 	C 	0.7269	0.7441	0.035	0.016
Mof_H 	H 	0.6875	0.7097	0.0845	-0.033
Mof_C 	C 	0.7935	0.8149	0.0661	-0.302
Mof_H 	H 	0.811	0.8225	0.1371	0.081
Mof_C 	C 	0.8342	0.874	0.9939	-0.025
Mof_H 	H 	0.8701	0.9269	0.0159	0.019
Mof_C 	C 	0.771	0.7226	0.0274	0.222
Mof_H 	H 	0.7552	0.6754	0.0738	-0.159
Mof_C 	C 	0.8428	0.7874	0.0561	0.091
Mof_H 	H 	0.8721	0.7879	0.1242	-0.015
Mof_C 	C 	0.8739	0.8539	0.9857	0.142
Mof_H 	H 	0.9287	0.8967	0.0037	-0.054
Mof_C 	C 	0.8664	0.9236	0.8123	0.807
Mof_C 	C 	0.6477	0.6476	0.8952	0.679
Mof_Li	Li	0.9056	0.9596	0.5896	1.416
Mof_Li	Li	0.8029	0.9638	0.5877	2.983
Mof_O 	O 	0.645	0.9949	0.567	0.087
Mof_H 	H 	0.6115	0.9933	0.6246	0.375
Mof_H 	H 	0.6067	0.0128	0.5161	-0.084
Mof_O 	O 	0.64	0.9539	0.593	-1.839
Mof_H 	H 	0.6065	0.9649	0.6497	0.211
Mof_H 	H 	0.5897	0.9278	0.5585	0.613
Mof_O 	O 	0.686	0.587	0.945	1.848
Mof_H 	H 	0.7127	0.614	0.9971	-0.849
Mof_O 	O 	0.6623	0.5797	0.22071	-1.327
Mof_O 	O 	0.5684	0.5179	0.3484	-0.862
Mof_O 	O 	0.8969	0.84749	0.3076	-0.591
Mof_O 	O 	0.8643	0.91749	0.4545	-2.955
Mof_C 	C 	0.6775	0.6438	0.3876	-0.426
Mof_C 	C 	0.7452	0.7128	0.3567	0.276
Mof_H 	H 	0.7674	0.7173	0.2865	-0.094
Mof_C 	C 	0.7813	0.7758	0.4282	-0.401
Mof_C 	C 	0.7731	0.7559	0.535	0.113
Mof_H 	H 	0.8125	0.7903	0.5845	-0.059
Mof_C 	C 	0.7065	0.6851	0.5661	-0.152
Mof_H 	H 	0.689	0.6775	0.6371	0.031
Mof_C 	C 	0.6658	0.626	0.4939	0.059
Mof_H 	H 	0.6299	0.5731	0.5159	-0.014
Mof_C 	C 	0.729	0.7774	0.5274	0.129
Mof_H 	H 	0.7448	0.8246	0.5738	-0.145
Mof_C 	C 	0.6572	0.7126	0.5561	-0.085
Mof_H 	H 	0.6279	0.7121	0.6242	0.029
Mof_C 	C 	0.6261	0.6461	0.4857	0.101
Mof_H 	H 	0.5713	0.6033	0.5037	-0.077
Mof_C 	C 	0.6336	0.5764	0.3123	0.815
Mof_C 	C 	0.8523	0.8524	0.3952	0.715
Mof_Li	Li	0.5944	0.5404	0.0896	1.422
Mof_Li	Li	0.6971	0.5362	0.0877	2.948
Mof_O 	O 	0.855	0.5051	0.067	0.065
Mof_H 	H 	0.8885	0.5067	0.1246	0.385
Mof_H 	H 	0.8933	0.4872	0.0161	-0.075
Mof_O 	O 	0.86	0.5461	0.093	-1.824
Mof_H 	H 	0.8935	0.5351	0.1497	0.218
Mof_H 	H 	0.9103	0.5722	0.0585	0.624
Mof_O 	O 	0.814	0.913	0.445	1.538
Mof_H 	H 	0.7873	0.886	0.4971	-0.764
Mof_O 	O 	0.1623	0.0797	0.22071	-1.302
Mof_O 	O 	0.0684	0.0179	0.3484	-0.896
Mof_O 	O 	0.3969	0.34749	0.3076	-0.621
Mof_O 	O 	0.3643	0.41749	0.4545	-3.095
Mof_C 	C 	0.1775	0.1438	0.3876	-0.437
Mof_C 	C 	0.2452	0.2128	0.3567	0.263
Mof_H 	H 	0.2674	0.2173	0.2865	-0.099
Mof_C 	C 	0.2813	0.2758	0.4282	-0.405
Mof_C 	C 	0.2731	0.2559	0.535	0.126
Mof_H 	H 	0.3125	0.2903	0.5845	-0.071
Mof_C 	C 	0.2065	0.1851	0.5661	-0.129
Mof_H 	H 	0.189	0.1775	0.6371	0.021
Mof_C 	C 	0.1658	0.126	0.4939	0.067
Mof_H 	H 	0.1299	0.0731	0.5159	-0.017
Mof_C 	C 	0.229	0.2774	0.5274	0.105
Mof_H 	H 	0.2448	0.3246	0.5738	-0.129
Mof_C 	C 	0.1572	0.2126	0.5561	-0.118
Mof_H 	H 	0.1279	0.2121	0.6242	0.026
Mof_C 	C 	0.1261	0.1461	0.4857	0.089
Mof_H 	H 	0.0713	0.1033	0.5037	-0.104
Mof_C 	C 	0.1336	0.0764	0.3123	0.795
Mof_C 	C 	0.3523	0.3524	0.3952	0.681
Mof_Li	Li	0.0944	0.0404	0.0896	1.402
Mof_Li	Li	0.1971	0.0362	0.0877	2.766
Mof_O 	O 	0.355	0.0051	0.067	0.141
Mof_H 	H 	0.3885	0.0067	0.1246	0.311
Mof_H 	H 	0.3933	0.9872	0.0161	-0.091
Mof_O 	O 	0.36	0.0461	0.093	-1.834
Mof_H 	H 	0.3935	0.0351	0.1497	0.259
Mof_H 	H 	0.4103	0.0722	0.0585	0.601
Mof_O 	O 	0.314	0.413	0.445	1.73
Mof_H 	H 	0.2873	0.386	0.4971	-0.806
Mof_O 	O 	0.6623	0.4203	0.77929	-1.327
Mof_O 	O 	0.5684	0.4821	0.6516	-0.862
Mof_O 	O 	0.8969	0.15251	0.6924	-0.591
Mof_O 	O 	0.8643	0.08251	0.5455	-2.955
Mof_C 	C 	0.6775	0.3562	0.6124	-0.426
Mof_C 	C 	0.7452	0.2872	0.6433	0.276
Mof_H 	H 	0.7674	0.2827	0.7135	-0.094
Mof_C 	C 	0.7813	0.2242	0.5718	-0.401
Mof_C 	C 	0.7731	0.2441	0.465	0.113
Mof_H 	H 	0.8125	0.2097	0.4155	-0.059
Mof_C 	C 	0.7065	0.3149	0.4339	-0.152
Mof_H 	H 	0.689	0.3225	0.3629	0.031
Mof_C 	C 	0.6658	0.374	0.5061	0.059
Mof_H 	H 	0.6299	0.4269	0.4841	-0.014
Mof_C 	C 	0.729	0.2226	0.4726	0.129
Mof_H 	H 	0.7448	0.1754	0.4262	-0.145
Mof_C 	C 	0.6572	0.2874	0.4439	-0.085
Mof_H 	H 	0.6279	0.2879	0.3758	0.029
Mof_C 	C 	0.6261	0.3539	0.5143	0.101
Mof_H 	H 	0.5713	0.3967	0.4963	-0.077
Mof_C 	C 	0.6336	0.4236	0.6877	0.815
Mof_C 	C 	0.8523	0.1476	0.6048	0.715
Mof_Li	Li	0.5944	0.4596	0.9104	1.422
Mof_Li	Li	0.6971	0.4638	0.9123	2.948
Mof_O 	O 	0.855	0.4949	0.933	0.065
Mof_H 	H 	0.8885	0.4933	0.8754	0.385
Mof_H 	H 	0.8933	0.5128	0.9839	-0.075
Mof_O 	O 	0.86	0.4539	0.907	-1.824
Mof_H 	H 	0.8935	0.4649	0.8503	0.218
Mof_H 	H 	0.9103	0.4278	0.9415	0.624
Mof_O 	O 	0.814	0.087	0.555	1.538
Mof_H 	H 	0.7873	0.114	0.5029	-0.764
Mof_O 	O 	0.1623	0.9203	0.77929	-1.302
Mof_O 	O 	0.0684	0.9821	0.6516	-0.896
Mof_O 	O 	0.3969	0.65251	0.6924	-0.621
Mof_O 	O 	0.3643	0.58251	0.5455	-3.095
Mof_C 	C 	0.1775	0.8562	0.6124	-0.437
Mof_C 	C 	0.2452	0.7872	0.6433	0.263
Mof_H 	H 	0.2674	0.7827	0.7135	-0.099
Mof_C 	C 	0.2813	0.7242	0.5718	-0.405
Mof_C 	C 	0.2731	0.7441	0.465	0.126
Mof_H 	H 	0.3125	0.7097	0.4155	-0.071
Mof_C 	C 	0.2065	0.8149	0.4339	-0.129
Mof_H 	H 	0.189	0.8225	0.3629	0.021
Mof_C 	C 	0.1658	0.874	0.5061	0.067
Mof_H 	H 	0.1299	0.9269	0.4841	-0.017
Mof_C 	C 	0.229	0.7226	0.4726	0.105
Mof_H 	H 	0.2448	0.6754	0.4262	-0.129
Mof_C 	C 	0.1572	0.7874	0.4439	-0.118
Mof_H 	H 	0.1279	0.7879	0.3758	0.026
Mof_C 	C 	0.1261	0.8539	0.5143	0.089
Mof_H 	H 	0.0713	0.8967	0.4963	-0.104
Mof_C 	C 	0.1336	0.9236	0.6877	0.795
Mof_C 	C 	0.3523	0.6476	0.6048	0.681
Mof_Li	Li	0.0944	0.9596	0.9104	1.402
Mof_Li	Li	0.1971	0.9638	0.9123	2.766
Mof_O 	O 	0.355	0.9949	0.933	0.141
Mof_H 	H 	0.3885	0.9933	0.8754	0.311
Mof_H 	H 	0.3933	0.0128	0.9839	-0.091
Mof_O 	O 	0.36	0.9539	0.907	-1.834
Mof_H 	H 	0.3935	0.9649	0.8503	0.259
Mof_H 	H 	0.4103	0.9278	0.9415	0.601
Mof_O 	O 	0.314	0.587	0.555	1.73
Mof_H 	H 	0.2873	0.614	0.5029	-0.806
Mof_O 	O 	0.3377	0.5797	0.27929	-1.316
Mof_O 	O 	0.4316	0.5179	0.1516	-0.862
Mof_O 	O 	0.1031	0.84749	0.1924	-0.625
Mof_O 	O 	0.1357	0.91749	0.0455	-3.258
Mof_C 	C 	0.3225	0.6438	0.1124	-0.429
Mof_C 	C 	0.2548	0.7128	0.1433	0.254
Mof_H 	H 	0.2326	0.7173	0.2135	-0.098
Mof_C 	C 	0.2187	0.7758	0.0718	-0.387
Mof_C 	C 	0.2269	0.7559	0.965	0.009
Mof_H 	H 	0.1875	0.7903	0.9155	-0.042
Mof_C 	C 	0.2935	0.6851	0.9339	-0.314
Mof_H 	H 	0.311	0.6775	0.8629	0.079
Mof_C 	C 	0.3342	0.626	0.0061	0.001
Mof_H 	H 	0.3701	0.5731	0.9841	-0
Mof_C 	C 	0.271	0.7774	0.9726	0.203
Mof_H 	H 	0.2552	0.8246	0.9262	-0.145
Mof_C 	C 	0.3428	0.7126	0.9439	0.064
Mof_H 	H 	0.3721	0.7121	0.8758	-0.023
Mof_C 	C 	0.3739	0.6461	0.0143	0.166
Mof_H 	H 	0.4287	0.6033	0.9963	-0.1
Mof_C 	C 	0.3664	0.5764	0.1877	0.804
Mof_C 	C 	0.1477	0.8524	0.1048	0.635
Mof_Li	Li	0.4056	0.5404	0.4104	1.401
Mof_Li	Li	0.3029	0.5362	0.4123	2.887
Mof_O 	O 	0.145	0.5051	0.433	0.126
Mof_H 	H 	0.1115	0.5067	0.3754	0.333
Mof_H 	H 	0.1067	0.4872	0.4839	-0.102
Mof_O 	O 	0.14	0.5461	0.407	-1.832
Mof_H 	H 	0.1065	0.5351	0.3503	0.223
Mof_H 	H 	0.0897	0.5722	0.4415	0.593
Mof_O 	O 	0.186	0.913	0.055	1.976
Mof_H 	H 	0.2127	0.886	0.0029	-0.854
Mof_O 	O 	0.8377	0.0797	0.27929	-1.318
Mof_O 	O 	0.9316	0.0179	0.1516	-0.816
Mof_O 	O 	0.6031	0.34749	0.1924	-0.617
Mof_O 	O 	0.6357	0.41749	0.0455	-3.208
Mof_C 	C 	0.8225	0.1438	0.1124	-0.403
Mof_C 	C 	0.7548	0.2128	0.1433	0.261
Mof_H 	H 	0.7326	0.2173	0.2135	-0.093
Mof_C 	C 	0.7187	0.2758	0.0718	-0.401
Mof_C 	C 	0.7269	0.2559	0.965	0.016
Mof_H 	H 	0.6875	0.2903	0.9155	-0.033
Mof_C 	C 	0.7935	0.1851	0.9339	-0.302
Mof_H 	H 	0.811	0.1775	0.8629	0.081
Mof_C 	C 	0.8342	0.126	0.0061	-0.025
Mof_H 	H 	0.8701	0.0731	0.9841	0.019
Mof_C 	C 	0.771	0.2774	0.9726	0.222
Mof_H 	H 	0.7552	0.3246	0.9262	-0.159
Mof_C 	C 	0.8428	0.2126	0.9439	0.091
Mof_H 	H 	0.8721	0.2121	0.8758	-0.015
Mof_C 	C 	0.8739	0.1461	0.0143	0.142
Mof_H 	H 	0.9287	0.1033	0.9963	-0.054
Mof_C 	C 	0.8664	0.0764	0.1877	0.807
Mof_C 	C 	0.6477	0.3524	0.1048	0.679
Mof_Li	Li	0.9056	0.0404	0.4104	1.416
Mof_Li	Li	0.8029	0.0362	0.4123	2.983
Mof_O 	O 	0.645	0.0051	0.433	0.087
Mof_H 	H 	0.6115	0.0067	0.3754	0.375
Mof_H 	H 	0.6067	0.9872	0.4839	-0.084
Mof_O 	O 	0.64	0.0461	0.407	-1.839
Mof_H 	H 	0.6065	0.0351	0.3503	0.211
Mof_H 	H 	0.5897	0.0722	0.4415	0.613
Mof_O 	O 	0.686	0.413	0.055	1.848
Mof_H 	H 	0.7127	0.386	0.0029	-0.849
Mof_Co	Co	0.5	0.56435	0.75	1.096
Mof_Co	Co	3.02815e-33	0.06435	0.75	1.059
Mof_Co	Co	0.5	0.43565	0.25	1.096
Mof_Co	Co	1.98858e-32	0.93565	0.25	1.059
_end
