data_functionalizedCrystal
_audit_creation_method	'EQeq! by Chris Wilmer'
_symmetry_space_group_name_H-M	'P1'
_symmetry_Int_Tables_number	1
_symmetry_cell_setting	triclinic
loop_
_symmetry_equiv_pos_as_xyz
  x,y,z
_cell_length_a	18.7088
_cell_length_b	18.7088
_cell_length_c	38.2664
_cell_angle_alpha	90
_cell_angle_beta	90
_cell_angle_gamma	120
loop_
_atom_site_label
_atom_site_type_symbol
_atom_site_fract_x
_atom_site_fract_y
_atom_site_fract_z
_atom_site_charge
Mof_O 	O 	0.70509	0.55621	0.67042	-0.407
Mof_O 	O 	0.74402	0.63523	0.62252	-0.41
Mof_C 	C 	0.69401	0.57354	0.63991	0.364
Mof_C 	C 	0.6142	0.51456	0.6225	-0.089
Mof_C 	C 	0.59878	0.5292	0.58829	-0.008
Mof_H 	H 	0.6367	0.5775	0.577	0.048
Mof_C 	C 	0.5412	0.5639	0.52205	0.062
Mof_H 	H 	0.5585	0.6151	0.534	0.01
Mof_C 	C 	0.5774	0.5296	0.51215	-0.141
Mof_H 	H 	0.6337	0.5418	0.5133	0.078
Mof_N 	N 	0.5296	0.5774	0.48785	-0.192
Mof_O 	O 	0.37176	0.88954	0.00375	-0.407
Mof_O 	O 	0.41069	0.96856	0.95585	-0.411
Mof_C 	C 	0.36068	0.90687	0.97324	0.363
Mof_C 	C 	0.28087	0.84789	0.95583	-0.09
Mof_C 	C 	0.26545	0.86253	0.92162	-0.009
Mof_H 	H 	0.30337	0.91083	0.91033	0.047
Mof_C 	C 	0.20787	0.89723	0.85538	0.061
Mof_H 	H 	0.22517	0.94843	0.86733	0.009
Mof_C 	C 	0.24407	0.86293	0.84548	-0.142
Mof_H 	H 	0.30037	0.87513	0.84663	0.077
Mof_N 	N 	0.19627	0.91073	0.82118	-0.193
Mof_O 	O 	0.03842	0.22288	0.33709	-0.408
Mof_O 	O 	0.07735	0.3019	0.28919	-0.411
Mof_C 	C 	0.02734	0.24021	0.30658	0.363
Mof_C 	C 	0.94753	0.18123	0.28917	-0.089
Mof_C 	C 	0.93211	0.19587	0.25496	-0.009
Mof_H 	H 	0.97003	0.24417	0.24367	0.047
Mof_C 	C 	0.87453	0.23057	0.18872	0.061
Mof_H 	H 	0.89183	0.28177	0.20067	0.009
Mof_C 	C 	0.91073	0.19627	0.17882	-0.142
Mof_H 	H 	0.96703	0.20847	0.17997	0.077
Mof_N 	N 	0.86293	0.24407	0.15452	-0.193
Mof_O 	O 	0.44379	0.14888	0.67042	-0.408
Mof_O 	O 	0.36477	0.10879	0.62252	-0.411
Mof_C 	C 	0.42646	0.12047	0.63991	0.363
Mof_C 	C 	0.48544	0.09964	0.6225	-0.09
Mof_C 	C 	0.4708	0.06958	0.58829	-0.009
Mof_H 	H 	0.4225	0.0592	0.577	0.047
Mof_C 	C 	0.4361	0.9773	0.52205	0.061
Mof_H 	H 	0.3849	0.9434	0.534	0.009
Mof_C 	C 	0.4704	0.0478	0.51215	-0.142
Mof_H 	H 	0.4582	0.0919	0.5133	0.077
Mof_N 	N 	0.4226	0.9522	0.48785	-0.193
Mof_O 	O 	0.11046	0.48221	0.00375	-0.408
Mof_O 	O 	0.03144	0.44212	0.95585	-0.411
Mof_C 	C 	0.09313	0.4538	0.97324	0.363
Mof_C 	C 	0.15211	0.43297	0.95583	-0.09
Mof_C 	C 	0.13747	0.40291	0.92162	-0.009
Mof_H 	H 	0.08917	0.39253	0.91033	0.047
Mof_C 	C 	0.10277	0.31063	0.85538	0.061
Mof_H 	H 	0.05157	0.27673	0.86733	0.009
Mof_C 	C 	0.13707	0.38113	0.84548	-0.142
Mof_H 	H 	0.12487	0.42523	0.84663	0.077
Mof_N 	N 	0.08927	0.28553	0.82118	-0.193
Mof_O 	O 	0.77712	0.81555	0.33709	-0.408
Mof_O 	O 	0.6981	0.77546	0.28919	-0.411
Mof_C 	C 	0.75979	0.78714	0.30658	0.363
Mof_C 	C 	0.81877	0.76631	0.28917	-0.089
Mof_C 	C 	0.80413	0.73625	0.25496	-0.009
Mof_H 	H 	0.75583	0.72587	0.24367	0.047
Mof_C 	C 	0.76943	0.64397	0.18872	0.061
Mof_H 	H 	0.71823	0.61007	0.20067	0.009
Mof_C 	C 	0.80373	0.71447	0.17882	-0.142
Mof_H 	H 	0.79153	0.75857	0.17997	0.077
Mof_N 	N 	0.75593	0.61887	0.15452	-0.193
Mof_O 	O 	0.85112	0.29491	0.67042	-0.408
Mof_O 	O 	0.89121	0.25598	0.62252	-0.411
Mof_C 	C 	0.87953	0.30599	0.63991	0.363
Mof_C 	C 	0.90036	0.3858	0.6225	-0.09
Mof_C 	C 	0.93042	0.40122	0.58829	-0.009
Mof_H 	H 	0.9408	0.3633	0.577	0.047
Mof_C 	C 	0.0227	0.4588	0.52205	0.061
Mof_H 	H 	0.0566	0.4415	0.534	0.009
Mof_C 	C 	0.9522	0.4226	0.51215	-0.143
Mof_H 	H 	0.9081	0.3663	0.5133	0.077
Mof_N 	N 	0.0478	0.4704	0.48785	-0.193
Mof_O 	O 	0.51779	0.62824	0.00375	-0.408
Mof_O 	O 	0.55788	0.58931	0.95585	-0.411
Mof_C 	C 	0.5462	0.63932	0.97324	0.363
Mof_C 	C 	0.56703	0.71913	0.95583	-0.09
Mof_C 	C 	0.59709	0.73455	0.92162	-0.009
Mof_H 	H 	0.60747	0.69663	0.91033	0.047
Mof_C 	C 	0.68937	0.79213	0.85538	0.061
Mof_H 	H 	0.72327	0.77483	0.86733	0.009
Mof_C 	C 	0.61887	0.75593	0.84548	-0.142
Mof_H 	H 	0.57477	0.69963	0.84663	0.077
Mof_N 	N 	0.71447	0.80373	0.82118	-0.193
Mof_O 	O 	0.18445	0.96158	0.33709	-0.408
Mof_O 	O 	0.22454	0.92265	0.28919	-0.411
Mof_C 	C 	0.21286	0.97266	0.30658	0.363
Mof_C 	C 	0.23369	0.05247	0.28917	-0.089
Mof_C 	C 	0.26375	0.06789	0.25496	-0.009
Mof_H 	H 	0.27413	0.02997	0.24367	0.047
Mof_C 	C 	0.35603	0.12547	0.18872	0.061
Mof_H 	H 	0.38993	0.10817	0.20067	0.009
Mof_C 	C 	0.28553	0.08927	0.17882	-0.142
Mof_H 	H 	0.24143	0.03297	0.17997	0.077
Mof_N 	N 	0.38113	0.13707	0.15452	-0.193
Mof_O 	O 	0.55621	0.70509	0.32958	-0.408
Mof_O 	O 	0.63523	0.74402	0.37748	-0.411
Mof_C 	C 	0.57354	0.69401	0.36009	0.363
Mof_C 	C 	0.51456	0.6142	0.3775	-0.09
Mof_C 	C 	0.5292	0.59878	0.41171	-0.007
Mof_H 	H 	0.5775	0.6367	0.423	0.047
Mof_C 	C 	0.5639	0.5412	0.47795	0.086
Mof_H 	H 	0.6151	0.5585	0.466	-0
Mof_H 	H 	0.5418	0.6337	0.4867	0.098
Mof_O 	O 	0.22288	0.03842	0.66291	-0.408
Mof_O 	O 	0.3019	0.07735	0.71081	-0.411
Mof_C 	C 	0.24021	0.02734	0.69342	0.363
Mof_C 	C 	0.18123	0.94753	0.71083	-0.09
Mof_C 	C 	0.19587	0.93211	0.74504	-0.007
Mof_H 	H 	0.24417	0.97003	0.75633	0.047
Mof_C 	C 	0.23057	0.87453	0.81128	0.086
Mof_H 	H 	0.28177	0.89183	0.79933	-0
Mof_H 	H 	0.20847	0.96703	0.82003	0.098
Mof_O 	O 	0.88954	0.37176	0.99625	-0.408
Mof_O 	O 	0.96856	0.41069	0.04415	-0.411
Mof_C 	C 	0.90687	0.36068	0.02676	0.363
Mof_C 	C 	0.84789	0.28087	0.04417	-0.09
Mof_C 	C 	0.86253	0.26545	0.07838	-0.007
Mof_H 	H 	0.91083	0.30337	0.08967	0.047
Mof_C 	C 	0.89723	0.20787	0.14462	0.086
Mof_H 	H 	0.94843	0.22517	0.13267	-0
Mof_H 	H 	0.87513	0.30037	0.15337	0.098
Mof_O 	O 	0.14888	0.44379	0.32958	-0.408
Mof_O 	O 	0.10879	0.36477	0.37748	-0.411
Mof_C 	C 	0.12047	0.42646	0.36009	0.363
Mof_C 	C 	0.09964	0.48544	0.3775	-0.09
Mof_C 	C 	0.06958	0.4708	0.41171	-0.007
Mof_H 	H 	0.0592	0.4225	0.423	0.047
Mof_C 	C 	0.9773	0.4361	0.47795	0.086
Mof_H 	H 	0.9434	0.3849	0.466	-0
Mof_H 	H 	0.0919	0.4582	0.4867	0.098
Mof_O 	O 	0.81555	0.77712	0.66291	-0.408
Mof_O 	O 	0.77546	0.6981	0.71081	-0.411
Mof_C 	C 	0.78714	0.75979	0.69342	0.363
Mof_C 	C 	0.76631	0.81877	0.71083	-0.09
Mof_C 	C 	0.73625	0.80413	0.74504	-0.007
Mof_H 	H 	0.72587	0.75583	0.75633	0.047
Mof_C 	C 	0.64397	0.76943	0.81128	0.086
Mof_H 	H 	0.61007	0.71823	0.79933	-0
Mof_H 	H 	0.75857	0.79153	0.82003	0.098
Mof_O 	O 	0.48221	0.11046	0.99625	-0.408
Mof_O 	O 	0.44212	0.03144	0.04415	-0.411
Mof_C 	C 	0.4538	0.09313	0.02676	0.363
Mof_C 	C 	0.43297	0.15211	0.04417	-0.09
Mof_C 	C 	0.40291	0.13747	0.07838	-0.007
Mof_H 	H 	0.39253	0.08917	0.08967	0.047
Mof_C 	C 	0.31063	0.10277	0.14462	0.086
Mof_H 	H 	0.27673	0.05157	0.13267	-0
Mof_H 	H 	0.42523	0.12487	0.15337	0.098
Mof_O 	O 	0.29491	0.85112	0.32958	-0.408
Mof_O 	O 	0.25598	0.89121	0.37748	-0.411
Mof_C 	C 	0.30599	0.87953	0.36009	0.363
Mof_C 	C 	0.3858	0.90036	0.3775	-0.09
Mof_C 	C 	0.40122	0.93042	0.41171	-0.007
Mof_H 	H 	0.3633	0.9408	0.423	0.047
Mof_C 	C 	0.4588	0.0227	0.47795	0.086
Mof_H 	H 	0.4415	0.0566	0.466	-0
Mof_H 	H 	0.3663	0.9081	0.4867	0.098
Mof_O 	O 	0.96158	0.18445	0.66291	-0.408
Mof_O 	O 	0.92265	0.22454	0.71081	-0.411
Mof_C 	C 	0.97266	0.21286	0.69342	0.363
Mof_C 	C 	0.05247	0.23369	0.71083	-0.09
Mof_C 	C 	0.06789	0.26375	0.74504	-0.007
Mof_H 	H 	0.02997	0.27413	0.75633	0.047
Mof_C 	C 	0.12547	0.35603	0.81128	0.086
Mof_H 	H 	0.10817	0.38993	0.79933	-0
Mof_H 	H 	0.03297	0.24143	0.82003	0.098
Mof_O 	O 	0.62824	0.51779	0.99625	-0.408
Mof_O 	O 	0.58931	0.55788	0.04415	-0.411
Mof_C 	C 	0.63932	0.5462	0.02676	0.363
Mof_C 	C 	0.71913	0.56703	0.04417	-0.09
Mof_C 	C 	0.73455	0.59709	0.07838	-0.007
Mof_H 	H 	0.69663	0.60747	0.08967	0.047
Mof_C 	C 	0.79213	0.68937	0.14462	0.086
Mof_H 	H 	0.77483	0.72327	0.13267	-0
Mof_H 	H 	0.69963	0.57477	0.15337	0.098
Mof_O 	O 	0.29491	0.44379	0.32958	-0.408
Mof_O 	O 	0.25598	0.36477	0.37748	-0.411
Mof_C 	C 	0.30599	0.42646	0.36009	0.363
Mof_C 	C 	0.3858	0.48544	0.3775	-0.09
Mof_C 	C 	0.40122	0.4708	0.41171	-0.009
Mof_H 	H 	0.3633	0.4225	0.423	0.047
Mof_C 	C 	0.4588	0.4361	0.47795	0.061
Mof_H 	H 	0.4415	0.3849	0.466	0.009
Mof_C 	C 	0.4226	0.4704	0.48785	-0.142
Mof_H 	H 	0.3663	0.4582	0.4867	0.077
Mof_N 	N 	0.4704	0.4226	0.51215	-0.193
Mof_O 	O 	0.96158	0.77712	0.66291	-0.408
Mof_O 	O 	0.92265	0.6981	0.71081	-0.411
Mof_C 	C 	0.97266	0.75979	0.69342	0.363
Mof_C 	C 	0.05247	0.81877	0.71083	-0.089
Mof_C 	C 	0.06789	0.80413	0.74504	-0.009
Mof_H 	H 	0.02997	0.75583	0.75633	0.047
Mof_C 	C 	0.12547	0.76943	0.81128	0.061
Mof_H 	H 	0.10817	0.71823	0.79933	0.009
Mof_C 	C 	0.08927	0.80373	0.82118	-0.142
Mof_H 	H 	0.03297	0.79153	0.82003	0.077
Mof_N 	N 	0.13707	0.75593	0.84548	-0.193
Mof_O 	O 	0.62824	0.11046	0.99625	-0.408
Mof_O 	O 	0.58931	0.03144	0.04415	-0.411
Mof_C 	C 	0.63932	0.09313	0.02676	0.363
Mof_C 	C 	0.71913	0.15211	0.04417	-0.09
Mof_C 	C 	0.73455	0.13747	0.07838	-0.009
Mof_H 	H 	0.69663	0.08917	0.08967	0.047
Mof_C 	C 	0.79213	0.10277	0.14462	0.061
Mof_H 	H 	0.77483	0.05157	0.13267	0.009
Mof_C 	C 	0.75593	0.13707	0.15452	-0.142
Mof_H 	H 	0.69963	0.12487	0.15337	0.077
Mof_N 	N 	0.80373	0.08927	0.17882	-0.193
Mof_O 	O 	0.55621	0.85112	0.32958	-0.408
Mof_O 	O 	0.63523	0.89121	0.37748	-0.411
Mof_C 	C 	0.57354	0.87953	0.36009	0.363
Mof_C 	C 	0.51456	0.90036	0.3775	-0.09
Mof_C 	C 	0.5292	0.93042	0.41171	-0.009
Mof_H 	H 	0.5775	0.9408	0.423	0.047
Mof_C 	C 	0.5639	0.0227	0.47795	0.061
Mof_H 	H 	0.6151	0.0566	0.466	0.009
Mof_C 	C 	0.5296	0.9522	0.48785	-0.142
Mof_H 	H 	0.5418	0.9081	0.4867	0.077
Mof_N 	N 	0.5774	0.0478	0.51215	-0.193
Mof_O 	O 	0.22288	0.18445	0.66291	-0.408
Mof_O 	O 	0.3019	0.22454	0.71081	-0.411
Mof_C 	C 	0.24021	0.21286	0.69342	0.363
Mof_C 	C 	0.18123	0.23369	0.71083	-0.089
Mof_C 	C 	0.19587	0.26375	0.74504	-0.009
Mof_H 	H 	0.24417	0.27413	0.75633	0.047
Mof_C 	C 	0.23057	0.35603	0.81128	0.061
Mof_H 	H 	0.28177	0.38993	0.79933	0.009
Mof_C 	C 	0.19627	0.28553	0.82118	-0.142
Mof_H 	H 	0.20847	0.24143	0.82003	0.077
Mof_N 	N 	0.24407	0.38113	0.84548	-0.193
Mof_O 	O 	0.88954	0.51779	0.99625	-0.408
Mof_O 	O 	0.96856	0.55788	0.04415	-0.411
Mof_C 	C 	0.90687	0.5462	0.02676	0.363
Mof_C 	C 	0.84789	0.56703	0.04417	-0.09
Mof_C 	C 	0.86253	0.59709	0.07838	-0.009
Mof_H 	H 	0.91083	0.60747	0.08967	0.047
Mof_C 	C 	0.89723	0.68937	0.14462	0.061
Mof_H 	H 	0.94843	0.72327	0.13267	0.009
Mof_C 	C 	0.86293	0.61887	0.15452	-0.142
Mof_H 	H 	0.87513	0.57477	0.15337	0.077
Mof_N 	N 	0.91073	0.71447	0.17882	-0.193
Mof_O 	O 	0.14888	0.70509	0.32958	-0.408
Mof_O 	O 	0.10879	0.74402	0.37748	-0.411
Mof_C 	C 	0.12047	0.69401	0.36009	0.363
Mof_C 	C 	0.09964	0.6142	0.3775	-0.09
Mof_C 	C 	0.06958	0.59878	0.41171	-0.009
Mof_H 	H 	0.0592	0.6367	0.423	0.047
Mof_C 	C 	0.9773	0.5412	0.47795	0.061
Mof_H 	H 	0.9434	0.5585	0.466	0.009
Mof_C 	C 	0.0478	0.5774	0.48785	-0.143
Mof_H 	H 	0.0919	0.6337	0.4867	0.077
Mof_N 	N 	0.9522	0.5296	0.51215	-0.193
Mof_O 	O 	0.81555	0.03842	0.66291	-0.408
Mof_O 	O 	0.77546	0.07735	0.71081	-0.411
Mof_C 	C 	0.78714	0.02734	0.69342	0.363
Mof_C 	C 	0.76631	0.94753	0.71083	-0.089
Mof_C 	C 	0.73625	0.93211	0.74504	-0.009
Mof_H 	H 	0.72587	0.97003	0.75633	0.047
Mof_C 	C 	0.64397	0.87453	0.81128	0.061
Mof_H 	H 	0.61007	0.89183	0.79933	0.009
Mof_C 	C 	0.71447	0.91073	0.82118	-0.142
Mof_H 	H 	0.75857	0.96703	0.82003	0.077
Mof_N 	N 	0.61887	0.86293	0.84548	-0.193
Mof_O 	O 	0.48221	0.37176	0.99625	-0.408
Mof_O 	O 	0.44212	0.41069	0.04415	-0.411
Mof_C 	C 	0.4538	0.36068	0.02676	0.363
Mof_C 	C 	0.43297	0.28087	0.04417	-0.09
Mof_C 	C 	0.40291	0.26545	0.07838	-0.009
Mof_H 	H 	0.39253	0.30337	0.08967	0.047
Mof_C 	C 	0.31063	0.20787	0.14462	0.061
Mof_H 	H 	0.27673	0.22517	0.13267	0.009
Mof_C 	C 	0.38113	0.24407	0.15452	-0.142
Mof_H 	H 	0.42523	0.30037	0.15337	0.077
Mof_N 	N 	0.28553	0.19627	0.17882	-0.193
Mof_O 	O 	0.44379	0.29491	0.67042	-0.408
Mof_O 	O 	0.36477	0.25598	0.62252	-0.411
Mof_C 	C 	0.42646	0.30599	0.63991	0.363
Mof_C 	C 	0.48544	0.3858	0.6225	-0.09
Mof_C 	C 	0.4708	0.40122	0.58829	-0.007
Mof_H 	H 	0.4225	0.3633	0.577	0.047
Mof_C 	C 	0.4361	0.4588	0.52205	0.086
Mof_H 	H 	0.3849	0.4415	0.534	-0
Mof_H 	H 	0.4582	0.3663	0.5133	0.098
Mof_O 	O 	0.11046	0.62824	0.00375	-0.408
Mof_O 	O 	0.03144	0.58931	0.95585	-0.411
Mof_C 	C 	0.09313	0.63932	0.97324	0.363
Mof_C 	C 	0.15211	0.71913	0.95583	-0.09
Mof_C 	C 	0.13747	0.73455	0.92162	-0.007
Mof_H 	H 	0.08917	0.69663	0.91033	0.047
Mof_C 	C 	0.10277	0.79213	0.85538	0.086
Mof_H 	H 	0.05157	0.77483	0.86733	-0
Mof_H 	H 	0.12487	0.69963	0.84663	0.098
Mof_O 	O 	0.77712	0.96158	0.33709	-0.408
Mof_O 	O 	0.6981	0.92265	0.28919	-0.411
Mof_C 	C 	0.75979	0.97266	0.30658	0.363
Mof_C 	C 	0.81877	0.05247	0.28917	-0.09
Mof_C 	C 	0.80413	0.06789	0.25496	-0.007
Mof_H 	H 	0.75583	0.02997	0.24367	0.047
Mof_C 	C 	0.76943	0.12547	0.18872	0.086
Mof_H 	H 	0.71823	0.10817	0.20067	-0
Mof_H 	H 	0.79153	0.03297	0.17997	0.098
Mof_O 	O 	0.85112	0.55621	0.67042	-0.408
Mof_O 	O 	0.89121	0.63523	0.62252	-0.411
Mof_C 	C 	0.87953	0.57354	0.63991	0.363
Mof_C 	C 	0.90036	0.51456	0.6225	-0.09
Mof_C 	C 	0.93042	0.5292	0.58829	-0.007
Mof_H 	H 	0.9408	0.5775	0.577	0.047
Mof_C 	C 	0.0227	0.5639	0.52205	0.086
Mof_H 	H 	0.0566	0.6151	0.534	-0
Mof_H 	H 	0.9081	0.5418	0.5133	0.098
Mof_O 	O 	0.51779	0.88954	0.00375	-0.408
Mof_O 	O 	0.55788	0.96856	0.95585	-0.411
Mof_C 	C 	0.5462	0.90687	0.97324	0.363
Mof_C 	C 	0.56703	0.84789	0.95583	-0.09
Mof_C 	C 	0.59709	0.86253	0.92162	-0.007
Mof_H 	H 	0.60747	0.91083	0.91033	0.047
Mof_C 	C 	0.68937	0.89723	0.85538	0.086
Mof_H 	H 	0.72327	0.94843	0.86733	-0
Mof_H 	H 	0.57477	0.87513	0.84663	0.098
Mof_O 	O 	0.18445	0.22288	0.33709	-0.408
Mof_O 	O 	0.22454	0.3019	0.28919	-0.411
Mof_C 	C 	0.21286	0.24021	0.30658	0.363
Mof_C 	C 	0.23369	0.18123	0.28917	-0.09
Mof_C 	C 	0.26375	0.19587	0.25496	-0.007
Mof_H 	H 	0.27413	0.24417	0.24367	0.047
Mof_C 	C 	0.35603	0.23057	0.18872	0.086
Mof_H 	H 	0.38993	0.28177	0.20067	-0
Mof_H 	H 	0.24143	0.20847	0.17997	0.098
Mof_O 	O 	0.70509	0.14888	0.67042	-0.408
Mof_O 	O 	0.74402	0.10879	0.62252	-0.411
Mof_C 	C 	0.69401	0.12047	0.63991	0.363
Mof_C 	C 	0.6142	0.09964	0.6225	-0.09
Mof_C 	C 	0.59878	0.06958	0.58829	-0.007
Mof_H 	H 	0.6367	0.0592	0.577	0.047
Mof_C 	C 	0.5412	0.9773	0.52205	0.086
Mof_H 	H 	0.5585	0.9434	0.534	-0
Mof_H 	H 	0.6337	0.0919	0.5133	0.098
Mof_O 	O 	0.37176	0.48221	0.00375	-0.408
Mof_O 	O 	0.41069	0.44212	0.95585	-0.411
Mof_C 	C 	0.36068	0.4538	0.97324	0.363
Mof_C 	C 	0.28087	0.43297	0.95583	-0.09
Mof_C 	C 	0.26545	0.40291	0.92162	-0.007
Mof_H 	H 	0.30337	0.39253	0.91033	0.047
Mof_C 	C 	0.20787	0.31063	0.85538	0.086
Mof_H 	H 	0.22517	0.27673	0.86733	-0
Mof_H 	H 	0.30037	0.42523	0.84663	0.098
Mof_O 	O 	0.03842	0.81555	0.33709	-0.408
Mof_O 	O 	0.07735	0.77546	0.28919	-0.411
Mof_C 	C 	0.02734	0.78714	0.30658	0.363
Mof_C 	C 	0.94753	0.76631	0.28917	-0.09
Mof_C 	C 	0.93211	0.73625	0.25496	-0.007
Mof_H 	H 	0.97003	0.72587	0.24367	0.047
Mof_C 	C 	0.87453	0.64397	0.18872	0.086
Mof_H 	H 	0.89183	0.61007	0.20067	-0
Mof_H 	H 	0.96703	0.75857	0.17997	0.098
Mof_Cu	Cu	0.8099	0.6198	0.69524	0.904
Mof_Cu	Cu	0.47657	0.95313	0.02857	0.904
Mof_Cu	Cu	0.14323	0.28647	0.36191	0.904
Mof_Cu	Cu	0.3802	0.1901	0.69524	0.904
Mof_Cu	Cu	0.04687	0.52343	0.02857	0.904
Mof_Cu	Cu	0.71353	0.85677	0.36191	0.904
Mof_Cu	Cu	0.8099	0.1901	0.69524	0.904
Mof_Cu	Cu	0.47657	0.52343	0.02857	0.904
Mof_Cu	Cu	0.14323	0.85677	0.36191	0.904
Mof_Cu	Cu	0.6198	0.8099	0.30476	0.904
Mof_Cu	Cu	0.28647	0.14323	0.63809	0.904
Mof_Cu	Cu	0.95313	0.47657	0.97143	0.904
Mof_Cu	Cu	0.1901	0.3802	0.30476	0.904
Mof_Cu	Cu	0.85677	0.71353	0.63809	0.904
Mof_Cu	Cu	0.52343	0.04687	0.97143	0.904
Mof_Cu	Cu	0.1901	0.8099	0.30476	0.904
Mof_Cu	Cu	0.85677	0.14323	0.63809	0.904
Mof_Cu	Cu	0.52343	0.47657	0.97143	0.904
Mof_C 	C 	0.55723	0.44277	0.63948	0.031
Mof_H 	H 	0.5672	0.4328	0.6623	0.05
Mof_C 	C 	0.52753	0.47247	0.57097	-0.023
Mof_C 	C 	0.51311	0.48689	0.53407	0.055
Mof_C 	C 	0.2239	0.7761	0.97281	0.031
Mof_H 	H 	0.23387	0.76613	0.99563	0.05
Mof_C 	C 	0.1942	0.8058	0.9043	-0.023
Mof_C 	C 	0.17978	0.82022	0.8674	0.055
Mof_C 	C 	0.89056	0.10944	0.30615	0.031
Mof_H 	H 	0.90053	0.09947	0.32897	0.05
Mof_C 	C 	0.86086	0.13914	0.23764	-0.022
Mof_C 	C 	0.84644	0.15356	0.20074	0.055
Mof_C 	C 	0.55723	0.11446	0.63948	0.031
Mof_H 	H 	0.5672	0.1344	0.6623	0.05
Mof_C 	C 	0.52753	0.05506	0.57097	-0.023
Mof_C 	C 	0.51311	0.02622	0.53407	0.055
Mof_C 	C 	0.2239	0.44779	0.97281	0.031
Mof_H 	H 	0.23387	0.46773	0.99563	0.05
Mof_C 	C 	0.1942	0.38839	0.9043	-0.023
Mof_C 	C 	0.17978	0.35955	0.8674	0.055
Mof_C 	C 	0.89056	0.78113	0.30615	0.031
Mof_H 	H 	0.90053	0.80107	0.32897	0.05
Mof_C 	C 	0.86086	0.72173	0.23764	-0.023
Mof_C 	C 	0.84644	0.69289	0.20074	0.055
Mof_C 	C 	0.88554	0.44277	0.63948	0.031
Mof_H 	H 	0.8656	0.4328	0.6623	0.05
Mof_C 	C 	0.94494	0.47247	0.57097	-0.023
Mof_C 	C 	0.97378	0.48689	0.53407	0.055
Mof_C 	C 	0.55221	0.7761	0.97281	0.031
Mof_H 	H 	0.53227	0.76613	0.99563	0.05
Mof_C 	C 	0.61161	0.8058	0.9043	-0.023
Mof_C 	C 	0.64045	0.82022	0.8674	0.055
Mof_C 	C 	0.21887	0.10944	0.30615	0.031
Mof_H 	H 	0.19893	0.09947	0.32897	0.05
Mof_C 	C 	0.27827	0.13914	0.23764	-0.023
Mof_C 	C 	0.30711	0.15356	0.20074	0.055
Mof_C 	C 	0.44277	0.55723	0.36052	0.031
Mof_H 	H 	0.4328	0.5672	0.3377	0.05
Mof_C 	C 	0.47247	0.52753	0.42903	-0.023
Mof_C 	C 	0.48689	0.51311	0.46593	0.055
Mof_C 	C 	0.10944	0.89056	0.69385	0.031
Mof_H 	H 	0.09947	0.90053	0.67103	0.05
Mof_C 	C 	0.13914	0.86086	0.76236	-0.022
Mof_C 	C 	0.15356	0.84644	0.79926	0.055
Mof_C 	C 	0.7761	0.2239	0.02719	0.031
Mof_H 	H 	0.76613	0.23387	0.00437	0.05
Mof_C 	C 	0.8058	0.1942	0.0957	-0.023
Mof_C 	C 	0.82022	0.17978	0.1326	0.055
Mof_C 	C 	0.11446	0.55723	0.36052	0.031
Mof_H 	H 	0.1344	0.5672	0.3377	0.05
Mof_C 	C 	0.05506	0.52753	0.42903	-0.023
Mof_C 	C 	0.02622	0.51311	0.46593	0.055
Mof_C 	C 	0.78113	0.89056	0.69385	0.031
Mof_H 	H 	0.80107	0.90053	0.67103	0.05
Mof_C 	C 	0.72173	0.86086	0.76236	-0.023
Mof_C 	C 	0.69289	0.84644	0.79926	0.055
Mof_C 	C 	0.44779	0.2239	0.02719	0.031
Mof_H 	H 	0.46773	0.23387	0.00437	0.05
Mof_C 	C 	0.38839	0.1942	0.0957	-0.023
Mof_C 	C 	0.35955	0.17978	0.1326	0.055
Mof_C 	C 	0.44277	0.88554	0.36052	0.031
Mof_H 	H 	0.4328	0.8656	0.3377	0.05
Mof_C 	C 	0.47247	0.94494	0.42903	-0.023
Mof_C 	C 	0.48689	0.97378	0.46593	0.055
Mof_C 	C 	0.10944	0.21887	0.69385	0.031
Mof_H 	H 	0.09947	0.19893	0.67103	0.05
Mof_C 	C 	0.13914	0.27827	0.76236	-0.023
Mof_C 	C 	0.15356	0.30711	0.79926	0.055
Mof_C 	C 	0.7761	0.55221	0.02719	0.031
Mof_H 	H 	0.76613	0.53227	0.00437	0.05
Mof_C 	C 	0.8058	0.61161	0.0957	-0.023
Mof_C 	C 	0.82022	0.64045	0.1326	0.055
_end
