data_functionalizedCrystal
_audit_creation_method	'EQeq! by Chris Wilmer'
_symmetry_space_group_name_H-M	'P1'
_symmetry_Int_Tables_number	1
_symmetry_cell_setting	triclinic
loop_
_symmetry_equiv_pos_as_xyz
  x,y,z
_cell_length_a	14.085
_cell_length_b	14.019
_cell_length_c	24.13
_cell_angle_alpha	90
_cell_angle_beta	90
_cell_angle_gamma	90
loop_
_atom_site_label
_atom_site_type_symbol
_atom_site_fract_x
_atom_site_fract_y
_atom_site_fract_z
_atom_site_charge
Mof_Zn	Zn	0.43961	0.09067	0.37345	1.227
Mof_O 	O 	0.5491	0.164	0.3941	-0.5
Mof_O 	O 	0.591	0.1133	0.4778	-0.462
Mof_O 	O 	0.807	0.3252	0.5917	-0.352
Mof_O 	O 	0.8789	0.4416	0.5504	-0.506
Mof_O 	O 	0.4798	0.9583	0.3557	-0.413
Mof_O 	O 	0.536	0.914	0.4383	-0.444
Mof_O 	O 	0.5933	0.6133	0.2037	-0.415
Mof_O 	O 	0.5633	0.7683	0.1931	-0.26
Mof_C 	C 	0.6506	0.2594	0.446	-0.146
Mof_C 	C 	0.7022	0.2786	0.4937	0.072
Mof_H 	H 	0.7003	0.2352	0.5229	0.035
Mof_C 	C 	0.7566	0.3611	0.4992	-0.123
Mof_C 	C 	0.7559	0.4264	0.4572	0.06
Mof_H 	H 	0.7893	0.4832	0.461	0.027
Mof_C 	C 	0.7061	0.4086	0.4091	-0.121
Mof_H 	H 	0.7073	0.453	0.3804	0.08
Mof_C 	C 	0.6547	0.3263	0.4032	0.064
Mof_H 	H 	0.6222	0.3148	0.3703	0.038
Mof_C 	C 	0.592	0.1716	0.439	0.426
Mof_C 	C 	0.8172	0.3762	0.5508	0.364
Mof_C 	C 	0.5554	0.8091	0.3638	-0.125
Mof_C 	C 	0.5522	0.7938	0.3069	0.061
Mof_H 	H 	0.5274	0.8411	0.284	0.057
Mof_C 	C 	0.5848	0.7103	0.2836	-0.101
Mof_C 	C 	0.6209	0.6415	0.3177	0.051
Mof_H 	H 	0.6421	0.5842	0.3028	0.038
Mof_C 	C 	0.6262	0.6564	0.374	-0.112
Mof_H 	H 	0.6538	0.6104	0.3966	0.077
Mof_C 	C 	0.5908	0.7392	0.3971	0.063
Mof_H 	H 	0.5911	0.7472	0.4354	0.03
Mof_C 	C 	0.5208	0.9008	0.388	0.412
Mof_C 	C 	0.5804	0.6979	0.2225	0.337
Mof_Zn	Zn	0.06039	0.90933	0.87345	1.241
Mof_O 	O 	0.9509	0.836	0.8941	-0.438
Mof_O 	O 	0.909	0.8867	0.9778	-0.363
Mof_O 	O 	0.693	0.6748	0.0917	-0.341
Mof_O 	O 	0.6211	0.5584	0.0504	-0.528
Mof_O 	O 	0.0202	0.0417	0.8557	-0.554
Mof_O 	O 	0.964	0.086	0.9383	-0.463
Mof_O 	O 	0.9067	0.3867	0.7037	-0.409
Mof_O 	O 	0.9367	0.2317	0.6931	-0.262
Mof_C 	C 	0.8494	0.7406	0.946	-0.137
Mof_C 	C 	0.7978	0.7214	0.9937	0.141
Mof_H 	H 	0.7997	0.7648	0.0229	-0.002
Mof_C 	C 	0.7434	0.6389	0.9992	-0.091
Mof_C 	C 	0.7441	0.5736	0.9572	0.048
Mof_H 	H 	0.7107	0.5168	0.961	0.04
Mof_C 	C 	0.7939	0.5914	0.9091	-0.105
Mof_H 	H 	0.7927	0.547	0.8804	0.078
Mof_C 	C 	0.8453	0.6737	0.9032	0.063
Mof_H 	H 	0.8778	0.6852	0.8703	0.054
Mof_C 	C 	0.908	0.8284	0.939	0.422
Mof_C 	C 	0.6828	0.6238	0.0508	0.328
Mof_C 	C 	0.9446	0.1909	0.8638	-0.158
Mof_C 	C 	0.9478	0.2062	0.8069	0.088
Mof_H 	H 	0.9726	0.1589	0.784	0.046
Mof_C 	C 	0.9152	0.2897	0.7836	-0.117
Mof_C 	C 	0.8791	0.3585	0.8177	0.071
Mof_H 	H 	0.8579	0.4158	0.8028	0.035
Mof_C 	C 	0.8738	0.3436	0.874	-0.127
Mof_H 	H 	0.8462	0.3896	0.8966	0.09
Mof_C 	C 	0.9092	0.2608	0.8971	0.092
Mof_H 	H 	0.9089	0.2528	0.9354	0.036
Mof_C 	C 	0.9792	0.0992	0.888	0.494
Mof_C 	C 	0.9196	0.3021	0.7225	0.345
Mof_Zn	Zn	0.56039	0.59067	0.12655	1.24
Mof_O 	O 	0.4509	0.664	0.1059	-0.483
Mof_O 	O 	0.409	0.6133	0.0222	-0.452
Mof_O 	O 	0.193	0.8252	0.9083	-0.354
Mof_O 	O 	0.1211	0.9416	0.9496	-0.497
Mof_O 	O 	0.5202	0.4583	0.1443	-0.456
Mof_O 	O 	0.464	0.414	0.0617	-0.483
Mof_O 	O 	0.4067	0.1133	0.2963	-0.444
Mof_O 	O 	0.4367	0.2683	0.3069	-0.276
Mof_C 	C 	0.3494	0.7594	0.054	-0.103
Mof_C 	C 	0.2978	0.7786	0.0063	-0.024
Mof_H 	H 	0.2997	0.7352	0.9771	0.103
Mof_C 	C 	0.2434	0.8611	0.0008	-0.121
Mof_C 	C 	0.2441	0.9264	0.0428	0.046
Mof_H 	H 	0.2107	0.9832	0.039	0.045
Mof_C 	C 	0.2939	0.9086	0.0909	-0.094
Mof_H 	H 	0.2927	0.953	0.1196	0.09
Mof_C 	C 	0.3453	0.8263	0.0968	0.04
Mof_H 	H 	0.3778	0.8148	0.1297	0.053
Mof_C 	C 	0.408	0.6716	0.061	0.409
Mof_C 	C 	0.1828	0.8762	0.9492	0.39
Mof_C 	C 	0.4446	0.3091	0.1362	-0.149
Mof_C 	C 	0.4478	0.2938	0.1931	0.076
Mof_H 	H 	0.4726	0.3411	0.216	0.041
Mof_C 	C 	0.4152	0.2103	0.2164	-0.128
Mof_C 	C 	0.3791	0.1415	0.1823	0.062
Mof_H 	H 	0.3579	0.0842	0.1972	0.01
Mof_C 	C 	0.3738	0.1564	0.126	-0.136
Mof_H 	H 	0.3462	0.1104	0.1034	0.061
Mof_C 	C 	0.4092	0.2392	0.1029	0.077
Mof_H 	H 	0.4089	0.2472	0.0646	0.012
Mof_C 	C 	0.4792	0.4008	0.112	0.425
Mof_C 	C 	0.4196	0.1979	0.2775	0.343
Mof_Zn	Zn	0.93961	0.40933	0.62655	1.249
Mof_O 	O 	0.0491	0.336	0.6059	-0.521
Mof_O 	O 	0.091	0.3867	0.5222	-0.458
Mof_O 	O 	0.307	0.1748	0.4083	-0.369
Mof_O 	O 	0.3789	0.0584	0.4496	-0.551
Mof_O 	O 	0.9798	0.5417	0.6443	-0.382
Mof_O 	O 	0.036	0.586	0.5617	-0.468
Mof_O 	O 	0.0933	0.8867	0.7963	-0.406
Mof_O 	O 	0.0633	0.7317	0.8069	-0.286
Mof_C 	C 	0.1506	0.2406	0.554	-0.161
Mof_C 	C 	0.2022	0.2214	0.5063	0.079
Mof_H 	H 	0.2003	0.2648	0.4771	0.03
Mof_C 	C 	0.2566	0.1389	0.5008	-0.146
Mof_C 	C 	0.2559	0.0736	0.5428	0.068
Mof_H 	H 	0.2893	0.0168	0.539	-0.001
Mof_C 	C 	0.2061	0.0914	0.5909	-0.141
Mof_H 	H 	0.2073	0.047	0.6196	0.061
Mof_C 	C 	0.1547	0.1737	0.5968	0.068
Mof_H 	H 	0.1222	0.1852	0.6297	0.02
Mof_C 	C 	0.092	0.3284	0.561	0.429
Mof_C 	C 	0.3172	0.1238	0.4492	0.371
Mof_C 	C 	0.0554	0.6909	0.6362	-0.12
Mof_C 	C 	0.0522	0.7062	0.6931	0.05
Mof_H 	H 	0.0274	0.6589	0.716	0.035
Mof_C 	C 	0.0848	0.7897	0.7164	-0.105
Mof_C 	C 	0.1209	0.8585	0.6823	0.049
Mof_H 	H 	0.1421	0.9158	0.6972	0.05
Mof_C 	C 	0.1262	0.8436	0.626	-0.111
Mof_H 	H 	0.1538	0.8896	0.6034	0.091
Mof_C 	C 	0.0908	0.7608	0.6029	0.055
Mof_H 	H 	0.0911	0.7528	0.5646	0.029
Mof_C 	C 	0.0208	0.5992	0.612	0.34
Mof_C 	C 	0.0804	0.8021	0.7775	0.333
Mof_Zn	Zn	0.56039	0.90933	0.62655	1.252
Mof_O 	O 	0.4509	0.836	0.6059	-0.472
Mof_O 	O 	0.409	0.8867	0.5222	-0.407
Mof_O 	O 	0.193	0.6748	0.4083	-0.356
Mof_O 	O 	0.1211	0.5584	0.4496	-0.537
Mof_O 	O 	0.5202	0.0417	0.6443	-0.493
Mof_O 	O 	0.464	0.086	0.5617	-0.487
Mof_O 	O 	0.4067	0.3867	0.7963	-0.421
Mof_O 	O 	0.4367	0.2317	0.8069	-0.281
Mof_C 	C 	0.3494	0.7406	0.554	-0.129
Mof_C 	C 	0.2978	0.7214	0.5063	0.064
Mof_H 	H 	0.2997	0.7648	0.4771	0.047
Mof_C 	C 	0.2434	0.6389	0.5008	-0.12
Mof_C 	C 	0.2441	0.5736	0.5428	0.053
Mof_H 	H 	0.2107	0.5168	0.539	0.027
Mof_C 	C 	0.2939	0.5914	0.5909	-0.111
Mof_H 	H 	0.2927	0.547	0.6196	0.074
Mof_C 	C 	0.3453	0.6737	0.5968	0.055
Mof_H 	H 	0.3778	0.6852	0.6297	0.044
Mof_C 	C 	0.408	0.8284	0.561	0.418
Mof_C 	C 	0.1828	0.6238	0.4492	0.364
Mof_C 	C 	0.4446	0.1909	0.6362	-0.152
Mof_C 	C 	0.4478	0.2062	0.6931	0.077
Mof_H 	H 	0.4726	0.1589	0.716	0.033
Mof_C 	C 	0.4152	0.2897	0.7164	-0.124
Mof_C 	C 	0.3791	0.3585	0.6823	0.066
Mof_H 	H 	0.3579	0.4158	0.6972	0.029
Mof_C 	C 	0.3738	0.3436	0.626	-0.132
Mof_H 	H 	0.3462	0.3896	0.6034	0.083
Mof_C 	C 	0.4092	0.2608	0.6029	0.081
Mof_H 	H 	0.4089	0.2528	0.5646	0.024
Mof_C 	C 	0.4792	0.0992	0.612	0.426
Mof_C 	C 	0.4196	0.3021	0.7775	0.342
Mof_Zn	Zn	0.93961	0.09067	0.12655	1.237
Mof_O 	O 	0.0491	0.164	0.1059	-0.53
Mof_O 	O 	0.091	0.1133	0.0222	-0.495
Mof_O 	O 	0.307	0.3252	0.9083	-0.367
Mof_O 	O 	0.3789	0.4416	0.9496	-0.516
Mof_O 	O 	0.9798	0.9583	0.1443	-0.342
Mof_O 	O 	0.036	0.914	0.0617	-0.453
Mof_O 	O 	0.0933	0.6133	0.2963	-0.427
Mof_O 	O 	0.0633	0.7683	0.3069	-0.28
Mof_C 	C 	0.1506	0.2594	0.054	-0.132
Mof_C 	C 	0.2022	0.2786	0.0063	-0.013
Mof_H 	H 	0.2003	0.2352	0.9771	0.09
Mof_C 	C 	0.2566	0.3611	0.0008	-0.149
Mof_C 	C 	0.2559	0.4264	0.0428	0.061
Mof_H 	H 	0.2893	0.4832	0.039	0.015
Mof_C 	C 	0.2061	0.4086	0.0909	-0.123
Mof_H 	H 	0.2073	0.453	0.1196	0.075
Mof_C 	C 	0.1547	0.3263	0.0968	0.052
Mof_H 	H 	0.1222	0.3148	0.1297	0.03
Mof_C 	C 	0.092	0.1716	0.061	0.417
Mof_C 	C 	0.3172	0.3762	0.9492	0.401
Mof_C 	C 	0.0554	0.8091	0.1362	-0.114
Mof_C 	C 	0.0522	0.7938	0.1931	0.047
Mof_H 	H 	0.0274	0.8411	0.216	0.044
Mof_C 	C 	0.0848	0.7103	0.2164	-0.107
Mof_C 	C 	0.1209	0.6415	0.1823	0.044
Mof_H 	H 	0.1421	0.5842	0.1972	0.033
Mof_C 	C 	0.1262	0.6564	0.126	-0.113
Mof_H 	H 	0.1538	0.6104	0.1034	0.068
Mof_C 	C 	0.0908	0.7392	0.1029	0.048
Mof_H 	H 	0.0911	0.7472	0.0646	0.019
Mof_C 	C 	0.0208	0.9008	0.112	0.334
Mof_C 	C 	0.0804	0.6979	0.2775	0.333
Mof_Zn	Zn	0.43961	0.40933	0.87345	1.24
Mof_O 	O 	0.5491	0.336	0.8941	-0.489
Mof_O 	O 	0.591	0.3867	0.9778	-0.418
Mof_O 	O 	0.807	0.1748	0.0917	-0.354
Mof_O 	O 	0.8789	0.0584	0.0504	-0.538
Mof_O 	O 	0.4798	0.5417	0.8557	-0.451
Mof_O 	O 	0.536	0.586	0.9383	-0.452
Mof_O 	O 	0.5933	0.8867	0.7037	-0.393
Mof_O 	O 	0.5633	0.7317	0.6931	-0.266
Mof_C 	C 	0.6506	0.2406	0.946	-0.172
Mof_C 	C 	0.7022	0.2214	0.9937	0.162
Mof_H 	H 	0.7003	0.2648	0.0229	-0.023
Mof_C 	C 	0.7566	0.1389	0.9992	-0.117
Mof_C 	C 	0.7559	0.0736	0.9572	0.064
Mof_H 	H 	0.7893	0.0168	0.961	0.013
Mof_C 	C 	0.7061	0.0914	0.9091	-0.136
Mof_H 	H 	0.7073	0.047	0.8804	0.064
Mof_C 	C 	0.6547	0.1737	0.9032	0.079
Mof_H 	H 	0.6222	0.1852	0.8703	0.029
Mof_C 	C 	0.592	0.3284	0.939	0.436
Mof_C 	C 	0.8172	0.1238	0.0508	0.332
Mof_C 	C 	0.5554	0.6909	0.8638	-0.129
Mof_C 	C 	0.5522	0.7062	0.8069	0.063
Mof_H 	H 	0.5274	0.6589	0.784	0.048
Mof_C 	C 	0.5848	0.7897	0.7836	-0.098
Mof_C 	C 	0.6209	0.8585	0.8177	0.056
Mof_H 	H 	0.6421	0.9158	0.8028	0.056
Mof_C 	C 	0.6262	0.8436	0.874	-0.108
Mof_H 	H 	0.6538	0.8896	0.8966	0.099
Mof_C 	C 	0.5908	0.7608	0.8971	0.068
Mof_H 	H 	0.5911	0.7528	0.9354	0.04
Mof_C 	C 	0.5208	0.5992	0.888	0.415
Mof_C 	C 	0.5804	0.8021	0.7225	0.336
Mof_Zn	Zn	0.06039	0.59067	0.37345	1.23
Mof_O 	O 	0.9509	0.664	0.3941	-0.449
Mof_O 	O 	0.909	0.6133	0.4778	-0.412
Mof_O 	O 	0.693	0.8252	0.5917	-0.339
Mof_O 	O 	0.6211	0.9416	0.5504	-0.49
Mof_O 	O 	0.0202	0.4583	0.3557	-0.523
Mof_O 	O 	0.964	0.414	0.4383	-0.465
Mof_O 	O 	0.9067	0.1133	0.2037	-0.432
Mof_O 	O 	0.9367	0.2683	0.1931	-0.256
Mof_C 	C 	0.8494	0.7594	0.446	-0.113
Mof_C 	C 	0.7978	0.7786	0.4937	0.057
Mof_H 	H 	0.7997	0.7352	0.5229	0.053
Mof_C 	C 	0.7434	0.8611	0.4992	-0.097
Mof_C 	C 	0.7441	0.9264	0.4572	0.045
Mof_H 	H 	0.7107	0.9832	0.461	0.056
Mof_C 	C 	0.7939	0.9086	0.4091	-0.09
Mof_H 	H 	0.7927	0.953	0.3804	0.095
Mof_C 	C 	0.8453	0.8263	0.4032	0.051
Mof_H 	H 	0.8778	0.8148	0.3703	0.062
Mof_C 	C 	0.908	0.6716	0.439	0.415
Mof_C 	C 	0.6828	0.8762	0.5508	0.357
Mof_C 	C 	0.9446	0.3091	0.3638	-0.158
Mof_C 	C 	0.9478	0.2938	0.3069	0.089
Mof_H 	H 	0.9726	0.3411	0.284	0.054
Mof_C 	C 	0.9152	0.2103	0.2836	-0.122
Mof_C 	C 	0.8791	0.1415	0.3177	0.068
Mof_H 	H 	0.8579	0.0842	0.3028	0.015
Mof_C 	C 	0.8738	0.1564	0.374	-0.133
Mof_H 	H 	0.8462	0.1104	0.3966	0.068
Mof_C 	C 	0.9092	0.2392	0.3971	0.09
Mof_H 	H 	0.9089	0.2472	0.4354	0.024
Mof_C 	C 	0.9792	0.4008	0.388	0.499
Mof_C 	C 	0.9196	0.1979	0.2225	0.346
Mof_Zn	Zn	0.5	0	0.5	1.221
Mof_Zn	Zn	-0	0	-0	1.189
Mof_Zn	Zn	0.5	0.5	-0	1.23
Mof_Zn	Zn	-7.3845e-33	0.5	0.5	1.225
_end
