data_functionalizedCrystal
_audit_creation_method	'EQeq! by Chris Wilmer'
_symmetry_space_group_name_H-M	'P1'
_symmetry_Int_Tables_number	1
_symmetry_cell_setting	triclinic
loop_
_symmetry_equiv_pos_as_xyz
  x,y,z
_cell_length_a	10.998
_cell_length_b	11.8
_cell_length_c	12.793
_cell_angle_alpha	70.09
_cell_angle_beta	66.74
_cell_angle_gamma	73.43
loop_
_atom_site_label
_atom_site_type_symbol
_atom_site_fract_x
_atom_site_fract_y
_atom_site_fract_z
_atom_site_charge
Mof_N 	N 	0.2007	0.3531	0.4394	-0.124
Mof_N 	N 	0.3676	0.2105	0.1921	-0.186
Mof_H 	H 	0.4039	0.1376	0.1843	0.107
Mof_N 	N 	0.1139	0.6638	0.359	-0.118
Mof_N 	N 	0.4654	0.7026	0.2091	-0.188
Mof_H 	H 	0.5094	0.7604	0.1621	0.108
Mof_N 	N 	0.9289	0.4797	0.3526	-0.121
Mof_N 	N 	0.8267	0.242	0.2954	-0.182
Mof_H 	H 	0.8234	0.2272	0.2353	0.111
Mof_C 	C 	0.2373	0.3313	0.3336	-0.038
Mof_H 	H 	0.1948	0.3838	0.2804	0.049
Mof_C 	C 	0.3357	0.2338	0.3	0.088
Mof_C 	C 	0.3975	0.1577	0.3818	-0.099
Mof_H 	H 	0.4644	0.0916	0.3634	0.055
Mof_C 	C 	0.3594	0.1804	0.4897	-0.041
Mof_H 	H 	0.4004	0.1298	0.5446	0.033
Mof_C 	C 	0.2605	0.278	0.5163	0.018
Mof_H 	H 	0.2347	0.2921	0.59	0.022
Mof_C 	C 	0.3418	0.3043	0.0935	-0.085
Mof_H 	H 	0.2469	0.3394	0.1163	0.053
Mof_H 	H 	0.3611	0.267	0.0305	0.046
Mof_C 	C 	0.4223	0.4063	0.0465	0.046
Mof_C 	C 	0.3628	0.5279	0.0277	-0.075
Mof_H 	H 	0.2701	0.5486	0.045	0.049
Mof_C 	C 	0.5612	0.3804	0.0165	-0.065
Mof_H 	H 	0.6044	0.2992	0.0264	0.053
Mof_C 	C 	0.248	0.6402	0.3217	-0.046
Mof_H 	H 	0.2903	0.5614	0.3492	0.057
Mof_C 	C 	0.3288	0.7277	0.2433	0.102
Mof_C 	C 	0.2623	0.8435	0.2009	-0.12
Mof_H 	H 	0.3113	0.9043	0.1479	0.063
Mof_C 	C 	0.1262	0.8676	0.2369	-0.008
Mof_H 	H 	0.0815	0.9444	0.2072	0.025
Mof_C 	C 	0.0532	0.777	0.3186	-0.023
Mof_H 	H 	0.9598	0.7958	0.3456	0.048
Mof_C 	C 	0.5387	0.5851	0.2476	-0.092
Mof_H 	H 	0.6336	0.5862	0.2049	0.058
Mof_H 	H 	0.5136	0.5257	0.2263	0.063
Mof_C 	C 	0.5185	0.5415	0.3793	0.051
Mof_C 	C 	0.5	0.6213	0.4424	-0.062
Mof_H 	H 	0.5	0.704	0.4046	0.052
Mof_C 	C 	0.5187	0.4191	0.4375	-0.072
Mof_H 	H 	0.5316	0.3631	0.396	0.057
Mof_C 	C 	0.8874	0.3769	0.3681	-0.037
Mof_H 	H 	0.8707	0.3217	0.442	0.058
Mof_C 	C 	0.8679	0.3485	0.2797	0.09
Mof_C 	C 	0.8914	0.4339	0.1697	-0.099
Mof_H 	H 	0.8804	0.419	0.1074	0.059
Mof_C 	C 	0.9312	0.5401	0.1554	-0.042
Mof_H 	H 	0.9454	0.5989	0.0835	0.038
Mof_C 	C 	0.9497	0.5589	0.2478	0.019
Mof_H 	H 	0.9782	0.6306	0.2362	0.027
Mof_C 	C 	0.7893	0.155	0.4077	-0.111
Mof_H 	H 	0.7399	0.1017	0.4029	0.058
Mof_H 	H 	0.728	0.1993	0.4653	0.064
Mof_C 	C 	0.9004	0.0761	0.4531	0.086
Mof_C 	C 	0.8687	0.9976	0.564	-0.1
Mof_H 	H 	0.7787	0.9954	0.6088	0.064
Mof_C 	C 	0.0351	0.077	0.3896	-0.114
Mof_H 	H 	0.0604	0.1291	0.3144	0.07
Mof_N 	N 	0.7993	0.6469	0.5606	-0.121
Mof_N 	N 	0.6324	0.7895	0.8079	-0.186
Mof_H 	H 	0.5961	0.8624	0.8157	0.108
Mof_N 	N 	0.8861	0.3362	0.641	-0.126
Mof_N 	N 	0.5346	0.2974	0.7909	-0.185
Mof_H 	H 	0.4906	0.2396	0.8379	0.106
Mof_N 	N 	0.0711	0.5203	0.6474	-0.125
Mof_N 	N 	0.1733	0.758	0.7046	-0.19
Mof_H 	H 	0.1766	0.7728	0.7647	0.11
Mof_C 	C 	0.7627	0.6687	0.6664	-0.037
Mof_H 	H 	0.8052	0.6162	0.7196	0.054
Mof_C 	C 	0.6643	0.7662	0.7	0.09
Mof_C 	C 	0.6025	0.8423	0.6182	-0.1
Mof_H 	H 	0.5356	0.9084	0.6366	0.057
Mof_C 	C 	0.6406	0.8196	0.5103	-0.04
Mof_H 	H 	0.5996	0.8702	0.4554	0.035
Mof_C 	C 	0.7395	0.722	0.4837	0.018
Mof_H 	H 	0.7653	0.7079	0.41	0.024
Mof_C 	C 	0.6582	0.6957	0.9065	-0.086
Mof_H 	H 	0.7531	0.6606	0.8837	0.057
Mof_H 	H 	0.6389	0.733	0.9695	0.05
Mof_C 	C 	0.5777	0.5937	0.9535	0.043
Mof_C 	C 	0.6372	0.4721	0.9723	-0.068
Mof_H 	H 	0.7299	0.4514	0.955	0.051
Mof_C 	C 	0.4388	0.6196	0.9835	-0.058
Mof_H 	H 	0.3956	0.7008	0.9736	0.051
Mof_C 	C 	0.752	0.3598	0.6783	-0.036
Mof_H 	H 	0.7097	0.4386	0.6508	0.055
Mof_C 	C 	0.6712	0.2723	0.7567	0.088
Mof_C 	C 	0.7377	0.1565	0.7991	-0.091
Mof_H 	H 	0.6887	0.0957	0.8521	0.052
Mof_C 	C 	0.8738	0.1324	0.7631	-0.054
Mof_H 	H 	0.9185	0.0556	0.7928	0.046
Mof_C 	C 	0.9468	0.223	0.6814	0.05
Mof_H 	H 	0.0402	0.2042	0.6544	0.005
Mof_C 	C 	0.4613	0.4149	0.7524	-0.094
Mof_H 	H 	0.3664	0.4138	0.7951	0.058
Mof_H 	H 	0.4864	0.4743	0.7737	0.064
Mof_C 	C 	0.4815	0.4585	0.6207	0.051
Mof_C 	C 	0.5	0.3787	0.5576	-0.062
Mof_H 	H 	0.5	0.296	0.5954	0.051
Mof_C 	C 	0.4813	0.5809	0.5625	-0.071
Mof_H 	H 	0.4684	0.6369	0.604	0.057
Mof_C 	C 	0.1126	0.6231	0.6319	-0.042
Mof_H 	H 	0.1293	0.6783	0.558	0.056
Mof_C 	C 	0.1321	0.6515	0.7203	0.089
Mof_C 	C 	0.1086	0.5661	0.8303	-0.102
Mof_H 	H 	0.1196	0.581	0.8926	0.055
Mof_C 	C 	0.0688	0.4599	0.8446	-0.045
Mof_H 	H 	0.0546	0.4011	0.9165	0.032
Mof_C 	C 	0.0503	0.4411	0.7522	0.016
Mof_H 	H 	0.0218	0.3694	0.7638	0.019
Mof_C 	C 	0.2107	0.845	0.5923	-0.072
Mof_H 	H 	0.2601	0.8983	0.5971	0.048
Mof_H 	H 	0.272	0.8007	0.5347	0.054
Mof_C 	C 	0.0996	0.9239	0.5469	0.008
Mof_C 	C 	0.1313	0.0024	0.436	-0.032
Mof_H 	H 	0.2213	0.0046	0.3912	0.038
Mof_C 	C 	0.9649	0.923	0.6104	-0.012
Mof_H 	H 	0.9396	0.8709	0.6856	0.044
Mof_Cd	Cd	1.00634e-17	0.5	0.5	0.346
_end
