data_functionalizedCrystal
_audit_creation_method	'EQeq! by Chris Wilmer'
_symmetry_space_group_name_H-M	'P1'
_symmetry_Int_Tables_number	1
_symmetry_cell_setting	triclinic
loop_
_symmetry_equiv_pos_as_xyz
  x,y,z
_cell_length_a	13.3933
_cell_length_b	9.9035
_cell_length_c	23.7661
_cell_angle_alpha	90
_cell_angle_beta	98.036
_cell_angle_gamma	90
loop_
_atom_site_label
_atom_site_type_symbol
_atom_site_fract_x
_atom_site_fract_y
_atom_site_fract_z
_atom_site_charge
Mof_Cu	Cu	0.39009	0.03859	0.01091	0.921
Mof_Cu	Cu	0.57011	0.11753	0.11735	0.899
Mof_S 	S 	0.02963	0.9703	0.00252	-0.088
Mof_O 	O 	0.2467	0.0111	0.9986	0.667
Mof_O 	O 	0.2445	0.2314	0.0135	-0.11
Mof_O 	O 	0.8173	0.85	0.9893	0.154
Mof_O 	O 	0.7441	0.0485	0.0034	-0.831
Mof_C 	C 	0.204	0.1248	0.0019	-0.386
Mof_C 	C 	0.8179	0.9714	0.9948	-0.067
Mof_C 	C 	0.0915	0.1176	0.9914	0.216
Mof_C 	C 	0.0249	0.2222	0.9785	-0.343
Mof_H 	H 	0.0459	0.3122	0.9707	0.466
Mof_C 	C 	0.9229	0.1828	0.9782	0.091
Mof_H 	H 	0.8665	0.2427	0.9693	0.028
Mof_C 	C 	0.9136	0.0519	0.9915	0.063
Mof_S 	S 	0.73916	0.28657	0.33632	0.07
Mof_O 	O 	0.5195	0.1159	0.03771	-0.698
Mof_H 	H 	0.5262	0.1951	0.025	0.286
Mof_O 	O 	0.63034	0.0971	0.19732	-0.398
Mof_O 	O 	0.586	0.2925	0.23498	-0.297
Mof_O 	O 	0.86687	0.3683	0.43784	-0.404
Mof_O 	O 	0.94988	0.1745	0.45794	-0.279
Mof_N 	N 	0.4032	0.9277	0.08451	-0.161
Mof_N 	N 	0.47106	0.964	0.12819	-0.179
Mof_N 	N 	0.8119	0.8089	0.43514	-0.087
Mof_N 	N 	0.8022	0.71	0.39646	-0.172
Mof_C 	C 	0.3444	0.8234	0.0911	0.012
Mof_H 	H 	0.2974	0.7959	0.0595	0.06
Mof_C 	C 	0.347	0.7522	0.14086	-0.019
Mof_H 	H 	0.3021	0.6788	0.1432	0.032
Mof_C 	C 	0.4148	0.7876	0.18708	-0.102
Mof_C 	C 	0.4763	0.8968	0.17651	0.054
Mof_H 	H 	0.5259	0.9248	0.2067	0.012
Mof_C 	C 	0.7284	0.8704	0.4437	0.043
Mof_H 	H 	0.7339	0.9417	0.4707	0.058
Mof_C 	C 	0.6333	0.8393	0.4164	-0.021
Mof_H 	H 	0.5763	0.8883	0.4248	0.072
Mof_C 	C 	0.6217	0.738	0.37738	-0.089
Mof_C 	C 	0.7124	0.676	0.36922	0.071
Mof_H 	H 	0.7095	0.6047	0.3423	0.005
Mof_C 	C 	0.42	0.7234	0.24462	0.268
Mof_C 	C 	0.5187	0.7603	0.28267	-0.378
Mof_H 	H 	0.5239	0.8597	0.2864	0.143
Mof_H 	H 	0.5768	0.728	0.2648	0.143
Mof_C 	C 	0.5228	0.6964	0.34227	0.278
Mof_C 	C 	0.5146	0.5423	0.33593	-0.398
Mof_H 	H 	0.517	0.5002	0.3739	0.159
Mof_H 	H 	0.5723	0.5076	0.3183	0.157
Mof_C 	C 	0.4149	0.5045	0.2986	0.299
Mof_H 	H 	0.4106	0.4041	0.2947	-0.058
Mof_C 	C 	0.4134	0.5677	0.23961	-0.387
Mof_H 	H 	0.3504	0.542	0.215	0.136
Mof_H 	H 	0.471	0.5332	0.2219	0.151
Mof_C 	C 	0.33	0.7726	0.27298	-0.387
Mof_H 	H 	0.3325	0.8722	0.2767	0.133
Mof_H 	H 	0.2662	0.7482	0.2489	0.136
Mof_C 	C 	0.3327	0.7086	0.33175	0.301
Mof_H 	H 	0.2744	0.7424	0.3499	-0.064
Mof_C 	C 	0.4314	0.7482	0.36829	-0.408
Mof_H 	H 	0.4328	0.7101	0.4069	0.167
Mof_H 	H 	0.4351	0.8478	0.3717	0.16
Mof_C 	C 	0.3259	0.5549	0.32569	-0.414
Mof_H 	H 	0.3265	0.5129	0.3635	0.152
Mof_H 	H 	0.2621	0.5297	0.3017	0.142
Mof_C 	C 	0.6376	0.1887	0.23549	0.329
Mof_C 	C 	0.8882	0.2475	0.42733	0.347
Mof_C 	C 	0.7166	0.1643	0.28492	-0.09
Mof_C 	C 	0.7798	0.0569	0.29628	-0.015
Mof_H 	H 	0.7789	0.9796	0.2726	0.048
Mof_C 	C 	0.8466	0.0735	0.34706	-0.004
Mof_H 	H 	0.8954	0.008	0.3614	0.041
Mof_C 	C 	0.8341	0.1917	0.37328	-0.083
Mof_O 	O 	0.0714	0.3785	0.9868	-0.366
Mof_O 	O 	0.085	0.3346	0.9325	-0.181
Mof_Cu	Cu	0.10991	0.53859	0.48909	0.92
Mof_Cu	Cu	0.92989	0.61753	0.38265	0.897
Mof_S 	S 	0.47037	0.4703	0.49748	-0.072
Mof_O 	O 	0.2533	0.5111	0.5014	0.656
Mof_O 	O 	0.2555	0.7314	0.4865	-0.107
Mof_O 	O 	0.6827	0.35	0.5107	0.148
Mof_O 	O 	0.7559	0.5485	0.4966	-0.828
Mof_C 	C 	0.296	0.6248	0.4981	-0.385
Mof_C 	C 	0.6821	0.4714	0.5052	-0.049
Mof_C 	C 	0.4085	0.6176	0.5086	0.215
Mof_C 	C 	0.4751	0.7222	0.5215	-0.346
Mof_H 	H 	0.4541	0.8122	0.5293	0.467
Mof_C 	C 	0.5771	0.6828	0.5218	0.1
Mof_H 	H 	0.6335	0.7427	0.5307	0.025
Mof_C 	C 	0.5864	0.5519	0.5085	0.036
Mof_S 	S 	0.76084	0.78657	0.16368	0.069
Mof_O 	O 	0.9805	0.6159	0.46229	-0.698
Mof_H 	H 	0.9738	0.6951	0.475	0.285
Mof_O 	O 	0.86966	0.5971	0.30268	-0.398
Mof_O 	O 	0.914	0.7925	0.26502	-0.298
Mof_O 	O 	0.63313	0.8683	0.06216	-0.405
Mof_O 	O 	0.55012	0.6745	0.04206	-0.28
Mof_N 	N 	0.0968	0.4277	0.41549	-0.162
Mof_N 	N 	0.02894	0.464	0.37181	-0.178
Mof_N 	N 	0.6881	0.3089	0.06486	-0.087
Mof_N 	N 	0.6978	0.21	0.10354	-0.171
Mof_C 	C 	0.1556	0.3234	0.4089	0.012
Mof_H 	H 	0.2026	0.2959	0.4405	0.06
Mof_C 	C 	0.153	0.2522	0.35914	-0.021
Mof_H 	H 	0.1979	0.1788	0.3568	0.032
Mof_C 	C 	0.0852	0.2876	0.31292	-0.1
Mof_C 	C 	0.0237	0.3968	0.32349	0.05
Mof_H 	H 	0.9741	0.4248	0.2933	0.014
Mof_C 	C 	0.7716	0.3704	0.0563	0.044
Mof_H 	H 	0.7661	0.4417	0.0293	0.059
Mof_C 	C 	0.8667	0.3393	0.0836	-0.022
Mof_H 	H 	0.9237	0.3883	0.0752	0.072
Mof_C 	C 	0.8783	0.238	0.12262	-0.087
Mof_C 	C 	0.7876	0.176	0.13078	0.071
Mof_H 	H 	0.7905	0.1047	0.1577	0.006
Mof_C 	C 	0.08	0.2234	0.25538	0.262
Mof_C 	C 	0.9813	0.2603	0.21733	-0.373
Mof_H 	H 	0.9761	0.3597	0.2136	0.141
Mof_H 	H 	0.9232	0.228	0.2352	0.142
Mof_C 	C 	0.9772	0.1964	0.15773	0.276
Mof_C 	C 	0.9854	0.0423	0.16407	-0.389
Mof_H 	H 	0.983	0.0002	0.1261	0.158
Mof_H 	H 	0.9277	0.0076	0.1817	0.155
Mof_C 	C 	0.0851	0.0045	0.2014	0.286
Mof_H 	H 	0.0894	0.9041	0.2053	-0.052
Mof_C 	C 	0.0866	0.0677	0.26039	-0.38
Mof_H 	H 	0.1496	0.042	0.285	0.134
Mof_H 	H 	0.029	0.0332	0.2781	0.147
Mof_C 	C 	0.17	0.2726	0.22702	-0.383
Mof_H 	H 	0.1675	0.3722	0.2233	0.132
Mof_H 	H 	0.2338	0.2482	0.2511	0.135
Mof_C 	C 	0.1673	0.2086	0.16825	0.297
Mof_H 	H 	0.2256	0.2424	0.1501	-0.063
Mof_C 	C 	0.0686	0.2482	0.13171	-0.407
Mof_H 	H 	0.0672	0.2101	0.0931	0.166
Mof_H 	H 	0.0649	0.3478	0.1283	0.159
Mof_C 	C 	0.1741	0.0549	0.17431	-0.407
Mof_H 	H 	0.1735	0.0129	0.1365	0.149
Mof_H 	H 	0.2379	0.0297	0.1983	0.14
Mof_C 	C 	0.8624	0.6887	0.26451	0.328
Mof_C 	C 	0.6118	0.7475	0.07267	0.347
Mof_C 	C 	0.7834	0.6643	0.21508	-0.088
Mof_C 	C 	0.7202	0.5569	0.20372	-0.02
Mof_H 	H 	0.7211	0.4796	0.2274	0.051
Mof_C 	C 	0.6534	0.5735	0.15294	-0.001
Mof_H 	H 	0.6046	0.508	0.1386	0.039
Mof_C 	C 	0.6659	0.6917	0.12672	-0.084
Mof_O 	O 	0.4286	0.8785	0.5132	-0.366
Mof_O 	O 	0.415	0.8346	0.5675	-0.18
Mof_Cu	Cu	0.60991	0.96141	0.98909	0.92
Mof_Cu	Cu	0.42989	0.88247	0.88265	0.898
Mof_S 	S 	0.97037	0.0297	0.99748	-0.088
Mof_O 	O 	0.7533	0.9889	0.0014	0.667
Mof_O 	O 	0.7555	0.7686	0.9865	-0.11
Mof_O 	O 	0.1827	0.15	0.0107	0.154
Mof_O 	O 	0.2559	0.9515	0.9966	-0.831
Mof_C 	C 	0.796	0.8752	0.9981	-0.386
Mof_C 	C 	0.1821	0.0286	0.0052	-0.067
Mof_C 	C 	0.9085	0.8824	0.0086	0.216
Mof_C 	C 	0.9751	0.7778	0.0215	-0.343
Mof_H 	H 	0.9541	0.6878	0.0293	0.466
Mof_C 	C 	0.0771	0.8172	0.0218	0.091
Mof_H 	H 	0.1335	0.7573	0.0307	0.028
Mof_C 	C 	0.0864	0.9481	0.0085	0.063
Mof_S 	S 	0.26084	0.71343	0.66368	0.07
Mof_O 	O 	0.4805	0.8841	0.96229	-0.698
Mof_H 	H 	0.4738	0.8049	0.975	0.286
Mof_O 	O 	0.36966	0.9029	0.80268	-0.398
Mof_O 	O 	0.414	0.7075	0.76502	-0.297
Mof_O 	O 	0.13313	0.6317	0.56216	-0.404
Mof_O 	O 	0.05012	0.8255	0.54206	-0.279
Mof_N 	N 	0.5968	0.0723	0.91549	-0.161
Mof_N 	N 	0.52894	0.036	0.87181	-0.179
Mof_N 	N 	0.1881	0.1911	0.56486	-0.087
Mof_N 	N 	0.1978	0.29	0.60354	-0.172
Mof_C 	C 	0.6556	0.1766	0.9089	0.012
Mof_H 	H 	0.7026	0.2041	0.9405	0.06
Mof_C 	C 	0.653	0.2478	0.85914	-0.019
Mof_H 	H 	0.6979	0.3212	0.8568	0.032
Mof_C 	C 	0.5852	0.2124	0.81292	-0.102
Mof_C 	C 	0.5237	0.1032	0.82349	0.054
Mof_H 	H 	0.4741	0.0752	0.7933	0.012
Mof_C 	C 	0.2716	0.1296	0.5563	0.043
Mof_H 	H 	0.2661	0.0583	0.5293	0.058
Mof_C 	C 	0.3667	0.1607	0.5836	-0.021
Mof_H 	H 	0.4237	0.1117	0.5752	0.072
Mof_C 	C 	0.3783	0.262	0.62262	-0.089
Mof_C 	C 	0.2876	0.324	0.63078	0.071
Mof_H 	H 	0.2905	0.3953	0.6577	0.005
Mof_C 	C 	0.58	0.2766	0.75538	0.268
Mof_C 	C 	0.4813	0.2397	0.71733	-0.378
Mof_H 	H 	0.4761	0.1403	0.7136	0.143
Mof_H 	H 	0.4232	0.272	0.7352	0.143
Mof_C 	C 	0.4772	0.3036	0.65773	0.278
Mof_C 	C 	0.4854	0.4577	0.66407	-0.398
Mof_H 	H 	0.483	0.4998	0.6261	0.159
Mof_H 	H 	0.4277	0.4924	0.6817	0.157
Mof_C 	C 	0.5851	0.4955	0.7014	0.299
Mof_H 	H 	0.5894	0.5959	0.7053	-0.058
Mof_C 	C 	0.5866	0.4323	0.76039	-0.387
Mof_H 	H 	0.6496	0.458	0.785	0.136
Mof_H 	H 	0.529	0.4668	0.7781	0.151
Mof_C 	C 	0.67	0.2274	0.72702	-0.387
Mof_H 	H 	0.6675	0.1278	0.7233	0.133
Mof_H 	H 	0.7338	0.2518	0.7511	0.136
Mof_C 	C 	0.6673	0.2914	0.66825	0.301
Mof_H 	H 	0.7256	0.2576	0.6501	-0.064
Mof_C 	C 	0.5686	0.2518	0.63171	-0.408
Mof_H 	H 	0.5672	0.2899	0.5931	0.167
Mof_H 	H 	0.5649	0.1522	0.6283	0.16
Mof_C 	C 	0.6741	0.4451	0.67431	-0.414
Mof_H 	H 	0.6735	0.4871	0.6365	0.152
Mof_H 	H 	0.7379	0.4703	0.6983	0.142
Mof_C 	C 	0.3624	0.8113	0.76451	0.329
Mof_C 	C 	0.1118	0.7525	0.57267	0.347
Mof_C 	C 	0.2834	0.8357	0.71508	-0.09
Mof_C 	C 	0.2202	0.9431	0.70372	-0.015
Mof_H 	H 	0.2211	0.0204	0.7274	0.048
Mof_C 	C 	0.1534	0.9265	0.65294	-0.004
Mof_H 	H 	0.1046	0.992	0.6386	0.041
Mof_C 	C 	0.1659	0.8083	0.62672	-0.083
Mof_O 	O 	0.9286	0.6215	0.0132	-0.366
Mof_O 	O 	0.915	0.6654	0.0675	-0.181
Mof_Cu	Cu	0.89009	0.46141	0.51091	0.92
Mof_Cu	Cu	0.07011	0.38247	0.61735	0.897
Mof_S 	S 	0.52963	0.5297	0.50252	-0.072
Mof_O 	O 	0.7467	0.4889	0.4986	0.656
Mof_O 	O 	0.7445	0.2686	0.5135	-0.107
Mof_O 	O 	0.3173	0.65	0.4893	0.148
Mof_O 	O 	0.2441	0.4515	0.5034	-0.828
Mof_C 	C 	0.704	0.3752	0.5019	-0.385
Mof_C 	C 	0.3179	0.5286	0.4948	-0.049
Mof_C 	C 	0.5915	0.3824	0.4914	0.215
Mof_C 	C 	0.5249	0.2778	0.4785	-0.346
Mof_H 	H 	0.5459	0.1878	0.4707	0.467
Mof_C 	C 	0.4229	0.3172	0.4782	0.1
Mof_H 	H 	0.3665	0.2573	0.4693	0.025
Mof_C 	C 	0.4136	0.4481	0.4915	0.036
Mof_S 	S 	0.23916	0.21343	0.83632	0.069
Mof_O 	O 	0.0195	0.3841	0.53771	-0.698
Mof_H 	H 	0.0262	0.3049	0.525	0.285
Mof_O 	O 	0.13034	0.4029	0.69732	-0.398
Mof_O 	O 	0.086	0.2075	0.73498	-0.298
Mof_O 	O 	0.36687	0.1317	0.93784	-0.405
Mof_O 	O 	0.44988	0.3255	0.95794	-0.28
Mof_N 	N 	0.9032	0.5723	0.58451	-0.162
Mof_N 	N 	0.97106	0.536	0.62819	-0.178
Mof_N 	N 	0.3119	0.6911	0.93514	-0.087
Mof_N 	N 	0.3022	0.79	0.89646	-0.171
Mof_C 	C 	0.8444	0.6766	0.5911	0.012
Mof_H 	H 	0.7974	0.7041	0.5595	0.06
Mof_C 	C 	0.847	0.7478	0.64086	-0.021
Mof_H 	H 	0.8021	0.8212	0.6432	0.032
Mof_C 	C 	0.9148	0.7124	0.68708	-0.1
Mof_C 	C 	0.9763	0.6032	0.67651	0.05
Mof_H 	H 	0.0259	0.5752	0.7067	0.014
Mof_C 	C 	0.2284	0.6296	0.9437	0.044
Mof_H 	H 	0.2339	0.5583	0.9707	0.059
Mof_C 	C 	0.1333	0.6607	0.9164	-0.022
Mof_H 	H 	0.0763	0.6117	0.9248	0.072
Mof_C 	C 	0.1217	0.762	0.87738	-0.087
Mof_C 	C 	0.2124	0.824	0.86922	0.071
Mof_H 	H 	0.2095	0.8953	0.8423	0.006
Mof_C 	C 	0.92	0.7766	0.74462	0.262
Mof_C 	C 	0.0187	0.7397	0.78267	-0.373
Mof_H 	H 	0.0239	0.6403	0.7864	0.141
Mof_H 	H 	0.0768	0.772	0.7648	0.142
Mof_C 	C 	0.0228	0.8036	0.84227	0.276
Mof_C 	C 	0.0146	0.9577	0.83593	-0.389
Mof_H 	H 	0.017	0.9998	0.8739	0.158
Mof_H 	H 	0.0723	0.9924	0.8183	0.155
Mof_C 	C 	0.9149	0.9955	0.7986	0.286
Mof_H 	H 	0.9106	0.0959	0.7947	-0.052
Mof_C 	C 	0.9134	0.9323	0.73961	-0.38
Mof_H 	H 	0.8504	0.958	0.715	0.134
Mof_H 	H 	0.971	0.9668	0.7219	0.147
Mof_C 	C 	0.83	0.7274	0.77298	-0.383
Mof_H 	H 	0.8325	0.6278	0.7767	0.132
Mof_H 	H 	0.7662	0.7518	0.7489	0.135
Mof_C 	C 	0.8327	0.7914	0.83175	0.297
Mof_H 	H 	0.7744	0.7576	0.8499	-0.063
Mof_C 	C 	0.9314	0.7518	0.86829	-0.407
Mof_H 	H 	0.9328	0.7899	0.9069	0.166
Mof_H 	H 	0.9351	0.6522	0.8717	0.159
Mof_C 	C 	0.8259	0.9451	0.82569	-0.407
Mof_H 	H 	0.8265	0.9871	0.8635	0.149
Mof_H 	H 	0.7621	0.9703	0.8017	0.14
Mof_C 	C 	0.1376	0.3113	0.73549	0.328
Mof_C 	C 	0.3882	0.2525	0.92733	0.347
Mof_C 	C 	0.2166	0.3357	0.78492	-0.088
Mof_C 	C 	0.2798	0.4431	0.79628	-0.02
Mof_H 	H 	0.2789	0.5204	0.7726	0.051
Mof_C 	C 	0.3466	0.4265	0.84706	-0.001
Mof_H 	H 	0.3954	0.492	0.8614	0.039
Mof_C 	C 	0.3341	0.3083	0.87328	-0.084
Mof_O 	O 	0.5714	0.1215	0.4868	-0.366
Mof_O 	O 	0.585	0.1654	0.4325	-0.18
_end
