data_functionalizedCrystal
_audit_creation_method	'EQeq! by Chris Wilmer'
_symmetry_space_group_name_H-M	'P1'
_symmetry_Int_Tables_number	1
_symmetry_cell_setting	triclinic
loop_
_symmetry_equiv_pos_as_xyz
  x,y,z
_cell_length_a	17.107
_cell_length_b	17.107
_cell_length_c	14.133
_cell_angle_alpha	90
_cell_angle_beta	90
_cell_angle_gamma	120
loop_
_atom_site_label
_atom_site_type_symbol
_atom_site_fract_x
_atom_site_fract_y
_atom_site_fract_z
_atom_site_charge
Mof_O 	O 	0.7834	0.4269	0.1828	-0.372
Mof_N 	N 	0.1125	0.5031	0.408	-0.162
Mof_N 	N 	0.226	0.5569	0.5119	-0.192
Mof_C 	C 	0.9696	0.4579	0.3292	-0.153
Mof_H 	H 	0.9383	0.4247	0.3821	0.098
Mof_C 	C 	0.0624	0.5042	0.3277	0.169
Mof_C 	C 	0.1882	0.5757	0.4421	0.105
Mof_H 	H 	0.211	0.6336	0.4179	-0.01
Mof_C 	C 	0.1002	0.4289	0.4606	0.056
Mof_C 	C 	0.039	0.3373	0.454	-0.087
Mof_H 	H 	0.9921	0.3147	0.4102	0.064
Mof_C 	C 	0.0505	0.2815	0.515	-0.03
Mof_H 	H 	0.0115	0.2195	0.5111	0.038
Mof_C 	C 	0.1198	0.3155	0.5836	-0.015
Mof_H 	H 	0.124	0.2761	0.6258	0.032
Mof_C 	C 	0.1815	0.407	0.5886	-0.108
Mof_H 	H 	0.2281	0.4294	0.6327	0.08
Mof_C 	C 	0.1723	0.4643	0.5263	0.072
Mof_O 	O 	0.5731	0.3565	0.1828	-0.371
Mof_N 	N 	0.4969	0.6094	0.408	-0.161
Mof_N 	N 	0.4431	0.6691	0.5119	-0.192
Mof_C 	C 	0.5421	0.5117	0.3292	-0.154
Mof_H 	H 	0.5753	0.5136	0.3821	0.098
Mof_C 	C 	0.4958	0.5582	0.3277	0.169
Mof_C 	C 	0.4243	0.6125	0.4421	0.105
Mof_H 	H 	0.3664	0.5774	0.4179	-0.01
Mof_C 	C 	0.5711	0.6713	0.4606	0.056
Mof_C 	C 	0.6627	0.7017	0.454	-0.087
Mof_H 	H 	0.6853	0.6774	0.4102	0.064
Mof_C 	C 	0.7185	0.769	0.515	-0.03
Mof_H 	H 	0.7805	0.792	0.5111	0.038
Mof_C 	C 	0.6845	0.8043	0.5836	-0.015
Mof_H 	H 	0.7239	0.8479	0.6258	0.032
Mof_C 	C 	0.593	0.7745	0.5886	-0.108
Mof_H 	H 	0.5706	0.7987	0.6327	0.08
Mof_C 	C 	0.5357	0.708	0.5263	0.072
Mof_O 	O 	0.6435	0.2166	0.1828	-0.371
Mof_N 	N 	0.3906	0.8875	0.408	-0.161
Mof_N 	N 	0.3309	0.774	0.5119	-0.192
Mof_C 	C 	0.4883	0.0304	0.3292	-0.153
Mof_H 	H 	0.4864	0.0617	0.3821	0.098
Mof_C 	C 	0.4418	0.9376	0.3277	0.169
Mof_C 	C 	0.3875	0.8118	0.4421	0.105
Mof_H 	H 	0.4226	0.789	0.4179	-0.01
Mof_C 	C 	0.3287	0.8998	0.4606	0.056
Mof_C 	C 	0.2983	0.961	0.454	-0.087
Mof_H 	H 	0.3226	0.0079	0.4102	0.064
Mof_C 	C 	0.231	0.9495	0.515	-0.03
Mof_H 	H 	0.208	0.9885	0.5111	0.038
Mof_C 	C 	0.1957	0.8802	0.5836	-0.015
Mof_H 	H 	0.1521	0.876	0.6258	0.032
Mof_C 	C 	0.2255	0.8185	0.5886	-0.108
Mof_H 	H 	0.2013	0.7719	0.6327	0.08
Mof_C 	C 	0.292	0.8277	0.5263	0.072
Mof_O 	O 	0.5731	0.2166	0.3172	-0.371
Mof_N 	N 	0.4969	0.8875	0.092	-0.161
Mof_N 	N 	0.4431	0.774	0.9881	-0.192
Mof_C 	C 	0.5421	0.0304	0.1708	-0.153
Mof_H 	H 	0.5753	0.0617	0.1179	0.098
Mof_C 	C 	0.4958	0.9376	0.1723	0.169
Mof_C 	C 	0.4243	0.8118	0.0579	0.104
Mof_H 	H 	0.3664	0.789	0.0821	-0.01
Mof_C 	C 	0.5711	0.8998	0.0394	0.056
Mof_C 	C 	0.6627	0.961	0.046	-0.087
Mof_H 	H 	0.6853	0.0079	0.0898	0.064
Mof_C 	C 	0.7185	0.9495	0.985	-0.029
Mof_H 	H 	0.7805	0.9885	0.9889	0.038
Mof_C 	C 	0.6845	0.8802	0.9164	-0.015
Mof_H 	H 	0.7239	0.876	0.8742	0.032
Mof_C 	C 	0.593	0.8185	0.9114	-0.108
Mof_H 	H 	0.5706	0.7719	0.8673	0.08
Mof_C 	C 	0.5357	0.8277	0.9737	0.072
Mof_O 	O 	0.6435	0.4269	0.3172	-0.371
Mof_N 	N 	0.3906	0.5031	0.092	-0.161
Mof_N 	N 	0.3309	0.5569	0.9881	-0.192
Mof_C 	C 	0.4883	0.4579	0.1708	-0.154
Mof_H 	H 	0.4864	0.4247	0.1179	0.098
Mof_C 	C 	0.4418	0.5042	0.1723	0.169
Mof_C 	C 	0.3875	0.5757	0.0579	0.104
Mof_H 	H 	0.4226	0.6336	0.0821	-0.01
Mof_C 	C 	0.3287	0.4289	0.0394	0.056
Mof_C 	C 	0.2983	0.3373	0.046	-0.087
Mof_H 	H 	0.3226	0.3147	0.0898	0.064
Mof_C 	C 	0.231	0.2815	0.985	-0.03
Mof_H 	H 	0.208	0.2195	0.9889	0.038
Mof_C 	C 	0.1957	0.3155	0.9164	-0.015
Mof_H 	H 	0.1521	0.2761	0.8742	0.032
Mof_C 	C 	0.2255	0.407	0.9114	-0.108
Mof_H 	H 	0.2013	0.4294	0.8673	0.08
Mof_C 	C 	0.292	0.4643	0.9737	0.072
Mof_O 	O 	0.7834	0.3565	0.3172	-0.371
Mof_N 	N 	0.1125	0.6094	0.092	-0.161
Mof_N 	N 	0.226	0.6691	0.9881	-0.192
Mof_C 	C 	0.9696	0.5117	0.1708	-0.153
Mof_H 	H 	0.9383	0.5136	0.1179	0.098
Mof_C 	C 	0.0624	0.5582	0.1723	0.169
Mof_C 	C 	0.1882	0.6125	0.0579	0.104
Mof_H 	H 	0.211	0.5774	0.0821	-0.01
Mof_C 	C 	0.1002	0.6713	0.0394	0.056
Mof_C 	C 	0.039	0.7017	0.046	-0.088
Mof_H 	H 	0.9921	0.6774	0.0898	0.064
Mof_C 	C 	0.0505	0.769	0.985	-0.029
Mof_H 	H 	0.0115	0.792	0.9889	0.038
Mof_C 	C 	0.1198	0.8043	0.9164	-0.015
Mof_H 	H 	0.124	0.8479	0.8742	0.032
Mof_C 	C 	0.1815	0.7745	0.9114	-0.108
Mof_H 	H 	0.2281	0.7987	0.8673	0.08
Mof_C 	C 	0.1723	0.708	0.9737	0.072
Mof_O 	O 	0.2166	0.5731	0.8172	-0.371
Mof_N 	N 	0.8875	0.4969	0.592	-0.161
Mof_N 	N 	0.774	0.4431	0.4881	-0.192
Mof_C 	C 	0.0304	0.5421	0.6708	-0.153
Mof_H 	H 	0.0617	0.5753	0.6179	0.098
Mof_C 	C 	0.9376	0.4958	0.6723	0.169
Mof_C 	C 	0.8118	0.4243	0.5579	0.105
Mof_H 	H 	0.789	0.3664	0.5821	-0.01
Mof_C 	C 	0.8998	0.5711	0.5394	0.056
Mof_C 	C 	0.961	0.6627	0.546	-0.087
Mof_H 	H 	0.0079	0.6853	0.5898	0.064
Mof_C 	C 	0.9495	0.7185	0.485	-0.03
Mof_H 	H 	0.9885	0.7805	0.4889	0.038
Mof_C 	C 	0.8802	0.6845	0.4164	-0.015
Mof_H 	H 	0.876	0.7239	0.3742	0.032
Mof_C 	C 	0.8185	0.593	0.4114	-0.108
Mof_H 	H 	0.7719	0.5706	0.3673	0.08
Mof_C 	C 	0.8277	0.5357	0.4737	0.072
Mof_O 	O 	0.4269	0.6435	0.8172	-0.371
Mof_N 	N 	0.5031	0.3906	0.592	-0.161
Mof_N 	N 	0.5569	0.3309	0.4881	-0.192
Mof_C 	C 	0.4579	0.4883	0.6708	-0.154
Mof_H 	H 	0.4247	0.4864	0.6179	0.098
Mof_C 	C 	0.5042	0.4418	0.6723	0.169
Mof_C 	C 	0.5757	0.3875	0.5579	0.105
Mof_H 	H 	0.6336	0.4226	0.5821	-0.01
Mof_C 	C 	0.4289	0.3287	0.5394	0.056
Mof_C 	C 	0.3373	0.2983	0.546	-0.087
Mof_H 	H 	0.3147	0.3226	0.5898	0.064
Mof_C 	C 	0.2815	0.231	0.485	-0.03
Mof_H 	H 	0.2195	0.208	0.4889	0.038
Mof_C 	C 	0.3155	0.1957	0.4164	-0.015
Mof_H 	H 	0.2761	0.1521	0.3742	0.032
Mof_C 	C 	0.407	0.2255	0.4114	-0.108
Mof_H 	H 	0.4294	0.2013	0.3673	0.08
Mof_C 	C 	0.4643	0.292	0.4737	0.072
Mof_O 	O 	0.3565	0.7834	0.8172	-0.371
Mof_N 	N 	0.6094	0.1125	0.592	-0.161
Mof_N 	N 	0.6691	0.226	0.4881	-0.192
Mof_C 	C 	0.5117	0.9696	0.6708	-0.153
Mof_H 	H 	0.5136	0.9383	0.6179	0.098
Mof_C 	C 	0.5582	0.0624	0.6723	0.169
Mof_C 	C 	0.6125	0.1882	0.5579	0.105
Mof_H 	H 	0.5774	0.211	0.5821	-0.01
Mof_C 	C 	0.6713	0.1002	0.5394	0.056
Mof_C 	C 	0.7017	0.039	0.546	-0.087
Mof_H 	H 	0.6774	0.9921	0.5898	0.064
Mof_C 	C 	0.769	0.0505	0.485	-0.03
Mof_H 	H 	0.792	0.0115	0.4889	0.038
Mof_C 	C 	0.8043	0.1198	0.4164	-0.015
Mof_H 	H 	0.8479	0.124	0.3742	0.032
Mof_C 	C 	0.7745	0.1815	0.4114	-0.108
Mof_H 	H 	0.7987	0.2281	0.3673	0.08
Mof_C 	C 	0.708	0.1723	0.4737	0.072
Mof_O 	O 	0.4269	0.7834	0.6828	-0.371
Mof_N 	N 	0.5031	0.1125	0.908	-0.161
Mof_N 	N 	0.5569	0.226	0.0119	-0.192
Mof_C 	C 	0.4579	0.9696	0.8292	-0.153
Mof_H 	H 	0.4247	0.9383	0.8821	0.098
Mof_C 	C 	0.5042	0.0624	0.8277	0.169
Mof_C 	C 	0.5757	0.1882	0.9421	0.104
Mof_H 	H 	0.6336	0.211	0.9179	-0.01
Mof_C 	C 	0.4289	0.1002	0.9606	0.056
Mof_C 	C 	0.3373	0.039	0.954	-0.087
Mof_H 	H 	0.3147	0.9921	0.9102	0.064
Mof_C 	C 	0.2815	0.0505	0.015	-0.029
Mof_H 	H 	0.2195	0.0115	0.0111	0.038
Mof_C 	C 	0.3155	0.1198	0.0836	-0.015
Mof_H 	H 	0.2761	0.124	0.1258	0.032
Mof_C 	C 	0.407	0.1815	0.0886	-0.108
Mof_H 	H 	0.4294	0.2281	0.1327	0.08
Mof_C 	C 	0.4643	0.1723	0.0263	0.072
Mof_O 	O 	0.3565	0.5731	0.6828	-0.371
Mof_N 	N 	0.6094	0.4969	0.908	-0.161
Mof_N 	N 	0.6691	0.4431	0.0119	-0.192
Mof_C 	C 	0.5117	0.5421	0.8292	-0.154
Mof_H 	H 	0.5136	0.5753	0.8821	0.098
Mof_C 	C 	0.5582	0.4958	0.8277	0.169
Mof_C 	C 	0.6125	0.4243	0.9421	0.104
Mof_H 	H 	0.5774	0.3664	0.9179	-0.01
Mof_C 	C 	0.6713	0.5711	0.9606	0.056
Mof_C 	C 	0.7017	0.6627	0.954	-0.087
Mof_H 	H 	0.6774	0.6853	0.9102	0.064
Mof_C 	C 	0.769	0.7185	0.015	-0.03
Mof_H 	H 	0.792	0.7805	0.0111	0.038
Mof_C 	C 	0.8043	0.6845	0.0836	-0.015
Mof_H 	H 	0.8479	0.7239	0.1258	0.032
Mof_C 	C 	0.7745	0.593	0.0886	-0.108
Mof_H 	H 	0.7987	0.5706	0.1327	0.08
Mof_C 	C 	0.708	0.5357	0.0263	0.072
Mof_O 	O 	0.2166	0.6435	0.6828	-0.371
Mof_N 	N 	0.8875	0.3906	0.908	-0.161
Mof_N 	N 	0.774	0.3309	0.0119	-0.192
Mof_C 	C 	0.0304	0.4883	0.8292	-0.153
Mof_H 	H 	0.0617	0.4864	0.8821	0.098
Mof_C 	C 	0.9376	0.4418	0.8277	0.169
Mof_C 	C 	0.8118	0.3875	0.9421	0.104
Mof_H 	H 	0.789	0.4226	0.9179	-0.01
Mof_C 	C 	0.8998	0.3287	0.9606	0.056
Mof_C 	C 	0.961	0.2983	0.954	-0.088
Mof_H 	H 	0.0079	0.3226	0.9102	0.064
Mof_C 	C 	0.9495	0.231	0.015	-0.029
Mof_H 	H 	0.9885	0.208	0.0111	0.038
Mof_C 	C 	0.8802	0.1957	0.0836	-0.015
Mof_H 	H 	0.876	0.1521	0.1258	0.032
Mof_C 	C 	0.8185	0.2255	0.0886	-0.108
Mof_H 	H 	0.7719	0.2013	0.1327	0.08
Mof_C 	C 	0.8277	0.292	0.0263	0.072
Mof_Mn	Mn	0.66667	0.33333	0.10675	0.886
Mof_Mn	Mn	0.66667	0.33333	0.39325	0.886
Mof_Mn	Mn	0.33333	0.66667	0.89325	0.886
Mof_Mn	Mn	0.33333	0.66667	0.60675	0.886
Mof_C 	C 	0.8212	0.4106	0.25	0.332
Mof_C 	C 	0.9236	0.4618	0.25	0.016
Mof_C 	C 	0.11	0.555	0.25	-0.224
Mof_H 	H 	0.1727	0.58635	0.25	0.113
Mof_C 	C 	0.5894	0.4106	0.25	0.332
Mof_C 	C 	0.5382	0.4618	0.25	0.016
Mof_C 	C 	0.445	0.555	0.25	-0.224
Mof_H 	H 	0.41365	0.58635	0.25	0.113
Mof_C 	C 	0.5894	0.1788	0.25	0.332
Mof_C 	C 	0.5382	0.0764	0.25	0.016
Mof_C 	C 	0.445	0.89	0.25	-0.224
Mof_H 	H 	0.41365	0.8273	0.25	0.113
Mof_C 	C 	0.1788	0.5894	0.75	0.332
Mof_C 	C 	0.0764	0.5382	0.75	0.016
Mof_C 	C 	0.89	0.445	0.75	-0.224
Mof_H 	H 	0.8273	0.41365	0.75	0.113
Mof_C 	C 	0.4106	0.5894	0.75	0.332
Mof_C 	C 	0.4618	0.5382	0.75	0.016
Mof_C 	C 	0.555	0.445	0.75	-0.224
Mof_H 	H 	0.58635	0.41365	0.75	0.113
Mof_C 	C 	0.4106	0.8212	0.75	0.332
Mof_C 	C 	0.4618	0.9236	0.75	0.016
Mof_C 	C 	0.555	0.11	0.75	-0.224
Mof_H 	H 	0.58635	0.1727	0.75	0.113
_end
