data_functionalizedCrystal
_audit_creation_method	'EQeq! by Chris Wilmer'
_symmetry_space_group_name_H-M	'P1'
_symmetry_Int_Tables_number	1
_symmetry_cell_setting	triclinic
loop_
_symmetry_equiv_pos_as_xyz
  x,y,z
_cell_length_a	9.042
_cell_length_b	9.042
_cell_length_c	27.231
_cell_angle_alpha	90
_cell_angle_beta	90
_cell_angle_gamma	90
loop_
_atom_site_label
_atom_site_type_symbol
_atom_site_fract_x
_atom_site_fract_y
_atom_site_fract_z
_atom_site_charge
Mof_Cd	Cd	0.18552	0.38249	0.19968	0.3
Mof_C 	C 	0.4883	0.7975	0.30977	-0.28
Mof_H 	H 	0.4166	0.825	0.3325	0.138
Mof_C 	C 	0.5299	0.8917	0.27268	0.22
Mof_C 	C 	0.638	0.8565	0.23874	-0.278
Mof_H 	H 	0.6637	0.9224	0.2139	0.13
Mof_C 	C 	0.707	0.72	0.24278	0.216
Mof_C 	C 	0.6652	0.6191	0.2791	-0.272
Mof_H 	H 	0.7096	0.5265	0.2809	0.127
Mof_C 	C 	0.5566	0.6594	0.31237	0.217
Mof_C 	C 	0.3868	0.0919	0.23068	0.101
Mof_H 	H 	0.3785	0.0468	0.2001	-0.011
Mof_C 	C 	0.3656	0.246	0.29024	-0.006
Mof_H 	H 	0.3385	0.329	0.3083	0.03
Mof_C 	C 	0.4467	0.131	0.30748	0.01
Mof_H 	H 	0.4861	0.1205	0.3388	0.027
Mof_C 	C 	0.878	0.5487	0.20016	0.093
Mof_H 	H 	0.8365	0.4609	0.2114	-0.01
Mof_C 	C 	0.0196	0.7037	0.16429	-0.01
Mof_H 	H 	0.0967	0.7428	0.1458	0.029
Mof_C 	C 	0.9148	0.784	0.18694	0.008
Mof_H 	H 	0.9053	0.8864	0.1868	0.02
Mof_C 	C 	0.5972	0.4449	0.36811	0.098
Mof_H 	H 	0.6921	0.4214	0.3575	-0.012
Mof_C 	C 	0.3831	0.5578	0.37602	0.007
Mof_H 	H 	0.3045	0.6232	0.3723	0.026
Mof_C 	C 	0.3914	0.4426	0.40782	-0.002
Mof_H 	H 	0.3179	0.4153	0.4299	0.03
Mof_N 	N 	0.3299	0.2207	0.24207	-0.155
Mof_N 	N 	0.4586	0.0342	0.26942	-0.162
Mof_N 	N 	0.9966	0.5565	0.17231	-0.149
Mof_N 	N 	0.8245	0.6843	0.21029	-0.161
Mof_N 	N 	0.5148	0.5585	0.35023	-0.16
Mof_N 	N 	0.5248	0.3729	0.40239	-0.152
Mof_Cd	Cd	0.81448	0.61751	0.69968	0.299
Mof_C 	C 	0.5117	0.2025	0.80977	-0.281
Mof_H 	H 	0.5834	0.175	0.8325	0.137
Mof_C 	C 	0.4701	0.1083	0.77268	0.219
Mof_C 	C 	0.362	0.1435	0.73874	-0.279
Mof_H 	H 	0.3363	0.0776	0.7139	0.129
Mof_C 	C 	0.293	0.28	0.74278	0.215
Mof_C 	C 	0.3348	0.3809	0.7791	-0.273
Mof_H 	H 	0.2904	0.4735	0.7809	0.126
Mof_C 	C 	0.4434	0.3406	0.81237	0.216
Mof_C 	C 	0.6132	0.9081	0.73068	0.101
Mof_H 	H 	0.6215	0.9532	0.7001	-0.011
Mof_C 	C 	0.6344	0.754	0.79024	-0.006
Mof_H 	H 	0.6615	0.671	0.8083	0.03
Mof_C 	C 	0.5533	0.869	0.80748	0.01
Mof_H 	H 	0.5139	0.8795	0.8388	0.027
Mof_C 	C 	0.122	0.4513	0.70016	0.093
Mof_H 	H 	0.1635	0.5391	0.7114	-0.01
Mof_C 	C 	0.9804	0.2963	0.66429	-0.01
Mof_H 	H 	0.9033	0.2572	0.6458	0.029
Mof_C 	C 	0.0852	0.216	0.68694	0.008
Mof_H 	H 	0.0947	0.1136	0.6868	0.02
Mof_C 	C 	0.4028	0.5551	0.86811	0.098
Mof_H 	H 	0.3079	0.5786	0.8575	-0.012
Mof_C 	C 	0.6169	0.4422	0.87602	0.007
Mof_H 	H 	0.6955	0.3768	0.8723	0.026
Mof_C 	C 	0.6086	0.5574	0.90782	-0.002
Mof_H 	H 	0.6821	0.5847	0.9299	0.029
Mof_N 	N 	0.6701	0.7793	0.74207	-0.155
Mof_N 	N 	0.5414	0.9658	0.76942	-0.162
Mof_N 	N 	0.0034	0.4435	0.67231	-0.149
Mof_N 	N 	0.1755	0.3157	0.71029	-0.161
Mof_N 	N 	0.4852	0.4415	0.85023	-0.16
Mof_N 	N 	0.4752	0.6271	0.90239	-0.152
Mof_Cd	Cd	0.61751	0.18552	0.44968	0.299
Mof_C 	C 	0.2025	0.4883	0.55977	-0.281
Mof_H 	H 	0.175	0.4166	0.5825	0.137
Mof_C 	C 	0.1083	0.5299	0.52268	0.219
Mof_C 	C 	0.1435	0.638	0.48874	-0.279
Mof_H 	H 	0.0776	0.6637	0.4639	0.129
Mof_C 	C 	0.28	0.707	0.49278	0.215
Mof_C 	C 	0.3809	0.6652	0.5291	-0.273
Mof_H 	H 	0.4735	0.7096	0.5309	0.126
Mof_C 	C 	0.3406	0.5566	0.56237	0.216
Mof_C 	C 	0.9081	0.3868	0.48068	0.101
Mof_H 	H 	0.9532	0.3785	0.4501	-0.011
Mof_C 	C 	0.754	0.3656	0.54024	-0.006
Mof_H 	H 	0.671	0.3385	0.5583	0.03
Mof_C 	C 	0.869	0.4467	0.55748	0.01
Mof_H 	H 	0.8795	0.4861	0.5888	0.027
Mof_C 	C 	0.4513	0.878	0.45016	0.093
Mof_H 	H 	0.5391	0.8365	0.4614	-0.01
Mof_C 	C 	0.2963	0.0196	0.41429	-0.01
Mof_H 	H 	0.2572	0.0967	0.3958	0.029
Mof_C 	C 	0.216	0.9148	0.43694	0.008
Mof_H 	H 	0.1136	0.9053	0.4368	0.02
Mof_C 	C 	0.5551	0.5972	0.61811	0.098
Mof_H 	H 	0.5786	0.6921	0.6075	-0.012
Mof_C 	C 	0.4422	0.3831	0.62602	0.007
Mof_H 	H 	0.3768	0.3045	0.6223	0.026
Mof_C 	C 	0.5574	0.3914	0.65782	-0.002
Mof_H 	H 	0.5847	0.3179	0.6799	0.03
Mof_N 	N 	0.7793	0.3299	0.49207	-0.155
Mof_N 	N 	0.9658	0.4586	0.51942	-0.162
Mof_N 	N 	0.4435	0.9966	0.42231	-0.149
Mof_N 	N 	0.3157	0.8245	0.46029	-0.161
Mof_N 	N 	0.4415	0.5148	0.60023	-0.16
Mof_N 	N 	0.6271	0.5248	0.65239	-0.152
Mof_Cd	Cd	0.38249	0.81448	0.94968	0.298
Mof_C 	C 	0.7975	0.5117	0.05977	-0.281
Mof_H 	H 	0.825	0.5834	0.0825	0.137
Mof_C 	C 	0.8917	0.4701	0.02268	0.222
Mof_C 	C 	0.8565	0.362	0.98874	-0.282
Mof_H 	H 	0.9224	0.3363	0.9639	0.129
Mof_C 	C 	0.72	0.293	0.99278	0.213
Mof_C 	C 	0.6191	0.3348	0.0291	-0.27
Mof_H 	H 	0.5265	0.2904	0.0309	0.126
Mof_C 	C 	0.6594	0.4434	0.06237	0.216
Mof_C 	C 	0.0919	0.6132	0.98068	0.098
Mof_H 	H 	0.0468	0.6215	0.9501	-0.01
Mof_C 	C 	0.246	0.6344	0.04024	-0.003
Mof_H 	H 	0.329	0.6615	0.0583	0.03
Mof_C 	C 	0.131	0.5533	0.05748	0.009
Mof_H 	H 	0.1205	0.5139	0.0888	0.028
Mof_C 	C 	0.5487	0.122	0.95016	0.093
Mof_H 	H 	0.4609	0.1635	0.9614	-0.011
Mof_C 	C 	0.7037	0.9804	0.91429	-0.01
Mof_H 	H 	0.7428	0.9033	0.8958	0.029
Mof_C 	C 	0.784	0.0852	0.93694	0.008
Mof_H 	H 	0.8864	0.0947	0.9368	0.02
Mof_C 	C 	0.4449	0.4028	0.11811	0.098
Mof_H 	H 	0.4214	0.3079	0.1075	-0.011
Mof_C 	C 	0.5578	0.6169	0.12602	0.007
Mof_H 	H 	0.6232	0.6955	0.1223	0.026
Mof_C 	C 	0.4426	0.6086	0.15782	-0.001
Mof_H 	H 	0.4153	0.6821	0.1799	0.03
Mof_N 	N 	0.2207	0.6701	0.99207	-0.156
Mof_N 	N 	0.0342	0.5414	0.01942	-0.16
Mof_N 	N 	0.5565	0.0034	0.92231	-0.149
Mof_N 	N 	0.6843	0.1755	0.96029	-0.161
Mof_N 	N 	0.5585	0.4852	0.10023	-0.16
Mof_N 	N 	0.3729	0.4752	0.15239	-0.152
_end
