data_functionalizedCrystal
_audit_creation_method	'EQeq! by Chris Wilmer'
_symmetry_space_group_name_H-M	'P1'
_symmetry_Int_Tables_number	1
_symmetry_cell_setting	triclinic
loop_
_symmetry_equiv_pos_as_xyz
  x,y,z
_cell_length_a	26.07
_cell_length_b	26.07
_cell_length_c	18.601
_cell_angle_alpha	90
_cell_angle_beta	90
_cell_angle_gamma	90
loop_
_atom_site_label
_atom_site_type_symbol
_atom_site_fract_x
_atom_site_fract_y
_atom_site_fract_z
_atom_site_charge
Mof_C 	C 	0.3659	0.7458	0.5726	0.312
Mof_C 	C 	0.6933	0.7376	0.4415	0.378
Mof_C 	C 	0.669	0.7455	0.5109	-0.136
Mof_C 	C 	0.6936	0.755	0.5709	0.078
Mof_H 	H 	0.7292	0.7542	0.571	0.034
Mof_C 	C 	0.667	0.7664	0.6359	-0.134
Mof_C 	C 	0.6147	0.7632	0.6344	0.036
Mof_H 	H 	0.5965	0.7686	0.6767	0.035
Mof_C 	C 	0.5877	0.752	0.5716	-0.059
Mof_C 	C 	0.6156	0.7431	0.5082	0.025
Mof_H 	H 	0.5988	0.7359	0.4653	0.04
Mof_C 	C 	0.699	0.7723	0.7038	0.447
Mof_C 	C 	0.5303	0.7493	0.5722	0.11
Mof_C 	C 	0.503	0.7848	0.6139	-0.148
Mof_H 	H 	0.5203	0.8103	0.6392	0.087
Mof_C 	C 	0.4504	0.7815	0.6167	0.064
Mof_H 	H 	0.4328	0.8026	0.6485	0.025
Mof_C 	C 	0.4219	0.7468	0.5726	-0.121
Mof_C 	C 	0.4506	0.7146	0.5323	0.082
Mof_H 	H 	0.4342	0.6899	0.5044	0.02
Mof_C 	C 	0.5025	0.7171	0.5314	-0.164
Mof_H 	H 	0.52	0.6951	0.5006	0.093
Mof_C 	C 	0.743	0.8243	0.3162	0.399
Mof_C 	C 	0.7385	0.8816	0.2828	-0.062
Mof_C 	C 	0.7824	0.9116	0.2891	0.001
Mof_H 	H 	0.8124	0.8973	0.3071	0.045
Mof_C 	C 	0.7813	0.9628	0.2684	-0.081
Mof_H 	H 	0.8106	0.9828	0.2727	0.06
Mof_C 	C 	0.7363	0.9841	0.2415	0.025
Mof_C 	C 	0.6925	0.9541	0.2352	-0.085
Mof_H 	H 	0.6624	0.9684	0.2172	0.061
Mof_C 	C 	0.6935	0.9029	0.2558	0.012
Mof_H 	H 	0.6642	0.8828	0.2516	0.046
Mof_C 	C 	0.7383	0.206	0.9524	0.364
Mof_C 	C 	0.7446	0.18	0.8843	-0.119
Mof_C 	C 	0.7437	0.1271	0.8832	0.024
Mof_H 	H 	0.7377	0.1095	0.926	0.04
Mof_C 	C 	0.7471	0.8792	0.8201	0.413
Mof_C 	C 	0.7471	0.9336	0.8194	-0.188
Mof_C 	C 	0.7852	0.9589	0.7782	0.088
Mof_H 	H 	0.8102	0.9406	0.7532	0.017
Mof_C 	C 	0.7837	0.0143	0.7767	-0.158
Mof_H 	H 	0.8057	0.0319	0.7461	0.09
Mof_C 	C 	0.7498	0.0418	0.8199	0.117
Mof_C 	C 	0.7167	0.0144	0.8633	-0.185
Mof_H 	H 	0.6952	0.0318	0.8949	0.1
Mof_C 	C 	0.7154	0.9621	0.8605	0.124
Mof_H 	H 	0.6911	0.9452	0.8884	0.003
Mof_C 	C 	0.7745	0.2067	0.6905	0.353
Mof_C 	C 	0.7663	0.1783	0.757	-0.117
Mof_C 	C 	0.7626	0.1256	0.7597	0.027
Mof_H 	H 	0.768	0.1071	0.7175	0.036
Mof_C 	C 	0.7514	0.099	0.8207	-0.061
Mof_C 	C 	0.7564	0.2044	0.8212	0.058
Mof_H 	H 	0.7579	0.24	0.8211	0.043
Mof_C 	C 	0.7254	0.6884	0.8437	0.457
Mof_C 	C 	0.7339	0.629	0.8514	-0.125
Mof_C 	C 	0.7781	0.5995	0.8453	0.05
Mof_H 	H 	0.807	0.613	0.8229	0.03
Mof_C 	C 	0.7791	0.5499	0.8726	-0.111
Mof_H 	H 	0.8087	0.5302	0.8685	0.069
Mof_C 	C 	0.7359	0.5298	0.9061	0.044
Mof_C 	C 	0.6917	0.5593	0.9122	-0.103
Mof_H 	H 	0.6627	0.5459	0.9346	0.067
Mof_C 	C 	0.6907	0.6089	0.8848	0.037
Mof_H 	H 	0.6611	0.6287	0.8889	0.037
Mof_N 	N 	0.7346	0.138	0.1558	-0.18
Mof_C 	C 	0.6907	0.116	0.185	0.061
Mof_H 	H 	0.66	0.1342	0.1852	0.021
Mof_C 	C 	0.6927	0.0669	0.2138	-0.121
Mof_H 	H 	0.6633	0.0522	0.2334	0.074
Mof_C 	C 	0.7385	0.0397	0.2134	0.061
Mof_C 	C 	0.7824	0.0616	0.1842	-0.119
Mof_H 	H 	0.8131	0.0434	0.184	0.075
Mof_C 	C 	0.7805	0.1108	0.1554	0.058
Mof_H 	H 	0.8098	0.1255	0.1358	0.022
Mof_N 	N 	0.7281	0.37347	0.9835	-0.178
Mof_C 	C 	0.68369	0.40259	0.977	0.06
Mof_H 	H 	0.6525	0.3895	0.993	0.02
Mof_C 	C 	0.68584	0.45125	0.9466	-0.116
Mof_H 	H 	0.6561	0.4707	0.9423	0.071
Mof_C 	C 	0.7324	0.4708	0.9227	0.053
Mof_C 	C 	0.7768	0.4417	0.9291	-0.112
Mof_H 	H 	0.808	0.4548	0.9131	0.07
Mof_C 	C 	0.77469	0.393	0.9595	0.052
Mof_H 	H 	0.8044	0.3735	0.9639	0.022
Mof_O 	O 	0.74339	0.772	0.7037	-0.461
Mof_O 	O 	0.73651	0.2549	0.9501	-0.389
Mof_O 	O 	0.67224	0.78292	0.7584	-0.422
Mof_O 	O 	0.72714	0.18163	0.0077	-0.389
Mof_O 	O 	0.78374	0.18346	0.6354	-0.414
Mof_O 	O 	0.7751	0.25834	0.6926	-0.384
Mof_O 	O 	0.7784	0.85447	0.7821	-0.408
Mof_O 	O 	0.7145	0.85373	0.8557	-0.421
Mof_O 	O 	0.74217	0.73897	0.4426	-0.394
Mof_O 	O 	0.67031	0.72729	0.3852	-0.406
Mof_O 	O 	0.7824	0.7033	0.8029	-0.347
Mof_O 	O 	0.6953	0.7083	0.8494	-0.556
Mof_O 	O 	0.34371	0.70946	0.5363	-0.375
Mof_O 	O 	0.34104	0.78199	0.6094	-0.376
Mof_O 	O 	0.7823	0.8063	0.3344	-0.442
Mof_O 	O 	0.7027	0.808	0.2926	-0.418
Mof_Cu	Cu	0.78757	0.77874	0.78728	0.902
Mof_Cu	Cu	0.70006	0.73122	0.28638	0.911
Mof_Cu	Cu	0.69908	0.78108	0.85659	0.916
Mof_Cu	Cu	0.78795	0.73241	0.3561	0.914
Mof_C 	C 	0.6341	0.2542	0.0726	0.313
Mof_C 	C 	0.3067	0.2624	0.9415	0.377
Mof_C 	C 	0.331	0.2545	0.0109	-0.134
Mof_C 	C 	0.3064	0.245	0.0709	0.079
Mof_H 	H 	0.2708	0.2458	0.071	0.036
Mof_C 	C 	0.333	0.2336	0.1359	-0.134
Mof_C 	C 	0.3853	0.2368	0.1344	0.037
Mof_H 	H 	0.4035	0.2314	0.1767	0.035
Mof_C 	C 	0.4123	0.248	0.0716	-0.061
Mof_C 	C 	0.3844	0.2569	0.0082	0.03
Mof_H 	H 	0.4012	0.2641	0.9653	0.036
Mof_C 	C 	0.301	0.2277	0.2038	0.447
Mof_C 	C 	0.4697	0.2507	0.0722	0.111
Mof_C 	C 	0.497	0.2152	0.1139	-0.149
Mof_H 	H 	0.4797	0.1897	0.1392	0.088
Mof_C 	C 	0.5496	0.2185	0.1167	0.064
Mof_H 	H 	0.5672	0.1974	0.1485	0.025
Mof_C 	C 	0.5781	0.2532	0.0726	-0.122
Mof_C 	C 	0.5494	0.2854	0.0323	0.083
Mof_H 	H 	0.5658	0.3101	0.0044	0.02
Mof_C 	C 	0.4975	0.2829	0.0314	-0.165
Mof_H 	H 	0.48	0.3049	0.0006	0.094
Mof_C 	C 	0.257	0.1757	0.8162	0.399
Mof_C 	C 	0.2615	0.1184	0.7828	-0.062
Mof_C 	C 	0.2176	0.0884	0.7891	0.001
Mof_H 	H 	0.1876	0.1027	0.8071	0.045
Mof_C 	C 	0.2187	0.0372	0.7684	-0.081
Mof_H 	H 	0.1894	0.0172	0.7727	0.06
Mof_C 	C 	0.2637	0.0159	0.7415	0.025
Mof_C 	C 	0.3075	0.0459	0.7352	-0.085
Mof_H 	H 	0.3376	0.0316	0.7172	0.061
Mof_C 	C 	0.3065	0.0971	0.7558	0.012
Mof_H 	H 	0.3358	0.1172	0.7516	0.046
Mof_C 	C 	0.2617	0.794	0.4524	0.368
Mof_C 	C 	0.2554	0.82	0.3843	-0.12
Mof_C 	C 	0.2563	0.8729	0.3832	0.025
Mof_H 	H 	0.2623	0.8905	0.426	0.041
Mof_C 	C 	0.2529	0.1208	0.3201	0.413
Mof_C 	C 	0.2529	0.0664	0.3194	-0.187
Mof_C 	C 	0.2148	0.0411	0.2782	0.088
Mof_H 	H 	0.1898	0.0594	0.2532	0.017
Mof_C 	C 	0.2163	0.9857	0.2767	-0.158
Mof_H 	H 	0.1943	0.9681	0.2461	0.09
Mof_C 	C 	0.2502	0.9582	0.3199	0.118
Mof_C 	C 	0.2833	0.9856	0.3633	-0.185
Mof_H 	H 	0.3048	0.9682	0.3949	0.101
Mof_C 	C 	0.2846	0.0379	0.3605	0.125
Mof_H 	H 	0.3089	0.0548	0.3884	0.003
Mof_C 	C 	0.2255	0.7933	0.1905	0.353
Mof_C 	C 	0.2337	0.8217	0.257	-0.117
Mof_C 	C 	0.2374	0.8744	0.2597	0.027
Mof_H 	H 	0.232	0.8929	0.2175	0.036
Mof_C 	C 	0.2486	0.901	0.3207	-0.061
Mof_C 	C 	0.2436	0.7956	0.3212	0.059
Mof_H 	H 	0.2421	0.76	0.3211	0.043
Mof_C 	C 	0.2746	0.3116	0.3437	0.457
Mof_C 	C 	0.2661	0.371	0.3514	-0.124
Mof_C 	C 	0.2219	0.4005	0.3453	0.05
Mof_H 	H 	0.193	0.387	0.3229	0.031
Mof_C 	C 	0.2209	0.4501	0.3726	-0.111
Mof_H 	H 	0.1913	0.4698	0.3685	0.07
Mof_C 	C 	0.2641	0.4702	0.4061	0.045
Mof_C 	C 	0.3083	0.4407	0.4122	-0.103
Mof_H 	H 	0.3373	0.4541	0.4346	0.067
Mof_C 	C 	0.3093	0.3911	0.3848	0.037
Mof_H 	H 	0.3389	0.3713	0.3889	0.037
Mof_N 	N 	0.2654	0.862	0.6558	-0.18
Mof_C 	C 	0.3093	0.884	0.685	0.06
Mof_H 	H 	0.34	0.8658	0.6852	0.021
Mof_C 	C 	0.3073	0.9331	0.7138	-0.121
Mof_H 	H 	0.3367	0.9478	0.7334	0.074
Mof_C 	C 	0.2615	0.9603	0.7134	0.061
Mof_C 	C 	0.2176	0.9384	0.6842	-0.12
Mof_H 	H 	0.1869	0.9566	0.684	0.074
Mof_C 	C 	0.2195	0.8892	0.6554	0.058
Mof_H 	H 	0.1902	0.8745	0.6358	0.022
Mof_N 	N 	0.2719	0.62653	0.4835	-0.177
Mof_C 	C 	0.31631	0.59741	0.477	0.06
Mof_H 	H 	0.3475	0.6105	0.493	0.021
Mof_C 	C 	0.31416	0.54875	0.4466	-0.116
Mof_H 	H 	0.3439	0.5293	0.4423	0.072
Mof_C 	C 	0.2676	0.5292	0.4227	0.053
Mof_C 	C 	0.2232	0.5583	0.4291	-0.112
Mof_H 	H 	0.192	0.5452	0.4131	0.07
Mof_C 	C 	0.22531	0.607	0.4595	0.053
Mof_H 	H 	0.1956	0.6265	0.4639	0.023
Mof_O 	O 	0.25661	0.228	0.2037	-0.461
Mof_O 	O 	0.26349	0.7451	0.4501	-0.388
Mof_O 	O 	0.32776	0.21708	0.2584	-0.421
Mof_O 	O 	0.27286	0.81837	0.5077	-0.392
Mof_O 	O 	0.21626	0.81654	0.1354	-0.414
Mof_O 	O 	0.2249	0.74166	0.1926	-0.384
Mof_O 	O 	0.2216	0.14553	0.2821	-0.407
Mof_O 	O 	0.2855	0.14627	0.3557	-0.421
Mof_O 	O 	0.25783	0.26103	0.9426	-0.394
Mof_O 	O 	0.32969	0.27271	0.8852	-0.405
Mof_O 	O 	0.2176	0.2967	0.3029	-0.346
Mof_O 	O 	0.3047	0.2917	0.3494	-0.555
Mof_O 	O 	0.65629	0.29054	0.0363	-0.374
Mof_O 	O 	0.65896	0.21801	0.1094	-0.376
Mof_O 	O 	0.2177	0.1937	0.8344	-0.442
Mof_O 	O 	0.2973	0.192	0.7926	-0.418
Mof_Cu	Cu	0.21243	0.22126	0.28728	0.902
Mof_Cu	Cu	0.29994	0.26878	0.78638	0.911
Mof_Cu	Cu	0.30092	0.21892	0.35659	0.917
Mof_Cu	Cu	0.21205	0.26759	0.8561	0.914
Mof_C 	C 	0.2542	0.3659	0.8226	0.312
Mof_C 	C 	0.2624	0.6933	0.6915	0.379
Mof_C 	C 	0.2545	0.669	0.7609	-0.135
Mof_C 	C 	0.245	0.6936	0.8209	0.078
Mof_H 	H 	0.2458	0.7292	0.821	0.035
Mof_C 	C 	0.2336	0.667	0.8859	-0.133
Mof_C 	C 	0.2368	0.6147	0.8844	0.035
Mof_H 	H 	0.2314	0.5965	0.9267	0.035
Mof_C 	C 	0.248	0.5877	0.8216	-0.059
Mof_C 	C 	0.2569	0.6156	0.7582	0.024
Mof_H 	H 	0.2641	0.5988	0.7153	0.04
Mof_C 	C 	0.2277	0.699	0.9538	0.444
Mof_C 	C 	0.2507	0.5303	0.8222	0.109
Mof_C 	C 	0.2152	0.503	0.8639	-0.148
Mof_H 	H 	0.1897	0.5203	0.8892	0.087
Mof_C 	C 	0.2185	0.4504	0.8667	0.063
Mof_H 	H 	0.1974	0.4328	0.8985	0.025
Mof_C 	C 	0.2532	0.4219	0.8226	-0.121
Mof_C 	C 	0.2854	0.4506	0.7823	0.082
Mof_H 	H 	0.3101	0.4342	0.7544	0.02
Mof_C 	C 	0.2829	0.5025	0.7814	-0.164
Mof_H 	H 	0.3049	0.52	0.7506	0.093
Mof_C 	C 	0.1757	0.743	0.5662	0.399
Mof_C 	C 	0.1184	0.7385	0.5328	-0.062
Mof_C 	C 	0.0884	0.7824	0.5391	0.001
Mof_H 	H 	0.1027	0.8124	0.5571	0.045
Mof_C 	C 	0.0372	0.7813	0.5184	-0.081
Mof_H 	H 	0.0172	0.8106	0.5227	0.06
Mof_C 	C 	0.0159	0.7363	0.4915	0.025
Mof_C 	C 	0.0459	0.6925	0.4852	-0.085
Mof_H 	H 	0.0316	0.6624	0.4672	0.061
Mof_C 	C 	0.0971	0.6935	0.5058	0.012
Mof_H 	H 	0.1172	0.6642	0.5016	0.046
Mof_C 	C 	0.794	0.7383	0.2024	0.368
Mof_C 	C 	0.82	0.7446	0.1343	-0.119
Mof_C 	C 	0.8729	0.7437	0.1332	0.025
Mof_H 	H 	0.8905	0.7377	0.176	0.041
Mof_C 	C 	0.1208	0.7471	0.0701	0.412
Mof_C 	C 	0.0664	0.7471	0.0694	-0.184
Mof_C 	C 	0.0411	0.7852	0.0282	0.084
Mof_H 	H 	0.0594	0.8102	0.0032	0.019
Mof_C 	C 	0.9857	0.7837	0.0267	-0.149
Mof_H 	H 	0.9681	0.8057	0.9961	0.085
Mof_C 	C 	0.9582	0.7498	0.0699	0.115
Mof_C 	C 	0.9856	0.7167	0.1133	-0.182
Mof_H 	H 	0.9682	0.6952	0.1449	0.1
Mof_C 	C 	0.0379	0.7154	0.1105	0.122
Mof_H 	H 	0.0548	0.6911	0.1384	0.004
Mof_C 	C 	0.7933	0.7745	0.9405	0.35
Mof_C 	C 	0.8217	0.7663	0.007	-0.116
Mof_C 	C 	0.8744	0.7626	0.0097	0.032
Mof_H 	H 	0.8929	0.768	0.9675	0.032
Mof_C 	C 	0.901	0.7514	0.0707	-0.061
Mof_C 	C 	0.7956	0.7564	0.0712	0.058
Mof_H 	H 	0.76	0.7579	0.0711	0.044
Mof_C 	C 	0.3116	0.7254	0.0937	0.457
Mof_C 	C 	0.371	0.7339	0.1014	-0.124
Mof_C 	C 	0.4005	0.7781	0.0953	0.05
Mof_H 	H 	0.387	0.807	0.0729	0.031
Mof_C 	C 	0.4501	0.7791	0.1226	-0.11
Mof_H 	H 	0.4698	0.8087	0.1185	0.07
Mof_C 	C 	0.4702	0.7359	0.1561	0.045
Mof_C 	C 	0.4407	0.6917	0.1622	-0.103
Mof_H 	H 	0.4541	0.6627	0.1846	0.067
Mof_C 	C 	0.3911	0.6907	0.1348	0.037
Mof_H 	H 	0.3713	0.6611	0.1389	0.037
Mof_N 	N 	0.862	0.7346	0.4058	-0.18
Mof_C 	C 	0.884	0.6907	0.435	0.061
Mof_H 	H 	0.8658	0.66	0.4352	0.021
Mof_C 	C 	0.9331	0.6927	0.4638	-0.121
Mof_H 	H 	0.9478	0.6633	0.4834	0.074
Mof_C 	C 	0.9603	0.7385	0.4634	0.061
Mof_C 	C 	0.9384	0.7824	0.4342	-0.119
Mof_H 	H 	0.9566	0.8131	0.434	0.074
Mof_C 	C 	0.8892	0.7805	0.4054	0.058
Mof_H 	H 	0.8745	0.8098	0.3858	0.022
Mof_N 	N 	0.62653	0.7281	0.2335	-0.177
Mof_C 	C 	0.59741	0.68369	0.227	0.06
Mof_H 	H 	0.6105	0.6525	0.243	0.021
Mof_C 	C 	0.54875	0.68584	0.1966	-0.116
Mof_H 	H 	0.5293	0.6561	0.1923	0.072
Mof_C 	C 	0.5292	0.7324	0.1727	0.054
Mof_C 	C 	0.5583	0.7768	0.1791	-0.112
Mof_H 	H 	0.5452	0.808	0.1631	0.07
Mof_C 	C 	0.607	0.77469	0.2095	0.053
Mof_H 	H 	0.6265	0.8044	0.2139	0.023
Mof_O 	O 	0.228	0.74339	0.9537	-0.462
Mof_O 	O 	0.7451	0.73651	0.2001	-0.388
Mof_O 	O 	0.21708	0.67224	0.0084	-0.419
Mof_O 	O 	0.81837	0.72714	0.2577	-0.391
Mof_O 	O 	0.81654	0.78374	0.8854	-0.414
Mof_O 	O 	0.74166	0.7751	0.9426	-0.385
Mof_O 	O 	0.14553	0.7784	0.0321	-0.407
Mof_O 	O 	0.14627	0.7145	0.1057	-0.42
Mof_O 	O 	0.26103	0.74217	0.6926	-0.394
Mof_O 	O 	0.27271	0.67031	0.6352	-0.406
Mof_O 	O 	0.2967	0.7824	0.0529	-0.346
Mof_O 	O 	0.2917	0.6953	0.0994	-0.555
Mof_O 	O 	0.29054	0.34371	0.7863	-0.375
Mof_O 	O 	0.21801	0.34104	0.8594	-0.377
Mof_O 	O 	0.1937	0.7823	0.5844	-0.442
Mof_O 	O 	0.192	0.7027	0.5426	-0.418
Mof_Cu	Cu	0.22126	0.78757	0.03728	0.902
Mof_Cu	Cu	0.26878	0.70006	0.53638	0.911
Mof_Cu	Cu	0.21892	0.69908	0.10659	0.917
Mof_Cu	Cu	0.26759	0.78795	0.6061	0.914
Mof_C 	C 	0.7458	0.6341	0.3226	0.313
Mof_C 	C 	0.7376	0.3067	0.1915	0.379
Mof_C 	C 	0.7455	0.331	0.2609	-0.134
Mof_C 	C 	0.755	0.3064	0.3209	0.078
Mof_H 	H 	0.7542	0.2708	0.321	0.035
Mof_C 	C 	0.7664	0.333	0.3859	-0.134
Mof_C 	C 	0.7632	0.3853	0.3844	0.036
Mof_H 	H 	0.7686	0.4035	0.4267	0.036
Mof_C 	C 	0.752	0.4123	0.3216	-0.059
Mof_C 	C 	0.7431	0.3844	0.2582	0.025
Mof_H 	H 	0.7359	0.4012	0.2153	0.04
Mof_C 	C 	0.7723	0.301	0.4538	0.447
Mof_C 	C 	0.7493	0.4697	0.3222	0.11
Mof_C 	C 	0.7848	0.497	0.3639	-0.148
Mof_H 	H 	0.8103	0.4797	0.3892	0.087
Mof_C 	C 	0.7815	0.5496	0.3667	0.064
Mof_H 	H 	0.8026	0.5672	0.3985	0.026
Mof_C 	C 	0.7468	0.5781	0.3226	-0.121
Mof_C 	C 	0.7146	0.5494	0.2823	0.082
Mof_H 	H 	0.6899	0.5658	0.2544	0.02
Mof_C 	C 	0.7171	0.4975	0.2814	-0.164
Mof_H 	H 	0.6951	0.48	0.2506	0.093
Mof_C 	C 	0.8243	0.257	0.0662	0.4
Mof_C 	C 	0.8816	0.2615	0.0328	-0.062
Mof_C 	C 	0.9116	0.2176	0.0391	0
Mof_H 	H 	0.8973	0.1876	0.0571	0.045
Mof_C 	C 	0.9628	0.2187	0.0184	-0.077
Mof_H 	H 	0.9828	0.1894	0.0227	0.059
Mof_C 	C 	0.9841	0.2637	0.9915	0.022
Mof_C 	C 	0.9541	0.3075	0.9852	-0.088
Mof_H 	H 	0.9684	0.3376	0.9672	0.062
Mof_C 	C 	0.9029	0.3065	0.0058	0.016
Mof_H 	H 	0.8828	0.3358	0.0016	0.046
Mof_C 	C 	0.206	0.2617	0.7024	0.368
Mof_C 	C 	0.18	0.2554	0.6343	-0.12
Mof_C 	C 	0.1271	0.2563	0.6332	0.025
Mof_H 	H 	0.1095	0.2623	0.676	0.041
Mof_C 	C 	0.8792	0.2529	0.5701	0.413
Mof_C 	C 	0.9336	0.2529	0.5694	-0.187
Mof_C 	C 	0.9589	0.2148	0.5282	0.088
Mof_H 	H 	0.9406	0.1898	0.5032	0.017
Mof_C 	C 	0.0143	0.2163	0.5267	-0.157
Mof_H 	H 	0.0319	0.1943	0.4961	0.09
Mof_C 	C 	0.0418	0.2502	0.5699	0.118
Mof_C 	C 	0.0144	0.2833	0.6133	-0.185
Mof_H 	H 	0.0318	0.3048	0.6449	0.101
Mof_C 	C 	0.9621	0.2846	0.6105	0.124
Mof_H 	H 	0.9452	0.3089	0.6384	0.003
Mof_C 	C 	0.2067	0.2255	0.4405	0.353
Mof_C 	C 	0.1783	0.2337	0.507	-0.117
Mof_C 	C 	0.1256	0.2374	0.5097	0.027
Mof_H 	H 	0.1071	0.232	0.4675	0.036
Mof_C 	C 	0.099	0.2486	0.5707	-0.061
Mof_C 	C 	0.2044	0.2436	0.5712	0.059
Mof_H 	H 	0.24	0.2421	0.5711	0.043
Mof_C 	C 	0.6884	0.2746	0.5937	0.457
Mof_C 	C 	0.629	0.2661	0.6014	-0.124
Mof_C 	C 	0.5995	0.2219	0.5953	0.05
Mof_H 	H 	0.613	0.193	0.5729	0.03
Mof_C 	C 	0.5499	0.2209	0.6226	-0.111
Mof_H 	H 	0.5302	0.1913	0.6185	0.07
Mof_C 	C 	0.5298	0.2641	0.6561	0.045
Mof_C 	C 	0.5593	0.3083	0.6622	-0.103
Mof_H 	H 	0.5459	0.3373	0.6846	0.067
Mof_C 	C 	0.6089	0.3093	0.6348	0.037
Mof_H 	H 	0.6287	0.3389	0.6389	0.037
Mof_N 	N 	0.138	0.2654	0.9058	-0.18
Mof_C 	C 	0.116	0.3093	0.935	0.061
Mof_H 	H 	0.1342	0.34	0.9352	0.021
Mof_C 	C 	0.0669	0.3073	0.9638	-0.122
Mof_H 	H 	0.0522	0.3367	0.9834	0.074
Mof_C 	C 	0.0397	0.2615	0.9634	0.062
Mof_C 	C 	0.0616	0.2176	0.9342	-0.12
Mof_H 	H 	0.0434	0.1869	0.934	0.074
Mof_C 	C 	0.1108	0.2195	0.9054	0.058
Mof_H 	H 	0.1255	0.1902	0.8858	0.021
Mof_N 	N 	0.37347	0.2719	0.7335	-0.177
Mof_C 	C 	0.40259	0.31631	0.727	0.06
Mof_H 	H 	0.3895	0.3475	0.743	0.021
Mof_C 	C 	0.45125	0.31416	0.6966	-0.116
Mof_H 	H 	0.4707	0.3439	0.6923	0.071
Mof_C 	C 	0.4708	0.2676	0.6727	0.053
Mof_C 	C 	0.4417	0.2232	0.6791	-0.112
Mof_H 	H 	0.4548	0.192	0.6631	0.07
Mof_C 	C 	0.393	0.22531	0.7095	0.053
Mof_H 	H 	0.3735	0.1956	0.7139	0.023
Mof_O 	O 	0.772	0.25661	0.4537	-0.461
Mof_O 	O 	0.2549	0.26349	0.7001	-0.388
Mof_O 	O 	0.78292	0.32776	0.5084	-0.421
Mof_O 	O 	0.18163	0.27286	0.7577	-0.392
Mof_O 	O 	0.18346	0.21626	0.3854	-0.414
Mof_O 	O 	0.25834	0.2249	0.4426	-0.384
Mof_O 	O 	0.85447	0.2216	0.5321	-0.408
Mof_O 	O 	0.85373	0.2855	0.6057	-0.421
Mof_O 	O 	0.73897	0.25783	0.1926	-0.394
Mof_O 	O 	0.72729	0.32969	0.1352	-0.405
Mof_O 	O 	0.7033	0.2176	0.5529	-0.347
Mof_O 	O 	0.7083	0.3047	0.5994	-0.555
Mof_O 	O 	0.70946	0.65629	0.2863	-0.375
Mof_O 	O 	0.78199	0.65896	0.3594	-0.376
Mof_O 	O 	0.8063	0.2177	0.0844	-0.442
Mof_O 	O 	0.808	0.2973	0.0426	-0.417
Mof_Cu	Cu	0.77874	0.21243	0.53728	0.902
Mof_Cu	Cu	0.73122	0.29994	0.03638	0.912
Mof_Cu	Cu	0.78108	0.30092	0.60659	0.917
Mof_Cu	Cu	0.73241	0.21205	0.1061	0.914
_end
