data_functionalizedCrystal
_audit_creation_method	'EQeq! by Chris Wilmer'
_symmetry_space_group_name_H-M	'P1'
_symmetry_Int_Tables_number	1
_symmetry_cell_setting	triclinic
loop_
_symmetry_equiv_pos_as_xyz
  x,y,z
_cell_length_a	16.944
_cell_length_b	16.944
_cell_length_c	16.944
_cell_angle_alpha	90
_cell_angle_beta	90
_cell_angle_gamma	90
loop_
_atom_site_label
_atom_site_type_symbol
_atom_site_fract_x
_atom_site_fract_y
_atom_site_fract_z
_atom_site_charge
Mof_O 	O 	0.80543	0.51755	0.9055	-0.237
Mof_O 	O 	0.30543	0.01755	0.4055	-0.486
Mof_O 	O 	0.19457	0.48245	0.9055	-0.258
Mof_O 	O 	0.69457	0.98245	0.4055	-0.223
Mof_O 	O 	0.19457	0.51755	0.0945	-0.424
Mof_O 	O 	0.69457	0.01755	0.5945	-0.46
Mof_O 	O 	0.80543	0.48245	0.0945	-0.4
Mof_O 	O 	0.30543	0.98245	0.5945	-0.223
Mof_O 	O 	0.9055	0.80543	0.51755	-0.237
Mof_O 	O 	0.4055	0.30543	0.01755	-0.485
Mof_O 	O 	0.9055	0.19457	0.48245	-0.257
Mof_O 	O 	0.4055	0.69457	0.98245	-0.222
Mof_O 	O 	0.0945	0.19457	0.51755	-0.423
Mof_O 	O 	0.5945	0.69457	0.01755	-0.459
Mof_O 	O 	0.0945	0.80543	0.48245	-0.399
Mof_O 	O 	0.5945	0.30543	0.98245	-0.222
Mof_O 	O 	0.51755	0.9055	0.80543	-0.236
Mof_O 	O 	0.01755	0.4055	0.30543	-0.485
Mof_O 	O 	0.48245	0.9055	0.19457	-0.257
Mof_O 	O 	0.98245	0.4055	0.69457	-0.222
Mof_O 	O 	0.51755	0.0945	0.19457	-0.423
Mof_O 	O 	0.01755	0.5945	0.69457	-0.459
Mof_O 	O 	0.48245	0.0945	0.80543	-0.399
Mof_O 	O 	0.98245	0.5945	0.30543	-0.222
Mof_O 	O 	0.51755	0.80543	0.9055	-0.236
Mof_O 	O 	0.01755	0.30543	0.4055	-0.485
Mof_O 	O 	0.48245	0.19457	0.9055	-0.257
Mof_O 	O 	0.98245	0.69457	0.4055	-0.222
Mof_O 	O 	0.51755	0.19457	0.0945	-0.423
Mof_O 	O 	0.01755	0.69457	0.5945	-0.459
Mof_O 	O 	0.48245	0.80543	0.0945	-0.399
Mof_O 	O 	0.98245	0.30543	0.5945	-0.222
Mof_O 	O 	0.80543	0.9055	0.51755	-0.236
Mof_O 	O 	0.30543	0.4055	0.01755	-0.485
Mof_O 	O 	0.19457	0.9055	0.48245	-0.257
Mof_O 	O 	0.69457	0.4055	0.98245	-0.222
Mof_O 	O 	0.19457	0.0945	0.51755	-0.423
Mof_O 	O 	0.69457	0.5945	0.01755	-0.459
Mof_O 	O 	0.80543	0.0945	0.48245	-0.399
Mof_O 	O 	0.30543	0.5945	0.98245	-0.222
Mof_O 	O 	0.9055	0.51755	0.80543	-0.236
Mof_O 	O 	0.4055	0.01755	0.30543	-0.485
Mof_O 	O 	0.9055	0.48245	0.19457	-0.257
Mof_O 	O 	0.4055	0.98245	0.69457	-0.222
Mof_O 	O 	0.0945	0.51755	0.19457	-0.423
Mof_O 	O 	0.5945	0.01755	0.69457	-0.459
Mof_O 	O 	0.0945	0.48245	0.80543	-0.399
Mof_O 	O 	0.5945	0.98245	0.30543	-0.222
Mof_Ga	Ga	-0	0.5	-0	1.29
Mof_Ga	Ga	0.5	0	0.5	2.372
Mof_Ga	Ga	1.8747e-33	0	0.5	1.29
Mof_Ga	Ga	0.5	0.5	-0	2.372
Mof_Ga	Ga	0.5	0	-0	1.29
Mof_Ga	Ga	1.8747e-33	0.5	0.5	2.372
Mof_Mn	Mn	0.75	0.5	-0	0.777
Mof_Mn	Mn	0.25	0.5	-0	0.745
Mof_Mn	Mn	1.22532e-32	0.75	0.5	0.777
Mof_Mn	Mn	-3.31453e-33	0.25	0.5	0.745
Mof_Mn	Mn	0.5	5.18923e-33	0.75	0.777
Mof_Mn	Mn	0.5	0	0.25	0.745
Mof_Mn	Mn	0.5	0.75	-0	0.777
Mof_Mn	Mn	0.5	0.25	-0	0.745
Mof_Mn	Mn	0.75	0	0.5	0.777
Mof_Mn	Mn	0.25	0	0.5	0.745
Mof_Mn	Mn	1.31905e-32	0.5	0.75	0.777
Mof_Mn	Mn	3.53196e-33	0.5	0.25	0.745
Mof_P 	P 	0.87601	0.56587	0.87601	0.585
Mof_O 	O 	0.8545	0.64854	0.8545	-0.064
Mof_O 	O 	0.94015	0.56863	0.94015	-0.229
Mof_P 	P 	0.37601	0.06587	0.37601	0.632
Mof_O 	O 	0.3545	0.14854	0.3545	-0.243
Mof_O 	O 	0.44015	0.06863	0.44015	-0.79
Mof_P 	P 	0.12399	0.43413	0.87601	0.586
Mof_O 	O 	0.1455	0.35146	0.8545	-0.207
Mof_O 	O 	0.05985	0.43137	0.94015	-0.463
Mof_P 	P 	0.62399	0.93413	0.37601	0.623
Mof_O 	O 	0.6455	0.85146	0.3545	-0.169
Mof_O 	O 	0.55985	0.93137	0.44015	-0.604
Mof_P 	P 	0.12399	0.56587	0.12399	0.584
Mof_O 	O 	0.1455	0.64854	0.1455	-0.279
Mof_O 	O 	0.05985	0.56863	0.05985	-0.669
Mof_P 	P 	0.62399	0.06587	0.62399	0.636
Mof_O 	O 	0.6455	0.14854	0.6455	-0.202
Mof_O 	O 	0.55985	0.06863	0.55985	-0.79
Mof_P 	P 	0.87601	0.43413	0.12399	0.586
Mof_O 	O 	0.8545	0.35146	0.1455	-0.207
Mof_O 	O 	0.94015	0.43137	0.05985	-0.463
Mof_P 	P 	0.37601	0.93413	0.62399	0.623
Mof_O 	O 	0.3545	0.85146	0.6455	-0.169
Mof_O 	O 	0.44015	0.93137	0.55985	-0.604
Mof_P 	P 	0.87601	0.87601	0.56587	0.585
Mof_O 	O 	0.8545	0.8545	0.64854	-0.064
Mof_O 	O 	0.94015	0.94015	0.56863	-0.229
Mof_P 	P 	0.37601	0.37601	0.06587	0.632
Mof_O 	O 	0.3545	0.3545	0.14854	-0.243
Mof_O 	O 	0.44015	0.44015	0.06863	-0.79
Mof_P 	P 	0.87601	0.12399	0.43413	0.586
Mof_O 	O 	0.8545	0.1455	0.35146	-0.207
Mof_O 	O 	0.94015	0.05985	0.43137	-0.463
Mof_P 	P 	0.37601	0.62399	0.93413	0.623
Mof_O 	O 	0.3545	0.6455	0.85146	-0.169
Mof_O 	O 	0.44015	0.55985	0.93137	-0.604
Mof_P 	P 	0.12399	0.12399	0.56587	0.584
Mof_O 	O 	0.1455	0.1455	0.64854	-0.279
Mof_O 	O 	0.05985	0.05985	0.56863	-0.669
Mof_P 	P 	0.62399	0.62399	0.06587	0.636
Mof_O 	O 	0.6455	0.6455	0.14854	-0.202
Mof_O 	O 	0.55985	0.55985	0.06863	-0.79
Mof_P 	P 	0.12399	0.87601	0.43413	0.586
Mof_O 	O 	0.1455	0.8545	0.35146	-0.207
Mof_O 	O 	0.05985	0.94015	0.43137	-0.463
Mof_P 	P 	0.62399	0.37601	0.93413	0.623
Mof_O 	O 	0.6455	0.3545	0.85146	-0.169
Mof_O 	O 	0.55985	0.44015	0.93137	-0.604
Mof_P 	P 	0.56587	0.87601	0.87601	0.585
Mof_O 	O 	0.64854	0.8545	0.8545	-0.064
Mof_O 	O 	0.56863	0.94015	0.94015	-0.229
Mof_P 	P 	0.06587	0.37601	0.37601	0.632
Mof_O 	O 	0.14854	0.3545	0.3545	-0.243
Mof_O 	O 	0.06863	0.44015	0.44015	-0.79
Mof_P 	P 	0.43413	0.87601	0.12399	0.586
Mof_O 	O 	0.35146	0.8545	0.1455	-0.207
Mof_O 	O 	0.43137	0.94015	0.05985	-0.463
Mof_P 	P 	0.93413	0.37601	0.62399	0.623
Mof_O 	O 	0.85146	0.3545	0.6455	-0.169
Mof_O 	O 	0.93137	0.44015	0.55985	-0.604
Mof_P 	P 	0.56587	0.12399	0.12399	0.584
Mof_O 	O 	0.64854	0.1455	0.1455	-0.279
Mof_O 	O 	0.56863	0.05985	0.05985	-0.669
Mof_P 	P 	0.06587	0.62399	0.62399	0.636
Mof_O 	O 	0.14854	0.6455	0.6455	-0.202
Mof_O 	O 	0.06863	0.55985	0.55985	-0.79
Mof_P 	P 	0.43413	0.12399	0.87601	0.586
Mof_O 	O 	0.35146	0.1455	0.8545	-0.207
Mof_O 	O 	0.43137	0.05985	0.94015	-0.463
Mof_P 	P 	0.93413	0.62399	0.37601	0.623
Mof_O 	O 	0.85146	0.6455	0.3545	-0.169
Mof_O 	O 	0.93137	0.55985	0.44015	-0.604
_end
