data_functionalizedCrystal
_audit_creation_method	'EQeq! by Chris Wilmer'
_symmetry_space_group_name_H-M	'P1'
_symmetry_Int_Tables_number	1
_symmetry_cell_setting	triclinic
loop_
_symmetry_equiv_pos_as_xyz
  x,y,z
_cell_length_a	8.104
_cell_length_b	27.0656
_cell_length_c	20.4233
_cell_angle_alpha	90
_cell_angle_beta	90
_cell_angle_gamma	90
loop_
_atom_site_label
_atom_site_type_symbol
_atom_site_fract_x
_atom_site_fract_y
_atom_site_fract_z
_atom_site_charge
Mof_O 	O 	0.9344	0.68084	0.0023	-0.232
Mof_O 	O 	0.7633	0.72297	0.06577	-0.243
Mof_O 	O 	0.4625	0.6987	0.1461	-0.252
Mof_O 	O 	0.6779	0.68967	0.2108	-0.232
Mof_C 	C 	0.7178	0.5465	0.0544	0.025
Mof_C 	C 	0.7798	0.5913	0.0335	-0.046
Mof_H 	H 	0.8448	0.5923	0.996	0.093
Mof_C 	C 	0.7471	0.6351	0.0674	-0.011
Mof_C 	C 	0.6477	0.6331	0.1223	-0.038
Mof_C 	C 	0.5856	0.5879	0.1434	0.006
Mof_H 	H 	0.5179	0.5867	0.1801	0.047
Mof_C 	C 	0.6237	0.5449	0.1102	-0.07
Mof_H 	H 	0.5853	0.5147	0.1257	0.072
Mof_C 	C 	0.8188	0.6831	0.0436	0.301
Mof_C 	C 	0.5971	0.6778	0.162	0.296
Mof_O 	O 	0.4344	0.18084	0.0023	-0.264
Mof_O 	O 	0.2633	0.22297	0.06577	-0.256
Mof_O 	O 	0.9625	0.1987	0.1461	-0.181
Mof_O 	O 	0.1779	0.18967	0.2108	-0.226
Mof_C 	C 	0.2178	0.0465	0.0544	-0.002
Mof_C 	C 	0.2798	0.0913	0.0335	-0.033
Mof_H 	H 	0.3448	0.0923	0.996	0.075
Mof_C 	C 	0.2471	0.1351	0.0674	-0.038
Mof_C 	C 	0.1477	0.1331	0.1223	-0.02
Mof_C 	C 	0.0856	0.0879	0.1434	-0.022
Mof_H 	H 	0.0179	0.0867	0.1801	0.042
Mof_C 	C 	0.1237	0.0449	0.1102	-0.057
Mof_H 	H 	0.0853	0.0147	0.1257	0.058
Mof_C 	C 	0.3188	0.1831	0.0436	0.307
Mof_C 	C 	0.0971	0.1778	0.162	0.229
Mof_O 	O 	0.5656	0.31916	0.0023	-0.259
Mof_O 	O 	0.7367	0.27703	0.06577	-0.24
Mof_O 	O 	0.0375	0.3013	0.1461	-0.294
Mof_O 	O 	0.8221	0.31033	0.2108	-0.239
Mof_C 	C 	0.7822	0.4535	0.0544	0.029
Mof_C 	C 	0.7202	0.4087	0.0335	-0.048
Mof_H 	H 	0.6552	0.4077	0.996	0.086
Mof_C 	C 	0.7529	0.3649	0.0674	-0.005
Mof_C 	C 	0.8523	0.3669	0.1223	-0.047
Mof_C 	C 	0.9144	0.4121	0.1434	0.018
Mof_H 	H 	0.9821	0.4133	0.1801	0.061
Mof_C 	C 	0.8763	0.4551	0.1102	-0.07
Mof_H 	H 	0.9147	0.4853	0.1257	0.084
Mof_C 	C 	0.6812	0.3169	0.0436	0.303
Mof_C 	C 	0.9029	0.3222	0.162	0.357
Mof_O 	O 	0.0656	0.81916	0.0023	-0.278
Mof_O 	O 	0.2367	0.77703	0.06577	-0.263
Mof_O 	O 	0.5375	0.8013	0.1461	-0.243
Mof_O 	O 	0.3221	0.81033	0.2108	-0.248
Mof_C 	C 	0.2822	0.9535	0.0544	-0.004
Mof_C 	C 	0.2202	0.9087	0.0335	-0.032
Mof_H 	H 	0.1552	0.9077	0.996	0.066
Mof_C 	C 	0.2529	0.8649	0.0674	-0.035
Mof_C 	C 	0.3523	0.8669	0.1223	-0.031
Mof_C 	C 	0.4144	0.9121	0.1434	-0.011
Mof_H 	H 	0.4821	0.9133	0.1801	0.055
Mof_C 	C 	0.3763	0.9551	0.1102	-0.055
Mof_H 	H 	0.4147	0.9853	0.1257	0.066
Mof_C 	C 	0.1812	0.8169	0.0436	0.308
Mof_C 	C 	0.4029	0.8222	0.162	0.292
Mof_O 	O 	0.0656	0.68084	0.4977	-0.278
Mof_O 	O 	0.2367	0.72297	0.43423	-0.263
Mof_O 	O 	0.5375	0.6987	0.3539	-0.243
Mof_O 	O 	0.3221	0.68967	0.2892	-0.248
Mof_C 	C 	0.2822	0.5465	0.4456	0.005
Mof_C 	C 	0.2202	0.5913	0.4665	-0.036
Mof_H 	H 	0.1552	0.5923	0.504	0.068
Mof_C 	C 	0.2529	0.6351	0.4326	-0.032
Mof_C 	C 	0.3523	0.6331	0.3777	-0.033
Mof_C 	C 	0.4144	0.5879	0.3566	-0.007
Mof_H 	H 	0.4821	0.5867	0.3199	0.054
Mof_C 	C 	0.3763	0.5449	0.3898	-0.059
Mof_H 	H 	0.4147	0.5147	0.3743	0.07
Mof_C 	C 	0.1812	0.6831	0.4564	0.308
Mof_C 	C 	0.4029	0.6778	0.338	0.293
Mof_O 	O 	0.5656	0.18084	0.4977	-0.259
Mof_O 	O 	0.7367	0.22297	0.43423	-0.24
Mof_O 	O 	0.0375	0.1987	0.3539	-0.294
Mof_O 	O 	0.8221	0.18967	0.2892	-0.239
Mof_C 	C 	0.7822	0.0465	0.4456	0.028
Mof_C 	C 	0.7202	0.0913	0.4665	-0.046
Mof_H 	H 	0.6552	0.0923	0.504	0.086
Mof_C 	C 	0.7529	0.1351	0.4326	-0.005
Mof_C 	C 	0.8523	0.1331	0.3777	-0.047
Mof_C 	C 	0.9144	0.0879	0.3566	0.018
Mof_H 	H 	0.9821	0.0867	0.3199	0.062
Mof_C 	C 	0.8763	0.0449	0.3898	-0.068
Mof_H 	H 	0.9147	0.0147	0.3743	0.085
Mof_C 	C 	0.6812	0.1831	0.4564	0.303
Mof_C 	C 	0.9029	0.1778	0.338	0.357
Mof_O 	O 	0.4344	0.31916	0.4977	-0.264
Mof_O 	O 	0.2633	0.27703	0.43423	-0.255
Mof_O 	O 	0.9625	0.3013	0.3539	-0.181
Mof_O 	O 	0.1779	0.31033	0.2892	-0.226
Mof_C 	C 	0.2178	0.4535	0.4456	-0
Mof_C 	C 	0.2798	0.4087	0.4665	-0.034
Mof_H 	H 	0.3448	0.4077	0.504	0.075
Mof_C 	C 	0.2471	0.3649	0.4326	-0.038
Mof_C 	C 	0.1477	0.3669	0.3777	-0.021
Mof_C 	C 	0.0856	0.4121	0.3566	-0.022
Mof_H 	H 	0.0179	0.4133	0.3199	0.041
Mof_C 	C 	0.1237	0.4551	0.3898	-0.058
Mof_H 	H 	0.0853	0.4853	0.3743	0.057
Mof_C 	C 	0.3188	0.3169	0.4564	0.306
Mof_C 	C 	0.0971	0.3222	0.338	0.229
Mof_O 	O 	0.9344	0.81916	0.4977	-0.231
Mof_O 	O 	0.7633	0.77703	0.43423	-0.242
Mof_O 	O 	0.4625	0.8013	0.3539	-0.252
Mof_O 	O 	0.6779	0.81033	0.2892	-0.232
Mof_C 	C 	0.7178	0.9535	0.4456	0.016
Mof_C 	C 	0.7798	0.9087	0.4665	-0.042
Mof_H 	H 	0.8448	0.9077	0.504	0.091
Mof_C 	C 	0.7471	0.8649	0.4326	-0.014
Mof_C 	C 	0.6477	0.8669	0.3777	-0.036
Mof_C 	C 	0.5856	0.9121	0.3566	0.002
Mof_H 	H 	0.5179	0.9133	0.3199	0.048
Mof_C 	C 	0.6237	0.9551	0.3898	-0.065
Mof_H 	H 	0.5853	0.9853	0.3743	0.068
Mof_C 	C 	0.8188	0.8169	0.4564	0.301
Mof_C 	C 	0.5971	0.8222	0.338	0.295
Mof_O 	O 	0.0656	0.31916	0.9977	-0.278
Mof_O 	O 	0.2367	0.27703	0.93423	-0.263
Mof_O 	O 	0.5375	0.3013	0.8539	-0.243
Mof_O 	O 	0.3221	0.31033	0.7892	-0.248
Mof_C 	C 	0.2822	0.4535	0.9456	0.005
Mof_C 	C 	0.2202	0.4087	0.9665	-0.036
Mof_H 	H 	0.1552	0.4077	0.004	0.068
Mof_C 	C 	0.2529	0.3649	0.9326	-0.032
Mof_C 	C 	0.3523	0.3669	0.8777	-0.033
Mof_C 	C 	0.4144	0.4121	0.8566	-0.007
Mof_H 	H 	0.4821	0.4133	0.8199	0.054
Mof_C 	C 	0.3763	0.4551	0.8898	-0.059
Mof_H 	H 	0.4147	0.4853	0.8743	0.07
Mof_C 	C 	0.1812	0.3169	0.9564	0.308
Mof_C 	C 	0.4029	0.3222	0.838	0.293
Mof_O 	O 	0.5656	0.81916	0.9977	-0.259
Mof_O 	O 	0.7367	0.77703	0.93423	-0.24
Mof_O 	O 	0.0375	0.8013	0.8539	-0.294
Mof_O 	O 	0.8221	0.81033	0.7892	-0.239
Mof_C 	C 	0.7822	0.9535	0.9456	0.02
Mof_C 	C 	0.7202	0.9087	0.9665	-0.043
Mof_H 	H 	0.6552	0.9077	0.004	0.084
Mof_C 	C 	0.7529	0.8649	0.9326	-0.008
Mof_C 	C 	0.8523	0.8669	0.8777	-0.045
Mof_C 	C 	0.9144	0.9121	0.8566	0.014
Mof_H 	H 	0.9821	0.9133	0.8199	0.062
Mof_C 	C 	0.8763	0.9551	0.8898	-0.065
Mof_H 	H 	0.9147	0.9853	0.8743	0.08
Mof_C 	C 	0.6812	0.8169	0.9564	0.303
Mof_C 	C 	0.9029	0.8222	0.838	0.356
Mof_O 	O 	0.4344	0.68084	0.9977	-0.264
Mof_O 	O 	0.2633	0.72297	0.93423	-0.256
Mof_O 	O 	0.9625	0.6987	0.8539	-0.181
Mof_O 	O 	0.1779	0.68967	0.7892	-0.226
Mof_C 	C 	0.2178	0.5465	0.9456	-0
Mof_C 	C 	0.2798	0.5913	0.9665	-0.034
Mof_H 	H 	0.3448	0.5923	0.004	0.075
Mof_C 	C 	0.2471	0.6351	0.9326	-0.038
Mof_C 	C 	0.1477	0.6331	0.8777	-0.021
Mof_C 	C 	0.0856	0.5879	0.8566	-0.022
Mof_H 	H 	0.0179	0.5867	0.8199	0.041
Mof_C 	C 	0.1237	0.5449	0.8898	-0.058
Mof_H 	H 	0.0853	0.5147	0.8743	0.057
Mof_C 	C 	0.3188	0.6831	0.9564	0.306
Mof_C 	C 	0.0971	0.6778	0.838	0.229
Mof_O 	O 	0.9344	0.18084	0.9977	-0.231
Mof_O 	O 	0.7633	0.22297	0.93423	-0.242
Mof_O 	O 	0.4625	0.1987	0.8539	-0.252
Mof_O 	O 	0.6779	0.18967	0.7892	-0.231
Mof_C 	C 	0.7178	0.0465	0.9456	0.023
Mof_C 	C 	0.7798	0.0913	0.9665	-0.045
Mof_H 	H 	0.8448	0.0923	0.004	0.093
Mof_C 	C 	0.7471	0.1351	0.9326	-0.012
Mof_C 	C 	0.6477	0.1331	0.8777	-0.037
Mof_C 	C 	0.5856	0.0879	0.8566	0.005
Mof_H 	H 	0.5179	0.0867	0.8199	0.048
Mof_C 	C 	0.6237	0.0449	0.8898	-0.068
Mof_H 	H 	0.5853	0.0147	0.8743	0.073
Mof_C 	C 	0.8188	0.1831	0.9564	0.301
Mof_C 	C 	0.5971	0.1778	0.838	0.296
Mof_O 	O 	0.9344	0.31916	0.5023	-0.231
Mof_O 	O 	0.7633	0.27703	0.56577	-0.242
Mof_O 	O 	0.4625	0.3013	0.6461	-0.252
Mof_O 	O 	0.6779	0.31033	0.7108	-0.232
Mof_C 	C 	0.7178	0.4535	0.5544	0.025
Mof_C 	C 	0.7798	0.4087	0.5335	-0.047
Mof_H 	H 	0.8448	0.4077	0.496	0.093
Mof_C 	C 	0.7471	0.3649	0.5674	-0.011
Mof_C 	C 	0.6477	0.3669	0.6223	-0.038
Mof_C 	C 	0.5856	0.4121	0.6434	0.006
Mof_H 	H 	0.5179	0.4133	0.6801	0.047
Mof_C 	C 	0.6237	0.4551	0.6102	-0.07
Mof_H 	H 	0.5853	0.4853	0.6257	0.072
Mof_C 	C 	0.8188	0.3169	0.5436	0.301
Mof_C 	C 	0.5971	0.3222	0.662	0.296
Mof_O 	O 	0.4344	0.81916	0.5023	-0.264
Mof_O 	O 	0.2633	0.77703	0.56577	-0.256
Mof_O 	O 	0.9625	0.8013	0.6461	-0.181
Mof_O 	O 	0.1779	0.81033	0.7108	-0.226
Mof_C 	C 	0.2178	0.9535	0.5544	-0.009
Mof_C 	C 	0.2798	0.9087	0.5335	-0.03
Mof_H 	H 	0.3448	0.9077	0.496	0.073
Mof_C 	C 	0.2471	0.8649	0.5674	-0.041
Mof_C 	C 	0.1477	0.8669	0.6223	-0.019
Mof_C 	C 	0.0856	0.9121	0.6434	-0.026
Mof_H 	H 	0.0179	0.9133	0.6801	0.042
Mof_C 	C 	0.1237	0.9551	0.6102	-0.054
Mof_H 	H 	0.0853	0.9853	0.6257	0.053
Mof_C 	C 	0.3188	0.8169	0.5436	0.307
Mof_C 	C 	0.0971	0.8222	0.662	0.229
Mof_O 	O 	0.5656	0.68084	0.5023	-0.259
Mof_O 	O 	0.7367	0.72297	0.56577	-0.24
Mof_O 	O 	0.0375	0.6987	0.6461	-0.294
Mof_O 	O 	0.8221	0.68967	0.7108	-0.239
Mof_C 	C 	0.7822	0.5465	0.5544	0.029
Mof_C 	C 	0.7202	0.5913	0.5335	-0.048
Mof_H 	H 	0.6552	0.5923	0.496	0.086
Mof_C 	C 	0.7529	0.6351	0.5674	-0.005
Mof_C 	C 	0.8523	0.6331	0.6223	-0.047
Mof_C 	C 	0.9144	0.5879	0.6434	0.018
Mof_H 	H 	0.9821	0.5867	0.6801	0.061
Mof_C 	C 	0.8763	0.5449	0.6102	-0.07
Mof_H 	H 	0.9147	0.5147	0.6257	0.084
Mof_C 	C 	0.6812	0.6831	0.5436	0.303
Mof_C 	C 	0.9029	0.6778	0.662	0.357
Mof_O 	O 	0.0656	0.18084	0.5023	-0.278
Mof_O 	O 	0.2367	0.22297	0.56577	-0.263
Mof_O 	O 	0.5375	0.1987	0.6461	-0.243
Mof_O 	O 	0.3221	0.18967	0.7108	-0.248
Mof_C 	C 	0.2822	0.0465	0.5544	0.003
Mof_C 	C 	0.2202	0.0913	0.5335	-0.034
Mof_H 	H 	0.1552	0.0923	0.496	0.067
Mof_C 	C 	0.2529	0.1351	0.5674	-0.033
Mof_C 	C 	0.3523	0.1331	0.6223	-0.033
Mof_C 	C 	0.4144	0.0879	0.6434	-0.008
Mof_H 	H 	0.4821	0.0867	0.6801	0.055
Mof_C 	C 	0.3763	0.0449	0.6102	-0.058
Mof_H 	H 	0.4147	0.0147	0.6257	0.071
Mof_C 	C 	0.1812	0.1831	0.5436	0.308
Mof_C 	C 	0.4029	0.1778	0.662	0.293
Mof_Cd	Cd	0.5	0.75	0.25	0.515
Mof_Cd	Cd	7.99744e-33	0.25	0.25	0.467
Mof_Cd	Cd	0.5	0.25	0.75	0.515
Mof_Cd	Cd	2.96275e-32	0.75	0.75	0.466
Mof_Cd	Cd	8.98321e-33	0.75	0.9507	0.473
Mof_Cd	Cd	0.5	0.25	0.9507	0.524
Mof_Cd	Cd	2.77311e-32	0.75	0.5493	0.473
Mof_Cd	Cd	0.5	0.25	0.5493	0.524
Mof_Cd	Cd	8.9186e-33	0.25	0.0493	0.473
Mof_Cd	Cd	0.5	0.75	0.0493	0.524
Mof_Cd	Cd	1.5529e-32	0.25	0.4507	0.473
Mof_Cd	Cd	0.5	0.75	0.4507	0.524
Mof_O 	O 	0.75	0.5	0.9573	-0.175
Mof_C 	C 	0.75	0.5	0.017	0.113
Mof_O 	O 	0.25	0	0.9573	-0.203
Mof_C 	C 	0.25	0	0.017	0.125
Mof_O 	O 	0.25	0.5	0.5427	-0.203
Mof_C 	C 	0.25	0.5	0.483	0.118
Mof_O 	O 	0.75	0	0.5427	-0.175
Mof_C 	C 	0.75	0	0.483	0.119
Mof_O 	O 	0.25	0.5	0.0427	-0.203
Mof_C 	C 	0.25	0.5	0.983	0.118
Mof_O 	O 	0.75	3.52198e-34	0.0427	-0.175
Mof_C 	C 	0.75	0	0.983	0.119
Mof_O 	O 	0.75	0.5	0.4573	-0.175
Mof_C 	C 	0.75	0.5	0.517	0.113
Mof_O 	O 	0.25	2.81759e-33	0.4573	-0.203
Mof_C 	C 	0.25	2.81759e-33	0.517	0.125
_end
