data_functionalizedCrystal
_audit_creation_method	'EQeq! by Chris Wilmer'
_symmetry_space_group_name_H-M	'P1'
_symmetry_Int_Tables_number	1
_symmetry_cell_setting	triclinic
loop_
_symmetry_equiv_pos_as_xyz
  x,y,z
_cell_length_a	18.9
_cell_length_b	18.9
_cell_length_c	18.9
_cell_angle_alpha	61.8682
_cell_angle_beta	61.8682
_cell_angle_gamma	61.8682
loop_
_atom_site_label
_atom_site_type_symbol
_atom_site_fract_x
_atom_site_fract_y
_atom_site_fract_z
_atom_site_charge
Mof_Co	Co	0.35438	0.14562	0.25	1.197
Mof_Co	Co	0.25	0.35438	0.14562	1.197
Mof_Co	Co	0.14562	0.25	0.35438	1.197
Mof_Co	Co	0.64562	0.85438	0.75	1.197
Mof_Co	Co	0.75	0.64562	0.85438	1.197
Mof_Co	Co	0.85438	0.75	0.64562	1.197
Mof_H 	H 	0.4451	0.1045	0.43	0.017
Mof_H 	H 	0.4991	0.0752	0.531	0.092
Mof_H 	H 	0.266	0.1516	0.6826	0.092
Mof_H 	H 	0.2117	0.1839	0.5813	0.015
Mof_H 	H 	0.5132	0.9676	0.6575	0.027
Mof_H 	H 	0.43	0.4451	0.1045	0.017
Mof_H 	H 	0.531	0.4991	0.0752	0.092
Mof_H 	H 	0.6826	0.266	0.1516	0.092
Mof_H 	H 	0.5813	0.2117	0.1839	0.014
Mof_H 	H 	0.6575	0.5132	0.9676	0.026
Mof_H 	H 	0.1045	0.43	0.4451	0.016
Mof_H 	H 	0.0752	0.531	0.4991	0.091
Mof_H 	H 	0.1516	0.6826	0.266	0.091
Mof_H 	H 	0.1839	0.5813	0.2117	0.014
Mof_H 	H 	0.9676	0.6575	0.5132	0.026
Mof_H 	H 	0.3955	0.0549	0.07	0.016
Mof_H 	H 	0.4248	0.0009	0.969	0.091
Mof_H 	H 	0.3484	0.234	0.8174	0.091
Mof_H 	H 	0.3161	0.2883	0.9187	0.014
Mof_H 	H 	0.5324	0.9868	0.8425	0.027
Mof_H 	H 	0.0549	0.07	0.3955	0.016
Mof_H 	H 	0.0009	0.969	0.4248	0.091
Mof_H 	H 	0.234	0.8174	0.3484	0.091
Mof_H 	H 	0.2883	0.9187	0.3161	0.014
Mof_H 	H 	0.9868	0.8425	0.5324	0.027
Mof_H 	H 	0.07	0.3955	0.0549	0.016
Mof_H 	H 	0.969	0.4248	0.0009	0.091
Mof_H 	H 	0.8174	0.3484	0.234	0.091
Mof_H 	H 	0.9187	0.3161	0.2883	0.014
Mof_H 	H 	0.8425	0.5324	0.9868	0.027
Mof_H 	H 	0.5549	0.8955	0.57	0.016
Mof_H 	H 	0.5009	0.9248	0.469	0.091
Mof_H 	H 	0.734	0.8484	0.3174	0.091
Mof_H 	H 	0.7883	0.8161	0.4187	0.014
Mof_H 	H 	0.4868	0.0324	0.3425	0.026
Mof_H 	H 	0.57	0.5549	0.8955	0.016
Mof_H 	H 	0.469	0.5009	0.9248	0.091
Mof_H 	H 	0.3174	0.734	0.8484	0.091
Mof_H 	H 	0.4187	0.7883	0.8161	0.014
Mof_H 	H 	0.3425	0.4868	0.0324	0.026
Mof_H 	H 	0.8955	0.57	0.5549	0.016
Mof_H 	H 	0.9248	0.469	0.5009	0.091
Mof_H 	H 	0.8484	0.3174	0.734	0.091
Mof_H 	H 	0.8161	0.4187	0.7883	0.014
Mof_H 	H 	0.0324	0.3425	0.4868	0.026
Mof_H 	H 	0.6045	0.9451	0.93	0.016
Mof_H 	H 	0.5752	0.9991	0.031	0.091
Mof_H 	H 	0.6516	0.766	0.1826	0.091
Mof_H 	H 	0.6839	0.7117	0.0813	0.014
Mof_H 	H 	0.4676	0.0132	0.1575	0.027
Mof_H 	H 	0.9451	0.93	0.6045	0.016
Mof_H 	H 	0.9991	0.031	0.5752	0.091
Mof_H 	H 	0.766	0.1826	0.6516	0.091
Mof_H 	H 	0.7117	0.0813	0.6839	0.014
Mof_H 	H 	0.0132	0.1575	0.4676	0.027
Mof_H 	H 	0.93	0.6045	0.9451	0.016
Mof_H 	H 	0.031	0.5752	0.9991	0.091
Mof_H 	H 	0.1826	0.6516	0.766	0.091
Mof_H 	H 	0.0813	0.6839	0.7117	0.014
Mof_H 	H 	0.1575	0.4676	0.0132	0.027
Mof_H 	H 	0.34345	0.15655	0.75	0.038
Mof_H 	H 	0.75	0.34345	0.15655	0.038
Mof_H 	H 	0.15655	0.75	0.34345	0.038
Mof_H 	H 	0.65655	0.84345	0.25	0.038
Mof_H 	H 	0.25	0.65655	0.84345	0.038
Mof_H 	H 	0.84345	0.25	0.65655	0.038
Mof_C 	C 	0.28782	0.16201	0.42888	0.405
Mof_C 	C 	0.32087	0.14477	0.49623	-0.151
Mof_C 	C 	0.40832	0.11262	0.48182	0.081
Mof_C 	C 	0.44079	0.09309	0.54289	-0.159
Mof_C 	C 	0.38589	0.10009	0.62319	0.108
Mof_C 	C 	0.30257	0.13865	0.63291	-0.167
Mof_C 	C 	0.2698	0.15948	0.57114	0.091
Mof_C 	C 	0.42215	0.06873	0.69119	-0.047
Mof_C 	C 	0.49323	0.99627	0.69524	0.036
Mof_C 	C 	0.42888	0.28782	0.16201	0.405
Mof_C 	C 	0.49623	0.32087	0.14477	-0.151
Mof_C 	C 	0.48182	0.40832	0.11262	0.081
Mof_C 	C 	0.54289	0.44079	0.09309	-0.159
Mof_C 	C 	0.62319	0.38589	0.10009	0.108
Mof_C 	C 	0.63291	0.30257	0.13865	-0.167
Mof_C 	C 	0.57114	0.2698	0.15948	0.091
Mof_C 	C 	0.69119	0.42215	0.06873	-0.047
Mof_C 	C 	0.69524	0.49323	0.99627	0.036
Mof_C 	C 	0.16201	0.42888	0.28782	0.405
Mof_C 	C 	0.14477	0.49623	0.32087	-0.151
Mof_C 	C 	0.11262	0.48182	0.40832	0.081
Mof_C 	C 	0.09309	0.54289	0.44079	-0.159
Mof_C 	C 	0.10009	0.62319	0.38589	0.108
Mof_C 	C 	0.13865	0.63291	0.30257	-0.167
Mof_C 	C 	0.15948	0.57114	0.2698	0.091
Mof_C 	C 	0.06873	0.69119	0.42215	-0.047
Mof_C 	C 	0.99627	0.69524	0.49323	0.036
Mof_C 	C 	0.33799	0.21218	0.07112	0.405
Mof_C 	C 	0.35523	0.17913	0.00377	-0.15
Mof_C 	C 	0.38738	0.09168	0.01818	0.082
Mof_C 	C 	0.40691	0.05921	0.95711	-0.159
Mof_C 	C 	0.39991	0.11411	0.87681	0.108
Mof_C 	C 	0.36135	0.19743	0.86709	-0.167
Mof_C 	C 	0.34052	0.2302	0.92886	0.09
Mof_C 	C 	0.43127	0.07785	0.80881	-0.047
Mof_C 	C 	0.50373	0.00677	0.80476	0.035
Mof_C 	C 	0.21218	0.07112	0.33799	0.405
Mof_C 	C 	0.17913	0.00377	0.35523	-0.15
Mof_C 	C 	0.09168	0.01818	0.38738	0.082
Mof_C 	C 	0.05921	0.95711	0.40691	-0.159
Mof_C 	C 	0.11411	0.87681	0.39991	0.108
Mof_C 	C 	0.19743	0.86709	0.36135	-0.167
Mof_C 	C 	0.2302	0.92886	0.34052	0.09
Mof_C 	C 	0.07785	0.80881	0.43127	-0.047
Mof_C 	C 	0.00677	0.80476	0.50373	0.035
Mof_C 	C 	0.07112	0.33799	0.21218	0.405
Mof_C 	C 	0.00377	0.35523	0.17913	-0.15
Mof_C 	C 	0.01818	0.38738	0.09168	0.082
Mof_C 	C 	0.95711	0.40691	0.05921	-0.159
Mof_C 	C 	0.87681	0.39991	0.11411	0.108
Mof_C 	C 	0.86709	0.36135	0.19743	-0.167
Mof_C 	C 	0.92886	0.34052	0.2302	0.09
Mof_C 	C 	0.80881	0.43127	0.07785	-0.047
Mof_C 	C 	0.80476	0.50373	0.00677	0.035
Mof_C 	C 	0.71218	0.83799	0.57112	0.405
Mof_C 	C 	0.67913	0.85523	0.50377	-0.151
Mof_C 	C 	0.59168	0.88738	0.51818	0.081
Mof_C 	C 	0.55921	0.90691	0.45711	-0.159
Mof_C 	C 	0.61411	0.89991	0.37681	0.108
Mof_C 	C 	0.69743	0.86135	0.36709	-0.167
Mof_C 	C 	0.7302	0.84052	0.42886	0.091
Mof_C 	C 	0.57785	0.93127	0.30881	-0.047
Mof_C 	C 	0.50677	0.00373	0.30476	0.036
Mof_C 	C 	0.57112	0.71218	0.83799	0.405
Mof_C 	C 	0.50377	0.67913	0.85523	-0.151
Mof_C 	C 	0.51818	0.59168	0.88738	0.081
Mof_C 	C 	0.45711	0.55921	0.90691	-0.159
Mof_C 	C 	0.37681	0.61411	0.89991	0.108
Mof_C 	C 	0.36709	0.69743	0.86135	-0.167
Mof_C 	C 	0.42886	0.7302	0.84052	0.091
Mof_C 	C 	0.30881	0.57785	0.93127	-0.047
Mof_C 	C 	0.30476	0.50677	0.00373	0.036
Mof_C 	C 	0.83799	0.57112	0.71218	0.405
Mof_C 	C 	0.85523	0.50377	0.67913	-0.151
Mof_C 	C 	0.88738	0.51818	0.59168	0.081
Mof_C 	C 	0.90691	0.45711	0.55921	-0.159
Mof_C 	C 	0.89991	0.37681	0.61411	0.108
Mof_C 	C 	0.86135	0.36709	0.69743	-0.167
Mof_C 	C 	0.84052	0.42886	0.7302	0.091
Mof_C 	C 	0.93127	0.30881	0.57785	-0.047
Mof_C 	C 	0.00373	0.30476	0.50677	0.036
Mof_C 	C 	0.66201	0.78782	0.92888	0.405
Mof_C 	C 	0.64477	0.82087	0.99623	-0.15
Mof_C 	C 	0.61262	0.90832	0.98182	0.082
Mof_C 	C 	0.59309	0.94079	0.04289	-0.159
Mof_C 	C 	0.60009	0.88589	0.12319	0.108
Mof_C 	C 	0.63865	0.80257	0.13291	-0.167
Mof_C 	C 	0.65948	0.7698	0.07114	0.09
Mof_C 	C 	0.56873	0.92215	0.19119	-0.047
Mof_C 	C 	0.49627	0.99323	0.19524	0.035
Mof_C 	C 	0.78782	0.92888	0.66201	0.405
Mof_C 	C 	0.82087	0.99623	0.64477	-0.15
Mof_C 	C 	0.90832	0.98182	0.61262	0.082
Mof_C 	C 	0.94079	0.04289	0.59309	-0.159
Mof_C 	C 	0.88589	0.12319	0.60009	0.108
Mof_C 	C 	0.80257	0.13291	0.63865	-0.167
Mof_C 	C 	0.7698	0.07114	0.65948	0.09
Mof_C 	C 	0.92215	0.19119	0.56873	-0.047
Mof_C 	C 	0.99323	0.19524	0.49627	0.035
Mof_C 	C 	0.92888	0.66201	0.78782	0.405
Mof_C 	C 	0.99623	0.64477	0.82087	-0.15
Mof_C 	C 	0.98182	0.61262	0.90832	0.082
Mof_C 	C 	0.04289	0.59309	0.94079	-0.159
Mof_C 	C 	0.12319	0.60009	0.88589	0.108
Mof_C 	C 	0.13291	0.63865	0.80257	-0.167
Mof_C 	C 	0.07114	0.65948	0.7698	0.09
Mof_C 	C 	0.19119	0.56873	0.92215	-0.047
Mof_C 	C 	0.19524	0.49627	0.99323	0.035
Mof_C 	C 	0.39125	0.10875	0.75	-0.021
Mof_C 	C 	0.75	0.39125	0.10875	-0.021
Mof_C 	C 	0.10875	0.75	0.39125	-0.021
Mof_C 	C 	0.60875	0.89125	0.25	-0.021
Mof_C 	C 	0.25	0.60875	0.89125	-0.021
Mof_C 	C 	0.89125	0.25	0.60875	-0.021
Mof_N 	N 	0.53414	0.96586	0.75	-0.195
Mof_N 	N 	0.75	0.53414	0.96586	-0.195
Mof_N 	N 	0.96586	0.75	0.53414	-0.195
Mof_N 	N 	0.46586	0.03414	0.25	-0.195
Mof_N 	N 	0.25	0.46586	0.03414	-0.195
Mof_N 	N 	0.03414	0.25	0.46586	-0.195
Mof_O 	O 	0.33891	0.12699	0.37375	-0.428
Mof_O 	O 	0.21373	0.21065	0.43378	-0.421
Mof_O 	O 	0.37375	0.33891	0.12699	-0.428
Mof_O 	O 	0.43378	0.21373	0.21065	-0.421
Mof_O 	O 	0.12699	0.37375	0.33891	-0.428
Mof_O 	O 	0.21065	0.43378	0.21373	-0.421
Mof_O 	O 	0.37301	0.16109	0.12625	-0.428
Mof_O 	O 	0.28935	0.28627	0.06622	-0.421
Mof_O 	O 	0.16109	0.12625	0.37301	-0.428
Mof_O 	O 	0.28627	0.06622	0.28935	-0.421
Mof_O 	O 	0.12625	0.37301	0.16109	-0.428
Mof_O 	O 	0.06622	0.28935	0.28627	-0.421
Mof_O 	O 	0.66109	0.87301	0.62625	-0.428
Mof_O 	O 	0.78627	0.78935	0.56622	-0.421
Mof_O 	O 	0.62625	0.66109	0.87301	-0.428
Mof_O 	O 	0.56622	0.78627	0.78935	-0.421
Mof_O 	O 	0.87301	0.62625	0.66109	-0.428
Mof_O 	O 	0.78935	0.56622	0.78627	-0.421
Mof_O 	O 	0.62699	0.83891	0.87375	-0.428
Mof_O 	O 	0.71065	0.71373	0.93378	-0.421
Mof_O 	O 	0.83891	0.87375	0.62699	-0.428
Mof_O 	O 	0.71373	0.93378	0.71065	-0.421
Mof_O 	O 	0.87375	0.62699	0.83891	-0.428
Mof_O 	O 	0.93378	0.71065	0.71373	-0.421
Mof_O 	O 	0.25	0.25	0.25	-0.58
Mof_O 	O 	0.75	0.75	0.75	-0.58
_end
