data_functionalizedCrystal
_audit_creation_method	'EQeq! by Chris Wilmer'
_symmetry_space_group_name_H-M	'P1'
_symmetry_Int_Tables_number	1
_symmetry_cell_setting	triclinic
loop_
_symmetry_equiv_pos_as_xyz
  x,y,z
_cell_length_a	14.2725
_cell_length_b	19.5898
_cell_length_c	20.7591
_cell_angle_alpha	90
_cell_angle_beta	90
_cell_angle_gamma	90
loop_
_atom_site_label
_atom_site_type_symbol
_atom_site_fract_x
_atom_site_fract_y
_atom_site_fract_z
_atom_site_charge
Mof_O 	O 	0.4229	0.4275	0.068	-0.488
Mof_C 	C 	0.4316	0.3542	0.1845	0.22
Mof_H 	H 	0.3792	0.3813	0.1775	-0.021
Mof_C 	C 	0.431	0.3111	0.2387	-0.042
Mof_C 	C 	0.5916	0.2737	0.2068	0.051
Mof_H 	H 	0.6436	0.2463	0.2145	0.011
Mof_C 	C 	0.5882	0.3196	0.1561	-0.25
Mof_H 	H 	0.6404	0.3259	0.1299	0.128
Mof_C 	C 	0.3567	0.3085	0.2831	-0.112
Mof_H 	H 	0.3033	0.3345	0.2754	0.067
Mof_C 	C 	0.3608	0.2696	0.3365	0.085
Mof_H 	H 	0.3116	0.2698	0.3659	0.015
Mof_C 	C 	0.4415	0.2278	0.3476	-0.261
Mof_H 	H 	0.5507	0.1998	0.3122	0.085
Mof_C 	C 	0.4426	0.1843	0.4085	0.525
Mof_O 	O 	0.3795	0.1884	0.4489	-0.331
Mof_O 	O 	0.9229	0.9275	0.568	-0.44
Mof_C 	C 	0.9316	0.8542	0.6845	0.207
Mof_H 	H 	0.8792	0.8813	0.6775	-0.011
Mof_C 	C 	0.931	0.8111	0.7387	-0.033
Mof_C 	C 	0.0916	0.7737	0.7068	0.039
Mof_H 	H 	0.1436	0.7463	0.7145	0.021
Mof_C 	C 	0.0882	0.8196	0.6561	-0.223
Mof_H 	H 	0.1404	0.8259	0.6299	0.128
Mof_C 	C 	0.8567	0.8085	0.7831	-0.095
Mof_H 	H 	0.8033	0.8345	0.7754	0.073
Mof_C 	C 	0.8608	0.7696	0.8365	0.07
Mof_H 	H 	0.8116	0.7698	0.8659	0.036
Mof_C 	C 	0.9415	0.7278	0.8476	-0.212
Mof_H 	H 	0.0507	0.6998	0.8122	0.106
Mof_C 	C 	0.9426	0.6843	0.9085	0.503
Mof_O 	O 	0.8795	0.6884	0.9489	-0.264
Mof_O 	O 	0.5771	0.5725	0.068	-0.488
Mof_C 	C 	0.5684	0.6458	0.1845	0.211
Mof_H 	H 	0.6208	0.6187	0.1775	-0.019
Mof_C 	C 	0.569	0.6889	0.2387	-0.045
Mof_C 	C 	0.4084	0.7263	0.2068	0.048
Mof_H 	H 	0.3564	0.7537	0.2145	0.016
Mof_C 	C 	0.4118	0.6804	0.1561	-0.24
Mof_H 	H 	0.3596	0.6741	0.1299	0.126
Mof_C 	C 	0.6433	0.6915	0.2831	-0.109
Mof_H 	H 	0.6967	0.6655	0.2754	0.068
Mof_C 	C 	0.6392	0.7304	0.3365	0.083
Mof_H 	H 	0.6884	0.7302	0.3659	0.018
Mof_C 	C 	0.5585	0.7722	0.3476	-0.256
Mof_H 	H 	0.4493	0.8002	0.3122	0.095
Mof_C 	C 	0.5574	0.8157	0.4085	0.522
Mof_O 	O 	0.6205	0.8116	0.4489	-0.327
Mof_O 	O 	0.0771	0.0725	0.568	-0.476
Mof_C 	C 	0.0684	0.1458	0.6845	0.191
Mof_H 	H 	0.1208	0.1187	0.6775	-0.018
Mof_C 	C 	0.069	0.1889	0.7387	-0.055
Mof_C 	C 	0.9084	0.2263	0.7068	0.033
Mof_H 	H 	0.8564	0.2537	0.7145	0.025
Mof_C 	C 	0.9118	0.1804	0.6561	-0.205
Mof_H 	H 	0.8596	0.1741	0.6299	0.122
Mof_C 	C 	0.1433	0.1915	0.7831	-0.089
Mof_H 	H 	0.1967	0.1655	0.7754	0.061
Mof_C 	C 	0.1392	0.2304	0.8365	0.059
Mof_H 	H 	0.1884	0.2302	0.8659	0.034
Mof_C 	C 	0.0585	0.2722	0.8476	-0.215
Mof_H 	H 	0.9493	0.3002	0.8122	0.114
Mof_C 	C 	0.0574	0.3157	0.9085	0.485
Mof_O 	O 	0.1205	0.3116	0.9489	-0.264
Mof_O 	O 	0.5771	0.4275	0.932	-0.42
Mof_C 	C 	0.5684	0.3542	0.8155	0.217
Mof_H 	H 	0.6208	0.3813	0.8225	-0.017
Mof_C 	C 	0.569	0.3111	0.7613	-0.067
Mof_C 	C 	0.4084	0.2737	0.7932	0.079
Mof_H 	H 	0.3564	0.2463	0.7855	0.009
Mof_C 	C 	0.4118	0.3196	0.8439	-0.255
Mof_H 	H 	0.3596	0.3259	0.8701	0.15
Mof_C 	C 	0.6433	0.3085	0.7169	-0.098
Mof_H 	H 	0.6967	0.3345	0.7246	0.066
Mof_C 	C 	0.6392	0.2696	0.6635	0.077
Mof_H 	H 	0.6884	0.2698	0.6341	0.02
Mof_C 	C 	0.5585	0.2278	0.6524	-0.252
Mof_H 	H 	0.4493	0.1998	0.6878	0.093
Mof_C 	C 	0.5574	0.1843	0.5915	0.521
Mof_O 	O 	0.6205	0.1884	0.5511	-0.329
Mof_O 	O 	0.0771	0.9275	0.432	-0.451
Mof_C 	C 	0.0684	0.8542	0.3155	0.214
Mof_H 	H 	0.1208	0.8813	0.3225	-0.017
Mof_C 	C 	0.069	0.8111	0.2613	-0.057
Mof_C 	C 	0.9084	0.7737	0.2932	0.056
Mof_H 	H 	0.8564	0.7463	0.2855	0.017
Mof_C 	C 	0.9118	0.8196	0.3439	-0.242
Mof_H 	H 	0.8596	0.8259	0.3701	0.136
Mof_C 	C 	0.1433	0.8085	0.2169	-0.108
Mof_H 	H 	0.1967	0.8345	0.2246	0.066
Mof_C 	C 	0.1392	0.7696	0.1635	0.082
Mof_H 	H 	0.1884	0.7698	0.1341	0.008
Mof_C 	C 	0.0585	0.7278	0.1524	-0.264
Mof_H 	H 	0.9493	0.6998	0.1878	0.112
Mof_C 	C 	0.0574	0.6843	0.0915	0.528
Mof_O 	O 	0.1205	0.6884	0.0511	-0.368
Mof_O 	O 	0.4229	0.5725	0.932	-0.419
Mof_C 	C 	0.4316	0.6458	0.8155	0.209
Mof_H 	H 	0.3792	0.6187	0.8225	-0.015
Mof_C 	C 	0.431	0.6889	0.7613	-0.069
Mof_C 	C 	0.5916	0.7263	0.7932	0.077
Mof_H 	H 	0.6436	0.7537	0.7855	0.013
Mof_C 	C 	0.5882	0.6804	0.8439	-0.245
Mof_H 	H 	0.6404	0.6741	0.8701	0.148
Mof_C 	C 	0.3567	0.6915	0.7169	-0.096
Mof_H 	H 	0.3033	0.6655	0.7246	0.064
Mof_C 	C 	0.3608	0.7304	0.6635	0.075
Mof_H 	H 	0.3116	0.7302	0.6341	0.02
Mof_C 	C 	0.4415	0.7722	0.6524	-0.248
Mof_H 	H 	0.5507	0.8002	0.6878	0.102
Mof_C 	C 	0.4426	0.8157	0.5915	0.518
Mof_O 	O 	0.3795	0.8116	0.5511	-0.326
Mof_O 	O 	0.9229	0.0725	0.432	-0.467
Mof_C 	C 	0.9316	0.1458	0.3155	0.218
Mof_H 	H 	0.8792	0.1187	0.3225	-0.028
Mof_C 	C 	0.931	0.1889	0.2613	-0.048
Mof_C 	C 	0.0916	0.2263	0.2932	0.059
Mof_H 	H 	0.1436	0.2537	0.2855	0.013
Mof_C 	C 	0.0882	0.1804	0.3439	-0.231
Mof_H 	H 	0.1404	0.1741	0.3701	0.128
Mof_C 	C 	0.8567	0.1915	0.2169	-0.109
Mof_H 	H 	0.8033	0.1655	0.2246	0.059
Mof_C 	C 	0.8608	0.2304	0.1635	0.079
Mof_H 	H 	0.8116	0.2302	0.1341	0.006
Mof_C 	C 	0.9415	0.2722	0.1524	-0.254
Mof_H 	H 	0.0507	0.3002	0.1878	0.109
Mof_C 	C 	0.9426	0.3157	0.0915	0.547
Mof_O 	O 	0.8795	0.3116	0.0511	-0.37
Mof_O 	O 	0.5771	0.5725	0.932	-0.419
Mof_C 	C 	0.5684	0.6458	0.8155	0.21
Mof_H 	H 	0.6208	0.6187	0.8225	-0.015
Mof_C 	C 	0.569	0.6889	0.7613	-0.069
Mof_C 	C 	0.4084	0.7263	0.7932	0.077
Mof_H 	H 	0.3564	0.7537	0.7855	0.013
Mof_C 	C 	0.4118	0.6804	0.8439	-0.245
Mof_H 	H 	0.3596	0.6741	0.8701	0.148
Mof_C 	C 	0.6433	0.6915	0.7169	-0.096
Mof_H 	H 	0.6967	0.6655	0.7246	0.065
Mof_C 	C 	0.6392	0.7304	0.6635	0.075
Mof_H 	H 	0.6884	0.7302	0.6341	0.021
Mof_C 	C 	0.5585	0.7722	0.6524	-0.247
Mof_H 	H 	0.4493	0.8002	0.6878	0.103
Mof_C 	C 	0.5574	0.8157	0.5915	0.518
Mof_O 	O 	0.6205	0.8116	0.5511	-0.326
Mof_O 	O 	0.0771	0.0725	0.432	-0.477
Mof_C 	C 	0.0684	0.1458	0.3155	0.207
Mof_H 	H 	0.1208	0.1187	0.3225	-0.026
Mof_C 	C 	0.069	0.1889	0.2613	-0.065
Mof_C 	C 	0.9084	0.2263	0.2932	0.053
Mof_H 	H 	0.8564	0.2537	0.2855	0.017
Mof_C 	C 	0.9118	0.1804	0.3439	-0.227
Mof_H 	H 	0.8596	0.1741	0.3701	0.129
Mof_C 	C 	0.1433	0.1915	0.2169	-0.105
Mof_H 	H 	0.1967	0.1655	0.2246	0.056
Mof_C 	C 	0.1392	0.2304	0.1635	0.075
Mof_H 	H 	0.1884	0.2302	0.1341	0.005
Mof_C 	C 	0.0585	0.2722	0.1524	-0.263
Mof_H 	H 	0.9493	0.3002	0.1878	0.115
Mof_C 	C 	0.0574	0.3157	0.0915	0.525
Mof_O 	O 	0.1205	0.3116	0.0511	-0.37
Mof_O 	O 	0.4229	0.4275	0.932	-0.419
Mof_C 	C 	0.4316	0.3542	0.8155	0.217
Mof_H 	H 	0.3792	0.3813	0.8225	-0.017
Mof_C 	C 	0.431	0.3111	0.7613	-0.067
Mof_C 	C 	0.5916	0.2737	0.7932	0.079
Mof_H 	H 	0.6436	0.2463	0.7855	0.009
Mof_C 	C 	0.5882	0.3196	0.8439	-0.256
Mof_H 	H 	0.6404	0.3259	0.8701	0.15
Mof_C 	C 	0.3567	0.3085	0.7169	-0.098
Mof_H 	H 	0.3033	0.3345	0.7246	0.065
Mof_C 	C 	0.3608	0.2696	0.6635	0.077
Mof_H 	H 	0.3116	0.2698	0.6341	0.018
Mof_C 	C 	0.4415	0.2278	0.6524	-0.253
Mof_H 	H 	0.5507	0.1998	0.6878	0.093
Mof_C 	C 	0.4426	0.1843	0.5915	0.521
Mof_O 	O 	0.3795	0.1884	0.5511	-0.33
Mof_O 	O 	0.9229	0.9275	0.432	-0.441
Mof_C 	C 	0.9316	0.8542	0.3155	0.225
Mof_H 	H 	0.8792	0.8813	0.3225	-0.019
Mof_C 	C 	0.931	0.8111	0.2613	-0.04
Mof_C 	C 	0.0916	0.7737	0.2932	0.062
Mof_H 	H 	0.1436	0.7463	0.2855	0.012
Mof_C 	C 	0.0882	0.8196	0.3439	-0.245
Mof_H 	H 	0.1404	0.8259	0.3701	0.135
Mof_C 	C 	0.8567	0.8085	0.2169	-0.112
Mof_H 	H 	0.8033	0.8345	0.2246	0.068
Mof_C 	C 	0.8608	0.7696	0.1635	0.086
Mof_H 	H 	0.8116	0.7698	0.1341	0.008
Mof_C 	C 	0.9415	0.7278	0.1524	-0.256
Mof_H 	H 	0.0507	0.6998	0.1878	0.105
Mof_C 	C 	0.9426	0.6843	0.0915	0.55
Mof_O 	O 	0.8795	0.6884	0.0511	-0.368
Mof_O 	O 	0.4229	0.5725	0.068	-0.488
Mof_C 	C 	0.4316	0.6458	0.1845	0.211
Mof_H 	H 	0.3792	0.6187	0.1775	-0.02
Mof_C 	C 	0.431	0.6889	0.2387	-0.045
Mof_C 	C 	0.5916	0.7263	0.2068	0.049
Mof_H 	H 	0.6436	0.7537	0.2145	0.016
Mof_C 	C 	0.5882	0.6804	0.1561	-0.24
Mof_H 	H 	0.6404	0.6741	0.1299	0.126
Mof_C 	C 	0.3567	0.6915	0.2831	-0.109
Mof_H 	H 	0.3033	0.6655	0.2754	0.067
Mof_C 	C 	0.3608	0.7304	0.3365	0.083
Mof_H 	H 	0.3116	0.7302	0.3659	0.017
Mof_C 	C 	0.4415	0.7722	0.3476	-0.256
Mof_H 	H 	0.5507	0.8002	0.3122	0.095
Mof_C 	C 	0.4426	0.8157	0.4085	0.522
Mof_O 	O 	0.3795	0.8116	0.4489	-0.328
Mof_O 	O 	0.9229	0.0725	0.568	-0.467
Mof_C 	C 	0.9316	0.1458	0.6845	0.2
Mof_H 	H 	0.8792	0.1187	0.6775	-0.02
Mof_C 	C 	0.931	0.1889	0.7387	-0.042
Mof_C 	C 	0.0916	0.2263	0.7068	0.037
Mof_H 	H 	0.1436	0.2537	0.7145	0.022
Mof_C 	C 	0.0882	0.1804	0.6561	-0.209
Mof_H 	H 	0.1404	0.1741	0.6299	0.121
Mof_C 	C 	0.8567	0.1915	0.7831	-0.093
Mof_H 	H 	0.8033	0.1655	0.7754	0.063
Mof_C 	C 	0.8608	0.2304	0.8365	0.063
Mof_H 	H 	0.8116	0.2302	0.8659	0.033
Mof_C 	C 	0.9415	0.2722	0.8476	-0.21
Mof_H 	H 	0.0507	0.3002	0.8122	0.109
Mof_C 	C 	0.9426	0.3157	0.9085	0.5
Mof_O 	O 	0.8795	0.3116	0.9489	-0.266
Mof_O 	O 	0.5771	0.4275	0.068	-0.488
Mof_C 	C 	0.5684	0.3542	0.1845	0.219
Mof_H 	H 	0.6208	0.3813	0.1775	-0.021
Mof_C 	C 	0.569	0.3111	0.2387	-0.043
Mof_C 	C 	0.4084	0.2737	0.2068	0.05
Mof_H 	H 	0.3564	0.2463	0.2145	0.011
Mof_C 	C 	0.4118	0.3196	0.1561	-0.25
Mof_H 	H 	0.3596	0.3259	0.1299	0.128
Mof_C 	C 	0.6433	0.3085	0.2831	-0.112
Mof_H 	H 	0.6967	0.3345	0.2754	0.069
Mof_C 	C 	0.6392	0.2696	0.3365	0.085
Mof_H 	H 	0.6884	0.2698	0.3659	0.016
Mof_C 	C 	0.5585	0.2278	0.3476	-0.261
Mof_H 	H 	0.4493	0.1998	0.3122	0.085
Mof_C 	C 	0.5574	0.1843	0.4085	0.524
Mof_O 	O 	0.6205	0.1884	0.4489	-0.331
Mof_O 	O 	0.0771	0.9275	0.568	-0.449
Mof_C 	C 	0.0684	0.8542	0.6845	0.198
Mof_H 	H 	0.1208	0.8813	0.6775	-0.009
Mof_C 	C 	0.069	0.8111	0.7387	-0.047
Mof_C 	C 	0.9084	0.7737	0.7068	0.035
Mof_H 	H 	0.8564	0.7463	0.7145	0.024
Mof_C 	C 	0.9118	0.8196	0.6561	-0.219
Mof_H 	H 	0.8596	0.8259	0.6299	0.129
Mof_C 	C 	0.1433	0.8085	0.7831	-0.091
Mof_H 	H 	0.1967	0.8345	0.7754	0.071
Mof_C 	C 	0.1392	0.7696	0.8365	0.066
Mof_H 	H 	0.1884	0.7698	0.8659	0.037
Mof_C 	C 	0.0585	0.7278	0.8476	-0.217
Mof_H 	H 	0.9493	0.6998	0.8122	0.111
Mof_C 	C 	0.0574	0.6843	0.9085	0.488
Mof_O 	O 	0.1205	0.6884	0.9489	-0.261
Mof_Zn	Zn	0.39797	0.5	-0	1.204
Mof_O 	O 	0.2579	0.5	-0	-0.475
Mof_Zn	Zn	0.89797	-4.34922e-33	0.5	1.22
Mof_O 	O 	0.7579	-4.34922e-33	0.5	-0.495
Mof_Zn	Zn	0.60203	0.5	-0	1.204
Mof_O 	O 	0.7421	0.5	-0	-0.474
Mof_Zn	Zn	0.10203	-4.34922e-33	0.5	1.218
Mof_O 	O 	0.2421	-4.34922e-33	0.5	-0.496
Mof_Zn	Zn	0.5	0.0998	0.5	1.233
Mof_Zn	Zn	-0	0.5998	-0	1.212
Mof_Zn	Zn	0.5	0.9002	0.5	1.238
Mof_Zn	Zn	-8.69845e-33	0.4002	-0	1.212
Mof_C 	C 	0.5	0.4093	0.0885	0.426
Mof_C 	C 	0.5	0.3589	0.1436	-0.156
Mof_C 	C 	0.5	0.271	0.2512	-0.029
Mof_C 	C 	0.5	0.2291	0.307	0.091
Mof_O 	O 	0.5	0.1463	0.4162	-0.76
Mof_C 	C 	3.20935e-33	0.9093	0.5885	0.412
Mof_C 	C 	-1.38871e-32	0.8589	0.6436	-0.15
Mof_C 	C 	-2.19987e-32	0.771	0.7512	0.002
Mof_C 	C 	-3.03929e-32	0.7291	0.807	-0.002
Mof_O 	O 	-1.24005e-32	0.6463	0.9162	-0.702
Mof_C 	C 	0.5	0.5907	0.0885	0.426
Mof_C 	C 	0.5	0.6411	0.1436	-0.154
Mof_C 	C 	0.5	0.729	0.2512	-0.017
Mof_C 	C 	0.5	0.7709	0.307	0.073
Mof_O 	O 	0.5	0.8537	0.4162	-0.748
Mof_C 	C 	-5.4891e-33	0.0907	0.5885	0.415
Mof_C 	C 	-5.18862e-33	0.1411	0.6436	-0.16
Mof_C 	C 	-4.60183e-33	0.229	0.7512	0.011
Mof_C 	C 	-4.29753e-33	0.2709	0.807	-0.014
Mof_O 	O 	-1.24005e-32	0.3537	0.9162	-0.7
Mof_C 	C 	0.5	0.4093	0.9115	0.413
Mof_C 	C 	0.5	0.3589	0.8564	-0.13
Mof_C 	C 	0.5	0.271	0.7488	-0.008
Mof_C 	C 	0.5	0.2291	0.693	0.068
Mof_O 	O 	0.5	0.1463	0.5838	-0.755
Mof_C 	C 	-1.51528e-32	0.9093	0.4115	0.411
Mof_C 	C 	-6.75484e-33	0.8589	0.3564	-0.156
Mof_C 	C 	5.70604e-33	0.771	0.2488	-0.019
Mof_C 	C 	-1.19952e-32	0.7291	0.193	0.038
Mof_O 	O 	4.56998e-34	0.6463	0.0838	-0.783
Mof_C 	C 	0.5	0.5907	0.9115	0.413
Mof_C 	C 	0.5	0.6411	0.8564	-0.127
Mof_C 	C 	0.5	0.729	0.7488	0.004
Mof_C 	C 	0.5	0.7709	0.693	0.05
Mof_O 	O 	0.5	0.8537	0.5838	-0.744
Mof_C 	C 	-6.45436e-33	0.0907	0.4115	0.415
Mof_C 	C 	-2.40562e-33	0.1411	0.3564	-0.165
Mof_C 	C 	-2.99241e-33	0.229	0.2488	-0.01
Mof_C 	C 	-3.29671e-33	0.2709	0.193	0.026
Mof_O 	O 	-3.89223e-33	0.3537	0.0838	-0.781
Mof_C 	C 	0.1999	0.4471	-0	0.239
Mof_H 	H 	0.2202	0.4019	-0	-0.06
Mof_N 	N 	0.1109	0.4645	-0	-0.272
Mof_C 	C 	0.6999	0.9471	0.5	0.308
Mof_H 	H 	0.7202	0.9019	0.5	-0.049
Mof_N 	N 	0.6109	0.9645	0.5	-0.246
Mof_C 	C 	0.8001	0.5529	-0	0.24
Mof_H 	H 	0.7798	0.5981	-0	-0.058
Mof_N 	N 	0.8891	0.5355	-0	-0.266
Mof_C 	C 	0.3001	0.0529	0.5	0.25
Mof_H 	H 	0.2798	0.0981	0.5	-0.036
Mof_N 	N 	0.3891	0.0355	0.5	-0.275
Mof_C 	C 	0.8001	0.4471	-0	0.24
Mof_H 	H 	0.7798	0.4019	-0	-0.058
Mof_N 	N 	0.8891	0.4645	-0	-0.267
Mof_C 	C 	0.3001	0.9471	0.5	0.308
Mof_H 	H 	0.2798	0.9019	0.5	-0.05
Mof_N 	N 	0.3891	0.9645	0.5	-0.246
Mof_C 	C 	0.1999	0.5529	-0	0.239
Mof_H 	H 	0.2202	0.5981	-0	-0.059
Mof_N 	N 	0.1109	0.5355	-0	-0.272
Mof_C 	C 	0.6999	0.0529	0.5	0.25
Mof_H 	H 	0.7202	0.0981	0.5	-0.036
Mof_N 	N 	0.6109	0.0355	0.5	-0.275
_end
