data_functionalizedCrystal
_audit_creation_method	'EQeq! by Chris Wilmer'
_symmetry_space_group_name_H-M	'P1'
_symmetry_Int_Tables_number	1
_symmetry_cell_setting	triclinic
loop_
_symmetry_equiv_pos_as_xyz
  x,y,z
_cell_length_a	10.363
_cell_length_b	12.7428
_cell_length_c	12.7428
_cell_angle_alpha	107.822
_cell_angle_beta	93.2049
_cell_angle_gamma	86.7951
loop_
_atom_site_label
_atom_site_type_symbol
_atom_site_fract_x
_atom_site_fract_y
_atom_site_fract_z
_atom_site_charge
Mof_Zn	Zn	0.89971	0.57995	0.97815	1.213
Mof_Zn	Zn	0.60029	0.97815	0.57995	1.217
Mof_Zn	Zn	0.10029	0.42005	0.02185	1.213
Mof_Zn	Zn	0.39971	0.02185	0.42005	1.217
Mof_H 	H 	0.7782	0.3821	0.6477	-0.011
Mof_H 	H 	0.7383	0.2593	0.4759	0.132
Mof_H 	H 	0.0723	0.093	0.5072	0.147
Mof_H 	H 	0.1068	0.2131	0.6817	-0.009
Mof_H 	H 	0.7431	0.1538	0.3064	0.094
Mof_H 	H 	0.7722	0.0293	0.2429	0.102
Mof_H 	H 	0.7349	0.6684	0.8202	-0.021
Mof_H 	H 	0.5816	0.8058	0.8244	0.113
Mof_H 	H 	0.5634	0.8619	0.1479	0.118
Mof_H 	H 	0.7184	0.7235	0.1363	-0.013
Mof_H 	H 	0.4085	0.9321	0.9267	0.085
Mof_H 	H 	0.4087	0.9594	0.0556	0.084
Mof_H 	H 	0.7218	0.6477	0.3821	-0.011
Mof_H 	H 	0.7617	0.4759	0.2593	0.131
Mof_H 	H 	0.4277	0.5072	0.093	0.145
Mof_H 	H 	0.3932	0.6817	0.2131	-0.008
Mof_H 	H 	0.7569	0.3064	0.1538	0.094
Mof_H 	H 	0.7278	0.2429	0.0293	0.102
Mof_H 	H 	0.7651	0.8202	0.6684	-0.018
Mof_H 	H 	0.9184	0.8244	0.8058	0.106
Mof_H 	H 	0.9366	0.1479	0.8619	0.11
Mof_H 	H 	0.7816	0.1363	0.7235	-0.009
Mof_H 	H 	0.0915	0.9267	0.9321	0.082
Mof_H 	H 	0.0913	0.0556	0.9594	0.082
Mof_H 	H 	0.2218	0.6179	0.3523	-0.011
Mof_H 	H 	0.2617	0.7407	0.5241	0.132
Mof_H 	H 	0.9277	0.907	0.4928	0.147
Mof_H 	H 	0.8932	0.7869	0.3183	-0.009
Mof_H 	H 	0.2569	0.8462	0.6936	0.094
Mof_H 	H 	0.2278	0.9707	0.7571	0.102
Mof_H 	H 	0.2651	0.3316	0.1798	-0.021
Mof_H 	H 	0.4184	0.1942	0.1756	0.113
Mof_H 	H 	0.4366	0.1381	0.8521	0.118
Mof_H 	H 	0.2816	0.2765	0.8637	-0.013
Mof_H 	H 	0.5915	0.0679	0.0733	0.085
Mof_H 	H 	0.5913	0.0406	0.9444	0.084
Mof_H 	H 	0.2782	0.3523	0.6179	-0.011
Mof_H 	H 	0.2383	0.5241	0.7407	0.131
Mof_H 	H 	0.5723	0.4928	0.907	0.145
Mof_H 	H 	0.6068	0.3183	0.7869	-0.008
Mof_H 	H 	0.2431	0.6936	0.8462	0.094
Mof_H 	H 	0.2722	0.7571	0.9707	0.102
Mof_H 	H 	0.2349	0.1798	0.3316	-0.018
Mof_H 	H 	0.0816	0.1756	0.1942	0.106
Mof_H 	H 	0.0634	0.8521	0.1381	0.11
Mof_H 	H 	0.2184	0.8637	0.2765	-0.009
Mof_H 	H 	0.9085	0.0733	0.0679	0.082
Mof_H 	H 	0.9087	0.9444	0.0406	0.082
Mof_C 	C 	0.9676	0.388	0.7968	0.419
Mof_C 	C 	0.9463	0.3113	0.6841	-0.218
Mof_C 	C 	0.8368	0.3233	0.6201	0.169
Mof_C 	C 	0.8129	0.2503	0.5169	-0.272
Mof_C 	C 	0.9011	0.1628	0.4744	0.277
Mof_C 	C 	0.0122	0.1502	0.5358	-0.275
Mof_C 	C 	0.0332	0.2231	0.6401	0.173
Mof_C 	C 	0.7654	0.0822	0.3158	-0.19
Mof_C 	C 	0.657	0.0499	0.3741	0.404
Mof_C 	C 	0.7017	0.709	0.8876	0.129
Mof_C 	C 	0.6091	0.7913	0.8895	-0.219
Mof_C 	C 	0.5576	0.8516	0.9872	0.177
Mof_C 	C 	0.5984	0.8245	0.0803	-0.219
Mof_C 	C 	0.6918	0.7413	0.0727	0.134
Mof_C 	C 	0.4634	0.948	0.9934	-0.182
Mof_C 	C 	0.5324	0.7968	0.388	0.426
Mof_C 	C 	0.5537	0.6841	0.3113	-0.215
Mof_C 	C 	0.6632	0.6201	0.3233	0.167
Mof_C 	C 	0.6871	0.5169	0.2503	-0.269
Mof_C 	C 	0.5989	0.4744	0.1628	0.274
Mof_C 	C 	0.4878	0.5358	0.1502	-0.27
Mof_C 	C 	0.4668	0.6401	0.2231	0.167
Mof_C 	C 	0.7346	0.3158	0.0822	-0.189
Mof_C 	C 	0.843	0.3741	0.0499	0.404
Mof_C 	C 	0.7983	0.8876	0.709	0.122
Mof_C 	C 	0.8909	0.8895	0.7913	-0.207
Mof_C 	C 	0.9424	0.9872	0.8516	0.156
Mof_C 	C 	0.9016	0.0803	0.8245	-0.205
Mof_C 	C 	0.8082	0.0727	0.7413	0.122
Mof_C 	C 	0.0366	0.9934	0.948	-0.167
Mof_C 	C 	0.0324	0.612	0.2032	0.419
Mof_C 	C 	0.0537	0.6887	0.3159	-0.218
Mof_C 	C 	0.1632	0.6767	0.3799	0.169
Mof_C 	C 	0.1871	0.7497	0.4831	-0.272
Mof_C 	C 	0.0989	0.8372	0.5256	0.277
Mof_C 	C 	0.9878	0.8498	0.4642	-0.275
Mof_C 	C 	0.9668	0.7769	0.3599	0.173
Mof_C 	C 	0.2346	0.9178	0.6842	-0.19
Mof_C 	C 	0.343	0.9501	0.6259	0.404
Mof_C 	C 	0.2983	0.291	0.1124	0.129
Mof_C 	C 	0.3909	0.2087	0.1105	-0.219
Mof_C 	C 	0.4424	0.1484	0.0128	0.177
Mof_C 	C 	0.4016	0.1755	0.9197	-0.219
Mof_C 	C 	0.3082	0.2587	0.9273	0.134
Mof_C 	C 	0.5366	0.052	0.0066	-0.182
Mof_C 	C 	0.4676	0.2032	0.612	0.426
Mof_C 	C 	0.4463	0.3159	0.6887	-0.215
Mof_C 	C 	0.3368	0.3799	0.6767	0.167
Mof_C 	C 	0.3129	0.4831	0.7497	-0.269
Mof_C 	C 	0.4011	0.5256	0.8372	0.274
Mof_C 	C 	0.5122	0.4642	0.8498	-0.27
Mof_C 	C 	0.5332	0.3599	0.7769	0.167
Mof_C 	C 	0.2654	0.6842	0.9178	-0.189
Mof_C 	C 	0.157	0.6259	0.9501	0.404
Mof_C 	C 	0.2017	0.1124	0.291	0.122
Mof_C 	C 	0.1091	0.1105	0.2087	-0.207
Mof_C 	C 	0.0576	0.0128	0.1484	0.156
Mof_C 	C 	0.0984	0.9197	0.1755	-0.205
Mof_C 	C 	0.1918	0.9273	0.2587	0.122
Mof_C 	C 	0.9634	0.0066	0.052	-0.167
Mof_N 	N 	0.7457	0.68509	0.97831	-0.276
Mof_N 	N 	0.7543	0.97831	0.68509	-0.271
Mof_N 	N 	0.2543	0.31491	0.02169	-0.276
Mof_N 	N 	0.2457	0.02169	0.31491	-0.271
Mof_O 	O 	0.9039	0.47864	0.82264	-0.472
Mof_O 	O 	0.0482	0.35637	0.86033	-0.474
Mof_O 	O 	0.8873	0.08679	0.37283	-0.195
Mof_O 	O 	0.5449	0.05796	0.33284	-0.456
Mof_O 	O 	0.6878	0.01642	0.4543	-0.47
Mof_O 	O 	0.5961	0.82264	0.47864	-0.471
Mof_O 	O 	0.4518	0.86033	0.35637	-0.481
Mof_O 	O 	0.6127	0.37283	0.08679	-0.196
Mof_O 	O 	0.9551	0.33284	0.05796	-0.451
Mof_O 	O 	0.8122	0.4543	0.01642	-0.467
Mof_O 	O 	0.0961	0.52136	0.17736	-0.472
Mof_O 	O 	0.9518	0.64363	0.13967	-0.474
Mof_O 	O 	0.1127	0.91321	0.62717	-0.195
Mof_O 	O 	0.4551	0.94204	0.66716	-0.456
Mof_O 	O 	0.3122	0.98358	0.5457	-0.47
Mof_O 	O 	0.4039	0.17736	0.52136	-0.471
Mof_O 	O 	0.5482	0.13967	0.64363	-0.481
Mof_O 	O 	0.3873	0.62717	0.91321	-0.196
Mof_O 	O 	0.0449	0.66716	0.94204	-0.451
Mof_O 	O 	0.1878	0.5457	0.98358	-0.467
_end
