data_functionalizedCrystal
_audit_creation_method	'EQeq! by Chris Wilmer'
_symmetry_space_group_name_H-M	'P1'
_symmetry_Int_Tables_number	1
_symmetry_cell_setting	triclinic
loop_
_symmetry_equiv_pos_as_xyz
  x,y,z
_cell_length_a	26.2003
_cell_length_b	26.2003
_cell_length_c	9.8014
_cell_angle_alpha	90
_cell_angle_beta	90
_cell_angle_gamma	120
loop_
_atom_site_label
_atom_site_type_symbol
_atom_site_fract_x
_atom_site_fract_y
_atom_site_fract_z
_atom_site_charge
Mof_N 	N 	0.4474	0.0033	0.1378	-0.175
Mof_C 	C 	0.3964	0.8814	0.0104	0.077
Mof_H 	H 	0.3759	0.9019	0.012	-0.025
Mof_C 	C 	0.3652	0.8214	0.0091	-0.153
Mof_H 	H 	0.3242	0.8018	0.0093	0.074
Mof_C 	C 	0.4152	0.0087	0.2101	-0.125
Mof_N 	N 	0.11407	0.33663	0.47113	-0.169
Mof_C 	C 	0.06307	0.21473	0.34373	0.112
Mof_H 	H 	0.04257	0.23523	0.34533	-0.035
Mof_C 	C 	0.03187	0.15473	0.34243	-0.205
Mof_H 	H 	0.99087	0.13513	0.34263	0.106
Mof_C 	C 	0.08187	0.34203	0.54343	-0.109
Mof_N 	N 	0.78073	0.66997	0.80447	-0.184
Mof_C 	C 	0.72973	0.54807	0.67707	0.091
Mof_H 	H 	0.70923	0.56857	0.67867	-0.023
Mof_C 	C 	0.69853	0.48807	0.67577	-0.157
Mof_H 	H 	0.65753	0.46847	0.67597	0.081
Mof_C 	C 	0.74853	0.67537	0.87677	-0.034
Mof_N 	N 	0.9967	0.4441	0.1378	-0.166
Mof_C 	C 	0.1186	0.515	0.0104	0.077
Mof_H 	H 	0.0981	0.474	0.012	-0.03
Mof_C 	C 	0.1786	0.5438	0.0091	-0.154
Mof_H 	H 	0.1982	0.5224	0.0093	0.074
Mof_C 	C 	0.9913	0.4065	0.2101	-0.117
Mof_N 	N 	0.66337	0.77743	0.47113	-0.169
Mof_C 	C 	0.78527	0.84833	0.34373	0.079
Mof_H 	H 	0.76477	0.80733	0.34533	-0.02
Mof_C 	C 	0.84527	0.87713	0.34243	-0.139
Mof_H 	H 	0.86487	0.85573	0.34263	0.074
Mof_C 	C 	0.65797	0.73983	0.54343	-0.107
Mof_N 	N 	0.33003	0.11077	0.80447	-0.186
Mof_C 	C 	0.45193	0.18167	0.67707	0.091
Mof_H 	H 	0.43143	0.14067	0.67867	-0.025
Mof_C 	C 	0.51193	0.21047	0.67577	-0.157
Mof_H 	H 	0.53153	0.18907	0.67597	0.08
Mof_C 	C 	0.32463	0.07317	0.87677	-0.031
Mof_N 	N 	0.5559	0.5526	0.1378	-0.175
Mof_C 	C 	0.485	0.6036	0.0104	0.078
Mof_H 	H 	0.526	0.6241	0.012	-0.029
Mof_C 	C 	0.4562	0.6348	0.0091	-0.155
Mof_H 	H 	0.4776	0.6758	0.0093	0.075
Mof_C 	C 	0.5935	0.5848	0.2101	-0.121
Mof_N 	N 	0.22257	0.88593	0.47113	-0.168
Mof_C 	C 	0.15167	0.93693	0.34373	0.072
Mof_H 	H 	0.19267	0.95743	0.34533	-0.012
Mof_C 	C 	0.12287	0.96813	0.34243	-0.118
Mof_H 	H 	0.14427	0.00913	0.34263	0.055
Mof_C 	C 	0.26017	0.91813	0.54343	-0.105
Mof_N 	N 	0.88923	0.21927	0.80447	-0.186
Mof_C 	C 	0.81833	0.27027	0.67707	0.091
Mof_H 	H 	0.85933	0.29077	0.67867	-0.021
Mof_C 	C 	0.78953	0.30147	0.67577	-0.156
Mof_H 	H 	0.81093	0.34247	0.67597	0.082
Mof_C 	C 	0.92683	0.25147	0.87677	-0.018
Mof_N 	N 	0.0033	0.4474	0.8622	-0.138
Mof_C 	C 	0.8814	0.3964	0.9896	0.094
Mof_H 	H 	0.9019	0.3759	0.988	0.001
Mof_C 	C 	0.8214	0.3652	0.9909	-0.144
Mof_H 	H 	0.8018	0.3242	0.9907	0.09
Mof_C 	C 	0.0087	0.4152	0.7899	-0.103
Mof_N 	N 	0.66997	0.78073	0.19553	-0.18
Mof_C 	C 	0.54807	0.72973	0.32293	0.093
Mof_H 	H 	0.56857	0.70923	0.32133	-0.023
Mof_C 	C 	0.48807	0.69853	0.32423	-0.154
Mof_H 	H 	0.46847	0.65753	0.32403	0.086
Mof_C 	C 	0.67537	0.74853	0.12323	-0.096
Mof_N 	N 	0.33663	0.11407	0.52887	-0.176
Mof_C 	C 	0.21473	0.06307	0.65627	0.122
Mof_H 	H 	0.23523	0.04257	0.65467	-0.033
Mof_C 	C 	0.15473	0.03187	0.65757	-0.204
Mof_H 	H 	0.13513	0.99087	0.65737	0.118
Mof_C 	C 	0.34203	0.08187	0.45657	-0.116
Mof_N 	N 	0.4441	0.9967	0.8622	-0.129
Mof_C 	C 	0.515	0.1186	0.9896	0.093
Mof_H 	H 	0.474	0.0981	0.988	-0.002
Mof_C 	C 	0.5438	0.1786	0.9909	-0.145
Mof_H 	H 	0.5224	0.1982	0.9907	0.09
Mof_C 	C 	0.4065	0.9913	0.7899	-0.095
Mof_N 	N 	0.11077	0.33003	0.19553	-0.182
Mof_C 	C 	0.18167	0.45193	0.32293	0.094
Mof_H 	H 	0.14067	0.43143	0.32133	-0.025
Mof_C 	C 	0.21047	0.51193	0.32423	-0.155
Mof_H 	H 	0.18907	0.53153	0.32403	0.086
Mof_C 	C 	0.07317	0.32463	0.12323	-0.095
Mof_N 	N 	0.77743	0.66337	0.52887	-0.175
Mof_C 	C 	0.84833	0.78527	0.65627	0.089
Mof_H 	H 	0.80733	0.76477	0.65467	-0.017
Mof_C 	C 	0.87713	0.84527	0.65757	-0.138
Mof_H 	H 	0.85573	0.86487	0.65737	0.086
Mof_C 	C 	0.73983	0.65797	0.45657	-0.114
Mof_N 	N 	0.5526	0.5559	0.8622	-0.137
Mof_C 	C 	0.6036	0.485	0.9896	0.094
Mof_H 	H 	0.6241	0.526	0.988	-0.002
Mof_C 	C 	0.6348	0.4562	0.9909	-0.146
Mof_H 	H 	0.6758	0.4776	0.9907	0.09
Mof_C 	C 	0.5848	0.5935	0.7899	-0.099
Mof_N 	N 	0.21927	0.88923	0.19553	-0.183
Mof_C 	C 	0.27027	0.81833	0.32293	0.093
Mof_H 	H 	0.29077	0.85933	0.32133	-0.021
Mof_C 	C 	0.30147	0.78953	0.32423	-0.154
Mof_H 	H 	0.34247	0.81093	0.32403	0.087
Mof_C 	C 	0.25147	0.92683	0.12323	-0.078
Mof_N 	N 	0.88593	0.22257	0.52887	-0.174
Mof_C 	C 	0.93693	0.15167	0.65627	0.083
Mof_H 	H 	0.95743	0.19267	0.65467	-0.01
Mof_C 	C 	0.96813	0.12287	0.65757	-0.12
Mof_H 	H 	0.00913	0.14427	0.65737	0.069
Mof_C 	C 	0.91813	0.26017	0.45657	-0.112
Mof_N 	N 	0.5526	0.9967	0.8622	-0.129
Mof_C 	C 	0.6036	0.1186	0.9896	0.093
Mof_H 	H 	0.6241	0.0981	0.988	-0.002
Mof_C 	C 	0.6348	0.1786	0.9909	-0.145
Mof_H 	H 	0.6758	0.1982	0.9907	0.09
Mof_C 	C 	0.5848	0.9913	0.7899	-0.095
Mof_N 	N 	0.21927	0.33003	0.19553	-0.18
Mof_C 	C 	0.27027	0.45193	0.32293	0.093
Mof_H 	H 	0.29077	0.43143	0.32133	-0.023
Mof_C 	C 	0.30147	0.51193	0.32423	-0.154
Mof_H 	H 	0.34247	0.53153	0.32403	0.086
Mof_C 	C 	0.25147	0.32463	0.12323	-0.097
Mof_N 	N 	0.88593	0.66337	0.52887	-0.174
Mof_C 	C 	0.93693	0.78527	0.65627	0.075
Mof_H 	H 	0.95743	0.76477	0.65467	-0.007
Mof_C 	C 	0.96813	0.84527	0.65757	-0.105
Mof_H 	H 	0.00913	0.86487	0.65737	0.064
Mof_C 	C 	0.91813	0.65797	0.45657	-0.112
Mof_N 	N 	0.0033	0.5559	0.8622	-0.138
Mof_C 	C 	0.8814	0.485	0.9896	0.094
Mof_H 	H 	0.9019	0.526	0.988	0.001
Mof_C 	C 	0.8214	0.4562	0.9909	-0.144
Mof_H 	H 	0.8018	0.4776	0.9907	0.09
Mof_C 	C 	0.0087	0.5935	0.7899	-0.103
Mof_N 	N 	0.66997	0.88923	0.19553	-0.183
Mof_C 	C 	0.54807	0.81833	0.32293	0.093
Mof_H 	H 	0.56857	0.85933	0.32133	-0.021
Mof_C 	C 	0.48807	0.78953	0.32423	-0.154
Mof_H 	H 	0.46847	0.81093	0.32403	0.087
Mof_C 	C 	0.67537	0.92683	0.12323	-0.079
Mof_N 	N 	0.33663	0.22257	0.52887	-0.175
Mof_C 	C 	0.21473	0.15167	0.65627	0.107
Mof_H 	H 	0.23523	0.19267	0.65467	-0.023
Mof_C 	C 	0.15473	0.12287	0.65757	-0.169
Mof_H 	H 	0.13513	0.14427	0.65737	0.095
Mof_C 	C 	0.34203	0.26017	0.45657	-0.114
Mof_N 	N 	0.4441	0.4474	0.8622	-0.137
Mof_C 	C 	0.515	0.3964	0.9896	0.094
Mof_H 	H 	0.474	0.3759	0.988	-0.002
Mof_C 	C 	0.5438	0.3652	0.9909	-0.145
Mof_H 	H 	0.5224	0.3242	0.9907	0.09
Mof_C 	C 	0.4065	0.4152	0.7899	-0.099
Mof_N 	N 	0.11077	0.78073	0.19553	-0.182
Mof_C 	C 	0.18167	0.72973	0.32293	0.094
Mof_H 	H 	0.14067	0.70923	0.32133	-0.025
Mof_C 	C 	0.21047	0.69853	0.32423	-0.155
Mof_H 	H 	0.18907	0.65753	0.32403	0.086
Mof_C 	C 	0.07317	0.74853	0.12323	-0.095
Mof_N 	N 	0.77743	0.11407	0.52887	-0.176
Mof_C 	C 	0.84833	0.06307	0.65627	0.113
Mof_H 	H 	0.80733	0.04257	0.65467	-0.029
Mof_C 	C 	0.87713	0.03187	0.65757	-0.188
Mof_H 	H 	0.85573	0.99087	0.65737	0.113
Mof_C 	C 	0.73983	0.08187	0.45657	-0.116
Mof_N 	N 	0.9967	0.5526	0.1378	-0.166
Mof_C 	C 	0.1186	0.6036	0.0104	0.077
Mof_H 	H 	0.0981	0.6241	0.012	-0.03
Mof_C 	C 	0.1786	0.6348	0.0091	-0.154
Mof_H 	H 	0.1982	0.6758	0.0093	0.075
Mof_C 	C 	0.9913	0.5848	0.2101	-0.117
Mof_N 	N 	0.66337	0.88593	0.47113	-0.168
Mof_C 	C 	0.78527	0.93693	0.34373	0.063
Mof_H 	H 	0.76477	0.95743	0.34533	-0.009
Mof_C 	C 	0.84527	0.96813	0.34243	-0.103
Mof_H 	H 	0.86487	0.00913	0.34263	0.051
Mof_C 	C 	0.65797	0.91813	0.54343	-0.105
Mof_N 	N 	0.33003	0.21927	0.80447	-0.184
Mof_C 	C 	0.45193	0.27027	0.67707	0.091
Mof_H 	H 	0.43143	0.29077	0.67867	-0.023
Mof_C 	C 	0.51193	0.30147	0.67577	-0.157
Mof_H 	H 	0.53153	0.34247	0.67597	0.081
Mof_C 	C 	0.32463	0.25147	0.87677	-0.034
Mof_N 	N 	0.5559	0.0033	0.1378	-0.176
Mof_C 	C 	0.485	0.8814	0.0104	0.077
Mof_H 	H 	0.526	0.9019	0.012	-0.025
Mof_C 	C 	0.4562	0.8214	0.0091	-0.153
Mof_H 	H 	0.4776	0.8018	0.0093	0.074
Mof_C 	C 	0.5935	0.0087	0.2101	-0.125
Mof_N 	N 	0.22257	0.33663	0.47113	-0.169
Mof_C 	C 	0.15167	0.21473	0.34373	0.097
Mof_H 	H 	0.19267	0.23523	0.34533	-0.026
Mof_C 	C 	0.12287	0.15473	0.34243	-0.171
Mof_H 	H 	0.14427	0.13513	0.34263	0.084
Mof_C 	C 	0.26017	0.34203	0.54343	-0.107
Mof_N 	N 	0.88923	0.66997	0.80447	-0.186
Mof_C 	C 	0.81833	0.54807	0.67707	0.09
Mof_H 	H 	0.85933	0.56857	0.67867	-0.021
Mof_C 	C 	0.78953	0.48807	0.67577	-0.156
Mof_H 	H 	0.81093	0.46847	0.67597	0.082
Mof_C 	C 	0.92683	0.67537	0.87677	-0.019
Mof_N 	N 	0.4474	0.4441	0.1378	-0.175
Mof_C 	C 	0.3964	0.515	0.0104	0.078
Mof_H 	H 	0.3759	0.474	0.012	-0.029
Mof_C 	C 	0.3652	0.5438	0.0091	-0.155
Mof_H 	H 	0.3242	0.5224	0.0093	0.075
Mof_C 	C 	0.4152	0.4065	0.2101	-0.121
Mof_N 	N 	0.11407	0.77743	0.47113	-0.17
Mof_C 	C 	0.06307	0.84833	0.34373	0.103
Mof_H 	H 	0.04257	0.80733	0.34533	-0.032
Mof_C 	C 	0.03187	0.87713	0.34243	-0.188
Mof_H 	H 	0.99087	0.85573	0.34263	0.101
Mof_C 	C 	0.08187	0.73983	0.54343	-0.109
Mof_N 	N 	0.78073	0.11077	0.80447	-0.185
Mof_C 	C 	0.72973	0.18167	0.67707	0.091
Mof_H 	H 	0.70923	0.14067	0.67867	-0.025
Mof_C 	C 	0.69853	0.21047	0.67577	-0.157
Mof_H 	H 	0.65753	0.18907	0.67597	0.08
Mof_C 	C 	0.74853	0.07317	0.87677	-0.031
Mof_N 	N 	0.4563	0.9126	0.0095	-0.203
Mof_C 	C 	0.3947	0.7894	0.0073	0.058
Mof_C 	C 	0.3621	0.7242	0.0047	0.089
Mof_N 	N 	0.12297	0.24593	0.34283	-0.217
Mof_C 	C 	0.06137	0.12273	0.34063	0.085
Mof_C 	C 	0.02877	0.05753	0.33803	0.067
Mof_N 	N 	0.78963	0.57927	0.67617	-0.211
Mof_C 	C 	0.72803	0.45607	0.67397	0.065
Mof_C 	C 	0.69543	0.39087	0.67137	0.09
Mof_N 	N 	0.0874	0.5437	0.0095	-0.209
Mof_C 	C 	0.2106	0.6053	0.0073	0.058
Mof_C 	C 	0.2758	0.6379	0.0047	0.089
Mof_N 	N 	0.75407	0.87703	0.34283	-0.204
Mof_C 	C 	0.87727	0.93863	0.34063	0.04
Mof_C 	C 	0.94247	0.97123	0.33803	0.115
Mof_N 	N 	0.42073	0.21037	0.67617	-0.212
Mof_C 	C 	0.54393	0.27197	0.67397	0.065
Mof_C 	C 	0.60913	0.30457	0.67137	0.09
Mof_N 	N 	0.4563	0.5437	0.0095	-0.21
Mof_C 	C 	0.3947	0.6053	0.0073	0.058
Mof_C 	C 	0.3621	0.6379	0.0047	0.089
Mof_N 	N 	0.12297	0.87703	0.34283	-0.21
Mof_C 	C 	0.06137	0.93863	0.34063	0.062
Mof_C 	C 	0.02877	0.97123	0.33803	0.092
Mof_N 	N 	0.78963	0.21037	0.67617	-0.211
Mof_C 	C 	0.72803	0.27197	0.67397	0.065
Mof_C 	C 	0.69543	0.30457	0.67137	0.09
Mof_N 	N 	0.9126	0.4563	0.9905	-0.176
Mof_C 	C 	0.7894	0.3947	0.9927	0.071
Mof_C 	C 	0.7242	0.3621	0.9953	0.104
Mof_N 	N 	0.57927	0.78963	0.32383	-0.211
Mof_C 	C 	0.45607	0.72803	0.32603	0.072
Mof_C 	C 	0.39087	0.69543	0.32863	0.1
Mof_N 	N 	0.24593	0.12297	0.65717	-0.217
Mof_C 	C 	0.12273	0.06137	0.65937	0.097
Mof_C 	C 	0.05753	0.02877	0.66197	0.078
Mof_N 	N 	0.5437	0.0874	0.9905	-0.181
Mof_C 	C 	0.6053	0.2106	0.9927	0.071
Mof_C 	C 	0.6379	0.2758	0.9953	0.104
Mof_N 	N 	0.21037	0.42073	0.32383	-0.212
Mof_C 	C 	0.27197	0.54393	0.32603	0.072
Mof_C 	C 	0.30457	0.60913	0.32863	0.1
Mof_N 	N 	0.87703	0.75407	0.65717	-0.205
Mof_C 	C 	0.93863	0.87727	0.65937	0.053
Mof_C 	C 	0.97123	0.94247	0.66197	0.125
Mof_N 	N 	0.5437	0.4563	0.9905	-0.181
Mof_C 	C 	0.6053	0.3947	0.9927	0.072
Mof_C 	C 	0.6379	0.3621	0.9953	0.104
Mof_N 	N 	0.21037	0.78963	0.32383	-0.212
Mof_C 	C 	0.27197	0.72803	0.32603	0.072
Mof_C 	C 	0.30457	0.69543	0.32863	0.1
Mof_N 	N 	0.87703	0.12297	0.65717	-0.211
Mof_C 	C 	0.93863	0.06137	0.65937	0.075
Mof_C 	C 	0.97123	0.02877	0.66197	0.101
Mof_Ag	Ag	0.3694	0.03606	0.33333	0.371
Mof_Ag	Ag	0.96394	0.33333	0.33333	0.404
Mof_Ag	Ag	0.66667	0.6306	0.33333	0.385
Mof_Ag	Ag	0.03606	0.3694	0.66667	0.436
Mof_Ag	Ag	0.70273	0.70273	-0	0.266
Mof_Ag	Ag	0.33333	0.96394	0.66667	0.469
Mof_Ag	Ag	1.9511e-17	0.29727	-0	0.235
Mof_Ag	Ag	0.6306	0.66667	0.66667	0.449
Mof_Ag	Ag	0.29727	0	-0	0.232
Mof_Ag	Ag	0.6306	0.96394	0.66667	0.469
Mof_Ag	Ag	0.29727	0.29727	-0	0.262
Mof_Ag	Ag	0.03606	0.66667	0.66667	0.436
Mof_Ag	Ag	0.70273	0	-0	0.234
Mof_Ag	Ag	0.3694	0.33333	0.33333	0.385
Mof_Ag	Ag	0.33333	0.3694	0.66667	0.449
Mof_Ag	Ag	-0	0.70273	-0	0.238
Mof_Ag	Ag	0.96394	0.6306	0.33333	0.404
Mof_Ag	Ag	0.66667	0.03606	0.33333	0.371
Mof_Fe	Fe	0.5	0	-0	0.592
Mof_Fe	Fe	0.16667	0.33333	0.33333	0.724
Mof_Fe	Fe	0.83333	0.66667	0.66667	0.733
Mof_Fe	Fe	3.90219e-17	0.5	-0	0.594
Mof_Fe	Fe	0.66667	0.83333	0.33333	0.725
Mof_Fe	Fe	0.33333	0.16667	0.66667	0.732
Mof_Fe	Fe	0.5	0.5	-0	0.615
Mof_Fe	Fe	0.16667	0.83333	0.33333	0.725
Mof_Fe	Fe	0.83333	0.16667	0.66667	0.733
Mof_N 	N 	0.3937	0.69685	0.0056	-0.143
Mof_N 	N 	0.06037	0.03018	0.33893	-0.147
Mof_N 	N 	0.72703	0.36352	0.67227	-0.141
Mof_N 	N 	0.30315	0.69685	0.0056	-0.143
Mof_N 	N 	0.96982	0.03018	0.33893	-0.142
Mof_N 	N 	0.63648	0.36352	0.67227	-0.141
Mof_N 	N 	0.30315	0.6063	0.0056	-0.143
Mof_N 	N 	0.96982	0.93963	0.33893	-0.137
Mof_N 	N 	0.63648	0.27297	0.67227	-0.141
Mof_N 	N 	0.69685	0.3937	0.9944	-0.135
Mof_N 	N 	0.36352	0.72703	0.32773	-0.136
Mof_N 	N 	0.03018	0.06037	0.66107	-0.14
Mof_N 	N 	0.69685	0.30315	0.9944	-0.135
Mof_N 	N 	0.36352	0.63648	0.32773	-0.137
Mof_N 	N 	0.03018	0.96982	0.66107	-0.135
Mof_N 	N 	0.6063	0.30315	0.9944	-0.135
Mof_N 	N 	0.27297	0.63648	0.32773	-0.137
Mof_N 	N 	0.93963	0.96982	0.66107	-0.13
_end
