data_functionalizedCrystal
_audit_creation_method	'EQeq! by Chris Wilmer'
_symmetry_space_group_name_H-M	'P1'
_symmetry_Int_Tables_number	1
_symmetry_cell_setting	triclinic
loop_
_symmetry_equiv_pos_as_xyz
  x,y,z
_cell_length_a	13.4105
_cell_length_b	13.4105
_cell_length_c	14.5808
_cell_angle_alpha	90
_cell_angle_beta	90
_cell_angle_gamma	120
loop_
_atom_site_label
_atom_site_type_symbol
_atom_site_fract_x
_atom_site_fract_y
_atom_site_fract_z
_atom_site_charge
Mof_Sm	Sm	0.33333	0.66666	0.66786	2.53
Mof_Sm	Sm	0.66667	0.33334	0.83214	2.531
Mof_Sm	Sm	0.66667	0.33334	0.33214	2.522
Mof_Sm	Sm	0.33333	0.66666	0.16786	2.521
Mof_Cu	Cu	0.5	0	0.5	0.899
Mof_Cu	Cu	0.5	0.5	0.5	0.928
Mof_Cu	Cu	-1.65139e-17	0.5	0.5	0.897
Mof_Cu	Cu	0.5	0	-0	0.872
Mof_Cu	Cu	-0	0.5	-0	0.87
Mof_Cu	Cu	0.5	0.5	-0	0.9
Mof_H 	H 	0.3512	0.0237	0.4222	0.034
Mof_H 	H 	0.181	0.862	0.4791	0.123
Mof_H 	H 	0.2544	0.9601	0.5498	0.144
Mof_H 	H 	0.3148	0.9167	0.308	0.16
Mof_H 	H 	0.2679	0.8084	0.3719	0.155
Mof_H 	H 	0.6725	0.6488	0.4222	0.098
Mof_H 	H 	0.681	0.819	0.4791	0.142
Mof_H 	H 	0.7057	0.7456	0.5498	0.136
Mof_H 	H 	0.6019	0.6852	0.308	0.15
Mof_H 	H 	0.5405	0.7321	0.3719	0.161
Mof_H 	H 	0.9763	0.3275	0.4222	0.154
Mof_H 	H 	0.138	0.319	0.4791	0.104
Mof_H 	H 	0.0399	0.2943	0.5498	0.086
Mof_H 	H 	0.0833	0.3981	0.308	0.117
Mof_H 	H 	0.1916	0.4595	0.3719	0.15
Mof_H 	H 	0.3275	0.9763	0.0778	0.151
Mof_H 	H 	0.319	0.138	0.0209	-0.001
Mof_H 	H 	0.2943	0.0399	0.9502	0.038
Mof_H 	H 	0.3981	0.0833	0.192	0.114
Mof_H 	H 	0.4595	0.1916	0.1281	0.137
Mof_H 	H 	0.0237	0.3512	0.0778	0.029
Mof_H 	H 	0.862	0.181	0.0209	0.024
Mof_H 	H 	0.9601	0.2544	0.9502	0.098
Mof_H 	H 	0.9167	0.3148	0.192	0.158
Mof_H 	H 	0.8084	0.2679	0.1281	0.143
Mof_H 	H 	0.6488	0.6725	0.0778	0.096
Mof_H 	H 	0.819	0.681	0.0209	0.043
Mof_H 	H 	0.7456	0.7057	0.9502	0.089
Mof_H 	H 	0.6852	0.6019	0.192	0.147
Mof_H 	H 	0.7321	0.5405	0.1281	0.149
Mof_H 	H 	0.6488	0.9763	0.5778	0.154
Mof_H 	H 	0.819	0.138	0.5209	0.124
Mof_H 	H 	0.7456	0.0399	0.4502	0.1
Mof_H 	H 	0.6852	0.0833	0.692	0.126
Mof_H 	H 	0.7321	0.1916	0.6281	0.156
Mof_H 	H 	0.3275	0.3512	0.5778	0.091
Mof_H 	H 	0.319	0.181	0.5209	0.105
Mof_H 	H 	0.2943	0.2544	0.4502	0.108
Mof_H 	H 	0.3981	0.3148	0.692	0.137
Mof_H 	H 	0.4595	0.2679	0.6281	0.151
Mof_H 	H 	0.0237	0.6725	0.5778	0.035
Mof_H 	H 	0.862	0.681	0.5209	0.142
Mof_H 	H 	0.9601	0.7057	0.4502	0.158
Mof_H 	H 	0.9167	0.6019	0.692	0.168
Mof_H 	H 	0.8084	0.5405	0.6281	0.161
Mof_H 	H 	0.6725	0.0237	0.9222	0.043
Mof_H 	H 	0.681	0.862	0.9791	0.239
Mof_H 	H 	0.7057	0.9601	0.0498	0.203
Mof_H 	H 	0.6019	0.9167	0.808	0.169
Mof_H 	H 	0.5405	0.8084	0.8719	0.173
Mof_H 	H 	0.9763	0.6488	0.9222	0.158
Mof_H 	H 	0.138	0.819	0.9791	0.222
Mof_H 	H 	0.0399	0.7456	0.0498	0.146
Mof_H 	H 	0.0833	0.6852	0.808	0.127
Mof_H 	H 	0.1916	0.7321	0.8719	0.168
Mof_H 	H 	0.3512	0.3275	0.9222	0.093
Mof_H 	H 	0.181	0.319	0.9791	0.209
Mof_H 	H 	0.2544	0.2943	0.0498	0.157
Mof_H 	H 	0.3148	0.3981	0.808	0.139
Mof_H 	H 	0.2679	0.4595	0.8719	0.164
Mof_C 	C 	0.2709	0.8168	0.5681	0.403
Mof_C 	C 	0.2546	0.9019	0.5103	-0.306
Mof_C 	C 	0.3327	0.8848	0.3611	-0.393
Mof_C 	C 	0.4375	0.8757	0.3408	0.517
Mof_C 	C 	0.5459	0.7291	0.5681	0.4
Mof_C 	C 	0.6473	0.7454	0.5103	-0.31
Mof_C 	C 	0.5521	0.6673	0.3611	-0.393
Mof_C 	C 	0.4382	0.5625	0.3408	0.514
Mof_C 	C 	0.1832	0.4541	0.5681	0.382
Mof_C 	C 	0.0981	0.3527	0.5103	-0.274
Mof_C 	C 	0.1152	0.4479	0.3611	-0.375
Mof_C 	C 	0.1243	0.5618	0.3408	0.502
Mof_C 	C 	0.4541	0.1832	0.9319	0.332
Mof_C 	C 	0.3527	0.0981	0.9897	-0.065
Mof_C 	C 	0.4479	0.1152	0.1389	-0.365
Mof_C 	C 	0.5618	0.1243	0.1592	0.495
Mof_C 	C 	0.8168	0.2709	0.9319	0.356
Mof_C 	C 	0.9019	0.2546	0.9897	-0.108
Mof_C 	C 	0.8848	0.3327	0.1389	-0.383
Mof_C 	C 	0.8757	0.4375	0.1592	0.51
Mof_C 	C 	0.7291	0.5459	0.9319	0.353
Mof_C 	C 	0.7454	0.6473	0.9897	-0.112
Mof_C 	C 	0.6673	0.5521	0.1389	-0.384
Mof_C 	C 	0.5625	0.4382	0.1592	0.507
Mof_C 	C 	0.7291	0.1832	0.4319	0.387
Mof_C 	C 	0.7454	0.0981	0.4897	-0.287
Mof_C 	C 	0.6673	0.1152	0.6389	-0.381
Mof_C 	C 	0.5625	0.1243	0.6592	0.506
Mof_C 	C 	0.4541	0.2709	0.4319	0.39
Mof_C 	C 	0.3527	0.2546	0.4897	-0.286
Mof_C 	C 	0.4479	0.3327	0.6389	-0.385
Mof_C 	C 	0.5618	0.4375	0.6592	0.511
Mof_C 	C 	0.8168	0.5459	0.4319	0.408
Mof_C 	C 	0.9019	0.6473	0.4897	-0.319
Mof_C 	C 	0.8848	0.5521	0.6389	-0.398
Mof_C 	C 	0.8757	0.4382	0.6592	0.52
Mof_C 	C 	0.5459	0.8168	0.0681	0.454
Mof_C 	C 	0.6473	0.9019	0.0103	-0.511
Mof_C 	C 	0.5521	0.8848	0.8611	-0.403
Mof_C 	C 	0.4382	0.8757	0.8408	0.526
Mof_C 	C 	0.1832	0.7291	0.0681	0.434
Mof_C 	C 	0.0981	0.7454	0.0103	-0.484
Mof_C 	C 	0.1152	0.6673	0.8611	-0.386
Mof_C 	C 	0.1243	0.5625	0.8408	0.511
Mof_C 	C 	0.2709	0.4541	0.0681	0.439
Mof_C 	C 	0.2546	0.3527	0.0103	-0.492
Mof_C 	C 	0.3327	0.4479	0.8611	-0.391
Mof_C 	C 	0.4375	0.5618	0.8408	0.517
Mof_N 	N 	0.3485	0.9581	0.4418	-0.099
Mof_N 	N 	0.6096	0.6515	0.4418	-0.154
Mof_N 	N 	0.0419	0.3904	0.4418	-0.214
Mof_N 	N 	0.3904	0.0419	0.0582	-0.261
Mof_N 	N 	0.9581	0.3485	0.0582	-0.143
Mof_N 	N 	0.6515	0.6096	0.0582	-0.202
Mof_N 	N 	0.6515	0.0419	0.5582	-0.208
Mof_N 	N 	0.3904	0.3485	0.5582	-0.159
Mof_N 	N 	0.9581	0.6096	0.5582	-0.093
Mof_N 	N 	0.6096	0.9581	0.9418	-0.046
Mof_N 	N 	0.0419	0.6515	0.9418	-0.156
Mof_N 	N 	0.3485	0.3904	0.9418	-0.104
Mof_O 	O 	0.3623	0.8131	0.557	-0.551
Mof_O 	O 	0.1965	0.7553	0.6261	-0.434
Mof_O 	O 	0.5244	0.9265	0.3929	-0.407
Mof_O 	O 	0.4354	0.8186	0.2729	-0.571
Mof_O 	O 	0.4508	0.6377	0.557	-0.56
Mof_O 	O 	0.5588	0.8035	0.6261	-0.421
Mof_O 	O 	0.4021	0.4756	0.3929	-0.442
Mof_O 	O 	0.3832	0.5646	0.2729	-0.581
Mof_O 	O 	0.1869	0.5492	0.557	-0.562
Mof_O 	O 	0.2447	0.4412	0.6261	-0.433
Mof_O 	O 	0.0735	0.5979	0.3929	-0.46
Mof_O 	O 	0.1814	0.6168	0.2729	-0.585
Mof_O 	O 	0.5492	0.1869	0.943	-0.527
Mof_O 	O 	0.4412	0.2447	0.8739	-0.41
Mof_O 	O 	0.5979	0.0735	0.1071	-0.467
Mof_O 	O 	0.6168	0.1814	0.2271	-0.585
Mof_O 	O 	0.8131	0.3623	0.943	-0.518
Mof_O 	O 	0.7553	0.1965	0.8739	-0.412
Mof_O 	O 	0.9265	0.5244	0.1071	-0.413
Mof_O 	O 	0.8186	0.4354	0.2271	-0.572
Mof_O 	O 	0.6377	0.4508	0.943	-0.527
Mof_O 	O 	0.8035	0.5588	0.8739	-0.399
Mof_O 	O 	0.4756	0.4021	0.1071	-0.45
Mof_O 	O 	0.5646	0.3832	0.2271	-0.582
Mof_O 	O 	0.6377	0.1869	0.443	-0.561
Mof_O 	O 	0.8035	0.2447	0.3739	-0.424
Mof_O 	O 	0.4756	0.0735	0.6071	-0.461
Mof_O 	O 	0.5646	0.1814	0.7271	-0.588
Mof_O 	O 	0.5492	0.3623	0.443	-0.558
Mof_O 	O 	0.4412	0.1965	0.3739	-0.437
Mof_O 	O 	0.5979	0.5244	0.6071	-0.437
Mof_O 	O 	0.6168	0.4354	0.7271	-0.58
Mof_O 	O 	0.8131	0.4508	0.443	-0.551
Mof_O 	O 	0.7553	0.5588	0.3739	-0.426
Mof_O 	O 	0.9265	0.4021	0.6071	-0.407
Mof_O 	O 	0.8186	0.3832	0.7271	-0.575
Mof_O 	O 	0.4508	0.8131	0.057	-0.578
Mof_O 	O 	0.5588	0.7553	0.1261	-0.446
Mof_O 	O 	0.4021	0.9265	0.8929	-0.392
Mof_O 	O 	0.3832	0.8186	0.7729	-0.574
Mof_O 	O 	0.1869	0.6377	0.057	-0.589
Mof_O 	O 	0.2447	0.8035	0.1261	-0.445
Mof_O 	O 	0.0735	0.4756	0.8929	-0.442
Mof_O 	O 	0.1814	0.5646	0.7729	-0.587
Mof_O 	O 	0.3623	0.5492	0.057	-0.587
Mof_O 	O 	0.1965	0.4412	0.1261	-0.459
Mof_O 	O 	0.5244	0.5979	0.8929	-0.418
Mof_O 	O 	0.4354	0.6168	0.7729	-0.578
_end
