data_functionalizedCrystal
_audit_creation_method	'EQeq! by Chris Wilmer'
_symmetry_space_group_name_H-M	'P1'
_symmetry_Int_Tables_number	1
_symmetry_cell_setting	triclinic
loop_
_symmetry_equiv_pos_as_xyz
  x,y,z
_cell_length_a	11.9996
_cell_length_b	21.0665
_cell_length_c	15.6477
_cell_angle_alpha	90
_cell_angle_beta	109.555
_cell_angle_gamma	90
loop_
_atom_site_label
_atom_site_type_symbol
_atom_site_fract_x
_atom_site_fract_y
_atom_site_fract_z
_atom_site_charge
Mof_Cu	Cu	0.75765	0.08181	0.16413	0.903
Mof_Br	Br	0.66892	0.10828	0.98713	-0.301
Mof_Br	Br	0.7278	0.178	0.9249	-0.146
Mof_N 	N 	0.6286	0.03314	0.1889	-0.189
Mof_N 	N 	0.9105	0.1283	0.183	-0.183
Mof_N 	N 	0.0105	0.0954	0.1859	-0.179
Mof_N 	N 	0.0518	0.1948	0.2067	-0.097
Mof_N 	N 	0.6945	0.1611	0.2045	-0.185
Mof_N 	N 	0.7269	0.172	0.297	-0.105
Mof_N 	N 	0.1163	0.2511	0.2247	-0.101
Mof_N 	N 	0.8811	0.0447	0.3135	-0.147
Mof_N 	N 	0.9832	0.0255	0.4535	-0.09
Mof_C 	C 	0.5358	0.0521	0.207	0.112
Mof_H 	H 	0.5142	0.0941	0.2112	0.024
Mof_C 	C 	0.937	0.1879	0.1962	0.112
Mof_H 	H 	0.8853	0.2203	0.1982	0.024
Mof_C 	C 	0.0965	0.1363	0.2001	0.111
Mof_H 	H 	0.1742	0.1272	0.2048	0.024
Mof_C 	C 	0.6793	0.225	0.3069	0.101
Mof_H 	H 	0.6867	0.244	0.3622	0.015
Mof_C 	C 	0.6285	0.2076	0.1628	0.115
Mof_H 	H 	0.5949	0.2119	0.1002	0.039
Mof_C 	C 	0.8847	0.0557	0.3964	0.102
Mof_Cu	Cu	0.25765	0.58181	0.16413	0.902
Mof_Br	Br	0.16892	0.60828	0.98713	-0.295
Mof_Br	Br	0.2278	0.678	0.9249	-0.142
Mof_N 	N 	0.1286	0.53314	0.1889	-0.189
Mof_N 	N 	0.4105	0.6283	0.183	-0.182
Mof_N 	N 	0.5105	0.5954	0.1859	-0.182
Mof_N 	N 	0.5518	0.6948	0.2067	-0.1
Mof_N 	N 	0.1945	0.6611	0.2045	-0.185
Mof_N 	N 	0.2269	0.672	0.297	-0.104
Mof_N 	N 	0.6163	0.7511	0.2247	-0.101
Mof_N 	N 	0.3811	0.5447	0.3135	-0.146
Mof_N 	N 	0.4832	0.5255	0.4535	-0.083
Mof_C 	C 	0.0358	0.5521	0.207	0.119
Mof_H 	H 	0.0142	0.5941	0.2112	0.024
Mof_C 	C 	0.437	0.6879	0.1962	0.118
Mof_H 	H 	0.3853	0.7203	0.1982	0.023
Mof_C 	C 	0.5965	0.6363	0.2001	0.11
Mof_H 	H 	0.6742	0.6272	0.2048	0.023
Mof_C 	C 	0.1793	0.725	0.3069	0.102
Mof_H 	H 	0.1867	0.744	0.3622	0.016
Mof_C 	C 	0.1285	0.7076	0.1628	0.116
Mof_H 	H 	0.0949	0.7119	0.1002	0.04
Mof_C 	C 	0.3847	0.5557	0.3964	0.104
Mof_Cu	Cu	0.24235	0.08181	0.83587	0.895
Mof_Br	Br	0.33108	0.10828	0.01287	-0.261
Mof_Br	Br	0.2722	0.178	0.0751	-0.126
Mof_N 	N 	0.3714	0.03314	0.8111	-0.192
Mof_N 	N 	0.0895	0.1283	0.817	-0.183
Mof_N 	N 	0.9895	0.0954	0.8141	-0.189
Mof_N 	N 	0.9482	0.1948	0.7933	-0.106
Mof_N 	N 	0.3055	0.1611	0.7955	-0.188
Mof_N 	N 	0.2731	0.172	0.703	-0.104
Mof_N 	N 	0.8837	0.2511	0.7753	-0.103
Mof_N 	N 	0.1189	0.0447	0.6865	-0.146
Mof_N 	N 	0.0168	0.0255	0.5465	-0.078
Mof_C 	C 	0.4642	0.0521	0.793	0.11
Mof_H 	H 	0.4858	0.0941	0.7888	0.024
Mof_C 	C 	0.063	0.1879	0.8038	0.124
Mof_H 	H 	0.1147	0.2203	0.8018	0.02
Mof_C 	C 	0.9035	0.1363	0.7999	0.105
Mof_H 	H 	0.8258	0.1272	0.7952	0.024
Mof_C 	C 	0.3207	0.225	0.6931	0.102
Mof_H 	H 	0.3133	0.244	0.6378	0.016
Mof_C 	C 	0.3715	0.2076	0.8372	0.117
Mof_H 	H 	0.4051	0.2119	0.8998	0.027
Mof_C 	C 	0.1153	0.0557	0.6036	0.104
Mof_Cu	Cu	0.74235	0.58181	0.83587	0.895
Mof_Br	Br	0.83108	0.60828	0.01287	-0.262
Mof_Br	Br	0.7722	0.678	0.0751	-0.127
Mof_N 	N 	0.8714	0.53314	0.8111	-0.19
Mof_N 	N 	0.5895	0.6283	0.817	-0.185
Mof_N 	N 	0.4895	0.5954	0.8141	-0.185
Mof_N 	N 	0.4482	0.6948	0.7933	-0.101
Mof_N 	N 	0.8055	0.6611	0.7955	-0.189
Mof_N 	N 	0.7731	0.672	0.703	-0.105
Mof_N 	N 	0.3837	0.7511	0.7753	-0.102
Mof_N 	N 	0.6189	0.5447	0.6865	-0.146
Mof_N 	N 	0.5168	0.5255	0.5465	-0.083
Mof_C 	C 	0.9642	0.5521	0.793	0.101
Mof_H 	H 	0.9858	0.5941	0.7888	0.024
Mof_C 	C 	0.563	0.6879	0.8038	0.113
Mof_H 	H 	0.6147	0.7203	0.8018	0.022
Mof_C 	C 	0.4035	0.6363	0.7999	0.106
Mof_H 	H 	0.3258	0.6272	0.7952	0.024
Mof_C 	C 	0.8207	0.725	0.6931	0.101
Mof_H 	H 	0.8133	0.744	0.6378	0.015
Mof_C 	C 	0.8715	0.7076	0.8372	0.115
Mof_H 	H 	0.9051	0.7119	0.8998	0.026
Mof_C 	C 	0.6153	0.5557	0.6036	0.103
Mof_Cu	Cu	0.24235	0.91819	0.83587	0.896
Mof_Br	Br	0.33108	0.89172	0.01287	-0.261
Mof_Br	Br	0.2722	0.822	0.0751	-0.126
Mof_N 	N 	0.3714	0.96686	0.8111	-0.19
Mof_N 	N 	0.0895	0.8717	0.817	-0.183
Mof_N 	N 	0.9895	0.9046	0.8141	-0.188
Mof_N 	N 	0.9482	0.8052	0.7933	-0.105
Mof_N 	N 	0.3055	0.8389	0.7955	-0.188
Mof_N 	N 	0.2731	0.828	0.703	-0.104
Mof_N 	N 	0.8837	0.7489	0.7753	-0.103
Mof_N 	N 	0.1189	0.9553	0.6865	-0.145
Mof_N 	N 	0.0168	0.9745	0.5465	-0.076
Mof_C 	C 	0.4642	0.9479	0.793	0.113
Mof_H 	H 	0.4858	0.9059	0.7888	0.023
Mof_C 	C 	0.063	0.8121	0.8038	0.123
Mof_H 	H 	0.1147	0.7797	0.8018	0.02
Mof_C 	C 	0.9035	0.8637	0.7999	0.105
Mof_H 	H 	0.8258	0.8728	0.7952	0.024
Mof_C 	C 	0.3207	0.775	0.6931	0.102
Mof_H 	H 	0.3133	0.756	0.6378	0.016
Mof_C 	C 	0.3715	0.7924	0.8372	0.117
Mof_H 	H 	0.4051	0.7881	0.8998	0.027
Mof_C 	C 	0.1153	0.9443	0.6036	0.105
Mof_Cu	Cu	0.74235	0.41819	0.83587	0.895
Mof_Br	Br	0.83108	0.39172	0.01287	-0.262
Mof_Br	Br	0.7722	0.322	0.0751	-0.127
Mof_N 	N 	0.8714	0.46686	0.8111	-0.19
Mof_N 	N 	0.5895	0.3717	0.817	-0.185
Mof_N 	N 	0.4895	0.4046	0.8141	-0.185
Mof_N 	N 	0.4482	0.3052	0.7933	-0.101
Mof_N 	N 	0.8055	0.3389	0.7955	-0.189
Mof_N 	N 	0.7731	0.328	0.703	-0.105
Mof_N 	N 	0.3837	0.2489	0.7753	-0.102
Mof_N 	N 	0.6189	0.4553	0.6865	-0.146
Mof_N 	N 	0.5168	0.4745	0.5465	-0.083
Mof_C 	C 	0.9642	0.4479	0.793	0.101
Mof_H 	H 	0.9858	0.4059	0.7888	0.024
Mof_C 	C 	0.563	0.3121	0.8038	0.113
Mof_H 	H 	0.6147	0.2797	0.8018	0.022
Mof_C 	C 	0.4035	0.3637	0.7999	0.106
Mof_H 	H 	0.3258	0.3728	0.7952	0.024
Mof_C 	C 	0.8207	0.275	0.6931	0.101
Mof_H 	H 	0.8133	0.256	0.6378	0.015
Mof_C 	C 	0.8715	0.2924	0.8372	0.115
Mof_H 	H 	0.9051	0.2881	0.8998	0.025
Mof_C 	C 	0.6153	0.4443	0.6036	0.103
Mof_Cu	Cu	0.75765	0.91819	0.16413	0.902
Mof_Br	Br	0.66892	0.89172	0.98713	-0.299
Mof_Br	Br	0.7278	0.822	0.9249	-0.146
Mof_N 	N 	0.6286	0.96686	0.1889	-0.187
Mof_N 	N 	0.9105	0.8717	0.183	-0.182
Mof_N 	N 	0.0105	0.9046	0.1859	-0.179
Mof_N 	N 	0.0518	0.8052	0.2067	-0.097
Mof_N 	N 	0.6945	0.8389	0.2045	-0.185
Mof_N 	N 	0.7269	0.828	0.297	-0.105
Mof_N 	N 	0.1163	0.7489	0.2247	-0.101
Mof_N 	N 	0.8811	0.9553	0.3135	-0.146
Mof_N 	N 	0.9832	0.9745	0.4535	-0.087
Mof_C 	C 	0.5358	0.9479	0.207	0.115
Mof_H 	H 	0.5142	0.9059	0.2112	0.023
Mof_C 	C 	0.937	0.8121	0.1962	0.112
Mof_H 	H 	0.8853	0.7797	0.1982	0.024
Mof_C 	C 	0.0965	0.8637	0.2001	0.111
Mof_H 	H 	0.1742	0.8728	0.2048	0.024
Mof_C 	C 	0.6793	0.775	0.3069	0.101
Mof_H 	H 	0.6867	0.756	0.3622	0.015
Mof_C 	C 	0.6285	0.7924	0.1628	0.115
Mof_H 	H 	0.5949	0.7881	0.1002	0.039
Mof_C 	C 	0.8847	0.9443	0.3964	0.103
Mof_Cu	Cu	0.25765	0.41819	0.16413	0.902
Mof_Br	Br	0.16892	0.39172	0.98713	-0.295
Mof_Br	Br	0.2278	0.322	0.9249	-0.143
Mof_N 	N 	0.1286	0.46686	0.1889	-0.189
Mof_N 	N 	0.4105	0.3717	0.183	-0.182
Mof_N 	N 	0.5105	0.4046	0.1859	-0.182
Mof_N 	N 	0.5518	0.3052	0.2067	-0.1
Mof_N 	N 	0.1945	0.3389	0.2045	-0.185
Mof_N 	N 	0.2269	0.328	0.297	-0.104
Mof_N 	N 	0.6163	0.2489	0.2247	-0.101
Mof_N 	N 	0.3811	0.4553	0.3135	-0.146
Mof_N 	N 	0.4832	0.4745	0.4535	-0.083
Mof_C 	C 	0.0358	0.4479	0.207	0.119
Mof_H 	H 	0.0142	0.4059	0.2112	0.024
Mof_C 	C 	0.437	0.3121	0.1962	0.118
Mof_H 	H 	0.3853	0.2797	0.1982	0.023
Mof_C 	C 	0.5965	0.3637	0.2001	0.11
Mof_H 	H 	0.6742	0.3728	0.2048	0.023
Mof_C 	C 	0.1793	0.275	0.3069	0.102
Mof_H 	H 	0.1867	0.256	0.3622	0.016
Mof_C 	C 	0.1285	0.2924	0.1628	0.116
Mof_H 	H 	0.0949	0.2881	0.1002	0.04
Mof_C 	C 	0.3847	0.4443	0.3964	0.104
Mof_Cu	Cu	0.00936	0	0.17987	0.903
Mof_O 	O 	0.8296	0	0.1361	-0.682
Mof_H 	H 	0.8102	0	0.0786	0.268
Mof_N 	N 	0.4762	0	0.2188	-0.101
Mof_N 	N 	0.1884	0	0.2224	-0.184
Mof_N 	N 	0.2493	0	0.3151	-0.104
Mof_N 	N 	0.3724	0	0.2397	-0.098
Mof_N 	N 	0.9782	0	0.3161	-0.158
Mof_C 	C 	0.361	3.3862e-33	0.3231	0.097
Mof_H 	H 	0.4235	3.3862e-33	0.3778	0.016
Mof_C 	C 	0.2617	0	0.1766	0.106
Mof_H 	H 	0.2425	-8.46549e-34	0.1139	0.033
Mof_C 	C 	0.0409	0	0.4026	0.157
Mof_Cu	Cu	0.50936	0.5	0.17987	0.902
Mof_O 	O 	0.3296	0.5	0.1361	-0.679
Mof_H 	H 	0.3102	0.5	0.0786	0.268
Mof_N 	N 	0.9762	0.5	0.2188	-0.106
Mof_N 	N 	0.6884	0.5	0.2224	-0.184
Mof_N 	N 	0.7493	0.5	0.3151	-0.104
Mof_N 	N 	0.8724	0.5	0.2397	-0.098
Mof_N 	N 	0.4782	0.5	0.3161	-0.151
Mof_C 	C 	0.861	0.5	0.3231	0.097
Mof_H 	H 	0.9235	0.5	0.3778	0.014
Mof_C 	C 	0.7617	0.5	0.1766	0.105
Mof_H 	H 	0.7425	0.5	0.1139	0.034
Mof_C 	C 	0.5409	0.5	0.4026	0.145
Mof_Cu	Cu	0.99064	6.77239e-33	0.82013	0.894
Mof_O 	O 	0.1704	0	0.8639	-0.678
Mof_H 	H 	0.1898	0	0.9214	0.251
Mof_N 	N 	0.5238	0	0.7812	-0.101
Mof_N 	N 	0.8116	0	0.7776	-0.186
Mof_N 	N 	0.7507	0	0.6849	-0.104
Mof_N 	N 	0.6276	0	0.7603	-0.098
Mof_N 	N 	0.0218	0	0.6839	-0.144
Mof_C 	C 	0.639	6.77239e-33	0.6769	0.097
Mof_H 	H 	0.5765	0	0.6222	0.016
Mof_C 	C 	0.7383	6.77239e-33	0.8234	0.106
Mof_H 	H 	0.7575	0	0.8861	0.026
Mof_C 	C 	0.9591	0	0.5974	0.13
Mof_Cu	Cu	0.49064	0.5	0.82013	0.898
Mof_O 	O 	0.6704	0.5	0.8639	-0.68
Mof_H 	H 	0.6898	0.5	0.9214	0.25
Mof_N 	N 	0.0238	0.5	0.7812	-0.09
Mof_N 	N 	0.3116	0.5	0.7776	-0.186
Mof_N 	N 	0.2507	0.5	0.6849	-0.103
Mof_N 	N 	0.1276	0.5	0.7603	-0.097
Mof_N 	N 	0.5218	0.5	0.6839	-0.151
Mof_C 	C 	0.139	0.5	0.6769	0.099
Mof_H 	H 	0.0765	0.5	0.6222	0.018
Mof_C 	C 	0.2383	0.5	0.8234	0.108
Mof_H 	H 	0.2575	0.5	0.8861	0.027
Mof_C 	C 	0.4591	0.5	0.5974	0.146
Mof_Br	Br	-0	0	-0	-0.388
Mof_Br	Br	0.5	0.5	-0	-0.393
_end
