data_functionalizedCrystal
_audit_creation_method	'EQeq! by Chris Wilmer'
_symmetry_space_group_name_H-M	'P1'
_symmetry_Int_Tables_number	1
_symmetry_cell_setting	triclinic
loop_
_symmetry_equiv_pos_as_xyz
  x,y,z
_cell_length_a	9.0116
_cell_length_b	9.3401
_cell_length_c	23.211
_cell_angle_alpha	93.9271
_cell_angle_beta	95.2968
_cell_angle_gamma	105.618
loop_
_atom_site_label
_atom_site_type_symbol
_atom_site_fract_x
_atom_site_fract_y
_atom_site_fract_z
_atom_site_charge
Mof_Ni	Ni	0.19696	0.29571	0.7809	1.043
Mof_Ni	Ni	0.19818	0.55555	0.78687	1.051
Mof_Ni	Ni	0.80285	0.49129	0.29655	1.06
Mof_Ni	Ni	0.79114	0.74782	0.30998	1.068
Mof_H 	H 	0.22165	0.78015	0.69088	0.041
Mof_H 	H 	0.57454	0.36418	0.44101	0.043
Mof_H 	H 	0.9845	0.74332	0.82082	0.084
Mof_H 	H 	0.01102	0.17913	0.62525	-0.004
Mof_H 	H 	0.205	0.04142	0.68528	0.044
Mof_H 	H 	0.02189	0.31803	0.36599	0.005
Mof_H 	H 	0.72252	0.42871	0.11853	0.051
Mof_H 	H 	0.99968	0.38331	0.17065	0.092
Mof_H 	H 	0.43473	0.11536	0.75993	0.045
Mof_H 	H 	0.10994	0.87952	0.16766	0.033
Mof_H 	H 	0.85587	0.86089	0.51222	0.042
Mof_H 	H 	0.41308	0.7928	0.04595	0.038
Mof_H 	H 	0.40833	0.87229	0.84395	0.047
Mof_H 	H 	0.58063	0.18772	0.25686	0.032
Mof_H 	H 	0.59551	0.93771	0.34127	0.047
Mof_H 	H 	0.15397	0.85154	0.05678	0.028
Mof_H 	H 	0.6756	0.34075	0.901	0.052
Mof_H 	H 	0.58524	0.912	0.2593	0.055
Mof_H 	H 	0.23535	0.62553	0.59775	0.034
Mof_H 	H 	0.01286	0.25866	0.51919	-0.002
Mof_H 	H 	0.56394	0.26141	0.54101	0.039
Mof_H 	H 	0.40617	0.12636	0.8364	0.047
Mof_H 	H 	0.11503	0.70398	0.96629	0.035
Mof_H 	H 	0.1319	0.22867	0.9702	0.037
Mof_H 	H 	0.0269	0.05404	0.3709	0.006
Mof_H 	H 	0.9962	0.98281	0.70471	0.078
Mof_H 	H 	0.7948	0.22778	0.21556	0.024
Mof_H 	H 	0.12874	0.07729	0.86643	0.045
Mof_H 	H 	0.77962	0.95896	0.21423	0.055
Mof_H 	H 	0.45508	0.27155	0.64442	0.049
Mof_H 	H 	0.81386	0.56006	0.6758	0.056
Mof_H 	H 	0.75794	0.34789	0.00996	0.047
Mof_H 	H 	0.00364	0.26886	0.25265	0.003
Mof_H 	H 	0.79558	0.74179	0.60981	0.044
Mof_H 	H 	0.06628	0.22733	0.078	0.03
Mof_H 	H 	0.99049	0.01428	0.24745	0.062
Mof_H 	H 	0.43448	0.85124	0.76196	0.048
Mof_H 	H 	0.25201	0.72793	0.49706	0.032
Mof_H 	H 	0.46735	0.76069	0.15701	0.044
Mof_H 	H 	0.15266	0.82161	0.87552	0.043
Mof_H 	H 	0.57739	0.19148	0.33674	0.041
Mof_H 	H 	0.84568	0.26482	0.40482	0.032
Mof_H 	H 	0.98915	0.45319	0.45245	0.064
Mof_H 	H 	0.37682	0.73371	0.39719	0.047
Mof_H 	H 	0.4163	0.68489	0.93846	0.049
Mof_H 	H 	0.02248	0.72496	0.70939	0.016
Mof_H 	H 	0.9668	0.00181	0.80507	0.075
Mof_H 	H 	0.83659	0.00778	0.39874	0.041
Mof_C 	C 	0.35404	0.05411	0.79248	-0.032
Mof_C 	C 	0.95237	0.36641	0.72166	0.217
Mof_C 	C 	0.08455	0.47561	0.08669	0.026
Mof_C 	C 	0.64468	0.16079	0.29885	-0.033
Mof_C 	C 	0.66635	0.51202	0.09853	-0.013
Mof_C 	C 	0.13877	0.81335	0.72129	-0.027
Mof_C 	C 	0.84234	0.48218	0.6409	-0.02
Mof_C 	C 	0.65892	0.60588	0.20322	0.264
Mof_C 	C 	0.05504	0.48756	0.14747	-0.086
Mof_C 	C 	0.135	0.4347	0.89467	0.25
Mof_C 	C 	0.69585	0.4353	0.9933	-0.022
Mof_C 	C 	0.34306	0.44653	0.62216	-0.043
Mof_C 	C 	0.89901	0.23414	0.36397	0.011
Mof_C 	C 	0.91509	0.64987	0.47117	-0.052
Mof_C 	C 	0.30938	0.54719	0.58401	-0.026
Mof_C 	C 	0.32697	0.64858	0.48531	-0.045
Mof_C 	C 	0.95611	0.31216	0.55491	-0.007
Mof_C 	C 	0.50393	0.44175	0.45683	-0.026
Mof_C 	C 	0.06651	0.63095	0.17627	-0.012
Mof_C 	C 	0.10018	0.76145	0.14421	-0.031
Mof_C 	C 	0.62659	0.51248	0.03724	0.007
Mof_C 	C 	0.29259	0.44713	0.68407	0.242
Mof_C 	C 	0.4869	0.71259	0.06192	-0.038
Mof_C 	C 	0.11694	0.45507	0.96034	-0.056
Mof_C 	C 	0.8708	0.74353	0.51893	0.001
Mof_C 	C 	0.84498	0.52792	0.58262	0.011
Mof_C 	C 	0.10161	0.83682	0.82937	-0.064
Mof_C 	C 	0.92593	0.67224	0.4071	0.27
Mof_C 	C 	0.01235	0.64578	0.23598	0.142
Mof_C 	C 	0.53081	0.51126	0.91362	-0.025
Mof_C 	C 	0.49139	0.60977	0.95634	-0.022
Mof_C 	C 	0.43312	0.34443	0.60947	-0.009
Mof_C 	C 	0.36274	0.88755	0.79682	-0.029
Mof_C 	C 	0.95284	0.27208	0.61179	0.03
Mof_C 	C 	0.45307	0.43759	0.51495	0.009
Mof_C 	C 	0.64676	0.98683	0.30079	-0.048
Mof_C 	C 	0.46799	0.53805	0.41621	-0.047
Mof_C 	C 	0.93853	0.5115	0.48586	-0.018
Mof_C 	C 	0.87412	0.20394	0.25413	0.018
Mof_C 	C 	0.91555	0.45182	0.54047	0.005
Mof_C 	C 	0.0895	0.33774	0.05595	-0.064
Mof_C 	C 	0.44498	0.49169	0.84878	0.229
Mof_C 	C 	0.55648	0.56509	0.36219	0.249
Mof_C 	C 	0.91229	0.36535	0.65677	-0.054
Mof_C 	C 	0.10252	0.60153	0.05199	-0.012
Mof_C 	C 	0.83037	0.67708	0.57003	-0.037
Mof_C 	C 	0.87004	0.03523	0.25033	-0.045
Mof_C 	C 	0.12389	0.97844	0.71702	-0.079
Mof_C 	C 	0.09127	0.00158	0.82293	-0.08
Mof_C 	C 	0.10565	0.59401	0.98814	-0.018
Mof_C 	C 	0.35845	0.54189	0.52685	0.004
Mof_C 	C 	0.63572	0.41677	0.93443	-0.01
Mof_C 	C 	0.11984	0.74613	0.08433	-0.036
Mof_C 	C 	0.61791	0.60954	0.13941	-0.05
Mof_C 	C 	0.53699	0.61723	0.01896	0.013
Mof_C 	C 	0.12066	0.33359	0.99672	-0.004
Mof_C 	C 	0.52315	0.70825	0.12141	-0.001
Mof_C 	C 	0.38713	0.65111	0.43111	-0.009
Mof_C 	C 	0.90243	0.06581	0.36327	-0.002
Mof_C 	C 	0.49285	0.34146	0.55621	-0.043
Mof_N 	N 	0.18973	0.07112	0.77718	-0.175
Mof_N 	N 	0.80955	0.26084	0.30731	-0.17
Mof_N 	N 	0.81645	0.97616	0.30565	-0.166
Mof_N 	N 	0.19734	0.78654	0.78328	-0.165
Mof_O 	O 	0.41872	0.36115	0.81833	-0.378
Mof_O 	O 	0.29258	0.57795	0.70986	-0.394
Mof_O 	O 	0.89791	0.7913	0.38295	-0.424
Mof_O 	O 	0.97498	0.50441	0.25269	-0.342
Mof_O 	O 	0.66278	0.47721	0.22171	-0.398
Mof_O 	O 	0.67027	0.73085	0.23713	-0.415
Mof_O 	O 	0.40353	0.61182	0.82957	-0.388
Mof_O 	O 	0.94024	0.55686	0.37637	-0.389
Mof_O 	O 	0.16593	0.30896	0.8731	-0.378
Mof_O 	O 	0.97809	0.49731	0.75427	-0.36
Mof_O 	O 	0.98368	0.76245	0.25904	-0.33
Mof_O 	O 	0.5778	0.70057	0.34582	-0.362
Mof_O 	O 	0.2737	0.3159	0.70501	-0.419
Mof_O 	O 	0.13084	0.54961	0.86586	-0.409
Mof_O 	O 	0.61735	0.45982	0.3398	-0.412
Mof_O 	O 	0.97696	0.2464	0.74632	-0.367
_end
