data_functionalizedCrystal
_audit_creation_method	'EQeq! by Chris Wilmer'
_symmetry_space_group_name_H-M	'P1'
_symmetry_Int_Tables_number	1
_symmetry_cell_setting	triclinic
loop_
_symmetry_equiv_pos_as_xyz
  x,y,z
_cell_length_a	9.2411
_cell_length_b	19.5285
_cell_length_c	19.5285
_cell_angle_alpha	62.4399
_cell_angle_beta	80.9245
_cell_angle_gamma	99.0755
loop_
_atom_site_label
_atom_site_type_symbol
_atom_site_fract_x
_atom_site_fract_y
_atom_site_fract_z
_atom_site_charge
Mof_Zn	Zn	0.08344	0.66277	0.51078	1.229
Mof_Zn	Zn	0.66187	0.59213	0.49579	1.228
Mof_Zn	Zn	0.08309	0.66783	0.78785	1.223
Mof_Zn	Zn	0.59422	0.51078	0.82645	1.228
Mof_Zn	Zn	0.15766	0.49579	0.91208	1.226
Mof_Zn	Zn	0.87094	0.78785	0.54432	1.224
Mof_Zn	Zn	0.42067	0.82645	0.66277	1.228
Mof_Zn	Zn	0.06974	0.91208	0.59213	1.227
Mof_Zn	Zn	0.41526	0.54432	0.66783	1.223
Mof_Zn	Zn	0.91656	0.33723	0.48922	1.228
Mof_Zn	Zn	0.33813	0.40787	0.50421	1.227
Mof_Zn	Zn	0.91691	0.33217	0.21215	1.223
Mof_Zn	Zn	0.40578	0.48922	0.17355	1.228
Mof_Zn	Zn	0.84234	0.50421	0.08792	1.226
Mof_Zn	Zn	0.12906	0.21215	0.45568	1.224
Mof_Zn	Zn	0.57933	0.17355	0.33723	1.228
Mof_Zn	Zn	0.93026	0.08792	0.40787	1.227
Mof_Zn	Zn	0.58474	0.45568	0.33217	1.223
Mof_P 	P 	0.17081	0.76767	0.59324	0.561
Mof_P 	P 	0.29399	0.5504	0.52603	0.552
Mof_P 	P 	0.90306	0.76005	0.40037	0.543
Mof_P 	P 	0.76405	0.59324	0.63909	0.561
Mof_P 	P 	0.82002	0.52603	0.92357	0.552
Mof_P 	P 	0.30343	0.40037	0.83958	0.542
Mof_P 	P 	0.40314	0.63909	0.76767	0.561
Mof_P 	P 	0.74359	0.92357	0.5504	0.552
Mof_P 	P 	0.14301	0.83958	0.76005	0.542
Mof_P 	P 	0.82919	0.23233	0.40676	0.561
Mof_P 	P 	0.70601	0.4496	0.47397	0.552
Mof_P 	P 	0.09694	0.23995	0.59963	0.543
Mof_P 	P 	0.23595	0.40676	0.36091	0.561
Mof_P 	P 	0.17998	0.47397	0.07643	0.552
Mof_P 	P 	0.69657	0.59963	0.16042	0.542
Mof_P 	P 	0.59686	0.36091	0.23233	0.561
Mof_P 	P 	0.25641	0.07643	0.4496	0.552
Mof_P 	P 	0.85699	0.16042	0.23995	0.542
Mof_H 	H 	0.9173	0.7884	0.2864	0.253
Mof_H 	H 	0.2037	0.2864	0.9252	0.252
Mof_H 	H 	0.1289	0.9252	0.7884	0.252
Mof_H 	H 	0.0827	0.2116	0.7136	0.253
Mof_H 	H 	0.7963	0.7136	0.0748	0.252
Mof_H 	H 	0.8711	0.0748	0.2116	0.252
Mof_O 	O 	0.4609	0.5835	0.4808	-0.511
Mof_O 	O 	0.202	0.6054	0.4778	-0.457
Mof_O 	O 	0.1035	0.7002	0.6785	-0.527
Mof_O 	O 	0.9256	0.8174	0.4324	-0.461
Mof_O 	O 	0.9272	0.8161	0.3075	-0.431
Mof_O 	O 	0.2333	0.467	0.538	-0.487
Mof_O 	O 	0.1959	0.7363	0.5352	-0.489
Mof_O 	O 	0.0195	0.7107	0.4136	-0.487
Mof_O 	O 	0.2692	0.5455	0.6078	-0.501
Mof_O 	O 	0.3233	0.8209	0.5832	-0.492
Mof_O 	O 	0.0631	0.8232	0.5672	-0.627
Mof_O 	O 	0.7411	0.7077	0.4355	-0.489
Mof_O 	O 	0.9417	0.4808	0.9357	-0.51
Mof_O 	O 	0.6798	0.4778	0.9168	-0.457
Mof_O 	O 	0.782	0.6785	0.6213	-0.526
Mof_O 	O 	0.358	0.4324	0.7502	-0.462
Mof_O 	O 	0.2347	0.3075	0.8764	-0.431
Mof_O 	O 	0.7713	0.538	0.995	-0.486
Mof_O 	O 	0.7311	0.5352	0.7285	-0.489
Mof_O 	O 	0.4331	0.4136	0.8757	-0.487
Mof_O 	O 	0.877	0.6078	0.8467	-0.499
Mof_O 	O 	0.9065	0.5832	0.5959	-0.491
Mof_O 	O 	0.6303	0.5672	0.6096	-0.626
Mof_O 	O 	0.1766	0.4355	0.8568	-0.489
Mof_O 	O 	0.8774	0.9357	0.5835	-0.51
Mof_O 	O 	0.5966	0.9168	0.6054	-0.457
Mof_O 	O 	0.4033	0.6213	0.7002	-0.527
Mof_O 	O 	0.1082	0.7502	0.8174	-0.463
Mof_O 	O 	0.1111	0.8764	0.8161	-0.433
Mof_O 	O 	0.7663	0.995	0.467	-0.486
Mof_O 	O 	0.4596	0.7285	0.7363	-0.489
Mof_O 	O 	0.3088	0.8757	0.7107	-0.487
Mof_O 	O 	0.7237	0.8467	0.5455	-0.5
Mof_O 	O 	0.5024	0.5959	0.8209	-0.492
Mof_O 	O 	0.2399	0.6096	0.8232	-0.627
Mof_O 	O 	0.0334	0.8568	0.7077	-0.49
Mof_O 	O 	0.5391	0.4165	0.5192	-0.511
Mof_O 	O 	0.798	0.3946	0.5222	-0.457
Mof_O 	O 	0.8965	0.2998	0.3215	-0.527
Mof_O 	O 	0.0744	0.1826	0.5676	-0.461
Mof_O 	O 	0.0728	0.1839	0.6925	-0.431
Mof_O 	O 	0.7667	0.533	0.462	-0.487
Mof_O 	O 	0.8041	0.2637	0.4648	-0.489
Mof_O 	O 	0.9805	0.2893	0.5864	-0.487
Mof_O 	O 	0.7308	0.4545	0.3922	-0.501
Mof_O 	O 	0.6767	0.1791	0.4168	-0.492
Mof_O 	O 	0.9369	0.1768	0.4328	-0.627
Mof_O 	O 	0.2589	0.2923	0.5645	-0.489
Mof_O 	O 	0.0583	0.5192	0.0643	-0.51
Mof_O 	O 	0.3202	0.5222	0.0832	-0.457
Mof_O 	O 	0.218	0.3215	0.3787	-0.526
Mof_O 	O 	0.642	0.5676	0.2498	-0.462
Mof_O 	O 	0.7653	0.6925	0.1236	-0.431
Mof_O 	O 	0.2287	0.462	0.005	-0.486
Mof_O 	O 	0.2689	0.4648	0.2715	-0.489
Mof_O 	O 	0.5669	0.5864	0.1243	-0.487
Mof_O 	O 	0.123	0.3922	0.1533	-0.499
Mof_O 	O 	0.0935	0.4168	0.4041	-0.491
Mof_O 	O 	0.3697	0.4328	0.3904	-0.626
Mof_O 	O 	0.8234	0.5645	0.1432	-0.489
Mof_O 	O 	0.1226	0.0643	0.4165	-0.51
Mof_O 	O 	0.4034	0.0832	0.3946	-0.457
Mof_O 	O 	0.5967	0.3787	0.2998	-0.527
Mof_O 	O 	0.8918	0.2498	0.1826	-0.463
Mof_O 	O 	0.8889	0.1236	0.1839	-0.433
Mof_O 	O 	0.2337	0.005	0.533	-0.486
Mof_O 	O 	0.5404	0.2715	0.2637	-0.489
Mof_O 	O 	0.6912	0.1243	0.2893	-0.487
Mof_O 	O 	0.2763	0.1533	0.4545	-0.5
Mof_O 	O 	0.4976	0.4041	0.1791	-0.492
Mof_O 	O 	0.7601	0.3904	0.1768	-0.627
Mof_O 	O 	0.9666	0.1432	0.2923	-0.49
Mof_H 	H 	0.0841	0.5064	0.6851	0.09
Mof_H 	H 	0.0528	0.4756	0.7872	0.072
Mof_H 	H 	0.9085	0.501	0.7385	0.1
Mof_H 	H 	0.8609	0.4149	0.5912	0.128
Mof_H 	H 	0.9362	0.4892	0.6046	0.113
Mof_H 	H 	0.0279	0.4209	0.6122	0.117
Mof_H 	H 	0.0323	0.3672	0.7565	0.041
Mof_H 	H 	0.7545	0.3978	0.722	0.029
Mof_H 	H 	0.7257	0.2863	0.7059	0.085
Mof_H 	H 	0.8753	0.2717	0.7321	0.089
Mof_H 	H 	0.6679	0.1889	0.8431	0.041
Mof_H 	H 	0.6068	0.2629	0.8325	0.052
Mof_H 	H 	0.7303	0.2307	0.9338	0.045
Mof_H 	H 	0.8766	0.2333	0.8785	0.057
Mof_H 	H 	0.9146	0.348	0.8843	0.086
Mof_H 	H 	0.7671	0.3648	0.857	0.067
Mof_C 	C 	0.9455	0.3889	0.7626	0.025
Mof_C 	C 	0.8436	0.3789	0.7121	0.045
Mof_C 	C 	0.789	0.2928	0.7388	-0.17
Mof_C 	C 	0.698	0.2454	0.8264	-0.063
Mof_C 	C 	0.7924	0.2573	0.8791	-0.072
Mof_C 	C 	0.852	0.3422	0.8512	-0.14
Mof_N 	N 	0.0017	0.4739	0.742	-0.214
Mof_N 	N 	0.9231	0.4293	0.623	-0.251
Mof_H 	H 	0.7692	0.6851	0.8085	0.09
Mof_H 	H 	0.84	0.7872	0.7372	0.073
Mof_H 	H 	0.647	0.7385	0.7605	0.099
Mof_H 	H 	0.4521	0.5912	0.9939	0.128
Mof_H 	H 	0.5408	0.6046	0.9062	0.113
Mof_H 	H 	0.6401	0.6122	0.9669	0.117
Mof_H 	H 	0.7888	0.7565	0.8763	0.044
Mof_H 	H 	0.4765	0.722	0.8802	0.028
Mof_H 	H 	0.4316	0.7059	0.0078	0.087
Mof_H 	H 	0.6074	0.7321	0.9962	0.091
Mof_H 	H 	0.511	0.8431	0.968	0.039
Mof_H 	H 	0.4393	0.8325	0.9046	0.05
Mof_H 	H 	0.6641	0.9338	0.8355	0.047
Mof_H 	H 	0.7551	0.8785	0.8882	0.059
Mof_H 	H 	0.7989	0.8843	0.7677	0.085
Mof_H 	H 	0.6241	0.857	0.7782	0.065
Mof_C 	C 	0.7081	0.7626	0.8485	0.019
Mof_C 	C 	0.5557	0.7121	0.909	0.049
Mof_C 	C 	0.5278	0.7388	0.9684	-0.176
Mof_C 	C 	0.5244	0.8264	0.9282	-0.058
Mof_C 	C 	0.6715	0.8791	0.8636	-0.078
Mof_C 	C 	0.7032	0.8512	0.8066	-0.135
Mof_N 	N 	0.7437	0.742	0.7841	-0.212
Mof_N 	N 	0.5461	0.623	0.9477	-0.252
Mof_H 	H 	0.5777	0.8085	0.5064	0.09
Mof_H 	H 	0.5772	0.7372	0.4756	0.072
Mof_H 	H 	0.4075	0.7605	0.501	0.099
Mof_H 	H 	0.446	0.9939	0.4149	0.128
Mof_H 	H 	0.447	0.9062	0.4892	0.113
Mof_H 	H 	0.607	0.9669	0.4209	0.117
Mof_H 	H 	0.6651	0.8763	0.3672	0.043
Mof_H 	H 	0.3567	0.8802	0.3978	0.028
Mof_H 	H 	0.4394	0.0078	0.2863	0.086
Mof_H 	H 	0.6036	0.9962	0.2717	0.091
Mof_H 	H 	0.479	0.968	0.1889	0.041
Mof_H 	H 	0.3439	0.9046	0.2629	0.051
Mof_H 	H 	0.4996	0.8355	0.2307	0.046
Mof_H 	H 	0.6433	0.8882	0.2333	0.058
Mof_H 	H 	0.5666	0.7677	0.348	0.084
Mof_H 	H 	0.4023	0.7782	0.3648	0.065
Mof_C 	C 	0.5566	0.8485	0.3889	0.02
Mof_C 	C 	0.4647	0.909	0.3789	0.048
Mof_C 	C 	0.4962	0.9684	0.2928	-0.173
Mof_C 	C 	0.4526	0.9282	0.2454	-0.061
Mof_C 	C 	0.5351	0.8636	0.2573	-0.075
Mof_C 	C 	0.5098	0.8066	0.3422	-0.136
Mof_N 	N 	0.5278	0.7841	0.4739	-0.212
Mof_N 	N 	0.4938	0.9477	0.4293	-0.252
Mof_H 	H 	0.9159	0.4936	0.3149	0.09
Mof_H 	H 	0.9472	0.5244	0.2128	0.072
Mof_H 	H 	0.0915	0.499	0.2615	0.1
Mof_H 	H 	0.1391	0.5851	0.4088	0.128
Mof_H 	H 	0.0638	0.5108	0.3954	0.113
Mof_H 	H 	0.9721	0.5791	0.3878	0.117
Mof_H 	H 	0.9677	0.6328	0.2435	0.041
Mof_H 	H 	0.2455	0.6022	0.278	0.029
Mof_H 	H 	0.2743	0.7137	0.2941	0.085
Mof_H 	H 	0.1247	0.7283	0.2679	0.089
Mof_H 	H 	0.3321	0.8111	0.1569	0.041
Mof_H 	H 	0.3932	0.7371	0.1675	0.052
Mof_H 	H 	0.2697	0.7693	0.0662	0.045
Mof_H 	H 	0.1234	0.7667	0.1215	0.057
Mof_H 	H 	0.0854	0.652	0.1157	0.086
Mof_H 	H 	0.2329	0.6352	0.143	0.067
Mof_C 	C 	0.0545	0.6111	0.2374	0.025
Mof_C 	C 	0.1564	0.6211	0.2879	0.045
Mof_C 	C 	0.211	0.7072	0.2612	-0.17
Mof_C 	C 	0.302	0.7546	0.1736	-0.063
Mof_C 	C 	0.2076	0.7427	0.1209	-0.072
Mof_C 	C 	0.148	0.6578	0.1488	-0.14
Mof_N 	N 	0.9983	0.5261	0.258	-0.214
Mof_N 	N 	0.0769	0.5707	0.377	-0.251
Mof_H 	H 	0.2308	0.3149	0.1915	0.09
Mof_H 	H 	0.16	0.2128	0.2628	0.073
Mof_H 	H 	0.353	0.2615	0.2395	0.099
Mof_H 	H 	0.5479	0.4088	0.0061	0.128
Mof_H 	H 	0.4592	0.3954	0.0938	0.113
Mof_H 	H 	0.3599	0.3878	0.0331	0.117
Mof_H 	H 	0.2112	0.2435	0.1237	0.044
Mof_H 	H 	0.5235	0.278	0.1198	0.028
Mof_H 	H 	0.5684	0.2941	0.9922	0.087
Mof_H 	H 	0.3926	0.2679	0.0038	0.091
Mof_H 	H 	0.489	0.1569	0.032	0.039
Mof_H 	H 	0.5607	0.1675	0.0954	0.05
Mof_H 	H 	0.3359	0.0662	0.1645	0.047
Mof_H 	H 	0.2449	0.1215	0.1118	0.059
Mof_H 	H 	0.2011	0.1157	0.2323	0.085
Mof_H 	H 	0.3759	0.143	0.2218	0.065
Mof_C 	C 	0.2919	0.2374	0.1515	0.019
Mof_C 	C 	0.4443	0.2879	0.091	0.049
Mof_C 	C 	0.4722	0.2612	0.0316	-0.176
Mof_C 	C 	0.4756	0.1736	0.0718	-0.058
Mof_C 	C 	0.3285	0.1209	0.1364	-0.078
Mof_C 	C 	0.2968	0.1488	0.1934	-0.135
Mof_N 	N 	0.2563	0.258	0.2159	-0.212
Mof_N 	N 	0.4539	0.377	0.0523	-0.252
Mof_H 	H 	0.4223	0.1915	0.4936	0.09
Mof_H 	H 	0.4228	0.2628	0.5244	0.072
Mof_H 	H 	0.5925	0.2395	0.499	0.099
Mof_H 	H 	0.554	0.0061	0.5851	0.128
Mof_H 	H 	0.553	0.0938	0.5108	0.113
Mof_H 	H 	0.393	0.0331	0.5791	0.117
Mof_H 	H 	0.3349	0.1237	0.6328	0.043
Mof_H 	H 	0.6433	0.1198	0.6022	0.028
Mof_H 	H 	0.5606	0.9922	0.7137	0.086
Mof_H 	H 	0.3964	0.0038	0.7283	0.091
Mof_H 	H 	0.521	0.032	0.8111	0.041
Mof_H 	H 	0.6561	0.0954	0.7371	0.051
Mof_H 	H 	0.5004	0.1645	0.7693	0.046
Mof_H 	H 	0.3567	0.1118	0.7667	0.058
Mof_H 	H 	0.4334	0.2323	0.652	0.084
Mof_H 	H 	0.5977	0.2218	0.6352	0.065
Mof_C 	C 	0.4434	0.1515	0.6111	0.02
Mof_C 	C 	0.5353	0.091	0.6211	0.048
Mof_C 	C 	0.5038	0.0316	0.7072	-0.173
Mof_C 	C 	0.5474	0.0718	0.7546	-0.061
Mof_C 	C 	0.4649	0.1364	0.7427	-0.075
Mof_C 	C 	0.4902	0.1934	0.6578	-0.136
Mof_N 	N 	0.4722	0.2159	0.5261	-0.212
Mof_N 	N 	0.5062	0.0523	0.5707	-0.252
_end
