data_functionalizedCrystal
_audit_creation_method	'EQeq! by Chris Wilmer'
_symmetry_space_group_name_H-M	'P1'
_symmetry_Int_Tables_number	1
_symmetry_cell_setting	triclinic
loop_
_symmetry_equiv_pos_as_xyz
  x,y,z
_cell_length_a	10.5944
_cell_length_b	11.5934
_cell_length_c	15.822
_cell_angle_alpha	106.13
_cell_angle_beta	90
_cell_angle_gamma	90
loop_
_atom_site_label
_atom_site_type_symbol
_atom_site_fract_x
_atom_site_fract_y
_atom_site_fract_z
_atom_site_charge
Mof_Cu	Cu	0.63677	0.9852	0.49921	0.945
Mof_Cu	Cu	0.63677	0.0148	0.00079	0.945
Mof_Cu	Cu	0.50242	0.14067	0.68562	0.941
Mof_Cu	Cu	0.49758	0.85933	0.31438	0.941
Mof_Cu	Cu	0.49758	0.14067	0.18562	0.941
Mof_Cu	Cu	0.36323	0.0148	0.50079	0.944
Mof_Cu	Cu	0.50242	0.85933	0.81438	0.941
Mof_Cu	Cu	0.36323	0.9852	0.99921	0.944
Mof_H 	H 	0.9955	0.0541	0.1206	0.052
Mof_H 	H 	0.505	0.0613	0.4006	0.277
Mof_H 	H 	0.5203	0.501	0.3519	0.051
Mof_H 	H 	0.495	0.0613	0.9006	0.28
Mof_H 	H 	0.0045	0.0541	0.6206	0.054
Mof_H 	H 	0.9955	0.9459	0.3794	0.054
Mof_H 	H 	0.0045	0.9459	0.8794	0.052
Mof_H 	H 	0.495	0.9387	0.5994	0.277
Mof_H 	H 	0.4797	0.499	0.6481	0.051
Mof_H 	H 	0.505	0.9387	0.0994	0.28
Mof_H 	H 	0.4797	0.501	0.8519	0.051
Mof_H 	H 	0.5203	0.499	0.1481	0.051
Mof_C 	C 	0.0032	0.0327	0.6729	-0.008
Mof_C 	C 	0.2364	0.9562	0.8341	0.352
Mof_C 	C 	0.1183	0.0176	0.7108	-0.046
Mof_C 	C 	0.4941	0.3897	0.52	-0.046
Mof_C 	C 	0.7636	0.0438	0.1659	0.352
Mof_C 	C 	0.111	0.983	0.2895	-0.053
Mof_C 	C 	0.8817	0.0176	0.2108	-0.051
Mof_C 	C 	0.8817	0.9824	0.2892	-0.046
Mof_C 	C 	0.2308	0.9613	0.3333	0.352
Mof_C 	C 	0.5172	0.7217	0.1407	0.331
Mof_C 	C 	0.5059	0.6103	0.48	-0.046
Mof_C 	C 	0.5172	0.2783	0.3593	0.331
Mof_C 	C 	0.5102	0.4973	0.0865	-0.001
Mof_C 	C 	0.5102	0.5027	0.4135	-0.001
Mof_C 	C 	0.4828	0.2783	0.8593	0.331
Mof_C 	C 	0.9968	0.0327	0.1729	-0.005
Mof_C 	C 	0.7692	0.9613	0.8333	0.35
Mof_C 	C 	0.1183	0.9824	0.7892	-0.051
Mof_C 	C 	0.4956	0.6075	0.5674	-0.053
Mof_C 	C 	0.4767	0.7246	0.9521	0.321
Mof_C 	C 	0.2308	0.0387	0.1667	0.35
Mof_C 	C 	0.9968	0.9673	0.3271	-0.008
Mof_C 	C 	0.111	0.017	0.2105	-0.057
Mof_C 	C 	0.5233	0.7246	0.4521	0.321
Mof_C 	C 	0.4898	0.4973	0.5865	-0.001
Mof_C 	C 	0.4828	0.7217	0.6407	0.331
Mof_C 	C 	0.2364	0.0438	0.6659	0.35
Mof_C 	C 	0.889	0.983	0.7895	-0.057
Mof_C 	C 	0.5044	0.3925	0.4326	-0.053
Mof_C 	C 	0.5233	0.2754	0.0479	0.321
Mof_C 	C 	0.7636	0.9562	0.3341	0.35
Mof_C 	C 	0.7692	0.0387	0.6667	0.352
Mof_C 	C 	0.4956	0.3925	0.9326	-0.053
Mof_C 	C 	0.5059	0.3897	0.02	-0.047
Mof_C 	C 	0.5044	0.6075	0.0674	-0.053
Mof_C 	C 	0.4767	0.2754	0.5479	0.321
Mof_C 	C 	0.0032	0.9673	0.8271	-0.005
Mof_C 	C 	0.4941	0.6103	0.98	-0.047
Mof_C 	C 	0.4898	0.5027	0.9135	-0.001
Mof_C 	C 	0.889	0.017	0.7105	-0.053
Mof_O 	O 	0.3195	0.8918	0.7893	-0.384
Mof_O 	O 	0.3195	0.1082	0.7107	-0.383
Mof_O 	O 	0.5125	0.2842	0.7827	-0.369
Mof_O 	O 	0.4984	0.0058	0.5829	-0.703
Mof_O 	O 	0.2339	0.9995	0.9172	-0.387
Mof_O 	O 	0.4405	0.252	0.0975	-0.35
Mof_O 	O 	0.2332	0.0105	0.4152	-0.394
Mof_O 	O 	0.5595	0.748	0.9025	-0.35
Mof_O 	O 	0.4875	0.7158	0.2173	-0.369
Mof_O 	O 	0.6228	0.7827	0.4745	-0.372
Mof_O 	O 	0.6228	0.2173	0.0255	-0.373
Mof_O 	O 	0.5016	0.9942	0.4171	-0.703
Mof_O 	O 	0.5125	0.7158	0.7173	-0.369
Mof_O 	O 	0.4984	0.9942	0.9171	-0.706
Mof_O 	O 	0.4875	0.2842	0.2827	-0.369
Mof_O 	O 	0.7661	0.0005	0.0828	-0.387
Mof_O 	O 	0.6863	0.1042	0.712	-0.376
Mof_O 	O 	0.7661	0.9995	0.4172	-0.386
Mof_O 	O 	0.5595	0.252	0.5975	-0.35
Mof_O 	O 	0.3772	0.7827	0.9745	-0.373
Mof_O 	O 	0.2339	0.0005	0.5828	-0.386
Mof_O 	O 	0.6805	0.1082	0.2107	-0.384
Mof_O 	O 	0.3137	0.8958	0.288	-0.376
Mof_O 	O 	0.5016	0.0058	0.0829	-0.706
Mof_O 	O 	0.4405	0.748	0.4025	-0.35
Mof_O 	O 	0.6805	0.8918	0.2893	-0.383
Mof_O 	O 	0.7668	0.0105	0.9152	-0.39
Mof_O 	O 	0.4422	0.1882	0.8776	-0.317
Mof_O 	O 	0.5578	0.1882	0.3776	-0.317
Mof_O 	O 	0.5578	0.8118	0.1224	-0.317
Mof_O 	O 	0.7668	0.9895	0.5848	-0.394
Mof_O 	O 	0.6863	0.8958	0.788	-0.376
Mof_O 	O 	0.3772	0.2173	0.5255	-0.372
Mof_O 	O 	0.4422	0.8118	0.6224	-0.317
Mof_O 	O 	0.3137	0.1042	0.212	-0.376
Mof_O 	O 	0.2332	0.9895	0.0848	-0.39
Mof_H 	H 	0.0705	0.6531	0.8566	0.163
Mof_H 	H 	0.216	0.7459	0.0132	0.182
Mof_H 	H 	0.0652	0.5481	0.6954	0.05
Mof_H 	H 	0.2077	0.5491	0.9631	-0.013
Mof_H 	H 	0.2105	0.5463	0.7058	0.05
Mof_H 	H 	0.0691	0.5553	0.9657	-0.022
Mof_H 	H 	0.1485	0.303	0.4182	0.155
Mof_H 	H 	0.2134	0.3572	0.6443	0.166
Mof_H 	H 	0.0705	0.3469	0.6434	0.162
Mof_H 	H 	0.216	0.2541	0.4868	0.18
Mof_H 	H 	0.0652	0.4519	0.8046	0.049
Mof_H 	H 	0.0691	0.4447	0.5343	-0.022
Mof_H 	H 	0.2105	0.4537	0.7942	0.049
Mof_H 	H 	0.0744	0.2533	0.4757	0.152
Mof_H 	H 	0.2134	0.6428	0.8557	0.167
Mof_H 	H 	0.1485	0.697	0.0818	0.155
Mof_H 	H 	0.2077	0.4509	0.5369	-0.013
Mof_H 	H 	0.0744	0.7467	0.0243	0.153
Mof_C 	C 	0.1354	0.5084	0.7041	-0.048
Mof_C 	C 	0.1354	0.4916	0.7959	-0.044
Mof_C 	C 	0.1402	0.4065	0.543	0.154
Mof_C 	C 	0.1388	0.3875	0.6329	-0.37
Mof_C 	C 	0.1388	0.6125	0.8671	-0.373
Mof_C 	C 	0.1402	0.5935	0.957	0.154
Mof_N 	N 	0.1477	0.7084	0.0275	-0.379
Mof_N 	N 	0.1477	0.2916	0.4725	-0.378
Mof_H 	H 	0.9348	0.5481	0.1954	0.049
Mof_H 	H 	0.9295	0.6531	0.3566	0.162
Mof_H 	H 	0.7895	0.5463	0.2058	0.049
Mof_H 	H 	0.784	0.7459	0.5132	0.18
Mof_H 	H 	0.7895	0.4537	0.2942	0.05
Mof_H 	H 	0.7866	0.3572	0.1443	0.167
Mof_H 	H 	0.784	0.2541	0.9868	0.182
Mof_H 	H 	0.9348	0.4519	0.3046	0.05
Mof_H 	H 	0.9256	0.7467	0.5243	0.152
Mof_H 	H 	0.9309	0.5553	0.4657	-0.022
Mof_H 	H 	0.8515	0.303	0.9182	0.155
Mof_H 	H 	0.8515	0.697	0.5818	0.155
Mof_H 	H 	0.7866	0.6428	0.3557	0.166
Mof_H 	H 	0.9256	0.2533	0.9757	0.153
Mof_H 	H 	0.7923	0.4509	0.0369	-0.013
Mof_H 	H 	0.7923	0.5491	0.4631	-0.013
Mof_H 	H 	0.9309	0.4447	0.0343	-0.022
Mof_H 	H 	0.9295	0.3469	0.1434	0.163
Mof_C 	C 	0.8612	0.6125	0.3671	-0.37
Mof_C 	C 	0.8598	0.5935	0.457	0.154
Mof_C 	C 	0.8646	0.5084	0.2041	-0.044
Mof_C 	C 	0.8612	0.3875	0.1329	-0.373
Mof_C 	C 	0.8646	0.4916	0.2959	-0.048
Mof_C 	C 	0.8598	0.4065	0.043	0.154
Mof_N 	N 	0.8523	0.7084	0.5275	-0.378
Mof_N 	N 	0.8523	0.2916	0.9725	-0.379
_end
