data_functionalizedCrystal
_audit_creation_method	'EQeq! by Chris Wilmer'
_symmetry_space_group_name_H-M	'P1'
_symmetry_Int_Tables_number	1
_symmetry_cell_setting	triclinic
loop_
_symmetry_equiv_pos_as_xyz
  x,y,z
_cell_length_a	5.5294
_cell_length_b	13.3523
_cell_length_c	20.642
_cell_angle_alpha	90
_cell_angle_beta	95.378
_cell_angle_gamma	90
loop_
_atom_site_label
_atom_site_type_symbol
_atom_site_fract_x
_atom_site_fract_y
_atom_site_fract_z
_atom_site_charge
Mof_Tb	Tb	0.87235	0.63267	0.52782	1.84
Mof_Tb	Tb	0.12765	0.13267	0.97218	1.828
Mof_Tb	Tb	0.12765	0.36733	0.47218	1.84
Mof_Tb	Tb	0.87235	0.86733	0.02782	1.828
Mof_P 	P 	0.5899	0.52088	0.41395	0.493
Mof_P 	P 	0.4101	0.02088	0.08605	0.493
Mof_P 	P 	0.4101	0.47912	0.58605	0.493
Mof_P 	P 	0.5899	0.97912	0.91395	0.493
Mof_H 	H 	0.8351	0.5802	0.3367	0.071
Mof_H 	H 	0.7406	0.4729	0.3171	0.098
Mof_H 	H 	0.6226	0.7286	0.2984	0.038
Mof_H 	H 	0.4144	0.6989	0.3417	0.04
Mof_H 	H 	0.1248	0.7013	0.2488	0.049
Mof_H 	H 	0.2535	0.8061	0.2549	0.043
Mof_H 	H 	0.5154	0.7585	0.1754	0.066
Mof_H 	H 	0.4517	0.5998	0.122	0.022
Mof_H 	H 	0.2481	0.5736	0.1676	0.037
Mof_H 	H 	0.6253	0.4977	0.2098	0.042
Mof_H 	H 	0.7485	0.6039	0.2151	0.047
Mof_H 	H 	0.1649	0.0802	0.1633	0.071
Mof_H 	H 	0.2594	0.9729	0.1829	0.1
Mof_H 	H 	0.3774	0.2286	0.2016	0.039
Mof_H 	H 	0.5856	0.1989	0.1583	0.041
Mof_H 	H 	0.8752	0.2013	0.2512	0.049
Mof_H 	H 	0.7465	0.3061	0.2451	0.043
Mof_H 	H 	0.4846	0.2585	0.3246	0.067
Mof_H 	H 	0.5483	0.0998	0.378	0.021
Mof_H 	H 	0.7519	0.0736	0.3324	0.036
Mof_H 	H 	0.3747	0.9977	0.2902	0.042
Mof_H 	H 	0.2515	0.1039	0.2849	0.047
Mof_H 	H 	0.1649	0.4198	0.6633	0.071
Mof_H 	H 	0.2594	0.5271	0.6829	0.098
Mof_H 	H 	0.3774	0.2714	0.7016	0.038
Mof_H 	H 	0.5856	0.3011	0.6583	0.04
Mof_H 	H 	0.8752	0.2987	0.7512	0.049
Mof_H 	H 	0.7465	0.1939	0.7451	0.043
Mof_H 	H 	0.4846	0.2415	0.8246	0.066
Mof_H 	H 	0.5483	0.4002	0.878	0.022
Mof_H 	H 	0.7519	0.4264	0.8324	0.037
Mof_H 	H 	0.3747	0.5023	0.7902	0.042
Mof_H 	H 	0.2515	0.3961	0.7849	0.047
Mof_H 	H 	0.8351	0.9198	0.8367	0.071
Mof_H 	H 	0.7406	0.0271	0.8171	0.1
Mof_H 	H 	0.6226	0.7714	0.7984	0.039
Mof_H 	H 	0.4144	0.8011	0.8417	0.041
Mof_H 	H 	0.1248	0.7987	0.7488	0.049
Mof_H 	H 	0.2535	0.6939	0.7549	0.043
Mof_H 	H 	0.5154	0.7415	0.6754	0.067
Mof_H 	H 	0.4517	0.9002	0.622	0.021
Mof_H 	H 	0.2481	0.9264	0.6676	0.036
Mof_H 	H 	0.6253	0.0023	0.7098	0.042
Mof_H 	H 	0.7485	0.8961	0.7151	0.047
Mof_C 	C 	0.6922	0.5377	0.3328	-0.215
Mof_C 	C 	0.4709	0.6922	0.2988	-0.07
Mof_C 	C 	0.2783	0.7356	0.2464	-0.065
Mof_C 	C 	0.3615	0.723	0.1779	-0.13
Mof_C 	C 	0.3996	0.6094	0.1651	-0.057
Mof_C 	C 	0.5969	0.5682	0.2175	-0.077
Mof_C 	C 	0.1704	0.7642	0.1251	0.343
Mof_C 	C 	0.3078	0.0377	0.1672	-0.219
Mof_C 	C 	0.5291	0.1922	0.2012	-0.071
Mof_C 	C 	0.7217	0.2356	0.2536	-0.064
Mof_C 	C 	0.6385	0.223	0.3221	-0.132
Mof_C 	C 	0.6004	0.1094	0.3349	-0.055
Mof_C 	C 	0.4031	0.0682	0.2825	-0.08
Mof_C 	C 	0.8296	0.2642	0.3749	0.345
Mof_C 	C 	0.3078	0.4623	0.6672	-0.215
Mof_C 	C 	0.5291	0.3078	0.7012	-0.07
Mof_C 	C 	0.7217	0.2644	0.7536	-0.065
Mof_C 	C 	0.6385	0.277	0.8221	-0.13
Mof_C 	C 	0.6004	0.3906	0.8349	-0.057
Mof_C 	C 	0.4031	0.4318	0.7825	-0.077
Mof_C 	C 	0.8296	0.2358	0.8749	0.343
Mof_C 	C 	0.6922	0.9623	0.8328	-0.219
Mof_C 	C 	0.4709	0.8078	0.7988	-0.071
Mof_C 	C 	0.2783	0.7644	0.7464	-0.064
Mof_C 	C 	0.3615	0.777	0.6779	-0.132
Mof_C 	C 	0.3996	0.8906	0.6651	-0.055
Mof_C 	C 	0.5969	0.9318	0.7175	-0.08
Mof_C 	C 	0.1704	0.7358	0.6251	0.345
Mof_N 	N 	0.5095	0.5822	0.2834	-0.07
Mof_N 	N 	0.4905	0.0822	0.2166	-0.069
Mof_N 	N 	0.4905	0.4178	0.7166	-0.07
Mof_N 	N 	0.5095	0.9178	0.7834	-0.069
Mof_O 	O 	0.5408	0.623	0.4444	-0.499
Mof_O 	O 	0.8224	0.4814	0.4543	-0.623
Mof_O 	O 	0.376	0.4502	0.40914	-0.494
Mof_O 	O 	0.002	0.8192	0.1409	-0.432
Mof_O 	O 	0.1978	0.7488	0.0674	-0.491
Mof_O 	O 	0.4592	0.123	0.0556	-0.496
Mof_O 	O 	0.1776	0.9814	0.0457	-0.618
Mof_O 	O 	0.624	0.9502	0.09086	-0.495
Mof_O 	O 	0.998	0.3192	0.3591	-0.436
Mof_O 	O 	0.8022	0.2488	0.4326	-0.493
Mof_O 	O 	0.4592	0.377	0.5556	-0.499
Mof_O 	O 	0.1776	0.5186	0.5457	-0.623
Mof_O 	O 	0.624	0.5498	0.59086	-0.494
Mof_O 	O 	0.998	0.1808	0.8591	-0.432
Mof_O 	O 	0.8022	0.2512	0.9326	-0.491
Mof_O 	O 	0.5408	0.877	0.9444	-0.496
Mof_O 	O 	0.8224	0.0186	0.9543	-0.618
Mof_O 	O 	0.376	0.0498	0.90914	-0.495
Mof_O 	O 	0.002	0.6808	0.6409	-0.436
Mof_O 	O 	0.1978	0.7512	0.5674	-0.493
_end
