data_functionalizedCrystal
_audit_creation_method	'EQeq! by Chris Wilmer'
_symmetry_space_group_name_H-M	'P1'
_symmetry_Int_Tables_number	1
_symmetry_cell_setting	triclinic
loop_
_symmetry_equiv_pos_as_xyz
  x,y,z
_cell_length_a	13.89
_cell_length_b	14.33
_cell_length_c	19.017
_cell_angle_alpha	68.31
_cell_angle_beta	75.83
_cell_angle_gamma	84.36
loop_
_atom_site_label
_atom_site_type_symbol
_atom_site_fract_x
_atom_site_fract_y
_atom_site_fract_z
_atom_site_charge
Mof_Ni	Ni	0.42223	0.6237	0.21767	1.068
Mof_Ni	Ni	0.17112	0.86447	0.61185	1.093
Mof_O 	O 	0.72025	0.4246	0.77468	-0.419
Mof_O 	O 	0.705	0.5853	0.7291	-0.319
Mof_O 	O 	0.36221	0.77089	0.18956	-0.381
Mof_O 	O 	0.36136	0.67571	0.31043	-0.384
Mof_O 	O 	0.1411	0.72463	0.69702	-0.397
Mof_O 	O 	0.02526	0.79244	0.63331	-0.358
Mof_O 	O 	0.21985	0.80999	0.52025	-0.379
Mof_O 	O 	0.18047	0.96775	0.49519	-0.385
Mof_O 	O 	0.02605	0.3797	0.88059	-0.25
Mof_O 	O 	0.22812	0.10168	0.19544	-0.251
Mof_N 	N 	0.47471	0.608	0.11171	-0.289
Mof_N 	N 	0.5023	0.6421	0.98469	-0.179
Mof_N 	N 	0.46991	0.868	0.62385	-0.176
Mof_N 	N 	0.31412	0.89114	0.60915	-0.283
Mof_N 	N 	0.5586	0.6918	0.205	-0.275
Mof_N 	N 	0.6817	0.7496	0.2309	-0.173
Mof_N 	N 	0.9741	0.9565	0.25845	-0.169
Mof_N 	N 	0.88572	0.0591	0.31471	-0.287
Mof_C 	C 	0.6275	0.5012	0.131	-0.084
Mof_H 	H 	0.6166	0.4878	0.184	0.021
Mof_C 	C 	0.5628	0.5609	0.08836	0.031
Mof_C 	C 	0.5796	0.5825	0.0091	0.071
Mof_C 	C 	0.6627	0.5438	0.9698	-0.11
Mof_H 	H 	0.6743	0.5585	0.9165	0.069
Mof_C 	C 	0.7262	0.4833	0.0129	-0.015
Mof_H 	H 	0.7819	0.4561	0.9884	0.025
Mof_C 	C 	0.7092	0.4616	0.0927	-0.048
Mof_H 	H 	0.7534	0.4201	0.1205	0.037
Mof_C 	C 	0.4399	0.6565	0.04794	0.33
Mof_C 	C 	0.3486	0.7181	0.0442	-0.912
Mof_H 	H 	0.3164	0.717	0.0953	0.301
Mof_H 	H 	0.3048	0.6914	0.0245	0.299
Mof_H 	H 	0.3652	0.786	0.0104	0.296
Mof_C 	C 	0.4893	0.6847	0.90441	-0
Mof_H 	H 	0.4189	0.6899	0.9052	0.026
Mof_H 	H 	0.5191	0.6396	0.8774	0.033
Mof_C 	C 	0.5362	0.7889	0.8597	-0.172
Mof_H 	H 	0.5081	0.8334	0.8877	0.076
Mof_H 	H 	0.607	0.7833	0.8574	0.09
Mof_C 	C 	0.5198	0.835	0.7774	-0.021
Mof_H 	H 	0.4494	0.8486	0.7801	0.036
Mof_H 	H 	0.5541	0.8987	0.7514	0.041
Mof_C 	C 	0.555	0.7702	0.7298	-0.163
Mof_H 	H 	0.5105	0.7135	0.7501	0.071
Mof_H 	H 	0.6199	0.7437	0.7381	0.091
Mof_C 	C 	0.563	0.8178	0.64201	-0.001
Mof_H 	H 	0.6162	0.8664	0.619	0.04
Mof_H 	H 	0.5794	0.7662	0.6193	0.024
Mof_C 	C 	0.4518	0.9696	0.60275	0.062
Mof_C 	C 	0.511	0.051	0.5896	-0.091
Mof_H 	H 	0.5758	0.0412	0.5962	0.07
Mof_C 	C 	0.4704	0.1445	0.5667	-0.024
Mof_H 	H 	0.5079	0.1994	0.5586	0.031
Mof_C 	C 	0.3732	0.1605	0.5549	-0.026
Mof_H 	H 	0.3485	0.2256	0.537	0.025
Mof_C 	C 	0.3146	0.081	0.5696	-0.094
Mof_H 	H 	0.2495	0.0914	0.5635	0.052
Mof_C 	C 	0.354	0.9847	0.59354	0.049
Mof_C 	C 	0.386	0.824	0.6258	0.328
Mof_C 	C 	0.3782	0.716	0.6436	-0.879
Mof_H 	H 	0.3263	0.7044	0.6225	0.281
Mof_H 	H 	0.3632	0.6816	0.6989	0.278
Mof_H 	H 	0.4401	0.6912	0.621	0.276
Mof_C 	C 	0.5749	0.8266	0.0703	-0.092
Mof_H 	H 	0.5196	0.808	0.0592	0.054
Mof_C 	C 	0.6315	0.9056	0.0169	-0.029
Mof_H 	H 	0.6157	0.939	0.9689	0.039
Mof_C 	C 	0.7095	0.9356	0.0328	-0.019
Mof_H 	H 	0.7479	0.9883	0.9947	0.029
Mof_C 	C 	0.7344	0.8918	0.1024	-0.101
Mof_H 	H 	0.7856	0.9162	0.1142	0.065
Mof_C 	C 	0.6793	0.8078	0.1559	0.061
Mof_C 	C 	0.5998	0.7746	0.1404	0.05
Mof_C 	C 	0.6115	0.6784	0.2553	0.286
Mof_C 	C 	0.5977	0.5952	0.3342	-0.773
Mof_H 	H 	0.5298	0.5739	0.3518	0.229
Mof_H 	H 	0.6144	0.6194	0.3705	0.252
Mof_H 	H 	0.6402	0.5394	0.3303	0.238
Mof_C 	C 	0.7465	0.7703	0.2759	0.008
Mof_H 	H 	0.7718	0.8381	0.2495	0.034
Mof_H 	H 	0.7076	0.765	0.3271	0.022
Mof_C 	C 	0.8279	0.7004	0.2835	-0.171
Mof_H 	H 	0.856	0.6924	0.234	0.09
Mof_H 	H 	0.8044	0.6355	0.3213	0.073
Mof_C 	C 	0.9114	0.7392	0.3104	-0.035
Mof_H 	H 	0.8825	0.7837	0.3381	0.037
Mof_H 	H 	0.9425	0.6829	0.3446	0.036
Mof_C 	C 	0.9877	0.7949	0.2372	-0.148
Mof_H 	H 	0.0363	0.7472	0.2239	0.074
Mof_H 	H 	0.9547	0.8257	0.1946	0.078
Mof_C 	C 	0.0408	0.8757	0.2471	-0.009
Mof_H 	H 	0.0709	0.8454	0.2915	0.032
Mof_H 	H 	0.0936	0.9034	0.2014	0.037
Mof_C 	C 	0.9831	0.9268	0.396	-0.875
Mof_H 	H 	0.9756	0.9691	0.4262	0.283
Mof_H 	H 	0.0519	0.9089	0.3829	0.297
Mof_H 	H 	0.9448	0.867	0.4257	0.288
Mof_C 	C 	0.9476	0.9815	0.3236	0.318
Mof_C 	C 	0.9251	0.0241	0.2038	0.045
Mof_C 	C 	0.9274	0.0367	0.1268	-0.082
Mof_H 	H 	0.9652	0.9948	0.1029	0.055
Mof_C 	C 	0.8716	0.1127	0.0888	-0.043
Mof_H 	H 	0.8726	0.125	0.0371	0.037
Mof_C 	C 	0.8139	0.1717	0.1254	-0.011
Mof_H 	H 	0.7742	0.2209	0.0981	0.019
Mof_C 	C 	0.8115	0.1621	0.2017	-0.113
Mof_H 	H 	0.7729	0.2039	0.2251	0.06
Mof_C 	C 	0.8705	0.0857	0.24004	0.058
Mof_C 	C 	0.752	0.5095	0.7553	0.35
Mof_C 	C 	0.8549	0.5231	0.7628	-0.038
Mof_C 	C 	0.8981	0.446	0.81446	-0.133
Mof_H 	H 	0.865	0.3855	0.8424	0.084
Mof_C 	C 	0.99	0.4582	0.82497	0.18
Mof_C 	C 	0.0414	0.5473	0.7813	-0.144
Mof_H 	H 	0.104	0.555	0.7877	0.09
Mof_C 	C 	0.9992	0.6246	0.72814	-0.018
Mof_C 	C 	0.9054	0.6129	0.71895	-0.042
Mof_H 	H 	0.8765	0.6647	0.6838	0.061
Mof_C 	C 	0.0574	0.7195	0.68268	0.28
Mof_C 	C 	0.1166	0.396	0.897	0.105
Mof_H 	H 	0.1722	0.3952	0.8548	-0.004
Mof_H 	H 	0.1146	0.4609	0.9025	-0.001
Mof_C 	C 	0.1292	0.3133	0.9718	-0.19
Mof_H 	H 	0.1961	0.3155	0.9779	0.089
Mof_H 	H 	0.121	0.2489	0.9682	0.096
Mof_C 	C 	0.3442	0.7593	0.26041	0.275
Mof_C 	C 	0.3034	0.8457	0.2854	0.002
Mof_C 	C 	0.2866	0.9375	0.2308	-0.165
Mof_H 	H 	0.3028	0.9462	0.1783	0.106
Mof_C 	C 	0.246	0.016	0.2538	0.207
Mof_C 	C 	0.2247	0.0048	0.33208	-0.175
Mof_H 	H 	0.1995	0.0586	0.3475	0.103
Mof_C 	C 	0.2415	0.9124	0.38675	-0.009
Mof_C 	C 	0.2806	0.8331	0.36399	-0.07
Mof_H 	H 	0.2917	0.7714	0.4009	0.074
Mof_C 	C 	0.2121	0.8967	0.47157	0.27
Mof_C 	C 	0.1837	0.1855	0.21616	0.083
Mof_H 	H 	0.2283	0.2111	0.2368	0.007
Mof_H 	H 	0.122	0.166	0.255	0.015
Mof_C 	C 	0.1645	0.2642	0.14179	-0.166
Mof_H 	H 	0.2226	0.2688	0.1002	0.089
Mof_H 	H 	0.155	0.3288	0.1481	0.082
Mof_C 	C 	0.0748	0.2426	0.1184	-0.08
Mof_H 	H 	0.0165	0.2389	0.1596	0.059
Mof_H 	H 	0.0839	0.1775	0.1128	0.066
Mof_C 	C 	0.0564	0.3217	0.0422	-0.054
Mof_H 	H 	0.9896	0.314	0.038	0.053
Mof_H 	H 	0.0609	0.3881	0.0435	0.048
Mof_Ni	Ni	0.57777	0.3763	0.78233	1.069
Mof_Ni	Ni	0.82888	0.13553	0.38815	1.094
Mof_O 	O 	0.27975	0.5754	0.22532	-0.418
Mof_O 	O 	0.295	0.4147	0.2709	-0.318
Mof_O 	O 	0.63779	0.22911	0.81044	-0.38
Mof_O 	O 	0.63864	0.32429	0.68957	-0.383
Mof_O 	O 	0.8589	0.27537	0.30298	-0.396
Mof_O 	O 	0.97474	0.20756	0.36669	-0.357
Mof_O 	O 	0.78015	0.19001	0.47975	-0.378
Mof_O 	O 	0.81953	0.03225	0.50481	-0.384
Mof_O 	O 	0.97395	0.6203	0.11941	-0.25
Mof_O 	O 	0.77188	0.89832	0.80456	-0.251
Mof_N 	N 	0.52529	0.392	0.88829	-0.289
Mof_N 	N 	0.4977	0.3579	0.01531	-0.179
Mof_N 	N 	0.53009	0.132	0.37615	-0.176
Mof_N 	N 	0.68588	0.10886	0.39085	-0.283
Mof_N 	N 	0.4414	0.3082	0.795	-0.275
Mof_N 	N 	0.3183	0.2504	0.7691	-0.173
Mof_N 	N 	0.0259	0.0435	0.74155	-0.169
Mof_N 	N 	0.11428	0.9409	0.68529	-0.287
Mof_C 	C 	0.3725	0.4988	0.869	-0.084
Mof_H 	H 	0.3834	0.5122	0.816	0.021
Mof_C 	C 	0.4372	0.4391	0.91164	0.031
Mof_C 	C 	0.4204	0.4175	0.9909	0.071
Mof_C 	C 	0.3373	0.4562	0.0302	-0.11
Mof_H 	H 	0.3257	0.4415	0.0835	0.069
Mof_C 	C 	0.2738	0.5167	0.9871	-0.015
Mof_H 	H 	0.2181	0.5439	0.0116	0.025
Mof_C 	C 	0.2908	0.5384	0.9073	-0.048
Mof_H 	H 	0.2466	0.5799	0.8795	0.037
Mof_C 	C 	0.5601	0.3435	0.95206	0.33
Mof_C 	C 	0.6514	0.2819	0.9558	-0.912
Mof_H 	H 	0.6836	0.283	0.9047	0.301
Mof_H 	H 	0.6952	0.3086	0.9755	0.299
Mof_H 	H 	0.6348	0.214	0.9896	0.296
Mof_C 	C 	0.5107	0.3153	0.09559	-0
Mof_H 	H 	0.5811	0.3101	0.0948	0.026
Mof_H 	H 	0.4809	0.3604	0.1226	0.033
Mof_C 	C 	0.4638	0.2111	0.1403	-0.172
Mof_H 	H 	0.4919	0.1666	0.1123	0.076
Mof_H 	H 	0.393	0.2167	0.1426	0.09
Mof_C 	C 	0.4802	0.165	0.2226	-0.021
Mof_H 	H 	0.5506	0.1514	0.2199	0.036
Mof_H 	H 	0.4459	0.1013	0.2486	0.041
Mof_C 	C 	0.445	0.2298	0.2702	-0.163
Mof_H 	H 	0.4895	0.2865	0.2499	0.071
Mof_H 	H 	0.3801	0.2563	0.2619	0.091
Mof_C 	C 	0.437	0.1822	0.35799	-0.001
Mof_H 	H 	0.3838	0.1336	0.381	0.04
Mof_H 	H 	0.4206	0.2338	0.3807	0.024
Mof_C 	C 	0.5482	0.0304	0.39725	0.062
Mof_C 	C 	0.489	0.949	0.4104	-0.091
Mof_H 	H 	0.4242	0.9588	0.4038	0.07
Mof_C 	C 	0.5296	0.8555	0.4333	-0.024
Mof_H 	H 	0.4921	0.8006	0.4414	0.031
Mof_C 	C 	0.6268	0.8395	0.4451	-0.026
Mof_H 	H 	0.6515	0.7744	0.463	0.025
Mof_C 	C 	0.6854	0.919	0.4304	-0.094
Mof_H 	H 	0.7505	0.9086	0.4365	0.052
Mof_C 	C 	0.646	0.0153	0.40646	0.049
Mof_C 	C 	0.614	0.176	0.3742	0.328
Mof_C 	C 	0.6218	0.284	0.3564	-0.879
Mof_H 	H 	0.6737	0.2956	0.3775	0.281
Mof_H 	H 	0.6368	0.3184	0.3011	0.278
Mof_H 	H 	0.5599	0.3088	0.379	0.276
Mof_C 	C 	0.4251	0.1734	0.9297	-0.092
Mof_H 	H 	0.4804	0.192	0.9408	0.054
Mof_C 	C 	0.3685	0.0944	0.9831	-0.029
Mof_H 	H 	0.3843	0.061	0.0311	0.039
Mof_C 	C 	0.2905	0.0644	0.9672	-0.019
Mof_H 	H 	0.2521	0.0117	0.0053	0.029
Mof_C 	C 	0.2656	0.1082	0.8976	-0.101
Mof_H 	H 	0.2144	0.0838	0.8858	0.065
Mof_C 	C 	0.3207	0.1922	0.8441	0.061
Mof_C 	C 	0.4002	0.2254	0.8596	0.05
Mof_C 	C 	0.3885	0.3216	0.7447	0.286
Mof_C 	C 	0.4023	0.4048	0.6658	-0.773
Mof_H 	H 	0.4702	0.4261	0.6482	0.229
Mof_H 	H 	0.3856	0.3806	0.6295	0.252
Mof_H 	H 	0.3598	0.4606	0.6697	0.238
Mof_C 	C 	0.2535	0.2297	0.7241	0.008
Mof_H 	H 	0.2282	0.1619	0.7505	0.034
Mof_H 	H 	0.2924	0.235	0.6729	0.022
Mof_C 	C 	0.1721	0.2996	0.7165	-0.171
Mof_H 	H 	0.144	0.3076	0.766	0.09
Mof_H 	H 	0.1956	0.3645	0.6787	0.073
Mof_C 	C 	0.0886	0.2608	0.6896	-0.035
Mof_H 	H 	0.1175	0.2163	0.6619	0.037
Mof_H 	H 	0.0575	0.3171	0.6554	0.036
Mof_C 	C 	0.0123	0.2051	0.7628	-0.148
Mof_H 	H 	0.9637	0.2528	0.7761	0.074
Mof_H 	H 	0.0453	0.1743	0.8054	0.078
Mof_C 	C 	0.9592	0.1243	0.7529	-0.009
Mof_H 	H 	0.9291	0.1546	0.7085	0.032
Mof_H 	H 	0.9064	0.0966	0.7986	0.037
Mof_C 	C 	0.0169	0.0732	0.604	-0.875
Mof_H 	H 	0.0244	0.0309	0.5738	0.283
Mof_H 	H 	0.9481	0.0911	0.6171	0.297
Mof_H 	H 	0.0552	0.133	0.5743	0.288
Mof_C 	C 	0.0524	0.0185	0.6764	0.318
Mof_C 	C 	0.0749	0.9759	0.7962	0.045
Mof_C 	C 	0.0726	0.9633	0.8732	-0.082
Mof_H 	H 	0.0348	0.0052	0.8971	0.055
Mof_C 	C 	0.1284	0.8873	0.9112	-0.043
Mof_H 	H 	0.1274	0.875	0.9629	0.037
Mof_C 	C 	0.1861	0.8283	0.8746	-0.011
Mof_H 	H 	0.2258	0.7791	0.9019	0.019
Mof_C 	C 	0.1885	0.8379	0.7983	-0.113
Mof_H 	H 	0.2271	0.7961	0.7749	0.06
Mof_C 	C 	0.1295	0.9143	0.75996	0.058
Mof_C 	C 	0.248	0.4905	0.2447	0.35
Mof_C 	C 	0.1451	0.4769	0.2372	-0.038
Mof_C 	C 	0.1019	0.554	0.18554	-0.133
Mof_H 	H 	0.135	0.6145	0.1576	0.084
Mof_C 	C 	0.01	0.5418	0.17503	0.18
Mof_C 	C 	0.9586	0.4527	0.2187	-0.144
Mof_H 	H 	0.896	0.445	0.2123	0.09
Mof_C 	C 	0.0008	0.3754	0.27186	-0.018
Mof_C 	C 	0.0946	0.3871	0.28105	-0.042
Mof_H 	H 	0.1235	0.3353	0.3162	0.061
Mof_C 	C 	0.9426	0.2805	0.31732	0.28
Mof_C 	C 	0.8834	0.604	0.103	0.105
Mof_H 	H 	0.8278	0.6048	0.1452	-0.004
Mof_H 	H 	0.8854	0.5391	0.0975	-0.001
Mof_C 	C 	0.8708	0.6867	0.0282	-0.19
Mof_H 	H 	0.8039	0.6845	0.0221	0.089
Mof_H 	H 	0.879	0.7511	0.0318	0.096
Mof_C 	C 	0.6558	0.2407	0.73959	0.275
Mof_C 	C 	0.6966	0.1543	0.7146	0.002
Mof_C 	C 	0.7134	0.0625	0.7692	-0.165
Mof_H 	H 	0.6972	0.0538	0.8217	0.106
Mof_C 	C 	0.754	0.984	0.7462	0.207
Mof_C 	C 	0.7753	0.9952	0.66792	-0.175
Mof_H 	H 	0.8005	0.9414	0.6525	0.103
Mof_C 	C 	0.7585	0.0876	0.61325	-0.009
Mof_C 	C 	0.7194	0.1669	0.63601	-0.07
Mof_H 	H 	0.7083	0.2286	0.5991	0.074
Mof_C 	C 	0.7879	0.1033	0.52843	0.27
Mof_C 	C 	0.8163	0.8145	0.78384	0.083
Mof_H 	H 	0.7717	0.7889	0.7632	0.007
Mof_H 	H 	0.878	0.834	0.745	0.015
Mof_C 	C 	0.8355	0.7358	0.85821	-0.166
Mof_H 	H 	0.7774	0.7312	0.8998	0.089
Mof_H 	H 	0.845	0.6712	0.8519	0.082
Mof_C 	C 	0.9252	0.7574	0.8816	-0.08
Mof_H 	H 	0.9835	0.7611	0.8404	0.059
Mof_H 	H 	0.9161	0.8225	0.8872	0.066
Mof_C 	C 	0.9436	0.6783	0.9578	-0.054
Mof_H 	H 	0.0104	0.686	0.962	0.053
Mof_H 	H 	0.9391	0.6119	0.9565	0.048
_end
