data_functionalizedCrystal
_audit_creation_method	'EQeq! by Chris Wilmer'
_symmetry_space_group_name_H-M	'P1'
_symmetry_Int_Tables_number	1
_symmetry_cell_setting	triclinic
loop_
_symmetry_equiv_pos_as_xyz
  x,y,z
_cell_length_a	10.941
_cell_length_b	33.973
_cell_length_c	14.014
_cell_angle_alpha	90
_cell_angle_beta	98.89
_cell_angle_gamma	90
loop_
_atom_site_label
_atom_site_type_symbol
_atom_site_fract_x
_atom_site_fract_y
_atom_site_fract_z
_atom_site_charge
Mof_Cl	Cl	0.678	0.45	0.286	-0.191
Mof_O 	O 	0.359	0.4148	0.693	-0.282
Mof_O 	O 	0.286	0.3558	0.663	-0.273
Mof_O 	O 	0.586	0.371	0.605	-0.275
Mof_O 	O 	0.555	0.3104	0.647	-0.28
Mof_O 	O 	0.783	0.469	0.228	-0.058
Mof_O 	O 	0.74	0.434	0.377	-0.125
Mof_O 	O 	0.624	0.486	0.313	-0.062
Mof_O 	O 	0.62	0.419	0.222	-0.023
Mof_C 	C 	0.274	0.3928	0.664	0.345
Mof_C 	C 	0.145	0.4104	0.633	-0.178
Mof_C 	C 	0.048	0.389	0.596	0.125
Mof_H 	H 	0.0596	0.3619	0.5812	0.006
Mof_C 	C 	0.929	0.404	0.579	-0.214
Mof_H 	H 	0.8593	0.3881	0.5586	0.13
Mof_C 	C 	0.915	0.444	0.591	0.251
Mof_C 	C 	0.009	0.466	0.627	-0.283
Mof_H 	H 	0.9981	0.4935	0.6369	0.155
Mof_C 	C 	0.126	0.4483	0.651	0.144
Mof_H 	H 	0.1934	0.4638	0.681	0.015
Mof_N 	N 	0.705	0.2845	0.226	-0.159
Mof_C 	C 	0.699	0.451	0.613	0.154
Mof_H 	H 	0.712	0.4303	0.6585	0.025
Mof_C 	C 	0.582	0.466	0.591	0.042
Mof_H 	H 	0.5141	0.4544	0.6153	0.071
Mof_C 	C 	0.565	0.498	0.532	0.125
Mof_C 	C 	0.667	0.516	0.505	-0.142
Mof_H 	H 	0.6597	0.5399	0.472	0.105
Mof_C 	C 	0.78	0.498	0.527	0.073
Mof_H 	H 	0.8503	0.5093	0.5064	0.02
Mof_N 	N 	0.788	0.445	0.52	-0.105
Mof_C 	C 	0.706	0.441	0.584	-0.047
Mof_C 	C 	0.59	0.462	0.561	-0.116
Mof_C 	C 	0.558	0.479	0.481	-0.061
Mof_C 	C 	0.637	0.474	0.411	0.098
Mof_C 	C 	0.751	0.458	0.434	0.172
Mof_C 	C 	0.586	0.3353	0.591	0.328
Mof_C 	C 	0.623	0.3216	0.495	-0.124
Mof_C 	C 	0.653	0.3483	0.43	0.082
Mof_H 	H 	0.6549	0.3755	0.4457	0.043
Mof_C 	C 	0.679	0.3363	0.341	-0.175
Mof_H 	H 	0.6984	0.3552	0.2951	0.125
Mof_C 	C 	0.678	0.2981	0.319	0.16
Mof_C 	C 	0.648	0.2693	0.384	-0.159
Mof_H 	H 	0.647	0.2421	0.3681	0.096
Mof_C 	C 	0.62	0.2817	0.473	0.065
Mof_H 	H 	0.599	0.263	0.5186	0.025
Mof_C 	C 	0.778	0.253	0.22	0.091
Mof_H 	H 	0.8171	0.2403	0.2777	0.029
Mof_C 	C 	0.795	0.2388	0.133	-0.129
Mof_H 	H 	0.8438	0.216	0.13	0.108
Mof_C 	C 	0.742	0.2569	0.048	0.065
Mof_C 	C 	0.685	0.293	0.058	-0.128
Mof_H 	H 	0.6595	0.3092	0.0032	0.091
Mof_C 	C 	0.665	0.305	0.148	0.092
Mof_H 	H 	0.6216	0.3286	0.1538	0.019
Mof_N 	N 	0.793	0.4641	0.576	-0.128
Mof_Cl	Cl	0.178	0.95	0.286	-0.19
Mof_O 	O 	0.859	0.9148	0.693	-0.273
Mof_O 	O 	0.786	0.8558	0.663	-0.266
Mof_O 	O 	0.086	0.871	0.605	-0.276
Mof_O 	O 	0.055	0.8104	0.647	-0.283
Mof_O 	O 	0.283	0.969	0.228	-0.059
Mof_O 	O 	0.24	0.934	0.377	-0.125
Mof_O 	O 	0.124	0.986	0.313	-0.065
Mof_O 	O 	0.12	0.919	0.222	-0.027
Mof_C 	C 	0.774	0.8928	0.664	0.34
Mof_C 	C 	0.645	0.9104	0.633	-0.165
Mof_C 	C 	0.548	0.889	0.596	0.128
Mof_H 	H 	0.5596	0.8619	0.5812	0.009
Mof_C 	C 	0.429	0.904	0.579	-0.213
Mof_H 	H 	0.3593	0.8881	0.5586	0.128
Mof_C 	C 	0.415	0.944	0.591	0.22
Mof_C 	C 	0.509	0.966	0.627	-0.227
Mof_H 	H 	0.4981	0.9935	0.6369	0.129
Mof_C 	C 	0.626	0.9483	0.651	0.117
Mof_H 	H 	0.6934	0.9638	0.681	0.025
Mof_N 	N 	0.205	0.7845	0.226	-0.16
Mof_C 	C 	0.199	0.951	0.613	0.154
Mof_H 	H 	0.212	0.9303	0.6585	0.026
Mof_C 	C 	0.082	0.966	0.591	0.045
Mof_H 	H 	0.0141	0.9544	0.6153	0.064
Mof_C 	C 	0.065	0.998	0.532	0.105
Mof_C 	C 	0.167	0.016	0.505	-0.129
Mof_H 	H 	0.1597	0.0399	0.472	0.098
Mof_C 	C 	0.28	0.998	0.527	0.065
Mof_H 	H 	0.3503	0.0093	0.5064	0.021
Mof_N 	N 	0.288	0.945	0.52	-0.102
Mof_C 	C 	0.206	0.941	0.584	-0.051
Mof_C 	C 	0.09	0.962	0.561	-0.112
Mof_C 	C 	0.058	0.979	0.481	-0.065
Mof_C 	C 	0.137	0.974	0.411	0.096
Mof_C 	C 	0.251	0.958	0.434	0.172
Mof_C 	C 	0.086	0.8353	0.591	0.328
Mof_C 	C 	0.123	0.8216	0.495	-0.127
Mof_C 	C 	0.153	0.8483	0.43	0.081
Mof_H 	H 	0.1549	0.8755	0.4457	0.042
Mof_C 	C 	0.179	0.8363	0.341	-0.176
Mof_H 	H 	0.1984	0.8552	0.2951	0.123
Mof_C 	C 	0.178	0.7981	0.319	0.158
Mof_C 	C 	0.148	0.7693	0.384	-0.161
Mof_H 	H 	0.147	0.7421	0.3681	0.094
Mof_C 	C 	0.12	0.7817	0.473	0.064
Mof_H 	H 	0.099	0.763	0.5186	0.023
Mof_C 	C 	0.278	0.753	0.22	0.088
Mof_H 	H 	0.3171	0.7403	0.2777	0.028
Mof_C 	C 	0.295	0.7388	0.133	-0.13
Mof_H 	H 	0.3438	0.716	0.13	0.105
Mof_C 	C 	0.242	0.7569	0.048	0.064
Mof_C 	C 	0.185	0.793	0.058	-0.13
Mof_H 	H 	0.1595	0.8092	0.0032	0.089
Mof_C 	C 	0.165	0.805	0.148	0.09
Mof_H 	H 	0.1216	0.8286	0.1538	0.016
Mof_N 	N 	0.293	0.9641	0.576	-0.123
Mof_Cl	Cl	0.322	0.45	0.214	-0.19
Mof_O 	O 	0.641	0.4148	0.807	-0.279
Mof_O 	O 	0.714	0.3558	0.837	-0.269
Mof_O 	O 	0.414	0.371	0.895	-0.274
Mof_O 	O 	0.445	0.3104	0.853	-0.279
Mof_O 	O 	0.217	0.469	0.272	-0.06
Mof_O 	O 	0.26	0.434	0.123	-0.125
Mof_O 	O 	0.376	0.486	0.187	-0.061
Mof_O 	O 	0.38	0.419	0.278	-0.023
Mof_C 	C 	0.726	0.3928	0.836	0.338
Mof_C 	C 	0.855	0.4104	0.867	-0.155
Mof_C 	C 	0.952	0.389	0.904	0.133
Mof_H 	H 	0.9404	0.3619	0.9188	0.01
Mof_C 	C 	0.071	0.404	0.921	-0.214
Mof_H 	H 	0.1407	0.3881	0.9414	0.126
Mof_C 	C 	0.085	0.444	0.909	0.192
Mof_C 	C 	0.991	0.466	0.873	-0.174
Mof_H 	H 	0.0019	0.4935	0.8631	0.103
Mof_C 	C 	0.874	0.4483	0.849	0.092
Mof_H 	H 	0.8066	0.4638	0.819	0.034
Mof_N 	N 	0.295	0.2845	0.274	-0.159
Mof_C 	C 	0.301	0.451	0.887	0.153
Mof_H 	H 	0.288	0.4303	0.8415	0.026
Mof_C 	C 	0.418	0.466	0.909	0.042
Mof_H 	H 	0.4859	0.4544	0.8847	0.071
Mof_C 	C 	0.435	0.498	0.968	0.124
Mof_C 	C 	0.333	0.516	0.995	-0.141
Mof_H 	H 	0.3403	0.5399	0.028	0.105
Mof_C 	C 	0.22	0.498	0.973	0.071
Mof_H 	H 	0.1497	0.5093	0.9936	0.018
Mof_N 	N 	0.212	0.445	0.98	-0.1
Mof_C 	C 	0.294	0.441	0.916	-0.048
Mof_C 	C 	0.41	0.462	0.939	-0.116
Mof_C 	C 	0.442	0.479	0.019	-0.061
Mof_C 	C 	0.363	0.474	0.089	0.099
Mof_C 	C 	0.249	0.458	0.066	0.169
Mof_C 	C 	0.414	0.3353	0.909	0.327
Mof_C 	C 	0.377	0.3216	0.005	-0.124
Mof_C 	C 	0.347	0.3483	0.07	0.08
Mof_H 	H 	0.3451	0.3755	0.0543	0.043
Mof_C 	C 	0.321	0.3363	0.159	-0.175
Mof_H 	H 	0.3016	0.3552	0.2049	0.123
Mof_C 	C 	0.322	0.2981	0.181	0.158
Mof_C 	C 	0.352	0.2693	0.116	-0.159
Mof_H 	H 	0.353	0.2421	0.1319	0.096
Mof_C 	C 	0.38	0.2817	0.027	0.065
Mof_H 	H 	0.401	0.263	0.9814	0.025
Mof_C 	C 	0.222	0.253	0.28	0.087
Mof_H 	H 	0.1829	0.2403	0.2223	0.028
Mof_C 	C 	0.205	0.2388	0.367	-0.129
Mof_H 	H 	0.1562	0.216	0.37	0.103
Mof_C 	C 	0.258	0.2569	0.452	0.063
Mof_C 	C 	0.315	0.293	0.442	-0.128
Mof_H 	H 	0.3405	0.3092	0.4968	0.09
Mof_C 	C 	0.335	0.305	0.352	0.09
Mof_H 	H 	0.3784	0.3286	0.3462	0.019
Mof_N 	N 	0.207	0.4641	0.924	-0.122
Mof_Cl	Cl	0.822	0.95	0.214	-0.19
Mof_O 	O 	0.141	0.9148	0.807	-0.283
Mof_O 	O 	0.214	0.8558	0.837	-0.271
Mof_O 	O 	0.914	0.871	0.895	-0.269
Mof_O 	O 	0.945	0.8104	0.853	-0.272
Mof_O 	O 	0.717	0.969	0.272	-0.058
Mof_O 	O 	0.76	0.934	0.123	-0.124
Mof_O 	O 	0.876	0.986	0.187	-0.057
Mof_O 	O 	0.88	0.919	0.278	-0.017
Mof_C 	C 	0.226	0.8928	0.836	0.343
Mof_C 	C 	0.355	0.9104	0.867	-0.167
Mof_C 	C 	0.452	0.889	0.904	0.13
Mof_H 	H 	0.4404	0.8619	0.9188	0.008
Mof_C 	C 	0.571	0.904	0.921	-0.215
Mof_H 	H 	0.6407	0.8881	0.9414	0.128
Mof_C 	C 	0.585	0.944	0.909	0.222
Mof_C 	C 	0.491	0.966	0.873	-0.229
Mof_H 	H 	0.5019	0.9935	0.8631	0.129
Mof_C 	C 	0.374	0.9483	0.849	0.119
Mof_H 	H 	0.3066	0.9638	0.819	0.024
Mof_N 	N 	0.795	0.7845	0.274	-0.159
Mof_C 	C 	0.801	0.951	0.887	0.152
Mof_H 	H 	0.788	0.9303	0.8415	0.026
Mof_C 	C 	0.918	0.966	0.909	0.037
Mof_H 	H 	0.9859	0.9544	0.8847	0.079
Mof_C 	C 	0.935	0.998	0.968	0.138
Mof_C 	C 	0.833	0.016	0.995	-0.149
Mof_H 	H 	0.8403	0.0399	0.028	0.11
Mof_C 	C 	0.72	0.998	0.973	0.075
Mof_H 	H 	0.6497	0.0093	0.9936	0.018
Mof_N 	N 	0.712	0.945	0.98	-0.103
Mof_C 	C 	0.794	0.941	0.916	-0.043
Mof_C 	C 	0.91	0.962	0.939	-0.118
Mof_C 	C 	0.942	0.979	0.019	-0.052
Mof_C 	C 	0.863	0.974	0.089	0.099
Mof_C 	C 	0.749	0.958	0.066	0.17
Mof_C 	C 	0.914	0.8353	0.909	0.327
Mof_C 	C 	0.877	0.8216	0.005	-0.121
Mof_C 	C 	0.847	0.8483	0.07	0.081
Mof_H 	H 	0.8451	0.8755	0.0543	0.044
Mof_C 	C 	0.821	0.8363	0.159	-0.173
Mof_H 	H 	0.8016	0.8552	0.2049	0.124
Mof_C 	C 	0.822	0.7981	0.181	0.16
Mof_C 	C 	0.852	0.7693	0.116	-0.158
Mof_H 	H 	0.853	0.7421	0.1319	0.097
Mof_C 	C 	0.88	0.7817	0.027	0.066
Mof_H 	H 	0.901	0.763	0.9814	0.027
Mof_C 	C 	0.722	0.753	0.28	0.09
Mof_H 	H 	0.6829	0.7403	0.2223	0.028
Mof_C 	C 	0.705	0.7388	0.367	-0.128
Mof_H 	H 	0.6562	0.716	0.37	0.105
Mof_C 	C 	0.758	0.7569	0.452	0.065
Mof_C 	C 	0.815	0.793	0.442	-0.127
Mof_H 	H 	0.8405	0.8092	0.4968	0.093
Mof_C 	C 	0.835	0.805	0.352	0.092
Mof_H 	H 	0.8784	0.8286	0.3462	0.021
Mof_N 	N 	0.707	0.9641	0.924	-0.127
Mof_Cl	Cl	0.322	0.55	0.714	-0.19
Mof_O 	O 	0.641	0.5852	0.307	-0.279
Mof_O 	O 	0.714	0.6442	0.337	-0.269
Mof_O 	O 	0.414	0.629	0.395	-0.274
Mof_O 	O 	0.445	0.6896	0.353	-0.279
Mof_O 	O 	0.217	0.531	0.772	-0.06
Mof_O 	O 	0.26	0.566	0.623	-0.125
Mof_O 	O 	0.376	0.514	0.687	-0.061
Mof_O 	O 	0.38	0.581	0.778	-0.023
Mof_C 	C 	0.726	0.6072	0.336	0.338
Mof_C 	C 	0.855	0.5896	0.367	-0.155
Mof_C 	C 	0.952	0.611	0.404	0.133
Mof_H 	H 	0.9404	0.6381	0.4188	0.01
Mof_C 	C 	0.071	0.596	0.421	-0.214
Mof_H 	H 	0.1407	0.6119	0.4414	0.126
Mof_C 	C 	0.085	0.556	0.409	0.192
Mof_C 	C 	0.991	0.534	0.373	-0.174
Mof_H 	H 	0.0019	0.5065	0.3631	0.103
Mof_C 	C 	0.874	0.5517	0.349	0.093
Mof_H 	H 	0.8066	0.5362	0.319	0.034
Mof_N 	N 	0.295	0.7155	0.774	-0.159
Mof_C 	C 	0.301	0.549	0.387	0.153
Mof_H 	H 	0.288	0.5697	0.3415	0.026
Mof_C 	C 	0.418	0.534	0.409	0.042
Mof_H 	H 	0.4859	0.5456	0.3847	0.071
Mof_C 	C 	0.435	0.502	0.468	0.124
Mof_C 	C 	0.333	0.484	0.495	-0.141
Mof_H 	H 	0.3403	0.4601	0.528	0.104
Mof_C 	C 	0.22	0.502	0.473	0.071
Mof_H 	H 	0.1497	0.4907	0.4936	0.018
Mof_N 	N 	0.212	0.555	0.48	-0.1
Mof_C 	C 	0.294	0.559	0.416	-0.048
Mof_C 	C 	0.41	0.538	0.439	-0.116
Mof_C 	C 	0.442	0.521	0.519	-0.061
Mof_C 	C 	0.363	0.526	0.589	0.1
Mof_C 	C 	0.249	0.542	0.566	0.168
Mof_C 	C 	0.414	0.6647	0.409	0.328
Mof_C 	C 	0.377	0.6784	0.505	-0.124
Mof_C 	C 	0.347	0.6517	0.57	0.08
Mof_H 	H 	0.3451	0.6245	0.5543	0.043
Mof_C 	C 	0.321	0.6637	0.659	-0.175
Mof_H 	H 	0.3016	0.6448	0.7049	0.123
Mof_C 	C 	0.322	0.7019	0.681	0.158
Mof_C 	C 	0.352	0.7307	0.616	-0.159
Mof_H 	H 	0.353	0.7579	0.6319	0.095
Mof_C 	C 	0.38	0.7183	0.527	0.064
Mof_H 	H 	0.401	0.737	0.4814	0.025
Mof_C 	C 	0.222	0.747	0.78	0.087
Mof_H 	H 	0.1829	0.7597	0.7223	0.028
Mof_C 	C 	0.205	0.7612	0.867	-0.128
Mof_H 	H 	0.1562	0.784	0.87	0.102
Mof_C 	C 	0.258	0.7431	0.952	0.062
Mof_C 	C 	0.315	0.707	0.942	-0.127
Mof_H 	H 	0.3405	0.6908	0.9968	0.09
Mof_C 	C 	0.335	0.695	0.852	0.09
Mof_H 	H 	0.3784	0.6714	0.8462	0.019
Mof_N 	N 	0.207	0.5359	0.424	-0.122
Mof_Cl	Cl	0.822	0.05	0.714	-0.19
Mof_O 	O 	0.141	0.0852	0.307	-0.283
Mof_O 	O 	0.214	0.1442	0.337	-0.271
Mof_O 	O 	0.914	0.129	0.395	-0.269
Mof_O 	O 	0.945	0.1896	0.353	-0.272
Mof_O 	O 	0.717	0.031	0.772	-0.058
Mof_O 	O 	0.76	0.066	0.623	-0.123
Mof_O 	O 	0.876	0.014	0.687	-0.057
Mof_O 	O 	0.88	0.081	0.778	-0.017
Mof_C 	C 	0.226	0.1072	0.336	0.343
Mof_C 	C 	0.355	0.0896	0.367	-0.167
Mof_C 	C 	0.452	0.111	0.404	0.13
Mof_H 	H 	0.4404	0.1381	0.4188	0.008
Mof_C 	C 	0.571	0.096	0.421	-0.215
Mof_H 	H 	0.6407	0.1119	0.4414	0.128
Mof_C 	C 	0.585	0.056	0.409	0.222
Mof_C 	C 	0.491	0.034	0.373	-0.229
Mof_H 	H 	0.5019	0.0065	0.3631	0.129
Mof_C 	C 	0.374	0.0517	0.349	0.119
Mof_H 	H 	0.3066	0.0362	0.319	0.024
Mof_N 	N 	0.795	0.2155	0.774	-0.159
Mof_C 	C 	0.801	0.049	0.387	0.153
Mof_H 	H 	0.788	0.0697	0.3415	0.026
Mof_C 	C 	0.918	0.034	0.409	0.039
Mof_H 	H 	0.9859	0.0456	0.3847	0.079
Mof_C 	C 	0.935	0.002	0.468	0.142
Mof_C 	C 	0.833	0.984	0.495	-0.152
Mof_H 	H 	0.8403	0.9601	0.528	0.112
Mof_C 	C 	0.72	0.002	0.473	0.078
Mof_H 	H 	0.6497	0.9907	0.4936	0.017
Mof_N 	N 	0.712	0.055	0.48	-0.102
Mof_C 	C 	0.794	0.059	0.416	-0.044
Mof_C 	C 	0.91	0.038	0.439	-0.12
Mof_C 	C 	0.942	0.021	0.519	-0.056
Mof_C 	C 	0.863	0.026	0.589	0.101
Mof_C 	C 	0.749	0.042	0.566	0.169
Mof_C 	C 	0.914	0.1647	0.409	0.328
Mof_C 	C 	0.877	0.1784	0.505	-0.121
Mof_C 	C 	0.847	0.1517	0.57	0.081
Mof_H 	H 	0.8451	0.1245	0.5543	0.044
Mof_C 	C 	0.821	0.1637	0.659	-0.173
Mof_H 	H 	0.8016	0.1448	0.7049	0.124
Mof_C 	C 	0.822	0.2019	0.681	0.16
Mof_C 	C 	0.852	0.2307	0.616	-0.157
Mof_H 	H 	0.853	0.2579	0.6319	0.097
Mof_C 	C 	0.88	0.2183	0.527	0.065
Mof_H 	H 	0.901	0.237	0.4814	0.027
Mof_C 	C 	0.722	0.247	0.78	0.09
Mof_H 	H 	0.6829	0.2597	0.7223	0.028
Mof_C 	C 	0.705	0.2612	0.867	-0.128
Mof_H 	H 	0.6562	0.284	0.87	0.105
Mof_C 	C 	0.758	0.2431	0.952	0.065
Mof_C 	C 	0.815	0.207	0.942	-0.127
Mof_H 	H 	0.8405	0.1908	0.9968	0.093
Mof_C 	C 	0.835	0.195	0.852	0.092
Mof_H 	H 	0.8784	0.1714	0.8462	0.021
Mof_N 	N 	0.707	0.0359	0.424	-0.127
Mof_Cl	Cl	0.678	0.55	0.786	-0.19
Mof_O 	O 	0.359	0.5852	0.193	-0.281
Mof_O 	O 	0.286	0.6442	0.163	-0.272
Mof_O 	O 	0.586	0.629	0.105	-0.274
Mof_O 	O 	0.555	0.6896	0.147	-0.279
Mof_O 	O 	0.783	0.531	0.728	-0.057
Mof_O 	O 	0.74	0.566	0.877	-0.124
Mof_O 	O 	0.624	0.514	0.813	-0.061
Mof_O 	O 	0.62	0.581	0.722	-0.022
Mof_C 	C 	0.274	0.6072	0.164	0.345
Mof_C 	C 	0.145	0.5896	0.133	-0.177
Mof_C 	C 	0.048	0.611	0.096	0.125
Mof_H 	H 	0.0596	0.6381	0.0812	0.006
Mof_C 	C 	0.929	0.596	0.079	-0.214
Mof_H 	H 	0.8593	0.6119	0.0586	0.13
Mof_C 	C 	0.915	0.556	0.091	0.25
Mof_C 	C 	0.009	0.534	0.127	-0.281
Mof_H 	H 	0.9981	0.5065	0.1369	0.154
Mof_C 	C 	0.126	0.5517	0.151	0.143
Mof_H 	H 	0.1934	0.5362	0.181	0.015
Mof_N 	N 	0.705	0.7155	0.726	-0.159
Mof_C 	C 	0.699	0.549	0.113	0.154
Mof_H 	H 	0.712	0.5697	0.1585	0.025
Mof_C 	C 	0.582	0.534	0.091	0.042
Mof_H 	H 	0.5141	0.5456	0.1153	0.071
Mof_C 	C 	0.565	0.502	0.032	0.125
Mof_C 	C 	0.667	0.484	0.005	-0.141
Mof_H 	H 	0.6597	0.4601	0.972	0.105
Mof_C 	C 	0.78	0.502	0.027	0.073
Mof_H 	H 	0.8503	0.4907	0.0064	0.02
Mof_N 	N 	0.788	0.555	0.02	-0.105
Mof_C 	C 	0.706	0.559	0.084	-0.047
Mof_C 	C 	0.59	0.538	0.061	-0.116
Mof_C 	C 	0.558	0.521	0.981	-0.061
Mof_C 	C 	0.637	0.526	0.911	0.098
Mof_C 	C 	0.751	0.542	0.934	0.172
Mof_C 	C 	0.586	0.6647	0.091	0.328
Mof_C 	C 	0.623	0.6784	0.995	-0.124
Mof_C 	C 	0.653	0.6517	0.93	0.082
Mof_H 	H 	0.6549	0.6245	0.9457	0.043
Mof_C 	C 	0.679	0.6637	0.841	-0.174
Mof_H 	H 	0.6984	0.6448	0.7951	0.124
Mof_C 	C 	0.678	0.7019	0.819	0.16
Mof_C 	C 	0.648	0.7307	0.884	-0.159
Mof_H 	H 	0.647	0.7579	0.8681	0.095
Mof_C 	C 	0.62	0.7183	0.973	0.065
Mof_H 	H 	0.599	0.737	0.0186	0.025
Mof_C 	C 	0.778	0.747	0.72	0.091
Mof_H 	H 	0.8171	0.7597	0.7777	0.029
Mof_C 	C 	0.795	0.7612	0.633	-0.129
Mof_H 	H 	0.8438	0.784	0.63	0.108
Mof_C 	C 	0.742	0.7431	0.548	0.065
Mof_C 	C 	0.685	0.707	0.558	-0.128
Mof_H 	H 	0.6595	0.6908	0.5032	0.091
Mof_C 	C 	0.665	0.695	0.648	0.092
Mof_H 	H 	0.6216	0.6714	0.6538	0.019
Mof_N 	N 	0.793	0.5359	0.076	-0.128
Mof_Cl	Cl	0.178	0.05	0.786	-0.19
Mof_O 	O 	0.859	0.0852	0.193	-0.274
Mof_O 	O 	0.786	0.1442	0.163	-0.266
Mof_O 	O 	0.086	0.129	0.105	-0.276
Mof_O 	O 	0.055	0.1896	0.147	-0.283
Mof_O 	O 	0.283	0.031	0.728	-0.059
Mof_O 	O 	0.24	0.066	0.877	-0.126
Mof_O 	O 	0.124	0.014	0.813	-0.065
Mof_O 	O 	0.12	0.081	0.722	-0.027
Mof_C 	C 	0.774	0.1072	0.164	0.34
Mof_C 	C 	0.645	0.0896	0.133	-0.165
Mof_C 	C 	0.548	0.111	0.096	0.128
Mof_H 	H 	0.5596	0.1381	0.0812	0.009
Mof_C 	C 	0.429	0.096	0.079	-0.213
Mof_H 	H 	0.3593	0.1119	0.0586	0.128
Mof_C 	C 	0.415	0.056	0.091	0.22
Mof_C 	C 	0.509	0.034	0.127	-0.227
Mof_H 	H 	0.4981	0.0065	0.1369	0.129
Mof_C 	C 	0.626	0.0517	0.151	0.117
Mof_H 	H 	0.6934	0.0362	0.181	0.025
Mof_N 	N 	0.205	0.2155	0.726	-0.159
Mof_C 	C 	0.199	0.049	0.113	0.153
Mof_H 	H 	0.212	0.0697	0.1585	0.027
Mof_C 	C 	0.082	0.034	0.091	0.045
Mof_H 	H 	0.0141	0.0456	0.1153	0.064
Mof_C 	C 	0.065	0.002	0.032	0.102
Mof_C 	C 	0.167	0.984	0.005	-0.125
Mof_H 	H 	0.1597	0.9601	0.972	0.096
Mof_C 	C 	0.28	0.002	0.027	0.062
Mof_H 	H 	0.3503	0.9907	0.0064	0.022
Mof_N 	N 	0.288	0.055	0.02	-0.103
Mof_C 	C 	0.206	0.059	0.084	-0.051
Mof_C 	C 	0.09	0.038	0.061	-0.111
Mof_C 	C 	0.058	0.021	0.981	-0.062
Mof_C 	C 	0.137	0.026	0.911	0.094
Mof_C 	C 	0.251	0.042	0.934	0.173
Mof_C 	C 	0.086	0.1647	0.091	0.328
Mof_C 	C 	0.123	0.1784	0.995	-0.126
Mof_C 	C 	0.153	0.1517	0.93	0.08
Mof_H 	H 	0.1549	0.1245	0.9457	0.042
Mof_C 	C 	0.179	0.1637	0.841	-0.176
Mof_H 	H 	0.1984	0.1448	0.7951	0.123
Mof_C 	C 	0.178	0.2019	0.819	0.158
Mof_C 	C 	0.148	0.2307	0.884	-0.161
Mof_H 	H 	0.147	0.2579	0.8681	0.094
Mof_C 	C 	0.12	0.2183	0.973	0.064
Mof_H 	H 	0.099	0.237	0.0186	0.023
Mof_C 	C 	0.278	0.247	0.72	0.088
Mof_H 	H 	0.3171	0.2597	0.7777	0.029
Mof_C 	C 	0.295	0.2612	0.633	-0.129
Mof_H 	H 	0.3438	0.284	0.63	0.105
Mof_C 	C 	0.242	0.2431	0.548	0.063
Mof_C 	C 	0.185	0.207	0.558	-0.129
Mof_H 	H 	0.1595	0.1908	0.5032	0.089
Mof_C 	C 	0.165	0.195	0.648	0.089
Mof_H 	H 	0.1216	0.1714	0.6538	0.016
Mof_N 	N 	0.293	0.0359	0.076	-0.123
Mof_Cd	Cd	0.5	0.36359	0.75	0.497
Mof_Cd	Cd	4.1585e-33	0.86359	0.75	0.484
Mof_Cd	Cd	0.5	0.63641	0.25	0.497
Mof_Cd	Cd	1.38617e-33	0.13641	0.25	0.484
_end
