data_functionalizedCrystal
_audit_creation_method	'EQeq! by Chris Wilmer'
_symmetry_space_group_name_H-M	'P1'
_symmetry_Int_Tables_number	1
_symmetry_cell_setting	triclinic
loop_
_symmetry_equiv_pos_as_xyz
  x,y,z
_cell_length_a	16.1048
_cell_length_b	8.2564
_cell_length_c	22.9979
_cell_angle_alpha	90
_cell_angle_beta	103.995
_cell_angle_gamma	90
loop_
_atom_site_label
_atom_site_type_symbol
_atom_site_fract_x
_atom_site_fract_y
_atom_site_fract_z
_atom_site_charge
Mof_Zn	Zn	0.3015	0.1552	0.4262	1.22
Mof_Zn	Zn	0.6489	0.3498	0.4273	1.228
Mof_Zn	Zn	0.264	0.3824	0.3045	1.198
Mof_P 	P 	0.6809	0.5107	0.3107	0.543
Mof_P 	P 	0.232	0.4904	0.4559	0.551
Mof_P 	P 	0.4483	0.2891	0.367	0.52
Mof_O 	O 	0.2439	0.3612	0.4103	-0.539
Mof_O 	O 	0.1711	0.4235	0.4925	-0.495
Mof_O 	O 	0.4099	0.1585	0.4015	-0.447
Mof_O 	O 	0.7135	0.4943	0.381	-0.586
Mof_O 	O 	0.4748	0.203	0.3151	-0.478
Mof_O 	O 	0.5851	0.484	0.2947	-0.469
Mof_O 	O 	0.1892	0.6341	0.418	-0.491
Mof_O 	O 	0.5255	0.3715	0.4099	-0.432
Mof_O 	O 	0.3179	0.536	0.4968	-0.497
Mof_O 	O 	0.3814	0.4212	0.3438	-0.488
Mof_O 	O 	0.7056	0.6775	0.2928	-0.513
Mof_O 	O 	0.7274	0.3792	0.2828	-0.461
Mof_Zn	Zn	0.8015	0.6552	0.4262	1.222
Mof_Zn	Zn	0.1489	0.8498	0.4273	1.224
Mof_Zn	Zn	0.764	0.8824	0.3045	1.2
Mof_P 	P 	0.1809	0.0107	0.3107	0.538
Mof_P 	P 	0.732	0.9904	0.4559	0.552
Mof_P 	P 	0.9483	0.7891	0.367	0.58
Mof_O 	O 	0.7439	0.8612	0.4103	-0.531
Mof_O 	O 	0.6711	0.9235	0.4925	-0.48
Mof_O 	O 	0.9099	0.6585	0.4015	-0.432
Mof_O 	O 	0.2135	0.9943	0.381	-0.591
Mof_O 	O 	0.9748	0.703	0.3151	-0.437
Mof_O 	O 	0.0851	0.984	0.2947	-0.495
Mof_O 	O 	0.6892	0.1341	0.418	-0.478
Mof_O 	O 	0.0255	0.8715	0.4099	-0.502
Mof_O 	O 	0.8179	0.036	0.4968	-0.487
Mof_O 	O 	0.8814	0.9212	0.3438	-0.477
Mof_O 	O 	0.2056	0.1775	0.2928	-0.522
Mof_O 	O 	0.2274	0.8792	0.2828	-0.466
Mof_Zn	Zn	0.6985	0.1552	0.0738	1.22
Mof_Zn	Zn	0.3511	0.3498	0.0727	1.227
Mof_Zn	Zn	0.736	0.3824	0.1955	1.201
Mof_P 	P 	0.3191	0.5107	0.1893	0.542
Mof_P 	P 	0.768	0.4904	0.0441	0.552
Mof_P 	P 	0.5517	0.2891	0.133	0.52
Mof_O 	O 	0.7561	0.3612	0.0897	-0.528
Mof_O 	O 	0.8289	0.4235	0.0075	-0.465
Mof_O 	O 	0.5901	0.1585	0.0985	-0.447
Mof_O 	O 	0.2865	0.4943	0.119	-0.591
Mof_O 	O 	0.5252	0.203	0.1849	-0.478
Mof_O 	O 	0.4149	0.484	0.2053	-0.469
Mof_O 	O 	0.8108	0.6341	0.082	-0.467
Mof_O 	O 	0.4745	0.3715	0.0901	-0.432
Mof_O 	O 	0.6821	0.536	0.0032	-0.495
Mof_O 	O 	0.6186	0.4212	0.1562	-0.487
Mof_O 	O 	0.2944	0.6775	0.2072	-0.514
Mof_O 	O 	0.2726	0.3792	0.2172	-0.47
Mof_Zn	Zn	0.1985	0.6552	0.0738	1.218
Mof_Zn	Zn	0.8511	0.8498	0.0727	1.23
Mof_Zn	Zn	0.236	0.8824	0.1955	1.199
Mof_P 	P 	0.8191	0.0107	0.1893	0.535
Mof_P 	P 	0.268	0.9904	0.0441	0.552
Mof_P 	P 	0.0517	0.7891	0.133	0.46
Mof_O 	O 	0.2561	0.8612	0.0897	-0.535
Mof_O 	O 	0.3289	0.9235	0.0075	-0.479
Mof_O 	O 	0.0901	0.6585	0.0985	-0.462
Mof_O 	O 	0.7865	0.9943	0.119	-0.582
Mof_O 	O 	0.0252	0.703	0.1849	-0.507
Mof_O 	O 	0.9149	0.984	0.2053	-0.429
Mof_O 	O 	0.3108	0.1341	0.082	-0.482
Mof_O 	O 	0.9745	0.8715	0.0901	-0.362
Mof_O 	O 	0.1821	0.036	0.0032	-0.506
Mof_O 	O 	0.1186	0.9212	0.1562	-0.495
Mof_O 	O 	0.7944	0.1775	0.2072	-0.505
Mof_O 	O 	0.7726	0.8792	0.2172	-0.459
Mof_Zn	Zn	0.6985	0.8448	0.5738	1.22
Mof_Zn	Zn	0.3511	0.6502	0.5727	1.226
Mof_Zn	Zn	0.736	0.6176	0.6955	1.201
Mof_P 	P 	0.3191	0.4893	0.6893	0.542
Mof_P 	P 	0.768	0.5096	0.5441	0.552
Mof_P 	P 	0.5517	0.7109	0.633	0.52
Mof_O 	O 	0.7561	0.6388	0.5897	-0.528
Mof_O 	O 	0.8289	0.5765	0.5075	-0.466
Mof_O 	O 	0.5901	0.8415	0.5985	-0.447
Mof_O 	O 	0.2865	0.5057	0.619	-0.591
Mof_O 	O 	0.5252	0.797	0.6849	-0.478
Mof_O 	O 	0.4149	0.516	0.7053	-0.469
Mof_O 	O 	0.8108	0.3659	0.582	-0.467
Mof_O 	O 	0.4745	0.6285	0.5901	-0.432
Mof_O 	O 	0.6821	0.464	0.5032	-0.496
Mof_O 	O 	0.6186	0.5788	0.6562	-0.487
Mof_O 	O 	0.2944	0.3225	0.7072	-0.515
Mof_O 	O 	0.2726	0.6208	0.7172	-0.47
Mof_Zn	Zn	0.1985	0.3448	0.5738	1.218
Mof_Zn	Zn	0.8511	0.1502	0.5727	1.23
Mof_Zn	Zn	0.236	0.1176	0.6955	1.199
Mof_P 	P 	0.8191	0.9893	0.6893	0.536
Mof_P 	P 	0.268	0.0096	0.5441	0.551
Mof_P 	P 	0.0517	0.2109	0.633	0.46
Mof_O 	O 	0.2561	0.1388	0.5897	-0.536
Mof_O 	O 	0.3289	0.0765	0.5075	-0.48
Mof_O 	O 	0.0901	0.3415	0.5985	-0.462
Mof_O 	O 	0.7865	0.0057	0.619	-0.583
Mof_O 	O 	0.0252	0.297	0.6849	-0.507
Mof_O 	O 	0.9149	0.016	0.7053	-0.429
Mof_O 	O 	0.3108	0.8659	0.582	-0.482
Mof_O 	O 	0.9745	0.1285	0.5901	-0.362
Mof_O 	O 	0.1821	0.964	0.5032	-0.507
Mof_O 	O 	0.1186	0.0788	0.6562	-0.495
Mof_O 	O 	0.7944	0.8225	0.7072	-0.505
Mof_O 	O 	0.7726	0.1208	0.7172	-0.459
Mof_Zn	Zn	0.3015	0.8448	0.9262	1.219
Mof_Zn	Zn	0.6489	0.6502	0.9273	1.227
Mof_Zn	Zn	0.264	0.6176	0.8045	1.197
Mof_P 	P 	0.6809	0.4893	0.8107	0.542
Mof_P 	P 	0.232	0.5096	0.9559	0.551
Mof_P 	P 	0.4483	0.7109	0.867	0.52
Mof_O 	O 	0.2439	0.6388	0.9103	-0.539
Mof_O 	O 	0.1711	0.5765	0.9925	-0.496
Mof_O 	O 	0.4099	0.8415	0.9015	-0.448
Mof_O 	O 	0.7135	0.5057	0.881	-0.587
Mof_O 	O 	0.4748	0.797	0.8151	-0.478
Mof_O 	O 	0.5851	0.516	0.7947	-0.469
Mof_O 	O 	0.1892	0.3659	0.918	-0.491
Mof_O 	O 	0.5255	0.6285	0.9099	-0.433
Mof_O 	O 	0.3179	0.464	0.9968	-0.498
Mof_O 	O 	0.3814	0.5788	0.8438	-0.488
Mof_O 	O 	0.7056	0.3225	0.7928	-0.513
Mof_O 	O 	0.7274	0.6208	0.7828	-0.461
Mof_Zn	Zn	0.8015	0.3448	0.9262	1.221
Mof_Zn	Zn	0.1489	0.1502	0.9273	1.223
Mof_Zn	Zn	0.764	0.1176	0.8045	1.2
Mof_P 	P 	0.1809	0.9893	0.8107	0.538
Mof_P 	P 	0.732	0.0096	0.9559	0.552
Mof_P 	P 	0.9483	0.2109	0.867	0.58
Mof_O 	O 	0.7439	0.1388	0.9103	-0.531
Mof_O 	O 	0.6711	0.0765	0.9925	-0.482
Mof_O 	O 	0.9099	0.3415	0.9015	-0.433
Mof_O 	O 	0.2135	0.0057	0.881	-0.591
Mof_O 	O 	0.9748	0.297	0.8151	-0.437
Mof_O 	O 	0.0851	0.016	0.7947	-0.495
Mof_O 	O 	0.6892	0.8659	0.918	-0.479
Mof_O 	O 	0.0255	0.1285	0.9099	-0.502
Mof_O 	O 	0.8179	0.964	0.9968	-0.489
Mof_O 	O 	0.8814	0.0788	0.8438	-0.478
Mof_O 	O 	0.2056	0.8225	0.7928	-0.522
Mof_O 	O 	0.2274	0.1208	0.7828	-0.466
Mof_Zn	Zn	0.5	0.33	0.25	1.224
Mof_Zn	Zn	1.66226e-33	0.83	0.25	1.197
Mof_Zn	Zn	0.5	0.67	0.75	1.224
Mof_Zn	Zn	4.98678e-33	0.17	0.75	1.197
_end
