data_functionalizedCrystal
_audit_creation_method	'EQeq! by Chris Wilmer'
_symmetry_space_group_name_H-M	'P1'
_symmetry_Int_Tables_number	1
_symmetry_cell_setting	triclinic
loop_
_symmetry_equiv_pos_as_xyz
  x,y,z
_cell_length_a	9.523
_cell_length_b	11.3555
_cell_length_c	25.874
_cell_angle_alpha	87.4044
_cell_angle_beta	83.7999
_cell_angle_gamma	65.2088
loop_
_atom_site_label
_atom_site_type_symbol
_atom_site_fract_x
_atom_site_fract_y
_atom_site_fract_z
_atom_site_charge
Mof_Co	Co	0.10253	0.60554	0.95575	1.174
Mof_Co	Co	0.29193	0.60554	0.54425	1.175
Mof_Co	Co	0.89747	0.39446	0.04425	1.174
Mof_Co	Co	0.70807	0.39446	0.45575	1.175
Mof_H 	H 	0.5045	0.7202	0.8945	0.029
Mof_H 	H 	0.6609	0.7618	0.8322	0.067
Mof_H 	H 	0.4015	0.7636	0.7236	0.069
Mof_H 	H 	0.2357	0.7234	0.7857	0.031
Mof_H 	H 	0.9786	0.5006	0.1571	0.013
Mof_H 	H 	0.0109	0.5358	0.2426	0.082
Mof_H 	H 	0.3345	0.6564	0.1865	0.08
Mof_H 	H 	0.2795	0.6432	0.1027	0.016
Mof_H 	H 	0.9655	0.8666	0.0155	-0.001
Mof_H 	H 	0.7621	0.0658	0.018	0.093
Mof_H 	H 	0.6098	0.9572	0.902	0.085
Mof_H 	H 	0.8136	0.7594	0.9033	-0.012
Mof_H 	H 	0.6033	0.2578	0.0081	0.104
Mof_H 	H 	0.4081	0.4578	0.0019	-0.001
Mof_H 	H 	0.2256	0.3426	0.9008	-0.01
Mof_H 	H 	0.4217	0.1338	0.9033	0.078
Mof_H 	H 	0.7753	0.7202	0.6055	0.029
Mof_H 	H 	0.5773	0.7618	0.6678	0.068
Mof_H 	H 	0.8349	0.7636	0.7764	0.07
Mof_H 	H 	0.0409	0.7234	0.7143	0.029
Mof_H 	H 	0.5208	0.5006	0.3429	0.017
Mof_H 	H 	0.4533	0.5358	0.2574	0.08
Mof_H 	H 	0.0091	0.6564	0.3135	0.079
Mof_H 	H 	0.0773	0.6432	0.3973	0.017
Mof_H 	H 	0.1679	0.8666	0.4845	0.001
Mof_H 	H 	0.1721	0.0658	0.482	0.093
Mof_H 	H 	0.433	0.9572	0.598	0.085
Mof_H 	H 	0.427	0.7594	0.5967	-0.012
Mof_H 	H 	0.1389	0.2578	0.4919	0.105
Mof_H 	H 	0.1341	0.4578	0.4981	-0.002
Mof_H 	H 	0.4318	0.3426	0.5992	-0.01
Mof_H 	H 	0.4445	0.1338	0.5967	0.078
Mof_H 	H 	0.4955	0.2798	0.1055	0.029
Mof_H 	H 	0.3391	0.2382	0.1678	0.067
Mof_H 	H 	0.5985	0.2364	0.2764	0.069
Mof_H 	H 	0.7643	0.2766	0.2143	0.031
Mof_H 	H 	0.0214	0.4994	0.8429	0.013
Mof_H 	H 	0.9891	0.4642	0.7574	0.082
Mof_H 	H 	0.6655	0.3436	0.8135	0.08
Mof_H 	H 	0.7205	0.3568	0.8973	0.016
Mof_H 	H 	0.0345	0.1334	0.9845	-0.001
Mof_H 	H 	0.2379	0.9342	0.982	0.093
Mof_H 	H 	0.3902	0.0428	0.098	0.085
Mof_H 	H 	0.1864	0.2406	0.0967	-0.012
Mof_H 	H 	0.3967	0.7422	0.9919	0.104
Mof_H 	H 	0.5919	0.5422	0.9981	-0.001
Mof_H 	H 	0.7744	0.6574	0.0992	-0.01
Mof_H 	H 	0.5783	0.8662	0.0967	0.078
Mof_H 	H 	0.2247	0.2798	0.3945	0.029
Mof_H 	H 	0.4227	0.2382	0.3322	0.068
Mof_H 	H 	0.1651	0.2364	0.2236	0.07
Mof_H 	H 	0.9591	0.2766	0.2857	0.029
Mof_H 	H 	0.4792	0.4994	0.6571	0.017
Mof_H 	H 	0.5467	0.4642	0.7426	0.08
Mof_H 	H 	0.9909	0.3436	0.6865	0.079
Mof_H 	H 	0.9227	0.3568	0.6027	0.017
Mof_H 	H 	0.8321	0.1334	0.5155	0.001
Mof_H 	H 	0.8279	0.9342	0.518	0.093
Mof_H 	H 	0.567	0.0428	0.402	0.085
Mof_H 	H 	0.573	0.2406	0.4033	-0.012
Mof_H 	H 	0.8611	0.7422	0.5081	0.105
Mof_H 	H 	0.8659	0.5422	0.5019	-0.002
Mof_H 	H 	0.5682	0.6574	0.4008	-0.01
Mof_H 	H 	0.5555	0.8662	0.4033	0.078
Mof_C 	C 	0.2514	0.683	0.8868	0.31
Mof_C 	C 	0.3487	0.7192	0.8472	-0.106
Mof_C 	C 	0.4814	0.7288	0.8601	0.037
Mof_C 	C 	0.5766	0.7508	0.8219	-0.107
Mof_C 	C 	0.5619	0.7584	0.771	0.042
Mof_C 	C 	0.4241	0.7526	0.758	-0.105
Mof_C 	C 	0.3228	0.7306	0.7956	0.035
Mof_C 	C 	0.0917	0.5574	0.0675	0.441
Mof_C 	C 	0.1201	0.5738	0.122	-0.172
Mof_C 	C 	0.0463	0.5372	0.1631	0.08
Mof_C 	C 	0.0699	0.553	0.2147	-0.134
Mof_C 	C 	0.1837	0.595	0.2231	0.061
Mof_C 	C 	0.2592	0.6274	0.1812	-0.137
Mof_C 	C 	0.2275	0.6184	0.1306	0.084
Mof_C 	C 	0.8914	0.8852	0.992	0.101
Mof_C 	C 	0.773	0.006	0.9927	-0.16
Mof_C 	C 	0.6703	0.0388	0.9561	0.082
Mof_C 	C 	0.6839	0.9422	0.9251	-0.165
Mof_C 	C 	0.8049	0.8222	0.9268	0.116
Mof_C 	C 	0.542	0.1724	0.9551	0.064
Mof_C 	C 	0.5292	0.2712	0.9852	-0.155
Mof_C 	C 	0.4089	0.3906	0.9824	0.097
Mof_C 	C 	0.3017	0.3246	0.9235	0.095
Mof_C 	C 	0.4226	0.1988	0.9238	-0.141
Mof_C 	C 	0.0656	0.683	0.6132	0.31
Mof_C 	C 	0.9321	0.7192	0.6528	-0.107
Mof_C 	C 	0.7898	0.7288	0.6399	0.038
Mof_C 	C 	0.6726	0.7508	0.6781	-0.109
Mof_C 	C 	0.6797	0.7584	0.729	0.045
Mof_C 	C 	0.8233	0.7526	0.742	-0.108
Mof_C 	C 	0.9466	0.7306	0.7044	0.04
Mof_C 	C 	0.3509	0.5574	0.4325	0.439
Mof_C 	C 	0.3061	0.5738	0.378	-0.169
Mof_C 	C 	0.4165	0.5372	0.3369	0.074
Mof_C 	C 	0.3771	0.553	0.2853	-0.13
Mof_C 	C 	0.2213	0.595	0.2769	0.058
Mof_C 	C 	0.1134	0.6274	0.3188	-0.134
Mof_C 	C 	0.1541	0.6184	0.3694	0.081
Mof_C 	C 	0.2234	0.8852	0.508	0.097
Mof_C 	C 	0.221	0.006	0.5073	-0.159
Mof_C 	C 	0.2909	0.0388	0.5439	0.082
Mof_C 	C 	0.3739	0.9422	0.5749	-0.166
Mof_C 	C 	0.3729	0.8222	0.5732	0.116
Mof_C 	C 	0.2856	0.1724	0.5449	0.065
Mof_C 	C 	0.1996	0.2712	0.5148	-0.157
Mof_C 	C 	0.2005	0.3906	0.5176	0.098
Mof_C 	C 	0.3737	0.3246	0.5765	0.095
Mof_C 	C 	0.3786	0.1988	0.5762	-0.141
Mof_C 	C 	0.7486	0.317	0.1132	0.31
Mof_C 	C 	0.6513	0.2808	0.1528	-0.106
Mof_C 	C 	0.5186	0.2712	0.1399	0.037
Mof_C 	C 	0.4234	0.2492	0.1781	-0.107
Mof_C 	C 	0.4381	0.2416	0.229	0.042
Mof_C 	C 	0.5759	0.2474	0.242	-0.105
Mof_C 	C 	0.6772	0.2694	0.2044	0.035
Mof_C 	C 	0.9083	0.4426	0.9325	0.441
Mof_C 	C 	0.8799	0.4262	0.878	-0.172
Mof_C 	C 	0.9537	0.4628	0.8369	0.08
Mof_C 	C 	0.9301	0.447	0.7853	-0.134
Mof_C 	C 	0.8163	0.405	0.7769	0.061
Mof_C 	C 	0.7408	0.3726	0.8188	-0.137
Mof_C 	C 	0.7725	0.3816	0.8694	0.084
Mof_C 	C 	0.1086	0.1148	0.008	0.101
Mof_C 	C 	0.227	0.994	0.0073	-0.16
Mof_C 	C 	0.3297	0.9612	0.0439	0.082
Mof_C 	C 	0.3161	0.0578	0.0749	-0.165
Mof_C 	C 	0.1951	0.1778	0.0732	0.116
Mof_C 	C 	0.458	0.8276	0.0449	0.064
Mof_C 	C 	0.4708	0.7288	0.0148	-0.155
Mof_C 	C 	0.5911	0.6094	0.0176	0.097
Mof_C 	C 	0.6983	0.6754	0.0765	0.095
Mof_C 	C 	0.5774	0.8012	0.0762	-0.141
Mof_C 	C 	0.9344	0.317	0.3868	0.31
Mof_C 	C 	0.0679	0.2808	0.3472	-0.107
Mof_C 	C 	0.2102	0.2712	0.3601	0.038
Mof_C 	C 	0.3274	0.2492	0.3219	-0.109
Mof_C 	C 	0.3203	0.2416	0.271	0.045
Mof_C 	C 	0.1767	0.2474	0.258	-0.108
Mof_C 	C 	0.0534	0.2694	0.2956	0.04
Mof_C 	C 	0.6491	0.4426	0.5675	0.439
Mof_C 	C 	0.6939	0.4262	0.622	-0.169
Mof_C 	C 	0.5835	0.4628	0.6631	0.074
Mof_C 	C 	0.6229	0.447	0.7147	-0.13
Mof_C 	C 	0.7787	0.405	0.7231	0.058
Mof_C 	C 	0.8866	0.3726	0.6812	-0.134
Mof_C 	C 	0.8459	0.3816	0.6306	0.081
Mof_C 	C 	0.7766	0.1148	0.492	0.097
Mof_C 	C 	0.779	0.994	0.4927	-0.159
Mof_C 	C 	0.7091	0.9612	0.4561	0.082
Mof_C 	C 	0.6261	0.0578	0.4251	-0.166
Mof_C 	C 	0.6271	0.1778	0.4268	0.116
Mof_C 	C 	0.7144	0.8276	0.4551	0.065
Mof_C 	C 	0.8004	0.7288	0.4852	-0.157
Mof_C 	C 	0.7995	0.6094	0.4824	0.098
Mof_C 	C 	0.6263	0.6754	0.4235	0.095
Mof_C 	C 	0.6214	0.8012	0.4238	-0.141
Mof_N 	N 	0.9066	0.7926	0.9593	-0.236
Mof_N 	N 	0.2924	0.4156	0.9532	-0.237
Mof_N 	N 	0.3008	0.7926	0.5407	-0.236
Mof_N 	N 	0.292	0.4156	0.5468	-0.237
Mof_N 	N 	0.0934	0.2074	0.0407	-0.236
Mof_N 	N 	0.7076	0.5844	0.0468	-0.237
Mof_N 	N 	0.6992	0.2074	0.4593	-0.236
Mof_N 	N 	0.708	0.5844	0.4532	-0.237
Mof_O 	O 	0.2636	0.6954	0.9344	-0.376
Mof_O 	O 	0.161	0.6388	0.8735	-0.375
Mof_O 	O 	0.1223	0.6214	0.0322	-0.457
Mof_O 	O 	0.0447	0.4728	0.0602	-0.479
Mof_O 	O 	0.041	0.6954	0.5656	-0.376
Mof_O 	O 	0.2002	0.6388	0.6265	-0.374
Mof_O 	O 	0.2563	0.6214	0.4678	-0.457
Mof_O 	O 	0.4825	0.4728	0.4398	-0.48
Mof_O 	O 	0.7364	0.3046	0.0656	-0.376
Mof_O 	O 	0.839	0.3612	0.1265	-0.375
Mof_O 	O 	0.8777	0.3786	0.9678	-0.457
Mof_O 	O 	0.9553	0.5272	0.9398	-0.479
Mof_O 	O 	0.959	0.3046	0.4344	-0.376
Mof_O 	O 	0.7998	0.3612	0.3735	-0.374
Mof_O 	O 	0.7437	0.3786	0.5322	-0.457
Mof_O 	O 	0.5175	0.5272	0.5602	-0.48
_end
