data_functionalizedCrystal
_audit_creation_method	'EQeq! by Chris Wilmer'
_symmetry_space_group_name_H-M	'P1'
_symmetry_Int_Tables_number	1
_symmetry_cell_setting	triclinic
loop_
_symmetry_equiv_pos_as_xyz
  x,y,z
_cell_length_a	10.4647
_cell_length_b	15.5722
_cell_length_c	13.8784
_cell_angle_alpha	90
_cell_angle_beta	96.829
_cell_angle_gamma	90
loop_
_atom_site_label
_atom_site_type_symbol
_atom_site_fract_x
_atom_site_fract_y
_atom_site_fract_z
_atom_site_charge
Mof_Zn	Zn	0.53322	0.41442	0.39012	1.229
Mof_P 	P 	0.42947	0.60693	0.38229	0.45
Mof_P 	P 	0.70809	0.33438	0.22905	0.467
Mof_O 	O 	0.67248	0.38906	0.31244	-0.445
Mof_O 	O 	0.85133	0.34008	0.22143	-0.377
Mof_O 	O 	0.62769	0.35564	0.13426	-0.449
Mof_O 	O 	0.52828	0.53811	0.37297	-0.457
Mof_O 	O 	0.3778	0.60644	0.48026	-0.439
Mof_O 	O 	0.47924	0.69553	0.36169	-0.436
Mof_H 	H 	0.3239	0.5959	0.314	-0.044
Mof_H 	H 	0.6844	0.2558	0.2481	-0.062
Mof_Zn	Zn	0.03322	0.91442	0.39012	1.207
Mof_P 	P 	0.92947	0.10693	0.38229	0.526
Mof_P 	P 	0.20809	0.83438	0.22905	0.468
Mof_O 	O 	0.17248	0.88906	0.31244	-0.472
Mof_O 	O 	0.35133	0.84008	0.22143	-0.424
Mof_O 	O 	0.12769	0.85564	0.13426	-0.502
Mof_O 	O 	0.02828	0.03811	0.37297	-0.544
Mof_O 	O 	0.8778	0.10644	0.48026	-0.421
Mof_O 	O 	0.97924	0.19553	0.36169	-0.39
Mof_H 	H 	0.8239	0.0959	0.314	-0.033
Mof_H 	H 	0.1844	0.7558	0.2481	-0.083
Mof_Zn	Zn	0.46678	0.41442	0.10988	1.23
Mof_P 	P 	0.57053	0.60693	0.11771	0.452
Mof_P 	P 	0.29191	0.33438	0.27095	0.469
Mof_O 	O 	0.32752	0.38906	0.18756	-0.461
Mof_O 	O 	0.14867	0.34008	0.27857	-0.451
Mof_O 	O 	0.37231	0.35564	0.36574	-0.466
Mof_O 	O 	0.47172	0.53811	0.12703	-0.464
Mof_O 	O 	0.6222	0.60644	0.01974	-0.423
Mof_O 	O 	0.52076	0.69553	0.13831	-0.439
Mof_H 	H 	0.6761	0.5959	0.186	-0.026
Mof_H 	H 	0.3156	0.2558	0.2519	-0.07
Mof_Zn	Zn	0.96678	0.91442	0.10988	1.25
Mof_P 	P 	0.07053	0.10693	0.11771	0.377
Mof_P 	P 	0.79191	0.83438	0.27095	0.47
Mof_O 	O 	0.82752	0.88906	0.18756	-0.437
Mof_O 	O 	0.64867	0.84008	0.27857	-0.419
Mof_O 	O 	0.87231	0.85564	0.36574	-0.414
Mof_O 	O 	0.97172	0.03811	0.12703	-0.376
Mof_O 	O 	0.1222	0.10644	0.01974	-0.436
Mof_O 	O 	0.02076	0.19553	0.13831	-0.469
Mof_H 	H 	0.1761	0.0959	0.186	-0.035
Mof_H 	H 	0.8156	0.7558	0.2519	-0.051
Mof_Zn	Zn	0.46678	0.58558	0.60988	1.229
Mof_P 	P 	0.57053	0.39307	0.61771	0.452
Mof_P 	P 	0.29191	0.66562	0.77095	0.47
Mof_O 	O 	0.32752	0.61094	0.68756	-0.463
Mof_O 	O 	0.14867	0.65992	0.77857	-0.453
Mof_O 	O 	0.37231	0.64436	0.86574	-0.467
Mof_O 	O 	0.47172	0.46189	0.62703	-0.465
Mof_O 	O 	0.6222	0.39356	0.51974	-0.424
Mof_O 	O 	0.52076	0.30447	0.63831	-0.439
Mof_H 	H 	0.6761	0.4041	0.686	-0.026
Mof_H 	H 	0.3156	0.7442	0.7519	-0.071
Mof_Zn	Zn	0.96678	0.08558	0.60988	1.252
Mof_P 	P 	0.07053	0.89307	0.61771	0.374
Mof_P 	P 	0.79191	0.16562	0.77095	0.47
Mof_O 	O 	0.82752	0.11094	0.68756	-0.436
Mof_O 	O 	0.64867	0.15992	0.77857	-0.42
Mof_O 	O 	0.87231	0.14436	0.86574	-0.416
Mof_O 	O 	0.97172	0.96189	0.62703	-0.375
Mof_O 	O 	0.1222	0.89356	0.51974	-0.442
Mof_O 	O 	0.02076	0.80447	0.63831	-0.472
Mof_H 	H 	0.1761	0.9041	0.686	-0.036
Mof_H 	H 	0.8156	0.2442	0.7519	-0.051
Mof_Zn	Zn	0.53322	0.58558	0.89012	1.229
Mof_P 	P 	0.42947	0.39307	0.88229	0.451
Mof_P 	P 	0.70809	0.66562	0.72905	0.467
Mof_O 	O 	0.67248	0.61094	0.81244	-0.445
Mof_O 	O 	0.85133	0.65992	0.72143	-0.376
Mof_O 	O 	0.62769	0.64436	0.63426	-0.451
Mof_O 	O 	0.52828	0.46189	0.87297	-0.459
Mof_O 	O 	0.3778	0.39356	0.98026	-0.444
Mof_O 	O 	0.47924	0.30447	0.86169	-0.438
Mof_H 	H 	0.3239	0.4041	0.814	-0.045
Mof_H 	H 	0.6844	0.7442	0.7481	-0.063
Mof_Zn	Zn	0.03322	0.08558	0.89012	1.204
Mof_P 	P 	0.92947	0.89307	0.88229	0.528
Mof_P 	P 	0.20809	0.16562	0.72905	0.468
Mof_O 	O 	0.17248	0.11094	0.81244	-0.476
Mof_O 	O 	0.35133	0.15992	0.72143	-0.425
Mof_O 	O 	0.12769	0.14436	0.63426	-0.504
Mof_O 	O 	0.02828	0.96189	0.87297	-0.547
Mof_O 	O 	0.8778	0.89356	0.98026	-0.422
Mof_O 	O 	0.97924	0.80447	0.86169	-0.39
Mof_H 	H 	0.8239	0.9041	0.814	-0.033
Mof_H 	H 	0.1844	0.2442	0.7481	-0.085
Mof_Zn	Zn	-6.32843e-18	0.26617	0.25	1.206
Mof_Zn	Zn	0.5	0.76617	0.25	1.237
Mof_Zn	Zn	4.17282e-33	0.73383	0.75	1.205
Mof_Zn	Zn	0.5	0.23383	0.75	1.237
_end
