data_functionalizedCrystal
_audit_creation_method	'EQeq! by Chris Wilmer'
_symmetry_space_group_name_H-M	'P1'
_symmetry_Int_Tables_number	1
_symmetry_cell_setting	triclinic
loop_
_symmetry_equiv_pos_as_xyz
  x,y,z
_cell_length_a	16.5441
_cell_length_b	16.5441
_cell_length_c	16.5441
_cell_angle_alpha	60.1036
_cell_angle_beta	75.4761
_cell_angle_gamma	104.524
loop_
_atom_site_label
_atom_site_type_symbol
_atom_site_fract_x
_atom_site_fract_y
_atom_site_fract_z
_atom_site_charge
Mof_Nd	Nd	0.63902	0.40079	0.61579	2.111
Mof_Nd	Nd	0.98184	0.85283	0.52945	2.297
Mof_Nd	Nd	0.86098	0.24519	0.23823	2.115
Mof_Nd	Nd	0.51816	0.98871	0.12901	2.317
Mof_Nd	Nd	0.98342	0.38421	0.75481	2.105
Mof_Nd	Nd	0.61772	0.47055	0.01129	2.335
Mof_Nd	Nd	0.51658	0.76177	0.59921	2.111
Mof_Nd	Nd	0.88228	0.87099	0.14717	2.311
Mof_Nd	Nd	0.36098	0.59921	0.38421	2.11
Mof_Nd	Nd	0.01816	0.14717	0.47055	2.296
Mof_Nd	Nd	0.13902	0.75481	0.76177	2.114
Mof_Nd	Nd	0.48184	0.01129	0.87099	2.316
Mof_Nd	Nd	0.01658	0.61579	0.24519	2.105
Mof_Nd	Nd	0.38228	0.52945	0.98871	2.335
Mof_Nd	Nd	0.48342	0.23823	0.40079	2.111
Mof_Nd	Nd	0.11772	0.12901	0.85283	2.311
Mof_H 	H 	0.7605	0.6785	0.5506	-0.07
Mof_H 	H 	0.6155	0.5142	0.7619	-0.082
Mof_H 	H 	0.7395	0.1889	0.082	-0.068
Mof_H 	H 	0.8845	0.1226	0.1013	-0.078
Mof_H 	H 	0.7709	0.4494	0.8111	-0.071
Mof_H 	H 	0.7239	0.2381	0.8774	-0.082
Mof_H 	H 	0.7291	0.918	0.3215	-0.074
Mof_H 	H 	0.7761	0.8987	0.4858	-0.085
Mof_H 	H 	0.2395	0.3215	0.4494	-0.07
Mof_H 	H 	0.3845	0.4858	0.2381	-0.082
Mof_H 	H 	0.2605	0.8111	0.918	-0.068
Mof_H 	H 	0.1155	0.8774	0.8987	-0.078
Mof_H 	H 	0.2291	0.5506	0.1889	-0.071
Mof_H 	H 	0.2761	0.7619	0.1226	-0.082
Mof_H 	H 	0.2709	0.082	0.6785	-0.074
Mof_H 	H 	0.2239	0.1013	0.5142	-0.085
Mof_C 	C 	0.7963	0.6429	0.5658	0.159
Mof_C 	C 	0.8447	0.5243	0.604	-0.117
Mof_C 	C 	0.9081	0.6077	0.593	-0.083
Mof_C 	C 	0.9968	0.6322	0.5998	0.42
Mof_C 	C 	0.8385	0.4226	0.6305	0.458
Mof_C 	C 	0.5996	0.4443	0.8101	0.169
Mof_C 	C 	0.5674	0.2827	0.8777	-0.093
Mof_C 	C 	0.5575	0.3	0.9547	-0.093
Mof_C 	C 	0.5352	0.2325	0.0659	0.422
Mof_C 	C 	0.5527	0.1962	0.8739	0.408
Mof_C 	C 	0.7037	0.1379	0.1534	0.159
Mof_C 	C 	0.6553	0.0513	0.3204	-0.109
Mof_C 	C 	0.5919	0.9989	0.3004	-0.099
Mof_C 	C 	0.5032	0.9034	0.3646	0.438
Mof_C 	C 	0.6615	0.031	0.4159	0.46
Mof_C 	C 	0.9004	0.0903	0.1553	0.172
Mof_C 	C 	0.9326	0.0549	0.2847	-0.071
Mof_C 	C 	0.9425	0.9878	0.2575	-0.116
Mof_C 	C 	0.9648	0.8989	0.3027	0.424
Mof_C 	C 	0.9473	0.0734	0.3565	0.402
Mof_C 	C 	0.7913	0.4342	0.8621	0.158
Mof_C 	C 	0.8717	0.396	0.9487	-0.122
Mof_C 	C 	0.7993	0.407	0.0011	-0.077
Mof_C 	C 	0.768	0.4002	0.0966	0.432
Mof_C 	C 	0.9469	0.3695	0.969	0.443
Mof_C 	C 	0.7456	0.1899	0.9097	0.167
Mof_C 	C 	0.8396	0.1223	0.9451	-0.112
Mof_C 	C 	0.7453	0.0453	0.0122	-0.054
Mof_C 	C 	0.7016	0.9341	0.1011	0.397
Mof_C 	C 	0.9299	0.1261	0.9266	0.416
Mof_C 	C 	0.7087	0.8466	0.3571	0.159
Mof_C 	C 	0.6283	0.6796	0.4757	-0.116
Mof_C 	C 	0.7007	0.6996	0.3923	-0.087
Mof_C 	C 	0.732	0.6354	0.3678	0.434
Mof_C 	C 	0.5531	0.5841	0.5774	0.458
Mof_C 	C 	0.7544	0.8447	0.5557	0.169
Mof_C 	C 	0.6604	0.7153	0.7173	-0.094
Mof_C 	C 	0.7547	0.7425	0.7	-0.089
Mof_C 	C 	0.7984	0.6973	0.7675	0.418
Mof_C 	C 	0.5701	0.6435	0.8038	0.41
Mof_C 	C 	0.2037	0.3571	0.4342	0.159
Mof_C 	C 	0.1553	0.4757	0.396	-0.117
Mof_C 	C 	0.0919	0.3923	0.407	-0.083
Mof_C 	C 	0.0032	0.3678	0.4002	0.42
Mof_C 	C 	0.1615	0.5774	0.3695	0.458
Mof_C 	C 	0.4004	0.5557	0.1899	0.169
Mof_C 	C 	0.4326	0.7173	0.1223	-0.093
Mof_C 	C 	0.4425	0.7	0.0453	-0.093
Mof_C 	C 	0.4648	0.7675	0.9341	0.422
Mof_C 	C 	0.4473	0.8038	0.1261	0.408
Mof_C 	C 	0.2963	0.8621	0.8466	0.159
Mof_C 	C 	0.3447	0.9487	0.6796	-0.109
Mof_C 	C 	0.4081	0.0011	0.6996	-0.099
Mof_C 	C 	0.4968	0.0966	0.6354	0.438
Mof_C 	C 	0.3385	0.969	0.5841	0.46
Mof_C 	C 	0.0996	0.9097	0.8447	0.172
Mof_C 	C 	0.0674	0.9451	0.7153	-0.071
Mof_C 	C 	0.0575	0.0122	0.7425	-0.116
Mof_C 	C 	0.0352	0.1011	0.6973	0.424
Mof_C 	C 	0.0527	0.9266	0.6435	0.402
Mof_C 	C 	0.2087	0.5658	0.1379	0.158
Mof_C 	C 	0.1283	0.604	0.0513	-0.122
Mof_C 	C 	0.2007	0.593	0.9989	-0.077
Mof_C 	C 	0.232	0.5998	0.9034	0.432
Mof_C 	C 	0.0531	0.6305	0.031	0.443
Mof_C 	C 	0.2544	0.8101	0.0903	0.167
Mof_C 	C 	0.1604	0.8777	0.0549	-0.112
Mof_C 	C 	0.2547	0.9547	0.9878	-0.054
Mof_C 	C 	0.2984	0.0659	0.8989	0.397
Mof_C 	C 	0.0701	0.8739	0.0734	0.416
Mof_C 	C 	0.2913	0.1534	0.6429	0.159
Mof_C 	C 	0.3717	0.3204	0.5243	-0.116
Mof_C 	C 	0.2993	0.3004	0.6077	-0.087
Mof_C 	C 	0.268	0.3646	0.6322	0.434
Mof_C 	C 	0.4469	0.4159	0.4226	0.458
Mof_C 	C 	0.2456	0.1553	0.4443	0.169
Mof_C 	C 	0.3396	0.2847	0.2827	-0.094
Mof_C 	C 	0.2453	0.2575	0.3	-0.089
Mof_C 	C 	0.2016	0.3027	0.2325	0.418
Mof_C 	C 	0.4299	0.3565	0.1962	0.41
Mof_N 	N 	0.8754	0.6798	0.5694	-0.262
Mof_N 	N 	0.7737	0.5489	0.5864	-0.261
Mof_N 	N 	0.5966	0.3799	0.7837	-0.278
Mof_N 	N 	0.5784	0.4027	0.9091	-0.29
Mof_N 	N 	0.6246	0.0552	0.1956	-0.257
Mof_N 	N 	0.7263	0.1399	0.2248	-0.262
Mof_N 	N 	0.9034	0.1197	0.2167	-0.28
Mof_N 	N 	0.9216	0.0125	0.1757	-0.274
Mof_N 	N 	0.7508	0.4306	0.9448	-0.268
Mof_N 	N 	0.8647	0.4136	0.8601	-0.262
Mof_N 	N 	0.8364	0.2163	0.8803	-0.276
Mof_N 	N 	0.6882	0.0909	0.9875	-0.297
Mof_N 	N 	0.7492	0.8044	0.3202	-0.263
Mof_N 	N 	0.6353	0.7752	0.4511	-0.262
Mof_N 	N 	0.6636	0.7833	0.6201	-0.278
Mof_N 	N 	0.8118	0.8243	0.5973	-0.289
Mof_N 	N 	0.1246	0.3202	0.4306	-0.262
Mof_N 	N 	0.2263	0.4511	0.4136	-0.261
Mof_N 	N 	0.4034	0.6201	0.2163	-0.278
Mof_N 	N 	0.4216	0.5973	0.0909	-0.29
Mof_N 	N 	0.3754	0.9448	0.8044	-0.257
Mof_N 	N 	0.2737	0.8601	0.7752	-0.262
Mof_N 	N 	0.0966	0.8803	0.7833	-0.28
Mof_N 	N 	0.0784	0.9875	0.8243	-0.274
Mof_N 	N 	0.2492	0.5694	0.0552	-0.268
Mof_N 	N 	0.1353	0.5864	0.1399	-0.262
Mof_N 	N 	0.1636	0.7837	0.1197	-0.276
Mof_N 	N 	0.3118	0.9091	0.0125	-0.297
Mof_N 	N 	0.2508	0.1956	0.6798	-0.263
Mof_N 	N 	0.3647	0.2248	0.5489	-0.262
Mof_N 	N 	0.3364	0.2167	0.3799	-0.278
Mof_N 	N 	0.1882	0.1757	0.4027	-0.289
Mof_O 	O 	0.0423	0.7252	0.5667	-0.584
Mof_O 	O 	0.0273	0.5656	0.6333	-0.601
Mof_O 	O 	0.8925	0.3898	0.6635	-0.587
Mof_O 	O 	0.7718	0.3701	0.6283	-0.591
Mof_O 	O 	0.5468	0.2803	0.1067	-0.547
Mof_O 	O 	0.5038	0.1344	0.1148	-0.586
Mof_O 	O 	0.5161	0.1014	0.9569	-0.695
Mof_O 	O 	0.5732	0.212	0.7866	-0.637
Mof_O 	O 	0.4577	0.891	0.3171	-0.597
Mof_O 	O 	0.4727	0.8394	0.4617	-0.61
Mof_O 	O 	0.6075	0.944	0.5027	-0.592
Mof_O 	O 	0.7282	0.0999	0.4017	-0.591
Mof_O 	O 	0.9532	0.8465	0.2665	-0.548
Mof_O 	O 	0.9962	0.8814	0.3694	-0.591
Mof_O 	O 	0.9839	0.027	0.4147	-0.68
Mof_O 	O 	0.9268	0.1402	0.3612	-0.63
Mof_O 	O 	0.7081	0.4333	0.109	-0.596
Mof_O 	O 	0.8011	0.3667	0.1606	-0.608
Mof_O 	O 	0.9467	0.3365	0.056	-0.578
Mof_O 	O 	0.0016	0.3717	0.9001	-0.584
Mof_O 	O 	0.613	0.8933	0.1535	-0.542
Mof_O 	O 	0.7508	0.8852	0.1186	-0.584
Mof_O 	O 	0.9417	0.0431	0.973	-0.695
Mof_O 	O 	0.0014	0.2134	0.8598	-0.639
Mof_O 	O 	0.7919	0.6829	0.2748	-0.595
Mof_O 	O 	0.6989	0.5383	0.4344	-0.609
Mof_O 	O 	0.5533	0.4973	0.6102	-0.588
Mof_O 	O 	0.4984	0.5983	0.6299	-0.591
Mof_O 	O 	0.887	0.7335	0.7197	-0.548
Mof_O 	O 	0.7492	0.6306	0.8656	-0.592
Mof_O 	O 	0.5583	0.5853	0.8986	-0.697
Mof_O 	O 	0.4986	0.6388	0.788	-0.638
Mof_O 	O 	0.9577	0.2748	0.4333	-0.584
Mof_O 	O 	0.9727	0.4344	0.3667	-0.601
Mof_O 	O 	0.1075	0.6102	0.3365	-0.587
Mof_O 	O 	0.2282	0.6299	0.3717	-0.591
Mof_O 	O 	0.4532	0.7197	0.8933	-0.547
Mof_O 	O 	0.4962	0.8656	0.8852	-0.586
Mof_O 	O 	0.4839	0.8986	0.0431	-0.695
Mof_O 	O 	0.4268	0.788	0.2134	-0.637
Mof_O 	O 	0.5423	0.109	0.6829	-0.597
Mof_O 	O 	0.5273	0.1606	0.5383	-0.61
Mof_O 	O 	0.3925	0.056	0.4973	-0.592
Mof_O 	O 	0.2718	0.9001	0.5983	-0.591
Mof_O 	O 	0.0468	0.1535	0.7335	-0.548
Mof_O 	O 	0.0038	0.1186	0.6306	-0.591
Mof_O 	O 	0.0161	0.973	0.5853	-0.68
Mof_O 	O 	0.0732	0.8598	0.6388	-0.63
Mof_O 	O 	0.2919	0.5667	0.891	-0.596
Mof_O 	O 	0.1989	0.6333	0.8394	-0.608
Mof_O 	O 	0.0533	0.6635	0.944	-0.578
Mof_O 	O 	0.9984	0.6283	0.0999	-0.584
Mof_O 	O 	0.387	0.1067	0.8465	-0.542
Mof_O 	O 	0.2492	0.1148	0.8814	-0.584
Mof_O 	O 	0.0583	0.9569	0.027	-0.695
Mof_O 	O 	0.9986	0.7866	0.1402	-0.639
Mof_O 	O 	0.2081	0.3171	0.7252	-0.595
Mof_O 	O 	0.3011	0.4617	0.5656	-0.609
Mof_O 	O 	0.4467	0.5027	0.3898	-0.588
Mof_O 	O 	0.5016	0.4017	0.3701	-0.591
Mof_O 	O 	0.113	0.2665	0.2803	-0.548
Mof_O 	O 	0.2508	0.3694	0.1344	-0.592
Mof_O 	O 	0.4417	0.4147	0.1014	-0.697
Mof_O 	O 	0.5014	0.3612	0.212	-0.638
_end
