data_functionalizedCrystal
_audit_creation_method	'EQeq! by Chris Wilmer'
_symmetry_space_group_name_H-M	'P1'
_symmetry_Int_Tables_number	1
_symmetry_cell_setting	triclinic
loop_
_symmetry_equiv_pos_as_xyz
  x,y,z
_cell_length_a	7.953
_cell_length_b	11.0992
_cell_length_c	11.0992
_cell_angle_alpha	65.5166
_cell_angle_beta	76.1816
_cell_angle_gamma	103.818
loop_
_atom_site_label
_atom_site_type_symbol
_atom_site_fract_x
_atom_site_fract_y
_atom_site_fract_z
_atom_site_charge
Mof_In	In	0.9519	0.59722	0.39772	2.567
Mof_In	In	0.34962	0.39772	0.00506	2.92
Mof_In	In	0.35468	0.00506	0.59722	2.785
Mof_In	In	0.84962	0.99494	0.60228	2.535
Mof_In	In	0.85468	0.40278	0.99494	2.57
Mof_In	In	0.4519	0.60228	0.40278	2.92
Mof_H 	H 	0.6992	0.6662	0.4892	0.484
Mof_H 	H 	0.1884	0.4892	0.8446	0.498
Mof_H 	H 	0.033	0.8446	0.6662	0.553
Mof_H 	H 	0.6884	0.1554	0.5108	0.461
Mof_H 	H 	0.533	0.3338	0.1554	0.481
Mof_H 	H 	0.1992	0.5108	0.3338	0.498
Mof_C 	C 	0.9314	0.5741	0.6821	0.276
Mof_C 	C 	0.8622	0.417	0.717	0.263
Mof_C 	C 	0.6135	0.6821	0.7438	0.293
Mof_C 	C 	0.5792	0.717	0.866	0.29
Mof_C 	C 	0.3573	0.7438	0.5741	0.316
Mof_C 	C 	0.4452	0.866	0.417	0.313
Mof_C 	C 	0.1135	0.2562	0.3179	0.24
Mof_C 	C 	0.0792	0.134	0.283	0.568
Mof_C 	C 	0.8573	0.4259	0.2562	0.267
Mof_C 	C 	0.9452	0.583	0.134	0.273
Mof_C 	C 	0.4314	0.3179	0.4259	0.309
Mof_C 	C 	0.3622	0.283	0.583	0.294
Mof_O 	O 	0.7099	0.6388	0.4306	-1.365
Mof_O 	O 	0.9936	0.6699	0.5511	-0.707
Mof_O 	O 	0.8447	0.3946	0.6193	-0.603
Mof_O 	O 	0.3295	0.62	0.5963	-0.587
Mof_O 	O 	0.4938	0.8327	0.3248	-0.652
Mof_O 	O 	0.1405	0.4306	0.9306	-1.25
Mof_O 	O 	0.5447	0.5511	0.779	-0.651
Mof_O 	O 	0.464	0.6193	0.9861	-0.567
Mof_O 	O 	0.9258	0.5963	0.7837	-0.675
Mof_O 	O 	0.8186	0.3248	0.8425	-0.674
Mof_O 	O 	0.0711	0.9306	0.6388	-1.221
Mof_O 	O 	0.3237	0.779	0.6699	-0.587
Mof_O 	O 	0.4501	0.9861	0.3946	-0.543
Mof_O 	O 	0.7095	0.7837	0.62	-0.604
Mof_O 	O 	0.6611	0.8425	0.8327	-0.637
Mof_O 	O 	0.6405	0.0694	0.5694	-1.36
Mof_O 	O 	0.0447	0.221	0.4489	-0.497
Mof_O 	O 	0.964	0.0139	0.3807	-0.806
Mof_O 	O 	0.4258	0.2163	0.4037	-0.627
Mof_O 	O 	0.3186	0.1575	0.6752	-0.626
Mof_O 	O 	0.5711	0.3612	0.0694	-1.355
Mof_O 	O 	0.8237	0.3301	0.221	-0.67
Mof_O 	O 	0.9501	0.6054	0.0139	-0.62
Mof_O 	O 	0.2095	0.38	0.2163	-0.574
Mof_O 	O 	0.1611	0.1673	0.1575	-0.696
Mof_O 	O 	0.2099	0.5694	0.3612	-1.266
Mof_O 	O 	0.4936	0.4489	0.3301	-0.659
Mof_O 	O 	0.3447	0.3807	0.6054	-0.562
Mof_O 	O 	0.8295	0.4037	0.38	-0.635
Mof_O 	O 	0.9938	0.6752	0.1673	-0.698
_end
