data_functionalizedCrystal
_audit_creation_method	'EQeq! by Chris Wilmer'
_symmetry_space_group_name_H-M	'P1'
_symmetry_Int_Tables_number	1
_symmetry_cell_setting	triclinic
loop_
_symmetry_equiv_pos_as_xyz
  x,y,z
_cell_length_a	21.831
_cell_length_b	21.831
_cell_length_c	6.8543
_cell_angle_alpha	90
_cell_angle_beta	90
_cell_angle_gamma	120
loop_
_atom_site_label
_atom_site_type_symbol
_atom_site_fract_x
_atom_site_fract_y
_atom_site_fract_z
_atom_site_charge
Mof_Fe	Fe	0.6152	0.2798	0.138	0.796
Mof_O 	O 	0.6564	0.2372	0.935	-0.431
Mof_O 	O 	0.6404	0.2874	0.595	-0.45
Mof_O 	O 	0.5777	0.2047	0.367	-0.356
Mof_C 	C 	0.6138	0.1744	0.8787	0.306
Mof_C 	C 	0.594	0.1649	0.681	-0.232
Mof_C 	C 	0.5602	0.0958	0.6029	0.048
Mof_C 	C 	0.5449	0.0355	0.7105	-0.04
Mof_C 	C 	0.5638	0.0465	0.9089	0.052
Mof_C 	C 	0.5962	0.1132	0.9911	-0.232
Mof_C 	C 	0.605	0.2229	0.5481	0.387
Mof_H 	H 	0.547	0.0898	0.4694	0.026
Mof_H 	H 	0.5538	0.0067	0.9881	0.013
Mof_H 	H 	0.607	0.1182	0.1262	0.113
Mof_Fe	Fe	0.7202	0.3354	0.80467	0.797
Mof_O 	O 	0.7628	0.4192	0.60167	-0.432
Mof_O 	O 	0.7126	0.353	0.26167	-0.45
Mof_O 	O 	0.7953	0.373	0.03367	-0.356
Mof_C 	C 	0.8256	0.4394	0.54537	0.307
Mof_C 	C 	0.8351	0.4291	0.34767	-0.233
Mof_C 	C 	0.9042	0.4644	0.26957	0.049
Mof_C 	C 	0.9645	0.5094	0.37717	-0.041
Mof_C 	C 	0.9535	0.5173	0.57557	0.054
Mof_C 	C 	0.8868	0.483	0.65777	-0.236
Mof_C 	C 	0.7771	0.3821	0.21477	0.387
Mof_H 	H 	0.9102	0.4572	0.13607	0.026
Mof_H 	H 	0.9933	0.5471	0.65477	0.012
Mof_H 	H 	0.8818	0.4888	0.79287	0.115
Mof_Fe	Fe	0.6646	0.3848	0.47133	0.797
Mof_O 	O 	0.5808	0.3436	0.26833	-0.432
Mof_O 	O 	0.647	0.3596	0.92833	-0.45
Mof_O 	O 	0.627	0.4223	0.70033	-0.356
Mof_C 	C 	0.5606	0.3862	0.21203	0.308
Mof_C 	C 	0.5709	0.406	0.01433	-0.234
Mof_C 	C 	0.5356	0.4398	0.93623	0.05
Mof_C 	C 	0.4906	0.4551	0.04383	-0.041
Mof_C 	C 	0.4827	0.4362	0.24223	0.054
Mof_C 	C 	0.517	0.4038	0.32443	-0.236
Mof_C 	C 	0.6179	0.395	0.88143	0.388
Mof_H 	H 	0.5428	0.453	0.80273	0.026
Mof_H 	H 	0.4529	0.4462	0.32143	0.012
Mof_H 	H 	0.5112	0.393	0.45953	0.115
Mof_Fe	Fe	0.2798	0.6152	0.862	0.796
Mof_O 	O 	0.2372	0.6564	0.065	-0.431
Mof_O 	O 	0.2874	0.6404	0.405	-0.45
Mof_O 	O 	0.2047	0.5777	0.633	-0.356
Mof_C 	C 	0.1744	0.6138	0.1213	0.306
Mof_C 	C 	0.1649	0.594	0.319	-0.232
Mof_C 	C 	0.0958	0.5602	0.3971	0.048
Mof_C 	C 	0.0355	0.5449	0.2895	-0.04
Mof_C 	C 	0.0465	0.5638	0.0911	0.052
Mof_C 	C 	0.1132	0.5962	0.0089	-0.232
Mof_C 	C 	0.2229	0.605	0.4519	0.387
Mof_H 	H 	0.0898	0.547	0.5306	0.026
Mof_H 	H 	0.0067	0.5538	0.0119	0.013
Mof_H 	H 	0.1182	0.607	0.8738	0.113
Mof_Fe	Fe	0.3354	0.7202	0.19533	0.797
Mof_O 	O 	0.4192	0.7628	0.39833	-0.432
Mof_O 	O 	0.353	0.7126	0.73833	-0.45
Mof_O 	O 	0.373	0.7953	0.96633	-0.356
Mof_C 	C 	0.4394	0.8256	0.45463	0.307
Mof_C 	C 	0.4291	0.8351	0.65233	-0.233
Mof_C 	C 	0.4644	0.9042	0.73043	0.049
Mof_C 	C 	0.5094	0.9645	0.62283	-0.041
Mof_C 	C 	0.5173	0.9535	0.42443	0.054
Mof_C 	C 	0.483	0.8868	0.34223	-0.236
Mof_C 	C 	0.3821	0.7771	0.78523	0.387
Mof_H 	H 	0.4572	0.9102	0.86393	0.026
Mof_H 	H 	0.5471	0.9933	0.34523	0.012
Mof_H 	H 	0.4888	0.8818	0.20713	0.115
Mof_Fe	Fe	0.3848	0.6646	0.52867	0.797
Mof_O 	O 	0.3436	0.5808	0.73167	-0.432
Mof_O 	O 	0.3596	0.647	0.07167	-0.45
Mof_O 	O 	0.4223	0.627	0.29967	-0.356
Mof_C 	C 	0.3862	0.5606	0.78797	0.308
Mof_C 	C 	0.406	0.5709	0.98567	-0.234
Mof_C 	C 	0.4398	0.5356	0.06377	0.05
Mof_C 	C 	0.4551	0.4906	0.95617	-0.041
Mof_C 	C 	0.4362	0.4827	0.75777	0.054
Mof_C 	C 	0.4038	0.517	0.67557	-0.236
Mof_C 	C 	0.395	0.6179	0.11857	0.388
Mof_H 	H 	0.453	0.5428	0.19727	0.026
Mof_H 	H 	0.4462	0.4529	0.67857	0.012
Mof_H 	H 	0.393	0.5112	0.54047	0.115
_end
