data_functionalizedCrystal
_audit_creation_method	'EQeq! by Chris Wilmer'
_symmetry_space_group_name_H-M	'P1'
_symmetry_Int_Tables_number	1
_symmetry_cell_setting	triclinic
loop_
_symmetry_equiv_pos_as_xyz
  x,y,z
_cell_length_a	21.866
_cell_length_b	7.6101
_cell_length_c	19.646
_cell_angle_alpha	90
_cell_angle_beta	90
_cell_angle_gamma	90
loop_
_atom_site_label
_atom_site_type_symbol
_atom_site_fract_x
_atom_site_fract_y
_atom_site_fract_z
_atom_site_charge
Mof_O 	O 	0.73898	0.1933	0.12004	-0.635
Mof_O 	O 	0.63991	0.7242	0.0714	-0.564
Mof_O 	O 	0.68206	0.9989	0.17106	-0.442
Mof_C 	C 	0.6297	0.5631	0.0658	0.564
Mof_C 	C 	0.7097	0.2968	0.4367	0.474
Mof_C 	C 	0.5636	0.5067	0.0691	-0.449
Mof_H 	H 	0.5613	0.3851	0.0837	0.153
Mof_H 	H 	0.5421	0.578	0.1023	0.162
Mof_C 	C 	0.53333	0.5262	-0	0.012
Mof_H 	H 	0.5551	0.4543	0.9672	0.017
Mof_H 	H 	0.5367	0.6476	0.9854	0.021
Mof_C 	C 	0.696	0.4348	0.3837	-0.388
Mof_H 	H 	0.6831	0.5408	0.407	0.13
Mof_H 	H 	0.7337	0.462	0.3599	0.145
Mof_C 	C 	0.7031	0.1504	0.1689	0.401
Mof_C 	C 	0.6483	0.3896	0.3315	0.015
Mof_H 	H 	0.6304	0.493	0.3106	0.019
Mof_H 	H 	0.6164	0.3144	0.3496	0.034
Mof_O 	O 	0.68082	0.1575	0.43896	-0.489
Mof_C 	C 	0.6969	0.28	0.2774	0.073
Mof_C 	C 	0.703	0.284	0.2328	-0.049
Mof_C 	C 	0.6538	0.2348	0.281	-0.037
Mof_C 	C 	0.6783	0.292	0.2144	-0.092
Mof_Tb	Tb	0.71955	0.92517	0.05315	2.114
Mof_O 	O 	0.66934	0.4464	0.05362	-0.546
Mof_O 	O 	0.75168	0.3285	0.48062	-0.648
Mof_O 	O 	0.76102	0.3067	0.62004	-0.637
Mof_O 	O 	0.86009	0.7758	0.5714	-0.565
Mof_O 	O 	0.81794	0.5011	0.67106	-0.442
Mof_C 	C 	0.8703	0.9369	0.5658	0.566
Mof_C 	C 	0.7903	0.2032	0.9367	0.474
Mof_C 	C 	0.9364	0.9933	0.5691	-0.455
Mof_H 	H 	0.9387	0.1149	0.5837	0.155
Mof_H 	H 	0.9579	0.922	0.6023	0.164
Mof_C 	C 	0.96667	0.9738	0.5	0.02
Mof_H 	H 	0.9449	0.0457	0.4672	0.014
Mof_H 	H 	0.9633	0.8524	0.4854	0.017
Mof_C 	C 	0.804	0.0652	0.8837	-0.387
Mof_H 	H 	0.8169	0.9592	0.907	0.13
Mof_H 	H 	0.7663	0.038	0.8599	0.145
Mof_C 	C 	0.7969	0.3496	0.6689	0.4
Mof_C 	C 	0.8517	0.1104	0.8315	0.015
Mof_H 	H 	0.8696	0.007	0.8106	0.02
Mof_H 	H 	0.8836	0.1856	0.8496	0.034
Mof_O 	O 	0.81918	0.3425	0.93896	-0.488
Mof_C 	C 	0.8031	0.22	0.7774	0.073
Mof_C 	C 	0.797	0.216	0.7328	-0.049
Mof_C 	C 	0.8462	0.2652	0.781	-0.037
Mof_C 	C 	0.8217	0.208	0.7144	-0.092
Mof_Tb	Tb	0.78045	0.57483	0.55315	2.122
Mof_O 	O 	0.83066	0.0536	0.55362	-0.547
Mof_O 	O 	0.74832	0.1715	0.98062	-0.644
Mof_O 	O 	0.26102	0.1933	0.37996	-0.637
Mof_O 	O 	0.36009	0.7242	0.4286	-0.565
Mof_O 	O 	0.31794	0.9989	0.32894	-0.443
Mof_C 	C 	0.3703	0.5631	0.4342	0.566
Mof_C 	C 	0.2903	0.2968	0.0633	0.474
Mof_C 	C 	0.4364	0.5067	0.4309	-0.455
Mof_H 	H 	0.4387	0.3851	0.4163	0.155
Mof_H 	H 	0.4579	0.578	0.3977	0.164
Mof_C 	C 	0.46667	0.5262	0.5	0.022
Mof_H 	H 	0.4449	0.4543	0.5328	0.013
Mof_H 	H 	0.4633	0.6476	0.5146	0.017
Mof_C 	C 	0.304	0.4348	0.1163	-0.388
Mof_H 	H 	0.3169	0.5408	0.093	0.13
Mof_H 	H 	0.2663	0.462	0.1401	0.145
Mof_C 	C 	0.2969	0.1504	0.3311	0.401
Mof_C 	C 	0.3517	0.3896	0.1685	0.015
Mof_H 	H 	0.3696	0.493	0.1894	0.019
Mof_H 	H 	0.3836	0.3144	0.1504	0.034
Mof_O 	O 	0.31918	0.1575	0.06104	-0.489
Mof_C 	C 	0.3031	0.28	0.2226	0.073
Mof_C 	C 	0.297	0.284	0.2672	-0.049
Mof_C 	C 	0.3462	0.2348	0.219	-0.037
Mof_C 	C 	0.3217	0.292	0.2856	-0.092
Mof_Tb	Tb	0.28045	0.92517	0.44685	2.121
Mof_O 	O 	0.33066	0.4464	0.44638	-0.547
Mof_O 	O 	0.24832	0.3285	0.01938	-0.646
Mof_O 	O 	0.23898	0.3067	0.87996	-0.637
Mof_O 	O 	0.13991	0.7758	0.9286	-0.567
Mof_O 	O 	0.18206	0.5011	0.82894	-0.442
Mof_C 	C 	0.1297	0.9369	0.9342	0.571
Mof_C 	C 	0.2097	0.2032	0.5633	0.474
Mof_C 	C 	0.0636	0.9933	0.9309	-0.47
Mof_H 	H 	0.0613	0.1149	0.9163	0.158
Mof_H 	H 	0.0421	0.922	0.8977	0.167
Mof_C 	C 	0.03333	0.9738	-0	0.046
Mof_H 	H 	0.0551	0.0457	0.0328	0.008
Mof_H 	H 	0.0367	0.8524	0.0146	0.01
Mof_C 	C 	0.196	0.0652	0.6163	-0.386
Mof_H 	H 	0.1831	0.9592	0.593	0.128
Mof_H 	H 	0.2337	0.038	0.6401	0.145
Mof_C 	C 	0.2031	0.3496	0.8311	0.4
Mof_C 	C 	0.1483	0.1104	0.6685	0.015
Mof_H 	H 	0.1304	0.007	0.6894	0.019
Mof_H 	H 	0.1164	0.1856	0.6504	0.034
Mof_O 	O 	0.18082	0.3425	0.56104	-0.489
Mof_C 	C 	0.1969	0.22	0.7226	0.073
Mof_C 	C 	0.203	0.216	0.7672	-0.049
Mof_C 	C 	0.1538	0.2652	0.719	-0.038
Mof_C 	C 	0.1783	0.208	0.7856	-0.093
Mof_Tb	Tb	0.21955	0.57483	0.94685	2.121
Mof_O 	O 	0.16934	0.0536	0.94638	-0.549
Mof_O 	O 	0.25168	0.1715	0.51938	-0.647
Mof_O 	O 	0.26102	0.8067	0.87996	-0.637
Mof_O 	O 	0.36009	0.2758	0.9286	-0.565
Mof_O 	O 	0.31794	0.0011	0.82894	-0.442
Mof_C 	C 	0.3703	0.4369	0.9342	0.567
Mof_C 	C 	0.2903	0.7032	0.5633	0.474
Mof_C 	C 	0.4364	0.4933	0.9309	-0.457
Mof_H 	H 	0.4387	0.6149	0.9163	0.156
Mof_H 	H 	0.4579	0.422	0.8977	0.165
Mof_C 	C 	0.46667	0.4738	-0	0.027
Mof_H 	H 	0.4449	0.5457	0.0328	0.011
Mof_H 	H 	0.4633	0.3524	0.0146	0.015
Mof_C 	C 	0.304	0.5652	0.6163	-0.389
Mof_H 	H 	0.3169	0.4592	0.593	0.13
Mof_H 	H 	0.2663	0.538	0.6401	0.145
Mof_C 	C 	0.2969	0.8496	0.8311	0.4
Mof_C 	C 	0.3517	0.6104	0.6685	0.016
Mof_H 	H 	0.3696	0.507	0.6894	0.019
Mof_H 	H 	0.3836	0.6856	0.6504	0.034
Mof_O 	O 	0.31918	0.8425	0.56104	-0.49
Mof_C 	C 	0.3031	0.72	0.7226	0.072
Mof_C 	C 	0.297	0.716	0.7672	-0.049
Mof_C 	C 	0.3462	0.7652	0.719	-0.037
Mof_C 	C 	0.3217	0.708	0.7856	-0.092
Mof_Tb	Tb	0.28045	0.07483	0.94685	2.121
Mof_O 	O 	0.33066	0.5536	0.94638	-0.547
Mof_O 	O 	0.24832	0.6715	0.51938	-0.648
Mof_O 	O 	0.23898	0.6933	0.37996	-0.637
Mof_O 	O 	0.13991	0.2242	0.4286	-0.565
Mof_O 	O 	0.18206	0.4989	0.32894	-0.442
Mof_C 	C 	0.1297	0.0631	0.4342	0.568
Mof_C 	C 	0.2097	0.7968	0.0633	0.475
Mof_C 	C 	0.0636	0.0067	0.4309	-0.455
Mof_H 	H 	0.0613	0.8851	0.4163	0.155
Mof_H 	H 	0.0421	0.078	0.3977	0.164
Mof_C 	C 	0.03333	0.0262	0.5	0.024
Mof_H 	H 	0.0551	0.9543	0.5328	0.011
Mof_H 	H 	0.0367	0.1476	0.5146	0.016
Mof_C 	C 	0.196	0.9348	0.1163	-0.39
Mof_H 	H 	0.1831	0.0408	0.093	0.131
Mof_H 	H 	0.2337	0.962	0.1401	0.146
Mof_C 	C 	0.2031	0.6504	0.3311	0.4
Mof_C 	C 	0.1483	0.8896	0.1685	0.016
Mof_H 	H 	0.1304	0.993	0.1894	0.019
Mof_H 	H 	0.1164	0.8144	0.1504	0.034
Mof_O 	O 	0.18082	0.6575	0.06104	-0.489
Mof_C 	C 	0.1969	0.78	0.2226	0.073
Mof_C 	C 	0.203	0.784	0.2672	-0.049
Mof_C 	C 	0.1538	0.7348	0.219	-0.037
Mof_C 	C 	0.1783	0.792	0.2856	-0.092
Mof_Tb	Tb	0.21955	0.42517	0.44685	2.123
Mof_O 	O 	0.16934	0.9464	0.44638	-0.548
Mof_O 	O 	0.25168	0.8285	0.01938	-0.647
Mof_O 	O 	0.73898	0.8067	0.62004	-0.637
Mof_O 	O 	0.63991	0.2758	0.5714	-0.565
Mof_O 	O 	0.68206	0.0011	0.67106	-0.442
Mof_C 	C 	0.6297	0.4369	0.5658	0.566
Mof_C 	C 	0.7097	0.7032	0.9367	0.474
Mof_C 	C 	0.5636	0.4933	0.5691	-0.455
Mof_H 	H 	0.5613	0.6149	0.5837	0.155
Mof_H 	H 	0.5421	0.422	0.6023	0.164
Mof_C 	C 	0.53333	0.4738	0.5	0.022
Mof_H 	H 	0.5551	0.5457	0.4672	0.013
Mof_H 	H 	0.5367	0.3524	0.4854	0.017
Mof_C 	C 	0.696	0.5652	0.8837	-0.388
Mof_H 	H 	0.6831	0.4592	0.907	0.13
Mof_H 	H 	0.7337	0.538	0.8599	0.145
Mof_C 	C 	0.7031	0.8496	0.6689	0.4
Mof_C 	C 	0.6483	0.6104	0.8315	0.016
Mof_H 	H 	0.6304	0.507	0.8106	0.019
Mof_H 	H 	0.6164	0.6856	0.8496	0.034
Mof_O 	O 	0.68082	0.8425	0.93896	-0.488
Mof_C 	C 	0.6969	0.72	0.7774	0.073
Mof_C 	C 	0.703	0.716	0.7328	-0.049
Mof_C 	C 	0.6538	0.7652	0.781	-0.037
Mof_C 	C 	0.6783	0.708	0.7144	-0.092
Mof_Tb	Tb	0.71955	0.07483	0.55315	2.122
Mof_O 	O 	0.66934	0.5536	0.55362	-0.547
Mof_O 	O 	0.75168	0.6715	0.98062	-0.644
Mof_O 	O 	0.76102	0.6933	0.12004	-0.636
Mof_O 	O 	0.86009	0.2242	0.0714	-0.563
Mof_O 	O 	0.81794	0.4989	0.17106	-0.442
Mof_C 	C 	0.8703	0.0631	0.0658	0.56
Mof_C 	C 	0.7903	0.7968	0.4367	0.474
Mof_C 	C 	0.9364	0.0067	0.0691	-0.433
Mof_H 	H 	0.9387	0.8851	0.0837	0.147
Mof_H 	H 	0.9579	0.078	0.1023	0.157
Mof_C 	C 	0.96667	0.0262	-0	-0.015
Mof_H 	H 	0.9449	0.9543	0.9672	0.027
Mof_H 	H 	0.9633	0.1476	0.9854	0.03
Mof_C 	C 	0.804	0.9348	0.3837	-0.389
Mof_H 	H 	0.8169	0.0408	0.407	0.13
Mof_H 	H 	0.7663	0.962	0.3599	0.145
Mof_C 	C 	0.7969	0.6504	0.1689	0.4
Mof_C 	C 	0.8517	0.8896	0.3315	0.016
Mof_H 	H 	0.8696	0.993	0.3106	0.019
Mof_H 	H 	0.8836	0.8144	0.3496	0.034
Mof_O 	O 	0.81918	0.6575	0.43896	-0.49
Mof_C 	C 	0.8031	0.78	0.2774	0.073
Mof_C 	C 	0.797	0.784	0.2328	-0.049
Mof_C 	C 	0.8462	0.7348	0.281	-0.037
Mof_C 	C 	0.8217	0.792	0.2144	-0.092
Mof_Tb	Tb	0.78045	0.42517	0.05315	2.116
Mof_O 	O 	0.83066	0.9464	0.05362	-0.547
Mof_O 	O 	0.74832	0.8285	0.48062	-0.648
_end
