data_functionalizedCrystal
_audit_creation_method	'EQeq! by Chris Wilmer'
_symmetry_space_group_name_H-M	'P1'
_symmetry_Int_Tables_number	1
_symmetry_cell_setting	triclinic
loop_
_symmetry_equiv_pos_as_xyz
  x,y,z
_cell_length_a	8.7529
_cell_length_b	11.2626
_cell_length_c	17.7276
_cell_angle_alpha	84.4951
_cell_angle_beta	75.7076
_cell_angle_gamma	67.134
loop_
_atom_site_label
_atom_site_type_symbol
_atom_site_fract_x
_atom_site_fract_y
_atom_site_fract_z
_atom_site_charge
Mof_Sc	Sc	0.63578	0.25	0.72844	1.918
Mof_Sc	Sc	0.11422	0.25	0.77156	1.916
Mof_Sc	Sc	0.36422	0.75	0.27156	1.917
Mof_Sc	Sc	0.88578	0.75	0.22844	1.916
Mof_C 	C 	0.02117	0.68308	0.74922	0.019
Mof_C 	C 	0.90562	0.35908	0.63028	0.524
Mof_C 	C 	0.95265	0.4338	0.5645	-0.168
Mof_C 	C 	0.85941	0.46634	0.50738	0.016
Mof_C 	C 	0.09764	0.4611	0.55578	0.022
Mof_C 	C 	0.22961	0.81692	0.74922	0.021
Mof_C 	C 	0.4641	0.14092	0.63028	0.524
Mof_C 	C 	0.48285	0.0662	0.5645	-0.168
Mof_C 	C 	0.63321	0.03366	0.50738	0.016
Mof_C 	C 	0.34658	0.0389	0.55578	0.022
Mof_C 	C 	0.29575	0.68308	0.75078	0.02
Mof_C 	C 	0.7353	0.35908	0.86972	0.524
Mof_C 	C 	0.61355	0.4338	0.9355	-0.168
Mof_C 	C 	0.67425	0.46634	0.99262	0.016
Mof_C 	C 	0.44126	0.4611	0.94422	0.022
Mof_C 	C 	0.95347	0.81692	0.75078	0.022
Mof_C 	C 	0.39498	0.14092	0.86972	0.524
Mof_C 	C 	0.45095	0.0662	0.9355	-0.168
Mof_C 	C 	0.33313	0.03366	0.99262	0.015
Mof_C 	C 	0.61452	0.0389	0.94422	0.023
Mof_C 	C 	0.97883	0.31692	0.25078	0.019
Mof_C 	C 	0.09438	0.64092	0.36972	0.524
Mof_C 	C 	0.04735	0.5662	0.4355	-0.168
Mof_C 	C 	0.14059	0.53366	0.49262	0.016
Mof_C 	C 	0.90236	0.5389	0.44422	0.022
Mof_C 	C 	0.77039	0.18308	0.25078	0.021
Mof_C 	C 	0.5359	0.85908	0.36972	0.524
Mof_C 	C 	0.51715	0.9338	0.4355	-0.169
Mof_C 	C 	0.36679	0.96634	0.49262	0.017
Mof_C 	C 	0.65342	0.9611	0.44422	0.023
Mof_C 	C 	0.70425	0.31692	0.24922	0.02
Mof_C 	C 	0.2647	0.64092	0.13028	0.524
Mof_C 	C 	0.38645	0.5662	0.0645	-0.168
Mof_C 	C 	0.32575	0.53366	0.00738	0.016
Mof_C 	C 	0.55874	0.5389	0.05578	0.022
Mof_C 	C 	0.04653	0.18308	0.24922	0.022
Mof_C 	C 	0.60502	0.85908	0.13028	0.524
Mof_C 	C 	0.54905	0.9338	0.0645	-0.169
Mof_C 	C 	0.66687	0.96634	0.00738	0.015
Mof_C 	C 	0.38548	0.9611	0.05578	0.023
Mof_C 	C 	0.26101	0.47798	0.75	0.532
Mof_C 	C 	0.19162	0.61676	0.75	-0.17
Mof_C 	C 	0.98899	0.02202	0.75	0.534
Mof_C 	C 	0.05838	0.88324	0.75	-0.172
Mof_C 	C 	0.73899	0.52202	0.25	0.532
Mof_C 	C 	0.80838	0.38324	0.25	-0.17
Mof_C 	C 	0.01101	0.97798	0.25	0.534
Mof_C 	C 	0.94162	0.11676	0.25	-0.172
Mof_O 	O 	0.42046	0.4164	0.72908	-0.554
Mof_O 	O 	0.77582	0.33038	0.63998	-0.532
Mof_O 	O 	0.98543	0.33256	0.68438	-0.56
Mof_O 	O 	0.85046	0.0836	0.72908	-0.554
Mof_O 	O 	0.5842	0.16962	0.63998	-0.532
Mof_O 	O 	0.33019	0.16744	0.68438	-0.56
Mof_O 	O 	0.16314	0.4164	0.77092	-0.554
Mof_O 	O 	0.8938	0.33038	0.86002	-0.532
Mof_O 	O 	0.68201	0.33256	0.81562	-0.56
Mof_O 	O 	0.06594	0.0836	0.77092	-0.555
Mof_O 	O 	0.24618	0.16962	0.86002	-0.532
Mof_O 	O 	0.50237	0.16744	0.81562	-0.56
Mof_O 	O 	0.57954	0.5836	0.27092	-0.554
Mof_O 	O 	0.22418	0.66962	0.36002	-0.532
Mof_O 	O 	0.01457	0.66744	0.31562	-0.559
Mof_O 	O 	0.14954	0.9164	0.27092	-0.554
Mof_O 	O 	0.4158	0.83038	0.36002	-0.532
Mof_O 	O 	0.66981	0.83256	0.31562	-0.56
Mof_O 	O 	0.83686	0.5836	0.22908	-0.554
Mof_O 	O 	0.1062	0.66962	0.13998	-0.532
Mof_O 	O 	0.31799	0.66744	0.18438	-0.56
Mof_O 	O 	0.93406	0.9164	0.22908	-0.555
Mof_O 	O 	0.75382	0.83038	0.13998	-0.532
Mof_O 	O 	0.49763	0.83256	0.18438	-0.56
Mof_H 	H 	0.9368	0.6282	0.74731	0.032
Mof_H 	H 	0.74937	0.43337	0.51291	0.037
Mof_H 	H 	0.17984	0.42391	0.60032	0.024
Mof_H 	H 	0.31589	0.8718	0.74731	0.031
Mof_H 	H 	0.73772	0.06663	0.51291	0.037
Mof_H 	H 	0.21983	0.07609	0.60032	0.024
Mof_H 	H 	0.435	0.62821	0.75269	0.031
Mof_H 	H 	0.81726	0.43337	0.98709	0.037
Mof_H 	H 	0.39625	0.42391	0.89968	0.024
Mof_H 	H 	0.81231	0.87179	0.75269	0.031
Mof_H 	H 	0.19565	0.06663	0.98709	0.037
Mof_H 	H 	0.70407	0.07609	0.89968	0.024
Mof_H 	H 	0.0632	0.3718	0.25269	0.032
Mof_H 	H 	0.25063	0.56663	0.48709	0.037
Mof_H 	H 	0.81898	0.57547	0.40013	0.024
Mof_H 	H 	0.68411	0.1282	0.25269	0.031
Mof_H 	H 	0.2609	0.93422	0.48806	0.037
Mof_H 	H 	0.7809	0.92453	0.40013	0.024
Mof_H 	H 	0.565	0.37179	0.24731	0.031
Mof_H 	H 	0.18274	0.56663	0.01291	0.037
Mof_H 	H 	0.60556	0.57547	0.09987	0.024
Mof_H 	H 	0.18769	0.12821	0.24731	0.031
Mof_H 	H 	0.80435	0.93337	0.01291	0.037
Mof_H 	H 	0.29457	0.92453	0.09987	0.024
_end
