data_functionalizedCrystal
_audit_creation_method	'EQeq! by Chris Wilmer'
_symmetry_space_group_name_H-M	'P1'
_symmetry_Int_Tables_number	1
_symmetry_cell_setting	triclinic
loop_
_symmetry_equiv_pos_as_xyz
  x,y,z
_cell_length_a	13.7909
_cell_length_b	16.2879
_cell_length_c	22.017
_cell_angle_alpha	90
_cell_angle_beta	90
_cell_angle_gamma	90
loop_
_atom_site_label
_atom_site_type_symbol
_atom_site_fract_x
_atom_site_fract_y
_atom_site_fract_z
_atom_site_charge
Mof_Mg	Mg	0.2221	0.55091	0.75915	1.467
Mof_Mg	Mg	0.7221	0.44909	0.74085	1.467
Mof_Mg	Mg	0.7779	0.05091	0.24085	1.467
Mof_Mg	Mg	0.2779	0.94909	0.25915	1.467
Mof_Mg	Mg	0.7779	0.44909	0.24085	1.467
Mof_Mg	Mg	0.2779	0.55091	0.25915	1.467
Mof_Mg	Mg	0.2221	0.94909	0.75915	1.466
Mof_Mg	Mg	0.7221	0.05091	0.74085	1.466
Mof_Zn	Zn	0.97979	0.49791	0.66883	1.239
Mof_Zn	Zn	0.47979	0.50209	0.83117	1.239
Mof_Zn	Zn	0.02021	0.99791	0.33117	1.235
Mof_Zn	Zn	0.52021	0.00209	0.16883	1.238
Mof_Zn	Zn	0.02021	0.50209	0.33117	1.237
Mof_Zn	Zn	0.52021	0.49791	0.16883	1.239
Mof_Zn	Zn	0.97979	0.00209	0.66883	1.237
Mof_Zn	Zn	0.47979	0.99791	0.83117	1.239
Mof_H 	H 	0.35922	0.5826	0.61746	0.018
Mof_H 	H 	0.49485	0.66489	0.56438	0.052
Mof_H 	H 	0.52094	0.63673	0.48408	0.051
Mof_H 	H 	0.53433	0.55869	0.54528	0.056
Mof_H 	H 	0.39295	0.58444	0.42097	0.021
Mof_H 	H 	0.11382	0.51897	0.50132	0.033
Mof_H 	H 	0.75801	0.61662	0.84483	0.026
Mof_H 	H 	0.66695	0.68407	0.91755	0.055
Mof_H 	H 	0.17861	0.38409	0.85997	0.029
Mof_H 	H 	0.31499	0.28393	0.91498	0.055
Mof_H 	H 	0.85922	0.4174	0.88254	0.017
Mof_H 	H 	0.01247	0.39652	0.92159	0.056
Mof_H 	H 	0.03856	0.42468	0.00189	0.054
Mof_H 	H 	0.99909	0.31848	0.98279	0.049
Mof_H 	H 	0.89295	0.41556	0.07903	0.021
Mof_H 	H 	0.61382	0.48103	0.99868	0.033
Mof_H 	H 	0.25801	0.38338	0.65517	0.027
Mof_H 	H 	0.1618	0.18407	0.58511	0.057
Mof_H 	H 	0.67861	0.61591	0.64003	0.028
Mof_H 	H 	0.75835	0.68402	0.56131	0.054
Mof_H 	H 	0.64078	0.0826	0.38254	0.017
Mof_H 	H 	0.46038	0.05932	0.4812	0.058
Mof_H 	H 	0.49782	0.1345	0.42199	0.054
Mof_H 	H 	0.49168	0.1665	0.50308	0.05
Mof_H 	H 	0.60705	0.08444	0.57903	0.021
Mof_H 	H 	0.88618	0.01897	0.49868	0.033
Mof_H 	H 	0.24199	0.11662	0.15517	0.026
Mof_H 	H 	0.2823	0.28052	0.05625	0.052
Mof_H 	H 	0.82139	0.88409	0.14003	0.03
Mof_H 	H 	0.79616	0.78393	0.03848	0.053
Mof_H 	H 	0.14078	0.9174	0.11746	0.016
Mof_H 	H 	0.96877	0.89429	0.98448	0.062
Mof_H 	H 	0.97491	0.92628	0.06556	0.068
Mof_H 	H 	0.0062	0.81911	0.04369	0.053
Mof_H 	H 	0.10705	0.91556	0.92097	0.019
Mof_H 	H 	0.38618	0.98103	0.00132	0.034
Mof_H 	H 	0.74199	0.88338	0.34483	0.028
Mof_H 	H 	0.83305	0.68407	0.41755	0.056
Mof_H 	H 	0.32139	0.11591	0.35997	0.029
Mof_H 	H 	0.23953	0.18402	0.4378	0.055
Mof_H 	H 	0.64078	0.4174	0.38254	0.017
Mof_H 	H 	0.50091	0.31848	0.48279	0.05
Mof_H 	H 	0.48753	0.39652	0.42159	0.055
Mof_H 	H 	0.46144	0.42468	0.50189	0.055
Mof_H 	H 	0.60705	0.41556	0.57903	0.021
Mof_H 	H 	0.88618	0.48103	0.49868	0.034
Mof_H 	H 	0.24199	0.38338	0.15517	0.027
Mof_H 	H 	0.3382	0.18407	0.08511	0.056
Mof_H 	H 	0.82139	0.61591	0.14003	0.028
Mof_H 	H 	0.74165	0.68402	0.06131	0.055
Mof_H 	H 	0.14078	0.5826	0.11746	0.017
Mof_H 	H 	0.97906	0.63673	0.98408	0.056
Mof_H 	H 	0.00515	0.66489	0.06438	0.052
Mof_H 	H 	0.96567	0.55869	0.04528	0.062
Mof_H 	H 	0.10705	0.58444	0.92097	0.021
Mof_H 	H 	0.38618	0.51897	0.00132	0.034
Mof_H 	H 	0.74199	0.61662	0.34483	0.026
Mof_H 	H 	0.88895	0.78052	0.38869	0.058
Mof_H 	H 	0.32139	0.38409	0.35997	0.029
Mof_H 	H 	0.18501	0.28393	0.41498	0.056
Mof_H 	H 	0.35922	0.9174	0.61746	0.017
Mof_H 	H 	0.52509	0.92628	0.56556	0.056
Mof_H 	H 	0.53123	0.89429	0.48448	0.053
Mof_H 	H 	0.4938	0.81911	0.54369	0.051
Mof_H 	H 	0.39295	0.91556	0.42097	0.021
Mof_H 	H 	0.11382	0.98103	0.50132	0.032
Mof_H 	H 	0.75801	0.88338	0.84483	0.027
Mof_H 	H 	0.61105	0.78052	0.88869	0.056
Mof_H 	H 	0.17861	0.11591	0.85997	0.029
Mof_H 	H 	0.26047	0.18402	0.9378	0.055
Mof_H 	H 	0.85922	0.0826	0.88254	0.016
Mof_H 	H 	0.00218	0.1345	0.92199	0.061
Mof_H 	H 	0.00832	0.1665	0.00308	0.055
Mof_H 	H 	0.03962	0.05932	0.9812	0.066
Mof_H 	H 	0.89295	0.08444	0.07903	0.02
Mof_H 	H 	0.61382	0.01897	0.99868	0.034
Mof_H 	H 	0.25801	0.11662	0.65517	0.027
Mof_H 	H 	0.2177	0.28052	0.55625	0.053
Mof_H 	H 	0.67861	0.88409	0.64003	0.029
Mof_H 	H 	0.70384	0.78393	0.53848	0.051
Mof_H 	H 	0.93136	0.7496	0.711	0.022
Mof_H 	H 	0.43136	0.2504	0.789	0.021
Mof_H 	H 	0.06864	0.2504	0.289	0.021
Mof_H 	H 	0.56864	0.7496	0.211	0.021
Mof_H 	H 	0.01763	0.24972	0.72112	0.017
Mof_H 	H 	0.51763	0.75028	0.77888	0.017
Mof_H 	H 	0.98237	0.75028	0.27888	0.018
Mof_H 	H 	0.48237	0.24972	0.22112	0.017
Mof_C 	C 	0.1679	0.5398	0.6194	0.467
Mof_C 	C 	0.2307	0.5509	0.56415	-0.168
Mof_C 	C 	0.3265	0.5744	0.5703	0.023
Mof_C 	C 	0.3836	0.5882	0.5204	-0.008
Mof_C 	C 	0.4904	0.6138	0.5291	-0.145
Mof_C 	C 	0.3454	0.5754	0.4628	0.021
Mof_C 	C 	0.2485	0.5514	0.4561	-0.173
Mof_C 	C 	0.2066	0.5425	0.3939	0.483
Mof_C 	C 	0.1925	0.5391	0.50681	0.095
Mof_C 	C 	0.8747	0.5975	0.74555	0.432
Mof_C 	C 	0.8452	0.6761	0.77506	-0.154
Mof_C 	C 	0.7839	0.6769	0.8241	0.015
Mof_C 	C 	0.0723	0.4027	0.7564	0.439
Mof_C 	C 	0.0967	0.3232	0.78742	-0.158
Mof_C 	C 	0.1542	0.3234	0.8392	0.012
Mof_C 	C 	0.6679	0.4602	0.8806	0.467
Mof_C 	C 	0.7307	0.4491	0.93585	-0.168
Mof_C 	C 	0.8265	0.4256	0.9297	0.024
Mof_C 	C 	0.8836	0.4118	0.9796	-0.009
Mof_C 	C 	0.9904	0.3862	0.9709	-0.145
Mof_C 	C 	0.8454	0.4246	0.0372	0.022
Mof_C 	C 	0.7485	0.4486	0.0439	-0.172
Mof_C 	C 	0.7066	0.4575	0.1061	0.482
Mof_C 	C 	0.6925	0.4609	0.99319	0.094
Mof_C 	C 	0.3747	0.4025	0.75445	0.432
Mof_C 	C 	0.3452	0.3239	0.72494	-0.155
Mof_C 	C 	0.2839	0.3231	0.6759	0.015
Mof_C 	C 	0.5723	0.5973	0.7436	0.439
Mof_C 	C 	0.5967	0.6768	0.71258	-0.158
Mof_C 	C 	0.6542	0.6766	0.6608	0.013
Mof_C 	C 	0.8321	0.0398	0.3806	0.467
Mof_C 	C 	0.7693	0.0509	0.43585	-0.168
Mof_C 	C 	0.6735	0.0744	0.4297	0.023
Mof_C 	C 	0.6164	0.0882	0.4796	-0.007
Mof_C 	C 	0.5096	0.1138	0.4709	-0.146
Mof_C 	C 	0.6546	0.0754	0.5372	0.021
Mof_C 	C 	0.7515	0.0514	0.5439	-0.173
Mof_C 	C 	0.7934	0.0425	0.6061	0.482
Mof_C 	C 	0.8075	0.0391	0.49319	0.095
Mof_C 	C 	0.1253	0.0975	0.25445	0.432
Mof_C 	C 	0.1548	0.1761	0.22494	-0.154
Mof_C 	C 	0.2161	0.1769	0.1759	0.015
Mof_C 	C 	0.9277	0.9027	0.2436	0.438
Mof_C 	C 	0.9033	0.8232	0.21258	-0.156
Mof_C 	C 	0.8458	0.8234	0.1608	0.013
Mof_C 	C 	0.3321	0.9602	0.1194	0.466
Mof_C 	C 	0.2693	0.9491	0.06415	-0.167
Mof_C 	C 	0.1735	0.9256	0.0703	0.019
Mof_C 	C 	0.1164	0.9118	0.0204	-0.003
Mof_C 	C 	0.0096	0.8862	0.0291	-0.17
Mof_C 	C 	0.1546	0.9246	0.9628	0.016
Mof_C 	C 	0.2515	0.9486	0.9561	-0.173
Mof_C 	C 	0.2934	0.9575	0.8939	0.482
Mof_C 	C 	0.3075	0.9609	0.00681	0.095
Mof_C 	C 	0.6253	0.9025	0.24555	0.432
Mof_C 	C 	0.6548	0.8239	0.27506	-0.154
Mof_C 	C 	0.7161	0.8231	0.3241	0.014
Mof_C 	C 	0.4277	0.0973	0.2564	0.439
Mof_C 	C 	0.4033	0.1768	0.28742	-0.157
Mof_C 	C 	0.3458	0.1766	0.3392	0.012
Mof_C 	C 	0.8321	0.4602	0.3806	0.466
Mof_C 	C 	0.7693	0.4491	0.43585	-0.167
Mof_C 	C 	0.6735	0.4256	0.4297	0.023
Mof_C 	C 	0.6164	0.4118	0.4796	-0.006
Mof_C 	C 	0.5096	0.3862	0.4709	-0.146
Mof_C 	C 	0.6546	0.4246	0.5372	0.02
Mof_C 	C 	0.7515	0.4486	0.5439	-0.172
Mof_C 	C 	0.7934	0.4575	0.6061	0.482
Mof_C 	C 	0.8075	0.4609	0.49319	0.095
Mof_C 	C 	0.1253	0.4025	0.25445	0.432
Mof_C 	C 	0.1548	0.3239	0.22494	-0.155
Mof_C 	C 	0.2161	0.3231	0.1759	0.015
Mof_C 	C 	0.9277	0.5973	0.2436	0.439
Mof_C 	C 	0.9033	0.6768	0.21258	-0.156
Mof_C 	C 	0.8458	0.6766	0.1608	0.013
Mof_C 	C 	0.3321	0.5398	0.1194	0.467
Mof_C 	C 	0.2693	0.5509	0.06415	-0.167
Mof_C 	C 	0.1735	0.5744	0.0703	0.021
Mof_C 	C 	0.1164	0.5882	0.0204	-0.006
Mof_C 	C 	0.0096	0.6138	0.0291	-0.156
Mof_C 	C 	0.1546	0.5754	0.9628	0.02
Mof_C 	C 	0.2515	0.5514	0.9561	-0.172
Mof_C 	C 	0.2934	0.5425	0.8939	0.482
Mof_C 	C 	0.3075	0.5391	0.00681	0.095
Mof_C 	C 	0.6253	0.5975	0.24555	0.432
Mof_C 	C 	0.6548	0.6761	0.27506	-0.155
Mof_C 	C 	0.7161	0.6769	0.3241	0.015
Mof_C 	C 	0.4277	0.4027	0.2564	0.439
Mof_C 	C 	0.4033	0.3232	0.28742	-0.158
Mof_C 	C 	0.3458	0.3234	0.3392	0.012
Mof_C 	C 	0.1679	0.9602	0.6194	0.467
Mof_C 	C 	0.2307	0.9491	0.56415	-0.169
Mof_C 	C 	0.3265	0.9256	0.5703	0.023
Mof_C 	C 	0.3836	0.9118	0.5204	-0.008
Mof_C 	C 	0.4904	0.8862	0.5291	-0.146
Mof_C 	C 	0.3454	0.9246	0.4628	0.02
Mof_C 	C 	0.2485	0.9486	0.4561	-0.173
Mof_C 	C 	0.2066	0.9575	0.3939	0.482
Mof_C 	C 	0.1925	0.9609	0.50681	0.095
Mof_C 	C 	0.8747	0.9025	0.74555	0.432
Mof_C 	C 	0.8452	0.8239	0.77506	-0.154
Mof_C 	C 	0.7839	0.8231	0.8241	0.015
Mof_C 	C 	0.0723	0.0973	0.7564	0.438
Mof_C 	C 	0.0967	0.1768	0.78742	-0.157
Mof_C 	C 	0.1542	0.1766	0.8392	0.012
Mof_C 	C 	0.6679	0.0398	0.8806	0.466
Mof_C 	C 	0.7307	0.0509	0.93585	-0.167
Mof_C 	C 	0.8265	0.0744	0.9297	0.02
Mof_C 	C 	0.8836	0.0882	0.9796	-0.003
Mof_C 	C 	0.9904	0.1138	0.9709	-0.164
Mof_C 	C 	0.8454	0.0754	0.0372	0.018
Mof_C 	C 	0.7485	0.0514	0.0439	-0.172
Mof_C 	C 	0.7066	0.0425	0.1061	0.482
Mof_C 	C 	0.6925	0.0391	0.99319	0.094
Mof_C 	C 	0.3747	0.0975	0.75445	0.432
Mof_C 	C 	0.3452	0.1761	0.72494	-0.154
Mof_C 	C 	0.2839	0.1769	0.6759	0.015
Mof_C 	C 	0.5723	0.9027	0.7436	0.439
Mof_C 	C 	0.5967	0.8232	0.71258	-0.157
Mof_C 	C 	0.6542	0.8234	0.6608	0.013
Mof_C 	C 	0.8781	0.75	0.7506	0.075
Mof_C 	C 	0.7515	0.75	0.85	0.004
Mof_C 	C 	0.6819	0.75	0.9029	-0.148
Mof_C 	C 	0.3781	0.25	0.7494	0.075
Mof_C 	C 	0.2515	0.25	0.65	0.004
Mof_C 	C 	0.1819	0.25	0.5971	-0.148
Mof_C 	C 	0.1219	0.25	0.2494	0.075
Mof_C 	C 	0.2485	0.25	0.15	0.003
Mof_C 	C 	0.3181	0.25	0.0971	-0.148
Mof_C 	C 	0.6219	0.75	0.2506	0.075
Mof_C 	C 	0.7485	0.75	0.35	0.004
Mof_C 	C 	0.8181	0.75	0.4029	-0.149
Mof_C 	C 	0.182	0.25	0.8657	0.003
Mof_C 	C 	0.2441	0.25	0.9239	-0.148
Mof_C 	C 	0.0671	0.25	0.7626	0.083
Mof_C 	C 	0.682	0.75	0.6343	0.002
Mof_C 	C 	0.7441	0.75	0.5761	-0.148
Mof_C 	C 	0.5671	0.75	0.7374	0.083
Mof_C 	C 	0.818	0.75	0.1343	0.003
Mof_C 	C 	0.7559	0.75	0.0761	-0.148
Mof_C 	C 	0.9329	0.75	0.2374	0.083
Mof_C 	C 	0.318	0.25	0.3657	0.003
Mof_C 	C 	0.2559	0.25	0.4239	-0.148
Mof_C 	C 	0.4329	0.25	0.2626	0.083
Mof_O 	O 	0.0823	0.5145	0.61041	-0.495
Mof_O 	O 	0.2006	0.5573	0.67012	-0.588
Mof_O 	O 	0.1169	0.5258	0.39226	-0.506
Mof_O 	O 	0.258	0.5525	0.34946	-0.585
Mof_O 	O 	0.95	0.59998	0.71173	-0.5
Mof_O 	O 	0.828	0.5337	0.75437	-0.556
Mof_O 	O 	0.0041	0.4001	0.71678	-0.508
Mof_O 	O 	0.1147	0.4666	0.76944	-0.555
Mof_O 	O 	0.5823	0.4855	0.88959	-0.494
Mof_O 	O 	0.7006	0.4427	0.82988	-0.588
Mof_O 	O 	0.6169	0.4742	0.10774	-0.505
Mof_O 	O 	0.758	0.4475	0.15054	-0.585
Mof_O 	O 	0.45	0.40002	0.78827	-0.501
Mof_O 	O 	0.328	0.4663	0.74563	-0.556
Mof_O 	O 	0.5041	0.5999	0.78322	-0.507
Mof_O 	O 	0.6147	0.5334	0.73056	-0.554
Mof_O 	O 	0.9177	0.0145	0.38959	-0.495
Mof_O 	O 	0.7994	0.0573	0.32988	-0.589
Mof_O 	O 	0.8831	0.0258	0.60774	-0.507
Mof_O 	O 	0.742	0.0525	0.65054	-0.586
Mof_O 	O 	0.05	0.09998	0.28827	-0.499
Mof_O 	O 	0.172	0.0337	0.24563	-0.555
Mof_O 	O 	0.9959	0.9001	0.28322	-0.502
Mof_O 	O 	0.8853	0.9666	0.23056	-0.55
Mof_O 	O 	0.4177	0.9855	0.11041	-0.493
Mof_O 	O 	0.2994	0.9427	0.17012	-0.589
Mof_O 	O 	0.3831	0.9742	0.89226	-0.506
Mof_O 	O 	0.242	0.9475	0.84946	-0.587
Mof_O 	O 	0.55	0.90002	0.21173	-0.501
Mof_O 	O 	0.672	0.9663	0.25437	-0.554
Mof_O 	O 	0.4959	0.0999	0.21678	-0.507
Mof_O 	O 	0.3853	0.0334	0.26944	-0.553
Mof_O 	O 	0.9177	0.4855	0.38959	-0.492
Mof_O 	O 	0.7994	0.4427	0.32988	-0.587
Mof_O 	O 	0.8831	0.4742	0.60774	-0.505
Mof_O 	O 	0.742	0.4475	0.65054	-0.585
Mof_O 	O 	0.05	0.40002	0.28827	-0.502
Mof_O 	O 	0.172	0.4663	0.24563	-0.557
Mof_O 	O 	0.9959	0.5999	0.28322	-0.505
Mof_O 	O 	0.8853	0.5334	0.23056	-0.553
Mof_O 	O 	0.4177	0.5145	0.11041	-0.493
Mof_O 	O 	0.2994	0.5573	0.17012	-0.588
Mof_O 	O 	0.3831	0.5258	0.89226	-0.505
Mof_O 	O 	0.242	0.5525	0.84946	-0.585
Mof_O 	O 	0.55	0.59998	0.21173	-0.501
Mof_O 	O 	0.672	0.5337	0.25437	-0.556
Mof_O 	O 	0.4959	0.4001	0.21678	-0.508
Mof_O 	O 	0.3853	0.4666	0.26944	-0.554
Mof_O 	O 	0.0823	0.9855	0.61041	-0.497
Mof_O 	O 	0.2006	0.9427	0.67012	-0.59
Mof_O 	O 	0.1169	0.9742	0.39226	-0.508
Mof_O 	O 	0.258	0.9475	0.34946	-0.586
Mof_O 	O 	0.95	0.90002	0.71173	-0.497
Mof_O 	O 	0.828	0.9663	0.75437	-0.553
Mof_O 	O 	0.0041	0.0999	0.71678	-0.504
Mof_O 	O 	0.1147	0.0334	0.76944	-0.551
Mof_O 	O 	0.5823	0.0145	0.88959	-0.493
Mof_O 	O 	0.7006	0.0573	0.82988	-0.589
Mof_O 	O 	0.6169	0.0258	0.10774	-0.506
Mof_O 	O 	0.758	0.0525	0.15054	-0.587
Mof_O 	O 	0.45	0.09998	0.78827	-0.501
Mof_O 	O 	0.328	0.0337	0.74563	-0.554
Mof_O 	O 	0.5041	0.9001	0.78322	-0.508
Mof_O 	O 	0.6147	0.9666	0.73056	-0.553
Mof_H 	H 	0.71513	0.78541	0.94242	0.053
Mof_H 	H 	0.11363	0.28541	0.60998	0.057
Mof_H 	H 	0.38637	0.28541	0.10998	0.056
Mof_H 	H 	0.78487	0.78541	0.44242	0.054
Mof_H 	H 	0.20277	0.28205	0.96196	0.051
Mof_H 	H 	0.81605	0.78205	0.58546	0.057
Mof_H 	H 	0.68395	0.78205	0.08546	0.056
Mof_H 	H 	0.29723	0.28205	0.46196	0.051
_end
