data_functionalizedCrystal
_audit_creation_method	'EQeq! by Chris Wilmer'
_symmetry_space_group_name_H-M	'P1'
_symmetry_Int_Tables_number	1
_symmetry_cell_setting	triclinic
loop_
_symmetry_equiv_pos_as_xyz
  x,y,z
_cell_length_a	23.7544
_cell_length_b	10.5386
_cell_length_c	19.7584
_cell_angle_alpha	90
_cell_angle_beta	125.805
_cell_angle_gamma	90
loop_
_atom_site_label
_atom_site_type_symbol
_atom_site_fract_x
_atom_site_fract_y
_atom_site_fract_z
_atom_site_charge
Mof_Tb	Tb	0.49868	0.04659	0.12647	2.074
Mof_O 	O 	0.11214	0.4111	0.75623	-0.44
Mof_O 	O 	0.08663	0.2953	0.64916	-0.412
Mof_O 	O 	0.44564	0.1533	0.00356	-0.595
Mof_O 	O 	0.42683	0.0588	0.8919	-0.577
Mof_O 	O 	0.48112	0.2187	0.1835	-0.579
Mof_O 	O 	0.51722	0.8776	0.2091	-0.609
Mof_C 	C 	0.40832	0.1271	0.927	0.516
Mof_C 	C 	0.509	0.6139	0.1963	0.018
Mof_H 	H 	0.5157	0.6582	0.1609	0.018
Mof_C 	C 	0.33604	0.1806	0.8736	-0.191
Mof_C 	C 	0.313	0.2614	0.9082	0.053
Mof_H 	H 	0.3424	0.2829	0.9644	0.001
Mof_C 	C 	0.2914	0.1497	0.7896	0.061
Mof_C 	C 	0.5079	0.4816	0.1951	-0.02
Mof_H 	H 	0.5124	0.4379	0.1576	0.044
Mof_C 	C 	0.20155	0.2778	0.7758	-0.021
Mof_C 	C 	0.2459	0.3101	0.8586	-0.089
Mof_H 	H 	0.231	0.3652	0.8819	0.058
Mof_C 	C 	0.2246	0.1963	0.7415	-0.092
Mof_H 	H 	0.1946	0.1729	0.6857	0.066
Mof_C 	C 	0.12957	0.3297	0.7241	0.297
Mof_H 	H 	0.304	0.09	0.764	0.016
Mof_Tb	Tb	0.99868	0.54659	0.12647	2.153
Mof_O 	O 	0.61214	0.9111	0.75623	-0.43
Mof_O 	O 	0.58663	0.7953	0.64916	-0.397
Mof_O 	O 	0.94564	0.6533	0.00356	-0.591
Mof_O 	O 	0.92683	0.5588	0.8919	-0.561
Mof_O 	O 	0.98112	0.7187	0.1835	-0.558
Mof_O 	O 	0.01722	0.3776	0.2091	-0.621
Mof_C 	C 	0.90832	0.6271	0.927	0.511
Mof_C 	C 	0.009	0.1139	0.1963	0.011
Mof_H 	H 	0.0157	0.1582	0.1609	0.015
Mof_C 	C 	0.83604	0.6806	0.8736	-0.188
Mof_C 	C 	0.813	0.7614	0.9082	0.052
Mof_H 	H 	0.8424	0.7829	0.9644	0.002
Mof_C 	C 	0.7914	0.6497	0.7896	0.061
Mof_C 	C 	0.0079	0.9816	0.1951	-0.012
Mof_H 	H 	0.0124	0.9379	0.1576	0.036
Mof_C 	C 	0.70155	0.7778	0.7758	-0.021
Mof_C 	C 	0.7459	0.8101	0.8586	-0.088
Mof_H 	H 	0.731	0.8652	0.8819	0.058
Mof_C 	C 	0.7246	0.6963	0.7415	-0.092
Mof_H 	H 	0.6946	0.6729	0.6857	0.067
Mof_C 	C 	0.62957	0.8297	0.7241	0.294
Mof_H 	H 	0.804	0.59	0.764	0.017
Mof_Tb	Tb	0.50132	0.04659	0.37353	2.077
Mof_O 	O 	0.88786	0.4111	0.74377	-0.415
Mof_O 	O 	0.91337	0.2953	0.85084	-0.379
Mof_O 	O 	0.55436	0.1533	0.49644	-0.594
Mof_O 	O 	0.57317	0.0588	0.6081	-0.579
Mof_O 	O 	0.51888	0.2187	0.3165	-0.58
Mof_O 	O 	0.48278	0.8776	0.2909	-0.61
Mof_C 	C 	0.59168	0.1271	0.573	0.517
Mof_C 	C 	0.491	0.6139	0.3037	0.018
Mof_H 	H 	0.4843	0.6582	0.3391	0.017
Mof_C 	C 	0.66396	0.1806	0.6264	-0.193
Mof_C 	C 	0.687	0.2614	0.5918	0.056
Mof_H 	H 	0.6576	0.2829	0.5356	0.001
Mof_C 	C 	0.7086	0.1497	0.7104	0.065
Mof_C 	C 	0.4921	0.4816	0.3049	-0.02
Mof_H 	H 	0.4876	0.4379	0.3424	0.044
Mof_C 	C 	0.79845	0.2778	0.7242	-0.016
Mof_C 	C 	0.7541	0.3101	0.6414	-0.092
Mof_H 	H 	0.769	0.3652	0.6181	0.06
Mof_C 	C 	0.7754	0.1963	0.7585	-0.096
Mof_H 	H 	0.8054	0.1729	0.8143	0.07
Mof_C 	C 	0.87043	0.3297	0.7759	0.291
Mof_H 	H 	0.696	0.09	0.736	0.016
Mof_Tb	Tb	0.00132	0.54659	0.37353	2.005
Mof_O 	O 	0.38786	0.9111	0.74377	-0.429
Mof_O 	O 	0.41337	0.7953	0.85084	-0.397
Mof_O 	O 	0.05436	0.6533	0.49644	-0.595
Mof_O 	O 	0.07317	0.5588	0.6081	-0.597
Mof_O 	O 	0.01888	0.7187	0.3165	-0.576
Mof_O 	O 	0.98278	0.3776	0.2909	-0.574
Mof_C 	C 	0.09168	0.6271	0.573	0.52
Mof_C 	C 	0.991	0.1139	0.3037	0.034
Mof_H 	H 	0.9843	0.1582	0.3391	0.019
Mof_C 	C 	0.16396	0.6806	0.6264	-0.195
Mof_C 	C 	0.187	0.7614	0.5918	0.055
Mof_H 	H 	0.1576	0.7829	0.5356	-0.001
Mof_C 	C 	0.2086	0.6497	0.7104	0.064
Mof_C 	C 	0.9921	0.9816	0.3049	0.016
Mof_H 	H 	0.9876	0.9379	0.3424	0.043
Mof_C 	C 	0.29845	0.7778	0.7242	-0.019
Mof_C 	C 	0.2541	0.8101	0.6414	-0.092
Mof_H 	H 	0.269	0.8652	0.6181	0.059
Mof_C 	C 	0.2754	0.6963	0.7585	-0.095
Mof_H 	H 	0.3054	0.6729	0.8143	0.067
Mof_C 	C 	0.37043	0.8297	0.7759	0.293
Mof_H 	H 	0.196	0.59	0.736	0.014
Mof_Tb	Tb	0.50132	0.95341	0.87353	2.071
Mof_O 	O 	0.88786	0.5889	0.24377	-0.416
Mof_O 	O 	0.91337	0.7047	0.35084	-0.38
Mof_O 	O 	0.55436	0.8467	0.99644	-0.6
Mof_O 	O 	0.57317	0.9412	0.1081	-0.578
Mof_O 	O 	0.51888	0.7813	0.8165	-0.579
Mof_O 	O 	0.48278	0.1224	0.7909	-0.609
Mof_C 	C 	0.59168	0.8729	0.073	0.524
Mof_C 	C 	0.491	0.3861	0.8037	0.018
Mof_H 	H 	0.4843	0.3418	0.8391	0.017
Mof_C 	C 	0.66396	0.8194	0.1264	-0.195
Mof_C 	C 	0.687	0.7386	0.0918	0.058
Mof_H 	H 	0.6576	0.7171	0.0356	0.001
Mof_C 	C 	0.7086	0.8503	0.2104	0.066
Mof_C 	C 	0.4921	0.5184	0.8049	-0.02
Mof_H 	H 	0.4876	0.5621	0.8424	0.044
Mof_C 	C 	0.79845	0.7222	0.2242	-0.015
Mof_C 	C 	0.7541	0.6899	0.1414	-0.093
Mof_H 	H 	0.769	0.6348	0.1181	0.06
Mof_C 	C 	0.7754	0.8037	0.2585	-0.097
Mof_H 	H 	0.8054	0.8271	0.3143	0.07
Mof_C 	C 	0.87043	0.6703	0.2759	0.291
Mof_H 	H 	0.696	0.91	0.236	0.015
Mof_Tb	Tb	0.00132	0.45341	0.87353	1.995
Mof_O 	O 	0.38786	0.0889	0.24377	-0.429
Mof_O 	O 	0.41337	0.2047	0.35084	-0.397
Mof_O 	O 	0.05436	0.3467	0.99644	-0.598
Mof_O 	O 	0.07317	0.4412	0.1081	-0.596
Mof_O 	O 	0.01888	0.2813	0.8165	-0.575
Mof_O 	O 	0.98278	0.6224	0.7909	-0.57
Mof_C 	C 	0.09168	0.3729	0.073	0.523
Mof_C 	C 	0.991	0.8861	0.8037	0.041
Mof_H 	H 	0.9843	0.8418	0.8391	0.017
Mof_C 	C 	0.16396	0.3194	0.1264	-0.196
Mof_C 	C 	0.187	0.2386	0.0918	0.056
Mof_H 	H 	0.1576	0.2171	0.0356	-0.001
Mof_C 	C 	0.2086	0.3503	0.2104	0.065
Mof_C 	C 	0.9921	0.0184	0.8049	0.012
Mof_H 	H 	0.9876	0.0621	0.8424	0.044
Mof_C 	C 	0.29845	0.2222	0.2242	-0.018
Mof_C 	C 	0.2541	0.1899	0.1414	-0.092
Mof_H 	H 	0.269	0.1348	0.1181	0.059
Mof_C 	C 	0.2754	0.3037	0.2585	-0.096
Mof_H 	H 	0.3054	0.3271	0.3143	0.068
Mof_C 	C 	0.37043	0.1703	0.2759	0.293
Mof_H 	H 	0.196	0.41	0.236	0.014
Mof_Tb	Tb	0.49868	0.95341	0.62647	2.076
Mof_O 	O 	0.11214	0.5889	0.25623	-0.44
Mof_O 	O 	0.08663	0.7047	0.14916	-0.41
Mof_O 	O 	0.44564	0.8467	0.50356	-0.594
Mof_O 	O 	0.42683	0.9412	0.3919	-0.579
Mof_O 	O 	0.48112	0.7813	0.6835	-0.58
Mof_O 	O 	0.51722	0.1224	0.7091	-0.61
Mof_C 	C 	0.40832	0.8729	0.427	0.516
Mof_C 	C 	0.509	0.3861	0.6963	0.018
Mof_H 	H 	0.5157	0.3418	0.6609	0.017
Mof_C 	C 	0.33604	0.8194	0.3736	-0.191
Mof_C 	C 	0.313	0.7386	0.4082	0.053
Mof_H 	H 	0.3424	0.7171	0.4644	0.002
Mof_C 	C 	0.2914	0.8503	0.2896	0.062
Mof_C 	C 	0.5079	0.5184	0.6951	-0.02
Mof_H 	H 	0.5124	0.5621	0.6576	0.044
Mof_C 	C 	0.20155	0.7222	0.2758	-0.021
Mof_C 	C 	0.2459	0.6899	0.3586	-0.089
Mof_H 	H 	0.231	0.6348	0.3819	0.059
Mof_C 	C 	0.2246	0.8037	0.2415	-0.092
Mof_H 	H 	0.1946	0.8271	0.1857	0.066
Mof_C 	C 	0.12957	0.6703	0.2241	0.297
Mof_H 	H 	0.304	0.91	0.264	0.016
Mof_Tb	Tb	0.99868	0.45341	0.62647	2.16
Mof_O 	O 	0.61214	0.0889	0.25623	-0.429
Mof_O 	O 	0.58663	0.2047	0.14916	-0.397
Mof_O 	O 	0.94564	0.3467	0.50356	-0.594
Mof_O 	O 	0.92683	0.4412	0.3919	-0.563
Mof_O 	O 	0.98112	0.2813	0.6835	-0.557
Mof_O 	O 	0.01722	0.6224	0.7091	-0.623
Mof_C 	C 	0.90832	0.3729	0.427	0.514
Mof_C 	C 	0.009	0.8861	0.6963	0.013
Mof_H 	H 	0.0157	0.8418	0.6609	0.014
Mof_C 	C 	0.83604	0.3194	0.3736	-0.189
Mof_C 	C 	0.813	0.2386	0.4082	0.053
Mof_H 	H 	0.8424	0.2171	0.4644	0.003
Mof_C 	C 	0.7914	0.3503	0.2896	0.061
Mof_C 	C 	0.0079	0.0184	0.6951	-0.013
Mof_H 	H 	0.0124	0.0621	0.6576	0.036
Mof_C 	C 	0.70155	0.2222	0.2758	-0.02
Mof_C 	C 	0.7459	0.1899	0.3586	-0.089
Mof_H 	H 	0.731	0.1348	0.3819	0.059
Mof_C 	C 	0.7246	0.3037	0.2415	-0.093
Mof_H 	H 	0.6946	0.3271	0.1857	0.067
Mof_C 	C 	0.62957	0.1703	0.2241	0.294
Mof_H 	H 	0.804	0.41	0.264	0.016
Mof_C 	C 	0.5	0.8219	0.25	0.525
Mof_C 	C 	0.5	0.2726	0.25	0.526
Mof_C 	C 	0.5	0.4146	0.25	-0.128
Mof_C 	C 	0.5	0.6794	0.25	-0.17
Mof_C 	C 	-1.41701e-17	0.3219	0.25	0.498
Mof_C 	C 	1.41701e-17	0.7726	0.25	0.503
Mof_C 	C 	1.2358e-33	0.9146	0.25	-0.155
Mof_C 	C 	1.2358e-33	0.1794	0.25	-0.187
Mof_C 	C 	0.5	0.1781	0.75	0.525
Mof_C 	C 	0.5	0.7274	0.75	0.526
Mof_C 	C 	0.5	0.5854	0.75	-0.128
Mof_C 	C 	0.5	0.3206	0.75	-0.17
Mof_C 	C 	-5.66805e-17	0.6781	0.75	0.495
Mof_C 	C 	-5.66805e-17	0.2274	0.75	0.5
Mof_C 	C 	-5.66805e-17	0.0854	0.75	-0.154
Mof_C 	C 	-5.66805e-17	0.8206	0.75	-0.193
_end
