data_functionalizedCrystal
_audit_creation_method	'EQeq! by Chris Wilmer'
_symmetry_space_group_name_H-M	'P1'
_symmetry_Int_Tables_number	1
_symmetry_cell_setting	triclinic
loop_
_symmetry_equiv_pos_as_xyz
  x,y,z
_cell_length_a	11.0311
_cell_length_b	11.5197
_cell_length_c	14.7821
_cell_angle_alpha	112.933
_cell_angle_beta	101.698
_cell_angle_gamma	90
loop_
_atom_site_label
_atom_site_type_symbol
_atom_site_fract_x
_atom_site_fract_y
_atom_site_fract_z
_atom_site_charge
Mof_Mn	Mn	0.0846	0.1292	0.00508	0.935
Mof_Mn	Mn	0.4154	0.12412	0.99492	0.85
Mof_Mn	Mn	0.9154	0.8708	0.99492	0.862
Mof_Mn	Mn	0.5846	0.87588	0.00508	0.938
Mof_H 	H 	0.9211	0.1393	0.2792	0.066
Mof_H 	H 	0.9797	0.2147	0.7328	0.047
Mof_H 	H 	0.5789	0.8601	0.7208	0.067
Mof_H 	H 	0.5203	0.4819	0.2672	0.053
Mof_H 	H 	0.0789	0.8607	0.7208	0.069
Mof_H 	H 	0.0203	0.7853	0.2672	0.047
Mof_H 	H 	0.4211	0.1399	0.2792	0.069
Mof_H 	H 	0.4797	0.5181	0.7328	0.048
Mof_C 	C 	0.1195	0.0391	0.1792	0.336
Mof_C 	C 	0.09382	0.07742	0.28044	-0.085
Mof_C 	C 	0.99282	0.12422	0.31704	-0.021
Mof_C 	C 	0.12555	0.11755	0.4599	-0.01
Mof_C 	C 	0.01091	0.14711	0.42082	0.005
Mof_C 	C 	0.13975	0.13655	0.5627	-0.009
Mof_C 	C 	0.03505	0.17705	0.5987	0.001
Mof_C 	C 	0.04308	0.18988	0.69816	-0.012
Mof_C 	C 	0.15555	0.16125	0.7371	-0.103
Mof_C 	C 	0.19793	0.15893	0.83866	0.398
Mof_C 	C 	0.3805	0.8599	0.8208	0.337
Mof_C 	C 	0.40618	0.79698	0.71956	-0.082
Mof_C 	C 	0.50718	0.80718	0.68296	-0.029
Mof_C 	C 	0.37445	0.65765	0.5401	-0.009
Mof_C 	C 	0.48909	0.72629	0.57918	0.011
Mof_C 	C 	0.36025	0.57385	0.4373	-0.009
Mof_C 	C 	0.46495	0.57835	0.4013	0.006
Mof_C 	C 	0.45692	0.49172	0.30184	-0.014
Mof_C 	C 	0.34445	0.42415	0.2629	-0.097
Mof_C 	C 	0.30207	0.32027	0.16134	0.395
Mof_C 	C 	0.8805	0.9609	0.8208	0.336
Mof_C 	C 	0.90618	0.92258	0.71956	-0.079
Mof_C 	C 	0.00718	0.87578	0.68296	-0.034
Mof_C 	C 	0.87445	0.88245	0.5401	-0.01
Mof_C 	C 	0.98909	0.85289	0.57918	0.015
Mof_C 	C 	0.86025	0.86345	0.4373	-0.008
Mof_C 	C 	0.96495	0.82295	0.4013	0.005
Mof_C 	C 	0.95692	0.81012	0.30184	-0.005
Mof_C 	C 	0.84445	0.83875	0.2629	-0.1
Mof_C 	C 	0.80207	0.84107	0.16134	0.397
Mof_C 	C 	0.6195	0.1401	0.1792	0.333
Mof_C 	C 	0.59382	0.20302	0.28044	-0.079
Mof_C 	C 	0.49282	0.19282	0.31704	-0.031
Mof_C 	C 	0.62555	0.34235	0.4599	-0.011
Mof_C 	C 	0.51091	0.27371	0.42082	0.012
Mof_C 	C 	0.63975	0.42615	0.5627	-0.009
Mof_C 	C 	0.53505	0.42165	0.5987	0.003
Mof_C 	C 	0.54308	0.50828	0.69816	-0.012
Mof_C 	C 	0.65555	0.57585	0.7371	-0.102
Mof_C 	C 	0.69793	0.67973	0.83866	0.398
Mof_S 	S 	0.21194	0.05886	0.37066	0.033
Mof_S 	S 	0.25334	0.11699	0.65326	0.038
Mof_S 	S 	0.91816	0.199	0.50936	-0.003
Mof_S 	S 	0.28806	0.6882	0.62934	0.034
Mof_S 	S 	0.24666	0.46373	0.34674	0.042
Mof_S 	S 	0.58184	0.68964	0.49064	-0.003
Mof_S 	S 	0.78806	0.94114	0.62934	0.035
Mof_S 	S 	0.74666	0.88301	0.34674	0.045
Mof_S 	S 	0.08184	0.801	0.49064	-0.006
Mof_S 	S 	0.71194	0.3118	0.37066	0.035
Mof_S 	S 	0.75334	0.53627	0.65326	0.041
Mof_S 	S 	0.41816	0.31036	0.50936	-0.005
Mof_O 	O 	0.30649	0.13229	0.86074	-0.387
Mof_O 	O 	0.11979	0.18457	0.89286	-0.416
Mof_O 	O 	0.22464	0.00606	0.16898	-0.262
Mof_O 	O 	0.03275	0.04364	0.1081	-0.403
Mof_O 	O 	0.19351	0.27155	0.13926	-0.382
Mof_O 	O 	0.38021	0.29171	0.10714	-0.382
Mof_O 	O 	0.27536	0.83708	0.83102	-0.27
Mof_O 	O 	0.46725	0.93554	0.8919	-0.415
Mof_O 	O 	0.69351	0.86771	0.13926	-0.382
Mof_O 	O 	0.88021	0.81543	0.10714	-0.383
Mof_O 	O 	0.77536	0.99394	0.83102	-0.27
Mof_O 	O 	0.96725	0.95636	0.8919	-0.416
Mof_O 	O 	0.80649	0.72845	0.86074	-0.386
Mof_O 	O 	0.61979	0.70829	0.89286	-0.415
Mof_O 	O 	0.72464	0.16292	0.16898	-0.26
Mof_O 	O 	0.53275	0.06446	0.1081	-0.399
Mof_O 	O 	0.25	0.015	-0	-0.269
Mof_O 	O 	0.75	0.985	-0	-0.268
_end
