data_functionalizedCrystal
_audit_creation_method	'EQeq! by Chris Wilmer'
_symmetry_space_group_name_H-M	'P1'
_symmetry_Int_Tables_number	1
_symmetry_cell_setting	triclinic
loop_
_symmetry_equiv_pos_as_xyz
  x,y,z
_cell_length_a	15.1513
_cell_length_b	22.044
_cell_length_c	22.044
_cell_angle_alpha	90
_cell_angle_beta	90
_cell_angle_gamma	90
loop_
_atom_site_label
_atom_site_type_symbol
_atom_site_fract_x
_atom_site_fract_y
_atom_site_fract_z
_atom_site_charge
Mof_Zn	Zn	0.98571	0.5	0.5	1.272
Mof_Zn	Zn	0.48711	0.5	0.5	1.263
Mof_Zn	Zn	0.00054	0	-0	1.217
Mof_Zn	Zn	0.50239	0	-0	1.23
Mof_Si	Si	0.7371	0.5	0.5	3.333
Mof_Si	Si	0.237	0.5	0.5	3.941
Mof_Si	Si	0.752	0	-0	2.936
Mof_Si	Si	0.2488	0	-0	3.514
Mof_H 	H 	0.8807	0.5369	0.6108	0.054
Mof_H 	H 	0.8785	0.6131	0.6847	0.09
Mof_H 	H 	0.0883	0.694	0.6043	0.093
Mof_H 	H 	0.0905	0.6178	0.5304	0.059
Mof_H 	H 	0.9943	0.8545	0.7275	0.058
Mof_H 	H 	0.9691	0.6474	0.7704	0.078
Mof_H 	H 	0.0555	0.8691	0.6247	0.094
Mof_H 	H 	0.9512	0.8719	0.6375	0.105
Mof_H 	H 	0.9186	0.842	0.5453	-0.074
Mof_H 	H 	0.9304	0.9351	0.5454	0.25
Mof_H 	H 	0.076	0.804	0.508	0.271
Mof_H 	H 	0.9814	0.7978	0.4763	0.286
Mof_H 	H 	0.0403	0.8569	0.4648	0.294
Mof_H 	H 	0.0166	0.6262	0.8636	0.053
Mof_H 	H 	0.0845	0.6718	0.8969	0.061
Mof_H 	H 	0.9107	0.6645	0.9608	-0.002
Mof_H 	H 	0.0048	0.5808	0.0017	0.118
Mof_H 	H 	0.0944	0.644	0.9895	0.168
Mof_H 	H 	0.0683	0.7116	0.9698	0.162
Mof_H 	H 	0.0275	0.6827	0.0302	0.08
Mof_H 	H 	0.0957	0.885	0.8111	0.106
Mof_H 	H 	0.0993	0.9597	0.887	0.063
Mof_H 	H 	0.8946	0.8895	0.9638	0.07
Mof_H 	H 	0.8853	0.8144	0.8934	0.128
Mof_H 	H 	0.5947	0.5362	0.6127	0.035
Mof_H 	H 	0.6005	0.6043	0.6874	0.111
Mof_H 	H 	0.3876	0.6883	0.6113	0.091
Mof_H 	H 	0.3847	0.6092	0.543	0.035
Mof_H 	H 	0.5041	0.7305	0.8529	0.065
Mof_H 	H 	0.4843	0.7736	0.6454	0.067
Mof_H 	H 	0.4045	0.6121	0.8348	0.087
Mof_H 	H 	0.4834	0.6366	0.8769	0.074
Mof_H 	H 	0.5605	0.5444	0.8427	-0.03
Mof_H 	H 	0.5207	0.5547	0.9415	0.275
Mof_H 	H 	0.4676	0.5045	0.7712	0.211
Mof_H 	H 	0.4567	0.4598	0.8279	0.205
Mof_H 	H 	0.3829	0.5099	0.8143	0.208
Mof_H 	H 	0.5498	0.8645	0.6302	0.066
Mof_H 	H 	0.4442	0.8735	0.6319	0.065
Mof_H 	H 	0.5739	0.9647	0.666	-0.006
Mof_H 	H 	0.5311	0.9369	0.5668	0.241
Mof_H 	H 	0.4488	0.9863	0.7256	0.171
Mof_H 	H 	0.4662	0.0376	0.6756	0.094
Mof_H 	H 	0.3901	0.9883	0.6653	0.172
Mof_H 	H 	0.6092	0.8145	0.8814	0.099
Mof_H 	H 	0.6101	0.8868	0.9592	0.08
Mof_H 	H 	0.3981	0.9695	0.8834	0.085
Mof_H 	H 	0.3973	0.8973	0.8056	0.095
Mof_H 	H 	0.8807	0.4631	0.3892	0.054
Mof_H 	H 	0.8785	0.3869	0.3153	0.088
Mof_H 	H 	0.0883	0.306	0.3957	0.092
Mof_H 	H 	0.0905	0.3822	0.4696	0.059
Mof_H 	H 	0.9943	0.1455	0.2725	0.054
Mof_H 	H 	0.9691	0.3526	0.2296	0.075
Mof_H 	H 	0.0555	0.1309	0.3753	0.083
Mof_H 	H 	0.9512	0.1281	0.3625	0.094
Mof_H 	H 	0.9186	0.158	0.4547	-0.077
Mof_H 	H 	0.9304	0.0649	0.4546	0.228
Mof_H 	H 	0.076	0.196	0.492	0.264
Mof_H 	H 	0.9814	0.2022	0.5237	0.282
Mof_H 	H 	0.0403	0.1431	0.5352	0.286
Mof_H 	H 	0.0166	0.3738	0.1364	0.084
Mof_H 	H 	0.0845	0.3282	0.1031	0.082
Mof_H 	H 	0.9107	0.3355	0.0392	-0.144
Mof_H 	H 	0.0048	0.4192	0.9983	0.331
Mof_H 	H 	0.0944	0.356	0.0105	0.322
Mof_H 	H 	0.0683	0.2884	0.0302	0.33
Mof_H 	H 	0.0275	0.3173	0.9698	0.381
Mof_H 	H 	0.0957	0.115	0.1889	0.096
Mof_H 	H 	0.0993	0.0403	0.113	0.007
Mof_H 	H 	0.8946	0.1105	0.0362	0.014
Mof_H 	H 	0.8853	0.1856	0.1066	0.116
Mof_H 	H 	0.5947	0.4638	0.3873	0.035
Mof_H 	H 	0.6005	0.3957	0.3126	0.109
Mof_H 	H 	0.3876	0.3117	0.3887	0.089
Mof_H 	H 	0.3847	0.3908	0.457	0.035
Mof_H 	H 	0.5041	0.2695	0.1471	0.057
Mof_H 	H 	0.4843	0.2264	0.3546	0.063
Mof_H 	H 	0.4045	0.3879	0.1652	0.079
Mof_H 	H 	0.4834	0.3634	0.1231	0.069
Mof_H 	H 	0.5605	0.4556	0.1573	-0.035
Mof_H 	H 	0.5207	0.4453	0.0585	0.234
Mof_H 	H 	0.4676	0.4955	0.2288	0.206
Mof_H 	H 	0.4567	0.5402	0.1721	0.194
Mof_H 	H 	0.3829	0.4901	0.1857	0.197
Mof_H 	H 	0.5498	0.1355	0.3698	0.098
Mof_H 	H 	0.4442	0.1265	0.3681	0.097
Mof_H 	H 	0.5739	0.0353	0.334	-0.123
Mof_H 	H 	0.5311	0.0631	0.4332	0.266
Mof_H 	H 	0.4488	0.0137	0.2744	0.327
Mof_H 	H 	0.4662	0.9624	0.3244	0.394
Mof_H 	H 	0.3901	0.0117	0.3347	0.323
Mof_H 	H 	0.6092	0.1855	0.1186	0.084
Mof_H 	H 	0.6101	0.1132	0.0408	0.028
Mof_H 	H 	0.3981	0.0305	0.1166	0.029
Mof_H 	H 	0.3973	0.1027	0.1944	0.079
Mof_H 	H 	0.8807	0.3892	0.5369	0.054
Mof_H 	H 	0.8785	0.3153	0.6131	0.089
Mof_H 	H 	0.0883	0.3957	0.694	0.093
Mof_H 	H 	0.0905	0.4696	0.6178	0.059
Mof_H 	H 	0.9943	0.2725	0.8545	0.058
Mof_H 	H 	0.9691	0.2296	0.6474	0.075
Mof_H 	H 	0.0555	0.3753	0.8691	0.093
Mof_H 	H 	0.9512	0.3625	0.8719	0.104
Mof_H 	H 	0.9186	0.4547	0.842	-0.073
Mof_H 	H 	0.9304	0.4546	0.9351	0.25
Mof_H 	H 	0.076	0.492	0.804	0.271
Mof_H 	H 	0.9814	0.5237	0.7978	0.286
Mof_H 	H 	0.0403	0.5352	0.8569	0.294
Mof_H 	H 	0.0166	0.1364	0.6262	0.083
Mof_H 	H 	0.0845	0.1031	0.6718	0.082
Mof_H 	H 	0.9107	0.0392	0.6645	-0.141
Mof_H 	H 	0.0048	0.9983	0.5808	0.328
Mof_H 	H 	0.0944	0.0105	0.644	0.319
Mof_H 	H 	0.0683	0.0302	0.7116	0.327
Mof_H 	H 	0.0275	0.9698	0.6827	0.374
Mof_H 	H 	0.0957	0.1889	0.885	0.105
Mof_H 	H 	0.0993	0.113	0.9597	0.056
Mof_H 	H 	0.8946	0.0362	0.8895	0.025
Mof_H 	H 	0.8853	0.1066	0.8144	0.117
Mof_H 	H 	0.5947	0.3873	0.5362	0.035
Mof_H 	H 	0.6005	0.3126	0.6043	0.109
Mof_H 	H 	0.3876	0.3887	0.6883	0.09
Mof_H 	H 	0.3847	0.457	0.6092	0.035
Mof_H 	H 	0.5041	0.1471	0.7305	0.057
Mof_H 	H 	0.4843	0.3546	0.7736	0.067
Mof_H 	H 	0.4045	0.1652	0.6121	0.079
Mof_H 	H 	0.4834	0.1231	0.6366	0.069
Mof_H 	H 	0.5605	0.1573	0.5444	-0.035
Mof_H 	H 	0.5207	0.0585	0.5547	0.234
Mof_H 	H 	0.4676	0.2288	0.5045	0.206
Mof_H 	H 	0.4567	0.1721	0.4598	0.194
Mof_H 	H 	0.3829	0.1857	0.5099	0.197
Mof_H 	H 	0.5498	0.3698	0.8645	0.065
Mof_H 	H 	0.4442	0.3681	0.8735	0.064
Mof_H 	H 	0.5739	0.334	0.9647	-0.003
Mof_H 	H 	0.5311	0.4332	0.9369	0.24
Mof_H 	H 	0.4488	0.2744	0.9863	0.168
Mof_H 	H 	0.4662	0.3244	0.0376	0.087
Mof_H 	H 	0.3901	0.3347	0.9883	0.168
Mof_H 	H 	0.6092	0.1186	0.8145	0.087
Mof_H 	H 	0.6101	0.0408	0.8868	0.037
Mof_H 	H 	0.3981	0.1166	0.9695	0.079
Mof_H 	H 	0.3973	0.1944	0.8973	0.094
Mof_H 	H 	0.8807	0.6108	0.4631	0.054
Mof_H 	H 	0.8785	0.6847	0.3869	0.09
Mof_H 	H 	0.0883	0.6043	0.306	0.092
Mof_H 	H 	0.0905	0.5304	0.3822	0.059
Mof_H 	H 	0.9943	0.7275	0.1455	0.054
Mof_H 	H 	0.9691	0.7704	0.3526	0.079
Mof_H 	H 	0.0555	0.6247	0.1309	0.084
Mof_H 	H 	0.9512	0.6375	0.1281	0.095
Mof_H 	H 	0.9186	0.5453	0.158	-0.077
Mof_H 	H 	0.9304	0.5454	0.0649	0.228
Mof_H 	H 	0.076	0.508	0.196	0.264
Mof_H 	H 	0.9814	0.4763	0.2022	0.282
Mof_H 	H 	0.0403	0.4648	0.1431	0.286
Mof_H 	H 	0.0166	0.8636	0.3738	0.052
Mof_H 	H 	0.0845	0.8969	0.3282	0.06
Mof_H 	H 	0.9107	0.9608	0.3355	0
Mof_H 	H 	0.0048	0.0017	0.4192	0.116
Mof_H 	H 	0.0944	0.9895	0.356	0.164
Mof_H 	H 	0.0683	0.9698	0.2884	0.158
Mof_H 	H 	0.0275	0.0302	0.3173	0.073
Mof_H 	H 	0.0957	0.8111	0.115	0.098
Mof_H 	H 	0.0993	0.887	0.0403	0.019
Mof_H 	H 	0.8946	0.9638	0.1105	0.063
Mof_H 	H 	0.8853	0.8934	0.1856	0.127
Mof_H 	H 	0.5947	0.6127	0.4638	0.035
Mof_H 	H 	0.6005	0.6874	0.3957	0.111
Mof_H 	H 	0.3876	0.6113	0.3117	0.089
Mof_H 	H 	0.3847	0.543	0.3908	0.035
Mof_H 	H 	0.5041	0.8529	0.2695	0.066
Mof_H 	H 	0.4843	0.6454	0.2264	0.063
Mof_H 	H 	0.4045	0.8348	0.3879	0.087
Mof_H 	H 	0.4834	0.8769	0.3634	0.074
Mof_H 	H 	0.5605	0.8427	0.4556	-0.03
Mof_H 	H 	0.5207	0.9415	0.4453	0.276
Mof_H 	H 	0.4676	0.7712	0.4955	0.211
Mof_H 	H 	0.4567	0.8279	0.5402	0.205
Mof_H 	H 	0.3829	0.8143	0.4901	0.208
Mof_H 	H 	0.5498	0.6302	0.1355	0.097
Mof_H 	H 	0.4442	0.6319	0.1265	0.097
Mof_H 	H 	0.5739	0.666	0.0353	-0.121
Mof_H 	H 	0.5311	0.5668	0.0631	0.266
Mof_H 	H 	0.4488	0.7256	0.0137	0.325
Mof_H 	H 	0.4662	0.6756	0.9624	0.387
Mof_H 	H 	0.3901	0.6653	0.0117	0.32
Mof_H 	H 	0.6092	0.8814	0.1855	0.096
Mof_H 	H 	0.6101	0.9592	0.1132	0.076
Mof_H 	H 	0.3981	0.8834	0.0305	0.039
Mof_H 	H 	0.3973	0.8056	0.1027	0.082
Mof_C 	C 	0.9229	0.5688	0.6095	0.088
Mof_C 	C 	0.9215	0.6141	0.6534	-0.132
Mof_C 	C 	0.9832	0.6607	0.6515	0.11
Mof_C 	C 	0.0462	0.6621	0.6056	-0.138
Mof_C 	C 	0.0475	0.6169	0.5617	0.073
Mof_C 	C 	0.9864	0.7084	0.7026	-0.022
Mof_C 	C 	0.987	0.7682	0.6888	0.113
Mof_C 	C 	0.9913	0.8125	0.7367	-0.07
Mof_C 	C 	0.9911	0.792	0.7992	-0.073
Mof_C 	C 	0.9811	0.7289	0.8081	0.164
Mof_C 	C 	0.9777	0.6893	0.7621	-0.128
Mof_C 	C 	0.9979	0.8507	0.6143	-0.247
Mof_C 	C 	0.981	0.8565	0.5485	0.445
Mof_C 	C 	0.0233	0.8261	0.4947	-0.822
Mof_C 	C 	0.0215	0.6618	0.8908	-0.084
Mof_C 	C 	0.9725	0.6503	0.9537	0.231
Mof_C 	C 	0.0468	0.6741	0.9887	-0.381
Mof_C 	C 	0.9927	0.8384	0.846	0.17
Mof_C 	C 	0.0541	0.8839	0.8433	-0.186
Mof_C 	C 	0.0551	0.9291	0.8887	0.132
Mof_C 	C 	0.9375	0.8882	0.9324	0.148
Mof_C 	C 	0.932	0.8431	0.891	-0.181
Mof_C 	C 	0.5515	0.5674	0.6132	0.122
Mof_C 	C 	0.5556	0.6073	0.6575	-0.162
Mof_C 	C 	0.4931	0.6547	0.6604	0.112
Mof_C 	C 	0.4297	0.6564	0.6138	-0.156
Mof_C 	C 	0.4311	0.6102	0.572	0.11
Mof_C 	C 	0.4923	0.705	0.7072	-0.032
Mof_C 	C 	0.4982	0.6922	0.7688	0.114
Mof_C 	C 	0.5001	0.7392	0.8108	-0.087
Mof_C 	C 	0.4961	0.7991	0.7911	-0.046
Mof_C 	C 	0.4902	0.8119	0.7295	0.148
Mof_C 	C 	0.4883	0.7649	0.6876	-0.111
Mof_C 	C 	0.469	0.6103	0.8418	-0.162
Mof_C 	C 	0.4967	0.5472	0.8541	0.287
Mof_C 	C 	0.4463	0.5011	0.813	-0.591
Mof_C 	C 	0.5006	0.885	0.6514	-0.11
Mof_C 	C 	0.5131	0.9549	0.6513	0.246
Mof_C 	C 	0.4492	0.9952	0.6821	-0.385
Mof_C 	C 	0.5032	0.8491	0.8362	0.112
Mof_C 	C 	0.5664	0.846	0.8818	-0.128
Mof_C 	C 	0.5669	0.8889	0.928	0.099
Mof_C 	C 	0.441	0.9381	0.883	0.09
Mof_C 	C 	0.4405	0.8951	0.8368	-0.12
Mof_C 	C 	0.9229	0.4312	0.3905	0.087
Mof_C 	C 	0.9215	0.3859	0.3466	-0.132
Mof_C 	C 	0.9832	0.3393	0.3485	0.11
Mof_C 	C 	0.0462	0.3379	0.3944	-0.139
Mof_C 	C 	0.0475	0.3831	0.4383	0.072
Mof_C 	C 	0.9864	0.2916	0.2974	-0.024
Mof_C 	C 	0.987	0.2318	0.3112	0.113
Mof_C 	C 	0.9913	0.1875	0.2633	-0.073
Mof_C 	C 	0.9911	0.208	0.2008	-0.08
Mof_C 	C 	0.9811	0.2711	0.1919	0.156
Mof_C 	C 	0.9777	0.3107	0.2379	-0.126
Mof_C 	C 	0.9979	0.1493	0.3857	-0.233
Mof_C 	C 	0.981	0.1435	0.4515	0.436
Mof_C 	C 	0.0233	0.1739	0.5053	-0.814
Mof_C 	C 	0.0215	0.3382	0.1092	-0.19
Mof_C 	C 	0.9725	0.3497	0.0463	0.541
Mof_C 	C 	0.0468	0.3259	0.0113	-1.099
Mof_C 	C 	0.9927	0.1616	0.154	0.17
Mof_C 	C 	0.0541	0.1161	0.1567	-0.21
Mof_C 	C 	0.0551	0.0709	0.1113	0.118
Mof_C 	C 	0.9375	0.1118	0.0676	0.136
Mof_C 	C 	0.932	0.1569	0.109	-0.203
Mof_C 	C 	0.5515	0.4326	0.3868	0.121
Mof_C 	C 	0.5556	0.3927	0.3425	-0.162
Mof_C 	C 	0.4931	0.3453	0.3396	0.111
Mof_C 	C 	0.4297	0.3436	0.3862	-0.155
Mof_C 	C 	0.4311	0.3898	0.428	0.11
Mof_C 	C 	0.4923	0.295	0.2928	-0.035
Mof_C 	C 	0.4982	0.3078	0.2312	0.112
Mof_C 	C 	0.5001	0.2608	0.1892	-0.091
Mof_C 	C 	0.4961	0.2009	0.2089	-0.049
Mof_C 	C 	0.4902	0.1881	0.2705	0.136
Mof_C 	C 	0.4883	0.2351	0.3124	-0.108
Mof_C 	C 	0.469	0.3897	0.1582	-0.158
Mof_C 	C 	0.4967	0.4528	0.1459	0.276
Mof_C 	C 	0.4463	0.4989	0.187	-0.579
Mof_C 	C 	0.5006	0.115	0.3486	-0.244
Mof_C 	C 	0.5131	0.0451	0.3487	0.512
Mof_C 	C 	0.4492	0.0048	0.3179	-1.065
Mof_C 	C 	0.5032	0.1509	0.1638	0.102
Mof_C 	C 	0.5664	0.154	0.1182	-0.141
Mof_C 	C 	0.5669	0.1111	0.072	0.075
Mof_C 	C 	0.441	0.0619	0.117	0.066
Mof_C 	C 	0.4405	0.1049	0.1632	-0.136
Mof_C 	C 	0.9229	0.3905	0.5688	0.087
Mof_C 	C 	0.9215	0.3466	0.6141	-0.132
Mof_C 	C 	0.9832	0.3485	0.6607	0.11
Mof_C 	C 	0.0462	0.3944	0.6621	-0.139
Mof_C 	C 	0.0475	0.4383	0.6169	0.073
Mof_C 	C 	0.9864	0.2974	0.7084	-0.024
Mof_C 	C 	0.987	0.3112	0.7682	0.114
Mof_C 	C 	0.9913	0.2633	0.8125	-0.071
Mof_C 	C 	0.9911	0.2008	0.792	-0.075
Mof_C 	C 	0.9811	0.1919	0.7289	0.156
Mof_C 	C 	0.9777	0.2379	0.6893	-0.125
Mof_C 	C 	0.9979	0.3857	0.8507	-0.246
Mof_C 	C 	0.981	0.4515	0.8565	0.445
Mof_C 	C 	0.0233	0.5053	0.8261	-0.821
Mof_C 	C 	0.0215	0.1092	0.6618	-0.188
Mof_C 	C 	0.9725	0.0463	0.6503	0.534
Mof_C 	C 	0.0468	0.0113	0.6741	-1.084
Mof_C 	C 	0.9927	0.154	0.8384	0.168
Mof_C 	C 	0.0541	0.1567	0.8839	-0.194
Mof_C 	C 	0.0551	0.1113	0.9291	0.125
Mof_C 	C 	0.9375	0.0676	0.8882	0.142
Mof_C 	C 	0.932	0.109	0.8431	-0.194
Mof_C 	C 	0.5515	0.3868	0.5674	0.121
Mof_C 	C 	0.5556	0.3425	0.6073	-0.161
Mof_C 	C 	0.4931	0.3396	0.6547	0.111
Mof_C 	C 	0.4297	0.3862	0.6564	-0.155
Mof_C 	C 	0.4311	0.428	0.6102	0.11
Mof_C 	C 	0.4923	0.2928	0.705	-0.032
Mof_C 	C 	0.4982	0.2312	0.6922	0.111
Mof_C 	C 	0.5001	0.1892	0.7392	-0.088
Mof_C 	C 	0.4961	0.2089	0.7991	-0.051
Mof_C 	C 	0.4902	0.2705	0.8119	0.149
Mof_C 	C 	0.4883	0.3124	0.7649	-0.113
Mof_C 	C 	0.469	0.1582	0.6103	-0.158
Mof_C 	C 	0.4967	0.1459	0.5472	0.276
Mof_C 	C 	0.4463	0.187	0.5011	-0.579
Mof_C 	C 	0.5006	0.3486	0.885	-0.106
Mof_C 	C 	0.5131	0.3487	0.9549	0.239
Mof_C 	C 	0.4492	0.3179	0.9952	-0.369
Mof_C 	C 	0.5032	0.1638	0.8491	0.109
Mof_C 	C 	0.5664	0.1182	0.846	-0.137
Mof_C 	C 	0.5669	0.072	0.8889	0.087
Mof_C 	C 	0.441	0.117	0.9381	0.081
Mof_C 	C 	0.4405	0.1632	0.8951	-0.124
Mof_C 	C 	0.9229	0.6095	0.4312	0.087
Mof_C 	C 	0.9215	0.6534	0.3859	-0.132
Mof_C 	C 	0.9832	0.6515	0.3393	0.11
Mof_C 	C 	0.0462	0.6056	0.3379	-0.139
Mof_C 	C 	0.0475	0.5617	0.3831	0.073
Mof_C 	C 	0.9864	0.7026	0.2916	-0.022
Mof_C 	C 	0.987	0.6888	0.2318	0.112
Mof_C 	C 	0.9913	0.7367	0.1875	-0.073
Mof_C 	C 	0.9911	0.7992	0.208	-0.077
Mof_C 	C 	0.9811	0.8081	0.2711	0.165
Mof_C 	C 	0.9777	0.7621	0.3107	-0.129
Mof_C 	C 	0.9979	0.6143	0.1493	-0.234
Mof_C 	C 	0.981	0.5485	0.1435	0.437
Mof_C 	C 	0.0233	0.4947	0.1739	-0.814
Mof_C 	C 	0.0215	0.8908	0.3382	-0.083
Mof_C 	C 	0.9725	0.9537	0.3497	0.226
Mof_C 	C 	0.0468	0.9887	0.3259	-0.365
Mof_C 	C 	0.9927	0.846	0.1616	0.172
Mof_C 	C 	0.0541	0.8433	0.1161	-0.201
Mof_C 	C 	0.0551	0.8887	0.0709	0.126
Mof_C 	C 	0.9375	0.9324	0.1118	0.142
Mof_C 	C 	0.932	0.891	0.1569	-0.188
Mof_C 	C 	0.5515	0.6132	0.4326	0.122
Mof_C 	C 	0.5556	0.6575	0.3927	-0.163
Mof_C 	C 	0.4931	0.6604	0.3453	0.112
Mof_C 	C 	0.4297	0.6138	0.3436	-0.156
Mof_C 	C 	0.4311	0.572	0.3898	0.11
Mof_C 	C 	0.4923	0.7072	0.295	-0.036
Mof_C 	C 	0.4982	0.7688	0.3078	0.116
Mof_C 	C 	0.5001	0.8108	0.2608	-0.091
Mof_C 	C 	0.4961	0.7911	0.2009	-0.044
Mof_C 	C 	0.4902	0.7295	0.1881	0.135
Mof_C 	C 	0.4883	0.6876	0.2351	-0.106
Mof_C 	C 	0.469	0.8418	0.3897	-0.161
Mof_C 	C 	0.4967	0.8541	0.4528	0.287
Mof_C 	C 	0.4463	0.813	0.4989	-0.591
Mof_C 	C 	0.5006	0.6514	0.115	-0.242
Mof_C 	C 	0.5131	0.6513	0.0451	0.507
Mof_C 	C 	0.4492	0.6821	0.0048	-1.052
Mof_C 	C 	0.5032	0.8362	0.1509	0.105
Mof_C 	C 	0.5664	0.8818	0.154	-0.13
Mof_C 	C 	0.5669	0.928	0.1111	0.088
Mof_C 	C 	0.441	0.883	0.0619	0.077
Mof_C 	C 	0.4405	0.8368	0.1049	-0.13
Mof_N 	N 	0.9858	0.57021	0.56367	-0.204
Mof_N 	N 	0.9992	0.9304	0.9318	-0.191
Mof_N 	N 	0.4908	0.5673	0.5685	-0.231
Mof_N 	N 	0.5042	0.9349	0.9286	-0.168
Mof_N 	N 	0.9858	0.42979	0.43633	-0.204
Mof_N 	N 	0.9992	0.0696	0.0682	-0.245
Mof_N 	N 	0.4908	0.4327	0.4315	-0.231
Mof_N 	N 	0.5042	0.0651	0.0714	-0.224
Mof_N 	N 	0.9858	0.43633	0.57021	-0.204
Mof_N 	N 	0.9992	0.0682	0.9304	-0.216
Mof_N 	N 	0.4908	0.4315	0.5673	-0.231
Mof_N 	N 	0.5042	0.0714	0.9349	-0.194
Mof_N 	N 	0.9858	0.56367	0.42979	-0.204
Mof_N 	N 	0.9992	0.9318	0.0696	-0.216
Mof_N 	N 	0.4908	0.5685	0.4327	-0.232
Mof_N 	N 	0.5042	0.9286	0.0651	-0.194
Mof_O 	O 	0.9982	0.7845	0.6294	-0.16
Mof_O 	O 	0.9735	0.9185	0.5281	-0.426
Mof_O 	O 	0.9725	0.713	0.8679	-0.193
Mof_O 	O 	0.999	0.5868	0.9642	-0.256
Mof_O 	O 	0.5172	0.6315	0.7869	-0.172
Mof_O 	O 	0.4906	0.5302	0.9209	-0.386
Mof_O 	O 	0.5	0.8701	0.7145	-0.194
Mof_O 	O 	0.5086	0.9663	0.5855	-0.359
Mof_O 	O 	0.9982	0.2155	0.3706	-0.164
Mof_O 	O 	0.9735	0.0815	0.4719	-0.43
Mof_O 	O 	0.9725	0.287	0.1321	-0.188
Mof_O 	O 	0.999	0.4132	0.0358	-0.526
Mof_O 	O 	0.5172	0.3685	0.2131	-0.176
Mof_O 	O 	0.4906	0.4698	0.0791	-0.402
Mof_O 	O 	0.5	0.1299	0.2855	-0.179
Mof_O 	O 	0.5086	0.0337	0.4145	-0.49
Mof_O 	O 	0.9982	0.3706	0.7845	-0.16
Mof_O 	O 	0.9735	0.4719	0.9185	-0.426
Mof_O 	O 	0.9725	0.1321	0.713	-0.187
Mof_O 	O 	0.999	0.0358	0.5868	-0.522
Mof_O 	O 	0.5172	0.2131	0.6315	-0.175
Mof_O 	O 	0.4906	0.0791	0.5302	-0.403
Mof_O 	O 	0.5	0.2855	0.8701	-0.195
Mof_O 	O 	0.5086	0.4145	0.9663	-0.356
Mof_O 	O 	0.9982	0.6294	0.2155	-0.164
Mof_O 	O 	0.9735	0.5281	0.0815	-0.43
Mof_O 	O 	0.9725	0.8679	0.287	-0.193
Mof_O 	O 	0.999	0.9642	0.4132	-0.252
Mof_O 	O 	0.5172	0.7869	0.3685	-0.172
Mof_O 	O 	0.4906	0.9209	0.4698	-0.386
Mof_O 	O 	0.5	0.7145	0.1299	-0.178
Mof_O 	O 	0.5086	0.5855	0.0337	-0.488
Mof_F 	F 	0.7405	0.4831	0.57346	-0.792
Mof_F 	F 	0.232	0.4273	0.5026	-0.924
Mof_F 	F 	0.7533	0.07321	0.98097	-0.684
Mof_F 	F 	0.2515	0.9277	0.9905	-0.769
Mof_F 	F 	0.7405	0.5169	0.42654	-0.792
Mof_F 	F 	0.232	0.5727	0.4974	-0.923
Mof_F 	F 	0.7533	0.92679	0.01903	-0.725
Mof_F 	F 	0.2515	0.0723	0.0095	-0.893
Mof_F 	F 	0.7405	0.42654	0.4831	-0.792
Mof_F 	F 	0.232	0.4974	0.4273	-0.924
Mof_F 	F 	0.7533	0.01903	0.07321	-0.766
Mof_F 	F 	0.2515	0.0095	0.9277	-0.848
Mof_F 	F 	0.7405	0.57346	0.5169	-0.792
Mof_F 	F 	0.232	0.5026	0.5727	-0.923
Mof_F 	F 	0.7533	0.98097	0.92679	-0.653
Mof_F 	F 	0.2515	0.9905	0.0723	-0.803
Mof_F 	F 	0.1226	0.5	0.5	-0.921
Mof_F 	F 	0.8509	0.5	0.5	-0.88
Mof_F 	F 	0.624	0.5	0.5	-0.905
Mof_F 	F 	0.3472	0.5	0.5	-1.007
Mof_F 	F 	0.8611	0	-0	-0.937
Mof_F 	F 	0.6336	0	-0	-0.884
Mof_F 	F 	0.3669	0	-0	-0.915
Mof_F 	F 	0.1421	0	-0	-1.044
_end
