data_functionalizedCrystal
_audit_creation_method	'EQeq! by Chris Wilmer'
_symmetry_space_group_name_H-M	'P1'
_symmetry_Int_Tables_number	1
_symmetry_cell_setting	triclinic
loop_
_symmetry_equiv_pos_as_xyz
  x,y,z
_cell_length_a	6.5495
_cell_length_b	9.5384
_cell_length_c	17.1693
_cell_angle_alpha	90
_cell_angle_beta	90
_cell_angle_gamma	90
loop_
_atom_site_label
_atom_site_type_symbol
_atom_site_fract_x
_atom_site_fract_y
_atom_site_fract_z
_atom_site_charge
Mof_Er	Er	0.75	0.78338	0.62035	1.806
Mof_Er	Er	0.25	0.71662	0.12035	1.805
Mof_Er	Er	0.25	0.21662	0.37965	1.806
Mof_Er	Er	0.75	0.28338	0.87965	1.805
Mof_H 	H 	0.75	0.2289	0.6519	0.022
Mof_H 	H 	0.25	0.2711	0.1519	0.021
Mof_H 	H 	0.25	0.7711	0.3481	0.022
Mof_H 	H 	0.75	0.7289	0.8481	0.021
Mof_C 	C 	0.75	0.6291	0.4511	0.344
Mof_C 	C 	0.75	0.5021	0.5054	-0.006
Mof_C 	C 	0.75	0.3597	0.484	-0.076
Mof_C 	C 	0.75	0.3084	0.4006	0.47
Mof_C 	C 	0.75	0.2973	0.6134	0.071
Mof_C 	C 	0.75	0.4378	0.6345	-0.071
Mof_C 	C 	0.75	0.4918	0.7167	0.481
Mof_C 	C 	0.25	0.8709	0.9511	0.346
Mof_C 	C 	0.25	0.9979	0.0054	-0.009
Mof_C 	C 	0.25	0.1403	0.984	-0.073
Mof_C 	C 	0.25	0.1916	0.9006	0.469
Mof_C 	C 	0.25	0.2027	0.1134	0.071
Mof_C 	C 	0.25	0.0622	0.1345	-0.072
Mof_C 	C 	0.25	0.0082	0.2167	0.48
Mof_C 	C 	0.25	0.3709	0.5489	0.344
Mof_C 	C 	0.25	0.4979	0.4946	-0.006
Mof_C 	C 	0.25	0.6403	0.516	-0.076
Mof_C 	C 	0.25	0.6916	0.5994	0.47
Mof_C 	C 	0.25	0.7027	0.3866	0.071
Mof_C 	C 	0.25	0.5622	0.3655	-0.071
Mof_C 	C 	0.25	0.5082	0.2833	0.481
Mof_C 	C 	0.75	0.1291	0.0489	0.346
Mof_C 	C 	0.75	0.0021	0.9946	-0.009
Mof_C 	C 	0.75	0.8597	0.016	-0.073
Mof_C 	C 	0.75	0.8084	0.0994	0.469
Mof_C 	C 	0.75	0.7973	0.8866	0.071
Mof_C 	C 	0.75	0.9378	0.8655	-0.072
Mof_C 	C 	0.75	0.9918	0.7833	0.48
Mof_N 	N 	0.75	0.5365	0.58057	-0.178
Mof_N 	N 	0.75	0.2586	0.5384	-0.138
Mof_N 	N 	0.25	0.9635	0.08057	-0.177
Mof_N 	N 	0.25	0.2414	0.0384	-0.14
Mof_N 	N 	0.25	0.4635	0.41943	-0.178
Mof_N 	N 	0.25	0.7414	0.4616	-0.138
Mof_N 	N 	0.75	0.0365	0.91943	-0.177
Mof_N 	N 	0.75	0.7586	0.9616	-0.14
Mof_O 	O 	0.9184	0.2869	0.36922	-0.5
Mof_O 	O 	0.0816	0.2131	0.86922	-0.5
Mof_O 	O 	0.4184	0.7131	0.63078	-0.502
Mof_O 	O 	0.5816	0.7869	0.13078	-0.501
Mof_O 	O 	0.0816	0.7131	0.63078	-0.5
Mof_O 	O 	0.9184	0.7869	0.13078	-0.5
Mof_O 	O 	0.5816	0.2869	0.36922	-0.502
Mof_O 	O 	0.4184	0.2131	0.86922	-0.501
Mof_O 	O 	0.75	0.7463	0.48701	-0.483
Mof_O 	O 	0.75	0.61	0.38082	-0.26
Mof_O 	O 	0.75	0.405	0.77014	-0.533
Mof_O 	O 	0.75	0.6218	0.72443	-0.447
Mof_O 	O 	0.25	0.7537	0.98701	-0.482
Mof_O 	O 	0.25	0.89	0.88082	-0.259
Mof_O 	O 	0.25	0.095	0.27014	-0.533
Mof_O 	O 	0.25	0.8782	0.22443	-0.446
Mof_O 	O 	0.25	0.2537	0.51299	-0.483
Mof_O 	O 	0.25	0.39	0.61918	-0.26
Mof_O 	O 	0.25	0.595	0.22986	-0.533
Mof_O 	O 	0.25	0.3782	0.27557	-0.447
Mof_O 	O 	0.75	0.2463	0.01299	-0.482
Mof_O 	O 	0.75	0.11	0.11918	-0.259
Mof_O 	O 	0.75	0.905	0.72986	-0.533
Mof_O 	O 	0.75	0.1218	0.77557	-0.446
_end
