data_functionalizedCrystal
_audit_creation_method	'EQeq! by Chris Wilmer'
_symmetry_space_group_name_H-M	'P1'
_symmetry_Int_Tables_number	1
_symmetry_cell_setting	triclinic
loop_
_symmetry_equiv_pos_as_xyz
  x,y,z
_cell_length_a	7.3167
_cell_length_b	9.6202
_cell_length_c	11.3957
_cell_angle_alpha	96.9143
_cell_angle_beta	90
_cell_angle_gamma	112.351
loop_
_atom_site_label
_atom_site_type_symbol
_atom_site_fract_x
_atom_site_fract_y
_atom_site_fract_z
_atom_site_charge
Mof_Co	Co	0.94134	0.5023	0.9965	1.2
Mof_Co	Co	0.43904	0.4977	0.0035	1.221
Mof_H 	H 	0.9341	0.2938	0.7685	0.008
Mof_H 	H 	0.928	0.2864	0.5644	0.06
Mof_H 	H 	0.95	0.7166	0.6082	0.059
Mof_H 	H 	0.9441	0.7092	0.8113	0.014
Mof_H 	H 	0.1263	0.7184	0.2294	0.008
Mof_H 	H 	0.1285	0.7238	0.4329	0.053
Mof_H 	H 	0.755	0.2824	0.3858	0.05
Mof_H 	H 	0.766	0.2892	0.1832	0.037
Mof_H 	H 	0.3262	0.997	0.102	0.051
Mof_H 	H 	0.578	0.978	0.1937	0.201
Mof_H 	H 	0.6403	0.7062	0.2315	0.017
Mof_H 	H 	0.6416	0.7136	0.4356	0.06
Mof_H 	H 	0.2334	0.2834	0.3918	0.082
Mof_H 	H 	0.2349	0.2908	0.1887	0.04
Mof_H 	H 	0.4079	0.2816	0.7706	0.011
Mof_H 	H 	0.4047	0.2762	0.5671	0.072
Mof_H 	H 	0.4726	0.7176	0.6142	0.071
Mof_H 	H 	0.4768	0.7108	0.8168	0.035
Mof_H 	H 	0.3292	0.003	0.898	0.064
Mof_H 	H 	0.6	0.022	0.8063	0.186
Mof_C 	C 	0.93603	0.38026	0.7354	0.061
Mof_C 	C 	0.93476	0.37552	0.6134	-0.138
Mof_C 	C 	0.94344	0.50288	0.5634	0.07
Mof_C 	C 	0.94622	0.62824	0.6391	-0.138
Mof_C 	C 	0.94344	0.62308	0.7605	0.063
Mof_C 	C 	0.04978	0.62876	0.2618	0.105
Mof_C 	C 	0.0524	0.6328	0.3836	-0.014
Mof_C 	C 	0.94321	0.50322	0.4336	-0.054
Mof_C 	C 	0.83334	0.37348	0.3559	-0.072
Mof_C 	C 	0.83962	0.37884	0.2348	0.026
Mof_C 	C 	0.33804	0.79008	0.032	0.322
Mof_C 	C 	0.42531	0.96522	0.0583	0.024
Mof_C 	C 	0.55577	0.61974	0.2646	0.063
Mof_C 	C 	0.55924	0.62448	0.3866	-0.115
Mof_C 	C 	0.44056	0.49712	0.4366	0.052
Mof_C 	C 	0.31798	0.37176	0.3609	-0.107
Mof_C 	C 	0.32036	0.37692	0.2395	0.069
Mof_C 	C 	0.42102	0.37124	0.7382	0.082
Mof_C 	C 	0.4196	0.3672	0.6164	-0.111
Mof_C 	C 	0.43999	0.49678	0.5664	0.055
Mof_C 	C 	0.45986	0.62652	0.6441	-0.102
Mof_C 	C 	0.46078	0.62116	0.7652	0.071
Mof_C 	C 	0.54796	0.20992	0.968	0.337
Mof_C 	C 	0.46009	0.03478	0.9417	-0.001
Mof_N 	N 	0.93971	0.50182	0.80916	-0.218
Mof_N 	N 	0.9445	0.5044	0.18708	-0.234
Mof_N 	N 	0.43789	0.49818	0.19084	-0.205
Mof_N 	N 	0.4401	0.4956	0.81292	-0.199
Mof_O 	O 	0.15216	0.73012	0.0097	-0.341
Mof_O 	O 	0.45512	0.72524	0.035	-0.363
Mof_O 	O 	0.60107	0.01754	0.1307	-0.312
Mof_O 	O 	0.42204	0.26988	0.9903	-0.365
Mof_O 	O 	0.72988	0.27476	0.965	-0.376
Mof_O 	O 	0.58353	0.98246	0.8693	-0.281
Mof_F 	F 	0.1419	0.4054	0.9902	-0.603
Mof_F 	F 	0.7365	0.5946	0.0098	-0.651
_end
