data_functionalizedCrystal
_audit_creation_method	'EQeq! by Chris Wilmer'
_symmetry_space_group_name_H-M	'P1'
_symmetry_Int_Tables_number	1
_symmetry_cell_setting	triclinic
loop_
_symmetry_equiv_pos_as_xyz
  x,y,z
_cell_length_a	23.679
_cell_length_b	23.679
_cell_length_c	16.816
_cell_angle_alpha	90
_cell_angle_beta	90
_cell_angle_gamma	90
loop_
_atom_site_label
_atom_site_type_symbol
_atom_site_fract_x
_atom_site_fract_y
_atom_site_fract_z
_atom_site_charge
Mof_O 	O 	0.84902	0.44324	0.57914	-0.588
Mof_O 	O 	0.91613	0.3973	0.6492	-0.208
Mof_C 	C 	0.86588	0.40727	0.6295	0.365
Mof_C 	C 	0.82152	0.37037	0.6673	0.055
Mof_C 	C 	0.76711	0.3717	0.6402	-0.166
Mof_H 	H 	0.7572	0.397	0.5986	0.1
Mof_C 	C 	0.7263	0.3369	0.6726	0.185
Mof_C 	C 	0.7418	0.2999	0.7326	-0.072
Mof_C 	C 	0.7958	0.2991	0.7607	0.03
Mof_H 	H 	0.8057	0.2751	0.8038	0.049
Mof_C 	C 	0.8366	0.3339	0.7253	-0.092
Mof_H 	H 	0.8748	0.3318	0.7421	0.189
Mof_C 	C 	0.6671	0.3361	0.6368	-0.541
Mof_H 	H 	0.6645	0.3647	0.5948	0.174
Mof_H 	H 	0.6393	0.3444	0.6784	0.177
Mof_H 	H 	0.6595	0.2987	0.6142	0.191
Mof_O 	O 	0.15098	0.55676	0.57914	-0.595
Mof_O 	O 	0.08387	0.6027	0.6492	-0.271
Mof_C 	C 	0.13412	0.59273	0.6295	0.378
Mof_C 	C 	0.17848	0.62963	0.6673	0.032
Mof_C 	C 	0.23289	0.6283	0.6402	-0.155
Mof_H 	H 	0.2428	0.603	0.5986	0.097
Mof_C 	C 	0.2737	0.6631	0.6726	0.179
Mof_C 	C 	0.2582	0.7001	0.7326	-0.063
Mof_C 	C 	0.2042	0.7009	0.7607	0.014
Mof_H 	H 	0.1943	0.7249	0.8038	0.047
Mof_C 	C 	0.1634	0.6661	0.7253	-0.08
Mof_H 	H 	0.1252	0.6682	0.7421	0.161
Mof_C 	C 	0.3329	0.6639	0.6368	-0.54
Mof_H 	H 	0.3355	0.6353	0.5948	0.176
Mof_H 	H 	0.3607	0.6556	0.6784	0.18
Mof_H 	H 	0.3405	0.7013	0.6142	0.197
Mof_O 	O 	0.55676	0.84902	0.07914	-0.593
Mof_O 	O 	0.6027	0.91613	0.1492	-0.304
Mof_C 	C 	0.59273	0.86588	0.1295	0.4
Mof_C 	C 	0.62963	0.82152	0.1673	0.032
Mof_C 	C 	0.6283	0.76711	0.1402	-0.15
Mof_H 	H 	0.603	0.7572	0.0986	0.102
Mof_C 	C 	0.6631	0.7263	0.1726	0.187
Mof_C 	C 	0.7001	0.7418	0.2326	-0.06
Mof_C 	C 	0.7009	0.7958	0.2607	0.019
Mof_H 	H 	0.7249	0.8057	0.3038	0.069
Mof_C 	C 	0.6661	0.8366	0.2253	-0.066
Mof_H 	H 	0.6682	0.8748	0.2421	0.173
Mof_C 	C 	0.6639	0.6671	0.1368	-0.554
Mof_H 	H 	0.6353	0.6645	0.0948	0.186
Mof_H 	H 	0.6556	0.6393	0.1784	0.186
Mof_H 	H 	0.7013	0.6595	0.1142	0.207
Mof_O 	O 	0.44324	0.15098	0.07914	-0.601
Mof_O 	O 	0.3973	0.08387	0.1492	-0.371
Mof_C 	C 	0.40727	0.13412	0.1295	0.41
Mof_C 	C 	0.37037	0.17848	0.1673	0.003
Mof_C 	C 	0.3717	0.23289	0.1402	-0.141
Mof_H 	H 	0.397	0.2428	0.0986	0.095
Mof_C 	C 	0.3369	0.2737	0.1726	0.172
Mof_C 	C 	0.2999	0.2582	0.2326	-0.063
Mof_C 	C 	0.2991	0.2042	0.2607	-0.002
Mof_H 	H 	0.2751	0.1943	0.3038	0.039
Mof_C 	C 	0.3339	0.1634	0.2253	-0.063
Mof_H 	H 	0.3318	0.1252	0.2421	0.126
Mof_C 	C 	0.3361	0.3329	0.1368	-0.535
Mof_H 	H 	0.3647	0.3355	0.0948	0.178
Mof_H 	H 	0.3444	0.3607	0.1784	0.179
Mof_H 	H 	0.2987	0.3405	0.1142	0.192
Mof_O 	O 	0.15098	0.44324	0.42086	-0.624
Mof_O 	O 	0.08387	0.3973	0.3508	-0.482
Mof_C 	C 	0.13412	0.40727	0.3705	0.45
Mof_C 	C 	0.17848	0.37037	0.3327	-0.043
Mof_C 	C 	0.23289	0.3717	0.3598	-0.108
Mof_H 	H 	0.2428	0.397	0.4014	0.079
Mof_C 	C 	0.2737	0.3369	0.3274	0.141
Mof_C 	C 	0.2582	0.2999	0.2674	-0.035
Mof_C 	C 	0.2042	0.2991	0.2393	-0.037
Mof_H 	H 	0.1943	0.2751	0.1962	0.051
Mof_C 	C 	0.1634	0.3339	0.2747	-0.026
Mof_H 	H 	0.1252	0.3318	0.2579	0.092
Mof_C 	C 	0.3329	0.3361	0.3632	-0.501
Mof_H 	H 	0.3355	0.3647	0.4052	0.163
Mof_H 	H 	0.3607	0.3444	0.3216	0.168
Mof_H 	H 	0.3405	0.2987	0.3858	0.178
Mof_O 	O 	0.84902	0.55676	0.42086	-0.616
Mof_O 	O 	0.91613	0.6027	0.3508	-0.414
Mof_C 	C 	0.86588	0.59273	0.3705	0.439
Mof_C 	C 	0.82152	0.62963	0.3327	-0.013
Mof_C 	C 	0.76711	0.6283	0.3598	-0.117
Mof_H 	H 	0.7572	0.603	0.4014	0.086
Mof_C 	C 	0.7263	0.6631	0.3274	0.157
Mof_C 	C 	0.7418	0.7001	0.2674	-0.033
Mof_C 	C 	0.7958	0.7009	0.2393	-0.014
Mof_H 	H 	0.8057	0.7249	0.1962	0.079
Mof_C 	C 	0.8366	0.6661	0.2747	-0.029
Mof_H 	H 	0.8748	0.6682	0.2579	0.139
Mof_C 	C 	0.6671	0.6639	0.3632	-0.522
Mof_H 	H 	0.6645	0.6353	0.4052	0.172
Mof_H 	H 	0.6393	0.6556	0.3216	0.176
Mof_H 	H 	0.6595	0.7013	0.3858	0.194
Mof_O 	O 	0.44324	0.84902	0.92086	-0.614
Mof_O 	O 	0.3973	0.91613	0.8508	-0.324
Mof_C 	C 	0.40727	0.86588	0.8705	0.407
Mof_C 	C 	0.37037	0.82152	0.8327	0.008
Mof_C 	C 	0.3717	0.76711	0.8598	-0.132
Mof_H 	H 	0.397	0.7572	0.9014	0.085
Mof_C 	C 	0.3369	0.7263	0.8274	0.156
Mof_C 	C 	0.2999	0.7418	0.7674	-0.043
Mof_C 	C 	0.2991	0.7958	0.7393	-0.004
Mof_H 	H 	0.2751	0.8057	0.6962	0.061
Mof_C 	C 	0.3339	0.8366	0.7747	-0.054
Mof_H 	H 	0.3318	0.8748	0.7579	0.155
Mof_C 	C 	0.3361	0.6671	0.8632	-0.507
Mof_H 	H 	0.3647	0.6645	0.9052	0.16
Mof_H 	H 	0.3444	0.6393	0.8216	0.168
Mof_H 	H 	0.2987	0.6595	0.8858	0.178
Mof_O 	O 	0.55676	0.15098	0.92086	-0.62
Mof_O 	O 	0.6027	0.08387	0.8508	-0.385
Mof_C 	C 	0.59273	0.13412	0.8705	0.42
Mof_C 	C 	0.62963	0.17848	0.8327	-0.014
Mof_C 	C 	0.6283	0.23289	0.8598	-0.122
Mof_H 	H 	0.603	0.2428	0.9014	0.081
Mof_C 	C 	0.6631	0.2737	0.8274	0.149
Mof_C 	C 	0.7001	0.2582	0.7674	-0.035
Mof_C 	C 	0.7009	0.2042	0.7393	-0.021
Mof_H 	H 	0.7249	0.1943	0.6962	0.059
Mof_C 	C 	0.6661	0.1634	0.7747	-0.042
Mof_H 	H 	0.6682	0.1252	0.7579	0.127
Mof_C 	C 	0.6639	0.3329	0.8632	-0.508
Mof_H 	H 	0.6353	0.3355	0.9052	0.161
Mof_H 	H 	0.6556	0.3607	0.8216	0.17
Mof_H 	H 	0.7013	0.3405	0.8858	0.184
Mof_O 	O 	0.15098	0.55676	0.42086	-0.623
Mof_O 	O 	0.08387	0.6027	0.3508	-0.479
Mof_C 	C 	0.13412	0.59273	0.3705	0.451
Mof_C 	C 	0.17848	0.62963	0.3327	-0.04
Mof_C 	C 	0.23289	0.6283	0.3598	-0.108
Mof_H 	H 	0.2428	0.603	0.4014	0.08
Mof_C 	C 	0.2737	0.6631	0.3274	0.145
Mof_C 	C 	0.2582	0.7001	0.2674	-0.029
Mof_C 	C 	0.2042	0.7009	0.2393	-0.034
Mof_H 	H 	0.1943	0.7249	0.1962	0.064
Mof_C 	C 	0.1634	0.6661	0.2747	-0.022
Mof_H 	H 	0.1252	0.6682	0.2579	0.102
Mof_C 	C 	0.3329	0.6639	0.3632	-0.511
Mof_H 	H 	0.3355	0.6353	0.4052	0.168
Mof_H 	H 	0.3607	0.6556	0.3216	0.172
Mof_H 	H 	0.3405	0.7013	0.3858	0.189
Mof_O 	O 	0.84902	0.44324	0.42086	-0.616
Mof_O 	O 	0.91613	0.3973	0.3508	-0.417
Mof_C 	C 	0.86588	0.40727	0.3705	0.438
Mof_C 	C 	0.82152	0.37037	0.3327	-0.017
Mof_C 	C 	0.76711	0.3717	0.3598	-0.118
Mof_H 	H 	0.7572	0.397	0.4014	0.085
Mof_C 	C 	0.7263	0.3369	0.3274	0.153
Mof_C 	C 	0.7418	0.2999	0.2674	-0.038
Mof_C 	C 	0.7958	0.2991	0.2393	-0.017
Mof_H 	H 	0.8057	0.2751	0.1962	0.066
Mof_C 	C 	0.8366	0.3339	0.2747	-0.034
Mof_H 	H 	0.8748	0.3318	0.2579	0.13
Mof_C 	C 	0.6671	0.3361	0.3632	-0.512
Mof_H 	H 	0.6645	0.3647	0.4052	0.167
Mof_H 	H 	0.6393	0.3444	0.3216	0.171
Mof_H 	H 	0.6595	0.2987	0.3858	0.184
Mof_O 	O 	0.44324	0.15098	0.92086	-0.621
Mof_O 	O 	0.3973	0.08387	0.8508	-0.388
Mof_C 	C 	0.40727	0.13412	0.8705	0.418
Mof_C 	C 	0.37037	0.17848	0.8327	-0.018
Mof_C 	C 	0.3717	0.23289	0.8598	-0.122
Mof_H 	H 	0.397	0.2428	0.9014	0.08
Mof_C 	C 	0.3369	0.2737	0.8274	0.144
Mof_C 	C 	0.2999	0.2582	0.7674	-0.04
Mof_C 	C 	0.2991	0.2042	0.7393	-0.023
Mof_H 	H 	0.2751	0.1943	0.6962	0.045
Mof_C 	C 	0.3339	0.1634	0.7747	-0.047
Mof_H 	H 	0.3318	0.1252	0.7579	0.117
Mof_C 	C 	0.3361	0.3329	0.8632	-0.497
Mof_H 	H 	0.3647	0.3355	0.9052	0.156
Mof_H 	H 	0.3444	0.3607	0.8216	0.165
Mof_H 	H 	0.2987	0.3405	0.8858	0.173
Mof_O 	O 	0.55676	0.84902	0.92086	-0.613
Mof_O 	O 	0.6027	0.91613	0.8508	-0.321
Mof_C 	C 	0.59273	0.86588	0.8705	0.408
Mof_C 	C 	0.62963	0.82152	0.8327	0.012
Mof_C 	C 	0.6283	0.76711	0.8598	-0.131
Mof_H 	H 	0.603	0.7572	0.9014	0.086
Mof_C 	C 	0.6631	0.7263	0.8274	0.16
Mof_C 	C 	0.7001	0.7418	0.7674	-0.038
Mof_C 	C 	0.7009	0.7958	0.7393	-0.001
Mof_H 	H 	0.7249	0.8057	0.6962	0.075
Mof_C 	C 	0.6661	0.8366	0.7747	-0.05
Mof_H 	H 	0.6682	0.8748	0.7579	0.165
Mof_C 	C 	0.6639	0.6671	0.8632	-0.518
Mof_H 	H 	0.6353	0.6645	0.9052	0.165
Mof_H 	H 	0.6556	0.6393	0.8216	0.173
Mof_H 	H 	0.7013	0.6595	0.8858	0.189
Mof_O 	O 	0.84902	0.55676	0.57914	-0.587
Mof_O 	O 	0.91613	0.6027	0.6492	-0.204
Mof_C 	C 	0.86588	0.59273	0.6295	0.368
Mof_C 	C 	0.82152	0.62963	0.6673	0.059
Mof_C 	C 	0.76711	0.6283	0.6402	-0.165
Mof_H 	H 	0.7572	0.603	0.5986	0.102
Mof_C 	C 	0.7263	0.6631	0.6726	0.191
Mof_C 	C 	0.7418	0.7001	0.7326	-0.066
Mof_C 	C 	0.7958	0.7009	0.7607	0.033
Mof_H 	H 	0.8057	0.7249	0.8038	0.064
Mof_C 	C 	0.8366	0.6661	0.7253	-0.087
Mof_H 	H 	0.8748	0.6682	0.7421	0.2
Mof_C 	C 	0.6671	0.6639	0.6368	-0.551
Mof_H 	H 	0.6645	0.6353	0.5948	0.18
Mof_H 	H 	0.6393	0.6556	0.6784	0.183
Mof_H 	H 	0.6595	0.7013	0.6142	0.202
Mof_O 	O 	0.15098	0.44324	0.57914	-0.595
Mof_O 	O 	0.08387	0.3973	0.6492	-0.273
Mof_C 	C 	0.13412	0.40727	0.6295	0.378
Mof_C 	C 	0.17848	0.37037	0.6673	0.029
Mof_C 	C 	0.23289	0.3717	0.6402	-0.155
Mof_H 	H 	0.2428	0.397	0.5986	0.095
Mof_C 	C 	0.2737	0.3369	0.6726	0.174
Mof_C 	C 	0.2582	0.2999	0.7326	-0.068
Mof_C 	C 	0.2042	0.2991	0.7607	0.011
Mof_H 	H 	0.1943	0.2751	0.8038	0.034
Mof_C 	C 	0.1634	0.3339	0.7253	-0.084
Mof_H 	H 	0.1252	0.3318	0.7421	0.152
Mof_C 	C 	0.3329	0.3361	0.6368	-0.529
Mof_H 	H 	0.3355	0.3647	0.5948	0.171
Mof_H 	H 	0.3607	0.3444	0.6784	0.175
Mof_H 	H 	0.3405	0.2987	0.6142	0.186
Mof_O 	O 	0.55676	0.15098	0.07914	-0.6
Mof_O 	O 	0.6027	0.08387	0.1492	-0.368
Mof_C 	C 	0.59273	0.13412	0.1295	0.411
Mof_C 	C 	0.62963	0.17848	0.1673	0.006
Mof_C 	C 	0.6283	0.23289	0.1402	-0.14
Mof_H 	H 	0.603	0.2428	0.0986	0.096
Mof_C 	C 	0.6631	0.2737	0.1726	0.176
Mof_C 	C 	0.7001	0.2582	0.2326	-0.057
Mof_C 	C 	0.7009	0.2042	0.2607	0
Mof_H 	H 	0.7249	0.1943	0.3038	0.053
Mof_C 	C 	0.6661	0.1634	0.2253	-0.058
Mof_H 	H 	0.6682	0.1252	0.2421	0.136
Mof_C 	C 	0.6639	0.3329	0.1368	-0.544
Mof_H 	H 	0.6353	0.3355	0.0948	0.183
Mof_H 	H 	0.6556	0.3607	0.1784	0.183
Mof_H 	H 	0.7013	0.3405	0.1142	0.202
Mof_O 	O 	0.44324	0.84902	0.07914	-0.594
Mof_O 	O 	0.3973	0.91613	0.1492	-0.307
Mof_C 	C 	0.40727	0.86588	0.1295	0.399
Mof_C 	C 	0.37037	0.82152	0.1673	0.029
Mof_C 	C 	0.3717	0.76711	0.1402	-0.15
Mof_H 	H 	0.397	0.7572	0.0986	0.101
Mof_C 	C 	0.3369	0.7263	0.1726	0.183
Mof_C 	C 	0.2999	0.7418	0.2326	-0.066
Mof_C 	C 	0.2991	0.7958	0.2607	0.017
Mof_H 	H 	0.2751	0.8057	0.3038	0.055
Mof_C 	C 	0.3339	0.8366	0.2253	-0.07
Mof_H 	H 	0.3318	0.8748	0.2421	0.164
Mof_C 	C 	0.3361	0.6671	0.1368	-0.545
Mof_H 	H 	0.3647	0.6645	0.0948	0.182
Mof_H 	H 	0.3444	0.6393	0.1784	0.182
Mof_H 	H 	0.2987	0.6595	0.1142	0.197
Mof_Zr	Zr	1.6105e-33	0.42651	0.60484	3.298
Mof_C 	C 	7.63232e-33	0.4901	0.8554	1.539
Mof_C 	C 	-8.33125e-33	0.4378	0.8931	-1.213
Mof_H 	H 	-8.40846e-33	0.4029	0.8641	0.777
Mof_C 	C 	-8.11157e-33	0.4349	0.9756	0.816
Mof_C 	C 	-5.63473e-33	0.4841	0.0205	-1.197
Mof_C 	C 	-1.88014e-32	0.5364	0.9829	1.315
Mof_C 	C 	-1.36667e-32	0.5394	0.9003	-1.931
Mof_H 	H 	2.3224e-33	0.5747	0.8722	0.416
Mof_C 	C 	2.74524e-34	0.4812	0.1031	-0.044
Mof_H 	H 	-4.33597e-33	0.4459	0.1312	0.449
Mof_C 	C 	-3.62191e-33	0.5304	0.148	0.591
Mof_C 	C 	-1.71403e-33	0.5827	0.1104	-0.151
Mof_H 	H 	-6.3224e-33	0.6177	0.1393	-0.362
Mof_C 	C 	-1.93397e-33	0.5857	0.0278	-0.564
Mof_C 	C 	-7.08669e-34	0.5202	0.2366	-1.922
Mof_O 	O 	1.9206e-33	0.4564	0.7213	5.177
Mof_O 	O 	-1.92378e-33	0.5632	0.283	-5.043
Mof_O 	O 	-7.33382e-33	0.4692	0.2622	4.456
Mof_O 	O 	-1.4092e-32	0.55063	0.7406	0.518
Mof_Zr	Zr	1.6105e-33	0.57349	0.60484	3.297
Mof_C 	C 	2.27767e-33	0.5099	0.8554	1.736
Mof_C 	C 	-1.36859e-32	0.5622	0.8931	-1.366
Mof_H 	H 	-3.05382e-33	0.5971	0.8641	1.147
Mof_C 	C 	-1.88209e-32	0.5651	0.9756	0.764
Mof_C 	C 	-2.8008e-34	0.5159	0.0205	-1.162
Mof_C 	C 	-2.73749e-33	0.4636	0.9829	1.327
Mof_C 	C 	-8.31208e-33	0.4606	0.9003	-1.979
Mof_H 	H 	-8.3869e-33	0.4253	0.8722	0.433
Mof_C 	C 	2.74524e-34	0.5188	0.1031	0.184
Mof_H 	H 	1.01868e-33	0.5541	0.1312	0.124
Mof_C 	C 	-3.62191e-33	0.4696	0.148	0.318
Mof_C 	C 	-1.71403e-33	0.4173	0.1104	-0.245
Mof_H 	H 	1.70958e-33	0.3823	0.1393	-0.05
Mof_C 	C 	-1.93397e-33	0.4143	0.0278	-0.573
Mof_C 	C 	-7.08669e-34	0.4798	0.2366	-1.992
Mof_O 	O 	1.9206e-33	0.5436	0.7213	5.114
Mof_O 	O 	-1.92378e-33	0.4368	0.283	-5.123
Mof_O 	O 	3.37548e-33	0.5308	0.2622	4.37
Mof_O 	O 	-8.73731e-33	0.44937	0.7406	0.501
Mof_Zr	Zr	0.57349	0	0.10484	3.271
Mof_C 	C 	0.5099	2.67732e-33	0.3554	1.318
Mof_C 	C 	0.5622	0	0.3931	-0.991
Mof_H 	H 	0.5971	0	0.3641	0.95
Mof_C 	C 	0.5651	-2.67732e-33	0.4756	0.578
Mof_C 	C 	0.5159	-2.67732e-33	0.5205	-0.599
Mof_C 	C 	0.4636	2.67732e-33	0.4829	0.968
Mof_C 	C 	0.4606	0	0.4003	-1.352
Mof_H 	H 	0.4253	2.67732e-33	0.3722	0.323
Mof_C 	C 	0.5188	0	0.6031	-0.17
Mof_H 	H 	0.5541	0	0.6312	0.411
Mof_C 	C 	0.4696	0	0.648	0.843
Mof_C 	C 	0.4173	0	0.6104	-0.396
Mof_H 	H 	0.3823	0	0.6393	-0.135
Mof_C 	C 	0.4143	-2.67732e-33	0.5278	-0.44
Mof_C 	C 	0.4798	0	0.7366	-2.857
Mof_O 	O 	0.5436	0	0.2213	3.922
Mof_O 	O 	0.4368	0	0.783	-7.407
Mof_O 	O 	0.5308	0	0.7622	6.176
Mof_O 	O 	0.44937	0	0.2406	0.124
Mof_Zr	Zr	0.42651	0	0.10484	3.271
Mof_C 	C 	0.4901	2.67732e-33	0.3554	1.111
Mof_C 	C 	0.4378	0	0.3931	-0.83
Mof_H 	H 	0.4029	0	0.3641	0.562
Mof_C 	C 	0.4349	-2.67732e-33	0.4756	0.632
Mof_C 	C 	0.4841	-2.67732e-33	0.5205	-0.635
Mof_C 	C 	0.5364	2.67732e-33	0.4829	0.956
Mof_C 	C 	0.5394	0	0.4003	-1.302
Mof_H 	H 	0.5747	2.67732e-33	0.3722	0.305
Mof_C 	C 	0.4812	0	0.6031	-0.406
Mof_H 	H 	0.4459	0	0.6312	0.747
Mof_C 	C 	0.5304	0	0.648	1.124
Mof_C 	C 	0.5827	0	0.6104	-0.299
Mof_H 	H 	0.6177	0	0.6393	-0.456
Mof_C 	C 	0.5857	-2.67732e-33	0.5278	-0.43
Mof_C 	C 	0.5202	0	0.7366	-2.785
Mof_O 	O 	0.4564	0	0.2213	3.989
Mof_O 	O 	0.5632	0	0.783	-7.325
Mof_O 	O 	0.4692	0	0.7622	6.264
Mof_O 	O 	0.55063	0	0.2406	0.142
Mof_Zr	Zr	3.72951e-33	0.42651	0.39516	3.242
Mof_C 	C 	-3.63096e-33	0.4901	0.1446	0.668
Mof_C 	C 	2.96197e-33	0.4378	0.1069	-0.423
Mof_H 	H 	-2.31546e-33	0.4029	0.1359	0.339
Mof_C 	C 	-3.11435e-33	0.4349	0.0244	0.41
Mof_C 	C 	-8.10119e-33	0.4841	0.9795	0.003
Mof_C 	C 	-6.48045e-33	0.5364	0.0171	0.547
Mof_C 	C 	-6.42784e-33	0.5394	0.0997	-0.631
Mof_H 	H 	-5.01436e-33	0.5747	0.1278	0.183
Mof_C 	C 	-8.32113e-33	0.4812	0.8969	-0.804
Mof_H 	H 	-8.39595e-33	0.4459	0.8688	1.063
Mof_C 	C 	-3.08603e-33	0.5304	0.852	1.707
Mof_C 	C 	-2.98592e-33	0.5827	0.8896	-0.455
Mof_H 	H 	-3.06287e-33	0.6177	0.8607	-0.547
Mof_C 	C 	2.58867e-33	0.5857	0.9722	-0.253
Mof_C 	C 	7.38735e-33	0.5202	0.7634	-3.748
Mof_O 	O 	7.42092e-34	0.4564	0.2787	2.725
Mof_O 	O 	1.90915e-33	0.5632	0.717	-9.864
Mof_O 	O 	-1.40994e-32	0.4692	0.7378	8.27
Mof_O 	O 	-3.32528e-33	0.55063	0.2594	-0.262
Mof_Zr	Zr	-1.62513e-33	0.57349	0.39516	3.242
Mof_C 	C 	7.07834e-33	0.5099	0.1446	0.866
Mof_C 	C 	-2.39268e-33	0.5622	0.1069	-0.577
Mof_H 	H 	-2.31546e-33	0.5971	0.1359	0.711
Mof_C 	C 	-8.469e-33	0.5651	0.0244	0.358
Mof_C 	C 	2.60811e-33	0.5159	0.9795	0.037
Mof_C 	C 	-1.1258e-33	0.4636	0.0171	0.558
Mof_C 	C 	4.28146e-33	0.4606	0.0997	-0.68
Mof_H 	H 	-1.0369e-32	0.4253	0.1278	0.2
Mof_C 	C 	-8.32113e-33	0.5188	0.8969	-0.577
Mof_H 	H 	-8.39595e-33	0.5541	0.8688	0.739
Mof_C 	C 	2.26861e-33	0.4696	0.852	1.435
Mof_C 	C 	2.36873e-33	0.4173	0.8896	-0.549
Mof_H 	H 	2.29178e-33	0.3823	0.8607	-0.237
Mof_C 	C 	-2.76598e-33	0.4143	0.9722	-0.263
Mof_C 	C 	2.0327e-33	0.4798	0.7634	-3.818
Mof_O 	O 	6.09674e-33	0.5436	0.2787	2.662
Mof_O 	O 	1.90915e-33	0.4368	0.717	-9.944
Mof_O 	O 	-3.39011e-33	0.5308	0.7378	8.184
Mof_O 	O 	-3.32528e-33	0.44937	0.2594	-0.28
Mof_Zr	Zr	0.42651	5.35465e-33	0.89516	3.267
Mof_C 	C 	0.4901	-5.35465e-33	0.6446	1.076
Mof_C 	C 	0.4378	0	0.6069	-0.798
Mof_H 	H 	0.4029	0	0.6359	0.546
Mof_C 	C 	0.4349	0	0.5244	0.612
Mof_C 	C 	0.4841	0	0.4795	-0.576
Mof_C 	C 	0.5364	-2.67732e-33	0.5171	0.918
Mof_C 	C 	0.5394	5.35465e-33	0.5997	-1.245
Mof_H 	H 	0.5747	0	0.6278	0.295
Mof_C 	C 	0.4812	0	0.3969	-0.444
Mof_H 	H 	0.4459	0	0.3688	0.776
Mof_C 	C 	0.5304	0	0.352	1.176
Mof_C 	C 	0.5827	0	0.3896	-0.312
Mof_H 	H 	0.6177	0	0.3607	-0.465
Mof_C 	C 	0.5857	0	0.4722	-0.418
Mof_C 	C 	0.5202	0	0.2634	-2.86
Mof_O 	O 	0.4564	5.35465e-33	0.7787	3.887
Mof_O 	O 	0.5632	0	0.217	-7.523
Mof_O 	O 	0.4692	-1.33866e-33	0.2378	6.421
Mof_O 	O 	0.55063	0	0.7594	0.108
Mof_Zr	Zr	0.57349	5.35465e-33	0.89516	3.267
Mof_C 	C 	0.5099	-5.35465e-33	0.6446	1.28
Mof_C 	C 	0.5622	0	0.6069	-0.956
Mof_H 	H 	0.5971	0	0.6359	0.929
Mof_C 	C 	0.5651	0	0.5244	0.557
Mof_C 	C 	0.5159	0	0.4795	-0.539
Mof_C 	C 	0.4636	-2.67732e-33	0.5171	0.931
Mof_C 	C 	0.4606	5.35465e-33	0.5997	-1.295
Mof_H 	H 	0.4253	0	0.6278	0.314
Mof_C 	C 	0.5188	0	0.3969	-0.206
Mof_H 	H 	0.5541	0	0.3688	0.436
Mof_C 	C 	0.4696	0	0.352	0.891
Mof_C 	C 	0.4173	0	0.3896	-0.41
Mof_H 	H 	0.3823	0	0.3607	-0.14
Mof_C 	C 	0.4143	0	0.4722	-0.427
Mof_C 	C 	0.4798	0	0.2634	-2.934
Mof_O 	O 	0.5436	5.35465e-33	0.7787	3.822
Mof_O 	O 	0.4368	0	0.217	-7.607
Mof_O 	O 	0.5308	-1.33866e-33	0.2378	6.331
Mof_O 	O 	0.44937	0	0.7594	0.09
Mof_Zr	Zr	0.89626	0.5	0.5	3.217
Mof_Zr	Zr	0.10374	0.5	0.5	3.218
Mof_Zr	Zr	0.5	0.89626	-0	3.219
Mof_Zr	Zr	0.5	0.10374	-0	3.22
Mof_O 	O 	0.94965	0.4254	0.5	-1.187
Mof_O 	O 	0.05035	0.5746	0.5	-1.273
Mof_O 	O 	0.5746	0.94965	-0	-1.172
Mof_O 	O 	0.4254	0.05035	-0	-1.262
Mof_O 	O 	0.05035	0.4254	0.5	-1.277
Mof_O 	O 	0.94965	0.5746	0.5	-1.183
Mof_O 	O 	0.4254	0.94965	-0	-1.176
Mof_O 	O 	0.5746	0.05035	-0	-1.259
Mof_O 	O 	0.94876	0.5	0.6019	-1.253
Mof_O 	O 	0.05124	0.5	0.6019	-1.34
Mof_O 	O 	0.5	0.94876	0.1019	-1.25
Mof_O 	O 	0.5	0.05124	0.1019	-1.335
Mof_O 	O 	0.05124	0.5	0.3981	-1.334
Mof_O 	O 	0.94876	0.5	0.3981	-1.247
Mof_O 	O 	0.5	0.94876	0.8981	-1.261
Mof_O 	O 	0.5	0.05124	0.8981	-1.346
Mof_C 	C 	-3.3129e-33	0.5	0.7668	-8.3
Mof_C 	C 	0.5	1.33866e-33	0.2668	-6.206
Mof_C 	C 	-7.41103e-33	0.5	0.2332	-3.982
Mof_C 	C 	0.5	5.35465e-33	0.7332	-6.026
Mof_H 	H 	-0	0.3996	-0	-0.657
Mof_H 	H 	-0	0.621	-0	0.77
Mof_H 	H 	-0	0.6004	-0	-0.545
Mof_H 	H 	-2.67732e-33	0.379	-0	0.842
Mof_H 	H 	0.6004	0	0.5	-0.518
Mof_H 	H 	0.379	0	0.5	0.818
Mof_H 	H 	0.3996	0	0.5	-0.635
Mof_H 	H 	0.621	0	0.5	0.743
_end
