data_functionalizedCrystal
_audit_creation_method	'EQeq! by Chris Wilmer'
_symmetry_space_group_name_H-M	'P1'
_symmetry_Int_Tables_number	1
_symmetry_cell_setting	triclinic
loop_
_symmetry_equiv_pos_as_xyz
  x,y,z
_cell_length_a	9.869
_cell_length_b	11.082
_cell_length_c	19.785
_cell_angle_alpha	90
_cell_angle_beta	90
_cell_angle_gamma	111.059
loop_
_atom_site_label
_atom_site_type_symbol
_atom_site_fract_x
_atom_site_fract_y
_atom_site_fract_z
_atom_site_charge
Mof_Zn	Zn	0.33681	0.36681	0.18471	1.187
Mof_Zn	Zn	0.16319	0.13319	0.68471	1.186
Mof_Zn	Zn	0.66319	0.63319	0.81529	1.188
Mof_Zn	Zn	0.83681	0.86681	0.31529	1.187
Mof_H 	H 	0.1923	0.5358	0.3541	0.06
Mof_H 	H 	0.8646	0.1794	0.4634	0.069
Mof_H 	H 	0.1662	0.6791	0.4452	0.066
Mof_H 	H 	0.0638	0.1272	0.1825	0.003
Mof_H 	H 	0.9213	0.9792	0.1074	0.079
Mof_H 	H 	0.215	0.1401	0.9645	0.084
Mof_H 	H 	0.3549	0.2779	0.0448	-0.014
Mof_H 	H 	0.3077	0.9642	0.8541	0.064
Mof_H 	H 	0.6354	0.3206	0.9634	0.068
Mof_H 	H 	0.3338	0.8209	0.9452	0.065
Mof_H 	H 	0.4362	0.3728	0.6825	0.003
Mof_H 	H 	0.5787	0.5208	0.6074	0.082
Mof_H 	H 	0.285	0.3599	0.4645	0.086
Mof_H 	H 	0.1451	0.2221	0.5448	-0.016
Mof_H 	H 	0.8077	0.4642	0.6459	0.06
Mof_H 	H 	0.1354	0.8206	0.5366	0.069
Mof_H 	H 	0.8338	0.3209	0.5548	0.066
Mof_H 	H 	0.9362	0.8728	0.8175	0.003
Mof_H 	H 	0.0787	0.0208	0.8926	0.079
Mof_H 	H 	0.785	0.8599	0.0355	0.084
Mof_H 	H 	0.6451	0.7221	0.9552	-0.014
Mof_H 	H 	0.6923	0.0358	0.1459	0.064
Mof_H 	H 	0.3646	0.6794	0.0366	0.068
Mof_H 	H 	0.6662	0.1791	0.0548	0.065
Mof_H 	H 	0.5638	0.6272	0.3175	0.003
Mof_H 	H 	0.4213	0.4792	0.3926	0.082
Mof_H 	H 	0.715	0.6401	0.5355	0.086
Mof_H 	H 	0.8549	0.7779	0.4552	-0.016
Mof_C 	C 	0.1777	0.3355	0.28702	0.3
Mof_C 	C 	0.0958	0.3453	0.34945	-0.035
Mof_C 	C 	0.1274	0.4648	0.37658	-0.07
Mof_C 	C 	0.0643	0.4852	0.43854	0.032
Mof_C 	C 	0.9632	0.3756	0.47201	0.035
Mof_C 	C 	0.9304	0.2514	0.44199	-0.071
Mof_C 	C 	0.9925	0.2349	0.38302	-0.027
Mof_C 	C 	0.1	0.6078	0.46692	-0.111
Mof_C 	C 	0.9452	0.1036	0.35104	0.289
Mof_C 	C 	0.0953	0.1295	0.13803	0.076
Mof_C 	C 	0.0078	0.0414	0.09267	-0.136
Mof_C 	C 	0.0472	0.0445	0.02567	0.06
Mof_C 	C 	0.1813	0.1352	0.00863	-0.134
Mof_C 	C 	0.2648	0.2184	0.05734	0.081
Mof_C 	C 	0.3223	0.1645	0.78702	0.298
Mof_C 	C 	0.4042	0.1547	0.84945	-0.03
Mof_C 	C 	0.3726	0.0352	0.87658	-0.078
Mof_C 	C 	0.4357	0.0148	0.93854	0.033
Mof_C 	C 	0.5368	0.1244	0.97201	0.032
Mof_C 	C 	0.5696	0.2486	0.94199	-0.068
Mof_C 	C 	0.5075	0.2651	0.88302	-0.031
Mof_C 	C 	0.4	0.8922	0.96692	-0.107
Mof_C 	C 	0.5548	0.3964	0.85104	0.29
Mof_C 	C 	0.4047	0.3705	0.63803	0.078
Mof_C 	C 	0.4922	0.4586	0.59267	-0.139
Mof_C 	C 	0.4528	0.4555	0.52567	0.061
Mof_C 	C 	0.3187	0.3648	0.50863	-0.138
Mof_C 	C 	0.2352	0.2816	0.55734	0.083
Mof_C 	C 	0.8223	0.6645	0.71298	0.3
Mof_C 	C 	0.9042	0.6547	0.65055	-0.035
Mof_C 	C 	0.8726	0.5352	0.62342	-0.07
Mof_C 	C 	0.9357	0.5148	0.56146	0.032
Mof_C 	C 	0.0368	0.6244	0.52799	0.035
Mof_C 	C 	0.0696	0.7486	0.55801	-0.071
Mof_C 	C 	0.0075	0.7651	0.61698	-0.027
Mof_C 	C 	0.9	0.3922	0.53308	-0.111
Mof_C 	C 	0.0548	0.8964	0.64896	0.289
Mof_C 	C 	0.9047	0.8705	0.86197	0.076
Mof_C 	C 	0.9922	0.9586	0.90733	-0.136
Mof_C 	C 	0.9528	0.9555	0.97433	0.06
Mof_C 	C 	0.8187	0.8648	0.99137	-0.134
Mof_C 	C 	0.7352	0.7816	0.94266	0.081
Mof_C 	C 	0.6777	0.8355	0.21298	0.298
Mof_C 	C 	0.5958	0.8453	0.15055	-0.03
Mof_C 	C 	0.6274	0.9648	0.12342	-0.078
Mof_C 	C 	0.5643	0.9852	0.06146	0.033
Mof_C 	C 	0.4632	0.8756	0.02799	0.032
Mof_C 	C 	0.4304	0.7514	0.05801	-0.068
Mof_C 	C 	0.4925	0.7349	0.11698	-0.031
Mof_C 	C 	0.6	0.1078	0.03308	-0.107
Mof_C 	C 	0.4452	0.6036	0.14896	0.29
Mof_C 	C 	0.5953	0.6295	0.36197	0.078
Mof_C 	C 	0.5078	0.5414	0.40733	-0.139
Mof_C 	C 	0.5472	0.5445	0.47433	0.061
Mof_C 	C 	0.6813	0.6352	0.49137	-0.138
Mof_C 	C 	0.7648	0.7184	0.44266	0.083
Mof_N 	N 	0.2224	0.2174	0.12125	-0.269
Mof_N 	N 	0.2776	0.2826	0.62125	-0.27
Mof_N 	N 	0.7776	0.7826	0.87875	-0.269
Mof_N 	N 	0.7224	0.7174	0.37875	-0.27
Mof_O 	O 	0.1574	0.3895	0.2338	-0.392
Mof_O 	O 	0.2708	0.2843	0.29069	-0.389
Mof_O 	O 	0.9596	0.0936	0.28896	-0.349
Mof_O 	O 	0.8859	0.0057	0.38875	-0.421
Mof_O 	O 	0.3426	0.1105	0.7338	-0.392
Mof_O 	O 	0.2292	0.2157	0.79069	-0.389
Mof_O 	O 	0.5404	0.4064	0.78896	-0.352
Mof_O 	O 	0.6141	0.4943	0.88875	-0.423
Mof_O 	O 	0.8426	0.6105	0.7662	-0.392
Mof_O 	O 	0.7292	0.7157	0.70931	-0.389
Mof_O 	O 	0.0404	0.9064	0.71104	-0.349
Mof_O 	O 	0.1141	0.9943	0.61125	-0.421
Mof_O 	O 	0.6574	0.8895	0.2662	-0.392
Mof_O 	O 	0.7708	0.7843	0.20931	-0.389
Mof_O 	O 	0.4596	0.5936	0.21104	-0.352
Mof_O 	O 	0.3859	0.5057	0.11125	-0.423
_end
