data_functionalizedCrystal
_audit_creation_method	'EQeq! by Chris Wilmer'
_symmetry_space_group_name_H-M	'P1'
_symmetry_Int_Tables_number	1
_symmetry_cell_setting	triclinic
loop_
_symmetry_equiv_pos_as_xyz
  x,y,z
_cell_length_a	18.0913
_cell_length_b	16.9739
_cell_length_c	10.364
_cell_angle_alpha	90
_cell_angle_beta	90
_cell_angle_gamma	90
loop_
_atom_site_label
_atom_site_type_symbol
_atom_site_fract_x
_atom_site_fract_y
_atom_site_fract_z
_atom_site_charge
Mof_Ga	Ga	0.20363	0.23771	0.08534	4.545
Mof_Ga	Ga	0.3991	0.20742	0.11145	4.214
Mof_Ga	Ga	0.21336	0.41437	0.91233	4.421
Mof_P 	P 	0.32287	0.28415	0.88117	1.031
Mof_P 	P 	0.28283	0.06986	0.10519	1.151
Mof_P 	P 	0.07615	0.2969	0.8997	1.012
Mof_F 	F 	0.29857	0.24615	0.1694	-1.469
Mof_F 	F 	0.21007	0.35507	0.0811	-1.437
Mof_O 	O 	0.25601	0.23673	0.9234	-1.163
Mof_O 	O 	0.21579	0.12353	0.0884	-1.146
Mof_O 	O 	0.10798	0.24263	0.0035	-1.195
Mof_O 	O 	0.34728	0.25706	0.7468	-1.072
Mof_O 	O 	0.3908	0.27281	0.9695	-1.055
Mof_O 	O 	0.30542	0.37299	0.8812	-1.179
Mof_O 	O 	0.3579	0.11033	0.0813	-1.46
Mof_O 	O 	0.07649	0.25175	0.7716	-1.24
Mof_O 	O 	0.9975	0.32193	0.9359	-1.154
Mof_O 	O 	0.28386	0.03197	0.24	-1.052
Mof_O 	O 	0.27539	0.00628	0.0009	-1.479
Mof_O 	O 	0.12012	0.37451	0.8819	-1.498
Mof_O 	O 	0.4083	0.9222	0.249	-0.511
Mof_Ga	Ga	0.29637	0.26229	0.58534	4.712
Mof_Ga	Ga	0.1009	0.29258	0.61145	4.32
Mof_Ga	Ga	0.28664	0.08563	0.41233	3.727
Mof_P 	P 	0.17713	0.21585	0.38117	1.018
Mof_P 	P 	0.21717	0.43014	0.60519	1.134
Mof_P 	P 	0.42385	0.2031	0.3997	1.069
Mof_F 	F 	0.20143	0.25385	0.6694	-1.502
Mof_F 	F 	0.28993	0.14493	0.5811	-1.385
Mof_O 	O 	0.24399	0.26327	0.4234	-1.211
Mof_O 	O 	0.28421	0.37647	0.5884	-1.115
Mof_O 	O 	0.39202	0.25737	0.5035	-1.112
Mof_O 	O 	0.15272	0.24294	0.2468	-1.076
Mof_O 	O 	0.1092	0.22719	0.4695	-1.178
Mof_O 	O 	0.19458	0.12701	0.3812	-1.128
Mof_O 	O 	0.1421	0.38967	0.5813	-1.469
Mof_O 	O 	0.42351	0.24825	0.2716	-1.168
Mof_O 	O 	0.5025	0.17807	0.4359	-1.358
Mof_O 	O 	0.21614	0.46803	0.74	-1.048
Mof_O 	O 	0.22461	0.49372	0.5009	-1.186
Mof_O 	O 	0.37988	0.12549	0.3819	-1.429
Mof_O 	O 	0.0917	0.5778	0.749	-0.611
Mof_Ga	Ga	0.79637	0.23771	0.41466	4.727
Mof_Ga	Ga	0.6009	0.20742	0.38855	4.345
Mof_Ga	Ga	0.78664	0.41437	0.58767	4.162
Mof_P 	P 	0.67713	0.28415	0.61883	1.036
Mof_P 	P 	0.71717	0.06986	0.39481	1.144
Mof_P 	P 	0.92385	0.2969	0.6003	1.24
Mof_F 	F 	0.70143	0.24615	0.3306	-1.494
Mof_F 	F 	0.78993	0.35507	0.4189	-1.4
Mof_O 	O 	0.74399	0.23673	0.5766	-1.235
Mof_O 	O 	0.78421	0.12353	0.4116	-1.121
Mof_O 	O 	0.89202	0.24263	0.4965	-1.107
Mof_O 	O 	0.65272	0.25706	0.7532	-1.095
Mof_O 	O 	0.6092	0.27281	0.5305	-1.131
Mof_O 	O 	0.69458	0.37299	0.6188	-1.159
Mof_O 	O 	0.6421	0.11033	0.4187	-1.489
Mof_O 	O 	0.92351	0.25175	0.7284	-1.204
Mof_O 	O 	0.0025	0.32193	0.5641	-1.507
Mof_O 	O 	0.71614	0.03197	0.26	-1.02
Mof_O 	O 	0.72461	0.00628	0.4991	-1.375
Mof_O 	O 	0.87988	0.37451	0.6181	-1.468
Mof_O 	O 	0.5917	0.9222	0.251	-0.514
Mof_Ga	Ga	0.70363	0.26229	0.91466	4.846
Mof_Ga	Ga	0.8991	0.29258	0.88855	4.608
Mof_Ga	Ga	0.71336	0.08563	0.08767	3.538
Mof_P 	P 	0.82287	0.21585	0.11883	1.03
Mof_P 	P 	0.78283	0.43014	0.89481	1.136
Mof_P 	P 	0.57615	0.2031	0.1003	1.007
Mof_F 	F 	0.79857	0.25385	0.8306	-1.531
Mof_F 	F 	0.71007	0.14493	0.9189	-1.341
Mof_O 	O 	0.75601	0.26327	0.0766	-1.277
Mof_O 	O 	0.71579	0.37647	0.9116	-1.117
Mof_O 	O 	0.60798	0.25737	0.9965	-1.064
Mof_O 	O 	0.84728	0.24294	0.2532	-1.058
Mof_O 	O 	0.8908	0.22719	0.0305	-1.198
Mof_O 	O 	0.80542	0.12701	0.1188	-1.08
Mof_O 	O 	0.8579	0.38967	0.9187	-1.436
Mof_O 	O 	0.57649	0.24825	0.2284	-1.186
Mof_O 	O 	0.4975	0.17807	0.0641	-1.325
Mof_O 	O 	0.78386	0.46803	0.76	-1.01
Mof_O 	O 	0.77539	0.49372	0.9991	-1.092
Mof_O 	O 	0.62012	0.12549	0.1181	-1.385
Mof_O 	O 	0.9083	0.5778	0.751	-0.484
Mof_Ga	Ga	0.79637	0.76229	0.91466	4.861
Mof_Ga	Ga	0.6009	0.79258	0.88855	4.587
Mof_Ga	Ga	0.78664	0.58563	0.08767	3.96
Mof_P 	P 	0.67713	0.71585	0.11883	1.039
Mof_P 	P 	0.71717	0.93014	0.89481	1.119
Mof_P 	P 	0.92385	0.7031	0.1003	1.178
Mof_F 	F 	0.70143	0.75385	0.8306	-1.533
Mof_F 	F 	0.78993	0.64493	0.9189	-1.36
Mof_O 	O 	0.74399	0.76327	0.0766	-1.28
Mof_O 	O 	0.78421	0.87647	0.9116	-1.083
Mof_O 	O 	0.89202	0.75737	0.9965	-1.04
Mof_O 	O 	0.65272	0.74294	0.2532	-1.075
Mof_O 	O 	0.6092	0.72719	0.0305	-1.217
Mof_O 	O 	0.69458	0.62701	0.1188	-1.145
Mof_O 	O 	0.6421	0.88967	0.9187	-1.43
Mof_O 	O 	0.92351	0.74825	0.2284	-1.152
Mof_O 	O 	0.0025	0.67807	0.0641	-1.47
Mof_O 	O 	0.71614	0.96803	0.76	-0.98
Mof_O 	O 	0.72461	0.99372	0.9991	-0.897
Mof_O 	O 	0.87988	0.62549	0.1181	-1.414
Mof_O 	O 	0.5917	0.0778	0.751	-0.634
Mof_Ga	Ga	0.70363	0.73771	0.41466	4.724
Mof_Ga	Ga	0.8991	0.70742	0.38855	4.442
Mof_Ga	Ga	0.71336	0.91437	0.58767	4.532
Mof_P 	P 	0.82287	0.78415	0.61883	1.046
Mof_P 	P 	0.78283	0.56986	0.39481	1.133
Mof_P 	P 	0.57615	0.7969	0.6003	1.109
Mof_F 	F 	0.79857	0.74615	0.3306	-1.5
Mof_F 	F 	0.71007	0.85507	0.4189	-1.409
Mof_O 	O 	0.75601	0.73673	0.5766	-1.24
Mof_O 	O 	0.71579	0.62353	0.4116	-1.118
Mof_O 	O 	0.60798	0.74263	0.4965	-1.126
Mof_O 	O 	0.84728	0.75706	0.7532	-1.064
Mof_O 	O 	0.8908	0.77281	0.5305	-1.093
Mof_O 	O 	0.80542	0.87299	0.6188	-1.172
Mof_O 	O 	0.8579	0.61033	0.4187	-1.454
Mof_O 	O 	0.57649	0.75175	0.7284	-1.231
Mof_O 	O 	0.4975	0.82193	0.5641	-1.34
Mof_O 	O 	0.78386	0.53197	0.26	-0.996
Mof_O 	O 	0.77539	0.50628	0.4991	-1.186
Mof_O 	O 	0.62012	0.87451	0.6181	-1.53
Mof_O 	O 	0.9083	0.4222	0.251	-0.512
Mof_Ga	Ga	0.20363	0.76229	0.58534	4.707
Mof_Ga	Ga	0.3991	0.79258	0.61145	4.406
Mof_Ga	Ga	0.21336	0.58563	0.41233	4.111
Mof_P 	P 	0.32287	0.71585	0.38117	1.03
Mof_P 	P 	0.28283	0.93014	0.60519	1.122
Mof_P 	P 	0.07615	0.7031	0.3997	0.939
Mof_F 	F 	0.29857	0.75385	0.6694	-1.507
Mof_F 	F 	0.21007	0.64493	0.5811	-1.394
Mof_O 	O 	0.25601	0.76327	0.4234	-1.216
Mof_O 	O 	0.21579	0.87647	0.5884	-1.11
Mof_O 	O 	0.10798	0.75737	0.5035	-1.129
Mof_O 	O 	0.34728	0.74294	0.2468	-1.05
Mof_O 	O 	0.3908	0.72719	0.4695	-1.14
Mof_O 	O 	0.30542	0.62701	0.3812	-1.145
Mof_O 	O 	0.3579	0.88967	0.5813	-1.448
Mof_O 	O 	0.07649	0.74825	0.2716	-1.199
Mof_O 	O 	0.9975	0.67807	0.4359	-1.173
Mof_O 	O 	0.28386	0.96803	0.74	-1.024
Mof_O 	O 	0.27539	0.99372	0.5009	-0.999
Mof_O 	O 	0.12012	0.62549	0.3819	-1.478
Mof_O 	O 	0.4083	0.0778	0.749	-0.632
Mof_Ga	Ga	0.29637	0.73771	0.08534	4.584
Mof_Ga	Ga	0.1009	0.70742	0.11145	4.225
Mof_Ga	Ga	0.28664	0.91437	0.91233	4.809
Mof_P 	P 	0.17713	0.78415	0.88117	1.04
Mof_P 	P 	0.21717	0.56986	0.10519	1.137
Mof_P 	P 	0.42385	0.7969	0.8997	1.167
Mof_F 	F 	0.20143	0.74615	0.1694	-1.477
Mof_F 	F 	0.28993	0.85507	0.0811	-1.449
Mof_O 	O 	0.24399	0.73673	0.9234	-1.177
Mof_O 	O 	0.28421	0.62353	0.0884	-1.113
Mof_O 	O 	0.39202	0.74263	0.0035	-1.164
Mof_O 	O 	0.15272	0.75706	0.7468	-1.088
Mof_O 	O 	0.1092	0.77281	0.9695	-1.085
Mof_O 	O 	0.19458	0.87299	0.8812	-1.24
Mof_O 	O 	0.1421	0.61033	0.0813	-1.445
Mof_O 	O 	0.42351	0.75175	0.7716	-1.205
Mof_O 	O 	0.5025	0.82193	0.9359	-1.312
Mof_O 	O 	0.21614	0.53197	0.24	-1.019
Mof_O 	O 	0.22461	0.50628	0.0009	-1.281
Mof_O 	O 	0.37988	0.87451	0.8819	-1.537
Mof_O 	O 	0.0917	0.4222	0.249	-0.638
Mof_Cs	Cs	0.5	0	0.5	3.157
Mof_Cs	Cs	-0	0.5	-0	2.537
Mof_Cs	Cs	0.5	0	-0	2.625
Mof_Cs	Cs	3.05691e-33	0.5	0.5	3.045
_end
