data_functionalizedCrystal
_audit_creation_method	'EQeq! by Chris Wilmer'
_symmetry_space_group_name_H-M	'P1'
_symmetry_Int_Tables_number	1
_symmetry_cell_setting	triclinic
loop_
_symmetry_equiv_pos_as_xyz
  x,y,z
_cell_length_a	15.321
_cell_length_b	15.321
_cell_length_c	15.321
_cell_angle_alpha	105.197
_cell_angle_beta	105.197
_cell_angle_gamma	105.197
loop_
_atom_site_label
_atom_site_type_symbol
_atom_site_fract_x
_atom_site_fract_y
_atom_site_fract_z
_atom_site_charge
Mof_Ni	Ni	0.20899	0.42544	0.87317	1.09
Mof_Ni	Ni	0.07456	0.29101	0.62683	1.09
Mof_Ni	Ni	0.87317	0.20899	0.42544	1.09
Mof_Ni	Ni	0.79101	0.57456	0.12683	1.09
Mof_Ni	Ni	0.92544	0.70899	0.37317	1.09
Mof_Ni	Ni	0.57456	0.12683	0.79101	1.09
Mof_Ni	Ni	0.12683	0.79101	0.57456	1.09
Mof_Ni	Ni	0.70899	0.37317	0.92544	1.09
Mof_Ni	Ni	0.29101	0.62683	0.07456	1.09
Mof_Ni	Ni	0.37317	0.92544	0.70899	1.09
Mof_Ni	Ni	0.42544	0.87317	0.20899	1.09
Mof_Ni	Ni	0.62683	0.07456	0.29101	1.09
Mof_H 	H 	0.1701	0.1402	0.5475	0.052
Mof_H 	H 	0.0491	0.0794	0.7958	0.145
Mof_H 	H 	0.7958	0.0491	0.0794	0.145
Mof_H 	H 	0.8746	0.1301	0.8442	0.153
Mof_H 	H 	0.1558	0.1254	0.8699	0.153
Mof_H 	H 	0.5794	0.5491	0.2958	0.145
Mof_H 	H 	0.5475	0.1701	0.1402	0.052
Mof_H 	H 	0.3699	0.6254	0.6558	0.153
Mof_H 	H 	0.3299	0.9525	0.3598	0.052
Mof_H 	H 	0.6254	0.6558	0.3699	0.153
Mof_H 	H 	0.4206	0.4509	0.7042	0.145
Mof_H 	H 	0.0475	0.6402	0.6701	0.052
Mof_H 	H 	0.8699	0.1558	0.1254	0.153
Mof_H 	H 	0.8598	0.4525	0.8299	0.052
Mof_H 	H 	0.1254	0.8699	0.1558	0.153
Mof_H 	H 	0.3598	0.3299	0.9525	0.052
Mof_H 	H 	0.9206	0.2042	0.9509	0.145
Mof_H 	H 	0.3746	0.3442	0.6301	0.153
Mof_H 	H 	0.9509	0.9206	0.2042	0.145
Mof_H 	H 	0.5491	0.2958	0.5794	0.145
Mof_H 	H 	0.6558	0.3699	0.6254	0.153
Mof_H 	H 	0.2958	0.5794	0.5491	0.145
Mof_H 	H 	0.0794	0.7958	0.0491	0.145
Mof_H 	H 	0.6301	0.3746	0.3442	0.153
Mof_H 	H 	0.4525	0.8299	0.8598	0.052
Mof_H 	H 	0.4509	0.7042	0.4206	0.145
Mof_H 	H 	0.6402	0.6701	0.0475	0.052
Mof_H 	H 	0.3442	0.6301	0.3746	0.153
Mof_H 	H 	0.7042	0.4206	0.4509	0.145
Mof_H 	H 	0.1301	0.8442	0.8746	0.153
Mof_H 	H 	0.2042	0.9509	0.9206	0.145
Mof_H 	H 	0.8299	0.8598	0.4525	0.052
Mof_H 	H 	0.9525	0.3598	0.3299	0.052
Mof_H 	H 	0.8442	0.8746	0.1301	0.153
Mof_H 	H 	0.1402	0.5475	0.1701	0.052
Mof_H 	H 	0.6701	0.0475	0.6402	0.052
Mof_C 	C 	0.87361	0.79357	0.21601	0.46
Mof_C 	C 	0.95862	0.62602	0.0438	0.047
Mof_C 	C 	0.12639	0.20643	0.78399	0.46
Mof_C 	C 	0.10778	0.11908	0.50272	0.023
Mof_C 	C 	0.45862	0.5438	0.12602	0.046
Mof_C 	C 	0.38912	0.38416	0.69649	-0.366
Mof_C 	C 	0.80351	0.11584	0.11088	-0.366
Mof_C 	C 	0.29357	0.37361	0.71601	0.46
Mof_C 	C 	0.11908	0.50272	0.10778	0.023
Mof_C 	C 	0.79357	0.21601	0.87361	0.46
Mof_C 	C 	0.11088	0.80351	0.11584	-0.366
Mof_C 	C 	0.50272	0.10778	0.11908	0.023
Mof_C 	C 	0.49728	0.89222	0.88092	0.023
Mof_C 	C 	0.60778	0.00272	0.61908	0.023
Mof_C 	C 	0.12602	0.45862	0.5438	0.046
Mof_C 	C 	0.88092	0.49728	0.89222	0.023
Mof_C 	C 	0.30351	0.61088	0.61584	-0.366
Mof_C 	C 	0.89222	0.88092	0.49728	0.023
Mof_C 	C 	0.88912	0.19649	0.88416	-0.366
Mof_C 	C 	0.11584	0.11088	0.80351	-0.366
Mof_C 	C 	0.00272	0.61908	0.60778	0.023
Mof_C 	C 	0.69649	0.38912	0.38416	-0.366
Mof_C 	C 	0.61088	0.61584	0.30351	-0.366
Mof_C 	C 	0.61908	0.60778	0.00272	0.023
Mof_C 	C 	0.21601	0.87361	0.79357	0.46
Mof_C 	C 	0.62602	0.0438	0.95862	0.047
Mof_C 	C 	0.87398	0.54138	0.4562	0.046
Mof_C 	C 	0.62639	0.28399	0.70643	0.46
Mof_C 	C 	0.71601	0.29357	0.37361	0.46
Mof_C 	C 	0.5438	0.12602	0.45862	0.046
Mof_C 	C 	0.38092	0.39222	0.99728	0.023
Mof_C 	C 	0.4562	0.87398	0.54138	0.046
Mof_C 	C 	0.19649	0.88416	0.88912	-0.366
Mof_C 	C 	0.70643	0.62639	0.28399	0.46
Mof_C 	C 	0.0438	0.95862	0.62602	0.047
Mof_C 	C 	0.04138	0.37398	0.9562	0.047
Mof_C 	C 	0.78399	0.12639	0.20643	0.46
Mof_C 	C 	0.39222	0.99728	0.38092	0.023
Mof_C 	C 	0.37398	0.9562	0.04138	0.047
Mof_C 	C 	0.38416	0.69649	0.38912	-0.366
Mof_C 	C 	0.37361	0.71601	0.29357	0.46
Mof_C 	C 	0.61584	0.30351	0.61088	-0.366
Mof_C 	C 	0.99728	0.38092	0.39222	0.023
Mof_C 	C 	0.88416	0.88912	0.19649	-0.366
Mof_C 	C 	0.20643	0.78399	0.12639	0.46
Mof_C 	C 	0.54138	0.4562	0.87398	0.046
Mof_C 	C 	0.9562	0.04138	0.37398	0.047
Mof_C 	C 	0.28399	0.70643	0.62639	0.46
Mof_S 	S 	0.98912	0.5918	0.94213	0.019
Mof_S 	S 	0.15073	0.02951	0.72297	0.056
Mof_S 	S 	0.72297	0.15073	0.02951	0.056
Mof_S 	S 	0.52951	0.65073	0.22297	0.056
Mof_S 	S 	0.34927	0.77703	0.47049	0.056
Mof_S 	S 	0.0918	0.48912	0.44213	0.019
Mof_S 	S 	0.77703	0.47049	0.34927	0.056
Mof_S 	S 	0.51088	0.55787	0.9082	0.019
Mof_S 	S 	0.84927	0.97049	0.27703	0.056
Mof_S 	S 	0.4082	0.05787	0.01088	0.019
Mof_S 	S 	0.02951	0.72297	0.15073	0.056
Mof_S 	S 	0.9082	0.51088	0.55787	0.019
Mof_S 	S 	0.22297	0.52951	0.65073	0.056
Mof_S 	S 	0.55787	0.9082	0.51088	0.019
Mof_S 	S 	0.48912	0.44213	0.0918	0.019
Mof_S 	S 	0.44213	0.0918	0.48912	0.019
Mof_S 	S 	0.65073	0.22297	0.52951	0.056
Mof_S 	S 	0.05787	0.01088	0.4082	0.019
Mof_S 	S 	0.5918	0.94213	0.98912	0.019
Mof_S 	S 	0.47049	0.34927	0.77703	0.056
Mof_S 	S 	0.94213	0.98912	0.5918	0.019
Mof_S 	S 	0.27703	0.84927	0.97049	0.056
Mof_S 	S 	0.97049	0.27703	0.84927	0.056
Mof_S 	S 	0.01088	0.4082	0.05787	0.019
Mof_N 	N 	0.5254	0.7577	0.0291	-0.043
Mof_N 	N 	0.09751	0.40249	0.75	-0.283
Mof_N 	N 	0.7048	0.3768	0.1148	-0.031
Mof_N 	N 	0.99297	0.3307	0.44822	-0.177
Mof_N 	N 	0.54855	0.25	0.95145	-0.035
Mof_N 	N 	0.8768	0.2048	0.6148	-0.031
Mof_N 	N 	0.87544	0.5688	0.03666	-0.189
Mof_N 	N 	0.6693	0.55178	0.00703	-0.177
Mof_N 	N 	0.6519	0.8322	0.1646	-0.059
Mof_N 	N 	0.55178	0.00703	0.6693	-0.177
Mof_N 	N 	0.37544	0.53666	0.0688	-0.189
Mof_N 	N 	0.00703	0.6693	0.55178	-0.177
Mof_N 	N 	0.75	0.04855	0.45145	-0.035
Mof_N 	N 	0.4312	0.96334	0.12456	-0.189
Mof_N 	N 	0.2952	0.6232	0.8852	-0.031
Mof_N 	N 	0.50703	0.05178	0.1693	-0.177
Mof_N 	N 	0.3307	0.44822	0.99297	-0.177
Mof_N 	N 	0.42333	0.07667	0.75	-0.254
Mof_N 	N 	0.3322	0.1519	0.6646	-0.059
Mof_N 	N 	0.8481	0.3354	0.6678	-0.059
Mof_N 	N 	0.44822	0.99297	0.3307	-0.177
Mof_N 	N 	0.95145	0.54855	0.25	-0.035
Mof_N 	N 	0.1646	0.6519	0.8322	-0.059
Mof_N 	N 	0.2048	0.6148	0.8768	-0.031
Mof_N 	N 	0.07667	0.75	0.42333	-0.254
Mof_N 	N 	0.8354	0.3481	0.1678	-0.059
Mof_N 	N 	0.59751	0.25	0.90249	-0.283
Mof_N 	N 	0.62456	0.46334	0.9312	-0.189
Mof_N 	N 	0.03666	0.87544	0.5688	-0.189
Mof_N 	N 	0.25	0.57667	0.92333	-0.254
Mof_N 	N 	0.12456	0.4312	0.96334	-0.189
Mof_N 	N 	0.25	0.90249	0.59751	-0.283
Mof_N 	N 	0.0688	0.37544	0.53666	-0.189
Mof_N 	N 	0.7577	0.0291	0.5254	-0.043
Mof_N 	N 	0.8322	0.1646	0.6519	-0.059
Mof_N 	N 	0.49297	0.94822	0.8307	-0.177
Mof_N 	N 	0.92333	0.25	0.57667	-0.254
Mof_N 	N 	0.3852	0.1232	0.7952	-0.031
Mof_N 	N 	0.8852	0.2952	0.6232	-0.031
Mof_N 	N 	0.94822	0.8307	0.49297	-0.177
Mof_N 	N 	0.75	0.09751	0.40249	-0.283
Mof_N 	N 	0.6678	0.8481	0.3354	-0.059
Mof_N 	N 	0.9709	0.4746	0.2423	-0.043
Mof_N 	N 	0.1678	0.8354	0.3481	-0.059
Mof_N 	N 	0.7423	0.9746	0.4709	-0.044
Mof_N 	N 	0.6646	0.3322	0.1519	-0.059
Mof_N 	N 	0.1232	0.7952	0.3852	-0.031
Mof_N 	N 	0.8307	0.49297	0.94822	-0.177
Mof_N 	N 	0.05178	0.1693	0.50703	-0.177
Mof_N 	N 	0.75	0.42333	0.07667	-0.254
Mof_N 	N 	0.53666	0.0688	0.37544	-0.189
Mof_N 	N 	0.4746	0.2423	0.9709	-0.043
Mof_N 	N 	0.3768	0.1148	0.7048	-0.031
Mof_N 	N 	0.1148	0.7048	0.3768	-0.031
Mof_N 	N 	0.0291	0.5254	0.7577	-0.043
Mof_N 	N 	0.25	0.95145	0.54855	-0.035
Mof_N 	N 	0.9312	0.62456	0.46334	-0.189
Mof_N 	N 	0.5688	0.03666	0.87544	-0.189
Mof_N 	N 	0.45145	0.75	0.04855	-0.035
Mof_N 	N 	0.1693	0.50703	0.05178	-0.177
Mof_N 	N 	0.0254	0.5291	0.2577	-0.044
Mof_N 	N 	0.96334	0.12456	0.4312	-0.189
Mof_N 	N 	0.7952	0.3852	0.1232	-0.031
Mof_N 	N 	0.6148	0.8768	0.2048	-0.031
Mof_N 	N 	0.6232	0.8852	0.2952	-0.031
Mof_N 	N 	0.3481	0.1678	0.8354	-0.059
Mof_N 	N 	0.04855	0.45145	0.75	-0.035
Mof_N 	N 	0.90249	0.59751	0.25	-0.283
Mof_N 	N 	0.40249	0.75	0.09751	-0.283
Mof_N 	N 	0.57667	0.92333	0.25	-0.254
Mof_N 	N 	0.4709	0.7423	0.9746	-0.044
Mof_N 	N 	0.9746	0.4709	0.7423	-0.044
Mof_N 	N 	0.3354	0.6678	0.8481	-0.059
Mof_N 	N 	0.1519	0.6646	0.3322	-0.059
Mof_N 	N 	0.46334	0.9312	0.62456	-0.189
Mof_N 	N 	0.2423	0.9709	0.4746	-0.043
Mof_N 	N 	0.5291	0.2577	0.0254	-0.044
Mof_N 	N 	0.2577	0.0254	0.5291	-0.044
Mof_O 	O 	0.85488	0.17948	0.28252	-0.45
Mof_O 	O 	0.78252	0.67948	0.35488	-0.45
Mof_O 	O 	0.80237	0.29977	0.91995	-0.443
Mof_O 	O 	0.21748	0.32052	0.64512	-0.45
Mof_O 	O 	0.20023	0.69763	0.58005	-0.443
Mof_O 	O 	0.17948	0.28252	0.85488	-0.45
Mof_O 	O 	0.28252	0.85488	0.17948	-0.45
Mof_O 	O 	0.08005	0.19763	0.70023	-0.443
Mof_O 	O 	0.82052	0.71748	0.14512	-0.45
Mof_O 	O 	0.41995	0.79977	0.30237	-0.443
Mof_O 	O 	0.29977	0.91995	0.80237	-0.443
Mof_O 	O 	0.35488	0.78252	0.67948	-0.45
Mof_O 	O 	0.30237	0.41995	0.79977	-0.443
Mof_O 	O 	0.71748	0.14512	0.82052	-0.45
Mof_O 	O 	0.69763	0.58005	0.20023	-0.443
Mof_O 	O 	0.32052	0.64512	0.21748	-0.45
Mof_O 	O 	0.58005	0.20023	0.69763	-0.443
Mof_O 	O 	0.67948	0.35488	0.78252	-0.45
Mof_O 	O 	0.79977	0.30237	0.41995	-0.443
Mof_O 	O 	0.70023	0.08005	0.19763	-0.443
Mof_O 	O 	0.14512	0.82052	0.71748	-0.45
Mof_O 	O 	0.64512	0.21748	0.32052	-0.45
Mof_O 	O 	0.91995	0.80237	0.29977	-0.443
Mof_O 	O 	0.19763	0.70023	0.08005	-0.443
_end
