data_functionalizedCrystal
_audit_creation_method	'EQeq! by Chris Wilmer'
_symmetry_space_group_name_H-M	'P1'
_symmetry_Int_Tables_number	1
_symmetry_cell_setting	triclinic
loop_
_symmetry_equiv_pos_as_xyz
  x,y,z
_cell_length_a	24.5907
_cell_length_b	17.8811
_cell_length_c	25.0765
_cell_angle_alpha	90
_cell_angle_beta	104.335
_cell_angle_gamma	90
loop_
_atom_site_label
_atom_site_type_symbol
_atom_site_fract_x
_atom_site_fract_y
_atom_site_fract_z
_atom_site_charge
Mof_Dy	Dy	0.40838	0.42356	0.74179	1.914
Mof_Dy	Dy	0.71556	0.80903	0.05628	1.872
Mof_C 	C 	0.52257	0.59365	0.86347	-0.19
Mof_C 	C 	0.51004	0.26961	0.86917	-0.163
Mof_C 	C 	0.74955	0.56417	0.08744	-0.144
Mof_C 	C 	0.57725	0.61812	0.88431	0.126
Mof_H 	H 	0.6062	0.5959	0.8721	-0.016
Mof_C 	C 	0.45774	0.26022	0.88029	0.061
Mof_H 	H 	0.4282	0.2918	0.8642	0.033
Mof_C 	C 	0.71212	0.57898	0.11952	0.05
Mof_H 	H 	0.6941	0.6251	0.117	0.022
Mof_C 	C 	0.5899	0.6759	0.92358	-0.192
Mof_C 	C 	0.44973	0.20332	0.91568	-0.091
Mof_C 	C 	0.70165	0.52458	0.15549	-0.094
Mof_C 	C 	0.54562	0.70859	0.94094	0.066
Mof_H 	H 	0.5529	0.7469	0.9668	0.028
Mof_C 	C 	0.49347	0.15587	0.93972	0.002
Mof_H 	H 	0.4878	0.1172	0.9626	0.05
Mof_C 	C 	0.72757	0.45543	0.15861	-0
Mof_H 	H 	0.7208	0.4193	0.1829	0.037
Mof_C 	C 	0.49068	0.68427	0.91972	-0.081
Mof_C 	C 	0.54585	0.16654	0.92935	-0.044
Mof_C 	C 	0.76373	0.44014	0.12532	-0.044
Mof_C 	C 	0.47884	0.6258	0.88176	0.064
Mof_H 	H 	0.4423	0.6085	0.8688	0.026
Mof_C 	C 	0.55441	0.22456	0.89444	0.037
Mof_H 	H 	0.5898	0.2325	0.8884	0.032
Mof_C 	C 	0.77504	0.49489	0.08993	0.019
Mof_H 	H 	0.7997	0.4848	0.068	0.048
Mof_C 	C 	0.50964	0.53066	0.82195	0.51
Mof_C 	C 	0.51672	0.32673	0.82717	0.513
Mof_C 	C 	0.76127	0.62203	0.04791	0.457
Mof_C 	C 	0.64897	0.70109	0.9473	0.503
Mof_C 	C 	0.39206	0.19212	0.92528	0.309
Mof_C 	C 	0.66035	0.53976	0.18969	0.31
Mof_C 	C 	0.44473	0.7196	0.93709	0.101
Mof_C 	C 	0.5919	0.11786	0.95337	0.094
Mof_C 	C 	0.78817	0.36642	0.12612	0.08
Mof_N 	N 	0.40804	0.7458	0.94993	-0.128
Mof_N 	N 	0.6286	0.07839	0.97152	-0.124
Mof_N 	N 	0.80734	0.30793	0.12586	-0.137
Mof_O 	O 	0.46009	0.50797	0.80864	-0.485
Mof_O 	O 	0.47219	0.34834	0.79458	-0.564
Mof_O 	O 	0.74535	0.68832	0.05169	-0.556
Mof_O 	O 	0.54977	0.50711	0.80409	-0.557
Mof_O 	O 	0.56502	0.34629	0.82569	-0.526
Mof_O 	O 	0.78588	0.60037	0.01216	-0.484
Mof_O 	O 	0.6873	0.6678	0.93224	-0.538
Mof_O 	O 	0.35412	0.23873	0.90356	-0.454
Mof_O 	O 	0.62665	0.59302	0.17561	-0.412
Mof_O 	O 	0.65447	0.75451	0.98026	-0.5
Mof_O 	O 	0.38353	0.13822	0.95436	-0.379
Mof_O 	O 	0.66177	0.49957	0.23152	-0.45
Mof_Dy	Dy	0.90838	0.92356	0.74179	1.911
Mof_Dy	Dy	0.21556	0.30903	0.05628	1.868
Mof_C 	C 	0.02257	0.09365	0.86347	-0.191
Mof_C 	C 	0.01004	0.76961	0.86917	-0.165
Mof_C 	C 	0.24955	0.06417	0.08744	-0.149
Mof_C 	C 	0.07725	0.11812	0.88431	0.124
Mof_H 	H 	0.1062	0.0959	0.8721	-0.017
Mof_C 	C 	0.95774	0.76022	0.88029	0.06
Mof_H 	H 	0.9282	0.7918	0.8642	0.033
Mof_C 	C 	0.21212	0.07898	0.11952	0.052
Mof_H 	H 	0.1941	0.1251	0.117	0.021
Mof_C 	C 	0.0899	0.1759	0.92358	-0.191
Mof_C 	C 	0.94973	0.70332	0.91568	-0.092
Mof_C 	C 	0.20165	0.02458	0.15549	-0.097
Mof_C 	C 	0.04562	0.20859	0.94094	0.066
Mof_H 	H 	0.0529	0.2469	0.9668	0.029
Mof_C 	C 	0.99347	0.65587	0.93972	0.002
Mof_H 	H 	0.9878	0.6172	0.9626	0.049
Mof_C 	C 	0.22757	0.95543	0.15861	0.004
Mof_H 	H 	0.2208	0.9193	0.1829	0.036
Mof_C 	C 	0.99068	0.18427	0.91972	-0.081
Mof_C 	C 	0.04585	0.66654	0.92935	-0.045
Mof_C 	C 	0.26373	0.94014	0.12532	-0.047
Mof_C 	C 	0.97884	0.1258	0.88176	0.063
Mof_H 	H 	0.9423	0.1085	0.8688	0.026
Mof_C 	C 	0.05441	0.72456	0.89444	0.037
Mof_H 	H 	0.0898	0.7325	0.8884	0.032
Mof_C 	C 	0.27504	0.99489	0.08993	0.024
Mof_H 	H 	0.2997	0.9848	0.068	0.047
Mof_C 	C 	0.00964	0.03066	0.82195	0.51
Mof_C 	C 	0.01672	0.82673	0.82717	0.513
Mof_C 	C 	0.26127	0.12203	0.04791	0.458
Mof_C 	C 	0.14897	0.20109	0.9473	0.502
Mof_C 	C 	0.89206	0.69212	0.92528	0.309
Mof_C 	C 	0.16035	0.03976	0.18969	0.31
Mof_C 	C 	0.94473	0.2196	0.93709	0.102
Mof_C 	C 	0.0919	0.61786	0.95337	0.093
Mof_C 	C 	0.28817	0.86642	0.12612	0.081
Mof_N 	N 	0.90804	0.2458	0.94993	-0.127
Mof_N 	N 	0.1286	0.57839	0.97152	-0.124
Mof_N 	N 	0.30734	0.80793	0.12586	-0.137
Mof_O 	O 	0.96009	0.00797	0.80864	-0.484
Mof_O 	O 	0.97219	0.84834	0.79458	-0.563
Mof_O 	O 	0.24535	0.18832	0.05169	-0.556
Mof_O 	O 	0.04977	0.00711	0.80409	-0.556
Mof_O 	O 	0.06502	0.84629	0.82569	-0.526
Mof_O 	O 	0.28588	0.10037	0.01216	-0.486
Mof_O 	O 	0.1873	0.1678	0.93224	-0.538
Mof_O 	O 	0.85412	0.73873	0.90356	-0.454
Mof_O 	O 	0.12665	0.09302	0.17561	-0.412
Mof_O 	O 	0.15447	0.25451	0.98026	-0.499
Mof_O 	O 	0.88353	0.63822	0.95436	-0.38
Mof_O 	O 	0.16177	0.99957	0.23152	-0.449
Mof_Dy	Dy	0.59162	0.42356	0.75821	1.913
Mof_Dy	Dy	0.28444	0.80903	0.44372	1.869
Mof_C 	C 	0.47743	0.59365	0.63653	-0.191
Mof_C 	C 	0.48996	0.26961	0.63083	-0.164
Mof_C 	C 	0.25045	0.56417	0.41256	-0.145
Mof_C 	C 	0.42275	0.61812	0.61569	0.124
Mof_H 	H 	0.3938	0.5959	0.6279	-0.017
Mof_C 	C 	0.54226	0.26022	0.61971	0.06
Mof_H 	H 	0.5718	0.2918	0.6358	0.033
Mof_C 	C 	0.28788	0.57898	0.38048	0.05
Mof_H 	H 	0.3059	0.6251	0.383	0.022
Mof_C 	C 	0.4101	0.6759	0.57642	-0.192
Mof_C 	C 	0.55027	0.20332	0.58432	-0.091
Mof_C 	C 	0.29835	0.52458	0.34451	-0.094
Mof_C 	C 	0.45438	0.70859	0.55906	0.066
Mof_H 	H 	0.4471	0.7469	0.5332	0.029
Mof_C 	C 	0.50653	0.15587	0.56028	0.002
Mof_H 	H 	0.5122	0.1172	0.5374	0.049
Mof_C 	C 	0.27243	0.45543	0.34139	-0
Mof_H 	H 	0.2792	0.4193	0.3171	0.037
Mof_C 	C 	0.50932	0.68427	0.58028	-0.081
Mof_C 	C 	0.45415	0.16654	0.57065	-0.045
Mof_C 	C 	0.23627	0.44014	0.37468	-0.044
Mof_C 	C 	0.52116	0.6258	0.61824	0.063
Mof_H 	H 	0.5577	0.6085	0.6312	0.026
Mof_C 	C 	0.44559	0.22456	0.60556	0.037
Mof_H 	H 	0.4102	0.2325	0.6116	0.032
Mof_C 	C 	0.22496	0.49489	0.41007	0.019
Mof_H 	H 	0.2003	0.4848	0.432	0.048
Mof_C 	C 	0.49036	0.53066	0.67805	0.51
Mof_C 	C 	0.48328	0.32673	0.67283	0.513
Mof_C 	C 	0.23873	0.62203	0.45209	0.457
Mof_C 	C 	0.35103	0.70109	0.5527	0.502
Mof_C 	C 	0.60794	0.19212	0.57472	0.309
Mof_C 	C 	0.33965	0.53976	0.31031	0.31
Mof_C 	C 	0.55527	0.7196	0.56291	0.101
Mof_C 	C 	0.4081	0.11786	0.54663	0.093
Mof_C 	C 	0.21183	0.36642	0.37388	0.08
Mof_N 	N 	0.59196	0.7458	0.55007	-0.127
Mof_N 	N 	0.3714	0.07839	0.52848	-0.124
Mof_N 	N 	0.19266	0.30793	0.37414	-0.137
Mof_O 	O 	0.53991	0.50797	0.69136	-0.485
Mof_O 	O 	0.52781	0.34834	0.70542	-0.564
Mof_O 	O 	0.25465	0.68832	0.44831	-0.556
Mof_O 	O 	0.45023	0.50711	0.69591	-0.556
Mof_O 	O 	0.43498	0.34629	0.67431	-0.526
Mof_O 	O 	0.21412	0.60037	0.48784	-0.485
Mof_O 	O 	0.3127	0.6678	0.56776	-0.538
Mof_O 	O 	0.64588	0.23873	0.59644	-0.454
Mof_O 	O 	0.37335	0.59302	0.32439	-0.412
Mof_O 	O 	0.34553	0.75451	0.51974	-0.499
Mof_O 	O 	0.61647	0.13822	0.54564	-0.38
Mof_O 	O 	0.33823	0.49957	0.26848	-0.45
Mof_Dy	Dy	0.09162	0.92356	0.75821	1.91
Mof_Dy	Dy	0.78444	0.30903	0.44372	1.869
Mof_C 	C 	0.97743	0.09365	0.63653	-0.191
Mof_C 	C 	0.98996	0.76961	0.63083	-0.164
Mof_C 	C 	0.75045	0.06417	0.41256	-0.146
Mof_C 	C 	0.92275	0.11812	0.61569	0.124
Mof_H 	H 	0.8938	0.0959	0.6279	-0.017
Mof_C 	C 	0.04226	0.76022	0.61971	0.06
Mof_H 	H 	0.0718	0.7918	0.6358	0.033
Mof_C 	C 	0.78788	0.07898	0.38048	0.05
Mof_H 	H 	0.8059	0.1251	0.383	0.022
Mof_C 	C 	0.9101	0.1759	0.57642	-0.191
Mof_C 	C 	0.05027	0.70332	0.58432	-0.091
Mof_C 	C 	0.79835	0.02458	0.34451	-0.095
Mof_C 	C 	0.95438	0.20859	0.55906	0.066
Mof_H 	H 	0.9471	0.2469	0.5332	0.029
Mof_C 	C 	0.00653	0.65587	0.56028	0.002
Mof_H 	H 	0.0122	0.6172	0.5374	0.05
Mof_C 	C 	0.77243	0.95543	0.34139	0.001
Mof_H 	H 	0.7792	0.9193	0.3171	0.037
Mof_C 	C 	0.00932	0.18427	0.58028	-0.081
Mof_C 	C 	0.95415	0.66654	0.57065	-0.044
Mof_C 	C 	0.73627	0.94014	0.37468	-0.045
Mof_C 	C 	0.02116	0.1258	0.61824	0.063
Mof_H 	H 	0.0577	0.1085	0.6312	0.026
Mof_C 	C 	0.94559	0.72456	0.60556	0.037
Mof_H 	H 	0.9102	0.7325	0.6116	0.032
Mof_C 	C 	0.72496	0.99489	0.41007	0.021
Mof_H 	H 	0.7003	0.9848	0.432	0.048
Mof_C 	C 	0.99036	0.03066	0.67805	0.509
Mof_C 	C 	0.98328	0.82673	0.67283	0.513
Mof_C 	C 	0.73873	0.12203	0.45209	0.457
Mof_C 	C 	0.85103	0.20109	0.5527	0.502
Mof_C 	C 	0.10794	0.69212	0.57472	0.309
Mof_C 	C 	0.83965	0.03976	0.31031	0.309
Mof_C 	C 	0.05527	0.2196	0.56291	0.101
Mof_C 	C 	0.9081	0.61786	0.54663	0.093
Mof_C 	C 	0.71183	0.86642	0.37388	0.081
Mof_N 	N 	0.09196	0.2458	0.55007	-0.127
Mof_N 	N 	0.8714	0.57839	0.52848	-0.124
Mof_N 	N 	0.69266	0.80793	0.37414	-0.137
Mof_O 	O 	0.03991	0.00797	0.69136	-0.484
Mof_O 	O 	0.02781	0.84834	0.70542	-0.563
Mof_O 	O 	0.75465	0.18832	0.44831	-0.556
Mof_O 	O 	0.95023	0.00711	0.69591	-0.556
Mof_O 	O 	0.93498	0.84629	0.67431	-0.525
Mof_O 	O 	0.71412	0.10037	0.48784	-0.485
Mof_O 	O 	0.8127	0.1678	0.56776	-0.538
Mof_O 	O 	0.14588	0.73873	0.59644	-0.454
Mof_O 	O 	0.87335	0.09302	0.32439	-0.412
Mof_O 	O 	0.84553	0.25451	0.51974	-0.499
Mof_O 	O 	0.11647	0.63822	0.54564	-0.38
Mof_O 	O 	0.83823	0.99957	0.26848	-0.449
Mof_Dy	Dy	0.59162	0.57644	0.25821	1.913
Mof_Dy	Dy	0.28444	0.19097	0.94372	1.871
Mof_C 	C 	0.47743	0.40635	0.13653	-0.191
Mof_C 	C 	0.48996	0.73039	0.13083	-0.164
Mof_C 	C 	0.25045	0.43583	0.91256	-0.145
Mof_C 	C 	0.42275	0.38188	0.11569	0.125
Mof_H 	H 	0.3938	0.4041	0.1279	-0.017
Mof_C 	C 	0.54226	0.73978	0.11971	0.06
Mof_H 	H 	0.5718	0.7082	0.1358	0.033
Mof_C 	C 	0.28788	0.42102	0.88048	0.05
Mof_H 	H 	0.3059	0.3749	0.883	0.022
Mof_C 	C 	0.4101	0.3241	0.07642	-0.192
Mof_C 	C 	0.55027	0.79668	0.08432	-0.091
Mof_C 	C 	0.29835	0.47542	0.84451	-0.094
Mof_C 	C 	0.45438	0.29141	0.05906	0.066
Mof_H 	H 	0.4471	0.2531	0.0332	0.028
Mof_C 	C 	0.50653	0.84413	0.06028	0.002
Mof_H 	H 	0.5122	0.8828	0.0374	0.05
Mof_C 	C 	0.27243	0.54457	0.84139	-0
Mof_H 	H 	0.2792	0.5807	0.8171	0.037
Mof_C 	C 	0.50932	0.31573	0.08028	-0.081
Mof_C 	C 	0.45415	0.83346	0.07065	-0.044
Mof_C 	C 	0.23627	0.55986	0.87468	-0.044
Mof_C 	C 	0.52116	0.3742	0.11824	0.064
Mof_H 	H 	0.5577	0.3915	0.1312	0.026
Mof_C 	C 	0.44559	0.77544	0.10556	0.037
Mof_H 	H 	0.4102	0.7675	0.1116	0.032
Mof_C 	C 	0.22496	0.50511	0.91007	0.019
Mof_H 	H 	0.2003	0.5152	0.932	0.048
Mof_C 	C 	0.49036	0.46934	0.17805	0.51
Mof_C 	C 	0.48328	0.67327	0.17283	0.513
Mof_C 	C 	0.23873	0.37797	0.95209	0.457
Mof_C 	C 	0.35103	0.29891	0.0527	0.503
Mof_C 	C 	0.60794	0.80788	0.07472	0.309
Mof_C 	C 	0.33965	0.46024	0.81031	0.31
Mof_C 	C 	0.55527	0.2804	0.06291	0.101
Mof_C 	C 	0.4081	0.88214	0.04663	0.094
Mof_C 	C 	0.21183	0.63358	0.87388	0.08
Mof_N 	N 	0.59196	0.2542	0.05007	-0.128
Mof_N 	N 	0.3714	0.92161	0.02848	-0.124
Mof_N 	N 	0.19266	0.69207	0.87414	-0.137
Mof_O 	O 	0.53991	0.49203	0.19136	-0.485
Mof_O 	O 	0.52781	0.65166	0.20542	-0.564
Mof_O 	O 	0.25465	0.31168	0.94831	-0.556
Mof_O 	O 	0.45023	0.49289	0.19591	-0.557
Mof_O 	O 	0.43498	0.65371	0.17431	-0.526
Mof_O 	O 	0.21412	0.39963	0.98784	-0.484
Mof_O 	O 	0.3127	0.3322	0.06776	-0.538
Mof_O 	O 	0.64588	0.76127	0.09644	-0.454
Mof_O 	O 	0.37335	0.40698	0.82439	-0.412
Mof_O 	O 	0.34553	0.24549	0.01974	-0.5
Mof_O 	O 	0.61647	0.86178	0.04564	-0.379
Mof_O 	O 	0.33823	0.50043	0.76848	-0.45
Mof_Dy	Dy	0.09162	0.07644	0.25821	1.911
Mof_Dy	Dy	0.78444	0.69097	0.94372	1.868
Mof_C 	C 	0.97743	0.90635	0.13653	-0.191
Mof_C 	C 	0.98996	0.23039	0.13083	-0.165
Mof_C 	C 	0.75045	0.93583	0.91256	-0.149
Mof_C 	C 	0.92275	0.88188	0.11569	0.124
Mof_H 	H 	0.8938	0.9041	0.1279	-0.017
Mof_C 	C 	0.04226	0.23978	0.11971	0.06
Mof_H 	H 	0.0718	0.2082	0.1358	0.033
Mof_C 	C 	0.78788	0.92102	0.88048	0.052
Mof_H 	H 	0.8059	0.8749	0.883	0.021
Mof_C 	C 	0.9101	0.8241	0.07642	-0.191
Mof_C 	C 	0.05027	0.29668	0.08432	-0.092
Mof_C 	C 	0.79835	0.97542	0.84451	-0.097
Mof_C 	C 	0.95438	0.79141	0.05906	0.066
Mof_H 	H 	0.9471	0.7531	0.0332	0.029
Mof_C 	C 	0.00653	0.34413	0.06028	0.002
Mof_H 	H 	0.0122	0.3828	0.0374	0.049
Mof_C 	C 	0.77243	0.04457	0.84139	0.004
Mof_H 	H 	0.7792	0.0807	0.8171	0.036
Mof_C 	C 	0.00932	0.81573	0.08028	-0.081
Mof_C 	C 	0.95415	0.33346	0.07065	-0.045
Mof_C 	C 	0.73627	0.05986	0.87468	-0.047
Mof_C 	C 	0.02116	0.8742	0.11824	0.063
Mof_H 	H 	0.0577	0.8915	0.1312	0.026
Mof_C 	C 	0.94559	0.27544	0.10556	0.037
Mof_H 	H 	0.9102	0.2675	0.1116	0.032
Mof_C 	C 	0.72496	0.00511	0.91007	0.024
Mof_H 	H 	0.7003	0.0152	0.932	0.047
Mof_C 	C 	0.99036	0.96934	0.17805	0.51
Mof_C 	C 	0.98328	0.17327	0.17283	0.513
Mof_C 	C 	0.73873	0.87797	0.95209	0.458
Mof_C 	C 	0.85103	0.79891	0.0527	0.502
Mof_C 	C 	0.10794	0.30788	0.07472	0.309
Mof_C 	C 	0.83965	0.96024	0.81031	0.31
Mof_C 	C 	0.05527	0.7804	0.06291	0.102
Mof_C 	C 	0.9081	0.38214	0.04663	0.093
Mof_C 	C 	0.71183	0.13358	0.87388	0.081
Mof_N 	N 	0.09196	0.7542	0.05007	-0.127
Mof_N 	N 	0.8714	0.42161	0.02848	-0.124
Mof_N 	N 	0.69266	0.19207	0.87414	-0.137
Mof_O 	O 	0.03991	0.99203	0.19136	-0.484
Mof_O 	O 	0.02781	0.15166	0.20542	-0.563
Mof_O 	O 	0.75465	0.81168	0.94831	-0.556
Mof_O 	O 	0.95023	0.99289	0.19591	-0.556
Mof_O 	O 	0.93498	0.15371	0.17431	-0.526
Mof_O 	O 	0.71412	0.89963	0.98784	-0.486
Mof_O 	O 	0.8127	0.8322	0.06776	-0.538
Mof_O 	O 	0.14588	0.26127	0.09644	-0.454
Mof_O 	O 	0.87335	0.90698	0.82439	-0.412
Mof_O 	O 	0.84553	0.74549	0.01974	-0.499
Mof_O 	O 	0.11647	0.36178	0.04564	-0.38
Mof_O 	O 	0.83823	0.00043	0.76848	-0.449
Mof_Dy	Dy	0.40838	0.57644	0.24179	1.913
Mof_Dy	Dy	0.71556	0.19097	0.55628	1.869
Mof_C 	C 	0.52257	0.40635	0.36347	-0.191
Mof_C 	C 	0.51004	0.73039	0.36917	-0.164
Mof_C 	C 	0.74955	0.43583	0.58744	-0.145
Mof_C 	C 	0.57725	0.38188	0.38431	0.124
Mof_H 	H 	0.6062	0.4041	0.3721	-0.017
Mof_C 	C 	0.45774	0.73978	0.38029	0.06
Mof_H 	H 	0.4282	0.7082	0.3642	0.033
Mof_C 	C 	0.71212	0.42102	0.61952	0.05
Mof_H 	H 	0.6941	0.3749	0.617	0.022
Mof_C 	C 	0.5899	0.3241	0.42358	-0.192
Mof_C 	C 	0.44973	0.79668	0.41568	-0.091
Mof_C 	C 	0.70165	0.47542	0.65549	-0.094
Mof_C 	C 	0.54562	0.29141	0.44094	0.066
Mof_H 	H 	0.5529	0.2531	0.4668	0.029
Mof_C 	C 	0.49347	0.84413	0.43972	0.002
Mof_H 	H 	0.4878	0.8828	0.4626	0.049
Mof_C 	C 	0.72757	0.54457	0.65861	-0
Mof_H 	H 	0.7208	0.5807	0.6829	0.037
Mof_C 	C 	0.49068	0.31573	0.41972	-0.081
Mof_C 	C 	0.54585	0.83346	0.42935	-0.045
Mof_C 	C 	0.76373	0.55986	0.62532	-0.044
Mof_C 	C 	0.47884	0.3742	0.38176	0.063
Mof_H 	H 	0.4423	0.3915	0.3688	0.026
Mof_C 	C 	0.55441	0.77544	0.39444	0.037
Mof_H 	H 	0.5898	0.7675	0.3884	0.032
Mof_C 	C 	0.77504	0.50511	0.58993	0.019
Mof_H 	H 	0.7997	0.5152	0.568	0.048
Mof_C 	C 	0.50964	0.46934	0.32195	0.51
Mof_C 	C 	0.51672	0.67327	0.32717	0.513
Mof_C 	C 	0.76127	0.37797	0.54791	0.457
Mof_C 	C 	0.64897	0.29891	0.4473	0.502
Mof_C 	C 	0.39206	0.80788	0.42528	0.309
Mof_C 	C 	0.66035	0.46024	0.68969	0.31
Mof_C 	C 	0.44473	0.2804	0.43709	0.101
Mof_C 	C 	0.5919	0.88214	0.45337	0.093
Mof_C 	C 	0.78817	0.63358	0.62612	0.08
Mof_N 	N 	0.40804	0.2542	0.44993	-0.127
Mof_N 	N 	0.6286	0.92161	0.47152	-0.124
Mof_N 	N 	0.80734	0.69207	0.62586	-0.137
Mof_O 	O 	0.46009	0.49203	0.30864	-0.485
Mof_O 	O 	0.47219	0.65166	0.29458	-0.564
Mof_O 	O 	0.74535	0.31168	0.55169	-0.556
Mof_O 	O 	0.54977	0.49289	0.30409	-0.556
Mof_O 	O 	0.56502	0.65371	0.32569	-0.526
Mof_O 	O 	0.78588	0.39963	0.51216	-0.485
Mof_O 	O 	0.6873	0.3322	0.43224	-0.538
Mof_O 	O 	0.35412	0.76127	0.40356	-0.454
Mof_O 	O 	0.62665	0.40698	0.67561	-0.412
Mof_O 	O 	0.65447	0.24549	0.48026	-0.499
Mof_O 	O 	0.38353	0.86178	0.45436	-0.38
Mof_O 	O 	0.66177	0.50043	0.73152	-0.45
Mof_Dy	Dy	0.90838	0.07644	0.24179	1.91
Mof_Dy	Dy	0.21556	0.69097	0.55628	1.869
Mof_C 	C 	0.02257	0.90635	0.36347	-0.191
Mof_C 	C 	0.01004	0.23039	0.36917	-0.164
Mof_C 	C 	0.24955	0.93583	0.58744	-0.146
Mof_C 	C 	0.07725	0.88188	0.38431	0.124
Mof_H 	H 	0.1062	0.9041	0.3721	-0.017
Mof_C 	C 	0.95774	0.23978	0.38029	0.06
Mof_H 	H 	0.9282	0.2082	0.3642	0.033
Mof_C 	C 	0.21212	0.92102	0.61952	0.05
Mof_H 	H 	0.1941	0.8749	0.617	0.022
Mof_C 	C 	0.0899	0.8241	0.42358	-0.191
Mof_C 	C 	0.94973	0.29668	0.41568	-0.091
Mof_C 	C 	0.20165	0.97542	0.65549	-0.095
Mof_C 	C 	0.04562	0.79141	0.44094	0.066
Mof_H 	H 	0.0529	0.7531	0.4668	0.029
Mof_C 	C 	0.99347	0.34413	0.43972	0.002
Mof_H 	H 	0.9878	0.3828	0.4626	0.05
Mof_C 	C 	0.22757	0.04457	0.65861	0.001
Mof_H 	H 	0.2208	0.0807	0.6829	0.037
Mof_C 	C 	0.99068	0.81573	0.41972	-0.081
Mof_C 	C 	0.04585	0.33346	0.42935	-0.044
Mof_C 	C 	0.26373	0.05986	0.62532	-0.045
Mof_C 	C 	0.97884	0.8742	0.38176	0.063
Mof_H 	H 	0.9423	0.8915	0.3688	0.026
Mof_C 	C 	0.05441	0.27544	0.39444	0.037
Mof_H 	H 	0.0898	0.2675	0.3884	0.032
Mof_C 	C 	0.27504	0.00511	0.58993	0.021
Mof_H 	H 	0.2997	0.0152	0.568	0.048
Mof_C 	C 	0.00964	0.96934	0.32195	0.509
Mof_C 	C 	0.01672	0.17327	0.32717	0.513
Mof_C 	C 	0.26127	0.87797	0.54791	0.457
Mof_C 	C 	0.14897	0.79891	0.4473	0.502
Mof_C 	C 	0.89206	0.30788	0.42528	0.309
Mof_C 	C 	0.16035	0.96024	0.68969	0.309
Mof_C 	C 	0.94473	0.7804	0.43709	0.101
Mof_C 	C 	0.0919	0.38214	0.45337	0.093
Mof_C 	C 	0.28817	0.13358	0.62612	0.081
Mof_N 	N 	0.90804	0.7542	0.44993	-0.127
Mof_N 	N 	0.1286	0.42161	0.47152	-0.124
Mof_N 	N 	0.30734	0.19207	0.62586	-0.137
Mof_O 	O 	0.96009	0.99203	0.30864	-0.484
Mof_O 	O 	0.97219	0.15166	0.29458	-0.563
Mof_O 	O 	0.24535	0.81168	0.55169	-0.556
Mof_O 	O 	0.04977	0.99289	0.30409	-0.556
Mof_O 	O 	0.06502	0.15371	0.32569	-0.525
Mof_O 	O 	0.28588	0.89963	0.51216	-0.485
Mof_O 	O 	0.1873	0.8322	0.43224	-0.538
Mof_O 	O 	0.85412	0.26127	0.40356	-0.454
Mof_O 	O 	0.12665	0.90698	0.67561	-0.412
Mof_O 	O 	0.15447	0.74549	0.48026	-0.499
Mof_O 	O 	0.88353	0.36178	0.45436	-0.38
Mof_O 	O 	0.16177	0.00043	0.73152	-0.449
_end
