data_functionalizedCrystal
_audit_creation_method	'EQeq! by Chris Wilmer'
_symmetry_space_group_name_H-M	'P1'
_symmetry_Int_Tables_number	1
_symmetry_cell_setting	triclinic
loop_
_symmetry_equiv_pos_as_xyz
  x,y,z
_cell_length_a	18.757
_cell_length_b	18.757
_cell_length_c	36.092
_cell_angle_alpha	90
_cell_angle_beta	90
_cell_angle_gamma	90
loop_
_atom_site_label
_atom_site_type_symbol
_atom_site_fract_x
_atom_site_fract_y
_atom_site_fract_z
_atom_site_charge
Mof_O 	O 	0.29616	0.80305	0.20531	-0.408
Mof_O 	O 	0.35305	0.75031	0.25339	-0.396
Mof_O 	O 	0.6153	0.71982	0.24486	-0.4
Mof_O 	O 	0.66978	0.77253	0.19638	-0.405
Mof_C 	C 	0.48273	0.76427	0.21648	-0.003
Mof_H 	H 	0.4849	0.758	0.2426	0.056
Mof_C 	C 	0.41742	0.77588	0.19931	-0.056
Mof_C 	C 	0.41419	0.78502	0.16113	-0.083
Mof_H 	H 	0.3696	0.793	0.1494	0.07
Mof_C 	C 	0.47625	0.78255	0.14012	0.083
Mof_C 	C 	0.54155	0.77094	0.1573	-0.079
Mof_H 	H 	0.584	0.7693	0.1429	0.065
Mof_C 	C 	0.54479	0.7618	0.19548	-0.059
Mof_C 	C 	0.35035	0.77848	0.22116	0.335
Mof_C 	C 	0.61517	0.75215	0.21357	0.333
Mof_C 	C 	0.4721	0.78201	0.09829	-0.201
Mof_C 	C 	0.4646	0.84633	0.07957	0.22
Mof_C 	C 	0.4621	0.84724	0.04108	-0.226
Mof_H 	H 	0.4569	0.8912	0.0283	0.095
Mof_C 	C 	0.4671	0.7838	0.02132	0.098
Mof_C 	C 	0.4747	0.71953	0.04004	-0.237
Mof_H 	H 	0.4782	0.6762	0.0265	0.094
Mof_C 	C 	0.4772	0.71861	0.07853	0.247
Mof_C 	C 	0.4454	0.9183	0.10045	-0.538
Mof_H 	H 	0.4489	0.9109	0.1273	0.184
Mof_H 	H 	0.3967	0.9326	0.0941	0.176
Mof_H 	H 	0.4787	0.9558	0.0929	0.165
Mof_C 	C 	0.4989	0.6508	0.09884	-0.578
Mof_H 	H 	0.501	0.6111	0.0812	0.173
Mof_H 	H 	0.4638	0.6401	0.1182	0.188
Mof_H 	H 	0.5459	0.6576	0.1102	0.189
Mof_O 	O 	0.70384	0.19695	0.20531	-0.409
Mof_O 	O 	0.64695	0.24969	0.25339	-0.397
Mof_O 	O 	0.3847	0.28018	0.24486	-0.401
Mof_O 	O 	0.33022	0.22747	0.19638	-0.406
Mof_C 	C 	0.51727	0.23573	0.21648	-0.003
Mof_H 	H 	0.5151	0.242	0.2426	0.056
Mof_C 	C 	0.58258	0.22412	0.19931	-0.056
Mof_C 	C 	0.58581	0.21498	0.16113	-0.083
Mof_H 	H 	0.6304	0.207	0.1494	0.07
Mof_C 	C 	0.52375	0.21745	0.14012	0.083
Mof_C 	C 	0.45845	0.22906	0.1573	-0.079
Mof_H 	H 	0.416	0.2307	0.1429	0.065
Mof_C 	C 	0.45521	0.2382	0.19548	-0.059
Mof_C 	C 	0.64965	0.22152	0.22116	0.335
Mof_C 	C 	0.38483	0.24785	0.21357	0.333
Mof_C 	C 	0.5279	0.21799	0.09829	-0.201
Mof_C 	C 	0.5354	0.15367	0.07957	0.22
Mof_C 	C 	0.5379	0.15276	0.04108	-0.226
Mof_H 	H 	0.5431	0.1088	0.0283	0.095
Mof_C 	C 	0.5329	0.2162	0.02132	0.098
Mof_C 	C 	0.5253	0.28047	0.04004	-0.237
Mof_H 	H 	0.5218	0.3238	0.0265	0.094
Mof_C 	C 	0.5228	0.28139	0.07853	0.247
Mof_C 	C 	0.5546	0.0817	0.10045	-0.538
Mof_H 	H 	0.5511	0.0891	0.1273	0.184
Mof_H 	H 	0.6033	0.0674	0.0941	0.176
Mof_H 	H 	0.5213	0.0442	0.0929	0.165
Mof_C 	C 	0.5011	0.3492	0.09884	-0.578
Mof_H 	H 	0.499	0.3889	0.0812	0.173
Mof_H 	H 	0.5362	0.3599	0.1182	0.188
Mof_H 	H 	0.4541	0.3424	0.1102	0.189
Mof_O 	O 	0.69695	0.79616	0.70531	-0.409
Mof_O 	O 	0.74969	0.85305	0.75339	-0.397
Mof_O 	O 	0.78018	0.1153	0.74486	-0.401
Mof_O 	O 	0.72747	0.16978	0.69638	-0.406
Mof_C 	C 	0.73573	0.98273	0.71648	-0.001
Mof_H 	H 	0.742	0.9849	0.7426	0.055
Mof_C 	C 	0.72412	0.91742	0.69931	-0.057
Mof_C 	C 	0.71498	0.91419	0.66113	-0.082
Mof_H 	H 	0.707	0.8696	0.6494	0.07
Mof_C 	C 	0.71745	0.97625	0.64012	0.083
Mof_C 	C 	0.72906	0.04155	0.6573	-0.08
Mof_H 	H 	0.7307	0.084	0.6429	0.065
Mof_C 	C 	0.7382	0.04479	0.69548	-0.06
Mof_C 	C 	0.72152	0.85035	0.72116	0.335
Mof_C 	C 	0.74785	0.11517	0.71357	0.334
Mof_C 	C 	0.71799	0.9721	0.59829	-0.199
Mof_C 	C 	0.65367	0.9646	0.57957	0.219
Mof_C 	C 	0.65276	0.9621	0.54108	-0.225
Mof_H 	H 	0.6088	0.9569	0.5283	0.094
Mof_C 	C 	0.7162	0.9671	0.52132	0.097
Mof_C 	C 	0.78047	0.9747	0.54004	-0.235
Mof_H 	H 	0.8238	0.9782	0.5265	0.093
Mof_C 	C 	0.78139	0.9772	0.57853	0.243
Mof_C 	C 	0.5817	0.9454	0.60045	-0.537
Mof_H 	H 	0.5891	0.9489	0.6273	0.184
Mof_H 	H 	0.5674	0.8967	0.5941	0.176
Mof_H 	H 	0.5442	0.9787	0.5929	0.164
Mof_C 	C 	0.8492	0.9989	0.59884	-0.563
Mof_H 	H 	0.8889	0.001	0.5812	0.168
Mof_H 	H 	0.8599	0.9638	0.6182	0.185
Mof_H 	H 	0.8424	0.0459	0.6102	0.183
Mof_O 	O 	0.30305	0.20384	0.70531	-0.409
Mof_O 	O 	0.25031	0.14695	0.75339	-0.397
Mof_O 	O 	0.21982	0.8847	0.74486	-0.401
Mof_O 	O 	0.27253	0.83022	0.69638	-0.406
Mof_C 	C 	0.26427	0.01727	0.71648	-0.001
Mof_H 	H 	0.258	0.0151	0.7426	0.055
Mof_C 	C 	0.27588	0.08258	0.69931	-0.057
Mof_C 	C 	0.28502	0.08581	0.66113	-0.082
Mof_H 	H 	0.293	0.1304	0.6494	0.07
Mof_C 	C 	0.28255	0.02375	0.64012	0.083
Mof_C 	C 	0.27094	0.95845	0.6573	-0.08
Mof_H 	H 	0.2693	0.916	0.6429	0.065
Mof_C 	C 	0.2618	0.95521	0.69548	-0.06
Mof_C 	C 	0.27848	0.14965	0.72116	0.335
Mof_C 	C 	0.25215	0.88483	0.71357	0.334
Mof_C 	C 	0.28201	0.0279	0.59829	-0.199
Mof_C 	C 	0.34633	0.0354	0.57957	0.219
Mof_C 	C 	0.34724	0.0379	0.54108	-0.225
Mof_H 	H 	0.3912	0.0431	0.5283	0.094
Mof_C 	C 	0.2838	0.0329	0.52132	0.097
Mof_C 	C 	0.21953	0.0253	0.54004	-0.235
Mof_H 	H 	0.1762	0.0218	0.5265	0.093
Mof_C 	C 	0.21861	0.0228	0.57853	0.243
Mof_C 	C 	0.4183	0.0546	0.60045	-0.537
Mof_H 	H 	0.4109	0.0511	0.6273	0.184
Mof_H 	H 	0.4326	0.1033	0.5941	0.176
Mof_H 	H 	0.4558	0.0213	0.5929	0.164
Mof_C 	C 	0.1508	0.0011	0.59884	-0.563
Mof_H 	H 	0.1111	0.999	0.5812	0.168
Mof_H 	H 	0.1401	0.0362	0.6182	0.185
Mof_H 	H 	0.1576	0.9541	0.6102	0.183
Mof_O 	O 	0.20384	0.30305	0.29469	-0.409
Mof_O 	O 	0.14695	0.25031	0.24661	-0.397
Mof_O 	O 	0.8847	0.21982	0.25514	-0.401
Mof_O 	O 	0.83022	0.27253	0.30362	-0.406
Mof_C 	C 	0.01727	0.26427	0.28352	-0.001
Mof_H 	H 	0.0151	0.258	0.2574	0.055
Mof_C 	C 	0.08258	0.27588	0.30069	-0.057
Mof_C 	C 	0.08581	0.28502	0.33887	-0.082
Mof_H 	H 	0.1304	0.293	0.3506	0.07
Mof_C 	C 	0.02375	0.28255	0.35988	0.083
Mof_C 	C 	0.95845	0.27094	0.3427	-0.08
Mof_H 	H 	0.916	0.2693	0.3571	0.065
Mof_C 	C 	0.95521	0.2618	0.30452	-0.06
Mof_C 	C 	0.14965	0.27848	0.27884	0.335
Mof_C 	C 	0.88483	0.25215	0.28643	0.334
Mof_C 	C 	0.0279	0.28201	0.40171	-0.199
Mof_C 	C 	0.0354	0.34633	0.42043	0.219
Mof_C 	C 	0.0379	0.34724	0.45892	-0.225
Mof_H 	H 	0.0431	0.3912	0.4717	0.094
Mof_C 	C 	0.0329	0.2838	0.47868	0.097
Mof_C 	C 	0.0253	0.21953	0.45996	-0.235
Mof_H 	H 	0.0218	0.1762	0.4735	0.093
Mof_C 	C 	0.0228	0.21861	0.42147	0.243
Mof_C 	C 	0.0546	0.4183	0.39955	-0.537
Mof_H 	H 	0.0511	0.4109	0.3727	0.184
Mof_H 	H 	0.1033	0.4326	0.4059	0.176
Mof_H 	H 	0.0213	0.4558	0.4071	0.164
Mof_C 	C 	0.0011	0.1508	0.40116	-0.563
Mof_H 	H 	0.999	0.1111	0.4188	0.168
Mof_H 	H 	0.0362	0.1401	0.3818	0.185
Mof_H 	H 	0.9541	0.1576	0.3898	0.183
Mof_O 	O 	0.79616	0.69695	0.29469	-0.409
Mof_O 	O 	0.85305	0.74969	0.24661	-0.397
Mof_O 	O 	0.1153	0.78018	0.25514	-0.401
Mof_O 	O 	0.16978	0.72747	0.30362	-0.406
Mof_C 	C 	0.98273	0.73573	0.28352	-0.001
Mof_H 	H 	0.9849	0.742	0.2574	0.055
Mof_C 	C 	0.91742	0.72412	0.30069	-0.057
Mof_C 	C 	0.91419	0.71498	0.33887	-0.082
Mof_H 	H 	0.8696	0.707	0.3506	0.07
Mof_C 	C 	0.97625	0.71745	0.35988	0.083
Mof_C 	C 	0.04155	0.72906	0.3427	-0.08
Mof_H 	H 	0.084	0.7307	0.3571	0.065
Mof_C 	C 	0.04479	0.7382	0.30452	-0.06
Mof_C 	C 	0.85035	0.72152	0.27884	0.335
Mof_C 	C 	0.11517	0.74785	0.28643	0.334
Mof_C 	C 	0.9721	0.71799	0.40171	-0.199
Mof_C 	C 	0.9646	0.65367	0.42043	0.219
Mof_C 	C 	0.9621	0.65276	0.45892	-0.225
Mof_H 	H 	0.9569	0.6088	0.4717	0.094
Mof_C 	C 	0.9671	0.7162	0.47868	0.097
Mof_C 	C 	0.9747	0.78047	0.45996	-0.235
Mof_H 	H 	0.9782	0.8238	0.4735	0.093
Mof_C 	C 	0.9772	0.78139	0.42147	0.243
Mof_C 	C 	0.9454	0.5817	0.39955	-0.537
Mof_H 	H 	0.9489	0.5891	0.3727	0.184
Mof_H 	H 	0.8967	0.5674	0.4059	0.176
Mof_H 	H 	0.9787	0.5442	0.4071	0.164
Mof_C 	C 	0.9989	0.8492	0.40116	-0.563
Mof_H 	H 	0.001	0.8889	0.4188	0.168
Mof_H 	H 	0.9638	0.8599	0.3818	0.185
Mof_H 	H 	0.0459	0.8424	0.3898	0.183
Mof_O 	O 	0.80305	0.29616	0.79469	-0.409
Mof_O 	O 	0.75031	0.35305	0.74661	-0.397
Mof_O 	O 	0.71982	0.6153	0.75514	-0.401
Mof_O 	O 	0.77253	0.66978	0.80362	-0.406
Mof_C 	C 	0.76427	0.48273	0.78352	-0.003
Mof_H 	H 	0.758	0.4849	0.7574	0.056
Mof_C 	C 	0.77588	0.41742	0.80069	-0.056
Mof_C 	C 	0.78502	0.41419	0.83887	-0.083
Mof_H 	H 	0.793	0.3696	0.8506	0.07
Mof_C 	C 	0.78255	0.47625	0.85988	0.083
Mof_C 	C 	0.77094	0.54155	0.8427	-0.079
Mof_H 	H 	0.7693	0.584	0.8571	0.065
Mof_C 	C 	0.7618	0.54479	0.80452	-0.059
Mof_C 	C 	0.77848	0.35035	0.77884	0.335
Mof_C 	C 	0.75215	0.61517	0.78643	0.333
Mof_C 	C 	0.78201	0.4721	0.90171	-0.201
Mof_C 	C 	0.84633	0.4646	0.92043	0.22
Mof_C 	C 	0.84724	0.4621	0.95892	-0.226
Mof_H 	H 	0.8912	0.4569	0.9717	0.095
Mof_C 	C 	0.7838	0.4671	0.97868	0.098
Mof_C 	C 	0.71953	0.4747	0.95996	-0.237
Mof_H 	H 	0.6762	0.4782	0.9735	0.094
Mof_C 	C 	0.71861	0.4772	0.92147	0.247
Mof_C 	C 	0.9183	0.4454	0.89955	-0.538
Mof_H 	H 	0.9109	0.4489	0.8727	0.184
Mof_H 	H 	0.9326	0.3967	0.9059	0.176
Mof_H 	H 	0.9558	0.4787	0.9071	0.165
Mof_C 	C 	0.6508	0.4989	0.90116	-0.578
Mof_H 	H 	0.6111	0.501	0.9188	0.173
Mof_H 	H 	0.6401	0.4638	0.8818	0.188
Mof_H 	H 	0.6576	0.5459	0.8898	0.189
Mof_O 	O 	0.19695	0.70384	0.79469	-0.409
Mof_O 	O 	0.24969	0.64695	0.74661	-0.397
Mof_O 	O 	0.28018	0.3847	0.75514	-0.401
Mof_O 	O 	0.22747	0.33022	0.80362	-0.406
Mof_C 	C 	0.23573	0.51727	0.78352	-0.003
Mof_H 	H 	0.242	0.5151	0.7574	0.056
Mof_C 	C 	0.22412	0.58258	0.80069	-0.056
Mof_C 	C 	0.21498	0.58581	0.83887	-0.083
Mof_H 	H 	0.207	0.6304	0.8506	0.07
Mof_C 	C 	0.21745	0.52375	0.85988	0.083
Mof_C 	C 	0.22906	0.45845	0.8427	-0.079
Mof_H 	H 	0.2307	0.416	0.8571	0.065
Mof_C 	C 	0.2382	0.45521	0.80452	-0.059
Mof_C 	C 	0.22152	0.64965	0.77884	0.335
Mof_C 	C 	0.24785	0.38483	0.78643	0.333
Mof_C 	C 	0.21799	0.5279	0.90171	-0.201
Mof_C 	C 	0.15367	0.5354	0.92043	0.22
Mof_C 	C 	0.15276	0.5379	0.95892	-0.226
Mof_H 	H 	0.1088	0.5431	0.9717	0.095
Mof_C 	C 	0.2162	0.5329	0.97868	0.098
Mof_C 	C 	0.28047	0.5253	0.95996	-0.237
Mof_H 	H 	0.3238	0.5218	0.9735	0.094
Mof_C 	C 	0.28139	0.5228	0.92147	0.247
Mof_C 	C 	0.0817	0.5546	0.89955	-0.538
Mof_H 	H 	0.0891	0.5511	0.8727	0.184
Mof_H 	H 	0.0674	0.6033	0.9059	0.176
Mof_H 	H 	0.0442	0.5213	0.9071	0.165
Mof_C 	C 	0.3492	0.5011	0.90116	-0.578
Mof_H 	H 	0.3889	0.499	0.9188	0.173
Mof_H 	H 	0.3599	0.5362	0.8818	0.188
Mof_H 	H 	0.3424	0.4541	0.8898	0.189
Mof_O 	O 	0.70384	0.19695	0.79469	-0.409
Mof_O 	O 	0.64695	0.24969	0.74661	-0.397
Mof_O 	O 	0.3847	0.28018	0.75514	-0.401
Mof_O 	O 	0.33022	0.22747	0.80362	-0.406
Mof_C 	C 	0.51727	0.23573	0.78352	-0.003
Mof_H 	H 	0.5151	0.242	0.7574	0.056
Mof_C 	C 	0.58258	0.22412	0.80069	-0.056
Mof_C 	C 	0.58581	0.21498	0.83887	-0.083
Mof_H 	H 	0.6304	0.207	0.8506	0.07
Mof_C 	C 	0.52375	0.21745	0.85988	0.083
Mof_C 	C 	0.45845	0.22906	0.8427	-0.079
Mof_H 	H 	0.416	0.2307	0.8571	0.065
Mof_C 	C 	0.45521	0.2382	0.80452	-0.059
Mof_C 	C 	0.64965	0.22152	0.77884	0.335
Mof_C 	C 	0.38483	0.24785	0.78643	0.333
Mof_C 	C 	0.5279	0.21799	0.90171	-0.201
Mof_C 	C 	0.5354	0.15367	0.92043	0.22
Mof_C 	C 	0.5379	0.15276	0.95892	-0.226
Mof_H 	H 	0.5431	0.1088	0.9717	0.095
Mof_C 	C 	0.5329	0.2162	0.97868	0.098
Mof_C 	C 	0.5253	0.28047	0.95996	-0.237
Mof_H 	H 	0.5218	0.3238	0.9735	0.094
Mof_C 	C 	0.5228	0.28139	0.92147	0.247
Mof_C 	C 	0.5546	0.0817	0.89955	-0.538
Mof_H 	H 	0.5511	0.0891	0.8727	0.184
Mof_H 	H 	0.6033	0.0674	0.9059	0.176
Mof_H 	H 	0.5213	0.0442	0.9071	0.165
Mof_C 	C 	0.5011	0.3492	0.90116	-0.578
Mof_H 	H 	0.499	0.3889	0.9188	0.173
Mof_H 	H 	0.5362	0.3599	0.8818	0.188
Mof_H 	H 	0.4541	0.3424	0.8898	0.189
Mof_O 	O 	0.29616	0.80305	0.79469	-0.409
Mof_O 	O 	0.35305	0.75031	0.74661	-0.397
Mof_O 	O 	0.6153	0.71982	0.75514	-0.401
Mof_O 	O 	0.66978	0.77253	0.80362	-0.406
Mof_C 	C 	0.48273	0.76427	0.78352	-0.003
Mof_H 	H 	0.4849	0.758	0.7574	0.056
Mof_C 	C 	0.41742	0.77588	0.80069	-0.056
Mof_C 	C 	0.41419	0.78502	0.83887	-0.083
Mof_H 	H 	0.3696	0.793	0.8506	0.07
Mof_C 	C 	0.47625	0.78255	0.85988	0.083
Mof_C 	C 	0.54155	0.77094	0.8427	-0.079
Mof_H 	H 	0.584	0.7693	0.8571	0.065
Mof_C 	C 	0.54479	0.7618	0.80452	-0.059
Mof_C 	C 	0.35035	0.77848	0.77884	0.335
Mof_C 	C 	0.61517	0.75215	0.78643	0.333
Mof_C 	C 	0.4721	0.78201	0.90171	-0.201
Mof_C 	C 	0.4646	0.84633	0.92043	0.22
Mof_C 	C 	0.4621	0.84724	0.95892	-0.226
Mof_H 	H 	0.4569	0.8912	0.9717	0.095
Mof_C 	C 	0.4671	0.7838	0.97868	0.098
Mof_C 	C 	0.4747	0.71953	0.95996	-0.237
Mof_H 	H 	0.4782	0.6762	0.9735	0.094
Mof_C 	C 	0.4772	0.71861	0.92147	0.247
Mof_C 	C 	0.4454	0.9183	0.89955	-0.538
Mof_H 	H 	0.4489	0.9109	0.8727	0.184
Mof_H 	H 	0.3967	0.9326	0.9059	0.176
Mof_H 	H 	0.4787	0.9558	0.9071	0.165
Mof_C 	C 	0.4989	0.6508	0.90116	-0.578
Mof_H 	H 	0.501	0.6111	0.9188	0.173
Mof_H 	H 	0.4638	0.6401	0.8818	0.188
Mof_H 	H 	0.5459	0.6576	0.8898	0.189
Mof_O 	O 	0.30305	0.20384	0.29469	-0.409
Mof_O 	O 	0.25031	0.14695	0.24661	-0.397
Mof_O 	O 	0.21982	0.8847	0.25514	-0.401
Mof_O 	O 	0.27253	0.83022	0.30362	-0.406
Mof_C 	C 	0.26427	0.01727	0.28352	-0.001
Mof_H 	H 	0.258	0.0151	0.2574	0.055
Mof_C 	C 	0.27588	0.08258	0.30069	-0.057
Mof_C 	C 	0.28502	0.08581	0.33887	-0.082
Mof_H 	H 	0.293	0.1304	0.3506	0.07
Mof_C 	C 	0.28255	0.02375	0.35988	0.083
Mof_C 	C 	0.27094	0.95845	0.3427	-0.08
Mof_H 	H 	0.2693	0.916	0.3571	0.065
Mof_C 	C 	0.2618	0.95521	0.30452	-0.06
Mof_C 	C 	0.27848	0.14965	0.27884	0.335
Mof_C 	C 	0.25215	0.88483	0.28643	0.334
Mof_C 	C 	0.28201	0.0279	0.40171	-0.199
Mof_C 	C 	0.34633	0.0354	0.42043	0.219
Mof_C 	C 	0.34724	0.0379	0.45892	-0.225
Mof_H 	H 	0.3912	0.0431	0.4717	0.094
Mof_C 	C 	0.2838	0.0329	0.47868	0.097
Mof_C 	C 	0.21953	0.0253	0.45996	-0.235
Mof_H 	H 	0.1762	0.0218	0.4735	0.093
Mof_C 	C 	0.21861	0.0228	0.42147	0.243
Mof_C 	C 	0.4183	0.0546	0.39955	-0.537
Mof_H 	H 	0.4109	0.0511	0.3727	0.184
Mof_H 	H 	0.4326	0.1033	0.4059	0.176
Mof_H 	H 	0.4558	0.0213	0.4071	0.164
Mof_C 	C 	0.1508	0.0011	0.40116	-0.563
Mof_H 	H 	0.1111	0.999	0.4188	0.168
Mof_H 	H 	0.1401	0.0362	0.3818	0.185
Mof_H 	H 	0.1576	0.9541	0.3898	0.183
Mof_O 	O 	0.69695	0.79616	0.29469	-0.409
Mof_O 	O 	0.74969	0.85305	0.24661	-0.397
Mof_O 	O 	0.78018	0.1153	0.25514	-0.401
Mof_O 	O 	0.72747	0.16978	0.30362	-0.406
Mof_C 	C 	0.73573	0.98273	0.28352	-0.001
Mof_H 	H 	0.742	0.9849	0.2574	0.055
Mof_C 	C 	0.72412	0.91742	0.30069	-0.057
Mof_C 	C 	0.71498	0.91419	0.33887	-0.082
Mof_H 	H 	0.707	0.8696	0.3506	0.07
Mof_C 	C 	0.71745	0.97625	0.35988	0.083
Mof_C 	C 	0.72906	0.04155	0.3427	-0.08
Mof_H 	H 	0.7307	0.084	0.3571	0.065
Mof_C 	C 	0.7382	0.04479	0.30452	-0.06
Mof_C 	C 	0.72152	0.85035	0.27884	0.335
Mof_C 	C 	0.74785	0.11517	0.28643	0.334
Mof_C 	C 	0.71799	0.9721	0.40171	-0.199
Mof_C 	C 	0.65367	0.9646	0.42043	0.219
Mof_C 	C 	0.65276	0.9621	0.45892	-0.225
Mof_H 	H 	0.6088	0.9569	0.4717	0.094
Mof_C 	C 	0.7162	0.9671	0.47868	0.097
Mof_C 	C 	0.78047	0.9747	0.45996	-0.235
Mof_H 	H 	0.8238	0.9782	0.4735	0.093
Mof_C 	C 	0.78139	0.9772	0.42147	0.243
Mof_C 	C 	0.5817	0.9454	0.39955	-0.537
Mof_H 	H 	0.5891	0.9489	0.3727	0.184
Mof_H 	H 	0.5674	0.8967	0.4059	0.176
Mof_H 	H 	0.5442	0.9787	0.4071	0.164
Mof_C 	C 	0.8492	0.9989	0.40116	-0.563
Mof_H 	H 	0.8889	0.001	0.4188	0.168
Mof_H 	H 	0.8599	0.9638	0.3818	0.185
Mof_H 	H 	0.8424	0.0459	0.3898	0.183
Mof_O 	O 	0.79616	0.69695	0.70531	-0.409
Mof_O 	O 	0.85305	0.74969	0.75339	-0.397
Mof_O 	O 	0.1153	0.78018	0.74486	-0.401
Mof_O 	O 	0.16978	0.72747	0.69638	-0.406
Mof_C 	C 	0.98273	0.73573	0.71648	-0.001
Mof_H 	H 	0.9849	0.742	0.7426	0.055
Mof_C 	C 	0.91742	0.72412	0.69931	-0.057
Mof_C 	C 	0.91419	0.71498	0.66113	-0.082
Mof_H 	H 	0.8696	0.707	0.6494	0.07
Mof_C 	C 	0.97625	0.71745	0.64012	0.083
Mof_C 	C 	0.04155	0.72906	0.6573	-0.08
Mof_H 	H 	0.084	0.7307	0.6429	0.065
Mof_C 	C 	0.04479	0.7382	0.69548	-0.06
Mof_C 	C 	0.85035	0.72152	0.72116	0.335
Mof_C 	C 	0.11517	0.74785	0.71357	0.334
Mof_C 	C 	0.9721	0.71799	0.59829	-0.199
Mof_C 	C 	0.9646	0.65367	0.57957	0.219
Mof_C 	C 	0.9621	0.65276	0.54108	-0.225
Mof_H 	H 	0.9569	0.6088	0.5283	0.094
Mof_C 	C 	0.9671	0.7162	0.52132	0.097
Mof_C 	C 	0.9747	0.78047	0.54004	-0.235
Mof_H 	H 	0.9782	0.8238	0.5265	0.093
Mof_C 	C 	0.9772	0.78139	0.57853	0.243
Mof_C 	C 	0.9454	0.5817	0.60045	-0.537
Mof_H 	H 	0.9489	0.5891	0.6273	0.184
Mof_H 	H 	0.8967	0.5674	0.5941	0.176
Mof_H 	H 	0.9787	0.5442	0.5929	0.164
Mof_C 	C 	0.9989	0.8492	0.59884	-0.563
Mof_H 	H 	0.001	0.8889	0.5812	0.168
Mof_H 	H 	0.9638	0.8599	0.6182	0.185
Mof_H 	H 	0.0459	0.8424	0.6102	0.183
Mof_O 	O 	0.20384	0.30305	0.70531	-0.409
Mof_O 	O 	0.14695	0.25031	0.75339	-0.397
Mof_O 	O 	0.8847	0.21982	0.74486	-0.401
Mof_O 	O 	0.83022	0.27253	0.69638	-0.406
Mof_C 	C 	0.01727	0.26427	0.71648	-0.001
Mof_H 	H 	0.0151	0.258	0.7426	0.055
Mof_C 	C 	0.08258	0.27588	0.69931	-0.057
Mof_C 	C 	0.08581	0.28502	0.66113	-0.082
Mof_H 	H 	0.1304	0.293	0.6494	0.07
Mof_C 	C 	0.02375	0.28255	0.64012	0.083
Mof_C 	C 	0.95845	0.27094	0.6573	-0.08
Mof_H 	H 	0.916	0.2693	0.6429	0.065
Mof_C 	C 	0.95521	0.2618	0.69548	-0.06
Mof_C 	C 	0.14965	0.27848	0.72116	0.335
Mof_C 	C 	0.88483	0.25215	0.71357	0.334
Mof_C 	C 	0.0279	0.28201	0.59829	-0.199
Mof_C 	C 	0.0354	0.34633	0.57957	0.219
Mof_C 	C 	0.0379	0.34724	0.54108	-0.225
Mof_H 	H 	0.0431	0.3912	0.5283	0.094
Mof_C 	C 	0.0329	0.2838	0.52132	0.097
Mof_C 	C 	0.0253	0.21953	0.54004	-0.235
Mof_H 	H 	0.0218	0.1762	0.5265	0.093
Mof_C 	C 	0.0228	0.21861	0.57853	0.243
Mof_C 	C 	0.0546	0.4183	0.60045	-0.537
Mof_H 	H 	0.0511	0.4109	0.6273	0.184
Mof_H 	H 	0.1033	0.4326	0.5941	0.176
Mof_H 	H 	0.0213	0.4558	0.5929	0.164
Mof_C 	C 	0.0011	0.1508	0.59884	-0.563
Mof_H 	H 	0.999	0.1111	0.5812	0.168
Mof_H 	H 	0.0362	0.1401	0.6182	0.185
Mof_H 	H 	0.9541	0.1576	0.6102	0.183
Mof_O 	O 	0.19695	0.70384	0.20531	-0.409
Mof_O 	O 	0.24969	0.64695	0.25339	-0.397
Mof_O 	O 	0.28018	0.3847	0.24486	-0.401
Mof_O 	O 	0.22747	0.33022	0.19638	-0.406
Mof_C 	C 	0.23573	0.51727	0.21648	-0.003
Mof_H 	H 	0.242	0.5151	0.2426	0.056
Mof_C 	C 	0.22412	0.58258	0.19931	-0.056
Mof_C 	C 	0.21498	0.58581	0.16113	-0.083
Mof_H 	H 	0.207	0.6304	0.1494	0.07
Mof_C 	C 	0.21745	0.52375	0.14012	0.083
Mof_C 	C 	0.22906	0.45845	0.1573	-0.079
Mof_H 	H 	0.2307	0.416	0.1429	0.065
Mof_C 	C 	0.2382	0.45521	0.19548	-0.059
Mof_C 	C 	0.22152	0.64965	0.22116	0.335
Mof_C 	C 	0.24785	0.38483	0.21357	0.333
Mof_C 	C 	0.21799	0.5279	0.09829	-0.201
Mof_C 	C 	0.15367	0.5354	0.07957	0.22
Mof_C 	C 	0.15276	0.5379	0.04108	-0.226
Mof_H 	H 	0.1088	0.5431	0.0283	0.095
Mof_C 	C 	0.2162	0.5329	0.02132	0.098
Mof_C 	C 	0.28047	0.5253	0.04004	-0.237
Mof_H 	H 	0.3238	0.5218	0.0265	0.094
Mof_C 	C 	0.28139	0.5228	0.07853	0.247
Mof_C 	C 	0.0817	0.5546	0.10045	-0.538
Mof_H 	H 	0.0891	0.5511	0.1273	0.184
Mof_H 	H 	0.0674	0.6033	0.0941	0.176
Mof_H 	H 	0.0442	0.5213	0.0929	0.165
Mof_C 	C 	0.3492	0.5011	0.09884	-0.578
Mof_H 	H 	0.3889	0.499	0.0812	0.173
Mof_H 	H 	0.3599	0.5362	0.1182	0.188
Mof_H 	H 	0.3424	0.4541	0.1102	0.189
Mof_O 	O 	0.80305	0.29616	0.20531	-0.409
Mof_O 	O 	0.75031	0.35305	0.25339	-0.397
Mof_O 	O 	0.71982	0.6153	0.24486	-0.401
Mof_O 	O 	0.77253	0.66978	0.19638	-0.406
Mof_C 	C 	0.76427	0.48273	0.21648	-0.003
Mof_H 	H 	0.758	0.4849	0.2426	0.056
Mof_C 	C 	0.77588	0.41742	0.19931	-0.056
Mof_C 	C 	0.78502	0.41419	0.16113	-0.083
Mof_H 	H 	0.793	0.3696	0.1494	0.07
Mof_C 	C 	0.78255	0.47625	0.14012	0.083
Mof_C 	C 	0.77094	0.54155	0.1573	-0.079
Mof_H 	H 	0.7693	0.584	0.1429	0.065
Mof_C 	C 	0.7618	0.54479	0.19548	-0.059
Mof_C 	C 	0.77848	0.35035	0.22116	0.335
Mof_C 	C 	0.75215	0.61517	0.21357	0.333
Mof_C 	C 	0.78201	0.4721	0.09829	-0.201
Mof_C 	C 	0.84633	0.4646	0.07957	0.22
Mof_C 	C 	0.84724	0.4621	0.04108	-0.226
Mof_H 	H 	0.8912	0.4569	0.0283	0.095
Mof_C 	C 	0.7838	0.4671	0.02132	0.098
Mof_C 	C 	0.71953	0.4747	0.04004	-0.237
Mof_H 	H 	0.6762	0.4782	0.0265	0.094
Mof_C 	C 	0.71861	0.4772	0.07853	0.247
Mof_C 	C 	0.9183	0.4454	0.10045	-0.538
Mof_H 	H 	0.9109	0.4489	0.1273	0.184
Mof_H 	H 	0.9326	0.3967	0.0941	0.176
Mof_H 	H 	0.9558	0.4787	0.0929	0.165
Mof_C 	C 	0.6508	0.4989	0.09884	-0.578
Mof_H 	H 	0.6111	0.501	0.0812	0.173
Mof_H 	H 	0.6401	0.4638	0.1182	0.188
Mof_H 	H 	0.6576	0.5459	0.1102	0.189
Mof_Cu	Cu	0.20137	0.79863	0.22637	0.905
Mof_Cu	Cu	0.26578	0.73422	0.28279	0.9
Mof_Cu	Cu	0.79863	0.20137	0.22637	0.905
Mof_Cu	Cu	0.73422	0.26578	0.28279	0.9
Mof_Cu	Cu	0.70137	0.70137	0.72637	0.905
Mof_Cu	Cu	0.76578	0.76578	0.78279	0.901
Mof_Cu	Cu	0.29863	0.29863	0.72637	0.905
Mof_Cu	Cu	0.23422	0.23422	0.78279	0.901
Mof_Cu	Cu	0.29863	0.29863	0.27363	0.905
Mof_Cu	Cu	0.23422	0.23422	0.21721	0.901
Mof_Cu	Cu	0.70137	0.70137	0.27363	0.905
Mof_Cu	Cu	0.76578	0.76578	0.21721	0.901
Mof_Cu	Cu	0.79863	0.20137	0.77363	0.905
Mof_Cu	Cu	0.73422	0.26578	0.71721	0.9
Mof_Cu	Cu	0.20137	0.79863	0.77363	0.905
Mof_Cu	Cu	0.26578	0.73422	0.71721	0.9
_end
