data_functionalizedCrystal
_audit_creation_method	'EQeq! by Chris Wilmer'
_symmetry_space_group_name_H-M	'P1'
_symmetry_Int_Tables_number	1
_symmetry_cell_setting	triclinic
loop_
_symmetry_equiv_pos_as_xyz
  x,y,z
_cell_length_a	19.612
_cell_length_b	20.64
_cell_length_c	21.567
_cell_angle_alpha	115.922
_cell_angle_beta	98.944
_cell_angle_gamma	100.421
loop_
_atom_site_label
_atom_site_type_symbol
_atom_site_fract_x
_atom_site_fract_y
_atom_site_fract_z
_atom_site_charge
Mof_C 	C 	0.6785	0.28641	0.17239	0.419
Mof_C 	C 	0.67183	0.36059	0.22258	-0.173
Mof_C 	C 	0.60432	0.371	0.2263	0.101
Mof_H 	H 	0.5634	0.3306	0.1993	0.008
Mof_C 	C 	0.59758	0.4407	0.2696	-0.178
Mof_H 	H 	0.5521	0.4465	0.2727	0.093
Mof_C 	C 	0.65733	0.50237	0.30878	0.123
Mof_C 	C 	0.72426	0.49072	0.30599	-0.177
Mof_H 	H 	0.7651	0.5311	0.3331	0.095
Mof_C 	C 	0.73208	0.42107	0.2642	0.1
Mof_H 	H 	0.7778	0.4146	0.2639	0.014
Mof_C 	C 	0.64936	0.57864	0.3498	-0.079
Mof_C 	C 	0.5978	0.59103	0.3891	0.037
Mof_H 	H 	0.5696	0.5515	0.3919	0.017
Mof_C 	C 	0.6902	0.63878	0.34726	0.042
Mof_H 	H 	0.7248	0.6316	0.3219	0.018
Mof_C 	C 	0.61503	0.1004	0.20089	0.326
Mof_C 	C 	0.61891	0.054	0.23731	-0.121
Mof_C 	C 	0.6094	0.97703	0.19917	0.057
Mof_H 	H 	0.6029	0.9538	0.1499	0.025
Mof_C 	C 	0.60969	0.9355	0.23434	-0.145
Mof_H 	H 	0.6027	0.8841	0.2078	0.081
Mof_C 	C 	0.62003	0.967	0.30845	0.093
Mof_C 	C 	0.62861	0.0452	0.34615	-0.142
Mof_H 	H 	0.6345	0.0683	0.3953	0.079
Mof_C 	C 	0.62842	0.0875	0.31175	0.049
Mof_H 	H 	0.6346	0.1389	0.3379	0.027
Mof_C 	C 	0.6206	0.922	0.345	-0.077
Mof_C 	C 	0.5859	0.846	0.3106	0.044
Mof_H 	H 	0.5626	0.8224	0.2621	0.013
Mof_C 	C 	0.5847	0.8042	0.346	-0.175
Mof_H 	H 	0.5598	0.7535	0.3213	0.096
Mof_C 	C 	0.6556	0.954	0.4165	0.041
Mof_H 	H 	0.6801	0.0048	0.4418	0.014
Mof_C 	C 	0.64884	0.0733	0.97359	0.399
Mof_C 	C 	0.64188	0.02697	0.89521	-0.161
Mof_C 	C 	0.57593	0.99879	0.84651	0.089
Mof_H 	H 	0.5354	0.0082	0.862	0.014
Mof_C 	C 	0.56978	0.95658	0.77461	-0.166
Mof_H 	H 	0.5249	0.9376	0.742	0.096
Mof_C 	C 	0.63012	0.94196	0.75007	0.116
Mof_C 	C 	0.69594	0.971	0.80041	-0.169
Mof_H 	H 	0.7368	0.9621	0.7852	0.097
Mof_C 	C 	0.70234	0.01232	0.87157	0.092
Mof_H 	H 	0.7471	0.0307	0.9044	0.02
Mof_C 	C 	0.62333	0.89982	0.67211	-0.075
Mof_C 	C 	0.5761	0.90683	0.62191	0.042
Mof_H 	H 	0.5451	0.9361	0.637	0.016
Mof_C 	C 	0.5738	0.8722	0.5513	-0.165
Mof_H 	H 	0.5426	0.8794	0.5194	0.092
Mof_C 	C 	0.6177	0.82609	0.5265	0.144
Mof_C 	C 	0.6644	0.81659	0.57542	-0.16
Mof_H 	H 	0.6941	0.7858	0.5598	0.089
Mof_C 	C 	0.6668	0.85243	0.6465	0.038
Mof_H 	H 	0.698	0.8452	0.6785	0.016
Mof_C 	C 	0.6198	0.8365	0.4175	0.163
Mof_C 	C 	0.6544	0.9101	0.4512	-0.18
Mof_H 	H 	0.6784	0.9329	0.4994	0.098
Mof_C 	C 	0.6809	0.7086	0.38107	-0.169
Mof_H 	H 	0.7087	0.7479	0.3777	0.093
Mof_C 	C 	0.5892	0.6619	0.4236	-0.163
Mof_H 	H 	0.5551	0.6698	0.4495	0.092
Mof_C 	C 	0.4371	0.07527	0.01469	0.113
Mof_H 	H 	0.4534	0.0472	0.9758	-0.017
Mof_C 	C 	0.46082	0.16064	0.13517	0.125
Mof_H 	H 	0.4935	0.1908	0.1798	-0.014
Mof_C 	C 	0.3914	0.1594	0.1284	-0.208
Mof_H 	H 	0.3767	0.1893	0.1677	0.115
Mof_C 	C 	0.34127	0.1131	0.0622	0.184
Mof_C 	C 	0.36515	0.07072	0.0051	-0.209
Mof_H 	H 	0.3329	0.0392	0.9604	0.122
Mof_C 	C 	0.1662	0.1353	0.0869	0.217
Mof_C 	C 	0.6308	0.7217	0.42018	0.146
Mof_C 	C 	0.0452	0.0947	0.0169	0.145
Mof_H 	H 	0.0104	0.0601	0.9748	-0.024
Mof_C 	C 	0.1156	0.0862	0.0263	-0.236
Mof_H 	H 	0.1266	0.0469	0.9907	0.133
Mof_C 	C 	0.0771	0.1912	0.1277	0.144
Mof_H 	H 	0.0644	0.2268	0.1652	-0.017
Mof_C 	C 	0.1451	0.1846	0.1397	-0.245
Mof_H 	H 	0.1771	0.2145	0.1848	0.121
Mof_N 	N 	0.4848	0.11968	0.0794	-0.268
Mof_N 	N 	0.2644	0.10774	0.04831	-0.095
Mof_N 	N 	0.24204	0.1357	0.1007	-0.104
Mof_N 	N 	0.0275	0.14921	0.06484	-0.271
Mof_N 	N 	0.6174	0.79324	0.45268	-0.183
Mof_O 	O 	0.62091	0.23712	0.13162	-0.52
Mof_O 	O 	0.74063	0.27883	0.17156	-0.496
Mof_O 	O 	0.61709	0.06879	0.13482	-0.46
Mof_O 	O 	0.71076	0.0993	0.01619	-0.517
Mof_O 	O 	0.59171	0.08276	0.99123	-0.495
Mof_O 	O 	0.60778	0.16385	0.23185	-0.319
Mof_Zn	Zn	0.76475	0.2025	0.09087	1.212
Mof_Zn	Zn	0.59183	0.12918	0.09238	1.218
Mof_C 	C 	0.84987	0.11944	0.141	0.432
Mof_C 	C 	0.85138	0.07372	0.17857	-0.184
Mof_C 	C 	0.9036	0.0367	0.1775	0.115
Mof_H 	H 	0.9377	0.0399	0.1527	0.003
Mof_C 	C 	0.9056	0.9949	0.2128	-0.191
Mof_H 	H 	0.9416	0.971	0.2117	0.102
Mof_C 	C 	0.85603	0.98741	0.24968	0.141
Mof_C 	C 	0.85761	0.94154	0.28549	-0.101
Mof_C 	C 	0.9137	0.9129	0.2933	0.061
Mof_H 	H 	0.9517	0.9227	0.2748	0.009
Mof_C 	C 	0.8018	0.9247	0.315	0.068
Mof_H 	H 	0.7624	0.9432	0.3114	0.007
Mof_C 	C 	0.9138	0.2955	0.1249	0.385
Mof_C 	C 	0.90564	0.3717	0.1649	-0.203
Mof_C 	C 	0.9541	0.4223	0.2286	0.124
Mof_H 	H 	0.9918	0.4084	0.2467	0.002
Mof_C 	C 	0.9477	0.49507	0.2673	-0.197
Mof_H 	H 	0.9811	0.5287	0.3108	0.101
Mof_C 	C 	0.8448	0.46542	0.1771	-0.196
Mof_H 	H 	0.8071	0.4791	0.1587	0.098
Mof_C 	C 	0.8514	0.39289	0.13892	0.126
Mof_H 	H 	0.8183	0.359	0.0954	-0.028
Mof_C 	C 	0.88607	0.59374	0.2832	-0.095
Mof_C 	C 	0.91087	0.63549	0.35649	0.051
Mof_H 	H 	0.9331	0.615	0.3819	0.01
Mof_C 	C 	0.9045	0.1139	0.9167	0.328
Mof_C 	C 	0.8959	0.0688	0.8386	-0.121
Mof_C 	C 	0.88597	0.9919	0.80729	0.053
Mof_H 	H 	0.8827	0.9682	0.8352	0.027
Mof_C 	C 	0.88089	0.95005	0.73598	-0.149
Mof_H 	H 	0.8748	0.8987	0.7168	0.082
Mof_C 	C 	0.88453	0.98206	0.69226	0.097
Mof_C 	C 	0.8932	0.0595	0.7233	-0.143
Mof_H 	H 	0.8945	0.0828	0.695	0.08
Mof_C 	C 	0.9	0.102	0.796	0.057
Mof_H 	H 	0.9074	0.1536	0.8159	0.025
Mof_C 	C 	0.88044	0.93817	0.61614	-0.068
Mof_C 	C 	0.84865	0.86026	0.57781	0.035
Mof_H 	H 	0.8305	0.8357	0.6016	0.015
Mof_C 	C 	0.84345	0.81896	0.50593	-0.163
Mof_H 	H 	0.8212	0.7676	0.482	0.089
Mof_C 	C 	0.87106	0.85339	0.46928	0.143
Mof_C 	C 	0.9031	0.93009	0.50575	-0.159
Mof_H 	H 	0.9225	0.9538	0.4819	0.09
Mof_C 	C 	0.9064	0.9715	0.5768	0.033
Mof_H 	H 	0.9265	0.0232	0.5996	0.017
Mof_C 	C 	0.8608	0.85579	0.35601	0.164
Mof_C 	C 	0.9166	0.8696	0.3278	-0.184
Mof_H 	H 	0.9555	0.8504	0.3317	0.097
Mof_C 	C 	0.8039	0.8824	0.3482	-0.195
Mof_H 	H 	0.7656	0.8716	0.366	0.104
Mof_C 	C 	0.8713	0.73944	0.35839	0.157
Mof_C 	C 	0.90375	0.70741	0.3938	-0.178
Mof_H 	H 	0.9212	0.7339	0.4433	0.095
Mof_C 	C 	0.8526	0.62765	0.24796	0.054
Mof_H 	H 	0.8345	0.6014	0.1985	0.01
Mof_C 	C 	0.8461	0.69833	0.28493	-0.178
Mof_H 	H 	0.8241	0.7194	0.2599	0.096
Mof_C 	C 	0.80183	0.0677	0.2148	0.115
Mof_H 	H 	0.7665	0.0925	0.2162	0.009
Mof_C 	C 	0.8937	0.51689	0.24191	0.143
Mof_C 	C 	0.8035	0.0249	0.2498	-0.186
Mof_H 	H 	0.7687	0.0212	0.2739	0.101
Mof_N 	N 	0.86406	0.81342	0.394	-0.183
Mof_O 	O 	0.80912	0.16155	0.15241	-0.466
Mof_O 	O 	0.85997	0.24244	0.07711	-0.581
Mof_O 	O 	0.97289	0.28247	0.13449	-0.404
Mof_O 	O 	0.88535	0.0802	0.95058	-0.427
Mof_O 	O 	0.89068	0.11106	0.10019	-0.487
Mof_O 	O 	0.93198	0.18225	0.94797	-0.352
Mof_Zn	Zn	0.92633	0.16493	0.05037	1.225
Mof_C 	C 	0.3215	0.71359	0.82761	0.42
Mof_C 	C 	0.32817	0.63941	0.77742	-0.172
Mof_C 	C 	0.39568	0.629	0.7737	0.102
Mof_H 	H 	0.4366	0.6694	0.8007	0.009
Mof_C 	C 	0.40242	0.5593	0.7304	-0.177
Mof_H 	H 	0.4479	0.5535	0.7273	0.094
Mof_C 	C 	0.34267	0.49763	0.69122	0.123
Mof_C 	C 	0.27574	0.50928	0.69401	-0.177
Mof_H 	H 	0.2349	0.4689	0.6669	0.095
Mof_C 	C 	0.26792	0.57893	0.7358	0.1
Mof_H 	H 	0.2222	0.5854	0.7361	0.014
Mof_C 	C 	0.35064	0.42136	0.6502	-0.079
Mof_C 	C 	0.4022	0.40897	0.6109	0.037
Mof_H 	H 	0.4304	0.4485	0.6081	0.017
Mof_C 	C 	0.3098	0.36122	0.65274	0.042
Mof_H 	H 	0.2752	0.3684	0.6781	0.018
Mof_C 	C 	0.38497	0.8996	0.79911	0.326
Mof_C 	C 	0.38109	0.946	0.76269	-0.121
Mof_C 	C 	0.3906	0.02297	0.80083	0.057
Mof_H 	H 	0.3971	0.0462	0.8501	0.025
Mof_C 	C 	0.39031	0.0645	0.76566	-0.145
Mof_H 	H 	0.3973	0.1159	0.7922	0.081
Mof_C 	C 	0.37997	0.033	0.69155	0.093
Mof_C 	C 	0.37139	0.9548	0.65385	-0.142
Mof_H 	H 	0.3655	0.9317	0.6047	0.079
Mof_C 	C 	0.37158	0.9125	0.68825	0.049
Mof_H 	H 	0.3654	0.8611	0.6621	0.027
Mof_C 	C 	0.3794	0.078	0.655	-0.077
Mof_C 	C 	0.4141	0.154	0.6894	0.044
Mof_H 	H 	0.4374	0.1776	0.7379	0.013
Mof_C 	C 	0.4153	0.1958	0.654	-0.175
Mof_H 	H 	0.4402	0.2465	0.6787	0.096
Mof_C 	C 	0.3444	0.046	0.5835	0.041
Mof_H 	H 	0.3199	0.9952	0.5582	0.014
Mof_C 	C 	0.35116	0.9267	0.02641	0.399
Mof_C 	C 	0.35812	0.97303	0.10479	-0.161
Mof_C 	C 	0.42407	0.00121	0.15349	0.089
Mof_H 	H 	0.4646	0.9918	0.138	0.014
Mof_C 	C 	0.43022	0.04342	0.22539	-0.166
Mof_H 	H 	0.4751	0.0624	0.258	0.096
Mof_C 	C 	0.36988	0.05804	0.24993	0.116
Mof_C 	C 	0.30406	0.029	0.19959	-0.169
Mof_H 	H 	0.2632	0.0379	0.2148	0.097
Mof_C 	C 	0.29766	0.98768	0.12843	0.092
Mof_H 	H 	0.2529	0.9693	0.0956	0.02
Mof_C 	C 	0.37667	0.10018	0.32789	-0.075
Mof_C 	C 	0.4239	0.09317	0.37809	0.042
Mof_H 	H 	0.4549	0.0639	0.363	0.016
Mof_C 	C 	0.4262	0.1278	0.4487	-0.165
Mof_H 	H 	0.4574	0.1206	0.4806	0.092
Mof_C 	C 	0.3823	0.17391	0.4735	0.144
Mof_C 	C 	0.3356	0.18341	0.42458	-0.16
Mof_H 	H 	0.3059	0.2142	0.4402	0.089
Mof_C 	C 	0.3332	0.14757	0.3535	0.038
Mof_H 	H 	0.302	0.1548	0.3215	0.016
Mof_C 	C 	0.3802	0.1635	0.5825	0.163
Mof_C 	C 	0.3456	0.0899	0.5488	-0.18
Mof_H 	H 	0.3216	0.0671	0.5006	0.098
Mof_C 	C 	0.3191	0.2914	0.61893	-0.169
Mof_H 	H 	0.2913	0.2521	0.6223	0.093
Mof_C 	C 	0.4108	0.3381	0.5764	-0.163
Mof_H 	H 	0.4449	0.3302	0.5505	0.092
Mof_C 	C 	0.5629	0.92473	0.98531	0.113
Mof_H 	H 	0.5466	0.9528	0.0242	-0.017
Mof_C 	C 	0.53918	0.83936	0.86483	0.125
Mof_H 	H 	0.5065	0.8092	0.8202	-0.014
Mof_C 	C 	0.6086	0.8406	0.8716	-0.208
Mof_H 	H 	0.6233	0.8107	0.8323	0.115
Mof_C 	C 	0.65873	0.8869	0.9378	0.184
Mof_C 	C 	0.63485	0.92928	0.9949	-0.209
Mof_H 	H 	0.6671	0.9608	0.0396	0.122
Mof_C 	C 	0.8338	0.8647	0.9131	0.217
Mof_C 	C 	0.3692	0.2783	0.57982	0.146
Mof_C 	C 	0.9548	0.9053	0.9831	0.145
Mof_H 	H 	0.9896	0.9399	0.0252	-0.024
Mof_C 	C 	0.8844	0.9138	0.9737	-0.236
Mof_H 	H 	0.8734	0.9531	0.0093	0.133
Mof_C 	C 	0.9229	0.8088	0.8723	0.144
Mof_H 	H 	0.9356	0.7732	0.8348	-0.017
Mof_C 	C 	0.8549	0.8154	0.8603	-0.245
Mof_H 	H 	0.8229	0.7855	0.8152	0.121
Mof_N 	N 	0.5152	0.88032	0.9206	-0.268
Mof_N 	N 	0.7356	0.89226	0.95169	-0.095
Mof_N 	N 	0.75796	0.8643	0.8993	-0.104
Mof_N 	N 	0.9725	0.85079	0.93516	-0.271
Mof_N 	N 	0.3826	0.20676	0.54732	-0.183
Mof_O 	O 	0.37909	0.76288	0.86838	-0.52
Mof_O 	O 	0.25937	0.72117	0.82844	-0.496
Mof_O 	O 	0.38291	0.93121	0.86518	-0.46
Mof_O 	O 	0.28924	0.9007	0.98381	-0.517
Mof_O 	O 	0.40829	0.91724	0.00877	-0.495
Mof_O 	O 	0.39222	0.83615	0.76815	-0.319
Mof_Zn	Zn	0.23525	0.7975	0.90913	1.212
Mof_Zn	Zn	0.40817	0.87082	0.90762	1.218
Mof_C 	C 	0.15013	0.88056	0.859	0.432
Mof_C 	C 	0.14862	0.92628	0.82143	-0.184
Mof_C 	C 	0.0964	0.9633	0.8225	0.115
Mof_H 	H 	0.0623	0.9601	0.8473	0.003
Mof_C 	C 	0.0944	0.0051	0.7872	-0.191
Mof_H 	H 	0.0584	0.029	0.7883	0.102
Mof_C 	C 	0.14397	0.01259	0.75032	0.141
Mof_C 	C 	0.14239	0.05846	0.71451	-0.101
Mof_C 	C 	0.0863	0.0871	0.7067	0.061
Mof_H 	H 	0.0483	0.0773	0.7252	0.009
Mof_C 	C 	0.1982	0.0753	0.685	0.068
Mof_H 	H 	0.2376	0.0568	0.6886	0.007
Mof_C 	C 	0.0862	0.7045	0.8751	0.385
Mof_C 	C 	0.09436	0.6283	0.8351	-0.203
Mof_C 	C 	0.0459	0.5777	0.7714	0.124
Mof_H 	H 	0.0082	0.5916	0.7533	0.002
Mof_C 	C 	0.0523	0.50493	0.7327	-0.197
Mof_H 	H 	0.0189	0.4713	0.6892	0.101
Mof_C 	C 	0.1552	0.53458	0.8229	-0.196
Mof_H 	H 	0.1929	0.5209	0.8413	0.098
Mof_C 	C 	0.1486	0.60711	0.86108	0.126
Mof_H 	H 	0.1817	0.641	0.9046	-0.028
Mof_C 	C 	0.11393	0.40626	0.7168	-0.095
Mof_C 	C 	0.08913	0.36451	0.64351	0.051
Mof_H 	H 	0.0669	0.385	0.6181	0.01
Mof_C 	C 	0.0955	0.8861	0.0833	0.328
Mof_C 	C 	0.1041	0.9312	0.1614	-0.121
Mof_C 	C 	0.11403	0.0081	0.19271	0.053
Mof_H 	H 	0.1173	0.0318	0.1648	0.027
Mof_C 	C 	0.11911	0.04995	0.26402	-0.149
Mof_H 	H 	0.1252	0.1013	0.2832	0.082
Mof_C 	C 	0.11547	0.01794	0.30774	0.097
Mof_C 	C 	0.1068	0.9405	0.2767	-0.143
Mof_H 	H 	0.1055	0.9172	0.305	0.08
Mof_C 	C 	0.1	0.898	0.204	0.057
Mof_H 	H 	0.0926	0.8464	0.1841	0.025
Mof_C 	C 	0.11956	0.06183	0.38386	-0.068
Mof_C 	C 	0.15135	0.13974	0.42219	0.035
Mof_H 	H 	0.1695	0.1643	0.3984	0.015
Mof_C 	C 	0.15655	0.18104	0.49407	-0.163
Mof_H 	H 	0.1788	0.2324	0.518	0.089
Mof_C 	C 	0.12894	0.14661	0.53072	0.143
Mof_C 	C 	0.0969	0.06991	0.49425	-0.159
Mof_H 	H 	0.0775	0.0462	0.5181	0.09
Mof_C 	C 	0.0936	0.0285	0.4232	0.033
Mof_H 	H 	0.0735	0.9768	0.4004	0.017
Mof_C 	C 	0.1392	0.14421	0.64399	0.164
Mof_C 	C 	0.0834	0.1304	0.6722	-0.184
Mof_H 	H 	0.0445	0.1496	0.6683	0.097
Mof_C 	C 	0.1961	0.1176	0.6518	-0.195
Mof_H 	H 	0.2344	0.1284	0.634	0.104
Mof_C 	C 	0.1287	0.26056	0.64161	0.157
Mof_C 	C 	0.09625	0.29259	0.6062	-0.178
Mof_H 	H 	0.0788	0.2661	0.5567	0.095
Mof_C 	C 	0.1474	0.37235	0.75204	0.054
Mof_H 	H 	0.1655	0.3986	0.8015	0.01
Mof_C 	C 	0.1539	0.30167	0.71507	-0.178
Mof_H 	H 	0.1759	0.2806	0.7401	0.096
Mof_C 	C 	0.19817	0.9323	0.7852	0.115
Mof_H 	H 	0.2335	0.9075	0.7838	0.009
Mof_C 	C 	0.1063	0.48311	0.75809	0.143
Mof_C 	C 	0.1965	0.9751	0.7502	-0.186
Mof_H 	H 	0.2313	0.9788	0.7261	0.101
Mof_N 	N 	0.13594	0.18658	0.606	-0.183
Mof_O 	O 	0.19088	0.83845	0.84759	-0.466
Mof_O 	O 	0.14003	0.75756	0.92289	-0.581
Mof_O 	O 	0.02711	0.71753	0.86551	-0.404
Mof_O 	O 	0.11465	0.9198	0.04942	-0.427
Mof_O 	O 	0.10932	0.88894	0.89981	-0.487
Mof_O 	O 	0.06802	0.81775	0.05203	-0.352
Mof_Zn	Zn	0.07367	0.83507	0.94963	1.225
_end
