data_functionalizedCrystal
_audit_creation_method	'EQeq! by Chris Wilmer'
_symmetry_space_group_name_H-M	'P1'
_symmetry_Int_Tables_number	1
_symmetry_cell_setting	triclinic
loop_
_symmetry_equiv_pos_as_xyz
  x,y,z
_cell_length_a	13.606
_cell_length_b	14.368
_cell_length_c	23.1595
_cell_angle_alpha	91.7173
_cell_angle_beta	90
_cell_angle_gamma	90
loop_
_atom_site_label
_atom_site_type_symbol
_atom_site_fract_x
_atom_site_fract_y
_atom_site_fract_z
_atom_site_charge
Mof_Mn	Mn	0.50157	0.03048	0.24553	0.961
Mof_Mn	Mn	0.48594	0.84781	0.63345	0.9
Mof_Mn	Mn	0.99843	0.53048	0.74553	0.962
Mof_Mn	Mn	0.78133	0.47062	0.33801	0.895
Mof_Mn	Mn	0.25283	0.73517	0.61042	0.98
Mof_Mn	Mn	0.75283	0.76483	0.88958	0.98
Mof_Mn	Mn	0.49843	0.96952	0.75447	0.961
Mof_Mn	Mn	0.51406	0.15219	0.36655	0.9
Mof_Mn	Mn	0.98594	0.65219	0.86655	0.899
Mof_Mn	Mn	0.24717	0.23517	0.11042	0.981
Mof_Mn	Mn	0.00157	0.46952	0.25447	0.963
Mof_Mn	Mn	0.21867	0.52938	0.66199	0.896
Mof_Mn	Mn	0.28133	0.02938	0.16199	0.895
Mof_Mn	Mn	0.74717	0.26483	0.38958	0.981
Mof_Mn	Mn	0.01406	0.34781	0.13345	0.899
Mof_Mn	Mn	0.71867	0.97062	0.83801	0.895
Mof_H 	H 	0.0174	0.3223	0.5912	0.156
Mof_H 	H 	0.2167	0.7347	0.8389	0.127
Mof_H 	H 	0.7289	0.8557	0.626	0.114
Mof_H 	H 	0.9063	0.5382	0.9859	0.111
Mof_H 	H 	0.1872	0.3208	0.9407	-0.037
Mof_H 	H 	0.2719	0.4566	0.954	0.08
Mof_H 	H 	0.0764	0.6257	0.4788	0
Mof_H 	H 	0.2711	0.1443	0.374	0.114
Mof_H 	H 	0.265	0.4548	0.4703	0.142
Mof_H 	H 	0.2833	0.2347	0.3389	0.127
Mof_H 	H 	0.8215	0.4902	0.0661	0.069
Mof_H 	H 	0.7167	0.7653	0.6611	0.127
Mof_H 	H 	0.7105	0.4472	0.5541	0.149
Mof_H 	H 	0.8865	0.0693	0.1442	0.015
Mof_H 	H 	0.9509	0.5801	0.4301	0.161
Mof_H 	H 	0.9531	0.007	0.8453	0.137
Mof_H 	H 	0.7833	0.2653	0.1611	0.127
Mof_H 	H 	0.6071	0.0219	0.0367	0.017
Mof_H 	H 	0.8798	0.8845	0.6769	0.043
Mof_H 	H 	0.7656	0.5098	0.7313	0.152
Mof_H 	H 	0.2344	0.4902	0.2687	0.152
Mof_H 	H 	0.7777	0.6025	0.698	0.153
Mof_H 	H 	0.6785	0.9902	0.5661	0.07
Mof_H 	H 	0.3128	0.8208	0.4407	-0.038
Mof_H 	H 	0.6112	0.4752	0.6767	0.01
Mof_H 	H 	0.4686	0.8534	0.4289	0.192
Mof_H 	H 	0.7895	0.9472	0.0541	0.153
Mof_H 	H 	0.8123	0.4812	0.968	0.103
Mof_H 	H 	0.5747	0.1962	0.6265	0.198
Mof_H 	H 	0.8448	0.5024	0.596	0.036
Mof_H 	H 	0.5314	0.1466	0.5711	0.192
Mof_H 	H 	0.1552	0.4976	0.404	0.036
Mof_H 	H 	0.0325	0.7564	0.5794	0.156
Mof_H 	H 	0.3798	0.6155	0.8231	0.043
Mof_H 	H 	0.5325	0.7436	0.9206	0.156
Mof_H 	H 	0.3666	0.78	0.8921	0.007
Mof_H 	H 	0.735	0.5452	0.5297	0.142
Mof_H 	H 	0.0314	0.3534	0.9289	0.192
Mof_H 	H 	0.8929	0.5219	0.5367	0.026
Mof_H 	H 	0.9675	0.2436	0.4206	0.156
Mof_H 	H 	0.6312	0.2854	0.203	0.054
Mof_H 	H 	0.0469	0.993	0.1547	0.137
Mof_H 	H 	0.3853	0.6808	0.9159	-0.004
Mof_H 	H 	0.1334	0.28	0.3921	0.007
Mof_H 	H 	0.7845	0.6271	0.1147	-0.043
Mof_H 	H 	0.366	0.1519	0.9238	0.024
Mof_H 	H 	0.2289	0.6443	0.874	0.114
Mof_H 	H 	0.6086	0.5616	0.7654	0.033
Mof_H 	H 	0.9558	0.9691	0.7814	0.147
Mof_H 	H 	0.6872	0.1792	0.5593	-0.038
Mof_H 	H 	0.2223	0.3975	0.302	0.153
Mof_H 	H 	0.7719	0.0434	0.546	0.081
Mof_H 	H 	0.0442	0.0309	0.2186	0.147
Mof_H 	H 	0.2895	0.5528	0.4459	0.149
Mof_H 	H 	0.2845	0.8729	0.3853	-0.044
Mof_H 	H 	0.7223	0.1025	0.198	0.153
Mof_H 	H 	0.7344	0.0098	0.2313	0.152
Mof_H 	H 	0.866	0.3481	0.5762	0.016
Mof_H 	H 	0.3795	0.347	0.2692	0.048
Mof_H 	H 	0.5491	0.0801	0.9301	0.156
Mof_H 	H 	0.765	0.0452	0.0297	0.145
Mof_H 	H 	0.2155	0.3729	0.8853	-0.043
Mof_H 	H 	0.6135	0.5693	0.6442	0.016
Mof_H 	H 	0.3865	0.4307	0.3558	0.016
Mof_H 	H 	0.4675	0.2564	0.0794	0.156
Mof_H 	H 	0.3914	0.4384	0.2346	0.033
Mof_H 	H 	0.0491	0.4199	0.5699	0.161
Mof_H 	H 	0.3448	0.9976	0.904	0.027
Mof_H 	H 	0.3123	0.0188	0.532	0.102
Mof_H 	H 	0.1147	0.1808	0.4159	-0.003
Mof_H 	H 	0.3215	0.0098	0.4339	0.07
Mof_H 	H 	0.4826	0.8223	0.0912	0.149
Mof_H 	H 	0.8888	0.9752	0.1767	0.01
Mof_H 	H 	0.6205	0.653	0.7308	0.048
Mof_H 	H 	0.1086	0.9384	0.7346	0.034
Mof_H 	H 	0.1877	0.5188	0.032	0.103
Mof_H 	H 	0.1135	0.9307	0.8558	0.015
Mof_H 	H 	0.634	0.8481	0.0762	0.024
Mof_H 	H 	0.3888	0.5248	0.3233	0.01
Mof_H 	H 	0.9686	0.6466	0.0711	0.192
Mof_H 	H 	0.4614	0.3175	0.1362	0.162
Mof_H 	H 	0.5174	0.1777	0.9088	0.149
Mof_H 	H 	0.4236	0.1257	0.9788	0.009
Mof_H 	H 	0.1205	0.847	0.7692	0.049
Mof_H 	H 	0.3688	0.7146	0.797	0.054
Mof_H 	H 	0.235	0.9548	0.9703	0.145
Mof_H 	H 	0.8914	0.0616	0.2654	0.034
Mof_H 	H 	0.1112	0.0248	0.8233	0.01
Mof_H 	H 	0.0937	0.4618	0.0141	0.111
Mof_H 	H 	0.2105	0.0528	0.9459	0.153
Mof_H 	H 	0.1312	0.2146	0.297	0.054
Mof_H 	H 	0.8795	0.153	0.2308	0.049
Mof_H 	H 	0.9826	0.6777	0.4088	0.156
Mof_H 	H 	0.5469	0.507	0.3453	0.134
Mof_H 	H 	0.8853	0.8192	0.5841	-0.003
Mof_H 	H 	0.4531	0.493	0.6547	0.134
Mof_H 	H 	0.4509	0.9199	0.0699	0.156
Mof_H 	H 	0.6147	0.3192	0.0841	-0.004
Mof_H 	H 	0.134	0.6519	0.4238	0.016
Mof_H 	H 	0.0386	0.8175	0.6362	0.162
Mof_H 	H 	0.5764	0.8743	0.0212	0.009
Mof_H 	H 	0.4558	0.5309	0.7186	0.146
Mof_H 	H 	0.1071	0.4781	0.4633	0.026
Mof_H 	H 	0.4253	0.8038	0.3735	0.198
Mof_H 	H 	0.6202	0.3845	0.1769	0.043
Mof_H 	H 	0.3929	0.9781	0.9633	0.017
Mof_H 	H 	0.8688	0.7854	0.703	0.054
Mof_H 	H 	0.2656	0.9902	0.7687	0.152
Mof_H 	H 	0.9614	0.1825	0.3638	0.162
Mof_H 	H 	0.6877	0.9812	0.468	0.102
Mof_H 	H 	0.1785	0.5098	0.9339	0.069
Mof_H 	H 	0.1202	0.1155	0.3231	0.043
Mof_H 	H 	0.8666	0.72	0.6079	0.007
Mof_H 	H 	0.2777	0.8975	0.802	0.153
Mof_H 	H 	0.9253	0.6962	0.1265	0.197
Mof_H 	H 	0.9236	0.3743	0.5212	0
Mof_H 	H 	0.7281	0.5434	0.046	0.08
Mof_H 	H 	0.4063	0.9618	0.5141	0.111
Mof_H 	H 	0.8128	0.6792	0.0593	-0.037
Mof_H 	H 	0.5386	0.6825	0.8638	0.162
Mof_H 	H 	0.0747	0.3038	0.8735	0.197
Mof_H 	H 	0.7155	0.1271	0.6147	-0.044
Mof_H 	H 	0.7711	0.3557	0.126	0.114
Mof_H 	H 	0.6552	0.0024	0.096	0.027
Mof_H 	H 	0.6334	0.22	0.1079	0.007
Mof_H 	H 	0.2281	0.9566	0.454	0.081
Mof_H 	H 	0.5937	0.0382	0.4859	0.111
Mof_H 	H 	0.5442	0.4691	0.2814	0.146
Mof_C 	C 	0.6012	0.2792	0.1161	0.07
Mof_C 	C 	0.7504	0.0756	0.2322	-0.41
Mof_C 	C 	0.9776	0.9569	0.8203	-0.432
Mof_C 	C 	0.7423	0.8284	0.663	-0.36
Mof_C 	C 	0.245	0.5606	0.5303	0.472
Mof_C 	C 	0.4919	0.2627	0.1187	-0.45
Mof_C 	C 	0.5905	0.8945	0.0606	0.05
Mof_C 	C 	0.7049	0.1215	0.2852	0.495
Mof_C 	C 	0.3988	0.7208	0.8839	0.07
Mof_C 	C 	0.0415	0.6795	0.6509	0.488
Mof_C 	C 	0.9989	0.3875	0.5912	-0.442
Mof_C 	C 	0.255	0.0606	0.0303	0.473
Mof_C 	C 	0.2577	0.1716	0.337	-0.36
Mof_C 	C 	0.835	0.5392	0.986	-0.271
Mof_C 	C 	0.335	0.9608	0.514	-0.268
Mof_C 	C 	0.4776	0.5431	0.6797	-0.426
Mof_C 	C 	0.999	0.5755	0.3471	0.449
Mof_C 	C 	0.1364	0.9128	0.7692	-0.017
Mof_C 	C 	0.2566	0.0191	0.9694	-0.41
Mof_C 	C 	0.3281	0.875	0.4184	0.237
Mof_C 	C 	0.0686	0.132	0.1615	0.494
Mof_C 	C 	0.3525	0.0223	0.9432	0.021
Mof_C 	C 	0.2504	0.4244	0.2678	-0.411
Mof_C 	C 	0.5011	0.8875	0.0912	-0.421
Mof_C 	C 	0.7007	0.0454	0.5468	-0.17
Mof_C 	C 	0.6469	0.3226	0.17	-0.048
Mof_C 	C 	0.5366	0.061	0.6399	0.512
Mof_C 	C 	0.6475	0.9777	0.0568	0.021
Mof_C 	C 	0.7993	0.5454	0.0468	-0.166
Mof_C 	C 	0.1475	0.5223	0.4432	-0.007
Mof_C 	C 	0.755	0.4394	0.4697	0.472
Mof_C 	C 	0.499	0.9245	0.1529	0.441
Mof_C 	C 	0.5686	0.368	0.3385	0.493
Mof_C 	C 	0.2005	0.3797	0.0493	0.388
Mof_C 	C 	0.685	0.8822	0.7082	0.452
Mof_C 	C 	0.4098	0.4603	0.3213	0.03
Mof_C 	C 	0.9314	0.868	0.8385	0.494
Mof_C 	C 	0.0905	0.6055	0.4394	0.077
Mof_C 	C 	0.1012	0.2208	0.3839	0.069
Mof_C 	C 	0.7577	0.3284	0.163	-0.359
Mof_C 	C 	0.185	0.6178	0.7918	0.452
Mof_C 	C 	0.5224	0.4569	0.3203	-0.426
Mof_C 	C 	0.4989	0.1125	0.9088	-0.421
Mof_C 	C 	0.815	0.3822	0.2082	0.452
Mof_C 	C 	0.0756	0.3612	0.8966	-0.557
Mof_C 	C 	0.2434	0.5191	0.4694	-0.399
Mof_C 	C 	0.165	0.4608	0.014	-0.271
Mof_C 	C 	0.2423	0.6716	0.837	-0.359
Mof_C 	C 	0.9244	0.6388	0.1034	-0.557
Mof_C 	C 	0.3636	0.4128	0.2692	-0.015
Mof_C 	C 	0.0081	0.7627	0.6187	-0.45
Mof_C 	C 	0.9095	0.3945	0.5606	0.077
Mof_C 	C 	0.5415	0.8205	0.8491	0.487
Mof_C 	C 	0.2007	0.4546	0.9532	-0.166
Mof_C 	C 	0.315	0.1178	0.2918	0.452
Mof_C 	C 	0.4095	0.1055	0.9394	0.05
Mof_C 	C 	0.8636	0.0872	0.2308	-0.017
Mof_C 	C 	0.2951	0.8785	0.7148	0.495
Mof_C 	C 	0.7434	0.9809	0.0306	-0.41
Mof_C 	C 	0.4244	0.8612	0.3966	-0.559
Mof_C 	C 	0.2496	0.9244	0.7678	-0.41
Mof_C 	C 	0.0224	0.0431	0.1797	-0.432
Mof_C 	C 	0.0011	0.6125	0.4088	-0.442
Mof_C 	C 	0.5902	0.5397	0.6787	0.03
Mof_C 	C 	0.0902	0.9603	0.8213	0.032
Mof_C 	C 	0.5756	0.1388	0.6034	-0.559
Mof_C 	C 	0.2993	0.9546	0.4532	-0.17
Mof_C 	C 	0.0366	0.439	0.8601	0.511
Mof_C 	C 	0.665	0.0392	0.486	-0.268
Mof_C 	C 	0.9919	0.2373	0.3813	-0.45
Mof_C 	C 	0.2995	0.8797	0.5493	0.387
Mof_C 	C 	0.6719	0.125	0.5816	0.237
Mof_C 	C 	0.001	0.4245	0.6529	0.449
Mof_C 	C 	0.501	0.0755	0.8471	0.441
Mof_C 	C 	0.4314	0.632	0.6615	0.493
Mof_C 	C 	0.7566	0.4809	0.5306	-0.399
Mof_C 	C 	0.8988	0.7792	0.6161	0.069
Mof_C 	C 	0.9634	0.561	0.1399	0.511
Mof_C 	C 	0.4634	0.939	0.3601	0.512
Mof_C 	C 	0.1469	0.1774	0.33	-0.047
Mof_C 	C 	0.9585	0.3205	0.3491	0.488
Mof_C 	C 	0.8531	0.8226	0.67	-0.047
Mof_C 	C 	0.8525	0.4777	0.5568	-0.007
Mof_C 	C 	0.1719	0.375	0.9184	0.233
Mof_C 	C 	0.6364	0.5872	0.7308	-0.015
Mof_C 	C 	0.7496	0.5756	0.7322	-0.411
Mof_C 	C 	0.7005	0.1203	0.4507	0.387
Mof_C 	C 	0.5081	0.7373	0.8813	-0.45
Mof_C 	C 	0.7995	0.6203	0.9507	0.388
Mof_C 	C 	0.9098	0.0397	0.1787	0.032
Mof_C 	C 	0.745	0.9394	0.9697	0.473
Mof_C 	C 	0.2049	0.3785	0.2148	0.495
Mof_C 	C 	0.4585	0.1795	0.1509	0.487
Mof_C 	C 	0.8281	0.625	0.0816	0.233
Mof_C 	C 	0.7951	0.6215	0.7852	0.495
Mof_C 	C 	0.3531	0.6774	0.83	-0.048
Mof_O 	O 	0.5097	0.9885	0.6121	-0.447
Mof_O 	O 	0.3855	0.8983	0.7049	-0.484
Mof_O 	O 	0.8855	0.6017	0.7951	-0.484
Mof_O 	O 	0.9178	0.5454	0.3267	-0.469
Mof_O 	O 	0.6353	0.1687	0.4261	-0.46
Mof_O 	O 	0.5186	0.1355	0.1798	-0.414
Mof_O 	O 	0.7703	0.4936	0.4293	-0.435
Mof_O 	O 	0.2456	0.825	0.6845	-0.436
Mof_O 	O 	0.9827	0.797	0.8459	-0.434
Mof_O 	O 	0.8668	0.3418	0.3537	-0.485
Mof_O 	O 	0.5822	0.0454	0.8267	-0.466
Mof_O 	O 	0.1605	0.1311	0.1537	-0.495
Mof_O 	O 	0.2895	0.3577	0.0539	-0.362
Mof_O 	O 	0.9642	0.5735	0.1931	-0.432
Mof_O 	O 	0.4827	0.703	0.6541	-0.433
Mof_O 	O 	0.4814	0.8645	0.8202	-0.414
Mof_O 	O 	0.5358	0.0735	0.6931	-0.432
Mof_O 	O 	0.9253	0.4302	0.6829	-0.387
Mof_O 	O 	0.273	0.0678	0.254	-0.412
Mof_O 	O 	0.5747	0.9302	0.1829	-0.384
Mof_O 	O 	0.7105	0.6423	0.9461	-0.362
Mof_O 	O 	0.7297	0.9936	0.9293	-0.436
Mof_O 	O 	0.0173	0.203	0.1541	-0.434
Mof_O 	O 	0.6145	0.1017	0.2951	-0.484
Mof_O 	O 	0.727	0.9322	0.746	-0.412
Mof_O 	O 	0.4178	0.9546	0.1733	-0.466
Mof_O 	O 	0.8395	0.8689	0.8463	-0.495
Mof_O 	O 	0.7456	0.675	0.8155	-0.436
Mof_O 	O 	0.4642	0.9265	0.3069	-0.432
Mof_O 	O 	0.1353	0.3313	0.0739	-0.46
Mof_O 	O 	0.2396	0.1454	0.036	-0.428
Mof_O 	O 	0.4087	0.125	0.2949	-0.478
Mof_O 	O 	0.1332	0.6582	0.6463	-0.485
Mof_O 	O 	0.7544	0.175	0.3155	-0.436
Mof_O 	O 	0.0913	0.625	0.7949	-0.477
Mof_O 	O 	0.2544	0.325	0.1845	-0.436
Mof_O 	O 	0.2297	0.5064	0.5707	-0.435
Mof_O 	O 	0.7895	0.1423	0.4461	-0.361
Mof_O 	O 	0.9903	0.4885	0.1121	-0.446
Mof_O 	O 	0.9814	0.6355	0.6798	-0.415
Mof_O 	O 	0.3668	0.1582	0.1463	-0.485
Mof_O 	O 	0.0822	0.4546	0.6733	-0.469
Mof_O 	O 	0.7604	0.8546	0.964	-0.428
Mof_O 	O 	0.0747	0.5698	0.3171	-0.387
Mof_O 	O 	0.4253	0.0698	0.8171	-0.384
Mof_O 	O 	0.2703	0.0064	0.0707	-0.436
Mof_O 	O 	0.7396	0.3546	0.464	-0.426
Mof_O 	O 	0.1145	0.3983	0.2049	-0.484
Mof_O 	O 	0.5913	0.875	0.7051	-0.478
Mof_O 	O 	0.8647	0.6687	0.9261	-0.46
Mof_O 	O 	0.4903	0.0115	0.3879	-0.447
Mof_O 	O 	0.6605	0.3689	0.3463	-0.494
Mof_O 	O 	0.0186	0.3645	0.3202	-0.415
Mof_O 	O 	0.6332	0.8418	0.8537	-0.485
Mof_O 	O 	0.5173	0.297	0.3459	-0.433
Mof_O 	O 	0.0097	0.5115	0.8879	-0.446
Mof_O 	O 	0.2604	0.6454	0.536	-0.426
Mof_O 	O 	0.3647	0.8313	0.5739	-0.46
Mof_O 	O 	0.9087	0.375	0.2051	-0.477
Mof_O 	O 	0.0358	0.4265	0.8069	-0.432
Mof_O 	O 	0.3395	0.6311	0.6537	-0.494
Mof_O 	O 	0.773	0.4322	0.246	-0.412
Mof_O 	O 	0.227	0.5678	0.754	-0.412
Mof_O 	O 	0.2105	0.8577	0.5539	-0.361
_end
