data_functionalizedCrystal
_audit_creation_method	'EQeq! by Chris Wilmer'
_symmetry_space_group_name_H-M	'P1'
_symmetry_Int_Tables_number	1
_symmetry_cell_setting	triclinic
loop_
_symmetry_equiv_pos_as_xyz
  x,y,z
_cell_length_a	23.5676
_cell_length_b	10.2415
_cell_length_c	16.2353
_cell_angle_alpha	90
_cell_angle_beta	108.115
_cell_angle_gamma	90
loop_
_atom_site_label
_atom_site_type_symbol
_atom_site_fract_x
_atom_site_fract_y
_atom_site_fract_z
_atom_site_charge
Mof_Ga	Ga	0.29799	0.09083	0.02449	3.067
Mof_Zn	Zn	0.12257	0.94329	0.89092	1.236
Mof_Zn	Zn	0.19794	0.75388	0.72244	1.246
Mof_P 	P 	0.23336	0.0127	0.82455	0.694
Mof_P 	P 	0.16927	0.84718	0.53668	0.695
Mof_P 	P 	0.16584	0.66552	0.8837	0.582
Mof_P 	P 	0.9991	0.8765	0.746	-0.172
Mof_O 	O 	0.24862	0.8907	0.7817	-0.463
Mof_O 	O 	0.2775	0.0164	0.9159	-0.922
Mof_O 	O 	0.24088	0.133	0.7729	-0.481
Mof_O 	O 	0.1688	0.0108	0.8228	-0.527
Mof_O 	O 	0.14826	0.8035	0.6128	-0.482
Mof_O 	O 	0.1355	0.028	0.0007	-0.474
Mof_O 	O 	0.23705	0.1306	0.0714	-0.965
Mof_O 	O 	0.34423	0.2427	0.0342	-0.902
Mof_O 	O 	0.14768	0.6898	0.7853	-0.445
Mof_O 	O 	0.35024	0.9756	0.1021	-0.791
Mof_O 	O 	0.1321	0.7592	0.9242	-0.427
Mof_O 	O 	0.23348	0.6872	0.926	-0.346
Mof_O 	O 	0.0414	0.9578	0.8191	-0.516
Mof_O 	O 	0.0342	0.7839	0.7074	-0.232
Mof_P 	P 	0.4825	0.413	0.7888	0.611
Mof_Ga	Ga	0.79799	0.59083	0.02449	3.11
Mof_Zn	Zn	0.62257	0.44329	0.89092	1.237
Mof_Zn	Zn	0.69794	0.25388	0.72244	1.246
Mof_P 	P 	0.73336	0.5127	0.82455	0.691
Mof_P 	P 	0.66927	0.34718	0.53668	0.694
Mof_P 	P 	0.66584	0.16552	0.8837	0.58
Mof_P 	P 	0.4991	0.3765	0.746	-0.17
Mof_O 	O 	0.74862	0.3907	0.7817	-0.457
Mof_O 	O 	0.7775	0.5164	0.9159	-0.935
Mof_O 	O 	0.74088	0.633	0.7729	-0.482
Mof_O 	O 	0.6688	0.5108	0.8228	-0.532
Mof_O 	O 	0.64826	0.3035	0.6128	-0.481
Mof_O 	O 	0.6355	0.528	0.0007	-0.472
Mof_O 	O 	0.73705	0.6306	0.0714	-0.97
Mof_O 	O 	0.84423	0.7427	0.0342	-0.9
Mof_O 	O 	0.64768	0.1898	0.7853	-0.444
Mof_O 	O 	0.85024	0.4756	0.1021	-0.804
Mof_O 	O 	0.6321	0.2592	0.9242	-0.424
Mof_O 	O 	0.73348	0.1872	0.926	-0.339
Mof_O 	O 	0.5414	0.4578	0.8191	-0.513
Mof_O 	O 	0.5342	0.2839	0.7074	-0.231
Mof_P 	P 	0.9825	0.913	0.7888	0.609
Mof_Ga	Ga	0.70201	0.09083	0.47551	3.099
Mof_Zn	Zn	0.87743	0.94329	0.60908	1.236
Mof_Zn	Zn	0.80206	0.75388	0.77756	1.246
Mof_P 	P 	0.76664	0.0127	0.67545	0.693
Mof_P 	P 	0.83073	0.84718	0.96332	0.69
Mof_P 	P 	0.83416	0.66552	0.6163	0.581
Mof_P 	P 	0.0009	0.8765	0.754	-0.164
Mof_O 	O 	0.75138	0.8907	0.7183	-0.46
Mof_O 	O 	0.7225	0.0164	0.5841	-0.933
Mof_O 	O 	0.75912	0.133	0.7271	-0.481
Mof_O 	O 	0.8312	0.0108	0.6772	-0.53
Mof_O 	O 	0.85174	0.8035	0.8872	-0.482
Mof_O 	O 	0.8645	0.028	0.4993	-0.471
Mof_O 	O 	0.76295	0.1306	0.4286	-0.97
Mof_O 	O 	0.65577	0.2427	0.4658	-0.904
Mof_O 	O 	0.85232	0.6898	0.7147	-0.444
Mof_O 	O 	0.64976	0.9756	0.3979	-0.801
Mof_O 	O 	0.8679	0.7592	0.5758	-0.426
Mof_O 	O 	0.76652	0.6872	0.574	-0.344
Mof_O 	O 	0.9586	0.9578	0.6809	-0.513
Mof_O 	O 	0.9658	0.7839	0.7926	-0.232
Mof_P 	P 	0.5175	0.413	0.7112	0.611
Mof_Ga	Ga	0.20201	0.59083	0.47551	3.105
Mof_Zn	Zn	0.37743	0.44329	0.60908	1.237
Mof_Zn	Zn	0.30206	0.25388	0.77756	1.246
Mof_P 	P 	0.26664	0.5127	0.67545	0.69
Mof_P 	P 	0.33073	0.34718	0.96332	0.698
Mof_P 	P 	0.33416	0.16552	0.6163	0.581
Mof_P 	P 	0.5009	0.3765	0.754	-0.17
Mof_O 	O 	0.25138	0.3907	0.7183	-0.457
Mof_O 	O 	0.2225	0.5164	0.5841	-0.934
Mof_O 	O 	0.25912	0.633	0.7271	-0.483
Mof_O 	O 	0.3312	0.5108	0.6772	-0.532
Mof_O 	O 	0.35174	0.3035	0.8872	-0.48
Mof_O 	O 	0.3645	0.528	0.4993	-0.471
Mof_O 	O 	0.26295	0.6306	0.4286	-0.97
Mof_O 	O 	0.15577	0.7427	0.4658	-0.904
Mof_O 	O 	0.35232	0.1898	0.7147	-0.443
Mof_O 	O 	0.14976	0.4756	0.3979	-0.803
Mof_O 	O 	0.3679	0.2592	0.5758	-0.426
Mof_O 	O 	0.26652	0.1872	0.574	-0.344
Mof_O 	O 	0.4586	0.4578	0.6809	-0.513
Mof_O 	O 	0.4658	0.2839	0.7926	-0.231
Mof_P 	P 	0.0175	0.913	0.7112	0.607
Mof_Ga	Ga	0.70201	0.90917	0.97551	3.066
Mof_Zn	Zn	0.87743	0.05671	0.10908	1.235
Mof_Zn	Zn	0.80206	0.24612	0.27756	1.245
Mof_P 	P 	0.76664	0.9873	0.17545	0.693
Mof_P 	P 	0.83073	0.15282	0.46332	0.694
Mof_P 	P 	0.83416	0.33448	0.1163	0.581
Mof_P 	P 	0.0009	0.1235	0.254	-0.172
Mof_O 	O 	0.75138	0.1093	0.2183	-0.463
Mof_O 	O 	0.7225	0.9836	0.0841	-0.922
Mof_O 	O 	0.75912	0.867	0.2271	-0.481
Mof_O 	O 	0.8312	0.9892	0.1772	-0.527
Mof_O 	O 	0.85174	0.1965	0.3872	-0.482
Mof_O 	O 	0.8645	0.972	0.9993	-0.474
Mof_O 	O 	0.76295	0.8694	0.9286	-0.965
Mof_O 	O 	0.65577	0.7573	0.9658	-0.902
Mof_O 	O 	0.85232	0.3102	0.2147	-0.445
Mof_O 	O 	0.64976	0.0244	0.8979	-0.791
Mof_O 	O 	0.8679	0.2408	0.0758	-0.427
Mof_O 	O 	0.76652	0.3128	0.074	-0.346
Mof_O 	O 	0.9586	0.0422	0.1809	-0.516
Mof_O 	O 	0.9658	0.2161	0.2926	-0.232
Mof_P 	P 	0.5175	0.587	0.2112	0.611
Mof_Ga	Ga	0.20201	0.40917	0.97551	3.11
Mof_Zn	Zn	0.37743	0.55671	0.10908	1.237
Mof_Zn	Zn	0.30206	0.74612	0.27756	1.246
Mof_P 	P 	0.26664	0.4873	0.17545	0.691
Mof_P 	P 	0.33073	0.65282	0.46332	0.694
Mof_P 	P 	0.33416	0.83448	0.1163	0.58
Mof_P 	P 	0.5009	0.6235	0.254	-0.17
Mof_O 	O 	0.25138	0.6093	0.2183	-0.457
Mof_O 	O 	0.2225	0.4836	0.0841	-0.935
Mof_O 	O 	0.25912	0.367	0.2271	-0.482
Mof_O 	O 	0.3312	0.4892	0.1772	-0.532
Mof_O 	O 	0.35174	0.6965	0.3872	-0.481
Mof_O 	O 	0.3645	0.472	0.9993	-0.472
Mof_O 	O 	0.26295	0.3694	0.9286	-0.97
Mof_O 	O 	0.15577	0.2573	0.9658	-0.9
Mof_O 	O 	0.35232	0.8102	0.2147	-0.444
Mof_O 	O 	0.14976	0.5244	0.8979	-0.804
Mof_O 	O 	0.3679	0.7408	0.0758	-0.424
Mof_O 	O 	0.26652	0.8128	0.074	-0.339
Mof_O 	O 	0.4586	0.5422	0.1809	-0.513
Mof_O 	O 	0.4658	0.7161	0.2926	-0.231
Mof_P 	P 	0.0175	0.087	0.2112	0.609
Mof_Ga	Ga	0.29799	0.90917	0.52449	3.099
Mof_Zn	Zn	0.12257	0.05671	0.39092	1.236
Mof_Zn	Zn	0.19794	0.24612	0.22244	1.246
Mof_P 	P 	0.23336	0.9873	0.32455	0.693
Mof_P 	P 	0.16927	0.15282	0.03668	0.69
Mof_P 	P 	0.16584	0.33448	0.3837	0.581
Mof_P 	P 	0.9991	0.1235	0.246	-0.164
Mof_O 	O 	0.24862	0.1093	0.2817	-0.46
Mof_O 	O 	0.2775	0.9836	0.4159	-0.933
Mof_O 	O 	0.24088	0.867	0.2729	-0.481
Mof_O 	O 	0.1688	0.9892	0.3228	-0.53
Mof_O 	O 	0.14826	0.1965	0.1128	-0.482
Mof_O 	O 	0.1355	0.972	0.5007	-0.471
Mof_O 	O 	0.23705	0.8694	0.5714	-0.97
Mof_O 	O 	0.34423	0.7573	0.5342	-0.904
Mof_O 	O 	0.14768	0.3102	0.2853	-0.444
Mof_O 	O 	0.35024	0.0244	0.6021	-0.801
Mof_O 	O 	0.1321	0.2408	0.4242	-0.426
Mof_O 	O 	0.23348	0.3128	0.426	-0.344
Mof_O 	O 	0.0414	0.0422	0.3191	-0.513
Mof_O 	O 	0.0342	0.2161	0.2074	-0.232
Mof_P 	P 	0.4825	0.587	0.2888	0.611
Mof_Ga	Ga	0.79799	0.40917	0.52449	3.105
Mof_Zn	Zn	0.62257	0.55671	0.39092	1.237
Mof_Zn	Zn	0.69794	0.74612	0.22244	1.246
Mof_P 	P 	0.73336	0.4873	0.32455	0.69
Mof_P 	P 	0.66927	0.65282	0.03668	0.698
Mof_P 	P 	0.66584	0.83448	0.3837	0.581
Mof_P 	P 	0.4991	0.6235	0.246	-0.17
Mof_O 	O 	0.74862	0.6093	0.2817	-0.457
Mof_O 	O 	0.7775	0.4836	0.4159	-0.934
Mof_O 	O 	0.74088	0.367	0.2729	-0.483
Mof_O 	O 	0.6688	0.4892	0.3228	-0.532
Mof_O 	O 	0.64826	0.6965	0.1128	-0.48
Mof_O 	O 	0.6355	0.472	0.5007	-0.471
Mof_O 	O 	0.73705	0.3694	0.5714	-0.97
Mof_O 	O 	0.84423	0.2573	0.5342	-0.904
Mof_O 	O 	0.64768	0.8102	0.2853	-0.443
Mof_O 	O 	0.85024	0.5244	0.6021	-0.803
Mof_O 	O 	0.6321	0.7408	0.4242	-0.426
Mof_O 	O 	0.73348	0.8128	0.426	-0.344
Mof_O 	O 	0.5414	0.5422	0.3191	-0.513
Mof_O 	O 	0.5342	0.7161	0.2074	-0.231
Mof_P 	P 	0.9825	0.087	0.2888	0.607
_end
