data_functionalizedCrystal
_audit_creation_method	'EQeq! by Chris Wilmer'
_symmetry_space_group_name_H-M	'P1'
_symmetry_Int_Tables_number	1
_symmetry_cell_setting	triclinic
loop_
_symmetry_equiv_pos_as_xyz
  x,y,z
_cell_length_a	19.0893
_cell_length_b	26.952
_cell_length_c	27.7891
_cell_angle_alpha	90
_cell_angle_beta	97.0872
_cell_angle_gamma	90
loop_
_atom_site_label
_atom_site_type_symbol
_atom_site_fract_x
_atom_site_fract_y
_atom_site_fract_z
_atom_site_charge
Mof_Zn	Zn	0.16987	0.39059	0.43488	1.208
Mof_Zn	Zn	0.28438	0.44699	0.50383	1.221
Mof_Zn	Zn	0.16099	0.38823	0.54962	1.167
Mof_Zn	Zn	0.28228	0.33134	0.50385	1.219
Mof_Zn	Zn	0.33013	0.89059	0.06512	1.208
Mof_Zn	Zn	0.21562	0.94699	0.99617	1.22
Mof_Zn	Zn	0.33901	0.88823	0.95038	1.168
Mof_Zn	Zn	0.21772	0.83134	0.99615	1.22
Mof_H 	H 	0.953	0.3394	0.4306	0.028
Mof_H 	H 	0.8321	0.3334	0.4301	0.061
Mof_H 	H 	0.8276	0.4707	0.4852	0.046
Mof_H 	H 	0.9485	0.4773	0.4848	0.045
Mof_H 	H 	0.6285	0.3206	0.525	0.116
Mof_H 	H 	0.5073	0.3196	0.5262	-0.001
Mof_H 	H 	0.4953	0.4603	0.4775	-0.002
Mof_H 	H 	0.6164	0.4618	0.4773	0.122
Mof_H 	H 	0.3079	0.5026	0.6714	-0.011
Mof_H 	H 	0.302	0.5657	0.7274	0.148
Mof_H 	H 	0.1487	0.6319	0.6376	0.116
Mof_H 	H 	0.1555	0.5695	0.5815	0.009
Mof_H 	H 	0.2004	0.6538	0.8419	0.069
Mof_H 	H 	0.1903	0.7181	0.8964	0.037
Mof_H 	H 	0.3244	0.8002	0.8275	0.022
Mof_H 	H 	0.3317	0.7359	0.7728	0.071
Mof_H 	H 	0.2988	0.5723	0.4172	0.048
Mof_H 	H 	0.3046	0.6346	0.36	0.066
Mof_H 	H 	0.1887	0.552	0.2599	0.063
Mof_H 	H 	0.182	0.4894	0.3172	0.041
Mof_H 	H 	0.3138	0.7185	0.2386	0.143
Mof_H 	H 	0.3225	0.7845	0.1852	0.004
Mof_H 	H 	0.2	0.7104	0.0814	-0.002
Mof_H 	H 	0.1949	0.6428	0.1341	0.116
Mof_H 	H 	0.547	0.8394	0.0694	0.029
Mof_H 	H 	0.6679	0.8334	0.0699	0.061
Mof_H 	H 	0.6724	0.9707	0.0148	0.047
Mof_H 	H 	0.5515	0.9773	0.0152	0.045
Mof_H 	H 	0.8715	0.8206	0.975	0.116
Mof_H 	H 	0.9927	0.8196	0.9738	-0.002
Mof_H 	H 	0.0047	0.9603	0.0225	0.001
Mof_H 	H 	0.8836	0.9618	0.0227	0.122
Mof_H 	H 	0.1921	0.0026	0.8286	-0.01
Mof_H 	H 	0.198	0.0657	0.7726	0.148
Mof_H 	H 	0.3513	0.1319	0.8624	0.116
Mof_H 	H 	0.3445	0.0695	0.9185	0.01
Mof_H 	H 	0.2996	0.1538	0.6581	0.069
Mof_H 	H 	0.3097	0.2181	0.6036	0.037
Mof_H 	H 	0.1756	0.3002	0.6725	0.022
Mof_H 	H 	0.1683	0.2359	0.7272	0.071
Mof_H 	H 	0.2012	0.0723	0.0828	0.047
Mof_H 	H 	0.1954	0.1346	0.14	0.066
Mof_H 	H 	0.3113	0.052	0.2401	0.062
Mof_H 	H 	0.318	0.9894	0.1828	0.043
Mof_H 	H 	0.1862	0.2185	0.2614	0.143
Mof_H 	H 	0.1775	0.2845	0.3148	0.003
Mof_H 	H 	0.3	0.2104	0.4186	-0.002
Mof_H 	H 	0.3051	0.1428	0.3659	0.116
Mof_C 	C 	0.04148	0.41068	0.4593	0.365
Mof_C 	C 	0.96268	0.40942	0.45739	-0.113
Mof_C 	C 	0.92773	0.36591	0.4413	0.007
Mof_C 	C 	0.85548	0.36225	0.44127	-0.073
Mof_C 	C 	0.81762	0.40137	0.45781	-0.017
Mof_C 	C 	0.85278	0.44436	0.47409	-0.059
Mof_C 	C 	0.92522	0.44833	0.47386	0.005
Mof_C 	C 	0.73983	0.39761	0.45745	0.193
Mof_C 	C 	0.63483	0.39121	0.50121	0.194
Mof_C 	C 	0.60188	0.34865	0.51565	-0.217
Mof_C 	C 	0.52909	0.34797	0.51614	0.142
Mof_C 	C 	0.48903	0.38932	0.50175	-0.214
Mof_C 	C 	0.52208	0.43235	0.48707	0.139
Mof_C 	C 	0.5945	0.43323	0.48691	-0.206
Mof_C 	C 	0.41109	0.38676	0.50112	0.488
Mof_C 	C 	0.23693	0.4883	0.58528	0.455
Mof_C 	C 	0.23201	0.52927	0.62062	-0.185
Mof_C 	C 	0.27602	0.52855	0.66455	0.149
Mof_C 	C 	0.27267	0.56627	0.69815	-0.222
Mof_C 	C 	0.22507	0.60503	0.68772	0.197
Mof_C 	C 	0.18072	0.60613	0.64422	-0.206
Mof_C 	C 	0.18477	0.56862	0.61087	0.136
Mof_C 	C 	0.26795	0.64867	0.76387	0.185
Mof_C 	C 	0.26593	0.68917	0.80122	0.017
Mof_C 	C 	0.2245	0.68343	0.83883	-0.086
Mof_C 	C 	0.21899	0.72166	0.87188	0.038
Mof_C 	C 	0.25703	0.76526	0.86768	-0.135
Mof_C 	C 	0.29926	0.77093	0.83031	0.04
Mof_C 	C 	0.30337	0.73243	0.79749	-0.09
Mof_C 	C 	0.25489	0.80333	0.90527	0.411
Mof_C 	C 	0.2339	0.48632	0.40938	0.387
Mof_C 	C 	0.24014	0.52493	0.37276	-0.109
Mof_C 	C 	0.27671	0.56817	0.38573	0.022
Mof_C 	C 	0.28026	0.60545	0.35151	-0.069
Mof_C 	C 	0.24753	0.59897	0.30496	-0.009
Mof_C 	C 	0.2106	0.55594	0.29143	-0.067
Mof_C 	C 	0.20673	0.51846	0.32571	0.019
Mof_C 	C 	0.25082	0.64097	0.27086	0.2
Mof_C 	C 	0.25475	0.67465	0.19163	0.207
Mof_C 	C 	0.29179	0.71653	0.20694	-0.217
Mof_C 	C 	0.29654	0.75643	0.17506	0.132
Mof_C 	C 	0.2616	0.75339	0.12764	-0.204
Mof_C 	C 	0.22359	0.71182	0.11273	0.135
Mof_C 	C 	0.2199	0.67122	0.14437	-0.217
Mof_C 	C 	0.26779	0.79672	0.09421	0.47
Mof_C 	C 	0.45852	0.91068	0.0407	0.364
Mof_C 	C 	0.53732	0.90942	0.04261	-0.113
Mof_C 	C 	0.57227	0.86591	0.0587	0.007
Mof_C 	C 	0.64452	0.86225	0.05873	-0.073
Mof_C 	C 	0.68238	0.90137	0.04219	-0.017
Mof_C 	C 	0.64722	0.94436	0.02591	-0.059
Mof_C 	C 	0.57478	0.94833	0.02614	0.005
Mof_C 	C 	0.76017	0.89761	0.04255	0.193
Mof_C 	C 	0.86517	0.89121	0.99879	0.193
Mof_C 	C 	0.89812	0.84865	0.98435	-0.218
Mof_C 	C 	0.97091	0.84797	0.98386	0.144
Mof_C 	C 	0.01097	0.88932	0.99825	-0.216
Mof_C 	C 	0.97792	0.93235	0.01293	0.137
Mof_C 	C 	0.9055	0.93323	0.01309	-0.204
Mof_C 	C 	0.08891	0.88676	0.99888	0.484
Mof_C 	C 	0.26307	0.9883	0.91472	0.453
Mof_C 	C 	0.26799	0.02927	0.87938	-0.182
Mof_C 	C 	0.22398	0.02855	0.83545	0.147
Mof_C 	C 	0.22733	0.06627	0.80185	-0.22
Mof_C 	C 	0.27493	0.10503	0.81228	0.196
Mof_C 	C 	0.31928	0.10613	0.85578	-0.205
Mof_C 	C 	0.31523	0.06862	0.88913	0.134
Mof_C 	C 	0.23205	0.14867	0.73613	0.185
Mof_C 	C 	0.23407	0.18917	0.69878	0.017
Mof_C 	C 	0.2755	0.18343	0.66117	-0.086
Mof_C 	C 	0.28101	0.22166	0.62812	0.038
Mof_C 	C 	0.24297	0.26526	0.63232	-0.135
Mof_C 	C 	0.20074	0.27093	0.66969	0.04
Mof_C 	C 	0.19663	0.23243	0.70251	-0.09
Mof_C 	C 	0.24511	0.30333	0.59473	0.411
Mof_C 	C 	0.2661	0.98632	0.09062	0.389
Mof_C 	C 	0.25986	0.02493	0.12724	-0.11
Mof_C 	C 	0.22329	0.06817	0.11427	0.022
Mof_C 	C 	0.21974	0.10545	0.14849	-0.069
Mof_C 	C 	0.25247	0.09897	0.19504	-0.01
Mof_C 	C 	0.2894	0.05594	0.20857	-0.066
Mof_C 	C 	0.29327	0.01846	0.17429	0.016
Mof_C 	C 	0.24918	0.14097	0.22914	0.2
Mof_C 	C 	0.24525	0.17465	0.30837	0.207
Mof_C 	C 	0.20821	0.21653	0.29306	-0.217
Mof_C 	C 	0.20346	0.25643	0.32494	0.132
Mof_C 	C 	0.2384	0.25339	0.37236	-0.205
Mof_C 	C 	0.27641	0.21182	0.38727	0.135
Mof_C 	C 	0.2801	0.17122	0.35563	-0.217
Mof_C 	C 	0.23221	0.29672	0.40579	0.471
Mof_N 	N 	0.71176	0.3944	0.49946	-0.153
Mof_N 	N 	0.24617	0.63427	0.22639	-0.165
Mof_N 	N 	0.22571	0.64789	0.72319	-0.155
Mof_N 	N 	0.78824	0.8944	0.00054	-0.152
Mof_N 	N 	0.25383	0.13427	0.27361	-0.165
Mof_N 	N 	0.27429	0.14789	0.77681	-0.155
Mof_O 	O 	0.22413	0.38989	0.49826	-0.965
Mof_O 	O 	0.06887	0.38852	0.42729	-0.496
Mof_O 	O 	0.6999	0.3986	0.41816	-0.196
Mof_O 	O 	0.38227	0.34723	0.50498	-0.527
Mof_O 	O 	0.3767	0.42669	0.49985	-0.552
Mof_O 	O 	0.19216	0.45427	0.58495	-0.509
Mof_O 	O 	0.28149	0.49268	0.55778	-0.504
Mof_O 	O 	0.31293	0.6145	0.77377	-0.22
Mof_O 	O 	0.21974	0.79094	0.93866	-0.507
Mof_O 	O 	0.19952	0.44698	0.39707	-0.489
Mof_O 	O 	0.26406	0.49524	0.45123	-0.482
Mof_O 	O 	0.25629	0.68809	0.27575	-0.221
Mof_O 	O 	0.23635	0.79463	0.05221	-0.562
Mof_O 	O 	0.30608	0.83182	0.10763	-0.498
Mof_O 	O 	0.07788	0.43523	0.49014	-0.46
Mof_O 	O 	0.28453	0.8428	0.89997	-0.531
Mof_O 	O 	0.27587	0.88989	0.00174	-0.962
Mof_O 	O 	0.43113	0.88852	0.07271	-0.496
Mof_O 	O 	0.8001	0.8986	0.08184	-0.196
Mof_O 	O 	0.11773	0.84723	0.99502	-0.527
Mof_O 	O 	0.1233	0.92669	0.00015	-0.548
Mof_O 	O 	0.30784	0.95427	0.91505	-0.51
Mof_O 	O 	0.21851	0.99268	0.94222	-0.506
Mof_O 	O 	0.18707	0.1145	0.72623	-0.22
Mof_O 	O 	0.28026	0.29094	0.56134	-0.506
Mof_O 	O 	0.30048	0.94698	0.10293	-0.489
Mof_O 	O 	0.23594	0.99524	0.04877	-0.48
Mof_O 	O 	0.24371	0.18809	0.22425	-0.221
Mof_O 	O 	0.26365	0.29463	0.44779	-0.563
Mof_O 	O 	0.19392	0.33182	0.39237	-0.498
Mof_O 	O 	0.42212	0.93523	0.00986	-0.459
Mof_O 	O 	0.21547	0.3428	0.60003	-0.53
Mof_Zn	Zn	0.83013	0.60941	0.56512	1.209
Mof_Zn	Zn	0.71562	0.55301	0.49617	1.222
Mof_Zn	Zn	0.83901	0.61177	0.45038	1.168
Mof_Zn	Zn	0.71772	0.66866	0.49615	1.22
Mof_Zn	Zn	0.66987	0.10941	0.93488	1.209
Mof_Zn	Zn	0.78438	0.05301	0.00383	1.221
Mof_Zn	Zn	0.66099	0.11177	0.04962	1.168
Mof_Zn	Zn	0.78228	0.16866	0.00385	1.22
Mof_H 	H 	0.047	0.6606	0.5694	0.028
Mof_H 	H 	0.1679	0.6666	0.5699	0.061
Mof_H 	H 	0.1724	0.5293	0.5148	0.046
Mof_H 	H 	0.0515	0.5227	0.5152	0.045
Mof_H 	H 	0.3715	0.6794	0.475	0.116
Mof_H 	H 	0.4927	0.6804	0.4738	-0.001
Mof_H 	H 	0.5047	0.5397	0.5225	-0.002
Mof_H 	H 	0.3836	0.5382	0.5227	0.122
Mof_H 	H 	0.6921	0.4974	0.3286	-0.011
Mof_H 	H 	0.698	0.4343	0.2726	0.148
Mof_H 	H 	0.8513	0.3681	0.3624	0.116
Mof_H 	H 	0.8445	0.4305	0.4185	0.009
Mof_H 	H 	0.7996	0.3462	0.1581	0.069
Mof_H 	H 	0.8097	0.2819	0.1036	0.037
Mof_H 	H 	0.6756	0.1998	0.1725	0.022
Mof_H 	H 	0.6683	0.2641	0.2272	0.071
Mof_H 	H 	0.7012	0.4277	0.5828	0.048
Mof_H 	H 	0.6954	0.3654	0.64	0.066
Mof_H 	H 	0.8113	0.448	0.7401	0.063
Mof_H 	H 	0.818	0.5106	0.6828	0.041
Mof_H 	H 	0.6862	0.2815	0.7614	0.143
Mof_H 	H 	0.6775	0.2155	0.8148	0.004
Mof_H 	H 	0.8	0.2896	0.9186	-0.002
Mof_H 	H 	0.8051	0.3572	0.8659	0.116
Mof_H 	H 	0.453	0.1606	0.9306	0.029
Mof_H 	H 	0.3321	0.1666	0.9301	0.061
Mof_H 	H 	0.3276	0.0293	0.9852	0.047
Mof_H 	H 	0.4485	0.0227	0.9848	0.045
Mof_H 	H 	0.1285	0.1794	0.025	0.116
Mof_H 	H 	0.0073	0.1804	0.0262	-0.002
Mof_H 	H 	0.9953	0.0397	0.9775	0.001
Mof_H 	H 	0.1164	0.0382	0.9773	0.122
Mof_H 	H 	0.8079	0.9974	0.1714	-0.01
Mof_H 	H 	0.802	0.9343	0.2274	0.148
Mof_H 	H 	0.6487	0.8681	0.1376	0.116
Mof_H 	H 	0.6555	0.9305	0.0815	0.01
Mof_H 	H 	0.7004	0.8462	0.3419	0.069
Mof_H 	H 	0.6903	0.7819	0.3964	0.037
Mof_H 	H 	0.8244	0.6998	0.3275	0.022
Mof_H 	H 	0.8317	0.7641	0.2728	0.071
Mof_H 	H 	0.7988	0.9277	0.9172	0.047
Mof_H 	H 	0.8046	0.8654	0.86	0.066
Mof_H 	H 	0.6887	0.948	0.7599	0.062
Mof_H 	H 	0.682	0.0106	0.8172	0.043
Mof_H 	H 	0.8138	0.7815	0.7386	0.143
Mof_H 	H 	0.8225	0.7155	0.6852	0.003
Mof_H 	H 	0.7	0.7896	0.5814	-0.002
Mof_H 	H 	0.6949	0.8572	0.6341	0.116
Mof_C 	C 	0.95852	0.58932	0.5407	0.365
Mof_C 	C 	0.03732	0.59058	0.54261	-0.113
Mof_C 	C 	0.07227	0.63409	0.5587	0.007
Mof_C 	C 	0.14452	0.63775	0.55873	-0.073
Mof_C 	C 	0.18238	0.59863	0.54219	-0.017
Mof_C 	C 	0.14722	0.55564	0.52591	-0.059
Mof_C 	C 	0.07478	0.55167	0.52614	0.005
Mof_C 	C 	0.26017	0.60239	0.54255	0.193
Mof_C 	C 	0.36517	0.60879	0.49879	0.194
Mof_C 	C 	0.39812	0.65135	0.48435	-0.217
Mof_C 	C 	0.47091	0.65203	0.48386	0.142
Mof_C 	C 	0.51097	0.61068	0.49825	-0.214
Mof_C 	C 	0.47792	0.56765	0.51293	0.139
Mof_C 	C 	0.4055	0.56677	0.51309	-0.206
Mof_C 	C 	0.58891	0.61324	0.49888	0.488
Mof_C 	C 	0.76307	0.5117	0.41472	0.455
Mof_C 	C 	0.76799	0.47073	0.37938	-0.185
Mof_C 	C 	0.72398	0.47145	0.33545	0.149
Mof_C 	C 	0.72733	0.43373	0.30185	-0.222
Mof_C 	C 	0.77493	0.39497	0.31228	0.197
Mof_C 	C 	0.81928	0.39387	0.35578	-0.206
Mof_C 	C 	0.81523	0.43138	0.38913	0.136
Mof_C 	C 	0.73205	0.35133	0.23613	0.185
Mof_C 	C 	0.73407	0.31083	0.19878	0.017
Mof_C 	C 	0.7755	0.31657	0.16117	-0.086
Mof_C 	C 	0.78101	0.27834	0.12812	0.038
Mof_C 	C 	0.74297	0.23474	0.13232	-0.135
Mof_C 	C 	0.70074	0.22907	0.16969	0.04
Mof_C 	C 	0.69663	0.26757	0.20251	-0.09
Mof_C 	C 	0.74511	0.19667	0.09473	0.411
Mof_C 	C 	0.7661	0.51368	0.59062	0.387
Mof_C 	C 	0.75986	0.47507	0.62724	-0.109
Mof_C 	C 	0.72329	0.43183	0.61427	0.022
Mof_C 	C 	0.71974	0.39455	0.64849	-0.069
Mof_C 	C 	0.75247	0.40103	0.69504	-0.009
Mof_C 	C 	0.7894	0.44406	0.70857	-0.067
Mof_C 	C 	0.79327	0.48154	0.67429	0.019
Mof_C 	C 	0.74918	0.35903	0.72914	0.2
Mof_C 	C 	0.74525	0.32535	0.80837	0.207
Mof_C 	C 	0.70821	0.28347	0.79306	-0.217
Mof_C 	C 	0.70346	0.24357	0.82494	0.132
Mof_C 	C 	0.7384	0.24661	0.87236	-0.204
Mof_C 	C 	0.77641	0.28818	0.88727	0.135
Mof_C 	C 	0.7801	0.32878	0.85563	-0.217
Mof_C 	C 	0.73221	0.20328	0.90579	0.47
Mof_C 	C 	0.54148	0.08932	0.9593	0.364
Mof_C 	C 	0.46268	0.09058	0.95739	-0.113
Mof_C 	C 	0.42773	0.13409	0.9413	0.007
Mof_C 	C 	0.35548	0.13775	0.94127	-0.073
Mof_C 	C 	0.31762	0.09863	0.95781	-0.017
Mof_C 	C 	0.35278	0.05564	0.97409	-0.059
Mof_C 	C 	0.42522	0.05167	0.97386	0.005
Mof_C 	C 	0.23983	0.10239	0.95745	0.193
Mof_C 	C 	0.13483	0.10879	0.00121	0.193
Mof_C 	C 	0.10188	0.15135	0.01565	-0.218
Mof_C 	C 	0.02909	0.15203	0.01614	0.144
Mof_C 	C 	0.98903	0.11068	0.00175	-0.216
Mof_C 	C 	0.02208	0.06765	0.98707	0.137
Mof_C 	C 	0.0945	0.06677	0.98691	-0.204
Mof_C 	C 	0.91109	0.11324	0.00112	0.484
Mof_C 	C 	0.73693	0.0117	0.08528	0.453
Mof_C 	C 	0.73201	0.97073	0.12062	-0.182
Mof_C 	C 	0.77602	0.97145	0.16455	0.147
Mof_C 	C 	0.77267	0.93373	0.19815	-0.22
Mof_C 	C 	0.72507	0.89497	0.18772	0.196
Mof_C 	C 	0.68072	0.89387	0.14422	-0.205
Mof_C 	C 	0.68477	0.93138	0.11087	0.134
Mof_C 	C 	0.76795	0.85133	0.26387	0.185
Mof_C 	C 	0.76593	0.81083	0.30122	0.017
Mof_C 	C 	0.7245	0.81657	0.33883	-0.086
Mof_C 	C 	0.71899	0.77834	0.37188	0.038
Mof_C 	C 	0.75703	0.73474	0.36768	-0.135
Mof_C 	C 	0.79926	0.72907	0.33031	0.04
Mof_C 	C 	0.80337	0.76757	0.29749	-0.09
Mof_C 	C 	0.75489	0.69667	0.40527	0.411
Mof_C 	C 	0.7339	0.01368	0.90938	0.389
Mof_C 	C 	0.74014	0.97507	0.87276	-0.11
Mof_C 	C 	0.77671	0.93183	0.88573	0.022
Mof_C 	C 	0.78026	0.89455	0.85151	-0.069
Mof_C 	C 	0.74753	0.90103	0.80496	-0.01
Mof_C 	C 	0.7106	0.94406	0.79143	-0.066
Mof_C 	C 	0.70673	0.98154	0.82571	0.016
Mof_C 	C 	0.75082	0.85903	0.77086	0.2
Mof_C 	C 	0.75475	0.82535	0.69163	0.207
Mof_C 	C 	0.79179	0.78347	0.70694	-0.217
Mof_C 	C 	0.79654	0.74357	0.67506	0.132
Mof_C 	C 	0.7616	0.74661	0.62764	-0.205
Mof_C 	C 	0.72359	0.78818	0.61273	0.135
Mof_C 	C 	0.7199	0.82878	0.64437	-0.217
Mof_C 	C 	0.76779	0.70328	0.59421	0.471
Mof_N 	N 	0.28824	0.6056	0.50054	-0.153
Mof_N 	N 	0.75383	0.36573	0.77361	-0.165
Mof_N 	N 	0.77429	0.35211	0.27681	-0.155
Mof_N 	N 	0.21176	0.1056	0.99946	-0.152
Mof_N 	N 	0.74617	0.86573	0.72639	-0.165
Mof_N 	N 	0.72571	0.85211	0.22319	-0.155
Mof_O 	O 	0.77587	0.61011	0.50174	-0.965
Mof_O 	O 	0.93113	0.61148	0.57271	-0.496
Mof_O 	O 	0.3001	0.6014	0.58184	-0.196
Mof_O 	O 	0.61773	0.65277	0.49502	-0.527
Mof_O 	O 	0.6233	0.57331	0.50015	-0.552
Mof_O 	O 	0.80784	0.54573	0.41505	-0.509
Mof_O 	O 	0.71851	0.50732	0.44222	-0.504
Mof_O 	O 	0.68707	0.3855	0.22623	-0.22
Mof_O 	O 	0.78026	0.20906	0.06134	-0.507
Mof_O 	O 	0.80048	0.55302	0.60293	-0.489
Mof_O 	O 	0.73594	0.50476	0.54877	-0.482
Mof_O 	O 	0.74371	0.31191	0.72425	-0.221
Mof_O 	O 	0.76365	0.20537	0.94779	-0.562
Mof_O 	O 	0.69392	0.16818	0.89237	-0.498
Mof_O 	O 	0.92212	0.56477	0.50986	-0.46
Mof_O 	O 	0.71547	0.1572	0.10003	-0.531
Mof_O 	O 	0.72413	0.11011	0.99826	-0.962
Mof_O 	O 	0.56887	0.11148	0.92729	-0.496
Mof_O 	O 	0.1999	0.1014	0.91816	-0.196
Mof_O 	O 	0.88227	0.15277	0.00498	-0.527
Mof_O 	O 	0.8767	0.07331	0.99985	-0.548
Mof_O 	O 	0.69216	0.04573	0.08495	-0.51
Mof_O 	O 	0.78149	0.00732	0.05778	-0.506
Mof_O 	O 	0.81293	0.8855	0.27377	-0.22
Mof_O 	O 	0.71974	0.70906	0.43866	-0.506
Mof_O 	O 	0.69952	0.05302	0.89707	-0.489
Mof_O 	O 	0.76406	0.00476	0.95123	-0.48
Mof_O 	O 	0.75629	0.81191	0.77575	-0.221
Mof_O 	O 	0.73635	0.70537	0.55221	-0.563
Mof_O 	O 	0.80608	0.66818	0.60763	-0.498
Mof_O 	O 	0.57788	0.06477	0.99014	-0.459
Mof_O 	O 	0.78453	0.6572	0.39997	-0.53
_end
