data_functionalizedCrystal
_audit_creation_method	'EQeq! by Chris Wilmer'
_symmetry_space_group_name_H-M	'P1'
_symmetry_Int_Tables_number	1
_symmetry_cell_setting	triclinic
loop_
_symmetry_equiv_pos_as_xyz
  x,y,z
_cell_length_a	14.9156
_cell_length_b	15.0624
_cell_length_c	25.5528
_cell_angle_alpha	90
_cell_angle_beta	93.6021
_cell_angle_gamma	90
loop_
_atom_site_label
_atom_site_type_symbol
_atom_site_fract_x
_atom_site_fract_y
_atom_site_fract_z
_atom_site_charge
Mof_Cd	Cd	0.3632	0.66412	0.06975	0.446
Mof_Cd	Cd	0.8632	0.83588	0.56975	0.454
Mof_Cd	Cd	0.1368	0.16412	0.43025	0.446
Mof_Cd	Cd	0.6368	0.33588	0.93025	0.454
Mof_Cd	Cd	0.5	0.5	-0	0.508
Mof_Cd	Cd	-9.92123e-18	0	0.5	0.502
Mof_B 	B 	0.6119	0.192	0.2601	1.037
Mof_B 	B 	0.3881	0.808	0.7399	1.043
Mof_B 	B 	0.1119	0.308	0.7601	1.032
Mof_B 	B 	0.8881	0.692	0.2399	1.046
Mof_H 	H 	0.8975	0.517	0.1527	0.241
Mof_H 	H 	0.4593	0.2137	0.0436	0.163
Mof_H 	H 	0.9707	0.836	0.2534	0.227
Mof_H 	H 	0.299	0.9173	0.7911	0.219
Mof_H 	H 	0.6175	0.3096	0.3317	0.203
Mof_H 	H 	0.7108	0.441	0.1259	0.183
Mof_H 	H 	0.2892	0.559	0.8741	0.186
Mof_H 	H 	0.7571	0.0427	0.4698	0.155
Mof_H 	H 	0.3667	0.014	0.3979	0.187
Mof_H 	H 	0.3036	0.4014	0.7025	0.221
Mof_H 	H 	0.0288	0.8829	0.2125	0.229
Mof_H 	H 	0.9803	0.3826	0.5641	0.149
Mof_H 	H 	0.0331	0.9645	0.6806	0.157
Mof_H 	H 	0.2376	0.7823	0.4283	0.083
Mof_H 	H 	0.8288	0.0867	0.6415	0.251
Mof_H 	H 	0.7056	0.7945	0.2807	0.231
Mof_H 	H 	0.7944	0.2945	0.2193	0.229
Mof_H 	H 	0.3859	0.3489	0.1088	0.261
Mof_H 	H 	0.291	0.3289	0.2826	0.14
Mof_H 	H 	0.2495	0.6121	0.7913	0.217
Mof_H 	H 	0.247	0.2761	0.9515	0.172
Mof_H 	H 	0.8918	0.7599	0.115	0.231
Mof_H 	H 	0.6893	0.7959	0.0704	0.157
Mof_H 	H 	0.2713	0.4897	0.7278	0.208
Mof_H 	H 	0.8507	0.2065	0.4523	0.193
Mof_H 	H 	0.51	0.9402	0.8485	0.238
Mof_H 	H 	0.6493	0.7065	0.0477	0.186
Mof_H 	H 	0.3165	0.6684	0.6198	0.219
Mof_H 	H 	0.5749	0.5586	0.8734	0.266
Mof_H 	H 	0.9593	0.2863	0.5436	0.169
Mof_H 	H 	0.0657	0.9498	0.7394	0.135
Mof_H 	H 	0.7199	0.3289	0.2549	0.212
Mof_H 	H 	0.0915	0.6755	0.4095	0.14
Mof_H 	H 	0.0089	0.419	0.7112	0.205
Mof_H 	H 	0.7377	0.7028	0.6624	0.16
Mof_H 	H 	0.6835	0.3316	0.3802	0.216
Mof_H 	H 	0.0407	0.7137	0.4564	0.167
Mof_H 	H 	0.1333	0.514	0.1021	0.164
Mof_H 	H 	0.1025	0.483	0.8473	0.228
Mof_H 	H 	0.6333	0.986	0.6021	0.156
Mof_H 	H 	0.7429	0.5427	0.0302	0.164
Mof_H 	H 	0.6621	0.0685	0.4879	0.133
Mof_H 	H 	0.8165	0.8316	0.1198	0.219
Mof_H 	H 	0.6082	0.2599	0.385	0.228
Mof_H 	H 	0.4664	0.0316	0.6917	0.219
Mof_H 	H 	0.9253	0.1542	0.7352	0.219
Mof_H 	H 	0.253	0.7761	0.5485	0.166
Mof_H 	H 	0.4085	0.1755	0.0905	0.137
Mof_H 	H 	0.0747	0.8458	0.2648	0.237
Mof_H 	H 	0.2939	0.0218	0.4942	0.133
Mof_H 	H 	0.7623	0.2028	0.8376	0.163
Mof_H 	H 	0.7892	0.941	0.3741	0.185
Mof_H 	H 	0.893	0.9735	0.2928	0.155
Mof_H 	H 	0.4669	0.4645	0.8194	0.172
Mof_H 	H 	0.2064	0.3432	0.1073	0.08
Mof_H 	H 	0.9085	0.3245	0.5905	0.141
Mof_H 	H 	0.7061	0.9782	0.5058	0.155
Mof_H 	H 	0.3107	0.2041	0.9296	0.162
Mof_H 	H 	0.4803	0.1174	0.0641	0.143
Mof_H 	H 	0.8333	0.6849	0.9485	0.099
Mof_H 	H 	0.0293	0.164	0.7466	0.198
Mof_H 	H 	0.7136	0.8689	0.3757	0.169
Mof_H 	H 	0.2623	0.2972	0.3376	0.159
Mof_H 	H 	0.5293	0.336	0.2466	0.215
Mof_H 	H 	0.3379	0.9315	0.5121	0.122
Mof_H 	H 	0.2864	0.1311	0.6243	0.169
Mof_H 	H 	0.5318	0.0112	0.6055	0.123
Mof_H 	H 	0.9664	0.4684	0.1917	0.236
Mof_H 	H 	0.1835	0.1684	0.8802	0.213
Mof_H 	H 	0.6141	0.6511	0.8912	0.26
Mof_H 	H 	0.7376	0.7177	0.9283	0.09
Mof_H 	H 	0.103	0.4578	0.1495	0.134
Mof_H 	H 	0.9712	0.1171	0.7875	0.213
Mof_H 	H 	0.4911	0.919	0.7888	0.232
Mof_H 	H 	0.5089	0.081	0.2112	0.227
Mof_H 	H 	0.1964	0.9014	0.7975	0.229
Mof_H 	H 	0.66	0.6335	0.666	0.142
Mof_H 	H 	0.2199	0.1711	0.7549	0.208
Mof_H 	H 	0.3927	0.9697	0.7133	0.212
Mof_H 	H 	0.9911	0.581	0.2888	0.249
Mof_H 	H 	0.393	0.5265	0.7928	0.145
Mof_H 	H 	0.7864	0.3689	0.1243	0.168
Mof_H 	H 	0.7801	0.8289	0.2451	0.214
Mof_H 	H 	0.0318	0.4888	0.1055	0.134
Mof_H 	H 	0.4707	0.664	0.7534	0.216
Mof_H 	H 	0.5734	0.8754	0.8202	0.242
Mof_H 	H 	0.49	0.0598	0.1515	0.232
Mof_H 	H 	0.209	0.8289	0.2174	0.138
Mof_H 	H 	0.1667	0.3151	0.0515	0.085
Mof_H 	H 	0.7939	0.4782	0.9942	0.167
Mof_H 	H 	0.1712	0.9133	0.3585	0.253
Mof_H 	H 	0.0197	0.6174	0.4359	0.146
Mof_H 	H 	0.7505	0.3879	0.2087	0.218
Mof_H 	H 	0.3918	0.7401	0.615	0.231
Mof_H 	H 	0.4682	0.9888	0.3945	0.166
Mof_H 	H 	0.709	0.6711	0.7174	0.14
Mof_H 	H 	0.201	0.4173	0.7089	0.212
Mof_H 	H 	0.607	0.4735	0.2072	0.144
Mof_H 	H 	0.7713	0.0103	0.2278	0.204
Mof_H 	H 	0.397	0.9578	0.3505	0.163
Mof_H 	H 	0.84	0.1335	0.834	0.145
Mof_H 	H 	0.753	0.7239	0.0485	0.164
Mof_H 	H 	0.3975	0.983	0.6527	0.232
Mof_H 	H 	0.1493	0.7935	0.5477	0.187
Mof_H 	H 	0.16	0.8665	0.166	0.139
Mof_H 	H 	0.2287	0.9897	0.7722	0.218
Mof_H 	H 	0.4253	0.3458	0.2352	0.229
Mof_H 	H 	0.7216	0.3859	0.0746	0.202
Mof_H 	H 	0.5407	0.7863	0.9564	0.173
Mof_H 	H 	0.3333	0.8151	0.4485	0.091
Mof_H 	H 	0.9682	0.5112	0.8945	0.156
Mof_H 	H 	0.34	0.3665	0.334	0.142
Mof_H 	H 	0.8825	0.8096	0.1683	0.207
Mof_H 	H 	0.6073	0.0303	0.2867	0.22
Mof_H 	H 	0.5657	0.5502	0.2394	0.149
Mof_H 	H 	0.799	0.5827	0.2911	0.214
Mof_H 	H 	0.2944	0.2055	0.7193	0.225
Mof_H 	H 	0.701	0.0827	0.2089	0.209
Mof_H 	H 	0.99	0.4402	0.6515	0.218
Mof_H 	H 	0.1893	0.7041	0.5704	0.157
Mof_H 	H 	0.7784	0.8859	0.4254	0.205
Mof_H 	H 	0.4251	0.4414	0.1266	0.267
Mof_H 	H 	0.2108	0.059	0.6259	0.183
Mof_H 	H 	0.7287	0.5103	0.2722	0.21
Mof_H 	H 	0.2216	0.1141	0.5746	0.204
Mof_H 	H 	0.1175	0.1904	0.8317	0.2
Mof_H 	H 	0.3825	0.6904	0.6683	0.206
Mof_H 	H 	0.4343	0.4498	0.7606	0.15
Mof_H 	H 	0.1141	0.8489	0.3912	0.261
Mof_H 	H 	0.5331	0.5355	0.1806	0.171
Mof_H 	H 	0.5747	0.6542	0.7648	0.231
Mof_H 	H 	0.4712	0.3829	0.2875	0.222
Mof_H 	H 	0.2801	0.6711	0.7451	0.211
Mof_H 	H 	0.7936	0.6568	0.8927	0.088
Mof_H 	H 	0.8036	0.0986	0.2025	0.219
Mof_H 	H 	0.6025	0.017	0.3473	0.237
Mof_H 	H 	0.2624	0.2823	0.0717	0.08
Mof_H 	H 	0.8379	0.5685	0.0121	0.141
Mof_H 	H 	0.603	0.0422	0.6495	0.121
Mof_H 	H 	0.5197	0.8826	0.9359	0.153
Mof_H 	H 	0.2505	0.1121	0.7087	0.213
Mof_H 	H 	0.9343	0.0502	0.2606	0.157
Mof_H 	H 	0.2136	0.6311	0.8757	0.171
Mof_H 	H 	0.791	0.1711	0.7826	0.143
Mof_H 	H 	0.7064	0.1568	0.6073	0.085
Mof_H 	H 	0.0336	0.5316	0.8083	0.221
Mof_H 	H 	0.1073	0.4697	0.7867	0.211
Mof_H 	H 	0.5915	0.8245	0.9095	0.145
Mof_H 	H 	0.0749	0.9414	0.3734	0.268
Mof_H 	H 	0.2936	0.8432	0.3927	0.082
Mof_H 	H 	0.7624	0.2177	0.5717	0.086
Mof_H 	H 	0.897	0.5422	0.8505	0.152
Mof_H 	H 	0.1082	0.2401	0.885	0.225
Mof_H 	H 	0.2377	0.7972	0.1624	0.157
Mof_H 	H 	0.6712	0.5867	0.8585	0.251
Mof_H 	H 	0.2056	0.7055	0.7807	0.228
Mof_H 	H 	0.3507	0.2935	0.9523	0.194
Mof_H 	H 	0.9266	0.3754	0.6798	0.222
Mof_H 	H 	0.6964	0.5986	0.2975	0.223
Mof_H 	H 	0.1621	0.4315	0.9879	0.116
Mof_H 	H 	0.8667	0.486	0.8979	0.181
Mof_H 	H 	0.747	0.2239	0.4515	0.171
Mof_H 	H 	0.6667	0.1849	0.5515	0.093
Mof_H 	H 	0.107	0.0265	0.7072	0.124
Mof_H 	H 	0.3288	0.4133	0.1415	0.251
Mof_H 	H 	0.2429	0.9573	0.5302	0.145
Mof_H 	H 	0.8107	0.2959	0.4296	0.163
Mof_H 	H 	0.2784	0.6141	0.9254	0.208
Mof_H 	H 	0.4266	0.1246	0.1798	0.237
Mof_H 	H 	0.8927	0.5303	0.2133	0.221
Mof_H 	H 	0.0734	0.6246	0.3202	0.254
Mof_H 	H 	0.2571	0.4573	0.9698	0.138
Mof_H 	H 	0.5336	0.9684	0.3083	0.236
Mof_H 	H 	0.9251	0.0586	0.6266	0.269
Mof_H 	H 	0.2061	0.5218	0.0058	0.125
Mof_H 	H 	0.5288	0.6171	0.7125	0.224
Mof_H 	H 	0.01	0.5598	0.3485	0.248
Mof_H 	H 	0.8859	0.1511	0.6088	0.262
Mof_H 	H 	0.7495	0.8879	0.2913	0.221
Mof_H 	H 	0.9669	0.0355	0.3194	0.18
Mof_C 	C 	0.6681	0.286	0.1831	0.264
Mof_C 	C 	0.0862	0.5048	0.1254	-0.435
Mof_C 	C 	0.1996	0.7667	0.5669	-0.508
Mof_C 	C 	0.8004	0.2333	0.4331	-0.523
Mof_C 	C 	0.0677	0.4782	0.8145	-0.747
Mof_C 	C 	0.844	0.0954	0.3112	0.033
Mof_C 	C 	0.6486	0.6315	0.138	-0.126
Mof_C 	C 	0.404	0.7211	0.9035	-0.125
Mof_C 	C 	0.6719	0.5453	0.9394	0.441
Mof_C 	C 	0.7399	0.3282	0.2199	-0.739
Mof_C 	C 	0.3715	0.4099	0.115	-0.79
Mof_C 	C 	0.4291	0.3938	0.8989	0.329
Mof_C 	C 	0.4162	0.467	0.7945	-0.488
Mof_C 	C 	0.4126	0.6902	0.9591	0.318
Mof_C 	C 	0.0874	0.1902	0.5409	0.319
Mof_C 	C 	0.1202	0.74	0.1825	0.001
Mof_C 	C 	0.2115	0.8088	0.6213	0.032
Mof_C 	C 	0.7136	0.2141	0.3452	0.256
Mof_C 	C 	0.2739	0.6161	0.8878	-0.555
Mof_C 	C 	0.1345	0.661	0.1557	-0.087
Mof_C 	C 	0.2794	0.8308	0.4281	-0.259
Mof_C 	C 	0.0709	0.5904	0.1561	-0.023
Mof_C 	C 	0.8514	0.1315	0.362	-0.133
Mof_C 	C 	0.7168	0.8459	0.6248	0.284
Mof_C 	C 	0.7307	0.6162	0.2215	0.269
Mof_C 	C 	0.5278	0.6638	0.738	-0.757
Mof_C 	C 	0.5838	0.533	0.2055	-0.483
Mof_C 	C 	0.7115	0.6912	0.1213	0.035
Mof_C 	C 	0.2307	0.8838	0.7215	0.281
Mof_C 	C 	0.5125	0.8951	0.8221	-0.782
Mof_C 	C 	0.0125	0.6049	0.3221	-0.83
Mof_C 	C 	0.4951	0.9003	0.6835	0.304
Mof_C 	C 	0.8121	0.185	0.818	-0.463
Mof_C 	C 	0.7885	0.1912	0.3787	0.043
Mof_C 	C 	0.6628	0.3154	0.1307	0.053
Mof_C 	C 	0.1628	0.1846	0.6307	0.057
Mof_C 	C 	0.2601	0.6718	0.7801	-0.738
Mof_C 	C 	0.1101	0.2807	0.7008	-0.591
Mof_C 	C 	0.2832	0.1541	0.3752	0.289
Mof_C 	C 	0.6345	0.839	0.6557	-0.086
Mof_C 	C 	0.9626	0.7132	0.3874	0.008
Mof_C 	C 	0.7605	0.073	0.2244	-0.718
Mof_C 	C 	0.6996	0.7333	0.0669	-0.509
Mof_C 	C 	0.344	0.4046	0.8112	0.026
Mof_C 	C 	0.9722	0.1638	0.762	-0.713
Mof_C 	C 	0.7028	0.1737	0.2947	-0.566
Mof_C 	C 	0.4647	0.1766	0.0742	-0.462
Mof_C 	C 	0.0838	0.967	0.7055	-0.434
Mof_C 	C 	0.5862	0.9952	0.6254	-0.397
Mof_C 	C 	0.5049	0.0997	0.3165	0.297
Mof_C 	C 	0.9647	0.3234	0.5742	-0.466
Mof_C 	C 	0.5709	0.9096	0.6561	-0.02
Mof_C 	C 	0.8715	0.0901	0.615	-0.788
Mof_C 	C 	0.6879	0.685	0.682	-0.451
Mof_C 	C 	0.4626	0.7868	0.8874	0.013
Mof_C 	C 	0.1285	0.9099	0.385	-0.795
Mof_C 	C 	0.7864	0.7141	0.1548	0.263
Mof_C 	C 	0.6101	0.2193	0.2008	-0.602
Mof_C 	C 	0.3501	0.7147	0.6379	-0.732
Mof_C 	C 	0.8372	0.8154	0.3693	0.051
Mof_C 	C 	0.0049	0.4003	0.8165	0.281
Mof_C 	C 	0.4291	0.0904	0.3439	0.009
Mof_C 	C 	0.3121	0.315	0.318	-0.454
Mof_C 	C 	0.4787	0.8211	0.7114	-0.597
Mof_C 	C 	0.2824	0.9607	0.502	-0.349
Mof_C 	C 	0.4722	0.3362	0.262	-0.751
Mof_C 	C 	0.7739	0.8839	0.3878	-0.549
Mof_C 	C 	0.2168	0.6541	0.1248	0.284
Mof_C 	C 	0.9542	0.6824	0.336	0.315
Mof_C 	C 	0.9577	0.2529	0.7885	0.281
Mof_C 	C 	0.7601	0.8282	0.2801	-0.746
Mof_C 	C 	0.2864	0.7859	0.6548	0.266
Mof_C 	C 	0.1499	0.2147	0.8621	-0.715
Mof_C 	C 	0.5677	0.0218	0.3145	-0.782
Mof_C 	C 	0.7693	0.1162	0.2785	0.26
Mof_C 	C 	0.2028	0.3263	0.7947	-0.566
Mof_C 	C 	0.9323	0.5218	0.1855	-0.786
Mof_C 	C 	0.096	0.2211	0.5965	-0.129
Mof_C 	C 	0.9291	0.4096	0.8439	0.016
Mof_C 	C 	0.3372	0.6846	0.8693	0.056
Mof_C 	C 	0.1719	0.9547	0.4394	0.455
Mof_C 	C 	0.2605	0.427	0.7244	-0.724
Mof_C 	C 	0.3798	0.24	0.3175	0.011
Mof_C 	C 	0.2136	0.2859	0.8452	0.254
Mof_C 	C 	0.4323	0.9782	0.6855	-0.749
Mof_C 	C 	0.5709	0.6062	0.1011	0.328
Mof_C 	C 	0.7832	0.3459	0.8752	0.289
Mof_C 	C 	0.156	0.9046	0.6888	0.005
Mof_C 	C 	0.9875	0.3951	0.6779	-0.711
Mof_C 	C 	0.8501	0.7853	0.1379	-0.731
Mof_C 	C 	0.9951	0.5997	0.1835	0.318
Mof_C 	C 	0.8899	0.7193	0.2992	-0.613
Mof_C 	C 	0.2885	0.3088	0.8787	0.043
Mof_C 	C 	0.4875	0.1049	0.1779	-0.772
Mof_C 	C 	0.6499	0.2853	0.3621	-0.721
Mof_C 	C 	0.3281	0.4547	0.0606	0.444
Mof_C 	C 	0.7972	0.6737	0.2053	-0.575
Mof_C 	C 	0.7395	0.573	0.2756	-0.73
Mof_C 	C 	0.7261	0.3839	0.1122	-0.547
Mof_C 	C 	0.9138	0.4952	0.8746	-0.483
Mof_C 	C 	0.2972	0.8263	0.7053	-0.578
Mof_C 	C 	0.7794	0.6692	0.9281	-0.272
Mof_C 	C 	0.1879	0.815	0.182	-0.445
Mof_C 	C 	0.3899	0.7807	0.7992	-0.604
Mof_C 	C 	0.2176	0.4607	0.998	-0.327
Mof_C 	C 	0.7176	0.0393	0.498	-0.394
Mof_C 	C 	0.4138	0.0048	0.3746	-0.516
Mof_C 	C 	0.2395	0.927	0.7756	-0.746
Mof_C 	C 	0.5874	0.3098	0.0409	0.319
Mof_C 	C 	0.9126	0.8098	0.4591	0.318
Mof_C 	C 	0.0709	0.8938	0.6011	0.326
Mof_C 	C 	0.3004	0.2667	0.9331	-0.524
Mof_C 	C 	0.8319	0.786	0.3169	0.27
Mof_C 	C 	0.9291	0.1062	0.3989	0.329
Mof_C 	C 	0.2261	0.1161	0.6122	-0.551
Mof_C 	C 	0.5213	0.1789	0.2886	-0.592
Mof_C 	C 	0.0213	0.3211	0.7886	-0.589
Mof_C 	C 	0.656	0.5954	0.1888	0.022
Mof_C 	C 	0.0278	0.8362	0.238	-0.78
Mof_C 	C 	0.2693	0.3838	0.7785	0.264
Mof_C 	C 	0.3514	0.3685	0.862	-0.129
Mof_C 	C 	0.3319	0.714	0.8169	0.264
Mof_C 	C 	0.6285	0.5901	0.885	-0.787
Mof_C 	C 	0.1681	0.214	0.6831	0.257
Mof_C 	C 	0.5353	0.8234	0.9258	-0.479
Mof_C 	C 	0.596	0.2789	0.0965	-0.124
Mof_C 	C 	0.4577	0.2471	0.2885	0.285
Mof_C 	C 	0.3655	0.161	0.3443	-0.101
Mof_C 	C 	0.9787	0.6789	0.2114	-0.6
Mof_C 	C 	0.6202	0.76	0.6825	0.005
Mof_C 	C 	0.1486	0.8685	0.638	-0.117
Mof_C 	C 	0.0458	0.3176	0.664	0.269
Mof_C 	C 	0.0423	0.7471	0.2115	0.292
Mof_C 	C 	0.5423	0.7529	0.7115	0.291
Mof_C 	C 	0.904	0.7789	0.4035	-0.121
Mof_C 	C 	0.8798	0.26	0.8175	0.018
Mof_C 	C 	0.4542	0.8176	0.836	0.295
Mof_C 	C 	0.2206	0.3308	0.0719	-0.254
Mof_C 	C 	0.8281	0.0453	0.5606	0.436
Mof_C 	C 	0.5458	0.1824	0.164	0.293
Mof_C 	C 	0.9162	0.033	0.2945	-0.511
Mof_C 	C 	0.8655	0.339	0.8443	-0.102
Mof_C 	C 	0.7824	0.5393	0.002	-0.425
Mof_C 	C 	0.7206	0.1692	0.5719	-0.266
Mof_C 	C 	0.2399	0.1718	0.7199	-0.728
Mof_C 	C 	0.5374	0.2132	0.1126	0.008
Mof_C 	C 	0.0353	0.6766	0.4258	-0.472
Mof_C 	C 	0.0374	0.2868	0.6126	0.013
Mof_N 	N 	0.2629	0.4139	0.0481	-0.172
Mof_N 	N 	0.2371	0.9139	0.4519	-0.169
Mof_N 	N 	0.7629	0.0861	0.5481	-0.16
Mof_N 	N 	0.7371	0.5861	0.9519	-0.155
Mof_O 	O 	0.0201	0.1407	0.5266	-0.3
Mof_O 	O 	0.4799	0.6407	0.9734	-0.291
Mof_O 	O 	0.2893	0.1756	0.4233	-0.29
Mof_O 	O 	0.3647	0.5154	0.042	-0.368
Mof_O 	O 	0.9996	0.1487	0.3936	-0.308
Mof_O 	O 	0.0004	0.8513	0.6064	-0.314
Mof_O 	O 	0.5004	0.6487	0.1064	-0.313
Mof_O 	O 	0.1451	0.2147	0.5109	-0.308
Mof_O 	O 	0.8549	0.7853	0.4891	-0.306
Mof_O 	O 	0.8647	0.9846	0.542	-0.356
Mof_O 	O 	0.3549	0.7147	0.9891	-0.302
Mof_O 	O 	0.9799	0.8593	0.4734	-0.29
Mof_O 	O 	0.4996	0.3513	0.8936	-0.312
Mof_O 	O 	0.2885	0.6243	0.1462	-0.29
Mof_O 	O 	0.41714	0.4556	0.93104	-0.303
Mof_O 	O 	0.7885	0.8757	0.6462	-0.288
Mof_O 	O 	0.91714	0.0444	0.43104	-0.305
Mof_O 	O 	0.7893	0.3244	0.9233	-0.288
Mof_O 	O 	0.6353	0.4846	0.958	-0.36
Mof_O 	O 	0.08286	0.9556	0.56896	-0.301
Mof_O 	O 	0.7115	0.3757	0.8538	-0.292
Mof_O 	O 	0.2107	0.6756	0.0767	-0.29
Mof_O 	O 	0.1353	0.0154	0.458	-0.375
Mof_O 	O 	0.5201	0.3593	0.0266	-0.299
Mof_O 	O 	0.7107	0.8244	0.5767	-0.288
Mof_O 	O 	0.2115	0.1243	0.3538	-0.295
Mof_O 	O 	0.6451	0.2853	0.0109	-0.312
Mof_O 	O 	0.58286	0.5444	0.06896	-0.308
_end
