data_functionalizedCrystal
_audit_creation_method	'EQeq! by Chris Wilmer'
_symmetry_space_group_name_H-M	'P1'
_symmetry_Int_Tables_number	1
_symmetry_cell_setting	triclinic
loop_
_symmetry_equiv_pos_as_xyz
  x,y,z
_cell_length_a	13.0721
_cell_length_b	13.0721
_cell_length_c	11.1466
_cell_angle_alpha	90
_cell_angle_beta	90
_cell_angle_gamma	90
loop_
_atom_site_label
_atom_site_type_symbol
_atom_site_fract_x
_atom_site_fract_y
_atom_site_fract_z
_atom_site_charge
Mof_Mn	Mn	0.75823	0.48857	0.31134	0.966
Mof_Mn	Mn	0.75183	0.71964	0.15987	0.858
Mof_O 	O 	0.6433	0.5945	0.3486	-0.4
Mof_O 	O 	0.591	0.7298	0.2403	-0.42
Mof_O 	O 	0.371	0.3651	0.5145	-0.404
Mof_O 	O 	0.2561	0.4449	0.6262	-0.442
Mof_O 	O 	0.868	0.2568	0.3441	-0.409
Mof_O 	O 	0.8773	0.3986	0.2359	-0.396
Mof_O 	O 	0.1685	0.2553	0.8157	-0.41
Mof_O 	O 	0.1283	0.4086	0.8859	-0.381
Mof_C 	C 	0.5752	0.6606	0.3186	0.387
Mof_C 	C 	0.3267	0.4463	0.546	0.373
Mof_C 	C 	0.9026	0.3091	0.2599	0.4
Mof_C 	C 	0.1317	0.3134	0.8925	0.425
Mof_C 	C 	0.3536	0.5467	0.4888	-0.147
Mof_C 	C 	0.4456	0.5568	0.4304	0.089
Mof_H 	H 	0.4889	0.5007	0.423	0.011
Mof_C 	C 	0.4742	0.6523	0.3817	-0.151
Mof_C 	C 	0.4106	0.735	0.3942	0.078
Mof_H 	H 	0.4295	0.798	0.3623	0.018
Mof_C 	C 	0.3182	0.7252	0.4543	-0.137
Mof_H 	H 	0.2759	0.7819	0.4631	0.086
Mof_C 	C 	0.288	0.6315	0.5015	0.07
Mof_H 	H 	0.2237	0.6246	0.5424	0.02
Mof_C 	C 	0.9801	0.2601	0.1789	-0.149
Mof_C 	C 	0.018	0.3107	0.0785	0.074
Mof_H 	H 	0.9973	0.3774	0.0622	0.02
Mof_C 	C 	0.0864	0.2621	0.0028	-0.153
Mof_C 	C 	0.119	0.1629	0.0268	-0.007
Mof_H 	H 	0.1639	0.1295	0.9753	0.066
Mof_C 	C 	0.0833	0.1155	0.1286	-0.101
Mof_H 	H 	0.1089	0.0514	0.1487	0.068
Mof_C 	C 	0.0106	0.1598	0.2021	0.044
Mof_H 	H 	0.9826	0.1235	0.2659	0.024
Mof_Mn	Mn	0.24177	0.51143	0.81134	0.973
Mof_Mn	Mn	0.24817	0.28036	0.65987	0.871
Mof_O 	O 	0.3567	0.4055	0.8486	-0.39
Mof_O 	O 	0.409	0.2702	0.7403	-0.416
Mof_O 	O 	0.629	0.6349	0.0145	-0.398
Mof_O 	O 	0.7439	0.5551	0.1262	-0.429
Mof_O 	O 	0.132	0.7432	0.8441	-0.405
Mof_O 	O 	0.1227	0.6014	0.7359	-0.392
Mof_O 	O 	0.8315	0.7447	0.3157	-0.409
Mof_O 	O 	0.8717	0.5914	0.3859	-0.385
Mof_C 	C 	0.4248	0.3394	0.8186	0.365
Mof_C 	C 	0.6733	0.5537	0.046	0.307
Mof_C 	C 	0.0974	0.6909	0.7599	0.403
Mof_C 	C 	0.8683	0.6866	0.3925	0.404
Mof_C 	C 	0.6464	0.4533	0.9888	-0.011
Mof_C 	C 	0.5544	0.4432	0.9304	0.001
Mof_H 	H 	0.5111	0.4993	0.923	0.049
Mof_C 	C 	0.5258	0.3477	0.8817	-0.079
Mof_C 	C 	0.5894	0.265	0.8942	-0.019
Mof_H 	H 	0.5705	0.202	0.8623	0.054
Mof_C 	C 	0.6818	0.2748	0.9543	0.011
Mof_H 	H 	0.7241	0.2181	0.9631	0.042
Mof_C 	C 	0.712	0.3685	0.0015	-0.098
Mof_H 	H 	0.7763	0.3754	0.0424	0.068
Mof_C 	C 	0.0199	0.7399	0.6789	-0.149
Mof_C 	C 	0.982	0.6893	0.5785	0.075
Mof_H 	H 	0.0027	0.6226	0.5622	0.029
Mof_C 	C 	0.9136	0.7379	0.5028	-0.146
Mof_C 	C 	0.881	0.8371	0.5268	0.06
Mof_H 	H 	0.8361	0.8705	0.4753	0.024
Mof_C 	C 	0.9167	0.8845	0.6286	-0.136
Mof_H 	H 	0.8911	0.9486	0.6487	0.085
Mof_C 	C 	0.9894	0.8402	0.7021	0.063
Mof_H 	H 	0.0174	0.8765	0.7659	0.023
Mof_Mn	Mn	0.51143	0.75823	0.06134	0.932
Mof_Mn	Mn	0.28036	0.75183	0.90987	0.894
Mof_O 	O 	0.4055	0.6433	0.0986	-0.395
Mof_O 	O 	0.2702	0.591	0.9903	-0.392
Mof_O 	O 	0.6349	0.371	0.2645	-0.406
Mof_O 	O 	0.5551	0.2561	0.3762	-0.442
Mof_O 	O 	0.7432	0.868	0.0941	-0.395
Mof_O 	O 	0.6014	0.8773	0.9859	-0.342
Mof_O 	O 	0.7447	0.1685	0.5657	-0.408
Mof_O 	O 	0.5914	0.1283	0.6359	-0.385
Mof_C 	C 	0.3394	0.5752	0.0686	0.347
Mof_C 	C 	0.5537	0.3267	0.296	0.37
Mof_C 	C 	0.6909	0.9026	0.0099	0.33
Mof_C 	C 	0.6866	0.1317	0.6425	0.403
Mof_C 	C 	0.4533	0.3536	0.2388	-0.146
Mof_C 	C 	0.4432	0.4456	0.1804	0.079
Mof_H 	H 	0.4993	0.4889	0.173	0.011
Mof_C 	C 	0.3477	0.4742	0.1317	-0.143
Mof_C 	C 	0.265	0.4106	0.1442	0.068
Mof_H 	H 	0.202	0.4295	0.1123	0.015
Mof_C 	C 	0.2748	0.3182	0.2043	-0.134
Mof_H 	H 	0.2181	0.2759	0.2131	0.084
Mof_C 	C 	0.3685	0.288	0.2515	0.065
Mof_H 	H 	0.3754	0.2237	0.2924	0.021
Mof_C 	C 	0.7399	0.9801	0.9289	-0.117
Mof_C 	C 	0.6893	0.018	0.8285	0.056
Mof_H 	H 	0.6226	0.9973	0.8122	0.038
Mof_C 	C 	0.7379	0.0864	0.7528	-0.144
Mof_C 	C 	0.8371	0.119	0.7768	0.073
Mof_H 	H 	0.8705	0.1639	0.7253	0.02
Mof_C 	C 	0.8845	0.0833	0.8786	-0.162
Mof_H 	H 	0.9486	0.1089	0.8987	0.103
Mof_C 	C 	0.8402	0.0106	0.9521	0.111
Mof_H 	H 	0.8765	0.9826	0.0159	-0.016
Mof_Mn	Mn	0.48857	0.24177	0.56134	0.97
Mof_Mn	Mn	0.71964	0.24817	0.40987	0.867
Mof_O 	O 	0.5945	0.3567	0.5986	-0.401
Mof_O 	O 	0.7298	0.409	0.4903	-0.422
Mof_O 	O 	0.3651	0.629	0.7645	-0.405
Mof_O 	O 	0.4449	0.7439	0.8762	-0.431
Mof_O 	O 	0.2568	0.132	0.5941	-0.41
Mof_O 	O 	0.3986	0.1227	0.4859	-0.394
Mof_O 	O 	0.2553	0.8315	0.0657	-0.427
Mof_O 	O 	0.4086	0.8717	0.1359	-0.391
Mof_C 	C 	0.6606	0.4248	0.5686	0.388
Mof_C 	C 	0.4463	0.6733	0.796	0.371
Mof_C 	C 	0.3091	0.0974	0.5099	0.405
Mof_C 	C 	0.3134	0.8683	0.1425	0.409
Mof_C 	C 	0.5467	0.6464	0.7388	-0.144
Mof_C 	C 	0.5568	0.5544	0.6804	0.088
Mof_H 	H 	0.5007	0.5111	0.673	0.011
Mof_C 	C 	0.6523	0.5258	0.6317	-0.151
Mof_C 	C 	0.735	0.5894	0.6442	0.079
Mof_H 	H 	0.798	0.5705	0.6123	0.019
Mof_C 	C 	0.7252	0.6818	0.7043	-0.135
Mof_H 	H 	0.7819	0.7241	0.7131	0.088
Mof_C 	C 	0.6315	0.712	0.7515	0.072
Mof_H 	H 	0.6246	0.7763	0.7924	0.024
Mof_C 	C 	0.2601	0.0199	0.4289	-0.159
Mof_C 	C 	0.3107	0.982	0.3285	0.084
Mof_H 	H 	0.3774	0.0027	0.3122	0.024
Mof_C 	C 	0.2621	0.9136	0.2528	-0.155
Mof_C 	C 	0.1629	0.881	0.2768	0.069
Mof_H 	H 	0.1295	0.8361	0.2253	0.018
Mof_C 	C 	0.1155	0.9167	0.3786	-0.146
Mof_H 	H 	0.0514	0.8911	0.3987	0.088
Mof_C 	C 	0.1598	0.9894	0.4521	0.073
Mof_H 	H 	0.1235	0.0174	0.5159	0.016
_end
