data_functionalizedCrystal
_audit_creation_method	'EQeq! by Chris Wilmer'
_symmetry_space_group_name_H-M	'P1'
_symmetry_Int_Tables_number	1
_symmetry_cell_setting	triclinic
loop_
_symmetry_equiv_pos_as_xyz
  x,y,z
_cell_length_a	30.907
_cell_length_b	11.1447
_cell_length_c	7.4349
_cell_angle_alpha	90
_cell_angle_beta	92.63
_cell_angle_gamma	90
loop_
_atom_site_label
_atom_site_type_symbol
_atom_site_fract_x
_atom_site_fract_y
_atom_site_fract_z
_atom_site_charge
Mof_Mo	Mo	0.79131	0.98501	0.82655	2.29
Mof_Mo	Mo	0.90937	0.97686	0.76878	1.706
Mof_O 	O 	0.76508	0.8645	0.7189	-0.73
Mof_O 	O 	0.75141	0.096	0.8458	-0.707
Mof_O 	O 	0.79812	0.9395	0.0516	-0.785
Mof_O 	O 	0.85226	0.9337	0.7736	-0.745
Mof_O 	O 	0.90917	0.0432	0.5524	-0.727
Mof_O 	O 	0.96093	0.0749	0.8521	-0.669
Mof_N 	N 	0.89721	0.6337	0.0082	-0.228
Mof_N 	N 	0.81898	0.2597	0.9379	-0.186
Mof_N 	N 	0.83352	0.1518	0.8894	-0.175
Mof_N 	N 	0.87535	0.1571	0.8646	-0.131
Mof_N 	N 	0.88945	0.2664	0.8943	-0.186
Mof_H 	H 	0.9155	0.2927	0.8874	0.069
Mof_C 	C 	0.8556	0.458	0.9653	-0.17
Mof_C 	C 	0.89527	0.5123	0.9974	0.164
Mof_H 	H 	0.9203	0.4664	0.0114	-0.087
Mof_C 	C 	0.86158	0.7022	0.9928	0.186
Mof_H 	H 	0.8641	0.7851	0.003	-0.052
Mof_C 	C 	0.82189	0.652	0.9623	-0.209
Mof_H 	H 	0.7972	0.6995	0.9515	0.113
Mof_C 	C 	0.81905	0.5269	0.9473	0.134
Mof_H 	H 	0.7922	0.4906	0.9251	-0.02
Mof_C 	C 	0.85434	0.3281	0.9377	0.186
Mof_Mo	Mo	0.29131	0.48501	0.82655	2.316
Mof_Mo	Mo	0.40937	0.47686	0.76878	1.718
Mof_O 	O 	0.26508	0.3645	0.7189	-0.734
Mof_O 	O 	0.25141	0.596	0.8458	-0.722
Mof_O 	O 	0.29812	0.4395	0.0516	-0.803
Mof_O 	O 	0.35226	0.4337	0.7736	-0.747
Mof_O 	O 	0.40917	0.5432	0.5524	-0.738
Mof_O 	O 	0.46093	0.5749	0.8521	-0.705
Mof_N 	N 	0.39721	0.1337	0.0082	-0.263
Mof_N 	N 	0.31898	0.7597	0.9379	-0.193
Mof_N 	N 	0.33352	0.6518	0.8894	-0.179
Mof_N 	N 	0.37535	0.6571	0.8646	-0.135
Mof_N 	N 	0.38945	0.7664	0.8943	-0.189
Mof_H 	H 	0.4155	0.7927	0.8874	0.061
Mof_C 	C 	0.3556	0.958	0.9653	-0.226
Mof_C 	C 	0.39527	0.0123	0.9974	0.206
Mof_H 	H 	0.4203	0.9664	0.0114	-0.099
Mof_C 	C 	0.36158	0.2022	0.9928	0.258
Mof_H 	H 	0.3641	0.2851	0.003	-0.087
Mof_C 	C 	0.32189	0.152	0.9623	-0.278
Mof_H 	H 	0.2972	0.1995	0.9515	0.142
Mof_C 	C 	0.31905	0.0269	0.9473	0.211
Mof_H 	H 	0.2922	0.9906	0.9251	-0.053
Mof_C 	C 	0.35434	0.8281	0.9377	0.198
Mof_Mo	Mo	0.20869	0.98501	0.67345	2.269
Mof_Mo	Mo	0.09063	0.97686	0.73122	1.673
Mof_O 	O 	0.23492	0.8645	0.7811	-0.723
Mof_O 	O 	0.24859	0.096	0.6542	-0.721
Mof_O 	O 	0.20188	0.9395	0.4484	-0.766
Mof_O 	O 	0.14774	0.9337	0.7264	-0.74
Mof_O 	O 	0.09083	0.0432	0.9476	-0.705
Mof_O 	O 	0.03907	0.0749	0.6479	-0.701
Mof_N 	N 	0.10279	0.6337	0.4918	-0.179
Mof_N 	N 	0.18102	0.2597	0.5621	-0.189
Mof_N 	N 	0.16648	0.1518	0.6106	-0.179
Mof_N 	N 	0.12465	0.1571	0.6354	-0.135
Mof_N 	N 	0.11055	0.2664	0.6057	-0.179
Mof_H 	H 	0.0845	0.2927	0.6126	0.055
Mof_C 	C 	0.1444	0.458	0.5347	-0.113
Mof_C 	C 	0.10473	0.5123	0.5026	0.065
Mof_H 	H 	0.0797	0.4664	0.4886	-0.04
Mof_C 	C 	0.13842	0.7022	0.5072	0.088
Mof_H 	H 	0.1359	0.7851	0.497	-0.003
Mof_C 	C 	0.17811	0.652	0.5377	-0.134
Mof_H 	H 	0.2028	0.6995	0.5485	0.082
Mof_C 	C 	0.18095	0.5269	0.5527	0.073
Mof_H 	H 	0.2078	0.4906	0.5749	-0.003
Mof_C 	C 	0.14566	0.3281	0.5623	0.161
Mof_Mo	Mo	0.70869	0.48501	0.67345	2.273
Mof_Mo	Mo	0.59063	0.47686	0.73122	1.697
Mof_O 	O 	0.73492	0.3645	0.7811	-0.719
Mof_O 	O 	0.74859	0.596	0.6542	-0.724
Mof_O 	O 	0.70188	0.4395	0.4484	-0.775
Mof_O 	O 	0.64774	0.4337	0.7264	-0.742
Mof_O 	O 	0.59083	0.5432	0.9476	-0.717
Mof_O 	O 	0.53907	0.5749	0.6479	-0.71
Mof_N 	N 	0.60279	0.1337	0.4918	-0.175
Mof_N 	N 	0.68102	0.7597	0.5621	-0.189
Mof_N 	N 	0.66648	0.6518	0.6106	-0.18
Mof_N 	N 	0.62465	0.6571	0.6354	-0.137
Mof_N 	N 	0.61055	0.7664	0.6057	-0.179
Mof_H 	H 	0.5845	0.7927	0.6126	0.054
Mof_C 	C 	0.6444	0.958	0.5347	-0.099
Mof_C 	C 	0.60473	0.0123	0.5026	0.049
Mof_H 	H 	0.5797	0.9664	0.4886	-0.03
Mof_C 	C 	0.63842	0.2022	0.5072	0.084
Mof_H 	H 	0.6359	0.2851	0.497	-0.002
Mof_C 	C 	0.67811	0.152	0.5377	-0.124
Mof_H 	H 	0.7028	0.1995	0.5485	0.079
Mof_C 	C 	0.68095	0.0269	0.5527	0.058
Mof_H 	H 	0.7078	0.9906	0.5749	0.003
Mof_C 	C 	0.64566	0.8281	0.5623	0.155
Mof_Mo	Mo	0.20869	0.01499	0.17345	2.193
Mof_Mo	Mo	0.09063	0.02314	0.23122	1.621
Mof_O 	O 	0.23492	0.1355	0.2811	-0.723
Mof_O 	O 	0.24859	0.904	0.1542	-0.711
Mof_O 	O 	0.20188	0.0605	0.9484	-0.743
Mof_O 	O 	0.14774	0.0663	0.2264	-0.74
Mof_O 	O 	0.09083	0.9568	0.4476	-0.713
Mof_O 	O 	0.03907	0.9251	0.1479	-0.696
Mof_N 	N 	0.10279	0.3663	0.9918	-0.11
Mof_N 	N 	0.18102	0.7403	0.0621	-0.188
Mof_N 	N 	0.16648	0.8482	0.1106	-0.177
Mof_N 	N 	0.12465	0.8429	0.1354	-0.134
Mof_N 	N 	0.11055	0.7336	0.1057	-0.174
Mof_H 	H 	0.0845	0.7073	0.1126	0.046
Mof_C 	C 	0.1444	0.542	0.0347	-0.044
Mof_C 	C 	0.10473	0.4877	0.0026	-0.055
Mof_H 	H 	0.0797	0.5336	0.9886	0.021
Mof_C 	C 	0.13842	0.2978	0.0072	-0.069
Mof_H 	H 	0.1359	0.2149	0.997	0.073
Mof_C 	C 	0.17811	0.348	0.0377	-0.024
Mof_H 	H 	0.2028	0.3005	0.0485	0.031
Mof_C 	C 	0.18095	0.4731	0.0527	-0.021
Mof_H 	H 	0.2078	0.5094	0.0749	0.024
Mof_C 	C 	0.14566	0.6719	0.0623	0.126
Mof_Mo	Mo	0.70869	0.51499	0.17345	2.234
Mof_Mo	Mo	0.59063	0.52314	0.23122	1.662
Mof_O 	O 	0.73492	0.6355	0.2811	-0.728
Mof_O 	O 	0.74859	0.404	0.1542	-0.728
Mof_O 	O 	0.70188	0.5605	0.9484	-0.757
Mof_O 	O 	0.64774	0.5663	0.2264	-0.745
Mof_O 	O 	0.59083	0.4568	0.4476	-0.727
Mof_O 	O 	0.53907	0.4251	0.1479	-0.713
Mof_N 	N 	0.60279	0.8663	0.9918	-0.148
Mof_N 	N 	0.68102	0.2403	0.0621	-0.196
Mof_N 	N 	0.66648	0.3482	0.1106	-0.183
Mof_N 	N 	0.62465	0.3429	0.1354	-0.14
Mof_N 	N 	0.61055	0.2336	0.1057	-0.182
Mof_H 	H 	0.5845	0.2073	0.1126	0.045
Mof_C 	C 	0.6444	0.042	0.0347	-0.144
Mof_C 	C 	0.60473	0.9877	0.0026	0.027
Mof_H 	H 	0.5797	0.0336	0.9886	0
Mof_C 	C 	0.63842	0.7978	0.0072	0.02
Mof_H 	H 	0.6359	0.7149	0.997	0.034
Mof_C 	C 	0.67811	0.848	0.0377	-0.124
Mof_H 	H 	0.7028	0.8005	0.0485	0.071
Mof_C 	C 	0.68095	0.9731	0.0527	0.109
Mof_H 	H 	0.7078	0.0094	0.0749	-0.032
Mof_C 	C 	0.64566	0.1719	0.0623	0.153
Mof_Mo	Mo	0.79131	0.01499	0.32655	2.255
Mof_Mo	Mo	0.90937	0.02314	0.26878	1.661
Mof_O 	O 	0.76508	0.1355	0.2189	-0.735
Mof_O 	O 	0.75141	0.904	0.3458	-0.719
Mof_O 	O 	0.79812	0.0605	0.5516	-0.777
Mof_O 	O 	0.85226	0.0663	0.2736	-0.749
Mof_O 	O 	0.90917	0.9568	0.0524	-0.727
Mof_O 	O 	0.96093	0.9251	0.3521	-0.67
Mof_N 	N 	0.89721	0.3663	0.5082	-0.175
Mof_N 	N 	0.81898	0.7403	0.4379	-0.191
Mof_N 	N 	0.83352	0.8482	0.3894	-0.179
Mof_N 	N 	0.87535	0.8429	0.3646	-0.133
Mof_N 	N 	0.88945	0.7336	0.3943	-0.182
Mof_H 	H 	0.9155	0.7073	0.3874	0.06
Mof_C 	C 	0.8556	0.542	0.4653	-0.115
Mof_C 	C 	0.89527	0.4877	0.4974	0.059
Mof_H 	H 	0.9203	0.5336	0.5114	-0.029
Mof_C 	C 	0.86158	0.2978	0.4928	0.082
Mof_H 	H 	0.8641	0.2149	0.503	-0.003
Mof_C 	C 	0.82189	0.348	0.4623	-0.135
Mof_H 	H 	0.7972	0.3005	0.4515	0.081
Mof_C 	C 	0.81905	0.4731	0.4473	0.065
Mof_H 	H 	0.7922	0.5094	0.4251	-0.003
Mof_C 	C 	0.85434	0.6719	0.4377	0.155
Mof_Mo	Mo	0.29131	0.51499	0.32655	2.277
Mof_Mo	Mo	0.40937	0.52314	0.26878	1.684
Mof_O 	O 	0.26508	0.6355	0.2189	-0.737
Mof_O 	O 	0.25141	0.404	0.3458	-0.727
Mof_O 	O 	0.29812	0.5605	0.5516	-0.784
Mof_O 	O 	0.35226	0.5663	0.2736	-0.75
Mof_O 	O 	0.40917	0.4568	0.0524	-0.746
Mof_O 	O 	0.46093	0.4251	0.3521	-0.707
Mof_N 	N 	0.39721	0.8663	0.5082	-0.187
Mof_N 	N 	0.31898	0.2403	0.4379	-0.193
Mof_N 	N 	0.33352	0.3482	0.3894	-0.182
Mof_N 	N 	0.37535	0.3429	0.3646	-0.137
Mof_N 	N 	0.38945	0.2336	0.3943	-0.184
Mof_H 	H 	0.4155	0.2073	0.3874	0.053
Mof_C 	C 	0.3556	0.042	0.4653	-0.148
Mof_C 	C 	0.39527	0.9877	0.4974	0.088
Mof_H 	H 	0.4203	0.0336	0.5114	-0.048
Mof_C 	C 	0.36158	0.7978	0.4928	0.099
Mof_H 	H 	0.3641	0.7149	0.503	-0.01
Mof_C 	C 	0.32189	0.848	0.4623	-0.162
Mof_H 	H 	0.2972	0.8005	0.4515	0.09
Mof_C 	C 	0.31905	0.9731	0.4473	0.107
Mof_H 	H 	0.2922	0.0094	0.4251	-0.021
Mof_C 	C 	0.35434	0.1719	0.4377	0.163
Mof_Mo	Mo	-1.38873e-18	0.16931	0.75	0.97
Mof_Mo	Mo	0.5	0.66931	0.75	1.03
Mof_Mo	Mo	2.35833e-34	0.83069	0.25	0.949
Mof_Mo	Mo	0.5	0.33069	0.25	1.007
Mof_Co	Co	0.75	0.25	-0	1.186
Mof_Co	Co	0.25	0.25	0.5	1.202
Mof_Co	Co	0.25	0.75	-0	1.193
Mof_Co	Co	0.75	0.75	0.5	1.202
_end
