data_functionalizedCrystal
_audit_creation_method	'EQeq! by Chris Wilmer'
_symmetry_space_group_name_H-M	'P1'
_symmetry_Int_Tables_number	1
_symmetry_cell_setting	triclinic
loop_
_symmetry_equiv_pos_as_xyz
  x,y,z
_cell_length_a	21.742
_cell_length_b	7.367
_cell_length_c	14.417
_cell_angle_alpha	90
_cell_angle_beta	90
_cell_angle_gamma	90
loop_
_atom_site_label
_atom_site_type_symbol
_atom_site_fract_x
_atom_site_fract_y
_atom_site_fract_z
_atom_site_charge
Mof_N 	N 	0.4352	0.3449	0.5597	-0.219
Mof_C 	C 	0.3876	0.6015	0.3908	0.09
Mof_H 	H 	0.3769	0.4814	0.3792	-0.03
Mof_C 	C 	0.3005	0.852	0.2239	-0.065
Mof_C 	C 	0.2538	0.85	0.3318	-0.064
Mof_H 	H 	0.3347	0.9263	0.2061	0.046
Mof_H 	H 	0.2558	0.9142	0.3897	0.056
Mof_N 	N 	0.9352	0.8449	0.0597	-0.216
Mof_C 	C 	0.8876	0.1015	0.8908	0.028
Mof_H 	H 	0.8769	0.9814	0.8792	0.049
Mof_C 	C 	0.8005	0.352	0.7239	-0.063
Mof_C 	C 	0.7538	0.35	0.8318	-0.063
Mof_H 	H 	0.8347	0.4263	0.7061	0.054
Mof_H 	H 	0.7558	0.4142	0.8897	0.065
Mof_N 	N 	0.5648	0.1551	0.5597	-0.212
Mof_C 	C 	0.6124	0.8985	0.3908	0.17
Mof_H 	H 	0.6231	0.0186	0.3792	-0.086
Mof_C 	C 	0.6995	0.648	0.2239	-0.065
Mof_C 	C 	0.7462	0.65	0.3318	-0.067
Mof_H 	H 	0.6653	0.5737	0.2061	0.033
Mof_H 	H 	0.7442	0.5858	0.3897	0.049
Mof_N 	N 	0.0648	0.6551	0.0597	-0.241
Mof_C 	C 	0.1124	0.3985	0.8908	0.096
Mof_H 	H 	0.1231	0.5186	0.8792	-0.012
Mof_C 	C 	0.1995	0.148	0.7239	-0.063
Mof_C 	C 	0.2462	0.15	0.8318	-0.067
Mof_H 	H 	0.1653	0.0737	0.7061	0.029
Mof_H 	H 	0.2442	0.0858	0.8897	0.055
Mof_N 	N 	0.5648	0.8449	0.4403	-0.223
Mof_C 	C 	0.6124	0.1015	0.6092	0.011
Mof_H 	H 	0.6231	0.9814	0.6208	0.037
Mof_C 	C 	0.6995	0.352	0.7761	-0.053
Mof_C 	C 	0.7462	0.35	0.6682	-0.054
Mof_H 	H 	0.6653	0.4263	0.7939	0.052
Mof_H 	H 	0.7442	0.4142	0.6103	0.047
Mof_N 	N 	0.0648	0.3449	0.9403	-0.203
Mof_C 	C 	0.1124	0.6015	0.1092	0.076
Mof_H 	H 	0.1231	0.4814	0.1208	-0.04
Mof_C 	C 	0.1995	0.852	0.2761	-0.056
Mof_C 	C 	0.2462	0.85	0.1682	-0.056
Mof_H 	H 	0.1653	0.9263	0.2939	0.046
Mof_H 	H 	0.2442	0.9142	0.1103	0.039
Mof_N 	N 	0.4352	0.6551	0.4403	-0.22
Mof_C 	C 	0.3876	0.3985	0.6092	0.09
Mof_H 	H 	0.3769	0.5186	0.6208	-0.019
Mof_C 	C 	0.3005	0.148	0.7761	-0.057
Mof_C 	C 	0.2538	0.15	0.6682	-0.064
Mof_H 	H 	0.3347	0.0737	0.7939	0.041
Mof_H 	H 	0.2558	0.0858	0.6103	0.034
Mof_N 	N 	0.9352	0.1551	0.9403	-0.17
Mof_C 	C 	0.8876	0.8985	0.1092	0.166
Mof_H 	H 	0.8769	0.0186	0.1208	-0.088
Mof_C 	C 	0.8005	0.648	0.2761	-0.061
Mof_C 	C 	0.7538	0.65	0.1682	-0.066
Mof_H 	H 	0.8347	0.5737	0.2939	0.047
Mof_H 	H 	0.7558	0.5858	0.1103	0.03
Mof_N 	N 	0.5648	0.6551	0.4403	-0.22
Mof_C 	C 	0.6124	0.3985	0.6092	0.09
Mof_H 	H 	0.6231	0.5186	0.6208	-0.019
Mof_C 	C 	0.6995	0.148	0.7761	-0.055
Mof_C 	C 	0.7462	0.15	0.6682	-0.06
Mof_H 	H 	0.6653	0.0737	0.7939	0.041
Mof_H 	H 	0.7442	0.0858	0.6103	0.037
Mof_N 	N 	0.0648	0.1551	0.9403	-0.195
Mof_C 	C 	0.1124	0.8985	0.1092	0.159
Mof_H 	H 	0.1231	0.0186	0.1208	-0.098
Mof_C 	C 	0.1995	0.648	0.2761	-0.058
Mof_C 	C 	0.2462	0.65	0.1682	-0.063
Mof_H 	H 	0.1653	0.5737	0.2939	0.033
Mof_H 	H 	0.2442	0.5858	0.1103	0.028
Mof_N 	N 	0.4352	0.8449	0.4403	-0.223
Mof_C 	C 	0.3876	0.1015	0.6092	0.011
Mof_H 	H 	0.3769	0.9814	0.6208	0.037
Mof_C 	C 	0.3005	0.352	0.7761	-0.055
Mof_C 	C 	0.2538	0.35	0.6682	-0.057
Mof_H 	H 	0.3347	0.4263	0.7939	0.053
Mof_H 	H 	0.2558	0.4142	0.6103	0.044
Mof_N 	N 	0.9352	0.3449	0.9403	-0.178
Mof_C 	C 	0.8876	0.6015	0.1092	0.085
Mof_H 	H 	0.8769	0.4814	0.1208	-0.031
Mof_C 	C 	0.8005	0.852	0.2761	-0.059
Mof_C 	C 	0.7538	0.85	0.1682	-0.059
Mof_H 	H 	0.8347	0.9263	0.2939	0.059
Mof_H 	H 	0.7558	0.9142	0.1103	0.04
Mof_N 	N 	0.4352	0.1551	0.5597	-0.212
Mof_C 	C 	0.3876	0.8985	0.3908	0.171
Mof_H 	H 	0.3769	0.0186	0.3792	-0.087
Mof_C 	C 	0.3005	0.648	0.2239	-0.068
Mof_C 	C 	0.2538	0.65	0.3318	-0.071
Mof_H 	H 	0.3347	0.5737	0.2061	0.034
Mof_H 	H 	0.2558	0.5858	0.3897	0.046
Mof_N 	N 	0.9352	0.6551	0.0597	-0.212
Mof_C 	C 	0.8876	0.3985	0.8908	0.104
Mof_H 	H 	0.8769	0.5186	0.8792	-0.004
Mof_C 	C 	0.8005	0.148	0.7239	-0.065
Mof_C 	C 	0.7538	0.15	0.8318	-0.07
Mof_H 	H 	0.8347	0.0737	0.7061	0.043
Mof_H 	H 	0.7558	0.0858	0.8897	0.056
Mof_N 	N 	0.5648	0.3449	0.5597	-0.219
Mof_C 	C 	0.6124	0.6015	0.3908	0.089
Mof_H 	H 	0.6231	0.4814	0.3792	-0.029
Mof_C 	C 	0.6995	0.852	0.2239	-0.063
Mof_C 	C 	0.7462	0.85	0.3318	-0.06
Mof_H 	H 	0.6653	0.9263	0.2061	0.045
Mof_H 	H 	0.7442	0.9142	0.3897	0.059
Mof_N 	N 	0.0648	0.8449	0.0597	-0.244
Mof_C 	C 	0.1124	0.1015	0.8908	0.019
Mof_H 	H 	0.1231	0.9814	0.8792	0.043
Mof_C 	C 	0.1995	0.352	0.7239	-0.061
Mof_C 	C 	0.2462	0.35	0.8318	-0.06
Mof_H 	H 	0.1653	0.4263	0.7061	0.041
Mof_H 	H 	0.2442	0.4142	0.8897	0.064
Mof_Cu	Cu	0.5	0.5	0.5	0.831
Mof_Cu	Cu	-0	0	-0	0.748
Mof_Cu	Cu	0.5	-1.09316e-32	0.5	0.812
Mof_Cu	Cu	-0	0.5	-0	0.767
Mof_N 	N 	0.3566	0.75	0.3592	-0.173
Mof_C 	C 	0.302	0.75	0.3029	0.132
Mof_N 	N 	0.8566	0.25	0.8592	-0.145
Mof_C 	C 	0.802	0.25	0.8029	0.126
Mof_N 	N 	0.6434	0.75	0.3592	-0.172
Mof_C 	C 	0.698	0.75	0.3029	0.128
Mof_N 	N 	0.1434	0.25	0.8592	-0.146
Mof_C 	C 	0.198	0.25	0.8029	0.119
Mof_N 	N 	0.6434	0.25	0.6408	-0.144
Mof_C 	C 	0.698	0.25	0.6971	0.107
Mof_N 	N 	0.1434	0.75	0.1408	-0.172
Mof_C 	C 	0.198	0.75	0.1971	0.115
Mof_N 	N 	0.3566	0.25	0.6408	-0.145
Mof_C 	C 	0.302	0.25	0.6971	0.111
Mof_N 	N 	0.8566	0.75	0.1408	-0.171
Mof_C 	C 	0.802	0.75	0.1971	0.123
_end
