data_functionalizedCrystal
_audit_creation_method	'EQeq! by Chris Wilmer'
_symmetry_space_group_name_H-M	'P1'
_symmetry_Int_Tables_number	1
_symmetry_cell_setting	triclinic
loop_
_symmetry_equiv_pos_as_xyz
  x,y,z
_cell_length_a	10.728
_cell_length_b	13.79
_cell_length_c	19.576
_cell_angle_alpha	90
_cell_angle_beta	90
_cell_angle_gamma	104.49
loop_
_atom_site_label
_atom_site_type_symbol
_atom_site_fract_x
_atom_site_fract_y
_atom_site_fract_z
_atom_site_charge
Mof_Ni	Ni	0.75409	0.20476	0.97439	1.114
Mof_Ni	Ni	0.59494	0.36062	0.88175	1.113
Mof_Ni	Ni	0.24591	0.29524	0.47439	1.114
Mof_Ni	Ni	0.40506	0.13938	0.38175	1.113
Mof_Ni	Ni	0.24591	0.79524	0.02561	1.114
Mof_Ni	Ni	0.40506	0.63938	0.11825	1.113
Mof_Ni	Ni	0.75409	0.70476	0.52561	1.114
Mof_Ni	Ni	0.59494	0.86062	0.61825	1.113
Mof_H 	H 	0.682	0.9046	0.9103	0.023
Mof_H 	H 	0.5943	0.7485	0.8632	0.093
Mof_H 	H 	0.5609	0.7332	0.7477	0.014
Mof_H 	H 	0.6924	0.0205	0.7234	0.018
Mof_H 	H 	0.1302	0.9483	0.806	0.094
Mof_H 	H 	0.1124	0.8285	0.8881	-0.001
Mof_H 	H 	0.4008	0.9939	0.9875	0.017
Mof_H 	H 	0.2885	0.0982	0.8154	0.016
Mof_H 	H 	0.8404	0.4618	0.1196	0.032
Mof_H 	H 	0.848	0.6047	0.1837	0.094
Mof_H 	H 	0.6739	0.672	0.1872	0.004
Mof_H 	H 	0.4882	0.4717	0.059	0.019
Mof_H 	H 	0.302	0.3386	0.0328	0.027
Mof_H 	H 	0.2207	0.1931	0.9707	0.089
Mof_H 	H 	0.0063	0.1451	0.9447	0.01
Mof_H 	H 	0.9482	0.3812	0.0352	0.026
Mof_H 	H 	0.318	0.5954	0.4103	0.022
Mof_H 	H 	0.4057	0.7515	0.3632	0.093
Mof_H 	H 	0.4391	0.7668	0.2477	0.014
Mof_H 	H 	0.3076	0.4795	0.2234	0.018
Mof_H 	H 	0.8698	0.5517	0.306	0.094
Mof_H 	H 	0.8876	0.6715	0.3881	-0.001
Mof_H 	H 	0.5992	0.5061	0.4875	0.017
Mof_H 	H 	0.7115	0.4018	0.3154	0.016
Mof_H 	H 	0.1596	0.0382	0.6196	0.032
Mof_H 	H 	0.152	0.8953	0.6837	0.094
Mof_H 	H 	0.3261	0.828	0.6872	0.004
Mof_H 	H 	0.5118	0.0283	0.559	0.019
Mof_H 	H 	0.698	0.1614	0.5328	0.028
Mof_H 	H 	0.7793	0.3069	0.4707	0.088
Mof_H 	H 	0.9937	0.3549	0.4447	0.011
Mof_H 	H 	0.0518	0.1188	0.5352	0.027
Mof_H 	H 	0.318	0.0954	0.0897	0.023
Mof_H 	H 	0.4057	0.2515	0.1368	0.093
Mof_H 	H 	0.4391	0.2668	0.2523	0.014
Mof_H 	H 	0.3076	0.9795	0.2766	0.018
Mof_H 	H 	0.8698	0.0517	0.194	0.094
Mof_H 	H 	0.8876	0.1715	0.1119	-0.001
Mof_H 	H 	0.5992	0.0061	0.0125	0.017
Mof_H 	H 	0.7115	0.9018	0.1846	0.016
Mof_H 	H 	0.1596	0.5382	0.8804	0.032
Mof_H 	H 	0.152	0.3953	0.8163	0.094
Mof_H 	H 	0.3261	0.328	0.8128	0.004
Mof_H 	H 	0.5118	0.5283	0.941	0.019
Mof_H 	H 	0.698	0.6614	0.9672	0.027
Mof_H 	H 	0.7793	0.8069	0.0293	0.089
Mof_H 	H 	0.9937	0.8549	0.0553	0.01
Mof_H 	H 	0.0518	0.6188	0.9648	0.026
Mof_H 	H 	0.682	0.4046	0.5897	0.022
Mof_H 	H 	0.5943	0.2485	0.6368	0.093
Mof_H 	H 	0.5609	0.2332	0.7523	0.014
Mof_H 	H 	0.6924	0.5205	0.7766	0.018
Mof_H 	H 	0.1302	0.4483	0.694	0.094
Mof_H 	H 	0.1124	0.3285	0.6119	-0.001
Mof_H 	H 	0.4008	0.4939	0.5125	0.017
Mof_H 	H 	0.2885	0.5982	0.6846	0.016
Mof_H 	H 	0.8404	0.9618	0.3804	0.032
Mof_H 	H 	0.848	0.1047	0.3163	0.094
Mof_H 	H 	0.6739	0.172	0.3128	0.004
Mof_H 	H 	0.4882	0.9717	0.441	0.019
Mof_H 	H 	0.302	0.8386	0.4672	0.028
Mof_H 	H 	0.2207	0.6931	0.5293	0.088
Mof_H 	H 	0.0063	0.6451	0.5553	0.011
Mof_H 	H 	0.9482	0.8812	0.4648	0.027
Mof_C 	C 	0.7522	0.084	0.84849	0.347
Mof_C 	C 	0.6987	0.9801	0.82079	-0.127
Mof_C 	C 	0.6675	0.8976	0.8635	0.075
Mof_C 	C 	0.6165	0.8049	0.8355	-0.142
Mof_C 	C 	0.5966	0.7963	0.7661	0.097
Mof_C 	C 	0.6742	0.9649	0.75202	0.089
Mof_C 	C 	0.1865	0.9592	0.8429	-0.159
Mof_C 	C 	0.1778	0.8871	0.8918	0.101
Mof_C 	C 	0.3472	0.984	0.94944	0.103
Mof_C 	C 	0.2827	0.0475	0.8475	0.09
Mof_C 	C 	0.3673	0.0595	0.90164	-0.159
Mof_C 	C 	0.4777	0.1501	0.90965	0.401
Mof_C 	C 	0.6498	0.3646	0.03313	0.386
Mof_C 	C 	0.6602	0.4499	0.08224	-0.143
Mof_C 	C 	0.7707	0.4906	0.1202	0.079
Mof_C 	C 	0.7746	0.5751	0.1588	-0.143
Mof_C 	C 	0.67	0.6156	0.1604	0.091
Mof_C 	C 	0.5608	0.497	0.08562	0.093
Mof_C 	C 	0.1744	0.4712	0.0812	0.352
Mof_C 	C 	0.1313	0.3746	0.04186	-0.126
Mof_C 	C 	0.215	0.3187	0.0217	0.071
Mof_C 	C 	0.1665	0.2322	0.9849	-0.138
Mof_C 	C 	0.0373	0.2035	0.9696	0.085
Mof_C 	C 	0.0037	0.342	0.02296	0.089
Mof_C 	C 	0.2478	0.416	0.34849	0.348
Mof_C 	C 	0.3013	0.5199	0.32079	-0.128
Mof_C 	C 	0.3325	0.6024	0.3635	0.076
Mof_C 	C 	0.3835	0.6951	0.3355	-0.142
Mof_C 	C 	0.4034	0.7037	0.2661	0.097
Mof_C 	C 	0.3258	0.5351	0.25202	0.088
Mof_C 	C 	0.8135	0.5408	0.3429	-0.159
Mof_C 	C 	0.8222	0.6129	0.3918	0.101
Mof_C 	C 	0.6528	0.516	0.44944	0.102
Mof_C 	C 	0.7173	0.4525	0.3475	0.09
Mof_C 	C 	0.6327	0.4405	0.40164	-0.158
Mof_C 	C 	0.5223	0.3499	0.40965	0.401
Mof_C 	C 	0.3502	0.1354	0.53313	0.385
Mof_C 	C 	0.3398	0.0501	0.58224	-0.143
Mof_C 	C 	0.2293	0.0094	0.6202	0.079
Mof_C 	C 	0.2254	0.9249	0.6588	-0.143
Mof_C 	C 	0.33	0.8844	0.6604	0.091
Mof_C 	C 	0.4392	0.003	0.58562	0.092
Mof_C 	C 	0.8256	0.0288	0.5812	0.35
Mof_C 	C 	0.8687	0.1254	0.54186	-0.125
Mof_C 	C 	0.785	0.1813	0.5217	0.069
Mof_C 	C 	0.8335	0.2678	0.4849	-0.137
Mof_C 	C 	0.9627	0.2965	0.4696	0.084
Mof_C 	C 	0.9963	0.158	0.52296	0.087
Mof_C 	C 	0.2478	0.916	0.15151	0.347
Mof_C 	C 	0.3013	0.0199	0.17921	-0.127
Mof_C 	C 	0.3325	0.1024	0.1365	0.075
Mof_C 	C 	0.3835	0.1951	0.1645	-0.142
Mof_C 	C 	0.4034	0.2037	0.2339	0.097
Mof_C 	C 	0.3258	0.0351	0.24798	0.089
Mof_C 	C 	0.8135	0.0408	0.1571	-0.159
Mof_C 	C 	0.8222	0.1129	0.1082	0.101
Mof_C 	C 	0.6528	0.016	0.05056	0.103
Mof_C 	C 	0.7173	0.9525	0.1525	0.09
Mof_C 	C 	0.6327	0.9405	0.09836	-0.159
Mof_C 	C 	0.5223	0.8499	0.09035	0.401
Mof_C 	C 	0.3502	0.6354	0.96687	0.386
Mof_C 	C 	0.3398	0.5501	0.91776	-0.143
Mof_C 	C 	0.2293	0.5094	0.8798	0.079
Mof_C 	C 	0.2254	0.4249	0.8412	-0.143
Mof_C 	C 	0.33	0.3844	0.8396	0.091
Mof_C 	C 	0.4392	0.503	0.91438	0.093
Mof_C 	C 	0.8256	0.5288	0.9188	0.352
Mof_C 	C 	0.8687	0.6254	0.95814	-0.126
Mof_C 	C 	0.785	0.6813	0.9783	0.071
Mof_C 	C 	0.8335	0.7678	0.0151	-0.138
Mof_C 	C 	0.9627	0.7965	0.0304	0.085
Mof_C 	C 	0.9963	0.658	0.97704	0.089
Mof_C 	C 	0.7522	0.584	0.65151	0.348
Mof_C 	C 	0.6987	0.4801	0.67921	-0.128
Mof_C 	C 	0.6675	0.3976	0.6365	0.076
Mof_C 	C 	0.6165	0.3049	0.6645	-0.142
Mof_C 	C 	0.5966	0.2963	0.7339	0.097
Mof_C 	C 	0.6742	0.4649	0.74798	0.088
Mof_C 	C 	0.1865	0.4592	0.6571	-0.159
Mof_C 	C 	0.1778	0.3871	0.6082	0.101
Mof_C 	C 	0.3472	0.484	0.55056	0.102
Mof_C 	C 	0.2827	0.5475	0.6525	0.09
Mof_C 	C 	0.3673	0.5595	0.59836	-0.158
Mof_C 	C 	0.4777	0.6501	0.59035	0.401
Mof_C 	C 	0.6498	0.8646	0.46687	0.385
Mof_C 	C 	0.6602	0.9499	0.41776	-0.143
Mof_C 	C 	0.7707	0.9906	0.3798	0.079
Mof_C 	C 	0.7746	0.0751	0.3412	-0.143
Mof_C 	C 	0.67	0.1156	0.3396	0.091
Mof_C 	C 	0.5608	0.997	0.41438	0.092
Mof_C 	C 	0.1744	0.9712	0.4188	0.35
Mof_C 	C 	0.1313	0.8746	0.45814	-0.125
Mof_C 	C 	0.215	0.8187	0.4783	0.069
Mof_C 	C 	0.1665	0.7322	0.5151	-0.137
Mof_C 	C 	0.0373	0.7035	0.5304	0.084
Mof_C 	C 	0.0037	0.842	0.47704	0.087
Mof_N 	N 	0.6256	0.87474	0.72418	-0.222
Mof_N 	N 	0.2574	0.89774	0.94535	-0.226
Mof_N 	N 	0.5623	0.57693	0.12455	-0.224
Mof_N 	N 	0.955	0.25729	0.98851	-0.219
Mof_N 	N 	0.3744	0.62526	0.22418	-0.222
Mof_N 	N 	0.7426	0.60226	0.44535	-0.226
Mof_N 	N 	0.4377	0.92307	0.62455	-0.224
Mof_N 	N 	0.045	0.24271	0.48851	-0.218
Mof_N 	N 	0.3744	0.12526	0.27582	-0.222
Mof_N 	N 	0.7426	0.10226	0.05465	-0.226
Mof_N 	N 	0.4377	0.42307	0.87545	-0.224
Mof_N 	N 	0.045	0.74271	0.01149	-0.219
Mof_N 	N 	0.6256	0.37474	0.77582	-0.222
Mof_N 	N 	0.2574	0.39774	0.55465	-0.226
Mof_N 	N 	0.5623	0.07693	0.37545	-0.224
Mof_N 	N 	0.955	0.75729	0.51149	-0.218
Mof_O 	O 	0.7761	0.09038	0.91126	-0.389
Mof_O 	O 	0.7647	0.15574	0.80756	-0.254
Mof_O 	O 	0.5579	0.14521	0.955	-0.416
Mof_O 	O 	0.4789	0.22185	0.86981	-0.425
Mof_O 	O 	0.5651	0.35536	0.98762	-0.409
Mof_O 	O 	0.7289	0.31223	0.04025	-0.42
Mof_O 	O 	0.0927	0.51883	0.0944	-0.26
Mof_O 	O 	0.2912	0.49699	0.09774	-0.39
Mof_O 	O 	0.76	0.30215	0.89052	-0.359
Mof_O 	O 	0.2239	0.40962	0.41126	-0.388
Mof_O 	O 	0.2353	0.34426	0.30756	-0.254
Mof_O 	O 	0.4421	0.35479	0.455	-0.415
Mof_O 	O 	0.5211	0.27815	0.36981	-0.425
Mof_O 	O 	0.4349	0.14464	0.48762	-0.409
Mof_O 	O 	0.2711	0.18777	0.54025	-0.42
Mof_O 	O 	0.9073	0.98117	0.5944	-0.259
Mof_O 	O 	0.7088	0.00301	0.59774	-0.39
Mof_O 	O 	0.24	0.19785	0.39052	-0.359
Mof_O 	O 	0.2239	0.90962	0.08874	-0.389
Mof_O 	O 	0.2353	0.84426	0.19244	-0.254
Mof_O 	O 	0.4421	0.85479	0.045	-0.416
Mof_O 	O 	0.5211	0.77815	0.13019	-0.425
Mof_O 	O 	0.4349	0.64464	0.01238	-0.409
Mof_O 	O 	0.2711	0.68777	0.95975	-0.42
Mof_O 	O 	0.9073	0.48117	0.9056	-0.26
Mof_O 	O 	0.7088	0.50301	0.90226	-0.39
Mof_O 	O 	0.24	0.69785	0.10948	-0.359
Mof_O 	O 	0.7761	0.59038	0.58874	-0.388
Mof_O 	O 	0.7647	0.65574	0.69244	-0.254
Mof_O 	O 	0.5579	0.64521	0.545	-0.415
Mof_O 	O 	0.4789	0.72185	0.63019	-0.425
Mof_O 	O 	0.5651	0.85536	0.51238	-0.409
Mof_O 	O 	0.7289	0.81223	0.45975	-0.42
Mof_O 	O 	0.0927	0.01883	0.4056	-0.259
Mof_O 	O 	0.2912	0.99699	0.40226	-0.39
Mof_O 	O 	0.76	0.80215	0.60948	-0.359
_end
