data_functionalizedCrystal
_audit_creation_method	'EQeq! by Chris Wilmer'
_symmetry_space_group_name_H-M	'P1'
_symmetry_Int_Tables_number	1
_symmetry_cell_setting	triclinic
loop_
_symmetry_equiv_pos_as_xyz
  x,y,z
_cell_length_a	13.609
_cell_length_b	13.617
_cell_length_c	27.181
_cell_angle_alpha	90
_cell_angle_beta	90
_cell_angle_gamma	92.463
loop_
_atom_site_label
_atom_site_type_symbol
_atom_site_fract_x
_atom_site_fract_y
_atom_site_fract_z
_atom_site_charge
Mof_Zn	Zn	0.33016	0.32216	0.69426	1.188
Mof_Zn	Zn	0.74973	0.20614	0.70187	1.183
Mof_Zn	Zn	0.66984	0.67784	0.30574	1.188
Mof_Zn	Zn	0.14524	0.27493	0.7963	1.184
Mof_Zn	Zn	0.16984	0.17784	0.19426	1.187
Mof_Zn	Zn	0.78036	0.10975	0.30386	1.184
Mof_Zn	Zn	0.75027	0.29386	0.20187	1.182
Mof_Zn	Zn	0.24973	0.70614	0.79813	1.182
Mof_Zn	Zn	0.35476	0.22507	0.2963	1.183
Mof_Zn	Zn	0.83016	0.82216	0.80574	1.187
Mof_Zn	Zn	0.64524	0.77493	0.7037	1.183
Mof_Zn	Zn	0.85476	0.72507	0.2037	1.183
Mof_Zn	Zn	0.71964	0.39025	0.80386	1.184
Mof_Zn	Zn	0.21964	0.89025	0.69614	1.184
Mof_Zn	Zn	0.25027	0.79386	0.29813	1.182
Mof_Zn	Zn	0.28036	0.60975	0.19614	1.184
Mof_H 	H 	0.6727	0.9022	0.3321	-0.012
Mof_H 	H 	0.7146	0.1472	0.0781	0.057
Mof_H 	H 	0.0483	0.3	0.9724	0.059
Mof_H 	H 	0.274	0.9994	0.5301	0.053
Mof_H 	H 	0.2835	0.9766	0.445	0.054
Mof_H 	H 	0.4945	0.4021	0.7797	-0.048
Mof_H 	H 	0.6203	0.5482	0.7356	-0.062
Mof_H 	H 	0.9851	0.6639	0.58	0.044
Mof_H 	H 	0.3044	0.8071	0.0922	0.063
Mof_H 	H 	0.4851	0.1639	0.92	0.044
Mof_H 	H 	0.5119	0.1285	0.0031	0.035
Mof_H 	H 	0.1667	0.5361	0.5586	0.033
Mof_H 	H 	0.1762	0.5133	0.4734	0.044
Mof_H 	H 	0.4735	0.7898	0.3278	-0.01
Mof_H 	H 	0.3347	0.2243	0.8949	0.053
Mof_H 	H 	0.6653	0.7757	0.1051	0.053
Mof_H 	H 	0.8044	0.3071	0.4078	0.063
Mof_H 	H 	0.6762	0.0133	0.0266	0.044
Mof_H 	H 	0.6117	0.8465	0.939	0.093
Mof_H 	H 	0.5506	0.1115	0.3309	-0.008
Mof_H 	H 	0.0506	0.6115	0.1691	-0.008
Mof_H 	H 	0.8329	0.0545	0.7844	-0.05
Mof_H 	H 	0.4881	0.8715	0.9969	0.035
Mof_H 	H 	0.0292	0.8091	0.2759	-0.04
Mof_H 	H 	0.9735	0.2898	0.1722	-0.01
Mof_H 	H 	0.8797	0.9518	0.2356	-0.062
Mof_H 	H 	0.7835	0.4766	0.055	0.054
Mof_H 	H 	0.3273	0.0978	0.6679	-0.012
Mof_H 	H 	0.4517	0.2	0.4724	0.059
Mof_H 	H 	0.8347	0.7243	0.6051	0.053
Mof_H 	H 	0.3883	0.1535	0.061	0.093
Mof_H 	H 	0.4249	0.2355	0.5555	0.049
Mof_H 	H 	0.9945	0.9021	0.7203	-0.046
Mof_H 	H 	0.0055	0.0979	0.2797	-0.046
Mof_H 	H 	0.9881	0.3715	0.5031	0.035
Mof_H 	H 	0.726	0.0006	0.4699	0.053
Mof_H 	H 	0.6671	0.4455	0.2844	-0.05
Mof_H 	H 	0.9249	0.7355	0.9445	0.049
Mof_H 	H 	0.2146	0.6472	0.4219	0.058
Mof_H 	H 	0.3797	0.4518	0.2644	-0.062
Mof_H 	H 	0.5265	0.2102	0.6722	-0.01
Mof_H 	H 	0.4708	0.6909	0.7759	-0.039
Mof_H 	H 	0.6667	0.0361	0.9414	0.033
Mof_H 	H 	0.0149	0.3361	0.42	0.044
Mof_H 	H 	0.1117	0.3465	0.561	0.093
Mof_H 	H 	0.5751	0.7645	0.4445	0.049
Mof_H 	H 	0.6445	0.9972	0.6771	0
Mof_H 	H 	0.0751	0.2645	0.0555	0.049
Mof_H 	H 	0.1653	0.2757	0.3949	0.053
Mof_H 	H 	0.1671	0.9455	0.2156	-0.05
Mof_H 	H 	0.0119	0.6285	0.4969	0.035
Mof_H 	H 	0.1727	0.4022	0.1679	-0.012
Mof_H 	H 	0.9708	0.1909	0.7241	-0.04
Mof_H 	H 	0.1956	0.6929	0.5922	0.063
Mof_H 	H 	0.8883	0.6535	0.439	0.093
Mof_H 	H 	0.4494	0.8885	0.6691	-0.008
Mof_H 	H 	0.6956	0.1929	0.9078	0.063
Mof_H 	H 	0.5055	0.5979	0.2203	-0.048
Mof_H 	H 	0.1203	0.0482	0.7644	-0.062
Mof_H 	H 	0.774	0.4994	0.9699	0.053
Mof_H 	H 	0.3329	0.5545	0.7156	-0.05
Mof_H 	H 	0.9494	0.3885	0.8309	-0.008
Mof_H 	H 	0.5149	0.8361	0.08	0.044
Mof_H 	H 	0.7165	0.0234	0.555	0.054
Mof_H 	H 	0.8333	0.4639	0.4414	0.033
Mof_H 	H 	0.3238	0.9867	0.9734	0.044
Mof_H 	H 	0.9517	0.7	0.0276	0.059
Mof_H 	H 	0.8238	0.4867	0.5266	0.044
Mof_H 	H 	0.3555	0.0028	0.3229	0
Mof_H 	H 	0.5483	0.8	0.5276	0.059
Mof_H 	H 	0.1445	0.4972	0.8229	0
Mof_H 	H 	0.7854	0.3528	0.5781	0.058
Mof_H 	H 	0.2854	0.8528	0.9219	0.057
Mof_H 	H 	0.2165	0.5234	0.945	0.054
Mof_H 	H 	0.8273	0.5978	0.8321	-0.012
Mof_H 	H 	0.8555	0.5028	0.1771	0
Mof_H 	H 	0.5292	0.3091	0.2241	-0.039
Mof_H 	H 	0.3333	0.9639	0.0586	0.033
Mof_H 	H 	0.226	0.5006	0.0301	0.053
Mof_H 	H 	0.0265	0.7102	0.8278	-0.01
Mof_C 	C 	0.8456	0.7099	0.5714	-0.054
Mof_C 	C 	0.2398	0.8797	0.6022	0.313
Mof_C 	C 	0.4762	0.6408	0.2431	0.099
Mof_C 	C 	0.2279	0.7496	0.4765	0.04
Mof_C 	C 	0.8299	0.9205	0.2553	0.13
Mof_C 	C 	0.7493	0.1709	0.5541	-0.082
Mof_C 	C 	0.3747	0.2456	0.5319	0.006
Mof_C 	C 	0.0548	0.7622	0.2539	0.074
Mof_C 	C 	0.5238	0.3592	0.7569	0.099
Mof_C 	C 	0.2107	0.6565	0.4565	-0.069
Mof_C 	C 	0.3172	0.2394	0.4482	-0.063
Mof_C 	C 	0.7612	0.3228	0.1095	0.328
Mof_C 	C 	0.4452	0.7378	0.7539	0.075
Mof_C 	C 	0.836	0.719	0.1077	0.311
Mof_C 	C 	0.0647	0.6541	0.1961	0.095
Mof_C 	C 	0.188	0.4896	0.796	0.058
Mof_C 	C 	0.6995	0.1836	0.9423	-0.082
Mof_C 	C 	0.208	0.191	0.1028	0.448
Mof_C 	C 	0.7679	0.4222	0.0341	-0.014
Mof_C 	C 	0.2223	0.7631	0.5271	0.044
Mof_C 	C 	0.1253	0.2544	0.0319	0.006
Mof_C 	C 	0.1828	0.2606	0.9482	-0.063
Mof_C 	C 	0.9349	0.6741	0.5565	-0.048
Mof_C 	C 	0.4353	0.8459	0.6961	0.095
Mof_C 	C 	0.2278	0.2752	0.4631	0.013
Mof_C 	C 	0.2853	0.2815	0.5468	-0.128
Mof_C 	C 	0.7602	0.1203	0.3978	0.313
Mof_C 	C 	0.664	0.781	0.6077	0.311
Mof_C 	C 	0.3005	0.8164	0.0577	-0.082
Mof_C 	C 	0.8747	0.7456	0.9681	0.006
Mof_C 	C 	0.2721	0.7504	0.9765	0.04
Mof_C 	C 	0.2147	0.2185	0.0468	-0.127
Mof_C 	C 	0.5395	0.2552	0.6983	0.077
Mof_C 	C 	0.7777	0.2369	0.4729	0.044
Mof_C 	C 	0.8774	0.6679	0.4727	-0.11
Mof_C 	C 	0.1226	0.3321	0.5273	-0.11
Mof_C 	C 	0.7398	0.3797	0.8978	0.313
Mof_C 	C 	0.7507	0.3291	0.0541	-0.082
Mof_C 	C 	0.2605	0.6437	0.0471	-0.079
Mof_C 	C 	0.2623	0.9358	0.5165	-0.015
Mof_C 	C 	0.2798	0.1075	0.6928	0.074
Mof_C 	C 	0.5548	0.2622	0.2461	0.075
Mof_C 	C 	0.7279	0.2496	0.0235	0.04
Mof_C 	C 	0.2507	0.8291	0.4459	-0.082
Mof_C 	C 	0.2602	0.6203	0.1022	0.313
Mof_C 	C 	0.2395	0.8563	0.5471	-0.079
Mof_C 	C 	0.2377	0.5642	0.0165	-0.015
Mof_C 	C 	0.6701	0.5795	0.7553	0.13
Mof_C 	C 	0.9353	0.3459	0.8039	0.095
Mof_C 	C 	0.2119	0.2963	0.5124	0.08
Mof_C 	C 	0.8906	0.7246	0.0174	-0.035
Mof_C 	C 	0.7119	0.7963	0.9876	0.079
Mof_C 	C 	0.2321	0.5778	0.9659	-0.014
Mof_C 	C 	0.7853	0.7815	0.9532	-0.127
Mof_C 	C 	0.3177	0.9095	0.0377	-0.023
Mof_C 	C 	0.8172	0.7394	0.0518	-0.063
Mof_C 	C 	0.292	0.309	0.6028	0.449
Mof_C 	C 	0.164	0.281	0.8923	0.311
Mof_C 	C 	0.7881	0.7037	0.4876	0.08
Mof_C 	C 	0.1094	0.2754	0.9826	-0.035
Mof_C 	C 	0.2722	0.2248	0.9631	0.013
Mof_C 	C 	0.2388	0.6772	0.8905	0.328
Mof_C 	C 	0.7623	0.4358	0.9835	-0.015
Mof_C 	C 	0.7147	0.7185	0.4532	-0.128
Mof_C 	C 	0.2094	0.9797	0.2382	0.091
Mof_C 	C 	0.708	0.691	0.3972	0.449
Mof_C 	C 	0.7906	0.0203	0.7618	0.091
Mof_C 	C 	0.1701	0.0795	0.7447	0.13
Mof_C 	C 	0.6828	0.7606	0.5518	-0.063
Mof_C 	C 	0.4605	0.7448	0.3017	0.077
Mof_C 	C 	0.1879	0.5769	0.4871	-0.036
Mof_C 	C 	0.4349	0.1741	0.9435	-0.048
Mof_C 	C 	0.7377	0.0642	0.4835	-0.015
Mof_C 	C 	0.5491	0.847	0.0071	-0.002
Mof_C 	C 	0.2612	0.8228	0.3905	0.328
Mof_C 	C 	0.8121	0.4231	0.5129	-0.036
Mof_C 	C 	0.7605	0.1437	0.4529	-0.079
Mof_C 	C 	0.2881	0.2037	0.0124	0.079
Mof_C 	C 	0.792	0.809	0.8972	0.448
Mof_C 	C 	0.2202	0.3925	0.1928	0.074
Mof_C 	C 	0.312	0.0104	0.296	0.058
Mof_C 	C 	0.2893	0.8435	0.9565	-0.068
Mof_C 	C 	0.7388	0.1772	0.6095	0.328
Mof_C 	C 	0.7107	0.1565	0.0435	-0.068
Mof_C 	C 	0.336	0.219	0.3923	0.311
Mof_C 	C 	0.3774	0.1679	0.0273	-0.11
Mof_C 	C 	0.0651	0.3259	0.4435	-0.048
Mof_C 	C 	0.6253	0.7544	0.4681	0.006
Mof_C 	C 	0.688	0.9896	0.704	0.058
Mof_C 	C 	0.8005	0.3164	0.4423	-0.081
Mof_C 	C 	0.0238	0.8592	0.7431	0.095
Mof_C 	C 	0.7395	0.3563	0.9529	-0.079
Mof_C 	C 	0.6544	0.7901	0.0714	-0.055
Mof_C 	C 	0.5647	0.1541	0.3039	0.095
Mof_C 	C 	0.0395	0.7552	0.8017	0.076
Mof_C 	C 	0.7721	0.2504	0.5235	0.04
Mof_C 	C 	0.4509	0.153	0.9929	-0.002
Mof_C 	C 	0.3906	0.2246	0.4826	-0.035
Mof_C 	C 	0.7722	0.7248	0.5369	0.013
Mof_C 	C 	0.7893	0.3435	0.5435	-0.069
Mof_C 	C 	0.3121	0.9231	0.9871	-0.037
Mof_C 	C 	0.1823	0.5905	0.5377	-0.025
Mof_C 	C 	0.2777	0.7369	0.0271	0.044
Mof_C 	C 	0.0491	0.347	0.4929	-0.002
Mof_C 	C 	0.812	0.5104	0.204	0.058
Mof_C 	C 	0.9605	0.2448	0.1983	0.076
Mof_C 	C 	0.8177	0.4095	0.4623	-0.025
Mof_C 	C 	0.9452	0.2378	0.7461	0.074
Mof_C 	C 	0.3299	0.4205	0.2447	0.13
Mof_C 	C 	0.1544	0.2901	0.4286	-0.054
Mof_C 	C 	0.9762	0.1408	0.2569	0.095
Mof_C 	C 	0.7278	0.7752	0.0369	0.013
Mof_C 	C 	0.9509	0.653	0.5071	-0.002
Mof_C 	C 	0.5651	0.8259	0.0565	-0.048
Mof_C 	C 	0.2679	0.9222	0.4659	-0.014
Mof_C 	C 	0.6226	0.8321	0.9727	-0.11
Mof_C 	C 	0.6823	0.0905	0.9623	-0.023
Mof_C 	C 	0.7798	0.6075	0.8072	0.074
Mof_C 	C 	0.1995	0.6836	0.5577	-0.081
Mof_C 	C 	0.6879	0.0769	0.0129	-0.037
Mof_C 	C 	0.7202	0.8925	0.3072	0.074
Mof_C 	C 	0.3456	0.2099	0.9286	-0.055
Mof_C 	C 	0.7321	0.0778	0.5341	-0.014
Mof_C 	C 	0.7094	0.4797	0.2618	0.091
Mof_C 	C 	0.2493	0.6709	0.9459	-0.082
Mof_C 	C 	0.2906	0.5203	0.7382	0.091
Mof_C 	C 	0.7223	0.2631	0.9729	0.044
Mof_C 	C 	0.6094	0.7754	0.5174	-0.035
Mof_N 	N 	0.3467	0.8336	0.7161	-0.264
Mof_N 	N 	0.1255	0.7707	0.7796	-0.26
Mof_N 	N 	0.8543	0.2605	0.7472	-0.267
Mof_N 	N 	0.2823	0.4658	0.212	-0.296
Mof_N 	N 	0.0032	0.2918	0.782	-0.287
Mof_N 	N 	0.1955	0.172	0.7487	-0.26
Mof_N 	N 	0.4968	0.2082	0.282	-0.288
Mof_N 	N 	0.7177	0.5342	0.788	-0.296
Mof_N 	N 	0.6457	0.2395	0.2472	-0.267
Mof_N 	N 	0.2271	0.079	0.2377	-0.269
Mof_N 	N 	0.7577	0.4371	0.2266	-0.274
Mof_N 	N 	0.9968	0.7082	0.218	-0.287
Mof_N 	N 	0.7823	0.9658	0.288	-0.295
Mof_N 	N 	0.2423	0.5629	0.7734	-0.274
Mof_N 	N 	0.7932	0.5958	0.2267	-0.249
Mof_N 	N 	0.2359	0.3054	0.2143	-0.256
Mof_N 	N 	0.7359	0.8054	0.2857	-0.256
Mof_N 	N 	0.7423	0.0629	0.7266	-0.274
Mof_N 	N 	0.8745	0.2293	0.2204	-0.26
Mof_N 	N 	0.6157	0.3373	0.7586	-0.272
Mof_N 	N 	0.3843	0.6627	0.2414	-0.272
Mof_N 	N 	0.7729	0.921	0.7623	-0.269
Mof_N 	N 	0.2641	0.1946	0.7143	-0.256
Mof_N 	N 	0.5032	0.7918	0.718	-0.288
Mof_N 	N 	0.6955	0.672	0.7513	-0.26
Mof_N 	N 	0.2068	0.4042	0.7733	-0.249
Mof_N 	N 	0.3045	0.328	0.2487	-0.26
Mof_N 	N 	0.7068	0.9042	0.7267	-0.249
Mof_N 	N 	0.6255	0.2707	0.7204	-0.26
Mof_N 	N 	0.2177	0.0342	0.712	-0.295
Mof_N 	N 	0.7641	0.6946	0.7857	-0.256
Mof_N 	N 	0.1457	0.7395	0.2528	-0.267
Mof_N 	N 	0.7271	0.579	0.2623	-0.269
Mof_N 	N 	0.9731	0.814	0.781	-0.274
Mof_N 	N 	0.8467	0.3336	0.7839	-0.263
Mof_N 	N 	0.0269	0.186	0.219	-0.274
Mof_N 	N 	0.5269	0.686	0.281	-0.275
Mof_N 	N 	0.8045	0.828	0.2513	-0.26
Mof_N 	N 	0.2932	0.0958	0.2733	-0.249
Mof_N 	N 	0.1157	0.8373	0.7414	-0.272
Mof_N 	N 	0.2729	0.421	0.7377	-0.269
Mof_N 	N 	0.3543	0.7605	0.7528	-0.267
Mof_N 	N 	0.2577	0.9371	0.2734	-0.274
Mof_N 	N 	0.1533	0.6664	0.2161	-0.263
Mof_N 	N 	0.8843	0.1627	0.2586	-0.272
Mof_N 	N 	0.6533	0.1664	0.2839	-0.264
Mof_N 	N 	0.4731	0.314	0.719	-0.275
Mof_N 	N 	0.3745	0.7293	0.2796	-0.26
Mof_O 	O 	0.8894	0.6383	0.1148	-0.299
Mof_O 	O 	0.195	0.309	0.6181	-0.343
Mof_O 	O 	0.8074	0.4401	0.882	-0.337
Mof_O 	O 	0.1777	0.8409	0.6297	-0.466
Mof_O 	O 	0.1934	0.7826	0.3652	-0.466
Mof_O 	O 	0.8066	0.2174	0.6348	-0.466
Mof_O 	O 	0.3894	0.1383	0.3852	-0.299
Mof_O 	O 	0.3382	0.8559	0.373	-0.358
Mof_O 	O 	0.6855	0.7279	0.6401	-0.501
Mof_O 	O 	0.305	0.191	0.1181	-0.343
Mof_O 	O 	0.6777	0.3409	0.8703	-0.466
Mof_O 	O 	0.695	0.809	0.8819	-0.343
Mof_O 	O 	0.6934	0.2826	0.1348	-0.465
Mof_O 	O 	0.1106	0.3617	0.8852	-0.299
Mof_O 	O 	0.8145	0.7721	0.1401	-0.501
Mof_O 	O 	0.3223	0.6591	0.1297	-0.466
Mof_O 	O 	0.8382	0.3559	0.127	-0.358
Mof_O 	O 	0.1926	0.5599	0.118	-0.337
Mof_O 	O 	0.3145	0.2721	0.3599	-0.501
Mof_O 	O 	0.6449	0.6842	0.3749	-0.587
Mof_O 	O 	0.6926	0.0599	0.382	-0.337
Mof_O 	O 	0.1855	0.2279	0.8599	-0.501
Mof_O 	O 	0.1618	0.6441	0.873	-0.358
Mof_O 	O 	0.805	0.691	0.3819	-0.343
Mof_O 	O 	0.6106	0.8617	0.6148	-0.299
Mof_O 	O 	0.1449	0.1842	0.1251	-0.587
Mof_O 	O 	0.3066	0.7174	0.8652	-0.465
Mof_O 	O 	0.3074	0.9401	0.618	-0.337
Mof_O 	O 	0.6618	0.1441	0.627	-0.358
Mof_O 	O 	0.8551	0.8158	0.8749	-0.587
Mof_O 	O 	0.8223	0.1591	0.3703	-0.466
Mof_O 	O 	0.3551	0.3158	0.6251	-0.587
_end
