data_functionalizedCrystal
_audit_creation_method	'EQeq! by Chris Wilmer'
_symmetry_space_group_name_H-M	'P1'
_symmetry_Int_Tables_number	1
_symmetry_cell_setting	triclinic
loop_
_symmetry_equiv_pos_as_xyz
  x,y,z
_cell_length_a	17.8737
_cell_length_b	17.8737
_cell_length_c	26.2972
_cell_angle_alpha	90
_cell_angle_beta	90
_cell_angle_gamma	90
loop_
_atom_site_label
_atom_site_type_symbol
_atom_site_fract_x
_atom_site_fract_y
_atom_site_fract_z
_atom_site_charge
Mof_C 	C 	0.467	0.6945	0.1555	-0.117
Mof_C 	C 	0.8088	0.7821	0.1159	0.208
Mof_C 	C 	0.4894	0.6426	0.1922	0.034
Mof_H 	H 	0.5394	0.6266	0.1941	0.036
Mof_C 	C 	0.4362	0.6154	0.2257	-0.088
Mof_H 	H 	0.4507	0.5799	0.2501	0.071
Mof_C 	C 	0.3622	0.6387	0.2244	0.03
Mof_C 	C 	0.3429	0.6919	0.1874	-0.087
Mof_H 	H 	0.2931	0.7088	0.1858	0.074
Mof_C 	C 	0.3938	0.7203	0.1533	0.036
Mof_H 	H 	0.3794	0.7563	0.1292	0.039
Mof_C 	C 	0.521	0.7205	0.1158	0.393
Mof_C 	C 	0.3051	0.6079	0.2583	0.117
Mof_C 	C 	0.953	0.615	0.2402	-0.11
Mof_C 	C 	0.0071	0.6423	0.208	0.04
Mof_H 	H 	0.9931	0.6649	0.1771	0.042
Mof_C 	C 	0.081	0.6367	0.2207	-0.093
Mof_H 	H 	0.1173	0.6574	0.1989	0.075
Mof_C 	C 	0.1036	0.6015	0.2647	0.036
Mof_C 	C 	0.0483	0.5743	0.299	-0.089
Mof_H 	H 	0.062	0.5533	0.3304	0.075
Mof_C 	C 	0.9738	0.5797	0.2849	0.036
Mof_H 	H 	0.9367	0.559	0.3061	0.039
Mof_C 	C 	0.8716	0.6172	0.227	0.385
Mof_C 	C 	0.1837	0.5904	0.2769	0.112
Mof_C 	C 	0.3316	0.3945	0.4498	-0.106
Mof_C 	C 	0.2574	0.401	0.4354	0.03
Mof_H 	H 	0.2201	0.3747	0.4532	0.044
Mof_C 	C 	0.2382	0.4467	0.3945	-0.086
Mof_H 	H 	0.1879	0.4506	0.3844	0.073
Mof_C 	C 	0.2929	0.4865	0.3686	0.032
Mof_C 	C 	0.3676	0.4783	0.3831	-0.085
Mof_H 	H 	0.4052	0.5038	0.3651	0.069
Mof_C 	C 	0.3869	0.4327	0.4238	0.028
Mof_H 	H 	0.4373	0.4279	0.4337	0.034
Mof_C 	C 	0.3533	0.3437	0.4929	0.371
Mof_C 	C 	0.2719	0.5365	0.3261	0.114
Mof_N 	N 	0.2003	0.5461	0.3173	-0.141
Mof_N 	N 	0.3277	0.5655	0.2969	-0.14
Mof_N 	N 	0.2343	0.6218	0.2466	-0.142
Mof_O 	O 	0.4952	0.7544	0.07803	-0.455
Mof_O 	O 	0.5902	0.7083	0.12318	-0.484
Mof_O 	O 	0.8218	0.8248	0.0793	-0.227
Mof_O 	O 	0.8272	0.5845	0.25497	-0.454
Mof_O 	O 	0.8544	0.6549	0.18744	-0.441
Mof_O 	O 	0.4207	0.3384	0.50414	-0.459
Mof_O 	O 	0.3009	0.3111	0.5171	-0.45
Mof_Zn	Zn	0.66334	0.74596	0.07503	1.236
Mof_C 	C 	0.533	0.3055	0.6555	-0.115
Mof_C 	C 	0.1912	0.2179	0.6159	0.21
Mof_C 	C 	0.5106	0.3574	0.6922	0.034
Mof_H 	H 	0.4606	0.3734	0.6941	0.037
Mof_C 	C 	0.5638	0.3846	0.7257	-0.087
Mof_H 	H 	0.5493	0.4201	0.7501	0.072
Mof_C 	C 	0.6378	0.3613	0.7244	0.031
Mof_C 	C 	0.6571	0.3081	0.6874	-0.086
Mof_H 	H 	0.7069	0.2912	0.6858	0.075
Mof_C 	C 	0.6062	0.2797	0.6533	0.035
Mof_H 	H 	0.6206	0.2437	0.6292	0.04
Mof_C 	C 	0.479	0.2795	0.6158	0.393
Mof_C 	C 	0.6949	0.3921	0.7583	0.117
Mof_C 	C 	0.047	0.385	0.7402	-0.111
Mof_C 	C 	0.9929	0.3577	0.708	0.042
Mof_H 	H 	0.0069	0.3351	0.6771	0.042
Mof_C 	C 	0.919	0.3633	0.7207	-0.093
Mof_H 	H 	0.8827	0.3426	0.6989	0.076
Mof_C 	C 	0.8964	0.3985	0.7647	0.037
Mof_C 	C 	0.9517	0.4257	0.799	-0.089
Mof_H 	H 	0.938	0.4467	0.8304	0.076
Mof_C 	C 	0.0262	0.4203	0.7849	0.036
Mof_H 	H 	0.0633	0.441	0.8061	0.04
Mof_C 	C 	0.1284	0.3828	0.727	0.385
Mof_C 	C 	0.8163	0.4096	0.7769	0.112
Mof_C 	C 	0.6684	0.6055	0.9498	-0.117
Mof_C 	C 	0.7426	0.599	0.9354	0.04
Mof_H 	H 	0.7799	0.6253	0.9532	0.044
Mof_C 	C 	0.7618	0.5533	0.8945	-0.091
Mof_H 	H 	0.8121	0.5494	0.8844	0.076
Mof_C 	C 	0.7071	0.5135	0.8686	0.036
Mof_C 	C 	0.6324	0.5217	0.8831	-0.09
Mof_H 	H 	0.5948	0.4962	0.8651	0.071
Mof_C 	C 	0.6131	0.5673	0.9238	0.038
Mof_H 	H 	0.5627	0.5721	0.9337	0.032
Mof_C 	C 	0.6467	0.6563	0.9929	0.408
Mof_C 	C 	0.7281	0.4635	0.8261	0.113
Mof_N 	N 	0.7997	0.4539	0.8173	-0.14
Mof_N 	N 	0.6723	0.4345	0.7969	-0.14
Mof_N 	N 	0.7657	0.3782	0.7466	-0.141
Mof_O 	O 	0.5048	0.2456	0.57803	-0.453
Mof_O 	O 	0.4098	0.2917	0.62318	-0.484
Mof_O 	O 	0.1782	0.1752	0.5793	-0.224
Mof_O 	O 	0.1728	0.4155	0.75497	-0.454
Mof_O 	O 	0.1456	0.3451	0.68744	-0.441
Mof_O 	O 	0.5793	0.6616	0.00414	-0.481
Mof_O 	O 	0.6991	0.6889	0.0171	-0.469
Mof_Zn	Zn	0.33666	0.25404	0.57503	1.236
Mof_C 	C 	0.3055	0.467	0.9055	-0.109
Mof_C 	C 	0.2179	0.8088	0.8659	0.209
Mof_C 	C 	0.3574	0.4894	0.9422	0.021
Mof_H 	H 	0.3734	0.5394	0.9441	0.044
Mof_C 	C 	0.3846	0.4362	0.9757	-0.06
Mof_H 	H 	0.4201	0.4507	0.0001	0.053
Mof_C 	C 	0.3613	0.3622	0.9744	0.038
Mof_C 	C 	0.3081	0.3429	0.9374	-0.087
Mof_H 	H 	0.2912	0.2931	0.9358	0.077
Mof_C 	C 	0.2797	0.3938	0.9033	0.034
Mof_H 	H 	0.2437	0.3794	0.8792	0.042
Mof_C 	C 	0.2795	0.521	0.8658	0.391
Mof_C 	C 	0.3921	0.3051	0.0083	0.094
Mof_C 	C 	0.385	0.953	0.9902	-0.076
Mof_C 	C 	0.3577	0.0071	0.958	0.009
Mof_H 	H 	0.3351	0.9931	0.9271	0.054
Mof_C 	C 	0.3633	0.081	0.9707	-0.049
Mof_H 	H 	0.3426	0.1173	0.9489	0.063
Mof_C 	C 	0.3985	0.1036	0.0147	0.002
Mof_C 	C 	0.4257	0.0483	0.049	-0.059
Mof_H 	H 	0.4467	0.062	0.0804	0.064
Mof_C 	C 	0.4203	0.9738	0.0349	-0.007
Mof_H 	H 	0.441	0.9367	0.0561	0.052
Mof_C 	C 	0.3828	0.8716	0.977	0.392
Mof_C 	C 	0.4096	0.1837	0.0269	0.108
Mof_C 	C 	0.6055	0.3316	0.1998	-0.106
Mof_C 	C 	0.599	0.2574	0.1854	0.031
Mof_H 	H 	0.6253	0.2201	0.2032	0.043
Mof_C 	C 	0.5533	0.2382	0.1445	-0.087
Mof_H 	H 	0.5494	0.1879	0.1344	0.073
Mof_C 	C 	0.5135	0.2929	0.1186	0.032
Mof_C 	C 	0.5217	0.3676	0.1331	-0.085
Mof_H 	H 	0.4962	0.4052	0.1151	0.069
Mof_C 	C 	0.5673	0.3869	0.1738	0.029
Mof_H 	H 	0.5721	0.4373	0.1837	0.034
Mof_C 	C 	0.6563	0.3533	0.2429	0.371
Mof_C 	C 	0.4635	0.2719	0.0761	0.111
Mof_N 	N 	0.4539	0.2003	0.0673	-0.14
Mof_N 	N 	0.4345	0.3277	0.0469	-0.139
Mof_N 	N 	0.3782	0.2343	0.9966	-0.127
Mof_O 	O 	0.2456	0.4952	0.82803	-0.452
Mof_O 	O 	0.2917	0.5902	0.87318	-0.482
Mof_O 	O 	0.1752	0.8218	0.8293	-0.223
Mof_O 	O 	0.4155	0.8272	0.00497	-0.468
Mof_O 	O 	0.3451	0.8544	0.93744	-0.441
Mof_O 	O 	0.6616	0.4207	0.25414	-0.459
Mof_O 	O 	0.6889	0.3009	0.2671	-0.45
Mof_Zn	Zn	0.25404	0.66334	0.82503	1.236
Mof_C 	C 	0.6945	0.533	0.4055	-0.115
Mof_C 	C 	0.7821	0.1912	0.3659	0.21
Mof_C 	C 	0.6426	0.5106	0.4422	0.034
Mof_H 	H 	0.6266	0.4606	0.4441	0.037
Mof_C 	C 	0.6154	0.5638	0.4757	-0.087
Mof_H 	H 	0.5799	0.5493	0.5001	0.072
Mof_C 	C 	0.6387	0.6378	0.4744	0.031
Mof_C 	C 	0.6919	0.6571	0.4374	-0.086
Mof_H 	H 	0.7088	0.7069	0.4358	0.075
Mof_C 	C 	0.7203	0.6062	0.4033	0.035
Mof_H 	H 	0.7563	0.6206	0.3792	0.04
Mof_C 	C 	0.7205	0.479	0.3658	0.393
Mof_C 	C 	0.6079	0.6949	0.5083	0.117
Mof_C 	C 	0.615	0.047	0.4902	-0.111
Mof_C 	C 	0.6423	0.9929	0.458	0.042
Mof_H 	H 	0.6649	0.0069	0.4271	0.042
Mof_C 	C 	0.6367	0.919	0.4707	-0.093
Mof_H 	H 	0.6574	0.8827	0.4489	0.076
Mof_C 	C 	0.6015	0.8964	0.5147	0.036
Mof_C 	C 	0.5743	0.9517	0.549	-0.088
Mof_H 	H 	0.5533	0.938	0.5804	0.075
Mof_C 	C 	0.5797	0.0262	0.5349	0.036
Mof_H 	H 	0.559	0.0633	0.5561	0.039
Mof_C 	C 	0.6172	0.1284	0.477	0.385
Mof_C 	C 	0.5904	0.8163	0.5269	0.112
Mof_C 	C 	0.3945	0.6684	0.6998	-0.106
Mof_C 	C 	0.401	0.7426	0.6854	0.03
Mof_H 	H 	0.3747	0.7799	0.7032	0.044
Mof_C 	C 	0.4467	0.7618	0.6445	-0.086
Mof_H 	H 	0.4506	0.8121	0.6344	0.073
Mof_C 	C 	0.4865	0.7071	0.6186	0.032
Mof_C 	C 	0.4783	0.6324	0.6331	-0.085
Mof_H 	H 	0.5038	0.5948	0.6151	0.069
Mof_C 	C 	0.4327	0.6131	0.6738	0.028
Mof_H 	H 	0.4279	0.5627	0.6837	0.034
Mof_C 	C 	0.3437	0.6467	0.7429	0.371
Mof_C 	C 	0.5365	0.7281	0.5761	0.114
Mof_N 	N 	0.5461	0.7997	0.5673	-0.141
Mof_N 	N 	0.5655	0.6723	0.5469	-0.14
Mof_N 	N 	0.6218	0.7657	0.4966	-0.142
Mof_O 	O 	0.7544	0.5048	0.32803	-0.453
Mof_O 	O 	0.7083	0.4098	0.37318	-0.484
Mof_O 	O 	0.8248	0.1782	0.3293	-0.224
Mof_O 	O 	0.5845	0.1728	0.50497	-0.454
Mof_O 	O 	0.6549	0.1456	0.43744	-0.441
Mof_O 	O 	0.3384	0.5793	0.75414	-0.459
Mof_O 	O 	0.3111	0.6991	0.7671	-0.45
Mof_Zn	Zn	0.74596	0.33666	0.32503	1.236
Mof_C 	C 	0.533	0.6945	0.8445	-0.114
Mof_C 	C 	0.1912	0.7821	0.8841	0.211
Mof_C 	C 	0.5106	0.6426	0.8078	0.034
Mof_H 	H 	0.4606	0.6266	0.8059	0.037
Mof_C 	C 	0.5638	0.6154	0.7743	-0.087
Mof_H 	H 	0.5493	0.5799	0.7499	0.072
Mof_C 	C 	0.6378	0.6387	0.7756	0.03
Mof_C 	C 	0.6571	0.6919	0.8126	-0.085
Mof_H 	H 	0.7069	0.7088	0.8142	0.075
Mof_C 	C 	0.6062	0.7203	0.8467	0.035
Mof_H 	H 	0.6206	0.7563	0.8708	0.041
Mof_C 	C 	0.479	0.7205	0.8842	0.392
Mof_C 	C 	0.6949	0.6079	0.7417	0.117
Mof_C 	C 	0.047	0.615	0.7598	-0.11
Mof_C 	C 	0.9929	0.6423	0.792	0.041
Mof_H 	H 	0.0069	0.6649	0.8229	0.044
Mof_C 	C 	0.919	0.6367	0.7793	-0.093
Mof_H 	H 	0.8827	0.6574	0.8011	0.076
Mof_C 	C 	0.8964	0.6015	0.7353	0.036
Mof_C 	C 	0.9517	0.5743	0.701	-0.088
Mof_H 	H 	0.938	0.5533	0.6696	0.075
Mof_C 	C 	0.0262	0.5797	0.7151	0.035
Mof_H 	H 	0.0633	0.559	0.6939	0.039
Mof_C 	C 	0.1284	0.6172	0.773	0.385
Mof_C 	C 	0.8163	0.5904	0.7231	0.112
Mof_C 	C 	0.6684	0.3945	0.5502	-0.106
Mof_C 	C 	0.7426	0.401	0.5646	0.03
Mof_H 	H 	0.7799	0.3747	0.5468	0.044
Mof_C 	C 	0.7618	0.4467	0.6055	-0.086
Mof_H 	H 	0.8121	0.4506	0.6156	0.073
Mof_C 	C 	0.7071	0.4865	0.6314	0.032
Mof_C 	C 	0.6324	0.4783	0.6169	-0.085
Mof_H 	H 	0.5948	0.5038	0.6349	0.069
Mof_C 	C 	0.6131	0.4327	0.5762	0.028
Mof_H 	H 	0.5627	0.4279	0.5663	0.034
Mof_C 	C 	0.6467	0.3437	0.5071	0.371
Mof_C 	C 	0.7281	0.5365	0.6739	0.114
Mof_N 	N 	0.7997	0.5461	0.6827	-0.141
Mof_N 	N 	0.6723	0.5655	0.7031	-0.14
Mof_N 	N 	0.7657	0.6218	0.7534	-0.141
Mof_O 	O 	0.5048	0.7544	0.92197	-0.449
Mof_O 	O 	0.4098	0.7083	0.87682	-0.483
Mof_O 	O 	0.1782	0.8248	0.9207	-0.221
Mof_O 	O 	0.1728	0.5845	0.74503	-0.454
Mof_O 	O 	0.1456	0.6549	0.81256	-0.44
Mof_O 	O 	0.5793	0.3384	0.49586	-0.459
Mof_O 	O 	0.6991	0.3111	0.4829	-0.45
Mof_Zn	Zn	0.33666	0.74596	0.92497	1.236
Mof_C 	C 	0.467	0.3055	0.3445	-0.115
Mof_C 	C 	0.8088	0.2179	0.3841	0.21
Mof_C 	C 	0.4894	0.3574	0.3078	0.034
Mof_H 	H 	0.5394	0.3734	0.3059	0.037
Mof_C 	C 	0.4362	0.3846	0.2743	-0.087
Mof_H 	H 	0.4507	0.4201	0.2499	0.072
Mof_C 	C 	0.3622	0.3613	0.2756	0.03
Mof_C 	C 	0.3429	0.3081	0.3126	-0.086
Mof_H 	H 	0.2931	0.2912	0.3142	0.075
Mof_C 	C 	0.3938	0.2797	0.3467	0.035
Mof_H 	H 	0.3794	0.2437	0.3708	0.04
Mof_C 	C 	0.521	0.2795	0.3842	0.393
Mof_C 	C 	0.3051	0.3921	0.2417	0.117
Mof_C 	C 	0.953	0.385	0.2598	-0.11
Mof_C 	C 	0.0071	0.3577	0.292	0.04
Mof_H 	H 	0.9931	0.3351	0.3229	0.043
Mof_C 	C 	0.081	0.3633	0.2793	-0.093
Mof_H 	H 	0.1173	0.3426	0.3011	0.076
Mof_C 	C 	0.1036	0.3985	0.2353	0.036
Mof_C 	C 	0.0483	0.4257	0.201	-0.089
Mof_H 	H 	0.062	0.4467	0.1696	0.074
Mof_C 	C 	0.9738	0.4203	0.2151	0.036
Mof_H 	H 	0.9367	0.441	0.1939	0.039
Mof_C 	C 	0.8716	0.3828	0.273	0.385
Mof_C 	C 	0.1837	0.4096	0.2231	0.111
Mof_C 	C 	0.3316	0.6055	0.0502	-0.094
Mof_C 	C 	0.2574	0.599	0.0646	0.02
Mof_H 	H 	0.2201	0.6253	0.0468	0.043
Mof_C 	C 	0.2382	0.5533	0.1055	-0.081
Mof_H 	H 	0.1879	0.5494	0.1156	0.07
Mof_C 	C 	0.2929	0.5135	0.1314	0.027
Mof_C 	C 	0.3676	0.5217	0.1169	-0.079
Mof_H 	H 	0.4052	0.4962	0.1349	0.067
Mof_C 	C 	0.3869	0.5673	0.0762	0.019
Mof_H 	H 	0.4373	0.5721	0.0663	0.035
Mof_C 	C 	0.3533	0.6563	0.0071	0.333
Mof_C 	C 	0.2719	0.4635	0.1739	0.115
Mof_N 	N 	0.2003	0.4539	0.1827	-0.141
Mof_N 	N 	0.3277	0.4345	0.2031	-0.141
Mof_N 	N 	0.2343	0.3782	0.2534	-0.142
Mof_O 	O 	0.4952	0.2456	0.42197	-0.453
Mof_O 	O 	0.5902	0.2917	0.37682	-0.484
Mof_O 	O 	0.8218	0.1752	0.4207	-0.224
Mof_O 	O 	0.8272	0.4155	0.24503	-0.455
Mof_O 	O 	0.8544	0.3451	0.31256	-0.441
Mof_O 	O 	0.4207	0.6616	0.99586	-0.435
Mof_O 	O 	0.3009	0.6889	0.9829	-0.43
Mof_Zn	Zn	0.66334	0.25404	0.42497	1.236
Mof_C 	C 	0.6945	0.467	0.0945	-0.121
Mof_C 	C 	0.7821	0.8088	0.1341	0.211
Mof_C 	C 	0.6426	0.4894	0.0578	0.047
Mof_H 	H 	0.6266	0.5394	0.0559	0.03
Mof_C 	C 	0.6154	0.4362	0.0243	-0.114
Mof_H 	H 	0.5799	0.4507	0.9999	0.091
Mof_C 	C 	0.6387	0.3622	0.0256	0.023
Mof_C 	C 	0.6919	0.3429	0.0626	-0.085
Mof_H 	H 	0.7088	0.2931	0.0642	0.072
Mof_C 	C 	0.7203	0.3938	0.0967	0.037
Mof_H 	H 	0.7563	0.3794	0.1208	0.039
Mof_C 	C 	0.7205	0.521	0.1342	0.394
Mof_C 	C 	0.6079	0.3051	0.9917	0.139
Mof_C 	C 	0.615	0.953	0.0098	-0.145
Mof_C 	C 	0.6423	0.0071	0.042	0.074
Mof_H 	H 	0.6649	0.9931	0.0729	0.031
Mof_C 	C 	0.6367	0.081	0.0293	-0.137
Mof_H 	H 	0.6574	0.1173	0.0511	0.089
Mof_C 	C 	0.6015	0.1036	0.9853	0.07
Mof_C 	C 	0.5743	0.0483	0.951	-0.117
Mof_H 	H 	0.5533	0.062	0.9196	0.085
Mof_C 	C 	0.5797	0.9738	0.9651	0.078
Mof_H 	H 	0.559	0.9367	0.9439	0.027
Mof_C 	C 	0.6172	0.8716	0.023	0.378
Mof_C 	C 	0.5904	0.1837	0.9731	0.115
Mof_C 	C 	0.3945	0.3316	0.8002	-0.106
Mof_C 	C 	0.401	0.2574	0.8146	0.03
Mof_H 	H 	0.3747	0.2201	0.7968	0.044
Mof_C 	C 	0.4467	0.2382	0.8555	-0.086
Mof_H 	H 	0.4506	0.1879	0.8656	0.073
Mof_C 	C 	0.4865	0.2929	0.8814	0.032
Mof_C 	C 	0.4783	0.3676	0.8669	-0.084
Mof_H 	H 	0.5038	0.4052	0.8849	0.069
Mof_C 	C 	0.4327	0.3869	0.8262	0.028
Mof_H 	H 	0.4279	0.4373	0.8163	0.034
Mof_C 	C 	0.3437	0.3533	0.7571	0.371
Mof_C 	C 	0.5365	0.2719	0.9239	0.117
Mof_N 	N 	0.5461	0.2003	0.9327	-0.141
Mof_N 	N 	0.5655	0.3277	0.9531	-0.142
Mof_N 	N 	0.6218	0.2343	0.0034	-0.156
Mof_O 	O 	0.7544	0.4952	0.17197	-0.453
Mof_O 	O 	0.7083	0.5902	0.12682	-0.485
Mof_O 	O 	0.8248	0.8218	0.1707	-0.225
Mof_O 	O 	0.5845	0.8272	0.99503	-0.439
Mof_O 	O 	0.6549	0.8544	0.06256	-0.441
Mof_O 	O 	0.3384	0.4207	0.74586	-0.459
Mof_O 	O 	0.3111	0.3009	0.7329	-0.45
Mof_Zn	Zn	0.74596	0.66334	0.17497	1.236
Mof_C 	C 	0.3055	0.533	0.5945	-0.115
Mof_C 	C 	0.2179	0.1912	0.6341	0.21
Mof_C 	C 	0.3574	0.5106	0.5578	0.034
Mof_H 	H 	0.3734	0.4606	0.5559	0.037
Mof_C 	C 	0.3846	0.5638	0.5243	-0.087
Mof_H 	H 	0.4201	0.5493	0.4999	0.072
Mof_C 	C 	0.3613	0.6378	0.5256	0.031
Mof_C 	C 	0.3081	0.6571	0.5626	-0.086
Mof_H 	H 	0.2912	0.7069	0.5642	0.075
Mof_C 	C 	0.2797	0.6062	0.5967	0.035
Mof_H 	H 	0.2437	0.6206	0.6208	0.04
Mof_C 	C 	0.2795	0.479	0.6342	0.393
Mof_C 	C 	0.3921	0.6949	0.4917	0.117
Mof_C 	C 	0.385	0.047	0.5098	-0.111
Mof_C 	C 	0.3577	0.9929	0.542	0.042
Mof_H 	H 	0.3351	0.0069	0.5729	0.042
Mof_C 	C 	0.3633	0.919	0.5293	-0.094
Mof_H 	H 	0.3426	0.8827	0.5511	0.076
Mof_C 	C 	0.3985	0.8964	0.4853	0.036
Mof_C 	C 	0.4257	0.9517	0.451	-0.089
Mof_H 	H 	0.4467	0.938	0.4196	0.075
Mof_C 	C 	0.4203	0.0262	0.4651	0.036
Mof_H 	H 	0.441	0.0633	0.4439	0.039
Mof_C 	C 	0.3828	0.1284	0.523	0.385
Mof_C 	C 	0.4096	0.8163	0.4731	0.112
Mof_C 	C 	0.6055	0.6684	0.3002	-0.106
Mof_C 	C 	0.599	0.7426	0.3146	0.03
Mof_H 	H 	0.6253	0.7799	0.2968	0.044
Mof_C 	C 	0.5533	0.7618	0.3555	-0.086
Mof_H 	H 	0.5494	0.8121	0.3656	0.073
Mof_C 	C 	0.5135	0.7071	0.3814	0.032
Mof_C 	C 	0.5217	0.6324	0.3669	-0.085
Mof_H 	H 	0.4962	0.5948	0.3849	0.069
Mof_C 	C 	0.5673	0.6131	0.3262	0.028
Mof_H 	H 	0.5721	0.5627	0.3163	0.034
Mof_C 	C 	0.6563	0.6467	0.2571	0.371
Mof_C 	C 	0.4635	0.7281	0.4239	0.114
Mof_N 	N 	0.4539	0.7997	0.4327	-0.141
Mof_N 	N 	0.4345	0.6723	0.4531	-0.14
Mof_N 	N 	0.3782	0.7657	0.5034	-0.142
Mof_O 	O 	0.2456	0.5048	0.67197	-0.453
Mof_O 	O 	0.2917	0.4098	0.62682	-0.484
Mof_O 	O 	0.1752	0.1782	0.6707	-0.224
Mof_O 	O 	0.4155	0.1728	0.49503	-0.455
Mof_O 	O 	0.3451	0.1456	0.56256	-0.441
Mof_O 	O 	0.6616	0.5793	0.24586	-0.459
Mof_O 	O 	0.6889	0.6991	0.2329	-0.45
Mof_Zn	Zn	0.25404	0.33666	0.67497	1.236
Mof_O 	O 	0.7475	0.7475	0.125	-0.591
Mof_O 	O 	0.2525	0.2525	0.625	-0.59
Mof_O 	O 	0.2525	0.7475	0.875	-0.59
Mof_O 	O 	0.7475	0.2525	0.375	-0.59
Mof_Zn	Zn	0.5	0.74718	-0	1.242
Mof_Zn	Zn	0.5	0.25282	0.5	1.247
Mof_Zn	Zn	0.25282	0.5	0.75	1.247
Mof_Zn	Zn	0.74718	0.5	0.25	1.247
_end
