data_functionalizedCrystal
_audit_creation_method	'EQeq! by Chris Wilmer'
_symmetry_space_group_name_H-M	'P1'
_symmetry_Int_Tables_number	1
_symmetry_cell_setting	triclinic
loop_
_symmetry_equiv_pos_as_xyz
  x,y,z
_cell_length_a	15.4923
_cell_length_b	15.4923
_cell_length_c	12.3105
_cell_angle_alpha	90
_cell_angle_beta	90
_cell_angle_gamma	90
loop_
_atom_site_label
_atom_site_type_symbol
_atom_site_fract_x
_atom_site_fract_y
_atom_site_fract_z
_atom_site_charge
Mof_O 	O 	0.6125	0.3822	0.6158	-0.794
Mof_O 	O 	0.5926	0.2918	0.754	-0.75
Mof_C 	C 	0.5836	0.3644	0.709	0.644
Mof_C 	C 	0.53747	0.43122	0.7676	-0.248
Mof_C 	C 	0.53747	0.43122	0.88142	0.041
Mof_H 	H 	0.5655	0.3797	0.9241	0.027
Mof_O 	O 	0.1125	0.8822	0.1158	-0.761
Mof_O 	O 	0.0926	0.7918	0.254	-0.744
Mof_C 	C 	0.0836	0.8644	0.209	0.625
Mof_C 	C 	0.03747	0.93122	0.2676	-0.254
Mof_C 	C 	0.03747	0.93122	0.38142	0.103
Mof_H 	H 	0.0655	0.8797	0.4241	-0.017
Mof_O 	O 	0.8875	0.1178	0.1158	-0.766
Mof_O 	O 	0.9074	0.2082	0.254	-0.745
Mof_C 	C 	0.9164	0.1356	0.209	0.627
Mof_C 	C 	0.96253	0.06878	0.2676	-0.265
Mof_C 	C 	0.96253	0.06878	0.38142	0.09
Mof_H 	H 	0.9345	0.1203	0.4241	-0.016
Mof_O 	O 	0.3875	0.6178	0.6158	-0.795
Mof_O 	O 	0.4074	0.7082	0.754	-0.75
Mof_C 	C 	0.4164	0.6356	0.709	0.644
Mof_C 	C 	0.46253	0.56878	0.7676	-0.247
Mof_C 	C 	0.46253	0.56878	0.88142	0.042
Mof_H 	H 	0.4345	0.6203	0.9241	0.028
Mof_O 	O 	0.6178	0.1125	0.8658	-0.859
Mof_O 	O 	0.7082	0.0926	0.004	-0.854
Mof_C 	C 	0.6356	0.0836	0.959	0.938
Mof_C 	C 	0.56878	0.03747	0.0176	-0.647
Mof_C 	C 	0.56878	0.03747	0.13142	0.267
Mof_H 	H 	0.6203	0.0655	0.1741	-0.069
Mof_O 	O 	0.1178	0.6125	0.3658	-0.797
Mof_O 	O 	0.2082	0.5926	0.504	-0.756
Mof_C 	C 	0.1356	0.5836	0.459	0.653
Mof_C 	C 	0.06878	0.53747	0.5176	-0.292
Mof_C 	C 	0.06878	0.53747	0.63142	0.115
Mof_H 	H 	0.1203	0.5655	0.6741	-0.022
Mof_O 	O 	0.8822	0.3875	0.3658	-0.795
Mof_O 	O 	0.7918	0.4074	0.504	-0.754
Mof_C 	C 	0.8644	0.4164	0.459	0.653
Mof_C 	C 	0.93122	0.46253	0.5176	-0.286
Mof_C 	C 	0.93122	0.46253	0.63142	0.121
Mof_H 	H 	0.8797	0.4345	0.6741	-0.022
Mof_O 	O 	0.3822	0.8875	0.8658	-0.853
Mof_O 	O 	0.2918	0.9074	0.004	-0.852
Mof_C 	C 	0.3644	0.9164	0.959	0.942
Mof_C 	C 	0.43122	0.96253	0.0176	-0.633
Mof_C 	C 	0.43122	0.96253	0.13142	0.287
Mof_H 	H 	0.3797	0.9345	0.1741	-0.07
Mof_O 	O 	0.8875	0.3822	0.1342	-0.716
Mof_O 	O 	0.9074	0.2918	0.996	-0.551
Mof_C 	C 	0.9164	0.3644	0.041	0.318
Mof_C 	C 	0.96253	0.43122	0.9824	0.128
Mof_C 	C 	0.96253	0.43122	0.86858	-0.105
Mof_H 	H 	0.9345	0.3797	0.8259	0.045
Mof_O 	O 	0.3875	0.8822	0.6342	-0.793
Mof_O 	O 	0.4074	0.7918	0.496	-0.753
Mof_C 	C 	0.4164	0.8644	0.541	0.644
Mof_C 	C 	0.46253	0.93122	0.4824	-0.243
Mof_C 	C 	0.46253	0.93122	0.36858	0.077
Mof_H 	H 	0.4345	0.8797	0.3259	-0.011
Mof_O 	O 	0.6125	0.1178	0.6342	-0.801
Mof_O 	O 	0.5926	0.2082	0.496	-0.756
Mof_C 	C 	0.5836	0.1356	0.541	0.646
Mof_C 	C 	0.53747	0.06878	0.4824	-0.262
Mof_C 	C 	0.53747	0.06878	0.36858	0.059
Mof_H 	H 	0.5655	0.1203	0.3259	-0.009
Mof_O 	O 	0.1125	0.6178	0.1342	-0.718
Mof_O 	O 	0.0926	0.7082	0.996	-0.55
Mof_C 	C 	0.0836	0.6356	0.041	0.318
Mof_C 	C 	0.03747	0.56878	0.9824	0.122
Mof_C 	C 	0.03747	0.56878	0.86858	-0.111
Mof_H 	H 	0.0655	0.6203	0.8259	0.046
Mof_O 	O 	0.8822	0.1125	0.8842	-0.708
Mof_O 	O 	0.7918	0.0926	0.746	-0.743
Mof_C 	C 	0.8644	0.0836	0.791	0.622
Mof_C 	C 	0.93122	0.03747	0.7324	-0.246
Mof_C 	C 	0.93122	0.03747	0.61858	0.083
Mof_H 	H 	0.8797	0.0655	0.5759	-0.014
Mof_O 	O 	0.3822	0.6125	0.3842	-0.8
Mof_O 	O 	0.2918	0.5926	0.246	-0.76
Mof_C 	C 	0.3644	0.5836	0.291	0.659
Mof_C 	C 	0.43122	0.53747	0.2324	-0.31
Mof_C 	C 	0.43122	0.53747	0.11858	0.13
Mof_H 	H 	0.3797	0.5655	0.0759	-0.054
Mof_O 	O 	0.6178	0.3875	0.3842	-0.801
Mof_O 	O 	0.7082	0.4074	0.246	-0.759
Mof_C 	C 	0.6356	0.4164	0.291	0.659
Mof_C 	C 	0.56878	0.46253	0.2324	-0.309
Mof_C 	C 	0.56878	0.46253	0.11858	0.13
Mof_H 	H 	0.6203	0.4345	0.0759	-0.054
Mof_O 	O 	0.1178	0.8875	0.8842	-0.702
Mof_O 	O 	0.2082	0.9074	0.746	-0.738
Mof_C 	C 	0.1356	0.9164	0.791	0.621
Mof_C 	C 	0.06878	0.96253	0.7324	-0.232
Mof_C 	C 	0.06878	0.96253	0.61858	0.096
Mof_H 	H 	0.1203	0.9345	0.5759	-0.014
Mof_In	In	0.684	0.316	0.5	2.9
Mof_In	In	0.184	0.816	-0	2.579
Mof_In	In	0.816	0.184	-0	2.58
Mof_In	In	0.316	0.684	0.5	2.901
Mof_In	In	0.684	0.184	0.75	2.955
Mof_In	In	0.184	0.684	0.25	2.852
Mof_In	In	0.816	0.316	0.25	2.852
Mof_In	In	0.316	0.816	0.75	2.961
Mof_O 	O 	0.7604	0.25	0.625	-1.145
Mof_H 	H 	0.8185	0.25	0.625	0.353
Mof_O 	O 	0.2604	0.75	0.125	-1.096
Mof_H 	H 	0.3185	0.75	0.125	0.329
Mof_O 	O 	0.7396	0.25	0.125	-1.096
Mof_H 	H 	0.6815	0.25	0.125	0.329
Mof_O 	O 	0.2396	0.75	0.625	-1.146
Mof_H 	H 	0.1815	0.75	0.625	0.353
Mof_O 	O 	0.75	0.2604	0.875	-1.074
Mof_H 	H 	0.75	0.3185	0.875	0.351
Mof_O 	O 	0.25	0.7604	0.375	-1.13
Mof_H 	H 	0.25	0.8185	0.375	0.351
Mof_O 	O 	0.75	0.2396	0.375	-1.13
Mof_H 	H 	0.75	0.1815	0.375	0.349
Mof_O 	O 	0.25	0.7396	0.875	-1.074
Mof_H 	H 	0.25	0.6815	0.875	0.35
Mof_C 	C 	0.5	0.5	0.7107	0.161
Mof_C 	C 	0.5	0.5	0.93833	0.068
Mof_H 	H 	0.5	0.5	0.6254	0.002
Mof_C 	C 	-1.50816e-33	-2.13591e-33	0.2107	0.137
Mof_C 	C 	-2.96588e-33	-4.27182e-33	0.43833	-0.092
Mof_H 	H 	1.44157e-33	1.06795e-33	0.1254	-0.018
Mof_C 	C 	0.5	0	0.9607	0.568
Mof_C 	C 	0.5	0	0.18833	-0.224
Mof_H 	H 	0.5	0	0.8754	-0.104
Mof_C 	C 	-2.89923e-33	0.5	0.4607	0.183
Mof_C 	C 	2.05078e-33	0.5	0.68833	-0.125
Mof_H 	H 	-3.15337e-33	0.5	0.3754	-0.013
Mof_C 	C 	-1.48484e-33	0.5	0.0393	-0.262
Mof_C 	C 	-1.4669e-32	0.5	0.81167	0.081
Mof_H 	H 	-3.90059e-33	0.5	0.1246	0.102
Mof_C 	C 	0.5	0	0.5393	0.141
Mof_C 	C 	0.5	0	0.31167	-0.034
Mof_H 	H 	0.5	4.27182e-33	0.6246	0.004
Mof_C 	C 	2.3516e-33	4.27182e-33	0.7893	0.126
Mof_C 	C 	1.67341e-33	0	0.56167	-0.084
Mof_H 	H 	2.60574e-33	0	0.8746	0.021
Mof_C 	C 	0.5	0.5	0.2893	0.201
Mof_C 	C 	0.5	0.5	0.06167	-0.196
Mof_H 	H 	0.5	0.5	0.3746	-0.011
_end
