data_functionalizedCrystal
_audit_creation_method	'EQeq! by Chris Wilmer'
_symmetry_space_group_name_H-M	'P1'
_symmetry_Int_Tables_number	1
_symmetry_cell_setting	triclinic
loop_
_symmetry_equiv_pos_as_xyz
  x,y,z
_cell_length_a	9.4092
_cell_length_b	10.3376
_cell_length_c	24.353
_cell_angle_alpha	93.978
_cell_angle_beta	90
_cell_angle_gamma	90
loop_
_atom_site_label
_atom_site_type_symbol
_atom_site_fract_x
_atom_site_fract_y
_atom_site_fract_z
_atom_site_charge
Mof_Co	Co	0.5	0.5	0.5	1.124
Mof_Co	Co	0.5	0.5	-0	1.107
Mof_Co	Co	0.16351	6.01372e-18	0.25	1.137
Mof_Co	Co	0.83649	0	0.75	1.137
Mof_H 	H 	0.5397	0.102	0.4509	0.117
Mof_H 	H 	0.7663	0.8282	0.3668	0.091
Mof_H 	H 	0.8868	0.2004	0.3686	0.059
Mof_H 	H 	0.3753	0.3024	0.4135	-0.038
Mof_H 	H 	0.198	0.2735	0.3505	0.153
Mof_H 	H 	0.0967	0.6464	0.3794	0.154
Mof_H 	H 	0.2744	0.661	0.4435	-0.026
Mof_H 	H 	0.017	0.6142	0.2903	0.063
Mof_H 	H 	0.8943	0.5751	0.3299	0.061
Mof_H 	H 	0.8299	0.6921	0.2341	0.061
Mof_H 	H 	0.7288	0.5963	0.1995	0.065
Mof_H 	H 	0.6169	0.7855	0.1975	0.152
Mof_H 	H 	0.4185	0.9095	0.1898	-0.036
Mof_H 	H 	0.2502	0.7781	0.3199	-0.032
Mof_H 	H 	0.4456	0.6545	0.3333	0.155
Mof_H 	H 	0.5756	0.8281	0.4618	0.158
Mof_H 	H 	0.5397	0.898	0.0491	0.103
Mof_H 	H 	0.7663	0.1718	0.1332	0.152
Mof_H 	H 	0.8868	0.7996	0.1314	0.102
Mof_H 	H 	0.3753	0.6976	0.0865	-0.037
Mof_H 	H 	0.198	0.7265	0.1495	0.152
Mof_H 	H 	0.0967	0.3536	0.1206	0.146
Mof_H 	H 	0.2744	0.339	0.0565	-0.04
Mof_H 	H 	0.017	0.3858	0.2097	0.059
Mof_H 	H 	0.8943	0.4249	0.1701	0.055
Mof_H 	H 	0.8299	0.3079	0.2659	0.056
Mof_H 	H 	0.7288	0.4037	0.3005	0.064
Mof_H 	H 	0.6169	0.2145	0.3025	0.148
Mof_H 	H 	0.4185	0.0905	0.3102	-0.056
Mof_H 	H 	0.2502	0.2219	0.1801	-0.041
Mof_H 	H 	0.4456	0.3455	0.1667	0.154
Mof_H 	H 	0.5756	0.1719	0.0382	0.141
Mof_H 	H 	0.4603	0.898	0.5491	0.113
Mof_H 	H 	0.2337	0.1718	0.6332	0.154
Mof_H 	H 	0.1132	0.7996	0.6314	0.105
Mof_H 	H 	0.6247	0.6976	0.5865	-0.034
Mof_H 	H 	0.802	0.7265	0.6495	0.153
Mof_H 	H 	0.9033	0.3536	0.6206	0.148
Mof_H 	H 	0.7256	0.339	0.5565	-0.03
Mof_H 	H 	0.983	0.3858	0.7097	0.059
Mof_H 	H 	0.1057	0.4249	0.6701	0.057
Mof_H 	H 	0.1701	0.3079	0.7659	0.056
Mof_H 	H 	0.2712	0.4037	0.8005	0.065
Mof_H 	H 	0.3831	0.2145	0.8025	0.147
Mof_H 	H 	0.5815	0.0905	0.8102	-0.055
Mof_H 	H 	0.7498	0.2219	0.6801	-0.04
Mof_H 	H 	0.5544	0.3455	0.6667	0.154
Mof_H 	H 	0.4244	0.1719	0.5382	0.153
Mof_H 	H 	0.4603	0.102	0.9509	0.127
Mof_H 	H 	0.2337	0.8282	0.8668	0.093
Mof_H 	H 	0.1132	0.2004	0.8686	0.062
Mof_H 	H 	0.6247	0.3024	0.9135	-0.035
Mof_H 	H 	0.802	0.2735	0.8505	0.154
Mof_H 	H 	0.9033	0.6464	0.8794	0.155
Mof_H 	H 	0.7256	0.661	0.9435	-0.015
Mof_H 	H 	0.983	0.6142	0.7903	0.064
Mof_H 	H 	0.1057	0.5751	0.8299	0.063
Mof_H 	H 	0.1701	0.6921	0.7341	0.061
Mof_H 	H 	0.2712	0.5963	0.6995	0.065
Mof_H 	H 	0.3831	0.7855	0.6975	0.152
Mof_H 	H 	0.5815	0.9095	0.6898	-0.035
Mof_H 	H 	0.7498	0.7781	0.8199	-0.031
Mof_H 	H 	0.5544	0.6545	0.8333	0.156
Mof_H 	H 	0.4244	0.8281	0.9618	0.171
Mof_C 	C 	0.681	0.3121	0.43069	0.33
Mof_C 	C 	0.7099	0.1716	0.41234	-0.016
Mof_C 	C 	0.6166	0.0783	0.42836	-0.216
Mof_C 	C 	0.6375	0.9495	0.4109	0.273
Mof_C 	C 	0.7526	0.9148	0.37861	-0.093
Mof_C 	C 	0.8486	0.0073	0.36342	-0.128
Mof_C 	C 	0.8249	0.1371	0.37974	-0.014
Mof_C 	C 	0.973	0.9673	0.32752	0.444
Mof_C 	C 	0.3184	0.373	0.4066	0.17
Mof_C 	C 	0.2139	0.3551	0.3679	-0.305
Mof_C 	C 	0.133	0.4586	0.3549	0.322
Mof_C 	C 	0.1534	0.5748	0.38501	-0.309
Mof_C 	C 	0.2603	0.5818	0.42375	0.174
Mof_C 	C 	0.9547	0.544	0.29948	-0.008
Mof_C 	C 	0.7726	0.6144	0.23523	-0.009
Mof_C 	C 	0.5534	0.7056	0.2672	0.325
Mof_C 	C 	0.5442	0.7834	0.2233	-0.304
Mof_C 	C 	0.4246	0.857	0.21923	0.18
Mof_C 	C 	0.3259	0.7812	0.29549	0.188
Mof_C 	C 	0.442	0.7057	0.30341	-0.303
Mof_C 	C 	0.681	0.6879	0.06931	0.32
Mof_C 	C 	0.7099	0.8284	0.08766	0.016
Mof_C 	C 	0.6166	0.9217	0.07164	-0.147
Mof_C 	C 	0.6375	0.0505	0.0891	0.242
Mof_C 	C 	0.7526	0.0852	0.12139	-0.301
Mof_C 	C 	0.8486	0.9927	0.13658	0.147
Mof_C 	C 	0.8249	0.8629	0.12026	-0.132
Mof_C 	C 	0.973	0.0327	0.17248	0.181
Mof_C 	C 	0.3184	0.627	0.0934	0.167
Mof_C 	C 	0.2139	0.6449	0.1321	-0.304
Mof_C 	C 	0.133	0.5414	0.1451	0.32
Mof_C 	C 	0.1534	0.4252	0.11499	-0.311
Mof_C 	C 	0.2603	0.4182	0.07625	0.172
Mof_C 	C 	0.9547	0.456	0.20052	-0.003
Mof_C 	C 	0.7726	0.3856	0.26477	-0.007
Mof_C 	C 	0.5534	0.2944	0.2328	0.324
Mof_C 	C 	0.5442	0.2166	0.2767	-0.313
Mof_C 	C 	0.4246	0.143	0.28077	0.175
Mof_C 	C 	0.3259	0.2188	0.20451	0.181
Mof_C 	C 	0.442	0.2943	0.19659	-0.306
Mof_C 	C 	0.319	0.6879	0.56931	0.319
Mof_C 	C 	0.2901	0.8284	0.58766	0.025
Mof_C 	C 	0.3834	0.9217	0.57164	-0.151
Mof_C 	C 	0.3625	0.0505	0.5891	0.25
Mof_C 	C 	0.2474	0.0852	0.62139	-0.303
Mof_C 	C 	0.1514	0.9927	0.63658	0.151
Mof_C 	C 	0.1751	0.8629	0.62026	-0.134
Mof_C 	C 	0.027	0.0327	0.67248	0.182
Mof_C 	C 	0.6816	0.627	0.5934	0.169
Mof_C 	C 	0.7861	0.6449	0.6321	-0.302
Mof_C 	C 	0.867	0.5414	0.6451	0.32
Mof_C 	C 	0.8466	0.4252	0.61499	-0.308
Mof_C 	C 	0.7397	0.4182	0.57625	0.173
Mof_C 	C 	0.0453	0.456	0.70052	-0.005
Mof_C 	C 	0.2274	0.3856	0.76477	-0.008
Mof_C 	C 	0.4466	0.2944	0.7328	0.324
Mof_C 	C 	0.4558	0.2166	0.7767	-0.312
Mof_C 	C 	0.5754	0.143	0.78077	0.174
Mof_C 	C 	0.6741	0.2188	0.70451	0.181
Mof_C 	C 	0.558	0.2943	0.69659	-0.306
Mof_C 	C 	0.319	0.3121	0.93069	0.326
Mof_C 	C 	0.2901	0.1716	0.91234	-0.006
Mof_C 	C 	0.3834	0.0783	0.92836	-0.22
Mof_C 	C 	0.3625	0.9495	0.9109	0.281
Mof_C 	C 	0.2474	0.9148	0.87861	-0.098
Mof_C 	C 	0.1514	0.0073	0.86342	-0.121
Mof_C 	C 	0.1751	0.1371	0.87974	-0.018
Mof_C 	C 	0.027	0.9673	0.82752	0.442
Mof_C 	C 	0.6816	0.373	0.9066	0.172
Mof_C 	C 	0.7861	0.3551	0.8679	-0.303
Mof_C 	C 	0.867	0.4586	0.8549	0.322
Mof_C 	C 	0.8466	0.5748	0.88501	-0.305
Mof_C 	C 	0.7397	0.5818	0.92375	0.175
Mof_C 	C 	0.0453	0.544	0.79948	-0.01
Mof_C 	C 	0.2274	0.6144	0.73523	-0.01
Mof_C 	C 	0.4466	0.7056	0.7672	0.325
Mof_C 	C 	0.4558	0.7834	0.7233	-0.303
Mof_C 	C 	0.5754	0.857	0.71923	0.18
Mof_C 	C 	0.6741	0.7812	0.79549	0.188
Mof_C 	C 	0.558	0.7057	0.80341	-0.302
Mof_C 	C 	0.8645	0.5	0.25	0.043
Mof_C 	C 	0.1355	0.5	0.75	0.044
Mof_N 	N 	0.3438	0.4856	0.43503	-0.28
Mof_N 	N 	0.316	0.859	0.25446	-0.282
Mof_N 	N 	0.3438	0.5144	0.06497	-0.284
Mof_N 	N 	0.316	0.141	0.24554	-0.297
Mof_N 	N 	0.6562	0.5144	0.56497	-0.279
Mof_N 	N 	0.684	0.141	0.74554	-0.297
Mof_N 	N 	0.6562	0.4856	0.93503	-0.271
Mof_N 	N 	0.684	0.859	0.75446	-0.282
Mof_O 	O 	0.7428	0.3966	0.40581	-0.289
Mof_O 	O 	0.5929	0.3327	0.46802	-0.444
Mof_O 	O 	0.0607	0.054	0.31751	-0.497
Mof_O 	O 	0.9848	0.8569	0.3085	-0.353
Mof_O 	O 	0.5427	0.8657	0.4292	-0.337
Mof_O 	O 	0.0362	0.4366	0.31453	-0.251
Mof_O 	O 	0.6651	0.6315	0.27748	-0.249
Mof_O 	O 	0.7428	0.6034	0.09419	-0.292
Mof_O 	O 	0.5929	0.6673	0.03198	-0.453
Mof_O 	O 	0.0607	0.946	0.18249	-0.371
Mof_O 	O 	0.9848	0.1431	0.1915	-0.297
Mof_O 	O 	0.5427	0.1343	0.0708	-0.354
Mof_O 	O 	0.0362	0.5634	0.18547	-0.252
Mof_O 	O 	0.6651	0.3685	0.22252	-0.253
Mof_O 	O 	0.2572	0.6034	0.59419	-0.286
Mof_O 	O 	0.4071	0.6673	0.53198	-0.438
Mof_O 	O 	0.9393	0.946	0.68249	-0.37
Mof_O 	O 	0.0152	0.1431	0.6915	-0.296
Mof_O 	O 	0.4573	0.1343	0.5708	-0.353
Mof_O 	O 	0.9638	0.5634	0.68547	-0.251
Mof_O 	O 	0.3349	0.3685	0.72252	-0.253
Mof_O 	O 	0.2572	0.3966	0.90581	-0.281
Mof_O 	O 	0.4071	0.3327	0.96802	-0.422
Mof_O 	O 	0.9393	0.054	0.81751	-0.494
Mof_O 	O 	0.0152	0.8569	0.8085	-0.352
Mof_O 	O 	0.4573	0.8657	0.9292	-0.336
Mof_O 	O 	0.9638	0.4366	0.81453	-0.25
Mof_O 	O 	0.3349	0.6315	0.77748	-0.249
_end
