data_functionalizedCrystal
_audit_creation_method	'EQeq! by Chris Wilmer'
_symmetry_space_group_name_H-M	'P1'
_symmetry_Int_Tables_number	1
_symmetry_cell_setting	triclinic
loop_
_symmetry_equiv_pos_as_xyz
  x,y,z
_cell_length_a	10.075
_cell_length_b	13.051
_cell_length_c	13.24
_cell_angle_alpha	70.79
_cell_angle_beta	68.85
_cell_angle_gamma	70.61
loop_
_atom_site_label
_atom_site_type_symbol
_atom_site_fract_x
_atom_site_fract_y
_atom_site_fract_z
_atom_site_charge
Mof_Zn	Zn	0.56682	0.16637	0.44715	1.236
Mof_Zn	Zn	0.16256	0.05451	0.33483	1.237
Mof_Zn	Zn	0.43318	0.83363	0.55285	1.237
Mof_Zn	Zn	0.83744	0.94549	0.66517	1.238
Mof_P 	P 	0.87007	0.16411	0.47339	0.45
Mof_P 	P 	0.49208	0.031	0.33598	0.451
Mof_P 	P 	0.12993	0.83589	0.52661	0.45
Mof_P 	P 	0.50792	0.969	0.66402	0.451
Mof_H 	H 	0.8286	0.3923	0.3526	0.044
Mof_H 	H 	0.7063	0.563	0.4005	0.047
Mof_H 	H 	0.5893	0.4054	0.7194	0.042
Mof_H 	H 	0.7122	0.236	0.674	0.035
Mof_H 	H 	0.6197	0.1333	0.1081	0.045
Mof_H 	H 	0.7204	0.0782	0.946	0.048
Mof_H 	H 	0.631	0.781	0.1007	0.045
Mof_H 	H 	0.5348	0.8345	0.2667	0.032
Mof_H 	H 	0.1714	0.6077	0.6474	0.044
Mof_H 	H 	0.2937	0.437	0.5995	0.047
Mof_H 	H 	0.4107	0.5946	0.2806	0.042
Mof_H 	H 	0.2878	0.764	0.326	0.035
Mof_H 	H 	0.3803	0.8667	0.8919	0.045
Mof_H 	H 	0.2796	0.9218	0.054	0.048
Mof_H 	H 	0.369	0.219	0.8993	0.045
Mof_H 	H 	0.4652	0.1655	0.7333	0.032
Mof_C 	C 	0.7823	0.2965	0.5084	-0.077
Mof_C 	C 	0.7807	0.3942	0.4268	-0.03
Mof_C 	C 	0.7067	0.4968	0.4558	-0.017
Mof_C 	C 	0.6362	0.5003	0.5629	-0.076
Mof_C 	C 	0.6376	0.4029	0.6454	-0.023
Mof_C 	C 	0.7108	0.3016	0.618	-0.033
Mof_C 	C 	0.5526	0.6096	0.5933	0.333
Mof_C 	C 	0.567	0.9906	0.2046	-0.069
Mof_C 	C 	0.6224	0.0616	0.1075	-0.027
Mof_C 	C 	0.681	0.029	0.0106	-0.024
Mof_C 	C 	0.684	0.9247	0.0047	-0.071
Mof_C 	C 	0.629	0.8523	0.1021	-0.019
Mof_C 	C 	0.5712	0.8843	0.2014	-0.035
Mof_C 	C 	0.7411	0.8918	0.8972	0.336
Mof_C 	C 	0.2177	0.7035	0.4916	-0.077
Mof_C 	C 	0.2193	0.6058	0.5732	-0.03
Mof_C 	C 	0.2933	0.5032	0.5442	-0.017
Mof_C 	C 	0.3638	0.4997	0.4371	-0.076
Mof_C 	C 	0.3624	0.5971	0.3546	-0.023
Mof_C 	C 	0.2892	0.6984	0.382	-0.033
Mof_C 	C 	0.4474	0.3904	0.4067	0.333
Mof_C 	C 	0.433	0.0094	0.7954	-0.069
Mof_C 	C 	0.3776	0.9384	0.8925	-0.027
Mof_C 	C 	0.319	0.971	0.9894	-0.024
Mof_C 	C 	0.316	0.0753	0.9953	-0.071
Mof_C 	C 	0.371	0.1477	0.8979	-0.019
Mof_C 	C 	0.4288	0.1157	0.7986	-0.035
Mof_C 	C 	0.2589	0.1082	0.1028	0.336
Mof_O 	O 	0.7712	0.1327	0.4321	-0.486
Mof_O 	O 	0.0119	0.178	0.384	-0.446
Mof_O 	O 	0.899	0.0833	0.5794	-0.461
Mof_O 	O 	0.5533	0.6947	0.5145	-0.464
Mof_O 	O 	0.4904	0.6123	0.6928	-0.318
Mof_O 	O 	0.328	0.0712	0.3621	-0.477
Mof_O 	O 	0.5586	0.1256	0.3207	-0.435
Mof_O 	O 	0.5416	0.9287	0.4202	-0.455
Mof_O 	O 	0.797	0.9624	0.8135	-0.463
Mof_O 	O 	0.7303	0.802	0.8924	-0.315
Mof_O 	O 	0.2288	0.8673	0.5679	-0.486
Mof_O 	O 	0.9881	0.822	0.616	-0.446
Mof_O 	O 	0.101	0.9167	0.4206	-0.461
Mof_O 	O 	0.4467	0.3053	0.4855	-0.464
Mof_O 	O 	0.5096	0.3877	0.3072	-0.318
Mof_O 	O 	0.672	0.9288	0.6379	-0.477
Mof_O 	O 	0.4414	0.8744	0.6793	-0.435
Mof_O 	O 	0.4584	0.0713	0.5798	-0.455
Mof_O 	O 	0.203	0.0376	0.1865	-0.463
Mof_O 	O 	0.2697	0.198	0.1076	-0.315
Mof_H 	H 	0.6713	0.7369	0.8164	0.126
Mof_H 	H 	0.5996	0.7148	0.7509	0.115
Mof_H 	H 	0.8407	0.6705	0.6752	0.13
Mof_H 	H 	0.8572	0.5874	0.789	0.134
Mof_H 	H 	0.7798	0.5631	0.7186	0.132
Mof_H 	H 	0.486	0.658	0.9329	0.13
Mof_H 	H 	0.5593	0.5548	0.8791	0.138
Mof_H 	H 	0.636	0.579	0.95	0.133
Mof_C 	C 	0.795	0.6207	0.7403	-0.334
Mof_C 	C 	0.5776	0.6124	0.8987	-0.334
Mof_N 	N 	0.6563	0.6822	0.7976	-0.147
Mof_H 	H 	0.891	0.9025	0.4282	0.102
Mof_H 	H 	0.7506	0.9136	0.4135	0.106
Mof_H 	H 	0.875	0.02	0.266	0.141
Mof_H 	H 	0.0021	0.9134	0.2463	0.148
Mof_H 	H 	0.8501	0.9259	0.2306	0.15
Mof_H 	H 	0.839	0.7365	0.4914	0.133
Mof_H 	H 	0.8272	0.7461	0.3736	0.143
Mof_H 	H 	0.9793	0.7341	0.3888	0.141
Mof_C 	C 	0.898	0.9409	0.2733	-0.366
Mof_C 	C 	0.8757	0.7656	0.4127	-0.352
Mof_N 	N 	0.8478	0.8856	0.3889	-0.13
Mof_H 	H 	0.3287	0.2631	0.1836	0.126
Mof_H 	H 	0.4004	0.2852	0.2491	0.115
Mof_H 	H 	0.1593	0.3295	0.3248	0.13
Mof_H 	H 	0.1428	0.4126	0.211	0.134
Mof_H 	H 	0.2202	0.4369	0.2814	0.132
Mof_H 	H 	0.514	0.342	0.0671	0.13
Mof_H 	H 	0.4407	0.4452	0.1209	0.138
Mof_H 	H 	0.364	0.421	0.05	0.133
Mof_C 	C 	0.205	0.3793	0.2597	-0.334
Mof_C 	C 	0.4224	0.3876	0.1013	-0.334
Mof_N 	N 	0.3437	0.3178	0.2024	-0.147
Mof_H 	H 	0.109	0.0975	0.5718	0.102
Mof_H 	H 	0.2494	0.0864	0.5865	0.106
Mof_H 	H 	0.125	0.98	0.734	0.141
Mof_H 	H 	0.9979	0.0866	0.7537	0.148
Mof_H 	H 	0.1499	0.0741	0.7694	0.15
Mof_H 	H 	0.161	0.2635	0.5086	0.133
Mof_H 	H 	0.1728	0.2539	0.6264	0.143
Mof_H 	H 	0.0207	0.2659	0.6112	0.141
Mof_C 	C 	0.102	0.0591	0.7267	-0.366
Mof_C 	C 	0.1243	0.2344	0.5873	-0.352
Mof_N 	N 	0.1522	0.1144	0.6111	-0.13
_end
