data_functionalizedCrystal
_audit_creation_method	'EQeq! by Chris Wilmer'
_symmetry_space_group_name_H-M	'P1'
_symmetry_Int_Tables_number	1
_symmetry_cell_setting	triclinic
loop_
_symmetry_equiv_pos_as_xyz
  x,y,z
_cell_length_a	11.6151
_cell_length_b	15.648
_cell_length_c	18.163
_cell_angle_alpha	90
_cell_angle_beta	93.202
_cell_angle_gamma	90
loop_
_atom_site_label
_atom_site_type_symbol
_atom_site_fract_x
_atom_site_fract_y
_atom_site_fract_z
_atom_site_charge
Mof_Zn	Zn	0.99238	-1.53176e-32	0.91893	1.193
Mof_Zn	Zn	0.00762	0	0.08107	1.194
Mof_H 	H 	0.7424	0.7954	0.8888	0.057
Mof_H 	H 	0.758	0.798	0.11	0.055
Mof_H 	H 	0.6488	0.6717	0.1098	0.096
Mof_H 	H 	0.621	0.6718	0.8931	0.097
Mof_H 	H 	0.2576	0.7954	0.1112	0.056
Mof_H 	H 	0.242	0.798	0.89	0.057
Mof_H 	H 	0.3512	0.6717	0.8902	0.096
Mof_H 	H 	0.379	0.6718	0.1069	0.096
Mof_H 	H 	0.2576	0.2046	0.1112	0.032
Mof_H 	H 	0.242	0.202	0.89	0.031
Mof_H 	H 	0.3512	0.3283	0.8902	0.095
Mof_H 	H 	0.379	0.3282	0.1069	0.095
Mof_H 	H 	0.7424	0.2046	0.8888	0.031
Mof_H 	H 	0.758	0.202	0.11	0.029
Mof_H 	H 	0.6488	0.3283	0.1098	0.095
Mof_H 	H 	0.621	0.3282	0.8931	0.096
Mof_H 	H 	0.1598	-7.65878e-33	0.8026	-0.019
Mof_H 	H 	0.827	0	0.7899	-0.017
Mof_H 	H 	0.1671	0	0.6789	0.086
Mof_H 	H 	0.8235	0	0.6634	0.083
Mof_H 	H 	0.8402	-1.91469e-33	0.1974	-0.018
Mof_H 	H 	0.173	0	0.2101	-0.017
Mof_H 	H 	0.8329	0	0.3211	0.086
Mof_H 	H 	0.1765	0	0.3366	0.083
Mof_C 	C 	0.7648	0.8059	-0	-0.079
Mof_C 	C 	0.8485	0.8844	0.001	0.41
Mof_C 	C 	0.5626	0.5777	0.9995	-0.072
Mof_C 	C 	0.6266	0.6607	0.9999	0.117
Mof_C 	C 	0.7241	0.7715	0.9335	0.044
Mof_C 	C 	0.7343	0.7719	0.0657	0.052
Mof_C 	C 	0.6664	0.6967	0.0655	-0.118
Mof_C 	C 	0.6511	0.6959	0.9368	-0.126
Mof_C 	C 	0.2352	0.8059	-0	-0.071
Mof_C 	C 	0.1515	0.8844	0.999	0.388
Mof_C 	C 	0.4374	0.5777	0.0005	-0.024
Mof_C 	C 	0.3734	0.6607	0.0001	0.116
Mof_C 	C 	0.2759	0.7715	0.0665	0.045
Mof_C 	C 	0.2657	0.7719	0.9343	0.042
Mof_C 	C 	0.3336	0.6967	0.9345	-0.124
Mof_C 	C 	0.3489	0.6959	0.0632	-0.121
Mof_C 	C 	0.2352	0.1941	-0	-0.104
Mof_C 	C 	0.1515	0.1156	0.999	0.4
Mof_C 	C 	0.4374	0.4223	0.0005	-0.028
Mof_C 	C 	0.3734	0.3393	0.0001	0.125
Mof_C 	C 	0.2759	0.2285	0.0665	0.057
Mof_C 	C 	0.2657	0.2281	0.9343	0.056
Mof_C 	C 	0.3336	0.3033	0.9345	-0.145
Mof_C 	C 	0.3489	0.3041	0.0632	-0.141
Mof_C 	C 	0.7648	0.1941	-0	-0.112
Mof_C 	C 	0.8485	0.1156	0.001	0.423
Mof_C 	C 	0.5626	0.4223	0.9995	-0.076
Mof_C 	C 	0.6266	0.3393	0.9999	0.126
Mof_C 	C 	0.7241	0.2285	0.9335	0.055
Mof_C 	C 	0.7343	0.2281	0.0657	0.065
Mof_C 	C 	0.6664	0.3033	0.0655	-0.138
Mof_C 	C 	0.6511	0.3041	0.9368	-0.145
Mof_C 	C 	0.0902	7.65878e-33	0.7747	0.095
Mof_C 	C 	0.8969	0	0.7673	0.077
Mof_C 	C 	0.0954	0	0.6992	-0.15
Mof_C 	C 	0.99721	-7.65878e-33	0.6529	0.068
Mof_C 	C 	0.8941	0	0.6902	-0.137
Mof_C 	C 	0.99872	0	0.5699	0.084
Mof_C 	C 	0.9098	0	0.2253	0.095
Mof_C 	C 	0.1031	0	0.2327	0.076
Mof_C 	C 	0.9046	0	0.3008	-0.149
Mof_C 	C 	0.00279	0	0.3471	0.068
Mof_C 	C 	0.1059	0	0.3098	-0.136
Mof_C 	C 	0.00128	-7.65878e-33	0.4301	0.083
Mof_C 	C 	0.6156	0.5	0.0029	0.134
Mof_C 	C 	0.3844	0.5	0.9971	0.079
Mof_Br	Br	0.78067	0.5	0.99938	-0.228
Mof_Br	Br	0.21933	0.5	0.00062	-0.208
Mof_N 	N 	0.99434	0	0.8107	-0.276
Mof_N 	N 	0.0998	0	0.5387	-0.088
Mof_N 	N 	0.8969	0	0.5328	-0.088
Mof_N 	N 	0.00566	0	0.1893	-0.276
Mof_N 	N 	0.9002	0	0.4613	-0.087
Mof_N 	N 	0.1031	0	0.4672	-0.088
Mof_O 	O 	0.8703	0.9089	0.9395	-0.424
Mof_O 	O 	0.8838	0.9091	0.0626	-0.418
Mof_O 	O 	0.1297	0.9089	0.0605	-0.411
Mof_O 	O 	0.1162	0.9091	0.9374	-0.415
Mof_O 	O 	0.1297	0.0911	0.0605	-0.48
Mof_O 	O 	0.1162	0.0909	0.9374	-0.484
Mof_O 	O 	0.8703	0.0911	0.9395	-0.494
Mof_O 	O 	0.8838	0.0909	0.0626	-0.487
_end
