data_functionalizedCrystal
_audit_creation_method	'EQeq! by Chris Wilmer'
_symmetry_space_group_name_H-M	'P1'
_symmetry_Int_Tables_number	1
_symmetry_cell_setting	triclinic
loop_
_symmetry_equiv_pos_as_xyz
  x,y,z
_cell_length_a	9.5454
_cell_length_b	14.6719
_cell_length_c	9.479
_cell_angle_alpha	90
_cell_angle_beta	110.419
_cell_angle_gamma	90
loop_
_atom_site_label
_atom_site_type_symbol
_atom_site_fract_x
_atom_site_fract_y
_atom_site_fract_z
_atom_site_charge
Mof_O 	O 	0.7653	0.8454	0.4145	-0.189
Mof_O 	O 	0.8817	0.9364	0.7394	-0.253
Mof_O 	O 	0.7843	0.0217	0.8731	-0.351
Mof_N 	N 	0.9385	0.608	0.5899	-0.131
Mof_N 	N 	0.0305	0.6554	0.71	-0.161
Mof_N 	N 	0.8109	0.7186	0.6282	-0.097
Mof_N 	N 	0.6985	0.783	0.6022	-0.18
Mof_H 	H 	0.6316	0.7807	0.6466	0.136
Mof_C 	C 	0.8081	0.6453	0.543	0.118
Mof_H 	H 	0.724	0.6243	0.4615	0.016
Mof_C 	C 	0.9517	0.724	0.7303	0.202
Mof_H 	H 	0.9875	0.7701	0.8046	0.032
Mof_C 	C 	0.6987	0.8503	0.5026	0.242
Mof_C 	C 	0.5961	0.9283	0.5033	-0.071
Mof_C 	C 	0.6333	0.9907	0.6247	0.038
Mof_C 	C 	0.5341	0.0614	0.6165	-0.108
Mof_H 	H 	0.5574	0.1041	0.6968	0.094
Mof_C 	C 	0.78	0.9819	0.753	0.321
Mof_O 	O 	0.2347	0.3454	0.0855	-0.244
Mof_O 	O 	0.1183	0.4364	0.7606	-0.316
Mof_O 	O 	0.2157	0.5217	0.6269	-0.373
Mof_N 	N 	0.0615	0.108	0.9101	-0.226
Mof_N 	N 	0.9695	0.1554	0.79	-0.001
Mof_N 	N 	0.1891	0.2186	0.8718	-0.084
Mof_N 	N 	0.3015	0.283	0.8978	-0.18
Mof_H 	H 	0.3684	0.2807	0.8534	0.141
Mof_C 	C 	0.1919	0.1453	0.957	0.174
Mof_H 	H 	0.276	0.1243	0.0385	-0.034
Mof_C 	C 	0.0483	0.224	0.7697	0.023
Mof_H 	H 	0.0125	0.2701	0.6954	0.04
Mof_C 	C 	0.3013	0.3503	0.9974	0.255
Mof_C 	C 	0.4039	0.4283	0.9967	0.03
Mof_C 	C 	0.3667	0.4907	0.8753	-0.082
Mof_C 	C 	0.4659	0.5614	0.8835	0.057
Mof_H 	H 	0.4426	0.6041	0.8032	0.042
Mof_C 	C 	0.22	0.4819	0.747	0.324
Mof_O 	O 	0.2347	0.1546	0.5855	-0.211
Mof_O 	O 	0.1183	0.0636	0.2606	-0.322
Mof_O 	O 	0.2157	0.9783	0.1269	-0.329
Mof_N 	N 	0.0615	0.392	0.4101	-0.22
Mof_N 	N 	0.9695	0.3446	0.29	-0
Mof_N 	N 	0.1891	0.2814	0.3718	-0.076
Mof_N 	N 	0.3015	0.217	0.3978	-0.176
Mof_H 	H 	0.3684	0.2193	0.3534	0.134
Mof_C 	C 	0.1919	0.3547	0.457	0.11
Mof_H 	H 	0.276	0.3757	0.5385	0.016
Mof_C 	C 	0.0483	0.276	0.2697	0.019
Mof_H 	H 	0.0125	0.2299	0.1954	0.033
Mof_C 	C 	0.3013	0.1497	0.4974	0.21
Mof_C 	C 	0.4039	0.0717	0.4967	0.024
Mof_C 	C 	0.3667	0.0093	0.3753	-0.126
Mof_C 	C 	0.4659	0.9386	0.3835	0.086
Mof_H 	H 	0.4426	0.8959	0.3032	0.03
Mof_C 	C 	0.22	0.0181	0.247	0.28
Mof_O 	O 	0.7653	0.6546	0.9145	-0.161
Mof_O 	O 	0.8817	0.5636	0.2394	-0.264
Mof_O 	O 	0.7843	0.4783	0.3731	-0.328
Mof_N 	N 	0.9385	0.892	0.0899	-0.116
Mof_N 	N 	0.0305	0.8446	0.21	-0.16
Mof_N 	N 	0.8109	0.7814	0.1282	-0.091
Mof_N 	N 	0.6985	0.717	0.1022	-0.175
Mof_H 	H 	0.6316	0.7193	0.1466	0.13
Mof_C 	C 	0.8081	0.8547	0.043	0.067
Mof_H 	H 	0.724	0.8757	0.9615	0.058
Mof_C 	C 	0.9517	0.776	0.2303	0.2
Mof_H 	H 	0.9875	0.7299	0.3046	0.025
Mof_C 	C 	0.6987	0.6497	0.0026	0.202
Mof_C 	C 	0.5961	0.5717	0.0033	-0.076
Mof_C 	C 	0.6333	0.5093	0.1247	-0.006
Mof_C 	C 	0.5341	0.4386	0.1165	-0.083
Mof_H 	H 	0.5574	0.3959	0.1968	0.083
Mof_C 	C 	0.78	0.5181	0.253	0.287
Mof_Cu	Cu	2.51116e-33	0.5	0.5	0.878
Mof_Cu	Cu	-0	0	-0	0.844
_end
