data_functionalizedCrystal
_audit_creation_method	'EQeq! by Chris Wilmer'
_symmetry_space_group_name_H-M	'P1'
_symmetry_Int_Tables_number	1
_symmetry_cell_setting	triclinic
loop_
_symmetry_equiv_pos_as_xyz
  x,y,z
_cell_length_a	23.0781
_cell_length_b	23.0781
_cell_length_c	27.3789
_cell_angle_alpha	65.0734
_cell_angle_beta	65.0734
_cell_angle_gamma	60
loop_
_atom_site_label
_atom_site_type_symbol
_atom_site_fract_x
_atom_site_fract_y
_atom_site_fract_z
_atom_site_charge
Mof_Zn	Zn	0.30927	0.33263	0.2781	1.223
Mof_Zn	Zn	0.20308	0.42877	0.21213	1.217
Mof_Zn	Zn	0.33263	0.08	0.2781	1.223
Mof_Zn	Zn	0.42877	0.15602	0.21213	1.217
Mof_Zn	Zn	0.08	0.30927	0.2781	1.223
Mof_Zn	Zn	0.15602	0.20308	0.21213	1.217
Mof_Zn	Zn	0.69073	0.66737	0.7219	1.223
Mof_Zn	Zn	0.79692	0.57123	0.78787	1.217
Mof_Zn	Zn	0.66737	0.92	0.7219	1.223
Mof_Zn	Zn	0.57123	0.84398	0.78787	1.217
Mof_Zn	Zn	0.92	0.69073	0.7219	1.223
Mof_Zn	Zn	0.84398	0.79692	0.78787	1.217
Mof_Zn	Zn	0.73485	0.73485	0.79545	1.233
Mof_Zn	Zn	0.26515	0.26515	0.20455	1.233
Mof_H 	H 	0.0522	0.5756	0.5952	0.056
Mof_H 	H 	0.8631	0.667	0.5697	0.045
Mof_H 	H 	0.9084	0.6277	0.4917	0.082
Mof_H 	H 	0.9749	0.5857	0.4059	0.087
Mof_H 	H 	0.0516	0.5391	0.3318	0.035
Mof_H 	H 	0.2088	0.4574	0.3981	0.047
Mof_H 	H 	0.4744	0.398	0.159	0.038
Mof_H 	H 	0.3139	0.5596	0.105	0.046
Mof_H 	H 	0.5522	0.4478	0.0906	0.09
Mof_H 	H 	0.6176	0.5184	0.009	0.088
Mof_H 	H 	0.4674	0.7256	0.9184	0.042
Mof_H 	H 	0.6605	0.593	0.9331	0.029
Mof_H 	H 	0.5756	0.777	0.5952	0.056
Mof_H 	H 	0.667	0.9002	0.5697	0.045
Mof_H 	H 	0.6277	0.9722	0.4917	0.082
Mof_H 	H 	0.5857	0.0335	0.4059	0.087
Mof_H 	H 	0.5391	0.0775	0.3318	0.035
Mof_H 	H 	0.4574	0.9357	0.3981	0.047
Mof_H 	H 	0.398	0.9686	0.159	0.038
Mof_H 	H 	0.5596	0.0215	0.105	0.047
Mof_H 	H 	0.4478	0.9094	0.0906	0.089
Mof_H 	H 	0.5184	0.855	0.009	0.087
Mof_H 	H 	0.7256	0.8886	0.9184	0.042
Mof_H 	H 	0.593	0.8134	0.9331	0.03
Mof_H 	H 	0.777	0.0522	0.5952	0.056
Mof_H 	H 	0.9002	0.8631	0.5697	0.045
Mof_H 	H 	0.9722	0.9084	0.4917	0.082
Mof_H 	H 	0.0335	0.9749	0.4059	0.086
Mof_H 	H 	0.0775	0.0516	0.3318	0.035
Mof_H 	H 	0.9357	0.2088	0.3981	0.048
Mof_H 	H 	0.9686	0.4744	0.159	0.039
Mof_H 	H 	0.0215	0.3139	0.105	0.047
Mof_H 	H 	0.9094	0.5522	0.0906	0.089
Mof_H 	H 	0.855	0.6176	0.009	0.087
Mof_H 	H 	0.8886	0.4674	0.9184	0.042
Mof_H 	H 	0.8134	0.6605	0.9331	0.03
Mof_H 	H 	0.9478	0.4244	0.4048	0.056
Mof_H 	H 	0.1369	0.333	0.4303	0.045
Mof_H 	H 	0.0916	0.3723	0.5083	0.082
Mof_H 	H 	0.0251	0.4143	0.5941	0.087
Mof_H 	H 	0.9484	0.4609	0.6682	0.035
Mof_H 	H 	0.7912	0.5426	0.6019	0.047
Mof_H 	H 	0.5256	0.602	0.841	0.038
Mof_H 	H 	0.6861	0.4404	0.895	0.046
Mof_H 	H 	0.4478	0.5522	0.9094	0.09
Mof_H 	H 	0.3824	0.4816	0.991	0.088
Mof_H 	H 	0.5326	0.2744	0.0816	0.042
Mof_H 	H 	0.3395	0.407	0.0669	0.029
Mof_H 	H 	0.4244	0.223	0.4048	0.056
Mof_H 	H 	0.333	0.0998	0.4303	0.045
Mof_H 	H 	0.3723	0.0278	0.5083	0.082
Mof_H 	H 	0.4143	0.9665	0.5941	0.087
Mof_H 	H 	0.4609	0.9225	0.6682	0.035
Mof_H 	H 	0.5426	0.0643	0.6019	0.047
Mof_H 	H 	0.602	0.0314	0.841	0.038
Mof_H 	H 	0.4404	0.9785	0.895	0.047
Mof_H 	H 	0.5522	0.0906	0.9094	0.089
Mof_H 	H 	0.4816	0.145	0.991	0.087
Mof_H 	H 	0.2744	0.1114	0.0816	0.042
Mof_H 	H 	0.407	0.1866	0.0669	0.03
Mof_H 	H 	0.223	0.9478	0.4048	0.056
Mof_H 	H 	0.0998	0.1369	0.4303	0.045
Mof_H 	H 	0.0278	0.0916	0.5083	0.082
Mof_H 	H 	0.9665	0.0251	0.5941	0.086
Mof_H 	H 	0.9225	0.9484	0.6682	0.035
Mof_H 	H 	0.0643	0.7912	0.6019	0.048
Mof_H 	H 	0.0314	0.5256	0.841	0.039
Mof_H 	H 	0.9785	0.6861	0.895	0.047
Mof_H 	H 	0.0906	0.4478	0.9094	0.089
Mof_H 	H 	0.145	0.3824	0.991	0.087
Mof_H 	H 	0.1114	0.5326	0.0816	0.042
Mof_H 	H 	0.1866	0.3395	0.0669	0.03
Mof_C 	C 	0.9195	0.6566	0.6387	0.325
Mof_C 	C 	0.95208	0.62598	0.59076	-0.088
Mof_C 	C 	0.02312	0.58722	0.57444	0.027
Mof_C 	C 	0.91054	0.64114	0.55878	0.031
Mof_C 	C 	0.04938	0.56638	0.52566	-0.068
Mof_C 	C 	0.93772	0.61872	0.51144	-0.097
Mof_C 	C 	0.00698	0.58378	0.49356	0.043
Mof_C 	C 	0.04747	0.55487	0.44529	0.048
Mof_C 	C 	0.11773	0.51733	0.44121	-0.076
Mof_C 	C 	0.02204	0.56144	0.40398	-0.11
Mof_C 	C 	0.06763	0.53153	0.36081	0.059
Mof_C 	C 	0.16215	0.48395	0.39915	0.05
Mof_C 	C 	0.13666	0.49036	0.35982	-0.125
Mof_C 	C 	0.18259	0.45149	0.31683	0.395
Mof_C 	C 	0.34078	0.43618	0.18066	0.409
Mof_C 	C 	0.3873	0.4737	0.138	-0.119
Mof_C 	C 	0.45791	0.44071	0.13407	0.051
Mof_C 	C 	0.36115	0.53725	0.10245	0.052
Mof_C 	C 	0.50482	0.47022	0.09354	-0.105
Mof_C 	C 	0.40595	0.56715	0.06315	-0.078
Mof_C 	C 	0.47722	0.53512	0.05754	0.046
Mof_C 	C 	0.51688	0.57528	0.01026	0.052
Mof_C 	C 	0.47377	0.63697	0.98149	-0.077
Mof_C 	C 	0.58741	0.55971	0.99097	-0.117
Mof_C 	C 	0.49756	0.68416	0.93622	0.052
Mof_C 	C 	0.61288	0.60438	0.94576	0.065
Mof_C 	C 	0.56899	0.66619	0.91873	-0.134
Mof_C 	C 	0.59826	0.71486	0.86812	0.432
Mof_C 	C 	0.6566	0.7852	0.6387	0.325
Mof_C 	C 	0.62598	0.83118	0.59076	-0.089
Mof_C 	C 	0.58722	0.81522	0.57444	0.028
Mof_C 	C 	0.64114	0.88954	0.55878	0.032
Mof_C 	C 	0.56638	0.85858	0.52566	-0.068
Mof_C 	C 	0.61872	0.93212	0.51144	-0.098
Mof_C 	C 	0.58378	0.91568	0.49356	0.043
Mof_C 	C 	0.55487	0.95237	0.44529	0.047
Mof_C 	C 	0.51733	0.92373	0.44121	-0.076
Mof_C 	C 	0.56144	0.01254	0.40398	-0.11
Mof_C 	C 	0.53153	0.04003	0.36081	0.059
Mof_C 	C 	0.48395	0.95475	0.39915	0.05
Mof_C 	C 	0.49036	0.01316	0.35982	-0.125
Mof_C 	C 	0.45149	0.04909	0.31683	0.395
Mof_C 	C 	0.43618	0.04238	0.18066	0.409
Mof_C 	C 	0.4737	0.001	0.138	-0.117
Mof_C 	C 	0.44071	0.96731	0.13407	0.049
Mof_C 	C 	0.53725	0.99915	0.10245	0.05
Mof_C 	C 	0.47022	0.93142	0.09354	-0.104
Mof_C 	C 	0.56715	0.96375	0.06315	-0.077
Mof_C 	C 	0.53512	0.93012	0.05754	0.046
Mof_C 	C 	0.57528	0.89758	0.01026	0.05
Mof_C 	C 	0.63697	0.90777	0.98149	-0.075
Mof_C 	C 	0.55971	0.86191	0.99097	-0.114
Mof_C 	C 	0.68416	0.88206	0.93622	0.051
Mof_C 	C 	0.60438	0.83698	0.94576	0.064
Mof_C 	C 	0.66619	0.84609	0.91873	-0.133
Mof_C 	C 	0.71486	0.81876	0.86812	0.432
Mof_C 	C 	0.7852	0.9195	0.6387	0.325
Mof_C 	C 	0.83118	0.95208	0.59076	-0.088
Mof_C 	C 	0.81522	0.02312	0.57444	0.026
Mof_C 	C 	0.88954	0.91054	0.55878	0.031
Mof_C 	C 	0.85858	0.04938	0.52566	-0.068
Mof_C 	C 	0.93212	0.93772	0.51144	-0.097
Mof_C 	C 	0.91568	0.00698	0.49356	0.043
Mof_C 	C 	0.95237	0.04747	0.44529	0.046
Mof_C 	C 	0.92373	0.11773	0.44121	-0.075
Mof_C 	C 	0.01254	0.02204	0.40398	-0.107
Mof_C 	C 	0.04003	0.06763	0.36081	0.057
Mof_C 	C 	0.95475	0.16215	0.39915	0.048
Mof_C 	C 	0.01316	0.13666	0.35982	-0.123
Mof_C 	C 	0.04909	0.18259	0.31683	0.394
Mof_C 	C 	0.04238	0.34078	0.18066	0.408
Mof_C 	C 	0.001	0.3873	0.138	-0.116
Mof_C 	C 	0.96731	0.45791	0.13407	0.049
Mof_C 	C 	0.99915	0.36115	0.10245	0.048
Mof_C 	C 	0.93142	0.50482	0.09354	-0.104
Mof_C 	C 	0.96375	0.40595	0.06315	-0.077
Mof_C 	C 	0.93012	0.47722	0.05754	0.046
Mof_C 	C 	0.89758	0.51688	0.01026	0.051
Mof_C 	C 	0.90777	0.47377	0.98149	-0.076
Mof_C 	C 	0.86191	0.58741	0.99097	-0.114
Mof_C 	C 	0.88206	0.49756	0.93622	0.051
Mof_C 	C 	0.83698	0.61288	0.94576	0.064
Mof_C 	C 	0.84609	0.56899	0.91873	-0.133
Mof_C 	C 	0.81876	0.59826	0.86812	0.432
Mof_C 	C 	0.0805	0.3434	0.3613	0.325
Mof_C 	C 	0.04792	0.37402	0.40924	-0.088
Mof_C 	C 	0.97688	0.41278	0.42556	0.027
Mof_C 	C 	0.08946	0.35886	0.44122	0.031
Mof_C 	C 	0.95062	0.43362	0.47434	-0.068
Mof_C 	C 	0.06228	0.38128	0.48856	-0.097
Mof_C 	C 	0.99302	0.41622	0.50644	0.043
Mof_C 	C 	0.95253	0.44513	0.55471	0.048
Mof_C 	C 	0.88227	0.48267	0.55879	-0.076
Mof_C 	C 	0.97796	0.43856	0.59602	-0.11
Mof_C 	C 	0.93237	0.46847	0.63919	0.059
Mof_C 	C 	0.83785	0.51605	0.60085	0.05
Mof_C 	C 	0.86334	0.50964	0.64018	-0.125
Mof_C 	C 	0.81741	0.54851	0.68317	0.395
Mof_C 	C 	0.65922	0.56382	0.81934	0.409
Mof_C 	C 	0.6127	0.5263	0.862	-0.119
Mof_C 	C 	0.54209	0.55929	0.86593	0.051
Mof_C 	C 	0.63885	0.46275	0.89755	0.052
Mof_C 	C 	0.49518	0.52978	0.90646	-0.105
Mof_C 	C 	0.59405	0.43285	0.93685	-0.078
Mof_C 	C 	0.52278	0.46488	0.94246	0.046
Mof_C 	C 	0.48312	0.42472	0.98974	0.052
Mof_C 	C 	0.52623	0.36303	0.01851	-0.077
Mof_C 	C 	0.41259	0.44029	0.00903	-0.117
Mof_C 	C 	0.50244	0.31584	0.06378	0.052
Mof_C 	C 	0.38712	0.39562	0.05424	0.065
Mof_C 	C 	0.43101	0.33381	0.08127	-0.134
Mof_C 	C 	0.40174	0.28514	0.13188	0.432
Mof_C 	C 	0.3434	0.2148	0.3613	0.325
Mof_C 	C 	0.37402	0.16882	0.40924	-0.089
Mof_C 	C 	0.41278	0.18478	0.42556	0.028
Mof_C 	C 	0.35886	0.11046	0.44122	0.032
Mof_C 	C 	0.43362	0.14142	0.47434	-0.068
Mof_C 	C 	0.38128	0.06788	0.48856	-0.098
Mof_C 	C 	0.41622	0.08432	0.50644	0.043
Mof_C 	C 	0.44513	0.04763	0.55471	0.047
Mof_C 	C 	0.48267	0.07627	0.55879	-0.076
Mof_C 	C 	0.43856	0.98746	0.59602	-0.11
Mof_C 	C 	0.46847	0.95997	0.63919	0.059
Mof_C 	C 	0.51605	0.04525	0.60085	0.05
Mof_C 	C 	0.50964	0.98684	0.64018	-0.125
Mof_C 	C 	0.54851	0.95091	0.68317	0.395
Mof_C 	C 	0.56382	0.95762	0.81934	0.409
Mof_C 	C 	0.5263	0.999	0.862	-0.117
Mof_C 	C 	0.55929	0.03269	0.86593	0.049
Mof_C 	C 	0.46275	0.00085	0.89755	0.05
Mof_C 	C 	0.52978	0.06858	0.90646	-0.104
Mof_C 	C 	0.43285	0.03625	0.93685	-0.077
Mof_C 	C 	0.46488	0.06988	0.94246	0.046
Mof_C 	C 	0.42472	0.10242	0.98974	0.05
Mof_C 	C 	0.36303	0.09223	0.01851	-0.075
Mof_C 	C 	0.44029	0.13809	0.00903	-0.114
Mof_C 	C 	0.31584	0.11794	0.06378	0.051
Mof_C 	C 	0.39562	0.16302	0.05424	0.064
Mof_C 	C 	0.33381	0.15391	0.08127	-0.133
Mof_C 	C 	0.28514	0.18124	0.13188	0.432
Mof_C 	C 	0.2148	0.0805	0.3613	0.325
Mof_C 	C 	0.16882	0.04792	0.40924	-0.088
Mof_C 	C 	0.18478	0.97688	0.42556	0.026
Mof_C 	C 	0.11046	0.08946	0.44122	0.031
Mof_C 	C 	0.14142	0.95062	0.47434	-0.068
Mof_C 	C 	0.06788	0.06228	0.48856	-0.097
Mof_C 	C 	0.08432	0.99302	0.50644	0.043
Mof_C 	C 	0.04763	0.95253	0.55471	0.046
Mof_C 	C 	0.07627	0.88227	0.55879	-0.075
Mof_C 	C 	0.98746	0.97796	0.59602	-0.107
Mof_C 	C 	0.95997	0.93237	0.63919	0.057
Mof_C 	C 	0.04525	0.83785	0.60085	0.048
Mof_C 	C 	0.98684	0.86334	0.64018	-0.123
Mof_C 	C 	0.95091	0.81741	0.68317	0.394
Mof_C 	C 	0.95762	0.65922	0.81934	0.408
Mof_C 	C 	0.999	0.6127	0.862	-0.116
Mof_C 	C 	0.03269	0.54209	0.86593	0.049
Mof_C 	C 	0.00085	0.63885	0.89755	0.048
Mof_C 	C 	0.06858	0.49518	0.90646	-0.104
Mof_C 	C 	0.03625	0.59405	0.93685	-0.077
Mof_C 	C 	0.06988	0.52278	0.94246	0.046
Mof_C 	C 	0.10242	0.48312	0.98974	0.051
Mof_C 	C 	0.09223	0.52623	0.01851	-0.076
Mof_C 	C 	0.13809	0.41259	0.00903	-0.114
Mof_C 	C 	0.11794	0.50244	0.06378	0.051
Mof_C 	C 	0.16302	0.38712	0.05424	0.064
Mof_C 	C 	0.15391	0.43101	0.08127	-0.133
Mof_C 	C 	0.18124	0.40174	0.13188	0.432
Mof_S 	S 	0.13551	0.51446	0.49884	0.329
Mof_S 	S 	0.38514	0.64716	0.012	0.335
Mof_S 	S 	0.51446	0.85119	0.49884	0.329
Mof_S 	S 	0.64716	0.9557	0.012	0.334
Mof_S 	S 	0.85119	0.13551	0.49884	0.328
Mof_S 	S 	0.9557	0.38514	0.012	0.334
Mof_S 	S 	0.86449	0.48554	0.50116	0.329
Mof_S 	S 	0.61486	0.35284	0.988	0.335
Mof_S 	S 	0.48554	0.14881	0.50116	0.329
Mof_S 	S 	0.35284	0.0443	0.988	0.334
Mof_S 	S 	0.14881	0.86449	0.50116	0.328
Mof_S 	S 	0.0443	0.61486	0.988	0.334
Mof_O 	O 	0.24178	0.40668	0.32106	-0.448
Mof_O 	O 	0.15645	0.46655	0.27795	-0.476
Mof_O 	O 	0.9589	0.6407	0.6678	-0.45
Mof_O 	O 	0.85705	0.69615	0.64875	-0.292
Mof_O 	O 	0.17907	0.55057	0.48099	-0.197
Mof_O 	O 	0.15465	0.44535	0.53595	-0.209
Mof_O 	O 	0.66159	0.69269	0.84793	-0.506
Mof_O 	O 	0.55463	0.77453	0.85201	-0.52
Mof_O 	O 	0.36565	0.38205	0.21615	-0.49
Mof_O 	O 	0.28019	0.46319	0.17643	-0.477
Mof_O 	O 	0.3601	0.644	0.9736	-0.214
Mof_O 	O 	0.3443	0.7031	0.0369	-0.204
Mof_O 	O 	0.75596	0.67236	0.74692	-0.659
Mof_O 	O 	0.40668	0.03048	0.32106	-0.448
Mof_O 	O 	0.46655	0.09905	0.27795	-0.476
Mof_O 	O 	0.6407	0.7326	0.6678	-0.45
Mof_O 	O 	0.69615	0.79805	0.64875	-0.292
Mof_O 	O 	0.55057	0.78937	0.48099	-0.197
Mof_O 	O 	0.44535	0.86405	0.53595	-0.209
Mof_O 	O 	0.69269	0.79779	0.84793	-0.506
Mof_O 	O 	0.77453	0.81883	0.85201	-0.52
Mof_O 	O 	0.38205	0.03615	0.21615	-0.49
Mof_O 	O 	0.46319	0.08019	0.17643	-0.477
Mof_O 	O 	0.644	0.0223	0.9736	-0.214
Mof_O 	O 	0.7031	0.9157	0.0369	-0.204
Mof_O 	O 	0.67236	0.82476	0.74692	-0.659
Mof_O 	O 	0.03048	0.24178	0.32106	-0.448
Mof_O 	O 	0.09905	0.15645	0.27795	-0.476
Mof_O 	O 	0.7326	0.9589	0.6678	-0.45
Mof_O 	O 	0.79805	0.85705	0.64875	-0.292
Mof_O 	O 	0.78937	0.17907	0.48099	-0.197
Mof_O 	O 	0.86405	0.15465	0.53595	-0.209
Mof_O 	O 	0.79779	0.66159	0.84793	-0.506
Mof_O 	O 	0.81883	0.55463	0.85201	-0.52
Mof_O 	O 	0.03615	0.36565	0.21615	-0.49
Mof_O 	O 	0.08019	0.28019	0.17643	-0.477
Mof_O 	O 	0.0223	0.3601	0.9736	-0.214
Mof_O 	O 	0.9157	0.3443	0.0369	-0.204
Mof_O 	O 	0.82476	0.75596	0.74692	-0.659
Mof_O 	O 	0.75822	0.59332	0.67894	-0.448
Mof_O 	O 	0.84355	0.53345	0.72205	-0.476
Mof_O 	O 	0.0411	0.3593	0.3322	-0.45
Mof_O 	O 	0.14295	0.30385	0.35125	-0.292
Mof_O 	O 	0.82093	0.44943	0.51901	-0.197
Mof_O 	O 	0.84535	0.55465	0.46405	-0.209
Mof_O 	O 	0.33841	0.30731	0.15207	-0.506
Mof_O 	O 	0.44537	0.22547	0.14799	-0.52
Mof_O 	O 	0.63435	0.61795	0.78385	-0.49
Mof_O 	O 	0.71981	0.53681	0.82357	-0.477
Mof_O 	O 	0.6399	0.356	0.0264	-0.214
Mof_O 	O 	0.6557	0.2969	0.9631	-0.204
Mof_O 	O 	0.24404	0.32764	0.25308	-0.659
Mof_O 	O 	0.59332	0.96952	0.67894	-0.448
Mof_O 	O 	0.53345	0.90095	0.72205	-0.476
Mof_O 	O 	0.3593	0.2674	0.3322	-0.45
Mof_O 	O 	0.30385	0.20195	0.35125	-0.292
Mof_O 	O 	0.44943	0.21063	0.51901	-0.197
Mof_O 	O 	0.55465	0.13595	0.46405	-0.209
Mof_O 	O 	0.30731	0.20221	0.15207	-0.506
Mof_O 	O 	0.22547	0.18117	0.14799	-0.52
Mof_O 	O 	0.61795	0.96385	0.78385	-0.49
Mof_O 	O 	0.53681	0.91981	0.82357	-0.477
Mof_O 	O 	0.356	0.9777	0.0264	-0.214
Mof_O 	O 	0.2969	0.0843	0.9631	-0.204
Mof_O 	O 	0.32764	0.17524	0.25308	-0.659
Mof_O 	O 	0.96952	0.75822	0.67894	-0.448
Mof_O 	O 	0.90095	0.84355	0.72205	-0.476
Mof_O 	O 	0.2674	0.0411	0.3322	-0.45
Mof_O 	O 	0.20195	0.14295	0.35125	-0.292
Mof_O 	O 	0.21063	0.82093	0.51901	-0.197
Mof_O 	O 	0.13595	0.84535	0.46405	-0.209
Mof_O 	O 	0.20221	0.33841	0.15207	-0.506
Mof_O 	O 	0.18117	0.44537	0.14799	-0.52
Mof_O 	O 	0.96385	0.63435	0.78385	-0.49
Mof_O 	O 	0.91981	0.71981	0.82357	-0.477
Mof_O 	O 	0.9777	0.6399	0.0264	-0.214
Mof_O 	O 	0.0843	0.6557	0.9631	-0.204
Mof_O 	O 	0.17524	0.24404	0.25308	-0.659
_end
