data_functionalizedCrystal
_audit_creation_method	'EQeq! by Chris Wilmer'
_symmetry_space_group_name_H-M	'P1'
_symmetry_Int_Tables_number	1
_symmetry_cell_setting	triclinic
loop_
_symmetry_equiv_pos_as_xyz
  x,y,z
_cell_length_a	9.6547
_cell_length_b	11.3195
_cell_length_c	11.9856
_cell_angle_alpha	114.773
_cell_angle_beta	91.448
_cell_angle_gamma	106.416
loop_
_atom_site_label
_atom_site_type_symbol
_atom_site_fract_x
_atom_site_fract_y
_atom_site_fract_z
_atom_site_charge
Mof_O 	O 	0.1026	0.9087	0.0621	-0.6
Mof_C 	C 	0.9857	0.8973	0.1078	0.535
Mof_C 	C 	0.3259	0.6534	0.0262	-0.094
Mof_C 	C 	0.9837	0.8628	0.2169	-0.156
Mof_C 	C 	0.1758	0.624	0.9981	-0.041
Mof_H 	H 	0.1396	0.675	0.9682	0.047
Mof_C 	C 	0.1089	0.8599	0.2716	0.013
Mof_H 	H 	0.196	0.8784	0.2411	0.026
Mof_C 	C 	0.433	0.7635	0.0061	0.462
Mof_C 	C 	0.0807	0.5181	0.0152	0.057
Mof_C 	C 	0.3874	0.8582	0.6134	-0.126
Mof_C 	C 	0.2567	0.8547	0.5588	-0.023
Mof_H 	H 	0.182	0.8694	0.605	0.05
Mof_C 	C 	0.2717	0.4737	0.0885	0.044
Mof_H 	H 	0.3052	0.4228	0.1203	0.007
Mof_C 	C 	0.3743	0.5759	0.0722	-0.037
Mof_H 	H 	0.4739	0.5923	0.0917	0.055
Mof_C 	C 	0.1047	0.8294	0.3723	0.039
Mof_C 	C 	0.2391	0.8288	0.4344	0.047
Mof_C 	C 	0.415	0.8947	0.7497	0.503
Mof_C 	C 	0.4935	0.8327	0.5406	-0.004
Mof_H 	H 	0.581	0.8313	0.5734	0.025
Mof_C 	C 	0.8563	0.8331	0.2636	0.012
Mof_H 	H 	0.7695	0.8339	0.229	0.035
Mof_C 	C 	0.4679	0.8094	0.4186	0.007
Mof_H 	H 	0.5409	0.7933	0.3707	0.03
Mof_C 	C 	0.8611	0.8019	0.3633	0
Mof_H 	H 	0.7744	0.7805	0.3935	0.029
Mof_Eu	Eu	0.69158	0.9554	0.97139	2.341
Mof_N 	N 	0.9818	0.8005	0.4192	-0.118
Mof_N 	N 	0.3443	0.8084	0.3645	-0.114
Mof_N 	N 	0.1279	0.4437	0.0614	-0.128
Mof_O 	O 	0.3968	0.8595	0.0007	-0.619
Mof_O 	O 	0.3201	0.9313	0.8137	-0.563
Mof_O 	O 	0.5599	0.7571	0.9944	-0.552
Mof_O 	O 	0.874	0.9127	0.071	-0.578
Mof_O 	O 	0.5327	0.8865	0.7891	-0.609
Mof_O 	O 	0.8974	0.0913	0.9379	-0.601
Mof_C 	C 	0.0143	0.1027	0.8922	0.534
Mof_C 	C 	0.6741	0.3466	0.9738	-0.095
Mof_C 	C 	0.0163	0.1372	0.7831	-0.157
Mof_C 	C 	0.8242	0.376	0.0019	-0.041
Mof_H 	H 	0.8604	0.325	0.0318	0.047
Mof_C 	C 	0.8911	0.1401	0.7284	0.013
Mof_H 	H 	0.804	0.1216	0.7589	0.026
Mof_C 	C 	0.567	0.2365	0.9939	0.462
Mof_C 	C 	0.9193	0.4819	0.9848	0.057
Mof_C 	C 	0.6126	0.1418	0.3866	-0.126
Mof_C 	C 	0.7433	0.1453	0.4412	-0.023
Mof_H 	H 	0.818	0.1306	0.395	0.05
Mof_C 	C 	0.7283	0.5263	0.9115	0.044
Mof_H 	H 	0.6948	0.5772	0.8797	0.007
Mof_C 	C 	0.6257	0.4241	0.9278	-0.037
Mof_H 	H 	0.5261	0.4077	0.9083	0.055
Mof_C 	C 	0.8953	0.1706	0.6277	0.039
Mof_C 	C 	0.7609	0.1712	0.5656	0.047
Mof_C 	C 	0.585	0.1053	0.2503	0.503
Mof_C 	C 	0.5065	0.1673	0.4594	-0.004
Mof_H 	H 	0.419	0.1687	0.4266	0.025
Mof_C 	C 	0.1437	0.1669	0.7364	0.012
Mof_H 	H 	0.2305	0.1661	0.771	0.035
Mof_C 	C 	0.5321	0.1906	0.5814	0.007
Mof_H 	H 	0.4591	0.2067	0.6293	0.03
Mof_C 	C 	0.1389	0.1981	0.6367	0
Mof_H 	H 	0.2256	0.2195	0.6065	0.029
Mof_Eu	Eu	0.30842	0.0446	0.02861	2.341
Mof_N 	N 	0.0182	0.1995	0.5808	-0.118
Mof_N 	N 	0.6557	0.1916	0.6355	-0.114
Mof_N 	N 	0.8721	0.5563	0.9386	-0.128
Mof_O 	O 	0.6032	0.1405	0.9993	-0.619
Mof_O 	O 	0.6799	0.0687	0.1863	-0.563
Mof_O 	O 	0.4401	0.2429	0.0056	-0.552
Mof_O 	O 	0.126	0.0873	0.929	-0.578
Mof_O 	O 	0.4673	0.1135	0.2109	-0.609
_end
