data_functionalizedCrystal
_audit_creation_method	'EQeq! by Chris Wilmer'
_symmetry_space_group_name_H-M	'P1'
_symmetry_Int_Tables_number	1
_symmetry_cell_setting	triclinic
loop_
_symmetry_equiv_pos_as_xyz
  x,y,z
_cell_length_a	16.614
_cell_length_b	16.64
_cell_length_c	22.194
_cell_angle_alpha	90
_cell_angle_beta	90
_cell_angle_gamma	90
loop_
_atom_site_label
_atom_site_type_symbol
_atom_site_fract_x
_atom_site_fract_y
_atom_site_fract_z
_atom_site_charge
Mof_O 	O 	0.9179	0.4155	0.5474	-0.476
Mof_C 	C 	0.7999	0.299	0.5551	0.134
Mof_H 	H 	0.8176	0.3208	0.5924	0.012
Mof_C 	C 	0.7449	0.2376	0.5549	-0.186
Mof_H 	H 	0.7291	0.2127	0.5916	0.116
Mof_N 	N 	0.9351	0.4504	0.9232	-0.226
Mof_C 	C 	0.9434	0.5388	0.6911	0.066
Mof_H 	H 	0.9007	0.564	0.6697	0.024
Mof_C 	C 	0.937	0.5478	0.7529	-0.074
Mof_H 	H 	0.8986	0.5793	0.774	0.054
Mof_C 	C 	0.9443	0.4469	0.8678	0.306
Mof_C 	C 	0.889	0.3858	0.8445	-0.161
Mof_H 	H 	0.875	0.3786	0.8034	0.097
Mof_C 	C 	0.8605	0.3404	0.8918	0.037
Mof_H 	H 	0.8416	0.2865	0.8908	0.069
Mof_C 	C 	0.8659	0.3937	0.94415	0.033
Mof_O 	O 	0.0821	0.5845	0.5474	-0.518
Mof_C 	C 	0.2001	0.701	0.5551	0.138
Mof_H 	H 	0.1824	0.6792	0.5924	0.002
Mof_C 	C 	0.2551	0.7624	0.5549	-0.197
Mof_H 	H 	0.2709	0.7873	0.5916	0.112
Mof_N 	N 	0.0649	0.5496	0.9232	-0.241
Mof_C 	C 	0.0566	0.4612	0.6911	0.021
Mof_H 	H 	0.0993	0.436	0.6697	0.027
Mof_C 	C 	0.063	0.4522	0.7529	-0.116
Mof_H 	H 	0.1014	0.4207	0.774	0.063
Mof_C 	C 	0.0557	0.5531	0.8678	0.244
Mof_C 	C 	0.111	0.6142	0.8445	-0.149
Mof_H 	H 	0.125	0.6214	0.8034	0.08
Mof_C 	C 	0.1395	0.6596	0.8918	0.015
Mof_H 	H 	0.1584	0.7135	0.8908	0.064
Mof_C 	C 	0.1341	0.6063	0.94415	0.036
Mof_O 	O 	0.0821	0.4155	0.4526	-0.517
Mof_C 	C 	0.2001	0.299	0.4449	0.139
Mof_H 	H 	0.1824	0.3208	0.4076	0.003
Mof_C 	C 	0.2551	0.2376	0.4451	-0.195
Mof_H 	H 	0.2709	0.2127	0.4084	0.114
Mof_N 	N 	0.0649	0.4504	0.0768	-0.238
Mof_C 	C 	0.0566	0.5388	0.3089	0.02
Mof_H 	H 	0.0993	0.564	0.3303	0.027
Mof_C 	C 	0.063	0.5478	0.2471	-0.115
Mof_H 	H 	0.1014	0.5793	0.226	0.063
Mof_C 	C 	0.0557	0.4469	0.1322	0.243
Mof_C 	C 	0.111	0.3858	0.1555	-0.145
Mof_H 	H 	0.125	0.3786	0.1966	0.08
Mof_C 	C 	0.1395	0.3404	0.1082	0.011
Mof_H 	H 	0.1584	0.2865	0.1092	0.072
Mof_C 	C 	0.1341	0.3937	0.05585	0.053
Mof_O 	O 	0.9179	0.5845	0.4526	-0.475
Mof_C 	C 	0.7999	0.701	0.4449	0.135
Mof_H 	H 	0.8176	0.6792	0.4076	0.013
Mof_C 	C 	0.7449	0.7624	0.4451	-0.187
Mof_H 	H 	0.7291	0.7873	0.4084	0.116
Mof_N 	N 	0.9351	0.5496	0.0768	-0.223
Mof_C 	C 	0.9434	0.4612	0.3089	0.066
Mof_H 	H 	0.9007	0.436	0.3303	0.025
Mof_C 	C 	0.937	0.4522	0.2471	-0.071
Mof_H 	H 	0.8986	0.4207	0.226	0.054
Mof_C 	C 	0.9443	0.5531	0.1322	0.307
Mof_C 	C 	0.889	0.6142	0.1555	-0.157
Mof_H 	H 	0.875	0.6214	0.1966	0.097
Mof_C 	C 	0.8605	0.6596	0.1082	0.032
Mof_H 	H 	0.8416	0.7135	0.1092	0.075
Mof_C 	C 	0.8659	0.6063	0.05585	0.052
Mof_O 	O 	0.0821	0.5845	0.4526	-0.518
Mof_C 	C 	0.2001	0.701	0.4449	0.139
Mof_H 	H 	0.1824	0.6792	0.4076	0.003
Mof_C 	C 	0.2551	0.7624	0.4451	-0.197
Mof_H 	H 	0.2709	0.7873	0.4084	0.113
Mof_N 	N 	0.0649	0.5496	0.0768	-0.238
Mof_C 	C 	0.0566	0.4612	0.3089	0.02
Mof_H 	H 	0.0993	0.436	0.3303	0.028
Mof_C 	C 	0.063	0.4522	0.2471	-0.115
Mof_H 	H 	0.1014	0.4207	0.226	0.064
Mof_C 	C 	0.0557	0.5531	0.1322	0.243
Mof_C 	C 	0.111	0.6142	0.1555	-0.145
Mof_H 	H 	0.125	0.6214	0.1966	0.08
Mof_C 	C 	0.1395	0.6596	0.1082	0.011
Mof_H 	H 	0.1584	0.7135	0.1092	0.071
Mof_C 	C 	0.1341	0.6063	0.05585	0.053
Mof_O 	O 	0.9179	0.4155	0.4526	-0.474
Mof_C 	C 	0.7999	0.299	0.4449	0.135
Mof_H 	H 	0.8176	0.3208	0.4076	0.014
Mof_C 	C 	0.7449	0.2376	0.4451	-0.186
Mof_H 	H 	0.7291	0.2127	0.4084	0.117
Mof_N 	N 	0.9351	0.4504	0.0768	-0.223
Mof_C 	C 	0.9434	0.5388	0.3089	0.066
Mof_H 	H 	0.9007	0.564	0.3303	0.025
Mof_C 	C 	0.937	0.5478	0.2471	-0.071
Mof_H 	H 	0.8986	0.5793	0.226	0.054
Mof_C 	C 	0.9443	0.4469	0.1322	0.307
Mof_C 	C 	0.889	0.3858	0.1555	-0.157
Mof_H 	H 	0.875	0.3786	0.1966	0.097
Mof_C 	C 	0.8605	0.3404	0.1082	0.033
Mof_H 	H 	0.8416	0.2865	0.1092	0.076
Mof_C 	C 	0.8659	0.3937	0.05585	0.052
Mof_O 	O 	0.9179	0.5845	0.5474	-0.475
Mof_C 	C 	0.7999	0.701	0.5551	0.135
Mof_H 	H 	0.8176	0.6792	0.5924	0.013
Mof_C 	C 	0.7449	0.7624	0.5549	-0.187
Mof_H 	H 	0.7291	0.7873	0.5916	0.115
Mof_N 	N 	0.9351	0.5496	0.9232	-0.226
Mof_C 	C 	0.9434	0.4612	0.6911	0.066
Mof_H 	H 	0.9007	0.436	0.6697	0.024
Mof_C 	C 	0.937	0.4522	0.7529	-0.073
Mof_H 	H 	0.8986	0.4207	0.774	0.054
Mof_C 	C 	0.9443	0.5531	0.8678	0.306
Mof_C 	C 	0.889	0.6142	0.8445	-0.161
Mof_H 	H 	0.875	0.6214	0.8034	0.097
Mof_C 	C 	0.8605	0.6596	0.8918	0.036
Mof_H 	H 	0.8416	0.7135	0.8908	0.068
Mof_C 	C 	0.8659	0.6063	0.94415	0.033
Mof_O 	O 	0.0821	0.4155	0.5474	-0.518
Mof_C 	C 	0.2001	0.299	0.5551	0.138
Mof_H 	H 	0.1824	0.3208	0.5924	0.003
Mof_C 	C 	0.2551	0.2376	0.5549	-0.195
Mof_H 	H 	0.2709	0.2127	0.5916	0.113
Mof_N 	N 	0.0649	0.4504	0.9232	-0.24
Mof_C 	C 	0.0566	0.5388	0.6911	0.021
Mof_H 	H 	0.0993	0.564	0.6697	0.027
Mof_C 	C 	0.063	0.5478	0.7529	-0.116
Mof_H 	H 	0.1014	0.5793	0.774	0.063
Mof_C 	C 	0.0557	0.4469	0.8678	0.244
Mof_C 	C 	0.111	0.3858	0.8445	-0.149
Mof_H 	H 	0.125	0.3786	0.8034	0.08
Mof_C 	C 	0.1395	0.3404	0.8918	0.015
Mof_H 	H 	0.1584	0.2865	0.8908	0.065
Mof_C 	C 	0.1341	0.3937	0.94415	0.036
Mof_Zn	Zn	2.8281e-33	0.5	0.56464	1.217
Mof_N 	N 	3.26866e-33	0.5	0.6526	-0.29
Mof_C 	C 	-2.07851e-32	0.5	0.7787	0.158
Mof_C 	C 	-1.2211e-32	0.5	0.8477	-0.506
Mof_Zn	Zn	-1.93364e-33	0.5	0.43536	1.217
Mof_N 	N 	1.74001e-33	0.5	0.3474	-0.291
Mof_C 	C 	-9.48689e-34	0.5	0.2213	0.155
Mof_C 	C 	-3.3514e-33	0.5	0.1523	-0.507
Mof_Fe	Fe	0.5	0	0.5	0.811
Mof_F 	F 	0.7025	0.4058	-0	-0.325
Mof_F 	F 	0.5669	0.2882	-0	-0.309
Mof_F 	F 	0.7594	0.0723	-0	-0.31
Mof_F 	F 	0.8892	0.1837	-0	-0.317
Mof_C 	C 	0.857	0.353	-0	0.06
Mof_C 	C 	0.785	0.29	-0	-0.065
Mof_C 	C 	0.705	0.3147	-0	0.195
Mof_C 	C 	0.644	0.258	-0	0.242
Mof_C 	C 	0.663	0.176	-0	-0.011
Mof_C 	C 	0.743	0.152	-0	0.259
Mof_C 	C 	0.804	0.209	-0	0.19
Mof_F 	F 	0.2975	0.5942	-0	-0.324
Mof_F 	F 	0.4331	0.7118	-0	-0.31
Mof_F 	F 	0.2406	0.9277	-0	-0.326
Mof_F 	F 	0.1108	0.8163	-0	-0.35
Mof_C 	C 	0.143	0.647	-0	0.037
Mof_C 	C 	0.215	0.71	-0	-0.061
Mof_C 	C 	0.295	0.6853	-0	0.192
Mof_C 	C 	0.356	0.742	-0	0.242
Mof_C 	C 	0.337	0.824	-0	-0.017
Mof_C 	C 	0.257	0.848	-0	0.255
Mof_C 	C 	0.196	0.791	-0	0.18
Mof_F 	F 	0.2975	0.4058	-0	-0.324
Mof_F 	F 	0.4331	0.2882	-0	-0.309
Mof_F 	F 	0.2406	0.0723	-0	-0.321
Mof_F 	F 	0.1108	0.1837	-0	-0.348
Mof_C 	C 	0.143	0.353	-0	0.038
Mof_C 	C 	0.215	0.29	-0	-0.061
Mof_C 	C 	0.295	0.3147	-0	0.193
Mof_C 	C 	0.356	0.258	-0	0.242
Mof_C 	C 	0.337	0.176	-0	-0.013
Mof_C 	C 	0.257	0.152	-0	0.256
Mof_C 	C 	0.196	0.209	-0	0.181
Mof_F 	F 	0.7025	0.5942	-0	-0.325
Mof_F 	F 	0.5669	0.7118	-0	-0.31
Mof_F 	F 	0.7594	0.9277	-0	-0.315
Mof_F 	F 	0.8892	0.8163	-0	-0.319
Mof_C 	C 	0.857	0.647	-0	0.06
Mof_C 	C 	0.785	0.71	-0	-0.065
Mof_C 	C 	0.705	0.6853	-0	0.194
Mof_C 	C 	0.644	0.742	-0	0.242
Mof_C 	C 	0.663	0.824	-0	-0.014
Mof_C 	C 	0.743	0.848	-0	0.258
Mof_C 	C 	0.804	0.791	-0	0.188
Mof_Cl	Cl	0.5	0	0.3847	-0.326
Mof_Cl	Cl	0.5	0	0.6153	-0.329
Mof_N 	N 	0.5	0.1198	0.5	-0.206
Mof_N 	N 	0.5	0.8802	0.5	-0.209
Mof_N 	N 	0.6224	0	0.5	-0.197
Mof_N 	N 	0.3776	0	0.5	-0.197
Mof_C 	C 	0.8897	0.3907	0.5	0.515
Mof_C 	C 	0.8309	0.3307	0.5	-0.221
Mof_C 	C 	0.7124	0.2122	0.5	0.14
Mof_C 	C 	0.6426	0.1453	0.5	-0.12
Mof_C 	C 	0.6751	0.0627	0.5	0.135
Mof_C 	C 	0.749	0.0383	0.5	-0.064
Mof_H 	H 	0.7954	0.0718	0.5	0.077
Mof_C 	C 	0.5659	0.1684	0.5	0.139
Mof_C 	C 	0.5441	0.2554	0.5	-0.074
Mof_H 	H 	0.5793	0.3004	0.5	0.072
Mof_C 	C 	0.1103	0.6093	0.5	0.529
Mof_C 	C 	0.1691	0.6693	0.5	-0.243
Mof_C 	C 	0.2876	0.7878	0.5	0.144
Mof_C 	C 	0.3574	0.8547	0.5	-0.128
Mof_C 	C 	0.3249	0.9373	0.5	0.141
Mof_C 	C 	0.251	0.9617	0.5	-0.112
Mof_H 	H 	0.2046	0.9282	0.5	0.075
Mof_C 	C 	0.4341	0.8316	0.5	0.14
Mof_C 	C 	0.4559	0.7446	0.5	-0.076
Mof_H 	H 	0.4207	0.6996	0.5	0.073
Mof_C 	C 	0.1103	0.3907	0.5	0.529
Mof_C 	C 	0.1691	0.3307	0.5	-0.242
Mof_C 	C 	0.2876	0.2122	0.5	0.142
Mof_C 	C 	0.3574	0.1453	0.5	-0.122
Mof_C 	C 	0.3249	0.0627	0.5	0.132
Mof_C 	C 	0.251	0.0383	0.5	-0.067
Mof_H 	H 	0.2046	0.0718	0.5	0.063
Mof_C 	C 	0.4341	0.1684	0.5	0.14
Mof_C 	C 	0.4559	0.2554	0.5	-0.075
Mof_H 	H 	0.4207	0.3004	0.5	0.073
Mof_C 	C 	0.8897	0.6093	0.5	0.515
Mof_C 	C 	0.8309	0.6693	0.5	-0.222
Mof_C 	C 	0.7124	0.7878	0.5	0.141
Mof_C 	C 	0.6426	0.8547	0.5	-0.126
Mof_C 	C 	0.6751	0.9373	0.5	0.144
Mof_C 	C 	0.749	0.9617	0.5	-0.109
Mof_H 	H 	0.7954	0.9282	0.5	0.089
Mof_C 	C 	0.5659	0.8316	0.5	0.14
Mof_C 	C 	0.5441	0.7446	0.5	-0.075
Mof_H 	H 	0.5793	0.6996	0.5	0.072
Mof_Zn	Zn	-0	0.5	-0	1.192
_end
