data_functionalizedCrystal
_audit_creation_method	'EQeq! by Chris Wilmer'
_symmetry_space_group_name_H-M	'P1'
_symmetry_Int_Tables_number	1
_symmetry_cell_setting	triclinic
loop_
_symmetry_equiv_pos_as_xyz
  x,y,z
_cell_length_a	16.1311
_cell_length_b	16.1311
_cell_length_c	18.954
_cell_angle_alpha	66.731
_cell_angle_beta	66.731
_cell_angle_gamma	68.447
loop_
_atom_site_label
_atom_site_type_symbol
_atom_site_fract_x
_atom_site_fract_y
_atom_site_fract_z
_atom_site_charge
Mof_Co	Co	0.12249	0.87055	0.22218	1.095
Mof_Co	Co	0.12945	0.87751	0.77782	1.095
Mof_Cu	Cu	0.15982	0.4464	0.9752	0.915
Mof_Cu	Cu	0.69733	0.91821	0.45014	0.915
Mof_Cu	Cu	0.5536	0.84018	0.0248	0.916
Mof_Cu	Cu	0.14194	0.45378	0.46088	0.92
Mof_Cu	Cu	0.54622	0.85806	0.53912	0.92
Mof_Cu	Cu	0.69735	0.91451	0.96621	0.919
Mof_Cu	Cu	0.08179	0.30267	0.54986	0.916
Mof_Cu	Cu	0.08549	0.30265	0.03379	0.919
Mof_B 	B 	0.283	0.7726	0.3113	1.415
Mof_B 	B 	0.2274	0.717	0.6887	1.415
Mof_B 	B 	0.9554	0.9656	0.1434	1.441
Mof_B 	B 	0.0344	0.0446	0.8566	1.441
Mof_H 	H 	0.8368	0.0468	0.9476	-0.029
Mof_H 	H 	0.9258	0.578	0.9792	0.238
Mof_H 	H 	0.5415	0.2671	0.4353	0.251
Mof_H 	H 	0.2772	0.1422	0.8933	0.083
Mof_H 	H 	0.2871	0.8127	0.8796	-0.007
Mof_H 	H 	0.638	0.6056	0.2069	0.123
Mof_H 	H 	0.3782	0.077	0.6357	0.095
Mof_H 	H 	0.2719	0.5907	0.415	-0.045
Mof_H 	H 	0.422	0.0742	0.0208	0.238
Mof_H 	H 	0.7271	0.4911	0.1493	0.22
Mof_H 	H 	0.3423	0.9321	0.6683	-0.029
Mof_H 	H 	0.7957	0.7097	0.3378	-0.009
Mof_H 	H 	0.1392	0.0334	0.9568	-0.043
Mof_H 	H 	0.6828	0.6084	0.4594	0.143
Mof_H 	H 	0.7253	0.5473	0.2413	0.106
Mof_H 	H 	0.4381	0.0889	0.6804	0.094
Mof_H 	H 	0.9016	0.392	0.7451	0.056
Mof_H 	H 	0.5089	0.2729	0.8507	0.22
Mof_H 	H 	0.4256	0.1324	0.4311	0.262
Mof_H 	H 	0.3751	0.2347	0.661	-0.031
Mof_H 	H 	0.923	0.6218	0.3643	0.095
Mof_H 	H 	0.8334	0.3842	0.4846	0.113
Mof_H 	H 	0.4007	0.0271	0.8732	0.031
Mof_H 	H 	0.6158	0.1666	0.5154	0.113
Mof_H 	H 	0.8578	0.7228	0.1067	0.083
Mof_H 	H 	0.7177	0.5549	0.062	0.233
Mof_H 	H 	0.4527	0.2747	0.7587	0.106
Mof_H 	H 	0.1414	0.0588	0.5981	-0.021
Mof_H 	H 	0.5291	0.1407	0.8122	0.123
Mof_H 	H 	0.1194	0.7486	0.5802	-0.024
Mof_H 	H 	0.6645	0.5565	0.5759	0.262
Mof_H 	H 	0.9772	0.9528	0.669	-0.021
Mof_H 	H 	0.9729	0.5993	0.1268	0.031
Mof_H 	H 	0.4093	0.7281	0.585	-0.045
Mof_H 	H 	0.608	0.0984	0.2549	0.056
Mof_H 	H 	0.5827	0.1141	0.6093	0.12
Mof_H 	H 	0.9145	0.5597	0.2186	0.008
Mof_H 	H 	0.9111	0.5619	0.3196	0.094
Mof_H 	H 	0.9095	0.8321	0.875	-0.025
Mof_H 	H 	0.328	0.2008	0.463	0.277
Mof_H 	H 	0.3658	0.1042	0.5235	0.275
Mof_H 	H 	0.3916	0.3172	0.5406	0.143
Mof_H 	H 	0.466	0.754	0.1949	-0.023
Mof_H 	H 	0.8593	0.4709	0.1878	0.123
Mof_H 	H 	0.9881	0.5409	0.6835	0.093
Mof_H 	H 	0.0472	0.0228	0.331	-0.021
Mof_H 	H 	0.7653	0.6249	0.339	-0.031
Mof_H 	H 	0.3256	0.1072	0.0001	0.238
Mof_H 	H 	0.8676	0.5744	0.5689	0.262
Mof_H 	H 	0.4451	0.2823	0.938	0.233
Mof_H 	H 	0.9532	0.1632	0.0524	-0.029
Mof_H 	H 	0.3119	0.8813	0.0495	-0.013
Mof_H 	H 	0.1187	0.6881	0.9505	-0.013
Mof_H 	H 	0.0679	0.6577	0.3317	-0.029
Mof_H 	H 	0.3329	0.7447	0.3387	-0.506
Mof_H 	H 	0.8029	0.4645	0.0711	0.232
Mof_H 	H 	0.6732	0.6508	0.248	0.122
Mof_H 	H 	0.8527	0.5019	0.7352	0.037
Mof_H 	H 	0.246	0.534	0.8051	-0.023
Mof_H 	H 	0.4403	0.0855	0.7814	0.008
Mof_H 	H 	0.4591	0.0119	0.3165	0.093
Mof_H 	H 	0.1873	0.7129	0.1204	-0.007
Mof_H 	H 	0.4981	0.1473	0.2648	0.037
Mof_H 	H 	0.8928	0.6744	0.9999	0.238
Mof_H 	H 	0.7792	0.996	0.2597	-0.018
Mof_H 	H 	0.2903	0.2043	0.6622	-0.009
Mof_H 	H 	0.1679	0.0905	0.125	-0.025
Mof_H 	H 	0.004	0.2208	0.7403	-0.018
Mof_H 	H 	0.5335	0.2215	0.5749	0.103
Mof_H 	H 	0.3944	0.362	0.7931	0.123
Mof_H 	H 	0.4435	0.3355	0.4241	0.262
Mof_H 	H 	0.9666	0.8608	0.0432	-0.043
Mof_H 	H 	0.8086	0.6924	0.202	0.075
Mof_H 	H 	0.2553	0.6671	0.6613	-0.506
Mof_H 	H 	0.497	0.2582	0.3774	0.255
Mof_H 	H 	0.9412	0.8586	0.4019	-0.021
Mof_H 	H 	0.7992	0.672	0.537	0.277
Mof_H 	H 	0.3076	0.1914	0.798	0.075
Mof_H 	H 	0.8859	0.4173	0.3907	0.12
Mof_H 	H 	0.3492	0.3268	0.752	0.122
Mof_H 	H 	0.8289	0.6497	0.9681	0.232
Mof_H 	H 	0.5355	0.1971	0.9289	0.232
Mof_H 	H 	0.7785	0.4665	0.4251	0.103
Mof_H 	H 	0.3503	0.1711	0.0319	0.232
Mof_H 	H 	0.2514	0.8806	0.4198	-0.024
Mof_H 	H 	0.7329	0.4585	0.5647	0.251
Mof_H 	H 	0.9028	0.9944	0.119	-0.511
Mof_H 	H 	0.8958	0.6342	0.4765	0.275
Mof_H 	H 	0.0056	0.0972	0.881	-0.511
Mof_H 	H 	0.7418	0.503	0.6226	0.255
Mof_C 	C 	0.7512	0.9158	0.6975	-0.008
Mof_C 	C 	0.7006	0.8362	0.736	0.06
Mof_C 	C 	0.6105	0.8959	0.7467	-0.014
Mof_C 	C 	0.6905	0.8189	0.6109	0.351
Mof_C 	C 	0.5659	0.0899	0.1545	0.013
Mof_C 	C 	0.8347	0.6719	0.153	-0.156
Mof_C 	C 	0.3904	0.3072	0.7854	-0.319
Mof_C 	C 	0.1159	0.3453	0.7668	-0.036
Mof_C 	C 	0.7545	0.6463	0.1381	-0.059
Mof_C 	C 	0.9052	0.4496	0.7497	-0.064
Mof_C 	C 	0.1612	0.9872	0.9299	0.18
Mof_C 	C 	0.9768	0.4594	0.0895	0.44
Mof_C 	C 	0.2177	0.5857	0.8263	0.153
Mof_C 	C 	0.485	0.1098	0.8619	-0.314
Mof_C 	C 	0.5504	0.0948	0.2503	-0.064
Mof_C 	C 	0.3631	0.2667	0.55	-0.397
Mof_C 	C 	0.495	0.1342	0.5509	-0.07
Mof_C 	C 	0.5604	0.9568	0.3742	0.377
Mof_C 	C 	0.1323	0.7593	0.112	0.092
Mof_C 	C 	0.3281	0.1653	0.847	-0.156
Mof_C 	C 	0.4336	0.2042	0.4965	0.471
Mof_C 	C 	0.1041	0.3895	0.2533	-0.014
Mof_C 	C 	0.6871	0.7287	0.468	0.451
Mof_C 	C 	0.2677	0.2985	0.9128	0.337
Mof_C 	C 	0.4832	0.272	0.4274	-0.808
Mof_C 	C 	0.3163	0.3009	0.258	0.008
Mof_C 	C 	0.573	0.9586	0.1014	0.397
Mof_C 	C 	0.0362	0.1676	0.7214	0.161
Mof_C 	C 	0.8439	0.6161	0.5232	-0.815
Mof_C 	C 	0.8658	0.505	0.4491	-0.07
Mof_C 	C 	0.1638	0.2994	0.264	0.06
Mof_C 	C 	0.7209	0.7619	0.8142	-0.083
Mof_C 	C 	0.0212	0.8966	0.661	0.133
Mof_C 	C 	0.5692	0.9404	0.2439	0.091
Mof_C 	C 	0.9986	0.4718	0.701	-0.188
Mof_C 	C 	0.001	0.471	0.8284	-0.107
Mof_C 	C 	0.2713	0.3129	0.532	0.451
Mof_C 	C 	0.562	0.1612	0.5636	-0.308
Mof_C 	C 	0.1233	0.6587	0.3376	0.15
Mof_C 	C 	0.529	0.999	0.1716	-0.107
Mof_C 	C 	0.9116	0.8866	0.8815	0.138
Mof_C 	C 	0.0414	0.427	0.8986	0.397
Mof_C 	C 	0.7015	0.6735	0.8308	0.012
Mof_C 	C 	0.0596	0.4308	0.7561	0.091
Mof_C 	C 	0.8718	0.624	0.0009	-0.688
Mof_C 	C 	0.9998	0.1276	0.0789	0.151
Mof_C 	C 	0.3308	0.8496	0.0969	0.127
Mof_C 	C 	0.2428	0.1676	0.3433	0.016
Mof_C 	C 	0.7306	0.7736	0.682	-0.101
Mof_C 	C 	0.2381	0.2791	0.1858	-0.083
Mof_C 	C 	0.6547	0.8841	0.2332	-0.036
Mof_C 	C 	0.7333	0.6369	0.45	-0.397
Mof_C 	C 	0.7616	0.5162	0.0933	-0.69
Mof_C 	C 	0.2298	0.6218	0.3836	0.201
Mof_C 	C 	0.9123	0.5857	0.1624	0.042
Mof_C 	C 	0.8902	0.515	0.1381	-0.314
Mof_C 	C 	0.6928	0.6096	0.2146	-0.319
Mof_C 	C 	0.8724	0.0002	0.9211	0.151
Mof_C 	C 	0.1034	0.9788	0.339	0.133
Mof_C 	C 	0.9563	0.4519	0.4745	0.297
Mof_C 	C 	0.3265	0.2985	0.1692	0.012
Mof_C 	C 	0.8824	0.587	0.3662	-0.221
Mof_C 	C 	0.1811	0.3095	0.3891	0.351
Mof_C 	C 	0.8324	0.7572	0.6567	0.016
Mof_C 	C 	0.3413	0.8767	0.6624	0.15
Mof_C 	C 	0.2264	0.2694	0.318	-0.101
Mof_C 	C 	0.6846	0.8034	0.8844	0.32
Mof_C 	C 	0.0432	0.4396	0.6258	0.377
Mof_C 	C 	0.1134	0.0884	0.1185	0.138
Mof_C 	C 	0.3782	0.7702	0.6164	0.201
Mof_C 	C 	0.1966	0.3154	0.1156	0.32
Mof_C 	C 	0.9885	0.5761	0.7934	-0.004
Mof_C 	C 	0.4239	0.0115	0.2066	-0.004
Mof_C 	C 	0.3839	0.1561	0.4768	-0.815
Mof_C 	C 	0.4143	0.7823	0.1737	0.153
Mof_C 	C 	0.7015	0.7323	0.0872	0.337
Mof_C 	C 	0.0128	0.8388	0.0701	0.18
Mof_C 	C 	0.0842	0.2488	0.3025	-0.008
Mof_C 	C 	0.8388	0.438	0.4364	-0.308
Mof_C 	C 	0.3537	0.2455	0.8619	-0.059
Mof_C 	C 	0.8324	0.9638	0.2786	0.161
Mof_C 	C 	0.376	0.1282	0.9991	-0.688
Mof_C 	C 	0.4143	0.0877	0.8376	0.042
Mof_C 	C 	0.4838	0.2384	0.9067	-0.69
Mof_C 	C 	0.728	0.5168	0.5726	-0.808
Mof_C 	C 	0.5481	0.0437	0.5255	0.297
Mof_C 	C 	0.7925	0.6441	0.3668	0.162
Mof_C 	C 	0.1097	0.0797	0.6446	0.121
Mof_C 	C 	0.4241	0.1795	0.9107	0.364
Mof_C 	C 	0.7958	0.5664	0.5035	0.471
Mof_C 	C 	0.9101	0.4341	0.8455	0.013
Mof_C 	C 	0.6991	0.6837	0.742	0.008
Mof_C 	C 	0.1504	0.6692	0.9031	0.127
Mof_C 	C 	0.8205	0.5759	0.0893	0.364
Mof_C 	C 	0.9203	0.8903	0.3554	0.121
Mof_C 	C 	0.2407	0.8677	0.888	0.092
Mof_C 	C 	0.2113	0.9041	0.3869	0.153
Mof_C 	C 	0.413	0.1176	0.6338	-0.221
Mof_C 	C 	0.5406	0.0232	0.9105	0.44
Mof_C 	C 	0.5282	0.0014	0.299	-0.188
Mof_C 	C 	0.3559	0.2075	0.6332	0.162
Mof_C 	C 	0.0959	0.7887	0.6131	0.153
Mof_N 	N 	0.2718	0.846	0.6975	-0.221
Mof_N 	N 	0.0897	0.0111	0.1442	-0.22
Mof_N 	N 	0.154	0.7282	0.3025	-0.221
Mof_N 	N 	0.4167	0.8305	0.615	-0.23
Mof_N 	N 	0.1363	0.7819	0.668	-0.348
Mof_N 	N 	0.0605	0.1631	0.0835	-0.212
Mof_N 	N 	0.1893	0.5783	0.9066	-0.211
Mof_N 	N 	0.9177	0.9411	0.234	-0.378
Mof_N 	N 	0.1204	0.9832	0.8817	-0.376
Mof_N 	N 	0.14671	0.91331	0.301	-0.22
Mof_N 	N 	0.2262	0.7062	0.3356	-0.401
Mof_N 	N 	0.0589	0.0823	0.766	-0.378
Mof_N 	N 	0.0133	0.0353	0.1167	-0.366
Mof_N 	N 	0.0832	0.763	0.0658	-0.15
Mof_N 	N 	0.3263	0.7991	0.2179	-0.349
Mof_N 	N 	0.9889	0.9103	0.8558	-0.22
Mof_N 	N 	0.2708	0.8422	0.1668	-0.218
Mof_N 	N 	0.1043	0.0221	0.7187	-0.22
Mof_N 	N 	0.237	0.9168	0.9342	-0.15
Mof_N 	N 	0.8319	0.9325	0.3594	-0.204
Mof_N 	N 	0.9647	0.9867	0.8833	-0.366
Mof_N 	N 	0.1578	0.7292	0.8332	-0.218
Mof_N 	N 	0.0675	0.1681	0.6406	-0.204
Mof_N 	N 	0.1695	0.5833	0.385	-0.23
Mof_N 	N 	0.4217	0.8107	0.0934	-0.211
Mof_N 	N 	0.16875	0.90875	0.8562	-0.207
Mof_N 	N 	0.2938	0.7738	0.6644	-0.401
Mof_N 	N 	0.08669	0.85329	0.699	-0.22
Mof_N 	N 	0.09125	0.83125	0.1438	-0.207
Mof_N 	N 	0.0168	0.8796	0.1183	-0.376
Mof_N 	N 	0.2181	0.8637	0.332	-0.348
Mof_N 	N 	0.0203	0.8583	0.6128	-0.15
Mof_N 	N 	0.9779	0.8957	0.2813	-0.22
Mof_N 	N 	0.1417	0.9797	0.3872	-0.15
Mof_N 	N 	0.2009	0.6737	0.7821	-0.349
Mof_N 	N 	0.8369	0.9395	0.9165	-0.212
Mof_O 	O 	0.6023	0.7409	0.5115	-0.43
Mof_O 	O 	0.0322	0.3582	0.6372	-0.398
Mof_O 	O 	0.6418	0.9678	0.3628	-0.398
Mof_O 	O 	0.2122	0.2692	0.5586	-0.448
Mof_O 	O 	0.9808	0.3776	0.0994	-0.44
Mof_O 	O 	0.2115	0.3947	0.0654	-0.379
Mof_O 	O 	0.2591	0.3977	0.4885	-0.43
Mof_O 	O 	0.7395	0.7995	0.0469	-0.409
Mof_O 	O 	0.5063	0.9751	0.5604	-0.392
Mof_O 	O 	0.6224	0.0192	0.9006	-0.44
Mof_O 	O 	0.1964	0.3848	0.3801	-0.398
Mof_O 	O 	0.02	0.3622	0.9508	-0.428
Mof_O 	O 	0.6378	0.98	0.0492	-0.428
Mof_O 	O 	0.62666	0.72846	0.0861	-0.408
Mof_O 	O 	0.734	0.8686	0.5475	-0.408
Mof_O 	O 	0.0982	0.469	0.8932	-0.411
Mof_O 	O 	0.7308	0.7878	0.4414	-0.448
Mof_O 	O 	0.531	0.9018	0.1068	-0.411
Mof_O 	O 	0.9626	0.3726	0.5248	-0.394
Mof_O 	O 	0.5109	0.9195	0.4368	-0.422
Mof_O 	O 	0.0805	0.4891	0.5632	-0.422
Mof_O 	O 	0.502	0.9606	0.9543	-0.439
Mof_O 	O 	0.0394	0.498	0.0457	-0.439
Mof_O 	O 	0.6152	0.8036	0.6199	-0.398
Mof_O 	O 	0.1314	0.266	0.4525	-0.408
Mof_O 	O 	0.27154	0.37334	0.9139	-0.408
Mof_O 	O 	0.6274	0.0374	0.4752	-0.394
Mof_O 	O 	0.1531	0.2677	0.1113	-0.4
Mof_O 	O 	0.0249	0.4937	0.4396	-0.392
Mof_O 	O 	0.6053	0.7885	0.9346	-0.379
Mof_O 	O 	0.2005	0.2605	0.9531	-0.409
Mof_O 	O 	0.7323	0.8469	0.8887	-0.4
_end
