data_functionalizedCrystal
_audit_creation_method	'EQeq! by Chris Wilmer'
_symmetry_space_group_name_H-M	'P1'
_symmetry_Int_Tables_number	1
_symmetry_cell_setting	triclinic
loop_
_symmetry_equiv_pos_as_xyz
  x,y,z
_cell_length_a	9.7505
_cell_length_b	11.2177
_cell_length_c	14.3736
_cell_angle_alpha	91.2891
_cell_angle_beta	90
_cell_angle_gamma	90
loop_
_atom_site_label
_atom_site_type_symbol
_atom_site_fract_x
_atom_site_fract_y
_atom_site_fract_z
_atom_site_charge
Mof_Zn	Zn	0.91895	0.75672	0.13186	1.273
Mof_Zn	Zn	0.10322	0.7402	0.3148	1.238
Mof_Zn	Zn	0.41895	0.74328	0.36814	1.247
Mof_Zn	Zn	0.60322	0.7598	0.1852	1.251
Mof_Zn	Zn	0.08105	0.24328	0.86814	1.216
Mof_Zn	Zn	0.89678	0.2598	0.6852	1.264
Mof_Zn	Zn	0.58105	0.25672	0.63186	1.243
Mof_Zn	Zn	0.39678	0.2402	0.8148	1.25
Mof_Zn	Zn	4.01517e-33	0.5	-0	1.196
Mof_Zn	Zn	0.5	2.26034e-18	0.5	1.233
Mof_Zn	Zn	-0	0	-0	1.174
Mof_Zn	Zn	0.5	0.5	0.5	1.255
Mof_H 	H 	0.7479	0.8616	0.3686	-0.083
Mof_H 	H 	0.0225	0.4739	0.2687	-0.083
Mof_H 	H 	0.6131	0.5614	0.0354	-0.071
Mof_H 	H 	0.1744	0.9906	0.241	-0.144
Mof_H 	H 	0.1721	0.6967	0.9344	-0.116
Mof_H 	H 	0.7002	0.9858	0.9999	0.064
Mof_H 	H 	0.2479	0.6384	0.1314	-0.117
Mof_H 	H 	0.5225	0.0261	0.2313	-0.25
Mof_H 	H 	0.1131	0.9386	0.4646	-0.106
Mof_H 	H 	0.6744	0.5094	0.259	-0.104
Mof_H 	H 	0.6721	0.8033	0.5656	-0.074
Mof_H 	H 	0.2002	0.5142	0.5001	-0.113
Mof_H 	H 	0.2521	0.1384	0.6314	-0.129
Mof_H 	H 	0.9775	0.5261	0.7313	-0.125
Mof_H 	H 	0.3869	0.4386	0.9646	-0.119
Mof_H 	H 	0.8256	0.0094	0.759	-0.075
Mof_H 	H 	0.8279	0.3033	0.0656	-0.068
Mof_H 	H 	0.2998	0.0142	0.0001	-0.238
Mof_H 	H 	0.7521	0.3616	0.8686	-0.093
Mof_H 	H 	0.4775	0.9739	0.7687	0.044
Mof_H 	H 	0.8869	0.0614	0.5354	-0.083
Mof_H 	H 	0.3256	0.4906	0.741	-0.117
Mof_H 	H 	0.3279	0.1967	0.4344	-0.118
Mof_H 	H 	0.7998	0.4858	0.4999	-0.071
Mof_C 	C 	0.821	0.8313	0.3313	0.485
Mof_C 	C 	0.0055	0.5161	0.2133	0.343
Mof_C 	C 	0.7079	0.5768	0.0447	0.338
Mof_C 	C 	0.1196	0.96	0.1913	0.632
Mof_C 	C 	0.1126	0.7426	0.9733	0.63
Mof_C 	C 	0.7169	0.9268	0.0449	0.295
Mof_C 	C 	0.321	0.6687	0.1687	0.497
Mof_C 	C 	0.5055	0.9839	0.2867	0.801
Mof_C 	C 	0.2079	0.9232	0.4553	0.487
Mof_C 	C 	0.6196	0.54	0.3087	0.498
Mof_C 	C 	0.6126	0.7574	0.5267	0.49
Mof_C 	C 	0.2169	0.5732	0.4551	0.501
Mof_C 	C 	0.179	0.1687	0.6687	0.503
Mof_C 	C 	0.9945	0.4839	0.7867	0.687
Mof_C 	C 	0.2921	0.4232	0.9553	0.636
Mof_C 	C 	0.8804	0.04	0.8087	0.363
Mof_C 	C 	0.8874	0.2574	0.0267	0.358
Mof_C 	C 	0.2831	0.0732	0.9551	0.671
Mof_C 	C 	0.679	0.3313	0.8313	0.49
Mof_C 	C 	0.4945	0.0161	0.7133	0.23
Mof_C 	C 	0.7921	0.0768	0.5447	0.49
Mof_C 	C 	0.3804	0.46	0.6913	0.501
Mof_C 	C 	0.3874	0.2426	0.4733	0.51
Mof_C 	C 	0.7831	0.4268	0.5449	0.48
Mof_O 	O 	0.795	0.81231	0.24491	-0.538
Mof_O 	O 	0.9312	0.8143	0.371	-0.377
Mof_O 	O 	0.0005	0.62856	0.22096	-0.589
Mof_O 	O 	0.9906	0.45579	0.14169	-0.317
Mof_O 	O 	0.7406	0.6528	0.109	-0.526
Mof_O 	O 	0.7899	0.52199	0.99389	-0.291
Mof_O 	O 	0.0795	0.85206	0.19686	-0.641
Mof_O 	O 	0.0939	0.02839	0.12759	-0.589
Mof_O 	O 	0.0287	0.68495	0.02455	-0.71
Mof_O 	O 	0.1232	0.85146	0.96986	-0.432
Mof_O 	O 	0.8413	0.89602	0.05672	-0.497
Mof_O 	O 	0.615	0.88758	0.08618	-0.386
Mof_O 	O 	0.295	0.68769	0.25509	-0.571
Mof_O 	O 	0.4312	0.6857	0.129	-0.464
Mof_O 	O 	0.5005	0.87144	0.27904	-0.65
Mof_O 	O 	0.4906	0.04421	0.35831	-0.576
Mof_O 	O 	0.2406	0.8472	0.391	-0.575
Mof_O 	O 	0.2899	0.97801	0.50611	-0.405
Mof_O 	O 	0.5795	0.64794	0.30314	-0.569
Mof_O 	O 	0.5939	0.47161	0.37241	-0.444
Mof_O 	O 	0.5287	0.81505	0.47545	-0.564
Mof_O 	O 	0.6232	0.64854	0.53014	-0.437
Mof_O 	O 	0.3413	0.60398	0.44328	-0.587
Mof_O 	O 	0.115	0.61242	0.41382	-0.479
Mof_O 	O 	0.205	0.18769	0.75509	-0.602
Mof_O 	O 	0.0688	0.1857	0.629	-0.527
Mof_O 	O 	0.9995	0.37144	0.77904	-0.58
Mof_O 	O 	0.0094	0.54421	0.85831	-0.552
Mof_O 	O 	0.2594	0.3472	0.891	-0.617
Mof_O 	O 	0.2101	0.47801	0.00611	-0.569
Mof_O 	O 	0.9205	0.14794	0.80314	-0.5
Mof_O 	O 	0.9061	0.97161	0.87241	-0.28
Mof_O 	O 	0.9713	0.31505	0.97545	-0.43
Mof_O 	O 	0.8768	0.14854	0.03014	-0.432
Mof_O 	O 	0.1587	0.10398	0.94328	-0.64
Mof_O 	O 	0.385	0.11242	0.91382	-0.497
Mof_O 	O 	0.705	0.31231	0.74491	-0.568
Mof_O 	O 	0.5688	0.3143	0.871	-0.437
Mof_O 	O 	0.4995	0.12856	0.72096	-0.521
Mof_O 	O 	0.5094	0.95579	0.64169	-0.304
Mof_O 	O 	0.7594	0.1528	0.609	-0.57
Mof_O 	O 	0.7101	0.02199	0.49389	-0.465
Mof_O 	O 	0.4205	0.35206	0.69686	-0.579
Mof_O 	O 	0.4061	0.52839	0.62759	-0.449
Mof_O 	O 	0.4713	0.18495	0.52455	-0.592
Mof_O 	O 	0.3768	0.35146	0.46986	-0.461
Mof_O 	O 	0.6587	0.39602	0.55672	-0.574
Mof_O 	O 	0.885	0.38758	0.58618	-0.407
_end
