data_functionalizedCrystal
_audit_creation_method	'EQeq! by Chris Wilmer'
_symmetry_space_group_name_H-M	'P1'
_symmetry_Int_Tables_number	1
_symmetry_cell_setting	triclinic
loop_
_symmetry_equiv_pos_as_xyz
  x,y,z
_cell_length_a	26.5068
_cell_length_b	26.5068
_cell_length_c	26.5068
_cell_angle_alpha	90
_cell_angle_beta	90
_cell_angle_gamma	90
loop_
_atom_site_label
_atom_site_type_symbol
_atom_site_fract_x
_atom_site_fract_y
_atom_site_fract_z
_atom_site_charge
Mof_O 	O 	0.22976	0.29603	0.04732	-1.171
Mof_O 	O 	0.3585	0.2895	0.105	-0.684
Mof_O 	O 	0.2241	0.3977	0.9513	-0.504
Mof_O 	O 	0.72976	0.79603	0.54732	-1.109
Mof_O 	O 	0.8585	0.7895	0.605	-0.639
Mof_O 	O 	0.7241	0.8977	0.4513	-0.55
Mof_O 	O 	0.77024	0.70397	0.04732	-1.141
Mof_O 	O 	0.6415	0.7105	0.105	-0.682
Mof_O 	O 	0.7759	0.6023	0.9513	-0.485
Mof_O 	O 	0.27024	0.20397	0.54732	-1.119
Mof_O 	O 	0.1415	0.2105	0.605	-0.682
Mof_O 	O 	0.2759	0.1023	0.4513	-0.611
Mof_O 	O 	0.77024	0.29603	0.95268	-1.01
Mof_O 	O 	0.6415	0.2895	0.895	-0.644
Mof_O 	O 	0.7759	0.3977	0.0487	-0.63
Mof_O 	O 	0.27024	0.79603	0.45268	-1.112
Mof_O 	O 	0.1415	0.7895	0.395	-0.667
Mof_O 	O 	0.2759	0.8977	0.5487	-0.556
Mof_O 	O 	0.22976	0.70397	0.95268	-1.019
Mof_O 	O 	0.3585	0.7105	0.895	-0.644
Mof_O 	O 	0.2241	0.6023	0.0487	-0.646
Mof_O 	O 	0.72976	0.20397	0.45268	-1.117
Mof_O 	O 	0.8585	0.2105	0.395	-0.662
Mof_O 	O 	0.7241	0.1023	0.5487	-0.607
Mof_O 	O 	0.04732	0.22976	0.29603	-1.172
Mof_O 	O 	0.105	0.3585	0.2895	-0.685
Mof_O 	O 	0.9513	0.2241	0.3977	-0.505
Mof_O 	O 	0.54732	0.72976	0.79603	-1.11
Mof_O 	O 	0.605	0.8585	0.7895	-0.64
Mof_O 	O 	0.4513	0.7241	0.8977	-0.551
Mof_O 	O 	0.04732	0.77024	0.70397	-1.141
Mof_O 	O 	0.105	0.6415	0.7105	-0.682
Mof_O 	O 	0.9513	0.7759	0.6023	-0.485
Mof_O 	O 	0.54732	0.27024	0.20397	-1.119
Mof_O 	O 	0.605	0.1415	0.2105	-0.682
Mof_O 	O 	0.4513	0.2759	0.1023	-0.611
Mof_O 	O 	0.95268	0.77024	0.29603	-1.01
Mof_O 	O 	0.895	0.6415	0.2895	-0.644
Mof_O 	O 	0.0487	0.7759	0.3977	-0.63
Mof_O 	O 	0.45268	0.27024	0.79603	-1.112
Mof_O 	O 	0.395	0.1415	0.7895	-0.667
Mof_O 	O 	0.5487	0.2759	0.8977	-0.556
Mof_O 	O 	0.95268	0.22976	0.70397	-1.019
Mof_O 	O 	0.895	0.3585	0.7105	-0.644
Mof_O 	O 	0.0487	0.2241	0.6023	-0.646
Mof_O 	O 	0.45268	0.72976	0.20397	-1.117
Mof_O 	O 	0.395	0.8585	0.2105	-0.662
Mof_O 	O 	0.5487	0.7241	0.1023	-0.607
Mof_O 	O 	0.29603	0.04732	0.22976	-1.172
Mof_O 	O 	0.2895	0.105	0.3585	-0.685
Mof_O 	O 	0.3977	0.9513	0.2241	-0.505
Mof_O 	O 	0.79603	0.54732	0.72976	-1.11
Mof_O 	O 	0.7895	0.605	0.8585	-0.64
Mof_O 	O 	0.8977	0.4513	0.7241	-0.551
Mof_O 	O 	0.70397	0.04732	0.77024	-1.141
Mof_O 	O 	0.7105	0.105	0.6415	-0.682
Mof_O 	O 	0.6023	0.9513	0.7759	-0.485
Mof_O 	O 	0.20397	0.54732	0.27024	-1.119
Mof_O 	O 	0.2105	0.605	0.1415	-0.682
Mof_O 	O 	0.1023	0.4513	0.2759	-0.611
Mof_O 	O 	0.29603	0.95268	0.77024	-1.01
Mof_O 	O 	0.2895	0.895	0.6415	-0.644
Mof_O 	O 	0.3977	0.0487	0.7759	-0.63
Mof_O 	O 	0.79603	0.45268	0.27024	-1.112
Mof_O 	O 	0.7895	0.395	0.1415	-0.667
Mof_O 	O 	0.8977	0.5487	0.2759	-0.556
Mof_O 	O 	0.70397	0.95268	0.22976	-1.019
Mof_O 	O 	0.7105	0.895	0.3585	-0.644
Mof_O 	O 	0.6023	0.0487	0.2241	-0.646
Mof_O 	O 	0.20397	0.45268	0.72976	-1.117
Mof_O 	O 	0.2105	0.395	0.8585	-0.662
Mof_O 	O 	0.1023	0.5487	0.7241	-0.607
Mof_O 	O 	0.29603	0.22976	0.95268	-1.03
Mof_O 	O 	0.2895	0.3585	0.895	-0.646
Mof_O 	O 	0.3977	0.2241	0.0487	-0.648
Mof_O 	O 	0.79603	0.72976	0.45268	-1.11
Mof_O 	O 	0.7895	0.8585	0.395	-0.644
Mof_O 	O 	0.8977	0.7241	0.5487	-0.552
Mof_O 	O 	0.70397	0.77024	0.95268	-0.999
Mof_O 	O 	0.7105	0.6415	0.895	-0.643
Mof_O 	O 	0.6023	0.7759	0.0487	-0.628
Mof_O 	O 	0.20397	0.27024	0.45268	-1.119
Mof_O 	O 	0.2105	0.1415	0.395	-0.685
Mof_O 	O 	0.1023	0.2759	0.5487	-0.611
Mof_O 	O 	0.29603	0.77024	0.04732	-1.151
Mof_O 	O 	0.2895	0.6415	0.105	-0.684
Mof_O 	O 	0.3977	0.7759	0.9513	-0.487
Mof_O 	O 	0.79603	0.27024	0.54732	-1.112
Mof_O 	O 	0.7895	0.1415	0.605	-0.663
Mof_O 	O 	0.8977	0.2759	0.4513	-0.555
Mof_O 	O 	0.70397	0.22976	0.04732	-1.161
Mof_O 	O 	0.7105	0.3585	0.105	-0.683
Mof_O 	O 	0.6023	0.2241	0.9513	-0.503
Mof_O 	O 	0.20397	0.72976	0.54732	-1.116
Mof_O 	O 	0.2105	0.8585	0.605	-0.659
Mof_O 	O 	0.1023	0.7241	0.4513	-0.607
Mof_O 	O 	0.22976	0.04732	0.70397	-1.161
Mof_O 	O 	0.3585	0.105	0.7105	-0.683
Mof_O 	O 	0.2241	0.9513	0.6023	-0.503
Mof_O 	O 	0.72976	0.54732	0.20397	-1.116
Mof_O 	O 	0.8585	0.605	0.2105	-0.659
Mof_O 	O 	0.7241	0.4513	0.1023	-0.607
Mof_O 	O 	0.77024	0.04732	0.29603	-1.151
Mof_O 	O 	0.6415	0.105	0.2895	-0.684
Mof_O 	O 	0.7759	0.9513	0.3977	-0.487
Mof_O 	O 	0.27024	0.54732	0.79603	-1.112
Mof_O 	O 	0.1415	0.605	0.7895	-0.663
Mof_O 	O 	0.2759	0.4513	0.8977	-0.555
Mof_O 	O 	0.77024	0.95268	0.70397	-0.999
Mof_O 	O 	0.6415	0.895	0.7105	-0.643
Mof_O 	O 	0.7759	0.0487	0.6023	-0.628
Mof_O 	O 	0.27024	0.45268	0.20397	-1.119
Mof_O 	O 	0.1415	0.395	0.2105	-0.685
Mof_O 	O 	0.2759	0.5487	0.1023	-0.611
Mof_O 	O 	0.22976	0.95268	0.29603	-1.03
Mof_O 	O 	0.3585	0.895	0.2895	-0.646
Mof_O 	O 	0.2241	0.0487	0.3977	-0.648
Mof_O 	O 	0.72976	0.45268	0.79603	-1.11
Mof_O 	O 	0.8585	0.395	0.7895	-0.644
Mof_O 	O 	0.7241	0.5487	0.8977	-0.552
Mof_O 	O 	0.04732	0.29603	0.77024	-1.151
Mof_O 	O 	0.105	0.2895	0.6415	-0.684
Mof_O 	O 	0.9513	0.3977	0.7759	-0.487
Mof_O 	O 	0.54732	0.79603	0.27024	-1.112
Mof_O 	O 	0.605	0.7895	0.1415	-0.663
Mof_O 	O 	0.4513	0.8977	0.2759	-0.555
Mof_O 	O 	0.04732	0.70397	0.22976	-1.161
Mof_O 	O 	0.105	0.7105	0.3585	-0.683
Mof_O 	O 	0.9513	0.6023	0.2241	-0.503
Mof_O 	O 	0.54732	0.20397	0.72976	-1.116
Mof_O 	O 	0.605	0.2105	0.8585	-0.659
Mof_O 	O 	0.4513	0.1023	0.7241	-0.607
Mof_O 	O 	0.95268	0.29603	0.22976	-1.03
Mof_O 	O 	0.895	0.2895	0.3585	-0.646
Mof_O 	O 	0.0487	0.3977	0.2241	-0.648
Mof_O 	O 	0.45268	0.79603	0.72976	-1.11
Mof_O 	O 	0.395	0.7895	0.8585	-0.644
Mof_O 	O 	0.5487	0.8977	0.7241	-0.552
Mof_O 	O 	0.95268	0.70397	0.77024	-0.999
Mof_O 	O 	0.895	0.7105	0.6415	-0.643
Mof_O 	O 	0.0487	0.6023	0.7759	-0.628
Mof_O 	O 	0.45268	0.20397	0.27024	-1.119
Mof_O 	O 	0.395	0.2105	0.1415	-0.685
Mof_O 	O 	0.5487	0.1023	0.2759	-0.611
Mof_O 	O 	0.77024	0.70397	0.95268	-0.999
Mof_O 	O 	0.6415	0.7105	0.895	-0.643
Mof_O 	O 	0.7759	0.6023	0.0487	-0.628
Mof_O 	O 	0.27024	0.20397	0.45268	-1.119
Mof_O 	O 	0.1415	0.2105	0.395	-0.685
Mof_O 	O 	0.2759	0.1023	0.5487	-0.611
Mof_O 	O 	0.22976	0.29603	0.95268	-1.03
Mof_O 	O 	0.3585	0.2895	0.895	-0.646
Mof_O 	O 	0.2241	0.3977	0.0487	-0.648
Mof_O 	O 	0.72976	0.79603	0.45268	-1.11
Mof_O 	O 	0.8585	0.7895	0.395	-0.644
Mof_O 	O 	0.7241	0.8977	0.5487	-0.552
Mof_O 	O 	0.22976	0.70397	0.04732	-1.161
Mof_O 	O 	0.3585	0.7105	0.105	-0.683
Mof_O 	O 	0.2241	0.6023	0.9513	-0.503
Mof_O 	O 	0.72976	0.20397	0.54732	-1.116
Mof_O 	O 	0.8585	0.2105	0.605	-0.659
Mof_O 	O 	0.7241	0.1023	0.4513	-0.607
Mof_O 	O 	0.77024	0.29603	0.04732	-1.151
Mof_O 	O 	0.6415	0.2895	0.105	-0.684
Mof_O 	O 	0.7759	0.3977	0.9513	-0.487
Mof_O 	O 	0.27024	0.79603	0.54732	-1.112
Mof_O 	O 	0.1415	0.7895	0.605	-0.663
Mof_O 	O 	0.2759	0.8977	0.4513	-0.555
Mof_O 	O 	0.95268	0.77024	0.70397	-0.999
Mof_O 	O 	0.895	0.6415	0.7105	-0.643
Mof_O 	O 	0.0487	0.7759	0.6023	-0.628
Mof_O 	O 	0.45268	0.27024	0.20397	-1.119
Mof_O 	O 	0.395	0.1415	0.2105	-0.685
Mof_O 	O 	0.5487	0.2759	0.1023	-0.611
Mof_O 	O 	0.95268	0.22976	0.29603	-1.03
Mof_O 	O 	0.895	0.3585	0.2895	-0.646
Mof_O 	O 	0.0487	0.2241	0.3977	-0.648
Mof_O 	O 	0.45268	0.72976	0.79603	-1.11
Mof_O 	O 	0.395	0.8585	0.7895	-0.644
Mof_O 	O 	0.5487	0.7241	0.8977	-0.552
Mof_O 	O 	0.04732	0.22976	0.70397	-1.161
Mof_O 	O 	0.105	0.3585	0.7105	-0.683
Mof_O 	O 	0.9513	0.2241	0.6023	-0.503
Mof_O 	O 	0.54732	0.72976	0.20397	-1.116
Mof_O 	O 	0.605	0.8585	0.2105	-0.659
Mof_O 	O 	0.4513	0.7241	0.1023	-0.607
Mof_O 	O 	0.04732	0.77024	0.29603	-1.151
Mof_O 	O 	0.105	0.6415	0.2895	-0.684
Mof_O 	O 	0.9513	0.7759	0.3977	-0.487
Mof_O 	O 	0.54732	0.27024	0.79603	-1.112
Mof_O 	O 	0.605	0.1415	0.7895	-0.663
Mof_O 	O 	0.4513	0.2759	0.8977	-0.555
Mof_O 	O 	0.70397	0.95268	0.77024	-0.999
Mof_O 	O 	0.7105	0.895	0.6415	-0.643
Mof_O 	O 	0.6023	0.0487	0.7759	-0.628
Mof_O 	O 	0.20397	0.45268	0.27024	-1.119
Mof_O 	O 	0.2105	0.395	0.1415	-0.685
Mof_O 	O 	0.1023	0.5487	0.2759	-0.611
Mof_O 	O 	0.29603	0.95268	0.22976	-1.03
Mof_O 	O 	0.2895	0.895	0.3585	-0.646
Mof_O 	O 	0.3977	0.0487	0.2241	-0.648
Mof_O 	O 	0.79603	0.45268	0.72976	-1.11
Mof_O 	O 	0.7895	0.395	0.8585	-0.644
Mof_O 	O 	0.8977	0.5487	0.7241	-0.552
Mof_O 	O 	0.70397	0.04732	0.22976	-1.161
Mof_O 	O 	0.7105	0.105	0.3585	-0.683
Mof_O 	O 	0.6023	0.9513	0.2241	-0.503
Mof_O 	O 	0.20397	0.54732	0.72976	-1.116
Mof_O 	O 	0.2105	0.605	0.8585	-0.659
Mof_O 	O 	0.1023	0.4513	0.7241	-0.607
Mof_O 	O 	0.29603	0.04732	0.77024	-1.151
Mof_O 	O 	0.2895	0.105	0.6415	-0.684
Mof_O 	O 	0.3977	0.9513	0.7759	-0.487
Mof_O 	O 	0.79603	0.54732	0.27024	-1.112
Mof_O 	O 	0.7895	0.605	0.1415	-0.663
Mof_O 	O 	0.8977	0.4513	0.2759	-0.555
Mof_O 	O 	0.70397	0.77024	0.04732	-1.141
Mof_O 	O 	0.7105	0.6415	0.105	-0.682
Mof_O 	O 	0.6023	0.7759	0.9513	-0.485
Mof_O 	O 	0.20397	0.27024	0.54732	-1.119
Mof_O 	O 	0.2105	0.1415	0.605	-0.682
Mof_O 	O 	0.1023	0.2759	0.4513	-0.611
Mof_O 	O 	0.29603	0.22976	0.04732	-1.172
Mof_O 	O 	0.2895	0.3585	0.105	-0.685
Mof_O 	O 	0.3977	0.2241	0.9513	-0.505
Mof_O 	O 	0.79603	0.72976	0.54732	-1.11
Mof_O 	O 	0.7895	0.8585	0.605	-0.64
Mof_O 	O 	0.8977	0.7241	0.4513	-0.551
Mof_O 	O 	0.70397	0.22976	0.95268	-1.019
Mof_O 	O 	0.7105	0.3585	0.895	-0.644
Mof_O 	O 	0.6023	0.2241	0.0487	-0.646
Mof_O 	O 	0.20397	0.72976	0.45268	-1.117
Mof_O 	O 	0.2105	0.8585	0.395	-0.662
Mof_O 	O 	0.1023	0.7241	0.5487	-0.607
Mof_O 	O 	0.29603	0.77024	0.95268	-1.01
Mof_O 	O 	0.2895	0.6415	0.895	-0.644
Mof_O 	O 	0.3977	0.7759	0.0487	-0.63
Mof_O 	O 	0.79603	0.27024	0.45268	-1.112
Mof_O 	O 	0.7895	0.1415	0.395	-0.667
Mof_O 	O 	0.8977	0.2759	0.5487	-0.556
Mof_O 	O 	0.77024	0.95268	0.29603	-1.01
Mof_O 	O 	0.6415	0.895	0.2895	-0.644
Mof_O 	O 	0.7759	0.0487	0.3977	-0.63
Mof_O 	O 	0.27024	0.45268	0.79603	-1.112
Mof_O 	O 	0.1415	0.395	0.7895	-0.667
Mof_O 	O 	0.2759	0.5487	0.8977	-0.556
Mof_O 	O 	0.22976	0.95268	0.70397	-1.019
Mof_O 	O 	0.3585	0.895	0.7105	-0.644
Mof_O 	O 	0.2241	0.0487	0.6023	-0.646
Mof_O 	O 	0.72976	0.45268	0.20397	-1.117
Mof_O 	O 	0.8585	0.395	0.2105	-0.662
Mof_O 	O 	0.7241	0.5487	0.1023	-0.607
Mof_O 	O 	0.22976	0.04732	0.29603	-1.172
Mof_O 	O 	0.3585	0.105	0.2895	-0.685
Mof_O 	O 	0.2241	0.9513	0.3977	-0.505
Mof_O 	O 	0.72976	0.54732	0.79603	-1.11
Mof_O 	O 	0.8585	0.605	0.7895	-0.64
Mof_O 	O 	0.7241	0.4513	0.8977	-0.551
Mof_O 	O 	0.77024	0.04732	0.70397	-1.141
Mof_O 	O 	0.6415	0.105	0.7105	-0.682
Mof_O 	O 	0.7759	0.9513	0.6023	-0.485
Mof_O 	O 	0.27024	0.54732	0.20397	-1.119
Mof_O 	O 	0.1415	0.605	0.2105	-0.682
Mof_O 	O 	0.2759	0.4513	0.1023	-0.611
Mof_O 	O 	0.95268	0.70397	0.22976	-1.019
Mof_O 	O 	0.895	0.7105	0.3585	-0.644
Mof_O 	O 	0.0487	0.6023	0.2241	-0.646
Mof_O 	O 	0.45268	0.20397	0.72976	-1.117
Mof_O 	O 	0.395	0.2105	0.8585	-0.662
Mof_O 	O 	0.5487	0.1023	0.7241	-0.607
Mof_O 	O 	0.95268	0.29603	0.77024	-1.01
Mof_O 	O 	0.895	0.2895	0.6415	-0.644
Mof_O 	O 	0.0487	0.3977	0.7759	-0.63
Mof_O 	O 	0.45268	0.79603	0.27024	-1.112
Mof_O 	O 	0.395	0.7895	0.1415	-0.667
Mof_O 	O 	0.5487	0.8977	0.2759	-0.556
Mof_O 	O 	0.04732	0.70397	0.77024	-1.141
Mof_O 	O 	0.105	0.7105	0.6415	-0.682
Mof_O 	O 	0.9513	0.6023	0.7759	-0.485
Mof_O 	O 	0.54732	0.20397	0.27024	-1.119
Mof_O 	O 	0.605	0.2105	0.1415	-0.682
Mof_O 	O 	0.4513	0.1023	0.2759	-0.611
Mof_O 	O 	0.04732	0.29603	0.22976	-1.172
Mof_O 	O 	0.105	0.2895	0.3585	-0.685
Mof_O 	O 	0.9513	0.3977	0.2241	-0.505
Mof_O 	O 	0.54732	0.79603	0.72976	-1.11
Mof_O 	O 	0.605	0.7895	0.8585	-0.64
Mof_O 	O 	0.4513	0.8977	0.7241	-0.551
Mof_V 	V 	0.28579	0.28579	0.0944	1.645
Mof_V 	V 	0.78579	0.78579	0.5944	1.656
Mof_V 	V 	0.71421	0.71421	0.0944	1.651
Mof_V 	V 	0.21421	0.21421	0.5944	1.651
Mof_V 	V 	0.71421	0.28579	0.9056	1.66
Mof_V 	V 	0.21421	0.78579	0.4056	1.652
Mof_V 	V 	0.28579	0.71421	0.9056	1.66
Mof_V 	V 	0.78579	0.21421	0.4056	1.652
Mof_V 	V 	0.0944	0.28579	0.28579	1.645
Mof_V 	V 	0.5944	0.78579	0.78579	1.656
Mof_V 	V 	0.0944	0.71421	0.71421	1.651
Mof_V 	V 	0.5944	0.21421	0.21421	1.651
Mof_V 	V 	0.9056	0.71421	0.28579	1.66
Mof_V 	V 	0.4056	0.21421	0.78579	1.652
Mof_V 	V 	0.9056	0.28579	0.71421	1.66
Mof_V 	V 	0.4056	0.78579	0.21421	1.652
Mof_V 	V 	0.28579	0.0944	0.28579	1.645
Mof_V 	V 	0.78579	0.5944	0.78579	1.656
Mof_V 	V 	0.71421	0.0944	0.71421	1.651
Mof_V 	V 	0.21421	0.5944	0.21421	1.651
Mof_V 	V 	0.28579	0.9056	0.71421	1.66
Mof_V 	V 	0.78579	0.4056	0.21421	1.652
Mof_V 	V 	0.71421	0.9056	0.28579	1.66
Mof_V 	V 	0.21421	0.4056	0.78579	1.652
Mof_V 	V 	0.28579	0.28579	0.9056	1.656
Mof_V 	V 	0.78579	0.78579	0.4056	1.655
Mof_V 	V 	0.71421	0.71421	0.9056	1.663
Mof_V 	V 	0.21421	0.21421	0.4056	1.65
Mof_V 	V 	0.28579	0.71421	0.0944	1.648
Mof_V 	V 	0.78579	0.21421	0.5944	1.653
Mof_V 	V 	0.71421	0.28579	0.0944	1.648
Mof_V 	V 	0.21421	0.78579	0.5944	1.653
Mof_V 	V 	0.28579	0.0944	0.71421	1.648
Mof_V 	V 	0.78579	0.5944	0.21421	1.653
Mof_V 	V 	0.71421	0.0944	0.28579	1.648
Mof_V 	V 	0.21421	0.5944	0.78579	1.653
Mof_V 	V 	0.71421	0.9056	0.71421	1.663
Mof_V 	V 	0.21421	0.4056	0.21421	1.65
Mof_V 	V 	0.28579	0.9056	0.28579	1.656
Mof_V 	V 	0.78579	0.4056	0.78579	1.655
Mof_V 	V 	0.0944	0.28579	0.71421	1.648
Mof_V 	V 	0.5944	0.78579	0.21421	1.653
Mof_V 	V 	0.0944	0.71421	0.28579	1.648
Mof_V 	V 	0.5944	0.21421	0.78579	1.653
Mof_V 	V 	0.9056	0.28579	0.28579	1.656
Mof_V 	V 	0.4056	0.78579	0.78579	1.655
Mof_V 	V 	0.9056	0.71421	0.71421	1.663
Mof_V 	V 	0.4056	0.21421	0.21421	1.65
Mof_V 	V 	0.24572	0.24572	-0	1.538
Mof_V 	V 	0.74572	0.74572	0.5	1.616
Mof_V 	V 	0.75428	0.75428	-0	1.558
Mof_V 	V 	0.25428	0.25428	0.5	1.613
Mof_V 	V 	0.75428	0.24572	-0	1.548
Mof_V 	V 	0.25428	0.74572	0.5	1.615
Mof_V 	V 	0.24572	0.75428	-0	1.548
Mof_V 	V 	0.74572	0.25428	0.5	1.615
Mof_V 	V 	9.21302e-34	0.24572	0.24572	1.538
Mof_V 	V 	0.5	0.74572	0.74572	1.616
Mof_V 	V 	2.4515e-32	0.75428	0.75428	1.558
Mof_V 	V 	0.5	0.25428	0.25428	1.613
Mof_V 	V 	6.34304e-33	0.75428	0.24572	1.548
Mof_V 	V 	0.5	0.25428	0.74572	1.615
Mof_V 	V 	8.24983e-33	0.24572	0.75428	1.548
Mof_V 	V 	0.5	0.74572	0.25428	1.615
Mof_V 	V 	0.24572	-2.71087e-33	0.24572	1.538
Mof_V 	V 	0.74572	0.5	0.74572	1.616
Mof_V 	V 	0.75428	0	0.75428	1.558
Mof_V 	V 	0.25428	0.5	0.25428	1.613
Mof_V 	V 	0.24572	0	0.75428	1.548
Mof_V 	V 	0.74572	0.5	0.25428	1.615
Mof_V 	V 	0.75428	-2.71087e-33	0.24572	1.548
Mof_V 	V 	0.25428	0.5	0.74572	1.615
Mof_V 	V 	0.20591	0.34661	-0	1.598
Mof_V 	V 	0.70591	0.84661	0.5	1.678
Mof_V 	V 	0.79409	0.65339	-0	1.613
Mof_V 	V 	0.29409	0.15339	0.5	1.667
Mof_V 	V 	0.79409	0.34661	-0	1.611
Mof_V 	V 	0.29409	0.84661	0.5	1.677
Mof_V 	V 	0.20591	0.65339	-0	1.6
Mof_V 	V 	0.70591	0.15339	0.5	1.668
Mof_V 	V 	-4.12216e-33	0.20591	0.34661	1.598
Mof_V 	V 	0.5	0.70591	0.84661	1.678
Mof_V 	V 	-8.39366e-33	0.79409	0.65339	1.613
Mof_V 	V 	0.5	0.29409	0.15339	1.667
Mof_V 	V 	4.01045e-33	0.79409	0.34661	1.611
Mof_V 	V 	0.5	0.29409	0.84661	1.677
Mof_V 	V 	2.44982e-33	0.20591	0.65339	1.6
Mof_V 	V 	0.5	0.70591	0.15339	1.668
Mof_V 	V 	0.34661	-2.71087e-33	0.20591	1.598
Mof_V 	V 	0.84661	0.5	0.70591	1.678
Mof_V 	V 	0.65339	-5.42174e-33	0.79409	1.613
Mof_V 	V 	0.15339	0.5	0.29409	1.667
Mof_V 	V 	0.34661	-5.42174e-33	0.79409	1.611
Mof_V 	V 	0.84661	0.5	0.29409	1.677
Mof_V 	V 	0.65339	-2.71087e-33	0.20591	1.6
Mof_V 	V 	0.15339	0.5	0.70591	1.668
Mof_V 	V 	0.34661	0.20591	-0	1.598
Mof_V 	V 	0.84661	0.70591	0.5	1.678
Mof_V 	V 	0.65339	0.79409	-0	1.613
Mof_V 	V 	0.15339	0.29409	0.5	1.667
Mof_V 	V 	0.34661	0.79409	-0	1.611
Mof_V 	V 	0.84661	0.29409	0.5	1.677
Mof_V 	V 	0.65339	0.20591	-0	1.6
Mof_V 	V 	0.15339	0.70591	0.5	1.668
Mof_V 	V 	0.20591	-1.08435e-32	0.65339	1.6
Mof_V 	V 	0.70591	0.5	0.15339	1.668
Mof_V 	V 	0.79409	-2.71087e-33	0.34661	1.611
Mof_V 	V 	0.29409	0.5	0.84661	1.677
Mof_V 	V 	0.79409	-1.08435e-32	0.65339	1.613
Mof_V 	V 	0.29409	0.5	0.15339	1.667
Mof_V 	V 	0.20591	-2.71087e-33	0.34661	1.598
Mof_V 	V 	0.70591	0.5	0.84661	1.678
Mof_V 	V 	2.97736e-33	0.34661	0.79409	1.611
Mof_V 	V 	0.5	0.84661	0.29409	1.677
Mof_V 	V 	7.72039e-34	0.65339	0.20591	1.6
Mof_V 	V 	0.5	0.15339	0.70591	1.668
Mof_V 	V 	-1.93883e-33	0.34661	0.20591	1.598
Mof_V 	V 	0.5	0.84661	0.70591	1.678
Mof_V 	V 	-7.86611e-33	0.65339	0.79409	1.613
Mof_V 	V 	0.5	0.15339	0.29409	1.667
Mof_P 	P 	0.40019	0.25	0.09981	0.594
Mof_P 	P 	0.59981	0.75	0.09981	0.594
Mof_P 	P 	0.59981	0.25	0.90019	0.588
Mof_P 	P 	0.40019	0.75	0.90019	0.588
Mof_P 	P 	0.09981	0.40019	0.25	0.594
Mof_P 	P 	0.09981	0.59981	0.75	0.594
Mof_P 	P 	0.90019	0.59981	0.25	0.588
Mof_P 	P 	0.90019	0.40019	0.75	0.588
Mof_P 	P 	0.25	0.09981	0.40019	0.594
Mof_P 	P 	0.75	0.09981	0.59981	0.594
Mof_P 	P 	0.25	0.90019	0.59981	0.588
Mof_P 	P 	0.75	0.90019	0.40019	0.588
Mof_P 	P 	0.25	0.40019	0.90019	0.588
Mof_P 	P 	0.75	0.59981	0.90019	0.588
Mof_P 	P 	0.25	0.59981	0.09981	0.594
Mof_P 	P 	0.75	0.40019	0.09981	0.594
Mof_P 	P 	0.40019	0.09981	0.75	0.594
Mof_P 	P 	0.59981	0.09981	0.25	0.594
Mof_P 	P 	0.59981	0.90019	0.75	0.588
Mof_P 	P 	0.40019	0.90019	0.25	0.588
Mof_P 	P 	0.09981	0.25	0.59981	0.594
Mof_P 	P 	0.09981	0.75	0.40019	0.594
Mof_P 	P 	0.90019	0.25	0.40019	0.588
Mof_P 	P 	0.90019	0.75	0.59981	0.588
Mof_P 	P 	0.59981	0.75	0.90019	0.588
Mof_P 	P 	0.09981	0.25	0.40019	0.594
Mof_P 	P 	0.40019	0.25	0.90019	0.588
Mof_P 	P 	0.40019	0.75	0.09981	0.594
Mof_P 	P 	0.59981	0.25	0.09981	0.594
Mof_P 	P 	0.90019	0.59981	0.75	0.588
Mof_P 	P 	0.40019	0.09981	0.25	0.594
Mof_P 	P 	0.90019	0.40019	0.25	0.588
Mof_P 	P 	0.09981	0.40019	0.75	0.594
Mof_P 	P 	0.09981	0.59981	0.25	0.594
Mof_P 	P 	0.75	0.90019	0.59981	0.588
Mof_P 	P 	0.25	0.40019	0.09981	0.594
Mof_P 	P 	0.25	0.90019	0.40019	0.588
Mof_P 	P 	0.75	0.09981	0.40019	0.594
Mof_P 	P 	0.25	0.09981	0.59981	0.594
Mof_P 	P 	0.75	0.59981	0.09981	0.594
Mof_P 	P 	0.75	0.40019	0.90019	0.588
Mof_P 	P 	0.25	0.59981	0.90019	0.588
Mof_P 	P 	0.59981	0.90019	0.25	0.588
Mof_P 	P 	0.40019	0.90019	0.75	0.588
Mof_P 	P 	0.59981	0.09981	0.75	0.594
Mof_P 	P 	0.90019	0.75	0.40019	0.588
Mof_P 	P 	0.90019	0.25	0.59981	0.588
Mof_P 	P 	0.09981	0.75	0.59981	0.594
_end
