data_functionalizedCrystal
_audit_creation_method	'EQeq! by Chris Wilmer'
_symmetry_space_group_name_H-M	'P1'
_symmetry_Int_Tables_number	1
_symmetry_cell_setting	triclinic
loop_
_symmetry_equiv_pos_as_xyz
  x,y,z
_cell_length_a	17.125
_cell_length_b	22.1015
_cell_length_c	24.938
_cell_angle_alpha	90
_cell_angle_beta	90
_cell_angle_gamma	112.794
loop_
_atom_site_label
_atom_site_type_symbol
_atom_site_fract_x
_atom_site_fract_y
_atom_site_fract_z
_atom_site_charge
Mof_Cd	Cd	0.75	0.5	0.93226	0.331
Mof_Cd	Cd	0.25	0.5	0.43226	0.331
Mof_Cd	Cd	0.75	-5.80204e-33	0.43929	0.316
Mof_Cd	Cd	0.75	0	0.93929	0.316
Mof_H 	H 	0.7753	0.8772	0.4945	-0.034
Mof_H 	H 	0.7258	0.8004	0.5617	0.146
Mof_H 	H 	0.5629	0.8802	0.5998	0.157
Mof_H 	H 	0.6148	0.9522	0.5309	-0.034
Mof_H 	H 	0.6499	0.7214	0.6145	0.035
Mof_H 	H 	0.7041	0.77	0.6591	0.039
Mof_H 	H 	0.4762	0.6898	0.654	0.034
Mof_H 	H 	0.4694	0.6324	0.6937	0.039
Mof_H 	H 	0.3609	0.6184	0.6163	0.136
Mof_H 	H 	0.2702	0.5762	0.5457	-0.027
Mof_H 	H 	0.4414	0.5386	0.4673	-0.027
Mof_H 	H 	0.5363	0.576	0.5374	0.139
Mof_H 	H 	0.5415	0.7152	0.7635	0.039
Mof_H 	H 	0.5496	0.7724	0.723	0.041
Mof_H 	H 	0.5576	0.821	0.8032	0.159
Mof_H 	H 	0.5909	0.8958	0.8733	-0.038
Mof_H 	H 	0.8242	0.9296	0.8604	-0.041
Mof_H 	H 	0.7979	0.8528	0.7927	0.164
Mof_H 	H 	0.6893	0.6874	0.725	0.037
Mof_H 	H 	0.6492	0.638	0.6778	0.039
Mof_H 	H 	0.7414	0.6332	0.7637	0.142
Mof_H 	H 	0.7904	0.5852	0.8293	-0.037
Mof_H 	H 	0.5637	0.4804	0.8767	-0.025
Mof_H 	H 	0.5083	0.524	0.811	0.156
Mof_H 	H 	0.7247	0.1228	0.4945	-0.039
Mof_H 	H 	0.7742	0.1996	0.5617	0.145
Mof_H 	H 	0.9371	0.1198	0.5998	0.152
Mof_H 	H 	0.8852	0.0478	0.5309	-0.047
Mof_H 	H 	0.8501	0.2786	0.6145	0.034
Mof_H 	H 	0.7959	0.23	0.6591	0.036
Mof_H 	H 	0.0238	0.3102	0.654	0.034
Mof_H 	H 	0.0306	0.3676	0.6937	0.039
Mof_H 	H 	0.1391	0.3816	0.6163	0.136
Mof_H 	H 	0.2298	0.4238	0.5457	-0.027
Mof_H 	H 	0.0586	0.4614	0.4673	-0.027
Mof_H 	H 	0.9637	0.424	0.5374	0.138
Mof_H 	H 	0.9585	0.2848	0.7635	0.038
Mof_H 	H 	0.9504	0.2276	0.723	0.038
Mof_H 	H 	0.9424	0.179	0.8032	0.158
Mof_H 	H 	0.9091	0.1042	0.8733	-0.045
Mof_H 	H 	0.6758	0.0704	0.8604	-0.053
Mof_H 	H 	0.7021	0.1472	0.7927	0.161
Mof_H 	H 	0.8107	0.3126	0.725	0.036
Mof_H 	H 	0.8508	0.362	0.6778	0.039
Mof_H 	H 	0.7586	0.3668	0.7637	0.142
Mof_H 	H 	0.7096	0.4148	0.8293	-0.037
Mof_H 	H 	0.9363	0.5196	0.8767	-0.025
Mof_H 	H 	0.9917	0.476	0.811	0.155
Mof_H 	H 	0.8981	0.1228	0.9945	-0.04
Mof_H 	H 	0.9254	0.1996	0.0617	0.146
Mof_H 	H 	0.6827	0.1198	0.0998	0.152
Mof_H 	H 	0.6626	0.0478	0.0309	-0.047
Mof_H 	H 	0.9285	0.2786	0.1145	0.034
Mof_H 	H 	0.9341	0.23	0.1591	0.036
Mof_H 	H 	0.7864	0.3102	0.154	0.033
Mof_H 	H 	0.837	0.3676	0.1937	0.038
Mof_H 	H 	0.7425	0.3816	0.1163	0.136
Mof_H 	H 	0.694	0.4238	0.0457	-0.027
Mof_H 	H 	0.9028	0.4614	0.9673	-0.027
Mof_H 	H 	0.9603	0.424	0.0374	0.139
Mof_H 	H 	0.8263	0.2848	0.2635	0.038
Mof_H 	H 	0.7772	0.2276	0.223	0.038
Mof_H 	H 	0.7366	0.179	0.3032	0.158
Mof_H 	H 	0.6951	0.1042	0.3733	-0.045
Mof_H 	H 	0.8946	0.0704	0.3604	-0.052
Mof_H 	H 	0.9451	0.1472	0.2927	0.161
Mof_H 	H 	0.0019	0.3126	0.225	0.037
Mof_H 	H 	0.0112	0.362	0.1778	0.039
Mof_H 	H 	0.1082	0.3668	0.2637	0.142
Mof_H 	H 	0.2052	0.4148	0.3293	-0.037
Mof_H 	H 	0.0833	0.5196	0.3767	-0.025
Mof_H 	H 	0.9843	0.476	0.311	0.155
Mof_H 	H 	0.6019	0.8772	0.9945	-0.034
Mof_H 	H 	0.5746	0.8004	0.0617	0.146
Mof_H 	H 	0.8173	0.8802	0.0998	0.157
Mof_H 	H 	0.8374	0.9522	0.0309	-0.034
Mof_H 	H 	0.5715	0.7214	0.1145	0.035
Mof_H 	H 	0.5659	0.77	0.1591	0.039
Mof_H 	H 	0.7136	0.6898	0.154	0.033
Mof_H 	H 	0.663	0.6324	0.1937	0.039
Mof_H 	H 	0.7575	0.6184	0.1163	0.136
Mof_H 	H 	0.806	0.5762	0.0457	-0.027
Mof_H 	H 	0.5972	0.5386	0.9673	-0.027
Mof_H 	H 	0.5397	0.576	0.0374	0.139
Mof_H 	H 	0.6737	0.7152	0.2635	0.039
Mof_H 	H 	0.7228	0.7724	0.223	0.041
Mof_H 	H 	0.7634	0.821	0.3032	0.159
Mof_H 	H 	0.8049	0.8958	0.3733	-0.038
Mof_H 	H 	0.6054	0.9296	0.3604	-0.041
Mof_H 	H 	0.5549	0.8528	0.2927	0.165
Mof_H 	H 	0.4981	0.6874	0.225	0.037
Mof_H 	H 	0.4888	0.638	0.1778	0.039
Mof_H 	H 	0.3918	0.6332	0.2637	0.142
Mof_H 	H 	0.2948	0.5852	0.3293	-0.037
Mof_H 	H 	0.4167	0.4804	0.3767	-0.025
Mof_H 	H 	0.5157	0.524	0.311	0.156
Mof_C 	C 	0.7312	0.8778	0.51606	0.188
Mof_C 	C 	0.70231	0.83162	0.55691	-0.328
Mof_C 	C 	0.6399	0.8324	0.58964	0.346
Mof_C 	C 	0.60681	0.87822	0.57894	-0.326
Mof_C 	C 	0.63852	0.92144	0.53728	0.197
Mof_C 	C 	0.64721	0.74682	0.64559	0.021
Mof_C 	C 	0.59165	0.70256	0.68845	0.016
Mof_C 	C 	0.50424	0.66168	0.66636	0.023
Mof_C 	C 	0.45811	0.60182	0.58416	0.307
Mof_C 	C 	0.37846	0.60172	0.58645	-0.299
Mof_C 	C 	0.32469	0.57658	0.54378	0.161
Mof_C 	C 	0.42454	0.55408	0.49807	0.159
Mof_C 	C 	0.48267	0.57714	0.53966	-0.289
Mof_C 	C 	0.57621	0.74342	0.73559	0.006
Mof_C 	C 	0.67238	0.82536	0.79342	0.382
Mof_C 	C 	0.61328	0.84076	0.8151	-0.366
Mof_C 	C 	0.63437	0.88754	0.85671	0.2
Mof_C 	C 	0.76826	0.90672	0.8499	0.214
Mof_C 	C 	0.75323	0.85986	0.80884	-0.347
Mof_C 	C 	0.63639	0.66038	0.70786	0.018
Mof_C 	C 	0.61889	0.58698	0.78185	0.333
Mof_C 	C 	0.70344	0.60308	0.78697	-0.321
Mof_C 	C 	0.73235	0.5743	0.82696	0.185
Mof_C 	C 	0.60034	0.51288	0.8545	0.175
Mof_C 	C 	0.56679	0.53898	0.81513	-0.306
Mof_C 	C 	0.7688	0.1222	0.51606	0.185
Mof_C 	C 	0.79769	0.16838	0.55691	-0.331
Mof_C 	C 	0.8601	0.1676	0.58964	0.345
Mof_C 	C 	0.89319	0.12178	0.57894	-0.331
Mof_C 	C 	0.86148	0.07856	0.53728	0.194
Mof_C 	C 	0.85279	0.25318	0.64559	0.023
Mof_C 	C 	0.90835	0.29744	0.68845	0.015
Mof_C 	C 	0.99576	0.33832	0.66636	0.022
Mof_C 	C 	0.04189	0.39818	0.58416	0.306
Mof_C 	C 	0.12154	0.39828	0.58645	-0.299
Mof_C 	C 	0.17531	0.42342	0.54378	0.16
Mof_C 	C 	0.07546	0.44592	0.49807	0.158
Mof_C 	C 	0.01733	0.42286	0.53966	-0.287
Mof_C 	C 	0.92379	0.25658	0.73559	0.008
Mof_C 	C 	0.82762	0.17464	0.79342	0.382
Mof_C 	C 	0.88672	0.15924	0.8151	-0.37
Mof_C 	C 	0.86563	0.11246	0.85671	0.197
Mof_C 	C 	0.73174	0.09328	0.8499	0.213
Mof_C 	C 	0.74677	0.14014	0.80884	-0.353
Mof_C 	C 	0.86361	0.33962	0.70786	0.019
Mof_C 	C 	0.88111	0.41302	0.78185	0.333
Mof_C 	C 	0.79656	0.39692	0.78697	-0.321
Mof_C 	C 	0.76765	0.4257	0.82696	0.185
Mof_C 	C 	0.89966	0.48712	0.8545	0.175
Mof_C 	C 	0.93321	0.46102	0.81513	-0.306
Mof_C 	C 	0.8534	0.1222	0.01606	0.186
Mof_C 	C 	0.87069	0.16838	0.05691	-0.331
Mof_C 	C 	0.8075	0.1676	0.08964	0.345
Mof_C 	C 	0.72859	0.12178	0.07894	-0.331
Mof_C 	C 	0.71708	0.07856	0.03728	0.194
Mof_C 	C 	0.90039	0.25318	0.14559	0.023
Mof_C 	C 	0.88909	0.29744	0.18845	0.015
Mof_C 	C 	0.84256	0.33832	0.16636	0.025
Mof_C 	C 	0.85629	0.39818	0.08416	0.306
Mof_C 	C 	0.77674	0.39828	0.08645	-0.3
Mof_C 	C 	0.74811	0.42342	0.04378	0.161
Mof_C 	C 	0.87046	0.44592	0.99807	0.158
Mof_C 	C 	0.90553	0.42286	0.03966	-0.288
Mof_C 	C 	0.83279	0.25658	0.23559	0.008
Mof_C 	C 	0.84702	0.17464	0.29342	0.382
Mof_C 	C 	0.77252	0.15924	0.3151	-0.37
Mof_C 	C 	0.74683	0.11246	0.35671	0.197
Mof_C 	C 	0.86154	0.09328	0.3499	0.213
Mof_C 	C 	0.89337	0.14014	0.30884	-0.353
Mof_C 	C 	0.97601	0.33962	0.20786	0.017
Mof_C 	C 	0.03191	0.41302	0.28185	0.333
Mof_C 	C 	0.10036	0.39692	0.28697	-0.321
Mof_C 	C 	0.15805	0.4257	0.32696	0.185
Mof_C 	C 	0.08746	0.48712	0.3545	0.175
Mof_C 	C 	0.02781	0.46102	0.31513	-0.304
Mof_C 	C 	0.6466	0.8778	0.01606	0.188
Mof_C 	C 	0.62931	0.83162	0.05691	-0.328
Mof_C 	C 	0.6925	0.8324	0.08964	0.346
Mof_C 	C 	0.77141	0.87822	0.07894	-0.326
Mof_C 	C 	0.78292	0.92144	0.03728	0.197
Mof_C 	C 	0.59961	0.74682	0.14559	0.021
Mof_C 	C 	0.61091	0.70256	0.18845	0.016
Mof_C 	C 	0.65744	0.66168	0.16636	0.023
Mof_C 	C 	0.64371	0.60182	0.08416	0.307
Mof_C 	C 	0.72326	0.60172	0.08645	-0.3
Mof_C 	C 	0.75189	0.57658	0.04378	0.161
Mof_C 	C 	0.62954	0.55408	0.99807	0.159
Mof_C 	C 	0.59447	0.57714	0.03966	-0.289
Mof_C 	C 	0.66721	0.74342	0.23559	0.006
Mof_C 	C 	0.65298	0.82536	0.29342	0.382
Mof_C 	C 	0.72748	0.84076	0.3151	-0.366
Mof_C 	C 	0.75317	0.88754	0.35671	0.2
Mof_C 	C 	0.63846	0.90672	0.3499	0.214
Mof_C 	C 	0.60663	0.85986	0.30884	-0.347
Mof_C 	C 	0.52399	0.66038	0.20786	0.018
Mof_C 	C 	0.46809	0.58698	0.28185	0.333
Mof_C 	C 	0.39964	0.60308	0.28697	-0.321
Mof_C 	C 	0.34195	0.5743	0.32696	0.185
Mof_C 	C 	0.41254	0.51288	0.3545	0.175
Mof_C 	C 	0.47219	0.53898	0.31513	-0.306
Mof_N 	N 	0.69966	0.92198	0.50635	-0.202
Mof_N 	N 	0.34722	0.55264	0.4995	-0.194
Mof_N 	N 	0.68352	0.53246	0.8621	-0.2
Mof_N 	N 	0.71262	0.92006	0.87329	-0.212
Mof_N 	N 	0.80034	0.07802	0.50635	-0.211
Mof_N 	N 	0.15278	0.44736	0.4995	-0.194
Mof_N 	N 	0.81648	0.46754	0.8621	-0.2
Mof_N 	N 	0.78738	0.07994	0.87329	-0.221
Mof_N 	N 	0.77768	0.07802	0.00635	-0.211
Mof_N 	N 	0.79458	0.44736	0.9995	-0.194
Mof_N 	N 	0.15106	0.46754	0.3621	-0.2
Mof_N 	N 	0.79256	0.07994	0.37329	-0.221
Mof_N 	N 	0.72232	0.92198	0.00635	-0.202
Mof_N 	N 	0.70542	0.55264	0.9995	-0.194
Mof_N 	N 	0.34894	0.53246	0.3621	-0.2
Mof_N 	N 	0.70744	0.92006	0.37329	-0.212
Mof_O 	O 	0.60865	0.79276	0.63149	-0.265
Mof_O 	O 	0.51813	0.62516	0.62271	-0.256
Mof_O 	O 	0.66483	0.78144	0.7548	-0.27
Mof_O 	O 	0.58203	0.61246	0.74607	-0.261
Mof_O 	O 	0.89135	0.20724	0.63149	-0.268
Mof_O 	O 	0.98187	0.37484	0.62271	-0.256
Mof_O 	O 	0.83517	0.21856	0.7548	-0.272
Mof_O 	O 	0.91797	0.38754	0.74607	-0.261
Mof_O 	O 	0.81589	0.20724	0.13149	-0.268
Mof_O 	O 	0.89297	0.37484	0.12271	-0.256
Mof_O 	O 	0.88339	0.21856	0.2548	-0.272
Mof_O 	O 	0.96957	0.38754	0.24607	-0.261
Mof_O 	O 	0.68411	0.79276	0.13149	-0.265
Mof_O 	O 	0.60703	0.62516	0.12271	-0.256
Mof_O 	O 	0.61661	0.78144	0.2548	-0.27
Mof_O 	O 	0.53043	0.61246	0.24607	-0.261
Mof_Cd	Cd	0.75	0.5	0.56774	0.332
Mof_Cd	Cd	0.25	0.5	0.06774	0.332
Mof_Cd	Cd	0.25	0	0.06071	0.316
Mof_Cd	Cd	0.25	0	0.56071	0.316
Mof_H 	H 	0.1019	0.8772	0.0055	-0.034
Mof_H 	H 	0.0746	0.8004	0.9383	0.147
Mof_H 	H 	0.3173	0.8802	0.9002	0.157
Mof_H 	H 	0.3374	0.9522	0.9691	-0.034
Mof_H 	H 	0.0715	0.7214	0.8855	0.035
Mof_H 	H 	0.0659	0.77	0.8409	0.039
Mof_H 	H 	0.2136	0.6898	0.846	0.033
Mof_H 	H 	0.163	0.6324	0.8063	0.038
Mof_H 	H 	0.2575	0.6184	0.8837	0.136
Mof_H 	H 	0.306	0.5762	0.9543	-0.027
Mof_H 	H 	0.0972	0.5386	0.0327	-0.027
Mof_H 	H 	0.0397	0.576	0.9626	0.14
Mof_H 	H 	0.1737	0.7152	0.7365	0.039
Mof_H 	H 	0.2228	0.7724	0.777	0.041
Mof_H 	H 	0.2634	0.821	0.6968	0.16
Mof_H 	H 	0.3049	0.8958	0.6267	-0.037
Mof_H 	H 	0.1054	0.9296	0.6396	-0.041
Mof_H 	H 	0.0549	0.8528	0.7073	0.165
Mof_H 	H 	0.9981	0.6874	0.775	0.035
Mof_H 	H 	0.9888	0.638	0.8222	0.037
Mof_H 	H 	0.8918	0.6332	0.7363	0.142
Mof_H 	H 	0.7948	0.5852	0.6707	-0.037
Mof_H 	H 	0.9167	0.4804	0.6233	-0.026
Mof_H 	H 	0.0157	0.524	0.689	0.157
Mof_H 	H 	0.3981	0.1228	0.0055	-0.039
Mof_H 	H 	0.4254	0.1996	0.9383	0.146
Mof_H 	H 	0.1827	0.1198	0.9002	0.152
Mof_H 	H 	0.1626	0.0478	0.9691	-0.047
Mof_H 	H 	0.4285	0.2786	0.8855	0.034
Mof_H 	H 	0.4341	0.23	0.8409	0.036
Mof_H 	H 	0.2864	0.3102	0.846	0.033
Mof_H 	H 	0.337	0.3676	0.8063	0.038
Mof_H 	H 	0.2425	0.3816	0.8837	0.136
Mof_H 	H 	0.194	0.4238	0.9543	-0.027
Mof_H 	H 	0.4028	0.4614	0.0327	-0.027
Mof_H 	H 	0.4603	0.424	0.9626	0.139
Mof_H 	H 	0.3263	0.2848	0.7365	0.038
Mof_H 	H 	0.2772	0.2276	0.777	0.038
Mof_H 	H 	0.2366	0.179	0.6968	0.158
Mof_H 	H 	0.1951	0.1042	0.6267	-0.045
Mof_H 	H 	0.3946	0.0704	0.6396	-0.053
Mof_H 	H 	0.4451	0.1472	0.7073	0.161
Mof_H 	H 	0.5019	0.3126	0.775	0.036
Mof_H 	H 	0.5112	0.362	0.8222	0.038
Mof_H 	H 	0.6082	0.3668	0.7363	0.142
Mof_H 	H 	0.7052	0.4148	0.6707	-0.038
Mof_H 	H 	0.5833	0.5196	0.6233	-0.025
Mof_H 	H 	0.4843	0.476	0.689	0.156
Mof_H 	H 	0.2247	0.1228	0.5055	-0.039
Mof_H 	H 	0.2742	0.1996	0.4383	0.146
Mof_H 	H 	0.4371	0.1198	0.4002	0.152
Mof_H 	H 	0.3852	0.0478	0.4691	-0.047
Mof_H 	H 	0.3501	0.2786	0.3855	0.034
Mof_H 	H 	0.2959	0.23	0.3409	0.036
Mof_H 	H 	0.5238	0.3102	0.346	0.032
Mof_H 	H 	0.5306	0.3676	0.3063	0.038
Mof_H 	H 	0.6391	0.3816	0.3837	0.136
Mof_H 	H 	0.7298	0.4238	0.4543	-0.027
Mof_H 	H 	0.5586	0.4614	0.5327	-0.027
Mof_H 	H 	0.4637	0.424	0.4626	0.139
Mof_H 	H 	0.4585	0.2848	0.2365	0.038
Mof_H 	H 	0.4504	0.2276	0.277	0.038
Mof_H 	H 	0.4424	0.179	0.1968	0.158
Mof_H 	H 	0.4091	0.1042	0.1267	-0.045
Mof_H 	H 	0.1758	0.0704	0.1396	-0.052
Mof_H 	H 	0.2021	0.1472	0.2073	0.161
Mof_H 	H 	0.3107	0.3126	0.275	0.036
Mof_H 	H 	0.3508	0.362	0.3222	0.038
Mof_H 	H 	0.2586	0.3668	0.2363	0.142
Mof_H 	H 	0.2096	0.4148	0.1707	-0.037
Mof_H 	H 	0.4363	0.5196	0.1233	-0.025
Mof_H 	H 	0.4917	0.476	0.189	0.156
Mof_H 	H 	0.2753	0.8772	0.5055	-0.034
Mof_H 	H 	0.2258	0.8004	0.4383	0.146
Mof_H 	H 	0.0629	0.8802	0.4002	0.157
Mof_H 	H 	0.1148	0.9522	0.4691	-0.034
Mof_H 	H 	0.1499	0.7214	0.3855	0.035
Mof_H 	H 	0.2041	0.77	0.3409	0.039
Mof_H 	H 	0.9762	0.6898	0.346	0.032
Mof_H 	H 	0.9694	0.6324	0.3063	0.037
Mof_H 	H 	0.8609	0.6184	0.3837	0.136
Mof_H 	H 	0.7702	0.5762	0.4543	-0.027
Mof_H 	H 	0.9414	0.5386	0.5327	-0.028
Mof_H 	H 	0.0363	0.576	0.4626	0.141
Mof_H 	H 	0.0415	0.7152	0.2365	0.039
Mof_H 	H 	0.0496	0.7724	0.277	0.041
Mof_H 	H 	0.0576	0.821	0.1968	0.16
Mof_H 	H 	0.0909	0.8958	0.1267	-0.037
Mof_H 	H 	0.3242	0.9296	0.1396	-0.041
Mof_H 	H 	0.2979	0.8528	0.2073	0.165
Mof_H 	H 	0.1893	0.6874	0.275	0.037
Mof_H 	H 	0.1492	0.638	0.3222	0.039
Mof_H 	H 	0.2414	0.6332	0.2363	0.142
Mof_H 	H 	0.2904	0.5852	0.1707	-0.037
Mof_H 	H 	0.0637	0.4804	0.1233	-0.025
Mof_H 	H 	0.0083	0.524	0.189	0.156
Mof_C 	C 	0.1466	0.8778	0.98394	0.189
Mof_C 	C 	0.12931	0.83162	0.94309	-0.328
Mof_C 	C 	0.1925	0.8324	0.91036	0.347
Mof_C 	C 	0.27141	0.87822	0.92106	-0.327
Mof_C 	C 	0.28292	0.92144	0.96272	0.197
Mof_C 	C 	0.09961	0.74682	0.85441	0.022
Mof_C 	C 	0.11091	0.70256	0.81155	0.015
Mof_C 	C 	0.15744	0.66168	0.83364	0.024
Mof_C 	C 	0.14371	0.60182	0.91584	0.307
Mof_C 	C 	0.22326	0.60172	0.91355	-0.299
Mof_C 	C 	0.25189	0.57658	0.95622	0.161
Mof_C 	C 	0.12954	0.55408	0.00193	0.159
Mof_C 	C 	0.09447	0.57714	0.96034	-0.288
Mof_C 	C 	0.16721	0.74342	0.76441	0.007
Mof_C 	C 	0.15298	0.82536	0.70658	0.382
Mof_C 	C 	0.22748	0.84076	0.6849	-0.366
Mof_C 	C 	0.25317	0.88754	0.64329	0.2
Mof_C 	C 	0.13846	0.90672	0.6501	0.215
Mof_C 	C 	0.10663	0.85986	0.69116	-0.347
Mof_C 	C 	0.02399	0.66038	0.79214	0.023
Mof_C 	C 	0.96809	0.58698	0.71815	0.333
Mof_C 	C 	0.89964	0.60308	0.71303	-0.321
Mof_C 	C 	0.84195	0.5743	0.67304	0.186
Mof_C 	C 	0.91254	0.51288	0.6455	0.176
Mof_C 	C 	0.97219	0.53898	0.68487	-0.308
Mof_C 	C 	0.3534	0.1222	0.98394	0.185
Mof_C 	C 	0.37069	0.16838	0.94309	-0.331
Mof_C 	C 	0.3075	0.1676	0.91036	0.345
Mof_C 	C 	0.22859	0.12178	0.92106	-0.331
Mof_C 	C 	0.21708	0.07856	0.96272	0.194
Mof_C 	C 	0.40039	0.25318	0.85441	0.023
Mof_C 	C 	0.38909	0.29744	0.81155	0.014
Mof_C 	C 	0.34256	0.33832	0.83364	0.025
Mof_C 	C 	0.35629	0.39818	0.91584	0.307
Mof_C 	C 	0.27674	0.39828	0.91355	-0.3
Mof_C 	C 	0.24811	0.42342	0.95622	0.161
Mof_C 	C 	0.37046	0.44592	0.00193	0.159
Mof_C 	C 	0.40553	0.42286	0.96034	-0.289
Mof_C 	C 	0.33279	0.25658	0.76441	0.009
Mof_C 	C 	0.34702	0.17464	0.70658	0.382
Mof_C 	C 	0.27252	0.15924	0.6849	-0.37
Mof_C 	C 	0.24683	0.11246	0.64329	0.197
Mof_C 	C 	0.36154	0.09328	0.6501	0.213
Mof_C 	C 	0.39337	0.14014	0.69116	-0.353
Mof_C 	C 	0.47601	0.33962	0.79214	0.019
Mof_C 	C 	0.53191	0.41302	0.71815	0.333
Mof_C 	C 	0.60036	0.39692	0.71303	-0.321
Mof_C 	C 	0.65805	0.4257	0.67304	0.185
Mof_C 	C 	0.58746	0.48712	0.6455	0.175
Mof_C 	C 	0.52781	0.46102	0.68487	-0.306
Mof_C 	C 	0.2688	0.1222	0.48394	0.185
Mof_C 	C 	0.29769	0.16838	0.44309	-0.331
Mof_C 	C 	0.3601	0.1676	0.41036	0.345
Mof_C 	C 	0.39319	0.12178	0.42106	-0.331
Mof_C 	C 	0.36148	0.07856	0.46272	0.194
Mof_C 	C 	0.35279	0.25318	0.35441	0.023
Mof_C 	C 	0.40835	0.29744	0.31155	0.014
Mof_C 	C 	0.49576	0.33832	0.33364	0.025
Mof_C 	C 	0.54189	0.39818	0.41584	0.307
Mof_C 	C 	0.62154	0.39828	0.41355	-0.3
Mof_C 	C 	0.67531	0.42342	0.45622	0.161
Mof_C 	C 	0.57546	0.44592	0.50193	0.159
Mof_C 	C 	0.51733	0.42286	0.46034	-0.289
Mof_C 	C 	0.42379	0.25658	0.26441	0.009
Mof_C 	C 	0.32762	0.17464	0.20658	0.382
Mof_C 	C 	0.38672	0.15924	0.1849	-0.37
Mof_C 	C 	0.36563	0.11246	0.14329	0.197
Mof_C 	C 	0.23174	0.09328	0.1501	0.213
Mof_C 	C 	0.24677	0.14014	0.19116	-0.353
Mof_C 	C 	0.36361	0.33962	0.29214	0.019
Mof_C 	C 	0.38111	0.41302	0.21815	0.333
Mof_C 	C 	0.29656	0.39692	0.21303	-0.321
Mof_C 	C 	0.26765	0.4257	0.17304	0.185
Mof_C 	C 	0.39966	0.48712	0.1455	0.175
Mof_C 	C 	0.43321	0.46102	0.18487	-0.306
Mof_C 	C 	0.2312	0.8778	0.48394	0.188
Mof_C 	C 	0.20231	0.83162	0.44309	-0.328
Mof_C 	C 	0.1399	0.8324	0.41036	0.346
Mof_C 	C 	0.10681	0.87822	0.42106	-0.326
Mof_C 	C 	0.13852	0.92144	0.46272	0.197
Mof_C 	C 	0.14721	0.74682	0.35441	0.021
Mof_C 	C 	0.09165	0.70256	0.31155	0.015
Mof_C 	C 	0.00424	0.66168	0.33364	0.027
Mof_C 	C 	0.95811	0.60182	0.41584	0.307
Mof_C 	C 	0.87846	0.60172	0.41355	-0.3
Mof_C 	C 	0.82469	0.57658	0.45622	0.161
Mof_C 	C 	0.92454	0.55408	0.50193	0.16
Mof_C 	C 	0.98267	0.57714	0.46034	-0.291
Mof_C 	C 	0.07621	0.74342	0.26441	0.007
Mof_C 	C 	0.17238	0.82536	0.20658	0.382
Mof_C 	C 	0.11328	0.84076	0.1849	-0.366
Mof_C 	C 	0.13437	0.88754	0.14329	0.2
Mof_C 	C 	0.26826	0.90672	0.1501	0.215
Mof_C 	C 	0.25323	0.85986	0.19116	-0.347
Mof_C 	C 	0.13639	0.66038	0.29214	0.018
Mof_C 	C 	0.11889	0.58698	0.21815	0.333
Mof_C 	C 	0.20344	0.60308	0.21303	-0.321
Mof_C 	C 	0.23235	0.5743	0.17304	0.185
Mof_C 	C 	0.10034	0.51288	0.1455	0.175
Mof_C 	C 	0.06679	0.53898	0.18487	-0.306
Mof_N 	N 	0.22232	0.92198	0.99365	-0.202
Mof_N 	N 	0.20542	0.55264	0.0005	-0.194
Mof_N 	N 	0.84894	0.53246	0.6379	-0.201
Mof_N 	N 	0.20744	0.92006	0.62671	-0.212
Mof_N 	N 	0.27768	0.07802	0.99365	-0.211
Mof_N 	N 	0.29458	0.44736	0.0005	-0.195
Mof_N 	N 	0.65106	0.46754	0.6379	-0.2
Mof_N 	N 	0.29256	0.07994	0.62671	-0.221
Mof_N 	N 	0.30034	0.07802	0.49365	-0.211
Mof_N 	N 	0.65278	0.44736	0.5005	-0.194
Mof_N 	N 	0.31648	0.46754	0.1379	-0.2
Mof_N 	N 	0.28738	0.07994	0.12671	-0.221
Mof_N 	N 	0.19966	0.92198	0.49365	-0.201
Mof_N 	N 	0.84722	0.55264	0.5005	-0.195
Mof_N 	N 	0.18352	0.53246	0.1379	-0.2
Mof_N 	N 	0.21262	0.92006	0.12671	-0.212
Mof_O 	O 	0.18411	0.79276	0.86851	-0.265
Mof_O 	O 	0.10703	0.62516	0.87729	-0.256
Mof_O 	O 	0.11661	0.78144	0.7452	-0.27
Mof_O 	O 	0.03043	0.61246	0.75393	-0.261
Mof_O 	O 	0.31589	0.20724	0.86851	-0.268
Mof_O 	O 	0.39297	0.37484	0.87729	-0.256
Mof_O 	O 	0.38339	0.21856	0.7452	-0.272
Mof_O 	O 	0.46957	0.38754	0.75393	-0.261
Mof_O 	O 	0.39135	0.20724	0.36851	-0.268
Mof_O 	O 	0.48187	0.37484	0.37729	-0.256
Mof_O 	O 	0.33517	0.21856	0.2452	-0.272
Mof_O 	O 	0.41797	0.38754	0.25393	-0.261
Mof_O 	O 	0.10865	0.79276	0.36851	-0.265
Mof_O 	O 	0.01813	0.62516	0.37729	-0.256
Mof_O 	O 	0.16483	0.78144	0.2452	-0.27
Mof_O 	O 	0.08203	0.61246	0.25393	-0.261
_end
