data_functionalizedCrystal
_audit_creation_method	'EQeq! by Chris Wilmer'
_symmetry_space_group_name_H-M	'P1'
_symmetry_Int_Tables_number	1
_symmetry_cell_setting	triclinic
loop_
_symmetry_equiv_pos_as_xyz
  x,y,z
_cell_length_a	9.1432
_cell_length_b	13.692
_cell_length_c	22.304
_cell_angle_alpha	90
_cell_angle_beta	90
_cell_angle_gamma	90.43
loop_
_atom_site_label
_atom_site_type_symbol
_atom_site_fract_x
_atom_site_fract_y
_atom_site_fract_z
_atom_site_charge
Mof_Lu	Lu	0.96318	0.97952	0.329	3.135
Mof_Lu	Lu	0.46736	0.22923	0.42466	1.632
Mof_Lu	Lu	0.03682	0.52048	0.829	3.165
Mof_Lu	Lu	0.53264	0.27077	0.92466	1.631
Mof_Lu	Lu	0.03682	0.02048	0.671	3.134
Mof_Lu	Lu	0.53264	0.77077	0.57534	1.631
Mof_Lu	Lu	0.96318	0.47952	0.171	3.164
Mof_Lu	Lu	0.46736	0.72923	0.07534	1.63
Mof_C 	C 	0.7581	0.0742	0.2246	0.383
Mof_C 	C 	0.8714	0.1563	0.2332	-0.042
Mof_C 	C 	0.8763	0.2478	0.2028	-0.01
Mof_C 	C 	0.8067	0.2754	0.1416	0.357
Mof_C 	C 	0.1016	0.4065	0.2952	0.356
Mof_C 	C 	0.0446	0.3088	0.2745	-0.024
Mof_C 	C 	0.0528	0.2156	0.2986	-0.061
Mof_C 	C 	0.1659	0.1775	0.3439	0.467
Mof_C 	C 	0.1369	0.8489	0.4267	0.37
Mof_C 	C 	0.0754	0.9297	0.4674	-0.034
Mof_C 	C 	0.1052	0.9464	0.5311	-0.067
Mof_C 	C 	0.2226	0.9055	0.5695	0.425
Mof_C 	C 	0.2419	0.4258	0.7246	0.375
Mof_C 	C 	0.1286	0.3437	0.7332	-0.042
Mof_C 	C 	0.1237	0.2522	0.7028	-0.012
Mof_C 	C 	0.1933	0.2246	0.6416	0.356
Mof_C 	C 	0.8984	0.0935	0.7952	0.355
Mof_C 	C 	0.9554	0.1912	0.7745	-0.019
Mof_C 	C 	0.9472	0.2844	0.7986	-0.054
Mof_C 	C 	0.8341	0.3225	0.8439	0.467
Mof_C 	C 	0.8631	0.6511	0.9267	0.371
Mof_C 	C 	0.9246	0.5703	0.9674	-0.034
Mof_C 	C 	0.8948	0.5536	0.0311	-0.08
Mof_C 	C 	0.7774	0.5945	0.0695	0.428
Mof_C 	C 	0.2419	0.9258	0.7754	0.383
Mof_C 	C 	0.1286	0.8437	0.7668	-0.042
Mof_C 	C 	0.1237	0.7522	0.7972	-0.01
Mof_C 	C 	0.1933	0.7246	0.8584	0.357
Mof_C 	C 	0.8984	0.5935	0.7048	0.356
Mof_C 	C 	0.9554	0.6912	0.7255	-0.024
Mof_C 	C 	0.9472	0.7844	0.7014	-0.061
Mof_C 	C 	0.8341	0.8225	0.6561	0.467
Mof_C 	C 	0.8631	0.1511	0.5733	0.37
Mof_C 	C 	0.9246	0.0703	0.5326	-0.034
Mof_C 	C 	0.8948	0.0536	0.4689	-0.067
Mof_C 	C 	0.7774	0.0945	0.4305	0.425
Mof_C 	C 	0.7581	0.5742	0.2754	0.375
Mof_C 	C 	0.8714	0.6563	0.2668	-0.042
Mof_C 	C 	0.8763	0.7478	0.2972	-0.012
Mof_C 	C 	0.8067	0.7754	0.3584	0.356
Mof_C 	C 	0.1016	0.9065	0.2048	0.355
Mof_C 	C 	0.0446	0.8088	0.2255	-0.019
Mof_C 	C 	0.0528	0.7156	0.2014	-0.054
Mof_C 	C 	0.1659	0.6775	0.1561	0.467
Mof_C 	C 	0.1369	0.3489	0.0733	0.371
Mof_C 	C 	0.0754	0.4297	0.0326	-0.034
Mof_C 	C 	0.1052	0.4464	0.9689	-0.08
Mof_C 	C 	0.2226	0.4055	0.9305	0.428
Mof_N 	N 	0.9652	0.1429	0.2783	-0.255
Mof_N 	N 	0.9552	0.3208	0.2244	-0.276
Mof_N 	N 	0.9718	0.9852	0.4411	-0.27
Mof_N 	N 	0.0348	0.3571	0.7783	-0.264
Mof_N 	N 	0.0448	0.1792	0.7244	-0.28
Mof_N 	N 	0.0282	0.5148	0.9411	-0.264
Mof_N 	N 	0.0348	0.8571	0.7217	-0.255
Mof_N 	N 	0.0448	0.6792	0.7756	-0.276
Mof_N 	N 	0.0282	0.0148	0.5589	-0.27
Mof_N 	N 	0.9652	0.6429	0.2217	-0.264
Mof_N 	N 	0.9552	0.8208	0.2756	-0.28
Mof_N 	N 	0.9718	0.4852	0.0589	-0.264
Mof_O 	O 	0.7916	0.9966	0.2552	-0.634
Mof_O 	O 	0.649	0.0868	0.1943	-0.3
Mof_O 	O 	0.777	0.2085	0.1055	-0.303
Mof_O 	O 	0.7955	0.3674	0.1342	-0.626
Mof_O 	O 	0.1224	0.4682	0.2535	-0.589
Mof_O 	O 	0.129	0.4172	0.3496	-0.294
Mof_O 	O 	0.264	0.232	0.3607	-0.575
Mof_O 	O 	0.1459	0.0905	0.3623	-0.657
Mof_O 	O 	0.137	0.8742	0.3723	-0.59
Mof_O 	O 	0.1697	0.7697	0.4487	-0.306
Mof_O 	O 	0.3277	0.8601	0.5446	-0.559
Mof_O 	O 	0.2071	0.9191	0.6257	-0.659
Mof_O 	O 	0.2084	0.5034	0.7552	-0.63
Mof_O 	O 	0.351	0.4132	0.6943	-0.299
Mof_O 	O 	0.223	0.2915	0.6055	-0.304
Mof_O 	O 	0.2045	0.1326	0.6342	-0.624
Mof_O 	O 	0.8776	0.0318	0.7535	-0.582
Mof_O 	O 	0.871	0.0828	0.8496	-0.291
Mof_O 	O 	0.736	0.268	0.8607	-0.574
Mof_O 	O 	0.8541	0.4095	0.8623	-0.656
Mof_O 	O 	0.863	0.6258	0.8723	-0.596
Mof_O 	O 	0.8303	0.7303	0.9487	-0.307
Mof_O 	O 	0.6723	0.6399	0.0446	-0.561
Mof_O 	O 	0.7929	0.5809	0.1257	-0.667
Mof_O 	O 	0.2084	0.0034	0.7448	-0.634
Mof_O 	O 	0.351	0.9132	0.8057	-0.3
Mof_O 	O 	0.223	0.7915	0.8945	-0.303
Mof_O 	O 	0.2045	0.6326	0.8658	-0.626
Mof_O 	O 	0.8776	0.5318	0.7465	-0.589
Mof_O 	O 	0.871	0.5828	0.6504	-0.294
Mof_O 	O 	0.736	0.768	0.6393	-0.575
Mof_O 	O 	0.8541	0.9095	0.6377	-0.657
Mof_O 	O 	0.863	0.1258	0.6277	-0.59
Mof_O 	O 	0.8303	0.2303	0.5513	-0.306
Mof_O 	O 	0.6723	0.1399	0.4554	-0.559
Mof_O 	O 	0.7929	0.0809	0.3743	-0.659
Mof_O 	O 	0.7916	0.4966	0.2448	-0.63
Mof_O 	O 	0.649	0.5868	0.3057	-0.299
Mof_O 	O 	0.777	0.7085	0.3945	-0.304
Mof_O 	O 	0.7955	0.8674	0.3658	-0.624
Mof_O 	O 	0.1224	0.9682	0.2465	-0.582
Mof_O 	O 	0.129	0.9172	0.1504	-0.291
Mof_O 	O 	0.264	0.732	0.1393	-0.574
Mof_O 	O 	0.1459	0.5905	0.1377	-0.656
Mof_O 	O 	0.137	0.3742	0.1277	-0.596
Mof_O 	O 	0.1697	0.2697	0.0513	-0.307
Mof_O 	O 	0.3277	0.3601	0.9554	-0.561
Mof_O 	O 	0.2071	0.4191	0.8743	-0.667
_end
