data_functionalizedCrystal
_audit_creation_method	'EQeq! by Chris Wilmer'
_symmetry_space_group_name_H-M	'P1'
_symmetry_Int_Tables_number	1
_symmetry_cell_setting	triclinic
loop_
_symmetry_equiv_pos_as_xyz
  x,y,z
_cell_length_a	12.0317
_cell_length_b	19.515
_cell_length_c	17.2834
_cell_angle_alpha	90
_cell_angle_beta	122.332
_cell_angle_gamma	90
loop_
_atom_site_label
_atom_site_type_symbol
_atom_site_fract_x
_atom_site_fract_y
_atom_site_fract_z
_atom_site_charge
Mof_Eu	Eu	0.73544	0.73014	0.55654	2.626
Mof_Eu	Eu	0.68554	0.76747	0.76588	2.593
Mof_Cl	Cl	0.76445	0.80849	0.42863	-0.73
Mof_O 	O 	0.4459	0.31177	0.5745	-0.642
Mof_O 	O 	0.4571	0.32708	0.7051	-0.608
Mof_O 	O 	0.7121	0.6513	0.7439	-0.587
Mof_O 	O 	0.7488	0.62847	0.6338	-0.596
Mof_O 	O 	0.9625	0.751	0.1699	-0.549
Mof_O 	O 	0.8624	0.73581	0.2434	-0.678
Mof_O 	O 	0.4579	0.7268	0.657	-0.505
Mof_O 	O 	0.5679	0.73933	0.5903	-0.701
Mof_O 	O 	0.8356	0.65258	0.5103	-0.626
Mof_O 	O 	0.8243	0.65444	0.3783	-0.623
Mof_O 	O 	0.6425	0.86825	0.6757	-0.569
Mof_O 	O 	0.6999	0.84567	0.5753	-0.597
Mof_C 	C 	0.5361	0.4152	0.654	-0.165
Mof_C 	C 	0.5342	0.4634	0.7122	0.022
Mof_H 	H 	0.4949	0.4529	0.7446	0.03
Mof_C 	C 	0.5902	0.5271	0.7217	-0.012
Mof_H 	H 	0.589	0.5593	0.761	0.049
Mof_C 	C 	0.6486	0.5434	0.6735	-0.125
Mof_C 	C 	0.6493	0.4956	0.6153	-0.016
Mof_H 	H 	0.6879	0.5064	0.5824	0.043
Mof_C 	C 	0.5934	0.4317	0.605	0.024
Mof_H 	H 	0.5943	0.3998	0.5654	0.026
Mof_C 	C 	0.4741	0.3466	0.6438	0.566
Mof_C 	C 	0.7076	0.613	0.6842	0.524
Mof_C 	C 	0.0953	0.7327	0.3299	-0.119
Mof_C 	C 	0.1068	0.6983	0.4035	-0
Mof_H 	H 	0.0337	0.6769	0.3978	0.033
Mof_C 	C 	0.2264	0.6955	0.4856	-0.007
Mof_H 	H 	0.2335	0.6722	0.535	0.044
Mof_C 	C 	0.3354	0.7274	0.4946	-0.127
Mof_C 	C 	0.325	0.76	0.4204	0.026
Mof_H 	H 	0.3987	0.7804	0.4258	0.011
Mof_C 	C 	0.2059	0.7627	0.3385	-0.021
Mof_H 	H 	0.1996	0.7846	0.2885	0.051
Mof_C 	C 	0.9655	0.7401	0.2421	0.484
Mof_C 	C 	0.4609	0.7302	0.5864	0.458
Mof_C 	C 	0.9315	0.5616	0.4773	-0.16
Mof_C 	C 	0.9498	0.5286	0.4152	0.01
Mof_H 	H 	0.916	0.5476	0.3574	0.034
Mof_C 	C 	0.9823	0.5327	0.563	0.005
Mof_H 	H 	0.9708	0.5546	0.6061	0.039
Mof_C 	C 	0.8577	0.6279	0.4535	0.579
Mof_C 	C 	0.5716	0.9436	0.5513	-0.129
Mof_C 	C 	0.5292	0.9476	0.46	0.004
Mof_H 	H 	0.5493	0.9126	0.433	0.036
Mof_C 	C 	0.5436	0.9963	0.5919	-0.001
Mof_H 	H 	0.5733	0.9941	0.6538	0.039
Mof_C 	C 	0.6458	0.881	0.6061	0.526
Mof_Eu	Eu	0.26456	0.23014	0.94346	2.626
Mof_Eu	Eu	0.31446	0.26747	0.73412	2.594
Mof_Cl	Cl	0.23555	0.30849	0.07137	-0.728
Mof_O 	O 	0.5541	0.81177	0.9255	-0.64
Mof_O 	O 	0.5429	0.82708	0.7949	-0.607
Mof_O 	O 	0.2879	0.1513	0.7561	-0.586
Mof_O 	O 	0.2512	0.12847	0.8662	-0.595
Mof_O 	O 	0.0375	0.251	0.3301	-0.548
Mof_O 	O 	0.1376	0.23581	0.2566	-0.677
Mof_O 	O 	0.5421	0.2268	0.843	-0.504
Mof_O 	O 	0.4321	0.23933	0.9097	-0.7
Mof_O 	O 	0.1644	0.15258	0.9897	-0.627
Mof_O 	O 	0.1757	0.15444	0.1217	-0.623
Mof_O 	O 	0.3575	0.36825	0.8243	-0.569
Mof_O 	O 	0.3001	0.34567	0.9247	-0.597
Mof_C 	C 	0.4639	0.9152	0.846	-0.162
Mof_C 	C 	0.4658	0.9634	0.7878	0.021
Mof_H 	H 	0.5051	0.9529	0.7554	0.031
Mof_C 	C 	0.4098	0.0271	0.7783	-0.01
Mof_H 	H 	0.411	0.0593	0.739	0.048
Mof_C 	C 	0.3514	0.0434	0.8265	-0.13
Mof_C 	C 	0.3507	0.9956	0.8847	-0.005
Mof_H 	H 	0.3121	0.0064	0.9176	0.038
Mof_C 	C 	0.4066	0.9317	0.895	0.019
Mof_H 	H 	0.4057	0.8998	0.9346	0.028
Mof_C 	C 	0.5259	0.8466	0.8562	0.565
Mof_C 	C 	0.2924	0.113	0.8158	0.526
Mof_C 	C 	0.9047	0.2327	0.1701	-0.119
Mof_C 	C 	0.8932	0.1983	0.0965	-0.001
Mof_H 	H 	0.9663	0.1769	0.1022	0.034
Mof_C 	C 	0.7736	0.1955	0.0144	-0.005
Mof_H 	H 	0.7665	0.1722	0.965	0.042
Mof_C 	C 	0.6646	0.2274	0.0054	-0.126
Mof_C 	C 	0.675	0.26	0.0796	0.026
Mof_H 	H 	0.6013	0.2804	0.0742	0.011
Mof_C 	C 	0.7941	0.2627	0.1615	-0.021
Mof_H 	H 	0.8004	0.2846	0.2115	0.051
Mof_C 	C 	0.0345	0.2401	0.2579	0.484
Mof_C 	C 	0.5391	0.2302	0.9136	0.457
Mof_C 	C 	0.0685	0.0616	0.0227	-0.157
Mof_C 	C 	0.0502	0.0286	0.0848	0.014
Mof_H 	H 	0.084	0.0476	0.1426	0.033
Mof_C 	C 	0.0177	0.0327	0.937	-0.001
Mof_H 	H 	0.0292	0.0546	0.8939	0.04
Mof_C 	C 	0.1423	0.1279	0.0465	0.58
Mof_C 	C 	0.4284	0.4436	0.9487	-0.13
Mof_C 	C 	0.4708	0.4476	0.04	0.005
Mof_H 	H 	0.4507	0.4126	0.067	0.036
Mof_C 	C 	0.4564	0.4963	0.9081	-0.001
Mof_H 	H 	0.4267	0.4941	0.8462	0.039
Mof_C 	C 	0.3542	0.381	0.8939	0.526
Mof_Eu	Eu	0.26456	0.26986	0.44346	2.627
Mof_Eu	Eu	0.31446	0.23253	0.23412	2.594
Mof_Cl	Cl	0.23555	0.19151	0.57137	-0.729
Mof_O 	O 	0.5541	0.68823	0.4255	-0.641
Mof_O 	O 	0.5429	0.67292	0.2949	-0.607
Mof_O 	O 	0.2879	0.3487	0.2561	-0.586
Mof_O 	O 	0.2512	0.37153	0.3662	-0.595
Mof_O 	O 	0.0375	0.249	0.8301	-0.548
Mof_O 	O 	0.1376	0.26419	0.7566	-0.677
Mof_O 	O 	0.5421	0.2732	0.343	-0.504
Mof_O 	O 	0.4321	0.26067	0.4097	-0.7
Mof_O 	O 	0.1644	0.34742	0.4897	-0.625
Mof_O 	O 	0.1757	0.34556	0.6217	-0.623
Mof_O 	O 	0.3575	0.13175	0.3243	-0.569
Mof_O 	O 	0.3001	0.15433	0.4247	-0.597
Mof_C 	C 	0.4639	0.5848	0.346	-0.165
Mof_C 	C 	0.4658	0.5366	0.2878	0.022
Mof_H 	H 	0.5051	0.5471	0.2554	0.03
Mof_C 	C 	0.4098	0.4729	0.2783	-0.012
Mof_H 	H 	0.411	0.4407	0.239	0.049
Mof_C 	C 	0.3514	0.4566	0.3265	-0.125
Mof_C 	C 	0.3507	0.5044	0.3847	-0.016
Mof_H 	H 	0.3121	0.4936	0.4176	0.043
Mof_C 	C 	0.4066	0.5683	0.395	0.024
Mof_H 	H 	0.4057	0.6002	0.4346	0.026
Mof_C 	C 	0.5259	0.6534	0.3562	0.566
Mof_C 	C 	0.2924	0.387	0.3158	0.524
Mof_C 	C 	0.9047	0.2673	0.6701	-0.119
Mof_C 	C 	0.8932	0.3017	0.5965	-0
Mof_H 	H 	0.9663	0.3231	0.6022	0.033
Mof_C 	C 	0.7736	0.3045	0.5144	-0.007
Mof_H 	H 	0.7665	0.3278	0.465	0.044
Mof_C 	C 	0.6646	0.2726	0.5054	-0.127
Mof_C 	C 	0.675	0.24	0.5796	0.026
Mof_H 	H 	0.6013	0.2196	0.5742	0.011
Mof_C 	C 	0.7941	0.2373	0.6615	-0.021
Mof_H 	H 	0.8004	0.2154	0.7115	0.051
Mof_C 	C 	0.0345	0.2599	0.7579	0.484
Mof_C 	C 	0.5391	0.2698	0.4136	0.458
Mof_C 	C 	0.0685	0.4384	0.5227	-0.16
Mof_C 	C 	0.0502	0.4714	0.5848	0.01
Mof_H 	H 	0.084	0.4524	0.6426	0.034
Mof_C 	C 	0.0177	0.4673	0.437	0.005
Mof_H 	H 	0.0292	0.4454	0.3939	0.039
Mof_C 	C 	0.1423	0.3721	0.5465	0.579
Mof_C 	C 	0.4284	0.0564	0.4487	-0.129
Mof_C 	C 	0.4708	0.0524	0.54	0.004
Mof_H 	H 	0.4507	0.0874	0.567	0.036
Mof_C 	C 	0.4564	0.0037	0.4081	-0.001
Mof_H 	H 	0.4267	0.0059	0.3462	0.039
Mof_C 	C 	0.3542	0.119	0.3939	0.526
Mof_Eu	Eu	0.73544	0.76986	0.05654	2.626
Mof_Eu	Eu	0.68554	0.73253	0.26588	2.594
Mof_Cl	Cl	0.76445	0.69151	0.92863	-0.728
Mof_O 	O 	0.4459	0.18823	0.0745	-0.64
Mof_O 	O 	0.4571	0.17292	0.2051	-0.607
Mof_O 	O 	0.7121	0.8487	0.2439	-0.586
Mof_O 	O 	0.7488	0.87153	0.1338	-0.595
Mof_O 	O 	0.9625	0.749	0.6699	-0.548
Mof_O 	O 	0.8624	0.76419	0.7434	-0.677
Mof_O 	O 	0.4579	0.7732	0.157	-0.504
Mof_O 	O 	0.5679	0.76067	0.0903	-0.7
Mof_O 	O 	0.8356	0.84742	0.0103	-0.627
Mof_O 	O 	0.8243	0.84556	0.8783	-0.623
Mof_O 	O 	0.6425	0.63175	0.1757	-0.569
Mof_O 	O 	0.6999	0.65433	0.0753	-0.597
Mof_C 	C 	0.5361	0.0848	0.154	-0.162
Mof_C 	C 	0.5342	0.0366	0.2122	0.021
Mof_H 	H 	0.4949	0.0471	0.2446	0.031
Mof_C 	C 	0.5902	0.9729	0.2217	-0.01
Mof_H 	H 	0.589	0.9407	0.261	0.048
Mof_C 	C 	0.6486	0.9566	0.1735	-0.13
Mof_C 	C 	0.6493	0.0044	0.1153	-0.005
Mof_H 	H 	0.6879	0.9936	0.0824	0.038
Mof_C 	C 	0.5934	0.0683	0.105	0.019
Mof_H 	H 	0.5943	0.1002	0.0654	0.028
Mof_C 	C 	0.4741	0.1534	0.1438	0.565
Mof_C 	C 	0.7076	0.887	0.1842	0.526
Mof_C 	C 	0.0953	0.7673	0.8299	-0.119
Mof_C 	C 	0.1068	0.8017	0.9035	-0.001
Mof_H 	H 	0.0337	0.8231	0.8978	0.034
Mof_C 	C 	0.2264	0.8045	0.9856	-0.005
Mof_H 	H 	0.2335	0.8278	0.035	0.042
Mof_C 	C 	0.3354	0.7726	0.9946	-0.126
Mof_C 	C 	0.325	0.74	0.9204	0.026
Mof_H 	H 	0.3987	0.7196	0.9258	0.011
Mof_C 	C 	0.2059	0.7373	0.8385	-0.021
Mof_H 	H 	0.1996	0.7154	0.7885	0.051
Mof_C 	C 	0.9655	0.7599	0.7421	0.484
Mof_C 	C 	0.4609	0.7698	0.0864	0.457
Mof_C 	C 	0.9315	0.9384	0.9773	-0.157
Mof_C 	C 	0.9498	0.9714	0.9152	0.014
Mof_H 	H 	0.916	0.9524	0.8574	0.033
Mof_C 	C 	0.9823	0.9673	0.063	-0.001
Mof_H 	H 	0.9708	0.9454	0.1061	0.04
Mof_C 	C 	0.8577	0.8721	0.9535	0.58
Mof_C 	C 	0.5716	0.5564	0.0513	-0.13
Mof_C 	C 	0.5292	0.5524	0.96	0.005
Mof_H 	H 	0.5493	0.5874	0.933	0.036
Mof_C 	C 	0.5436	0.5037	0.0919	-0.001
Mof_H 	H 	0.5733	0.5059	0.1538	0.039
Mof_C 	C 	0.6458	0.619	0.1061	0.526
_end
