data_functionalizedCrystal
_audit_creation_method	'EQeq! by Chris Wilmer'
_symmetry_space_group_name_H-M	'P1'
_symmetry_Int_Tables_number	1
_symmetry_cell_setting	triclinic
loop_
_symmetry_equiv_pos_as_xyz
  x,y,z
_cell_length_a	12.6177
_cell_length_b	12.5869
_cell_length_c	28.561
_cell_angle_alpha	90
_cell_angle_beta	96.843
_cell_angle_gamma	90
loop_
_atom_site_label
_atom_site_type_symbol
_atom_site_fract_x
_atom_site_fract_y
_atom_site_fract_z
_atom_site_charge
Mof_Cd	Cd	0.56515	0.3311	0.61116	0.403
Mof_Cd	Cd	0.35594	0.54012	0.60874	0.407
Mof_O 	O 	0.442	0.4281	0.5636	-0.247
Mof_N 	N 	0.9758	0.066	0.8464	-0.064
Mof_N 	N 	0.5274	0.7658	0.5331	-0.082
Mof_N 	N 	0.9	0.9911	0.8452	-0.06
Mof_N 	N 	0.9455	0.1368	0.812	-0.088
Mof_N 	N 	0.6794	0.2432	0.67	-0.146
Mof_N 	N 	0.3229	0.5288	0.4609	-0.065
Mof_N 	N 	0.5248	0.1596	0.579	-0.154
Mof_N 	N 	0.08	0.8125	0.8414	-0.067
Mof_N 	N 	0.213	0.8703	0.8076	-0.089
Mof_N 	N 	0.3902	0.7835	0.5742	-0.091
Mof_N 	N 	0.482	0.6687	0.5362	-0.065
Mof_N 	N 	0.2014	0.6292	0.4236	-0.092
Mof_N 	N 	0.1518	0.8879	0.842	-0.067
Mof_N 	N 	0.402	0.6805	0.5613	-0.07
Mof_C 	C 	0.8527	0.1011	0.7919	0.102
Mof_N 	N 	0.8214	0.0124	0.8121	-0.09
Mof_C 	C 	0.158	0.5437	0.4432	0.102
Mof_C 	C 	0.1741	0.7794	0.7874	0.094
Mof_N 	N 	0.0923	0.7426	0.8087	-0.091
Mof_C 	C 	0.8302	0.2434	0.7293	-0.116
Mof_H 	H 	0.8914	0.2775	0.7432	0.082
Mof_N 	N 	0.2808	0.6435	0.6643	-0.145
Mof_C 	C 	0.793	0.1502	0.7503	0.053
Mof_C 	C 	0.6939	0.111	0.7311	-0.123
Mof_H 	H 	0.6625	0.0543	0.7451	0.082
Mof_N 	N 	0.2303	0.4812	0.4663	-0.087
Mof_C 	C 	0.9699	0.6082	0.4225	-0.109
Mof_H 	H 	0.9962	0.6751	0.4162	0.081
Mof_N 	N 	0.3047	0.6153	0.4363	-0.069
Mof_C 	C 	0.04	0.529	0.4374	0.035
Mof_C 	C 	0.6003	0.0997	0.5633	0.076
Mof_H 	H 	0.6645	0.1316	0.5584	0.016
Mof_C 	C 	0.4121	0.0108	0.5771	-0.163
Mof_H 	H 	0.3461	0.9826	0.5819	0.103
Mof_C 	C 	0.4916	0.9443	0.5622	0.074
Mof_C 	C 	0.7761	0.2829	0.6887	0.071
Mof_H 	H 	0.8061	0.3385	0.6734	0.023
Mof_N 	N 	0.8206	0.4931	0.4229	-0.144
Mof_C 	C 	0.432	0.1167	0.5845	0.1
Mof_H 	H 	0.3782	0.1597	0.5936	0.008
Mof_C 	C 	0.5875	0.9925	0.554	-0.124
Mof_H 	H 	0.6414	0.9533	0.5426	0.089
Mof_C 	C 	0.2139	0.7326	0.7467	0.053
Mof_C 	C 	0.4702	0.8317	0.5561	0.094
Mof_C 	C 	0.165	0.6422	0.725	-0.12
Mof_H 	H 	0.1083	0.6103	0.7376	0.081
Mof_C 	C 	0.8874	0.4151	0.4383	0.067
Mof_H 	H 	0.8591	0.3491	0.4445	0.02
Mof_C 	C 	0.2961	0.7775	0.7246	-0.117
Mof_H 	H 	0.3291	0.8395	0.7366	0.082
Mof_C 	C 	0.6438	0.1578	0.691	0.079
Mof_H 	H 	0.5802	0.1277	0.6774	0.015
Mof_C 	C 	0.1995	0.6009	0.6855	0.074
Mof_H 	H 	0.1659	0.5404	0.6724	0.017
Mof_C 	C 	0.8632	0.5915	0.4168	0.066
Mof_H 	H 	0.8176	0.6483	0.4084	0.023
Mof_C 	C 	0.3289	0.7304	0.6849	0.072
Mof_H 	H 	0.3863	0.7598	0.6719	0.024
Mof_C 	C 	0.9949	0.4278	0.4451	-0.094
Mof_H 	H 	0.0389	0.3706	0.4548	0.072
Mof_Cd	Cd	0.93485	0.8311	0.88884	0.407
Mof_Cd	Cd	0.14406	0.04012	0.89126	0.398
Mof_O 	O 	0.058	0.9281	0.9364	-0.24
Mof_N 	N 	0.5242	0.566	0.6536	-0.066
Mof_N 	N 	0.9726	0.2658	0.9669	-0.077
Mof_N 	N 	0.6	0.4911	0.6548	-0.064
Mof_N 	N 	0.5545	0.6368	0.688	-0.089
Mof_N 	N 	0.8206	0.7432	0.83	-0.145
Mof_N 	N 	0.1771	0.0288	0.0391	-0.07
Mof_N 	N 	0.9752	0.6596	0.921	-0.146
Mof_N 	N 	0.42	0.3125	0.6586	-0.067
Mof_N 	N 	0.287	0.3703	0.6924	-0.091
Mof_N 	N 	0.1098	0.2835	0.9258	-0.092
Mof_N 	N 	0.018	0.1687	0.9638	-0.067
Mof_N 	N 	0.2986	0.1292	0.0764	-0.09
Mof_N 	N 	0.3482	0.3879	0.658	-0.069
Mof_N 	N 	0.098	0.1805	0.9387	-0.07
Mof_C 	C 	0.6473	0.6011	0.7081	0.102
Mof_N 	N 	0.6786	0.5124	0.6879	-0.087
Mof_C 	C 	0.342	0.0437	0.0568	0.089
Mof_C 	C 	0.3259	0.2794	0.7126	0.094
Mof_N 	N 	0.4077	0.2426	0.6913	-0.091
Mof_C 	C 	0.6698	0.7434	0.7707	-0.116
Mof_H 	H 	0.6086	0.7775	0.7568	0.082
Mof_N 	N 	0.2192	0.1435	0.8357	-0.145
Mof_C 	C 	0.707	0.6502	0.7497	0.053
Mof_C 	C 	0.8061	0.611	0.7689	-0.122
Mof_H 	H 	0.8375	0.5543	0.7549	0.085
Mof_N 	N 	0.2697	0.9812	0.0337	-0.079
Mof_C 	C 	0.5301	0.1082	0.0775	-0.125
Mof_H 	H 	0.5038	0.1751	0.0838	0.083
Mof_N 	N 	0.1953	0.1153	0.0637	-0.07
Mof_C 	C 	0.46	0.029	0.0626	0.05
Mof_C 	C 	0.8997	0.5997	0.9367	0.077
Mof_H 	H 	0.8355	0.6316	0.9416	0.018
Mof_C 	C 	0.0879	0.5108	0.9229	-0.124
Mof_H 	H 	0.1539	0.4826	0.9181	0.085
Mof_C 	C 	0.0084	0.4443	0.9378	0.049
Mof_C 	C 	0.7239	0.7829	0.8113	0.072
Mof_H 	H 	0.6939	0.8385	0.8266	0.023
Mof_N 	N 	0.6794	0.9931	0.0771	-0.144
Mof_C 	C 	0.068	0.6167	0.9155	0.077
Mof_H 	H 	0.1218	0.6597	0.9064	0.018
Mof_C 	C 	0.9125	0.4925	0.946	-0.113
Mof_H 	H 	0.8586	0.4533	0.9574	0.086
Mof_C 	C 	0.2861	0.2326	0.7533	0.052
Mof_C 	C 	0.0298	0.3317	0.9439	0.096
Mof_C 	C 	0.335	0.1422	0.775	-0.121
Mof_H 	H 	0.3917	0.1103	0.7624	0.081
Mof_C 	C 	0.6126	0.9151	0.0617	0.078
Mof_H 	H 	0.6409	0.8491	0.0555	0.014
Mof_C 	C 	0.2039	0.2775	0.7754	-0.117
Mof_H 	H 	0.1709	0.3395	0.7634	0.079
Mof_C 	C 	0.8562	0.6578	0.809	0.08
Mof_H 	H 	0.9198	0.6277	0.8226	0.017
Mof_C 	C 	0.3005	0.1009	0.8145	0.073
Mof_H 	H 	0.3341	0.0404	0.8276	0.016
Mof_C 	C 	0.6368	0.0915	0.0832	0.066
Mof_H 	H 	0.6824	0.1483	0.0916	0.021
Mof_C 	C 	0.1711	0.2304	0.8151	0.071
Mof_H 	H 	0.1137	0.2598	0.8281	0.022
Mof_C 	C 	0.5051	0.9278	0.0549	-0.117
Mof_H 	H 	0.4611	0.8706	0.0452	0.084
Mof_Cd	Cd	0.43485	0.6689	0.38884	0.402
Mof_Cd	Cd	0.64406	0.45988	0.39126	0.406
Mof_O 	O 	0.558	0.5719	0.4364	-0.247
Mof_N 	N 	0.0242	0.934	0.1536	-0.063
Mof_N 	N 	0.4726	0.2342	0.4669	-0.085
Mof_N 	N 	0.1	0.0089	0.1548	-0.072
Mof_N 	N 	0.0545	0.8632	0.188	-0.09
Mof_N 	N 	0.3206	0.7568	0.33	-0.146
Mof_N 	N 	0.6771	0.4712	0.5391	-0.065
Mof_N 	N 	0.4752	0.8404	0.421	-0.15
Mof_N 	N 	0.92	0.1875	0.1586	-0.065
Mof_N 	N 	0.787	0.1297	0.1924	-0.091
Mof_N 	N 	0.6098	0.2165	0.4258	-0.093
Mof_N 	N 	0.518	0.3313	0.4638	-0.066
Mof_N 	N 	0.7986	0.3708	0.5764	-0.088
Mof_N 	N 	0.8482	0.1121	0.158	-0.07
Mof_N 	N 	0.598	0.3195	0.4387	-0.07
Mof_C 	C 	0.1473	0.8989	0.2081	0.103
Mof_N 	N 	0.1786	0.9876	0.1879	-0.083
Mof_C 	C 	0.842	0.4563	0.5568	0.087
Mof_C 	C 	0.8259	0.2206	0.2126	0.094
Mof_N 	N 	0.9077	0.2574	0.1913	-0.089
Mof_C 	C 	0.1698	0.7566	0.2707	-0.116
Mof_H 	H 	0.1086	0.7225	0.2568	0.08
Mof_N 	N 	0.7192	0.3565	0.3357	-0.145
Mof_C 	C 	0.207	0.8498	0.2497	0.053
Mof_C 	C 	0.3061	0.889	0.2689	-0.122
Mof_H 	H 	0.3375	0.9457	0.2549	0.085
Mof_N 	N 	0.7697	0.5188	0.5337	-0.083
Mof_C 	C 	0.0301	0.3918	0.5775	-0.158
Mof_H 	H 	0.0038	0.3249	0.5838	0.092
Mof_N 	N 	0.6953	0.3847	0.5637	-0.069
Mof_C 	C 	0.96	0.471	0.5626	0.09
Mof_C 	C 	0.3997	0.9003	0.4367	0.089
Mof_H 	H 	0.3355	0.8684	0.4416	0.013
Mof_C 	C 	0.5879	0.9892	0.4229	-0.106
Mof_H 	H 	0.6539	0.0174	0.4181	0.075
Mof_C 	C 	0.5084	0.0557	0.4378	0.046
Mof_C 	C 	0.2239	0.7171	0.3113	0.071
Mof_H 	H 	0.1939	0.6615	0.3266	0.022
Mof_N 	N 	0.1794	0.5069	0.5771	-0.155
Mof_C 	C 	0.568	0.8833	0.4155	0.075
Mof_H 	H 	0.6218	0.8403	0.4064	0.019
Mof_C 	C 	0.4125	0.0075	0.446	-0.132
Mof_H 	H 	0.3586	0.0467	0.4574	0.088
Mof_C 	C 	0.7861	0.2674	0.2533	0.053
Mof_C 	C 	0.5298	0.1683	0.4439	0.101
Mof_C 	C 	0.835	0.3578	0.275	-0.12
Mof_H 	H 	0.8917	0.3897	0.2624	0.083
Mof_C 	C 	0.1126	0.5849	0.5617	0.102
Mof_H 	H 	0.1409	0.6509	0.5555	0.007
Mof_C 	C 	0.7039	0.2225	0.2754	-0.117
Mof_H 	H 	0.6709	0.1605	0.2634	0.079
Mof_C 	C 	0.3562	0.8422	0.309	0.08
Mof_H 	H 	0.4198	0.8723	0.3226	0.016
Mof_C 	C 	0.8005	0.3991	0.3145	0.074
Mof_H 	H 	0.8341	0.4596	0.3276	0.019
Mof_C 	C 	0.1368	0.4085	0.5832	0.091
Mof_H 	H 	0.1824	0.3517	0.5916	0.013
Mof_C 	C 	0.6711	0.2696	0.3151	0.072
Mof_H 	H 	0.6137	0.2402	0.3281	0.023
Mof_C 	C 	0.0051	0.5722	0.5549	-0.164
Mof_H 	H 	0.9611	0.6294	0.5452	0.104
Mof_Cd	Cd	0.06515	0.1689	0.11116	0.395
Mof_Cd	Cd	0.85594	0.95988	0.10874	0.411
Mof_O 	O 	0.942	0.0719	0.0636	-0.244
Mof_N 	N 	0.4758	0.434	0.3464	-0.066
Mof_N 	N 	0.0274	0.7342	0.0331	-0.089
Mof_N 	N 	0.4	0.5089	0.3452	-0.064
Mof_N 	N 	0.4455	0.3632	0.312	-0.089
Mof_N 	N 	0.1794	0.2568	0.17	-0.146
Mof_N 	N 	0.8229	0.9712	0.9609	-0.058
Mof_N 	N 	0.0248	0.3404	0.079	-0.159
Mof_N 	N 	0.58	0.6875	0.3414	-0.067
Mof_N 	N 	0.713	0.6297	0.3076	-0.09
Mof_N 	N 	0.8902	0.7165	0.0742	-0.093
Mof_N 	N 	0.982	0.8313	0.0362	-0.062
Mof_N 	N 	0.7014	0.8708	0.9236	-0.09
Mof_N 	N 	0.6518	0.6121	0.342	-0.069
Mof_N 	N 	0.902	0.8195	0.0613	-0.07
Mof_C 	C 	0.3527	0.3989	0.2919	0.102
Mof_N 	N 	0.3214	0.4876	0.3121	-0.088
Mof_C 	C 	0.658	0.9563	0.9432	0.096
Mof_C 	C 	0.6741	0.7206	0.2874	0.095
Mof_N 	N 	0.5923	0.7574	0.3087	-0.09
Mof_C 	C 	0.3302	0.2566	0.2293	-0.117
Mof_H 	H 	0.3914	0.2225	0.2432	0.08
Mof_N 	N 	0.7808	0.8565	0.1643	-0.144
Mof_C 	C 	0.293	0.3498	0.2503	0.052
Mof_C 	C 	0.1939	0.389	0.2311	-0.123
Mof_H 	H 	0.1625	0.4457	0.2451	0.083
Mof_N 	N 	0.7303	0.0188	0.9663	-0.087
Mof_C 	C 	0.4699	0.8918	0.9225	-0.144
Mof_H 	H 	0.4962	0.8249	0.9162	0.092
Mof_N 	N 	0.8047	0.8847	0.9363	-0.068
Mof_C 	C 	0.54	0.971	0.9374	0.078
Mof_C 	C 	0.1003	0.4003	0.0633	0.086
Mof_H 	H 	0.1645	0.3684	0.0584	0.012
Mof_C 	C 	0.9121	0.4892	0.0771	-0.141
Mof_H 	H 	0.8461	0.5174	0.0819	0.09
Mof_C 	C 	0.9916	0.5557	0.0622	0.069
Mof_C 	C 	0.2761	0.2171	0.1887	0.07
Mof_H 	H 	0.3061	0.1615	0.1734	0.021
Mof_N 	N 	0.3206	0.0069	0.9229	-0.156
Mof_C 	C 	0.932	0.3833	0.0845	0.099
Mof_H 	H 	0.8782	0.3403	0.0936	0.01
Mof_C 	C 	0.0875	0.5075	0.054	-0.141
Mof_H 	H 	0.1414	0.5467	0.0426	0.091
Mof_C 	C 	0.7139	0.7674	0.2467	0.053
Mof_C 	C 	0.9702	0.6683	0.0561	0.098
Mof_C 	C 	0.665	0.8578	0.225	-0.119
Mof_H 	H 	0.6083	0.8897	0.2376	0.083
Mof_C 	C 	0.3874	0.0849	0.9383	0.093
Mof_H 	H 	0.3591	0.1509	0.9445	0.011
Mof_C 	C 	0.7961	0.7225	0.2246	-0.116
Mof_H 	H 	0.8291	0.6605	0.2366	0.081
Mof_C 	C 	0.1438	0.3422	0.191	0.079
Mof_H 	H 	0.0802	0.3723	0.1774	0.014
Mof_C 	C 	0.6995	0.8991	0.1855	0.075
Mof_H 	H 	0.6659	0.9596	0.1724	0.02
Mof_C 	C 	0.3632	0.9085	0.9168	0.094
Mof_H 	H 	0.3176	0.8517	0.9084	0.014
Mof_C 	C 	0.8289	0.7696	0.1849	0.072
Mof_H 	H 	0.8863	0.7402	0.1719	0.024
Mof_C 	C 	0.4949	0.0722	0.9451	-0.146
Mof_H 	H 	0.5389	0.1294	0.9548	0.095
Mof_Cd	Cd	0.5	0.5	0.5	0.424
Mof_Cd	Cd	-0	0	-0	0.402
_end
