data_functionalizedCrystal
_audit_creation_method	'EQeq! by Chris Wilmer'
_symmetry_space_group_name_H-M	'P1'
_symmetry_Int_Tables_number	1
_symmetry_cell_setting	triclinic
loop_
_symmetry_equiv_pos_as_xyz
  x,y,z
_cell_length_a	17.074
_cell_length_b	17.074
_cell_length_c	14.606
_cell_angle_alpha	90
_cell_angle_beta	90
_cell_angle_gamma	90
loop_
_atom_site_label
_atom_site_type_symbol
_atom_site_fract_x
_atom_site_fract_y
_atom_site_fract_z
_atom_site_charge
Mof_N 	N 	0.6611	0.2223	0.1606	-0.227
Mof_N 	N 	0.3489	0.2141	0.8402	-0.225
Mof_C 	C 	0.3359	0.1958	0.9266	0.044
Mof_H 	H 	0.2849	0.1849	0.9448	-0.04
Mof_C 	C 	0.3958	0.1923	0.9923	-0.147
Mof_H 	H 	0.384	0.1808	0.053	0.016
Mof_C 	C 	0.4706	0.2056	0.9669	0.026
Mof_C 	C 	0.4847	0.2249	0.8751	-0.143
Mof_H 	H 	0.5353	0.2359	0.8555	0.002
Mof_C 	C 	0.4232	0.2275	0.8139	0.046
Mof_H 	H 	0.4334	0.2387	0.7528	-0.059
Mof_C 	C 	0.587	0.237	0.1833	0.051
Mof_H 	H 	0.5771	0.2527	0.2431	-0.062
Mof_C 	C 	0.5246	0.2309	0.1258	-0.142
Mof_H 	H 	0.4743	0.2407	0.1474	-0.001
Mof_C 	C 	0.536	0.2099	0.0343	0.014
Mof_C 	C 	0.6117	0.1875	0.0118	-0.134
Mof_H 	H 	0.6222	0.1676	0.9539	0.006
Mof_C 	C 	0.6712	0.1946	0.074	0.03
Mof_H 	H 	0.7213	0.1796	0.0562	-0.04
Mof_O 	O 	0.8295	0.1823	0.1817	-0.711
Mof_O 	O 	0.991	0.1298	0.1819	-1.069
Mof_O 	O 	0.9411	0.1857	0.0385	-1.039
Mof_O 	O 	0.8711	0.0199	0.1816	-1.021
Mof_O 	O 	0.8203	0.0731	0.0367	-1.017
Mof_O 	O 	0.1329	0.1202	0.1227	-1.059
Mof_V 	V 	0.88776	0.12203	0.12782	1.789
Mof_V 	V 	0.04842	0.18458	0.08916	1.684
Mof_V 	V 	0.81163	0.96783	0.08669	1.662
Mof_V 	V 	0.07144	0.06536	0.23017	1.695
Mof_N 	N 	0.3389	0.7777	0.1606	-0.227
Mof_N 	N 	0.6511	0.7859	0.8402	-0.226
Mof_C 	C 	0.6641	0.8042	0.9266	0.038
Mof_H 	H 	0.7151	0.8151	0.9448	-0.041
Mof_C 	C 	0.6042	0.8077	0.9923	-0.146
Mof_H 	H 	0.616	0.8192	0.053	0.009
Mof_C 	C 	0.5294	0.7944	0.9669	0.02
Mof_C 	C 	0.5153	0.7751	0.8751	-0.144
Mof_H 	H 	0.4647	0.7641	0.8555	-0
Mof_C 	C 	0.5768	0.7725	0.8139	0.041
Mof_H 	H 	0.5666	0.7613	0.7528	-0.06
Mof_C 	C 	0.413	0.763	0.1833	0.046
Mof_H 	H 	0.4229	0.7473	0.2431	-0.064
Mof_C 	C 	0.4754	0.7691	0.1258	-0.143
Mof_H 	H 	0.5257	0.7593	0.1474	-0.005
Mof_C 	C 	0.464	0.7901	0.0343	0.009
Mof_C 	C 	0.3883	0.8125	0.0118	-0.135
Mof_H 	H 	0.3778	0.8324	0.9539	-0.002
Mof_C 	C 	0.3288	0.8054	0.074	0.023
Mof_H 	H 	0.2787	0.8204	0.0562	-0.041
Mof_O 	O 	0.1705	0.8177	0.1817	-0.711
Mof_O 	O 	0.009	0.8702	0.1819	-1.031
Mof_O 	O 	0.0589	0.8143	0.0385	-1.014
Mof_O 	O 	0.1289	0.9801	0.1816	-1.058
Mof_O 	O 	0.1797	0.9269	0.0367	-1.041
Mof_O 	O 	0.8671	0.8798	0.1227	-1.086
Mof_V 	V 	0.11224	0.87797	0.12782	1.789
Mof_V 	V 	0.95158	0.81542	0.08916	1.656
Mof_V 	V 	0.18837	0.03217	0.08669	1.69
Mof_V 	V 	0.92856	0.93464	0.23017	1.651
Mof_N 	N 	0.2223	0.3389	0.8394	-0.227
Mof_N 	N 	0.2141	0.6511	0.1598	-0.225
Mof_C 	C 	0.1958	0.6641	0.0734	0.044
Mof_H 	H 	0.1849	0.7151	0.0552	-0.04
Mof_C 	C 	0.1923	0.6042	0.0077	-0.146
Mof_H 	H 	0.1808	0.616	0.947	0.016
Mof_C 	C 	0.2056	0.5294	0.0331	0.026
Mof_C 	C 	0.2249	0.5153	0.1249	-0.143
Mof_H 	H 	0.2359	0.4647	0.1445	0.003
Mof_C 	C 	0.2275	0.5768	0.1861	0.046
Mof_H 	H 	0.2387	0.5666	0.2472	-0.059
Mof_C 	C 	0.237	0.413	0.8167	0.051
Mof_H 	H 	0.2527	0.4229	0.7569	-0.063
Mof_C 	C 	0.2309	0.4754	0.8742	-0.142
Mof_H 	H 	0.2407	0.5257	0.8526	-0.002
Mof_C 	C 	0.2099	0.464	0.9657	0.014
Mof_C 	C 	0.1875	0.3883	0.9882	-0.135
Mof_H 	H 	0.1676	0.3778	0.0461	0.007
Mof_C 	C 	0.1946	0.3288	0.926	0.03
Mof_H 	H 	0.1796	0.2787	0.9438	-0.04
Mof_O 	O 	0.1823	0.1705	0.8183	-0.71
Mof_O 	O 	0.1298	0.009	0.8181	-1.018
Mof_O 	O 	0.1857	0.0589	0.9615	-1.01
Mof_O 	O 	0.0199	0.1289	0.8184	-1.008
Mof_O 	O 	0.0731	0.1797	0.9633	-1.013
Mof_O 	O 	0.1202	0.8671	0.8773	-1.074
Mof_V 	V 	0.12203	0.11224	0.87218	1.791
Mof_V 	V 	0.18458	0.95158	0.91084	1.655
Mof_V 	V 	0.96783	0.18837	0.91331	1.661
Mof_V 	V 	0.06536	0.92856	0.76983	1.671
Mof_N 	N 	0.7777	0.6611	0.8394	-0.227
Mof_N 	N 	0.7859	0.3489	0.1598	-0.226
Mof_C 	C 	0.8042	0.3359	0.0734	0.038
Mof_H 	H 	0.8151	0.2849	0.0552	-0.041
Mof_C 	C 	0.8077	0.3958	0.0077	-0.147
Mof_H 	H 	0.8192	0.384	0.947	0.009
Mof_C 	C 	0.7944	0.4706	0.0331	0.02
Mof_C 	C 	0.7751	0.4847	0.1249	-0.144
Mof_H 	H 	0.7641	0.5353	0.1445	-0.001
Mof_C 	C 	0.7725	0.4232	0.1861	0.041
Mof_H 	H 	0.7613	0.4334	0.2472	-0.06
Mof_C 	C 	0.763	0.587	0.8167	0.046
Mof_H 	H 	0.7473	0.5771	0.7569	-0.064
Mof_C 	C 	0.7691	0.5246	0.8742	-0.143
Mof_H 	H 	0.7593	0.4743	0.8526	-0.004
Mof_C 	C 	0.7901	0.536	0.9657	0.009
Mof_C 	C 	0.8125	0.6117	0.9882	-0.135
Mof_H 	H 	0.8324	0.6222	0.0461	-0.002
Mof_C 	C 	0.8054	0.6712	0.926	0.023
Mof_H 	H 	0.8204	0.7213	0.9438	-0.041
Mof_O 	O 	0.8177	0.8295	0.8183	-0.713
Mof_O 	O 	0.8702	0.991	0.8181	-1.077
Mof_O 	O 	0.8143	0.9411	0.9615	-1.041
Mof_O 	O 	0.9801	0.8711	0.8184	-1.065
Mof_O 	O 	0.9269	0.8203	0.9633	-1.043
Mof_O 	O 	0.8798	0.1329	0.8773	-1.075
Mof_V 	V 	0.87797	0.88776	0.87218	1.788
Mof_V 	V 	0.81542	0.04842	0.91084	1.681
Mof_V 	V 	0.03217	0.81163	0.91331	1.688
Mof_V 	V 	0.93464	0.07144	0.76983	1.67
Mof_N 	N 	0.1611	0.2777	0.6606	-0.216
Mof_N 	N 	0.8489	0.2859	0.3402	-0.236
Mof_C 	C 	0.8359	0.3042	0.4266	0.048
Mof_H 	H 	0.7849	0.3151	0.4448	-0.044
Mof_C 	C 	0.8958	0.3077	0.4923	-0.161
Mof_H 	H 	0.884	0.3192	0.553	0.012
Mof_C 	C 	0.9706	0.2944	0.4669	0.033
Mof_C 	C 	0.9847	0.2751	0.3751	-0.247
Mof_H 	H 	0.0353	0.2641	0.3555	0.065
Mof_C 	C 	0.9232	0.2725	0.3139	0.089
Mof_H 	H 	0.9334	0.2613	0.2528	-0.083
Mof_C 	C 	0.087	0.263	0.6833	0
Mof_H 	H 	0.0771	0.2473	0.7431	-0.039
Mof_C 	C 	0.0246	0.2691	0.6258	-0.037
Mof_H 	H 	0.9743	0.2593	0.6474	-0.067
Mof_C 	C 	0.036	0.2901	0.5343	0.004
Mof_C 	C 	0.1117	0.3125	0.5118	-0.121
Mof_H 	H 	0.1222	0.3324	0.4539	0.004
Mof_C 	C 	0.1712	0.3054	0.574	0.02
Mof_H 	H 	0.2213	0.3204	0.5562	-0.037
Mof_O 	O 	0.3295	0.3177	0.6817	-0.71
Mof_O 	O 	0.491	0.3702	0.6819	-1.045
Mof_O 	O 	0.4411	0.3143	0.5385	-1.025
Mof_O 	O 	0.3711	0.4801	0.6816	-1.034
Mof_O 	O 	0.3203	0.4269	0.5367	-1.028
Mof_O 	O 	0.6329	0.3798	0.6227	-1.073
Mof_V 	V 	0.38776	0.37797	0.62782	1.79
Mof_V 	V 	0.54842	0.31542	0.58916	1.67
Mof_V 	V 	0.31163	0.53217	0.58669	1.676
Mof_V 	V 	0.57144	0.43464	0.73017	1.679
Mof_N 	N 	0.8389	0.7223	0.6606	-0.237
Mof_N 	N 	0.1511	0.7141	0.3402	-0.216
Mof_C 	C 	0.1641	0.6958	0.4266	0.033
Mof_H 	H 	0.2151	0.6849	0.4448	-0.037
Mof_C 	C 	0.1042	0.6923	0.4923	-0.134
Mof_H 	H 	0.116	0.6808	0.553	0.013
Mof_C 	C 	0.0294	0.7056	0.4669	0.014
Mof_C 	C 	0.0153	0.7249	0.3751	-0.048
Mof_H 	H 	0.9647	0.7359	0.3555	-0.06
Mof_C 	C 	0.0768	0.7275	0.3139	-0.001
Mof_H 	H 	0.0666	0.7387	0.2528	-0.038
Mof_C 	C 	0.913	0.737	0.6833	0.091
Mof_H 	H 	0.9229	0.7527	0.7431	-0.086
Mof_C 	C 	0.9754	0.7309	0.6258	-0.24
Mof_H 	H 	0.0257	0.7407	0.6474	0.054
Mof_C 	C 	0.964	0.7099	0.5343	0.017
Mof_C 	C 	0.8883	0.6875	0.5118	-0.147
Mof_H 	H 	0.8778	0.6676	0.4539	0.001
Mof_C 	C 	0.8288	0.6946	0.574	0.031
Mof_H 	H 	0.7787	0.6796	0.5562	-0.043
Mof_O 	O 	0.6705	0.6823	0.6817	-0.711
Mof_O 	O 	0.509	0.6298	0.6819	-1.045
Mof_O 	O 	0.5589	0.6857	0.5385	-1.027
Mof_O 	O 	0.6289	0.5199	0.6816	-1.034
Mof_O 	O 	0.6797	0.5731	0.5367	-1.029
Mof_O 	O 	0.3671	0.6202	0.6227	-1.073
Mof_V 	V 	0.61224	0.62203	0.62782	1.79
Mof_V 	V 	0.45158	0.68458	0.58916	1.669
Mof_V 	V 	0.68837	0.46783	0.58669	1.675
Mof_V 	V 	0.42856	0.56536	0.73017	1.679
Mof_N 	N 	0.7223	0.1611	0.3394	-0.217
Mof_N 	N 	0.7141	0.8489	0.6598	-0.235
Mof_C 	C 	0.6958	0.8359	0.5734	0.046
Mof_H 	H 	0.6849	0.7849	0.5552	-0.043
Mof_C 	C 	0.6923	0.8958	0.5077	-0.16
Mof_H 	H 	0.6808	0.884	0.447	0.011
Mof_C 	C 	0.7056	0.9706	0.5331	0.029
Mof_C 	C 	0.7249	0.9847	0.6249	-0.24
Mof_H 	H 	0.7359	0.0353	0.6445	0.058
Mof_C 	C 	0.7275	0.9232	0.6861	0.083
Mof_H 	H 	0.7387	0.9334	0.7472	-0.081
Mof_C 	C 	0.737	0.087	0.3167	0.001
Mof_H 	H 	0.7527	0.0771	0.2569	-0.041
Mof_C 	C 	0.7309	0.0246	0.3742	-0.045
Mof_H 	H 	0.7407	0.9743	0.3526	-0.065
Mof_C 	C 	0.7099	0.036	0.4657	0.002
Mof_C 	C 	0.6875	0.1117	0.4882	-0.123
Mof_H 	H 	0.6676	0.1222	0.5461	0.004
Mof_C 	C 	0.6946	0.1712	0.426	0.019
Mof_H 	H 	0.6796	0.2213	0.4438	-0.037
Mof_O 	O 	0.6823	0.3295	0.3183	-0.711
Mof_O 	O 	0.6298	0.491	0.3181	-1.045
Mof_O 	O 	0.6857	0.4411	0.4615	-1.027
Mof_O 	O 	0.5199	0.3711	0.3184	-1.034
Mof_O 	O 	0.5731	0.3203	0.4633	-1.028
Mof_O 	O 	0.6202	0.6329	0.3773	-1.074
Mof_V 	V 	0.62203	0.38776	0.37218	1.79
Mof_V 	V 	0.68458	0.54842	0.41084	1.668
Mof_V 	V 	0.46783	0.31163	0.41331	1.676
Mof_V 	V 	0.56536	0.57144	0.26983	1.679
Mof_N 	N 	0.2777	0.8389	0.3394	-0.238
Mof_N 	N 	0.2859	0.1511	0.6598	-0.215
Mof_C 	C 	0.3042	0.1641	0.5734	0.034
Mof_H 	H 	0.3151	0.2151	0.5552	-0.037
Mof_C 	C 	0.3077	0.1042	0.5077	-0.131
Mof_H 	H 	0.3192	0.116	0.447	0.013
Mof_C 	C 	0.2944	0.0294	0.5331	0.015
Mof_C 	C 	0.2751	0.0153	0.6249	-0.039
Mof_H 	H 	0.2641	0.9647	0.6445	-0.062
Mof_C 	C 	0.2725	0.0768	0.6861	-0.002
Mof_H 	H 	0.2613	0.0666	0.7472	-0.036
Mof_C 	C 	0.263	0.913	0.3167	0.097
Mof_H 	H 	0.2473	0.9229	0.2569	-0.088
Mof_C 	C 	0.2691	0.9754	0.3742	-0.248
Mof_H 	H 	0.2593	0.0257	0.3526	0.062
Mof_C 	C 	0.2901	0.964	0.4657	0.021
Mof_C 	C 	0.3125	0.8883	0.4882	-0.149
Mof_H 	H 	0.3324	0.8778	0.5461	0.002
Mof_C 	C 	0.3054	0.8288	0.426	0.034
Mof_H 	H 	0.3204	0.7787	0.4438	-0.043
Mof_O 	O 	0.3177	0.6705	0.3183	-0.711
Mof_O 	O 	0.3702	0.509	0.3181	-1.044
Mof_O 	O 	0.3143	0.5589	0.4615	-1.025
Mof_O 	O 	0.4801	0.6289	0.3184	-1.034
Mof_O 	O 	0.4269	0.6797	0.4633	-1.029
Mof_O 	O 	0.3798	0.3671	0.3773	-1.071
Mof_V 	V 	0.37797	0.61224	0.37218	1.79
Mof_V 	V 	0.31542	0.45158	0.41084	1.67
Mof_V 	V 	0.53217	0.68837	0.41331	1.675
Mof_V 	V 	0.43464	0.42856	0.26983	1.679
Mof_O 	O 	3.87262e-33	2.96428e-33	0.2832	-0.811
Mof_O 	O 	8.22764e-33	5.92855e-33	0.7168	-0.811
Mof_O 	O 	0.5	0.5	0.7832	-0.861
Mof_O 	O 	0.5	0.5	0.2168	-0.861
Mof_Ni	Ni	0.75467	0.25467	0.25	1.099
Mof_Ni	Ni	0.24533	0.74533	0.25	1.099
Mof_Ni	Ni	0.25467	0.24533	0.75	1.099
Mof_Ni	Ni	0.74533	0.75467	0.75	1.099
_end
