data_functionalizedCrystal
_audit_creation_method	'EQeq! by Chris Wilmer'
_symmetry_space_group_name_H-M	'P1'
_symmetry_Int_Tables_number	1
_symmetry_cell_setting	triclinic
loop_
_symmetry_equiv_pos_as_xyz
  x,y,z
_cell_length_a	6.1069
_cell_length_b	12.1412
_cell_length_c	22.6025
_cell_angle_alpha	90
_cell_angle_beta	90
_cell_angle_gamma	90.5705
loop_
_atom_site_label
_atom_site_type_symbol
_atom_site_fract_x
_atom_site_fract_y
_atom_site_fract_z
_atom_site_charge
Mof_Sm	Sm	0.45418	0.94305	0.8509	1.992
Mof_Sm	Sm	0.95418	0.44305	0.6491	1.918
Mof_Sm	Sm	0.04582	0.55695	0.3509	1.834
Mof_Sm	Sm	0.54582	0.05695	0.1491	1.77
Mof_Cu	Cu	0.5	0	0.5	0.908
Mof_Cu	Cu	2.12003e-18	0.5	-0	0.896
Mof_H 	H 	0.6703	0.1093	0.3831	0.053
Mof_H 	H 	0.0639	0.25	0.158	-0.013
Mof_H 	H 	0.0388	0.9233	0.6782	0.058
Mof_H 	H 	0.5388	0.4233	0.8218	0.06
Mof_H 	H 	0.4612	0.5767	0.1782	0.062
Mof_H 	H 	0.3297	0.8907	0.6169	0.039
Mof_H 	H 	0.4262	0.8924	0.2873	0.034
Mof_H 	H 	0.8297	0.3907	0.8831	0.048
Mof_H 	H 	0.9612	0.0767	0.3218	0.061
Mof_H 	H 	0.5639	0.75	0.342	0.017
Mof_H 	H 	0.1703	0.6093	0.1169	0.037
Mof_H 	H 	0.9262	0.3924	0.2127	0.082
Mof_H 	H 	0.0738	0.6076	0.7873	0.016
Mof_H 	H 	0.4361	0.25	0.658	0.012
Mof_H 	H 	0.9361	0.75	0.842	0.023
Mof_H 	H 	0.5738	0.1076	0.7127	0.027
Mof_C 	C 	0.5408	0.7154	0.75581	-0.016
Mof_C 	C 	0.7666	0.0528	0.39196	-0.01
Mof_C 	C 	0.4592	0.2846	0.24419	-0.012
Mof_C 	C 	0.3401	0.7779	0.73634	0.354
Mof_C 	C 	0.2805	0.6977	0.92278	0.434
Mof_C 	C 	0.8401	0.2779	0.76366	0.357
Mof_C 	C 	0.0663	0.3671	0.22086	-0.058
Mof_C 	C 	0.1234	0.091	0.54855	-0.04
Mof_C 	C 	0.5468	0.3893	0.08708	-0.043
Mof_C 	C 	0.5253	0.4564	0.31188	0.415
Mof_C 	C 	0.3766	0.409	0.04855	-0.061
Mof_C 	C 	0.6458	0.7787	0.3108	0.033
Mof_C 	C 	0.6113	0.6184	0.72843	-0.049
Mof_C 	C 	0.9337	0.6329	0.77914	0.047
Mof_C 	C 	0.5595	0.4681	0.8547	0.008
Mof_C 	C 	0.4405	0.5319	0.1453	0.01
Mof_C 	C 	0.0595	0.9681	0.6453	0.024
Mof_C 	C 	0.2334	0.9472	0.60804	0.053
Mof_C 	C 	0.1113	0.1184	0.77157	-0.066
Mof_C 	C 	0.6599	0.2221	0.26366	0.345
Mof_C 	C 	0.9592	0.7846	0.25581	0.01
Mof_C 	C 	0.8766	0.909	0.45145	0.019
Mof_C 	C 	0.0408	0.2154	0.74419	-0.019
Mof_C 	C 	0.9747	0.0436	0.81188	0.444
Mof_C 	C 	0.1599	0.7221	0.23634	0.319
Mof_C 	C 	0.1736	0.1539	0.49217	0.301
Mof_C 	C 	0.7195	0.3023	0.07722	0.409
Mof_C 	C 	0.7805	0.1977	0.57722	0.422
Mof_C 	C 	0.4747	0.5436	0.68812	0.422
Mof_C 	C 	0.9405	0.0319	0.3547	0.009
Mof_C 	C 	0.4532	0.6107	0.91292	-0.064
Mof_C 	C 	0.2666	0.5528	0.10804	0.023
Mof_C 	C 	0.3542	0.2213	0.6892	0.03
Mof_C 	C 	0.2195	0.8023	0.42278	0.425
Mof_C 	C 	0.8542	0.7213	0.8108	0.024
Mof_C 	C 	0.3264	0.3461	0.99217	0.338
Mof_C 	C 	0.8264	0.8461	0.50783	0.291
Mof_C 	C 	0.0468	0.8893	0.41292	-0.081
Mof_C 	C 	0.6234	0.591	0.95145	0.019
Mof_C 	C 	0.9532	0.1107	0.58708	-0.045
Mof_C 	C 	0.3887	0.3816	0.27157	-0.052
Mof_C 	C 	0.4337	0.1329	0.72086	0.02
Mof_C 	C 	0.5663	0.8671	0.27914	0.028
Mof_C 	C 	0.1458	0.2787	0.1892	0.064
Mof_C 	C 	0.0253	0.9564	0.18812	0.334
Mof_C 	C 	0.8887	0.8816	0.22843	-0.004
Mof_C 	C 	0.6736	0.6539	0.00783	0.262
Mof_C 	C 	0.7334	0.4472	0.89196	0.028
Mof_N 	N 	0.764	0.5074	0.9403	-0.178
Mof_N 	N 	0.3385	0.2336	0.20272	-0.194
Mof_N 	N 	0.264	0.0074	0.5597	-0.205
Mof_N 	N 	0.8159	0.5829	0.73738	-0.178
Mof_N 	N 	0.236	0.4926	0.0597	-0.189
Mof_N 	N 	0.9199	0.0505	0.63583	-0.105
Mof_N 	N 	0.8385	0.7336	0.29728	-0.179
Mof_N 	N 	0.736	0.9926	0.4403	-0.161
Mof_N 	N 	0.6841	0.9171	0.23738	-0.167
Mof_N 	N 	0.4199	0.5505	0.86417	-0.089
Mof_N 	N 	0.6615	0.7664	0.79728	-0.186
Mof_N 	N 	0.3159	0.0829	0.76262	-0.183
Mof_N 	N 	0.1841	0.4171	0.26262	-0.162
Mof_N 	N 	0.1615	0.2664	0.70272	-0.19
Mof_N 	N 	0.0801	0.9495	0.36417	-0.085
Mof_N 	N 	0.5801	0.4495	0.13583	-0.09
Mof_O 	O 	0.28279	0.52079	0.7012	-0.495
Mof_O 	O 	0.6253	0.1709	0.54473	-0.36
Mof_O 	O 	0.7211	0.1463	0.22985	-0.449
Mof_O 	O 	0.71721	0.47921	0.2988	-0.471
Mof_O 	O 	0.8004	0.2858	0.60505	-0.529
Mof_O 	O 	0.7406	0.2463	0.31225	-0.282
Mof_O 	O 	0.5728	0.7398	0.01751	-0.297
Mof_O 	O 	0.7789	0.3537	0.72985	-0.462
Mof_O 	O 	0.4272	0.2602	0.98249	-0.297
Mof_O 	O 	0.3747	0.8291	0.45527	-0.353
Mof_O 	O 	0.3004	0.7858	0.89495	-0.537
Mof_O 	O 	0.2406	0.7463	0.18775	-0.286
Mof_O 	O 	0.2594	0.7537	0.68775	-0.293
Mof_O 	O 	0.6996	0.2142	0.10505	-0.518
Mof_O 	O 	0.1996	0.7142	0.39495	-0.528
Mof_O 	O 	0.7594	0.2537	0.81225	-0.292
Mof_O 	O 	0.1826	0.3893	0.95909	-0.359
Mof_O 	O 	0.1253	0.6709	0.95527	-0.352
Mof_O 	O 	0.3174	0.1107	0.45909	-0.367
Mof_O 	O 	0.8747	0.3291	0.04473	-0.357
Mof_O 	O 	0.0728	0.2398	0.48249	-0.308
Mof_O 	O 	0.9209	0.9964	0.14486	-0.449
Mof_O 	O 	0.9272	0.7602	0.51751	-0.284
Mof_O 	O 	0.0791	0.0036	0.85514	-0.565
Mof_O 	O 	0.8174	0.6107	0.04091	-0.34
Mof_O 	O 	0.6826	0.8893	0.54091	-0.34
Mof_O 	O 	0.78279	0.02079	0.7988	-0.516
Mof_O 	O 	0.21721	0.97921	0.2012	-0.445
Mof_O 	O 	0.5791	0.5036	0.64486	-0.531
Mof_O 	O 	0.4209	0.4964	0.35514	-0.518
Mof_O 	O 	0.2211	0.6463	0.27015	-0.45
Mof_O 	O 	0.2789	0.8537	0.77015	-0.464
_end
