data_functionalizedCrystal
_audit_creation_method	'EQeq! by Chris Wilmer'
_symmetry_space_group_name_H-M	'P1'
_symmetry_Int_Tables_number	1
_symmetry_cell_setting	triclinic
loop_
_symmetry_equiv_pos_as_xyz
  x,y,z
_cell_length_a	12.311
_cell_length_b	14.049
_cell_length_c	14.181
_cell_angle_alpha	116.92
_cell_angle_beta	111.72
_cell_angle_gamma	91.66
loop_
_atom_site_label
_atom_site_type_symbol
_atom_site_fract_x
_atom_site_fract_y
_atom_site_fract_z
_atom_site_charge
Mof_Mn	Mn	0.81153	0.65264	0.20934	0.909
Mof_Mn	Mn	0.18847	0.34736	0.79066	0.911
Mof_Mn	Mn	0.5	0.5	-0	0.971
Mof_Mn	Mn	-0	0.5	-0	0.555
Mof_Ge	Ge	0.63462	0.11129	0.86785	0.687
Mof_Ge	Ge	0.34025	0.96623	0.65362	0.714
Mof_Ge	Ge	0.51889	0.85337	0.81001	0.704
Mof_Ge	Ge	0.58922	0.88394	0.60497	0.691
Mof_Ge	Ge	0.36538	0.88871	0.13215	0.738
Mof_Ge	Ge	0.65975	0.03377	0.34638	0.715
Mof_Ge	Ge	0.48111	0.14663	0.18999	0.659
Mof_Ge	Ge	0.41078	0.11606	0.39503	0.69
Mof_H 	H 	0.807	0.2592	0.0287	0.061
Mof_H 	H 	0.6898	0.29	0.0416	0.076
Mof_H 	H 	0.6453	0.3177	0.8725	0.102
Mof_H 	H 	0.7805	0.3172	0.8964	0.085
Mof_H 	H 	0.2048	0.0822	0.6205	0.138
Mof_H 	H 	0.1388	0.9918	0.6292	0.134
Mof_H 	H 	0.0585	0.9833	0.4408	0.063
Mof_H 	H 	0.1695	0.9385	0.4259	0.071
Mof_H 	H 	0.4908	0.6847	0.8166	0.153
Mof_H 	H 	0.4605	0.7766	0.9122	0.15
Mof_H 	H 	0.6982	0.77	0.9376	0.051
Mof_H 	H 	0.6646	0.8556	0.0342	0.03
Mof_H 	H 	0.7234	0.8063	0.5169	0.141
Mof_H 	H 	0.6584	0.8758	0.4627	0.13
Mof_H 	H 	0.5525	0.6624	0.398	0.078
Mof_H 	H 	0.483	0.7321	0.3469	0.078
Mof_H 	H 	0.193	0.7408	0.9713	0.17
Mof_H 	H 	0.3102	0.71	0.9584	0.183
Mof_H 	H 	0.3547	0.6823	0.1275	0.08
Mof_H 	H 	0.2195	0.6828	0.1036	0.051
Mof_H 	H 	0.7952	0.9178	0.3795	0.137
Mof_H 	H 	0.8612	0.0082	0.3708	0.138
Mof_H 	H 	0.9415	0.0167	0.5592	0.1
Mof_H 	H 	0.8305	0.0615	0.5741	0.092
Mof_H 	H 	0.5092	0.3153	0.1834	0.111
Mof_H 	H 	0.5395	0.2234	0.0878	0.096
Mof_H 	H 	0.3018	0.23	0.0624	0.121
Mof_H 	H 	0.3354	0.1444	0.9658	0.16
Mof_H 	H 	0.2766	0.1937	0.4831	0.132
Mof_H 	H 	0.3416	0.1242	0.5373	0.128
Mof_H 	H 	0.4475	0.3376	0.602	0.079
Mof_H 	H 	0.517	0.2679	0.6531	0.082
Mof_C 	C 	0.7248	0.2598	0.9862	-0.242
Mof_C 	C 	0.7252	0.3331	0.9326	-0.228
Mof_C 	C 	0.7627	0.4519	0.0257	0.366
Mof_C 	C 	0.1881	0.0043	0.5942	-0.386
Mof_C 	C 	0.1154	0.9422	0.4621	-0.148
Mof_C 	C 	0.0468	0.8261	0.4126	0.305
Mof_C 	C 	0.5174	0.7612	0.8779	-0.436
Mof_C 	C 	0.6408	0.78	0.9712	-0.053
Mof_C 	C 	0.648	0.7047	0.0227	0.31
Mof_C 	C 	0.6461	0.8217	0.4848	-0.382
Mof_C 	C 	0.5614	0.7174	0.3762	-0.179
Mof_C 	C 	0.601	0.6695	0.2771	0.399
Mof_C 	C 	0.2752	0.7402	0.0138	-0.501
Mof_C 	C 	0.2748	0.6669	0.0674	-0.184
Mof_C 	C 	0.2373	0.5481	0.9743	0.39
Mof_C 	C 	0.8119	0.9957	0.4058	-0.366
Mof_C 	C 	0.8846	0.0578	0.5379	-0.198
Mof_C 	C 	0.9532	0.1739	0.5874	0.393
Mof_C 	C 	0.4826	0.2388	0.1221	-0.291
Mof_C 	C 	0.3592	0.22	0.0288	-0.368
Mof_C 	C 	0.352	0.2953	0.9773	0.516
Mof_C 	C 	0.3539	0.1783	0.5152	-0.377
Mof_C 	C 	0.4386	0.2826	0.6238	-0.183
Mof_C 	C 	0.399	0.3305	0.7229	0.397
Mof_S 	S 	0.4537	0.13159	0.7906	-0.382
Mof_S 	S 	0.7138	0.04783	0.74055	-0.371
Mof_S 	S 	0.64188	0.01496	0.95649	-0.355
Mof_S 	S 	0.40045	0.89018	0.51251	-0.389
Mof_S 	S 	0.32875	0.85878	0.72673	-0.375
Mof_S 	S 	0.59538	0.77435	0.68078	-0.376
Mof_S 	S 	0.5463	0.86841	0.2094	-0.402
Mof_S 	S 	0.2862	0.95217	0.25945	-0.401
Mof_S 	S 	0.35812	0.98504	0.04351	-0.421
Mof_S 	S 	0.59955	0.10982	0.48749	-0.384
Mof_S 	S 	0.67125	0.14122	0.27327	-0.365
Mof_S 	S 	0.40462	0.22565	0.31922	-0.382
Mof_O 	O 	0.6913	0.4886	0.0713	-0.447
Mof_O 	O 	0.8616	0.5141	0.0618	-0.438
Mof_O 	O 	0.9683	0.7804	0.3086	-0.351
Mof_O 	O 	0.0736	0.7818	0.4742	-0.29
Mof_O 	O 	0.751	0.7206	0.1006	-0.373
Mof_O 	O 	0.5555	0.637	0.9869	-0.344
Mof_O 	O 	0.7104	0.7055	0.3048	-0.403
Mof_O 	O 	0.5246	0.5987	0.1794	-0.401
Mof_O 	O 	0.3087	0.5114	0.9287	-0.441
Mof_O 	O 	0.1384	0.4859	0.9382	-0.439
Mof_O 	O 	0.0317	0.2196	0.6914	-0.414
Mof_O 	O 	0.9264	0.2182	0.5258	-0.292
Mof_O 	O 	0.249	0.2794	0.8994	-0.42
Mof_O 	O 	0.4445	0.363	0.0131	-0.447
Mof_O 	O 	0.2896	0.2945	0.6952	-0.408
Mof_O 	O 	0.4754	0.4013	0.8206	-0.388
_end
