data_functionalizedCrystal
_audit_creation_method	'EQeq! by Chris Wilmer'
_symmetry_space_group_name_H-M	'P1'
_symmetry_Int_Tables_number	1
_symmetry_cell_setting	triclinic
loop_
_symmetry_equiv_pos_as_xyz
  x,y,z
_cell_length_a	25.8546
_cell_length_b	12.3906
_cell_length_c	13.5382
_cell_angle_alpha	90
_cell_angle_beta	116.417
_cell_angle_gamma	90
loop_
_atom_site_label
_atom_site_type_symbol
_atom_site_fract_x
_atom_site_fract_y
_atom_site_fract_z
_atom_site_charge
Mof_C 	C 	0.9121	0.8604	0.4908	-0.128
Mof_C 	C 	0.81795	0.6994	0.1894	-0.138
Mof_C 	C 	0.9154	0.0901	0.7949	-0.126
Mof_C 	C 	0.806	0.9035	0.189	-0.136
Mof_C 	C 	0.7928	0.8713	0.364	-0.134
Mof_C 	C 	0.83451	0.6764	0.4059	-0.121
Mof_C 	C 	0.92623	0.6889	0.352	-0.129
Mof_N 	N 	0.94191	0.8885	0.58	-0.14
Mof_N 	N 	0.79985	0.6361	0.1185	-0.15
Mof_N 	N 	0.94553	0.0302	0.7816	-0.136
Mof_N 	N 	0.7764	0.9538	0.1112	-0.144
Mof_N 	N 	0.75798	0.9021	0.3893	-0.162
Mof_N 	N 	0.82203	0.6106	0.4523	-0.16
Mof_N 	N 	0.95868	0.6184	0.3659	-0.071
Mof_Mn	Mn	0.7882	0.48351	0.04126	0.664
Mof_Mo	Mo	0.85785	0.80568	0.32461	0.972
Mof_C 	C 	0.4121	0.3604	0.4908	-0.134
Mof_C 	C 	0.31795	0.1994	0.1894	-0.14
Mof_C 	C 	0.4154	0.5901	0.7949	-0.131
Mof_C 	C 	0.306	0.4035	0.189	-0.138
Mof_C 	C 	0.2928	0.3713	0.364	-0.136
Mof_C 	C 	0.33451	0.1764	0.4059	-0.123
Mof_C 	C 	0.42623	0.1889	0.352	-0.136
Mof_N 	N 	0.44191	0.3885	0.58	-0.155
Mof_N 	N 	0.29985	0.1361	0.1185	-0.15
Mof_N 	N 	0.44553	0.5302	0.7816	-0.151
Mof_N 	N 	0.2764	0.4538	0.1112	-0.144
Mof_N 	N 	0.25798	0.4021	0.3893	-0.162
Mof_N 	N 	0.32203	0.1106	0.4523	-0.161
Mof_N 	N 	0.45868	0.1184	0.3659	-0.081
Mof_Mn	Mn	0.2882	0.98351	0.04126	0.657
Mof_Mo	Mo	0.35785	0.30568	0.32461	0.969
Mof_C 	C 	0.0879	0.8604	0.0092	-0.136
Mof_C 	C 	0.18205	0.6994	0.3106	-0.141
Mof_C 	C 	0.0846	0.0901	0.7051	-0.137
Mof_C 	C 	0.194	0.9035	0.311	-0.138
Mof_C 	C 	0.2072	0.8713	0.136	-0.135
Mof_C 	C 	0.16549	0.6764	0.0941	-0.124
Mof_C 	C 	0.07377	0.6889	0.148	-0.141
Mof_N 	N 	0.05809	0.8885	0.92	-0.158
Mof_N 	N 	0.20015	0.6361	0.3815	-0.152
Mof_N 	N 	0.05447	0.0302	0.7184	-0.153
Mof_N 	N 	0.2236	0.9538	0.3888	-0.146
Mof_N 	N 	0.24202	0.9021	0.1107	-0.162
Mof_N 	N 	0.17797	0.6106	0.0477	-0.161
Mof_N 	N 	0.04132	0.6184	0.1341	-0.089
Mof_Mn	Mn	0.2118	0.48351	0.45874	0.652
Mof_Mo	Mo	0.14215	0.80568	0.17539	0.968
Mof_C 	C 	0.5879	0.3604	0.0092	-0.131
Mof_C 	C 	0.68205	0.1994	0.3106	-0.139
Mof_C 	C 	0.5846	0.5901	0.7051	-0.131
Mof_C 	C 	0.694	0.4035	0.311	-0.137
Mof_C 	C 	0.7072	0.3713	0.136	-0.134
Mof_C 	C 	0.66549	0.1764	0.0941	-0.122
Mof_C 	C 	0.57377	0.1889	0.148	-0.136
Mof_N 	N 	0.55809	0.3885	0.92	-0.157
Mof_N 	N 	0.70015	0.1361	0.3815	-0.151
Mof_N 	N 	0.55447	0.5302	0.7184	-0.151
Mof_N 	N 	0.7236	0.4538	0.3888	-0.146
Mof_N 	N 	0.74202	0.4021	0.1107	-0.162
Mof_N 	N 	0.67797	0.1106	0.0477	-0.16
Mof_N 	N 	0.54132	0.1184	0.1341	-0.08
Mof_Mn	Mn	0.7118	0.98351	0.45874	0.656
Mof_Mo	Mo	0.64215	0.30568	0.17539	0.968
Mof_C 	C 	0.0879	0.1396	0.5092	-0.139
Mof_C 	C 	0.18205	0.3006	0.8106	-0.142
Mof_C 	C 	0.0846	0.9099	0.2051	-0.136
Mof_C 	C 	0.194	0.0965	0.811	-0.139
Mof_C 	C 	0.2072	0.1287	0.636	-0.136
Mof_C 	C 	0.16549	0.3236	0.5941	-0.125
Mof_C 	C 	0.07377	0.3111	0.648	-0.142
Mof_N 	N 	0.05809	0.1115	0.42	-0.156
Mof_N 	N 	0.20015	0.3639	0.8815	-0.152
Mof_N 	N 	0.05447	0.9698	0.2184	-0.153
Mof_N 	N 	0.2236	0.0462	0.8888	-0.147
Mof_N 	N 	0.24202	0.0979	0.6107	-0.162
Mof_N 	N 	0.17797	0.3894	0.5477	-0.162
Mof_N 	N 	0.04132	0.3816	0.6341	-0.089
Mof_Mn	Mn	0.2118	0.51649	0.95874	0.648
Mof_Mo	Mo	0.14215	0.19432	0.67539	0.968
Mof_C 	C 	0.5879	0.6396	0.5092	-0.134
Mof_C 	C 	0.68205	0.8006	0.8106	-0.14
Mof_C 	C 	0.5846	0.4099	0.2051	-0.131
Mof_C 	C 	0.694	0.5965	0.811	-0.138
Mof_C 	C 	0.7072	0.6287	0.636	-0.135
Mof_C 	C 	0.66549	0.8236	0.5941	-0.123
Mof_C 	C 	0.57377	0.8111	0.648	-0.136
Mof_N 	N 	0.55809	0.6115	0.42	-0.155
Mof_N 	N 	0.70015	0.8639	0.8815	-0.151
Mof_N 	N 	0.55447	0.4698	0.2184	-0.151
Mof_N 	N 	0.7236	0.5462	0.8888	-0.147
Mof_N 	N 	0.74202	0.5979	0.6107	-0.162
Mof_N 	N 	0.67797	0.8894	0.5477	-0.161
Mof_N 	N 	0.54132	0.8816	0.6341	-0.081
Mof_Mn	Mn	0.7118	0.01649	0.95874	0.652
Mof_Mo	Mo	0.64215	0.69432	0.67539	0.969
Mof_C 	C 	0.9121	0.1396	0.9908	-0.134
Mof_C 	C 	0.81795	0.3006	0.6894	-0.139
Mof_C 	C 	0.9154	0.9099	0.2949	-0.125
Mof_C 	C 	0.806	0.0965	0.689	-0.137
Mof_C 	C 	0.7928	0.1287	0.864	-0.135
Mof_C 	C 	0.83451	0.3236	0.9059	-0.122
Mof_C 	C 	0.92623	0.3111	0.852	-0.129
Mof_N 	N 	0.94191	0.1115	0.08	-0.136
Mof_N 	N 	0.79985	0.3639	0.6185	-0.15
Mof_N 	N 	0.94553	0.9698	0.2816	-0.136
Mof_N 	N 	0.7764	0.0462	0.6112	-0.145
Mof_N 	N 	0.75798	0.0979	0.8893	-0.162
Mof_N 	N 	0.82203	0.3894	0.9523	-0.161
Mof_N 	N 	0.95868	0.3816	0.8659	-0.072
Mof_Mn	Mn	0.7882	0.51649	0.54126	0.66
Mof_Mo	Mo	0.85785	0.19432	0.82461	0.973
Mof_C 	C 	0.4121	0.6396	0.9908	-0.137
Mof_C 	C 	0.31795	0.8006	0.6894	-0.141
Mof_C 	C 	0.4154	0.4099	0.2949	-0.131
Mof_C 	C 	0.306	0.5965	0.689	-0.138
Mof_C 	C 	0.2928	0.6287	0.864	-0.136
Mof_C 	C 	0.33451	0.8236	0.9059	-0.124
Mof_C 	C 	0.42623	0.8111	0.852	-0.137
Mof_N 	N 	0.44191	0.6115	0.08	-0.153
Mof_N 	N 	0.29985	0.8639	0.6185	-0.151
Mof_N 	N 	0.44553	0.4698	0.2816	-0.151
Mof_N 	N 	0.2764	0.5462	0.6112	-0.145
Mof_N 	N 	0.25798	0.5979	0.8893	-0.162
Mof_N 	N 	0.32203	0.8894	0.9523	-0.162
Mof_N 	N 	0.45868	0.8816	0.8659	-0.081
Mof_Mn	Mn	0.2882	0.01649	0.54126	0.655
Mof_Mo	Mo	0.35785	0.69432	0.82461	0.969
Mof_Mn	Mn	2.12757e-33	0.92221	0.75	0.599
Mof_Mn	Mn	0.5	0.42221	0.75	0.641
Mof_Mn	Mn	7.0919e-34	0.07779	0.25	0.602
Mof_Mn	Mn	0.5	0.57779	0.25	0.642
_end
