data_functionalizedCrystal
_audit_creation_method	'EQeq! by Chris Wilmer'
_symmetry_space_group_name_H-M	'P1'
_symmetry_Int_Tables_number	1
_symmetry_cell_setting	triclinic
loop_
_symmetry_equiv_pos_as_xyz
  x,y,z
_cell_length_a	24.1636
_cell_length_b	17.671
_cell_length_c	10.1065
_cell_angle_alpha	90
_cell_angle_beta	113.969
_cell_angle_gamma	90
loop_
_atom_site_label
_atom_site_type_symbol
_atom_site_fract_x
_atom_site_fract_y
_atom_site_fract_z
_atom_site_charge
Mof_Cu	Cu	0.27646	0.19298	0.96543	0.902
Mof_O 	O 	0.2198	0.129	0.0026	-0.457
Mof_O 	O 	0.1751	0.2259	0.063	-0.446
Mof_O 	O 	0.213	0.2095	0.7698	-0.465
Mof_O 	O 	0.1692	0.3068	0.8301	-0.46
Mof_C 	C 	0.1798	0.1565	0.0343	0.419
Mof_C 	C 	0.129	0.1081	0.0349	-0.268
Mof_C 	C 	0.1372	0.0367	0.0978	0.314
Mof_C 	C 	0.0873	0.9938	0.0865	-0.277
Mof_H 	H 	0.0928	0.9455	0.1291	0.125
Mof_C 	C 	0.0291	0.0223	0.0124	0.108
Mof_C 	C 	0.0209	0.0937	0.9495	-0.191
Mof_H 	H 	0.9816	0.1129	0.8993	0.09
Mof_C 	C 	0.0709	0.1366	0.9608	0.144
Mof_H 	H 	0.0653	0.1849	0.9182	-0.031
Mof_C 	C 	0.2016	0.0053	0.182	-0.697
Mof_H 	H 	0.2301	0.0469	0.2159	0.23
Mof_H 	H 	0.2126	0.9729	0.1191	0.22
Mof_H 	H 	0.2026	0.9762	0.2645	0.225
Mof_C 	C 	0.1727	0.2579	0.7433	0.464
Mof_C 	C 	0.1214	0.2577	0.5951	-0.379
Mof_C 	C 	0.065	0.2844	0.5796	0.362
Mof_C 	C 	0.0171	0.2855	0.4438	-0.313
Mof_H 	H 	0.979	0.3035	0.4334	0.124
Mof_C 	C 	0.0257	0.2598	0.3234	0.141
Mof_C 	C 	0.0821	0.2331	0.3389	-0.324
Mof_H 	H 	0.0879	0.2158	0.2575	0.141
Mof_C 	C 	0.1299	0.232	0.4747	0.373
Mof_C 	C 	0.0427	0.3094	0.697	-0.723
Mof_H 	H 	0.0008	0.3259	0.6511	0.218
Mof_H 	H 	0.0676	0.3509	0.7532	0.235
Mof_H 	H 	0.0457	0.2672	0.7612	0.232
Mof_C 	C 	0.1891	0.2	0.471	-0.76
Mof_H 	H 	0.191	0.2133	0.3802	0.242
Mof_H 	H 	0.1895	0.1454	0.4809	0.244
Mof_H 	H 	0.2237	0.2213	0.5508	0.245
Mof_Cu	Cu	0.77646	0.69298	0.96543	0.901
Mof_O 	O 	0.7198	0.629	0.0026	-0.459
Mof_O 	O 	0.6751	0.7259	0.063	-0.447
Mof_O 	O 	0.713	0.7095	0.7698	-0.465
Mof_O 	O 	0.6692	0.8068	0.8301	-0.46
Mof_C 	C 	0.6798	0.6565	0.0343	0.419
Mof_C 	C 	0.629	0.6081	0.0349	-0.27
Mof_C 	C 	0.6372	0.5367	0.0978	0.313
Mof_C 	C 	0.5873	0.4938	0.0865	-0.274
Mof_H 	H 	0.5928	0.4455	0.1291	0.123
Mof_C 	C 	0.5291	0.5223	0.0124	0.105
Mof_C 	C 	0.5209	0.5937	0.9495	-0.19
Mof_H 	H 	0.4816	0.6129	0.8993	0.091
Mof_C 	C 	0.5709	0.6366	0.9608	0.145
Mof_H 	H 	0.5653	0.6849	0.9182	-0.031
Mof_C 	C 	0.7016	0.5053	0.182	-0.704
Mof_H 	H 	0.7301	0.5469	0.2159	0.232
Mof_H 	H 	0.7126	0.4729	0.1191	0.223
Mof_H 	H 	0.7026	0.4762	0.2645	0.228
Mof_C 	C 	0.6727	0.7579	0.7433	0.464
Mof_C 	C 	0.6214	0.7577	0.5951	-0.379
Mof_C 	C 	0.565	0.7844	0.5796	0.362
Mof_C 	C 	0.5171	0.7855	0.4438	-0.312
Mof_H 	H 	0.479	0.8035	0.4334	0.123
Mof_C 	C 	0.5257	0.7598	0.3234	0.14
Mof_C 	C 	0.5821	0.7331	0.3389	-0.323
Mof_H 	H 	0.5879	0.7158	0.2575	0.141
Mof_C 	C 	0.6299	0.732	0.4747	0.373
Mof_C 	C 	0.5427	0.8094	0.697	-0.723
Mof_H 	H 	0.5008	0.8259	0.6511	0.218
Mof_H 	H 	0.5676	0.8509	0.7532	0.235
Mof_H 	H 	0.5457	0.7672	0.7612	0.232
Mof_C 	C 	0.6891	0.7	0.471	-0.759
Mof_H 	H 	0.691	0.7133	0.3802	0.241
Mof_H 	H 	0.6895	0.6454	0.4809	0.244
Mof_H 	H 	0.7237	0.7213	0.5508	0.245
Mof_Cu	Cu	0.72354	0.19298	0.53457	0.901
Mof_O 	O 	0.7802	0.129	0.4974	-0.458
Mof_O 	O 	0.8249	0.2259	0.437	-0.447
Mof_O 	O 	0.787	0.2095	0.7302	-0.466
Mof_O 	O 	0.8308	0.3068	0.6699	-0.461
Mof_C 	C 	0.8202	0.1565	0.4657	0.418
Mof_C 	C 	0.871	0.1081	0.4651	-0.269
Mof_C 	C 	0.8628	0.0367	0.4022	0.312
Mof_C 	C 	0.9127	0.9938	0.4135	-0.274
Mof_H 	H 	0.9072	0.9455	0.3709	0.123
Mof_C 	C 	0.9709	0.0223	0.4876	0.106
Mof_C 	C 	0.9791	0.0937	0.5505	-0.189
Mof_H 	H 	0.0184	0.1129	0.6007	0.09
Mof_C 	C 	0.9291	0.1366	0.5392	0.144
Mof_H 	H 	0.9347	0.1849	0.5818	-0.031
Mof_C 	C 	0.7984	0.0053	0.318	-0.697
Mof_H 	H 	0.7699	0.0469	0.2841	0.231
Mof_H 	H 	0.7874	0.9729	0.3809	0.221
Mof_H 	H 	0.7974	0.9762	0.2355	0.225
Mof_C 	C 	0.8273	0.2579	0.7567	0.463
Mof_C 	C 	0.8786	0.2577	0.9049	-0.379
Mof_C 	C 	0.935	0.2844	0.9204	0.359
Mof_C 	C 	0.9829	0.2855	0.0562	-0.309
Mof_H 	H 	0.021	0.3035	0.0666	0.122
Mof_C 	C 	0.9743	0.2598	0.1766	0.139
Mof_C 	C 	0.9179	0.2331	0.1611	-0.323
Mof_H 	H 	0.9121	0.2158	0.2425	0.141
Mof_C 	C 	0.8701	0.232	0.0253	0.373
Mof_C 	C 	0.9573	0.3094	0.803	-0.721
Mof_H 	H 	0.9992	0.3259	0.8489	0.217
Mof_H 	H 	0.9324	0.3509	0.7468	0.234
Mof_H 	H 	0.9543	0.2672	0.7388	0.231
Mof_C 	C 	0.8109	0.2	0.029	-0.755
Mof_H 	H 	0.809	0.2133	0.1198	0.24
Mof_H 	H 	0.8105	0.1454	0.0191	0.243
Mof_H 	H 	0.7763	0.2213	0.9492	0.243
Mof_Cu	Cu	0.22354	0.69298	0.53457	0.901
Mof_O 	O 	0.2802	0.629	0.4974	-0.459
Mof_O 	O 	0.3249	0.7259	0.437	-0.447
Mof_O 	O 	0.287	0.7095	0.7302	-0.465
Mof_O 	O 	0.3308	0.8068	0.6699	-0.461
Mof_C 	C 	0.3202	0.6565	0.4657	0.418
Mof_C 	C 	0.371	0.6081	0.4651	-0.27
Mof_C 	C 	0.3628	0.5367	0.4022	0.313
Mof_C 	C 	0.4127	0.4938	0.4135	-0.274
Mof_H 	H 	0.4072	0.4455	0.3709	0.123
Mof_C 	C 	0.4709	0.5223	0.4876	0.105
Mof_C 	C 	0.4791	0.5937	0.5505	-0.189
Mof_H 	H 	0.5184	0.6129	0.6007	0.09
Mof_C 	C 	0.4291	0.6366	0.5392	0.144
Mof_H 	H 	0.4347	0.6849	0.5818	-0.031
Mof_C 	C 	0.2984	0.5053	0.318	-0.704
Mof_H 	H 	0.2699	0.5469	0.2841	0.232
Mof_H 	H 	0.2874	0.4729	0.3809	0.223
Mof_H 	H 	0.2974	0.4762	0.2355	0.228
Mof_C 	C 	0.3273	0.7579	0.7567	0.464
Mof_C 	C 	0.3786	0.7577	0.9049	-0.379
Mof_C 	C 	0.435	0.7844	0.9204	0.364
Mof_C 	C 	0.4829	0.7855	0.0562	-0.315
Mof_H 	H 	0.521	0.8035	0.0666	0.124
Mof_C 	C 	0.4743	0.7598	0.1766	0.141
Mof_C 	C 	0.4179	0.7331	0.1611	-0.325
Mof_H 	H 	0.4121	0.7158	0.2425	0.141
Mof_C 	C 	0.3701	0.732	0.0253	0.373
Mof_C 	C 	0.4573	0.8094	0.803	-0.725
Mof_H 	H 	0.4992	0.8259	0.8489	0.219
Mof_H 	H 	0.4324	0.8509	0.7468	0.235
Mof_H 	H 	0.4543	0.7672	0.7388	0.233
Mof_C 	C 	0.3109	0.7	0.029	-0.763
Mof_H 	H 	0.309	0.7133	0.1198	0.243
Mof_H 	H 	0.3105	0.6454	0.0191	0.245
Mof_H 	H 	0.2763	0.7213	0.9492	0.247
Mof_Cu	Cu	0.72354	0.80702	0.03457	0.901
Mof_O 	O 	0.7802	0.871	0.9974	-0.458
Mof_O 	O 	0.8249	0.7741	0.937	-0.447
Mof_O 	O 	0.787	0.7905	0.2302	-0.466
Mof_O 	O 	0.8308	0.6932	0.1699	-0.461
Mof_C 	C 	0.8202	0.8435	0.9657	0.418
Mof_C 	C 	0.871	0.8919	0.9651	-0.269
Mof_C 	C 	0.8628	0.9633	0.9022	0.313
Mof_C 	C 	0.9127	0.0062	0.9135	-0.278
Mof_H 	H 	0.9072	0.0545	0.8709	0.124
Mof_C 	C 	0.9709	0.9777	0.9876	0.108
Mof_C 	C 	0.9791	0.9063	0.0505	-0.191
Mof_H 	H 	0.0184	0.8871	0.1007	0.09
Mof_C 	C 	0.9291	0.8634	0.0392	0.144
Mof_H 	H 	0.9347	0.8151	0.0818	-0.031
Mof_C 	C 	0.7984	0.9947	0.818	-0.697
Mof_H 	H 	0.7699	0.9531	0.7841	0.23
Mof_H 	H 	0.7874	0.0271	0.8809	0.22
Mof_H 	H 	0.7974	0.0238	0.7355	0.225
Mof_C 	C 	0.8273	0.7421	0.2567	0.464
Mof_C 	C 	0.8786	0.7423	0.4049	-0.379
Mof_C 	C 	0.935	0.7156	0.4204	0.362
Mof_C 	C 	0.9829	0.7145	0.5562	-0.313
Mof_H 	H 	0.021	0.6965	0.5666	0.124
Mof_C 	C 	0.9743	0.7402	0.6766	0.141
Mof_C 	C 	0.9179	0.7669	0.6611	-0.324
Mof_H 	H 	0.9121	0.7842	0.7425	0.141
Mof_C 	C 	0.8701	0.768	0.5253	0.373
Mof_C 	C 	0.9573	0.6906	0.303	-0.723
Mof_H 	H 	0.9992	0.6741	0.3489	0.218
Mof_H 	H 	0.9324	0.6491	0.2468	0.235
Mof_H 	H 	0.9543	0.7328	0.2388	0.232
Mof_C 	C 	0.8109	0.8	0.529	-0.76
Mof_H 	H 	0.809	0.7867	0.6198	0.242
Mof_H 	H 	0.8105	0.8546	0.5191	0.244
Mof_H 	H 	0.7763	0.7787	0.4492	0.245
Mof_Cu	Cu	0.22354	0.30702	0.03457	0.901
Mof_O 	O 	0.2802	0.371	0.9974	-0.459
Mof_O 	O 	0.3249	0.2741	0.937	-0.447
Mof_O 	O 	0.287	0.2905	0.2302	-0.465
Mof_O 	O 	0.3308	0.1932	0.1699	-0.46
Mof_C 	C 	0.3202	0.3435	0.9657	0.419
Mof_C 	C 	0.371	0.3919	0.9651	-0.27
Mof_C 	C 	0.3628	0.4633	0.9022	0.313
Mof_C 	C 	0.4127	0.5062	0.9135	-0.274
Mof_H 	H 	0.4072	0.5545	0.8709	0.123
Mof_C 	C 	0.4709	0.4777	0.9876	0.105
Mof_C 	C 	0.4791	0.4063	0.0505	-0.19
Mof_H 	H 	0.5184	0.3871	0.1007	0.091
Mof_C 	C 	0.4291	0.3634	0.0392	0.145
Mof_H 	H 	0.4347	0.3151	0.0818	-0.031
Mof_C 	C 	0.2984	0.4947	0.818	-0.704
Mof_H 	H 	0.2699	0.4531	0.7841	0.232
Mof_H 	H 	0.2874	0.5271	0.8809	0.223
Mof_H 	H 	0.2974	0.5238	0.7355	0.228
Mof_C 	C 	0.3273	0.2421	0.2567	0.464
Mof_C 	C 	0.3786	0.2423	0.4049	-0.379
Mof_C 	C 	0.435	0.2156	0.4204	0.362
Mof_C 	C 	0.4829	0.2145	0.5562	-0.312
Mof_H 	H 	0.521	0.1965	0.5666	0.123
Mof_C 	C 	0.4743	0.2402	0.6766	0.14
Mof_C 	C 	0.4179	0.2669	0.6611	-0.323
Mof_H 	H 	0.4121	0.2842	0.7425	0.141
Mof_C 	C 	0.3701	0.268	0.5253	0.373
Mof_C 	C 	0.4573	0.1906	0.303	-0.723
Mof_H 	H 	0.4992	0.1741	0.3489	0.218
Mof_H 	H 	0.4324	0.1491	0.2468	0.235
Mof_H 	H 	0.4543	0.2328	0.2388	0.232
Mof_C 	C 	0.3109	0.3	0.529	-0.759
Mof_H 	H 	0.309	0.2867	0.6198	0.241
Mof_H 	H 	0.3105	0.3546	0.5191	0.244
Mof_H 	H 	0.2763	0.2787	0.4492	0.245
Mof_Cu	Cu	0.27646	0.80702	0.46543	0.901
Mof_O 	O 	0.2198	0.871	0.5026	-0.458
Mof_O 	O 	0.1751	0.7741	0.563	-0.447
Mof_O 	O 	0.213	0.7905	0.2698	-0.466
Mof_O 	O 	0.1692	0.6932	0.3301	-0.461
Mof_C 	C 	0.1798	0.8435	0.5343	0.418
Mof_C 	C 	0.129	0.8919	0.5349	-0.269
Mof_C 	C 	0.1372	0.9633	0.5978	0.312
Mof_C 	C 	0.0873	0.0062	0.5865	-0.274
Mof_H 	H 	0.0928	0.0545	0.6291	0.123
Mof_C 	C 	0.0291	0.9777	0.5124	0.106
Mof_C 	C 	0.0209	0.9063	0.4495	-0.189
Mof_H 	H 	0.9816	0.8871	0.3993	0.09
Mof_C 	C 	0.0709	0.8634	0.4608	0.144
Mof_H 	H 	0.0653	0.8151	0.4182	-0.031
Mof_C 	C 	0.2016	0.9947	0.682	-0.697
Mof_H 	H 	0.2301	0.9531	0.7159	0.231
Mof_H 	H 	0.2126	0.0271	0.6191	0.221
Mof_H 	H 	0.2026	0.0238	0.7645	0.225
Mof_C 	C 	0.1727	0.7421	0.2433	0.463
Mof_C 	C 	0.1214	0.7423	0.0951	-0.379
Mof_C 	C 	0.065	0.7156	0.0796	0.359
Mof_C 	C 	0.0171	0.7145	0.9438	-0.309
Mof_H 	H 	0.979	0.6965	0.9334	0.122
Mof_C 	C 	0.0257	0.7402	0.8234	0.139
Mof_C 	C 	0.0821	0.7669	0.8389	-0.323
Mof_H 	H 	0.0879	0.7842	0.7575	0.141
Mof_C 	C 	0.1299	0.768	0.9747	0.373
Mof_C 	C 	0.0427	0.6906	0.197	-0.721
Mof_H 	H 	0.0008	0.6741	0.1511	0.217
Mof_H 	H 	0.0676	0.6491	0.2532	0.234
Mof_H 	H 	0.0457	0.7328	0.2612	0.231
Mof_C 	C 	0.1891	0.8	0.971	-0.755
Mof_H 	H 	0.191	0.7867	0.8802	0.24
Mof_H 	H 	0.1895	0.8546	0.9809	0.243
Mof_H 	H 	0.2237	0.7787	0.0508	0.243
Mof_Cu	Cu	0.77646	0.30702	0.46543	0.901
Mof_O 	O 	0.7198	0.371	0.5026	-0.459
Mof_O 	O 	0.6751	0.2741	0.563	-0.447
Mof_O 	O 	0.713	0.2905	0.2698	-0.465
Mof_O 	O 	0.6692	0.1932	0.3301	-0.461
Mof_C 	C 	0.6798	0.3435	0.5343	0.418
Mof_C 	C 	0.629	0.3919	0.5349	-0.27
Mof_C 	C 	0.6372	0.4633	0.5978	0.313
Mof_C 	C 	0.5873	0.5062	0.5865	-0.274
Mof_H 	H 	0.5928	0.5545	0.6291	0.123
Mof_C 	C 	0.5291	0.4777	0.5124	0.105
Mof_C 	C 	0.5209	0.4063	0.4495	-0.189
Mof_H 	H 	0.4816	0.3871	0.3993	0.09
Mof_C 	C 	0.5709	0.3634	0.4608	0.144
Mof_H 	H 	0.5653	0.3151	0.4182	-0.031
Mof_C 	C 	0.7016	0.4947	0.682	-0.704
Mof_H 	H 	0.7301	0.4531	0.7159	0.232
Mof_H 	H 	0.7126	0.5271	0.6191	0.223
Mof_H 	H 	0.7026	0.5238	0.7645	0.228
Mof_C 	C 	0.6727	0.2421	0.2433	0.464
Mof_C 	C 	0.6214	0.2423	0.0951	-0.379
Mof_C 	C 	0.565	0.2156	0.0796	0.364
Mof_C 	C 	0.5171	0.2145	0.9438	-0.315
Mof_H 	H 	0.479	0.1965	0.9334	0.124
Mof_C 	C 	0.5257	0.2402	0.8234	0.141
Mof_C 	C 	0.5821	0.2669	0.8389	-0.325
Mof_H 	H 	0.5879	0.2842	0.7575	0.141
Mof_C 	C 	0.6299	0.268	0.9747	0.373
Mof_C 	C 	0.5427	0.1906	0.197	-0.725
Mof_H 	H 	0.5008	0.1741	0.1511	0.219
Mof_H 	H 	0.5676	0.1491	0.2532	0.235
Mof_H 	H 	0.5457	0.2328	0.2612	0.233
Mof_C 	C 	0.6891	0.3	0.971	-0.763
Mof_H 	H 	0.691	0.2867	0.8802	0.243
Mof_H 	H 	0.6895	0.3546	0.9809	0.245
Mof_H 	H 	0.7237	0.2787	0.0508	0.247
_end
