data_functionalizedCrystal
_audit_creation_method	'EQeq! by Chris Wilmer'
_symmetry_space_group_name_H-M	'P1'
_symmetry_Int_Tables_number	1
_symmetry_cell_setting	triclinic
loop_
_symmetry_equiv_pos_as_xyz
  x,y,z
_cell_length_a	29.22
_cell_length_b	29.22
_cell_length_c	9.3882
_cell_angle_alpha	90
_cell_angle_beta	90
_cell_angle_gamma	90
loop_
_atom_site_label
_atom_site_type_symbol
_atom_site_fract_x
_atom_site_fract_y
_atom_site_fract_z
_atom_site_charge
Mof_O 	O 	0.5123	0.0668	0.6578	-0.264
Mof_O 	O 	0.4526	0.0568	0.5223	-0.23
Mof_O 	O 	0.3894	0.19435	0.2644	-0.234
Mof_O 	O 	0.4214	0.2607	0.2945	-0.231
Mof_O 	O 	0.6897	0.1735	0.456	-0.225
Mof_O 	O 	0.7285	0.2245	0.5752	-0.134
Mof_C 	C 	0.4818	0.081	0.5748	0.31
Mof_C 	C 	0.419	0.2194	0.3181	0.297
Mof_C 	C 	0.4846	0.1311	0.5321	-0.018
Mof_C 	C 	0.4522	0.1506	0.4491	-0.024
Mof_H 	H 	0.4283	0.1328	0.4138	0.084
Mof_C 	C 	0.4541	0.1974	0.4156	-0.014
Mof_C 	C 	0.4903	0.2233	0.4658	-0.065
Mof_H 	H 	0.492	0.2544	0.4447	0.085
Mof_C 	C 	0.5237	0.2032	0.5463	0.047
Mof_C 	C 	0.5206	0.1563	0.5796	-0.064
Mof_H 	H 	0.5432	0.1426	0.6344	0.088
Mof_C 	C 	0.6891	0.2054	0.5307	0.49
Mof_C 	C 	0.6508	0.2303	0.5899	-0.061
Mof_C 	C 	0.6071	0.2109	0.5518	-0.02
Mof_H 	H 	0.607	0.1843	0.4973	0.072
Mof_C 	C 	0.5669	0.2287	0.59	0.001
Mof_O 	O 	0.708	0.1733	0.581	-0.189
Mof_O 	O 	0.7064	0.2145	0.406	-0.154
Mof_O 	O 	0.0123	0.5668	0.1578	-0.272
Mof_O 	O 	0.9526	0.5568	0.0223	-0.228
Mof_O 	O 	0.8894	0.69435	0.7644	-0.232
Mof_O 	O 	0.9214	0.7607	0.7945	-0.229
Mof_O 	O 	0.1897	0.6735	0.956	-0.218
Mof_O 	O 	0.2285	0.7245	0.0752	-0.132
Mof_C 	C 	0.9818	0.581	0.0748	0.324
Mof_C 	C 	0.919	0.7194	0.8181	0.303
Mof_C 	C 	0.9846	0.6311	0.0321	-0.021
Mof_C 	C 	0.9522	0.6506	0.9491	-0.01
Mof_H 	H 	0.9283	0.6328	0.9138	0.082
Mof_C 	C 	0.9541	0.6974	0.9156	-0.024
Mof_C 	C 	0.9903	0.7233	0.9658	-0.035
Mof_H 	H 	0.992	0.7544	0.9447	0.08
Mof_C 	C 	0.0237	0.7032	0.0463	0.021
Mof_C 	C 	0.0206	0.6563	0.0796	-0.063
Mof_H 	H 	0.0432	0.6426	0.1344	0.086
Mof_C 	C 	0.1891	0.7054	0.0307	0.478
Mof_C 	C 	0.1508	0.7303	0.0899	-0.05
Mof_C 	C 	0.1071	0.7109	0.0518	-0.039
Mof_H 	H 	0.107	0.6843	0.9973	0.082
Mof_C 	C 	0.0669	0.7287	0.09	0.013
Mof_O 	O 	0.208	0.6733	0.081	-0.189
Mof_O 	O 	0.2064	0.7145	0.906	-0.15
Mof_O 	O 	0.4877	0.9332	0.6578	-0.258
Mof_O 	O 	0.5474	0.9432	0.5223	-0.222
Mof_O 	O 	0.6106	0.80565	0.2644	-0.232
Mof_O 	O 	0.5786	0.7393	0.2945	-0.23
Mof_O 	O 	0.3103	0.8265	0.456	-0.224
Mof_O 	O 	0.2715	0.7755	0.5752	-0.133
Mof_C 	C 	0.5182	0.919	0.5748	0.309
Mof_C 	C 	0.581	0.7806	0.3181	0.297
Mof_C 	C 	0.5154	0.8689	0.5321	-0.015
Mof_C 	C 	0.5478	0.8494	0.4491	-0.025
Mof_H 	H 	0.5717	0.8672	0.4138	0.086
Mof_C 	C 	0.5459	0.8026	0.4156	-0.012
Mof_C 	C 	0.5097	0.7767	0.4658	-0.066
Mof_H 	H 	0.508	0.7456	0.4447	0.085
Mof_C 	C 	0.4763	0.7968	0.5463	0.048
Mof_C 	C 	0.4794	0.8437	0.5796	-0.065
Mof_H 	H 	0.4568	0.8574	0.6344	0.089
Mof_C 	C 	0.3109	0.7946	0.5307	0.49
Mof_C 	C 	0.3492	0.7697	0.5899	-0.06
Mof_C 	C 	0.3929	0.7891	0.5518	-0.02
Mof_H 	H 	0.393	0.8157	0.4973	0.072
Mof_C 	C 	0.4331	0.7713	0.59	0.001
Mof_O 	O 	0.292	0.8267	0.581	-0.189
Mof_O 	O 	0.2936	0.7855	0.406	-0.154
Mof_O 	O 	0.9877	0.4332	0.1578	-0.252
Mof_O 	O 	0.0474	0.4432	0.0223	-0.228
Mof_O 	O 	0.1106	0.30565	0.7644	-0.233
Mof_O 	O 	0.0786	0.2393	0.7945	-0.23
Mof_O 	O 	0.8103	0.3265	0.956	-0.218
Mof_O 	O 	0.7715	0.2755	0.0752	-0.132
Mof_C 	C 	0.0182	0.419	0.0748	0.304
Mof_C 	C 	0.081	0.2806	0.8181	0.3
Mof_C 	C 	0.0154	0.3689	0.0321	-0.04
Mof_C 	C 	0.0478	0.3494	0.9491	-0.008
Mof_H 	H 	0.0717	0.3672	0.9138	0.08
Mof_C 	C 	0.0459	0.3026	0.9156	-0.02
Mof_C 	C 	0.0097	0.2767	0.9658	-0.062
Mof_H 	H 	0.008	0.2456	0.9447	0.083
Mof_C 	C 	0.9763	0.2968	0.0463	0.041
Mof_C 	C 	0.9794	0.3437	0.0796	-0.041
Mof_H 	H 	0.9568	0.3574	0.1344	0.081
Mof_C 	C 	0.8109	0.2946	0.0307	0.478
Mof_C 	C 	0.8492	0.2697	0.0899	-0.049
Mof_C 	C 	0.8929	0.2891	0.0518	-0.037
Mof_H 	H 	0.893	0.3157	0.9973	0.082
Mof_C 	C 	0.9331	0.2713	0.09	0.013
Mof_O 	O 	0.792	0.3267	0.081	-0.189
Mof_O 	O 	0.7936	0.2855	0.906	-0.15
Mof_O 	O 	0.0668	0.4877	0.3422	-0.263
Mof_O 	O 	0.0568	0.5474	0.4777	-0.228
Mof_O 	O 	0.19435	0.6106	0.7356	-0.232
Mof_O 	O 	0.2607	0.5786	0.7055	-0.229
Mof_O 	O 	0.1735	0.3103	0.544	-0.224
Mof_O 	O 	0.2245	0.2715	0.4248	-0.133
Mof_C 	C 	0.081	0.5182	0.4252	0.311
Mof_C 	C 	0.2194	0.581	0.6819	0.298
Mof_C 	C 	0.1311	0.5154	0.4679	-0.018
Mof_C 	C 	0.1506	0.5478	0.5509	-0.024
Mof_H 	H 	0.1328	0.5717	0.5862	0.084
Mof_C 	C 	0.1974	0.5459	0.5844	-0.013
Mof_C 	C 	0.2233	0.5097	0.5342	-0.065
Mof_H 	H 	0.2544	0.508	0.5553	0.086
Mof_C 	C 	0.2032	0.4763	0.4537	0.047
Mof_C 	C 	0.1563	0.4794	0.4204	-0.064
Mof_H 	H 	0.1426	0.4568	0.3656	0.087
Mof_C 	C 	0.2054	0.3109	0.4693	0.49
Mof_C 	C 	0.2303	0.3492	0.4101	-0.06
Mof_C 	C 	0.2109	0.3929	0.4482	-0.02
Mof_H 	H 	0.1843	0.393	0.5027	0.072
Mof_C 	C 	0.2287	0.4331	0.41	0.001
Mof_O 	O 	0.1733	0.292	0.419	-0.19
Mof_O 	O 	0.2145	0.2936	0.594	-0.154
Mof_O 	O 	0.5668	0.9877	0.8422	-0.249
Mof_O 	O 	0.5568	0.0474	0.9777	-0.222
Mof_O 	O 	0.69435	0.1106	0.2356	-0.232
Mof_O 	O 	0.7607	0.0786	0.2055	-0.23
Mof_O 	O 	0.6735	0.8103	0.044	-0.229
Mof_O 	O 	0.7245	0.7715	0.9248	-0.134
Mof_C 	C 	0.581	0.0182	0.9252	0.295
Mof_C 	C 	0.7194	0.081	0.1819	0.292
Mof_C 	C 	0.6311	0.0154	0.9679	-0.01
Mof_C 	C 	0.6506	0.0478	0.0509	-0.041
Mof_H 	H 	0.6328	0.0717	0.0862	0.088
Mof_C 	C 	0.6974	0.0459	0.0844	-0
Mof_C 	C 	0.7233	0.0097	0.0342	-0.097
Mof_H 	H 	0.7544	0.008	0.0553	0.092
Mof_C 	C 	0.7032	0.9763	0.9537	0.074
Mof_C 	C 	0.6563	0.9794	0.9204	-0.067
Mof_H 	H 	0.6426	0.9568	0.8656	0.091
Mof_C 	C 	0.7054	0.8109	0.9693	0.502
Mof_C 	C 	0.7303	0.8492	0.9101	-0.071
Mof_C 	C 	0.7109	0.8929	0.9482	-0.001
Mof_H 	H 	0.6843	0.893	0.0027	0.063
Mof_C 	C 	0.7287	0.9331	0.91	-0.011
Mof_O 	O 	0.6733	0.792	0.919	-0.189
Mof_O 	O 	0.7145	0.7936	0.094	-0.158
Mof_O 	O 	0.9332	0.5123	0.3422	-0.258
Mof_O 	O 	0.9432	0.4526	0.4777	-0.221
Mof_O 	O 	0.80565	0.3894	0.7356	-0.231
Mof_O 	O 	0.7393	0.4214	0.7055	-0.229
Mof_O 	O 	0.8265	0.6897	0.544	-0.223
Mof_O 	O 	0.7755	0.7285	0.4248	-0.133
Mof_C 	C 	0.919	0.4818	0.4252	0.309
Mof_C 	C 	0.7806	0.419	0.6819	0.298
Mof_C 	C 	0.8689	0.4846	0.4679	-0.015
Mof_C 	C 	0.8494	0.4522	0.5509	-0.025
Mof_H 	H 	0.8672	0.4283	0.5862	0.086
Mof_C 	C 	0.8026	0.4541	0.5844	-0.012
Mof_C 	C 	0.7767	0.4903	0.5342	-0.066
Mof_H 	H 	0.7456	0.492	0.5553	0.086
Mof_C 	C 	0.7968	0.5237	0.4537	0.048
Mof_C 	C 	0.8437	0.5206	0.4204	-0.065
Mof_H 	H 	0.8574	0.5432	0.3656	0.088
Mof_C 	C 	0.7946	0.6891	0.4693	0.49
Mof_C 	C 	0.7697	0.6508	0.4101	-0.06
Mof_C 	C 	0.7891	0.6071	0.4482	-0.02
Mof_H 	H 	0.8157	0.607	0.5027	0.073
Mof_C 	C 	0.7713	0.5669	0.41	0.001
Mof_O 	O 	0.8267	0.708	0.419	-0.189
Mof_O 	O 	0.7855	0.7064	0.594	-0.154
Mof_O 	O 	0.4332	0.0123	0.8422	-0.269
Mof_O 	O 	0.4432	0.9526	0.9777	-0.223
Mof_O 	O 	0.30565	0.8894	0.2356	-0.232
Mof_O 	O 	0.2393	0.9214	0.2055	-0.228
Mof_O 	O 	0.3265	0.1897	0.044	-0.23
Mof_O 	O 	0.2755	0.2285	0.9248	-0.134
Mof_C 	C 	0.419	0.9818	0.9252	0.315
Mof_C 	C 	0.2806	0.919	0.1819	0.295
Mof_C 	C 	0.3689	0.9846	0.9679	0.007
Mof_C 	C 	0.3494	0.9522	0.0509	-0.041
Mof_H 	H 	0.3672	0.9283	0.0862	0.09
Mof_C 	C 	0.3026	0.9541	0.0844	-0.005
Mof_C 	C 	0.2767	0.9903	0.0342	-0.069
Mof_H 	H 	0.2456	0.992	0.0553	0.088
Mof_C 	C 	0.2968	0.0237	0.9537	0.054
Mof_C 	C 	0.3437	0.0206	0.9204	-0.087
Mof_H 	H 	0.3574	0.0432	0.8656	0.095
Mof_C 	C 	0.2946	0.1891	0.9693	0.503
Mof_C 	C 	0.2697	0.1508	0.9101	-0.071
Mof_C 	C 	0.2891	0.1071	0.9482	-0.001
Mof_H 	H 	0.3157	0.107	0.0027	0.062
Mof_C 	C 	0.2713	0.0669	0.91	-0.011
Mof_O 	O 	0.3267	0.208	0.919	-0.189
Mof_O 	O 	0.2855	0.2064	0.094	-0.159
Mof_O 	O 	0.9877	0.0668	0.0922	-0.252
Mof_O 	O 	0.0474	0.0568	0.2277	-0.228
Mof_O 	O 	0.1106	0.19435	0.4856	-0.233
Mof_O 	O 	0.0786	0.2607	0.4555	-0.23
Mof_O 	O 	0.8103	0.1735	0.294	-0.224
Mof_O 	O 	0.7715	0.2245	0.1748	-0.134
Mof_C 	C 	0.0182	0.081	0.1752	0.3
Mof_C 	C 	0.081	0.2194	0.4319	0.296
Mof_C 	C 	0.0154	0.1311	0.2179	-0.026
Mof_C 	C 	0.0478	0.1506	0.3009	-0.025
Mof_H 	H 	0.0717	0.1328	0.3362	0.084
Mof_C 	C 	0.0459	0.1974	0.3344	-0.01
Mof_C 	C 	0.0097	0.2233	0.2842	-0.082
Mof_H 	H 	0.008	0.2544	0.3053	0.088
Mof_C 	C 	0.9763	0.2032	0.2037	0.06
Mof_C 	C 	0.9794	0.1563	0.1704	-0.055
Mof_H 	H 	0.9568	0.1426	0.1156	0.086
Mof_C 	C 	0.8109	0.2054	0.2193	0.494
Mof_C 	C 	0.8492	0.2303	0.1601	-0.068
Mof_C 	C 	0.8929	0.2109	0.1982	-0.012
Mof_H 	H 	0.893	0.1843	0.2527	0.07
Mof_C 	C 	0.9331	0.2287	0.16	-0.007
Mof_O 	O 	0.792	0.1733	0.169	-0.191
Mof_O 	O 	0.7936	0.2145	0.344	-0.154
Mof_O 	O 	0.4877	0.5668	0.5922	-0.262
Mof_O 	O 	0.5474	0.5568	0.7277	-0.225
Mof_O 	O 	0.6106	0.69435	0.9856	-0.23
Mof_O 	O 	0.5786	0.7607	0.9555	-0.227
Mof_O 	O 	0.3103	0.6735	0.794	-0.223
Mof_O 	O 	0.2715	0.7245	0.6748	-0.133
Mof_C 	C 	0.5182	0.581	0.6752	0.31
Mof_C 	C 	0.581	0.7194	0.9319	0.297
Mof_C 	C 	0.5154	0.6311	0.7179	-0.016
Mof_C 	C 	0.5478	0.6506	0.8009	-0.025
Mof_H 	H 	0.5717	0.6328	0.8362	0.086
Mof_C 	C 	0.5459	0.6974	0.8344	-0.012
Mof_C 	C 	0.5097	0.7233	0.7842	-0.066
Mof_H 	H 	0.508	0.7544	0.8053	0.086
Mof_C 	C 	0.4763	0.7032	0.7037	0.048
Mof_C 	C 	0.4794	0.6563	0.6704	-0.064
Mof_H 	H 	0.4568	0.6426	0.6156	0.088
Mof_C 	C 	0.3109	0.7054	0.7193	0.49
Mof_C 	C 	0.3492	0.7303	0.6601	-0.06
Mof_C 	C 	0.3929	0.7109	0.6982	-0.02
Mof_H 	H 	0.393	0.6843	0.7527	0.073
Mof_C 	C 	0.4331	0.7287	0.66	0.001
Mof_O 	O 	0.292	0.6733	0.669	-0.189
Mof_O 	O 	0.2936	0.7145	0.844	-0.153
Mof_O 	O 	0.0123	0.9332	0.0922	-0.267
Mof_O 	O 	0.9526	0.9432	0.2277	-0.222
Mof_O 	O 	0.8894	0.80565	0.4856	-0.232
Mof_O 	O 	0.9214	0.7393	0.4555	-0.228
Mof_O 	O 	0.1897	0.8265	0.294	-0.224
Mof_O 	O 	0.2285	0.7755	0.1748	-0.134
Mof_C 	C 	0.9818	0.919	0.1752	0.318
Mof_C 	C 	0.919	0.7806	0.4319	0.298
Mof_C 	C 	0.9846	0.8689	0.2179	-0.006
Mof_C 	C 	0.9522	0.8494	0.3009	-0.026
Mof_H 	H 	0.9283	0.8672	0.3362	0.086
Mof_C 	C 	0.9541	0.8026	0.3344	-0.014
Mof_C 	C 	0.9903	0.7767	0.2842	-0.054
Mof_H 	H 	0.992	0.7456	0.3053	0.085
Mof_C 	C 	0.0237	0.7968	0.2037	0.04
Mof_C 	C 	0.0206	0.8437	0.1704	-0.077
Mof_H 	H 	0.0432	0.8574	0.1156	0.091
Mof_C 	C 	0.1891	0.7946	0.2193	0.494
Mof_C 	C 	0.1508	0.7697	0.1601	-0.068
Mof_C 	C 	0.1071	0.7891	0.1982	-0.014
Mof_H 	H 	0.107	0.8157	0.2527	0.07
Mof_C 	C 	0.0669	0.7713	0.16	-0.006
Mof_O 	O 	0.208	0.8267	0.169	-0.191
Mof_O 	O 	0.2064	0.7855	0.344	-0.155
Mof_O 	O 	0.5123	0.4332	0.5922	-0.262
Mof_O 	O 	0.4526	0.4432	0.7277	-0.225
Mof_O 	O 	0.3894	0.30565	0.9856	-0.23
Mof_O 	O 	0.4214	0.2393	0.9555	-0.227
Mof_O 	O 	0.6897	0.3265	0.794	-0.223
Mof_O 	O 	0.7285	0.2755	0.6748	-0.133
Mof_C 	C 	0.4818	0.419	0.6752	0.31
Mof_C 	C 	0.419	0.2806	0.9319	0.297
Mof_C 	C 	0.4846	0.3689	0.7179	-0.016
Mof_C 	C 	0.4522	0.3494	0.8009	-0.025
Mof_H 	H 	0.4283	0.3672	0.8362	0.086
Mof_C 	C 	0.4541	0.3026	0.8344	-0.012
Mof_C 	C 	0.4903	0.2767	0.7842	-0.066
Mof_H 	H 	0.492	0.2456	0.8053	0.086
Mof_C 	C 	0.5237	0.2968	0.7037	0.048
Mof_C 	C 	0.5206	0.3437	0.6704	-0.064
Mof_H 	H 	0.5432	0.3574	0.6156	0.088
Mof_C 	C 	0.6891	0.2946	0.7193	0.49
Mof_C 	C 	0.6508	0.2697	0.6601	-0.06
Mof_C 	C 	0.6071	0.2891	0.6982	-0.02
Mof_H 	H 	0.607	0.3157	0.7527	0.073
Mof_C 	C 	0.5669	0.2713	0.66	0.001
Mof_O 	O 	0.708	0.3267	0.669	-0.189
Mof_O 	O 	0.7064	0.2855	0.844	-0.153
Mof_O 	O 	0.4332	0.4877	0.4078	-0.263
Mof_O 	O 	0.4432	0.5474	0.2723	-0.227
Mof_O 	O 	0.30565	0.6106	0.0144	-0.235
Mof_O 	O 	0.2393	0.5786	0.0445	-0.232
Mof_O 	O 	0.3265	0.3103	0.206	-0.224
Mof_O 	O 	0.2755	0.2715	0.3252	-0.133
Mof_C 	C 	0.419	0.5182	0.3248	0.31
Mof_C 	C 	0.2806	0.581	0.0681	0.298
Mof_C 	C 	0.3689	0.5154	0.2821	-0.018
Mof_C 	C 	0.3494	0.5478	0.1991	-0.024
Mof_H 	H 	0.3672	0.5717	0.1638	0.084
Mof_C 	C 	0.3026	0.5459	0.1656	-0.014
Mof_C 	C 	0.2767	0.5097	0.2158	-0.065
Mof_H 	H 	0.2456	0.508	0.1947	0.085
Mof_C 	C 	0.2968	0.4763	0.2963	0.047
Mof_C 	C 	0.3437	0.4794	0.3296	-0.064
Mof_H 	H 	0.3574	0.4568	0.3844	0.088
Mof_C 	C 	0.2946	0.3109	0.2807	0.491
Mof_C 	C 	0.2697	0.3492	0.3399	-0.061
Mof_C 	C 	0.2891	0.3929	0.3018	-0.02
Mof_H 	H 	0.3157	0.393	0.2473	0.072
Mof_C 	C 	0.2713	0.4331	0.34	0.001
Mof_O 	O 	0.3267	0.292	0.331	-0.189
Mof_O 	O 	0.2855	0.2936	0.156	-0.155
Mof_O 	O 	0.9332	0.9877	0.9078	-0.244
Mof_O 	O 	0.9432	0.0474	0.7723	-0.219
Mof_O 	O 	0.80565	0.1106	0.5144	-0.232
Mof_O 	O 	0.7393	0.0786	0.5445	-0.23
Mof_O 	O 	0.8265	0.8103	0.706	-0.222
Mof_O 	O 	0.7755	0.7715	0.8252	-0.132
Mof_C 	C 	0.919	0.0182	0.8248	0.299
Mof_C 	C 	0.7806	0.081	0.5681	0.296
Mof_C 	C 	0.8689	0.0154	0.7821	-0.024
Mof_C 	C 	0.8494	0.0478	0.6991	-0.024
Mof_H 	H 	0.8672	0.0717	0.6638	0.086
Mof_C 	C 	0.8026	0.0459	0.6656	-0.01
Mof_C 	C 	0.7767	0.0097	0.7158	-0.078
Mof_H 	H 	0.7456	0.008	0.6947	0.087
Mof_C 	C 	0.7968	0.9763	0.7963	0.056
Mof_C 	C 	0.8437	0.9794	0.8296	-0.053
Mof_H 	H 	0.8574	0.9568	0.8844	0.087
Mof_C 	C 	0.7946	0.8109	0.7807	0.486
Mof_C 	C 	0.7697	0.8492	0.8399	-0.052
Mof_C 	C 	0.7891	0.8929	0.8018	-0.025
Mof_H 	H 	0.8157	0.893	0.7473	0.075
Mof_C 	C 	0.7713	0.9331	0.84	0.008
Mof_O 	O 	0.8267	0.792	0.831	-0.187
Mof_O 	O 	0.7855	0.7936	0.656	-0.153
Mof_O 	O 	0.5668	0.5123	0.4078	-0.263
Mof_O 	O 	0.5568	0.4526	0.2723	-0.227
Mof_O 	O 	0.69435	0.3894	0.0144	-0.235
Mof_O 	O 	0.7607	0.4214	0.0445	-0.231
Mof_O 	O 	0.6735	0.6897	0.206	-0.224
Mof_O 	O 	0.7245	0.7285	0.3252	-0.133
Mof_C 	C 	0.581	0.4818	0.3248	0.31
Mof_C 	C 	0.7194	0.419	0.0681	0.298
Mof_C 	C 	0.6311	0.4846	0.2821	-0.018
Mof_C 	C 	0.6506	0.4522	0.1991	-0.024
Mof_H 	H 	0.6328	0.4283	0.1638	0.084
Mof_C 	C 	0.6974	0.4541	0.1656	-0.014
Mof_C 	C 	0.7233	0.4903	0.2158	-0.065
Mof_H 	H 	0.7544	0.492	0.1947	0.085
Mof_C 	C 	0.7032	0.5237	0.2963	0.047
Mof_C 	C 	0.6563	0.5206	0.3296	-0.064
Mof_H 	H 	0.6426	0.5432	0.3844	0.088
Mof_C 	C 	0.7054	0.6891	0.2807	0.491
Mof_C 	C 	0.7303	0.6508	0.3399	-0.061
Mof_C 	C 	0.7109	0.6071	0.3018	-0.02
Mof_H 	H 	0.6843	0.607	0.2473	0.072
Mof_C 	C 	0.7287	0.5669	0.34	0.001
Mof_O 	O 	0.6733	0.708	0.331	-0.189
Mof_O 	O 	0.7145	0.7064	0.156	-0.155
Mof_O 	O 	0.0668	0.0123	0.9078	-0.269
Mof_O 	O 	0.0568	0.9526	0.7723	-0.227
Mof_O 	O 	0.19435	0.8894	0.5144	-0.232
Mof_O 	O 	0.2607	0.9214	0.5445	-0.228
Mof_O 	O 	0.1735	0.1897	0.706	-0.223
Mof_O 	O 	0.2245	0.2285	0.8252	-0.132
Mof_C 	C 	0.081	0.9818	0.8248	0.32
Mof_C 	C 	0.2194	0.919	0.5681	0.3
Mof_C 	C 	0.1311	0.9846	0.7821	-0.009
Mof_C 	C 	0.1506	0.9522	0.6991	-0.023
Mof_H 	H 	0.1328	0.9283	0.6638	0.085
Mof_C 	C 	0.1974	0.9541	0.6656	-0.016
Mof_C 	C 	0.2233	0.9903	0.7158	-0.049
Mof_H 	H 	0.2544	0.992	0.6947	0.083
Mof_C 	C 	0.2032	0.0237	0.7963	0.034
Mof_C 	C 	0.1563	0.0206	0.8296	-0.073
Mof_H 	H 	0.1426	0.0432	0.8844	0.09
Mof_C 	C 	0.2054	0.1891	0.7807	0.486
Mof_C 	C 	0.2303	0.1508	0.8399	-0.053
Mof_C 	C 	0.2109	0.1071	0.8018	-0.028
Mof_H 	H 	0.1843	0.107	0.7473	0.074
Mof_C 	C 	0.2287	0.0669	0.84	0.009
Mof_O 	O 	0.1733	0.208	0.831	-0.188
Mof_O 	O 	0.2145	0.2064	0.656	-0.154
Mof_Cd	Cd	0.5	0	0.75	0.523
Mof_Cd	Cd	-2.84809e-33	0.5	0.25	0.523
Mof_Cd	Cd	-0	0	-0	0.508
Mof_Cd	Cd	0.5	0.5	0.5	0.533
Mof_Cd	Cd	0.35563	0.25	0.125	0.605
Mof_Cd	Cd	0.64437	0.75	0.125	0.605
Mof_Cd	Cd	0.14437	0.25	0.625	0.606
Mof_Cd	Cd	0.25	0.64437	0.875	0.609
Mof_Cd	Cd	0.75	0.14437	0.375	0.607
Mof_Cd	Cd	0.75	0.35563	0.875	0.609
Mof_Cd	Cd	0.25	0.85563	0.375	0.607
Mof_Cd	Cd	0.85563	0.75	0.625	0.607
_end
