data_functionalizedCrystal
_audit_creation_method	'EQeq! by Chris Wilmer'
_symmetry_space_group_name_H-M	'P1'
_symmetry_Int_Tables_number	1
_symmetry_cell_setting	triclinic
loop_
_symmetry_equiv_pos_as_xyz
  x,y,z
_cell_length_a	26.855
_cell_length_b	26.855
_cell_length_c	26.9075
_cell_angle_alpha	60.0645
_cell_angle_beta	60.0645
_cell_angle_gamma	90
loop_
_atom_site_label
_atom_site_type_symbol
_atom_site_fract_x
_atom_site_fract_y
_atom_site_fract_z
_atom_site_charge
Mof_Zn	Zn	0.1844	0.23626	0.28939	1.195
Mof_Zn	Zn	0.06344	0.13569	0.40182	1.195
Mof_Zn	Zn	0.52621	0.47436	0.28938	1.197
Mof_Zn	Zn	0.53474	0.46249	0.40182	1.197
Mof_Zn	Zn	0.23626	0.5262	0.28939	1.196
Mof_Zn	Zn	0.13569	0.53474	0.40182	1.197
Mof_Zn	Zn	0.47436	0.18441	0.28938	1.196
Mof_Zn	Zn	0.46249	0.06344	0.40182	1.196
Mof_Zn	Zn	0.8156	0.76374	0.71061	1.203
Mof_Zn	Zn	0.93656	0.86431	0.59818	1.198
Mof_Zn	Zn	0.47379	0.52564	0.71062	1.203
Mof_Zn	Zn	0.46526	0.53751	0.59818	1.197
Mof_Zn	Zn	0.76373	0.47379	0.71062	1.203
Mof_Zn	Zn	0.86431	0.46526	0.59818	1.198
Mof_Zn	Zn	0.52564	0.81559	0.71062	1.203
Mof_Zn	Zn	0.53751	0.93656	0.59818	1.198
Mof_Zn	Zn	0.2096	0.54965	-0	1.153
Mof_Zn	Zn	0.10009	0.56728	-0	1.152
Mof_Zn	Zn	0.7904	0.45035	-0	1.153
Mof_Zn	Zn	0.89991	0.43272	-0	1.153
Mof_Zn	Zn	0.54965	0.7904	-0	1.153
Mof_Zn	Zn	0.56728	0.89991	-0	1.153
Mof_Zn	Zn	0.45035	0.2096	-0	1.153
Mof_Zn	Zn	0.43272	0.10009	-0	1.152
Mof_H 	H 	0.2672	0.9049	0.6724	0.141
Mof_H 	H 	0.1076	0.9294	0.607	0.136
Mof_H 	H 	0.0831	0.7084	0.8046	0.141
Mof_H 	H 	0.1885	0.7547	0.82	0.094
Mof_H 	H 	0.3295	0.7331	0.8348	0.061
Mof_H 	H 	0.3504	0.8892	0.674	0.064
Mof_H 	H 	0.2614	0.9862	0.534	0.104
Mof_H 	H 	0.2882	0.1464	0.3722	0.044
Mof_H 	H 	0.1208	0.0234	0.5244	0.068
Mof_H 	H 	0.0207	0.7886	0.7126	0.062
Mof_H 	H 	0.8762	0.6405	0.826	0.047
Mof_H 	H 	0.0049	0.6272	0.8632	0.053
Mof_H 	H 	0.0604	0.4227	0.6724	0.138
Mof_H 	H 	0.2854	0.4636	0.607	0.134
Mof_H 	H 	0.1123	0.487	0.8046	0.141
Mof_H 	H 	0.9915	0.4253	0.82	0.098
Mof_H 	H 	0.8357	0.4321	0.8348	0.062
Mof_H 	H 	0.9756	0.4368	0.674	0.067
Mof_H 	H 	0.2046	0.4798	0.534	0.083
Mof_H 	H 	0.3396	0.4814	0.3722	0.039
Mof_H 	H 	0.3548	0.4522	0.5244	0.062
Mof_H 	H 	0.2667	0.4988	0.7126	0.086
Mof_H 	H 	0.2978	0.5335	0.826	0.055
Mof_H 	H 	0.1319	0.5096	0.8632	0.078
Mof_H 	H 	0.9049	0.0604	0.6724	0.139
Mof_H 	H 	0.9294	0.2854	0.607	0.137
Mof_H 	H 	0.7084	0.1123	0.8046	0.142
Mof_H 	H 	0.7547	0.9915	0.82	0.099
Mof_H 	H 	0.7331	0.8357	0.8348	0.062
Mof_H 	H 	0.8892	0.9756	0.674	0.068
Mof_H 	H 	0.9862	0.2046	0.534	0.103
Mof_H 	H 	0.1464	0.3396	0.3722	0.044
Mof_H 	H 	0.0234	0.3548	0.5244	0.069
Mof_H 	H 	0.7886	0.2667	0.7126	0.087
Mof_H 	H 	0.6405	0.2978	0.826	0.055
Mof_H 	H 	0.6272	0.1319	0.8632	0.078
Mof_H 	H 	0.4227	0.2672	0.6724	0.139
Mof_H 	H 	0.4636	0.1076	0.607	0.133
Mof_H 	H 	0.487	0.0831	0.8046	0.141
Mof_H 	H 	0.4253	0.1885	0.82	0.093
Mof_H 	H 	0.4321	0.3295	0.8348	0.06
Mof_H 	H 	0.4368	0.3504	0.674	0.063
Mof_H 	H 	0.4798	0.2614	0.534	0.084
Mof_H 	H 	0.4814	0.2882	0.3722	0.038
Mof_H 	H 	0.4522	0.1208	0.5244	0.061
Mof_H 	H 	0.4988	0.0207	0.7126	0.063
Mof_H 	H 	0.5335	0.8762	0.826	0.047
Mof_H 	H 	0.5096	0.0049	0.8632	0.054
Mof_H 	H 	0.7328	0.0951	0.3276	0.129
Mof_H 	H 	0.8924	0.0706	0.393	0.127
Mof_H 	H 	0.9169	0.2916	0.1954	0.126
Mof_H 	H 	0.8115	0.2453	0.18	0.067
Mof_H 	H 	0.6705	0.2669	0.1652	0.025
Mof_H 	H 	0.6496	0.1108	0.326	0.051
Mof_H 	H 	0.7386	0.0138	0.466	0.061
Mof_H 	H 	0.7118	0.8536	0.6278	0.041
Mof_H 	H 	0.8792	0.9766	0.4756	0.053
Mof_H 	H 	0.9793	0.2114	0.2874	0.097
Mof_H 	H 	0.1238	0.3595	0.174	0.034
Mof_H 	H 	0.9951	0.3728	0.1368	0.062
Mof_H 	H 	0.9396	0.5773	0.3276	0.132
Mof_H 	H 	0.7146	0.5364	0.393	0.129
Mof_H 	H 	0.8877	0.513	0.1954	0.125
Mof_H 	H 	0.0085	0.5747	0.18	0.063
Mof_H 	H 	0.1643	0.5679	0.1652	0.025
Mof_H 	H 	0.0244	0.5632	0.326	0.049
Mof_H 	H 	0.7954	0.5202	0.466	0.084
Mof_H 	H 	0.6604	0.5186	0.6278	0.047
Mof_H 	H 	0.6452	0.5478	0.4756	0.06
Mof_H 	H 	0.7333	0.5012	0.2874	0.076
Mof_H 	H 	0.7022	0.4665	0.174	0.027
Mof_H 	H 	0.8681	0.4904	0.1368	0.041
Mof_H 	H 	0.0951	0.9396	0.3276	0.131
Mof_H 	H 	0.0706	0.7146	0.393	0.126
Mof_H 	H 	0.2916	0.8877	0.1954	0.125
Mof_H 	H 	0.2453	0.0085	0.18	0.063
Mof_H 	H 	0.2669	0.1643	0.1652	0.024
Mof_H 	H 	0.1108	0.0244	0.326	0.048
Mof_H 	H 	0.0138	0.7954	0.466	0.061
Mof_H 	H 	0.8536	0.6604	0.6278	0.041
Mof_H 	H 	0.9766	0.6452	0.4756	0.052
Mof_H 	H 	0.2114	0.7333	0.2874	0.075
Mof_H 	H 	0.3595	0.7022	0.174	0.027
Mof_H 	H 	0.3728	0.8681	0.1368	0.041
Mof_H 	H 	0.5773	0.7328	0.3276	0.131
Mof_H 	H 	0.5364	0.8924	0.393	0.13
Mof_H 	H 	0.513	0.9169	0.1954	0.126
Mof_H 	H 	0.5747	0.8115	0.18	0.067
Mof_H 	H 	0.5679	0.6705	0.1652	0.026
Mof_H 	H 	0.5632	0.6496	0.326	0.053
Mof_H 	H 	0.5202	0.7386	0.466	0.083
Mof_H 	H 	0.5186	0.7118	0.6278	0.047
Mof_H 	H 	0.5478	0.8792	0.4756	0.061
Mof_H 	H 	0.5012	0.9793	0.2874	0.098
Mof_H 	H 	0.4665	0.1238	0.174	0.034
Mof_H 	H 	0.4904	0.9951	0.1368	0.063
Mof_C 	C 	0.19775	0.85404	0.69904	0.213
Mof_C 	C 	0.14833	0.89237	0.64904	0.208
Mof_C 	C 	0.11335	0.79323	0.7348	0.206
Mof_C 	C 	0.26523	0.82756	0.74076	0.121
Mof_C 	C 	0.22903	0.7699	0.8022	-0.08
Mof_C 	C 	0.25302	0.73505	0.83692	-0.053
Mof_C 	C 	0.31351	0.75704	0.81118	0.011
Mof_C 	C 	0.35024	0.81555	0.7493	-0.071
Mof_C 	C 	0.32615	0.85032	0.71482	-0.074
Mof_C 	C 	0.21531	0.67126	0.9012	0.388
Mof_C 	C 	0.41637	0.8384	0.71886	0.413
Mof_C 	C 	0.18373	0.99541	0.54076	0.151
Mof_C 	C 	0.24589	0.01249	0.5115	-0.12
Mof_C 	C 	0.28468	0.06958	0.44808	-0.055
Mof_C 	C 	0.26202	0.10867	0.41438	0.005
Mof_C 	C 	0.20076	0.09191	0.44308	-0.067
Mof_C 	C 	0.16204	0.03492	0.50582	-0.105
Mof_C 	C 	0.35224	0.08651	0.41486	0.385
Mof_C 	C 	0.17541	0.13112	0.40544	0.393
Mof_C 	C 	0.02102	0.71195	0.78694	0.077
Mof_C 	C 	0.99934	0.74732	0.74802	-0.021
Mof_C 	C 	0.94523	0.71972	0.76308	-0.092
Mof_C 	C 	0.91291	0.65821	0.81544	0.04
Mof_C 	C 	0.93665	0.6233	0.85202	-0.087
Mof_C 	C 	0.98986	0.65058	0.83794	-0.022
Mof_C 	C 	0.92172	0.7565	0.72098	0.413
Mof_C 	C 	0.90377	0.55649	0.90548	0.412
Mof_C 	C 	0.10321	0.44692	0.69904	0.211
Mof_C 	C 	0.20263	0.45859	0.64904	0.206
Mof_C 	C 	0.15185	0.47197	0.7348	0.207
Mof_C 	C 	0.99401	0.43168	0.74076	0.129
Mof_C 	C 	0.96877	0.4279	0.8022	-0.085
Mof_C 	C 	0.91006	0.42803	0.83692	-0.05
Mof_C 	C 	0.87531	0.43178	0.81118	0.009
Mof_C 	C 	0.90046	0.43515	0.7493	-0.069
Mof_C 	C 	0.95903	0.43486	0.71482	-0.078
Mof_C 	C 	0.88349	0.42754	0.9012	0.386
Mof_C 	C 	0.86477	0.44274	0.71886	0.413
Mof_C 	C 	0.27551	0.46383	0.54076	0.117
Mof_C 	C 	0.24261	0.47601	0.5115	-0.076
Mof_C 	C 	0.26724	0.48234	0.44808	-0.075
Mof_C 	C 	0.3236	0.47695	0.41438	0.023
Mof_C 	C 	0.35616	0.46501	0.44308	-0.083
Mof_C 	C 	0.33214	0.45926	0.50582	-0.076
Mof_C 	C 	0.2329	0.49863	0.41486	0.393
Mof_C 	C 	0.41915	0.46344	0.40544	0.398
Mof_C 	C 	0.19204	0.50111	0.78694	0.124
Mof_C 	C 	0.25264	0.50466	0.74802	-0.076
Mof_C 	C 	0.29169	0.5172	0.76308	-0.065
Mof_C 	C 	0.27165	0.52635	0.81544	0.013
Mof_C 	C 	0.21133	0.52468	0.85202	-0.06
Mof_C 	C 	0.1722	0.51148	0.83794	-0.079
Mof_C 	C 	0.3573	0.52252	0.72098	0.403
Mof_C 	C 	0.19075	0.53803	0.90548	0.401
Mof_C 	C 	0.85404	0.10321	0.69904	0.212
Mof_C 	C 	0.89237	0.20263	0.64904	0.208
Mof_C 	C 	0.79323	0.15185	0.7348	0.208
Mof_C 	C 	0.82756	0.99401	0.74076	0.131
Mof_C 	C 	0.7699	0.96877	0.8022	-0.085
Mof_C 	C 	0.73505	0.91006	0.83692	-0.049
Mof_C 	C 	0.75704	0.87531	0.81118	0.008
Mof_C 	C 	0.81555	0.90046	0.7493	-0.067
Mof_C 	C 	0.85032	0.95903	0.71482	-0.078
Mof_C 	C 	0.67126	0.88349	0.9012	0.386
Mof_C 	C 	0.8384	0.86477	0.71886	0.412
Mof_C 	C 	0.99541	0.27551	0.54076	0.152
Mof_C 	C 	0.01249	0.24261	0.5115	-0.12
Mof_C 	C 	0.06958	0.26724	0.44808	-0.055
Mof_C 	C 	0.10867	0.3236	0.41438	0.005
Mof_C 	C 	0.09191	0.35616	0.44308	-0.066
Mof_C 	C 	0.03492	0.33214	0.50582	-0.106
Mof_C 	C 	0.08651	0.2329	0.41486	0.385
Mof_C 	C 	0.13112	0.41915	0.40544	0.392
Mof_C 	C 	0.71195	0.19204	0.78694	0.125
Mof_C 	C 	0.74732	0.25264	0.74802	-0.076
Mof_C 	C 	0.71972	0.29169	0.76308	-0.065
Mof_C 	C 	0.65821	0.27165	0.81544	0.013
Mof_C 	C 	0.6233	0.21133	0.85202	-0.06
Mof_C 	C 	0.65058	0.1722	0.83794	-0.079
Mof_C 	C 	0.7565	0.3573	0.72098	0.403
Mof_C 	C 	0.55649	0.19075	0.90548	0.401
Mof_C 	C 	0.44692	0.19775	0.69904	0.212
Mof_C 	C 	0.45859	0.14833	0.64904	0.205
Mof_C 	C 	0.47197	0.11335	0.7348	0.206
Mof_C 	C 	0.43168	0.26523	0.74076	0.119
Mof_C 	C 	0.4279	0.22903	0.8022	-0.079
Mof_C 	C 	0.42803	0.25302	0.83692	-0.054
Mof_C 	C 	0.43178	0.31351	0.81118	0.012
Mof_C 	C 	0.43515	0.35024	0.7493	-0.072
Mof_C 	C 	0.43486	0.32615	0.71482	-0.073
Mof_C 	C 	0.42754	0.21531	0.9012	0.388
Mof_C 	C 	0.44274	0.41637	0.71886	0.414
Mof_C 	C 	0.46383	0.18373	0.54076	0.116
Mof_C 	C 	0.47601	0.24589	0.5115	-0.076
Mof_C 	C 	0.48234	0.28468	0.44808	-0.075
Mof_C 	C 	0.47695	0.26202	0.41438	0.023
Mof_C 	C 	0.46501	0.20076	0.44308	-0.083
Mof_C 	C 	0.45926	0.16204	0.50582	-0.076
Mof_C 	C 	0.49863	0.35224	0.41486	0.393
Mof_C 	C 	0.46344	0.17541	0.40544	0.399
Mof_C 	C 	0.50111	0.02102	0.78694	0.078
Mof_C 	C 	0.50466	0.99934	0.74802	-0.022
Mof_C 	C 	0.5172	0.94523	0.76308	-0.092
Mof_C 	C 	0.52635	0.91291	0.81544	0.039
Mof_C 	C 	0.52468	0.93665	0.85202	-0.087
Mof_C 	C 	0.51148	0.98986	0.83794	-0.023
Mof_C 	C 	0.52252	0.92172	0.72098	0.413
Mof_C 	C 	0.53803	0.90377	0.90548	0.412
Mof_C 	C 	0.80225	0.14596	0.30096	0.2
Mof_C 	C 	0.85167	0.10763	0.35096	0.195
Mof_C 	C 	0.88665	0.20677	0.2652	0.194
Mof_C 	C 	0.73477	0.17244	0.25924	0.09
Mof_C 	C 	0.77097	0.2301	0.1978	-0.058
Mof_C 	C 	0.74698	0.26495	0.16308	-0.105
Mof_C 	C 	0.68649	0.24296	0.18882	0.033
Mof_C 	C 	0.64976	0.18445	0.2507	-0.105
Mof_C 	C 	0.67385	0.14968	0.28518	-0.057
Mof_C 	C 	0.78469	0.32874	0.0988	0.408
Mof_C 	C 	0.58363	0.1616	0.28114	0.422
Mof_C 	C 	0.81627	0.00459	0.45924	0.076
Mof_C 	C 	0.75411	0.98751	0.4885	-0.032
Mof_C 	C 	0.71532	0.93042	0.55192	-0.093
Mof_C 	C 	0.73798	0.89133	0.58562	0.037
Mof_C 	C 	0.79924	0.90809	0.55692	-0.096
Mof_C 	C 	0.83796	0.96508	0.49418	-0.048
Mof_C 	C 	0.64776	0.91349	0.58514	0.397
Mof_C 	C 	0.82459	0.86888	0.59456	0.4
Mof_C 	C 	0.97898	0.28805	0.21306	0.132
Mof_C 	C 	0.00066	0.25268	0.25198	-0.11
Mof_C 	C 	0.05477	0.28028	0.23692	-0.073
Mof_C 	C 	0.08709	0.34179	0.18456	0.01
Mof_C 	C 	0.06335	0.3767	0.14798	-0.09
Mof_C 	C 	0.01014	0.34942	0.16206	-0.107
Mof_C 	C 	0.07828	0.2435	0.27902	0.4
Mof_C 	C 	0.09623	0.44351	0.09452	0.411
Mof_C 	C 	0.89679	0.55308	0.30096	0.202
Mof_C 	C 	0.79737	0.54141	0.35096	0.197
Mof_C 	C 	0.84815	0.52803	0.2652	0.193
Mof_C 	C 	0.00599	0.56832	0.25924	0.082
Mof_C 	C 	0.03123	0.5721	0.1978	-0.054
Mof_C 	C 	0.08994	0.57197	0.16308	-0.108
Mof_C 	C 	0.12469	0.56822	0.18882	0.036
Mof_C 	C 	0.09954	0.56485	0.2507	-0.107
Mof_C 	C 	0.04097	0.56514	0.28518	-0.053
Mof_C 	C 	0.11651	0.57246	0.0988	0.409
Mof_C 	C 	0.13523	0.55726	0.28114	0.422
Mof_C 	C 	0.72449	0.53617	0.45924	0.114
Mof_C 	C 	0.75739	0.52399	0.4885	-0.079
Mof_C 	C 	0.73276	0.51766	0.55192	-0.071
Mof_C 	C 	0.6764	0.52305	0.58562	0.018
Mof_C 	C 	0.64384	0.53499	0.55692	-0.079
Mof_C 	C 	0.66786	0.54074	0.49418	-0.079
Mof_C 	C 	0.7671	0.50137	0.58514	0.389
Mof_C 	C 	0.58085	0.53656	0.59456	0.394
Mof_C 	C 	0.80796	0.49889	0.21306	0.092
Mof_C 	C 	0.74736	0.49534	0.25198	-0.062
Mof_C 	C 	0.70831	0.4828	0.23692	-0.096
Mof_C 	C 	0.72835	0.47365	0.18456	0.033
Mof_C 	C 	0.78867	0.47532	0.14798	-0.113
Mof_C 	C 	0.8278	0.48852	0.16206	-0.058
Mof_C 	C 	0.6427	0.47748	0.27902	0.409
Mof_C 	C 	0.80925	0.46197	0.09452	0.42
Mof_C 	C 	0.14596	0.89679	0.30096	0.201
Mof_C 	C 	0.10763	0.79737	0.35096	0.195
Mof_C 	C 	0.20677	0.84815	0.2652	0.193
Mof_C 	C 	0.17244	0.00599	0.25924	0.081
Mof_C 	C 	0.2301	0.03123	0.1978	-0.054
Mof_C 	C 	0.26495	0.08994	0.16308	-0.108
Mof_C 	C 	0.24296	0.12469	0.18882	0.036
Mof_C 	C 	0.18445	0.09954	0.2507	-0.108
Mof_C 	C 	0.14968	0.04097	0.28518	-0.053
Mof_C 	C 	0.32874	0.11651	0.0988	0.409
Mof_C 	C 	0.1616	0.13523	0.28114	0.423
Mof_C 	C 	0.00459	0.72449	0.45924	0.076
Mof_C 	C 	0.98751	0.75739	0.4885	-0.032
Mof_C 	C 	0.93042	0.73276	0.55192	-0.093
Mof_C 	C 	0.89133	0.6764	0.58562	0.038
Mof_C 	C 	0.90809	0.64384	0.55692	-0.097
Mof_C 	C 	0.96508	0.66786	0.49418	-0.047
Mof_C 	C 	0.91349	0.7671	0.58514	0.397
Mof_C 	C 	0.86888	0.58085	0.59456	0.401
Mof_C 	C 	0.28805	0.80796	0.21306	0.091
Mof_C 	C 	0.25268	0.74736	0.25198	-0.062
Mof_C 	C 	0.28028	0.70831	0.23692	-0.096
Mof_C 	C 	0.34179	0.72835	0.18456	0.033
Mof_C 	C 	0.3767	0.78867	0.14798	-0.113
Mof_C 	C 	0.34942	0.8278	0.16206	-0.058
Mof_C 	C 	0.2435	0.6427	0.27902	0.409
Mof_C 	C 	0.44351	0.80925	0.09452	0.42
Mof_C 	C 	0.55308	0.80225	0.30096	0.201
Mof_C 	C 	0.54141	0.85167	0.35096	0.198
Mof_C 	C 	0.52803	0.88665	0.2652	0.195
Mof_C 	C 	0.56832	0.73477	0.25924	0.092
Mof_C 	C 	0.5721	0.77097	0.1978	-0.059
Mof_C 	C 	0.57197	0.74698	0.16308	-0.104
Mof_C 	C 	0.56822	0.68649	0.18882	0.033
Mof_C 	C 	0.56485	0.64976	0.2507	-0.103
Mof_C 	C 	0.56514	0.67385	0.28518	-0.058
Mof_C 	C 	0.57246	0.78469	0.0988	0.408
Mof_C 	C 	0.55726	0.58363	0.28114	0.421
Mof_C 	C 	0.53617	0.81627	0.45924	0.115
Mof_C 	C 	0.52399	0.75411	0.4885	-0.08
Mof_C 	C 	0.51766	0.71532	0.55192	-0.071
Mof_C 	C 	0.52305	0.73798	0.58562	0.017
Mof_C 	C 	0.53499	0.79924	0.55692	-0.078
Mof_C 	C 	0.54074	0.83796	0.49418	-0.08
Mof_C 	C 	0.50137	0.64776	0.58514	0.389
Mof_C 	C 	0.53656	0.82459	0.59456	0.394
Mof_C 	C 	0.49889	0.97898	0.21306	0.134
Mof_C 	C 	0.49534	0.00066	0.25198	-0.112
Mof_C 	C 	0.4828	0.05477	0.23692	-0.072
Mof_C 	C 	0.47365	0.08709	0.18456	0.009
Mof_C 	C 	0.47532	0.06335	0.14798	-0.089
Mof_C 	C 	0.48852	0.01014	0.16206	-0.109
Mof_C 	C 	0.47748	0.07828	0.27902	0.4
Mof_C 	C 	0.46197	0.09623	0.09452	0.411
Mof_N 	N 	0.15925	0.79886	0.74186	-0.176
Mof_N 	N 	0.19552	0.90363	0.65046	-0.177
Mof_N 	N 	0.10458	0.83806	0.69144	-0.176
Mof_N 	N 	0.24547	0.86701	0.70032	-0.236
Mof_N 	N 	0.14231	0.93759	0.60026	-0.241
Mof_N 	N 	0.07412	0.73514	0.77832	-0.226
Mof_N 	N 	0.09889	0.45928	0.74186	-0.178
Mof_N 	N 	0.15402	0.44591	0.65046	-0.177
Mof_N 	N 	0.20398	0.4705	0.69144	-0.177
Mof_N 	N 	0.05421	0.43267	0.70032	-0.241
Mof_N 	N 	0.25743	0.46215	0.60026	-0.234
Mof_N 	N 	0.14756	0.48654	0.77832	-0.234
Mof_N 	N 	0.79886	0.09889	0.74186	-0.178
Mof_N 	N 	0.90363	0.15402	0.65046	-0.177
Mof_N 	N 	0.83806	0.20398	0.69144	-0.177
Mof_N 	N 	0.86701	0.05421	0.70032	-0.241
Mof_N 	N 	0.93759	0.25743	0.60026	-0.241
Mof_N 	N 	0.73514	0.14756	0.77832	-0.234
Mof_N 	N 	0.45928	0.15925	0.74186	-0.176
Mof_N 	N 	0.44591	0.19552	0.65046	-0.176
Mof_N 	N 	0.4705	0.10458	0.69144	-0.176
Mof_N 	N 	0.43267	0.24547	0.70032	-0.236
Mof_N 	N 	0.46215	0.14231	0.60026	-0.234
Mof_N 	N 	0.48654	0.07412	0.77832	-0.226
Mof_N 	N 	0.84075	0.20114	0.25814	-0.181
Mof_N 	N 	0.80448	0.09637	0.34954	-0.179
Mof_N 	N 	0.89542	0.16194	0.30856	-0.179
Mof_N 	N 	0.75453	0.13299	0.29968	-0.233
Mof_N 	N 	0.85769	0.06241	0.39974	-0.228
Mof_N 	N 	0.92588	0.26486	0.22168	-0.237
Mof_N 	N 	0.90111	0.54072	0.25814	-0.179
Mof_N 	N 	0.84598	0.55409	0.34954	-0.179
Mof_N 	N 	0.79602	0.5295	0.30856	-0.179
Mof_N 	N 	0.94579	0.56733	0.29968	-0.229
Mof_N 	N 	0.74257	0.53785	0.39974	-0.234
Mof_N 	N 	0.85244	0.51346	0.22168	-0.23
Mof_N 	N 	0.20114	0.90111	0.25814	-0.179
Mof_N 	N 	0.09637	0.84598	0.34954	-0.178
Mof_N 	N 	0.16194	0.79602	0.30856	-0.179
Mof_N 	N 	0.13299	0.94579	0.29968	-0.229
Mof_N 	N 	0.06241	0.74257	0.39974	-0.227
Mof_N 	N 	0.26486	0.85244	0.22168	-0.23
Mof_N 	N 	0.54072	0.84075	0.25814	-0.181
Mof_N 	N 	0.55409	0.80448	0.34954	-0.179
Mof_N 	N 	0.5295	0.89542	0.30856	-0.179
Mof_N 	N 	0.56733	0.75453	0.29968	-0.233
Mof_N 	N 	0.53785	0.85769	0.39974	-0.235
Mof_N 	N 	0.51346	0.92588	0.22168	-0.238
Mof_O 	O 	0.16066	0.6532	0.9245	-0.419
Mof_O 	O 	0.24171	0.63961	0.92568	-0.424
Mof_O 	O 	0.43648	0.80394	0.74996	-0.477
Mof_O 	O 	0.44614	0.89099	0.66434	-0.489
Mof_O 	O 	0.37245	0.04671	0.44184	-0.469
Mof_O 	O 	0.38378	0.13978	0.36092	-0.488
Mof_O 	O 	0.21238	0.18084	0.34742	-0.48
Mof_O 	O 	0.11955	0.11222	0.43318	-0.493
Mof_O 	O 	0.95728	0.80783	0.6654	-0.472
Mof_O 	O 	0.86883	0.73232	0.74398	-0.483
Mof_O 	O 	0.85123	0.53654	0.92564	-0.433
Mof_O 	O 	0.93223	0.52483	0.92596	-0.422
Mof_O 	O 	0.91484	0.4223	0.9245	-0.417
Mof_O 	O 	0.83261	0.43471	0.92568	-0.423
Mof_O 	O 	0.81356	0.4461	0.74996	-0.477
Mof_O 	O 	0.88952	0.44467	0.66434	-0.489
Mof_O 	O 	0.18571	0.51145	0.44184	-0.469
Mof_O 	O 	0.2553	0.4993	0.36092	-0.49
Mof_O 	O 	0.4402	0.47174	0.34742	-0.481
Mof_O 	O 	0.44727	0.4546	0.43318	-0.492
Mof_O 	O 	0.37732	0.52677	0.6654	-0.472
Mof_O 	O 	0.38719	0.5237	0.74398	-0.481
Mof_O 	O 	0.22313	0.53782	0.92564	-0.431
Mof_O 	O 	0.14181	0.54921	0.92596	-0.423
Mof_O 	O 	0.6532	0.91484	0.9245	-0.417
Mof_O 	O 	0.63961	0.83261	0.92568	-0.423
Mof_O 	O 	0.80394	0.81356	0.74996	-0.476
Mof_O 	O 	0.89099	0.88952	0.66434	-0.488
Mof_O 	O 	0.04671	0.18571	0.44184	-0.469
Mof_O 	O 	0.13978	0.2553	0.36092	-0.488
Mof_O 	O 	0.18084	0.4402	0.34742	-0.48
Mof_O 	O 	0.11222	0.44727	0.43318	-0.491
Mof_O 	O 	0.80783	0.37732	0.6654	-0.472
Mof_O 	O 	0.73232	0.38719	0.74398	-0.481
Mof_O 	O 	0.53654	0.22313	0.92564	-0.431
Mof_O 	O 	0.52483	0.14181	0.92596	-0.423
Mof_O 	O 	0.4223	0.16066	0.9245	-0.42
Mof_O 	O 	0.43471	0.24171	0.92568	-0.424
Mof_O 	O 	0.4461	0.43648	0.74996	-0.477
Mof_O 	O 	0.44467	0.44614	0.66434	-0.491
Mof_O 	O 	0.51145	0.37245	0.44184	-0.468
Mof_O 	O 	0.4993	0.38378	0.36092	-0.49
Mof_O 	O 	0.47174	0.21238	0.34742	-0.482
Mof_O 	O 	0.4546	0.11955	0.43318	-0.493
Mof_O 	O 	0.52677	0.95728	0.6654	-0.472
Mof_O 	O 	0.5237	0.86883	0.74398	-0.483
Mof_O 	O 	0.53782	0.85123	0.92564	-0.433
Mof_O 	O 	0.54921	0.93223	0.92596	-0.422
Mof_O 	O 	0.83934	0.3468	0.0755	-0.519
Mof_O 	O 	0.75829	0.36039	0.07432	-0.528
Mof_O 	O 	0.56352	0.19606	0.25004	-0.503
Mof_O 	O 	0.55386	0.10901	0.33566	-0.499
Mof_O 	O 	0.62755	0.95329	0.55816	-0.468
Mof_O 	O 	0.61622	0.86022	0.63908	-0.483
Mof_O 	O 	0.78762	0.81916	0.65258	-0.471
Mof_O 	O 	0.88045	0.88778	0.56682	-0.492
Mof_O 	O 	0.04272	0.19217	0.3346	-0.479
Mof_O 	O 	0.13117	0.26768	0.25602	-0.501
Mof_O 	O 	0.14877	0.46346	0.07436	-0.531
Mof_O 	O 	0.06777	0.47517	0.07404	-0.519
Mof_O 	O 	0.08516	0.5777	0.0755	-0.521
Mof_O 	O 	0.16739	0.56529	0.07432	-0.528
Mof_O 	O 	0.18644	0.5539	0.25004	-0.503
Mof_O 	O 	0.11048	0.55533	0.33566	-0.499
Mof_O 	O 	0.81429	0.48855	0.55816	-0.467
Mof_O 	O 	0.7447	0.5007	0.63908	-0.481
Mof_O 	O 	0.5598	0.52826	0.65258	-0.47
Mof_O 	O 	0.55273	0.5454	0.56682	-0.492
Mof_O 	O 	0.62268	0.47323	0.3346	-0.478
Mof_O 	O 	0.61281	0.4763	0.25602	-0.503
Mof_O 	O 	0.77687	0.46218	0.07436	-0.533
Mof_O 	O 	0.85819	0.45079	0.07404	-0.519
Mof_O 	O 	0.3468	0.08516	0.0755	-0.521
Mof_O 	O 	0.36039	0.16739	0.07432	-0.529
Mof_O 	O 	0.19606	0.18644	0.25004	-0.503
Mof_O 	O 	0.10901	0.11048	0.33566	-0.501
Mof_O 	O 	0.95329	0.81429	0.55816	-0.467
Mof_O 	O 	0.86022	0.7447	0.63908	-0.483
Mof_O 	O 	0.81916	0.5598	0.65258	-0.472
Mof_O 	O 	0.88778	0.55273	0.56682	-0.493
Mof_O 	O 	0.19217	0.62268	0.3346	-0.479
Mof_O 	O 	0.26768	0.61281	0.25602	-0.503
Mof_O 	O 	0.46346	0.77687	0.07436	-0.533
Mof_O 	O 	0.47517	0.85819	0.07404	-0.519
Mof_O 	O 	0.5777	0.83934	0.0755	-0.519
Mof_O 	O 	0.56529	0.75829	0.07432	-0.528
Mof_O 	O 	0.5539	0.56352	0.25004	-0.502
Mof_O 	O 	0.55533	0.55386	0.33566	-0.498
Mof_O 	O 	0.48855	0.62755	0.55816	-0.468
Mof_O 	O 	0.5007	0.61622	0.63908	-0.481
Mof_O 	O 	0.52826	0.78762	0.65258	-0.47
Mof_O 	O 	0.5454	0.88045	0.56682	-0.491
Mof_O 	O 	0.47323	0.04272	0.3346	-0.478
Mof_O 	O 	0.4763	0.13117	0.25602	-0.501
Mof_O 	O 	0.46218	0.14877	0.07436	-0.531
Mof_O 	O 	0.45079	0.06777	0.07404	-0.519
_end
