data_functionalizedCrystal
_audit_creation_method	'EQeq! by Chris Wilmer'
_symmetry_space_group_name_H-M	'P1'
_symmetry_Int_Tables_number	1
_symmetry_cell_setting	triclinic
loop_
_symmetry_equiv_pos_as_xyz
  x,y,z
_cell_length_a	10.267
_cell_length_b	10.267
_cell_length_c	14.462
_cell_angle_alpha	90
_cell_angle_beta	90
_cell_angle_gamma	90
loop_
_atom_site_label
_atom_site_type_symbol
_atom_site_fract_x
_atom_site_fract_y
_atom_site_fract_z
_atom_site_charge
Mof_Er	Er	0.85258	0.85258	0.875	2.167
Mof_Er	Er	0.14741	0.14741	0.375	2.041
Mof_Er	Er	0.14741	0.85258	0.125	2.08
Mof_Er	Er	0.85258	0.14741	0.625	2.097
Mof_H 	H 	0.9254	0.4418	0.8714	-0.048
Mof_H 	H 	0.0746	0.5582	0.3714	-0.036
Mof_H 	H 	0.5582	0.9254	0.1214	-0.043
Mof_H 	H 	0.4418	0.0746	0.6214	-0.041
Mof_H 	H 	0.0746	0.4418	0.1286	-0.041
Mof_H 	H 	0.9254	0.5582	0.6286	-0.039
Mof_H 	H 	0.4418	0.9254	0.8786	-0.042
Mof_H 	H 	0.5582	0.0746	0.3786	-0.036
Mof_H 	H 	-1.03494e-33	0.1025	-0	-0.075
Mof_H 	H 	-5.63883e-33	0.8975	0.5	-0.047
Mof_H 	H 	0.8975	0	0.25	-0.047
Mof_H 	H 	0.1025	-8.27952e-33	0.75	-0.073
Mof_C 	C 	0.9556	0.3967	0.9229	0.273
Mof_C 	C 	0.9562	0.2608	0.9227	-0.277
Mof_C 	C 	0.9132	0.184	0.8395	0.579
Mof_C 	C 	0.0444	0.6033	0.4229	0.216
Mof_C 	C 	0.0438	0.7392	0.4227	-0.292
Mof_C 	C 	0.0868	0.816	0.3395	0.564
Mof_C 	C 	0.6033	0.9556	0.1729	0.252
Mof_C 	C 	0.7392	0.9562	0.1727	-0.265
Mof_C 	C 	0.816	0.9132	0.0895	0.571
Mof_C 	C 	0.3967	0.0444	0.6729	0.227
Mof_C 	C 	0.2608	0.0438	0.6727	-0.312
Mof_C 	C 	0.184	0.0868	0.5895	0.574
Mof_C 	C 	0.0444	0.3967	0.0771	0.227
Mof_C 	C 	0.0438	0.2608	0.0773	-0.312
Mof_C 	C 	0.0868	0.184	0.1605	0.572
Mof_C 	C 	0.9556	0.6033	0.5771	0.248
Mof_C 	C 	0.9562	0.7392	0.5773	-0.267
Mof_C 	C 	0.9132	0.816	0.6605	0.571
Mof_C 	C 	0.3967	0.9556	0.8271	0.262
Mof_C 	C 	0.2608	0.9562	0.8273	-0.281
Mof_C 	C 	0.184	0.9132	0.9105	0.579
Mof_C 	C 	0.6033	0.0444	0.3271	0.216
Mof_C 	C 	0.7392	0.0438	0.3273	-0.292
Mof_C 	C 	0.816	0.0868	0.4105	0.565
Mof_C 	C 	-8.27952e-33	0.4651	-0	-0.351
Mof_C 	C 	-0	0.6106	-0	0.537
Mof_C 	C 	-2.06988e-33	0.193	-0	0.185
Mof_C 	C 	2.64068e-33	0.5349	0.5	-0.324
Mof_C 	C 	2.64068e-33	0.3894	0.5	0.545
Mof_C 	C 	-1.39183e-32	0.807	0.5	0.192
Mof_C 	C 	0.5349	0	0.25	-0.328
Mof_C 	C 	0.3894	0	0.25	0.541
Mof_C 	C 	0.807	0	0.25	0.187
Mof_C 	C 	0.4651	-8.27952e-33	0.75	-0.338
Mof_C 	C 	0.6106	-8.27952e-33	0.75	0.55
Mof_C 	C 	0.193	-8.27952e-33	0.75	0.2
Mof_O 	O 	0.9057	0.2414	0.76286	-0.563
Mof_O 	O 	0.9281	0.6653	0.94175	-0.54
Mof_O 	O 	0.8884	0.068	0.8496	-0.603
Mof_O 	O 	0.0943	0.7586	0.26286	-0.564
Mof_O 	O 	0.0719	0.3347	0.44175	-0.565
Mof_O 	O 	0.1116	0.932	0.3496	-0.564
Mof_O 	O 	0.7586	0.9057	0.01286	-0.567
Mof_O 	O 	0.3347	0.9281	0.19175	-0.539
Mof_O 	O 	0.932	0.8884	0.0996	-0.555
Mof_O 	O 	0.2414	0.0943	0.51286	-0.568
Mof_O 	O 	0.6653	0.0719	0.69175	-0.574
Mof_O 	O 	0.068	0.1116	0.5996	-0.61
Mof_O 	O 	0.0943	0.2414	0.23714	-0.568
Mof_O 	O 	0.0719	0.6653	0.05825	-0.573
Mof_O 	O 	0.1116	0.068	0.1504	-0.612
Mof_O 	O 	0.9057	0.7586	0.73714	-0.562
Mof_O 	O 	0.9281	0.3347	0.55825	-0.541
Mof_O 	O 	0.8884	0.932	0.6504	-0.557
Mof_O 	O 	0.2414	0.9057	0.98714	-0.549
Mof_O 	O 	0.6653	0.9281	0.80825	-0.547
Mof_O 	O 	0.068	0.8884	0.9004	-0.594
Mof_O 	O 	0.7586	0.0943	0.48714	-0.566
Mof_O 	O 	0.3347	0.0719	0.30825	-0.564
Mof_O 	O 	0.932	0.1116	0.4004	-0.566
_end
