data_functionalizedCrystal
_audit_creation_method	'EQeq! by Chris Wilmer'
_symmetry_space_group_name_H-M	'P1'
_symmetry_Int_Tables_number	1
_symmetry_cell_setting	triclinic
loop_
_symmetry_equiv_pos_as_xyz
  x,y,z
_cell_length_a	11.252
_cell_length_b	20.078
_cell_length_c	20.078
_cell_angle_alpha	90
_cell_angle_beta	90
_cell_angle_gamma	90
loop_
_atom_site_label
_atom_site_type_symbol
_atom_site_fract_x
_atom_site_fract_y
_atom_site_fract_z
_atom_site_charge
Mof_Co	Co	0.53643	0.25536	0.75536	1.186
Mof_Co	Co	0.41989	0.37226	0.87226	1.105
Mof_Co	Co	0.53643	0.74464	0.24464	1.186
Mof_Co	Co	0.41989	0.62774	0.12774	1.105
Mof_Co	Co	0.46357	0.75536	0.74464	1.186
Mof_Co	Co	0.58011	0.87226	0.62774	1.104
Mof_Co	Co	0.46357	0.24464	0.25536	1.185
Mof_Co	Co	0.58011	0.12774	0.37226	1.104
Mof_H 	H 	0.3448	0.3193	0.7709	0.395
Mof_H 	H 	0.7479	0.163	0.9004	0.08
Mof_H 	H 	0.789	0.1224	0.095	0.09
Mof_H 	H 	0.5574	0.264	0.0366	0.04
Mof_H 	H 	0.9701	0.0872	0.0547	0.041
Mof_H 	H 	0.8636	0.0344	0.062	0.043
Mof_H 	H 	0.3448	0.6807	0.2291	0.395
Mof_H 	H 	0.7479	0.837	0.0996	0.08
Mof_H 	H 	0.789	0.8776	0.905	0.09
Mof_H 	H 	0.5574	0.736	0.9634	0.04
Mof_H 	H 	0.9701	0.9128	0.9453	0.04
Mof_H 	H 	0.8636	0.9656	0.938	0.043
Mof_H 	H 	0.6552	0.7709	0.6807	0.395
Mof_H 	H 	0.2521	0.9004	0.837	0.08
Mof_H 	H 	0.211	0.095	0.8776	0.09
Mof_H 	H 	0.4426	0.0366	0.736	0.04
Mof_H 	H 	0.0299	0.0547	0.9128	0.04
Mof_H 	H 	0.1364	0.062	0.9656	0.043
Mof_H 	H 	0.6552	0.2291	0.3193	0.395
Mof_H 	H 	0.2521	0.0996	0.163	0.08
Mof_H 	H 	0.211	0.905	0.1224	0.09
Mof_H 	H 	0.4426	0.9634	0.264	0.04
Mof_H 	H 	0.0299	0.9453	0.0872	0.04
Mof_H 	H 	0.1364	0.938	0.0344	0.043
Mof_H 	H 	0.6552	0.1807	0.2709	0.395
Mof_H 	H 	0.2521	0.337	0.4004	0.08
Mof_H 	H 	0.211	0.3776	0.595	0.09
Mof_H 	H 	0.4426	0.236	0.5366	0.04
Mof_H 	H 	0.0299	0.4128	0.5547	0.04
Mof_H 	H 	0.1364	0.4656	0.562	0.043
Mof_H 	H 	0.6552	0.8193	0.7291	0.395
Mof_H 	H 	0.2521	0.663	0.5996	0.08
Mof_H 	H 	0.211	0.6224	0.405	0.09
Mof_H 	H 	0.4426	0.764	0.4634	0.04
Mof_H 	H 	0.0299	0.5872	0.4453	0.04
Mof_H 	H 	0.1364	0.5344	0.438	0.043
Mof_H 	H 	0.3448	0.7291	0.1807	0.395
Mof_H 	H 	0.7479	0.5996	0.337	0.08
Mof_H 	H 	0.789	0.405	0.3776	0.09
Mof_H 	H 	0.5574	0.4634	0.236	0.04
Mof_H 	H 	0.9701	0.4453	0.4128	0.041
Mof_H 	H 	0.8636	0.438	0.4656	0.043
Mof_H 	H 	0.3448	0.2709	0.8193	0.395
Mof_H 	H 	0.7479	0.4004	0.663	0.08
Mof_H 	H 	0.789	0.595	0.6224	0.09
Mof_H 	H 	0.5574	0.5366	0.764	0.04
Mof_H 	H 	0.9701	0.5547	0.5872	0.041
Mof_H 	H 	0.8636	0.562	0.5344	0.043
Mof_C 	C 	0.5942	0.2592	0.9037	0.391
Mof_C 	C 	0.6469	0.2199	0.9595	-0.069
Mof_C 	C 	0.7275	0.1714	0.9456	-0.094
Mof_C 	C 	0.783	0.1324	0.9974	0.182
Mof_C 	C 	0.7508	0.1454	0.0597	-0.136
Mof_C 	C 	0.6623	0.192	0.0748	-0.033
Mof_C 	C 	0.6136	0.2304	0.0258	-0.008
Mof_C 	C 	0.6278	0.2011	0.1482	0.333
Mof_C 	C 	0.9209	0.0544	0.0304	0.018
Mof_C 	C 	0.5942	0.7408	0.0963	0.391
Mof_C 	C 	0.6469	0.7801	0.0405	-0.07
Mof_C 	C 	0.7275	0.8286	0.0544	-0.094
Mof_C 	C 	0.783	0.8676	0.0026	0.181
Mof_C 	C 	0.7508	0.8546	0.9403	-0.135
Mof_C 	C 	0.6623	0.808	0.9252	-0.033
Mof_C 	C 	0.6136	0.7696	0.9742	-0.007
Mof_C 	C 	0.6278	0.7989	0.8518	0.334
Mof_C 	C 	0.9209	0.9456	0.9696	0.018
Mof_C 	C 	0.4058	0.9037	0.7408	0.391
Mof_C 	C 	0.3531	0.9595	0.7801	-0.069
Mof_C 	C 	0.2725	0.9456	0.8286	-0.094
Mof_C 	C 	0.217	0.9974	0.8676	0.181
Mof_C 	C 	0.2492	0.0597	0.8546	-0.136
Mof_C 	C 	0.3377	0.0748	0.808	-0.033
Mof_C 	C 	0.3864	0.0258	0.7696	-0.008
Mof_C 	C 	0.3722	0.1482	0.7989	0.333
Mof_C 	C 	0.0791	0.0304	0.9456	0.018
Mof_C 	C 	0.4058	0.0963	0.2592	0.391
Mof_C 	C 	0.3531	0.0405	0.2199	-0.07
Mof_C 	C 	0.2725	0.0544	0.1714	-0.094
Mof_C 	C 	0.217	0.0026	0.1324	0.181
Mof_C 	C 	0.2492	0.9403	0.1454	-0.135
Mof_C 	C 	0.3377	0.9252	0.192	-0.033
Mof_C 	C 	0.3864	0.9742	0.2304	-0.007
Mof_C 	C 	0.3722	0.8518	0.2011	0.334
Mof_C 	C 	0.0791	0.9696	0.0544	0.018
Mof_C 	C 	0.4058	0.2408	0.4037	0.391
Mof_C 	C 	0.3531	0.2801	0.4595	-0.07
Mof_C 	C 	0.2725	0.3286	0.4456	-0.094
Mof_C 	C 	0.217	0.3676	0.4974	0.181
Mof_C 	C 	0.2492	0.3546	0.5597	-0.135
Mof_C 	C 	0.3377	0.308	0.5748	-0.033
Mof_C 	C 	0.3864	0.2696	0.5258	-0.008
Mof_C 	C 	0.3722	0.2989	0.6482	0.333
Mof_C 	C 	0.0791	0.4456	0.5304	0.018
Mof_C 	C 	0.4058	0.7592	0.5963	0.391
Mof_C 	C 	0.3531	0.7199	0.5405	-0.07
Mof_C 	C 	0.2725	0.6714	0.5544	-0.094
Mof_C 	C 	0.217	0.6324	0.5026	0.181
Mof_C 	C 	0.2492	0.6454	0.4403	-0.135
Mof_C 	C 	0.3377	0.692	0.4252	-0.033
Mof_C 	C 	0.3864	0.7304	0.4742	-0.008
Mof_C 	C 	0.3722	0.7011	0.3518	0.333
Mof_C 	C 	0.0791	0.5544	0.4696	0.018
Mof_C 	C 	0.5942	0.5963	0.2408	0.391
Mof_C 	C 	0.6469	0.5405	0.2801	-0.07
Mof_C 	C 	0.7275	0.5544	0.3286	-0.094
Mof_C 	C 	0.783	0.5026	0.3676	0.181
Mof_C 	C 	0.7508	0.4403	0.3546	-0.135
Mof_C 	C 	0.6623	0.4252	0.308	-0.033
Mof_C 	C 	0.6136	0.4742	0.2696	-0.008
Mof_C 	C 	0.6278	0.3518	0.2989	0.333
Mof_C 	C 	0.9209	0.4696	0.4456	0.018
Mof_C 	C 	0.5942	0.4037	0.7592	0.391
Mof_C 	C 	0.6469	0.4595	0.7199	-0.069
Mof_C 	C 	0.7275	0.4456	0.6714	-0.094
Mof_C 	C 	0.783	0.4974	0.6324	0.181
Mof_C 	C 	0.7508	0.5597	0.6454	-0.135
Mof_C 	C 	0.6623	0.5748	0.692	-0.033
Mof_C 	C 	0.6136	0.5258	0.7304	-0.008
Mof_C 	C 	0.6278	0.6482	0.7011	0.333
Mof_C 	C 	0.9209	0.5304	0.5544	0.018
Mof_C 	C 	-0	0	-0	0.007
Mof_C 	C 	3.3452e-33	0.5	0.5	0.007
Mof_O 	O 	0.6148	0.24011	0.8464	-0.446
Mof_O 	O 	0.5304	0.3086	0.92054	-0.475
Mof_O 	O 	0.5401	0.23668	0.16167	-0.414
Mof_O 	O 	0.6907	0.1702	0.1899	-0.341
Mof_O 	O 	0.8601	0.0857	0.97798	-0.232
Mof_O 	O 	0.6148	0.75989	0.1536	-0.446
Mof_O 	O 	0.5304	0.6914	0.07946	-0.475
Mof_O 	O 	0.5401	0.76332	0.83833	-0.414
Mof_O 	O 	0.6907	0.8298	0.8101	-0.341
Mof_O 	O 	0.8601	0.9143	0.02202	-0.232
Mof_O 	O 	0.3852	0.8464	0.75989	-0.446
Mof_O 	O 	0.4696	0.92054	0.6914	-0.475
Mof_O 	O 	0.4599	0.16167	0.76332	-0.414
Mof_O 	O 	0.3093	0.1899	0.8298	-0.341
Mof_O 	O 	0.1399	0.97798	0.9143	-0.233
Mof_O 	O 	0.3852	0.1536	0.24011	-0.446
Mof_O 	O 	0.4696	0.07946	0.3086	-0.475
Mof_O 	O 	0.4599	0.83833	0.23668	-0.414
Mof_O 	O 	0.3093	0.8101	0.1702	-0.341
Mof_O 	O 	0.1399	0.02202	0.0857	-0.233
Mof_O 	O 	0.3852	0.25989	0.3464	-0.446
Mof_O 	O 	0.4696	0.1914	0.42054	-0.475
Mof_O 	O 	0.4599	0.26332	0.66167	-0.414
Mof_O 	O 	0.3093	0.3298	0.6899	-0.341
Mof_O 	O 	0.1399	0.4143	0.47798	-0.233
Mof_O 	O 	0.3852	0.74011	0.6536	-0.446
Mof_O 	O 	0.4696	0.8086	0.57946	-0.475
Mof_O 	O 	0.4599	0.73668	0.33833	-0.414
Mof_O 	O 	0.3093	0.6702	0.3101	-0.341
Mof_O 	O 	0.1399	0.5857	0.52202	-0.233
Mof_O 	O 	0.6148	0.6536	0.25989	-0.446
Mof_O 	O 	0.5304	0.57946	0.1914	-0.475
Mof_O 	O 	0.5401	0.33833	0.26332	-0.414
Mof_O 	O 	0.6907	0.3101	0.3298	-0.341
Mof_O 	O 	0.8601	0.52202	0.4143	-0.232
Mof_O 	O 	0.6148	0.3464	0.74011	-0.446
Mof_O 	O 	0.5304	0.42054	0.8086	-0.475
Mof_O 	O 	0.5401	0.66167	0.73668	-0.414
Mof_O 	O 	0.6907	0.6899	0.6702	-0.341
Mof_O 	O 	0.8601	0.47798	0.5857	-0.232
Mof_O 	O 	0.3848	0.30289	0.80289	-1.021
Mof_O 	O 	0.3848	0.69711	0.19711	-1.021
Mof_O 	O 	0.6152	0.80289	0.69711	-1.021
Mof_O 	O 	0.6152	0.19711	0.30289	-1.021
_end
