data_functionalizedCrystal
_audit_creation_method	'EQeq! by Chris Wilmer'
_symmetry_space_group_name_H-M	'P1'
_symmetry_Int_Tables_number	1
_symmetry_cell_setting	triclinic
loop_
_symmetry_equiv_pos_as_xyz
  x,y,z
_cell_length_a	7.4959
_cell_length_b	10.6092
_cell_length_c	10.8657
_cell_angle_alpha	119.222
_cell_angle_beta	110.178
_cell_angle_gamma	90
loop_
_atom_site_label
_atom_site_type_symbol
_atom_site_fract_x
_atom_site_fract_y
_atom_site_fract_z
_atom_site_charge
Mof_Ba	Ba	0.33312	0.61751	0.5	1.72
Mof_Ba	Ba	0.83312	0.38249	0.5	1.648
Mof_H 	H 	0.3891	0.184	0.072	-0.01
Mof_H 	H 	0.1469	0.0242	0.8328	0.123
Mof_H 	H 	0.9565	0.1152	0.6918	-0.071
Mof_H 	H 	0.3171	0.816	0.928	0.005
Mof_H 	H 	0.3141	0.9758	0.1672	0.097
Mof_H 	H 	0.2647	0.8848	0.3082	-0.011
Mof_H 	H 	0.8891	0.388	0.072	-0.018
Mof_H 	H 	0.6469	0.3086	0.8328	0.098
Mof_H 	H 	0.4565	0.0766	0.6918	-0.016
Mof_H 	H 	0.8171	0.612	0.928	-0
Mof_H 	H 	0.8141	0.6914	0.1672	0.088
Mof_H 	H 	0.7647	0.9234	0.3082	-0.015
Mof_C 	C 	0.23477	0.42007	0.97634	0.11
Mof_C 	C 	0.35211	0.36781	0.06422	-0.177
Mof_C 	C 	0.31561	0.22001	0.01242	0.128
Mof_C 	C 	0.16849	0.12519	0.87098	-0.205
Mof_C 	C 	0.05485	0.17955	0.7871	0.172
Mof_C 	C 	0.51538	0.47318	0.21796	0.386
Mof_C 	C 	0.25843	0.57993	0.02366	0.096
Mof_C 	C 	0.28789	0.63219	0.93578	-0.151
Mof_C 	C 	0.30319	0.77999	0.98758	0.096
Mof_C 	C 	0.29751	0.87481	0.12902	-0.147
Mof_C 	C 	0.26775	0.82045	0.2129	0.08
Mof_C 	C 	0.29742	0.52682	0.78204	0.382
Mof_C 	C 	0.73477	0.05627	0.97634	0.107
Mof_C 	C 	0.85211	0.19641	0.06422	-0.207
Mof_C 	C 	0.81561	0.29241	0.01242	0.113
Mof_C 	C 	0.66849	0.24579	0.87098	-0.166
Mof_C 	C 	0.55485	0.10755	0.7871	0.082
Mof_C 	C 	0.01538	0.24478	0.21796	0.423
Mof_C 	C 	0.75843	0.94373	0.02366	0.082
Mof_C 	C 	0.78789	0.80359	0.93578	-0.157
Mof_C 	C 	0.80319	0.70759	0.98758	0.086
Mof_C 	C 	0.79751	0.75421	0.12902	-0.152
Mof_C 	C 	0.76775	0.89245	0.2129	0.068
Mof_C 	C 	0.79742	0.75522	0.78204	0.377
Mof_N 	N 	0.08403	0.32613	0.84146	-0.08
Mof_N 	N 	0.24257	0.67387	0.15854	-0.077
Mof_N 	N 	0.58403	0.01533	0.84146	-0.085
Mof_N 	N 	0.74257	0.98467	0.15854	-0.078
Mof_O 	O 	0.61558	0.57619	0.23216	-0.339
Mof_O 	O 	0.53595	0.44461	0.3215	-0.554
Mof_O 	O 	0.96191	0.37741	0.76382	-0.32
Mof_O 	O 	0.38342	0.42381	0.76784	-0.33
Mof_O 	O 	0.21445	0.55539	0.6785	-0.54
Mof_O 	O 	0.19809	0.62259	0.23618	-0.29
Mof_O 	O 	0.11558	0.15597	0.23216	-0.331
Mof_O 	O 	0.03595	0.37689	0.3215	-0.544
Mof_O 	O 	0.46191	0.88641	0.76382	-0.295
Mof_O 	O 	0.88342	0.84403	0.76784	-0.345
Mof_O 	O 	0.71445	0.62311	0.6785	-0.553
Mof_O 	O 	0.69809	0.11359	0.23618	-0.303
_end
