data_functionalizedCrystal
_audit_creation_method	'EQeq! by Chris Wilmer'
_symmetry_space_group_name_H-M	'P1'
_symmetry_Int_Tables_number	1
_symmetry_cell_setting	triclinic
loop_
_symmetry_equiv_pos_as_xyz
  x,y,z
_cell_length_a	14.8903
_cell_length_b	13.1678
_cell_length_c	12.9852
_cell_angle_alpha	90
_cell_angle_beta	105.664
_cell_angle_gamma	90
loop_
_atom_site_label
_atom_site_type_symbol
_atom_site_fract_x
_atom_site_fract_y
_atom_site_fract_z
_atom_site_charge
Mof_Y 	Y 	0.271	0.43509	0.19229	1.622
Mof_Y 	Y 	0.72899	0.56492	0.80771	1.621
Mof_Y 	Y 	0.7416	0.43142	0.31202	1.645
Mof_Y 	Y 	0.2584	0.56858	0.68799	1.645
Mof_Y 	Y 	0.7584	0.93143	0.18799	1.631
Mof_Y 	Y 	0.2416	0.06858	0.81202	1.632
Mof_Y 	Y 	0.229	0.93509	0.30771	1.617
Mof_Y 	Y 	0.771	0.06492	0.69229	1.617
Mof_O 	O 	0.12099	0.46055	0.23428	-0.326
Mof_O 	O 	0.87901	0.53946	0.76573	-0.326
Mof_O 	O 	0.88877	0.44224	0.26836	-0.333
Mof_O 	O 	0.11123	0.55776	0.73164	-0.333
Mof_O 	O 	0.61122	0.94224	0.23164	-0.329
Mof_O 	O 	0.38878	0.05776	0.76837	-0.329
Mof_O 	O 	0.37901	0.96055	0.26573	-0.329
Mof_O 	O 	0.62099	0.03945	0.73428	-0.329
Mof_O 	O 	0.12023	0.44705	0.06262	-0.349
Mof_O 	O 	0.87977	0.55295	0.93738	-0.349
Mof_O 	O 	0.88639	0.50344	0.42781	-0.325
Mof_O 	O 	0.11361	0.49656	0.57219	-0.325
Mof_O 	O 	0.61361	0.00344	0.07219	-0.312
Mof_O 	O 	0.38639	0.99656	0.92781	-0.313
Mof_O 	O 	0.37977	0.94706	0.43738	-0.348
Mof_O 	O 	0.62023	0.05294	0.56263	-0.348
Mof_O 	O 	0.29456	0.30958	0.07329	-0.404
Mof_O 	O 	0.70544	0.69042	0.92672	-0.404
Mof_O 	O 	0.20544	0.80958	0.42672	-0.408
Mof_O 	O 	0.79456	0.19042	0.57329	-0.408
Mof_O 	O 	0.2796	0.18028	0.95728	-0.412
Mof_O 	O 	0.7204	0.81972	0.04272	-0.412
Mof_O 	O 	0.2204	0.68028	0.54273	-0.411
Mof_O 	O 	0.7796	0.31972	0.45728	-0.411
Mof_O 	O 	0.31694	0.44956	0.38273	-0.359
Mof_O 	O 	0.68306	0.55044	0.61727	-0.359
Mof_O 	O 	0.68445	0.443	0.12062	-0.354
Mof_O 	O 	0.31555	0.557	0.87938	-0.354
Mof_O 	O 	0.81555	0.943	0.37938	-0.353
Mof_O 	O 	0.18445	0.057	0.62062	-0.353
Mof_O 	O 	0.18306	0.94956	0.11727	-0.355
Mof_O 	O 	0.81694	0.05044	0.88273	-0.355
Mof_O 	O 	0.3164	0.48123	0.55239	-0.339
Mof_O 	O 	0.6836	0.51877	0.44761	-0.339
Mof_O 	O 	0.68191	0.47576	0.95012	-0.337
Mof_O 	O 	0.31809	0.52424	0.04988	-0.337
Mof_O 	O 	0.81809	0.97576	0.54988	-0.334
Mof_O 	O 	0.18191	0.02424	0.45012	-0.334
Mof_O 	O 	0.1836	0.98123	0.94761	-0.324
Mof_O 	O 	0.8164	0.01877	0.05239	-0.324
Mof_O 	O 	0.24752	0.27594	0.26063	-0.395
Mof_O 	O 	0.75248	0.72406	0.73938	-0.395
Mof_O 	O 	0.75626	0.27067	0.24135	-0.392
Mof_O 	O 	0.24374	0.72934	0.75866	-0.392
Mof_O 	O 	0.74373	0.77067	0.25865	-0.392
Mof_O 	O 	0.25627	0.22933	0.74135	-0.392
Mof_O 	O 	0.25248	0.77594	0.23938	-0.395
Mof_O 	O 	0.74752	0.22406	0.76063	-0.395
Mof_O 	O 	0.23264	0.10877	0.28219	-0.398
Mof_O 	O 	0.76736	0.89123	0.71782	-0.398
Mof_O 	O 	0.7677	0.10203	0.22903	-0.403
Mof_O 	O 	0.2323	0.89797	0.77097	-0.403
Mof_O 	O 	0.7323	0.60203	0.27097	-0.407
Mof_O 	O 	0.2677	0.39797	0.72903	-0.407
Mof_O 	O 	0.26736	0.60877	0.21781	-0.401
Mof_O 	O 	0.73265	0.39123	0.78219	-0.401
Mof_O 	O 	0.43505	0.43394	0.24291	-0.383
Mof_O 	O 	0.56495	0.56606	0.75709	-0.383
Mof_O 	O 	0.58575	0.38689	0.27784	-0.409
Mof_O 	O 	0.41425	0.61311	0.72217	-0.409
Mof_O 	O 	0.91425	0.88689	0.22216	-0.41
Mof_O 	O 	0.08575	0.11311	0.77784	-0.41
Mof_O 	O 	0.06496	0.93394	0.25709	-0.384
Mof_O 	O 	0.93504	0.06606	0.74291	-0.384
Mof_C 	C 	0.07891	0.46587	0.13544	0.268
Mof_C 	C 	0.92109	0.53413	0.86456	0.268
Mof_C 	C 	0.92892	0.48627	0.35691	0.267
Mof_C 	C 	0.07108	0.51373	0.64309	0.267
Mof_C 	C 	0.57107	0.98627	0.14309	0.246
Mof_C 	C 	0.42893	0.01373	0.85692	0.246
Mof_C 	C 	0.4211	0.96587	0.36456	0.268
Mof_C 	C 	0.5789	0.03413	0.63544	0.268
Mof_C 	C 	0.24902	0.25813	0.99409	0.408
Mof_C 	C 	0.75097	0.74187	0.00591	0.409
Mof_C 	C 	0.74903	0.24187	0.49409	0.414
Mof_C 	C 	0.25097	0.75813	0.50591	0.414
Mof_C 	C 	0.27896	0.48488	0.45137	0.374
Mof_C 	C 	0.72104	0.51512	0.54863	0.374
Mof_C 	C 	0.71997	0.48007	0.05091	0.376
Mof_C 	C 	0.28004	0.51993	0.9491	0.376
Mof_C 	C 	0.78004	0.98007	0.44909	0.372
Mof_C 	C 	0.21997	0.01993	0.55091	0.372
Mof_C 	C 	0.22104	0.98488	0.04863	0.35
Mof_C 	C 	0.77896	0.01512	0.95137	0.35
Mof_C 	C 	0.27668	0.18526	0.2625	0.42
Mof_C 	C 	0.72332	0.81474	0.7375	0.42
Mof_C 	C 	0.72275	0.18205	0.23616	0.426
Mof_C 	C 	0.27725	0.81795	0.76384	0.426
Mof_C 	C 	0.77724	0.68205	0.26384	0.427
Mof_C 	C 	0.22276	0.31795	0.73617	0.427
Mof_C 	C 	0.22332	0.68526	0.2375	0.42
Mof_C 	C 	0.77668	0.31474	0.76251	0.42
Mof_C 	C 	0.49929	0.3686	0.25202	0.431
Mof_C 	C 	0.50071	0.6314	0.74798	0.431
Mof_C 	C 	0.00071	0.8686	0.24798	0.431
Mof_C 	C 	0.99929	0.1314	0.75202	0.431
Mof_H 	H 	0.00406	0.48821	0.11056	0.008
Mof_H 	H 	0.99594	0.51179	0.88945	0.008
Mof_H 	H 	0.00308	0.50955	0.37176	0.014
Mof_H 	H 	0.99692	0.49045	0.62824	0.014
Mof_H 	H 	0.49692	0.00955	0.12824	0.023
Mof_H 	H 	0.50308	0.99045	0.87176	0.023
Mof_H 	H 	0.49594	0.98821	0.38944	0.008
Mof_H 	H 	0.50406	0.01179	0.61056	0.008
Mof_H 	H 	0.17654	0.28368	0.95381	-0.066
Mof_H 	H 	0.82346	0.71632	0.04619	-0.066
Mof_H 	H 	0.32346	0.78368	0.54619	-0.066
Mof_H 	H 	0.67654	0.21632	0.45381	-0.066
Mof_H 	H 	0.20954	0.5212	0.42368	-0.039
Mof_H 	H 	0.79046	0.47881	0.57632	-0.039
Mof_H 	H 	0.7889	0.51803	0.07763	-0.052
Mof_H 	H 	0.2111	0.48197	0.92237	-0.052
Mof_H 	H 	0.7111	0.01803	0.42237	-0.049
Mof_H 	H 	0.2889	0.98197	0.57763	-0.049
Mof_H 	H 	0.29046	0.02119	0.07632	-0.029
Mof_H 	H 	0.70954	0.97881	0.92368	-0.029
Mof_H 	H 	0.34541	0.17161	0.24635	-0.057
Mof_H 	H 	0.65459	0.82839	0.75365	-0.057
Mof_H 	H 	0.64862	0.17364	0.23792	-0.063
Mof_H 	H 	0.35138	0.82636	0.76208	-0.063
Mof_H 	H 	0.85138	0.67364	0.26208	-0.064
Mof_H 	H 	0.14862	0.32636	0.73792	-0.064
Mof_H 	H 	0.15459	0.67161	0.25365	-0.058
Mof_H 	H 	0.84541	0.32839	0.74635	-0.058
Mof_H 	H 	0.47749	0.28779	0.23577	-0.056
Mof_H 	H 	0.52251	0.71221	0.76424	-0.056
Mof_H 	H 	0.02251	0.78779	0.26423	-0.057
Mof_H 	H 	0.9775	0.21221	0.73577	-0.057
_end
