data_functionalizedCrystal
_audit_creation_method	'EQeq! by Chris Wilmer'
_symmetry_space_group_name_H-M	'P1'
_symmetry_Int_Tables_number	1
_symmetry_cell_setting	triclinic
loop_
_symmetry_equiv_pos_as_xyz
  x,y,z
_cell_length_a	8.407
_cell_length_b	10.28
_cell_length_c	17.655
_cell_angle_alpha	90
_cell_angle_beta	102.8
_cell_angle_gamma	90
loop_
_atom_site_label
_atom_site_type_symbol
_atom_site_fract_x
_atom_site_fract_y
_atom_site_fract_z
_atom_site_charge
Mof_N 	N 	0.1666	0.5729	0.451	-0.223
Mof_O 	O 	0.4698	0.2855	0.44375	-0.349
Mof_O 	O 	0.4201	0.3915	0.54183	-0.4
Mof_C 	C 	0.4848	0.2937	0.516	0.251
Mof_C 	C 	0.9625	0.7313	0.4052	-0.091
Mof_H 	H 	0.893	0.7714	0.3634	0.085
Mof_C 	C 	0.1651	0.6083	0.524	0.063
Mof_H 	H 	0.2335	0.5652	0.5649	0.015
Mof_C 	C 	0.0663	0.7057	0.5406	-0.105
Mof_H 	H 	0.0694	0.7286	0.5918	0.079
Mof_C 	C 	0.5767	0.1953	0.5697	0.008
Mof_C 	C 	0.5876	0.2047	0.6491	-0.066
Mof_H 	H 	0.5358	0.272	0.6694	0.081
Mof_Cu	Cu	0.82566	0.05718	0.93193	0.911
Mof_O 	O 	0.7906	0.036	0.82336	-0.383
Mof_O 	O 	0.6199	0.2032	0.81307	-0.3
Mof_C 	C 	0.6937	0.1211	0.7839	0.294
Mof_C 	C 	0.7536	0.0129	0.6665	-0.155
Mof_H 	H 	0.8133	0.9511	0.6995	0.118
Mof_N 	N 	0.8252	0.899	0.5613	-0.29
Mof_C 	C 	0.0649	0.6346	0.3927	0.062
Mof_H 	H 	0.0642	0.6105	0.3419	0.017
Mof_C 	C 	0.6527	0.0951	0.5375	-0.148
Mof_H 	H 	0.6429	0.0894	0.4841	0.127
Mof_C 	C 	0.6769	0.1123	0.6976	0.012
Mof_O 	O 	0.8125	0.9592	0.43678	-0.226
Mof_C 	C 	0.8589	0.8849	0.4909	0.227
Mof_C 	C 	0.7435	0.0038	0.5876	0.194
Mof_C 	C 	0.9623	0.7696	0.4804	0.002
Mof_H 	H 	0.86	0.845	0.592	0.187
Mof_N 	N 	0.6666	0.9271	0.951	-0.221
Mof_O 	O 	0.9698	0.2145	0.94375	-0.35
Mof_O 	O 	0.9201	0.1085	0.04183	-0.4
Mof_C 	C 	0.9848	0.2063	0.016	0.253
Mof_C 	C 	0.4625	0.7687	0.9052	-0.092
Mof_H 	H 	0.393	0.7286	0.8634	0.085
Mof_C 	C 	0.6651	0.8917	0.024	0.061
Mof_H 	H 	0.7335	0.9348	0.0649	0.015
Mof_C 	C 	0.5663	0.7943	0.0406	-0.106
Mof_H 	H 	0.5694	0.7714	0.0918	0.079
Mof_C 	C 	0.0767	0.3047	0.0697	0.007
Mof_C 	C 	0.0876	0.2953	0.1491	-0.064
Mof_H 	H 	0.0358	0.228	0.1694	0.081
Mof_Cu	Cu	0.32566	0.44282	0.43193	0.912
Mof_O 	O 	0.2906	0.464	0.32336	-0.382
Mof_O 	O 	0.1199	0.2968	0.31307	-0.3
Mof_C 	C 	0.1937	0.3789	0.2839	0.295
Mof_C 	C 	0.2536	0.4871	0.1665	-0.151
Mof_H 	H 	0.3133	0.5489	0.1995	0.115
Mof_N 	N 	0.3252	0.601	0.0613	-0.29
Mof_C 	C 	0.5649	0.8654	0.8927	0.063
Mof_H 	H 	0.5642	0.8895	0.8419	0.017
Mof_C 	C 	0.1527	0.4049	0.0375	-0.145
Mof_H 	H 	0.1429	0.4106	0.9841	0.126
Mof_C 	C 	0.1769	0.3877	0.1976	0.011
Mof_O 	O 	0.3125	0.5408	0.93678	-0.227
Mof_C 	C 	0.3589	0.6151	0.9909	0.227
Mof_C 	C 	0.2435	0.4962	0.0876	0.193
Mof_C 	C 	0.4623	0.7304	0.9804	0.004
Mof_H 	H 	0.36	0.655	0.092	0.187
Mof_N 	N 	0.3334	0.0729	0.049	-0.221
Mof_O 	O 	0.0302	0.7855	0.05625	-0.35
Mof_O 	O 	0.0799	0.8915	0.95817	-0.4
Mof_C 	C 	0.0152	0.7937	0.984	0.253
Mof_C 	C 	0.5375	0.2313	0.0948	-0.092
Mof_H 	H 	0.607	0.2714	0.1366	0.085
Mof_C 	C 	0.3349	0.1083	0.976	0.061
Mof_H 	H 	0.2665	0.0652	0.9351	0.015
Mof_C 	C 	0.4337	0.2057	0.9594	-0.106
Mof_H 	H 	0.4306	0.2286	0.9082	0.079
Mof_C 	C 	0.9233	0.6953	0.9303	0.007
Mof_C 	C 	0.9124	0.7047	0.8509	-0.064
Mof_H 	H 	0.9642	0.772	0.8306	0.081
Mof_Cu	Cu	0.67434	0.55718	0.56807	0.912
Mof_O 	O 	0.7094	0.536	0.67664	-0.382
Mof_O 	O 	0.8801	0.7032	0.68693	-0.3
Mof_C 	C 	0.8063	0.6211	0.7161	0.295
Mof_C 	C 	0.7464	0.5129	0.8335	-0.151
Mof_H 	H 	0.6867	0.4511	0.8005	0.115
Mof_N 	N 	0.6748	0.399	0.9387	-0.29
Mof_C 	C 	0.4351	0.1346	0.1073	0.063
Mof_H 	H 	0.4358	0.1105	0.1581	0.017
Mof_C 	C 	0.8473	0.5951	0.9625	-0.145
Mof_H 	H 	0.8571	0.5894	0.0159	0.126
Mof_C 	C 	0.8231	0.6123	0.8024	0.011
Mof_O 	O 	0.6875	0.4592	0.06322	-0.227
Mof_C 	C 	0.6411	0.3849	0.0091	0.227
Mof_C 	C 	0.7565	0.5038	0.9124	0.193
Mof_C 	C 	0.5377	0.2696	0.0196	0.004
Mof_H 	H 	0.64	0.345	0.908	0.187
Mof_N 	N 	0.8334	0.4271	0.549	-0.223
Mof_O 	O 	0.5302	0.7145	0.55625	-0.349
Mof_O 	O 	0.5799	0.6085	0.45817	-0.4
Mof_C 	C 	0.5152	0.7063	0.484	0.251
Mof_C 	C 	0.0375	0.2687	0.5948	-0.091
Mof_H 	H 	0.107	0.2286	0.6366	0.085
Mof_C 	C 	0.8349	0.3917	0.476	0.063
Mof_H 	H 	0.7665	0.4348	0.4351	0.015
Mof_C 	C 	0.9337	0.2943	0.4594	-0.105
Mof_H 	H 	0.9306	0.2714	0.4082	0.079
Mof_C 	C 	0.4233	0.8047	0.4303	0.008
Mof_C 	C 	0.4124	0.7953	0.3509	-0.066
Mof_H 	H 	0.4642	0.728	0.3306	0.081
Mof_Cu	Cu	0.17434	0.94282	0.06807	0.911
Mof_O 	O 	0.2094	0.964	0.17664	-0.383
Mof_O 	O 	0.3801	0.7968	0.18693	-0.3
Mof_C 	C 	0.3063	0.8789	0.2161	0.294
Mof_C 	C 	0.2464	0.9871	0.3335	-0.155
Mof_H 	H 	0.1867	0.0489	0.3005	0.118
Mof_N 	N 	0.1748	0.101	0.4387	-0.29
Mof_C 	C 	0.9351	0.3654	0.6073	0.062
Mof_H 	H 	0.9358	0.3895	0.6581	0.017
Mof_C 	C 	0.3473	0.9049	0.4625	-0.148
Mof_H 	H 	0.3571	0.9106	0.5159	0.127
Mof_C 	C 	0.3231	0.8877	0.3024	0.012
Mof_O 	O 	0.1875	0.0408	0.56322	-0.226
Mof_C 	C 	0.1411	0.1151	0.5091	0.227
Mof_C 	C 	0.2565	0.9962	0.4124	0.194
Mof_C 	C 	0.0377	0.2304	0.5196	0.002
Mof_H 	H 	0.14	0.155	0.408	0.187
_end
