data_functionalizedCrystal
_audit_creation_method	'EQeq! by Chris Wilmer'
_symmetry_space_group_name_H-M	'P1'
_symmetry_Int_Tables_number	1
_symmetry_cell_setting	triclinic
loop_
_symmetry_equiv_pos_as_xyz
  x,y,z
_cell_length_a	9.1754
_cell_length_b	15.5258
_cell_length_c	16.3
_cell_angle_alpha	111.89
_cell_angle_beta	90
_cell_angle_gamma	107.187
loop_
_atom_site_label
_atom_site_type_symbol
_atom_site_fract_x
_atom_site_fract_y
_atom_site_fract_z
_atom_site_charge
Mof_Tb	Tb	0.1667	0.00516	0.59193	2.296
Mof_Tb	Tb	0.16154	0.99484	0.90807	2.283
Mof_Tb	Tb	0.83846	0.00516	0.09193	2.283
Mof_Tb	Tb	0.8333	0.99484	0.40807	2.296
Mof_H 	H 	0.8395	0.7582	0.2834	-0.07
Mof_H 	H 	0.0813	0.2418	0.2166	-0.071
Mof_H 	H 	0.7776	0.2326	0.4722	-0.083
Mof_H 	H 	0.5032	0.7224	0.8637	-0.067
Mof_H 	H 	0.6192	0.3874	0.0546	0.198
Mof_H 	H 	0.8319	0.2812	0.1014	0.103
Mof_H 	H 	0.1556	0.5416	0.6567	0.193
Mof_H 	H 	0.4493	0.2812	0.6014	0.106
Mof_H 	H 	0.8411	0.5944	0.6871	0.197
Mof_H 	H 	0.1681	0.7188	0.8986	0.103
Mof_H 	H 	0.2224	0.7674	0.5278	-0.083
Mof_H 	H 	0.1572	0.6982	0.7413	-0.075
Mof_H 	H 	0.7533	0.5944	0.1871	0.196
Mof_H 	H 	0.8713	0.4428	0.7277	0.187
Mof_H 	H 	0.8444	0.4584	0.3433	0.193
Mof_H 	H 	0.4968	0.2776	0.1363	-0.067
Mof_H 	H 	0.3808	0.6126	0.9454	0.198
Mof_H 	H 	0.455	0.2326	0.9722	-0.081
Mof_H 	H 	0.386	0.5416	0.1567	0.193
Mof_H 	H 	0.4285	0.5572	0.7723	0.188
Mof_H 	H 	0.2192	0.7224	0.3637	-0.066
Mof_H 	H 	0.2318	0.6126	0.4454	0.2
Mof_H 	H 	0.459	0.3018	0.7587	-0.075
Mof_H 	H 	0.541	0.6982	0.2413	-0.075
Mof_H 	H 	0.9187	0.7582	0.7834	-0.072
Mof_H 	H 	0.0949	0.5364	0.0954	0.161
Mof_H 	H 	0.7808	0.2776	0.6363	-0.066
Mof_H 	H 	0.2467	0.4056	0.8129	0.196
Mof_H 	H 	0.1605	0.2418	0.7166	-0.071
Mof_H 	H 	0.4415	0.5364	0.5954	0.163
Mof_H 	H 	0.9051	0.4636	0.9046	0.161
Mof_H 	H 	0.8428	0.3018	0.2587	-0.075
Mof_H 	H 	0.5507	0.7188	0.3986	0.106
Mof_H 	H 	0.7682	0.3874	0.5546	0.2
Mof_H 	H 	0.1287	0.5572	0.2723	0.187
Mof_H 	H 	0.5715	0.4428	0.2277	0.188
Mof_H 	H 	0.545	0.7674	0.0278	-0.081
Mof_H 	H 	0.5585	0.4636	0.4046	0.163
Mof_H 	H 	0.1589	0.4056	0.3129	0.197
Mof_H 	H 	0.614	0.4584	0.8433	0.193
Mof_C 	C 	0.1905	0.7502	0.6431	-0.391
Mof_C 	C 	0.1958	0.5626	0.5429	0.416
Mof_C 	C 	0.5857	0.3702	0.9951	-0.422
Mof_C 	C 	0.51	0.6808	0.1814	0.319
Mof_C 	C 	0.527	0.598	0.7744	-0.424
Mof_C 	C 	0.7184	0.757	0.8332	-0.36
Mof_C 	C 	0.731	0.7314	0.479	-0.051
Mof_C 	C 	0.1241	0.6966	0.3291	0.299
Mof_C 	C 	0.1714	0.5876	0.6313	-0.426
Mof_C 	C 	0.0893	0.8608	0.3995	0.562
Mof_C 	C 	0.9547	0.4166	0.1113	0.276
Mof_C 	C 	0.1583	0.4206	0.0211	0.253
Mof_C 	C 	0.8759	0.3034	0.6709	0.299
Mof_C 	C 	0.7888	0.2772	0.4454	0.336
Mof_C 	C 	0.8292	0.3192	0.3186	0.321
Mof_C 	C 	0.0386	0.757	0.3332	-0.358
Mof_C 	C 	0.0453	0.5834	0.8887	0.276
Mof_C 	C 	0.2816	0.243	0.1668	-0.36
Mof_C 	C 	0.9107	0.1392	0.6005	0.562
Mof_C 	C 	0.5725	0.6966	0.8291	0.302
Mof_C 	C 	0.2285	0.1392	0.1005	0.561
Mof_C 	C 	0.071	0.598	0.2744	-0.42
Mof_C 	C 	0.2623	0.4206	0.5211	0.257
Mof_C 	C 	0.4018	0.3162	0.5815	-0.176
Mof_C 	C 	0.3699	0.4378	0.2764	0.397
Mof_C 	C 	0.6042	0.5306	0.4215	-0.335
Mof_C 	C 	0.7742	0.6202	0.7241	-0.414
Mof_C 	C 	0.8095	0.2498	0.3569	-0.391
Mof_C 	C 	0.8417	0.5794	0.9789	0.253
Mof_C 	C 	0.9144	0.3162	0.0815	-0.168
Mof_C 	C 	0.7715	0.8608	0.8995	0.561
Mof_C 	C 	0.0354	0.84	0.0054	0.49
Mof_C 	C 	0.49	0.3192	0.8186	0.319
Mof_C 	C 	0.5982	0.6838	0.4185	-0.176
Mof_C 	C 	0.1954	0.16	0.4946	0.477
Mof_C 	C 	0.0856	0.6838	0.9185	-0.168
Mof_C 	C 	0.8046	0.84	0.5054	0.477
Mof_C 	C 	0.4275	0.3034	0.1709	0.302
Mof_C 	C 	0.7845	0.3702	0.4951	-0.426
Mof_C 	C 	0.6301	0.5622	0.7236	0.397
Mof_C 	C 	0.3331	0.1494	0.8039	0.653
Mof_C 	C 	0.3668	0.5626	0.0429	0.415
Mof_C 	C 	0.1708	0.6808	0.6814	0.321
Mof_C 	C 	0.6669	0.8506	0.1961	0.653
Mof_C 	C 	0.929	0.402	0.7256	-0.42
Mof_C 	C 	0.8042	0.4374	0.4571	0.416
Mof_C 	C 	0.8163	0.1494	0.3039	0.654
Mof_C 	C 	0.2112	0.7228	0.5546	0.336
Mof_C 	C 	0.6332	0.4374	0.9571	0.415
Mof_C 	C 	0.9264	0.5306	0.9215	-0.328
Mof_C 	C 	0.9321	0.5622	0.2236	0.392
Mof_C 	C 	0.5838	0.4124	0.8687	-0.424
Mof_C 	C 	0.5381	0.5834	0.3887	0.284
Mof_C 	C 	0.4403	0.2498	0.8569	-0.389
Mof_C 	C 	0.9996	0.2686	0.021	-0.065
Mof_C 	C 	0.1971	0.3202	0.4902	-0.058
Mof_C 	C 	0.0679	0.4378	0.7764	0.392
Mof_C 	C 	0.7377	0.5794	0.4789	0.257
Mof_C 	C 	0.1011	0.2818	0.7192	0.3
Mof_C 	C 	0.154	0.3798	0.7759	-0.411
Mof_C 	C 	0.0004	0.7314	0.979	-0.065
Mof_C 	C 	0.8989	0.7182	0.2808	0.3
Mof_C 	C 	0.8286	0.4124	0.3687	-0.426
Mof_C 	C 	0.4619	0.4166	0.6113	0.284
Mof_C 	C 	0.8769	0.6798	0.0098	-0.052
Mof_C 	C 	0.8029	0.6798	0.5098	-0.058
Mof_C 	C 	0.1807	0.2818	0.2192	0.304
Mof_C 	C 	0.5597	0.7502	0.1431	-0.389
Mof_C 	C 	0.846	0.6202	0.2241	-0.411
Mof_C 	C 	0.269	0.2686	0.521	-0.051
Mof_C 	C 	0.4162	0.5876	0.1313	-0.424
Mof_C 	C 	0.1231	0.3202	0.9902	-0.052
Mof_C 	C 	0.8193	0.7182	0.7808	0.304
Mof_C 	C 	0.4143	0.6298	0.0049	-0.422
Mof_C 	C 	0.5116	0.7228	0.0546	0.333
Mof_C 	C 	0.9614	0.243	0.6668	-0.358
Mof_C 	C 	0.9646	0.16	0.9946	0.49
Mof_C 	C 	0.0736	0.4694	0.0785	-0.328
Mof_C 	C 	0.2258	0.3798	0.2759	-0.414
Mof_C 	C 	0.2155	0.6298	0.5049	-0.426
Mof_C 	C 	0.4884	0.2772	0.9454	0.333
Mof_C 	C 	0.3958	0.4694	0.5785	-0.335
Mof_C 	C 	0.1837	0.8506	0.6961	0.654
Mof_C 	C 	0.473	0.402	0.2256	-0.424
Mof_O 	O 	0.7216	0.5304	0.0114	-0.33
Mof_O 	O 	0.0976	0.0844	0.1018	-0.639
Mof_O 	O 	0.2784	0.4696	0.9886	-0.33
Mof_O 	O 	0.1546	0.8702	0.7746	-0.63
Mof_O 	O 	0.8673	0.4618	0.1713	-0.34
Mof_O 	O 	0.3131	0.1118	0.0431	-0.569
Mof_O 	O 	0.7156	0.8702	0.2746	-0.63
Mof_O 	O 	0.8088	0.5304	0.5114	-0.33
Mof_O 	O 	0.4055	0.5382	0.3287	-0.342
Mof_O 	O 	0.1403	0.8832	0.9735	-0.585
Mof_O 	O 	0.1327	0.5382	0.8287	-0.34
Mof_O 	O 	0.2844	0.1298	0.7254	-0.63
Mof_O 	O 	0.3016	0.09	0.8407	-0.648
Mof_O 	O 	0.2013	0.8882	0.4569	-0.569
Mof_O 	O 	0.7429	0.8832	0.4735	-0.579
Mof_O 	O 	0.2571	0.1168	0.5265	-0.579
Mof_O 	O 	0.6869	0.8882	0.9569	-0.569
Mof_O 	O 	0.5945	0.4618	0.6713	-0.342
Mof_O 	O 	0.8454	0.1298	0.2254	-0.63
Mof_O 	O 	0.0132	0.9156	0.3982	-0.641
Mof_O 	O 	0.0508	0.1212	0.9418	-0.547
Mof_O 	O 	0.7884	0.09	0.3407	-0.653
Mof_O 	O 	0.2116	0.91	0.6593	-0.653
Mof_O 	O 	0.9296	0.8788	0.5582	-0.546
Mof_O 	O 	0.1912	0.4696	0.4886	-0.33
Mof_O 	O 	0.9868	0.0844	0.6018	-0.641
Mof_O 	O 	0.9024	0.9156	0.8982	-0.639
Mof_O 	O 	0.9492	0.8788	0.0582	-0.547
Mof_O 	O 	0.6984	0.91	0.1593	-0.648
Mof_O 	O 	0.8597	0.1168	0.0265	-0.585
Mof_O 	O 	0.7987	0.1118	0.5431	-0.569
Mof_O 	O 	0.0704	0.1212	0.4418	-0.546
_end
