data_functionalizedCrystal
_audit_creation_method	'EQeq! by Chris Wilmer'
_symmetry_space_group_name_H-M	'P1'
_symmetry_Int_Tables_number	1
_symmetry_cell_setting	triclinic
loop_
_symmetry_equiv_pos_as_xyz
  x,y,z
_cell_length_a	18.8322
_cell_length_b	18.8322
_cell_length_c	18.8322
_cell_angle_alpha	60
_cell_angle_beta	60
_cell_angle_gamma	60
loop_
_atom_site_label
_atom_site_type_symbol
_atom_site_fract_x
_atom_site_fract_y
_atom_site_fract_z
_atom_site_charge
Mof_Fe	Fe	0.57936	0.42064	-0	0.592
Mof_Fe	Fe	0.42064	0.57936	-0	0.592
Mof_Fe	Fe	-0	-2.40725e-17	0.57936	0.406
Mof_Fe	Fe	-0	-2.40725e-17	0.42064	0.376
Mof_Fe	Fe	0.57936	0	-0	0.406
Mof_Fe	Fe	0.42064	0	-0	0.376
Mof_Fe	Fe	2.40725e-17	0.57936	0.42064	0.593
Mof_Fe	Fe	2.40725e-17	0.42064	0.57936	0.593
Mof_Fe	Fe	0.57936	-2.40725e-17	0.42064	0.593
Mof_Fe	Fe	0.42064	-2.40725e-17	0.57936	0.593
Mof_Fe	Fe	2.40725e-17	0.42064	-0	0.377
Mof_Fe	Fe	4.81451e-17	0.57936	-0	0.407
Mof_H 	H 	0.268	0.504	0.96	0.058
Mof_H 	H 	0.504	0.268	0.268	0.022
Mof_H 	H 	0.96	0.268	0.268	0.046
Mof_H 	H 	0.268	0.96	0.504	0.058
Mof_H 	H 	0.268	0.96	0.268	0.046
Mof_H 	H 	0.504	0.268	0.96	0.058
Mof_H 	H 	0.96	0.268	0.504	0.058
Mof_H 	H 	0.268	0.504	0.268	0.022
Mof_H 	H 	0.268	0.268	0.504	0.022
Mof_H 	H 	0.504	0.96	0.268	0.058
Mof_H 	H 	0.96	0.504	0.268	0.058
Mof_H 	H 	0.268	0.268	0.96	0.046
Mof_H 	H 	0.496	0.732	0.04	0.034
Mof_H 	H 	0.732	0.496	0.732	0.063
Mof_H 	H 	0.732	0.04	0.732	0.052
Mof_H 	H 	0.04	0.732	0.496	0.034
Mof_H 	H 	0.04	0.732	0.732	0.052
Mof_H 	H 	0.732	0.496	0.04	0.034
Mof_H 	H 	0.732	0.04	0.496	0.034
Mof_H 	H 	0.496	0.732	0.732	0.063
Mof_H 	H 	0.732	0.732	0.496	0.063
Mof_H 	H 	0.04	0.496	0.732	0.034
Mof_H 	H 	0.496	0.04	0.732	0.034
Mof_H 	H 	0.732	0.732	0.04	0.052
Mof_C 	C 	0.4307	0.4307	0.9735	0.389
Mof_C 	C 	0.3863	0.3863	0.96898	-0.125
Mof_C 	C 	0.4307	0.4307	0.1651	0.409
Mof_C 	C 	0.3863	0.3863	0.25842	-0.177
Mof_C 	C 	0.9735	0.1651	0.4307	0.371
Mof_C 	C 	0.96898	0.25842	0.3863	-0.127
Mof_C 	C 	0.1651	0.9735	0.4307	0.371
Mof_C 	C 	0.25842	0.96898	0.3863	-0.127
Mof_C 	C 	0.4307	0.9735	0.1651	0.371
Mof_C 	C 	0.3863	0.96898	0.25842	-0.127
Mof_C 	C 	0.4307	0.1651	0.9735	0.371
Mof_C 	C 	0.3863	0.25842	0.96898	-0.127
Mof_C 	C 	0.9735	0.4307	0.4307	0.389
Mof_C 	C 	0.96898	0.3863	0.3863	-0.125
Mof_C 	C 	0.1651	0.4307	0.4307	0.409
Mof_C 	C 	0.25842	0.3863	0.3863	-0.177
Mof_C 	C 	0.4307	0.1651	0.4307	0.409
Mof_C 	C 	0.3863	0.25842	0.3863	-0.177
Mof_C 	C 	0.4307	0.9735	0.4307	0.389
Mof_C 	C 	0.3863	0.96898	0.3863	-0.125
Mof_C 	C 	0.9735	0.4307	0.1651	0.371
Mof_C 	C 	0.96898	0.3863	0.25842	-0.127
Mof_C 	C 	0.1651	0.4307	0.9735	0.371
Mof_C 	C 	0.25842	0.3863	0.96898	-0.127
Mof_C 	C 	0.5693	0.5693	0.0265	0.407
Mof_C 	C 	0.6137	0.6137	0.03102	-0.16
Mof_C 	C 	0.5693	0.5693	0.8349	0.391
Mof_C 	C 	0.6137	0.6137	0.74158	-0.121
Mof_C 	C 	0.8349	0.0265	0.5693	0.371
Mof_C 	C 	0.74158	0.03102	0.6137	-0.138
Mof_C 	C 	0.0265	0.8349	0.5693	0.371
Mof_C 	C 	0.03102	0.74158	0.6137	-0.138
Mof_C 	C 	0.0265	0.5693	0.8349	0.371
Mof_C 	C 	0.03102	0.6137	0.74158	-0.138
Mof_C 	C 	0.8349	0.5693	0.0265	0.371
Mof_C 	C 	0.74158	0.6137	0.03102	-0.138
Mof_C 	C 	0.5693	0.0265	0.5693	0.407
Mof_C 	C 	0.6137	0.03102	0.6137	-0.16
Mof_C 	C 	0.5693	0.8349	0.5693	0.391
Mof_C 	C 	0.6137	0.74158	0.6137	-0.121
Mof_C 	C 	0.8349	0.5693	0.5693	0.391
Mof_C 	C 	0.74158	0.6137	0.6137	-0.121
Mof_C 	C 	0.0265	0.5693	0.5693	0.407
Mof_C 	C 	0.03102	0.6137	0.6137	-0.16
Mof_C 	C 	0.5693	0.0265	0.8349	0.371
Mof_C 	C 	0.6137	0.03102	0.74158	-0.138
Mof_C 	C 	0.5693	0.8349	0.0265	0.371
Mof_C 	C 	0.6137	0.74158	0.03102	-0.138
Mof_C 	C 	0.3013	0.42874	0.96866	0.09
Mof_C 	C 	0.42874	0.3013	0.3013	0.092
Mof_C 	C 	0.96866	0.3013	0.3013	0.085
Mof_C 	C 	0.3013	0.96866	0.42874	0.09
Mof_C 	C 	0.3013	0.96866	0.3013	0.085
Mof_C 	C 	0.42874	0.3013	0.96866	0.09
Mof_C 	C 	0.96866	0.3013	0.42874	0.09
Mof_C 	C 	0.3013	0.42874	0.3013	0.092
Mof_C 	C 	0.3013	0.3013	0.42874	0.092
Mof_C 	C 	0.42874	0.96866	0.3013	0.09
Mof_C 	C 	0.96866	0.42874	0.3013	0.09
Mof_C 	C 	0.3013	0.3013	0.96866	0.085
Mof_C 	C 	0.57126	0.6987	0.03134	0.086
Mof_C 	C 	0.6987	0.57126	0.6987	0.098
Mof_C 	C 	0.6987	0.03134	0.6987	0.085
Mof_C 	C 	0.03134	0.6987	0.57126	0.086
Mof_C 	C 	0.03134	0.6987	0.6987	0.085
Mof_C 	C 	0.6987	0.57126	0.03134	0.086
Mof_C 	C 	0.6987	0.03134	0.57126	0.086
Mof_C 	C 	0.57126	0.6987	0.6987	0.098
Mof_C 	C 	0.6987	0.6987	0.57126	0.098
Mof_C 	C 	0.03134	0.57126	0.6987	0.086
Mof_C 	C 	0.57126	0.03134	0.6987	0.086
Mof_C 	C 	0.6987	0.6987	0.03134	0.085
Mof_O 	O 	0.50458	0.3883	0.97852	-0.286
Mof_O 	O 	0.3883	0.50458	0.1286	-0.397
Mof_O 	O 	0.97852	0.1286	0.50458	-0.281
Mof_O 	O 	0.1286	0.97852	0.3883	-0.288
Mof_O 	O 	0.50458	0.97852	0.1286	-0.281
Mof_O 	O 	0.3883	0.1286	0.97852	-0.288
Mof_O 	O 	0.97852	0.50458	0.3883	-0.286
Mof_O 	O 	0.1286	0.3883	0.50458	-0.397
Mof_O 	O 	0.50458	0.1286	0.3883	-0.397
Mof_O 	O 	0.3883	0.97852	0.50458	-0.286
Mof_O 	O 	0.97852	0.3883	0.1286	-0.288
Mof_O 	O 	0.1286	0.50458	0.97852	-0.281
Mof_O 	O 	0.6117	0.49542	0.02148	-0.39
Mof_O 	O 	0.49542	0.6117	0.8714	-0.282
Mof_O 	O 	0.8714	0.02148	0.49542	-0.296
Mof_O 	O 	0.02148	0.8714	0.6117	-0.287
Mof_O 	O 	0.02148	0.49542	0.8714	-0.296
Mof_O 	O 	0.8714	0.6117	0.02148	-0.287
Mof_O 	O 	0.49542	0.02148	0.6117	-0.39
Mof_O 	O 	0.6117	0.8714	0.49542	-0.282
Mof_O 	O 	0.8714	0.49542	0.6117	-0.282
Mof_O 	O 	0.02148	0.6117	0.49542	-0.39
Mof_O 	O 	0.6117	0.02148	0.8714	-0.287
Mof_O 	O 	0.49542	0.8714	0.02148	-0.296
Mof_O 	O 	0.49542	0.6117	0.02148	-0.39
Mof_O 	O 	0.6117	0.49542	0.8714	-0.282
Mof_O 	O 	0.02148	0.8714	0.49542	-0.296
Mof_O 	O 	0.8714	0.02148	0.6117	-0.287
Mof_O 	O 	0.49542	0.02148	0.8714	-0.296
Mof_O 	O 	0.6117	0.8714	0.02148	-0.287
Mof_O 	O 	0.02148	0.49542	0.6117	-0.39
Mof_O 	O 	0.8714	0.6117	0.49542	-0.282
Mof_O 	O 	0.49542	0.8714	0.6117	-0.282
Mof_O 	O 	0.6117	0.02148	0.49542	-0.39
Mof_O 	O 	0.02148	0.6117	0.8714	-0.287
Mof_O 	O 	0.8714	0.49542	0.02148	-0.296
Mof_O 	O 	0.3883	0.50458	0.97852	-0.286
Mof_O 	O 	0.50458	0.3883	0.1286	-0.397
Mof_O 	O 	0.1286	0.97852	0.50458	-0.281
Mof_O 	O 	0.97852	0.1286	0.3883	-0.288
Mof_O 	O 	0.97852	0.50458	0.1286	-0.281
Mof_O 	O 	0.1286	0.3883	0.97852	-0.288
Mof_O 	O 	0.50458	0.97852	0.3883	-0.286
Mof_O 	O 	0.3883	0.1286	0.50458	-0.397
Mof_O 	O 	0.1286	0.50458	0.3883	-0.397
Mof_O 	O 	0.97852	0.3883	0.50458	-0.286
Mof_O 	O 	0.3883	0.97852	0.1286	-0.288
Mof_O 	O 	0.50458	0.1286	0.97852	-0.281
_end
