data_functionalizedCrystal
_audit_creation_method	'EQeq! by Chris Wilmer'
_symmetry_space_group_name_H-M	'P1'
_symmetry_Int_Tables_number	1
_symmetry_cell_setting	triclinic
loop_
_symmetry_equiv_pos_as_xyz
  x,y,z
_cell_length_a	12.7846
_cell_length_b	12.8311
_cell_length_c	15.9937
_cell_angle_alpha	67.358
_cell_angle_beta	67.224
_cell_angle_gamma	63.053
loop_
_atom_site_label
_atom_site_type_symbol
_atom_site_fract_x
_atom_site_fract_y
_atom_site_fract_z
_atom_site_charge
Mof_Mo	Mo	0.66155	0.70436	0.15697	1.101
Mof_Mo	Mo	0.20636	0.15811	0.16284	1.076
Mof_Mo	Mo	0.2	0.96118	0.15867	1.179
Mof_Mo	Mo	0.47623	0.16176	0.16503	1.072
Mof_Mo	Mo	0.46194	0.70115	0.15402	1.082
Mof_Mo	Mo	0.66947	0.96767	0.16436	1.196
Mof_Co	Co	0.03364	0.52729	0.3838	1.165
Mof_P 	P 	0.21071	0.28542	0.30999	0.556
Mof_P 	P 	0.79428	0.69981	0.30515	0.555
Mof_P 	P 	0.20704	0.70239	0.31838	0.574
Mof_P 	P 	0.40718	0.90026	0.27181	0.601
Mof_O 	O 	0.2349	0.7232	0.3975	-0.172
Mof_O 	O 	0.7265	0.675	0.4083	-0.199
Mof_O 	O 	0.1901	0.2158	0.4135	-0.208
Mof_O 	O 	0.364	0.8528	0.3752	-0.18
Mof_O 	O 	0.1568	0.4208	0.2959	-0.418
Mof_O 	O 	0.7548	0.6457	0.2553	-0.398
Mof_O 	O 	0.349	0.2493	0.2654	-0.386
Mof_O 	O 	0.9314	0.6441	0.2902	-0.408
Mof_O 	O 	0.7463	0.8312	0.0942	-0.511
Mof_O 	O 	0.7576	0.8382	0.2627	-0.39
Mof_O 	O 	0.3605	0.0404	0.2383	-0.421
Mof_O 	O 	0.5473	0.8542	0.2346	-0.406
Mof_O 	O 	0.14	0.825	0.2595	-0.399
Mof_O 	O 	0.3274	0.6387	0.2552	-0.398
Mof_O 	O 	0.1518	0.2481	0.2628	-0.398
Mof_O 	O 	0.335	0.24	0.0991	-0.505
Mof_O 	O 	0.1071	0.3921	0.5027	-0.356
Mof_O 	O 	0.1305	0.6262	0.3699	-0.396
Mof_O 	O 	0.32	0.8242	0.0885	-0.505
Mof_O 	O 	0.3577	0.8541	0.2227	-0.426
Mof_O 	O 	0.1321	0.043	0.2577	-0.519
Mof_O 	O 	0.5478	0.6298	0.2517	-0.487
Mof_O 	O 	0.5625	0.054	0.2612	-0.518
Mof_O 	O 	0.5573	0.0506	0.0819	-0.675
Mof_O 	O 	0.3101	0.0508	0.0768	-0.666
Mof_O 	O 	0.5519	0.8118	0.0731	-0.635
Mof_Mo	Mo	0.33845	0.29564	0.84303	1.146
Mof_Mo	Mo	0.79364	0.84189	0.83716	1.169
Mof_Mo	Mo	0.8	0.03882	0.84133	1.03
Mof_Mo	Mo	0.52377	0.83824	0.83497	1.163
Mof_Mo	Mo	0.53806	0.29885	0.84598	1.13
Mof_Mo	Mo	0.33053	0.03233	0.83564	1.037
Mof_Co	Co	0.96636	0.47271	0.6162	1.171
Mof_P 	P 	0.78929	0.71458	0.69001	0.561
Mof_P 	P 	0.20572	0.30019	0.69485	0.552
Mof_P 	P 	0.79296	0.29761	0.68162	0.571
Mof_P 	P 	0.59282	0.09974	0.72819	0.536
Mof_O 	O 	0.7651	0.2768	0.6025	-0.18
Mof_O 	O 	0.2735	0.325	0.5917	-0.207
Mof_O 	O 	0.8099	0.7842	0.5865	-0.19
Mof_O 	O 	0.636	0.1472	0.6248	-0.197
Mof_O 	O 	0.8432	0.5792	0.7041	-0.405
Mof_O 	O 	0.2452	0.3543	0.7447	-0.393
Mof_O 	O 	0.651	0.7507	0.7346	-0.385
Mof_O 	O 	0.0686	0.3559	0.7098	-0.405
Mof_O 	O 	0.2537	0.1688	0.9058	-0.468
Mof_O 	O 	0.2424	0.1618	0.7373	-0.383
Mof_O 	O 	0.6395	0.9596	0.7617	-0.379
Mof_O 	O 	0.4527	0.1458	0.7654	-0.412
Mof_O 	O 	0.86	0.175	0.7405	-0.387
Mof_O 	O 	0.6726	0.3613	0.7448	-0.391
Mof_O 	O 	0.8482	0.7519	0.7372	-0.395
Mof_O 	O 	0.665	0.76	0.9009	-0.478
Mof_O 	O 	0.8929	0.6079	0.4973	-0.348
Mof_O 	O 	0.8695	0.3738	0.6301	-0.392
Mof_O 	O 	0.68	0.1758	0.9115	-0.46
Mof_O 	O 	0.6423	0.1459	0.7773	-0.432
Mof_O 	O 	0.8679	0.957	0.7423	-0.449
Mof_O 	O 	0.4522	0.3702	0.7483	-0.49
Mof_O 	O 	0.4375	0.946	0.7388	-0.451
Mof_O 	O 	0.4427	0.9494	0.9181	-0.564
Mof_O 	O 	0.6899	0.9492	0.9232	-0.555
Mof_O 	O 	0.4481	0.1882	0.9269	-0.602
Mof_Co	Co	0.5	0	-0	1.155
_end
