data_functionalizedCrystal
_audit_creation_method	'EQeq! by Chris Wilmer'
_symmetry_space_group_name_H-M	'P1'
_symmetry_Int_Tables_number	1
_symmetry_cell_setting	triclinic
loop_
_symmetry_equiv_pos_as_xyz
  x,y,z
_cell_length_a	15.481
_cell_length_b	15.8657
_cell_length_c	15.8657
_cell_angle_alpha	76.2302
_cell_angle_beta	60.799
_cell_angle_gamma	60.799
loop_
_atom_site_label
_atom_site_type_symbol
_atom_site_fract_x
_atom_site_fract_y
_atom_site_fract_z
_atom_site_charge
Mof_Ni	Ni	0.5	0	-0	1.015
Mof_Ni	Ni	1.32551e-17	0.5	0.5	1.05
Mof_Ni	Ni	1.32551e-17	-3.65132e-23	0.5	1.019
Mof_Ni	Ni	-0	0.5	-0	1.019
Mof_Mo	Mo	0.875	0.75	0.75	1.192
Mof_Mo	Mo	0.125	0.25	0.25	1.086
Mof_H 	H 	0.2896	0.9771	0.0885	0.123
Mof_H 	H 	0.3226	0.869	0.0732	0.101
Mof_H 	H 	0.4744	0.8118	0.8918	0.149
Mof_H 	H 	0.4199	0.8356	0.1764	0.069
Mof_H 	H 	0.3886	0.9468	0.1736	0.069
Mof_H 	H 	0.498	0.8382	0.0068	0.059
Mof_H 	H 	0.8552	0.5229	0.4115	0.062
Mof_H 	H 	0.7648	0.631	0.4268	0.056
Mof_H 	H 	0.678	0.6882	0.6082	0.091
Mof_H 	H 	0.9319	0.6644	0.3236	-0.016
Mof_H 	H 	0.009	0.5532	0.3264	-0.09
Mof_H 	H 	0.843	0.6618	0.4932	0.101
Mof_H 	H 	0.8781	0.9115	0.4771	0.045
Mof_H 	H 	0.8958	0.9268	0.369	0.056
Mof_H 	H 	0.8662	0.1082	0.3118	0.074
Mof_H 	H 	0.0963	0.8236	0.3356	0.057
Mof_H 	H 	0.0622	0.8264	0.4468	0.035
Mof_H 	H 	0.0048	0.9932	0.3382	0.062
Mof_H 	H 	0.7667	0.5885	0.0229	0.014
Mof_H 	H 	0.6916	0.5732	0.131	0.037
Mof_H 	H 	0.7862	0.3918	0.1882	0.079
Mof_H 	H 	0.7555	0.6764	0.1644	0.064
Mof_H 	H 	0.8354	0.6736	0.0532	0.035
Mof_H 	H 	0.8362	0.5068	0.1618	0.103
Mof_H 	H 	0.1448	0.5885	0.4771	0.043
Mof_H 	H 	0.2352	0.5732	0.369	0.056
Mof_H 	H 	0.322	0.3918	0.3118	0.085
Mof_H 	H 	0.0681	0.6764	0.3356	0.137
Mof_H 	H 	0.991	0.6736	0.4468	0.175
Mof_H 	H 	0.157	0.5068	0.3382	0.087
Mof_H 	H 	0.7104	0.9115	0.0229	-0.016
Mof_H 	H 	0.6774	0.9268	0.131	0.01
Mof_H 	H 	0.5256	0.1082	0.1882	0.026
Mof_H 	H 	0.5801	0.8236	0.1644	0.052
Mof_H 	H 	0.6114	0.8264	0.0532	0.021
Mof_H 	H 	0.502	0.9932	0.1618	0.13
Mof_H 	H 	0.2333	0.9771	0.4115	0.094
Mof_H 	H 	0.3084	0.869	0.4268	0.075
Mof_H 	H 	0.2138	0.8118	0.6082	0.099
Mof_H 	H 	0.2445	0.8356	0.3236	0.057
Mof_H 	H 	0.1646	0.9468	0.3264	0.053
Mof_H 	H 	0.1638	0.8382	0.4932	0.084
Mof_H 	H 	0.1219	0.5229	0.0885	0.061
Mof_H 	H 	0.1042	0.631	0.0732	0.056
Mof_H 	H 	0.1338	0.6882	0.8918	0.105
Mof_H 	H 	0.9037	0.6644	0.1764	0.063
Mof_H 	H 	0.9378	0.5532	0.1736	0.052
Mof_H 	H 	0.9952	0.6618	0.0068	0.129
Mof_H 	H 	0.7104	0.0229	0.9115	-0.016
Mof_H 	H 	0.6774	0.131	0.9268	0.01
Mof_H 	H 	0.5256	0.1882	0.1082	0.026
Mof_H 	H 	0.5801	0.1644	0.8236	0.052
Mof_H 	H 	0.6114	0.0532	0.8264	0.021
Mof_H 	H 	0.502	0.1618	0.9932	0.13
Mof_H 	H 	0.1448	0.4771	0.5885	0.043
Mof_H 	H 	0.2352	0.369	0.5732	0.056
Mof_H 	H 	0.322	0.3118	0.3918	0.085
Mof_H 	H 	0.0681	0.3356	0.6764	0.137
Mof_H 	H 	0.991	0.4468	0.6736	0.175
Mof_H 	H 	0.157	0.3382	0.5068	0.087
Mof_H 	H 	0.1219	0.0885	0.5229	0.061
Mof_H 	H 	0.1042	0.0732	0.631	0.056
Mof_H 	H 	0.1338	0.8918	0.6882	0.105
Mof_H 	H 	0.9037	0.1764	0.6644	0.063
Mof_H 	H 	0.9378	0.1736	0.5532	0.052
Mof_H 	H 	0.9952	0.0068	0.6618	0.129
Mof_H 	H 	0.2333	0.4115	0.9771	0.094
Mof_H 	H 	0.3084	0.4268	0.869	0.075
Mof_H 	H 	0.2138	0.6082	0.8118	0.099
Mof_H 	H 	0.2445	0.3236	0.8356	0.057
Mof_H 	H 	0.1646	0.3264	0.9468	0.053
Mof_H 	H 	0.1638	0.4932	0.8382	0.084
Mof_H 	H 	0.8552	0.4115	0.5229	0.062
Mof_H 	H 	0.7648	0.4268	0.631	0.056
Mof_H 	H 	0.678	0.6082	0.6882	0.091
Mof_H 	H 	0.9319	0.3236	0.6644	-0.016
Mof_H 	H 	0.009	0.3264	0.5532	-0.09
Mof_H 	H 	0.843	0.4932	0.6618	0.101
Mof_H 	H 	0.2896	0.0885	0.9771	0.122
Mof_H 	H 	0.3226	0.0732	0.869	0.1
Mof_H 	H 	0.4744	0.8918	0.8118	0.148
Mof_H 	H 	0.4199	0.1764	0.8356	0.068
Mof_H 	H 	0.3886	0.1736	0.9468	0.068
Mof_H 	H 	0.498	0.0068	0.8382	0.059
Mof_H 	H 	0.7667	0.0229	0.5885	0.014
Mof_H 	H 	0.6916	0.131	0.5732	0.037
Mof_H 	H 	0.7862	0.1882	0.3918	0.079
Mof_H 	H 	0.7555	0.1644	0.6764	0.064
Mof_H 	H 	0.8354	0.0532	0.6736	0.035
Mof_H 	H 	0.8362	0.1618	0.5068	0.103
Mof_H 	H 	0.8781	0.4771	0.9115	0.045
Mof_H 	H 	0.8958	0.369	0.9268	0.056
Mof_H 	H 	0.8662	0.3118	0.1082	0.074
Mof_H 	H 	0.0963	0.3356	0.8236	0.057
Mof_H 	H 	0.0622	0.4468	0.8264	0.035
Mof_H 	H 	0.0048	0.3382	0.9932	0.062
Mof_H 	H 	0.281	0.9561	0.9561	-0.014
Mof_H 	H 	0.6932	0.5439	0.5439	0.028
Mof_H 	H 	0.7371	0.0439	0.4561	0.035
Mof_H 	H 	0.7371	0.4561	0.0439	0.035
Mof_H 	H 	0.3068	0.4561	0.4561	0.027
Mof_H 	H 	0.719	0.0439	0.0439	0.07
Mof_H 	H 	0.2629	0.9561	0.5439	0.017
Mof_H 	H 	0.2629	0.5439	0.9561	0.017
Mof_C 	C 	0.34417	0.92122	0.04674	-0.29
Mof_C 	C 	0.44022	0.88637	0.13857	-0.146
Mof_C 	C 	0.81213	0.57878	0.45326	-0.083
Mof_C 	C 	0.96516	0.61363	0.36143	0.191
Mof_C 	C 	0.89091	0.95326	0.42122	0.002
Mof_C 	C 	0.07879	0.86143	0.38637	-0.159
Mof_C 	C 	0.76539	0.54674	0.07878	-0.041
Mof_C 	C 	0.82659	0.63857	0.11363	-0.125
Mof_C 	C 	0.18787	0.54674	0.42122	-0.101
Mof_C 	C 	0.03484	0.63857	0.38637	-0.427
Mof_C 	C 	0.65583	0.95326	0.07878	0.116
Mof_C 	C 	0.55978	0.86143	0.11363	-0.086
Mof_C 	C 	0.23461	0.92122	0.45326	-0.146
Mof_C 	C 	0.17341	0.88637	0.36143	-0.11
Mof_C 	C 	0.10909	0.57878	0.04674	-0.19
Mof_C 	C 	0.92121	0.61363	0.13857	-0.07
Mof_C 	C 	0.65583	0.07878	0.95326	0.116
Mof_C 	C 	0.55978	0.11363	0.86143	-0.086
Mof_C 	C 	0.18787	0.42122	0.54674	-0.101
Mof_C 	C 	0.03484	0.38637	0.63857	-0.427
Mof_C 	C 	0.10909	0.04674	0.57878	-0.19
Mof_C 	C 	0.92121	0.13857	0.61363	-0.07
Mof_C 	C 	0.23461	0.45326	0.92122	-0.146
Mof_C 	C 	0.17341	0.36143	0.88637	-0.11
Mof_C 	C 	0.81213	0.45326	0.57878	-0.083
Mof_C 	C 	0.96516	0.36143	0.61363	0.191
Mof_C 	C 	0.34417	0.04674	0.92122	-0.29
Mof_C 	C 	0.44022	0.13857	0.88637	-0.146
Mof_C 	C 	0.76539	0.07878	0.54674	-0.041
Mof_C 	C 	0.82659	0.11363	0.63857	-0.125
Mof_C 	C 	0.89091	0.42122	0.95326	0.002
Mof_C 	C 	0.07879	0.38637	0.86143	-0.159
Mof_C 	C 	0.9152	0.8155	0.8155	-0.14
Mof_C 	C 	0.7303	0.8521	0.8521	-0.119
Mof_C 	C 	0.35354	0.94536	0.94536	0.275
Mof_C 	C 	0.42733	0.86847	0.86847	-0.335
Mof_C 	C 	0.365	0.8388	0.8388	0.057
Mof_C 	C 	0.0462	0.6845	0.6845	-0.239
Mof_C 	C 	0.9345	0.6479	0.6479	-0.124
Mof_C 	C 	0.74426	0.55464	0.55464	0.019
Mof_C 	C 	0.66427	0.63153	0.63153	-0.195
Mof_C 	C 	0.5426	0.6612	0.6612	0.01
Mof_C 	C 	0.2307	0.1845	0.3155	-0.172
Mof_C 	C 	0.0824	0.1479	0.3521	-0.165
Mof_C 	C 	0.7989	0.05464	0.44536	-0.074
Mof_C 	C 	0.7958	0.13153	0.36847	-0.149
Mof_C 	C 	0.7038	0.1612	0.3388	-0.014
Mof_C 	C 	0.2307	0.3155	0.1845	-0.172
Mof_C 	C 	0.0824	0.3521	0.1479	-0.165
Mof_C 	C 	0.7989	0.44536	0.05464	-0.074
Mof_C 	C 	0.7958	0.36847	0.13153	-0.149
Mof_C 	C 	0.7038	0.3388	0.1612	-0.014
Mof_C 	C 	0.9538	0.3155	0.3155	-0.098
Mof_C 	C 	0.0655	0.3521	0.3521	-0.15
Mof_C 	C 	0.25574	0.44536	0.44536	0.019
Mof_C 	C 	0.33573	0.36847	0.36847	-0.192
Mof_C 	C 	0.4574	0.3388	0.3388	0.001
Mof_C 	C 	0.0848	0.1845	0.1845	-0.203
Mof_C 	C 	0.2697	0.1479	0.1479	-0.158
Mof_C 	C 	0.64646	0.05464	0.05464	-0.246
Mof_C 	C 	0.57267	0.13153	0.13153	-0.046
Mof_C 	C 	0.635	0.1612	0.1612	-0.047
Mof_C 	C 	0.7693	0.8155	0.6845	-0.169
Mof_C 	C 	0.9176	0.8521	0.6479	-0.112
Mof_C 	C 	0.2011	0.94536	0.55464	0.12
Mof_C 	C 	0.2042	0.86847	0.63153	-0.241
Mof_C 	C 	0.2962	0.8388	0.6612	0.026
Mof_C 	C 	0.7693	0.6845	0.8155	-0.169
Mof_C 	C 	0.9176	0.6479	0.8521	-0.112
Mof_C 	C 	0.2011	0.55464	0.94536	0.12
Mof_C 	C 	0.2042	0.63153	0.86847	-0.241
Mof_C 	C 	0.2962	0.6612	0.8388	0.026
Mof_N 	N 	0.44504	0.8944	0.03952	-0.191
Mof_N 	N 	0.87896	0.6056	0.46048	-0.261
Mof_N 	N 	0.98456	0.96048	0.3944	-0.167
Mof_N 	N 	0.83944	0.53952	0.1056	-0.243
Mof_N 	N 	0.12104	0.53952	0.3944	-0.204
Mof_N 	N 	0.55496	0.96048	0.1056	-0.269
Mof_N 	N 	0.16056	0.8944	0.46048	-0.215
Mof_N 	N 	0.01544	0.6056	0.03952	-0.296
Mof_N 	N 	0.55496	0.1056	0.96048	-0.269
Mof_N 	N 	0.12104	0.3944	0.53952	-0.204
Mof_N 	N 	0.01544	0.03952	0.6056	-0.296
Mof_N 	N 	0.16056	0.46048	0.8944	-0.215
Mof_N 	N 	0.87896	0.46048	0.6056	-0.261
Mof_N 	N 	0.44504	0.03952	0.8944	-0.191
Mof_N 	N 	0.83944	0.1056	0.53952	-0.243
Mof_N 	N 	0.98456	0.3944	0.96048	-0.167
Mof_N 	N 	0.93988	0.8524	0.8524	-0.032
Mof_N 	N 	0.64985	0.90785	0.90785	-0.146
Mof_N 	N 	0.14468	0.6476	0.6476	-0.065
Mof_N 	N 	0.96555	0.59215	0.59215	-0.179
Mof_N 	N 	0.29228	0.1476	0.3524	-0.087
Mof_N 	N 	0.0577	0.09215	0.40785	-0.224
Mof_N 	N 	0.29228	0.3524	0.1476	-0.087
Mof_N 	N 	0.0577	0.40785	0.09215	-0.224
Mof_N 	N 	0.85532	0.3524	0.3524	-0.079
Mof_N 	N 	0.03445	0.40785	0.40785	-0.205
Mof_N 	N 	0.06012	0.1476	0.1476	-0.115
Mof_N 	N 	0.35015	0.09215	0.09215	-0.231
Mof_N 	N 	0.70772	0.8524	0.6476	-0.057
Mof_N 	N 	0.9423	0.90785	0.59215	-0.154
Mof_N 	N 	0.70772	0.6476	0.8524	-0.057
Mof_N 	N 	0.9423	0.59215	0.90785	-0.154
_end
