data_functionalizedCrystal
_audit_creation_method	'EQeq! by Chris Wilmer'
_symmetry_space_group_name_H-M	'P1'
_symmetry_Int_Tables_number	1
_symmetry_cell_setting	triclinic
loop_
_symmetry_equiv_pos_as_xyz
  x,y,z
_cell_length_a	8.7368
_cell_length_b	33.9968
_cell_length_c	8.6704
_cell_angle_alpha	90
_cell_angle_beta	107.726
_cell_angle_gamma	90
loop_
_atom_site_label
_atom_site_type_symbol
_atom_site_fract_x
_atom_site_fract_y
_atom_site_fract_z
_atom_site_charge
Mof_Cu	Cu	0.75034	0.20355	0.4846	0.95
Mof_Cu	Cu	0.7396	0.0457	0.49914	0.95
Mof_O 	O 	0.89453	0.15421	0.61347	-0.257
Mof_O 	O 	0.85236	0.09016	0.62857	-0.291
Mof_O 	O 	0.622	0.15997	0.36232	-0.289
Mof_O 	O 	0.61329	0.09485	0.34359	-0.253
Mof_O 	O 	0.62424	0.20659	0.64701	-0.274
Mof_O 	O 	0.59307	0.24884	0.83029	-0.248
Mof_O 	O 	0.87669	0.24607	0.62079	-0.293
Mof_O 	O 	0.86265	0.28762	0.81439	-0.287
Mof_O 	O 	0.90765	0.04052	0.3829	-0.276
Mof_O 	O 	0.08979	0.99918	0.34568	-0.248
Mof_O 	O 	0.57113	0.04173	0.61568	-0.281
Mof_O 	O 	0.37984	0.9994	0.62775	-0.289
Mof_C 	C 	0.8195	0.12347	0.5643	0.229
Mof_C 	C 	0.671	0.12596	0.4092	0.232
Mof_C 	C 	0.8144	0.25884	0.7241	0.239
Mof_C 	C 	0.6638	0.23657	0.7375	0.217
Mof_C 	C 	0.0007	0.01112	0.4215	0.23
Mof_C 	C 	0.4857	0.01191	0.5702	0.224
Mof_Cu	Cu	0.24966	0.70355	0.0154	0.943
Mof_Cu	Cu	0.2604	0.5457	0.00086	0.947
Mof_O 	O 	0.10547	0.65421	0.88653	-0.252
Mof_O 	O 	0.14764	0.59016	0.87143	-0.289
Mof_O 	O 	0.378	0.65997	0.13768	-0.291
Mof_O 	O 	0.38671	0.59485	0.15641	-0.253
Mof_O 	O 	0.37576	0.70659	0.85299	-0.267
Mof_O 	O 	0.40693	0.74884	0.66971	-0.242
Mof_O 	O 	0.12331	0.74607	0.87921	-0.284
Mof_O 	O 	0.13735	0.78762	0.68561	-0.281
Mof_O 	O 	0.09235	0.54052	0.1171	-0.281
Mof_O 	O 	0.91021	0.49918	0.15432	-0.247
Mof_O 	O 	0.42887	0.54173	0.88432	-0.278
Mof_O 	O 	0.62016	0.4994	0.87225	-0.289
Mof_C 	C 	0.1805	0.62347	0.9357	0.24
Mof_C 	C 	0.329	0.62596	0.0908	0.222
Mof_C 	C 	0.1856	0.75884	0.7759	0.24
Mof_C 	C 	0.3362	0.73657	0.7625	0.218
Mof_C 	C 	0.9993	0.51112	0.0785	0.235
Mof_C 	C 	0.5143	0.51191	0.9298	0.225
Mof_Cu	Cu	0.24966	0.79645	0.5154	0.949
Mof_Cu	Cu	0.2604	0.9543	0.50086	0.949
Mof_O 	O 	0.10547	0.84579	0.38653	-0.257
Mof_O 	O 	0.14764	0.90984	0.37143	-0.291
Mof_O 	O 	0.378	0.84003	0.63768	-0.289
Mof_O 	O 	0.38671	0.90515	0.65641	-0.253
Mof_O 	O 	0.37576	0.79341	0.35299	-0.274
Mof_O 	O 	0.40693	0.75116	0.16971	-0.248
Mof_O 	O 	0.12331	0.75393	0.37921	-0.293
Mof_O 	O 	0.13735	0.71238	0.18561	-0.287
Mof_O 	O 	0.09235	0.95948	0.6171	-0.276
Mof_O 	O 	0.91021	0.00082	0.65432	-0.248
Mof_O 	O 	0.42887	0.95827	0.38432	-0.281
Mof_O 	O 	0.62016	0.0006	0.37225	-0.289
Mof_C 	C 	0.1805	0.87653	0.4357	0.229
Mof_C 	C 	0.329	0.87404	0.5908	0.232
Mof_C 	C 	0.1856	0.74116	0.2759	0.239
Mof_C 	C 	0.3362	0.76343	0.2625	0.217
Mof_C 	C 	0.9993	0.98888	0.5785	0.23
Mof_C 	C 	0.5143	0.98809	0.4298	0.224
Mof_Cu	Cu	0.75034	0.29645	0.9846	0.943
Mof_Cu	Cu	0.7396	0.4543	0.99914	0.947
Mof_O 	O 	0.89453	0.34579	0.11347	-0.252
Mof_O 	O 	0.85236	0.40984	0.12857	-0.289
Mof_O 	O 	0.622	0.34003	0.86232	-0.291
Mof_O 	O 	0.61329	0.40515	0.84359	-0.253
Mof_O 	O 	0.62424	0.29341	0.14701	-0.267
Mof_O 	O 	0.59307	0.25116	0.33029	-0.242
Mof_O 	O 	0.87669	0.25393	0.12079	-0.284
Mof_O 	O 	0.86265	0.21238	0.31439	-0.281
Mof_O 	O 	0.90765	0.45948	0.8829	-0.281
Mof_O 	O 	0.08979	0.50082	0.84568	-0.247
Mof_O 	O 	0.57113	0.45827	0.11568	-0.278
Mof_O 	O 	0.37984	0.5006	0.12775	-0.289
Mof_C 	C 	0.8195	0.37653	0.0643	0.24
Mof_C 	C 	0.671	0.37404	0.9092	0.222
Mof_C 	C 	0.8144	0.24116	0.2241	0.24
Mof_C 	C 	0.6638	0.26343	0.2375	0.218
Mof_C 	C 	0.0007	0.48888	0.9215	0.235
Mof_C 	C 	0.4857	0.48809	0.0702	0.225
_end
