data_functionalizedCrystal
_audit_creation_method	'EQeq! by Chris Wilmer'
_symmetry_space_group_name_H-M	'P1'
_symmetry_Int_Tables_number	1
_symmetry_cell_setting	triclinic
loop_
_symmetry_equiv_pos_as_xyz
  x,y,z
_cell_length_a	4.7143
_cell_length_b	11.7344
_cell_length_c	13.6823
_cell_angle_alpha	67.666
_cell_angle_beta	89.269
_cell_angle_gamma	82.096
loop_
_atom_site_label
_atom_site_type_symbol
_atom_site_fract_x
_atom_site_fract_y
_atom_site_fract_z
_atom_site_charge
Mof_Ag	Ag	0.7302	0.95096	0.93577	0.546
Mof_Ag	Ag	0.32599	0.12973	0.78231	0.621
Mof_Ag	Ag	0.2698	0.04904	0.06423	0.546
Mof_Ag	Ag	0.67401	0.87027	0.21769	0.621
Mof_H 	H 	0.4386	0.5211	0.9069	0.162
Mof_H 	H 	0.5499	0.7905	0.6252	0.158
Mof_H 	H 	0.0719	0.4606	0.7216	0.19
Mof_H 	H 	0.0722	0.3233	0.913	0.174
Mof_H 	H 	0.7981	0.3386	0.9791	0.173
Mof_H 	H 	0.1042	0.8032	0.7204	0.182
Mof_H 	H 	0.0922	0.7088	0.8403	0.185
Mof_H 	H 	0.0071	0.7703	0.5385	0.167
Mof_H 	H 	0.1916	0.6358	0.5696	0.21
Mof_H 	H 	0.5614	0.4789	0.0931	0.162
Mof_H 	H 	0.4501	0.2095	0.3748	0.158
Mof_H 	H 	0.9281	0.5394	0.2784	0.19
Mof_H 	H 	0.9278	0.6767	0.087	0.174
Mof_H 	H 	0.2019	0.6614	0.0209	0.173
Mof_H 	H 	0.8958	0.1968	0.2796	0.182
Mof_H 	H 	0.9078	0.2912	0.1597	0.185
Mof_H 	H 	0.9929	0.2297	0.4615	0.167
Mof_H 	H 	0.8084	0.3642	0.4304	0.21
Mof_C 	C 	0.7697	0.471	0.8278	0.383
Mof_C 	C 	0.541	0.5498	0.8439	-0.429
Mof_C 	C 	0.46	0.6696	0.7696	0.39
Mof_C 	C 	0.6069	0.7092	0.6767	-0.438
Mof_C 	C 	0.8341	0.6339	0.6569	0.386
Mof_C 	C 	0.9161	0.5135	0.7336	-0.407
Mof_C 	C 	0.8603	0.341	0.909	-0.539
Mof_C 	C 	0.7416	0.2382	0.8872	0.476
Mof_C 	C 	0.2191	0.7579	0.7874	-0.551
Mof_C 	C 	0.3211	0.8525	0.8256	0.464
Mof_C 	C 	0.9938	0.6812	0.5562	-0.531
Mof_C 	C 	0.8626	0.6683	0.4609	0.435
Mof_C 	C 	0.2303	0.529	0.1722	0.383
Mof_C 	C 	0.459	0.4502	0.1561	-0.429
Mof_C 	C 	0.54	0.3304	0.2304	0.39
Mof_C 	C 	0.3931	0.2908	0.3233	-0.438
Mof_C 	C 	0.1659	0.3661	0.3431	0.386
Mof_C 	C 	0.0839	0.4865	0.2664	-0.407
Mof_C 	C 	0.1397	0.659	0.091	-0.539
Mof_C 	C 	0.2584	0.7618	0.1128	0.476
Mof_C 	C 	0.7809	0.2421	0.2126	-0.551
Mof_C 	C 	0.6789	0.1475	0.1744	0.464
Mof_C 	C 	0.0062	0.3188	0.4438	-0.531
Mof_C 	C 	0.1374	0.3317	0.5391	0.435
Mof_O 	O 	0.8646	0.1282	0.9368	-0.494
Mof_O 	O 	0.5297	0.2669	0.8243	-0.418
Mof_O 	O 	0.5519	0.8216	0.8799	-0.421
Mof_O 	O 	0.1572	0.9549	0.801	-0.455
Mof_O 	O 	0.9663	0.7252	0.3723	-0.348
Mof_O 	O 	0.6684	0.6015	0.4742	-0.271
Mof_O 	O 	0.1354	0.8718	0.0632	-0.494
Mof_O 	O 	0.4703	0.7331	0.1757	-0.418
Mof_O 	O 	0.4481	0.1784	0.1201	-0.421
Mof_O 	O 	0.8428	0.0451	0.199	-0.455
Mof_O 	O 	0.0337	0.2748	0.6277	-0.348
Mof_O 	O 	0.3316	0.3985	0.5258	-0.271
_end
