data_functionalizedCrystal
_audit_creation_method	'EQeq! by Chris Wilmer'
_symmetry_space_group_name_H-M	'P1'
_symmetry_Int_Tables_number	1
_symmetry_cell_setting	triclinic
loop_
_symmetry_equiv_pos_as_xyz
  x,y,z
_cell_length_a	10.318
_cell_length_b	10.981
_cell_length_c	7.066
_cell_angle_alpha	90
_cell_angle_beta	90
_cell_angle_gamma	90
loop_
_atom_site_label
_atom_site_type_symbol
_atom_site_fract_x
_atom_site_fract_y
_atom_site_fract_z
_atom_site_charge
Mof_Cu	Cu	0.90166	0.89151	0.61459	0.807
Mof_S 	S 	0.09606	0.11115	0.69028	0.009
Mof_O 	O 	0.0544	0.2314	0.7775	-0.285
Mof_O 	O 	0.229	0.0916	0.7799	-0.299
Mof_O 	O 	0.0098	0.0146	0.7728	-0.273
Mof_Cu	Cu	0.59834	0.60849	0.61459	0.808
Mof_S 	S 	0.40394	0.38885	0.69028	0.009
Mof_O 	O 	0.4456	0.2686	0.7775	-0.285
Mof_O 	O 	0.271	0.4084	0.7799	-0.299
Mof_O 	O 	0.4902	0.4854	0.7728	-0.272
Mof_Cu	Cu	0.59834	0.89151	0.38541	0.805
Mof_S 	S 	0.40394	0.11115	0.30972	0.017
Mof_O 	O 	0.4456	0.2314	0.2225	-0.322
Mof_O 	O 	0.271	0.0916	0.2201	-0.335
Mof_O 	O 	0.4902	0.0146	0.2272	-0.309
Mof_Cu	Cu	0.90166	0.60849	0.38541	0.805
Mof_S 	S 	0.09606	0.38885	0.30972	0.017
Mof_O 	O 	0.0544	0.2686	0.2225	-0.322
Mof_O 	O 	0.229	0.4084	0.2201	-0.336
Mof_O 	O 	0.0098	0.4854	0.2272	-0.309
Mof_Cu	Cu	0.09834	0.10849	0.38541	0.805
Mof_S 	S 	0.90394	0.88885	0.30972	0.017
Mof_O 	O 	0.9456	0.7686	0.2225	-0.322
Mof_O 	O 	0.771	0.9084	0.2201	-0.335
Mof_O 	O 	0.9902	0.9854	0.2272	-0.309
Mof_Cu	Cu	0.40166	0.39151	0.38541	0.805
Mof_S 	S 	0.59606	0.61115	0.30972	0.017
Mof_O 	O 	0.5544	0.7314	0.2225	-0.322
Mof_O 	O 	0.729	0.5916	0.2201	-0.336
Mof_O 	O 	0.5098	0.5146	0.2272	-0.309
Mof_Cu	Cu	0.40166	0.10849	0.61459	0.808
Mof_S 	S 	0.59606	0.88885	0.69028	0.009
Mof_O 	O 	0.5544	0.7686	0.7775	-0.285
Mof_O 	O 	0.729	0.9084	0.7799	-0.299
Mof_O 	O 	0.5098	0.9854	0.7728	-0.272
Mof_Cu	Cu	0.09834	0.39151	0.61459	0.808
Mof_S 	S 	0.90394	0.61115	0.69028	0.009
Mof_O 	O 	0.9456	0.7314	0.7775	-0.285
Mof_O 	O 	0.771	0.5916	0.7799	-0.299
Mof_O 	O 	0.9902	0.5146	0.7728	-0.272
Mof_Cd	Cd	0.25	0.25	-0	0.368
Mof_Cd	Cd	0.75	0.75	-0	0.368
_end
