data_functionalizedCrystal
_audit_creation_method	'EQeq! by Chris Wilmer'
_symmetry_space_group_name_H-M	'P1'
_symmetry_Int_Tables_number	1
_symmetry_cell_setting	triclinic
loop_
_symmetry_equiv_pos_as_xyz
  x,y,z
_cell_length_a	19.469
_cell_length_b	19.469
_cell_length_c	20.6804
_cell_angle_alpha	90
_cell_angle_beta	90
_cell_angle_gamma	120
loop_
_atom_site_label
_atom_site_type_symbol
_atom_site_fract_x
_atom_site_fract_y
_atom_site_fract_z
_atom_site_charge
Mof_Mn	Mn	0.73046	0.37785	0.97551	0.808
Mof_Mn	Mn	0.70781	0.43746	0.81206	0.939
Mof_Mn	Mn	0.64739	0.26954	0.30885	0.824
Mof_Mn	Mn	0.29219	0.56254	0.31206	0.94
Mof_Mn	Mn	0.26954	0.62215	0.47551	0.823
Mof_Mn	Mn	0.27035	0.70781	0.64539	0.94
Mof_Mn	Mn	0.72965	0.29219	0.14539	0.943
Mof_Mn	Mn	0.62215	0.35261	0.64218	0.823
Mof_Mn	Mn	0.43746	0.72965	0.97873	0.92
Mof_Mn	Mn	0.56254	0.27035	0.47873	0.94
Mof_Mn	Mn	0.37785	0.64739	0.14218	0.825
Mof_Mn	Mn	0.35261	0.73046	0.80885	0.821
Mof_H 	H 	0.3588	0.221	0.24617	0.083
Mof_H 	H 	0.9671	0.2577	0.5194	0.081
Mof_H 	H 	0.5375	0.8819	0.59527	0.027
Mof_H 	H 	0.7429	0.544	0.05367	0.017
Mof_H 	H 	0.6742	0.9326	0.60067	0.073
Mof_H 	H 	0.1667	0.2297	0.26037	0.073
Mof_H 	H 	0.4038	0.0438	0.28193	0.031
Mof_H 	H 	0.1846	0.1073	0.56037	0.077
Mof_H 	H 	0.7907	0.6348	0.76407	0.032
Mof_H 	H 	0.3444	0.4625	0.9286	0.037
Mof_H 	H 	0.3652	0.1559	0.43073	0.032
Mof_H 	H 	0.83	0.6839	0.8702	0.015
Mof_H 	H 	0.0438	0.64	0.4486	0.031
Mof_H 	H 	0.8154	0.8927	0.06037	0.079
Mof_H 	H 	0.7403	0.0492	0.5305	0.073
Mof_H 	H 	0.2571	0.456	0.55367	0.012
Mof_H 	H 	0.0486	0.3165	0.9442	0.079
Mof_H 	H 	0.8927	0.0773	0.22703	0.077
Mof_H 	H 	0.1989	0.7429	0.887	0.026
Mof_H 	H 	0.3089	0.2597	0.86383	0.071
Mof_H 	H 	0.6556	0.5375	0.4286	0.027
Mof_H 	H 	0.3161	0.1461	0.53687	0.022
Mof_H 	H 	0.505	0.7287	0.74067	0.011
Mof_H 	H 	0.7287	0.2237	0.90733	0.008
Mof_H 	H 	0.8844	0.2037	0.3941	0.082
Mof_H 	H 	0.9227	0.8154	0.8937	0.083
Mof_H 	H 	0.2597	0.9508	0.0305	0.044
Mof_H 	H 	0.6412	0.779	0.74617	0.082
Mof_H 	H 	0.4453	0.3438	0.85563	0.024
Mof_H 	H 	0.2237	0.495	0.074	0.02
Mof_H 	H 	0.0773	0.1846	0.3937	0.077
Mof_H 	H 	0.2713	0.7763	0.40733	0.011
Mof_H 	H 	0.495	0.2713	0.24067	0.011
Mof_H 	H 	0.9562	0.36	0.9486	0.032
Mof_H 	H 	0.7423	0.7094	0.18607	0.08
Mof_H 	H 	0.3193	0.1156	0.72743	0.082
Mof_H 	H 	0.0492	0.3089	0.69717	0.073
Mof_H 	H 	0.8622	0.6412	0.5795	0.083
Mof_H 	H 	0.5962	0.9562	0.78193	0.03
Mof_H 	H 	0.8011	0.2571	0.387	0.012
Mof_H 	H 	0.937	0.1667	0.0937	0.075
Mof_H 	H 	0.1378	0.3588	0.0795	0.08
Mof_H 	H 	0.3438	0.8985	0.0223	0.072
Mof_H 	H 	0.3165	0.2679	0.11087	0.078
Mof_H 	H 	0.9508	0.6911	0.19717	0.073
Mof_H 	H 	0.7703	0.937	0.92703	0.069
Mof_H 	H 	0.6348	0.8441	0.93073	0.027
Mof_H 	H 	0.672	0.0613	0.33033	0.029
Mof_H 	H 	0.456	0.1989	0.72033	0.012
Mof_H 	H 	0.1156	0.7963	0.8941	0.066
Mof_H 	H 	0.8539	0.17	0.20353	0.022
Mof_H 	H 	0.544	0.8011	0.22033	0.013
Mof_H 	H 	0.221	0.8622	0.41283	0.083
Mof_H 	H 	0.7963	0.6807	0.06077	0.085
Mof_H 	H 	0.2037	0.3193	0.56077	0.082
Mof_H 	H 	0.1073	0.9227	0.72703	0.077
Mof_H 	H 	0.1559	0.7907	0.5974	0.031
Mof_H 	H 	0.6807	0.8844	0.22743	0.082
Mof_H 	H 	0.6911	0.7403	0.36383	0.073
Mof_H 	H 	0.2906	0.0329	0.85273	0.078
Mof_H 	H 	0.1461	0.83	0.70353	0.021
Mof_H 	H 	0.6562	0.1015	0.5223	0.025
Mof_H 	H 	0.2297	0.063	0.42703	0.073
Mof_H 	H 	0.063	0.8333	0.5937	0.073
Mof_H 	H 	0.9514	0.6835	0.4442	0.076
Mof_H 	H 	0.64	0.5962	0.61527	0.031
Mof_H 	H 	0.0674	0.7416	0.26733	0.073
Mof_H 	H 	0.7094	0.9671	0.35273	0.08
Mof_H 	H 	0.6107	0.672	0.16367	0.029
Mof_H 	H 	0.1181	0.6556	0.26193	0.027
Mof_H 	H 	0.5547	0.6562	0.35563	0.026
Mof_H 	H 	0.8441	0.2093	0.0974	0.032
Mof_H 	H 	0.3893	0.328	0.66367	0.028
Mof_H 	H 	0.328	0.9387	0.83033	0.028
Mof_H 	H 	0.8985	0.5547	0.18897	0.027
Mof_H 	H 	0.17	0.3161	0.3702	0.021
Mof_H 	H 	0.8333	0.7703	0.76037	0.073
Mof_H 	H 	0.2577	0.2906	0.68607	0.08
Mof_H 	H 	0.0613	0.3893	0.497	0.028
Mof_H 	H 	0.9326	0.2584	0.76733	0.073
Mof_H 	H 	0.2093	0.3652	0.26407	0.032
Mof_H 	H 	0.1015	0.4453	0.68897	0.025
Mof_H 	H 	0.779	0.1378	0.91283	0.079
Mof_H 	H 	0.7763	0.505	0.574	0.011
Mof_H 	H 	0.6839	0.8539	0.03687	0.026
Mof_H 	H 	0.3258	0.0674	0.10067	0.076
Mof_H 	H 	0.9387	0.6107	0.997	0.015
Mof_H 	H 	0.7321	0.0486	0.77753	0.076
Mof_H 	H 	0.36	0.4038	0.11527	0.033
Mof_H 	H 	0.2584	0.3258	0.934	0.07
Mof_H 	H 	0.4625	0.1181	0.09527	0.029
Mof_H 	H 	0.8819	0.3444	0.76193	0.027
Mof_H 	H 	0.7416	0.6742	0.434	0.073
Mof_H 	H 	0.0329	0.7423	0.0194	0.108
Mof_H 	H 	0.6835	0.7321	0.61087	0.076
Mof_H 	H 	0.2679	0.9514	0.27753	0.077
Mof_C 	C 	0.23073	0.34544	0.23274	0.045
Mof_C 	C 	0.99302	0.70568	0.47512	-0.118
Mof_C 	C 	0.32012	0.36829	0.14425	0.049
Mof_C 	C 	0.2032	0.14817	0.18008	-0.023
Mof_C 	C 	0.57387	0.78875	0.24964	0.062
Mof_C 	C 	0.17828	0.87841	0.9638	0.014
Mof_C 	C 	0.24711	0.90846	0.00139	-0.023
Mof_C 	C 	0.09154	0.33865	0.66806	-0.125
Mof_C 	C 	0.70013	0.82172	0.29713	0.077
Mof_C 	C 	0.12872	0.30438	0.40039	0.058
Mof_C 	C 	0.21986	0.5526	0.61836	0.359
Mof_C 	C 	0.76927	0.53928	0.54553	0.064
Mof_C 	C 	0.4199	0.29713	0.83002	0.051
Mof_C 	C 	0.05503	0.2032	0.01341	-0.027
Mof_C 	C 	0.20531	0.26478	0.23044	-0.118
Mof_C 	C 	0.12411	0.36577	0.4307	-0.136
Mof_C 	C 	0.82434	0.12872	0.23372	0.058
Mof_C 	C 	0.19955	0.70744	0.33422	-0.129
Mof_C 	C 	0.7968	0.85183	0.68008	-0.024
Mof_C 	C 	0.81461	0.53542	0.12108	-0.129
Mof_C 	C 	0.92669	0.77379	0.91404	-0.149
Mof_C 	C 	0.28734	0.99302	0.30845	-0.12
Mof_C 	C 	0.8654	0.75786	0.50896	-0.026
Mof_C 	C 	0.45021	0.26651	0.5818	0.387
Mof_C 	C 	0.82993	0.95374	0.30386	-0.026
Mof_C 	C 	0.63171	0.95183	0.81091	0.049
Mof_C 	C 	0.36829	0.04817	0.31091	0.049
Mof_C 	C 	0.28742	0.39706	0.18916	-0.123
Mof_C 	C 	0.89101	0.25113	0.79553	-0.125
Mof_C 	C 	0.67988	0.63171	0.64425	0.049
Mof_C 	C 	0.94497	0.7968	0.51341	-0.024
Mof_C 	C 	0.54979	0.73349	0.0818	0.385
Mof_C 	C 	0.53542	0.72081	0.28774	-0.132
Mof_C 	C 	0.23051	0.6517	0.32963	0.343
Mof_C 	C 	0.34761	0.28363	0.64208	0.059
Mof_C 	C 	0.79469	0.73522	0.73044	-0.118
Mof_C 	C 	0.77379	0.8471	0.08071	-0.127
Mof_C 	C 	0.46072	0.22999	0.2122	0.065
Mof_C 	C 	0.73522	0.94053	0.8971	-0.12
Mof_C 	C 	0.75786	0.89246	0.67563	-0.026
Mof_C 	C 	0.092	0.09231	0.00273	0.014
Mof_C 	C 	0.86104	0.30239	0.79255	0.05
Mof_C 	C 	0.42613	0.21125	0.74964	0.062
Mof_C 	C 	0.86004	0.18885	0.83998	0.078
Mof_C 	C 	0.87841	0.70013	0.13047	0.078
Mof_C 	C 	0.00031	0.908	0.33606	-0.004
Mof_C 	C 	0.91337	0.78713	0.13826	-0.022
Mof_C 	C 	0.77001	0.23073	0.87886	0.063
Mof_C 	C 	0.51742	0.82673	0.85614	0.366
Mof_C 	C 	0.67119	0.86004	0.67332	0.078
Mof_C 	C 	0.00798	0.2694	0.48885	-0.131
Mof_C 	C 	0.26651	0.8163	0.74846	0.387
Mof_C 	C 	0.75834	0.12411	0.26403	-0.135
Mof_C 	C 	0.22999	0.76927	0.37886	0.064
Mof_C 	C 	0.2081	0.19644	0.62424	0.079
Mof_C 	C 	0.17327	0.69069	0.52281	0.366
Mof_C 	C 	0.71637	0.06398	0.30874	0.059
Mof_C 	C 	0.13896	0.69761	0.29255	0.05
Mof_C 	C 	0.75289	0.09154	0.50139	-0.125
Mof_C 	C 	0.65527	0.83854	0.254	-0.13
Mof_C 	C 	0.88529	0.23073	0.06607	0.047
Mof_C 	C 	0.1346	0.24214	0.00896	-0.024
Mof_C 	C 	0.66726	0.21986	0.45169	0.359
Mof_C 	C 	0.05947	0.79469	0.56377	-0.119
Mof_C 	C 	0.5801	0.70287	0.33002	0.051
Mof_C 	C 	0.72081	0.18539	0.45441	-0.133
Mof_C 	C 	0.79971	0.17953	0.88197	-0.131
Mof_C 	C 	0.78014	0.4474	0.11836	0.358
Mof_C 	C 	0.70568	0.71266	0.64179	-0.119
Mof_C 	C 	0.12624	0.91337	0.97159	-0.002
Mof_C 	C 	0.16146	0.81673	0.92067	-0.084
Mof_C 	C 	0.30931	0.48258	0.18948	0.366
Mof_C 	C 	0.14817	0.94497	0.34674	-0.024
Mof_C 	C 	0.82673	0.30931	0.02281	0.384
Mof_C 	C 	0.87619	0.82993	0.1372	-0.025
Mof_C 	C 	0.10754	0.8654	0.34229	-0.026
Mof_C 	C 	0.29713	0.87723	0.99669	-0.054
Mof_C 	C 	0.57881	0.23051	0.16297	0.343
Mof_C 	C 	0.27919	0.81461	0.95441	-0.084
Mof_C 	C 	0.08663	0.21287	0.63826	-0.025
Mof_C 	C 	0.89036	0.28742	0.02249	-0.111
Mof_C 	C 	0.17566	0.87128	0.73372	0.057
Mof_C 	C 	0.82047	0.62018	0.54864	-0.13
Mof_C 	C 	0.39706	0.10964	0.35582	-0.124
Mof_C 	C 	0.98834	0.7919	0.95757	0.104
Mof_C 	C 	0.42119	0.76949	0.66297	0.343
Mof_C 	C 	0.22621	0.1529	0.58071	-0.129
Mof_C 	C 	0.29987	0.17828	0.79713	0.076
Mof_C 	C 	0.26142	0.99202	0.82218	-0.129
Mof_C 	C 	0.76949	0.3483	0.82963	0.343
Mof_C 	C 	0.34473	0.16146	0.754	-0.13
Mof_C 	C 	0.37982	0.20029	0.21531	-0.131
Mof_C 	C 	0.70744	0.50789	0.50089	-0.13
Mof_C 	C 	0.17953	0.37982	0.04864	-0.118
Mof_C 	C 	0.60294	0.89036	0.85582	-0.125
Mof_C 	C 	0.63423	0.75834	0.09737	-0.132
Mof_C 	C 	0.1837	0.45021	0.41513	0.387
Mof_C 	C 	0.33274	0.78014	0.95169	0.34
Mof_C 	C 	0.65456	0.88529	0.8994	0.045
Mof_C 	C 	0.20029	0.82047	0.38197	-0.13
Mof_C 	C 	0.73858	0.00798	0.32218	-0.129
Mof_C 	C 	0.17007	0.04626	0.80386	-0.026
Mof_C 	C 	0.99969	0.092	0.83606	-0.003
Mof_C 	C 	0.50789	0.80045	0.66756	-0.13
Mof_C 	C 	0.30438	0.17566	0.56706	0.057
Mof_C 	C 	0.82172	0.12159	0.4638	0.077
Mof_C 	C 	0.09031	0.02371	0.99445	-0.019
Mof_C 	C 	0.6517	0.42119	0.4963	0.343
Mof_C 	C 	0.07331	0.22621	0.41404	-0.13
Mof_C 	C 	0.29432	0.28734	0.14179	-0.119
Mof_C 	C 	0.12159	0.29987	0.63047	0.077
Mof_C 	C 	0.908	0.90769	0.50273	-0.003
Mof_C 	C 	0.9334	0.90969	0.32778	-0.002
Mof_C 	C 	0.18885	0.32881	0.00665	0.087
Mof_C 	C 	0.87376	0.08663	0.47159	-0.024
Mof_C 	C 	0.90769	0.99969	0.6694	-0.003
Mof_C 	C 	0.76371	0.76507	0.68433	0.072
Mof_C 	C 	0.24166	0.87589	0.76403	-0.135
Mof_C 	C 	0.11471	0.76927	0.56607	0.045
Mof_C 	C 	0.13996	0.81115	0.33998	0.078
Mof_C 	C 	0.81673	0.65527	0.08734	-0.127
Mof_C 	C 	0.95183	0.32012	0.97758	0.037
Mof_C 	C 	0.26478	0.05947	0.3971	-0.118
Mof_C 	C 	0.7306	0.73858	0.15552	-0.128
Mof_C 	C 	0.3483	0.57881	0.9963	0.296
Mof_C 	C 	0.99202	0.7306	0.98885	-0.178
Mof_C 	C 	0.10964	0.71258	0.52249	-0.124
Mof_C 	C 	0.90846	0.66135	0.16806	-0.123
Mof_C 	C 	0.12381	0.17007	0.6372	-0.026
Mof_C 	C 	0.33865	0.24711	0.83472	-0.126
Mof_C 	C 	0.12277	0.4199	0.66336	0.051
Mof_C 	C 	0.80045	0.29256	0.83422	-0.13
Mof_C 	C 	0.8163	0.54979	0.91513	0.391
Mof_C 	C 	0.29256	0.49211	0.00089	-0.078
Mof_C 	C 	0.80356	0.01166	0.2909	0.079
Mof_C 	C 	0.36012	0.10899	0.12887	-0.125
Mof_C 	C 	0.87723	0.5801	0.16336	0.051
Mof_C 	C 	0.5526	0.33274	0.78502	0.359
Mof_C 	C 	0.34544	0.11471	0.3994	0.045
Mof_C 	C 	0.78512	0.57387	0.08298	0.063
Mof_C 	C 	0.95374	0.12381	0.47053	-0.026
Mof_C 	C 	0.01166	0.2081	0.45757	0.079
Mof_C 	C 	0.44135	0.13896	0.12589	0.051
Mof_C 	C 	0.04817	0.67988	0.47758	0.048
Mof_C 	C 	0.28363	0.93602	0.80874	0.058
Mof_C 	C 	0.7919	0.80356	0.12424	0.08
Mof_C 	C 	0.78713	0.87376	0.30492	-0.024
Mof_C 	C 	0.8471	0.07331	0.24737	-0.129
Mof_C 	C 	0.25113	0.36012	0.9622	-0.129
Mof_C 	C 	0.94053	0.20531	0.06377	-0.121
Mof_C 	C 	0.19644	0.98834	0.7909	0.079
Mof_C 	C 	0.4474	0.66726	0.28502	0.359
Mof_C 	C 	0.36577	0.24166	0.59737	-0.135
Mof_C 	C 	0.65239	0.71637	0.14208	0.058
Mof_C 	C 	0.76927	0.65456	0.73274	0.045
Mof_C 	C 	0.04626	0.87619	0.97053	-0.044
Mof_C 	C 	0.87589	0.63423	0.9307	-0.153
Mof_C 	C 	0.71258	0.60294	0.68916	-0.124
Mof_C 	C 	0.0666	0.09031	0.82778	-0.004
Mof_C 	C 	0.18539	0.46458	0.62108	-0.133
Mof_C 	C 	0.93602	0.65239	0.97541	0.086
Mof_C 	C 	0.00136	0.23629	0.01766	0.091
Mof_C 	C 	0.18327	0.34473	0.58734	-0.13
Mof_C 	C 	0.78875	0.21488	0.41631	0.063
Mof_C 	C 	0.55865	0.86104	0.62589	0.05
Mof_C 	C 	0.90969	0.97629	0.49445	-0.003
Mof_C 	C 	0.97629	0.0666	0.66112	-0.002
Mof_C 	C 	0.2694	0.26142	0.65552	-0.129
Mof_C 	C 	0.63988	0.89101	0.62887	-0.125
Mof_C 	C 	0.70287	0.12277	0.49669	0.052
Mof_C 	C 	0.23073	0.46072	0.04553	0.042
Mof_C 	C 	0.02371	0.9334	0.16112	-0.003
Mof_C 	C 	0.71266	0.00698	0.80845	-0.12
Mof_C 	C 	0.23629	0.23493	0.18433	0.072
Mof_C 	C 	0.30239	0.44135	0.95922	0.013
Mof_C 	C 	0.48258	0.17327	0.35614	0.366
Mof_C 	C 	0.81115	0.67119	0.50665	0.078
Mof_C 	C 	0.69761	0.55865	0.45922	0.05
Mof_C 	C 	0.21287	0.12624	0.80492	-0.024
Mof_C 	C 	0.24214	0.10754	0.17563	-0.026
Mof_C 	C 	0.87128	0.69562	0.90039	0.073
Mof_C 	C 	0.32881	0.13996	0.17332	0.08
Mof_C 	C 	0.1529	0.92669	0.74737	-0.129
Mof_C 	C 	0.21488	0.42613	0.58298	0.063
Mof_C 	C 	0.06398	0.34761	0.47541	0.06
Mof_C 	C 	0.85183	0.05503	0.84674	-0.024
Mof_C 	C 	0.89246	0.1346	0.84229	-0.026
Mof_C 	C 	0.69069	0.51742	0.68948	0.366
Mof_C 	C 	0.46458	0.27919	0.78774	-0.133
Mof_C 	C 	0.49211	0.19955	0.16756	-0.129
Mof_C 	C 	0.23493	0.99864	0.35099	0.072
Mof_C 	C 	0.09231	0.00031	0.1694	-0.002
Mof_C 	C 	0.73349	0.1837	0.24846	0.387
Mof_C 	C 	0.99864	0.76371	0.51766	0.073
Mof_C 	C 	0.69562	0.82434	0.06706	0.057
Mof_C 	C 	0.00698	0.29432	0.97512	-0.14
Mof_C 	C 	0.62018	0.79971	0.71531	-0.13
Mof_C 	C 	0.66135	0.75289	0.33472	-0.125
Mof_C 	C 	0.76507	0.00136	0.85099	0.072
Mof_C 	C 	0.53928	0.77001	0.7122	0.064
Mof_C 	C 	0.74887	0.63988	0.4622	-0.125
Mof_C 	C 	0.10899	0.74887	0.29553	-0.125
Mof_C 	C 	0.83854	0.18327	0.42067	-0.13
Mof_C 	C 	0.21125	0.78512	0.91631	0.017
Mof_S 	S 	0.17609	0.01599	0.98775	-0.02
Mof_S 	S 	0.09281	0.99376	0.34761	-0.004
Mof_S 	S 	0.9327	0.93113	0.15611	0.001
Mof_S 	S 	0.90095	0.90719	0.68095	-0.003
Mof_S 	S 	0.90719	0.00624	0.84761	-0.006
Mof_S 	S 	0.81924	0.81596	0.50561	-0.005
Mof_S 	S 	0.00328	0.81924	0.33894	-0.006
Mof_S 	S 	0.93113	0.99843	0.32277	-0.002
Mof_S 	S 	0.98401	0.1601	0.65442	-0.006
Mof_S 	S 	0.18404	0.00328	0.17228	-0.002
Mof_S 	S 	0.09905	0.09281	0.18095	-0.004
Mof_S 	S 	0.81596	0.99672	0.67228	-0.005
Mof_S 	S 	0.99376	0.90095	0.51428	-0.003
Mof_S 	S 	0.00624	0.09905	0.01428	0.003
Mof_S 	S 	0.00157	0.9327	0.98944	-0.008
Mof_S 	S 	0.99843	0.0673	0.48944	-0.002
Mof_S 	S 	0.18076	0.18404	0.00561	0.003
Mof_S 	S 	0.01599	0.8399	0.15442	-0.004
Mof_S 	S 	0.0673	0.06887	0.65611	-0.003
Mof_S 	S 	0.82391	0.98401	0.48775	-0.007
Mof_S 	S 	0.99672	0.18076	0.83894	-0.008
Mof_S 	S 	0.06887	0.00157	0.82277	-0.003
Mof_S 	S 	0.1601	0.17609	0.82108	-0.01
Mof_S 	S 	0.8399	0.82391	0.32108	-0.007
Mof_O 	O 	0.80399	0.41537	0.15962	-0.384
Mof_O 	O 	0.63687	0.46935	0.65262	-0.357
Mof_O 	O 	0.31755	0.81473	0.78426	-0.38
Mof_O 	O 	0.61138	0.19601	0.49295	-0.386
Mof_O 	O 	0.77301	0.53809	0.86618	-0.407
Mof_O 	O 	0.59359	0.32116	0.74382	-0.406
Mof_O 	O 	0.50115	0.23187	0.39316	-0.4
Mof_O 	O 	0.20771	0.60157	0.28441	-0.353
Mof_O 	O 	0.32116	0.72757	0.91049	-0.402
Mof_O 	O 	0.2811	0.65539	0.37067	-0.43
Mof_O 	O 	0.81473	0.49718	0.95093	-0.383
Mof_O 	O 	0.39386	0.79229	0.61775	-0.353
Mof_O 	O 	0.50282	0.31755	0.6176	-0.38
Mof_O 	O 	0.60614	0.20771	0.11775	-0.35
Mof_O 	O 	0.53065	0.16752	0.31928	-0.357
Mof_O 	O 	0.68245	0.18527	0.28426	-0.38
Mof_O 	O 	0.7189	0.34461	0.87067	-0.43
Mof_O 	O 	0.49885	0.76813	0.89316	-0.401
Mof_O 	O 	0.76508	0.22699	0.19951	-0.405
Mof_O 	O 	0.36313	0.53065	0.15262	-0.356
Mof_O 	O 	0.40641	0.67884	0.24382	-0.406
Mof_O 	O 	0.22699	0.46191	0.36618	-0.405
Mof_O 	O 	0.19601	0.58463	0.65962	-0.386
Mof_O 	O 	0.34461	0.62571	0.03734	-0.405
Mof_O 	O 	0.73072	0.49885	0.7265	-0.4
Mof_O 	O 	0.27243	0.59359	0.57716	-0.406
Mof_O 	O 	0.65539	0.37429	0.53734	-0.43
Mof_O 	O 	0.46191	0.23492	0.53285	-0.405
Mof_O 	O 	0.39843	0.60614	0.95108	-0.344
Mof_O 	O 	0.37429	0.7189	0.70401	-0.43
Mof_O 	O 	0.76813	0.26928	0.05983	-0.401
Mof_O 	O 	0.60157	0.39386	0.45108	-0.353
Mof_O 	O 	0.16752	0.63687	0.48595	-0.357
Mof_O 	O 	0.49718	0.68245	0.1176	-0.377
Mof_O 	O 	0.26928	0.50115	0.2265	-0.4
Mof_O 	O 	0.62571	0.2811	0.20401	-0.43
Mof_O 	O 	0.41537	0.61138	0.32628	-0.386
Mof_O 	O 	0.83248	0.36313	0.98595	-0.371
Mof_O 	O 	0.67884	0.27243	0.41049	-0.406
Mof_O 	O 	0.23187	0.73072	0.55983	-0.4
Mof_O 	O 	0.72757	0.40641	0.07716	-0.398
Mof_O 	O 	0.46935	0.83248	0.81928	-0.357
Mof_O 	O 	0.53809	0.76508	0.03285	-0.394
Mof_O 	O 	0.58463	0.38862	0.82628	-0.387
Mof_O 	O 	0.38862	0.80399	0.99295	-0.387
Mof_O 	O 	0.23492	0.77301	0.69951	-0.405
Mof_O 	O 	0.79229	0.39843	0.78441	-0.353
Mof_O 	O 	0.18527	0.50282	0.45093	-0.38
_end
