data_functionalizedCrystal
_audit_creation_method	'EQeq! by Chris Wilmer'
_symmetry_space_group_name_H-M	'P1'
_symmetry_Int_Tables_number	1
_symmetry_cell_setting	triclinic
loop_
_symmetry_equiv_pos_as_xyz
  x,y,z
_cell_length_a	13.492
_cell_length_b	14.377
_cell_length_c	16.191
_cell_angle_alpha	90
_cell_angle_beta	90
_cell_angle_gamma	90
loop_
_atom_site_label
_atom_site_type_symbol
_atom_site_fract_x
_atom_site_fract_y
_atom_site_fract_z
_atom_site_charge
Mof_Cu	Cu	0.7006	0.20674	0.66398	0.907
Mof_Cu	Cu	0.92989	0.04879	0.41501	0.905
Mof_Cu	Cu	0.07011	0.54879	0.08499	0.905
Mof_Cu	Cu	0.42989	0.45121	0.58499	0.905
Mof_Cu	Cu	0.57011	0.95121	0.91501	0.905
Mof_Cu	Cu	0.7994	0.79326	0.16398	0.906
Mof_Cu	Cu	0.2994	0.70674	0.83602	0.906
Mof_Cu	Cu	0.2006	0.29326	0.33602	0.906
Mof_H 	H 	0.9663	0.7661	0.4406	0.228
Mof_H 	H 	0.4367	0.3165	0.8277	0.143
Mof_H 	H 	0.7259	0.1349	0.8385	0.139
Mof_H 	H 	0.573	0.6955	0.5371	0.215
Mof_H 	H 	0.4954	0.1401	0.9004	0.217
Mof_H 	H 	0.9367	0.1835	0.1723	0.142
Mof_H 	H 	0.8382	0.1454	0.2134	0.136
Mof_H 	H 	0.5833	0.0861	0.4254	0.136
Mof_H 	H 	0.0662	0.4251	0.4783	0.144
Mof_H 	H 	0.3844	0.2121	0.3594	0.214
Mof_H 	H 	0.2102	0.6005	0.5302	0.223
Mof_H 	H 	0.5852	0.0075	0.251	0.232
Mof_H 	H 	0.2259	0.3651	0.1615	0.139
Mof_H 	H 	0.0514	0.2038	0.9037	-0.01
Mof_H 	H 	0.9444	0.354	0.7008	0.222
Mof_H 	H 	0.8535	0.1848	0.0036	0.205
Mof_H 	H 	0.8764	0.0458	0.595	0.142
Mof_H 	H 	0.8549	0.7603	0.947	0.026
Mof_H 	H 	0.5514	0.2962	0.0963	-0.01
Mof_H 	H 	0.1934	0.4572	0.7706	0.241
Mof_H 	H 	0.3873	0.6139	0.2381	0.227
Mof_H 	H 	0.4444	0.146	0.2992	0.223
Mof_H 	H 	0.3549	0.7397	0.053	0.026
Mof_H 	H 	0.9979	0.8528	0.9707	0.146
Mof_H 	H 	0.2741	0.6349	0.6615	0.139
Mof_H 	H 	0.4486	0.7962	0.4037	-0.01
Mof_H 	H 	0.7898	0.1005	0.9698	0.223
Mof_H 	H 	0.0633	0.6835	0.3277	0.142
Mof_H 	H 	0.1465	0.6848	0.4964	0.205
Mof_H 	H 	0.4926	0.24	0.3305	0.235
Mof_H 	H 	0.9148	0.9925	0.751	0.232
Mof_H 	H 	0.8844	0.2879	0.6406	0.214
Mof_H 	H 	0.6934	0.0428	0.2294	0.241
Mof_H 	H 	0.3764	0.4542	0.405	0.143
Mof_H 	H 	0.4067	0.4076	0.026	0.209
Mof_H 	H 	0.0021	0.3528	0.5293	0.146
Mof_H 	H 	0.6189	0.9029	0.6331	0.136
Mof_H 	H 	0.3382	0.3546	0.7866	0.137
Mof_H 	H 	0.5074	0.74	0.1695	0.235
Mof_H 	H 	0.9783	0.5451	0.2908	0.03
Mof_H 	H 	0.0716	0.2076	0.8324	-0.014
Mof_H 	H 	0.6451	0.2397	0.447	0.026
Mof_H 	H 	0.4284	0.7924	0.3324	-0.014
Mof_H 	H 	0.4783	0.9549	0.7092	0.03
Mof_H 	H 	0.5021	0.1472	0.4707	0.146
Mof_H 	H 	0.3535	0.3152	0.9964	0.205
Mof_H 	H 	0.9486	0.7038	0.5963	-0.01
Mof_H 	H 	0.1236	0.5458	0.905	0.143
Mof_H 	H 	0.0852	0.4925	0.749	0.232
Mof_H 	H 	0.927	0.3045	0.0371	0.216
Mof_H 	H 	0.427	0.1955	0.9629	0.215
Mof_H 	H 	0.073	0.8045	0.4629	0.216
Mof_H 	H 	0.0833	0.4139	0.5746	0.136
Mof_H 	H 	0.0556	0.854	0.7992	0.222
Mof_H 	H 	0.1127	0.3861	0.7381	0.227
Mof_H 	H 	0.1189	0.5971	0.3669	0.136
Mof_H 	H 	0.6465	0.8152	0.5036	0.205
Mof_H 	H 	0.7741	0.8651	0.3385	0.139
Mof_H 	H 	0.4167	0.5861	0.0746	0.136
Mof_H 	H 	0.7102	0.8995	0.4698	0.223
Mof_H 	H 	0.0217	0.0451	0.2092	0.031
Mof_H 	H 	0.6156	0.7121	0.1406	0.214
Mof_H 	H 	0.6618	0.8546	0.7134	0.136
Mof_H 	H 	0.4148	0.5075	0.249	0.232
Mof_H 	H 	0.0046	0.8599	0.4004	0.217
Mof_H 	H 	0.9926	0.26	0.6695	0.234
Mof_H 	H 	0.9954	0.3599	0.0996	0.217
Mof_H 	H 	0.5933	0.9076	0.474	0.209
Mof_H 	H 	0.4979	0.6472	0.0293	0.145
Mof_H 	H 	0.1618	0.6454	0.2866	0.136
Mof_H 	H 	0.5337	0.2339	0.9406	0.228
Mof_H 	H 	0.8873	0.8861	0.7619	0.227
Mof_H 	H 	0.1156	0.7879	0.8594	0.214
Mof_H 	H 	0.4338	0.5749	0.9783	0.144
Mof_H 	H 	0.9167	0.9139	0.9254	0.137
Mof_H 	H 	0.5556	0.646	0.2008	0.223
Mof_H 	H 	0.6236	0.9542	0.095	0.143
Mof_H 	H 	0.5716	0.2924	0.1676	-0.014
Mof_H 	H 	0.5662	0.0749	0.5217	0.145
Mof_H 	H 	0.5046	0.6401	0.5996	0.217
Mof_H 	H 	0.8066	0.9572	0.7294	0.241
Mof_H 	H 	0.3066	0.5428	0.2706	0.241
Mof_H 	H 	0.6127	0.1139	0.2619	0.227
Mof_H 	H 	0.0933	0.5924	0.526	0.209
Mof_H 	H 	0.8811	0.0971	0.1331	0.135
Mof_H 	H 	0.0337	0.2661	0.0594	0.229
Mof_H 	H 	0.9338	0.9251	0.0217	0.146
Mof_H 	H 	0.9284	0.7076	0.6676	-0.014
Mof_H 	H 	0.3811	0.4029	0.8669	0.136
Mof_H 	H 	0.5633	0.8165	0.6723	0.142
Mof_H 	H 	0.1451	0.2603	0.553	0.026
Mof_H 	H 	0.4663	0.7339	0.5594	0.228
Mof_H 	H 	0.5217	0.4549	0.7908	0.03
Mof_H 	H 	0.9067	0.0924	0.974	0.209
Mof_H 	H 	0.0074	0.76	0.8305	0.234
Mof_H 	H 	0.2898	0.3995	0.0302	0.223
Mof_C 	C 	0.9475	0.665	0.171	0.113
Mof_C 	C 	0.9491	0.8469	0.6023	-0.248
Mof_C 	C 	0.5917	0.0772	0.1418	0.296
Mof_C 	C 	0.9662	0.7503	0.6357	0.098
Mof_C 	C 	0.6408	0.8267	0.3774	0.271
Mof_C 	C 	0.1443	0.3063	0.5075	0.017
Mof_C 	C 	0.4662	0.7497	0.3643	0.098
Mof_C 	C 	0.6443	0.1937	0.4925	0.017
Mof_C 	C 	0.9624	0.8753	0.5198	0.28
Mof_C 	C 	0.6235	0.0587	0.2286	-0.731
Mof_C 	C 	0.4299	0.276	0.1639	-0.243
Mof_C 	C 	0.1006	0.4749	0.244	0.293
Mof_C 	C 	0.8516	0.1343	0.964	-0.677
Mof_C 	C 	0.067	0.3814	0.5239	-0.423
Mof_C 	C 	0.5688	0.7102	0.186	-0.729
Mof_C 	C 	0.4598	0.4379	0.7616	0.008
Mof_C 	C 	0.8893	0.2406	0.7576	0.287
Mof_C 	C 	0.4083	0.5772	0.3582	0.296
Mof_C 	C 	0.1017	0.6281	0.3157	-0.41
Mof_C 	C 	0.0917	0.4228	0.8582	0.296
Mof_C 	C 	0.8983	0.1281	0.1843	-0.408
Mof_C 	C 	0.1484	0.6343	0.536	-0.677
Mof_C 	C 	0.6017	0.8719	0.6843	-0.41
Mof_C 	C 	0.4475	0.835	0.829	0.113
Mof_C 	C 	0.6107	0.7594	0.2576	0.287
Mof_C 	C 	0.3893	0.2594	0.2424	0.287
Mof_C 	C 	0.933	0.8814	0.9761	-0.425
Mof_C 	C 	0.5509	0.1531	0.1023	-0.248
Mof_C 	C 	0.4408	0.8069	0.9186	0.119
Mof_C 	C 	0.9299	0.224	0.8361	-0.243
Mof_C 	C 	0.5053	0.6782	0.5502	-0.711
Mof_C 	C 	0.3557	0.6937	0.0075	0.017
Mof_C 	C 	0.5525	0.335	0.671	0.113
Mof_C 	C 	0.0701	0.724	0.6639	-0.243
Mof_C 	C 	0.1235	0.4413	0.7714	-0.732
Mof_C 	C 	0.5376	0.1247	0.0198	0.279
Mof_C 	C 	0.7547	0.8518	0.0016	0.288
Mof_C 	C 	0.6484	0.8657	0.464	-0.678
Mof_C 	C 	0.5592	0.3069	0.5814	0.119
Mof_C 	C 	0.9598	0.0621	0.2384	0.006
Mof_C 	C 	0.5701	0.776	0.3361	-0.242
Mof_C 	C 	0.9083	0.9228	0.6418	0.296
Mof_C 	C 	0.4491	0.6531	0.3977	-0.248
Mof_C 	C 	0.0525	0.165	0.329	0.114
Mof_C 	C 	0.3983	0.3719	0.8157	-0.41
Mof_C 	C 	0.2453	0.3518	0.4984	0.287
Mof_C 	C 	0.0688	0.7898	0.814	-0.729
Mof_C 	C 	0.7453	0.1482	0.5016	0.286
Mof_C 	C 	0.9408	0.6931	0.0814	0.119
Mof_C 	C 	0.2547	0.6482	0.9984	0.286
Mof_C 	C 	0.8592	0.1733	0.8774	0.271
Mof_C 	C 	0.3516	0.3657	0.036	-0.678
Mof_C 	C 	0.6006	0.0251	0.756	0.293
Mof_C 	C 	0.3994	0.5251	0.744	0.293
Mof_C 	C 	0.0376	0.3753	0.9802	0.281
Mof_C 	C 	0.1107	0.7406	0.7424	0.287
Mof_C 	C 	0.1408	0.6733	0.6226	0.271
Mof_C 	C 	0.3765	0.5587	0.2714	-0.731
Mof_C 	C 	0.0509	0.3469	0.8977	-0.249
Mof_C 	C 	0.3592	0.3267	0.1226	0.271
Mof_C 	C 	0.5402	0.9379	0.7384	0.008
Mof_C 	C 	0.0053	0.8218	0.4498	-0.713
Mof_C 	C 	0.4947	0.1782	0.9498	-0.711
Mof_C 	C 	0.0592	0.1931	0.4186	0.119
Mof_C 	C 	0.9312	0.2898	0.686	-0.729
Mof_C 	C 	0.0338	0.2503	0.8643	0.099
Mof_C 	C 	0.0402	0.5621	0.2616	0.008
Mof_C 	C 	0.5338	0.2497	0.1357	0.098
Mof_C 	C 	0.4624	0.6247	0.4802	0.28
Mof_C 	C 	0.567	0.1186	0.4761	-0.423
Mof_C 	C 	0.433	0.6186	0.0239	-0.422
Mof_C 	C 	0.8557	0.8063	0.9925	0.016
Mof_C 	C 	0.8765	0.9413	0.7286	-0.731
Mof_C 	C 	0.4312	0.2102	0.314	-0.729
Mof_C 	C 	0.9947	0.3218	0.0502	-0.715
Mof_C 	C 	0.8994	0.9749	0.256	0.294
Mof_N 	N 	0.3998	0.5094	0.4152	-0.219
Mof_N 	N 	0.4837	0.3965	0.6824	-0.236
Mof_N 	N 	0.8782	0.7608	0.0711	-0.235
Mof_N 	N 	0.2192	0.6631	0.6744	-0.212
Mof_N 	N 	0.7192	0.8369	0.3256	-0.212
Mof_N 	N 	0.1002	0.4906	0.9152	-0.219
Mof_N 	N 	0.9319	0.9627	0.5106	-0.223
Mof_N 	N 	0.6218	0.2392	0.5711	-0.236
Mof_N 	N 	0.7808	0.1631	0.8256	-0.212
Mof_N 	N 	0.0681	0.4627	0.9894	-0.224
Mof_N 	N 	0.701	0.7977	0.2523	-0.226
Mof_N 	N 	0.5163	0.8965	0.8176	-0.236
Mof_N 	N 	0.9837	0.1035	0.3176	-0.236
Mof_N 	N 	0.2808	0.3369	0.1744	-0.212
Mof_N 	N 	0.3782	0.7392	0.9289	-0.236
Mof_N 	N 	0.799	0.2023	0.7523	-0.226
Mof_N 	N 	0.299	0.2977	0.2477	-0.226
Mof_N 	N 	0.8998	0.9906	0.5848	-0.219
Mof_N 	N 	0.6002	0.0094	0.0848	-0.219
Mof_N 	N 	0.5681	0.0373	0.0106	-0.223
Mof_N 	N 	0.1218	0.2608	0.4289	-0.235
Mof_N 	N 	0.0163	0.6035	0.1824	-0.236
Mof_N 	N 	0.201	0.7023	0.7477	-0.226
Mof_N 	N 	0.4319	0.5373	0.4894	-0.223
Mof_O 	O 	0.007	0.1511	0.4717	-0.33
Mof_O 	O 	0.3728	0.5728	0.8033	-0.362
Mof_O 	O 	0.8782	0.9574	0.331	-0.403
Mof_O 	O 	0.1114	0.2017	0.2763	-0.332
Mof_O 	O 	0.2846	0.351	0.4252	-0.39
Mof_O 	O 	0.7817	0.11	0.4412	-0.36
Mof_O 	O 	0.493	0.8489	0.9717	-0.331
Mof_O 	O 	0.6272	0.0728	0.6967	-0.362
Mof_O 	O 	0.2817	0.39	0.5588	-0.36
Mof_O 	O 	0.2154	0.649	0.9252	-0.39
Mof_O 	O 	0.507	0.3489	0.5283	-0.331
Mof_O 	O 	0.7154	0.851	0.0748	-0.39
Mof_O 	O 	0.7846	0.149	0.5748	-0.39
Mof_O 	O 	0.1218	0.4574	0.169	-0.403
Mof_O 	O 	0.3782	0.5426	0.669	-0.403
Mof_O 	O 	0.8728	0.9272	0.1967	-0.362
Mof_O 	O 	0.6218	0.0426	0.831	-0.403
Mof_O 	O 	0.2183	0.61	0.0588	-0.36
Mof_O 	O 	0.1272	0.4272	0.3033	-0.362
Mof_O 	O 	0.6114	0.2983	0.7237	-0.332
Mof_O 	O 	0.8886	0.7017	0.2237	-0.332
Mof_O 	O 	0.7183	0.89	0.9412	-0.361
Mof_O 	O 	0.3886	0.7983	0.7763	-0.332
Mof_O 	O 	0.993	0.6511	0.0283	-0.331
_end
