data_functionalizedCrystal
_audit_creation_method	'EQeq! by Chris Wilmer'
_symmetry_space_group_name_H-M	'P1'
_symmetry_Int_Tables_number	1
_symmetry_cell_setting	triclinic
loop_
_symmetry_equiv_pos_as_xyz
  x,y,z
_cell_length_a	11.328
_cell_length_b	13.624
_cell_length_c	24.951
_cell_angle_alpha	90
_cell_angle_beta	90
_cell_angle_gamma	114.073
loop_
_atom_site_label
_atom_site_type_symbol
_atom_site_fract_x
_atom_site_fract_y
_atom_site_fract_z
_atom_site_charge
Mof_Cd	Cd	0.35246	0.17473	0.84023	0.44
Mof_Cd	Cd	0.85246	0.67473	0.65977	0.44
Mof_Cd	Cd	0.64754	0.82527	0.15977	0.44
Mof_Cd	Cd	0.14754	0.32527	0.34023	0.44
Mof_H 	H 	0.1825	0.7915	0.6973	0.045
Mof_H 	H 	0.4387	0.6147	0.8482	0.041
Mof_H 	H 	0.3663	0.8767	0.8452	0.076
Mof_H 	H 	0.396	0.4325	0.0601	0.14
Mof_H 	H 	0.0482	0.1584	0.2296	0.055
Mof_H 	H 	0.1337	0.6233	0.3452	0.075
Mof_H 	H 	0.9908	0.936	0.6256	0.004
Mof_H 	H 	0.89	0.4194	0.2033	0.047
Mof_H 	H 	0.6617	0.0253	0.324	0.04
Mof_H 	H 	0.8949	0.0421	0.0881	-0
Mof_H 	H 	0.3752	0.167	0.6757	0.164
Mof_H 	H 	0.8303	0.2125	0.6198	0.041
Mof_H 	H 	0.1697	0.7875	0.3802	0.041
Mof_H 	H 	0.8663	0.3767	0.6548	0.075
Mof_H 	H 	0.806	0.8272	0.0409	0.005
Mof_H 	H 	0.6051	0.4579	0.5881	-0
Mof_H 	H 	0.0766	0.175	0.7225	0.081
Mof_H 	H 	0.5325	0.3129	0.0313	0.028
Mof_H 	H 	0.7001	0.9724	0.6647	0.048
Mof_H 	H 	0.5625	0.2436	0.9448	0.042
Mof_H 	H 	0.4375	0.7564	0.0552	0.042
Mof_H 	H 	0.4908	0.436	0.8744	0.004
Mof_H 	H 	0.6248	0.833	0.3243	0.164
Mof_H 	H 	0.5482	0.6584	0.2704	0.054
Mof_H 	H 	0.1345	0.1247	0.063	0.14
Mof_H 	H 	0.3949	0.5421	0.4119	-0
Mof_H 	H 	0.0625	0.7436	0.5552	0.042
Mof_H 	H 	0.2001	0.4724	0.8353	0.048
Mof_H 	H 	0.7999	0.5276	0.1647	0.048
Mof_H 	H 	0.6429	0.5094	0.7421	0.046
Mof_H 	H 	0.9234	0.825	0.2775	0.081
Mof_H 	H 	0.11	0.5806	0.7967	0.047
Mof_H 	H 	0.194	0.1728	0.9591	0.005
Mof_H 	H 	0.104	0.0675	0.5601	0.139
Mof_H 	H 	0.306	0.3272	0.4591	0.004
Mof_H 	H 	0.6345	0.6247	0.437	0.14
Mof_H 	H 	0.604	0.5675	0.9399	0.139
Mof_H 	H 	0.39	0.9194	0.2967	0.047
Mof_H 	H 	0.896	0.9325	0.4399	0.139
Mof_H 	H 	0.0092	0.064	0.3744	0.004
Mof_H 	H 	0.9375	0.2564	0.4448	0.042
Mof_H 	H 	0.3303	0.7125	0.8802	0.041
Mof_H 	H 	0.4675	0.6871	0.9687	0.028
Mof_H 	H 	0.1051	0.9579	0.9119	-0
Mof_H 	H 	0.5613	0.3853	0.1518	0.04
Mof_H 	H 	0.1429	0.0094	0.7579	0.046
Mof_H 	H 	0.4234	0.325	0.2225	0.081
Mof_H 	H 	0.1617	0.5253	0.176	0.04
Mof_H 	H 	0.3571	0.4906	0.2579	0.046
Mof_H 	H 	0.5766	0.675	0.7775	0.081
Mof_H 	H 	0.0325	0.8129	0.4687	0.028
Mof_H 	H 	0.1248	0.333	0.1757	0.164
Mof_H 	H 	0.3383	0.9747	0.676	0.04
Mof_H 	H 	0.4518	0.3416	0.7296	0.054
Mof_H 	H 	0.3655	0.3753	0.563	0.14
Mof_H 	H 	0.8175	0.2085	0.3027	0.044
Mof_H 	H 	0.9675	0.1871	0.5313	0.028
Mof_H 	H 	0.3175	0.7085	0.1973	0.044
Mof_H 	H 	0.6697	0.2875	0.1198	0.041
Mof_H 	H 	0.8752	0.667	0.8243	0.164
Mof_H 	H 	0.0613	0.8853	0.3482	0.041
Mof_H 	H 	0.694	0.6728	0.5409	0.004
Mof_H 	H 	0.8571	0.9906	0.2421	0.046
Mof_H 	H 	0.5092	0.564	0.1256	0.004
Mof_H 	H 	0.9518	0.8416	0.7704	0.055
Mof_H 	H 	0.6337	0.1233	0.1548	0.075
Mof_H 	H 	0.9387	0.1147	0.6518	0.041
Mof_H 	H 	0.6825	0.2915	0.8027	0.044
Mof_H 	H 	0.8383	0.4747	0.824	0.04
Mof_H 	H 	0.8655	0.8753	0.937	0.14
Mof_H 	H 	0.61	0.0806	0.7033	0.047
Mof_H 	H 	0.2999	0.0276	0.3353	0.048
Mof_C 	C 	0.8254	0.8783	0.42387	-0.291
Mof_C 	C 	0.6111	0.4773	0.7092	0.012
Mof_C 	C 	0.9683	0.7763	0.4936	0.015
Mof_C 	C 	0.7751	0.7747	0.44461	0.235
Mof_C 	C 	0.2249	0.2253	0.55539	0.235
Mof_C 	C 	0.2912	0.2069	0.3072	0.3
Mof_C 	C 	0.9091	0.3372	0.6691	-0.074
Mof_C 	C 	0.1119	0.2177	0.12253	0.241
Mof_C 	C 	0.9796	0.5179	0.26415	-0.078
Mof_C 	C 	0.1681	0.1935	0.07762	-0.287
Mof_C 	C 	0.8367	0.1561	0.3198	0.004
Mof_C 	C 	0.1373	0.3537	0.7813	-0.075
Mof_C 	C 	0.9086	0.05	0.12489	0.105
Mof_C 	C 	0.1116	0.7604	0.352	-0.025
Mof_C 	C 	0.005	0.8846	0.7972	0.006
Mof_C 	C 	0.2497	0.5549	0.1683	0.013
Mof_C 	C 	0.348	0.0502	0.304	-0.019
Mof_C 	C 	0.0204	0.4821	0.73585	-0.078
Mof_C 	C 	0.6618	0.8187	0.35501	-0.295
Mof_C 	C 	0.3884	0.7396	0.852	-0.026
Mof_C 	C 	0.7912	0.7069	0.1928	0.3
Mof_C 	C 	0.8627	0.6463	0.2187	-0.075
Mof_C 	C 	0.495	0.6154	0.2972	0.007
Mof_C 	C 	0.4683	0.2763	0.0064	0.015
Mof_C 	C 	0.5162	0.7617	0.0414	0.003
Mof_C 	C 	0.9428	0.6847	0.2652	0.044
Mof_C 	C 	0.2751	0.2747	0.05539	0.235
Mof_C 	C 	0.4838	0.2383	0.9586	0.003
Mof_C 	C 	0.2316	0.1008	0.62108	0.239
Mof_C 	C 	0.0344	0.2164	0.7099	-0.077
Mof_C 	C 	0.9521	0.1802	0.6676	-0.021
Mof_C 	C 	0.9702	0.5594	0.71116	0.303
Mof_C 	C 	0.5204	0.9821	0.76415	-0.077
Mof_C 	C 	0.1746	0.1217	0.57613	-0.291
Mof_C 	C 	0.7177	0.801	0.03404	0.11
Mof_C 	C 	0.7088	0.7931	0.6928	0.3
Mof_C 	C 	0.1111	0.9773	0.7908	0.011
Mof_C 	C 	0.6681	0.6935	0.42238	-0.287
Mof_C 	C 	0.4702	0.0594	0.78884	0.303
Mof_C 	C 	0.8884	0.2396	0.648	-0.025
Mof_C 	C 	0.0298	0.4406	0.28884	0.303
Mof_C 	C 	0.7503	0.4451	0.8317	0.013
Mof_C 	C 	0.5479	0.3198	0.1676	-0.02
Mof_C 	C 	0.0909	0.6628	0.3309	-0.074
Mof_C 	C 	0.505	0.3846	0.7028	0.007
Mof_C 	C 	0.8889	0.0227	0.2092	0.011
Mof_C 	C 	0.3627	0.1463	0.2813	-0.075
Mof_C 	C 	0.152	0.4498	0.804	-0.02
Mof_C 	C 	0.5575	0.4224	0.8592	0.102
Mof_C 	C 	0.6116	0.2604	0.148	-0.026
Mof_C 	C 	0.3254	0.3783	0.07613	-0.29
Mof_C 	C 	0.9656	0.7836	0.2901	-0.077
Mof_C 	C 	0.5298	0.9406	0.21116	0.303
Mof_C 	C 	0.2823	0.199	0.96596	0.11
Mof_C 	C 	0.4521	0.6802	0.8324	-0.02
Mof_C 	C 	0.504	0.1202	0.21305	0.04
Mof_C 	C 	0.4656	0.2836	0.2099	-0.079
Mof_C 	C 	0.2503	0.9451	0.6683	0.013
Mof_C 	C 	0.6633	0.3439	0.8198	0.004
Mof_C 	C 	0.3367	0.6561	0.1802	0.004
Mof_C 	C 	0.2177	0.301	0.46596	0.11
Mof_C 	C 	0.596	0.0147	0.7189	-0.021
Mof_C 	C 	0.4425	0.5776	0.1408	0.102
Mof_C 	C 	0.0575	0.9224	0.6408	0.101
Mof_C 	C 	0.4796	0.0179	0.23585	-0.077
Mof_C 	C 	0.7497	0.0549	0.3317	0.013
Mof_C 	C 	0.3382	0.1813	0.64499	-0.295
Mof_C 	C 	0.5909	0.1628	0.1691	-0.073
Mof_C 	C 	0.6746	0.6217	0.92387	-0.29
Mof_C 	C 	0.0479	0.8198	0.3324	-0.021
Mof_C 	C 	0.5344	0.7164	0.7901	-0.079
Mof_C 	C 	0.5572	0.8153	0.7652	0.044
Mof_C 	C 	0.004	0.6202	0.28695	0.04
Mof_C 	C 	0.995	0.1154	0.2028	0.006
Mof_C 	C 	0.3889	0.5227	0.2908	0.012
Mof_C 	C 	0.4428	0.1847	0.2348	0.044
Mof_C 	C 	0.0914	0.95	0.87511	0.105
Mof_C 	C 	0.4091	0.8372	0.8309	-0.073
Mof_C 	C 	0.3319	0.3065	0.57762	-0.287
Mof_C 	C 	0.1618	0.3187	0.14499	-0.295
Mof_C 	C 	0.0317	0.2237	0.5064	0.015
Mof_C 	C 	0.7249	0.7253	0.94461	0.235
Mof_C 	C 	0.3881	0.2823	0.62253	0.241
Mof_C 	C 	0.8319	0.8065	0.92238	-0.287
Mof_C 	C 	0.4086	0.55	0.37511	0.106
Mof_C 	C 	0.496	0.8798	0.78695	0.04
Mof_C 	C 	0.404	0.9853	0.2811	-0.021
Mof_C 	C 	0.996	0.3798	0.71305	0.04
Mof_C 	C 	0.1633	0.8439	0.6802	0.004
Mof_C 	C 	0.6373	0.8537	0.7187	-0.075
Mof_C 	C 	0.7316	0.6008	0.87892	0.238
Mof_C 	C 	0.8382	0.6813	0.85501	-0.295
Mof_C 	C 	0.0162	0.2617	0.4586	0.003
Mof_C 	C 	0.7823	0.699	0.53404	0.11
Mof_C 	C 	0.7684	0.8992	0.37892	0.239
Mof_C 	C 	0.2088	0.2931	0.8072	0.3
Mof_C 	C 	0.6119	0.7177	0.37747	0.241
Mof_C 	C 	0.0572	0.3153	0.7348	0.044
Mof_C 	C 	0.5317	0.7237	0.9936	0.015
Mof_C 	C 	0.8881	0.7823	0.87747	0.241
Mof_C 	C 	0.652	0.9498	0.696	-0.019
Mof_C 	C 	0.9838	0.7383	0.5414	0.003
Mof_C 	C 	0.848	0.5502	0.196	-0.02
Mof_C 	C 	0.5914	0.45	0.62489	0.106
Mof_C 	C 	0.2684	0.3992	0.12108	0.238
Mof_C 	C 	0.9425	0.0776	0.3592	0.101
Mof_C 	C 	0.904	0.4853	0.2189	-0.02
Mof_C 	C 	0.096	0.5147	0.7811	-0.02
Mof_N 	N 	0.1327	0.3095	0.43276	-0.14
Mof_N 	N 	0.1823	0.9947	0.6427	-0.161
Mof_N 	N 	0.6823	0.4947	0.8573	-0.161
Mof_N 	N 	0.8351	0.9828	0.1608	-0.139
Mof_N 	N 	0.8177	0.0053	0.3573	-0.161
Mof_N 	N 	0.8673	0.6905	0.56724	-0.14
Mof_N 	N 	0.8391	0.7504	0.48877	-0.162
Mof_N 	N 	0.0424	0.8311	0.66298	-0.138
Mof_N 	N 	0.4576	0.6689	0.16298	-0.138
Mof_N 	N 	0.1649	0.0172	0.8392	-0.139
Mof_N 	N 	0.3391	0.2504	0.01123	-0.162
Mof_N 	N 	0.3351	0.4828	0.3392	-0.14
Mof_N 	N 	0.6609	0.7496	0.98877	-0.162
Mof_N 	N 	0.1609	0.2496	0.51123	-0.162
Mof_N 	N 	0.3177	0.5053	0.1427	-0.161
Mof_N 	N 	0.5424	0.3311	0.83702	-0.138
Mof_N 	N 	0.9576	0.1689	0.33702	-0.138
Mof_N 	N 	0.4922	0.3671	0.64856	-0.158
Mof_N 	N 	0.0078	0.1329	0.14856	-0.158
Mof_N 	N 	0.6649	0.5172	0.6608	-0.14
Mof_N 	N 	0.9922	0.8671	0.85144	-0.158
Mof_N 	N 	0.5078	0.6329	0.35144	-0.158
Mof_N 	N 	0.6327	0.8095	0.06724	-0.14
Mof_N 	N 	0.3673	0.1905	0.93276	-0.14
Mof_O 	O 	0.7541	0.7423	0.72241	-0.276
Mof_O 	O 	0.2459	0.2577	0.27759	-0.276
Mof_O 	O 	0.7459	0.7577	0.22241	-0.276
Mof_O 	O 	0.2541	0.2423	0.77759	-0.276
Mof_O 	O 	0.9751	0.5698	0.66096	-0.271
Mof_O 	O 	0.7794	0.7035	0.14313	-0.264
Mof_O 	O 	0.4751	0.0698	0.83904	-0.271
Mof_O 	O 	0.5249	0.9302	0.16096	-0.271
Mof_O 	O 	0.9275	0.6102	0.74045	-0.279
Mof_O 	O 	0.0249	0.4302	0.33904	-0.271
Mof_O 	O 	0.7206	0.7965	0.64313	-0.264
Mof_O 	O 	0.4275	0.1102	0.75955	-0.279
Mof_O 	O 	0.2794	0.2035	0.35687	-0.264
Mof_O 	O 	0.0725	0.3898	0.25955	-0.279
Mof_O 	O 	0.5725	0.8898	0.24045	-0.279
Mof_O 	O 	0.2206	0.2965	0.85687	-0.264
_end
