data_functionalizedCrystal
_audit_creation_method	'EQeq! by Chris Wilmer'
_symmetry_space_group_name_H-M	'P1'
_symmetry_Int_Tables_number	1
_symmetry_cell_setting	triclinic
loop_
_symmetry_equiv_pos_as_xyz
  x,y,z
_cell_length_a	6.6103
_cell_length_b	17.8984
_cell_length_c	11.0989
_cell_angle_alpha	90
_cell_angle_beta	91.2461
_cell_angle_gamma	90
loop_
_atom_site_label
_atom_site_type_symbol
_atom_site_fract_x
_atom_site_fract_y
_atom_site_fract_z
_atom_site_charge
Mof_Al	Al	0.2297	0.22389	0.2543	4.501
Mof_O 	O 	0.9874	0.221	0.1551	-1.735
Mof_O 	O 	0.824	0.6492	0.6207	-1.06
Mof_O 	O 	0.3645	0.1452	0.1683	-1.237
Mof_O 	O 	0.166	0.3083	0.3557	-1.142
Mof_O 	O 	0.6714	0.7965	0.8585	-1.038
Mof_Al	Al	0.2457	0.72322	0.7543	5.546
Mof_O 	O 	0.4971	0.7324	0.6793	-1.648
Mof_O 	O 	0.3637	0.79573	0.8605	-1.241
Mof_O 	O 	0.8848	0.2985	0.344	-1.396
Mof_O 	O 	0.6815	0.1397	0.1575	-1.409
Mof_O 	O 	0.1818	0.6505	0.6368	-1.302
Mof_C 	C 	0.32103	0.94358	0.95644	0.025
Mof_C 	C 	0.33283	0.00499	0.05082	0.06
Mof_C 	C 	0.70338	0.01674	0.01976	0.101
Mof_C 	C 	0.68886	0.95637	0.92428	-0.006
Mof_C 	C 	0.52012	0.9013	0.95041	-0.18
Mof_C 	C 	0.50545	0.05897	0.02702	-0.303
Mof_C 	C 	0.51601	0.84025	0.85751	0.839
Mof_C 	C 	0.51191	0.12283	0.11526	1.122
Mof_C 	C 	0.84598	0.5103	0.56757	0.043
Mof_C 	C 	0.82168	0.4413	0.489	0.042
Mof_C 	C 	0.16799	0.45824	0.41621	0.055
Mof_C 	C 	0.19568	0.52875	0.49219	0.046
Mof_C 	C 	0.99478	0.56649	0.51694	-0.137
Mof_C 	C 	0.02489	0.4037	0.4757	-0.31
Mof_C 	C 	0.00909	0.63377	0.59867	0.733
Mof_C 	C 	0.01624	0.32925	0.41261	1.033
Mof_Al	Al	0.7703	0.72389	0.7457	4.5
Mof_O 	O 	0.0126	0.721	0.8449	-1.736
Mof_O 	O 	0.176	0.1492	0.3793	-1.062
Mof_O 	O 	0.6355	0.6452	0.8317	-1.238
Mof_O 	O 	0.834	0.8083	0.6443	-1.142
Mof_O 	O 	0.3286	0.2965	0.1415	-1.038
Mof_Al	Al	0.7543	0.22322	0.2457	5.546
Mof_O 	O 	0.5029	0.2324	0.3207	-1.648
Mof_O 	O 	0.6363	0.29573	0.1395	-1.242
Mof_O 	O 	0.1152	0.7985	0.656	-1.395
Mof_O 	O 	0.3185	0.6397	0.8425	-1.409
Mof_O 	O 	0.8182	0.1505	0.3632	-1.302
Mof_C 	C 	0.67897	0.44358	0.04356	0.024
Mof_C 	C 	0.66717	0.50499	0.94918	0.062
Mof_C 	C 	0.29662	0.51674	0.98024	0.1
Mof_C 	C 	0.31114	0.45637	0.07572	-0.005
Mof_C 	C 	0.47988	0.4013	0.04959	-0.18
Mof_C 	C 	0.49455	0.55897	0.97298	-0.303
Mof_C 	C 	0.48399	0.34025	0.14249	0.839
Mof_C 	C 	0.48809	0.62283	0.88474	1.122
Mof_C 	C 	0.15402	0.0103	0.43243	0.041
Mof_C 	C 	0.17832	0.9413	0.511	0.045
Mof_C 	C 	0.83201	0.95824	0.58379	0.054
Mof_C 	C 	0.80432	0.02875	0.50781	0.048
Mof_C 	C 	0.00522	0.06649	0.48306	-0.14
Mof_C 	C 	0.97511	0.9037	0.5243	-0.311
Mof_C 	C 	0.99091	0.13377	0.40133	0.736
Mof_C 	C 	0.98376	0.82925	0.58739	1.032
_end
