data_functionalizedCrystal
_audit_creation_method	'EQeq! by Chris Wilmer'
_symmetry_space_group_name_H-M	'P1'
_symmetry_Int_Tables_number	1
_symmetry_cell_setting	triclinic
loop_
_symmetry_equiv_pos_as_xyz
  x,y,z
_cell_length_a	4.8855
_cell_length_b	24.0866
_cell_length_c	22.2025
_cell_angle_alpha	90
_cell_angle_beta	90
_cell_angle_gamma	90
loop_
_atom_site_label
_atom_site_type_symbol
_atom_site_fract_x
_atom_site_fract_y
_atom_site_fract_z
_atom_site_charge
Mof_Zn	Zn	0.5069	0.37172	0.62704	1.244
Mof_Zn	Zn	0.4931	0.62828	0.12704	1.244
Mof_Zn	Zn	0.4931	0.87172	0.62704	1.243
Mof_Zn	Zn	0.5069	0.12828	0.12704	1.243
Mof_H 	H 	0.4108	0.35	0.8233	0.149
Mof_H 	H 	0.1572	0.3908	0.8115	0.153
Mof_H 	H 	0.698	0.4297	0.8415	0.03
Mof_H 	H 	0.4371	0.4692	0.8326	0.039
Mof_H 	H 	0.6376	0.3425	0.0787	0.023
Mof_H 	H 	0.7987	0.3238	0.0192	0.012
Mof_H 	H 	0.4571	0.2644	0.9919	0.159
Mof_H 	H 	0.2536	0.2894	0.0414	0.166
Mof_H 	H 	0.8625	0.4661	0.0559	0.02
Mof_H 	H 	0.8521	0.5042	0.9967	0.014
Mof_H 	H 	0.2651	0.5122	0.0878	0.174
Mof_H 	H 	0.2607	0.5495	0.0284	0.163
Mof_H 	H 	0.5892	0.65	0.3233	0.149
Mof_H 	H 	0.8428	0.6092	0.3115	0.153
Mof_H 	H 	0.302	0.5703	0.3415	0.03
Mof_H 	H 	0.5629	0.5308	0.3326	0.039
Mof_H 	H 	0.3624	0.6575	0.5787	0.021
Mof_H 	H 	0.2013	0.6762	0.5192	0.01
Mof_H 	H 	0.5429	0.7356	0.4919	0.165
Mof_H 	H 	0.7464	0.7106	0.5414	0.169
Mof_H 	H 	0.1375	0.5339	0.5559	0.023
Mof_H 	H 	0.1479	0.4958	0.4967	0.021
Mof_H 	H 	0.7349	0.4878	0.5878	0.172
Mof_H 	H 	0.7393	0.4505	0.5284	0.161
Mof_H 	H 	0.5892	0.85	0.8233	0.149
Mof_H 	H 	0.8428	0.8908	0.8115	0.153
Mof_H 	H 	0.302	0.9297	0.8415	0.03
Mof_H 	H 	0.5629	0.9692	0.8326	0.039
Mof_H 	H 	0.3624	0.8425	0.0787	0.023
Mof_H 	H 	0.2013	0.8238	0.0192	0.012
Mof_H 	H 	0.5429	0.7644	0.9919	0.16
Mof_H 	H 	0.7464	0.7894	0.0414	0.166
Mof_H 	H 	0.1375	0.9661	0.0559	0.02
Mof_H 	H 	0.1479	0.0042	0.9967	0.014
Mof_H 	H 	0.7349	0.0122	0.0878	0.174
Mof_H 	H 	0.7393	0.0495	0.0284	0.163
Mof_H 	H 	0.4108	0.15	0.3233	0.149
Mof_H 	H 	0.1572	0.1092	0.3115	0.153
Mof_H 	H 	0.698	0.0703	0.3415	0.03
Mof_H 	H 	0.4371	0.0308	0.3326	0.039
Mof_H 	H 	0.6376	0.1575	0.5787	0.021
Mof_H 	H 	0.7987	0.1762	0.5192	0.01
Mof_H 	H 	0.4571	0.2356	0.4919	0.165
Mof_H 	H 	0.2536	0.2106	0.5414	0.169
Mof_H 	H 	0.8625	0.0339	0.5559	0.023
Mof_H 	H 	0.8521	0.9958	0.4967	0.02
Mof_H 	H 	0.2651	0.9878	0.5878	0.172
Mof_H 	H 	0.2607	0.9505	0.5284	0.161
Mof_C 	C 	0.4431	0.39273	0.74285	0.394
Mof_C 	C 	0.3585	0.3872	0.80817	-0.363
Mof_C 	C 	0.4969	0.43205	0.84642	0.101
Mof_C 	C 	0.6148	0.33123	0.0361	0.14
Mof_C 	C 	0.4471	0.27975	0.0333	-0.403
Mof_C 	C 	0.5368	0.23496	0.0777	0.455
Mof_C 	C 	0.9757	0.48661	0.02642	0.14
Mof_C 	C 	0.1432	0.53065	0.0584	-0.428
Mof_C 	C 	0.9754	0.57402	0.09107	0.468
Mof_C 	C 	0.29	0.40688	0.02964	0.293
Mof_C 	C 	0.2202	0.45686	0.93459	0.291
Mof_C 	C 	0.5722	0.38482	0.9421	0.278
Mof_C 	C 	0.5569	0.60727	0.24285	0.394
Mof_C 	C 	0.6415	0.6128	0.30817	-0.363
Mof_C 	C 	0.5031	0.56795	0.34642	0.101
Mof_C 	C 	0.3852	0.66877	0.5361	0.144
Mof_C 	C 	0.5529	0.72025	0.5333	-0.413
Mof_C 	C 	0.4632	0.76504	0.5777	0.458
Mof_C 	C 	0.0243	0.51339	0.52642	0.128
Mof_C 	C 	0.8568	0.46935	0.5584	-0.422
Mof_C 	C 	0.0246	0.42598	0.59107	0.466
Mof_C 	C 	0.71	0.59312	0.52964	0.29
Mof_C 	C 	0.7798	0.54314	0.43459	0.291
Mof_C 	C 	0.4278	0.61518	0.4421	0.281
Mof_C 	C 	0.5569	0.89273	0.74285	0.394
Mof_C 	C 	0.6415	0.8872	0.80817	-0.363
Mof_C 	C 	0.5031	0.93205	0.84642	0.101
Mof_C 	C 	0.3852	0.83123	0.0361	0.14
Mof_C 	C 	0.5529	0.77975	0.0333	-0.404
Mof_C 	C 	0.4632	0.73496	0.0777	0.456
Mof_C 	C 	0.0243	0.98661	0.02642	0.139
Mof_C 	C 	0.8568	0.03065	0.0584	-0.427
Mof_C 	C 	0.0246	0.07402	0.09107	0.467
Mof_C 	C 	0.71	0.90688	0.02964	0.293
Mof_C 	C 	0.7798	0.95686	0.93459	0.291
Mof_C 	C 	0.4278	0.88482	0.9421	0.279
Mof_C 	C 	0.4431	0.10727	0.24285	0.394
Mof_C 	C 	0.3585	0.1128	0.30817	-0.363
Mof_C 	C 	0.4969	0.06795	0.34642	0.101
Mof_C 	C 	0.6148	0.16877	0.5361	0.144
Mof_C 	C 	0.4471	0.22025	0.5333	-0.413
Mof_C 	C 	0.5368	0.26504	0.5777	0.458
Mof_C 	C 	0.9757	0.01339	0.52642	0.129
Mof_C 	C 	0.1432	0.96935	0.5584	-0.423
Mof_C 	C 	0.9754	0.92598	0.59107	0.466
Mof_C 	C 	0.29	0.09312	0.52964	0.29
Mof_C 	C 	0.2202	0.04314	0.43459	0.291
Mof_C 	C 	0.5722	0.11518	0.4421	0.281
Mof_N 	N 	0.4251	0.42472	0.91047	-0.199
Mof_N 	N 	0.486	0.37638	0.00241	-0.207
Mof_N 	N 	0.1663	0.44756	0.99518	-0.207
Mof_N 	N 	0.5749	0.57528	0.41047	-0.199
Mof_N 	N 	0.514	0.62362	0.50241	-0.209
Mof_N 	N 	0.8337	0.55244	0.49518	-0.202
Mof_N 	N 	0.5749	0.92472	0.91047	-0.199
Mof_N 	N 	0.514	0.87638	0.00241	-0.207
Mof_N 	N 	0.8337	0.94756	0.99518	-0.206
Mof_N 	N 	0.4251	0.07528	0.41047	-0.199
Mof_N 	N 	0.486	0.12362	0.50241	-0.209
Mof_N 	N 	0.1663	0.05244	0.49518	-0.202
Mof_O 	O 	0.4083	0.34911	0.70948	-0.464
Mof_O 	O 	0.5303	0.43621	0.72264	-0.334
Mof_O 	O 	0.4354	0.18836	0.07046	-0.483
Mof_O 	O 	0.6981	0.24776	0.11823	-0.343
Mof_O 	O 	0.7189	0.56879	0.0898	-0.469
Mof_O 	O 	0.0959	0.61244	0.11794	-0.502
Mof_O 	O 	0.7577	0.35904	0.91976	-0.258
Mof_O 	O 	0.2256	0.39899	0.0817	-0.251
Mof_O 	O 	0.1011	0.49187	0.90612	-0.244
Mof_O 	O 	0.5917	0.65089	0.20948	-0.464
Mof_O 	O 	0.4697	0.56379	0.22264	-0.334
Mof_O 	O 	0.5646	0.81164	0.57046	-0.485
Mof_O 	O 	0.3019	0.75224	0.61823	-0.344
Mof_O 	O 	0.2811	0.43121	0.5898	-0.469
Mof_O 	O 	0.9041	0.38756	0.61794	-0.502
Mof_O 	O 	0.2423	0.64096	0.41976	-0.258
Mof_O 	O 	0.7744	0.60101	0.5817	-0.25
Mof_O 	O 	0.8989	0.50813	0.40612	-0.243
Mof_O 	O 	0.5917	0.84911	0.70948	-0.464
Mof_O 	O 	0.4697	0.93621	0.72264	-0.334
Mof_O 	O 	0.5646	0.68836	0.07046	-0.483
Mof_O 	O 	0.3019	0.74776	0.11823	-0.343
Mof_O 	O 	0.2811	0.06879	0.0898	-0.469
Mof_O 	O 	0.9041	0.11244	0.11794	-0.502
Mof_O 	O 	0.2423	0.85904	0.91976	-0.258
Mof_O 	O 	0.7744	0.89899	0.0817	-0.251
Mof_O 	O 	0.8989	0.99187	0.90612	-0.244
Mof_O 	O 	0.4083	0.15089	0.20948	-0.464
Mof_O 	O 	0.5303	0.06379	0.22264	-0.334
Mof_O 	O 	0.4354	0.31164	0.57046	-0.485
Mof_O 	O 	0.6981	0.25224	0.61823	-0.344
Mof_O 	O 	0.7189	0.93121	0.5898	-0.469
Mof_O 	O 	0.0959	0.88756	0.61794	-0.502
Mof_O 	O 	0.7577	0.14096	0.41976	-0.258
Mof_O 	O 	0.2256	0.10101	0.5817	-0.25
Mof_O 	O 	0.1011	0.00813	0.40612	-0.243
Mof_H 	H 	0.7463	0.7063	0.67	0.122
Mof_H 	H 	0.7201	0.7002	0.7416	0.108
Mof_H 	H 	0.9909	0.6793	0.708	0.12
Mof_H 	H 	0.1955	0.8039	0.7746	0.099
Mof_H 	H 	0.263	0.7389	0.7733	0.098
Mof_H 	H 	0.9913	0.7607	0.8059	0.092
Mof_H 	H 	0.8302	0.7876	0.7145	0.124
Mof_H 	H 	0.0833	0.7679	0.6841	0.136
Mof_C 	C 	0.8465	0.7076	0.7082	-0.254
Mof_C 	C 	0.1162	0.7666	0.772	-0.218
Mof_N 	N 	0.9662	0.76119	0.7157	-0.179
Mof_H 	H 	0.2537	0.2937	0.17	0.122
Mof_H 	H 	0.2799	0.2998	0.2416	0.108
Mof_H 	H 	0.0091	0.3207	0.208	0.12
Mof_H 	H 	0.8045	0.1961	0.2746	0.099
Mof_H 	H 	0.737	0.2611	0.2733	0.099
Mof_H 	H 	0.0087	0.2393	0.3059	0.093
Mof_H 	H 	0.1698	0.2124	0.2145	0.124
Mof_H 	H 	0.9167	0.2321	0.1841	0.136
Mof_C 	C 	0.1535	0.2924	0.2082	-0.254
Mof_C 	C 	0.8838	0.2334	0.272	-0.219
Mof_N 	N 	0.0338	0.23881	0.2157	-0.179
Mof_H 	H 	0.2537	0.2063	0.67	0.122
Mof_H 	H 	0.2799	0.2002	0.7416	0.108
Mof_H 	H 	0.0091	0.1793	0.708	0.12
Mof_H 	H 	0.8045	0.3039	0.7746	0.099
Mof_H 	H 	0.737	0.2389	0.7733	0.098
Mof_H 	H 	0.0087	0.2607	0.8059	0.092
Mof_H 	H 	0.1698	0.2876	0.7145	0.124
Mof_H 	H 	0.9167	0.2679	0.6841	0.136
Mof_C 	C 	0.1535	0.2076	0.7082	-0.254
Mof_C 	C 	0.8838	0.2666	0.772	-0.219
Mof_N 	N 	0.0338	0.26119	0.7157	-0.179
Mof_H 	H 	0.7463	0.7937	0.17	0.122
Mof_H 	H 	0.7201	0.7998	0.2416	0.108
Mof_H 	H 	0.9909	0.8207	0.208	0.12
Mof_H 	H 	0.1955	0.6961	0.2746	0.099
Mof_H 	H 	0.263	0.7611	0.2733	0.098
Mof_H 	H 	0.9913	0.7393	0.3059	0.093
Mof_H 	H 	0.8302	0.7124	0.2145	0.124
Mof_H 	H 	0.0833	0.7321	0.1841	0.136
Mof_C 	C 	0.8465	0.7924	0.2082	-0.254
Mof_C 	C 	0.1162	0.7334	0.272	-0.218
Mof_N 	N 	0.9662	0.73881	0.2157	-0.179
_end
