data_functionalizedCrystal
_audit_creation_method	'EQeq! by Chris Wilmer'
_symmetry_space_group_name_H-M	'P1'
_symmetry_Int_Tables_number	1
_symmetry_cell_setting	triclinic
loop_
_symmetry_equiv_pos_as_xyz
  x,y,z
_cell_length_a	17.06
_cell_length_b	17.06
_cell_length_c	9.2376
_cell_angle_alpha	90
_cell_angle_beta	90
_cell_angle_gamma	120
loop_
_atom_site_label
_atom_site_type_symbol
_atom_site_fract_x
_atom_site_fract_y
_atom_site_fract_z
_atom_site_charge
Mof_C 	C 	0.1844	0.3203	0.1319	0.022
Mof_C 	C 	0.2137	0.29	0.0266	-0.132
Mof_H 	H 	0.1973	0.2282	0.0183	0.066
Mof_C 	C 	0.267	0.3514	0.934	0.064
Mof_H 	H 	0.2847	0.3276	0.856	0.015
Mof_C 	C 	0.302	0.4415	0.9274	-0.08
Mof_H 	H 	0.3451	0.479	0.857	0.058
Mof_C 	C 	0.2688	0.4734	0.0329	-0.008
Mof_C 	C 	0.184	0.4481	0.2525	-0.028
Mof_H 	H 	0.2014	0.5109	0.2469	0.031
Mof_C 	C 	0.1267	0.3924	0.3671	-0.095
Mof_H 	H 	0.1072	0.4172	0.4414	0.034
Mof_C 	C 	0.1005	0.3014	0.3667	0.023
Mof_H 	H 	0.0596	0.2609	0.4384	-0.009
Mof_C 	C 	0.6797	0.8641	0.1319	0.024
Mof_C 	C 	0.71	0.9237	0.0266	-0.111
Mof_H 	H 	0.7718	0.9691	0.0183	0.121
Mof_C 	C 	0.6486	0.9156	0.934	0.066
Mof_H 	H 	0.6724	0.9571	0.856	0.053
Mof_C 	C 	0.5585	0.8605	0.9274	-0.069
Mof_H 	H 	0.521	0.8661	0.857	0.069
Mof_C 	C 	0.5266	0.7954	0.0329	-0.005
Mof_C 	C 	0.5519	0.7359	0.2525	-0.031
Mof_H 	H 	0.4891	0.6905	0.2469	0.038
Mof_C 	C 	0.6076	0.7343	0.3671	-0.071
Mof_H 	H 	0.5828	0.69	0.4414	0.049
Mof_C 	C 	0.6986	0.7991	0.3667	0.017
Mof_H 	H 	0.7391	0.7987	0.4384	0.031
Mof_C 	C 	0.1359	0.8156	0.1319	0.214
Mof_C 	C 	0.0763	0.7863	0.0266	-0.277
Mof_H 	H 	0.0309	0.8027	0.0183	0.056
Mof_C 	C 	0.0844	0.733	0.934	0.148
Mof_H 	H 	0.0429	0.7153	0.856	-0.048
Mof_C 	C 	0.1395	0.698	0.9274	-0.159
Mof_H 	H 	0.1339	0.6549	0.857	0.072
Mof_C 	C 	0.2046	0.7312	0.0329	0.028
Mof_C 	C 	0.2641	0.816	0.2525	0.04
Mof_H 	H 	0.3095	0.7986	0.2469	0.023
Mof_C 	C 	0.2657	0.8733	0.3671	-0.1
Mof_H 	H 	0.31	0.8928	0.4414	0.081
Mof_C 	C 	0.2009	0.8995	0.3667	0.073
Mof_H 	H 	0.2013	0.9404	0.4384	0.043
Mof_C 	C 	0.3203	0.1844	0.8681	-0.023
Mof_C 	C 	0.29	0.2137	0.9734	0.013
Mof_H 	H 	0.2282	0.1973	0.9817	0.03
Mof_C 	C 	0.3514	0.267	0.066	-0.077
Mof_H 	H 	0.3276	0.2847	0.144	0.055
Mof_C 	C 	0.4415	0.302	0.0726	-0.062
Mof_H 	H 	0.479	0.3451	0.143	0.04
Mof_C 	C 	0.4734	0.2688	0.9671	0.002
Mof_C 	C 	0.4481	0.184	0.7475	-0.043
Mof_H 	H 	0.5109	0.2014	0.7531	0.035
Mof_C 	C 	0.3924	0.1267	0.6329	-0.079
Mof_H 	H 	0.4172	0.1072	0.5586	0.028
Mof_C 	C 	0.3014	0.1005	0.6333	0.009
Mof_H 	H 	0.2609	0.0596	0.5616	-0.006
Mof_C 	C 	0.8641	0.6797	0.8681	-0.007
Mof_C 	C 	0.9237	0.71	0.9734	-0
Mof_H 	H 	0.9691	0.7718	0.9817	0.091
Mof_C 	C 	0.9156	0.6486	0.066	-0.04
Mof_H 	H 	0.9571	0.6724	0.144	0.082
Mof_C 	C 	0.8605	0.5585	0.0726	-0.064
Mof_H 	H 	0.8661	0.521	0.143	0.056
Mof_C 	C 	0.7954	0.5266	0.9671	0.007
Mof_C 	C 	0.7359	0.5519	0.7475	-0.039
Mof_H 	H 	0.6905	0.4891	0.7531	0.041
Mof_C 	C 	0.7343	0.6076	0.6329	-0.06
Mof_H 	H 	0.69	0.5828	0.5586	0.045
Mof_C 	C 	0.7991	0.6986	0.6333	0.007
Mof_H 	H 	0.7987	0.7391	0.5616	0.035
Mof_C 	C 	0.8156	0.1359	0.8681	0.181
Mof_C 	C 	0.7863	0.0763	0.9734	-0.151
Mof_H 	H 	0.8027	0.0309	0.9817	0.023
Mof_C 	C 	0.733	0.0844	0.066	0.026
Mof_H 	H 	0.7153	0.0429	0.144	-0.016
Mof_C 	C 	0.698	0.1395	0.0726	-0.153
Mof_H 	H 	0.6549	0.1339	0.143	0.057
Mof_C 	C 	0.7312	0.2046	0.9671	0.046
Mof_C 	C 	0.816	0.2641	0.7475	0.03
Mof_H 	H 	0.7986	0.3095	0.7531	0.025
Mof_C 	C 	0.8733	0.2657	0.6329	-0.088
Mof_H 	H 	0.8928	0.31	0.5586	0.076
Mof_C 	C 	0.8995	0.2009	0.6333	0.061
Mof_H 	H 	0.9404	0.2013	0.5616	0.045
Mof_C 	C 	0.8156	0.6797	0.8681	0.114
Mof_C 	C 	0.7863	0.71	0.9734	-0.1
Mof_H 	H 	0.8027	0.7718	0.9817	0.066
Mof_C 	C 	0.733	0.6486	0.066	0.014
Mof_H 	H 	0.7153	0.6724	0.144	0.029
Mof_C 	C 	0.698	0.5585	0.0726	-0.12
Mof_H 	H 	0.6549	0.521	0.143	0.061
Mof_C 	C 	0.7312	0.5266	0.9671	0.031
Mof_C 	C 	0.816	0.5519	0.7475	0.006
Mof_H 	H 	0.7986	0.4891	0.7531	0.033
Mof_C 	C 	0.8733	0.6076	0.6329	-0.072
Mof_H 	H 	0.8928	0.5828	0.5586	0.07
Mof_C 	C 	0.8995	0.6986	0.6333	0.041
Mof_H 	H 	0.9404	0.7391	0.5616	0.053
Mof_C 	C 	0.3203	0.1359	0.8681	0.117
Mof_C 	C 	0.29	0.0763	0.9734	-0.099
Mof_H 	H 	0.2282	0.0309	0.9817	0.001
Mof_C 	C 	0.3514	0.0844	0.066	-0.016
Mof_H 	H 	0.3276	0.0429	0.144	-0.006
Mof_C 	C 	0.4415	0.1395	0.0726	-0.126
Mof_H 	H 	0.479	0.1339	0.143	0.047
Mof_C 	C 	0.4734	0.2046	0.9671	0.032
Mof_C 	C 	0.4481	0.2641	0.7475	0.008
Mof_H 	H 	0.5109	0.3095	0.7531	0.026
Mof_C 	C 	0.3924	0.2657	0.6329	-0.093
Mof_H 	H 	0.4172	0.31	0.5586	0.055
Mof_C 	C 	0.3014	0.2009	0.6333	0.046
Mof_H 	H 	0.2609	0.2013	0.5616	0.014
Mof_C 	C 	0.8641	0.1844	0.8681	-0.081
Mof_C 	C 	0.9237	0.2137	0.9734	0.062
Mof_H 	H 	0.9691	0.1973	0.9817	0.078
Mof_C 	C 	0.9156	0.267	0.066	-0.089
Mof_H 	H 	0.9571	0.2847	0.144	0.099
Mof_C 	C 	0.8605	0.302	0.0726	-0.032
Mof_H 	H 	0.8661	0.3451	0.143	0.045
Mof_C 	C 	0.7954	0.2688	0.9671	-0.009
Mof_C 	C 	0.7359	0.184	0.7475	-0.065
Mof_H 	H 	0.6905	0.2014	0.7531	0.042
Mof_C 	C 	0.7343	0.1267	0.6329	-0.062
Mof_H 	H 	0.69	0.1072	0.5586	0.023
Mof_C 	C 	0.7991	0.1005	0.6333	-0.011
Mof_H 	H 	0.7987	0.0596	0.5616	0.007
Mof_C 	C 	0.6797	0.8156	0.1319	0.145
Mof_C 	C 	0.71	0.7863	0.0266	-0.214
Mof_H 	H 	0.7718	0.8027	0.0183	0.094
Mof_C 	C 	0.6486	0.733	0.934	0.121
Mof_H 	H 	0.6724	0.7153	0.856	-0.002
Mof_C 	C 	0.5585	0.698	0.9274	-0.123
Mof_H 	H 	0.521	0.6549	0.857	0.074
Mof_C 	C 	0.5266	0.7312	0.0329	0.014
Mof_C 	C 	0.5519	0.816	0.2525	0.015
Mof_H 	H 	0.4891	0.7986	0.2469	0.031
Mof_C 	C 	0.6076	0.8733	0.3671	-0.082
Mof_H 	H 	0.5828	0.8928	0.4414	0.075
Mof_C 	C 	0.6986	0.8995	0.3667	0.052
Mof_H 	H 	0.7391	0.9404	0.4384	0.05
Mof_C 	C 	0.1359	0.3203	0.1319	0.155
Mof_C 	C 	0.0763	0.29	0.0266	-0.241
Mof_H 	H 	0.0309	0.2282	0.0183	0.038
Mof_C 	C 	0.0844	0.3514	0.934	0.123
Mof_H 	H 	0.0429	0.3276	0.856	-0.043
Mof_C 	C 	0.1395	0.4415	0.9274	-0.139
Mof_H 	H 	0.1339	0.479	0.857	0.064
Mof_C 	C 	0.2046	0.4734	0.0329	0.018
Mof_C 	C 	0.2641	0.4481	0.2525	0.02
Mof_H 	H 	0.3095	0.5109	0.2469	0.022
Mof_C 	C 	0.2657	0.3924	0.3671	-0.108
Mof_H 	H 	0.31	0.4172	0.4414	0.06
Mof_C 	C 	0.2009	0.3014	0.3667	0.06
Mof_H 	H 	0.2013	0.2609	0.4384	0.01
Mof_C 	C 	0.1844	0.8641	0.1319	-0.043
Mof_C 	C 	0.2137	0.9237	0.0266	-0.064
Mof_H 	H 	0.1973	0.9691	0.0183	0.112
Mof_C 	C 	0.267	0.9156	0.934	0.033
Mof_H 	H 	0.2847	0.9571	0.856	0.065
Mof_C 	C 	0.302	0.8605	0.9274	-0.045
Mof_H 	H 	0.3451	0.8661	0.857	0.06
Mof_C 	C 	0.2688	0.7954	0.0329	-0.018
Mof_C 	C 	0.184	0.7359	0.2525	-0.054
Mof_H 	H 	0.2014	0.6905	0.2469	0.039
Mof_C 	C 	0.1267	0.7343	0.3671	-0.075
Mof_H 	H 	0.1072	0.69	0.4414	0.029
Mof_C 	C 	0.1005	0.7991	0.3667	0.001
Mof_H 	H 	0.0596	0.7987	0.4384	0.004
Mof_Yb	Yb	-0	0	0.5	1.521
Mof_Yb	Yb	-0	0	-0	1.447
Mof_O 	O 	0.06205	0.1241	0.3698	-0.55
Mof_O 	O 	0.06175	0.1235	0.132	-0.553
Mof_C 	C 	0.0823	0.1646	0.2498	0.506
Mof_C 	C 	0.13225	0.2645	0.2496	-0.23
Mof_C 	C 	0.20825	0.4165	0.1389	-0.061
Mof_C 	C 	0.2867	0.5734	0.0284	0.057
Mof_O 	O 	0.8759	0.93795	0.3698	-0.407
Mof_O 	O 	0.8765	0.93825	0.132	-0.413
Mof_C 	C 	0.8354	0.9177	0.2498	0.484
Mof_C 	C 	0.7355	0.86775	0.2496	-0.189
Mof_C 	C 	0.5835	0.79175	0.1389	-0.047
Mof_C 	C 	0.4266	0.7133	0.0284	0.061
Mof_O 	O 	0.06205	0.93795	0.3698	-0.471
Mof_O 	O 	0.06175	0.93825	0.132	-0.474
Mof_C 	C 	0.0823	0.9177	0.2498	0.493
Mof_C 	C 	0.13225	0.86775	0.2496	-0.206
Mof_C 	C 	0.20825	0.79175	0.1389	-0.052
Mof_C 	C 	0.2867	0.7133	0.0284	0.059
Mof_O 	O 	0.1241	0.06205	0.6302	-0.544
Mof_O 	O 	0.1235	0.06175	0.868	-0.531
Mof_C 	C 	0.1646	0.0823	0.7502	0.49
Mof_C 	C 	0.2645	0.13225	0.7504	-0.194
Mof_C 	C 	0.4165	0.20825	0.8611	-0.024
Mof_C 	C 	0.5734	0.2867	0.9716	0.064
Mof_O 	O 	0.93795	0.8759	0.6302	-0.404
Mof_O 	O 	0.93825	0.8765	0.868	-0.398
Mof_C 	C 	0.9177	0.8354	0.7502	0.472
Mof_C 	C 	0.86775	0.7355	0.7504	-0.162
Mof_C 	C 	0.79175	0.5835	0.8611	-0.021
Mof_C 	C 	0.7133	0.4266	0.9716	0.065
Mof_O 	O 	0.93795	0.06205	0.6302	-0.468
Mof_O 	O 	0.93825	0.06175	0.868	-0.458
Mof_C 	C 	0.9177	0.0823	0.7502	0.48
Mof_C 	C 	0.86775	0.13225	0.7504	-0.176
Mof_C 	C 	0.79175	0.20825	0.8611	-0.022
Mof_C 	C 	0.7133	0.2867	0.9716	0.065
Mof_C 	C 	0.2397	0.61985	0.0272	-0.136
Mof_H 	H 	0.1754	0.5877	0.0256	0.058
Mof_C 	C 	0.38015	0.61985	0.0272	-0.136
Mof_H 	H 	0.4123	0.5877	0.0256	0.069
Mof_C 	C 	0.38015	0.7603	0.0272	-0.136
Mof_H 	H 	0.4123	0.8246	0.0256	0.081
Mof_C 	C 	0.61985	0.2397	0.9728	-0.133
Mof_H 	H 	0.5877	0.1754	0.9744	0.07
Mof_C 	C 	0.61985	0.38015	0.9728	-0.132
Mof_H 	H 	0.5877	0.4123	0.9744	0.08
Mof_C 	C 	0.7603	0.38015	0.9728	-0.131
Mof_H 	H 	0.8246	0.4123	0.9744	0.091
_end
