data_functionalizedCrystal
_audit_creation_method	'EQeq! by Chris Wilmer'
_symmetry_space_group_name_H-M	'P1'
_symmetry_Int_Tables_number	1
_symmetry_cell_setting	triclinic
loop_
_symmetry_equiv_pos_as_xyz
  x,y,z
_cell_length_a	4.981
_cell_length_b	11.019
_cell_length_c	12.7785
_cell_angle_alpha	91.6643
_cell_angle_beta	101.239
_cell_angle_gamma	81.4299
loop_
_atom_site_label
_atom_site_type_symbol
_atom_site_fract_x
_atom_site_fract_y
_atom_site_fract_z
_atom_site_charge
Mof_Cu	Cu	0.82607	0.3045	0.22678	0.912
Mof_Cu	Cu	0.59929	0.8045	0.77322	0.919
Mof_H 	H 	0.5938	0.5111	0.872	0.061
Mof_H 	H 	0.8309	0.3743	0.0008	0.02
Mof_H 	H 	0.3339	0.4945	0.1942	0.035
Mof_H 	H 	0.0698	0.6275	0.067	0.075
Mof_H 	H 	0.016	0.9601	0.4874	0.054
Mof_H 	H 	0.7979	0.0696	0.3388	0.042
Mof_H 	H 	0.3267	0.303	0.3904	0.029
Mof_H 	H 	0.5554	0.202	0.5448	0.066
Mof_H 	H 	0.7218	0.0111	0.128	0.057
Mof_H 	H 	0.8301	0.8743	0.9992	0.023
Mof_H 	H 	0.1397	0.9945	0.8058	0.037
Mof_H 	H 	0.0028	0.1275	0.933	0.073
Mof_H 	H 	0.5286	0.4601	0.5126	0.083
Mof_H 	H 	0.4591	0.5696	0.6612	0.019
Mof_H 	H 	0.9363	0.803	0.6096	0.007
Mof_H 	H 	0.0106	0.702	0.4552	0.108
Mof_C 	C 	0.13707	0.6733	0.86794	0.355
Mof_C 	C 	0.30372	0.5866	0.95424	-0.046
Mof_C 	C 	0.53532	0.5087	0.93664	-0.053
Mof_C 	C 	0.67896	0.4275	0.01492	0.036
Mof_C 	C 	0.38541	0.4971	0.12822	0.036
Mof_C 	C 	0.22705	0.5784	0.0525	-0.054
Mof_C 	C 	0.46231	0.0002	0.63422	0.311
Mof_C 	C 	0.30818	0.069	0.53436	-0.041
Mof_C 	C 	0.08127	0.0302	0.47014	-0.002
Mof_C 	C 	0.95315	0.0962	0.3805	-0.019
Mof_C 	C 	0.26278	0.234	0.41096	0.038
Mof_C 	C 	0.4019	0.1736	0.5036	-0.052
Mof_C 	C 	0.26913	0.1733	0.13206	0.336
Mof_C 	C 	0.34948	0.0866	0.04576	-0.046
Mof_C 	C 	0.59868	0.0087	0.06336	-0.053
Mof_C 	C 	0.66404	0.9275	0.98508	0.034
Mof_C 	C 	0.25719	0.9971	0.87178	0.029
Mof_C 	C 	0.17455	0.0784	0.9475	-0.046
Mof_C 	C 	0.82809	0.5002	0.36578	0.285
Mof_C 	C 	0.77382	0.569	0.46564	0.011
Mof_C 	C 	0.61113	0.5302	0.52986	-0.094
Mof_C 	C 	0.57265	0.5962	0.6195	0.066
Mof_C 	C 	0.85182	0.734	0.58904	0.075
Mof_C 	C 	0.8983	0.6736	0.4964	-0.131
Mof_N 	N 	0.6093	0.4219	0.1112	-0.199
Mof_N 	N 	0.03761	0.1966	0.34922	-0.171
Mof_N 	N 	0.4981	0.9219	0.8888	-0.196
Mof_N 	N 	0.68839	0.6966	0.65078	-0.205
Mof_O 	O 	0.88929	0.7101	0.87838	-0.407
Mof_O 	O 	0.24754	0.7012	0.79508	-0.361
Mof_O 	O 	0.35601	0.9097	0.65822	-0.369
Mof_O 	O 	0.68216	0.0309	0.68252	-0.29
Mof_O 	O 	0.01091	0.2101	0.12162	-0.378
Mof_O 	O 	0.45246	0.2012	0.20492	-0.361
Mof_O 	O 	0.69779	0.4097	0.34178	-0.367
Mof_O 	O 	0.99964	0.5309	0.31748	-0.291
_end
