data_functionalizedCrystal
_audit_creation_method	'EQeq! by Chris Wilmer'
_symmetry_space_group_name_H-M	'P1'
_symmetry_Int_Tables_number	1
_symmetry_cell_setting	triclinic
loop_
_symmetry_equiv_pos_as_xyz
  x,y,z
_cell_length_a	9.9462
_cell_length_b	20.9853
_cell_length_c	10.6098
_cell_angle_alpha	90
_cell_angle_beta	101.331
_cell_angle_gamma	90
loop_
_atom_site_label
_atom_site_type_symbol
_atom_site_fract_x
_atom_site_fract_y
_atom_site_fract_z
_atom_site_charge
Mof_Zn	Zn	0.81809	0.75986	0.33598	1.234
Mof_Zn	Zn	0.27085	0.60929	0.19467	1.234
Mof_Zn	Zn	0.88066	0.86401	0.85559	1.235
Mof_Zn	Zn	0.66567	0.51413	0.29017	1.234
Mof_Zn	Zn	0.98936	0.64154	0.62151	1.232
Mof_Zn	Zn	0.06487	0.98259	0.14127	1.237
Mof_P 	P 	0.56896	0.66079	0.31877	0.479
Mof_P 	P 	0.84371	0.44386	0.11811	0.455
Mof_P 	P 	0.1004	0.68252	0.37366	0.435
Mof_P 	P 	0.36453	0.46403	0.16349	0.474
Mof_P 	P 	0.1313	0.60181	0.90253	0.455
Mof_P 	P 	0.92373	0.85523	0.1539	0.582
Mof_P 	P 	0.82114	0.76569	0.62122	0.427
Mof_P 	P 	0.19954	0.02234	0.42115	0.466
Mof_O 	O 	0.4229	0.66359	0.2476	-0.461
Mof_O 	O 	0.6362	0.72401	0.3027	-0.43
Mof_O 	O 	0.6488	0.60556	0.283	-0.48
Mof_O 	O 	0.801	0.50281	0.1816	-0.417
Mof_O 	O 	0.8252	0.4506	0.9747	-0.453
Mof_O 	O 	0.9871	0.426	0.1825	-0.44
Mof_O 	O 	0.9582	0.70146	0.3039	-0.444
Mof_O 	O 	0.1443	0.62328	0.3102	-0.418
Mof_O 	O 	0.1122	0.67583	0.5163	-0.439
Mof_O 	O 	0.2893	0.51908	0.2086	-0.485
Mof_O 	O 	0.5141	0.4609	0.2217	-0.46
Mof_O 	O 	0.299	0.40059	0.1806	-0.441
Mof_O 	O 	0.1872	0.63934	0.0239	-0.419
Mof_O 	O 	0.1154	0.64582	0.7864	-0.416
Mof_O 	O 	0.9995	0.56738	0.9118	-0.468
Mof_O 	O 	0.808	0.82604	0.2069	-0.437
Mof_O 	O 	0.9376	0.82682	0.0258	-0.455
Mof_O 	O 	0.9112	0.92728	0.1487	-0.473
Mof_O 	O 	0.8303	0.6943	0.6155	-0.471
Mof_O 	O 	0.8994	0.79276	0.745	-0.43
Mof_O 	O 	0.8658	0.79773	0.5059	-0.438
Mof_O 	O 	0.2486	0.98301	0.5394	-0.403
Mof_O 	O 	0.065	0.05467	0.4285	-0.471
Mof_O 	O 	0.193	0.9826	0.3038	-0.423
Mof_H 	H 	0.5834	0.6552	0.4485	-0.051
Mof_H 	H 	0.7386	0.3971	0.123	-0.023
Mof_H 	H 	0.2203	0.7342	0.3516	-0.004
Mof_H 	H 	0.364	0.4593	0.035	-0.042
Mof_H 	H 	0.2153	0.5569	0.8871	-0.073
Mof_H 	H 	0.0085	0.8451	0.215	-0.169
Mof_H 	H 	0.6675	0.7805	0.6097	-0.014
Mof_H 	H 	0.2773	0.0646	0.4308	-0.108
Mof_Zn	Zn	0.18191	0.25986	0.66402	1.235
Mof_Zn	Zn	0.72915	0.10929	0.80533	1.235
Mof_Zn	Zn	0.11934	0.36401	0.14441	1.235
Mof_Zn	Zn	0.33433	0.01413	0.70983	1.227
Mof_Zn	Zn	0.01064	0.14154	0.37849	1.231
Mof_Zn	Zn	0.93513	0.48259	0.85873	1.232
Mof_P 	P 	0.43104	0.16079	0.68123	0.478
Mof_P 	P 	0.15629	0.94386	0.88189	0.469
Mof_P 	P 	0.8996	0.18252	0.62634	0.435
Mof_P 	P 	0.63547	0.96403	0.83651	0.49
Mof_P 	P 	0.8687	0.10181	0.09747	0.456
Mof_P 	P 	0.07627	0.35523	0.8461	0.584
Mof_P 	P 	0.17886	0.26569	0.37878	0.427
Mof_P 	P 	0.80046	0.52234	0.57885	0.501
Mof_O 	O 	0.5771	0.16359	0.7524	-0.462
Mof_O 	O 	0.3638	0.22401	0.6973	-0.431
Mof_O 	O 	0.3512	0.10556	0.717	-0.484
Mof_O 	O 	0.199	0.00281	0.8184	-0.435
Mof_O 	O 	0.1748	0.9506	0.0253	-0.449
Mof_O 	O 	0.0129	0.926	0.8175	-0.436
Mof_O 	O 	0.0418	0.20146	0.6961	-0.445
Mof_O 	O 	0.8557	0.12328	0.6898	-0.42
Mof_O 	O 	0.8878	0.17583	0.4837	-0.44
Mof_O 	O 	0.7107	0.01908	0.7914	-0.501
Mof_O 	O 	0.4859	0.9609	0.7783	-0.453
Mof_O 	O 	0.701	0.90059	0.8194	-0.44
Mof_O 	O 	0.8128	0.13934	0.9761	-0.42
Mof_O 	O 	0.8846	0.14582	0.2136	-0.418
Mof_O 	O 	0.0005	0.06738	0.0882	-0.477
Mof_O 	O 	0.192	0.32604	0.7931	-0.439
Mof_O 	O 	0.0624	0.32682	0.9742	-0.455
Mof_O 	O 	0.0888	0.42728	0.8513	-0.479
Mof_O 	O 	0.1697	0.1943	0.3845	-0.472
Mof_O 	O 	0.1006	0.29276	0.255	-0.431
Mof_O 	O 	0.1342	0.29773	0.4941	-0.44
Mof_O 	O 	0.7514	0.48301	0.4606	-0.426
Mof_O 	O 	0.935	0.55467	0.5715	-0.469
Mof_O 	O 	0.807	0.4826	0.6962	-0.443
Mof_H 	H 	0.4166	0.1552	0.5515	-0.052
Mof_H 	H 	0.2614	0.8971	0.877	-0.022
Mof_H 	H 	0.7797	0.2342	0.6484	-0.004
Mof_H 	H 	0.636	0.9593	0.965	-0.039
Mof_H 	H 	0.7847	0.0569	0.1129	-0.079
Mof_H 	H 	0.9915	0.3451	0.785	-0.171
Mof_H 	H 	0.3325	0.2805	0.3903	-0.015
Mof_H 	H 	0.7227	0.5646	0.5692	-0.111
_end
