data_functionalizedCrystal
_audit_creation_method	'EQeq! by Chris Wilmer'
_symmetry_space_group_name_H-M	'P1'
_symmetry_Int_Tables_number	1
_symmetry_cell_setting	triclinic
loop_
_symmetry_equiv_pos_as_xyz
  x,y,z
_cell_length_a	13.0923
_cell_length_b	14.2717
_cell_length_c	14.2197
_cell_angle_alpha	90
_cell_angle_beta	90.308
_cell_angle_gamma	90
loop_
_atom_site_label
_atom_site_type_symbol
_atom_site_fract_x
_atom_site_fract_y
_atom_site_fract_z
_atom_site_charge
Mof_Zn	Zn	0.75723	0.53094	0.66994	1.227
Mof_Zn	Zn	0.5423	0.0243	0.16801	1.215
Mof_Zn	Zn	0.58391	0.98582	0.92037	1.235
Mof_Zn	Zn	0.66793	0.62427	0.07923	1.179
Mof_Zn	Zn	0.64804	0.87753	0.51074	1.22
Mof_Zn	Zn	0.4782	0.48421	0.52262	1.216
Mof_Zn	Zn	0.66739	0.13159	0.5393	1.233
Mof_Zn	Zn	0.80757	0.49608	0.42315	1.224
Mof_Zn	Zn	0.86295	0.98799	0.07041	1.166
Mof_Zn	Zn	0.69539	0.37248	0.04693	1.187
Mof_Zn	Zn	0.8708	0.9562	0.3019	1.14
Mof_Zn	Zn	0.6245	0.5715	0.2928	1.126
Mof_Zn	Zn	0.7097	0.9162	0.2987	1.127
Mof_Zn	Zn	0.4817	0.504	0.2905	1.142
Mof_P 	P 	0.8603	0.9975	0.5119	0.555
Mof_P 	P 	0.6923	0.1421	0.0465	0.382
Mof_P 	P 	0.982	0.5236	0.5752	0.547
Mof_P 	P 	0.6717	0.3602	0.5482	0.54
Mof_P 	P 	0.6496	0.6452	0.5026	0.559
Mof_P 	P 	0.6689	0.8556	0.0885	0.375
Mof_P 	P 	0.8235	0.4988	0.1932	0.56
Mof_P 	P 	0.7712	0.5312	0.9023	0.562
Mof_P 	P 	0.5209	0.0275	0.3972	0.567
Mof_P 	P 	0.567	0.9842	0.6869	0.562
Mof_O 	O 	0.9034	0.5307	0.6527	-0.604
Mof_O 	O 	0.6784	0.4232	0.6347	-0.488
Mof_O 	O 	0.737	0.5528	0.8027	-0.45
Mof_O 	O 	0.7145	0.6364	0.5901	-0.472
Mof_O 	O 	0.6306	0.918	0.1698	-0.657
Mof_O 	O 	0.5982	0.1386	0.1105	-0.481
Mof_O 	O 	0.4924	0.0456	0.2934	-0.44
Mof_O 	O 	0.9145	0.0064	0.6038	-0.445
Mof_O 	O 	0.6106	0.877	0.9974	-0.284
Mof_O 	O 	0.6755	0.0872	0.9528	-0.303
Mof_O 	O 	0.9373	0.9854	0.4306	-0.633
Mof_O 	O 	0.5971	0.958	0.7882	-0.452
Mof_O 	O 	0.7372	0.612	0.9655	-0.36
Mof_O 	O 	0.6452	0.7529	0.1157	-0.496
Mof_O 	O 	0.0325	0.4266	0.5789	-0.534
Mof_O 	O 	0.732	0.5692	0.1916	-0.682
Mof_O 	O 	0.5994	0.9472	0.4012	-0.657
Mof_O 	O 	0.7927	0.9111	0.5099	-0.528
Mof_O 	O 	0.5717	0.8982	0.6242	-0.477
Mof_O 	O 	0.6451	0.7482	0.4702	-0.476
Mof_O 	O 	0.5675	0.3776	0.4969	-0.456
Mof_O 	O 	0.9152	0.5405	0.1444	-0.503
Mof_O 	O 	0.5413	0.609	0.5185	-0.503
Mof_O 	O 	0.8904	0.5236	0.9086	-0.551
Mof_O 	O 	0.6803	0.2578	0.5786	-0.433
Mof_O 	O 	0.7993	0.0878	0.4923	-0.457
Mof_O 	O 	0.6425	0.0593	0.654	-0.465
Mof_O 	O 	0.5664	0.1177	0.4404	-0.469
Mof_O 	O 	0.9314	0.5403	0.4783	-0.451
Mof_O 	O 	0.7626	0.3799	0.4821	-0.464
Mof_O 	O 	0.6974	0.5892	0.419	-0.657
Mof_O 	O 	0.8527	0.4793	0.2945	-0.444
Mof_O 	O 	0.7828	0.1	0.1004	-0.485
Mof_O 	O 	0.4247	0.9994	0.4501	-0.47
Mof_O 	O 	0.7852	0.8691	0.0764	-0.563
Mof_O 	O 	0.4573	0.0199	0.6839	-0.633
Mof_O 	O 	0.7219	0.4392	0.9318	-0.379
Mof_O 	O 	0.0592	0.6018	0.5937	-0.464
Mof_O 	O 	0.7898	0.4073	0.1472	-0.512
Mof_O 	O 	0.7183	0.2422	0.0217	-0.511
Mof_O 	O 	0.7664	0.0455	0.2896	-0.576
Mof_O 	O 	0.5798	0.4343	0.2968	-0.639
Mof_C 	C 	0.3705	0.7622	0.3274	-0.025
Mof_C 	C 	0.4216	0.6819	0.2863	0.017
Mof_N 	N 	0.0536	0.5959	0.3043	-0.085
Mof_N 	N 	0.3033	0.9262	0.2863	-0.078
Mof_C 	C 	0.0766	0.6934	0.3062	0.061
Mof_C 	C 	0.8916	0.7521	0.3362	0.046
Mof_C 	C 	0.9345	0.7481	0.2611	-0.065
Mof_C 	C 	0.9875	0.7464	0.3411	-0.067
Mof_C 	C 	0.3484	0.8224	0.2606	0.012
Mof_N 	N 	0.8146	0.817	0.2972	-0.404
Mof_N 	N 	0.5441	0.6936	0.2828	-0.129
Mof_N 	N 	0.4988	0.6564	0.2905	-0.305
Mof_Zn	Zn	0.25723	0.46906	0.16994	1.211
Mof_Zn	Zn	0.0423	0.9757	0.66801	1.228
Mof_Zn	Zn	0.08391	0.01418	0.42037	1.224
Mof_Zn	Zn	0.16793	0.37573	0.57923	1.225
Mof_Zn	Zn	0.14804	0.12247	0.01074	1.143
Mof_Zn	Zn	0.9782	0.51579	0.02262	1.141
Mof_Zn	Zn	0.16739	0.86841	0.0393	1.158
Mof_Zn	Zn	0.30757	0.50392	0.92315	1.237
Mof_Zn	Zn	0.36295	0.01201	0.57041	1.216
Mof_Zn	Zn	0.19539	0.62752	0.54693	1.233
Mof_Zn	Zn	0.3708	0.0438	0.8019	1.147
Mof_Zn	Zn	0.1245	0.4285	0.7928	1.129
Mof_Zn	Zn	0.2097	0.0838	0.7987	1.136
Mof_Zn	Zn	0.9817	0.496	0.7905	1.147
Mof_P 	P 	0.3603	0.0025	0.0119	0.244
Mof_P 	P 	0.1923	0.8579	0.5465	0.545
Mof_P 	P 	0.482	0.4764	0.0752	0.377
Mof_P 	P 	0.1717	0.6398	0.0482	0.226
Mof_P 	P 	0.1496	0.3548	0.0026	0.241
Mof_P 	P 	0.1689	0.1444	0.5885	0.541
Mof_P 	P 	0.3235	0.5012	0.6932	0.565
Mof_P 	P 	0.2712	0.4688	0.4023	0.565
Mof_P 	P 	0.0209	0.9725	0.8972	0.556
Mof_P 	P 	0.067	0.0158	0.1869	0.565
Mof_O 	O 	0.4034	0.4693	0.1527	-0.615
Mof_O 	O 	0.1784	0.5768	0.1347	-0.483
Mof_O 	O 	0.237	0.4472	0.3027	-0.466
Mof_O 	O 	0.2145	0.3636	0.0901	-0.49
Mof_O 	O 	0.1306	0.082	0.6698	-0.654
Mof_O 	O 	0.0982	0.8614	0.6105	-0.455
Mof_O 	O 	0.9924	0.9544	0.7934	-0.434
Mof_O 	O 	0.4145	0.9936	0.1038	-0.461
Mof_O 	O 	0.1106	0.123	0.4974	-0.474
Mof_O 	O 	0.1755	0.9128	0.4528	-0.472
Mof_O 	O 	0.4373	0.0146	0.9306	-0.46
Mof_O 	O 	0.0971	0.042	0.2882	-0.46
Mof_O 	O 	0.2372	0.388	0.4655	-0.485
Mof_O 	O 	0.1452	0.2471	0.6157	-0.46
Mof_O 	O 	0.5325	0.5734	0.0789	-0.591
Mof_O 	O 	0.232	0.4308	0.6916	-0.662
Mof_O 	O 	0.0994	0.0528	0.9012	-0.58
Mof_O 	O 	0.2927	0.0889	0.0099	-0.603
Mof_O 	O 	0.0717	0.1018	0.1242	-0.535
Mof_O 	O 	0.1451	0.2518	0.9702	-0.243
Mof_O 	O 	0.0675	0.6224	0.9969	-0.229
Mof_O 	O 	0.4152	0.4595	0.6444	-0.452
Mof_O 	O 	0.0413	0.391	0.0185	-0.564
Mof_O 	O 	0.3904	0.4764	0.4086	-0.627
Mof_O 	O 	0.1803	0.7422	0.0786	-0.476
Mof_O 	O 	0.2993	0.9122	0.9923	-0.23
Mof_O 	O 	0.1425	0.9407	0.154	-0.505
Mof_O 	O 	0.0664	0.8823	0.9404	-0.371
Mof_O 	O 	0.4314	0.4597	0.9783	-0.272
Mof_O 	O 	0.2626	0.6201	0.9821	-0.266
Mof_O 	O 	0.1974	0.4108	0.919	-0.5
Mof_O 	O 	0.3527	0.5207	0.7945	-0.436
Mof_O 	O 	0.2828	0.9	0.6004	-0.459
Mof_O 	O 	0.9247	0.0006	0.9501	-0.348
Mof_O 	O 	0.2852	0.1309	0.5764	-0.499
Mof_O 	O 	0.9573	0.9801	0.1839	-0.666
Mof_O 	O 	0.2219	0.5608	0.4318	-0.488
Mof_O 	O 	0.5592	0.3982	0.0937	-0.5
Mof_O 	O 	0.2898	0.5927	0.6472	-0.475
Mof_O 	O 	0.2183	0.7578	0.5217	-0.428
Mof_O 	O 	0.2664	0.9545	0.7896	-0.564
Mof_O 	O 	0.0798	0.5657	0.7968	-0.626
Mof_C 	C 	0.8705	0.2378	0.8274	0.032
Mof_C 	C 	0.9216	0.3181	0.7863	0.038
Mof_N 	N 	0.5536	0.4041	0.8043	-0.072
Mof_N 	N 	0.8033	0.0738	0.7863	-0.061
Mof_C 	C 	0.5766	0.3066	0.8062	0.089
Mof_C 	C 	0.3916	0.2479	0.8362	0.083
Mof_C 	C 	0.4345	0.2519	0.7611	-0.067
Mof_C 	C 	0.4875	0.2536	0.8411	-0.024
Mof_C 	C 	0.8484	0.1776	0.7606	0.03
Mof_N 	N 	0.3146	0.183	0.7972	-0.389
Mof_N 	N 	0.0441	0.3064	0.7828	-0.122
Mof_N 	N 	0.9988	0.3436	0.7905	-0.293
_end
