data_functionalizedCrystal
_audit_creation_method	'EQeq! by Chris Wilmer'
_symmetry_space_group_name_H-M	'P1'
_symmetry_Int_Tables_number	1
_symmetry_cell_setting	triclinic
loop_
_symmetry_equiv_pos_as_xyz
  x,y,z
_cell_length_a	18.7769
_cell_length_b	19.8686
_cell_length_c	8.7734
_cell_angle_alpha	90
_cell_angle_beta	100.967
_cell_angle_gamma	90
loop_
_atom_site_label
_atom_site_type_symbol
_atom_site_fract_x
_atom_site_fract_y
_atom_site_fract_z
_atom_site_charge
Mof_N 	N 	0.0874	0.599	0.2828	-0.27
Mof_C 	C 	0.2045	0.5633	0.2454	-0.205
Mof_H 	H 	0.247	0.5732	0.21	0.091
Mof_N 	N 	0.4187	0.254	0.2248	-0.274
Mof_C 	C 	0.3151	0.3555	0.208	0.173
Mof_C 	C 	0.135	0.4914	0.3658	-0.222
Mof_H 	H 	0.1274	0.4502	0.4104	0.108
Mof_N 	N 	0.9968	0.6677	0.0038	-0.284
Mof_C 	C 	0.1484	0.6099	0.2284	0.101
Mof_H 	H 	0.1534	0.6502	0.1773	-0.029
Mof_C 	C 	0.3704	0.2647	0.0956	0.128
Mof_H 	H 	0.3717	0.2376	0.0098	-0.034
Mof_C 	C 	0.368	0.3461	0.3378	-0.227
Mof_H 	H 	0.3705	0.3748	0.4225	0.102
Mof_N 	N 	0.985	0.6248	0.739	0.122
Mof_C 	C 	0.197	0.5025	0.3148	0.147
Mof_C 	C 	0.0831	0.5402	0.3524	0.129
Mof_H 	H 	0.0422	0.5318	0.3947	-0.043
Mof_C 	C 	0.3184	0.3143	0.0835	-0.229
Mof_H 	H 	0.2855	0.3201	0.9909	0.104
Mof_C 	C 	0.2585	0.4089	0.1961	-0.203
Mof_H 	H 	0.2642	0.4389	0.112	0.087
Mof_H 	H 	0.2114	0.3875	0.167	0.089
Mof_C 	C 	0.4171	0.2948	0.3429	0.128
Mof_H 	H 	0.4509	0.2884	0.4339	-0.037
Mof_C 	C 	0.9975	0.6522	0.8821	0.234
Mof_C 	C 	0.2577	0.449	0.3312	-0.139
Mof_H 	H 	0.3041	0.4716	0.3589	0.061
Mof_H 	H 	0.2529	0.4192	0.4163	0.062
Mof_N 	N 	0.5874	0.099	0.2828	-0.262
Mof_C 	C 	0.7045	0.0633	0.2454	-0.205
Mof_H 	H 	0.747	0.0732	0.21	0.094
Mof_N 	N 	0.9187	0.754	0.2248	-0.262
Mof_C 	C 	0.8151	0.8555	0.208	0.17
Mof_C 	C 	0.635	0.9914	0.3658	-0.219
Mof_H 	H 	0.6274	0.9502	0.4104	0.107
Mof_N 	N 	0.4968	0.1677	0.0038	-0.293
Mof_C 	C 	0.6484	0.1099	0.2284	0.103
Mof_H 	H 	0.6534	0.1502	0.1773	-0.026
Mof_C 	C 	0.8704	0.7647	0.0956	0.128
Mof_H 	H 	0.8717	0.7376	0.0098	-0.03
Mof_C 	C 	0.868	0.8461	0.3378	-0.219
Mof_H 	H 	0.8705	0.8748	0.4225	0.105
Mof_N 	N 	0.485	0.1248	0.739	-0.104
Mof_C 	C 	0.697	0.0025	0.3148	0.148
Mof_C 	C 	0.5831	0.0402	0.3524	0.128
Mof_H 	H 	0.5422	0.0318	0.3947	-0.028
Mof_C 	C 	0.8184	0.8143	0.0835	-0.22
Mof_H 	H 	0.7855	0.8201	0.9909	0.1
Mof_C 	C 	0.7585	0.9089	0.1961	-0.196
Mof_H 	H 	0.7642	0.9389	0.112	0.087
Mof_H 	H 	0.7114	0.8875	0.167	0.086
Mof_C 	C 	0.9171	0.7948	0.3429	0.13
Mof_H 	H 	0.9509	0.7884	0.4339	-0.021
Mof_C 	C 	0.4975	0.1522	0.8821	0.183
Mof_C 	C 	0.7577	0.949	0.3312	-0.145
Mof_H 	H 	0.8041	0.9716	0.3589	0.067
Mof_H 	H 	0.7529	0.9192	0.4163	0.065
Mof_N 	N 	0.9126	0.599	0.2172	-0.25
Mof_C 	C 	0.7955	0.5633	0.2546	-0.2
Mof_H 	H 	0.753	0.5732	0.29	0.09
Mof_N 	N 	0.5813	0.254	0.2752	-0.275
Mof_C 	C 	0.6849	0.3555	0.292	0.175
Mof_C 	C 	0.865	0.4914	0.1342	-0.211
Mof_H 	H 	0.8726	0.4502	0.0896	0.106
Mof_N 	N 	0.0032	0.6677	0.4962	-0.297
Mof_C 	C 	0.8516	0.6099	0.2716	0.102
Mof_H 	H 	0.8466	0.6502	0.3227	-0.022
Mof_C 	C 	0.6296	0.2647	0.4044	0.13
Mof_H 	H 	0.6283	0.2376	0.4902	-0.035
Mof_C 	C 	0.632	0.3461	0.1622	-0.228
Mof_H 	H 	0.6295	0.3748	0.0775	0.103
Mof_N 	N 	0.015	0.6248	0.761	-0.329
Mof_C 	C 	0.803	0.5025	0.1852	0.142
Mof_C 	C 	0.9169	0.5402	0.1476	0.125
Mof_H 	H 	0.9578	0.5318	0.1053	-0.01
Mof_C 	C 	0.6816	0.3143	0.4165	-0.232
Mof_H 	H 	0.7145	0.3201	0.5091	0.105
Mof_C 	C 	0.7415	0.4089	0.3039	-0.203
Mof_H 	H 	0.7358	0.4389	0.388	0.087
Mof_H 	H 	0.7886	0.3875	0.333	0.087
Mof_C 	C 	0.5829	0.2948	0.1571	0.129
Mof_H 	H 	0.5491	0.2884	0.0661	-0.037
Mof_C 	C 	0.0025	0.6522	0.6179	0.13
Mof_C 	C 	0.7423	0.449	0.1688	-0.137
Mof_H 	H 	0.6959	0.4716	0.1411	0.061
Mof_H 	H 	0.7471	0.4192	0.0837	0.062
Mof_N 	N 	0.4126	0.099	0.2172	-0.261
Mof_C 	C 	0.2955	0.0633	0.2546	-0.198
Mof_H 	H 	0.253	0.0732	0.29	0.087
Mof_N 	N 	0.0813	0.754	0.2752	-0.282
Mof_C 	C 	0.1849	0.8555	0.292	0.176
Mof_C 	C 	0.365	0.9914	0.1342	-0.211
Mof_H 	H 	0.3726	0.9502	0.0896	0.105
Mof_N 	N 	0.5032	0.1677	0.4962	-0.294
Mof_C 	C 	0.3516	0.1099	0.2716	0.099
Mof_H 	H 	0.3466	0.1502	0.3227	-0.025
Mof_C 	C 	0.1296	0.7647	0.4044	0.126
Mof_H 	H 	0.1283	0.7376	0.4902	-0.037
Mof_C 	C 	0.132	0.8461	0.1622	-0.234
Mof_H 	H 	0.1295	0.8748	0.0775	0.099
Mof_N 	N 	0.515	0.1248	0.761	-0.104
Mof_C 	C 	0.303	0.0025	0.1852	0.137
Mof_C 	C 	0.4169	0.0402	0.1476	0.123
Mof_H 	H 	0.4578	0.0318	0.1053	-0.026
Mof_C 	C 	0.1816	0.8143	0.4165	-0.236
Mof_H 	H 	0.2145	0.8201	0.5091	0.105
Mof_C 	C 	0.2415	0.9089	0.3039	-0.21
Mof_H 	H 	0.2358	0.9389	0.388	0.087
Mof_H 	H 	0.2886	0.8875	0.333	0.09
Mof_C 	C 	0.0829	0.7948	0.1571	0.127
Mof_H 	H 	0.0491	0.7884	0.0661	-0.052
Mof_C 	C 	0.5025	0.1522	0.6179	0.185
Mof_C 	C 	0.2423	0.949	0.1688	-0.129
Mof_H 	H 	0.1959	0.9716	0.1411	0.054
Mof_H 	H 	0.2471	0.9192	0.0837	0.059
Mof_Zn	Zn	5.21293e-34	0.67525	0.25	1.165
Mof_Zn	Zn	0.5	0.17525	0.25	1.181
Mof_N 	N 	0.9126	0.401	0.7172	-0.25
Mof_C 	C 	0.7955	0.4367	0.7546	-0.2
Mof_H 	H 	0.753	0.4268	0.79	0.089
Mof_N 	N 	0.5813	0.746	0.7752	-0.276
Mof_C 	C 	0.6849	0.6445	0.792	0.178
Mof_C 	C 	0.865	0.5086	0.6342	-0.211
Mof_H 	H 	0.8726	0.5498	0.5896	0.105
Mof_N 	N 	0.0032	0.3323	0.9962	-0.297
Mof_C 	C 	0.8516	0.3901	0.7716	0.101
Mof_H 	H 	0.8466	0.3498	0.8227	-0.023
Mof_C 	C 	0.6296	0.7353	0.9044	0.134
Mof_H 	H 	0.6283	0.7624	0.9902	-0.038
Mof_C 	C 	0.632	0.6539	0.6622	-0.231
Mof_H 	H 	0.6295	0.6252	0.5775	0.103
Mof_N 	N 	0.015	0.3752	0.261	-0.335
Mof_C 	C 	0.803	0.4975	0.6852	0.14
Mof_C 	C 	0.9169	0.4598	0.6476	0.124
Mof_H 	H 	0.9578	0.4682	0.6053	-0.011
Mof_C 	C 	0.6816	0.6857	0.9165	-0.241
Mof_H 	H 	0.7145	0.6799	0.0091	0.11
Mof_C 	C 	0.7415	0.5911	0.8039	-0.207
Mof_H 	H 	0.7358	0.5611	0.888	0.087
Mof_H 	H 	0.7886	0.6125	0.833	0.088
Mof_C 	C 	0.5829	0.7052	0.6571	0.131
Mof_H 	H 	0.5491	0.7116	0.5661	-0.038
Mof_C 	C 	0.0025	0.3478	0.1179	0.131
Mof_C 	C 	0.7423	0.551	0.6688	-0.135
Mof_H 	H 	0.6959	0.5284	0.6411	0.059
Mof_H 	H 	0.7471	0.5808	0.5837	0.061
Mof_N 	N 	0.4126	0.901	0.7172	-0.261
Mof_C 	C 	0.2955	0.9367	0.7546	-0.199
Mof_H 	H 	0.253	0.9268	0.79	0.086
Mof_N 	N 	0.0813	0.246	0.7752	-0.283
Mof_C 	C 	0.1849	0.1445	0.792	0.177
Mof_C 	C 	0.365	0.0086	0.6342	-0.212
Mof_H 	H 	0.3726	0.0498	0.5896	0.105
Mof_N 	N 	0.5032	0.8323	0.9962	-0.296
Mof_C 	C 	0.3516	0.8901	0.7716	0.099
Mof_H 	H 	0.3466	0.8498	0.8227	-0.026
Mof_C 	C 	0.1296	0.2353	0.9044	0.128
Mof_H 	H 	0.1283	0.2624	0.9902	-0.038
Mof_C 	C 	0.132	0.1539	0.6622	-0.235
Mof_H 	H 	0.1295	0.1252	0.5775	0.099
Mof_N 	N 	0.515	0.8752	0.261	-0.104
Mof_C 	C 	0.303	0.9975	0.6852	0.138
Mof_C 	C 	0.4169	0.9598	0.6476	0.124
Mof_H 	H 	0.4578	0.9682	0.6053	-0.027
Mof_C 	C 	0.1816	0.1857	0.9165	-0.239
Mof_H 	H 	0.2145	0.1799	0.0091	0.107
Mof_C 	C 	0.2415	0.0911	0.8039	-0.211
Mof_H 	H 	0.2358	0.0611	0.888	0.087
Mof_H 	H 	0.2886	0.1125	0.833	0.09
Mof_C 	C 	0.0829	0.2052	0.6571	0.128
Mof_H 	H 	0.0491	0.2116	0.5661	-0.053
Mof_C 	C 	0.5025	0.8478	0.1179	0.188
Mof_C 	C 	0.2423	0.051	0.6688	-0.129
Mof_H 	H 	0.1959	0.0284	0.6411	0.054
Mof_H 	H 	0.2471	0.0808	0.5837	0.058
Mof_N 	N 	0.0874	0.401	0.7828	-0.27
Mof_C 	C 	0.2045	0.4367	0.7454	-0.205
Mof_H 	H 	0.247	0.4268	0.71	0.091
Mof_N 	N 	0.4187	0.746	0.7248	-0.275
Mof_C 	C 	0.3151	0.6445	0.708	0.175
Mof_C 	C 	0.135	0.5086	0.8658	-0.221
Mof_H 	H 	0.1274	0.5498	0.9104	0.107
Mof_N 	N 	0.9968	0.3323	0.5038	-0.288
Mof_C 	C 	0.1484	0.3901	0.7284	0.101
Mof_H 	H 	0.1534	0.3498	0.6773	-0.029
Mof_C 	C 	0.3704	0.7353	0.5956	0.13
Mof_H 	H 	0.3717	0.7624	0.5098	-0.035
Mof_C 	C 	0.368	0.6539	0.8378	-0.228
Mof_H 	H 	0.3705	0.6252	0.9225	0.102
Mof_N 	N 	0.985	0.3752	0.239	0.127
Mof_C 	C 	0.197	0.4975	0.8148	0.146
Mof_C 	C 	0.0831	0.4598	0.8524	0.129
Mof_H 	H 	0.0422	0.4682	0.8947	-0.043
Mof_C 	C 	0.3184	0.6857	0.5835	-0.233
Mof_H 	H 	0.2855	0.6799	0.4909	0.106
Mof_C 	C 	0.2585	0.5911	0.6961	-0.205
Mof_H 	H 	0.2642	0.5611	0.612	0.087
Mof_H 	H 	0.2114	0.6125	0.667	0.089
Mof_C 	C 	0.4171	0.7052	0.8429	0.129
Mof_H 	H 	0.4509	0.7116	0.9339	-0.038
Mof_C 	C 	0.9975	0.3478	0.3821	0.241
Mof_C 	C 	0.2577	0.551	0.8312	-0.138
Mof_H 	H 	0.3041	0.5284	0.8589	0.06
Mof_H 	H 	0.2529	0.5808	0.9163	0.062
Mof_N 	N 	0.5874	0.901	0.7828	-0.262
Mof_C 	C 	0.7045	0.9367	0.7454	-0.204
Mof_H 	H 	0.747	0.9268	0.71	0.092
Mof_N 	N 	0.9187	0.246	0.7248	-0.264
Mof_C 	C 	0.8151	0.1445	0.708	0.175
Mof_C 	C 	0.635	0.0086	0.8658	-0.217
Mof_H 	H 	0.6274	0.0498	0.9104	0.106
Mof_N 	N 	0.4968	0.8323	0.5038	-0.294
Mof_C 	C 	0.6484	0.8901	0.7284	0.102
Mof_H 	H 	0.6534	0.8498	0.6773	-0.026
Mof_C 	C 	0.8704	0.2353	0.5956	0.133
Mof_H 	H 	0.8717	0.2624	0.5098	-0.033
Mof_C 	C 	0.868	0.1539	0.8378	-0.223
Mof_H 	H 	0.8705	0.1252	0.9225	0.106
Mof_N 	N 	0.485	0.8752	0.239	-0.105
Mof_C 	C 	0.697	0.9975	0.8148	0.145
Mof_C 	C 	0.5831	0.9598	0.8524	0.126
Mof_H 	H 	0.5422	0.9682	0.8947	-0.028
Mof_C 	C 	0.8184	0.1857	0.5835	-0.23
Mof_H 	H 	0.7855	0.1799	0.4909	0.106
Mof_C 	C 	0.7585	0.0911	0.6961	-0.201
Mof_H 	H 	0.7642	0.0611	0.612	0.088
Mof_H 	H 	0.7114	0.1125	0.667	0.087
Mof_C 	C 	0.9171	0.2052	0.8429	0.132
Mof_H 	H 	0.9509	0.2116	0.9339	-0.022
Mof_C 	C 	0.4975	0.8478	0.3821	0.186
Mof_C 	C 	0.7577	0.051	0.8312	-0.141
Mof_H 	H 	0.8041	0.0284	0.8589	0.065
Mof_H 	H 	0.7529	0.0808	0.9163	0.063
Mof_Zn	Zn	1.76899e-17	0.32475	0.75	1.165
Mof_Zn	Zn	0.5	0.82475	0.75	1.181
_end
