data_functionalizedCrystal
_audit_creation_method	'EQeq! by Chris Wilmer'
_symmetry_space_group_name_H-M	'P1'
_symmetry_Int_Tables_number	1
_symmetry_cell_setting	triclinic
loop_
_symmetry_equiv_pos_as_xyz
  x,y,z
_cell_length_a	10.117
_cell_length_b	16.767
_cell_length_c	22.415
_cell_angle_alpha	90
_cell_angle_beta	90
_cell_angle_gamma	90
loop_
_atom_site_label
_atom_site_type_symbol
_atom_site_fract_x
_atom_site_fract_y
_atom_site_fract_z
_atom_site_charge
Mof_Co	Co	0.9815	0.88472	0.63937	1.188
Mof_Co	Co	0.7674	0.83612	0.75616	1.091
Mof_O 	O 	0.0013	0.9776	0.9508	-0.277
Mof_O 	O 	0.9503	0.8925	0.7368	-0.527
Mof_O 	O 	0.0155	0.9944	0.6873	-0.382
Mof_O 	O 	0.1565	0.2387	0.7863	-0.469
Mof_O 	O 	0.05	0.2699	0.8711	-0.436
Mof_O 	O 	0.3898	0.079	0.0692	-0.361
Mof_O 	O 	0.3047	0.1335	0.1491	-0.357
Mof_O 	O 	0.691	0.0774	0.104	-0.42
Mof_O 	O 	0.818	0.118	0.1811	-0.493
Mof_C 	C 	0.015	0.0188	0.8982	0.19
Mof_C 	C 	0.997	0.9761	0.8471	-0.128
Mof_H 	H 	0.972	0.9229	0.8502	0.056
Mof_C 	C 	0.0135	0.0074	0.7932	-0.059
Mof_C 	C 	0.0517	0.0865	0.7888	-0.021
Mof_H 	H 	0.0678	0.1086	0.7515	0.052
Mof_C 	C 	0.0663	0.1332	0.84	-0.041
Mof_C 	C 	0.043	0.0986	0.8946	-0.139
Mof_H 	H 	0.0462	0.1294	0.929	0.097
Mof_C 	C 	0.017	0.0192	0.0028	0.198
Mof_C 	C 	0.9077	0.0388	0.0379	-0.141
Mof_H 	H 	0.8237	0.0276	0.0233	0.102
Mof_C 	C 	0.9182	0.0728	0.0913	-0.018
Mof_C 	C 	0.045	0.0941	0.113	-0.06
Mof_H 	H 	0.0544	0.1192	0.1498	0.064
Mof_C 	C 	0.1566	0.0761	0.0777	0.012
Mof_C 	C 	0.1436	0.0383	0.0257	-0.16
Mof_H 	H 	0.2187	0.0243	0.0041	0.108
Mof_C 	C 	0.9902	0.9638	0.7359	0.325
Mof_C 	C 	0.0926	0.2207	0.8323	0.363
Mof_C 	C 	0.8015	0.0916	0.1315	0.364
Mof_C 	C 	0.2929	0.0978	0.1017	0.277
Mof_Co	Co	0.5185	0.11528	0.13937	1.189
Mof_Co	Co	0.7326	0.16388	0.25616	1.091
Mof_O 	O 	0.4987	0.0224	0.4508	-0.281
Mof_O 	O 	0.5497	0.1075	0.2368	-0.528
Mof_O 	O 	0.4845	0.0056	0.1873	-0.385
Mof_O 	O 	0.3435	0.7613	0.2863	-0.469
Mof_O 	O 	0.45	0.7301	0.3711	-0.436
Mof_O 	O 	0.1102	0.921	0.5692	-0.36
Mof_O 	O 	0.1953	0.8665	0.6491	-0.356
Mof_O 	O 	0.809	0.9226	0.604	-0.421
Mof_O 	O 	0.682	0.882	0.6811	-0.493
Mof_C 	C 	0.485	0.9812	0.3982	0.191
Mof_C 	C 	0.503	0.0239	0.3471	-0.126
Mof_H 	H 	0.528	0.0771	0.3502	0.056
Mof_C 	C 	0.4865	0.9926	0.2932	-0.062
Mof_C 	C 	0.4483	0.9135	0.2888	-0.019
Mof_H 	H 	0.4322	0.8914	0.2515	0.052
Mof_C 	C 	0.4337	0.8668	0.34	-0.041
Mof_C 	C 	0.457	0.9014	0.3946	-0.139
Mof_H 	H 	0.4538	0.8706	0.429	0.098
Mof_C 	C 	0.483	0.9808	0.5028	0.203
Mof_C 	C 	0.5923	0.9612	0.5379	-0.146
Mof_H 	H 	0.6763	0.9724	0.5233	0.103
Mof_C 	C 	0.5818	0.9272	0.5913	-0.02
Mof_C 	C 	0.455	0.9059	0.613	-0.058
Mof_H 	H 	0.4456	0.8808	0.6498	0.064
Mof_C 	C 	0.3434	0.9239	0.5777	0.012
Mof_C 	C 	0.3564	0.9617	0.5257	-0.162
Mof_H 	H 	0.2813	0.9757	0.5041	0.109
Mof_C 	C 	0.5098	0.0362	0.2359	0.33
Mof_C 	C 	0.4074	0.7793	0.3323	0.363
Mof_C 	C 	0.6985	0.9084	0.6315	0.364
Mof_C 	C 	0.2071	0.9022	0.6017	0.276
Mof_Co	Co	0.0185	0.38472	0.86063	1.189
Mof_Co	Co	0.2326	0.33612	0.74384	1.091
Mof_O 	O 	0.9987	0.4776	0.5492	-0.282
Mof_O 	O 	0.0497	0.3925	0.7632	-0.527
Mof_O 	O 	0.9845	0.4944	0.8127	-0.384
Mof_O 	O 	0.8435	0.7387	0.7137	-0.469
Mof_O 	O 	0.95	0.7699	0.6289	-0.436
Mof_O 	O 	0.6102	0.579	0.4308	-0.361
Mof_O 	O 	0.6953	0.6335	0.3509	-0.357
Mof_O 	O 	0.309	0.5774	0.396	-0.42
Mof_O 	O 	0.182	0.618	0.3189	-0.493
Mof_C 	C 	0.985	0.5188	0.6018	0.195
Mof_C 	C 	0.003	0.4761	0.6529	-0.131
Mof_H 	H 	0.028	0.4229	0.6498	0.057
Mof_C 	C 	0.9865	0.5074	0.7068	-0.057
Mof_C 	C 	0.9483	0.5865	0.7112	-0.022
Mof_H 	H 	0.9322	0.6086	0.7485	0.053
Mof_C 	C 	0.9337	0.6332	0.66	-0.039
Mof_C 	C 	0.957	0.5986	0.6054	-0.142
Mof_H 	H 	0.9538	0.6294	0.571	0.099
Mof_C 	C 	0.983	0.5192	0.4972	0.204
Mof_C 	C 	0.0923	0.5388	0.4621	-0.146
Mof_H 	H 	0.1763	0.5276	0.4767	0.104
Mof_C 	C 	0.0818	0.5728	0.4087	-0.018
Mof_C 	C 	0.955	0.5941	0.387	-0.059
Mof_H 	H 	0.9456	0.6192	0.3502	0.064
Mof_C 	C 	0.8434	0.5761	0.4223	0.013
Mof_C 	C 	0.8564	0.5383	0.4743	-0.163
Mof_H 	H 	0.7813	0.5243	0.4959	0.109
Mof_C 	C 	0.0098	0.4638	0.7641	0.327
Mof_C 	C 	0.9074	0.7207	0.6677	0.362
Mof_C 	C 	0.1985	0.5916	0.3685	0.363
Mof_C 	C 	0.7071	0.5978	0.3983	0.276
Mof_Co	Co	0.4815	0.61528	0.36063	1.189
Mof_Co	Co	0.2674	0.66388	0.24384	1.091
Mof_O 	O 	0.5013	0.5224	0.0492	-0.282
Mof_O 	O 	0.4503	0.6075	0.2632	-0.527
Mof_O 	O 	0.5155	0.5056	0.3127	-0.385
Mof_O 	O 	0.6565	0.2613	0.2137	-0.468
Mof_O 	O 	0.55	0.2301	0.1289	-0.435
Mof_O 	O 	0.8898	0.421	0.9308	-0.361
Mof_O 	O 	0.8047	0.3665	0.8509	-0.357
Mof_O 	O 	0.191	0.4226	0.896	-0.42
Mof_O 	O 	0.318	0.382	0.8189	-0.493
Mof_C 	C 	0.515	0.4812	0.1018	0.195
Mof_C 	C 	0.497	0.5239	0.1529	-0.131
Mof_H 	H 	0.472	0.5771	0.1498	0.057
Mof_C 	C 	0.5135	0.4926	0.2068	-0.057
Mof_C 	C 	0.5517	0.4135	0.2112	-0.022
Mof_H 	H 	0.5678	0.3914	0.2485	0.053
Mof_C 	C 	0.5663	0.3668	0.16	-0.039
Mof_C 	C 	0.543	0.4014	0.1054	-0.142
Mof_H 	H 	0.5462	0.3706	0.071	0.099
Mof_C 	C 	0.517	0.4808	0.9972	0.204
Mof_C 	C 	0.4077	0.4612	0.9621	-0.146
Mof_H 	H 	0.3237	0.4724	0.9767	0.104
Mof_C 	C 	0.4182	0.4272	0.9087	-0.019
Mof_C 	C 	0.545	0.4059	0.887	-0.058
Mof_H 	H 	0.5544	0.3808	0.8502	0.064
Mof_C 	C 	0.6566	0.4239	0.9223	0.013
Mof_C 	C 	0.6436	0.4617	0.9743	-0.163
Mof_H 	H 	0.7187	0.4757	0.9959	0.109
Mof_C 	C 	0.4902	0.5362	0.2641	0.328
Mof_C 	C 	0.5926	0.2793	0.1677	0.362
Mof_C 	C 	0.3015	0.4084	0.8685	0.364
Mof_C 	C 	0.7929	0.4022	0.8983	0.276
_end
