data_functionalizedCrystal
_audit_creation_method	'EQeq! by Chris Wilmer'
_symmetry_space_group_name_H-M	'P1'
_symmetry_Int_Tables_number	1
_symmetry_cell_setting	triclinic
loop_
_symmetry_equiv_pos_as_xyz
  x,y,z
_cell_length_a	8.849
_cell_length_b	13.869
_cell_length_c	10.818
_cell_angle_alpha	90
_cell_angle_beta	90
_cell_angle_gamma	90
loop_
_atom_site_label
_atom_site_type_symbol
_atom_site_fract_x
_atom_site_fract_y
_atom_site_fract_z
_atom_site_charge
Mof_Zn	Zn	0.03756	0.10116	0.32781	1.252
Mof_P 	P 	0.98948	0.07784	0.62516	0.54
Mof_P 	P 	0.82898	0.28392	0.38	0.51
Mof_O 	O 	0.8987	0.20657	0.3008	-0.404
Mof_O 	O 	0.7275	0.24083	0.4823	-0.192
Mof_O 	O 	0.0103	0.04953	0.49304	-0.409
Mof_O 	O 	0.1	0.16304	0.6589	-0.157
Mof_O 	O 	0.016	0.99898	0.7165	-0.404
Mof_O 	O 	0.9595	0.34147	0.4476	-0.168
Mof_O 	O 	0.825	0.11776	0.6469	-0.166
Mof_O 	O 	0.7429	0.3566	0.30376	-0.401
Mof_Zn	Zn	0.96244	0.89884	0.82781	1.251
Mof_P 	P 	0.01052	0.92216	0.12516	0.509
Mof_P 	P 	0.17102	0.71608	0.88	0.509
Mof_O 	O 	0.1013	0.79343	0.8008	-0.393
Mof_O 	O 	0.2725	0.75917	0.9823	-0.172
Mof_O 	O 	0.9897	0.95047	0.99304	-0.383
Mof_O 	O 	0.9	0.83696	0.1589	-0.177
Mof_O 	O 	0.984	0.00102	0.2165	-0.41
Mof_O 	O 	0.0405	0.65853	0.9476	-0.149
Mof_O 	O 	0.175	0.88224	0.1469	-0.184
Mof_O 	O 	0.2571	0.6434	0.80376	-0.392
Mof_Zn	Zn	0.53756	0.39884	0.32781	1.252
Mof_P 	P 	0.48948	0.42216	0.62516	0.541
Mof_P 	P 	0.32898	0.21608	0.38	0.509
Mof_O 	O 	0.3987	0.29343	0.3008	-0.406
Mof_O 	O 	0.2275	0.25917	0.4823	-0.192
Mof_O 	O 	0.5103	0.45047	0.49304	-0.409
Mof_O 	O 	0.6	0.33696	0.6589	-0.158
Mof_O 	O 	0.516	0.50102	0.7165	-0.41
Mof_O 	O 	0.4595	0.15853	0.4476	-0.168
Mof_O 	O 	0.325	0.38224	0.6469	-0.165
Mof_O 	O 	0.2429	0.1434	0.30376	-0.402
Mof_Zn	Zn	0.46244	0.60116	0.82781	1.254
Mof_P 	P 	0.51052	0.57784	0.12516	0.508
Mof_P 	P 	0.67102	0.78392	0.88	0.509
Mof_O 	O 	0.6013	0.70657	0.8008	-0.398
Mof_O 	O 	0.7725	0.74083	0.9823	-0.177
Mof_O 	O 	0.4897	0.54953	0.99304	-0.375
Mof_O 	O 	0.4	0.66304	0.1589	-0.177
Mof_O 	O 	0.484	0.49898	0.2165	-0.415
Mof_O 	O 	0.5405	0.84147	0.9476	-0.154
Mof_O 	O 	0.675	0.61776	0.1469	-0.182
Mof_O 	O 	0.7571	0.8566	0.80376	-0.395
_end
