data_functionalizedCrystal
_audit_creation_method	'EQeq! by Chris Wilmer'
_symmetry_space_group_name_H-M	'P1'
_symmetry_Int_Tables_number	1
_symmetry_cell_setting	triclinic
loop_
_symmetry_equiv_pos_as_xyz
  x,y,z
_cell_length_a	20.916
_cell_length_b	12.296
_cell_length_c	11.204
_cell_angle_alpha	90
_cell_angle_beta	90
_cell_angle_gamma	90
loop_
_atom_site_label
_atom_site_type_symbol
_atom_site_fract_x
_atom_site_fract_y
_atom_site_fract_z
_atom_site_charge
Mof_Ag	Ag	0.22354	0.6325	0.75593	0.472
Mof_C 	C 	0.3554	0.7542	0.6672	0.028
Mof_H 	H 	0.3675	0.6862	0.6295	-0.014
Mof_H 	H 	0.3664	0.7495	0.7511	-0.015
Mof_C 	C 	0.269	0.7771	0.5262	0.024
Mof_H 	H 	0.2808	0.7096	0.4871	-0.008
Mof_H 	H 	0.2233	0.7871	0.5169	-0.013
Mof_C 	C 	0.3737	0.8516	0.483	0.026
Mof_H 	H 	0.3968	0.9109	0.4456	-0.017
Mof_H 	H 	0.3859	0.7846	0.4435	-0.019
Mof_C 	C 	0.2139	0.5283	0.0287	0.014
Mof_H 	H 	0.1909	0.4684	0.9923	-0.002
Mof_H 	H 	0.2593	0.515	0.0188	-0.009
Mof_C 	C 	0.2665	0.8746	0.7125	0.024
Mof_H 	H 	0.2759	0.871	0.7972	-0.011
Mof_H 	H 	0.2209	0.886	0.7032	-0.017
Mof_C 	C 	0.3723	0.9476	0.6705	0.023
Mof_H 	H 	0.3836	0.9442	0.7543	-0.014
Mof_H 	H 	0.3953	0.008	0.635	-0.019
Mof_N 	N 	0.39153	0.8454	0.6113	-0.169
Mof_N 	N 	0.2849	0.77	0.6549	-0.163
Mof_N 	N 	0.1966	0.6305	0.968	-0.156
Mof_N 	N 	0.1984	0.4668	0.6587	-0.164
Mof_Ag	Ag	0.72353	0.1325	0.75593	0.475
Mof_C 	C 	0.8554	0.2542	0.6672	0.022
Mof_H 	H 	0.8675	0.1862	0.6295	-0.008
Mof_H 	H 	0.8664	0.2495	0.7511	-0.009
Mof_C 	C 	0.769	0.2771	0.5262	0.022
Mof_H 	H 	0.7808	0.2096	0.4871	-0.008
Mof_H 	H 	0.7233	0.2871	0.5169	-0.013
Mof_C 	C 	0.8737	0.3516	0.483	0.02
Mof_H 	H 	0.8968	0.4109	0.4456	-0.007
Mof_H 	H 	0.8859	0.2846	0.4435	-0.01
Mof_C 	C 	0.7139	0.0283	0.0287	0.016
Mof_H 	H 	0.6909	0.9684	0.9923	-0.002
Mof_H 	H 	0.7593	0.015	0.0188	-0.007
Mof_C 	C 	0.7665	0.3746	0.7125	0.023
Mof_H 	H 	0.7759	0.371	0.7972	-0.01
Mof_H 	H 	0.7209	0.386	0.7032	-0.016
Mof_C 	C 	0.8723	0.4476	0.6705	0.018
Mof_H 	H 	0.8836	0.4442	0.7543	-0.007
Mof_H 	H 	0.8953	0.508	0.635	-0.01
Mof_N 	N 	0.89153	0.3454	0.6113	-0.157
Mof_N 	N 	0.7849	0.27	0.6549	-0.162
Mof_N 	N 	0.6966	0.1305	0.968	-0.157
Mof_N 	N 	0.6984	0.9668	0.6587	-0.163
Mof_Ag	Ag	0.77646	0.3675	0.25593	0.475
Mof_C 	C 	0.6446	0.2458	0.1672	0.027
Mof_H 	H 	0.6325	0.3138	0.1295	-0.016
Mof_H 	H 	0.6336	0.2505	0.2511	-0.017
Mof_C 	C 	0.731	0.2229	0.0262	0.014
Mof_H 	H 	0.7192	0.2904	0.9871	-0.004
Mof_H 	H 	0.7767	0.2129	0.0169	-0.009
Mof_C 	C 	0.6263	0.1484	0.983	0.028
Mof_H 	H 	0.6032	0.0891	0.9456	-0.017
Mof_H 	H 	0.6141	0.2154	0.9435	-0.018
Mof_C 	C 	0.7861	0.4717	0.5287	0.024
Mof_H 	H 	0.8091	0.5316	0.4923	-0.006
Mof_H 	H 	0.7407	0.485	0.5188	-0.01
Mof_C 	C 	0.7335	0.1254	0.2125	0.022
Mof_H 	H 	0.7241	0.129	0.2972	-0.01
Mof_H 	H 	0.7791	0.114	0.2032	-0.013
Mof_C 	C 	0.6277	0.0524	0.1705	0.026
Mof_H 	H 	0.6164	0.0558	0.2543	-0.015
Mof_H 	H 	0.6047	0.992	0.135	-0.022
Mof_N 	N 	0.60847	0.1546	0.1113	-0.17
Mof_N 	N 	0.7151	0.23	0.1549	-0.162
Mof_N 	N 	0.8034	0.3695	0.468	-0.16
Mof_N 	N 	0.8016	0.5332	0.1587	-0.162
Mof_Ag	Ag	0.27646	0.8675	0.25593	0.468
Mof_C 	C 	0.1446	0.7458	0.1672	0.027
Mof_H 	H 	0.1325	0.8138	0.1295	-0.018
Mof_H 	H 	0.1336	0.7505	0.2511	-0.018
Mof_C 	C 	0.231	0.7229	0.0262	0.011
Mof_H 	H 	0.2192	0.7904	0.9871	-0.003
Mof_H 	H 	0.2767	0.7129	0.0169	-0.011
Mof_C 	C 	0.1263	0.6484	0.983	0.031
Mof_H 	H 	0.1032	0.5891	0.9456	-0.019
Mof_H 	H 	0.1141	0.7154	0.9435	-0.021
Mof_C 	C 	0.2861	0.9717	0.5287	0.025
Mof_H 	H 	0.3091	0.0316	0.4923	-0.007
Mof_H 	H 	0.2407	0.985	0.5188	-0.011
Mof_C 	C 	0.2335	0.6254	0.2125	0.023
Mof_H 	H 	0.2241	0.629	0.2972	-0.011
Mof_H 	H 	0.2791	0.614	0.2032	-0.016
Mof_C 	C 	0.1277	0.5524	0.1705	0.024
Mof_H 	H 	0.1164	0.5558	0.2543	-0.016
Mof_H 	H 	0.1047	0.492	0.135	-0.023
Mof_N 	N 	0.10847	0.6546	0.1113	-0.169
Mof_N 	N 	0.2151	0.73	0.1549	-0.162
Mof_N 	N 	0.3034	0.8695	0.468	-0.161
Mof_N 	N 	0.3016	0.0332	0.1587	-0.163
Mof_Ag	Ag	0.22354	0.3675	0.25593	0.468
Mof_C 	C 	0.3554	0.2458	0.1672	0.027
Mof_H 	H 	0.3675	0.3138	0.1295	-0.016
Mof_H 	H 	0.3664	0.2505	0.2511	-0.017
Mof_C 	C 	0.269	0.2229	0.0262	0.014
Mof_H 	H 	0.2808	0.2904	0.9871	-0.004
Mof_H 	H 	0.2233	0.2129	0.0169	-0.012
Mof_C 	C 	0.3737	0.1484	0.983	0.028
Mof_H 	H 	0.3968	0.0891	0.9456	-0.017
Mof_H 	H 	0.3859	0.2154	0.9435	-0.018
Mof_C 	C 	0.2139	0.4717	0.5287	0.025
Mof_H 	H 	0.1909	0.5316	0.4923	-0.008
Mof_H 	H 	0.2593	0.485	0.5188	-0.011
Mof_C 	C 	0.2665	0.1254	0.2125	0.024
Mof_H 	H 	0.2759	0.129	0.2972	-0.011
Mof_H 	H 	0.2209	0.114	0.2032	-0.017
Mof_C 	C 	0.3723	0.0524	0.1705	0.026
Mof_H 	H 	0.3836	0.0558	0.2543	-0.015
Mof_H 	H 	0.3953	0.992	0.135	-0.022
Mof_N 	N 	0.39153	0.1546	0.1113	-0.17
Mof_N 	N 	0.2849	0.23	0.1549	-0.162
Mof_N 	N 	0.1966	0.3695	0.468	-0.161
Mof_N 	N 	0.1984	0.5332	0.1587	-0.163
Mof_Ag	Ag	0.72353	0.8675	0.25593	0.472
Mof_C 	C 	0.8554	0.7458	0.1672	0.022
Mof_H 	H 	0.8675	0.8138	0.1295	-0.009
Mof_H 	H 	0.8664	0.7505	0.2511	-0.009
Mof_C 	C 	0.769	0.7229	0.0262	0.011
Mof_H 	H 	0.7808	0.7904	0.9871	-0.002
Mof_H 	H 	0.7233	0.7129	0.0169	-0.011
Mof_C 	C 	0.8737	0.6484	0.983	0.023
Mof_H 	H 	0.8968	0.5891	0.9456	-0.007
Mof_H 	H 	0.8859	0.7154	0.9435	-0.01
Mof_C 	C 	0.7139	0.9717	0.5287	0.024
Mof_H 	H 	0.6909	0.0316	0.4923	-0.007
Mof_H 	H 	0.7593	0.985	0.5188	-0.009
Mof_C 	C 	0.7665	0.6254	0.2125	0.023
Mof_H 	H 	0.7759	0.629	0.2972	-0.01
Mof_H 	H 	0.7209	0.614	0.2032	-0.016
Mof_C 	C 	0.8723	0.5524	0.1705	0.018
Mof_H 	H 	0.8836	0.5558	0.2543	-0.007
Mof_H 	H 	0.8953	0.492	0.135	-0.011
Mof_N 	N 	0.89153	0.6546	0.1113	-0.158
Mof_N 	N 	0.7849	0.73	0.1549	-0.161
Mof_N 	N 	0.6966	0.8695	0.468	-0.16
Mof_N 	N 	0.6984	0.0332	0.1587	-0.162
Mof_Ag	Ag	0.77646	0.6325	0.75593	0.477
Mof_C 	C 	0.6446	0.7542	0.6672	0.027
Mof_H 	H 	0.6325	0.6862	0.6295	-0.015
Mof_H 	H 	0.6336	0.7495	0.7511	-0.016
Mof_C 	C 	0.731	0.7771	0.5262	0.022
Mof_H 	H 	0.7192	0.7096	0.4871	-0.009
Mof_H 	H 	0.7767	0.7871	0.5169	-0.011
Mof_C 	C 	0.6263	0.8516	0.483	0.025
Mof_H 	H 	0.6032	0.9109	0.4456	-0.017
Mof_H 	H 	0.6141	0.7846	0.4435	-0.019
Mof_C 	C 	0.7861	0.5283	0.0287	0.014
Mof_H 	H 	0.8091	0.4684	0.9923	-0.001
Mof_H 	H 	0.7407	0.515	0.0188	-0.009
Mof_C 	C 	0.7335	0.8746	0.7125	0.022
Mof_H 	H 	0.7241	0.871	0.7972	-0.01
Mof_H 	H 	0.7791	0.886	0.7032	-0.013
Mof_C 	C 	0.6277	0.9476	0.6705	0.023
Mof_H 	H 	0.6164	0.9442	0.7543	-0.014
Mof_H 	H 	0.6047	0.008	0.635	-0.019
Mof_N 	N 	0.60847	0.8454	0.6113	-0.169
Mof_N 	N 	0.7151	0.77	0.6549	-0.162
Mof_N 	N 	0.8034	0.6305	0.968	-0.156
Mof_N 	N 	0.8016	0.4668	0.6587	-0.163
Mof_Ag	Ag	0.27646	0.1325	0.75593	0.471
Mof_C 	C 	0.1446	0.2542	0.6672	0.027
Mof_H 	H 	0.1325	0.1862	0.6295	-0.017
Mof_H 	H 	0.1336	0.2495	0.7511	-0.018
Mof_C 	C 	0.231	0.2771	0.5262	0.023
Mof_H 	H 	0.2192	0.2096	0.4871	-0.01
Mof_H 	H 	0.2767	0.2871	0.5169	-0.013
Mof_C 	C 	0.1263	0.3516	0.483	0.027
Mof_H 	H 	0.1032	0.4109	0.4456	-0.019
Mof_H 	H 	0.1141	0.2846	0.4435	-0.021
Mof_C 	C 	0.2861	0.0283	0.0287	0.016
Mof_H 	H 	0.3091	0.9684	0.9923	-0.002
Mof_H 	H 	0.2407	0.015	0.0188	-0.01
Mof_C 	C 	0.2335	0.3746	0.7125	0.024
Mof_H 	H 	0.2241	0.371	0.7972	-0.011
Mof_H 	H 	0.2791	0.386	0.7032	-0.015
Mof_C 	C 	0.1277	0.4476	0.6705	0.025
Mof_H 	H 	0.1164	0.4442	0.7543	-0.016
Mof_H 	H 	0.1047	0.508	0.635	-0.022
Mof_N 	N 	0.10847	0.3454	0.6113	-0.167
Mof_N 	N 	0.2151	0.27	0.6549	-0.163
Mof_N 	N 	0.3034	0.1305	0.968	-0.158
Mof_N 	N 	0.3016	0.9668	0.6587	-0.163
Mof_Ag	Ag	0.5	0.83056	0.63046	0.41
Mof_Ag	Ag	5.64654e-33	0.33056	0.63046	0.362
Mof_Ag	Ag	0.5	0.16944	0.13046	0.407
Mof_Ag	Ag	-3.57075e-33	0.66944	0.13046	0.358
_end
