data_functionalizedCrystal
_audit_creation_method	'EQeq! by Chris Wilmer'
_symmetry_space_group_name_H-M	'P1'
_symmetry_Int_Tables_number	1
_symmetry_cell_setting	triclinic
loop_
_symmetry_equiv_pos_as_xyz
  x,y,z
_cell_length_a	9.1502
_cell_length_b	9.3039
_cell_length_c	9.3039
_cell_angle_alpha	76.0066
_cell_angle_beta	60.5448
_cell_angle_gamma	60.5448
loop_
_atom_site_label
_atom_site_type_symbol
_atom_site_fract_x
_atom_site_fract_y
_atom_site_fract_z
_atom_site_charge
Mof_Rb	Rb	0.125	0.75	0.75	2.739
Mof_Rb	Rb	0.875	0.25	0.25	2.739
Mof_Y 	Y 	0.625	0.75	0.75	1.22
Mof_Y 	Y 	0.375	0.25	0.25	1.22
Mof_C 	C 	0.606	0.974	0.984	0.092
Mof_C 	C 	0.064	0.526	0.516	0.091
Mof_C 	C 	0.59	0.016	0.474	0.092
Mof_C 	C 	0.58	0.484	0.026	0.09
Mof_C 	C 	0.394	0.026	0.016	0.092
Mof_C 	C 	0.936	0.474	0.484	0.091
Mof_C 	C 	0.41	0.984	0.526	0.092
Mof_C 	C 	0.42	0.516	0.974	0.09
Mof_O 	O 	0.7265	0.883	0.857	-0.635
Mof_O 	O 	0.6382	0.137	0.957	-0.443
Mof_O 	O 	0.9665	0.617	0.643	-0.632
Mof_O 	O 	0.2322	0.363	0.543	-0.444
Mof_O 	O 	0.5835	0.143	0.383	-0.642
Mof_O 	O 	0.5952	0.043	0.637	-0.446
Mof_O 	O 	0.6095	0.357	0.117	-0.643
Mof_O 	O 	0.7752	0.457	0.863	-0.439
Mof_O 	O 	0.2735	0.117	0.143	-0.635
Mof_O 	O 	0.3618	0.863	0.043	-0.443
Mof_O 	O 	0.0335	0.383	0.357	-0.632
Mof_O 	O 	0.7678	0.637	0.457	-0.444
Mof_O 	O 	0.4165	0.857	0.617	-0.642
Mof_O 	O 	0.4048	0.957	0.363	-0.446
Mof_O 	O 	0.3905	0.643	0.883	-0.643
Mof_O 	O 	0.2248	0.543	0.137	-0.439
_end
