data_functionalizedCrystal
_audit_creation_method	'EQeq! by Chris Wilmer'
_symmetry_space_group_name_H-M	'P1'
_symmetry_Int_Tables_number	1
_symmetry_cell_setting	triclinic
loop_
_symmetry_equiv_pos_as_xyz
  x,y,z
_cell_length_a	9.1928
_cell_length_b	14.209
_cell_length_c	32.2971
_cell_angle_alpha	90
_cell_angle_beta	90
_cell_angle_gamma	90
loop_
_atom_site_label
_atom_site_type_symbol
_atom_site_fract_x
_atom_site_fract_y
_atom_site_fract_z
_atom_site_charge
Mof_P 	P 	0.394	0.0656	0.55978	0.605
Mof_O 	O 	0.2784	0.1295	0.5819	-0.551
Mof_O 	O 	0.5135	0.0389	0.5907	-0.447
Mof_O 	O 	0.4475	0.1256	0.5236	-0.451
Mof_O 	O 	0.319	0.9777	0.5448	-0.416
Mof_P 	P 	0.394	0.5656	0.05978	0.607
Mof_O 	O 	0.2784	0.6295	0.0819	-0.551
Mof_O 	O 	0.5135	0.5389	0.0907	-0.446
Mof_O 	O 	0.4475	0.6256	0.0236	-0.45
Mof_O 	O 	0.319	0.4777	0.0448	-0.417
Mof_P 	P 	0.894	0.0656	0.05978	0.611
Mof_O 	O 	0.7784	0.1295	0.0819	-0.551
Mof_O 	O 	0.0135	0.0389	0.0907	-0.45
Mof_O 	O 	0.9475	0.1256	0.0236	-0.449
Mof_O 	O 	0.819	0.9777	0.0448	-0.419
Mof_P 	P 	0.894	0.5656	0.55978	0.607
Mof_O 	O 	0.7784	0.6295	0.5819	-0.551
Mof_O 	O 	0.0135	0.5389	0.5907	-0.446
Mof_O 	O 	0.9475	0.6256	0.5236	-0.45
Mof_O 	O 	0.819	0.4777	0.5448	-0.417
Mof_P 	P 	0.356	0.6844	0.55978	0.607
Mof_O 	O 	0.4716	0.6205	0.5819	-0.551
Mof_O 	O 	0.2365	0.7111	0.5907	-0.446
Mof_O 	O 	0.3025	0.6244	0.5236	-0.45
Mof_O 	O 	0.431	0.7723	0.5448	-0.417
Mof_P 	P 	0.356	0.1844	0.05978	0.607
Mof_O 	O 	0.4716	0.1205	0.0819	-0.551
Mof_O 	O 	0.2365	0.2111	0.0907	-0.447
Mof_O 	O 	0.3025	0.1244	0.0236	-0.45
Mof_O 	O 	0.431	0.2723	0.0448	-0.417
Mof_P 	P 	0.856	0.6844	0.05978	0.607
Mof_O 	O 	0.9716	0.6205	0.0819	-0.551
Mof_O 	O 	0.7365	0.7111	0.0907	-0.446
Mof_O 	O 	0.8025	0.6244	0.0236	-0.45
Mof_O 	O 	0.931	0.7723	0.0448	-0.418
Mof_P 	P 	0.856	0.1844	0.55978	0.607
Mof_O 	O 	0.9716	0.1205	0.5819	-0.548
Mof_O 	O 	0.7365	0.2111	0.5907	-0.446
Mof_O 	O 	0.8025	0.1244	0.5236	-0.449
Mof_O 	O 	0.931	0.2723	0.5448	-0.416
Mof_P 	P 	0.356	0.0656	0.19022	0.606
Mof_O 	O 	0.4716	0.1295	0.1681	-0.551
Mof_O 	O 	0.2365	0.0389	0.1593	-0.447
Mof_O 	O 	0.3025	0.1256	0.2264	-0.45
Mof_O 	O 	0.431	0.9777	0.2052	-0.417
Mof_P 	P 	0.356	0.5656	0.69022	0.607
Mof_O 	O 	0.4716	0.6295	0.6681	-0.551
Mof_O 	O 	0.2365	0.5389	0.6593	-0.446
Mof_O 	O 	0.3025	0.6256	0.7264	-0.45
Mof_O 	O 	0.431	0.4777	0.7052	-0.417
Mof_P 	P 	0.856	0.0656	0.69022	0.609
Mof_O 	O 	0.9716	0.1295	0.6681	-0.548
Mof_O 	O 	0.7365	0.0389	0.6593	-0.446
Mof_O 	O 	0.8025	0.1256	0.7264	-0.449
Mof_O 	O 	0.931	0.9777	0.7052	-0.42
Mof_P 	P 	0.856	0.5656	0.19022	0.607
Mof_O 	O 	0.9716	0.6295	0.1681	-0.551
Mof_O 	O 	0.7365	0.5389	0.1593	-0.446
Mof_O 	O 	0.8025	0.6256	0.2264	-0.45
Mof_O 	O 	0.931	0.4777	0.2052	-0.417
Mof_P 	P 	0.394	0.6844	0.19022	0.607
Mof_O 	O 	0.2784	0.6205	0.1681	-0.551
Mof_O 	O 	0.5135	0.7111	0.1593	-0.446
Mof_O 	O 	0.4475	0.6244	0.2264	-0.45
Mof_O 	O 	0.319	0.7723	0.2052	-0.417
Mof_P 	P 	0.394	0.1844	0.69022	0.607
Mof_O 	O 	0.2784	0.1205	0.6681	-0.55
Mof_O 	O 	0.5135	0.2111	0.6593	-0.446
Mof_O 	O 	0.4475	0.1244	0.7264	-0.45
Mof_O 	O 	0.319	0.2723	0.7052	-0.417
Mof_P 	P 	0.894	0.6844	0.69022	0.606
Mof_O 	O 	0.7784	0.6205	0.6681	-0.551
Mof_O 	O 	0.0135	0.7111	0.6593	-0.445
Mof_O 	O 	0.9475	0.6244	0.7264	-0.45
Mof_O 	O 	0.819	0.7723	0.7052	-0.417
Mof_P 	P 	0.894	0.1844	0.19022	0.609
Mof_O 	O 	0.7784	0.1205	0.1681	-0.55
Mof_O 	O 	0.0135	0.2111	0.1593	-0.448
Mof_O 	O 	0.9475	0.1244	0.2264	-0.448
Mof_O 	O 	0.819	0.2723	0.2052	-0.417
Mof_P 	P 	0.606	0.9344	0.44022	0.606
Mof_O 	O 	0.7216	0.8705	0.4181	-0.55
Mof_O 	O 	0.4865	0.9611	0.4093	-0.446
Mof_O 	O 	0.5525	0.8744	0.4764	-0.45
Mof_O 	O 	0.681	0.0223	0.4552	-0.416
Mof_P 	P 	0.606	0.4344	0.94022	0.607
Mof_O 	O 	0.7216	0.3705	0.9181	-0.551
Mof_O 	O 	0.4865	0.4611	0.9093	-0.446
Mof_O 	O 	0.5525	0.3744	0.9764	-0.45
Mof_O 	O 	0.681	0.5223	0.9552	-0.417
Mof_P 	P 	0.106	0.9344	0.94022	0.611
Mof_O 	O 	0.2216	0.8705	0.9181	-0.551
Mof_O 	O 	0.9865	0.9611	0.9093	-0.45
Mof_O 	O 	0.0525	0.8744	0.9764	-0.449
Mof_O 	O 	0.181	0.0223	0.9552	-0.419
Mof_P 	P 	0.106	0.4344	0.44022	0.607
Mof_O 	O 	0.2216	0.3705	0.4181	-0.551
Mof_O 	O 	0.9865	0.4611	0.4093	-0.446
Mof_O 	O 	0.0525	0.3744	0.4764	-0.45
Mof_O 	O 	0.181	0.5223	0.4552	-0.417
Mof_P 	P 	0.644	0.3156	0.44022	0.607
Mof_O 	O 	0.5284	0.3795	0.4181	-0.551
Mof_O 	O 	0.7635	0.2889	0.4093	-0.446
Mof_O 	O 	0.6975	0.3756	0.4764	-0.45
Mof_O 	O 	0.569	0.2277	0.4552	-0.417
Mof_P 	P 	0.644	0.8156	0.94022	0.607
Mof_O 	O 	0.5284	0.8795	0.9181	-0.551
Mof_O 	O 	0.7635	0.7889	0.9093	-0.447
Mof_O 	O 	0.6975	0.8756	0.9764	-0.45
Mof_O 	O 	0.569	0.7277	0.9552	-0.417
Mof_P 	P 	0.144	0.3156	0.94022	0.607
Mof_O 	O 	0.0284	0.3795	0.9181	-0.551
Mof_O 	O 	0.2635	0.2889	0.9093	-0.446
Mof_O 	O 	0.1975	0.3756	0.9764	-0.45
Mof_O 	O 	0.069	0.2277	0.9552	-0.418
Mof_P 	P 	0.144	0.8156	0.44022	0.607
Mof_O 	O 	0.0284	0.8795	0.4181	-0.548
Mof_O 	O 	0.2635	0.7889	0.4093	-0.446
Mof_O 	O 	0.1975	0.8756	0.4764	-0.449
Mof_O 	O 	0.069	0.7277	0.4552	-0.416
Mof_P 	P 	0.644	0.9344	0.80978	0.606
Mof_O 	O 	0.5284	0.8705	0.8319	-0.551
Mof_O 	O 	0.7635	0.9611	0.8407	-0.447
Mof_O 	O 	0.6975	0.8744	0.7736	-0.45
Mof_O 	O 	0.569	0.0223	0.7948	-0.417
Mof_P 	P 	0.644	0.4344	0.30978	0.607
Mof_O 	O 	0.5284	0.3705	0.3319	-0.551
Mof_O 	O 	0.7635	0.4611	0.3407	-0.446
Mof_O 	O 	0.6975	0.3744	0.2736	-0.45
Mof_O 	O 	0.569	0.5223	0.2948	-0.417
Mof_P 	P 	0.144	0.9344	0.30978	0.609
Mof_O 	O 	0.0284	0.8705	0.3319	-0.548
Mof_O 	O 	0.2635	0.9611	0.3407	-0.446
Mof_O 	O 	0.1975	0.8744	0.2736	-0.449
Mof_O 	O 	0.069	0.0223	0.2948	-0.42
Mof_P 	P 	0.144	0.4344	0.80978	0.607
Mof_O 	O 	0.0284	0.3705	0.8319	-0.551
Mof_O 	O 	0.2635	0.4611	0.8407	-0.446
Mof_O 	O 	0.1975	0.3744	0.7736	-0.45
Mof_O 	O 	0.069	0.5223	0.7948	-0.417
Mof_P 	P 	0.606	0.3156	0.80978	0.607
Mof_O 	O 	0.7216	0.3795	0.8319	-0.551
Mof_O 	O 	0.4865	0.2889	0.8407	-0.446
Mof_O 	O 	0.5525	0.3756	0.7736	-0.45
Mof_O 	O 	0.681	0.2277	0.7948	-0.417
Mof_P 	P 	0.606	0.8156	0.30978	0.607
Mof_O 	O 	0.7216	0.8795	0.3319	-0.55
Mof_O 	O 	0.4865	0.7889	0.3407	-0.446
Mof_O 	O 	0.5525	0.8756	0.2736	-0.45
Mof_O 	O 	0.681	0.7277	0.2948	-0.417
Mof_P 	P 	0.106	0.3156	0.30978	0.606
Mof_O 	O 	0.2216	0.3795	0.3319	-0.551
Mof_O 	O 	0.9865	0.2889	0.3407	-0.445
Mof_O 	O 	0.0525	0.3756	0.2736	-0.45
Mof_O 	O 	0.181	0.2277	0.2948	-0.417
Mof_P 	P 	0.106	0.8156	0.80978	0.609
Mof_O 	O 	0.2216	0.8795	0.8319	-0.55
Mof_O 	O 	0.9865	0.7889	0.8407	-0.448
Mof_O 	O 	0.0525	0.8756	0.7736	-0.448
Mof_O 	O 	0.181	0.7277	0.7948	-0.417
Mof_Nb	Nb	0.125	0.125	0.625	2.607
Mof_Nb	Nb	0.625	0.625	0.625	2.616
Mof_Nb	Nb	0.625	0.125	0.125	2.617
Mof_Nb	Nb	0.125	0.625	0.125	2.618
Mof_Nb	Nb	0.875	0.875	0.375	2.607
Mof_Nb	Nb	0.375	0.375	0.375	2.616
Mof_Nb	Nb	0.375	0.875	0.875	2.617
Mof_Nb	Nb	0.875	0.375	0.875	2.618
Mof_Zn	Zn	0.625	0.125	0.49133	1.235
Mof_Zn	Zn	0.625	0.625	0.99133	1.235
Mof_Zn	Zn	0.125	0.625	0.49133	1.236
Mof_Zn	Zn	0.125	0.125	0.99133	1.235
Mof_Zn	Zn	0.125	0.125	0.25867	1.235
Mof_Zn	Zn	0.125	0.625	0.75867	1.236
Mof_Zn	Zn	0.625	0.625	0.25867	1.235
Mof_Zn	Zn	0.625	0.125	0.75867	1.236
Mof_Zn	Zn	0.375	0.875	0.50867	1.235
Mof_Zn	Zn	0.375	0.375	0.00867	1.235
Mof_Zn	Zn	0.875	0.375	0.50867	1.236
Mof_Zn	Zn	0.875	0.875	0.00867	1.235
Mof_Zn	Zn	0.875	0.875	0.74133	1.235
Mof_Zn	Zn	0.875	0.375	0.24133	1.236
Mof_Zn	Zn	0.375	0.375	0.74133	1.235
Mof_Zn	Zn	0.375	0.875	0.24133	1.236
Mof_Zn	Zn	0.625	0.125	0.625	1.238
Mof_Zn	Zn	0.125	0.625	0.625	1.238
Mof_Zn	Zn	0.125	0.125	0.125	1.238
Mof_Zn	Zn	0.625	0.625	0.125	1.238
Mof_Zn	Zn	0.375	0.875	0.375	1.238
Mof_Zn	Zn	0.875	0.375	0.375	1.238
Mof_Zn	Zn	0.875	0.875	0.875	1.238
Mof_Zn	Zn	0.375	0.375	0.875	1.238
Mof_F 	F 	0.125	0.9896	0.625	-0.646
Mof_F 	F 	0.125	0.4896	0.125	-0.649
Mof_F 	F 	0.625	0.7604	0.625	-0.649
Mof_F 	F 	0.625	0.2604	0.125	-0.649
Mof_F 	F 	0.625	0.9896	0.125	-0.649
Mof_F 	F 	0.625	0.4896	0.625	-0.649
Mof_F 	F 	0.125	0.7604	0.125	-0.648
Mof_F 	F 	0.125	0.2604	0.625	-0.648
Mof_F 	F 	0.875	0.0104	0.375	-0.646
Mof_F 	F 	0.875	0.5104	0.875	-0.649
Mof_F 	F 	0.375	0.2396	0.375	-0.649
Mof_F 	F 	0.375	0.7396	0.875	-0.649
Mof_F 	F 	0.375	0.0104	0.875	-0.649
Mof_F 	F 	0.375	0.5104	0.375	-0.649
Mof_F 	F 	0.875	0.2396	0.875	-0.648
Mof_F 	F 	0.875	0.7396	0.375	-0.648
_end
