data_functionalizedCrystal
_audit_creation_method	'EQeq! by Chris Wilmer'
_symmetry_space_group_name_H-M	'P1'
_symmetry_Int_Tables_number	1
_symmetry_cell_setting	triclinic
loop_
_symmetry_equiv_pos_as_xyz
  x,y,z
_cell_length_a	12.8201
_cell_length_b	12.8201
_cell_length_c	30.2685
_cell_angle_alpha	90
_cell_angle_beta	90
_cell_angle_gamma	90
loop_
_atom_site_label
_atom_site_type_symbol
_atom_site_fract_x
_atom_site_fract_y
_atom_site_fract_z
_atom_site_charge
Mof_Co	Co	0.895	0.9495	0.45963	1.157
Mof_C 	C 	0.1071	0.9156	0.3782	0.719
Mof_C 	C 	0.1503	0.834	0.4087	-0.755
Mof_C 	C 	0.0813	0.8072	0.449	0.303
Mof_C 	C 	0.1463	0.732	0.4765	-0.643
Mof_C 	C 	0.0853	0.6805	0.5135	0.492
Mof_C 	C 	0.9807	0.7511	0.433	0.354
Mof_O 	O 	0.111	0.0101	0.39072	-1.006
Mof_O 	O 	0.0711	0.8886	0.3417	-0.628
Mof_O 	O 	0.0558	0.9002	0.47109	-0.627
Mof_O 	O 	0.8948	0.7971	0.4382	-0.816
Mof_O 	O 	0.9919	0.6659	0.4155	-0.278
Mof_O 	O 	0.0396	0.7345	0.5421	-0.783
Mof_O 	O 	0.0821	0.5813	0.5148	-0.536
Mof_H 	H 	0.2158	0.858	0.4193	0.245
Mof_H 	H 	0.1602	0.772	0.392	0.234
Mof_H 	H 	0.202	0.7705	0.4893	0.187
Mof_H 	H 	0.1738	0.6793	0.4578	0.223
Mof_O 	O 	0.603	0.708	0.4238	-0.27
Mof_O 	O 	0.648	0.662	0.416	-0.335
Mof_Co	Co	0.395	0.4495	0.95963	1.129
Mof_C 	C 	0.6071	0.4156	0.8782	0.622
Mof_C 	C 	0.6503	0.334	0.9087	-0.719
Mof_C 	C 	0.5813	0.3072	0.949	0.36
Mof_C 	C 	0.6463	0.232	0.9765	-0.661
Mof_C 	C 	0.5853	0.1805	0.0135	0.507
Mof_C 	C 	0.4807	0.2511	0.933	0.276
Mof_O 	O 	0.611	0.5101	0.89072	-0.912
Mof_O 	O 	0.5711	0.3886	0.8417	-0.602
Mof_O 	O 	0.5558	0.4002	0.97109	-0.637
Mof_O 	O 	0.3948	0.2971	0.9382	-0.805
Mof_O 	O 	0.4919	0.1659	0.9155	-0.319
Mof_O 	O 	0.5396	0.2345	0.0421	-0.757
Mof_O 	O 	0.5821	0.0813	0.0148	-0.542
Mof_H 	H 	0.7158	0.358	0.9193	0.218
Mof_H 	H 	0.6602	0.272	0.892	0.234
Mof_H 	H 	0.702	0.2705	0.9893	0.188
Mof_H 	H 	0.6738	0.1793	0.9578	0.232
Mof_O 	O 	0.103	0.208	0.9238	-0.293
Mof_O 	O 	0.148	0.162	0.916	-0.357
Mof_Co	Co	0.105	0.0505	0.45963	1.096
Mof_C 	C 	0.8929	0.0844	0.3782	0.526
Mof_C 	C 	0.8497	0.166	0.4087	-0.688
Mof_C 	C 	0.9187	0.1928	0.449	0.424
Mof_C 	C 	0.8537	0.268	0.4765	-0.672
Mof_C 	C 	0.9147	0.3195	0.5135	0.512
Mof_C 	C 	0.0193	0.2489	0.433	0.19
Mof_O 	O 	0.889	0.9899	0.39072	-0.805
Mof_O 	O 	0.9289	0.1114	0.3417	-0.54
Mof_O 	O 	0.9442	0.0998	0.47109	-0.645
Mof_O 	O 	0.1052	0.2029	0.4382	-0.795
Mof_O 	O 	0.0081	0.3341	0.4155	-0.321
Mof_O 	O 	0.9604	0.2655	0.5421	-0.722
Mof_O 	O 	0.9179	0.4187	0.5148	-0.478
Mof_H 	H 	0.7842	0.142	0.4193	0.191
Mof_H 	H 	0.8398	0.228	0.392	0.242
Mof_H 	H 	0.798	0.2295	0.4893	0.181
Mof_H 	H 	0.8262	0.3207	0.4578	0.25
Mof_O 	O 	0.397	0.292	0.4238	-0.266
Mof_O 	O 	0.352	0.338	0.416	-0.335
Mof_Co	Co	0.605	0.5505	0.95963	1.128
Mof_C 	C 	0.3929	0.5844	0.8782	0.622
Mof_C 	C 	0.3497	0.666	0.9087	-0.723
Mof_C 	C 	0.4187	0.6928	0.949	0.363
Mof_C 	C 	0.3537	0.768	0.9765	-0.654
Mof_C 	C 	0.4147	0.8195	0.0135	0.497
Mof_C 	C 	0.5193	0.7489	0.933	0.272
Mof_O 	O 	0.389	0.4899	0.89072	-0.902
Mof_O 	O 	0.4289	0.6114	0.8417	-0.596
Mof_O 	O 	0.4442	0.5998	0.97109	-0.638
Mof_O 	O 	0.6052	0.7029	0.9382	-0.805
Mof_O 	O 	0.5081	0.8341	0.9155	-0.279
Mof_O 	O 	0.4604	0.7655	0.0421	-0.747
Mof_O 	O 	0.4179	0.9187	0.0148	-0.473
Mof_H 	H 	0.2842	0.642	0.9193	0.218
Mof_H 	H 	0.3398	0.728	0.892	0.242
Mof_H 	H 	0.298	0.7295	0.9893	0.18
Mof_H 	H 	0.3262	0.8207	0.9578	0.241
Mof_O 	O 	0.897	0.792	0.9238	-0.245
Mof_O 	O 	0.852	0.838	0.916	-0.314
Mof_Co	Co	0.9495	0.105	0.54037	1.131
Mof_C 	C 	0.9156	0.8929	0.6218	0.745
Mof_C 	C 	0.834	0.8497	0.5913	-0.806
Mof_C 	C 	0.8072	0.9187	0.551	0.455
Mof_C 	C 	0.732	0.8537	0.5235	-0.697
Mof_C 	C 	0.6805	0.9147	0.4865	0.52
Mof_C 	C 	0.7511	0.0193	0.567	0.184
Mof_O 	O 	0.0101	0.889	0.60928	-0.974
Mof_O 	O 	0.8886	0.9289	0.6583	-0.558
Mof_O 	O 	0.9002	0.9442	0.52891	-0.594
Mof_O 	O 	0.7971	0.1052	0.5618	-0.8
Mof_O 	O 	0.6659	0.0081	0.5845	-0.32
Mof_O 	O 	0.7345	0.9604	0.4579	-0.731
Mof_O 	O 	0.5813	0.9179	0.4852	-0.482
Mof_H 	H 	0.858	0.7842	0.5807	0.257
Mof_H 	H 	0.772	0.8398	0.608	0.275
Mof_H 	H 	0.7705	0.798	0.5107	0.199
Mof_H 	H 	0.6793	0.8262	0.5422	0.258
Mof_O 	O 	0.708	0.397	0.5762	-0.265
Mof_O 	O 	0.662	0.352	0.584	-0.339
Mof_Co	Co	0.4495	0.605	0.04037	1.128
Mof_C 	C 	0.4156	0.3929	0.1218	0.618
Mof_C 	C 	0.334	0.3497	0.0913	-0.709
Mof_C 	C 	0.3072	0.4187	0.051	0.351
Mof_C 	C 	0.232	0.3537	0.0235	-0.644
Mof_C 	C 	0.1805	0.4147	0.9865	0.499
Mof_C 	C 	0.2511	0.5193	0.067	0.281
Mof_O 	O 	0.5101	0.389	0.10928	-0.904
Mof_O 	O 	0.3886	0.4289	0.1583	-0.6
Mof_O 	O 	0.4002	0.4442	0.02891	-0.636
Mof_O 	O 	0.2971	0.6052	0.0618	-0.812
Mof_O 	O 	0.1659	0.5081	0.0845	-0.321
Mof_O 	O 	0.2345	0.4604	0.9579	-0.753
Mof_O 	O 	0.0813	0.4179	0.9852	-0.544
Mof_H 	H 	0.358	0.2842	0.0807	0.211
Mof_H 	H 	0.272	0.3398	0.108	0.228
Mof_H 	H 	0.2705	0.298	0.0107	0.172
Mof_H 	H 	0.1793	0.3262	0.0422	0.217
Mof_O 	O 	0.208	0.897	0.0762	-0.243
Mof_O 	O 	0.162	0.852	0.084	-0.356
Mof_Co	Co	0.0505	0.895	0.54037	1.127
Mof_C 	C 	0.0844	0.1071	0.6218	0.486
Mof_C 	C 	0.166	0.1503	0.5913	-0.626
Mof_C 	C 	0.1928	0.0813	0.551	0.262
Mof_C 	C 	0.268	0.1463	0.5235	-0.614
Mof_C 	C 	0.3195	0.0853	0.4865	0.482
Mof_C 	C 	0.2489	0.9807	0.567	0.37
Mof_O 	O 	0.9899	0.111	0.60928	-0.825
Mof_O 	O 	0.1114	0.0711	0.6583	-0.611
Mof_O 	O 	0.0998	0.0558	0.52891	-0.683
Mof_O 	O 	0.2029	0.8948	0.5618	-0.812
Mof_O 	O 	0.3341	0.9919	0.5845	-0.279
Mof_O 	O 	0.2655	0.0396	0.4579	-0.775
Mof_O 	O 	0.4187	0.0821	0.4852	-0.533
Mof_H 	H 	0.142	0.2158	0.5807	0.175
Mof_H 	H 	0.228	0.1602	0.608	0.197
Mof_H 	H 	0.2295	0.202	0.5107	0.168
Mof_H 	H 	0.3207	0.1738	0.5422	0.214
Mof_O 	O 	0.292	0.603	0.5762	-0.272
Mof_O 	O 	0.338	0.648	0.584	-0.332
Mof_Co	Co	0.5505	0.395	0.04037	1.128
Mof_C 	C 	0.5844	0.6071	0.1218	0.626
Mof_C 	C 	0.666	0.6503	0.0913	-0.733
Mof_C 	C 	0.6928	0.5813	0.051	0.372
Mof_C 	C 	0.768	0.6463	0.0235	-0.67
Mof_C 	C 	0.8195	0.5853	0.9865	0.504
Mof_C 	C 	0.7489	0.4807	0.067	0.268
Mof_O 	O 	0.4899	0.611	0.10928	-0.909
Mof_O 	O 	0.6114	0.5711	0.1583	-0.598
Mof_O 	O 	0.5998	0.5558	0.02891	-0.639
Mof_O 	O 	0.7029	0.3948	0.0618	-0.799
Mof_O 	O 	0.8341	0.4919	0.0845	-0.277
Mof_O 	O 	0.7655	0.5396	0.9579	-0.752
Mof_O 	O 	0.9187	0.5821	0.9852	-0.471
Mof_H 	H 	0.642	0.7158	0.0807	0.224
Mof_H 	H 	0.728	0.6602	0.108	0.248
Mof_H 	H 	0.7295	0.702	0.0107	0.195
Mof_H 	H 	0.8207	0.6738	0.0422	0.255
Mof_O 	O 	0.792	0.103	0.0762	-0.292
Mof_O 	O 	0.838	0.148	0.084	-0.314
Mof_Co	Co	0.605	0.9495	0.29037	1.145
Mof_C 	C 	0.3929	0.9156	0.3718	0.734
Mof_C 	C 	0.3497	0.834	0.3413	-0.778
Mof_C 	C 	0.4187	0.8072	0.301	0.375
Mof_C 	C 	0.3537	0.732	0.2735	-0.664
Mof_C 	C 	0.4147	0.6805	0.2365	0.504
Mof_C 	C 	0.5193	0.7511	0.317	0.271
Mof_O 	O 	0.389	0.0101	0.35928	-0.99
Mof_O 	O 	0.4289	0.8886	0.4083	-0.6
Mof_O 	O 	0.4442	0.9002	0.27891	-0.609
Mof_O 	O 	0.6052	0.7971	0.3118	-0.811
Mof_O 	O 	0.5081	0.6659	0.3345	-0.3
Mof_O 	O 	0.4604	0.7345	0.2079	-0.757
Mof_O 	O 	0.4179	0.5813	0.2352	-0.517
Mof_H 	H 	0.2842	0.858	0.3307	0.249
Mof_H 	H 	0.3398	0.772	0.358	0.252
Mof_H 	H 	0.298	0.7705	0.2607	0.186
Mof_H 	H 	0.3262	0.6793	0.2922	0.234
Mof_O 	O 	0.897	0.708	0.3262	-0.243
Mof_O 	O 	0.852	0.662	0.334	-0.337
Mof_Co	Co	0.105	0.4495	0.79037	1.114
Mof_C 	C 	0.8929	0.4156	0.8718	0.635
Mof_C 	C 	0.8497	0.334	0.8413	-0.741
Mof_C 	C 	0.9187	0.3072	0.801	0.435
Mof_C 	C 	0.8537	0.232	0.7735	-0.679
Mof_C 	C 	0.9147	0.1805	0.7365	0.516
Mof_C 	C 	0.0193	0.2511	0.817	0.189
Mof_O 	O 	0.889	0.5101	0.85928	-0.892
Mof_O 	O 	0.9289	0.3886	0.9083	-0.558
Mof_O 	O 	0.9442	0.4002	0.77891	-0.618
Mof_O 	O 	0.1052	0.2971	0.8118	-0.8
Mof_O 	O 	0.0081	0.1659	0.8345	-0.341
Mof_O 	O 	0.9604	0.2345	0.7079	-0.726
Mof_O 	O 	0.9179	0.0813	0.7352	-0.507
Mof_H 	H 	0.7842	0.358	0.8307	0.22
Mof_H 	H 	0.8398	0.272	0.858	0.252
Mof_H 	H 	0.798	0.2705	0.7607	0.186
Mof_H 	H 	0.8262	0.1793	0.7922	0.242
Mof_O 	O 	0.397	0.208	0.8262	-0.266
Mof_O 	O 	0.352	0.162	0.834	-0.358
Mof_Co	Co	0.395	0.0505	0.29037	1.111
Mof_C 	C 	0.6071	0.0844	0.3718	0.51
Mof_C 	C 	0.6503	0.166	0.3413	-0.664
Mof_C 	C 	0.5813	0.1928	0.301	0.349
Mof_C 	C 	0.6463	0.268	0.2735	-0.654
Mof_C 	C 	0.5853	0.3195	0.2365	0.503
Mof_C 	C 	0.4807	0.2489	0.317	0.277
Mof_O 	O 	0.611	0.9899	0.35928	-0.821
Mof_O 	O 	0.5711	0.1114	0.4083	-0.584
Mof_O 	O 	0.5558	0.0998	0.27891	-0.665
Mof_O 	O 	0.3948	0.2029	0.3118	-0.8
Mof_O 	O 	0.4919	0.3341	0.3345	-0.299
Mof_O 	O 	0.5396	0.2655	0.2079	-0.753
Mof_O 	O 	0.5821	0.4187	0.2352	-0.512
Mof_H 	H 	0.7158	0.142	0.3307	0.187
Mof_H 	H 	0.6602	0.228	0.358	0.223
Mof_H 	H 	0.702	0.2295	0.2607	0.183
Mof_H 	H 	0.6738	0.3207	0.2922	0.24
Mof_O 	O 	0.103	0.292	0.3262	-0.293
Mof_O 	O 	0.148	0.338	0.334	-0.334
Mof_Co	Co	0.895	0.5505	0.79037	1.143
Mof_C 	C 	0.1071	0.5844	0.8718	0.606
Mof_C 	C 	0.1503	0.666	0.8413	-0.699
Mof_C 	C 	0.0813	0.6928	0.801	0.29
Mof_C 	C 	0.1463	0.768	0.7735	-0.633
Mof_C 	C 	0.0853	0.8195	0.7365	0.484
Mof_C 	C 	0.9807	0.7489	0.817	0.357
Mof_O 	O 	0.111	0.4899	0.85928	-0.917
Mof_O 	O 	0.0711	0.6114	0.9083	-0.625
Mof_O 	O 	0.0558	0.5998	0.77891	-0.656
Mof_O 	O 	0.8948	0.7029	0.8118	-0.81
Mof_O 	O 	0.9919	0.8341	0.8345	-0.259
Mof_O 	O 	0.0396	0.7655	0.7079	-0.774
Mof_O 	O 	0.0821	0.9187	0.7352	-0.49
Mof_H 	H 	0.2158	0.642	0.8307	0.214
Mof_H 	H 	0.1602	0.728	0.858	0.224
Mof_H 	H 	0.202	0.7295	0.7607	0.181
Mof_H 	H 	0.1738	0.8207	0.7922	0.23
Mof_O 	O 	0.603	0.792	0.8262	-0.272
Mof_O 	O 	0.648	0.838	0.834	-0.312
Mof_Co	Co	0.5505	0.105	0.20963	1.114
Mof_C 	C 	0.5844	0.8929	0.1282	0.638
Mof_C 	C 	0.666	0.8497	0.1587	-0.754
Mof_C 	C 	0.6928	0.9187	0.199	0.443
Mof_C 	C 	0.768	0.8537	0.2265	-0.687
Mof_C 	C 	0.8195	0.9147	0.2635	0.513
Mof_C 	C 	0.7489	0.0193	0.183	0.184
Mof_O 	O 	0.4899	0.889	0.14072	-0.889
Mof_O 	O 	0.6114	0.9289	0.0917	-0.554
Mof_O 	O 	0.5998	0.9442	0.22109	-0.62
Mof_O 	O 	0.7029	0.1052	0.1882	-0.794
Mof_O 	O 	0.8341	0.0081	0.1655	-0.298
Mof_O 	O 	0.7655	0.9604	0.2921	-0.723
Mof_O 	O 	0.9187	0.9179	0.2648	-0.439
Mof_H 	H 	0.642	0.7842	0.1693	0.227
Mof_H 	H 	0.728	0.8398	0.142	0.265
Mof_H 	H 	0.7295	0.798	0.2393	0.193
Mof_H 	H 	0.8207	0.8262	0.2078	0.264
Mof_O 	O 	0.792	0.397	0.1738	-0.266
Mof_O 	O 	0.838	0.352	0.166	-0.315
Mof_Co	Co	0.0505	0.605	0.70963	1.111
Mof_C 	C 	0.0844	0.3929	0.6282	0.503
Mof_C 	C 	0.166	0.3497	0.6587	-0.653
Mof_C 	C 	0.1928	0.4187	0.699	0.339
Mof_C 	C 	0.268	0.3537	0.7265	-0.636
Mof_C 	C 	0.3195	0.4147	0.7635	0.495
Mof_C 	C 	0.2489	0.5193	0.683	0.282
Mof_O 	O 	0.9899	0.389	0.64072	-0.812
Mof_O 	O 	0.1114	0.4289	0.5917	-0.582
Mof_O 	O 	0.0998	0.4442	0.72109	-0.664
Mof_O 	O 	0.2029	0.6052	0.6882	-0.807
Mof_O 	O 	0.3341	0.5081	0.6655	-0.301
Mof_O 	O 	0.2655	0.4604	0.7921	-0.748
Mof_O 	O 	0.4187	0.4179	0.7648	-0.514
Mof_H 	H 	0.142	0.2842	0.6693	0.18
Mof_H 	H 	0.228	0.3398	0.642	0.217
Mof_H 	H 	0.2295	0.298	0.7393	0.168
Mof_H 	H 	0.3207	0.3262	0.7078	0.225
Mof_O 	O 	0.292	0.897	0.6738	-0.244
Mof_O 	O 	0.338	0.852	0.666	-0.334
Mof_Co	Co	0.4495	0.895	0.20963	1.143
Mof_C 	C 	0.4156	0.1071	0.1282	0.602
Mof_C 	C 	0.334	0.1503	0.1587	-0.683
Mof_C 	C 	0.3072	0.0813	0.199	0.275
Mof_C 	C 	0.232	0.1463	0.2265	-0.622
Mof_C 	C 	0.1805	0.0853	0.2635	0.486
Mof_C 	C 	0.2511	0.9807	0.183	0.368
Mof_O 	O 	0.5101	0.111	0.14072	-0.919
Mof_O 	O 	0.3886	0.0711	0.0917	-0.63
Mof_O 	O 	0.4002	0.0558	0.22109	-0.654
Mof_O 	O 	0.2971	0.8948	0.1882	-0.817
Mof_O 	O 	0.1659	0.9919	0.1655	-0.298
Mof_O 	O 	0.2345	0.0396	0.2921	-0.78
Mof_O 	O 	0.0813	0.0821	0.2648	-0.563
Mof_H 	H 	0.358	0.2158	0.1693	0.207
Mof_H 	H 	0.272	0.1602	0.142	0.208
Mof_H 	H 	0.2705	0.202	0.2393	0.173
Mof_H 	H 	0.1793	0.1738	0.2078	0.206
Mof_O 	O 	0.208	0.603	0.1738	-0.272
Mof_O 	O 	0.162	0.648	0.166	-0.354
Mof_Co	Co	0.9495	0.395	0.70963	1.145
Mof_C 	C 	0.9156	0.6071	0.6282	0.736
Mof_C 	C 	0.834	0.6503	0.6587	-0.786
Mof_C 	C 	0.8072	0.5813	0.699	0.384
Mof_C 	C 	0.732	0.6463	0.7265	-0.681
Mof_C 	C 	0.6805	0.5853	0.7635	0.512
Mof_C 	C 	0.7511	0.4807	0.683	0.267
Mof_O 	O 	0.0101	0.611	0.64072	-0.997
Mof_O 	O 	0.8886	0.5711	0.5917	-0.601
Mof_O 	O 	0.9002	0.5558	0.72109	-0.611
Mof_O 	O 	0.7971	0.3948	0.6882	-0.805
Mof_O 	O 	0.6659	0.4919	0.6655	-0.298
Mof_O 	O 	0.7345	0.5396	0.7921	-0.761
Mof_O 	O 	0.5813	0.5821	0.7648	-0.515
Mof_H 	H 	0.858	0.7158	0.6693	0.255
Mof_H 	H 	0.772	0.6602	0.642	0.258
Mof_H 	H 	0.7705	0.702	0.7393	0.201
Mof_H 	H 	0.6793	0.6738	0.7078	0.248
Mof_O 	O 	0.708	0.103	0.6738	-0.291
Mof_O 	O 	0.662	0.148	0.666	-0.338
Mof_Co	Co	-2.3429e-33	0	0.30855	1.065
Mof_Co	Co	0.5	0.5	0.80855	1.143
Mof_Co	Co	6.12099e-33	0	0.69145	1.065
Mof_Co	Co	0.5	0.5	0.19145	1.143
Mof_Co	Co	0.5	-1.01486e-32	0.44145	1.104
Mof_Co	Co	-1.19631e-32	0.5	0.94145	1.104
Mof_Co	Co	0.5	0	0.05855	1.104
Mof_Co	Co	-1.53527e-32	0.5	0.55855	1.104
Mof_K 	K 	0.75	0.8314	0.375	4.387
Mof_K 	K 	0.25	0.3314	0.875	4.268
Mof_K 	K 	0.25	0.1686	0.375	4.281
Mof_K 	K 	0.75	0.6686	0.875	4.387
Mof_K 	K 	0.8314	0.25	0.625	4.315
Mof_K 	K 	0.1686	0.75	0.625	4.357
Mof_K 	K 	0.6686	0.25	0.125	4.315
Mof_K 	K 	0.3314	0.75	0.125	4.343
_end
