data_functionalizedCrystal
_audit_creation_method	'EQeq! by Chris Wilmer'
_symmetry_space_group_name_H-M	'P1'
_symmetry_Int_Tables_number	1
_symmetry_cell_setting	triclinic
loop_
_symmetry_equiv_pos_as_xyz
  x,y,z
_cell_length_a	12.3651
_cell_length_b	12.3651
_cell_length_c	37.4849
_cell_angle_alpha	90
_cell_angle_beta	90
_cell_angle_gamma	120
loop_
_atom_site_label
_atom_site_type_symbol
_atom_site_fract_x
_atom_site_fract_y
_atom_site_fract_z
_atom_site_charge
Mof_In	In	0.55072	0.16662	0.38057	2.549
Mof_O 	O 	0.5963	0.3113	0.34311	-0.635
Mof_O 	O 	0.3909	0.0033	0.35981	-0.621
Mof_O 	O 	0.3973	0.2533	0.33268	-0.321
Mof_O 	O 	0.2573	0.0275	0.3941	-0.29
Mof_O 	O 	0.7369	0.2867	0.40349	-0.669
Mof_N 	N 	0.5158	0.5443	0.25672	-0.346
Mof_N 	N 	0.1236	0.4762	0.402	-0.132
Mof_C 	C 	0.1236	0.6474	0.4314	-0.05
Mof_N 	N 	0.1138	0.6639	0.32247	-0.351
Mof_C 	C 	0.2032	0.7718	0.3351	0.139
Mof_H 	H 	0.2856	0.7985	0.329	-0.02
Mof_C 	C 	0.4804	0.4451	0.2782	0.135
Mof_H 	H 	0.3991	0.3785	0.2762	-0.019
Mof_C 	C 	0.5576	0.4366	0.3031	-0.176
Mof_C 	C 	0.0569	0.8051	0.3678	0.099
Mof_H 	H 	0.0369	0.8525	0.3828	0.015
Mof_C 	C 	0.5076	0.3224	0.3279	0.41
Mof_C 	C 	0.9951	0.6224	0.3324	0.125
Mof_H 	H 	0.9327	0.5465	0.3235	-0.037
Mof_C 	C 	0.6337	0.6417	0.2603	0.124
Mof_H 	H 	0.6601	0.7122	0.2461	-0.043
Mof_C 	C 	0.6783	0.5354	0.3061	0.114
Mof_H 	H 	0.7336	0.5324	0.3223	-0.005
Mof_C 	C 	0.7151	0.6375	0.2847	-0.195
Mof_H 	H 	0.7958	0.7049	0.2867	0.093
Mof_C 	C 	0.2824	0.9698	0.3721	0.409
Mof_C 	C 	0.9623	0.6875	0.3552	-0.181
Mof_H 	H 	0.8797	0.6553	0.3622	0.091
Mof_C 	C 	0.9955	0.4102	0.4017	0.116
Mof_C 	C 	0.1778	0.8479	0.3577	-0.165
Mof_In	In	0.83338	0.3841	0.04723	2.549
Mof_O 	O 	0.6887	0.285	0.00978	-0.636
Mof_O 	O 	0.9967	0.3876	0.02648	-0.621
Mof_O 	O 	0.7467	0.144	0.99935	-0.323
Mof_O 	O 	0.9725	0.2298	0.06077	-0.29
Mof_O 	O 	0.7133	0.4502	0.07016	-0.67
Mof_N 	N 	0.4557	0.9715	0.92339	-0.347
Mof_N 	N 	0.5238	0.6474	0.06867	-0.138
Mof_C 	C 	0.3526	0.4762	0.09807	-0.059
Mof_N 	N 	0.3361	0.4499	0.98914	-0.352
Mof_C 	C 	0.2282	0.4314	0.00177	0.136
Mof_H 	H 	0.2015	0.4871	0.99567	-0.019
Mof_C 	C 	0.5549	0.0353	0.94487	0.133
Mof_H 	H 	0.6215	0.0206	0.94287	-0.019
Mof_C 	C 	0.5634	0.121	0.96977	-0.176
Mof_C 	C 	0.1949	0.2518	0.03447	0.087
Mof_H 	H 	0.1475	0.1844	0.04947	0.018
Mof_C 	C 	0.6776	0.1852	0.99457	0.41
Mof_C 	C 	0.3776	0.3727	0.99907	0.126
Mof_H 	H 	0.4535	0.3862	0.99017	-0.036
Mof_C 	C 	0.3583	0.992	0.92697	0.129
Mof_H 	H 	0.2878	0.9479	0.91277	-0.043
Mof_C 	C 	0.4646	0.1429	0.97277	0.116
Mof_H 	H 	0.4676	0.2012	0.98897	-0.006
Mof_C 	C 	0.3625	0.0776	0.95137	-0.2
Mof_H 	H 	0.2951	0.0909	0.95337	0.095
Mof_C 	C 	0.0302	0.3126	0.03877	0.406
Mof_C 	C 	0.3125	0.2748	0.02187	-0.171
Mof_H 	H 	0.3447	0.2244	0.02887	0.088
Mof_C 	C 	0.5898	0.5853	0.06837	0.123
Mof_C 	C 	0.1521	0.3299	0.02437	-0.161
Mof_In	In	0.6159	0.44928	0.7139	2.548
Mof_O 	O 	0.715	0.4037	0.67644	-0.636
Mof_O 	O 	0.6124	0.6091	0.69314	-0.629
Mof_O 	O 	0.856	0.6027	0.66601	-0.323
Mof_O 	O 	0.7702	0.7427	0.72743	-0.297
Mof_O 	O 	0.5498	0.2631	0.73682	-0.67
Mof_N 	N 	0.0285	0.4842	0.59005	-0.347
Mof_N 	N 	0.3526	0.8764	0.73533	-0.133
Mof_C 	C 	0.5238	0.8764	0.76473	-0.05
Mof_N 	N 	0.5501	0.8862	0.6558	-0.351
Mof_C 	C 	0.5686	0.7968	0.66843	0.141
Mof_H 	H 	0.5129	0.7144	0.66233	-0.02
Mof_C 	C 	0.9647	0.5196	0.61153	0.133
Mof_H 	H 	0.9794	0.6009	0.60953	-0.02
Mof_C 	C 	0.879	0.4424	0.63643	-0.176
Mof_C 	C 	0.7482	0.9431	0.70113	0.102
Mof_H 	H 	0.8156	0.9631	0.71613	0.015
Mof_C 	C 	0.8148	0.4924	0.66123	0.41
Mof_C 	C 	0.6273	0.0049	0.66573	0.126
Mof_H 	H 	0.6138	0.0673	0.65683	-0.037
Mof_C 	C 	0.008	0.3663	0.59363	0.13
Mof_H 	H 	0.0521	0.3399	0.57943	-0.043
Mof_C 	C 	0.8571	0.3217	0.63943	0.117
Mof_H 	H 	0.7988	0.2664	0.65563	-0.006
Mof_C 	C 	0.9224	0.2849	0.61803	-0.202
Mof_H 	H 	0.9091	0.2042	0.62003	0.095
Mof_C 	C 	0.6874	0.7176	0.70543	0.42
Mof_C 	C 	0.7252	0.0377	0.68853	-0.184
Mof_H 	H 	0.7756	0.1203	0.69553	0.092
Mof_C 	C 	0.4147	0.0045	0.73503	0.115
Mof_C 	C 	0.6701	0.8222	0.69103	-0.168
Mof_In	In	0.44928	0.83338	0.88057	2.548
Mof_O 	O 	0.4037	0.6887	0.84311	-0.636
Mof_O 	O 	0.6091	0.9967	0.85981	-0.622
Mof_O 	O 	0.6027	0.7467	0.83268	-0.322
Mof_O 	O 	0.7427	0.9725	0.8941	-0.29
Mof_O 	O 	0.2631	0.7133	0.90349	-0.67
Mof_N 	N 	0.4842	0.4557	0.75672	-0.347
Mof_N 	N 	0.8764	0.5238	0.902	-0.133
Mof_C 	C 	0.8764	0.3526	0.9314	-0.051
Mof_N 	N 	0.8862	0.3361	0.82247	-0.351
Mof_C 	C 	0.7968	0.2282	0.8351	0.139
Mof_H 	H 	0.7144	0.2015	0.829	-0.02
Mof_C 	C 	0.5196	0.5549	0.7782	0.135
Mof_H 	H 	0.6009	0.6215	0.7762	-0.019
Mof_C 	C 	0.4424	0.5634	0.8031	-0.176
Mof_C 	C 	0.9431	0.1949	0.8678	0.098
Mof_H 	H 	0.9631	0.1475	0.8828	0.015
Mof_C 	C 	0.4924	0.6776	0.8279	0.41
Mof_C 	C 	0.0049	0.3776	0.8324	0.125
Mof_H 	H 	0.0673	0.4535	0.8235	-0.037
Mof_C 	C 	0.3663	0.3583	0.7603	0.124
Mof_H 	H 	0.3399	0.2878	0.7461	-0.043
Mof_C 	C 	0.3217	0.4646	0.8061	0.114
Mof_H 	H 	0.2664	0.4676	0.8223	-0.005
Mof_C 	C 	0.2849	0.3625	0.7847	-0.195
Mof_H 	H 	0.2042	0.2951	0.7867	0.093
Mof_C 	C 	0.7176	0.0302	0.8721	0.408
Mof_C 	C 	0.0377	0.3125	0.8552	-0.181
Mof_H 	H 	0.1203	0.3447	0.8622	0.091
Mof_C 	C 	0.0045	0.5898	0.9017	0.116
Mof_C 	C 	0.8222	0.1521	0.8577	-0.165
Mof_In	In	0.16662	0.6159	0.54723	2.549
Mof_O 	O 	0.3113	0.715	0.50978	-0.636
Mof_O 	O 	0.0033	0.6124	0.52648	-0.622
Mof_O 	O 	0.2533	0.856	0.49935	-0.322
Mof_O 	O 	0.0275	0.7702	0.56077	-0.29
Mof_O 	O 	0.2867	0.5498	0.57016	-0.67
Mof_N 	N 	0.5443	0.0285	0.42339	-0.347
Mof_N 	N 	0.4762	0.3526	0.56867	-0.138
Mof_C 	C 	0.6474	0.5238	0.59807	-0.059
Mof_N 	N 	0.6639	0.5501	0.48914	-0.352
Mof_C 	C 	0.7718	0.5686	0.50177	0.136
Mof_H 	H 	0.7985	0.5129	0.49567	-0.019
Mof_C 	C 	0.4451	0.9647	0.44487	0.133
Mof_H 	H 	0.3785	0.9794	0.44287	-0.019
Mof_C 	C 	0.4366	0.879	0.46977	-0.176
Mof_C 	C 	0.8051	0.7482	0.53447	0.088
Mof_H 	H 	0.8525	0.8156	0.54947	0.018
Mof_C 	C 	0.3224	0.8148	0.49457	0.41
Mof_C 	C 	0.6224	0.6273	0.49907	0.127
Mof_H 	H 	0.5465	0.6138	0.49017	-0.036
Mof_C 	C 	0.6417	0.008	0.42697	0.128
Mof_H 	H 	0.7122	0.0521	0.41277	-0.043
Mof_C 	C 	0.5354	0.8571	0.47277	0.116
Mof_H 	H 	0.5324	0.7988	0.48897	-0.006
Mof_C 	C 	0.6375	0.9224	0.45137	-0.2
Mof_H 	H 	0.7049	0.9091	0.45337	0.095
Mof_C 	C 	0.9698	0.6874	0.53877	0.406
Mof_C 	C 	0.6875	0.7252	0.52187	-0.172
Mof_H 	H 	0.6553	0.7756	0.52887	0.088
Mof_C 	C 	0.4102	0.4147	0.56837	0.123
Mof_C 	C 	0.8479	0.6701	0.52437	-0.161
Mof_In	In	0.3841	0.55072	0.2139	2.548
Mof_O 	O 	0.285	0.5963	0.17644	-0.636
Mof_O 	O 	0.3876	0.3909	0.19314	-0.629
Mof_O 	O 	0.144	0.3973	0.16601	-0.323
Mof_O 	O 	0.2298	0.2573	0.22743	-0.297
Mof_O 	O 	0.4502	0.7369	0.23682	-0.67
Mof_N 	N 	0.9715	0.5158	0.09005	-0.347
Mof_N 	N 	0.6474	0.1236	0.23533	-0.133
Mof_C 	C 	0.4762	0.1236	0.26473	-0.05
Mof_N 	N 	0.4499	0.1138	0.1558	-0.351
Mof_C 	C 	0.4314	0.2032	0.16843	0.141
Mof_H 	H 	0.4871	0.2856	0.16233	-0.02
Mof_C 	C 	0.0353	0.4804	0.11153	0.133
Mof_H 	H 	0.0206	0.3991	0.10953	-0.02
Mof_C 	C 	0.121	0.5576	0.13643	-0.176
Mof_C 	C 	0.2518	0.0569	0.20113	0.102
Mof_H 	H 	0.1844	0.0369	0.21613	0.015
Mof_C 	C 	0.1852	0.5076	0.16123	0.41
Mof_C 	C 	0.3727	0.9951	0.16573	0.126
Mof_H 	H 	0.3862	0.9327	0.15683	-0.037
Mof_C 	C 	0.992	0.6337	0.09363	0.13
Mof_H 	H 	0.9479	0.6601	0.07943	-0.043
Mof_C 	C 	0.1429	0.6783	0.13943	0.117
Mof_H 	H 	0.2012	0.7336	0.15563	-0.006
Mof_C 	C 	0.0776	0.7151	0.11803	-0.202
Mof_H 	H 	0.0909	0.7958	0.12003	0.095
Mof_C 	C 	0.3126	0.2824	0.20543	0.42
Mof_C 	C 	0.2748	0.9623	0.18853	-0.184
Mof_H 	H 	0.2244	0.8797	0.19553	0.092
Mof_C 	C 	0.5853	0.9955	0.23503	0.115
Mof_C 	C 	0.3299	0.1778	0.19103	-0.168
Mof_In	In	0.16662	0.55072	0.2861	2.551
Mof_O 	O 	0.3113	0.5963	0.32356	-0.635
Mof_O 	O 	0.0033	0.3909	0.30686	-0.621
Mof_O 	O 	0.2533	0.3973	0.33399	-0.32
Mof_O 	O 	0.0275	0.2573	0.27257	-0.29
Mof_O 	O 	0.2867	0.7369	0.26318	-0.669
Mof_N 	N 	0.5443	0.5158	0.40995	-0.348
Mof_N 	N 	0.6639	0.1138	0.3442	-0.351
Mof_C 	C 	0.7718	0.2032	0.33157	0.139
Mof_H 	H 	0.7985	0.2856	0.33767	-0.02
Mof_C 	C 	0.4451	0.4804	0.38847	0.136
Mof_H 	H 	0.3785	0.3991	0.39047	-0.018
Mof_C 	C 	0.4366	0.5576	0.36357	-0.174
Mof_C 	C 	0.8051	0.0569	0.29887	0.1
Mof_H 	H 	0.8525	0.0369	0.28387	0.016
Mof_C 	C 	0.3224	0.5076	0.33877	0.413
Mof_C 	C 	0.6224	0.9951	0.33427	0.125
Mof_H 	H 	0.5465	0.9327	0.34317	-0.037
Mof_C 	C 	0.6417	0.6337	0.40637	0.124
Mof_H 	H 	0.7122	0.6601	0.42057	-0.043
Mof_C 	C 	0.5354	0.6783	0.36057	0.113
Mof_H 	H 	0.5324	0.7336	0.34437	-0.005
Mof_C 	C 	0.6375	0.7151	0.38197	-0.195
Mof_H 	H 	0.7049	0.7958	0.37997	0.093
Mof_C 	C 	0.9698	0.2824	0.29457	0.41
Mof_C 	C 	0.6875	0.9623	0.31147	-0.181
Mof_H 	H 	0.6553	0.8797	0.30447	0.09
Mof_C 	C 	0.4102	0.9955	0.26497	0.077
Mof_C 	C 	0.8479	0.1778	0.30897	-0.163
Mof_In	In	0.3841	0.83338	0.61943	2.552
Mof_O 	O 	0.285	0.6887	0.65689	-0.635
Mof_O 	O 	0.3876	0.9967	0.64019	-0.62
Mof_O 	O 	0.144	0.7467	0.66732	-0.321
Mof_O 	O 	0.2298	0.9725	0.6059	-0.289
Mof_O 	O 	0.4502	0.7133	0.59651	-0.669
Mof_N 	N 	0.9715	0.4557	0.74328	-0.347
Mof_N 	N 	0.4499	0.3361	0.67753	-0.353
Mof_C 	C 	0.4314	0.2282	0.6649	0.136
Mof_H 	H 	0.4871	0.2015	0.671	-0.019
Mof_C 	C 	0.0353	0.5549	0.7218	0.134
Mof_H 	H 	0.0206	0.6215	0.7238	-0.018
Mof_C 	C 	0.121	0.5634	0.6969	-0.175
Mof_C 	C 	0.2518	0.1949	0.6322	0.089
Mof_H 	H 	0.1844	0.1475	0.6172	0.018
Mof_C 	C 	0.1852	0.6776	0.6721	0.413
Mof_C 	C 	0.3727	0.3776	0.6676	0.126
Mof_H 	H 	0.3862	0.4535	0.6765	-0.036
Mof_C 	C 	0.992	0.3583	0.7397	0.128
Mof_H 	H 	0.9479	0.2878	0.7539	-0.043
Mof_C 	C 	0.1429	0.4646	0.6939	0.116
Mof_H 	H 	0.2012	0.4676	0.6777	-0.006
Mof_C 	C 	0.0776	0.3625	0.7153	-0.2
Mof_H 	H 	0.0909	0.2951	0.7133	0.095
Mof_C 	C 	0.3126	0.0302	0.6279	0.407
Mof_C 	C 	0.2748	0.3125	0.6448	-0.171
Mof_H 	H 	0.2244	0.3447	0.6378	0.088
Mof_C 	C 	0.5853	0.5898	0.5983	0.087
Mof_C 	C 	0.3299	0.1521	0.6423	-0.159
Mof_In	In	0.44928	0.6159	0.95277	2.551
Mof_O 	O 	0.4037	0.715	0.99022	-0.636
Mof_O 	O 	0.6091	0.6124	0.97352	-0.628
Mof_O 	O 	0.6027	0.856	0.00065	-0.321
Mof_O 	O 	0.7427	0.7702	0.93923	-0.296
Mof_O 	O 	0.2631	0.5498	0.92984	-0.669
Mof_N 	N 	0.4842	0.0285	0.07661	-0.347
Mof_N 	N 	0.8862	0.5501	0.01086	-0.351
Mof_C 	C 	0.7968	0.5686	0.99823	0.141
Mof_H 	H 	0.7144	0.5129	0.00433	-0.02
Mof_C 	C 	0.5196	0.9647	0.05513	0.133
Mof_H 	H 	0.6009	0.9794	0.05713	-0.018
Mof_C 	C 	0.4424	0.879	0.03023	-0.175
Mof_C 	C 	0.9431	0.7482	0.96553	0.103
Mof_H 	H 	0.9631	0.8156	0.95053	0.016
Mof_C 	C 	0.4924	0.8148	0.00543	0.413
Mof_C 	C 	0.0049	0.6273	0.00093	0.124
Mof_H 	H 	0.0673	0.6138	0.00983	-0.037
Mof_C 	C 	0.3663	0.008	0.07303	0.131
Mof_H 	H 	0.3399	0.0521	0.08723	-0.044
Mof_C 	C 	0.3217	0.8571	0.02723	0.117
Mof_H 	H 	0.2664	0.7988	0.01103	-0.006
Mof_C 	C 	0.2849	0.9224	0.04863	-0.203
Mof_H 	H 	0.2042	0.9091	0.04663	0.095
Mof_C 	C 	0.7176	0.6874	0.96123	0.421
Mof_C 	C 	0.0377	0.7252	0.97813	-0.182
Mof_H 	H 	0.1203	0.7756	0.97113	0.091
Mof_C 	C 	0.0045	0.4147	0.93163	0.078
Mof_C 	C 	0.8222	0.6701	0.97563	-0.166
Mof_In	In	0.83338	0.44928	0.7861	2.551
Mof_O 	O 	0.6887	0.4037	0.82356	-0.635
Mof_O 	O 	0.9967	0.6091	0.80686	-0.621
Mof_O 	O 	0.7467	0.6027	0.83399	-0.32
Mof_O 	O 	0.9725	0.7427	0.77257	-0.29
Mof_O 	O 	0.7133	0.2631	0.76318	-0.669
Mof_N 	N 	0.4557	0.4842	0.90995	-0.348
Mof_N 	N 	0.3361	0.8862	0.8442	-0.351
Mof_C 	C 	0.2282	0.7968	0.83157	0.139
Mof_H 	H 	0.2015	0.7144	0.83767	-0.02
Mof_C 	C 	0.5549	0.5196	0.88847	0.136
Mof_H 	H 	0.6215	0.6009	0.89047	-0.018
Mof_C 	C 	0.5634	0.4424	0.86357	-0.174
Mof_C 	C 	0.1949	0.9431	0.79887	0.1
Mof_H 	H 	0.1475	0.9631	0.78387	0.016
Mof_C 	C 	0.6776	0.4924	0.83877	0.413
Mof_C 	C 	0.3776	0.0049	0.83427	0.124
Mof_H 	H 	0.4535	0.0673	0.84317	-0.037
Mof_C 	C 	0.3583	0.3663	0.90637	0.124
Mof_H 	H 	0.2878	0.3399	0.92057	-0.043
Mof_C 	C 	0.4646	0.3217	0.86057	0.113
Mof_H 	H 	0.4676	0.2664	0.84437	-0.005
Mof_C 	C 	0.3625	0.2849	0.88197	-0.195
Mof_H 	H 	0.2951	0.2042	0.87997	0.093
Mof_C 	C 	0.0302	0.7176	0.79457	0.41
Mof_C 	C 	0.3125	0.0377	0.81147	-0.181
Mof_H 	H 	0.3447	0.1203	0.80447	0.09
Mof_C 	C 	0.5898	0.0045	0.76497	0.077
Mof_C 	C 	0.1521	0.8222	0.80897	-0.163
Mof_In	In	0.6159	0.16662	0.11943	2.552
Mof_O 	O 	0.715	0.3113	0.15689	-0.635
Mof_O 	O 	0.6124	0.0033	0.14019	-0.62
Mof_O 	O 	0.856	0.2533	0.16732	-0.321
Mof_O 	O 	0.7702	0.0275	0.1059	-0.289
Mof_O 	O 	0.5498	0.2867	0.09651	-0.669
Mof_N 	N 	0.0285	0.5443	0.24328	-0.347
Mof_N 	N 	0.5501	0.6639	0.17753	-0.353
Mof_C 	C 	0.5686	0.7718	0.1649	0.136
Mof_H 	H 	0.5129	0.7985	0.171	-0.019
Mof_C 	C 	0.9647	0.4451	0.2218	0.134
Mof_H 	H 	0.9794	0.3785	0.2238	-0.018
Mof_C 	C 	0.879	0.4366	0.1969	-0.175
Mof_C 	C 	0.7482	0.8051	0.1322	0.089
Mof_H 	H 	0.8156	0.8525	0.1172	0.018
Mof_C 	C 	0.8148	0.3224	0.1721	0.413
Mof_C 	C 	0.6273	0.6224	0.1676	0.126
Mof_H 	H 	0.6138	0.5465	0.1765	-0.036
Mof_C 	C 	0.008	0.6417	0.2397	0.128
Mof_H 	H 	0.0521	0.7122	0.2539	-0.043
Mof_C 	C 	0.8571	0.5354	0.1939	0.116
Mof_H 	H 	0.7988	0.5324	0.1777	-0.006
Mof_C 	C 	0.9224	0.6375	0.2153	-0.2
Mof_H 	H 	0.9091	0.7049	0.2133	0.095
Mof_C 	C 	0.6874	0.9698	0.1279	0.407
Mof_C 	C 	0.7252	0.6875	0.1448	-0.171
Mof_H 	H 	0.7756	0.6553	0.1378	0.088
Mof_C 	C 	0.4147	0.4102	0.0983	0.087
Mof_C 	C 	0.6701	0.8479	0.1423	-0.159
Mof_In	In	0.55072	0.3841	0.45277	2.551
Mof_O 	O 	0.5963	0.285	0.49022	-0.636
Mof_O 	O 	0.3909	0.3876	0.47352	-0.628
Mof_O 	O 	0.3973	0.144	0.50065	-0.321
Mof_O 	O 	0.2573	0.2298	0.43923	-0.296
Mof_O 	O 	0.7369	0.4502	0.42984	-0.669
Mof_N 	N 	0.5158	0.9715	0.57661	-0.347
Mof_N 	N 	0.1138	0.4499	0.51086	-0.351
Mof_C 	C 	0.2032	0.4314	0.49823	0.141
Mof_H 	H 	0.2856	0.4871	0.50433	-0.02
Mof_C 	C 	0.4804	0.0353	0.55513	0.133
Mof_H 	H 	0.3991	0.0206	0.55713	-0.018
Mof_C 	C 	0.5576	0.121	0.53023	-0.175
Mof_C 	C 	0.0569	0.2518	0.46553	0.104
Mof_H 	H 	0.0369	0.1844	0.45053	0.016
Mof_C 	C 	0.5076	0.1852	0.50543	0.413
Mof_C 	C 	0.9951	0.3727	0.50093	0.125
Mof_H 	H 	0.9327	0.3862	0.50983	-0.037
Mof_C 	C 	0.6337	0.992	0.57303	0.13
Mof_H 	H 	0.6601	0.9479	0.58723	-0.043
Mof_C 	C 	0.6783	0.1429	0.52723	0.117
Mof_H 	H 	0.7336	0.2012	0.51103	-0.006
Mof_C 	C 	0.7151	0.0776	0.54863	-0.202
Mof_H 	H 	0.7958	0.0909	0.54663	0.095
Mof_C 	C 	0.2824	0.3126	0.46123	0.421
Mof_C 	C 	0.9623	0.2748	0.47813	-0.183
Mof_H 	H 	0.8797	0.2244	0.47113	0.091
Mof_C 	C 	0.9955	0.5853	0.43163	0.077
Mof_C 	C 	0.1778	0.3299	0.47563	-0.166
Mof_O 	O 	0.4751	0.23755	0.41667	-0.883
Mof_C 	C 	0.7916	0.3958	0.41667	0.563
Mof_C 	C 	0.1876	0.5938	0.41667	0.059
Mof_C 	C 	0.9302	0.4651	0.41667	-0.212
Mof_O 	O 	0.76245	0.23755	0.08333	-0.883
Mof_C 	C 	0.6042	0.3958	0.08333	0.565
Mof_C 	C 	0.4062	0.5938	0.08333	0.061
Mof_C 	C 	0.5349	0.4651	0.08333	-0.216
Mof_O 	O 	0.76245	0.5249	0.75	-0.883
Mof_C 	C 	0.6042	0.2084	0.75	0.563
Mof_C 	C 	0.4062	0.8124	0.75	0.059
Mof_C 	C 	0.5349	0.0698	0.75	-0.212
Mof_O 	O 	0.5249	0.76245	0.91667	-0.883
Mof_C 	C 	0.2084	0.6042	0.91667	0.563
Mof_C 	C 	0.8124	0.4062	0.91667	0.059
Mof_C 	C 	0.0698	0.5349	0.91667	-0.212
Mof_O 	O 	0.23755	0.76245	0.58333	-0.883
Mof_C 	C 	0.3958	0.6042	0.58333	0.565
Mof_C 	C 	0.5938	0.4062	0.58333	0.061
Mof_C 	C 	0.4651	0.5349	0.58333	-0.216
Mof_O 	O 	0.23755	0.4751	0.25	-0.883
Mof_C 	C 	0.3958	0.7916	0.25	0.563
Mof_C 	C 	0.5938	0.1876	0.25	0.059
Mof_C 	C 	0.4651	0.9302	0.25	-0.212
_end
