data_functionalizedCrystal
_audit_creation_method	'EQeq! by Chris Wilmer'
_symmetry_space_group_name_H-M	'P1'
_symmetry_Int_Tables_number	1
_symmetry_cell_setting	triclinic
loop_
_symmetry_equiv_pos_as_xyz
  x,y,z
_cell_length_a	13.0366
_cell_length_b	13.0366
_cell_length_c	16.24
_cell_angle_alpha	109.539
_cell_angle_beta	109.539
_cell_angle_gamma	95.4748
loop_
_atom_site_label
_atom_site_type_symbol
_atom_site_fract_x
_atom_site_fract_y
_atom_site_fract_z
_atom_site_charge
Mof_Cd	Cd	0.62115	0.37885	0.25	0.35
Mof_Cd	Cd	0.37885	0.62115	0.75	0.35
Mof_H 	H 	0.4314	0.4444	0.3279	0.007
Mof_H 	H 	0.7301	0.6321	0.4166	0.038
Mof_H 	H 	0.3794	0.5876	0.4234	0.118
Mof_H 	H 	0.6844	0.782	0.5123	0.178
Mof_H 	H 	0.5445	0.2173	0.029	-0.015
Mof_H 	H 	0.843	0.3128	0.2228	-0.026
Mof_H 	H 	0.6126	0.124	0.92	0.173
Mof_H 	H 	0.9186	0.2226	0.122	0.17
Mof_H 	H 	0.7555	0.0425	0.8778	0.203
Mof_H 	H 	0.8411	0.1543	0.9085	0.237
Mof_H 	H 	0.4154	0.7684	0.5343	0.106
Mof_H 	H 	0.5441	0.8159	0.609	0.118
Mof_H 	H 	0.5556	0.5686	0.1721	0.008
Mof_H 	H 	0.3679	0.2699	0.0834	0.039
Mof_H 	H 	0.4124	0.6206	0.0766	0.12
Mof_H 	H 	0.218	0.3156	0.9877	0.18
Mof_H 	H 	0.7827	0.4555	0.471	-0.016
Mof_H 	H 	0.6872	0.157	0.2772	-0.026
Mof_H 	H 	0.876	0.3874	0.58	0.176
Mof_H 	H 	0.7774	0.0814	0.378	0.173
Mof_H 	H 	0.9575	0.2445	0.6222	0.204
Mof_H 	H 	0.8457	0.1589	0.5915	0.238
Mof_H 	H 	0.2316	0.5846	0.9657	0.105
Mof_H 	H 	0.1841	0.4559	0.891	0.118
Mof_H 	H 	0.5686	0.5556	0.6721	0.008
Mof_H 	H 	0.2699	0.3679	0.5834	0.039
Mof_H 	H 	0.6206	0.4124	0.5766	0.119
Mof_H 	H 	0.3156	0.218	0.4877	0.179
Mof_H 	H 	0.4555	0.7827	0.971	-0.014
Mof_H 	H 	0.157	0.6872	0.7772	-0.025
Mof_H 	H 	0.3874	0.876	0.08	0.173
Mof_H 	H 	0.0814	0.7774	0.878	0.17
Mof_H 	H 	0.2445	0.9575	0.1222	0.203
Mof_H 	H 	0.1589	0.8457	0.0915	0.237
Mof_H 	H 	0.5846	0.2316	0.4657	0.106
Mof_H 	H 	0.4559	0.1841	0.391	0.118
Mof_H 	H 	0.4444	0.4314	0.8279	0.008
Mof_H 	H 	0.6321	0.7301	0.9166	0.039
Mof_H 	H 	0.5876	0.3794	0.9234	0.12
Mof_H 	H 	0.782	0.6844	0.0123	0.18
Mof_H 	H 	0.2173	0.5445	0.529	-0.016
Mof_H 	H 	0.3128	0.843	0.7228	-0.026
Mof_H 	H 	0.124	0.6126	0.42	0.176
Mof_H 	H 	0.2226	0.9186	0.622	0.173
Mof_H 	H 	0.0425	0.7555	0.3778	0.204
Mof_H 	H 	0.1543	0.8411	0.4085	0.238
Mof_H 	H 	0.7684	0.4154	0.0343	0.105
Mof_H 	H 	0.8159	0.5441	0.109	0.118
Mof_C 	C 	0.62284	0.22014	0.04733	0.169
Mof_C 	C 	0.79791	0.27511	0.16365	0.183
Mof_C 	C 	0.661	0.1628	0.97976	-0.305
Mof_C 	C 	0.84262	0.2197	0.10023	-0.288
Mof_C 	C 	0.77336	0.16192	0.00538	0.311
Mof_C 	C 	0.81521	0.10067	0.93027	-0.351
Mof_C 	C 	0.91044	0.04954	0.96633	0.006
Mof_C 	C 	0.89203	0.94637	0.97252	0.21
Mof_C 	C 	0.9786	0.89836	0.00426	0.206
Mof_C 	C 	0.4844	0.514	0.3665	0.119
Mof_C 	C 	0.6573	0.6225	0.4174	0.126
Mof_C 	C 	0.452	0.5996	0.4228	-0.188
Mof_C 	C 	0.6304	0.713	0.475	-0.199
Mof_C 	C 	0.52619	0.70227	0.47782	0.198
Mof_C 	C 	0.49484	0.79722	0.54211	-0.165
Mof_C 	C 	0.49953	0.90123	0.52006	-0.051
Mof_C 	C 	0.41575	0.90749	0.44398	0.231
Mof_C 	C 	0.41484	0.00292	0.42453	0.241
Mof_C 	C 	0.77986	0.37716	0.45267	0.175
Mof_C 	C 	0.72489	0.20209	0.33635	0.187
Mof_C 	C 	0.8372	0.339	0.52024	-0.316
Mof_C 	C 	0.7803	0.15738	0.39977	-0.294
Mof_C 	C 	0.83808	0.22664	0.49462	0.32
Mof_C 	C 	0.89933	0.18479	0.56973	-0.358
Mof_C 	C 	0.95046	0.08956	0.53367	0.004
Mof_C 	C 	0.05363	0.10797	0.52748	0.212
Mof_C 	C 	0.10164	0.0214	0.49574	0.205
Mof_C 	C 	0.486	0.5156	0.1335	0.12
Mof_C 	C 	0.3775	0.3427	0.0826	0.127
Mof_C 	C 	0.4004	0.548	0.0772	-0.189
Mof_C 	C 	0.287	0.3696	0.025	-0.2
Mof_C 	C 	0.29773	0.47381	0.02218	0.199
Mof_C 	C 	0.20278	0.50516	0.95789	-0.165
Mof_C 	C 	0.09877	0.50047	0.97994	-0.052
Mof_C 	C 	0.09251	0.58425	0.05602	0.232
Mof_C 	C 	0.99708	0.58516	0.07547	0.241
Mof_C 	C 	0.37716	0.77986	0.95267	0.169
Mof_C 	C 	0.20209	0.72489	0.83635	0.183
Mof_C 	C 	0.339	0.8372	0.02024	-0.305
Mof_C 	C 	0.15738	0.7803	0.89977	-0.288
Mof_C 	C 	0.22664	0.83808	0.99462	0.311
Mof_C 	C 	0.18479	0.89933	0.06973	-0.351
Mof_C 	C 	0.08956	0.95046	0.03367	0.006
Mof_C 	C 	0.10797	0.05363	0.02748	0.21
Mof_C 	C 	0.0214	0.10164	0.99574	0.206
Mof_C 	C 	0.5156	0.486	0.6335	0.119
Mof_C 	C 	0.3427	0.3775	0.5826	0.126
Mof_C 	C 	0.548	0.4004	0.5772	-0.188
Mof_C 	C 	0.3696	0.287	0.525	-0.199
Mof_C 	C 	0.47381	0.29773	0.52218	0.198
Mof_C 	C 	0.50516	0.20278	0.45789	-0.165
Mof_C 	C 	0.50047	0.09877	0.47994	-0.051
Mof_C 	C 	0.58425	0.09251	0.55602	0.231
Mof_C 	C 	0.58516	0.99708	0.57547	0.241
Mof_C 	C 	0.22014	0.62284	0.54733	0.175
Mof_C 	C 	0.27511	0.79791	0.66365	0.187
Mof_C 	C 	0.1628	0.661	0.47976	-0.316
Mof_C 	C 	0.2197	0.84262	0.60023	-0.294
Mof_C 	C 	0.16192	0.77336	0.50538	0.32
Mof_C 	C 	0.10067	0.81521	0.43027	-0.358
Mof_C 	C 	0.04954	0.91044	0.46633	0.004
Mof_C 	C 	0.94637	0.89203	0.47252	0.212
Mof_C 	C 	0.89836	0.9786	0.50426	0.205
Mof_C 	C 	0.514	0.4844	0.8665	0.12
Mof_C 	C 	0.6225	0.6573	0.9174	0.127
Mof_C 	C 	0.5996	0.452	0.9228	-0.189
Mof_C 	C 	0.713	0.6304	0.975	-0.2
Mof_C 	C 	0.70227	0.52619	0.97782	0.199
Mof_C 	C 	0.79722	0.49484	0.04211	-0.165
Mof_C 	C 	0.90123	0.49953	0.02006	-0.052
Mof_C 	C 	0.90749	0.41575	0.94398	0.232
Mof_C 	C 	0.00292	0.41484	0.92453	0.241
Mof_N 	N 	0.68972	0.27696	0.13901	-0.191
Mof_N 	N 	0.58616	0.52406	0.36378	-0.169
Mof_N 	N 	0.72304	0.31028	0.36099	-0.193
Mof_N 	N 	0.47594	0.41384	0.13622	-0.169
Mof_N 	N 	0.31028	0.72304	0.86099	-0.191
Mof_N 	N 	0.41384	0.47594	0.63622	-0.169
Mof_N 	N 	0.27696	0.68972	0.63901	-0.193
Mof_N 	N 	0.52406	0.58616	0.86378	-0.169
Mof_F 	F 	0.78621	0.89091	0.94602	-0.41
Mof_F 	F 	0.95403	0.79687	0.00722	-0.391
Mof_F 	F 	0.33061	0.81667	0.38616	-0.392
Mof_F 	F 	0.32894	0.00142	0.34966	-0.386
Mof_F 	F 	0.10909	0.21379	0.55398	-0.41
Mof_F 	F 	0.20313	0.04597	0.49278	-0.391
Mof_F 	F 	0.18333	0.66939	0.11384	-0.392
Mof_F 	F 	0.99858	0.67106	0.15034	-0.386
Mof_F 	F 	0.21379	0.10909	0.05398	-0.41
Mof_F 	F 	0.04597	0.20313	0.99278	-0.391
Mof_F 	F 	0.66939	0.18333	0.61384	-0.392
Mof_F 	F 	0.67106	0.99858	0.65034	-0.386
Mof_F 	F 	0.89091	0.78621	0.44602	-0.41
Mof_F 	F 	0.79687	0.95403	0.50722	-0.391
Mof_F 	F 	0.81667	0.33061	0.88616	-0.392
Mof_F 	F 	0.00142	0.32894	0.84966	-0.386
_end
