data_functionalizedCrystal
_audit_creation_method	'EQeq! by Chris Wilmer'
_symmetry_space_group_name_H-M	'P1'
_symmetry_Int_Tables_number	1
_symmetry_cell_setting	triclinic
loop_
_symmetry_equiv_pos_as_xyz
  x,y,z
_cell_length_a	6.7797
_cell_length_b	7.5077
_cell_length_c	12.8325
_cell_angle_alpha	107.009
_cell_angle_beta	103.454
_cell_angle_gamma	90
loop_
_atom_site_label
_atom_site_type_symbol
_atom_site_fract_x
_atom_site_fract_y
_atom_site_fract_z
_atom_site_charge
Mof_V 	V 	-0	0	-0	1.624
Mof_V 	V 	0.5	0	-0	1.678
Mof_C 	C 	0.0828	0.0879	0.7078	-0.139
Mof_C 	C 	0.2012	0.0001	0.6262	-0.387
Mof_C 	C 	0.2174	0.8952	0.4384	-0.144
Mof_C 	C 	0.1528	0.0934	0.8228	0.32
Mof_C 	C 	0.0944	0.967	0.514	0.333
Mof_C 	C 	0.8722	0.1321	0.6782	0.056
Mof_C 	C 	0.4172	0.3801	0.2922	-0.167
Mof_C 	C 	0.2988	0.3739	0.3738	0.006
Mof_C 	C 	0.2826	0.4568	0.5616	-0.048
Mof_C 	C 	0.3472	0.2706	0.1772	0.428
Mof_C 	C 	0.4056	0.453	0.486	-0.02
Mof_C 	C 	0.6278	0.4539	0.3218	0.029
Mof_C 	C 	0.9172	0.9121	0.2922	-0.098
Mof_C 	C 	0.7988	0.9999	0.3738	0.39
Mof_C 	C 	0.7826	0.1048	0.5616	0.044
Mof_C 	C 	0.8472	0.9066	0.1772	0.464
Mof_C 	C 	0.9056	0.033	0.486	-0.316
Mof_C 	C 	0.1278	0.8679	0.3218	-0.024
Mof_C 	C 	0.5828	0.6199	0.7078	-0.071
Mof_C 	C 	0.7012	0.6261	0.6262	-0.005
Mof_C 	C 	0.7174	0.5432	0.4384	-0.054
Mof_C 	C 	0.6528	0.7294	0.8228	0.358
Mof_C 	C 	0.5944	0.547	0.514	0.034
Mof_C 	C 	0.3722	0.5461	0.6782	-0.001
Mof_O 	O 	0.0938	0.1519	0.9138	-0.414
Mof_O 	O 	0.3356	0.0683	0.8566	-0.408
Mof_O 	O 	0.4062	0.2381	0.0862	-0.571
Mof_O 	O 	0.1644	0.2117	0.1434	-0.572
Mof_O 	O 	0.9062	0.8481	0.0862	-0.441
Mof_O 	O 	0.6644	0.9317	0.1434	-0.426
Mof_O 	O 	0.5938	0.7619	0.9138	-0.318
Mof_O 	O 	0.8356	0.7883	0.8566	-0.269
Mof_O 	O 	0.25	0.879	-0	-0.666
Mof_O 	O 	0.75	0.121	-0	-0.729
Mof_H 	H 	0.36417	0.96564	0.65683	0.223
Mof_H 	H 	0.37988	0.86193	0.47134	0.098
Mof_H 	H 	0.78658	0.18572	0.74659	0.059
Mof_H 	H 	0.13583	0.30882	0.34317	-0.027
Mof_H 	H 	0.12012	0.3906	0.52866	-0.008
Mof_H 	H 	0.71342	0.43913	0.25341	0.042
Mof_H 	H 	0.63583	0.03436	0.34317	-0.143
Mof_H 	H 	0.61923	0.14061	0.53357	-0.009
Mof_H 	H 	0.21342	0.81428	0.25341	0.037
Mof_H 	H 	0.86417	0.69118	0.65683	0.106
Mof_H 	H 	0.88077	0.60704	0.46643	0.096
Mof_H 	H 	0.27892	0.55669	0.74283	0.05
_end
