data_functionalizedCrystal
_audit_creation_method	'EQeq! by Chris Wilmer'
_symmetry_space_group_name_H-M	'P1'
_symmetry_Int_Tables_number	1
_symmetry_cell_setting	triclinic
loop_
_symmetry_equiv_pos_as_xyz
  x,y,z
_cell_length_a	14.157
_cell_length_b	26.699
_cell_length_c	7.586
_cell_angle_alpha	90
_cell_angle_beta	90
_cell_angle_gamma	90
loop_
_atom_site_label
_atom_site_type_symbol
_atom_site_fract_x
_atom_site_fract_y
_atom_site_fract_z
_atom_site_charge
Mof_Cd	Cd	0.21894	0.11414	0.13075	0.332
Mof_N 	N 	0.249	0.1714	0.905	-0.055
Mof_N 	N 	0.2421	0.1707	0.3452	-0.08
Mof_N 	N 	0.167	0.0515	0.338	-0.069
Mof_N 	N 	0.3696	0.08	0.126	-0.073
Mof_N 	N 	0.1765	0.057	0.901	-0.106
Mof_N 	N 	0.0563	0.1295	0.08	-0.167
Mof_C 	C 	0.249	0.2014	0.798	-0.234
Mof_C 	C 	0.2465	0.2008	0.4513	-0.241
Mof_C 	C 	0.1043	0.0316	0.401	-0.271
Mof_C 	C 	0.4201	0.0502	0.0807	-0.263
Mof_C 	C 	0.0753	0.0604	0.877	-0.033
Mof_C 	C 	0.0255	0.0986	0.936	-0.003
Mof_C 	C 	0.9204	0.1005	0.9896	0.072
Mof_Cd	Cd	0.28106	0.88586	0.63075	0.381
Mof_N 	N 	0.251	0.8286	0.405	-0.074
Mof_N 	N 	0.2579	0.8293	0.8452	-0.079
Mof_N 	N 	0.333	0.9485	0.838	-0.065
Mof_N 	N 	0.1304	0.92	0.626	-0.07
Mof_N 	N 	0.3235	0.943	0.401	-0.11
Mof_N 	N 	0.4437	0.8705	0.58	-0.122
Mof_C 	C 	0.251	0.7986	0.298	-0.261
Mof_C 	C 	0.2535	0.7992	0.9513	-0.198
Mof_C 	C 	0.3957	0.9684	0.901	-0.152
Mof_C 	C 	0.0799	0.9498	0.5807	-0.214
Mof_C 	C 	0.4247	0.9396	0.377	-0.011
Mof_C 	C 	0.4745	0.9014	0.436	0.023
Mof_C 	C 	0.5796	0.8995	0.4896	-0.009
Mof_Cd	Cd	0.78106	0.61414	0.86925	0.414
Mof_N 	N 	0.751	0.6714	0.095	-0.091
Mof_N 	N 	0.7579	0.6707	0.6548	-0.073
Mof_N 	N 	0.833	0.5515	0.662	-0.069
Mof_N 	N 	0.6304	0.58	0.874	-0.071
Mof_N 	N 	0.8235	0.557	0.099	-0.13
Mof_N 	N 	0.9437	0.6295	0.92	-0.08
Mof_C 	C 	0.751	0.7014	0.202	-0.242
Mof_C 	C 	0.7535	0.7008	0.5487	-0.223
Mof_C 	C 	0.8957	0.5316	0.599	-0.175
Mof_C 	C 	0.5799	0.5502	0.9193	-0.184
Mof_C 	C 	0.9247	0.5604	0.123	-0.022
Mof_C 	C 	0.9745	0.5986	0.064	0.07
Mof_C 	C 	0.0796	0.6005	0.0104	-0.119
Mof_Cd	Cd	0.71894	0.38586	0.36925	0.373
Mof_N 	N 	0.749	0.3286	0.595	-0.07
Mof_N 	N 	0.7421	0.3293	0.1548	-0.076
Mof_N 	N 	0.667	0.4485	0.162	-0.069
Mof_N 	N 	0.8696	0.42	0.374	-0.078
Mof_N 	N 	0.6765	0.443	0.599	-0.11
Mof_N 	N 	0.5563	0.3705	0.42	-0.126
Mof_C 	C 	0.749	0.2986	0.702	-0.215
Mof_C 	C 	0.7465	0.2992	0.0487	-0.257
Mof_C 	C 	0.6043	0.4684	0.099	-0.243
Mof_C 	C 	0.9201	0.4498	0.4193	-0.177
Mof_C 	C 	0.5753	0.4396	0.623	-0.012
Mof_C 	C 	0.5255	0.4014	0.564	0.035
Mof_C 	C 	0.4204	0.3995	0.5104	-0.012
Mof_Cd	Cd	0.78106	0.88586	0.86925	0.419
Mof_N 	N 	0.751	0.8286	0.095	-0.091
Mof_N 	N 	0.7579	0.8293	0.6548	-0.072
Mof_N 	N 	0.833	0.9485	0.662	-0.069
Mof_N 	N 	0.6304	0.92	0.874	-0.074
Mof_N 	N 	0.8235	0.943	0.099	-0.122
Mof_N 	N 	0.9437	0.8705	0.92	-0.08
Mof_C 	C 	0.751	0.7986	0.202	-0.241
Mof_C 	C 	0.7535	0.7992	0.5487	-0.223
Mof_C 	C 	0.8957	0.9684	0.599	-0.142
Mof_C 	C 	0.5799	0.9498	0.9193	-0.154
Mof_C 	C 	0.9247	0.9396	0.123	-0.004
Mof_C 	C 	0.9745	0.9014	0.064	0.065
Mof_C 	C 	0.0796	0.8995	0.0104	-0.108
Mof_Cd	Cd	0.71894	0.11414	0.36925	0.368
Mof_N 	N 	0.749	0.1714	0.595	-0.07
Mof_N 	N 	0.7421	0.1707	0.1548	-0.076
Mof_N 	N 	0.667	0.0515	0.162	-0.072
Mof_N 	N 	0.8696	0.08	0.374	-0.078
Mof_N 	N 	0.6765	0.057	0.599	-0.117
Mof_N 	N 	0.5563	0.1295	0.42	-0.126
Mof_C 	C 	0.749	0.2014	0.702	-0.216
Mof_C 	C 	0.7465	0.2008	0.0487	-0.258
Mof_C 	C 	0.6043	0.0316	0.099	-0.264
Mof_C 	C 	0.9201	0.0502	0.4193	-0.195
Mof_C 	C 	0.5753	0.0604	0.623	-0.028
Mof_C 	C 	0.5255	0.0986	0.564	0.039
Mof_C 	C 	0.4204	0.1005	0.5104	-0.022
Mof_Cd	Cd	0.21894	0.38586	0.13075	0.336
Mof_N 	N 	0.249	0.3286	0.905	-0.056
Mof_N 	N 	0.2421	0.3293	0.3452	-0.081
Mof_N 	N 	0.167	0.4485	0.338	-0.067
Mof_N 	N 	0.3696	0.42	0.126	-0.073
Mof_N 	N 	0.1765	0.443	0.901	-0.098
Mof_N 	N 	0.0563	0.3705	0.08	-0.166
Mof_C 	C 	0.249	0.2986	0.798	-0.234
Mof_C 	C 	0.2465	0.2992	0.4513	-0.241
Mof_C 	C 	0.1043	0.4684	0.401	-0.25
Mof_C 	C 	0.4201	0.4498	0.0807	-0.244
Mof_C 	C 	0.0753	0.4396	0.877	-0.016
Mof_C 	C 	0.0255	0.4014	0.936	-0.006
Mof_C 	C 	0.9204	0.3995	0.9896	0.081
Mof_Cd	Cd	0.28106	0.61414	0.63075	0.376
Mof_N 	N 	0.251	0.6714	0.405	-0.074
Mof_N 	N 	0.2579	0.6707	0.8452	-0.079
Mof_N 	N 	0.333	0.5515	0.838	-0.065
Mof_N 	N 	0.1304	0.58	0.626	-0.067
Mof_N 	N 	0.3235	0.557	0.401	-0.118
Mof_N 	N 	0.4437	0.6295	0.58	-0.123
Mof_C 	C 	0.251	0.7014	0.298	-0.262
Mof_C 	C 	0.2535	0.7008	0.9513	-0.199
Mof_C 	C 	0.3957	0.5316	0.901	-0.186
Mof_C 	C 	0.0799	0.5502	0.5807	-0.246
Mof_C 	C 	0.4247	0.5604	0.377	-0.029
Mof_C 	C 	0.4745	0.5986	0.436	0.027
Mof_C 	C 	0.5796	0.6005	0.4896	-0.019
Mof_Ni	Ni	0.2489	0.25	0.6241	1.065
Mof_Ni	Ni	0.2511	0.75	0.1241	1.039
Mof_Ni	Ni	0.7511	0.75	0.3759	1.065
Mof_Ni	Ni	0.7489	0.25	0.8759	1.087
Mof_Ni	Ni	1.00455e-33	0	0.5	1.014
Mof_Ni	Ni	0.5	0	-0	1.023
Mof_Ni	Ni	5.40647e-33	0.5	0.5	1.036
Mof_Ni	Ni	0.5	0.5	-0	1.045
_end
