data_functionalizedCrystal
_audit_creation_method	'EQeq! by Chris Wilmer'
_symmetry_space_group_name_H-M	'P1'
_symmetry_Int_Tables_number	1
_symmetry_cell_setting	triclinic
loop_
_symmetry_equiv_pos_as_xyz
  x,y,z
_cell_length_a	18.1152
_cell_length_b	18.1152
_cell_length_c	24.8515
_cell_angle_alpha	90
_cell_angle_beta	90
_cell_angle_gamma	120
loop_
_atom_site_label
_atom_site_type_symbol
_atom_site_fract_x
_atom_site_fract_y
_atom_site_fract_z
_atom_site_charge
Mof_C 	C 	0.1564	0.2056	0.1109	0.274
Mof_C 	C 	0.1748	0.4946	0.8849	0.192
Mof_C 	C 	0.1671	0.5891	0.9322	0.102
Mof_H 	H 	0.1812	0.6413	0.948	-0.04
Mof_N 	N 	0.0976	0.519	0.9427	-0.241
Mof_N 	N 	0.2179	0.5795	0.8958	-0.332
Mof_N 	N 	0.1005	0.4562	0.9131	-0.247
Mof_N 	N 	0.2041	0.456	0.853	-0.334
Mof_H 	H 	0.2533	0.4852	0.8378	0.103
Mof_H 	H 	0.1738	0.4017	0.8474	0.18
Mof_O 	O 	0.0792	0.1627	0.1242	-0.494
Mof_O 	O 	0.0856	0.2809	0.2055	-0.354
Mof_O 	O 	0.1956	0.282	0.0988	-0.408
Mof_C 	C 	0.7944	0.9508	0.1109	0.433
Mof_C 	C 	0.5054	0.6802	0.8849	0.202
Mof_C 	C 	0.4109	0.578	0.9322	0.103
Mof_H 	H 	0.3587	0.5399	0.948	-0.042
Mof_N 	N 	0.481	0.5786	0.9427	-0.23
Mof_N 	N 	0.4205	0.6384	0.8958	-0.331
Mof_N 	N 	0.5438	0.6443	0.9131	-0.237
Mof_N 	N 	0.544	0.7481	0.853	-0.341
Mof_H 	H 	0.5148	0.7681	0.8378	0.124
Mof_H 	H 	0.5983	0.7721	0.8474	0.197
Mof_O 	O 	0.8373	0.9165	0.1242	-0.397
Mof_O 	O 	0.7191	0.8047	0.2055	-0.345
Mof_O 	O 	0.718	0.9136	0.0988	-0.377
Mof_C 	C 	0.0492	0.8436	0.1109	0.126
Mof_C 	C 	0.3198	0.8252	0.8849	0.219
Mof_C 	C 	0.422	0.8329	0.9322	0.116
Mof_H 	H 	0.4601	0.8188	0.948	-0.023
Mof_N 	N 	0.4214	0.9024	0.9427	-0.181
Mof_N 	N 	0.3616	0.7821	0.8958	-0.329
Mof_N 	N 	0.3557	0.8995	0.9131	-0.19
Mof_N 	N 	0.2519	0.7959	0.853	-0.338
Mof_H 	H 	0.2319	0.7467	0.8378	0.11
Mof_H 	H 	0.2279	0.8262	0.8474	0.206
Mof_O 	O 	0.0835	0.9208	0.1242	-0.35
Mof_O 	O 	0.1953	0.9144	0.2055	-0.351
Mof_O 	O 	0.0864	0.8044	0.0988	-0.356
Mof_C 	C 	0.8436	0.7944	0.6109	0.275
Mof_C 	C 	0.8252	0.5054	0.3849	0.217
Mof_C 	C 	0.8329	0.4109	0.4322	0.113
Mof_H 	H 	0.8188	0.3587	0.448	-0.032
Mof_N 	N 	0.9024	0.481	0.4427	-0.19
Mof_N 	N 	0.7821	0.4205	0.3958	-0.331
Mof_N 	N 	0.8995	0.5438	0.4131	-0.193
Mof_N 	N 	0.7959	0.544	0.353	-0.339
Mof_H 	H 	0.7467	0.5148	0.3378	0.112
Mof_H 	H 	0.8262	0.5983	0.3474	0.208
Mof_O 	O 	0.9208	0.8373	0.6242	-0.326
Mof_O 	O 	0.9144	0.7191	0.7055	-0.342
Mof_O 	O 	0.8044	0.718	0.5988	-0.37
Mof_C 	C 	0.2056	0.0492	0.6109	0.128
Mof_C 	C 	0.4946	0.3198	0.3849	0.19
Mof_C 	C 	0.5891	0.422	0.4322	0.097
Mof_H 	H 	0.6413	0.4601	0.448	-0.048
Mof_N 	N 	0.519	0.4214	0.4427	-0.24
Mof_N 	N 	0.5795	0.3616	0.3958	-0.333
Mof_N 	N 	0.4562	0.3557	0.4131	-0.24
Mof_N 	N 	0.456	0.2519	0.353	-0.334
Mof_H 	H 	0.4852	0.2319	0.3378	0.101
Mof_H 	H 	0.4017	0.2279	0.3474	0.18
Mof_O 	O 	0.1627	0.0835	0.6242	-0.449
Mof_O 	O 	0.2809	0.1953	0.7055	-0.374
Mof_O 	O 	0.282	0.0864	0.5988	-0.378
Mof_C 	C 	0.9508	0.1564	0.6109	0.437
Mof_C 	C 	0.6802	0.1748	0.3849	0.197
Mof_C 	C 	0.578	0.1671	0.4322	0.1
Mof_H 	H 	0.5399	0.1812	0.448	-0.051
Mof_N 	N 	0.5786	0.0976	0.4427	-0.25
Mof_N 	N 	0.6384	0.2179	0.3958	-0.334
Mof_N 	N 	0.6443	0.1005	0.4131	-0.249
Mof_N 	N 	0.7481	0.2041	0.353	-0.34
Mof_H 	H 	0.7681	0.2533	0.3378	0.123
Mof_H 	H 	0.7721	0.1738	0.3474	0.195
Mof_O 	O 	0.9165	0.0792	0.6242	-0.464
Mof_O 	O 	0.8047	0.0856	0.7055	-0.333
Mof_O 	O 	0.9136	0.1956	0.5988	-0.378
Mof_C 	C 	0.2056	0.1564	0.3891	0.275
Mof_C 	C 	0.4946	0.1748	0.6151	0.188
Mof_C 	C 	0.5891	0.1671	0.5678	0.098
Mof_H 	H 	0.6413	0.1812	0.552	-0.049
Mof_N 	N 	0.519	0.0976	0.5573	-0.251
Mof_N 	N 	0.5795	0.2179	0.6042	-0.333
Mof_N 	N 	0.4562	0.1005	0.5869	-0.25
Mof_N 	N 	0.456	0.2041	0.647	-0.334
Mof_H 	H 	0.4852	0.2533	0.6622	0.103
Mof_H 	H 	0.4017	0.1738	0.6526	0.179
Mof_O 	O 	0.1627	0.0792	0.3758	-0.493
Mof_O 	O 	0.2809	0.0856	0.2945	-0.354
Mof_O 	O 	0.282	0.1956	0.4012	-0.403
Mof_C 	C 	0.9508	0.7944	0.3891	0.436
Mof_C 	C 	0.6802	0.5054	0.6151	0.199
Mof_C 	C 	0.578	0.4109	0.5678	0.099
Mof_H 	H 	0.5399	0.3587	0.552	-0.051
Mof_N 	N 	0.5786	0.481	0.5573	-0.24
Mof_N 	N 	0.6384	0.4205	0.6042	-0.333
Mof_N 	N 	0.6443	0.5438	0.5869	-0.24
Mof_N 	N 	0.7481	0.544	0.647	-0.341
Mof_H 	H 	0.7681	0.5148	0.6622	0.124
Mof_H 	H 	0.7721	0.5983	0.6526	0.196
Mof_O 	O 	0.9165	0.8373	0.3758	-0.396
Mof_O 	O 	0.8047	0.7191	0.2945	-0.345
Mof_O 	O 	0.9136	0.718	0.4012	-0.372
Mof_C 	C 	0.8436	0.0492	0.3891	0.127
Mof_C 	C 	0.8252	0.3198	0.6151	0.217
Mof_C 	C 	0.8329	0.422	0.5678	0.112
Mof_H 	H 	0.8188	0.4601	0.552	-0.032
Mof_N 	N 	0.9024	0.4214	0.5573	-0.19
Mof_N 	N 	0.7821	0.3616	0.6042	-0.331
Mof_N 	N 	0.8995	0.3557	0.5869	-0.193
Mof_N 	N 	0.7959	0.2519	0.647	-0.338
Mof_H 	H 	0.7467	0.2319	0.6622	0.109
Mof_H 	H 	0.8262	0.2279	0.6526	0.206
Mof_O 	O 	0.9208	0.0835	0.3758	-0.349
Mof_O 	O 	0.9144	0.1953	0.2945	-0.35
Mof_O 	O 	0.8044	0.0864	0.4012	-0.35
Mof_C 	C 	0.7944	0.8436	0.8891	0.278
Mof_C 	C 	0.5054	0.8252	0.1151	0.215
Mof_C 	C 	0.4109	0.8329	0.0678	0.109
Mof_H 	H 	0.3587	0.8188	0.052	-0.04
Mof_N 	N 	0.481	0.9024	0.0573	-0.197
Mof_N 	N 	0.4205	0.7821	0.1042	-0.332
Mof_N 	N 	0.5438	0.8995	0.0869	-0.196
Mof_N 	N 	0.544	0.7959	0.147	-0.339
Mof_H 	H 	0.5148	0.7467	0.1622	0.111
Mof_H 	H 	0.5983	0.8262	0.1526	0.207
Mof_O 	O 	0.8373	0.9208	0.8758	-0.326
Mof_O 	O 	0.7191	0.9144	0.7945	-0.343
Mof_O 	O 	0.718	0.8044	0.9012	-0.365
Mof_C 	C 	0.0492	0.2056	0.8891	0.132
Mof_C 	C 	0.3198	0.4946	0.1151	0.188
Mof_C 	C 	0.422	0.5891	0.0678	0.093
Mof_H 	H 	0.4601	0.6413	0.052	-0.056
Mof_N 	N 	0.4214	0.519	0.0573	-0.247
Mof_N 	N 	0.3616	0.5795	0.1042	-0.334
Mof_N 	N 	0.3557	0.4562	0.0869	-0.243
Mof_N 	N 	0.2519	0.456	0.147	-0.333
Mof_H 	H 	0.2319	0.4852	0.1622	0.101
Mof_H 	H 	0.2279	0.4017	0.1526	0.179
Mof_O 	O 	0.0835	0.1627	0.8758	-0.448
Mof_O 	O 	0.1953	0.2809	0.7945	-0.374
Mof_O 	O 	0.0864	0.282	0.9012	-0.373
Mof_C 	C 	0.1564	0.9508	0.8891	0.438
Mof_C 	C 	0.1748	0.6802	0.1151	0.195
Mof_C 	C 	0.1671	0.578	0.0678	0.096
Mof_H 	H 	0.1812	0.5399	0.052	-0.06
Mof_N 	N 	0.0976	0.5786	0.0573	-0.257
Mof_N 	N 	0.2179	0.6384	0.1042	-0.335
Mof_N 	N 	0.1005	0.6443	0.0869	-0.251
Mof_N 	N 	0.2041	0.7481	0.147	-0.34
Mof_H 	H 	0.2533	0.7681	0.1622	0.123
Mof_H 	H 	0.1738	0.7721	0.1526	0.194
Mof_O 	O 	0.0792	0.9165	0.8758	-0.463
Mof_O 	O 	0.0856	0.8047	0.7945	-0.333
Mof_O 	O 	0.1956	0.9136	0.9012	-0.373
Mof_C 	C 	0.8436	0.7944	0.8891	0.278
Mof_C 	C 	0.8252	0.5054	0.1151	0.215
Mof_C 	C 	0.8329	0.4109	0.0678	0.109
Mof_H 	H 	0.8188	0.3587	0.052	-0.04
Mof_N 	N 	0.9024	0.481	0.0573	-0.197
Mof_N 	N 	0.7821	0.4205	0.1042	-0.332
Mof_N 	N 	0.8995	0.5438	0.0869	-0.196
Mof_N 	N 	0.7959	0.544	0.147	-0.339
Mof_H 	H 	0.7467	0.5148	0.1622	0.111
Mof_H 	H 	0.8262	0.5983	0.1526	0.207
Mof_O 	O 	0.9208	0.8373	0.8758	-0.326
Mof_O 	O 	0.9144	0.7191	0.7945	-0.343
Mof_O 	O 	0.8044	0.718	0.9012	-0.365
Mof_C 	C 	0.2056	0.0492	0.8891	0.132
Mof_C 	C 	0.4946	0.3198	0.1151	0.188
Mof_C 	C 	0.5891	0.422	0.0678	0.093
Mof_H 	H 	0.6413	0.4601	0.052	-0.056
Mof_N 	N 	0.519	0.4214	0.0573	-0.247
Mof_N 	N 	0.5795	0.3616	0.1042	-0.334
Mof_N 	N 	0.4562	0.3557	0.0869	-0.243
Mof_N 	N 	0.456	0.2519	0.147	-0.333
Mof_H 	H 	0.4852	0.2319	0.1622	0.101
Mof_H 	H 	0.4017	0.2279	0.1526	0.179
Mof_O 	O 	0.1627	0.0835	0.8758	-0.448
Mof_O 	O 	0.2809	0.1953	0.7945	-0.374
Mof_O 	O 	0.282	0.0864	0.9012	-0.373
Mof_C 	C 	0.9508	0.1564	0.8891	0.438
Mof_C 	C 	0.6802	0.1748	0.1151	0.195
Mof_C 	C 	0.578	0.1671	0.0678	0.096
Mof_H 	H 	0.5399	0.1812	0.052	-0.06
Mof_N 	N 	0.5786	0.0976	0.0573	-0.257
Mof_N 	N 	0.6384	0.2179	0.1042	-0.335
Mof_N 	N 	0.6443	0.1005	0.0869	-0.251
Mof_N 	N 	0.7481	0.2041	0.147	-0.34
Mof_H 	H 	0.7681	0.2533	0.1622	0.123
Mof_H 	H 	0.7721	0.1738	0.1526	0.194
Mof_O 	O 	0.9165	0.0792	0.8758	-0.463
Mof_O 	O 	0.8047	0.0856	0.7945	-0.333
Mof_O 	O 	0.9136	0.1956	0.9012	-0.373
Mof_C 	C 	0.1564	0.2056	0.3891	0.275
Mof_C 	C 	0.1748	0.4946	0.6151	0.188
Mof_C 	C 	0.1671	0.5891	0.5678	0.098
Mof_H 	H 	0.1812	0.6413	0.552	-0.049
Mof_N 	N 	0.0976	0.519	0.5573	-0.251
Mof_N 	N 	0.2179	0.5795	0.6042	-0.333
Mof_N 	N 	0.1005	0.4562	0.5869	-0.25
Mof_N 	N 	0.2041	0.456	0.647	-0.334
Mof_H 	H 	0.2533	0.4852	0.6622	0.103
Mof_H 	H 	0.1738	0.4017	0.6526	0.179
Mof_O 	O 	0.0792	0.1627	0.3758	-0.493
Mof_O 	O 	0.0856	0.2809	0.2945	-0.354
Mof_O 	O 	0.1956	0.282	0.4012	-0.403
Mof_C 	C 	0.7944	0.9508	0.3891	0.436
Mof_C 	C 	0.5054	0.6802	0.6151	0.199
Mof_C 	C 	0.4109	0.578	0.5678	0.099
Mof_H 	H 	0.3587	0.5399	0.552	-0.051
Mof_N 	N 	0.481	0.5786	0.5573	-0.24
Mof_N 	N 	0.4205	0.6384	0.6042	-0.333
Mof_N 	N 	0.5438	0.6443	0.5869	-0.24
Mof_N 	N 	0.544	0.7481	0.647	-0.341
Mof_H 	H 	0.5148	0.7681	0.6622	0.124
Mof_H 	H 	0.5983	0.7721	0.6526	0.196
Mof_O 	O 	0.8373	0.9165	0.3758	-0.396
Mof_O 	O 	0.7191	0.8047	0.2945	-0.345
Mof_O 	O 	0.718	0.9136	0.4012	-0.372
Mof_C 	C 	0.0492	0.8436	0.3891	0.127
Mof_C 	C 	0.3198	0.8252	0.6151	0.217
Mof_C 	C 	0.422	0.8329	0.5678	0.112
Mof_H 	H 	0.4601	0.8188	0.552	-0.032
Mof_N 	N 	0.4214	0.9024	0.5573	-0.19
Mof_N 	N 	0.3616	0.7821	0.6042	-0.331
Mof_N 	N 	0.3557	0.8995	0.5869	-0.193
Mof_N 	N 	0.2519	0.7959	0.647	-0.338
Mof_H 	H 	0.2319	0.7467	0.6622	0.109
Mof_H 	H 	0.2279	0.8262	0.6526	0.206
Mof_O 	O 	0.0835	0.9208	0.3758	-0.349
Mof_O 	O 	0.1953	0.9144	0.2945	-0.35
Mof_O 	O 	0.0864	0.8044	0.4012	-0.35
Mof_C 	C 	0.7944	0.8436	0.6109	0.275
Mof_C 	C 	0.5054	0.8252	0.3849	0.217
Mof_C 	C 	0.4109	0.8329	0.4322	0.113
Mof_H 	H 	0.3587	0.8188	0.448	-0.032
Mof_N 	N 	0.481	0.9024	0.4427	-0.19
Mof_N 	N 	0.4205	0.7821	0.3958	-0.331
Mof_N 	N 	0.5438	0.8995	0.4131	-0.193
Mof_N 	N 	0.544	0.7959	0.353	-0.339
Mof_H 	H 	0.5148	0.7467	0.3378	0.112
Mof_H 	H 	0.5983	0.8262	0.3474	0.208
Mof_O 	O 	0.8373	0.9208	0.6242	-0.326
Mof_O 	O 	0.7191	0.9144	0.7055	-0.342
Mof_O 	O 	0.718	0.8044	0.5988	-0.37
Mof_C 	C 	0.0492	0.2056	0.6109	0.128
Mof_C 	C 	0.3198	0.4946	0.3849	0.19
Mof_C 	C 	0.422	0.5891	0.4322	0.097
Mof_H 	H 	0.4601	0.6413	0.448	-0.048
Mof_N 	N 	0.4214	0.519	0.4427	-0.24
Mof_N 	N 	0.3616	0.5795	0.3958	-0.333
Mof_N 	N 	0.3557	0.4562	0.4131	-0.24
Mof_N 	N 	0.2519	0.456	0.353	-0.334
Mof_H 	H 	0.2319	0.4852	0.3378	0.101
Mof_H 	H 	0.2279	0.4017	0.3474	0.18
Mof_O 	O 	0.0835	0.1627	0.6242	-0.449
Mof_O 	O 	0.1953	0.2809	0.7055	-0.374
Mof_O 	O 	0.0864	0.282	0.5988	-0.378
Mof_C 	C 	0.1564	0.9508	0.6109	0.437
Mof_C 	C 	0.1748	0.6802	0.3849	0.197
Mof_C 	C 	0.1671	0.578	0.4322	0.1
Mof_H 	H 	0.1812	0.5399	0.448	-0.051
Mof_N 	N 	0.0976	0.5786	0.4427	-0.25
Mof_N 	N 	0.2179	0.6384	0.3958	-0.334
Mof_N 	N 	0.1005	0.6443	0.4131	-0.249
Mof_N 	N 	0.2041	0.7481	0.353	-0.34
Mof_H 	H 	0.2533	0.7681	0.3378	0.123
Mof_H 	H 	0.1738	0.7721	0.3474	0.195
Mof_O 	O 	0.0792	0.9165	0.6242	-0.464
Mof_O 	O 	0.0856	0.8047	0.7055	-0.333
Mof_O 	O 	0.1956	0.9136	0.5988	-0.378
Mof_C 	C 	0.2056	0.1564	0.1109	0.273
Mof_C 	C 	0.4946	0.1748	0.8849	0.191
Mof_C 	C 	0.5891	0.1671	0.9322	0.102
Mof_H 	H 	0.6413	0.1812	0.948	-0.04
Mof_N 	N 	0.519	0.0976	0.9427	-0.241
Mof_N 	N 	0.5795	0.2179	0.8958	-0.332
Mof_N 	N 	0.4562	0.1005	0.9131	-0.247
Mof_N 	N 	0.456	0.2041	0.853	-0.334
Mof_H 	H 	0.4852	0.2533	0.8378	0.103
Mof_H 	H 	0.4017	0.1738	0.8474	0.18
Mof_O 	O 	0.1627	0.0792	0.1242	-0.494
Mof_O 	O 	0.2809	0.0856	0.2055	-0.354
Mof_O 	O 	0.282	0.1956	0.0988	-0.408
Mof_C 	C 	0.9508	0.7944	0.1109	0.433
Mof_C 	C 	0.6802	0.5054	0.8849	0.202
Mof_C 	C 	0.578	0.4109	0.9322	0.103
Mof_H 	H 	0.5399	0.3587	0.948	-0.042
Mof_N 	N 	0.5786	0.481	0.9427	-0.23
Mof_N 	N 	0.6384	0.4205	0.8958	-0.331
Mof_N 	N 	0.6443	0.5438	0.9131	-0.237
Mof_N 	N 	0.7481	0.544	0.853	-0.341
Mof_H 	H 	0.7681	0.5148	0.8378	0.124
Mof_H 	H 	0.7721	0.5983	0.8474	0.197
Mof_O 	O 	0.9165	0.8373	0.1242	-0.397
Mof_O 	O 	0.8047	0.7191	0.2055	-0.345
Mof_O 	O 	0.9136	0.718	0.0988	-0.377
Mof_C 	C 	0.8436	0.0492	0.1109	0.126
Mof_C 	C 	0.8252	0.3198	0.8849	0.219
Mof_C 	C 	0.8329	0.422	0.9322	0.116
Mof_H 	H 	0.8188	0.4601	0.948	-0.023
Mof_N 	N 	0.9024	0.4214	0.9427	-0.181
Mof_N 	N 	0.7821	0.3616	0.8958	-0.329
Mof_N 	N 	0.8995	0.3557	0.9131	-0.19
Mof_N 	N 	0.7959	0.2519	0.853	-0.338
Mof_H 	H 	0.7467	0.2319	0.8378	0.11
Mof_H 	H 	0.8262	0.2279	0.8474	0.206
Mof_O 	O 	0.9208	0.0835	0.1242	-0.35
Mof_O 	O 	0.9144	0.1953	0.2055	-0.351
Mof_O 	O 	0.8044	0.0864	0.0988	-0.356
Mof_C 	C 	0.0491	0.2631	0.25	0.06
Mof_C 	C 	0.7369	0.786	0.25	0.22
Mof_C 	C 	0.214	0.9509	0.25	0.362
Mof_C 	C 	0.9509	0.7369	0.75	0.369
Mof_C 	C 	0.2631	0.214	0.75	0.202
Mof_C 	C 	0.786	0.0491	0.75	0.069
Mof_C 	C 	0.2631	0.0491	0.25	0.06
Mof_C 	C 	0.786	0.7369	0.25	0.22
Mof_C 	C 	0.9509	0.214	0.25	0.362
Mof_C 	C 	0.7369	0.9509	0.75	0.369
Mof_C 	C 	0.214	0.2631	0.75	0.202
Mof_C 	C 	0.0491	0.786	0.75	0.069
Mof_C 	C 	-5.20813e-18	0.2622	0.031	0.03
Mof_H 	H 	-3.10808e-18	0.2135	0.0185	-0.048
Mof_C 	C 	-4.60204e-17	0.3573	0.0823	0.14
Mof_N 	N 	-3.00916e-17	0.2814	0.0833	-0.307
Mof_N 	N 	-6.76705e-18	0.3227	0.9984	-0.216
Mof_N 	N 	-5.46014e-18	0.3841	0.0325	-0.277
Mof_N 	N 	-2.15381e-17	0.399	0.1282	-0.314
Mof_H 	H 	-5.3379e-17	0.4466	0.1261	0.095
Mof_H 	H 	-2.67631e-17	0.3777	0.1593	0.085
Mof_Cl	Cl	-9.12317e-18	0.3369	0.8208	-0.553
Mof_Zn	Zn	-8.01009e-18	0.21104	0.14349	1.182
Mof_Zn	Zn	7.38563e-18	0.33291	0.91416	1.18
Mof_C 	C 	0.7378	0.7378	0.031	0.055
Mof_H 	H 	0.7865	0.7865	0.0185	0.017
Mof_C 	C 	0.6427	0.6427	0.0823	0.181
Mof_N 	N 	0.7186	0.7186	0.0833	-0.285
Mof_N 	N 	0.6773	0.6773	0.9984	-0.183
Mof_N 	N 	0.6159	0.6159	0.0325	-0.255
Mof_N 	N 	0.601	0.601	0.1282	-0.326
Mof_H 	H 	0.5534	0.5534	0.1261	0.133
Mof_H 	H 	0.6223	0.6223	0.1593	0.123
Mof_Cl	Cl	0.6631	0.6631	0.8208	-0.451
Mof_Zn	Zn	0.78896	0.78896	0.14349	1.225
Mof_Zn	Zn	0.66709	0.66709	0.91416	1.212
Mof_C 	C 	0.2622	-8.93554e-34	0.031	0.03
Mof_H 	H 	0.2135	4.46777e-34	0.0185	-0.048
Mof_C 	C 	0.3573	-1.78711e-33	0.0823	0.14
Mof_N 	N 	0.2814	0	0.0833	-0.307
Mof_N 	N 	0.3227	0	0.9984	-0.216
Mof_N 	N 	0.3841	0	0.0325	-0.277
Mof_N 	N 	0.399	0	0.1282	-0.314
Mof_H 	H 	0.4466	0	0.1261	0.095
Mof_H 	H 	0.3777	0	0.1593	0.085
Mof_Cl	Cl	0.3369	-2.85937e-32	0.8208	-0.553
Mof_Zn	Zn	0.21104	-3.57422e-33	0.14349	1.182
Mof_Zn	Zn	0.33291	0	0.91416	1.18
Mof_C 	C 	-2.48229e-17	0.7378	0.531	0.075
Mof_H 	H 	-2.27228e-17	0.7865	0.5185	-0.03
Mof_C 	C 	3.09458e-17	0.6427	0.5823	0.143
Mof_N 	N 	-3.36095e-17	0.7186	0.5833	-0.309
Mof_N 	N 	4.50414e-17	0.6773	0.4984	-0.252
Mof_N 	N 	-2.50749e-17	0.6159	0.5325	-0.257
Mof_N 	N 	-4.11529e-17	0.601	0.6282	-0.315
Mof_H 	H 	-4.08001e-17	0.5534	0.6261	0.095
Mof_H 	H 	1.80095e-17	0.6223	0.6593	0.085
Mof_Cl	Cl	-5.38958e-17	0.6631	0.3208	-0.549
Mof_Zn	Zn	-4.37217e-17	0.78896	0.64349	1.186
Mof_Zn	Zn	-5.19328e-18	0.66709	0.41416	1.178
Mof_C 	C 	0.2622	0.2622	0.531	0.098
Mof_H 	H 	0.2135	0.2135	0.5185	-0.024
Mof_C 	C 	0.3573	0.3573	0.5823	0.181
Mof_N 	N 	0.2814	0.2814	0.5833	-0.294
Mof_N 	N 	0.3227	0.3227	0.4984	-0.23
Mof_N 	N 	0.3841	0.3841	0.5325	-0.237
Mof_N 	N 	0.399	0.399	0.6282	-0.326
Mof_H 	H 	0.4466	0.4466	0.6261	0.132
Mof_H 	H 	0.3777	0.3777	0.6593	0.123
Mof_Cl	Cl	0.3369	0.3369	0.3208	-0.459
Mof_Zn	Zn	0.21104	0.21104	0.64349	1.217
Mof_Zn	Zn	0.33291	0.33291	0.41416	1.209
Mof_C 	C 	0.7378	0	0.531	0.075
Mof_H 	H 	0.7865	-1.42969e-32	0.5185	-0.03
Mof_C 	C 	0.6427	-1.42969e-32	0.5823	0.143
Mof_N 	N 	0.7186	-1.42969e-32	0.5833	-0.309
Mof_N 	N 	0.6773	-1.42969e-32	0.4984	-0.252
Mof_N 	N 	0.6159	-1.42969e-32	0.5325	-0.257
Mof_N 	N 	0.601	0	0.6282	-0.315
Mof_H 	H 	0.5534	-1.42969e-32	0.6261	0.095
Mof_H 	H 	0.6223	1.42969e-32	0.6593	0.085
Mof_Cl	Cl	0.6631	0	0.3208	-0.549
Mof_Zn	Zn	0.78896	0	0.64349	1.186
Mof_Zn	Zn	0.66709	0	0.41416	1.178
Mof_C 	C 	0.2622	0	0.469	0.074
Mof_H 	H 	0.2135	0	0.4815	-0.05
Mof_C 	C 	0.3573	0	0.4177	0.142
Mof_N 	N 	0.2814	0	0.4167	-0.311
Mof_N 	N 	0.3227	0	0.5016	-0.255
Mof_N 	N 	0.3841	0	0.4675	-0.258
Mof_N 	N 	0.399	0	0.3718	-0.315
Mof_H 	H 	0.4466	7.14843e-33	0.3739	0.095
Mof_H 	H 	0.3777	0	0.3407	0.086
Mof_Cl	Cl	0.3369	-1.42969e-32	0.6792	-0.554
Mof_Zn	Zn	0.21104	0	0.35651	1.182
Mof_Zn	Zn	0.33291	0	0.58584	1.178
Mof_C 	C 	0.7378	0.7378	0.469	0.1
Mof_H 	H 	0.7865	0.7865	0.4815	0.016
Mof_C 	C 	0.6427	0.6427	0.4177	0.183
Mof_N 	N 	0.7186	0.7186	0.4167	-0.289
Mof_N 	N 	0.6773	0.6773	0.5016	-0.222
Mof_N 	N 	0.6159	0.6159	0.4675	-0.235
Mof_N 	N 	0.601	0.601	0.3718	-0.326
Mof_H 	H 	0.5534	0.5534	0.3739	0.133
Mof_H 	H 	0.6223	0.6223	0.3407	0.123
Mof_Cl	Cl	0.6631	0.6631	0.6792	-0.451
Mof_Zn	Zn	0.78896	0.78896	0.35651	1.225
Mof_Zn	Zn	0.66709	0.66709	0.58584	1.21
Mof_C 	C 	-1.44066e-17	0.2622	0.469	0.074
Mof_H 	H 	-1.65067e-17	0.2135	0.4815	-0.05
Mof_C 	C 	-3.79817e-17	0.3573	0.4177	0.142
Mof_N 	N 	-2.17169e-17	0.2814	0.4167	-0.311
Mof_N 	N 	1.23101e-17	0.3227	0.5016	-0.255
Mof_N 	N 	-4.63483e-17	0.3841	0.4675	-0.258
Mof_N 	N 	-3.02703e-17	0.399	0.3718	-0.315
Mof_H 	H 	1.57057e-18	0.4466	0.3739	0.095
Mof_H 	H 	-2.50454e-17	0.3777	0.3407	0.086
Mof_Cl	Cl	-1.75274e-17	0.3369	0.6792	-0.554
Mof_Zn	Zn	-1.16047e-17	0.21104	0.35651	1.182
Mof_Zn	Zn	-1.84257e-18	0.33291	0.58584	1.178
Mof_C 	C 	0.7378	0	0.969	0.118
Mof_H 	H 	0.7865	0	0.9815	-0.029
Mof_C 	C 	0.6427	-2.85937e-32	0.9177	0.146
Mof_N 	N 	0.7186	-2.85937e-32	0.9167	-0.313
Mof_N 	N 	0.6773	0	0.0016	-0.289
Mof_N 	N 	0.6159	0	0.9675	-0.235
Mof_N 	N 	0.601	0	0.8718	-0.315
Mof_H 	H 	0.5534	0	0.8739	0.096
Mof_H 	H 	0.6223	-2.85937e-32	0.8407	0.086
Mof_Cl	Cl	0.6631	0	0.1792	-0.548
Mof_Zn	Zn	0.78896	-2.85937e-32	0.85651	1.186
Mof_Zn	Zn	0.66709	-1.78711e-33	0.08584	1.177
Mof_C 	C 	0.2622	0.2622	0.969	0.143
Mof_H 	H 	0.2135	0.2135	0.9815	-0.023
Mof_C 	C 	0.3573	0.3573	0.9177	0.183
Mof_N 	N 	0.2814	0.2814	0.9167	-0.299
Mof_N 	N 	0.3227	0.3227	0.0016	-0.269
Mof_N 	N 	0.3841	0.3841	0.9675	-0.214
Mof_N 	N 	0.399	0.399	0.8718	-0.326
Mof_H 	H 	0.4466	0.4466	0.8739	0.133
Mof_H 	H 	0.3777	0.3777	0.8407	0.124
Mof_Cl	Cl	0.3369	0.3369	0.1792	-0.459
Mof_Zn	Zn	0.21104	0.21104	0.85651	1.217
Mof_Zn	Zn	0.33291	0.33291	0.08584	1.207
Mof_C 	C 	-3.40214e-17	0.7378	0.969	0.118
Mof_H 	H 	-1.00509e-16	0.7865	0.9815	-0.029
Mof_C 	C 	-2.54028e-17	0.6427	0.9177	0.146
Mof_N 	N 	-2.52348e-17	0.7186	0.9167	-0.313
Mof_N 	N 	-2.68807e-19	0.6773	0.0016	-0.289
Mof_N 	N 	-3.37694e-17	0.6159	0.9675	-0.235
Mof_N 	N 	-8.20788e-17	0.601	0.8718	-0.315
Mof_H 	H 	-8.24316e-17	0.5534	0.8739	0.096
Mof_H 	H 	-1.24665e-17	0.6223	0.8407	0.086
Mof_Cl	Cl	-3.01064e-17	0.6631	0.1792	-0.548
Mof_Zn	Zn	-7.951e-17	0.78896	0.85651	1.186
Mof_Zn	Zn	-1.44215e-17	0.66709	0.08584	1.177
Mof_Cl	Cl	-3.57422e-33	0	0.25	-0.659
Mof_Cl	Cl	-7.14843e-33	1.42969e-32	0.75	-0.662
Mof_Cl	Cl	-0	0	-0	-0.687
Mof_Cl	Cl	-7.14843e-33	0	0.5	-0.654
Mof_Gd	Gd	-1.78711e-33	0	0.12464	1.013
Mof_Gd	Gd	-1.42969e-32	0	0.62464	1.016
Mof_Gd	Gd	3.57422e-33	7.14843e-33	0.37536	1.016
Mof_Gd	Gd	1.42969e-32	0	0.87536	1.042
Mof_Zn	Zn	-0	0.5	-0	1.118
Mof_Zn	Zn	0.5	0.5	-0	1.149
Mof_Zn	Zn	0.5	0	-0	1.118
Mof_Zn	Zn	-1.96148e-17	0.5	0.5	1.131
Mof_Zn	Zn	0.5	0.5	0.5	1.162
Mof_Zn	Zn	0.5	0	0.5	1.131
Mof_Zn	Zn	0.33333	0.66667	0.87244	1.145
Mof_Zn	Zn	0.66667	0.33333	0.37244	1.144
Mof_Zn	Zn	0.66667	0.33333	0.62756	1.144
Mof_Zn	Zn	0.33333	0.66667	0.12756	1.143
Mof_Zn	Zn	0.66667	0.33333	0.12756	1.143
Mof_Zn	Zn	0.33333	0.66667	0.62756	1.144
Mof_Zn	Zn	0.33333	0.66667	0.37244	1.144
Mof_Zn	Zn	0.66667	0.33333	0.87244	1.145
_end
