data_functionalizedCrystal
_audit_creation_method	'EQeq! by Chris Wilmer'
_symmetry_space_group_name_H-M	'P1'
_symmetry_Int_Tables_number	1
_symmetry_cell_setting	triclinic
loop_
_symmetry_equiv_pos_as_xyz
  x,y,z
_cell_length_a	7.4821
_cell_length_b	36.6491
_cell_length_c	11.0566
_cell_angle_alpha	90
_cell_angle_beta	99.283
_cell_angle_gamma	90
loop_
_atom_site_label
_atom_site_type_symbol
_atom_site_fract_x
_atom_site_fract_y
_atom_site_fract_z
_atom_site_charge
Mof_Zn	Zn	0.06869	0.16585	0.47535	1.176
Mof_O 	O 	0.2854	0.15528	0.3818	-0.403
Mof_N 	N 	0.9433	0.20145	0.335	-0.275
Mof_N 	N 	0.1929	0.13128	0.6207	-0.289
Mof_N 	N 	0.7034	0.28861	0.065	-0.286
Mof_N 	N 	0.9307	0.12081	0.3831	-0.282
Mof_N 	N 	0.4685	0.04434	0.8731	-0.29
Mof_N 	N 	0.6701	0.03301	0.1244	-0.315
Mof_C 	C 	0.856	0.21275	0.2472	0.121
Mof_C 	C 	0.7473	0.2226	0.1381	-0.13
Mof_C 	C 	0.7269	0.25916	0.1032	0.108
Mof_C 	C 	0.6619	0.19417	0.0546	0.01
Mof_C 	C 	0.6694	0.15765	0.0884	-0.03
Mof_H 	H 	0.7301	0.1509	0.1674	0.033
Mof_C 	C 	0.5701	0.20271	0.9373	-0.012
Mof_H 	H 	0.562	0.2275	0.9116	0.031
Mof_C 	C 	0.5903	0.1309	0.0095	-0.135
Mof_H 	H 	0.5992	0.1061	0.0351	0.056
Mof_C 	C 	0.4913	0.17605	0.8585	-0.118
Mof_H 	H 	0.4316	0.1828	0.7792	0.06
Mof_C 	C 	0.4973	0.1394	0.8927	0.111
Mof_C 	C 	0.4086	0.11097	0.8095	-0.167
Mof_C 	C 	0.4369	0.07395	0.8411	0.127
Mof_C 	C 	0.2884	0.12063	0.7045	0.134
Mof_C 	C 	0.8591	0.0549	0.3222	-0.155
Mof_C 	C 	0.756	0.04451	0.2122	0.113
Mof_C 	C 	0.9318	0.02703	0.4126	0.041
Mof_C 	C 	0.9053	0.98982	0.3875	-0.074
Mof_H 	H 	0.8403	0.9825	0.3103	0.04
Mof_C 	C 	0.0289	0.03632	0.5283	-0.075
Mof_H 	H 	0.0495	0.0613	0.5485	0.043
Mof_C 	C 	0.8953	0.09168	0.3499	0.136
Mof_C 	C 	0.414	0.1749	0.3353	0.059
Mof_H 	H 	0.4262	0.1655	0.2541	0.008
Mof_H 	H 	0.5305	0.1727	0.3901	-0.008
Mof_H 	H 	0.3781	0.2007	0.3285	-0.003
Mof_C 	C 	0.351	0.1238	0.3579	0.105
Mof_H 	H 	0.3519	0.1075	0.4282	0.069
Mof_H 	H 	0.4751	0.127	0.3416	0.007
Mof_H 	H 	0.276	0.1132	0.2857	0.018
Mof_O 	O 	0.3876	0.0825	0.3744	-0.292
Mof_N 	N 	0.4803	0.0306	0.4805	-0.049
Mof_C 	C 	0.4658	0.0663	0.4703	0.135
Mof_H 	H 	0.5165	0.0809	0.5385	-0.024
Mof_C 	C 	0.5724	0.0138	0.5929	-0.68
Mof_H 	H 	0.6798	0.0007	0.5759	-0.391
Mof_H 	H 	0.4903	0.9967	0.6241	1.265
Mof_H 	H 	0.6091	0.0328	0.6542	0.232
Mof_C 	C 	0.402	0.0058	0.3821	-0.562
Mof_H 	H 	0.327	0.0198	0.3172	0.188
Mof_H 	H 	0.3267	0.9875	0.4148	0.764
Mof_H 	H 	0.4992	0.9935	0.3484	-0.562
Mof_Zn	Zn	0.43131	0.66585	0.02465	1.173
Mof_O 	O 	0.2146	0.65528	0.1182	-0.412
Mof_N 	N 	0.5567	0.70145	0.165	-0.288
Mof_N 	N 	0.3071	0.63128	0.8793	-0.277
Mof_N 	N 	0.7966	0.78861	0.435	-0.286
Mof_N 	N 	0.5693	0.62081	0.1169	-0.289
Mof_N 	N 	0.0315	0.54434	0.6269	-0.298
Mof_N 	N 	0.8299	0.53301	0.3756	-0.305
Mof_C 	C 	0.644	0.71275	0.2528	0.123
Mof_C 	C 	0.7527	0.7226	0.3619	-0.15
Mof_C 	C 	0.7731	0.75916	0.3968	0.115
Mof_C 	C 	0.8381	0.69417	0.4454	0.065
Mof_C 	C 	0.8306	0.65765	0.4116	-0.078
Mof_H 	H 	0.7699	0.6509	0.3326	0.048
Mof_C 	C 	0.9299	0.70271	0.5627	-0.087
Mof_H 	H 	0.938	0.7275	0.5884	0.049
Mof_C 	C 	0.9097	0.6309	0.4905	-0.072
Mof_H 	H 	0.9008	0.6061	0.4649	0.042
Mof_C 	C 	0.0087	0.67605	0.6415	-0.06
Mof_H 	H 	0.0684	0.6828	0.7208	0.043
Mof_C 	C 	0.0027	0.6394	0.6073	0.056
Mof_C 	C 	0.0914	0.61097	0.6905	-0.148
Mof_C 	C 	0.0631	0.57395	0.6589	0.114
Mof_C 	C 	0.2116	0.62063	0.7955	0.129
Mof_C 	C 	0.6409	0.5549	0.1778	-0.141
Mof_C 	C 	0.744	0.54451	0.2878	0.109
Mof_C 	C 	0.5682	0.52703	0.0874	-0.003
Mof_C 	C 	0.5947	0.48982	0.1125	-0.049
Mof_H 	H 	0.6597	0.4825	0.1897	0.031
Mof_C 	C 	0.4711	0.53632	0.9717	-0.012
Mof_H 	H 	0.4505	0.5613	0.9515	0.034
Mof_C 	C 	0.6047	0.59168	0.1501	0.124
Mof_C 	C 	0.086	0.6749	0.1647	0.093
Mof_H 	H 	0.0738	0.6655	0.2459	0.002
Mof_H 	H 	0.9695	0.6727	0.1099	-0.029
Mof_H 	H 	0.1219	0.7007	0.1715	-0.012
Mof_C 	C 	0.149	0.6238	0.1421	0.107
Mof_H 	H 	0.1481	0.6075	0.0718	0.063
Mof_H 	H 	0.0249	0.627	0.1584	0.007
Mof_H 	H 	0.224	0.6132	0.2143	0.02
Mof_O 	O 	0.1124	0.5825	0.1256	-0.282
Mof_N 	N 	0.0197	0.5306	0.0195	-0.064
Mof_C 	C 	0.0342	0.5663	0.0297	0.097
Mof_H 	H 	0.9835	0.5809	0.9615	0.004
Mof_C 	C 	0.9276	0.5138	0.9071	-0.522
Mof_H 	H 	0.8202	0.5007	0.9241	-0.266
Mof_H 	H 	0.0097	0.4967	0.8759	0.843
Mof_H 	H 	0.8909	0.5328	0.8458	0.171
Mof_C 	C 	0.098	0.5058	0.1179	-0.66
Mof_H 	H 	0.173	0.5198	0.1828	0.223
Mof_H 	H 	0.1733	0.4875	0.0852	0.887
Mof_H 	H 	0.0008	0.4935	0.1516	-0.753
Mof_Zn	Zn	0.93131	0.83415	0.52465	1.177
Mof_O 	O 	0.7146	0.84472	0.6182	-0.397
Mof_N 	N 	0.0567	0.79855	0.665	-0.284
Mof_N 	N 	0.8071	0.86872	0.3793	-0.284
Mof_N 	N 	0.2966	0.71139	0.935	-0.279
Mof_N 	N 	0.0693	0.87919	0.6169	-0.286
Mof_N 	N 	0.5315	0.95566	0.1269	-0.295
Mof_N 	N 	0.3299	0.96699	0.8756	-0.299
Mof_C 	C 	0.144	0.78725	0.7528	0.138
Mof_C 	C 	0.2527	0.7774	0.8619	-0.175
Mof_C 	C 	0.2731	0.74084	0.8968	0.137
Mof_C 	C 	0.3381	0.80583	0.9454	0.146
Mof_C 	C 	0.3306	0.84235	0.9116	-0.146
Mof_H 	H 	0.2699	0.8491	0.8326	0.073
Mof_C 	C 	0.4299	0.79729	0.0627	-0.173
Mof_H 	H 	0.438	0.7725	0.0884	0.072
Mof_C 	C 	0.4097	0.8691	0.9905	0.029
Mof_H 	H 	0.4008	0.8939	0.9649	0.018
Mof_C 	C 	0.5087	0.82395	0.1415	-0.003
Mof_H 	H 	0.5684	0.8172	0.2208	0.019
Mof_C 	C 	0.5027	0.8606	0.1073	-0.028
Mof_C 	C 	0.5914	0.88903	0.1905	-0.122
Mof_C 	C 	0.5631	0.92605	0.1589	0.096
Mof_C 	C 	0.7116	0.87937	0.2955	0.114
Mof_C 	C 	0.1409	0.9451	0.6778	-0.161
Mof_C 	C 	0.244	0.95549	0.7878	0.121
Mof_C 	C 	0.0682	0.97297	0.5874	0.056
Mof_C 	C 	0.0947	0.01018	0.6125	-0.101
Mof_H 	H 	0.1597	0.0175	0.6897	0.048
Mof_C 	C 	0.9711	0.96368	0.4717	-0.081
Mof_H 	H 	0.9505	0.9387	0.4515	0.047
Mof_C 	C 	0.1047	0.90832	0.6501	0.138
Mof_C 	C 	0.586	0.8251	0.6647	0.051
Mof_H 	H 	0.5738	0.8345	0.7459	0.014
Mof_H 	H 	0.4695	0.8273	0.6099	-0.006
Mof_H 	H 	0.6219	0.7993	0.6715	0.002
Mof_C 	C 	0.649	0.8762	0.6421	0.095
Mof_H 	H 	0.6481	0.8925	0.5718	0.072
Mof_H 	H 	0.5249	0.873	0.6584	0.011
Mof_H 	H 	0.724	0.8868	0.7143	0.026
Mof_O 	O 	0.6124	0.9175	0.6256	-0.291
Mof_N 	N 	0.5197	0.9694	0.5195	-0.054
Mof_C 	C 	0.5342	0.9337	0.5297	0.134
Mof_H 	H 	0.4835	0.9191	0.4615	-0.025
Mof_C 	C 	0.4276	0.9862	0.4071	-0.605
Mof_H 	H 	0.3202	0.9993	0.4241	-0.318
Mof_H 	H 	0.5097	0.0033	0.3759	0.996
Mof_H 	H 	0.3909	0.9672	0.3458	0.194
Mof_C 	C 	0.598	0.9942	0.6179	-0.662
Mof_H 	H 	0.673	0.9802	0.6828	0.229
Mof_H 	H 	0.6733	0.0125	0.5852	0.895
Mof_H 	H 	0.5008	0.0065	0.6516	-0.77
Mof_Zn	Zn	0.56869	0.33415	0.97535	1.183
Mof_O 	O 	0.7854	0.34472	0.8818	-0.401
Mof_N 	N 	0.4433	0.29855	0.835	-0.282
Mof_N 	N 	0.6929	0.36872	0.1207	-0.291
Mof_N 	N 	0.2034	0.21139	0.565	-0.287
Mof_N 	N 	0.4307	0.37919	0.8831	-0.288
Mof_N 	N 	0.9685	0.45566	0.3731	-0.291
Mof_N 	N 	0.1701	0.46699	0.6244	-0.313
Mof_C 	C 	0.356	0.28725	0.7472	0.126
Mof_C 	C 	0.2473	0.2774	0.6381	-0.152
Mof_C 	C 	0.2269	0.24084	0.6032	0.116
Mof_C 	C 	0.1619	0.30583	0.5546	0.067
Mof_C 	C 	0.1694	0.34235	0.5884	-0.076
Mof_H 	H 	0.2301	0.3491	0.6674	0.047
Mof_C 	C 	0.0701	0.29729	0.4373	-0.103
Mof_H 	H 	0.062	0.2725	0.4116	0.05
Mof_C 	C 	0.0903	0.3691	0.5095	-0.086
Mof_H 	H 	0.0992	0.3939	0.5351	0.043
Mof_C 	C 	0.9913	0.32395	0.3585	-0.048
Mof_H 	H 	0.9316	0.3172	0.2792	0.038
Mof_C 	C 	0.9973	0.3606	0.3927	0.064
Mof_C 	C 	0.9086	0.38903	0.3095	-0.151
Mof_C 	C 	0.9369	0.42605	0.3411	0.119
Mof_C 	C 	0.7884	0.37937	0.2045	0.127
Mof_C 	C 	0.3591	0.4451	0.8222	-0.173
Mof_C 	C 	0.256	0.45549	0.7122	0.122
Mof_C 	C 	0.4318	0.47297	0.9126	0.093
Mof_C 	C 	0.4053	0.51018	0.8875	-0.125
Mof_H 	H 	0.3403	0.5175	0.8103	0.057
Mof_C 	C 	0.5289	0.46368	0.0283	-0.133
Mof_H 	H 	0.5495	0.4387	0.0485	0.059
Mof_C 	C 	0.3953	0.40832	0.8499	0.142
Mof_C 	C 	0.914	0.3251	0.8353	0.106
Mof_H 	H 	0.9262	0.3345	0.7541	0.001
Mof_H 	H 	0.0305	0.3273	0.8901	-0.033
Mof_H 	H 	0.8781	0.2993	0.8285	-0.007
Mof_C 	C 	0.851	0.3762	0.8579	0.09
Mof_H 	H 	0.8519	0.3925	0.9282	0.081
Mof_H 	H 	0.9751	0.373	0.8416	0.019
Mof_H 	H 	0.776	0.3868	0.7857	0.028
Mof_O 	O 	0.8876	0.4175	0.8744	-0.302
Mof_N 	N 	0.9803	0.4694	0.9805	-0.048
Mof_C 	C 	0.9658	0.4337	0.9703	0.193
Mof_H 	H 	0.0165	0.4191	0.0385	-0.064
Mof_C 	C 	0.0724	0.4862	0.0929	-0.688
Mof_H 	H 	0.1798	0.4993	0.0759	-0.382
Mof_H 	H 	0.9903	0.5033	0.1241	1.247
Mof_H 	H 	0.1091	0.4672	0.1542	0.227
Mof_C 	C 	0.902	0.4942	0.8821	-0.486
Mof_H 	H 	0.827	0.4802	0.8172	0.169
Mof_H 	H 	0.8267	0.5125	0.9148	0.658
Mof_H 	H 	0.9992	0.5065	0.8484	-0.463
Mof_Zn	Zn	0.5	0	-0	1.139
Mof_Zn	Zn	3.2172e-33	0.5	0.5	1.147
_end
