data_functionalizedCrystal
_audit_creation_method	'EQeq! by Chris Wilmer'
_symmetry_space_group_name_H-M	'P1'
_symmetry_Int_Tables_number	1
_symmetry_cell_setting	triclinic
loop_
_symmetry_equiv_pos_as_xyz
  x,y,z
_cell_length_a	17.6017
_cell_length_b	17.6017
_cell_length_c	21.056
_cell_angle_alpha	90
_cell_angle_beta	90
_cell_angle_gamma	120
loop_
_atom_site_label
_atom_site_type_symbol
_atom_site_fract_x
_atom_site_fract_y
_atom_site_fract_z
_atom_site_charge
Mof_N 	N 	0.1975	0.4323	0.5594	-0.105
Mof_N 	N 	0.2597	0.4233	0.5275	-0.037
Mof_N 	N 	0.3113	0.491	0.4927	-0.059
Mof_N 	N 	0.2866	0.5504	0.50257	-0.143
Mof_C 	C 	0.2189	0.5133	0.5442	0.101
Mof_H 	H 	0.1907	0.5419	0.5604	0.002
Mof_N 	N 	0.0468	0.2283	0.3873	-0.122
Mof_N 	N 	0.1224	0.2286	0.3868	-0.037
Mof_N 	N 	0.1182	0.162	0.3559	-0.059
Mof_N 	N 	0.0365	0.1152	0.3353	-0.155
Mof_C 	C 	0.995	0.157	0.3561	0.149
Mof_H 	H 	0.9358	0.1372	0.3491	-0.007
Mof_N 	N 	0.4367	0.2333	0.9908	-0.113
Mof_N 	N 	0.4247	0.1653	0.0254	-0.036
Mof_N 	N 	0.4896	0.1815	0.0626	-0.056
Mof_N 	N 	0.5494	0.2632	0.05074	-0.145
Mof_C 	C 	0.5159	0.2931	0.0073	0.125
Mof_H 	H 	0.5453	0.3496	0.9908	-0.009
Mof_N 	N 	0.2206	0.1857	0.162	-0.106
Mof_N 	N 	0.2303	0.1178	0.1668	-0.035
Mof_N 	N 	0.1684	0.0514	0.1994	-0.061
Mof_N 	N 	0.1158	0.0786	0.2177	-0.139
Mof_C 	C 	0.15	0.1619	0.1966	0.105
Mof_H 	H 	0.1265	0.1978	0.2054	0.003
Mof_C 	C 	0.2649	0.3429	0.5301	-0.173
Mof_H 	H 	0.2621	0.3246	0.5739	0.044
Mof_H 	H 	0.3201	0.3535	0.5121	0.093
Mof_C 	C 	0.1882	0.2712	0.4925	-0.03
Mof_H 	H 	0.1336	0.266	0.5073	0.042
Mof_H 	H 	0.1855	0.2154	0.4993	0.038
Mof_C 	C 	0.1995	0.2933	0.4211	-0.18
Mof_H 	H 	0.2073	0.3513	0.4145	0.035
Mof_H 	H 	0.2513	0.2933	0.4053	0.09
Mof_H 	H 	0.5455	0.9636	0.2167	0.107
Mof_H 	H 	0.6478	0.0199	0.223	0.05
Mof_C 	C 	0.608	0.979	0.1316	-0.02
Mof_H 	H 	0.6625	0.0243	0.1127	0.019
Mof_H 	H 	0.6127	0.9267	0.1362	0.031
Mof_H 	H 	0.5075	0.9899	0.1106	0.122
Mof_H 	H 	0.5648	0.9995	0.0531	0.078
Mof_C 	C 	0.3423	0.0801	0.0274	-0.146
Mof_H 	H 	0.3526	0.0367	0.0479	0.092
Mof_H 	H 	0.3218	0.0603	0.9846	0.034
Mof_C 	C 	0.2744	0.0899	0.0635	0.027
Mof_H 	H 	0.2679	0.1364	0.0443	0.021
Mof_H 	H 	0.2186	0.0359	0.0599	0.018
Mof_C 	C 	0.296	0.1104	0.1323	-0.183
Mof_H 	H 	0.3038	0.0646	0.1514	0.104
Mof_H 	H 	0.3512	0.1651	0.136	0.045
Mof_H 	H 	0.351	0.0369	0.0051	0.033
Mof_H 	H 	0.2971	0.0857	0.0051	0.068
Mof_C 	C 	0.311	0.0473	0.0942	-0.183
Mof_H 	H 	0.2561	0.9917	0.0918	0.087
Mof_H 	H 	0.3536	0.0372	0.1156	0.07
Mof_H 	H 	0.3421	0.1293	0.1639	0.048
Mof_H 	H 	0.3165	0.1595	0.1032	0.09
Mof_N 	N 	0.86417	0.76563	0.89273	-0.103
Mof_N 	N 	0.92637	0.75663	0.86083	-0.035
Mof_N 	N 	0.97797	0.82433	0.82603	-0.053
Mof_N 	N 	0.95327	0.88373	0.8359	-0.132
Mof_C 	C 	0.88557	0.84663	0.87753	0.103
Mof_H 	H 	0.85737	0.87523	0.89373	0.007
Mof_N 	N 	0.71347	0.56163	0.72063	-0.107
Mof_N 	N 	0.78907	0.56193	0.72013	-0.035
Mof_N 	N 	0.78487	0.49533	0.68923	-0.057
Mof_N 	N 	0.70317	0.44853	0.66863	-0.142
Mof_C 	C 	0.66167	0.49033	0.68943	0.114
Mof_H 	H 	0.60247	0.47053	0.68243	0.003
Mof_N 	N 	0.10337	0.56663	0.32413	-0.108
Mof_N 	N 	0.09137	0.49863	0.35873	-0.025
Mof_N 	N 	0.15627	0.51483	0.39593	-0.057
Mof_N 	N 	0.21607	0.59653	0.38407	-0.143
Mof_C 	C 	0.18257	0.62643	0.34063	0.108
Mof_H 	H 	0.21197	0.68293	0.32413	0.002
Mof_N 	N 	0.88727	0.51903	0.49533	-0.104
Mof_N 	N 	0.89697	0.45113	0.50013	-0.029
Mof_N 	N 	0.83507	0.38473	0.53273	-0.057
Mof_N 	N 	0.78247	0.41193	0.55103	-0.138
Mof_C 	C 	0.81667	0.49523	0.52993	0.107
Mof_H 	H 	0.79317	0.53113	0.53873	0.006
Mof_C 	C 	0.93157	0.67623	0.86343	-0.176
Mof_H 	H 	0.92877	0.65793	0.90723	0.045
Mof_H 	H 	0.98677	0.68683	0.84543	0.097
Mof_C 	C 	0.85487	0.60453	0.82583	-0.026
Mof_H 	H 	0.80027	0.59933	0.84063	0.042
Mof_H 	H 	0.85217	0.54873	0.83263	0.04
Mof_C 	C 	0.86617	0.62663	0.75443	-0.181
Mof_H 	H 	0.87397	0.68463	0.74783	0.036
Mof_H 	H 	0.91797	0.62663	0.73863	0.094
Mof_H 	H 	0.21217	0.29693	0.55003	0.08
Mof_H 	H 	0.31447	0.35323	0.55633	0.039
Mof_C 	C 	0.27467	0.31233	0.46493	-0.107
Mof_H 	H 	0.32917	0.35763	0.44603	0.052
Mof_H 	H 	0.27937	0.26003	0.46953	0.053
Mof_H 	H 	0.17417	0.32323	0.44393	0.099
Mof_H 	H 	0.23147	0.33283	0.38643	0.054
Mof_C 	C 	0.00897	0.41343	0.36073	-0.273
Mof_H 	H 	0.01927	0.37003	0.38123	0.102
Mof_H 	H 	0.98847	0.39363	0.31793	0.069
Mof_C 	C 	0.94107	0.42323	0.39683	-0.036
Mof_H 	H 	0.93457	0.46973	0.37763	0.041
Mof_H 	H 	0.88527	0.36923	0.39323	0.041
Mof_C 	C 	0.96267	0.44373	0.46563	-0.201
Mof_H 	H 	0.97047	0.39793	0.48473	0.097
Mof_H 	H 	0.01787	0.49843	0.46933	0.03
Mof_H 	H 	0.01767	0.37023	0.33843	0.05
Mof_H 	H 	0.96377	0.41903	0.33843	0.107
Mof_C 	C 	0.97767	0.38063	0.42753	-0.009
Mof_H 	H 	0.92277	0.32503	0.42513	0.029
Mof_H 	H 	0.02027	0.37053	0.44893	0.011
Mof_H 	H 	0.00877	0.46263	0.49723	0.052
Mof_H 	H 	0.98317	0.49283	0.43653	0.113
Mof_N 	N 	0.53083	0.09897	0.22607	-0.106
Mof_N 	N 	0.59303	0.08997	0.19417	-0.027
Mof_N 	N 	0.64463	0.15767	0.15937	-0.059
Mof_N 	N 	0.61993	0.21707	0.16924	-0.142
Mof_C 	C 	0.55223	0.17997	0.21087	0.102
Mof_H 	H 	0.52403	0.20857	0.22707	0.004
Mof_N 	N 	0.38013	0.89497	0.05397	-0.105
Mof_N 	N 	0.45573	0.89527	0.05347	-0.03
Mof_N 	N 	0.45153	0.82867	0.02257	-0.057
Mof_N 	N 	0.36983	0.78187	0.00197	-0.14
Mof_C 	C 	0.32833	0.82367	0.02277	0.115
Mof_H 	H 	0.26913	0.80387	0.01577	0.004
Mof_N 	N 	0.77003	0.89997	0.65747	-0.107
Mof_N 	N 	0.75803	0.83197	0.69207	-0.034
Mof_N 	N 	0.82293	0.84817	0.72927	-0.055
Mof_N 	N 	0.88273	0.92987	0.71741	-0.137
Mof_C 	C 	0.84923	0.95977	0.67397	0.128
Mof_H 	H 	0.87863	0.01627	0.65747	-0.008
Mof_N 	N 	0.55393	0.85237	0.82867	-0.104
Mof_N 	N 	0.56363	0.78447	0.83347	-0.031
Mof_N 	N 	0.50173	0.71807	0.86607	-0.058
Mof_N 	N 	0.44913	0.74527	0.88437	-0.139
Mof_C 	C 	0.48333	0.82857	0.86327	0.106
Mof_H 	H 	0.45983	0.86447	0.87207	0.006
Mof_C 	C 	0.59823	0.00957	0.19677	-0.26
Mof_H 	H 	0.59543	0.99127	0.24057	0.065
Mof_H 	H 	0.65343	0.02017	0.17877	0.102
Mof_C 	C 	0.52153	0.93787	0.15917	-0.042
Mof_H 	H 	0.46693	0.93267	0.17397	0.048
Mof_H 	H 	0.51883	0.88207	0.16597	0.044
Mof_C 	C 	0.53283	0.95997	0.08777	-0.212
Mof_H 	H 	0.54063	0.01797	0.08117	0.016
Mof_H 	H 	0.58463	0.95997	0.07197	0.089
Mof_H 	H 	0.87883	0.63027	0.88337	0.081
Mof_H 	H 	0.98113	0.68657	0.88967	0.042
Mof_C 	C 	0.94133	0.64567	0.79827	-0.115
Mof_H 	H 	0.99583	0.69097	0.77937	0.058
Mof_H 	H 	0.94603	0.59337	0.80287	0.06
Mof_H 	H 	0.84083	0.65657	0.77727	0.098
Mof_H 	H 	0.89813	0.66617	0.71977	0.056
Mof_C 	C 	0.67563	0.74677	0.69407	-0.173
Mof_H 	H 	0.68593	0.70337	0.71457	0.094
Mof_H 	H 	0.65513	0.72697	0.65127	0.046
Mof_C 	C 	0.60773	0.75657	0.73017	0.004
Mof_H 	H 	0.60123	0.80307	0.71097	0.029
Mof_H 	H 	0.55193	0.70257	0.72657	0.03
Mof_C 	C 	0.62933	0.77707	0.79897	-0.199
Mof_H 	H 	0.63713	0.73127	0.81807	0.103
Mof_H 	H 	0.68453	0.83177	0.80267	0.046
Mof_H 	H 	0.68433	0.70357	0.67177	0.038
Mof_H 	H 	0.63043	0.75237	0.67177	0.074
Mof_C 	C 	0.64433	0.71397	0.76087	-0.126
Mof_H 	H 	0.58943	0.65837	0.75847	0.06
Mof_H 	H 	0.68693	0.70387	0.78227	0.056
Mof_H 	H 	0.67543	0.79597	0.83057	0.053
Mof_H 	H 	0.64983	0.82617	0.76987	0.098
Mof_N 	N 	0.5677	0.7652	0.5594	-0.104
Mof_N 	N 	0.5767	0.8364	0.5275	-0.034
Mof_N 	N 	0.509	0.8203	0.4927	-0.057
Mof_N 	N 	0.4496	0.7362	0.50257	-0.141
Mof_C 	C 	0.4867	0.7056	0.5442	0.102
Mof_H 	H 	0.4581	0.6488	0.5604	0.004
Mof_N 	N 	0.7717	0.8185	0.3873	-0.106
Mof_N 	N 	0.7714	0.8938	0.3868	-0.034
Mof_N 	N 	0.838	0.9562	0.3559	-0.054
Mof_N 	N 	0.8848	0.9213	0.3353	-0.134
Mof_C 	C 	0.843	0.838	0.3561	0.115
Mof_H 	H 	0.8628	0.7986	0.3491	0.006
Mof_N 	N 	0.7667	0.2034	0.9908	-0.113
Mof_N 	N 	0.8347	0.2594	0.0254	-0.031
Mof_N 	N 	0.8185	0.3081	0.0626	-0.055
Mof_N 	N 	0.7368	0.2862	0.05074	-0.145
Mof_C 	C 	0.7069	0.2228	0.0073	0.123
Mof_H 	H 	0.6504	0.1957	0.9908	-0.009
Mof_N 	N 	0.8143	0.0349	0.162	-0.114
Mof_N 	N 	0.8822	0.1125	0.1668	-0.03
Mof_N 	N 	0.9486	0.117	0.1994	-0.054
Mof_N 	N 	0.9214	0.0372	0.2177	-0.141
Mof_C 	C 	0.8381	0.9881	0.1966	0.128
Mof_H 	H 	0.8022	0.9287	0.2054	0.001
Mof_C 	C 	0.6571	0.922	0.5301	-0.189
Mof_H 	H 	0.6754	0.9375	0.5739	0.046
Mof_H 	H 	0.6465	0.9666	0.5121	0.093
Mof_C 	C 	0.7288	0.917	0.4925	-0.051
Mof_H 	H 	0.734	0.8676	0.5073	0.051
Mof_H 	H 	0.7846	0.9701	0.4993	0.052
Mof_C 	C 	0.7067	0.9062	0.4211	-0.185
Mof_H 	H 	0.6487	0.856	0.4145	0.034
Mof_H 	H 	0.7067	0.958	0.4053	0.09
Mof_H 	H 	0.0364	0.5819	0.2167	0.049
Mof_H 	H 	0.9801	0.6279	0.223	0.026
Mof_C 	C 	0.021	0.629	0.1316	-0.216
Mof_H 	H 	0.9757	0.6382	0.1127	0.094
Mof_H 	H 	0.0733	0.686	0.1362	0.085
Mof_H 	H 	0.0101	0.5176	0.1106	0.069
Mof_H 	H 	0.0005	0.5653	0.0531	0.026
Mof_C 	C 	0.9199	0.2622	0.0274	-0.186
Mof_H 	H 	0.9633	0.3159	0.0479	0.088
Mof_H 	H 	0.9397	0.2615	0.9846	0.038
Mof_C 	C 	0.9101	0.1845	0.0635	-0.047
Mof_H 	H 	0.8636	0.1315	0.0443	0.043
Mof_H 	H 	0.9641	0.1827	0.0599	0.052
Mof_C 	C 	0.8896	0.1856	0.1323	-0.203
Mof_H 	H 	0.9354	0.2392	0.1514	0.097
Mof_H 	H 	0.8349	0.1861	0.136	0.04
Mof_H 	H 	0.9631	0.3141	0.0051	0.053
Mof_H 	H 	0.9143	0.2114	0.0051	0.09
Mof_C 	C 	0.9527	0.2637	0.0942	-0.05
Mof_H 	H 	0.0083	0.2644	0.0918	0.026
Mof_H 	H 	0.9628	0.3164	0.1156	0.038
Mof_H 	H 	0.8707	0.2128	0.1639	0.058
Mof_H 	H 	0.8405	0.157	0.1032	0.105
Mof_N 	N 	0.23437	0.09853	0.89273	-0.102
Mof_N 	N 	0.24337	0.16973	0.86083	-0.037
Mof_N 	N 	0.17567	0.15363	0.82603	-0.058
Mof_N 	N 	0.11627	0.06953	0.8359	-0.139
Mof_C 	C 	0.15337	0.03893	0.87753	0.075
Mof_H 	H 	0.12477	0.98213	0.89373	0.018
Mof_N 	N 	0.43837	0.15183	0.72063	-0.11
Mof_N 	N 	0.43807	0.22713	0.72013	-0.037
Mof_N 	N 	0.50467	0.28953	0.68923	-0.058
Mof_N 	N 	0.55147	0.25463	0.66863	-0.143
Mof_C 	C 	0.50967	0.17133	0.68943	0.113
Mof_H 	H 	0.52947	0.13193	0.68243	0.001
Mof_N 	N 	0.43337	0.53673	0.32413	-0.105
Mof_N 	N 	0.50137	0.59273	0.35873	-0.034
Mof_N 	N 	0.48517	0.64143	0.39593	-0.056
Mof_N 	N 	0.40347	0.61953	0.38407	-0.143
Mof_C 	C 	0.37357	0.55613	0.34063	0.108
Mof_H 	H 	0.31707	0.52903	0.32413	0.001
Mof_N 	N 	0.48097	0.36823	0.49533	-0.107
Mof_N 	N 	0.54887	0.44583	0.50013	-0.032
Mof_N 	N 	0.61527	0.45033	0.53273	-0.058
Mof_N 	N 	0.58807	0.37053	0.55103	-0.139
Mof_C 	C 	0.50477	0.32143	0.52993	0.106
Mof_H 	H 	0.46887	0.26203	0.53873	0.004
Mof_C 	C 	0.32377	0.25533	0.86343	-0.17
Mof_H 	H 	0.34207	0.27083	0.90723	0.043
Mof_H 	H 	0.31317	0.29993	0.84543	0.092
Mof_C 	C 	0.39547	0.25033	0.82583	-0.033
Mof_H 	H 	0.40067	0.20093	0.84063	0.043
Mof_H 	H 	0.45127	0.30343	0.83263	0.041
Mof_C 	C 	0.37337	0.23953	0.75443	-0.174
Mof_H 	H 	0.31537	0.18933	0.74783	0.034
Mof_H 	H 	0.37337	0.29133	0.73863	0.089
Mof_H 	H 	0.70307	0.91523	0.55003	0.089
Mof_H 	H 	0.64677	0.96123	0.55633	0.046
Mof_C 	C 	0.68767	0.96233	0.46493	-0.067
Mof_H 	H 	0.64237	0.97153	0.44603	0.043
Mof_H 	H 	0.73997	0.01933	0.46953	0.035
Mof_H 	H 	0.67677	0.85093	0.44393	0.102
Mof_H 	H 	0.66717	0.89863	0.38643	0.057
Mof_C 	C 	0.58657	0.59553	0.36073	-0.173
Mof_H 	H 	0.62997	0.64923	0.38123	0.095
Mof_H 	H 	0.60637	0.59483	0.31793	0.046
Mof_C 	C 	0.57677	0.51783	0.39683	0.006
Mof_H 	H 	0.53027	0.46483	0.37763	0.027
Mof_H 	H 	0.63077	0.51603	0.39323	0.03
Mof_C 	C 	0.55627	0.51893	0.46563	-0.196
Mof_H 	H 	0.60207	0.57253	0.48473	0.103
Mof_H 	H 	0.50157	0.51943	0.46933	0.044
Mof_H 	H 	0.62977	0.64743	0.33843	0.038
Mof_H 	H 	0.58097	0.54473	0.33843	0.073
Mof_C 	C 	0.61937	0.59703	0.42753	-0.129
Mof_H 	H 	0.67497	0.59773	0.42513	0.062
Mof_H 	H 	0.62947	0.64973	0.44893	0.057
Mof_H 	H 	0.53737	0.54613	0.49723	0.052
Mof_H 	H 	0.50717	0.49033	0.43653	0.096
Mof_N 	N 	0.90103	0.43187	0.22607	-0.1
Mof_N 	N 	0.91003	0.50307	0.19417	-0.047
Mof_N 	N 	0.84233	0.48697	0.15937	-0.056
Mof_N 	N 	0.78293	0.40287	0.16924	-0.141
Mof_C 	C 	0.82003	0.37227	0.21087	0.103
Mof_H 	H 	0.79143	0.31547	0.22707	0.004
Mof_N 	N 	0.10503	0.48517	0.05397	-0.108
Mof_N 	N 	0.10473	0.56047	0.05347	-0.042
Mof_N 	N 	0.17133	0.62287	0.02257	-0.058
Mof_N 	N 	0.21813	0.58797	0.00197	-0.141
Mof_C 	C 	0.17633	0.50467	0.02277	0.114
Mof_H 	H 	0.19613	0.46527	0.01577	0.003
Mof_N 	N 	0.10003	0.87007	0.65747	-0.101
Mof_N 	N 	0.16803	0.92607	0.69207	-0.033
Mof_N 	N 	0.15183	0.97477	0.72927	-0.053
Mof_N 	N 	0.07013	0.95287	0.71741	-0.134
Mof_C 	C 	0.04023	0.88947	0.67397	0.081
Mof_H 	H 	0.98373	0.86237	0.65747	0.022
Mof_N 	N 	0.14763	0.70157	0.82867	-0.11
Mof_N 	N 	0.21553	0.77917	0.83347	-0.033
Mof_N 	N 	0.28193	0.78367	0.86607	-0.058
Mof_N 	N 	0.25473	0.70387	0.88437	-0.139
Mof_C 	C 	0.17143	0.65477	0.86327	0.105
Mof_H 	H 	0.13553	0.59537	0.87207	0.002
Mof_C 	C 	0.99043	0.58867	0.19677	-0.062
Mof_H 	H 	0.00873	0.60417	0.24057	0.018
Mof_H 	H 	0.97983	0.63327	0.17877	0.082
Mof_C 	C 	0.06213	0.58367	0.15917	-0.022
Mof_H 	H 	0.06733	0.53427	0.17397	0.04
Mof_H 	H 	0.11793	0.63677	0.16597	0.039
Mof_C 	C 	0.04003	0.57287	0.08777	-0.135
Mof_H 	H 	0.98203	0.52267	0.08117	0.058
Mof_H 	H 	0.04003	0.62467	0.07197	0.092
Mof_H 	H 	0.36973	0.24857	0.88337	0.08
Mof_H 	H 	0.31343	0.29457	0.88967	0.038
Mof_C 	C 	0.35433	0.29567	0.79827	-0.108
Mof_H 	H 	0.30903	0.30487	0.77937	0.052
Mof_H 	H 	0.40663	0.35267	0.80287	0.055
Mof_H 	H 	0.34343	0.18427	0.77727	0.096
Mof_H 	H 	0.33383	0.23197	0.71977	0.053
Mof_C 	C 	0.25323	0.92887	0.69407	-0.177
Mof_H 	H 	0.29663	0.98257	0.71457	0.099
Mof_H 	H 	0.27303	0.92817	0.65127	0.048
Mof_C 	C 	0.24343	0.85117	0.73017	0.016
Mof_H 	H 	0.19693	0.79817	0.71097	0.023
Mof_H 	H 	0.29743	0.84937	0.72657	0.027
Mof_C 	C 	0.22293	0.85227	0.79897	-0.196
Mof_H 	H 	0.26873	0.90587	0.81807	0.105
Mof_H 	H 	0.16823	0.85277	0.80267	0.043
Mof_H 	H 	0.29643	0.98077	0.67177	0.04
Mof_H 	H 	0.24763	0.87807	0.67177	0.073
Mof_C 	C 	0.28603	0.93037	0.76087	-0.139
Mof_H 	H 	0.34163	0.93107	0.75847	0.066
Mof_H 	H 	0.29613	0.98307	0.78227	0.063
Mof_H 	H 	0.20403	0.87947	0.83057	0.052
Mof_H 	H 	0.17383	0.82367	0.76987	0.094
Mof_N 	N 	0.2348	0.8025	0.5594	-0.103
Mof_N 	N 	0.1636	0.7403	0.5275	-0.039
Mof_N 	N 	0.1797	0.6887	0.4927	-0.058
Mof_N 	N 	0.2638	0.7134	0.50257	-0.141
Mof_C 	C 	0.2944	0.7811	0.5442	0.102
Mof_H 	H 	0.3512	0.8093	0.5604	0.005
Mof_N 	N 	0.1815	0.9532	0.3873	-0.096
Mof_N 	N 	0.1062	0.8776	0.3868	-0.038
Mof_N 	N 	0.0438	0.8818	0.3559	-0.06
Mof_N 	N 	0.0787	0.9635	0.3353	-0.129
Mof_C 	C 	0.162	0.005	0.3561	0.085
Mof_H 	H 	0.2014	0.0642	0.3491	0.011
Mof_N 	N 	0.7966	0.5633	0.9908	-0.111
Mof_N 	N 	0.7406	0.5753	0.0254	-0.034
Mof_N 	N 	0.6919	0.5104	0.0626	-0.056
Mof_N 	N 	0.7138	0.4506	0.05074	-0.145
Mof_C 	C 	0.7772	0.4841	0.0073	0.123
Mof_H 	H 	0.8043	0.4547	0.9908	-0.007
Mof_N 	N 	0.9651	0.7794	0.162	-0.094
Mof_N 	N 	0.8875	0.7697	0.1668	-0.032
Mof_N 	N 	0.883	0.8316	0.1994	-0.056
Mof_N 	N 	0.9628	0.8842	0.2177	-0.121
Mof_C 	C 	0.0119	0.85	0.1966	0.079
Mof_H 	H 	0.0713	0.8735	0.2054	0.016
Mof_C 	C 	0.078	0.7351	0.5301	-0.148
Mof_H 	H 	0.0625	0.7379	0.5739	0.041
Mof_H 	H 	0.0334	0.6799	0.5121	0.092
Mof_C 	C 	0.083	0.8118	0.4925	-0.017
Mof_H 	H 	0.1324	0.8664	0.5073	0.04
Mof_H 	H 	0.0299	0.8145	0.4993	0.032
Mof_C 	C 	0.0938	0.8005	0.4211	-0.16
Mof_H 	H 	0.144	0.7927	0.4145	0.035
Mof_H 	H 	0.042	0.7487	0.4053	0.089
Mof_H 	H 	0.4181	0.4545	0.2167	0.081
Mof_H 	H 	0.3721	0.3522	0.223	0.039
Mof_C 	C 	0.371	0.392	0.1316	-0.106
Mof_H 	H 	0.3618	0.3375	0.1127	0.052
Mof_H 	H 	0.314	0.3873	0.1362	0.054
Mof_H 	H 	0.4824	0.4925	0.1106	0.099
Mof_H 	H 	0.4347	0.4352	0.0531	0.055
Mof_C 	C 	0.7378	0.6577	0.0274	-0.162
Mof_H 	H 	0.6841	0.6474	0.0479	0.089
Mof_H 	H 	0.7385	0.6782	0.9846	0.035
Mof_C 	C 	0.8155	0.7256	0.0635	-0.014
Mof_H 	H 	0.8685	0.7321	0.0443	0.035
Mof_H 	H 	0.8173	0.7814	0.0599	0.038
Mof_C 	C 	0.8144	0.704	0.1323	-0.187
Mof_H 	H 	0.7608	0.6962	0.1514	0.099
Mof_H 	H 	0.8139	0.6488	0.136	0.042
Mof_H 	H 	0.6859	0.649	0.0051	0.042
Mof_H 	H 	0.7886	0.7029	0.0051	0.079
Mof_C 	C 	0.7363	0.689	0.0942	-0.122
Mof_H 	H 	0.7356	0.7439	0.0918	0.061
Mof_H 	H 	0.6836	0.6464	0.1156	0.056
Mof_H 	H 	0.7872	0.6579	0.1639	0.052
Mof_H 	H 	0.843	0.6835	0.1032	0.096
Mof_N 	N 	0.90147	0.13583	0.89273	-0.108
Mof_N 	N 	0.83027	0.07363	0.86083	-0.037
Mof_N 	N 	0.84637	0.02203	0.82603	-0.059
Mof_N 	N 	0.93047	0.04673	0.8359	-0.141
Mof_C 	C 	0.96107	0.11443	0.87753	0.135
Mof_H 	H 	0.01787	0.14263	0.89373	-0.02
Mof_N 	N 	0.84817	0.28653	0.72063	-0.104
Mof_N 	N 	0.77287	0.21093	0.72013	-0.036
Mof_N 	N 	0.71047	0.21513	0.68923	-0.059
Mof_N 	N 	0.74537	0.29683	0.66863	-0.142
Mof_C 	C 	0.82867	0.33833	0.68943	0.115
Mof_H 	H 	0.86807	0.39753	0.68243	0.006
Mof_N 	N 	0.46327	0.89663	0.32413	-0.103
Mof_N 	N 	0.40727	0.90863	0.35873	-0.042
Mof_N 	N 	0.35857	0.84373	0.39593	-0.055
Mof_N 	N 	0.38047	0.78393	0.38407	-0.143
Mof_C 	C 	0.44387	0.81743	0.34063	0.108
Mof_H 	H 	0.47097	0.78803	0.32413	0.001
Mof_N 	N 	0.63177	0.11273	0.49533	-0.107
Mof_N 	N 	0.55417	0.10303	0.50013	-0.035
Mof_N 	N 	0.54967	0.16493	0.53273	-0.059
Mof_N 	N 	0.62947	0.21753	0.55103	-0.139
Mof_C 	C 	0.67857	0.18333	0.52993	0.105
Mof_H 	H 	0.73797	0.20683	0.53873	0.006
Mof_C 	C 	0.74467	0.06843	0.86343	-0.167
Mof_H 	H 	0.72917	0.07123	0.90723	0.041
Mof_H 	H 	0.70007	0.01323	0.84543	0.089
Mof_C 	C 	0.74967	0.14513	0.82583	-0.041
Mof_H 	H 	0.79907	0.19973	0.84063	0.048
Mof_H 	H 	0.69657	0.14783	0.83263	0.043
Mof_C 	C 	0.76047	0.13383	0.75443	-0.177
Mof_H 	H 	0.81067	0.12603	0.74783	0.035
Mof_H 	H 	0.70867	0.08203	0.73863	0.088
Mof_H 	H 	0.08477	0.78783	0.55003	0.072
Mof_H 	H 	0.03877	0.68553	0.55633	0.03
Mof_C 	C 	0.03767	0.72533	0.46493	-0.16
Mof_H 	H 	0.02847	0.67083	0.44603	0.064
Mof_H 	H 	0.98067	0.72063	0.46953	0.082
Mof_H 	H 	0.14907	0.82583	0.44393	0.092
Mof_H 	H 	0.10137	0.76853	0.38643	0.049
Mof_C 	C 	0.40447	0.99103	0.36073	-0.095
Mof_H 	H 	0.35077	0.98073	0.38123	0.088
Mof_H 	H 	0.40517	0.01153	0.31793	0.028
Mof_C 	C 	0.48217	0.05893	0.39683	0.036
Mof_H 	H 	0.53517	0.06543	0.37763	0.017
Mof_H 	H 	0.48397	0.11473	0.39323	0.021
Mof_C 	C 	0.48107	0.03733	0.46563	-0.192
Mof_H 	H 	0.42747	0.02953	0.48473	0.106
Mof_H 	H 	0.48057	0.98213	0.46933	0.055
Mof_H 	H 	0.35257	0.98233	0.33843	0.028
Mof_H 	H 	0.45527	0.03623	0.33843	0.047
Mof_C 	C 	0.40297	0.02233	0.42753	-0.22
Mof_H 	H 	0.40227	0.07723	0.42513	0.086
Mof_H 	H 	0.35027	0.97973	0.44893	0.092
Mof_H 	H 	0.45387	0.99123	0.49723	0.053
Mof_H 	H 	0.50967	0.01683	0.43653	0.083
Mof_N 	N 	0.56813	0.46917	0.22607	-0.103
Mof_N 	N 	0.49693	0.40697	0.19417	-0.036
Mof_N 	N 	0.51303	0.35537	0.15937	-0.058
Mof_N 	N 	0.59713	0.38007	0.16924	-0.142
Mof_C 	C 	0.62773	0.44777	0.21087	0.102
Mof_H 	H 	0.68453	0.47597	0.22707	0.004
Mof_N 	N 	0.51483	0.61987	0.05397	-0.106
Mof_N 	N 	0.43953	0.54427	0.05347	-0.035
Mof_N 	N 	0.37713	0.54847	0.02257	-0.057
Mof_N 	N 	0.41203	0.63017	0.00197	-0.14
Mof_C 	C 	0.49533	0.67167	0.02277	0.115
Mof_H 	H 	0.53473	0.73087	0.01577	0.005
Mof_N 	N 	0.12993	0.22997	0.65747	-0.106
Mof_N 	N 	0.07393	0.24197	0.69207	-0.036
Mof_N 	N 	0.02523	0.17707	0.72927	-0.06
Mof_N 	N 	0.04713	0.11727	0.71741	-0.144
Mof_C 	C 	0.11053	0.15077	0.67397	0.106
Mof_H 	H 	0.13763	0.12137	0.65747	-0.001
Mof_N 	N 	0.29843	0.44607	0.82867	-0.106
Mof_N 	N 	0.22083	0.43637	0.83347	-0.033
Mof_N 	N 	0.21633	0.49827	0.86607	-0.059
Mof_N 	N 	0.29613	0.55087	0.88437	-0.139
Mof_C 	C 	0.34523	0.51667	0.86327	0.106
Mof_H 	H 	0.40463	0.54017	0.87207	0.005
Mof_C 	C 	0.41133	0.40177	0.19677	-0.172
Mof_H 	H 	0.39583	0.40457	0.24057	0.044
Mof_H 	H 	0.36673	0.34657	0.17877	0.093
Mof_C 	C 	0.41633	0.47847	0.15917	-0.034
Mof_H 	H 	0.46573	0.53307	0.17397	0.045
Mof_H 	H 	0.36323	0.48117	0.16597	0.041
Mof_C 	C 	0.42713	0.46717	0.08777	-0.178
Mof_H 	H 	0.47733	0.45937	0.08117	0.035
Mof_H 	H 	0.37533	0.41537	0.07197	0.09
Mof_H 	H 	0.75143	0.12117	0.88337	0.081
Mof_H 	H 	0.70543	0.01887	0.88967	0.036
Mof_C 	C 	0.70433	0.05867	0.79827	-0.099
Mof_H 	H 	0.69513	0.00417	0.77937	0.047
Mof_H 	H 	0.64733	0.05397	0.80287	0.05
Mof_H 	H 	0.81573	0.15917	0.77727	0.1
Mof_H 	H 	0.76803	0.10187	0.71977	0.054
Mof_C 	C 	0.07113	0.32437	0.69407	-0.167
Mof_H 	H 	0.01743	0.31407	0.71457	0.089
Mof_H 	H 	0.07183	0.34487	0.65127	0.043
Mof_C 	C 	0.14883	0.39227	0.73017	-0.008
Mof_H 	H 	0.20183	0.39877	0.71097	0.031
Mof_H 	H 	0.15063	0.44807	0.72657	0.033
Mof_C 	C 	0.14773	0.37067	0.79897	-0.191
Mof_H 	H 	0.09413	0.36287	0.81807	0.098
Mof_H 	H 	0.14723	0.31547	0.80267	0.042
Mof_H 	H 	0.01923	0.31567	0.67177	0.035
Mof_H 	H 	0.12193	0.36957	0.67177	0.074
Mof_C 	C 	0.06963	0.35567	0.76087	-0.116
Mof_H 	H 	0.06893	0.41057	0.75847	0.055
Mof_H 	H 	0.01693	0.31307	0.78227	0.049
Mof_H 	H 	0.12053	0.32457	0.83057	0.051
Mof_H 	H 	0.17633	0.35017	0.76987	0.096
Mof_Fe	Fe	4.46822e-33	8.93644e-33	0.27726	0.636
Mof_Fe	Fe	0.66667	0.33333	0.61059	0.671
Mof_Fe	Fe	0.33333	0.66667	0.94393	0.663
Mof_Fe	Fe	0.33333	0.66667	0.44338	0.666
Mof_Fe	Fe	-2.68093e-32	0	0.77671	0.63
Mof_Fe	Fe	0.66667	0.33333	0.11005	0.668
_end
