data_functionalizedCrystal
_audit_creation_method	'EQeq! by Chris Wilmer'
_symmetry_space_group_name_H-M	'P1'
_symmetry_Int_Tables_number	1
_symmetry_cell_setting	triclinic
loop_
_symmetry_equiv_pos_as_xyz
  x,y,z
_cell_length_a	18.313
_cell_length_b	8.8229
_cell_length_c	16.221
_cell_angle_alpha	90
_cell_angle_beta	111.7
_cell_angle_gamma	90
loop_
_atom_site_label
_atom_site_type_symbol
_atom_site_fract_x
_atom_site_fract_y
_atom_site_fract_z
_atom_site_charge
Mof_In	In	0.26462	0.71957	0.33978	3.067
Mof_P 	P 	0.13801	0.85149	0.43152	0.73
Mof_P 	P 	0.87366	0.92416	0.31375	0.715
Mof_P 	P 	0.13147	0.45252	0.24136	0.727
Mof_O 	O 	0.1937	0.5248	0.32224	-0.729
Mof_O 	O 	0.09369	0.0079	0.40114	-0.488
Mof_H 	H 	0.0758	0.0126	0.3468	0.249
Mof_O 	O 	0.21308	0.8586	0.41153	-0.713
Mof_O 	O 	0.16062	0.4045	0.16769	-0.681
Mof_O 	O 	0.93857	0.9038	0.27757	-0.501
Mof_O 	O 	0.8138	0.796	0.2874	-0.7
Mof_O 	O 	0.08359	0.7227	0.3836	-0.661
Mof_O 	O 	0.83676	0.0813	0.28821	-0.678
Mof_O 	O 	0.05913	0.5536	0.20158	-0.653
Mof_O 	O 	0.10438	0.3049	0.2773	-0.512
Mof_H 	H 	0.1206	0.2298	0.2596	0.283
Mof_O 	O 	0.15451	0.8482	0.53099	-0.689
Mof_O 	O 	0.91377	0.9144	0.41813	-0.39
Mof_H 	H 	0.8969	0.9826	0.4406	0.296
Mof_In	In	0.76462	0.21957	0.33978	3.083
Mof_P 	P 	0.63801	0.35149	0.43152	0.751
Mof_P 	P 	0.37366	0.42416	0.31375	0.743
Mof_P 	P 	0.63147	0.95252	0.24136	0.742
Mof_O 	O 	0.6937	0.0248	0.32224	-0.737
Mof_O 	O 	0.59369	0.5079	0.40114	-0.458
Mof_H 	H 	0.5758	0.5126	0.3468	0.27
Mof_O 	O 	0.71308	0.3586	0.41153	-0.719
Mof_O 	O 	0.66062	0.9045	0.16769	-0.669
Mof_O 	O 	0.43857	0.4038	0.27757	-0.696
Mof_O 	O 	0.3138	0.296	0.2874	-0.716
Mof_O 	O 	0.58359	0.2227	0.3836	-0.707
Mof_O 	O 	0.33676	0.5813	0.28821	-0.696
Mof_O 	O 	0.55913	0.0536	0.20158	-0.692
Mof_O 	O 	0.60438	0.8049	0.2773	-0.472
Mof_H 	H 	0.6206	0.7298	0.2596	0.284
Mof_O 	O 	0.65451	0.3482	0.53099	-0.674
Mof_O 	O 	0.41377	0.4144	0.41813	-0.468
Mof_H 	H 	0.3969	0.4826	0.4406	0.298
Mof_In	In	0.73538	0.71957	0.16022	3.082
Mof_P 	P 	0.86199	0.85149	0.06848	0.741
Mof_P 	P 	0.12634	0.92416	0.18625	0.724
Mof_P 	P 	0.86853	0.45252	0.25864	0.723
Mof_O 	O 	0.8063	0.5248	0.17776	-0.716
Mof_O 	O 	0.90631	0.0079	0.09886	-0.408
Mof_H 	H 	0.9242	0.0126	0.1532	0.307
Mof_O 	O 	0.78692	0.8586	0.08847	-0.713
Mof_O 	O 	0.83938	0.4045	0.33231	-0.644
Mof_O 	O 	0.06143	0.9038	0.22243	-0.665
Mof_O 	O 	0.1862	0.796	0.2126	-0.709
Mof_O 	O 	0.91641	0.7227	0.1164	-0.516
Mof_O 	O 	0.16324	0.0813	0.21179	-0.701
Mof_O 	O 	0.94087	0.5536	0.29842	-0.481
Mof_O 	O 	0.89562	0.3049	0.2227	-0.403
Mof_H 	H 	0.8794	0.2298	0.2404	0.277
Mof_O 	O 	0.84549	0.8482	0.96901	-0.66
Mof_O 	O 	0.08623	0.9144	0.08187	-0.514
Mof_H 	H 	0.1031	0.9826	0.0594	0.295
Mof_In	In	0.23538	0.21957	0.16022	3.059
Mof_P 	P 	0.36199	0.35149	0.06848	0.764
Mof_P 	P 	0.62634	0.42416	0.18625	0.744
Mof_P 	P 	0.36853	0.95252	0.25864	0.742
Mof_O 	O 	0.3063	0.0248	0.17776	-0.73
Mof_O 	O 	0.40631	0.5079	0.09886	-0.455
Mof_H 	H 	0.4242	0.5126	0.1532	0.269
Mof_O 	O 	0.28692	0.3586	0.08847	-0.719
Mof_O 	O 	0.33938	0.9045	0.33231	-0.668
Mof_O 	O 	0.56143	0.4038	0.22243	-0.696
Mof_O 	O 	0.6862	0.296	0.2126	-0.718
Mof_O 	O 	0.41641	0.2227	0.1164	-0.704
Mof_O 	O 	0.66324	0.5813	0.21179	-0.697
Mof_O 	O 	0.44087	0.0536	0.29842	-0.694
Mof_O 	O 	0.39562	0.8049	0.2227	-0.471
Mof_H 	H 	0.3794	0.7298	0.2404	0.283
Mof_O 	O 	0.34549	0.3482	0.96901	-0.689
Mof_O 	O 	0.58623	0.4144	0.08187	-0.463
Mof_H 	H 	0.6031	0.4826	0.0594	0.301
Mof_In	In	0.73538	0.28043	0.66022	3.079
Mof_P 	P 	0.86199	0.14851	0.56848	0.735
Mof_P 	P 	0.12634	0.07584	0.68625	0.724
Mof_P 	P 	0.86853	0.54748	0.75864	0.722
Mof_O 	O 	0.8063	0.4752	0.67776	-0.717
Mof_O 	O 	0.90631	0.9921	0.59886	-0.417
Mof_H 	H 	0.9242	0.9874	0.6532	0.309
Mof_O 	O 	0.78692	0.1414	0.58847	-0.715
Mof_O 	O 	0.83938	0.5955	0.83231	-0.647
Mof_O 	O 	0.06143	0.0962	0.72243	-0.665
Mof_O 	O 	0.1862	0.204	0.7126	-0.709
Mof_O 	O 	0.91641	0.2773	0.6164	-0.515
Mof_O 	O 	0.16324	0.9187	0.71179	-0.702
Mof_O 	O 	0.94087	0.4464	0.79842	-0.483
Mof_O 	O 	0.89562	0.6951	0.7227	-0.405
Mof_H 	H 	0.8794	0.7702	0.7404	0.276
Mof_O 	O 	0.84549	0.1518	0.46901	-0.649
Mof_O 	O 	0.08623	0.0856	0.58187	-0.519
Mof_H 	H 	0.1031	0.0174	0.5594	0.294
Mof_In	In	0.23538	0.78043	0.66022	3.055
Mof_P 	P 	0.36199	0.64851	0.56848	0.75
Mof_P 	P 	0.62634	0.57584	0.68625	0.744
Mof_P 	P 	0.36853	0.04748	0.75864	0.742
Mof_O 	O 	0.3063	0.9752	0.67776	-0.733
Mof_O 	O 	0.40631	0.4921	0.59886	-0.46
Mof_H 	H 	0.4242	0.4874	0.6532	0.27
Mof_O 	O 	0.28692	0.6414	0.58847	-0.722
Mof_O 	O 	0.33938	0.0955	0.83231	-0.671
Mof_O 	O 	0.56143	0.5962	0.72243	-0.696
Mof_O 	O 	0.6862	0.704	0.7126	-0.719
Mof_O 	O 	0.41641	0.7773	0.6164	-0.706
Mof_O 	O 	0.66324	0.4187	0.71179	-0.698
Mof_O 	O 	0.44087	0.9464	0.79842	-0.695
Mof_O 	O 	0.39562	0.1951	0.7227	-0.473
Mof_H 	H 	0.3794	0.2702	0.7404	0.283
Mof_O 	O 	0.34549	0.6518	0.46901	-0.674
Mof_O 	O 	0.58623	0.5856	0.58187	-0.468
Mof_H 	H 	0.6031	0.5174	0.5594	0.298
Mof_In	In	0.26462	0.28043	0.83978	3.063
Mof_P 	P 	0.13801	0.14851	0.93152	0.712
Mof_P 	P 	0.87366	0.07584	0.81375	0.715
Mof_P 	P 	0.13147	0.54748	0.74136	0.727
Mof_O 	O 	0.1937	0.4752	0.82224	-0.73
Mof_O 	O 	0.09369	0.9921	0.90114	-0.488
Mof_H 	H 	0.0758	0.9874	0.8468	0.249
Mof_O 	O 	0.21308	0.1414	0.91153	-0.716
Mof_O 	O 	0.16062	0.5955	0.66769	-0.683
Mof_O 	O 	0.93857	0.0962	0.77757	-0.5
Mof_O 	O 	0.8138	0.204	0.7874	-0.701
Mof_O 	O 	0.08359	0.2773	0.8836	-0.662
Mof_O 	O 	0.83676	0.9187	0.78821	-0.679
Mof_O 	O 	0.05913	0.4464	0.70158	-0.655
Mof_O 	O 	0.10438	0.6951	0.7773	-0.514
Mof_H 	H 	0.1206	0.7702	0.7596	0.283
Mof_O 	O 	0.15451	0.1518	0.03099	-0.672
Mof_O 	O 	0.91377	0.0856	0.91813	-0.396
Mof_H 	H 	0.8969	0.0174	0.9406	0.291
Mof_In	In	0.76462	0.78043	0.83978	3.079
Mof_P 	P 	0.63801	0.64851	0.93152	0.739
Mof_P 	P 	0.37366	0.57584	0.81375	0.742
Mof_P 	P 	0.63147	0.04748	0.74136	0.743
Mof_O 	O 	0.6937	0.9752	0.82224	-0.738
Mof_O 	O 	0.59369	0.4921	0.90114	-0.464
Mof_H 	H 	0.5758	0.4874	0.8468	0.271
Mof_O 	O 	0.71308	0.6414	0.91153	-0.722
Mof_O 	O 	0.66062	0.0955	0.66769	-0.67
Mof_O 	O 	0.43857	0.5962	0.77757	-0.696
Mof_O 	O 	0.3138	0.704	0.7874	-0.716
Mof_O 	O 	0.58359	0.7773	0.8836	-0.708
Mof_O 	O 	0.33676	0.4187	0.78821	-0.696
Mof_O 	O 	0.55913	0.9464	0.70158	-0.694
Mof_O 	O 	0.60438	0.1951	0.7773	-0.474
Mof_H 	H 	0.6206	0.2702	0.7596	0.284
Mof_O 	O 	0.65451	0.6518	0.03099	-0.663
Mof_O 	O 	0.41377	0.5856	0.91813	-0.472
Mof_H 	H 	0.3969	0.5174	0.9406	0.295
Mof_In	In	1.13726e-33	0.71412	0.25	2.336
Mof_In	In	0.5	0.21412	0.25	3.109
Mof_In	In	-4.66857e-17	0.28588	0.75	2.326
Mof_In	In	0.5	0.78588	0.75	3.106
_end
