data_functionalizedCrystal
_audit_creation_method	'EQeq! by Chris Wilmer'
_symmetry_space_group_name_H-M	'P1'
_symmetry_Int_Tables_number	1
_symmetry_cell_setting	triclinic
loop_
_symmetry_equiv_pos_as_xyz
  x,y,z
_cell_length_a	16.6253
_cell_length_b	16.6254
_cell_length_c	20.0411
_cell_angle_alpha	73.2778
_cell_angle_beta	73.2777
_cell_angle_gamma	107.837
loop_
_atom_site_label
_atom_site_type_symbol
_atom_site_fract_x
_atom_site_fract_y
_atom_site_fract_z
_atom_site_charge
Mof_K 	K 	0.44265	0.71303	0.9684	1.593
Mof_K 	K 	0.58895	0.31857	0.9684	1.595
Mof_K 	K 	0.46303	0.69265	0.4684	1.859
Mof_K 	K 	0.06857	0.83895	0.4684	1.869
Mof_K 	K 	0.85641	0.85641	0.28718	1.697
Mof_K 	K 	0.45501	0.45501	0.08998	2.505
Mof_K 	K 	0.60641	0.10641	0.78718	1.72
Mof_K 	K 	0.20501	0.70501	0.58998	2.234
Mof_La	La	0.25406	0.37034	0.8642	0.915
Mof_La	La	0.91468	0.05232	0.51988	0.828
Mof_La	La	0.88174	0.76546	0.8642	0.883
Mof_La	La	0.56544	0.4278	0.51988	0.836
Mof_La	La	0.12034	0.50406	0.3642	1.006
Mof_La	La	0.80232	0.16468	0.01988	0.96
Mof_La	La	0.51546	0.13174	0.3642	1.008
Mof_La	La	0.1778	0.81544	0.01988	0.95
Mof_Pt	Pt	0.09339	0.22185	0.19273	0.095
Mof_Pt	Pt	0.58589	0.70929	0.68908	0.066
Mof_Pt	Pt	0.09785	0.22515	0.67923	0.103
Mof_Pt	Pt	0.59175	0.70732	0.18951	0.08
Mof_Pt	Pt	0.71388	0.58542	0.19273	0.071
Mof_Pt	Pt	0.72503	0.60163	0.68908	0.066
Mof_Pt	Pt	0.22292	0.09563	0.67923	0.105
Mof_Pt	Pt	0.21874	0.10317	0.18951	0.107
Mof_Pt	Pt	0.97185	0.34339	0.69273	0.03
Mof_Pt	Pt	0.45929	0.83589	0.18908	0.074
Mof_Pt	Pt	0.97515	0.34785	0.17923	0.048
Mof_Pt	Pt	0.45732	0.84175	0.68951	0.08
Mof_Pt	Pt	0.33542	0.96388	0.69273	0.027
Mof_Pt	Pt	0.35163	0.97503	0.18908	0.025
Mof_Pt	Pt	0.84562	0.47292	0.17923	0.089
Mof_Pt	Pt	0.85317	0.46874	0.68951	0.079
Mof_C 	C 	0.9901	0.1157	0.1998	-0.054
Mof_C 	C 	0.1483	0.2715	0.0788	-0.011
Mof_C 	C 	0.1997	0.3255	0.1858	-0.045
Mof_C 	C 	0.0389	0.1745	0.3058	-0.033
Mof_C 	C 	0.5834	0.7076	0.7888	-0.039
Mof_C 	C 	0.6969	0.8309	0.635	-0.042
Mof_C 	C 	0.5927	0.7143	0.5872	-0.081
Mof_C 	C 	0.4767	0.5873	0.7418	-0.049
Mof_C 	C 	0.1526	0.2774	0.742	-0.017
Mof_C 	C 	0.2015	0.3309	0.5852	-0.037
Mof_C 	C 	0.0454	0.177	0.6144	-0.015
Mof_C 	C 	0.9965	0.1207	0.7738	-0.05
Mof_C 	C 	0.48	0.5994	0.2678	-0.101
Mof_C 	C 	0.6212	0.7314	0.2732	-0.102
Mof_C 	C 	0.7071	0.8137	0.109	-0.056
Mof_C 	C 	0.5607	0.6783	0.1064	-0.078
Mof_C 	C 	0.8101	0.6845	0.1998	-0.038
Mof_C 	C 	0.7729	0.6497	0.0788	-0.014
Mof_C 	C 	0.6145	0.4887	0.1858	-0.04
Mof_C 	C 	0.6553	0.5197	0.3058	-0.039
Mof_C 	C 	0.6278	0.5036	0.7888	-0.038
Mof_C 	C 	0.6681	0.5341	0.635	-0.04
Mof_C 	C 	0.8201	0.6985	0.5872	-0.082
Mof_C 	C 	0.7815	0.6709	0.7418	-0.051
Mof_C 	C 	0.1054	0.9806	0.742	-0.036
Mof_C 	C 	0.2133	0.0839	0.5852	-0.03
Mof_C 	C 	0.3402	0.2086	0.6144	-0.024
Mof_C 	C 	0.2297	0.1055	0.7738	-0.03
Mof_C 	C 	0.2522	0.1328	0.2678	-0.099
Mof_C 	C 	0.1056	0.9954	0.2732	-0.122
Mof_C 	C 	0.1839	0.0773	0.109	-0.048
Mof_C 	C 	0.3329	0.2153	0.1064	-0.081
Mof_C 	C 	0.8657	0.2401	0.6998	-0.037
Mof_C 	C 	0.0215	0.3983	0.5788	0.001
Mof_C 	C 	0.0755	0.4497	0.6858	-0.027
Mof_C 	C 	0.9245	0.2889	0.8058	-0.038
Mof_C 	C 	0.4576	0.8334	0.2888	-0.045
Mof_C 	C 	0.5809	0.9469	0.135	-0.059
Mof_C 	C 	0.4643	0.8427	0.0872	-0.073
Mof_C 	C 	0.3373	0.7267	0.2418	-0.046
Mof_C 	C 	0.0274	0.4026	0.242	0.006
Mof_C 	C 	0.0809	0.4515	0.0852	-0.007
Mof_C 	C 	0.927	0.2954	0.1144	-0.01
Mof_C 	C 	0.8707	0.2465	0.2738	-0.028
Mof_C 	C 	0.3494	0.73	0.7678	-0.098
Mof_C 	C 	0.4814	0.8712	0.7732	-0.101
Mof_C 	C 	0.5637	0.9571	0.609	-0.084
Mof_C 	C 	0.4283	0.8107	0.6064	-0.086
Mof_C 	C 	0.4345	0.0601	0.6998	-0.02
Mof_C 	C 	0.3997	0.0229	0.5788	0.004
Mof_C 	C 	0.2387	0.8645	0.6858	-0.041
Mof_C 	C 	0.2697	0.9053	0.8058	-0.038
Mof_C 	C 	0.2536	0.8778	0.2888	-0.038
Mof_C 	C 	0.2841	0.9181	0.135	-0.033
Mof_C 	C 	0.4485	0.0701	0.0872	-0.047
Mof_C 	C 	0.4209	0.0315	0.2418	-0.022
Mof_C 	C 	0.7306	0.3554	0.242	-0.013
Mof_C 	C 	0.8339	0.4633	0.0852	-0.028
Mof_C 	C 	0.9586	0.5902	0.1144	-0.032
Mof_C 	C 	0.8555	0.4797	0.2738	-0.034
Mof_C 	C 	0.8828	0.5022	0.7678	-0.1
Mof_C 	C 	0.7454	0.3556	0.7732	-0.098
Mof_C 	C 	0.8273	0.4339	0.609	-0.063
Mof_C 	C 	0.9653	0.5829	0.6064	-0.103
Mof_N 	N 	0.9343	0.0535	0.2026	-0.31
Mof_N 	N 	0.17976	0.30016	0.01428	-0.231
Mof_N 	N 	0.2601	0.3861	0.18	-0.361
Mof_N 	N 	0.0078	0.149	0.3706	-0.256
Mof_N 	N 	0.5847	0.7091	0.8452	-0.294
Mof_N 	N 	0.7622	0.8982	0.6008	-0.279
Mof_N 	N 	0.6018	0.721	0.5266	-0.362
Mof_N 	N 	0.4139	0.5167	0.7722	-0.269
Mof_N 	N 	0.1831	0.3093	0.7774	-0.261
Mof_N 	N 	0.2614	0.3908	0.5318	-0.211
Mof_N 	N 	0.0169	0.1531	0.5746	-0.241
Mof_N 	N 	0.9392	0.0618	0.8292	-0.197
Mof_N 	N 	0.4157	0.5355	0.3146	-0.211
Mof_N 	N 	0.6368	0.741	0.3226	-0.365
Mof_N 	N 	0.7724	0.873	0.063	-0.188
Mof_N 	N 	0.5409	0.6557	0.063	-0.393
Mof_N 	N 	0.8631	0.7439	0.2026	-0.32
Mof_N 	N 	0.80596	0.68556	0.01428	-0.234
Mof_N 	N 	0.5599	0.4339	0.18	-0.362
Mof_N 	N 	0.6216	0.4804	0.3706	-0.264
Mof_N 	N 	0.5701	0.4457	0.8452	-0.294
Mof_N 	N 	0.637	0.501	0.6008	-0.274
Mof_N 	N 	0.8716	0.7524	0.5266	-0.366
Mof_N 	N 	0.8139	0.7111	0.7722	-0.269
Mof_N 	N 	0.0395	0.9133	0.7774	-0.254
Mof_N 	N 	0.2068	0.0774	0.5318	-0.207
Mof_N 	N 	0.4085	0.2723	0.5746	-0.247
Mof_N 	N 	0.2316	0.109	0.8292	-0.198
Mof_N 	N 	0.2697	0.1499	0.3146	-0.209
Mof_N 	N 	0.0406	0.9364	0.3226	-0.358
Mof_N 	N 	0.1646	0.064	0.063	-0.174
Mof_N 	N 	0.3961	0.2813	0.063	-0.391
Mof_N 	N 	0.8035	0.1843	0.7026	-0.321
Mof_N 	N 	0.05016	0.42976	0.51428	-0.266
Mof_N 	N 	0.1361	0.5101	0.68	-0.355
Mof_N 	N 	0.899	0.2578	0.8706	-0.292
Mof_N 	N 	0.4591	0.8347	0.3452	-0.305
Mof_N 	N 	0.6482	0.0122	0.1008	-0.257
Mof_N 	N 	0.471	0.8518	0.0266	-0.324
Mof_N 	N 	0.2667	0.6639	0.2722	-0.271
Mof_N 	N 	0.0593	0.4331	0.2774	-0.266
Mof_N 	N 	0.1408	0.5114	0.0318	-0.191
Mof_N 	N 	0.9031	0.2669	0.0746	-0.248
Mof_N 	N 	0.8118	0.1892	0.3292	-0.192
Mof_N 	N 	0.2855	0.6657	0.8146	-0.214
Mof_N 	N 	0.491	0.8868	0.8226	-0.363
Mof_N 	N 	0.623	0.0224	0.563	-0.178
Mof_N 	N 	0.4057	0.7909	0.563	-0.415
Mof_N 	N 	0.4939	0.1131	0.7026	-0.323
Mof_N 	N 	0.43556	0.05596	0.51428	-0.266
Mof_N 	N 	0.1839	0.8099	0.68	-0.353
Mof_N 	N 	0.2304	0.8716	0.8706	-0.291
Mof_N 	N 	0.1957	0.8201	0.3452	-0.305
Mof_N 	N 	0.251	0.887	0.1008	-0.278
Mof_N 	N 	0.5024	0.1216	0.0266	-0.324
Mof_N 	N 	0.4611	0.0639	0.2722	-0.274
Mof_N 	N 	0.6633	0.2895	0.2774	-0.263
Mof_N 	N 	0.8274	0.4568	0.0318	-0.189
Mof_N 	N 	0.0223	0.6585	0.0746	-0.231
Mof_N 	N 	0.859	0.4816	0.3292	-0.193
Mof_N 	N 	0.8999	0.5197	0.8146	-0.217
Mof_N 	N 	0.6864	0.2906	0.8226	-0.36
Mof_N 	N 	0.814	0.4146	0.563	-0.196
Mof_N 	N 	0.0313	0.6461	0.563	-0.401
Mof_O 	O 	0.4178	0.533	0.969	-0.708
Mof_O 	O 	0.6132	0.498	0.969	-0.708
Mof_O 	O 	0.283	0.6678	0.469	-0.674
Mof_O 	O 	0.248	0.8632	0.469	-0.681
_end
