data_functionalizedCrystal
_audit_creation_method	'EQeq! by Chris Wilmer'
_symmetry_space_group_name_H-M	'P1'
_symmetry_Int_Tables_number	1
_symmetry_cell_setting	triclinic
loop_
_symmetry_equiv_pos_as_xyz
  x,y,z
_cell_length_a	14.7367
_cell_length_b	9.5763
_cell_length_c	9.892
_cell_angle_alpha	90
_cell_angle_beta	101.474
_cell_angle_gamma	90
loop_
_atom_site_label
_atom_site_type_symbol
_atom_site_fract_x
_atom_site_fract_y
_atom_site_fract_z
_atom_site_charge
Mof_Zn	Zn	0.08728	0.07361	0.63678	1.18
Mof_C 	C 	0.2678	0.0964	0.7274	0.326
Mof_C 	C 	0.3633	0.0731	0.819	-0.06
Mof_C 	C 	0.3726	0.9914	0.9316	-0.043
Mof_H 	H 	0.3204	0.95	0.9538	0.059
Mof_C 	C 	0.4612	0.9673	0.0175	0.025
Mof_C 	C 	0.4407	0.1404	0.7849	-0.001
Mof_H 	H 	0.4335	0.1991	0.7085	0.046
Mof_C 	C 	0.0055	0.8326	0.7676	0.118
Mof_H 	H 	0.0426	0.8494	0.8537	-0.053
Mof_C 	C 	0.9077	0.7435	0.6086	0.109
Mof_H 	H 	0.8624	0.685	0.5595	-0.028
Mof_N 	N 	0.0062	0.9098	0.6596	-0.271
Mof_N 	N 	0.9413	0.8523	0.5545	-0.276
Mof_N 	N 	0.9455	0.7262	0.7417	-0.298
Mof_O 	O 	0.2061	0.0094	0.7444	-0.472
Mof_O 	O 	0.255	0.1942	0.648	-0.338
Mof_C 	C 	0.5262	0.1189	0.8645	-0.082
Mof_H 	H 	0.5774	0.1619	0.8407	0.061
Mof_Zn	Zn	0.91272	0.57361	0.86322	1.18
Mof_C 	C 	0.7322	0.5964	0.7726	0.326
Mof_C 	C 	0.6367	0.5731	0.681	-0.059
Mof_C 	C 	0.6274	0.4914	0.5684	-0.045
Mof_H 	H 	0.6796	0.45	0.5462	0.059
Mof_C 	C 	0.5388	0.4673	0.4825	0.026
Mof_C 	C 	0.5593	0.6404	0.7151	-0.001
Mof_H 	H 	0.5665	0.6991	0.7915	0.046
Mof_C 	C 	0.9945	0.3326	0.7324	0.114
Mof_H 	H 	0.9574	0.3494	0.6463	-0.053
Mof_C 	C 	0.0923	0.2435	0.8914	0.109
Mof_H 	H 	0.1376	0.185	0.9405	-0.028
Mof_N 	N 	0.9938	0.4098	0.8404	-0.274
Mof_N 	N 	0.0587	0.3523	0.9455	-0.274
Mof_N 	N 	0.0545	0.2262	0.7583	-0.296
Mof_O 	O 	0.7939	0.5094	0.7556	-0.472
Mof_O 	O 	0.745	0.6942	0.852	-0.339
Mof_C 	C 	0.4738	0.6189	0.6355	-0.082
Mof_H 	H 	0.4226	0.6619	0.6593	0.061
Mof_Zn	Zn	0.91272	0.92639	0.36322	1.18
Mof_C 	C 	0.7322	0.9036	0.2726	0.326
Mof_C 	C 	0.6367	0.9269	0.181	-0.06
Mof_C 	C 	0.6274	0.0086	0.0684	-0.043
Mof_H 	H 	0.6796	0.05	0.0462	0.059
Mof_C 	C 	0.5388	0.0327	0.9825	0.025
Mof_C 	C 	0.5593	0.8596	0.2151	-0.001
Mof_H 	H 	0.5665	0.8009	0.2915	0.046
Mof_C 	C 	0.9945	0.1674	0.2324	0.118
Mof_H 	H 	0.9574	0.1506	0.1463	-0.053
Mof_C 	C 	0.0923	0.2565	0.3914	0.109
Mof_H 	H 	0.1376	0.315	0.4405	-0.028
Mof_N 	N 	0.9938	0.0902	0.3404	-0.271
Mof_N 	N 	0.0587	0.1477	0.4455	-0.276
Mof_N 	N 	0.0545	0.2738	0.2583	-0.298
Mof_O 	O 	0.7939	0.9906	0.2556	-0.472
Mof_O 	O 	0.745	0.8058	0.352	-0.338
Mof_C 	C 	0.4738	0.8811	0.1355	-0.082
Mof_H 	H 	0.4226	0.8381	0.1593	0.061
Mof_Zn	Zn	0.08728	0.42639	0.13678	1.18
Mof_C 	C 	0.2678	0.4036	0.2274	0.326
Mof_C 	C 	0.3633	0.4269	0.319	-0.059
Mof_C 	C 	0.3726	0.5086	0.4316	-0.045
Mof_H 	H 	0.3204	0.55	0.4538	0.059
Mof_C 	C 	0.4612	0.5327	0.5175	0.026
Mof_C 	C 	0.4407	0.3596	0.2849	-0.001
Mof_H 	H 	0.4335	0.3009	0.2085	0.046
Mof_C 	C 	0.0055	0.6674	0.2676	0.114
Mof_H 	H 	0.0426	0.6506	0.3537	-0.053
Mof_C 	C 	0.9077	0.7565	0.1086	0.109
Mof_H 	H 	0.8624	0.815	0.0595	-0.028
Mof_N 	N 	0.0062	0.5902	0.1596	-0.274
Mof_N 	N 	0.9413	0.6477	0.0545	-0.274
Mof_N 	N 	0.9455	0.7738	0.2417	-0.296
Mof_O 	O 	0.2061	0.4906	0.2444	-0.472
Mof_O 	O 	0.255	0.3058	0.148	-0.339
Mof_C 	C 	0.5262	0.3811	0.3645	-0.082
Mof_H 	H 	0.5774	0.3381	0.3407	0.061
_end
