data_functionalizedCrystal
_audit_creation_method	'EQeq! by Chris Wilmer'
_symmetry_space_group_name_H-M	'P1'
_symmetry_Int_Tables_number	1
_symmetry_cell_setting	triclinic
loop_
_symmetry_equiv_pos_as_xyz
  x,y,z
_cell_length_a	8.1309
_cell_length_b	10.5108
_cell_length_c	11.4194
_cell_angle_alpha	62.599
_cell_angle_beta	84.4085
_cell_angle_gamma	77.777
loop_
_atom_site_label
_atom_site_type_symbol
_atom_site_fract_x
_atom_site_fract_y
_atom_site_fract_z
_atom_site_charge
Mof_Co	Co	0.48993	0.68825	0.50758	1.104
Mof_Co	Co	0.98993	0.19583	0.49242	1.083
Mof_H 	H 	0.5878	0.5699	0.799	-0.027
Mof_H 	H 	0.4055	0.3781	0.635	-0.041
Mof_H 	H 	0.5835	0.3733	0.0014	0.081
Mof_H 	H 	0.3986	0.1788	0.83	0.083
Mof_H 	H 	0.5381	0.2119	0.1856	0.051
Mof_H 	H 	0.423	0.9867	0.0112	0.062
Mof_H 	H 	0.5367	0.0096	0.3838	-0.026
Mof_H 	H 	0.419	0.7929	0.216	-0.001
Mof_H 	H 	0.7024	0.3943	0.5416	-0.185
Mof_H 	H 	0.0878	0.3689	0.201	-0.02
Mof_H 	H 	0.9055	0.0131	0.365	-0.045
Mof_H 	H 	0.0835	0.3747	0.9986	0.071
Mof_H 	H 	0.8986	0.0088	0.17	0.055
Mof_H 	H 	0.0381	0.3975	0.8144	0.074
Mof_H 	H 	0.923	0.9979	0.9888	0.114
Mof_H 	H 	0.0367	0.3934	0.6162	-0.037
Mof_H 	H 	0.919	0.0089	0.784	-0.042
Mof_H 	H 	0.2024	0.9359	0.4584	-0.155
Mof_C 	C 	0.5481	0.49039	0.80502	0.097
Mof_C 	C 	0.4419	0.37768	0.70984	0.099
Mof_C 	C 	0.546	0.37167	0.92786	-0.162
Mof_C 	C 	0.4371	0.25762	0.82676	-0.174
Mof_C 	C 	0.489	0.25145	0.9415	0.096
Mof_C 	C 	0.4832	0.1231	0.0722	-0.012
Mof_C 	C 	0.5156	0.12721	0.18878	-0.093
Mof_C 	C 	0.4467	0.99463	0.08534	-0.062
Mof_C 	C 	0.5137	0.00503	0.30774	0.021
Mof_C 	C 	0.4457	0.87771	0.20958	0.055
Mof_C 	C 	0.7253	0.45657	0.45486	0.48
Mof_C 	C 	0.0481	0.29541	0.19498	0.114
Mof_C 	C 	0.9419	0.08752	0.29016	0.06
Mof_C 	C 	0.046	0.29953	0.07214	-0.092
Mof_C 	C 	0.9371	0.08438	0.17324	-0.13
Mof_C 	C 	0.989	0.19295	0.0585	-0
Mof_C 	C 	0.9832	0.1953	0.9278	0.049
Mof_C 	C 	0.0156	0.31599	0.81122	-0.117
Mof_C 	C 	0.9467	0.07997	0.91466	-0.206
Mof_C 	C 	0.0137	0.31277	0.69226	0.12
Mof_C 	C 	0.9457	0.08729	0.79042	0.1
Mof_C 	C 	0.2253	0.91143	0.54514	0.465
Mof_N 	N 	0.4965	0.49661	0.69578	-0.258
Mof_N 	N 	0.4808	0.87971	0.32038	-0.223
Mof_N 	N 	0.9965	0.19239	0.30422	-0.278
Mof_N 	N 	0.9808	0.20009	0.67962	-0.284
Mof_O 	O 	0.6388	0.58271	0.40498	-0.481
Mof_O 	O 	0.8405	0.40799	0.39662	-0.487
Mof_O 	O 	0.1388	0.98769	0.59502	-0.435
Mof_O 	O 	0.3405	0.80461	0.60338	-0.461
_end
