data_functionalizedCrystal
_audit_creation_method	'EQeq! by Chris Wilmer'
_symmetry_space_group_name_H-M	'P1'
_symmetry_Int_Tables_number	1
_symmetry_cell_setting	triclinic
loop_
_symmetry_equiv_pos_as_xyz
  x,y,z
_cell_length_a	19.8085
_cell_length_b	19.8085
_cell_length_c	19.8085
_cell_angle_alpha	90
_cell_angle_beta	90
_cell_angle_gamma	90
loop_
_atom_site_label
_atom_site_type_symbol
_atom_site_fract_x
_atom_site_fract_y
_atom_site_fract_z
_atom_site_charge
Mof_Eu	Eu	0.49325	0.24701	0.15309	1.747
Mof_O 	O 	0.4508	0.1472	0.206	-0.538
Mof_O 	O 	0.5413	0.3423	0.2092	-0.535
Mof_O 	O 	0.4174	0.086	0.2943	-0.502
Mof_O 	O 	0.5892	0.3935	0.2969	-0.502
Mof_N 	N 	0.4995	0.2419	0.2805	-0.2
Mof_C 	C 	0.4451	0.1357	0.2687	0.396
Mof_C 	C 	0.5544	0.348	0.2717	0.392
Mof_C 	C 	0.5274	0.2928	0.3159	-0.104
Mof_C 	C 	0.4743	0.1888	0.3142	-0.102
Mof_C 	C 	0.5298	0.293	0.3851	0.007
Mof_H 	H 	0.5492	0.3287	0.4086	-0.006
Mof_C 	C 	0.4737	0.1867	0.384	0.008
Mof_H 	H 	0.4541	0.1506	0.4068	-0.002
Mof_C 	C 	0.5024	0.2385	0.4188	-0.096
Mof_H 	H 	0.5036	0.2371	0.4657	0.023
Mof_Eu	Eu	0.00675	0.75299	0.65309	1.743
Mof_O 	O 	0.0492	0.8528	0.706	-0.538
Mof_O 	O 	0.9587	0.6577	0.7092	-0.532
Mof_O 	O 	0.0826	0.914	0.7943	-0.502
Mof_O 	O 	0.9108	0.6065	0.7969	-0.5
Mof_N 	N 	0.0005	0.7581	0.7805	-0.202
Mof_C 	C 	0.0549	0.8643	0.7687	0.395
Mof_C 	C 	0.9456	0.652	0.7717	0.391
Mof_C 	C 	0.9726	0.7072	0.8159	-0.098
Mof_C 	C 	0.0257	0.8112	0.8142	-0.098
Mof_C 	C 	0.9702	0.707	0.8851	0.002
Mof_H 	H 	0.9508	0.6713	0.9086	-0.002
Mof_C 	C 	0.0263	0.8133	0.884	-0.001
Mof_H 	H 	0.0459	0.8494	0.9068	0.002
Mof_C 	C 	0.9976	0.7615	0.9188	-0.084
Mof_H 	H 	0.9964	0.7629	0.9657	0.022
Mof_Eu	Eu	0.50675	0.74701	0.34691	1.747
Mof_O 	O 	0.5492	0.6472	0.294	-0.537
Mof_O 	O 	0.4587	0.8423	0.2908	-0.534
Mof_O 	O 	0.5826	0.586	0.2057	-0.502
Mof_O 	O 	0.4108	0.8935	0.2031	-0.501
Mof_N 	N 	0.5005	0.7419	0.2195	-0.199
Mof_C 	C 	0.5549	0.6357	0.2313	0.397
Mof_C 	C 	0.4456	0.848	0.2283	0.393
Mof_C 	C 	0.4726	0.7928	0.1841	-0.103
Mof_C 	C 	0.5257	0.6888	0.1858	-0.101
Mof_C 	C 	0.4702	0.793	0.1149	0.008
Mof_H 	H 	0.4508	0.8287	0.0914	-0.005
Mof_C 	C 	0.5263	0.6867	0.116	0.009
Mof_H 	H 	0.5459	0.6506	0.0932	-0.001
Mof_C 	C 	0.4976	0.7385	0.0812	-0.095
Mof_H 	H 	0.4964	0.7371	0.0343	0.023
Mof_Eu	Eu	0.99325	0.25299	0.84691	1.748
Mof_O 	O 	0.9508	0.3528	0.794	-0.537
Mof_O 	O 	0.0413	0.1577	0.7908	-0.534
Mof_O 	O 	0.9174	0.414	0.7057	-0.502
Mof_O 	O 	0.0892	0.1065	0.7031	-0.501
Mof_N 	N 	0.9995	0.2581	0.7195	-0.2
Mof_C 	C 	0.9451	0.3643	0.7313	0.397
Mof_C 	C 	0.0544	0.152	0.7283	0.393
Mof_C 	C 	0.0274	0.2072	0.6841	-0.102
Mof_C 	C 	0.9743	0.3112	0.6858	-0.1
Mof_C 	C 	0.0298	0.207	0.6149	0.008
Mof_H 	H 	0.0492	0.1713	0.5914	-0.005
Mof_C 	C 	0.9737	0.3133	0.616	0.007
Mof_H 	H 	0.9541	0.3494	0.5932	-0
Mof_C 	C 	0.0024	0.2615	0.5812	-0.093
Mof_H 	H 	0.0036	0.2629	0.5343	0.023
Mof_Eu	Eu	0.15309	0.49325	0.24701	1.748
Mof_O 	O 	0.206	0.4508	0.1472	-0.537
Mof_O 	O 	0.2092	0.5413	0.3423	-0.534
Mof_O 	O 	0.2943	0.4174	0.086	-0.501
Mof_O 	O 	0.2969	0.5892	0.3935	-0.501
Mof_N 	N 	0.2805	0.4995	0.2419	-0.199
Mof_C 	C 	0.2687	0.4451	0.1357	0.397
Mof_C 	C 	0.2717	0.5544	0.348	0.393
Mof_C 	C 	0.3159	0.5274	0.2928	-0.103
Mof_C 	C 	0.3142	0.4743	0.1888	-0.101
Mof_C 	C 	0.3851	0.5298	0.293	0.008
Mof_H 	H 	0.4086	0.5492	0.3287	-0.005
Mof_C 	C 	0.384	0.4737	0.1867	0.009
Mof_H 	H 	0.4068	0.4541	0.1506	-0.001
Mof_C 	C 	0.4188	0.5024	0.2385	-0.095
Mof_H 	H 	0.4657	0.5036	0.2371	0.024
Mof_Eu	Eu	0.65309	0.00675	0.75299	1.744
Mof_O 	O 	0.706	0.0492	0.8528	-0.537
Mof_O 	O 	0.7092	0.9587	0.6577	-0.532
Mof_O 	O 	0.7943	0.0826	0.914	-0.502
Mof_O 	O 	0.7969	0.9108	0.6065	-0.5
Mof_N 	N 	0.7805	0.0005	0.7581	-0.202
Mof_C 	C 	0.7687	0.0549	0.8643	0.395
Mof_C 	C 	0.7717	0.9456	0.652	0.391
Mof_C 	C 	0.8159	0.9726	0.7072	-0.098
Mof_C 	C 	0.8142	0.0257	0.8112	-0.098
Mof_C 	C 	0.8851	0.9702	0.707	0.002
Mof_H 	H 	0.9086	0.9508	0.6713	-0.002
Mof_C 	C 	0.884	0.0263	0.8133	-0.001
Mof_H 	H 	0.9068	0.0459	0.8494	0.002
Mof_C 	C 	0.9188	0.9976	0.7615	-0.084
Mof_H 	H 	0.9657	0.9964	0.7629	0.022
Mof_Eu	Eu	0.34691	0.50675	0.74701	1.747
Mof_O 	O 	0.294	0.5492	0.6472	-0.537
Mof_O 	O 	0.2908	0.4587	0.8423	-0.534
Mof_O 	O 	0.2057	0.5826	0.586	-0.502
Mof_O 	O 	0.2031	0.4108	0.8935	-0.501
Mof_N 	N 	0.2195	0.5005	0.7419	-0.199
Mof_C 	C 	0.2313	0.5549	0.6357	0.397
Mof_C 	C 	0.2283	0.4456	0.848	0.393
Mof_C 	C 	0.1841	0.4726	0.7928	-0.103
Mof_C 	C 	0.1858	0.5257	0.6888	-0.101
Mof_C 	C 	0.1149	0.4702	0.793	0.008
Mof_H 	H 	0.0914	0.4508	0.8287	-0.005
Mof_C 	C 	0.116	0.5263	0.6867	0.009
Mof_H 	H 	0.0932	0.5459	0.6506	-0.001
Mof_C 	C 	0.0812	0.4976	0.7385	-0.095
Mof_H 	H 	0.0343	0.4964	0.7371	0.023
Mof_Eu	Eu	0.84691	0.99325	0.25299	1.748
Mof_O 	O 	0.794	0.9508	0.3528	-0.537
Mof_O 	O 	0.7908	0.0413	0.1577	-0.534
Mof_O 	O 	0.7057	0.9174	0.414	-0.502
Mof_O 	O 	0.7031	0.0892	0.1065	-0.501
Mof_N 	N 	0.7195	0.9995	0.2581	-0.2
Mof_C 	C 	0.7313	0.9451	0.3643	0.397
Mof_C 	C 	0.7283	0.0544	0.152	0.393
Mof_C 	C 	0.6841	0.0274	0.2072	-0.102
Mof_C 	C 	0.6858	0.9743	0.3112	-0.1
Mof_C 	C 	0.6149	0.0298	0.207	0.008
Mof_H 	H 	0.5914	0.0492	0.1713	-0.005
Mof_C 	C 	0.616	0.9737	0.3133	0.007
Mof_H 	H 	0.5932	0.9541	0.3494	-0
Mof_C 	C 	0.5812	0.0024	0.2615	-0.093
Mof_H 	H 	0.5343	0.0036	0.2629	0.023
Mof_Eu	Eu	0.24701	0.15309	0.49325	1.748
Mof_O 	O 	0.1472	0.206	0.4508	-0.537
Mof_O 	O 	0.3423	0.2092	0.5413	-0.534
Mof_O 	O 	0.086	0.2943	0.4174	-0.501
Mof_O 	O 	0.3935	0.2969	0.5892	-0.501
Mof_N 	N 	0.2419	0.2805	0.4995	-0.199
Mof_C 	C 	0.1357	0.2687	0.4451	0.397
Mof_C 	C 	0.348	0.2717	0.5544	0.393
Mof_C 	C 	0.2928	0.3159	0.5274	-0.103
Mof_C 	C 	0.1888	0.3142	0.4743	-0.101
Mof_C 	C 	0.293	0.3851	0.5298	0.008
Mof_H 	H 	0.3287	0.4086	0.5492	-0.005
Mof_C 	C 	0.1867	0.384	0.4737	0.009
Mof_H 	H 	0.1506	0.4068	0.4541	-0.001
Mof_C 	C 	0.2385	0.4188	0.5024	-0.095
Mof_H 	H 	0.2371	0.4657	0.5036	0.024
Mof_Eu	Eu	0.75299	0.65309	0.00675	1.744
Mof_O 	O 	0.8528	0.706	0.0492	-0.537
Mof_O 	O 	0.6577	0.7092	0.9587	-0.532
Mof_O 	O 	0.914	0.7943	0.0826	-0.502
Mof_O 	O 	0.6065	0.7969	0.9108	-0.5
Mof_N 	N 	0.7581	0.7805	0.0005	-0.202
Mof_C 	C 	0.8643	0.7687	0.0549	0.395
Mof_C 	C 	0.652	0.7717	0.9456	0.391
Mof_C 	C 	0.7072	0.8159	0.9726	-0.098
Mof_C 	C 	0.8112	0.8142	0.0257	-0.098
Mof_C 	C 	0.707	0.8851	0.9702	0.002
Mof_H 	H 	0.6713	0.9086	0.9508	-0.002
Mof_C 	C 	0.8133	0.884	0.0263	-0.001
Mof_H 	H 	0.8494	0.9068	0.0459	0.002
Mof_C 	C 	0.7615	0.9188	0.9976	-0.084
Mof_H 	H 	0.7629	0.9657	0.9964	0.022
Mof_Eu	Eu	0.74701	0.34691	0.50675	1.747
Mof_O 	O 	0.6472	0.294	0.5492	-0.537
Mof_O 	O 	0.8423	0.2908	0.4587	-0.534
Mof_O 	O 	0.586	0.2057	0.5826	-0.502
Mof_O 	O 	0.8935	0.2031	0.4108	-0.501
Mof_N 	N 	0.7419	0.2195	0.5005	-0.199
Mof_C 	C 	0.6357	0.2313	0.5549	0.397
Mof_C 	C 	0.848	0.2283	0.4456	0.393
Mof_C 	C 	0.7928	0.1841	0.4726	-0.103
Mof_C 	C 	0.6888	0.1858	0.5257	-0.101
Mof_C 	C 	0.793	0.1149	0.4702	0.008
Mof_H 	H 	0.8287	0.0914	0.4508	-0.005
Mof_C 	C 	0.6867	0.116	0.5263	0.009
Mof_H 	H 	0.6506	0.0932	0.5459	-0.001
Mof_C 	C 	0.7385	0.0812	0.4976	-0.095
Mof_H 	H 	0.7371	0.0343	0.4964	0.023
Mof_Eu	Eu	0.25299	0.84691	0.99325	1.748
Mof_O 	O 	0.3528	0.794	0.9508	-0.537
Mof_O 	O 	0.1577	0.7908	0.0413	-0.534
Mof_O 	O 	0.414	0.7057	0.9174	-0.502
Mof_O 	O 	0.1065	0.7031	0.0892	-0.501
Mof_N 	N 	0.2581	0.7195	0.9995	-0.2
Mof_C 	C 	0.3643	0.7313	0.9451	0.397
Mof_C 	C 	0.152	0.7283	0.0544	0.393
Mof_C 	C 	0.2072	0.6841	0.0274	-0.102
Mof_C 	C 	0.3112	0.6858	0.9743	-0.1
Mof_C 	C 	0.207	0.6149	0.0298	0.008
Mof_H 	H 	0.1713	0.5914	0.0492	-0.005
Mof_C 	C 	0.3133	0.616	0.9737	0.007
Mof_H 	H 	0.3494	0.5932	0.9541	-0
Mof_C 	C 	0.2615	0.5812	0.0024	-0.093
Mof_H 	H 	0.2629	0.5343	0.0036	0.023
Mof_Eu	Eu	0.50675	0.75299	0.84691	1.748
Mof_O 	O 	0.5492	0.8528	0.794	-0.537
Mof_O 	O 	0.4587	0.6577	0.7908	-0.534
Mof_O 	O 	0.5826	0.914	0.7057	-0.501
Mof_O 	O 	0.4108	0.6065	0.7031	-0.501
Mof_N 	N 	0.5005	0.7581	0.7195	-0.199
Mof_C 	C 	0.5549	0.8643	0.7313	0.397
Mof_C 	C 	0.4456	0.652	0.7283	0.393
Mof_C 	C 	0.4726	0.7072	0.6841	-0.103
Mof_C 	C 	0.5257	0.8112	0.6858	-0.101
Mof_C 	C 	0.4702	0.707	0.6149	0.008
Mof_H 	H 	0.4508	0.6713	0.5914	-0.005
Mof_C 	C 	0.5263	0.8133	0.616	0.009
Mof_H 	H 	0.5459	0.8494	0.5932	-0.001
Mof_C 	C 	0.4976	0.7615	0.5812	-0.095
Mof_H 	H 	0.4964	0.7629	0.5343	0.024
Mof_Eu	Eu	0.99325	0.24701	0.34691	1.744
Mof_O 	O 	0.9508	0.1472	0.294	-0.537
Mof_O 	O 	0.0413	0.3423	0.2908	-0.532
Mof_O 	O 	0.9174	0.086	0.2057	-0.502
Mof_O 	O 	0.0892	0.3935	0.2031	-0.5
Mof_N 	N 	0.9995	0.2419	0.2195	-0.202
Mof_C 	C 	0.9451	0.1357	0.2313	0.395
Mof_C 	C 	0.0544	0.348	0.2283	0.391
Mof_C 	C 	0.0274	0.2928	0.1841	-0.098
Mof_C 	C 	0.9743	0.1888	0.1858	-0.098
Mof_C 	C 	0.0298	0.293	0.1149	0.002
Mof_H 	H 	0.0492	0.3287	0.0914	-0.002
Mof_C 	C 	0.9737	0.1867	0.116	-0.001
Mof_H 	H 	0.9541	0.1506	0.0932	0.002
Mof_C 	C 	0.0024	0.2385	0.0812	-0.084
Mof_H 	H 	0.0036	0.2371	0.0343	0.022
Mof_Eu	Eu	0.49325	0.25299	0.65309	1.747
Mof_O 	O 	0.4508	0.3528	0.706	-0.537
Mof_O 	O 	0.5413	0.1577	0.7092	-0.534
Mof_O 	O 	0.4174	0.414	0.7943	-0.502
Mof_O 	O 	0.5892	0.1065	0.7969	-0.501
Mof_N 	N 	0.4995	0.2581	0.7805	-0.199
Mof_C 	C 	0.4451	0.3643	0.7687	0.397
Mof_C 	C 	0.5544	0.152	0.7717	0.393
Mof_C 	C 	0.5274	0.2072	0.8159	-0.103
Mof_C 	C 	0.4743	0.3112	0.8142	-0.101
Mof_C 	C 	0.5298	0.207	0.8851	0.008
Mof_H 	H 	0.5492	0.1713	0.9086	-0.005
Mof_C 	C 	0.4737	0.3133	0.884	0.009
Mof_H 	H 	0.4541	0.3494	0.9068	-0.001
Mof_C 	C 	0.5024	0.2615	0.9188	-0.095
Mof_H 	H 	0.5036	0.2629	0.9657	0.023
Mof_Eu	Eu	0.00675	0.74701	0.15309	1.748
Mof_O 	O 	0.0492	0.6472	0.206	-0.537
Mof_O 	O 	0.9587	0.8423	0.2092	-0.534
Mof_O 	O 	0.0826	0.586	0.2943	-0.502
Mof_O 	O 	0.9108	0.8935	0.2969	-0.501
Mof_N 	N 	0.0005	0.7419	0.2805	-0.2
Mof_C 	C 	0.0549	0.6357	0.2687	0.397
Mof_C 	C 	0.9456	0.848	0.2717	0.393
Mof_C 	C 	0.9726	0.7928	0.3159	-0.102
Mof_C 	C 	0.0257	0.6888	0.3142	-0.1
Mof_C 	C 	0.9702	0.793	0.3851	0.008
Mof_H 	H 	0.9508	0.8287	0.4086	-0.005
Mof_C 	C 	0.0263	0.6867	0.384	0.007
Mof_H 	H 	0.0459	0.6506	0.4068	-0
Mof_C 	C 	0.9976	0.7385	0.4188	-0.093
Mof_H 	H 	0.9964	0.7371	0.4657	0.023
Mof_Eu	Eu	0.84691	0.50675	0.75299	1.748
Mof_O 	O 	0.794	0.5492	0.8528	-0.537
Mof_O 	O 	0.7908	0.4587	0.6577	-0.534
Mof_O 	O 	0.7057	0.5826	0.914	-0.501
Mof_O 	O 	0.7031	0.4108	0.6065	-0.501
Mof_N 	N 	0.7195	0.5005	0.7581	-0.199
Mof_C 	C 	0.7313	0.5549	0.8643	0.397
Mof_C 	C 	0.7283	0.4456	0.652	0.393
Mof_C 	C 	0.6841	0.4726	0.7072	-0.103
Mof_C 	C 	0.6858	0.5257	0.8112	-0.101
Mof_C 	C 	0.6149	0.4702	0.707	0.008
Mof_H 	H 	0.5914	0.4508	0.6713	-0.005
Mof_C 	C 	0.616	0.5263	0.8133	0.009
Mof_H 	H 	0.5932	0.5459	0.8494	-0.001
Mof_C 	C 	0.5812	0.4976	0.7615	-0.095
Mof_H 	H 	0.5343	0.4964	0.7629	0.024
Mof_Eu	Eu	0.34691	0.99325	0.24701	1.744
Mof_O 	O 	0.294	0.9508	0.1472	-0.537
Mof_O 	O 	0.2908	0.0413	0.3423	-0.532
Mof_O 	O 	0.2057	0.9174	0.086	-0.502
Mof_O 	O 	0.2031	0.0892	0.3935	-0.5
Mof_N 	N 	0.2195	0.9995	0.2419	-0.202
Mof_C 	C 	0.2313	0.9451	0.1357	0.395
Mof_C 	C 	0.2283	0.0544	0.348	0.391
Mof_C 	C 	0.1841	0.0274	0.2928	-0.098
Mof_C 	C 	0.1858	0.9743	0.1888	-0.098
Mof_C 	C 	0.1149	0.0298	0.293	0.002
Mof_H 	H 	0.0914	0.0492	0.3287	-0.002
Mof_C 	C 	0.116	0.9737	0.1867	-0.001
Mof_H 	H 	0.0932	0.9541	0.1506	0.002
Mof_C 	C 	0.0812	0.0024	0.2385	-0.084
Mof_H 	H 	0.0343	0.0036	0.2371	0.022
Mof_Eu	Eu	0.65309	0.49325	0.25299	1.747
Mof_O 	O 	0.706	0.4508	0.3528	-0.537
Mof_O 	O 	0.7092	0.5413	0.1577	-0.534
Mof_O 	O 	0.7943	0.4174	0.414	-0.502
Mof_O 	O 	0.7969	0.5892	0.1065	-0.501
Mof_N 	N 	0.7805	0.4995	0.2581	-0.199
Mof_C 	C 	0.7687	0.4451	0.3643	0.397
Mof_C 	C 	0.7717	0.5544	0.152	0.393
Mof_C 	C 	0.8159	0.5274	0.2072	-0.103
Mof_C 	C 	0.8142	0.4743	0.3112	-0.101
Mof_C 	C 	0.8851	0.5298	0.207	0.008
Mof_H 	H 	0.9086	0.5492	0.1713	-0.005
Mof_C 	C 	0.884	0.4737	0.3133	0.009
Mof_H 	H 	0.9068	0.4541	0.3494	-0.001
Mof_C 	C 	0.9188	0.5024	0.2615	-0.095
Mof_H 	H 	0.9657	0.5036	0.2629	0.023
Mof_Eu	Eu	0.15309	0.00675	0.74701	1.748
Mof_O 	O 	0.206	0.0492	0.6472	-0.537
Mof_O 	O 	0.2092	0.9587	0.8423	-0.534
Mof_O 	O 	0.2943	0.0826	0.586	-0.502
Mof_O 	O 	0.2969	0.9108	0.8935	-0.501
Mof_N 	N 	0.2805	0.0005	0.7419	-0.2
Mof_C 	C 	0.2687	0.0549	0.6357	0.397
Mof_C 	C 	0.2717	0.9456	0.848	0.393
Mof_C 	C 	0.3159	0.9726	0.7928	-0.102
Mof_C 	C 	0.3142	0.0257	0.6888	-0.1
Mof_C 	C 	0.3851	0.9702	0.793	0.008
Mof_H 	H 	0.4086	0.9508	0.8287	-0.005
Mof_C 	C 	0.384	0.0263	0.6867	0.007
Mof_H 	H 	0.4068	0.0459	0.6506	-0
Mof_C 	C 	0.4188	0.9976	0.7385	-0.093
Mof_H 	H 	0.4657	0.9964	0.7371	0.023
Mof_Eu	Eu	0.75299	0.84691	0.50675	1.748
Mof_O 	O 	0.8528	0.794	0.5492	-0.537
Mof_O 	O 	0.6577	0.7908	0.4587	-0.534
Mof_O 	O 	0.914	0.7057	0.5826	-0.501
Mof_O 	O 	0.6065	0.7031	0.4108	-0.501
Mof_N 	N 	0.7581	0.7195	0.5005	-0.199
Mof_C 	C 	0.8643	0.7313	0.5549	0.397
Mof_C 	C 	0.652	0.7283	0.4456	0.393
Mof_C 	C 	0.7072	0.6841	0.4726	-0.103
Mof_C 	C 	0.8112	0.6858	0.5257	-0.101
Mof_C 	C 	0.707	0.6149	0.4702	0.008
Mof_H 	H 	0.6713	0.5914	0.4508	-0.005
Mof_C 	C 	0.8133	0.616	0.5263	0.009
Mof_H 	H 	0.8494	0.5932	0.5459	-0.001
Mof_C 	C 	0.7615	0.5812	0.4976	-0.095
Mof_H 	H 	0.7629	0.5343	0.4964	0.024
Mof_Eu	Eu	0.24701	0.34691	0.99325	1.744
Mof_O 	O 	0.1472	0.294	0.9508	-0.537
Mof_O 	O 	0.3423	0.2908	0.0413	-0.532
Mof_O 	O 	0.086	0.2057	0.9174	-0.502
Mof_O 	O 	0.3935	0.2031	0.0892	-0.5
Mof_N 	N 	0.2419	0.2195	0.9995	-0.202
Mof_C 	C 	0.1357	0.2313	0.9451	0.395
Mof_C 	C 	0.348	0.2283	0.0544	0.391
Mof_C 	C 	0.2928	0.1841	0.0274	-0.098
Mof_C 	C 	0.1888	0.1858	0.9743	-0.098
Mof_C 	C 	0.293	0.1149	0.0298	0.002
Mof_H 	H 	0.3287	0.0914	0.0492	-0.002
Mof_C 	C 	0.1867	0.116	0.9737	-0.001
Mof_H 	H 	0.1506	0.0932	0.9541	0.002
Mof_C 	C 	0.2385	0.0812	0.0024	-0.084
Mof_H 	H 	0.2371	0.0343	0.0036	0.022
Mof_Eu	Eu	0.25299	0.65309	0.49325	1.747
Mof_O 	O 	0.3528	0.706	0.4508	-0.537
Mof_O 	O 	0.1577	0.7092	0.5413	-0.534
Mof_O 	O 	0.414	0.7943	0.4174	-0.502
Mof_O 	O 	0.1065	0.7969	0.5892	-0.501
Mof_N 	N 	0.2581	0.7805	0.4995	-0.199
Mof_C 	C 	0.3643	0.7687	0.4451	0.397
Mof_C 	C 	0.152	0.7717	0.5544	0.393
Mof_C 	C 	0.2072	0.8159	0.5274	-0.103
Mof_C 	C 	0.3112	0.8142	0.4743	-0.101
Mof_C 	C 	0.207	0.8851	0.5298	0.008
Mof_H 	H 	0.1713	0.9086	0.5492	-0.005
Mof_C 	C 	0.3133	0.884	0.4737	0.009
Mof_H 	H 	0.3494	0.9068	0.4541	-0.001
Mof_C 	C 	0.2615	0.9188	0.5024	-0.095
Mof_H 	H 	0.2629	0.9657	0.5036	0.023
Mof_Eu	Eu	0.74701	0.15309	0.00675	1.748
Mof_O 	O 	0.6472	0.206	0.0492	-0.537
Mof_O 	O 	0.8423	0.2092	0.9587	-0.534
Mof_O 	O 	0.586	0.2943	0.0826	-0.502
Mof_O 	O 	0.8935	0.2969	0.9108	-0.501
Mof_N 	N 	0.7419	0.2805	0.0005	-0.2
Mof_C 	C 	0.6357	0.2687	0.0549	0.397
Mof_C 	C 	0.848	0.2717	0.9456	0.393
Mof_C 	C 	0.7928	0.3159	0.9726	-0.102
Mof_C 	C 	0.6888	0.3142	0.0257	-0.1
Mof_C 	C 	0.793	0.3851	0.9702	0.008
Mof_H 	H 	0.8287	0.4086	0.9508	-0.005
Mof_C 	C 	0.6867	0.384	0.0263	0.007
Mof_H 	H 	0.6506	0.4068	0.0459	-0
Mof_C 	C 	0.7385	0.4188	0.9976	-0.093
Mof_H 	H 	0.7371	0.4657	0.9964	0.023
_end
