data_functionalizedCrystal
_audit_creation_method	'EQeq! by Chris Wilmer'
_symmetry_space_group_name_H-M	'P1'
_symmetry_Int_Tables_number	1
_symmetry_cell_setting	triclinic
loop_
_symmetry_equiv_pos_as_xyz
  x,y,z
_cell_length_a	14.0495
_cell_length_b	14.0495
_cell_length_c	18.0525
_cell_angle_alpha	103.549
_cell_angle_beta	103.549
_cell_angle_gamma	113.449
loop_
_atom_site_label
_atom_site_type_symbol
_atom_site_fract_x
_atom_site_fract_y
_atom_site_fract_z
_atom_site_charge
Mof_Ni	Ni	0.60849	0.08909	0.97406	1.079
Mof_Ni	Ni	0.36557	0.88497	0.97406	1.081
Mof_Ni	Ni	0.83909	0.85849	0.47406	1.12
Mof_Ni	Ni	0.63497	0.61557	0.47406	1.12
Mof_H 	H 	0.529	0.979	0.066	0.572
Mof_H 	H 	0.8557	0.2293	0.0654	0.03
Mof_H 	H 	0.0108	0.224	0.1374	0.048
Mof_H 	H 	0.8133	0.8961	0.0884	0.106
Mof_H 	H 	0.6639	0.9149	0.0178	0.032
Mof_H 	H 	0.0095	0.9761	0.1648	0.046
Mof_H 	H 	0.0708	0.1934	0.2768	0.033
Mof_H 	H 	0.8895	0.0891	0.2966	0.068
Mof_H 	H 	0.7987	0.9797	0.3624	0.022
Mof_H 	H 	0.0546	0.9324	0.4428	0.021
Mof_H 	H 	0.1448	0.028	0.369	0.062
Mof_H 	H 	0.3741	0.6189	0.8216	0.029
Mof_H 	H 	0.347	0.479	0.7092	0.052
Mof_H 	H 	0.4479	0.5169	0.6252	0.036
Mof_H 	H 	0.5944	0.8476	0.7604	0.044
Mof_H 	H 	0.537	0.087	0.066	0.578
Mof_H 	H 	0.2097	0.8361	0.0654	0.011
Mof_H 	H 	0.1266	0.9134	0.1374	0.086
Mof_H 	H 	0.2751	0.1923	0.0884	0.1
Mof_H 	H 	0.3539	0.1029	0.0178	0.027
Mof_H 	H 	0.1553	0.1887	0.1648	0.051
Mof_H 	H 	0.206	0.0834	0.2768	0.053
Mof_H 	H 	0.4071	0.2075	0.2966	0.089
Mof_H 	H 	0.5637	0.3827	0.3624	0.009
Mof_H 	H 	0.3882	0.5104	0.4428	0.006
Mof_H 	H 	0.2242	0.341	0.369	0.082
Mof_H 	H 	0.4475	0.2027	0.8216	0.032
Mof_H 	H 	0.3622	0.2302	0.7092	0.052
Mof_H 	H 	0.1773	0.1083	0.6252	0.035
Mof_H 	H 	0.166	0.9128	0.7604	0.043
Mof_H 	H 	0.729	0.779	0.566	0.593
Mof_H 	H 	0.9793	0.1057	0.5654	0.005
Mof_H 	H 	0.974	0.2608	0.6374	0.085
Mof_H 	H 	0.6461	0.0633	0.5884	0.085
Mof_H 	H 	0.6649	0.9139	0.5178	0.005
Mof_H 	H 	0.7261	0.2595	0.6648	0.047
Mof_H 	H 	0.9434	0.3208	0.7768	0.054
Mof_H 	H 	0.8391	0.1395	0.7966	0.086
Mof_H 	H 	0.7297	0.0487	0.8624	-0.001
Mof_H 	H 	0.6824	0.3046	0.9428	-0.018
Mof_H 	H 	0.778	0.3948	0.869	0.078
Mof_H 	H 	0.3689	0.6241	0.3216	0.039
Mof_H 	H 	0.229	0.597	0.2092	0.055
Mof_H 	H 	0.2669	0.6979	0.1252	0.051
Mof_H 	H 	0.5976	0.8444	0.2604	0.051
Mof_H 	H 	0.837	0.787	0.566	0.593
Mof_H 	H 	0.5861	0.4597	0.5654	-0.003
Mof_H 	H 	0.6634	0.3766	0.6374	0.082
Mof_H 	H 	0.9423	0.5251	0.5884	0.095
Mof_H 	H 	0.8529	0.6039	0.5178	0.005
Mof_H 	H 	0.9387	0.4053	0.6648	0.059
Mof_H 	H 	0.8334	0.456	0.7768	0.039
Mof_H 	H 	0.9575	0.6571	0.7966	0.117
Mof_H 	H 	0.1327	0.8137	0.8624	-0.015
Mof_H 	H 	0.2604	0.6382	0.9428	-0.016
Mof_H 	H 	0.091	0.4742	0.869	0.063
Mof_H 	H 	0.9527	0.6975	0.3216	0.048
Mof_H 	H 	0.9802	0.6122	0.2092	0.068
Mof_H 	H 	0.8583	0.4273	0.1252	0.058
Mof_H 	H 	0.6628	0.416	0.2604	0.052
Mof_C 	C 	0.8472	0.1616	0.0706	0.071
Mof_C 	C 	0.9407	0.1595	0.1138	-0.09
Mof_C 	C 	0.9287	0.0589	0.1218	0.12
Mof_C 	C 	0.8241	0.9651	0.085	-0.149
Mof_C 	C 	0.735	0.978	0.0426	0.09
Mof_C 	C 	0.0281	0.0547	0.1738	-0.082
Mof_C 	C 	0.0753	0.1233	0.2672	-0.035
Mof_C 	C 	0.0253	0.0619	0.3204	0.027
Mof_C 	C 	0.922	0.0528	0.3226	-0.066
Mof_C 	C 	0.8693	0.9897	0.3636	0.04
Mof_C 	C 	0.0185	0.9597	0.4098	0.016
Mof_C 	C 	0.0739	0.0187	0.3662	-0.095
Mof_C 	C 	0.4812	0.7482	0.8002	-0.103
Mof_C 	C 	0.4116	0.637	0.786	0.018
Mof_C 	C 	0.3976	0.5532	0.7198	-0.087
Mof_C 	C 	0.4559	0.5753	0.6686	0.008
Mof_C 	C 	0.5291	0.6893	0.6832	-0.082
Mof_C 	C 	0.5433	0.7731	0.749	0.024
Mof_C 	C 	0.493	0.8416	0.8712	0.355
Mof_C 	C 	0.5947	0.7151	0.6268	0.314
Mof_C 	C 	0.2234	0.909	0.0706	0.098
Mof_C 	C 	0.1731	0.9543	0.1138	-0.166
Mof_C 	C 	0.1931	0.0629	0.1218	0.113
Mof_C 	C 	0.2609	0.1199	0.085	-0.152
Mof_C 	C 	0.3076	0.0646	0.0426	0.108
Mof_C 	C 	0.1457	0.1191	0.1738	-0.057
Mof_C 	C 	0.1919	0.1439	0.2672	-0.075
Mof_C 	C 	0.2951	0.2585	0.3204	0.102
Mof_C 	C 	0.4006	0.2698	0.3226	-0.148
Mof_C 	C 	0.4943	0.3739	0.3636	0.08
Mof_C 	C 	0.3913	0.4501	0.4098	0.093
Mof_C 	C 	0.2923	0.3475	0.3662	-0.161
Mof_C 	C 	0.319	0.052	0.8002	-0.095
Mof_C 	C 	0.3744	0.149	0.786	0.012
Mof_C 	C 	0.3222	0.1666	0.7198	-0.081
Mof_C 	C 	0.2127	0.0933	0.6686	0
Mof_C 	C 	0.1541	0.9939	0.6832	-0.069
Mof_C 	C 	0.2057	0.9759	0.749	0.008
Mof_C 	C 	0.3782	0.0296	0.8712	0.355
Mof_C 	C 	0.0321	0.9117	0.6268	0.242
Mof_C 	C 	0.9116	0.0972	0.5706	0.089
Mof_C 	C 	0.9095	0.1907	0.6138	-0.151
Mof_C 	C 	0.8089	0.1787	0.6218	0.093
Mof_C 	C 	0.7151	0.0741	0.585	-0.141
Mof_C 	C 	0.728	0.985	0.5426	0.08
Mof_C 	C 	0.8047	0.2781	0.6738	-0.054
Mof_C 	C 	0.8733	0.3253	0.7672	-0.076
Mof_C 	C 	0.8119	0.2753	0.8204	0.101
Mof_C 	C 	0.8028	0.172	0.8226	-0.154
Mof_C 	C 	0.7397	0.1193	0.8636	0.07
Mof_C 	C 	0.7097	0.2685	0.9098	0.086
Mof_C 	C 	0.7687	0.3239	0.8662	-0.169
Mof_C 	C 	0.4982	0.7312	0.3002	-0.087
Mof_C 	C 	0.387	0.6616	0.286	0.014
Mof_C 	C 	0.3032	0.6476	0.2198	-0.072
Mof_C 	C 	0.3253	0.7059	0.1686	0.004
Mof_C 	C 	0.4393	0.7791	0.1832	-0.066
Mof_C 	C 	0.5231	0.7933	0.249	0.021
Mof_C 	C 	0.5916	0.743	0.3712	0.357
Mof_C 	C 	0.4651	0.8447	0.1268	0.31
Mof_C 	C 	0.659	0.4734	0.5706	0.088
Mof_C 	C 	0.7043	0.4231	0.6138	-0.159
Mof_C 	C 	0.8129	0.4431	0.6218	0.105
Mof_C 	C 	0.8699	0.5109	0.585	-0.154
Mof_C 	C 	0.8146	0.5576	0.5426	0.091
Mof_C 	C 	0.8691	0.3957	0.6738	-0.073
Mof_C 	C 	0.8939	0.4419	0.7672	-0.036
Mof_C 	C 	0.0085	0.5451	0.8204	0.075
Mof_C 	C 	0.0198	0.6506	0.8226	-0.205
Mof_C 	C 	0.1239	0.7443	0.8636	0.088
Mof_C 	C 	0.2001	0.6413	0.9098	0.079
Mof_C 	C 	0.0975	0.5423	0.8662	-0.161
Mof_C 	C 	0.802	0.569	0.3002	-0.084
Mof_C 	C 	0.899	0.6244	0.286	0.016
Mof_C 	C 	0.9166	0.5722	0.2198	-0.068
Mof_C 	C 	0.8433	0.4627	0.1686	0.007
Mof_C 	C 	0.7439	0.4041	0.1832	-0.063
Mof_C 	C 	0.7259	0.4557	0.249	0.021
Mof_C 	C 	0.7796	0.6282	0.3712	0.356
Mof_C 	C 	0.6617	0.2821	0.1268	0.31
Mof_N 	N 	0.7443	0.0733	0.035	-0.195
Mof_N 	N 	0.918	0.9418	0.4054	-0.188
Mof_N 	N 	0.2907	0.9617	0.035	-0.212
Mof_N 	N 	0.4874	0.4636	0.4054	-0.219
Mof_N 	N 	0.8233	0.9943	0.535	-0.228
Mof_N 	N 	0.6918	0.168	0.9054	-0.233
Mof_N 	N 	0.7117	0.5407	0.535	-0.229
Mof_N 	N 	0.2136	0.7374	0.9054	-0.235
Mof_O 	O 	0.55286	0.94046	0.88052	-0.429
Mof_O 	O 	0.44193	0.80953	0.91806	-0.432
Mof_O 	O 	0.6694	0.8114	0.6446	-0.315
Mof_O 	O 	0.56459	0.63099	0.56138	-0.395
Mof_O 	O 	0.32766	0.94006	0.88052	-0.43
Mof_O 	O 	0.47613	0.10853	0.91806	-0.433
Mof_O 	O 	0.9752	0.8332	0.6446	-0.276
Mof_O 	O 	0.99679	0.93039	0.56138	-0.357
Mof_O 	O 	0.69046	0.80286	0.38052	-0.408
Mof_O 	O 	0.55953	0.69193	0.41806	-0.402
Mof_O 	O 	0.5614	0.9194	0.1446	-0.302
Mof_O 	O 	0.38099	0.81459	0.06138	-0.352
Mof_O 	O 	0.69006	0.57766	0.38052	-0.408
Mof_O 	O 	0.85853	0.72613	0.41806	-0.397
Mof_O 	O 	0.5832	0.2252	0.1446	-0.299
Mof_O 	O 	0.68039	0.24679	0.06138	-0.348
Mof_O 	O 	0.5233	0.0233	0.0466	-1.251
Mof_O 	O 	0.7733	0.7733	0.5466	-1.331
_end
