data_functionalizedCrystal
_audit_creation_method	'EQeq! by Chris Wilmer'
_symmetry_space_group_name_H-M	'P1'
_symmetry_Int_Tables_number	1
_symmetry_cell_setting	triclinic
loop_
_symmetry_equiv_pos_as_xyz
  x,y,z
_cell_length_a	10.825
_cell_length_b	11.1496
_cell_length_c	11.1496
_cell_angle_alpha	103.004
_cell_angle_beta	102.286
_cell_angle_gamma	77.714
loop_
_atom_site_label
_atom_site_type_symbol
_atom_site_fract_x
_atom_site_fract_y
_atom_site_fract_z
_atom_site_charge
Mof_Co	Co	0.44988	0.06087	0.8789	1.176
Mof_Co	Co	0.05012	0.87891	0.06088	1.173
Mof_Co	Co	0.75	0.09516	0.09516	1.192
Mof_Co	Co	0.55012	0.93912	0.1211	1.175
Mof_Co	Co	0.25	0.90484	0.90484	1.192
Mof_Co	Co	0.94988	0.1211	0.93913	1.172
Mof_H 	H 	0.4798	0.8322	0.9018	0.357
Mof_H 	H 	0.522	0.3147	0.8369	0.021
Mof_H 	H 	0.0202	0.9018	0.8322	0.357
Mof_H 	H 	0.478	0.6853	0.1631	0.021
Mof_H 	H 	0.4542	0.5157	0.8549	0.045
Mof_H 	H 	0.022	0.1631	0.6853	0.031
Mof_H 	H 	0.9798	0.0982	0.1678	0.357
Mof_H 	H 	0.5202	0.1678	0.0982	0.357
Mof_H 	H 	0.1343	0.4502	0.9594	0.055
Mof_H 	H 	0.5458	0.4843	0.1451	0.045
Mof_H 	H 	0.9542	0.1451	0.4843	0.042
Mof_H 	H 	0.978	0.8369	0.3147	0.031
Mof_H 	H 	0.6343	0.0406	0.5498	0.054
Mof_H 	H 	0.8657	0.5498	0.0406	0.055
Mof_H 	H 	0.0458	0.8549	0.5157	0.042
Mof_H 	H 	0.3657	0.9594	0.4502	0.054
Mof_C 	C 	0.7876	0.57446	0.06752	0.012
Mof_C 	C 	0.2205	0.91163	0.51037	-0.079
Mof_C 	C 	0.6044	0.53497	0.13003	-0.02
Mof_C 	C 	0.7293	0.06604	0.35026	0.359
Mof_C 	C 	0.2338	0.91482	0.29994	-0.07
Mof_C 	C 	0.7124	0.06752	0.57446	0.013
Mof_C 	C 	0.2707	0.93396	0.64974	0.359
Mof_C 	C 	0.1044	0.86997	0.46503	-0.014
Mof_C 	C 	0.7795	0.08837	0.48963	-0.079
Mof_C 	C 	0.9437	0.14361	0.66203	0.002
Mof_C 	C 	0.5563	0.66203	0.14361	0.017
Mof_C 	C 	0.2662	0.29994	0.91482	-0.068
Mof_C 	C 	0.0563	0.85639	0.33797	0.002
Mof_C 	C 	0.7707	0.35026	0.06604	0.366
Mof_C 	C 	0.2006	0.20144	0.9348	0.378
Mof_C 	C 	0.2994	0.9348	0.20144	0.379
Mof_C 	C 	0.7662	0.08518	0.70006	-0.07
Mof_C 	C 	0.2124	0.42554	0.93248	0.012
Mof_C 	C 	0.3956	0.46503	0.86997	-0.02
Mof_C 	C 	0.2293	0.64974	0.93396	0.366
Mof_C 	C 	0.2795	0.51037	0.91163	-0.077
Mof_C 	C 	0.7338	0.70006	0.08518	-0.068
Mof_C 	C 	0.4437	0.33797	0.85639	0.017
Mof_C 	C 	0.2876	0.93248	0.42554	0.013
Mof_C 	C 	0.8956	0.13003	0.53497	-0.014
Mof_C 	C 	0.7994	0.79856	0.0652	0.378
Mof_C 	C 	0.7006	0.0652	0.79856	0.379
Mof_C 	C 	0.7205	0.48963	0.08837	-0.077
Mof_N 	N 	0.88129	0.1208	0.74354	-0.188
Mof_N 	N 	0.61871	0.74354	0.1208	-0.189
Mof_N 	N 	0.38129	0.25646	0.8792	-0.189
Mof_N 	N 	0.11871	0.8792	0.25646	-0.188
Mof_O 	O 	0.15064	0.69015	0.00795	-0.404
Mof_O 	O 	0.84936	0.30985	0.99205	-0.404
Mof_O 	O 	0.26758	0.09377	0.93025	-0.551
Mof_O 	O 	0.65064	0.99205	0.30985	-0.396
Mof_O 	O 	0.94815	0.06183	0.10349	-0.853
Mof_O 	O 	0.27303	0.71205	0.87869	-0.43
Mof_O 	O 	0.76758	0.06975	0.90623	-0.556
Mof_O 	O 	0.44815	0.89651	0.93817	-0.855
Mof_O 	O 	0.08789	0.23081	0.95187	-0.422
Mof_O 	O 	0.77303	0.12131	0.28795	-0.429
Mof_O 	O 	0.91211	0.76919	0.04813	-0.422
Mof_O 	O 	0.73242	0.90623	0.06975	-0.551
Mof_O 	O 	0.34936	0.00795	0.69015	-0.396
Mof_O 	O 	0.22697	0.87869	0.71205	-0.429
Mof_O 	O 	0.05185	0.93817	0.89651	-0.853
Mof_O 	O 	0.72697	0.28795	0.12131	-0.43
Mof_O 	O 	0.23242	0.93025	0.09377	-0.556
Mof_O 	O 	0.55185	0.10349	0.06183	-0.855
Mof_O 	O 	0.41211	0.95187	0.23081	-0.427
Mof_O 	O 	0.58789	0.04813	0.76919	-0.427
_end
