data_functionalizedCrystal
_audit_creation_method	'EQeq! by Chris Wilmer'
_symmetry_space_group_name_H-M	'P1'
_symmetry_Int_Tables_number	1
_symmetry_cell_setting	triclinic
loop_
_symmetry_equiv_pos_as_xyz
  x,y,z
_cell_length_a	31.963
_cell_length_b	31.963
_cell_length_c	16.7135
_cell_angle_alpha	90
_cell_angle_beta	90
_cell_angle_gamma	120
loop_
_atom_site_label
_atom_site_type_symbol
_atom_site_fract_x
_atom_site_fract_y
_atom_site_fract_z
_atom_site_charge
Mof_O 	O 	0.25	0.6603	0.4127	-0.431
Mof_C 	C 	0.144	0.5343	0.2381	-0.187
Mof_H 	H 	0.1323	0.5032	0.2184	0.089
Mof_C 	C 	0.1784	0.5512	0.2956	0.088
Mof_H 	H 	0.1901	0.5318	0.3154	0.008
Mof_O 	O 	0.3397	0.5897	0.4127	-0.43
Mof_C 	C 	0.4657	0.6097	0.2381	-0.185
Mof_H 	H 	0.4968	0.6291	0.2184	0.09
Mof_C 	C 	0.4488	0.6272	0.2956	0.088
Mof_H 	H 	0.4682	0.6583	0.3154	0.009
Mof_O 	O 	0.4103	0.75	0.4127	-0.43
Mof_C 	C 	0.3903	0.856	0.2381	-0.185
Mof_H 	H 	0.3709	0.8677	0.2184	0.09
Mof_C 	C 	0.3728	0.8216	0.2956	0.089
Mof_H 	H 	0.3417	0.8099	0.3154	0.009
Mof_O 	O 	0.75	0.3397	0.4127	-0.43
Mof_C 	C 	0.856	0.4657	0.2381	-0.185
Mof_H 	H 	0.8677	0.4968	0.2184	0.091
Mof_C 	C 	0.8216	0.4488	0.2956	0.089
Mof_H 	H 	0.8099	0.4682	0.3154	0.009
Mof_O 	O 	0.6603	0.4103	0.4127	-0.43
Mof_C 	C 	0.5343	0.3903	0.2381	-0.185
Mof_H 	H 	0.5032	0.3709	0.2184	0.09
Mof_C 	C 	0.5512	0.3728	0.2956	0.088
Mof_H 	H 	0.5318	0.3417	0.3154	0.009
Mof_O 	O 	0.5897	0.25	0.4127	-0.43
Mof_C 	C 	0.6097	0.144	0.2381	-0.186
Mof_H 	H 	0.6291	0.1323	0.2184	0.09
Mof_C 	C 	0.6272	0.1784	0.2956	0.089
Mof_H 	H 	0.6583	0.1901	0.3154	0.009
Mof_O 	O 	0.6603	0.25	0.5873	-0.429
Mof_C 	C 	0.5343	0.144	0.7619	-0.184
Mof_H 	H 	0.5032	0.1323	0.7816	0.093
Mof_C 	C 	0.5512	0.1784	0.7044	0.089
Mof_H 	H 	0.5318	0.1901	0.6846	0.01
Mof_O 	O 	0.5897	0.3397	0.5873	-0.429
Mof_C 	C 	0.6097	0.4657	0.7619	-0.183
Mof_H 	H 	0.6291	0.4968	0.7816	0.094
Mof_C 	C 	0.6272	0.4488	0.7044	0.089
Mof_H 	H 	0.6583	0.4682	0.6846	0.011
Mof_O 	O 	0.75	0.4103	0.5873	-0.429
Mof_C 	C 	0.856	0.3903	0.7619	-0.183
Mof_H 	H 	0.8677	0.3709	0.7816	0.094
Mof_C 	C 	0.8216	0.3728	0.7044	0.089
Mof_H 	H 	0.8099	0.3417	0.6846	0.011
Mof_O 	O 	0.3397	0.75	0.5873	-0.429
Mof_C 	C 	0.4657	0.856	0.7619	-0.183
Mof_H 	H 	0.4968	0.8677	0.7816	0.094
Mof_C 	C 	0.4488	0.8216	0.7044	0.089
Mof_H 	H 	0.4682	0.8099	0.6846	0.011
Mof_O 	O 	0.4103	0.6603	0.5873	-0.429
Mof_C 	C 	0.3903	0.5343	0.7619	-0.183
Mof_H 	H 	0.3709	0.5032	0.7816	0.093
Mof_C 	C 	0.3728	0.5512	0.7044	0.089
Mof_H 	H 	0.3417	0.5318	0.6846	0.01
Mof_O 	O 	0.25	0.5897	0.5873	-0.429
Mof_C 	C 	0.144	0.6097	0.7619	-0.184
Mof_H 	H 	0.1323	0.6291	0.7816	0.093
Mof_C 	C 	0.1784	0.6272	0.7044	0.089
Mof_H 	H 	0.1901	0.6583	0.6846	0.01
Mof_O 	O 	0.75	0.3397	0.5873	-0.429
Mof_C 	C 	0.856	0.4657	0.7619	-0.183
Mof_H 	H 	0.8677	0.4968	0.7816	0.094
Mof_C 	C 	0.8216	0.4488	0.7044	0.089
Mof_H 	H 	0.8099	0.4682	0.6846	0.011
Mof_O 	O 	0.6603	0.4103	0.5873	-0.429
Mof_C 	C 	0.5343	0.3903	0.7619	-0.183
Mof_H 	H 	0.5032	0.3709	0.7816	0.093
Mof_C 	C 	0.5512	0.3728	0.7044	0.089
Mof_H 	H 	0.5318	0.3417	0.6846	0.01
Mof_O 	O 	0.5897	0.25	0.5873	-0.429
Mof_C 	C 	0.6097	0.144	0.7619	-0.184
Mof_H 	H 	0.6291	0.1323	0.7816	0.093
Mof_C 	C 	0.6272	0.1784	0.7044	0.089
Mof_H 	H 	0.6583	0.1901	0.6846	0.01
Mof_O 	O 	0.25	0.6603	0.5873	-0.429
Mof_C 	C 	0.144	0.5343	0.7619	-0.184
Mof_H 	H 	0.1323	0.5032	0.7816	0.093
Mof_C 	C 	0.1784	0.5512	0.7044	0.089
Mof_H 	H 	0.1901	0.5318	0.6846	0.01
Mof_O 	O 	0.3397	0.5897	0.5873	-0.429
Mof_C 	C 	0.4657	0.6097	0.7619	-0.183
Mof_H 	H 	0.4968	0.6291	0.7816	0.094
Mof_C 	C 	0.4488	0.6272	0.7044	0.089
Mof_H 	H 	0.4682	0.6583	0.6846	0.011
Mof_O 	O 	0.4103	0.75	0.5873	-0.429
Mof_C 	C 	0.3903	0.856	0.7619	-0.183
Mof_H 	H 	0.3709	0.8677	0.7816	0.094
Mof_C 	C 	0.3728	0.8216	0.7044	0.089
Mof_H 	H 	0.3417	0.8099	0.6846	0.011
Mof_O 	O 	0.3397	0.75	0.4127	-0.43
Mof_C 	C 	0.4657	0.856	0.2381	-0.185
Mof_H 	H 	0.4968	0.8677	0.2184	0.091
Mof_C 	C 	0.4488	0.8216	0.2956	0.089
Mof_H 	H 	0.4682	0.8099	0.3154	0.009
Mof_O 	O 	0.4103	0.6603	0.4127	-0.43
Mof_C 	C 	0.3903	0.5343	0.2381	-0.185
Mof_H 	H 	0.3709	0.5032	0.2184	0.09
Mof_C 	C 	0.3728	0.5512	0.2956	0.088
Mof_H 	H 	0.3417	0.5318	0.3154	0.009
Mof_O 	O 	0.25	0.5897	0.4127	-0.43
Mof_C 	C 	0.144	0.6097	0.2381	-0.186
Mof_H 	H 	0.1323	0.6291	0.2184	0.09
Mof_C 	C 	0.1784	0.6272	0.2956	0.089
Mof_H 	H 	0.1901	0.6583	0.3154	0.009
Mof_O 	O 	0.6603	0.25	0.4127	-0.43
Mof_C 	C 	0.5343	0.144	0.2381	-0.186
Mof_H 	H 	0.5032	0.1323	0.2184	0.09
Mof_C 	C 	0.5512	0.1784	0.2956	0.088
Mof_H 	H 	0.5318	0.1901	0.3154	0.008
Mof_O 	O 	0.5897	0.3397	0.4127	-0.43
Mof_C 	C 	0.6097	0.4657	0.2381	-0.185
Mof_H 	H 	0.6291	0.4968	0.2184	0.09
Mof_C 	C 	0.6272	0.4488	0.2956	0.088
Mof_H 	H 	0.6583	0.4682	0.3154	0.009
Mof_O 	O 	0.75	0.4103	0.4127	-0.43
Mof_C 	C 	0.856	0.3903	0.2381	-0.185
Mof_H 	H 	0.8677	0.3709	0.2184	0.09
Mof_C 	C 	0.8216	0.3728	0.2956	0.089
Mof_H 	H 	0.8099	0.3417	0.3154	0.009
Mof_Ni	Ni	0.2972	0.7028	0.5	1.119
Mof_Ni	Ni	0.2972	0.5944	0.5	1.119
Mof_Ni	Ni	0.4056	0.7028	0.5	1.119
Mof_Ni	Ni	0.7028	0.2972	0.5	1.119
Mof_Ni	Ni	0.7028	0.4056	0.5	1.119
Mof_Ni	Ni	0.5944	0.2972	0.5	1.119
Mof_C 	C 	0.1026	0.5513	0.0667	0.12
Mof_C 	C 	0.039	0.5195	0.1673	0.111
Mof_C 	C 	0.0875	0.54375	0.1442	-0.172
Mof_C 	C 	0.0247	0.51235	0.2464	-0.105
Mof_H 	H 	0.0447	0.52235	0.291	0.068
Mof_C 	C 	0.1497	0.57485	0.0423	-0.138
Mof_H 	H 	0.1768	0.5884	0.0753	0.077
Mof_C 	C 	0.1254	0.5627	0.2075	0.141
Mof_C 	C 	0.1964	0.5982	0.325	-0.143
Mof_C 	C 	0.2371	0.61855	0.3899	0.402
Mof_C 	C 	0.4487	0.5513	0.0667	0.12
Mof_C 	C 	0.4805	0.5195	0.1673	0.108
Mof_C 	C 	0.45625	0.54375	0.1442	-0.171
Mof_C 	C 	0.48765	0.51235	0.2464	-0.095
Mof_H 	H 	0.47765	0.52235	0.291	0.065
Mof_C 	C 	0.42515	0.57485	0.0423	-0.138
Mof_H 	H 	0.4116	0.5884	0.0753	0.077
Mof_C 	C 	0.4373	0.5627	0.2075	0.14
Mof_C 	C 	0.4018	0.5982	0.325	-0.143
Mof_C 	C 	0.38145	0.61855	0.3899	0.402
Mof_C 	C 	0.4487	0.8974	0.0667	0.12
Mof_C 	C 	0.4805	0.961	0.1673	0.11
Mof_C 	C 	0.45625	0.9125	0.1442	-0.17
Mof_C 	C 	0.48765	0.9753	0.2464	-0.085
Mof_H 	H 	0.47765	0.9553	0.291	0.063
Mof_C 	C 	0.42515	0.8503	0.0423	-0.137
Mof_H 	H 	0.4116	0.8232	0.0753	0.077
Mof_C 	C 	0.4373	0.8746	0.2075	0.14
Mof_C 	C 	0.4018	0.8036	0.325	-0.143
Mof_C 	C 	0.38145	0.7629	0.3899	0.402
Mof_C 	C 	0.8974	0.4487	0.0667	0.12
Mof_C 	C 	0.961	0.4805	0.1673	0.11
Mof_C 	C 	0.9125	0.45625	0.1442	-0.17
Mof_C 	C 	0.9753	0.48765	0.2464	-0.085
Mof_H 	H 	0.9553	0.47765	0.291	0.063
Mof_C 	C 	0.8503	0.42515	0.0423	-0.137
Mof_H 	H 	0.8232	0.4116	0.0753	0.077
Mof_C 	C 	0.8746	0.4373	0.2075	0.14
Mof_C 	C 	0.8036	0.4018	0.325	-0.143
Mof_C 	C 	0.7629	0.38145	0.3899	0.402
Mof_C 	C 	0.5513	0.4487	0.0667	0.12
Mof_C 	C 	0.5195	0.4805	0.1673	0.108
Mof_C 	C 	0.54375	0.45625	0.1442	-0.171
Mof_C 	C 	0.51235	0.48765	0.2464	-0.095
Mof_H 	H 	0.52235	0.47765	0.291	0.065
Mof_C 	C 	0.57485	0.42515	0.0423	-0.138
Mof_H 	H 	0.5884	0.4116	0.0753	0.077
Mof_C 	C 	0.5627	0.4373	0.2075	0.14
Mof_C 	C 	0.5982	0.4018	0.325	-0.143
Mof_C 	C 	0.61855	0.38145	0.3899	0.402
Mof_C 	C 	0.5513	0.1026	0.0667	0.12
Mof_C 	C 	0.5195	0.039	0.1673	0.111
Mof_C 	C 	0.54375	0.0875	0.1442	-0.172
Mof_C 	C 	0.51235	0.0247	0.2464	-0.105
Mof_H 	H 	0.52235	0.0447	0.291	0.068
Mof_C 	C 	0.57485	0.1497	0.0423	-0.138
Mof_H 	H 	0.5884	0.1768	0.0753	0.077
Mof_C 	C 	0.5627	0.1254	0.2075	0.141
Mof_C 	C 	0.5982	0.1964	0.325	-0.143
Mof_C 	C 	0.61855	0.2371	0.3899	0.402
Mof_C 	C 	0.5513	0.1026	0.9333	0.117
Mof_C 	C 	0.5195	0.039	0.8327	0.113
Mof_C 	C 	0.54375	0.0875	0.8558	-0.164
Mof_C 	C 	0.51235	0.0247	0.7536	-0.103
Mof_H 	H 	0.52235	0.0447	0.709	0.068
Mof_C 	C 	0.57485	0.1497	0.9577	-0.058
Mof_H 	H 	0.5884	0.1768	0.9247	0.059
Mof_C 	C 	0.5627	0.1254	0.7925	0.14
Mof_C 	C 	0.5982	0.1964	0.675	-0.141
Mof_C 	C 	0.61855	0.2371	0.6101	0.403
Mof_C 	C 	0.5513	0.4487	0.9333	0.116
Mof_C 	C 	0.5195	0.4805	0.8327	0.11
Mof_C 	C 	0.54375	0.45625	0.8558	-0.163
Mof_C 	C 	0.51235	0.48765	0.7536	-0.094
Mof_H 	H 	0.52235	0.47765	0.709	0.066
Mof_C 	C 	0.57485	0.42515	0.9577	-0.057
Mof_H 	H 	0.5884	0.4116	0.9247	0.059
Mof_C 	C 	0.5627	0.4373	0.7925	0.139
Mof_C 	C 	0.5982	0.4018	0.675	-0.141
Mof_C 	C 	0.61855	0.38145	0.6101	0.403
Mof_C 	C 	0.8974	0.4487	0.9333	0.117
Mof_C 	C 	0.961	0.4805	0.8327	0.112
Mof_C 	C 	0.9125	0.45625	0.8558	-0.162
Mof_C 	C 	0.9753	0.48765	0.7536	-0.085
Mof_H 	H 	0.9553	0.47765	0.709	0.064
Mof_C 	C 	0.8503	0.42515	0.9577	-0.058
Mof_H 	H 	0.8232	0.4116	0.9247	0.059
Mof_C 	C 	0.8746	0.4373	0.7925	0.139
Mof_C 	C 	0.8036	0.4018	0.675	-0.141
Mof_C 	C 	0.7629	0.38145	0.6101	0.403
Mof_C 	C 	0.4487	0.8974	0.9333	0.117
Mof_C 	C 	0.4805	0.961	0.8327	0.112
Mof_C 	C 	0.45625	0.9125	0.8558	-0.162
Mof_C 	C 	0.48765	0.9753	0.7536	-0.085
Mof_H 	H 	0.47765	0.9553	0.709	0.064
Mof_C 	C 	0.42515	0.8503	0.9577	-0.058
Mof_H 	H 	0.4116	0.8232	0.9247	0.059
Mof_C 	C 	0.4373	0.8746	0.7925	0.139
Mof_C 	C 	0.4018	0.8036	0.675	-0.141
Mof_C 	C 	0.38145	0.7629	0.6101	0.403
Mof_C 	C 	0.4487	0.5513	0.9333	0.116
Mof_C 	C 	0.4805	0.5195	0.8327	0.11
Mof_C 	C 	0.45625	0.54375	0.8558	-0.163
Mof_C 	C 	0.48765	0.51235	0.7536	-0.094
Mof_H 	H 	0.47765	0.52235	0.709	0.066
Mof_C 	C 	0.42515	0.57485	0.9577	-0.057
Mof_H 	H 	0.4116	0.5884	0.9247	0.059
Mof_C 	C 	0.4373	0.5627	0.7925	0.139
Mof_C 	C 	0.4018	0.5982	0.675	-0.141
Mof_C 	C 	0.38145	0.61855	0.6101	0.403
Mof_C 	C 	0.1026	0.5513	0.9333	0.117
Mof_C 	C 	0.039	0.5195	0.8327	0.113
Mof_C 	C 	0.0875	0.54375	0.8558	-0.164
Mof_C 	C 	0.0247	0.51235	0.7536	-0.103
Mof_H 	H 	0.0447	0.52235	0.709	0.068
Mof_C 	C 	0.1497	0.57485	0.9577	-0.058
Mof_H 	H 	0.1768	0.5884	0.9247	0.059
Mof_C 	C 	0.1254	0.5627	0.7925	0.14
Mof_C 	C 	0.1964	0.5982	0.675	-0.141
Mof_C 	C 	0.2371	0.61855	0.6101	0.403
Mof_N 	N 	0.0716	0.5358	-0	-0.299
Mof_N 	N 	0.4642	0.5358	-0	-0.298
Mof_N 	N 	0.4642	0.9284	-0	-0.297
Mof_N 	N 	0.9284	0.4642	-0	-0.297
Mof_N 	N 	0.5358	0.4642	-0	-0.298
Mof_N 	N 	0.5358	0.0716	-0	-0.299
Mof_Co	Co	-3.07523e-17	0.5	-0	1.101
Mof_Co	Co	0.5	0.5	-0	1.102
Mof_Co	Co	0.5	0	-0	1.101
Mof_O 	O 	0.33333	0.66667	0.5	-0.564
Mof_O 	O 	0.66667	0.33333	0.5	-0.564
Mof_N 	N 	-3.81485e-17	0.5	0.1155	-0.302
Mof_N 	N 	0.5	0.5	0.1155	-0.299
Mof_N 	N 	0.5	-8.53547e-34	0.1155	-0.302
Mof_N 	N 	0.5	-6.82837e-33	0.8845	-0.293
Mof_N 	N 	0.5	0.5	0.8845	-0.29
Mof_N 	N 	-2.58884e-17	0.5	0.8845	-0.293
_end
