data_functionalizedCrystal
_audit_creation_method	'EQeq! by Chris Wilmer'
_symmetry_space_group_name_H-M	'P1'
_symmetry_Int_Tables_number	1
_symmetry_cell_setting	triclinic
loop_
_symmetry_equiv_pos_as_xyz
  x,y,z
_cell_length_a	15.2302
_cell_length_b	15.2302
_cell_length_c	22.6334
_cell_angle_alpha	90
_cell_angle_beta	90
_cell_angle_gamma	90
loop_
_atom_site_label
_atom_site_type_symbol
_atom_site_fract_x
_atom_site_fract_y
_atom_site_fract_z
_atom_site_charge
Mof_O 	O 	0.59106	0.21881	0.29529	-0.326
Mof_O 	O 	0.53202	0.39424	0.34396	-0.312
Mof_N 	N 	0.66932	0.23422	0.27425	-0.031
Mof_N 	N 	0.52691	0.44463	0.29771	-0.033
Mof_C 	C 	0.70854	0.17233	0.24034	0
Mof_H 	H 	0.68	0.1178	0.2336	0.05
Mof_C 	C 	0.78932	0.18805	0.21558	0.003
Mof_H 	H 	0.8163	0.1448	0.1914	0.055
Mof_C 	C 	0.5262	0.4117	0.24238	-0.001
Mof_H 	H 	0.5259	0.3499	0.2366	0.05
Mof_C 	C 	0.5259	0.46676	0.19448	0.001
Mof_H 	H 	0.5249	0.443	0.1557	0.05
Mof_O 	O 	0.09106	0.71881	0.79529	-0.336
Mof_O 	O 	0.03202	0.89424	0.84396	-0.316
Mof_N 	N 	0.16932	0.73422	0.77425	-0.034
Mof_N 	N 	0.02691	0.94463	0.79771	-0.042
Mof_C 	C 	0.20854	0.67233	0.74034	-0.003
Mof_H 	H 	0.18	0.6178	0.7336	0.027
Mof_C 	C 	0.28932	0.68805	0.71558	-0.007
Mof_H 	H 	0.3163	0.6448	0.6914	0.052
Mof_C 	C 	0.0262	0.9117	0.74238	-0.019
Mof_H 	H 	0.0259	0.8499	0.7366	0.025
Mof_C 	C 	0.0259	0.96676	0.69448	-0.018
Mof_H 	H 	0.0249	0.943	0.6557	0.03
Mof_O 	O 	0.90894	0.78119	0.79529	-0.225
Mof_O 	O 	0.96798	0.60576	0.84396	-0.22
Mof_N 	N 	0.83068	0.76578	0.77425	-0.038
Mof_N 	N 	0.97309	0.55537	0.79771	-0.032
Mof_C 	C 	0.79146	0.82767	0.74034	0.011
Mof_H 	H 	0.82	0.8822	0.7336	0.071
Mof_C 	C 	0.71068	0.81195	0.71558	-0.003
Mof_H 	H 	0.6837	0.8552	0.6914	0.057
Mof_C 	C 	0.9738	0.5883	0.74238	0.018
Mof_H 	H 	0.9741	0.6501	0.7366	0.082
Mof_C 	C 	0.9741	0.53324	0.69448	0.022
Mof_H 	H 	0.9751	0.557	0.6557	0.07
Mof_O 	O 	0.40894	0.28119	0.29529	-0.326
Mof_O 	O 	0.46798	0.10576	0.34396	-0.312
Mof_N 	N 	0.33068	0.26578	0.27425	-0.031
Mof_N 	N 	0.47309	0.05537	0.29771	-0.033
Mof_C 	C 	0.29146	0.32767	0.24034	0.002
Mof_H 	H 	0.32	0.3822	0.2336	0.049
Mof_C 	C 	0.21068	0.31195	0.21558	-0.008
Mof_H 	H 	0.1837	0.3552	0.1914	0.058
Mof_C 	C 	0.4738	0.0883	0.24238	-0.002
Mof_H 	H 	0.4741	0.1501	0.2366	0.05
Mof_C 	C 	0.4741	0.03324	0.19448	-0.001
Mof_H 	H 	0.4751	0.057	0.1557	0.049
Mof_O 	O 	0.03119	0.34106	0.54529	-0.336
Mof_O 	O 	0.85576	0.28202	0.59396	-0.248
Mof_N 	N 	0.01578	0.41932	0.52425	-0.131
Mof_N 	N 	0.80537	0.27691	0.54771	-0.036
Mof_C 	C 	0.07767	0.45854	0.49034	0.052
Mof_H 	H 	0.1322	0.43	0.4836	0.027
Mof_C 	C 	0.06195	0.53932	0.46558	-0.174
Mof_H 	H 	0.1052	0.5663	0.4414	0.1
Mof_C 	C 	0.8383	0.2762	0.49238	-0.002
Mof_H 	H 	0.9001	0.2759	0.4866	0.084
Mof_C 	C 	0.78324	0.2759	0.44448	0.007
Mof_H 	H 	0.807	0.2749	0.4057	0.06
Mof_O 	O 	0.53119	0.84106	0.04529	-0.326
Mof_O 	O 	0.35576	0.78202	0.09396	-0.313
Mof_N 	N 	0.51578	0.91932	0.02425	-0.031
Mof_N 	N 	0.30537	0.77691	0.04771	-0.032
Mof_C 	C 	0.57767	0.95854	0.99034	0.002
Mof_H 	H 	0.6322	0.93	0.9836	0.051
Mof_C 	C 	0.56195	0.03932	0.96558	-0.005
Mof_H 	H 	0.6052	0.0663	0.9414	0.056
Mof_C 	C 	0.3383	0.7762	0.99238	-0.003
Mof_H 	H 	0.4001	0.7759	0.9866	0.051
Mof_C 	C 	0.28324	0.7759	0.94448	0
Mof_H 	H 	0.307	0.7749	0.9057	0.049
Mof_O 	O 	0.46881	0.65894	0.04529	-0.326
Mof_O 	O 	0.64424	0.71798	0.09396	-0.31
Mof_N 	N 	0.48422	0.58068	0.02425	-0.031
Mof_N 	N 	0.69463	0.72309	0.04771	-0.033
Mof_C 	C 	0.42233	0.54146	0.99034	0.001
Mof_H 	H 	0.3678	0.57	0.9836	0.048
Mof_C 	C 	0.43805	0.46068	0.96558	-0.005
Mof_H 	H 	0.3948	0.4337	0.9414	0.052
Mof_C 	C 	0.6617	0.7238	0.99238	-0.002
Mof_H 	H 	0.5999	0.7241	0.9866	0.05
Mof_C 	C 	0.71676	0.7241	0.94448	0.004
Mof_H 	H 	0.693	0.7251	0.9057	0.05
Mof_O 	O 	0.96881	0.15894	0.54529	-0.223
Mof_O 	O 	0.14424	0.21798	0.59396	-0.289
Mof_N 	N 	0.98422	0.08068	0.52425	0.059
Mof_N 	N 	0.19463	0.22309	0.54771	-0.039
Mof_C 	C 	0.92233	0.04146	0.49034	-0.045
Mof_H 	H 	0.8678	0.07	0.4836	0.072
Mof_C 	C 	0.93805	0.96068	0.46558	0.166
Mof_H 	H 	0.8948	0.9337	0.4414	0.014
Mof_C 	C 	0.1617	0.2238	0.49238	0.002
Mof_H 	H 	0.0999	0.2241	0.4866	0.023
Mof_C 	C 	0.21676	0.2241	0.44448	-0.007
Mof_H 	H 	0.193	0.2251	0.4057	0.04
Mof_O 	O 	0.90894	0.21881	0.70471	-0.225
Mof_O 	O 	0.96798	0.39424	0.65604	-0.22
Mof_N 	N 	0.83068	0.23422	0.72575	-0.038
Mof_N 	N 	0.97309	0.44463	0.70229	-0.032
Mof_C 	C 	0.79146	0.17233	0.75966	0.011
Mof_H 	H 	0.82	0.1178	0.7664	0.071
Mof_C 	C 	0.71068	0.18805	0.78442	-0.003
Mof_H 	H 	0.6837	0.1448	0.8086	0.057
Mof_C 	C 	0.9738	0.4117	0.75762	0.018
Mof_H 	H 	0.9741	0.3499	0.7634	0.082
Mof_C 	C 	0.9741	0.46676	0.80552	0.022
Mof_H 	H 	0.9751	0.443	0.8443	0.07
Mof_O 	O 	0.40894	0.71881	0.20471	-0.326
Mof_O 	O 	0.46798	0.89424	0.15604	-0.312
Mof_N 	N 	0.33068	0.73422	0.22575	-0.031
Mof_N 	N 	0.47309	0.94463	0.20229	-0.033
Mof_C 	C 	0.29146	0.67233	0.25966	0.002
Mof_H 	H 	0.32	0.6178	0.2664	0.049
Mof_C 	C 	0.21068	0.68805	0.28442	-0.008
Mof_H 	H 	0.1837	0.6448	0.3086	0.058
Mof_C 	C 	0.4738	0.9117	0.25762	-0.002
Mof_H 	H 	0.4741	0.8499	0.2634	0.05
Mof_C 	C 	0.4741	0.96676	0.30552	-0.001
Mof_H 	H 	0.4751	0.943	0.3443	0.049
Mof_O 	O 	0.59106	0.78119	0.20471	-0.325
Mof_O 	O 	0.53202	0.60576	0.15604	-0.311
Mof_N 	N 	0.66932	0.76578	0.22575	-0.03
Mof_N 	N 	0.52691	0.55537	0.20229	-0.033
Mof_C 	C 	0.70854	0.82767	0.25966	0
Mof_H 	H 	0.68	0.8822	0.2664	0.05
Mof_C 	C 	0.78932	0.81195	0.28442	0.003
Mof_H 	H 	0.8163	0.8552	0.3086	0.055
Mof_C 	C 	0.5262	0.5883	0.25762	-0.001
Mof_H 	H 	0.5259	0.6501	0.2634	0.05
Mof_C 	C 	0.5259	0.53324	0.30552	0.001
Mof_H 	H 	0.5249	0.557	0.3443	0.05
Mof_O 	O 	0.09106	0.28119	0.70471	-0.335
Mof_O 	O 	0.03202	0.10576	0.65604	-0.316
Mof_N 	N 	0.16932	0.26578	0.72575	-0.034
Mof_N 	N 	0.02691	0.05537	0.70229	-0.042
Mof_C 	C 	0.20854	0.32767	0.75966	-0.003
Mof_H 	H 	0.18	0.3822	0.7664	0.027
Mof_C 	C 	0.28932	0.31195	0.78442	-0.007
Mof_H 	H 	0.3163	0.3552	0.8086	0.052
Mof_C 	C 	0.0262	0.0883	0.75762	-0.019
Mof_H 	H 	0.0259	0.1501	0.7634	0.026
Mof_C 	C 	0.0259	0.03324	0.80552	-0.018
Mof_H 	H 	0.0249	0.057	0.8443	0.03
Mof_O 	O 	0.46881	0.34106	0.45471	-0.326
Mof_O 	O 	0.64424	0.28202	0.40604	-0.31
Mof_N 	N 	0.48422	0.41932	0.47575	-0.031
Mof_N 	N 	0.69463	0.27691	0.45229	-0.033
Mof_C 	C 	0.42233	0.45854	0.50966	0.001
Mof_H 	H 	0.3678	0.43	0.5164	0.048
Mof_C 	C 	0.43805	0.53932	0.53442	-0.005
Mof_H 	H 	0.3948	0.5663	0.5586	0.052
Mof_C 	C 	0.6617	0.2762	0.50762	-0.001
Mof_H 	H 	0.5999	0.2759	0.5134	0.05
Mof_C 	C 	0.71676	0.2759	0.55552	0.004
Mof_H 	H 	0.693	0.2749	0.5943	0.05
Mof_O 	O 	0.96881	0.84106	0.95471	-0.224
Mof_O 	O 	0.14424	0.78202	0.90604	-0.289
Mof_N 	N 	0.98422	0.91932	0.97575	0.058
Mof_N 	N 	0.19463	0.77691	0.95229	-0.039
Mof_C 	C 	0.92233	0.95854	0.00966	-0.045
Mof_H 	H 	0.8678	0.93	0.0164	0.072
Mof_C 	C 	0.93805	0.03932	0.03442	0.164
Mof_H 	H 	0.8948	0.0663	0.0586	0.015
Mof_C 	C 	0.1617	0.7762	0.00762	0.002
Mof_H 	H 	0.0999	0.7759	0.0134	0.023
Mof_C 	C 	0.21676	0.7759	0.05552	-0.007
Mof_H 	H 	0.193	0.7749	0.0943	0.04
Mof_O 	O 	0.03119	0.65894	0.95471	-0.336
Mof_O 	O 	0.85576	0.71798	0.90604	-0.249
Mof_N 	N 	0.01578	0.58068	0.97575	-0.13
Mof_N 	N 	0.80537	0.72309	0.95229	-0.036
Mof_C 	C 	0.07767	0.54146	0.00966	0.052
Mof_H 	H 	0.1322	0.57	0.0164	0.027
Mof_C 	C 	0.06195	0.46068	0.03442	-0.172
Mof_H 	H 	0.1052	0.4337	0.0586	0.099
Mof_C 	C 	0.8383	0.7238	0.00762	-0.002
Mof_H 	H 	0.9001	0.7241	0.0134	0.084
Mof_C 	C 	0.78324	0.7241	0.05552	0.007
Mof_H 	H 	0.807	0.7251	0.0943	0.06
Mof_O 	O 	0.53119	0.15894	0.45471	-0.325
Mof_O 	O 	0.35576	0.21798	0.40604	-0.313
Mof_N 	N 	0.51578	0.08068	0.47575	-0.031
Mof_N 	N 	0.30537	0.22309	0.45229	-0.032
Mof_C 	C 	0.57767	0.04146	0.50966	0.002
Mof_H 	H 	0.6322	0.07	0.5164	0.051
Mof_C 	C 	0.56195	0.96068	0.53442	-0.005
Mof_H 	H 	0.6052	0.9337	0.5586	0.056
Mof_C 	C 	0.3383	0.2238	0.50762	-0.003
Mof_H 	H 	0.4001	0.2241	0.5134	0.051
Mof_C 	C 	0.28324	0.2241	0.55552	0
Mof_H 	H 	0.307	0.2251	0.5943	0.049
Mof_O 	O 	0.40894	0.78119	0.70471	-0.326
Mof_O 	O 	0.46798	0.60576	0.65604	-0.312
Mof_N 	N 	0.33068	0.76578	0.72575	-0.031
Mof_N 	N 	0.47309	0.55537	0.70229	-0.033
Mof_C 	C 	0.29146	0.82767	0.75966	0.002
Mof_H 	H 	0.32	0.8822	0.7664	0.049
Mof_C 	C 	0.21068	0.81195	0.78442	-0.008
Mof_H 	H 	0.1837	0.8552	0.8086	0.058
Mof_C 	C 	0.4738	0.5883	0.75762	-0.002
Mof_H 	H 	0.4741	0.6501	0.7634	0.05
Mof_C 	C 	0.4741	0.53324	0.80552	-0.001
Mof_H 	H 	0.4751	0.557	0.8443	0.049
Mof_O 	O 	0.90894	0.28119	0.20471	-0.225
Mof_O 	O 	0.96798	0.10576	0.15604	-0.221
Mof_N 	N 	0.83068	0.26578	0.22575	-0.038
Mof_N 	N 	0.97309	0.05537	0.20229	-0.032
Mof_C 	C 	0.79146	0.32767	0.25966	0.011
Mof_H 	H 	0.82	0.3822	0.2664	0.072
Mof_C 	C 	0.71068	0.31195	0.28442	-0.003
Mof_H 	H 	0.6837	0.3552	0.3086	0.057
Mof_C 	C 	0.9738	0.0883	0.25762	0.018
Mof_H 	H 	0.9741	0.1501	0.2634	0.082
Mof_C 	C 	0.9741	0.03324	0.30552	0.021
Mof_H 	H 	0.9751	0.057	0.3443	0.07
Mof_O 	O 	0.09106	0.21881	0.20471	-0.335
Mof_O 	O 	0.03202	0.39424	0.15604	-0.317
Mof_N 	N 	0.16932	0.23422	0.22575	-0.034
Mof_N 	N 	0.02691	0.44463	0.20229	-0.042
Mof_C 	C 	0.20854	0.17233	0.25966	-0.003
Mof_H 	H 	0.18	0.1178	0.2664	0.028
Mof_C 	C 	0.28932	0.18805	0.28442	-0.007
Mof_H 	H 	0.3163	0.1448	0.3086	0.052
Mof_C 	C 	0.0262	0.4117	0.25762	-0.019
Mof_H 	H 	0.0259	0.3499	0.2634	0.025
Mof_C 	C 	0.0259	0.46676	0.30552	-0.018
Mof_H 	H 	0.0249	0.443	0.3443	0.03
Mof_O 	O 	0.59106	0.71881	0.70471	-0.325
Mof_O 	O 	0.53202	0.89424	0.65604	-0.311
Mof_N 	N 	0.66932	0.73422	0.72575	-0.03
Mof_N 	N 	0.52691	0.94463	0.70229	-0.033
Mof_C 	C 	0.70854	0.67233	0.75966	0
Mof_H 	H 	0.68	0.6178	0.7664	0.05
Mof_C 	C 	0.78932	0.68805	0.78442	0.003
Mof_H 	H 	0.8163	0.6448	0.8086	0.055
Mof_C 	C 	0.5262	0.9117	0.75762	-0.001
Mof_H 	H 	0.5259	0.8499	0.7634	0.05
Mof_C 	C 	0.5259	0.96676	0.80552	0.001
Mof_H 	H 	0.5249	0.943	0.8443	0.05
Mof_O 	O 	0.96881	0.65894	0.45471	-0.223
Mof_O 	O 	0.14424	0.71798	0.40604	-0.289
Mof_N 	N 	0.98422	0.58068	0.47575	0.06
Mof_N 	N 	0.19463	0.72309	0.45229	-0.039
Mof_C 	C 	0.92233	0.54146	0.50966	-0.046
Mof_H 	H 	0.8678	0.57	0.5164	0.072
Mof_C 	C 	0.93805	0.46068	0.53442	0.168
Mof_H 	H 	0.8948	0.4337	0.5586	0.014
Mof_C 	C 	0.1617	0.7238	0.50762	0.002
Mof_H 	H 	0.0999	0.7241	0.5134	0.023
Mof_C 	C 	0.21676	0.7241	0.55552	-0.007
Mof_H 	H 	0.193	0.7251	0.5943	0.04
Mof_O 	O 	0.46881	0.15894	0.95471	-0.326
Mof_O 	O 	0.64424	0.21798	0.90604	-0.31
Mof_N 	N 	0.48422	0.08068	0.97575	-0.031
Mof_N 	N 	0.69463	0.22309	0.95229	-0.033
Mof_C 	C 	0.42233	0.04146	0.00966	0.001
Mof_H 	H 	0.3678	0.07	0.0164	0.048
Mof_C 	C 	0.43805	0.96068	0.03442	-0.005
Mof_H 	H 	0.3948	0.9337	0.0586	0.053
Mof_C 	C 	0.6617	0.2238	0.00762	-0.002
Mof_H 	H 	0.5999	0.2241	0.0134	0.05
Mof_C 	C 	0.71676	0.2241	0.05552	0.004
Mof_H 	H 	0.693	0.2251	0.0943	0.05
Mof_O 	O 	0.53119	0.34106	0.95471	-0.326
Mof_O 	O 	0.35576	0.28202	0.90604	-0.313
Mof_N 	N 	0.51578	0.41932	0.97575	-0.031
Mof_N 	N 	0.30537	0.27691	0.95229	-0.033
Mof_C 	C 	0.57767	0.45854	0.00966	0.002
Mof_H 	H 	0.6322	0.43	0.0164	0.051
Mof_C 	C 	0.56195	0.53932	0.03442	-0.005
Mof_H 	H 	0.6052	0.5663	0.0586	0.056
Mof_C 	C 	0.3383	0.2762	0.00762	-0.003
Mof_H 	H 	0.4001	0.2759	0.0134	0.051
Mof_C 	C 	0.28324	0.2759	0.05552	0
Mof_H 	H 	0.307	0.2749	0.0943	0.049
Mof_O 	O 	0.03119	0.84106	0.45471	-0.336
Mof_O 	O 	0.85576	0.78202	0.40604	-0.248
Mof_N 	N 	0.01578	0.91932	0.47575	-0.129
Mof_N 	N 	0.80537	0.77691	0.45229	-0.036
Mof_C 	C 	0.07767	0.95854	0.50966	0.052
Mof_H 	H 	0.1322	0.93	0.5164	0.027
Mof_C 	C 	0.06195	0.03932	0.53442	-0.171
Mof_H 	H 	0.1052	0.0663	0.5586	0.099
Mof_C 	C 	0.8383	0.7762	0.50762	-0.002
Mof_H 	H 	0.9001	0.7759	0.5134	0.084
Mof_C 	C 	0.78324	0.7759	0.55552	0.007
Mof_H 	H 	0.807	0.7749	0.5943	0.06
Mof_O 	O 	0.09106	0.78119	0.29529	-0.335
Mof_O 	O 	0.03202	0.60576	0.34396	-0.317
Mof_N 	N 	0.16932	0.76578	0.27425	-0.034
Mof_N 	N 	0.02691	0.55537	0.29771	-0.042
Mof_C 	C 	0.20854	0.82767	0.24034	-0.003
Mof_H 	H 	0.18	0.8822	0.2336	0.028
Mof_C 	C 	0.28932	0.81195	0.21558	-0.007
Mof_H 	H 	0.3163	0.8552	0.1914	0.052
Mof_C 	C 	0.0262	0.5883	0.24238	-0.019
Mof_H 	H 	0.0259	0.6501	0.2366	0.026
Mof_C 	C 	0.0259	0.53324	0.19448	-0.018
Mof_H 	H 	0.0249	0.557	0.1557	0.03
Mof_O 	O 	0.59106	0.28119	0.79529	-0.325
Mof_O 	O 	0.53202	0.10576	0.84396	-0.311
Mof_N 	N 	0.66932	0.26578	0.77425	-0.03
Mof_N 	N 	0.52691	0.05537	0.79771	-0.033
Mof_C 	C 	0.70854	0.32767	0.74034	0
Mof_H 	H 	0.68	0.3822	0.7336	0.05
Mof_C 	C 	0.78932	0.31195	0.71558	0.003
Mof_H 	H 	0.8163	0.3552	0.6914	0.055
Mof_C 	C 	0.5262	0.0883	0.74238	-0.001
Mof_H 	H 	0.5259	0.1501	0.7366	0.05
Mof_C 	C 	0.5259	0.03324	0.69448	0.001
Mof_H 	H 	0.5249	0.057	0.6557	0.05
Mof_O 	O 	0.40894	0.21881	0.79529	-0.326
Mof_O 	O 	0.46798	0.39424	0.84396	-0.312
Mof_N 	N 	0.33068	0.23422	0.77425	-0.031
Mof_N 	N 	0.47309	0.44463	0.79771	-0.033
Mof_C 	C 	0.29146	0.17233	0.74034	0.002
Mof_H 	H 	0.32	0.1178	0.7336	0.049
Mof_C 	C 	0.21068	0.18805	0.71558	-0.008
Mof_H 	H 	0.1837	0.1448	0.6914	0.058
Mof_C 	C 	0.4738	0.4117	0.74238	-0.002
Mof_H 	H 	0.4741	0.3499	0.7366	0.05
Mof_C 	C 	0.4741	0.46676	0.69448	-0.001
Mof_H 	H 	0.4751	0.443	0.6557	0.049
Mof_O 	O 	0.90894	0.71881	0.29529	-0.224
Mof_O 	O 	0.96798	0.89424	0.34396	-0.22
Mof_N 	N 	0.83068	0.73422	0.27425	-0.038
Mof_N 	N 	0.97309	0.94463	0.29771	-0.032
Mof_C 	C 	0.79146	0.67233	0.24034	0.011
Mof_H 	H 	0.82	0.6178	0.2336	0.072
Mof_C 	C 	0.71068	0.68805	0.21558	-0.003
Mof_H 	H 	0.6837	0.6448	0.1914	0.057
Mof_C 	C 	0.9738	0.9117	0.24238	0.018
Mof_H 	H 	0.9741	0.8499	0.2366	0.082
Mof_C 	C 	0.9741	0.96676	0.19448	0.02
Mof_H 	H 	0.9751	0.943	0.1557	0.07
Mof_O 	O 	0.53119	0.65894	0.54529	-0.325
Mof_O 	O 	0.35576	0.71798	0.59396	-0.313
Mof_N 	N 	0.51578	0.58068	0.52425	-0.031
Mof_N 	N 	0.30537	0.72309	0.54771	-0.032
Mof_C 	C 	0.57767	0.54146	0.49034	0.002
Mof_H 	H 	0.6322	0.57	0.4836	0.051
Mof_C 	C 	0.56195	0.46068	0.46558	-0.005
Mof_H 	H 	0.6052	0.4337	0.4414	0.056
Mof_C 	C 	0.3383	0.7238	0.49238	-0.003
Mof_H 	H 	0.4001	0.7241	0.4866	0.051
Mof_C 	C 	0.28324	0.7241	0.44448	0
Mof_H 	H 	0.307	0.7251	0.4057	0.049
Mof_O 	O 	0.03119	0.15894	0.04529	-0.336
Mof_O 	O 	0.85576	0.21798	0.09396	-0.249
Mof_N 	N 	0.01578	0.08068	0.02425	-0.128
Mof_N 	N 	0.80537	0.22309	0.04771	-0.036
Mof_C 	C 	0.07767	0.04146	0.99034	0.051
Mof_H 	H 	0.1322	0.07	0.9836	0.027
Mof_C 	C 	0.06195	0.96068	0.96558	-0.17
Mof_H 	H 	0.1052	0.9337	0.9414	0.099
Mof_C 	C 	0.8383	0.2238	0.99238	-0.002
Mof_H 	H 	0.9001	0.2241	0.9866	0.084
Mof_C 	C 	0.78324	0.2241	0.94448	0.007
Mof_H 	H 	0.807	0.2251	0.9057	0.06
Mof_O 	O 	0.96881	0.34106	0.04529	-0.224
Mof_O 	O 	0.14424	0.28202	0.09396	-0.289
Mof_N 	N 	0.98422	0.41932	0.02425	0.059
Mof_N 	N 	0.19463	0.27691	0.04771	-0.039
Mof_C 	C 	0.92233	0.45854	0.99034	-0.046
Mof_H 	H 	0.8678	0.43	0.9836	0.072
Mof_C 	C 	0.93805	0.53932	0.96558	0.166
Mof_H 	H 	0.8948	0.5663	0.9414	0.014
Mof_C 	C 	0.1617	0.2762	0.99238	0.002
Mof_H 	H 	0.0999	0.2759	0.9866	0.023
Mof_C 	C 	0.21676	0.2759	0.94448	-0.007
Mof_H 	H 	0.193	0.2749	0.9057	0.04
Mof_O 	O 	0.46881	0.84106	0.54529	-0.326
Mof_O 	O 	0.64424	0.78202	0.59396	-0.31
Mof_N 	N 	0.48422	0.91932	0.52425	-0.031
Mof_N 	N 	0.69463	0.77691	0.54771	-0.033
Mof_C 	C 	0.42233	0.95854	0.49034	0.001
Mof_H 	H 	0.3678	0.93	0.4836	0.048
Mof_C 	C 	0.43805	0.03932	0.46558	-0.005
Mof_H 	H 	0.3948	0.0663	0.4414	0.052
Mof_C 	C 	0.6617	0.7762	0.49238	-0.001
Mof_H 	H 	0.5999	0.7759	0.4866	0.05
Mof_C 	C 	0.71676	0.7759	0.44448	0.004
Mof_H 	H 	0.693	0.7749	0.4057	0.05
Mof_Ho	Ho	0.5	0.25	0.375	2.012
Mof_Ho	Ho	-2.39742e-32	0.75	0.875	1.637
Mof_Ho	Ho	-6.13409e-33	0.25	0.625	1.635
Mof_Ho	Ho	0.5	0.75	0.125	2.012
Mof_Ho	Ho	0.5	0.75	0.625	2.012
Mof_Ho	Ho	6.96492e-34	0.25	0.125	1.638
Mof_Ho	Ho	-2.7188e-33	0.75	0.375	1.635
Mof_Ho	Ho	0.5	0.25	0.875	2.012
_end
