data_functionalizedCrystal
_audit_creation_method	'EQeq! by Chris Wilmer'
_symmetry_space_group_name_H-M	'P1'
_symmetry_Int_Tables_number	1
_symmetry_cell_setting	triclinic
loop_
_symmetry_equiv_pos_as_xyz
  x,y,z
_cell_length_a	13.3422
_cell_length_b	13.3422
_cell_length_c	17.8687
_cell_angle_alpha	90
_cell_angle_beta	90
_cell_angle_gamma	120
loop_
_atom_site_label
_atom_site_type_symbol
_atom_site_fract_x
_atom_site_fract_y
_atom_site_fract_z
_atom_site_charge
Mof_Ga	Ga	0.85958	0.56737	0.46033	4.037
Mof_P 	P 	0.97456	0.81342	0.37109	1.336
Mof_H 	H 	0.0367	0.8061	0.3472	-0.494
Mof_P 	P 	0.87253	0.36784	0.55354	1.034
Mof_H 	H 	0.8297	0.3238	0.5978	-0.286
Mof_O 	O 	0.9255	0.8598	0.3111	-0.584
Mof_O 	O 	0.0285	0.8934	0.4387	-0.872
Mof_O 	O 	0.8303	0.4519	0.5361	-0.988
Mof_O 	O 	0.7198	0.5674	0.4917	-1.067
Mof_O 	O 	0.0005	0.5726	0.4264	-1.148
Mof_O 	O 	0.7749	0.4506	0.3826	-0.886
Mof_O 	O 	0.8811	0.6921	0.3923	-0.976
Mof_Ga	Ga	0.43263	0.29221	0.46033	3.623
Mof_P 	P 	0.18658	0.16114	0.37109	0.895
Mof_H 	H 	0.1939	0.2306	0.3472	-0.287
Mof_P 	P 	0.63216	0.50469	0.55354	1.072
Mof_H 	H 	0.6762	0.5059	0.5978	-0.303
Mof_O 	O 	0.1402	0.0657	0.3111	-0.774
Mof_O 	O 	0.1066	0.1351	0.4387	-0.859
Mof_O 	O 	0.5481	0.3784	0.5361	-0.964
Mof_O 	O 	0.4326	0.1524	0.4917	-1.05
Mof_O 	O 	0.4274	0.4279	0.4264	-0.957
Mof_O 	O 	0.5494	0.3243	0.3826	-0.873
Mof_O 	O 	0.3079	0.189	0.3923	-0.923
Mof_Ga	Ga	0.70779	0.14042	0.46033	3.236
Mof_P 	P 	0.83886	0.02544	0.37109	0.446
Mof_H 	H 	0.7694	0.9633	0.3472	-0.022
Mof_P 	P 	0.49531	0.12747	0.55354	1.058
Mof_H 	H 	0.4941	0.1703	0.5978	-0.312
Mof_O 	O 	0.9343	0.0745	0.3111	-0.524
Mof_O 	O 	0.8649	0.9715	0.4387	-0.515
Mof_O 	O 	0.6216	0.1697	0.5361	-0.932
Mof_O 	O 	0.8476	0.2802	0.4917	-0.906
Mof_O 	O 	0.5721	0.9995	0.4264	-0.776
Mof_O 	O 	0.6757	0.2251	0.3826	-0.83
Mof_O 	O 	0.811	0.1189	0.3923	-0.786
Mof_Ga	Ga	0.56737	0.85958	0.03967	3.878
Mof_P 	P 	0.81342	0.97456	0.12891	1.283
Mof_H 	H 	0.8061	0.0367	0.1528	-0.471
Mof_P 	P 	0.36784	0.87253	0.94646	1.085
Mof_H 	H 	0.3238	0.8297	0.9022	-0.29
Mof_O 	O 	0.8598	0.9255	0.1889	-0.576
Mof_O 	O 	0.8934	0.0285	0.0613	-0.818
Mof_O 	O 	0.4519	0.8303	0.9639	-0.932
Mof_O 	O 	0.5674	0.7198	0.0083	-1.091
Mof_O 	O 	0.5726	0.0005	0.0736	-1.123
Mof_O 	O 	0.4506	0.7749	0.1174	-0.867
Mof_O 	O 	0.6921	0.8811	0.1077	-0.951
Mof_Ga	Ga	0.29221	0.43263	0.03967	3.487
Mof_P 	P 	0.16114	0.18658	0.12891	0.874
Mof_H 	H 	0.2306	0.1939	0.1528	-0.281
Mof_P 	P 	0.50469	0.63216	0.94646	1.116
Mof_H 	H 	0.5059	0.6762	0.9022	-0.307
Mof_O 	O 	0.0657	0.1402	0.1889	-0.773
Mof_O 	O 	0.1351	0.1066	0.0613	-0.828
Mof_O 	O 	0.3784	0.5481	0.9639	-0.912
Mof_O 	O 	0.1524	0.4326	0.0083	-1.083
Mof_O 	O 	0.4279	0.4274	0.0736	-0.943
Mof_O 	O 	0.3243	0.5494	0.1174	-0.855
Mof_O 	O 	0.189	0.3079	0.1077	-0.905
Mof_Ga	Ga	0.14042	0.70779	0.03967	3.057
Mof_P 	P 	0.02544	0.83886	0.12891	0.391
Mof_H 	H 	0.9633	0.7694	0.1528	0.001
Mof_P 	P 	0.12747	0.49531	0.94646	1.104
Mof_H 	H 	0.1703	0.4941	0.9022	-0.316
Mof_O 	O 	0.0745	0.9343	0.1889	-0.526
Mof_O 	O 	0.9715	0.8649	0.0613	-0.472
Mof_O 	O 	0.1697	0.6216	0.9639	-0.866
Mof_O 	O 	0.2802	0.8476	0.0083	-0.937
Mof_O 	O 	0.9995	0.5721	0.0736	-0.747
Mof_O 	O 	0.2251	0.6757	0.1174	-0.81
Mof_O 	O 	0.1189	0.811	0.1077	-0.761
Mof_Ga	Ga	0.14042	0.43263	0.53967	3.214
Mof_P 	P 	0.02544	0.18658	0.62891	0.406
Mof_H 	H 	0.9633	0.1939	0.6528	-0.016
Mof_P 	P 	0.12747	0.63216	0.44646	1.074
Mof_H 	H 	0.1703	0.6762	0.4022	-0.314
Mof_O 	O 	0.0745	0.1402	0.6889	-0.682
Mof_O 	O 	0.9715	0.1066	0.5613	-0.594
Mof_O 	O 	0.1697	0.5481	0.4639	-0.933
Mof_O 	O 	0.2802	0.4326	0.5083	-0.947
Mof_O 	O 	0.9995	0.4274	0.5736	-0.77
Mof_O 	O 	0.2251	0.5494	0.6174	-0.837
Mof_O 	O 	0.1189	0.3079	0.6077	-0.808
Mof_Ga	Ga	0.56737	0.70779	0.53967	3.641
Mof_P 	P 	0.81342	0.83886	0.62891	0.886
Mof_H 	H 	0.8061	0.7694	0.6528	-0.248
Mof_P 	P 	0.36784	0.49531	0.44646	1.036
Mof_H 	H 	0.3238	0.4941	0.4022	-0.297
Mof_O 	O 	0.8598	0.9343	0.6889	-0.502
Mof_O 	O 	0.8934	0.8649	0.5613	-0.649
Mof_O 	O 	0.4519	0.6216	0.4639	-0.958
Mof_O 	O 	0.5674	0.8476	0.5083	-0.968
Mof_O 	O 	0.5726	0.5721	0.5736	-0.962
Mof_O 	O 	0.4506	0.6757	0.6174	-0.853
Mof_O 	O 	0.6921	0.811	0.6077	-0.868
Mof_Ga	Ga	0.29221	0.85958	0.53967	4.059
Mof_P 	P 	0.16114	0.97456	0.62891	1.412
Mof_H 	H 	0.2306	0.0367	0.6528	-0.552
Mof_P 	P 	0.50469	0.87253	0.44646	1.055
Mof_H 	H 	0.5059	0.8297	0.4022	-0.29
Mof_O 	O 	0.0657	0.9255	0.6889	-0.718
Mof_O 	O 	0.1351	0.0285	0.5613	-1.013
Mof_O 	O 	0.3784	0.8303	0.4639	-0.995
Mof_O 	O 	0.1524	0.7198	0.5083	-1.111
Mof_O 	O 	0.4279	0.0005	0.5736	-1.155
Mof_O 	O 	0.3243	0.7749	0.6174	-0.897
Mof_O 	O 	0.189	0.8811	0.6077	-1.011
Mof_Ga	Ga	0.43263	0.14042	0.96033	3.289
Mof_P 	P 	0.18658	0.02544	0.87109	0.354
Mof_H 	H 	0.1939	0.9633	0.8472	0.016
Mof_P 	P 	0.63216	0.12747	0.05354	1.035
Mof_H 	H 	0.6762	0.1703	0.0978	-0.305
Mof_O 	O 	0.1402	0.0745	0.8111	-0.671
Mof_O 	O 	0.1066	0.9715	0.9387	-0.488
Mof_O 	O 	0.5481	0.1697	0.0361	-0.964
Mof_O 	O 	0.4326	0.2802	0.9917	-0.908
Mof_O 	O 	0.4274	0.9995	0.9264	-0.762
Mof_O 	O 	0.5494	0.2251	0.8826	-0.848
Mof_O 	O 	0.3079	0.1189	0.8923	-0.806
Mof_Ga	Ga	0.70779	0.56737	0.96033	3.744
Mof_P 	P 	0.83886	0.81342	0.87109	0.875
Mof_H 	H 	0.7694	0.8061	0.8472	-0.24
Mof_P 	P 	0.49531	0.36784	0.05354	0.989
Mof_H 	H 	0.4941	0.3238	0.0978	-0.288
Mof_O 	O 	0.9343	0.8598	0.8111	-0.501
Mof_O 	O 	0.8649	0.8934	0.9387	-0.575
Mof_O 	O 	0.6216	0.4519	0.0361	-0.994
Mof_O 	O 	0.8476	0.5674	0.9917	-0.943
Mof_O 	O 	0.5721	0.5726	0.9264	-0.968
Mof_O 	O 	0.6757	0.4506	0.8826	-0.866
Mof_O 	O 	0.811	0.6921	0.8923	-0.877
Mof_Ga	Ga	0.85958	0.29221	0.96033	4.093
Mof_P 	P 	0.97456	0.16114	0.87109	1.341
Mof_H 	H 	0.0367	0.2306	0.8472	-0.513
Mof_P 	P 	0.87253	0.50469	0.05354	1.011
Mof_H 	H 	0.8297	0.5059	0.0978	-0.281
Mof_O 	O 	0.9255	0.0657	0.8111	-0.721
Mof_O 	O 	0.0285	0.1351	0.9387	-0.914
Mof_O 	O 	0.8303	0.3784	0.0361	-1.015
Mof_O 	O 	0.7198	0.1524	0.9917	-1.079
Mof_O 	O 	0.0005	0.4279	0.9264	-1.136
Mof_O 	O 	0.7749	0.3243	0.8826	-0.905
Mof_O 	O 	0.8811	0.189	0.8923	-1.006
Mof_Ga	Ga	2.29093e-33	-4.58186e-33	0.25	2.326
Mof_Ga	Ga	9.16372e-33	0	0.75	2.367
Mof_Ga	Ga	4.58186e-33	-9.16372e-33	0.5	2.476
Mof_Ga	Ga	-0	0	-0	2.162
Mof_P 	P 	0.66667	0.33333	0.3629	0.973
Mof_H 	H 	0.66667	0.33333	0.3081	-0.225
Mof_P 	P 	0.33333	0.66667	0.1371	0.944
Mof_H 	H 	0.33333	0.66667	0.1919	-0.217
Mof_P 	P 	0.33333	0.66667	0.6371	0.973
Mof_H 	H 	0.33333	0.66667	0.6919	-0.223
Mof_P 	P 	0.66667	0.33333	0.8629	0.989
Mof_H 	H 	0.66667	0.33333	0.8081	-0.231
_end
