data_functionalizedCrystal
_audit_creation_method	'EQeq! by Chris Wilmer'
_symmetry_space_group_name_H-M	'P1'
_symmetry_Int_Tables_number	1
_symmetry_cell_setting	triclinic
loop_
_symmetry_equiv_pos_as_xyz
  x,y,z
_cell_length_a	7.4881
_cell_length_b	13.2539
_cell_length_c	13.2539
_cell_angle_alpha	120
_cell_angle_beta	90
_cell_angle_gamma	90
loop_
_atom_site_label
_atom_site_type_symbol
_atom_site_fract_x
_atom_site_fract_y
_atom_site_fract_z
_atom_site_charge
Mof_La	La	0.33051	0.66667	0.33334	2.313
Mof_La	La	0.66949	0.33333	0.66666	2.339
Mof_Ni	Ni	1.10798e-32	0.5	0.5	1.086
Mof_Ni	Ni	1.10798e-32	0	0.5	1.057
Mof_Ni	Ni	-0	0.5	-0	1.057
Mof_H 	H 	0.7147	0.7312	0.5575	0.158
Mof_H 	H 	0.6052	0.6665	0.6086	0.153
Mof_H 	H 	0.8389	0.6455	0.682	0.12
Mof_H 	H 	0.0663	0.7557	0.7178	0.009
Mof_H 	H 	0.9351	0.8163	0.6722	0.085
Mof_H 	H 	0.7147	0.8263	0.2688	0.152
Mof_H 	H 	0.6052	0.9421	0.3335	0.167
Mof_H 	H 	0.8389	0.0365	0.3545	0.055
Mof_H 	H 	0.0663	0.9621	0.2443	0.008
Mof_H 	H 	0.9351	0.8559	0.1837	0.063
Mof_H 	H 	0.7147	0.4425	0.1737	0.144
Mof_H 	H 	0.6052	0.3914	0.0579	0.121
Mof_H 	H 	0.8389	0.318	0.9635	0.164
Mof_H 	H 	0.0663	0.2822	0.0379	-0.05
Mof_H 	H 	0.9351	0.3278	0.1441	0.045
Mof_H 	H 	0.2853	0.2688	0.4425	0.148
Mof_H 	H 	0.3948	0.3335	0.3914	0.151
Mof_H 	H 	0.1611	0.3545	0.318	0.072
Mof_H 	H 	0.9337	0.2443	0.2822	0.242
Mof_H 	H 	0.0649	0.1837	0.3278	0.176
Mof_H 	H 	0.2853	0.1737	0.7312	0.153
Mof_H 	H 	0.3948	0.0579	0.6665	0.135
Mof_H 	H 	0.1611	0.9635	0.6455	0.139
Mof_H 	H 	0.9337	0.0379	0.7557	0.221
Mof_H 	H 	0.0649	0.1441	0.8163	0.188
Mof_H 	H 	0.2853	0.5575	0.8263	0.16
Mof_H 	H 	0.3948	0.6086	0.9421	0.182
Mof_H 	H 	0.1611	0.682	0.0365	0.022
Mof_H 	H 	0.9337	0.7178	0.9621	0.276
Mof_H 	H 	0.0649	0.6722	0.8559	0.203
Mof_C 	C 	0.6766	0.5604	0.4402	0.497
Mof_C 	C 	0.7076	0.6599	0.5609	-0.378
Mof_C 	C 	0.9985	0.7445	0.6506	-0.061
Mof_C 	C 	0.1258	0.7178	0.5511	0.265
Mof_C 	C 	0.6766	0.8798	0.4396	0.502
Mof_C 	C 	0.7076	0.901	0.3401	-0.379
Mof_C 	C 	0.9985	0.9061	0.2555	-0.039
Mof_C 	C 	0.1258	0.8333	0.2822	0.261
Mof_C 	C 	0.6766	0.5598	0.1202	0.484
Mof_C 	C 	0.7076	0.4391	0.099	-0.357
Mof_C 	C 	0.9985	0.3494	0.0939	-0.003
Mof_C 	C 	0.1258	0.4489	0.1667	0.237
Mof_C 	C 	0.3234	0.4396	0.5598	0.501
Mof_C 	C 	0.2924	0.3401	0.4391	-0.408
Mof_C 	C 	0.0015	0.2555	0.3494	-0.588
Mof_C 	C 	0.8742	0.2822	0.4489	0.519
Mof_C 	C 	0.3234	0.1202	0.5604	0.494
Mof_C 	C 	0.2924	0.099	0.6599	-0.401
Mof_C 	C 	0.0015	0.0939	0.7445	-0.563
Mof_C 	C 	0.8742	0.1667	0.7178	0.501
Mof_C 	C 	0.3234	0.4402	0.8798	0.511
Mof_C 	C 	0.2924	0.5609	0.901	-0.422
Mof_C 	C 	0.0015	0.6506	0.9061	-0.594
Mof_C 	C 	0.8742	0.5511	0.8333	0.524
Mof_N 	N 	0.8695	0.65014	0.61804	-0.186
Mof_N 	N 	0.8695	0.9679	0.34986	-0.13
Mof_N 	N 	0.8695	0.38196	0.0321	-0.238
Mof_N 	N 	0.1305	0.34986	0.38196	-0.135
Mof_N 	N 	0.1305	0.0321	0.65014	-0.19
Mof_N 	N 	0.1305	0.61804	0.9679	-0.077
Mof_O 	O 	0.5395	0.5658	0.3897	-0.547
Mof_O 	O 	0.7851	0.47644	0.39616	-0.433
Mof_O 	O 	0.1105	0.62027	0.45805	-0.547
Mof_O 	O 	0.2394	0.79012	0.56127	-0.392
Mof_O 	O 	0.5395	0.8239	0.4342	-0.537
Mof_O 	O 	0.7851	0.91972	0.52356	-0.4
Mof_O 	O 	0.1105	0.83778	0.37973	-0.532
Mof_O 	O 	0.2394	0.77115	0.20988	-0.403
Mof_O 	O 	0.5395	0.6103	0.1761	-0.551
Mof_O 	O 	0.7851	0.60384	0.08028	-0.445
Mof_O 	O 	0.1105	0.54195	0.16222	-0.549
Mof_O 	O 	0.2394	0.43873	0.22885	-0.401
Mof_O 	O 	0.4605	0.4342	0.6103	-0.552
Mof_O 	O 	0.2149	0.52356	0.60384	-0.471
Mof_O 	O 	0.8895	0.37973	0.54195	-0.56
Mof_O 	O 	0.7606	0.20988	0.43873	-0.47
Mof_O 	O 	0.4605	0.1761	0.5658	-0.562
Mof_O 	O 	0.2149	0.08028	0.47644	-0.495
Mof_O 	O 	0.8895	0.16222	0.62027	-0.563
Mof_O 	O 	0.7606	0.22885	0.79012	-0.454
Mof_O 	O 	0.4605	0.3897	0.8239	-0.547
Mof_O 	O 	0.2149	0.39616	0.91972	-0.446
Mof_O 	O 	0.8895	0.45805	0.83778	-0.549
Mof_O 	O 	0.7606	0.56127	0.77115	-0.455
_end
