data_functionalizedCrystal
_audit_creation_method	'EQeq! by Chris Wilmer'
_symmetry_space_group_name_H-M	'P1'
_symmetry_Int_Tables_number	1
_symmetry_cell_setting	triclinic
loop_
_symmetry_equiv_pos_as_xyz
  x,y,z
_cell_length_a	10.0144
_cell_length_b	10.126
_cell_length_c	20.4363
_cell_angle_alpha	90
_cell_angle_beta	90
_cell_angle_gamma	90
loop_
_atom_site_label
_atom_site_type_symbol
_atom_site_fract_x
_atom_site_fract_y
_atom_site_fract_z
_atom_site_charge
Mof_C 	C 	0.6718	0.0259	0.135	-0.348
Mof_H 	H 	0.6341	0.091	0.104	0.11
Mof_H 	H 	0.5965	0.9832	0.1582	0.109
Mof_Ag	Ag	0.00538	0.23204	0.2725	0.632
Mof_Ag	Ag	0.50964	0.23417	0.52165	0.635
Mof_N 	N 	0.5883	0.3829	0.4473	-0.231
Mof_C 	C 	0.731	0.546	0.3803	-0.335
Mof_H 	H 	0.767	0.6154	0.4094	0.107
Mof_H 	H 	0.675	0.5888	0.3464	0.105
Mof_C 	C 	0.653	0.4548	0.4171	0.144
Mof_N 	N 	0.1123	0.0649	0.3203	-0.243
Mof_N 	N 	0.42	0.069	0.4598	-0.227
Mof_C 	C 	0.8436	0.4719	0.3484	0.136
Mof_C 	C 	0.2908	0.4571	0.1172	-0.334
Mof_H 	H 	0.3689	0.4893	0.1422	0.106
Mof_H 	H 	0.3235	0.4033	0.08	0.104
Mof_C 	C 	0.7457	0.9264	0.0987	0.147
Mof_C 	C 	0.2935	0.9186	0.376	-0.323
Mof_H 	H 	0.2516	0.8416	0.3977	0.102
Mof_H 	H 	0.3574	0.8858	0.3427	0.102
Mof_C 	C 	0.2035	0.3762	0.1599	0.146
Mof_C 	C 	0.363	0.0002	0.4242	0.128
Mof_C 	C 	0.1907	0.0009	0.3447	0.137
Mof_C 	C 	0.7541	0.0937	0.1818	0.153
Mof_C 	C 	0.2121	0.5697	0.0928	0.141
Mof_N 	N 	0.1384	0.3124	0.1903	-0.235
Mof_N 	N 	0.9239	0.4105	0.325	-0.243
Mof_N 	N 	0.8212	0.1474	0.217	-0.232
Mof_N 	N 	0.8096	0.851	0.0723	-0.245
Mof_N 	N 	0.155	0.6585	0.0744	-0.243
Mof_C 	C 	0.8282	0.9741	0.635	-0.362
Mof_H 	H 	0.8659	0.909	0.604	0.112
Mof_H 	H 	0.9035	0.0168	0.6582	0.114
Mof_Ag	Ag	0.49462	0.76796	0.7725	0.632
Mof_Ag	Ag	0.99036	0.76583	0.02165	0.631
Mof_N 	N 	0.9117	0.6171	0.9473	-0.23
Mof_C 	C 	0.769	0.454	0.8803	-0.335
Mof_H 	H 	0.733	0.3846	0.9094	0.107
Mof_H 	H 	0.825	0.4112	0.8464	0.105
Mof_C 	C 	0.847	0.5452	0.9171	0.144
Mof_N 	N 	0.3877	0.9351	0.8203	-0.244
Mof_N 	N 	0.08	0.931	0.9598	-0.228
Mof_C 	C 	0.6564	0.5281	0.8484	0.136
Mof_C 	C 	0.2092	0.5429	0.6172	-0.334
Mof_H 	H 	0.1311	0.5107	0.6422	0.106
Mof_H 	H 	0.1765	0.5967	0.58	0.104
Mof_C 	C 	0.7543	0.0736	0.5987	0.153
Mof_C 	C 	0.2065	0.0814	0.876	-0.332
Mof_H 	H 	0.2484	0.1584	0.8977	0.104
Mof_H 	H 	0.1426	0.1142	0.8427	0.103
Mof_C 	C 	0.2965	0.6238	0.6599	0.146
Mof_C 	C 	0.137	0.9998	0.9242	0.133
Mof_C 	C 	0.3093	0.9991	0.8447	0.142
Mof_C 	C 	0.7459	0.9063	0.6818	0.156
Mof_C 	C 	0.2879	0.4303	0.5928	0.14
Mof_N 	N 	0.3616	0.6876	0.6903	-0.235
Mof_N 	N 	0.5761	0.5895	0.825	-0.244
Mof_N 	N 	0.6788	0.8526	0.717	-0.234
Mof_N 	N 	0.6904	0.149	0.5723	-0.247
Mof_N 	N 	0.345	0.3415	0.5744	-0.244
Mof_C 	C 	0.3282	0.5259	0.365	-0.355
Mof_H 	H 	0.3659	0.591	0.396	0.11
Mof_H 	H 	0.4035	0.4832	0.3418	0.111
Mof_Ag	Ag	0.99462	0.73204	0.2275	0.631
Mof_Ag	Ag	0.49036	0.73417	0.97835	0.633
Mof_N 	N 	0.4117	0.8829	0.0527	-0.231
Mof_C 	C 	0.269	0.046	0.1197	-0.338
Mof_H 	H 	0.233	0.1154	0.0906	0.107
Mof_H 	H 	0.325	0.0888	0.1536	0.105
Mof_C 	C 	0.347	0.9548	0.0829	0.145
Mof_N 	N 	0.8877	0.5649	0.1797	-0.243
Mof_N 	N 	0.58	0.569	0.0402	-0.227
Mof_C 	C 	0.1564	0.9719	0.1516	0.138
Mof_C 	C 	0.7092	0.9571	0.3828	-0.336
Mof_H 	H 	0.6311	0.9893	0.3578	0.106
Mof_H 	H 	0.6765	0.9033	0.42	0.104
Mof_C 	C 	0.2543	0.4264	0.4013	0.15
Mof_C 	C 	0.7065	0.4186	0.124	-0.328
Mof_H 	H 	0.7484	0.3416	0.1023	0.103
Mof_H 	H 	0.6426	0.3858	0.1573	0.103
Mof_C 	C 	0.7965	0.8762	0.3401	0.146
Mof_C 	C 	0.637	0.5002	0.0758	0.131
Mof_C 	C 	0.8093	0.5009	0.1553	0.141
Mof_C 	C 	0.2459	0.5937	0.3182	0.154
Mof_C 	C 	0.7879	0.0697	0.4072	0.142
Mof_N 	N 	0.8616	0.8124	0.3097	-0.235
Mof_N 	N 	0.0761	0.9105	0.175	-0.243
Mof_N 	N 	0.1788	0.6474	0.283	-0.233
Mof_N 	N 	0.1904	0.351	0.4277	-0.246
Mof_N 	N 	0.845	0.1585	0.4256	-0.244
Mof_C 	C 	0.1718	0.4741	0.865	-0.355
Mof_H 	H 	0.1341	0.409	0.896	0.11
Mof_H 	H 	0.0965	0.5168	0.8418	0.111
Mof_Ag	Ag	0.50538	0.26796	0.7275	0.632
Mof_Ag	Ag	0.00964	0.26583	0.47835	0.632
Mof_N 	N 	0.0883	0.1171	0.5527	-0.23
Mof_C 	C 	0.231	0.954	0.6197	-0.328
Mof_H 	H 	0.267	0.8846	0.5906	0.105
Mof_H 	H 	0.175	0.9112	0.6536	0.103
Mof_C 	C 	0.153	0.0452	0.5829	0.139
Mof_N 	N 	0.6123	0.4351	0.6797	-0.243
Mof_N 	N 	0.92	0.431	0.5402	-0.227
Mof_C 	C 	0.3436	0.0281	0.6516	0.132
Mof_C 	C 	0.7908	0.0429	0.8828	-0.333
Mof_H 	H 	0.8689	0.0107	0.8578	0.106
Mof_H 	H 	0.8235	0.0967	0.92	0.104
Mof_C 	C 	0.2457	0.5736	0.9013	0.15
Mof_C 	C 	0.7935	0.5814	0.624	-0.328
Mof_H 	H 	0.7516	0.6584	0.6023	0.103
Mof_H 	H 	0.8574	0.6142	0.6573	0.103
Mof_C 	C 	0.7035	0.1238	0.8401	0.146
Mof_C 	C 	0.863	0.4998	0.5758	0.131
Mof_C 	C 	0.6907	0.4991	0.6553	0.14
Mof_C 	C 	0.2541	0.4063	0.8182	0.154
Mof_C 	C 	0.7121	0.9303	0.9072	0.139
Mof_N 	N 	0.6384	0.1876	0.8097	-0.235
Mof_N 	N 	0.4239	0.0895	0.675	-0.243
Mof_N 	N 	0.3212	0.3526	0.783	-0.233
Mof_N 	N 	0.3096	0.649	0.9277	-0.246
Mof_N 	N 	0.655	0.8415	0.9256	-0.244
_end
