data_functionalizedCrystal
_audit_creation_method	'EQeq! by Chris Wilmer'
_symmetry_space_group_name_H-M	'P1'
_symmetry_Int_Tables_number	1
_symmetry_cell_setting	triclinic
loop_
_symmetry_equiv_pos_as_xyz
  x,y,z
_cell_length_a	27.5185
_cell_length_b	10.4247
_cell_length_c	14.8656
_cell_angle_alpha	90
_cell_angle_beta	117.541
_cell_angle_gamma	90
loop_
_atom_site_label
_atom_site_type_symbol
_atom_site_fract_x
_atom_site_fract_y
_atom_site_fract_z
_atom_site_charge
Mof_Zn	Zn	0.2913	0.36024	0.03377	1.22
Mof_O 	O 	0.16737	0.2502	0.0213	-0.456
Mof_C 	C 	0.15585	0.4341	0.1048	-0.085
Mof_O 	O 	0.23291	0.3999	0.0794	-0.477
Mof_C 	C 	0.3768	0.8486	0.1475	-0.011
Mof_H 	H 	0.3718	0.8438	0.2078	0.031
Mof_H 	H 	0.3563	0.9223	0.1086	0.042
Mof_N 	N 	0.3526	0.7325	0.0864	-0.168
Mof_N 	N 	0.01258	0.535	0.0375	-0.094
Mof_C 	C 	0.09873	0.4365	0.0531	-0.062
Mof_H 	H 	0.0798	0.3829	0.9977	0.066
Mof_N 	N 	0.3222	0.5359	0.0442	-0.296
Mof_C 	C 	0.07029	0.5203	0.0853	0.073
Mof_C 	C 	0.18804	0.353	0.0651	0.382
Mof_C 	C 	0.3272	0.591	0.9628	-0.009
Mof_H 	H 	0.3186	0.5531	0.9006	0.025
Mof_C 	C 	0.3474	0.7117	0.9939	0.007
Mof_H 	H 	0.3562	0.7702	0.9564	0.037
Mof_C 	C 	0.335	0.604	0.2135	-0.873
Mof_H 	H 	0.2981	0.5852	0.2	0.293
Mof_H 	H 	0.3473	0.6806	0.2538	0.293
Mof_H 	H 	0.3585	0.5338	0.2498	0.284
Mof_C 	C 	0.337	0.6238	0.1139	0.321
Mof_C 	C 	0.4355	0.872	0.1798	-0.137
Mof_H 	H 	0.4457	0.9539	0.2147	0.072
Mof_H 	H 	0.4409	0.8783	0.1199	0.078
Mof_C 	C 	0.18416	0.5082	0.1906	0.015
Mof_H 	H 	0.2222	0.5035	0.2259	0.032
Mof_C 	C 	0.15598	0.5901	0.2245	-0.085
Mof_C 	C 	0.09917	0.5978	0.1705	-0.062
Mof_H 	H 	0.0803	0.6547	0.1912	0.064
Mof_C 	C 	0.18718	0.6646	0.3215	0.381
Mof_O 	O 	0.16589	0.7653	0.3319	-0.458
Mof_O 	O 	0.23153	0.6161	0.3845	-0.47
Mof_C 	C 	0.4745	0.7663	0.251	-0.077
Mof_H 	H 	0.4806	0.7811	0.3198	0.053
Mof_H 	H 	0.4573	0.6829	0.2296	0.051
Mof_Zn	Zn	0.7913	0.86024	0.03377	1.218
Mof_O 	O 	0.66737	0.7502	0.0213	-0.458
Mof_C 	C 	0.65585	0.9341	0.1048	-0.083
Mof_O 	O 	0.73291	0.8999	0.0794	-0.478
Mof_C 	C 	0.8768	0.3486	0.1475	-0.011
Mof_H 	H 	0.8718	0.3438	0.2078	0.032
Mof_H 	H 	0.8563	0.4223	0.1086	0.042
Mof_N 	N 	0.8526	0.2325	0.0864	-0.167
Mof_N 	N 	0.51258	0.035	0.0375	-0.094
Mof_C 	C 	0.59873	0.9365	0.0531	-0.07
Mof_H 	H 	0.5798	0.8829	0.9977	0.071
Mof_N 	N 	0.8222	0.0359	0.0442	-0.295
Mof_C 	C 	0.57029	0.0203	0.0853	0.078
Mof_C 	C 	0.68804	0.853	0.0651	0.381
Mof_C 	C 	0.8272	0.091	0.9628	-0.01
Mof_H 	H 	0.8186	0.0531	0.9006	0.024
Mof_C 	C 	0.8474	0.2117	0.9939	0.006
Mof_H 	H 	0.8562	0.2702	0.9564	0.037
Mof_C 	C 	0.835	0.104	0.2135	-0.874
Mof_H 	H 	0.7981	0.0852	0.2	0.293
Mof_H 	H 	0.8473	0.1806	0.2538	0.294
Mof_H 	H 	0.8585	0.0338	0.2498	0.285
Mof_C 	C 	0.837	0.1238	0.1139	0.322
Mof_C 	C 	0.9355	0.372	0.1798	-0.137
Mof_H 	H 	0.9457	0.4539	0.2147	0.072
Mof_H 	H 	0.9409	0.3783	0.1199	0.079
Mof_C 	C 	0.68416	0.0082	0.1906	0.015
Mof_H 	H 	0.7222	0.0035	0.2259	0.032
Mof_C 	C 	0.65598	0.0901	0.2245	-0.084
Mof_C 	C 	0.59917	0.0978	0.1705	-0.064
Mof_H 	H 	0.5803	0.1547	0.1912	0.065
Mof_C 	C 	0.68718	0.1646	0.3215	0.381
Mof_O 	O 	0.66589	0.2653	0.3319	-0.457
Mof_O 	O 	0.73153	0.1161	0.3845	-0.47
Mof_C 	C 	0.9745	0.2663	0.251	-0.077
Mof_H 	H 	0.9806	0.2811	0.3198	0.053
Mof_H 	H 	0.9573	0.1829	0.2296	0.051
Mof_Zn	Zn	0.7087	0.36024	0.46623	1.219
Mof_O 	O 	0.83263	0.2502	0.4787	-0.457
Mof_C 	C 	0.84415	0.4341	0.3952	-0.084
Mof_O 	O 	0.76709	0.3999	0.4206	-0.478
Mof_C 	C 	0.6232	0.8486	0.3525	-0.011
Mof_H 	H 	0.6282	0.8438	0.2922	0.031
Mof_H 	H 	0.6437	0.9223	0.3914	0.042
Mof_N 	N 	0.6474	0.7325	0.4136	-0.168
Mof_N 	N 	0.98742	0.535	0.4625	-0.094
Mof_C 	C 	0.90127	0.4365	0.4469	-0.064
Mof_H 	H 	0.9202	0.3829	0.5023	0.068
Mof_N 	N 	0.6778	0.5359	0.4558	-0.296
Mof_C 	C 	0.92971	0.5203	0.4147	0.074
Mof_C 	C 	0.81196	0.353	0.4349	0.381
Mof_C 	C 	0.6728	0.591	0.5372	-0.009
Mof_H 	H 	0.6814	0.5531	0.5994	0.024
Mof_C 	C 	0.6526	0.7117	0.5061	0.006
Mof_H 	H 	0.6438	0.7702	0.5436	0.037
Mof_C 	C 	0.665	0.604	0.2865	-0.873
Mof_H 	H 	0.7019	0.5852	0.3	0.293
Mof_H 	H 	0.6527	0.6806	0.2462	0.293
Mof_H 	H 	0.6415	0.5338	0.2502	0.284
Mof_C 	C 	0.663	0.6238	0.3861	0.321
Mof_C 	C 	0.5645	0.872	0.3202	-0.138
Mof_H 	H 	0.5543	0.9539	0.2853	0.072
Mof_H 	H 	0.5591	0.8783	0.3801	0.079
Mof_C 	C 	0.81584	0.5082	0.3094	0.015
Mof_H 	H 	0.7778	0.5035	0.2741	0.032
Mof_C 	C 	0.84402	0.5901	0.2755	-0.084
Mof_C 	C 	0.90083	0.5978	0.3295	-0.062
Mof_H 	H 	0.9197	0.6547	0.3088	0.064
Mof_C 	C 	0.81282	0.6646	0.1785	0.381
Mof_O 	O 	0.83411	0.7653	0.1681	-0.458
Mof_O 	O 	0.76847	0.6161	0.1155	-0.47
Mof_C 	C 	0.5255	0.7663	0.249	-0.076
Mof_H 	H 	0.5194	0.7811	0.1802	0.053
Mof_H 	H 	0.5427	0.6829	0.2704	0.05
Mof_Zn	Zn	0.2087	0.86024	0.46623	1.219
Mof_O 	O 	0.33263	0.7502	0.4787	-0.457
Mof_C 	C 	0.34415	0.9341	0.3952	-0.085
Mof_O 	O 	0.26709	0.8999	0.4206	-0.478
Mof_C 	C 	0.1232	0.3486	0.3525	-0.01
Mof_H 	H 	0.1282	0.3438	0.2922	0.031
Mof_H 	H 	0.1437	0.4223	0.3914	0.042
Mof_N 	N 	0.1474	0.2325	0.4136	-0.168
Mof_N 	N 	0.48742	0.035	0.4625	-0.094
Mof_C 	C 	0.40127	0.9365	0.4469	-0.064
Mof_H 	H 	0.4202	0.8829	0.5023	0.068
Mof_N 	N 	0.1778	0.0359	0.4558	-0.297
Mof_C 	C 	0.42971	0.0203	0.4147	0.074
Mof_C 	C 	0.31196	0.853	0.4349	0.381
Mof_C 	C 	0.1728	0.091	0.5372	-0.009
Mof_H 	H 	0.1814	0.0531	0.5994	0.024
Mof_C 	C 	0.1526	0.2117	0.5061	0.006
Mof_H 	H 	0.1438	0.2702	0.5436	0.037
Mof_C 	C 	0.165	0.104	0.2865	-0.874
Mof_H 	H 	0.2019	0.0852	0.3	0.293
Mof_H 	H 	0.1527	0.1806	0.2462	0.294
Mof_H 	H 	0.1415	0.0338	0.2502	0.285
Mof_C 	C 	0.163	0.1238	0.3861	0.322
Mof_C 	C 	0.0645	0.372	0.3202	-0.138
Mof_H 	H 	0.0543	0.4539	0.2853	0.072
Mof_H 	H 	0.0591	0.3783	0.3801	0.079
Mof_C 	C 	0.31584	0.0082	0.3094	0.015
Mof_H 	H 	0.2778	0.0035	0.2741	0.032
Mof_C 	C 	0.34402	0.0901	0.2755	-0.084
Mof_C 	C 	0.40083	0.0978	0.3295	-0.062
Mof_H 	H 	0.4197	0.1547	0.3088	0.065
Mof_C 	C 	0.31282	0.1646	0.1785	0.381
Mof_O 	O 	0.33411	0.2653	0.1681	-0.457
Mof_O 	O 	0.26847	0.1161	0.1155	-0.469
Mof_C 	C 	0.0255	0.2663	0.249	-0.075
Mof_H 	H 	0.0194	0.2811	0.1802	0.053
Mof_H 	H 	0.0427	0.1829	0.2704	0.05
Mof_Zn	Zn	0.7087	0.63976	0.96623	1.219
Mof_O 	O 	0.83263	0.7498	0.9787	-0.457
Mof_C 	C 	0.84415	0.5659	0.8952	-0.085
Mof_O 	O 	0.76709	0.6001	0.9206	-0.477
Mof_C 	C 	0.6232	0.1514	0.8525	-0.011
Mof_H 	H 	0.6282	0.1562	0.7922	0.031
Mof_H 	H 	0.6437	0.0777	0.8914	0.042
Mof_N 	N 	0.6474	0.2675	0.9136	-0.168
Mof_N 	N 	0.98742	0.465	0.9625	-0.094
Mof_C 	C 	0.90127	0.5635	0.9469	-0.062
Mof_H 	H 	0.9202	0.6171	0.0023	0.066
Mof_N 	N 	0.6778	0.4641	0.9558	-0.296
Mof_C 	C 	0.92971	0.4797	0.9147	0.073
Mof_C 	C 	0.81196	0.647	0.9349	0.382
Mof_C 	C 	0.6728	0.409	0.0372	-0.009
Mof_H 	H 	0.6814	0.4469	0.0994	0.025
Mof_C 	C 	0.6526	0.2883	0.0061	0.007
Mof_H 	H 	0.6438	0.2298	0.0436	0.037
Mof_C 	C 	0.665	0.396	0.7865	-0.873
Mof_H 	H 	0.7019	0.4148	0.8	0.293
Mof_H 	H 	0.6527	0.3194	0.7462	0.293
Mof_H 	H 	0.6415	0.4662	0.7502	0.284
Mof_C 	C 	0.663	0.3762	0.8861	0.321
Mof_C 	C 	0.5645	0.128	0.8202	-0.137
Mof_H 	H 	0.5543	0.0461	0.7853	0.072
Mof_H 	H 	0.5591	0.1217	0.8801	0.078
Mof_C 	C 	0.81584	0.4918	0.8094	0.015
Mof_H 	H 	0.7778	0.4965	0.7741	0.032
Mof_C 	C 	0.84402	0.4099	0.7755	-0.085
Mof_C 	C 	0.90083	0.4022	0.8295	-0.062
Mof_H 	H 	0.9197	0.3453	0.8088	0.064
Mof_C 	C 	0.81282	0.3354	0.6785	0.381
Mof_O 	O 	0.83411	0.2347	0.6681	-0.458
Mof_O 	O 	0.76847	0.3839	0.6155	-0.47
Mof_C 	C 	0.5255	0.2337	0.749	-0.077
Mof_H 	H 	0.5194	0.2189	0.6802	0.053
Mof_H 	H 	0.5427	0.3171	0.7704	0.051
Mof_Zn	Zn	0.2087	0.13976	0.96623	1.218
Mof_O 	O 	0.33263	0.2498	0.9787	-0.458
Mof_C 	C 	0.34415	0.0659	0.8952	-0.083
Mof_O 	O 	0.26709	0.1001	0.9206	-0.478
Mof_C 	C 	0.1232	0.6514	0.8525	-0.011
Mof_H 	H 	0.1282	0.6562	0.7922	0.032
Mof_H 	H 	0.1437	0.5777	0.8914	0.042
Mof_N 	N 	0.1474	0.7675	0.9136	-0.167
Mof_N 	N 	0.48742	0.965	0.9625	-0.094
Mof_C 	C 	0.40127	0.0635	0.9469	-0.07
Mof_H 	H 	0.4202	0.1171	0.0023	0.071
Mof_N 	N 	0.1778	0.9641	0.9558	-0.295
Mof_C 	C 	0.42971	0.9797	0.9147	0.078
Mof_C 	C 	0.31196	0.147	0.9349	0.381
Mof_C 	C 	0.1728	0.909	0.0372	-0.01
Mof_H 	H 	0.1814	0.9469	0.0994	0.024
Mof_C 	C 	0.1526	0.7883	0.0061	0.006
Mof_H 	H 	0.1438	0.7298	0.0436	0.037
Mof_C 	C 	0.165	0.896	0.7865	-0.874
Mof_H 	H 	0.2019	0.9148	0.8	0.293
Mof_H 	H 	0.1527	0.8194	0.7462	0.294
Mof_H 	H 	0.1415	0.9662	0.7502	0.285
Mof_C 	C 	0.163	0.8762	0.8861	0.322
Mof_C 	C 	0.0645	0.628	0.8202	-0.137
Mof_H 	H 	0.0543	0.5461	0.7853	0.072
Mof_H 	H 	0.0591	0.6217	0.8801	0.079
Mof_C 	C 	0.31584	0.9918	0.8094	0.015
Mof_H 	H 	0.2778	0.9965	0.7741	0.032
Mof_C 	C 	0.34402	0.9099	0.7755	-0.084
Mof_C 	C 	0.40083	0.9022	0.8295	-0.064
Mof_H 	H 	0.4197	0.8453	0.8088	0.065
Mof_C 	C 	0.31282	0.8354	0.6785	0.381
Mof_O 	O 	0.33411	0.7347	0.6681	-0.457
Mof_O 	O 	0.26847	0.8839	0.6155	-0.47
Mof_C 	C 	0.0255	0.7337	0.749	-0.077
Mof_H 	H 	0.0194	0.7189	0.6802	0.053
Mof_H 	H 	0.0427	0.8171	0.7704	0.051
Mof_Zn	Zn	0.2913	0.63976	0.53377	1.219
Mof_O 	O 	0.16737	0.7498	0.5213	-0.457
Mof_C 	C 	0.15585	0.5659	0.6048	-0.084
Mof_O 	O 	0.23291	0.6001	0.5794	-0.478
Mof_C 	C 	0.3768	0.1514	0.6475	-0.011
Mof_H 	H 	0.3718	0.1562	0.7078	0.031
Mof_H 	H 	0.3563	0.0777	0.6086	0.042
Mof_N 	N 	0.3526	0.2675	0.5864	-0.168
Mof_N 	N 	0.01258	0.465	0.5375	-0.094
Mof_C 	C 	0.09873	0.5635	0.5531	-0.064
Mof_H 	H 	0.0798	0.6171	0.4977	0.068
Mof_N 	N 	0.3222	0.4641	0.5442	-0.296
Mof_C 	C 	0.07029	0.4797	0.5853	0.074
Mof_C 	C 	0.18804	0.647	0.5651	0.381
Mof_C 	C 	0.3272	0.409	0.4628	-0.009
Mof_H 	H 	0.3186	0.4469	0.4006	0.024
Mof_C 	C 	0.3474	0.2883	0.4939	0.006
Mof_H 	H 	0.3562	0.2298	0.4564	0.037
Mof_C 	C 	0.335	0.396	0.7135	-0.873
Mof_H 	H 	0.2981	0.4148	0.7	0.293
Mof_H 	H 	0.3473	0.3194	0.7538	0.293
Mof_H 	H 	0.3585	0.4662	0.7498	0.284
Mof_C 	C 	0.337	0.3762	0.6139	0.321
Mof_C 	C 	0.4355	0.128	0.6798	-0.138
Mof_H 	H 	0.4457	0.0461	0.7147	0.072
Mof_H 	H 	0.4409	0.1217	0.6199	0.079
Mof_C 	C 	0.18416	0.4918	0.6906	0.015
Mof_H 	H 	0.2222	0.4965	0.7259	0.032
Mof_C 	C 	0.15598	0.4099	0.7245	-0.084
Mof_C 	C 	0.09917	0.4022	0.6705	-0.062
Mof_H 	H 	0.0803	0.3453	0.6912	0.064
Mof_C 	C 	0.18718	0.3354	0.8215	0.381
Mof_O 	O 	0.16589	0.2347	0.8319	-0.458
Mof_O 	O 	0.23153	0.3839	0.8845	-0.47
Mof_C 	C 	0.4745	0.2337	0.751	-0.076
Mof_H 	H 	0.4806	0.2189	0.8198	0.053
Mof_H 	H 	0.4573	0.3171	0.7296	0.05
Mof_Zn	Zn	0.7913	0.13976	0.53377	1.219
Mof_O 	O 	0.66737	0.2498	0.5213	-0.457
Mof_C 	C 	0.65585	0.0659	0.6048	-0.085
Mof_O 	O 	0.73291	0.1001	0.5794	-0.478
Mof_C 	C 	0.8768	0.6514	0.6475	-0.01
Mof_H 	H 	0.8718	0.6562	0.7078	0.031
Mof_H 	H 	0.8563	0.5777	0.6086	0.042
Mof_N 	N 	0.8526	0.7675	0.5864	-0.168
Mof_N 	N 	0.51258	0.965	0.5375	-0.094
Mof_C 	C 	0.59873	0.0635	0.5531	-0.064
Mof_H 	H 	0.5798	0.1171	0.4977	0.068
Mof_N 	N 	0.8222	0.9641	0.5442	-0.297
Mof_C 	C 	0.57029	0.9797	0.5853	0.074
Mof_C 	C 	0.68804	0.147	0.5651	0.381
Mof_C 	C 	0.8272	0.909	0.4628	-0.009
Mof_H 	H 	0.8186	0.9469	0.4006	0.024
Mof_C 	C 	0.8474	0.7883	0.4939	0.006
Mof_H 	H 	0.8562	0.7298	0.4564	0.037
Mof_C 	C 	0.835	0.896	0.7135	-0.874
Mof_H 	H 	0.7981	0.9148	0.7	0.293
Mof_H 	H 	0.8473	0.8194	0.7538	0.294
Mof_H 	H 	0.8585	0.9662	0.7498	0.285
Mof_C 	C 	0.837	0.8762	0.6139	0.322
Mof_C 	C 	0.9355	0.628	0.6798	-0.138
Mof_H 	H 	0.9457	0.5461	0.7147	0.072
Mof_H 	H 	0.9409	0.6217	0.6199	0.079
Mof_C 	C 	0.68416	0.9918	0.6906	0.015
Mof_H 	H 	0.7222	0.9965	0.7259	0.032
Mof_C 	C 	0.65598	0.9099	0.7245	-0.084
Mof_C 	C 	0.59917	0.9022	0.6705	-0.062
Mof_H 	H 	0.5803	0.8453	0.6912	0.065
Mof_C 	C 	0.68718	0.8354	0.8215	0.381
Mof_O 	O 	0.66589	0.7347	0.8319	-0.457
Mof_O 	O 	0.73153	0.8839	0.8845	-0.469
Mof_C 	C 	0.9745	0.7337	0.751	-0.075
Mof_H 	H 	0.9806	0.7189	0.8198	0.053
Mof_H 	H 	0.9573	0.8171	0.7296	0.05
_end
