data_functionalizedCrystal
_audit_creation_method	'EQeq! by Chris Wilmer'
_symmetry_space_group_name_H-M	'P1'
_symmetry_Int_Tables_number	1
_symmetry_cell_setting	triclinic
loop_
_symmetry_equiv_pos_as_xyz
  x,y,z
_cell_length_a	22.709
_cell_length_b	7.118
_cell_length_c	12.828
_cell_angle_alpha	90
_cell_angle_beta	90
_cell_angle_gamma	90
loop_
_atom_site_label
_atom_site_type_symbol
_atom_site_fract_x
_atom_site_fract_y
_atom_site_fract_z
_atom_site_charge
Mof_N 	N 	0.1108	0.0951	0.3865	-0.099
Mof_N 	N 	0.0621	0.1584	0.4333	-0.176
Mof_C 	C 	0.2228	0.101	0.2763	-0.199
Mof_H 	H 	0.2056	0.9842	0.2945	0.392
Mof_C 	C 	0.206	0.895	0.299	-0.33
Mof_N 	N 	0.6108	0.5951	0.8865	-0.078
Mof_N 	N 	0.5621	0.6584	0.9333	-0.133
Mof_C 	C 	0.7228	0.601	0.7763	-0.116
Mof_H 	H 	0.7056	0.4842	0.7945	0.293
Mof_C 	C 	0.706	0.395	0.799	-0.253
Mof_N 	N 	0.8892	0.4049	0.3865	-0.082
Mof_N 	N 	0.9379	0.3416	0.4333	-0.142
Mof_C 	C 	0.7772	0.399	0.2763	-0.111
Mof_H 	H 	0.7944	0.5158	0.2945	0.195
Mof_C 	C 	0.794	0.605	0.299	-0.115
Mof_N 	N 	0.3892	0.9049	0.8865	-0.068
Mof_N 	N 	0.4379	0.8416	0.9333	-0.126
Mof_C 	C 	0.2772	0.899	0.7763	-0.035
Mof_H 	H 	0.2944	0.0158	0.7945	0.107
Mof_C 	C 	0.294	0.105	0.799	-0.055
Mof_N 	N 	0.8892	0.5951	0.6135	-0.085
Mof_N 	N 	0.9379	0.6584	0.5667	-0.138
Mof_C 	C 	0.7772	0.601	0.7237	-0.091
Mof_H 	H 	0.7944	0.4842	0.7055	0.281
Mof_C 	C 	0.794	0.395	0.701	-0.251
Mof_N 	N 	0.3892	0.0951	0.1135	-0.106
Mof_N 	N 	0.4379	0.1584	0.0667	-0.178
Mof_C 	C 	0.2772	0.101	0.2237	-0.176
Mof_H 	H 	0.2944	0.9842	0.2055	0.381
Mof_C 	C 	0.294	0.895	0.201	-0.33
Mof_N 	N 	0.1108	0.9049	0.6135	-0.084
Mof_N 	N 	0.0621	0.8416	0.5667	-0.16
Mof_C 	C 	0.2228	0.899	0.7237	0.005
Mof_H 	H 	0.2056	0.0158	0.7055	0.088
Mof_C 	C 	0.206	0.105	0.701	-0.055
Mof_N 	N 	0.6108	0.4049	0.1135	-0.098
Mof_N 	N 	0.5621	0.3416	0.0667	-0.174
Mof_C 	C 	0.7228	0.399	0.2237	-0.071
Mof_H 	H 	0.7056	0.5158	0.2055	0.175
Mof_C 	C 	0.706	0.605	0.201	-0.114
Mof_N 	N 	0.8892	0.9049	0.6135	-0.075
Mof_N 	N 	0.9379	0.8416	0.5667	-0.13
Mof_C 	C 	0.7772	0.899	0.7237	0.002
Mof_H 	H 	0.7944	0.0158	0.7055	0.084
Mof_C 	C 	0.794	0.105	0.701	-0.043
Mof_N 	N 	0.3892	0.4049	0.1135	-0.097
Mof_N 	N 	0.4379	0.3416	0.0667	-0.174
Mof_C 	C 	0.2772	0.399	0.2237	-0.084
Mof_H 	H 	0.2944	0.5158	0.2055	0.186
Mof_C 	C 	0.294	0.605	0.201	-0.123
Mof_N 	N 	0.1108	0.5951	0.6135	-0.094
Mof_N 	N 	0.0621	0.6584	0.5667	-0.168
Mof_C 	C 	0.2228	0.601	0.7237	-0.089
Mof_H 	H 	0.2056	0.4842	0.7055	0.287
Mof_C 	C 	0.206	0.395	0.701	-0.266
Mof_N 	N 	0.6108	0.0951	0.1135	-0.107
Mof_N 	N 	0.5621	0.1584	0.0667	-0.178
Mof_C 	C 	0.7228	0.101	0.2237	-0.161
Mof_H 	H 	0.7056	0.9842	0.2055	0.366
Mof_C 	C 	0.706	0.895	0.201	-0.316
Mof_N 	N 	0.1108	0.4049	0.3865	-0.091
Mof_N 	N 	0.0621	0.3416	0.4333	-0.172
Mof_C 	C 	0.2228	0.399	0.2763	-0.109
Mof_H 	H 	0.2056	0.5158	0.2945	0.198
Mof_C 	C 	0.206	0.605	0.299	-0.126
Mof_N 	N 	0.6108	0.9049	0.8865	-0.069
Mof_N 	N 	0.5621	0.8416	0.9333	-0.126
Mof_C 	C 	0.7228	0.899	0.7763	-0.023
Mof_H 	H 	0.7056	0.0158	0.7945	0.097
Mof_C 	C 	0.706	0.105	0.799	-0.046
Mof_N 	N 	0.8892	0.0951	0.3865	-0.091
Mof_N 	N 	0.9379	0.1584	0.4333	-0.146
Mof_C 	C 	0.7772	0.101	0.2763	-0.201
Mof_H 	H 	0.7944	0.9842	0.2945	0.385
Mof_C 	C 	0.794	0.895	0.299	-0.316
Mof_N 	N 	0.3892	0.5951	0.8865	-0.077
Mof_N 	N 	0.4379	0.6584	0.9333	-0.133
Mof_C 	C 	0.2772	0.601	0.7763	-0.129
Mof_H 	H 	0.2944	0.4842	0.7945	0.307
Mof_C 	C 	0.294	0.395	0.799	-0.267
Mof_Cu	Cu	1.05899e-33	0	0.5	0.802
Mof_Cu	Cu	0.5	0.5	-0	0.809
Mof_Cu	Cu	-1.98452e-33	0.5	0.5	0.816
Mof_Cu	Cu	0.5	0	-0	0.796
Mof_C 	C 	0.1961	0.25	0.3004	0.105
Mof_C 	C 	0.1393	0.25	0.3592	0.079
Mof_C 	C 	0.6961	0.75	0.8004	0.058
Mof_C 	C 	0.6393	0.75	0.8592	0.127
Mof_C 	C 	0.8039	0.25	0.3004	0.113
Mof_C 	C 	0.8607	0.25	0.3592	0.086
Mof_C 	C 	0.3039	0.75	0.8004	0.068
Mof_C 	C 	0.3607	0.75	0.8592	0.123
Mof_C 	C 	0.8039	0.75	0.6996	0.035
Mof_C 	C 	0.8607	0.75	0.6408	0.132
Mof_C 	C 	0.3039	0.25	0.1996	0.083
Mof_C 	C 	0.3607	0.25	0.1408	0.083
Mof_C 	C 	0.1961	0.75	0.6996	0.027
Mof_C 	C 	0.1393	0.75	0.6408	0.125
Mof_C 	C 	0.6961	0.25	0.1996	0.072
Mof_C 	C 	0.6393	0.25	0.1408	0.088
_end
