data_functionalizedCrystal
_audit_creation_method	'EQeq! by Chris Wilmer'
_symmetry_space_group_name_H-M	'P1'
_symmetry_Int_Tables_number	1
_symmetry_cell_setting	triclinic
loop_
_symmetry_equiv_pos_as_xyz
  x,y,z
_cell_length_a	12.4616
_cell_length_b	13.9703
_cell_length_c	13.9703
_cell_angle_alpha	78.5262
_cell_angle_beta	63.5124
_cell_angle_gamma	63.5124
loop_
_atom_site_label
_atom_site_type_symbol
_atom_site_fract_x
_atom_site_fract_y
_atom_site_fract_z
_atom_site_charge
Mof_V 	V 	0.24776	0.50231	0.79179	1.842
Mof_V 	V 	0.02643	0.79652	0.49886	1.802
Mof_V 	V 	0.37859	0.37645	0.56625	1.734
Mof_V 	V 	0.54186	0.49769	0.20821	1.842
Mof_V 	V 	0.32181	0.20348	0.50114	1.833
Mof_V 	V 	0.32129	0.62355	0.43375	1.733
Mof_V 	V 	0.03955	0.20821	0.50231	1.824
Mof_V 	V 	0.52529	0.50114	0.79652	1.834
Mof_V 	V 	0.94484	0.43375	0.37645	1.758
Mof_V 	V 	0.75007	0.79179	0.49769	1.843
Mof_V 	V 	0.82295	0.49886	0.20348	1.835
Mof_V 	V 	0.75504	0.56625	0.62355	1.739
Mof_Co	Co	0.0214	0.77018	0.7673	1.153
Mof_Co	Co	0.46033	0.99876	0.6674	1.194
Mof_Co	Co	0.55888	0.22982	0.2327	1.185
Mof_Co	Co	0.12649	0.00124	0.3326	1.178
Mof_Co	Co	0.7887	0.2327	0.77018	1.189
Mof_Co	Co	0.12773	0.3326	0.99876	1.181
Mof_Co	Co	0.79158	0.7673	0.22982	1.189
Mof_Co	Co	0.45909	0.6674	0.00124	1.187
Mof_H 	H 	0.3409	0.6933	0.6765	-0.034
Mof_H 	H 	0.4814	0.7844	0.6456	-0.017
Mof_H 	H 	0.1772	0.0651	0.7131	-0.016
Mof_H 	H 	0.7328	0.5569	0.0123	-0.024
Mof_H 	H 	0.9311	0.5998	0.9164	0.056
Mof_H 	H 	0.7467	0.8348	0.774	0.023
Mof_H 	H 	0.7107	0.3067	0.3235	-0.035
Mof_H 	H 	0.9114	0.2156	0.3544	0.008
Mof_H 	H 	0.9554	0.9349	0.2869	0.037
Mof_H 	H 	0.302	0.4431	0.9877	-0.006
Mof_H 	H 	0.4473	0.4002	0.0836	0.02
Mof_H 	H 	0.3555	0.1652	0.226	0.017
Mof_H 	H 	0.0174	0.3235	0.6933	-0.192
Mof_H 	H 	0.127	0.3544	0.7844	0.045
Mof_H 	H 	0.8903	0.2869	0.0651	-0.002
Mof_H 	H 	0.7451	0.9877	0.5569	-0.007
Mof_H 	H 	0.8475	0.0836	0.5998	0.041
Mof_H 	H 	0.5207	0.226	0.8348	0.02
Mof_H 	H 	0.0342	0.6765	0.3067	-0.031
Mof_H 	H 	0.2658	0.6456	0.2156	-0.031
Mof_H 	H 	0.2423	0.7131	0.9349	0.001
Mof_H 	H 	0.2897	0.0123	0.4431	-0.017
Mof_H 	H 	0.5309	0.9164	0.4002	0.026
Mof_H 	H 	0.5815	0.774	0.1652	0.017
Mof_C 	C 	0.3057	0.7677	0.6851	-0.016
Mof_C 	C 	0.3864	0.817	0.6702	0.016
Mof_C 	C 	0.2095	0.9799	0.7065	0.084
Mof_C 	C 	0.1293	0.9298	0.7228	-0.162
Mof_C 	C 	0.9828	0.9903	0.7567	0.444
Mof_C 	C 	0.7532	0.6129	0.9447	0.034
Mof_C 	C 	0.8615	0.639	0.8994	-0.029
Mof_C 	C 	0.7546	0.7805	0.8137	0.041
Mof_C 	C 	0.6481	0.7547	0.8589	-0.086
Mof_C 	C 	0.5242	0.8176	0.8378	0.361
Mof_C 	C 	0.7585	0.2323	0.3149	-0.005
Mof_C 	C 	0.8736	0.183	0.3298	0.015
Mof_C 	C 	0.8959	0.0201	0.2935	0.057
Mof_C 	C 	0.7819	0.0702	0.2772	-0.074
Mof_C 	C 	0.7298	0.0097	0.2433	0.353
Mof_C 	C 	0.3108	0.3871	0.0553	-0.012
Mof_C 	C 	0.3999	0.361	0.1006	-0.019
Mof_C 	C 	0.3488	0.2195	0.1863	0.041
Mof_C 	C 	0.2617	0.2453	0.1411	-0.1
Mof_C 	C 	0.1796	0.1824	0.1622	0.361
Mof_C 	C 	0.9908	0.3149	0.7677	0.293
Mof_C 	C 	0.0566	0.3298	0.817	-0.201
Mof_C 	C 	0.916	0.2935	0.9799	0.137
Mof_C 	C 	0.8521	0.2772	0.9298	-0.087
Mof_C 	C 	0.7395	0.2433	0.9903	0.38
Mof_C 	C 	0.6979	0.0553	0.6129	0.009
Mof_C 	C 	0.7609	0.1006	0.639	-0.028
Mof_C 	C 	0.5683	0.1863	0.7805	0.04
Mof_C 	C 	0.507	0.1411	0.7547	-0.091
Mof_C 	C 	0.362	0.1622	0.8176	0.361
Mof_C 	C 	0.0734	0.6851	0.2323	-0.112
Mof_C 	C 	0.2034	0.6702	0.183	0.049
Mof_C 	C 	0.1894	0.7065	0.0201	0.099
Mof_C 	C 	0.0591	0.7228	0.0702	-0.24
Mof_C 	C 	0.9731	0.7567	0.0097	0.527
Mof_C 	C 	0.3661	0.9447	0.3871	0.01
Mof_C 	C 	0.5005	0.8994	0.361	-0.025
Mof_C 	C 	0.5351	0.8137	0.2195	0.042
Mof_C 	C 	0.4028	0.8589	0.2453	-0.094
Mof_C 	C 	0.3418	0.8378	0.1824	0.366
Mof_N 	N 	0.177	0.8223	0.7119	-0.193
Mof_N 	N 	0.3391	0.9236	0.681	-0.214
Mof_N 	N 	0.6468	0.6709	0.9251	-0.2
Mof_N 	N 	0.8617	0.7245	0.8337	-0.184
Mof_N 	N 	0.7112	0.1777	0.2881	-0.199
Mof_N 	N 	0.9437	0.0764	0.319	-0.184
Mof_N 	N 	0.2428	0.3291	0.0749	-0.204
Mof_N 	N 	0.4199	0.2755	0.1663	-0.208
Mof_N 	N 	0.8889	0.2881	0.8223	-0.238
Mof_N 	N 	0.0201	0.319	0.9236	-0.227
Mof_N 	N 	0.5719	0.0749	0.6709	-0.201
Mof_N 	N 	0.6954	0.1663	0.7245	-0.203
Mof_N 	N 	0.9993	0.7119	0.1777	-0.104
Mof_N 	N 	0.2627	0.681	0.0764	-0.228
Mof_N 	N 	0.3177	0.9251	0.3291	-0.199
Mof_N 	N 	0.5862	0.8337	0.2755	-0.204
Mof_O 	O 	0.916	0.9363	0.7819	-0.386
Mof_O 	O 	0.9445	0.0895	0.7553	-0.424
Mof_O 	O 	0.4315	0.7897	0.8883	-0.412
Mof_O 	O 	0.5314	0.89	0.77	-0.423
Mof_O 	O 	0.159	0.6091	0.7427	-0.761
Mof_O 	O 	0.6164	0.9024	0.536	-0.679
Mof_O 	O 	0.3402	0.3926	0.7	-0.875
Mof_O 	O 	0.3639	0.5267	0.8135	-0.813
Mof_O 	O 	0.4074	0.1021	0.5545	-0.728
Mof_O 	O 	0.9984	0.7872	0.6262	-0.684
Mof_O 	O 	0.165	0.674	0.4342	-0.892
Mof_O 	O 	0.6342	0.0637	0.2181	-0.394
Mof_O 	O 	0.7893	0.9105	0.2447	-0.415
Mof_O 	O 	0.1095	0.2103	0.1117	-0.447
Mof_O 	O 	0.1914	0.11	0.23	-0.437
Mof_O 	O 	0.5108	0.3909	0.2573	-0.743
Mof_O 	O 	0.0548	0.0976	0.464	-0.713
Mof_O 	O 	0.4328	0.6074	0.3	-0.872
Mof_O 	O 	0.7041	0.4733	0.1865	-0.812
Mof_O 	O 	0.064	0.8979	0.4455	-0.759
Mof_O 	O 	0.4118	0.2128	0.3738	-0.746
Mof_O 	O 	0.2732	0.326	0.5658	-0.881
Mof_O 	O 	0.6979	0.2181	0.9363	-0.395
Mof_O 	O 	0.6998	0.2447	0.0895	-0.438
Mof_O 	O 	0.3198	0.1117	0.7897	-0.42
Mof_O 	O 	0.3014	0.23	0.89	-0.423
Mof_O 	O 	0.9017	0.2573	0.6091	-0.7
Mof_O 	O 	0.1524	0.464	0.9024	-0.7
Mof_O 	O 	0.0402	0.3	0.3926	-0.915
Mof_O 	O 	0.1774	0.1865	0.5267	-0.824
Mof_O 	O 	0.9619	0.4455	0.1021	-0.69
Mof_O 	O 	0.6246	0.3738	0.7872	-0.742
Mof_O 	O 	0.5992	0.5658	0.674	-0.872
Mof_O 	O 	0.8523	0.7819	0.0637	-0.433
Mof_O 	O 	0.034	0.7553	0.9105	-0.519
Mof_O 	O 	0.2212	0.8883	0.2103	-0.43
Mof_O 	O 	0.4214	0.77	0.11	-0.43
Mof_O 	O 	0.7681	0.7427	0.3909	-0.733
Mof_O 	O 	0.5188	0.536	0.0976	-0.682
Mof_O 	O 	0.7328	0.7	0.6074	-0.865
Mof_O 	O 	0.8906	0.8135	0.4733	-0.779
Mof_O 	O 	0.5095	0.5545	0.8979	-0.721
Mof_O 	O 	0.7856	0.6262	0.2128	-0.738
Mof_O 	O 	0.839	0.4342	0.326	-0.859
Mof_O 	O 	0.3617	0.5	0.5	-0.973
Mof_O 	O 	0.8617	0.5	0.5	-0.946
_end
