data_functionalizedCrystal
_audit_creation_method	'EQeq! by Chris Wilmer'
_symmetry_space_group_name_H-M	'P1'
_symmetry_Int_Tables_number	1
_symmetry_cell_setting	triclinic
loop_
_symmetry_equiv_pos_as_xyz
  x,y,z
_cell_length_a	10.1588
_cell_length_b	12.7919
_cell_length_c	23.0055
_cell_angle_alpha	104.316
_cell_angle_beta	90
_cell_angle_gamma	113.396
loop_
_atom_site_label
_atom_site_type_symbol
_atom_site_fract_x
_atom_site_fract_y
_atom_site_fract_z
_atom_site_charge
Mof_Pr	Pr	0.02275	0.63658	0.72564	2.334
Mof_Pr	Pr	0.14588	0.8345	0.60034	2.373
Mof_Pr	Pr	0.6159	0.60958	0.69696	2.148
Mof_Pr	Pr	0.55884	0.87196	0.64042	2.133
Mof_Pr	Pr	0.61383	0.63658	0.22564	2.469
Mof_Pr	Pr	0.68862	0.8345	0.10034	2.463
Mof_Pr	Pr	0.99368	0.60958	0.19696	2.227
Mof_Pr	Pr	0.31312	0.87196	0.14042	2.096
Mof_P 	P 	0.8824	0.8602	0.71376	0.51
Mof_P 	P 	0.2913	0.616	0.62056	0.514
Mof_P 	P 	0.8167	0.5552	0.60114	0.413
Mof_P 	P 	0.3406	0.9106	0.72913	0.41
Mof_P 	P 	0.9778	0.8602	0.21376	0.557
Mof_P 	P 	0.3247	0.616	0.12056	0.521
Mof_P 	P 	0.7385	0.5552	0.10114	0.414
Mof_P 	P 	0.57	0.9106	0.22913	0.414
Mof_H 	H 	0.2002	0.3732	0.8367	0.096
Mof_H 	H 	0.9541	0.1482	0.8714	0.054
Mof_H 	H 	0.915	0.3298	0.848	0.013
Mof_H 	H 	0.1625	0.1184	0.742	0.049
Mof_H 	H 	0.1372	0.2982	0.7129	0.01
Mof_H 	H 	0.02	0.0932	0.5029	0.074
Mof_H 	H 	0.9927	0.3274	0.5768	0.089
Mof_H 	H 	0.0452	0.1826	0.6266	0.004
Mof_H 	H 	0.2634	0.3194	0.4672	0.039
Mof_H 	H 	0.3114	0.1606	0.5074	0.03
Mof_H 	H 	0.6829	0.3796	0.3324	0.099
Mof_H 	H 	0.8362	0.3142	0.4329	0.05
Mof_H 	H 	0.9699	0.4414	0.3597	0.029
Mof_H 	H 	0.5988	0.4536	0.4705	0.035
Mof_H 	H 	0.6983	0.5944	0.3983	0
Mof_H 	H 	0.5621	0.0908	0.9878	0.064
Mof_H 	H 	0.2648	0.9636	0.9812	0.027
Mof_H 	H 	0.3083	0.1058	0.9067	0.013
Mof_H 	H 	0.615	0.0508	0.8528	0.007
Mof_H 	H 	0.5731	0.882	0.9179	0.051
Mof_H 	H 	0.173	0.3732	0.3367	0.079
Mof_H 	H 	0.1941	0.1482	0.3714	0.041
Mof_H 	H 	0.4148	0.3298	0.348	0.024
Mof_H 	H 	0.9559	0.1184	0.242	0.084
Mof_H 	H 	0.161	0.2982	0.2129	0.007
Mof_H 	H 	0.0732	0.0932	0.0029	0.095
Mof_H 	H 	0.3347	0.3274	0.0768	0.035
Mof_H 	H 	0.1374	0.1826	0.1266	0.006
Mof_H 	H 	0.056	0.3194	0.9672	0.056
Mof_H 	H 	0.8492	0.1606	0.0074	-0.003
Mof_H 	H 	0.6967	0.3796	0.8324	0.101
Mof_H 	H 	0.478	0.3142	0.9329	0.047
Mof_H 	H 	0.4715	0.4414	0.8597	0.018
Mof_H 	H 	0.8548	0.4536	0.9705	0.045
Mof_H 	H 	0.8961	0.5944	0.8983	0.009
Mof_H 	H 	0.5287	0.0908	0.4878	0.062
Mof_H 	H 	0.6988	0.9636	0.4812	0.037
Mof_H 	H 	0.7975	0.1058	0.4067	0.024
Mof_H 	H 	0.4358	0.0508	0.3528	0.007
Mof_H 	H 	0.3089	0.882	0.4179	0.043
Mof_C 	C 	0.9486	0.9858	0.7824	-0.095
Mof_C 	C 	0.1189	0.3606	0.8089	-0.233
Mof_C 	C 	0.9646	0.174	0.8365	-0.033
Mof_C 	C 	0.9808	0.2976	0.8349	0.056
Mof_C 	C 	0.0991	0.154	0.7533	-0.059
Mof_C 	C 	0.1223	0.2762	0.7488	0.009
Mof_C 	C 	0.1381	0.481	0.8018	0.391
Mof_C 	C 	0.2375	0.499	0.5501	-0.099
Mof_C 	C 	0.0979	0.1224	0.5357	-0.158
Mof_C 	C 	0.0709	0.3068	0.5762	-0.107
Mof_C 	C 	0.0655	0.2004	0.5899	0.014
Mof_C 	C 	0.2468	0.3008	0.5039	-0.037
Mof_C 	C 	0.2386	0.1876	0.5139	-0.003
Mof_C 	C 	0.1031	0.0146	0.555	0.358
Mof_C 	C 	0.7859	0.43	0.5334	-0.047
Mof_C 	C 	0.7646	0.456	0.3493	-0.242
Mof_C 	C 	0.8431	0.3872	0.4295	-0.031
Mof_C 	C 	0.8828	0.4306	0.3757	0.021
Mof_C 	C 	0.6865	0.4784	0.4544	-0.034
Mof_C 	C 	0.7123	0.5278	0.4004	0.02
Mof_C 	C 	0.8076	0.5168	0.2974	0.583
Mof_C 	C 	0.377	0.0268	0.7994	-0.023
Mof_C 	C 	0.496	0.007	0.9759	-0.064
Mof_C 	C 	0.3432	0.9958	0.9606	-0.112
Mof_C 	C 	0.3371	0.0452	0.9062	0.047
Mof_C 	C 	0.5362	0.0058	0.8696	0.062
Mof_C 	C 	0.5446	0.9438	0.921	-0.114
Mof_C 	C 	0.5022	0.9516	0.0286	0.45
Mof_C 	C 	0.0372	0.9858	0.2824	-0.153
Mof_C 	C 	0.2417	0.3606	0.3089	-0.184
Mof_C 	C 	0.2094	0.174	0.3365	-0.029
Mof_C 	C 	0.3168	0.2976	0.3349	-0.004
Mof_C 	C 	0.0549	0.154	0.2533	-0.075
Mof_C 	C 	0.1539	0.2762	0.2488	0.007
Mof_C 	C 	0.3429	0.481	0.3018	0.383
Mof_C 	C 	0.2615	0.499	0.0501	-0.1
Mof_C 	C 	0.0245	0.1224	0.0357	-0.239
Mof_C 	C 	0.2359	0.3068	0.0762	-0.044
Mof_C 	C 	0.1349	0.2004	0.0899	0.013
Mof_C 	C 	0.054	0.3008	0.0039	-0.111
Mof_C 	C 	0.949	0.1876	0.0139	0.097
Mof_C 	C 	0.9115	0.0146	0.055	0.397
Mof_C 	C 	0.6441	0.43	0.0334	-0.061
Mof_C 	C 	0.6914	0.456	0.8493	-0.238
Mof_C 	C 	0.5441	0.3872	0.9295	-0.036
Mof_C 	C 	0.5478	0.4306	0.8757	0.018
Mof_C 	C 	0.7919	0.4784	0.9544	-0.032
Mof_C 	C 	0.8155	0.5278	0.9004	0.019
Mof_C 	C 	0.7092	0.5168	0.7974	0.569
Mof_C 	C 	0.6498	0.0268	0.2994	-0.018
Mof_C 	C 	0.511	0.007	0.4759	-0.072
Mof_C 	C 	0.6526	0.9958	0.4606	-0.105
Mof_C 	C 	0.7081	0.0452	0.4062	0.048
Mof_C 	C 	0.4696	0.0058	0.3696	0.057
Mof_C 	C 	0.3992	0.9438	0.421	-0.114
Mof_C 	C 	0.4494	0.9516	0.5286	0.455
Mof_N 	N 	0.9675	0.1016	0.7769	-0.073
Mof_N 	N 	0.2253	0.384	0.5603	-0.099
Mof_N 	N 	0.8154	0.4748	0.4778	-0.105
Mof_N 	N 	0.3841	0.981	0.8529	-0.162
Mof_N 	N 	0.1341	0.1016	0.2769	-0.081
Mof_N 	N 	0.1587	0.384	0.0603	-0.103
Mof_N 	N 	0.6594	0.4748	0.9778	-0.103
Mof_N 	N 	0.5969	0.981	0.3529	-0.159
Mof_O 	O 	0.8768	0.75	0.731	-0.688
Mof_O 	O 	0.7214	0.832	0.6969	-0.697
Mof_O 	O 	0.4476	0.6462	0.6419	-0.682
Mof_O 	O 	0.4445	0.8536	0.7339	-0.518
Mof_O 	O 	0.2975	0.7286	0.6013	-0.702
Mof_O 	O 	0.1911	0.583	0.6678	-0.577
Mof_O 	O 	0.9741	0.6474	0.6098	-0.626
Mof_O 	O 	0.7948	0.502	0.6558	-0.58
Mof_O 	O 	0.7062	0.609	0.5983	-0.511
Mof_O 	O 	0.3775	0.9666	0.6752	-0.597
Mof_O 	O 	0.7417	0.5704	0.2883	-0.683
Mof_O 	O 	0.0189	0.9062	0.5279	-0.51
Mof_O 	O 	0.4243	0.9728	0.0699	-0.631
Mof_O 	O 	0.9725	0.8924	0.6636	-0.507
Mof_O 	O 	0.1831	0.831	0.7192	-0.662
Mof_O 	O 	0.1912	0.0378	0.5999	-0.469
Mof_O 	O 	0.5799	0.8998	0.0286	-0.6
Mof_O 	O 	0.2432	0.5736	0.8328	-0.365
Mof_O 	O 	0.9026	0.498	0.2681	-0.643
Mof_O 	O 	0.0466	0.4786	0.7643	-0.535
Mof_O 	O 	0.8732	0.75	0.231	-0.72
Mof_O 	O 	0.1106	0.832	0.1969	-0.732
Mof_O 	O 	0.1986	0.6462	0.1419	-0.705
Mof_O 	O 	0.4091	0.8536	0.2339	-0.521
Mof_O 	O 	0.4311	0.7286	0.1013	-0.708
Mof_O 	O 	0.3919	0.583	0.1678	-0.59
Mof_O 	O 	0.6733	0.6474	0.1098	-0.67
Mof_O 	O 	0.7072	0.502	0.1558	-0.606
Mof_O 	O 	0.9028	0.609	0.0983	-0.513
Mof_O 	O 	0.5891	0.9666	0.1752	-0.6
Mof_O 	O 	0.8287	0.5704	0.7883	-0.65
Mof_O 	O 	0.8873	0.9062	0.0279	-0.498
Mof_O 	O 	0.5485	0.9728	0.5699	-0.627
Mof_O 	O 	0.9199	0.8924	0.1636	-0.537
Mof_O 	O 	0.6479	0.831	0.2192	-0.666
Mof_O 	O 	0.8466	0.0378	0.0999	-0.477
Mof_O 	O 	0.3199	0.8998	0.5286	-0.593
Mof_O 	O 	0.3304	0.5736	0.3328	-0.368
Mof_O 	O 	0.5954	0.498	0.7681	-0.636
Mof_O 	O 	0.432	0.4786	0.2643	-0.529
_end
