data_functionalizedCrystal
_audit_creation_method	'EQeq! by Chris Wilmer'
_symmetry_space_group_name_H-M	'P1'
_symmetry_Int_Tables_number	1
_symmetry_cell_setting	triclinic
loop_
_symmetry_equiv_pos_as_xyz
  x,y,z
_cell_length_a	13.9921
_cell_length_b	13.9921
_cell_length_c	25.705
_cell_angle_alpha	90
_cell_angle_beta	90
_cell_angle_gamma	120
loop_
_atom_site_label
_atom_site_type_symbol
_atom_site_fract_x
_atom_site_fract_y
_atom_site_fract_z
_atom_site_charge
Mof_O 	O 	0.15	0.1201	0.44972	-0.691
Mof_C 	C 	0.2493	0.1816	0.437	0.597
Mof_C 	C 	0.3255	0.2733	0.4719	-1.063
Mof_H 	H 	0.3835	0.3304	0.4516	0.309
Mof_H 	H 	0.3568	0.2458	0.497	0.301
Mof_H 	H 	0.2854	0.3025	0.4896	0.31
Mof_N 	N 	0.288	0.1683	0.3934	-0.318
Mof_H 	H 	0.3595	0.21	0.3845	0.106
Mof_C 	C 	0.2228	0.0796	0.3563	-0.015
Mof_H 	H 	0.2498	0.105	0.3214	0.001
Mof_H 	H 	0.1464	0.0619	0.3578	0.008
Mof_C 	C 	0.2291	0.9763	0.3677	-0.069
Mof_H 	H 	0.3059	0.995	0.3683	0.04
Mof_H 	H 	0.1981	0.9485	0.4018	0.032
Mof_C 	C 	0.168	0.8873	0.3279	-0.127
Mof_H 	H 	0.202	0.9145	0.2942	0.051
Mof_H 	H 	0.0927	0.8728	0.3258	0.05
Mof_O 	O 	0.81667	0.45343	0.78305	-0.678
Mof_C 	C 	0.91597	0.51493	0.77033	0.513
Mof_C 	C 	0.99217	0.60663	0.80523	-0.716
Mof_H 	H 	0.05017	0.66373	0.78493	0.188
Mof_H 	H 	0.02347	0.57913	0.83033	0.174
Mof_H 	H 	0.95207	0.63583	0.82293	0.215
Mof_N 	N 	0.95467	0.50163	0.72673	-0.275
Mof_H 	H 	0.02617	0.54333	0.71783	0.074
Mof_C 	C 	0.88947	0.41293	0.68963	0.026
Mof_H 	H 	0.91647	0.43833	0.65473	0.004
Mof_H 	H 	0.81307	0.39523	0.69113	0.01
Mof_C 	C 	0.89577	0.30963	0.70103	-0.123
Mof_H 	H 	0.97257	0.32833	0.70163	0.052
Mof_H 	H 	0.86477	0.28183	0.73513	0.04
Mof_C 	C 	0.83467	0.22063	0.66123	-0.104
Mof_H 	H 	0.86867	0.24783	0.62753	0.041
Mof_H 	H 	0.75937	0.20613	0.65913	0.044
Mof_O 	O 	0.48333	0.78677	0.11639	-0.714
Mof_C 	C 	0.58263	0.84827	0.10367	0.637
Mof_C 	C 	0.65883	0.93997	0.13857	-1.129
Mof_H 	H 	0.71683	0.99707	0.11827	0.34
Mof_H 	H 	0.69013	0.91247	0.16367	0.326
Mof_H 	H 	0.61873	0.96917	0.15627	0.34
Mof_N 	N 	0.62133	0.83497	0.06007	-0.334
Mof_H 	H 	0.69283	0.87667	0.05117	0.12
Mof_C 	C 	0.55613	0.74627	0.02297	0.056
Mof_H 	H 	0.58313	0.77167	0.98807	-0.009
Mof_H 	H 	0.47973	0.72857	0.02447	0.002
Mof_C 	C 	0.56243	0.64297	0.03437	-0.155
Mof_H 	H 	0.63923	0.66167	0.03497	0.054
Mof_H 	H 	0.53143	0.61517	0.06847	0.048
Mof_C 	C 	0.50133	0.55397	0.99457	-0.066
Mof_H 	H 	0.53533	0.58117	0.96087	0.026
Mof_H 	H 	0.42603	0.53947	0.99247	0.033
Mof_O 	O 	0.8799	0.0299	0.44972	-0.691
Mof_C 	C 	0.8184	0.0677	0.437	0.647
Mof_C 	C 	0.7267	0.0522	0.4719	-1.233
Mof_H 	H 	0.6696	0.0531	0.4516	0.35
Mof_H 	H 	0.7542	0.111	0.497	0.349
Mof_H 	H 	0.6975	0.9829	0.4896	0.385
Mof_N 	N 	0.8317	0.1197	0.3934	-0.347
Mof_H 	H 	0.79	0.1495	0.3845	0.113
Mof_C 	C 	0.9204	0.1432	0.3563	0.125
Mof_H 	H 	0.895	0.1448	0.3214	-0.033
Mof_H 	H 	0.9381	0.0845	0.3578	-0.017
Mof_C 	C 	0.0237	0.2528	0.3677	-0.243
Mof_H 	H 	0.005	0.3109	0.3683	0.065
Mof_H 	H 	0.0515	0.2496	0.4018	0.066
Mof_C 	C 	0.1127	0.2807	0.3279	-0.002
Mof_H 	H 	0.0855	0.2875	0.2942	-0.003
Mof_H 	H 	0.1272	0.2199	0.3258	0.008
Mof_O 	O 	0.54657	0.36323	0.78305	-0.71
Mof_C 	C 	0.48507	0.40103	0.77033	0.613
Mof_C 	C 	0.39337	0.38553	0.80523	-1.07
Mof_H 	H 	0.33627	0.38643	0.78493	0.307
Mof_H 	H 	0.42087	0.44433	0.83033	0.301
Mof_H 	H 	0.36417	0.31623	0.82293	0.309
Mof_N 	N 	0.49837	0.45303	0.72673	-0.331
Mof_H 	H 	0.45667	0.48283	0.71783	0.11
Mof_C 	C 	0.58707	0.47653	0.68963	0.063
Mof_H 	H 	0.56167	0.47813	0.65473	-0.015
Mof_H 	H 	0.60477	0.41783	0.69113	-0.002
Mof_C 	C 	0.69037	0.58613	0.70103	-0.176
Mof_H 	H 	0.67167	0.64423	0.70163	0.058
Mof_H 	H 	0.71817	0.58293	0.73513	0.055
Mof_C 	C 	0.77937	0.61403	0.66123	-0.029
Mof_H 	H 	0.75217	0.62083	0.62753	0.016
Mof_H 	H 	0.79387	0.55323	0.65913	0.025
Mof_O 	O 	0.21323	0.69657	0.11639	-0.71
Mof_C 	C 	0.15173	0.73437	0.10367	0.613
Mof_C 	C 	0.06003	0.71887	0.13857	-1.062
Mof_H 	H 	0.00293	0.71977	0.11827	0.302
Mof_H 	H 	0.08753	0.77767	0.16367	0.302
Mof_H 	H 	0.03083	0.64957	0.15627	0.301
Mof_N 	N 	0.16503	0.78637	0.06007	-0.335
Mof_H 	H 	0.12333	0.81617	0.05117	0.111
Mof_C 	C 	0.25373	0.80987	0.02297	0.094
Mof_H 	H 	0.22833	0.81147	0.98807	-0.026
Mof_H 	H 	0.27143	0.75117	0.02447	-0.012
Mof_C 	C 	0.35703	0.91947	0.03437	-0.224
Mof_H 	H 	0.33833	0.97757	0.03497	0.083
Mof_H 	H 	0.38483	0.91627	0.06847	0.077
Mof_C 	C 	0.44603	0.94737	0.99457	0.039
Mof_H 	H 	0.41883	0.95417	0.96087	0.004
Mof_H 	H 	0.46053	0.88657	0.99247	0.008
Mof_O 	O 	0.9701	0.85	0.44972	-0.637
Mof_C 	C 	0.9323	0.7507	0.437	0.559
Mof_C 	C 	0.9478	0.6745	0.4719	-0.906
Mof_H 	H 	0.9469	0.6165	0.4516	0.272
Mof_H 	H 	0.889	0.6432	0.497	0.261
Mof_H 	H 	0.0171	0.7146	0.4896	0.245
Mof_N 	N 	0.8803	0.712	0.3934	-0.309
Mof_H 	H 	0.8505	0.6405	0.3845	0.11
Mof_C 	C 	0.8568	0.7772	0.3563	0.029
Mof_H 	H 	0.8552	0.7502	0.3214	0.002
Mof_H 	H 	0.9155	0.8536	0.3578	0.022
Mof_C 	C 	0.7472	0.7709	0.3677	-0.13
Mof_H 	H 	0.6891	0.6941	0.3683	0.045
Mof_H 	H 	0.7504	0.8019	0.4018	0.046
Mof_C 	C 	0.7193	0.832	0.3279	-0.089
Mof_H 	H 	0.7125	0.798	0.2942	0.035
Mof_H 	H 	0.7801	0.9073	0.3258	0.051
Mof_O 	O 	0.63677	0.18333	0.78305	-0.74
Mof_C 	C 	0.59897	0.08403	0.77033	0.713
Mof_C 	C 	0.61447	0.00783	0.80523	-1.42
Mof_H 	H 	0.61357	0.94983	0.78493	0.433
Mof_H 	H 	0.55567	0.97653	0.83033	0.428
Mof_H 	H 	0.68377	0.04793	0.82293	0.411
Mof_N 	N 	0.54697	0.04533	0.72673	-0.377
Mof_H 	H 	0.51717	0.97383	0.71783	0.144
Mof_C 	C 	0.52347	0.11053	0.68963	0.056
Mof_H 	H 	0.52187	0.08353	0.65473	-0.02
Mof_H 	H 	0.58217	0.18693	0.69113	-0.001
Mof_C 	C 	0.41387	0.10423	0.70103	-0.141
Mof_H 	H 	0.35577	0.02743	0.70163	0.037
Mof_H 	H 	0.41707	0.13523	0.73513	0.041
Mof_C 	C 	0.38597	0.16533	0.66123	-0.089
Mof_H 	H 	0.37917	0.13133	0.62753	0.028
Mof_H 	H 	0.44677	0.24063	0.65913	0.04
Mof_O 	O 	0.30343	0.51667	0.11639	-0.707
Mof_C 	C 	0.26563	0.41737	0.10367	0.602
Mof_C 	C 	0.28113	0.34117	0.13857	-1.055
Mof_H 	H 	0.28023	0.28317	0.11827	0.301
Mof_H 	H 	0.22233	0.30987	0.16367	0.291
Mof_H 	H 	0.35043	0.38127	0.15627	0.307
Mof_N 	N 	0.21363	0.37867	0.06007	-0.32
Mof_H 	H 	0.18383	0.30717	0.05117	0.101
Mof_C 	C 	0.19013	0.44387	0.02297	0.005
Mof_H 	H 	0.18853	0.41687	0.98807	-0.003
Mof_H 	H 	0.24883	0.52027	0.02447	0.015
Mof_C 	C 	0.08053	0.43757	0.03437	-0.064
Mof_H 	H 	0.02243	0.36077	0.03497	0.011
Mof_H 	H 	0.08373	0.46857	0.06847	0.012
Mof_C 	C 	0.05263	0.49867	0.99457	-0.196
Mof_H 	H 	0.04583	0.46467	0.96087	0.052
Mof_H 	H 	0.11343	0.57397	0.99247	0.066
Mof_O 	O 	0.85	0.8799	0.55028	-0.657
Mof_C 	C 	0.7507	0.8184	0.563	0.604
Mof_C 	C 	0.6745	0.7267	0.5281	-1.07
Mof_H 	H 	0.6165	0.6696	0.5484	0.312
Mof_H 	H 	0.6432	0.7542	0.503	0.306
Mof_H 	H 	0.7146	0.6975	0.5104	0.316
Mof_N 	N 	0.712	0.8317	0.6066	-0.33
Mof_H 	H 	0.6405	0.79	0.6155	0.113
Mof_C 	C 	0.7772	0.9204	0.6437	0.096
Mof_H 	H 	0.7502	0.895	0.6786	-0.018
Mof_H 	H 	0.8536	0.9381	0.6422	0.003
Mof_C 	C 	0.7709	0.0237	0.6323	-0.209
Mof_H 	H 	0.6941	0.005	0.6317	0.057
Mof_H 	H 	0.8019	0.0515	0.5982	0.061
Mof_C 	C 	0.832	0.1127	0.6721	-0.032
Mof_H 	H 	0.798	0.0855	0.7058	0.01
Mof_H 	H 	0.9073	0.1272	0.6742	0.029
Mof_O 	O 	0.51667	0.21323	0.88361	-0.706
Mof_C 	C 	0.41737	0.15173	0.89633	0.597
Mof_C 	C 	0.34117	0.06003	0.86143	-1.033
Mof_H 	H 	0.28317	0.00293	0.88173	0.288
Mof_H 	H 	0.30987	0.08753	0.83633	0.285
Mof_H 	H 	0.38127	0.03083	0.84373	0.291
Mof_N 	N 	0.37867	0.16503	0.93993	-0.325
Mof_H 	H 	0.30717	0.12333	0.94883	0.1
Mof_C 	C 	0.44387	0.25373	0.97703	0.045
Mof_H 	H 	0.41687	0.22833	0.01193	-0.015
Mof_H 	H 	0.52027	0.27143	0.97553	0.002
Mof_C 	C 	0.43757	0.35703	0.96563	-0.141
Mof_H 	H 	0.36077	0.33833	0.96503	0.044
Mof_H 	H 	0.46857	0.38483	0.93153	0.043
Mof_C 	C 	0.49867	0.44603	0.00543	-0.081
Mof_H 	H 	0.46467	0.41883	0.03913	0.029
Mof_H 	H 	0.57397	0.46053	0.00753	0.038
Mof_O 	O 	0.18333	0.54657	0.21695	-0.741
Mof_C 	C 	0.08403	0.48507	0.22967	0.715
Mof_C 	C 	0.00783	0.39337	0.19477	-1.428
Mof_H 	H 	0.94983	0.33627	0.21507	0.434
Mof_H 	H 	0.97653	0.42087	0.16967	0.431
Mof_H 	H 	0.04793	0.36417	0.17707	0.41
Mof_N 	N 	0.04533	0.49837	0.27327	-0.381
Mof_H 	H 	0.97383	0.45667	0.28217	0.144
Mof_C 	C 	0.11053	0.58707	0.31037	0.074
Mof_H 	H 	0.08353	0.56167	0.34527	-0.025
Mof_H 	H 	0.18693	0.60477	0.30887	-0.007
Mof_C 	C 	0.10423	0.69037	0.29897	-0.178
Mof_H 	H 	0.02743	0.67167	0.29837	0.05
Mof_H 	H 	0.13523	0.71817	0.26487	0.053
Mof_C 	C 	0.16533	0.77937	0.33877	-0.034
Mof_H 	H 	0.13133	0.75217	0.37247	0.013
Mof_H 	H 	0.24063	0.79387	0.34087	0.026
Mof_O 	O 	0.1201	0.9701	0.55028	-0.649
Mof_C 	C 	0.1816	0.9323	0.563	0.551
Mof_C 	C 	0.2733	0.9478	0.5281	-0.882
Mof_H 	H 	0.3304	0.9469	0.5484	0.265
Mof_H 	H 	0.2458	0.889	0.503	0.253
Mof_H 	H 	0.3025	0.0171	0.5104	0.233
Mof_N 	N 	0.1683	0.8803	0.6066	-0.301
Mof_H 	H 	0.21	0.8505	0.6155	0.107
Mof_C 	C 	0.0796	0.8568	0.6437	-0.026
Mof_H 	H 	0.105	0.8552	0.6786	0.012
Mof_H 	H 	0.0619	0.9155	0.6422	0.027
Mof_C 	C 	0.9763	0.7472	0.6323	-0.063
Mof_H 	H 	0.995	0.6891	0.6317	0.037
Mof_H 	H 	0.9485	0.7504	0.5982	0.032
Mof_C 	C 	0.8873	0.7193	0.6721	-0.136
Mof_H 	H 	0.9145	0.7125	0.7058	0.056
Mof_H 	H 	0.8728	0.7801	0.6742	0.061
Mof_O 	O 	0.78677	0.30343	0.88361	-0.712
Mof_C 	C 	0.84827	0.26563	0.89633	0.625
Mof_C 	C 	0.93997	0.28113	0.86143	-1.11
Mof_H 	H 	0.99707	0.28023	0.88173	0.331
Mof_H 	H 	0.91247	0.22233	0.83633	0.315
Mof_H 	H 	0.96917	0.35043	0.84373	0.334
Mof_N 	N 	0.83497	0.21363	0.93993	-0.326
Mof_H 	H 	0.87667	0.18383	0.94883	0.112
Mof_C 	C 	0.74627	0.19013	0.97703	0.014
Mof_H 	H 	0.77167	0.18853	0.01193	-0.001
Mof_H 	H 	0.72857	0.24883	0.97553	0.014
Mof_C 	C 	0.64297	0.08053	0.96563	-0.073
Mof_H 	H 	0.66167	0.02243	0.96503	0.018
Mof_H 	H 	0.61517	0.08373	0.93153	0.015
Mof_C 	C 	0.55397	0.05263	0.00543	-0.188
Mof_H 	H 	0.58117	0.04583	0.03913	0.05
Mof_H 	H 	0.53947	0.11343	0.00753	0.063
Mof_O 	O 	0.45343	0.63677	0.21695	-0.711
Mof_C 	C 	0.51493	0.59897	0.22967	0.619
Mof_C 	C 	0.60663	0.61447	0.19477	-1.09
Mof_H 	H 	0.66373	0.61357	0.21507	0.319
Mof_H 	H 	0.57913	0.55567	0.16967	0.31
Mof_H 	H 	0.63583	0.68377	0.17707	0.32
Mof_N 	N 	0.50163	0.54697	0.27327	-0.327
Mof_H 	H 	0.54333	0.51717	0.28217	0.111
Mof_C 	C 	0.41293	0.52347	0.31037	0.032
Mof_H 	H 	0.43833	0.52187	0.34527	-0.006
Mof_H 	H 	0.39523	0.58217	0.30887	0.007
Mof_C 	C 	0.30963	0.41387	0.29897	-0.114
Mof_H 	H 	0.32833	0.35577	0.29837	0.039
Mof_H 	H 	0.28183	0.41707	0.26487	0.034
Mof_C 	C 	0.22063	0.38597	0.33877	-0.124
Mof_H 	H 	0.24783	0.37917	0.37247	0.042
Mof_H 	H 	0.20613	0.44677	0.34087	0.049
Mof_O 	O 	0.0299	0.15	0.55028	-0.713
Mof_C 	C 	0.0677	0.2493	0.563	0.649
Mof_C 	C 	0.0522	0.3255	0.5281	-1.25
Mof_H 	H 	0.0531	0.3835	0.5484	0.354
Mof_H 	H 	0.111	0.3568	0.503	0.352
Mof_H 	H 	0.9829	0.2854	0.5104	0.391
Mof_N 	N 	0.1197	0.288	0.6066	-0.343
Mof_H 	H 	0.1495	0.3595	0.6155	0.109
Mof_C 	C 	0.1432	0.2228	0.6437	0.069
Mof_H 	H 	0.1448	0.2498	0.6786	-0.024
Mof_H 	H 	0.0845	0.1464	0.6422	-0.016
Mof_C 	C 	0.2528	0.2291	0.6323	-0.172
Mof_H 	H 	0.3109	0.3059	0.6317	0.056
Mof_H 	H 	0.2496	0.1981	0.5982	0.051
Mof_C 	C 	0.2807	0.168	0.6721	-0.05
Mof_H 	H 	0.2875	0.202	0.7058	0.018
Mof_H 	H 	0.2199	0.0927	0.6742	0.019
Mof_O 	O 	0.69657	0.48333	0.88361	-0.713
Mof_C 	C 	0.73437	0.58263	0.89633	0.63
Mof_C 	C 	0.71887	0.65883	0.86143	-1.105
Mof_H 	H 	0.71977	0.71683	0.88173	0.325
Mof_H 	H 	0.77767	0.69013	0.83633	0.319
Mof_H 	H 	0.64957	0.61873	0.84373	0.323
Mof_N 	N 	0.78637	0.62133	0.93993	-0.339
Mof_H 	H 	0.81617	0.69283	0.94883	0.119
Mof_C 	C 	0.80987	0.55613	0.97703	0.095
Mof_H 	H 	0.81147	0.58313	0.01193	-0.021
Mof_H 	H 	0.75117	0.47973	0.97553	-0.011
Mof_C 	C 	0.91947	0.56243	0.96563	-0.229
Mof_H 	H 	0.97757	0.63923	0.96503	0.086
Mof_H 	H 	0.91627	0.53143	0.93153	0.078
Mof_C 	C 	0.94737	0.50133	0.00543	0.047
Mof_H 	H 	0.95417	0.53533	0.03913	0.002
Mof_H 	H 	0.88657	0.42603	0.00753	0.005
Mof_O 	O 	0.36323	0.81667	0.21695	-0.675
Mof_C 	C 	0.40103	0.91597	0.22967	0.505
Mof_C 	C 	0.38553	0.99217	0.19477	-0.687
Mof_H 	H 	0.38643	0.05017	0.21507	0.175
Mof_H 	H 	0.44433	0.02347	0.16967	0.163
Mof_H 	H 	0.31623	0.95207	0.17707	0.205
Mof_N 	N 	0.45303	0.95467	0.27327	-0.274
Mof_H 	H 	0.48283	0.02617	0.28217	0.074
Mof_C 	C 	0.47653	0.88947	0.31037	0.038
Mof_H 	H 	0.47813	0.91647	0.34527	0
Mof_H 	H 	0.41783	0.81307	0.30887	0.007
Mof_C 	C 	0.58613	0.89577	0.29897	-0.149
Mof_H 	H 	0.64423	0.97257	0.29837	0.059
Mof_H 	H 	0.58293	0.86477	0.26487	0.048
Mof_C 	C 	0.61403	0.83467	0.33877	-0.064
Mof_H 	H 	0.62083	0.86867	0.37247	0.03
Mof_H 	H 	0.55323	0.75937	0.34087	0.034
Mof_Nd	Nd	-1.15842e-32	0	0.5	2.657
Mof_Nd	Nd	0.66667	0.33333	0.83333	2.895
Mof_Nd	Nd	0.33333	0.66667	0.16667	2.895
_end
