data_functionalizedCrystal
_audit_creation_method	'EQeq! by Chris Wilmer'
_symmetry_space_group_name_H-M	'P1'
_symmetry_Int_Tables_number	1
_symmetry_cell_setting	triclinic
loop_
_symmetry_equiv_pos_as_xyz
  x,y,z
_cell_length_a	43.39
_cell_length_b	13.602
_cell_length_c	8.773
_cell_angle_alpha	90
_cell_angle_beta	90
_cell_angle_gamma	90
loop_
_atom_site_label
_atom_site_type_symbol
_atom_site_fract_x
_atom_site_fract_y
_atom_site_fract_z
_atom_site_charge
Mof_N 	N 	0.031	0.275	0.442	-0.132
Mof_N 	N 	0.0986	0.375	0.439	-0.131
Mof_N 	N 	0.1591	0.882	0.56	-0.132
Mof_N 	N 	0.227	0.794	0.558	-0.133
Mof_C 	C 	0.015	0.28	0.543	0.001
Mof_C 	C 	0.1076	0.417	0.539	0.012
Mof_C 	C 	0.1445	0.901	0.457	-0.001
Mof_C 	C 	0.2415	0.772	0.457	-0.002
Mof_C 	C 	0.076	0.661	0.895	0.002
Mof_N 	N 	0.469	0.775	0.558	-0.133
Mof_N 	N 	0.4014	0.875	0.561	-0.131
Mof_N 	N 	0.3409	0.382	0.44	-0.132
Mof_N 	N 	0.273	0.294	0.442	-0.132
Mof_C 	C 	0.485	0.78	0.457	-0
Mof_C 	C 	0.3924	0.917	0.461	0.009
Mof_C 	C 	0.3555	0.401	0.543	0.001
Mof_C 	C 	0.2585	0.272	0.543	0
Mof_C 	C 	0.424	0.161	0.105	0.004
Mof_N 	N 	0.969	0.725	0.942	-0.133
Mof_N 	N 	0.9014	0.625	0.939	-0.131
Mof_N 	N 	0.8409	0.118	0.06	-0.13
Mof_N 	N 	0.773	0.206	0.058	-0.131
Mof_C 	C 	0.985	0.72	0.043	-0.001
Mof_C 	C 	0.8924	0.583	0.039	0.011
Mof_C 	C 	0.8555	0.099	0.957	-0
Mof_C 	C 	0.7585	0.228	0.957	-0.002
Mof_C 	C 	0.924	0.339	0.395	0.002
Mof_N 	N 	0.531	0.225	0.058	-0.132
Mof_N 	N 	0.5986	0.125	0.061	-0.13
Mof_N 	N 	0.6591	0.618	0.94	-0.132
Mof_N 	N 	0.727	0.706	0.942	-0.132
Mof_C 	C 	0.515	0.22	0.957	-0
Mof_C 	C 	0.6076	0.083	0.961	0.011
Mof_C 	C 	0.6445	0.599	0.043	-0
Mof_C 	C 	0.7415	0.728	0.043	-0.002
Mof_C 	C 	0.576	0.839	0.605	0.001
Mof_N 	N 	0.969	0.725	0.558	-0.133
Mof_N 	N 	0.9014	0.625	0.561	-0.131
Mof_N 	N 	0.8409	0.118	0.44	-0.131
Mof_N 	N 	0.773	0.206	0.442	-0.132
Mof_C 	C 	0.985	0.72	0.457	-0
Mof_C 	C 	0.8924	0.583	0.461	0.011
Mof_C 	C 	0.8555	0.099	0.543	0.002
Mof_C 	C 	0.7585	0.228	0.543	-0
Mof_C 	C 	0.924	0.339	0.105	0.003
Mof_N 	N 	0.531	0.225	0.442	-0.133
Mof_N 	N 	0.5986	0.125	0.439	-0.131
Mof_N 	N 	0.6591	0.618	0.56	-0.132
Mof_N 	N 	0.727	0.706	0.558	-0.133
Mof_C 	C 	0.515	0.22	0.543	0.001
Mof_C 	C 	0.6076	0.083	0.539	0.013
Mof_C 	C 	0.6445	0.599	0.457	0
Mof_C 	C 	0.7415	0.728	0.457	-0.001
Mof_C 	C 	0.576	0.839	0.895	0.001
Mof_N 	N 	0.031	0.275	0.058	-0.132
Mof_N 	N 	0.0986	0.375	0.061	-0.13
Mof_N 	N 	0.1591	0.882	0.94	-0.131
Mof_N 	N 	0.227	0.794	0.942	-0.132
Mof_C 	C 	0.015	0.28	0.957	0
Mof_C 	C 	0.1076	0.417	0.961	0.011
Mof_C 	C 	0.1445	0.901	0.043	-0.003
Mof_C 	C 	0.2415	0.772	0.043	-0.003
Mof_C 	C 	0.076	0.661	0.605	0.002
Mof_N 	N 	0.469	0.775	0.942	-0.132
Mof_N 	N 	0.4014	0.875	0.939	-0.13
Mof_N 	N 	0.3409	0.382	0.06	-0.131
Mof_N 	N 	0.273	0.294	0.058	-0.132
Mof_C 	C 	0.485	0.78	0.043	-0.001
Mof_C 	C 	0.3924	0.917	0.039	0.008
Mof_C 	C 	0.3555	0.401	0.957	0
Mof_C 	C 	0.2585	0.272	0.957	-0.001
Mof_C 	C 	0.424	0.161	0.395	0.003
Mof_Cd	Cd	0.06455	0.3146	0.25	0.391
Mof_Cd	Cd	0.01291	0.6948	0.25	0.276
Mof_Cd	Cd	0.11654	0.9347	0.25	0.272
Mof_N 	N 	0.0873	0.158	0.25	-0.132
Mof_N 	N 	0.045	0.471	0.25	-0.133
Mof_C 	C 	0.0972	0.082	0.25	0.005
Mof_C 	C 	0.0335	0.545	0.25	0.004
Mof_C 	C 	0.0548	0.791	0.25	-0.06
Mof_C 	C 	0.0762	0.832	0.25	-0.06
Mof_Cd	Cd	0.43545	0.8146	0.75	0.39
Mof_Cd	Cd	0.48709	0.1948	0.75	0.277
Mof_Cd	Cd	0.38346	0.4347	0.75	0.276
Mof_N 	N 	0.4127	0.658	0.75	-0.131
Mof_N 	N 	0.455	0.971	0.75	-0.137
Mof_C 	C 	0.4028	0.582	0.75	-0.002
Mof_C 	C 	0.4665	0.045	0.75	0.01
Mof_C 	C 	0.4452	0.291	0.75	-0.059
Mof_C 	C 	0.4238	0.332	0.75	-0.059
Mof_Cd	Cd	0.93545	0.6854	0.75	0.39
Mof_Cd	Cd	0.98709	0.3052	0.75	0.277
Mof_Cd	Cd	0.88346	0.0653	0.75	0.279
Mof_N 	N 	0.9127	0.842	0.75	-0.131
Mof_N 	N 	0.955	0.529	0.75	-0.132
Mof_C 	C 	0.9028	0.918	0.75	-0.005
Mof_C 	C 	0.9665	0.455	0.75	0.004
Mof_C 	C 	0.9452	0.209	0.75	-0.059
Mof_C 	C 	0.9238	0.168	0.75	-0.059
Mof_Cd	Cd	0.56455	0.1854	0.25	0.391
Mof_Cd	Cd	0.51291	0.8052	0.25	0.277
Mof_Cd	Cd	0.61654	0.5653	0.25	0.276
Mof_N 	N 	0.5873	0.342	0.25	-0.131
Mof_N 	N 	0.545	0.029	0.25	-0.127
Mof_C 	C 	0.5972	0.418	0.25	-0.002
Mof_C 	C 	0.5335	0.955	0.25	-0.004
Mof_C 	C 	0.5548	0.709	0.25	-0.059
Mof_C 	C 	0.5762	0.668	0.25	-0.06
Mof_Cd	Cd	0.19273	0.8363	0.75	0.387
Mof_Cd	Cd	0.23129	0.238	0.75	0.266
Mof_Cd	Cd	0.11966	0.4967	0.75	0.3
Mof_N 	N 	0.1682	0.681	0.75	-0.134
Mof_N 	N 	0.2117	0	0.75	-0.127
Mof_N 	N 	0.1668	0.36	0.75	-0.146
Mof_C 	C 	0.1535	0.616	0.75	0.011
Mof_C 	C 	0.22	0.079	0.75	0
Mof_C 	C 	0.1853	0.319	0.75	0.034
Mof_N 	N 	0.0752	0.599	0.75	-0.132
Mof_C 	C 	0.0495	0.538	0.75	0.011
Mof_Cd	Cd	0.30727	0.3363	0.25	0.389
Mof_Cd	Cd	0.26871	0.738	0.25	0.265
Mof_Cd	Cd	0.38034	0.9967	0.25	0.293
Mof_N 	N 	0.3318	0.181	0.25	-0.135
Mof_N 	N 	0.2883	0.5	0.25	-0.129
Mof_N 	N 	0.3332	0.86	0.25	-0.147
Mof_C 	C 	0.3465	0.116	0.25	0.017
Mof_C 	C 	0.28	0.579	0.25	-0.002
Mof_C 	C 	0.3147	0.819	0.25	0.032
Mof_N 	N 	0.4248	0.099	0.25	-0.131
Mof_C 	C 	0.4505	0.038	0.25	0.016
Mof_Cd	Cd	0.80727	0.1637	0.25	0.39
Mof_Cd	Cd	0.76871	0.762	0.25	0.265
Mof_Cd	Cd	0.88034	0.5033	0.25	0.3
Mof_N 	N 	0.8318	0.319	0.25	-0.134
Mof_N 	N 	0.7883	-1.21885e-33	0.25	-0.124
Mof_N 	N 	0.8332	0.64	0.25	-0.147
Mof_C 	C 	0.8465	0.384	0.25	0.011
Mof_C 	C 	0.78	0.921	0.25	-0.008
Mof_C 	C 	0.8147	0.681	0.25	0.033
Mof_N 	N 	0.9248	0.401	0.25	-0.132
Mof_C 	C 	0.9505	0.462	0.25	0.011
Mof_Cd	Cd	0.69273	0.6637	0.75	0.388
Mof_Cd	Cd	0.73129	0.262	0.75	0.266
Mof_Cd	Cd	0.61966	0.0033	0.75	0.304
Mof_N 	N 	0.6682	0.819	0.75	-0.134
Mof_N 	N 	0.7117	0.5	0.75	-0.129
Mof_N 	N 	0.6668	0.14	0.75	-0.146
Mof_C 	C 	0.6535	0.884	0.75	0.008
Mof_C 	C 	0.72	0.421	0.75	-0.002
Mof_C 	C 	0.6853	0.181	0.75	0.034
Mof_N 	N 	0.5752	0.901	0.75	-0.132
Mof_C 	C 	0.5495	0.962	0.75	0.008
_end
