data_functionalizedCrystal
_audit_creation_method	'EQeq! by Chris Wilmer'
_symmetry_space_group_name_H-M	'P1'
_symmetry_Int_Tables_number	1
_symmetry_cell_setting	triclinic
loop_
_symmetry_equiv_pos_as_xyz
  x,y,z
_cell_length_a	22.256
_cell_length_b	13.489
_cell_length_c	8.868
_cell_angle_alpha	90
_cell_angle_beta	90
_cell_angle_gamma	90
loop_
_atom_site_label
_atom_site_type_symbol
_atom_site_fract_x
_atom_site_fract_y
_atom_site_fract_z
_atom_site_charge
Mof_N 	N 	0.0722	0.2971	0.063	-0.13
Mof_N 	N 	0.2094	0.3796	0.061	-0.131
Mof_C 	C 	0.0443	0.298	0.958	-0.005
Mof_C 	C 	0.2371	0.3992	0.957	-0.004
Mof_N 	N 	0.4278	0.7971	0.937	-0.13
Mof_N 	N 	0.2906	0.8796	0.939	-0.131
Mof_C 	C 	0.4557	0.798	0.042	-0.006
Mof_C 	C 	0.2629	0.8992	0.043	-0.007
Mof_N 	N 	0.9278	0.7029	0.563	-0.131
Mof_N 	N 	0.7906	0.6204	0.561	-0.132
Mof_C 	C 	0.9557	0.702	0.458	-0.005
Mof_C 	C 	0.7629	0.6008	0.457	-0.005
Mof_N 	N 	0.5722	0.2029	0.437	-0.131
Mof_N 	N 	0.7094	0.1204	0.439	-0.132
Mof_C 	C 	0.5443	0.202	0.542	-0.005
Mof_C 	C 	0.7371	0.1008	0.543	-0.005
Mof_N 	N 	0.9278	0.7029	0.937	-0.131
Mof_N 	N 	0.7906	0.6204	0.939	-0.132
Mof_C 	C 	0.9557	0.702	0.042	-0.006
Mof_C 	C 	0.7629	0.6008	0.043	-0.005
Mof_N 	N 	0.5722	0.2029	0.063	-0.13
Mof_N 	N 	0.7094	0.1204	0.061	-0.131
Mof_C 	C 	0.5443	0.202	0.958	-0.006
Mof_C 	C 	0.7371	0.1008	0.957	-0.007
Mof_N 	N 	0.0722	0.2971	0.437	-0.131
Mof_N 	N 	0.2094	0.3796	0.439	-0.132
Mof_C 	C 	0.0443	0.298	0.542	-0.005
Mof_C 	C 	0.2371	0.3992	0.543	-0.005
Mof_N 	N 	0.4278	0.7971	0.563	-0.131
Mof_N 	N 	0.2906	0.8796	0.561	-0.132
Mof_C 	C 	0.4557	0.798	0.458	-0.005
Mof_C 	C 	0.2629	0.8992	0.457	-0.005
Mof_Cd	Cd	0.14225	0.3369	0.25	0.386
Mof_N 	N 	0.0979	0.494	0.25	-0.137
Mof_N 	N 	0.1774	0.175	0.25	-0.134
Mof_C 	C 	0.067	0.556	0.25	0.009
Mof_C 	C 	0.1897	0.095	0.25	0.003
Mof_Cd	Cd	0.35775	0.8369	0.75	0.386
Mof_N 	N 	0.4021	0.994	0.75	-0.137
Mof_N 	N 	0.3226	0.675	0.75	-0.134
Mof_C 	C 	0.433	0.056	0.75	0.008
Mof_C 	C 	0.3103	0.595	0.75	0.002
Mof_Cd	Cd	0.85775	0.6631	0.75	0.386
Mof_N 	N 	0.9021	0.506	0.75	-0.137
Mof_N 	N 	0.8226	0.825	0.75	-0.134
Mof_C 	C 	0.933	0.444	0.75	0.009
Mof_C 	C 	0.8103	0.905	0.75	0.003
Mof_Cd	Cd	0.64225	0.1631	0.25	0.386
Mof_N 	N 	0.5979	0.006	0.25	-0.137
Mof_N 	N 	0.6774	0.325	0.25	-0.134
Mof_C 	C 	0.567	0.944	0.25	0.008
Mof_C 	C 	0.6897	0.405	0.25	0.002
Mof_Cd	Cd	0.28819	0.43381	0.75	0.277
Mof_Cd	Cd	0.99165	0.3063	0.75	0.269
Mof_C 	C 	0.9129	0.196	0.75	-0.054
Mof_C 	C 	0.3702	0.348	0.75	-0.072
Mof_Cd	Cd	0.21181	0.93381	0.25	0.277
Mof_Cd	Cd	0.50835	0.8063	0.25	0.269
Mof_C 	C 	0.5871	0.696	0.25	-0.054
Mof_C 	C 	0.1298	0.848	0.25	-0.072
Mof_Cd	Cd	0.71181	0.56619	0.25	0.277
Mof_Cd	Cd	0.00835	0.6937	0.25	0.269
Mof_C 	C 	0.0871	0.804	0.25	-0.054
Mof_C 	C 	0.6298	0.652	0.25	-0.072
Mof_Cd	Cd	0.78819	0.06619	0.75	0.277
Mof_Cd	Cd	0.49165	0.1937	0.75	0.269
Mof_C 	C 	0.4129	0.304	0.75	-0.054
Mof_C 	C 	0.8702	0.152	0.75	-0.072
_end
