data_functionalizedCrystal
_audit_creation_method	'EQeq! by Chris Wilmer'
_symmetry_space_group_name_H-M	'P1'
_symmetry_Int_Tables_number	1
_symmetry_cell_setting	triclinic
loop_
_symmetry_equiv_pos_as_xyz
  x,y,z
_cell_length_a	8.1881
_cell_length_b	16.5888
_cell_length_c	26.7362
_cell_angle_alpha	90
_cell_angle_beta	90
_cell_angle_gamma	100.939
loop_
_atom_site_label
_atom_site_type_symbol
_atom_site_fract_x
_atom_site_fract_y
_atom_site_fract_z
_atom_site_charge
Mof_Nd	Nd	0.78511	0.76964	0.7441	2.453
Mof_Nd	Nd	0.71489	0.23036	0.2441	2.46
Mof_Nd	Nd	0.21489	0.23036	0.2559	2.454
Mof_Nd	Nd	0.28511	0.76964	0.7559	2.46
Mof_H 	H 	0.103	0.579	0.814	0.083
Mof_H 	H 	0.8164	0.4689	0.7828	0.051
Mof_H 	H 	0.9877	0.4852	0.7546	0.038
Mof_H 	H 	0.1134	0.4259	0.82	0.056
Mof_H 	H 	0.9564	0.3626	0.8023	0.057
Mof_H 	H 	0.9206	0.4845	0.9279	0.055
Mof_H 	H 	0.0911	0.5025	0.8993	0.051
Mof_H 	H 	0.7942	0.5489	0.866	0.043
Mof_H 	H 	0.9539	0.6102	0.8837	0.024
Mof_H 	H 	0.503	0.993	0.782	0.085
Mof_H 	H 	0.6841	0.996	0.8734	0.03
Mof_H 	H 	0.5	0.9493	0.8664	-0.007
Mof_H 	H 	0.5072	0.0802	0.9056	0.059
Mof_H 	H 	0.4076	0.0744	0.8551	0.051
Mof_H 	H 	0.5708	0.1514	0.7781	0.055
Mof_H 	H 	0.7548	0.195	0.7888	0.061
Mof_H 	H 	0.7422	0.0689	0.7453	0.016
Mof_H 	H 	0.84	0.0702	0.7958	0.038
Mof_H 	H 	0.361	0.322	0.086	0.097
Mof_H 	H 	0.7132	0.3367	0.086	0.029
Mof_H 	H 	0.6229	0.4112	0.0942	0.023
Mof_H 	H 	0.3509	0.1796	0.0781	0.016
Mof_H 	H 	0.546	0.194	0.0776	0.013
Mof_H 	H 	0.3478	0.2466	0.0016	0.058
Mof_H 	H 	0.4551	0.1782	0.995	0.06
Mof_H 	H 	0.711	0.4067	0.0112	0.059
Mof_H 	H 	0.5165	0.3967	0.0136	0.056
Mof_H 	H 	0.397	0.421	0.314	0.077
Mof_H 	H 	0.6836	0.5311	0.2828	0.054
Mof_H 	H 	0.5123	0.5148	0.2546	0.042
Mof_H 	H 	0.3866	0.5741	0.32	0.051
Mof_H 	H 	0.5436	0.6374	0.3023	0.054
Mof_H 	H 	0.5794	0.5155	0.4279	0.052
Mof_H 	H 	0.4089	0.4975	0.3993	0.047
Mof_H 	H 	0.7058	0.4511	0.366	0.046
Mof_H 	H 	0.5461	0.3898	0.3837	0.027
Mof_H 	H 	0.997	0.007	0.282	0.086
Mof_H 	H 	0.8159	0.004	0.3734	0.028
Mof_H 	H 	1.25206e-18	0.0507	0.3664	-0.011
Mof_H 	H 	0.9928	0.9198	0.4056	0.06
Mof_H 	H 	0.0924	0.9256	0.3551	0.05
Mof_H 	H 	0.9292	0.8486	0.2781	0.056
Mof_H 	H 	0.7452	0.805	0.2888	0.061
Mof_H 	H 	0.7578	0.9311	0.2453	0.017
Mof_H 	H 	0.66	0.9298	0.2958	0.038
Mof_H 	H 	0.139	0.678	0.586	0.097
Mof_H 	H 	0.7868	0.6633	0.586	0.029
Mof_H 	H 	0.8771	0.5888	0.5942	0.023
Mof_H 	H 	0.1491	0.8204	0.5781	0.014
Mof_H 	H 	0.954	0.806	0.5776	0.01
Mof_H 	H 	0.1522	0.7534	0.5016	0.059
Mof_H 	H 	0.0449	0.8218	0.495	0.061
Mof_H 	H 	0.789	0.5933	0.5112	0.059
Mof_H 	H 	0.9835	0.6033	0.5136	0.056
Mof_H 	H 	0.897	0.421	0.186	0.081
Mof_H 	H 	0.1836	0.5311	0.2172	0.051
Mof_H 	H 	0.0123	0.5148	0.2454	0.039
Mof_H 	H 	0.8866	0.5741	0.18	0.055
Mof_H 	H 	0.0436	0.6374	0.1977	0.057
Mof_H 	H 	0.0794	0.5155	0.0721	0.055
Mof_H 	H 	0.9089	0.4975	0.1007	0.05
Mof_H 	H 	0.2058	0.4511	0.134	0.044
Mof_H 	H 	0.0461	0.3898	0.1163	0.024
Mof_H 	H 	0.497	0.007	0.218	0.085
Mof_H 	H 	0.3159	0.004	0.1266	0.03
Mof_H 	H 	0.5	0.0507	0.1336	-0.007
Mof_H 	H 	0.4928	0.9198	0.0944	0.059
Mof_H 	H 	0.5924	0.9256	0.1449	0.051
Mof_H 	H 	0.4292	0.8486	0.2219	0.055
Mof_H 	H 	0.2452	0.805	0.2112	0.061
Mof_H 	H 	0.2578	0.9311	0.2547	0.016
Mof_H 	H 	0.16	0.9298	0.2042	0.038
Mof_H 	H 	0.639	0.678	0.914	0.097
Mof_H 	H 	0.2868	0.6633	0.914	0.029
Mof_H 	H 	0.3771	0.5888	0.9058	0.023
Mof_H 	H 	0.6491	0.8204	0.9219	0.016
Mof_H 	H 	0.454	0.806	0.9224	0.013
Mof_H 	H 	0.6522	0.7534	0.9984	0.058
Mof_H 	H 	0.5449	0.8218	0.005	0.06
Mof_H 	H 	0.289	0.5933	0.9888	0.059
Mof_H 	H 	0.4835	0.6033	0.9864	0.056
Mof_H 	H 	0.603	0.579	0.686	0.077
Mof_H 	H 	0.3164	0.4689	0.7172	0.054
Mof_H 	H 	0.4877	0.4852	0.7454	0.042
Mof_H 	H 	0.6134	0.4259	0.68	0.051
Mof_H 	H 	0.4564	0.3626	0.6977	0.054
Mof_H 	H 	0.4206	0.4845	0.5721	0.052
Mof_H 	H 	0.5911	0.5025	0.6007	0.047
Mof_H 	H 	0.2942	0.5489	0.634	0.046
Mof_H 	H 	0.4539	0.6102	0.6163	0.027
Mof_H 	H 	0.003	0.993	0.718	0.085
Mof_H 	H 	0.1841	0.996	0.6266	0.031
Mof_H 	H 	-2.88141e-17	0.9493	0.6336	-0.005
Mof_H 	H 	0.0072	0.0802	0.5944	0.058
Mof_H 	H 	0.9076	0.0744	0.6449	0.048
Mof_H 	H 	0.0708	0.1514	0.7219	0.055
Mof_H 	H 	0.2548	0.195	0.7112	0.061
Mof_H 	H 	0.2422	0.0689	0.7547	0.017
Mof_H 	H 	0.34	0.0702	0.7042	0.039
Mof_H 	H 	0.861	0.322	0.414	0.097
Mof_H 	H 	0.2132	0.3367	0.414	0.029
Mof_H 	H 	0.1229	0.4112	0.4058	0.023
Mof_H 	H 	0.8509	0.1796	0.4219	0.015
Mof_H 	H 	0.046	0.194	0.4224	0.011
Mof_H 	H 	0.8478	0.2466	0.4984	0.058
Mof_H 	H 	0.9551	0.1782	0.505	0.061
Mof_H 	H 	0.211	0.4067	0.4888	0.059
Mof_H 	H 	0.0165	0.3967	0.4864	0.056
Mof_C 	C 	0.9222	0.6306	0.7851	0.409
Mof_C 	C 	0.6601	0.916	0.7842	0.466
Mof_C 	C 	0.9817	0.5644	0.8126	-0.178
Mof_C 	C 	0.9361	0.4825	0.7874	-0.034
Mof_C 	C 	0.9929	0.4154	0.8184	-0.07
Mof_C 	C 	0.9714	0.4897	0.895	-0.069
Mof_C 	C 	0.9148	0.5585	0.8666	-0.033
Mof_C 	C 	0.8226	0.346	0.8877	0.177
Mof_C 	C 	0.61	0.9921	0.7986	-0.232
Mof_C 	C 	0.5808	0.9969	0.8558	-0.001
Mof_C 	C 	0.5169	0.0763	0.8696	-0.087
Mof_C 	C 	0.6764	0.2189	0.8785	0.167
Mof_C 	C 	0.4496	0.2829	0.1523	0.504
Mof_C 	C 	0.6703	0.1475	0.797	-0.083
Mof_C 	C 	0.7312	0.0698	0.7814	-0.006
Mof_C 	C 	0.6623	0.2878	0.9498	0.165
Mof_C 	C 	0.4582	0.2992	0.0954	-0.219
Mof_C 	C 	0.6152	0.3587	0.0774	-0.004
Mof_C 	C 	0.4507	0.2176	0.0681	-0.001
Mof_C 	C 	0.4501	0.2297	0.0116	-0.088
Mof_C 	C 	0.6097	0.3708	0.0221	-0.085
Mof_C 	C 	0.5778	0.3694	0.2851	0.41
Mof_C 	C 	0.8399	0.084	0.2842	0.466
Mof_C 	C 	0.5183	0.4356	0.3126	-0.168
Mof_C 	C 	0.5639	0.5175	0.2874	-0.044
Mof_C 	C 	0.5071	0.5846	0.3184	-0.059
Mof_C 	C 	0.5286	0.5103	0.395	-0.06
Mof_C 	C 	0.5852	0.4415	0.3666	-0.042
Mof_C 	C 	0.6774	0.654	0.3877	0.177
Mof_C 	C 	0.89	0.0079	0.2986	-0.233
Mof_C 	C 	0.9192	0.0031	0.3558	0.007
Mof_C 	C 	0.9831	0.9237	0.3696	-0.088
Mof_C 	C 	0.8236	0.7811	0.3785	0.167
Mof_C 	C 	0.0504	0.7171	0.6523	0.509
Mof_C 	C 	0.8297	0.8525	0.297	-0.083
Mof_C 	C 	0.7688	0.9302	0.2814	-0.006
Mof_C 	C 	0.8377	0.7122	0.4498	0.165
Mof_C 	C 	0.0418	0.7008	0.5954	-0.22
Mof_C 	C 	0.8848	0.6413	0.5774	-0.005
Mof_C 	C 	0.0493	0.7824	0.5681	0.005
Mof_C 	C 	0.0499	0.7703	0.5116	-0.09
Mof_C 	C 	0.8903	0.6292	0.5221	-0.085
Mof_C 	C 	0.0778	0.3694	0.2149	0.409
Mof_C 	C 	0.3399	0.084	0.2158	0.466
Mof_C 	C 	0.0183	0.4356	0.1874	-0.177
Mof_C 	C 	0.0639	0.5175	0.2126	-0.035
Mof_C 	C 	0.0071	0.5846	0.1816	-0.068
Mof_C 	C 	0.0286	0.5103	0.105	-0.067
Mof_C 	C 	0.0852	0.4415	0.1334	-0.035
Mof_C 	C 	0.1774	0.654	0.1123	0.177
Mof_C 	C 	0.39	0.0079	0.2014	-0.232
Mof_C 	C 	0.4192	0.0031	0.1442	-0.001
Mof_C 	C 	0.4831	0.9237	0.1304	-0.087
Mof_C 	C 	0.3236	0.7811	0.1215	0.167
Mof_C 	C 	0.5504	0.7171	0.8477	0.504
Mof_C 	C 	0.3297	0.8525	0.203	-0.083
Mof_C 	C 	0.2688	0.9302	0.2186	-0.006
Mof_C 	C 	0.3377	0.7122	0.0502	0.165
Mof_C 	C 	0.5418	0.7008	0.9046	-0.219
Mof_C 	C 	0.3848	0.6413	0.9226	-0.004
Mof_C 	C 	0.5493	0.7824	0.9319	-0.001
Mof_C 	C 	0.5499	0.7703	0.9884	-0.088
Mof_C 	C 	0.3903	0.6292	0.9779	-0.085
Mof_C 	C 	0.4222	0.6306	0.7149	0.409
Mof_C 	C 	0.1601	0.916	0.7158	0.465
Mof_C 	C 	0.4817	0.5644	0.6874	-0.168
Mof_C 	C 	0.4361	0.4825	0.7126	-0.044
Mof_C 	C 	0.4929	0.4154	0.6816	-0.059
Mof_C 	C 	0.4714	0.4897	0.605	-0.059
Mof_C 	C 	0.4148	0.5585	0.6334	-0.042
Mof_C 	C 	0.3226	0.346	0.6123	0.178
Mof_C 	C 	0.11	0.9921	0.7014	-0.229
Mof_C 	C 	0.0808	0.9969	0.6442	-0.003
Mof_C 	C 	0.0169	0.0763	0.6304	-0.083
Mof_C 	C 	0.1764	0.2189	0.6215	0.167
Mof_C 	C 	0.9496	0.2829	0.3477	0.508
Mof_C 	C 	0.1703	0.1475	0.703	-0.082
Mof_C 	C 	0.2312	0.0698	0.7186	-0.009
Mof_C 	C 	0.1623	0.2878	0.5502	0.165
Mof_C 	C 	0.9582	0.2992	0.4046	-0.22
Mof_C 	C 	0.1152	0.3587	0.4226	-0.005
Mof_C 	C 	0.9507	0.2176	0.4319	0.004
Mof_C 	C 	0.9501	0.2297	0.4884	-0.089
Mof_C 	C 	0.1097	0.3708	0.4779	-0.085
Mof_N 	N 	0.9256	0.413	0.8684	-0.115
Mof_N 	N 	0.7813	0.2824	0.8574	-0.167
Mof_N 	N 	0.7679	0.3528	0.9335	-0.17
Mof_N 	N 	0.6332	0.1487	0.8505	-0.109
Mof_N 	N 	0.6109	0.2175	0.9239	-0.165
Mof_N 	N 	0.5923	0.2919	0.9966	-0.109
Mof_N 	N 	0.5744	0.587	0.3684	-0.118
Mof_N 	N 	0.7187	0.7176	0.3574	-0.167
Mof_N 	N 	0.7321	0.6472	0.4335	-0.17
Mof_N 	N 	0.8668	0.8513	0.3505	-0.109
Mof_N 	N 	0.8891	0.7825	0.4239	-0.165
Mof_N 	N 	0.9077	0.7081	0.4966	-0.109
Mof_N 	N 	0.0744	0.587	0.1316	-0.116
Mof_N 	N 	0.2187	0.7176	0.1426	-0.167
Mof_N 	N 	0.2321	0.6472	0.0665	-0.17
Mof_N 	N 	0.3668	0.8513	0.1495	-0.109
Mof_N 	N 	0.3891	0.7825	0.0761	-0.165
Mof_N 	N 	0.4077	0.7081	0.0034	-0.109
Mof_N 	N 	0.4256	0.413	0.6316	-0.118
Mof_N 	N 	0.2813	0.2824	0.6426	-0.167
Mof_N 	N 	0.2679	0.3528	0.5665	-0.17
Mof_N 	N 	0.1332	0.1487	0.6495	-0.11
Mof_N 	N 	0.1109	0.2175	0.5761	-0.165
Mof_N 	N 	0.0923	0.2919	0.5034	-0.109
Mof_O 	O 	0.779	0.6191	0.765	-0.467
Mof_O 	O 	0.0127	0.7046	0.7845	-0.71
Mof_O 	O 	0.8105	0.9097	0.7877	-0.506
Mof_O 	O 	0.5872	0.2912	0.1755	-0.591
Mof_O 	O 	0.5575	0.8556	0.7663	-0.73
Mof_O 	O 	0.309	0.26	0.1708	-0.575
Mof_O 	O 	0.721	0.3809	0.265	-0.467
Mof_O 	O 	0.4873	0.2954	0.2845	-0.712
Mof_O 	O 	0.6895	0.0903	0.2877	-0.505
Mof_O 	O 	0.9128	0.7088	0.6755	-0.594
Mof_O 	O 	0.9425	0.1444	0.2663	-0.729
Mof_O 	O 	0.191	0.74	0.6708	-0.576
Mof_O 	O 	0.221	0.3809	0.235	-0.467
Mof_O 	O 	0.9873	0.2954	0.2155	-0.71
Mof_O 	O 	0.1895	0.0903	0.2123	-0.506
Mof_O 	O 	0.4128	0.7088	0.8245	-0.591
Mof_O 	O 	0.4425	0.1444	0.2337	-0.73
Mof_O 	O 	0.691	0.74	0.8292	-0.575
Mof_O 	O 	0.279	0.6191	0.735	-0.467
Mof_O 	O 	0.5127	0.7046	0.7155	-0.712
Mof_O 	O 	0.3105	0.9097	0.7123	-0.504
Mof_O 	O 	0.0872	0.2912	0.3245	-0.594
Mof_O 	O 	0.0575	0.8556	0.7337	-0.728
Mof_O 	O 	0.809	0.26	0.3292	-0.576
_end
