data_functionalizedCrystal
_audit_creation_method	'EQeq! by Chris Wilmer'
_symmetry_space_group_name_H-M	'P1'
_symmetry_Int_Tables_number	1
_symmetry_cell_setting	triclinic
loop_
_symmetry_equiv_pos_as_xyz
  x,y,z
_cell_length_a	14.9287
_cell_length_b	12.499
_cell_length_c	16.5814
_cell_angle_alpha	90
_cell_angle_beta	90
_cell_angle_gamma	90
loop_
_atom_site_label
_atom_site_type_symbol
_atom_site_fract_x
_atom_site_fract_y
_atom_site_fract_z
_atom_site_charge
Mof_Mn	Mn	0.6041	0.48591	0.58143	0.947
Mof_O 	O 	0.79177	0.5158	0.98821	-0.336
Mof_O 	O 	0.80154	0.36592	0.05358	-0.3
Mof_O 	O 	0.59201	0.35245	0.67052	-0.311
Mof_O 	O 	0.50145	0.08519	0.87635	-0.35
Mof_C 	C 	0.65298	0.2808	0.96329	0.056
Mof_H 	H 	0.6576	0.2535	0.0153	0.039
Mof_O 	O 	0.52765	0.11921	0.00551	-0.375
Mof_C 	C 	0.76854	0.42048	0.99881	0.326
Mof_C 	C 	0.69402	0.41214	0.86382	0.033
Mof_H 	H 	0.7245	0.4744	0.8498	0.059
Mof_C 	C 	0.63408	0.40394	0.72266	0.312
Mof_C 	C 	0.70263	0.37062	0.9415	-0.087
Mof_C 	C 	0.53869	0.1385	0.93182	0.369
Mof_O 	O 	0.67059	0.49162	0.70615	-0.3
Mof_C 	C 	0.59214	0.27078	0.82931	0.041
Mof_H 	H 	0.5566	0.2361	0.7914	0.059
Mof_C 	C 	0.59647	0.23162	0.90767	-0.103
Mof_C 	C 	0.64023	0.36115	0.80707	-0.078
Mof_Mn	Mn	0.8959	0.51409	0.08143	0.947
Mof_O 	O 	0.70823	0.4842	0.48821	-0.335
Mof_O 	O 	0.69846	0.63408	0.55358	-0.298
Mof_O 	O 	0.90799	0.64755	0.17052	-0.311
Mof_O 	O 	0.99855	0.91481	0.37635	-0.351
Mof_C 	C 	0.84702	0.7192	0.46329	0.048
Mof_H 	H 	0.8424	0.7465	0.5153	0.044
Mof_O 	O 	0.97235	0.88079	0.50551	-0.371
Mof_C 	C 	0.73146	0.57952	0.49881	0.322
Mof_C 	C 	0.80598	0.58786	0.36382	0.03
Mof_H 	H 	0.7755	0.5256	0.3498	0.06
Mof_C 	C 	0.86592	0.59606	0.22266	0.311
Mof_C 	C 	0.79737	0.62938	0.4415	-0.082
Mof_C 	C 	0.96131	0.8615	0.43182	0.363
Mof_O 	O 	0.82941	0.50838	0.20615	-0.3
Mof_C 	C 	0.90786	0.72922	0.32931	0.038
Mof_H 	H 	0.9434	0.7639	0.2914	0.06
Mof_C 	C 	0.90353	0.76838	0.40767	-0.098
Mof_C 	C 	0.85977	0.63885	0.30707	-0.076
Mof_Mn	Mn	0.3959	0.98591	0.91857	0.942
Mof_O 	O 	0.20823	0.0158	0.51179	-0.334
Mof_O 	O 	0.19846	0.86592	0.44642	-0.297
Mof_O 	O 	0.40799	0.85245	0.82948	-0.311
Mof_O 	O 	0.49855	0.58519	0.62365	-0.352
Mof_C 	C 	0.34702	0.7808	0.53671	0.048
Mof_H 	H 	0.3424	0.7535	0.4847	0.044
Mof_O 	O 	0.47235	0.61921	0.49449	-0.371
Mof_C 	C 	0.23146	0.92048	0.50119	0.322
Mof_C 	C 	0.30598	0.91214	0.63618	0.03
Mof_H 	H 	0.2755	0.9744	0.6502	0.06
Mof_C 	C 	0.36592	0.90394	0.77734	0.311
Mof_C 	C 	0.29737	0.87062	0.5585	-0.083
Mof_C 	C 	0.46131	0.6385	0.56818	0.363
Mof_O 	O 	0.32941	0.99162	0.79385	-0.3
Mof_C 	C 	0.40786	0.77078	0.67069	0.038
Mof_H 	H 	0.4434	0.7361	0.7086	0.06
Mof_C 	C 	0.40353	0.73162	0.59233	-0.098
Mof_C 	C 	0.35977	0.86115	0.69293	-0.076
Mof_Mn	Mn	0.1041	0.01409	0.41857	0.947
Mof_O 	O 	0.29177	0.9842	0.01179	-0.325
Mof_O 	O 	0.30154	0.13408	0.94642	-0.29
Mof_O 	O 	0.09201	0.14755	0.32948	-0.311
Mof_O 	O 	0.00145	0.41481	0.12365	-0.351
Mof_C 	C 	0.15298	0.2192	0.03671	0.036
Mof_H 	H 	0.1576	0.2465	0.9847	0.05
Mof_O 	O 	0.02765	0.38079	0.99449	-0.369
Mof_C 	C 	0.26854	0.07952	0.00119	0.307
Mof_C 	C 	0.19402	0.08786	0.13618	0.024
Mof_H 	H 	0.2245	0.0256	0.1502	0.061
Mof_C 	C 	0.13408	0.09606	0.27734	0.31
Mof_C 	C 	0.20263	0.12938	0.0585	-0.075
Mof_C 	C 	0.03869	0.3615	0.06818	0.359
Mof_O 	O 	0.17059	0.00838	0.29385	-0.3
Mof_C 	C 	0.09214	0.22922	0.17069	0.034
Mof_H 	H 	0.0566	0.2639	0.2086	0.061
Mof_C 	C 	0.09647	0.26838	0.09233	-0.093
Mof_C 	C 	0.14023	0.13885	0.19293	-0.073
Mof_Mn	Mn	0.3959	0.51409	0.41857	0.947
Mof_O 	O 	0.20823	0.4842	0.01179	-0.336
Mof_O 	O 	0.19846	0.63408	0.94642	-0.3
Mof_O 	O 	0.40799	0.64755	0.32948	-0.311
Mof_O 	O 	0.49855	0.91481	0.12365	-0.35
Mof_C 	C 	0.34702	0.7192	0.03671	0.056
Mof_H 	H 	0.3424	0.7465	0.9847	0.039
Mof_O 	O 	0.47235	0.88079	0.99449	-0.375
Mof_C 	C 	0.23146	0.57952	0.00119	0.326
Mof_C 	C 	0.30598	0.58786	0.13618	0.033
Mof_H 	H 	0.2755	0.5256	0.1502	0.059
Mof_C 	C 	0.36592	0.59606	0.27734	0.312
Mof_C 	C 	0.29737	0.62938	0.0585	-0.087
Mof_C 	C 	0.46131	0.8615	0.06818	0.369
Mof_O 	O 	0.32941	0.50838	0.29385	-0.3
Mof_C 	C 	0.40786	0.72922	0.17069	0.041
Mof_H 	H 	0.4434	0.7639	0.2086	0.059
Mof_C 	C 	0.40353	0.76838	0.09233	-0.103
Mof_C 	C 	0.35977	0.63885	0.19293	-0.078
Mof_Mn	Mn	0.1041	0.48591	0.91857	0.947
Mof_O 	O 	0.29177	0.5158	0.51179	-0.335
Mof_O 	O 	0.30154	0.36592	0.44642	-0.298
Mof_O 	O 	0.09201	0.35245	0.82948	-0.311
Mof_O 	O 	0.00145	0.08519	0.62365	-0.351
Mof_C 	C 	0.15298	0.2808	0.53671	0.048
Mof_H 	H 	0.1576	0.2535	0.4847	0.044
Mof_O 	O 	0.02765	0.11921	0.49449	-0.371
Mof_C 	C 	0.26854	0.42048	0.50119	0.322
Mof_C 	C 	0.19402	0.41214	0.63618	0.03
Mof_H 	H 	0.2245	0.4744	0.6502	0.06
Mof_C 	C 	0.13408	0.40394	0.77734	0.311
Mof_C 	C 	0.20263	0.37062	0.5585	-0.082
Mof_C 	C 	0.03869	0.1385	0.56818	0.363
Mof_O 	O 	0.17059	0.49162	0.79385	-0.3
Mof_C 	C 	0.09214	0.27078	0.67069	0.038
Mof_H 	H 	0.0566	0.2361	0.7086	0.06
Mof_C 	C 	0.09647	0.23162	0.59233	-0.098
Mof_C 	C 	0.14023	0.36115	0.69293	-0.076
Mof_Mn	Mn	0.6041	0.01409	0.08143	0.942
Mof_O 	O 	0.79177	0.9842	0.48821	-0.334
Mof_O 	O 	0.80154	0.13408	0.55358	-0.297
Mof_O 	O 	0.59201	0.14755	0.17052	-0.311
Mof_O 	O 	0.50145	0.41481	0.37635	-0.352
Mof_C 	C 	0.65298	0.2192	0.46329	0.048
Mof_H 	H 	0.6576	0.2465	0.5153	0.044
Mof_O 	O 	0.52765	0.38079	0.50551	-0.371
Mof_C 	C 	0.76854	0.07952	0.49881	0.322
Mof_C 	C 	0.69402	0.08786	0.36382	0.03
Mof_H 	H 	0.7245	0.0256	0.3498	0.06
Mof_C 	C 	0.63408	0.09606	0.22266	0.311
Mof_C 	C 	0.70263	0.12938	0.4415	-0.083
Mof_C 	C 	0.53869	0.3615	0.43182	0.363
Mof_O 	O 	0.67059	0.00838	0.20615	-0.3
Mof_C 	C 	0.59214	0.22922	0.32931	0.038
Mof_H 	H 	0.5566	0.2639	0.2914	0.06
Mof_C 	C 	0.59647	0.26838	0.40767	-0.098
Mof_C 	C 	0.64023	0.13885	0.30707	-0.076
Mof_Mn	Mn	0.8959	0.98591	0.58143	0.947
Mof_O 	O 	0.70823	0.0158	0.98821	-0.325
Mof_O 	O 	0.69846	0.86592	0.05358	-0.29
Mof_O 	O 	0.90799	0.85245	0.67052	-0.311
Mof_O 	O 	0.99855	0.58519	0.87635	-0.351
Mof_C 	C 	0.84702	0.7808	0.96329	0.036
Mof_H 	H 	0.8424	0.7535	0.0153	0.05
Mof_O 	O 	0.97235	0.61921	0.00551	-0.369
Mof_C 	C 	0.73146	0.92048	0.99881	0.307
Mof_C 	C 	0.80598	0.91214	0.86382	0.024
Mof_H 	H 	0.7755	0.9744	0.8498	0.061
Mof_C 	C 	0.86592	0.90394	0.72266	0.31
Mof_C 	C 	0.79737	0.87062	0.9415	-0.075
Mof_C 	C 	0.96131	0.6385	0.93182	0.359
Mof_O 	O 	0.82941	0.99162	0.70615	-0.3
Mof_C 	C 	0.90786	0.77078	0.82931	0.034
Mof_H 	H 	0.9434	0.7361	0.7914	0.061
Mof_C 	C 	0.90353	0.73162	0.90767	-0.093
Mof_C 	C 	0.85977	0.86115	0.80707	-0.073
_end
