data_functionalizedCrystal
_audit_creation_method	'EQeq! by Chris Wilmer'
_symmetry_space_group_name_H-M	'P1'
_symmetry_Int_Tables_number	1
_symmetry_cell_setting	triclinic
loop_
_symmetry_equiv_pos_as_xyz
  x,y,z
_cell_length_a	18.5114
_cell_length_b	20.0115
_cell_length_c	8.7093
_cell_angle_alpha	90
_cell_angle_beta	100.555
_cell_angle_gamma	90
loop_
_atom_site_label
_atom_site_type_symbol
_atom_site_fract_x
_atom_site_fract_y
_atom_site_fract_z
_atom_site_charge
Mof_N 	N 	0.91967	0.25373	0.7244	-0.248
Mof_N 	N 	0.00115	0.16809	0.9925	-0.291
Mof_N 	N 	0.58795	0.60039	0.7845	-0.253
Mof_C 	C 	0.86973	0.2645	0.595	0.123
Mof_H 	H 	0.8698	0.2367	0.5095	-0.027
Mof_C 	C 	0.91918	0.29613	0.8421	0.118
Mof_H 	H 	0.9545	0.2909	0.9321	-0.015
Mof_C 	C 	0.8182	0.31475	0.5823	-0.217
Mof_H 	H 	0.7849	0.3203	0.4893	0.102
Mof_C 	C 	0.8156	0.35669	0.706	0.16
Mof_C 	C 	0.64993	0.61052	0.7325	0.109
Mof_H 	H 	0.6558	0.6508	0.6829	-0.027
Mof_C 	C 	0.8691	0.34736	0.8376	-0.207
Mof_H 	H 	0.8712	0.3756	0.923	0.1
Mof_C 	C 	0.58207	0.54224	0.8569	0.115
Mof_H 	H 	0.5404	0.5347	0.8999	-0.023
Mof_C 	C 	0.6983	0.50257	0.8165	0.151
Mof_C 	C 	0.6351	0.4927	0.8708	-0.21
Mof_H 	H 	0.6273	0.4523	0.9178	0.104
Mof_C 	C 	0.0004	0.15246	0.1164	0.146
Mof_N 	N 	0.0148	0.1253	0.2545	-0.344
Mof_C 	C 	0.7565	0.4491	0.8364	-0.164
Mof_H 	H 	0.8042	0.4699	0.8691	0.072
Mof_H 	H 	0.7484	0.419	0.9189	0.071
Mof_C 	C 	0.7066	0.5642	0.7482	-0.209
Mof_H 	H 	0.7498	0.5744	0.7132	0.095
Mof_C 	C 	0.7576	0.41	0.6934	-0.184
Mof_H 	H 	0.7643	0.4406	0.6108	0.083
Mof_H 	H 	0.7099	0.389	0.6622	0.083
Mof_N 	N 	0.41967	0.75373	0.7244	-0.26
Mof_N 	N 	0.50115	0.66809	0.9925	-0.286
Mof_N 	N 	0.08795	0.10039	0.7845	-0.259
Mof_C 	C 	0.36973	0.7645	0.595	0.119
Mof_H 	H 	0.3698	0.7367	0.5095	-0.029
Mof_C 	C 	0.41918	0.79613	0.8421	0.116
Mof_H 	H 	0.4545	0.7909	0.9321	-0.03
Mof_C 	C 	0.3182	0.81475	0.5823	-0.22
Mof_H 	H 	0.2849	0.8203	0.4893	0.102
Mof_C 	C 	0.3156	0.85669	0.706	0.161
Mof_C 	C 	0.14993	0.11052	0.7325	0.107
Mof_H 	H 	0.1558	0.1508	0.6829	-0.029
Mof_C 	C 	0.3691	0.84736	0.8376	-0.213
Mof_H 	H 	0.3712	0.8756	0.923	0.097
Mof_C 	C 	0.08207	0.04224	0.8569	0.113
Mof_H 	H 	0.0404	0.0347	0.8999	-0.035
Mof_C 	C 	0.1983	0.00257	0.8165	0.147
Mof_C 	C 	0.1351	0.9927	0.8708	-0.208
Mof_H 	H 	0.1273	0.9523	0.9178	0.104
Mof_C 	C 	0.5004	0.65246	0.1164	0.179
Mof_N 	N 	0.5148	0.6253	0.2545	-0.101
Mof_C 	C 	0.2565	0.9491	0.8364	-0.157
Mof_H 	H 	0.3042	0.9699	0.8691	0.066
Mof_H 	H 	0.2484	0.919	0.9189	0.069
Mof_C 	C 	0.2066	0.0642	0.7482	-0.207
Mof_H 	H 	0.2498	0.0744	0.7132	0.092
Mof_C 	C 	0.2576	0.91	0.6934	-0.189
Mof_H 	H 	0.2643	0.9406	0.6108	0.083
Mof_H 	H 	0.2099	0.889	0.6622	0.086
Mof_N 	N 	0.08033	0.25373	0.7756	-0.267
Mof_N 	N 	0.99885	0.16809	0.5075	-0.272
Mof_N 	N 	0.41205	0.60039	0.7155	-0.253
Mof_C 	C 	0.13027	0.2645	0.905	0.116
Mof_H 	H 	0.1302	0.2367	0.9905	-0.031
Mof_C 	C 	0.08082	0.29613	0.6579	0.113
Mof_H 	H 	0.0455	0.2909	0.5679	-0.043
Mof_C 	C 	0.1818	0.31475	0.9177	-0.224
Mof_H 	H 	0.2151	0.3203	0.0107	0.102
Mof_C 	C 	0.1844	0.35669	0.794	0.16
Mof_C 	C 	0.35007	0.61052	0.7675	0.106
Mof_H 	H 	0.3442	0.6508	0.8171	-0.027
Mof_C 	C 	0.1309	0.34736	0.6624	-0.217
Mof_H 	H 	0.1288	0.3756	0.577	0.093
Mof_C 	C 	0.41793	0.54224	0.6431	0.112
Mof_H 	H 	0.4596	0.5347	0.6001	-0.021
Mof_C 	C 	0.3017	0.50257	0.6835	0.144
Mof_C 	C 	0.3649	0.4927	0.6292	-0.205
Mof_H 	H 	0.3727	0.4523	0.5822	0.103
Mof_C 	C 	0.9996	0.15246	0.3836	0.21
Mof_N 	N 	0.9852	0.1253	0.2455	0.142
Mof_C 	C 	0.2435	0.4491	0.6636	-0.154
Mof_H 	H 	0.1958	0.4699	0.6309	0.062
Mof_H 	H 	0.2516	0.419	0.5811	0.067
Mof_C 	C 	0.2934	0.5642	0.7518	-0.204
Mof_H 	H 	0.2502	0.5744	0.7868	0.089
Mof_C 	C 	0.2424	0.41	0.8066	-0.191
Mof_H 	H 	0.2357	0.4406	0.8892	0.082
Mof_H 	H 	0.2901	0.389	0.8378	0.085
Mof_N 	N 	0.58033	0.75373	0.7756	-0.261
Mof_N 	N 	0.49885	0.66809	0.5075	-0.285
Mof_N 	N 	0.91205	0.10039	0.7155	-0.243
Mof_C 	C 	0.63027	0.7645	0.905	0.121
Mof_H 	H 	0.6302	0.7367	0.9905	-0.031
Mof_C 	C 	0.58082	0.79613	0.6579	0.116
Mof_H 	H 	0.5455	0.7909	0.5679	-0.03
Mof_C 	C 	0.6818	0.81475	0.9177	-0.224
Mof_H 	H 	0.7151	0.8203	0.0107	0.104
Mof_C 	C 	0.6844	0.85669	0.794	0.161
Mof_C 	C 	0.85007	0.11052	0.7675	0.107
Mof_H 	H 	0.8442	0.1508	0.8171	-0.024
Mof_C 	C 	0.6309	0.84736	0.6624	-0.213
Mof_H 	H 	0.6288	0.8756	0.577	0.097
Mof_C 	C 	0.91793	0.04224	0.6431	0.112
Mof_H 	H 	0.9596	0.0347	0.6001	-0.007
Mof_C 	C 	0.8017	0.00257	0.6835	0.144
Mof_C 	C 	0.8649	0.9927	0.6292	-0.203
Mof_H 	H 	0.8727	0.9523	0.5822	0.103
Mof_C 	C 	0.4996	0.65246	0.3836	0.178
Mof_N 	N 	0.4852	0.6253	0.2455	-0.101
Mof_C 	C 	0.7435	0.9491	0.6636	-0.158
Mof_H 	H 	0.6958	0.9699	0.6309	0.066
Mof_H 	H 	0.7516	0.919	0.5811	0.069
Mof_C 	C 	0.7934	0.0642	0.7518	-0.204
Mof_H 	H 	0.7502	0.0744	0.7868	0.091
Mof_C 	C 	0.7424	0.91	0.8066	-0.188
Mof_H 	H 	0.7357	0.9406	0.8892	0.082
Mof_H 	H 	0.7901	0.889	0.8378	0.083
Mof_Co	Co	1.79221e-17	0.17504	0.75	1.101
Mof_Co	Co	0.5	0.67504	0.75	1.122
Mof_N 	N 	0.08033	0.74627	0.2756	-0.267
Mof_N 	N 	0.99885	0.83191	0.0075	-0.269
Mof_N 	N 	0.41205	0.39961	0.2155	-0.253
Mof_C 	C 	0.13027	0.7355	0.405	0.115
Mof_H 	H 	0.1302	0.7633	0.4905	-0.03
Mof_C 	C 	0.08082	0.70387	0.1579	0.112
Mof_H 	H 	0.0455	0.7091	0.0679	-0.043
Mof_C 	C 	0.1818	0.68525	0.4177	-0.222
Mof_H 	H 	0.2151	0.6797	0.5107	0.101
Mof_C 	C 	0.1844	0.64331	0.294	0.159
Mof_C 	C 	0.35007	0.38948	0.2675	0.107
Mof_H 	H 	0.3442	0.3492	0.3171	-0.027
Mof_C 	C 	0.1309	0.65264	0.1624	-0.216
Mof_H 	H 	0.1288	0.6244	0.077	0.093
Mof_C 	C 	0.41793	0.45776	0.1431	0.113
Mof_H 	H 	0.4596	0.4653	0.1001	-0.021
Mof_C 	C 	0.3017	0.49743	0.1835	0.145
Mof_C 	C 	0.3649	0.5073	0.1292	-0.205
Mof_H 	H 	0.3727	0.5477	0.0822	0.103
Mof_C 	C 	0.9996	0.84754	0.8836	0.206
Mof_N 	N 	0.9852	0.8747	0.7455	0.136
Mof_C 	C 	0.2435	0.5509	0.1636	-0.155
Mof_H 	H 	0.1958	0.5301	0.1309	0.062
Mof_H 	H 	0.2516	0.581	0.0811	0.067
Mof_C 	C 	0.2934	0.4358	0.2518	-0.205
Mof_H 	H 	0.2502	0.4256	0.2868	0.089
Mof_C 	C 	0.2424	0.59	0.3066	-0.19
Mof_H 	H 	0.2357	0.5594	0.3892	0.082
Mof_H 	H 	0.2901	0.611	0.3378	0.085
Mof_N 	N 	0.58033	0.24627	0.2756	-0.26
Mof_N 	N 	0.49885	0.33191	0.0075	-0.283
Mof_N 	N 	0.91205	0.89961	0.2155	-0.242
Mof_C 	C 	0.63027	0.2355	0.405	0.119
Mof_H 	H 	0.6302	0.2633	0.4905	-0.03
Mof_C 	C 	0.58082	0.20387	0.1579	0.116
Mof_H 	H 	0.5455	0.2091	0.0679	-0.029
Mof_C 	C 	0.6818	0.18525	0.4177	-0.22
Mof_H 	H 	0.7151	0.1797	0.5107	0.101
Mof_C 	C 	0.6844	0.14331	0.294	0.16
Mof_C 	C 	0.85007	0.88948	0.2675	0.107
Mof_H 	H 	0.8442	0.8492	0.3171	-0.023
Mof_C 	C 	0.6309	0.15264	0.1624	-0.212
Mof_H 	H 	0.6288	0.1244	0.077	0.097
Mof_C 	C 	0.91793	0.95776	0.1431	0.111
Mof_H 	H 	0.9596	0.9653	0.1001	-0.006
Mof_C 	C 	0.8017	0.99743	0.1835	0.143
Mof_C 	C 	0.8649	0.0073	0.1292	-0.201
Mof_H 	H 	0.8727	0.0477	0.0822	0.103
Mof_C 	C 	0.4996	0.34754	0.8836	0.176
Mof_N 	N 	0.4852	0.3747	0.7455	-0.101
Mof_C 	C 	0.7435	0.0509	0.1636	-0.157
Mof_H 	H 	0.6958	0.0301	0.1309	0.067
Mof_H 	H 	0.7516	0.081	0.0811	0.069
Mof_C 	C 	0.7934	0.9358	0.2518	-0.203
Mof_H 	H 	0.7502	0.9256	0.2868	0.091
Mof_C 	C 	0.7424	0.09	0.3066	-0.188
Mof_H 	H 	0.7357	0.0594	0.3892	0.083
Mof_H 	H 	0.7901	0.111	0.3378	0.084
Mof_N 	N 	0.91967	0.74627	0.2244	-0.248
Mof_N 	N 	0.00115	0.83191	0.4925	-0.292
Mof_N 	N 	0.58795	0.39961	0.2845	-0.254
Mof_C 	C 	0.86973	0.7355	0.095	0.119
Mof_H 	H 	0.8698	0.7633	0.0095	-0.026
Mof_C 	C 	0.91918	0.70387	0.3421	0.117
Mof_H 	H 	0.9545	0.7091	0.4321	-0.014
Mof_C 	C 	0.8182	0.68525	0.0823	-0.211
Mof_H 	H 	0.7849	0.6797	0.9893	0.098
Mof_C 	C 	0.8156	0.64331	0.206	0.157
Mof_C 	C 	0.64993	0.38948	0.2325	0.11
Mof_H 	H 	0.6558	0.3492	0.1829	-0.027
Mof_C 	C 	0.8691	0.65264	0.3376	-0.205
Mof_H 	H 	0.8712	0.6244	0.423	0.1
Mof_C 	C 	0.58207	0.45776	0.3569	0.116
Mof_H 	H 	0.5404	0.4653	0.3999	-0.022
Mof_C 	C 	0.6983	0.49743	0.3165	0.153
Mof_C 	C 	0.6351	0.5073	0.3708	-0.211
Mof_H 	H 	0.6273	0.5477	0.4178	0.105
Mof_C 	C 	0.0004	0.84754	0.6164	0.145
Mof_N 	N 	0.0148	0.8747	0.7545	-0.337
Mof_C 	C 	0.7565	0.5509	0.3364	-0.167
Mof_H 	H 	0.8042	0.5301	0.3691	0.073
Mof_H 	H 	0.7484	0.581	0.4189	0.072
Mof_C 	C 	0.7066	0.4358	0.2482	-0.21
Mof_H 	H 	0.7498	0.4256	0.2132	0.096
Mof_C 	C 	0.7576	0.59	0.1934	-0.181
Mof_H 	H 	0.7643	0.5594	0.1108	0.083
Mof_H 	H 	0.7099	0.611	0.1622	0.083
Mof_N 	N 	0.41967	0.24627	0.2244	-0.26
Mof_N 	N 	0.50115	0.33191	0.4925	-0.285
Mof_N 	N 	0.08795	0.89961	0.2845	-0.26
Mof_C 	C 	0.36973	0.2355	0.095	0.117
Mof_H 	H 	0.3698	0.2633	0.0095	-0.028
Mof_C 	C 	0.41918	0.20387	0.3421	0.115
Mof_H 	H 	0.4545	0.2091	0.4321	-0.029
Mof_C 	C 	0.3182	0.18525	0.0823	-0.216
Mof_H 	H 	0.2849	0.1797	0.9893	0.1
Mof_C 	C 	0.3156	0.14331	0.206	0.159
Mof_C 	C 	0.14993	0.88948	0.2325	0.107
Mof_H 	H 	0.1558	0.8492	0.1829	-0.029
Mof_C 	C 	0.3691	0.15264	0.3376	-0.211
Mof_H 	H 	0.3712	0.1244	0.423	0.097
Mof_C 	C 	0.08207	0.95776	0.3569	0.114
Mof_H 	H 	0.0404	0.9653	0.3999	-0.035
Mof_C 	C 	0.1983	0.99743	0.3165	0.149
Mof_C 	C 	0.1351	0.0073	0.3708	-0.21
Mof_H 	H 	0.1273	0.0477	0.4178	0.104
Mof_C 	C 	0.5004	0.34754	0.6164	0.177
Mof_N 	N 	0.5148	0.3747	0.7545	-0.101
Mof_C 	C 	0.2565	0.0509	0.3364	-0.159
Mof_H 	H 	0.3042	0.0301	0.3691	0.067
Mof_H 	H 	0.2484	0.081	0.4189	0.069
Mof_C 	C 	0.2066	0.9358	0.2482	-0.208
Mof_H 	H 	0.2498	0.9256	0.2132	0.093
Mof_C 	C 	0.2576	0.09	0.1934	-0.188
Mof_H 	H 	0.2643	0.0594	0.1108	0.083
Mof_H 	H 	0.2099	0.111	0.1622	0.086
Mof_Co	Co	4.48053e-18	0.82496	0.25	1.101
Mof_Co	Co	0.5	0.32496	0.25	1.122
_end
