data_functionalizedCrystal
_audit_creation_method	'EQeq! by Chris Wilmer'
_symmetry_space_group_name_H-M	'P1'
_symmetry_Int_Tables_number	1
_symmetry_cell_setting	triclinic
loop_
_symmetry_equiv_pos_as_xyz
  x,y,z
_cell_length_a	7.6838
_cell_length_b	14.953
_cell_length_c	15.955
_cell_angle_alpha	90
_cell_angle_beta	90
_cell_angle_gamma	90
loop_
_atom_site_label
_atom_site_type_symbol
_atom_site_fract_x
_atom_site_fract_y
_atom_site_fract_z
_atom_site_charge
Mof_Co	Co	0.9777	0.6934	0.3721	1.078
Mof_Co	Co	0.0223	0.1934	0.6279	1.074
Mof_Co	Co	0.5223	0.6934	0.8721	1.077
Mof_Co	Co	0.4777	0.1934	0.1279	1.074
Mof_Hg	Hg	0.4517	0.5	0.5646	0.124
Mof_Hg	Hg	0.5483	3.44262e-33	0.4354	0.089
Mof_Hg	Hg	0.0483	0.5	0.0646	0.125
Mof_Hg	Hg	0.9517	-6.88524e-33	0.9354	0.091
Mof_C 	C 	0.31	0.6839	0.4929	0.109
Mof_C 	C 	0.37	0.5362	0.756	0.113
Mof_C 	C 	0.186	0.3487	0.5116	0.102
Mof_C 	C 	0.826	0.5358	0.4842	0.107
Mof_C 	C 	0.69	0.1839	0.5071	0.105
Mof_C 	C 	0.63	0.0362	0.244	0.069
Mof_C 	C 	0.814	0.8487	0.4884	0.101
Mof_C 	C 	0.174	0.0358	0.5158	0.062
Mof_C 	C 	0.19	0.6839	0.9929	0.105
Mof_C 	C 	0.13	0.5362	0.256	0.113
Mof_C 	C 	0.314	0.3487	0.0116	0.105
Mof_C 	C 	0.674	0.5358	0.9842	0.105
Mof_C 	C 	0.81	0.1839	0.0071	0.105
Mof_C 	C 	0.87	0.0362	0.744	0.071
Mof_C 	C 	0.686	0.8487	0.9884	0.099
Mof_C 	C 	0.326	0.0358	0.0158	0.065
Mof_S 	S 	0.472	0.668	0.5596	-0.129
Mof_S 	S 	0.2987	0.4497	0.6972	-0.141
Mof_S 	S 	0.2506	0.4316	0.4513	-0.109
Mof_S 	S 	0.7605	0.4455	0.5415	-0.123
Mof_S 	S 	0.528	0.168	0.4404	-0.136
Mof_S 	S 	0.7013	0.9497	0.3028	-0.092
Mof_S 	S 	0.7494	0.9316	0.5487	-0.079
Mof_S 	S 	0.2395	0.9455	0.4585	-0.073
Mof_S 	S 	0.028	0.668	0.0596	-0.125
Mof_S 	S 	0.2013	0.4497	0.1972	-0.14
Mof_S 	S 	0.2494	0.4316	0.9513	-0.112
Mof_S 	S 	0.7395	0.4455	0.0415	-0.122
Mof_S 	S 	0.972	0.168	0.9404	-0.135
Mof_S 	S 	0.7987	0.9497	0.8028	-0.093
Mof_S 	S 	0.7506	0.9316	0.0487	-0.078
Mof_S 	S 	0.2605	0.9455	0.9585	-0.078
Mof_N 	N 	0.203	0.6954	0.4477	-0.278
Mof_N 	N 	0.413	0.5924	0.7944	-0.291
Mof_N 	N 	0.141	0.292	0.553	-0.283
Mof_N 	N 	0.87	0.5949	0.4474	-0.28
Mof_N 	N 	0.797	0.1954	0.5523	-0.28
Mof_N 	N 	0.587	0.0924	0.2056	-0.285
Mof_N 	N 	0.859	0.792	0.447	-0.281
Mof_N 	N 	0.13	0.0949	0.5526	-0.274
Mof_N 	N 	0.297	0.6954	0.9477	-0.277
Mof_N 	N 	0.087	0.5924	0.2944	-0.29
Mof_N 	N 	0.359	0.292	0.053	-0.284
Mof_N 	N 	0.63	0.5949	0.9474	-0.28
Mof_N 	N 	0.703	0.1954	0.0523	-0.28
Mof_N 	N 	0.913	0.0924	0.7056	-0.284
Mof_N 	N 	0.641	0.792	0.947	-0.281
Mof_N 	N 	0.37	0.0949	0.0526	-0.275
_end
