data_functionalizedCrystal
_audit_creation_method	'EQeq! by Chris Wilmer'
_symmetry_space_group_name_H-M	'P1'
_symmetry_Int_Tables_number	1
_symmetry_cell_setting	triclinic
loop_
_symmetry_equiv_pos_as_xyz
  x,y,z
_cell_length_a	15.278
_cell_length_b	15.56
_cell_length_c	18.174
_cell_angle_alpha	64.665
_cell_angle_beta	78.123
_cell_angle_gamma	61.048
loop_
_atom_site_label
_atom_site_type_symbol
_atom_site_fract_x
_atom_site_fract_y
_atom_site_fract_z
_atom_site_charge
Mof_C 	C 	0.0373	0.3199	0.4281	0.259
Mof_C 	C 	0.9457	0.3316	0.4851	0.262
Mof_C 	C 	0.1099	0.3091	0.6693	0.262
Mof_C 	C 	0.1007	0.2075	0.7324	0.262
Mof_C 	C 	0.281	0.334	0.8366	0.279
Mof_C 	C 	0.1907	0.4443	0.8281	0.249
Mof_C 	C 	0.4271	0.3426	0.9981	0.291
Mof_C 	C 	0.5203	0.3224	0.9414	0.257
Mof_C 	C 	0.5995	0.0216	0.256	0.239
Mof_C 	C 	0.593	0.9886	0.1899	0.271
Mof_C 	C 	0.7796	0.661	0.3177	0.241
Mof_C 	C 	0.6933	0.6311	0.3281	0.266
Mof_C 	C 	0.036	0.2732	0.9924	0.315
Mof_C 	C 	0.9396	0.3504	0.935	0.261
Mof_C 	C 	0.3634	0.6453	0.7578	0.269
Mof_C 	C 	0.3708	0.601	0.6949	0.238
Mof_C 	C 	0.5413	0.7804	0.494	0.301
Mof_C 	C 	0.4483	0.8495	0.4374	0.251
Mof_C 	C 	0.281	0.0178	0.5968	0.233
Mof_C 	C 	0.1932	0.9985	0.5909	0.31
Mof_C 	C 	0.7816	0.1985	0.1006	0.287
Mof_C 	C 	0.6956	0.3063	0.1053	0.258
Mof_C 	C 	0.8823	0.3259	0.2349	0.257
Mof_C 	C 	0.8748	0.4328	0.1672	0.256
Mof_O 	O 	0.8633	0.3861	0.4515	-0.319
Mof_O 	O 	0.9651	0.2858	0.5599	-0.535
Mof_O 	O 	0.0259	0.3662	0.353	-0.298
Mof_O 	O 	0.1218	0.2622	0.4623	-0.491
Mof_O 	O 	0.0923	0.1525	0.7019	-0.519
Mof_O 	O 	0.0997	0.191	0.8059	-0.322
Mof_O 	O 	0.117	0.3188	0.5951	-0.512
Mof_O 	O 	0.1101	0.3698	0.6943	-0.333
Mof_O 	O 	0.1053	0.4566	0.8216	-0.316
Mof_O 	O 	0.2122	0.5115	0.8304	-0.511
Mof_O 	O 	0.2647	0.2655	0.8341	-0.337
Mof_O 	O 	0.3648	0.3247	0.8453	-0.52
Mof_O 	O 	0.5034	0.3777	0.8668	-0.496
Mof_O 	O 	0.603	0.2561	0.9723	-0.303
Mof_O 	O 	0.3463	0.4061	0.9626	-0.515
Mof_O 	O 	0.4401	0.2936	0.0731	-0.333
Mof_O 	O 	0.5937	0.1116	0.2345	-0.311
Mof_O 	O 	0.6096	0.9543	0.3281	-0.515
Mof_O 	O 	0.5902	0.0463	0.1183	-0.335
Mof_O 	O 	0.5898	0.8984	0.2179	-0.523
Mof_O 	O 	0.7558	0.7489	0.3211	-0.508
Mof_O 	O 	0.8659	0.5969	0.3065	-0.308
Mof_O 	O 	0.6079	0.6985	0.3353	-0.517
Mof_O 	O 	0.7138	0.5448	0.3251	-0.322
Mof_O 	O 	0.1164	0.2392	0.9596	-0.346
Mof_O 	O 	0.0169	0.2566	0.0657	-0.537
Mof_O 	O 	0.9525	0.3759	0.8611	-0.335
Mof_O 	O 	0.8581	0.3813	0.9708	-0.51
Mof_O 	O 	0.3736	0.5112	0.7213	-0.499
Mof_O 	O 	0.3752	0.6547	0.6204	-0.31
Mof_O 	O 	0.3542	0.589	0.8301	-0.527
Mof_O 	O 	0.3706	0.731	0.7312	-0.329
Mof_O 	O 	0.5293	0.7508	0.5675	-0.337
Mof_O 	O 	0.622	0.7622	0.4566	-0.539
Mof_O 	O 	0.3655	0.8672	0.4693	-0.309
Mof_O 	O 	0.4644	0.8826	0.3617	-0.513
Mof_O 	O 	0.3662	0.9469	0.6022	-0.306
Mof_O 	O 	0.2553	0.1102	0.5947	-0.505
Mof_O 	O 	0.2122	0.9108	0.5948	-0.321
Mof_O 	O 	0.1085	0.0756	0.5818	-0.522
Mof_O 	O 	0.6086	0.3199	0.112	-0.308
Mof_O 	O 	0.7273	0.3697	0.1038	-0.515
Mof_O 	O 	0.7562	0.1329	0.1031	-0.333
Mof_O 	O 	0.8678	0.1897	0.0956	-0.536
Mof_O 	O 	0.892	0.2572	0.2087	-0.524
Mof_O 	O 	0.8812	0.3138	0.3067	-0.327
Mof_O 	O 	0.8695	0.4433	0.0947	-0.519
Mof_O 	O 	0.8736	0.4991	0.1881	-0.326
Mof_Cr	Cr	0.10878	0.2018	0.58341	2.111
Mof_Cr	Cr	0.358	0.45646	0.84223	2.084
Mof_Cr	Cr	0.60867	0.82575	0.3363	2.091
Mof_Cr	Cr	0.87269	0.31633	0.09054	2.093
Mof_Mn	Mn	0.10839	0.31148	0.82705	0.963
Mof_Mn	Mn	0.59634	0.19035	0.10426	0.955
Mof_Mn	Mn	0.87133	0.44831	0.31924	0.963
Mof_Mn	Mn	0.37347	0.80374	0.60208	0.959
Mof_C 	C 	0.358	0.8563	0.954	0.295
Mof_C 	C 	0.3647	0.8197	0.8951	-0.254
Mof_H 	H 	0.3674	0.7517	0.9116	0.157
Mof_C 	C 	0.3674	0.8754	0.8169	0.134
Mof_H 	H 	0.3747	0.8454	0.7789	0.016
Mof_C 	C 	0.3599	0.9767	0.7885	-0.122
Mof_H 	H 	0.36	0.0173	0.7319	0.091
Mof_C 	C 	0.3525	0.0156	0.8447	0.043
Mof_H 	H 	0.346	0.0855	0.8264	0.037
Mof_C 	C 	0.354	0.9577	0.9275	-0.129
Mof_C 	C 	0.3541	0.0004	0.9829	0.093
Mof_H 	H 	0.3522	0.0689	0.9585	0.019
Mof_C 	C 	0.3733	0.0028	0.1106	0.198
Mof_H 	H 	0.4465	0.966	0.1224	0.004
Mof_C 	C 	0.3414	0.1219	0.0699	-0.592
Mof_H 	H 	0.3785	0.1371	0.019	0.217
Mof_H 	H 	0.3556	0.1453	0.1064	0.216
Mof_H 	H 	0.2695	0.16	0.0582	0.224
Mof_C 	C 	0.32	0.9721	0.1898	-0.165
Mof_H 	H 	0.341	0.984	0.2313	0.104
Mof_H 	H 	0.2468	0.0154	0.1822	0.079
Mof_C 	C 	0.3534	0.7998	0.2932	0.089
Mof_H 	H 	0.346	0.8309	0.3305	0.033
Mof_C 	C 	0.3711	0.6886	0.3267	-0.135
Mof_C 	C 	0.3827	0.6362	0.4107	0.071
Mof_H 	H 	0.3844	0.6706	0.4424	0.029
Mof_C 	C 	0.3918	0.5334	0.4483	-0.136
Mof_H 	H 	0.3998	0.4975	0.5057	0.1
Mof_C 	C 	0.3894	0.483	0.4019	0.105
Mof_H 	H 	0.3956	0.4128	0.4276	0.015
Mof_C 	C 	0.3778	0.5355	0.3179	-0.218
Mof_H 	H 	0.3761	0.5011	0.2862	0.137
Mof_C 	C 	0.3686	0.6383	0.2803	0.267
Mof_N 	N 	0.3565	0.9596	0.0607	-0.238
Mof_N 	N 	0.3472	0.8584	0.2163	-0.202
Mof_O 	O 	0.3635	0.7927	0.0328	-0.391
Mof_O 	O 	0.3567	0.6864	0.1986	-0.369
Mof_Mn	Mn	0.3541	0.81883	0.1256	1.008
Mof_O 	O 	0.522	0.7377	0.1033	-0.182
Mof_C 	C 	0.5938	0.6821	0.1641	-0.001
Mof_H 	H 	0.6605	0.6539	0.1408	0.194
Mof_H 	H 	0.5823	0.6232	0.2065	0.058
Mof_H 	H 	0.5891	0.7301	0.1878	0.096
Mof_O 	O 	0.5228	0.7403	0.1586	-0.2
Mof_C 	C 	0.5896	0.649	0.1388	0.083
Mof_H 	H 	0.6577	0.6233	0.1557	-0.184
Mof_H 	H 	0.5883	0.6689	0.08	0.059
Mof_H 	H 	0.5684	0.5926	0.1674	0.025
Mof_C 	C 	0.8523	0.9365	0.4743	0.308
Mof_C 	C 	0.8696	0.0244	0.4181	-0.239
Mof_H 	H 	0.8803	0.0671	0.4367	0.144
Mof_C 	C 	0.8705	0.0464	0.3353	0.113
Mof_H 	H 	0.8783	0.1073	0.2974	0.026
Mof_C 	C 	0.8604	0.9828	0.3061	-0.166
Mof_H 	H 	0.8626	0.9989	0.2493	0.112
Mof_C 	C 	0.8476	0.899	0.3591	0.118
Mof_H 	H 	0.8411	0.8548	0.3393	0.012
Mof_C 	C 	0.8435	0.874	0.4413	-0.181
Mof_C 	C 	0.8287	0.7822	0.4948	0.126
Mof_H 	H 	0.8156	0.748	0.4688	-0.001
Mof_C 	C 	0.8151	0.6443	0.6205	0.25
Mof_H 	H 	0.7432	0.6672	0.6371	-0.029
Mof_C 	C 	0.8414	0.5722	0.5746	-0.62
Mof_H 	H 	0.7992	0.6117	0.526	0.232
Mof_H 	H 	0.8301	0.5102	0.61	0.224
Mof_H 	H 	0.9119	0.5486	0.5583	0.219
Mof_C 	C 	0.8767	0.5877	0.6938	-0.221
Mof_H 	H 	0.9478	0.55	0.6804	0.102
Mof_H 	H 	0.8557	0.5344	0.7352	0.115
Mof_C 	C 	0.8618	0.6412	0.8031	0.072
Mof_H 	H 	0.8607	0.5755	0.8376	0.035
Mof_C 	C 	0.8604	0.705	0.841	-0.114
Mof_C 	C 	0.8662	0.663	0.9293	0.027
Mof_H 	H 	0.8707	0.5937	0.9586	0.051
Mof_C 	C 	0.8657	0.715	0.972	-0.079
Mof_H 	H 	0.8657	0.6859	0.0298	0.073
Mof_C 	C 	0.8651	0.8159	0.9271	0.055
Mof_H 	H 	0.8674	0.853	0.9562	0.035
Mof_C 	C 	0.8613	0.8631	0.8415	-0.179
Mof_H 	H 	0.8604	0.931	0.8136	0.122
Mof_C 	C 	0.8587	0.8074	0.7974	0.243
Mof_N 	N 	0.8306	0.7403	0.5729	-0.255
Mof_N 	N 	0.8646	0.6651	0.7262	-0.193
Mof_O 	O 	0.8465	0.9213	0.5509	-0.395
Mof_O 	O 	0.857	0.8521	0.7177	-0.372
Mof_Mn	Mn	0.84783	0.80344	0.64113	0.98
Mof_O 	O 	0.0157	0.7433	0.6079	-0.167
Mof_C 	C 	0.0961	0.67	0.6602	-0.463
Mof_H 	H 	0.1585	0.6596	0.6292	0.187
Mof_H 	H 	0.0924	0.6022	0.6873	0.213
Mof_H 	H 	0.0944	0.6962	0.701	0.122
Mof_O 	O 	0.0158	0.6946	0.6626	-0.06
Mof_C 	C 	0.086	0.75	0.6409	0.348
Mof_H 	H 	0.1559	0.696	0.6529	-0.079
Mof_H 	H 	0.0671	0.7934	0.6733	-0.064
Mof_H 	H 	0.0797	0.7961	0.5828	-0.026
_end
