data_functionalizedCrystal
_audit_creation_method	'EQeq! by Chris Wilmer'
_symmetry_space_group_name_H-M	'P1'
_symmetry_Int_Tables_number	1
_symmetry_cell_setting	triclinic
loop_
_symmetry_equiv_pos_as_xyz
  x,y,z
_cell_length_a	9.4277
_cell_length_b	9.8665
_cell_length_c	12.8805
_cell_angle_alpha	108.81
_cell_angle_beta	94.996
_cell_angle_gamma	105.387
loop_
_atom_site_label
_atom_site_type_symbol
_atom_site_fract_x
_atom_site_fract_y
_atom_site_fract_z
_atom_site_charge
Mof_Zn	Zn	0.27192	0.63836	0.25999	1.184
Mof_Zn	Zn	0.8774	0.55882	0.24182	1.176
Mof_Zn	Zn	0.10364	0.18954	0.47715	1.195
Mof_P 	P 	0.12851	0.87081	0.36803	0.526
Mof_O 	O 	0.0087	0.7582	0.2663	-0.519
Mof_O 	O 	0.2789	0.8377	0.3596	-0.464
Mof_O 	O 	0.152	0.0303	0.3681	-0.467
Mof_O 	O 	0.0844	0.8635	0.4778	-0.543
Mof_C 	C 	0.1884	0.4064	0.3613	0.099
Mof_H 	H 	0.2886	0.4037	0.3706	-0.053
Mof_C 	C 	0.9577	0.3654	0.3679	0.185
Mof_C 	C 	0.1911	0.5082	0.0056	0.178
Mof_C 	C 	0.5736	0.7235	0.4046	0.185
Mof_C 	C 	0.5632	0.5621	0.2468	0.099
Mof_H 	H 	0.5269	0.4903	0.1731	-0.045
Mof_N 	N 	0.1424	0.4856	0.3088	-0.278
Mof_N 	N 	0.9901	0.4589	0.3134	-0.296
Mof_N 	N 	0.0803	0.3301	0.4002	-0.309
Mof_N 	N 	0.8251	0.3143	0.3934	-0.322
Mof_H 	H 	0.7494	0.3428	0.3736	0.101
Mof_H 	H 	0.813	0.2519	0.43	0.128
Mof_N 	N 	0.1842	0.5509	0.9198	-0.304
Mof_C 	C 	0.2624	0.7036	0.9621	0.037
Mof_N 	N 	0.243	0.615	0.1042	-0.078
Mof_N 	N 	0.3	0.7467	0.076	-0.08
Mof_N 	N 	0.1287	0.358	0.9902	-0.111
Mof_N 	N 	0.7092	0.7056	0.4056	-0.279
Mof_N 	N 	0.7011	0.5995	0.3009	-0.278
Mof_N 	N 	0.4796	0.6357	0.3065	-0.305
Mof_N 	N 	0.5321	0.8118	0.4934	-0.325
Mof_H 	H 	0.5963	0.8619	0.5569	0.147
Mof_H 	H 	0.4409	0.819	0.4875	0.135
Mof_C 	C 	0.817	0.2981	0.0347	0.009
Mof_N 	N 	0.777	0.374	0.8961	-0.168
Mof_N 	N 	0.793	0.262	0.927	-0.05
Mof_N 	N 	0.769	0.625	0.9993	-0.109
Mof_Zn	Zn	0.72808	0.36164	0.74001	1.183
Mof_Zn	Zn	0.1226	0.44118	0.75818	1.175
Mof_Zn	Zn	0.89636	0.81046	0.52285	1.195
Mof_P 	P 	0.87149	0.12919	0.63197	0.526
Mof_O 	O 	0.9913	0.2418	0.7337	-0.519
Mof_O 	O 	0.7211	0.1623	0.6404	-0.464
Mof_O 	O 	0.848	0.9697	0.6319	-0.467
Mof_O 	O 	0.9156	0.1365	0.5222	-0.543
Mof_C 	C 	0.8116	0.5936	0.6387	0.099
Mof_H 	H 	0.7114	0.5963	0.6294	-0.053
Mof_C 	C 	0.0423	0.6346	0.6321	0.185
Mof_C 	C 	0.8089	0.4918	0.9944	0.178
Mof_C 	C 	0.4264	0.2765	0.5954	0.185
Mof_C 	C 	0.4368	0.4379	0.7532	0.099
Mof_H 	H 	0.4731	0.5097	0.8269	-0.045
Mof_N 	N 	0.8576	0.5144	0.6912	-0.278
Mof_N 	N 	0.0099	0.5411	0.6866	-0.296
Mof_N 	N 	0.9197	0.6699	0.5998	-0.309
Mof_N 	N 	0.1749	0.6857	0.6066	-0.322
Mof_H 	H 	0.2506	0.6572	0.6264	0.101
Mof_H 	H 	0.187	0.7481	0.57	0.128
Mof_N 	N 	0.8158	0.4491	0.0802	-0.304
Mof_C 	C 	0.7376	0.2964	0.0379	0.037
Mof_N 	N 	0.757	0.385	0.8958	-0.078
Mof_N 	N 	0.7	0.2533	0.924	-0.08
Mof_N 	N 	0.8713	0.642	0.0098	-0.111
Mof_N 	N 	0.2908	0.2944	0.5944	-0.279
Mof_N 	N 	0.2989	0.4005	0.6991	-0.278
Mof_N 	N 	0.5204	0.3643	0.6935	-0.305
Mof_N 	N 	0.4679	0.1882	0.5066	-0.325
Mof_H 	H 	0.4037	0.1381	0.4431	0.147
Mof_H 	H 	0.5591	0.181	0.5125	0.135
Mof_C 	C 	0.183	0.7019	0.9653	0.009
Mof_N 	N 	0.223	0.626	0.1039	-0.168
Mof_N 	N 	0.207	0.738	0.073	-0.05
Mof_N 	N 	0.231	0.375	0.0007	-0.109
_end
