data_functionalizedCrystal
_audit_creation_method	'EQeq! by Chris Wilmer'
_symmetry_space_group_name_H-M	'P1'
_symmetry_Int_Tables_number	1
_symmetry_cell_setting	triclinic
loop_
_symmetry_equiv_pos_as_xyz
  x,y,z
_cell_length_a	6.1231
_cell_length_b	7.4705
_cell_length_c	13.063
_cell_angle_alpha	88.25
_cell_angle_beta	81.24
_cell_angle_gamma	89.27
loop_
_atom_site_label
_atom_site_type_symbol
_atom_site_fract_x
_atom_site_fract_y
_atom_site_fract_z
_atom_site_charge
Mof_Ce	Ce	0.15221	0.24918	0.31192	2.846
Mof_Ce	Ce	0.88635	0.73594	0.67963	2.415
Mof_H 	H 	0.3092	0.2921	0.7208	0.052
Mof_H 	H 	0.5806	0.7218	0.4333	0.003
Mof_H 	H 	0.3431	0.796	0.9803	0.087
Mof_H 	H 	0.4395	0.1988	0.5616	0.02
Mof_H 	H 	0.6272	0.6603	0.0506	0.007
Mof_H 	H 	0.2257	0.4652	0.4879	0.249
Mof_H 	H 	0.7899	0.9812	0.0637	0.164
Mof_H 	H 	0.592	0.0671	0.9006	0.167
Mof_H 	H 	0.7678	0.8142	0.2729	0.052
Mof_H 	H 	0.8047	0.969	0.5064	0.224
Mof_H 	H 	0.108	0.8725	0.2791	0.259
Mof_H 	H 	0.9932	0.3376	0.7443	0.096
Mof_C 	C 	0.7251	0.7771	0.4328	0.085
Mof_C 	C 	0.7892	0.8874	0.3315	-0.149
Mof_C 	C 	0.3951	0.5425	0.6612	0.441
Mof_C 	C 	0.7755	0.7378	0.9057	0.268
Mof_C 	C 	0.3018	0.2678	0.5636	0.028
Mof_C 	C 	0.3303	0.9218	0.1189	0.373
Mof_C 	C 	0.2647	0.3704	0.6659	-0.062
Mof_C 	C 	0.4407	0.8755	0.0105	-0.09
Mof_C 	C 	0.1163	0.1366	0.5653	0.416
Mof_C 	C 	0.6628	0.7763	0.0154	0.039
Mof_C 	C 	0.9035	0.6318	0.4312	0.289
Mof_C 	C 	0.6533	0.0608	0.3278	0.522
Mof_O 	O 	0.7966	0.8675	0.0749	-0.364
Mof_O 	O 	0.0043	0.147	0.4932	-0.502
Mof_O 	O 	0.2903	0.6887	0.6728	-0.521
Mof_O 	O 	0.0175	0.6301	0.5031	-0.433
Mof_O 	O 	0.9325	0.5283	0.3556	-0.607
Mof_O 	O 	0.3007	0.081	0.1394	-0.491
Mof_O 	O 	0.275	0.7859	0.1793	-0.341
Mof_O 	O 	0.4876	0.0282	0.9428	-0.271
Mof_O 	O 	0.3223	0.3808	0.4722	-0.548
Mof_O 	O 	0.4477	0.0467	0.3469	-0.6
Mof_O 	O 	0.6023	0.5293	0.6453	-0.557
Mof_O 	O 	0.0144	0.9344	0.3219	-0.507
Mof_O 	O 	0.0858	0.0231	0.6401	-0.464
Mof_O 	O 	0.7203	0.8821	0.5219	-0.585
Mof_O 	O 	0.0336	0.4144	0.6938	-0.365
Mof_O 	O 	0.9318	0.8331	0.8647	-0.507
Mof_O 	O 	0.6938	0.6166	0.8586	-0.466
Mof_O 	O 	0.7564	0.204	0.3053	-0.672
_end
