data_functionalizedCrystal
_audit_creation_method	'EQeq! by Chris Wilmer'
_symmetry_space_group_name_H-M	'P1'
_symmetry_Int_Tables_number	1
_symmetry_cell_setting	triclinic
loop_
_symmetry_equiv_pos_as_xyz
  x,y,z
_cell_length_a	9.0436
_cell_length_b	9.7308
_cell_length_c	17.3916
_cell_angle_alpha	94.4309
_cell_angle_beta	105.07
_cell_angle_gamma	90
loop_
_atom_site_label
_atom_site_type_symbol
_atom_site_fract_x
_atom_site_fract_y
_atom_site_fract_z
_atom_site_charge
Mof_Zn	Zn	0.78166	0.75961	0.16426	1.185
Mof_Zn	Zn	0.96659	0.55304	0.34292	1.182
Mof_Zn	Zn	0.6174	0.74039	0.83574	1.186
Mof_Zn	Zn	0.62367	0.94696	0.65708	1.182
Mof_Zn	Zn	0.21834	0.24039	0.83574	1.186
Mof_Zn	Zn	0.03341	0.44696	0.65708	1.182
Mof_Zn	Zn	0.3826	0.25961	0.16426	1.185
Mof_Zn	Zn	0.37633	0.05304	0.34292	1.182
Mof_H 	H 	0.4799	0.64	0.0692	0.144
Mof_H 	H 	0.3792	0.518	0.0674	0.133
Mof_H 	H 	0.1322	0.0476	0.1842	0.1
Mof_H 	H 	0.992	0.9679	0.1388	0.12
Mof_H 	H 	0.6983	0.3348	0.282	-0.044
Mof_H 	H 	0.2267	0.789	0.3994	-0.017
Mof_H 	H 	0.4107	0.86	0.9308	0.148
Mof_H 	H 	0.3118	0.982	0.9326	0.138
Mof_H 	H 	0.948	0.4524	0.8158	0.108
Mof_H 	H 	0.8532	0.5321	0.8612	0.129
Mof_H 	H 	0.4163	0.1652	0.718	-0.045
Mof_H 	H 	0.8273	0.711	0.6006	-0.018
Mof_H 	H 	0.5201	0.36	0.9308	0.149
Mof_H 	H 	0.6208	0.482	0.9326	0.138
Mof_H 	H 	0.8678	0.9524	0.8158	0.101
Mof_H 	H 	0.008	0.0321	0.8612	0.123
Mof_H 	H 	0.3017	0.6652	0.718	-0.044
Mof_H 	H 	0.7733	0.211	0.6006	-0.017
Mof_H 	H 	0.5893	0.14	0.0692	0.143
Mof_H 	H 	0.6882	0.018	0.0674	0.134
Mof_H 	H 	0.052	0.5476	0.1842	0.106
Mof_H 	H 	0.1468	0.4679	0.1388	0.127
Mof_H 	H 	0.5837	0.8348	0.282	-0.045
Mof_H 	H 	0.1727	0.289	0.3994	-0.017
Mof_C 	C 	0.5674	0.5189	0.1522	0.188
Mof_C 	C 	0.67725	0.4034	0.2465	0.101
Mof_C 	C 	0.08394	0.8966	0.24188	0.182
Mof_C 	C 	0.16648	0.8068	0.34916	0.103
Mof_C 	C 	0.93174	0.4512	0.48648	0.212
Mof_C 	C 	0.4152	0.9811	0.8478	0.191
Mof_C 	C 	0.43075	0.0966	0.7535	0.103
Mof_C 	C 	0.84206	0.6034	0.75812	0.18
Mof_C 	C 	0.81732	0.6932	0.65084	0.103
Mof_C 	C 	0.44526	0.0488	0.51352	0.212
Mof_C 	C 	0.4326	0.4811	0.8478	0.191
Mof_C 	C 	0.32275	0.5966	0.7535	0.101
Mof_C 	C 	0.91606	0.1034	0.75812	0.183
Mof_C 	C 	0.83352	0.1932	0.65084	0.103
Mof_C 	C 	0.06826	0.5488	0.51352	0.212
Mof_C 	C 	0.5848	0.0189	0.1522	0.189
Mof_C 	C 	0.56925	0.9034	0.2465	0.102
Mof_C 	C 	0.15794	0.3966	0.24188	0.18
Mof_C 	C 	0.18268	0.3068	0.34916	0.103
Mof_C 	C 	0.55474	0.9512	0.48648	0.212
Mof_C 	C 	0.7368	0.75	-0	0.517
Mof_C 	C 	0.2632	0.25	-0	0.519
Mof_N 	N 	0.69888	0.5841	0.18836	-0.284
Mof_N 	N 	0.76849	0.5069	0.25058	-0.251
Mof_N 	N 	0.54913	0.4035	0.18646	-0.314
Mof_N 	N 	0.46259	0.5646	0.08838	-0.34
Mof_N 	N 	0.98807	0.7934	0.24094	-0.28
Mof_N 	N 	0.04413	0.7338	0.31126	-0.251
Mof_N 	N 	0.19628	0.9104	0.30796	-0.289
Mof_N 	N 	0.06733	0.9812	0.18066	-0.314
Mof_N 	N 	0.51052	0.9159	0.81164	-0.284
Mof_N 	N 	0.51791	0.9931	0.74942	-0.252
Mof_N 	N 	0.36267	0.0965	0.81354	-0.314
Mof_N 	N 	0.37421	0.9354	0.91162	-0.341
Mof_N 	N 	0.74713	0.7066	0.75906	-0.277
Mof_N 	N 	0.73287	0.7662	0.68874	-0.253
Mof_N 	N 	0.88832	0.5896	0.69204	-0.289
Mof_N 	N 	0.88667	0.5188	0.81934	-0.325
Mof_N 	N 	0.30112	0.4159	0.81164	-0.284
Mof_N 	N 	0.23151	0.4931	0.74942	-0.251
Mof_N 	N 	0.45087	0.5965	0.81354	-0.314
Mof_N 	N 	0.53741	0.4354	0.91162	-0.342
Mof_N 	N 	0.01193	0.2066	0.75906	-0.279
Mof_N 	N 	0.95587	0.2662	0.68874	-0.252
Mof_N 	N 	0.80372	0.0896	0.69204	-0.288
Mof_N 	N 	0.93267	0.0188	0.81934	-0.314
Mof_N 	N 	0.48948	0.0841	0.18836	-0.284
Mof_N 	N 	0.48209	0.0069	0.25058	-0.251
Mof_N 	N 	0.63733	0.9035	0.18646	-0.314
Mof_N 	N 	0.62579	0.0646	0.08838	-0.34
Mof_N 	N 	0.25287	0.2934	0.24094	-0.277
Mof_N 	N 	0.26713	0.2338	0.31126	-0.253
Mof_N 	N 	0.11168	0.4104	0.30796	-0.289
Mof_N 	N 	0.11333	0.4812	0.18066	-0.324
Mof_O 	O 	0.84255	0.7592	0.0657	-0.528
Mof_O 	O 	0.87747	0.4244	0.41374	-0.399
Mof_O 	O 	0.88703	0.3975	0.54006	-0.387
Mof_O 	O 	0.77685	0.7408	0.9343	-0.519
Mof_O 	O 	0.46373	0.0756	0.58626	-0.399
Mof_O 	O 	0.34697	0.1025	0.45994	-0.388
Mof_O 	O 	0.15745	0.2408	0.9343	-0.521
Mof_O 	O 	0.12253	0.5756	0.58626	-0.399
Mof_O 	O 	0.11297	0.6025	0.45994	-0.387
Mof_O 	O 	0.22315	0.2592	0.0657	-0.528
Mof_O 	O 	0.53627	0.9244	0.41374	-0.399
Mof_O 	O 	0.65303	0.8975	0.54006	-0.388
Mof_O 	O 	0.598	0.75	-0	-0.447
Mof_O 	O 	0.402	0.25	-0	-0.448
_end
