data_functionalizedCrystal
_audit_creation_method	'EQeq! by Chris Wilmer'
_symmetry_space_group_name_H-M	'P1'
_symmetry_Int_Tables_number	1
_symmetry_cell_setting	triclinic
loop_
_symmetry_equiv_pos_as_xyz
  x,y,z
_cell_length_a	10.015
_cell_length_b	6.6124
_cell_length_c	12.4721
_cell_angle_alpha	90
_cell_angle_beta	109.412
_cell_angle_gamma	90
loop_
_atom_site_label
_atom_site_type_symbol
_atom_site_fract_x
_atom_site_fract_y
_atom_site_fract_z
_atom_site_charge
Mof_N 	N 	0.8751	0.918	0.2484	-0.131
Mof_N 	N 	0.9305	0.8489	0.3544	-0.121
Mof_N 	N 	0.1249	0.418	0.7516	-0.177
Mof_N 	N 	0.0695	0.3489	0.6456	-0.185
Mof_N 	N 	0.1249	0.082	0.7516	-0.196
Mof_N 	N 	0.0695	0.1511	0.6456	-0.193
Mof_N 	N 	0.8751	0.582	0.2484	-0.151
Mof_N 	N 	0.9305	0.6511	0.3544	-0.135
Mof_Cu	Cu	0.1358	0.75	0.7673	0.908
Mof_C 	C 	0.3914	0.75	0.8547	0.295
Mof_C 	C 	0.5507	0.75	0.8998	-0.053
Mof_C 	C 	0.6294	0.75	0.8292	0.016
Mof_H 	H 	0.5816	0.75	0.7512	0.058
Mof_C 	C 	0.7779	0.75	0.8667	-0.054
Mof_C 	C 	0.8467	0.75	0.9848	-0.003
Mof_H 	H 	0.9451	0.75	0.0137	0.095
Mof_C 	C 	0.7691	0.75	0.0591	-0.011
Mof_C 	C 	0.6267	0.75	0.017	-0.004
Mof_H 	H 	0.5764	0.75	0.0677	0.064
Mof_C 	C 	0.8621	0.75	0.7902	0.329
Mof_C 	C 	0.8388	0.75	0.1872	0.151
Mof_O 	O 	0.3266	0.75	0.9252	-0.316
Mof_O 	O 	0.3265	0.75	0.7484	-0.367
Mof_O 	O 	0.7999	0.75	0.6837	-0.284
Mof_O 	O 	0.9964	0.75	0.8368	-0.321
Mof_O 	O 	0.005	0.75	0.5835	-0.823
Mof_H 	H 	0.9221	0.75	0.5879	0.361
Mof_Cu	Cu	0.8642	0.25	0.2327	0.933
Mof_C 	C 	0.6086	0.25	0.1453	0.293
Mof_C 	C 	0.4493	0.25	0.1002	-0.091
Mof_C 	C 	0.3706	0.25	0.1708	0.041
Mof_H 	H 	0.4184	0.25	0.2488	0.036
Mof_C 	C 	0.2221	0.25	0.1333	-0.126
Mof_C 	C 	0.1533	0.25	0.0152	0.031
Mof_H 	H 	0.0549	0.25	0.9863	0.004
Mof_C 	C 	0.2309	0.25	0.9409	-0.081
Mof_C 	C 	0.3733	0.25	0.983	0.016
Mof_H 	H 	0.4236	0.25	0.9323	0.039
Mof_C 	C 	0.1379	0.25	0.2098	0.34
Mof_C 	C 	0.1612	0.25	0.8128	0.125
Mof_O 	O 	0.6734	0.25	0.0748	-0.323
Mof_O 	O 	0.6735	0.25	0.2516	-0.389
Mof_O 	O 	0.2001	0.25	0.3163	-0.335
Mof_O 	O 	0.0036	0.25	0.1632	-0.475
Mof_O 	O 	0.995	0.25	0.4165	-0.554
Mof_H 	H 	0.0779	0.25	0.4121	0.126
Mof_Cu	Cu	3.11058e-33	0	0.5	0.806
Mof_Cu	Cu	-3.64853e-17	0.5	0.5	0.832
_end
