data_functionalizedCrystal
_audit_creation_method	'EQeq! by Chris Wilmer'
_symmetry_space_group_name_H-M	'P1'
_symmetry_Int_Tables_number	1
_symmetry_cell_setting	triclinic
loop_
_symmetry_equiv_pos_as_xyz
  x,y,z
_cell_length_a	17.1679
_cell_length_b	17.1679
_cell_length_c	33.715
_cell_angle_alpha	113.382
_cell_angle_beta	113.382
_cell_angle_gamma	44.0047
loop_
_atom_site_label
_atom_site_type_symbol
_atom_site_fract_x
_atom_site_fract_y
_atom_site_fract_z
_atom_site_charge
Mof_Ag	Ag	0.53248	0.01728	0.76951	0.906
Mof_C 	C 	0.86433	0.15713	0.64704	0.046
Mof_H 	H 	0.7909	0.1809	0.6358	-0.004
Mof_C 	C 	0.8859	0.2251	0.68033	-0.038
Mof_H 	H 	0.8318	0.3004	0.6947	0.069
Mof_C 	C 	0.00152	0.15892	0.68743	-0.106
Mof_H 	H 	0.0426	0.1804	0.7084	0.063
Mof_C 	C 	0.04922	0.05422	0.65854	0.089
Mof_C 	C 	0.16473	0.96193	0.65494	-0.15
Mof_C 	C 	0.21326	0.85706	0.62665	0.122
Mof_C 	C 	0.33034	0.76794	0.62068	-0.108
Mof_H 	H 	0.39	0.7682	0.636	0.125
Mof_C 	C 	0.3394	0.6842	0.58942	-0.028
Mof_H 	H 	0.4065	0.6145	0.5783	0.054
Mof_C 	C 	0.23229	0.71869	0.57641	0.045
Mof_H 	H 	0.216	0.6742	0.5546	-0.006
Mof_C 	C 	0.24325	0.97905	0.68424	0.16
Mof_C 	C 	0.32785	0.91285	0.71651	-0.177
Mof_H 	H 	0.3365	0.8549	0.7203	0.122
Mof_C 	C 	0.39949	0.93309	0.74305	0.16
Mof_H 	H 	0.4556	0.8884	0.7654	0.041
Mof_C 	C 	0.3127	0.0745	0.70803	0.116
Mof_H 	H 	0.3076	0.1306	0.7048	0.011
Mof_C 	C 	0.23701	0.06301	0.68103	-0.195
Mof_H 	H 	0.1798	0.1116	0.6599	0.098
Mof_C 	C 	0.7052	0.0686	0.5604	0.039
Mof_H 	H 	0.7097	0.0851	0.538	-0.004
Mof_C 	C 	0.6035	0.1093	0.5664	-0.037
Mof_H 	H 	0.5292	0.1574	0.55	0.045
Mof_C 	C 	0.6356	0.0636	0.6014	-0.112
Mof_H 	H 	0.5864	0.0728	0.6128	0.078
Mof_C 	C 	0.75167	0.00187	0.61739	0.131
Mof_C 	C 	0.81809	0.94129	0.65174	-0.162
Mof_C 	C 	0.93524	0.87304	0.6666	0.08
Mof_C 	C 	0.0012	0.8182	0.70451	-0.043
Mof_H 	H 	0.9725	0.8197	0.724	0.038
Mof_C 	C 	0.1103	0.7647	0.70764	-0.074
Mof_H 	H 	0.1729	0.7197	0.729	0.064
Mof_C 	C 	0.114	0.788	0.67294	0.058
Mof_H 	H 	0.1805	0.7633	0.6683	-0.006
Mof_C 	C 	0.75568	0.95108	0.6768	0.132
Mof_C 	C 	0.67317	0.05677	0.69964	-0.16
Mof_H 	H 	0.6555	0.1229	0.6988	0.099
Mof_C 	C 	0.6176	0.0646	0.7234	0.091
Mof_H 	H 	0.5626	0.137	0.7391	0.047
Mof_C 	C 	0.7157	0.8749	0.7033	0.098
Mof_H 	H 	0.7305	0.8105	0.7042	0.032
Mof_C 	C 	0.7764	0.8604	0.67913	-0.177
Mof_H 	H 	0.8323	0.7869	0.6643	0.092
Mof_C 	C 	0.07067	0.87767	0.02697	0.065
Mof_H 	H 	0.1275	0.8667	0.0518	-0.017
Mof_C 	C 	0.08353	0.85073	0.98342	-0.033
Mof_H 	H 	0.1483	0.8181	0.9737	0.035
Mof_C 	C 	0.98286	0.88146	0.95816	-0.122
Mof_H 	H 	0.9637	0.8757	0.9272	0.064
Mof_C 	C 	0.91178	0.92358	0.98634	0.115
Mof_C 	C 	0.8031	0.9609	0.97354	-0.161
Mof_C 	C 	0.73044	0.99824	0.99995	0.106
Mof_C 	C 	0.6217	0.0355	0.9861	-0.097
Mof_H 	H 	0.5808	0.0408	0.9569	0.069
Mof_C 	C 	0.5853	0.0629	0.0226	-0.046
Mof_H 	H 	0.514	0.0908	0.0234	0.045
Mof_C 	C 	0.6706	0.0432	0.0583	0.043
Mof_H 	H 	0.6665	0.0555	0.0877	-0.005
Mof_C 	C 	0.75205	0.96385	0.92587	0.128
Mof_C 	C 	0.7063	0.0501	0.90713	-0.158
Mof_H 	H 	0.7103	0.1069	0.9239	0.088
Mof_C 	C 	0.65316	0.05356	0.86265	0.085
Mof_H 	H 	0.6201	0.1145	0.8501	0.032
Mof_C 	C 	0.69655	0.88955	0.85585	0.086
Mof_H 	H 	0.6954	0.8314	0.8381	0.049
Mof_C 	C 	0.74954	0.88074	0.8995	-0.172
Mof_H 	H 	0.7836	0.8178	0.9109	0.094
Mof_In	In	0.97326	0.91142	0.59017	1.758
Mof_N 	N 	0.96043	0.05483	0.63327	-0.302
Mof_N 	N 	0.1548	0.8208	0.59781	-0.308
Mof_N 	N 	0.39509	0.00989	0.73943	-0.21
Mof_N 	N 	0.79499	0.00379	0.59016	-0.308
Mof_N 	N 	0.01151	0.84951	0.64754	-0.299
Mof_N 	N 	0.63721	0.97681	0.7254	-0.196
Mof_N 	N 	0.97153	0.91973	0.0295	-0.325
Mof_N 	N 	0.75978	0.00438	0.04551	-0.306
Mof_N 	N 	0.6476	0.9746	0.83767	-0.195
Mof_P 	P 	0.68211	0.66585	0.72486	1.257
Mof_F 	F 	0.78162	0.56652	0.70661	-0.612
Mof_F 	F 	0.65881	0.59961	0.72665	-0.381
Mof_F 	F 	0.6685	0.7079	0.77474	-0.386
Mof_F 	F 	0.65872	0.76872	0.74994	-0.485
Mof_F 	F 	0.57613	0.67793	0.70237	-0.328
Mof_F 	F 	0.60945	0.74825	0.69198	-0.423
Mof_Ag	Ag	0.98272	0.46752	0.73049	0.906
Mof_C 	C 	0.84287	0.13567	0.85296	0.045
Mof_H 	H 	0.8191	0.2091	0.8642	-0.004
Mof_C 	C 	0.7749	0.1141	0.81967	-0.04
Mof_H 	H 	0.6996	0.1682	0.8053	0.069
Mof_C 	C 	0.84108	0.99848	0.81257	-0.105
Mof_H 	H 	0.8196	0.9574	0.7916	0.063
Mof_C 	C 	0.94578	0.95078	0.84146	0.09
Mof_C 	C 	0.03807	0.83527	0.84506	-0.15
Mof_C 	C 	0.14294	0.78674	0.87335	0.122
Mof_C 	C 	0.23206	0.66966	0.87932	-0.109
Mof_H 	H 	0.2318	0.61	0.864	0.125
Mof_C 	C 	0.3158	0.6606	0.91058	-0.028
Mof_H 	H 	0.3855	0.5935	0.9217	0.054
Mof_C 	C 	0.28131	0.76771	0.92359	0.045
Mof_H 	H 	0.3258	0.784	0.9454	-0.005
Mof_C 	C 	0.02095	0.75675	0.81576	0.159
Mof_C 	C 	0.08715	0.67215	0.78349	-0.177
Mof_H 	H 	0.1451	0.6635	0.7797	0.122
Mof_C 	C 	0.06691	0.60051	0.75695	0.158
Mof_H 	H 	0.1116	0.5444	0.7346	0.041
Mof_C 	C 	0.9255	0.6873	0.79197	0.116
Mof_H 	H 	0.8694	0.6924	0.7952	0.011
Mof_C 	C 	0.93699	0.76299	0.81897	-0.193
Mof_H 	H 	0.8884	0.8202	0.8401	0.097
Mof_C 	C 	0.9314	0.2948	0.9396	0.039
Mof_H 	H 	0.9149	0.2903	0.962	-0.004
Mof_C 	C 	0.8907	0.3965	0.9336	-0.037
Mof_H 	H 	0.8426	0.4708	0.95	0.045
Mof_C 	C 	0.9364	0.3644	0.8986	-0.112
Mof_H 	H 	0.9272	0.4136	0.8872	0.078
Mof_C 	C 	0.99813	0.24833	0.88261	0.131
Mof_C 	C 	0.05871	0.18191	0.84826	-0.162
Mof_C 	C 	0.12696	0.06476	0.8334	0.077
Mof_C 	C 	0.1818	0.9988	0.79549	-0.038
Mof_H 	H 	0.1803	0.0275	0.776	0.036
Mof_C 	C 	0.2353	0.8897	0.79236	-0.076
Mof_H 	H 	0.2803	0.8271	0.771	0.065
Mof_C 	C 	0.212	0.886	0.82706	0.058
Mof_H 	H 	0.2367	0.8195	0.8317	-0.006
Mof_C 	C 	0.04892	0.24432	0.8232	0.13
Mof_C 	C 	0.94323	0.32683	0.80036	-0.159
Mof_H 	H 	0.8771	0.3445	0.8012	0.099
Mof_C 	C 	0.9354	0.3824	0.7766	0.091
Mof_H 	H 	0.863	0.4374	0.7609	0.047
Mof_C 	C 	0.1251	0.2843	0.7967	0.097
Mof_H 	H 	0.1895	0.2695	0.7958	0.032
Mof_C 	C 	0.1396	0.2236	0.82087	-0.176
Mof_H 	H 	0.2131	0.1677	0.8357	0.091
Mof_C 	C 	0.12233	0.92933	0.47303	0.065
Mof_H 	H 	0.1333	0.8725	0.4482	-0.017
Mof_C 	C 	0.14927	0.91647	0.51658	-0.033
Mof_H 	H 	0.1819	0.8517	0.5263	0.035
Mof_C 	C 	0.11854	0.01714	0.54184	-0.123
Mof_H 	H 	0.1243	0.0363	0.5728	0.064
Mof_C 	C 	0.07642	0.08822	0.51366	0.113
Mof_C 	C 	0.0391	0.1969	0.52646	-0.159
Mof_C 	C 	0.00176	0.26956	0.50005	0.102
Mof_C 	C 	0.9645	0.3783	0.5139	-0.091
Mof_H 	H 	0.9592	0.4192	0.5431	0.067
Mof_C 	C 	0.9371	0.4147	0.4774	-0.05
Mof_H 	H 	0.9092	0.486	0.4766	0.046
Mof_C 	C 	0.9568	0.3294	0.4417	0.045
Mof_H 	H 	0.9445	0.3335	0.4123	-0.006
Mof_C 	C 	0.03615	0.24795	0.57413	0.125
Mof_C 	C 	0.9499	0.2937	0.59287	-0.156
Mof_H 	H 	0.8931	0.2897	0.5761	0.087
Mof_C 	C 	0.94644	0.34684	0.63735	0.085
Mof_H 	H 	0.8855	0.3799	0.6499	0.032
Mof_C 	C 	0.11045	0.30345	0.64415	0.085
Mof_H 	H 	0.1686	0.3046	0.6619	0.049
Mof_C 	C 	0.11926	0.25046	0.6005	-0.171
Mof_H 	H 	0.1822	0.2164	0.5891	0.094
Mof_In	In	0.08858	0.02674	0.90983	1.753
Mof_N 	N 	0.94517	0.03957	0.86673	-0.302
Mof_N 	N 	0.1792	0.8452	0.90219	-0.308
Mof_N 	N 	0.99011	0.60491	0.76057	-0.209
Mof_N 	N 	0.99621	0.20501	0.90984	-0.307
Mof_N 	N 	0.15049	0.98849	0.85246	-0.298
Mof_N 	N 	0.02319	0.36279	0.7746	-0.197
Mof_N 	N 	0.08027	0.02847	0.4705	-0.324
Mof_N 	N 	0.99562	0.24022	0.45449	-0.306
Mof_N 	N 	0.0254	0.3524	0.66233	-0.196
Mof_P 	P 	0.33415	0.31789	0.77514	1.257
Mof_F 	F 	0.43348	0.21838	0.79339	-0.612
Mof_F 	F 	0.40039	0.34119	0.77335	-0.381
Mof_F 	F 	0.2921	0.3315	0.72526	-0.386
Mof_F 	F 	0.23128	0.34128	0.75006	-0.485
Mof_F 	F 	0.32207	0.42387	0.79763	-0.328
Mof_F 	F 	0.25175	0.39055	0.80802	-0.424
Mof_Ag	Ag	0.46752	0.98272	0.23049	0.905
Mof_C 	C 	0.13567	0.84287	0.35296	0.045
Mof_H 	H 	0.2091	0.8191	0.3642	-0.004
Mof_C 	C 	0.1141	0.7749	0.31967	-0.038
Mof_H 	H 	0.1682	0.6996	0.3053	0.069
Mof_C 	C 	0.99848	0.84108	0.31257	-0.106
Mof_H 	H 	0.9574	0.8196	0.2916	0.063
Mof_C 	C 	0.95078	0.94578	0.34146	0.089
Mof_C 	C 	0.83527	0.03807	0.34506	-0.15
Mof_C 	C 	0.78674	0.14294	0.37335	0.122
Mof_C 	C 	0.66966	0.23206	0.37932	-0.108
Mof_H 	H 	0.61	0.2318	0.364	0.125
Mof_C 	C 	0.6606	0.3158	0.41058	-0.028
Mof_H 	H 	0.5935	0.3855	0.4217	0.054
Mof_C 	C 	0.76771	0.28131	0.42359	0.045
Mof_H 	H 	0.784	0.3258	0.4454	-0.006
Mof_C 	C 	0.75675	0.02095	0.31576	0.16
Mof_C 	C 	0.67215	0.08715	0.28349	-0.177
Mof_H 	H 	0.6635	0.1451	0.2797	0.122
Mof_C 	C 	0.60051	0.06691	0.25695	0.16
Mof_H 	H 	0.5444	0.1116	0.2346	0.041
Mof_C 	C 	0.6873	0.9255	0.29197	0.116
Mof_H 	H 	0.6924	0.8694	0.2952	0.011
Mof_C 	C 	0.76299	0.93699	0.31897	-0.195
Mof_H 	H 	0.8202	0.8884	0.3401	0.098
Mof_C 	C 	0.2948	0.9314	0.4396	0.039
Mof_H 	H 	0.2903	0.9149	0.462	-0.004
Mof_C 	C 	0.3965	0.8907	0.4336	-0.037
Mof_H 	H 	0.4708	0.8426	0.45	0.045
Mof_C 	C 	0.3644	0.9364	0.3986	-0.112
Mof_H 	H 	0.4136	0.9272	0.3872	0.078
Mof_C 	C 	0.24833	0.99813	0.38261	0.131
Mof_C 	C 	0.18191	0.05871	0.34826	-0.162
Mof_C 	C 	0.06476	0.12696	0.3334	0.08
Mof_C 	C 	0.9988	0.1818	0.29549	-0.043
Mof_H 	H 	0.0275	0.1803	0.276	0.038
Mof_C 	C 	0.8897	0.2353	0.29236	-0.074
Mof_H 	H 	0.8271	0.2803	0.271	0.064
Mof_C 	C 	0.886	0.212	0.32706	0.058
Mof_H 	H 	0.8195	0.2367	0.3317	-0.006
Mof_C 	C 	0.24432	0.04892	0.3232	0.132
Mof_C 	C 	0.32683	0.94323	0.30036	-0.16
Mof_H 	H 	0.3445	0.8771	0.3012	0.099
Mof_C 	C 	0.3824	0.9354	0.2766	0.091
Mof_H 	H 	0.4374	0.863	0.2609	0.047
Mof_C 	C 	0.2843	0.1251	0.2967	0.098
Mof_H 	H 	0.2695	0.1895	0.2958	0.032
Mof_C 	C 	0.2236	0.1396	0.32087	-0.177
Mof_H 	H 	0.1677	0.2131	0.3357	0.092
Mof_C 	C 	0.92933	0.12233	0.97303	0.065
Mof_H 	H 	0.8725	0.1333	0.9482	-0.017
Mof_C 	C 	0.91647	0.14927	0.01658	-0.033
Mof_H 	H 	0.8517	0.1819	0.0263	0.035
Mof_C 	C 	0.01714	0.11854	0.04184	-0.122
Mof_H 	H 	0.0363	0.1243	0.0728	0.064
Mof_C 	C 	0.08822	0.07642	0.01366	0.115
Mof_C 	C 	0.1969	0.0391	0.02646	-0.161
Mof_C 	C 	0.26956	0.00176	5e-05	0.106
Mof_C 	C 	0.3783	0.9645	0.0139	-0.097
Mof_H 	H 	0.4192	0.9592	0.0431	0.069
Mof_C 	C 	0.4147	0.9371	0.9774	-0.046
Mof_H 	H 	0.486	0.9092	0.9766	0.045
Mof_C 	C 	0.3294	0.9568	0.9417	0.043
Mof_H 	H 	0.3335	0.9445	0.9123	-0.005
Mof_C 	C 	0.24795	0.03615	0.07413	0.128
Mof_C 	C 	0.2937	0.9499	0.09287	-0.158
Mof_H 	H 	0.2897	0.8931	0.0761	0.088
Mof_C 	C 	0.34684	0.94644	0.13735	0.085
Mof_H 	H 	0.3799	0.8855	0.1499	0.032
Mof_C 	C 	0.30345	0.11045	0.14415	0.086
Mof_H 	H 	0.3046	0.1686	0.1619	0.049
Mof_C 	C 	0.25046	0.11926	0.1005	-0.172
Mof_H 	H 	0.2164	0.1822	0.0891	0.094
Mof_In	In	0.02674	0.08858	0.40983	1.758
Mof_N 	N 	0.03957	0.94517	0.36673	-0.302
Mof_N 	N 	0.8452	0.1792	0.40219	-0.308
Mof_N 	N 	0.60491	0.99011	0.26057	-0.21
Mof_N 	N 	0.20501	0.99621	0.40984	-0.308
Mof_N 	N 	0.98849	0.15049	0.35246	-0.299
Mof_N 	N 	0.36279	0.02319	0.2746	-0.196
Mof_N 	N 	0.02847	0.08027	0.9705	-0.325
Mof_N 	N 	0.24022	0.99562	0.95449	-0.306
Mof_N 	N 	0.3524	0.0254	0.16233	-0.195
Mof_P 	P 	0.31789	0.33415	0.27514	1.257
Mof_F 	F 	0.21838	0.43348	0.29339	-0.612
Mof_F 	F 	0.34119	0.40039	0.27335	-0.381
Mof_F 	F 	0.3315	0.2921	0.22526	-0.386
Mof_F 	F 	0.34128	0.23128	0.25006	-0.485
Mof_F 	F 	0.42387	0.32207	0.29763	-0.328
Mof_F 	F 	0.39055	0.25175	0.30802	-0.423
Mof_Ag	Ag	0.01728	0.53248	0.26951	0.906
Mof_C 	C 	0.15713	0.86433	0.14704	0.045
Mof_H 	H 	0.1809	0.7909	0.1358	-0.004
Mof_C 	C 	0.2251	0.8859	0.18033	-0.04
Mof_H 	H 	0.3004	0.8318	0.1947	0.069
Mof_C 	C 	0.15892	0.00152	0.18743	-0.105
Mof_H 	H 	0.1804	0.0426	0.2084	0.063
Mof_C 	C 	0.05422	0.04922	0.15854	0.09
Mof_C 	C 	0.96193	0.16473	0.15494	-0.15
Mof_C 	C 	0.85706	0.21326	0.12665	0.122
Mof_C 	C 	0.76794	0.33034	0.12068	-0.109
Mof_H 	H 	0.7682	0.39	0.136	0.125
Mof_C 	C 	0.6842	0.3394	0.08942	-0.028
Mof_H 	H 	0.6145	0.4065	0.0783	0.054
Mof_C 	C 	0.71869	0.23229	0.07641	0.045
Mof_H 	H 	0.6742	0.216	0.0546	-0.005
Mof_C 	C 	0.97905	0.24325	0.18424	0.159
Mof_C 	C 	0.91285	0.32785	0.21651	-0.177
Mof_H 	H 	0.8549	0.3365	0.2203	0.122
Mof_C 	C 	0.93309	0.39949	0.24305	0.158
Mof_H 	H 	0.8884	0.4556	0.2654	0.041
Mof_C 	C 	0.0745	0.3127	0.20803	0.116
Mof_H 	H 	0.1306	0.3076	0.2048	0.011
Mof_C 	C 	0.06301	0.23701	0.18103	-0.193
Mof_H 	H 	0.1116	0.1798	0.1599	0.097
Mof_C 	C 	0.0686	0.7052	0.0604	0.039
Mof_H 	H 	0.0851	0.7097	0.038	-0.004
Mof_C 	C 	0.1093	0.6035	0.0664	-0.037
Mof_H 	H 	0.1574	0.5292	0.05	0.045
Mof_C 	C 	0.0636	0.6356	0.1014	-0.112
Mof_H 	H 	0.0728	0.5864	0.1128	0.078
Mof_C 	C 	0.00187	0.75167	0.11739	0.131
Mof_C 	C 	0.94129	0.81809	0.15174	-0.162
Mof_C 	C 	0.87304	0.93524	0.1666	0.077
Mof_C 	C 	0.8182	0.0012	0.20451	-0.038
Mof_H 	H 	0.8197	0.9725	0.224	0.036
Mof_C 	C 	0.7647	0.1103	0.20764	-0.076
Mof_H 	H 	0.7197	0.1729	0.229	0.065
Mof_C 	C 	0.788	0.114	0.17294	0.058
Mof_H 	H 	0.7633	0.1805	0.1683	-0.006
Mof_C 	C 	0.95108	0.75568	0.1768	0.13
Mof_C 	C 	0.05677	0.67317	0.19964	-0.159
Mof_H 	H 	0.1229	0.6555	0.1988	0.099
Mof_C 	C 	0.0646	0.6176	0.2234	0.091
Mof_H 	H 	0.137	0.5626	0.2391	0.047
Mof_C 	C 	0.8749	0.7157	0.2033	0.097
Mof_H 	H 	0.8105	0.7305	0.2042	0.032
Mof_C 	C 	0.8604	0.7764	0.17913	-0.176
Mof_H 	H 	0.7869	0.8323	0.1643	0.091
Mof_C 	C 	0.87767	0.07067	0.52697	0.065
Mof_H 	H 	0.8667	0.1275	0.5518	-0.017
Mof_C 	C 	0.85073	0.08353	0.48342	-0.033
Mof_H 	H 	0.8181	0.1483	0.4737	0.035
Mof_C 	C 	0.88146	0.98286	0.45816	-0.123
Mof_H 	H 	0.8757	0.9637	0.4272	0.064
Mof_C 	C 	0.92358	0.91178	0.48634	0.113
Mof_C 	C 	0.9609	0.8031	0.47354	-0.159
Mof_C 	C 	0.99824	0.73044	0.49995	0.102
Mof_C 	C 	0.0355	0.6217	0.4861	-0.091
Mof_H 	H 	0.0408	0.5808	0.4569	0.067
Mof_C 	C 	0.0629	0.5853	0.5226	-0.05
Mof_H 	H 	0.0908	0.514	0.5234	0.046
Mof_C 	C 	0.0432	0.6706	0.5583	0.045
Mof_H 	H 	0.0555	0.6665	0.5877	-0.006
Mof_C 	C 	0.96385	0.75205	0.42587	0.125
Mof_C 	C 	0.0501	0.7063	0.40713	-0.156
Mof_H 	H 	0.1069	0.7103	0.4239	0.087
Mof_C 	C 	0.05356	0.65316	0.36265	0.085
Mof_H 	H 	0.1145	0.6201	0.3501	0.032
Mof_C 	C 	0.88955	0.69655	0.35585	0.085
Mof_H 	H 	0.8314	0.6954	0.3381	0.049
Mof_C 	C 	0.88074	0.74954	0.3995	-0.171
Mof_H 	H 	0.8178	0.7836	0.4109	0.094
Mof_In	In	0.91142	0.97326	0.09017	1.753
Mof_N 	N 	0.05483	0.96043	0.13327	-0.302
Mof_N 	N 	0.8208	0.1548	0.09781	-0.308
Mof_N 	N 	0.00989	0.39509	0.23943	-0.209
Mof_N 	N 	0.00379	0.79499	0.09016	-0.307
Mof_N 	N 	0.84951	0.01151	0.14754	-0.298
Mof_N 	N 	0.97681	0.63721	0.2254	-0.197
Mof_N 	N 	0.91973	0.97153	0.5295	-0.324
Mof_N 	N 	0.00438	0.75978	0.54551	-0.306
Mof_N 	N 	0.9746	0.6476	0.33767	-0.196
Mof_P 	P 	0.66585	0.68211	0.22486	1.257
Mof_F 	F 	0.56652	0.78162	0.20661	-0.612
Mof_F 	F 	0.59961	0.65881	0.22665	-0.381
Mof_F 	F 	0.7079	0.6685	0.27474	-0.386
Mof_F 	F 	0.76872	0.65872	0.24994	-0.485
Mof_F 	F 	0.67793	0.57613	0.20237	-0.328
Mof_F 	F 	0.74825	0.60945	0.19198	-0.424
_end
