data_functionalizedCrystal
_audit_creation_method	'EQeq! by Chris Wilmer'
_symmetry_space_group_name_H-M	'P1'
_symmetry_Int_Tables_number	1
_symmetry_cell_setting	triclinic
loop_
_symmetry_equiv_pos_as_xyz
  x,y,z
_cell_length_a	6.7898
_cell_length_b	15.0963
_cell_length_c	15.0963
_cell_angle_alpha	62.2066
_cell_angle_beta	81.3775
_cell_angle_gamma	98.6225
loop_
_atom_site_label
_atom_site_type_symbol
_atom_site_fract_x
_atom_site_fract_y
_atom_site_fract_z
_atom_site_charge
Mof_Co	Co	0.4003	0.5833	0.7174	1.163
Mof_Co	Co	0.817	0.6993	0.5833	1.174
Mof_Co	Co	0.1177	0.7174	0.6993	1.148
Mof_Co	Co	0.4003	0.2826	0.4167	1.164
Mof_Co	Co	0.1177	0.3007	0.2826	1.15
Mof_Co	Co	0.817	0.4167	0.3007	1.174
Mof_H 	H 	0.2447	0	0.4839	0.132
Mof_H 	H 	0.5347	0.4231	-0	-0.018
Mof_H 	H 	0.7286	0.4839	0.5161	0.138
Mof_H 	H 	0.2447	0.5161	-0	0.13
Mof_H 	H 	0.5347	0	0.5769	-0.02
Mof_H 	H 	0.1116	0.5769	0.4231	-0.028
Mof_C 	C 	0.7297	0.415	0.0939	-0.351
Mof_C 	C 	0.9444	0.9081	0.5603	0.425
Mof_C 	C 	0.3147	0.585	0.5089	-0.355
Mof_C 	C 	0.5047	0.4684	0.4397	0.391
Mof_C 	C 	0.2026	0.6443	0.5415	0.424
Mof_C 	C 	0.5817	0.50355	0.49645	-0.394
Mof_C 	C 	0.9444	0.4397	0.0919	0.433
Mof_C 	C 	0.7297	0.9061	0.585	-0.366
Mof_C 	C 	0.0363	0.0919	0.4684	0.353
Mof_C 	C 	0.07815	0	0.50355	-0.425
Mof_C 	C 	0.8236	0.0939	0.4911	-0.307
Mof_C 	C 	0.5047	0.5603	0.5316	0.391
Mof_C 	C 	0.68075	-4.33935e-17	0.55875	0.241
Mof_C 	C 	0.7441	0.5415	0.8142	0.413
Mof_C 	C 	0.8236	0.5089	0.9061	-0.303
Mof_C 	C 	0.68075	0.44125	-0	0.225
Mof_C 	C 	0.5583	0.8142	0.6443	0.432
Mof_C 	C 	0.2026	0.4585	0.3557	0.425
Mof_C 	C 	0.0363	0.5316	0.9081	0.346
Mof_C 	C 	0.5583	0.3557	0.1858	0.429
Mof_C 	C 	0.3147	0.4911	0.415	-0.354
Mof_C 	C 	0.2395	0.55875	0.44125	0.232
Mof_C 	C 	0.7441	0.1858	0.4585	0.416
Mof_C 	C 	0.07815	0.49645	-0	-0.429
Mof_O 	O 	0.598	0.3413	0.2746	-0.596
Mof_O 	O 	0.5797	0.5849	0.5967	-0.551
Mof_O 	O 	0.1764	0.1816	0.4033	-0.555
Mof_O 	O 	0.5568	0.1762	0.499	-0.446
Mof_O 	O 	0.2567	0.6587	0.6159	-0.605
Mof_O 	O 	0.0558	0.6752	0.501	-0.473
Mof_O 	O 	0.3806	0.3248	0.1762	-0.455
Mof_O 	O 	0.0558	0.499	0.3248	-0.472
Mof_O 	O 	0.8726	0.2746	0.3841	-0.573
Mof_O 	O 	0.3806	0.8238	0.6752	-0.462
Mof_O 	O 	0.1764	0.5967	0.8184	-0.556
Mof_O 	O 	0.598	0.7254	0.6587	-0.597
Mof_O 	O 	0.2567	0.3841	0.3413	-0.604
Mof_O 	O 	0.9948	0.4151	0.1816	-0.541
Mof_O 	O 	0.9948	0.8184	0.5849	-0.541
Mof_O 	O 	0.5797	0.4033	0.4151	-0.551
Mof_O 	O 	0.5568	0.501	0.8238	-0.448
Mof_O 	O 	0.8726	0.6159	0.7254	-0.573
_end
