data_functionalizedCrystal
_audit_creation_method	'EQeq! by Chris Wilmer'
_symmetry_space_group_name_H-M	'P1'
_symmetry_Int_Tables_number	1
_symmetry_cell_setting	triclinic
loop_
_symmetry_equiv_pos_as_xyz
  x,y,z
_cell_length_a	20.1413
_cell_length_b	34.892
_cell_length_c	11.1939
_cell_angle_alpha	90
_cell_angle_beta	90
_cell_angle_gamma	90
loop_
_atom_site_label
_atom_site_type_symbol
_atom_site_fract_x
_atom_site_fract_y
_atom_site_fract_z
_atom_site_charge
Mof_O 	O 	0.43453	0.39402	0.102	-0.615
Mof_O 	O 	0.8979	0.94241	0.2195	-0.755
Mof_C 	C 	0.78482	0.78013	0.43739	-0.006
Mof_C 	C 	0.81008	0.813	0.3691	0.022
Mof_C 	C 	0.86721	0.80783	0.30077	-0.036
Mof_C 	C 	0.89524	0.83869	0.24128	0.091
Mof_C 	C 	0.78021	0.84935	0.37477	-0.032
Mof_C 	C 	0.90065	0.90685	0.187	0.517
Mof_C 	C 	0.86708	0.87536	0.24931	-0.168
Mof_C 	C 	0.80892	0.88063	0.31572	0.037
Mof_O 	O 	0.93453	0.89402	0.102	-0.606
Mof_O 	O 	0.3979	0.44241	0.2195	-0.784
Mof_C 	C 	0.28482	0.28013	0.43739	-0.008
Mof_C 	C 	0.31008	0.313	0.3691	0.022
Mof_C 	C 	0.36721	0.30783	0.30077	-0.042
Mof_C 	C 	0.39524	0.33869	0.24128	0.085
Mof_C 	C 	0.28021	0.34935	0.37477	-0.039
Mof_C 	C 	0.40065	0.40685	0.187	0.518
Mof_C 	C 	0.36708	0.37536	0.24931	-0.171
Mof_C 	C 	0.30892	0.38063	0.31572	0.023
Mof_O 	O 	0.56547	0.60598	0.102	-0.615
Mof_O 	O 	0.1021	0.05759	0.2195	-0.803
Mof_C 	C 	0.21518	0.21987	0.43739	-0.008
Mof_C 	C 	0.18992	0.187	0.3691	0.022
Mof_C 	C 	0.13279	0.19217	0.30077	-0.043
Mof_C 	C 	0.10476	0.16131	0.24128	0.081
Mof_C 	C 	0.21979	0.15065	0.37477	-0.042
Mof_C 	C 	0.09935	0.09315	0.187	0.519
Mof_C 	C 	0.13292	0.12464	0.24931	-0.173
Mof_C 	C 	0.19108	0.11937	0.31572	0.013
Mof_O 	O 	0.06547	0.10598	0.102	-0.621
Mof_O 	O 	0.6021	0.55759	0.2195	-0.783
Mof_C 	C 	0.71518	0.71987	0.43739	-0.006
Mof_C 	C 	0.68992	0.687	0.3691	0.022
Mof_C 	C 	0.63279	0.69217	0.30077	-0.038
Mof_C 	C 	0.60476	0.66131	0.24128	0.086
Mof_C 	C 	0.71979	0.65065	0.37477	-0.036
Mof_C 	C 	0.59935	0.59315	0.187	0.518
Mof_C 	C 	0.63292	0.62464	0.24931	-0.17
Mof_C 	C 	0.69108	0.61937	0.31572	0.026
Mof_O 	O 	0.56547	0.39402	0.898	-0.586
Mof_O 	O 	0.1021	0.94241	0.7805	-0.751
Mof_C 	C 	0.21518	0.78013	0.56261	-0.008
Mof_C 	C 	0.18992	0.813	0.6309	0.024
Mof_C 	C 	0.13279	0.80783	0.69923	-0.034
Mof_C 	C 	0.10476	0.83869	0.75872	0.094
Mof_C 	C 	0.21979	0.84935	0.62523	-0.029
Mof_C 	C 	0.09935	0.90685	0.813	0.515
Mof_C 	C 	0.13292	0.87536	0.75069	-0.165
Mof_C 	C 	0.19108	0.88063	0.68428	0.043
Mof_O 	O 	0.06547	0.89402	0.898	-0.586
Mof_O 	O 	0.6021	0.44241	0.7805	-0.773
Mof_C 	C 	0.71518	0.28013	0.56261	-0.008
Mof_C 	C 	0.68992	0.313	0.6309	0.024
Mof_C 	C 	0.63279	0.30783	0.69923	-0.034
Mof_C 	C 	0.60476	0.33869	0.75872	0.096
Mof_C 	C 	0.71979	0.34935	0.62523	-0.033
Mof_C 	C 	0.59935	0.40685	0.813	0.517
Mof_C 	C 	0.63292	0.37536	0.75069	-0.167
Mof_C 	C 	0.69108	0.38063	0.68428	0.032
Mof_O 	O 	0.43453	0.60598	0.898	-0.586
Mof_O 	O 	0.8979	0.05759	0.7805	-0.789
Mof_C 	C 	0.78482	0.21987	0.56261	-0.008
Mof_C 	C 	0.81008	0.187	0.6309	0.024
Mof_C 	C 	0.86721	0.19217	0.69923	-0.031
Mof_C 	C 	0.89524	0.16131	0.75872	0.098
Mof_C 	C 	0.78021	0.15065	0.62523	-0.038
Mof_C 	C 	0.90065	0.09315	0.813	0.518
Mof_C 	C 	0.86708	0.12464	0.75069	-0.168
Mof_C 	C 	0.80892	0.11937	0.68428	0.021
Mof_O 	O 	0.93453	0.10598	0.898	-0.584
Mof_O 	O 	0.3979	0.55759	0.7805	-0.774
Mof_C 	C 	0.28482	0.71987	0.56261	-0.008
Mof_C 	C 	0.31008	0.687	0.6309	0.024
Mof_C 	C 	0.36721	0.69217	0.69923	-0.03
Mof_C 	C 	0.39524	0.66131	0.75872	0.096
Mof_C 	C 	0.28021	0.65065	0.62523	-0.035
Mof_C 	C 	0.40065	0.59315	0.813	0.517
Mof_C 	C 	0.36708	0.62464	0.75069	-0.167
Mof_C 	C 	0.30892	0.61937	0.68428	0.031
Mof_O 	O 	0.56547	0.60598	0.898	-0.586
Mof_O 	O 	0.1021	0.05759	0.7805	-0.792
Mof_C 	C 	0.21518	0.21987	0.56261	-0.009
Mof_C 	C 	0.18992	0.187	0.6309	0.024
Mof_C 	C 	0.13279	0.19217	0.69923	-0.034
Mof_C 	C 	0.10476	0.16131	0.75872	0.093
Mof_C 	C 	0.21979	0.15065	0.62523	-0.038
Mof_C 	C 	0.09935	0.09315	0.813	0.518
Mof_C 	C 	0.13292	0.12464	0.75069	-0.168
Mof_C 	C 	0.19108	0.11937	0.68428	0.021
Mof_O 	O 	0.06547	0.10598	0.898	-0.588
Mof_O 	O 	0.6021	0.55759	0.7805	-0.773
Mof_C 	C 	0.71518	0.71987	0.56261	-0.007
Mof_C 	C 	0.68992	0.687	0.6309	0.024
Mof_C 	C 	0.63279	0.69217	0.69923	-0.03
Mof_C 	C 	0.60476	0.66131	0.75872	0.096
Mof_C 	C 	0.71979	0.65065	0.62523	-0.033
Mof_C 	C 	0.59935	0.59315	0.813	0.517
Mof_C 	C 	0.63292	0.62464	0.75069	-0.167
Mof_C 	C 	0.69108	0.61937	0.68428	0.032
Mof_O 	O 	0.43453	0.39402	0.898	-0.586
Mof_O 	O 	0.8979	0.94241	0.7805	-0.748
Mof_C 	C 	0.78482	0.78013	0.56261	-0.006
Mof_C 	C 	0.81008	0.813	0.6309	0.024
Mof_C 	C 	0.86721	0.80783	0.69923	-0.03
Mof_C 	C 	0.89524	0.83869	0.75872	0.099
Mof_C 	C 	0.78021	0.84935	0.62523	-0.029
Mof_C 	C 	0.90065	0.90685	0.813	0.516
Mof_C 	C 	0.86708	0.87536	0.75069	-0.164
Mof_C 	C 	0.80892	0.88063	0.68428	0.044
Mof_O 	O 	0.93453	0.89402	0.898	-0.582
Mof_O 	O 	0.3979	0.44241	0.7805	-0.774
Mof_C 	C 	0.28482	0.28013	0.56261	-0.009
Mof_C 	C 	0.31008	0.313	0.6309	0.025
Mof_C 	C 	0.36721	0.30783	0.69923	-0.034
Mof_C 	C 	0.39524	0.33869	0.75872	0.096
Mof_C 	C 	0.28021	0.34935	0.62523	-0.035
Mof_C 	C 	0.40065	0.40685	0.813	0.517
Mof_C 	C 	0.36708	0.37536	0.75069	-0.167
Mof_C 	C 	0.30892	0.38063	0.68428	0.031
Mof_O 	O 	0.43453	0.60598	0.102	-0.615
Mof_O 	O 	0.8979	0.05759	0.2195	-0.796
Mof_C 	C 	0.78482	0.21987	0.43739	-0.007
Mof_C 	C 	0.81008	0.187	0.3691	0.022
Mof_C 	C 	0.86721	0.19217	0.30077	-0.037
Mof_C 	C 	0.89524	0.16131	0.24128	0.09
Mof_C 	C 	0.78021	0.15065	0.37477	-0.041
Mof_C 	C 	0.90065	0.09315	0.187	0.519
Mof_C 	C 	0.86708	0.12464	0.24931	-0.171
Mof_C 	C 	0.80892	0.11937	0.31572	0.014
Mof_O 	O 	0.93453	0.10598	0.102	-0.608
Mof_O 	O 	0.3979	0.55759	0.2195	-0.784
Mof_C 	C 	0.28482	0.71987	0.43739	-0.007
Mof_C 	C 	0.31008	0.687	0.3691	0.022
Mof_C 	C 	0.36721	0.69217	0.30077	-0.038
Mof_C 	C 	0.39524	0.66131	0.24128	0.086
Mof_C 	C 	0.28021	0.65065	0.37477	-0.039
Mof_C 	C 	0.40065	0.59315	0.187	0.518
Mof_C 	C 	0.36708	0.62464	0.24931	-0.171
Mof_C 	C 	0.30892	0.61937	0.31572	0.023
Mof_O 	O 	0.56547	0.39402	0.102	-0.615
Mof_O 	O 	0.1021	0.94241	0.2195	-0.762
Mof_C 	C 	0.21518	0.78013	0.43739	-0.007
Mof_C 	C 	0.18992	0.813	0.3691	0.022
Mof_C 	C 	0.13279	0.80783	0.30077	-0.042
Mof_C 	C 	0.10476	0.83869	0.24128	0.082
Mof_C 	C 	0.21979	0.84935	0.37477	-0.033
Mof_C 	C 	0.09935	0.90685	0.187	0.516
Mof_C 	C 	0.13292	0.87536	0.24931	-0.169
Mof_C 	C 	0.19108	0.88063	0.31572	0.036
Mof_O 	O 	0.06547	0.89402	0.102	-0.619
Mof_O 	O 	0.6021	0.44241	0.2195	-0.783
Mof_C 	C 	0.71518	0.28013	0.43739	-0.007
Mof_C 	C 	0.68992	0.313	0.3691	0.022
Mof_C 	C 	0.63279	0.30783	0.30077	-0.041
Mof_C 	C 	0.60476	0.33869	0.24128	0.086
Mof_C 	C 	0.71979	0.34935	0.37477	-0.036
Mof_C 	C 	0.59935	0.40685	0.187	0.519
Mof_C 	C 	0.63292	0.37536	0.24931	-0.17
Mof_C 	C 	0.69108	0.38063	0.31572	0.026
Mof_Zr	Zr	0.08113	-4.01112e-34	0.1535	3.131
Mof_Zr	Zr	0.58113	0.5	0.1535	3.142
Mof_Zr	Zr	0.91887	-4.01112e-34	0.1535	3.133
Mof_Zr	Zr	0.41887	0.5	0.1535	3.142
Mof_Zr	Zr	0.91887	0	0.8465	3.135
Mof_Zr	Zr	0.41887	0.5	0.8465	3.146
Mof_Zr	Zr	0.08113	0	0.8465	3.135
Mof_Zr	Zr	0.58113	0.5	0.8465	3.146
Mof_Zr	Zr	0.5	0.56568	-0	3.158
Mof_Zr	Zr	8.02224e-34	0.06568	-0	3.155
Mof_Zr	Zr	0.5	0.43432	-0	3.158
Mof_Zr	Zr	2.56712e-32	0.93432	-0	3.156
Mof_O 	O 	1.48137e-32	0.96034	0.1793	-1.39
Mof_O 	O 	0.5	0.46034	0.1793	-1.412
Mof_O 	O 	1.17585e-33	0.03966	0.1793	-1.443
Mof_O 	O 	0.5	0.53966	0.1793	-1.412
Mof_O 	O 	2.41724e-32	0.96034	0.8207	-1.375
Mof_O 	O 	0.5	0.46034	0.8207	-1.399
Mof_O 	O 	-1.49872e-33	0.03966	0.8207	-1.427
Mof_O 	O 	0.5	0.53966	0.8207	-1.399
Mof_O 	O 	0.1032	0.96286	-0	-1.351
Mof_O 	O 	0.6032	0.46286	-0	-1.383
Mof_O 	O 	0.8968	0.03714	-0	-1.405
Mof_O 	O 	0.3968	0.53714	-0	-1.385
Mof_O 	O 	0.8968	0.96286	-0	-1.343
Mof_O 	O 	0.3968	0.46286	-0	-1.385
Mof_O 	O 	0.1032	0.03714	-0	-1.413
Mof_O 	O 	0.6032	0.53714	-0	-1.383
Mof_C 	C 	0.75	0.25	0.3769	-0.006
Mof_C 	C 	0.25	0.75	0.3769	-0.006
Mof_C 	C 	0.25	0.25	0.6231	0.002
Mof_C 	C 	0.75	0.75	0.6231	0.006
Mof_C 	C 	0.25	0.75	0.6231	0.005
Mof_C 	C 	0.75	0.25	0.6231	0.003
Mof_C 	C 	0.75	0.75	0.3769	-0.004
Mof_C 	C 	0.25	0.25	0.3769	-0.009
_end
