data_functionalizedCrystal
_audit_creation_method	'EQeq! by Chris Wilmer'
_symmetry_space_group_name_H-M	'P1'
_symmetry_Int_Tables_number	1
_symmetry_cell_setting	triclinic
loop_
_symmetry_equiv_pos_as_xyz
  x,y,z
_cell_length_a	21.5326
_cell_length_b	21.4882
_cell_length_c	21.6373
_cell_angle_alpha	94.3385
_cell_angle_beta	118.784
_cell_angle_gamma	117.537
loop_
_atom_site_label
_atom_site_type_symbol
_atom_site_fract_x
_atom_site_fract_y
_atom_site_fract_z
_atom_site_charge
Mof_O 	O 	0.60591	0.66976	0.70253	-0.374
Mof_O 	O 	0.62485	0.57246	0.70019	-0.377
Mof_C 	C 	0.6507	0.64158	0.73475	0.297
Mof_O 	O 	0.44131	0.54104	0.63778	-0.371
Mof_O 	O 	0.45498	0.4505	0.5926	-0.373
Mof_C 	C 	0.41385	0.46926	0.61078	0.287
Mof_Cu	Cu	0.49708	0.61109	0.60022	0.899
Mof_Cu	Cu	0.54901	0.52425	0.58891	0.9
Mof_O 	O 	0.39736	0.54039	0.49587	-0.384
Mof_O 	O 	0.46598	0.49021	0.47934	-0.383
Mof_O 	O 	0.5585	0.66617	0.55887	-0.379
Mof_O 	O 	0.63337	0.61035	0.58431	-0.373
Mof_C 	C 	0.40408	0.50076	0.4528	0.304
Mof_C 	C 	0.61346	0.65637	0.55676	0.289
Mof_H 	H 	0.30113	0.93157	0.69864	0.04
Mof_C 	C 	0.25245	0.99918	0.66922	0.022
Mof_C 	C 	0.22136	0.0365	0.68611	-0.087
Mof_C 	C 	0.22268	0.0413	0.7512	-0.006
Mof_H 	H 	0.20006	0.07173	0.76542	0.041
Mof_C 	C 	0.25632	0.0091	0.79914	-0.005
Mof_C 	C 	0.28109	0.96732	0.77772	-0.019
Mof_H 	H 	0.30196	0.93712	0.81092	0.039
Mof_C 	C 	0.28046	0.96346	0.714	-0.047
Mof_C 	C 	0.34512	0.02953	0.93214	0.015
Mof_H 	H 	0.39367	0.04063	0.92307	0.038
Mof_C 	C 	0.35564	0.02035	0.99796	-0.132
Mof_C 	C 	0.29605	0.01373	0.01118	0.089
Mof_H 	H 	0.30423	0.008	0.06329	0.034
Mof_C 	C 	0.22537	0.01347	0.95662	-0.113
Mof_C 	C 	0.21164	0.01359	0.88681	0.009
Mof_H 	H 	0.15433	0.00777	0.8419	0.039
Mof_C 	C 	0.27099	0.01968	0.87413	-0.023
Mof_H 	H 	0.25012	0.9929	0.61799	0.038
Mof_H 	H 	0.68473	0.87945	0.89608	0.041
Mof_C 	C 	0.81876	0.96632	0.95949	-0.001
Mof_C 	C 	0.89595	0.0094	0.0309	-0.066
Mof_C 	C 	0.89728	0.00999	0.09585	-0.013
Mof_H 	H 	0.95843	0.04559	0.1512	0.048
Mof_C 	C 	0.82079	0.96503	0.08891	0.013
Mof_C 	C 	0.74571	0.91492	0.016	-0.019
Mof_H 	H 	0.68616	0.87216	0.00679	0.043
Mof_C 	C 	0.74421	0.91777	0.95217	-0.052
Mof_C 	C 	0.88497	0.9978	0.23041	0.014
Mof_H 	H 	0.94573	0.01143	0.24291	0.045
Mof_C 	C 	0.87773	0.00873	0.29047	-0.093
Mof_C 	C 	0.7978	0.98922	0.27396	0.038
Mof_H 	H 	0.79102	0.99689	0.31978	0.041
Mof_C 	C 	0.72637	0.95801	0.19789	-0.078
Mof_C 	C 	0.73857	0.95235	0.14122	-0.001
Mof_H 	H 	0.68894	0.94144	0.08503	0.044
Mof_C 	C 	0.81566	0.97075	0.15526	-0.013
Mof_H 	H 	0.81746	0.96333	0.90876	0.042
Mof_H 	H 	0.93167	0.19229	0.23931	0.045
Mof_C 	C 	0.80442	0.15171	0.20377	-0.003
Mof_C 	C 	0.74583	0.16853	0.19113	-0.063
Mof_C 	C 	0.76936	0.24229	0.20201	-0.02
Mof_H 	H 	0.72275	0.25553	0.18857	0.046
Mof_C 	C 	0.85157	0.29738	0.22404	0.014
Mof_C 	C 	0.90992	0.27931	0.23865	-0.04
Mof_H 	H 	0.97556	0.32226	0.25963	0.054
Mof_C 	C 	0.88631	0.20652	0.22846	-0.03
Mof_C 	C 	0.93	0.40984	0.20703	-0.002
Mof_H 	H 	0.92848	0.37408	0.16776	0.054
Mof_C 	C 	0.98548	0.48743	0.23594	-0.064
Mof_C 	C 	0.98586	0.53216	0.28647	0.061
Mof_H 	H 	0.03115	0.59325	0.31149	0.029
Mof_C 	C 	0.93002	0.4974	0.30715	-0.091
Mof_C 	C 	0.87726	0.41843	0.27902	0.007
Mof_H 	H 	0.84013	0.38882	0.29976	0.046
Mof_C 	C 	0.8808	0.37555	0.23228	-0.012
Mof_H 	H 	0.78614	0.09455	0.19402	0.045
Mof_H 	H 	0.00326	0.41274	0.72717	0.025
Mof_C 	C 	0.01101	0.50321	0.68991	-0.046
Mof_C 	C 	0.05587	0.58086	0.70895	-0.046
Mof_C 	C 	0.12281	0.6296	0.7845	-0.025
Mof_H 	H 	0.15506	0.69027	0.79993	0.044
Mof_C 	C 	0.14313	0.59913	0.84	0.008
Mof_C 	C 	0.10291	0.52129	0.81794	-0.049
Mof_H 	H 	0.12148	0.4964	0.85916	0.039
Mof_C 	C 	0.03625	0.47357	0.74349	-0.017
Mof_C 	C 	0.27389	0.71722	0.95523	-0.038
Mof_H 	H 	0.29124	0.73943	0.9188	0.052
Mof_C 	C 	0.32507	0.7591	0.03349	-0.042
Mof_C 	C 	0.30152	0.72708	0.07849	0.011
Mof_H 	H 	0.34024	0.75928	0.13902	0.053
Mof_C 	C 	0.22626	0.65462	0.04454	-0.044
Mof_C 	C 	0.17584	0.61576	0.96698	-0.04
Mof_H 	H 	0.11466	0.56201	0.93995	0.047
Mof_C 	C 	0.19975	0.64546	0.92219	0.008
Mof_H 	H 	0.9583	0.46439	0.6316	0.068
Mof_O 	O 	0.61614	0.09401	0.18563	-0.374
Mof_O 	O 	0.63172	0.04811	0.09698	-0.383
Mof_C 	C 	0.65759	0.10292	0.15372	0.289
Mof_O 	O 	0.63232	0.97902	0.21566	-0.37
Mof_O 	O 	0.57986	0.90529	0.09664	-0.372
Mof_C 	C 	0.6406	0.94259	0.171	0.286
Mof_Cu	Cu	0.5368	0.99087	0.17202	0.9
Mof_Cu	Cu	0.52024	0.95104	0.04519	0.903
Mof_O 	O 	0.45506	0.8814	0.13834	-0.368
Mof_O 	O 	0.41133	0.86005	0.01334	-0.37
Mof_O 	O 	0.43981	0.99798	0.10852	-0.369
Mof_O 	O 	0.46335	0.00334	0.0145	-0.379
Mof_C 	C 	0.40119	0.83722	0.06431	0.285
Mof_C 	C 	0.42446	0.00902	0.04455	0.311
Mof_H 	H 	0.38753	0.38797	0.08985	0.043
Mof_C 	C 	0.29583	0.28384	0.08388	-0.001
Mof_C 	C 	0.25069	0.24976	0.11351	-0.064
Mof_C 	C 	0.26227	0.29421	0.17308	-0.018
Mof_H 	H 	0.22371	0.26814	0.19375	0.046
Mof_C 	C 	0.31596	0.3727	0.19997	0.013
Mof_C 	C 	0.36125	0.40596	0.17028	-0.04
Mof_H 	H 	0.40239	0.46717	0.1905	0.046
Mof_C 	C 	0.35246	0.36161	0.11338	-0.03
Mof_C 	C 	0.28317	0.46273	0.2227	0.004
Mof_H 	H 	0.25819	0.45606	0.16398	0.049
Mof_C 	C 	0.28024	0.50931	0.26759	-0.086
Mof_C 	C 	0.31415	0.51766	0.34226	0.039
Mof_H 	H 	0.3136	0.55535	0.37766	0.043
Mof_C 	C 	0.35026	0.47873	0.37116	-0.091
Mof_C 	C 	0.34871	0.42895	0.32492	0.006
Mof_H 	H 	0.37727	0.39867	0.3474	0.045
Mof_C 	C 	0.31515	0.42124	0.25034	-0.017
Mof_H 	H 	0.28674	0.24954	0.03711	0.047
Mof_H 	H 	0.89073	0.24644	0.36202	0.042
Mof_C 	C 	0.95159	0.35533	0.44022	0.021
Mof_C 	C 	0.02878	0.42297	0.49595	-0.091
Mof_C 	C 	0.10657	0.43195	0.52358	-0.012
Mof_H 	H 	0.16651	0.48325	0.57074	0.043
Mof_C 	C 	0.10545	0.37222	0.49313	0.013
Mof_C 	C 	0.02771	0.30862	0.43044	-0.067
Mof_H 	H 	0.02507	0.2631	0.40171	0.044
Mof_C 	C 	0.9512	0.29862	0.40697	-0.011
Mof_C 	C 	0.26413	0.42392	0.56256	-0.004
Mof_H 	H 	0.28057	0.47973	0.56291	0.043
Mof_C 	C 	0.32613	0.4078	0.58695	-0.072
Mof_C 	C 	0.29951	0.33187	0.57552	0.029
Mof_H 	H 	0.34498	0.31699	0.58993	0.039
Mof_C 	C 	0.21456	0.27618	0.54854	-0.077
Mof_C 	C 	0.15906	0.29655	0.53215	-0.002
Mof_H 	H 	0.09503	0.25383	0.51474	0.042
Mof_C 	C 	0.17927	0.3665	0.53131	-0.011
Mof_H 	H 	0.89057	0.34776	0.4181	0.038
Mof_H 	H 	0.55859	0.73548	0.35842	0.042
Mof_C 	C 	0.58666	0.70311	0.45399	-0.003
Mof_C 	C 	0.63989	0.68827	0.50927	-0.06
Mof_C 	C 	0.7101	0.69782	0.51295	-0.02
Mof_H 	H 	0.7529	0.68765	0.55659	0.051
Mof_C 	C 	0.72742	0.72439	0.46265	0.018
Mof_C 	C 	0.67161	0.73631	0.40655	-0.042
Mof_H 	H 	0.68225	0.75426	0.36524	0.047
Mof_C 	C 	0.60176	0.72583	0.40237	-0.029
Mof_C 	C 	0.85186	0.81383	0.46526	0.016
Mof_H 	H 	0.82882	0.8497	0.45914	0.046
Mof_C 	C 	0.92619	0.83716	0.47038	-0.101
Mof_C 	C 	0.95682	0.79193	0.4815	0.08
Mof_H 	H 	0.01563	0.80996	0.48676	0.023
Mof_C 	C 	0.9114	0.72318	0.48584	-0.104
Mof_C 	C 	0.83665	0.7005	0.4804	0.018
Mof_H 	H 	0.80089	0.64688	0.48355	0.042
Mof_C 	C 	0.80696	0.7461	0.47029	-0.022
Mof_H 	H 	0.52994	0.69408	0.4478	0.048
Mof_H 	H 	0.87	0.49852	0.80968	0.038
Mof_C 	C 	0.94435	0.5469	0.93101	-0.011
Mof_C 	C 	0.96997	0.5993	0.99446	-0.038
Mof_C 	C 	0.93869	0.64303	0.98588	-0.046
Mof_H 	H 	0.95624	0.68212	0.03518	0.067
Mof_C 	C 	0.87979	0.63207	0.91308	0.028
Mof_C 	C 	0.85577	0.58116	0.84981	-0.048
Mof_H 	H 	0.81273	0.5755	0.79278	0.049
Mof_C 	C 	0.88865	0.53873	0.85885	-0.021
Mof_C 	C 	0.76299	0.64587	0.84518	0
Mof_H 	H 	0.71956	0.58484	0.82398	0.048
Mof_C 	C 	0.73562	0.68747	0.81019	-0.078
Mof_C 	C 	0.79595	0.76646	0.83834	0.032
Mof_H 	H 	0.77682	0.8002	0.81017	0.044
Mof_C 	C 	0.88238	0.80066	0.90057	-0.078
Mof_C 	C 	0.90669	0.75552	0.93068	0.001
Mof_H 	H 	0.97378	0.77836	0.97245	0.052
Mof_C 	C 	0.84813	0.67902	0.9009	-0.017
Mof_H 	H 	0.96717	0.51085	0.93701	0.043
Mof_O 	O 	0.17813	0.12588	0.11603	-0.376
Mof_O 	O 	0.13457	0.13942	4e-05	-0.372
Mof_C 	C 	0.18443	0.16778	0.07512	0.293
Mof_O 	O 	0.18586	0.02265	0.04191	-0.367
Mof_O 	O 	0.09574	0.00714	0.91779	-0.387
Mof_C 	C 	0.16531	0.01308	0.97236	0.284
Mof_Cu	Cu	0.10824	0.01503	0.06816	0.899
Mof_Cu	Cu	0.03221	0.0349	0.94052	0.883
Mof_O 	O 	0.02612	0.90749	0.00103	-0.373
Mof_O 	O 	0.94053	0.92724	0.9	-0.368
Mof_O 	O 	0.01949	0.01046	0.07544	-0.403
Mof_O 	O 	0.97978	0.05905	0.98239	-0.387
Mof_C 	C 	0.95242	0.88245	0.9352	0.3
Mof_C 	C 	0.97345	0.03418	0.0345	0.332
Mof_O 	O 	0.23704	0.65695	0.16057	-0.373
Mof_O 	O 	0.11632	0.55322	0.047	-0.379
Mof_C 	C 	0.19278	0.61954	0.08662	0.282
Mof_O 	O 	0.23278	0.59396	0.26566	-0.373
Mof_O 	O 	0.17179	0.49698	0.15576	-0.381
Mof_C 	C 	0.22827	0.53734	0.22905	0.295
Mof_Cu	Cu	0.17205	0.63528	0.20438	0.897
Mof_Cu	Cu	0.07098	0.49974	0.09976	0.895
Mof_O 	O 	0.0905	0.5924	0.23091	-0.374
Mof_O 	O 	0.04233	0.46931	0.17013	-0.379
Mof_O 	O 	0.09508	0.65371	0.12479	-0.365
Mof_O 	O 	0.98624	0.52412	0.06074	-0.348
Mof_C 	C 	0.04319	0.51833	0.21229	0.273
Mof_C 	C 	0.01672	0.59442	0.06671	0.254
Mof_O 	O 	0.11059	0.05701	0.61814	-0.386
Mof_O 	O 	0.19733	0.06963	0.57897	-0.384
Mof_C 	C 	0.17768	0.06045	0.62804	0.297
Mof_O 	O 	0.95159	0.9579	0.4836	-0.375
Mof_O 	O 	0.04129	0.9371	0.46939	-0.39
Mof_C 	C 	0.97475	0.91368	0.4728	0.327
Mof_Cu	Cu	0.03467	0.06791	0.52925	0.889
Mof_Cu	Cu	0.10664	0.03917	0.4725	0.896
Mof_O 	O 	0.96762	0.07211	0.43053	-0.369
Mof_O 	O 	0.00433	0.01243	0.37469	-0.403
Mof_O 	O 	0.12956	0.17332	0.56682	-0.382
Mof_O 	O 	0.16228	0.14629	0.48576	-0.375
Mof_C 	C 	0.95331	0.03286	0.36919	0.317
Mof_C 	C 	0.17492	0.19559	0.53873	0.292
Mof_O 	O 	0.09129	0.64086	0.63173	-0.371
Mof_O 	O 	0.94965	0.56897	0.59162	-0.356
Mof_C 	C 	0.03275	0.6057	0.64495	0.261
Mof_O 	O 	0.02144	0.69929	0.52975	-0.398
Mof_O 	O 	0.8781	0.599	0.46324	-0.382
Mof_C 	C 	0.93887	0.67177	0.49324	0.336
Mof_Cu	Cu	0.0608	0.63361	0.52924	0.897
Mof_Cu	Cu	0.90478	0.52472	0.48532	0.903
Mof_O 	O 	0.0075	0.60811	0.41982	-0.395
Mof_O 	O 	0.8839	0.49631	0.38614	-0.384
Mof_O 	O 	0.07656	0.55161	0.52137	-0.38
Mof_O 	O 	0.95458	0.46663	0.51365	-0.369
Mof_C 	C 	0.93846	0.53846	0.37151	0.326
Mof_C 	C 	0.02388	0.48511	0.51736	0.28
_end
