data_functionalizedCrystal
_audit_creation_method	'EQeq! by Chris Wilmer'
_symmetry_space_group_name_H-M	'P1'
_symmetry_Int_Tables_number	1
_symmetry_cell_setting	triclinic
loop_
_symmetry_equiv_pos_as_xyz
  x,y,z
_cell_length_a	10.0893
_cell_length_b	26.5212
_cell_length_c	9.7898
_cell_angle_alpha	90
_cell_angle_beta	90
_cell_angle_gamma	90
loop_
_atom_site_label
_atom_site_type_symbol
_atom_site_fract_x
_atom_site_fract_y
_atom_site_fract_z
_atom_site_charge
Mof_Zn	Zn	0.88448	0.54415	0.08667	1.18
Mof_C 	C 	0.8681	0.64041	0.1215	0.326
Mof_C 	C 	0.8527	0.69693	0.1184	-0.089
Mof_C 	C 	0.7474	0.72293	0.0499	0.04
Mof_C 	C 	0.6412	0.69748	0.9876	-0.079
Mof_H 	H 	0.6393	0.6624	0.9876	0.074
Mof_C 	C 	0.541	0.72371	0.927	-0.024
Mof_H 	H 	0.4719	0.7064	0.8852	0.04
Mof_C 	C 	0.9478	0.72365	0.1857	-0.021
Mof_H 	H 	0.0141	0.7065	0.2325	0.056
Mof_C 	C 	0.7603	0.49228	0.335	0.107
Mof_H 	H 	0.8357	0.4737	0.3559	-0.049
Mof_C 	C 	0.6258	0.5408	0.2367	0.109
Mof_H 	H 	0.5882	0.563	0.1741	-0.03
Mof_N 	N 	0.7485	0.52187	0.2243	-0.294
Mof_N 	N 	0.5649	0.5248	0.3459	-0.268
Mof_N 	N 	0.6521	0.49282	0.4104	-0.265
Mof_O 	O 	0.8307	0.61376	0.0219	-0.454
Mof_O 	O 	0.9221	0.62073	0.2206	-0.368
Mof_Zn	Zn	0.61552	0.45585	0.58667	1.182
Mof_C 	C 	0.6319	0.35959	0.6215	0.328
Mof_C 	C 	0.6473	0.30307	0.6184	-0.089
Mof_C 	C 	0.7526	0.27707	0.5499	0.043
Mof_C 	C 	0.8588	0.30252	0.4876	-0.081
Mof_H 	H 	0.8607	0.3376	0.4876	0.075
Mof_C 	C 	0.959	0.27629	0.427	-0.025
Mof_H 	H 	0.0281	0.2936	0.3852	0.041
Mof_C 	C 	0.5522	0.27635	0.6857	-0.017
Mof_H 	H 	0.4859	0.2935	0.7325	0.053
Mof_C 	C 	0.7397	0.50772	0.835	0.107
Mof_H 	H 	0.6643	0.5263	0.8559	-0.048
Mof_C 	C 	0.8742	0.4592	0.7367	0.109
Mof_H 	H 	0.9118	0.437	0.6741	-0.03
Mof_N 	N 	0.7515	0.47813	0.7243	-0.293
Mof_N 	N 	0.9351	0.4752	0.8459	-0.266
Mof_N 	N 	0.8479	0.50718	0.9104	-0.264
Mof_O 	O 	0.6693	0.38624	0.5219	-0.453
Mof_O 	O 	0.5779	0.37927	0.7206	-0.367
Mof_Zn	Zn	0.11552	0.04415	0.91333	1.18
Mof_C 	C 	0.1319	0.14041	0.8785	0.327
Mof_C 	C 	0.1473	0.19693	0.8816	-0.088
Mof_C 	C 	0.2526	0.22293	0.9501	0.041
Mof_C 	C 	0.3588	0.19748	0.0124	-0.078
Mof_H 	H 	0.3607	0.1624	0.0124	0.075
Mof_C 	C 	0.459	0.22371	0.073	-0.025
Mof_H 	H 	0.5281	0.2064	0.1148	0.04
Mof_C 	C 	0.0522	0.22365	0.8143	-0.022
Mof_H 	H 	0.9859	0.2065	0.7675	0.057
Mof_C 	C 	0.2397	0.99228	0.665	0.108
Mof_H 	H 	0.1643	0.9737	0.6441	-0.049
Mof_C 	C 	0.3742	0.0408	0.7633	0.108
Mof_H 	H 	0.4118	0.063	0.8259	-0.03
Mof_N 	N 	0.2515	0.02187	0.7757	-0.294
Mof_N 	N 	0.4351	0.0248	0.6541	-0.268
Mof_N 	N 	0.3479	0.99282	0.5896	-0.265
Mof_O 	O 	0.1693	0.11376	0.9781	-0.454
Mof_O 	O 	0.0779	0.12073	0.7794	-0.369
Mof_Zn	Zn	0.38448	0.95585	0.41333	1.182
Mof_C 	C 	0.3681	0.85959	0.3785	0.328
Mof_C 	C 	0.3527	0.80307	0.3816	-0.089
Mof_C 	C 	0.2474	0.77707	0.4501	0.043
Mof_C 	C 	0.1412	0.80252	0.5124	-0.081
Mof_H 	H 	0.1393	0.8376	0.5124	0.075
Mof_C 	C 	0.041	0.77629	0.573	-0.024
Mof_H 	H 	0.9719	0.7936	0.6148	0.041
Mof_C 	C 	0.4478	0.77635	0.3143	-0.017
Mof_H 	H 	0.5141	0.7935	0.2675	0.053
Mof_C 	C 	0.2603	0.00772	0.165	0.107
Mof_H 	H 	0.3357	0.0263	0.1441	-0.048
Mof_C 	C 	0.1258	0.9592	0.2633	0.109
Mof_H 	H 	0.0882	0.937	0.3259	-0.029
Mof_N 	N 	0.2485	0.97813	0.2757	-0.293
Mof_N 	N 	0.0649	0.9752	0.1541	-0.266
Mof_N 	N 	0.1521	0.00718	0.0896	-0.264
Mof_O 	O 	0.3307	0.88624	0.4781	-0.453
Mof_O 	O 	0.4221	0.87927	0.2794	-0.367
Mof_Zn	Zn	0.11552	0.45585	0.91333	1.181
Mof_C 	C 	0.1319	0.35959	0.8785	0.327
Mof_C 	C 	0.1473	0.30307	0.8816	-0.088
Mof_C 	C 	0.2526	0.27707	0.9501	0.041
Mof_C 	C 	0.3588	0.30252	0.0124	-0.078
Mof_H 	H 	0.3607	0.3376	0.0124	0.075
Mof_C 	C 	0.459	0.27629	0.073	-0.024
Mof_H 	H 	0.5281	0.2936	0.1148	0.04
Mof_C 	C 	0.0522	0.27635	0.8143	-0.021
Mof_H 	H 	0.9859	0.2935	0.7675	0.056
Mof_C 	C 	0.2397	0.50772	0.665	0.107
Mof_H 	H 	0.1643	0.5263	0.6441	-0.049
Mof_C 	C 	0.3742	0.4592	0.7633	0.109
Mof_H 	H 	0.4118	0.437	0.8259	-0.03
Mof_N 	N 	0.2515	0.47813	0.7757	-0.294
Mof_N 	N 	0.4351	0.4752	0.6541	-0.268
Mof_N 	N 	0.3479	0.50718	0.5896	-0.265
Mof_O 	O 	0.1693	0.38624	0.9781	-0.454
Mof_O 	O 	0.0779	0.37927	0.7794	-0.368
Mof_Zn	Zn	0.38448	0.54415	0.41333	1.182
Mof_C 	C 	0.3681	0.64041	0.3785	0.328
Mof_C 	C 	0.3527	0.69693	0.3816	-0.089
Mof_C 	C 	0.2474	0.72293	0.4501	0.043
Mof_C 	C 	0.1412	0.69748	0.5124	-0.081
Mof_H 	H 	0.1393	0.6624	0.5124	0.075
Mof_C 	C 	0.041	0.72371	0.573	-0.025
Mof_H 	H 	0.9719	0.7064	0.6148	0.041
Mof_C 	C 	0.4478	0.72365	0.3143	-0.017
Mof_H 	H 	0.5141	0.7065	0.2675	0.053
Mof_C 	C 	0.2603	0.49228	0.165	0.107
Mof_H 	H 	0.3357	0.4737	0.1441	-0.048
Mof_C 	C 	0.1258	0.5408	0.2633	0.109
Mof_H 	H 	0.0882	0.563	0.3259	-0.03
Mof_N 	N 	0.2485	0.52187	0.2757	-0.293
Mof_N 	N 	0.0649	0.5248	0.1541	-0.266
Mof_N 	N 	0.1521	0.49282	0.0896	-0.264
Mof_O 	O 	0.3307	0.61376	0.4781	-0.453
Mof_O 	O 	0.4221	0.62073	0.2794	-0.367
Mof_Zn	Zn	0.88448	0.95585	0.08667	1.18
Mof_C 	C 	0.8681	0.85959	0.1215	0.327
Mof_C 	C 	0.8527	0.80307	0.1184	-0.088
Mof_C 	C 	0.7474	0.77707	0.0499	0.041
Mof_C 	C 	0.6412	0.80252	0.9876	-0.078
Mof_H 	H 	0.6393	0.8376	0.9876	0.075
Mof_C 	C 	0.541	0.77629	0.927	-0.025
Mof_H 	H 	0.4719	0.7936	0.8852	0.04
Mof_C 	C 	0.9478	0.77635	0.1857	-0.022
Mof_H 	H 	0.0141	0.7935	0.2325	0.057
Mof_C 	C 	0.7603	0.00772	0.335	0.108
Mof_H 	H 	0.8357	0.0263	0.3559	-0.049
Mof_C 	C 	0.6258	0.9592	0.2367	0.108
Mof_H 	H 	0.5882	0.937	0.1741	-0.03
Mof_N 	N 	0.7485	0.97813	0.2243	-0.294
Mof_N 	N 	0.5649	0.9752	0.3459	-0.268
Mof_N 	N 	0.6521	0.00718	0.4104	-0.265
Mof_O 	O 	0.8307	0.88624	0.0219	-0.454
Mof_O 	O 	0.9221	0.87927	0.2206	-0.369
Mof_Zn	Zn	0.61552	0.04415	0.58667	1.182
Mof_C 	C 	0.6319	0.14041	0.6215	0.328
Mof_C 	C 	0.6473	0.19693	0.6184	-0.089
Mof_C 	C 	0.7526	0.22293	0.5499	0.043
Mof_C 	C 	0.8588	0.19748	0.4876	-0.081
Mof_H 	H 	0.8607	0.1624	0.4876	0.075
Mof_C 	C 	0.959	0.22371	0.427	-0.024
Mof_H 	H 	0.0281	0.2064	0.3852	0.041
Mof_C 	C 	0.5522	0.22365	0.6857	-0.017
Mof_H 	H 	0.4859	0.2065	0.7325	0.053
Mof_C 	C 	0.7397	0.99228	0.835	0.107
Mof_H 	H 	0.6643	0.9737	0.8559	-0.048
Mof_C 	C 	0.8742	0.0408	0.7367	0.109
Mof_H 	H 	0.9118	0.063	0.6741	-0.029
Mof_N 	N 	0.7515	0.02187	0.7243	-0.293
Mof_N 	N 	0.9351	0.0248	0.8459	-0.266
Mof_N 	N 	0.8479	0.99282	0.9104	-0.264
Mof_O 	O 	0.6693	0.11376	0.5219	-0.453
Mof_O 	O 	0.5779	0.12073	0.7206	-0.367
_end
