data_functionalizedCrystal
_audit_creation_method	'EQeq! by Chris Wilmer'
_symmetry_space_group_name_H-M	'P1'
_symmetry_Int_Tables_number	1
_symmetry_cell_setting	triclinic
loop_
_symmetry_equiv_pos_as_xyz
  x,y,z
_cell_length_a	8.728
_cell_length_b	9.289
_cell_length_c	18.911
_cell_angle_alpha	90
_cell_angle_beta	90
_cell_angle_gamma	109.307
loop_
_atom_site_label
_atom_site_type_symbol
_atom_site_fract_x
_atom_site_fract_y
_atom_site_fract_z
_atom_site_charge
Mof_Tb	Tb	0.20942	0.48394	0.44684	1.999
Mof_Tb	Tb	0.79058	0.51606	0.55316	1.999
Mof_Tb	Tb	0.20942	0.98394	0.05316	1.923
Mof_Tb	Tb	0.79058	0.01606	0.94684	1.923
Mof_H 	H 	0.7968	0.0597	0.4402	0.04
Mof_H 	H 	0.586	0.5774	0.2902	0.008
Mof_H 	H 	0.744	0.6682	0.1919	0.074
Mof_H 	H 	0.414	0.9226	0.7902	0.013
Mof_H 	H 	0.7968	0.5597	0.0598	0.035
Mof_H 	H 	0.256	0.8318	0.6919	0.069
Mof_H 	H 	0.586	0.0774	0.2098	0.013
Mof_H 	H 	0.0599	0.9856	0.3127	0.053
Mof_H 	H 	0.2032	0.4403	0.9402	0.035
Mof_H 	H 	0.9401	0.0144	0.6873	0.053
Mof_H 	H 	0.9401	0.5144	0.8127	0.065
Mof_H 	H 	0.256	0.3318	0.8081	0.074
Mof_H 	H 	0.0599	0.4856	0.1873	0.065
Mof_H 	H 	0.2032	0.9403	0.5598	0.04
Mof_H 	H 	0.744	0.1682	0.3081	0.069
Mof_H 	H 	0.414	0.4226	0.7098	0.008
Mof_C 	C 	0.1284	0.6552	0.8676	0.073
Mof_C 	C 	0.7271	0.2249	0.1387	-0.18
Mof_C 	C 	0.934	0.9224	0.4376	0.027
Mof_C 	C 	0.0353	0.597	0.8081	-0.083
Mof_C 	C 	0.9453	0.6139	0.9744	-0.125
Mof_C 	C 	0.0353	0.097	0.6919	-0.073
Mof_C 	C 	0.2729	0.2751	0.6387	-0.186
Mof_C 	C 	0.616	0.159	0.0769	0.505
Mof_C 	C 	0.934	0.4224	0.0624	0.01
Mof_C 	C 	0.066	0.0776	0.5624	0.027
Mof_C 	C 	0.384	0.841	0.9231	0.505
Mof_C 	C 	0.0826	0.6604	0.7423	-0.017
Mof_C 	C 	0.7751	0.7142	0.2357	-0.104
Mof_C 	C 	0.0166	0.9009	0.1773	0.239
Mof_C 	C 	0.6816	0.1596	0.2053	0.06
Mof_C 	C 	0.1214	0.4643	0.9638	-0.022
Mof_C 	C 	0.3184	0.8404	0.7947	0.06
Mof_C 	C 	0.7271	0.7249	0.3613	-0.186
Mof_C 	C 	0.3184	0.3404	0.7053	0.069
Mof_C 	C 	0.9647	0.403	0.1919	-0.083
Mof_C 	C 	0.8951	0.7455	0.9521	0.367
Mof_C 	C 	0.9834	0.0991	0.8227	0.239
Mof_C 	C 	0.6816	0.6596	0.2947	0.069
Mof_C 	C 	0.066	0.5776	0.9376	0.01
Mof_C 	C 	0.2729	0.7751	0.8613	-0.18
Mof_C 	C 	0.1284	0.1552	0.6324	0.069
Mof_C 	C 	0.9174	0.8396	0.2423	0.004
Mof_C 	C 	0.9174	0.3396	0.2577	-0.017
Mof_C 	C 	0.1214	0.9643	0.5362	-0.039
Mof_C 	C 	0.1049	0.2545	0.0479	0.367
Mof_C 	C 	0.1049	0.7545	0.4521	0.371
Mof_C 	C 	0.2249	0.7858	0.7357	-0.09
Mof_C 	C 	0.0547	0.8861	0.4744	-0.131
Mof_C 	C 	0.0826	0.1604	0.7577	0.004
Mof_C 	C 	0.8716	0.8448	0.3676	0.069
Mof_C 	C 	0.8716	0.3448	0.1324	0.073
Mof_C 	C 	0.0547	0.3861	0.0256	-0.125
Mof_C 	C 	0.2249	0.2858	0.7643	-0.104
Mof_C 	C 	0.9647	0.903	0.3081	-0.073
Mof_C 	C 	0.8951	0.2455	0.5479	0.371
Mof_C 	C 	0.0166	0.4009	0.3227	0.292
Mof_C 	C 	0.384	0.341	0.5769	0.514
Mof_C 	C 	0.9453	0.1139	0.5256	-0.131
Mof_C 	C 	0.616	0.659	0.4231	0.514
Mof_C 	C 	0.7751	0.2142	0.2643	-0.09
Mof_C 	C 	0.8786	0.5357	0.0362	-0.022
Mof_C 	C 	0.9834	0.5991	0.6773	0.292
Mof_C 	C 	0.8786	0.0357	0.4638	-0.039
Mof_O 	O 	0.1524	0.0044	0.1819	-0.368
Mof_O 	O 	0.2396	0.7708	0.4248	-0.398
Mof_O 	O 	0.8476	0.4956	0.6819	-0.402
Mof_O 	O 	0.9621	0.3455	0.382	-0.448
Mof_O 	O 	0.006	0.1206	0.0354	-0.568
Mof_O 	O 	0.9621	0.8455	0.118	-0.42
Mof_O 	O 	0.6749	0.1603	0.0167	-0.559
Mof_O 	O 	0.6749	0.6603	0.4833	-0.574
Mof_O 	O 	0.0379	0.6545	0.618	-0.448
Mof_O 	O 	0.006	0.6206	0.4646	-0.589
Mof_O 	O 	0.7604	0.7292	0.9248	-0.388
Mof_O 	O 	0.2396	0.2708	0.0752	-0.388
Mof_O 	O 	0.994	0.3794	0.5354	-0.589
Mof_O 	O 	0.1524	0.5044	0.3181	-0.402
Mof_O 	O 	0.7604	0.2292	0.5752	-0.398
Mof_O 	O 	0.8476	0.9956	0.8181	-0.368
Mof_O 	O 	0.4672	0.6085	0.409	-0.566
Mof_O 	O 	0.5328	0.3915	0.591	-0.566
Mof_O 	O 	0.994	0.8794	0.9646	-0.568
Mof_O 	O 	0.5328	0.8915	0.909	-0.549
Mof_O 	O 	0.3251	0.8397	0.9833	-0.559
Mof_O 	O 	0.0379	0.1545	0.882	-0.42
Mof_O 	O 	0.3251	0.3397	0.5167	-0.574
Mof_O 	O 	0.4672	0.1085	0.091	-0.549
_end
