data_functionalizedCrystal
_audit_creation_method	'EQeq! by Chris Wilmer'
_symmetry_space_group_name_H-M	'P1'
_symmetry_Int_Tables_number	1
_symmetry_cell_setting	triclinic
loop_
_symmetry_equiv_pos_as_xyz
  x,y,z
_cell_length_a	14.916
_cell_length_b	17.266
_cell_length_c	17.266
_cell_angle_alpha	90
_cell_angle_beta	90
_cell_angle_gamma	90
loop_
_atom_site_label
_atom_site_type_symbol
_atom_site_fract_x
_atom_site_fract_y
_atom_site_fract_z
_atom_site_charge
Mof_Mn	Mn	0.75	0.74275	0.75725	0.866
Mof_Mn	Mn	0.75	0.25725	0.24275	0.869
Mof_Mn	Mn	0.25	0.75725	0.25725	0.867
Mof_Mn	Mn	0.25	0.24275	0.74275	0.868
Mof_V 	V 	0.87423	0.87838	0.89063	1.801
Mof_V 	V 	0.77232	0.93771	0.0697	1.786
Mof_V 	V 	0.91364	0.81911	0.05105	1.805
Mof_V 	V 	0.08506	0.81392	0.96998	1.785
Mof_V 	V 	0.87423	0.12162	0.10937	1.805
Mof_V 	V 	0.77232	0.06229	0.9303	1.786
Mof_V 	V 	0.91364	0.18089	0.94895	1.778
Mof_V 	V 	0.08506	0.18608	0.03002	1.817
Mof_V 	V 	0.12577	0.89063	0.12162	1.803
Mof_V 	V 	0.22768	0.0697	0.06229	1.815
Mof_V 	V 	0.08636	0.05105	0.18089	1.815
Mof_V 	V 	0.91494	0.96998	0.18608	1.779
Mof_V 	V 	0.12577	0.10937	0.87838	1.803
Mof_V 	V 	0.22768	0.9303	0.93771	1.763
Mof_V 	V 	0.08636	0.94895	0.81911	1.783
Mof_V 	V 	0.91494	0.03002	0.81392	1.807
Mof_V 	V 	0.37423	0.37838	0.60937	1.805
Mof_V 	V 	0.27232	0.43771	0.4303	1.797
Mof_V 	V 	0.41364	0.31911	0.44895	1.797
Mof_V 	V 	0.58506	0.31392	0.53002	1.799
Mof_V 	V 	0.37423	0.62162	0.39063	1.805
Mof_V 	V 	0.27232	0.56229	0.5697	1.797
Mof_V 	V 	0.41364	0.68089	0.55105	1.797
Mof_V 	V 	0.58506	0.68608	0.46998	1.799
Mof_V 	V 	0.62577	0.39063	0.37838	1.805
Mof_V 	V 	0.72768	0.5697	0.43771	1.797
Mof_V 	V 	0.58636	0.55105	0.31911	1.797
Mof_V 	V 	0.41494	0.46998	0.31392	1.799
Mof_V 	V 	0.62577	0.60937	0.62162	1.805
Mof_V 	V 	0.72768	0.4303	0.56229	1.797
Mof_V 	V 	0.58636	0.44895	0.68089	1.797
Mof_V 	V 	0.41494	0.53002	0.68608	1.799
Mof_H 	H 	0.7617	0.7471	0.5777	-0.025
Mof_H 	H 	0.8595	0.7555	0.4761	0.101
Mof_H 	H 	0.9427	0.8155	0.7231	-0.029
Mof_H 	H 	0.0451	0.8309	0.6249	0.127
Mof_H 	H 	0.2394	0.7594	0.4371	-0.013
Mof_H 	H 	0.1414	0.7635	0.5388	0.091
Mof_H 	H 	0.0551	0.8301	0.293	-0.005
Mof_H 	H 	0.9495	0.8296	0.388	0.068
Mof_H 	H 	0.7617	0.2529	0.4223	-0.025
Mof_H 	H 	0.8595	0.2445	0.5239	0.104
Mof_H 	H 	0.9427	0.1845	0.2769	-0.031
Mof_H 	H 	0.0451	0.1691	0.3751	0.141
Mof_H 	H 	0.2394	0.2406	0.5629	-0.011
Mof_H 	H 	0.1414	0.2365	0.4612	0.094
Mof_H 	H 	0.0551	0.1699	0.707	-0.003
Mof_H 	H 	0.9495	0.1704	0.612	0.073
Mof_H 	H 	0.2383	0.5777	0.2529	-0.022
Mof_H 	H 	0.1405	0.4761	0.2445	0.104
Mof_H 	H 	0.0573	0.7231	0.1845	-0.009
Mof_H 	H 	0.9549	0.6249	0.1691	0.085
Mof_H 	H 	0.7606	0.4371	0.2406	-0.014
Mof_H 	H 	0.8586	0.5388	0.2365	0.094
Mof_H 	H 	0.9449	0.293	0.1699	-0.026
Mof_H 	H 	0.0505	0.388	0.1704	0.129
Mof_H 	H 	0.2383	0.4223	0.7471	-0.023
Mof_H 	H 	0.1405	0.5239	0.7555	0.101
Mof_H 	H 	0.0573	0.2769	0.8155	-0.011
Mof_H 	H 	0.9549	0.3751	0.8309	0.079
Mof_H 	H 	0.7606	0.5629	0.7594	-0.015
Mof_H 	H 	0.8586	0.4612	0.7635	0.091
Mof_H 	H 	0.9449	0.707	0.8301	-0.024
Mof_H 	H 	0.0505	0.612	0.8296	0.117
Mof_H 	H 	0.2617	0.2471	0.9223	-0.058
Mof_H 	H 	0.3595	0.2555	0.0239	0.188
Mof_H 	H 	0.4427	0.3155	0.7769	-0.025
Mof_H 	H 	0.5451	0.3309	0.8751	0.108
Mof_H 	H 	0.7394	0.2594	0.0629	0.019
Mof_H 	H 	0.6414	0.2635	0.9612	0.009
Mof_H 	H 	0.5551	0.3301	0.207	-0.01
Mof_H 	H 	0.4495	0.3296	0.112	0.098
Mof_H 	H 	0.2617	0.7529	0.0777	0.009
Mof_H 	H 	0.3595	0.7445	0.9761	0.022
Mof_H 	H 	0.4427	0.6845	0.2231	-0.016
Mof_H 	H 	0.5451	0.6691	0.1249	0.108
Mof_H 	H 	0.7394	0.7406	0.9371	-0.044
Mof_H 	H 	0.6414	0.7365	0.0388	0.168
Mof_H 	H 	0.5551	0.6699	0.793	-0.018
Mof_H 	H 	0.4495	0.6704	0.888	0.096
Mof_H 	H 	0.7383	0.0777	0.2471	0.01
Mof_H 	H 	0.6405	0.9761	0.2555	0.018
Mof_H 	H 	0.5573	0.2231	0.3155	-0.016
Mof_H 	H 	0.4549	0.1249	0.3309	0.109
Mof_H 	H 	0.2606	0.9371	0.2594	-0.047
Mof_H 	H 	0.3586	0.0388	0.2635	0.178
Mof_H 	H 	0.4449	0.793	0.3301	-0.019
Mof_H 	H 	0.5505	0.888	0.3296	0.096
Mof_H 	H 	0.7383	0.9223	0.7529	-0.055
Mof_H 	H 	0.6405	0.0239	0.7445	0.178
Mof_H 	H 	0.5573	0.7769	0.6845	-0.024
Mof_H 	H 	0.4549	0.8751	0.6691	0.107
Mof_H 	H 	0.2606	0.0629	0.7406	0.018
Mof_H 	H 	0.3586	0.9612	0.7365	0.012
Mof_H 	H 	0.4449	0.207	0.6699	-0.01
Mof_H 	H 	0.5505	0.112	0.6704	0.097
Mof_C 	C 	0.8203	0.7625	0.5875	0.12
Mof_C 	C 	0.8784	0.7681	0.5259	-0.173
Mof_C 	C 	0.9261	0.8032	0.6727	0.127
Mof_C 	C 	0.988	0.812	0.614	-0.206
Mof_C 	C 	0.1802	0.7736	0.4277	0.091
Mof_C 	C 	0.1219	0.7754	0.4891	-0.138
Mof_C 	C 	0.0714	0.8143	0.3425	0.079
Mof_C 	C 	0.0082	0.8155	0.3996	-0.105
Mof_C 	C 	0.0318	0.7957	0.4754	0.057
Mof_C 	C 	0.965	0.7927	0.5387	0.09
Mof_C 	C 	0.8203	0.2375	0.4125	0.127
Mof_C 	C 	0.8784	0.2319	0.4741	-0.174
Mof_C 	C 	0.9261	0.1968	0.3273	0.14
Mof_C 	C 	0.988	0.188	0.386	-0.213
Mof_C 	C 	0.1802	0.2264	0.5723	0.097
Mof_C 	C 	0.1219	0.2246	0.5109	-0.135
Mof_C 	C 	0.0714	0.1857	0.6575	0.085
Mof_C 	C 	0.0082	0.1845	0.6004	-0.099
Mof_C 	C 	0.0318	0.2043	0.5246	0.063
Mof_C 	C 	0.965	0.2073	0.4613	0.098
Mof_C 	C 	0.1797	0.5875	0.2375	0.119
Mof_C 	C 	0.1216	0.5259	0.2319	-0.16
Mof_C 	C 	0.0739	0.6727	0.1968	0.099
Mof_C 	C 	0.012	0.614	0.188	-0.119
Mof_C 	C 	0.8198	0.4277	0.2264	0.104
Mof_C 	C 	0.8781	0.4891	0.2246	-0.149
Mof_C 	C 	0.9286	0.3425	0.1857	0.128
Mof_C 	C 	0.9918	0.3996	0.1845	-0.194
Mof_C 	C 	0.9682	0.4754	0.2043	0.072
Mof_C 	C 	0.035	0.5387	0.2073	0.089
Mof_C 	C 	0.1797	0.4125	0.7625	0.113
Mof_C 	C 	0.1216	0.4741	0.7681	-0.162
Mof_C 	C 	0.0739	0.3273	0.8032	0.092
Mof_C 	C 	0.012	0.386	0.812	-0.126
Mof_C 	C 	0.8198	0.5723	0.7736	0.097
Mof_C 	C 	0.8781	0.5109	0.7754	-0.149
Mof_C 	C 	0.9286	0.6575	0.8143	0.116
Mof_C 	C 	0.9918	0.6004	0.8155	-0.186
Mof_C 	C 	0.9682	0.5246	0.7957	0.064
Mof_C 	C 	0.035	0.4613	0.7927	0.083
Mof_C 	C 	0.3203	0.2625	0.9125	0.185
Mof_C 	C 	0.3784	0.2681	0.9741	-0.311
Mof_C 	C 	0.4261	0.3032	0.8273	0.126
Mof_C 	C 	0.488	0.312	0.886	-0.187
Mof_C 	C 	0.6802	0.2736	0.0723	0.037
Mof_C 	C 	0.6219	0.2754	0.0109	-0.004
Mof_C 	C 	0.5714	0.3143	0.1575	0.093
Mof_C 	C 	0.5082	0.3155	0.1004	-0.127
Mof_C 	C 	0.5318	0.2957	0.0246	0.054
Mof_C 	C 	0.465	0.2927	0.9613	0.105
Mof_C 	C 	0.3203	0.7375	0.0875	0.058
Mof_C 	C 	0.3784	0.7319	0.0259	-0.036
Mof_C 	C 	0.4261	0.6968	0.1727	0.103
Mof_C 	C 	0.488	0.688	0.114	-0.148
Mof_C 	C 	0.6802	0.7264	0.9277	0.152
Mof_C 	C 	0.6219	0.7246	0.9891	-0.272
Mof_C 	C 	0.5714	0.6857	0.8425	0.11
Mof_C 	C 	0.5082	0.6845	0.8996	-0.163
Mof_C 	C 	0.5318	0.7043	0.9754	0.071
Mof_C 	C 	0.465	0.7073	0.0387	0.076
Mof_C 	C 	0.6797	0.0875	0.2625	0.057
Mof_C 	C 	0.6216	0.0259	0.2681	-0.026
Mof_C 	C 	0.5739	0.1727	0.3032	0.104
Mof_C 	C 	0.512	0.114	0.312	-0.146
Mof_C 	C 	0.3198	0.9277	0.2736	0.161
Mof_C 	C 	0.3781	0.9891	0.2754	-0.285
Mof_C 	C 	0.4286	0.8425	0.3143	0.112
Mof_C 	C 	0.4918	0.8996	0.3155	-0.165
Mof_C 	C 	0.4682	0.9754	0.2957	0.076
Mof_C 	C 	0.535	0.0387	0.2927	0.077
Mof_C 	C 	0.6797	0.9125	0.7375	0.175
Mof_C 	C 	0.6216	0.9741	0.7319	-0.298
Mof_C 	C 	0.5739	0.8273	0.6968	0.123
Mof_C 	C 	0.512	0.886	0.688	-0.184
Mof_C 	C 	0.3198	0.0723	0.7264	0.038
Mof_C 	C 	0.3781	0.0109	0.7246	-0.013
Mof_C 	C 	0.4286	0.1575	0.6857	0.092
Mof_C 	C 	0.4918	0.1004	0.6845	-0.129
Mof_C 	C 	0.4682	0.0246	0.7043	0.053
Mof_C 	C 	0.535	0.9613	0.7073	0.1
Mof_N 	N 	0.8432	0.7777	0.6596	-0.208
Mof_N 	N 	0.8437	0.6453	0.7913	-0.199
Mof_N 	N 	0.8432	0.2223	0.3404	-0.208
Mof_N 	N 	0.8437	0.3547	0.2087	-0.199
Mof_N 	N 	0.1568	0.6596	0.2223	-0.198
Mof_N 	N 	0.1563	0.7913	0.3547	-0.191
Mof_N 	N 	0.1568	0.3404	0.7777	-0.2
Mof_N 	N 	0.1563	0.2087	0.6453	-0.189
Mof_N 	N 	0.3432	0.2777	0.8404	-0.219
Mof_N 	N 	0.3437	0.1453	0.7087	-0.181
Mof_N 	N 	0.3432	0.7223	0.1596	-0.189
Mof_N 	N 	0.3437	0.8547	0.2913	-0.208
Mof_N 	N 	0.6568	0.1596	0.2777	-0.188
Mof_N 	N 	0.6563	0.2913	0.1453	-0.18
Mof_N 	N 	0.6568	0.8404	0.7223	-0.218
Mof_N 	N 	0.6563	0.7087	0.8547	-0.207
Mof_O 	O 	0.8197	0.8176	0.8348	-0.645
Mof_O 	O 	0.8208	0.8718	0.9934	-0.981
Mof_O 	O 	0.9628	0.8166	0.9443	-0.937
Mof_O 	O 	0.6865	0.9005	0.1132	-0.552
Mof_O 	O 	0.8218	0.9793	0.8739	-0.983
Mof_O 	O 	0.8803	0.8817	0.1329	-0.904
Mof_O 	O 	0.9635	0.9245	0.8242	-0.941
Mof_O 	O 	0.8782	0.734	0.0718	-0.545
Mof_O 	O 	0.1195	0.7266	0.9616	-0.58
Mof_O 	O 	0.8197	0.1824	0.1652	-0.64
Mof_O 	O 	0.8208	0.1282	0.0066	-0.901
Mof_O 	O 	0.9628	0.1834	0.0557	-0.9
Mof_O 	O 	0.6865	0.0995	0.8868	-0.551
Mof_O 	O 	0.8218	0.0207	0.1261	-0.905
Mof_O 	O 	0.8803	0.1183	0.8671	-0.904
Mof_O 	O 	0.9635	0.0755	0.1758	-0.904
Mof_O 	O 	0.8782	0.266	0.9282	-0.585
Mof_O 	O 	0.1195	0.2734	0.0384	-0.531
Mof_O 	O 	0.1803	0.8348	0.1824	-0.643
Mof_O 	O 	0.1792	0.9934	0.1282	-0.973
Mof_O 	O 	0.0372	0.9443	0.1834	-0.921
Mof_O 	O 	0.3135	0.1132	0.0995	-0.524
Mof_O 	O 	0.1782	0.8739	0.0207	-0.919
Mof_O 	O 	0.1197	0.1329	0.1183	-0.878
Mof_O 	O 	0.0365	0.8242	0.0755	-0.891
Mof_O 	O 	0.1218	0.0718	0.266	-0.535
Mof_O 	O 	0.8805	0.9616	0.2734	-0.589
Mof_O 	O 	0.1803	0.1652	0.8176	-0.643
Mof_O 	O 	0.1792	0.0066	0.8718	-0.916
Mof_O 	O 	0.0372	0.0557	0.8166	-0.887
Mof_O 	O 	0.3135	0.8868	0.9005	-0.574
Mof_O 	O 	0.1782	0.1261	0.9793	-0.975
Mof_O 	O 	0.1197	0.8671	0.8817	-0.908
Mof_O 	O 	0.0365	0.1758	0.9245	-0.925
Mof_O 	O 	0.1218	0.9282	0.734	-0.577
Mof_O 	O 	0.8805	0.0384	0.7266	-0.542
Mof_O 	O 	0.3197	0.3176	0.6652	-0.642
Mof_O 	O 	0.3208	0.3718	0.5066	-0.933
Mof_O 	O 	0.4628	0.3166	0.5557	-0.906
Mof_O 	O 	0.1865	0.4005	0.3868	-0.54
Mof_O 	O 	0.3218	0.4793	0.6261	-0.936
Mof_O 	O 	0.3803	0.3817	0.3671	-0.894
Mof_O 	O 	0.4635	0.4245	0.6758	-0.911
Mof_O 	O 	0.3782	0.234	0.4282	-0.556
Mof_O 	O 	0.6195	0.2266	0.5384	-0.556
Mof_O 	O 	0.3197	0.6824	0.3348	-0.642
Mof_O 	O 	0.3208	0.6282	0.4934	-0.933
Mof_O 	O 	0.4628	0.6834	0.4443	-0.907
Mof_O 	O 	0.1865	0.5995	0.6132	-0.541
Mof_O 	O 	0.3218	0.5207	0.3739	-0.936
Mof_O 	O 	0.3803	0.6183	0.6329	-0.895
Mof_O 	O 	0.4635	0.5755	0.3242	-0.91
Mof_O 	O 	0.3782	0.766	0.5718	-0.565
Mof_O 	O 	0.6195	0.7734	0.4616	-0.565
Mof_O 	O 	0.6803	0.3348	0.3176	-0.643
Mof_O 	O 	0.6792	0.4934	0.3718	-0.934
Mof_O 	O 	0.5372	0.4443	0.3166	-0.906
Mof_O 	O 	0.8135	0.6132	0.4005	-0.547
Mof_O 	O 	0.6782	0.3739	0.4793	-0.936
Mof_O 	O 	0.6197	0.6329	0.3817	-0.895
Mof_O 	O 	0.5365	0.3242	0.4245	-0.91
Mof_O 	O 	0.6218	0.5718	0.234	-0.557
Mof_O 	O 	0.3805	0.4616	0.2266	-0.555
Mof_O 	O 	0.6803	0.6652	0.6824	-0.643
Mof_O 	O 	0.6792	0.5066	0.6282	-0.934
Mof_O 	O 	0.5372	0.5557	0.6834	-0.907
Mof_O 	O 	0.8135	0.3868	0.5995	-0.547
Mof_O 	O 	0.6782	0.6261	0.5207	-0.937
Mof_O 	O 	0.6197	0.3671	0.6183	-0.895
Mof_O 	O 	0.5365	0.6758	0.5755	-0.911
Mof_O 	O 	0.6218	0.4282	0.766	-0.565
Mof_O 	O 	0.3805	0.5384	0.7734	-0.565
Mof_O 	O 	0.7191	0	-0	-0.686
Mof_O 	O 	0.2809	0	-0	-0.684
Mof_O 	O 	0.2191	0.5	0.5	-0.75
Mof_O 	O 	0.7809	0.5	0.5	-0.754
Mof_Cl	Cl	-0	0	-0	-0.947
Mof_Cl	Cl	0.5	0.5	0.5	-1.051
_end
