data_functionalizedCrystal
_audit_creation_method	'EQeq! by Chris Wilmer'
_symmetry_space_group_name_H-M	'P1'
_symmetry_Int_Tables_number	1
_symmetry_cell_setting	triclinic
loop_
_symmetry_equiv_pos_as_xyz
  x,y,z
_cell_length_a	9.7863
_cell_length_b	10.2967
_cell_length_c	11.0263
_cell_angle_alpha	76.898
_cell_angle_beta	76.24
_cell_angle_gamma	65.487
loop_
_atom_site_label
_atom_site_type_symbol
_atom_site_fract_x
_atom_site_fract_y
_atom_site_fract_z
_atom_site_charge
Mof_Yb	Yb	0.94429	0.22814	0.32414	1.538
Mof_Yb	Yb	0.05571	0.77186	0.67586	1.538
Mof_H 	H 	0.4356	0.4168	0.211	0.044
Mof_H 	H 	0.744	0.4974	0.9227	0.058
Mof_H 	H 	0.4015	0.8828	0.6818	0.045
Mof_H 	H 	0.3486	0.1415	0.3487	0.038
Mof_H 	H 	0.3079	0.9221	0.0053	0.058
Mof_H 	H 	0.4527	0.188	0.107	0.05
Mof_H 	H 	0.5644	0.5832	0.789	0.044
Mof_H 	H 	0.256	0.5026	0.0773	0.058
Mof_H 	H 	0.5985	0.1172	0.3182	0.045
Mof_H 	H 	0.6514	0.8585	0.6513	0.038
Mof_H 	H 	0.6921	0.0779	0.9947	0.058
Mof_H 	H 	0.5473	0.812	0.893	0.05
Mof_C 	C 	0.6087	0.4484	0.0806	-0.057
Mof_C 	C 	0.4615	0.4501	0.1265	-0.027
Mof_C 	C 	0.6466	0.4983	0.9539	-0.03
Mof_C 	C 	0.7263	0.3878	0.1669	0.301
Mof_C 	C 	0.3501	0.013	0.5176	-0.124
Mof_C 	C 	0.4416	0.9294	0.6086	-0.013
Mof_C 	C 	0.4096	0.0845	0.4091	-0.011
Mof_C 	C 	0.1895	0.0219	0.533	0.457
Mof_C 	C 	0.3554	0.066	0.0678	-0.045
Mof_C 	C 	0.385	0.9534	0.0032	-0.04
Mof_C 	C 	0.4715	0.1127	0.0642	-0.024
Mof_C 	C 	0.203	0.1324	0.1482	0.299
Mof_C 	C 	0.3913	0.5516	0.9194	-0.057
Mof_C 	C 	0.5385	0.5499	0.8735	-0.027
Mof_C 	C 	0.3534	0.5017	0.0461	-0.03
Mof_C 	C 	0.2737	0.6122	0.8331	0.301
Mof_C 	C 	0.6499	0.987	0.4824	-0.124
Mof_C 	C 	0.5584	0.0706	0.3914	-0.013
Mof_C 	C 	0.5904	0.9155	0.5909	-0.011
Mof_C 	C 	0.8105	0.9781	0.467	0.457
Mof_C 	C 	0.6446	0.934	0.9322	-0.045
Mof_C 	C 	0.615	0.0466	0.9968	-0.04
Mof_C 	C 	0.5285	0.8873	0.9358	-0.024
Mof_C 	C 	0.797	0.8676	0.8518	0.299
Mof_O 	O 	0.8615	0.3742	0.1239	-0.37
Mof_O 	O 	0.6857	0.3502	0.2819	-0.407
Mof_O 	O 	0.1147	0.0995	0.4466	-0.519
Mof_O 	O 	0.1408	0.9507	0.6294	-0.484
Mof_O 	O 	0.169	0.25	0.1862	-0.38
Mof_O 	O 	0.1133	0.0655	0.1803	-0.357
Mof_O 	O 	0.1385	0.6258	0.8761	-0.37
Mof_O 	O 	0.3143	0.6498	0.7181	-0.407
Mof_O 	O 	0.8853	0.9005	0.5534	-0.519
Mof_O 	O 	0.8592	0.0493	0.3706	-0.484
Mof_O 	O 	0.831	0.75	0.8138	-0.38
Mof_O 	O 	0.8867	0.9345	0.8197	-0.357
_end
