data_functionalizedCrystal
_audit_creation_method	'EQeq! by Chris Wilmer'
_symmetry_space_group_name_H-M	'P1'
_symmetry_Int_Tables_number	1
_symmetry_cell_setting	triclinic
loop_
_symmetry_equiv_pos_as_xyz
  x,y,z
_cell_length_a	12.28
_cell_length_b	12.553
_cell_length_c	19.49
_cell_angle_alpha	90
_cell_angle_beta	92.17
_cell_angle_gamma	90
loop_
_atom_site_label
_atom_site_type_symbol
_atom_site_fract_x
_atom_site_fract_y
_atom_site_fract_z
_atom_site_charge
Mof_Cu	Cu	0.2352	0.88826	0.75487	0.874
Mof_Cu	Cu	0.2648	0.38826	0.24513	0.874
Mof_Cu	Cu	0.7648	0.11174	0.24513	0.874
Mof_Cu	Cu	0.7352	0.61174	0.75487	0.874
Mof_H 	H 	0.4487	0.848	0.8332	0.398
Mof_H 	H 	0.571	0.8239	0.92	0.028
Mof_H 	H 	0.3547	0.0371	0.8717	0.017
Mof_H 	H 	0.4755	0.0776	0.9594	0.105
Mof_H 	H 	0.5932	0.027	0.9652	0.097
Mof_H 	H 	0.0393	0.0493	0.754	0.028
Mof_H 	H 	0.9001	0.0737	0.8626	0.05
Mof_H 	H 	0.1524	0.8756	0.9086	0.013
Mof_H 	H 	0.0113	0.8989	0.9935	-0.127
Mof_H 	H 	0.9472	0.9802	0.9656	-0.243
Mof_H 	H 	0.0106	0.7813	0.6987	0.023
Mof_H 	H 	0.8962	0.8678	0.5994	0.055
Mof_H 	H 	0.1748	0.0296	0.6197	0.023
Mof_H 	H 	0.0206	0.1035	0.5282	0.079
Mof_H 	H 	0.9155	0.0463	0.5327	0.082
Mof_H 	H 	0.68	0.1562	0.4008	0.041
Mof_H 	H 	0.5044	0.0536	0.4463	0.052
Mof_H 	H 	0.5498	0.9541	0.2538	0.003
Mof_H 	H 	0.4006	0.8837	0.3154	0.062
Mof_H 	H 	0.4195	0.8757	0.4011	0.066
Mof_H 	H 	0.3014	0.015	0.388	0.133
Mof_H 	H 	0.2324	0.9255	0.3486	0.097
Mof_H 	H 	0.2785	0.9469	0.2104	0.042
Mof_H 	H 	0.2432	0.6469	0.8478	0.053
Mof_H 	H 	0.2039	0.6957	0.6456	0.016
Mof_H 	H 	0.0513	0.348	0.1668	0.399
Mof_H 	H 	0.929	0.3239	0.08	0.03
Mof_H 	H 	0.1453	0.5371	0.1283	0.017
Mof_H 	H 	0.0245	0.5776	0.0406	0.102
Mof_H 	H 	0.9068	0.527	0.0348	0.097
Mof_H 	H 	0.4607	0.5493	0.246	0.028
Mof_H 	H 	0.5999	0.5737	0.1374	0.05
Mof_H 	H 	0.3476	0.3756	0.0914	0.013
Mof_H 	H 	0.4887	0.3989	0.0065	-0.123
Mof_H 	H 	0.5528	0.4802	0.0344	-0.23
Mof_H 	H 	0.4894	0.2813	0.3013	0.024
Mof_H 	H 	0.6038	0.3678	0.4006	0.053
Mof_H 	H 	0.3252	0.5296	0.3803	0.024
Mof_H 	H 	0.4794	0.6035	0.4718	0.081
Mof_H 	H 	0.5845	0.5463	0.4673	0.082
Mof_H 	H 	0.82	0.6562	0.5992	0.041
Mof_H 	H 	0.9956	0.5536	0.5537	0.052
Mof_H 	H 	0.9502	0.4541	0.7462	0.003
Mof_H 	H 	0.0994	0.3837	0.6846	0.061
Mof_H 	H 	0.0805	0.3757	0.5989	0.065
Mof_H 	H 	0.1986	0.515	0.612	0.137
Mof_H 	H 	0.2676	0.4255	0.6514	0.098
Mof_H 	H 	0.2215	0.4469	0.7896	0.041
Mof_H 	H 	0.2568	0.1469	0.1522	0.053
Mof_H 	H 	0.2961	0.1957	0.3544	0.016
Mof_H 	H 	0.5513	0.152	0.1668	0.398
Mof_H 	H 	0.429	0.1761	0.08	0.028
Mof_H 	H 	0.6453	0.9629	0.1283	0.017
Mof_H 	H 	0.5245	0.9224	0.0406	0.105
Mof_H 	H 	0.4068	0.973	0.0348	0.097
Mof_H 	H 	0.9607	0.9507	0.246	0.028
Mof_H 	H 	0.0999	0.9263	0.1374	0.05
Mof_H 	H 	0.8476	0.1244	0.0914	0.013
Mof_H 	H 	0.9887	0.1011	0.0065	-0.127
Mof_H 	H 	0.0528	0.0198	0.0344	-0.243
Mof_H 	H 	0.9894	0.2187	0.3013	0.023
Mof_H 	H 	0.1038	0.1322	0.4006	0.055
Mof_H 	H 	0.8252	0.9704	0.3803	0.023
Mof_H 	H 	0.9794	0.8965	0.4718	0.079
Mof_H 	H 	0.0845	0.9537	0.4673	0.082
Mof_H 	H 	0.32	0.8438	0.5992	0.041
Mof_H 	H 	0.4956	0.9464	0.5537	0.052
Mof_H 	H 	0.4502	0.0459	0.7462	0.003
Mof_H 	H 	0.5994	0.1163	0.6846	0.062
Mof_H 	H 	0.5805	0.1243	0.5989	0.066
Mof_H 	H 	0.6986	0.985	0.612	0.133
Mof_H 	H 	0.7676	0.0745	0.6514	0.097
Mof_H 	H 	0.7215	0.0531	0.7896	0.042
Mof_H 	H 	0.7568	0.3531	0.1522	0.053
Mof_H 	H 	0.7961	0.3043	0.3544	0.016
Mof_H 	H 	0.9487	0.652	0.8332	0.399
Mof_H 	H 	0.071	0.6761	0.92	0.03
Mof_H 	H 	0.8547	0.4629	0.8717	0.017
Mof_H 	H 	0.9755	0.4224	0.9594	0.102
Mof_H 	H 	0.0932	0.473	0.9652	0.097
Mof_H 	H 	0.5393	0.4507	0.754	0.028
Mof_H 	H 	0.4001	0.4263	0.8626	0.05
Mof_H 	H 	0.6524	0.6244	0.9086	0.013
Mof_H 	H 	0.5113	0.6011	0.9935	-0.123
Mof_H 	H 	0.4472	0.5198	0.9656	-0.23
Mof_H 	H 	0.5106	0.7187	0.6987	0.024
Mof_H 	H 	0.3962	0.6322	0.5994	0.053
Mof_H 	H 	0.6748	0.4704	0.6197	0.024
Mof_H 	H 	0.5206	0.3965	0.5282	0.081
Mof_H 	H 	0.4155	0.4537	0.5327	0.082
Mof_H 	H 	0.18	0.3438	0.4008	0.041
Mof_H 	H 	0.0044	0.4464	0.4463	0.052
Mof_H 	H 	0.0498	0.5459	0.2538	0.003
Mof_H 	H 	0.9006	0.6163	0.3154	0.061
Mof_H 	H 	0.9195	0.6243	0.4011	0.065
Mof_H 	H 	0.8014	0.485	0.388	0.137
Mof_H 	H 	0.7324	0.5745	0.3486	0.098
Mof_H 	H 	0.7785	0.5531	0.2104	0.041
Mof_H 	H 	0.7432	0.8531	0.8478	0.053
Mof_H 	H 	0.7039	0.8043	0.6456	0.016
Mof_C 	C 	0.4257	0.8104	0.8446	-0.53
Mof_C 	C 	0.494	0.8471	0.8966	0.113
Mof_C 	C 	0.3661	0.9656	0.8765	0.076
Mof_C 	C 	0.5155	0.0177	0.9654	-0.098
Mof_C 	C 	0.0358	0.0132	0.8031	0.006
Mof_C 	C 	0.9749	0.0287	0.8582	0.046
Mof_C 	C 	0.1053	0.9145	0.8829	0.12
Mof_C 	C 	0.9805	0.9519	0.9795	0.465
Mof_C 	C 	0.0289	0.8421	0.6705	0.024
Mof_C 	C 	0.9683	0.8805	0.6174	-0.013
Mof_C 	C 	0.1181	0.973	0.6288	0.09
Mof_C 	C 	0.9904	0.0303	0.5331	-0.064
Mof_C 	C 	0.6286	0.1062	0.3765	0.012
Mof_C 	C 	0.5405	0.057	0.401	0.017
Mof_C 	C 	0.565	0.0034	0.2967	0.087
Mof_C 	C 	0.4086	0.9184	0.3531	-0.023
Mof_C 	C 	0.2997	0.9763	0.355	-0.169
Mof_C 	C 	0.275	0.0369	0.2304	0.012
Mof_C 	C 	0.2337	0.6338	0.7986	0.003
Mof_C 	C 	0.2132	0.6609	0.6901	0.073
Mof_C 	C 	0.0743	0.3104	0.1554	-0.531
Mof_C 	C 	0.006	0.3471	0.1034	0.11
Mof_C 	C 	0.1339	0.4656	0.1235	0.075
Mof_C 	C 	0.9845	0.5177	0.0346	-0.094
Mof_C 	C 	0.4642	0.5132	0.1969	0.008
Mof_C 	C 	0.5251	0.5287	0.1418	0.044
Mof_C 	C 	0.3947	0.4145	0.1171	0.119
Mof_C 	C 	0.5195	0.4519	0.0205	0.449
Mof_C 	C 	0.4711	0.3421	0.3295	0.019
Mof_C 	C 	0.5317	0.3805	0.3826	-0.006
Mof_C 	C 	0.3819	0.473	0.3712	0.088
Mof_C 	C 	0.5096	0.5303	0.4669	-0.066
Mof_C 	C 	0.8714	0.6062	0.6235	0.012
Mof_C 	C 	0.9595	0.557	0.599	0.017
Mof_C 	C 	0.935	0.5034	0.7033	0.087
Mof_C 	C 	0.0914	0.4184	0.6469	-0.019
Mof_C 	C 	0.2003	0.4763	0.645	-0.177
Mof_C 	C 	0.225	0.5369	0.7696	0.014
Mof_C 	C 	0.2663	0.1338	0.2014	0.003
Mof_C 	C 	0.2868	0.1609	0.3099	0.074
Mof_C 	C 	0.5743	0.1896	0.1554	-0.53
Mof_C 	C 	0.506	0.1529	0.1034	0.113
Mof_C 	C 	0.6339	0.0344	0.1235	0.076
Mof_C 	C 	0.4845	0.9823	0.0346	-0.098
Mof_C 	C 	0.9642	0.9868	0.1969	0.006
Mof_C 	C 	0.0251	0.9713	0.1418	0.046
Mof_C 	C 	0.8947	0.0855	0.1171	0.12
Mof_C 	C 	0.0195	0.0481	0.0205	0.465
Mof_C 	C 	0.9711	0.1579	0.3295	0.024
Mof_C 	C 	0.0317	0.1195	0.3826	-0.013
Mof_C 	C 	0.8819	0.027	0.3712	0.09
Mof_C 	C 	0.0096	0.9697	0.4669	-0.064
Mof_C 	C 	0.3714	0.8938	0.6235	0.012
Mof_C 	C 	0.4595	0.943	0.599	0.017
Mof_C 	C 	0.435	0.9966	0.7033	0.087
Mof_C 	C 	0.5914	0.0816	0.6469	-0.023
Mof_C 	C 	0.7003	0.0237	0.645	-0.169
Mof_C 	C 	0.725	0.9631	0.7696	0.012
Mof_C 	C 	0.7663	0.3662	0.2014	0.003
Mof_C 	C 	0.7868	0.3391	0.3099	0.073
Mof_C 	C 	0.9257	0.6896	0.8446	-0.531
Mof_C 	C 	0.994	0.6529	0.8966	0.11
Mof_C 	C 	0.8661	0.5344	0.8765	0.075
Mof_C 	C 	0.0155	0.4823	0.9654	-0.094
Mof_C 	C 	0.5358	0.4868	0.8031	0.008
Mof_C 	C 	0.4749	0.4713	0.8582	0.044
Mof_C 	C 	0.6053	0.5855	0.8829	0.119
Mof_C 	C 	0.4805	0.5481	0.9795	0.449
Mof_C 	C 	0.5289	0.6579	0.6705	0.019
Mof_C 	C 	0.4683	0.6195	0.6174	-0.006
Mof_C 	C 	0.6181	0.527	0.6288	0.088
Mof_C 	C 	0.4904	0.4697	0.5331	-0.066
Mof_C 	C 	0.1286	0.3938	0.3765	0.012
Mof_C 	C 	0.0405	0.443	0.401	0.017
Mof_C 	C 	0.065	0.4966	0.2967	0.087
Mof_C 	C 	0.9086	0.5816	0.3531	-0.019
Mof_C 	C 	0.7997	0.5237	0.355	-0.177
Mof_C 	C 	0.775	0.4631	0.2304	0.014
Mof_C 	C 	0.7337	0.8662	0.7986	0.003
Mof_C 	C 	0.7132	0.8391	0.6901	0.074
Mof_N 	N 	0.346	0.888	0.8327	-0.177
Mof_N 	N 	0.4577	0.9454	0.9144	-0.127
Mof_N 	N 	0.1194	0.9423	0.8181	-0.218
Mof_N 	N 	0.0192	0.9637	0.9084	-0.151
Mof_N 	N 	0.1241	0.9004	0.6773	-0.221
Mof_N 	N 	0.0243	0.9661	0.5918	-0.104
Mof_N 	N 	0.6436	0.0723	0.3101	-0.217
Mof_N 	N 	0.5011	0.9912	0.3499	-0.112
Mof_N 	N 	0.2872	0.0556	0.3002	-0.099
Mof_N 	N 	0.2272	0.7128	0.7489	-0.188
Mof_N 	N 	0.154	0.388	0.1673	-0.177
Mof_N 	N 	0.0423	0.4454	0.0856	-0.127
Mof_N 	N 	0.3806	0.4423	0.1819	-0.219
Mof_N 	N 	0.4808	0.4637	0.0916	-0.151
Mof_N 	N 	0.3759	0.4004	0.3227	-0.22
Mof_N 	N 	0.4757	0.4661	0.4082	-0.105
Mof_N 	N 	0.8564	0.5723	0.6899	-0.217
Mof_N 	N 	0.9989	0.4912	0.6501	-0.113
Mof_N 	N 	0.2128	0.5556	0.6998	-0.098
Mof_N 	N 	0.2728	0.2128	0.2511	-0.188
Mof_N 	N 	0.654	0.112	0.1673	-0.177
Mof_N 	N 	0.5423	0.0546	0.0856	-0.127
Mof_N 	N 	0.8806	0.0577	0.1819	-0.218
Mof_N 	N 	0.9808	0.0363	0.0916	-0.151
Mof_N 	N 	0.8759	0.0996	0.3227	-0.221
Mof_N 	N 	0.9757	0.0339	0.4082	-0.104
Mof_N 	N 	0.3564	0.9277	0.6899	-0.217
Mof_N 	N 	0.4989	0.0088	0.6501	-0.112
Mof_N 	N 	0.7128	0.9444	0.6998	-0.099
Mof_N 	N 	0.7728	0.2872	0.2511	-0.188
Mof_N 	N 	0.846	0.612	0.8327	-0.177
Mof_N 	N 	0.9577	0.5546	0.9144	-0.127
Mof_N 	N 	0.6194	0.5577	0.8181	-0.219
Mof_N 	N 	0.5192	0.5363	0.9084	-0.151
Mof_N 	N 	0.6241	0.5996	0.6773	-0.22
Mof_N 	N 	0.5243	0.5339	0.5918	-0.105
Mof_N 	N 	0.1436	0.4277	0.3101	-0.217
Mof_N 	N 	0.0011	0.5088	0.3499	-0.113
Mof_N 	N 	0.7872	0.4444	0.3002	-0.098
Mof_N 	N 	0.7272	0.7872	0.7489	-0.188
Mof_Cl	Cl	0.7457	0.7468	0.0453	-0.231
Mof_O 	O 	0.7422	0.6372	0.0443	-0.026
Mof_O 	O 	0.7366	0.79	0.9804	-0.026
Mof_O 	O 	0.6519	0.7714	0.0778	-0.029
Mof_O 	O 	0.8381	0.7853	0.077	-0.021
Mof_Cl	Cl	0.7018	0.7905	0.46647	-0.236
Mof_O 	O 	0.5937	0.7942	0.4571	-0.026
Mof_O 	O 	0.738	0.8017	0.402	-0.033
Mof_O 	O 	0.7426	0.8763	0.5016	-0.039
Mof_O 	O 	0.7325	0.6951	0.4893	-0.032
Mof_Cl	Cl	0.7543	0.2468	0.9547	-0.234
Mof_O 	O 	0.7578	0.1372	0.9557	-0.026
Mof_O 	O 	0.7634	0.29	0.0196	-0.024
Mof_O 	O 	0.8481	0.2714	0.9222	-0.029
Mof_O 	O 	0.6619	0.2853	0.923	-0.021
Mof_Cl	Cl	0.7982	0.2905	0.53353	-0.236
Mof_O 	O 	0.9063	0.2942	0.5429	-0.026
Mof_O 	O 	0.762	0.3017	0.598	-0.033
Mof_O 	O 	0.7574	0.3763	0.4984	-0.039
Mof_O 	O 	0.7675	0.1951	0.5107	-0.032
Mof_Cl	Cl	0.2543	0.2532	0.9547	-0.231
Mof_O 	O 	0.2578	0.3628	0.9557	-0.026
Mof_O 	O 	0.2634	0.21	0.0196	-0.026
Mof_O 	O 	0.3481	0.2286	0.9222	-0.029
Mof_O 	O 	0.1619	0.2147	0.923	-0.021
Mof_Cl	Cl	0.2982	0.2095	0.53353	-0.236
Mof_O 	O 	0.4063	0.2058	0.5429	-0.026
Mof_O 	O 	0.262	0.1983	0.598	-0.033
Mof_O 	O 	0.2574	0.1237	0.4984	-0.039
Mof_O 	O 	0.2675	0.3049	0.5107	-0.032
Mof_Cl	Cl	0.2457	0.7532	0.0453	-0.234
Mof_O 	O 	0.2422	0.8628	0.0443	-0.026
Mof_O 	O 	0.2366	0.71	0.9804	-0.024
Mof_O 	O 	0.1519	0.7286	0.0778	-0.029
Mof_O 	O 	0.3381	0.7147	0.077	-0.021
Mof_Cl	Cl	0.2018	0.7095	0.46647	-0.236
Mof_O 	O 	0.0937	0.7058	0.4571	-0.026
Mof_O 	O 	0.238	0.6983	0.402	-0.033
Mof_O 	O 	0.2426	0.6237	0.5016	-0.039
Mof_O 	O 	0.2325	0.8049	0.4893	-0.032
_end
