data_functionalizedCrystal
_audit_creation_method	'EQeq! by Chris Wilmer'
_symmetry_space_group_name_H-M	'P1'
_symmetry_Int_Tables_number	1
_symmetry_cell_setting	triclinic
loop_
_symmetry_equiv_pos_as_xyz
  x,y,z
_cell_length_a	16.8416
_cell_length_b	16.8416
_cell_length_c	16.8416
_cell_angle_alpha	96.2812
_cell_angle_beta	113.558
_cell_angle_gamma	119.401
loop_
_atom_site_label
_atom_site_type_symbol
_atom_site_fract_x
_atom_site_fract_y
_atom_site_fract_z
_atom_site_charge
Mof_Hf	Hf	0.5	0.60932	0.10932	1.394
Mof_Hf	Hf	0.5	0.39068	0.89068	1.394
Mof_Hf	Hf	0.5086	0.60352	0.90508	1.173
Mof_Hf	Hf	0.4914	0.39648	0.09492	1.173
Mof_Hf	Hf	0.30156	0.39648	0.90508	1.173
Mof_Hf	Hf	0.69844	0.60352	0.09492	1.173
Mof_H 	H 	0.4912	0.8686	0.1418	0.038
Mof_H 	H 	0.5161	0.8722	0.9161	0.048
Mof_H 	H 	0.5157	0.9979	0.851	0.062
Mof_H 	H 	0.5088	0.6506	0.3774	0.038
Mof_H 	H 	0.4839	0.4	0.3561	0.048
Mof_H 	H 	0.4843	0.3353	0.4822	0.062
Mof_H 	H 	0.2732	0.1314	0.6226	0.039
Mof_H 	H 	0.0439	0.1278	0.6439	0.048
Mof_H 	H 	0.8531	0.0021	0.5178	0.061
Mof_H 	H 	0.7268	0.3494	0.8582	0.038
Mof_H 	H 	0.9561	0.6	0.0839	0.047
Mof_H 	H 	0.1469	0.6647	0.149	0.062
Mof_H 	H 	0.5088	0.1314	0.8582	0.038
Mof_H 	H 	0.4839	0.1278	0.0839	0.048
Mof_H 	H 	0.4843	0.0021	0.149	0.062
Mof_H 	H 	0.4912	0.3494	0.6226	0.038
Mof_H 	H 	0.5161	0.6	0.6439	0.048
Mof_H 	H 	0.5157	0.6647	0.5178	0.062
Mof_H 	H 	0.7268	0.8686	0.3774	0.039
Mof_H 	H 	0.9561	0.8722	0.3561	0.048
Mof_H 	H 	0.1469	0.9979	0.4822	0.061
Mof_H 	H 	0.2732	0.6506	0.1418	0.038
Mof_H 	H 	0.0439	0.4	0.9161	0.047
Mof_H 	H 	0.8531	0.3353	0.851	0.062
Mof_C 	C 	0.5071	0.7688	0.0237	0.406
Mof_C 	C 	0.5034	0.8568	0.0278	-0.1
Mof_C 	C 	0.4944	0.8963	0.0973	0.025
Mof_C 	C 	0.5095	0.8985	0.9626	-0.03
Mof_C 	C 	0.5058	0.9803	0.9653	0.024
Mof_C 	C 	0.51	0.0237	0.8985	-0.095
Mof_C 	C 	0.4929	0.5166	0.2617	0.406
Mof_C 	C 	0.4966	0.5244	0.3534	-0.099
Mof_C 	C 	0.5056	0.6029	0.4019	0.024
Mof_C 	C 	0.4905	0.4531	0.389	-0.03
Mof_C 	C 	0.4942	0.4595	0.4745	0.024
Mof_C 	C 	0.49	0.3885	0.5137	-0.095
Mof_C 	C 	0.2549	0.2312	0.7383	0.406
Mof_C 	C 	0.171	0.1432	0.6466	-0.099
Mof_C 	C 	0.201	0.1037	0.5981	0.023
Mof_C 	C 	0.0641	0.1015	0.611	-0.029
Mof_C 	C 	0.985	0.0197	0.5255	0.022
Mof_C 	C 	0.8748	0.9763	0.4863	-0.092
Mof_C 	C 	0.7451	0.4834	0.9763	0.406
Mof_C 	C 	0.829	0.4756	0.9722	-0.101
Mof_C 	C 	0.799	0.3971	0.9027	0.025
Mof_C 	C 	0.9359	0.5469	0.0374	-0.028
Mof_C 	C 	0.015	0.5405	0.0347	0.023
Mof_C 	C 	0.1252	0.6115	0.1015	-0.095
Mof_C 	C 	0.4929	0.2312	0.9763	0.406
Mof_C 	C 	0.4966	0.1432	0.9722	-0.1
Mof_C 	C 	0.5056	0.1037	0.9027	0.025
Mof_C 	C 	0.4905	0.1015	0.0374	-0.03
Mof_C 	C 	0.4942	0.0197	0.0347	0.024
Mof_C 	C 	0.49	0.9763	0.1015	-0.095
Mof_C 	C 	0.5071	0.4834	0.7383	0.406
Mof_C 	C 	0.5034	0.4756	0.6466	-0.099
Mof_C 	C 	0.4944	0.3971	0.5981	0.024
Mof_C 	C 	0.5095	0.5469	0.611	-0.03
Mof_C 	C 	0.5058	0.5405	0.5255	0.024
Mof_C 	C 	0.51	0.6115	0.4863	-0.095
Mof_C 	C 	0.7451	0.7688	0.2617	0.406
Mof_C 	C 	0.829	0.8568	0.3534	-0.099
Mof_C 	C 	0.799	0.8963	0.4019	0.023
Mof_C 	C 	0.9359	0.8985	0.389	-0.029
Mof_C 	C 	0.015	0.9803	0.4745	0.022
Mof_C 	C 	0.1252	0.0237	0.5137	-0.092
Mof_C 	C 	0.2549	0.5166	0.0237	0.406
Mof_C 	C 	0.171	0.5244	0.0278	-0.101
Mof_C 	C 	0.201	0.6029	0.0973	0.025
Mof_C 	C 	0.0641	0.4531	0.9626	-0.028
Mof_C 	C 	0.985	0.4595	0.9653	0.023
Mof_C 	C 	0.8748	0.3885	0.8985	-0.095
Mof_O 	O 	0.5132	0.7359	0.9565	-0.405
Mof_O 	O 	0.5056	0.7382	0.0866	-0.388
Mof_O 	O 	0.4868	0.4433	0.2227	-0.405
Mof_O 	O 	0.4944	0.581	0.2326	-0.388
Mof_O 	O 	0.2206	0.2641	0.7773	-0.405
Mof_O 	O 	0.3484	0.2618	0.7674	-0.388
Mof_O 	O 	0.7794	0.5567	0.0435	-0.405
Mof_O 	O 	0.6516	0.419	0.9134	-0.388
Mof_O 	O 	0.4868	0.2641	0.0435	-0.405
Mof_O 	O 	0.4944	0.2618	0.9134	-0.388
Mof_O 	O 	0.5132	0.5567	0.7773	-0.405
Mof_O 	O 	0.5056	0.419	0.7674	-0.388
Mof_O 	O 	0.7794	0.7359	0.2227	-0.405
Mof_O 	O 	0.6516	0.7382	0.2326	-0.388
Mof_O 	O 	0.2206	0.4433	0.9565	-0.405
Mof_O 	O 	0.3484	0.581	0.0866	-0.388
Mof_O 	O 	0.6024	0.6561	0.0537	-0.521
Mof_O 	O 	0.3976	0.4513	0.0537	-0.521
Mof_O 	O 	0.3976	0.3439	0.9463	-0.521
Mof_O 	O 	0.6024	0.5487	0.9463	-0.521
Mof_O 	O 	0.595	0.5529	0.1479	-0.519
Mof_O 	O 	0.405	0.5529	0.9579	-0.519
Mof_O 	O 	0.595	0.4471	0.0421	-0.519
Mof_O 	O 	0.405	0.4471	0.8521	-0.519
_end
