data_functionalizedCrystal
_audit_creation_method	'EQeq! by Chris Wilmer'
_symmetry_space_group_name_H-M	'P1'
_symmetry_Int_Tables_number	1
_symmetry_cell_setting	triclinic
loop_
_symmetry_equiv_pos_as_xyz
  x,y,z
_cell_length_a	9.1907
_cell_length_b	9.1907
_cell_length_c	12.759
_cell_angle_alpha	90
_cell_angle_beta	90
_cell_angle_gamma	120
loop_
_atom_site_label
_atom_site_type_symbol
_atom_site_fract_x
_atom_site_fract_y
_atom_site_fract_z
_atom_site_charge
Mof_Cd	Cd	0.63735	0	-0	0.45
Mof_Cd	Cd	6.51352e-17	0.63735	0.33333	0.483
Mof_Cd	Cd	0.36265	0.36265	0.66667	0.511
Mof_H 	H 	0.9638	0.7943	0.54947	0.12
Mof_H 	H 	0.8305	0.0362	0.21613	0.066
Mof_H 	H 	0.7943	0.9638	0.78387	0.122
Mof_H 	H 	0.1695	0.2057	0.45053	0.076
Mof_H 	H 	0.0362	0.8305	0.1172	0.06
Mof_H 	H 	0.2057	0.1695	0.8828	0.064
Mof_C 	C 	0.0712	0.0712	0.66667	0.212
Mof_C 	C 	0.88	0.7797	0.59632	-0.08
Mof_C 	C 	0.6803	0.4835	0.52295	0.301
Mof_C 	C 	0.4835	0.6803	0.81039	0.299
Mof_C 	C 	0.631	0.7259	0.73581	0.051
Mof_C 	C 	0.0949	0.369	0.40247	0.01
Mof_C 	C 	0.9058	0.9058	0.66667	0.079
Mof_C 	C 	0.12	0.8997	0.07035	0.013
Mof_C 	C 	0.2203	0.1003	0.92965	0.027
Mof_C 	C 	0.5165	0.1968	0.85628	0.308
Mof_C 	C 	0.7259	0.631	0.59753	0.048
Mof_C 	C 	6.51352e-17	0.9288	0.33333	0.265
Mof_C 	C 	0.9288	0	-0	0.227
Mof_C 	C 	0.7797	0.88	0.73702	-0.08
Mof_C 	C 	0.8032	0.3197	0.18961	0.307
Mof_C 	C 	0.8997	0.12	0.26298	0.003
Mof_C 	C 	0.9051	0.2741	0.26419	0.033
Mof_C 	C 	0.2741	0.9051	0.06914	0.021
Mof_C 	C 	0.369	0.0949	0.93086	0.035
Mof_C 	C 	-3.38025e-18	0.0942	0.33333	-0.066
Mof_C 	C 	0.0942	0	-0	-0.109
Mof_C 	C 	0.1003	0.2203	0.40368	-0.024
Mof_C 	C 	0.1968	0.5165	0.47705	0.31
Mof_C 	C 	0.3197	0.8032	0.14372	0.309
Mof_N 	N 	0.6076	0.6076	0.66667	-0.118
Mof_N 	N 	4.23258e-18	0.3924	0.33333	-0.123
Mof_N 	N 	0.3924	0	-0	-0.143
Mof_O 	O 	0.3561	0.5399	0.79814	-0.223
Mof_O 	O 	0.6439	0.1838	0.86853	-0.213
Mof_O 	O 	0.92439	0.11859	0.95657	-0.178
Mof_O 	O 	0.88141	0.8058	0.2899	-0.201
Mof_O 	O 	0.5399	0.3561	0.5352	-0.229
Mof_O 	O 	0.1942	0.07561	0.62324	-0.234
Mof_O 	O 	0.4992	0.7856	0.87572	-0.217
Mof_O 	O 	0.07561	0.1942	0.7101	-0.234
Mof_O 	O 	0.2864	0.5008	0.54238	-0.249
Mof_O 	O 	0.7856	0.4992	0.45762	-0.234
Mof_O 	O 	0.11859	0.92439	0.37676	-0.229
Mof_O 	O 	0.8058	0.88141	0.04343	-0.2
Mof_O 	O 	0.5008	0.2864	0.79095	-0.245
Mof_O 	O 	0.8162	0.4601	0.20186	-0.221
Mof_O 	O 	0.1838	0.6439	0.4648	-0.231
Mof_O 	O 	0.2144	0.7136	0.20905	-0.252
Mof_O 	O 	0.7136	0.2144	0.12428	-0.255
Mof_O 	O 	0.4601	0.8162	0.13147	-0.222
_end
