data_functionalizedCrystal
_audit_creation_method	'EQeq! by Chris Wilmer'
_symmetry_space_group_name_H-M	'P1'
_symmetry_Int_Tables_number	1
_symmetry_cell_setting	triclinic
loop_
_symmetry_equiv_pos_as_xyz
  x,y,z
_cell_length_a	16.201
_cell_length_b	16.201
_cell_length_c	6.9121
_cell_angle_alpha	90
_cell_angle_beta	90
_cell_angle_gamma	90
loop_
_atom_site_label
_atom_site_type_symbol
_atom_site_fract_x
_atom_site_fract_y
_atom_site_fract_z
_atom_site_charge
Mof_C 	C 	0.758	0.4574	0.2983	-0.013
Mof_C 	C 	0.7871	0.3963	0.1539	0.284
Mof_O 	O 	0.7671	0.3223	0.185	-0.213
Mof_C 	C 	0.258	0.9574	0.7983	0.009
Mof_C 	C 	0.2871	0.8963	0.6539	0.277
Mof_O 	O 	0.2671	0.8223	0.685	-0.212
Mof_C 	C 	0.242	0.5426	0.2983	-0.015
Mof_C 	C 	0.2129	0.6037	0.1539	0.284
Mof_O 	O 	0.2329	0.6777	0.185	-0.212
Mof_C 	C 	0.742	0.0426	0.7983	0.027
Mof_C 	C 	0.7129	0.1037	0.6539	0.264
Mof_O 	O 	0.7329	0.1777	0.685	-0.208
Mof_C 	C 	0.5426	0.758	0.2983	-0.014
Mof_C 	C 	0.6037	0.7871	0.1539	0.284
Mof_O 	O 	0.6777	0.7671	0.185	-0.212
Mof_C 	C 	0.0426	0.258	0.7983	-0.018
Mof_C 	C 	0.1037	0.2871	0.6539	0.284
Mof_O 	O 	0.1777	0.2671	0.685	-0.213
Mof_C 	C 	0.4574	0.242	0.2983	-0.015
Mof_C 	C 	0.3963	0.2129	0.1539	0.284
Mof_O 	O 	0.3223	0.2329	0.185	-0.213
Mof_C 	C 	0.9574	0.742	0.7983	0.055
Mof_C 	C 	0.8963	0.7129	0.6539	0.256
Mof_O 	O 	0.8223	0.7329	0.685	-0.206
Mof_C 	C 	0.242	0.4574	0.7017	-0.035
Mof_C 	C 	0.2129	0.3963	0.8461	0.291
Mof_O 	O 	0.2329	0.3223	0.815	-0.216
Mof_C 	C 	0.742	0.9574	0.2017	-0.069
Mof_C 	C 	0.7129	0.8963	0.3461	0.313
Mof_O 	O 	0.7329	0.8223	0.315	-0.22
Mof_C 	C 	0.758	0.5426	0.7017	-0.034
Mof_C 	C 	0.7871	0.6037	0.8461	0.291
Mof_O 	O 	0.7671	0.6777	0.815	-0.218
Mof_C 	C 	0.258	0.0426	0.2017	-0.054
Mof_C 	C 	0.2871	0.1037	0.3461	0.301
Mof_O 	O 	0.2671	0.1777	0.315	-0.217
Mof_C 	C 	0.4574	0.758	0.7017	-0.034
Mof_C 	C 	0.3963	0.7871	0.8461	0.29
Mof_O 	O 	0.3223	0.7671	0.815	-0.216
Mof_C 	C 	0.9574	0.258	0.2017	-0.023
Mof_C 	C 	0.8963	0.2871	0.3461	0.292
Mof_O 	O 	0.8223	0.2671	0.315	-0.214
Mof_C 	C 	0.5426	0.242	0.7017	-0.035
Mof_C 	C 	0.6037	0.2129	0.8461	0.291
Mof_O 	O 	0.6777	0.2329	0.815	-0.217
Mof_C 	C 	0.0426	0.742	0.2017	-0.101
Mof_C 	C 	0.1037	0.7129	0.3461	0.322
Mof_O 	O 	0.1777	0.7329	0.315	-0.223
Mof_C 	C 	0.242	0.5426	0.7017	-0.035
Mof_C 	C 	0.2129	0.6037	0.8461	0.291
Mof_O 	O 	0.2329	0.6777	0.815	-0.217
Mof_C 	C 	0.742	0.0426	0.2017	-0.101
Mof_C 	C 	0.7129	0.1037	0.3461	0.322
Mof_O 	O 	0.7329	0.1777	0.315	-0.223
Mof_C 	C 	0.758	0.4574	0.7017	-0.034
Mof_C 	C 	0.7871	0.3963	0.8461	0.29
Mof_O 	O 	0.7671	0.3223	0.815	-0.216
Mof_C 	C 	0.258	0.9574	0.2017	-0.023
Mof_C 	C 	0.2871	0.8963	0.3461	0.292
Mof_O 	O 	0.2671	0.8223	0.315	-0.214
Mof_C 	C 	0.4574	0.242	0.7017	-0.035
Mof_C 	C 	0.3963	0.2129	0.8461	0.291
Mof_O 	O 	0.3223	0.2329	0.815	-0.216
Mof_C 	C 	0.9574	0.742	0.2017	-0.069
Mof_C 	C 	0.8963	0.7129	0.3461	0.313
Mof_O 	O 	0.8223	0.7329	0.315	-0.22
Mof_C 	C 	0.5426	0.758	0.7017	-0.034
Mof_C 	C 	0.6037	0.7871	0.8461	0.291
Mof_O 	O 	0.6777	0.7671	0.815	-0.218
Mof_C 	C 	0.0426	0.258	0.2017	-0.054
Mof_C 	C 	0.1037	0.2871	0.3461	0.301
Mof_O 	O 	0.1777	0.2671	0.315	-0.217
Mof_C 	C 	0.758	0.5426	0.2983	-0.014
Mof_C 	C 	0.7871	0.6037	0.1539	0.284
Mof_O 	O 	0.7671	0.6777	0.185	-0.212
Mof_C 	C 	0.258	0.0426	0.7983	-0.018
Mof_C 	C 	0.2871	0.1037	0.6539	0.284
Mof_O 	O 	0.2671	0.1777	0.685	-0.213
Mof_C 	C 	0.242	0.4574	0.2983	-0.015
Mof_C 	C 	0.2129	0.3963	0.1539	0.284
Mof_O 	O 	0.2329	0.3223	0.185	-0.213
Mof_C 	C 	0.742	0.9574	0.7983	0.055
Mof_C 	C 	0.7129	0.8963	0.6539	0.256
Mof_O 	O 	0.7329	0.8223	0.685	-0.206
Mof_C 	C 	0.5426	0.242	0.2983	-0.015
Mof_C 	C 	0.6037	0.2129	0.1539	0.284
Mof_O 	O 	0.6777	0.2329	0.185	-0.212
Mof_C 	C 	0.0426	0.742	0.7983	0.027
Mof_C 	C 	0.1037	0.7129	0.6539	0.264
Mof_O 	O 	0.1777	0.7329	0.685	-0.208
Mof_C 	C 	0.4574	0.758	0.2983	-0.014
Mof_C 	C 	0.3963	0.7871	0.1539	0.284
Mof_O 	O 	0.3223	0.7671	0.185	-0.213
Mof_C 	C 	0.9574	0.258	0.7983	0.009
Mof_C 	C 	0.8963	0.2871	0.6539	0.277
Mof_O 	O 	0.8223	0.2671	0.685	-0.212
Mof_Cd	Cd	0.70763	0.29237	0.5	0.529
Mof_Cd	Cd	0.20763	0.79237	-0	0.532
Mof_Cd	Cd	0.29237	0.70763	0.5	0.529
Mof_Cd	Cd	0.79237	0.20763	-0	0.532
Mof_Cd	Cd	0.70763	0.70763	0.5	0.529
Mof_Cd	Cd	0.20763	0.20763	-0	0.531
Mof_Cd	Cd	0.29237	0.29237	0.5	0.529
Mof_Cd	Cd	0.79237	0.79237	-0	0.532
Mof_C 	C 	0.702	0.5	0.56	0.163
Mof_C 	C 	0.6598	0.5	0.754	-0.035
Mof_C 	C 	0.202	2.17409e-34	0.06	0.201
Mof_C 	C 	0.1598	0	0.254	-0.049
Mof_C 	C 	0.298	0.5	0.56	0.161
Mof_C 	C 	0.3402	0.5	0.754	-0.034
Mof_C 	C 	0.798	2.17409e-34	0.06	0.489
Mof_C 	C 	0.8402	0	0.254	-0.102
Mof_C 	C 	0.5	0.702	0.56	0.163
Mof_C 	C 	0.5	0.6598	0.754	-0.035
Mof_C 	C 	1.61784e-33	0.202	0.06	0.201
Mof_C 	C 	4.06316e-34	0.1598	0.254	-0.049
Mof_C 	C 	0.5	0.298	0.56	0.161
Mof_C 	C 	0.5	0.3402	0.754	-0.034
Mof_C 	C 	1.61784e-33	0.798	0.06	0.489
Mof_C 	C 	-8.29003e-33	0.8402	0.254	-0.102
Mof_C 	C 	0.298	0.5	0.44	0.036
Mof_C 	C 	0.3402	0.5	0.246	-0.008
Mof_C 	C 	0.798	0	0.94	-0.307
Mof_C 	C 	0.8402	3.47854e-33	0.746	0.056
Mof_C 	C 	0.702	0.5	0.44	0.033
Mof_C 	C 	0.6598	0.5	0.246	-0.007
Mof_C 	C 	0.202	0	0.94	-0.019
Mof_C 	C 	0.1598	3.47854e-33	0.746	-0.006
Mof_C 	C 	0.5	0.702	0.44	0.033
Mof_C 	C 	0.5	0.6598	0.246	-0.007
Mof_C 	C 	1.50369e-33	0.202	0.94	-0.019
Mof_C 	C 	1.19335e-33	0.1598	0.746	-0.006
Mof_C 	C 	0.5	0.298	0.44	0.036
Mof_C 	C 	0.5	0.3402	0.246	-0.008
Mof_C 	C 	-8.93193e-33	0.798	0.94	-0.307
Mof_C 	C 	1.19335e-33	0.8402	0.746	0.056
Mof_N 	N 	0.7235	0.4314	0.5	-0.156
Mof_N 	N 	0.2235	0.9314	-0	-0.151
Mof_N 	N 	0.2765	0.5686	0.5	-0.156
Mof_N 	N 	0.7765	0.0686	-0	-0.149
Mof_N 	N 	0.5686	0.7235	0.5	-0.156
Mof_N 	N 	0.0686	0.2235	-0	-0.15
Mof_N 	N 	0.4314	0.2765	0.5	-0.156
Mof_N 	N 	0.9314	0.7765	-0	-0.15
Mof_N 	N 	0.2765	0.4314	0.5	-0.156
Mof_N 	N 	0.7765	0.9314	-0	-0.15
Mof_N 	N 	0.7235	0.5686	0.5	-0.156
Mof_N 	N 	0.2235	0.0686	-0	-0.15
Mof_N 	N 	0.4314	0.7235	0.5	-0.156
Mof_N 	N 	0.9314	0.2235	-0	-0.151
Mof_N 	N 	0.5686	0.2765	0.5	-0.156
Mof_N 	N 	0.0686	0.7765	-0	-0.149
Mof_O 	O 	0.8263	0.4198	-0	-0.282
Mof_O 	O 	0.3263	0.9198	0.5	-0.28
Mof_O 	O 	0.1737	0.5802	-0	-0.285
Mof_O 	O 	0.6737	0.0802	0.5	-0.292
Mof_O 	O 	0.5802	0.8263	-0	-0.282
Mof_O 	O 	0.0802	0.3263	0.5	-0.292
Mof_O 	O 	0.4198	0.1737	-0	-0.285
Mof_O 	O 	0.9198	0.6737	0.5	-0.28
Mof_O 	O 	0.1737	0.4198	-0	-0.285
Mof_O 	O 	0.6737	0.9198	0.5	-0.28
Mof_O 	O 	0.8263	0.5802	-0	-0.282
Mof_O 	O 	0.3263	0.0802	0.5	-0.292
Mof_O 	O 	0.4198	0.8263	-0	-0.282
Mof_O 	O 	0.9198	0.3263	0.5	-0.28
Mof_O 	O 	0.5802	0.1737	-0	-0.285
Mof_O 	O 	0.0802	0.6737	0.5	-0.292
_end
