data_functionalizedCrystal
_audit_creation_method	'EQeq! by Chris Wilmer'
_symmetry_space_group_name_H-M	'P1'
_symmetry_Int_Tables_number	1
_symmetry_cell_setting	triclinic
loop_
_symmetry_equiv_pos_as_xyz
  x,y,z
_cell_length_a	8.3734
_cell_length_b	10.574
_cell_length_c	14.3077
_cell_angle_alpha	101.478
_cell_angle_beta	103.12
_cell_angle_gamma	102.247
loop_
_atom_site_label
_atom_site_type_symbol
_atom_site_fract_x
_atom_site_fract_y
_atom_site_fract_z
_atom_site_charge
Mof_Y 	Y 	0.65664	0.66015	0.17072	1.489
Mof_O 	O 	0.5778	0.8286	0.2619	-0.388
Mof_O 	O 	0.7285	0.0021	0.3917	-0.228
Mof_O 	O 	0.6543	0.4494	0.09558	-0.459
Mof_O 	O 	0.4644	0.2847	0.97256	-0.447
Mof_O 	O 	0.8656	0.8643	0.1933	-0.337
Mof_O 	O 	0.8816	0.6931	0.08238	-0.319
Mof_O 	O 	0.9088	0.647	0.28734	-0.336
Mof_O 	O 	0.6659	0.5751	0.31856	-0.352
Mof_C 	C 	0.6253	0.0502	0.2382	-0.041
Mof_C 	C 	0.4987	0.012	0.1484	-0.044
Mof_H 	H 	0.4272	0.9253	0.1263	0.058
Mof_C 	C 	0.4784	0.1028	0.0915	0.014
Mof_H 	H 	0.3914	0.0764	0.0323	0.039
Mof_C 	C 	0.5858	0.2323	0.1213	-0.122
Mof_C 	C 	0.7146	0.27	0.2113	0.021
Mof_H 	H 	0.7893	0.3554	0.2321	0.036
Mof_C 	C 	0.7315	0.1808	0.2699	-0.052
Mof_H 	H 	0.8143	0.2083	0.3308	0.074
Mof_C 	C 	0.6485	0.9548	0.3028	0.337
Mof_C 	C 	0.5663	0.3301	0.0585	0.426
Mof_C 	C 	0.9616	0.9129	0.0573	-0.041
Mof_C 	C 	0.0307	0.8746	0.9809	-0.029
Mof_H 	H 	0.0515	0.7907	0.9679	0.057
Mof_C 	C 	0.9312	0.0388	0.0762	-0.03
Mof_H 	H 	0.8848	0.0646	0.1278	0.061
Mof_C 	C 	0.9043	0.8178	0.1152	0.279
Mof_C 	C 	0.9154	0.5437	0.4218	-0.048
Mof_C 	C 	0.0903	0.559	0.4432	-0.024
Mof_H 	H 	0.1515	0.5989	0.4051	0.066
Mof_C 	C 	0.8265	0.4841	0.4799	-0.024
Mof_H 	H 	0.7097	0.4733	0.4666	0.063
Mof_C 	C 	0.8264	0.5917	0.3385	0.296
Mof_Y 	Y 	0.34336	0.33985	0.82928	1.49
Mof_O 	O 	0.4222	0.1714	0.7381	-0.387
Mof_O 	O 	0.2715	0.9979	0.6083	-0.227
Mof_O 	O 	0.3457	0.5506	0.90442	-0.458
Mof_O 	O 	0.5356	0.7153	0.02744	-0.446
Mof_O 	O 	0.1344	0.1357	0.8067	-0.336
Mof_O 	O 	0.1184	0.3069	0.91762	-0.318
Mof_O 	O 	0.0912	0.353	0.71266	-0.335
Mof_O 	O 	0.3341	0.4249	0.68144	-0.351
Mof_C 	C 	0.3747	0.9498	0.7618	-0.04
Mof_C 	C 	0.5013	0.988	0.8516	-0.044
Mof_H 	H 	0.5728	0.0747	0.8737	0.058
Mof_C 	C 	0.5216	0.8972	0.9085	0.014
Mof_H 	H 	0.6086	0.9236	0.9677	0.039
Mof_C 	C 	0.4142	0.7677	0.8787	-0.122
Mof_C 	C 	0.2854	0.73	0.7887	0.021
Mof_H 	H 	0.2107	0.6446	0.7679	0.036
Mof_C 	C 	0.2685	0.8192	0.7301	-0.052
Mof_H 	H 	0.1857	0.7917	0.6692	0.074
Mof_C 	C 	0.3515	0.0452	0.6972	0.337
Mof_C 	C 	0.4337	0.6699	0.9415	0.426
Mof_C 	C 	0.0384	0.0871	0.9427	-0.041
Mof_C 	C 	0.9693	0.1254	0.0191	-0.029
Mof_H 	H 	0.9485	0.2093	0.0321	0.057
Mof_C 	C 	0.0688	0.9612	0.9238	-0.03
Mof_H 	H 	0.1152	0.9354	0.8722	0.061
Mof_C 	C 	0.0957	0.1822	0.8848	0.279
Mof_C 	C 	0.0846	0.4563	0.5782	-0.048
Mof_C 	C 	0.9097	0.441	0.5568	-0.024
Mof_H 	H 	0.8485	0.4011	0.5949	0.066
Mof_C 	C 	0.1735	0.5159	0.5201	-0.024
Mof_H 	H 	0.2903	0.5267	0.5334	0.063
Mof_C 	C 	0.1736	0.4083	0.6615	0.296
_end
