data_functionalizedCrystal
_audit_creation_method	'EQeq! by Chris Wilmer'
_symmetry_space_group_name_H-M	'P1'
_symmetry_Int_Tables_number	1
_symmetry_cell_setting	triclinic
loop_
_symmetry_equiv_pos_as_xyz
  x,y,z
_cell_length_a	49.59
_cell_length_b	49.59
_cell_length_c	9.9168
_cell_angle_alpha	90
_cell_angle_beta	90
_cell_angle_gamma	120
loop_
_atom_site_label
_atom_site_type_symbol
_atom_site_fract_x
_atom_site_fract_y
_atom_site_fract_z
_atom_site_charge
Mof_In	In	0.20666	0.79351	0.49976	2.325
Mof_In	In	0.16499	0.58257	0.5006	1.665
Mof_Ni	Ni	0.06598	0.82059	0.1776	1.023
Mof_Ni	Ni	0.06543	0.82072	0.8226	1.006
Mof_O 	O 	0.1872	0.8155	0.6389	-0.43
Mof_O 	O 	0.2109	0.7907	0.7516	-0.402
Mof_O 	O 	0.2098	0.7899	0.2541	-0.487
Mof_O 	O 	0.1551	0.5762	0.725	-0.354
Mof_O 	O 	0.1861	0.8143	0.3608	-0.442
Mof_O 	O 	0.1227	0.5876	0.4981	-0.437
Mof_O 	O 	0.4117	0.8777	0.4945	-0.457
Mof_O 	O 	0.197	0.7439	0.4967	-0.468
Mof_O 	O 	0.2455	0.8448	0.501	-0.427
Mof_O 	O 	0.1558	0.7553	0.4976	-0.425
Mof_O 	O 	0.2569	0.8051	0.4986	-0.479
Mof_O 	O 	0.3778	0.9663	0.4958	-0.604
Mof_O 	O 	0.3683	0.8329	0.4983	-0.364
Mof_O 	O 	0.3321	0.9488	0.5077	-0.622
Mof_O 	O 	0.2116	0.6045	0.661	-0.354
Mof_O 	O 	0.0594	0.8356	0.011	-0.532
Mof_O 	O 	0.1049	0.8243	0.908	-0.433
Mof_O 	O 	0.105	0.8245	0.087	-0.412
Mof_C 	C 	0.188	0.593	0.72	0.093
Mof_C 	C 	0.1352	0.6476	0.501	-0.118
Mof_C 	C 	0.3412	0.9083	0.496	-0.182
Mof_C 	C 	0.1446	0.6998	0.499	-0.065
Mof_C 	C 	0.1975	0.8004	0.255	0.316
Mof_C 	C 	0.1969	0.8018	0.742	0.218
Mof_C 	C 	0.3006	0.8563	0.499	-0.086
Mof_C 	C 	0.0907	0.6571	0.501	-0.086
Mof_C 	C 	0.3599	0.8944	0.504	0.094
Mof_C 	C 	0.3542	0.8645	0.502	-0.14
Mof_C 	C 	0.1024	0.6378	0.499	0.067
Mof_C 	C 	0.3541	0.9459	0.4976	0.585
Mof_C 	C 	0.3241	0.8442	0.5035	0.103
Mof_C 	C 	0.1561	0.678	0.4982	0.039
Mof_C 	C 	0.1279	0.6126	0.495	0.156
Mof_C 	C 	0.169	0.7345	0.499	0.201
Mof_C 	C 	0.3866	0.8713	0.498	0.329
Mof_C 	C 	0.2642	0.8321	0.4976	0.246
Mof_C 	C 	0.3133	0.8897	0.494	0.138
Mof_C 	C 	0.1115	0.6861	0.502	0.084
Mof_C 	C 	0.1939	0.8068	0.996	0.06
Mof_C 	C 	0.1885	0.8167	0.867	-0.049
Mof_C 	C 	0.1867	0.814	0.128	-0.079
Mof_C 	C 	0.155	0.8074	0.109	0.06
Mof_C 	C 	0.1902	0.8446	0.114	0.036
Mof_C 	C 	0.1579	0.8138	0.873	0.054
Mof_C 	C 	0.1904	0.8468	0.878	0.027
Mof_C 	C 	0.1264	0.8338	0.991	0.358
Mof_C 	C 	0.1462	0.82	0.996	-0.136
Mof_C 	C 	0.185	0.8597	-0	-0.035
Mof_In	In	0.20649	0.41315	0.49976	2.324
Mof_In	In	0.41743	0.58242	0.5006	1.664
Mof_Ni	Ni	0.17941	0.24539	0.1776	1.022
Mof_Ni	Ni	0.17928	0.24471	0.8226	1.005
Mof_O 	O 	0.1845	0.3717	0.6389	-0.431
Mof_O 	O 	0.2093	0.4202	0.7516	-0.403
Mof_O 	O 	0.2101	0.4199	0.2541	-0.488
Mof_O 	O 	0.4238	0.5789	0.725	-0.355
Mof_O 	O 	0.1857	0.3718	0.3608	-0.443
Mof_O 	O 	0.4124	0.5351	0.4981	-0.437
Mof_O 	O 	0.1223	0.534	0.4945	-0.457
Mof_O 	O 	0.2561	0.4531	0.4967	-0.468
Mof_O 	O 	0.1552	0.4007	0.501	-0.427
Mof_O 	O 	0.2447	0.4005	0.4976	-0.425
Mof_O 	O 	0.1949	0.4518	0.4986	-0.479
Mof_O 	O 	0.0337	0.4115	0.4958	-0.604
Mof_O 	O 	0.1671	0.5354	0.4983	-0.364
Mof_O 	O 	0.0512	0.3833	0.5077	-0.622
Mof_O 	O 	0.3955	0.6071	0.661	-0.354
Mof_O 	O 	0.1644	0.2238	0.011	-0.532
Mof_O 	O 	0.1757	0.2806	0.908	-0.433
Mof_O 	O 	0.1755	0.2805	0.087	-0.412
Mof_C 	C 	0.407	0.595	0.72	0.093
Mof_C 	C 	0.3524	0.4876	0.501	-0.118
Mof_C 	C 	0.0917	0.4329	0.496	-0.182
Mof_C 	C 	0.3002	0.4448	0.499	-0.065
Mof_C 	C 	0.1996	0.3971	0.255	0.316
Mof_C 	C 	0.1982	0.3951	0.742	0.218
Mof_C 	C 	0.1437	0.4443	0.499	-0.086
Mof_C 	C 	0.3429	0.4336	0.501	-0.086
Mof_C 	C 	0.1056	0.4655	0.504	0.094
Mof_C 	C 	0.1355	0.4897	0.502	-0.14
Mof_C 	C 	0.3622	0.4646	0.499	0.067
Mof_C 	C 	0.0541	0.4082	0.4976	0.585
Mof_C 	C 	0.1558	0.4799	0.5035	0.103
Mof_C 	C 	0.322	0.4781	0.4982	0.039
Mof_C 	C 	0.3874	0.5153	0.495	0.156
Mof_C 	C 	0.2655	0.4345	0.499	0.201
Mof_C 	C 	0.1287	0.5153	0.498	0.329
Mof_C 	C 	0.1679	0.4321	0.4976	0.246
Mof_C 	C 	0.1103	0.4236	0.494	0.138
Mof_C 	C 	0.3139	0.4254	0.502	0.084
Mof_C 	C 	0.1932	0.3871	0.996	0.06
Mof_C 	C 	0.1833	0.3718	0.867	-0.049
Mof_C 	C 	0.186	0.3727	0.128	-0.079
Mof_C 	C 	0.1926	0.3476	0.109	0.06
Mof_C 	C 	0.1554	0.3456	0.114	0.036
Mof_C 	C 	0.1862	0.3441	0.873	0.054
Mof_C 	C 	0.1532	0.3436	0.878	0.027
Mof_C 	C 	0.1662	0.2926	0.991	0.358
Mof_C 	C 	0.18	0.3262	0.996	-0.136
Mof_C 	C 	0.1403	0.3253	-0	-0.035
Mof_In	In	0.58685	0.79334	0.49976	2.324
Mof_In	In	0.41758	0.83501	0.5006	1.664
Mof_Ni	Ni	0.75461	0.93402	0.1776	1.022
Mof_Ni	Ni	0.75529	0.93457	0.8226	1.005
Mof_O 	O 	0.6283	0.8128	0.6389	-0.431
Mof_O 	O 	0.5798	0.7891	0.7516	-0.403
Mof_O 	O 	0.5801	0.7902	0.2541	-0.488
Mof_O 	O 	0.4211	0.8449	0.725	-0.355
Mof_O 	O 	0.6282	0.8139	0.3608	-0.443
Mof_O 	O 	0.4649	0.8773	0.4981	-0.437
Mof_O 	O 	0.466	0.5883	0.4945	-0.457
Mof_O 	O 	0.5469	0.803	0.4967	-0.468
Mof_O 	O 	0.5993	0.7545	0.501	-0.427
Mof_O 	O 	0.5995	0.8442	0.4976	-0.425
Mof_O 	O 	0.5482	0.7431	0.4986	-0.479
Mof_O 	O 	0.5885	0.6222	0.4958	-0.604
Mof_O 	O 	0.4646	0.6317	0.4983	-0.364
Mof_O 	O 	0.6167	0.6679	0.5077	-0.622
Mof_O 	O 	0.3929	0.7884	0.661	-0.354
Mof_O 	O 	0.7762	0.9406	0.011	-0.532
Mof_O 	O 	0.7194	0.8951	0.908	-0.433
Mof_O 	O 	0.7195	0.895	0.087	-0.412
Mof_C 	C 	0.405	0.812	0.72	0.093
Mof_C 	C 	0.5124	0.8648	0.501	-0.118
Mof_C 	C 	0.5671	0.6588	0.496	-0.182
Mof_C 	C 	0.5552	0.8554	0.499	-0.065
Mof_C 	C 	0.6029	0.8025	0.255	0.316
Mof_C 	C 	0.6049	0.8031	0.742	0.218
Mof_C 	C 	0.5557	0.6994	0.499	-0.086
Mof_C 	C 	0.5664	0.9093	0.501	-0.086
Mof_C 	C 	0.5345	0.6401	0.504	0.094
Mof_C 	C 	0.5103	0.6458	0.502	-0.14
Mof_C 	C 	0.5354	0.8976	0.499	0.067
Mof_C 	C 	0.5918	0.6459	0.4976	0.585
Mof_C 	C 	0.5201	0.6759	0.5035	0.103
Mof_C 	C 	0.5219	0.8439	0.4982	0.039
Mof_C 	C 	0.4847	0.8721	0.495	0.156
Mof_C 	C 	0.5655	0.831	0.499	0.201
Mof_C 	C 	0.4847	0.6134	0.498	0.329
Mof_C 	C 	0.5679	0.7358	0.4976	0.246
Mof_C 	C 	0.5764	0.6867	0.494	0.138
Mof_C 	C 	0.5746	0.8885	0.502	0.084
Mof_C 	C 	0.6129	0.8061	0.996	0.06
Mof_C 	C 	0.6282	0.8115	0.867	-0.049
Mof_C 	C 	0.6273	0.8133	0.128	-0.079
Mof_C 	C 	0.6524	0.845	0.109	0.06
Mof_C 	C 	0.6544	0.8098	0.114	0.036
Mof_C 	C 	0.6559	0.8421	0.873	0.054
Mof_C 	C 	0.6564	0.8096	0.878	0.027
Mof_C 	C 	0.7074	0.8736	0.991	0.358
Mof_C 	C 	0.6738	0.8538	0.996	-0.136
Mof_C 	C 	0.6747	0.815	-0	-0.035
Mof_In	In	0.99995	0.35912	0.4999	2.481
Mof_O 	O 	0.0007	0.3663	0.7372	-0.428
Mof_O 	O 	0.9999	0.3244	0.6456	-0.492
Mof_O 	O 	0.0004	0.365	0.2606	-0.435
Mof_O 	O 	0.9662	0.3792	0.5023	-0.483
Mof_O 	O 	0.948	0.3296	0.502	-0.551
Mof_O 	O 	0.9991	0.323	0.3555	-0.482
Mof_O 	O 	0.9624	0.2272	0.901	-0.605
Mof_O 	O 	0.9628	0.2283	0.097	-0.492
Mof_O 	O 	0.0362	0.2641	0.097	-0.259
Mof_O 	O 	0.0368	0.2639	0.904	-0.248
Mof_C 	C 	0.9998	0.3398	0.745	0.28
Mof_C 	C 	0.9473	0.3526	0.5027	0.369
Mof_C 	C 	0.9985	0.3388	0.259	0.275
Mof_C 	C 	0.9995	0.3424	-0	0.092
Mof_C 	C 	0.0239	0.3414	0.903	0.011
Mof_C 	C 	0.9941	0.324	0.891	-0.085
Mof_C 	C 	0.0168	0.3061	0.863	0.034
Mof_C 	C 	0.9865	0.2907	0.878	0.069
Mof_C 	C 	0.0216	0.3431	0.09	0.002
Mof_C 	C 	0.9928	0.3258	0.107	-0.084
Mof_C 	C 	0.9839	0.2913	0.126	0.079
Mof_C 	C 	0.0189	0.3102	0.124	0.036
Mof_C 	C 	0.038	0.2798	0.002	0.335
Mof_C 	C 	0.9599	0.2371	0.986	0.672
Mof_C 	C 	0.0302	0.3054	0.998	-0.095
Mof_C 	C 	0.9662	0.2718	0.004	-0.166
Mof_In	In	0.64088	0.64083	0.4999	2.481
Mof_O 	O 	0.6337	0.6344	0.7372	-0.428
Mof_O 	O 	0.6756	0.6755	0.6456	-0.492
Mof_O 	O 	0.635	0.6354	0.2606	-0.435
Mof_O 	O 	0.6208	0.587	0.5023	-0.483
Mof_O 	O 	0.6704	0.6184	0.502	-0.551
Mof_O 	O 	0.677	0.6761	0.3555	-0.482
Mof_O 	O 	0.7728	0.7352	0.901	-0.605
Mof_O 	O 	0.7717	0.7345	0.097	-0.492
Mof_O 	O 	0.7359	0.7721	0.097	-0.259
Mof_O 	O 	0.7361	0.7729	0.904	-0.248
Mof_C 	C 	0.6602	0.66	0.745	0.28
Mof_C 	C 	0.6474	0.5947	0.5027	0.369
Mof_C 	C 	0.6612	0.6597	0.259	0.275
Mof_C 	C 	0.6576	0.6571	-0	0.092
Mof_C 	C 	0.6586	0.6825	0.903	0.011
Mof_C 	C 	0.676	0.6701	0.891	-0.085
Mof_C 	C 	0.6939	0.7107	0.863	0.034
Mof_C 	C 	0.7093	0.6958	0.878	0.069
Mof_C 	C 	0.6569	0.6785	0.09	0.002
Mof_C 	C 	0.6742	0.667	0.107	-0.084
Mof_C 	C 	0.7087	0.6926	0.126	0.079
Mof_C 	C 	0.6898	0.7087	0.124	0.036
Mof_C 	C 	0.7202	0.7582	0.002	0.335
Mof_C 	C 	0.7629	0.7228	0.986	0.672
Mof_C 	C 	0.6946	0.7248	0.998	-0.095
Mof_C 	C 	0.7282	0.6944	0.004	-0.166
Mof_In	In	0.35917	5e-05	0.4999	2.481
Mof_O 	O 	0.3656	0.9993	0.7372	-0.428
Mof_O 	O 	0.3245	0.0001	0.6456	-0.492
Mof_O 	O 	0.3646	0.9996	0.2606	-0.435
Mof_O 	O 	0.413	0.0338	0.5023	-0.483
Mof_O 	O 	0.3816	0.052	0.502	-0.551
Mof_O 	O 	0.3239	0.0009	0.3555	-0.482
Mof_O 	O 	0.2648	0.0376	0.901	-0.605
Mof_O 	O 	0.2655	0.0372	0.097	-0.492
Mof_O 	O 	0.2279	0.9638	0.097	-0.259
Mof_O 	O 	0.2271	0.9632	0.904	-0.248
Mof_C 	C 	0.34	0.0002	0.745	0.28
Mof_C 	C 	0.4053	0.0527	0.5027	0.369
Mof_C 	C 	0.3403	0.0015	0.259	0.275
Mof_C 	C 	0.3429	0.0005	-0	0.092
Mof_C 	C 	0.3175	0.9761	0.903	0.011
Mof_C 	C 	0.3299	0.0059	0.891	-0.085
Mof_C 	C 	0.2893	0.9832	0.863	0.034
Mof_C 	C 	0.3042	0.0135	0.878	0.069
Mof_C 	C 	0.3215	0.9784	0.09	0.002
Mof_C 	C 	0.333	0.0072	0.107	-0.084
Mof_C 	C 	0.3074	0.0161	0.126	0.079
Mof_C 	C 	0.2913	0.9811	0.124	0.036
Mof_C 	C 	0.2418	0.962	0.002	0.335
Mof_C 	C 	0.2772	0.0401	0.986	0.672
Mof_C 	C 	0.2752	0.9698	0.998	-0.095
Mof_C 	C 	0.3056	0.0338	0.004	-0.166
Mof_In	In	5e-05	0.64088	0.5001	2.481
Mof_O 	O 	0.9993	0.6337	0.2628	-0.428
Mof_O 	O 	0.0001	0.6756	0.3544	-0.492
Mof_O 	O 	0.9996	0.635	0.7394	-0.435
Mof_O 	O 	0.0338	0.6208	0.4977	-0.483
Mof_O 	O 	0.052	0.6704	0.498	-0.551
Mof_O 	O 	0.0009	0.677	0.6445	-0.482
Mof_O 	O 	0.0376	0.7728	0.099	-0.602
Mof_O 	O 	0.0372	0.7717	0.903	-0.487
Mof_O 	O 	0.9638	0.7359	0.903	-0.261
Mof_O 	O 	0.9632	0.7361	0.096	-0.252
Mof_C 	C 	0.0002	0.6602	0.255	0.28
Mof_C 	C 	0.0527	0.6474	0.4973	0.369
Mof_C 	C 	0.0015	0.6612	0.741	0.274
Mof_C 	C 	0.0005	0.6576	-0	0.091
Mof_C 	C 	0.9761	0.6586	0.097	0.009
Mof_C 	C 	0.0059	0.676	0.109	-0.085
Mof_C 	C 	0.9832	0.6939	0.137	0.037
Mof_C 	C 	0.0135	0.7093	0.122	0.064
Mof_C 	C 	0.9784	0.6569	0.91	0.003
Mof_C 	C 	0.0072	0.6742	0.893	-0.082
Mof_C 	C 	0.0161	0.7087	0.874	0.077
Mof_C 	C 	0.9811	0.6898	0.876	0.04
Mof_C 	C 	0.962	0.7202	0.998	0.344
Mof_C 	C 	0.0401	0.7629	0.014	0.663
Mof_C 	C 	0.9698	0.6946	0.002	-0.104
Mof_C 	C 	0.0338	0.7282	0.996	-0.159
Mof_In	In	0.35912	0.35917	0.5001	2.481
Mof_O 	O 	0.3663	0.3656	0.2628	-0.428
Mof_O 	O 	0.3244	0.3245	0.3544	-0.492
Mof_O 	O 	0.365	0.3646	0.7394	-0.435
Mof_O 	O 	0.3792	0.413	0.4977	-0.483
Mof_O 	O 	0.3296	0.3816	0.498	-0.551
Mof_O 	O 	0.323	0.3239	0.6445	-0.482
Mof_O 	O 	0.2272	0.2648	0.099	-0.602
Mof_O 	O 	0.2283	0.2655	0.903	-0.487
Mof_O 	O 	0.2641	0.2279	0.903	-0.261
Mof_O 	O 	0.2639	0.2271	0.096	-0.252
Mof_C 	C 	0.3398	0.34	0.255	0.281
Mof_C 	C 	0.3526	0.4053	0.4973	0.369
Mof_C 	C 	0.3388	0.3403	0.741	0.274
Mof_C 	C 	0.3424	0.3429	-0	0.091
Mof_C 	C 	0.3414	0.3175	0.097	0.009
Mof_C 	C 	0.324	0.3299	0.109	-0.085
Mof_C 	C 	0.3061	0.2893	0.137	0.037
Mof_C 	C 	0.2907	0.3042	0.122	0.064
Mof_C 	C 	0.3431	0.3215	0.91	0.003
Mof_C 	C 	0.3258	0.333	0.893	-0.083
Mof_C 	C 	0.2913	0.3074	0.874	0.077
Mof_C 	C 	0.3102	0.2913	0.876	0.04
Mof_C 	C 	0.2798	0.2418	0.998	0.344
Mof_C 	C 	0.2371	0.2772	0.014	0.663
Mof_C 	C 	0.3054	0.2752	0.002	-0.104
Mof_C 	C 	0.2718	0.3056	0.996	-0.159
Mof_In	In	0.64083	0.99995	0.5001	2.481
Mof_O 	O 	0.6344	0.0007	0.2628	-0.428
Mof_O 	O 	0.6755	0.9999	0.3544	-0.492
Mof_O 	O 	0.6354	0.0004	0.7394	-0.435
Mof_O 	O 	0.587	0.9662	0.4977	-0.483
Mof_O 	O 	0.6184	0.948	0.498	-0.551
Mof_O 	O 	0.6761	0.9991	0.6445	-0.482
Mof_O 	O 	0.7352	0.9624	0.099	-0.602
Mof_O 	O 	0.7345	0.9628	0.903	-0.487
Mof_O 	O 	0.7721	0.0362	0.903	-0.261
Mof_O 	O 	0.7729	0.0368	0.096	-0.252
Mof_C 	C 	0.66	0.9998	0.255	0.28
Mof_C 	C 	0.5947	0.9473	0.4973	0.369
Mof_C 	C 	0.6597	0.9985	0.741	0.274
Mof_C 	C 	0.6571	0.9995	-0	0.091
Mof_C 	C 	0.6825	0.0239	0.097	0.009
Mof_C 	C 	0.6701	0.9941	0.109	-0.085
Mof_C 	C 	0.7107	0.0168	0.137	0.037
Mof_C 	C 	0.6958	0.9865	0.122	0.064
Mof_C 	C 	0.6785	0.0216	0.91	0.003
Mof_C 	C 	0.667	0.9928	0.893	-0.082
Mof_C 	C 	0.6926	0.9839	0.874	0.077
Mof_C 	C 	0.7087	0.0189	0.876	0.04
Mof_C 	C 	0.7582	0.038	0.998	0.344
Mof_C 	C 	0.7228	0.9599	0.014	0.663
Mof_C 	C 	0.7248	0.0302	0.002	-0.104
Mof_C 	C 	0.6944	0.9662	0.996	-0.159
Mof_In	In	0.79334	0.20649	0.50024	2.324
Mof_In	In	0.83501	0.41743	0.4994	1.665
Mof_Ni	Ni	0.93402	0.17941	0.8224	1.022
Mof_Ni	Ni	0.93457	0.17928	0.1774	1.004
Mof_O 	O 	0.8128	0.1845	0.3611	-0.431
Mof_O 	O 	0.7891	0.2093	0.2484	-0.403
Mof_O 	O 	0.7902	0.2101	0.7459	-0.487
Mof_O 	O 	0.8449	0.4238	0.275	-0.355
Mof_O 	O 	0.8139	0.1857	0.6392	-0.443
Mof_O 	O 	0.8773	0.4124	0.5019	-0.437
Mof_O 	O 	0.5883	0.1223	0.5055	-0.457
Mof_O 	O 	0.803	0.2561	0.5033	-0.468
Mof_O 	O 	0.7545	0.1552	0.499	-0.427
Mof_O 	O 	0.8442	0.2447	0.5024	-0.425
Mof_O 	O 	0.7431	0.1949	0.5014	-0.479
Mof_O 	O 	0.6222	0.0337	0.5042	-0.604
Mof_O 	O 	0.6317	0.1671	0.5017	-0.364
Mof_O 	O 	0.6679	0.0512	0.4923	-0.622
Mof_O 	O 	0.7884	0.3955	0.339	-0.355
Mof_O 	O 	0.9406	0.1644	0.989	-0.531
Mof_O 	O 	0.8951	0.1757	0.092	-0.433
Mof_O 	O 	0.895	0.1755	0.913	-0.409
Mof_C 	C 	0.812	0.407	0.28	0.092
Mof_C 	C 	0.8648	0.3524	0.499	-0.118
Mof_C 	C 	0.6588	0.0917	0.504	-0.182
Mof_C 	C 	0.8554	0.3002	0.501	-0.065
Mof_C 	C 	0.8025	0.1996	0.745	0.316
Mof_C 	C 	0.8031	0.1982	0.258	0.217
Mof_C 	C 	0.6994	0.1437	0.501	-0.086
Mof_C 	C 	0.9093	0.3429	0.499	-0.086
Mof_C 	C 	0.6401	0.1056	0.496	0.094
Mof_C 	C 	0.6458	0.1355	0.498	-0.14
Mof_C 	C 	0.8976	0.3622	0.501	0.067
Mof_C 	C 	0.6459	0.0541	0.5024	0.585
Mof_C 	C 	0.6759	0.1558	0.4965	0.103
Mof_C 	C 	0.8439	0.322	0.5018	0.039
Mof_C 	C 	0.8721	0.3874	0.505	0.156
Mof_C 	C 	0.831	0.2655	0.501	0.201
Mof_C 	C 	0.6134	0.1287	0.502	0.329
Mof_C 	C 	0.7358	0.1679	0.5024	0.246
Mof_C 	C 	0.6867	0.1103	0.506	0.138
Mof_C 	C 	0.8885	0.3139	0.498	0.084
Mof_C 	C 	0.8061	0.1932	0.004	0.056
Mof_C 	C 	0.8115	0.1833	0.133	-0.048
Mof_C 	C 	0.8133	0.186	0.872	-0.077
Mof_C 	C 	0.845	0.1926	0.891	0.063
Mof_C 	C 	0.8098	0.1554	0.886	0.036
Mof_C 	C 	0.8421	0.1862	0.127	0.054
Mof_C 	C 	0.8096	0.1532	0.122	0.024
Mof_C 	C 	0.8736	0.1662	0.009	0.356
Mof_C 	C 	0.8538	0.18	0.004	-0.139
Mof_C 	C 	0.815	0.1403	-0	-0.031
Mof_In	In	0.79351	0.58685	0.50024	2.324
Mof_In	In	0.58257	0.41758	0.4994	1.665
Mof_Ni	Ni	0.82059	0.75461	0.8224	1.022
Mof_Ni	Ni	0.82072	0.75529	0.1774	1.004
Mof_O 	O 	0.8155	0.6283	0.3611	-0.431
Mof_O 	O 	0.7907	0.5798	0.2484	-0.403
Mof_O 	O 	0.7899	0.5801	0.7459	-0.487
Mof_O 	O 	0.5762	0.4211	0.275	-0.355
Mof_O 	O 	0.8143	0.6282	0.6392	-0.443
Mof_O 	O 	0.5876	0.4649	0.5019	-0.437
Mof_O 	O 	0.8777	0.466	0.5055	-0.457
Mof_O 	O 	0.7439	0.5469	0.5033	-0.468
Mof_O 	O 	0.8448	0.5993	0.499	-0.427
Mof_O 	O 	0.7553	0.5995	0.5024	-0.425
Mof_O 	O 	0.8051	0.5482	0.5014	-0.479
Mof_O 	O 	0.9663	0.5885	0.5042	-0.604
Mof_O 	O 	0.8329	0.4646	0.5017	-0.364
Mof_O 	O 	0.9488	0.6167	0.4923	-0.622
Mof_O 	O 	0.6045	0.3929	0.339	-0.355
Mof_O 	O 	0.8356	0.7762	0.989	-0.531
Mof_O 	O 	0.8243	0.7194	0.092	-0.433
Mof_O 	O 	0.8245	0.7195	0.913	-0.409
Mof_C 	C 	0.593	0.405	0.28	0.092
Mof_C 	C 	0.6476	0.5124	0.499	-0.118
Mof_C 	C 	0.9083	0.5671	0.504	-0.182
Mof_C 	C 	0.6998	0.5552	0.501	-0.065
Mof_C 	C 	0.8004	0.6029	0.745	0.316
Mof_C 	C 	0.8018	0.6049	0.258	0.217
Mof_C 	C 	0.8563	0.5557	0.501	-0.086
Mof_C 	C 	0.6571	0.5664	0.499	-0.086
Mof_C 	C 	0.8944	0.5345	0.496	0.094
Mof_C 	C 	0.8645	0.5103	0.498	-0.14
Mof_C 	C 	0.6378	0.5354	0.501	0.067
Mof_C 	C 	0.9459	0.5918	0.5024	0.585
Mof_C 	C 	0.8442	0.5201	0.4965	0.103
Mof_C 	C 	0.678	0.5219	0.5018	0.039
Mof_C 	C 	0.6126	0.4847	0.505	0.156
Mof_C 	C 	0.7345	0.5655	0.501	0.201
Mof_C 	C 	0.8713	0.4847	0.502	0.329
Mof_C 	C 	0.8321	0.5679	0.5024	0.246
Mof_C 	C 	0.8897	0.5764	0.506	0.138
Mof_C 	C 	0.6861	0.5746	0.498	0.084
Mof_C 	C 	0.8068	0.6129	0.004	0.056
Mof_C 	C 	0.8167	0.6282	0.133	-0.048
Mof_C 	C 	0.814	0.6273	0.872	-0.077
Mof_C 	C 	0.8074	0.6524	0.891	0.063
Mof_C 	C 	0.8446	0.6544	0.886	0.036
Mof_C 	C 	0.8138	0.6559	0.127	0.054
Mof_C 	C 	0.8468	0.6564	0.122	0.024
Mof_C 	C 	0.8338	0.7074	0.009	0.356
Mof_C 	C 	0.82	0.6738	0.004	-0.139
Mof_C 	C 	0.8597	0.6747	-0	-0.031
Mof_In	In	0.41315	0.20666	0.50024	2.324
Mof_In	In	0.58242	0.16499	0.4994	1.665
Mof_Ni	Ni	0.24539	0.06598	0.8224	1.022
Mof_Ni	Ni	0.24471	0.06543	0.1774	1.004
Mof_O 	O 	0.3717	0.1872	0.3611	-0.431
Mof_O 	O 	0.4202	0.2109	0.2484	-0.403
Mof_O 	O 	0.4199	0.2098	0.7459	-0.487
Mof_O 	O 	0.5789	0.1551	0.275	-0.355
Mof_O 	O 	0.3718	0.1861	0.6392	-0.443
Mof_O 	O 	0.5351	0.1227	0.5019	-0.437
Mof_O 	O 	0.534	0.4117	0.5055	-0.457
Mof_O 	O 	0.4531	0.197	0.5033	-0.468
Mof_O 	O 	0.4007	0.2455	0.499	-0.427
Mof_O 	O 	0.4005	0.1558	0.5024	-0.425
Mof_O 	O 	0.4518	0.2569	0.5014	-0.479
Mof_O 	O 	0.4115	0.3778	0.5042	-0.604
Mof_O 	O 	0.5354	0.3683	0.5017	-0.364
Mof_O 	O 	0.3833	0.3321	0.4923	-0.622
Mof_O 	O 	0.6071	0.2116	0.339	-0.355
Mof_O 	O 	0.2238	0.0594	0.989	-0.531
Mof_O 	O 	0.2806	0.1049	0.092	-0.433
Mof_O 	O 	0.2805	0.105	0.913	-0.409
Mof_C 	C 	0.595	0.188	0.28	0.092
Mof_C 	C 	0.4876	0.1352	0.499	-0.118
Mof_C 	C 	0.4329	0.3412	0.504	-0.182
Mof_C 	C 	0.4448	0.1446	0.501	-0.065
Mof_C 	C 	0.3971	0.1975	0.745	0.316
Mof_C 	C 	0.3951	0.1969	0.258	0.217
Mof_C 	C 	0.4443	0.3006	0.501	-0.086
Mof_C 	C 	0.4336	0.0907	0.499	-0.086
Mof_C 	C 	0.4655	0.3599	0.496	0.094
Mof_C 	C 	0.4897	0.3542	0.498	-0.14
Mof_C 	C 	0.4646	0.1024	0.501	0.067
Mof_C 	C 	0.4082	0.3541	0.5024	0.585
Mof_C 	C 	0.4799	0.3241	0.4965	0.103
Mof_C 	C 	0.4781	0.1561	0.5018	0.039
Mof_C 	C 	0.5153	0.1279	0.505	0.156
Mof_C 	C 	0.4345	0.169	0.501	0.201
Mof_C 	C 	0.5153	0.3866	0.502	0.329
Mof_C 	C 	0.4321	0.2642	0.5024	0.246
Mof_C 	C 	0.4236	0.3133	0.506	0.138
Mof_C 	C 	0.4254	0.1115	0.498	0.084
Mof_C 	C 	0.3871	0.1939	0.004	0.056
Mof_C 	C 	0.3718	0.1885	0.133	-0.048
Mof_C 	C 	0.3727	0.1867	0.872	-0.077
Mof_C 	C 	0.3476	0.155	0.891	0.063
Mof_C 	C 	0.3456	0.1902	0.886	0.036
Mof_C 	C 	0.3441	0.1579	0.127	0.054
Mof_C 	C 	0.3436	0.1904	0.122	0.024
Mof_C 	C 	0.2926	0.1264	0.009	0.356
Mof_C 	C 	0.3262	0.1462	0.004	-0.139
Mof_C 	C 	0.3253	0.185	-0	-0.031
_end
