data_functionalizedCrystal
_audit_creation_method	'EQeq! by Chris Wilmer'
_symmetry_space_group_name_H-M	'P1'
_symmetry_Int_Tables_number	1
_symmetry_cell_setting	triclinic
loop_
_symmetry_equiv_pos_as_xyz
  x,y,z
_cell_length_a	8.735
_cell_length_b	15.1704
_cell_length_c	13.0851
_cell_angle_alpha	90
_cell_angle_beta	101.223
_cell_angle_gamma	90
loop_
_atom_site_label
_atom_site_type_symbol
_atom_site_fract_x
_atom_site_fract_y
_atom_site_fract_z
_atom_site_charge
Mof_P 	P 	0.05972	0.09744	0.11929	0.412
Mof_H 	H 	0.2029	0.0787	0.203	0.008
Mof_O 	O 	0.1223	0.10665	0.01898	-0.331
Mof_O 	O 	0.9452	0.0228	0.1188	-0.341
Mof_O 	O 	0.9875	0.18452	0.1446	-0.276
Mof_Be	Be	0.0562	0.0824	0.8968	0.733
Mof_O 	O 	0.3193	0.3712	0.1631	-0.403
Mof_O 	O 	0.3845	0.3739	0.361	-0.391
Mof_O 	O 	0.1163	0.3233	0.2659	-0.272
Mof_P 	P 	0.273	0.3567	0.26239	0.591
Mof_H 	H 	0.1645	0.442	0.2609	0.019
Mof_O 	O 	0.1832	0.2774	0.2751	-0.193
Mof_P 	P 	0.55972	0.59744	0.11929	0.488
Mof_H 	H 	0.7029	0.5787	0.203	0.01
Mof_O 	O 	0.6223	0.60665	0.01898	-0.334
Mof_O 	O 	0.4452	0.5228	0.1188	-0.386
Mof_O 	O 	0.4875	0.68452	0.1446	-0.347
Mof_Be	Be	0.5562	0.5824	0.8968	0.778
Mof_O 	O 	0.8193	0.8712	0.1631	-0.395
Mof_O 	O 	0.8845	0.8739	0.361	-0.357
Mof_O 	O 	0.6163	0.8233	0.2659	-0.264
Mof_P 	P 	0.773	0.8567	0.26239	0.596
Mof_H 	H 	0.6645	0.942	0.2609	0.031
Mof_O 	O 	0.6832	0.7774	0.2751	-0.195
Mof_P 	P 	0.94028	0.09744	0.38071	0.558
Mof_H 	H 	0.7971	0.0787	0.297	0.005
Mof_O 	O 	0.8777	0.10665	0.48102	-0.34
Mof_O 	O 	0.0548	0.0228	0.3812	-0.418
Mof_O 	O 	0.0125	0.18452	0.3554	-0.38
Mof_Be	Be	0.9438	0.0824	0.6032	0.818
Mof_O 	O 	0.6807	0.3712	0.3369	-0.39
Mof_O 	O 	0.6155	0.3739	0.139	-0.385
Mof_O 	O 	0.8837	0.3233	0.2341	-0.223
Mof_P 	P 	0.727	0.3567	0.23761	0.587
Mof_H 	H 	0.8355	0.442	0.2391	0.042
Mof_O 	O 	0.8168	0.2774	0.2249	-0.194
Mof_P 	P 	0.44028	0.59744	0.38071	0.486
Mof_H 	H 	0.2971	0.5787	0.297	-0.002
Mof_O 	O 	0.3777	0.60665	0.48102	-0.343
Mof_O 	O 	0.5548	0.5228	0.3812	-0.38
Mof_O 	O 	0.5125	0.68452	0.3554	-0.345
Mof_Be	Be	0.4438	0.5824	0.6032	0.777
Mof_O 	O 	0.1807	0.8712	0.3369	-0.402
Mof_O 	O 	0.1155	0.8739	0.139	-0.421
Mof_O 	O 	0.3837	0.8233	0.2341	-0.258
Mof_P 	P 	0.227	0.8567	0.23761	0.594
Mof_H 	H 	0.3355	0.942	0.2391	0.029
Mof_O 	O 	0.3168	0.7774	0.2249	-0.209
Mof_P 	P 	0.94028	0.90256	0.88071	0.557
Mof_H 	H 	0.7971	0.9213	0.797	0.005
Mof_O 	O 	0.8777	0.89335	0.98102	-0.338
Mof_O 	O 	0.0548	0.9772	0.8812	-0.416
Mof_O 	O 	0.0125	0.81548	0.8554	-0.38
Mof_Be	Be	0.9438	0.9176	0.1032	0.813
Mof_O 	O 	0.6807	0.6288	0.8369	-0.39
Mof_O 	O 	0.6155	0.6261	0.639	-0.385
Mof_O 	O 	0.8837	0.6767	0.7341	-0.223
Mof_P 	P 	0.727	0.6433	0.73761	0.587
Mof_H 	H 	0.8355	0.558	0.7391	0.042
Mof_O 	O 	0.8168	0.7226	0.7249	-0.194
Mof_P 	P 	0.44028	0.40256	0.88071	0.486
Mof_H 	H 	0.2971	0.4213	0.797	-0.002
Mof_O 	O 	0.3777	0.39335	0.98102	-0.344
Mof_O 	O 	0.5548	0.4772	0.8812	-0.38
Mof_O 	O 	0.5125	0.31548	0.8554	-0.345
Mof_Be	Be	0.4438	0.4176	0.1032	0.778
Mof_O 	O 	0.1807	0.1288	0.8369	-0.403
Mof_O 	O 	0.1155	0.1261	0.639	-0.421
Mof_O 	O 	0.3837	0.1767	0.7341	-0.258
Mof_P 	P 	0.227	0.1433	0.73761	0.594
Mof_H 	H 	0.3355	0.058	0.7391	0.029
Mof_O 	O 	0.3168	0.2226	0.7249	-0.209
Mof_P 	P 	0.05972	0.90256	0.61929	0.41
Mof_H 	H 	0.2029	0.9213	0.703	0.007
Mof_O 	O 	0.1223	0.89335	0.51898	-0.335
Mof_O 	O 	0.9452	0.9772	0.6188	-0.344
Mof_O 	O 	0.9875	0.81548	0.6446	-0.276
Mof_Be	Be	0.0562	0.9176	0.3968	0.738
Mof_O 	O 	0.3193	0.6288	0.6631	-0.403
Mof_O 	O 	0.3845	0.6261	0.861	-0.391
Mof_O 	O 	0.1163	0.6767	0.7659	-0.273
Mof_P 	P 	0.273	0.6433	0.76239	0.591
Mof_H 	H 	0.1645	0.558	0.7609	0.019
Mof_O 	O 	0.1832	0.7226	0.7751	-0.192
Mof_P 	P 	0.55972	0.40256	0.61929	0.488
Mof_H 	H 	0.7029	0.4213	0.703	0.01
Mof_O 	O 	0.6223	0.39335	0.51898	-0.333
Mof_O 	O 	0.4452	0.4772	0.6188	-0.385
Mof_O 	O 	0.4875	0.31548	0.6446	-0.347
Mof_Be	Be	0.5562	0.4176	0.3968	0.778
Mof_O 	O 	0.8193	0.1288	0.6631	-0.394
Mof_O 	O 	0.8845	0.1261	0.861	-0.357
Mof_O 	O 	0.6163	0.1767	0.7659	-0.264
Mof_P 	P 	0.773	0.1433	0.76239	0.597
Mof_H 	H 	0.6645	0.058	0.7609	0.03
Mof_O 	O 	0.6832	0.2226	0.7751	-0.195
Mof_Be	Be	1.67745e-33	0.2427	0.25	0.771
Mof_Be	Be	0.5	0.7427	0.25	0.845
Mof_Be	Be	5.03234e-33	0.7573	0.75	0.77
Mof_Be	Be	0.5	0.2573	0.75	0.845
_end
