data_functionalizedCrystal
_audit_creation_method	'EQeq! by Chris Wilmer'
_symmetry_space_group_name_H-M	'P1'
_symmetry_Int_Tables_number	1
_symmetry_cell_setting	triclinic
loop_
_symmetry_equiv_pos_as_xyz
  x,y,z
_cell_length_a	9.893
_cell_length_b	12.1294
_cell_length_c	16.3197
_cell_angle_alpha	68.8334
_cell_angle_beta	72.3562
_cell_angle_gamma	65.9327
loop_
_atom_site_label
_atom_site_type_symbol
_atom_site_fract_x
_atom_site_fract_y
_atom_site_fract_z
_atom_site_charge
Mof_Na	Na	0.8943	0.25	0.75	2.157
Mof_Na	Na	0.1057	0.75	0.25	2.157
Mof_Ce	Ce	0.05176	0.46482	0.20608	2.387
Mof_Ce	Ce	0.27734	0.96482	0.70608	2.361
Mof_Ce	Ce	0.94824	0.53518	0.79392	2.387
Mof_Ce	Ce	0.72266	0.03518	0.29392	2.361
Mof_H 	H 	0.4127	0.5211	0.8809	0.064
Mof_H 	H 	0.092	0.657	0.849	0.304
Mof_H 	H 	0.943	0.707	0.839	0.212
Mof_H 	H 	0.8181	0.9118	0.55	0.091
Mof_H 	H 	0.9379	0.4004	0.545	-0.033
Mof_H 	H 	0.752	0.6197	0.4993	0.101
Mof_H 	H 	0.7201	0.4118	0.05	0.093
Mof_H 	H 	0.2799	0.5882	0.95	0.093
Mof_H 	H 	0.057	0.293	0.161	0.212
Mof_H 	H 	0.129	0.1197	0.9993	0.089
Mof_H 	H 	0.4518	0.6315	0.9965	0.028
Mof_H 	H 	0.598	0.843	0.651	0.307
Mof_H 	H 	0.1721	0.3315	0.4535	0.117
Mof_H 	H 	0.1819	0.0882	0.45	0.091
Mof_H 	H 	0.908	0.343	0.151	0.304
Mof_H 	H 	0.0798	0.8685	0.5035	0.028
Mof_H 	H 	0.489	0.793	0.661	0.219
Mof_H 	H 	0.8833	0.0996	0.955	-0.022
Mof_H 	H 	0.1167	0.9004	0.045	-0.022
Mof_H 	H 	0.871	0.8803	0.0007	0.089
Mof_H 	H 	0.8147	0.9789	0.6191	0.061
Mof_H 	H 	0.511	0.207	0.339	0.219
Mof_H 	H 	0.1853	0.0211	0.3809	0.061
Mof_H 	H 	0.8279	0.6685	0.5465	0.117
Mof_H 	H 	0.0621	0.5996	0.455	-0.033
Mof_H 	H 	0.248	0.3803	0.5007	0.101
Mof_H 	H 	0.9571	0.1685	0.0465	0.088
Mof_H 	H 	0.402	0.157	0.349	0.307
Mof_H 	H 	0.5482	0.3685	0.0035	0.028
Mof_H 	H 	0.5873	0.4789	0.1191	0.064
Mof_H 	H 	0.0429	0.8315	0.9535	0.088
Mof_H 	H 	0.9202	0.1315	0.4965	0.028
Mof_C 	C 	0.6399	0.5654	0.9064	0.316
Mof_C 	C 	0.9029	0.7843	0.6631	0.357
Mof_C 	C 	0.1117	0.9346	0.5936	0.299
Mof_C 	C 	0.2082	0.2181	0.5777	0.423
Mof_C 	C 	0.8765	0.9103	0.5903	-0.228
Mof_C 	C 	0.3771	0.5897	0.9097	-0.241
Mof_C 	C 	0.6229	0.4103	0.0903	-0.241
Mof_C 	C 	0.976	0.8438	0.0108	-0.248
Mof_C 	C 	0.0858	0.0357	0.8767	0.327
Mof_C 	C 	0.9982	0.4643	0.6233	0.288
Mof_C 	C 	0.9142	0.9643	0.1233	0.327
Mof_C 	C 	0.024	0.1562	0.9892	-0.248
Mof_C 	C 	0.3601	0.4346	0.0936	0.316
Mof_C 	C 	0.004	0.2819	0.9223	0.422
Mof_C 	C 	0.5102	0.4353	0.0351	-0.058
Mof_C 	C 	0.0018	0.5357	0.3767	0.288
Mof_C 	C 	0.0194	0.9353	0.5351	-0.065
Mof_C 	C 	0.996	0.7181	0.0777	0.422
Mof_C 	C 	0.8306	0.6562	0.4892	-0.316
Mof_C 	C 	0.4898	0.5647	0.9649	-0.058
Mof_C 	C 	0.0162	0.4373	0.5373	-0.037
Mof_C 	C 	0.9838	0.5627	0.4627	-0.037
Mof_C 	C 	0.8883	0.0654	0.4064	0.299
Mof_C 	C 	0.0971	0.2157	0.3369	0.357
Mof_C 	C 	0.9806	0.0647	0.4649	-0.065
Mof_C 	C 	0.6497	0.2843	0.1631	0.357
Mof_C 	C 	0.1694	0.3438	0.5108	-0.316
Mof_C 	C 	0.7918	0.7819	0.4223	0.423
Mof_C 	C 	0.3503	0.7157	0.8369	0.357
Mof_C 	C 	0.1235	0.0897	0.4097	-0.228
Mof_C 	C 	0.9908	0.0627	0.9627	-0.092
Mof_C 	C 	0.0092	0.9373	0.0373	-0.092
Mof_O 	O 	0.7145	0.6264	0.9122	-0.426
Mof_O 	O 	0.2109	0.2526	0.2972	-0.5
Mof_O 	O 	0.7891	0.7474	0.7028	-0.5
Mof_O 	O 	0.0076	0.2957	0.8407	-0.75
Mof_O 	O 	0.8758	0.4638	0.6816	-0.701
Mof_O 	O 	0.144	0.2043	0.6593	-0.751
Mof_O 	O 	0.0281	0.7232	0.6822	-0.496
Mof_O 	O 	0.2531	0.8736	0.5878	-0.42
Mof_O 	O 	0.2245	0.0087	0.8633	-0.472
Mof_O 	O 	0.9934	0.3755	0.9467	-0.49
Mof_O 	O 	0.7469	0.1264	0.4122	-0.42
Mof_O 	O 	0.5665	0.2232	0.1822	-0.495
Mof_O 	O 	0.6844	0.8755	0.4467	-0.473
Mof_O 	O 	0.3156	0.1245	0.5533	-0.473
Mof_O 	O 	0.4335	0.7768	0.8178	-0.495
Mof_O 	O 	0.0965	0.4913	0.6367	-0.468
Mof_O 	O 	0.1242	0.5362	0.3184	-0.701
Mof_O 	O 	0.9924	0.7043	0.1593	-0.75
Mof_O 	O 	0.0212	0.0362	0.8184	-0.694
Mof_O 	O 	0.9035	0.5087	0.3633	-0.468
Mof_O 	O 	0.0066	0.6245	0.0533	-0.49
Mof_O 	O 	0.856	0.7957	0.3407	-0.751
Mof_O 	O 	0.3035	0.5034	0.1482	-0.525
Mof_O 	O 	0.0449	0.0034	0.6482	-0.503
Mof_O 	O 	0.2393	0.7526	0.7972	-0.499
Mof_O 	O 	0.2855	0.3736	0.0878	-0.426
Mof_O 	O 	0.4672	0.156	0.3736	-0.751
Mof_O 	O 	0.6965	0.4966	0.8518	-0.525
Mof_O 	O 	0.9551	0.9966	0.3518	-0.503
Mof_O 	O 	0.9788	0.9638	0.1816	-0.694
Mof_O 	O 	0.5328	0.844	0.6264	-0.751
Mof_O 	O 	0.7755	0.9913	0.1367	-0.472
Mof_O 	O 	0.9719	0.2768	0.3178	-0.496
Mof_O 	O 	0.0032	0.656	0.8736	-0.742
Mof_O 	O 	0.9968	0.344	0.1264	-0.742
Mof_O 	O 	0.7607	0.2474	0.2028	-0.499
_end
