data_functionalizedCrystal
_audit_creation_method	'EQeq! by Chris Wilmer'
_symmetry_space_group_name_H-M	'P1'
_symmetry_Int_Tables_number	1
_symmetry_cell_setting	triclinic
loop_
_symmetry_equiv_pos_as_xyz
  x,y,z
_cell_length_a	25.543
_cell_length_b	25.543
_cell_length_c	25.543
_cell_angle_alpha	90
_cell_angle_beta	90
_cell_angle_gamma	90
loop_
_atom_site_label
_atom_site_type_symbol
_atom_site_fract_x
_atom_site_fract_y
_atom_site_fract_z
_atom_site_charge
Mof_Zn	Zn	0.79368	0.70632	0.29368	1.221
Mof_Zn	Zn	0.79368	0.20632	0.79368	1.221
Mof_Zn	Zn	0.20632	0.29368	0.29368	1.221
Mof_Zn	Zn	0.20632	0.79368	0.79368	1.221
Mof_Zn	Zn	0.20632	0.70632	0.70632	1.221
Mof_Zn	Zn	0.20632	0.20632	0.20632	1.221
Mof_Zn	Zn	0.79368	0.29368	0.70632	1.221
Mof_Zn	Zn	0.79368	0.79368	0.20632	1.221
Mof_Zn	Zn	0.29368	0.79368	0.70632	1.221
Mof_Zn	Zn	0.29368	0.20632	0.29368	1.221
Mof_Zn	Zn	0.70632	0.20632	0.70632	1.221
Mof_Zn	Zn	0.70632	0.79368	0.29368	1.221
Mof_Zn	Zn	0.70632	0.29368	0.79368	1.221
Mof_Zn	Zn	0.29368	0.29368	0.20632	1.221
Mof_Zn	Zn	0.70632	0.70632	0.20632	1.221
Mof_Zn	Zn	0.29368	0.70632	0.79368	1.221
Mof_Zn	Zn	0.70632	0.79368	0.70632	1.221
Mof_Zn	Zn	0.29368	0.20632	0.70632	1.221
Mof_Zn	Zn	0.70632	0.20632	0.29368	1.221
Mof_Zn	Zn	0.29368	0.79368	0.29368	1.221
Mof_Zn	Zn	0.79368	0.29368	0.29368	1.221
Mof_Zn	Zn	0.79368	0.79368	0.79368	1.221
Mof_Zn	Zn	0.20632	0.29368	0.70632	1.221
Mof_Zn	Zn	0.20632	0.79368	0.20632	1.221
Mof_Zn	Zn	0.20632	0.70632	0.29368	1.221
Mof_Zn	Zn	0.20632	0.20632	0.79368	1.221
Mof_Zn	Zn	0.79368	0.70632	0.70632	1.221
Mof_Zn	Zn	0.79368	0.20632	0.20632	1.221
Mof_Zn	Zn	0.29368	0.70632	0.20632	1.221
Mof_Zn	Zn	0.29368	0.29368	0.79368	1.221
Mof_Zn	Zn	0.70632	0.70632	0.79368	1.221
Mof_Zn	Zn	0.70632	0.29368	0.20632	1.221
Mof_O 	O 	0.7824	0.6343	0.2824	-0.493
Mof_C 	C 	0.7223	0.5238	0.2223	0.006
Mof_O 	O 	0.7824	0.1343	0.7824	-0.493
Mof_C 	C 	0.7223	0.0238	0.7223	0.006
Mof_O 	O 	0.2176	0.3657	0.2824	-0.493
Mof_C 	C 	0.2777	0.4762	0.2223	0.006
Mof_O 	O 	0.2176	0.8657	0.7824	-0.493
Mof_C 	C 	0.2777	0.9762	0.7223	0.006
Mof_O 	O 	0.7176	0.3657	0.7824	-0.493
Mof_C 	C 	0.7777	0.4762	0.7223	0.006
Mof_O 	O 	0.2176	0.6343	0.7176	-0.493
Mof_C 	C 	0.2777	0.5238	0.7777	0.006
Mof_O 	O 	0.2176	0.1343	0.2176	-0.493
Mof_C 	C 	0.2777	0.0238	0.2777	0.006
Mof_O 	O 	0.7176	0.1343	0.7176	-0.493
Mof_C 	C 	0.7777	0.0238	0.7777	0.006
Mof_O 	O 	0.7824	0.3657	0.7176	-0.494
Mof_C 	C 	0.7223	0.4762	0.7777	0.005
Mof_O 	O 	0.7824	0.8657	0.2176	-0.494
Mof_C 	C 	0.7223	0.9762	0.2777	0.005
Mof_O 	O 	0.2824	0.7824	0.6343	-0.494
Mof_C 	C 	0.2223	0.7223	0.5238	0.005
Mof_O 	O 	0.2824	0.2824	0.1343	-0.494
Mof_C 	C 	0.2223	0.2223	0.0238	0.005
Mof_O 	O 	0.7824	0.7824	0.1343	-0.494
Mof_C 	C 	0.7223	0.7223	0.0238	0.005
Mof_O 	O 	0.2824	0.2176	0.3657	-0.494
Mof_C 	C 	0.2223	0.2777	0.4762	0.005
Mof_O 	O 	0.2824	0.7176	0.8657	-0.494
Mof_C 	C 	0.2223	0.7777	0.9762	0.005
Mof_O 	O 	0.7824	0.7176	0.3657	-0.494
Mof_C 	C 	0.7223	0.7777	0.4762	0.005
Mof_O 	O 	0.7176	0.2176	0.6343	-0.494
Mof_C 	C 	0.7777	0.2777	0.5238	0.005
Mof_O 	O 	0.7176	0.7176	0.1343	-0.494
Mof_C 	C 	0.7777	0.7777	0.0238	0.005
Mof_O 	O 	0.7176	0.7824	0.3657	-0.494
Mof_C 	C 	0.7777	0.7223	0.4762	0.005
Mof_O 	O 	0.7176	0.2824	0.8657	-0.494
Mof_C 	C 	0.7777	0.2223	0.9762	0.005
Mof_O 	O 	0.6343	0.2824	0.7824	-0.494
Mof_C 	C 	0.5238	0.2223	0.7223	0.005
Mof_O 	O 	0.1343	0.2824	0.2824	-0.494
Mof_C 	C 	0.0238	0.2223	0.2223	0.005
Mof_O 	O 	0.1343	0.7824	0.7824	-0.494
Mof_C 	C 	0.0238	0.7223	0.7223	0.005
Mof_O 	O 	0.3657	0.2824	0.2176	-0.494
Mof_C 	C 	0.4762	0.2223	0.2777	0.005
Mof_O 	O 	0.3657	0.7824	0.7176	-0.494
Mof_C 	C 	0.4762	0.7223	0.7777	0.005
Mof_O 	O 	0.8657	0.2824	0.7176	-0.494
Mof_C 	C 	0.9762	0.2223	0.7777	0.005
Mof_O 	O 	0.6343	0.7176	0.2176	-0.494
Mof_C 	C 	0.5238	0.7777	0.2777	0.005
Mof_O 	O 	0.1343	0.7176	0.7176	-0.494
Mof_C 	C 	0.0238	0.7777	0.7777	0.005
Mof_O 	O 	0.3657	0.7176	0.7824	-0.494
Mof_C 	C 	0.4762	0.7777	0.7223	0.005
Mof_O 	O 	0.8657	0.7176	0.2824	-0.494
Mof_C 	C 	0.9762	0.7777	0.2223	0.005
Mof_O 	O 	0.6343	0.7824	0.7176	-0.494
Mof_C 	C 	0.5238	0.7223	0.7777	0.005
Mof_O 	O 	0.1343	0.7824	0.2176	-0.494
Mof_C 	C 	0.0238	0.7223	0.2777	0.005
Mof_O 	O 	0.3657	0.2176	0.7176	-0.494
Mof_C 	C 	0.4762	0.2777	0.7777	0.005
Mof_O 	O 	0.8657	0.2176	0.2176	-0.494
Mof_C 	C 	0.9762	0.2777	0.2777	0.005
Mof_O 	O 	0.8657	0.7176	0.7176	-0.494
Mof_C 	C 	0.9762	0.7777	0.7777	0.005
Mof_O 	O 	0.6343	0.2176	0.2824	-0.494
Mof_C 	C 	0.5238	0.2777	0.2223	0.005
Mof_O 	O 	0.6343	0.7176	0.7824	-0.494
Mof_C 	C 	0.5238	0.7777	0.7223	0.005
Mof_O 	O 	0.1343	0.2176	0.7824	-0.494
Mof_C 	C 	0.0238	0.2777	0.7223	0.005
Mof_O 	O 	0.3657	0.7824	0.2824	-0.494
Mof_C 	C 	0.4762	0.7223	0.2223	0.005
Mof_O 	O 	0.8657	0.7824	0.7824	-0.494
Mof_C 	C 	0.9762	0.7223	0.7223	0.005
Mof_O 	O 	0.7824	0.2824	0.3657	-0.494
Mof_C 	C 	0.7223	0.2223	0.4762	0.005
Mof_O 	O 	0.7824	0.7824	0.8657	-0.494
Mof_C 	C 	0.7223	0.7223	0.9762	0.005
Mof_O 	O 	0.2176	0.2824	0.6343	-0.494
Mof_C 	C 	0.2777	0.2223	0.5238	0.005
Mof_O 	O 	0.2176	0.7824	0.1343	-0.494
Mof_C 	C 	0.2777	0.7223	0.0238	0.005
Mof_O 	O 	0.7176	0.7824	0.6343	-0.494
Mof_C 	C 	0.7777	0.7223	0.5238	0.005
Mof_O 	O 	0.2176	0.7176	0.3657	-0.494
Mof_C 	C 	0.2777	0.7777	0.4762	0.005
Mof_O 	O 	0.2176	0.2176	0.8657	-0.494
Mof_C 	C 	0.2777	0.2777	0.9762	0.005
Mof_O 	O 	0.7176	0.7176	0.8657	-0.494
Mof_C 	C 	0.7777	0.7777	0.9762	0.005
Mof_O 	O 	0.7824	0.7176	0.6343	-0.494
Mof_C 	C 	0.7223	0.7777	0.5238	0.005
Mof_O 	O 	0.7824	0.2176	0.1343	-0.494
Mof_C 	C 	0.7223	0.2777	0.0238	0.005
Mof_O 	O 	0.2824	0.6343	0.2176	-0.494
Mof_C 	C 	0.2223	0.5238	0.2777	0.005
Mof_O 	O 	0.2824	0.1343	0.7176	-0.494
Mof_C 	C 	0.2223	0.0238	0.7777	0.005
Mof_O 	O 	0.7824	0.6343	0.7176	-0.494
Mof_C 	C 	0.7223	0.5238	0.7777	0.005
Mof_O 	O 	0.2824	0.3657	0.7824	-0.494
Mof_C 	C 	0.2223	0.4762	0.7223	0.005
Mof_O 	O 	0.2824	0.8657	0.2824	-0.494
Mof_C 	C 	0.2223	0.9762	0.2223	0.005
Mof_O 	O 	0.7824	0.8657	0.7824	-0.494
Mof_C 	C 	0.7223	0.9762	0.7223	0.005
Mof_O 	O 	0.7176	0.6343	0.7824	-0.494
Mof_C 	C 	0.7777	0.5238	0.7223	0.005
Mof_O 	O 	0.7176	0.1343	0.2824	-0.494
Mof_C 	C 	0.7777	0.0238	0.2223	0.005
Mof_O 	O 	0.7176	0.3657	0.2176	-0.494
Mof_C 	C 	0.7777	0.4762	0.2777	0.005
Mof_O 	O 	0.7176	0.8657	0.7176	-0.494
Mof_C 	C 	0.7777	0.9762	0.7777	0.005
Mof_O 	O 	0.2176	0.3657	0.7176	-0.494
Mof_C 	C 	0.2777	0.4762	0.7777	0.005
Mof_O 	O 	0.2176	0.8657	0.2176	-0.494
Mof_C 	C 	0.2777	0.9762	0.2777	0.005
Mof_O 	O 	0.7824	0.1343	0.2176	-0.494
Mof_C 	C 	0.7223	0.0238	0.2777	0.005
Mof_O 	O 	0.7824	0.3657	0.2824	-0.494
Mof_C 	C 	0.7223	0.4762	0.2223	0.005
Mof_O 	O 	0.2176	0.6343	0.2824	-0.494
Mof_C 	C 	0.2777	0.5238	0.2223	0.005
Mof_O 	O 	0.2176	0.1343	0.7824	-0.494
Mof_C 	C 	0.2777	0.0238	0.7223	0.005
Mof_O 	O 	0.7176	0.2176	0.3657	-0.494
Mof_C 	C 	0.7777	0.2777	0.4762	0.005
Mof_O 	O 	0.7176	0.2824	0.1343	-0.494
Mof_C 	C 	0.7777	0.2223	0.0238	0.005
Mof_O 	O 	0.2824	0.7824	0.3657	-0.494
Mof_C 	C 	0.2223	0.7223	0.4762	0.005
Mof_O 	O 	0.2824	0.2824	0.8657	-0.494
Mof_C 	C 	0.2223	0.2223	0.9762	0.005
Mof_O 	O 	0.2824	0.2176	0.6343	-0.494
Mof_C 	C 	0.2223	0.2777	0.5238	0.005
Mof_O 	O 	0.2824	0.7176	0.1343	-0.494
Mof_C 	C 	0.2223	0.7777	0.0238	0.005
Mof_O 	O 	0.3657	0.7176	0.2176	-0.494
Mof_C 	C 	0.4762	0.7777	0.2777	0.005
Mof_O 	O 	0.1343	0.7176	0.2824	-0.494
Mof_C 	C 	0.0238	0.7777	0.2223	0.005
Mof_O 	O 	0.3657	0.2824	0.7824	-0.494
Mof_C 	C 	0.4762	0.2223	0.7223	0.005
Mof_O 	O 	0.8657	0.2824	0.2824	-0.494
Mof_C 	C 	0.9762	0.2223	0.2223	0.005
Mof_O 	O 	0.6343	0.2824	0.2176	-0.494
Mof_C 	C 	0.5238	0.2223	0.2777	0.005
Mof_O 	O 	0.1343	0.2824	0.7176	-0.494
Mof_C 	C 	0.0238	0.2223	0.7777	0.005
Mof_O 	O 	0.3657	0.2176	0.2824	-0.494
Mof_C 	C 	0.4762	0.2777	0.2223	0.005
Mof_O 	O 	0.8657	0.2176	0.7824	-0.494
Mof_C 	C 	0.9762	0.2777	0.7223	0.005
Mof_O 	O 	0.6343	0.7824	0.2824	-0.494
Mof_C 	C 	0.5238	0.7223	0.2223	0.005
Mof_O 	O 	0.8657	0.7824	0.2176	-0.494
Mof_C 	C 	0.9762	0.7223	0.2777	0.005
Mof_O 	O 	0.6343	0.2176	0.7176	-0.494
Mof_C 	C 	0.5238	0.2777	0.7777	0.005
Mof_O 	O 	0.1343	0.2176	0.2176	-0.494
Mof_C 	C 	0.0238	0.2777	0.2777	0.005
Mof_O 	O 	0.2176	0.7176	0.6343	-0.494
Mof_C 	C 	0.2777	0.7777	0.5238	0.005
Mof_O 	O 	0.2176	0.2176	0.1343	-0.494
Mof_C 	C 	0.2777	0.2777	0.0238	0.005
Mof_O 	O 	0.7824	0.2176	0.8657	-0.494
Mof_C 	C 	0.7223	0.2777	0.9762	0.005
Mof_O 	O 	0.7824	0.2824	0.6343	-0.494
Mof_C 	C 	0.7223	0.2223	0.5238	0.005
Mof_O 	O 	0.2176	0.2824	0.3657	-0.494
Mof_C 	C 	0.2777	0.2223	0.4762	0.005
Mof_O 	O 	0.2176	0.7824	0.8657	-0.494
Mof_C 	C 	0.2777	0.7223	0.9762	0.005
Mof_O 	O 	0.7176	0.8657	0.2824	-0.494
Mof_C 	C 	0.7777	0.9762	0.2223	0.005
Mof_O 	O 	0.7176	0.6343	0.2176	-0.494
Mof_C 	C 	0.7777	0.5238	0.2777	0.005
Mof_O 	O 	0.2824	0.3657	0.2176	-0.494
Mof_C 	C 	0.2223	0.4762	0.2777	0.005
Mof_O 	O 	0.2824	0.8657	0.7176	-0.494
Mof_C 	C 	0.2223	0.9762	0.7777	0.005
Mof_O 	O 	0.2824	0.6343	0.7824	-0.494
Mof_C 	C 	0.2223	0.5238	0.7223	0.005
Mof_O 	O 	0.2824	0.1343	0.2824	-0.494
Mof_C 	C 	0.2223	0.0238	0.2223	0.005
Mof_O 	O 	0.75	0.75	0.25	-0.968
Mof_O 	O 	0.25	0.25	0.25	-0.968
Mof_O 	O 	0.25	0.75	0.75	-0.968
Mof_O 	O 	0.75	0.25	0.75	-0.968
Mof_O 	O 	0.75	0.75	0.75	-0.968
Mof_O 	O 	0.25	0.25	0.75	-0.968
Mof_O 	O 	0.75	0.25	0.25	-0.968
Mof_O 	O 	0.25	0.75	0.25	-0.968
Mof_C 	C 	0.75	0.6126	0.25	0.342
Mof_C 	C 	0.75	0.5552	0.25	-0.095
Mof_C 	C 	0.75	0.1126	0.75	0.342
Mof_C 	C 	0.75	0.0552	0.75	-0.095
Mof_C 	C 	0.25	0.3874	0.25	0.342
Mof_C 	C 	0.25	0.4448	0.25	-0.095
Mof_C 	C 	0.25	0.8874	0.75	0.342
Mof_C 	C 	0.25	0.9448	0.75	-0.095
Mof_C 	C 	0.25	0.6126	0.75	0.342
Mof_C 	C 	0.25	0.5552	0.75	-0.095
Mof_C 	C 	0.25	0.1126	0.25	0.342
Mof_C 	C 	0.25	0.0552	0.25	-0.095
Mof_C 	C 	0.75	0.3874	0.75	0.342
Mof_C 	C 	0.75	0.4448	0.75	-0.095
Mof_C 	C 	0.75	0.8874	0.25	0.342
Mof_C 	C 	0.75	0.9448	0.25	-0.095
Mof_C 	C 	0.25	0.75	0.6126	0.342
Mof_C 	C 	0.25	0.75	0.5552	-0.095
Mof_C 	C 	0.25	0.25	0.1126	0.342
Mof_C 	C 	0.25	0.25	0.0552	-0.095
Mof_C 	C 	0.25	0.25	0.3874	0.342
Mof_C 	C 	0.25	0.25	0.4448	-0.095
Mof_C 	C 	0.25	0.75	0.8874	0.342
Mof_C 	C 	0.25	0.75	0.9448	-0.095
Mof_C 	C 	0.75	0.25	0.6126	0.342
Mof_C 	C 	0.75	0.25	0.5552	-0.095
Mof_C 	C 	0.75	0.75	0.1126	0.342
Mof_C 	C 	0.75	0.75	0.0552	-0.095
Mof_C 	C 	0.75	0.75	0.3874	0.342
Mof_C 	C 	0.75	0.75	0.4448	-0.095
Mof_C 	C 	0.75	0.25	0.8874	0.342
Mof_C 	C 	0.75	0.25	0.9448	-0.095
Mof_C 	C 	0.6126	0.25	0.75	0.342
Mof_C 	C 	0.5552	0.25	0.75	-0.095
Mof_C 	C 	0.1126	0.25	0.25	0.342
Mof_C 	C 	0.0552	0.25	0.25	-0.095
Mof_C 	C 	0.3874	0.25	0.25	0.342
Mof_C 	C 	0.4448	0.25	0.25	-0.095
Mof_C 	C 	0.8874	0.25	0.75	0.342
Mof_C 	C 	0.9448	0.25	0.75	-0.095
Mof_C 	C 	0.6126	0.75	0.25	0.342
Mof_C 	C 	0.5552	0.75	0.25	-0.095
Mof_C 	C 	0.1126	0.75	0.75	0.342
Mof_C 	C 	0.0552	0.75	0.75	-0.095
Mof_C 	C 	0.3874	0.75	0.75	0.342
Mof_C 	C 	0.4448	0.75	0.75	-0.095
Mof_C 	C 	0.8874	0.75	0.25	0.342
Mof_C 	C 	0.9448	0.75	0.25	-0.095
Mof_C 	C 	0.6126	0.75	0.75	0.342
Mof_C 	C 	0.5552	0.75	0.75	-0.095
Mof_C 	C 	0.1126	0.75	0.25	0.342
Mof_C 	C 	0.0552	0.75	0.25	-0.095
Mof_C 	C 	0.3874	0.25	0.75	0.342
Mof_C 	C 	0.4448	0.25	0.75	-0.095
Mof_C 	C 	0.8874	0.25	0.25	0.342
Mof_C 	C 	0.9448	0.25	0.25	-0.095
Mof_C 	C 	0.6126	0.25	0.25	0.342
Mof_C 	C 	0.5552	0.25	0.25	-0.095
Mof_C 	C 	0.1126	0.25	0.75	0.342
Mof_C 	C 	0.0552	0.25	0.75	-0.095
Mof_C 	C 	0.3874	0.75	0.25	0.342
Mof_C 	C 	0.4448	0.75	0.25	-0.095
Mof_C 	C 	0.8874	0.75	0.75	0.342
Mof_C 	C 	0.9448	0.75	0.75	-0.095
Mof_C 	C 	0.75	0.25	0.3874	0.342
Mof_C 	C 	0.75	0.25	0.4448	-0.095
Mof_C 	C 	0.75	0.75	0.8874	0.342
Mof_C 	C 	0.75	0.75	0.9448	-0.095
Mof_C 	C 	0.25	0.25	0.6126	0.342
Mof_C 	C 	0.25	0.25	0.5552	-0.095
Mof_C 	C 	0.25	0.75	0.1126	0.342
Mof_C 	C 	0.25	0.75	0.0552	-0.095
Mof_C 	C 	0.25	0.75	0.3874	0.342
Mof_C 	C 	0.25	0.75	0.4448	-0.095
Mof_C 	C 	0.25	0.25	0.8874	0.342
Mof_C 	C 	0.25	0.25	0.9448	-0.095
Mof_C 	C 	0.75	0.75	0.6126	0.342
Mof_C 	C 	0.75	0.75	0.5552	-0.095
Mof_C 	C 	0.75	0.25	0.1126	0.342
Mof_C 	C 	0.75	0.25	0.0552	-0.095
Mof_C 	C 	0.25	0.6126	0.25	0.342
Mof_C 	C 	0.25	0.5552	0.25	-0.095
Mof_C 	C 	0.25	0.1126	0.75	0.342
Mof_C 	C 	0.25	0.0552	0.75	-0.095
Mof_C 	C 	0.25	0.3874	0.75	0.342
Mof_C 	C 	0.25	0.4448	0.75	-0.095
Mof_C 	C 	0.25	0.8874	0.25	0.342
Mof_C 	C 	0.25	0.9448	0.25	-0.095
Mof_C 	C 	0.75	0.6126	0.75	0.342
Mof_C 	C 	0.75	0.5552	0.75	-0.095
Mof_C 	C 	0.75	0.1126	0.25	0.342
Mof_C 	C 	0.75	0.0552	0.25	-0.095
Mof_C 	C 	0.75	0.3874	0.25	0.342
Mof_C 	C 	0.75	0.4448	0.25	-0.095
Mof_C 	C 	0.75	0.8874	0.75	0.342
Mof_C 	C 	0.75	0.9448	0.75	-0.095
Mof_H 	H 	0.69289	0.54	0.19289	0.039
Mof_H 	H 	0.69289	0.04	0.69289	0.039
Mof_H 	H 	0.30711	0.46	0.19289	0.039
Mof_H 	H 	0.30711	0.96	0.69289	0.039
Mof_H 	H 	0.80711	0.46	0.69289	0.039
Mof_H 	H 	0.30711	0.54	0.80711	0.039
Mof_H 	H 	0.30711	0.04	0.30711	0.039
Mof_H 	H 	0.80711	0.04	0.80711	0.039
Mof_H 	H 	0.69289	0.46	0.80711	0.039
Mof_H 	H 	0.69289	0.96	0.30711	0.039
Mof_H 	H 	0.19289	0.69289	0.54	0.039
Mof_H 	H 	0.19289	0.19289	0.04	0.039
Mof_H 	H 	0.69289	0.69289	0.04	0.039
Mof_H 	H 	0.19289	0.30711	0.46	0.039
Mof_H 	H 	0.19289	0.80711	0.96	0.039
Mof_H 	H 	0.69289	0.80711	0.46	0.039
Mof_H 	H 	0.80711	0.30711	0.54	0.039
Mof_H 	H 	0.80711	0.80711	0.04	0.039
Mof_H 	H 	0.80711	0.69289	0.46	0.039
Mof_H 	H 	0.80711	0.19289	0.96	0.039
Mof_H 	H 	0.54	0.19289	0.69289	0.039
Mof_H 	H 	0.04	0.19289	0.19289	0.039
Mof_H 	H 	0.04	0.69289	0.69289	0.039
Mof_H 	H 	0.46	0.19289	0.30711	0.039
Mof_H 	H 	0.46	0.69289	0.80711	0.039
Mof_H 	H 	0.96	0.19289	0.80711	0.039
Mof_H 	H 	0.54	0.80711	0.30711	0.039
Mof_H 	H 	0.04	0.80711	0.80711	0.039
Mof_H 	H 	0.46	0.80711	0.69289	0.039
Mof_H 	H 	0.96	0.80711	0.19289	0.039
Mof_H 	H 	0.54	0.69289	0.80711	0.039
Mof_H 	H 	0.04	0.69289	0.30711	0.039
Mof_H 	H 	0.46	0.30711	0.80711	0.039
Mof_H 	H 	0.96	0.30711	0.30711	0.039
Mof_H 	H 	0.96	0.80711	0.80711	0.039
Mof_H 	H 	0.54	0.30711	0.19289	0.039
Mof_H 	H 	0.54	0.80711	0.69289	0.039
Mof_H 	H 	0.04	0.30711	0.69289	0.039
Mof_H 	H 	0.46	0.69289	0.19289	0.039
Mof_H 	H 	0.96	0.69289	0.69289	0.039
Mof_H 	H 	0.69289	0.19289	0.46	0.039
Mof_H 	H 	0.69289	0.69289	0.96	0.039
Mof_H 	H 	0.30711	0.19289	0.54	0.039
Mof_H 	H 	0.30711	0.69289	0.04	0.039
Mof_H 	H 	0.80711	0.69289	0.54	0.039
Mof_H 	H 	0.30711	0.80711	0.46	0.039
Mof_H 	H 	0.30711	0.30711	0.96	0.039
Mof_H 	H 	0.80711	0.80711	0.96	0.039
Mof_H 	H 	0.69289	0.80711	0.54	0.039
Mof_H 	H 	0.69289	0.30711	0.04	0.039
Mof_H 	H 	0.19289	0.54	0.30711	0.039
Mof_H 	H 	0.19289	0.04	0.80711	0.039
Mof_H 	H 	0.69289	0.54	0.80711	0.039
Mof_H 	H 	0.19289	0.46	0.69289	0.039
Mof_H 	H 	0.19289	0.96	0.19289	0.039
Mof_H 	H 	0.69289	0.96	0.69289	0.039
Mof_H 	H 	0.80711	0.54	0.69289	0.039
Mof_H 	H 	0.80711	0.04	0.19289	0.039
Mof_H 	H 	0.80711	0.46	0.30711	0.039
Mof_H 	H 	0.80711	0.96	0.80711	0.039
Mof_H 	H 	0.30711	0.46	0.80711	0.039
Mof_H 	H 	0.30711	0.96	0.30711	0.039
Mof_H 	H 	0.69289	0.04	0.30711	0.039
Mof_H 	H 	0.69289	0.46	0.19289	0.039
Mof_H 	H 	0.30711	0.54	0.19289	0.039
Mof_H 	H 	0.30711	0.04	0.69289	0.039
Mof_H 	H 	0.80711	0.30711	0.46	0.039
Mof_H 	H 	0.80711	0.19289	0.04	0.039
Mof_H 	H 	0.19289	0.69289	0.46	0.039
Mof_H 	H 	0.19289	0.19289	0.96	0.039
Mof_H 	H 	0.19289	0.30711	0.54	0.039
Mof_H 	H 	0.19289	0.80711	0.04	0.039
Mof_H 	H 	0.46	0.80711	0.30711	0.039
Mof_H 	H 	0.04	0.80711	0.19289	0.039
Mof_H 	H 	0.46	0.19289	0.69289	0.039
Mof_H 	H 	0.96	0.19289	0.19289	0.039
Mof_H 	H 	0.54	0.19289	0.30711	0.039
Mof_H 	H 	0.04	0.19289	0.80711	0.039
Mof_H 	H 	0.46	0.30711	0.19289	0.039
Mof_H 	H 	0.96	0.30711	0.69289	0.039
Mof_H 	H 	0.54	0.69289	0.19289	0.039
Mof_H 	H 	0.96	0.69289	0.30711	0.039
Mof_H 	H 	0.54	0.30711	0.80711	0.039
Mof_H 	H 	0.04	0.30711	0.30711	0.039
Mof_H 	H 	0.30711	0.80711	0.54	0.039
Mof_H 	H 	0.30711	0.30711	0.04	0.039
Mof_H 	H 	0.69289	0.30711	0.96	0.039
Mof_H 	H 	0.69289	0.19289	0.54	0.039
Mof_H 	H 	0.30711	0.19289	0.46	0.039
Mof_H 	H 	0.30711	0.69289	0.96	0.039
Mof_H 	H 	0.80711	0.96	0.19289	0.039
Mof_H 	H 	0.80711	0.54	0.30711	0.039
Mof_H 	H 	0.19289	0.46	0.30711	0.039
Mof_H 	H 	0.19289	0.96	0.80711	0.039
Mof_H 	H 	0.19289	0.54	0.69289	0.039
Mof_H 	H 	0.19289	0.04	0.19289	0.039
_end
