data_functionalizedCrystal
_audit_creation_method	'EQeq! by Chris Wilmer'
_symmetry_space_group_name_H-M	'P1'
_symmetry_Int_Tables_number	1
_symmetry_cell_setting	triclinic
loop_
_symmetry_equiv_pos_as_xyz
  x,y,z
_cell_length_a	15.854
_cell_length_b	10.515
_cell_length_c	20.947
_cell_angle_alpha	90
_cell_angle_beta	107.587
_cell_angle_gamma	90
loop_
_atom_site_label
_atom_site_type_symbol
_atom_site_fract_x
_atom_site_fract_y
_atom_site_fract_z
_atom_site_charge
Mof_C 	C 	0.7476	0.7278	0.7548	0.035
Mof_C 	C 	0.7313	0.8005	0.806	-0.045
Mof_H 	H 	0.7652	0.7865	0.8501	0.062
Mof_C 	C 	0.6661	0.8922	0.7924	-0.078
Mof_C 	C 	0.6133	0.9143	0.7273	0.054
Mof_H 	H 	0.5684	0.9747	0.7183	0.024
Mof_C 	C 	0.6292	0.8435	0.6757	-0.151
Mof_C 	C 	0.6959	0.7532	0.6893	-0.006
Mof_H 	H 	0.7065	0.7087	0.6541	0.042
Mof_C 	C 	0.5753	0.8675	0.604	0.531
Mof_C 	C 	0.6187	0.1682	0.5687	0.581
Mof_C 	C 	0.6781	0.268	0.6088	-0.293
Mof_C 	C 	0.6528	0.335	0.6567	0.212
Mof_H 	H 	0.6003	0.3145	0.6654	-0.054
Mof_C 	C 	0.7053	0.4327	0.6918	-0.287
Mof_H 	H 	0.6879	0.4764	0.7242	0.133
Mof_C 	C 	0.7828	0.4661	0.6795	0.224
Mof_C 	C 	0.8086	0.397	0.6324	-0.285
Mof_H 	H 	0.8616	0.4165	0.6243	0.126
Mof_C 	C 	0.7568	0.2994	0.5974	0.211
Mof_H 	H 	0.7751	0.2542	0.5658	-0.022
Mof_C 	C 	0.8399	0.5766	0.7142	-0.229
Mof_H 	H 	0.9005	0.5474	0.7323	0.1
Mof_H 	H 	0.8389	0.6419	0.6813	0.103
Mof_C 	C 	0.8653	0.6018	0.8353	-0.204
Mof_H 	H 	0.8807	0.5123	0.8371	0.089
Mof_H 	H 	0.83	0.615	0.8653	0.09
Mof_C 	C 	0.9496	0.6792	0.8602	0.184
Mof_C 	C 	0.9646	0.7852	0.8282	-0.238
Mof_H 	H 	0.9219	0.8114	0.7893	0.124
Mof_C 	C 	0.0422	0.8559	0.8521	0.146
Mof_H 	H 	0.0512	0.9275	0.8289	-0.006
Mof_C 	C 	0.1049	0.8193	0.9097	-0.218
Mof_C 	C 	0.0923	0.7114	0.9417	0.149
Mof_H 	H 	0.1359	0.6849	0.98	-0.023
Mof_C 	C 	0.0153	0.6408	0.9177	-0.236
Mof_H 	H 	0.0075	0.5675	0.9402	0.103
Mof_C 	C 	0.1875	0.8958	0.9374	0.436
Mof_C 	C 	0.653	0.9676	0.8497	0.331
Mof_O 	O 	0.502	0.9203	0.59256	-0.595
Mof_O 	O 	0.6079	0.8312	0.55943	-0.57
Mof_O 	O 	0.5395	0.1701	0.5669	-0.628
Mof_O 	O 	0.6514	0.0881	0.53819	-0.527
Mof_O 	O 	0.1955	0.9919	0.9005	-0.264
Mof_O 	O 	0.2419	0.8668	0.9897	-0.505
Mof_O 	O 	0.6886	0.9295	0.90836	-0.432
Mof_O 	O 	0.6056	0.066	0.83851	-0.482
Mof_Eu	Eu	0.39911	0.07866	0.54577	2.363
Mof_N 	N 	0.8122	0.6326	0.7679	-0.066
Mof_C 	C 	0.2524	0.7278	0.7452	0.037
Mof_C 	C 	0.2687	0.8005	0.694	-0.045
Mof_H 	H 	0.2348	0.7865	0.6499	0.062
Mof_C 	C 	0.3339	0.8922	0.7076	-0.077
Mof_C 	C 	0.3867	0.9143	0.7727	0.052
Mof_H 	H 	0.4316	0.9747	0.7817	0.025
Mof_C 	C 	0.3708	0.8435	0.8243	-0.149
Mof_C 	C 	0.3041	0.7532	0.8107	-0.007
Mof_H 	H 	0.2935	0.7087	0.8459	0.043
Mof_C 	C 	0.4247	0.8675	0.896	0.529
Mof_C 	C 	0.3813	0.1682	0.9313	0.58
Mof_C 	C 	0.3219	0.268	0.8912	-0.293
Mof_C 	C 	0.3472	0.335	0.8433	0.212
Mof_H 	H 	0.3997	0.3145	0.8346	-0.054
Mof_C 	C 	0.2947	0.4327	0.8082	-0.287
Mof_H 	H 	0.3121	0.4764	0.7758	0.133
Mof_C 	C 	0.2172	0.4661	0.8205	0.224
Mof_C 	C 	0.1914	0.397	0.8676	-0.286
Mof_H 	H 	0.1384	0.4165	0.8757	0.126
Mof_C 	C 	0.2432	0.2994	0.9026	0.211
Mof_H 	H 	0.2249	0.2542	0.9342	-0.023
Mof_C 	C 	0.1601	0.5766	0.7858	-0.23
Mof_H 	H 	0.0995	0.5474	0.7677	0.101
Mof_H 	H 	0.1611	0.6419	0.8187	0.103
Mof_C 	C 	0.1347	0.6018	0.6647	-0.206
Mof_H 	H 	0.1193	0.5123	0.6629	0.09
Mof_H 	H 	0.17	0.615	0.6347	0.091
Mof_C 	C 	0.0504	0.6792	0.6398	0.187
Mof_C 	C 	0.0354	0.7852	0.6718	-0.234
Mof_H 	H 	0.0781	0.8114	0.7107	0.123
Mof_C 	C 	0.9578	0.8559	0.6479	0.142
Mof_H 	H 	0.9488	0.9275	0.6711	-0.005
Mof_C 	C 	0.8951	0.8193	0.5903	-0.218
Mof_C 	C 	0.9077	0.7114	0.5583	0.15
Mof_H 	H 	0.8641	0.6849	0.52	-0.024
Mof_C 	C 	0.9847	0.6408	0.5823	-0.241
Mof_H 	H 	0.9925	0.5675	0.5598	0.104
Mof_C 	C 	0.8125	0.8958	0.5626	0.437
Mof_C 	C 	0.347	0.9676	0.6503	0.329
Mof_O 	O 	0.498	0.9203	0.90744	-0.591
Mof_O 	O 	0.3921	0.8312	0.94057	-0.566
Mof_O 	O 	0.4605	0.1701	0.9331	-0.627
Mof_O 	O 	0.3486	0.0881	0.96181	-0.528
Mof_O 	O 	0.8045	0.9919	0.5995	-0.267
Mof_O 	O 	0.7581	0.8668	0.5103	-0.509
Mof_O 	O 	0.3114	0.9295	0.59164	-0.434
Mof_O 	O 	0.3944	0.066	0.66149	-0.482
Mof_Eu	Eu	0.60089	0.07866	0.95423	2.348
Mof_N 	N 	0.1878	0.6326	0.7321	-0.066
Mof_C 	C 	0.2524	0.2722	0.2452	0.036
Mof_C 	C 	0.2687	0.1995	0.194	-0.044
Mof_H 	H 	0.2348	0.2135	0.1499	0.062
Mof_C 	C 	0.3339	0.1078	0.2076	-0.078
Mof_C 	C 	0.3867	0.0857	0.2727	0.054
Mof_H 	H 	0.4316	0.0253	0.2817	0.024
Mof_C 	C 	0.3708	0.1565	0.3243	-0.151
Mof_C 	C 	0.3041	0.2468	0.3107	-0.006
Mof_H 	H 	0.2935	0.2913	0.3459	0.042
Mof_C 	C 	0.4247	0.1325	0.396	0.531
Mof_C 	C 	0.3813	0.8318	0.4313	0.581
Mof_C 	C 	0.3219	0.732	0.3912	-0.293
Mof_C 	C 	0.3472	0.665	0.3433	0.212
Mof_H 	H 	0.3997	0.6855	0.3346	-0.054
Mof_C 	C 	0.2947	0.5673	0.3082	-0.287
Mof_H 	H 	0.3121	0.5236	0.2758	0.133
Mof_C 	C 	0.2172	0.5339	0.3205	0.224
Mof_C 	C 	0.1914	0.603	0.3676	-0.285
Mof_H 	H 	0.1384	0.5835	0.3757	0.126
Mof_C 	C 	0.2432	0.7006	0.4026	0.211
Mof_H 	H 	0.2249	0.7458	0.4342	-0.022
Mof_C 	C 	0.1601	0.4234	0.2858	-0.229
Mof_H 	H 	0.0995	0.4526	0.2677	0.1
Mof_H 	H 	0.1611	0.3581	0.3187	0.103
Mof_C 	C 	0.1347	0.3982	0.1647	-0.204
Mof_H 	H 	0.1193	0.4877	0.1629	0.089
Mof_H 	H 	0.17	0.385	0.1347	0.09
Mof_C 	C 	0.0504	0.3208	0.1398	0.184
Mof_C 	C 	0.0354	0.2148	0.1718	-0.238
Mof_H 	H 	0.0781	0.1886	0.2107	0.124
Mof_C 	C 	0.9578	0.1441	0.1479	0.146
Mof_H 	H 	0.9488	0.0725	0.1711	-0.006
Mof_C 	C 	0.8951	0.1807	0.0903	-0.218
Mof_C 	C 	0.9077	0.2886	0.0583	0.149
Mof_H 	H 	0.8641	0.3151	0.02	-0.023
Mof_C 	C 	0.9847	0.3592	0.0823	-0.236
Mof_H 	H 	0.9925	0.4325	0.0598	0.103
Mof_C 	C 	0.8125	0.1042	0.0626	0.436
Mof_C 	C 	0.347	0.0324	0.1503	0.331
Mof_O 	O 	0.498	0.0797	0.40744	-0.595
Mof_O 	O 	0.3921	0.1688	0.44057	-0.57
Mof_O 	O 	0.4605	0.8299	0.4331	-0.628
Mof_O 	O 	0.3486	0.9119	0.46181	-0.527
Mof_O 	O 	0.8045	0.0081	0.0995	-0.264
Mof_O 	O 	0.7581	0.1332	0.0103	-0.505
Mof_O 	O 	0.3114	0.0705	0.09164	-0.432
Mof_O 	O 	0.3944	0.934	0.16149	-0.482
Mof_Eu	Eu	0.60089	0.92134	0.45423	2.363
Mof_N 	N 	0.1878	0.3674	0.2321	-0.066
Mof_C 	C 	0.7476	0.2722	0.2548	0.037
Mof_C 	C 	0.7313	0.1995	0.306	-0.045
Mof_H 	H 	0.7652	0.2135	0.3501	0.062
Mof_C 	C 	0.6661	0.1078	0.2924	-0.077
Mof_C 	C 	0.6133	0.0857	0.2273	0.052
Mof_H 	H 	0.5684	0.0253	0.2183	0.025
Mof_C 	C 	0.6292	0.1565	0.1757	-0.149
Mof_C 	C 	0.6959	0.2468	0.1893	-0.007
Mof_H 	H 	0.7065	0.2913	0.1541	0.043
Mof_C 	C 	0.5753	0.1325	0.104	0.529
Mof_C 	C 	0.6187	0.8318	0.0687	0.58
Mof_C 	C 	0.6781	0.732	0.1088	-0.293
Mof_C 	C 	0.6528	0.665	0.1567	0.212
Mof_H 	H 	0.6003	0.6855	0.1654	-0.054
Mof_C 	C 	0.7053	0.5673	0.1918	-0.287
Mof_H 	H 	0.6879	0.5236	0.2242	0.133
Mof_C 	C 	0.7828	0.5339	0.1795	0.224
Mof_C 	C 	0.8086	0.603	0.1324	-0.286
Mof_H 	H 	0.8616	0.5835	0.1243	0.126
Mof_C 	C 	0.7568	0.7006	0.0974	0.211
Mof_H 	H 	0.7751	0.7458	0.0658	-0.023
Mof_C 	C 	0.8399	0.4234	0.2142	-0.23
Mof_H 	H 	0.9005	0.4526	0.2323	0.101
Mof_H 	H 	0.8389	0.3581	0.1813	0.103
Mof_C 	C 	0.8653	0.3982	0.3353	-0.206
Mof_H 	H 	0.8807	0.4877	0.3371	0.09
Mof_H 	H 	0.83	0.385	0.3653	0.091
Mof_C 	C 	0.9496	0.3208	0.3602	0.187
Mof_C 	C 	0.9646	0.2148	0.3282	-0.234
Mof_H 	H 	0.9219	0.1886	0.2893	0.123
Mof_C 	C 	0.0422	0.1441	0.3521	0.142
Mof_H 	H 	0.0512	0.0725	0.3289	-0.005
Mof_C 	C 	0.1049	0.1807	0.4097	-0.218
Mof_C 	C 	0.0923	0.2886	0.4417	0.15
Mof_H 	H 	0.1359	0.3151	0.48	-0.024
Mof_C 	C 	0.0153	0.3592	0.4177	-0.241
Mof_H 	H 	0.0075	0.4325	0.4402	0.104
Mof_C 	C 	0.1875	0.1042	0.4374	0.437
Mof_C 	C 	0.653	0.0324	0.3497	0.329
Mof_O 	O 	0.502	0.0797	0.09256	-0.591
Mof_O 	O 	0.6079	0.1688	0.05943	-0.566
Mof_O 	O 	0.5395	0.8299	0.0669	-0.627
Mof_O 	O 	0.6514	0.9119	0.03819	-0.528
Mof_O 	O 	0.1955	0.0081	0.4005	-0.267
Mof_O 	O 	0.2419	0.1332	0.4897	-0.509
Mof_O 	O 	0.6886	0.0705	0.40836	-0.434
Mof_O 	O 	0.6056	0.934	0.33851	-0.482
Mof_Eu	Eu	0.39911	0.92134	0.04577	2.348
Mof_N 	N 	0.8122	0.3674	0.2679	-0.066
_end
