data_functionalizedCrystal
_audit_creation_method	'EQeq! by Chris Wilmer'
_symmetry_space_group_name_H-M	'P1'
_symmetry_Int_Tables_number	1
_symmetry_cell_setting	triclinic
loop_
_symmetry_equiv_pos_as_xyz
  x,y,z
_cell_length_a	17.0093
_cell_length_b	11.9939
_cell_length_c	25.0317
_cell_angle_alpha	90
_cell_angle_beta	92.911
_cell_angle_gamma	90
loop_
_atom_site_label
_atom_site_type_symbol
_atom_site_fract_x
_atom_site_fract_y
_atom_site_fract_z
_atom_site_charge
Mof_Cu	Cu	0.04641	0.69513	0.12147	0.877
Mof_S 	S 	0.778	0.426	0.10954	0.056
Mof_S 	S 	0.2827	0.4614	0.13616	0.045
Mof_O 	O 	0.4616	0.289	0.0912	-0.442
Mof_O 	O 	0.9694	0.5905	0.1484	-0.358
Mof_O 	O 	0.6272	0.311	0.1154	-0.437
Mof_O 	O 	0.1045	0.5772	0.0492	-0.471
Mof_O 	O 	0.1339	0.5913	0.1363	-0.4
Mof_O 	O 	0.9187	0.539	0.0689	-0.396
Mof_C 	C 	0.4166	0.3354	0.122	0.442
Mof_O 	O 	0.4288	0.3464	0.1707	-0.497
Mof_C 	C 	0.917	0.5491	0.1176	0.386
Mof_C 	C 	0.2192	0.4856	0.0818	-0.111
Mof_C 	C 	0.1482	0.5525	0.0897	0.334
Mof_C 	C 	0.8457	0.5071	0.1451	-0.096
Mof_O 	O 	0.6089	0.342	0.2012	-0.485
Mof_C 	C 	0.3447	0.382	0.0967	-0.144
Mof_C 	C 	0.3149	0.3812	0.0448	0.011
Mof_H 	H 	0.3389	0.3437	0.0174	0.014
Mof_C 	C 	0.6467	0.3455	0.1578	0.422
Mof_C 	C 	0.2444	0.4427	0.0367	-0.03
Mof_H 	H 	0.2184	0.4523	0.0034	0.027
Mof_C 	C 	0.7209	0.415	0.1637	-0.118
Mof_C 	C 	0.8236	0.534	0.1944	-0.012
Mof_H 	H 	0.8515	0.5808	0.218	0.052
Mof_C 	C 	0.7513	0.479	0.2054	0.004
Mof_H 	H 	0.7271	0.4869	0.2377	0.03
Mof_Cu	Cu	0.54641	0.19513	0.12147	0.926
Mof_S 	S 	0.278	0.926	0.10954	0.105
Mof_S 	S 	0.7827	0.9614	0.13616	0.086
Mof_O 	O 	0.9616	0.789	0.0912	-0.363
Mof_O 	O 	0.4694	0.0905	0.1484	-0.441
Mof_O 	O 	0.1272	0.811	0.1154	-0.454
Mof_O 	O 	0.6045	0.0772	0.0492	-0.465
Mof_O 	O 	0.6339	0.0913	0.1363	-0.382
Mof_O 	O 	0.4187	0.039	0.0689	-0.48
Mof_C 	C 	0.9166	0.8354	0.122	0.418
Mof_O 	O 	0.9288	0.8464	0.1707	-0.408
Mof_C 	C 	0.417	0.0491	0.1176	0.41
Mof_C 	C 	0.7192	0.9856	0.0818	-0.056
Mof_C 	C 	0.6482	0.0525	0.0897	0.29
Mof_C 	C 	0.3457	0.0071	0.1451	-0.144
Mof_O 	O 	0.1089	0.842	0.2012	-0.481
Mof_C 	C 	0.8447	0.882	0.0967	-0.122
Mof_C 	C 	0.8149	0.8812	0.0448	0.021
Mof_H 	H 	0.8389	0.8437	0.0174	0.035
Mof_C 	C 	0.1467	0.8455	0.1578	0.425
Mof_C 	C 	0.7444	0.9427	0.0367	-0.04
Mof_H 	H 	0.7184	0.9523	0.0034	0.05
Mof_C 	C 	0.2209	0.915	0.1637	-0.144
Mof_C 	C 	0.3236	0.034	0.1944	-0.074
Mof_H 	H 	0.3515	0.0808	0.218	0.047
Mof_C 	C 	0.2513	0.979	0.2054	0.074
Mof_H 	H 	0.2271	0.9869	0.2377	0.012
Mof_Cu	Cu	0.95359	0.69513	0.37853	0.984
Mof_S 	S 	0.222	0.426	0.39046	0.055
Mof_S 	S 	0.7173	0.4614	0.36384	0.063
Mof_O 	O 	0.5384	0.289	0.4088	-0.437
Mof_O 	O 	0.0306	0.5905	0.3516	-0.492
Mof_O 	O 	0.3728	0.311	0.3846	-0.432
Mof_O 	O 	0.8955	0.5772	0.4508	-0.395
Mof_O 	O 	0.8661	0.5913	0.3637	-0.353
Mof_O 	O 	0.0813	0.539	0.4311	-0.473
Mof_C 	C 	0.5834	0.3354	0.378	0.445
Mof_O 	O 	0.5712	0.3464	0.3293	-0.495
Mof_C 	C 	0.083	0.5491	0.3824	0.414
Mof_C 	C 	0.7808	0.4856	0.4182	-0.09
Mof_C 	C 	0.8518	0.5525	0.4103	0.334
Mof_C 	C 	0.1543	0.5071	0.3549	-0.131
Mof_O 	O 	0.3911	0.342	0.2988	-0.487
Mof_C 	C 	0.6553	0.382	0.4033	-0.142
Mof_C 	C 	0.6851	0.3812	0.4552	0.023
Mof_H 	H 	0.6611	0.3437	0.4826	0.024
Mof_C 	C 	0.3533	0.3455	0.3422	0.418
Mof_C 	C 	0.7556	0.4427	0.4633	-0.028
Mof_H 	H 	0.7816	0.4523	0.4966	0.05
Mof_C 	C 	0.2791	0.415	0.3363	-0.117
Mof_C 	C 	0.1764	0.534	0.3056	0.001
Mof_H 	H 	0.1485	0.5808	0.282	0.023
Mof_C 	C 	0.2487	0.479	0.2946	-0.014
Mof_H 	H 	0.2729	0.4869	0.2623	0.031
Mof_Cu	Cu	0.45359	0.19513	0.37853	0.926
Mof_S 	S 	0.722	0.926	0.39046	0.139
Mof_S 	S 	0.2173	0.9614	0.36384	0.064
Mof_O 	O 	0.0384	0.789	0.4088	-0.483
Mof_O 	O 	0.5306	0.0905	0.3516	-0.443
Mof_O 	O 	0.8728	0.811	0.3846	-0.393
Mof_O 	O 	0.3955	0.0772	0.4508	-0.464
Mof_O 	O 	0.3661	0.0913	0.3637	-0.385
Mof_O 	O 	0.5813	0.039	0.4311	-0.478
Mof_C 	C 	0.0834	0.8354	0.378	0.444
Mof_O 	O 	0.0712	0.8464	0.3293	-0.494
Mof_C 	C 	0.583	0.0491	0.3824	0.417
Mof_C 	C 	0.2808	0.9856	0.4182	-0.046
Mof_C 	C 	0.3518	0.0525	0.4103	0.288
Mof_C 	C 	0.6543	0.0071	0.3549	-0.15
Mof_O 	O 	0.8911	0.842	0.2988	-0.407
Mof_C 	C 	0.1553	0.882	0.4033	-0.151
Mof_C 	C 	0.1851	0.8812	0.4552	0.039
Mof_H 	H 	0.1611	0.8437	0.4826	0.016
Mof_C 	C 	0.8533	0.8455	0.3422	0.416
Mof_C 	C 	0.2556	0.9427	0.4633	-0.058
Mof_H 	H 	0.2816	0.9523	0.4966	0.066
Mof_C 	C 	0.7791	0.915	0.3363	-0.127
Mof_C 	C 	0.6764	0.034	0.3056	-0.062
Mof_H 	H 	0.6485	0.0808	0.282	0.047
Mof_C 	C 	0.7487	0.979	0.2946	0.072
Mof_H 	H 	0.7729	0.9869	0.2623	0.026
Mof_Cu	Cu	0.95359	0.30487	0.87853	0.984
Mof_S 	S 	0.222	0.574	0.89046	0.091
Mof_S 	S 	0.7173	0.5386	0.86384	0.068
Mof_O 	O 	0.5384	0.711	0.9088	-0.424
Mof_O 	O 	0.0306	0.4095	0.8516	-0.482
Mof_O 	O 	0.3728	0.689	0.8846	-0.421
Mof_O 	O 	0.8955	0.4228	0.9508	-0.368
Mof_O 	O 	0.8661	0.4087	0.8637	-0.347
Mof_O 	O 	0.0813	0.461	0.9311	-0.437
Mof_C 	C 	0.5834	0.6646	0.878	0.443
Mof_O 	O 	0.5712	0.6536	0.8293	-0.493
Mof_C 	C 	0.083	0.4509	0.8824	0.409
Mof_C 	C 	0.7808	0.5144	0.9182	-0.079
Mof_C 	C 	0.8518	0.4475	0.9103	0.33
Mof_C 	C 	0.1543	0.4929	0.8549	-0.126
Mof_O 	O 	0.3911	0.658	0.7988	-0.483
Mof_C 	C 	0.6553	0.618	0.9033	-0.134
Mof_C 	C 	0.6851	0.6188	0.9552	0.029
Mof_H 	H 	0.6611	0.6563	0.9826	0.043
Mof_C 	C 	0.3533	0.6545	0.8422	0.422
Mof_C 	C 	0.7556	0.5573	0.9633	-0.025
Mof_H 	H 	0.7816	0.5477	0.9966	0.07
Mof_C 	C 	0.2791	0.585	0.8363	-0.118
Mof_C 	C 	0.1764	0.466	0.8056	0.001
Mof_H 	H 	0.1485	0.4192	0.782	0.025
Mof_C 	C 	0.2487	0.521	0.7946	-0.008
Mof_H 	H 	0.2729	0.5131	0.7623	0.03
Mof_Cu	Cu	0.45359	0.80487	0.87853	0.93
Mof_S 	S 	0.722	0.074	0.89046	0.037
Mof_S 	S 	0.2173	0.0386	0.86384	0.036
Mof_O 	O 	0.0384	0.211	0.9088	-0.477
Mof_O 	O 	0.5306	0.9095	0.8516	-0.424
Mof_O 	O 	0.8728	0.189	0.8846	-0.387
Mof_O 	O 	0.3955	0.9228	0.9508	-0.423
Mof_O 	O 	0.3661	0.9087	0.8637	-0.376
Mof_O 	O 	0.5813	0.961	0.9311	-0.408
Mof_C 	C 	0.0834	0.1646	0.878	0.432
Mof_O 	O 	0.0712	0.1536	0.8293	-0.495
Mof_C 	C 	0.583	0.9509	0.8824	0.406
Mof_C 	C 	0.2808	0.0144	0.9182	-0.151
Mof_C 	C 	0.3518	0.9475	0.9103	0.39
Mof_C 	C 	0.6543	0.9929	0.8549	-0.095
Mof_O 	O 	0.8911	0.158	0.7988	-0.405
Mof_C 	C 	0.1553	0.118	0.9033	-0.135
Mof_C 	C 	0.1851	0.1188	0.9552	0.002
Mof_H 	H 	0.1611	0.1563	0.9826	0.034
Mof_C 	C 	0.8533	0.1545	0.8422	0.388
Mof_C 	C 	0.2556	0.0573	0.9633	0.002
Mof_H 	H 	0.2816	0.0477	0.9966	0.038
Mof_C 	C 	0.7791	0.085	0.8363	-0.072
Mof_C 	C 	0.6764	0.966	0.8056	0.08
Mof_H 	H 	0.6485	0.9192	0.782	0.016
Mof_C 	C 	0.7487	0.021	0.7946	-0.096
Mof_H 	H 	0.7729	0.0131	0.7623	0.062
Mof_Cu	Cu	0.04641	0.30487	0.62147	0.878
Mof_S 	S 	0.778	0.574	0.60954	0.089
Mof_S 	S 	0.2827	0.5386	0.63616	0.051
Mof_O 	O 	0.4616	0.711	0.5912	-0.434
Mof_O 	O 	0.9694	0.4095	0.6484	-0.357
Mof_O 	O 	0.6272	0.689	0.6154	-0.427
Mof_O 	O 	0.1045	0.4228	0.5492	-0.474
Mof_O 	O 	0.1339	0.4087	0.6363	-0.399
Mof_O 	O 	0.9187	0.461	0.5689	-0.394
Mof_C 	C 	0.4166	0.6646	0.622	0.442
Mof_O 	O 	0.4288	0.6536	0.6707	-0.496
Mof_C 	C 	0.917	0.4509	0.6176	0.392
Mof_C 	C 	0.2192	0.5144	0.5818	-0.107
Mof_C 	C 	0.1482	0.4475	0.5897	0.339
Mof_C 	C 	0.8457	0.4929	0.6451	-0.097
Mof_O 	O 	0.6089	0.658	0.7012	-0.482
Mof_C 	C 	0.3447	0.618	0.5967	-0.138
Mof_C 	C 	0.3149	0.6188	0.5448	0.016
Mof_H 	H 	0.3389	0.6563	0.5174	0.03
Mof_C 	C 	0.6467	0.6545	0.6578	0.426
Mof_C 	C 	0.2444	0.5573	0.5367	-0.024
Mof_H 	H 	0.2184	0.5477	0.5034	0.042
Mof_C 	C 	0.7209	0.585	0.6637	-0.118
Mof_C 	C 	0.8236	0.466	0.6944	-0.009
Mof_H 	H 	0.8515	0.4192	0.718	0.053
Mof_C 	C 	0.7513	0.521	0.7054	0.008
Mof_H 	H 	0.7271	0.5131	0.7377	0.03
Mof_Cu	Cu	0.54641	0.80487	0.62147	0.928
Mof_S 	S 	0.278	0.074	0.60954	-0
Mof_S 	S 	0.7827	0.0386	0.63616	0.057
Mof_O 	O 	0.9616	0.211	0.5912	-0.364
Mof_O 	O 	0.4694	0.9095	0.6484	-0.428
Mof_O 	O 	0.1272	0.189	0.6154	-0.449
Mof_O 	O 	0.6045	0.9228	0.5492	-0.455
Mof_O 	O 	0.6339	0.9087	0.6363	-0.378
Mof_O 	O 	0.4187	0.961	0.5689	-0.441
Mof_C 	C 	0.9166	0.1646	0.622	0.407
Mof_O 	O 	0.9288	0.1536	0.6707	-0.41
Mof_C 	C 	0.417	0.9509	0.6176	0.41
Mof_C 	C 	0.7192	0.0144	0.5818	-0.169
Mof_C 	C 	0.6482	0.9475	0.5897	0.401
Mof_C 	C 	0.3457	0.9929	0.6451	-0.094
Mof_O 	O 	0.1089	0.158	0.7012	-0.477
Mof_C 	C 	0.8447	0.118	0.5967	-0.108
Mof_C 	C 	0.8149	0.1188	0.5448	-0.018
Mof_H 	H 	0.8389	0.1563	0.5174	0.049
Mof_C 	C 	0.1467	0.1545	0.6578	0.397
Mof_C 	C 	0.7444	0.0573	0.5367	0.022
Mof_H 	H 	0.7184	0.0477	0.5034	0.016
Mof_C 	C 	0.2209	0.085	0.6637	-0.088
Mof_C 	C 	0.3236	0.966	0.6944	0.071
Mof_H 	H 	0.3515	0.9192	0.718	0.015
Mof_C 	C 	0.2513	0.021	0.7054	-0.096
Mof_H 	H 	0.2271	0.0131	0.7377	0.048
Mof_Ca	Ca	0.5	0.359	0.25	1.337
Mof_Ca	Ca	2.7864e-18	0.859	0.25	1.122
Mof_Ca	Ca	0.5	0.641	0.75	1.341
Mof_Ca	Ca	4.34851e-33	0.141	0.75	1.093
Mof_Ca	Ca	-2.47482e-33	0.5	-0	0.975
Mof_Ca	Ca	0.5	0	-0	1.118
Mof_Ca	Ca	5.5728e-18	0.5	0.5	1.066
Mof_Ca	Ca	0.5	9.89929e-33	0.5	1.207
_end
