data_functionalizedCrystal
_audit_creation_method	'EQeq! by Chris Wilmer'
_symmetry_space_group_name_H-M	'P1'
_symmetry_Int_Tables_number	1
_symmetry_cell_setting	triclinic
loop_
_symmetry_equiv_pos_as_xyz
  x,y,z
_cell_length_a	18.59
_cell_length_b	18.59
_cell_length_c	18.59
_cell_angle_alpha	74.8765
_cell_angle_beta	74.8765
_cell_angle_gamma	74.8765
loop_
_atom_site_label
_atom_site_type_symbol
_atom_site_fract_x
_atom_site_fract_y
_atom_site_fract_z
_atom_site_charge
Mof_Zn	Zn	0.50242	0.29842	0.08057	1.148
Mof_Zn	Zn	0.59889	0.26773	0.9097	1.233
Mof_Zn	Zn	0.08057	0.50242	0.29842	1.148
Mof_Zn	Zn	0.9097	0.59889	0.26773	1.233
Mof_Zn	Zn	0.29842	0.08057	0.50242	1.148
Mof_Zn	Zn	0.26773	0.9097	0.59889	1.233
Mof_Zn	Zn	0.79842	0.00242	0.58057	1.149
Mof_Zn	Zn	0.76773	0.09889	0.4097	1.232
Mof_Zn	Zn	0.00242	0.58057	0.79842	1.149
Mof_Zn	Zn	0.09889	0.4097	0.76773	1.233
Mof_Zn	Zn	0.58057	0.79842	0.00242	1.15
Mof_Zn	Zn	0.4097	0.76773	0.09889	1.233
Mof_H 	H 	0.4986	0.5286	0.022	0.005
Mof_H 	H 	0.5665	0.7107	0.8686	-0.005
Mof_H 	H 	0.63	0.503	0.8157	0.039
Mof_H 	H 	0.5616	0.7445	0.7377	0.086
Mof_H 	H 	0.6862	0.1935	0.1818	0.039
Mof_H 	H 	0.8759	0.0283	0.1771	0.062
Mof_H 	H 	0.8027	0.1336	0.9809	0.073
Mof_H 	H 	0.9336	0.1122	0.9317	0.055
Mof_H 	H 	0.022	0.4986	0.5286	0.005
Mof_H 	H 	0.8686	0.5665	0.7107	-0.005
Mof_H 	H 	0.8157	0.63	0.503	0.039
Mof_H 	H 	0.7377	0.5616	0.7445	0.086
Mof_H 	H 	0.1818	0.6862	0.1935	0.039
Mof_H 	H 	0.1771	0.8759	0.0283	0.062
Mof_H 	H 	0.9809	0.8027	0.1336	0.073
Mof_H 	H 	0.9317	0.9336	0.1122	0.055
Mof_H 	H 	0.5286	0.022	0.4986	0.005
Mof_H 	H 	0.7107	0.8686	0.5665	-0.005
Mof_H 	H 	0.503	0.8157	0.63	0.039
Mof_H 	H 	0.7445	0.7377	0.5616	0.086
Mof_H 	H 	0.1935	0.1818	0.6862	0.039
Mof_H 	H 	0.0283	0.1771	0.8759	0.062
Mof_H 	H 	0.1336	0.9809	0.8027	0.073
Mof_H 	H 	0.1122	0.9317	0.9336	0.055
Mof_H 	H 	0.0286	0.9986	0.522	0.035
Mof_H 	H 	0.2107	0.0665	0.3686	-0.013
Mof_H 	H 	0.003	0.13	0.3157	0.034
Mof_H 	H 	0.2445	0.0616	0.2377	0.082
Mof_H 	H 	0.6935	0.1862	0.6818	0.032
Mof_H 	H 	0.5283	0.3759	0.6771	0.051
Mof_H 	H 	0.6336	0.3027	0.4809	0.042
Mof_H 	H 	0.6122	0.4336	0.4317	0.085
Mof_H 	H 	0.9986	0.522	0.0286	0.035
Mof_H 	H 	0.0665	0.3686	0.2107	-0.013
Mof_H 	H 	0.13	0.3157	0.003	0.034
Mof_H 	H 	0.0616	0.2377	0.2445	0.082
Mof_H 	H 	0.1862	0.6818	0.6935	0.032
Mof_H 	H 	0.3759	0.6771	0.5283	0.051
Mof_H 	H 	0.3027	0.4809	0.6336	0.042
Mof_H 	H 	0.4336	0.4317	0.6122	0.085
Mof_H 	H 	0.522	0.0286	0.9986	0.035
Mof_H 	H 	0.3686	0.2107	0.0665	-0.013
Mof_H 	H 	0.3157	0.003	0.13	0.034
Mof_H 	H 	0.2377	0.2445	0.0616	0.082
Mof_H 	H 	0.6818	0.6935	0.1862	0.032
Mof_H 	H 	0.6771	0.5283	0.3759	0.051
Mof_H 	H 	0.4809	0.6336	0.3027	0.042
Mof_H 	H 	0.4317	0.6122	0.4336	0.085
Mof_C 	C 	0.55916	0.41966	0.94255	0.429
Mof_C 	C 	0.56322	0.504	0.92165	-0.138
Mof_C 	C 	0.52548	0.54997	0.97348	0.088
Mof_C 	C 	0.5265	0.62801	0.95484	-0.135
Mof_C 	C 	0.56573	0.65794	0.88223	0.022
Mof_C 	C 	0.60306	0.61264	0.83026	-0.07
Mof_C 	C 	0.60289	0.53503	0.85059	0.031
Mof_C 	C 	0.48446	0.67622	0.01179	0.331
Mof_C 	C 	0.64283	0.64767	0.75258	0.1
Mof_C 	C 	0.61002	0.71861	0.71478	-0.171
Mof_C 	C 	0.67392	0.22101	0.03553	0.367
Mof_C 	C 	0.73526	0.16814	0.07461	-0.081
Mof_C 	C 	0.72735	0.16223	0.15437	0.004
Mof_C 	C 	0.78058	0.11044	0.19001	-0.05
Mof_C 	C 	0.84119	0.06569	0.15009	-0.043
Mof_C 	C 	0.85296	0.07362	0.07174	0.015
Mof_C 	C 	0.79698	0.12684	0.03442	-0.052
Mof_C 	C 	0.92238	0.0311	0.02987	-0.01
Mof_C 	C 	0.95854	0.06494	0.95744	-0.041
Mof_C 	C 	0.77521	0.10031	0.27481	0.286
Mof_C 	C 	0.94255	0.55916	0.41966	0.429
Mof_C 	C 	0.92165	0.56322	0.504	-0.138
Mof_C 	C 	0.97348	0.52548	0.54997	0.088
Mof_C 	C 	0.95484	0.5265	0.62801	-0.135
Mof_C 	C 	0.88223	0.56573	0.65794	0.022
Mof_C 	C 	0.83026	0.60306	0.61264	-0.07
Mof_C 	C 	0.85059	0.60289	0.53503	0.031
Mof_C 	C 	0.01179	0.48446	0.67622	0.331
Mof_C 	C 	0.75258	0.64283	0.64767	0.1
Mof_C 	C 	0.71478	0.61002	0.71861	-0.171
Mof_C 	C 	0.03553	0.67392	0.22101	0.367
Mof_C 	C 	0.07461	0.73526	0.16814	-0.081
Mof_C 	C 	0.15437	0.72735	0.16223	0.004
Mof_C 	C 	0.19001	0.78058	0.11044	-0.05
Mof_C 	C 	0.15009	0.84119	0.06569	-0.043
Mof_C 	C 	0.07174	0.85296	0.07362	0.015
Mof_C 	C 	0.03442	0.79698	0.12684	-0.052
Mof_C 	C 	0.02987	0.92238	0.0311	-0.01
Mof_C 	C 	0.95744	0.95854	0.06494	-0.041
Mof_C 	C 	0.27481	0.77521	0.10031	0.286
Mof_C 	C 	0.41966	0.94255	0.55916	0.429
Mof_C 	C 	0.504	0.92165	0.56322	-0.138
Mof_C 	C 	0.54997	0.97348	0.52548	0.088
Mof_C 	C 	0.62801	0.95484	0.5265	-0.135
Mof_C 	C 	0.65794	0.88223	0.56573	0.022
Mof_C 	C 	0.61264	0.83026	0.60306	-0.07
Mof_C 	C 	0.53503	0.85059	0.60289	0.031
Mof_C 	C 	0.67622	0.01179	0.48446	0.331
Mof_C 	C 	0.64767	0.75258	0.64283	0.1
Mof_C 	C 	0.71861	0.71478	0.61002	-0.171
Mof_C 	C 	0.22101	0.03553	0.67392	0.367
Mof_C 	C 	0.16814	0.07461	0.73526	-0.081
Mof_C 	C 	0.16223	0.15437	0.72735	0.004
Mof_C 	C 	0.11044	0.19001	0.78058	-0.05
Mof_C 	C 	0.06569	0.15009	0.84119	-0.043
Mof_C 	C 	0.07362	0.07174	0.85296	0.015
Mof_C 	C 	0.12684	0.03442	0.79698	-0.052
Mof_C 	C 	0.0311	0.02987	0.92238	-0.01
Mof_C 	C 	0.06494	0.95744	0.95854	-0.041
Mof_C 	C 	0.10031	0.27481	0.77521	0.286
Mof_C 	C 	0.91966	0.05916	0.44255	0.418
Mof_C 	C 	0.004	0.06322	0.42165	-0.136
Mof_C 	C 	0.04997	0.02548	0.47348	0.043
Mof_C 	C 	0.12801	0.0265	0.45484	-0.152
Mof_C 	C 	0.15794	0.06573	0.38223	0.024
Mof_C 	C 	0.11264	0.10306	0.33026	-0.072
Mof_C 	C 	0.03503	0.10289	0.35059	0.026
Mof_C 	C 	0.17622	0.98446	0.51179	0.354
Mof_C 	C 	0.14767	0.14283	0.25258	0.096
Mof_C 	C 	0.21861	0.11002	0.21478	-0.171
Mof_C 	C 	0.72101	0.17392	0.53553	0.395
Mof_C 	C 	0.66814	0.23526	0.57461	-0.112
Mof_C 	C 	0.66223	0.22735	0.65437	0.028
Mof_C 	C 	0.61044	0.28058	0.69001	-0.07
Mof_C 	C 	0.56569	0.34119	0.65009	-0.007
Mof_C 	C 	0.57362	0.35296	0.57174	-0.039
Mof_C 	C 	0.62684	0.29698	0.53442	0.01
Mof_C 	C 	0.5311	0.42238	0.52987	0.09
Mof_C 	C 	0.56494	0.45854	0.45744	-0.15
Mof_C 	C 	0.60031	0.27521	0.77481	0.293
Mof_C 	C 	0.05916	0.44255	0.91966	0.418
Mof_C 	C 	0.06322	0.42165	0.004	-0.136
Mof_C 	C 	0.02548	0.47348	0.04997	0.043
Mof_C 	C 	0.0265	0.45484	0.12801	-0.152
Mof_C 	C 	0.06573	0.38223	0.15794	0.024
Mof_C 	C 	0.10306	0.33026	0.11264	-0.072
Mof_C 	C 	0.10289	0.35059	0.03503	0.026
Mof_C 	C 	0.98446	0.51179	0.17622	0.354
Mof_C 	C 	0.14283	0.25258	0.14767	0.096
Mof_C 	C 	0.11002	0.21478	0.21861	-0.171
Mof_C 	C 	0.17392	0.53553	0.72101	0.395
Mof_C 	C 	0.23526	0.57461	0.66814	-0.112
Mof_C 	C 	0.22735	0.65437	0.66223	0.028
Mof_C 	C 	0.28058	0.69001	0.61044	-0.07
Mof_C 	C 	0.34119	0.65009	0.56569	-0.007
Mof_C 	C 	0.35296	0.57174	0.57362	-0.039
Mof_C 	C 	0.29698	0.53442	0.62684	0.01
Mof_C 	C 	0.42238	0.52987	0.5311	0.09
Mof_C 	C 	0.45854	0.45744	0.56494	-0.15
Mof_C 	C 	0.27521	0.77481	0.60031	0.293
Mof_C 	C 	0.44255	0.91966	0.05916	0.418
Mof_C 	C 	0.42165	0.004	0.06322	-0.136
Mof_C 	C 	0.47348	0.04997	0.02548	0.043
Mof_C 	C 	0.45484	0.12801	0.0265	-0.152
Mof_C 	C 	0.38223	0.15794	0.06573	0.024
Mof_C 	C 	0.33026	0.11264	0.10306	-0.072
Mof_C 	C 	0.35059	0.03503	0.10289	0.026
Mof_C 	C 	0.51179	0.17622	0.98446	0.354
Mof_C 	C 	0.25258	0.14767	0.14283	0.096
Mof_C 	C 	0.21478	0.21861	0.11002	-0.171
Mof_C 	C 	0.53553	0.72101	0.17392	0.395
Mof_C 	C 	0.57461	0.66814	0.23526	-0.112
Mof_C 	C 	0.65437	0.66223	0.22735	0.028
Mof_C 	C 	0.69001	0.61044	0.28058	-0.07
Mof_C 	C 	0.65009	0.56569	0.34119	-0.007
Mof_C 	C 	0.57174	0.57362	0.35296	-0.039
Mof_C 	C 	0.53442	0.62684	0.29698	0.01
Mof_C 	C 	0.52987	0.5311	0.42238	0.09
Mof_C 	C 	0.45744	0.56494	0.45854	-0.15
Mof_C 	C 	0.77481	0.60031	0.27521	0.293
Mof_O 	O 	0.59913	0.37908	0.89636	-0.459
Mof_O 	O 	0.5141	0.39893	0.00309	-0.526
Mof_O 	O 	0.44139	0.6487	0.07074	-0.369
Mof_O 	O 	0.49162	0.7449	0.00018	-0.579
Mof_O 	O 	0.74453	0.15791	0.30492	-0.382
Mof_O 	O 	0.80217	0.03739	0.31161	-0.35
Mof_O 	O 	0.68262	0.22105	0.96613	-0.441
Mof_O 	O 	0.61964	0.25953	0.07421	-0.504
Mof_O 	O 	0.89636	0.59913	0.37908	-0.459
Mof_O 	O 	0.00309	0.5141	0.39893	-0.526
Mof_O 	O 	0.07074	0.44139	0.6487	-0.369
Mof_O 	O 	0.00018	0.49162	0.7449	-0.579
Mof_O 	O 	0.30492	0.74453	0.15791	-0.382
Mof_O 	O 	0.31161	0.80217	0.03739	-0.35
Mof_O 	O 	0.96613	0.68262	0.22105	-0.441
Mof_O 	O 	0.07421	0.61964	0.25953	-0.504
Mof_O 	O 	0.37908	0.89636	0.59913	-0.459
Mof_O 	O 	0.39893	0.00309	0.5141	-0.526
Mof_O 	O 	0.6487	0.07074	0.44139	-0.369
Mof_O 	O 	0.7449	0.00018	0.49162	-0.579
Mof_O 	O 	0.15791	0.30492	0.74453	-0.382
Mof_O 	O 	0.03739	0.31161	0.80217	-0.35
Mof_O 	O 	0.22105	0.96613	0.68262	-0.441
Mof_O 	O 	0.25953	0.07421	0.61964	-0.504
Mof_O 	O 	0.87908	0.09913	0.39636	-0.456
Mof_O 	O 	0.89893	0.0141	0.50309	-0.512
Mof_O 	O 	0.1487	0.94139	0.57074	-0.37
Mof_O 	O 	0.2449	0.99162	0.50018	-0.573
Mof_O 	O 	0.65791	0.24453	0.80492	-0.382
Mof_O 	O 	0.53739	0.30217	0.81161	-0.348
Mof_O 	O 	0.72105	0.18262	0.46613	-0.457
Mof_O 	O 	0.75953	0.11964	0.57421	-0.507
Mof_O 	O 	0.09913	0.39636	0.87908	-0.456
Mof_O 	O 	0.0141	0.50309	0.89893	-0.512
Mof_O 	O 	0.94139	0.57074	0.1487	-0.37
Mof_O 	O 	0.99162	0.50018	0.2449	-0.573
Mof_O 	O 	0.24453	0.80492	0.65791	-0.382
Mof_O 	O 	0.30217	0.81161	0.53739	-0.348
Mof_O 	O 	0.18262	0.46613	0.72105	-0.457
Mof_O 	O 	0.11964	0.57421	0.75953	-0.507
Mof_O 	O 	0.39636	0.87908	0.09913	-0.456
Mof_O 	O 	0.50309	0.89893	0.0141	-0.512
Mof_O 	O 	0.57074	0.1487	0.94139	-0.37
Mof_O 	O 	0.50018	0.2449	0.99162	-0.573
Mof_O 	O 	0.80492	0.65791	0.24453	-0.382
Mof_O 	O 	0.81161	0.53739	0.30217	-0.348
Mof_O 	O 	0.46613	0.72105	0.18262	-0.457
Mof_O 	O 	0.57421	0.75953	0.11964	-0.507
_end
