data_functionalizedCrystal
_audit_creation_method	'EQeq! by Chris Wilmer'
_symmetry_space_group_name_H-M	'P1'
_symmetry_Int_Tables_number	1
_symmetry_cell_setting	triclinic
loop_
_symmetry_equiv_pos_as_xyz
  x,y,z
_cell_length_a	13.081
_cell_length_b	16.379
_cell_length_c	15.407
_cell_angle_alpha	90
_cell_angle_beta	102.368
_cell_angle_gamma	90
loop_
_atom_site_label
_atom_site_type_symbol
_atom_site_fract_x
_atom_site_fract_y
_atom_site_fract_z
_atom_site_charge
Mof_Ni	Ni	0.48884	0.30586	0.57391	1.005
Mof_V 	V 	0.34094	0.33234	0.35453	1.712
Mof_V 	V 	0.27631	0.65855	0.25152	1.735
Mof_V 	V 	0.21851	0.50397	0.378	1.719
Mof_O 	O 	0.11347	0.49888	0.42107	-0.726
Mof_O 	O 	0.20195	0.58293	0.29693	-0.914
Mof_O 	O 	0.62118	0.31387	0.67173	-0.836
Mof_O 	O 	0.23726	0.40738	0.33093	-0.916
Mof_O 	O 	0.3033	0.24596	0.28597	-0.906
Mof_O 	O 	0.36682	0.30945	0.46192	-0.829
Mof_N 	N 	0.01124	0.36893	0.51236	-0.258
Mof_N 	N 	0.38089	0.02037	0.88675	-0.261
Mof_N 	N 	0.01578	0.67877	0.92433	-0.295
Mof_N 	N 	0.38962	0.30581	0.66265	-0.287
Mof_C 	C 	0.3926	0.07092	0.8209	0.127
Mof_H 	H 	0.4594	0.0896	0.8198	-0.026
Mof_C 	C 	0.0179	0.19754	0.51764	0.141
Mof_C 	C 	0.2471	0.30951	0.77491	0.223
Mof_C 	C 	0.4216	0.3197	0.7497	0.148
Mof_H 	H 	0.4925	0.3286	0.7728	-0.103
Mof_C 	C 	0.9455	0.63502	0.8679	0.149
Mof_H 	H 	0.8873	0.6617	0.8346	-0.06
Mof_C 	C 	0.2163	0.29613	0.6849	-0.264
Mof_H 	H 	0.1458	0.2883	0.6595	0.113
Mof_C 	C 	0.0765	0.24181	0.46991	-0.203
Mof_H 	H 	0.1198	0.2149	0.4386	0.041
Mof_C 	C 	0.9549	0.55175	0.8565	-0.232
Mof_H 	H 	0.9035	0.5238	0.8164	0.074
Mof_C 	C 	0.9537	0.32597	0.5585	0.122
Mof_H 	H 	0.9116	0.3543	0.5898	-0.069
Mof_C 	C 	0.285	0.9928	0.88435	0.143
Mof_H 	H 	0.2755	0.9563	0.9282	-0.101
Mof_C 	C 	0.2095	0.06882	0.75405	0.189
Mof_C 	C 	0.3104	0.09623	0.75519	-0.244
Mof_H 	H 	0.3222	0.1318	0.7113	0.118
Mof_C 	C 	0.0268	0.10586	0.5226	-0.334
Mof_H 	H 	0.0303	0.0846	0.4645	0.082
Mof_H 	H 	0.9648	0.0835	0.5387	0.111
Mof_C 	C 	0.1988	0.01517	0.8206	-0.293
Mof_H 	H 	0.1333	0.9941	0.8224	0.049
Mof_C 	C 	0.3529	0.3213	0.8066	-0.271
Mof_H 	H 	0.3784	0.3304	0.867	0.115
Mof_C 	C 	0.0713	0.3257	0.46843	0.095
Mof_H 	H 	0.1114	0.3539	0.4353	-0.051
Mof_C 	C 	0.1151	0.0948	0.6865	-0.295
Mof_H 	H 	0.0543	0.0661	0.6977	0.043
Mof_H 	H 	0.1038	0.1527	0.6934	0.083
Mof_C 	C 	0.1246	0.07824	0.5911	0.094
Mof_H 	H 	0.1353	0.0202	0.5839	-0.027
Mof_H 	H 	0.1854	0.1067	0.5798	-0.01
Mof_C 	C 	0.0975	0.63795	0.97196	0.167
Mof_H 	H 	0.1471	0.6668	0.0128	-0.102
Mof_C 	C 	0.0396	0.51019	0.9039	0.211
Mof_C 	C 	0.1115	0.55524	0.9633	-0.276
Mof_H 	H 	0.1698	0.5297	0.9976	0.098
Mof_C 	C 	0.9537	0.24141	0.5619	-0.203
Mof_H 	H 	0.911	0.2142	0.5936	0.053
Mof_C 	C 	0.1695	0.31666	0.8332	-0.329
Mof_H 	H 	0.2009	0.2982	0.8928	0.089
Mof_H 	H 	0.109	0.2827	0.8102	0.069
Mof_C 	C 	0.288	0.29429	0.63262	0.136
Mof_H 	H 	0.2643	0.2843	0.5722	-0.037
Mof_C 	C 	0.1361	0.40553	0.8356	0.122
Mof_H 	H 	0.1975	0.4386	0.8583	-0.009
Mof_H 	H 	0.1066	0.4234	0.7755	-0.013
Mof_C 	C 	0.0562	0.42021	0.8926	-0.385
Mof_H 	H 	0.9903	0.3949	0.8648	0.122
Mof_H 	H 	0.0804	0.3952	0.9504	0.119
Mof_Ni	Ni	0.01116	0.80586	0.92609	1.002
Mof_V 	V 	0.15906	0.83234	0.14547	1.71
Mof_V 	V 	0.22369	0.15855	0.24848	1.732
Mof_V 	V 	0.28149	0.00397	0.122	1.701
Mof_O 	O 	0.38653	0.99888	0.07893	-0.705
Mof_O 	O 	0.29805	0.08293	0.20307	-0.926
Mof_O 	O 	0.87882	0.81387	0.82827	-0.82
Mof_O 	O 	0.26274	0.90738	0.16907	-0.908
Mof_O 	O 	0.1967	0.74596	0.21403	-0.905
Mof_O 	O 	0.13318	0.80945	0.03808	-0.837
Mof_N 	N 	0.48876	0.86893	0.98764	-0.228
Mof_N 	N 	0.11911	0.52037	0.61325	-0.255
Mof_N 	N 	0.48422	0.17877	0.57567	-0.265
Mof_N 	N 	0.11038	0.80581	0.83735	-0.285
Mof_C 	C 	0.1074	0.57092	0.6791	0.111
Mof_H 	H 	0.0406	0.5896	0.6802	-0.031
Mof_C 	C 	0.4821	0.69754	0.98236	0.168
Mof_C 	C 	0.2529	0.80951	0.72509	0.195
Mof_C 	C 	0.0784	0.8197	0.7503	0.136
Mof_H 	H 	0.0075	0.8286	0.7272	-0.109
Mof_C 	C 	0.5545	0.13502	0.6321	0.094
Mof_H 	H 	0.6127	0.1617	0.6654	-0.048
Mof_C 	C 	0.2837	0.79613	0.8151	-0.244
Mof_H 	H 	0.3542	0.7883	0.8405	0.112
Mof_C 	C 	0.4235	0.74181	0.03009	-0.223
Mof_H 	H 	0.3802	0.7149	0.0614	0.046
Mof_C 	C 	0.5451	0.05175	0.6435	-0.211
Mof_H 	H 	0.5965	0.0238	0.6836	0.056
Mof_C 	C 	0.5463	0.82597	0.9415	0.106
Mof_H 	H 	0.5884	0.8543	0.9102	-0.063
Mof_C 	C 	0.215	0.4928	0.61565	0.092
Mof_H 	H 	0.2245	0.4563	0.5718	-0.09
Mof_C 	C 	0.2905	0.56882	0.74595	0.151
Mof_C 	C 	0.1896	0.59623	0.74481	-0.217
Mof_H 	H 	0.1778	0.6318	0.7887	0.107
Mof_C 	C 	0.4732	0.60586	0.9774	-0.226
Mof_H 	H 	0.4697	0.5846	0.0355	0.046
Mof_H 	H 	0.5352	0.5835	0.9613	0.073
Mof_C 	C 	0.3012	0.51517	0.6794	-0.229
Mof_H 	H 	0.3667	0.4941	0.6776	0.022
Mof_C 	C 	0.1471	0.8213	0.6934	-0.252
Mof_H 	H 	0.1216	0.8304	0.633	0.1
Mof_C 	C 	0.4287	0.8257	0.03157	0.09
Mof_H 	H 	0.3886	0.8539	0.0647	-0.048
Mof_C 	C 	0.3849	0.5948	0.8135	-0.244
Mof_H 	H 	0.4457	0.5661	0.8023	0.039
Mof_H 	H 	0.3962	0.6527	0.8066	0.072
Mof_C 	C 	0.3754	0.57824	0.9089	0.026
Mof_H 	H 	0.3647	0.5202	0.9161	0.006
Mof_H 	H 	0.3146	0.6067	0.9202	0.014
Mof_C 	C 	0.4025	0.13795	0.52804	0.095
Mof_H 	H 	0.3529	0.1668	0.4872	-0.063
Mof_C 	C 	0.4604	0.01019	0.5961	0.15
Mof_C 	C 	0.3885	0.05524	0.5367	-0.213
Mof_H 	H 	0.3302	0.0297	0.5024	0.061
Mof_C 	C 	0.5463	0.74141	0.9381	-0.223
Mof_H 	H 	0.589	0.7142	0.9064	0.06
Mof_C 	C 	0.3305	0.81666	0.6668	-0.267
Mof_H 	H 	0.2991	0.7982	0.6072	0.067
Mof_H 	H 	0.391	0.7827	0.6898	0.056
Mof_C 	C 	0.212	0.79429	0.86738	0.126
Mof_H 	H 	0.2357	0.7843	0.9278	-0.027
Mof_C 	C 	0.3639	0.90553	0.6644	0.028
Mof_H 	H 	0.3025	0.9386	0.6417	0.023
Mof_H 	H 	0.3934	0.9234	0.7245	0.024
Mof_C 	C 	0.4438	0.92021	0.6074	-0.24
Mof_H 	H 	0.5097	0.8949	0.6352	0.062
Mof_H 	H 	0.4196	0.8952	0.5496	0.076
Mof_Ni	Ni	0.51116	0.69414	0.42609	1.004
Mof_V 	V 	0.65906	0.66766	0.64547	1.712
Mof_V 	V 	0.72369	0.34145	0.74848	1.735
Mof_V 	V 	0.78149	0.49603	0.622	1.719
Mof_O 	O 	0.88653	0.50112	0.57893	-0.711
Mof_O 	O 	0.79805	0.41707	0.70307	-0.909
Mof_O 	O 	0.37882	0.68613	0.32827	-0.837
Mof_O 	O 	0.76274	0.59262	0.66907	-0.912
Mof_O 	O 	0.6967	0.75404	0.71403	-0.9
Mof_O 	O 	0.63318	0.69055	0.53808	-0.827
Mof_N 	N 	0.98876	0.63107	0.48764	-0.224
Mof_N 	N 	0.61911	0.97963	0.11325	-0.205
Mof_N 	N 	0.98422	0.32123	0.07567	-0.244
Mof_N 	N 	0.61038	0.69419	0.33735	-0.284
Mof_C 	C 	0.6074	0.92908	0.1791	0.074
Mof_H 	H 	0.5406	0.9104	0.1802	-0.007
Mof_C 	C 	0.9821	0.80246	0.48236	0.17
Mof_C 	C 	0.7529	0.69049	0.22509	0.193
Mof_C 	C 	0.5784	0.6803	0.2503	0.136
Mof_H 	H 	0.5075	0.6714	0.2272	-0.1
Mof_C 	C 	0.0545	0.36498	0.1321	0.07
Mof_H 	H 	0.1127	0.3383	0.1654	-0.046
Mof_C 	C 	0.7837	0.70387	0.3151	-0.246
Mof_H 	H 	0.8542	0.7117	0.3405	0.115
Mof_C 	C 	0.9235	0.75819	0.53009	-0.201
Mof_H 	H 	0.8802	0.7851	0.5614	0.046
Mof_C 	C 	0.0451	0.44825	0.1435	-0.232
Mof_H 	H 	0.0965	0.4762	0.1836	0.062
Mof_C 	C 	0.0463	0.67403	0.4415	0.078
Mof_H 	H 	0.0884	0.6457	0.4102	-0.062
Mof_C 	C 	0.715	0.0072	0.11565	-0.054
Mof_H 	H 	0.7245	0.0437	0.0718	-0.053
Mof_C 	C 	0.7905	0.93118	0.24595	0.066
Mof_C 	C 	0.6896	0.90377	0.24481	-0.151
Mof_H 	H 	0.6778	0.8682	0.2887	0.087
Mof_C 	C 	0.9732	0.89414	0.4774	-0.211
Mof_H 	H 	0.9697	0.9154	0.5355	0.069
Mof_H 	H 	0.0352	0.9165	0.4613	0.049
Mof_C 	C 	0.8012	0.98483	0.1794	-0.049
Mof_H 	H 	0.8667	0.0059	0.1776	-0.058
Mof_C 	C 	0.6471	0.6787	0.1934	-0.25
Mof_H 	H 	0.6216	0.6696	0.133	0.099
Mof_C 	C 	0.9287	0.6743	0.53157	0.108
Mof_H 	H 	0.8886	0.6461	0.5647	-0.049
Mof_C 	C 	0.8849	0.9052	0.3135	-0.183
Mof_H 	H 	0.9457	0.9339	0.3023	0.033
Mof_H 	H 	0.8962	0.8473	0.3066	0.059
Mof_C 	C 	0.8754	0.92176	0.4089	-0.003
Mof_H 	H 	0.8647	0.9798	0.4161	0.021
Mof_H 	H 	0.8146	0.8933	0.4202	0.022
Mof_C 	C 	0.9025	0.36205	0.02804	0.027
Mof_H 	H 	0.8529	0.3332	0.9872	-0.016
Mof_C 	C 	0.9604	0.48981	0.0961	0.166
Mof_C 	C 	0.8885	0.44476	0.0367	-0.182
Mof_H 	H 	0.8302	0.4703	0.0024	0.048
Mof_C 	C 	0.0463	0.75859	0.4381	-0.245
Mof_H 	H 	0.089	0.7858	0.4064	0.06
Mof_C 	C 	0.8305	0.68334	0.1668	-0.259
Mof_H 	H 	0.7991	0.7018	0.1072	0.064
Mof_H 	H 	0.891	0.7173	0.1898	0.06
Mof_C 	C 	0.712	0.70571	0.36738	0.128
Mof_H 	H 	0.7357	0.7157	0.4278	-0.034
Mof_C 	C 	0.8639	0.59447	0.1644	0.012
Mof_H 	H 	0.8025	0.5614	0.1417	0.021
Mof_H 	H 	0.8934	0.5766	0.2245	0.03
Mof_C 	C 	0.9438	0.57979	0.1074	-0.204
Mof_H 	H 	0.0097	0.6051	0.1352	0.03
Mof_H 	H 	0.9196	0.6048	0.0496	0.061
Mof_Ni	Ni	0.98884	0.19414	0.07391	1.001
Mof_V 	V 	0.84094	0.16766	0.85453	1.714
Mof_V 	V 	0.77631	0.84145	0.75152	1.737
Mof_V 	V 	0.71851	0.99603	0.878	1.726
Mof_O 	O 	0.61347	0.00112	0.92107	-0.712
Mof_O 	O 	0.70195	0.91707	0.79693	-0.904
Mof_O 	O 	0.12118	0.18613	0.17173	-0.855
Mof_O 	O 	0.73726	0.09262	0.83093	-0.913
Mof_O 	O 	0.8033	0.25404	0.78597	-0.9
Mof_O 	O 	0.86682	0.19055	0.96192	-0.809
Mof_N 	N 	0.51124	0.13107	0.01236	-0.266
Mof_N 	N 	0.88089	0.47963	0.38675	-0.248
Mof_N 	N 	0.51578	0.82123	0.42433	-0.277
Mof_N 	N 	0.88962	0.19419	0.16265	-0.288
Mof_C 	C 	0.8926	0.42908	0.3209	0.116
Mof_H 	H 	0.9594	0.4104	0.3198	-0.013
Mof_C 	C 	0.5179	0.30246	0.01764	0.139
Mof_C 	C 	0.7471	0.19049	0.27491	0.223
Mof_C 	C 	0.9216	0.1803	0.2497	0.149
Mof_H 	H 	0.9925	0.1714	0.2728	-0.095
Mof_C 	C 	0.4455	0.86498	0.3679	0.131
Mof_H 	H 	0.3873	0.8383	0.3346	-0.06
Mof_C 	C 	0.7163	0.20387	0.1849	-0.269
Mof_H 	H 	0.6458	0.2117	0.1595	0.116
Mof_C 	C 	0.5765	0.25819	0.96991	-0.176
Mof_H 	H 	0.6198	0.2851	0.9386	0.042
Mof_C 	C 	0.4549	0.94825	0.3565	-0.271
Mof_H 	H 	0.4035	0.9762	0.3164	0.089
Mof_C 	C 	0.4537	0.17403	0.0585	0.092
Mof_H 	H 	0.4116	0.1457	0.0898	-0.072
Mof_C 	C 	0.785	0.5072	0.38435	0.098
Mof_H 	H 	0.7755	0.5437	0.4282	-0.091
Mof_C 	C 	0.7095	0.43118	0.25405	0.168
Mof_C 	C 	0.8104	0.40377	0.25519	-0.226
Mof_H 	H 	0.8222	0.3682	0.2113	0.114
Mof_C 	C 	0.5268	0.39414	0.0226	-0.347
Mof_H 	H 	0.5303	0.4154	0.9645	0.117
Mof_H 	H 	0.4648	0.4165	0.0387	0.095
Mof_C 	C 	0.6988	0.48483	0.3206	-0.24
Mof_H 	H 	0.6333	0.5059	0.3224	0.025
Mof_C 	C 	0.8529	0.1787	0.3066	-0.272
Mof_H 	H 	0.8784	0.1696	0.367	0.113
Mof_C 	C 	0.5713	0.1743	0.96843	0.134
Mof_H 	H 	0.6114	0.1461	0.9353	-0.055
Mof_C 	C 	0.6151	0.4052	0.1865	-0.288
Mof_H 	H 	0.5543	0.4339	0.1977	0.05
Mof_H 	H 	0.6038	0.3473	0.1934	0.085
Mof_C 	C 	0.6246	0.42176	0.0911	0.101
Mof_H 	H 	0.6353	0.4798	0.0839	-0.026
Mof_H 	H 	0.6854	0.3933	0.0798	-0.016
Mof_C 	C 	0.5975	0.86205	0.47196	0.132
Mof_H 	H 	0.6471	0.8332	0.5128	-0.073
Mof_C 	C 	0.5396	0.98981	0.4039	0.253
Mof_C 	C 	0.6115	0.94476	0.4633	-0.271
Mof_H 	H 	0.6698	0.9703	0.4976	0.095
Mof_C 	C 	0.4537	0.25859	0.0619	-0.228
Mof_H 	H 	0.411	0.2858	0.0936	0.053
Mof_C 	C 	0.6695	0.18334	0.3332	-0.328
Mof_H 	H 	0.7009	0.2018	0.3928	0.084
Mof_H 	H 	0.609	0.2173	0.3102	0.073
Mof_C 	C 	0.788	0.20571	0.13262	0.14
Mof_H 	H 	0.7643	0.2157	0.0722	-0.051
Mof_C 	C 	0.6361	0.09447	0.3356	0.119
Mof_H 	H 	0.6975	0.0614	0.3583	-0.018
Mof_H 	H 	0.6066	0.0766	0.2755	-0.014
Mof_C 	C 	0.5562	0.07979	0.3926	-0.369
Mof_H 	H 	0.4903	0.1051	0.3648	0.093
Mof_H 	H 	0.5804	0.1048	0.4504	0.108
Mof_Ni	Ni	-1.76292e-17	0.5	0.5	1.08
Mof_Ni	Ni	0.5	0	-0	1.065
_end
