data_functionalizedCrystal
_audit_creation_method	'EQeq! by Chris Wilmer'
_symmetry_space_group_name_H-M	'P1'
_symmetry_Int_Tables_number	1
_symmetry_cell_setting	triclinic
loop_
_symmetry_equiv_pos_as_xyz
  x,y,z
_cell_length_a	17.7879
_cell_length_b	17.98
_cell_length_c	26.742
_cell_angle_alpha	88.791
_cell_angle_beta	79.049
_cell_angle_gamma	71.306
loop_
_atom_site_label
_atom_site_type_symbol
_atom_site_fract_x
_atom_site_fract_y
_atom_site_fract_z
_atom_site_charge
Mof_Pr	Pr	0.39872	0.92559	0.0754	1.898
Mof_Pr	Pr	0.73242	0.74591	0.88498	1.898
Mof_Pr	Pr	0.77006	0.28357	0.77651	1.533
Mof_Pr	Pr	0.07949	0.62537	0.42828	1.666
Mof_W 	W 	0.07825	0.64227	0.8898	0.974
Mof_W 	W 	0.16101	0.78486	0.94118	1.025
Mof_W 	W 	0.25802	0.03904	0.89173	0.983
Mof_W 	W 	0.99973	0.55438	0.73055	1.296
Mof_W 	W 	0.33925	0.84386	0.9524	1.331
Mof_W 	W 	0.12103	0.13528	0.80037	1.021
Mof_W 	W 	0.26349	0.48622	0.91	0.93
Mof_W 	W 	0.27779	0.40913	0.71914	1.04
Mof_W 	W 	0.50137	0.77513	0.86194	1.398
Mof_W 	W 	0.08273	0.97904	0.88436	1.037
Mof_W 	W 	0.95148	0.74779	0.79814	1.415
Mof_W 	W 	0.42389	0.97198	0.80331	1.033
Mof_W 	W 	0.40454	0.8746	0.68764	1.041
Mof_W 	W 	0.13286	0.45281	0.8232	0.958
Mof_W 	W 	0.3446	0.63439	0.96251	1.005
Mof_W 	W 	0.2712	0.85206	0.60104	1.068
Mof_W 	W 	0.15552	0.06476	0.62576	1.022
Mof_W 	W 	0.95213	0.95465	0.79617	1.076
Mof_W 	W 	0.2738	0.64317	0.60513	1.056
Mof_W 	W 	0.91176	0.74478	0.66985	0.989
Mof_W 	W 	0.98597	0.10904	0.71281	1.36
Mof_W 	W 	0.14572	0.51753	0.62748	1.031
Mof_W 	W 	0.29294	0.08326	0.71383	1.014
Mof_W 	W 	0.41199	0.42381	0.80884	0.996
Mof_W 	W 	0.49508	0.56722	0.86392	0.989
Mof_W 	W 	0.48476	0.68226	0.74679	1.046
Mof_W 	W 	0.40505	0.53846	0.69551	1.012
Mof_W 	W 	0.06838	0.71588	0.57347	1.345
Mof_W 	W 	0.06961	0.9269	0.57062	1.005
Mof_W 	W 	0.91031	0.956	0.66504	1.035
Mof_P 	P 	0.1022	0.6878	0.6955	0.599
Mof_P 	P 	0.1014	0.9169	0.6918	0.582
Mof_P 	P 	0.2466	0.9416	0.7877	0.545
Mof_P 	P 	0.3343	0.7308	0.8515	0.575
Mof_P 	P 	0.2454	0.5748	0.795	0.558
Mof_O 	O 	0.3152	0.5425	0.9363	-0.479
Mof_O 	O 	0.2868	0.7436	0.605	-0.463
Mof_O 	O 	0.2039	0.11	0.851	-0.46
Mof_O 	O 	0.4552	0.4918	0.8466	-0.443
Mof_O 	O 	0.083	0.0659	0.8438	-0.49
Mof_O 	O 	0.2341	0.5552	0.6144	-0.482
Mof_O 	O 	0.1088	0.7274	0.9137	-0.464
Mof_O 	O 	0.3671	0.7266	0.9686	-0.449
Mof_O 	O 	0.4607	0.8886	0.8394	-0.478
Mof_O 	O 	0.9595	0.8489	0.8043	-0.494
Mof_O 	O 	0.0727	0.556	0.8505	-0.486
Mof_O 	O 	0.9677	0.6388	0.7791	-0.554
Mof_O 	O 	0.1759	0.9195	0.8187	-0.26
Mof_O 	O 	0.943	0.6414	0.6853	-0.481
Mof_O 	O 	0.4416	0.7715	0.7082	-0.455
Mof_O 	O 	0.9429	0.0559	0.6779	-0.516
Mof_O 	O 	0.5175	0.6733	0.8747	-0.493
Mof_O 	O 	0.3561	0.0568	0.7613	-0.467
Mof_O 	O 	0.9106	0.1973	0.7268	-0.618
Mof_O 	O 	0.3433	0.8463	0.6436	-0.456
Mof_O 	O 	0.2443	0.757	0.8659	-0.269
Mof_O 	O 	0.3173	0.9391	0.9243	-0.499
Mof_O 	O 	0.0493	0.1388	0.6541	-0.471
Mof_O 	O 	0.1132	0.8776	0.9099	-0.461
Mof_O 	O 	0.0159	0.9535	0.8444	-0.468
Mof_O 	O 	0.442	0.9085	0.7445	-0.465
Mof_O 	O 	0.5048	0.6026	0.794	-0.48
Mof_O 	O 	0.3613	0.7219	0.7951	-0.278
Mof_O 	O 	0.8572	0.7621	0.838	-0.716
Mof_O 	O 	0.2044	0.1624	0.7569	-0.452
Mof_O 	O 	0.3476	0.9826	0.6807	-0.469
Mof_O 	O 	0.2329	0.9654	0.6086	-0.468
Mof_O 	O 	0.2977	0.6017	0.7515	-0.266
Mof_O 	O 	0.442	0.6205	0.7111	-0.459
Mof_O 	O 	0.092	0.5983	0.5932	-0.493
Mof_O 	O 	0.1859	0.6885	0.6746	-0.29
Mof_O 	O 	0.1682	0.5728	0.9134	-0.491
Mof_O 	O 	0.2029	0.4409	0.8666	-0.469
Mof_O 	O 	0.1001	0.603	0.6968	-0.379
Mof_O 	O 	0.0685	0.4895	0.7691	-0.488
Mof_O 	O 	0.4562	0.8175	0.9297	-0.5
Mof_O 	O 	0.0628	0.1374	0.7536	-0.472
Mof_O 	O 	0.0128	0.7116	0.8482	-0.5
Mof_O 	O 	0.1717	0.9966	0.9083	-0.466
Mof_O 	O 	0.2111	0.0908	0.6703	-0.44
Mof_O 	O 	0.9665	0.0498	0.7685	-0.528
Mof_O 	O 	0.3647	0.0402	0.8621	-0.482
Mof_O 	O 	0.3376	0.8693	0.0159	-0.617
Mof_O 	O 	0.0675	0.9026	0.7458	-0.281
Mof_O 	O 	0.5069	0.7504	0.792	-0.502
Mof_O 	O 	0.2104	0.5158	0.7737	-0.332
Mof_O 	O 	0.2376	0.8367	0.9544	-0.499
Mof_O 	O 	0.4407	0.4851	0.755	-0.47
Mof_O 	O 	0.2056	0.4465	0.6798	-0.454
Mof_O 	O 	0.1882	0.8634	0.673	-0.279
Mof_O 	O 	0.3032	0.9532	0.8229	-0.344
Mof_O 	O 	0.9118	0.7748	0.7376	-0.509
Mof_O 	O 	0.9164	0.5214	0.7445	-0.672
Mof_O 	O 	0.9565	0.7274	0.5966	-0.472
Mof_O 	O 	0.0691	0.7257	0.7464	-0.32
Mof_O 	O 	0.3445	0.6056	0.6491	-0.452
Mof_O 	O 	0.452	0.5732	0.9351	-0.472
Mof_O 	O 	0.0989	0.0025	0.689	-0.374
Mof_O 	O 	0.0464	0.7308	0.6565	-0.377
Mof_O 	O 	0.1769	0.8637	0.5717	-0.466
Mof_O 	O 	0.9073	0.8599	0.6593	-0.46
Mof_O 	O 	0.3587	0.4064	0.8745	-0.454
Mof_O 	O 	0.3003	0.5298	0.8326	-0.325
Mof_O 	O 	0.9515	0.9661	0.5937	-0.457
Mof_O 	O 	0.0525	0.4981	0.6649	-0.475
Mof_O 	O 	0.2135	0.0215	0.7626	-0.335
Mof_O 	O 	0.209	0.3762	0.7718	-0.45
Mof_O 	O 	0.3707	0.7878	0.8732	-0.414
Mof_O 	O 	0.3488	0.3917	0.7736	-0.462
Mof_O 	O 	0.072	0.69	0.5092	-0.633
Mof_O 	O 	0.2952	0.8786	0.7463	-0.259
Mof_O 	O 	0.0489	0.8213	0.57	-0.471
Mof_O 	O 	0.0924	0.0139	0.5863	-0.458
Mof_O 	O 	0.0447	0.9086	0.6566	-0.352
Mof_O 	O 	0.9098	0.9495	0.7341	-0.473
Mof_O 	O 	0.597	0.7762	0.8609	-0.607
Mof_O 	O 	0.3432	0.4693	0.6926	-0.481
Mof_O 	O 	0.2414	0.6867	0.9582	-0.497
Mof_O 	O 	0.1778	0.6409	0.824	-0.257
Mof_O 	O 	0.367	0.6497	0.8773	-0.337
Mof_O 	O 	0.1766	0.6904	0.5749	-0.507
Mof_O 	O 	0.6289	0.7907	0.9604	-0.609
Mof_O 	O 	0.5295	0.8812	0.012	-0.568
Mof_O 	O 	0.8528	0.3657	0.7432	-0.659
Mof_O 	O 	0.3402	0.8355	0.1282	-0.59
Mof_O 	O 	0.3417	0.9936	0.1615	-0.63
Mof_O 	O 	0.6709	0.283	0.8553	-0.559
Mof_O 	O 	0.9361	0.6635	0.4608	-0.493
Mof_O 	O 	0.1467	0.6146	0.3398	-0.6
Mof_O 	O 	0.8079	0.721	0.452	-0.354
Mof_O 	O 	0.6843	0.8813	0.8609	-0.64
Mof_N 	N 	0.99	0.6628	0.3614	-0.183
Mof_C 	C 	0.9076	0.6869	0.377	-0.099
Mof_C 	C 	0.8586	0.7032	0.3416	0.068
Mof_H 	H 	0.8015	0.7199	0.3524	-0.022
Mof_C 	C 	0.892	0.6955	0.2906	-0.156
Mof_H 	H 	0.8581	0.7069	0.2661	0.072
Mof_C 	C 	0.9745	0.6715	0.275	0.126
Mof_H 	H 	0.9976	0.6661	0.2397	-0.095
Mof_C 	C 	0.0235	0.6551	0.3104	-0.166
Mof_C 	C 	0.891	0.367	0.6994	0.432
Mof_C 	C 	0.875	0.693	0.4348	0.339
Mof_N 	N 	0.4682	0.7786	0.0576	-0.182
Mof_C 	C 	0.5389	0.7496	0.0202	-0.161
Mof_C 	C 	0.5713	0.6685	0.0073	0.088
Mof_H 	H 	0.619	0.6489	0.9819	-0.098
Mof_C 	C 	0.5331	0.6165	0.0319	-0.147
Mof_H 	H 	0.5549	0.5618	0.0232	0.033
Mof_C 	C 	0.4624	0.6456	0.0694	0.063
Mof_H 	H 	0.4366	0.6105	0.086	-0.036
Mof_C 	C 	0.4299	0.7266	0.0823	-0.139
Mof_C 	C 	0.5691	0.8089	0.9937	0.488
Mof_C 	C 	0.361	0.7655	0.1239	0.459
Mof_C 	C 	0.271	0.088	0.2264	-0.726
Mof_H 	H 	0.2711	0.0402	0.2448	0.193
Mof_H 	H 	0.3024	0.1146	0.2413	0.18
Mof_H 	H 	0.2156	0.123	0.2289	0.21
Mof_C 	C 	0.311	0.0648	0.1685	0.589
Mof_O 	O 	0.6825	0.6295	0.8887	-0.605
Mof_O 	O 	0.7478	0.4006	0.843	-0.642
Mof_Na	Na	0.8236	0.4846	0.8091	1.431
Mof_Na	Na	0.2594	0.4915	0.0577	0.759
Mof_Pr	Pr	0.60128	0.07441	0.9246	1.899
Mof_Pr	Pr	0.26758	0.25409	0.11502	1.899
Mof_Pr	Pr	0.22994	0.71643	0.22349	1.534
Mof_Pr	Pr	0.92051	0.37463	0.57172	1.667
Mof_W 	W 	0.92175	0.35773	0.1102	0.975
Mof_W 	W 	0.83899	0.21514	0.05882	1.026
Mof_W 	W 	0.74198	0.96096	0.10827	0.984
Mof_W 	W 	0.00027	0.44562	0.26945	1.297
Mof_W 	W 	0.66075	0.15614	0.0476	1.332
Mof_W 	W 	0.87897	0.86472	0.19963	1.022
Mof_W 	W 	0.73651	0.51378	0.09	0.931
Mof_W 	W 	0.72221	0.59087	0.28086	1.041
Mof_W 	W 	0.49863	0.22487	0.13806	1.399
Mof_W 	W 	0.91727	0.02096	0.11564	1.038
Mof_W 	W 	0.04852	0.25221	0.20186	1.415
Mof_W 	W 	0.57611	0.02802	0.19669	1.033
Mof_W 	W 	0.59546	0.1254	0.31236	1.041
Mof_W 	W 	0.86714	0.54719	0.1768	0.958
Mof_W 	W 	0.6554	0.36561	0.03749	1.005
Mof_W 	W 	0.7288	0.14794	0.39896	1.068
Mof_W 	W 	0.84448	0.93524	0.37424	1.022
Mof_W 	W 	0.04787	0.04535	0.20383	1.076
Mof_W 	W 	0.7262	0.35683	0.39487	1.056
Mof_W 	W 	0.08824	0.25522	0.33015	0.989
Mof_W 	W 	0.01403	0.89096	0.28719	1.36
Mof_W 	W 	0.85428	0.48247	0.37252	1.031
Mof_W 	W 	0.70706	0.91674	0.28617	1.014
Mof_W 	W 	0.58801	0.57619	0.19116	0.996
Mof_W 	W 	0.50492	0.43278	0.13608	0.989
Mof_W 	W 	0.51524	0.31774	0.25321	1.046
Mof_W 	W 	0.59495	0.46154	0.30449	1.012
Mof_W 	W 	0.93162	0.28412	0.42653	1.345
Mof_W 	W 	0.93039	0.0731	0.42938	1.005
Mof_W 	W 	0.08969	0.044	0.33496	1.035
Mof_P 	P 	0.8978	0.3122	0.3045	0.599
Mof_P 	P 	0.8986	0.0831	0.3082	0.582
Mof_P 	P 	0.7534	0.0584	0.2123	0.545
Mof_P 	P 	0.6657	0.2692	0.1485	0.575
Mof_P 	P 	0.7546	0.4252	0.205	0.558
Mof_O 	O 	0.6848	0.4575	0.0637	-0.479
Mof_O 	O 	0.7132	0.2564	0.395	-0.463
Mof_O 	O 	0.7961	0.89	0.149	-0.46
Mof_O 	O 	0.5448	0.5082	0.1534	-0.443
Mof_O 	O 	0.917	0.9341	0.1562	-0.49
Mof_O 	O 	0.7659	0.4448	0.3856	-0.482
Mof_O 	O 	0.8912	0.2726	0.0863	-0.464
Mof_O 	O 	0.6329	0.2734	0.0314	-0.449
Mof_O 	O 	0.5393	0.1114	0.1606	-0.478
Mof_O 	O 	0.0405	0.1511	0.1957	-0.494
Mof_O 	O 	0.9273	0.444	0.1495	-0.486
Mof_O 	O 	0.0323	0.3612	0.2209	-0.554
Mof_O 	O 	0.8241	0.0805	0.1813	-0.26
Mof_O 	O 	0.057	0.3586	0.3147	-0.481
Mof_O 	O 	0.5584	0.2285	0.2918	-0.455
Mof_O 	O 	0.0571	0.9441	0.3221	-0.516
Mof_O 	O 	0.4825	0.3267	0.1253	-0.493
Mof_O 	O 	0.6439	0.9432	0.2387	-0.467
Mof_O 	O 	0.0894	0.8027	0.2732	-0.618
Mof_O 	O 	0.6567	0.1537	0.3564	-0.456
Mof_O 	O 	0.7557	0.243	0.1341	-0.269
Mof_O 	O 	0.6827	0.0609	0.0757	-0.499
Mof_O 	O 	0.9507	0.8612	0.3459	-0.471
Mof_O 	O 	0.8868	0.1224	0.0901	-0.461
Mof_O 	O 	0.9841	0.0465	0.1556	-0.468
Mof_O 	O 	0.558	0.0915	0.2555	-0.465
Mof_O 	O 	0.4952	0.3974	0.206	-0.48
Mof_O 	O 	0.6387	0.2781	0.2049	-0.278
Mof_O 	O 	0.1428	0.2379	0.162	-0.716
Mof_O 	O 	0.7956	0.8376	0.2431	-0.452
Mof_O 	O 	0.6524	0.0174	0.3193	-0.469
Mof_O 	O 	0.7671	0.0346	0.3914	-0.468
Mof_O 	O 	0.7023	0.3983	0.2485	-0.266
Mof_O 	O 	0.558	0.3795	0.2889	-0.459
Mof_O 	O 	0.908	0.4017	0.4068	-0.493
Mof_O 	O 	0.8141	0.3115	0.3254	-0.29
Mof_O 	O 	0.8318	0.4272	0.0866	-0.491
Mof_O 	O 	0.7971	0.5591	0.1334	-0.469
Mof_O 	O 	0.8999	0.397	0.3032	-0.379
Mof_O 	O 	0.9315	0.5105	0.2309	-0.488
Mof_O 	O 	0.5438	0.1825	0.0703	-0.5
Mof_O 	O 	0.9372	0.8626	0.2464	-0.472
Mof_O 	O 	0.9872	0.2884	0.1518	-0.5
Mof_O 	O 	0.8283	0.0034	0.0917	-0.466
Mof_O 	O 	0.7889	0.9092	0.3297	-0.44
Mof_O 	O 	0.0335	0.9502	0.2315	-0.528
Mof_O 	O 	0.6353	0.9598	0.1379	-0.482
Mof_O 	O 	0.6624	0.1307	0.9841	-0.617
Mof_O 	O 	0.9325	0.0974	0.2542	-0.281
Mof_O 	O 	0.4931	0.2496	0.208	-0.502
Mof_O 	O 	0.7896	0.4842	0.2263	-0.332
Mof_O 	O 	0.7624	0.1633	0.0456	-0.499
Mof_O 	O 	0.5593	0.5149	0.245	-0.47
Mof_O 	O 	0.7944	0.5535	0.3202	-0.454
Mof_O 	O 	0.8118	0.1366	0.327	-0.279
Mof_O 	O 	0.6968	0.0468	0.1771	-0.344
Mof_O 	O 	0.0882	0.2252	0.2624	-0.509
Mof_O 	O 	0.0836	0.4786	0.2555	-0.672
Mof_O 	O 	0.0435	0.2726	0.4034	-0.472
Mof_O 	O 	0.9309	0.2743	0.2536	-0.32
Mof_O 	O 	0.6555	0.3944	0.3509	-0.452
Mof_O 	O 	0.548	0.4268	0.0649	-0.472
Mof_O 	O 	0.9011	0.9975	0.311	-0.374
Mof_O 	O 	0.9536	0.2692	0.3435	-0.377
Mof_O 	O 	0.8231	0.1363	0.4283	-0.466
Mof_O 	O 	0.0927	0.1401	0.3407	-0.46
Mof_O 	O 	0.6413	0.5936	0.1255	-0.454
Mof_O 	O 	0.6997	0.4702	0.1674	-0.325
Mof_O 	O 	0.0485	0.0339	0.4063	-0.457
Mof_O 	O 	0.9475	0.5019	0.3351	-0.475
Mof_O 	O 	0.7865	0.9785	0.2374	-0.335
Mof_O 	O 	0.791	0.6238	0.2282	-0.45
Mof_O 	O 	0.6293	0.2122	0.1268	-0.414
Mof_O 	O 	0.6512	0.6083	0.2264	-0.462
Mof_O 	O 	0.928	0.31	0.4908	-0.633
Mof_O 	O 	0.7048	0.1214	0.2537	-0.259
Mof_O 	O 	0.9511	0.1787	0.43	-0.471
Mof_O 	O 	0.9076	0.9861	0.4137	-0.458
Mof_O 	O 	0.9553	0.0914	0.3434	-0.352
Mof_O 	O 	0.0902	0.0505	0.2659	-0.473
Mof_O 	O 	0.403	0.2238	0.1391	-0.607
Mof_O 	O 	0.6568	0.5307	0.3074	-0.481
Mof_O 	O 	0.7586	0.3133	0.0418	-0.497
Mof_O 	O 	0.8222	0.3591	0.176	-0.257
Mof_O 	O 	0.633	0.3503	0.1227	-0.337
Mof_O 	O 	0.8234	0.3096	0.4251	-0.507
Mof_O 	O 	0.3711	0.2093	0.0396	-0.609
Mof_O 	O 	0.4705	0.1188	0.988	-0.568
Mof_O 	O 	0.1472	0.6343	0.2568	-0.659
Mof_O 	O 	0.6598	0.1645	0.8718	-0.59
Mof_O 	O 	0.6583	0.0064	0.8385	-0.63
Mof_O 	O 	0.3291	0.717	0.1447	-0.559
Mof_O 	O 	0.0639	0.3365	0.5392	-0.493
Mof_O 	O 	0.8533	0.3854	0.6602	-0.6
Mof_O 	O 	0.1921	0.279	0.548	-0.354
Mof_O 	O 	0.3157	0.1187	0.1391	-0.64
Mof_N 	N 	0.01	0.3372	0.6386	-0.183
Mof_C 	C 	0.0924	0.3131	0.623	-0.099
Mof_C 	C 	0.1414	0.2968	0.6584	0.068
Mof_H 	H 	0.1985	0.2801	0.6476	-0.022
Mof_C 	C 	0.108	0.3045	0.7094	-0.156
Mof_H 	H 	0.1419	0.2931	0.7339	0.072
Mof_C 	C 	0.0255	0.3285	0.725	0.126
Mof_H 	H 	0.0024	0.3339	0.7603	-0.095
Mof_C 	C 	0.9765	0.3449	0.6896	-0.166
Mof_C 	C 	0.109	0.633	0.3006	0.432
Mof_C 	C 	0.125	0.307	0.5652	0.339
Mof_N 	N 	0.5318	0.2214	0.9424	-0.182
Mof_C 	C 	0.4611	0.2504	0.9798	-0.161
Mof_C 	C 	0.4287	0.3315	0.9927	0.088
Mof_H 	H 	0.381	0.3511	0.0181	-0.098
Mof_C 	C 	0.4669	0.3835	0.9681	-0.147
Mof_H 	H 	0.4451	0.4382	0.9768	0.033
Mof_C 	C 	0.5376	0.3544	0.9306	0.063
Mof_H 	H 	0.5634	0.3895	0.914	-0.036
Mof_C 	C 	0.5701	0.2734	0.9177	-0.139
Mof_C 	C 	0.4309	0.1911	0.0063	0.488
Mof_C 	C 	0.639	0.2345	0.8761	0.459
Mof_C 	C 	0.729	0.912	0.7736	-0.726
Mof_H 	H 	0.7289	0.9598	0.7552	0.193
Mof_H 	H 	0.6976	0.8854	0.7587	0.18
Mof_H 	H 	0.7844	0.877	0.7711	0.21
Mof_C 	C 	0.689	0.9352	0.8315	0.589
Mof_O 	O 	0.3175	0.3705	0.1113	-0.605
Mof_O 	O 	0.2522	0.5994	0.157	-0.642
Mof_Na	Na	0.1764	0.5154	0.1909	1.431
Mof_Na	Na	0.7406	0.5085	0.9423	0.759
_end
