data_functionalizedCrystal
_audit_creation_method	'EQeq! by Chris Wilmer'
_symmetry_space_group_name_H-M	'P1'
_symmetry_Int_Tables_number	1
_symmetry_cell_setting	triclinic
loop_
_symmetry_equiv_pos_as_xyz
  x,y,z
_cell_length_a	19.109
_cell_length_b	19.109
_cell_length_c	24.317
_cell_angle_alpha	90
_cell_angle_beta	90
_cell_angle_gamma	90
loop_
_atom_site_label
_atom_site_type_symbol
_atom_site_fract_x
_atom_site_fract_y
_atom_site_fract_z
_atom_site_charge
Mof_Cd	Cd	0.15917	0.67808	0.00524	0.398
Mof_O 	O 	0.34313	0.65895	0.79908	-0.323
Mof_O 	O 	0.33598	0.54468	0.80337	-0.324
Mof_O 	O 	0.01854	0.65507	0.78347	-0.319
Mof_O 	O 	0.02754	0.54008	0.78485	-0.318
Mof_N 	N 	0.16981	0.6259	0.91784	-0.26
Mof_C 	C 	0.3112	0.6045	0.81223	0.377
Mof_C 	C 	0.0496	0.5996	0.79694	0.373
Mof_C 	C 	0.1155	0.6064	0.83025	-0.297
Mof_C 	C 	0.1114	0.6168	0.8869	0.366
Mof_C 	C 	0.0416	0.6199	0.9163	-0.933
Mof_H 	H 	0.0453	0.5967	0.9511	0.325
Mof_H 	H 	0.0066	0.5972	0.8943	0.316
Mof_H 	H 	0.0287	0.6679	0.922	0.324
Mof_C 	C 	0.2328	0.6213	0.89378	0.369
Mof_C 	C 	0.2957	0.6287	0.9307	-0.904
Mof_H 	H 	0.3023	0.6771	0.9399	0.305
Mof_H 	H 	0.3365	0.6116	0.912	0.302
Mof_H 	H 	0.2885	0.6021	0.9637	0.306
Mof_C 	C 	0.2404	0.6098	0.8372	-0.298
Mof_C 	C 	0.1806	0.6036	0.80472	0.194
Mof_C 	C 	0.185	0.597	0.7436	-0.047
Mof_C 	C 	0.1853	0.6554	0.7106	-0.018
Mof_H 	H 	0.1843	0.6995	0.7267	0.042
Mof_C 	C 	0.1869	0.6502	0.6546	-0.06
Mof_H 	H 	0.1871	0.6907	0.6334	0.057
Mof_C 	C 	0.1881	0.5882	0.6297	-0.009
Mof_H 	H 	0.1881	0.5856	0.5915	0.037
Mof_C 	C 	0.1894	0.5291	0.6599	-0.063
Mof_H 	H 	0.192	0.4858	0.6425	0.055
Mof_C 	C 	0.1868	0.5326	0.7182	-0.015
Mof_H 	H 	0.1862	0.4918	0.739	0.039
Mof_Cd	Cd	0.65917	0.17808	0.50524	0.399
Mof_O 	O 	0.84313	0.15895	0.29908	-0.322
Mof_O 	O 	0.83598	0.04468	0.30337	-0.323
Mof_O 	O 	0.51854	0.15507	0.28347	-0.318
Mof_O 	O 	0.52754	0.04008	0.28485	-0.318
Mof_N 	N 	0.66981	0.1259	0.41784	-0.26
Mof_C 	C 	0.8112	0.1045	0.31223	0.377
Mof_C 	C 	0.5496	0.0996	0.29694	0.373
Mof_C 	C 	0.6155	0.1064	0.33025	-0.297
Mof_C 	C 	0.6114	0.1168	0.3869	0.366
Mof_C 	C 	0.5416	0.1199	0.4163	-0.933
Mof_H 	H 	0.5453	0.0967	0.4511	0.325
Mof_H 	H 	0.5066	0.0972	0.3943	0.316
Mof_H 	H 	0.5287	0.1679	0.422	0.324
Mof_C 	C 	0.7328	0.1213	0.39378	0.368
Mof_C 	C 	0.7957	0.1287	0.4307	-0.904
Mof_H 	H 	0.8023	0.1771	0.4399	0.305
Mof_H 	H 	0.8365	0.1116	0.412	0.301
Mof_H 	H 	0.7885	0.1021	0.4637	0.305
Mof_C 	C 	0.7404	0.1098	0.3372	-0.298
Mof_C 	C 	0.6806	0.1036	0.30472	0.194
Mof_C 	C 	0.685	0.097	0.2436	-0.047
Mof_C 	C 	0.6853	0.1554	0.2106	-0.018
Mof_H 	H 	0.6843	0.1995	0.2267	0.042
Mof_C 	C 	0.6869	0.1502	0.1546	-0.059
Mof_H 	H 	0.6871	0.1907	0.1334	0.056
Mof_C 	C 	0.6881	0.0882	0.1297	-0.011
Mof_H 	H 	0.6881	0.0856	0.0915	0.038
Mof_C 	C 	0.6894	0.0291	0.1599	-0.061
Mof_H 	H 	0.692	0.9858	0.1425	0.055
Mof_C 	C 	0.6868	0.0326	0.2182	-0.016
Mof_H 	H 	0.6862	0.9918	0.239	0.039
Mof_Cd	Cd	0.34083	0.32192	0.50524	0.399
Mof_O 	O 	0.15687	0.34105	0.29908	-0.322
Mof_O 	O 	0.16402	0.45532	0.30337	-0.323
Mof_O 	O 	0.48146	0.34493	0.28347	-0.318
Mof_O 	O 	0.47246	0.45992	0.28485	-0.318
Mof_N 	N 	0.33019	0.3741	0.41784	-0.26
Mof_C 	C 	0.1888	0.3955	0.31223	0.377
Mof_C 	C 	0.4504	0.4004	0.29694	0.373
Mof_C 	C 	0.3845	0.3936	0.33025	-0.297
Mof_C 	C 	0.3886	0.3832	0.3869	0.366
Mof_C 	C 	0.4584	0.3801	0.4163	-0.933
Mof_H 	H 	0.4547	0.4033	0.4511	0.325
Mof_H 	H 	0.4934	0.4028	0.3943	0.316
Mof_H 	H 	0.4713	0.3321	0.422	0.324
Mof_C 	C 	0.2672	0.3787	0.39378	0.369
Mof_C 	C 	0.2043	0.3713	0.4307	-0.904
Mof_H 	H 	0.1977	0.3229	0.4399	0.305
Mof_H 	H 	0.1635	0.3884	0.412	0.302
Mof_H 	H 	0.2115	0.3979	0.4637	0.306
Mof_C 	C 	0.2596	0.3902	0.3372	-0.298
Mof_C 	C 	0.3194	0.3964	0.30472	0.194
Mof_C 	C 	0.315	0.403	0.2436	-0.047
Mof_C 	C 	0.3147	0.3446	0.2106	-0.018
Mof_H 	H 	0.3157	0.3005	0.2267	0.042
Mof_C 	C 	0.3131	0.3498	0.1546	-0.06
Mof_H 	H 	0.3129	0.3093	0.1334	0.057
Mof_C 	C 	0.3119	0.4118	0.1297	-0.009
Mof_H 	H 	0.3119	0.4144	0.0915	0.037
Mof_C 	C 	0.3106	0.4709	0.1599	-0.063
Mof_H 	H 	0.308	0.5142	0.1425	0.055
Mof_C 	C 	0.3132	0.4674	0.2182	-0.016
Mof_H 	H 	0.3138	0.5082	0.239	0.039
Mof_Cd	Cd	0.84083	0.82192	0.00524	0.399
Mof_O 	O 	0.65687	0.84105	0.79908	-0.322
Mof_O 	O 	0.66402	0.95532	0.80337	-0.323
Mof_O 	O 	0.98146	0.84493	0.78347	-0.317
Mof_O 	O 	0.97246	0.95992	0.78485	-0.317
Mof_N 	N 	0.83019	0.8741	0.91784	-0.26
Mof_C 	C 	0.6888	0.8955	0.81223	0.377
Mof_C 	C 	0.9504	0.9004	0.79694	0.373
Mof_C 	C 	0.8845	0.8936	0.83025	-0.297
Mof_C 	C 	0.8886	0.8832	0.8869	0.366
Mof_C 	C 	0.9584	0.8801	0.9163	-0.935
Mof_H 	H 	0.9547	0.9033	0.9511	0.326
Mof_H 	H 	0.9934	0.9028	0.8943	0.316
Mof_H 	H 	0.9713	0.8321	0.922	0.325
Mof_C 	C 	0.7672	0.8787	0.89378	0.369
Mof_C 	C 	0.7043	0.8713	0.9307	-0.905
Mof_H 	H 	0.6977	0.8229	0.9399	0.305
Mof_H 	H 	0.6635	0.8884	0.912	0.302
Mof_H 	H 	0.7115	0.8979	0.9637	0.306
Mof_C 	C 	0.7596	0.8902	0.8372	-0.298
Mof_C 	C 	0.8194	0.8964	0.80472	0.194
Mof_C 	C 	0.815	0.903	0.7436	-0.048
Mof_C 	C 	0.8147	0.8446	0.7106	-0.017
Mof_H 	H 	0.8157	0.8005	0.7267	0.042
Mof_C 	C 	0.8131	0.8498	0.6546	-0.06
Mof_H 	H 	0.8129	0.8093	0.6334	0.057
Mof_C 	C 	0.8119	0.9118	0.6297	-0.01
Mof_H 	H 	0.8119	0.9144	0.5915	0.037
Mof_C 	C 	0.8106	0.9709	0.6599	-0.062
Mof_H 	H 	0.808	0.0142	0.6425	0.055
Mof_C 	C 	0.8132	0.9674	0.7182	-0.014
Mof_H 	H 	0.8138	0.0082	0.739	0.038
Mof_Cd	Cd	0.07192	0.40917	0.25524	0.399
Mof_O 	O 	0.09105	0.59313	0.04908	-0.322
Mof_O 	O 	0.20532	0.58598	0.05337	-0.323
Mof_O 	O 	0.09493	0.26854	0.03347	-0.317
Mof_O 	O 	0.20992	0.27754	0.03485	-0.317
Mof_N 	N 	0.1241	0.41981	0.16784	-0.26
Mof_C 	C 	0.1455	0.5612	0.06223	0.377
Mof_C 	C 	0.1504	0.2996	0.04694	0.373
Mof_C 	C 	0.1436	0.3655	0.08025	-0.297
Mof_C 	C 	0.1332	0.3614	0.1369	0.366
Mof_C 	C 	0.1301	0.2916	0.1663	-0.933
Mof_H 	H 	0.1533	0.2953	0.2011	0.325
Mof_H 	H 	0.1528	0.2566	0.1443	0.316
Mof_H 	H 	0.0821	0.2787	0.172	0.324
Mof_C 	C 	0.1287	0.4828	0.14378	0.369
Mof_C 	C 	0.1213	0.5457	0.1807	-0.904
Mof_H 	H 	0.0729	0.5523	0.1899	0.305
Mof_H 	H 	0.1384	0.5865	0.162	0.301
Mof_H 	H 	0.1479	0.5385	0.2137	0.306
Mof_C 	C 	0.1402	0.4904	0.0872	-0.298
Mof_C 	C 	0.1464	0.4306	0.05472	0.194
Mof_C 	C 	0.153	0.435	0.9936	-0.047
Mof_C 	C 	0.0946	0.4353	0.9606	-0.018
Mof_H 	H 	0.0505	0.4343	0.9767	0.042
Mof_C 	C 	0.0998	0.4369	0.9046	-0.06
Mof_H 	H 	0.0593	0.4371	0.8834	0.057
Mof_C 	C 	0.1618	0.4381	0.8797	-0.009
Mof_H 	H 	0.1644	0.4381	0.8415	0.037
Mof_C 	C 	0.2209	0.4394	0.9099	-0.063
Mof_H 	H 	0.2642	0.442	0.8925	0.055
Mof_C 	C 	0.2174	0.4368	0.9682	-0.015
Mof_H 	H 	0.2582	0.4362	0.989	0.039
Mof_Cd	Cd	0.57192	0.90917	0.75524	0.399
Mof_O 	O 	0.59105	0.09313	0.54908	-0.322
Mof_O 	O 	0.70532	0.08598	0.55337	-0.323
Mof_O 	O 	0.59493	0.76854	0.53347	-0.318
Mof_O 	O 	0.70992	0.77754	0.53485	-0.318
Mof_N 	N 	0.6241	0.91981	0.66784	-0.26
Mof_C 	C 	0.6455	0.0612	0.56223	0.377
Mof_C 	C 	0.6504	0.7996	0.54694	0.373
Mof_C 	C 	0.6436	0.8655	0.58025	-0.297
Mof_C 	C 	0.6332	0.8614	0.6369	0.366
Mof_C 	C 	0.6301	0.7916	0.6663	-0.933
Mof_H 	H 	0.6533	0.7953	0.7011	0.325
Mof_H 	H 	0.6528	0.7566	0.6443	0.316
Mof_H 	H 	0.5821	0.7787	0.672	0.324
Mof_C 	C 	0.6287	0.9828	0.64378	0.369
Mof_C 	C 	0.6213	0.0457	0.6807	-0.905
Mof_H 	H 	0.5729	0.0523	0.6899	0.305
Mof_H 	H 	0.6384	0.0865	0.662	0.302
Mof_H 	H 	0.6479	0.0385	0.7137	0.306
Mof_C 	C 	0.6402	0.9904	0.5872	-0.298
Mof_C 	C 	0.6464	0.9306	0.55472	0.194
Mof_C 	C 	0.653	0.935	0.4936	-0.047
Mof_C 	C 	0.5946	0.9353	0.4606	-0.018
Mof_H 	H 	0.5505	0.9343	0.4767	0.042
Mof_C 	C 	0.5998	0.9369	0.4046	-0.06
Mof_H 	H 	0.5593	0.9371	0.3834	0.057
Mof_C 	C 	0.6618	0.9381	0.3797	-0.009
Mof_H 	H 	0.6644	0.9381	0.3415	0.037
Mof_C 	C 	0.7209	0.9394	0.4099	-0.063
Mof_H 	H 	0.7642	0.942	0.3925	0.055
Mof_C 	C 	0.7174	0.9368	0.4682	-0.016
Mof_H 	H 	0.7582	0.9362	0.489	0.039
Mof_Cd	Cd	0.42808	0.59083	0.75524	0.399
Mof_O 	O 	0.40895	0.40687	0.54908	-0.322
Mof_O 	O 	0.29468	0.41402	0.55337	-0.323
Mof_O 	O 	0.40507	0.73146	0.53347	-0.318
Mof_O 	O 	0.29008	0.72246	0.53485	-0.318
Mof_N 	N 	0.3759	0.58019	0.66784	-0.26
Mof_C 	C 	0.3545	0.4388	0.56223	0.377
Mof_C 	C 	0.3496	0.7004	0.54694	0.373
Mof_C 	C 	0.3564	0.6345	0.58025	-0.297
Mof_C 	C 	0.3668	0.6386	0.6369	0.366
Mof_C 	C 	0.3699	0.7084	0.6663	-0.933
Mof_H 	H 	0.3467	0.7047	0.7011	0.325
Mof_H 	H 	0.3472	0.7434	0.6443	0.316
Mof_H 	H 	0.4179	0.7213	0.672	0.324
Mof_C 	C 	0.3713	0.5172	0.64378	0.369
Mof_C 	C 	0.3787	0.4543	0.6807	-0.904
Mof_H 	H 	0.4271	0.4477	0.6899	0.305
Mof_H 	H 	0.3616	0.4135	0.662	0.301
Mof_H 	H 	0.3521	0.4615	0.7137	0.306
Mof_C 	C 	0.3598	0.5096	0.5872	-0.298
Mof_C 	C 	0.3536	0.5694	0.55472	0.194
Mof_C 	C 	0.347	0.565	0.4936	-0.047
Mof_C 	C 	0.4054	0.5647	0.4606	-0.018
Mof_H 	H 	0.4495	0.5657	0.4767	0.042
Mof_C 	C 	0.4002	0.5631	0.4046	-0.06
Mof_H 	H 	0.4407	0.5629	0.3834	0.057
Mof_C 	C 	0.3382	0.5619	0.3797	-0.009
Mof_H 	H 	0.3356	0.5619	0.3415	0.037
Mof_C 	C 	0.2791	0.5606	0.4099	-0.063
Mof_H 	H 	0.2358	0.558	0.3925	0.055
Mof_C 	C 	0.2826	0.5632	0.4682	-0.015
Mof_H 	H 	0.2418	0.5638	0.489	0.039
Mof_Cd	Cd	0.92808	0.09083	0.25524	0.399
Mof_O 	O 	0.90895	0.90687	0.04908	-0.322
Mof_O 	O 	0.79468	0.91402	0.05337	-0.323
Mof_O 	O 	0.90507	0.23146	0.03347	-0.318
Mof_O 	O 	0.79008	0.22246	0.03485	-0.317
Mof_N 	N 	0.8759	0.08019	0.16784	-0.261
Mof_C 	C 	0.8545	0.9388	0.06223	0.377
Mof_C 	C 	0.8496	0.2004	0.04694	0.373
Mof_C 	C 	0.8564	0.1345	0.08025	-0.297
Mof_C 	C 	0.8668	0.1386	0.1369	0.366
Mof_C 	C 	0.8699	0.2084	0.1663	-0.933
Mof_H 	H 	0.8467	0.2047	0.2011	0.325
Mof_H 	H 	0.8472	0.2434	0.1443	0.316
Mof_H 	H 	0.9179	0.2213	0.172	0.324
Mof_C 	C 	0.8713	0.0172	0.14378	0.369
Mof_C 	C 	0.8787	0.9543	0.1807	-0.904
Mof_H 	H 	0.9271	0.9477	0.1899	0.305
Mof_H 	H 	0.8616	0.9135	0.162	0.302
Mof_H 	H 	0.8521	0.9615	0.2137	0.306
Mof_C 	C 	0.8598	0.0096	0.0872	-0.298
Mof_C 	C 	0.8536	0.0694	0.05472	0.195
Mof_C 	C 	0.847	0.065	0.9936	-0.049
Mof_C 	C 	0.9054	0.0647	0.9606	-0.016
Mof_H 	H 	0.9495	0.0657	0.9767	0.041
Mof_C 	C 	0.9002	0.0631	0.9046	-0.061
Mof_H 	H 	0.9407	0.0629	0.8834	0.057
Mof_C 	C 	0.8382	0.0619	0.8797	-0.008
Mof_H 	H 	0.8356	0.0619	0.8415	0.036
Mof_C 	C 	0.7791	0.0606	0.9099	-0.064
Mof_H 	H 	0.7358	0.058	0.8925	0.056
Mof_C 	C 	0.7826	0.0632	0.9682	-0.014
Mof_H 	H 	0.7418	0.0638	0.989	0.038
Mof_Cd	Cd	0.84083	0.32192	0.99476	0.399
Mof_O 	O 	0.65687	0.34105	0.20092	-0.322
Mof_O 	O 	0.66402	0.45532	0.19663	-0.323
Mof_O 	O 	0.98146	0.34493	0.21653	-0.318
Mof_O 	O 	0.97246	0.45992	0.21515	-0.318
Mof_N 	N 	0.83019	0.3741	0.08216	-0.26
Mof_C 	C 	0.6888	0.3955	0.18777	0.377
Mof_C 	C 	0.9504	0.4004	0.20306	0.373
Mof_C 	C 	0.8845	0.3936	0.16975	-0.297
Mof_C 	C 	0.8886	0.3832	0.1131	0.366
Mof_C 	C 	0.9584	0.3801	0.0837	-0.933
Mof_H 	H 	0.9547	0.4033	0.0489	0.325
Mof_H 	H 	0.9934	0.4028	0.1057	0.316
Mof_H 	H 	0.9713	0.3321	0.078	0.324
Mof_C 	C 	0.7672	0.3787	0.10622	0.369
Mof_C 	C 	0.7043	0.3713	0.0693	-0.904
Mof_H 	H 	0.6977	0.3229	0.0601	0.305
Mof_H 	H 	0.6635	0.3884	0.088	0.302
Mof_H 	H 	0.7115	0.3979	0.0363	0.306
Mof_C 	C 	0.7596	0.3902	0.1628	-0.298
Mof_C 	C 	0.8194	0.3964	0.19528	0.194
Mof_C 	C 	0.815	0.403	0.2564	-0.047
Mof_C 	C 	0.8147	0.3446	0.2894	-0.018
Mof_H 	H 	0.8157	0.3005	0.2733	0.042
Mof_C 	C 	0.8131	0.3498	0.3454	-0.06
Mof_H 	H 	0.8129	0.3093	0.3666	0.057
Mof_C 	C 	0.8119	0.4118	0.3703	-0.009
Mof_H 	H 	0.8119	0.4144	0.4085	0.037
Mof_C 	C 	0.8106	0.4709	0.3401	-0.063
Mof_H 	H 	0.808	0.5142	0.3575	0.055
Mof_C 	C 	0.8132	0.4674	0.2818	-0.015
Mof_H 	H 	0.8138	0.5082	0.261	0.039
Mof_Cd	Cd	0.34083	0.82192	0.49476	0.399
Mof_O 	O 	0.15687	0.84105	0.70092	-0.322
Mof_O 	O 	0.16402	0.95532	0.69663	-0.323
Mof_O 	O 	0.48146	0.84493	0.71653	-0.318
Mof_O 	O 	0.47246	0.95992	0.71515	-0.318
Mof_N 	N 	0.33019	0.8741	0.58216	-0.26
Mof_C 	C 	0.1888	0.8955	0.68777	0.377
Mof_C 	C 	0.4504	0.9004	0.70306	0.373
Mof_C 	C 	0.3845	0.8936	0.66975	-0.297
Mof_C 	C 	0.3886	0.8832	0.6131	0.366
Mof_C 	C 	0.4584	0.8801	0.5837	-0.933
Mof_H 	H 	0.4547	0.9033	0.5489	0.325
Mof_H 	H 	0.4934	0.9028	0.6057	0.316
Mof_H 	H 	0.4713	0.8321	0.578	0.324
Mof_C 	C 	0.2672	0.8787	0.60622	0.368
Mof_C 	C 	0.2043	0.8713	0.5693	-0.904
Mof_H 	H 	0.1977	0.8229	0.5601	0.305
Mof_H 	H 	0.1635	0.8884	0.588	0.301
Mof_H 	H 	0.2115	0.8979	0.5363	0.305
Mof_C 	C 	0.2596	0.8902	0.6628	-0.298
Mof_C 	C 	0.3194	0.8964	0.69528	0.194
Mof_C 	C 	0.315	0.903	0.7564	-0.047
Mof_C 	C 	0.3147	0.8446	0.7894	-0.018
Mof_H 	H 	0.3157	0.8005	0.7733	0.042
Mof_C 	C 	0.3131	0.8498	0.8454	-0.059
Mof_H 	H 	0.3129	0.8093	0.8666	0.056
Mof_C 	C 	0.3119	0.9118	0.8703	-0.011
Mof_H 	H 	0.3119	0.9144	0.9085	0.038
Mof_C 	C 	0.3106	0.9709	0.8401	-0.061
Mof_H 	H 	0.308	0.0142	0.8575	0.055
Mof_C 	C 	0.3132	0.9674	0.7818	-0.016
Mof_H 	H 	0.3138	0.0082	0.761	0.039
Mof_Cd	Cd	0.65917	0.67808	0.49476	0.399
Mof_O 	O 	0.84313	0.65895	0.70092	-0.322
Mof_O 	O 	0.83598	0.54468	0.69663	-0.323
Mof_O 	O 	0.51854	0.65507	0.71653	-0.318
Mof_O 	O 	0.52754	0.54008	0.71515	-0.318
Mof_N 	N 	0.66981	0.6259	0.58216	-0.26
Mof_C 	C 	0.8112	0.6045	0.68777	0.377
Mof_C 	C 	0.5496	0.5996	0.70306	0.373
Mof_C 	C 	0.6155	0.6064	0.66975	-0.297
Mof_C 	C 	0.6114	0.6168	0.6131	0.366
Mof_C 	C 	0.5416	0.6199	0.5837	-0.933
Mof_H 	H 	0.5453	0.5967	0.5489	0.325
Mof_H 	H 	0.5066	0.5972	0.6057	0.316
Mof_H 	H 	0.5287	0.6679	0.578	0.324
Mof_C 	C 	0.7328	0.6213	0.60622	0.369
Mof_C 	C 	0.7957	0.6287	0.5693	-0.904
Mof_H 	H 	0.8023	0.6771	0.5601	0.305
Mof_H 	H 	0.8365	0.6116	0.588	0.302
Mof_H 	H 	0.7885	0.6021	0.5363	0.306
Mof_C 	C 	0.7404	0.6098	0.6628	-0.298
Mof_C 	C 	0.6806	0.6036	0.69528	0.194
Mof_C 	C 	0.685	0.597	0.7564	-0.047
Mof_C 	C 	0.6853	0.6554	0.7894	-0.018
Mof_H 	H 	0.6843	0.6995	0.7733	0.042
Mof_C 	C 	0.6869	0.6502	0.8454	-0.06
Mof_H 	H 	0.6871	0.6907	0.8666	0.057
Mof_C 	C 	0.6881	0.5882	0.8703	-0.009
Mof_H 	H 	0.6881	0.5856	0.9085	0.037
Mof_C 	C 	0.6894	0.5291	0.8401	-0.063
Mof_H 	H 	0.692	0.4858	0.8575	0.055
Mof_C 	C 	0.6868	0.5326	0.7818	-0.016
Mof_H 	H 	0.6862	0.4918	0.761	0.039
Mof_Cd	Cd	0.15917	0.17808	0.99476	0.399
Mof_O 	O 	0.34313	0.15895	0.20092	-0.322
Mof_O 	O 	0.33598	0.04468	0.19663	-0.323
Mof_O 	O 	0.01854	0.15507	0.21653	-0.317
Mof_O 	O 	0.02754	0.04008	0.21515	-0.317
Mof_N 	N 	0.16981	0.1259	0.08216	-0.26
Mof_C 	C 	0.3112	0.1045	0.18777	0.377
Mof_C 	C 	0.0496	0.0996	0.20306	0.373
Mof_C 	C 	0.1155	0.1064	0.16975	-0.297
Mof_C 	C 	0.1114	0.1168	0.1131	0.366
Mof_C 	C 	0.0416	0.1199	0.0837	-0.935
Mof_H 	H 	0.0453	0.0967	0.0489	0.326
Mof_H 	H 	0.0066	0.0972	0.1057	0.316
Mof_H 	H 	0.0287	0.1679	0.078	0.325
Mof_C 	C 	0.2328	0.1213	0.10622	0.369
Mof_C 	C 	0.2957	0.1287	0.0693	-0.905
Mof_H 	H 	0.3023	0.1771	0.0601	0.305
Mof_H 	H 	0.3365	0.1116	0.088	0.302
Mof_H 	H 	0.2885	0.1021	0.0363	0.306
Mof_C 	C 	0.2404	0.1098	0.1628	-0.298
Mof_C 	C 	0.1806	0.1036	0.19528	0.194
Mof_C 	C 	0.185	0.097	0.2564	-0.048
Mof_C 	C 	0.1853	0.1554	0.2894	-0.017
Mof_H 	H 	0.1843	0.1995	0.2733	0.042
Mof_C 	C 	0.1869	0.1502	0.3454	-0.06
Mof_H 	H 	0.1871	0.1907	0.3666	0.057
Mof_C 	C 	0.1881	0.0882	0.3703	-0.01
Mof_H 	H 	0.1881	0.0856	0.4085	0.037
Mof_C 	C 	0.1894	0.0291	0.3401	-0.062
Mof_H 	H 	0.192	0.9858	0.3575	0.055
Mof_C 	C 	0.1868	0.0326	0.2818	-0.014
Mof_H 	H 	0.1862	0.9918	0.261	0.038
Mof_Cd	Cd	0.92808	0.59083	0.74476	0.399
Mof_O 	O 	0.90895	0.40687	0.95092	-0.322
Mof_O 	O 	0.79468	0.41402	0.94663	-0.323
Mof_O 	O 	0.90507	0.73146	0.96653	-0.317
Mof_O 	O 	0.79008	0.72246	0.96515	-0.317
Mof_N 	N 	0.8759	0.58019	0.83216	-0.26
Mof_C 	C 	0.8545	0.4388	0.93777	0.377
Mof_C 	C 	0.8496	0.7004	0.95306	0.373
Mof_C 	C 	0.8564	0.6345	0.91975	-0.297
Mof_C 	C 	0.8668	0.6386	0.8631	0.366
Mof_C 	C 	0.8699	0.7084	0.8337	-0.933
Mof_H 	H 	0.8467	0.7047	0.7989	0.325
Mof_H 	H 	0.8472	0.7434	0.8557	0.316
Mof_H 	H 	0.9179	0.7213	0.828	0.324
Mof_C 	C 	0.8713	0.5172	0.85622	0.369
Mof_C 	C 	0.8787	0.4543	0.8193	-0.904
Mof_H 	H 	0.9271	0.4477	0.8101	0.305
Mof_H 	H 	0.8616	0.4135	0.838	0.301
Mof_H 	H 	0.8521	0.4615	0.7863	0.306
Mof_C 	C 	0.8598	0.5096	0.9128	-0.298
Mof_C 	C 	0.8536	0.5694	0.94528	0.194
Mof_C 	C 	0.847	0.565	0.0064	-0.047
Mof_C 	C 	0.9054	0.5647	0.0394	-0.018
Mof_H 	H 	0.9495	0.5657	0.0233	0.042
Mof_C 	C 	0.9002	0.5631	0.0954	-0.06
Mof_H 	H 	0.9407	0.5629	0.1166	0.057
Mof_C 	C 	0.8382	0.5619	0.1203	-0.009
Mof_H 	H 	0.8356	0.5619	0.1585	0.037
Mof_C 	C 	0.7791	0.5606	0.0901	-0.063
Mof_H 	H 	0.7358	0.558	0.1075	0.055
Mof_C 	C 	0.7826	0.5632	0.0318	-0.015
Mof_H 	H 	0.7418	0.5638	0.011	0.039
Mof_Cd	Cd	0.42808	0.09083	0.24476	0.399
Mof_O 	O 	0.40895	0.90687	0.45092	-0.322
Mof_O 	O 	0.29468	0.91402	0.44663	-0.323
Mof_O 	O 	0.40507	0.23146	0.46653	-0.318
Mof_O 	O 	0.29008	0.22246	0.46515	-0.318
Mof_N 	N 	0.3759	0.08019	0.33216	-0.26
Mof_C 	C 	0.3545	0.9388	0.43777	0.377
Mof_C 	C 	0.3496	0.2004	0.45306	0.373
Mof_C 	C 	0.3564	0.1345	0.41975	-0.297
Mof_C 	C 	0.3668	0.1386	0.3631	0.366
Mof_C 	C 	0.3699	0.2084	0.3337	-0.933
Mof_H 	H 	0.3467	0.2047	0.2989	0.325
Mof_H 	H 	0.3472	0.2434	0.3557	0.316
Mof_H 	H 	0.4179	0.2213	0.328	0.324
Mof_C 	C 	0.3713	0.0172	0.35622	0.369
Mof_C 	C 	0.3787	0.9543	0.3193	-0.905
Mof_H 	H 	0.4271	0.9477	0.3101	0.305
Mof_H 	H 	0.3616	0.9135	0.338	0.302
Mof_H 	H 	0.3521	0.9615	0.2863	0.306
Mof_C 	C 	0.3598	0.0096	0.4128	-0.298
Mof_C 	C 	0.3536	0.0694	0.44528	0.194
Mof_C 	C 	0.347	0.065	0.5064	-0.047
Mof_C 	C 	0.4054	0.0647	0.5394	-0.018
Mof_H 	H 	0.4495	0.0657	0.5233	0.042
Mof_C 	C 	0.4002	0.0631	0.5954	-0.06
Mof_H 	H 	0.4407	0.0629	0.6166	0.057
Mof_C 	C 	0.3382	0.0619	0.6203	-0.009
Mof_H 	H 	0.3356	0.0619	0.6585	0.037
Mof_C 	C 	0.2791	0.0606	0.5901	-0.063
Mof_H 	H 	0.2358	0.058	0.6075	0.055
Mof_C 	C 	0.2826	0.0632	0.5318	-0.016
Mof_H 	H 	0.2418	0.0638	0.511	0.039
Mof_Cd	Cd	0.57192	0.40917	0.24476	0.399
Mof_O 	O 	0.59105	0.59313	0.45092	-0.322
Mof_O 	O 	0.70532	0.58598	0.44663	-0.323
Mof_O 	O 	0.59493	0.26854	0.46653	-0.318
Mof_O 	O 	0.70992	0.27754	0.46515	-0.318
Mof_N 	N 	0.6241	0.41981	0.33216	-0.26
Mof_C 	C 	0.6455	0.5612	0.43777	0.377
Mof_C 	C 	0.6504	0.2996	0.45306	0.373
Mof_C 	C 	0.6436	0.3655	0.41975	-0.297
Mof_C 	C 	0.6332	0.3614	0.3631	0.366
Mof_C 	C 	0.6301	0.2916	0.3337	-0.933
Mof_H 	H 	0.6533	0.2953	0.2989	0.325
Mof_H 	H 	0.6528	0.2566	0.3557	0.316
Mof_H 	H 	0.5821	0.2787	0.328	0.324
Mof_C 	C 	0.6287	0.4828	0.35622	0.369
Mof_C 	C 	0.6213	0.5457	0.3193	-0.904
Mof_H 	H 	0.5729	0.5523	0.3101	0.305
Mof_H 	H 	0.6384	0.5865	0.338	0.301
Mof_H 	H 	0.6479	0.5385	0.2863	0.306
Mof_C 	C 	0.6402	0.4904	0.4128	-0.298
Mof_C 	C 	0.6464	0.4306	0.44528	0.194
Mof_C 	C 	0.653	0.435	0.5064	-0.047
Mof_C 	C 	0.5946	0.4353	0.5394	-0.018
Mof_H 	H 	0.5505	0.4343	0.5233	0.042
Mof_C 	C 	0.5998	0.4369	0.5954	-0.06
Mof_H 	H 	0.5593	0.4371	0.6166	0.057
Mof_C 	C 	0.6618	0.4381	0.6203	-0.009
Mof_H 	H 	0.6644	0.4381	0.6585	0.037
Mof_C 	C 	0.7209	0.4394	0.5901	-0.063
Mof_H 	H 	0.7642	0.442	0.6075	0.055
Mof_C 	C 	0.7174	0.4368	0.5318	-0.015
Mof_H 	H 	0.7582	0.4362	0.511	0.039
Mof_Cd	Cd	0.07192	0.90917	0.74476	0.399
Mof_O 	O 	0.09105	0.09313	0.95092	-0.322
Mof_O 	O 	0.20532	0.08598	0.94663	-0.323
Mof_O 	O 	0.09493	0.76854	0.96653	-0.318
Mof_O 	O 	0.20992	0.77754	0.96515	-0.317
Mof_N 	N 	0.1241	0.91981	0.83216	-0.261
Mof_C 	C 	0.1455	0.0612	0.93777	0.377
Mof_C 	C 	0.1504	0.7996	0.95306	0.373
Mof_C 	C 	0.1436	0.8655	0.91975	-0.297
Mof_C 	C 	0.1332	0.8614	0.8631	0.366
Mof_C 	C 	0.1301	0.7916	0.8337	-0.933
Mof_H 	H 	0.1533	0.7953	0.7989	0.325
Mof_H 	H 	0.1528	0.7566	0.8557	0.316
Mof_H 	H 	0.0821	0.7787	0.828	0.324
Mof_C 	C 	0.1287	0.9828	0.85622	0.369
Mof_C 	C 	0.1213	0.0457	0.8193	-0.904
Mof_H 	H 	0.0729	0.0523	0.8101	0.305
Mof_H 	H 	0.1384	0.0865	0.838	0.302
Mof_H 	H 	0.1479	0.0385	0.7863	0.306
Mof_C 	C 	0.1402	0.9904	0.9128	-0.298
Mof_C 	C 	0.1464	0.9306	0.94528	0.195
Mof_C 	C 	0.153	0.935	0.0064	-0.049
Mof_C 	C 	0.0946	0.9353	0.0394	-0.016
Mof_H 	H 	0.0505	0.9343	0.0233	0.041
Mof_C 	C 	0.0998	0.9369	0.0954	-0.061
Mof_H 	H 	0.0593	0.9371	0.1166	0.057
Mof_C 	C 	0.1618	0.9381	0.1203	-0.008
Mof_H 	H 	0.1644	0.9381	0.1585	0.036
Mof_C 	C 	0.2209	0.9394	0.0901	-0.064
Mof_H 	H 	0.2642	0.942	0.1075	0.056
Mof_C 	C 	0.2174	0.9368	0.0318	-0.014
Mof_H 	H 	0.2582	0.9362	0.011	0.038
_end
