data_functionalizedCrystal
_audit_creation_method	'EQeq! by Chris Wilmer'
_symmetry_space_group_name_H-M	'P1'
_symmetry_Int_Tables_number	1
_symmetry_cell_setting	triclinic
loop_
_symmetry_equiv_pos_as_xyz
  x,y,z
_cell_length_a	5.742
_cell_length_b	8.55
_cell_length_c	18.512
_cell_angle_alpha	90
_cell_angle_beta	90
_cell_angle_gamma	90
loop_
_atom_site_label
_atom_site_type_symbol
_atom_site_fract_x
_atom_site_fract_y
_atom_site_fract_z
_atom_site_charge
Mof_Np	Np	0.4921	0.08055	0.51614	0.008
Mof_Np	Np	0.0079	0.91945	0.01614	0.008
Mof_Np	Np	0.5079	0.58055	0.98386	0.008
Mof_Np	Np	0.9921	0.41945	0.48386	0.009
Mof_H 	H 	0.8648	0.1982	0.148	0.046
Mof_H 	H 	0.4412	0.9584	0.1397	0.062
Mof_H 	H 	0.9333	0.2631	0.2657	0.084
Mof_H 	H 	0.5211	0.0098	0.2596	0.081
Mof_H 	H 	0.6352	0.8018	0.648	0.046
Mof_H 	H 	0.0588	0.0416	0.6397	0.063
Mof_H 	H 	0.5667	0.7369	0.7657	0.085
Mof_H 	H 	0.9789	0.9902	0.7596	0.081
Mof_H 	H 	0.1352	0.6982	0.352	0.046
Mof_H 	H 	0.5588	0.4584	0.3603	0.063
Mof_H 	H 	0.0667	0.7631	0.2343	0.084
Mof_H 	H 	0.4789	0.5098	0.2404	0.081
Mof_H 	H 	0.3648	0.3018	0.852	0.046
Mof_H 	H 	0.9412	0.5416	0.8603	0.062
Mof_H 	H 	0.4333	0.2369	0.7343	0.085
Mof_H 	H 	0.0211	0.4902	0.7404	0.081
Mof_C 	C 	0.997	0.159	0.1705	0.059
Mof_C 	C 	0.336	0.0174	0.1663	0.046
Mof_C 	C 	0.04	0.2003	0.2413	-0.075
Mof_C 	C 	0.3888	0.0515	0.238	-0.073
Mof_C 	C 	0.2404	0.149	0.2766	-0.002
Mof_C 	C 	0.2831	0.1864	0.3542	0.271
Mof_C 	C 	0.503	0.841	0.6705	0.06
Mof_C 	C 	0.164	0.9826	0.6663	0.046
Mof_C 	C 	0.46	0.7997	0.7413	-0.076
Mof_C 	C 	0.1112	0.9485	0.738	-0.074
Mof_C 	C 	0.2596	0.851	0.7766	-0.001
Mof_C 	C 	0.2169	0.8136	0.8542	0.271
Mof_C 	C 	0.003	0.659	0.3295	0.058
Mof_C 	C 	0.664	0.5174	0.3337	0.045
Mof_C 	C 	0.96	0.7003	0.2587	-0.075
Mof_C 	C 	0.6112	0.5515	0.262	-0.073
Mof_C 	C 	0.7596	0.649	0.2234	-0.002
Mof_C 	C 	0.7169	0.6864	0.1458	0.271
Mof_C 	C 	0.497	0.341	0.8295	0.06
Mof_C 	C 	0.836	0.4826	0.8337	0.046
Mof_C 	C 	0.54	0.2997	0.7587	-0.076
Mof_C 	C 	0.8888	0.4485	0.762	-0.073
Mof_C 	C 	0.7404	0.351	0.7234	-0.002
Mof_C 	C 	0.7831	0.3136	0.6458	0.271
Mof_N 	N 	0.1365	0.0663	0.1331	-0.086
Mof_N 	N 	0.3635	0.9337	0.6331	-0.086
Mof_N 	N 	0.8635	0.5663	0.3669	-0.085
Mof_N 	N 	0.6365	0.4337	0.8669	-0.086
Mof_O 	O 	0.4231	0.1033	0.3868	-0.188
Mof_O 	O 	0.1783	0.3039	0.3793	-0.186
Mof_O 	O 	0.2538	0.2209	0.5296	-0.049
Mof_O 	O 	0.0769	0.8967	0.8868	-0.188
Mof_O 	O 	0.3217	0.6961	0.8793	-0.185
Mof_O 	O 	0.2462	0.7791	0.0296	-0.048
Mof_O 	O 	0.5769	0.6033	0.1132	-0.188
Mof_O 	O 	0.8217	0.8039	0.1207	-0.186
Mof_O 	O 	0.7462	0.7209	0.9704	-0.049
Mof_O 	O 	0.9231	0.3967	0.6132	-0.188
Mof_O 	O 	0.6783	0.1961	0.6207	-0.185
Mof_O 	O 	0.7538	0.2791	0.4704	-0.048
_end
