data_functionalizedCrystal
_audit_creation_method	'EQeq! by Chris Wilmer'
_symmetry_space_group_name_H-M	'P1'
_symmetry_Int_Tables_number	1
_symmetry_cell_setting	triclinic
loop_
_symmetry_equiv_pos_as_xyz
  x,y,z
_cell_length_a	18.64
_cell_length_b	22.795
_cell_length_c	13.281
_cell_angle_alpha	90
_cell_angle_beta	130.484
_cell_angle_gamma	90
loop_
_atom_site_label
_atom_site_type_symbol
_atom_site_fract_x
_atom_site_fract_y
_atom_site_fract_z
_atom_site_charge
Mof_O 	O 	0.61406	0.29186	0.43245	-0.281
Mof_O 	O 	0.48931	0.24194	0.37257	-0.273
Mof_O 	O 	0.83997	0.66566	0.06393	-0.275
Mof_O 	O 	0.9085	0.6034	0.2272	-0.23
Mof_C 	C 	0.5475	0.2838	0.4317	0.276
Mof_C 	C 	0.53359	0.32572	0.5047	0.041
Mof_C 	C 	0.5849	0.37666	0.556	-0.165
Mof_H 	H 	0.6269	0.3858	0.5428	0.103
Mof_C 	C 	0.5747	0.41457	0.6271	0.16
Mof_H 	H 	0.6102	0.4488	0.661	-0.033
Mof_C 	C 	0.51317	0.40309	0.6495	-0.34
Mof_C 	C 	0.461	0.35192	0.5943	0.157
Mof_H 	H 	0.418	0.3429	0.6059	-0.034
Mof_C 	C 	0.4705	0.31406	0.5231	-0.162
Mof_H 	H 	0.4339	0.2802	0.487	0.101
Mof_C 	C 	0.84069	0.61697	0.1114	0.257
Mof_C 	C 	0.75911	0.57616	0.0238	0.045
Mof_C 	C 	0.69192	0.58711	0.8904	-0.147
Mof_H 	H 	0.6976	0.6198	0.854	0.099
Mof_C 	C 	0.61556	0.54957	0.8097	0.15
Mof_H 	H 	0.5703	0.5576	0.7197	-0.029
Mof_C 	C 	0.60558	0.4998	0.8616	-0.345
Mof_C 	C 	0.67544	0.48986	0.9958	0.197
Mof_H 	H 	0.6709	0.457	0.0329	-0.049
Mof_C 	C 	0.75133	0.52668	0.0762	-0.191
Mof_H 	H 	0.7974	0.5183	0.166	0.119
Mof_O 	O 	0.11406	0.79186	0.43245	-0.275
Mof_O 	O 	0.98931	0.74194	0.37257	-0.219
Mof_O 	O 	0.33997	0.16566	0.06393	-0.291
Mof_O 	O 	0.4085	0.1034	0.2272	-0.253
Mof_C 	C 	0.0475	0.7838	0.4317	0.237
Mof_C 	C 	0.03359	0.82572	0.5047	-0.02
Mof_C 	C 	0.0849	0.87666	0.556	-0.137
Mof_H 	H 	0.1269	0.8858	0.5428	0.09
Mof_C 	C 	0.0747	0.91457	0.6271	0.122
Mof_H 	H 	0.1102	0.9488	0.661	-0.022
Mof_C 	C 	0.01317	0.90309	0.6495	-0.329
Mof_C 	C 	0.961	0.85192	0.5943	0.163
Mof_H 	H 	0.918	0.8429	0.6059	-0.023
Mof_C 	C 	0.9705	0.81406	0.5231	-0.089
Mof_H 	H 	0.9339	0.7802	0.487	0.086
Mof_C 	C 	0.34069	0.11697	0.1114	0.268
Mof_C 	C 	0.25911	0.07616	0.0238	0.016
Mof_C 	C 	0.19192	0.08711	0.8904	-0.118
Mof_H 	H 	0.1976	0.1198	0.854	0.084
Mof_C 	C 	0.11556	0.04957	0.8097	0.107
Mof_H 	H 	0.0703	0.0576	0.7197	-0.024
Mof_C 	C 	0.10558	0.9998	0.8616	-0.288
Mof_C 	C 	0.17544	0.98986	0.9958	0.146
Mof_H 	H 	0.1709	0.957	0.0329	-0.036
Mof_C 	C 	0.25133	0.02668	0.0762	-0.155
Mof_H 	H 	0.2974	0.0183	0.166	0.101
Mof_O 	O 	0.38594	0.29186	0.06755	-0.281
Mof_O 	O 	0.51069	0.24194	0.12743	-0.272
Mof_O 	O 	0.16003	0.66566	0.43607	-0.292
Mof_O 	O 	0.0915	0.6034	0.2728	-0.263
Mof_C 	C 	0.4525	0.2838	0.0683	0.271
Mof_C 	C 	0.46641	0.32572	0.9953	0.042
Mof_C 	C 	0.4151	0.37666	0.944	-0.164
Mof_H 	H 	0.3731	0.3858	0.9572	0.104
Mof_C 	C 	0.4253	0.41457	0.8729	0.158
Mof_H 	H 	0.3898	0.4488	0.839	-0.034
Mof_C 	C 	0.48683	0.40309	0.8505	-0.336
Mof_C 	C 	0.539	0.35192	0.9057	0.148
Mof_H 	H 	0.582	0.3429	0.8941	-0.026
Mof_C 	C 	0.5295	0.31406	0.9769	-0.144
Mof_H 	H 	0.5661	0.2802	0.013	0.091
Mof_C 	C 	0.15931	0.61697	0.3886	0.265
Mof_C 	C 	0.24089	0.57616	0.4762	0.028
Mof_C 	C 	0.30808	0.58711	0.6096	-0.142
Mof_H 	H 	0.3024	0.6198	0.646	0.092
Mof_C 	C 	0.38444	0.54957	0.6903	0.137
Mof_H 	H 	0.4297	0.5576	0.7803	-0.024
Mof_C 	C 	0.39442	0.4998	0.6384	-0.331
Mof_C 	C 	0.32456	0.48986	0.5042	0.151
Mof_H 	H 	0.3291	0.457	0.4671	-0.033
Mof_C 	C 	0.24867	0.52668	0.4238	-0.159
Mof_H 	H 	0.2026	0.5183	0.334	0.097
Mof_O 	O 	0.88594	0.79186	0.06755	-0.287
Mof_O 	O 	0.01069	0.74194	0.12743	-0.315
Mof_O 	O 	0.66003	0.16566	0.43607	-0.291
Mof_O 	O 	0.5915	0.1034	0.2728	-0.256
Mof_C 	C 	0.9525	0.7838	0.0683	0.329
Mof_C 	C 	0.96641	0.82572	0.9953	0.042
Mof_C 	C 	0.9151	0.87666	0.944	-0.106
Mof_H 	H 	0.8731	0.8858	0.9572	0.087
Mof_C 	C 	0.9253	0.91457	0.8729	0.079
Mof_H 	H 	0.8898	0.9488	0.839	0.001
Mof_C 	C 	0.98683	0.90309	0.8505	-0.181
Mof_C 	C 	0.039	0.85192	0.9057	0.025
Mof_H 	H 	0.082	0.8429	0.8941	0.009
Mof_C 	C 	0.0295	0.81406	0.9769	-0.132
Mof_H 	H 	0.0661	0.7802	0.013	0.078
Mof_C 	C 	0.65931	0.11697	0.3886	0.278
Mof_C 	C 	0.74089	0.07616	0.4762	-0.004
Mof_C 	C 	0.80808	0.08711	0.6096	-0.09
Mof_H 	H 	0.8024	0.1198	0.646	0.08
Mof_C 	C 	0.88444	0.04957	0.6903	0.072
Mof_H 	H 	0.9297	0.0576	0.7803	0.015
Mof_C 	C 	0.89442	0.9998	0.6384	-0.224
Mof_C 	C 	0.82456	0.98986	0.5042	0.081
Mof_H 	H 	0.8291	0.957	0.4671	0.001
Mof_C 	C 	0.74867	0.02668	0.4238	-0.104
Mof_H 	H 	0.7026	0.0183	0.334	0.084
Mof_O 	O 	0.38594	0.70814	0.56755	-0.28
Mof_O 	O 	0.51069	0.75806	0.62743	-0.272
Mof_O 	O 	0.16003	0.33434	0.93607	-0.289
Mof_O 	O 	0.0915	0.3966	0.7728	-0.263
Mof_C 	C 	0.4525	0.7162	0.5683	0.276
Mof_C 	C 	0.46641	0.67428	0.4953	0.04
Mof_C 	C 	0.4151	0.62334	0.444	-0.164
Mof_H 	H 	0.3731	0.6142	0.4572	0.101
Mof_C 	C 	0.4253	0.58543	0.3729	0.157
Mof_H 	H 	0.3898	0.5512	0.339	-0.035
Mof_C 	C 	0.48683	0.59691	0.3505	-0.336
Mof_C 	C 	0.539	0.64808	0.4057	0.154
Mof_H 	H 	0.582	0.6571	0.3941	-0.03
Mof_C 	C 	0.5295	0.68594	0.4769	-0.16
Mof_H 	H 	0.5661	0.7198	0.513	0.102
Mof_C 	C 	0.15931	0.38303	0.8886	0.267
Mof_C 	C 	0.24089	0.42384	0.9762	0.026
Mof_C 	C 	0.30808	0.41289	0.1096	-0.143
Mof_H 	H 	0.3024	0.3802	0.146	0.091
Mof_C 	C 	0.38444	0.45043	0.1903	0.129
Mof_H 	H 	0.4297	0.4424	0.2803	-0.023
Mof_C 	C 	0.39442	0.5002	0.1384	-0.316
Mof_C 	C 	0.32456	0.51014	0.0042	0.112
Mof_H 	H 	0.3291	0.543	0.9671	-0.013
Mof_C 	C 	0.24867	0.47332	0.9238	-0.131
Mof_H 	H 	0.2026	0.4817	0.834	0.088
Mof_O 	O 	0.88594	0.20814	0.56755	-0.286
Mof_O 	O 	0.01069	0.25806	0.62743	-0.315
Mof_O 	O 	0.66003	0.83434	0.93607	-0.287
Mof_O 	O 	0.5915	0.8966	0.7728	-0.255
Mof_C 	C 	0.9525	0.2162	0.5683	0.336
Mof_C 	C 	0.96641	0.17428	0.4953	0.039
Mof_C 	C 	0.9151	0.12334	0.444	-0.106
Mof_H 	H 	0.8731	0.1142	0.4572	0.085
Mof_C 	C 	0.9253	0.08543	0.3729	0.077
Mof_H 	H 	0.8898	0.0512	0.339	0.001
Mof_C 	C 	0.98683	0.09691	0.3505	-0.181
Mof_C 	C 	0.039	0.14808	0.4057	0.03
Mof_H 	H 	0.082	0.1571	0.3941	0.005
Mof_C 	C 	0.0295	0.18594	0.4769	-0.146
Mof_H 	H 	0.0661	0.2198	0.513	0.088
Mof_C 	C 	0.65931	0.88303	0.8886	0.279
Mof_C 	C 	0.74089	0.92384	0.9762	-0.005
Mof_C 	C 	0.80808	0.91289	0.1096	-0.092
Mof_H 	H 	0.8024	0.8802	0.146	0.078
Mof_C 	C 	0.88444	0.95043	0.1903	0.062
Mof_H 	H 	0.9297	0.9424	0.2803	0.016
Mof_C 	C 	0.89442	0.0002	0.1384	-0.208
Mof_C 	C 	0.82456	0.01014	0.0042	0.046
Mof_H 	H 	0.8291	0.043	0.9671	0.02
Mof_C 	C 	0.74867	0.97332	0.9238	-0.08
Mof_H 	H 	0.7026	0.9817	0.834	0.076
Mof_O 	O 	0.61406	0.70814	0.93245	-0.277
Mof_O 	O 	0.48931	0.75806	0.87257	-0.272
Mof_O 	O 	0.83997	0.33434	0.56393	-0.273
Mof_O 	O 	0.9085	0.3966	0.7272	-0.228
Mof_C 	C 	0.5475	0.7162	0.9317	0.281
Mof_C 	C 	0.53359	0.67428	0.0047	0.039
Mof_C 	C 	0.5849	0.62334	0.056	-0.165
Mof_H 	H 	0.6269	0.6142	0.0428	0.1
Mof_C 	C 	0.5747	0.58543	0.1271	0.159
Mof_H 	H 	0.6102	0.5512	0.161	-0.034
Mof_C 	C 	0.51317	0.59691	0.1495	-0.341
Mof_C 	C 	0.461	0.64808	0.0943	0.163
Mof_H 	H 	0.418	0.6571	0.1059	-0.038
Mof_C 	C 	0.4705	0.68594	0.0231	-0.179
Mof_H 	H 	0.4339	0.7198	0.987	0.112
Mof_C 	C 	0.84069	0.38303	0.6114	0.26
Mof_C 	C 	0.75911	0.42384	0.5238	0.042
Mof_C 	C 	0.69192	0.41289	0.3904	-0.147
Mof_H 	H 	0.6976	0.3802	0.354	0.097
Mof_C 	C 	0.61556	0.45043	0.3097	0.142
Mof_H 	H 	0.5703	0.4424	0.2197	-0.027
Mof_C 	C 	0.60558	0.5002	0.3616	-0.33
Mof_C 	C 	0.67544	0.51014	0.4958	0.157
Mof_H 	H 	0.6709	0.543	0.5329	-0.03
Mof_C 	C 	0.75133	0.47332	0.5762	-0.163
Mof_H 	H 	0.7974	0.4817	0.666	0.11
Mof_O 	O 	0.11406	0.20814	0.93245	-0.272
Mof_O 	O 	0.98931	0.25806	0.87257	-0.219
Mof_O 	O 	0.33997	0.83434	0.56393	-0.29
Mof_O 	O 	0.4085	0.8966	0.7272	-0.252
Mof_C 	C 	0.0475	0.2162	0.9317	0.24
Mof_C 	C 	0.03359	0.17428	0.0047	-0.019
Mof_C 	C 	0.0849	0.12334	0.056	-0.139
Mof_H 	H 	0.1269	0.1142	0.0428	0.089
Mof_C 	C 	0.0747	0.08543	0.1271	0.123
Mof_H 	H 	0.1102	0.0512	0.161	-0.023
Mof_C 	C 	0.01317	0.09691	0.1495	-0.329
Mof_C 	C 	0.961	0.14808	0.0943	0.17
Mof_H 	H 	0.918	0.1571	0.1059	-0.027
Mof_C 	C 	0.9705	0.18594	0.0231	-0.108
Mof_H 	H 	0.9339	0.2198	0.987	0.098
Mof_C 	C 	0.34069	0.88303	0.6114	0.27
Mof_C 	C 	0.25911	0.92384	0.5238	0.014
Mof_C 	C 	0.19192	0.91289	0.3904	-0.118
Mof_H 	H 	0.1976	0.8802	0.354	0.082
Mof_C 	C 	0.11556	0.95043	0.3097	0.097
Mof_H 	H 	0.0703	0.9424	0.2197	-0.022
Mof_C 	C 	0.10558	0.0002	0.3616	-0.272
Mof_C 	C 	0.17544	0.01014	0.4958	0.111
Mof_H 	H 	0.1709	0.043	0.5329	-0.018
Mof_C 	C 	0.25133	0.97332	0.5762	-0.132
Mof_H 	H 	0.2974	0.9817	0.666	0.093
Mof_Cd	Cd	0.5	0.1838	0.25	0.494
Mof_Cd	Cd	1.10146e-33	0.6838	0.25	0.45
Mof_Cd	Cd	0.5	0.8162	0.75	0.495
Mof_Cd	Cd	-5.29755e-17	0.3162	0.75	0.451
Mof_Cd	Cd	0.75	0.25	0.5	0.434
Mof_Cd	Cd	0.25	0.25	-0	0.419
Mof_Cd	Cd	0.25	0.75	0.5	0.426
Mof_Cd	Cd	0.75	0.75	-0	0.427
Mof_Si	Si	0.5	0.45157	0.75	0.873
Mof_Si	Si	-5.29755e-17	0.95157	0.75	0.684
Mof_Si	Si	0.5	0.54843	0.25	0.859
Mof_Si	Si	1.10146e-33	0.04843	0.25	0.672
_end
