data_functionalizedCrystal
_audit_creation_method	'EQeq! by Chris Wilmer'
_symmetry_space_group_name_H-M	'P1'
_symmetry_Int_Tables_number	1
_symmetry_cell_setting	triclinic
loop_
_symmetry_equiv_pos_as_xyz
  x,y,z
_cell_length_a	12.889
_cell_length_b	13.16
_cell_length_c	14.6083
_cell_angle_alpha	116.771
_cell_angle_beta	113.32
_cell_angle_gamma	90
loop_
_atom_site_label
_atom_site_type_symbol
_atom_site_fract_x
_atom_site_fract_y
_atom_site_fract_z
_atom_site_charge
Mof_Mn	Mn	0.21791	0.65608	0.42372	0.635
Mof_Mn	Mn	0.71722	0.67508	0.4269	0.642
Mof_Mn	Mn	0.28278	0.24818	0.5731	0.66
Mof_Mn	Mn	0.5	0.98092	-0	0.541
Mof_Mn	Mn	-0	0.92882	-0	0.529
Mof_Mn	Mn	0.78209	0.23236	0.57628	0.678
Mof_Mo	Mo	0.10188	0.01128	0.7178	1.017
Mof_Mo	Mo	0.89812	0.29348	0.2822	1.013
Mof_Mo	Mo	0.59995	0.61292	0.71812	0.966
Mof_Mo	Mo	0.40005	0.8948	0.28188	0.9
Mof_C 	C 	0.2703	0.0145	0.8326	-0.112
Mof_C 	C 	0.4438	0.9311	0.1724	-0.149
Mof_C 	C 	0.646	0.6265	0.5968	-0.127
Mof_C 	C 	0.7694	0.7288	0.8372	-0.112
Mof_C 	C 	0.8637	0.3362	0.1454	-0.134
Mof_C 	C 	0.0431	0.2588	0.388	-0.16
Mof_C 	C 	0.1487	0.8749	0.6018	-0.173
Mof_C 	C 	0.9414	0.1501	0.1694	-0.136
Mof_C 	C 	0.9569	0.8708	0.612	-0.144
Mof_C 	C 	0.5429	0.0377	0.3904	-0.1
Mof_C 	C 	0.2306	0.8916	0.1628	-0.14
Mof_C 	C 	0.6215	0.5763	0.8544	-0.124
Mof_C 	C 	0.4625	0.4638	0.6306	-0.131
Mof_C 	C 	0.1866	0.1067	0.6696	-0.123
Mof_C 	C 	0.689	0.4708	0.674	-0.113
Mof_C 	C 	0.1363	0.1908	0.8546	-0.121
Mof_C 	C 	0.7297	0.1819	0.1674	-0.145
Mof_C 	C 	0.8134	0.4371	0.3304	-0.128
Mof_C 	C 	0.311	0.7968	0.326	-0.127
Mof_C 	C 	0.8513	0.2731	0.3982	-0.135
Mof_C 	C 	0.354	0.0297	0.4032	-0.093
Mof_C 	C 	0.4571	0.6473	0.6096	-0.139
Mof_C 	C 	0.5562	0.7587	0.8276	-0.124
Mof_C 	C 	0.5375	0.8332	0.3694	-0.139
Mof_C 	C 	0.0379	0.4373	0.3616	-0.162
Mof_C 	C 	0.9621	0.0757	0.6384	-0.11
Mof_C 	C 	0.0586	0.9807	0.8306	-0.161
Mof_C 	C 	0.3785	0.7219	0.1456	-0.144
Mof_N 	N 	0.2658	0.7457	0.3506	-0.165
Mof_N 	N 	0.8774	0.7974	0.554	-0.145
Mof_N 	N 	0.2262	0.1613	0.6434	-0.153
Mof_N 	N 	0.1515	0.282	0.9216	-0.059
Mof_N 	N 	0.6065	0.7916	0.4094	-0.16
Mof_N 	N 	0.7738	0.5179	0.3566	-0.157
Mof_N 	N 	0.1448	0.8914	0.0988	-0.172
Mof_N 	N 	0.1226	0.2434	0.446	-0.145
Mof_N 	N 	0.3768	0.663	0.5478	-0.152
Mof_N 	N 	0.1087	0.5175	0.4006	-0.154
Mof_N 	N 	0.8552	0.7926	0.9012	-0.122
Mof_N 	N 	0.7342	0.3951	0.6494	-0.155
Mof_N 	N 	0.6694	0.6349	0.5334	-0.15
Mof_N 	N 	0.8913	0.1169	0.5994	-0.153
Mof_N 	N 	0.8485	0.3604	0.0784	-0.09
Mof_N 	N 	0.3661	0.6249	0.0766	-0.1
Mof_N 	N 	0.8252	0.2629	0.462	-0.145
Mof_N 	N 	0.0391	0.9631	0.8938	-0.128
Mof_N 	N 	0.6339	0.5483	0.9234	-0.056
Mof_N 	N 	0.3935	0.3822	0.5906	-0.155
Mof_N 	N 	0.1748	0.8009	0.538	-0.145
Mof_N 	N 	0.3306	0.1015	0.4666	-0.156
Mof_N 	N 	0.3621	0.0181	0.897	-0.116
Mof_N 	N 	0.9609	0.0693	0.1062	-0.14
Mof_N 	N 	0.6232	0.1152	0.4522	-0.158
Mof_N 	N 	0.6379	0.1211	0.103	-0.148
Mof_N 	N 	0.5392	0.8392	0.89	-0.127
Mof_N 	N 	0.4608	0.9492	0.11	-0.169
_end
