data_functionalizedCrystal
_audit_creation_method	'EQeq! by Chris Wilmer'
_symmetry_space_group_name_H-M	'P1'
_symmetry_Int_Tables_number	1
_symmetry_cell_setting	triclinic
loop_
_symmetry_equiv_pos_as_xyz
  x,y,z
_cell_length_a	9.5593
_cell_length_b	10.2131
_cell_length_c	11.9424
_cell_angle_alpha	110.091
_cell_angle_beta	99.943
_cell_angle_gamma	95.8
loop_
_atom_site_label
_atom_site_type_symbol
_atom_site_fract_x
_atom_site_fract_y
_atom_site_fract_z
_atom_site_charge
Mof_Zn	Zn	0.03414	0.29728	0.73249	1.217
Mof_C 	C 	0.7638	0.174	0.565	0.376
Mof_C 	C 	0.6068	0.1694	0.5188	-0.056
Mof_C 	C 	0.5169	0.221	0.5976	0.001
Mof_H 	H 	0.5555	0.2645	0.6812	0.076
Mof_C 	C 	0.3715	0.2086	0.5532	-0.057
Mof_C 	C 	0.3154	0.1487	0.4278	-0.076
Mof_H 	H 	0.2184	0.1443	0.396	0.06
Mof_C 	C 	0.4055	0.0961	0.3515	0.086
Mof_C 	C 	0.5491	0.1023	0.3939	-0.067
Mof_H 	H 	0.6069	0.0626	0.3405	0.085
Mof_C 	C 	0.2743	0.2554	0.6405	0.332
Mof_C 	C 	0.2048	0.9338	0.0352	0.19
Mof_C 	C 	0.173	0.7888	0.9811	-0.104
Mof_H 	H 	0.1945	0.7326	0.0265	0.089
Mof_C 	C 	0.1091	0.7285	0.8591	0.019
Mof_C 	C 	0.077	0.8146	0.7934	-0.116
Mof_H 	H 	0.0375	0.7737	0.7098	0.091
Mof_C 	C 	0.1029	0.96	0.8507	0.126
Mof_C 	C 	0.1665	0.0205	0.9726	-0.251
Mof_H 	H 	0.1835	0.1183	0.0126	0.127
Mof_C 	C 	0.0761	0.5683	0.794	0.288
Mof_C 	C 	0.0573	0.0494	0.7775	0.222
Mof_O 	O 	0.8258	0.0939	0.493	-0.436
Mof_O 	O 	0.8231	0.2594	0.672	-0.407
Mof_O 	O 	0.1366	0.2157	0.5982	-0.553
Mof_O 	O 	0.3267	0.3293	0.7487	-0.283
Mof_O 	O 	0.0812	0.495	0.8579	-0.412
Mof_O 	O 	0.0425	0.5166	0.6791	-0.325
Mof_O 	O 	0.0033	0.9888	0.6678	-0.416
Mof_O 	O 	0.079	0.1825	0.8354	-0.42
Mof_N 	N 	0.3579	0.003	0.217	-0.055
Mof_N 	N 	0.2443	0.0272	0.1774	-0.118
Mof_O 	O 	0.4261	0.9078	0.167	-0.093
Mof_Zn	Zn	0.96586	0.70272	0.26751	1.25
Mof_C 	C 	0.2362	0.826	0.435	0.384
Mof_C 	C 	0.3932	0.8306	0.4812	-0.043
Mof_C 	C 	0.4831	0.779	0.4024	-0.008
Mof_H 	H 	0.4445	0.7355	0.3188	0.075
Mof_C 	C 	0.6285	0.7914	0.4468	-0.023
Mof_C 	C 	0.6846	0.8513	0.5722	-0.096
Mof_H 	H 	0.7816	0.8557	0.604	0.115
Mof_C 	C 	0.5945	0.9039	0.6485	0.126
Mof_C 	C 	0.4509	0.8977	0.6061	-0.077
Mof_H 	H 	0.3931	0.9374	0.6595	0.11
Mof_C 	C 	0.7257	0.7446	0.3595	0.32
Mof_C 	C 	0.7952	0.0662	0.9648	0.116
Mof_C 	C 	0.827	0.2112	0.0189	-0.121
Mof_H 	H 	0.8055	0.2674	0.9735	0.133
Mof_C 	C 	0.8909	0.2715	0.1409	0.011
Mof_C 	C 	0.923	0.1854	0.2066	-0.003
Mof_H 	H 	0.9625	0.2263	0.2902	0.088
Mof_C 	C 	0.8971	0.04	0.1493	-0.081
Mof_C 	C 	0.8335	0.9795	0.0274	-0.041
Mof_H 	H 	0.8165	0.8817	0.9874	0.114
Mof_C 	C 	0.9239	0.4317	0.206	0.293
Mof_C 	C 	0.9427	0.9506	0.2225	0.44
Mof_O 	O 	0.1742	0.9061	0.507	-0.457
Mof_O 	O 	0.1769	0.7406	0.328	-0.481
Mof_O 	O 	0.8634	0.7843	0.4018	-0.489
Mof_O 	O 	0.6733	0.6707	0.2513	-0.28
Mof_O 	O 	0.9188	0.505	0.1421	-0.372
Mof_O 	O 	0.9575	0.4834	0.3209	-0.264
Mof_O 	O 	0.9967	0.0112	0.3322	-0.448
Mof_O 	O 	0.921	0.8175	0.1646	-0.421
Mof_N 	N 	0.6421	0.997	0.783	-0.016
Mof_N 	N 	0.7557	0.9728	0.8226	-0.053
Mof_O 	O 	0.5739	0.0922	0.833	-0.138
Mof_Zn	Zn	-3.34464e-18	0	0.5	1.197
_end
