data_functionalizedCrystal
_audit_creation_method	'EQeq! by Chris Wilmer'
_symmetry_space_group_name_H-M	'P1'
_symmetry_Int_Tables_number	1
_symmetry_cell_setting	triclinic
loop_
_symmetry_equiv_pos_as_xyz
  x,y,z
_cell_length_a	9.1549
_cell_length_b	15.4086
_cell_length_c	25.4519
_cell_angle_alpha	80.7761
_cell_angle_beta	79.6392
_cell_angle_gamma	72.7183
loop_
_atom_site_label
_atom_site_type_symbol
_atom_site_fract_x
_atom_site_fract_y
_atom_site_fract_z
_atom_site_charge
Mof_Cd	Cd	0.15323	0.37655	0.49503	0.52
Mof_Cd	Cd	0.02481	0.12345	0.00497	0.515
Mof_Cd	Cd	0.84677	0.62345	0.50497	0.52
Mof_Cd	Cd	0.97519	0.87655	0.99503	0.515
Mof_H 	H 	0.9933	0.2103	0.6619	0.05
Mof_H 	H 	0.63	0.8112	0.7394	0.08
Mof_H 	H 	0.7064	0.7301	0.8679	0.056
Mof_H 	H 	0.4564	0.9991	0.6905	0.081
Mof_H 	H 	0.1287	0.0797	0.8217	0.063
Mof_H 	H 	0.2936	0.2699	0.1321	0.056
Mof_H 	H 	0.8713	0.9203	0.1783	0.063
Mof_H 	H 	0.8194	0.3112	0.2394	0.079
Mof_H 	H 	0.872	0.2301	0.1659	0.041
Mof_H 	H 	0.146	0.5009	0.8095	0.083
Mof_H 	H 	0.3044	0.7699	0.6321	0.056
Mof_H 	H 	0.5665	0.2167	0.1721	0.059
Mof_H 	H 	0.0447	0.7167	0.6721	0.061
Mof_H 	H 	0.5584	0.9013	0.3871	0.052
Mof_H 	H 	0.8468	0.5987	0.1129	0.049
Mof_H 	H 	0.8655	0.2897	0.8381	0.045
Mof_H 	H 	0.1532	0.4013	0.8871	0.049
Mof_H 	H 	0.7945	0.1428	0.2964	0.08
Mof_H 	H 	0.2337	0.3572	0.2036	0.079
Mof_H 	H 	0.7663	0.6428	0.7964	0.079
Mof_H 	H 	0.4335	0.7833	0.8279	0.059
Mof_H 	H 	0.128	0.7699	0.8341	0.041
Mof_H 	H 	0.1345	0.7103	0.1619	0.045
Mof_H 	H 	0.9553	0.2833	0.3279	0.061
Mof_H 	H 	0.4416	0.0987	0.6129	0.052
Mof_H 	H 	0.854	0.4991	0.1905	0.083
Mof_H 	H 	0.37	0.1888	0.2606	0.08
Mof_H 	H 	0.9872	0.8876	0.2596	0.076
Mof_H 	H 	0.6956	0.2301	0.3679	0.056
Mof_H 	H 	0.5436	0.0009	0.3095	0.081
Mof_H 	H 	0.1344	0.6124	0.2404	0.08
Mof_H 	H 	0.0301	0.4203	0.6783	0.06
Mof_H 	H 	0.0067	0.7897	0.3381	0.05
Mof_H 	H 	0.1806	0.6888	0.7606	0.079
Mof_H 	H 	0.9699	0.5797	0.3217	0.06
Mof_H 	H 	0.268	0.2699	0.3341	0.04
Mof_H 	H 	0.0128	0.1124	0.7404	0.076
Mof_H 	H 	0.732	0.7301	0.6659	0.04
Mof_H 	H 	0.8656	0.3876	0.7596	0.08
Mof_H 	H 	0.2055	0.8572	0.7036	0.08
Mof_C 	C 	0.9235	0.3316	0.8324	0.033
Mof_C 	C 	0.0542	0.5304	0.6268	-0.022
Mof_C 	C 	0.4019	0.3083	0.4069	0.313
Mof_C 	C 	0.371	0.7794	0.6528	0.028
Mof_C 	C 	0.0116	0.6083	0.7225	-0.012
Mof_C 	C 	0.8829	0.8083	0.9069	0.309
Mof_C 	C 	0.3383	0.8209	0.9271	0.292
Mof_C 	C 	0.0863	0.6791	0.5729	0.29
Mof_C 	C 	0.9458	0.4696	0.3732	-0.022
Mof_C 	C 	0.6617	0.1791	0.0729	0.292
Mof_C 	C 	0.7634	0.9551	0.2763	0.063
Mof_C 	C 	0.9141	0.3043	0.2175	-0.116
Mof_C 	C 	0.0177	0.2702	0.9218	0.291
Mof_C 	C 	0.6303	0.1571	0.1731	-0.033
Mof_C 	C 	0.9948	0.5449	0.2237	0.07
Mof_C 	C 	0.6257	0.7548	0.6734	0.036
Mof_C 	C 	0.354	0.1017	0.6383	0.028
Mof_C 	C 	0.5923	0.1574	0.271	0.07
Mof_C 	C 	0.0859	0.6957	0.7825	-0.116
Mof_C 	C 	0.8105	0.9807	0.1769	-0.046
Mof_C 	C 	0.9877	0.4829	0.2755	-0.009
Mof_C 	C 	0.9125	0.8316	0.3324	0.022
Mof_C 	C 	0.5641	0.8043	0.7175	-0.12
Mof_C 	C 	0.0765	0.6684	0.1676	0.033
Mof_C 	C 	0.2173	0.1651	0.6289	-0.071
Mof_C 	C 	0.1614	0.3307	0.1965	-0.109
Mof_C 	C 	0.0872	0.2424	0.1406	-0.083
Mof_C 	C 	0.6576	0.1083	0.2225	-0.018
Mof_C 	C 	0.075	0.4854	0.5768	0.28
Mof_C 	C 	0.9887	0.6651	0.1289	-0.077
Mof_C 	C 	0.2097	0.2298	0.5782	0.29
Mof_C 	C 	0.2539	0.9829	0.7755	-0
Mof_C 	C 	0.0052	0.4551	0.7763	0.07
Mof_C 	C 	0.3697	0.8429	0.8269	-0.033
Mof_C 	C 	0.8628	0.9854	0.0768	0.274
Mof_C 	C 	0.9681	0.5193	0.3231	-0.037
Mof_C 	C 	0.0772	0.609	0.2144	-0.111
Mof_C 	C 	0.7461	0.0171	0.2245	-0
Mof_C 	C 	0.5981	0.6917	0.5931	0.313
Mof_C 	C 	0.906	0.6017	0.1383	0.034
Mof_C 	C 	0.3424	0.8917	0.7775	-0.018
Mof_C 	C 	0.9884	0.3917	0.2775	-0.012
Mof_C 	C 	0.629	0.2206	0.3472	0.028
Mof_C 	C 	0.7827	0.8349	0.3711	-0.071
Mof_C 	C 	0.4077	0.8426	0.729	0.07
Mof_C 	C 	0.9228	0.391	0.7856	-0.111
Mof_C 	C 	0.0113	0.3349	0.8711	-0.077
Mof_C 	C 	0.9793	0.6574	0.771	0.064
Mof_C 	C 	0.637	0.9581	0.3149	-0.103
Mof_C 	C 	0.1372	0.0146	0.9232	0.274
Mof_C 	C 	0.0605	0.6207	0.6247	-0.028
Mof_C 	C 	0.1895	0.0193	0.8231	-0.046
Mof_C 	C 	0.7886	0.0304	0.1268	-0.014
Mof_C 	C 	0.363	0.0419	0.6851	-0.103
Mof_C 	C 	0.8386	0.6693	0.8035	-0.109
Mof_C 	C 	0.4359	0.1957	0.2825	-0.12
Mof_C 	C 	0.91	0.5419	0.1851	-0.109
Mof_C 	C 	0.2366	0.0449	0.7237	0.063
Mof_C 	C 	0.9128	0.7576	0.8594	-0.083
Mof_C 	C 	0.0319	0.4807	0.6769	-0.037
Mof_C 	C 	0.3059	0.8793	0.8753	-0.033
Mof_C 	C 	0.0207	0.3426	0.229	0.064
Mof_C 	C 	0.9823	0.7298	0.0782	0.291
Mof_C 	C 	0.0395	0.6571	0.6731	-0.038
Mof_C 	C 	0.094	0.3983	0.8617	0.034
Mof_C 	C 	0.0994	0.109	0.7144	-0.104
Mof_C 	C 	0.0875	0.1684	0.6676	0.022
Mof_C 	C 	0.9461	0.2548	0.1734	0.035
Mof_C 	C 	0.4702	0.2576	0.3594	-0.083
Mof_C 	C 	0.2114	0.9696	0.8732	-0.014
Mof_C 	C 	0.9137	0.3209	0.4271	0.29
Mof_C 	C 	0.3743	0.2452	0.3266	0.036
Mof_C 	C 	0.1968	0.2794	0.1528	0.026
Mof_C 	C 	0.9006	0.891	0.2856	-0.104
Mof_C 	C 	0.925	0.5146	0.4232	0.28
Mof_C 	C 	0.6941	0.1207	0.1247	-0.033
Mof_C 	C 	0.9395	0.3793	0.3753	-0.028
Mof_C 	C 	0.9605	0.3429	0.3269	-0.038
Mof_C 	C 	0.8032	0.7206	0.8472	0.026
Mof_C 	C 	0.5298	0.7424	0.6406	-0.083
Mof_C 	C 	0.09	0.4581	0.8149	-0.109
Mof_C 	C 	0.7903	0.7702	0.4218	0.29
Mof_C 	C 	0.1171	0.1917	0.0931	0.309
Mof_C 	C 	0.0539	0.7452	0.8266	0.035
Mof_C 	C 	0.3114	0.8307	0.6965	-0.112
Mof_C 	C 	0.0123	0.5171	0.7245	-0.009
Mof_C 	C 	0.6886	0.1693	0.3035	-0.112
Mof_C 	C 	0.646	0.8983	0.3617	0.028
Mof_O 	O 	0.92907	0.34837	0.47049	-0.212
Mof_O 	O 	0.04391	0.51772	0.44126	-0.248
Mof_O 	O 	0.5174	0.6596	0.571	-0.212
Mof_O 	O 	0.74793	0.15163	0.02951	-0.212
Mof_O 	O 	0.21482	0.05293	0.94323	-0.231
Mof_O 	O 	0.07727	0.27719	0.56687	-0.233
Mof_O 	O 	0.26032	0.31548	0.42248	-0.27
Mof_O 	O 	0.8838	0.7369	0.0485	-0.223
Mof_O 	O 	0.73968	0.68452	0.57752	-0.27
Mof_O 	O 	0.78902	0.55293	0.44323	-0.233
Mof_O 	O 	0.1162	0.2631	0.9515	-0.223
Mof_O 	O 	0.252	0.1596	0.071	-0.211
Mof_O 	O 	0.1199	0.75133	0.57247	-0.207
Mof_O 	O 	0.92133	0.22281	0.93313	-0.231
Mof_O 	O 	0.99828	0.18452	0.07752	-0.267
Mof_O 	O 	0.92273	0.72281	0.43313	-0.233
Mof_O 	O 	0.07093	0.65163	0.52951	-0.212
Mof_O 	O 	0.5563	0.25133	0.07247	-0.208
Mof_O 	O 	0.78518	0.94707	0.05677	-0.231
Mof_O 	O 	0.3308	0.2369	0.5485	-0.224
Mof_O 	O 	0.07867	0.77719	0.06687	-0.231
Mof_O 	O 	0.748	0.8404	0.929	-0.211
Mof_O 	O 	0.4826	0.3404	0.429	-0.212
Mof_O 	O 	0.8801	0.24867	0.42753	-0.207
Mof_O 	O 	0.95609	0.48228	0.55874	-0.248
Mof_O 	O 	0.25207	0.84837	0.97049	-0.212
Mof_O 	O 	0.99711	0.01772	0.94126	-0.243
Mof_O 	O 	0.6692	0.7631	0.4515	-0.224
Mof_O 	O 	0.00172	0.81548	0.92248	-0.267
Mof_O 	O 	0.4437	0.74867	0.92753	-0.208
Mof_O 	O 	0.21098	0.44707	0.55677	-0.233
Mof_O 	O 	0.00289	0.98228	0.05874	-0.243
_end
