data_functionalizedCrystal
_audit_creation_method	'EQeq! by Chris Wilmer'
_symmetry_space_group_name_H-M	'P1'
_symmetry_Int_Tables_number	1
_symmetry_cell_setting	triclinic
loop_
_symmetry_equiv_pos_as_xyz
  x,y,z
_cell_length_a	23.4261
_cell_length_b	23.4261
_cell_length_c	12.2033
_cell_angle_alpha	90
_cell_angle_beta	90
_cell_angle_gamma	120
loop_
_atom_site_label
_atom_site_type_symbol
_atom_site_fract_x
_atom_site_fract_y
_atom_site_fract_z
_atom_site_charge
Mof_N 	N 	0.7191	0.1528	0.1544	-0.106
Mof_N 	N 	0.6601	0.0946	0.1587	-0.078
Mof_N 	N 	0.7041	0.1133	0.3271	-0.146
Mof_F 	F 	0.6793	0.9786	0.0863	-0.414
Mof_F 	F 	0.4079	0.7459	0.0858	-0.383
Mof_C 	C 	0.6546	0.0736	0.2583	0.013
Mof_C 	C 	0.5988	0.0108	0.2981	0.948
Mof_F 	F 	0.5658	0.0182	0.3793	0.067
Mof_F 	F 	0.6274	0.9762	0.3521	-0.238
Mof_F 	F 	0.5615	0.9695	0.2262	-0.285
Mof_C 	C 	0.7423	0.1612	0.2561	0.02
Mof_C 	C 	0.8076	0.2196	0.2871	0.889
Mof_F 	F 	0.8563	0.2195	0.2347	-0.406
Mof_F 	F 	0.8184	0.2264	0.3898	-0.44
Mof_F 	F 	0.8115	0.2754	0.2524	-0.393
Mof_F 	F 	0.9888	0.5681	0.3992	-0.452
Mof_F 	F 	0.0427	0.6428	0.2773	-0.214
Mof_F 	F 	0.9996	0.5411	0.2362	-0.263
Mof_N 	N 	0.8472	0.5663	0.1544	-0.105
Mof_N 	N 	0.9054	0.5655	0.1587	-0.077
Mof_N 	N 	0.8867	0.5908	0.3271	-0.145
Mof_F 	F 	0.0214	0.7007	0.0863	-0.413
Mof_F 	F 	0.2541	0.662	0.0858	-0.383
Mof_C 	C 	0.9264	0.581	0.2583	0.013
Mof_C 	C 	0.9892	0.588	0.2981	0.948
Mof_F 	F 	0.9818	0.5476	0.3793	0.067
Mof_F 	F 	0.0238	0.6512	0.3521	-0.238
Mof_F 	F 	0.0305	0.592	0.2262	-0.285
Mof_C 	C 	0.8388	0.5811	0.2561	0.02
Mof_C 	C 	0.7804	0.588	0.2871	0.889
Mof_F 	F 	0.7805	0.6368	0.2347	-0.406
Mof_F 	F 	0.7736	0.592	0.3898	-0.44
Mof_F 	F 	0.7246	0.5361	0.2524	-0.393
Mof_F 	F 	0.4319	0.4207	0.3992	-0.451
Mof_F 	F 	0.3572	0.3999	0.2773	-0.214
Mof_F 	F 	0.4589	0.4585	0.2362	-0.263
Mof_N 	N 	0.4337	0.2809	0.1544	-0.105
Mof_N 	N 	0.4345	0.3399	0.1587	-0.077
Mof_N 	N 	0.4092	0.2959	0.3271	-0.145
Mof_F 	F 	0.2993	0.3207	0.0863	-0.413
Mof_F 	F 	0.338	0.5921	0.0858	-0.383
Mof_C 	C 	0.419	0.3454	0.2583	0.013
Mof_C 	C 	0.412	0.4012	0.2981	0.948
Mof_F 	F 	0.4524	0.4342	0.3793	0.067
Mof_F 	F 	0.3488	0.3726	0.3521	-0.238
Mof_F 	F 	0.408	0.4385	0.2262	-0.285
Mof_C 	C 	0.4189	0.2577	0.2561	0.02
Mof_C 	C 	0.412	0.1924	0.2871	0.889
Mof_F 	F 	0.3632	0.1437	0.2347	-0.406
Mof_F 	F 	0.408	0.1816	0.3898	-0.44
Mof_F 	F 	0.4639	0.1885	0.2524	-0.393
Mof_F 	F 	0.5793	0.0112	0.3992	-0.452
Mof_F 	F 	0.6001	0.9573	0.2773	-0.214
Mof_F 	F 	0.5415	0.0004	0.2362	-0.263
Mof_N 	N 	0.2809	0.8472	0.1544	-0.105
Mof_N 	N 	0.3399	0.9054	0.1587	-0.077
Mof_N 	N 	0.2959	0.8867	0.3271	-0.145
Mof_F 	F 	0.3207	0.0214	0.0863	-0.413
Mof_F 	F 	0.5921	0.2541	0.0858	-0.383
Mof_C 	C 	0.3454	0.9264	0.2583	0.013
Mof_C 	C 	0.4012	0.9892	0.2981	0.948
Mof_F 	F 	0.4342	0.9818	0.3793	0.067
Mof_F 	F 	0.3726	0.0238	0.3521	-0.238
Mof_F 	F 	0.4385	0.0305	0.2262	-0.285
Mof_C 	C 	0.2577	0.8388	0.2561	0.02
Mof_C 	C 	0.1924	0.7804	0.2871	0.889
Mof_F 	F 	0.1437	0.7805	0.2347	-0.406
Mof_F 	F 	0.1816	0.7736	0.3898	-0.44
Mof_F 	F 	0.1885	0.7246	0.2524	-0.393
Mof_F 	F 	0.0112	0.4319	0.3992	-0.452
Mof_F 	F 	0.9573	0.3572	0.2773	-0.214
Mof_F 	F 	0.0004	0.4589	0.2362	-0.263
Mof_N 	N 	0.1528	0.4337	0.1544	-0.105
Mof_N 	N 	0.0946	0.4345	0.1587	-0.077
Mof_N 	N 	0.1133	0.4092	0.3271	-0.145
Mof_F 	F 	0.9786	0.2993	0.0863	-0.413
Mof_F 	F 	0.7459	0.338	0.0858	-0.383
Mof_C 	C 	0.0736	0.419	0.2583	0.013
Mof_C 	C 	0.0108	0.412	0.2981	0.948
Mof_F 	F 	0.0182	0.4524	0.3793	0.067
Mof_F 	F 	0.9762	0.3488	0.3521	-0.238
Mof_F 	F 	0.9695	0.408	0.2262	-0.285
Mof_C 	C 	0.1612	0.4189	0.2561	0.02
Mof_C 	C 	0.2196	0.412	0.2871	0.889
Mof_F 	F 	0.2195	0.3632	0.2347	-0.406
Mof_F 	F 	0.2264	0.408	0.3898	-0.44
Mof_F 	F 	0.2754	0.4639	0.2524	-0.393
Mof_F 	F 	0.5681	0.5793	0.3992	-0.451
Mof_F 	F 	0.6428	0.6001	0.2773	-0.214
Mof_F 	F 	0.5411	0.5415	0.2362	-0.263
Mof_N 	N 	0.5663	0.7191	0.1544	-0.105
Mof_N 	N 	0.5655	0.6601	0.1587	-0.077
Mof_N 	N 	0.5908	0.7041	0.3271	-0.145
Mof_F 	F 	0.7007	0.6793	0.0863	-0.413
Mof_F 	F 	0.662	0.4079	0.0858	-0.383
Mof_C 	C 	0.581	0.6546	0.2583	0.013
Mof_C 	C 	0.588	0.5988	0.2981	0.948
Mof_F 	F 	0.5476	0.5658	0.3793	0.067
Mof_F 	F 	0.6512	0.6274	0.3521	-0.238
Mof_F 	F 	0.592	0.5615	0.2262	-0.285
Mof_C 	C 	0.5811	0.7423	0.2561	0.02
Mof_C 	C 	0.588	0.8076	0.2871	0.889
Mof_F 	F 	0.6368	0.8563	0.2347	-0.406
Mof_F 	F 	0.592	0.8184	0.3898	-0.44
Mof_F 	F 	0.5361	0.8115	0.2524	-0.393
Mof_F 	F 	0.4207	0.9888	0.3992	-0.452
Mof_F 	F 	0.3999	0.0427	0.2773	-0.214
Mof_F 	F 	0.4585	0.9996	0.2362	-0.263
Mof_N 	N 	0.2809	0.8472	0.8456	-0.015
Mof_N 	N 	0.3399	0.9054	0.8413	0.005
Mof_N 	N 	0.2959	0.8867	0.6729	-0.145
Mof_F 	F 	0.3207	0.0214	0.9137	-0.194
Mof_F 	F 	0.5921	0.2541	0.9142	-0.168
Mof_C 	C 	0.3454	0.9264	0.7417	0.038
Mof_C 	C 	0.4012	0.9892	0.7019	0.935
Mof_F 	F 	0.4342	0.9818	0.6207	0.111
Mof_F 	F 	0.3726	0.0238	0.6479	-0.229
Mof_F 	F 	0.4385	0.0305	0.7738	-0.238
Mof_C 	C 	0.2577	0.8388	0.7439	0.05
Mof_C 	C 	0.1924	0.7804	0.7129	0.89
Mof_F 	F 	0.1437	0.7805	0.7653	-0.338
Mof_F 	F 	0.1816	0.7736	0.6102	-0.435
Mof_F 	F 	0.1885	0.7246	0.7476	-0.344
Mof_F 	F 	0.0112	0.4319	0.6008	-0.491
Mof_F 	F 	0.9573	0.3572	0.7227	-0.193
Mof_F 	F 	0.0004	0.4589	0.7638	-0.225
Mof_N 	N 	0.1528	0.4337	0.8456	-0.014
Mof_N 	N 	0.0946	0.4345	0.8413	0.006
Mof_N 	N 	0.1133	0.4092	0.6729	-0.145
Mof_F 	F 	0.9786	0.2993	0.9137	-0.195
Mof_F 	F 	0.7459	0.338	0.9142	-0.169
Mof_C 	C 	0.0736	0.419	0.7417	0.038
Mof_C 	C 	0.0108	0.412	0.7019	0.935
Mof_F 	F 	0.0182	0.4524	0.6207	0.11
Mof_F 	F 	0.9762	0.3488	0.6479	-0.229
Mof_F 	F 	0.9695	0.408	0.7738	-0.238
Mof_C 	C 	0.1612	0.4189	0.7439	0.051
Mof_C 	C 	0.2196	0.412	0.7129	0.89
Mof_F 	F 	0.2195	0.3632	0.7653	-0.337
Mof_F 	F 	0.2264	0.408	0.6102	-0.435
Mof_F 	F 	0.2754	0.4639	0.7476	-0.344
Mof_F 	F 	0.5681	0.5793	0.6008	-0.491
Mof_F 	F 	0.6428	0.6001	0.7227	-0.193
Mof_F 	F 	0.5411	0.5415	0.7638	-0.225
Mof_N 	N 	0.5663	0.7191	0.8456	-0.014
Mof_N 	N 	0.5655	0.6601	0.8413	0.006
Mof_N 	N 	0.5908	0.7041	0.6729	-0.145
Mof_F 	F 	0.7007	0.6793	0.9137	-0.192
Mof_F 	F 	0.662	0.4079	0.9142	-0.168
Mof_C 	C 	0.581	0.6546	0.7417	0.038
Mof_C 	C 	0.588	0.5988	0.7019	0.935
Mof_F 	F 	0.5476	0.5658	0.6207	0.11
Mof_F 	F 	0.6512	0.6274	0.6479	-0.229
Mof_F 	F 	0.592	0.5615	0.7738	-0.238
Mof_C 	C 	0.5811	0.7423	0.7439	0.051
Mof_C 	C 	0.588	0.8076	0.7129	0.89
Mof_F 	F 	0.6368	0.8563	0.7653	-0.337
Mof_F 	F 	0.592	0.8184	0.6102	-0.435
Mof_F 	F 	0.5361	0.8115	0.7476	-0.344
Mof_F 	F 	0.4207	0.9888	0.6008	-0.492
Mof_F 	F 	0.3999	0.0427	0.7227	-0.193
Mof_F 	F 	0.4585	0.9996	0.7638	-0.226
Mof_N 	N 	0.7191	0.1528	0.8456	-0.015
Mof_N 	N 	0.6601	0.0946	0.8413	0.005
Mof_N 	N 	0.7041	0.1133	0.6729	-0.145
Mof_F 	F 	0.6793	0.9786	0.9137	-0.194
Mof_F 	F 	0.4079	0.7459	0.9142	-0.168
Mof_C 	C 	0.6546	0.0736	0.7417	0.038
Mof_C 	C 	0.5988	0.0108	0.7019	0.935
Mof_F 	F 	0.5658	0.0182	0.6207	0.111
Mof_F 	F 	0.6274	0.9762	0.6479	-0.229
Mof_F 	F 	0.5615	0.9695	0.7738	-0.238
Mof_C 	C 	0.7423	0.1612	0.7439	0.05
Mof_C 	C 	0.8076	0.2196	0.7129	0.89
Mof_F 	F 	0.8563	0.2195	0.7653	-0.338
Mof_F 	F 	0.8184	0.2264	0.6102	-0.435
Mof_F 	F 	0.8115	0.2754	0.7476	-0.344
Mof_F 	F 	0.9888	0.5681	0.6008	-0.491
Mof_F 	F 	0.0427	0.6428	0.7227	-0.193
Mof_F 	F 	0.9996	0.5411	0.7638	-0.225
Mof_N 	N 	0.8472	0.5663	0.8456	-0.014
Mof_N 	N 	0.9054	0.5655	0.8413	0.006
Mof_N 	N 	0.8867	0.5908	0.6729	-0.145
Mof_F 	F 	0.0214	0.7007	0.9137	-0.195
Mof_F 	F 	0.2541	0.662	0.9142	-0.169
Mof_C 	C 	0.9264	0.581	0.7417	0.038
Mof_C 	C 	0.9892	0.588	0.7019	0.935
Mof_F 	F 	0.9818	0.5476	0.6207	0.11
Mof_F 	F 	0.0238	0.6512	0.6479	-0.229
Mof_F 	F 	0.0305	0.592	0.7738	-0.238
Mof_C 	C 	0.8388	0.5811	0.7439	0.051
Mof_C 	C 	0.7804	0.588	0.7129	0.89
Mof_F 	F 	0.7805	0.6368	0.7653	-0.337
Mof_F 	F 	0.7736	0.592	0.6102	-0.435
Mof_F 	F 	0.7246	0.5361	0.7476	-0.344
Mof_F 	F 	0.4319	0.4207	0.6008	-0.491
Mof_F 	F 	0.3572	0.3999	0.7227	-0.193
Mof_F 	F 	0.4589	0.4585	0.7638	-0.225
Mof_N 	N 	0.4337	0.2809	0.8456	-0.014
Mof_N 	N 	0.4345	0.3399	0.8413	0.006
Mof_N 	N 	0.4092	0.2959	0.6729	-0.145
Mof_F 	F 	0.2993	0.3207	0.9137	-0.192
Mof_F 	F 	0.338	0.5921	0.9142	-0.168
Mof_C 	C 	0.419	0.3454	0.7417	0.038
Mof_C 	C 	0.412	0.4012	0.7019	0.935
Mof_F 	F 	0.4524	0.4342	0.6207	0.11
Mof_F 	F 	0.3488	0.3726	0.6479	-0.229
Mof_F 	F 	0.408	0.4385	0.7738	-0.238
Mof_C 	C 	0.4189	0.2577	0.7439	0.051
Mof_C 	C 	0.412	0.1924	0.7129	0.89
Mof_F 	F 	0.3632	0.1437	0.7653	-0.337
Mof_F 	F 	0.408	0.1816	0.6102	-0.435
Mof_F 	F 	0.4639	0.1885	0.7476	-0.344
Mof_F 	F 	0.5793	0.0112	0.6008	-0.492
Mof_F 	F 	0.6001	0.9573	0.7227	-0.193
Mof_F 	F 	0.5415	0.0004	0.7638	-0.226
Mof_Ag	Ag	0.59112	0.06003	-0	0.737
Mof_Ag	Ag	0.76156	0.20753	-0	0.822
Mof_N 	N 	0.5502	0.9483	-0	-0.105
Mof_N 	N 	0.484	0.9051	-0	-0.104
Mof_N 	N 	0.536	0.8467	-0	-0.122
Mof_C 	C 	0.5785	0.9115	-0	0.063
Mof_C 	C 	0.6519	0.9411	-0	0.659
Mof_F 	F 	0.6693	0.8955	-0	-0.462
Mof_C 	C 	0.4787	0.8455	-0	0.037
Mof_C 	C 	0.4138	0.7824	-0	0.671
Mof_F 	F 	0.3645	0.7936	-0	-0.537
Mof_Ag	Ag	0.93997	0.53109	-0	0.737
Mof_Ag	Ag	0.79247	0.55403	-0	0.821
Mof_N 	N 	0.0517	0.6019	-0	-0.105
Mof_N 	N 	0.0949	0.5789	-0	-0.104
Mof_N 	N 	0.1533	0.6893	-0	-0.122
Mof_C 	C 	0.0885	0.667	-0	0.063
Mof_C 	C 	0.0589	0.7108	-0	0.659
Mof_F 	F 	0.1045	0.7738	-0	-0.462
Mof_C 	C 	0.1545	0.6332	-0	0.037
Mof_C 	C 	0.2176	0.6314	-0	0.671
Mof_F 	F 	0.2064	0.5709	-0	-0.537
Mof_Ag	Ag	0.46891	0.40888	-0	0.735
Mof_Ag	Ag	0.44597	0.23844	-0	0.82
Mof_N 	N 	0.3981	0.4498	-0	-0.106
Mof_N 	N 	0.4211	0.516	-0	-0.104
Mof_N 	N 	0.3107	0.464	-0	-0.122
Mof_C 	C 	0.333	0.4215	-0	0.063
Mof_C 	C 	0.2892	0.3481	-0	0.657
Mof_F 	F 	0.2262	0.3307	-0	-0.462
Mof_C 	C 	0.3668	0.5213	-0	0.037
Mof_C 	C 	0.3686	0.5862	-0	0.67
Mof_F 	F 	0.4291	0.6355	-0	-0.537
Mof_Ag	Ag	0.40888	0.93997	-0	0.737
Mof_Ag	Ag	0.23844	0.79247	-0	0.822
Mof_N 	N 	0.4498	0.0517	-0	-0.105
Mof_N 	N 	0.516	0.0949	-0	-0.104
Mof_N 	N 	0.464	0.1533	-0	-0.122
Mof_C 	C 	0.4215	0.0885	-0	0.063
Mof_C 	C 	0.3481	0.0589	-0	0.659
Mof_F 	F 	0.3307	0.1045	-0	-0.462
Mof_C 	C 	0.5213	0.1545	-0	0.037
Mof_C 	C 	0.5862	0.2176	-0	0.671
Mof_F 	F 	0.6355	0.2064	-0	-0.537
Mof_Ag	Ag	0.06003	0.46891	-0	0.737
Mof_Ag	Ag	0.20753	0.44597	-0	0.821
Mof_N 	N 	0.9483	0.3981	-0	-0.105
Mof_N 	N 	0.9051	0.4211	-0	-0.104
Mof_N 	N 	0.8467	0.3107	-0	-0.122
Mof_C 	C 	0.9115	0.333	-0	0.063
Mof_C 	C 	0.9411	0.2892	-0	0.659
Mof_F 	F 	0.8955	0.2262	-0	-0.462
Mof_C 	C 	0.8455	0.3668	-0	0.037
Mof_C 	C 	0.7824	0.3686	-0	0.671
Mof_F 	F 	0.7936	0.4291	-0	-0.537
Mof_Ag	Ag	0.53109	0.59112	-0	0.735
Mof_Ag	Ag	0.55403	0.76156	-0	0.82
Mof_N 	N 	0.6019	0.5502	-0	-0.106
Mof_N 	N 	0.5789	0.484	-0	-0.104
Mof_N 	N 	0.6893	0.536	-0	-0.122
Mof_C 	C 	0.667	0.5785	-0	0.063
Mof_C 	C 	0.7108	0.6519	-0	0.657
Mof_F 	F 	0.7738	0.6693	-0	-0.462
Mof_C 	C 	0.6332	0.4787	-0	0.037
Mof_C 	C 	0.6314	0.4138	-0	0.67
Mof_F 	F 	0.5709	0.3645	-0	-0.537
Mof_Ag	Ag	0.7095	0.10985	0.5	1.206
Mof_Ag	Ag	0.89015	0.59965	0.5	1.206
Mof_Ag	Ag	0.40035	0.2905	0.5	1.206
Mof_Ag	Ag	0.2905	0.89015	0.5	1.206
Mof_Ag	Ag	0.10985	0.40035	0.5	1.206
Mof_Ag	Ag	0.59965	0.7095	0.5	1.206
_end
