data_functionalizedCrystal
_audit_creation_method	'EQeq! by Chris Wilmer'
_symmetry_space_group_name_H-M	'P1'
_symmetry_Int_Tables_number	1
_symmetry_cell_setting	triclinic
loop_
_symmetry_equiv_pos_as_xyz
  x,y,z
_cell_length_a	16.946
_cell_length_b	16.946
_cell_length_c	13.838
_cell_angle_alpha	90
_cell_angle_beta	90
_cell_angle_gamma	120
loop_
_atom_site_label
_atom_site_type_symbol
_atom_site_fract_x
_atom_site_fract_y
_atom_site_fract_z
_atom_site_charge
Mof_O 	O 	0.77676	0.42349	0.6806	-0.406
Mof_N 	N 	0.10978	0.5062	0.91394	-0.156
Mof_N 	N 	0.22825	0.56156	0.01593	-0.224
Mof_C 	C 	0.96433	0.45838	0.83254	-0.144
Mof_H 	H 	0.9329	0.4273	0.8878	0.095
Mof_C 	C 	0.05799	0.50473	0.83107	0.16
Mof_C 	C 	0.1897	0.57876	0.94307	0.094
Mof_H 	H 	0.2149	0.6357	0.9139	-0.01
Mof_C 	C 	0.16902	0.46955	0.03803	0.07
Mof_C 	C 	0.17459	0.41404	0.10852	-0.117
Mof_H 	H 	0.2236	0.4364	0.1511	0.084
Mof_C 	C 	0.1054	0.32534	0.1131	-0.006
Mof_H 	H 	0.1074	0.2872	0.1601	0.03
Mof_C 	C 	0.0314	0.2904	0.0484	-0.034
Mof_H 	H 	0.986	0.2296	0.0534	0.041
Mof_C 	C 	0.02462	0.34387	0.97801	-0.085
Mof_H 	H 	0.9758	0.3209	0.9352	0.064
Mof_C 	C 	0.09435	0.43375	0.97421	0.056
Mof_O 	O 	0.57651	0.35327	0.6806	-0.406
Mof_N 	N 	0.4938	0.60358	0.91394	-0.156
Mof_N 	N 	0.43844	0.66669	0.01593	-0.225
Mof_C 	C 	0.54162	0.50595	0.83254	-0.145
Mof_H 	H 	0.5727	0.5056	0.8878	0.096
Mof_C 	C 	0.49527	0.55326	0.83107	0.161
Mof_C 	C 	0.42124	0.61094	0.94307	0.094
Mof_H 	H 	0.3643	0.5792	0.9139	-0.01
Mof_C 	C 	0.53045	0.69947	0.03803	0.071
Mof_C 	C 	0.58596	0.76055	0.10852	-0.118
Mof_H 	H 	0.5636	0.7872	0.1511	0.085
Mof_C 	C 	0.67466	0.78006	0.1131	-0.003
Mof_H 	H 	0.7128	0.8202	0.1601	0.029
Mof_C 	C 	0.7096	0.741	0.0484	-0.037
Mof_H 	H 	0.7704	0.7564	0.0534	0.043
Mof_C 	C 	0.65613	0.68075	0.97801	-0.082
Mof_H 	H 	0.6791	0.6549	0.9352	0.063
Mof_C 	C 	0.56625	0.6606	0.97421	0.055
Mof_O 	O 	0.64673	0.22324	0.6806	-0.406
Mof_N 	N 	0.39642	0.89022	0.91394	-0.156
Mof_N 	N 	0.33331	0.77175	0.01593	-0.224
Mof_C 	C 	0.49405	0.03567	0.83254	-0.144
Mof_H 	H 	0.4944	0.0671	0.8878	0.095
Mof_C 	C 	0.44674	0.94201	0.83107	0.16
Mof_C 	C 	0.38906	0.8103	0.94307	0.094
Mof_H 	H 	0.4208	0.7851	0.9139	-0.01
Mof_C 	C 	0.30053	0.83098	0.03803	0.07
Mof_C 	C 	0.23945	0.82541	0.10852	-0.116
Mof_H 	H 	0.2128	0.7764	0.1511	0.084
Mof_C 	C 	0.21994	0.8946	0.1131	-0.006
Mof_H 	H 	0.1798	0.8926	0.1601	0.03
Mof_C 	C 	0.259	0.9686	0.0484	-0.033
Mof_H 	H 	0.2436	0.014	0.0534	0.041
Mof_C 	C 	0.31925	0.97538	0.97801	-0.086
Mof_H 	H 	0.3451	0.0242	0.9352	0.064
Mof_C 	C 	0.3394	0.90565	0.97421	0.056
Mof_O 	O 	0.57651	0.22324	0.8194	-0.406
Mof_N 	N 	0.4938	0.89022	0.58606	-0.156
Mof_N 	N 	0.43844	0.77175	0.48407	-0.225
Mof_C 	C 	0.54162	0.03567	0.66746	-0.144
Mof_H 	H 	0.5727	0.0671	0.6122	0.095
Mof_C 	C 	0.49527	0.94201	0.66893	0.16
Mof_C 	C 	0.42124	0.8103	0.55693	0.095
Mof_H 	H 	0.3643	0.7851	0.5861	-0.01
Mof_C 	C 	0.53045	0.83098	0.46197	0.071
Mof_C 	C 	0.58596	0.82541	0.39148	-0.118
Mof_H 	H 	0.5636	0.7764	0.3489	0.085
Mof_C 	C 	0.67466	0.8946	0.3869	-0.004
Mof_H 	H 	0.7128	0.8926	0.3399	0.029
Mof_C 	C 	0.7096	0.9686	0.4516	-0.037
Mof_H 	H 	0.7704	0.014	0.4466	0.043
Mof_C 	C 	0.65613	0.97538	0.52199	-0.082
Mof_H 	H 	0.6791	0.0242	0.5648	0.063
Mof_C 	C 	0.56625	0.90565	0.52579	0.055
Mof_O 	O 	0.64673	0.42349	0.8194	-0.406
Mof_N 	N 	0.39642	0.5062	0.58606	-0.156
Mof_N 	N 	0.33331	0.56156	0.48407	-0.225
Mof_C 	C 	0.49405	0.45838	0.66746	-0.145
Mof_H 	H 	0.4944	0.4273	0.6122	0.096
Mof_C 	C 	0.44674	0.50473	0.66893	0.161
Mof_C 	C 	0.38906	0.57876	0.55693	0.095
Mof_H 	H 	0.4208	0.6357	0.5861	-0.01
Mof_C 	C 	0.30053	0.46955	0.46197	0.071
Mof_C 	C 	0.23945	0.41404	0.39148	-0.118
Mof_H 	H 	0.2128	0.4364	0.3489	0.085
Mof_C 	C 	0.21994	0.32534	0.3869	-0.003
Mof_H 	H 	0.1798	0.2872	0.3399	0.029
Mof_C 	C 	0.259	0.2904	0.4516	-0.037
Mof_H 	H 	0.2436	0.2296	0.4466	0.043
Mof_C 	C 	0.31925	0.34387	0.52199	-0.082
Mof_H 	H 	0.3451	0.3209	0.5648	0.063
Mof_C 	C 	0.3394	0.43375	0.52579	0.055
Mof_O 	O 	0.77676	0.35327	0.8194	-0.406
Mof_N 	N 	0.10978	0.60358	0.58606	-0.156
Mof_N 	N 	0.22825	0.66669	0.48407	-0.225
Mof_C 	C 	0.96433	0.50595	0.66746	-0.144
Mof_H 	H 	0.9329	0.5056	0.6122	0.095
Mof_C 	C 	0.05799	0.55326	0.66893	0.16
Mof_C 	C 	0.1897	0.61094	0.55693	0.095
Mof_H 	H 	0.2149	0.5792	0.5861	-0.01
Mof_C 	C 	0.16902	0.69947	0.46197	0.071
Mof_C 	C 	0.17459	0.76055	0.39148	-0.118
Mof_H 	H 	0.2236	0.7872	0.3489	0.085
Mof_C 	C 	0.1054	0.78006	0.3869	-0.004
Mof_H 	H 	0.1074	0.8202	0.3399	0.029
Mof_C 	C 	0.0314	0.741	0.4516	-0.037
Mof_H 	H 	0.986	0.7564	0.4466	0.043
Mof_C 	C 	0.02462	0.68075	0.52199	-0.082
Mof_H 	H 	0.9758	0.6549	0.5648	0.063
Mof_C 	C 	0.09435	0.6606	0.52579	0.055
Mof_O 	O 	0.22324	0.57651	0.3194	-0.406
Mof_N 	N 	0.89022	0.4938	0.08606	-0.156
Mof_N 	N 	0.77175	0.43844	0.98407	-0.224
Mof_C 	C 	0.03567	0.54162	0.16746	-0.144
Mof_H 	H 	0.0671	0.5727	0.1122	0.095
Mof_C 	C 	0.94201	0.49527	0.16893	0.16
Mof_C 	C 	0.8103	0.42124	0.05693	0.094
Mof_H 	H 	0.7851	0.3643	0.0861	-0.01
Mof_C 	C 	0.83098	0.53045	0.96197	0.07
Mof_C 	C 	0.82541	0.58596	0.89148	-0.117
Mof_H 	H 	0.7764	0.5636	0.8489	0.084
Mof_C 	C 	0.8946	0.67466	0.8869	-0.006
Mof_H 	H 	0.8926	0.7128	0.8399	0.03
Mof_C 	C 	0.9686	0.7096	0.9516	-0.034
Mof_H 	H 	0.014	0.7704	0.9466	0.041
Mof_C 	C 	0.97538	0.65613	0.02199	-0.085
Mof_H 	H 	0.0242	0.6791	0.0648	0.064
Mof_C 	C 	0.90565	0.56625	0.02579	0.056
Mof_O 	O 	0.42349	0.64673	0.3194	-0.406
Mof_N 	N 	0.5062	0.39642	0.08606	-0.156
Mof_N 	N 	0.56156	0.33331	0.98407	-0.225
Mof_C 	C 	0.45838	0.49405	0.16746	-0.145
Mof_H 	H 	0.4273	0.4944	0.1122	0.096
Mof_C 	C 	0.50473	0.44674	0.16893	0.161
Mof_C 	C 	0.57876	0.38906	0.05693	0.094
Mof_H 	H 	0.6357	0.4208	0.0861	-0.01
Mof_C 	C 	0.46955	0.30053	0.96197	0.071
Mof_C 	C 	0.41404	0.23945	0.89148	-0.118
Mof_H 	H 	0.4364	0.2128	0.8489	0.085
Mof_C 	C 	0.32534	0.21994	0.8869	-0.003
Mof_H 	H 	0.2872	0.1798	0.8399	0.029
Mof_C 	C 	0.2904	0.259	0.9516	-0.037
Mof_H 	H 	0.2296	0.2436	0.9466	0.043
Mof_C 	C 	0.34387	0.31925	0.02199	-0.082
Mof_H 	H 	0.3209	0.3451	0.0648	0.063
Mof_C 	C 	0.43375	0.3394	0.02579	0.055
Mof_O 	O 	0.35327	0.77676	0.3194	-0.406
Mof_N 	N 	0.60358	0.10978	0.08606	-0.156
Mof_N 	N 	0.66669	0.22825	0.98407	-0.224
Mof_C 	C 	0.50595	0.96433	0.16746	-0.144
Mof_H 	H 	0.5056	0.9329	0.1122	0.095
Mof_C 	C 	0.55326	0.05799	0.16893	0.16
Mof_C 	C 	0.61094	0.1897	0.05693	0.094
Mof_H 	H 	0.5792	0.2149	0.0861	-0.01
Mof_C 	C 	0.69947	0.16902	0.96197	0.07
Mof_C 	C 	0.76055	0.17459	0.89148	-0.116
Mof_H 	H 	0.7872	0.2236	0.8489	0.084
Mof_C 	C 	0.78006	0.1054	0.8869	-0.006
Mof_H 	H 	0.8202	0.1074	0.8399	0.03
Mof_C 	C 	0.741	0.0314	0.9516	-0.033
Mof_H 	H 	0.7564	0.986	0.9466	0.041
Mof_C 	C 	0.68075	0.02462	0.02199	-0.086
Mof_H 	H 	0.6549	0.9758	0.0648	0.064
Mof_C 	C 	0.6606	0.09435	0.02579	0.056
Mof_O 	O 	0.42349	0.77676	0.1806	-0.406
Mof_N 	N 	0.5062	0.10978	0.41394	-0.156
Mof_N 	N 	0.56156	0.22825	0.51593	-0.225
Mof_C 	C 	0.45838	0.96433	0.33254	-0.144
Mof_H 	H 	0.4273	0.9329	0.3878	0.095
Mof_C 	C 	0.50473	0.05799	0.33107	0.16
Mof_C 	C 	0.57876	0.1897	0.44307	0.095
Mof_H 	H 	0.6357	0.2149	0.4139	-0.01
Mof_C 	C 	0.46955	0.16902	0.53803	0.071
Mof_C 	C 	0.41404	0.17459	0.60852	-0.118
Mof_H 	H 	0.4364	0.2236	0.6511	0.085
Mof_C 	C 	0.32534	0.1054	0.6131	-0.004
Mof_H 	H 	0.2872	0.1074	0.6601	0.029
Mof_C 	C 	0.2904	0.0314	0.5484	-0.037
Mof_H 	H 	0.2296	0.986	0.5534	0.043
Mof_C 	C 	0.34387	0.02462	0.47801	-0.082
Mof_H 	H 	0.3209	0.9758	0.4352	0.063
Mof_C 	C 	0.43375	0.09435	0.47421	0.055
Mof_O 	O 	0.35327	0.57651	0.1806	-0.406
Mof_N 	N 	0.60358	0.4938	0.41394	-0.156
Mof_N 	N 	0.66669	0.43844	0.51593	-0.225
Mof_C 	C 	0.50595	0.54162	0.33254	-0.145
Mof_H 	H 	0.5056	0.5727	0.3878	0.096
Mof_C 	C 	0.55326	0.49527	0.33107	0.161
Mof_C 	C 	0.61094	0.42124	0.44307	0.095
Mof_H 	H 	0.5792	0.3643	0.4139	-0.01
Mof_C 	C 	0.69947	0.53045	0.53803	0.071
Mof_C 	C 	0.76055	0.58596	0.60852	-0.118
Mof_H 	H 	0.7872	0.5636	0.6511	0.085
Mof_C 	C 	0.78006	0.67466	0.6131	-0.003
Mof_H 	H 	0.8202	0.7128	0.6601	0.029
Mof_C 	C 	0.741	0.7096	0.5484	-0.037
Mof_H 	H 	0.7564	0.7704	0.5534	0.043
Mof_C 	C 	0.68075	0.65613	0.47801	-0.082
Mof_H 	H 	0.6549	0.6791	0.4352	0.063
Mof_C 	C 	0.6606	0.56625	0.47421	0.055
Mof_O 	O 	0.22324	0.64673	0.1806	-0.406
Mof_N 	N 	0.89022	0.39642	0.41394	-0.156
Mof_N 	N 	0.77175	0.33331	0.51593	-0.225
Mof_C 	C 	0.03567	0.49405	0.33254	-0.144
Mof_H 	H 	0.0671	0.4944	0.3878	0.095
Mof_C 	C 	0.94201	0.44674	0.33107	0.16
Mof_C 	C 	0.8103	0.38906	0.44307	0.095
Mof_H 	H 	0.7851	0.4208	0.4139	-0.01
Mof_C 	C 	0.83098	0.30053	0.53803	0.071
Mof_C 	C 	0.82541	0.23945	0.60852	-0.118
Mof_H 	H 	0.7764	0.2128	0.6511	0.085
Mof_C 	C 	0.8946	0.21994	0.6131	-0.004
Mof_H 	H 	0.8926	0.1798	0.6601	0.029
Mof_C 	C 	0.9686	0.259	0.5484	-0.037
Mof_H 	H 	0.014	0.2436	0.5534	0.043
Mof_C 	C 	0.97538	0.31925	0.47801	-0.082
Mof_H 	H 	0.0242	0.3451	0.4352	0.063
Mof_C 	C 	0.90565	0.3394	0.47421	0.055
Mof_Ni	Ni	0.66667	0.33333	0.60159	1.105
Mof_Ni	Ni	0.66667	0.33333	0.89841	1.105
Mof_Ni	Ni	0.33333	0.66667	0.39841	1.105
Mof_Ni	Ni	0.33333	0.66667	0.10159	1.105
Mof_C 	C 	0.81497	0.40749	0.75	0.328
Mof_C 	C 	0.91714	0.45857	0.75	0.01
Mof_C 	C 	0.1064	0.5532	0.75	-0.212
Mof_H 	H 	0.1698	0.5849	0.75	0.109
Mof_C 	C 	0.59252	0.40749	0.75	0.328
Mof_C 	C 	0.54143	0.45857	0.75	0.011
Mof_C 	C 	0.4468	0.5532	0.75	-0.212
Mof_H 	H 	0.4151	0.5849	0.75	0.109
Mof_C 	C 	0.59251	0.18503	0.75	0.328
Mof_C 	C 	0.54143	0.08286	0.75	0.01
Mof_C 	C 	0.4468	0.8936	0.75	-0.212
Mof_H 	H 	0.4151	0.8302	0.75	0.109
Mof_C 	C 	0.18503	0.59252	0.25	0.328
Mof_C 	C 	0.08286	0.54143	0.25	0.01
Mof_C 	C 	0.8936	0.4468	0.25	-0.212
Mof_H 	H 	0.8302	0.4151	0.25	0.109
Mof_C 	C 	0.40748	0.59251	0.25	0.328
Mof_C 	C 	0.45857	0.54143	0.25	0.011
Mof_C 	C 	0.5532	0.4468	0.25	-0.212
Mof_H 	H 	0.5849	0.4151	0.25	0.109
Mof_C 	C 	0.40749	0.81497	0.25	0.328
Mof_C 	C 	0.45857	0.91714	0.25	0.01
Mof_C 	C 	0.5532	0.1064	0.25	-0.212
Mof_H 	H 	0.5849	0.1698	0.25	0.109
_end
