data_functionalizedCrystal
_audit_creation_method	'EQeq! by Chris Wilmer'
_symmetry_space_group_name_H-M	'P1'
_symmetry_Int_Tables_number	1
_symmetry_cell_setting	triclinic
loop_
_symmetry_equiv_pos_as_xyz
  x,y,z
_cell_length_a	6.8627
_cell_length_b	17.4948
_cell_length_c	18.0665
_cell_angle_alpha	117.717
_cell_angle_beta	98.1245
_cell_angle_gamma	95.7614
loop_
_atom_site_label
_atom_site_type_symbol
_atom_site_fract_x
_atom_site_fract_y
_atom_site_fract_z
_atom_site_charge
Mof_Ba	Ba	0.79974	0.98282	0.59156	1.87
Mof_Ba	Ba	0.20818	0.39126	0.40844	1.711
Mof_Zn	Zn	0.28873	0.11108	0.73834	1.151
Mof_Zn	Zn	0.25978	0.07987	0.53212	1.194
Mof_Zn	Zn	0.55039	0.37274	0.26166	1.166
Mof_Zn	Zn	0.72766	0.54775	0.46788	1.209
Mof_H 	H 	0.7181	0.0597	0.8724	-0.271
Mof_H 	H 	0.5051	0.1443	0.1078	1.773
Mof_H 	H 	0.3741	0.1407	0.0352	1.146
Mof_H 	H 	0.3479	0.0742	0.0702	1.192
Mof_H 	H 	0.0894	0.7633	0.479	-0.077
Mof_H 	H 	0.313	0.5822	0.2962	-0.157
Mof_H 	H 	0.683	0.6035	0.2952	0.605
Mof_H 	H 	0.7467	0.5987	0.2134	0.575
Mof_H 	H 	0.5349	0.5492	0.2058	0.583
Mof_H 	H 	0.2937	0.6275	0.1644	0.561
Mof_H 	H 	0.4857	0.6295	0.127	0.546
Mof_H 	H 	0.4017	0.716	0.174	0.555
Mof_H 	H 	0.6721	0.8072	0.2856	0.603
Mof_H 	H 	0.8012	0.7383	0.237	0.576
Mof_H 	H 	0.8068	0.7703	0.3342	0.612
Mof_H 	H 	0.4867	0.8375	0.3704	-0.17
Mof_H 	H 	0.483	0.7939	0.599	-0.09
Mof_H 	H 	0.1937	0.6321	0.6654	-0.132
Mof_H 	H 	0.1092	0.8806	0.7582	-0.16
Mof_H 	H 	0.81	0.6316	0.6776	0.497
Mof_H 	H 	0.7756	0.6455	0.7666	0.464
Mof_H 	H 	0.9602	0.6062	0.7326	0.482
Mof_H 	H 	0.2091	0.7045	0.844	0.446
Mof_H 	H 	0.0636	0.7565	0.8998	0.456
Mof_H 	H 	0.2363	0.8066	0.8814	0.473
Mof_H 	H 	0.9292	0.8618	0.8396	0.499
Mof_H 	H 	0.7715	0.7884	0.8364	0.497
Mof_H 	H 	0.7729	0.7982	0.7546	0.519
Mof_H 	H 	0.8457	0.1873	0.1276	-0.248
Mof_H 	H 	0.3973	0.0365	0.8922	1.886
Mof_H 	H 	0.3389	0.1055	0.9648	1.299
Mof_H 	H 	0.2777	0.004	0.9298	1.28
Mof_H 	H 	0.6104	0.2843	0.521	-0.08
Mof_H 	H 	0.0168	0.286	0.7038	-0.196
Mof_H 	H 	0.3878	0.3083	0.7048	0.632
Mof_H 	H 	0.5333	0.3853	0.7866	0.608
Mof_H 	H 	0.3291	0.3434	0.7942	0.617
Mof_H 	H 	0.1293	0.4631	0.8356	0.6
Mof_H 	H 	0.3587	0.5025	0.873	0.592
Mof_H 	H 	0.2277	0.542	0.826	0.585
Mof_H 	H 	0.3865	0.5216	0.7144	0.615
Mof_H 	H 	0.5642	0.5013	0.763	0.594
Mof_H 	H 	0.4726	0.4361	0.6658	0.63
Mof_H 	H 	0.1163	0.4671	0.6296	-0.182
Mof_H 	H 	0.884	0.1949	0.401	-0.055
Mof_H 	H 	0.5283	0.9667	0.3346	0.001
Mof_H 	H 	0.351	0.1224	0.2418	-0.119
Mof_H 	H 	0.1324	0.954	0.3224	0.402
Mof_H 	H 	0.009	0.8789	0.2334	0.351
Mof_H 	H 	0.2276	0.8736	0.2674	0.365
Mof_H 	H 	0.3651	0.8605	0.156	0.323
Mof_H 	H 	0.1638	0.8567	0.1002	0.313
Mof_H 	H 	0.3549	0.9252	0.1186	0.35
Mof_H 	H 	0.0896	0.0222	0.1604	0.162
Mof_H 	H 	0.9351	0.952	0.1636	0.241
Mof_H 	H 	0.0183	0.0436	0.2454	0.202
Mof_H 	H 	0.1951	0.2562	-0	-0.098
Mof_C 	C 	0.01702	0.13782	0.83924	0.424
Mof_C 	C 	0.96205	0.15625	0.9231	-0.422
Mof_C 	C 	0.79841	0.10331	0.92402	0.625
Mof_C 	C 	0.6561	0.9941	0.0322	-0.429
Mof_C 	C 	0.4432	0.1112	0.061	-4.274
Mof_C 	C 	0.24579	0.90649	0.48258	0.472
Mof_C 	C 	0.28107	0.81577	0.43254	-0.416
Mof_C 	C 	0.17272	0.74922	0.44004	0.278
Mof_C 	C 	0.18645	0.66235	0.3905	-0.384
Mof_C 	C 	0.06425	0.59225	0.4011	0.442
Mof_C 	C 	0.30781	0.64091	0.33082	0.42
Mof_C 	C 	0.42201	0.70531	0.32162	-0.757
Mof_C 	C 	0.5498	0.6819	0.2562	1.548
Mof_C 	C 	0.6365	0.6009	0.2412	-2.017
Mof_C 	C 	0.4212	0.6619	0.173	-1.985
Mof_C 	C 	0.7234	0.7562	0.2804	-2.018
Mof_C 	C 	0.40909	0.79319	0.37418	0.414
Mof_C 	C 	0.3437	0.9373	0.683	0.468
Mof_C 	C 	0.30145	0.84895	0.6783	-0.385
Mof_C 	C 	0.3937	0.7833	0.6288	0.277
Mof_C 	C 	0.3546	0.7004	0.6228	-0.358
Mof_C 	C 	0.44584	0.62594	0.56608	0.451
Mof_C 	C 	0.22152	0.68722	0.66964	0.351
Mof_C 	C 	0.13024	0.75284	0.72168	-0.6
Mof_C 	C 	0.1707	0.8353	0.7248	0.341
Mof_C 	C 	0.0003	0.7393	0.7778	1.195
Mof_C 	C 	0.875	0.6472	0.7348	-1.63
Mof_C 	C 	0.1403	0.753	0.8582	-1.611
Mof_C 	C 	0.8551	0.8028	0.8046	-1.672
Mof_C 	C 	0.17778	0.29858	0.16076	0.471
Mof_C 	C 	0.03895	0.23315	0.0769	-0.499
Mof_C 	C 	0.87439	0.17929	0.07598	0.607
Mof_C 	C 	0.6239	0.9619	0.9678	-0.281
Mof_C 	C 	0.3822	0.0502	0.939	-4.575
Mof_C 	C 	0.76321	0.42391	0.51742	0.471
Mof_C 	C 	0.84853	0.38323	0.56746	-0.417
Mof_C 	C 	0.73268	0.30918	0.55996	0.3
Mof_C 	C 	0.79595	0.27185	0.6095	-0.42
Mof_C 	C 	0.66315	0.19115	0.5989	0.476
Mof_C 	C 	0.97699	0.31009	0.66918	0.508
Mof_C 	C 	0.10039	0.38369	0.67838	-0.822
Mof_C 	C 	0.2936	0.4257	0.7438	1.629
Mof_C 	C 	0.3953	0.3597	0.7588	-2.112
Mof_C 	C 	0.2482	0.4889	0.827	-2.092
Mof_C 	C 	0.443	0.4758	0.7196	-2.089
Mof_C 	C 	0.03491	0.41901	0.62582	0.426
Mof_C 	C 	0.6607	0.2543	0.317	0.439
Mof_C 	C 	0.62315	0.17065	0.3217	-0.31
Mof_C 	C 	0.7649	0.1545	0.3712	0.201
Mof_C 	C 	0.7318	0.0776	0.3772	-0.257
Mof_C 	C 	0.87976	0.05986	0.43392	0.437
Mof_C 	C 	0.55188	0.01758	0.33036	0.112
Mof_C 	C 	0.40856	0.03116	0.27832	-0.426
Mof_C 	C 	0.4459	0.1105	0.2752	0.225
Mof_C 	C 	0.2225	0.9615	0.2222	0.821
Mof_C 	C 	0.1402	0.9124	0.2652	-1.252
Mof_C 	C 	0.2821	0.8948	0.1418	-1.181
Mof_C 	C 	0.0505	0.9982	0.1954	-0.767
Mof_C 	C 	0.084	0.2211	-0	0.192
Mof_C 	C 	0.7517	0.1138	-0	-1.045
Mof_C 	C 	0.5751	0.0532	-0	2.109
Mof_O 	O 	0.89662	0.08812	0.77104	-0.517
Mof_O 	O 	0.1931	0.1739	0.8438	-0.58
Mof_O 	O 	0.15644	0.11414	0.63802	-0.705
Mof_O 	O 	0.3689	0.9704	0.4872	-0.555
Mof_O 	O 	0.1009	0.9175	0.5172	-0.543
Mof_O 	O 	0.09534	0.51524	0.36528	-0.492
Mof_O 	O 	0.93071	0.61741	0.44422	-0.515
Mof_O 	O 	0.48773	0.95703	0.65726	-0.539
Mof_O 	O 	0.22226	0.98966	0.71512	-0.593
Mof_O 	O 	0.6018	0.6455	0.542	-0.51
Mof_O 	O 	0.37045	0.54995	0.5459	-0.502
Mof_O 	O 	0.12558	0.31708	0.22896	-0.512
Mof_O 	O 	0.3493	0.3301	0.1562	-0.592
Mof_O 	O 	0.51842	0.47612	0.36198	-0.671
Mof_O 	O 	0.8817	0.4832	0.5128	-0.572
Mof_O 	O 	0.5837	0.4003	0.4828	-0.542
Mof_O 	O 	0.73006	0.14996	0.63472	-0.517
Mof_O 	O 	0.48649	0.17319	0.55578	-0.542
Mof_O 	O 	0.83047	0.29977	0.34274	-0.529
Mof_O 	O 	0.50714	0.27454	0.28488	-0.606
Mof_O 	O 	0.0598	0.1035	0.458	-0.525
Mof_O 	O 	0.82455	0.00405	0.4541	-0.542
_end
