data_functionalizedCrystal
_audit_creation_method	'EQeq! by Chris Wilmer'
_symmetry_space_group_name_H-M	'P1'
_symmetry_Int_Tables_number	1
_symmetry_cell_setting	triclinic
loop_
_symmetry_equiv_pos_as_xyz
  x,y,z
_cell_length_a	3.4099
_cell_length_b	39.805
_cell_length_c	43.607
_cell_angle_alpha	90
_cell_angle_beta	90
_cell_angle_gamma	90
loop_
_atom_site_label
_atom_site_type_symbol
_atom_site_fract_x
_atom_site_fract_y
_atom_site_fract_z
_atom_site_charge
Mof_C 	C 	0.797	0.564	0.0333	0.847
Mof_C 	C 	0.794	0.5232	0.0641	0.566
Mof_N 	N 	0.928	0.54935	0.07961	-0.269
Mof_N 	N 	0.934	0.57599	0.05935	-0.32
Mof_N 	N 	0.712	0.5311	0.0348	-0.464
Mof_N 	N 	0.765	0.4904	0.0768	0.718
Mof_H 	H 	0.6932	0.473	0.0649	-0.149
Mof_H 	H 	0.8225	0.4871	0.0968	-0.14
Mof_N 	N 	0.779	0.5849	0.0059	1.155
Mof_H 	H 	0.704	0.5758	0.9879	-0.243
Mof_H 	H 	0.8415	0.6069	0.0069	-0.252
Mof_H 	H 	0.7616	0.5773	0.0152	-1.229
Mof_H 	H 	0.7553	0.5013	0.0727	-0.812
Mof_C 	C 	0.797	0.064	0.5333	0.844
Mof_C 	C 	0.794	0.0232	0.5641	0.552
Mof_N 	N 	0.928	0.04935	0.57961	-0.268
Mof_N 	N 	0.934	0.07599	0.55935	-0.32
Mof_N 	N 	0.712	0.0311	0.5348	-0.462
Mof_N 	N 	0.765	0.9904	0.5768	0.698
Mof_H 	H 	0.6932	0.973	0.5649	-0.144
Mof_H 	H 	0.8225	0.9871	0.5968	-0.134
Mof_N 	N 	0.779	0.0849	0.5059	1.15
Mof_H 	H 	0.704	0.0758	0.4879	-0.244
Mof_H 	H 	0.8415	0.1069	0.5069	-0.251
Mof_H 	H 	0.7616	0.0773	0.5152	-1.224
Mof_H 	H 	0.7553	0.0013	0.5727	-0.795
Mof_C 	C 	0.297	0.564	0.5333	0.84
Mof_C 	C 	0.294	0.5232	0.5641	0.562
Mof_N 	N 	0.428	0.54935	0.57961	-0.288
Mof_N 	N 	0.434	0.57599	0.55935	-0.338
Mof_N 	N 	0.212	0.5311	0.5348	-0.459
Mof_N 	N 	0.265	0.4904	0.5768	0.711
Mof_H 	H 	0.1932	0.473	0.5649	-0.15
Mof_H 	H 	0.3225	0.4871	0.5968	-0.146
Mof_N 	N 	0.279	0.5849	0.5059	1.142
Mof_H 	H 	0.204	0.5758	0.4879	-0.242
Mof_H 	H 	0.3415	0.6069	0.5069	-0.255
Mof_H 	H 	0.2616	0.5773	0.5152	-1.216
Mof_H 	H 	0.2553	0.5013	0.5727	-0.807
Mof_C 	C 	0.297	0.064	0.0333	0.844
Mof_C 	C 	0.294	0.0232	0.0641	0.55
Mof_N 	N 	0.428	0.04935	0.07961	-0.285
Mof_N 	N 	0.434	0.07599	0.05935	-0.338
Mof_N 	N 	0.212	0.0311	0.0348	-0.457
Mof_N 	N 	0.265	0.9904	0.0768	0.692
Mof_H 	H 	0.1932	0.973	0.0649	-0.143
Mof_H 	H 	0.3225	0.9871	0.0968	-0.139
Mof_N 	N 	0.279	0.0849	0.0059	1.147
Mof_H 	H 	0.204	0.0758	0.9879	-0.241
Mof_H 	H 	0.3415	0.1069	0.0069	-0.257
Mof_H 	H 	0.2616	0.0773	0.0152	-1.222
Mof_H 	H 	0.2553	0.0013	0.0727	-0.789
Mof_C 	C 	0.953	0.186	0.0333	0.853
Mof_C 	C 	0.956	0.2268	0.0641	0.558
Mof_N 	N 	0.822	0.20065	0.07961	-0.291
Mof_N 	N 	0.816	0.17401	0.05935	-0.344
Mof_N 	N 	0.038	0.2189	0.0348	-0.449
Mof_N 	N 	0.985	0.2596	0.0768	0.751
Mof_H 	H 	0.0568	0.277	0.0649	-0.146
Mof_H 	H 	0.9275	0.2629	0.0968	-0.16
Mof_N 	N 	0.971	0.1651	0.0059	1.209
Mof_H 	H 	0.046	0.1742	0.9879	-0.243
Mof_H 	H 	0.9085	0.1431	0.0069	-0.281
Mof_H 	H 	0.9884	0.1727	0.0152	-1.289
Mof_H 	H 	0.9947	0.2487	0.0727	-0.851
Mof_C 	C 	0.953	0.686	0.5333	0.85
Mof_C 	C 	0.956	0.7268	0.5641	0.558
Mof_N 	N 	0.822	0.70065	0.57961	-0.291
Mof_N 	N 	0.816	0.67401	0.55935	-0.343
Mof_N 	N 	0.038	0.7189	0.5348	-0.448
Mof_N 	N 	0.985	0.7596	0.5768	0.751
Mof_H 	H 	0.0568	0.777	0.5649	-0.146
Mof_H 	H 	0.9275	0.7629	0.5968	-0.16
Mof_N 	N 	0.971	0.6651	0.5059	1.204
Mof_H 	H 	0.046	0.6742	0.4879	-0.244
Mof_H 	H 	0.9085	0.6431	0.5069	-0.279
Mof_H 	H 	0.9884	0.6727	0.5152	-1.283
Mof_H 	H 	0.9947	0.7487	0.5727	-0.851
Mof_C 	C 	0.453	0.186	0.5333	0.838
Mof_C 	C 	0.456	0.2268	0.5641	0.563
Mof_N 	N 	0.322	0.20065	0.57961	-0.285
Mof_N 	N 	0.316	0.17401	0.55935	-0.336
Mof_N 	N 	0.538	0.2189	0.5348	-0.466
Mof_N 	N 	0.485	0.2596	0.5768	0.717
Mof_H 	H 	0.5568	0.277	0.5649	-0.149
Mof_H 	H 	0.4275	0.2629	0.5968	-0.151
Mof_N 	N 	0.471	0.1651	0.5059	1.145
Mof_H 	H 	0.546	0.1742	0.4879	-0.245
Mof_H 	H 	0.4085	0.1431	0.5069	-0.264
Mof_H 	H 	0.4884	0.1727	0.5152	-1.219
Mof_H 	H 	0.4947	0.2487	0.5727	-0.812
Mof_C 	C 	0.453	0.686	0.0333	0.842
Mof_C 	C 	0.456	0.7268	0.0641	0.563
Mof_N 	N 	0.322	0.70065	0.07961	-0.285
Mof_N 	N 	0.316	0.67401	0.05935	-0.336
Mof_N 	N 	0.538	0.7189	0.0348	-0.466
Mof_N 	N 	0.485	0.7596	0.0768	0.717
Mof_H 	H 	0.5568	0.777	0.0649	-0.15
Mof_H 	H 	0.4275	0.7629	0.0968	-0.151
Mof_N 	N 	0.471	0.6651	0.0059	1.15
Mof_H 	H 	0.546	0.6742	0.9879	-0.244
Mof_H 	H 	0.4085	0.6431	0.0069	-0.266
Mof_H 	H 	0.4884	0.6727	0.0152	-1.225
Mof_H 	H 	0.4947	0.7487	0.0727	-0.812
Mof_C 	C 	0.953	0.564	0.7167	0.85
Mof_C 	C 	0.956	0.5232	0.6859	0.558
Mof_N 	N 	0.822	0.54935	0.67039	-0.291
Mof_N 	N 	0.816	0.57599	0.69065	-0.343
Mof_N 	N 	0.038	0.5311	0.7152	-0.448
Mof_N 	N 	0.985	0.4904	0.6732	0.751
Mof_H 	H 	0.0568	0.473	0.6851	-0.146
Mof_H 	H 	0.9275	0.4871	0.6532	-0.16
Mof_N 	N 	0.971	0.5849	0.7441	1.204
Mof_H 	H 	0.046	0.5758	0.7621	-0.244
Mof_H 	H 	0.9085	0.6069	0.7431	-0.279
Mof_H 	H 	0.9884	0.5773	0.7348	-1.283
Mof_H 	H 	0.9947	0.5013	0.6773	-0.851
Mof_C 	C 	0.953	0.064	0.2167	0.85
Mof_C 	C 	0.956	0.0232	0.1859	0.546
Mof_N 	N 	0.822	0.04935	0.17039	-0.288
Mof_N 	N 	0.816	0.07599	0.19065	-0.343
Mof_N 	N 	0.038	0.0311	0.2152	-0.446
Mof_N 	N 	0.985	0.9904	0.1732	0.731
Mof_H 	H 	0.0568	0.973	0.1851	-0.14
Mof_H 	H 	0.9275	0.9871	0.1532	-0.153
Mof_N 	N 	0.971	0.0849	0.2441	1.204
Mof_H 	H 	0.046	0.0758	0.2621	-0.244
Mof_H 	H 	0.9085	0.1069	0.2431	-0.279
Mof_H 	H 	0.9884	0.0773	0.2348	-1.283
Mof_H 	H 	0.9947	0.0013	0.1773	-0.833
Mof_C 	C 	0.453	0.564	0.2167	0.838
Mof_C 	C 	0.456	0.5232	0.1859	0.563
Mof_N 	N 	0.322	0.54935	0.17039	-0.285
Mof_N 	N 	0.316	0.57599	0.19065	-0.336
Mof_N 	N 	0.538	0.5311	0.2152	-0.466
Mof_N 	N 	0.485	0.4904	0.1732	0.717
Mof_H 	H 	0.5568	0.473	0.1851	-0.149
Mof_H 	H 	0.4275	0.4871	0.1532	-0.151
Mof_N 	N 	0.471	0.5849	0.2441	1.145
Mof_H 	H 	0.546	0.5758	0.2621	-0.245
Mof_H 	H 	0.4085	0.6069	0.2431	-0.264
Mof_H 	H 	0.4884	0.5773	0.2348	-1.219
Mof_H 	H 	0.4947	0.5013	0.1773	-0.812
Mof_C 	C 	0.453	0.064	0.7167	0.839
Mof_C 	C 	0.456	0.0232	0.6859	0.55
Mof_N 	N 	0.322	0.04935	0.67039	-0.283
Mof_N 	N 	0.316	0.07599	0.69065	-0.336
Mof_N 	N 	0.538	0.0311	0.7152	-0.463
Mof_N 	N 	0.485	0.9904	0.6732	0.697
Mof_H 	H 	0.5568	0.973	0.6851	-0.143
Mof_H 	H 	0.4275	0.9871	0.6532	-0.144
Mof_N 	N 	0.471	0.0849	0.7441	1.146
Mof_H 	H 	0.546	0.0758	0.7621	-0.244
Mof_H 	H 	0.4085	0.1069	0.7431	-0.264
Mof_H 	H 	0.4884	0.0773	0.7348	-1.219
Mof_H 	H 	0.4947	0.0013	0.6773	-0.794
Mof_C 	C 	0.797	0.186	0.7167	0.843
Mof_C 	C 	0.794	0.2268	0.6859	0.565
Mof_N 	N 	0.928	0.20065	0.67039	-0.27
Mof_N 	N 	0.934	0.17401	0.69065	-0.32
Mof_N 	N 	0.712	0.2189	0.7152	-0.465
Mof_N 	N 	0.765	0.2596	0.6732	0.717
Mof_H 	H 	0.6932	0.277	0.6851	-0.15
Mof_H 	H 	0.8225	0.2629	0.6532	-0.141
Mof_N 	N 	0.779	0.1651	0.7441	1.149
Mof_H 	H 	0.704	0.1742	0.7621	-0.245
Mof_H 	H 	0.8415	0.1431	0.7431	-0.251
Mof_H 	H 	0.7616	0.1727	0.7348	-1.224
Mof_H 	H 	0.7553	0.2487	0.6773	-0.813
Mof_C 	C 	0.797	0.686	0.2167	0.843
Mof_C 	C 	0.794	0.7268	0.1859	0.565
Mof_N 	N 	0.928	0.70065	0.17039	-0.27
Mof_N 	N 	0.934	0.67401	0.19065	-0.32
Mof_N 	N 	0.712	0.7189	0.2152	-0.465
Mof_N 	N 	0.765	0.7596	0.1732	0.717
Mof_H 	H 	0.6932	0.777	0.1851	-0.15
Mof_H 	H 	0.8225	0.7629	0.1532	-0.141
Mof_N 	N 	0.779	0.6651	0.2441	1.149
Mof_H 	H 	0.704	0.6742	0.2621	-0.245
Mof_H 	H 	0.8415	0.6431	0.2431	-0.251
Mof_H 	H 	0.7616	0.6727	0.2348	-1.223
Mof_H 	H 	0.7553	0.7487	0.1773	-0.813
Mof_C 	C 	0.297	0.186	0.2167	0.84
Mof_C 	C 	0.294	0.2268	0.1859	0.562
Mof_N 	N 	0.428	0.20065	0.17039	-0.288
Mof_N 	N 	0.434	0.17401	0.19065	-0.338
Mof_N 	N 	0.212	0.2189	0.2152	-0.459
Mof_N 	N 	0.265	0.2596	0.1732	0.711
Mof_H 	H 	0.1932	0.277	0.1851	-0.15
Mof_H 	H 	0.3225	0.2629	0.1532	-0.146
Mof_N 	N 	0.279	0.1651	0.2441	1.142
Mof_H 	H 	0.204	0.1742	0.2621	-0.242
Mof_H 	H 	0.3415	0.1431	0.2431	-0.255
Mof_H 	H 	0.2616	0.1727	0.2348	-1.216
Mof_H 	H 	0.2553	0.2487	0.1773	-0.807
Mof_C 	C 	0.297	0.686	0.7167	0.84
Mof_C 	C 	0.294	0.7268	0.6859	0.562
Mof_N 	N 	0.428	0.70065	0.67039	-0.288
Mof_N 	N 	0.434	0.67401	0.69065	-0.338
Mof_N 	N 	0.212	0.7189	0.7152	-0.459
Mof_N 	N 	0.265	0.7596	0.6732	0.711
Mof_H 	H 	0.1932	0.777	0.6851	-0.15
Mof_H 	H 	0.3225	0.7629	0.6532	-0.146
Mof_N 	N 	0.279	0.6651	0.7441	1.142
Mof_H 	H 	0.204	0.6742	0.7621	-0.242
Mof_H 	H 	0.3415	0.6431	0.7431	-0.255
Mof_H 	H 	0.2616	0.6727	0.7348	-1.216
Mof_H 	H 	0.2553	0.7487	0.6773	-0.807
Mof_C 	C 	0.203	0.436	0.9667	0.837
Mof_C 	C 	0.206	0.4768	0.9359	0.563
Mof_N 	N 	0.072	0.45065	0.92039	-0.276
Mof_N 	N 	0.066	0.42401	0.94065	-0.325
Mof_N 	N 	0.288	0.4689	0.9652	-0.462
Mof_N 	N 	0.235	0.5096	0.9232	0.716
Mof_H 	H 	0.3068	0.527	0.9351	-0.15
Mof_H 	H 	0.1775	0.5129	0.9032	-0.144
Mof_N 	N 	0.221	0.4151	0.9941	1.143
Mof_H 	H 	0.296	0.4242	0.0121	-0.246
Mof_H 	H 	0.1585	0.3931	0.9931	-0.253
Mof_H 	H 	0.2384	0.4227	0.9848	-1.215
Mof_H 	H 	0.2447	0.4987	0.9273	-0.812
Mof_C 	C 	0.203	0.936	0.4667	0.841
Mof_C 	C 	0.206	0.9768	0.4359	0.576
Mof_N 	N 	0.072	0.95065	0.42039	-0.279
Mof_N 	N 	0.066	0.92401	0.44065	-0.326
Mof_N 	N 	0.288	0.9689	0.4652	-0.464
Mof_N 	N 	0.235	0.0096	0.4232	0.737
Mof_H 	H 	0.3068	0.027	0.4351	-0.156
Mof_H 	H 	0.1775	0.0129	0.4032	-0.151
Mof_N 	N 	0.221	0.9151	0.4941	1.148
Mof_H 	H 	0.296	0.9242	0.5121	-0.245
Mof_H 	H 	0.1585	0.8931	0.4931	-0.255
Mof_H 	H 	0.2384	0.9227	0.4848	-1.222
Mof_H 	H 	0.2447	0.9987	0.4273	-0.83
Mof_C 	C 	0.703	0.436	0.4667	0.856
Mof_C 	C 	0.706	0.4768	0.4359	0.572
Mof_N 	N 	0.572	0.45065	0.42039	-0.29
Mof_N 	N 	0.566	0.42401	0.44065	-0.341
Mof_N 	N 	0.788	0.4689	0.4652	-0.455
Mof_N 	N 	0.735	0.5096	0.4232	0.722
Mof_H 	H 	0.8068	0.527	0.4351	-0.143
Mof_H 	H 	0.6775	0.5129	0.4032	-0.144
Mof_N 	N 	0.721	0.4151	0.4941	1.161
Mof_H 	H 	0.796	0.4242	0.5121	-0.238
Mof_H 	H 	0.6585	0.3931	0.4931	-0.255
Mof_H 	H 	0.7384	0.4227	0.4848	-1.234
Mof_H 	H 	0.7447	0.4987	0.4273	-0.817
Mof_C 	C 	0.703	0.936	0.9667	0.854
Mof_C 	C 	0.706	0.9768	0.9359	0.586
Mof_N 	N 	0.572	0.95065	0.92039	-0.292
Mof_N 	N 	0.566	0.92401	0.94065	-0.34
Mof_N 	N 	0.788	0.9689	0.9652	-0.454
Mof_N 	N 	0.735	0.0096	0.9232	0.743
Mof_H 	H 	0.8068	0.027	0.9351	-0.148
Mof_H 	H 	0.6775	0.0129	0.9032	-0.151
Mof_N 	N 	0.721	0.9151	0.9941	1.158
Mof_H 	H 	0.796	0.9242	0.0121	-0.238
Mof_H 	H 	0.6585	0.8931	0.9931	-0.253
Mof_H 	H 	0.7384	0.9227	0.9848	-1.23
Mof_H 	H 	0.7447	0.9987	0.9273	-0.836
Mof_C 	C 	0.047	0.814	0.9667	0.868
Mof_C 	C 	0.044	0.7732	0.9359	0.561
Mof_N 	N 	0.178	0.79935	0.92039	-0.294
Mof_N 	N 	0.184	0.82599	0.94065	-0.349
Mof_N 	N 	0.962	0.7811	0.9652	-0.433
Mof_N 	N 	0.015	0.7404	0.9232	0.793
Mof_H 	H 	0.9432	0.723	0.9351	-0.139
Mof_H 	H 	0.0725	0.7371	0.9032	-0.178
Mof_N 	N 	0.029	0.8349	0.9941	1.27
Mof_H 	H 	0.954	0.8258	0.0121	-0.243
Mof_H 	H 	0.0915	0.8569	0.9931	-0.306
Mof_H 	H 	0.0116	0.8273	0.9848	-1.354
Mof_H 	H 	0.0053	0.7513	0.9273	-0.899
Mof_C 	C 	0.047	0.314	0.4667	0.87
Mof_C 	C 	0.044	0.2732	0.4359	0.56
Mof_N 	N 	0.178	0.29935	0.42039	-0.293
Mof_N 	N 	0.184	0.32599	0.44065	-0.349
Mof_N 	N 	0.962	0.2811	0.4652	-0.435
Mof_N 	N 	0.015	0.2404	0.4232	0.792
Mof_H 	H 	0.9432	0.223	0.4351	-0.139
Mof_H 	H 	0.0725	0.2371	0.4032	-0.178
Mof_N 	N 	0.029	0.3349	0.4941	1.274
Mof_H 	H 	0.954	0.3258	0.5121	-0.242
Mof_H 	H 	0.0915	0.3569	0.4931	-0.308
Mof_H 	H 	0.0116	0.3273	0.4848	-1.36
Mof_H 	H 	0.0053	0.2513	0.4273	-0.899
Mof_C 	C 	0.547	0.814	0.4667	0.838
Mof_C 	C 	0.544	0.7732	0.4359	0.562
Mof_N 	N 	0.678	0.79935	0.42039	-0.287
Mof_N 	N 	0.684	0.82599	0.44065	-0.336
Mof_N 	N 	0.462	0.7811	0.4652	-0.464
Mof_N 	N 	0.515	0.7404	0.4232	0.715
Mof_H 	H 	0.4432	0.723	0.4351	-0.149
Mof_H 	H 	0.5725	0.7371	0.4032	-0.149
Mof_N 	N 	0.529	0.8349	0.4941	1.143
Mof_H 	H 	0.454	0.8258	0.5121	-0.244
Mof_H 	H 	0.5915	0.8569	0.4931	-0.262
Mof_H 	H 	0.5116	0.8273	0.4848	-1.218
Mof_H 	H 	0.5053	0.7513	0.4273	-0.811
Mof_C 	C 	0.547	0.314	0.9667	0.835
Mof_C 	C 	0.544	0.2732	0.9359	0.563
Mof_N 	N 	0.678	0.29935	0.92039	-0.287
Mof_N 	N 	0.684	0.32599	0.94065	-0.336
Mof_N 	N 	0.462	0.2811	0.9652	-0.463
Mof_N 	N 	0.515	0.2404	0.9232	0.715
Mof_H 	H 	0.4432	0.223	0.9351	-0.148
Mof_H 	H 	0.5725	0.2371	0.9032	-0.149
Mof_N 	N 	0.529	0.3349	0.9941	1.139
Mof_H 	H 	0.454	0.3258	0.0121	-0.244
Mof_H 	H 	0.5915	0.3569	0.9931	-0.26
Mof_H 	H 	0.5116	0.3273	0.9848	-1.212
Mof_H 	H 	0.5053	0.2513	0.9273	-0.811
Mof_C 	C 	0.047	0.436	0.2833	0.87
Mof_C 	C 	0.044	0.4768	0.3141	0.56
Mof_N 	N 	0.178	0.45065	0.32961	-0.293
Mof_N 	N 	0.184	0.42401	0.30935	-0.349
Mof_N 	N 	0.962	0.4689	0.2848	-0.435
Mof_N 	N 	0.015	0.5096	0.3268	0.792
Mof_H 	H 	0.9432	0.527	0.3149	-0.139
Mof_H 	H 	0.0725	0.5129	0.3468	-0.178
Mof_N 	N 	0.029	0.4151	0.2559	1.274
Mof_H 	H 	0.954	0.4242	0.2379	-0.242
Mof_H 	H 	0.0915	0.3931	0.2569	-0.308
Mof_H 	H 	0.0116	0.4227	0.2652	-1.36
Mof_H 	H 	0.0053	0.4987	0.3227	-0.899
Mof_C 	C 	0.047	0.936	0.7833	0.871
Mof_C 	C 	0.044	0.9768	0.8141	0.574
Mof_N 	N 	0.178	0.95065	0.82961	-0.296
Mof_N 	N 	0.184	0.92401	0.80935	-0.35
Mof_N 	N 	0.962	0.9689	0.7848	-0.435
Mof_N 	N 	0.015	0.0096	0.8268	0.813
Mof_H 	H 	0.9432	0.027	0.8149	-0.145
Mof_H 	H 	0.0725	0.0129	0.8468	-0.185
Mof_N 	N 	0.029	0.9151	0.7559	1.276
Mof_H 	H 	0.954	0.9242	0.7379	-0.242
Mof_H 	H 	0.0915	0.8931	0.7569	-0.308
Mof_H 	H 	0.0116	0.9227	0.7652	-1.362
Mof_H 	H 	0.0053	0.9987	0.8227	-0.919
Mof_C 	C 	0.547	0.436	0.7833	0.838
Mof_C 	C 	0.544	0.4768	0.8141	0.562
Mof_N 	N 	0.678	0.45065	0.82961	-0.287
Mof_N 	N 	0.684	0.42401	0.80935	-0.336
Mof_N 	N 	0.462	0.4689	0.7848	-0.464
Mof_N 	N 	0.515	0.5096	0.8268	0.715
Mof_H 	H 	0.4432	0.527	0.8149	-0.149
Mof_H 	H 	0.5725	0.5129	0.8468	-0.149
Mof_N 	N 	0.529	0.4151	0.7559	1.143
Mof_H 	H 	0.454	0.4242	0.7379	-0.244
Mof_H 	H 	0.5915	0.3931	0.7569	-0.262
Mof_H 	H 	0.5116	0.4227	0.7652	-1.217
Mof_H 	H 	0.5053	0.4987	0.8227	-0.811
Mof_C 	C 	0.547	0.936	0.2833	0.839
Mof_C 	C 	0.544	0.9768	0.3141	0.576
Mof_N 	N 	0.678	0.95065	0.32961	-0.289
Mof_N 	N 	0.684	0.92401	0.30935	-0.337
Mof_N 	N 	0.462	0.9689	0.2848	-0.465
Mof_N 	N 	0.515	0.0096	0.3268	0.736
Mof_H 	H 	0.4432	0.027	0.3149	-0.155
Mof_H 	H 	0.5725	0.0129	0.3468	-0.155
Mof_N 	N 	0.529	0.9151	0.2559	1.145
Mof_H 	H 	0.454	0.9242	0.2379	-0.243
Mof_H 	H 	0.5915	0.8931	0.2569	-0.262
Mof_H 	H 	0.5116	0.9227	0.2652	-1.219
Mof_H 	H 	0.5053	0.9987	0.3227	-0.83
Mof_C 	C 	0.203	0.814	0.2833	0.84
Mof_C 	C 	0.206	0.7732	0.3141	0.562
Mof_N 	N 	0.072	0.79935	0.32961	-0.276
Mof_N 	N 	0.066	0.82599	0.30935	-0.326
Mof_N 	N 	0.288	0.7811	0.2848	-0.464
Mof_N 	N 	0.235	0.7404	0.3268	0.716
Mof_H 	H 	0.3068	0.723	0.3149	-0.151
Mof_H 	H 	0.1775	0.7371	0.3468	-0.144
Mof_N 	N 	0.221	0.8349	0.2559	1.147
Mof_H 	H 	0.296	0.8258	0.2379	-0.245
Mof_H 	H 	0.1585	0.8569	0.2569	-0.255
Mof_H 	H 	0.2384	0.8273	0.2652	-1.221
Mof_H 	H 	0.2447	0.7513	0.3227	-0.812
Mof_C 	C 	0.203	0.314	0.7833	0.84
Mof_C 	C 	0.206	0.2732	0.8141	0.562
Mof_N 	N 	0.072	0.29935	0.82961	-0.276
Mof_N 	N 	0.066	0.32599	0.80935	-0.326
Mof_N 	N 	0.288	0.2811	0.7848	-0.464
Mof_N 	N 	0.235	0.2404	0.8268	0.716
Mof_H 	H 	0.3068	0.223	0.8149	-0.151
Mof_H 	H 	0.1775	0.2371	0.8468	-0.144
Mof_N 	N 	0.221	0.3349	0.7559	1.147
Mof_H 	H 	0.296	0.3258	0.7379	-0.245
Mof_H 	H 	0.1585	0.3569	0.7569	-0.255
Mof_H 	H 	0.2384	0.3273	0.7652	-1.221
Mof_H 	H 	0.2447	0.2513	0.8227	-0.812
Mof_C 	C 	0.703	0.814	0.7833	0.856
Mof_C 	C 	0.706	0.7732	0.8141	0.572
Mof_N 	N 	0.572	0.79935	0.82961	-0.29
Mof_N 	N 	0.566	0.82599	0.80935	-0.341
Mof_N 	N 	0.788	0.7811	0.7848	-0.455
Mof_N 	N 	0.735	0.7404	0.8268	0.722
Mof_H 	H 	0.8068	0.723	0.8149	-0.143
Mof_H 	H 	0.6775	0.7371	0.8468	-0.144
Mof_N 	N 	0.721	0.8349	0.7559	1.161
Mof_H 	H 	0.796	0.8258	0.7379	-0.238
Mof_H 	H 	0.6585	0.8569	0.7569	-0.255
Mof_H 	H 	0.7384	0.8273	0.7652	-1.235
Mof_H 	H 	0.7447	0.7513	0.8227	-0.817
Mof_C 	C 	0.703	0.314	0.2833	0.856
Mof_C 	C 	0.706	0.2732	0.3141	0.572
Mof_N 	N 	0.572	0.29935	0.32961	-0.29
Mof_N 	N 	0.566	0.32599	0.30935	-0.341
Mof_N 	N 	0.788	0.2811	0.2848	-0.455
Mof_N 	N 	0.735	0.2404	0.3268	0.722
Mof_H 	H 	0.8068	0.223	0.3149	-0.143
Mof_H 	H 	0.6775	0.2371	0.3468	-0.144
Mof_N 	N 	0.721	0.3349	0.2559	1.161
Mof_H 	H 	0.796	0.3258	0.2379	-0.238
Mof_H 	H 	0.6585	0.3569	0.2569	-0.255
Mof_H 	H 	0.7384	0.3273	0.2652	-1.234
Mof_H 	H 	0.7447	0.2513	0.3227	-0.817
Mof_Ag	Ag	0.125	0.55574	0.125	0.344
Mof_Ag	Ag	0.125	0.05574	0.625	0.34
Mof_Ag	Ag	0.625	0.19426	0.125	0.381
Mof_Ag	Ag	0.625	0.69426	0.625	0.381
Mof_Ag	Ag	0.625	0.55574	0.625	0.381
Mof_Ag	Ag	0.625	0.05574	0.125	0.377
Mof_Ag	Ag	0.125	0.19426	0.625	0.344
Mof_Ag	Ag	0.125	0.69426	0.125	0.344
Mof_Ag	Ag	0.875	0.44426	0.875	0.356
Mof_Ag	Ag	0.875	0.94426	0.375	0.36
Mof_Ag	Ag	0.375	0.80574	0.875	0.379
Mof_Ag	Ag	0.375	0.30574	0.375	0.379
Mof_Ag	Ag	0.375	0.44426	0.375	0.379
Mof_Ag	Ag	0.375	0.94426	0.875	0.383
Mof_Ag	Ag	0.875	0.80574	0.375	0.356
Mof_Ag	Ag	0.875	0.30574	0.875	0.356
Mof_Ag	Ag	0.125	0.625	0.07225	0.34
Mof_Ag	Ag	0.125	0.125	0.57225	0.34
Mof_Ag	Ag	0.625	0.125	0.07225	0.375
Mof_Ag	Ag	0.625	0.625	0.57225	0.374
Mof_Ag	Ag	0.625	0.625	0.67775	0.374
Mof_Ag	Ag	0.625	0.125	0.17775	0.374
Mof_Ag	Ag	0.125	0.125	0.67775	0.34
Mof_Ag	Ag	0.125	0.625	0.17775	0.34
Mof_Ag	Ag	0.875	0.375	0.92775	0.35
Mof_Ag	Ag	0.875	0.875	0.42775	0.35
Mof_Ag	Ag	0.375	0.875	0.92775	0.374
Mof_Ag	Ag	0.375	0.375	0.42775	0.375
Mof_Ag	Ag	0.375	0.375	0.32225	0.375
Mof_Ag	Ag	0.375	0.875	0.82225	0.375
Mof_Ag	Ag	0.875	0.875	0.32225	0.35
Mof_Ag	Ag	0.875	0.375	0.82225	0.35
Mof_Ag	Ag	0.5	0.5	-0	0.564
Mof_Ag	Ag	0.5	-4.26496e-33	0.5	0.561
Mof_Ag	Ag	2.39743e-32	0.5	0.5	0.538
Mof_Ag	Ag	-0	0	-0	0.529
Mof_Ag	Ag	0.25	0.25	-0	0.587
Mof_Ag	Ag	0.25	0.75	0.5	0.59
Mof_Ag	Ag	0.25	0.5	0.75	0.59
Mof_Ag	Ag	0.25	-2.13248e-33	0.25	0.584
Mof_Ag	Ag	0.5	0.25	0.75	0.568
Mof_Ag	Ag	1.19872e-32	0.25	0.25	0.538
Mof_Ag	Ag	0.75	0.75	-0	0.597
Mof_Ag	Ag	0.75	0.25	0.5	0.6
Mof_Ag	Ag	0.75	0.5	0.25	0.6
Mof_Ag	Ag	0.75	0	0.75	0.594
Mof_Ag	Ag	0.5	0.75	0.25	0.568
Mof_Ag	Ag	-2.36996e-31	0.75	0.75	0.538
_end
