data_functionalizedCrystal
_audit_creation_method	'EQeq! by Chris Wilmer'
_symmetry_space_group_name_H-M	'P1'
_symmetry_Int_Tables_number	1
_symmetry_cell_setting	triclinic
loop_
_symmetry_equiv_pos_as_xyz
  x,y,z
_cell_length_a	37.737
_cell_length_b	11.102
_cell_length_c	6.811
_cell_angle_alpha	90
_cell_angle_beta	91.06
_cell_angle_gamma	90
loop_
_atom_site_label
_atom_site_type_symbol
_atom_site_fract_x
_atom_site_fract_y
_atom_site_fract_z
_atom_site_charge
Mof_Er	Er	0.36868	0.29195	0.2009	1.658
Mof_O 	O 	0.4166	0.4259	0.2795	-0.427
Mof_O 	O 	0.42074	0.2436	0.3964	-0.454
Mof_O 	O 	0.34838	0.3542	0.4994	-0.497
Mof_O 	O 	0.3403	0.5302	0.6418	-0.491
Mof_O 	O 	0.1767	0.267	0.9952	-0.505
Mof_O 	O 	0.16608	0.3927	0.2381	-0.348
Mof_C 	C 	0.4334	0.3475	0.3788	0.37
Mof_C 	C 	0.4687	0.3766	0.4658	-0.224
Mof_H 	H 	0.4816	0.3153	0.5264	0.105
Mof_C 	C 	0.4823	0.485	0.4611	0.027
Mof_H 	H 	0.4688	0.5464	0.405	0.028
Mof_C 	C 	0.3292	0.437	0.5598	0.493
Mof_C 	C 	0.2909	0.4479	0.509	-0.096
Mof_C 	C 	0.2742	0.366	0.407	0.026
Mof_C 	C 	0.2384	0.3811	0.344	0.131
Mof_C 	C 	0.2226	0.3159	0.207	-0.259
Mof_C 	C 	0.1851	0.3219	0.1509	0.447
Mof_C 	C 	0.2895	0.379	0.608	-0.059
Mof_C 	C 	0.2738	0.314	0.429	-0.003
Mof_C 	C 	0.234	0.31	0.439	-0.071
Mof_C 	C 	0.2183	0.241	0.26	0.152
Mof_Er	Er	0.86868	0.79195	0.2009	1.657
Mof_O 	O 	0.9166	0.9259	0.2795	-0.427
Mof_O 	O 	0.92074	0.7436	0.3964	-0.455
Mof_O 	O 	0.84838	0.8542	0.4994	-0.498
Mof_O 	O 	0.8403	0.0302	0.6418	-0.491
Mof_O 	O 	0.6767	0.767	0.9952	-0.508
Mof_O 	O 	0.66608	0.8927	0.2381	-0.349
Mof_C 	C 	0.9334	0.8475	0.3788	0.37
Mof_C 	C 	0.9687	0.8766	0.4658	-0.224
Mof_H 	H 	0.9816	0.8153	0.5264	0.104
Mof_C 	C 	0.9823	0.985	0.4611	0.027
Mof_H 	H 	0.9688	0.0464	0.405	0.028
Mof_C 	C 	0.8292	0.937	0.5598	0.492
Mof_C 	C 	0.7909	0.9479	0.509	-0.096
Mof_C 	C 	0.7742	0.866	0.407	0.027
Mof_C 	C 	0.7384	0.8811	0.344	0.132
Mof_C 	C 	0.7226	0.8159	0.207	-0.26
Mof_C 	C 	0.6851	0.8219	0.1509	0.45
Mof_C 	C 	0.7895	0.879	0.608	-0.059
Mof_C 	C 	0.7738	0.814	0.429	-0.003
Mof_C 	C 	0.734	0.81	0.439	-0.072
Mof_C 	C 	0.7183	0.741	0.26	0.153
Mof_Er	Er	0.63132	0.29195	0.2991	1.658
Mof_O 	O 	0.5834	0.4259	0.2205	-0.427
Mof_O 	O 	0.57926	0.2436	0.1036	-0.456
Mof_O 	O 	0.65162	0.3542	0.0006	-0.497
Mof_O 	O 	0.6597	0.5302	0.8582	-0.491
Mof_O 	O 	0.8233	0.267	0.5048	-0.505
Mof_O 	O 	0.83392	0.3927	0.2619	-0.349
Mof_C 	C 	0.5666	0.3475	0.1212	0.371
Mof_C 	C 	0.5313	0.3766	0.0342	-0.224
Mof_H 	H 	0.5184	0.3153	0.9736	0.105
Mof_C 	C 	0.5177	0.485	0.0389	0.027
Mof_H 	H 	0.5312	0.5464	0.095	0.029
Mof_C 	C 	0.6708	0.437	0.9402	0.491
Mof_C 	C 	0.7091	0.4479	0.991	-0.096
Mof_C 	C 	0.7258	0.366	0.093	0.026
Mof_C 	C 	0.7616	0.3811	0.156	0.132
Mof_C 	C 	0.7774	0.3159	0.293	-0.26
Mof_C 	C 	0.8149	0.3219	0.3491	0.447
Mof_C 	C 	0.7105	0.379	0.892	-0.059
Mof_C 	C 	0.7262	0.314	0.071	-0.002
Mof_C 	C 	0.766	0.31	0.061	-0.073
Mof_C 	C 	0.7817	0.241	0.24	0.153
Mof_Er	Er	0.13132	0.79195	0.2991	1.658
Mof_O 	O 	0.0834	0.9259	0.2205	-0.427
Mof_O 	O 	0.07926	0.7436	0.1036	-0.455
Mof_O 	O 	0.15162	0.8542	0.0006	-0.494
Mof_O 	O 	0.1597	0.0302	0.8582	-0.489
Mof_O 	O 	0.3233	0.767	0.5048	-0.506
Mof_O 	O 	0.33392	0.8927	0.2619	-0.348
Mof_C 	C 	0.0666	0.8475	0.1212	0.37
Mof_C 	C 	0.0313	0.8766	0.0342	-0.22
Mof_H 	H 	0.0184	0.8153	0.9736	0.102
Mof_C 	C 	0.0177	0.985	0.0389	0.028
Mof_H 	H 	0.0312	0.0464	0.095	0.026
Mof_C 	C 	0.1708	0.937	0.9402	0.487
Mof_C 	C 	0.2091	0.9479	0.991	-0.098
Mof_C 	C 	0.2258	0.866	0.093	0.027
Mof_C 	C 	0.2616	0.8811	0.156	0.131
Mof_C 	C 	0.2774	0.8159	0.293	-0.26
Mof_C 	C 	0.3149	0.8219	0.3491	0.447
Mof_C 	C 	0.2105	0.879	0.892	-0.059
Mof_C 	C 	0.2262	0.814	0.071	-0
Mof_C 	C 	0.266	0.81	0.061	-0.071
Mof_C 	C 	0.2817	0.741	0.24	0.152
Mof_Er	Er	0.63132	0.70805	0.7991	1.657
Mof_O 	O 	0.5834	0.5741	0.7205	-0.428
Mof_O 	O 	0.57926	0.7564	0.6036	-0.455
Mof_O 	O 	0.65162	0.6458	0.5006	-0.498
Mof_O 	O 	0.6597	0.4698	0.3582	-0.491
Mof_O 	O 	0.8233	0.733	0.0048	-0.505
Mof_O 	O 	0.83392	0.6073	0.7619	-0.348
Mof_C 	C 	0.5666	0.6525	0.6212	0.37
Mof_C 	C 	0.5313	0.6234	0.5342	-0.224
Mof_H 	H 	0.5184	0.6847	0.4736	0.105
Mof_C 	C 	0.5177	0.515	0.5389	0.027
Mof_H 	H 	0.5312	0.4536	0.595	0.028
Mof_C 	C 	0.6708	0.563	0.4402	0.493
Mof_C 	C 	0.7091	0.5521	0.491	-0.096
Mof_C 	C 	0.7258	0.634	0.593	0.026
Mof_C 	C 	0.7616	0.6189	0.656	0.131
Mof_C 	C 	0.7774	0.6841	0.793	-0.259
Mof_C 	C 	0.8149	0.6781	0.8491	0.447
Mof_C 	C 	0.7105	0.621	0.392	-0.059
Mof_C 	C 	0.7262	0.686	0.571	-0.003
Mof_C 	C 	0.766	0.69	0.561	-0.071
Mof_C 	C 	0.7817	0.759	0.74	0.152
Mof_Er	Er	0.13132	0.20805	0.7991	1.657
Mof_O 	O 	0.0834	0.0741	0.7205	-0.427
Mof_O 	O 	0.07926	0.2564	0.6036	-0.455
Mof_O 	O 	0.15162	0.1458	0.5006	-0.498
Mof_O 	O 	0.1597	0.9698	0.3582	-0.491
Mof_O 	O 	0.3233	0.233	0.0048	-0.508
Mof_O 	O 	0.33392	0.1073	0.7619	-0.349
Mof_C 	C 	0.0666	0.1525	0.6212	0.37
Mof_C 	C 	0.0313	0.1234	0.5342	-0.224
Mof_H 	H 	0.0184	0.1847	0.4736	0.104
Mof_C 	C 	0.0177	0.015	0.5389	0.027
Mof_H 	H 	0.0312	0.9536	0.595	0.028
Mof_C 	C 	0.1708	0.063	0.4402	0.492
Mof_C 	C 	0.2091	0.0521	0.491	-0.096
Mof_C 	C 	0.2258	0.134	0.593	0.027
Mof_C 	C 	0.2616	0.1189	0.656	0.132
Mof_C 	C 	0.2774	0.1841	0.793	-0.26
Mof_C 	C 	0.3149	0.1781	0.8491	0.45
Mof_C 	C 	0.2105	0.121	0.392	-0.059
Mof_C 	C 	0.2262	0.186	0.571	-0.003
Mof_C 	C 	0.266	0.19	0.561	-0.072
Mof_C 	C 	0.2817	0.259	0.74	0.153
Mof_Er	Er	0.36868	0.70805	0.7009	1.658
Mof_O 	O 	0.4166	0.5741	0.7795	-0.427
Mof_O 	O 	0.42074	0.7564	0.8964	-0.456
Mof_O 	O 	0.34838	0.6458	0.9994	-0.497
Mof_O 	O 	0.3403	0.4698	0.1418	-0.491
Mof_O 	O 	0.1767	0.733	0.4952	-0.505
Mof_O 	O 	0.16608	0.6073	0.7381	-0.349
Mof_C 	C 	0.4334	0.6525	0.8788	0.371
Mof_C 	C 	0.4687	0.6234	0.9658	-0.224
Mof_H 	H 	0.4816	0.6847	0.0264	0.105
Mof_C 	C 	0.4823	0.515	0.9611	0.027
Mof_H 	H 	0.4688	0.4536	0.905	0.029
Mof_C 	C 	0.3292	0.563	0.0598	0.491
Mof_C 	C 	0.2909	0.5521	0.009	-0.096
Mof_C 	C 	0.2742	0.634	0.907	0.026
Mof_C 	C 	0.2384	0.6189	0.844	0.132
Mof_C 	C 	0.2226	0.6841	0.707	-0.26
Mof_C 	C 	0.1851	0.6781	0.6509	0.447
Mof_C 	C 	0.2895	0.621	0.108	-0.059
Mof_C 	C 	0.2738	0.686	0.929	-0.002
Mof_C 	C 	0.234	0.69	0.939	-0.073
Mof_C 	C 	0.2183	0.759	0.76	0.153
Mof_Er	Er	0.86868	0.20805	0.7009	1.658
Mof_O 	O 	0.9166	0.0741	0.7795	-0.427
Mof_O 	O 	0.92074	0.2564	0.8964	-0.455
Mof_O 	O 	0.84838	0.1458	0.9994	-0.494
Mof_O 	O 	0.8403	0.9698	0.1418	-0.489
Mof_O 	O 	0.6767	0.233	0.4952	-0.506
Mof_O 	O 	0.66608	0.1073	0.7381	-0.348
Mof_C 	C 	0.9334	0.1525	0.8788	0.37
Mof_C 	C 	0.9687	0.1234	0.9658	-0.22
Mof_H 	H 	0.9816	0.1847	0.0264	0.102
Mof_C 	C 	0.9823	0.015	0.9611	0.028
Mof_H 	H 	0.9688	0.9536	0.905	0.026
Mof_C 	C 	0.8292	0.063	0.0598	0.487
Mof_C 	C 	0.7909	0.0521	0.009	-0.098
Mof_C 	C 	0.7742	0.134	0.907	0.027
Mof_C 	C 	0.7384	0.1189	0.844	0.131
Mof_C 	C 	0.7226	0.1841	0.707	-0.26
Mof_C 	C 	0.6851	0.1781	0.6509	0.447
Mof_C 	C 	0.7895	0.121	0.108	-0.059
Mof_C 	C 	0.7738	0.186	0.929	-0
Mof_C 	C 	0.734	0.19	0.939	-0.071
Mof_C 	C 	0.7183	0.259	0.76	0.152
_end
