data_functionalizedCrystal
_audit_creation_method	'EQeq! by Chris Wilmer'
_symmetry_space_group_name_H-M	'P1'
_symmetry_Int_Tables_number	1
_symmetry_cell_setting	triclinic
loop_
_symmetry_equiv_pos_as_xyz
  x,y,z
_cell_length_a	32.249
_cell_length_b	7.77
_cell_length_c	30.641
_cell_angle_alpha	90
_cell_angle_beta	116.03
_cell_angle_gamma	90
loop_
_atom_site_label
_atom_site_type_symbol
_atom_site_fract_x
_atom_site_fract_y
_atom_site_fract_z
_atom_site_charge
Mof_Cu	Cu	0.24276	0.27341	0.37707	0.867
Mof_Br	Br	0.26295	0.96862	0.3872	-0.398
Mof_N 	N 	0.27374	0.3854	0.44299	-0.22
Mof_C 	C 	0.29371	0.2965	0.48455	0.043
Mof_H 	H 	0.29189	0.17444	0.48305	0.018
Mof_C 	C 	0.31695	0.3739	0.5297	-0.062
Mof_H 	H 	0.3302	0.30622	0.5584	0.065
Mof_C 	C 	0.32047	0.5522	0.5321	-0.022
Mof_C 	C 	0.30067	0.6449	0.48929	-0.063
Mof_H 	H 	0.30304	0.76684	0.48967	0.083
Mof_C 	C 	0.2775	0.5583	0.44617	0.047
Mof_H 	H 	0.26339	0.62365	0.4171	0.024
Mof_C 	C 	0.34395	0.6511	0.57838	0.303
Mof_O 	O 	0.36293	0.5469	0.61749	-0.327
Mof_O 	O 	0.34583	0.8045	0.58055	-0.26
Mof_C 	C 	0.3854	0.6292	0.66291	0.418
Mof_C 	C 	0.35927	0.704	0.68357	-0.428
Mof_H 	H 	0.32651	0.70602	0.66727	0.205
Mof_C 	C 	0.38356	0.7763	0.72959	0.41
Mof_C 	C 	0.43111	0.7717	0.75425	-0.425
Mof_H 	H 	0.44693	0.82071	0.7857	0.206
Mof_C 	C 	0.45495	0.6931	0.73149	0.421
Mof_C 	C 	0.43305	0.6208	0.68564	-0.428
Mof_H 	H 	0.44996	0.56798	0.67052	0.209
Mof_O 	O 	0.36005	0.8692	0.75133	-0.324
Mof_C 	C 	0.33299	0.7798	0.76699	0.294
Mof_O 	O 	0.32695	0.6277	0.76244	-0.258
Mof_C 	C 	0.31127	0.8968	0.78981	-0.011
Mof_C 	C 	0.27944	0.8259	0.80392	-0.072
Mof_H 	H 	0.27178	0.70717	0.7991	0.083
Mof_C 	C 	0.25919	0.9332	0.82521	0.058
Mof_H 	H 	0.23711	0.88483	0.83436	0.007
Mof_N 	N 	0.26891	0.1013	0.83365	-0.215
Mof_C 	C 	0.29947	0.1681	0.81961	0.048
Mof_H 	H 	0.30658	0.28716	0.82498	0.019
Mof_C 	C 	0.32127	0.0712	0.79753	-0.072
Mof_H 	H 	0.34261	0.12334	0.78792	0.076
Mof_O 	O 	0.50296	0.6821	0.75847	-0.318
Mof_C 	C 	0.52973	0.7531	0.73937	0.297
Mof_O 	O 	0.51531	0.8253	0.70141	-0.244
Mof_C 	C 	0.57977	0.7308	0.77347	-0.01
Mof_C 	C 	0.59466	0.6382	0.81633	-0.062
Mof_H 	H 	0.57318	0.58167	0.82492	0.088
Mof_C 	C 	0.64182	0.6299	0.84653	0.051
Mof_H 	H 	0.65209	0.56461	0.87562	0.022
Mof_N 	N 	0.6736	0.7105	0.83629	-0.217
Mof_C 	C 	0.65845	0.8003	0.79464	0.052
Mof_H 	H 	0.68055	0.85784	0.78719	0.016
Mof_C 	C 	0.61223	0.8133	0.76199	-0.067
Mof_H 	H 	0.6029	0.87648	0.73265	0.08
Mof_Cu	Cu	0.74214	0.72015	0.8817	0.866
Mof_Br	Br	0.76259	0.02415	0.89332	-0.4
Mof_N 	N 	0.76526	0.6078	0.94804	-0.221
Mof_C 	C 	0.76102	0.4369	0.95153	0.049
Mof_H 	H 	0.7422	0.37473	0.92293	0.017
Mof_C 	C 	0.78253	0.3475	0.99434	-0.065
Mof_H 	H 	0.77925	0.22617	0.99493	0.081
Mof_C 	C 	0.80908	0.4366	0.03669	-0.021
Mof_C 	C 	0.8133	0.6135	0.0339	-0.066
Mof_H 	H 	0.83118	0.67864	0.06221	0.065
Mof_C 	C 	0.79098	0.6936	0.98904	0.04
Mof_H 	H 	0.79406	0.8147	0.98733	0.018
Mof_C 	C 	0.83144	0.3357	0.08239	0.3
Mof_O 	O 	0.86066	0.4344	0.12015	-0.324
Mof_O 	O 	0.82546	0.1847	0.08543	-0.263
Mof_C 	C 	0.88393	0.3529	0.1651	0.409
Mof_C 	C 	0.85934	0.2789	0.18788	-0.419
Mof_H 	H 	0.82656	0.27724	0.17304	0.203
Mof_C 	C 	0.88522	0.2072	0.23363	0.404
Mof_C 	C 	0.93299	0.2109	0.2566	-0.416
Mof_H 	H 	0.94983	0.16256	0.28799	0.203
Mof_C 	C 	0.95521	0.2879	0.23194	0.411
Mof_C 	C 	0.93181	0.3604	0.18593	-0.414
Mof_H 	H 	0.94778	0.41224	0.16963	0.204
Mof_O 	O 	0.86276	0.117	0.25698	-0.323
Mof_C 	C 	0.84046	0.2106	0.27727	0.294
Mof_O 	O 	0.83845	0.3645	0.27604	-0.257
Mof_C 	C 	0.81876	0.098	0.30119	-0.01
Mof_C 	C 	0.79154	0.1773	0.31998	-0.074
Mof_H 	H 	0.78752	0.29863	0.31823	0.086
Mof_C 	C 	0.77039	0.075	0.34136	0.059
Mof_H 	H 	0.7515	0.12969	0.35385	0.009
Mof_N 	N 	0.77493	0.9041	0.34547	-0.219
Mof_C 	C 	0.80065	0.8291	0.32666	0.051
Mof_H 	H 	0.80377	0.7074	0.32861	0.018
Mof_C 	C 	0.82324	0.9212	0.30419	-0.073
Mof_H 	H 	0.84131	0.86324	0.29125	0.077
Mof_O 	O 	0.00331	0.3015	0.25708	-0.315
Mof_C 	C 	0.02953	0.2266	0.2377	0.295
Mof_O 	O 	0.01465	0.151	0.20024	-0.243
Mof_C 	C 	0.07972	0.251	0.2713	-0.007
Mof_C 	C 	0.11206	0.1728	0.25911	-0.069
Mof_H 	H 	0.10261	0.11065	0.22959	0.084
Mof_C 	C 	0.15849	0.1879	0.29119	0.054
Mof_H 	H 	0.18059	0.13301	0.28321	0.014
Mof_N 	N 	0.17364	0.277	0.33313	-0.216
Mof_C 	C 	0.14181	0.3532	0.34401	0.052
Mof_H 	H 	0.15209	0.41779	0.37322	0.022
Mof_C 	C 	0.09472	0.3418	0.31454	-0.065
Mof_H 	H 	0.07324	0.39495	0.32377	0.087
Mof_Cu	Cu	0.24276	0.22659	0.87707	0.867
Mof_Br	Br	0.26295	0.53138	0.8872	-0.404
Mof_N 	N 	0.27374	0.1146	0.94299	-0.224
Mof_C 	C 	0.29371	0.2035	0.98455	0.046
Mof_H 	H 	0.29189	0.32556	0.98305	0.017
Mof_C 	C 	0.31695	0.1261	0.0297	-0.073
Mof_H 	H 	0.3302	0.19378	0.0584	0.067
Mof_C 	C 	0.32047	0.9478	0.0321	-0.013
Mof_C 	C 	0.30067	0.8551	0.98929	-0.071
Mof_H 	H 	0.30304	0.73316	0.98967	0.084
Mof_C 	C 	0.2775	0.9417	0.94617	0.055
Mof_H 	H 	0.26339	0.87635	0.9171	0.022
Mof_C 	C 	0.34395	0.8489	0.07838	0.3
Mof_O 	O 	0.36293	0.9531	0.11749	-0.325
Mof_O 	O 	0.34583	0.6955	0.08055	-0.26
Mof_C 	C 	0.3854	0.8708	0.16291	0.418
Mof_C 	C 	0.35927	0.796	0.18357	-0.427
Mof_H 	H 	0.32651	0.79398	0.16727	0.205
Mof_C 	C 	0.38356	0.7237	0.22959	0.411
Mof_C 	C 	0.43111	0.7283	0.25425	-0.424
Mof_H 	H 	0.44693	0.67929	0.2857	0.206
Mof_C 	C 	0.45495	0.8069	0.23149	0.421
Mof_C 	C 	0.43305	0.8792	0.18564	-0.427
Mof_H 	H 	0.44996	0.93202	0.17052	0.21
Mof_O 	O 	0.36005	0.6308	0.25133	-0.325
Mof_C 	C 	0.33299	0.7202	0.26699	0.295
Mof_O 	O 	0.32695	0.8723	0.26244	-0.256
Mof_C 	C 	0.31127	0.6032	0.28981	-0.016
Mof_C 	C 	0.27944	0.6741	0.30392	-0.069
Mof_H 	H 	0.27178	0.79283	0.2991	0.083
Mof_C 	C 	0.25919	0.5668	0.32521	0.053
Mof_H 	H 	0.23711	0.61517	0.33436	0.008
Mof_N 	N 	0.26891	0.3987	0.33365	-0.213
Mof_C 	C 	0.29947	0.3319	0.31961	0.046
Mof_H 	H 	0.30658	0.21284	0.32498	0.018
Mof_C 	C 	0.32127	0.4288	0.29753	-0.067
Mof_H 	H 	0.34261	0.37666	0.28792	0.075
Mof_O 	O 	0.50296	0.8179	0.25847	-0.317
Mof_C 	C 	0.52973	0.7469	0.23937	0.297
Mof_O 	O 	0.51531	0.6747	0.20141	-0.244
Mof_C 	C 	0.57977	0.7692	0.27347	-0.009
Mof_C 	C 	0.59466	0.8618	0.31633	-0.062
Mof_H 	H 	0.57318	0.91833	0.32492	0.088
Mof_C 	C 	0.64182	0.8701	0.34653	0.051
Mof_H 	H 	0.65209	0.93539	0.37562	0.022
Mof_N 	N 	0.6736	0.7895	0.33629	-0.217
Mof_C 	C 	0.65845	0.6997	0.29464	0.053
Mof_H 	H 	0.68055	0.64216	0.28719	0.018
Mof_C 	C 	0.61223	0.6867	0.26199	-0.067
Mof_H 	H 	0.6029	0.62352	0.23265	0.081
Mof_Cu	Cu	0.74214	0.77985	0.3817	0.867
Mof_Br	Br	0.76259	0.47585	0.39332	-0.405
Mof_N 	N 	0.76526	0.8922	0.44804	-0.224
Mof_C 	C 	0.76102	0.0631	0.45153	0.057
Mof_H 	H 	0.7422	0.12527	0.42293	0.016
Mof_C 	C 	0.78253	0.1525	0.49434	-0.071
Mof_H 	H 	0.77925	0.27383	0.49493	0.082
Mof_C 	C 	0.80908	0.0634	0.53669	-0.012
Mof_C 	C 	0.8133	0.8865	0.5339	-0.076
Mof_H 	H 	0.83118	0.82136	0.56221	0.068
Mof_C 	C 	0.79098	0.8064	0.48904	0.043
Mof_H 	H 	0.79406	0.6853	0.48733	0.018
Mof_C 	C 	0.83144	0.1643	0.58239	0.297
Mof_O 	O 	0.86066	0.0656	0.62015	-0.322
Mof_O 	O 	0.82546	0.3153	0.58543	-0.263
Mof_C 	C 	0.88393	0.1471	0.6651	0.409
Mof_C 	C 	0.85934	0.2211	0.68788	-0.418
Mof_H 	H 	0.82656	0.22276	0.67304	0.203
Mof_C 	C 	0.88522	0.2928	0.73363	0.405
Mof_C 	C 	0.93299	0.2891	0.7566	-0.416
Mof_H 	H 	0.94983	0.33744	0.78799	0.204
Mof_C 	C 	0.95521	0.2121	0.73194	0.412
Mof_C 	C 	0.93181	0.1396	0.68593	-0.414
Mof_H 	H 	0.94778	0.08776	0.66963	0.205
Mof_O 	O 	0.86276	0.383	0.75698	-0.324
Mof_C 	C 	0.84046	0.2894	0.77727	0.295
Mof_O 	O 	0.83845	0.1355	0.77604	-0.255
Mof_C 	C 	0.81876	0.402	0.80119	-0.015
Mof_C 	C 	0.79154	0.3227	0.81998	-0.071
Mof_H 	H 	0.78752	0.20137	0.81823	0.085
Mof_C 	C 	0.77039	0.425	0.84136	0.054
Mof_H 	H 	0.7515	0.37031	0.85385	0.01
Mof_N 	N 	0.77493	0.5959	0.84547	-0.217
Mof_C 	C 	0.80065	0.6709	0.82666	0.049
Mof_H 	H 	0.80377	0.7926	0.82861	0.017
Mof_C 	C 	0.82324	0.5788	0.80419	-0.067
Mof_H 	H 	0.84131	0.63676	0.79125	0.075
Mof_O 	O 	0.00331	0.1985	0.75708	-0.314
Mof_C 	C 	0.02953	0.2734	0.7377	0.295
Mof_O 	O 	0.01465	0.349	0.70024	-0.243
Mof_C 	C 	0.07972	0.249	0.7713	-0.006
Mof_C 	C 	0.11206	0.3272	0.75911	-0.069
Mof_H 	H 	0.10261	0.38935	0.72959	0.085
Mof_C 	C 	0.15849	0.3121	0.79119	0.054
Mof_H 	H 	0.18059	0.36699	0.78321	0.016
Mof_N 	N 	0.17364	0.223	0.83313	-0.216
Mof_C 	C 	0.14181	0.1468	0.84401	0.053
Mof_H 	H 	0.15209	0.08221	0.87322	0.021
Mof_C 	C 	0.09472	0.1582	0.81454	-0.065
Mof_H 	H 	0.07324	0.10505	0.82377	0.087
Mof_Cu	Cu	0.75724	0.77341	0.12293	0.867
Mof_Br	Br	0.73705	0.46862	0.1128	-0.404
Mof_N 	N 	0.72626	0.8854	0.05701	-0.224
Mof_C 	C 	0.70629	0.7965	0.01545	0.046
Mof_H 	H 	0.70811	0.67444	0.01695	0.017
Mof_C 	C 	0.68305	0.8739	0.9703	-0.073
Mof_H 	H 	0.6698	0.80622	0.9416	0.067
Mof_C 	C 	0.67953	0.0522	0.9679	-0.013
Mof_C 	C 	0.69933	0.1449	0.01071	-0.071
Mof_H 	H 	0.69696	0.26684	0.01033	0.084
Mof_C 	C 	0.7225	0.0583	0.05383	0.055
Mof_H 	H 	0.73661	0.12365	0.0829	0.022
Mof_C 	C 	0.65605	0.1511	0.92162	0.3
Mof_O 	O 	0.63707	0.0469	0.88251	-0.325
Mof_O 	O 	0.65417	0.3045	0.91945	-0.26
Mof_C 	C 	0.6146	0.1292	0.83709	0.418
Mof_C 	C 	0.64073	0.204	0.81643	-0.427
Mof_H 	H 	0.67349	0.20602	0.83273	0.205
Mof_C 	C 	0.61644	0.2763	0.77041	0.411
Mof_C 	C 	0.56889	0.2717	0.74575	-0.424
Mof_H 	H 	0.55307	0.32071	0.7143	0.206
Mof_C 	C 	0.54505	0.1931	0.76851	0.421
Mof_C 	C 	0.56695	0.1208	0.81436	-0.427
Mof_H 	H 	0.55004	0.06798	0.82948	0.21
Mof_O 	O 	0.63995	0.3692	0.74867	-0.325
Mof_C 	C 	0.66701	0.2798	0.73301	0.295
Mof_O 	O 	0.67305	0.1277	0.73756	-0.256
Mof_C 	C 	0.68873	0.3968	0.71019	-0.016
Mof_C 	C 	0.72056	0.3259	0.69608	-0.069
Mof_H 	H 	0.72822	0.20717	0.7009	0.083
Mof_C 	C 	0.74081	0.4332	0.67479	0.053
Mof_H 	H 	0.76289	0.38483	0.66564	0.008
Mof_N 	N 	0.73109	0.6013	0.66635	-0.213
Mof_C 	C 	0.70053	0.6681	0.68039	0.046
Mof_H 	H 	0.69342	0.78716	0.67502	0.018
Mof_C 	C 	0.67873	0.5712	0.70247	-0.067
Mof_H 	H 	0.65739	0.62334	0.71208	0.075
Mof_O 	O 	0.49704	0.1821	0.74153	-0.317
Mof_C 	C 	0.47027	0.2531	0.76063	0.297
Mof_O 	O 	0.48469	0.3253	0.79859	-0.244
Mof_C 	C 	0.42023	0.2308	0.72653	-0.009
Mof_C 	C 	0.40534	0.1382	0.68367	-0.062
Mof_H 	H 	0.42682	0.08167	0.67508	0.088
Mof_C 	C 	0.35818	0.1299	0.65347	0.051
Mof_H 	H 	0.34791	0.06461	0.62438	0.022
Mof_N 	N 	0.3264	0.2105	0.66371	-0.217
Mof_C 	C 	0.34155	0.3003	0.70536	0.053
Mof_H 	H 	0.31945	0.35784	0.71281	0.018
Mof_C 	C 	0.38777	0.3133	0.73801	-0.067
Mof_H 	H 	0.3971	0.37648	0.76735	0.081
Mof_Cu	Cu	0.25786	0.22015	0.6183	0.867
Mof_Br	Br	0.23741	0.52415	0.60668	-0.405
Mof_N 	N 	0.23474	0.1078	0.55196	-0.224
Mof_C 	C 	0.23898	0.9369	0.54847	0.057
Mof_H 	H 	0.2578	0.87473	0.57707	0.016
Mof_C 	C 	0.21747	0.8475	0.50566	-0.071
Mof_H 	H 	0.22075	0.72617	0.50507	0.082
Mof_C 	C 	0.19092	0.9366	0.46331	-0.012
Mof_C 	C 	0.1867	0.1135	0.4661	-0.076
Mof_H 	H 	0.16882	0.17864	0.43779	0.068
Mof_C 	C 	0.20902	0.1936	0.51096	0.043
Mof_H 	H 	0.20594	0.3147	0.51267	0.018
Mof_C 	C 	0.16856	0.8357	0.41761	0.297
Mof_O 	O 	0.13934	0.9344	0.37985	-0.322
Mof_O 	O 	0.17454	0.6847	0.41457	-0.263
Mof_C 	C 	0.11607	0.8529	0.3349	0.409
Mof_C 	C 	0.14066	0.7789	0.31212	-0.418
Mof_H 	H 	0.17344	0.77724	0.32696	0.203
Mof_C 	C 	0.11478	0.7072	0.26637	0.405
Mof_C 	C 	0.06701	0.7109	0.2434	-0.416
Mof_H 	H 	0.05017	0.66256	0.21201	0.204
Mof_C 	C 	0.04479	0.7879	0.26806	0.412
Mof_C 	C 	0.06819	0.8604	0.31407	-0.414
Mof_H 	H 	0.05222	0.91224	0.33037	0.205
Mof_O 	O 	0.13724	0.617	0.24302	-0.324
Mof_C 	C 	0.15954	0.7106	0.22273	0.295
Mof_O 	O 	0.16155	0.8645	0.22396	-0.255
Mof_C 	C 	0.18124	0.598	0.19881	-0.015
Mof_C 	C 	0.20846	0.6773	0.18002	-0.071
Mof_H 	H 	0.21248	0.79863	0.18177	0.085
Mof_C 	C 	0.22961	0.575	0.15864	0.054
Mof_H 	H 	0.2485	0.62969	0.14615	0.01
Mof_N 	N 	0.22507	0.4041	0.15453	-0.217
Mof_C 	C 	0.19935	0.3291	0.17334	0.049
Mof_H 	H 	0.19623	0.2074	0.17139	0.017
Mof_C 	C 	0.17676	0.4212	0.19581	-0.067
Mof_H 	H 	0.15869	0.36324	0.20875	0.075
Mof_O 	O 	0.99669	0.8015	0.24292	-0.314
Mof_C 	C 	0.97047	0.7266	0.2623	0.295
Mof_O 	O 	0.98535	0.651	0.29976	-0.243
Mof_C 	C 	0.92028	0.751	0.2287	-0.006
Mof_C 	C 	0.88794	0.6728	0.24089	-0.069
Mof_H 	H 	0.89739	0.61065	0.27041	0.085
Mof_C 	C 	0.84151	0.6879	0.20881	0.054
Mof_H 	H 	0.81941	0.63301	0.21679	0.016
Mof_N 	N 	0.82636	0.777	0.16687	-0.216
Mof_C 	C 	0.85819	0.8532	0.15599	0.053
Mof_H 	H 	0.84791	0.91779	0.12678	0.021
Mof_C 	C 	0.90528	0.8418	0.18546	-0.065
Mof_H 	H 	0.92676	0.89495	0.17623	0.087
Mof_Cu	Cu	0.75724	0.72659	0.62293	0.866
Mof_Br	Br	0.73705	0.03138	0.6128	-0.399
Mof_N 	N 	0.72626	0.6146	0.55701	-0.221
Mof_C 	C 	0.70629	0.7035	0.51545	0.042
Mof_H 	H 	0.70811	0.82556	0.51695	0.017
Mof_C 	C 	0.68305	0.6261	0.4703	-0.063
Mof_H 	H 	0.6698	0.69378	0.4416	0.064
Mof_C 	C 	0.67953	0.4478	0.4679	-0.023
Mof_C 	C 	0.69933	0.3551	0.51071	-0.064
Mof_H 	H 	0.69696	0.23316	0.51033	0.082
Mof_C 	C 	0.7225	0.4417	0.55383	0.047
Mof_H 	H 	0.73661	0.37635	0.5829	0.024
Mof_C 	C 	0.65605	0.3489	0.42162	0.303
Mof_O 	O 	0.63707	0.4531	0.38251	-0.327
Mof_O 	O 	0.65417	0.1955	0.41945	-0.26
Mof_C 	C 	0.6146	0.3708	0.33709	0.418
Mof_C 	C 	0.64073	0.296	0.31643	-0.428
Mof_H 	H 	0.67349	0.29398	0.33273	0.205
Mof_C 	C 	0.61644	0.2237	0.27041	0.41
Mof_C 	C 	0.56889	0.2283	0.24575	-0.425
Mof_H 	H 	0.55307	0.17929	0.2143	0.206
Mof_C 	C 	0.54505	0.3069	0.26851	0.421
Mof_C 	C 	0.56695	0.3792	0.31436	-0.428
Mof_H 	H 	0.55004	0.43202	0.32948	0.209
Mof_O 	O 	0.63995	0.1308	0.24867	-0.324
Mof_C 	C 	0.66701	0.2202	0.23301	0.294
Mof_O 	O 	0.67305	0.3723	0.23756	-0.258
Mof_C 	C 	0.68873	0.1032	0.21019	-0.011
Mof_C 	C 	0.72056	0.1741	0.19608	-0.072
Mof_H 	H 	0.72822	0.29283	0.2009	0.083
Mof_C 	C 	0.74081	0.0668	0.17479	0.058
Mof_H 	H 	0.76289	0.11517	0.16564	0.007
Mof_N 	N 	0.73109	0.8987	0.16635	-0.215
Mof_C 	C 	0.70053	0.8319	0.18039	0.048
Mof_H 	H 	0.69342	0.71284	0.17502	0.019
Mof_C 	C 	0.67873	0.9288	0.20247	-0.072
Mof_H 	H 	0.65739	0.87666	0.21208	0.076
Mof_O 	O 	0.49704	0.3179	0.24153	-0.318
Mof_C 	C 	0.47027	0.2469	0.26063	0.297
Mof_O 	O 	0.48469	0.1747	0.29859	-0.244
Mof_C 	C 	0.42023	0.2692	0.22653	-0.01
Mof_C 	C 	0.40534	0.3618	0.18367	-0.062
Mof_H 	H 	0.42682	0.41833	0.17508	0.088
Mof_C 	C 	0.35818	0.3701	0.15347	0.051
Mof_H 	H 	0.34791	0.43539	0.12438	0.022
Mof_N 	N 	0.3264	0.2895	0.16371	-0.217
Mof_C 	C 	0.34155	0.1997	0.20536	0.052
Mof_H 	H 	0.31945	0.14216	0.21281	0.016
Mof_C 	C 	0.38777	0.1867	0.23801	-0.067
Mof_H 	H 	0.3971	0.12352	0.26735	0.08
Mof_Cu	Cu	0.25786	0.27985	0.1183	0.866
Mof_Br	Br	0.23741	0.97585	0.10668	-0.4
Mof_N 	N 	0.23474	0.3922	0.05196	-0.221
Mof_C 	C 	0.23898	0.5631	0.04847	0.049
Mof_H 	H 	0.2578	0.62527	0.07707	0.017
Mof_C 	C 	0.21747	0.6525	0.00566	-0.065
Mof_H 	H 	0.22075	0.77383	0.00507	0.081
Mof_C 	C 	0.19092	0.5634	0.96331	-0.021
Mof_C 	C 	0.1867	0.3865	0.9661	-0.066
Mof_H 	H 	0.16882	0.32136	0.93779	0.065
Mof_C 	C 	0.20902	0.3064	0.01096	0.04
Mof_H 	H 	0.20594	0.1853	0.01267	0.018
Mof_C 	C 	0.16856	0.6643	0.91761	0.3
Mof_O 	O 	0.13934	0.5656	0.87985	-0.324
Mof_O 	O 	0.17454	0.8153	0.91457	-0.263
Mof_C 	C 	0.11607	0.6471	0.8349	0.409
Mof_C 	C 	0.14066	0.7211	0.81212	-0.419
Mof_H 	H 	0.17344	0.72276	0.82696	0.203
Mof_C 	C 	0.11478	0.7928	0.76637	0.404
Mof_C 	C 	0.06701	0.7891	0.7434	-0.416
Mof_H 	H 	0.05017	0.83744	0.71201	0.203
Mof_C 	C 	0.04479	0.7121	0.76806	0.411
Mof_C 	C 	0.06819	0.6396	0.81407	-0.414
Mof_H 	H 	0.05222	0.58776	0.83037	0.204
Mof_O 	O 	0.13724	0.883	0.74302	-0.323
Mof_C 	C 	0.15954	0.7894	0.72273	0.294
Mof_O 	O 	0.16155	0.6355	0.72396	-0.257
Mof_C 	C 	0.18124	0.902	0.69881	-0.01
Mof_C 	C 	0.20846	0.8227	0.68002	-0.074
Mof_H 	H 	0.21248	0.70137	0.68177	0.086
Mof_C 	C 	0.22961	0.925	0.65864	0.059
Mof_H 	H 	0.2485	0.87031	0.64615	0.009
Mof_N 	N 	0.22507	0.0959	0.65453	-0.219
Mof_C 	C 	0.19935	0.1709	0.67334	0.051
Mof_H 	H 	0.19623	0.2926	0.67139	0.018
Mof_C 	C 	0.17676	0.0788	0.69581	-0.073
Mof_H 	H 	0.15869	0.13676	0.70875	0.077
Mof_O 	O 	0.99669	0.6985	0.74292	-0.315
Mof_C 	C 	0.97047	0.7734	0.7623	0.295
Mof_O 	O 	0.98535	0.849	0.79976	-0.243
Mof_C 	C 	0.92028	0.749	0.7287	-0.007
Mof_C 	C 	0.88794	0.8272	0.74089	-0.069
Mof_H 	H 	0.89739	0.88935	0.77041	0.084
Mof_C 	C 	0.84151	0.8121	0.70881	0.054
Mof_H 	H 	0.81941	0.86699	0.71679	0.014
Mof_N 	N 	0.82636	0.723	0.66687	-0.216
Mof_C 	C 	0.85819	0.6468	0.65599	0.052
Mof_H 	H 	0.84791	0.58221	0.62678	0.022
Mof_C 	C 	0.90528	0.6582	0.68546	-0.065
Mof_H 	H 	0.92676	0.60505	0.67623	0.087
_end
