data_functionalizedCrystal
_audit_creation_method	'EQeq! by Chris Wilmer'
_symmetry_space_group_name_H-M	'P1'
_symmetry_Int_Tables_number	1
_symmetry_cell_setting	triclinic
loop_
_symmetry_equiv_pos_as_xyz
  x,y,z
_cell_length_a	9.9691
_cell_length_b	12.4013
_cell_length_c	17.341
_cell_angle_alpha	90
_cell_angle_beta	103.762
_cell_angle_gamma	90
loop_
_atom_site_label
_atom_site_type_symbol
_atom_site_fract_x
_atom_site_fract_y
_atom_site_fract_z
_atom_site_charge
Mof_Fe	Fe	0.8664	0.3534	0.9239	0.947
Mof_Fe	Fe	0.2453	0.4221	0.7797	1.183
Mof_Fe	Fe	0.0597	0.9739	0.8692	1.051
Mof_Fe	Fe	0.5293	0.1098	0.792	1.052
Mof_P 	P 	0.9157	0.4593	0.1067	0.587
Mof_P 	P 	0.5619	0.3726	0.808	0.595
Mof_P 	P 	0.2197	0.1545	0.7957	0.572
Mof_P 	P 	0.8036	0.0879	0.9418	0.598
Mof_O 	O 	0.8399	0.2083	0.9566	-0.374
Mof_O 	O 	0.8581	0.4008	0.0287	-0.335
Mof_O 	O 	0.6826	0.4053	0.8778	-0.334
Mof_O 	O 	0.0525	0.515	0.1036	-0.373
Mof_O 	O 	0.4293	0.3825	0.8379	-0.354
Mof_O 	O 	0.8107	0.5453	0.1196	-0.341
Mof_F 	F 	0.2859	0.4082	0.6726	-0.544
Mof_O 	O 	0.1759	0.2697	0.7701	-0.312
Mof_F 	F 	0.0519	0.4609	0.7207	-0.545
Mof_O 	O 	0.1896	0.0785	0.7239	-0.32
Mof_O 	O 	0.8946	0.0363	0.894	-0.387
Mof_O 	O 	0.8203	0.0311	0.0217	-0.326
Mof_O 	O 	0.1308	0.1195	0.8542	-0.324
Mof_O 	O 	0.5582	0.4509	0.7395	-0.351
Mof_O 	O 	0.5874	0.2583	0.7829	-0.388
Mof_O 	O 	0.3747	0.1489	0.8378	-0.323
Mof_O 	O 	0.6512	0.0783	0.8977	-0.322
Mof_O 	O 	0.9444	0.3766	0.1739	-0.337
Mof_Fe	Fe	0.6336	0.8534	0.5761	0.95
Mof_Fe	Fe	0.2547	0.9221	0.7203	1.183
Mof_Fe	Fe	0.4403	0.4739	0.6308	1.053
Mof_Fe	Fe	0.9707	0.6098	0.708	1.054
Mof_P 	P 	0.5843	0.9593	0.3933	0.587
Mof_P 	P 	0.9381	0.8726	0.692	0.597
Mof_P 	P 	0.2803	0.6545	0.7043	0.572
Mof_P 	P 	0.6964	0.5879	0.5582	0.599
Mof_O 	O 	0.6601	0.7083	0.5434	-0.373
Mof_O 	O 	0.6419	0.9008	0.4713	-0.336
Mof_O 	O 	0.8174	0.9053	0.6222	-0.333
Mof_O 	O 	0.4475	0.015	0.3964	-0.372
Mof_O 	O 	0.0707	0.8825	0.6621	-0.355
Mof_O 	O 	0.6893	0.0453	0.3804	-0.342
Mof_F 	F 	0.2141	0.9082	0.8274	-0.544
Mof_O 	O 	0.3241	0.7697	0.7299	-0.312
Mof_F 	F 	0.4481	0.9609	0.7793	-0.545
Mof_O 	O 	0.3104	0.5785	0.7761	-0.322
Mof_O 	O 	0.6054	0.5363	0.606	-0.386
Mof_O 	O 	0.6797	0.5311	0.4783	-0.326
Mof_O 	O 	0.3692	0.6195	0.6458	-0.325
Mof_O 	O 	0.9418	0.9509	0.7605	-0.35
Mof_O 	O 	0.9126	0.7583	0.7171	-0.388
Mof_O 	O 	0.1253	0.6489	0.6622	-0.324
Mof_O 	O 	0.8488	0.5783	0.6023	-0.322
Mof_O 	O 	0.5556	0.8766	0.3261	-0.338
Mof_Fe	Fe	0.1336	0.6466	0.0761	0.948
Mof_Fe	Fe	0.7547	0.5779	0.2203	1.184
Mof_Fe	Fe	0.9403	0.0261	0.1308	1.052
Mof_Fe	Fe	0.4707	0.8902	0.208	1.053
Mof_P 	P 	0.0843	0.5407	0.8933	0.588
Mof_P 	P 	0.4381	0.6274	0.192	0.596
Mof_P 	P 	0.7803	0.8455	0.2043	0.572
Mof_P 	P 	0.1964	0.9121	0.0582	0.598
Mof_O 	O 	0.1601	0.7917	0.0434	-0.374
Mof_O 	O 	0.1419	0.5992	0.9713	-0.335
Mof_O 	O 	0.3174	0.5947	0.1222	-0.334
Mof_O 	O 	0.9475	0.485	0.8964	-0.373
Mof_O 	O 	0.5707	0.6175	0.1621	-0.354
Mof_O 	O 	0.1893	0.4547	0.8804	-0.341
Mof_F 	F 	0.7141	0.5918	0.3274	-0.544
Mof_O 	O 	0.8241	0.7303	0.2299	-0.312
Mof_F 	F 	0.9481	0.5391	0.2793	-0.545
Mof_O 	O 	0.8104	0.9215	0.2761	-0.32
Mof_O 	O 	0.1054	0.9637	0.106	-0.387
Mof_O 	O 	0.1797	0.9689	0.9783	-0.326
Mof_O 	O 	0.8692	0.8805	0.1458	-0.324
Mof_O 	O 	0.4418	0.5491	0.2605	-0.351
Mof_O 	O 	0.4126	0.7417	0.2171	-0.388
Mof_O 	O 	0.6253	0.8511	0.1622	-0.323
Mof_O 	O 	0.3488	0.9217	0.1023	-0.322
Mof_O 	O 	0.0556	0.6234	0.8261	-0.337
Mof_Fe	Fe	0.3664	0.1466	0.4239	0.95
Mof_Fe	Fe	0.7453	0.0779	0.2797	1.183
Mof_Fe	Fe	0.5597	0.5261	0.3692	1.053
Mof_Fe	Fe	0.0293	0.3902	0.292	1.054
Mof_P 	P 	0.4157	0.0407	0.6067	0.587
Mof_P 	P 	0.0619	0.1274	0.308	0.597
Mof_P 	P 	0.7197	0.3455	0.2957	0.572
Mof_P 	P 	0.3036	0.4121	0.4418	0.599
Mof_O 	O 	0.3399	0.2917	0.4566	-0.373
Mof_O 	O 	0.3581	0.0992	0.5287	-0.336
Mof_O 	O 	0.1826	0.0947	0.3778	-0.333
Mof_O 	O 	0.5525	0.985	0.6036	-0.372
Mof_O 	O 	0.9293	0.1175	0.3379	-0.355
Mof_O 	O 	0.3107	0.9547	0.6196	-0.342
Mof_F 	F 	0.7859	0.0918	0.1726	-0.544
Mof_O 	O 	0.6759	0.2303	0.2701	-0.312
Mof_F 	F 	0.5519	0.0391	0.2207	-0.545
Mof_O 	O 	0.6896	0.4215	0.2239	-0.322
Mof_O 	O 	0.3946	0.4637	0.394	-0.386
Mof_O 	O 	0.3203	0.4689	0.5217	-0.326
Mof_O 	O 	0.6308	0.3805	0.3542	-0.325
Mof_O 	O 	0.0582	0.0491	0.2395	-0.35
Mof_O 	O 	0.0874	0.2417	0.2829	-0.388
Mof_O 	O 	0.8747	0.3511	0.3378	-0.324
Mof_O 	O 	0.1512	0.4217	0.3977	-0.322
Mof_O 	O 	0.4444	0.1234	0.6739	-0.338
_end
