data_functionalizedCrystal
_audit_creation_method	'EQeq! by Chris Wilmer'
_symmetry_space_group_name_H-M	'P1'
_symmetry_Int_Tables_number	1
_symmetry_cell_setting	triclinic
loop_
_symmetry_equiv_pos_as_xyz
  x,y,z
_cell_length_a	15.8381
_cell_length_b	16.5226
_cell_length_c	23.5796
_cell_angle_alpha	90
_cell_angle_beta	90
_cell_angle_gamma	90
loop_
_atom_site_label
_atom_site_type_symbol
_atom_site_fract_x
_atom_site_fract_y
_atom_site_fract_z
_atom_site_charge
Mof_Cu	Cu	0.07371	0.61777	0.51124	0.86
Mof_Cu	Cu	0.88689	0.506	0.5032	0.857
Mof_Cu	Cu	0.98202	0.50957	0.62188	0.902
Mof_N 	N 	0.0945	0.3593	0.6883	0.275
Mof_O 	O 	0.0925	0.4165	0.6552	-0.221
Mof_O 	O 	0.0363	0.305	0.6918	-0.704
Mof_O 	O 	0.1542	0.3589	0.7225	-0.228
Mof_Cu	Cu	0.71609	0.59583	0.43205	0.897
Mof_Cu	Cu	0.76972	0.39466	0.43418	0.9
Mof_Cu	Cu	0.60769	0.49367	0.50661	0.87
Mof_Cu	Cu	0.51564	0.49451	0.62724	0.862
Mof_Cu	Cu	0.41738	0.39035	0.51469	0.882
Mof_C 	C 	0.2244	0.6491	0.579	0.265
Mof_C 	C 	0.1751	0.6466	0.6354	0.101
Mof_H 	H 	0.1909	0.6963	0.6572	-0.11
Mof_C 	C 	0.0799	0.6493	0.6269	-0.153
Mof_H 	H 	0.0645	0.7037	0.6115	0.04
Mof_C 	C 	0.0355	0.6383	0.6839	0.637
Mof_C 	C 	0.0234	0.6588	0.4047	0.651
Mof_C 	C 	0.9413	0.6346	0.434	-0.158
Mof_H 	H 	0.909	0.6848	0.4434	0.003
Mof_C 	C 	0.8838	0.5779	0.3984	-0.107
Mof_H 	H 	0.919	0.5336	0.3818	-0.023
Mof_C 	C 	0.835	0.6208	0.3503	0.526
Mof_C 	C 	0.9067	0.3109	0.47	0.249
Mof_C 	C 	0.8661	0.3439	0.5238	-0.05
Mof_H 	H 	0.8303	0.3004	0.5409	0.03
Mof_C 	C 	0.9318	0.3698	0.5674	-0.026
Mof_H 	H 	0.9785	0.329	0.5678	-0.018
Mof_C 	C 	0.8911	0.372	0.6263	0.333
Mof_C 	C 	0.6145	0.6281	0.628	0.474
Mof_C 	C 	0.5689	0.6317	0.5711	-0.171
Mof_H 	H 	0.5229	0.673	0.5736	-0.011
Mof_C 	C 	0.629	0.6559	0.5238	0.051
Mof_H 	H 	0.6645	0.7023	0.537	-0.132
Mof_C 	C 	0.5813	0.6813	0.4712	0.229
Mof_C 	C 	0.6524	0.3881	0.3502	0.65
Mof_C 	C 	0.6052	0.431	0.3985	-0.159
Mof_H 	H 	0.5752	0.479	0.3823	-0.044
Mof_C 	C 	0.5397	0.3779	0.4308	-0.236
Mof_H 	H 	0.5637	0.3223	0.4354	0.025
Mof_C 	C 	0.4529	0.3706	0.4022	0.688
Mof_C 	C 	0.4613	0.3649	0.688	0.421
Mof_C 	C 	0.4143	0.3575	0.63207	-0.075
Mof_H 	H 	0.4217	0.3012	0.6173	-0.021
Mof_C 	C 	0.3191	0.3731	0.6415	0.043
Mof_H 	H 	0.2914	0.3204	0.6509	0.005
Mof_C 	C 	0.2801	0.4052	0.5866	0.267
Mof_O 	O 	0.1851	0.6598	0.53233	-0.512
Mof_O 	O 	0.3028	0.6448	0.58103	-0.412
Mof_O 	O 	0.2	0.5791	0.66854	-0.544
Mof_H 	H 	0.1974	0.5369	0.6487	0.279
Mof_O 	O 	0.0517	0.59	0.58853	-0.478
Mof_O 	O 	0.9883	0.5765	0.68933	-0.704
Mof_O 	O 	0.0474	0.6885	0.72244	-1.688
Mof_O 	O 	0.0236	0.6897	0.35719	-1.621
Mof_O 	O 	0.0915	0.6488	0.43291	-1.164
Mof_O 	O 	0.96107	0.5934	0.48539	-0.507
Mof_O 	O 	0.825	0.5437	0.43732	-0.486
Mof_O 	O 	0.8699	0.64	0.30576	-1.219
Mof_O 	O 	0.7555	0.6305	0.35936	-0.544
Mof_O 	O 	0.879	0.3394	0.4227	-0.406
Mof_O 	O 	0.962	0.258	0.47426	-0.385
Mof_O 	O 	0.81337	0.41138	0.51083	-0.469
Mof_O 	O 	0.9663	0.44698	0.55249	-0.526
Mof_O 	O 	0.9085	0.4336	0.65748	-0.498
Mof_O 	O 	0.8443	0.3163	0.64071	-0.641
Mof_O 	O 	0.5966	0.5684	0.66045	-0.56
Mof_O 	O 	0.6653	0.6819	0.64081	-1.034
Mof_O 	O 	0.5322	0.55489	0.55742	-0.49
Mof_O 	O 	0.68269	0.58855	0.51191	-0.492
Mof_O 	O 	0.6083	0.6523	0.42383	-0.454
Mof_O 	O 	0.5207	0.7284	0.47544	-0.386
Mof_O 	O 	0.7307	0.374	0.35852	-0.51
Mof_O 	O 	0.6168	0.3703	0.30537	-1.68
Mof_O 	O 	0.6662	0.4591	0.43896	-0.485
Mof_O 	O 	0.528	0.4123	0.48582	-0.445
Mof_O 	O 	0.3893	0.3737	0.43536	-0.526
Mof_O 	O 	0.4473	0.3586	0.35025	-1.747
Mof_O 	O 	0.5124	0.4243	0.69379	-0.663
Mof_O 	O 	0.4488	0.313	0.72579	-1.2
Mof_O 	O 	0.4492	0.4126	0.59213	-0.501
Mof_O 	O 	0.3052	0.4276	0.68736	-0.466
Mof_H 	H 	0.2531	0.4346	0.6918	0.22
Mof_O 	O 	0.3017	0.3685	0.54057	-0.414
Mof_O 	O 	0.2287	0.4612	0.58819	-0.372
Mof_Li	Li	0.1685	0.6995	0.3752	3.16
Mof_Li	Li	0.9701	0.7004	0.2881	3.608
Mof_Li	Li	0.7797	0.3199	0.7085	0.777
Mof_Li	Li	0.5162	0.3086	0.293	6.444
Mof_O 	O 	0.7003	0.2217	0.6976	-5.583
Mof_Li	Li	0.1545	0.4408	0.4167	3.97
Mof_O 	O 	0.2255	0.3415	0.4021	-1.177
Mof_O 	O 	0.2427	0.5093	0.3744	-1.39
Mof_O 	O 	0.0455	0.4153	0.3814	-1.341
Mof_Li	Li	0.3451	0.5698	0.4192	1.676
Mof_O 	O 	0.2682	0.6697	0.42942	-1.994
Mof_H 	H 	0.31	0.7	0.429	0.504
Mof_H 	H 	0.247	0.675	0.4613	0.611
Mof_O 	O 	0.6095	0.2765	0.5766	0.963
Mof_N 	N 	0.0951	0.3361	0.679	0.035
Mof_O 	O 	0.056	0.2993	0.72	-0.908
Mof_O 	O 	0.1101	0.3115	0.6312	-0.307
Mof_O 	O 	0.1321	0.411	0.7094	-0.142
Mof_Li	Li	0.6404	0.1888	0.6222	6.543
Mof_O 	O 	0.7274	0.2163	0.715	4.19
Mof_O 	O 	0.2079	0.3862	0.4202	-2.176
Mof_O 	O 	0.2839	0.5162	0.3621	0.148
Mof_O 	O 	0.6196	0.2744	0.5594	-2.282
Mof_O 	O 	0.0257	0.3616	0.3556	-0.9
Mof_Cu	Cu	0.42629	0.38223	0.01124	0.86
Mof_Cu	Cu	0.61311	0.494	0.0032	0.858
Mof_Cu	Cu	0.51798	0.49043	0.12188	0.904
Mof_N 	N 	0.4055	0.6407	0.1883	0.277
Mof_O 	O 	0.4075	0.5835	0.1552	-0.221
Mof_O 	O 	0.4637	0.695	0.1918	-0.71
Mof_O 	O 	0.3458	0.6411	0.2225	-0.228
Mof_Cu	Cu	0.78391	0.40417	0.93205	0.898
Mof_Cu	Cu	0.73028	0.60534	0.93418	0.9
Mof_Cu	Cu	0.89231	0.50633	0.00661	0.868
Mof_Cu	Cu	0.98436	0.50549	0.12724	0.861
Mof_Cu	Cu	0.08262	0.60965	0.01469	0.883
Mof_C 	C 	0.2756	0.3509	0.079	0.265
Mof_C 	C 	0.3249	0.3534	0.1354	0.1
Mof_H 	H 	0.3091	0.3037	0.1572	-0.11
Mof_C 	C 	0.4201	0.3507	0.1269	-0.151
Mof_H 	H 	0.4355	0.2963	0.1115	0.038
Mof_C 	C 	0.4645	0.3617	0.1839	0.633
Mof_C 	C 	0.4766	0.3412	0.9047	0.649
Mof_C 	C 	0.5587	0.3654	0.934	-0.153
Mof_H 	H 	0.591	0.3152	0.9434	0.003
Mof_C 	C 	0.6162	0.4221	0.8984	-0.11
Mof_H 	H 	0.581	0.4664	0.8818	-0.022
Mof_C 	C 	0.665	0.3792	0.8503	0.53
Mof_C 	C 	0.5933	0.6891	0.97	0.252
Mof_C 	C 	0.6339	0.6561	0.0238	-0.053
Mof_H 	H 	0.6697	0.6996	0.0409	0.03
Mof_C 	C 	0.5682	0.6302	0.0674	-0.025
Mof_H 	H 	0.5215	0.671	0.0678	-0.022
Mof_C 	C 	0.6089	0.628	0.1263	0.334
Mof_C 	C 	0.8855	0.3719	0.128	0.476
Mof_C 	C 	0.9311	0.3683	0.0711	-0.171
Mof_H 	H 	0.9771	0.327	0.0736	-0.01
Mof_C 	C 	0.871	0.3441	0.0238	0.051
Mof_H 	H 	0.8355	0.2977	0.037	-0.132
Mof_C 	C 	0.9187	0.3187	0.9712	0.228
Mof_C 	C 	0.8476	0.6119	0.8502	0.647
Mof_C 	C 	0.8948	0.569	0.8985	-0.157
Mof_H 	H 	0.9248	0.521	0.8823	-0.044
Mof_C 	C 	0.9603	0.6221	0.9308	-0.239
Mof_H 	H 	0.9363	0.6777	0.9354	0.024
Mof_C 	C 	0.0471	0.6294	0.9022	0.689
Mof_C 	C 	0.0387	0.6351	0.188	0.428
Mof_C 	C 	0.0857	0.6425	0.13207	-0.078
Mof_H 	H 	0.0783	0.6988	0.1173	-0.016
Mof_C 	C 	0.1809	0.6269	0.1415	0.044
Mof_H 	H 	0.2086	0.6796	0.1509	0.005
Mof_C 	C 	0.2199	0.5948	0.0866	0.266
Mof_O 	O 	0.3149	0.3402	0.03233	-0.512
Mof_O 	O 	0.1972	0.3552	0.08103	-0.411
Mof_O 	O 	0.3	0.4209	0.16854	-0.544
Mof_H 	H 	0.3026	0.4631	0.1487	0.279
Mof_O 	O 	0.4483	0.41	0.08853	-0.48
Mof_O 	O 	0.5117	0.4235	0.18933	-0.702
Mof_O 	O 	0.4526	0.3115	0.22244	-1.701
Mof_O 	O 	0.4764	0.3103	0.85719	-1.638
Mof_O 	O 	0.4085	0.3512	0.93291	-1.163
Mof_O 	O 	0.53893	0.4066	0.98539	-0.506
Mof_O 	O 	0.675	0.4563	0.93732	-0.485
Mof_O 	O 	0.6301	0.36	0.80576	-1.23
Mof_O 	O 	0.7445	0.3695	0.85936	-0.545
Mof_O 	O 	0.621	0.6606	0.9227	-0.407
Mof_O 	O 	0.538	0.742	0.97426	-0.388
Mof_O 	O 	0.68663	0.58862	0.01083	-0.47
Mof_O 	O 	0.5337	0.55302	0.05249	-0.526
Mof_O 	O 	0.5915	0.5664	0.15748	-0.501
Mof_O 	O 	0.6557	0.6837	0.14071	-0.65
Mof_O 	O 	0.9034	0.4316	0.16045	-0.559
Mof_O 	O 	0.8347	0.3181	0.14081	-1.035
Mof_O 	O 	0.9678	0.44511	0.05742	-0.49
Mof_O 	O 	0.81731	0.41145	0.01191	-0.493
Mof_O 	O 	0.8917	0.3477	0.92383	-0.452
Mof_O 	O 	0.9793	0.2716	0.97544	-0.382
Mof_O 	O 	0.7693	0.626	0.85852	-0.509
Mof_O 	O 	0.8832	0.6297	0.80537	-1.669
Mof_O 	O 	0.8338	0.5409	0.93896	-0.485
Mof_O 	O 	0.972	0.5877	0.98582	-0.446
Mof_O 	O 	0.1107	0.6263	0.93536	-0.525
Mof_O 	O 	0.0527	0.6414	0.85025	-1.734
Mof_O 	O 	0.9876	0.5757	0.19379	-0.666
Mof_O 	O 	0.0512	0.687	0.22579	-1.185
Mof_O 	O 	0.0508	0.5874	0.09213	-0.497
Mof_O 	O 	0.1948	0.5724	0.18736	-0.466
Mof_H 	H 	0.2469	0.5654	0.1918	0.22
Mof_O 	O 	0.1983	0.6315	0.04057	-0.414
Mof_O 	O 	0.2713	0.5388	0.08819	-0.371
Mof_Li	Li	0.3315	0.3005	0.8752	3.152
Mof_Li	Li	0.5299	0.2996	0.7881	3.665
Mof_Li	Li	0.7203	0.6801	0.2085	0.812
Mof_Li	Li	0.9838	0.6914	0.793	6.392
Mof_O 	O 	0.7997	0.7783	0.1976	-5.429
Mof_Li	Li	0.3455	0.5592	0.9167	3.968
Mof_O 	O 	0.2745	0.6585	0.9021	-1.178
Mof_O 	O 	0.2573	0.4907	0.8744	-1.391
Mof_O 	O 	0.4545	0.5847	0.8814	-1.342
Mof_Li	Li	0.1549	0.4302	0.9192	1.67
Mof_O 	O 	0.2318	0.3303	0.92942	-1.989
Mof_H 	H 	0.19	0.3	0.929	0.502
Mof_H 	H 	0.253	0.325	0.9613	0.609
Mof_O 	O 	0.8905	0.7235	0.0766	0.933
Mof_N 	N 	0.4049	0.6639	0.179	0.035
Mof_O 	O 	0.444	0.7007	0.22	-0.916
Mof_O 	O 	0.3899	0.6885	0.1312	-0.308
Mof_O 	O 	0.3679	0.589	0.2094	-0.143
Mof_Li	Li	0.8596	0.8112	0.1222	6.371
Mof_O 	O 	0.7726	0.7837	0.215	4.048
Mof_O 	O 	0.2921	0.6138	0.9202	-2.175
Mof_O 	O 	0.2161	0.4838	0.8621	0.15
Mof_O 	O 	0.8804	0.7256	0.0594	-2.23
Mof_O 	O 	0.4743	0.6384	0.8556	-0.9
Mof_Cu	Cu	0.92629	0.11777	0.98876	0.863
Mof_Cu	Cu	0.11311	0.006	0.9968	0.85
Mof_Cu	Cu	0.01798	0.00957	0.87812	0.894
Mof_N 	N 	0.9055	0.8593	0.8117	0.277
Mof_O 	O 	0.9075	0.9165	0.8448	-0.227
Mof_O 	O 	0.9637	0.805	0.8082	-0.71
Mof_O 	O 	0.8458	0.8589	0.7775	-0.228
Mof_Cu	Cu	0.28391	0.09583	0.06795	0.897
Mof_Cu	Cu	0.23028	0.89466	0.06582	0.901
Mof_Cu	Cu	0.39231	0.99367	0.99339	0.872
Mof_Cu	Cu	0.48436	0.99451	0.87276	0.862
Mof_Cu	Cu	0.58262	0.89035	0.98531	0.882
Mof_C 	C 	0.7756	0.1491	0.921	0.265
Mof_C 	C 	0.8249	0.1466	0.8646	0.104
Mof_H 	H 	0.8091	0.1963	0.8428	-0.111
Mof_C 	C 	0.9201	0.1493	0.8731	-0.158
Mof_H 	H 	0.9355	0.2037	0.8885	0.041
Mof_C 	C 	0.9645	0.1383	0.8161	0.651
Mof_C 	C 	0.9766	0.1588	0.0953	0.658
Mof_C 	C 	0.0587	0.1346	0.066	-0.162
Mof_H 	H 	0.091	0.1848	0.0566	0.005
Mof_C 	C 	0.1162	0.0779	0.1016	-0.106
Mof_H 	H 	0.081	0.0336	0.1182	-0.026
Mof_C 	C 	0.165	0.1208	0.1497	0.526
Mof_C 	C 	0.0933	0.8109	0.03	0.25
Mof_C 	C 	0.1339	0.8439	0.9762	-0.049
Mof_H 	H 	0.1697	0.8004	0.9591	0.03
Mof_C 	C 	0.0682	0.8698	0.9326	-0.026
Mof_H 	H 	0.0215	0.829	0.9322	-0.016
Mof_C 	C 	0.1089	0.872	0.8737	0.335
Mof_C 	C 	0.3855	0.1281	0.872	0.474
Mof_C 	C 	0.4311	0.1317	0.9289	-0.171
Mof_H 	H 	0.4771	0.173	0.9264	-0.011
Mof_C 	C 	0.371	0.1559	0.9762	0.049
Mof_H 	H 	0.3355	0.2023	0.963	-0.132
Mof_C 	C 	0.4187	0.1813	0.0288	0.23
Mof_C 	C 	0.3476	0.8881	0.1498	0.65
Mof_C 	C 	0.3948	0.931	0.1015	-0.159
Mof_H 	H 	0.4248	0.979	0.1177	-0.045
Mof_C 	C 	0.4603	0.8779	0.0692	-0.237
Mof_H 	H 	0.4363	0.8223	0.0646	0.025
Mof_C 	C 	0.5471	0.8706	0.0978	0.687
Mof_C 	C 	0.5387	0.8649	0.812	0.421
Mof_C 	C 	0.5857	0.8575	0.86793	-0.075
Mof_H 	H 	0.5783	0.8012	0.8827	-0.02
Mof_C 	C 	0.6809	0.8731	0.8585	0.042
Mof_H 	H 	0.7086	0.8204	0.8491	0.005
Mof_C 	C 	0.7199	0.9052	0.9134	0.268
Mof_O 	O 	0.8149	0.1598	0.96767	-0.512
Mof_O 	O 	0.6972	0.1448	0.91897	-0.411
Mof_O 	O 	0.8	0.0791	0.83146	-0.544
Mof_H 	H 	0.8026	0.0369	0.8513	0.284
Mof_O 	O 	0.9483	0.09	0.91147	-0.471
Mof_O 	O 	0.0117	0.0765	0.81067	-0.716
Mof_O 	O 	0.9526	0.1885	0.77756	-1.686
Mof_O 	O 	0.9764	0.1897	0.14281	-1.626
Mof_O 	O 	0.9085	0.1488	0.06709	-1.164
Mof_O 	O 	0.03893	0.0934	0.01461	-0.509
Mof_O 	O 	0.175	0.0437	0.06268	-0.488
Mof_O 	O 	0.1301	0.14	0.19424	-1.221
Mof_O 	O 	0.2445	0.1305	0.14064	-0.544
Mof_O 	O 	0.121	0.8394	0.0773	-0.401
Mof_O 	O 	0.038	0.758	0.02574	-0.382
Mof_O 	O 	0.18663	0.91138	0.98917	-0.464
Mof_O 	O 	0.0337	0.94698	0.94751	-0.514
Mof_O 	O 	0.0915	0.9336	0.84252	-0.49
Mof_O 	O 	0.1557	0.8163	0.85929	-0.645
Mof_O 	O 	0.4034	0.0684	0.83955	-0.562
Mof_O 	O 	0.3347	0.1819	0.85919	-1.034
Mof_O 	O 	0.4678	0.05489	0.94258	-0.491
Mof_O 	O 	0.31731	0.08855	0.98809	-0.496
Mof_O 	O 	0.3917	0.1523	0.07617	-0.454
Mof_O 	O 	0.4793	0.2284	0.02456	-0.386
Mof_O 	O 	0.2693	0.874	0.14148	-0.508
Mof_O 	O 	0.3832	0.8703	0.19463	-1.678
Mof_O 	O 	0.3338	0.9591	0.06104	-0.484
Mof_O 	O 	0.472	0.9123	0.01418	-0.447
Mof_O 	O 	0.6107	0.8737	0.06464	-0.529
Mof_O 	O 	0.5527	0.8586	0.14975	-1.747
Mof_O 	O 	0.4876	0.9243	0.80621	-0.663
Mof_O 	O 	0.5512	0.813	0.77421	-1.2
Mof_O 	O 	0.5508	0.9126	0.90787	-0.501
Mof_O 	O 	0.6948	0.9276	0.81264	-0.467
Mof_H 	H 	0.7469	0.9346	0.8082	0.219
Mof_O 	O 	0.6983	0.8685	0.95943	-0.415
Mof_O 	O 	0.7713	0.9612	0.91181	-0.378
Mof_Li	Li	0.8315	0.1995	0.1248	3.162
Mof_Li	Li	0.0299	0.2004	0.2119	3.622
Mof_Li	Li	0.2203	0.8199	0.7915	0.798
Mof_Li	Li	0.4838	0.8086	0.207	6.44
Mof_O 	O 	0.2997	0.7217	0.8024	-5.531
Mof_Li	Li	0.8455	0.9408	0.0833	3.989
Mof_O 	O 	0.7745	0.8415	0.0979	-1.141
Mof_O 	O 	0.7573	0.0093	0.1256	-1.385
Mof_O 	O 	0.9545	0.9153	0.1186	-1.347
Mof_Li	Li	0.6549	0.0698	0.0808	1.685
Mof_O 	O 	0.7318	0.1697	0.07058	-1.995
Mof_H 	H 	0.69	0.2	0.071	0.504
Mof_H 	H 	0.753	0.175	0.0387	0.611
Mof_O 	O 	0.3905	0.7765	0.9234	0.955
Mof_N 	N 	0.9049	0.8361	0.821	0.035
Mof_O 	O 	0.944	0.7993	0.78	-0.91
Mof_O 	O 	0.8899	0.8115	0.8688	-0.309
Mof_O 	O 	0.8679	0.911	0.7906	-0.146
Mof_Li	Li	0.3596	0.6888	0.8778	6.488
Mof_O 	O 	0.2726	0.7163	0.785	4.14
Mof_O 	O 	0.7921	0.8862	0.0798	-2.192
Mof_O 	O 	0.7161	0.0162	0.1379	0.148
Mof_O 	O 	0.3804	0.7744	0.9406	-2.265
Mof_O 	O 	0.9743	0.8616	0.1444	-0.888
Mof_Cu	Cu	0.57371	0.88223	0.48876	0.86
Mof_Cu	Cu	0.38689	0.994	0.4968	0.86
Mof_Cu	Cu	0.48202	0.99043	0.37812	0.903
Mof_N 	N 	0.5945	0.1407	0.3117	0.278
Mof_O 	O 	0.5925	0.0835	0.3448	-0.22
Mof_O 	O 	0.5363	0.195	0.3082	-0.71
Mof_O 	O 	0.6542	0.1411	0.2775	-0.228
Mof_Cu	Cu	0.21609	0.90417	0.56795	0.899
Mof_Cu	Cu	0.26972	0.10534	0.56582	0.9
Mof_Cu	Cu	0.10769	0.00633	0.49339	0.864
Mof_Cu	Cu	0.01564	0.00549	0.37276	0.853
Mof_Cu	Cu	0.91738	0.10965	0.48531	0.886
Mof_C 	C 	0.7244	0.8509	0.421	0.265
Mof_C 	C 	0.6751	0.8534	0.3646	0.099
Mof_H 	H 	0.6909	0.8037	0.3428	-0.109
Mof_C 	C 	0.5799	0.8507	0.3731	-0.151
Mof_H 	H 	0.5645	0.7963	0.3885	0.038
Mof_C 	C 	0.5355	0.8617	0.3161	0.633
Mof_C 	C 	0.5234	0.8412	0.5953	0.649
Mof_C 	C 	0.4413	0.8654	0.566	-0.153
Mof_H 	H 	0.409	0.8152	0.5566	0.004
Mof_C 	C 	0.3838	0.9221	0.6016	-0.11
Mof_H 	H 	0.419	0.9664	0.6182	-0.022
Mof_C 	C 	0.335	0.8792	0.6497	0.531
Mof_C 	C 	0.4067	0.1891	0.53	0.25
Mof_C 	C 	0.3661	0.1561	0.4762	-0.051
Mof_H 	H 	0.3303	0.1996	0.4591	0.03
Mof_C 	C 	0.4318	0.1302	0.4326	-0.025
Mof_H 	H 	0.4785	0.171	0.4322	-0.021
Mof_C 	C 	0.3911	0.128	0.3737	0.332
Mof_C 	C 	0.1145	0.8719	0.372	0.476
Mof_C 	C 	0.0689	0.8683	0.4289	-0.173
Mof_H 	H 	0.0229	0.827	0.4264	-0.007
Mof_C 	C 	0.129	0.8441	0.4762	0.053
Mof_H 	H 	0.1645	0.7977	0.463	-0.133
Mof_C 	C 	0.0813	0.8187	0.5288	0.228
Mof_C 	C 	0.1524	0.1119	0.6498	0.643
Mof_C 	C 	0.1052	0.069	0.6015	-0.153
Mof_H 	H 	0.0752	0.021	0.6177	-0.05
Mof_C 	C 	0.0397	0.1221	0.5692	-0.247
Mof_H 	H 	0.0637	0.1777	0.5646	0.027
Mof_C 	C 	0.9529	0.1294	0.5978	0.697
Mof_C 	C 	0.9613	0.1351	0.312	0.439
Mof_C 	C 	0.9143	0.1425	0.36793	-0.081
Mof_H 	H 	0.9217	0.1988	0.3827	-0.017
Mof_C 	C 	0.8191	0.1269	0.3585	0.046
Mof_H 	H 	0.7914	0.1796	0.3491	0.004
Mof_C 	C 	0.7801	0.0948	0.4134	0.266
Mof_O 	O 	0.6851	0.8402	0.46767	-0.513
Mof_O 	O 	0.8028	0.8552	0.41897	-0.415
Mof_O 	O 	0.7	0.9209	0.33146	-0.543
Mof_H 	H 	0.6974	0.9631	0.3513	0.274
Mof_O 	O 	0.5517	0.91	0.41147	-0.481
Mof_O 	O 	0.4883	0.9235	0.31067	-0.702
Mof_O 	O 	0.5474	0.8115	0.27756	-1.7
Mof_O 	O 	0.5236	0.8103	0.64281	-1.638
Mof_O 	O 	0.5915	0.8512	0.56709	-1.163
Mof_O 	O 	0.46107	0.9066	0.51461	-0.506
Mof_O 	O 	0.325	0.9563	0.56268	-0.483
Mof_O 	O 	0.3699	0.86	0.69424	-1.23
Mof_O 	O 	0.2555	0.8695	0.64064	-0.543
Mof_O 	O 	0.379	0.1606	0.5773	-0.407
Mof_O 	O 	0.462	0.242	0.52574	-0.389
Mof_O 	O 	0.31337	0.08862	0.48917	-0.471
Mof_O 	O 	0.4663	0.05302	0.44751	-0.526
Mof_O 	O 	0.4085	0.0664	0.34252	-0.5
Mof_O 	O 	0.3443	0.1837	0.35929	-0.644
Mof_O 	O 	0.0966	0.9316	0.33955	-0.551
Mof_O 	O 	0.1653	0.8181	0.35919	-1.033
Mof_O 	O 	0.0322	0.94511	0.44258	-0.478
Mof_O 	O 	0.18269	0.91145	0.48809	-0.489
Mof_O 	O 	0.1083	0.8477	0.57617	-0.448
Mof_O 	O 	0.0207	0.7716	0.52456	-0.38
Mof_O 	O 	0.2307	0.126	0.64148	-0.51
Mof_O 	O 	0.1168	0.1297	0.69463	-1.665
Mof_O 	O 	0.1662	0.0409	0.56104	-0.49
Mof_O 	O 	0.028	0.0877	0.51418	-0.45
Mof_O 	O 	0.8893	0.1263	0.56464	-0.522
Mof_O 	O 	0.9473	0.1414	0.64975	-1.726
Mof_O 	O 	0.0124	0.0757	0.30621	-0.675
Mof_O 	O 	0.9488	0.187	0.27421	-1.191
Mof_O 	O 	0.9492	0.0874	0.40787	-0.491
Mof_O 	O 	0.8052	0.0724	0.31264	-0.462
Mof_H 	H 	0.7531	0.0654	0.3082	0.222
Mof_O 	O 	0.8017	0.1315	0.45943	-0.412
Mof_O 	O 	0.7287	0.0388	0.41181	-0.366
Mof_Li	Li	0.6685	0.8005	0.6248	3.153
Mof_Li	Li	0.4701	0.7996	0.7119	3.664
Mof_Li	Li	0.2797	0.1801	0.2915	0.781
Mof_Li	Li	0.0162	0.1914	0.707	6.367
Mof_O 	O 	0.2003	0.2783	0.3024	-5.531
Mof_Li	Li	0.6545	0.0592	0.5833	3.961
Mof_O 	O 	0.7255	0.1585	0.5979	-1.194
Mof_O 	O 	0.7427	0.9907	0.6256	-1.394
Mof_O 	O 	0.5455	0.0847	0.6186	-1.342
Mof_Li	Li	0.8451	0.9302	0.5808	1.644
Mof_O 	O 	0.7682	0.8303	0.57058	-1.985
Mof_H 	H 	0.81	0.8	0.571	0.502
Mof_H 	H 	0.747	0.825	0.5387	0.608
Mof_O 	O 	0.1095	0.2235	0.4234	0.954
Mof_N 	N 	0.5951	0.1639	0.321	0.034
Mof_O 	O 	0.556	0.2007	0.28	-0.917
Mof_O 	O 	0.6101	0.1885	0.3688	-0.308
Mof_O 	O 	0.6321	0.089	0.2906	-0.142
Mof_Li	Li	0.1404	0.3112	0.3778	6.485
Mof_O 	O 	0.2274	0.2837	0.285	4.144
Mof_O 	O 	0.7079	0.1138	0.5798	-2.167
Mof_O 	O 	0.7839	0.9838	0.6379	0.152
Mof_O 	O 	0.1196	0.2256	0.4406	-2.267
Mof_O 	O 	0.5257	0.1384	0.6444	-0.907
_end
