data_functionalizedCrystal
_audit_creation_method	'EQeq! by Chris Wilmer'
_symmetry_space_group_name_H-M	'P1'
_symmetry_Int_Tables_number	1
_symmetry_cell_setting	triclinic
loop_
_symmetry_equiv_pos_as_xyz
  x,y,z
_cell_length_a	10.188
_cell_length_b	10.8386
_cell_length_c	13.8721
_cell_angle_alpha	78.673
_cell_angle_beta	79.281
_cell_angle_gamma	86.126
loop_
_atom_site_label
_atom_site_type_symbol
_atom_site_fract_x
_atom_site_fract_y
_atom_site_fract_z
_atom_site_charge
Mof_C 	C 	0.5952	0.9007	0.2143	0.291
Mof_C 	C 	0.7366	0.8859	0.1674	0.017
Mof_C 	C 	0.844	0.8954	0.2143	-0.098
Mof_H 	H 	0.8271	0.9121	0.2788	0.079
Mof_C 	C 	0.973	0.881	0.1686	0.075
Mof_C 	C 	0.0004	0.8548	0.0717	-0.224
Mof_H 	H 	0.0882	0.8481	0.039	0.134
Mof_C 	C 	0.8939	0.8389	0.0249	0.216
Mof_C 	C 	0.7641	0.858	0.0709	-0.157
Mof_H 	H 	0.694	0.8524	0.0376	0.119
Mof_C 	C 	0.0921	0.8929	0.2162	0.242
Mof_C 	C 	0.0042	0.7045	0.9115	0.193
Mof_C 	C 	0.0084	0.666	0.8132	0.024
Mof_C 	C 	0.0152	0.7477	0.7225	-0.12
Mof_H 	H 	0.0136	0.8343	0.719	0.054
Mof_C 	C 	0.0244	0.6975	0.6367	0.08
Mof_H 	H 	0.0322	0.7523	0.5755	-0.034
Mof_C 	C 	0.0155	0.4968	0.7256	0.082
Mof_H 	H 	0.0132	0.4108	0.7272	-0.011
Mof_C 	C 	0.0112	0.5378	0.816	-0.12
Mof_H 	H 	0.0103	0.4807	0.8757	0.104
Mof_C 	C 	0.2725	0.6055	0.3527	0.484
Mof_C 	C 	0.3003	0.5273	0.2731	-0.142
Mof_C 	C 	0.3231	0.5835	0.1724	-0.041
Mof_H 	H 	0.3291	0.6705	0.1544	0.052
Mof_C 	C 	0.337	0.5113	0.0982	0.108
Mof_C 	C 	0.3356	0.3806	0.1266	-0.077
Mof_H 	H 	0.3468	0.3305	0.0783	0.091
Mof_C 	C 	0.3177	0.3254	0.2269	-0.079
Mof_C 	C 	0.2989	0.3982	0.2996	0.045
Mof_H 	H 	0.2852	0.3601	0.3667	0.019
Mof_C 	C 	0.3126	0.189	0.2521	0.332
Mof_C 	C 	0.3339	0.5185	0.921	0.229
Mof_C 	C 	0.3484	0.6021	0.8193	0.007
Mof_C 	C 	0.3481	0.7317	0.8004	-0.091
Mof_H 	H 	0.3434	0.7757	0.8522	0.063
Mof_C 	C 	0.355	0.7955	0.7026	0.062
Mof_H 	H 	0.3571	0.8829	0.6903	0.007
Mof_C 	C 	0.3593	0.6147	0.6427	0.063
Mof_H 	H 	0.3628	0.5743	0.589	0.015
Mof_C 	C 	0.3549	0.5426	0.7366	-0.092
Mof_H 	H 	0.3562	0.4553	0.7455	0.079
Mof_N 	N 	0.918	0.8015	0.9308	-0.238
Mof_H 	H 	0.8769	0.8413	0.8846	0.159
Mof_N 	N 	0.0227	0.5741	0.638	-0.197
Mof_N 	N 	0.3545	0.5705	0.997	-0.234
Mof_H 	H 	0.3807	0.6467	0.9826	0.139
Mof_N 	N 	0.3587	0.7388	0.6257	-0.146
Mof_O 	O 	0.5625	0.9009	0.3076	-0.444
Mof_O 	O 	0.5057	0.9145	0.1617	-0.439
Mof_O 	O 	0.0716	0.9053	0.3083	-0.452
Mof_O 	O 	0.2058	0.8882	0.166	-0.431
Mof_O 	O 	0.0764	0.6528	0.9685	-0.226
Mof_O 	O 	0.3213	0.7119	0.3335	-0.606
Mof_O 	O 	0.1996	0.5623	0.4335	-0.426
Mof_O 	O 	0.3255	0.1307	0.3391	-0.492
Mof_O 	O 	0.2959	0.1263	0.1892	-0.466
Mof_O 	O 	0.3049	0.4114	0.9288	-0.234
Mof_Sm	Sm	0.31986	0.92336	0.29666	2.224
Mof_C 	C 	0.4048	0.0993	0.7857	0.315
Mof_C 	C 	0.2634	0.1141	0.8326	-0.052
Mof_C 	C 	0.156	0.1046	0.7857	0.004
Mof_H 	H 	0.1729	0.0879	0.7212	0.038
Mof_C 	C 	0.027	0.119	0.8314	-0.09
Mof_C 	C 	0.9996	0.1452	0.9283	-0.032
Mof_H 	H 	0.9118	0.1519	0.961	0.079
Mof_C 	C 	0.1061	0.1611	0.9751	0.109
Mof_C 	C 	0.2359	0.142	0.9291	-0.08
Mof_H 	H 	0.306	0.1476	0.9624	0.095
Mof_C 	C 	0.9079	0.1071	0.7838	0.324
Mof_C 	C 	0.9958	0.2955	0.0885	0.225
Mof_C 	C 	0.9916	0.334	0.1868	0.025
Mof_C 	C 	0.9848	0.2523	0.2775	-0.112
Mof_H 	H 	0.9864	0.1657	0.281	0.063
Mof_C 	C 	0.9756	0.3025	0.3633	0.085
Mof_H 	H 	0.9678	0.2477	0.4245	-0.026
Mof_C 	C 	0.9845	0.5032	0.2744	0.088
Mof_H 	H 	0.9868	0.5892	0.2728	-0.001
Mof_C 	C 	0.9888	0.4622	0.184	-0.113
Mof_H 	H 	0.9897	0.5193	0.1243	0.112
Mof_C 	C 	0.7275	0.3945	0.6473	0.484
Mof_C 	C 	0.6997	0.4727	0.7269	-0.132
Mof_C 	C 	0.6769	0.4165	0.8276	-0.044
Mof_H 	H 	0.6709	0.3295	0.8456	0.058
Mof_C 	C 	0.663	0.4887	0.9018	0.123
Mof_C 	C 	0.6644	0.6194	0.8734	-0.08
Mof_H 	H 	0.6532	0.6695	0.9217	0.096
Mof_C 	C 	0.6823	0.6746	0.7731	-0.07
Mof_C 	C 	0.7011	0.6018	0.7004	0.044
Mof_H 	H 	0.7148	0.6399	0.6333	0.025
Mof_C 	C 	0.6874	0.811	0.7479	0.333
Mof_C 	C 	0.6661	0.4815	0.079	0.231
Mof_C 	C 	0.6516	0.3979	0.1807	0.006
Mof_C 	C 	0.6519	0.2683	0.1996	-0.091
Mof_H 	H 	0.6566	0.2243	0.1478	0.064
Mof_C 	C 	0.645	0.2045	0.2974	0.063
Mof_H 	H 	0.6429	0.1171	0.3097	0.007
Mof_C 	C 	0.6407	0.3853	0.3573	0.063
Mof_H 	H 	0.6372	0.4257	0.411	0.016
Mof_C 	C 	0.6451	0.4574	0.2634	-0.091
Mof_H 	H 	0.6438	0.5447	0.2545	0.079
Mof_N 	N 	0.082	0.1985	0.0692	-0.246
Mof_H 	H 	0.1231	0.1587	0.1154	0.15
Mof_N 	N 	0.9773	0.4259	0.362	-0.19
Mof_N 	N 	0.6455	0.4295	0.003	-0.239
Mof_H 	H 	0.6193	0.3533	0.0174	0.14
Mof_N 	N 	0.6413	0.2612	0.3743	-0.146
Mof_O 	O 	0.4375	0.0991	0.6924	-0.452
Mof_O 	O 	0.4943	0.0855	0.8383	-0.445
Mof_O 	O 	0.9284	0.0947	0.6917	-0.454
Mof_O 	O 	0.7942	0.1118	0.834	-0.448
Mof_O 	O 	0.9236	0.3472	0.0315	-0.224
Mof_O 	O 	0.6787	0.2881	0.6665	-0.605
Mof_O 	O 	0.8004	0.4377	0.5665	-0.416
Mof_O 	O 	0.6745	0.8693	0.6609	-0.487
Mof_O 	O 	0.7041	0.8737	0.8108	-0.462
Mof_O 	O 	0.6951	0.5886	0.0712	-0.235
Mof_Sm	Sm	0.68014	0.07664	0.70334	2.231
Mof_Mn	Mn	-2.64948e-17	0.5	0.5	0.717
_end
