data_functionalizedCrystal
_audit_creation_method	'EQeq! by Chris Wilmer'
_symmetry_space_group_name_H-M	'P1'
_symmetry_Int_Tables_number	1
_symmetry_cell_setting	triclinic
loop_
_symmetry_equiv_pos_as_xyz
  x,y,z
_cell_length_a	18.947
_cell_length_b	6.915
_cell_length_c	11.295
_cell_angle_alpha	90
_cell_angle_beta	90.45
_cell_angle_gamma	90
loop_
_atom_site_label
_atom_site_type_symbol
_atom_site_fract_x
_atom_site_fract_y
_atom_site_fract_z
_atom_site_charge
Mof_O 	O 	0.322	0.175	0.62	-0.828
Mof_O 	O 	0.314	0.162	0.365	-0.87
Mof_C 	C 	0.469	0.176	0.455	0.048
Mof_N 	N 	0.248	0.154	0.885	-0.105
Mof_C 	C 	0.317	0.201	0.946	0.056
Mof_C 	C 	0.186	0.142	0.966	0.08
Mof_O 	O 	0.822	0.675	0.62	-0.828
Mof_O 	O 	0.814	0.662	0.365	-0.871
Mof_C 	C 	0.969	0.676	0.455	0.033
Mof_N 	N 	0.748	0.654	0.885	-0.108
Mof_C 	C 	0.817	0.701	0.946	0.045
Mof_C 	C 	0.686	0.642	0.966	0.05
Mof_O 	O 	0.678	0.175	0.38	-0.829
Mof_O 	O 	0.686	0.162	0.635	-0.871
Mof_C 	C 	0.531	0.176	0.545	0.047
Mof_N 	N 	0.752	0.154	0.115	-0.106
Mof_C 	C 	0.683	0.201	0.054	0.055
Mof_C 	C 	0.814	0.142	0.034	0.079
Mof_O 	O 	0.178	0.675	0.38	-0.828
Mof_O 	O 	0.186	0.662	0.635	-0.871
Mof_C 	C 	0.031	0.676	0.545	0.033
Mof_N 	N 	0.252	0.654	0.115	-0.108
Mof_C 	C 	0.183	0.701	0.054	0.045
Mof_C 	C 	0.314	0.642	0.034	0.05
Mof_O 	O 	0.678	0.825	0.38	-0.851
Mof_O 	O 	0.686	0.838	0.635	-0.896
Mof_C 	C 	0.531	0.824	0.545	0.014
Mof_N 	N 	0.752	0.846	0.115	-0.119
Mof_C 	C 	0.683	0.799	0.054	0.021
Mof_C 	C 	0.814	0.858	0.034	0.024
Mof_O 	O 	0.178	0.325	0.38	-0.824
Mof_O 	O 	0.186	0.338	0.635	-0.868
Mof_C 	C 	0.031	0.324	0.545	0.052
Mof_N 	N 	0.252	0.346	0.115	-0.101
Mof_C 	C 	0.183	0.299	0.054	0.047
Mof_C 	C 	0.314	0.358	0.034	0.05
Mof_O 	O 	0.322	0.825	0.62	-0.851
Mof_O 	O 	0.314	0.838	0.365	-0.896
Mof_C 	C 	0.469	0.824	0.455	0.014
Mof_N 	N 	0.248	0.846	0.885	-0.119
Mof_C 	C 	0.317	0.799	0.946	0.021
Mof_C 	C 	0.186	0.858	0.966	0.024
Mof_O 	O 	0.822	0.325	0.62	-0.824
Mof_O 	O 	0.814	0.338	0.365	-0.868
Mof_C 	C 	0.969	0.324	0.455	0.052
Mof_N 	N 	0.748	0.346	0.885	-0.101
Mof_C 	C 	0.817	0.299	0.946	0.047
Mof_C 	C 	0.686	0.358	0.966	0.05
Mof_P 	P 	0.332	0	0.705	0.632
Mof_P 	P 	0.34	4.26467e-33	0.305	0.858
Mof_O 	O 	0.215	0	0.541	-1.381
Mof_O 	O 	0.411	2.5588e-32	0.73	-0.21
Mof_O 	O 	0.3	4.26467e-33	0.193	-0.278
Mof_N 	N 	0.474	0	0.378	-0.079
Mof_C 	C 	0.431	0	0.262	-0.043
Mof_C 	C 	0.251	0	0.794	0.057
Mof_P 	P 	0.832	0.5	0.705	0.605
Mof_P 	P 	0.84	0.5	0.305	0.822
Mof_O 	O 	0.715	0.5	0.541	-1.407
Mof_O 	O 	0.911	0.5	0.73	-0.222
Mof_O 	O 	0.8	0.5	0.193	-0.294
Mof_N 	N 	0.974	0.5	0.378	-0.096
Mof_C 	C 	0.931	0.5	0.262	-0.055
Mof_C 	C 	0.751	0.5	0.794	0.022
Mof_P 	P 	0.668	4.26467e-33	0.295	0.632
Mof_P 	P 	0.66	8.52933e-33	0.695	0.858
Mof_O 	O 	0.785	8.52933e-33	0.459	-1.381
Mof_O 	O 	0.589	4.26467e-33	0.27	-0.21
Mof_O 	O 	0.7	1.70587e-32	0.807	-0.278
Mof_N 	N 	0.526	8.52933e-33	0.622	-0.079
Mof_C 	C 	0.569	0	0.738	-0.043
Mof_C 	C 	0.749	0	0.206	0.057
Mof_P 	P 	0.168	0.5	0.295	0.605
Mof_P 	P 	0.16	0.5	0.695	0.822
Mof_O 	O 	0.285	0.5	0.459	-1.407
Mof_O 	O 	0.089	0.5	0.27	-0.222
Mof_O 	O 	0.2	0.5	0.807	-0.294
Mof_N 	N 	0.026	0.5	0.622	-0.096
Mof_C 	C 	0.069	0.5	0.738	-0.055
Mof_C 	C 	0.249	0.5	0.206	0.022
Mof_Al	Al	0.25	0.25	0.5	3.948
Mof_Al	Al	0.75	0.25	0.5	3.948
Mof_Al	Al	0.75	0.75	0.5	3.873
Mof_Al	Al	0.25	0.75	0.5	3.873
_end
