data_functionalizedCrystal
_audit_creation_method	'EQeq! by Chris Wilmer'
_symmetry_space_group_name_H-M	'P1'
_symmetry_Int_Tables_number	1
_symmetry_cell_setting	triclinic
loop_
_symmetry_equiv_pos_as_xyz
  x,y,z
_cell_length_a	12.9639
_cell_length_b	13.8034
_cell_length_c	16.8318
_cell_angle_alpha	90
_cell_angle_beta	90
_cell_angle_gamma	90
loop_
_atom_site_label
_atom_site_type_symbol
_atom_site_fract_x
_atom_site_fract_y
_atom_site_fract_z
_atom_site_charge
Mof_Zn	Zn	0.97614	0.40741	0.57603	1.185
Mof_Zn	Zn	0.92641	0.47801	0.90385	1.183
Mof_Zn	Zn	0.02386	0.09259	0.07603	1.181
Mof_Zn	Zn	0.07359	0.02199	0.40385	1.182
Mof_Zn	Zn	0.47614	0.59259	0.92397	1.186
Mof_Zn	Zn	0.42641	0.52199	0.59615	1.184
Mof_Zn	Zn	0.52386	0.90741	0.42397	1.186
Mof_Zn	Zn	0.57359	0.97801	0.09615	1.184
Mof_Zn	Zn	0.02386	0.59259	0.42397	1.186
Mof_Zn	Zn	0.07359	0.52199	0.09615	1.184
Mof_Zn	Zn	0.97614	0.90741	0.92397	1.181
Mof_Zn	Zn	0.92641	0.97801	0.59615	1.182
Mof_Zn	Zn	0.52386	0.40741	0.07603	1.186
Mof_Zn	Zn	0.57359	0.47801	0.40385	1.184
Mof_Zn	Zn	0.47614	0.09259	0.57603	1.186
Mof_Zn	Zn	0.42641	0.02199	0.90385	1.184
Mof_H 	H 	0.95	0.192	0.6446	-0.012
Mof_H 	H 	0.751	0.354	0.5034	-0.032
Mof_H 	H 	0.061	0.243	0.369	0.153
Mof_H 	H 	0.058	0.33	0.4105	0.141
Mof_H 	H 	0.726	0.618	0.324	0.115
Mof_H 	H 	0.838	0.66	0.346	0.106
Mof_H 	H 	0.05	0.308	0.1446	-0.014
Mof_H 	H 	0.249	0.146	0.0034	-0.037
Mof_H 	H 	0.939	0.257	0.869	0.155
Mof_H 	H 	0.942	0.17	0.9105	0.143
Mof_H 	H 	0.274	0.882	0.824	0.116
Mof_H 	H 	0.162	0.84	0.846	0.109
Mof_H 	H 	0.45	0.808	0.8554	-0.012
Mof_H 	H 	0.251	0.646	0.9966	-0.029
Mof_H 	H 	0.561	0.757	0.131	0.155
Mof_H 	H 	0.558	0.67	0.0895	0.143
Mof_H 	H 	0.226	0.382	0.176	0.115
Mof_H 	H 	0.338	0.34	0.154	0.106
Mof_H 	H 	0.55	0.692	0.3554	-0.012
Mof_H 	H 	0.749	0.854	0.4966	-0.033
Mof_H 	H 	0.439	0.743	0.631	0.155
Mof_H 	H 	0.442	0.83	0.5895	0.143
Mof_H 	H 	0.774	0.118	0.676	0.116
Mof_H 	H 	0.662	0.16	0.654	0.107
Mof_H 	H 	0.05	0.808	0.3554	-0.012
Mof_H 	H 	0.249	0.646	0.4966	-0.032
Mof_H 	H 	0.939	0.757	0.631	0.153
Mof_H 	H 	0.942	0.67	0.5895	0.141
Mof_H 	H 	0.274	0.382	0.676	0.115
Mof_H 	H 	0.162	0.34	0.654	0.106
Mof_H 	H 	0.95	0.692	0.8554	-0.014
Mof_H 	H 	0.751	0.854	0.9966	-0.037
Mof_H 	H 	0.061	0.743	0.131	0.155
Mof_H 	H 	0.058	0.83	0.0895	0.143
Mof_H 	H 	0.726	0.118	0.176	0.116
Mof_H 	H 	0.838	0.16	0.154	0.109
Mof_H 	H 	0.55	0.192	0.1446	-0.012
Mof_H 	H 	0.749	0.354	0.0034	-0.029
Mof_H 	H 	0.439	0.243	0.869	0.155
Mof_H 	H 	0.442	0.33	0.9105	0.143
Mof_H 	H 	0.774	0.618	0.824	0.115
Mof_H 	H 	0.662	0.66	0.846	0.106
Mof_H 	H 	0.45	0.308	0.6446	-0.012
Mof_H 	H 	0.251	0.146	0.5034	-0.033
Mof_H 	H 	0.561	0.257	0.369	0.155
Mof_H 	H 	0.558	0.17	0.4105	0.143
Mof_H 	H 	0.226	0.882	0.324	0.116
Mof_H 	H 	0.338	0.84	0.346	0.107
Mof_C 	C 	0.9722	0.40972	0.74606	0.241
Mof_C 	C 	0.9227	0.50699	0.72252	0.205
Mof_C 	C 	0.0279	0.22036	0.47993	0.187
Mof_C 	C 	0.9711	0.1882	0.59413	0.1
Mof_C 	C 	0.7979	0.54791	0.41063	0.172
Mof_C 	C 	0.7779	0.41895	0.47697	0.084
Mof_C 	C 	0.0278	0.09028	0.24606	0.217
Mof_C 	C 	0.0773	0.99301	0.22252	0.219
Mof_C 	C 	0.9721	0.27964	0.97993	0.195
Mof_C 	C 	0.0289	0.3118	0.09413	0.097
Mof_C 	C 	0.2021	0.95209	0.91063	0.176
Mof_C 	C 	0.2221	0.08105	0.97697	0.088
Mof_C 	C 	0.4722	0.59028	0.75394	0.241
Mof_C 	C 	0.4227	0.49301	0.77748	0.205
Mof_C 	C 	0.5279	0.77964	0.02007	0.192
Mof_C 	C 	0.4711	0.8118	0.90587	0.099
Mof_C 	C 	0.2979	0.45209	0.08937	0.171
Mof_C 	C 	0.2779	0.58105	0.02303	0.08
Mof_C 	C 	0.5278	0.90972	0.25394	0.24
Mof_C 	C 	0.5773	0.00699	0.27748	0.206
Mof_C 	C 	0.4721	0.72036	0.52007	0.192
Mof_C 	C 	0.5289	0.6882	0.40587	0.099
Mof_C 	C 	0.7021	0.04791	0.58937	0.176
Mof_C 	C 	0.7221	0.91895	0.52303	0.083
Mof_C 	C 	0.0278	0.59028	0.25394	0.241
Mof_C 	C 	0.0773	0.49301	0.27748	0.205
Mof_C 	C 	0.9721	0.77964	0.52007	0.187
Mof_C 	C 	0.0289	0.8118	0.40587	0.1
Mof_C 	C 	0.2021	0.45209	0.58937	0.172
Mof_C 	C 	0.2221	0.58105	0.52303	0.084
Mof_C 	C 	0.9722	0.90972	0.75394	0.217
Mof_C 	C 	0.9227	0.00699	0.77748	0.219
Mof_C 	C 	0.0279	0.72036	0.02007	0.195
Mof_C 	C 	0.9711	0.6882	0.90587	0.097
Mof_C 	C 	0.7979	0.04791	0.08937	0.176
Mof_C 	C 	0.7779	0.91895	0.02303	0.088
Mof_C 	C 	0.5278	0.40972	0.24606	0.241
Mof_C 	C 	0.5773	0.50699	0.22252	0.205
Mof_C 	C 	0.4721	0.22036	0.97993	0.192
Mof_C 	C 	0.5289	0.1882	0.09413	0.099
Mof_C 	C 	0.7021	0.54791	0.91063	0.171
Mof_C 	C 	0.7221	0.41895	0.97697	0.08
Mof_C 	C 	0.4722	0.09028	0.74606	0.24
Mof_C 	C 	0.4227	0.99301	0.72252	0.206
Mof_C 	C 	0.5279	0.27964	0.47993	0.192
Mof_C 	C 	0.4711	0.3118	0.59413	0.099
Mof_C 	C 	0.2979	0.95209	0.41063	0.176
Mof_C 	C 	0.2779	0.08105	0.47697	0.083
Mof_N 	N 	0.99502	0.26341	0.54715	-0.288
Mof_N 	N 	0.98706	0.10405	0.56052	-0.259
Mof_N 	N 	0.02496	0.12395	0.48503	-0.267
Mof_N 	N 	0.0665	0.26911	0.41664	-0.332
Mof_N 	N 	0.87291	0.44663	0.49093	-0.253
Mof_N 	N 	0.88679	0.53165	0.44774	-0.27
Mof_N 	N 	0.72658	0.47859	0.42713	-0.296
Mof_N 	N 	0.779	0.6266	0.3644	-0.27
Mof_N 	N 	0.00498	0.23659	0.04715	-0.296
Mof_N 	N 	0.01294	0.39595	0.06052	-0.266
Mof_N 	N 	0.97504	0.37605	0.98503	-0.264
Mof_N 	N 	0.9335	0.23089	0.91664	-0.334
Mof_N 	N 	0.12709	0.05337	0.99093	-0.255
Mof_N 	N 	0.11321	0.96835	0.94774	-0.265
Mof_N 	N 	0.27342	0.02141	0.92713	-0.3
Mof_N 	N 	0.221	0.8734	0.8644	-0.271
Mof_N 	N 	0.49502	0.73659	0.95285	-0.291
Mof_N 	N 	0.48706	0.89595	0.93948	-0.265
Mof_N 	N 	0.52496	0.87605	0.01497	-0.264
Mof_N 	N 	0.5665	0.73089	0.08336	-0.333
Mof_N 	N 	0.37291	0.55337	0.00907	-0.253
Mof_N 	N 	0.38679	0.46835	0.05226	-0.27
Mof_N 	N 	0.22658	0.52141	0.07287	-0.296
Mof_N 	N 	0.279	0.3734	0.1356	-0.27
Mof_N 	N 	0.50498	0.76341	0.45285	-0.291
Mof_N 	N 	0.51294	0.60405	0.43948	-0.264
Mof_N 	N 	0.47504	0.62395	0.51497	-0.264
Mof_N 	N 	0.4335	0.76911	0.58336	-0.333
Mof_N 	N 	0.62709	0.94663	0.50907	-0.254
Mof_N 	N 	0.61321	0.03165	0.55226	-0.269
Mof_N 	N 	0.77342	0.97859	0.57287	-0.299
Mof_N 	N 	0.721	0.1266	0.6356	-0.271
Mof_N 	N 	0.00498	0.73659	0.45285	-0.288
Mof_N 	N 	0.01294	0.89595	0.43948	-0.259
Mof_N 	N 	0.97504	0.87605	0.51497	-0.267
Mof_N 	N 	0.9335	0.73089	0.58336	-0.332
Mof_N 	N 	0.12709	0.55337	0.50907	-0.253
Mof_N 	N 	0.11321	0.46835	0.55226	-0.27
Mof_N 	N 	0.27342	0.52141	0.57287	-0.296
Mof_N 	N 	0.221	0.3734	0.6356	-0.27
Mof_N 	N 	0.99502	0.76341	0.95285	-0.296
Mof_N 	N 	0.98706	0.60405	0.93948	-0.266
Mof_N 	N 	0.02496	0.62395	0.01497	-0.264
Mof_N 	N 	0.0665	0.76911	0.08336	-0.334
Mof_N 	N 	0.87291	0.94663	0.00907	-0.255
Mof_N 	N 	0.88679	0.03165	0.05226	-0.265
Mof_N 	N 	0.72658	0.97859	0.07287	-0.3
Mof_N 	N 	0.779	0.1266	0.1356	-0.271
Mof_N 	N 	0.50498	0.26341	0.04715	-0.291
Mof_N 	N 	0.51294	0.10405	0.06052	-0.265
Mof_N 	N 	0.47504	0.12395	0.98503	-0.264
Mof_N 	N 	0.4335	0.26911	0.91664	-0.333
Mof_N 	N 	0.62709	0.44663	0.99093	-0.253
Mof_N 	N 	0.61321	0.53165	0.94774	-0.27
Mof_N 	N 	0.77342	0.47859	0.92713	-0.296
Mof_N 	N 	0.721	0.6266	0.8644	-0.27
Mof_N 	N 	0.49502	0.23659	0.54715	-0.291
Mof_N 	N 	0.48706	0.39595	0.56052	-0.264
Mof_N 	N 	0.52496	0.37605	0.48503	-0.264
Mof_N 	N 	0.5665	0.23089	0.41664	-0.333
Mof_N 	N 	0.37291	0.05337	0.49093	-0.254
Mof_N 	N 	0.38679	0.96835	0.44774	-0.269
Mof_N 	N 	0.22658	0.02141	0.42713	-0.299
Mof_N 	N 	0.279	0.8734	0.3644	-0.271
Mof_O 	O 	0.00069	0.35518	0.69134	-0.408
Mof_O 	O 	0.91606	0.52312	0.64959	-0.4
Mof_O 	O 	0.89425	0.55902	0.77868	-0.349
Mof_O 	O 	0.98248	0.39139	0.81847	-0.439
Mof_O 	O 	0.99931	0.14482	0.19134	-0.391
Mof_O 	O 	0.08394	0.97688	0.14959	-0.401
Mof_O 	O 	0.10575	0.94098	0.27868	-0.35
Mof_O 	O 	0.01752	0.10861	0.31847	-0.436
Mof_O 	O 	0.50069	0.64482	0.80866	-0.408
Mof_O 	O 	0.41606	0.47688	0.85041	-0.399
Mof_O 	O 	0.39425	0.44098	0.72132	-0.349
Mof_O 	O 	0.48248	0.60861	0.68153	-0.439
Mof_O 	O 	0.49931	0.85518	0.30866	-0.408
Mof_O 	O 	0.58394	0.02312	0.35041	-0.398
Mof_O 	O 	0.60575	0.05902	0.22132	-0.348
Mof_O 	O 	0.51752	0.89139	0.18153	-0.438
Mof_O 	O 	0.99931	0.64482	0.30866	-0.408
Mof_O 	O 	0.08394	0.47688	0.35041	-0.4
Mof_O 	O 	0.10575	0.44098	0.22132	-0.349
Mof_O 	O 	0.01752	0.60861	0.18153	-0.439
Mof_O 	O 	0.00069	0.85518	0.80866	-0.391
Mof_O 	O 	0.91606	0.02312	0.85041	-0.401
Mof_O 	O 	0.89425	0.05902	0.72132	-0.35
Mof_O 	O 	0.98248	0.89139	0.68153	-0.436
Mof_O 	O 	0.49931	0.35518	0.19134	-0.408
Mof_O 	O 	0.58394	0.52312	0.14959	-0.399
Mof_O 	O 	0.60575	0.55902	0.27868	-0.349
Mof_O 	O 	0.51752	0.39139	0.31847	-0.439
Mof_O 	O 	0.50069	0.14482	0.69134	-0.408
Mof_O 	O 	0.41606	0.97688	0.64959	-0.398
Mof_O 	O 	0.39425	0.94098	0.77868	-0.348
Mof_O 	O 	0.48248	0.10861	0.81847	-0.438
_end
