data_functionalizedCrystal
_audit_creation_method	'EQeq! by Chris Wilmer'
_symmetry_space_group_name_H-M	'P1'
_symmetry_Int_Tables_number	1
_symmetry_cell_setting	triclinic
loop_
_symmetry_equiv_pos_as_xyz
  x,y,z
_cell_length_a	12.8328
_cell_length_b	16.1439
_cell_length_c	16.2738
_cell_angle_alpha	84.645
_cell_angle_beta	79.837
_cell_angle_gamma	69.372
loop_
_atom_site_label
_atom_site_type_symbol
_atom_site_fract_x
_atom_site_fract_y
_atom_site_fract_z
_atom_site_charge
Mof_Ni	Ni	0.43663	0.28215	0.95583	1.137
Mof_Ni	Ni	0.50235	0.73982	0.44236	1.113
Mof_Ni	Ni	0.5053	0.76551	0.24832	1.14
Mof_O 	O 	0.5821	0.8297	0.4103	-0.419
Mof_O 	O 	0.5913	0.84216	0.27052	-0.411
Mof_O 	O 	0.7066	0.0716	0.5362	-0.279
Mof_O 	O 	0.5923	0.1775	0.46301	-0.4
Mof_O 	O 	0.4224	0.68497	0.22639	-0.409
Mof_O 	O 	0.4899	0.6308	0.09735	-0.4
Mof_O 	O 	0.4536	0.31135	0.07724	-0.337
Mof_O 	O 	0.3068	0.3919	0.01977	-0.34
Mof_O 	O 	0.3619	0.19153	0.0076	-0.378
Mof_O 	O 	0.2225	0.2271	0.932	-0.306
Mof_O 	O 	0.415	0.87165	0.18195	-0.418
Mof_O 	O 	0.4157	0.81917	0.06015	-0.414
Mof_O 	O 	0.5896	0.66979	0.33379	-0.502
Mof_O 	O 	0.6784	0.56323	0.24337	-0.298
Mof_O 	O 	0.7269	0.2916	0.57965	-0.31
Mof_O 	O 	0.5742	0.35012	0.51682	-0.407
Mof_O 	O 	0.3907	0.80092	0.35697	-0.672
Mof_H 	H 	0.3309	0.7763	0.3613	0.26
Mof_H 	H 	0.3585	0.8646	0.3625	0.245
Mof_O 	O 	0.3684	0.29084	0.84911	-0.687
Mof_H 	H 	0.3296	0.3525	0.8349	0.251
Mof_H 	H 	0.3139	0.2605	0.8582	0.251
Mof_C 	C 	0.61	0.8602	0.3386	0.382
Mof_C 	C 	0.6702	0.9256	0.3343	-0.127
Mof_C 	C 	0.7496	0.9296	0.2672	0.067
Mof_H 	H 	0.7658	0.8923	0.223	0.027
Mof_C 	C 	0.8062	0.9892	0.2649	-0.134
Mof_H 	H 	0.8615	0.9894	0.2196	0.082
Mof_C 	C 	0.7834	0.0481	0.3276	0.085
Mof_C 	C 	0.7012	0.0443	0.3969	-0.123
Mof_C 	C 	0.6474	0.9833	0.3993	0.069
Mof_H 	H 	0.5944	0.9807	0.4455	0.03
Mof_C 	C 	0.6653	0.1042	0.4696	0.357
Mof_C 	C 	0.8059	0.196	0.3404	-0.044
Mof_H 	H 	0.7303	0.2204	0.3633	0.067
Mof_C 	C 	0.8504	0.1078	0.3212	0.004
Mof_C 	C 	0.9637	0.0752	0.2897	-0.047
Mof_H 	H 	0.9972	0.0155	0.2777	0.054
Mof_C 	C 	0.0287	0.1291	0.2755	-0.047
Mof_H 	H 	0.1049	0.1045	0.2542	0.055
Mof_C 	C 	0.984	0.2185	0.292	0.007
Mof_C 	C 	0.8728	0.2486	0.3262	-0.048
Mof_H 	H 	0.8401	0.3076	0.3407	0.057
Mof_C 	C 	0.0265	0.3499	0.3112	-0.025
Mof_H 	H 	0.9622	0.3671	0.3512	0.042
Mof_C 	C 	0.0918	0.4035	0.2916	-0.039
Mof_H 	H 	0.0672	0.4566	0.3191	0.042
Mof_C 	C 	0.2306	0.298	0.2097	-0.038
Mof_H 	H 	0.3033	0.2769	0.1802	0.063
Mof_C 	C 	0.1672	0.2414	0.226	-0.042
Mof_H 	H 	0.196	0.1839	0.2069	0.054
Mof_C 	C 	0.0546	0.2758	0.2739	0.036
Mof_C 	C 	0.1874	0.3856	0.2366	0.012
Mof_C 	C 	0.2537	0.4472	0.218	0.056
Mof_C 	C 	0.2384	0.5118	0.2748	-0.109
Mof_H 	H 	0.1871	0.5155	0.3237	0.068
Mof_C 	C 	0.2966	0.57	0.2609	0.042
Mof_H 	H 	0.2851	0.6115	0.3007	0.039
Mof_C 	C 	0.3723	0.5675	0.1884	-0.106
Mof_C 	C 	0.3907	0.5032	0.1321	0.048
Mof_H 	H 	0.4428	0.4998	0.0838	0.047
Mof_C 	C 	0.3334	0.4433	0.1456	-0.092
Mof_C 	C 	0.434	0.6326	0.1695	0.379
Mof_C 	C 	0.3651	0.3765	0.0783	0.298
Mof_C 	C 	0.2767	0.1819	0.9865	0.342
Mof_C 	C 	0.2414	0.1071	0.0284	-0.122
Mof_C 	C 	0.1307	0.1127	0.0377	0.058
Mof_H 	H 	0.0777	0.1631	0.0181	0.022
Mof_C 	C 	0.0971	0.0435	0.0762	-0.138
Mof_H 	H 	0.0214	0.0494	0.0835	0.081
Mof_C 	C 	0.1742	0.9658	0.1041	0.09
Mof_C 	C 	0.2885	0.9596	0.0933	-0.14
Mof_C 	C 	0.319	0.0307	0.0564	0.076
Mof_H 	H 	0.394	0.0267	0.0505	0.03
Mof_C 	C 	0.3803	0.8756	0.1139	0.402
Mof_C 	C 	0.1321	0.8957	0.1454	-0.023
Mof_C 	C 	0.1624	0.8539	0.2202	-0.017
Mof_H 	H 	0.2164	0.8664	0.2432	0.045
Mof_C 	C 	0.1148	0.7941	0.2617	-0.081
Mof_H 	H 	0.1366	0.7676	0.3121	0.075
Mof_C 	C 	0.0347	0.773	0.2289	0.038
Mof_C 	C 	0.0067	0.8121	0.1517	-0.079
Mof_H 	H 	0.9562	0.797	0.1269	0.07
Mof_C 	C 	0.0537	0.8727	0.1121	-0.02
Mof_H 	H 	0.0323	0.8992	0.0616	0.04
Mof_C 	C 	0.9793	0.7122	0.2732	0.018
Mof_C 	C 	0.95	0.7115	0.3594	-0.066
Mof_H 	H 	0.9672	0.7494	0.39	0.06
Mof_C 	C 	0.8956	0.6555	0.4012	-0.036
Mof_H 	H 	0.877	0.6567	0.4591	0.038
Mof_C 	C 	0.8688	0.5983	0.3581	-0.021
Mof_C 	C 	0.8968	0.5976	0.2715	-0.038
Mof_H 	H 	0.8796	0.5593	0.2412	0.059
Mof_C 	C 	0.9508	0.6545	0.2306	-0.061
Mof_H 	H 	0.9683	0.654	0.1726	0.065
Mof_C 	C 	0.8129	0.5365	0.4032	0.083
Mof_C 	C 	0.8604	0.4801	0.4664	-0.149
Mof_H 	H 	0.9258	0.4828	0.4813	0.074
Mof_C 	C 	0.8141	0.42	0.508	0.061
Mof_H 	H 	0.8491	0.3824	0.5495	0.018
Mof_C 	C 	0.7159	0.4152	0.4885	-0.135
Mof_C 	C 	0.6648	0.4732	0.4266	0.075
Mof_H 	H 	0.5975	0.472	0.4138	0.026
Mof_C 	C 	0.7127	0.5325	0.3838	-0.164
Mof_C 	C 	0.6559	0.5921	0.316	0.375
Mof_C 	C 	0.6686	0.3473	0.5319	0.36
Mof_C 	C 	0.0873	0.3092	0.3356	-0.057
Mof_H 	H 	0.0637	0.2967	0.3912	0.05
Mof_C 	C 	0.1547	0.3613	0.3167	-0.017
Mof_H 	H 	0.1784	0.3803	0.36	0.031
Mof_C 	C 	0.1388	0.3638	0.175	-0.037
Mof_H 	H 	0.1483	0.3873	0.121	0.065
Mof_C 	C 	0.0773	0.3084	0.1934	-0.045
Mof_H 	H 	0.0499	0.2921	0.1506	0.056
Mof_Ni	Ni	0.56337	0.71785	0.04417	1.138
Mof_Ni	Ni	0.49765	0.26018	0.55764	1.114
Mof_Ni	Ni	0.4947	0.23449	0.75168	1.141
Mof_O 	O 	0.4179	0.1703	0.5897	-0.418
Mof_O 	O 	0.4087	0.15784	0.72948	-0.41
Mof_O 	O 	0.2934	0.9284	0.4638	-0.278
Mof_O 	O 	0.4077	0.8225	0.53699	-0.399
Mof_O 	O 	0.5776	0.31503	0.77361	-0.408
Mof_O 	O 	0.5101	0.3692	0.90265	-0.399
Mof_O 	O 	0.5464	0.68865	0.92276	-0.336
Mof_O 	O 	0.6932	0.6081	0.98023	-0.34
Mof_O 	O 	0.6381	0.80847	0.9924	-0.378
Mof_O 	O 	0.7775	0.7729	0.068	-0.306
Mof_O 	O 	0.585	0.12835	0.81805	-0.418
Mof_O 	O 	0.5843	0.18083	0.93985	-0.414
Mof_O 	O 	0.4104	0.33021	0.66621	-0.502
Mof_O 	O 	0.3216	0.43677	0.75663	-0.298
Mof_O 	O 	0.2731	0.7084	0.42035	-0.31
Mof_O 	O 	0.4258	0.64988	0.48318	-0.407
Mof_O 	O 	0.6093	0.19908	0.64303	-0.672
Mof_H 	H 	0.6691	0.2237	0.6387	0.26
Mof_H 	H 	0.6415	0.1354	0.6375	0.245
Mof_O 	O 	0.6316	0.70916	0.15089	-0.687
Mof_H 	H 	0.6704	0.6475	0.1651	0.251
Mof_H 	H 	0.6861	0.7395	0.1418	0.251
Mof_C 	C 	0.39	0.1398	0.6614	0.382
Mof_C 	C 	0.3298	0.0744	0.6657	-0.127
Mof_C 	C 	0.2504	0.0704	0.7328	0.067
Mof_H 	H 	0.2342	0.1077	0.777	0.027
Mof_C 	C 	0.1938	0.0108	0.7351	-0.134
Mof_H 	H 	0.1385	0.0106	0.7804	0.082
Mof_C 	C 	0.2166	0.9519	0.6724	0.085
Mof_C 	C 	0.2988	0.9557	0.6031	-0.123
Mof_C 	C 	0.3526	0.0167	0.6007	0.069
Mof_H 	H 	0.4056	0.0193	0.5545	0.03
Mof_C 	C 	0.3347	0.8958	0.5304	0.357
Mof_C 	C 	0.1941	0.804	0.6596	-0.044
Mof_H 	H 	0.2697	0.7796	0.6367	0.067
Mof_C 	C 	0.1496	0.8922	0.6788	0.004
Mof_C 	C 	0.0363	0.9248	0.7103	-0.047
Mof_H 	H 	0.0028	0.9845	0.7223	0.054
Mof_C 	C 	0.9713	0.8709	0.7245	-0.047
Mof_H 	H 	0.8951	0.8955	0.7458	0.055
Mof_C 	C 	0.016	0.7815	0.708	0.007
Mof_C 	C 	0.1272	0.7514	0.6738	-0.048
Mof_H 	H 	0.1599	0.6924	0.6593	0.057
Mof_C 	C 	0.9735	0.6501	0.6888	-0.025
Mof_H 	H 	0.0378	0.6329	0.6488	0.042
Mof_C 	C 	0.9082	0.5965	0.7084	-0.039
Mof_H 	H 	0.9328	0.5434	0.6809	0.042
Mof_C 	C 	0.7694	0.702	0.7903	-0.038
Mof_H 	H 	0.6967	0.7231	0.8198	0.063
Mof_C 	C 	0.8328	0.7586	0.774	-0.042
Mof_H 	H 	0.804	0.8161	0.7931	0.054
Mof_C 	C 	0.9454	0.7242	0.7261	0.036
Mof_C 	C 	0.8126	0.6144	0.7634	0.012
Mof_C 	C 	0.7463	0.5528	0.782	0.056
Mof_C 	C 	0.7616	0.4882	0.7252	-0.109
Mof_H 	H 	0.8129	0.4845	0.6763	0.068
Mof_C 	C 	0.7034	0.43	0.7391	0.042
Mof_H 	H 	0.7149	0.3885	0.6993	0.039
Mof_C 	C 	0.6277	0.4325	0.8116	-0.106
Mof_C 	C 	0.6093	0.4968	0.8679	0.048
Mof_H 	H 	0.5572	0.5002	0.9162	0.047
Mof_C 	C 	0.6666	0.5567	0.8544	-0.092
Mof_C 	C 	0.566	0.3674	0.8305	0.379
Mof_C 	C 	0.6349	0.6235	0.9217	0.298
Mof_C 	C 	0.7233	0.8181	0.0135	0.342
Mof_C 	C 	0.7586	0.8929	0.9716	-0.122
Mof_C 	C 	0.8693	0.8873	0.9623	0.058
Mof_H 	H 	0.9223	0.8369	0.9819	0.022
Mof_C 	C 	0.9029	0.9565	0.9238	-0.138
Mof_H 	H 	0.9786	0.9506	0.9165	0.081
Mof_C 	C 	0.8258	0.0342	0.8959	0.09
Mof_C 	C 	0.7115	0.0404	0.9067	-0.14
Mof_C 	C 	0.681	0.9693	0.9436	0.076
Mof_H 	H 	0.606	0.9733	0.9495	0.03
Mof_C 	C 	0.6197	0.1244	0.8861	0.402
Mof_C 	C 	0.8679	0.1043	0.8546	-0.023
Mof_C 	C 	0.8376	0.1461	0.7798	-0.017
Mof_H 	H 	0.7836	0.1336	0.7568	0.045
Mof_C 	C 	0.8852	0.2059	0.7383	-0.081
Mof_H 	H 	0.8634	0.2324	0.6879	0.075
Mof_C 	C 	0.9653	0.227	0.7711	0.038
Mof_C 	C 	0.9933	0.1879	0.8483	-0.079
Mof_H 	H 	0.0438	0.203	0.8731	0.07
Mof_C 	C 	0.9463	0.1273	0.8879	-0.02
Mof_H 	H 	0.9677	0.1008	0.9384	0.04
Mof_C 	C 	0.0207	0.2878	0.7268	0.018
Mof_C 	C 	0.05	0.2885	0.6406	-0.066
Mof_H 	H 	0.0328	0.2506	0.61	0.06
Mof_C 	C 	0.1044	0.3445	0.5988	-0.036
Mof_H 	H 	0.123	0.3433	0.5409	0.038
Mof_C 	C 	0.1312	0.4017	0.6419	-0.021
Mof_C 	C 	0.1032	0.4024	0.7285	-0.038
Mof_H 	H 	0.1204	0.4407	0.7588	0.059
Mof_C 	C 	0.0492	0.3455	0.7694	-0.061
Mof_H 	H 	0.0317	0.346	0.8274	0.065
Mof_C 	C 	0.1871	0.4635	0.5968	0.083
Mof_C 	C 	0.1396	0.5199	0.5336	-0.149
Mof_H 	H 	0.0742	0.5172	0.5187	0.074
Mof_C 	C 	0.1859	0.58	0.492	0.061
Mof_H 	H 	0.1509	0.6176	0.4505	0.018
Mof_C 	C 	0.2841	0.5848	0.5115	-0.135
Mof_C 	C 	0.3352	0.5268	0.5734	0.075
Mof_H 	H 	0.4025	0.528	0.5862	0.026
Mof_C 	C 	0.2873	0.4675	0.6162	-0.164
Mof_C 	C 	0.3441	0.4079	0.684	0.375
Mof_C 	C 	0.3314	0.6527	0.4681	0.36
Mof_C 	C 	0.9127	0.6908	0.6644	-0.057
Mof_H 	H 	0.9363	0.7033	0.6088	0.05
Mof_C 	C 	0.8453	0.6387	0.6833	-0.017
Mof_H 	H 	0.8216	0.6197	0.64	0.031
Mof_C 	C 	0.8612	0.6362	0.825	-0.037
Mof_H 	H 	0.8517	0.6127	0.879	0.065
Mof_C 	C 	0.9227	0.6916	0.8066	-0.045
Mof_H 	H 	0.9501	0.7079	0.8494	0.056
_end
