data_functionalizedCrystal
_audit_creation_method	'EQeq! by Chris Wilmer'
_symmetry_space_group_name_H-M	'P1'
_symmetry_Int_Tables_number	1
_symmetry_cell_setting	triclinic
loop_
_symmetry_equiv_pos_as_xyz
  x,y,z
_cell_length_a	10.6414
_cell_length_b	12.3868
_cell_length_c	18.8433
_cell_angle_alpha	90
_cell_angle_beta	90
_cell_angle_gamma	90
loop_
_atom_site_label
_atom_site_type_symbol
_atom_site_fract_x
_atom_site_fract_y
_atom_site_fract_z
_atom_site_charge
Mof_Pr	Pr	0.2617	0.5	-0	2.63
Mof_Pr	Pr	0.7383	0	0.5	2.8
Mof_Zn	Zn	0.00194	0.66287	0.71342	1.198
Mof_Zn	Zn	0.50139	0.87553	0.80317	1.208
Mof_Zn	Zn	0.00194	0.33713	0.28658	1.197
Mof_Zn	Zn	0.50139	0.12447	0.19683	1.186
Mof_Zn	Zn	0.99806	0.83713	0.21342	1.201
Mof_Zn	Zn	0.49861	0.62447	0.30317	1.198
Mof_Zn	Zn	0.99806	0.16287	0.78658	1.196
Mof_Zn	Zn	0.49861	0.37553	0.69683	1.197
Mof_H 	H 	0.2601	0.823	0.6927	-0.007
Mof_H 	H 	0.2405	0.2139	0.6759	-0.029
Mof_H 	H 	0.5202	0.9492	0.9587	0.163
Mof_H 	H 	0.4742	0.1404	0.7964	-0.014
Mof_H 	H 	0.4748	0.2544	0.9027	0.066
Mof_H 	H 	0.8244	0.5126	0.6251	-0.014
Mof_H 	H 	0.1085	0.3363	0.573	0.048
Mof_H 	H 	0.1887	0.4774	0.6487	-0.008
Mof_H 	H 	0.2601	0.177	0.3073	-0.025
Mof_H 	H 	0.2405	0.7861	0.3241	-0.014
Mof_H 	H 	0.5202	0.0508	0.0413	-0.111
Mof_H 	H 	0.4742	0.8596	0.2036	0.011
Mof_H 	H 	0.4748	0.7456	0.0973	0.03
Mof_H 	H 	0.8244	0.4874	0.3749	-0.015
Mof_H 	H 	0.1085	0.6637	0.427	0.054
Mof_H 	H 	0.1887	0.5226	0.3513	-0.008
Mof_H 	H 	0.7399	0.677	0.1927	-0.024
Mof_H 	H 	0.7595	0.2861	0.1759	-0.03
Mof_H 	H 	0.4798	0.5508	0.4587	0.028
Mof_H 	H 	0.5258	0.3596	0.2964	-0.002
Mof_H 	H 	0.5252	0.2456	0.4027	0.044
Mof_H 	H 	0.1756	0.9874	0.1251	0.099
Mof_H 	H 	0.8915	0.1637	0.073	0.007
Mof_H 	H 	0.8113	0.0226	0.1487	-0.002
Mof_H 	H 	0.7399	0.323	0.8073	-0.008
Mof_H 	H 	0.7595	0.7139	0.8241	-0.012
Mof_H 	H 	0.4798	0.4492	0.5413	0.028
Mof_H 	H 	0.5258	0.6404	0.7036	-0.001
Mof_H 	H 	0.5252	0.7544	0.5973	0.048
Mof_H 	H 	0.1756	0.0126	0.8749	-0.123
Mof_H 	H 	0.8915	0.8363	0.927	0.095
Mof_H 	H 	0.8113	0.9774	0.8513	-0.014
Mof_C 	C 	0.3893	0.7213	0.9032	0.394
Mof_C 	C 	0.3059	0.7247	0.839	-0.044
Mof_C 	C 	0.2572	0.7848	0.7351	0.12
Mof_C 	C 	0.1972	0.6762	0.8181	-0.074
Mof_C 	C 	0.1037	0.6047	0.8512	0.398
Mof_C 	C 	0.1175	0.3076	0.887	0.382
Mof_C 	C 	0.1979	0.3047	0.8235	-0.058
Mof_C 	C 	0.245	0.2505	0.7189	0.126
Mof_C 	C 	0.3095	0.3535	0.8031	-0.08
Mof_C 	C 	0.4049	0.4243	0.8387	0.41
Mof_C 	C 	0.5088	0.0109	0.9313	-0.075
Mof_C 	C 	0.484	0.1148	0.8425	0.033
Mof_C 	C 	0.484	0.1797	0.9014	-0.009
Mof_C 	C 	0.905	0.485	0.6209	0.081
Mof_C 	C 	0.059	0.39	0.593	-0.02
Mof_C 	C 	0.105	0.4685	0.6353	0.031
Mof_C 	C 	0.3893	0.2787	0.0968	0.405
Mof_C 	C 	0.3059	0.2753	0.161	-0.068
Mof_C 	C 	0.2572	0.2152	0.2649	0.112
Mof_C 	C 	0.1972	0.3238	0.1819	-0.082
Mof_C 	C 	0.1037	0.3953	0.1488	0.408
Mof_C 	C 	0.1175	0.6924	0.113	0.402
Mof_C 	C 	0.1979	0.6953	0.1765	-0.072
Mof_C 	C 	0.245	0.7495	0.2811	0.129
Mof_C 	C 	0.3095	0.6465	0.1969	-0.085
Mof_C 	C 	0.4049	0.5757	0.1613	0.425
Mof_C 	C 	0.5088	0.9891	0.0687	0.192
Mof_C 	C 	0.484	0.8852	0.1575	0.023
Mof_C 	C 	0.484	0.8203	0.0986	-0.012
Mof_C 	C 	0.905	0.515	0.3791	0.081
Mof_C 	C 	0.059	0.61	0.407	-0.024
Mof_C 	C 	0.105	0.5315	0.3647	0.033
Mof_C 	C 	0.6107	0.7787	0.4032	0.41
Mof_C 	C 	0.6941	0.7753	0.339	-0.054
Mof_C 	C 	0.7428	0.7152	0.2351	0.12
Mof_C 	C 	0.8028	0.8238	0.3181	-0.069
Mof_C 	C 	0.8963	0.8953	0.3512	0.411
Mof_C 	C 	0.8825	0.1924	0.387	0.396
Mof_C 	C 	0.8021	0.1953	0.3235	-0.073
Mof_C 	C 	0.755	0.2495	0.2189	0.127
Mof_C 	C 	0.6905	0.1465	0.3031	-0.099
Mof_C 	C 	0.5951	0.0757	0.3387	0.429
Mof_C 	C 	0.4912	0.4891	0.4313	0.055
Mof_C 	C 	0.516	0.3852	0.3425	0.028
Mof_C 	C 	0.516	0.3203	0.4014	-0.011
Mof_C 	C 	0.095	0.015	0.1209	-0.141
Mof_C 	C 	0.941	0.11	0.093	0.01
Mof_C 	C 	0.895	0.0315	0.1353	-0.084
Mof_C 	C 	0.6107	0.2213	0.5968	0.404
Mof_C 	C 	0.6941	0.2247	0.661	-0.064
Mof_C 	C 	0.7428	0.2848	0.7649	0.112
Mof_C 	C 	0.8028	0.1762	0.6819	-0.093
Mof_C 	C 	0.8963	0.1047	0.6488	0.412
Mof_C 	C 	0.8825	0.8076	0.613	0.404
Mof_C 	C 	0.8021	0.8047	0.6765	-0.063
Mof_C 	C 	0.755	0.7505	0.7811	0.129
Mof_C 	C 	0.6905	0.8535	0.6969	-0.074
Mof_C 	C 	0.5951	0.9243	0.6613	0.424
Mof_C 	C 	0.4912	0.5109	0.5687	0.055
Mof_C 	C 	0.516	0.6148	0.6575	0.028
Mof_C 	C 	0.516	0.6797	0.5986	-0.01
Mof_C 	C 	0.095	0.985	0.8791	0.295
Mof_C 	C 	0.941	0.89	0.907	-0.051
Mof_C 	C 	0.895	0.9685	0.8647	0.145
Mof_N 	N 	0.3429	0.7946	0.7862	-0.257
Mof_N 	N 	0.1658	0.7138	0.7513	-0.258
Mof_N 	N 	0.1606	0.2399	0.7692	-0.264
Mof_N 	N 	0.3379	0.3186	0.7351	-0.266
Mof_N 	N 	0.0083	0.5309	0.6542	-0.27
Mof_N 	N 	0.4982	0.0116	0.8588	-0.271
Mof_N 	N 	0.5004	0.1123	0.9577	-0.038
Mof_N 	N 	0.932	0.397	0.5821	-0.108
Mof_N 	N 	0.3429	0.2054	0.2138	-0.267
Mof_N 	N 	0.1658	0.2862	0.2487	-0.26
Mof_N 	N 	0.1606	0.7601	0.2308	-0.259
Mof_N 	N 	0.3379	0.6814	0.2649	-0.262
Mof_N 	N 	0.0083	0.4691	0.3458	-0.271
Mof_N 	N 	0.4982	0.9884	0.1412	-0.264
Mof_N 	N 	0.5004	0.8877	0.0423	-0.167
Mof_N 	N 	0.932	0.603	0.4179	-0.107
Mof_N 	N 	0.6571	0.7054	0.2862	-0.262
Mof_N 	N 	0.8342	0.7862	0.2513	-0.258
Mof_N 	N 	0.8394	0.2601	0.2692	-0.263
Mof_N 	N 	0.6621	0.1814	0.2351	-0.269
Mof_N 	N 	0.9917	0.9691	0.1542	-0.167
Mof_N 	N 	0.5018	0.4884	0.3588	-0.268
Mof_N 	N 	0.4996	0.3877	0.4577	-0.104
Mof_N 	N 	0.068	0.103	0.0821	-0.112
Mof_N 	N 	0.6571	0.2946	0.7138	-0.261
Mof_N 	N 	0.8342	0.2138	0.7487	-0.259
Mof_N 	N 	0.8394	0.7399	0.7308	-0.259
Mof_N 	N 	0.6621	0.8186	0.7649	-0.259
Mof_N 	N 	0.9917	0.0309	0.8458	-0.369
Mof_N 	N 	0.5018	0.5116	0.6412	-0.268
Mof_N 	N 	0.4996	0.6123	0.5423	-0.102
Mof_N 	N 	0.068	0.897	0.9179	-0.102
Mof_O 	O 	0.3627	0.6656	0.9549	-0.432
Mof_O 	O 	0.4895	0.7777	0.8993	-0.38
Mof_O 	O 	0.1183	0.5682	0.9118	-0.476
Mof_O 	O 	0.0059	0.5834	0.8147	-0.42
Mof_O 	O 	0.0095	0.2645	0.8797	-0.391
Mof_O 	O 	0.1517	0.3492	0.9436	-0.433
Mof_O 	O 	0.3928	0.4511	0.9014	-0.507
Mof_O 	O 	0.4968	0.4507	0.8005	-0.434
Mof_O 	O 	0.3627	0.3344	0.0451	-0.55
Mof_O 	O 	0.4895	0.2223	0.1007	-0.449
Mof_O 	O 	0.1183	0.4318	0.0882	-0.549
Mof_O 	O 	0.0059	0.4166	0.1853	-0.438
Mof_O 	O 	0.0095	0.7355	0.1203	-0.431
Mof_O 	O 	0.1517	0.6508	0.0564	-0.536
Mof_O 	O 	0.3928	0.5489	0.0986	-0.57
Mof_O 	O 	0.4968	0.5493	0.1995	-0.449
Mof_O 	O 	0.6373	0.8344	0.4549	-0.496
Mof_O 	O 	0.5105	0.7223	0.3993	-0.412
Mof_O 	O 	0.8817	0.9318	0.4118	-0.502
Mof_O 	O 	0.9941	0.9166	0.3147	-0.406
Mof_O 	O 	0.9905	0.2355	0.3797	-0.422
Mof_O 	O 	0.8483	0.1508	0.4436	-0.522
Mof_O 	O 	0.6072	0.0489	0.4014	-0.595
Mof_O 	O 	0.5032	0.0493	0.3005	-0.476
Mof_O 	O 	0.6373	0.1656	0.5451	-0.528
Mof_O 	O 	0.5105	0.2777	0.6007	-0.422
Mof_O 	O 	0.8817	0.0682	0.5882	-0.567
Mof_O 	O 	0.9941	0.0834	0.6853	-0.457
Mof_O 	O 	0.9905	0.7645	0.6203	-0.406
Mof_O 	O 	0.8483	0.8492	0.5564	-0.49
Mof_O 	O 	0.6072	0.9511	0.5986	-0.53
Mof_O 	O 	0.5032	0.9507	0.6995	-0.414
_end
