data_functionalizedCrystal
_audit_creation_method	'EQeq! by Chris Wilmer'
_symmetry_space_group_name_H-M	'P1'
_symmetry_Int_Tables_number	1
_symmetry_cell_setting	triclinic
loop_
_symmetry_equiv_pos_as_xyz
  x,y,z
_cell_length_a	8.9206
_cell_length_b	9.2582
_cell_length_c	9.2582
_cell_angle_alpha	76.5792
_cell_angle_beta	61.199
_cell_angle_gamma	61.199
loop_
_atom_site_label
_atom_site_type_symbol
_atom_site_fract_x
_atom_site_fract_y
_atom_site_fract_z
_atom_site_charge
Mof_K 	K 	0.625	0.75	0.75	2.619
Mof_K 	K 	0.375	0.25	0.25	2.619
Mof_Y 	Y 	0.125	0.75	0.75	1.537
Mof_Y 	Y 	0.875	0.25	0.25	1.537
Mof_C 	C 	0.5563	0.5215	0.5257	0.248
Mof_C 	C 	0.1035	0.9785	0.9743	0.235
Mof_C 	C 	0.082	0.4743	0.0215	0.256
Mof_C 	C 	0.0778	0.0257	0.4785	0.256
Mof_C 	C 	0.4437	0.4785	0.4743	0.248
Mof_C 	C 	0.8965	0.0215	0.0257	0.235
Mof_C 	C 	0.918	0.5257	0.9785	0.256
Mof_C 	C 	0.9222	0.9743	0.5215	0.256
Mof_O 	O 	0.463	0.6271	0.6365	-0.712
Mof_O 	O 	0.1804	0.9515	0.5551	-0.584
Mof_O 	O 	0.2266	0.8729	0.8635	-0.711
Mof_O 	O 	0.187	0.5485	0.9449	-0.584
Mof_O 	O 	0.0995	0.3635	0.1271	-0.711
Mof_O 	O 	0.7355	0.4449	0.4515	-0.578
Mof_O 	O 	0.0901	0.1365	0.3729	-0.711
Mof_O 	O 	0.1319	0.0551	0.0485	-0.56
Mof_O 	O 	0.537	0.3729	0.3635	-0.712
Mof_O 	O 	0.8196	0.0485	0.4449	-0.584
Mof_O 	O 	0.7734	0.1271	0.1365	-0.711
Mof_O 	O 	0.813	0.4515	0.0551	-0.584
Mof_O 	O 	0.9005	0.6365	0.8729	-0.711
Mof_O 	O 	0.2645	0.5551	0.5485	-0.578
Mof_O 	O 	0.9099	0.8635	0.6271	-0.711
Mof_O 	O 	0.8681	0.9449	0.9515	-0.56
_end
