data_functionalizedCrystal
_audit_creation_method	'EQeq! by Chris Wilmer'
_symmetry_space_group_name_H-M	'P1'
_symmetry_Int_Tables_number	1
_symmetry_cell_setting	triclinic
loop_
_symmetry_equiv_pos_as_xyz
  x,y,z
_cell_length_a	9.0269
_cell_length_b	14.0797
_cell_length_c	27.4319
_cell_angle_alpha	91.187
_cell_angle_beta	90
_cell_angle_gamma	90
loop_
_atom_site_label
_atom_site_type_symbol
_atom_site_fract_x
_atom_site_fract_y
_atom_site_fract_z
_atom_site_charge
Mof_Zn	Zn	0.77891	0.08055	0.8381	1.235
Mof_Zn	Zn	0.72109	0.58055	0.3381	1.235
Mof_H 	H 	0.6698	0.1047	0.6918	0.026
Mof_H 	H 	0.566	0.2921	0.3703	0.033
Mof_H 	H 	0.2256	0.4095	0.0558	0.065
Mof_H 	H 	0.0672	0.6745	0.0583	0.073
Mof_H 	H 	0.2851	0.789	0.4933	0.07
Mof_H 	H 	0.1973	0.2436	0.7243	0.155
Mof_H 	H 	0.891	0.857	0.3924	0.031
Mof_H 	H 	0.0932	0.6591	0.2946	0.158
Mof_H 	H 	0.4328	0.1745	0.5583	0.074
Mof_H 	H 	0.8302	0.6047	0.1918	0.026
Mof_H 	H 	0.2318	0.4328	0.1382	0.068
Mof_H 	H 	0.1429	0.7655	0.2999	0.156
Mof_H 	H 	0.0191	0.9781	0.4305	0.067
Mof_H 	H 	0.0815	0.9528	0.9814	0.034
Mof_H 	H 	0.2149	0.289	0.9933	0.071
Mof_H 	H 	0.336	0.3184	0.5202	0.076
Mof_H 	H 	0.4226	0.6631	0.2248	0.16
Mof_H 	H 	0.3438	0.1677	0.9545	0.028
Mof_H 	H 	0.2456	0.1368	0.72	0.159
Mof_H 	H 	0.2542	0.5678	0.9363	0.069
Mof_H 	H 	0.4185	0.4528	0.4814	0.035
Mof_H 	H 	0.0915	0.1549	0.8489	-0.05
Mof_H 	H 	0.1448	0.4151	0.2165	0.027
Mof_H 	H 	0.934	0.7921	0.8703	0.034
Mof_H 	H 	0.4068	0.1591	0.7946	0.158
Mof_H 	H 	0.2744	0.9095	0.5558	0.067
Mof_H 	H 	0.164	0.8184	0.0202	0.077
Mof_H 	H 	0.1562	0.6677	0.4545	0.03
Mof_H 	H 	0.0774	0.1631	0.7248	0.159
Mof_H 	H 	0.3288	0.1953	0.8425	0.157
Mof_H 	H 	0.9098	0.6198	0.1127	0.073
Mof_H 	H 	0.2682	0.9328	0.6382	0.067
Mof_H 	H 	0.3571	0.2655	0.7999	0.156
Mof_H 	H 	0.2458	0.0678	0.4363	0.069
Mof_H 	H 	0.5902	0.1198	0.6127	0.073
Mof_H 	H 	0.4085	0.6549	0.3489	-0.051
Mof_H 	H 	0.3027	0.7436	0.2243	0.155
Mof_H 	H 	0.2544	0.6368	0.22	0.16
Mof_H 	H 	0.0343	0.6589	0.9055	0.071
Mof_H 	H 	0.609	0.357	0.8924	0.029
Mof_H 	H 	0.4657	0.1589	0.4055	0.071
Mof_H 	H 	0.3552	0.9151	0.7165	0.028
Mof_H 	H 	0.1712	0.6953	0.3425	0.157
Mof_H 	H 	0.4809	0.4781	0.9305	0.068
Mof_C 	C 	0.3799	0.3126	0.48959	-0.106
Mof_C 	C 	0.1504	0.4682	0.1487	-0.12
Mof_C 	C 	0.1201	0.8126	0.98959	-0.108
Mof_C 	C 	0.4018	0.9574	0.69588	0.037
Mof_C 	C 	0.0044	0.7491	0.42117	-0.114
Mof_C 	C 	0.3734	0.2303	0.95034	0.029
Mof_C 	C 	0.3881	0.1241	0.54143	-0.112
Mof_C 	C 	0.5815	0.1685	0.89776	0.343
Mof_C 	C 	0.2083	0.4665	0.04021	-0.112
Mof_C 	C 	0.5888	0.0693	0.68102	0.044
Mof_C 	C 	0.9112	0.5693	0.18102	0.047
Mof_C 	C 	0.564	0.4735	0.39915	0.317
Mof_C 	C 	0.4956	0.2491	0.92117	-0.118
Mof_C 	C 	0.2542	0.4764	0.99226	0.045
Mof_C 	C 	0.4533	0.4155	0.93591	-0.11
Mof_C 	C 	0.4157	0.0303	0.61682	0.042
Mof_C 	C 	0.9687	0.8427	0.41328	0.031
Mof_C 	C 	0.9206	0.4998	0.26439	0.376
Mof_C 	C 	0.0982	0.4574	0.19588	0.04
Mof_C 	C 	0.9779	0.509	0.21235	-0.125
Mof_C 	C 	0.1372	0.5398	0.06548	0.043
Mof_C 	C 	0.2052	0.8033	0.47331	-0.111
Mof_C 	C 	0.3628	0.0398	0.56548	0.045
Mof_C 	C 	0.5398	0.0796	0.63351	-0.116
Mof_C 	C 	0.1653	0.8975	0.46658	0.037
Mof_C 	C 	0.3327	0.2012	0.8078	-0.401
Mof_C 	C 	0.3489	0.1354	0.49303	0.047
Mof_C 	C 	0.9185	0.6685	0.39776	0.341
Mof_C 	C 	0.5221	0.009	0.71235	-0.122
Mof_C 	C 	0.0756	0.1543	0.8154	0.245
Mof_C 	C 	0.0843	0.5303	0.11682	0.045
Mof_C 	C 	0.1761	0.1803	0.7346	-0.389
Mof_C 	C 	0.0676	0.8932	0.96681	0.026
Mof_C 	C 	0.1266	0.7303	0.45034	0.026
Mof_C 	C 	0.2917	0.9665	0.54021	-0.114
Mof_C 	C 	0.1673	0.7012	0.3078	-0.401
Mof_C 	C 	0.5179	0.2978	0.40021	0.025
Mof_C 	C 	0.3347	0.3975	0.96658	0.04
Mof_C 	C 	0.0404	0.7175	0.92173	-0.113
Mof_C 	C 	0.3921	0.2238	0.46739	0.035
Mof_C 	C 	0.5313	0.3427	0.91328	0.037
Mof_C 	C 	0.9602	0.5796	0.13351	-0.12
Mof_C 	C 	0.3496	0.9682	0.6487	-0.117
Mof_C 	C 	0.4596	0.2175	0.42173	-0.112
Mof_C 	C 	0.2458	0.9764	0.49226	0.048
Mof_C 	C 	0.9946	0.8853	0.92246	-0.107
Mof_C 	C 	0.3239	0.6803	0.2346	-0.389
Mof_C 	C 	0.4324	0.3932	0.46681	0.024
Mof_C 	C 	0.2752	0.0608	0.46854	-0.114
Mof_C 	C 	0.4244	0.6543	0.3154	0.247
Mof_C 	C 	0.5794	0.9998	0.76439	0.375
Mof_C 	C 	0.2948	0.3033	0.97331	-0.114
Mof_C 	C 	0.5054	0.3853	0.42246	-0.106
Mof_C 	C 	0.1079	0.7238	0.96739	0.037
Mof_C 	C 	0.2248	0.5608	0.96854	-0.111
Mof_C 	C 	0.936	0.9735	0.89915	0.315
Mof_C 	C 	0.1511	0.6354	0.99303	0.045
Mof_C 	C 	0.1119	0.6241	0.04143	-0.11
Mof_C 	C 	0.0467	0.9155	0.43591	-0.105
Mof_C 	C 	0.9821	0.7978	0.90021	0.025
Mof_N 	N 	0.3124	0.6764	0.28668	-0.055
Mof_N 	N 	0.1876	0.1764	0.78668	-0.055
Mof_O 	O 	0.5465	0.0865	0.90547	-0.338
Mof_O 	O 	0.9535	0.5865	0.40547	-0.338
Mof_O 	O 	0.9828	0.0529	0.91097	-0.319
Mof_O 	O 	0.6725	0.0616	0.77696	-0.465
Mof_O 	O 	0.5172	0.5529	0.41097	-0.32
Mof_O 	O 	0.5467	0.6333	0.30043	-0.411
Mof_O 	O 	0.8275	0.5616	0.27696	-0.466
Mof_O 	O 	0.8116	0.6914	0.37063	-0.456
Mof_O 	O 	0.6884	0.1914	0.87063	-0.457
Mof_O 	O 	0.5329	0.9354	0.7891	-0.309
Mof_O 	O 	0.837	0.9595	0.86598	-0.439
Mof_O 	O 	0.9671	0.4354	0.2891	-0.309
Mof_O 	O 	0.663	0.4595	0.36598	-0.439
Mof_O 	O 	0.9533	0.1333	0.80043	-0.41
Mof_Zn	Zn	0.27891	0.41945	0.6619	1.236
Mof_Zn	Zn	0.22109	0.91945	0.1619	1.236
Mof_H 	H 	0.5932	0.8409	0.2054	0.158
Mof_H 	H 	0.5774	0.3369	0.7752	0.16
Mof_H 	H 	0.8571	0.2345	0.7001	0.156
Mof_H 	H 	0.0902	0.3802	0.8873	0.073
Mof_H 	H 	0.9809	0.0219	0.5695	0.067
Mof_H 	H 	0.7544	0.8632	0.28	0.159
Mof_H 	H 	0.8288	0.3047	0.6575	0.157
Mof_H 	H 	0.6448	0.0849	0.2835	0.028
Mof_H 	H 	0.391	0.643	0.1076	0.029
Mof_H 	H 	0.3302	0.8953	0.3082	0.027
Mof_H 	H 	0.836	0.1816	0.9798	0.077
Mof_H 	H 	0.5191	0.5219	0.0695	0.068
Mof_H 	H 	0.7149	0.211	0.5067	0.07
Mof_H 	H 	0.066	0.2079	0.1297	0.034
Mof_H 	H 	0.9226	0.8369	0.2752	0.159
Mof_H 	H 	0.7682	0.5672	0.8618	0.068
Mof_H 	H 	0.7256	0.0905	0.4442	0.067
Mof_H 	H 	0.4098	0.8802	0.3873	0.073
Mof_H 	H 	0.9085	0.8451	0.1511	-0.05
Mof_H 	H 	0.5915	0.3451	0.6511	-0.051
Mof_H 	H 	0.109	0.143	0.6076	0.031
Mof_H 	H 	0.6562	0.8323	0.0455	0.028
Mof_H 	H 	0.8027	0.7564	0.2757	0.155
Mof_H 	H 	0.434	0.7079	0.6297	0.034
Mof_H 	H 	0.9068	0.3409	0.7054	0.158
Mof_H 	H 	0.6429	0.7345	0.2001	0.156
Mof_H 	H 	0.6973	0.2564	0.7757	0.155
Mof_H 	H 	0.5672	0.8255	0.4417	0.074
Mof_H 	H 	0.6712	0.8047	0.1575	0.157
Mof_H 	H 	0.8438	0.3323	0.5455	0.03
Mof_H 	H 	0.1698	0.3953	0.8082	0.026
Mof_H 	H 	0.7851	0.711	0.0067	0.071
Mof_H 	H 	0.5343	0.8411	0.5945	0.071
Mof_H 	H 	0.7458	0.4322	0.0637	0.069
Mof_H 	H 	0.7456	0.3632	0.78	0.16
Mof_H 	H 	0.7318	0.0672	0.3618	0.067
Mof_H 	H 	0.9328	0.3255	0.9417	0.074
Mof_H 	H 	0.8552	0.5849	0.7835	0.027
Mof_H 	H 	0.5815	0.5472	0.5186	0.035
Mof_H 	H 	0.7744	0.5905	0.9442	0.066
Mof_H 	H 	0.9657	0.3411	0.0945	0.071
Mof_H 	H 	0.9185	0.0472	0.0186	0.034
Mof_H 	H 	0.664	0.6816	0.4798	0.076
Mof_H 	H 	0.7542	0.9322	0.5637	0.069
Mof_C 	C 	0.4206	0.0002	0.23561	0.375
Mof_C 	C 	0.0398	0.4204	0.86649	-0.12
Mof_C 	C 	0.8921	0.2762	0.03261	0.037
Mof_C 	C 	0.0815	0.3315	0.60224	0.341
Mof_C 	C 	0.9324	0.1068	0.03319	0.026
Mof_C 	C 	0.8239	0.8197	0.2654	-0.389
Mof_C 	C 	0.064	0.0265	0.10085	0.315
Mof_C 	C 	0.9596	0.2825	0.07827	-0.113
Mof_C 	C 	0.4687	0.6573	0.08672	0.037
Mof_C 	C 	0.0313	0.1573	0.58672	0.031
Mof_C 	C 	0.9244	0.8457	0.1846	0.245
Mof_C 	C 	0.0179	0.2022	0.09979	0.025
Mof_C 	C 	0.8347	0.1025	0.53342	0.037
Mof_C 	C 	0.8496	0.5318	0.8513	-0.12
Mof_C 	C 	0.4821	0.7022	0.59979	0.025
Mof_C 	C 	0.6673	0.7988	0.1922	-0.401
Mof_C 	C 	0.6761	0.3197	0.7654	-0.389
Mof_C 	C 	0.5982	0.0426	0.30412	0.037
Mof_C 	C 	0.6079	0.7762	0.53261	0.035
Mof_C 	C 	0.5756	0.3457	0.6846	0.247
Mof_C 	C 	0.8881	0.3759	0.95857	-0.11
Mof_C 	C 	0.4602	0.9204	0.36649	-0.116
Mof_C 	C 	0.6372	0.9602	0.43452	0.045
Mof_C 	C 	0.4779	0.991	0.28765	-0.122
Mof_C 	C 	0.9018	0.5426	0.80412	0.04
Mof_C 	C 	0.0221	0.491	0.78765	-0.125
Mof_C 	C 	0.7083	0.0335	0.45979	-0.114
Mof_C 	C 	0.7948	0.1967	0.52669	-0.111
Mof_C 	C 	0.4112	0.9307	0.31898	0.044
Mof_C 	C 	0.6511	0.8646	0.50697	0.047
Mof_C 	C 	0.8799	0.1874	0.01041	-0.108
Mof_C 	C 	0.7248	0.9392	0.53146	-0.114
Mof_C 	C 	0.0888	0.4307	0.81898	0.047
Mof_C 	C 	0.8489	0.3646	0.00697	0.045
Mof_C 	C 	0.7917	0.5335	0.95979	-0.112
Mof_C 	C 	0.5843	0.9697	0.38318	0.042
Mof_C 	C 	0.4946	0.6147	0.57754	-0.106
Mof_C 	C 	0.5676	0.6068	0.53319	0.024
Mof_C 	C 	0.6266	0.7697	0.04966	0.029
Mof_C 	C 	0.9157	0.4697	0.88318	0.045
Mof_C 	C 	0.7052	0.6967	0.02669	-0.114
Mof_C 	C 	0.5467	0.5845	0.06409	-0.11
Mof_C 	C 	0.5044	0.7509	0.07883	-0.118
Mof_C 	C 	0.0054	0.1147	0.07754	-0.107
Mof_C 	C 	0.6201	0.6874	0.51041	-0.106
Mof_C 	C 	0.9956	0.2509	0.57883	-0.114
Mof_C 	C 	0.8628	0.4602	0.93452	0.043
Mof_C 	C 	0.6653	0.6025	0.03342	0.04
Mof_C 	C 	0.6119	0.8759	0.45857	-0.112
Mof_C 	C 	0.8327	0.2988	0.6922	-0.401
Mof_C 	C 	0.8734	0.2697	0.54966	0.026
Mof_C 	C 	0.6504	0.0318	0.3513	-0.117
Mof_C 	C 	0.0794	0.5002	0.73561	0.376
Mof_C 	C 	0.7542	0.0236	0.50774	0.048
Mof_C 	C 	0.7752	0.4392	0.03146	-0.111
Mof_C 	C 	0.4185	0.8315	0.10224	0.343
Mof_C 	C 	0.436	0.5265	0.60085	0.317
Mof_C 	C 	0.7458	0.5236	0.00774	0.045
Mof_C 	C 	0.5404	0.7825	0.57827	-0.112
Mof_C 	C 	0.9533	0.0845	0.56409	-0.105
Mof_N 	N 	0.8124	0.8236	0.21332	-0.055
Mof_N 	N 	0.6876	0.3236	0.71332	-0.055
Mof_O 	O 	0.0329	0.5646	0.7109	-0.309
Mof_O 	O 	0.1725	0.4384	0.72304	-0.466
Mof_O 	O 	0.3275	0.9384	0.22304	-0.465
Mof_O 	O 	0.3116	0.8086	0.12937	-0.457
Mof_O 	O 	0.1884	0.3086	0.62937	-0.456
Mof_O 	O 	0.163	0.0405	0.13402	-0.439
Mof_O 	O 	0.0465	0.4135	0.59453	-0.338
Mof_O 	O 	0.4671	0.0646	0.2109	-0.309
Mof_O 	O 	0.4533	0.3667	0.69957	-0.411
Mof_O 	O 	0.4535	0.9135	0.09453	-0.338
Mof_O 	O 	0.337	0.5405	0.63402	-0.439
Mof_O 	O 	0.4828	0.4471	0.58903	-0.32
Mof_O 	O 	0.0172	0.9471	0.08903	-0.319
Mof_O 	O 	0.0467	0.8667	0.19957	-0.41
Mof_H 	H 	0.6642	0.8667	0.9424	0.144
Mof_H 	H 	0.5507	0.9548	0.8872	0.118
Mof_H 	H 	0.3381	0.9172	0.8503	0.162
Mof_H 	H 	0.5156	0.9071	0.9638	0.149
Mof_H 	H 	0.3102	0.9394	0.9057	0.159
Mof_H 	H 	0.3181	0.8338	0.8867	0.151
Mof_H 	H 	0.5234	0.8017	0.9444	0.141
Mof_H 	H 	0.5582	0.8572	0.8692	0.112
Mof_C 	C 	0.5582	0.8653	0.9396	-0.36
Mof_C 	C 	0.3571	0.8966	0.8828	-0.379
Mof_N 	N 	0.5153	0.8958	0.89156	-0.131
Mof_H 	H 	0.1898	0.4394	0.4057	0.159
Mof_H 	H 	0.9418	0.3572	0.3692	0.112
Mof_H 	H 	0.9766	0.3017	0.4444	0.141
Mof_H 	H 	0.9844	0.4071	0.4638	0.149
Mof_H 	H 	0.1619	0.4172	0.3503	0.162
Mof_H 	H 	0.1819	0.3338	0.3867	0.151
Mof_H 	H 	0.9493	0.4548	0.3872	0.118
Mof_H 	H 	0.8358	0.3667	0.4424	0.144
Mof_C 	C 	0.1429	0.3966	0.3828	-0.379
Mof_C 	C 	0.9418	0.3653	0.4396	-0.36
Mof_N 	N 	0.9847	0.3958	0.39156	-0.131
Mof_H 	H 	0.4418	0.1428	0.1308	0.112
Mof_H 	H 	0.4766	0.1983	0.0556	0.141
Mof_H 	H 	0.6898	0.0606	0.0943	0.159
Mof_H 	H 	0.6819	0.1662	0.1133	0.151
Mof_H 	H 	0.4844	0.0929	0.0362	0.149
Mof_H 	H 	0.3358	0.1333	0.0576	0.144
Mof_H 	H 	0.4493	0.0452	0.1128	0.118
Mof_H 	H 	0.6619	0.0828	0.1497	0.162
Mof_C 	C 	0.4418	0.1347	0.0604	-0.36
Mof_C 	C 	0.6429	0.1034	0.1172	-0.379
Mof_N 	N 	0.4847	0.1042	0.10844	-0.131
Mof_H 	H 	0.1642	0.6333	0.5576	0.144
Mof_H 	H 	0.8102	0.5606	0.5943	0.159
Mof_H 	H 	0.0582	0.6428	0.6308	0.112
Mof_H 	H 	0.0156	0.5929	0.5362	0.149
Mof_H 	H 	0.8181	0.6662	0.6133	0.151
Mof_H 	H 	0.8381	0.5828	0.6497	0.162
Mof_H 	H 	0.0507	0.5452	0.6128	0.118
Mof_H 	H 	0.0234	0.6983	0.5556	0.141
Mof_C 	C 	0.8571	0.6034	0.6172	-0.379
Mof_C 	C 	0.0582	0.6347	0.5604	-0.36
Mof_N 	N 	0.0153	0.6042	0.60844	-0.131
_end
