data_functionalizedCrystal
_audit_creation_method	'EQeq! by Chris Wilmer'
_symmetry_space_group_name_H-M	'P1'
_symmetry_Int_Tables_number	1
_symmetry_cell_setting	triclinic
loop_
_symmetry_equiv_pos_as_xyz
  x,y,z
_cell_length_a	8.9147
_cell_length_b	12.715
_cell_length_c	21.226
_cell_angle_alpha	90.21
_cell_angle_beta	94.14
_cell_angle_gamma	91.29
loop_
_atom_site_label
_atom_site_type_symbol
_atom_site_fract_x
_atom_site_fract_y
_atom_site_fract_z
_atom_site_charge
Mof_O 	O 	0.167	0.428	0.2767	-0.465
Mof_Mn	Mn	0.6022	0.2708	0.2374	1.027
Mof_Mn	Mn	0.9741	0.3608	0.2469	1.032
Mof_Mn	Mn	0.2795	0.1451	0.2626	1.011
Mof_O 	O 	0.517	0.126	0.2811	-0.483
Mof_O 	O 	0.739	0.075	0.3141	-0.32
Mof_O 	O 	0.096	0.664	0.656	-0.395
Mof_O 	O 	0.338	0.681	0.6719	-0.474
Mof_O 	O 	0.359	0.314	0.2654	-0.471
Mof_O 	O 	0.482	0.749	0.2911	-0.248
Mof_O 	O 	0.57	0.849	0.4886	-0.267
Mof_O 	O 	0.317	0.55	0.4575	-0.251
Mof_O 	O 	0.836	0.232	0.2042	-0.464
Mof_O 	O 	0.053	0.189	0.2404	-0.524
Mof_O 	O 	0.815	0.837	0.2073	-0.241
Mof_O 	O 	0.76	0.025	0.0297	-0.239
Mof_O 	O 	0.804	0.669	0.0196	-0.23
Mof_O 	O 	0.462	0.771	0.8557	-0.407
Mof_O 	O 	0.665	0.866	0.8355	-0.372
Mof_O 	O 	0.625	0.425	0.1923	-0.453
Mof_O 	O 	0.83	0.488	0.2323	-0.482
Mof_O 	O 	0.206	0.156	0.3625	-0.431
Mof_H 	H 	0.1152	0.1652	0.3613	0.257
Mof_O 	O 	0.24	0.975	0.258	-0.443
Mof_H 	H 	0.1922	0.9562	0.2873	0.253
Mof_O 	O 	0.071	0.377	0.148	-0.4
Mof_H 	H 	0.112	0.4349	0.1452	0.248
Mof_C 	C 	0.601	0.067	0.3153	0.482
Mof_C 	C 	0.524	0.985	0.356	-0.468
Mof_H 	H 	0.51	0.0141	0.3971	0.197
Mof_H 	H 	0.4264	0.965	0.3358	0.19
Mof_C 	C 	0.622	0.889	0.363	0.149
Mof_H 	H 	0.6559	0.8691	0.3218	0.029
Mof_H 	H 	0.7105	0.9047	0.3908	0.015
Mof_C 	C 	0.519	0.788	0.454	0.322
Mof_C 	C 	0.469	0.734	0.347	0.301
Mof_C 	C 	0.38	0.627	0.438	0.302
Mof_C 	C 	0.307	0.582	0.332	0.196
Mof_H 	H 	0.2779	0.6193	0.2934	0.002
Mof_H 	H 	0.2162	0.5603	0.3511	0.011
Mof_C 	C 	0.393	0.481	0.314	-0.554
Mof_H 	H 	0.4725	0.5019	0.2876	0.211
Mof_H 	H 	0.4406	0.4522	0.3527	0.218
Mof_C 	C 	0.301	0.401	0.2826	0.567
Mof_C 	C 	0.422	0.68	0.5439	0.117
Mof_H 	H 	0.4987	0.7206	0.5686	0.028
Mof_H 	H 	0.439	0.6064	0.5528	0.024
Mof_C 	C 	0.264	0.708	0.569	-0.431
Mof_H 	H 	0.2515	0.7833	0.563	0.172
Mof_H 	H 	0.187	0.6732	0.5409	0.182
Mof_C 	C 	0.23	0.682	0.6373	0.517
Mof_C 	C 	0.942	0.166	0.2112	0.526
Mof_C 	C 	0.936	0.057	0.182	-0.285
Mof_H 	H 	0.0179	0.0127	0.1801	0.164
Mof_C 	C 	0.786	0.031	0.157	0.111
Mof_H 	H 	0.7466	0.0879	0.1304	0.037
Mof_H 	H 	0.7201	0.0205	0.1909	0.026
Mof_C 	C 	0.778	0.942	0.055	0.298
Mof_C 	C 	0.809	0.841	0.151	0.3
Mof_C 	C 	0.801	0.75	0.05	0.293
Mof_C 	C 	0.754	0.85	0.955	0.056
Mof_H 	H 	0.813	0.7971	0.9359	0.053
Mof_H 	H 	0.7816	0.9185	0.9396	0.053
Mof_C 	C 	0.592	0.828	0.943	-0.217
Mof_H 	H 	0.5196	0.8195	0.9719	0.15
Mof_C 	C 	0.571	0.821	0.872	0.446
Mof_C 	C 	0.841	0.649	0.145	0.18
Mof_H 	H 	0.912	0.6585	0.1818	0.01
Mof_H 	H 	0.8842	0.6006	0.1164	0.004
Mof_C 	C 	0.693	0.6	0.167	-0.531
Mof_H 	H 	0.649	0.649	0.195	0.22
Mof_H 	H 	0.6222	0.59	0.13	0.213
Mof_C 	C 	0.718	0.495	0.2	0.61
Mof_N 	N 	0.391	0.65	0.3732	-0.222
Mof_N 	N 	0.443	0.698	0.4754	-0.216
Mof_N 	N 	0.534	0.798	0.3888	-0.219
Mof_N 	N 	0.795	0.934	0.1196	-0.204
Mof_N 	N 	0.816	0.751	0.1139	-0.215
Mof_N 	N 	0.778	0.847	0.0228	-0.194
Mof_O 	O 	0.833	0.572	0.7233	-0.464
Mof_Mn	Mn	0.3978	0.7292	0.7626	1.028
Mof_Mn	Mn	0.0259	0.6392	0.7531	1.033
Mof_Mn	Mn	0.7205	0.8549	0.7374	1.012
Mof_O 	O 	0.483	0.874	0.7189	-0.482
Mof_O 	O 	0.261	0.925	0.6859	-0.319
Mof_O 	O 	0.904	0.336	0.344	-0.394
Mof_O 	O 	0.662	0.319	0.3281	-0.473
Mof_O 	O 	0.641	0.686	0.7346	-0.47
Mof_O 	O 	0.518	0.251	0.7089	-0.247
Mof_O 	O 	0.43	0.151	0.5114	-0.266
Mof_O 	O 	0.683	0.45	0.5425	-0.25
Mof_O 	O 	0.164	0.768	0.7958	-0.464
Mof_O 	O 	0.947	0.811	0.7596	-0.524
Mof_O 	O 	0.185	0.163	0.7927	-0.241
Mof_O 	O 	0.24	0.975	0.9703	-0.239
Mof_O 	O 	0.196	0.331	0.9804	-0.23
Mof_O 	O 	0.538	0.229	0.1443	-0.407
Mof_O 	O 	0.335	0.134	0.1645	-0.372
Mof_O 	O 	0.375	0.575	0.8077	-0.453
Mof_O 	O 	0.17	0.512	0.7677	-0.482
Mof_O 	O 	0.794	0.844	0.6375	-0.431
Mof_H 	H 	0.8848	0.8348	0.6387	0.257
Mof_O 	O 	0.76	0.025	0.742	-0.443
Mof_H 	H 	0.8078	0.0438	0.7127	0.253
Mof_O 	O 	0.929	0.623	0.852	-0.4
Mof_H 	H 	0.888	0.5651	0.8548	0.248
Mof_C 	C 	0.399	0.933	0.6847	0.482
Mof_C 	C 	0.476	0.015	0.644	-0.468
Mof_H 	H 	0.49	0.9859	0.6029	0.197
Mof_H 	H 	0.5736	0.035	0.6642	0.19
Mof_C 	C 	0.378	0.111	0.637	0.149
Mof_H 	H 	0.3441	0.1309	0.6782	0.029
Mof_H 	H 	0.2895	0.0953	0.6092	0.015
Mof_C 	C 	0.481	0.212	0.546	0.322
Mof_C 	C 	0.531	0.266	0.653	0.301
Mof_C 	C 	0.62	0.373	0.562	0.302
Mof_C 	C 	0.693	0.418	0.668	0.196
Mof_H 	H 	0.7221	0.3807	0.7066	0.002
Mof_H 	H 	0.7838	0.4397	0.6489	0.011
Mof_C 	C 	0.607	0.519	0.686	-0.554
Mof_H 	H 	0.5275	0.4981	0.7124	0.211
Mof_H 	H 	0.5594	0.5478	0.6473	0.218
Mof_C 	C 	0.699	0.599	0.7174	0.567
Mof_C 	C 	0.578	0.32	0.4561	0.117
Mof_H 	H 	0.5013	0.2794	0.4314	0.028
Mof_H 	H 	0.561	0.3936	0.4472	0.024
Mof_C 	C 	0.736	0.292	0.431	-0.431
Mof_H 	H 	0.7485	0.2167	0.437	0.172
Mof_H 	H 	0.813	0.3268	0.4591	0.182
Mof_C 	C 	0.77	0.318	0.3627	0.517
Mof_C 	C 	0.058	0.834	0.7888	0.526
Mof_C 	C 	0.064	0.943	0.818	-0.285
Mof_H 	H 	0.9821	0.9873	0.8199	0.164
Mof_C 	C 	0.214	0.969	0.843	0.111
Mof_H 	H 	0.2534	0.9121	0.8696	0.037
Mof_H 	H 	0.2799	0.9795	0.8091	0.026
Mof_C 	C 	0.222	0.058	0.945	0.298
Mof_C 	C 	0.191	0.159	0.849	0.3
Mof_C 	C 	0.199	0.25	0.95	0.293
Mof_C 	C 	0.246	0.15	0.045	0.056
Mof_H 	H 	0.187	0.2029	0.0641	0.053
Mof_H 	H 	0.2184	0.0815	0.0604	0.053
Mof_C 	C 	0.408	0.172	0.057	-0.217
Mof_H 	H 	0.4804	0.1805	0.0281	0.15
Mof_C 	C 	0.429	0.179	0.128	0.446
Mof_C 	C 	0.159	0.351	0.855	0.18
Mof_H 	H 	0.088	0.3415	0.8182	0.01
Mof_H 	H 	0.1158	0.3994	0.8836	0.004
Mof_C 	C 	0.307	0.4	0.833	-0.531
Mof_H 	H 	0.351	0.351	0.805	0.22
Mof_H 	H 	0.3778	0.41	0.87	0.213
Mof_C 	C 	0.282	0.505	0.8	0.61
Mof_N 	N 	0.609	0.35	0.6268	-0.222
Mof_N 	N 	0.557	0.302	0.5246	-0.216
Mof_N 	N 	0.466	0.202	0.6112	-0.219
Mof_N 	N 	0.205	0.066	0.8804	-0.204
Mof_N 	N 	0.184	0.249	0.8861	-0.215
Mof_N 	N 	0.222	0.153	0.9772	-0.194
_end
