data_functionalizedCrystal
_audit_creation_method	'EQeq! by Chris Wilmer'
_symmetry_space_group_name_H-M	'P1'
_symmetry_Int_Tables_number	1
_symmetry_cell_setting	triclinic
loop_
_symmetry_equiv_pos_as_xyz
  x,y,z
_cell_length_a	27.449
_cell_length_b	27.449
_cell_length_c	27.449
_cell_angle_alpha	90
_cell_angle_beta	90
_cell_angle_gamma	90
loop_
_atom_site_label
_atom_site_type_symbol
_atom_site_fract_x
_atom_site_fract_y
_atom_site_fract_z
_atom_site_charge
Mof_Cu	Cu	-2.25359e-33	0.5	0.70112	0.946
Mof_Cu	Cu	-1.32057e-33	0.5	0.29888	0.946
Mof_Cu	Cu	0.70112	0	0.5	0.945
Mof_Cu	Cu	0.29888	0	0.5	0.945
Mof_Cu	Cu	0.5	0.70113	-0	0.945
Mof_Cu	Cu	0.5	0.29887	-0	0.945
Mof_Cu	Cu	-6.76942e-33	0.5	0.79888	0.945
Mof_Cu	Cu	-1.68711e-33	0.5	0.20112	0.945
Mof_Cu	Cu	0.5	0.20112	-0	0.945
Mof_Cu	Cu	0.5	0.79888	-0	0.945
Mof_Cu	Cu	0.20113	0	0.5	0.945
Mof_Cu	Cu	0.79887	0	0.5	0.945
Mof_H 	H 	0.10278	0.38863	0.82844	0.035
Mof_H 	H 	0.16516	0.32531	0.82837	0.047
Mof_H 	H 	0.89722	0.61137	0.82844	0.04
Mof_H 	H 	0.83484	0.67469	0.82837	0.051
Mof_H 	H 	0.89722	0.38863	0.17156	0.037
Mof_H 	H 	0.83484	0.32531	0.17163	0.046
Mof_H 	H 	0.10278	0.61137	0.17156	0.033
Mof_H 	H 	0.16516	0.67469	0.17163	0.044
Mof_H 	H 	0.82957	0.10334	0.38848	0.037
Mof_H 	H 	0.829	0.16542	0.32486	0.047
Mof_H 	H 	0.82957	0.89666	0.61152	0.043
Mof_H 	H 	0.829	0.83458	0.67514	0.051
Mof_H 	H 	0.17043	0.89666	0.38848	0.038
Mof_H 	H 	0.171	0.83458	0.32486	0.046
Mof_H 	H 	0.17043	0.10334	0.61152	0.034
Mof_H 	H 	0.171	0.16542	0.67514	0.044
Mof_H 	H 	0.38879	0.82731	0.10256	0.035
Mof_H 	H 	0.32574	0.82775	0.16519	0.047
Mof_H 	H 	0.57414	0.62455	0.02107	0.024
Mof_H 	H 	0.57536	0.53524	0.02307	0.042
Mof_H 	H 	0.61121	0.82731	0.89744	0.041
Mof_H 	H 	0.67426	0.82775	0.83481	0.051
Mof_H 	H 	0.42586	0.62455	0.97893	0.028
Mof_H 	H 	0.42464	0.53524	0.97693	0.05
Mof_H 	H 	0.38879	0.17269	0.89744	0.037
Mof_H 	H 	0.32574	0.17225	0.83481	0.046
Mof_H 	H 	0.57414	0.37545	0.97893	0.029
Mof_H 	H 	0.57536	0.46476	0.97693	0.05
Mof_H 	H 	0.61121	0.17269	0.10256	0.033
Mof_H 	H 	0.67426	0.17225	0.16519	0.044
Mof_H 	H 	0.42586	0.37545	0.02107	0.023
Mof_H 	H 	0.42464	0.46476	0.02307	0.042
Mof_H 	H 	0.88863	0.60278	0.67156	0.038
Mof_H 	H 	0.82531	0.66516	0.67163	0.048
Mof_H 	H 	0.11137	0.39722	0.67156	0.035
Mof_H 	H 	0.17469	0.33484	0.67163	0.046
Mof_H 	H 	0.88863	0.39722	0.32844	0.038
Mof_H 	H 	0.82531	0.33484	0.32837	0.048
Mof_H 	H 	0.11137	0.60278	0.32844	0.035
Mof_H 	H 	0.17469	0.66516	0.32837	0.046
Mof_H 	H 	0.60334	0.32957	0.11152	0.035
Mof_H 	H 	0.66542	0.329	0.17514	0.046
Mof_H 	H 	0.39666	0.32957	0.88848	0.041
Mof_H 	H 	0.33458	0.329	0.82486	0.048
Mof_H 	H 	0.39666	0.67043	0.11152	0.035
Mof_H 	H 	0.33458	0.671	0.17514	0.046
Mof_H 	H 	0.60334	0.67043	0.88848	0.041
Mof_H 	H 	0.66542	0.671	0.82486	0.048
Mof_H 	H 	0.32731	0.88879	0.39744	0.038
Mof_H 	H 	0.32775	0.82574	0.33481	0.048
Mof_H 	H 	0.12455	0.07414	0.47893	0.026
Mof_H 	H 	0.03524	0.07536	0.47693	0.035
Mof_H 	H 	0.32731	0.11121	0.60256	0.035
Mof_H 	H 	0.32775	0.17426	0.66519	0.046
Mof_H 	H 	0.12455	0.92586	0.52107	0.025
Mof_H 	H 	0.03524	0.92464	0.52307	0.036
Mof_H 	H 	0.67269	0.88879	0.60256	0.038
Mof_H 	H 	0.67225	0.82574	0.66519	0.048
Mof_H 	H 	0.87545	0.07414	0.52107	0.027
Mof_H 	H 	0.96476	0.07536	0.52307	0.056
Mof_H 	H 	0.67269	0.11121	0.39744	0.035
Mof_H 	H 	0.67225	0.17426	0.33481	0.046
Mof_H 	H 	0.87545	0.92586	0.47893	0.025
Mof_H 	H 	0.96476	0.92464	0.47693	0.056
Mof_H 	H 	0.89687	0.61125	0.17155	0.039
Mof_H 	H 	0.83454	0.67461	0.17161	0.047
Mof_H 	H 	0.97993	0.42557	0.37547	0.029
Mof_H 	H 	0.97768	0.42439	0.46468	0.05
Mof_H 	H 	0.10313	0.38875	0.17155	0.034
Mof_H 	H 	0.16546	0.32539	0.17161	0.043
Mof_H 	H 	0.02007	0.57443	0.37547	0.024
Mof_H 	H 	0.02232	0.57561	0.46468	0.042
Mof_H 	H 	0.10313	0.61125	0.82845	0.038
Mof_H 	H 	0.16546	0.67461	0.82839	0.048
Mof_H 	H 	0.02007	0.42557	0.62453	0.024
Mof_H 	H 	0.02232	0.42439	0.53532	0.041
Mof_H 	H 	0.89687	0.38875	0.82845	0.042
Mof_H 	H 	0.83454	0.32539	0.82839	0.05
Mof_H 	H 	0.97993	0.57443	0.62453	0.029
Mof_H 	H 	0.97768	0.57561	0.53532	0.05
Mof_H 	H 	0.17268	0.89746	0.61111	0.037
Mof_H 	H 	0.17225	0.83484	0.67416	0.047
Mof_H 	H 	0.37545	0.97893	0.42586	0.028
Mof_H 	H 	0.46476	0.97693	0.42464	0.05
Mof_H 	H 	0.17268	0.10254	0.38889	0.032
Mof_H 	H 	0.17225	0.16516	0.32584	0.043
Mof_H 	H 	0.37545	0.02107	0.57414	0.023
Mof_H 	H 	0.46476	0.02307	0.57536	0.042
Mof_H 	H 	0.82732	0.10254	0.61111	0.036
Mof_H 	H 	0.82775	0.16516	0.67416	0.048
Mof_H 	H 	0.62455	0.02107	0.42586	0.023
Mof_H 	H 	0.53524	0.02307	0.42464	0.042
Mof_H 	H 	0.82732	0.89746	0.38889	0.04
Mof_H 	H 	0.82775	0.83484	0.32584	0.05
Mof_H 	H 	0.62455	0.97893	0.57414	0.029
Mof_H 	H 	0.53524	0.97693	0.57536	0.05
Mof_H 	H 	0.6114	0.17042	0.89667	0.039
Mof_H 	H 	0.67502	0.17098	0.83459	0.047
Mof_H 	H 	0.3886	0.17042	0.10333	0.033
Mof_H 	H 	0.32498	0.17098	0.16541	0.043
Mof_H 	H 	0.6114	0.82958	0.10333	0.038
Mof_H 	H 	0.67502	0.82902	0.16541	0.049
Mof_H 	H 	0.3886	0.82958	0.89667	0.042
Mof_H 	H 	0.32498	0.82902	0.83459	0.05
Mof_H 	H 	0.11125	0.39687	0.32845	0.035
Mof_H 	H 	0.17461	0.33454	0.32839	0.046
Mof_H 	H 	0.92557	0.47993	0.12453	0.025
Mof_H 	H 	0.92439	0.47768	0.03532	0.035
Mof_H 	H 	0.88875	0.60313	0.32845	0.041
Mof_H 	H 	0.82539	0.66546	0.32839	0.048
Mof_H 	H 	0.07443	0.52007	0.12453	0.027
Mof_H 	H 	0.07561	0.52232	0.03532	0.036
Mof_H 	H 	0.11125	0.60313	0.67155	0.036
Mof_H 	H 	0.17461	0.66546	0.67161	0.046
Mof_H 	H 	0.92557	0.52007	0.87547	0.026
Mof_H 	H 	0.92439	0.52232	0.96468	0.056
Mof_H 	H 	0.88875	0.39687	0.67155	0.041
Mof_H 	H 	0.82539	0.33454	0.67161	0.048
Mof_H 	H 	0.07443	0.47993	0.87547	0.027
Mof_H 	H 	0.07561	0.47768	0.96468	0.056
Mof_H 	H 	0.39746	0.67268	0.88889	0.038
Mof_H 	H 	0.33484	0.67225	0.82584	0.048
Mof_H 	H 	0.47893	0.87545	0.07414	0.027
Mof_H 	H 	0.47693	0.96476	0.07536	0.056
Mof_H 	H 	0.60254	0.67268	0.11111	0.035
Mof_H 	H 	0.66516	0.67225	0.17416	0.046
Mof_H 	H 	0.52107	0.87545	0.92586	0.025
Mof_H 	H 	0.52307	0.96476	0.92464	0.057
Mof_H 	H 	0.60254	0.32732	0.88889	0.038
Mof_H 	H 	0.66516	0.32775	0.82584	0.048
Mof_H 	H 	0.52107	0.12455	0.07414	0.027
Mof_H 	H 	0.52307	0.03524	0.07536	0.036
Mof_H 	H 	0.39746	0.32732	0.11111	0.035
Mof_H 	H 	0.33484	0.32775	0.17416	0.046
Mof_H 	H 	0.47893	0.12455	0.92586	0.025
Mof_H 	H 	0.47693	0.03524	0.92464	0.036
Mof_H 	H 	0.67042	0.1114	0.60333	0.035
Mof_H 	H 	0.67098	0.17502	0.66541	0.046
Mof_H 	H 	0.67042	0.8886	0.39667	0.041
Mof_H 	H 	0.67098	0.82498	0.33459	0.048
Mof_H 	H 	0.32958	0.1114	0.39667	0.035
Mof_H 	H 	0.32902	0.17502	0.33459	0.046
Mof_H 	H 	0.32958	0.8886	0.60333	0.041
Mof_H 	H 	0.32902	0.82498	0.66541	0.048
Mof_H 	H 	0.25006	0.3143	0.81369	0.047
Mof_H 	H 	0.74994	0.6857	0.81369	0.048
Mof_H 	H 	0.74994	0.3143	0.18631	0.045
Mof_H 	H 	0.25006	0.6857	0.18631	0.045
Mof_H 	H 	0.8143	0.24994	0.31369	0.047
Mof_H 	H 	0.8143	0.75006	0.68631	0.048
Mof_H 	H 	0.1857	0.75006	0.31369	0.045
Mof_H 	H 	0.1857	0.24994	0.68631	0.045
Mof_H 	H 	0.31382	0.81382	0.25	0.047
Mof_H 	H 	0.68618	0.81382	0.75	0.048
Mof_H 	H 	0.31382	0.18618	0.75	0.045
Mof_H 	H 	0.68618	0.18618	0.25	0.045
Mof_H 	H 	0.75004	0.68644	0.18582	0.046
Mof_H 	H 	0.24996	0.31356	0.18582	0.044
Mof_H 	H 	0.24996	0.68644	0.81418	0.048
Mof_H 	H 	0.75004	0.31356	0.81418	0.048
Mof_H 	H 	0.18644	0.74996	0.68582	0.046
Mof_H 	H 	0.18644	0.25004	0.31418	0.044
Mof_H 	H 	0.81356	0.25004	0.68582	0.048
Mof_H 	H 	0.81356	0.74996	0.31418	0.048
Mof_H 	H 	0.68593	0.18593	0.75	0.046
Mof_H 	H 	0.31407	0.18593	0.25	0.044
Mof_H 	H 	0.68593	0.81407	0.25	0.048
Mof_H 	H 	0.31407	0.81407	0.75	0.048
Mof_C 	C 	0.11815	0.37719	0.79395	0.025
Mof_C 	C 	0.15415	0.34109	0.79394	-0.068
Mof_C 	C 	0.88185	0.62281	0.79395	0.027
Mof_C 	C 	0.84585	0.65891	0.79394	-0.065
Mof_C 	C 	0.88185	0.37719	0.20605	0.025
Mof_C 	C 	0.84585	0.34109	0.20606	-0.067
Mof_C 	C 	0.11815	0.62281	0.20605	0.024
Mof_C 	C 	0.15415	0.65891	0.20606	-0.069
Mof_C 	C 	0.79497	0.11851	0.37708	0.024
Mof_C 	C 	0.79466	0.15433	0.34078	-0.067
Mof_C 	C 	0.79497	0.88149	0.62292	0.026
Mof_C 	C 	0.79466	0.84567	0.65922	-0.064
Mof_C 	C 	0.20503	0.88149	0.37708	0.024
Mof_C 	C 	0.20534	0.84567	0.34078	-0.066
Mof_C 	C 	0.20503	0.11851	0.62292	0.023
Mof_C 	C 	0.20534	0.15433	0.65922	-0.068
Mof_C 	C 	0.37725	0.79291	0.11806	0.024
Mof_C 	C 	0.3413	0.7932	0.15424	-0.068
Mof_C 	C 	0.54146	0.60458	0.01184	0.039
Mof_C 	C 	0.54217	0.55363	0.01239	-0.071
Mof_C 	C 	0.62275	0.79291	0.88194	0.025
Mof_C 	C 	0.6587	0.7932	0.84576	-0.064
Mof_C 	C 	0.45854	0.60458	0.98816	0.062
Mof_C 	C 	0.45783	0.55363	0.98761	-0.047
Mof_C 	C 	0.37725	0.20709	0.88194	0.024
Mof_C 	C 	0.3413	0.2068	0.84576	-0.066
Mof_C 	C 	0.54146	0.39542	0.98816	0.062
Mof_C 	C 	0.54217	0.44637	0.98761	-0.047
Mof_C 	C 	0.62275	0.20709	0.11806	0.024
Mof_C 	C 	0.6587	0.2068	0.15424	-0.068
Mof_C 	C 	0.45854	0.39542	0.01184	0.039
Mof_C 	C 	0.45783	0.44637	0.01239	-0.071
Mof_C 	C 	0.87719	0.61815	0.70605	0.026
Mof_C 	C 	0.84109	0.65415	0.70606	-0.066
Mof_C 	C 	0.12281	0.38185	0.70605	0.025
Mof_C 	C 	0.15891	0.34585	0.70606	-0.068
Mof_C 	C 	0.87719	0.38185	0.29395	0.025
Mof_C 	C 	0.84109	0.34585	0.29394	-0.066
Mof_C 	C 	0.12281	0.61815	0.29395	0.025
Mof_C 	C 	0.15891	0.65415	0.29394	-0.068
Mof_C 	C 	0.61851	0.29497	0.12292	0.024
Mof_C 	C 	0.65433	0.29466	0.15922	-0.068
Mof_C 	C 	0.38149	0.29497	0.87708	0.024
Mof_C 	C 	0.34567	0.29466	0.84078	-0.065
Mof_C 	C 	0.38149	0.70503	0.12292	0.024
Mof_C 	C 	0.34567	0.70534	0.15922	-0.068
Mof_C 	C 	0.61851	0.70503	0.87708	0.025
Mof_C 	C 	0.65433	0.70534	0.84078	-0.064
Mof_C 	C 	0.29291	0.87725	0.38194	0.024
Mof_C 	C 	0.2932	0.8413	0.34576	-0.066
Mof_C 	C 	0.10458	0.04146	0.48816	0.033
Mof_C 	C 	0.05363	0.04217	0.48761	-0.06
Mof_C 	C 	0.29291	0.12275	0.61806	0.024
Mof_C 	C 	0.2932	0.1587	0.65424	-0.068
Mof_C 	C 	0.10458	0.95854	0.51184	0.055
Mof_C 	C 	0.05363	0.95783	0.51239	-0.039
Mof_C 	C 	0.70709	0.87725	0.61806	0.025
Mof_C 	C 	0.7068	0.8413	0.65424	-0.065
Mof_C 	C 	0.89542	0.04146	0.51184	0.047
Mof_C 	C 	0.94637	0.04217	0.51239	-0.078
Mof_C 	C 	0.70709	0.12275	0.38194	0.024
Mof_C 	C 	0.7068	0.1587	0.34576	-0.068
Mof_C 	C 	0.89542	0.95854	0.48816	0.068
Mof_C 	C 	0.94637	0.95783	0.48761	-0.058
Mof_C 	C 	0.8816	0.62278	0.20605	0.023
Mof_C 	C 	0.8456	0.65892	0.20606	-0.065
Mof_C 	C 	0.9887	0.45839	0.39542	0.062
Mof_C 	C 	0.98806	0.4577	0.44634	-0.047
Mof_C 	C 	0.1184	0.37722	0.20605	0.022
Mof_C 	C 	0.1544	0.34108	0.20606	-0.068
Mof_C 	C 	0.0113	0.54161	0.39541	0.039
Mof_C 	C 	0.01194	0.5423	0.44634	-0.071
Mof_C 	C 	0.1184	0.62278	0.79395	0.024
Mof_C 	C 	0.1544	0.65892	0.79394	-0.066
Mof_C 	C 	0.0113	0.45839	0.60458	0.039
Mof_C 	C 	0.01194	0.4577	0.55366	-0.071
Mof_C 	C 	0.8816	0.37722	0.79395	0.024
Mof_C 	C 	0.8456	0.34108	0.79394	-0.064
Mof_C 	C 	0.9887	0.54161	0.60459	0.062
Mof_C 	C 	0.98806	0.5423	0.55366	-0.047
Mof_C 	C 	0.20709	0.88199	0.62267	0.024
Mof_C 	C 	0.2068	0.84582	0.65861	-0.065
Mof_C 	C 	0.39542	0.98816	0.45854	0.062
Mof_C 	C 	0.44637	0.9876	0.45783	-0.047
Mof_C 	C 	0.20709	0.11801	0.37733	0.023
Mof_C 	C 	0.2068	0.15418	0.34139	-0.069
Mof_C 	C 	0.39542	0.01184	0.54146	0.039
Mof_C 	C 	0.44637	0.0124	0.54217	-0.071
Mof_C 	C 	0.79291	0.11801	0.62267	0.025
Mof_C 	C 	0.7932	0.15418	0.65861	-0.067
Mof_C 	C 	0.60458	0.01184	0.45854	0.039
Mof_C 	C 	0.55363	0.0124	0.45783	-0.071
Mof_C 	C 	0.79291	0.88199	0.37733	0.025
Mof_C 	C 	0.7932	0.84582	0.34139	-0.065
Mof_C 	C 	0.60458	0.98816	0.54146	0.062
Mof_C 	C 	0.55363	0.9876	0.54217	-0.047
Mof_C 	C 	0.62282	0.20501	0.88153	0.024
Mof_C 	C 	0.65912	0.20532	0.84571	-0.065
Mof_C 	C 	0.37718	0.20501	0.11847	0.023
Mof_C 	C 	0.34088	0.20532	0.15429	-0.069
Mof_C 	C 	0.62282	0.79499	0.11847	0.025
Mof_C 	C 	0.65912	0.79468	0.15429	-0.067
Mof_C 	C 	0.37718	0.79499	0.88153	0.025
Mof_C 	C 	0.34088	0.79468	0.84571	-0.065
Mof_C 	C 	0.12278	0.3816	0.29395	0.023
Mof_C 	C 	0.15892	0.3456	0.29394	-0.068
Mof_C 	C 	0.95839	0.4887	0.10458	0.054
Mof_C 	C 	0.9577	0.48806	0.05366	-0.039
Mof_C 	C 	0.87722	0.6184	0.29395	0.024
Mof_C 	C 	0.84108	0.6544	0.29394	-0.064
Mof_C 	C 	0.04161	0.5113	0.10459	0.033
Mof_C 	C 	0.0423	0.51194	0.05366	-0.06
Mof_C 	C 	0.12278	0.6184	0.70605	0.024
Mof_C 	C 	0.15892	0.6544	0.70606	-0.067
Mof_C 	C 	0.95839	0.5113	0.89541	0.068
Mof_C 	C 	0.9577	0.51194	0.94634	-0.058
Mof_C 	C 	0.87722	0.3816	0.70605	0.024
Mof_C 	C 	0.84108	0.3456	0.70606	-0.064
Mof_C 	C 	0.04161	0.4887	0.89542	0.046
Mof_C 	C 	0.0423	0.48806	0.94634	-0.079
Mof_C 	C 	0.38199	0.70709	0.87733	0.025
Mof_C 	C 	0.34582	0.7068	0.84139	-0.065
Mof_C 	C 	0.48816	0.89542	0.04146	0.047
Mof_C 	C 	0.4876	0.94637	0.04217	-0.079
Mof_C 	C 	0.61801	0.70709	0.12267	0.024
Mof_C 	C 	0.65418	0.7068	0.15861	-0.067
Mof_C 	C 	0.51184	0.89542	0.95854	0.068
Mof_C 	C 	0.5124	0.94637	0.95783	-0.058
Mof_C 	C 	0.61801	0.29291	0.87733	0.025
Mof_C 	C 	0.65418	0.2932	0.84139	-0.065
Mof_C 	C 	0.51184	0.10458	0.04146	0.033
Mof_C 	C 	0.5124	0.05363	0.04217	-0.06
Mof_C 	C 	0.38199	0.29291	0.12267	0.024
Mof_C 	C 	0.34582	0.2932	0.15861	-0.068
Mof_C 	C 	0.48816	0.10458	0.95854	0.054
Mof_C 	C 	0.4876	0.05363	0.95783	-0.039
Mof_C 	C 	0.70501	0.12282	0.61847	0.024
Mof_C 	C 	0.70532	0.15912	0.65429	-0.068
Mof_C 	C 	0.70501	0.87718	0.38153	0.025
Mof_C 	C 	0.70532	0.84088	0.34571	-0.065
Mof_C 	C 	0.29499	0.12282	0.38153	0.024
Mof_C 	C 	0.29468	0.15912	0.34571	-0.068
Mof_C 	C 	0.29499	0.87718	0.61847	0.025
Mof_C 	C 	0.29468	0.84088	0.65429	-0.065
Mof_C 	C 	-2.9055e-33	0.5	0.52725	0.006
Mof_C 	C 	1.77253e-33	0.5	0.47275	0.006
Mof_C 	C 	0.52724	0	0.5	0.006
Mof_C 	C 	0.47276	0	0.5	0.006
Mof_C 	C 	0.5	0.52724	-0	0.006
Mof_C 	C 	0.5	0.47276	-0	0.006
Mof_C 	C 	-6.11751e-33	0.5	0.97275	0.04
Mof_C 	C 	-3.55961e-33	0.5	0.02725	-0.027
Mof_C 	C 	0.5	0.02724	-0	-0.027
Mof_C 	C 	0.5	0.97276	-0	0.04
Mof_C 	C 	0.02724	0	0.5	-0.027
Mof_C 	C 	0.97276	0	0.5	0.04
Mof_C 	C 	0.06377	0.43623	0.75	0.365
Mof_C 	C 	0.10201	0.39799	0.75	-0.108
Mof_C 	C 	0.17503	0.32497	0.75	0.024
Mof_C 	C 	0.21345	0.28655	0.75	0.018
Mof_C 	C 	0.93623	0.56377	0.75	0.364
Mof_C 	C 	0.89799	0.60201	0.75	-0.103
Mof_C 	C 	0.82497	0.67503	0.75	0.025
Mof_C 	C 	0.78655	0.71345	0.75	0.02
Mof_C 	C 	0.93623	0.43623	0.25	0.364
Mof_C 	C 	0.89799	0.39799	0.25	-0.104
Mof_C 	C 	0.82497	0.32497	0.25	0.024
Mof_C 	C 	0.78655	0.28655	0.25	0.018
Mof_C 	C 	0.06377	0.56377	0.25	0.365
Mof_C 	C 	0.10201	0.60201	0.25	-0.109
Mof_C 	C 	0.17503	0.67503	0.25	0.023
Mof_C 	C 	0.21345	0.71345	0.25	0.017
Mof_C 	C 	0.7514	0.06406	0.43646	0.362
Mof_C 	C 	0.75119	0.10226	0.39811	-0.106
Mof_C 	C 	0.75058	0.17498	0.32468	0.023
Mof_C 	C 	0.75031	0.21351	0.2863	0.018
Mof_C 	C 	0.7514	0.93594	0.56354	0.361
Mof_C 	C 	0.75119	0.89774	0.60189	-0.101
Mof_C 	C 	0.75058	0.82502	0.67532	0.025
Mof_C 	C 	0.75031	0.78649	0.7137	0.02
Mof_C 	C 	0.2486	0.93594	0.43646	0.361
Mof_C 	C 	0.24881	0.89774	0.39811	-0.102
Mof_C 	C 	0.24942	0.82502	0.32468	0.023
Mof_C 	C 	0.24969	0.78649	0.2863	0.018
Mof_C 	C 	0.2486	0.06406	0.56354	0.362
Mof_C 	C 	0.24881	0.10226	0.60189	-0.107
Mof_C 	C 	0.24942	0.17498	0.67532	0.023
Mof_C 	C 	0.24969	0.21351	0.7137	0.018
Mof_C 	C 	0.43594	0.7486	0.06354	0.363
Mof_C 	C 	0.39774	0.74881	0.10189	-0.107
Mof_C 	C 	0.32502	0.74942	0.17532	0.023
Mof_C 	C 	0.28649	0.74969	0.2137	0.018
Mof_C 	C 	0.56406	0.7486	0.93646	0.361
Mof_C 	C 	0.60226	0.74881	0.89811	-0.1
Mof_C 	C 	0.67498	0.74942	0.82468	0.024
Mof_C 	C 	0.71351	0.74969	0.7863	0.02
Mof_C 	C 	0.43594	0.2514	0.93646	0.36
Mof_C 	C 	0.39774	0.25119	0.89811	-0.101
Mof_C 	C 	0.32502	0.25058	0.82468	0.023
Mof_C 	C 	0.28649	0.25031	0.7863	0.018
Mof_C 	C 	0.56406	0.2514	0.06354	0.363
Mof_C 	C 	0.60226	0.25119	0.10189	-0.107
Mof_C 	C 	0.67498	0.25058	0.17532	0.023
Mof_C 	C 	0.71351	0.25031	0.2137	0.017
Mof_C 	C 	0.93619	0.56381	0.25	0.359
Mof_C 	C 	0.8979	0.6021	0.25	-0.099
Mof_C 	C 	0.8248	0.6752	0.25	0.023
Mof_C 	C 	0.78633	0.71367	0.25	0.019
Mof_C 	C 	0.06381	0.43619	0.25	0.361
Mof_C 	C 	0.1021	0.3979	0.25	-0.106
Mof_C 	C 	0.1752	0.3248	0.25	0.022
Mof_C 	C 	0.21367	0.28633	0.25	0.017
Mof_C 	C 	0.06381	0.56381	0.75	0.361
Mof_C 	C 	0.1021	0.6021	0.75	-0.105
Mof_C 	C 	0.1752	0.6752	0.75	0.024
Mof_C 	C 	0.21367	0.71367	0.75	0.019
Mof_C 	C 	0.93619	0.43619	0.75	0.359
Mof_C 	C 	0.8979	0.3979	0.75	-0.099
Mof_C 	C 	0.8248	0.3248	0.75	0.024
Mof_C 	C 	0.78633	0.28633	0.75	0.02
Mof_C 	C 	0.25141	0.93649	0.56403	0.361
Mof_C 	C 	0.25119	0.89816	0.60221	-0.101
Mof_C 	C 	0.25059	0.82477	0.6749	0.024
Mof_C 	C 	0.25032	0.78642	0.7134	0.019
Mof_C 	C 	0.25141	0.06351	0.43597	0.363
Mof_C 	C 	0.25119	0.10184	0.39779	-0.108
Mof_C 	C 	0.25059	0.17523	0.3251	0.023
Mof_C 	C 	0.25032	0.21358	0.2866	0.017
Mof_C 	C 	0.74859	0.06351	0.56403	0.363
Mof_C 	C 	0.74881	0.10184	0.60221	-0.107
Mof_C 	C 	0.74941	0.17523	0.6749	0.024
Mof_C 	C 	0.74968	0.21358	0.7134	0.019
Mof_C 	C 	0.74859	0.93649	0.43597	0.361
Mof_C 	C 	0.74881	0.89816	0.39779	-0.101
Mof_C 	C 	0.74941	0.82477	0.3251	0.024
Mof_C 	C 	0.74968	0.78642	0.2866	0.02
Mof_C 	C 	0.56351	0.24859	0.93597	0.362
Mof_C 	C 	0.60184	0.24881	0.89779	-0.102
Mof_C 	C 	0.67523	0.24941	0.8251	0.024
Mof_C 	C 	0.71358	0.24968	0.7866	0.019
Mof_C 	C 	0.43649	0.24859	0.06403	0.363
Mof_C 	C 	0.39816	0.24881	0.10221	-0.107
Mof_C 	C 	0.32477	0.24941	0.1749	0.023
Mof_C 	C 	0.28642	0.24968	0.2134	0.017
Mof_C 	C 	0.56351	0.75141	0.06403	0.363
Mof_C 	C 	0.60184	0.75119	0.10221	-0.106
Mof_C 	C 	0.67523	0.75059	0.1749	0.024
Mof_C 	C 	0.71358	0.75032	0.2134	0.019
Mof_C 	C 	0.43649	0.75141	0.93597	0.362
Mof_C 	C 	0.39816	0.75119	0.89779	-0.101
Mof_C 	C 	0.32477	0.75059	0.8251	0.024
Mof_C 	C 	0.28642	0.75032	0.7866	0.02
Mof_C 	C 	0.25001	0.28631	0.7859	-0.063
Mof_C 	C 	0.74999	0.71369	0.7859	-0.062
Mof_C 	C 	0.74999	0.28631	0.2141	-0.063
Mof_C 	C 	0.25001	0.71369	0.2141	-0.063
Mof_C 	C 	0.78631	0.24999	0.2859	-0.063
Mof_C 	C 	0.78631	0.75001	0.7141	-0.062
Mof_C 	C 	0.21369	0.75001	0.2859	-0.063
Mof_C 	C 	0.21369	0.24999	0.7141	-0.063
Mof_C 	C 	0.28594	0.78594	0.25	-0.063
Mof_C 	C 	0.71406	0.78594	0.75	-0.062
Mof_C 	C 	0.28594	0.21406	0.75	-0.063
Mof_C 	C 	0.71406	0.21406	0.25	-0.063
Mof_C 	C 	0.75	0.71422	0.21381	-0.063
Mof_C 	C 	0.25	0.28578	0.21381	-0.063
Mof_C 	C 	0.25	0.71422	0.78619	-0.063
Mof_C 	C 	0.75	0.28578	0.78619	-0.063
Mof_C 	C 	0.21422	0.75	0.71381	-0.063
Mof_C 	C 	0.21422	0.25	0.28619	-0.063
Mof_C 	C 	0.78578	0.25	0.71381	-0.063
Mof_C 	C 	0.78578	0.75	0.28619	-0.063
Mof_C 	C 	0.71382	0.21382	0.75	-0.063
Mof_C 	C 	0.28618	0.21382	0.25	-0.063
Mof_C 	C 	0.71382	0.78618	0.25	-0.063
Mof_C 	C 	0.28618	0.78618	0.75	-0.063
Mof_N 	N 	-1.71708e-32	0.5	0.62908	-0.202
Mof_N 	N 	-3.49164e-33	0.5	0.37092	-0.202
Mof_N 	N 	0.62907	0	0.5	-0.202
Mof_N 	N 	0.37093	0	0.5	-0.202
Mof_N 	N 	0.5	0.62907	-0	-0.202
Mof_N 	N 	0.5	0.37093	-0	-0.202
Mof_N 	N 	-6.49932e-33	0.5	0.87092	-0.204
Mof_N 	N 	4.83972e-34	0.5	0.12908	-0.2
Mof_N 	N 	0.5	0.12907	-0	-0.2
Mof_N 	N 	0.5	0.87093	-0	-0.203
Mof_N 	N 	0.12907	0	0.5	-0.2
Mof_N 	N 	0.87093	0	0.5	-0.203
Mof_O 	O 	0.04804	0.45306	0.70989	-0.412
Mof_O 	O 	0.95196	0.54694	0.70989	-0.398
Mof_O 	O 	0.95196	0.45306	0.29011	-0.398
Mof_O 	O 	0.04804	0.54694	0.29011	-0.412
Mof_O 	O 	0.71125	0.04783	0.45287	-0.411
Mof_O 	O 	0.71125	0.95217	0.54713	-0.397
Mof_O 	O 	0.28875	0.95217	0.45287	-0.397
Mof_O 	O 	0.28875	0.04783	0.54713	-0.411
Mof_O 	O 	0.45231	0.70841	0.0474	-0.411
Mof_O 	O 	0.54769	0.70841	0.9526	-0.392
Mof_O 	O 	0.45231	0.29159	0.9526	-0.392
Mof_O 	O 	0.54769	0.29159	0.0474	-0.411
Mof_O 	O 	0.95306	0.54804	0.79011	-0.397
Mof_O 	O 	0.04694	0.45196	0.79011	-0.412
Mof_O 	O 	0.95306	0.45196	0.20989	-0.398
Mof_O 	O 	0.04694	0.54804	0.20989	-0.413
Mof_O 	O 	0.54783	0.21125	0.04713	-0.413
Mof_O 	O 	0.45217	0.21125	0.95287	-0.397
Mof_O 	O 	0.45217	0.78875	0.04713	-0.412
Mof_O 	O 	0.54783	0.78875	0.95287	-0.396
Mof_O 	O 	0.20841	0.95231	0.4526	-0.394
Mof_O 	O 	0.20841	0.04769	0.5474	-0.41
Mof_O 	O 	0.79159	0.95231	0.5474	-0.393
Mof_O 	O 	0.79159	0.04769	0.4526	-0.409
Mof_O 	O 	0.9528	0.54785	0.2902	-0.392
Mof_O 	O 	0.0472	0.45215	0.2902	-0.411
Mof_O 	O 	0.0472	0.54785	0.7098	-0.411
Mof_O 	O 	0.9528	0.45215	0.7098	-0.392
Mof_O 	O 	0.29159	0.95263	0.54768	-0.393
Mof_O 	O 	0.29159	0.04737	0.45232	-0.411
Mof_O 	O 	0.70841	0.04737	0.54768	-0.411
Mof_O 	O 	0.70841	0.95263	0.45232	-0.393
Mof_O 	O 	0.54711	0.28874	0.9522	-0.397
Mof_O 	O 	0.45289	0.28874	0.0478	-0.412
Mof_O 	O 	0.54711	0.71126	0.0478	-0.412
Mof_O 	O 	0.45289	0.71126	0.9522	-0.397
Mof_O 	O 	0.04785	0.4528	0.2098	-0.41
Mof_O 	O 	0.95215	0.5472	0.2098	-0.394
Mof_O 	O 	0.04785	0.5472	0.7902	-0.409
Mof_O 	O 	0.95215	0.4528	0.7902	-0.393
Mof_O 	O 	0.45263	0.79159	0.95232	-0.393
Mof_O 	O 	0.54737	0.79159	0.04768	-0.409
Mof_O 	O 	0.54737	0.20841	0.95232	-0.395
Mof_O 	O 	0.45263	0.20841	0.04768	-0.411
Mof_O 	O 	0.78874	0.04711	0.5478	-0.412
Mof_O 	O 	0.78874	0.95289	0.4522	-0.396
Mof_O 	O 	0.21126	0.04711	0.4522	-0.413
Mof_O 	O 	0.21126	0.95289	0.5478	-0.397
_end
