data_functionalizedCrystal
_audit_creation_method	'EQeq! by Chris Wilmer'
_symmetry_space_group_name_H-M	'P1'
_symmetry_Int_Tables_number	1
_symmetry_cell_setting	triclinic
loop_
_symmetry_equiv_pos_as_xyz
  x,y,z
_cell_length_a	8.9406
_cell_length_b	12.1306
_cell_length_c	16.6998
_cell_angle_alpha	90
_cell_angle_beta	90
_cell_angle_gamma	109.281
loop_
_atom_site_label
_atom_site_type_symbol
_atom_site_fract_x
_atom_site_fract_y
_atom_site_fract_z
_atom_site_charge
Mof_Nd	Nd	0.06697	0.04804	0.11685	2.484
Mof_Nd	Nd	0.93303	0.95196	0.88315	2.484
Mof_Nd	Nd	0.56697	0.04804	0.38315	2.533
Mof_Nd	Nd	0.43303	0.95196	0.61685	2.533
Mof_H 	H 	0.3719	0.5329	0.0677	0.052
Mof_H 	H 	0.5294	0.7176	0.0683	0.129
Mof_H 	H 	0.7415	0.7952	0.4283	0.07
Mof_H 	H 	0.2585	0.2048	0.5717	0.07
Mof_H 	H 	0.0294	0.7176	0.4317	0.131
Mof_H 	H 	0.4125	0.724	0.8223	0.113
Mof_H 	H 	0.6794	0.3571	0.399	0.083
Mof_H 	H 	0.4017	0.3479	0.3076	0.101
Mof_H 	H 	0.8719	0.5329	0.4323	0.053
Mof_H 	H 	0.0082	0.664	0.0734	0.048
Mof_H 	H 	0.9071	0.4746	0.7755	0.059
Mof_H 	H 	0.7585	0.2048	0.9283	0.067
Mof_H 	H 	0.2415	0.7952	0.0717	0.067
Mof_H 	H 	0.5875	0.276	0.1777	0.113
Mof_H 	H 	0.3805	0.3637	0.965	0.132
Mof_H 	H 	0.8283	0.8182	0.6664	0.107
Mof_H 	H 	0.6195	0.6363	0.035	0.132
Mof_H 	H 	0.2046	0.5052	0.9146	0.078
Mof_H 	H 	0.3283	0.8182	0.8336	0.104
Mof_H 	H 	0.9918	0.336	0.9266	0.048
Mof_H 	H 	0.5929	0.5254	0.2755	0.057
Mof_H 	H 	0.1281	0.4671	0.5677	0.053
Mof_H 	H 	0.7954	0.4948	0.0854	0.078
Mof_H 	H 	0.2954	0.4948	0.4146	0.077
Mof_H 	H 	0.1195	0.6363	0.465	0.131
Mof_H 	H 	0.4706	0.2824	0.9317	0.13
Mof_H 	H 	0.7046	0.5052	0.5854	0.077
Mof_H 	H 	0.0875	0.276	0.3223	0.116
Mof_H 	H 	0.6717	0.1818	0.1664	0.104
Mof_H 	H 	0.1717	0.1818	0.3336	0.107
Mof_H 	H 	0.8206	0.6429	0.899	0.082
Mof_H 	H 	0.4918	0.336	0.5734	0.046
Mof_H 	H 	0.5983	0.6521	0.6924	0.101
Mof_H 	H 	0.8755	0.8606	0.4887	0.085
Mof_H 	H 	0.4071	0.4746	0.7245	0.057
Mof_H 	H 	0.5082	0.664	0.4266	0.046
Mof_H 	H 	0.6281	0.4671	0.9323	0.053
Mof_H 	H 	0.9017	0.3479	0.1924	0.101
Mof_H 	H 	0.9706	0.2824	0.5683	0.131
Mof_H 	H 	0.1245	0.1394	0.5113	0.085
Mof_H 	H 	0.0983	0.6521	0.8076	0.101
Mof_H 	H 	0.3755	0.8606	0.0113	0.085
Mof_H 	H 	0.9125	0.724	0.6777	0.116
Mof_H 	H 	0.8805	0.3637	0.535	0.131
Mof_H 	H 	0.3206	0.6429	0.601	0.083
Mof_H 	H 	0.1794	0.3571	0.101	0.082
Mof_H 	H 	0.6245	0.1394	0.9887	0.085
Mof_H 	H 	0.0929	0.5254	0.2245	0.059
Mof_C 	C 	0.2252	0.6646	0.70602	0.198
Mof_C 	C 	0.87	0.3981	0.00691	0.133
Mof_C 	C 	0.1561	0.8569	0.974	0.45
Mof_C 	C 	0.6561	0.8569	0.526	0.471
Mof_C 	C 	0.0601	0.8903	0.70218	0.508
Mof_C 	C 	0.9968	0.4546	0.66788	0.095
Mof_C 	C 	0.0989	0.2053	0.30009	-0.242
Mof_C 	C 	0.3761	0.304	0.9256	-0.301
Mof_C 	C 	0.2748	0.3354	0.20602	0.198
Mof_C 	C 	0.1213	0.5042	0.61571	-0.056
Mof_C 	C 	0.5601	0.8903	0.79782	0.498
Mof_C 	C 	0.3963	0.3848	0.25942	-0.152
Mof_C 	C 	0.2362	0.6096	0.63552	-0.144
Mof_C 	C 	0.13	0.6019	0.99309	0.133
Mof_C 	C 	0.5108	0.4909	0.2399	-0.048
Mof_C 	C 	0.4892	0.5091	0.7601	-0.048
Mof_C 	C 	0.3777	0.4969	0.44921	-0.102
Mof_C 	C 	0.5989	0.2053	0.19991	-0.229
Mof_C 	C 	0.8787	0.4958	0.38429	-0.056
Mof_C 	C 	0.3787	0.4958	0.11571	-0.055
Mof_C 	C 	0.8761	0.304	0.5744	-0.299
Mof_C 	C 	0.1223	0.5031	0.94921	-0.103
Mof_C 	C 	0.9946	0.4017	0.95601	-0.075
Mof_C 	C 	0.0108	0.4909	0.2601	-0.053
Mof_C 	C 	0.63	0.6019	0.50691	0.132
Mof_C 	C 	0.4399	0.1097	0.20218	0.498
Mof_C 	C 	0.4946	0.4017	0.54399	-0.075
Mof_C 	C 	0.5054	0.5983	0.45601	-0.075
Mof_C 	C 	0.8963	0.3848	0.24058	-0.148
Mof_C 	C 	0.6239	0.696	0.0744	-0.301
Mof_C 	C 	0.7316	0.198	0.55828	0.565
Mof_C 	C 	0.7684	0.802	0.05828	0.569
Mof_C 	C 	0.4011	0.7947	0.80009	-0.229
Mof_C 	C 	0.8777	0.4969	0.05079	-0.103
Mof_C 	C 	0.3439	0.1431	0.474	0.471
Mof_C 	C 	0.7748	0.3354	0.29398	0.198
Mof_C 	C 	0.2313	0.1944	0.5153	-0.215
Mof_C 	C 	0.9892	0.5091	0.7399	-0.053
Mof_C 	C 	0.6213	0.5042	0.88429	-0.055
Mof_C 	C 	0.0032	0.5454	0.33212	0.095
Mof_C 	C 	0.4968	0.4546	0.83212	0.093
Mof_C 	C 	0.7362	0.6096	0.86448	-0.145
Mof_C 	C 	0.37	0.3981	0.49309	0.132
Mof_C 	C 	0.2687	0.8056	0.0153	-0.197
Mof_C 	C 	0.7638	0.3904	0.36448	-0.144
Mof_C 	C 	0.7687	0.8056	0.4847	-0.215
Mof_C 	C 	0.7252	0.6646	0.79398	0.198
Mof_C 	C 	0.9011	0.7947	0.69991	-0.242
Mof_C 	C 	0.6037	0.6152	0.74058	-0.152
Mof_C 	C 	0.1037	0.6152	0.75942	-0.148
Mof_C 	C 	0.5032	0.5454	0.16788	0.093
Mof_C 	C 	0.8439	0.1431	0.026	0.45
Mof_C 	C 	0.2684	0.802	0.44172	0.565
Mof_C 	C 	0.9399	0.1097	0.29782	0.508
Mof_C 	C 	0.2638	0.3904	0.13552	-0.145
Mof_C 	C 	0.1239	0.696	0.4256	-0.299
Mof_C 	C 	0.2316	0.198	0.94172	0.569
Mof_C 	C 	0.6223	0.5031	0.55079	-0.102
Mof_C 	C 	0.0054	0.5983	0.04399	-0.075
Mof_C 	C 	0.7313	0.1944	0.9847	-0.197
Mof_O 	O 	0.8395	0.86441	0.1153	-0.581
Mof_O 	O 	0.5935	0.95463	0.737	-0.584
Mof_O 	O 	0.8408	0.77358	0.78024	-0.344
Mof_O 	O 	0.3531	0.09972	0.14219	-0.567
Mof_O 	O 	0.8701	0.0576	0.99224	-0.673
Mof_O 	O 	0.7338	0.30312	0.01701	-0.185
Mof_O 	O 	0.3395	0.86441	0.3847	-0.583
Mof_O 	O 	0.1998	0.18303	0.01456	-0.609
Mof_O 	O 	0.8002	0.81697	0.98544	-0.609
Mof_O 	O 	0.9024	0.18064	0.09185	-0.492
Mof_O 	O 	0.0935	0.95463	0.763	-0.577
Mof_O 	O 	0.6592	0.22642	0.28024	-0.347
Mof_O 	O 	0.3752	0.35105	0.84774	-0.15
Mof_O 	O 	0.6998	0.18303	0.48544	-0.604
Mof_O 	O 	0.6605	0.13559	0.6153	-0.583
Mof_O 	O 	0.2662	0.69688	0.98299	-0.185
Mof_O 	O 	0.3408	0.77358	0.71976	-0.347
Mof_O 	O 	0.1299	0.9424	0.00776	-0.673
Mof_O 	O 	0.1469	0.90028	0.64219	-0.568
Mof_O 	O 	0.9065	0.04537	0.237	-0.577
Mof_O 	O 	0.4024	0.18064	0.40815	-0.504
Mof_O 	O 	0.8752	0.35105	0.65226	-0.15
Mof_O 	O 	0.1248	0.64895	0.34774	-0.15
Mof_O 	O 	0.3701	0.0576	0.50776	-0.699
Mof_O 	O 	0.6248	0.64895	0.15226	-0.15
Mof_O 	O 	0.6299	0.9424	0.49224	-0.699
Mof_O 	O 	0.0976	0.81936	0.90815	-0.492
Mof_O 	O 	0.3002	0.81697	0.51456	-0.604
Mof_O 	O 	0.1605	0.13559	0.8847	-0.581
Mof_O 	O 	0.8531	0.09972	0.35781	-0.568
Mof_O 	O 	0.7662	0.69688	0.51701	-0.179
Mof_O 	O 	0.4065	0.04537	0.263	-0.584
Mof_O 	O 	0.6469	0.90028	0.85781	-0.567
Mof_O 	O 	0.5976	0.81936	0.59185	-0.504
Mof_O 	O 	0.1592	0.22642	0.21976	-0.344
Mof_O 	O 	0.2338	0.30312	0.48299	-0.179
_end
