data_functionalizedCrystal
_audit_creation_method	'EQeq! by Chris Wilmer'
_symmetry_space_group_name_H-M	'P1'
_symmetry_Int_Tables_number	1
_symmetry_cell_setting	triclinic
loop_
_symmetry_equiv_pos_as_xyz
  x,y,z
_cell_length_a	6.2587
_cell_length_b	15.1538
_cell_length_c	15.1538
_cell_angle_alpha	61.8637
_cell_angle_beta	82.087
_cell_angle_gamma	97.913
loop_
_atom_site_label
_atom_site_type_symbol
_atom_site_fract_x
_atom_site_fract_y
_atom_site_fract_z
_atom_site_charge
Mof_Cu	Cu	0.92905	0.26049	0.43333	0.922
Mof_Cu	Cu	0.36238	0.43333	0.30618	0.923
Mof_Cu	Cu	0.66856	0.30618	0.26049	0.923
Mof_Cu	Cu	0.07095	0.73951	0.56667	0.922
Mof_Cu	Cu	0.63762	0.56667	0.69382	0.923
Mof_Cu	Cu	0.33144	0.69382	0.73951	0.923
Mof_H 	H 	0.3147	0.4396	0.539	0.082
Mof_H 	H 	0.8537	0.539	0.0214	0.082
Mof_H 	H 	0.8751	0.0214	0.4396	0.081
Mof_H 	H 	0.6853	0.5604	0.461	0.082
Mof_H 	H 	0.1463	0.461	0.9786	0.082
Mof_H 	H 	0.1249	0.9786	0.5604	0.081
Mof_C 	C 	0.1855	0.4639	0.5228	-0.083
Mof_C 	C 	0.7182	0.4299	0.3985	0.384
Mof_C 	C 	0.0639	0.4286	0.4713	0.174
Mof_C 	C 	0.8725	0.4667	0.4485	-0.155
Mof_C 	C 	0.7083	0.5228	0.0133	-0.083
Mof_C 	C 	0.1167	0.3985	0.1716	0.384
Mof_C 	C 	0.5352	0.4713	0.1001	0.174
Mof_C 	C 	0.321	0.4485	0.0848	-0.154
Mof_C 	C 	0.7216	0.0133	0.4639	-0.084
Mof_C 	C 	0.2883	0.1716	0.4299	0.383
Mof_C 	C 	0.6353	0.1001	0.4286	0.174
Mof_C 	C 	0.4058	0.0848	0.4667	-0.153
Mof_C 	C 	0.8145	0.5361	0.4772	-0.083
Mof_C 	C 	0.2818	0.5701	0.6015	0.384
Mof_C 	C 	0.9361	0.5714	0.5287	0.174
Mof_C 	C 	0.1275	0.5333	0.5515	-0.155
Mof_C 	C 	0.2917	0.4772	0.9867	-0.083
Mof_C 	C 	0.8833	0.6015	0.8284	0.384
Mof_C 	C 	0.4648	0.5287	0.8999	0.174
Mof_C 	C 	0.679	0.5515	0.9152	-0.154
Mof_C 	C 	0.2784	0.9867	0.5361	-0.084
Mof_C 	C 	0.7117	0.8284	0.5701	0.383
Mof_C 	C 	0.3647	0.8999	0.5714	0.174
Mof_C 	C 	0.5942	0.9152	0.5333	-0.153
Mof_O 	O 	0.13822	0.36365	0.44289	-0.437
Mof_O 	O 	0.71667	0.34634	0.39963	-0.479
Mof_O 	O 	0.58641	0.4846	0.35837	-0.409
Mof_O 	O 	0.58111	0.44289	0.19346	-0.438
Mof_O 	O 	0.1163	0.39963	0.25403	-0.478
Mof_O 	O 	0.94478	0.35837	0.15703	-0.409
Mof_O 	O 	0.77457	0.19346	0.36365	-0.438
Mof_O 	O 	0.37033	0.25403	0.34634	-0.478
Mof_O 	O 	0.10181	0.15703	0.4846	-0.408
Mof_O 	O 	0.86178	0.63635	0.55711	-0.437
Mof_O 	O 	0.28333	0.65366	0.60037	-0.479
Mof_O 	O 	0.41359	0.5154	0.64163	-0.409
Mof_O 	O 	0.41889	0.55711	0.80654	-0.438
Mof_O 	O 	0.8837	0.60037	0.74597	-0.478
Mof_O 	O 	0.05522	0.64163	0.84297	-0.409
Mof_O 	O 	0.22543	0.80654	0.63635	-0.438
Mof_O 	O 	0.62967	0.74597	0.65366	-0.478
Mof_O 	O 	0.89819	0.84297	0.5154	-0.408
_end
