data_functionalizedCrystal
_audit_creation_method	'EQeq! by Chris Wilmer'
_symmetry_space_group_name_H-M	'P1'
_symmetry_Int_Tables_number	1
_symmetry_cell_setting	triclinic
loop_
_symmetry_equiv_pos_as_xyz
  x,y,z
_cell_length_a	5.0919
_cell_length_b	9.2528
_cell_length_c	12.74
_cell_angle_alpha	73.82
_cell_angle_beta	84.58
_cell_angle_gamma	74.13
loop_
_atom_site_label
_atom_site_type_symbol
_atom_site_fract_x
_atom_site_fract_y
_atom_site_fract_z
_atom_site_charge
Mof_Al	Al	0.9621	0.7102	0.15408	4.317
Mof_Al	Al	0.2848	0.0329	0.40222	6.485
Mof_Al	Al	0.7827	0.2777	0.1202	5.317
Mof_Al	Al	0.4618	0.9584	0.86765	6.308
Mof_P 	P 	0.8723	0.0491	0.97186	0.972
Mof_P 	P 	0.3611	0.1009	0.6181	1.095
Mof_P 	P 	0.2101	0.3507	0.23563	1.376
Mof_P 	P 	0.5309	0.6378	0.03584	1.378
Mof_P 	P 	0.8787	0.9409	0.29806	1.216
Mof_O 	O 	0.3381	0.0062	0.5399	-1.781
Mof_O 	O 	0.4136	0.9846	0.7311	-1.789
Mof_O 	O 	0.0492	0.929	0.3957	-1.454
Mof_O 	O 	0.7007	0.0585	0.8762	-1.864
Mof_O 	O 	0.6552	0.6624	0.1307	-1.447
Mof_O 	O 	0.1677	0.0456	0.9316	-1.504
Mof_O 	O 	0.5696	0.7605	0.9277	-1.988
Mof_O 	O 	0.085	0.3273	0.1392	-1.305
Mof_O 	O 	0.5831	0.9569	0.3385	-1.93
Mof_O 	O 	0.1638	0.2327	0.3425	-1.735
Mof_O 	O 	0.516	0.3286	0.2158	-1.621
Mof_O 	O 	0.2258	0.6563	0.0586	-1.071
Mof_O 	O 	0.852	0.9092	0.062	-1.344
Mof_O 	O 	0.9097	0.0794	0.2061	-1.766
Mof_O 	O 	0.5683	0.1921	0.5849	-0.649
Mof_O 	O 	0.9788	0.7879	0.2655	-1.53
Mof_O 	O 	0.0809	0.5117	0.2542	-0.831
Mof_O 	O 	0.6643	0.4783	0.0152	-1.286
Mof_O 	O 	0.7623	0.2034	0.0042	-1.381
Mof_O 	O 	0.0708	0.2204	0.6216	-0.188
_end
