data_functionalizedCrystal
_audit_creation_method	'EQeq! by Chris Wilmer'
_symmetry_space_group_name_H-M	'P1'
_symmetry_Int_Tables_number	1
_symmetry_cell_setting	triclinic
loop_
_symmetry_equiv_pos_as_xyz
  x,y,z
_cell_length_a	18.6019
_cell_length_b	18.6019
_cell_length_c	18.6019
_cell_angle_alpha	60
_cell_angle_beta	60
_cell_angle_gamma	60
loop_
_atom_site_label
_atom_site_type_symbol
_atom_site_fract_x
_atom_site_fract_y
_atom_site_fract_z
_atom_site_charge
Mof_Cu	Cu	0.07046	0.5	0.92954	0.903
Mof_Cu	Cu	0.5	0.07046	0.5	0.903
Mof_Cu	Cu	0.92954	0.5	0.07046	0.903
Mof_Cu	Cu	0.5	0.92954	0.5	0.903
Mof_Cu	Cu	0.07046	0.92954	0.5	0.903
Mof_Cu	Cu	0.5	0.5	0.92954	0.903
Mof_Cu	Cu	0.92954	0.07046	0.5	0.903
Mof_Cu	Cu	0.5	0.5	0.07046	0.903
Mof_Cu	Cu	0.07046	0.5	0.5	0.903
Mof_Cu	Cu	0.5	0.92954	0.07046	0.903
Mof_Cu	Cu	0.92954	0.5	0.5	0.903
Mof_Cu	Cu	0.5	0.07046	0.92954	0.903
Mof_H 	H 	0.7718	0.465	0.9914	0.05
Mof_H 	H 	0.465	0.7718	0.7718	0.051
Mof_H 	H 	0.9914	0.7718	0.7718	0.05
Mof_H 	H 	0.7718	0.9914	0.465	0.05
Mof_H 	H 	0.7718	0.9914	0.7718	0.05
Mof_H 	H 	0.465	0.7718	0.9914	0.05
Mof_H 	H 	0.9914	0.7718	0.465	0.05
Mof_H 	H 	0.7718	0.465	0.7718	0.051
Mof_H 	H 	0.7718	0.7718	0.465	0.051
Mof_H 	H 	0.465	0.9914	0.7718	0.05
Mof_H 	H 	0.9914	0.465	0.7718	0.05
Mof_H 	H 	0.7718	0.7718	0.9914	0.05
Mof_H 	H 	0.535	0.2282	0.0086	0.05
Mof_H 	H 	0.2282	0.535	0.2282	0.051
Mof_H 	H 	0.2282	0.0086	0.2282	0.05
Mof_H 	H 	0.0086	0.2282	0.535	0.05
Mof_H 	H 	0.0086	0.2282	0.2282	0.05
Mof_H 	H 	0.2282	0.535	0.0086	0.05
Mof_H 	H 	0.2282	0.0086	0.535	0.05
Mof_H 	H 	0.535	0.2282	0.2282	0.051
Mof_H 	H 	0.2282	0.2282	0.535	0.051
Mof_H 	H 	0.0086	0.535	0.2282	0.05
Mof_H 	H 	0.535	0.0086	0.2282	0.05
Mof_H 	H 	0.2282	0.2282	0.0086	0.05
Mof_C 	C 	0.801	0.466	0.932	0.047
Mof_C 	C 	0.466	0.801	0.801	0.048
Mof_C 	C 	0.932	0.801	0.801	0.04
Mof_C 	C 	0.801	0.932	0.466	0.047
Mof_C 	C 	0.801	0.932	0.801	0.04
Mof_C 	C 	0.466	0.801	0.932	0.047
Mof_C 	C 	0.932	0.801	0.466	0.047
Mof_C 	C 	0.801	0.466	0.801	0.048
Mof_C 	C 	0.801	0.801	0.466	0.048
Mof_C 	C 	0.466	0.932	0.801	0.047
Mof_C 	C 	0.932	0.466	0.801	0.047
Mof_C 	C 	0.801	0.801	0.932	0.04
Mof_C 	C 	0.534	0.199	0.068	0.047
Mof_C 	C 	0.199	0.534	0.199	0.048
Mof_C 	C 	0.199	0.068	0.199	0.04
Mof_C 	C 	0.068	0.199	0.534	0.047
Mof_C 	C 	0.068	0.199	0.199	0.04
Mof_C 	C 	0.199	0.534	0.068	0.047
Mof_C 	C 	0.199	0.068	0.534	0.047
Mof_C 	C 	0.534	0.199	0.199	0.048
Mof_C 	C 	0.199	0.199	0.534	0.048
Mof_C 	C 	0.068	0.534	0.199	0.047
Mof_C 	C 	0.534	0.068	0.199	0.047
Mof_C 	C 	0.199	0.199	0.068	0.04
Mof_C 	C 	0.8893	0.4667	0.8893	-0.102
Mof_C 	C 	0.9312	0.4756	0.9312	0.336
Mof_C 	C 	0.4667	0.8893	0.7547	-0.104
Mof_C 	C 	0.4756	0.9312	0.662	0.348
Mof_C 	C 	0.8893	0.7547	0.8893	-0.098
Mof_C 	C 	0.9312	0.662	0.9312	0.329
Mof_C 	C 	0.7547	0.8893	0.4667	-0.104
Mof_C 	C 	0.662	0.9312	0.4756	0.348
Mof_C 	C 	0.8893	0.8893	0.7547	-0.098
Mof_C 	C 	0.9312	0.9312	0.662	0.329
Mof_C 	C 	0.4667	0.7547	0.8893	-0.104
Mof_C 	C 	0.4756	0.662	0.9312	0.348
Mof_C 	C 	0.8893	0.8893	0.4667	-0.102
Mof_C 	C 	0.9312	0.9312	0.4756	0.336
Mof_C 	C 	0.7547	0.4667	0.8893	-0.104
Mof_C 	C 	0.662	0.4756	0.9312	0.348
Mof_C 	C 	0.8893	0.7547	0.4667	-0.104
Mof_C 	C 	0.9312	0.662	0.4756	0.348
Mof_C 	C 	0.4667	0.8893	0.8893	-0.102
Mof_C 	C 	0.4756	0.9312	0.9312	0.336
Mof_C 	C 	0.8893	0.4667	0.7547	-0.104
Mof_C 	C 	0.9312	0.4756	0.662	0.348
Mof_C 	C 	0.7547	0.8893	0.8893	-0.098
Mof_C 	C 	0.662	0.9312	0.9312	0.329
Mof_C 	C 	0.5333	0.1107	0.1107	-0.102
Mof_C 	C 	0.5244	0.0688	0.0688	0.336
Mof_C 	C 	0.1107	0.5333	0.2453	-0.104
Mof_C 	C 	0.0688	0.5244	0.338	0.348
Mof_C 	C 	0.2453	0.1107	0.1107	-0.098
Mof_C 	C 	0.338	0.0688	0.0688	0.329
Mof_C 	C 	0.1107	0.2453	0.5333	-0.104
Mof_C 	C 	0.0688	0.338	0.5244	0.348
Mof_C 	C 	0.1107	0.1107	0.2453	-0.098
Mof_C 	C 	0.0688	0.0688	0.338	0.329
Mof_C 	C 	0.2453	0.5333	0.1107	-0.104
Mof_C 	C 	0.338	0.5244	0.0688	0.348
Mof_C 	C 	0.1107	0.1107	0.5333	-0.102
Mof_C 	C 	0.0688	0.0688	0.5244	0.336
Mof_C 	C 	0.5333	0.2453	0.1107	-0.104
Mof_C 	C 	0.5244	0.338	0.0688	0.348
Mof_C 	C 	0.2453	0.1107	0.5333	-0.104
Mof_C 	C 	0.338	0.0688	0.5244	0.348
Mof_C 	C 	0.1107	0.5333	0.1107	-0.102
Mof_C 	C 	0.0688	0.5244	0.0688	0.336
Mof_C 	C 	0.5333	0.1107	0.2453	-0.104
Mof_C 	C 	0.5244	0.0688	0.338	0.348
Mof_C 	C 	0.1107	0.2453	0.1107	-0.098
Mof_C 	C 	0.0688	0.338	0.0688	0.329
Mof_O 	O 	0.0089	0.4787	0.8861	-0.39
Mof_O 	O 	0.4787	0.0089	0.6263	-0.396
Mof_O 	O 	0.8861	0.6263	0.0089	-0.387
Mof_O 	O 	0.6263	0.8861	0.4787	-0.398
Mof_O 	O 	0.0089	0.8861	0.6263	-0.387
Mof_O 	O 	0.4787	0.6263	0.8861	-0.398
Mof_O 	O 	0.8861	0.0089	0.4787	-0.39
Mof_O 	O 	0.6263	0.4787	0.0089	-0.396
Mof_O 	O 	0.0089	0.6263	0.4787	-0.396
Mof_O 	O 	0.4787	0.8861	0.0089	-0.39
Mof_O 	O 	0.8861	0.4787	0.6263	-0.398
Mof_O 	O 	0.6263	0.0089	0.8861	-0.387
Mof_O 	O 	0.5213	0.9911	0.1139	-0.39
Mof_O 	O 	0.9911	0.5213	0.3737	-0.396
Mof_O 	O 	0.3737	0.1139	0.9911	-0.387
Mof_O 	O 	0.1139	0.3737	0.5213	-0.398
Mof_O 	O 	0.1139	0.9911	0.3737	-0.387
Mof_O 	O 	0.3737	0.5213	0.1139	-0.398
Mof_O 	O 	0.9911	0.1139	0.5213	-0.39
Mof_O 	O 	0.5213	0.3737	0.9911	-0.396
Mof_O 	O 	0.3737	0.9911	0.5213	-0.396
Mof_O 	O 	0.1139	0.5213	0.9911	-0.39
Mof_O 	O 	0.5213	0.1139	0.3737	-0.398
Mof_O 	O 	0.9911	0.3737	0.1139	-0.387
Mof_O 	O 	0.9911	0.5213	0.1139	-0.39
Mof_O 	O 	0.5213	0.9911	0.3737	-0.396
Mof_O 	O 	0.1139	0.3737	0.9911	-0.387
Mof_O 	O 	0.3737	0.1139	0.5213	-0.398
Mof_O 	O 	0.9911	0.1139	0.3737	-0.387
Mof_O 	O 	0.5213	0.3737	0.1139	-0.398
Mof_O 	O 	0.1139	0.9911	0.5213	-0.39
Mof_O 	O 	0.3737	0.5213	0.9911	-0.396
Mof_O 	O 	0.9911	0.3737	0.5213	-0.396
Mof_O 	O 	0.5213	0.1139	0.9911	-0.39
Mof_O 	O 	0.1139	0.5213	0.3737	-0.398
Mof_O 	O 	0.3737	0.9911	0.1139	-0.387
Mof_O 	O 	0.4787	0.0089	0.8861	-0.39
Mof_O 	O 	0.0089	0.4787	0.6263	-0.396
Mof_O 	O 	0.6263	0.8861	0.0089	-0.387
Mof_O 	O 	0.8861	0.6263	0.4787	-0.398
Mof_O 	O 	0.8861	0.0089	0.6263	-0.387
Mof_O 	O 	0.6263	0.4787	0.8861	-0.398
Mof_O 	O 	0.0089	0.8861	0.4787	-0.39
Mof_O 	O 	0.4787	0.6263	0.0089	-0.396
Mof_O 	O 	0.6263	0.0089	0.4787	-0.396
Mof_O 	O 	0.8861	0.4787	0.0089	-0.39
Mof_O 	O 	0.4787	0.8861	0.6263	-0.398
Mof_O 	O 	0.0089	0.6263	0.8861	-0.387
_end
