data_functionalizedCrystal
_audit_creation_method	'EQeq! by Chris Wilmer'
_symmetry_space_group_name_H-M	'P1'
_symmetry_Int_Tables_number	1
_symmetry_cell_setting	triclinic
loop_
_symmetry_equiv_pos_as_xyz
  x,y,z
_cell_length_a	9.3568
_cell_length_b	9.5026
_cell_length_c	12.1282
_cell_angle_alpha	90
_cell_angle_beta	103.912
_cell_angle_gamma	90
loop_
_atom_site_label
_atom_site_type_symbol
_atom_site_fract_x
_atom_site_fract_y
_atom_site_fract_z
_atom_site_charge
Mof_U 	U 	0.78256	0.67786	0.38023	0.032
Mof_U 	U 	0.71744	0.17786	0.11977	-0.008
Mof_U 	U 	0.21744	0.32214	0.61977	0.009
Mof_U 	U 	0.28256	0.82214	0.88023	0.047
Mof_Co	Co	0.5	0.5	0.5	1.071
Mof_Co	Co	-0	0	-0	0.977
Mof_P 	P 	0.59105	0.81747	0.11585	0.46
Mof_P 	P 	0.90895	0.31747	0.38415	0.497
Mof_P 	P 	0.40895	0.18253	0.88415	0.421
Mof_P 	P 	0.09105	0.68253	0.61585	0.388
Mof_H 	H 	0.7909	0.6926	0.0844	0.193
Mof_H 	H 	0.6475	0.66	0.9861	0.256
Mof_H 	H 	0.7091	0.1926	0.4156	0.124
Mof_H 	H 	0.8525	0.16	0.5139	0.163
Mof_H 	H 	0.2091	0.3074	0.9156	0.101
Mof_H 	H 	0.3525	0.34	0.0139	0.066
Mof_H 	H 	0.2909	0.8074	0.5844	0.164
Mof_H 	H 	0.1475	0.84	0.4861	0.167
Mof_C 	C 	0.6846	0.67	0.0693	-0.528
Mof_C 	C 	0.668	0.5301	0.124	0.427
Mof_C 	C 	0.8154	0.17	0.4307	-0.361
Mof_C 	C 	0.832	0.0301	0.376	0.303
Mof_C 	C 	0.3154	0.33	0.9307	-0.251
Mof_C 	C 	0.332	0.4699	0.876	0.346
Mof_C 	C 	0.1846	0.83	0.5693	-0.427
Mof_C 	C 	0.168	0.9699	0.624	0.472
Mof_O 	O 	0.6235	0.816	0.2443	-0.168
Mof_O 	O 	0.4253	0.8046	0.0653	-0.211
Mof_O 	O 	0.6541	0.9473	0.0696	-0.186
Mof_O 	O 	0.6533	0.5282	0.2257	-0.245
Mof_O 	O 	0.6736	0.4209	0.0663	-0.253
Mof_O 	O 	0.6293	0.6584	0.4456	-0.262
Mof_O 	O 	0.8765	0.316	0.2557	-0.173
Mof_O 	O 	0.0747	0.3046	0.4347	-0.251
Mof_O 	O 	0.8459	0.4473	0.4304	-0.201
Mof_O 	O 	0.8467	0.0282	0.2743	-0.226
Mof_O 	O 	0.8264	0.9209	0.4337	-0.132
Mof_O 	O 	0.8707	0.1584	0.0544	-0.266
Mof_O 	O 	0.3765	0.184	0.7557	-0.191
Mof_O 	O 	0.5747	0.1954	0.9347	-0.152
Mof_O 	O 	0.3459	0.0527	0.9304	-0.226
Mof_O 	O 	0.3467	0.4718	0.7743	-0.216
Mof_O 	O 	0.3264	0.5791	0.9337	-0.186
Mof_O 	O 	0.3707	0.3416	0.5544	-0.273
Mof_O 	O 	0.1235	0.684	0.7443	-0.184
Mof_O 	O 	0.9253	0.6954	0.5653	-0.116
Mof_O 	O 	0.1541	0.5527	0.5696	-0.224
Mof_O 	O 	0.1533	0.9718	0.7257	-0.229
Mof_O 	O 	0.1736	0.0791	0.5663	-0.309
Mof_O 	O 	0.1293	0.8416	0.9456	-0.229
_end
