data_functionalizedCrystal
_audit_creation_method	'EQeq! by Chris Wilmer'
_symmetry_space_group_name_H-M	'P1'
_symmetry_Int_Tables_number	1
_symmetry_cell_setting	triclinic
loop_
_symmetry_equiv_pos_as_xyz
  x,y,z
_cell_length_a	10.5303
_cell_length_b	10.5303
_cell_length_c	10.8801
_cell_angle_alpha	78.9016
_cell_angle_beta	62.4926
_cell_angle_gamma	108.899
loop_
_atom_site_label
_atom_site_type_symbol
_atom_site_fract_x
_atom_site_fract_y
_atom_site_fract_z
_atom_site_charge
Mof_Eu	Eu	0.55176	0.36522	0.37971	2.159
Mof_Eu	Eu	0.24493	0.93147	0.12029	2.149
Mof_Eu	Eu	0.44824	0.63478	0.62029	2.159
Mof_Eu	Eu	0.75507	0.06853	0.87971	2.149
Mof_H 	H 	0.9684	0.3872	0.312	0.245
Mof_H 	H 	0.107	0.4927	0.1425	0.238
Mof_H 	H 	0.603	0.453	0.788	0.139
Mof_H 	H 	0.1992	0.2804	0.188	0.246
Mof_H 	H 	0.1352	0.2495	0.3575	0.245
Mof_H 	H 	0.741	0.391	0.712	0.139
Mof_H 	H 	0.0316	0.6128	0.688	0.246
Mof_H 	H 	0.893	0.5073	0.8575	0.239
Mof_H 	H 	0.397	0.547	0.212	0.139
Mof_H 	H 	0.8008	0.7196	0.812	0.246
Mof_H 	H 	0.8648	0.7505	0.6425	0.245
Mof_H 	H 	0.259	0.609	0.288	0.139
Mof_C 	C 	0.9024	0.351	0.1678	0.615
Mof_C 	C 	0.9911	0.4491	0.2182	-0.799
Mof_C 	C 	0.9516	0.5719	0.2437	0.728
Mof_C 	C 	0.5995	0.3751	0.6236	0.529
Mof_C 	C 	0.0188	0.0702	0.3322	0.605
Mof_C 	C 	0.1673	0.2093	0.2818	-0.805
Mof_C 	C 	0.3156	0.1953	0.2563	0.725
Mof_C 	C 	0.4987	0.2231	0.8764	0.528
Mof_C 	C 	0.0976	0.649	0.8322	0.615
Mof_C 	C 	0.0089	0.5509	0.7818	-0.799
Mof_C 	C 	0.0484	0.4281	0.7563	0.728
Mof_C 	C 	0.4005	0.6249	0.3764	0.529
Mof_C 	C 	0.9812	0.9298	0.6678	0.605
Mof_C 	C 	0.8327	0.7907	0.7182	-0.805
Mof_C 	C 	0.6844	0.8047	0.7437	0.725
Mof_C 	C 	0.5013	0.7769	0.1236	0.528
Mof_C 	C 	0.6254	0.3754	0.75	-0.543
Mof_C 	C 	0.3746	0.6246	0.25	-0.543
Mof_O 	O 	0.7537	0.3097	0.2254	-0.615
Mof_O 	O 	0.9839	0.3126	0.0721	-0.406
Mof_O 	O 	0.0683	0.6858	0.2141	-0.695
Mof_O 	O 	0.5389	0.4508	0.5917	-0.697
Mof_O 	O 	0.6317	0.2932	0.5583	-0.542
Mof_O 	O 	0.8135	0.5573	0.2918	-0.624
Mof_O 	O 	0.0351	0.9791	0.2746	-0.613
Mof_O 	O 	0.8847	0.056	0.4279	-0.404
Mof_O 	O 	0.3999	0.2824	0.2859	-0.691
Mof_O 	O 	0.5425	0.1306	0.9083	-0.696
Mof_O 	O 	0.3515	0.19	0.9417	-0.541
Mof_O 	O 	0.3491	0.1053	0.2082	-0.62
Mof_O 	O 	0.2463	0.6903	0.7746	-0.615
Mof_O 	O 	0.0161	0.6874	0.9279	-0.406
Mof_O 	O 	0.9317	0.3142	0.7859	-0.695
Mof_O 	O 	0.4611	0.5492	0.4083	-0.697
Mof_O 	O 	0.3683	0.7068	0.4417	-0.542
Mof_O 	O 	0.1865	0.4427	0.7082	-0.624
Mof_O 	O 	0.9649	0.0209	0.7254	-0.613
Mof_O 	O 	0.1153	0.944	0.5721	-0.404
Mof_O 	O 	0.6001	0.7176	0.7141	-0.691
Mof_O 	O 	0.4575	0.8694	0.0917	-0.696
Mof_O 	O 	0.6485	0.81	0.0583	-0.541
Mof_O 	O 	0.6509	0.8947	0.7918	-0.62
_end
