data_functionalizedCrystal
_audit_creation_method	'EQeq! by Chris Wilmer'
_symmetry_space_group_name_H-M	'P1'
_symmetry_Int_Tables_number	1
_symmetry_cell_setting	triclinic
loop_
_symmetry_equiv_pos_as_xyz
  x,y,z
_cell_length_a	18.8175
_cell_length_b	18.8175
_cell_length_c	19.0483
_cell_angle_alpha	90
_cell_angle_beta	90
_cell_angle_gamma	120
loop_
_atom_site_label
_atom_site_type_symbol
_atom_site_fract_x
_atom_site_fract_y
_atom_site_fract_z
_atom_site_charge
Mof_Cd	Cd	0.67081	0.05418	0.37694	0.383
Mof_N 	N 	0.6889	0.0649	0.25837	-0.224
Mof_N 	N 	0.5702	0.0714	0.33504	-0.235
Mof_C 	C 	0.6194	0.0568	0.22524	-0.014
Mof_C 	C 	0.7333	0.0549	0.20889	0.505
Mof_C 	C 	0.5577	0.064	0.268	0.19
Mof_H 	H 	0.529	0.075	0.36	0.103
Mof_C 	C 	0.6258	0.0409	0.15491	-0.03
Mof_N 	N 	0.698	0.0406	0.14545	-0.23
Mof_C 	C 	0.8154	0.0645	0.2218	-1.518
Mof_O 	O 	0.4969	0.063	0.23535	-0.296
Mof_C 	C 	0.5724	0.0238	0.09151	0.239
Mof_H 	H 	0.827	0.047	0.187	0.631
Mof_H 	H 	0.819	0.041	0.261	0.552
Mof_H 	H 	0.878	0.132	0.225	0.254
Mof_O 	O 	0.5959	0.0083	0.0346	-0.294
Mof_N 	N 	0.5041	0.025	0.0972	-0.362
Mof_H 	H 	0.475	0.003	0.14	0.136
Mof_H 	H 	0.472	0.007	0.067	0.206
Mof_Cd	Cd	0.33748	0.38751	0.71027	0.384
Mof_N 	N 	0.35557	0.39823	0.5917	-0.223
Mof_N 	N 	0.23687	0.40473	0.66837	-0.234
Mof_C 	C 	0.28607	0.39013	0.55857	-0.013
Mof_C 	C 	0.39997	0.38823	0.54222	0.505
Mof_C 	C 	0.22437	0.39733	0.60133	0.191
Mof_H 	H 	0.19567	0.40833	0.69333	0.104
Mof_C 	C 	0.29247	0.37423	0.48824	-0.029
Mof_N 	N 	0.36467	0.37393	0.47878	-0.231
Mof_C 	C 	0.48207	0.39783	0.55513	-1.514
Mof_O 	O 	0.16357	0.39633	0.56868	-0.296
Mof_C 	C 	0.23907	0.35713	0.42484	0.239
Mof_H 	H 	0.49367	0.38033	0.52033	0.629
Mof_H 	H 	0.48567	0.37433	0.59433	0.55
Mof_H 	H 	0.54467	0.46533	0.55833	0.253
Mof_O 	O 	0.26257	0.34163	0.36793	-0.295
Mof_N 	N 	0.17077	0.35833	0.43053	-0.362
Mof_H 	H 	0.14167	0.33633	0.47333	0.136
Mof_H 	H 	0.13867	0.34033	0.40033	0.206
Mof_Cd	Cd	0.00414	0.72085	0.04361	0.381
Mof_N 	N 	0.02223	0.73157	0.92504	-0.222
Mof_N 	N 	0.90353	0.73807	0.00171	-0.233
Mof_C 	C 	0.95273	0.72347	0.89191	-0.014
Mof_C 	C 	0.06663	0.72157	0.87556	0.505
Mof_C 	C 	0.89103	0.73067	0.93467	0.191
Mof_H 	H 	0.86233	0.74167	0.02667	0.104
Mof_C 	C 	0.95913	0.70757	0.82158	-0.03
Mof_N 	N 	0.03133	0.70727	0.81212	-0.23
Mof_C 	C 	0.14873	0.73117	0.88847	-1.515
Mof_O 	O 	0.83023	0.72967	0.90202	-0.296
Mof_C 	C 	0.90573	0.69047	0.75818	0.239
Mof_H 	H 	0.16033	0.71367	0.85367	0.629
Mof_H 	H 	0.15233	0.70767	0.92767	0.551
Mof_H 	H 	0.21133	0.79867	0.89167	0.254
Mof_O 	O 	0.92923	0.67497	0.70127	-0.295
Mof_N 	N 	0.83743	0.69167	0.76387	-0.362
Mof_H 	H 	0.80833	0.66967	0.80667	0.136
Mof_H 	H 	0.80533	0.67367	0.73367	0.206
Mof_Cd	Cd	0.94582	0.61663	0.37694	0.384
Mof_N 	N 	0.9351	0.624	0.25837	-0.223
Mof_N 	N 	0.9286	0.4988	0.33504	-0.234
Mof_C 	C 	0.9432	0.5626	0.22524	-0.013
Mof_C 	C 	0.9451	0.6784	0.20889	0.505
Mof_C 	C 	0.936	0.4937	0.268	0.191
Mof_H 	H 	0.925	0.454	0.36	0.104
Mof_C 	C 	0.9591	0.5849	0.15491	-0.029
Mof_N 	N 	0.9594	0.6574	0.14545	-0.23
Mof_C 	C 	0.9355	0.7509	0.2218	-1.516
Mof_O 	O 	0.937	0.4339	0.23535	-0.296
Mof_C 	C 	0.9762	0.5486	0.09151	0.239
Mof_H 	H 	0.953	0.78	0.187	0.63
Mof_H 	H 	0.959	0.778	0.261	0.551
Mof_H 	H 	0.868	0.746	0.225	0.254
Mof_O 	O 	0.9917	0.5876	0.0346	-0.294
Mof_N 	N 	0.975	0.4791	0.0972	-0.362
Mof_H 	H 	0.997	0.472	0.14	0.136
Mof_H 	H 	0.993	0.465	0.067	0.206
Mof_Cd	Cd	0.61249	0.94996	0.71027	0.384
Mof_N 	N 	0.60177	0.95733	0.5917	-0.223
Mof_N 	N 	0.59527	0.83213	0.66837	-0.234
Mof_C 	C 	0.60987	0.89593	0.55857	-0.013
Mof_C 	C 	0.61177	0.01173	0.54222	0.505
Mof_C 	C 	0.60267	0.82703	0.60133	0.191
Mof_H 	H 	0.59167	0.78733	0.69333	0.104
Mof_C 	C 	0.62577	0.91823	0.48824	-0.029
Mof_N 	N 	0.62607	0.99073	0.47878	-0.231
Mof_C 	C 	0.60217	0.08423	0.55513	-1.514
Mof_O 	O 	0.60367	0.76723	0.56868	-0.296
Mof_C 	C 	0.64287	0.88193	0.42484	0.239
Mof_H 	H 	0.61967	0.11333	0.52033	0.629
Mof_H 	H 	0.62567	0.11133	0.59433	0.55
Mof_H 	H 	0.53467	0.07933	0.55833	0.253
Mof_O 	O 	0.65837	0.92093	0.36793	-0.295
Mof_N 	N 	0.64167	0.81243	0.43053	-0.362
Mof_H 	H 	0.66367	0.80533	0.47333	0.136
Mof_H 	H 	0.65967	0.79833	0.40033	0.206
Mof_Cd	Cd	0.27915	0.2833	0.04361	0.384
Mof_N 	N 	0.26843	0.29067	0.92504	-0.223
Mof_N 	N 	0.26193	0.16547	0.00171	-0.234
Mof_C 	C 	0.27653	0.22927	0.89191	-0.013
Mof_C 	C 	0.27843	0.34507	0.87556	0.505
Mof_C 	C 	0.26933	0.16037	0.93467	0.191
Mof_H 	H 	0.25833	0.12067	0.02667	0.104
Mof_C 	C 	0.29243	0.25157	0.82158	-0.029
Mof_N 	N 	0.29273	0.32407	0.81212	-0.231
Mof_C 	C 	0.26883	0.41757	0.88847	-1.514
Mof_O 	O 	0.27033	0.10057	0.90202	-0.296
Mof_C 	C 	0.30953	0.21527	0.75818	0.238
Mof_H 	H 	0.28633	0.44667	0.85367	0.629
Mof_H 	H 	0.29233	0.44467	0.92767	0.551
Mof_H 	H 	0.20133	0.41267	0.89167	0.254
Mof_O 	O 	0.32503	0.25427	0.70127	-0.295
Mof_N 	N 	0.30833	0.14577	0.76387	-0.362
Mof_H 	H 	0.33033	0.13867	0.80667	0.136
Mof_H 	H 	0.32633	0.13167	0.73367	0.205
Mof_Cd	Cd	0.38337	0.32919	0.37694	0.384
Mof_N 	N 	0.376	0.3111	0.25837	-0.223
Mof_N 	N 	0.5012	0.4298	0.33504	-0.234
Mof_C 	C 	0.4374	0.3806	0.22524	-0.013
Mof_C 	C 	0.3216	0.2667	0.20889	0.505
Mof_C 	C 	0.5063	0.4423	0.268	0.191
Mof_H 	H 	0.546	0.471	0.36	0.104
Mof_C 	C 	0.4151	0.3742	0.15491	-0.029
Mof_N 	N 	0.3426	0.302	0.14545	-0.231
Mof_C 	C 	0.2491	0.1846	0.2218	-1.515
Mof_O 	O 	0.5661	0.5031	0.23535	-0.296
Mof_C 	C 	0.4514	0.4276	0.09151	0.239
Mof_H 	H 	0.22	0.173	0.187	0.629
Mof_H 	H 	0.222	0.181	0.261	0.551
Mof_H 	H 	0.254	0.122	0.225	0.254
Mof_O 	O 	0.4124	0.4041	0.0346	-0.295
Mof_N 	N 	0.5209	0.4959	0.0972	-0.362
Mof_H 	H 	0.528	0.525	0.14	0.136
Mof_H 	H 	0.535	0.528	0.067	0.206
Mof_Cd	Cd	0.05004	0.66252	0.71027	0.384
Mof_N 	N 	0.04267	0.64443	0.5917	-0.223
Mof_N 	N 	0.16787	0.76313	0.66837	-0.234
Mof_C 	C 	0.10407	0.71393	0.55857	-0.013
Mof_C 	C 	0.98827	0.60003	0.54222	0.504
Mof_C 	C 	0.17297	0.77563	0.60133	0.191
Mof_H 	H 	0.21267	0.80433	0.69333	0.104
Mof_C 	C 	0.08177	0.70753	0.48824	-0.029
Mof_N 	N 	0.00927	0.63533	0.47878	-0.23
Mof_C 	C 	0.91577	0.51793	0.55513	-1.514
Mof_O 	O 	0.23277	0.83643	0.56868	-0.296
Mof_C 	C 	0.11807	0.76093	0.42484	0.239
Mof_H 	H 	0.88667	0.50633	0.52033	0.629
Mof_H 	H 	0.88867	0.51433	0.59433	0.55
Mof_H 	H 	0.92067	0.45533	0.55833	0.253
Mof_O 	O 	0.07907	0.73743	0.36793	-0.295
Mof_N 	N 	0.18757	0.82923	0.43053	-0.362
Mof_H 	H 	0.19467	0.85833	0.47333	0.136
Mof_H 	H 	0.20167	0.86133	0.40033	0.206
Mof_Cd	Cd	0.7167	0.99586	0.04361	0.382
Mof_N 	N 	0.70933	0.97777	0.92504	-0.223
Mof_N 	N 	0.83453	0.09647	0.00171	-0.232
Mof_C 	C 	0.77073	0.04727	0.89191	-0.014
Mof_C 	C 	0.65493	0.93337	0.87556	0.505
Mof_C 	C 	0.83963	0.10897	0.93467	0.189
Mof_H 	H 	0.87933	0.13767	0.02667	0.104
Mof_C 	C 	0.74843	0.04087	0.82158	-0.03
Mof_N 	N 	0.67593	0.96867	0.81212	-0.23
Mof_C 	C 	0.58243	0.85127	0.88847	-1.514
Mof_O 	O 	0.89943	0.16977	0.90202	-0.296
Mof_C 	C 	0.78473	0.09427	0.75818	0.239
Mof_H 	H 	0.55333	0.83967	0.85367	0.629
Mof_H 	H 	0.55533	0.84767	0.92767	0.551
Mof_H 	H 	0.58733	0.78867	0.89167	0.253
Mof_O 	O 	0.74573	0.07077	0.70127	-0.295
Mof_N 	N 	0.85423	0.16257	0.76387	-0.362
Mof_H 	H 	0.86133	0.19167	0.80667	0.136
Mof_H 	H 	0.86833	0.19467	0.73367	0.205
Mof_Cd	Cd	0.32919	0.94582	0.62306	0.384
Mof_N 	N 	0.3111	0.9351	0.74163	-0.223
Mof_N 	N 	0.4298	0.9286	0.66496	-0.234
Mof_C 	C 	0.3806	0.9432	0.77476	-0.013
Mof_C 	C 	0.2667	0.9451	0.79111	0.506
Mof_C 	C 	0.4423	0.936	0.732	0.191
Mof_H 	H 	0.471	0.925	0.64	0.104
Mof_C 	C 	0.3742	0.9591	0.84509	-0.029
Mof_N 	N 	0.302	0.9594	0.85455	-0.23
Mof_C 	C 	0.1846	0.9355	0.7782	-1.518
Mof_O 	O 	0.5031	0.937	0.76465	-0.296
Mof_C 	C 	0.4276	0.9762	0.90849	0.239
Mof_H 	H 	0.173	0.953	0.813	0.631
Mof_H 	H 	0.181	0.959	0.739	0.552
Mof_H 	H 	0.122	0.868	0.775	0.254
Mof_O 	O 	0.4041	0.9917	0.9654	-0.294
Mof_N 	N 	0.4959	0.975	0.9028	-0.362
Mof_H 	H 	0.525	0.997	0.86	0.136
Mof_H 	H 	0.528	0.993	0.933	0.206
Mof_Cd	Cd	0.99586	0.27915	0.95639	0.381
Mof_N 	N 	0.97777	0.26843	0.07496	-0.222
Mof_N 	N 	0.09647	0.26193	0.99829	-0.233
Mof_C 	C 	0.04727	0.27653	0.10809	-0.014
Mof_C 	C 	0.93337	0.27843	0.12444	0.505
Mof_C 	C 	0.10897	0.26933	0.06533	0.191
Mof_H 	H 	0.13767	0.25833	0.97333	0.104
Mof_C 	C 	0.04087	0.29243	0.17842	-0.03
Mof_N 	N 	0.96867	0.29273	0.18788	-0.23
Mof_C 	C 	0.85127	0.26883	0.11153	-1.515
Mof_O 	O 	0.16977	0.27033	0.09798	-0.296
Mof_C 	C 	0.09427	0.30953	0.24182	0.239
Mof_H 	H 	0.83967	0.28633	0.14633	0.629
Mof_H 	H 	0.84767	0.29233	0.07233	0.551
Mof_H 	H 	0.78867	0.20133	0.10833	0.254
Mof_O 	O 	0.07077	0.32503	0.29873	-0.295
Mof_N 	N 	0.16257	0.30833	0.23613	-0.362
Mof_H 	H 	0.19167	0.33033	0.19333	0.136
Mof_H 	H 	0.19467	0.32633	0.26633	0.206
Mof_Cd	Cd	0.66252	0.61249	0.28973	0.384
Mof_N 	N 	0.64443	0.60177	0.4083	-0.223
Mof_N 	N 	0.76313	0.59527	0.33163	-0.234
Mof_C 	C 	0.71393	0.60987	0.44143	-0.013
Mof_C 	C 	0.60003	0.61177	0.45778	0.505
Mof_C 	C 	0.77563	0.60267	0.39867	0.191
Mof_H 	H 	0.80433	0.59167	0.30667	0.104
Mof_C 	C 	0.70753	0.62577	0.51176	-0.029
Mof_N 	N 	0.63533	0.62607	0.52122	-0.231
Mof_C 	C 	0.51793	0.60217	0.44487	-1.514
Mof_O 	O 	0.83643	0.60367	0.43132	-0.296
Mof_C 	C 	0.76093	0.64287	0.57516	0.239
Mof_H 	H 	0.50633	0.61967	0.47967	0.629
Mof_H 	H 	0.51433	0.62567	0.40567	0.55
Mof_H 	H 	0.45533	0.53467	0.44167	0.253
Mof_O 	O 	0.73743	0.65837	0.63207	-0.295
Mof_N 	N 	0.82923	0.64167	0.56947	-0.362
Mof_H 	H 	0.85833	0.66367	0.52667	0.136
Mof_H 	H 	0.86133	0.65967	0.59967	0.206
Mof_Cd	Cd	0.05418	0.38337	0.62306	0.384
Mof_N 	N 	0.0649	0.376	0.74163	-0.223
Mof_N 	N 	0.0714	0.5012	0.66496	-0.234
Mof_C 	C 	0.0568	0.4374	0.77476	-0.013
Mof_C 	C 	0.0549	0.3216	0.79111	0.505
Mof_C 	C 	0.064	0.5063	0.732	0.191
Mof_H 	H 	0.075	0.546	0.64	0.104
Mof_C 	C 	0.0409	0.4151	0.84509	-0.029
Mof_N 	N 	0.0406	0.3426	0.85455	-0.23
Mof_C 	C 	0.0645	0.2491	0.7782	-1.516
Mof_O 	O 	0.063	0.5661	0.76465	-0.296
Mof_C 	C 	0.0238	0.4514	0.90849	0.239
Mof_H 	H 	0.047	0.22	0.813	0.63
Mof_H 	H 	0.041	0.222	0.739	0.551
Mof_H 	H 	0.132	0.254	0.775	0.254
Mof_O 	O 	0.0083	0.4124	0.9654	-0.294
Mof_N 	N 	0.025	0.5209	0.9028	-0.362
Mof_H 	H 	0.003	0.528	0.86	0.136
Mof_H 	H 	0.007	0.535	0.933	0.206
Mof_Cd	Cd	0.72085	0.7167	0.95639	0.384
Mof_N 	N 	0.73157	0.70933	0.07496	-0.223
Mof_N 	N 	0.73807	0.83453	0.99829	-0.234
Mof_C 	C 	0.72347	0.77073	0.10809	-0.013
Mof_C 	C 	0.72157	0.65493	0.12444	0.505
Mof_C 	C 	0.73067	0.83963	0.06533	0.191
Mof_H 	H 	0.74167	0.87933	0.97333	0.104
Mof_C 	C 	0.70757	0.74843	0.17842	-0.029
Mof_N 	N 	0.70727	0.67593	0.18788	-0.231
Mof_C 	C 	0.73117	0.58243	0.11153	-1.514
Mof_O 	O 	0.72967	0.89943	0.09798	-0.296
Mof_C 	C 	0.69047	0.78473	0.24182	0.238
Mof_H 	H 	0.71367	0.55333	0.14633	0.629
Mof_H 	H 	0.70767	0.55533	0.07233	0.551
Mof_H 	H 	0.79867	0.58733	0.10833	0.254
Mof_O 	O 	0.67497	0.74573	0.29873	-0.295
Mof_N 	N 	0.69167	0.85423	0.23613	-0.362
Mof_H 	H 	0.66967	0.86133	0.19333	0.136
Mof_H 	H 	0.67367	0.86833	0.26633	0.205
Mof_Cd	Cd	0.38751	0.05004	0.28973	0.384
Mof_N 	N 	0.39823	0.04267	0.4083	-0.223
Mof_N 	N 	0.40473	0.16787	0.33163	-0.234
Mof_C 	C 	0.39013	0.10407	0.44143	-0.013
Mof_C 	C 	0.38823	0.98827	0.45778	0.505
Mof_C 	C 	0.39733	0.17297	0.39867	0.191
Mof_H 	H 	0.40833	0.21267	0.30667	0.104
Mof_C 	C 	0.37423	0.08177	0.51176	-0.029
Mof_N 	N 	0.37393	0.00927	0.52122	-0.231
Mof_C 	C 	0.39783	0.91577	0.44487	-1.514
Mof_O 	O 	0.39633	0.23277	0.43132	-0.296
Mof_C 	C 	0.35713	0.11807	0.57516	0.239
Mof_H 	H 	0.38033	0.88667	0.47967	0.629
Mof_H 	H 	0.37433	0.88867	0.40567	0.55
Mof_H 	H 	0.46533	0.92067	0.44167	0.253
Mof_O 	O 	0.34163	0.07907	0.63207	-0.295
Mof_N 	N 	0.35833	0.18757	0.56947	-0.362
Mof_H 	H 	0.33633	0.19467	0.52667	0.136
Mof_H 	H 	0.34033	0.20167	0.59967	0.206
Mof_Cd	Cd	0.61663	0.67081	0.62306	0.384
Mof_N 	N 	0.624	0.6889	0.74163	-0.223
Mof_N 	N 	0.4988	0.5702	0.66496	-0.234
Mof_C 	C 	0.5626	0.6194	0.77476	-0.013
Mof_C 	C 	0.6784	0.7333	0.79111	0.505
Mof_C 	C 	0.4937	0.5577	0.732	0.191
Mof_H 	H 	0.454	0.529	0.64	0.104
Mof_C 	C 	0.5849	0.6258	0.84509	-0.029
Mof_N 	N 	0.6574	0.698	0.85455	-0.231
Mof_C 	C 	0.7509	0.8154	0.7782	-1.515
Mof_O 	O 	0.4339	0.4969	0.76465	-0.296
Mof_C 	C 	0.5486	0.5724	0.90849	0.239
Mof_H 	H 	0.78	0.827	0.813	0.629
Mof_H 	H 	0.778	0.819	0.739	0.551
Mof_H 	H 	0.746	0.878	0.775	0.254
Mof_O 	O 	0.5876	0.5959	0.9654	-0.295
Mof_N 	N 	0.4791	0.5041	0.9028	-0.362
Mof_H 	H 	0.472	0.475	0.86	0.136
Mof_H 	H 	0.465	0.472	0.933	0.206
Mof_Cd	Cd	0.2833	0.00414	0.95639	0.382
Mof_N 	N 	0.29067	0.02223	0.07496	-0.223
Mof_N 	N 	0.16547	0.90353	0.99829	-0.232
Mof_C 	C 	0.22927	0.95273	0.10809	-0.014
Mof_C 	C 	0.34507	0.06663	0.12444	0.505
Mof_C 	C 	0.16037	0.89103	0.06533	0.189
Mof_H 	H 	0.12067	0.86233	0.97333	0.104
Mof_C 	C 	0.25157	0.95913	0.17842	-0.03
Mof_N 	N 	0.32407	0.03133	0.18788	-0.23
Mof_C 	C 	0.41757	0.14873	0.11153	-1.514
Mof_O 	O 	0.10057	0.83023	0.09798	-0.296
Mof_C 	C 	0.21527	0.90573	0.24182	0.239
Mof_H 	H 	0.44667	0.16033	0.14633	0.629
Mof_H 	H 	0.44467	0.15233	0.07233	0.551
Mof_H 	H 	0.41267	0.21133	0.10833	0.253
Mof_O 	O 	0.25427	0.92923	0.29873	-0.295
Mof_N 	N 	0.14577	0.83743	0.23613	-0.362
Mof_H 	H 	0.13867	0.80833	0.19333	0.136
Mof_H 	H 	0.13167	0.80533	0.26633	0.205
Mof_Cd	Cd	0.94996	0.33748	0.28973	0.384
Mof_N 	N 	0.95733	0.35557	0.4083	-0.223
Mof_N 	N 	0.83213	0.23687	0.33163	-0.234
Mof_C 	C 	0.89593	0.28607	0.44143	-0.013
Mof_C 	C 	0.01173	0.39997	0.45778	0.504
Mof_C 	C 	0.82703	0.22437	0.39867	0.191
Mof_H 	H 	0.78733	0.19567	0.30667	0.104
Mof_C 	C 	0.91823	0.29247	0.51176	-0.029
Mof_N 	N 	0.99073	0.36467	0.52122	-0.23
Mof_C 	C 	0.08423	0.48207	0.44487	-1.514
Mof_O 	O 	0.76723	0.16357	0.43132	-0.296
Mof_C 	C 	0.88193	0.23907	0.57516	0.239
Mof_H 	H 	0.11333	0.49367	0.47967	0.629
Mof_H 	H 	0.11133	0.48567	0.40567	0.55
Mof_H 	H 	0.07933	0.54467	0.44167	0.253
Mof_O 	O 	0.92093	0.26257	0.63207	-0.295
Mof_N 	N 	0.81243	0.17077	0.56947	-0.362
Mof_H 	H 	0.80533	0.14167	0.52667	0.136
Mof_H 	H 	0.79833	0.13867	0.59967	0.206
_end
