data_functionalizedCrystal
_audit_creation_method	'EQeq! by Chris Wilmer'
_symmetry_space_group_name_H-M	'P1'
_symmetry_Int_Tables_number	1
_symmetry_cell_setting	triclinic
loop_
_symmetry_equiv_pos_as_xyz
  x,y,z
_cell_length_a	16.7033
_cell_length_b	20.0195
_cell_length_c	17.4602
_cell_angle_alpha	90
_cell_angle_beta	100.423
_cell_angle_gamma	90
loop_
_atom_site_label
_atom_site_type_symbol
_atom_site_fract_x
_atom_site_fract_y
_atom_site_fract_z
_atom_site_charge
Mof_Co	Co	0.96851	0.33096	0.74136	1.205
Mof_Co	Co	0.86543	0.36639	0.54754	1.146
Mof_Co	Co	0.09065	0.3522	0.93744	1.139
Mof_S 	S 	0.4543	0.22236	0.73844	0.261
Mof_S 	S 	0.60746	0.48977	0.95545	0.268
Mof_S 	S 	0.45469	0.43097	0.65249	0.26
Mof_O 	O 	0.4859	0.2391	0.1589	-0.419
Mof_O 	O 	0.0909	0.3558	0.7467	-0.431
Mof_O 	O 	0.9489	0.3974	0.8283	-0.439
Mof_O 	O 	0.5026	0.7575	0.6728	-0.447
Mof_O 	O 	0.5604	0.908	0.8397	-0.511
Mof_O 	O 	0.8441	0.3066	0.7306	-0.405
Mof_O 	O 	0.5909	0.9575	0.9505	-0.454
Mof_O 	O 	0.4485	0.2007	0.0358	-0.472
Mof_O 	O 	0.7857	0.3272	0.6054	-0.468
Mof_O 	O 	0.4098	0.7552	0.5646	-0.482
Mof_O 	O 	0.9904	0.3931	0.9577	-0.464
Mof_O 	O 	0.1555	0.3891	0.8642	-0.477
Mof_O 	O 	0.4011	0.2152	0.6639	-0.207
Mof_O 	O 	0.4306	0.2648	0.7975	-0.214
Mof_O 	O 	0.5574	0.5044	0.8809	-0.217
Mof_O 	O 	0.6162	0.5383	0.0174	-0.218
Mof_O 	O 	0.5246	0.4149	0.7108	-0.205
Mof_O 	O 	0.4443	0.4015	0.5761	-0.207
Mof_C 	C 	0.7847	0.3087	0.676	0.374
Mof_C 	C 	0.703	0.2869	0.6922	-0.1
Mof_C 	C 	0.64	0.2754	0.6296	0.015
Mof_H 	H 	0.6486	0.2814	0.5789	0.035
Mof_C 	C 	0.564	0.2548	0.6431	-0.072
Mof_H 	H 	0.5223	0.2458	0.6014	0.072
Mof_C 	C 	0.5508	0.2479	0.7196	0.012
Mof_C 	C 	0.6131	0.26	0.7831	-0.073
Mof_H 	H 	0.6039	0.256	0.8339	0.067
Mof_C 	C 	0.6884	0.2779	0.7684	0.024
Mof_H 	H 	0.731	0.2842	0.8102	0.041
Mof_C 	C 	0.4742	0.1427	0.7802	0.012
Mof_C 	C 	0.4765	0.0886	0.7309	-0.093
Mof_H 	H 	0.4625	0.0934	0.6771	0.073
Mof_C 	C 	0.5001	0.0279	0.7639	0.041
Mof_H 	H 	0.5006	0.9905	0.7324	0.029
Mof_C 	C 	0.5231	0.0222	0.8441	-0.132
Mof_C 	C 	0.521	0.0757	0.893	0.04
Mof_H 	H 	0.5366	0.0709	0.9466	0.033
Mof_C 	C 	0.4956	0.1367	0.861	-0.101
Mof_H 	H 	0.4927	0.1735	0.8929	0.074
Mof_C 	C 	0.5573	0.9585	0.8788	0.392
Mof_C 	C 	0.9375	0.4044	0.8975	0.369
Mof_C 	C 	0.8564	0.4293	0.9119	-0.107
Mof_C 	C 	0.7899	0.4251	0.851	0.027
Mof_H 	H 	0.7965	0.4099	0.8021	0.039
Mof_C 	C 	0.7138	0.4438	0.8646	-0.088
Mof_H 	H 	0.6684	0.4398	0.8254	0.085
Mof_C 	C 	0.7058	0.4687	0.9374	0.01
Mof_C 	C 	0.7713	0.4754	0.9977	-0.095
Mof_H 	H 	0.765	0.4933	0.0454	0.069
Mof_C 	C 	0.8472	0.4546	0.9845	0.026
Mof_H 	H 	0.8922	0.4575	0.0244	0.025
Mof_C 	C 	0.5727	0.4161	0.9923	0.018
Mof_C 	C 	0.5321	0.3698	0.9415	-0.078
Mof_H 	H 	0.5243	0.3767	0.888	0.085
Mof_C 	C 	0.5031	0.313	0.9715	0.035
Mof_H 	H 	0.4754	0.2812	0.938	0.042
Mof_C 	C 	0.5151	0.3027	0.0524	-0.109
Mof_C 	C 	0.5561	0.3495	0.1021	0.039
Mof_H 	H 	0.5642	0.3426	0.1556	0.036
Mof_C 	C 	0.5852	0.4067	0.0728	-0.074
Mof_H 	H 	0.6128	0.4386	0.1063	0.075
Mof_C 	C 	0.4815	0.2419	0.0858	0.386
Mof_C 	C 	0.1505	0.3777	0.7914	0.39
Mof_C 	C 	0.2267	0.3924	0.7566	-0.105
Mof_C 	C 	0.2962	0.4155	0.8037	0.028
Mof_H 	H 	0.2966	0.423	0.8564	0.046
Mof_C 	C 	0.366	0.4279	0.7726	-0.077
Mof_H 	H 	0.4124	0.4449	0.8041	0.082
Mof_C 	C 	0.3662	0.4146	0.6938	0.018
Mof_C 	C 	0.2979	0.3891	0.6468	-0.08
Mof_H 	H 	0.2982	0.3797	0.5947	0.078
Mof_C 	C 	0.2285	0.3778	0.6785	0.03
Mof_H 	H 	0.1824	0.3601	0.6472	0.039
Mof_C 	C 	0.4522	0.5185	0.6411	0.031
Mof_C 	C 	0.4887	0.5565	0.7041	-0.116
Mof_H 	H 	0.5126	0.5363	0.7505	0.101
Mof_C 	C 	0.4887	0.624	0.6965	0.062
Mof_H 	H 	0.5132	0.6504	0.738	0.032
Mof_C 	C 	0.4523	0.6536	0.6268	-0.14
Mof_C 	C 	0.4133	0.6148	0.5655	0.059
Mof_H 	H 	0.3864	0.6349	0.52	0.021
Mof_C 	C 	0.4147	0.5469	0.5725	-0.109
Mof_H 	H 	0.3904	0.5202	0.5312	0.081
Mof_C 	C 	0.4549	0.7275	0.6218	0.408
Mof_Co	Co	0.53149	0.83096	0.75864	1.206
Mof_Co	Co	0.63457	0.86639	0.95246	1.147
Mof_Co	Co	0.40935	0.8522	0.56256	1.141
Mof_S 	S 	0.0457	0.72236	0.76156	0.261
Mof_S 	S 	0.89254	0.98977	0.54455	0.264
Mof_S 	S 	0.04531	0.93097	0.84751	0.26
Mof_O 	O 	0.0141	0.7391	0.3411	-0.419
Mof_O 	O 	0.4091	0.8558	0.7533	-0.431
Mof_O 	O 	0.5511	0.8974	0.6717	-0.439
Mof_O 	O 	0.9974	0.2575	0.8272	-0.444
Mof_O 	O 	0.9396	0.408	0.6603	-0.511
Mof_O 	O 	0.6559	0.8066	0.7694	-0.405
Mof_O 	O 	0.9091	0.4575	0.5495	-0.454
Mof_O 	O 	0.0515	0.7007	0.4642	-0.472
Mof_O 	O 	0.7143	0.8272	0.8946	-0.468
Mof_O 	O 	0.0902	0.2552	0.9354	-0.482
Mof_O 	O 	0.5096	0.8931	0.5423	-0.465
Mof_O 	O 	0.3445	0.8891	0.6358	-0.476
Mof_O 	O 	0.0989	0.7152	0.8361	-0.207
Mof_O 	O 	0.0694	0.7648	0.7025	-0.214
Mof_O 	O 	0.9426	0.0044	0.6191	-0.216
Mof_O 	O 	0.8838	0.0383	0.4826	-0.216
Mof_O 	O 	0.9754	0.9149	0.7892	-0.205
Mof_O 	O 	0.0557	0.9015	0.9239	-0.207
Mof_C 	C 	0.7153	0.8087	0.824	0.374
Mof_C 	C 	0.797	0.7869	0.8078	-0.1
Mof_C 	C 	0.86	0.7754	0.8704	0.016
Mof_H 	H 	0.8514	0.7814	0.9211	0.035
Mof_C 	C 	0.936	0.7548	0.8569	-0.073
Mof_H 	H 	0.9777	0.7458	0.8986	0.073
Mof_C 	C 	0.9492	0.7479	0.7804	0.013
Mof_C 	C 	0.8869	0.76	0.7169	-0.074
Mof_H 	H 	0.8961	0.756	0.6661	0.067
Mof_C 	C 	0.8116	0.7779	0.7316	0.024
Mof_H 	H 	0.769	0.7842	0.6898	0.041
Mof_C 	C 	0.0258	0.6427	0.7198	0.014
Mof_C 	C 	0.0235	0.5886	0.7691	-0.097
Mof_H 	H 	0.0375	0.5934	0.8229	0.074
Mof_C 	C 	0.9999	0.5279	0.7361	0.045
Mof_H 	H 	0.9994	0.4905	0.7676	0.028
Mof_C 	C 	0.9769	0.5222	0.6559	-0.135
Mof_C 	C 	0.979	0.5757	0.607	0.043
Mof_H 	H 	0.9634	0.5709	0.5534	0.032
Mof_C 	C 	0.0044	0.6367	0.639	-0.104
Mof_H 	H 	0.0073	0.6735	0.6071	0.075
Mof_C 	C 	0.9427	0.4585	0.6212	0.393
Mof_C 	C 	0.5625	0.9044	0.6025	0.368
Mof_C 	C 	0.6436	0.9293	0.5881	-0.106
Mof_C 	C 	0.7101	0.9251	0.649	0.026
Mof_H 	H 	0.7035	0.9099	0.6979	0.039
Mof_C 	C 	0.7862	0.9438	0.6354	-0.088
Mof_H 	H 	0.8316	0.9398	0.6746	0.085
Mof_C 	C 	0.7942	0.9687	0.5626	0.011
Mof_C 	C 	0.7287	0.9754	0.5023	-0.097
Mof_H 	H 	0.735	0.9933	0.4546	0.071
Mof_C 	C 	0.6528	0.9546	0.5155	0.023
Mof_H 	H 	0.6078	0.9575	0.4756	0.028
Mof_C 	C 	0.9273	0.9161	0.5077	0.017
Mof_C 	C 	0.9679	0.8698	0.5585	-0.078
Mof_H 	H 	0.9757	0.8767	0.612	0.084
Mof_C 	C 	0.9969	0.813	0.5285	0.034
Mof_H 	H 	0.0246	0.7812	0.562	0.043
Mof_C 	C 	0.9849	0.8027	0.4476	-0.11
Mof_C 	C 	0.9439	0.8495	0.3979	0.039
Mof_H 	H 	0.9358	0.8426	0.3444	0.035
Mof_C 	C 	0.9148	0.9067	0.4272	-0.074
Mof_H 	H 	0.8872	0.9386	0.3937	0.074
Mof_C 	C 	0.0185	0.7419	0.4142	0.387
Mof_C 	C 	0.3495	0.8777	0.7086	0.39
Mof_C 	C 	0.2733	0.8924	0.7434	-0.104
Mof_C 	C 	0.2038	0.9155	0.6963	0.028
Mof_H 	H 	0.2034	0.923	0.6436	0.046
Mof_C 	C 	0.134	0.9279	0.7274	-0.076
Mof_H 	H 	0.0876	0.9449	0.6959	0.082
Mof_C 	C 	0.1338	0.9146	0.8062	0.018
Mof_C 	C 	0.2021	0.8891	0.8532	-0.079
Mof_H 	H 	0.2018	0.8797	0.9053	0.078
Mof_C 	C 	0.2715	0.8778	0.8215	0.03
Mof_H 	H 	0.3176	0.8601	0.8528	0.039
Mof_C 	C 	0.0478	0.0185	0.8589	0.031
Mof_C 	C 	0.0113	0.0565	0.7959	-0.118
Mof_H 	H 	0.9874	0.0363	0.7495	0.104
Mof_C 	C 	0.0113	0.124	0.8035	0.057
Mof_H 	H 	0.9868	0.1504	0.762	0.035
Mof_C 	C 	0.0477	0.1536	0.8732	-0.138
Mof_C 	C 	0.0867	0.1148	0.9345	0.057
Mof_H 	H 	0.1136	0.1349	0.98	0.021
Mof_C 	C 	0.0853	0.0469	0.9275	-0.109
Mof_H 	H 	0.1096	0.0202	0.9688	0.08
Mof_C 	C 	0.0451	0.2275	0.8782	0.404
Mof_Co	Co	0.03149	0.66904	0.25864	1.206
Mof_Co	Co	0.13457	0.63361	0.45246	1.147
Mof_Co	Co	0.90935	0.6478	0.06256	1.14
Mof_S 	S 	0.5457	0.77764	0.26156	0.262
Mof_S 	S 	0.39254	0.51023	0.04455	0.268
Mof_S 	S 	0.54531	0.56903	0.34751	0.26
Mof_O 	O 	0.5141	0.7609	0.8411	-0.419
Mof_O 	O 	0.9091	0.6442	0.2533	-0.431
Mof_O 	O 	0.0511	0.6026	0.1717	-0.439
Mof_O 	O 	0.4974	0.2425	0.3272	-0.447
Mof_O 	O 	0.4396	0.092	0.1603	-0.511
Mof_O 	O 	0.1559	0.6934	0.2694	-0.405
Mof_O 	O 	0.4091	0.0425	0.0495	-0.454
Mof_O 	O 	0.5515	0.7993	0.9642	-0.472
Mof_O 	O 	0.2143	0.6728	0.3946	-0.468
Mof_O 	O 	0.5902	0.2448	0.4354	-0.482
Mof_O 	O 	0.0096	0.6069	0.0423	-0.464
Mof_O 	O 	0.8445	0.6109	0.1358	-0.477
Mof_O 	O 	0.5989	0.7848	0.3361	-0.207
Mof_O 	O 	0.5694	0.7352	0.2025	-0.214
Mof_O 	O 	0.4426	0.4956	0.1191	-0.217
Mof_O 	O 	0.3838	0.4617	0.9826	-0.218
Mof_O 	O 	0.4754	0.5851	0.2892	-0.205
Mof_O 	O 	0.5557	0.5985	0.4239	-0.207
Mof_C 	C 	0.2153	0.6913	0.324	0.374
Mof_C 	C 	0.297	0.7131	0.3078	-0.1
Mof_C 	C 	0.36	0.7246	0.3704	0.015
Mof_H 	H 	0.3514	0.7186	0.4211	0.035
Mof_C 	C 	0.436	0.7452	0.3569	-0.072
Mof_H 	H 	0.4777	0.7542	0.3986	0.072
Mof_C 	C 	0.4492	0.7521	0.2804	0.012
Mof_C 	C 	0.3869	0.74	0.2169	-0.073
Mof_H 	H 	0.3961	0.744	0.1661	0.067
Mof_C 	C 	0.3116	0.7221	0.2316	0.024
Mof_H 	H 	0.269	0.7158	0.1898	0.041
Mof_C 	C 	0.5258	0.8573	0.2198	0.012
Mof_C 	C 	0.5235	0.9114	0.2691	-0.093
Mof_H 	H 	0.5375	0.9066	0.3229	0.073
Mof_C 	C 	0.4999	0.9721	0.2361	0.041
Mof_H 	H 	0.4994	0.0095	0.2676	0.029
Mof_C 	C 	0.4769	0.9778	0.1559	-0.132
Mof_C 	C 	0.479	0.9243	0.107	0.04
Mof_H 	H 	0.4634	0.9291	0.0534	0.033
Mof_C 	C 	0.5044	0.8633	0.139	-0.101
Mof_H 	H 	0.5073	0.8265	0.1071	0.074
Mof_C 	C 	0.4427	0.0415	0.1212	0.392
Mof_C 	C 	0.0625	0.5956	0.1025	0.369
Mof_C 	C 	0.1436	0.5707	0.0881	-0.107
Mof_C 	C 	0.2101	0.5749	0.149	0.027
Mof_H 	H 	0.2035	0.5901	0.1979	0.039
Mof_C 	C 	0.2862	0.5562	0.1354	-0.088
Mof_H 	H 	0.3316	0.5602	0.1746	0.085
Mof_C 	C 	0.2942	0.5313	0.0626	0.01
Mof_C 	C 	0.2287	0.5246	0.0023	-0.095
Mof_H 	H 	0.235	0.5067	0.9546	0.069
Mof_C 	C 	0.1528	0.5454	0.0155	0.026
Mof_H 	H 	0.1078	0.5425	0.9756	0.025
Mof_C 	C 	0.4273	0.5839	0.0077	0.018
Mof_C 	C 	0.4679	0.6302	0.0585	-0.078
Mof_H 	H 	0.4757	0.6233	0.112	0.085
Mof_C 	C 	0.4969	0.687	0.0285	0.035
Mof_H 	H 	0.5246	0.7188	0.062	0.042
Mof_C 	C 	0.4849	0.6973	0.9476	-0.109
Mof_C 	C 	0.4439	0.6505	0.8979	0.039
Mof_H 	H 	0.4358	0.6574	0.8444	0.036
Mof_C 	C 	0.4148	0.5933	0.9272	-0.074
Mof_H 	H 	0.3872	0.5614	0.8937	0.075
Mof_C 	C 	0.5185	0.7581	0.9142	0.386
Mof_C 	C 	0.8495	0.6223	0.2086	0.39
Mof_C 	C 	0.7733	0.6076	0.2434	-0.105
Mof_C 	C 	0.7038	0.5845	0.1963	0.028
Mof_H 	H 	0.7034	0.577	0.1436	0.046
Mof_C 	C 	0.634	0.5721	0.2274	-0.077
Mof_H 	H 	0.5876	0.5551	0.1959	0.082
Mof_C 	C 	0.6338	0.5854	0.3062	0.018
Mof_C 	C 	0.7021	0.6109	0.3532	-0.08
Mof_H 	H 	0.7018	0.6203	0.4053	0.078
Mof_C 	C 	0.7715	0.6222	0.3215	0.03
Mof_H 	H 	0.8176	0.6399	0.3528	0.039
Mof_C 	C 	0.5478	0.4815	0.3589	0.031
Mof_C 	C 	0.5113	0.4435	0.2959	-0.116
Mof_H 	H 	0.4874	0.4637	0.2495	0.101
Mof_C 	C 	0.5113	0.376	0.3035	0.062
Mof_H 	H 	0.4868	0.3496	0.262	0.032
Mof_C 	C 	0.5477	0.3464	0.3732	-0.14
Mof_C 	C 	0.5867	0.3852	0.4345	0.059
Mof_H 	H 	0.6136	0.3651	0.48	0.021
Mof_C 	C 	0.5853	0.4531	0.4275	-0.109
Mof_H 	H 	0.6096	0.4798	0.4688	0.081
Mof_C 	C 	0.5451	0.2725	0.3782	0.408
Mof_Co	Co	0.46851	0.16904	0.24136	1.206
Mof_Co	Co	0.36543	0.13361	0.04754	1.147
Mof_Co	Co	0.59065	0.1478	0.43744	1.141
Mof_S 	S 	0.9543	0.27764	0.23844	0.261
Mof_S 	S 	0.10746	0.01023	0.45545	0.264
Mof_S 	S 	0.95469	0.06903	0.15249	0.26
Mof_O 	O 	0.9859	0.2609	0.6589	-0.419
Mof_O 	O 	0.5909	0.1442	0.2467	-0.431
Mof_O 	O 	0.4489	0.1026	0.3283	-0.439
Mof_O 	O 	0.0026	0.7425	0.1728	-0.444
Mof_O 	O 	0.0604	0.592	0.3397	-0.511
Mof_O 	O 	0.3441	0.1934	0.2306	-0.405
Mof_O 	O 	0.0909	0.5425	0.4505	-0.454
Mof_O 	O 	0.9485	0.2993	0.5358	-0.472
Mof_O 	O 	0.2857	0.1728	0.1054	-0.468
Mof_O 	O 	0.9098	0.7448	0.0646	-0.482
Mof_O 	O 	0.4904	0.1069	0.4577	-0.465
Mof_O 	O 	0.6555	0.1109	0.3642	-0.476
Mof_O 	O 	0.9011	0.2848	0.1639	-0.207
Mof_O 	O 	0.9306	0.2352	0.2975	-0.214
Mof_O 	O 	0.0574	0.9956	0.3809	-0.216
Mof_O 	O 	0.1162	0.9617	0.5174	-0.216
Mof_O 	O 	0.0246	0.0851	0.2108	-0.205
Mof_O 	O 	0.9443	0.0985	0.0761	-0.207
Mof_C 	C 	0.2847	0.1913	0.176	0.374
Mof_C 	C 	0.203	0.2131	0.1922	-0.1
Mof_C 	C 	0.14	0.2246	0.1296	0.016
Mof_H 	H 	0.1486	0.2186	0.0789	0.035
Mof_C 	C 	0.064	0.2452	0.1431	-0.073
Mof_H 	H 	0.0223	0.2542	0.1014	0.073
Mof_C 	C 	0.0508	0.2521	0.2196	0.013
Mof_C 	C 	0.1131	0.24	0.2831	-0.074
Mof_H 	H 	0.1039	0.244	0.3339	0.067
Mof_C 	C 	0.1884	0.2221	0.2684	0.024
Mof_H 	H 	0.231	0.2158	0.3102	0.041
Mof_C 	C 	0.9742	0.3573	0.2802	0.014
Mof_C 	C 	0.9765	0.4114	0.2309	-0.097
Mof_H 	H 	0.9625	0.4066	0.1771	0.074
Mof_C 	C 	0.0001	0.4721	0.2639	0.045
Mof_H 	H 	0.0006	0.5095	0.2324	0.028
Mof_C 	C 	0.0231	0.4778	0.3441	-0.135
Mof_C 	C 	0.021	0.4243	0.393	0.043
Mof_H 	H 	0.0366	0.4291	0.4466	0.032
Mof_C 	C 	0.9956	0.3633	0.361	-0.104
Mof_H 	H 	0.9927	0.3265	0.3929	0.075
Mof_C 	C 	0.0573	0.5415	0.3788	0.393
Mof_C 	C 	0.4375	0.0956	0.3975	0.368
Mof_C 	C 	0.3564	0.0707	0.4119	-0.106
Mof_C 	C 	0.2899	0.0749	0.351	0.026
Mof_H 	H 	0.2965	0.0901	0.3021	0.039
Mof_C 	C 	0.2138	0.0562	0.3646	-0.088
Mof_H 	H 	0.1684	0.0602	0.3254	0.085
Mof_C 	C 	0.2058	0.0313	0.4374	0.011
Mof_C 	C 	0.2713	0.0246	0.4977	-0.097
Mof_H 	H 	0.265	0.0067	0.5454	0.071
Mof_C 	C 	0.3472	0.0454	0.4845	0.023
Mof_H 	H 	0.3922	0.0425	0.5244	0.028
Mof_C 	C 	0.0727	0.0839	0.4923	0.017
Mof_C 	C 	0.0321	0.1302	0.4415	-0.078
Mof_H 	H 	0.0243	0.1233	0.388	0.084
Mof_C 	C 	0.0031	0.187	0.4715	0.034
Mof_H 	H 	0.9754	0.2188	0.438	0.043
Mof_C 	C 	0.0151	0.1973	0.5524	-0.11
Mof_C 	C 	0.0561	0.1505	0.6021	0.039
Mof_H 	H 	0.0642	0.1574	0.6556	0.035
Mof_C 	C 	0.0852	0.0933	0.5728	-0.074
Mof_H 	H 	0.1128	0.0614	0.6063	0.074
Mof_C 	C 	0.9815	0.2581	0.5858	0.387
Mof_C 	C 	0.6505	0.1223	0.2914	0.39
Mof_C 	C 	0.7267	0.1076	0.2566	-0.104
Mof_C 	C 	0.7962	0.0845	0.3037	0.028
Mof_H 	H 	0.7966	0.077	0.3564	0.046
Mof_C 	C 	0.866	0.0721	0.2726	-0.076
Mof_H 	H 	0.9124	0.0551	0.3041	0.082
Mof_C 	C 	0.8662	0.0854	0.1938	0.018
Mof_C 	C 	0.7979	0.1109	0.1468	-0.079
Mof_H 	H 	0.7982	0.1203	0.0947	0.078
Mof_C 	C 	0.7285	0.1222	0.1785	0.03
Mof_H 	H 	0.6824	0.1399	0.1472	0.039
Mof_C 	C 	0.9522	0.9815	0.1411	0.031
Mof_C 	C 	0.9887	0.9435	0.2041	-0.118
Mof_H 	H 	0.0126	0.9637	0.2505	0.104
Mof_C 	C 	0.9887	0.876	0.1965	0.057
Mof_H 	H 	0.0132	0.8496	0.238	0.035
Mof_C 	C 	0.9523	0.8464	0.1268	-0.138
Mof_C 	C 	0.9133	0.8852	0.0655	0.057
Mof_H 	H 	0.8864	0.8651	0.02	0.021
Mof_C 	C 	0.9147	0.9531	0.0725	-0.109
Mof_H 	H 	0.8904	0.9798	0.0312	0.08
Mof_C 	C 	0.9549	0.7725	0.1218	0.404
_end
