data_functionalizedCrystal
_audit_creation_method	'EQeq! by Chris Wilmer'
_symmetry_space_group_name_H-M	'P1'
_symmetry_Int_Tables_number	1
_symmetry_cell_setting	triclinic
loop_
_symmetry_equiv_pos_as_xyz
  x,y,z
_cell_length_a	13.1233
_cell_length_b	13.1233
_cell_length_c	13.879
_cell_angle_alpha	89.2144
_cell_angle_beta	89.2144
_cell_angle_gamma	82.7563
loop_
_atom_site_label
_atom_site_type_symbol
_atom_site_fract_x
_atom_site_fract_y
_atom_site_fract_z
_atom_site_charge
Mof_Cd	Cd	0.8258	0.35136	0.67747	0.384
Mof_Cd	Cd	0.75473	0.96569	0.39963	0.355
Mof_Cd	Cd	0.64864	0.1742	0.82253	0.385
Mof_Cd	Cd	0.03431	0.24527	0.10037	0.332
Mof_Cd	Cd	0.1742	0.64864	0.32253	0.382
Mof_Cd	Cd	0.24527	0.03431	0.60037	0.339
Mof_Cd	Cd	0.35136	0.8258	0.17747	0.384
Mof_Cd	Cd	0.96569	0.75473	0.89963	0.361
Mof_Cd	Cd	0.37546	0.62454	0.75	0.317
Mof_Cd	Cd	0.62454	0.37546	0.25	0.315
Mof_Cd	Cd	0.5	0	-0	0.364
Mof_Cd	Cd	-8.52295e-18	0.5	0.5	0.376
Mof_H 	H 	0.625	0.5506	0.6835	0.001
Mof_H 	H 	0.6651	0.0039	0.6287	-0.004
Mof_H 	H 	0.8466	0.1726	0.4935	0.005
Mof_H 	H 	0.3504	0.6498	0.9939	0.001
Mof_H 	H 	0.4998	0.8192	0.8213	0.001
Mof_H 	H 	0.8383	0.5457	0.8521	0.001
Mof_H 	H 	0.0132	0.68	0.6735	-0.007
Mof_H 	H 	0.1796	0.278	0.4951	0.001
Mof_H 	H 	0.0161	0.1481	0.6837	0.015
Mof_H 	H 	0.0024	0.022	0.4086	-0.012
Mof_H 	H 	0.4494	0.375	0.8165	0.001
Mof_H 	H 	0.9961	0.3349	0.8713	0.003
Mof_H 	H 	0.8274	0.1534	0.0065	-0.012
Mof_H 	H 	0.3502	0.6496	0.5061	0.001
Mof_H 	H 	0.1808	0.5002	0.6787	-0.002
Mof_H 	H 	0.4543	0.1617	0.6479	-0.002
Mof_H 	H 	0.32	0.9868	0.8265	0.017
Mof_H 	H 	0.722	0.8204	0.0049	-0.01
Mof_H 	H 	0.8519	0.9839	0.8163	0.017
Mof_H 	H 	0.978	0.9976	0.0914	0.025
Mof_H 	H 	0.375	0.4494	0.3165	0
Mof_H 	H 	0.3349	0.9961	0.3713	0.001
Mof_H 	H 	0.1534	0.8274	0.5065	0.004
Mof_H 	H 	0.6496	0.3502	0.0061	0
Mof_H 	H 	0.5002	0.1808	0.1787	-0.003
Mof_H 	H 	0.1617	0.4543	0.1479	-0.004
Mof_H 	H 	0.9868	0.32	0.3265	0.018
Mof_H 	H 	0.8204	0.722	0.5049	0.002
Mof_H 	H 	0.9839	0.8519	0.3163	0.017
Mof_H 	H 	0.9976	0.978	0.5914	0.025
Mof_H 	H 	0.5506	0.625	0.1835	-0
Mof_H 	H 	0.0039	0.6651	0.1287	-0.006
Mof_H 	H 	0.1726	0.8466	0.9935	0.017
Mof_H 	H 	0.6498	0.3504	0.4939	-0
Mof_H 	H 	0.8192	0.4998	0.3213	0.001
Mof_H 	H 	0.5457	0.8383	0.3521	-0.001
Mof_H 	H 	0.68	0.0132	0.1735	-0.009
Mof_H 	H 	0.278	0.1796	0.9951	0.018
Mof_H 	H 	0.1481	0.0161	0.1837	0.015
Mof_H 	H 	0.022	0.0024	0.9086	-0.006
Mof_H 	H 	0.83	0.17	0.25	-0.023
Mof_H 	H 	0.17	0.83	0.75	-0.022
Mof_C 	C 	0.6007	0.4931	0.7143	0.094
Mof_C 	C 	0.7062	0.0566	0.613	0.091
Mof_C 	C 	0.8031	0.1471	0.5408	0.094
Mof_C 	C 	0.3871	0.7027	0.9695	0.103
Mof_C 	C 	0.4673	0.7937	0.8766	0.089
Mof_C 	C 	0.8766	0.5618	0.7966	0.089
Mof_C 	C 	0.9705	0.6337	0.7007	0.109
Mof_C 	C 	0.1263	0.2651	0.539	0.098
Mof_C 	C 	0.0394	0.196	0.6393	0.082
Mof_C 	C 	0.9771	0.0561	0.3513	0.119
Mof_C 	C 	0.5069	0.3993	0.7857	0.094
Mof_C 	C 	0.9434	0.2938	0.887	0.094
Mof_C 	C 	0.8529	0.1969	0.9592	0.118
Mof_C 	C 	0.2973	0.6129	0.5305	0.092
Mof_C 	C 	0.2063	0.5327	0.6234	0.088
Mof_C 	C 	0.4382	0.1234	0.7034	0.088
Mof_C 	C 	0.3663	0.0295	0.7993	0.078
Mof_C 	C 	0.7349	0.8737	0.961	0.118
Mof_C 	C 	0.804	0.9606	0.8607	0.102
Mof_C 	C 	0.9439	0.0229	0.1487	0.067
Mof_C 	C 	0.3993	0.5069	0.2857	0.093
Mof_C 	C 	0.2938	0.9434	0.387	0.094
Mof_C 	C 	0.1969	0.8529	0.4592	0.095
Mof_C 	C 	0.6129	0.2973	0.0305	0.078
Mof_C 	C 	0.5327	0.2063	0.1234	0.087
Mof_C 	C 	0.1234	0.4382	0.2034	0.087
Mof_C 	C 	0.0295	0.3663	0.2993	0.075
Mof_C 	C 	0.8737	0.7349	0.461	0.1
Mof_C 	C 	0.9606	0.804	0.3607	0.104
Mof_C 	C 	0.0229	0.9439	0.6487	0.071
Mof_C 	C 	0.4931	0.6007	0.2143	0.093
Mof_C 	C 	0.0566	0.7062	0.113	0.091
Mof_C 	C 	0.1471	0.8031	0.0408	0.076
Mof_C 	C 	0.7027	0.3871	0.4695	0.092
Mof_C 	C 	0.7937	0.4673	0.3766	0.089
Mof_C 	C 	0.5618	0.8766	0.2966	0.089
Mof_C 	C 	0.6337	0.9705	0.2007	0.111
Mof_C 	C 	0.2651	0.1263	0.039	0.075
Mof_C 	C 	0.196	0.0394	0.1393	0.08
Mof_C 	C 	0.0561	0.9771	0.8513	0.115
Mof_C 	C 	0.8848	0.1152	0.25	0.151
Mof_C 	C 	0.1152	0.8848	0.75	0.151
Mof_N 	N 	0.658	0.403	0.7264	-0.119
Mof_N 	N 	0.7798	0.193	0.6229	-0.118
Mof_N 	N 	0.7165	0.1335	0.6703	-0.12
Mof_N 	N 	0.7598	0.0604	0.5295	-0.171
Mof_N 	N 	0.4126	0.7774	0.0224	-0.127
Mof_N 	N 	0.4184	0.7086	0.8765	-0.169
Mof_N 	N 	0.4644	0.837	0.962	-0.111
Mof_N 	N 	0.8835	0.5071	0.7169	-0.118
Mof_N 	N 	0.9302	0.6434	0.7903	-0.168
Mof_N 	N 	0.9449	0.5539	0.6543	-0.119
Mof_N 	N 	0.0456	0.332	0.5555	-0.124
Mof_N 	N 	0.1277	0.1775	0.5889	-0.161
Mof_N 	N 	0.9881	0.2869	0.6212	-0.11
Mof_N 	N 	0.8808	0.0526	0.3205	-0.173
Mof_N 	N 	0.0333	0.1099	0.2965	-0.13
Mof_N 	N 	0.597	0.342	0.7736	-0.119
Mof_N 	N 	0.807	0.2202	0.8771	-0.121
Mof_N 	N 	0.8665	0.2835	0.8297	-0.119
Mof_N 	N 	0.9396	0.2402	0.9705	-0.165
Mof_N 	N 	0.2226	0.5874	0.4776	-0.118
Mof_N 	N 	0.2914	0.5816	0.6235	-0.168
Mof_N 	N 	0.163	0.5356	0.538	-0.119
Mof_N 	N 	0.4929	0.1165	0.7831	-0.119
Mof_N 	N 	0.3566	0.0698	0.7097	-0.165
Mof_N 	N 	0.4461	0.0551	0.8457	-0.115
Mof_N 	N 	0.668	0.9544	0.9445	-0.115
Mof_N 	N 	0.8225	0.8723	0.9111	-0.164
Mof_N 	N 	0.7131	0.0119	0.8788	-0.123
Mof_N 	N 	0.9474	0.1192	0.1795	-0.159
Mof_N 	N 	0.8901	0.9667	0.2035	-0.107
Mof_N 	N 	0.342	0.597	0.2736	-0.119
Mof_N 	N 	0.2202	0.807	0.3771	-0.118
Mof_N 	N 	0.2835	0.8665	0.3297	-0.119
Mof_N 	N 	0.2402	0.9396	0.4705	-0.165
Mof_N 	N 	0.5874	0.2226	0.9776	-0.107
Mof_N 	N 	0.5816	0.2914	0.1235	-0.167
Mof_N 	N 	0.5356	0.163	0.038	-0.125
Mof_N 	N 	0.1165	0.4929	0.2831	-0.119
Mof_N 	N 	0.0698	0.3566	0.2097	-0.165
Mof_N 	N 	0.0551	0.4461	0.3457	-0.118
Mof_N 	N 	0.9544	0.668	0.4445	-0.114
Mof_N 	N 	0.8723	0.8225	0.4111	-0.162
Mof_N 	N 	0.0119	0.7131	0.3788	-0.126
Mof_N 	N 	0.1192	0.9474	0.6795	-0.16
Mof_N 	N 	0.9667	0.8901	0.7035	-0.108
Mof_N 	N 	0.403	0.658	0.2264	-0.12
Mof_N 	N 	0.193	0.7798	0.1229	-0.116
Mof_N 	N 	0.1335	0.7165	0.1703	-0.121
Mof_N 	N 	0.0604	0.7598	0.0295	-0.172
Mof_N 	N 	0.7774	0.4126	0.5224	-0.118
Mof_N 	N 	0.7086	0.4184	0.3765	-0.168
Mof_N 	N 	0.837	0.4644	0.462	-0.117
Mof_N 	N 	0.5071	0.8835	0.2169	-0.118
Mof_N 	N 	0.6434	0.9302	0.2903	-0.168
Mof_N 	N 	0.5539	0.9449	0.1543	-0.12
Mof_N 	N 	0.332	0.0456	0.0555	-0.122
Mof_N 	N 	0.1775	0.1277	0.0889	-0.158
Mof_N 	N 	0.2869	0.9881	0.1212	-0.109
Mof_N 	N 	0.0526	0.8808	0.8205	-0.172
Mof_N 	N 	0.1099	0.0333	0.7965	-0.127
Mof_N 	N 	0.5055	0.4945	0.75	-0.165
Mof_N 	N 	0.4945	0.5055	0.25	-0.165
_end
