data_functionalizedCrystal
_audit_creation_method	'EQeq! by Chris Wilmer'
_symmetry_space_group_name_H-M	'P1'
_symmetry_Int_Tables_number	1
_symmetry_cell_setting	triclinic
loop_
_symmetry_equiv_pos_as_xyz
  x,y,z
_cell_length_a	23.532
_cell_length_b	23.532
_cell_length_c	23.181
_cell_angle_alpha	90
_cell_angle_beta	90
_cell_angle_gamma	90
loop_
_atom_site_label
_atom_site_type_symbol
_atom_site_fract_x
_atom_site_fract_y
_atom_site_fract_z
_atom_site_charge
Mof_Ni	Ni	0.002	0.74059	0.1391	1.077
Mof_Au	Au	0.86484	0.63983	0.2767	0.029
Mof_Au	Au	0.13446	0.83913	0.9954	0.021
Mof_Au	Au	0.89489	0.59416	0.0168	0.022
Mof_N 	N 	0.9475	0.7099	0.1985	-0.245
Mof_N 	N 	0.0574	0.769	0.0759	-0.237
Mof_N 	N 	0.9751	0.6733	0.0889	-0.234
Mof_N 	N 	0.028	0.8076	0.1902	-0.241
Mof_N 	N 	0.0672	0.6951	0.1744	-0.247
Mof_N 	N 	0.9412	0.7856	0.0995	-0.238
Mof_C 	C 	0.9161	0.6838	0.2264	0.047
Mof_C 	C 	0.0866	0.7909	0.0427	0.048
Mof_C 	C 	0.9484	0.641	0.0619	0.045
Mof_C 	C 	0.0525	0.84	0.2165	0.052
Mof_C 	C 	0.1046	0.6767	0.197	0.061
Mof_C 	C 	0.9108	0.8161	0.0696	0.033
Mof_Ni	Ni	0.502	0.24059	0.6391	1.077
Mof_Au	Au	0.36484	0.13983	0.7767	0.031
Mof_Au	Au	0.63446	0.33913	0.4954	0.02
Mof_Au	Au	0.39489	0.09416	0.5168	0.025
Mof_N 	N 	0.4475	0.2099	0.6985	-0.244
Mof_N 	N 	0.5574	0.269	0.5759	-0.236
Mof_N 	N 	0.4751	0.1733	0.5889	-0.234
Mof_N 	N 	0.528	0.3076	0.6902	-0.241
Mof_N 	N 	0.5672	0.1951	0.6744	-0.247
Mof_N 	N 	0.4412	0.2856	0.5995	-0.238
Mof_C 	C 	0.4161	0.1838	0.7264	0.047
Mof_C 	C 	0.5866	0.2909	0.5427	0.049
Mof_C 	C 	0.4484	0.141	0.5619	0.045
Mof_C 	C 	0.5525	0.34	0.7165	0.052
Mof_C 	C 	0.6046	0.1767	0.697	0.061
Mof_C 	C 	0.4108	0.3161	0.5696	0.033
Mof_Ni	Ni	0.498	0.75941	0.6391	1.077
Mof_Au	Au	0.63516	0.86017	0.7767	0.031
Mof_Au	Au	0.36554	0.66087	0.4954	0.02
Mof_Au	Au	0.60511	0.90584	0.5168	0.025
Mof_N 	N 	0.5525	0.7901	0.6985	-0.244
Mof_N 	N 	0.4426	0.731	0.5759	-0.236
Mof_N 	N 	0.5249	0.8267	0.5889	-0.234
Mof_N 	N 	0.472	0.6924	0.6902	-0.241
Mof_N 	N 	0.4328	0.8049	0.6744	-0.247
Mof_N 	N 	0.5588	0.7144	0.5995	-0.238
Mof_C 	C 	0.5839	0.8162	0.7264	0.047
Mof_C 	C 	0.4134	0.7091	0.5427	0.049
Mof_C 	C 	0.5516	0.859	0.5619	0.045
Mof_C 	C 	0.4475	0.66	0.7165	0.052
Mof_C 	C 	0.3954	0.8233	0.697	0.061
Mof_C 	C 	0.5892	0.6839	0.5696	0.033
Mof_Ni	Ni	0.998	0.25941	0.1391	1.078
Mof_Au	Au	0.13516	0.36017	0.2767	0.03
Mof_Au	Au	0.86554	0.16087	0.9954	0.022
Mof_Au	Au	0.10511	0.40584	0.0168	0.023
Mof_N 	N 	0.0525	0.2901	0.1985	-0.244
Mof_N 	N 	0.9426	0.231	0.0759	-0.236
Mof_N 	N 	0.0249	0.3267	0.0889	-0.234
Mof_N 	N 	0.972	0.1924	0.1902	-0.241
Mof_N 	N 	0.9328	0.3049	0.1744	-0.247
Mof_N 	N 	0.0588	0.2144	0.0995	-0.238
Mof_C 	C 	0.0839	0.3162	0.2264	0.047
Mof_C 	C 	0.9134	0.2091	0.0427	0.048
Mof_C 	C 	0.0516	0.359	0.0619	0.045
Mof_C 	C 	0.9475	0.16	0.2165	0.052
Mof_C 	C 	0.8954	0.3233	0.197	0.061
Mof_C 	C 	0.0892	0.1839	0.0696	0.033
Mof_Ni	Ni	0.25941	0.502	0.3891	1.077
Mof_Au	Au	0.36017	0.36484	0.5267	0.03
Mof_Au	Au	0.16087	0.63446	0.2454	0.02
Mof_Au	Au	0.40584	0.39489	0.2668	0.025
Mof_N 	N 	0.2901	0.4475	0.4485	-0.244
Mof_N 	N 	0.231	0.5574	0.3259	-0.236
Mof_N 	N 	0.3267	0.4751	0.3389	-0.234
Mof_N 	N 	0.1924	0.528	0.4402	-0.241
Mof_N 	N 	0.3049	0.5672	0.4244	-0.247
Mof_N 	N 	0.2144	0.4412	0.3495	-0.238
Mof_C 	C 	0.3162	0.4161	0.4764	0.047
Mof_C 	C 	0.2091	0.5866	0.2927	0.049
Mof_C 	C 	0.359	0.4484	0.3119	0.045
Mof_C 	C 	0.16	0.5525	0.4665	0.052
Mof_C 	C 	0.3233	0.6046	0.447	0.061
Mof_C 	C 	0.1839	0.4108	0.3196	0.033
Mof_Ni	Ni	0.75941	0.002	0.8891	1.078
Mof_Au	Au	0.86017	0.86484	0.0267	0.029
Mof_Au	Au	0.66087	0.13446	0.7454	0.02
Mof_Au	Au	0.90584	0.89489	0.7668	0.025
Mof_N 	N 	0.7901	0.9475	0.9485	-0.244
Mof_N 	N 	0.731	0.0574	0.8259	-0.236
Mof_N 	N 	0.8267	0.9751	0.8389	-0.234
Mof_N 	N 	0.6924	0.028	0.9402	-0.241
Mof_N 	N 	0.8049	0.0672	0.9244	-0.247
Mof_N 	N 	0.7144	0.9412	0.8495	-0.238
Mof_C 	C 	0.8162	0.9161	0.9764	0.048
Mof_C 	C 	0.7091	0.0866	0.7927	0.049
Mof_C 	C 	0.859	0.9484	0.8119	0.046
Mof_C 	C 	0.66	0.0525	0.9665	0.054
Mof_C 	C 	0.8233	0.1046	0.947	0.061
Mof_C 	C 	0.6839	0.9108	0.8196	0.033
Mof_Ni	Ni	0.24059	0.998	0.8891	1.078
Mof_Au	Au	0.13983	0.13516	0.0267	0.029
Mof_Au	Au	0.33913	0.86554	0.7454	0.02
Mof_Au	Au	0.09416	0.10511	0.7668	0.025
Mof_N 	N 	0.2099	0.0525	0.9485	-0.244
Mof_N 	N 	0.269	0.9426	0.8259	-0.236
Mof_N 	N 	0.1733	0.0249	0.8389	-0.234
Mof_N 	N 	0.3076	0.972	0.9402	-0.241
Mof_N 	N 	0.1951	0.9328	0.9244	-0.247
Mof_N 	N 	0.2856	0.0588	0.8495	-0.238
Mof_C 	C 	0.1838	0.0839	0.9764	0.048
Mof_C 	C 	0.2909	0.9134	0.7927	0.049
Mof_C 	C 	0.141	0.0516	0.8119	0.046
Mof_C 	C 	0.34	0.9475	0.9665	0.054
Mof_C 	C 	0.1767	0.8954	0.947	0.061
Mof_C 	C 	0.3161	0.0892	0.8196	0.033
Mof_Ni	Ni	0.74059	0.498	0.3891	1.077
Mof_Au	Au	0.63983	0.63516	0.5267	0.03
Mof_Au	Au	0.83913	0.36554	0.2454	0.02
Mof_Au	Au	0.59416	0.60511	0.2668	0.025
Mof_N 	N 	0.7099	0.5525	0.4485	-0.244
Mof_N 	N 	0.769	0.4426	0.3259	-0.236
Mof_N 	N 	0.6733	0.5249	0.3389	-0.234
Mof_N 	N 	0.8076	0.472	0.4402	-0.241
Mof_N 	N 	0.6951	0.4328	0.4244	-0.247
Mof_N 	N 	0.7856	0.5588	0.3495	-0.238
Mof_C 	C 	0.6838	0.5839	0.4764	0.047
Mof_C 	C 	0.7909	0.4134	0.2927	0.049
Mof_C 	C 	0.641	0.5516	0.3119	0.045
Mof_C 	C 	0.84	0.4475	0.4665	0.052
Mof_C 	C 	0.6767	0.3954	0.447	0.061
Mof_C 	C 	0.8161	0.5892	0.3196	0.033
Mof_Ni	Ni	0.002	0.25941	0.6391	1.078
Mof_Au	Au	0.86484	0.36017	0.7767	0.031
Mof_Au	Au	0.13446	0.16087	0.4954	0.02
Mof_Au	Au	0.89489	0.40584	0.5168	0.025
Mof_N 	N 	0.9475	0.2901	0.6985	-0.244
Mof_N 	N 	0.0574	0.231	0.5759	-0.236
Mof_N 	N 	0.9751	0.3267	0.5889	-0.234
Mof_N 	N 	0.028	0.1924	0.6902	-0.241
Mof_N 	N 	0.0672	0.3049	0.6744	-0.247
Mof_N 	N 	0.9412	0.2144	0.5995	-0.238
Mof_C 	C 	0.9161	0.3162	0.7264	0.047
Mof_C 	C 	0.0866	0.2091	0.5427	0.049
Mof_C 	C 	0.9484	0.359	0.5619	0.045
Mof_C 	C 	0.0525	0.16	0.7165	0.053
Mof_C 	C 	0.1046	0.3233	0.697	0.061
Mof_C 	C 	0.9108	0.1839	0.5696	0.033
Mof_Ni	Ni	0.502	0.75941	0.1391	1.077
Mof_Au	Au	0.36484	0.86017	0.2767	0.03
Mof_Au	Au	0.63446	0.66087	0.9954	0.022
Mof_Au	Au	0.39489	0.90584	0.0168	0.023
Mof_N 	N 	0.4475	0.7901	0.1985	-0.244
Mof_N 	N 	0.5574	0.731	0.0759	-0.236
Mof_N 	N 	0.4751	0.8267	0.0889	-0.234
Mof_N 	N 	0.528	0.6924	0.1902	-0.241
Mof_N 	N 	0.5672	0.8049	0.1744	-0.247
Mof_N 	N 	0.4412	0.7144	0.0995	-0.238
Mof_C 	C 	0.4161	0.8162	0.2264	0.047
Mof_C 	C 	0.5866	0.7091	0.0427	0.048
Mof_C 	C 	0.4484	0.859	0.0619	0.045
Mof_C 	C 	0.5525	0.66	0.2165	0.052
Mof_C 	C 	0.6046	0.8233	0.197	0.061
Mof_C 	C 	0.4108	0.6839	0.0696	0.033
Mof_Ni	Ni	0.498	0.24059	0.1391	1.077
Mof_Au	Au	0.63516	0.13983	0.2767	0.03
Mof_Au	Au	0.36554	0.33913	0.9954	0.022
Mof_Au	Au	0.60511	0.09416	0.0168	0.023
Mof_N 	N 	0.5525	0.2099	0.1985	-0.244
Mof_N 	N 	0.4426	0.269	0.0759	-0.236
Mof_N 	N 	0.5249	0.1733	0.0889	-0.234
Mof_N 	N 	0.472	0.3076	0.1902	-0.241
Mof_N 	N 	0.4328	0.1951	0.1744	-0.247
Mof_N 	N 	0.5588	0.2856	0.0995	-0.238
Mof_C 	C 	0.5839	0.1838	0.2264	0.047
Mof_C 	C 	0.4134	0.2909	0.0427	0.048
Mof_C 	C 	0.5516	0.141	0.0619	0.045
Mof_C 	C 	0.4475	0.34	0.2165	0.052
Mof_C 	C 	0.3954	0.1767	0.197	0.061
Mof_C 	C 	0.5892	0.3161	0.0696	0.033
Mof_Ni	Ni	0.998	0.74059	0.6391	1.078
Mof_Au	Au	0.13516	0.63983	0.7767	0.031
Mof_Au	Au	0.86554	0.83913	0.4954	0.02
Mof_Au	Au	0.10511	0.59416	0.5168	0.025
Mof_N 	N 	0.0525	0.7099	0.6985	-0.244
Mof_N 	N 	0.9426	0.769	0.5759	-0.236
Mof_N 	N 	0.0249	0.6733	0.5889	-0.234
Mof_N 	N 	0.972	0.8076	0.6902	-0.241
Mof_N 	N 	0.9328	0.6951	0.6744	-0.247
Mof_N 	N 	0.0588	0.7856	0.5995	-0.238
Mof_C 	C 	0.0839	0.6838	0.7264	0.047
Mof_C 	C 	0.9134	0.7909	0.5427	0.049
Mof_C 	C 	0.0516	0.641	0.5619	0.045
Mof_C 	C 	0.9475	0.84	0.7165	0.053
Mof_C 	C 	0.8954	0.6767	0.697	0.061
Mof_C 	C 	0.0892	0.8161	0.5696	0.033
Mof_Ni	Ni	0.25941	0.498	0.8891	1.078
Mof_Au	Au	0.36017	0.63516	0.0267	0.029
Mof_Au	Au	0.16087	0.36554	0.7454	0.02
Mof_Au	Au	0.40584	0.60511	0.7668	0.025
Mof_N 	N 	0.2901	0.5525	0.9485	-0.244
Mof_N 	N 	0.231	0.4426	0.8259	-0.236
Mof_N 	N 	0.3267	0.5249	0.8389	-0.234
Mof_N 	N 	0.1924	0.472	0.9402	-0.241
Mof_N 	N 	0.3049	0.4328	0.9244	-0.247
Mof_N 	N 	0.2144	0.5588	0.8495	-0.238
Mof_C 	C 	0.3162	0.5839	0.9764	0.048
Mof_C 	C 	0.2091	0.4134	0.7927	0.049
Mof_C 	C 	0.359	0.5516	0.8119	0.045
Mof_C 	C 	0.16	0.4475	0.9665	0.053
Mof_C 	C 	0.3233	0.3954	0.947	0.061
Mof_C 	C 	0.1839	0.5892	0.8196	0.033
Mof_Ni	Ni	0.75941	0.998	0.3891	1.078
Mof_Au	Au	0.86017	0.13516	0.5267	0.031
Mof_Au	Au	0.66087	0.86554	0.2454	0.02
Mof_Au	Au	0.90584	0.10511	0.2668	0.025
Mof_N 	N 	0.7901	0.0525	0.4485	-0.244
Mof_N 	N 	0.731	0.9426	0.3259	-0.236
Mof_N 	N 	0.8267	0.0249	0.3389	-0.234
Mof_N 	N 	0.6924	0.972	0.4402	-0.241
Mof_N 	N 	0.8049	0.9328	0.4244	-0.247
Mof_N 	N 	0.7144	0.0588	0.3495	-0.238
Mof_C 	C 	0.8162	0.0839	0.4764	0.047
Mof_C 	C 	0.7091	0.9134	0.2927	0.049
Mof_C 	C 	0.859	0.0516	0.3119	0.045
Mof_C 	C 	0.66	0.9475	0.4665	0.052
Mof_C 	C 	0.8233	0.8954	0.447	0.061
Mof_C 	C 	0.6839	0.0892	0.3196	0.033
Mof_Ni	Ni	0.24059	0.002	0.3891	1.078
Mof_Au	Au	0.13983	0.86484	0.5267	0.031
Mof_Au	Au	0.33913	0.13446	0.2454	0.02
Mof_Au	Au	0.09416	0.89489	0.2668	0.025
Mof_N 	N 	0.2099	0.9475	0.4485	-0.244
Mof_N 	N 	0.269	0.0574	0.3259	-0.236
Mof_N 	N 	0.1733	0.9751	0.3389	-0.234
Mof_N 	N 	0.3076	0.028	0.4402	-0.241
Mof_N 	N 	0.1951	0.0672	0.4244	-0.247
Mof_N 	N 	0.2856	0.9412	0.3495	-0.238
Mof_C 	C 	0.1838	0.9161	0.4764	0.047
Mof_C 	C 	0.2909	0.0866	0.2927	0.049
Mof_C 	C 	0.141	0.9484	0.3119	0.045
Mof_C 	C 	0.34	0.0525	0.4665	0.052
Mof_C 	C 	0.1767	0.1046	0.447	0.061
Mof_C 	C 	0.3161	0.9108	0.3196	0.033
Mof_Ni	Ni	0.74059	0.502	0.8891	1.078
Mof_Au	Au	0.63983	0.36484	0.0267	0.029
Mof_Au	Au	0.83913	0.63446	0.7454	0.02
Mof_Au	Au	0.59416	0.39489	0.7668	0.025
Mof_N 	N 	0.7099	0.4475	0.9485	-0.244
Mof_N 	N 	0.769	0.5574	0.8259	-0.236
Mof_N 	N 	0.6733	0.4751	0.8389	-0.234
Mof_N 	N 	0.8076	0.528	0.9402	-0.241
Mof_N 	N 	0.6951	0.5672	0.9244	-0.247
Mof_N 	N 	0.7856	0.4412	0.8495	-0.238
Mof_C 	C 	0.6838	0.4161	0.9764	0.048
Mof_C 	C 	0.7909	0.5866	0.7927	0.049
Mof_C 	C 	0.641	0.4484	0.8119	0.045
Mof_C 	C 	0.84	0.5525	0.9665	0.053
Mof_C 	C 	0.6767	0.6046	0.947	0.061
Mof_C 	C 	0.8161	0.4108	0.8196	0.033
_end
