data_functionalizedCrystal
_audit_creation_method	'EQeq! by Chris Wilmer'
_symmetry_space_group_name_H-M	'P1'
_symmetry_Int_Tables_number	1
_symmetry_cell_setting	triclinic
loop_
_symmetry_equiv_pos_as_xyz
  x,y,z
_cell_length_a	11.3684
_cell_length_b	17.0175
_cell_length_c	24.5043
_cell_angle_alpha	90
_cell_angle_beta	91.237
_cell_angle_gamma	90
loop_
_atom_site_label
_atom_site_type_symbol
_atom_site_fract_x
_atom_site_fract_y
_atom_site_fract_z
_atom_site_charge
Mof_Zn	Zn	0.15975	0.96021	0.65766	1.226
Mof_Zn	Zn	0.1381	0.45316	0.83139	1.228
Mof_Zn	Zn	0.00374	0.8348	0.57228	1.237
Mof_Zn	Zn	0.31876	0.99727	0.99128	1.241
Mof_Zn	Zn	0.84025	0.46021	0.84234	1.227
Mof_Zn	Zn	0.8619	0.95316	0.66861	1.228
Mof_Zn	Zn	0.99626	0.3348	0.92772	1.237
Mof_Zn	Zn	0.68124	0.49727	0.50872	1.243
Mof_Zn	Zn	0.84025	0.03979	0.34234	1.227
Mof_Zn	Zn	0.8619	0.54684	0.16861	1.229
Mof_Zn	Zn	0.99626	0.1652	0.42772	1.238
Mof_Zn	Zn	0.68124	0.00273	0.00872	1.242
Mof_Zn	Zn	0.15975	0.53979	0.15766	1.228
Mof_Zn	Zn	0.1381	0.04684	0.33139	1.229
Mof_Zn	Zn	0.00374	0.6652	0.07228	1.238
Mof_Zn	Zn	0.31876	0.50273	0.49128	1.244
Mof_H 	H 	0.1508	0.7278	0.9351	0.064
Mof_H 	H 	0.1576	0.6958	0.773	0.049
Mof_H 	H 	0.1799	0.9136	0.835	0.054
Mof_H 	H 	0.1788	0.4201	0.6517	0.048
Mof_H 	H 	0.193	0.2322	0.5525	0.062
Mof_H 	H 	0.143	0.2028	0.7125	0.05
Mof_H 	H 	0.5057	0.9052	0.6067	0.033
Mof_H 	H 	0.6803	0.7148	0.5562	0.032
Mof_H 	H 	0.3277	0.718	0.5478	0.035
Mof_H 	H 	0.8492	0.2278	0.5649	0.064
Mof_H 	H 	0.8424	0.1958	0.727	0.049
Mof_H 	H 	0.8201	0.4136	0.665	0.055
Mof_H 	H 	0.8212	0.9201	0.8483	0.048
Mof_H 	H 	0.807	0.7322	0.9475	0.061
Mof_H 	H 	0.857	0.7028	0.7875	0.05
Mof_H 	H 	0.4943	0.4052	0.8933	0.033
Mof_H 	H 	0.3197	0.2148	0.9438	0.033
Mof_H 	H 	0.6723	0.218	0.9522	0.036
Mof_H 	H 	0.8492	0.2722	0.0649	0.064
Mof_H 	H 	0.8424	0.3042	0.227	0.049
Mof_H 	H 	0.8201	0.0864	0.165	0.054
Mof_H 	H 	0.8212	0.5799	0.3483	0.048
Mof_H 	H 	0.807	0.7678	0.4475	0.062
Mof_H 	H 	0.857	0.7972	0.2875	0.05
Mof_H 	H 	0.4943	0.0948	0.3933	0.033
Mof_H 	H 	0.3197	0.2852	0.4438	0.032
Mof_H 	H 	0.6723	0.282	0.4522	0.035
Mof_H 	H 	0.1508	0.7722	0.4351	0.064
Mof_H 	H 	0.1576	0.8042	0.273	0.049
Mof_H 	H 	0.1799	0.5864	0.335	0.055
Mof_H 	H 	0.1788	0.0799	0.1517	0.048
Mof_H 	H 	0.193	0.2678	0.0525	0.061
Mof_H 	H 	0.143	0.2972	0.2125	0.05
Mof_H 	H 	0.5057	0.5948	0.1067	0.033
Mof_H 	H 	0.6803	0.7852	0.0562	0.033
Mof_H 	H 	0.3277	0.782	0.0478	0.036
Mof_C 	C 	0.16838	0.82912	0.89288	-0.082
Mof_C 	C 	0.15556	0.74849	0.90009	0.027
Mof_C 	C 	0.14992	0.69875	0.85517	-0.082
Mof_C 	C 	0.15856	0.72942	0.8029	0.031
Mof_C 	C 	0.1687	0.81039	0.79497	-0.092
Mof_C 	C 	0.17339	0.85966	0.84004	0.03
Mof_C 	C 	0.18739	0.88234	0.94145	0.334
Mof_C 	C 	0.13961	0.61076	0.86353	0.322
Mof_C 	C 	0.178	0.84236	0.73802	0.337
Mof_C 	C 	0.15551	0.31682	0.69062	-0.094
Mof_C 	C 	0.17452	0.36607	0.64653	0.028
Mof_C 	C 	0.18714	0.33473	0.59452	-0.081
Mof_C 	C 	0.18453	0.25321	0.58725	0.03
Mof_C 	C 	0.16936	0.20331	0.63163	-0.087
Mof_C 	C 	0.15426	0.2358	0.68274	0.031
Mof_C 	C 	0.14271	0.34974	0.7482	0.344
Mof_C 	C 	0.2083	0.38696	0.54655	0.315
Mof_C 	C 	0.17286	0.11593	0.62383	0.335
Mof_C 	C 	0.3984	0.81913	0.57796	-0.142
Mof_C 	C 	0.50523	0.85526	0.59137	0.088
Mof_C 	C 	0.61084	0.81736	0.58202	-0.144
Mof_C 	C 	0.60976	0.74056	0.56246	0.091
Mof_C 	C 	0.50375	0.70232	0.55225	-0.182
Mof_C 	C 	0.39836	0.74223	0.55764	0.097
Mof_C 	C 	0.2834	0.85985	0.5875	0.409
Mof_C 	C 	0.72771	0.85583	0.59574	0.408
Mof_C 	C 	0.50208	0.61734	0.53674	0.487
Mof_C 	C 	0.83162	0.32912	0.60712	-0.081
Mof_C 	C 	0.84444	0.24849	0.59991	0.026
Mof_C 	C 	0.85008	0.19875	0.64483	-0.082
Mof_C 	C 	0.84144	0.22942	0.6971	0.031
Mof_C 	C 	0.8313	0.31039	0.70503	-0.091
Mof_C 	C 	0.82661	0.35966	0.65996	0.029
Mof_C 	C 	0.81261	0.38234	0.55855	0.333
Mof_C 	C 	0.86039	0.11076	0.63647	0.321
Mof_C 	C 	0.822	0.34236	0.76198	0.336
Mof_C 	C 	0.84449	0.81682	0.80938	-0.094
Mof_C 	C 	0.82548	0.86607	0.85347	0.027
Mof_C 	C 	0.81286	0.83473	0.90548	-0.08
Mof_C 	C 	0.81547	0.75321	0.91275	0.029
Mof_C 	C 	0.83064	0.70331	0.86837	-0.087
Mof_C 	C 	0.84574	0.7358	0.81726	0.03
Mof_C 	C 	0.85729	0.84974	0.7518	0.344
Mof_C 	C 	0.7917	0.88696	0.95345	0.309
Mof_C 	C 	0.82714	0.61593	0.87617	0.335
Mof_C 	C 	0.6016	0.31913	0.92204	-0.141
Mof_C 	C 	0.49477	0.35526	0.90863	0.087
Mof_C 	C 	0.38916	0.31736	0.91798	-0.144
Mof_C 	C 	0.39024	0.24056	0.93754	0.091
Mof_C 	C 	0.49625	0.20232	0.94775	-0.181
Mof_C 	C 	0.60164	0.24223	0.94236	0.097
Mof_C 	C 	0.7166	0.35985	0.9125	0.409
Mof_C 	C 	0.27229	0.35583	0.90426	0.408
Mof_C 	C 	0.49792	0.11734	0.96326	0.486
Mof_C 	C 	0.83162	0.17088	0.10712	-0.082
Mof_C 	C 	0.84444	0.25151	0.09991	0.027
Mof_C 	C 	0.85008	0.30125	0.14483	-0.082
Mof_C 	C 	0.84144	0.27058	0.1971	0.031
Mof_C 	C 	0.8313	0.18961	0.20503	-0.092
Mof_C 	C 	0.82661	0.14034	0.15996	0.03
Mof_C 	C 	0.81261	0.11766	0.05855	0.334
Mof_C 	C 	0.86039	0.38924	0.13647	0.322
Mof_C 	C 	0.822	0.15764	0.26198	0.337
Mof_C 	C 	0.84449	0.68318	0.30938	-0.094
Mof_C 	C 	0.82548	0.63393	0.35347	0.028
Mof_C 	C 	0.81286	0.66527	0.40548	-0.081
Mof_C 	C 	0.81547	0.74679	0.41275	0.03
Mof_C 	C 	0.83064	0.79669	0.36837	-0.087
Mof_C 	C 	0.84574	0.7642	0.31726	0.031
Mof_C 	C 	0.85729	0.65026	0.2518	0.344
Mof_C 	C 	0.7917	0.61304	0.45345	0.315
Mof_C 	C 	0.82714	0.88407	0.37617	0.335
Mof_C 	C 	0.6016	0.18087	0.42204	-0.142
Mof_C 	C 	0.49477	0.14474	0.40863	0.088
Mof_C 	C 	0.38916	0.18264	0.41798	-0.144
Mof_C 	C 	0.39024	0.25944	0.43754	0.091
Mof_C 	C 	0.49625	0.29768	0.44775	-0.182
Mof_C 	C 	0.60164	0.25777	0.44236	0.097
Mof_C 	C 	0.7166	0.14015	0.4125	0.409
Mof_C 	C 	0.27229	0.14417	0.40426	0.408
Mof_C 	C 	0.49792	0.38266	0.46326	0.487
Mof_C 	C 	0.16838	0.67088	0.39288	-0.081
Mof_C 	C 	0.15556	0.75151	0.40009	0.026
Mof_C 	C 	0.14992	0.80125	0.35517	-0.082
Mof_C 	C 	0.15856	0.77058	0.3029	0.031
Mof_C 	C 	0.1687	0.68961	0.29497	-0.091
Mof_C 	C 	0.17339	0.64034	0.34004	0.029
Mof_C 	C 	0.18739	0.61766	0.44145	0.333
Mof_C 	C 	0.13961	0.88924	0.36353	0.321
Mof_C 	C 	0.178	0.65764	0.23802	0.336
Mof_C 	C 	0.15551	0.18318	0.19062	-0.094
Mof_C 	C 	0.17452	0.13393	0.14653	0.027
Mof_C 	C 	0.18714	0.16527	0.09452	-0.08
Mof_C 	C 	0.18453	0.24679	0.08725	0.029
Mof_C 	C 	0.16936	0.29669	0.13163	-0.087
Mof_C 	C 	0.15426	0.2642	0.18274	0.03
Mof_C 	C 	0.14271	0.15026	0.2482	0.344
Mof_C 	C 	0.2083	0.11304	0.04655	0.309
Mof_C 	C 	0.17286	0.38407	0.12383	0.335
Mof_C 	C 	0.3984	0.68087	0.07796	-0.141
Mof_C 	C 	0.50523	0.64474	0.09137	0.087
Mof_C 	C 	0.61084	0.68264	0.08202	-0.144
Mof_C 	C 	0.60976	0.75944	0.06246	0.091
Mof_C 	C 	0.50375	0.79768	0.05225	-0.181
Mof_C 	C 	0.39836	0.75777	0.05764	0.097
Mof_C 	C 	0.2834	0.64015	0.0875	0.409
Mof_C 	C 	0.72771	0.64417	0.09574	0.408
Mof_C 	C 	0.50208	0.88266	0.03674	0.486
Mof_O 	O 	0.23529	0.94861	0.9308	-0.434
Mof_O 	O 	0.16347	0.86102	0.98767	-0.276
Mof_O 	O 	0.1213	0.58404	0.90957	-0.26
Mof_O 	O 	0.15022	0.56833	0.82097	-0.436
Mof_O 	O 	0.20219	0.79576	0.70046	-0.29
Mof_O 	O 	0.16194	0.91549	0.73173	-0.459
Mof_O 	O 	0.13319	0.30284	0.78572	-0.317
Mof_O 	O 	0.14264	0.42255	0.7541	-0.461
Mof_O 	O 	0.17847	0.36588	0.49995	-0.275
Mof_O 	O 	0.26244	0.45235	0.55674	-0.438
Mof_O 	O 	0.16814	0.07576	0.66749	-0.442
Mof_O 	O 	0.18037	0.08774	0.57759	-0.261
Mof_O 	O 	0.2915	0.9218	0.61631	-0.465
Mof_O 	O 	0.19112	0.83057	0.56802	-0.427
Mof_O 	O 	0.81735	0.82663	0.57582	-0.425
Mof_O 	O 	0.7239	0.91415	0.62825	-0.467
Mof_O 	O 	0.41205	0.5914	0.51656	-0.52
Mof_O 	O 	0.59248	0.57852	0.54735	-0.502
Mof_O 	O 	0.00363	0.93739	0.62332	-0.636
Mof_O 	O 	0.01487	0.7601	0.63769	-0.29
Mof_O 	O 	0.99755	0.74193	0.51886	-0.247
Mof_O 	O 	0.99005	0.91059	0.50553	-0.231
Mof_O 	O 	0.76471	0.44861	0.5692	-0.431
Mof_O 	O 	0.83653	0.36102	0.51233	-0.273
Mof_O 	O 	0.8787	0.08404	0.59043	-0.26
Mof_O 	O 	0.84978	0.06833	0.67903	-0.436
Mof_O 	O 	0.79781	0.29576	0.79954	-0.29
Mof_O 	O 	0.83806	0.41549	0.76827	-0.458
Mof_O 	O 	0.86681	0.80284	0.71428	-0.318
Mof_O 	O 	0.85736	0.92255	0.7459	-0.461
Mof_O 	O 	0.82153	0.86588	5e-05	-0.269
Mof_O 	O 	0.73756	0.95235	0.94326	-0.438
Mof_O 	O 	0.83186	0.57576	0.83251	-0.444
Mof_O 	O 	0.81963	0.58774	0.92241	-0.263
Mof_O 	O 	0.7085	0.4218	0.88369	-0.465
Mof_O 	O 	0.80888	0.33057	0.93198	-0.427
Mof_O 	O 	0.18265	0.32663	0.92418	-0.424
Mof_O 	O 	0.2761	0.41415	0.87175	-0.467
Mof_O 	O 	0.58795	0.0914	0.98344	-0.518
Mof_O 	O 	0.40752	0.07852	0.95265	-0.499
Mof_O 	O 	0.99637	0.43739	0.87668	-0.635
Mof_O 	O 	0.98513	0.2601	0.86231	-0.291
Mof_O 	O 	0.00245	0.24193	0.98114	-0.245
Mof_O 	O 	0.00995	0.41059	0.99447	-0.231
Mof_O 	O 	0.76471	0.05139	0.0692	-0.434
Mof_O 	O 	0.83653	0.13898	0.01233	-0.276
Mof_O 	O 	0.8787	0.41596	0.09043	-0.26
Mof_O 	O 	0.84978	0.43167	0.17903	-0.436
Mof_O 	O 	0.79781	0.20424	0.29954	-0.29
Mof_O 	O 	0.83806	0.08451	0.26827	-0.459
Mof_O 	O 	0.86681	0.69716	0.21428	-0.317
Mof_O 	O 	0.85736	0.57745	0.2459	-0.461
Mof_O 	O 	0.82153	0.63412	0.50005	-0.275
Mof_O 	O 	0.73756	0.54765	0.44326	-0.438
Mof_O 	O 	0.83186	0.92424	0.33251	-0.442
Mof_O 	O 	0.81963	0.91226	0.42241	-0.261
Mof_O 	O 	0.7085	0.0782	0.38369	-0.465
Mof_O 	O 	0.80888	0.16943	0.43198	-0.427
Mof_O 	O 	0.18265	0.17337	0.42418	-0.425
Mof_O 	O 	0.2761	0.08585	0.37175	-0.467
Mof_O 	O 	0.58795	0.4086	0.48344	-0.52
Mof_O 	O 	0.40752	0.42148	0.45265	-0.502
Mof_O 	O 	0.99637	0.06261	0.37668	-0.636
Mof_O 	O 	0.98513	0.2399	0.36231	-0.29
Mof_O 	O 	0.00245	0.25807	0.48114	-0.247
Mof_O 	O 	0.00995	0.08941	0.49447	-0.231
Mof_O 	O 	0.23529	0.55139	0.4308	-0.431
Mof_O 	O 	0.16347	0.63898	0.48767	-0.273
Mof_O 	O 	0.1213	0.91596	0.40957	-0.26
Mof_O 	O 	0.15022	0.93167	0.32097	-0.436
Mof_O 	O 	0.20219	0.70424	0.20046	-0.29
Mof_O 	O 	0.16194	0.58451	0.23173	-0.458
Mof_O 	O 	0.13319	0.19716	0.28572	-0.318
Mof_O 	O 	0.14264	0.07745	0.2541	-0.461
Mof_O 	O 	0.17847	0.13412	0.99995	-0.269
Mof_O 	O 	0.26244	0.04765	0.05674	-0.438
Mof_O 	O 	0.16814	0.42424	0.16749	-0.444
Mof_O 	O 	0.18037	0.41226	0.07759	-0.263
Mof_O 	O 	0.2915	0.5782	0.11631	-0.465
Mof_O 	O 	0.19112	0.66943	0.06802	-0.427
Mof_O 	O 	0.81735	0.67337	0.07582	-0.424
Mof_O 	O 	0.7239	0.58585	0.12825	-0.467
Mof_O 	O 	0.41205	0.9086	0.01656	-0.518
Mof_O 	O 	0.59248	0.92148	0.04735	-0.499
Mof_O 	O 	0.00363	0.56261	0.12332	-0.635
Mof_O 	O 	0.01487	0.7399	0.13769	-0.291
Mof_O 	O 	0.99755	0.75807	0.01886	-0.245
Mof_O 	O 	0.99005	0.58941	0.00553	-0.231
Mof_H 	H 	0.3469	0.3433	0.3437	0.162
Mof_H 	H 	0.276	0.3021	0.2962	0.175
Mof_H 	H 	0.349	0.3781	0.2845	0.149
Mof_H 	H 	0.5369	0.4555	0.2899	0.262
Mof_H 	H 	0.5911	0.5284	0.3204	0.268
Mof_H 	H 	0.6322	0.507	0.2616	0.263
Mof_H 	H 	0.6918	0.3893	0.2961	-0.045
Mof_H 	H 	0.6628	0.4188	0.3529	-0.037
Mof_H 	H 	0.8209	0.353	0.3386	0.157
Mof_H 	H 	0.8737	0.4245	0.31	0.159
Mof_H 	H 	0.9204	0.3738	0.4154	0.067
Mof_H 	H 	0.9034	0.4649	0.4138	0.053
Mof_H 	H 	0.1948	0.3883	0.4075	0.034
Mof_H 	H 	0.9493	0.4373	0.3049	-0.04
Mof_H 	H 	0.1159	0.4295	0.2473	0.065
Mof_C 	C 	0.3015	0.3518	0.3107	-0.396
Mof_C 	C 	0.607	0.486	0.2958	-0.779
Mof_C 	C 	0.7043	0.4337	0.3204	0.285
Mof_C 	C 	0.8266	0.4098	0.34089	-0.33
Mof_C 	C 	0.9255	0.4197	0.3921	0.014
Mof_C 	C 	0.152	0.4038	0.37654	0.087
Mof_C 	C 	0.0257	0.4308	0.3185	0.097
Mof_C 	C 	0.1121	0.423	0.2849	-0.057
Mof_N 	N 	0.1946	0.4021	0.32305	-0.057
Mof_N 	N 	0.0479	0.42928	0.37669	-0.124
Mof_H 	H 	0.6531	0.8433	0.1563	0.162
Mof_H 	H 	0.724	0.8021	0.2038	0.175
Mof_H 	H 	0.651	0.8781	0.2155	0.151
Mof_H 	H 	0.4631	0.9555	0.2101	0.252
Mof_H 	H 	0.4089	0.0284	0.1796	0.257
Mof_H 	H 	0.3678	0.007	0.2384	0.252
Mof_H 	H 	0.3082	0.8893	0.2039	-0.041
Mof_H 	H 	0.3372	0.9188	0.1471	-0.032
Mof_H 	H 	0.1791	0.853	0.1614	0.154
Mof_H 	H 	0.1263	0.9245	0.19	0.157
Mof_H 	H 	0.0796	0.8738	0.0846	0.069
Mof_H 	H 	0.0966	0.9649	0.0862	0.056
Mof_H 	H 	0.8052	0.8883	0.0925	0.035
Mof_H 	H 	0.0507	0.9373	0.1951	-0.045
Mof_H 	H 	0.8841	0.9295	0.2527	0.068
Mof_C 	C 	0.6985	0.8518	0.1893	-0.397
Mof_C 	C 	0.393	0.986	0.2042	-0.746
Mof_C 	C 	0.2957	0.9337	0.1796	0.27
Mof_C 	C 	0.1734	0.9098	0.15911	-0.321
Mof_C 	C 	0.0745	0.9197	0.1079	0.007
Mof_C 	C 	0.848	0.9038	0.12346	0.087
Mof_C 	C 	0.9743	0.9308	0.1815	0.107
Mof_C 	C 	0.8879	0.923	0.2151	-0.061
Mof_N 	N 	0.8054	0.9021	0.17695	-0.056
Mof_N 	N 	0.9521	0.92928	0.12331	-0.122
Mof_H 	H 	0.6531	0.6567	0.6563	0.162
Mof_H 	H 	0.724	0.6979	0.7038	0.175
Mof_H 	H 	0.651	0.6219	0.7155	0.149
Mof_H 	H 	0.4631	0.5445	0.7101	0.262
Mof_H 	H 	0.4089	0.4716	0.6796	0.268
Mof_H 	H 	0.3678	0.493	0.7384	0.263
Mof_H 	H 	0.3082	0.6107	0.7039	-0.045
Mof_H 	H 	0.3372	0.5812	0.6471	-0.037
Mof_H 	H 	0.1791	0.647	0.6614	0.157
Mof_H 	H 	0.1263	0.5755	0.69	0.159
Mof_H 	H 	0.0796	0.6262	0.5846	0.067
Mof_H 	H 	0.0966	0.5351	0.5862	0.053
Mof_H 	H 	0.8052	0.6117	0.5925	0.034
Mof_H 	H 	0.0507	0.5627	0.6951	-0.04
Mof_H 	H 	0.8841	0.5705	0.7527	0.065
Mof_C 	C 	0.6985	0.6482	0.6893	-0.396
Mof_C 	C 	0.393	0.514	0.7042	-0.779
Mof_C 	C 	0.2957	0.5663	0.6796	0.285
Mof_C 	C 	0.1734	0.5902	0.65911	-0.33
Mof_C 	C 	0.0745	0.5803	0.6079	0.014
Mof_C 	C 	0.848	0.5962	0.62346	0.087
Mof_C 	C 	0.9743	0.5692	0.6815	0.097
Mof_C 	C 	0.8879	0.577	0.7151	-0.057
Mof_N 	N 	0.8054	0.5979	0.67695	-0.057
Mof_N 	N 	0.9521	0.57072	0.62331	-0.124
Mof_H 	H 	0.3469	0.1567	0.8437	0.162
Mof_H 	H 	0.276	0.1979	0.7962	0.175
Mof_H 	H 	0.349	0.1219	0.7845	0.151
Mof_H 	H 	0.5369	0.0445	0.7899	0.252
Mof_H 	H 	0.5911	0.9716	0.8204	0.257
Mof_H 	H 	0.6322	0.993	0.7616	0.252
Mof_H 	H 	0.6918	0.1107	0.7961	-0.041
Mof_H 	H 	0.6628	0.0812	0.8529	-0.032
Mof_H 	H 	0.8209	0.147	0.8386	0.154
Mof_H 	H 	0.8737	0.0755	0.81	0.157
Mof_H 	H 	0.9204	0.1262	0.9154	0.069
Mof_H 	H 	0.9034	0.0351	0.9138	0.056
Mof_H 	H 	0.1948	0.1117	0.9075	0.035
Mof_H 	H 	0.9493	0.0627	0.8049	-0.045
Mof_H 	H 	0.1159	0.0705	0.7473	0.068
Mof_C 	C 	0.3015	0.1482	0.8107	-0.397
Mof_C 	C 	0.607	0.014	0.7958	-0.746
Mof_C 	C 	0.7043	0.0663	0.8204	0.27
Mof_C 	C 	0.8266	0.0902	0.84089	-0.321
Mof_C 	C 	0.9255	0.0803	0.8921	0.007
Mof_C 	C 	0.152	0.0962	0.87654	0.087
Mof_C 	C 	0.0257	0.0692	0.8185	0.107
Mof_C 	C 	0.1121	0.077	0.7849	-0.061
Mof_N 	N 	0.1946	0.0979	0.82305	-0.056
Mof_N 	N 	0.0479	0.07072	0.87669	-0.122
_end
