data_functionalizedCrystal
_audit_creation_method	'EQeq! by Chris Wilmer'
_symmetry_space_group_name_H-M	'P1'
_symmetry_Int_Tables_number	1
_symmetry_cell_setting	triclinic
loop_
_symmetry_equiv_pos_as_xyz
  x,y,z
_cell_length_a	15.3301
_cell_length_b	15.3301
_cell_length_c	15.3301
_cell_angle_alpha	102.038
_cell_angle_beta	102.038
_cell_angle_gamma	102.038
loop_
_atom_site_label
_atom_site_type_symbol
_atom_site_fract_x
_atom_site_fract_y
_atom_site_fract_z
_atom_site_charge
Mof_Zn	Zn	0.02298	0.02298	0.41653	1.192
Mof_Zn	Zn	0.41653	0.02298	0.02298	1.192
Mof_Zn	Zn	0.02298	0.41653	0.02298	1.192
Mof_Zn	Zn	0.97702	0.97702	0.58347	1.194
Mof_Zn	Zn	0.97702	0.58347	0.97702	1.194
Mof_Zn	Zn	0.58347	0.97702	0.97702	1.194
Mof_H 	H 	0.3037	0.0142	0.4938	0.044
Mof_H 	H 	0.4938	0.3037	0.0142	0.044
Mof_H 	H 	0.0142	0.4938	0.3037	0.044
Mof_H 	H 	0.9858	0.6963	0.5062	0.045
Mof_H 	H 	0.6963	0.5062	0.9858	0.045
Mof_H 	H 	0.5062	0.9858	0.6963	0.045
Mof_H 	H 	0.6963	0.9858	0.5062	0.045
Mof_H 	H 	0.5062	0.6963	0.9858	0.045
Mof_H 	H 	0.9858	0.5062	0.6963	0.045
Mof_H 	H 	0.0142	0.3037	0.4938	0.044
Mof_H 	H 	0.3037	0.4938	0.0142	0.044
Mof_H 	H 	0.4938	0.0142	0.3037	0.044
Mof_H 	H 	0.25925	0	0.74075	0.037
Mof_H 	H 	0.74075	0.25925	-0	0.037
Mof_H 	H 	-1.06873e-17	0.74075	0.25925	0.037
Mof_H 	H 	0.74075	0	0.25925	0.037
Mof_H 	H 	0.25925	0.74075	-0	0.037
Mof_H 	H 	-8.54983e-18	0.25925	0.74075	0.037
Mof_C 	C 	0.26686	0.00639	0.61237	-0.107
Mof_C 	C 	0.32398	0.00806	0.55319	-0.011
Mof_C 	C 	0.16914	0.01267	0.5782	0.401
Mof_C 	C 	0.61237	0.26686	0.00639	-0.107
Mof_C 	C 	0.55319	0.32398	0.00806	-0.011
Mof_C 	C 	0.5782	0.16914	0.01267	0.401
Mof_C 	C 	0.00639	0.61237	0.26686	-0.107
Mof_C 	C 	0.00806	0.55319	0.32398	-0.011
Mof_C 	C 	0.01267	0.5782	0.16914	0.401
Mof_C 	C 	0.99361	0.73314	0.38763	-0.106
Mof_C 	C 	0.99194	0.67602	0.44681	-0.006
Mof_C 	C 	0.98733	0.83086	0.4218	0.411
Mof_C 	C 	0.73314	0.38763	0.99361	-0.106
Mof_C 	C 	0.67602	0.44681	0.99194	-0.006
Mof_C 	C 	0.83086	0.4218	0.98733	0.411
Mof_C 	C 	0.38763	0.99361	0.73314	-0.106
Mof_C 	C 	0.44681	0.99194	0.67602	-0.006
Mof_C 	C 	0.4218	0.98733	0.83086	0.411
Mof_C 	C 	0.73314	0.99361	0.38763	-0.106
Mof_C 	C 	0.67602	0.99194	0.44681	-0.006
Mof_C 	C 	0.83086	0.98733	0.4218	0.411
Mof_C 	C 	0.38763	0.73314	0.99361	-0.106
Mof_C 	C 	0.44681	0.67602	0.99194	-0.006
Mof_C 	C 	0.4218	0.83086	0.98733	0.411
Mof_C 	C 	0.99361	0.38763	0.73314	-0.106
Mof_C 	C 	0.99194	0.44681	0.67602	-0.006
Mof_C 	C 	0.98733	0.4218	0.83086	0.411
Mof_C 	C 	0.00639	0.26686	0.61237	-0.107
Mof_C 	C 	0.00806	0.32398	0.55319	-0.011
Mof_C 	C 	0.01267	0.16914	0.5782	0.401
Mof_C 	C 	0.26686	0.61237	0.00639	-0.107
Mof_C 	C 	0.32398	0.55319	0.00806	-0.011
Mof_C 	C 	0.16914	0.5782	0.01267	0.401
Mof_C 	C 	0.61237	0.00639	0.26686	-0.107
Mof_C 	C 	0.55319	0.00806	0.32398	-0.011
Mof_C 	C 	0.5782	0.01267	0.16914	0.401
Mof_C 	C 	0.41357	0	0.58643	-0.001
Mof_C 	C 	0.29829	0	0.70171	0.044
Mof_C 	C 	0.47598	0	0.52403	-0.016
Mof_C 	C 	0.58643	0.41357	-0	-0.001
Mof_C 	C 	0.70171	0.29829	-0	0.044
Mof_C 	C 	0.52403	0.47597	-0	-0.016
Mof_C 	C 	-2.56495e-17	0.58643	0.41357	-0.001
Mof_C 	C 	-3.20619e-17	0.70171	0.29829	0.044
Mof_C 	C 	-3.41993e-17	0.52402	0.47597	-0.016
Mof_C 	C 	0.58643	0	0.41357	-0.001
Mof_C 	C 	0.70171	0	0.29829	0.044
Mof_C 	C 	0.52402	-1.70997e-17	0.47597	-0.016
Mof_C 	C 	0.41357	0.58643	-0	-0.001
Mof_C 	C 	0.29829	0.70171	-0	0.044
Mof_C 	C 	0.47597	0.52402	-0	-0.016
Mof_C 	C 	1.28247e-17	0.41357	0.58643	-0.001
Mof_C 	C 	-3.41993e-17	0.29829	0.70171	0.044
Mof_C 	C 	1.70997e-17	0.47598	0.52403	-0.016
Mof_O 	O 	0.14651	0.02603	0.49972	-0.493
Mof_O 	O 	0.11697	0.99754	0.62837	-0.469
Mof_O 	O 	0.49972	0.14651	0.02603	-0.493
Mof_O 	O 	0.62837	0.11697	0.99754	-0.469
Mof_O 	O 	0.02603	0.49972	0.14651	-0.493
Mof_O 	O 	0.99754	0.62837	0.11697	-0.469
Mof_O 	O 	0.97397	0.85349	0.50028	-0.491
Mof_O 	O 	0.00246	0.88303	0.37163	-0.475
Mof_O 	O 	0.85349	0.50028	0.97397	-0.491
Mof_O 	O 	0.88303	0.37163	0.00246	-0.475
Mof_O 	O 	0.50028	0.97397	0.85349	-0.491
Mof_O 	O 	0.37163	0.00246	0.88303	-0.475
Mof_O 	O 	0.85349	0.97397	0.50028	-0.491
Mof_O 	O 	0.88303	0.00246	0.37163	-0.475
Mof_O 	O 	0.50028	0.85349	0.97397	-0.491
Mof_O 	O 	0.37163	0.88303	0.00246	-0.475
Mof_O 	O 	0.97397	0.50028	0.85349	-0.491
Mof_O 	O 	0.00246	0.37163	0.88303	-0.475
Mof_O 	O 	0.02603	0.14651	0.49972	-0.493
Mof_O 	O 	0.99754	0.11697	0.62837	-0.469
Mof_O 	O 	0.14651	0.49972	0.02603	-0.493
Mof_O 	O 	0.11697	0.62837	0.99754	-0.469
Mof_O 	O 	0.49972	0.02603	0.14651	-0.493
Mof_O 	O 	0.62837	0.99754	0.11697	-0.469
_end
