data_functionalizedCrystal
_audit_creation_method	'EQeq! by Chris Wilmer'
_symmetry_space_group_name_H-M	'P1'
_symmetry_Int_Tables_number	1
_symmetry_cell_setting	triclinic
loop_
_symmetry_equiv_pos_as_xyz
  x,y,z
_cell_length_a	19.727
_cell_length_b	28.3842
_cell_length_c	28.3842
_cell_angle_alpha	61.4853
_cell_angle_beta	69.6655
_cell_angle_gamma	69.6655
loop_
_atom_site_label
_atom_site_type_symbol
_atom_site_fract_x
_atom_site_fract_y
_atom_site_fract_z
_atom_site_charge
Mof_Zn	Zn	0.65742	0.52065	0.01443	1.197
Mof_Zn	Zn	0.87351	0.4499	0.31938	1.233
Mof_Zn	Zn	0.64709	0.69766	0.55642	1.173
Mof_Zn	Zn	0.34258	0.98557	0.47935	1.197
Mof_Zn	Zn	0.12649	0.68062	0.5501	1.233
Mof_Zn	Zn	0.35291	0.44358	0.30234	1.173
Mof_Zn	Zn	0.1925	0.97935	0.48557	1.197
Mof_Zn	Zn	0.64279	0.0501	0.18062	1.233
Mof_Zn	Zn	0.90117	0.80234	0.94358	1.173
Mof_Zn	Zn	0.8075	0.51443	0.02065	1.197
Mof_Zn	Zn	0.35721	0.81938	0.9499	1.234
Mof_Zn	Zn	0.09883	0.05642	0.19766	1.174
Mof_Zn	Zn	0.34258	0.47935	0.98557	1.198
Mof_Zn	Zn	0.12649	0.5501	0.68062	1.234
Mof_Zn	Zn	0.35291	0.30234	0.44358	1.174
Mof_Zn	Zn	0.65742	0.01443	0.52065	1.198
Mof_Zn	Zn	0.87351	0.31938	0.4499	1.234
Mof_Zn	Zn	0.64709	0.55642	0.69766	1.174
Mof_Zn	Zn	0.8075	0.02065	0.51443	1.198
Mof_Zn	Zn	0.35721	0.9499	0.81938	1.234
Mof_Zn	Zn	0.09883	0.19766	0.05642	1.174
Mof_Zn	Zn	0.1925	0.48557	0.97935	1.198
Mof_Zn	Zn	0.64279	0.18062	0.0501	1.234
Mof_Zn	Zn	0.90117	0.94358	0.80234	1.174
Mof_Zn	Zn	0.73645	0.42438	0.42438	1.219
Mof_Zn	Zn	0.26355	0.57562	0.57562	1.219
Mof_Zn	Zn	0.58521	0.07562	0.07562	1.219
Mof_Zn	Zn	0.41479	0.92438	0.92438	1.219
Mof_Zn	Zn	0.75908	0.60435	0.60435	1.184
Mof_Zn	Zn	0.60806	0.5932	0.5932	1.209
Mof_Zn	Zn	0.24092	0.39565	0.39565	1.184
Mof_Zn	Zn	0.39194	0.4068	0.4068	1.209
Mof_Zn	Zn	0.96778	0.89565	0.89565	1.184
Mof_Zn	Zn	0.79446	0.9068	0.9068	1.209
Mof_Zn	Zn	0.03222	0.10435	0.10435	1.184
Mof_Zn	Zn	0.20554	0.0932	0.0932	1.209
Mof_Zn	Zn	0.03293	0.71707	0.21707	1.199
Mof_Zn	Zn	0.96707	0.78293	0.28293	1.199
Mof_Zn	Zn	0.96707	0.28293	0.78293	1.199
Mof_Zn	Zn	0.03293	0.21707	0.71707	1.199
Mof_H 	H 	0.7234	0.5611	0.4495	0.027
Mof_H 	H 	0.808	0.6897	0.4035	0.007
Mof_H 	H 	0.883	0.6031	0.3127	0.021
Mof_H 	H 	0.5663	0.4725	0.1893	0.017
Mof_H 	H 	0.6017	0.4415	0.3325	0.021
Mof_H 	H 	0.7628	0.4791	0.1947	0.024
Mof_H 	H 	0.7118	0.5584	0.8336	0.019
Mof_H 	H 	0.9088	0.5417	0.8567	0.019
Mof_H 	H 	0.8905	0.575	0.7082	0.025
Mof_H 	H 	0.2766	0.5505	0.4389	0.027
Mof_H 	H 	0.192	0.5965	0.3103	0.007
Mof_H 	H 	0.117	0.6873	0.3969	0.021
Mof_H 	H 	0.4337	0.8107	0.5275	0.017
Mof_H 	H 	0.3983	0.6675	0.5585	0.021
Mof_H 	H 	0.2372	0.8053	0.5209	0.024
Mof_H 	H 	0.2882	0.1664	0.4416	0.019
Mof_H 	H 	0.0912	0.1433	0.4583	0.019
Mof_H 	H 	0.1095	0.2918	0.425	0.025
Mof_H 	H 	0.734	0.9389	0.0505	0.027
Mof_H 	H 	0.9012	0.8103	0.0965	0.007
Mof_H 	H 	0.7988	0.8969	0.1873	0.02
Mof_H 	H 	0.2281	0.0275	0.3107	0.016
Mof_H 	H 	0.3757	0.0585	0.1675	0.021
Mof_H 	H 	0.4366	0.0209	0.3053	0.024
Mof_H 	H 	0.1038	0.9416	0.6664	0.019
Mof_H 	H 	0.3072	0.9583	0.6433	0.019
Mof_H 	H 	0.1737	0.925	0.7918	0.025
Mof_H 	H 	0.266	0.9495	0.0611	0.027
Mof_H 	H 	0.0988	0.9035	0.1897	0.007
Mof_H 	H 	0.2012	0.8127	0.1031	0.02
Mof_H 	H 	0.7719	0.6893	0.9725	0.016
Mof_H 	H 	0.6243	0.8325	0.9415	0.021
Mof_H 	H 	0.5634	0.6947	0.9791	0.024
Mof_H 	H 	0.8962	0.3336	0.0584	0.019
Mof_H 	H 	0.6928	0.3567	0.0417	0.019
Mof_H 	H 	0.8263	0.2082	0.075	0.025
Mof_H 	H 	0.2766	0.4389	0.5505	0.027
Mof_H 	H 	0.192	0.3103	0.5965	0.007
Mof_H 	H 	0.117	0.3969	0.6873	0.021
Mof_H 	H 	0.4337	0.5275	0.8107	0.017
Mof_H 	H 	0.3983	0.5585	0.6675	0.021
Mof_H 	H 	0.2372	0.5209	0.8053	0.024
Mof_H 	H 	0.2882	0.4416	0.1664	0.019
Mof_H 	H 	0.0912	0.4583	0.1433	0.019
Mof_H 	H 	0.1095	0.425	0.2918	0.025
Mof_H 	H 	0.7234	0.4495	0.5611	0.027
Mof_H 	H 	0.808	0.4035	0.6897	0.007
Mof_H 	H 	0.883	0.3127	0.6031	0.021
Mof_H 	H 	0.5663	0.1893	0.4725	0.017
Mof_H 	H 	0.6017	0.3325	0.4415	0.021
Mof_H 	H 	0.7628	0.1947	0.4791	0.024
Mof_H 	H 	0.7118	0.8336	0.5584	0.019
Mof_H 	H 	0.9088	0.8567	0.5417	0.019
Mof_H 	H 	0.8905	0.7082	0.575	0.025
Mof_H 	H 	0.266	0.0611	0.9495	0.027
Mof_H 	H 	0.0988	0.1897	0.9035	0.007
Mof_H 	H 	0.2012	0.1031	0.8127	0.02
Mof_H 	H 	0.7719	0.9725	0.6893	0.016
Mof_H 	H 	0.6243	0.9415	0.8325	0.021
Mof_H 	H 	0.5634	0.9791	0.6947	0.024
Mof_H 	H 	0.8962	0.0584	0.3336	0.019
Mof_H 	H 	0.6928	0.0417	0.3567	0.019
Mof_H 	H 	0.8263	0.075	0.2082	0.025
Mof_H 	H 	0.734	0.0505	0.9389	0.027
Mof_H 	H 	0.9012	0.0965	0.8103	0.007
Mof_H 	H 	0.7988	0.1873	0.8969	0.02
Mof_H 	H 	0.2281	0.3107	0.0275	0.016
Mof_H 	H 	0.3757	0.1675	0.0585	0.021
Mof_H 	H 	0.4366	0.3053	0.0209	0.024
Mof_H 	H 	0.1038	0.6664	0.9416	0.019
Mof_H 	H 	0.3072	0.6433	0.9583	0.019
Mof_H 	H 	0.1737	0.7918	0.925	0.025
Mof_C 	C 	0.80253	0.57507	0.37947	-0.166
Mof_C 	C 	0.75651	0.58359	0.42559	0.099
Mof_C 	C 	0.75952	0.62568	0.43628	-0.164
Mof_C 	C 	0.80773	0.65997	0.39817	0.108
Mof_C 	C 	0.85493	0.65097	0.35297	-0.182
Mof_C 	C 	0.85184	0.60906	0.34346	0.112
Mof_C 	C 	0.80242	0.52678	0.37098	0.417
Mof_C 	C 	0.71464	0.63126	0.48686	0.352
Mof_C 	C 	0.90589	0.68851	0.31431	0.439
Mof_C 	C 	0.6688	0.4791	0.1825	-0.17
Mof_C 	C 	0.59739	0.46921	0.20941	0.111
Mof_C 	C 	0.57242	0.45458	0.26578	-0.183
Mof_C 	C 	0.61818	0.45042	0.29502	0.112
Mof_C 	C 	0.69012	0.45978	0.26838	-0.169
Mof_C 	C 	0.71496	0.47354	0.21214	0.109
Mof_C 	C 	0.69476	0.49444	0.12184	0.42
Mof_C 	C 	0.49671	0.44309	0.29509	0.456
Mof_C 	C 	0.73966	0.45294	0.30314	0.444
Mof_C 	C 	0.7935	0.5673	0.7655	-0.181
Mof_C 	C 	0.76198	0.55862	0.82002	0.109
Mof_C 	C 	0.80405	0.55035	0.85435	-0.166
Mof_C 	C 	0.87973	0.54867	0.83347	0.097
Mof_C 	C 	0.91203	0.55697	0.78017	-0.15
Mof_C 	C 	0.86917	0.56763	0.74523	0.097
Mof_C 	C 	0.74995	0.57495	0.72735	0.459
Mof_C 	C 	0.77148	0.53922	0.91342	0.406
Mof_C 	C 	0.9952	0.552	0.7586	0.364
Mof_C 	C 	0.19747	0.62053	0.42493	-0.166
Mof_C 	C 	0.24349	0.57441	0.41641	0.099
Mof_C 	C 	0.24048	0.56372	0.37432	-0.164
Mof_C 	C 	0.19227	0.60183	0.34003	0.108
Mof_C 	C 	0.14507	0.64703	0.34903	-0.182
Mof_C 	C 	0.14816	0.65654	0.39094	0.112
Mof_C 	C 	0.19758	0.62902	0.47322	0.417
Mof_C 	C 	0.28536	0.51314	0.36874	0.352
Mof_C 	C 	0.09411	0.68569	0.31149	0.439
Mof_C 	C 	0.3312	0.8175	0.5209	-0.17
Mof_C 	C 	0.40261	0.79059	0.53079	0.111
Mof_C 	C 	0.42758	0.73422	0.54542	-0.183
Mof_C 	C 	0.38182	0.70498	0.54958	0.112
Mof_C 	C 	0.30988	0.73162	0.54022	-0.169
Mof_C 	C 	0.28504	0.78786	0.52646	0.109
Mof_C 	C 	0.30524	0.87816	0.50556	0.42
Mof_C 	C 	0.50329	0.70491	0.55691	0.456
Mof_C 	C 	0.26034	0.69686	0.54706	0.444
Mof_C 	C 	0.2065	0.2345	0.4327	-0.181
Mof_C 	C 	0.23802	0.17998	0.44138	0.109
Mof_C 	C 	0.19595	0.14565	0.44965	-0.166
Mof_C 	C 	0.12027	0.16653	0.45133	0.097
Mof_C 	C 	0.08797	0.21983	0.44303	-0.15
Mof_C 	C 	0.13083	0.25477	0.43237	0.097
Mof_C 	C 	0.25005	0.27265	0.42505	0.459
Mof_C 	C 	0.22852	0.08658	0.46078	0.406
Mof_C 	C 	0.0048	0.2414	0.448	0.364
Mof_C 	C 	0.75707	0.92493	0.12053	-0.167
Mof_C 	C 	0.76569	0.91641	0.07441	0.101
Mof_C 	C 	0.82148	0.87432	0.06372	-0.166
Mof_C 	C 	0.86587	0.84003	0.10183	0.11
Mof_C 	C 	0.85887	0.84903	0.14703	-0.183
Mof_C 	C 	0.80436	0.89094	0.15654	0.113
Mof_C 	C 	0.70018	0.97322	0.12902	0.417
Mof_C 	C 	0.83276	0.86874	0.01314	0.357
Mof_C 	C 	0.90871	0.81149	0.18569	0.439
Mof_C 	C 	0.3304	0.0209	0.3175	-0.17
Mof_C 	C 	0.27601	0.03079	0.29059	0.111
Mof_C 	C 	0.29278	0.04542	0.23422	-0.184
Mof_C 	C 	0.36362	0.04958	0.20498	0.112
Mof_C 	C 	0.41828	0.04022	0.23162	-0.169
Mof_C 	C 	0.40064	0.02646	0.28786	0.109
Mof_C 	C 	0.31104	0.00556	0.37816	0.419
Mof_C 	C 	0.23489	0.05691	0.20491	0.456
Mof_C 	C 	0.49574	0.04706	0.19686	0.444
Mof_C 	C 	0.1263	0.9327	0.7345	-0.18
Mof_C 	C 	0.14062	0.94138	0.67998	0.109
Mof_C 	C 	0.20875	0.94965	0.64565	-0.166
Mof_C 	C 	0.26187	0.95133	0.66653	0.097
Mof_C 	C 	0.24917	0.94303	0.71983	-0.15
Mof_C 	C 	0.18203	0.93237	0.75477	0.098
Mof_C 	C 	0.05225	0.92505	0.77265	0.459
Mof_C 	C 	0.22412	0.96078	0.58658	0.406
Mof_C 	C 	0.3058	0.948	0.7414	0.366
Mof_C 	C 	0.24293	0.87947	0.07507	-0.167
Mof_C 	C 	0.23431	0.92559	0.08359	0.101
Mof_C 	C 	0.17852	0.93628	0.12568	-0.166
Mof_C 	C 	0.13413	0.89817	0.15997	0.11
Mof_C 	C 	0.14113	0.85297	0.15097	-0.183
Mof_C 	C 	0.19564	0.84346	0.10906	0.113
Mof_C 	C 	0.29982	0.87098	0.02678	0.417
Mof_C 	C 	0.16724	0.98686	0.13126	0.357
Mof_C 	C 	0.09129	0.81431	0.18851	0.439
Mof_C 	C 	0.6696	0.6825	0.9791	-0.17
Mof_C 	C 	0.72399	0.70941	0.96921	0.111
Mof_C 	C 	0.70722	0.76578	0.95458	-0.184
Mof_C 	C 	0.63638	0.79502	0.95042	0.112
Mof_C 	C 	0.58172	0.76838	0.95978	-0.169
Mof_C 	C 	0.59936	0.71214	0.97354	0.109
Mof_C 	C 	0.68896	0.62184	0.99444	0.419
Mof_C 	C 	0.76511	0.79509	0.94309	0.456
Mof_C 	C 	0.50426	0.80314	0.95294	0.444
Mof_C 	C 	0.8737	0.2655	0.0673	-0.18
Mof_C 	C 	0.85938	0.32002	0.05862	0.109
Mof_C 	C 	0.79125	0.35435	0.05035	-0.166
Mof_C 	C 	0.73813	0.33347	0.04867	0.097
Mof_C 	C 	0.75083	0.28017	0.05697	-0.15
Mof_C 	C 	0.81797	0.24523	0.06763	0.098
Mof_C 	C 	0.94775	0.22735	0.07495	0.459
Mof_C 	C 	0.77588	0.41342	0.03922	0.406
Mof_C 	C 	0.6942	0.2586	0.052	0.366
Mof_C 	C 	0.19747	0.42493	0.62053	-0.166
Mof_C 	C 	0.24349	0.41641	0.57441	0.099
Mof_C 	C 	0.24048	0.37432	0.56372	-0.164
Mof_C 	C 	0.19227	0.34003	0.60183	0.108
Mof_C 	C 	0.14507	0.34903	0.64703	-0.182
Mof_C 	C 	0.14816	0.39094	0.65654	0.112
Mof_C 	C 	0.19758	0.47322	0.62902	0.417
Mof_C 	C 	0.28536	0.36874	0.51314	0.352
Mof_C 	C 	0.09411	0.31149	0.68569	0.439
Mof_C 	C 	0.3312	0.5209	0.8175	-0.17
Mof_C 	C 	0.40261	0.53079	0.79059	0.111
Mof_C 	C 	0.42758	0.54542	0.73422	-0.183
Mof_C 	C 	0.38182	0.54958	0.70498	0.112
Mof_C 	C 	0.30988	0.54022	0.73162	-0.169
Mof_C 	C 	0.28504	0.52646	0.78786	0.109
Mof_C 	C 	0.30524	0.50556	0.87816	0.42
Mof_C 	C 	0.50329	0.55691	0.70491	0.456
Mof_C 	C 	0.26034	0.54706	0.69686	0.444
Mof_C 	C 	0.2065	0.4327	0.2345	-0.181
Mof_C 	C 	0.23802	0.44138	0.17998	0.109
Mof_C 	C 	0.19595	0.44965	0.14565	-0.166
Mof_C 	C 	0.12027	0.45133	0.16653	0.097
Mof_C 	C 	0.08797	0.44303	0.21983	-0.15
Mof_C 	C 	0.13083	0.43237	0.25477	0.097
Mof_C 	C 	0.25005	0.42505	0.27265	0.459
Mof_C 	C 	0.22852	0.46078	0.08658	0.406
Mof_C 	C 	0.0048	0.448	0.2414	0.364
Mof_C 	C 	0.80253	0.37947	0.57507	-0.166
Mof_C 	C 	0.75651	0.42559	0.58359	0.099
Mof_C 	C 	0.75952	0.43628	0.62568	-0.164
Mof_C 	C 	0.80773	0.39817	0.65997	0.108
Mof_C 	C 	0.85493	0.35297	0.65097	-0.182
Mof_C 	C 	0.85184	0.34346	0.60906	0.112
Mof_C 	C 	0.80242	0.37098	0.52678	0.417
Mof_C 	C 	0.71464	0.48686	0.63126	0.352
Mof_C 	C 	0.90589	0.31431	0.68851	0.439
Mof_C 	C 	0.6688	0.1825	0.4791	-0.17
Mof_C 	C 	0.59739	0.20941	0.46921	0.111
Mof_C 	C 	0.57242	0.26578	0.45458	-0.183
Mof_C 	C 	0.61818	0.29502	0.45042	0.112
Mof_C 	C 	0.69012	0.26838	0.45978	-0.169
Mof_C 	C 	0.71496	0.21214	0.47354	0.109
Mof_C 	C 	0.69476	0.12184	0.49444	0.42
Mof_C 	C 	0.49671	0.29509	0.44309	0.456
Mof_C 	C 	0.73966	0.30314	0.45294	0.444
Mof_C 	C 	0.7935	0.7655	0.5673	-0.181
Mof_C 	C 	0.76198	0.82002	0.55862	0.109
Mof_C 	C 	0.80405	0.85435	0.55035	-0.166
Mof_C 	C 	0.87973	0.83347	0.54867	0.097
Mof_C 	C 	0.91203	0.78017	0.55697	-0.15
Mof_C 	C 	0.86917	0.74523	0.56763	0.097
Mof_C 	C 	0.74995	0.72735	0.57495	0.459
Mof_C 	C 	0.77148	0.91342	0.53922	0.406
Mof_C 	C 	0.9952	0.7586	0.552	0.364
Mof_C 	C 	0.24293	0.07507	0.87947	-0.167
Mof_C 	C 	0.23431	0.08359	0.92559	0.101
Mof_C 	C 	0.17852	0.12568	0.93628	-0.166
Mof_C 	C 	0.13413	0.15997	0.89817	0.11
Mof_C 	C 	0.14113	0.15097	0.85297	-0.183
Mof_C 	C 	0.19564	0.10906	0.84346	0.113
Mof_C 	C 	0.29982	0.02678	0.87098	0.417
Mof_C 	C 	0.16724	0.13126	0.98686	0.357
Mof_C 	C 	0.09129	0.18851	0.81431	0.439
Mof_C 	C 	0.6696	0.9791	0.6825	-0.17
Mof_C 	C 	0.72399	0.96921	0.70941	0.111
Mof_C 	C 	0.70722	0.95458	0.76578	-0.184
Mof_C 	C 	0.63638	0.95042	0.79502	0.112
Mof_C 	C 	0.58172	0.95978	0.76838	-0.169
Mof_C 	C 	0.59936	0.97354	0.71214	0.109
Mof_C 	C 	0.68896	0.99444	0.62184	0.419
Mof_C 	C 	0.76511	0.94309	0.79509	0.456
Mof_C 	C 	0.50426	0.95294	0.80314	0.444
Mof_C 	C 	0.8737	0.0673	0.2655	-0.18
Mof_C 	C 	0.85938	0.05862	0.32002	0.109
Mof_C 	C 	0.79125	0.05035	0.35435	-0.166
Mof_C 	C 	0.73813	0.04867	0.33347	0.097
Mof_C 	C 	0.75083	0.05697	0.28017	-0.15
Mof_C 	C 	0.81797	0.06763	0.24523	0.098
Mof_C 	C 	0.94775	0.07495	0.22735	0.459
Mof_C 	C 	0.77588	0.03922	0.41342	0.406
Mof_C 	C 	0.6942	0.052	0.2586	0.366
Mof_C 	C 	0.75707	0.12053	0.92493	-0.167
Mof_C 	C 	0.76569	0.07441	0.91641	0.101
Mof_C 	C 	0.82148	0.06372	0.87432	-0.166
Mof_C 	C 	0.86587	0.10183	0.84003	0.11
Mof_C 	C 	0.85887	0.14703	0.84903	-0.183
Mof_C 	C 	0.80436	0.15654	0.89094	0.113
Mof_C 	C 	0.70018	0.12902	0.97322	0.417
Mof_C 	C 	0.83276	0.01314	0.86874	0.357
Mof_C 	C 	0.90871	0.18569	0.81149	0.439
Mof_C 	C 	0.3304	0.3175	0.0209	-0.17
Mof_C 	C 	0.27601	0.29059	0.03079	0.111
Mof_C 	C 	0.29278	0.23422	0.04542	-0.184
Mof_C 	C 	0.36362	0.20498	0.04958	0.112
Mof_C 	C 	0.41828	0.23162	0.04022	-0.169
Mof_C 	C 	0.40064	0.28786	0.02646	0.109
Mof_C 	C 	0.31104	0.37816	0.00556	0.419
Mof_C 	C 	0.23489	0.20491	0.05691	0.456
Mof_C 	C 	0.49574	0.19686	0.04706	0.444
Mof_C 	C 	0.1263	0.7345	0.9327	-0.18
Mof_C 	C 	0.14062	0.67998	0.94138	0.109
Mof_C 	C 	0.20875	0.64565	0.94965	-0.166
Mof_C 	C 	0.26187	0.66653	0.95133	0.097
Mof_C 	C 	0.24917	0.71983	0.94303	-0.15
Mof_C 	C 	0.18203	0.75477	0.93237	0.098
Mof_C 	C 	0.05225	0.77265	0.92505	0.459
Mof_C 	C 	0.22412	0.58658	0.96078	0.406
Mof_C 	C 	0.3058	0.7414	0.948	0.366
Mof_O 	O 	0.85264	0.51697	0.33115	-0.466
Mof_O 	O 	0.75476	0.5006	0.40168	-0.475
Mof_O 	O 	0.6656	0.60754	0.51386	-0.483
Mof_O 	O 	0.94885	0.67835	0.27395	-0.477
Mof_O 	O 	0.90497	0.72623	0.32503	-0.498
Mof_O 	O 	0.76077	0.49866	0.1	-0.481
Mof_O 	O 	0.64871	0.50131	0.09607	-0.477
Mof_O 	O 	0.46114	0.43986	0.26886	-0.512
Mof_O 	O 	0.47558	0.43717	0.34247	-0.513
Mof_O 	O 	0.71151	0.44773	0.34985	-0.502
Mof_O 	O 	0.80684	0.45454	0.27958	-0.49
Mof_O 	O 	0.78216	0.58079	0.68089	-0.521
Mof_O 	O 	0.68491	0.57059	0.74619	-0.502
Mof_O 	O 	0.70292	0.54052	0.93144	-0.459
Mof_O 	O 	0.81623	0.52888	0.94206	-0.487
Mof_O 	O 	0.02151	0.56465	0.70973	-0.474
Mof_O 	O 	0.0365	0.5187	0.7935	-0.287
Mof_O 	O 	0.7527	0.6422	0.5114	-0.491
Mof_O 	O 	0.14736	0.66885	0.48303	-0.466
Mof_O 	O 	0.24524	0.59832	0.4994	-0.475
Mof_O 	O 	0.3344	0.48614	0.39246	-0.483
Mof_O 	O 	0.05115	0.72605	0.32165	-0.477
Mof_O 	O 	0.09503	0.67497	0.27377	-0.498
Mof_O 	O 	0.23923	0.9	0.50134	-0.481
Mof_O 	O 	0.35129	0.90393	0.49869	-0.477
Mof_O 	O 	0.53886	0.73114	0.56014	-0.512
Mof_O 	O 	0.52442	0.65753	0.56283	-0.513
Mof_O 	O 	0.28849	0.65015	0.55227	-0.502
Mof_O 	O 	0.19316	0.72042	0.54546	-0.49
Mof_O 	O 	0.21784	0.31911	0.41921	-0.521
Mof_O 	O 	0.31509	0.25381	0.42941	-0.502
Mof_O 	O 	0.29708	0.06856	0.45948	-0.459
Mof_O 	O 	0.18377	0.05794	0.47112	-0.487
Mof_O 	O 	0.97849	0.29027	0.43535	-0.474
Mof_O 	O 	0.9635	0.2065	0.4813	-0.287
Mof_O 	O 	0.2473	0.4886	0.3578	-0.491
Mof_O 	O 	0.70076	0.98303	0.16885	-0.466
Mof_O 	O 	0.65704	0.9994	0.09832	-0.475
Mof_O 	O 	0.787	0.89246	0.98614	-0.486
Mof_O 	O 	0.90115	0.82165	0.22605	-0.477
Mof_O 	O 	0.95623	0.77377	0.17497	-0.498
Mof_O 	O 	0.35943	0.00134	0.4	-0.481
Mof_O 	O 	0.24609	0.99869	0.40393	-0.476
Mof_O 	O 	0.16986	0.06014	0.23114	-0.512
Mof_O 	O 	0.25522	0.06283	0.15753	-0.513
Mof_O 	O 	0.50909	0.05227	0.15015	-0.502
Mof_O 	O 	0.54096	0.04546	0.22042	-0.49
Mof_O 	O 	0.04384	0.91921	0.81911	-0.519
Mof_O 	O 	0.00169	0.92941	0.75381	-0.501
Mof_O 	O 	0.17488	0.95948	0.56856	-0.458
Mof_O 	O 	0.28717	0.97112	0.55794	-0.487
Mof_O 	O 	0.29589	0.93535	0.79027	-0.475
Mof_O 	O 	0.3487	0.9813	0.7065	-0.288
Mof_O 	O 	0.9063	0.8578	0.9886	-0.494
Mof_O 	O 	0.29924	0.83115	0.01697	-0.466
Mof_O 	O 	0.34296	0.90168	0.0006	-0.475
Mof_O 	O 	0.213	0.01386	0.10754	-0.486
Mof_O 	O 	0.09885	0.77395	0.17835	-0.477
Mof_O 	O 	0.04377	0.82503	0.22623	-0.498
Mof_O 	O 	0.64057	0.6	0.99866	-0.481
Mof_O 	O 	0.75391	0.59607	0.00131	-0.476
Mof_O 	O 	0.83014	0.76886	0.93986	-0.512
Mof_O 	O 	0.74478	0.84247	0.93717	-0.513
Mof_O 	O 	0.49091	0.84985	0.94773	-0.502
Mof_O 	O 	0.45904	0.77958	0.95454	-0.49
Mof_O 	O 	0.95616	0.18089	0.08079	-0.519
Mof_O 	O 	0.99831	0.24619	0.07059	-0.501
Mof_O 	O 	0.82512	0.43144	0.04052	-0.458
Mof_O 	O 	0.71283	0.44206	0.02888	-0.487
Mof_O 	O 	0.70411	0.20973	0.06465	-0.475
Mof_O 	O 	0.6513	0.2935	0.0187	-0.288
Mof_O 	O 	0.0937	0.0114	0.1422	-0.494
Mof_O 	O 	0.14736	0.48303	0.66885	-0.466
Mof_O 	O 	0.24524	0.4994	0.59832	-0.475
Mof_O 	O 	0.3344	0.39246	0.48614	-0.483
Mof_O 	O 	0.05115	0.32165	0.72605	-0.477
Mof_O 	O 	0.09503	0.27377	0.67497	-0.498
Mof_O 	O 	0.23923	0.50134	0.9	-0.481
Mof_O 	O 	0.35129	0.49869	0.90393	-0.477
Mof_O 	O 	0.53886	0.56014	0.73114	-0.512
Mof_O 	O 	0.52442	0.56283	0.65753	-0.513
Mof_O 	O 	0.28849	0.55227	0.65015	-0.502
Mof_O 	O 	0.19316	0.54546	0.72042	-0.49
Mof_O 	O 	0.21784	0.41921	0.31911	-0.521
Mof_O 	O 	0.31509	0.42941	0.25381	-0.502
Mof_O 	O 	0.29708	0.45948	0.06856	-0.459
Mof_O 	O 	0.18377	0.47112	0.05794	-0.487
Mof_O 	O 	0.97849	0.43535	0.29027	-0.474
Mof_O 	O 	0.9635	0.4813	0.2065	-0.287
Mof_O 	O 	0.2473	0.3578	0.4886	-0.491
Mof_O 	O 	0.85264	0.33115	0.51697	-0.466
Mof_O 	O 	0.75476	0.40168	0.5006	-0.475
Mof_O 	O 	0.6656	0.51386	0.60754	-0.483
Mof_O 	O 	0.94885	0.27395	0.67835	-0.477
Mof_O 	O 	0.90497	0.32503	0.72623	-0.498
Mof_O 	O 	0.76077	0.1	0.49866	-0.481
Mof_O 	O 	0.64871	0.09607	0.50131	-0.477
Mof_O 	O 	0.46114	0.26886	0.43986	-0.512
Mof_O 	O 	0.47558	0.34247	0.43717	-0.513
Mof_O 	O 	0.71151	0.34985	0.44773	-0.502
Mof_O 	O 	0.80684	0.27958	0.45454	-0.49
Mof_O 	O 	0.78216	0.68089	0.58079	-0.521
Mof_O 	O 	0.68491	0.74619	0.57059	-0.502
Mof_O 	O 	0.70292	0.93144	0.54052	-0.459
Mof_O 	O 	0.81623	0.94206	0.52888	-0.487
Mof_O 	O 	0.02151	0.70973	0.56465	-0.474
Mof_O 	O 	0.0365	0.7935	0.5187	-0.287
Mof_O 	O 	0.7527	0.5114	0.6422	-0.491
Mof_O 	O 	0.29924	0.01697	0.83115	-0.466
Mof_O 	O 	0.34296	0.0006	0.90168	-0.475
Mof_O 	O 	0.213	0.10754	0.01386	-0.486
Mof_O 	O 	0.09885	0.17835	0.77395	-0.477
Mof_O 	O 	0.04377	0.22623	0.82503	-0.498
Mof_O 	O 	0.64057	0.99866	0.6	-0.481
Mof_O 	O 	0.75391	0.00131	0.59607	-0.476
Mof_O 	O 	0.83014	0.93986	0.76886	-0.512
Mof_O 	O 	0.74478	0.93717	0.84247	-0.513
Mof_O 	O 	0.49091	0.94773	0.84985	-0.502
Mof_O 	O 	0.45904	0.95454	0.77958	-0.49
Mof_O 	O 	0.95616	0.08079	0.18089	-0.519
Mof_O 	O 	0.99831	0.07059	0.24619	-0.501
Mof_O 	O 	0.82512	0.04052	0.43144	-0.458
Mof_O 	O 	0.71283	0.02888	0.44206	-0.487
Mof_O 	O 	0.70411	0.06465	0.20973	-0.475
Mof_O 	O 	0.6513	0.0187	0.2935	-0.288
Mof_O 	O 	0.0937	0.1422	0.0114	-0.494
Mof_O 	O 	0.70076	0.16885	0.98303	-0.466
Mof_O 	O 	0.65704	0.09832	0.9994	-0.475
Mof_O 	O 	0.787	0.98614	0.89246	-0.486
Mof_O 	O 	0.90115	0.22605	0.82165	-0.477
Mof_O 	O 	0.95623	0.17497	0.77377	-0.498
Mof_O 	O 	0.35943	0.4	0.00134	-0.481
Mof_O 	O 	0.24609	0.40393	0.99869	-0.476
Mof_O 	O 	0.16986	0.23114	0.06014	-0.512
Mof_O 	O 	0.25522	0.15753	0.06283	-0.513
Mof_O 	O 	0.50909	0.15015	0.05227	-0.502
Mof_O 	O 	0.54096	0.22042	0.04546	-0.49
Mof_O 	O 	0.04384	0.81911	0.91921	-0.519
Mof_O 	O 	0.00169	0.75381	0.92941	-0.501
Mof_O 	O 	0.17488	0.56856	0.95948	-0.458
Mof_O 	O 	0.28717	0.55794	0.97112	-0.487
Mof_O 	O 	0.29589	0.79027	0.93535	-0.475
Mof_O 	O 	0.3487	0.7065	0.9813	-0.288
Mof_O 	O 	0.9063	0.9886	0.8578	-0.494
Mof_O 	O 	0.8525	0.3955	0.3955	-0.665
Mof_O 	O 	0.1475	0.6045	0.6045	-0.665
Mof_O 	O 	0.6435	0.1045	0.1045	-0.665
Mof_O 	O 	0.3565	0.8955	0.8955	-0.665
Mof_O 	O 	0.65502	0.62178	0.62178	-0.888
Mof_O 	O 	0.34498	0.37822	0.37822	-0.888
Mof_O 	O 	0.89858	0.87822	0.87822	-0.889
Mof_O 	O 	0.10142	0.12178	0.12178	-0.889
_end
