data_functionalizedCrystal
_audit_creation_method	'EQeq! by Chris Wilmer'
_symmetry_space_group_name_H-M	'P1'
_symmetry_Int_Tables_number	1
_symmetry_cell_setting	triclinic
loop_
_symmetry_equiv_pos_as_xyz
  x,y,z
_cell_length_a	14.713
_cell_length_b	14.713
_cell_length_c	37.436
_cell_angle_alpha	90
_cell_angle_beta	90
_cell_angle_gamma	120
loop_
_atom_site_label
_atom_site_type_symbol
_atom_site_fract_x
_atom_site_fract_y
_atom_site_fract_z
_atom_site_charge
Mof_N 	N 	0.4202	0.8025	0.69941	-0.158
Mof_N 	N 	0.5189	0.0232	0.75393	-0.138
Mof_N 	N 	0.4267	0.9936	0.74886	-0.111
Mof_N 	N 	0.5394	0.2143	0.80129	-0.16
Mof_C 	C 	0.4765	0.8725	0.7154	-0.029
Mof_C 	C 	0.5602	0.9647	0.7343	0.349
Mof_C 	C 	0.3867	0.0566	0.7671	0.285
Mof_C 	C 	0.4747	0.147	0.78621	-0.015
Mof_C 	C 	0.6115	0.9284	0.7618	-0.709
Mof_H 	H 	0.6661	0.9889	0.7743	0.219
Mof_H 	H 	0.642	0.8916	0.7498	0.213
Mof_H 	H 	0.5591	0.8817	0.7788	0.22
Mof_C 	C 	0.6368	0.0409	0.7062	-0.711
Mof_H 	H 	0.6924	0.1021	0.7181	0.214
Mof_H 	H 	0.5993	0.0625	0.6902	0.218
Mof_H 	H 	0.6668	0.0061	0.6927	0.211
Mof_C 	C 	0.3436	0.0961	0.7377	-0.635
Mof_H 	H 	0.2863	0.0367	0.7256	0.187
Mof_H 	H 	0.3988	0.137	0.7206	0.192
Mof_H 	H 	0.3182	0.1396	0.7481	0.185
Mof_C 	C 	0.3043	0.9857	0.7936	-0.604
Mof_H 	H 	0.2472	0.9275	0.781	0.184
Mof_H 	H 	0.2776	0.025	0.8062	0.174
Mof_H 	H 	0.3351	0.9589	0.8105	0.191
Mof_N 	N 	0.08687	0.13583	0.03274	-0.162
Mof_N 	N 	0.18557	0.35653	0.08726	-0.124
Mof_N 	N 	0.09337	0.32693	0.08219	-0.128
Mof_N 	N 	0.20607	0.54763	0.13462	-0.155
Mof_C 	C 	0.14317	0.20583	0.04873	-0.025
Mof_C 	C 	0.22687	0.29803	0.06763	0.319
Mof_C 	C 	0.05337	0.38993	0.10043	0.328
Mof_C 	C 	0.14137	0.48033	0.11954	-0.029
Mof_C 	C 	0.27817	0.26173	0.09513	-0.676
Mof_H 	H 	0.33277	0.32223	0.10763	0.205
Mof_H 	H 	0.30867	0.22493	0.08313	0.201
Mof_H 	H 	0.22577	0.21503	0.11213	0.207
Mof_C 	C 	0.30347	0.37423	0.03953	-0.673
Mof_H 	H 	0.35907	0.43543	0.05143	0.205
Mof_H 	H 	0.26597	0.39583	0.02353	0.208
Mof_H 	H 	0.33347	0.33943	0.02603	0.203
Mof_C 	C 	0.01027	0.42943	0.07103	-0.741
Mof_H 	H 	0.95297	0.37003	0.05893	0.226
Mof_H 	H 	0.06547	0.47033	0.05393	0.222
Mof_H 	H 	0.98487	0.47293	0.08143	0.224
Mof_C 	C 	0.97097	0.31903	0.12693	-0.648
Mof_H 	H 	0.91387	0.26083	0.11433	0.196
Mof_H 	H 	0.94427	0.35833	0.13953	0.198
Mof_H 	H 	0.00177	0.29223	0.14383	0.193
Mof_N 	N 	0.75353	0.46917	0.36608	-0.162
Mof_N 	N 	0.85223	0.68987	0.4206	-0.119
Mof_N 	N 	0.76003	0.66027	0.41553	-0.127
Mof_N 	N 	0.87273	0.88097	0.46796	-0.148
Mof_C 	C 	0.80983	0.53917	0.38207	-0.013
Mof_C 	C 	0.89353	0.63137	0.40097	0.298
Mof_C 	C 	0.72003	0.72327	0.43377	0.337
Mof_C 	C 	0.80803	0.81367	0.45288	-0.028
Mof_C 	C 	0.94483	0.59507	0.42847	-0.661
Mof_H 	H 	0.99943	0.65557	0.44097	0.205
Mof_H 	H 	0.97533	0.55827	0.41647	0.2
Mof_H 	H 	0.89243	0.54837	0.44547	0.206
Mof_C 	C 	0.97013	0.70757	0.37287	-0.592
Mof_H 	H 	0.02573	0.76877	0.38477	0.176
Mof_H 	H 	0.93263	0.72917	0.35687	0.189
Mof_H 	H 	0.00013	0.67277	0.35937	0.173
Mof_C 	C 	0.67693	0.76277	0.40437	-0.686
Mof_H 	H 	0.61963	0.70337	0.39227	0.205
Mof_H 	H 	0.73213	0.80367	0.38727	0.208
Mof_H 	H 	0.65153	0.80627	0.41477	0.202
Mof_C 	C 	0.63763	0.65237	0.46027	-0.706
Mof_H 	H 	0.58053	0.59417	0.44767	0.211
Mof_H 	H 	0.61093	0.69167	0.47287	0.212
Mof_H 	H 	0.66843	0.62557	0.47717	0.218
Mof_N 	N 	0.1975	0.6177	0.69941	-0.161
Mof_N 	N 	0.9768	0.4957	0.75393	-0.117
Mof_N 	N 	0.0064	0.4331	0.74886	-0.134
Mof_N 	N 	0.7857	0.3251	0.80129	-0.152
Mof_C 	C 	0.1275	0.604	0.7154	-0.021
Mof_C 	C 	0.0353	0.5955	0.7343	0.31
Mof_C 	C 	0.9434	0.3301	0.7671	0.358
Mof_C 	C 	0.853	0.3277	0.78621	-0.035
Mof_C 	C 	0.0716	0.6831	0.7618	-0.672
Mof_H 	H 	0.0111	0.6772	0.7743	0.203
Mof_H 	H 	0.1084	0.7504	0.7498	0.202
Mof_H 	H 	0.1183	0.6774	0.7788	0.208
Mof_C 	C 	0.9591	0.5959	0.7062	-0.663
Mof_H 	H 	0.8979	0.5903	0.7181	0.203
Mof_H 	H 	0.9375	0.5368	0.6902	0.207
Mof_H 	H 	0.9939	0.6607	0.6927	0.204
Mof_C 	C 	0.9039	0.2475	0.7377	-0.702
Mof_H 	H 	0.9633	0.2496	0.7256	0.211
Mof_H 	H 	0.863	0.2618	0.7206	0.212
Mof_H 	H 	0.8604	0.1786	0.7481	0.204
Mof_C 	C 	0.0143	0.3186	0.7936	-0.752
Mof_H 	H 	0.0725	0.3197	0.781	0.222
Mof_H 	H 	0.975	0.2526	0.8062	0.229
Mof_H 	H 	0.0411	0.3762	0.8105	0.23
Mof_N 	N 	0.86417	0.95103	0.03274	-0.153
Mof_N 	N 	0.64347	0.82903	0.08726	-0.124
Mof_N 	N 	0.67307	0.76643	0.08219	-0.126
Mof_N 	N 	0.45237	0.65843	0.13462	-0.154
Mof_C 	C 	0.79417	0.93733	0.04873	-0.024
Mof_C 	C 	0.70197	0.92883	0.06763	0.334
Mof_C 	C 	0.61007	0.66343	0.10043	0.336
Mof_C 	C 	0.51967	0.66103	0.11954	-0.028
Mof_C 	C 	0.73827	0.01643	0.09513	-0.7
Mof_H 	H 	0.67777	0.01053	0.10763	0.21
Mof_H 	H 	0.77507	0.08373	0.08313	0.208
Mof_H 	H 	0.78497	0.01073	0.11213	0.215
Mof_C 	C 	0.62577	0.92923	0.03953	-0.689
Mof_H 	H 	0.56457	0.92363	0.05143	0.212
Mof_H 	H 	0.60417	0.87013	0.02353	0.213
Mof_H 	H 	0.66057	0.99403	0.02603	0.211
Mof_C 	C 	0.57057	0.58083	0.07103	-0.683
Mof_H 	H 	0.62997	0.58293	0.05893	0.204
Mof_H 	H 	0.52967	0.59513	0.05393	0.206
Mof_H 	H 	0.52707	0.51193	0.08143	0.2
Mof_C 	C 	0.68097	0.65193	0.12693	-0.706
Mof_H 	H 	0.73917	0.65303	0.11433	0.212
Mof_H 	H 	0.64167	0.58593	0.13953	0.212
Mof_H 	H 	0.70777	0.70953	0.14383	0.219
Mof_N 	N 	0.53083	0.28437	0.36608	-0.16
Mof_N 	N 	0.31013	0.16237	0.4206	-0.125
Mof_N 	N 	0.33973	0.09977	0.41553	-0.129
Mof_N 	N 	0.11903	0.99177	0.46796	-0.152
Mof_C 	C 	0.46083	0.27067	0.38207	-0.023
Mof_C 	C 	0.36863	0.26217	0.40097	0.32
Mof_C 	C 	0.27673	0.99677	0.43377	0.33
Mof_C 	C 	0.18633	0.99437	0.45288	-0.024
Mof_C 	C 	0.40493	0.34977	0.42847	-0.679
Mof_H 	H 	0.34443	0.34387	0.44097	0.206
Mof_H 	H 	0.44173	0.41707	0.41647	0.202
Mof_H 	H 	0.45163	0.34407	0.44547	0.209
Mof_C 	C 	0.29243	0.26257	0.37287	-0.674
Mof_H 	H 	0.23123	0.25697	0.38477	0.204
Mof_H 	H 	0.27083	0.20347	0.35687	0.208
Mof_H 	H 	0.32723	0.32737	0.35937	0.204
Mof_C 	C 	0.23723	0.91417	0.40437	-0.678
Mof_H 	H 	0.29663	0.91627	0.39227	0.204
Mof_H 	H 	0.19633	0.92847	0.38727	0.207
Mof_H 	H 	0.19373	0.84527	0.41477	0.199
Mof_C 	C 	0.34763	0.98527	0.46027	-0.67
Mof_H 	H 	0.40583	0.98637	0.44767	0.203
Mof_H 	H 	0.30833	0.91927	0.47287	0.202
Mof_H 	H 	0.37443	0.04287	0.47717	0.201
Mof_N 	N 	0.3823	0.5798	0.69941	-0.16
Mof_N 	N 	0.5043	0.4811	0.75393	-0.123
Mof_N 	N 	0.5669	0.5733	0.74886	-0.127
Mof_N 	N 	0.6749	0.4606	0.80129	-0.154
Mof_C 	C 	0.396	0.5235	0.7154	-0.023
Mof_C 	C 	0.4045	0.4398	0.7343	0.32
Mof_C 	C 	0.6699	0.6133	0.7671	0.337
Mof_C 	C 	0.6723	0.5253	0.78621	-0.029
Mof_C 	C 	0.3169	0.3885	0.7618	-0.678
Mof_H 	H 	0.3228	0.3339	0.7743	0.205
Mof_H 	H 	0.2496	0.358	0.7498	0.2
Mof_H 	H 	0.3226	0.4409	0.7788	0.209
Mof_C 	C 	0.4041	0.3632	0.7062	-0.676
Mof_H 	H 	0.4097	0.3076	0.7181	0.206
Mof_H 	H 	0.4632	0.4007	0.6902	0.21
Mof_H 	H 	0.3393	0.3332	0.6927	0.204
Mof_C 	C 	0.7525	0.6564	0.7377	-0.688
Mof_H 	H 	0.7504	0.7137	0.7256	0.207
Mof_H 	H 	0.7382	0.6012	0.7206	0.209
Mof_H 	H 	0.8214	0.6818	0.7481	0.204
Mof_C 	C 	0.6814	0.6957	0.7936	-0.708
Mof_H 	H 	0.6803	0.7528	0.781	0.212
Mof_H 	H 	0.7474	0.7224	0.8062	0.214
Mof_H 	H 	0.6238	0.6649	0.8105	0.219
Mof_N 	N 	0.04897	0.91313	0.03274	-0.158
Mof_N 	N 	0.17097	0.81443	0.08726	-0.123
Mof_N 	N 	0.23357	0.90663	0.08219	-0.125
Mof_N 	N 	0.34157	0.79393	0.13462	-0.154
Mof_C 	C 	0.06267	0.85683	0.04873	-0.021
Mof_C 	C 	0.07117	0.77313	0.06763	0.308
Mof_C 	C 	0.33657	0.94663	0.10043	0.334
Mof_C 	C 	0.33897	0.85863	0.11954	-0.026
Mof_C 	C 	0.98357	0.72183	0.09513	-0.662
Mof_H 	H 	0.98947	0.66723	0.10763	0.205
Mof_H 	H 	0.91627	0.69133	0.08313	0.199
Mof_H 	H 	0.98927	0.77423	0.11213	0.209
Mof_C 	C 	0.07077	0.69653	0.03953	-0.662
Mof_H 	H 	0.07637	0.64093	0.05143	0.199
Mof_H 	H 	0.12987	0.73403	0.02353	0.206
Mof_H 	H 	0.00597	0.66653	0.02603	0.197
Mof_C 	C 	0.41917	0.98973	0.07103	-0.63
Mof_H 	H 	0.41707	0.04703	0.05893	0.184
Mof_H 	H 	0.40487	0.93453	0.05393	0.192
Mof_H 	H 	0.48807	0.01513	0.08143	0.18
Mof_C 	C 	0.34807	0.02903	0.12693	-0.732
Mof_H 	H 	0.34697	0.08613	0.11433	0.217
Mof_H 	H 	0.41407	0.05573	0.13953	0.218
Mof_H 	H 	0.29047	0.99823	0.14383	0.23
Mof_N 	N 	0.71563	0.24647	0.36608	-0.158
Mof_N 	N 	0.83763	0.14777	0.4206	-0.125
Mof_N 	N 	0.90023	0.23997	0.41553	-0.122
Mof_N 	N 	0.00823	0.12727	0.46796	-0.155
Mof_C 	C 	0.72933	0.19017	0.38207	-0.028
Mof_C 	C 	0.73783	0.10647	0.40097	0.337
Mof_C 	C 	0.00323	0.27997	0.43377	0.337
Mof_C 	C 	0.00563	0.19197	0.45288	-0.035
Mof_C 	C 	0.65023	0.05517	0.42847	-0.693
Mof_H 	H 	0.65613	0.00057	0.44097	0.208
Mof_H 	H 	0.58293	0.02467	0.41647	0.204
Mof_H 	H 	0.65593	0.10757	0.44547	0.213
Mof_C 	C 	0.73743	0.02987	0.37287	-0.733
Mof_H 	H 	0.74303	0.97427	0.38477	0.227
Mof_H 	H 	0.79653	0.06737	0.35687	0.226
Mof_H 	H 	0.67263	0.99987	0.35937	0.226
Mof_C 	C 	0.08583	0.32307	0.40437	-0.684
Mof_H 	H 	0.08373	0.38037	0.39227	0.203
Mof_H 	H 	0.07153	0.26787	0.38727	0.204
Mof_H 	H 	0.15473	0.34847	0.41477	0.201
Mof_C 	C 	0.01473	0.36237	0.46027	-0.736
Mof_H 	H 	0.01363	0.41947	0.44767	0.217
Mof_H 	H 	0.08073	0.38907	0.47287	0.22
Mof_H 	H 	0.95713	0.33157	0.47717	0.233
Mof_N 	N 	0.5798	0.1975	0.30059	-0.162
Mof_N 	N 	0.4811	0.9768	0.24607	-0.117
Mof_N 	N 	0.5733	0.0064	0.25114	-0.134
Mof_N 	N 	0.4606	0.7857	0.19871	-0.152
Mof_C 	C 	0.5235	0.1275	0.2846	-0.02
Mof_C 	C 	0.4398	0.0353	0.2657	0.306
Mof_C 	C 	0.6133	0.9434	0.2329	0.359
Mof_C 	C 	0.5253	0.853	0.21379	-0.035
Mof_C 	C 	0.3885	0.0716	0.2382	-0.665
Mof_H 	H 	0.3339	0.0111	0.2257	0.2
Mof_H 	H 	0.358	0.1084	0.2502	0.197
Mof_H 	H 	0.4409	0.1183	0.2212	0.205
Mof_C 	C 	0.3632	0.9591	0.2938	-0.659
Mof_H 	H 	0.3076	0.8979	0.2819	0.202
Mof_H 	H 	0.4007	0.9375	0.3098	0.206
Mof_H 	H 	0.3332	0.9939	0.3073	0.202
Mof_C 	C 	0.6564	0.9039	0.2623	-0.707
Mof_H 	H 	0.7137	0.9633	0.2744	0.213
Mof_H 	H 	0.6012	0.863	0.2794	0.214
Mof_H 	H 	0.6818	0.8604	0.2519	0.209
Mof_C 	C 	0.6957	0.0143	0.2064	-0.752
Mof_H 	H 	0.7528	0.0725	0.219	0.224
Mof_H 	H 	0.7224	0.975	0.1938	0.23
Mof_H 	H 	0.6649	0.0411	0.1895	0.23
Mof_N 	N 	0.24647	0.53083	0.63392	-0.159
Mof_N 	N 	0.14777	0.31013	0.5794	-0.127
Mof_N 	N 	0.23997	0.33973	0.58447	-0.126
Mof_N 	N 	0.12727	0.11903	0.53204	-0.155
Mof_C 	C 	0.19017	0.46083	0.61793	-0.029
Mof_C 	C 	0.10647	0.36863	0.59903	0.338
Mof_C 	C 	0.27997	0.27673	0.56623	0.334
Mof_C 	C 	0.19197	0.18633	0.54712	-0.03
Mof_C 	C 	0.05517	0.40493	0.57153	-0.693
Mof_H 	H 	0.00057	0.34443	0.55903	0.207
Mof_H 	H 	0.02467	0.44173	0.58353	0.204
Mof_H 	H 	0.10757	0.45163	0.55453	0.213
Mof_C 	C 	0.02987	0.29243	0.62713	-0.737
Mof_H 	H 	0.97427	0.23123	0.61523	0.228
Mof_H 	H 	0.06737	0.27083	0.64313	0.225
Mof_H 	H 	0.99987	0.32723	0.64063	0.227
Mof_C 	C 	0.32307	0.23723	0.59563	-0.681
Mof_H 	H 	0.38037	0.29663	0.60773	0.204
Mof_H 	H 	0.26787	0.19633	0.61273	0.206
Mof_H 	H 	0.34847	0.19373	0.58523	0.2
Mof_C 	C 	0.36237	0.34763	0.53973	-0.702
Mof_H 	H 	0.41947	0.40583	0.55233	0.21
Mof_H 	H 	0.38907	0.30833	0.52713	0.21
Mof_H 	H 	0.33157	0.37443	0.52283	0.216
Mof_N 	N 	0.91313	0.86417	0.96726	-0.152
Mof_N 	N 	0.81443	0.64347	0.91274	-0.124
Mof_N 	N 	0.90663	0.67307	0.91781	-0.124
Mof_N 	N 	0.79393	0.45237	0.86538	-0.154
Mof_C 	C 	0.85683	0.79417	0.95127	-0.022
Mof_C 	C 	0.77313	0.70197	0.93237	0.326
Mof_C 	C 	0.94663	0.61007	0.89957	0.335
Mof_C 	C 	0.85863	0.51967	0.88046	-0.026
Mof_C 	C 	0.72183	0.73827	0.90487	-0.687
Mof_H 	H 	0.66723	0.67777	0.89237	0.209
Mof_H 	H 	0.69133	0.77507	0.91687	0.206
Mof_H 	H 	0.77423	0.78497	0.88787	0.214
Mof_C 	C 	0.69653	0.62577	0.96047	-0.683
Mof_H 	H 	0.64093	0.56457	0.94857	0.208
Mof_H 	H 	0.73403	0.60417	0.97647	0.214
Mof_H 	H 	0.66653	0.66057	0.97397	0.208
Mof_C 	C 	0.98973	0.57057	0.92897	-0.637
Mof_H 	H 	0.04703	0.62997	0.94107	0.188
Mof_H 	H 	0.93453	0.52967	0.94607	0.195
Mof_H 	H 	0.01513	0.52707	0.91857	0.182
Mof_C 	C 	0.02903	0.68097	0.87307	-0.73
Mof_H 	H 	0.08613	0.73917	0.88567	0.218
Mof_H 	H 	0.05573	0.64167	0.86047	0.218
Mof_H 	H 	0.99823	0.70777	0.85617	0.23
Mof_N 	N 	0.8025	0.3823	0.30059	-0.157
Mof_N 	N 	0.0232	0.5043	0.24607	-0.137
Mof_N 	N 	0.9936	0.5669	0.25114	-0.112
Mof_N 	N 	0.2143	0.6749	0.19871	-0.158
Mof_C 	C 	0.8725	0.396	0.2846	-0.028
Mof_C 	C 	0.9647	0.4045	0.2657	0.349
Mof_C 	C 	0.0566	0.6699	0.2329	0.291
Mof_C 	C 	0.147	0.6723	0.21379	-0.016
Mof_C 	C 	0.9284	0.3169	0.2382	-0.707
Mof_H 	H 	0.9889	0.3228	0.2257	0.219
Mof_H 	H 	0.8916	0.2496	0.2502	0.211
Mof_H 	H 	0.8817	0.3226	0.2212	0.219
Mof_C 	C 	0.0409	0.4041	0.2938	-0.711
Mof_H 	H 	0.1021	0.4097	0.2819	0.214
Mof_H 	H 	0.0625	0.4632	0.3098	0.218
Mof_H 	H 	0.0061	0.3393	0.3073	0.21
Mof_C 	C 	0.0961	0.7525	0.2623	-0.643
Mof_H 	H 	0.0367	0.7504	0.2744	0.191
Mof_H 	H 	0.137	0.7382	0.2794	0.195
Mof_H 	H 	0.1396	0.8214	0.2519	0.189
Mof_C 	C 	0.9857	0.6814	0.2064	-0.616
Mof_H 	H 	0.9275	0.6803	0.219	0.188
Mof_H 	H 	0.025	0.7474	0.1938	0.179
Mof_H 	H 	0.9589	0.6238	0.1895	0.195
Mof_N 	N 	0.46917	0.71563	0.63392	-0.16
Mof_N 	N 	0.68987	0.83763	0.5794	-0.122
Mof_N 	N 	0.66027	0.90023	0.58447	-0.123
Mof_N 	N 	0.88097	0.00823	0.53204	-0.151
Mof_C 	C 	0.53917	0.72933	0.61793	-0.023
Mof_C 	C 	0.63137	0.73783	0.59903	0.323
Mof_C 	C 	0.72327	0.00323	0.56623	0.339
Mof_C 	C 	0.81367	0.00563	0.54712	-0.033
Mof_C 	C 	0.59507	0.65023	0.57153	-0.683
Mof_H 	H 	0.65557	0.65613	0.55903	0.208
Mof_H 	H 	0.55827	0.58293	0.58353	0.203
Mof_H 	H 	0.54837	0.65593	0.55453	0.211
Mof_C 	C 	0.70757	0.73743	0.62713	-0.681
Mof_H 	H 	0.76877	0.74303	0.61523	0.208
Mof_H 	H 	0.72917	0.79653	0.64313	0.213
Mof_H 	H 	0.67277	0.67263	0.64063	0.206
Mof_C 	C 	0.76277	0.08583	0.59563	-0.686
Mof_H 	H 	0.70337	0.08373	0.60773	0.204
Mof_H 	H 	0.80367	0.07153	0.61273	0.206
Mof_H 	H 	0.80627	0.15473	0.58523	0.202
Mof_C 	C 	0.65237	0.01473	0.53973	-0.736
Mof_H 	H 	0.59417	0.01363	0.55233	0.217
Mof_H 	H 	0.69167	0.08073	0.52713	0.22
Mof_H 	H 	0.62557	0.95713	0.52283	0.233
Mof_N 	N 	0.13583	0.04897	0.96726	-0.161
Mof_N 	N 	0.35653	0.17097	0.91274	-0.123
Mof_N 	N 	0.32693	0.23357	0.91781	-0.127
Mof_N 	N 	0.54763	0.34157	0.86538	-0.154
Mof_C 	C 	0.20583	0.06267	0.95127	-0.022
Mof_C 	C 	0.29803	0.07117	0.93237	0.307
Mof_C 	C 	0.38993	0.33657	0.89957	0.334
Mof_C 	C 	0.48033	0.33897	0.88046	-0.028
Mof_C 	C 	0.26173	0.98357	0.90487	-0.659
Mof_H 	H 	0.32223	0.98947	0.89237	0.204
Mof_H 	H 	0.22493	0.91627	0.91687	0.198
Mof_H 	H 	0.21503	0.98927	0.88787	0.208
Mof_C 	C 	0.37423	0.07077	0.96047	-0.663
Mof_H 	H 	0.43543	0.07637	0.94857	0.199
Mof_H 	H 	0.39583	0.12987	0.97647	0.207
Mof_H 	H 	0.33943	0.00597	0.97397	0.199
Mof_C 	C 	0.42943	0.41917	0.92897	-0.683
Mof_H 	H 	0.37003	0.41707	0.94107	0.205
Mof_H 	H 	0.47033	0.40487	0.94607	0.207
Mof_H 	H 	0.47293	0.48807	0.91857	0.201
Mof_C 	C 	0.31903	0.34807	0.87307	-0.701
Mof_H 	H 	0.26083	0.34697	0.88567	0.209
Mof_H 	H 	0.35833	0.41407	0.86047	0.21
Mof_H 	H 	0.29223	0.29047	0.85617	0.216
Mof_N 	N 	0.6177	0.4202	0.30059	-0.16
Mof_N 	N 	0.4957	0.5189	0.24607	-0.124
Mof_N 	N 	0.4331	0.4267	0.25114	-0.126
Mof_N 	N 	0.3251	0.5394	0.19871	-0.155
Mof_C 	C 	0.604	0.4765	0.2846	-0.023
Mof_C 	C 	0.5955	0.5602	0.2657	0.324
Mof_C 	C 	0.3301	0.3867	0.2329	0.331
Mof_C 	C 	0.3277	0.4747	0.21379	-0.028
Mof_C 	C 	0.6831	0.6115	0.2382	-0.686
Mof_H 	H 	0.6772	0.6661	0.2257	0.209
Mof_H 	H 	0.7504	0.642	0.2502	0.207
Mof_H 	H 	0.6774	0.5591	0.2212	0.212
Mof_C 	C 	0.5959	0.6368	0.2938	-0.68
Mof_H 	H 	0.5903	0.6924	0.2819	0.207
Mof_H 	H 	0.5368	0.5993	0.3098	0.211
Mof_H 	H 	0.6607	0.6668	0.3073	0.207
Mof_C 	C 	0.2475	0.3436	0.2623	-0.675
Mof_H 	H 	0.2496	0.2863	0.2744	0.201
Mof_H 	H 	0.2618	0.3988	0.2794	0.204
Mof_H 	H 	0.1786	0.3182	0.2519	0.196
Mof_C 	C 	0.3186	0.3043	0.2064	-0.698
Mof_H 	H 	0.3197	0.2472	0.219	0.208
Mof_H 	H 	0.2526	0.2776	0.1938	0.208
Mof_H 	H 	0.3762	0.3351	0.1895	0.215
Mof_N 	N 	0.28437	0.75353	0.63392	-0.163
Mof_N 	N 	0.16237	0.85223	0.5794	-0.12
Mof_N 	N 	0.09977	0.76003	0.58447	-0.129
Mof_N 	N 	0.99177	0.87273	0.53204	-0.148
Mof_C 	C 	0.27067	0.80983	0.61793	-0.012
Mof_C 	C 	0.26217	0.89353	0.59903	0.294
Mof_C 	C 	0.99677	0.72003	0.56623	0.332
Mof_C 	C 	0.99437	0.80803	0.54712	-0.023
Mof_C 	C 	0.34977	0.94483	0.57153	-0.657
Mof_H 	H 	0.34387	0.99943	0.55903	0.203
Mof_H 	H 	0.41707	0.97533	0.58353	0.199
Mof_H 	H 	0.34407	0.89243	0.55453	0.204
Mof_C 	C 	0.26257	0.97013	0.62713	-0.579
Mof_H 	H 	0.25697	0.02573	0.61523	0.17
Mof_H 	H 	0.20347	0.93263	0.64313	0.184
Mof_H 	H 	0.32737	0.00013	0.64063	0.169
Mof_C 	C 	0.91417	0.67693	0.59563	-0.68
Mof_H 	H 	0.91627	0.61963	0.60773	0.205
Mof_H 	H 	0.92847	0.73213	0.61273	0.208
Mof_H 	H 	0.84527	0.65153	0.58523	0.2
Mof_C 	C 	0.98527	0.63763	0.53973	-0.675
Mof_H 	H 	0.98637	0.58053	0.55233	0.205
Mof_H 	H 	0.91927	0.61093	0.52713	0.204
Mof_H 	H 	0.04287	0.66843	0.52283	0.204
Mof_N 	N 	0.95103	0.08687	0.96726	-0.155
Mof_N 	N 	0.82903	0.18557	0.91274	-0.125
Mof_N 	N 	0.76643	0.09337	0.91781	-0.127
Mof_N 	N 	0.65843	0.20607	0.86538	-0.154
Mof_C 	C 	0.93733	0.14317	0.95127	-0.026
Mof_C 	C 	0.92883	0.22687	0.93237	0.334
Mof_C 	C 	0.66343	0.05337	0.89957	0.333
Mof_C 	C 	0.66103	0.14137	0.88046	-0.03
Mof_C 	C 	0.01643	0.27817	0.90487	-0.699
Mof_H 	H 	0.01053	0.33277	0.89237	0.209
Mof_H 	H 	0.08373	0.30867	0.91687	0.207
Mof_H 	H 	0.01073	0.22577	0.88787	0.212
Mof_C 	C 	0.92923	0.30347	0.96047	-0.692
Mof_H 	H 	0.92363	0.35907	0.94857	0.213
Mof_H 	H 	0.87013	0.26597	0.97647	0.215
Mof_H 	H 	0.99403	0.33347	0.97397	0.213
Mof_C 	C 	0.58083	0.01027	0.92897	-0.745
Mof_H 	H 	0.58293	0.95297	0.94107	0.229
Mof_H 	H 	0.59513	0.06547	0.94607	0.224
Mof_H 	H 	0.51193	0.98487	0.91857	0.226
Mof_C 	C 	0.65193	0.97097	0.87307	-0.658
Mof_H 	H 	0.65303	0.91387	0.88567	0.199
Mof_H 	H 	0.58593	0.94427	0.86047	0.201
Mof_H 	H 	0.70953	0.00177	0.85617	0.197
Mof_Fe	Fe	0.33333	0.66667	0.66667	0.644
Mof_Fe	Fe	-0	0	-0	0.617
Mof_Fe	Fe	0.66667	0.33333	0.33333	0.644
Mof_Fe	Fe	0.66667	0.33333	0.83333	0.632
Mof_Fe	Fe	0.33333	0.66667	0.16667	0.632
Mof_Fe	Fe	-0	0	0.5	0.61
_end
