data_functionalizedCrystal
_audit_creation_method	'EQeq! by Chris Wilmer'
_symmetry_space_group_name_H-M	'P1'
_symmetry_Int_Tables_number	1
_symmetry_cell_setting	triclinic
loop_
_symmetry_equiv_pos_as_xyz
  x,y,z
_cell_length_a	11.5557
_cell_length_b	14.0999
_cell_length_c	25.6278
_cell_angle_alpha	90
_cell_angle_beta	90
_cell_angle_gamma	94.144
loop_
_atom_site_label
_atom_site_type_symbol
_atom_site_fract_x
_atom_site_fract_y
_atom_site_fract_z
_atom_site_charge
Mof_Cu	Cu	0.02666	0.01257	0.6453	0.852
Mof_Cu	Cu	0.48184	0.48229	0.87786	0.845
Mof_Cu	Cu	0.97334	0.98743	0.1453	0.848
Mof_Cu	Cu	0.51816	0.51771	0.37786	0.845
Mof_H 	H 	0.252	0.4984	0.8227	-0.023
Mof_H 	H 	0.5287	0.6644	0.8266	-0.024
Mof_H 	H 	0.9788	0.852	0.7161	-0.024
Mof_H 	H 	0.3714	0.8527	0.7148	0.051
Mof_H 	H 	0.2794	0.9685	0.6709	-0.012
Mof_H 	H 	0.8944	0.1658	0.8038	0.093
Mof_H 	H 	0.4922	0.3984	0.7728	-0.006
Mof_H 	H 	0.5681	0.3564	0.4478	0.007
Mof_H 	H 	0.6005	0.3046	0.7203	0.097
Mof_H 	H 	0.9859	0.0631	0.7583	-0.016
Mof_H 	H 	0.0668	0.847	0.5765	0.007
Mof_H 	H 	0.0646	0.7402	0.7626	0.068
Mof_H 	H 	0.4427	0.7841	0.7868	0.072
Mof_H 	H 	0.2306	0.0114	0.5748	-0.007
Mof_H 	H 	0.0475	0.2174	0.6203	-0.01
Mof_H 	H 	0.5338	0.7205	0.4155	-0.027
Mof_H 	H 	0.4767	0.2501	0.5057	0.095
Mof_H 	H 	0.7388	0.5173	0.4399	-0.006
Mof_H 	H 	0.9743	0.7457	0.519	0.102
Mof_H 	H 	0.778	0.9547	0.6142	-0.021
Mof_H 	H 	0.147	0.3232	0.5615	0.051
Mof_H 	H 	0.6348	0.8168	0.4674	0.064
Mof_H 	H 	0.2754	0.4559	0.4115	-0.021
Mof_H 	H 	0.349	0.1122	0.5232	0.083
Mof_H 	H 	0.175	0.3561	0.4678	0.061
Mof_H 	H 	0.6922	0.3705	0.8919	-0.039
Mof_H 	H 	0.8375	0.6103	0.5012	0.079
Mof_H 	H 	0.8237	0.129	0.6321	-0.025
Mof_H 	H 	0.6773	0.8553	0.5568	0.037
Mof_H 	H 	0.8044	0.2712	0.8469	0.087
Mof_H 	H 	0.7136	0.2264	0.6767	0.089
Mof_H 	H 	0.1593	0.6024	0.7721	0.08
Mof_H 	H 	0.748	0.5016	0.3227	-0.024
Mof_H 	H 	0.4713	0.3356	0.3266	-0.024
Mof_H 	H 	0.0212	0.148	0.2161	-0.022
Mof_H 	H 	0.6286	0.1473	0.2148	0.052
Mof_H 	H 	0.7206	0.0315	0.1709	-0.01
Mof_H 	H 	0.1056	0.8342	0.3038	0.092
Mof_H 	H 	0.5078	0.6016	0.2728	-0.007
Mof_H 	H 	0.4319	0.6436	0.9478	0.019
Mof_H 	H 	0.3995	0.6954	0.2203	0.096
Mof_H 	H 	0.0141	0.9369	0.2583	-0.017
Mof_H 	H 	0.9332	0.153	0.0765	0.008
Mof_H 	H 	0.9354	0.2598	0.2626	0.068
Mof_H 	H 	0.5573	0.2159	0.2868	0.073
Mof_H 	H 	0.7694	0.9886	0.0748	-0.008
Mof_H 	H 	0.9525	0.7826	0.1203	-0.008
Mof_H 	H 	0.4662	0.2795	0.9155	-0.025
Mof_H 	H 	0.5233	0.7499	0.0057	0.049
Mof_H 	H 	0.2612	0.4827	0.9399	0.006
Mof_H 	H 	0.0257	0.2543	0.019	0.089
Mof_H 	H 	0.222	0.0453	0.1142	-0.015
Mof_H 	H 	0.853	0.6768	0.0615	0.04
Mof_H 	H 	0.3652	0.1832	0.9674	0.077
Mof_H 	H 	0.7246	0.5441	0.9115	-0.019
Mof_H 	H 	0.651	0.8878	0.0232	0.067
Mof_H 	H 	0.825	0.6439	0.9678	0.07
Mof_H 	H 	0.3078	0.6295	0.3919	-0.045
Mof_H 	H 	0.1625	0.3897	0.0012	0.039
Mof_H 	H 	0.1763	0.871	0.1321	-0.028
Mof_H 	H 	0.3227	0.1447	0.0568	0.026
Mof_H 	H 	0.1956	0.7288	0.3469	0.085
Mof_H 	H 	0.2864	0.7736	0.1767	0.088
Mof_H 	H 	0.8407	0.3976	0.2721	0.08
Mof_C 	C 	0.2913	0.556	0.8138	0.096
Mof_C 	C 	0.451	0.6543	0.8173	0.096
Mof_C 	C 	0.0594	0.8546	0.7166	0.076
Mof_C 	C 	0.291	0.8528	0.7161	-0.133
Mof_C 	C 	0.2349	0.9227	0.6896	0.06
Mof_C 	C 	0.876	0.1577	0.7687	-0.149
Mof_C 	C 	0.5585	0.375	0.787	0.084
Mof_C 	C 	0.4882	0.3566	0.4523	0.028
Mof_C 	C 	0.6215	0.3157	0.7549	-0.143
Mof_C 	C 	0.9345	0.1	0.741	0.086
Mof_C 	C 	0.987	0.8492	0.5726	0.071
Mof_C 	C 	0.2262	0.7828	0.7445	0.048
Mof_C 	C 	0.1105	0.7855	0.7441	-0.141
Mof_C 	C 	0.4016	0.7257	0.792	-0.152
Mof_C 	C 	0.2865	0.7094	0.7739	0.054
Mof_C 	C 	0.2157	0.0753	0.5729	0.065
Mof_C 	C 	0.1051	0.1957	0.599	0.052
Mof_C 	C 	0.7821	0.2104	0.7466	0.061
Mof_C 	C 	0.5976	0.6972	0.432	0.054
Mof_C 	C 	0.4332	0.2923	0.4876	-0.136
Mof_C 	C 	0.7148	0.5776	0.4467	0.04
Mof_C 	C 	0.9325	0.7879	0.5379	-0.136
Mof_C 	C 	0.8184	0.9124	0.5947	0.055
Mof_C 	C 	0.1663	0.2605	0.5642	-0.135
Mof_C 	C 	0.6559	0.7547	0.464	-0.173
Mof_C 	C 	0.3168	0.4147	0.4313	0.042
Mof_C 	C 	0.2853	0.1342	0.5404	-0.134
Mof_C 	C 	0.2552	0.3549	0.465	-0.167
Mof_C 	C 	0.6749	0.3579	0.8571	0.085
Mof_C 	C 	0.7764	0.6347	0.4832	-0.147
Mof_C 	C 	0.8385	0.137	0.6676	0.087
Mof_C 	C 	0.2554	0.2273	0.5348	0.043
Mof_C 	C 	0.7571	0.8524	0.5602	-0.15
Mof_C 	C 	0.3167	0.2908	0.4958	0.032
Mof_C 	C 	0.7487	0.7259	0.4932	0.026
Mof_C 	C 	0.8128	0.7895	0.5314	0.043
Mof_C 	C 	0.7422	0.2976	0.8307	-0.143
Mof_C 	C 	0.77	0.1958	0.6946	-0.15
Mof_C 	C 	0.2335	0.6194	0.7847	-0.155
Mof_C 	C 	0.7127	0.276	0.7759	0.058
Mof_C 	C 	0.7087	0.444	0.3138	0.096
Mof_C 	C 	0.549	0.3457	0.3173	0.096
Mof_C 	C 	0.9406	0.1454	0.2166	0.074
Mof_C 	C 	0.709	0.1472	0.2161	-0.132
Mof_C 	C 	0.7651	0.0773	0.1896	0.06
Mof_C 	C 	0.124	0.8423	0.2687	-0.149
Mof_C 	C 	0.4415	0.625	0.287	0.083
Mof_C 	C 	0.5118	0.6434	0.9523	0.006
Mof_C 	C 	0.3785	0.6843	0.2549	-0.144
Mof_C 	C 	0.0655	0.9	0.241	0.085
Mof_C 	C 	0.013	0.1508	0.0726	0.061
Mof_C 	C 	0.7738	0.2172	0.2445	0.047
Mof_C 	C 	0.8895	0.2145	0.2441	-0.139
Mof_C 	C 	0.5984	0.2743	0.292	-0.152
Mof_C 	C 	0.7135	0.2906	0.2739	0.054
Mof_C 	C 	0.7843	0.9247	0.0729	0.051
Mof_C 	C 	0.8949	0.8043	0.099	0.039
Mof_C 	C 	0.2179	0.7896	0.2466	0.06
Mof_C 	C 	0.4024	0.3028	0.932	0.063
Mof_C 	C 	0.5668	0.7077	0.9876	-0.071
Mof_C 	C 	0.2852	0.4224	0.9467	0.021
Mof_C 	C 	0.0675	0.2121	0.0379	-0.12
Mof_C 	C 	0.1816	0.0876	0.0947	0.043
Mof_C 	C 	0.8337	0.7395	0.0642	-0.121
Mof_C 	C 	0.3441	0.2453	0.964	-0.178
Mof_C 	C 	0.6832	0.5853	0.9313	0.048
Mof_C 	C 	0.7147	0.8658	0.0404	-0.119
Mof_C 	C 	0.7448	0.6451	0.965	-0.167
Mof_C 	C 	0.3251	0.6421	0.3571	0.086
Mof_C 	C 	0.2236	0.3653	0.9832	-0.089
Mof_C 	C 	0.1615	0.863	0.1676	0.086
Mof_C 	C 	0.7446	0.7727	0.0348	0.005
Mof_C 	C 	0.2429	0.1476	0.0602	-0.13
Mof_C 	C 	0.6833	0.7092	0.9958	0.051
Mof_C 	C 	0.2513	0.2741	0.9932	0.047
Mof_C 	C 	0.1872	0.2105	0.0314	0.006
Mof_C 	C 	0.2578	0.7024	0.3307	-0.145
Mof_C 	C 	0.23	0.8042	0.1946	-0.151
Mof_C 	C 	0.7665	0.3806	0.2847	-0.155
Mof_C 	C 	0.2873	0.724	0.2759	0.058
Mof_N 	N 	0.5851	0.4002	0.8357	-0.248
Mof_N 	N 	0.3975	0.5719	0.8297	-0.247
Mof_N 	N 	0.6215	0.6063	0.4205	-0.255
Mof_N 	N 	0.1174	0.9264	0.69	-0.238
Mof_N 	N 	0.1288	0.105	0.6016	-0.24
Mof_N 	N 	0.9248	0.0904	0.688	-0.25
Mof_N 	N 	0.9344	0.9121	0.6012	-0.24
Mof_N 	N 	0.4301	0.4184	0.4247	-0.245
Mof_N 	N 	0.4149	0.5998	0.3357	-0.249
Mof_N 	N 	0.6025	0.4281	0.3297	-0.247
Mof_N 	N 	0.3785	0.3937	0.9205	-0.25
Mof_N 	N 	0.8826	0.0736	0.19	-0.236
Mof_N 	N 	0.8712	0.895	0.1016	-0.238
Mof_N 	N 	0.0752	0.9096	0.188	-0.251
Mof_N 	N 	0.0656	0.0879	0.1012	-0.235
Mof_N 	N 	0.5699	0.5816	0.9247	-0.239
Mof_H 	H 	0.6686	0.2968	0.1328	0.443
Mof_H 	H 	0.706	0.556	0.1321	-0.005
Mof_H 	H 	0.6812	0.5144	0.1882	0.042
Mof_H 	H 	0.8282	0.4485	0.1222	-0.1
Mof_H 	H 	0.7853	0.3959	0.1736	-0.096
Mof_H 	H 	0.5419	0.4824	0.0313	1.271
Mof_H 	H 	0.6351	0.413	0.0144	1.266
Mof_H 	H 	0.6717	0.5029	0.0482	1.287
Mof_H 	H 	0.4294	0.3562	0.0772	1.506
Mof_H 	H 	0.4878	0.3032	0.1229	1.507
Mof_H 	H 	0.5172	0.2795	0.0649	1.488
Mof_H 	H 	0.4863	0.4542	0.2054	-0.213
Mof_H 	H 	0.553	0.3655	0.1897	-0.298
Mof_H 	H 	0.4313	0.3803	0.1651	-0.321
Mof_C 	C 	0.6964	0.3484	0.1093	-1.411
Mof_C 	C 	0.5887	0.3983	0.0892	3.103
Mof_C 	C 	0.5588	0.466	0.1348	-1.117
Mof_C 	C 	0.6802	0.4991	0.1513	0.025
Mof_C 	C 	0.7602	0.4227	0.1409	0.43
Mof_C 	C 	0.6113	0.4539	0.0417	-4.24
Mof_C 	C 	0.4991	0.3291	0.0885	-4.955
Mof_C 	C 	0.4893	0.545	0.1192	0.597
Mof_C 	C 	0.7618	0.3067	0.0668	0.677
Mof_C 	C 	0.5026	0.4119	0.1774	0.875
Mof_O 	O 	0.8482	0.3543	0.0465	-0.381
Mof_O 	O 	0.7255	0.2237	0.0518	-0.427
Mof_O 	O 	0.3899	0.5219	0.0977	-0.404
Mof_O 	O 	0.5188	0.6311	0.1309	-0.323
Mof_H 	H 	0.189	0.0507	0.8601	0.034
Mof_H 	H 	0.1342	0.9691	0.8237	0.025
Mof_H 	H 	0.2895	0.888	0.8473	0.08
Mof_H 	H 	0.3155	0.9531	0.8967	0.082
Mof_H 	H 	0.0976	0.7904	0.8508	0.16
Mof_H 	H 	0.0913	0.7228	0.8995	0.156
Mof_H 	H 	0.2039	0.7325	0.8652	0.176
Mof_H 	H 	0.9565	0.7822	0.936	0.361
Mof_H 	H 	0.9246	0.8712	0.9683	0.391
Mof_H 	H 	0.0161	0.8046	0.99	0.379
Mof_H 	H 	0.1827	0.0049	0.9607	0.307
Mof_H 	H 	0.1398	0.9339	0.0049	0.259
Mof_H 	H 	0.0545	0.0038	0.9809	0.316
Mof_C 	C 	0.1871	0.8436	0.9116	-0.052
Mof_C 	C 	0.0803	0.891	0.9323	0.548
Mof_C 	C 	0.0598	0.9673	0.8968	-0.253
Mof_C 	C 	0.1592	0.9846	0.859	0.012
Mof_C 	C 	0.2549	0.9179	0.877	-0.16
Mof_C 	C 	0.1411	0.7658	0.879	-0.458
Mof_C 	C 	0.986	0.832	0.959	-1.136
Mof_C 	C 	0.2598	0.8024	0.9583	0.262
Mof_C 	C 	0.9714	0.0361	0.8996	0.354
Mof_C 	C 	0.118	0.965	0.9735	-0.864
Mof_O 	O 	0.2333	0.7177	0.9737	-0.24
Mof_O 	O 	0.3424	0.8529	0.9763	-0.24
Mof_O 	O 	0.8946	0.0281	0.9387	-0.251
Mof_O 	O 	0.0045	0.1162	0.8952	-0.271
Mof_H 	H 	0.3314	0.7032	0.6328	0.456
Mof_H 	H 	0.294	0.444	0.6321	-0.009
Mof_H 	H 	0.3188	0.4856	0.6882	0.039
Mof_H 	H 	0.1718	0.5515	0.6222	-0.103
Mof_H 	H 	0.2147	0.6041	0.6736	-0.098
Mof_H 	H 	0.4581	0.5176	0.5313	1.328
Mof_H 	H 	0.3649	0.587	0.5144	1.323
Mof_H 	H 	0.3283	0.4971	0.5482	1.341
Mof_H 	H 	0.5706	0.6438	0.5772	1.563
Mof_H 	H 	0.5122	0.6968	0.6229	1.56
Mof_H 	H 	0.4828	0.7205	0.5649	1.544
Mof_H 	H 	0.5137	0.5458	0.7054	-0.23
Mof_H 	H 	0.447	0.6345	0.6897	-0.318
Mof_H 	H 	0.5687	0.6197	0.6651	-0.341
Mof_C 	C 	0.3036	0.6516	0.6093	-1.455
Mof_C 	C 	0.4113	0.6017	0.5892	3.219
Mof_C 	C 	0.4412	0.534	0.6348	-1.166
Mof_C 	C 	0.3198	0.5009	0.6513	0.038
Mof_C 	C 	0.2398	0.5773	0.6409	0.442
Mof_C 	C 	0.3887	0.5461	0.5417	-4.403
Mof_C 	C 	0.5009	0.6709	0.5885	-5.13
Mof_C 	C 	0.5107	0.455	0.6192	0.613
Mof_C 	C 	0.2382	0.6933	0.5668	0.689
Mof_C 	C 	0.4974	0.5881	0.6774	0.933
Mof_O 	O 	0.1518	0.6457	0.5465	-0.379
Mof_O 	O 	0.2745	0.7763	0.5518	-0.427
Mof_O 	O 	0.6101	0.4781	0.5977	-0.405
Mof_O 	O 	0.4812	0.3689	0.6309	-0.324
Mof_H 	H 	0.811	0.9493	0.3601	0.026
Mof_H 	H 	0.8658	0.0309	0.3237	0.024
Mof_H 	H 	0.7105	0.112	0.3473	0.079
Mof_H 	H 	0.6845	0.0469	0.3967	0.079
Mof_H 	H 	0.9024	0.2096	0.3508	0.153
Mof_H 	H 	0.9087	0.2772	0.3995	0.148
Mof_H 	H 	0.7961	0.2675	0.3652	0.169
Mof_H 	H 	0.0435	0.2178	0.436	0.364
Mof_H 	H 	0.0754	0.1288	0.4683	0.389
Mof_H 	H 	0.9839	0.1954	0.49	0.373
Mof_H 	H 	0.8173	0.9951	0.4607	0.332
Mof_H 	H 	0.8602	0.0661	0.5049	0.319
Mof_H 	H 	0.9455	0.9962	0.4809	0.337
Mof_C 	C 	0.8129	0.1564	0.4116	-0.07
Mof_C 	C 	0.9197	0.109	0.4323	0.58
Mof_C 	C 	0.9402	0.0327	0.3968	-0.258
Mof_C 	C 	0.8408	0.0154	0.359	0.022
Mof_C 	C 	0.7451	0.0821	0.377	-0.156
Mof_C 	C 	0.8589	0.2342	0.379	-0.436
Mof_C 	C 	0.014	0.168	0.459	-1.153
Mof_C 	C 	0.7402	0.1976	0.4583	0.267
Mof_C 	C 	0.0286	0.9639	0.3996	0.355
Mof_C 	C 	0.882	0.035	0.4735	-0.976
Mof_O 	O 	0.7667	0.2823	0.4737	-0.252
Mof_O 	O 	0.6576	0.1471	0.4763	-0.255
Mof_O 	O 	0.1054	0.9719	0.4387	-0.264
Mof_O 	O 	0.9955	0.8838	0.3952	-0.277
_end
