data_functionalizedCrystal
_audit_creation_method	'EQeq! by Chris Wilmer'
_symmetry_space_group_name_H-M	'P1'
_symmetry_Int_Tables_number	1
_symmetry_cell_setting	triclinic
loop_
_symmetry_equiv_pos_as_xyz
  x,y,z
_cell_length_a	9.5164
_cell_length_b	12.0447
_cell_length_c	16.828
_cell_angle_alpha	96.507
_cell_angle_beta	90
_cell_angle_gamma	113.269
loop_
_atom_site_label
_atom_site_type_symbol
_atom_site_fract_x
_atom_site_fract_y
_atom_site_fract_z
_atom_site_charge
Mof_Gd	Gd	0.30451	0.00908	0.93432	1.921
Mof_Gd	Gd	0.29543	0.99092	0.56568	1.942
Mof_Gd	Gd	0.70457	0.00908	0.43432	1.942
Mof_Gd	Gd	0.69549	0.99092	0.06568	1.921
Mof_Ag	Ag	0.03825	0.31784	0.58332	0.678
Mof_Ag	Ag	0.27959	0.31784	0.08332	0.681
Mof_Ag	Ag	0.72041	0.68216	0.91668	0.681
Mof_Ag	Ag	0.96175	0.68216	0.41668	0.678
Mof_H 	H 	0.7509	0.6972	0.5527	-0.011
Mof_H 	H 	0.4268	0.8086	0.7198	0.06
Mof_H 	H 	0.4307	0.421	0.3705	0.099
Mof_H 	H 	0.5693	0.579	0.6295	0.099
Mof_H 	H 	0.0537	0.3028	0.9473	-0.011
Mof_H 	H 	0.0335	0.9	0.1677	0.056
Mof_H 	H 	0.1335	0.1	0.3323	0.052
Mof_H 	H 	0.1338	0.6282	0.8817	-0.017
Mof_H 	H 	0.3818	0.8086	0.2198	0.061
Mof_H 	H 	0.6182	0.1914	0.7802	0.061
Mof_H 	H 	0.4649	0.7052	0.8192	-0.005
Mof_H 	H 	0.8662	0.3718	0.1183	-0.017
Mof_H 	H 	0.5056	0.3718	0.6183	-0.018
Mof_H 	H 	0.2491	0.3028	0.4473	-0.011
Mof_H 	H 	0.4111	0.584	0.0421	-0.037
Mof_H 	H 	0.8911	0.8014	0.7733	0.012
Mof_H 	H 	0.8665	0.9	0.6677	0.052
Mof_H 	H 	0.0897	0.1986	0.7267	0.01
Mof_H 	H 	0.5351	0.2948	0.1808	-0.005
Mof_H 	H 	0.8271	0.416	0.4579	-0.038
Mof_H 	H 	0.2403	0.7052	0.3192	-0.006
Mof_H 	H 	0.9903	0.421	0.8705	0.097
Mof_H 	H 	0.7597	0.2948	0.6808	-0.006
Mof_H 	H 	0.0097	0.579	0.1295	0.097
Mof_H 	H 	0.5732	0.1914	0.2802	0.06
Mof_H 	H 	0.9463	0.6972	0.0527	-0.011
Mof_H 	H 	0.9103	0.8014	0.2733	0.01
Mof_H 	H 	0.4944	0.6282	0.3817	-0.018
Mof_H 	H 	0.1729	0.584	0.5421	-0.038
Mof_H 	H 	0.9665	0.1	0.8323	0.056
Mof_H 	H 	0.5889	0.416	0.9579	-0.037
Mof_H 	H 	0.1089	0.1986	0.2267	0.012
Mof_C 	C 	0.784	0.8642	0.699	-0.046
Mof_C 	C 	0.6194	0.5438	0.5941	-0.213
Mof_C 	C 	0.3892	0.7622	0.9756	0.519
Mof_C 	C 	0.661	0.3704	0.5364	-0.247
Mof_C 	C 	0.8384	0.4208	0.0881	0.141
Mof_C 	C 	0.373	0.7622	0.4756	0.52
Mof_C 	C 	0.0359	0.0692	0.0116	0.249
Mof_C 	C 	0.3568	0.1298	0.3152	-0.08
Mof_C 	C 	0.3245	0.5516	0.0076	0.127
Mof_C 	C 	0.6108	0.2378	0.0244	0.519
Mof_C 	C 	0.9641	0.9308	0.9884	0.249
Mof_C 	C 	0.7964	0.803	0.7619	0.039
Mof_C 	C 	0.1146	0.3858	0.9515	0.123
Mof_C 	C 	0.7288	0.6142	0.5485	0.124
Mof_C 	C 	0.0802	0.8642	0.199	-0.05
Mof_C 	C 	0.6777	0.0564	0.8786	0.442
Mof_C 	C 	0.773	0.1298	0.8152	-0.077
Mof_C 	C 	0.0333	0.0692	0.5116	0.251
Mof_C 	C 	0.2923	0.0704	0.7554	0.252
Mof_C 	C 	0.2271	0.5516	0.5076	0.13
Mof_C 	C 	0.7999	0.2524	0.7103	0.049
Mof_C 	C 	0.9244	0.5438	0.0941	-0.209
Mof_C 	C 	0.5232	0.809	0.7295	-0.053
Mof_C 	C 	0.1616	0.5792	0.9119	0.141
Mof_C 	C 	0.216	0.1358	0.301	-0.046
Mof_C 	C 	0.9934	0.197	0.7381	0.046
Mof_C 	C 	0.7142	0.191	0.7705	-0.055
Mof_C 	C 	0.0756	0.4562	0.9059	-0.209
Mof_C 	C 	0.3223	0.9436	0.1214	0.442
Mof_C 	C 	0.7729	0.4484	0.4924	0.13
Mof_C 	C 	0.2712	0.3858	0.4515	0.124
Mof_C 	C 	0.5824	0.4208	0.5881	0.144
Mof_C 	C 	0.227	0.8702	0.1848	-0.077
Mof_C 	C 	0.627	0.2378	0.5244	0.52
Mof_C 	C 	0.6213	0.9436	0.6214	0.444
Mof_C 	C 	0.2036	0.197	0.2381	0.039
Mof_C 	C 	0.6755	0.4484	0.9924	0.127
Mof_C 	C 	0.3787	0.0564	0.3786	0.444
Mof_C 	C 	0.2219	0.9296	0.7446	0.261
Mof_C 	C 	0.3806	0.4562	0.4059	-0.213
Mof_C 	C 	0.2001	0.7476	0.2897	0.049
Mof_C 	C 	0.9198	0.1358	0.801	-0.05
Mof_C 	C 	0.2906	0.6296	0.9636	-0.243
Mof_C 	C 	0.4176	0.5792	0.4119	0.144
Mof_C 	C 	0.7077	0.9296	0.2446	0.252
Mof_C 	C 	0.9667	0.9308	0.4884	0.251
Mof_C 	C 	0.4768	0.191	0.2705	-0.053
Mof_C 	C 	0.0066	0.803	0.2619	0.046
Mof_C 	C 	0.7781	0.0704	0.2554	0.261
Mof_C 	C 	0.8854	0.6142	0.0485	0.123
Mof_C 	C 	0.6432	0.8702	0.6848	-0.08
Mof_C 	C 	0.5475	0.7476	0.7897	0.048
Mof_C 	C 	0.339	0.6296	0.4636	-0.247
Mof_C 	C 	0.7094	0.3704	0.0364	-0.243
Mof_C 	C 	0.2858	0.809	0.2295	-0.055
Mof_C 	C 	0.4525	0.2524	0.2103	0.048
Mof_N 	N 	0.0651	0.7466	0.3068	-0.202
Mof_N 	N 	0.7619	0.5682	0.9975	-0.231
Mof_N 	N 	0.8063	0.5682	0.4975	-0.231
Mof_N 	N 	0.9349	0.2534	0.6932	-0.202
Mof_N 	N 	0.3185	0.2534	0.1932	-0.201
Mof_N 	N 	0.6815	0.7466	0.8068	-0.201
Mof_N 	N 	0.2381	0.4318	0.0025	-0.231
Mof_N 	N 	0.1937	0.4318	0.5025	-0.231
Mof_O 	O 	0.8191	0.123	0.325	-0.399
Mof_O 	O 	0.6687	0.8804	0.3071	-0.39
Mof_O 	O 	0.5003	0.0406	0.3778	-0.5
Mof_O 	O 	0.7443	0.0182	0.9266	-0.465
Mof_O 	O 	0.4789	0.2054	0.9944	-0.521
Mof_O 	O 	0.7261	0.9818	0.5734	-0.469
Mof_O 	O 	0.1809	0.877	0.675	-0.399
Mof_O 	O 	0.8514	0.885	0.4406	-0.415
Mof_O 	O 	0.2739	0.0182	0.4266	-0.469
Mof_O 	O 	0.7883	0.1196	0.1929	-0.387
Mof_O 	O 	0.2117	0.8804	0.8071	-0.387
Mof_O 	O 	0.9664	0.115	0.0594	-0.405
Mof_O 	O 	0.2557	0.9818	0.0734	-0.465
Mof_O 	O 	0.9672	0.1274	0.4822	-0.435
Mof_O 	O 	0.3039	0.123	0.825	-0.398
Mof_O 	O 	0.5211	0.7946	0.0056	-0.521
Mof_O 	O 	0.5009	0.17	0.5464	-0.53
Mof_O 	O 	0.8398	0.8726	0.0178	-0.439
Mof_O 	O 	0.6961	0.877	0.175	-0.398
Mof_O 	O 	0.4997	0.9594	0.6222	-0.5
Mof_O 	O 	0.4991	0.83	0.4536	-0.53
Mof_O 	O 	0.3309	0.83	0.9536	-0.525
Mof_O 	O 	0.0328	0.8726	0.5178	-0.435
Mof_O 	O 	0.6691	0.17	0.0464	-0.525
Mof_O 	O 	0.1486	0.115	0.5594	-0.415
Mof_O 	O 	0.0336	0.885	0.9406	-0.405
Mof_O 	O 	0.1602	0.1274	0.9822	-0.439
Mof_O 	O 	0.4597	0.9594	0.1222	-0.498
Mof_O 	O 	0.2735	0.7946	0.5056	-0.521
Mof_O 	O 	0.7265	0.2054	0.4944	-0.521
Mof_O 	O 	0.5403	0.0406	0.8778	-0.498
Mof_O 	O 	0.3313	0.1196	0.6929	-0.39
_end
