data_functionalizedCrystal
_audit_creation_method	'EQeq! by Chris Wilmer'
_symmetry_space_group_name_H-M	'P1'
_symmetry_Int_Tables_number	1
_symmetry_cell_setting	triclinic
loop_
_symmetry_equiv_pos_as_xyz
  x,y,z
_cell_length_a	9.072
_cell_length_b	13.14
_cell_length_c	30.7
_cell_angle_alpha	92.72
_cell_angle_beta	90.2
_cell_angle_gamma	90.01
loop_
_atom_site_label
_atom_site_type_symbol
_atom_site_fract_x
_atom_site_fract_y
_atom_site_fract_z
_atom_site_charge
Mof_Cd	Cd	0.13557	0.42152	0.03696	0.459
Mof_Cd	Cd	0.36497	0.42146	0.53711	0.46
Mof_Cd	Cd	0.63503	0.57854	0.46289	0.459
Mof_Cd	Cd	0.86443	0.57848	0.96304	0.458
Mof_H 	H 	0.6961	0.8427	0.1592	0.122
Mof_H 	H 	0.9376	0.7845	0.3633	0.005
Mof_H 	H 	0.9924	0.4339	0.8723	0.02
Mof_H 	H 	0.7501	0.3795	0.411	0.015
Mof_H 	H 	0.641	0.0777	0.4971	0.097
Mof_H 	H 	0.4923	0.2182	0.4881	0.018
Mof_H 	H 	0.5621	0.7859	0.8627	0.002
Mof_H 	H 	0.1353	0.9704	0.4093	0.056
Mof_H 	H 	0.2499	0.6205	0.589	0.015
Mof_H 	H 	0.7053	0.7694	0.0881	0.018
Mof_H 	H 	0.1961	0.1553	0.3413	0.124
Mof_H 	H 	0.1073	0.1726	0.5126	0.076
Mof_H 	H 	0.1562	0.5248	0.4685	0.015
Mof_H 	H 	0.7951	0.7688	0.588	0.016
Mof_H 	H 	0.4942	0.5657	0.6278	0.022
Mof_H 	H 	0.2049	0.2312	0.412	0.016
Mof_H 	H 	0.5127	0.3305	0.0416	0.107
Mof_H 	H 	0.9944	0.3557	0.8024	0.116
Mof_H 	H 	0.012	0.1475	0.7045	0.124
Mof_H 	H 	0.4851	0.147	0.2049	0.125
Mof_H 	H 	0.2947	0.2306	0.9119	0.018
Mof_H 	H 	0.2607	0.8	0.8855	0.084
Mof_H 	H 	0.5077	0.7818	0.5119	0.018
Mof_H 	H 	0.7599	0.1984	0.615	0.083
Mof_H 	H 	0.3087	0.3455	0.7609	0.12
Mof_H 	H 	0.5058	0.4343	0.3722	0.022
Mof_H 	H 	0.8039	0.8447	0.6587	0.124
Mof_H 	H 	0.6557	0.4748	0.0317	0.014
Mof_H 	H 	0.1399	0.9225	0.0035	0.095
Mof_H 	H 	0.1899	0.3445	0.2606	0.122
Mof_H 	H 	0.7393	0.2	0.1145	0.084
Mof_H 	H 	0.0104	0.2171	0.9887	0.019
Mof_H 	H 	0.6357	0.5932	0.3075	0.003
Mof_H 	H 	0.3039	0.1573	0.8408	0.122
Mof_H 	H 	0.2401	0.8016	0.385	0.083
Mof_H 	H 	0.4932	0.6468	0.6974	0.117
Mof_H 	H 	0.8601	0.0775	0.9965	0.095
Mof_H 	H 	0.608	0.826	0.9873	0.077
Mof_H 	H 	0.2532	0.6196	0.0887	0.014
Mof_H 	H 	0.0624	0.2155	0.6367	0.005
Mof_H 	H 	0.7468	0.3804	0.9113	0.014
Mof_H 	H 	0.988	0.8525	0.2955	0.124
Mof_H 	H 	0.6045	0.2341	0.9173	0.094
Mof_H 	H 	0.9935	0.3316	0.5411	0.107
Mof_H 	H 	0.5068	0.3532	0.3026	0.117
Mof_H 	H 	0.8867	0.3413	0.1016	0.017
Mof_H 	H 	0.0076	0.5661	0.1277	0.02
Mof_H 	H 	0.0056	0.6443	0.1976	0.116
Mof_H 	H 	0.8636	0.5934	0.8078	0.002
Mof_H 	H 	0.3642	0.9688	0.9097	0.057
Mof_H 	H 	0.3955	0.7659	0.0827	0.094
Mof_H 	H 	0.8101	0.6555	0.7394	0.122
Mof_H 	H 	0.8438	0.4752	0.5315	0.015
Mof_H 	H 	0.9896	0.7829	0.0113	0.019
Mof_H 	H 	0.3443	0.5252	0.9683	0.014
Mof_H 	H 	0.6358	0.0312	0.0903	0.057
Mof_H 	H 	0.1364	0.4066	0.1922	0.002
Mof_H 	H 	0.6152	0.3432	0.6015	0.016
Mof_H 	H 	0.5149	0.853	0.7951	0.125
Mof_H 	H 	0.8927	0.8274	0.4874	0.076
Mof_H 	H 	0.3848	0.6568	0.3985	0.016
Mof_H 	H 	0.6913	0.6545	0.2391	0.12
Mof_H 	H 	0.4379	0.2141	0.1373	0.002
Mof_H 	H 	0.1068	0.7662	0.583	0.092
Mof_H 	H 	0.359	0.9223	0.5029	0.097
Mof_H 	H 	0.0065	0.6684	0.4589	0.107
Mof_H 	H 	0.1133	0.6587	0.8984	0.017
Mof_H 	H 	0.4873	0.6695	0.9584	0.107
Mof_H 	H 	0.8647	0.0296	0.5907	0.056
Mof_H 	H 	0.3643	0.4068	0.6925	0.003
Mof_H 	H 	0.392	0.174	0.0127	0.077
Mof_H 	H 	0.8932	0.2338	0.417	0.092
Mof_C 	C 	0.7386	0.7896	0.6521	-0.236
Mof_C 	C 	0.2076	0.3541	0.1947	0.122
Mof_C 	C 	0.5485	0.2143	0.5141	0.094
Mof_C 	C 	0.2929	0.3545	0.695	0.118
Mof_C 	C 	0.9452	0.6698	0.1752	-0.231
Mof_C 	C 	0.7384	0.6825	0.2646	-0.248
Mof_C 	C 	0.118	0.7136	0.9196	0.089
Mof_C 	C 	0.7811	0.1234	0.0566	0.107
Mof_C 	C 	0.2919	0.7979	0.4118	-0.148
Mof_C 	C 	0.6373	0.6176	0.5549	0.331
Mof_C 	C 	0.8553	0.4258	0.5082	0.096
Mof_C 	C 	0.4454	0.3762	0.3663	0.104
Mof_C 	C 	0.3628	0.8695	0.4807	-0.151
Mof_C 	C 	0.4465	0.1782	0.9865	-0.036
Mof_C 	C 	0.3168	0.9625	0.937	-0.037
Mof_C 	C 	0.2571	0.3535	0.6138	0.31
Mof_C 	C 	0.1447	0.5742	0.4918	0.096
Mof_C 	C 	0.7203	0.1236	0.5566	0.11
Mof_C 	C 	0.1402	0.3393	0.8992	-0.15
Mof_C 	C 	0.3627	0.3824	0.4451	0.331
Mof_C 	C 	0.2614	0.2104	0.3479	-0.236
Mof_C 	C 	0.3551	0.5749	0.9916	0.101
Mof_C 	C 	0.2189	0.8766	0.9434	0.107
Mof_C 	C 	0.5535	0.8218	0.0135	-0.036
Mof_C 	C 	0.6147	0.7606	0.8378	0.119
Mof_C 	C 	0.2196	0.315	0.6576	-0.153
Mof_C 	C 	0.6832	0.0375	0.063	-0.037
Mof_C 	C 	0.3574	0.3389	0.3993	-0.154
Mof_C 	C 	0.8673	0.6173	0.0548	0.325
Mof_C 	C 	0.7924	0.6459	0.8053	0.122
Mof_C 	C 	0.7559	0.646	0.8863	0.312
Mof_C 	C 	0.6624	0.7609	0.7615	0.275
Mof_C 	C 	0.8643	0.1301	0.0188	-0.147
Mof_C 	C 	0.9471	0.8224	0.5137	-0.033
Mof_C 	C 	0.2441	0.354	0.1137	0.312
Mof_C 	C 	0.441	0.6605	0.9857	-0.16
Mof_C 	C 	0.2377	0.2116	0.8477	-0.231
Mof_C 	C 	0.6449	0.4251	0.0084	0.101
Mof_C 	C 	0.0529	0.1776	0.4863	-0.033
Mof_C 	C 	0.8385	0.7603	0.2619	0.269
Mof_C 	C 	0.9167	0.8002	0.2981	-0.231
Mof_C 	C 	0.855	0.7533	0.1838	0.266
Mof_C 	C 	0.3025	0.6303	0.062	0.093
Mof_C 	C 	0.3376	0.2391	0.2385	0.275
Mof_C 	C 	0.7623	0.7884	0.1523	-0.231
Mof_C 	C 	0.7344	0.7435	0.6102	0.111
Mof_C 	C 	0.1145	0.7178	0.5591	-0.15
Mof_C 	C 	0.2339	0.2563	0.8897	0.107
Mof_C 	C 	0.9526	0.214	0.0143	0.091
Mof_C 	C 	0.8006	0.3691	0.4376	0.089
Mof_C 	C 	0.7429	0.6465	0.3862	0.31
Mof_C 	C 	0.7804	0.685	0.3424	-0.153
Mof_C 	C 	0.5546	0.6238	0.6337	0.104
Mof_C 	C 	0.145	0.2467	0.8162	0.266
Mof_C 	C 	0.9592	0.2672	0.4799	0.12
Mof_C 	C 	0.4515	0.7857	0.4859	0.094
Mof_C 	C 	0.8855	0.2822	0.4409	-0.15
Mof_C 	C 	0.7924	0.2026	0.088	-0.15
Mof_C 	C 	0.0474	0.786	0.9857	0.091
Mof_C 	C 	0.0548	0.3302	0.8248	-0.231
Mof_C 	C 	0.2806	0.3157	0.1576	-0.156
Mof_C 	C 	0.7194	0.6843	0.8424	-0.156
Mof_C 	C 	0.3816	0.7125	0.4194	0.088
Mof_C 	C 	0.1994	0.6309	0.5624	0.089
Mof_C 	C 	0.2379	0.3167	0.2353	-0.252
Mof_C 	C 	0.9465	0.6238	0.1337	0.108
Mof_C 	C 	0.1822	0.9632	0.4367	-0.037
Mof_C 	C 	0.9443	0.3399	0.5142	-0.156
Mof_C 	C 	0.6426	0.6611	0.6007	-0.154
Mof_C 	C 	0.1148	0.2402	0.6619	0.114
Mof_C 	C 	0.5549	0.6709	0.6751	-0.229
Mof_C 	C 	0.6372	0.1305	0.5193	-0.151
Mof_C 	C 	0.4589	0.7333	0.0199	0.125
Mof_C 	C 	0.7081	0.2021	0.5882	-0.148
Mof_C 	C 	0.1615	0.2397	0.7381	0.269
Mof_C 	C 	0.3853	0.2394	0.1622	0.119
Mof_C 	C 	0.2076	0.7974	0.912	-0.15
Mof_C 	C 	0.3871	0.7178	0.0588	-0.155
Mof_C 	C 	0.0833	0.1998	0.7019	-0.231
Mof_C 	C 	0.8852	0.7598	0.3381	0.114
Mof_C 	C 	0.3523	0.2455	0.3166	0.265
Mof_C 	C 	0.2656	0.2565	0.3898	0.111
Mof_C 	C 	0.559	0.3395	0.0143	-0.16
Mof_C 	C 	0.1357	0.8699	0.9812	-0.147
Mof_C 	C 	0.6477	0.7545	0.6834	0.265
Mof_C 	C 	0.6129	0.2822	0.9412	-0.155
Mof_C 	C 	0.6184	0.2875	0.5806	0.088
Mof_C 	C 	0.1327	0.3827	0.9452	0.325
Mof_C 	C 	0.4145	0.1998	0.2022	-0.237
Mof_C 	C 	0.7661	0.7437	0.1103	0.107
Mof_C 	C 	0.6975	0.3697	0.938	0.093
Mof_C 	C 	0.8178	0.0368	0.5633	-0.037
Mof_C 	C 	0.4451	0.3291	0.3249	-0.229
Mof_C 	C 	0.0557	0.6601	0.4858	-0.156
Mof_C 	C 	0.882	0.2864	0.0804	0.089
Mof_C 	C 	0.2616	0.3175	0.7354	-0.248
Mof_C 	C 	0.8598	0.6607	0.1008	-0.15
Mof_C 	C 	0.7071	0.6455	0.305	0.118
Mof_C 	C 	0.2797	0.8764	0.4434	0.11
Mof_C 	C 	0.5855	0.8002	0.7978	-0.237
Mof_C 	C 	0.7621	0.6833	0.7647	-0.252
Mof_C 	C 	0.5411	0.2667	0.9801	0.125
Mof_C 	C 	0.0535	0.3762	0.8663	0.108
Mof_C 	C 	0.0408	0.7328	0.5201	0.12
Mof_N 	N 	0.1604	0.0297	0.4682	-0.068
Mof_N 	N 	0.2878	0.5608	0.0291	-0.154
Mof_N 	N 	0.5388	0.2902	0.5444	-0.148
Mof_N 	N 	0.9613	0.2912	0.044	-0.147
Mof_N 	N 	0.9387	0.8942	0.5438	-0.071
Mof_N 	N 	0.4367	0.106	0.9566	-0.071
Mof_N 	N 	0.3396	0.03	0.9683	-0.068
Mof_N 	N 	0.7122	0.4392	0.9709	-0.154
Mof_N 	N 	0.7871	0.4393	0.4707	-0.152
Mof_N 	N 	0.0387	0.7088	0.956	-0.147
Mof_N 	N 	0.5633	0.894	0.0434	-0.071
Mof_N 	N 	0.2129	0.5607	0.5293	-0.152
Mof_N 	N 	0.0613	0.1058	0.4562	-0.071
Mof_N 	N 	0.6604	0.97	0.0317	-0.068
Mof_N 	N 	0.4612	0.7098	0.4556	-0.148
Mof_N 	N 	0.8396	0.9703	0.5318	-0.068
Mof_O 	O 	0.6373	0.8094	0.7231	-0.294
Mof_O 	O 	0.7028	0.6902	0.91999	-0.274
Mof_O 	O 	0.0529	0.4593	0.9541	-0.293
Mof_O 	O 	0.796	0.6904	0.42009	-0.273
Mof_O 	O 	0.135	0.1916	0.7767	-0.292
Mof_O 	O 	0.6553	0.5699	0.38812	-0.276
Mof_O 	O 	0.3447	0.4301	0.61188	-0.276
Mof_O 	O 	0.2126	0.3419	0.9735	-0.282
Mof_O 	O 	0.2887	0.3416	0.47354	-0.288
Mof_O 	O 	0.4449	0.4591	0.4544	-0.292
Mof_O 	O 	0.9471	0.5407	0.0459	-0.293
Mof_O 	O 	0.2972	0.3098	0.08001	-0.274
Mof_O 	O 	0.865	0.8084	0.2233	-0.292
Mof_O 	O 	0.204	0.3096	0.57991	-0.273
Mof_O 	O 	0.7113	0.6584	0.52646	-0.288
Mof_O 	O 	0.3627	0.1906	0.2769	-0.294
Mof_O 	O 	0.8436	0.5696	0.88832	-0.277
Mof_O 	O 	0.7874	0.6581	0.0265	-0.282
Mof_O 	O 	0.1564	0.4304	0.11168	-0.277
Mof_O 	O 	0.5551	0.5409	0.5456	-0.292
_end
