data_functionalizedCrystal
_audit_creation_method	'EQeq! by Chris Wilmer'
_symmetry_space_group_name_H-M	'P1'
_symmetry_Int_Tables_number	1
_symmetry_cell_setting	triclinic
loop_
_symmetry_equiv_pos_as_xyz
  x,y,z
_cell_length_a	10.6727
_cell_length_b	10.6926
_cell_length_c	15.7533
_cell_angle_alpha	95.865
_cell_angle_beta	90
_cell_angle_gamma	90
loop_
_atom_site_label
_atom_site_type_symbol
_atom_site_fract_x
_atom_site_fract_y
_atom_site_fract_z
_atom_site_charge
Mof_Tb	Tb	0.03209	0.74935	0.9815	2.045
Mof_Tb	Tb	0.53209	0.75065	0.5185	2.078
Mof_Tb	Tb	0.96791	0.25065	0.0185	2.044
Mof_Tb	Tb	0.46791	0.24935	0.4815	2.077
Mof_H 	H 	0.8036	0.2539	0.8023	0.001
Mof_H 	H 	0.6544	0.2627	0.6829	0.022
Mof_H 	H 	0.3036	0.2461	0.6977	-0.002
Mof_H 	H 	0.1544	0.2373	0.8171	0.022
Mof_H 	H 	0.1964	0.7461	0.1977	0.001
Mof_H 	H 	0.3456	0.7373	0.3171	0.022
Mof_H 	H 	0.6964	0.7539	0.3023	-0.002
Mof_H 	H 	0.8456	0.7627	0.1829	0.022
Mof_C 	C 	0.92	0.4759	0.8748	0.538
Mof_C 	C 	0.8279	0.4449	0.806	-0.182
Mof_C 	C 	0.7814	0.329	0.7786	0.018
Mof_C 	C 	0.6957	0.3345	0.7103	0.025
Mof_C 	C 	0.6786	0.4526	0.6881	-0.184
Mof_C 	C 	0.5955	0.4931	0.6211	0.549
Mof_C 	C 	0.42	0.0241	0.6252	0.543
Mof_C 	C 	0.3279	0.0551	0.694	-0.182
Mof_C 	C 	0.2814	0.171	0.7214	0.019
Mof_C 	C 	0.1957	0.1655	0.7897	0.023
Mof_C 	C 	0.1786	0.0474	0.8119	-0.18
Mof_C 	C 	0.0955	0.0069	0.8789	0.551
Mof_C 	C 	0.08	0.5241	0.1252	0.538
Mof_C 	C 	0.1721	0.5551	0.194	-0.182
Mof_C 	C 	0.2186	0.671	0.2214	0.018
Mof_C 	C 	0.3043	0.6655	0.2897	0.025
Mof_C 	C 	0.3214	0.5474	0.3119	-0.184
Mof_C 	C 	0.4045	0.5069	0.3789	0.549
Mof_C 	C 	0.58	0.9759	0.3748	0.543
Mof_C 	C 	0.6721	0.9449	0.306	-0.182
Mof_C 	C 	0.7186	0.829	0.2786	0.019
Mof_C 	C 	0.8043	0.8345	0.2103	0.023
Mof_C 	C 	0.8214	0.9526	0.1881	-0.18
Mof_C 	C 	0.9045	0.9931	0.1211	0.551
Mof_S 	S 	0.76745	0.55975	0.74985	0.109
Mof_S 	S 	0.26745	0.94025	0.75015	0.101
Mof_S 	S 	0.23255	0.44025	0.25015	0.109
Mof_S 	S 	0.73255	0.05975	0.24985	0.101
Mof_N 	N 	0.7604	0.7508	0.9628	0.071
Mof_N 	N 	0.2604	0.7492	0.5372	0.069
Mof_N 	N 	0.2396	0.2492	0.0372	0.071
Mof_N 	N 	0.7396	0.2508	0.4628	0.069
Mof_O 	O 	0.9629	0.5859	0.8832	-0.54
Mof_O 	O 	0.5342	0.4099	0.5769	-0.587
Mof_O 	O 	0.8123	0.6891	0.0179	-0.285
Mof_O 	O 	0.8308	0.8152	0.9207	-0.287
Mof_O 	O 	0.6459	0.747	0.9516	-0.139
Mof_O 	O 	0.9498	0.3903	0.9202	-0.592
Mof_O 	O 	0.5914	0.6086	0.6126	-0.582
Mof_O 	O 	0.4629	0.9141	0.6168	-0.55
Mof_O 	O 	0.0342	0.0901	0.9231	-0.583
Mof_O 	O 	0.3123	0.8109	0.4821	-0.285
Mof_O 	O 	0.3308	0.6848	0.5793	-0.294
Mof_O 	O 	0.1459	0.753	0.5484	-0.141
Mof_O 	O 	0.4498	0.1097	0.5798	-0.603
Mof_O 	O 	0.0914	0.8914	0.8874	-0.585
Mof_O 	O 	0.0371	0.4141	0.1168	-0.54
Mof_O 	O 	0.4658	0.5901	0.4231	-0.587
Mof_O 	O 	0.1877	0.3109	0.9821	-0.285
Mof_O 	O 	0.1692	0.1848	0.0793	-0.287
Mof_O 	O 	0.3541	0.253	0.0484	-0.139
Mof_O 	O 	0.0502	0.6097	0.0798	-0.592
Mof_O 	O 	0.4086	0.3914	0.3874	-0.582
Mof_O 	O 	0.5371	0.0859	0.3832	-0.55
Mof_O 	O 	0.9658	0.9099	0.0769	-0.583
Mof_O 	O 	0.6877	0.1891	0.5179	-0.285
Mof_O 	O 	0.6692	0.3152	0.4207	-0.294
Mof_O 	O 	0.8541	0.247	0.4516	-0.141
Mof_O 	O 	0.5502	0.8903	0.4202	-0.603
Mof_O 	O 	0.9086	0.1086	0.1126	-0.585
_end
