data_functionalizedCrystal
_audit_creation_method	'EQeq! by Chris Wilmer'
_symmetry_space_group_name_H-M	'P1'
_symmetry_Int_Tables_number	1
_symmetry_cell_setting	triclinic
loop_
_symmetry_equiv_pos_as_xyz
  x,y,z
_cell_length_a	10.0634
_cell_length_b	13.0284
_cell_length_c	14.9227
_cell_angle_alpha	79.6622
_cell_angle_beta	70.2946
_cell_angle_gamma	67.2811
loop_
_atom_site_label
_atom_site_type_symbol
_atom_site_fract_x
_atom_site_fract_y
_atom_site_fract_z
_atom_site_charge
Mof_Nd	Nd	0.09183	0.2952	0.608	2.354
Mof_Nd	Nd	0.35484	0.0302	0.3464	2.091
Mof_Nd	Nd	0.50497	0.7952	0.108	2.529
Mof_Nd	Nd	0.76856	0.5302	0.8464	2.262
Mof_H 	H 	0.8241	0.6181	0.1993	0.005
Mof_H 	H 	0.0009	0.4603	0.2733	-0.03
Mof_H 	H 	0.4709	0.317	0.5774	-0.002
Mof_H 	H 	0.7206	0.313	0.578	-0.007
Mof_H 	H 	0.116	0.853	0.6908	0.034
Mof_H 	H 	0.0284	0.7014	0.7588	0.013
Mof_H 	H 	0.8585	0.1181	0.6993	-0.065
Mof_H 	H 	0.7655	0.9603	0.7733	0.186
Mof_H 	H 	0.1347	0.817	0.0774	0.01
Mof_H 	H 	0.8884	0.813	0.078	-0.017
Mof_H 	H 	0.8402	0.353	0.1908	0.024
Mof_H 	H 	0.0114	0.2014	0.2588	0.043
Mof_C 	C 	0.114	0.6365	0.6233	-0.147
Mof_C 	C 	0.4595	0.1646	0.4848	0.638
Mof_C 	C 	0.9584	0.4552	0.466	0.352
Mof_C 	C 	0.6184	0.8003	0.3101	0.515
Mof_C 	C 	0.1988	0.7909	0.5595	-0.107
Mof_C 	C 	0.8908	0.5275	0.4009	-0.147
Mof_C 	C 	0.0867	0.5266	0.642	0.418
Mof_C 	C 	0.9765	0.1598	0.4908	0.747
Mof_C 	C 	0.8227	0.6142	0.2624	0
Mof_C 	C 	0.2508	0.8758	0.4886	0.404
Mof_C 	C 	0.9228	0.5195	0.3069	0.076
Mof_C 	C 	0.8279	0.1929	0.4853	-0.28
Mof_C 	C 	0.5799	0.1939	0.4823	-0.258
Mof_C 	C 	0.563	0.2701	0.5419	0.018
Mof_C 	C 	0.7105	0.2672	0.5418	0.068
Mof_C 	C 	0.1281	0.7961	0.6557	-0.017
Mof_C 	C 	0.0781	0.7108	0.695	-0.019
Mof_C 	C 	0.731	0.6927	0.3223	-0.178
Mof_C 	C 	0.1262	0.1365	0.1233	-0.104
Mof_C 	C 	0.3911	0.6646	0.9848	0.55
Mof_C 	C 	0.6204	0.9552	0.966	0.274
Mof_C 	C 	0.7712	0.3003	0.8101	0.527
Mof_C 	C 	0.9508	0.2909	0.0595	0.002
Mof_C 	C 	0.6808	0.0275	0.9009	-0.098
Mof_C 	C 	0.2447	0.0266	0.142	0.329
Mof_C 	C 	0.8729	0.6598	0.9908	0.542
Mof_C 	C 	0.8007	0.1142	0.7624	0.139
Mof_C 	C 	0.8848	0.3758	0.9886	0.232
Mof_C 	C 	0.7508	0.0195	0.8069	-0.274
Mof_C 	C 	0.9939	0.6929	0.9853	-0.277
Mof_C 	C 	0.2439	0.6939	0.9823	-0.286
Mof_C 	C 	0.125	0.7701	0.0419	0.039
Mof_C 	C 	0.9805	0.7672	0.0418	0.185
Mof_C 	C 	0.9201	0.2961	0.1557	0.02
Mof_C 	C 	0.0161	0.2108	0.195	-0.096
Mof_C 	C 	0.754	0.1927	0.8223	-0.229
Mof_S 	S 	0.7529	0.6503	0.4375	0.081
Mof_S 	S 	0.2017	0.6733	0.5173	0.051
Mof_S 	S 	0.7669	0.1217	0.4285	0.092
Mof_S 	S 	0.6593	0.1503	0.9375	-0.017
Mof_S 	S 	0.1077	0.1733	0.0173	-0.008
Mof_S 	S 	0.1829	0.6217	0.9285	0.055
Mof_O 	O 	0.2766	0.8619	0.4033	-0.448
Mof_O 	O 	0.8951	0.4536	0.5582	-0.469
Mof_O 	O 	0.5709	0.8693	0.3733	-0.472
Mof_O 	O 	0.1735	0.4534	0.585	-0.541
Mof_O 	O 	0.5716	0.8145	0.2415	-0.677
Mof_O 	O 	0.9876	0.5068	0.714	-0.616
Mof_O 	O 	0.0988	0.3755	0.4349	-0.424
Mof_O 	O 	0.3407	0.2173	0.5155	-0.751
Mof_O 	O 	0.2687	0.948	0.5146	-0.439
Mof_O 	O 	0.486	0.0981	0.4125	-0.594
Mof_O 	O 	0.0187	0.2002	0.5264	-0.824
Mof_O 	O 	0.0853	0.1096	0.4022	-0.577
Mof_O 	O 	0.9582	0.3619	0.9033	-0.452
Mof_O 	O 	0.5931	0.9536	0.0582	-0.389
Mof_O 	O 	0.6865	0.3693	0.8733	-0.548
Mof_O 	O 	0.2881	0.9534	0.085	-0.434
Mof_O 	O 	0.8724	0.3145	0.7415	-0.683
Mof_O 	O 	0.2916	0.0068	0.214	-0.657
Mof_O 	O 	0.5908	0.8755	0.9349	-0.418
Mof_O 	O 	0.4265	0.7173	0.0155	-0.673
Mof_O 	O 	0.7687	0.448	0.0146	-0.388
Mof_O 	O 	0.5034	0.5981	0.9125	-0.588
Mof_O 	O 	0.7547	0.7002	0.0264	-0.665
Mof_O 	O 	0.9029	0.6096	0.9022	-0.515
_end
