data_functionalizedCrystal
_audit_creation_method	'EQeq! by Chris Wilmer'
_symmetry_space_group_name_H-M	'P1'
_symmetry_Int_Tables_number	1
_symmetry_cell_setting	triclinic
loop_
_symmetry_equiv_pos_as_xyz
  x,y,z
_cell_length_a	14.3828
_cell_length_b	14.3828
_cell_length_c	14.3828
_cell_angle_alpha	90
_cell_angle_beta	90
_cell_angle_gamma	90
loop_
_atom_site_label
_atom_site_type_symbol
_atom_site_fract_x
_atom_site_fract_y
_atom_site_fract_z
_atom_site_charge
Mof_K 	K 	0.385	0	-0	1.673
Mof_K 	K 	0.885	0.5	0.5	3.279
Mof_K 	K 	0.615	0	-0	1.901
Mof_K 	K 	0.115	0.5	0.5	2.267
Mof_K 	K 	-4.24219e-33	0.385	-0	1.673
Mof_K 	K 	0.5	0.885	0.5	3.279
Mof_K 	K 	-0	0.615	-0	1.901
Mof_K 	K 	0.5	0.115	0.5	2.267
Mof_K 	K 	-2.79867e-33	-4.24219e-33	0.385	1.673
Mof_K 	K 	0.5	0.5	0.885	3.279
Mof_K 	K 	-1.93631e-33	0	0.615	1.901
Mof_K 	K 	0.5	0.5	0.115	2.267
Mof_Cu	Cu	0.5	0	0.25	0.832
Mof_Cu	Cu	0.5	8.48438e-33	0.75	0.837
Mof_Cu	Cu	0.25	0.5	-0	0.832
Mof_Cu	Cu	0.75	0.5	-0	0.836
Mof_Cu	Cu	1.8747e-33	0.25	0.5	0.831
Mof_Cu	Cu	1.8747e-33	0.75	0.5	0.836
Mof_Cu	Cu	0.5	0.25	-0	0.831
Mof_Cu	Cu	2.81205e-33	0.5	0.75	0.836
Mof_Cu	Cu	9.3735e-34	0.5	0.25	0.831
Mof_Cu	Cu	0.5	0.75	-0	0.836
Mof_Cu	Cu	0.25	0	0.5	0.831
Mof_Cu	Cu	0.75	0	0.5	0.836
Mof_O 	O 	0.6411	-2.12109e-33	0.2491	-0.684
Mof_O 	O 	0.1411	0.5	0.7491	-0.646
Mof_O 	O 	0.3589	-2.12109e-33	0.2491	-0.693
Mof_O 	O 	0.8589	0.5	0.7491	-0.614
Mof_O 	O 	0.3589	0	0.7509	-0.659
Mof_O 	O 	0.8589	0.5	0.2509	-0.613
Mof_O 	O 	0.6411	0	0.7509	-0.652
Mof_O 	O 	0.1411	0.5	0.2509	-0.65
Mof_O 	O 	0.2491	0.6411	-0	-0.684
Mof_O 	O 	0.7491	0.1411	0.5	-0.646
Mof_O 	O 	0.2491	0.3589	-0	-0.693
Mof_O 	O 	0.7491	0.8589	0.5	-0.614
Mof_O 	O 	0.7509	0.3589	-0	-0.659
Mof_O 	O 	0.2509	0.8589	0.5	-0.613
Mof_O 	O 	0.7509	0.6411	-0	-0.652
Mof_O 	O 	0.2509	0.1411	0.5	-0.65
Mof_O 	O 	2.40374e-33	0.2491	0.6411	-0.684
Mof_O 	O 	0.5	0.7491	0.1411	-0.646
Mof_O 	O 	1.34566e-33	0.2491	0.3589	-0.693
Mof_O 	O 	0.5	0.7491	0.8589	-0.614
Mof_O 	O 	1.34566e-33	0.7509	0.3589	-0.659
Mof_O 	O 	0.5	0.2509	0.8589	-0.613
Mof_O 	O 	-6.08064e-33	0.7509	0.6411	-0.652
Mof_O 	O 	0.5	0.2509	0.1411	-0.65
Mof_O 	O 	-5.66896e-33	0.6411	0.7509	-0.652
Mof_O 	O 	0.5	0.1411	0.2509	-0.65
Mof_O 	O 	-5.66896e-33	0.3589	0.7509	-0.659
Mof_O 	O 	0.5	0.8589	0.2509	-0.613
Mof_O 	O 	-1.18712e-33	0.3589	0.2491	-0.693
Mof_O 	O 	0.5	0.8589	0.7491	-0.614
Mof_O 	O 	-1.18712e-33	0.6411	0.2491	-0.684
Mof_O 	O 	0.5	0.1411	0.7491	-0.646
Mof_O 	O 	0.6411	0.2491	-0	-0.684
Mof_O 	O 	0.1411	0.7491	0.5	-0.646
Mof_O 	O 	0.3589	0.2491	-0	-0.693
Mof_O 	O 	0.8589	0.7491	0.5	-0.614
Mof_O 	O 	0.3589	0.7509	-0	-0.659
Mof_O 	O 	0.8589	0.2509	0.5	-0.613
Mof_O 	O 	0.6411	0.7509	-0	-0.652
Mof_O 	O 	0.1411	0.2509	0.5	-0.65
Mof_O 	O 	0.2491	0	0.3589	-0.693
Mof_O 	O 	0.7491	0.5	0.8589	-0.614
Mof_O 	O 	0.2491	0	0.6411	-0.684
Mof_O 	O 	0.7491	0.5	0.1411	-0.646
Mof_O 	O 	0.7509	0	0.6411	-0.652
Mof_O 	O 	0.2509	0.5	0.1411	-0.65
Mof_O 	O 	0.7509	0	0.3589	-0.659
Mof_O 	O 	0.2509	0.5	0.8589	-0.613
Mof_C 	C 	0.6656	-4.24219e-33	0.3344	0.696
Mof_O 	O 	0.6024	0	0.3976	-1.092
Mof_C 	C 	0.1656	0.5	0.8344	0.663
Mof_O 	O 	0.1024	0.5	0.8976	-0.772
Mof_C 	C 	0.3344	-4.24219e-33	0.3344	0.698
Mof_O 	O 	0.3976	0	0.3976	-1.093
Mof_C 	C 	0.8344	0.5	0.8344	0.663
Mof_O 	O 	0.8976	0.5	0.8976	-0.674
Mof_C 	C 	0.3344	0	0.6656	0.696
Mof_O 	O 	0.3976	0	0.6024	-1.092
Mof_C 	C 	0.8344	0.5	0.1656	0.663
Mof_O 	O 	0.8976	0.5	0.1024	-0.772
Mof_C 	C 	0.6656	0	0.6656	0.693
Mof_O 	O 	0.6024	0	0.6024	-1.091
Mof_C 	C 	0.1656	0.5	0.1656	0.665
Mof_O 	O 	0.1024	0.5	0.1024	-0.884
Mof_C 	C 	0.3344	0.6656	-0	0.696
Mof_O 	O 	0.3976	0.6024	-0	-1.092
Mof_C 	C 	0.8344	0.1656	0.5	0.663
Mof_O 	O 	0.8976	0.1024	0.5	-0.772
Mof_C 	C 	0.3344	0.3344	-0	0.698
Mof_O 	O 	0.3976	0.3976	-0	-1.093
Mof_C 	C 	0.8344	0.8344	0.5	0.663
Mof_O 	O 	0.8976	0.8976	0.5	-0.674
Mof_C 	C 	0.6656	0.3344	-0	0.696
Mof_O 	O 	0.6024	0.3976	-0	-1.092
Mof_C 	C 	0.1656	0.8344	0.5	0.663
Mof_O 	O 	0.1024	0.8976	0.5	-0.772
Mof_C 	C 	0.6656	0.6656	-0	0.693
Mof_O 	O 	0.6024	0.6024	-0	-1.091
Mof_C 	C 	0.1656	0.1656	0.5	0.665
Mof_O 	O 	0.1024	0.1024	0.5	-0.884
Mof_C 	C 	-5.98878e-33	0.3344	0.6656	0.696
Mof_O 	O 	-1.98355e-33	0.3976	0.6024	-1.092
Mof_C 	C 	0.5	0.8344	0.1656	0.663
Mof_O 	O 	0.5	0.8976	0.1024	-0.772
Mof_C 	C 	-7.23058e-33	0.3344	0.3344	0.698
Mof_O 	O 	1.49076e-33	0.3976	0.3976	-1.093
Mof_C 	C 	0.5	0.8344	0.8344	0.663
Mof_O 	O 	0.5	0.8976	0.8976	-0.674
Mof_C 	C 	1.2538e-33	0.6656	0.3344	0.696
Mof_O 	O 	1.49076e-33	0.6024	0.3976	-1.092
Mof_C 	C 	0.5	0.1656	0.8344	0.663
Mof_O 	O 	0.5	0.1024	0.8976	-0.772
Mof_C 	C 	2.4956e-33	0.6656	0.6656	0.693
Mof_O 	O 	2.25864e-33	0.6024	0.6024	-1.091
Mof_C 	C 	0.5	0.1656	0.1656	0.665
Mof_O 	O 	0.5	0.1024	0.1024	-0.884
_end
