data_functionalizedCrystal
_audit_creation_method	'EQeq! by Chris Wilmer'
_symmetry_space_group_name_H-M	'P1'
_symmetry_Int_Tables_number	1
_symmetry_cell_setting	triclinic
loop_
_symmetry_equiv_pos_as_xyz
  x,y,z
_cell_length_a	8.7519
_cell_length_b	12.028
_cell_length_c	16.7363
_cell_angle_alpha	90
_cell_angle_beta	90
_cell_angle_gamma	108.932
loop_
_atom_site_label
_atom_site_type_symbol
_atom_site_fract_x
_atom_site_fract_y
_atom_site_fract_z
_atom_site_charge
Mof_Tb	Tb	0.57129	0.0476	0.88099	2.209
Mof_Tb	Tb	0.92871	0.9524	0.38099	2.199
Mof_Tb	Tb	0.07129	0.0476	0.61901	2.199
Mof_Tb	Tb	0.42871	0.9524	0.11901	2.209
Mof_H 	H 	0.3194	0.8211	0.3271	0.116
Mof_H 	H 	0.9745	0.3298	0.4288	0.052
Mof_H 	H 	0.224	0.2105	0.0633	0.094
Mof_H 	H 	0.3996	0.4702	0.228	0.06
Mof_H 	H 	0.1329	0.6427	0.9672	0.132
Mof_H 	H 	0.8996	0.4702	0.272	0.061
Mof_H 	H 	0.8778	0.5363	0.9361	0.054
Mof_H 	H 	0.3943	0.8553	0.4956	0.117
Mof_H 	H 	0.0255	0.6702	0.5712	0.052
Mof_H 	H 	0.9068	0.3515	0.6963	0.098
Mof_H 	H 	0.1834	0.3593	0.5958	0.084
Mof_H 	H 	0.4022	0.7232	0.3208	0.123
Mof_H 	H 	0.3671	0.3573	0.4672	0.13
Mof_H 	H 	0.8089	0.5025	0.5941	0.079
Mof_H 	H 	0.3778	0.5363	0.5639	0.054
Mof_H 	H 	0.0978	0.2768	0.8208	0.125
Mof_H 	H 	0.5978	0.2768	0.6792	0.123
Mof_H 	H 	0.1911	0.4975	0.4059	0.079
Mof_H 	H 	0.1004	0.5298	0.728	0.061
Mof_H 	H 	0.8194	0.8211	0.1729	0.118
Mof_H 	H 	0.4683	0.2803	0.4355	0.128
Mof_H 	H 	0.0317	0.7197	0.9355	0.132
Mof_H 	H 	0.724	0.2105	0.4367	0.107
Mof_H 	H 	0.1057	0.1447	0.9956	0.096
Mof_H 	H 	0.6834	0.3593	0.9042	0.084
Mof_H 	H 	0.276	0.7895	0.5633	0.107
Mof_H 	H 	0.776	0.7895	0.9367	0.094
Mof_H 	H 	0.4068	0.3515	0.8037	0.098
Mof_H 	H 	0.1806	0.1789	0.8271	0.118
Mof_H 	H 	0.6004	0.5298	0.772	0.06
Mof_H 	H 	0.6911	0.4975	0.0941	0.079
Mof_H 	H 	0.3166	0.6407	0.0958	0.084
Mof_H 	H 	0.5255	0.6702	0.9288	0.052
Mof_H 	H 	0.5317	0.7197	0.5645	0.128
Mof_H 	H 	0.0932	0.6485	0.3037	0.098
Mof_H 	H 	0.5932	0.6485	0.1963	0.098
Mof_H 	H 	0.6222	0.4637	0.4361	0.054
Mof_H 	H 	0.8166	0.6407	0.4042	0.084
Mof_H 	H 	0.6806	0.1789	0.6729	0.116
Mof_H 	H 	0.1222	0.4637	0.0639	0.054
Mof_H 	H 	0.9022	0.7232	0.1792	0.125
Mof_H 	H 	0.8671	0.3573	0.0328	0.132
Mof_H 	H 	0.9683	0.2803	0.0645	0.132
Mof_H 	H 	0.6057	0.1447	0.5044	0.117
Mof_H 	H 	0.4745	0.3298	0.0712	0.052
Mof_H 	H 	0.6329	0.6427	0.5328	0.13
Mof_H 	H 	0.3089	0.5025	0.9059	0.079
Mof_H 	H 	0.8943	0.8553	0.0044	0.096
Mof_C 	C 	0.7318	0.6069	0.36907	-0.14
Mof_C 	C 	0.8841	0.4991	0.88806	-0.057
Mof_C 	C 	0.9827	0.5049	0.2363	-0.056
Mof_C 	C 	0.2783	0.3377	0.70155	0.195
Mof_C 	C 	0.7783	0.3377	0.79845	0.195
Mof_C 	C 	0.8689	0.2983	0.07194	-0.299
Mof_C 	C 	0.5173	0.4951	0.7363	-0.051
Mof_C 	C 	0.4904	0.4504	0.33535	0.097
Mof_C 	C 	0.6159	0.5009	0.38806	-0.058
Mof_C 	C 	0.786	0.8025	0.994	-0.238
Mof_C 	C 	0.1667	0.8616	0.4802	0.551
Mof_C 	C 	0.8686	0.3997	0.5138	0.129
Mof_C 	C 	0.3944	0.7942	0.29622	-0.247
Mof_C 	C 	0.2682	0.3931	0.63093	-0.14
Mof_C 	C 	0.5157	0.6019	0.9574	-0.076
Mof_C 	C 	0.8858	0.5014	0.556	-0.103
Mof_C 	C 	0.773	0.8117	0.55718	0.553
Mof_C 	C 	0.5984	0.6116	0.24461	-0.147
Mof_C 	C 	0.0578	0.8876	0.20589	0.502
Mof_C 	C 	0.4422	0.1124	0.70589	0.494
Mof_C 	C 	0.5578	0.8876	0.29411	0.494
Mof_C 	C 	0.5096	0.5496	0.66465	0.097
Mof_C 	C 	0.4843	0.3981	0.0426	-0.076
Mof_C 	C 	0.7217	0.6623	0.29845	0.195
Mof_C 	C 	0.9843	0.3981	0.4574	-0.077
Mof_C 	C 	0.286	0.8025	0.506	-0.284
Mof_C 	C 	0.1142	0.4986	0.444	-0.103
Mof_C 	C 	0.1311	0.7017	0.92806	-0.299
Mof_C 	C 	0.3333	0.1384	0.9802	0.522
Mof_C 	C 	0.9016	0.3884	0.74461	-0.142
Mof_C 	C 	0.3686	0.3997	0.9862	0.129
Mof_C 	C 	0.6311	0.7017	0.57194	-0.294
Mof_C 	C 	0.4016	0.3884	0.75539	-0.147
Mof_C 	C 	0.0173	0.4951	0.7637	-0.056
Mof_C 	C 	0.3858	0.5014	0.944	-0.103
Mof_C 	C 	0.273	0.8117	0.94282	0.562
Mof_C 	C 	0.6142	0.4986	0.056	-0.103
Mof_C 	C 	0.2318	0.6069	0.13093	-0.139
Mof_C 	C 	0.9422	0.1124	0.79411	0.502
Mof_C 	C 	0.4827	0.5049	0.2637	-0.051
Mof_C 	C 	0.227	0.1883	0.44282	0.553
Mof_C 	C 	0.714	0.1975	0.494	-0.284
Mof_C 	C 	0.2217	0.6623	0.20155	0.195
Mof_C 	C 	0.1056	0.2058	0.79622	-0.258
Mof_C 	C 	0.214	0.1975	0.006	-0.238
Mof_C 	C 	0.0096	0.5496	0.83535	0.096
Mof_C 	C 	0.9904	0.4504	0.16465	0.096
Mof_C 	C 	0.7682	0.3931	0.86907	-0.139
Mof_C 	C 	0.8944	0.7942	0.20378	-0.258
Mof_C 	C 	0.3841	0.4991	0.61194	-0.058
Mof_C 	C 	0.6667	0.8616	0.0198	0.522
Mof_C 	C 	0.0984	0.6116	0.25539	-0.142
Mof_C 	C 	0.727	0.1883	0.05718	0.562
Mof_C 	C 	0.8333	0.1384	0.5198	0.551
Mof_C 	C 	0.1314	0.6003	0.4862	0.129
Mof_C 	C 	0.6314	0.6003	0.0138	0.129
Mof_C 	C 	0.3689	0.2983	0.42806	-0.294
Mof_C 	C 	0.1159	0.5009	0.11194	-0.057
Mof_C 	C 	0.0157	0.6019	0.5426	-0.077
Mof_C 	C 	0.6056	0.2058	0.70378	-0.247
Mof_O 	O 	0.7329	0.3063	0.5322	-0.163
Mof_O 	O 	0.1422	0.9341	0.5263	-0.635
Mof_O 	O 	0.8683	0.34513	0.14954	-0.146
Mof_O 	O 	0.695	0.1718	0.98436	-0.576
Mof_O 	O 	0.8964	0.1602	0.58661	-0.518
Mof_O 	O 	0.3578	0.0659	0.0263	-0.626
Mof_O 	O 	0.1036	0.8398	0.41339	-0.518
Mof_O 	O 	0.1584	0.1247	0.38593	-0.552
Mof_O 	O 	0.8578	0.0659	0.4737	-0.635
Mof_O 	O 	0.2671	0.6937	0.4678	-0.163
Mof_O 	O 	0.8547	0.10266	0.85418	-0.53
Mof_O 	O 	0.1317	0.65487	0.85046	-0.146
Mof_O 	O 	0.3683	0.34513	0.35046	-0.148
Mof_O 	O 	0.805	0.8282	0.48436	-0.571
Mof_O 	O 	0.305	0.8282	0.01564	-0.576
Mof_O 	O 	0.6453	0.89734	0.35418	-0.53
Mof_O 	O 	0.6036	0.8398	0.08661	-0.516
Mof_O 	O 	0.6584	0.1247	0.11407	-0.551
Mof_O 	O 	0.1453	0.89734	0.14582	-0.53
Mof_O 	O 	0.8416	0.8753	0.61407	-0.552
Mof_O 	O 	0.7671	0.6937	0.0322	-0.176
Mof_O 	O 	0.4056	0.0501	0.7675	-0.537
Mof_O 	O 	0.9056	0.0501	0.7325	-0.532
Mof_O 	O 	0.839	0.77103	0.28508	-0.315
Mof_O 	O 	0.5944	0.9499	0.2325	-0.537
Mof_O 	O 	0.2329	0.3063	0.9678	-0.176
Mof_O 	O 	0.6317	0.65487	0.64954	-0.148
Mof_O 	O 	0.3964	0.1602	0.91339	-0.516
Mof_O 	O 	0.3416	0.8753	0.88593	-0.551
Mof_O 	O 	0.661	0.22897	0.78508	-0.315
Mof_O 	O 	0.6422	0.9341	0.9737	-0.626
Mof_O 	O 	0.0944	0.9499	0.2675	-0.532
Mof_O 	O 	0.3547	0.10266	0.64582	-0.53
Mof_O 	O 	0.339	0.77103	0.21492	-0.315
Mof_O 	O 	0.195	0.1718	0.51564	-0.571
Mof_O 	O 	0.161	0.22897	0.71492	-0.315
_end
