data_functionalizedCrystal
_audit_creation_method	'EQeq! by Chris Wilmer'
_symmetry_space_group_name_H-M	'P1'
_symmetry_Int_Tables_number	1
_symmetry_cell_setting	triclinic
loop_
_symmetry_equiv_pos_as_xyz
  x,y,z
_cell_length_a	16.616
_cell_length_b	23.3163
_cell_length_c	23.3163
_cell_angle_alpha	82.7059
_cell_angle_beta	69.1258
_cell_angle_gamma	69.1259
loop_
_atom_site_label
_atom_site_type_symbol
_atom_site_fract_x
_atom_site_fract_y
_atom_site_fract_z
_atom_site_charge
Mof_Cd	Cd	0.84977	0.08312	0.0444	0.265
Mof_Cd	Cd	0.97729	0.91688	0.9556	0.225
Mof_Cd	Cd	0.10583	0.0444	0.91688	0.233
Mof_Cd	Cd	0.06711	0.9556	0.08312	0.195
Mof_Cd	Cd	0.27271	0.5444	0.58312	0.236
Mof_Cd	Cd	0.40023	0.4556	0.41688	0.237
Mof_Cd	Cd	0.18289	0.41688	0.5444	0.235
Mof_Cd	Cd	0.14417	0.58312	0.4556	0.223
Mof_In	In	0.72502	0.95911	0.08029	1.419
Mof_In	In	0.97803	0.20658	0.00382	1.64
Mof_In	In	0.94151	0.11842	0.16856	1.538
Mof_In	In	0.70242	0.87877	0.23159	1.464
Mof_In	In	0.76442	0.04089	0.91971	1.499
Mof_In	In	0.18843	0.79342	0.99618	1.429
Mof_In	In	0.22849	0.88158	0.83144	1.485
Mof_In	In	0.81278	0.12123	0.76841	1.472
Mof_In	In	0.19469	0.08029	0.04089	1.548
Mof_In	In	0.01815	0.00382	0.79342	1.519
Mof_In	In	0.88993	0.16856	0.88158	1.533
Mof_In	In	0.06599	0.23159	0.12123	1.387
Mof_In	In	0.31587	0.91971	0.95911	1.376
Mof_In	In	0.81539	0.99618	0.20658	1.43
Mof_In	In	0.94007	0.83144	0.11842	1.534
Mof_In	In	0.41881	0.76841	0.87877	1.466
Mof_In	In	0.48558	0.58029	0.45911	1.504
Mof_In	In	0.06157	0.50382	0.70658	1.47
Mof_In	In	0.02151	0.66856	0.61842	1.414
Mof_In	In	0.43722	0.73159	0.37877	1.463
Mof_In	In	0.52498	0.41971	0.54089	1.504
Mof_In	In	0.27197	0.49618	0.29342	1.519
Mof_In	In	0.30849	0.33144	0.38158	1.495
Mof_In	In	0.54758	0.26841	0.62123	1.465
Mof_In	In	0.93413	0.54089	0.58029	1.546
Mof_In	In	0.43461	0.29342	0.50382	1.519
Mof_In	In	0.30993	0.38158	0.66856	1.493
Mof_In	In	0.83119	0.62123	0.73159	1.472
Mof_In	In	0.05531	0.45911	0.41971	1.461
Mof_In	In	0.23185	0.70658	0.49618	1.515
Mof_In	In	0.36007	0.61842	0.33144	1.495
Mof_In	In	0.18401	0.37877	0.26841	1.465
Mof_H 	H 	0.5294	0.925	0.3574	-0.009
Mof_H 	H 	0.8118	0.075	0.6426	0.004
Mof_H 	H 	0.1132	0.3574	0.075	-0.002
Mof_H 	H 	0.5456	0.6426	0.925	-0.008
Mof_H 	H 	0.4382	0.8574	0.425	-0.007
Mof_H 	H 	0.7206	0.1426	0.575	0.001
Mof_H 	H 	0.7044	0.575	0.8574	-0.005
Mof_H 	H 	0.1368	0.425	0.1426	-0.003
Mof_C 	C 	0.537	0.8855	0.3485	0.011
Mof_C 	C 	0.771	0.1145	0.6515	0.015
Mof_C 	C 	0.1145	0.3485	0.1145	0.01
Mof_C 	C 	0.5775	0.6515	0.8855	0.011
Mof_C 	C 	0.479	0.8485	0.3855	0.01
Mof_C 	C 	0.713	0.1515	0.6145	0.015
Mof_C 	C 	0.6725	0.6145	0.8485	0.011
Mof_C 	C 	0.1355	0.3855	0.1515	0.013
Mof_C 	C 	0.568	0.807	0.307	0.083
Mof_C 	C 	0.682	0.193	0.693	0.083
Mof_C 	C 	0.125	0.307	0.193	0.08
Mof_C 	C 	0.625	0.693	0.807	0.08
Mof_S 	S 	0.8712	0.1658	0.0878	-0.835
Mof_S 	S 	0.7433	0.0417	0.1277	-0.762
Mof_S 	S 	0.7801	0.1274	0.9632	-0.842
Mof_S 	S 	0.6216	0.9182	0.1598	-0.765
Mof_S 	S 	0.9635	0.1988	0.2114	-0.731
Mof_S 	S 	0.9109	0.2494	0.9248	-0.76
Mof_S 	S 	0.998	0.2881	0.0457	-0.722
Mof_S 	S 	0.1248	0.8342	0.9122	-0.837
Mof_S 	S 	0.9127	0.9583	0.8723	-0.845
Mof_S 	S 	0.8707	0.8726	0.0368	-0.787
Mof_S 	S 	0.6996	0.0818	0.8402	-0.769
Mof_S 	S 	0.3737	0.8012	0.7886	-0.765
Mof_S 	S 	0.0851	0.7506	0.0752	-0.715
Mof_S 	S 	0.3318	0.7119	0.9543	-0.753
Mof_S 	S 	0.041	0.0878	0.8342	-0.848
Mof_S 	S 	0.129	0.1277	0.9583	-0.9
Mof_S 	S 	0.2567	0.9632	0.8726	-0.824
Mof_S 	S 	0.2186	0.1598	0.0818	-0.758
Mof_S 	S 	0.8251	0.2114	0.8012	-0.765
Mof_S 	S 	0.1643	0.9248	0.7506	-0.755
Mof_S 	S 	0.9563	0.0457	0.7119	-0.713
Mof_S 	S 	0.963	0.9122	0.1658	-0.801
Mof_S 	S 	0.215	0.8723	0.0417	-0.773
Mof_S 	S 	0.0925	0.0368	0.1274	-0.821
Mof_S 	S 	0.4602	0.8402	0.9182	-0.766
Mof_S 	S 	0.8377	0.7886	0.1988	-0.757
Mof_S 	S 	0.8397	0.0752	0.2494	-0.684
Mof_S 	S 	0.7139	0.9543	0.2881	-0.75
Mof_S 	S 	0.1252	0.5878	0.6658	-0.815
Mof_S 	S 	0.3373	0.6277	0.5417	-0.827
Mof_S 	S 	0.3793	0.4632	0.6274	-0.817
Mof_S 	S 	0.5504	0.6598	0.4182	-0.765
Mof_S 	S 	0.8763	0.7114	0.6988	-0.737
Mof_S 	S 	0.1649	0.4248	0.7494	-0.731
Mof_S 	S 	0.9182	0.5457	0.7881	-0.726
Mof_S 	S 	0.3788	0.4122	0.3342	-0.82
Mof_S 	S 	0.5067	0.3723	0.4583	-0.823
Mof_S 	S 	0.4699	0.5368	0.3726	-0.811
Mof_S 	S 	0.6284	0.3402	0.5818	-0.764
Mof_S 	S 	0.2865	0.2886	0.3012	-0.759
Mof_S 	S 	0.3391	0.5752	0.2506	-0.72
Mof_S 	S 	0.252	0.4543	0.2119	-0.749
Mof_S 	S 	0.287	0.3342	0.5878	-0.824
Mof_S 	S 	0.035	0.4583	0.6277	-0.848
Mof_S 	S 	0.1575	0.3726	0.4632	-0.815
Mof_S 	S 	0.7898	0.5818	0.6598	-0.773
Mof_S 	S 	0.4123	0.3012	0.7114	-0.769
Mof_S 	S 	0.4103	0.2506	0.4248	-0.718
Mof_S 	S 	0.5361	0.2119	0.5457	-0.746
Mof_S 	S 	0.209	0.6658	0.4122	-0.829
Mof_S 	S 	0.121	0.5417	0.3723	-0.829
Mof_S 	S 	0.9933	0.6274	0.5368	-0.775
Mof_S 	S 	0.0314	0.4182	0.3402	-0.774
Mof_S 	S 	0.4249	0.6988	0.2886	-0.762
Mof_S 	S 	0.0857	0.7494	0.5752	-0.73
Mof_S 	S 	0.2937	0.7881	0.4543	-0.763
Mof_S 	S 	-0	0	-0	-0.444
Mof_S 	S 	0.25	0.5	0.5	-0.483
Mof_S 	S 	0.6592	0	-0	-0.642
Mof_S 	S 	0.3408	0	-0	-0.642
Mof_S 	S 	0.5908	0.5	0.5	-0.708
Mof_S 	S 	0.9092	0.5	0.5	-0.688
Mof_N 	N 	0.5993	0.8528	0.3006	-0.32
Mof_N 	N 	0.7527	0.1472	0.6994	-0.319
Mof_N 	N 	0.1001	0.3006	0.1472	-0.313
Mof_N 	N 	0.5479	0.6994	0.8528	-0.321
Mof_N 	N 	0.4973	0.8006	0.3528	-0.32
Mof_N 	N 	0.6507	0.1994	0.6472	-0.319
Mof_N 	N 	0.7021	0.6472	0.8006	-0.321
Mof_N 	N 	0.1499	0.3528	0.1994	-0.319
_end
