data_functionalizedCrystal
_audit_creation_method	'EQeq! by Chris Wilmer'
_symmetry_space_group_name_H-M	'P1'
_symmetry_Int_Tables_number	1
_symmetry_cell_setting	triclinic
loop_
_symmetry_equiv_pos_as_xyz
  x,y,z
_cell_length_a	25.856
_cell_length_b	25.856
_cell_length_c	25.856
_cell_angle_alpha	90
_cell_angle_beta	90
_cell_angle_gamma	90
loop_
_atom_site_label
_atom_site_type_symbol
_atom_site_fract_x
_atom_site_fract_y
_atom_site_fract_z
_atom_site_charge
Mof_Zn	Zn	0.2946	0.2946	0.2054	1.215
Mof_Zn	Zn	0.7054	0.7054	0.2054	1.215
Mof_Zn	Zn	0.2054	0.2054	0.2054	1.215
Mof_Zn	Zn	0.7054	0.2946	0.7946	1.215
Mof_Zn	Zn	0.2054	0.2946	0.2946	1.215
Mof_Zn	Zn	0.2946	0.7054	0.7946	1.215
Mof_Zn	Zn	0.2946	0.2054	0.2946	1.215
Mof_Zn	Zn	0.2054	0.7946	0.7946	1.215
Mof_Zn	Zn	0.2054	0.7054	0.7054	1.215
Mof_Zn	Zn	0.7946	0.7054	0.2946	1.215
Mof_Zn	Zn	0.7946	0.2054	0.7946	1.215
Mof_Zn	Zn	0.7946	0.2946	0.7054	1.215
Mof_Zn	Zn	0.7946	0.7946	0.2054	1.215
Mof_Zn	Zn	0.7054	0.2054	0.7054	1.215
Mof_Zn	Zn	0.2946	0.7946	0.7054	1.215
Mof_Zn	Zn	0.7054	0.7946	0.2946	1.215
Mof_Zn	Zn	0.2946	0.2946	0.7946	1.215
Mof_Zn	Zn	0.7054	0.7054	0.7946	1.215
Mof_Zn	Zn	0.7054	0.2054	0.2946	1.215
Mof_Zn	Zn	0.2054	0.7054	0.2946	1.215
Mof_Zn	Zn	0.2946	0.7054	0.2054	1.215
Mof_Zn	Zn	0.7054	0.2946	0.2054	1.215
Mof_Zn	Zn	0.2054	0.7946	0.2054	1.215
Mof_Zn	Zn	0.2946	0.2054	0.7054	1.215
Mof_Zn	Zn	0.2054	0.2054	0.7946	1.216
Mof_Zn	Zn	0.7054	0.7946	0.7054	1.216
Mof_Zn	Zn	0.2054	0.2946	0.7054	1.216
Mof_Zn	Zn	0.2946	0.7946	0.2946	1.216
Mof_Zn	Zn	0.7946	0.2946	0.2946	1.216
Mof_Zn	Zn	0.7946	0.7946	0.7946	1.216
Mof_Zn	Zn	0.7946	0.7054	0.7054	1.216
Mof_Zn	Zn	0.7946	0.2054	0.2054	1.216
Mof_O 	O 	0.25	0.25	0.25	-0.907
Mof_O 	O 	0.75	0.75	0.25	-0.907
Mof_O 	O 	0.75	0.25	0.75	-0.907
Mof_O 	O 	0.25	0.75	0.75	-0.907
Mof_O 	O 	0.25	0.25	0.75	-0.907
Mof_O 	O 	0.75	0.75	0.75	-0.907
Mof_O 	O 	0.75	0.25	0.25	-0.907
Mof_O 	O 	0.25	0.75	0.25	-0.907
Mof_O 	O 	0.2806	0.3661	0.2194	-0.512
Mof_C 	C 	0.2829	0.4733	0.2171	-0.002
Mof_H 	H 	0.3069	0.4525	0.1931	0.042
Mof_O 	O 	0.2806	0.8661	0.7194	-0.512
Mof_C 	C 	0.2829	0.9733	0.7171	-0.003
Mof_H 	H 	0.3069	0.9525	0.6931	0.042
Mof_O 	O 	0.7194	0.6339	0.2194	-0.512
Mof_C 	C 	0.7171	0.5267	0.2171	-0.002
Mof_H 	H 	0.6931	0.5475	0.1931	0.042
Mof_O 	O 	0.7194	0.1339	0.7194	-0.512
Mof_C 	C 	0.7171	0.0267	0.7171	-0.003
Mof_H 	H 	0.6931	0.0475	0.6931	0.042
Mof_O 	O 	0.2194	0.1339	0.2194	-0.512
Mof_C 	C 	0.2171	0.0267	0.2171	-0.003
Mof_H 	H 	0.1931	0.0475	0.1931	0.042
Mof_O 	O 	0.7194	0.3661	0.7806	-0.512
Mof_C 	C 	0.7171	0.4733	0.7829	-0.002
Mof_H 	H 	0.6931	0.4525	0.8069	0.042
Mof_O 	O 	0.7194	0.8661	0.2806	-0.512
Mof_C 	C 	0.7171	0.9733	0.2829	-0.003
Mof_H 	H 	0.6931	0.9525	0.3069	0.042
Mof_O 	O 	0.2194	0.3661	0.2806	-0.512
Mof_C 	C 	0.2171	0.4733	0.2829	-0.002
Mof_H 	H 	0.1931	0.4525	0.3069	0.042
Mof_O 	O 	0.2806	0.6339	0.7806	-0.512
Mof_C 	C 	0.2829	0.5267	0.7829	-0.002
Mof_H 	H 	0.3069	0.5475	0.8069	0.042
Mof_O 	O 	0.2806	0.1339	0.2806	-0.512
Mof_C 	C 	0.2829	0.0267	0.2829	-0.003
Mof_H 	H 	0.3069	0.0475	0.3069	0.042
Mof_O 	O 	0.2194	0.2806	0.3661	-0.512
Mof_C 	C 	0.2171	0.2829	0.4733	-0.002
Mof_H 	H 	0.1931	0.3069	0.4525	0.042
Mof_O 	O 	0.2194	0.7806	0.8661	-0.512
Mof_C 	C 	0.2171	0.7829	0.9733	-0.003
Mof_H 	H 	0.1931	0.8069	0.9525	0.042
Mof_O 	O 	0.2194	0.7194	0.6339	-0.512
Mof_C 	C 	0.2171	0.7171	0.5267	-0.002
Mof_H 	H 	0.1931	0.6931	0.5475	0.042
Mof_O 	O 	0.2194	0.2194	0.1339	-0.512
Mof_C 	C 	0.2171	0.2171	0.0267	-0.003
Mof_H 	H 	0.1931	0.1931	0.0475	0.042
Mof_O 	O 	0.7806	0.7194	0.3661	-0.512
Mof_C 	C 	0.7829	0.7171	0.4733	-0.002
Mof_H 	H 	0.8069	0.6931	0.4525	0.042
Mof_O 	O 	0.7806	0.2194	0.8661	-0.512
Mof_C 	C 	0.7829	0.2171	0.9733	-0.003
Mof_H 	H 	0.8069	0.1931	0.9525	0.042
Mof_O 	O 	0.2806	0.2194	0.3661	-0.512
Mof_C 	C 	0.2829	0.2171	0.4733	-0.002
Mof_H 	H 	0.3069	0.1931	0.4525	0.042
Mof_O 	O 	0.7806	0.2806	0.6339	-0.512
Mof_C 	C 	0.7829	0.2829	0.5267	-0.002
Mof_H 	H 	0.8069	0.3069	0.5475	0.042
Mof_O 	O 	0.7806	0.7806	0.1339	-0.512
Mof_C 	C 	0.7829	0.7829	0.0267	-0.003
Mof_H 	H 	0.8069	0.8069	0.0475	0.042
Mof_O 	O 	0.2806	0.2806	0.1339	-0.512
Mof_C 	C 	0.2829	0.2829	0.0267	-0.003
Mof_H 	H 	0.3069	0.3069	0.0475	0.042
Mof_O 	O 	0.3661	0.2194	0.2806	-0.512
Mof_C 	C 	0.4733	0.2171	0.2829	-0.002
Mof_H 	H 	0.4525	0.1931	0.3069	0.042
Mof_O 	O 	0.8661	0.2194	0.7806	-0.512
Mof_C 	C 	0.9733	0.2171	0.7829	-0.003
Mof_H 	H 	0.9525	0.1931	0.8069	0.042
Mof_O 	O 	0.6339	0.2194	0.7194	-0.512
Mof_C 	C 	0.5267	0.2171	0.7171	-0.002
Mof_H 	H 	0.5475	0.1931	0.6931	0.042
Mof_O 	O 	0.1339	0.2194	0.2194	-0.512
Mof_C 	C 	0.0267	0.2171	0.2171	-0.003
Mof_H 	H 	0.0475	0.1931	0.1931	0.042
Mof_O 	O 	0.3661	0.7806	0.7194	-0.512
Mof_C 	C 	0.4733	0.7829	0.7171	-0.002
Mof_H 	H 	0.4525	0.8069	0.6931	0.042
Mof_O 	O 	0.3661	0.2806	0.2194	-0.512
Mof_C 	C 	0.4733	0.2829	0.2171	-0.002
Mof_H 	H 	0.4525	0.3069	0.1931	0.042
Mof_O 	O 	0.8661	0.7806	0.2194	-0.512
Mof_C 	C 	0.9733	0.7829	0.2171	-0.003
Mof_H 	H 	0.9525	0.8069	0.1931	0.042
Mof_O 	O 	0.6339	0.7806	0.2806	-0.512
Mof_C 	C 	0.5267	0.7829	0.2829	-0.002
Mof_H 	H 	0.5475	0.8069	0.3069	0.042
Mof_O 	O 	0.1339	0.7806	0.7806	-0.512
Mof_C 	C 	0.0267	0.7829	0.7829	-0.003
Mof_H 	H 	0.0475	0.8069	0.8069	0.042
Mof_O 	O 	0.1339	0.2806	0.2806	-0.512
Mof_C 	C 	0.0267	0.2829	0.2829	-0.003
Mof_H 	H 	0.0475	0.3069	0.3069	0.042
Mof_O 	O 	0.3661	0.2806	0.7806	-0.512
Mof_C 	C 	0.4733	0.2829	0.7829	-0.002
Mof_H 	H 	0.4525	0.3069	0.8069	0.042
Mof_O 	O 	0.8661	0.2806	0.2806	-0.512
Mof_C 	C 	0.9733	0.2829	0.2829	-0.003
Mof_H 	H 	0.9525	0.3069	0.3069	0.042
Mof_O 	O 	0.6339	0.7194	0.7806	-0.512
Mof_C 	C 	0.5267	0.7171	0.7829	-0.002
Mof_H 	H 	0.5475	0.6931	0.8069	0.042
Mof_O 	O 	0.6339	0.2194	0.2806	-0.512
Mof_C 	C 	0.5267	0.2171	0.2829	-0.002
Mof_H 	H 	0.5475	0.1931	0.3069	0.042
Mof_O 	O 	0.1339	0.7194	0.2806	-0.512
Mof_C 	C 	0.0267	0.7171	0.2829	-0.003
Mof_H 	H 	0.0475	0.6931	0.3069	0.042
Mof_O 	O 	0.3661	0.7194	0.2194	-0.512
Mof_C 	C 	0.4733	0.7171	0.2171	-0.002
Mof_H 	H 	0.4525	0.6931	0.1931	0.042
Mof_O 	O 	0.8661	0.7194	0.7194	-0.512
Mof_C 	C 	0.9733	0.7171	0.7171	-0.003
Mof_H 	H 	0.9525	0.6931	0.6931	0.042
Mof_O 	O 	0.8661	0.2194	0.2194	-0.512
Mof_C 	C 	0.9733	0.2171	0.2171	-0.003
Mof_H 	H 	0.9525	0.1931	0.1931	0.042
Mof_O 	O 	0.6339	0.2806	0.2194	-0.512
Mof_C 	C 	0.5267	0.2829	0.2171	-0.002
Mof_H 	H 	0.5475	0.3069	0.1931	0.042
Mof_O 	O 	0.1339	0.2806	0.7194	-0.512
Mof_C 	C 	0.0267	0.2829	0.7171	-0.003
Mof_H 	H 	0.0475	0.3069	0.6931	0.042
Mof_O 	O 	0.2806	0.2194	0.6339	-0.512
Mof_C 	C 	0.2829	0.2171	0.5267	-0.002
Mof_H 	H 	0.3069	0.1931	0.5475	0.042
Mof_O 	O 	0.2806	0.7194	0.1339	-0.512
Mof_C 	C 	0.2829	0.7171	0.0267	-0.003
Mof_H 	H 	0.3069	0.6931	0.0475	0.042
Mof_O 	O 	0.7194	0.2194	0.3661	-0.512
Mof_C 	C 	0.7171	0.2171	0.4733	-0.002
Mof_H 	H 	0.6931	0.1931	0.4525	0.042
Mof_O 	O 	0.7194	0.7194	0.8661	-0.512
Mof_C 	C 	0.7171	0.7171	0.9733	-0.003
Mof_H 	H 	0.6931	0.6931	0.9525	0.042
Mof_O 	O 	0.2194	0.2194	0.8661	-0.512
Mof_C 	C 	0.2171	0.2171	0.9733	-0.003
Mof_H 	H 	0.1931	0.1931	0.9525	0.042
Mof_O 	O 	0.7194	0.7806	0.6339	-0.512
Mof_C 	C 	0.7171	0.7829	0.5267	-0.002
Mof_H 	H 	0.6931	0.8069	0.5475	0.042
Mof_O 	O 	0.7194	0.2806	0.1339	-0.512
Mof_C 	C 	0.7171	0.2829	0.0267	-0.003
Mof_H 	H 	0.6931	0.3069	0.0475	0.042
Mof_O 	O 	0.2194	0.2806	0.6339	-0.512
Mof_C 	C 	0.2171	0.2829	0.5267	-0.002
Mof_H 	H 	0.1931	0.3069	0.5475	0.042
Mof_O 	O 	0.2806	0.7806	0.3661	-0.512
Mof_C 	C 	0.2829	0.7829	0.4733	-0.002
Mof_H 	H 	0.3069	0.8069	0.4525	0.042
Mof_O 	O 	0.2806	0.2806	0.8661	-0.512
Mof_C 	C 	0.2829	0.2829	0.9733	-0.003
Mof_H 	H 	0.3069	0.3069	0.9525	0.042
Mof_O 	O 	0.2194	0.3661	0.7194	-0.512
Mof_C 	C 	0.2171	0.4733	0.7171	-0.002
Mof_H 	H 	0.1931	0.4525	0.6931	0.042
Mof_O 	O 	0.2194	0.8661	0.2194	-0.512
Mof_C 	C 	0.2171	0.9733	0.2171	-0.003
Mof_H 	H 	0.1931	0.9525	0.1931	0.042
Mof_O 	O 	0.2194	0.6339	0.2806	-0.512
Mof_C 	C 	0.2171	0.5267	0.2829	-0.002
Mof_H 	H 	0.1931	0.5475	0.3069	0.042
Mof_O 	O 	0.2194	0.1339	0.7806	-0.512
Mof_C 	C 	0.2171	0.0267	0.7829	-0.003
Mof_H 	H 	0.1931	0.0475	0.8069	0.042
Mof_O 	O 	0.7806	0.3661	0.2806	-0.512
Mof_C 	C 	0.7829	0.4733	0.2829	-0.002
Mof_H 	H 	0.8069	0.4525	0.3069	0.042
Mof_O 	O 	0.7806	0.8661	0.7806	-0.512
Mof_C 	C 	0.7829	0.9733	0.7829	-0.003
Mof_H 	H 	0.8069	0.9525	0.8069	0.042
Mof_O 	O 	0.2806	0.8661	0.2806	-0.512
Mof_C 	C 	0.2829	0.9733	0.2829	-0.003
Mof_H 	H 	0.3069	0.9525	0.3069	0.042
Mof_O 	O 	0.7806	0.6339	0.7194	-0.512
Mof_C 	C 	0.7829	0.5267	0.7171	-0.002
Mof_H 	H 	0.8069	0.5475	0.6931	0.042
Mof_O 	O 	0.7806	0.1339	0.2194	-0.512
Mof_C 	C 	0.7829	0.0267	0.2171	-0.003
Mof_H 	H 	0.8069	0.0475	0.1931	0.042
Mof_O 	O 	0.2806	0.6339	0.2194	-0.512
Mof_C 	C 	0.2829	0.5267	0.2171	-0.002
Mof_H 	H 	0.3069	0.5475	0.1931	0.042
Mof_O 	O 	0.7194	0.6339	0.7806	-0.512
Mof_C 	C 	0.7171	0.5267	0.7829	-0.002
Mof_H 	H 	0.6931	0.5475	0.8069	0.042
Mof_O 	O 	0.7194	0.1339	0.2806	-0.512
Mof_C 	C 	0.7171	0.0267	0.2829	-0.003
Mof_H 	H 	0.6931	0.0475	0.3069	0.042
Mof_O 	O 	0.2806	0.3661	0.7806	-0.512
Mof_C 	C 	0.2829	0.4733	0.7829	-0.002
Mof_H 	H 	0.3069	0.4525	0.8069	0.042
Mof_O 	O 	0.2806	0.1339	0.7194	-0.512
Mof_C 	C 	0.2829	0.0267	0.7171	-0.003
Mof_H 	H 	0.3069	0.0475	0.6931	0.042
Mof_O 	O 	0.7194	0.3661	0.2194	-0.512
Mof_C 	C 	0.7171	0.4733	0.2171	-0.002
Mof_H 	H 	0.6931	0.4525	0.1931	0.042
Mof_O 	O 	0.7194	0.8661	0.7194	-0.512
Mof_C 	C 	0.7171	0.9733	0.7171	-0.003
Mof_H 	H 	0.6931	0.9525	0.6931	0.042
Mof_O 	O 	0.7806	0.7194	0.6339	-0.512
Mof_C 	C 	0.7829	0.7171	0.5267	-0.002
Mof_H 	H 	0.8069	0.6931	0.5475	0.042
Mof_O 	O 	0.7806	0.2194	0.1339	-0.512
Mof_C 	C 	0.7829	0.2171	0.0267	-0.003
Mof_H 	H 	0.8069	0.1931	0.0475	0.042
Mof_O 	O 	0.7806	0.2806	0.3661	-0.512
Mof_C 	C 	0.7829	0.2829	0.4733	-0.002
Mof_H 	H 	0.8069	0.3069	0.4525	0.042
Mof_O 	O 	0.7806	0.7806	0.8661	-0.512
Mof_C 	C 	0.7829	0.7829	0.9733	-0.003
Mof_H 	H 	0.8069	0.8069	0.9525	0.042
Mof_O 	O 	0.2194	0.7806	0.1339	-0.512
Mof_C 	C 	0.2171	0.7829	0.0267	-0.003
Mof_H 	H 	0.1931	0.8069	0.0475	0.042
Mof_O 	O 	0.2194	0.7194	0.3661	-0.512
Mof_C 	C 	0.2171	0.7171	0.4733	-0.002
Mof_H 	H 	0.1931	0.6931	0.4525	0.042
Mof_O 	O 	0.6339	0.7806	0.7194	-0.512
Mof_C 	C 	0.5267	0.7829	0.7171	-0.002
Mof_H 	H 	0.5475	0.8069	0.6931	0.042
Mof_O 	O 	0.1339	0.7806	0.2194	-0.512
Mof_C 	C 	0.0267	0.7829	0.2171	-0.003
Mof_H 	H 	0.0475	0.8069	0.1931	0.042
Mof_O 	O 	0.3661	0.7806	0.2806	-0.512
Mof_C 	C 	0.4733	0.7829	0.2829	-0.002
Mof_H 	H 	0.4525	0.8069	0.3069	0.042
Mof_O 	O 	0.8661	0.7806	0.7806	-0.512
Mof_C 	C 	0.9733	0.7829	0.7829	-0.003
Mof_H 	H 	0.9525	0.8069	0.8069	0.042
Mof_O 	O 	0.1339	0.2194	0.7806	-0.512
Mof_C 	C 	0.0267	0.2171	0.7829	-0.003
Mof_H 	H 	0.0475	0.1931	0.8069	0.042
Mof_O 	O 	0.3661	0.2194	0.7194	-0.512
Mof_C 	C 	0.4733	0.2171	0.7171	-0.002
Mof_H 	H 	0.4525	0.1931	0.6931	0.042
Mof_O 	O 	0.6339	0.7194	0.2194	-0.512
Mof_C 	C 	0.5267	0.7171	0.2171	-0.002
Mof_H 	H 	0.5475	0.6931	0.1931	0.042
Mof_O 	O 	0.1339	0.7194	0.7194	-0.512
Mof_C 	C 	0.0267	0.7171	0.7171	-0.003
Mof_H 	H 	0.0475	0.6931	0.6931	0.042
Mof_O 	O 	0.8661	0.2806	0.7194	-0.512
Mof_C 	C 	0.9733	0.2829	0.7171	-0.003
Mof_H 	H 	0.9525	0.3069	0.6931	0.042
Mof_O 	O 	0.6339	0.2806	0.7806	-0.512
Mof_C 	C 	0.5267	0.2829	0.7829	-0.002
Mof_H 	H 	0.5475	0.3069	0.8069	0.042
Mof_O 	O 	0.3661	0.7194	0.7806	-0.512
Mof_C 	C 	0.4733	0.7171	0.7829	-0.002
Mof_H 	H 	0.4525	0.6931	0.8069	0.042
Mof_O 	O 	0.8661	0.7194	0.2806	-0.512
Mof_C 	C 	0.9733	0.7171	0.2829	-0.003
Mof_H 	H 	0.9525	0.6931	0.3069	0.042
Mof_O 	O 	0.7194	0.7806	0.3661	-0.512
Mof_C 	C 	0.7171	0.7829	0.4733	-0.002
Mof_H 	H 	0.6931	0.8069	0.4525	0.042
Mof_O 	O 	0.7194	0.2806	0.8661	-0.512
Mof_C 	C 	0.7171	0.2829	0.9733	-0.003
Mof_H 	H 	0.6931	0.3069	0.9525	0.042
Mof_O 	O 	0.2806	0.7806	0.6339	-0.512
Mof_C 	C 	0.2829	0.7829	0.5267	-0.002
Mof_H 	H 	0.3069	0.8069	0.5475	0.042
Mof_O 	O 	0.2806	0.7194	0.8661	-0.512
Mof_C 	C 	0.2829	0.7171	0.9733	-0.003
Mof_H 	H 	0.3069	0.6931	0.9525	0.042
Mof_O 	O 	0.7194	0.2194	0.6339	-0.512
Mof_C 	C 	0.7171	0.2171	0.5267	-0.002
Mof_H 	H 	0.6931	0.1931	0.5475	0.042
Mof_O 	O 	0.7194	0.7194	0.1339	-0.512
Mof_C 	C 	0.7171	0.7171	0.0267	-0.003
Mof_H 	H 	0.6931	0.6931	0.0475	0.042
Mof_O 	O 	0.7806	0.6339	0.2806	-0.512
Mof_C 	C 	0.7829	0.5267	0.2829	-0.002
Mof_H 	H 	0.8069	0.5475	0.3069	0.042
Mof_O 	O 	0.7806	0.1339	0.7806	-0.512
Mof_C 	C 	0.7829	0.0267	0.7829	-0.003
Mof_H 	H 	0.8069	0.0475	0.8069	0.042
Mof_O 	O 	0.7806	0.3661	0.7194	-0.512
Mof_C 	C 	0.7829	0.4733	0.7171	-0.002
Mof_H 	H 	0.8069	0.4525	0.6931	0.042
Mof_O 	O 	0.7806	0.8661	0.2194	-0.512
Mof_C 	C 	0.7829	0.9733	0.2171	-0.003
Mof_H 	H 	0.8069	0.9525	0.1931	0.042
Mof_O 	O 	0.2194	0.6339	0.7194	-0.512
Mof_C 	C 	0.2171	0.5267	0.7171	-0.002
Mof_H 	H 	0.1931	0.5475	0.6931	0.042
Mof_O 	O 	0.2194	0.8661	0.7806	-0.512
Mof_C 	C 	0.2171	0.9733	0.7829	-0.003
Mof_H 	H 	0.1931	0.9525	0.8069	0.042
Mof_C 	C 	0.25	0.3894	0.25	0.399
Mof_C 	C 	0.25	0.4449	0.25	-0.113
Mof_C 	C 	0.25	0.8894	0.75	0.399
Mof_C 	C 	0.25	0.9449	0.75	-0.113
Mof_C 	C 	0.75	0.6106	0.25	0.399
Mof_C 	C 	0.75	0.5551	0.25	-0.113
Mof_C 	C 	0.75	0.1106	0.75	0.399
Mof_C 	C 	0.75	0.0551	0.75	-0.113
Mof_C 	C 	0.25	0.1106	0.25	0.399
Mof_C 	C 	0.25	0.0551	0.25	-0.113
Mof_C 	C 	0.75	0.3894	0.75	0.399
Mof_C 	C 	0.75	0.4449	0.75	-0.113
Mof_C 	C 	0.75	0.8894	0.25	0.399
Mof_C 	C 	0.75	0.9449	0.25	-0.113
Mof_C 	C 	0.25	0.6106	0.75	0.399
Mof_C 	C 	0.25	0.5551	0.75	-0.113
Mof_C 	C 	0.25	0.25	0.3894	0.399
Mof_C 	C 	0.25	0.25	0.4449	-0.113
Mof_C 	C 	0.25	0.75	0.8894	0.399
Mof_C 	C 	0.25	0.75	0.9449	-0.113
Mof_C 	C 	0.25	0.75	0.6106	0.399
Mof_C 	C 	0.25	0.75	0.5551	-0.113
Mof_C 	C 	0.25	0.25	0.1106	0.399
Mof_C 	C 	0.25	0.25	0.0551	-0.113
Mof_C 	C 	0.75	0.75	0.3894	0.399
Mof_C 	C 	0.75	0.75	0.4449	-0.113
Mof_C 	C 	0.75	0.25	0.8894	0.399
Mof_C 	C 	0.75	0.25	0.9449	-0.113
Mof_C 	C 	0.75	0.25	0.6106	0.399
Mof_C 	C 	0.75	0.25	0.5551	-0.113
Mof_C 	C 	0.75	0.75	0.1106	0.399
Mof_C 	C 	0.75	0.75	0.0551	-0.113
Mof_C 	C 	0.3894	0.25	0.25	0.399
Mof_C 	C 	0.4449	0.25	0.25	-0.113
Mof_C 	C 	0.8894	0.25	0.75	0.399
Mof_C 	C 	0.9449	0.25	0.75	-0.113
Mof_C 	C 	0.6106	0.25	0.75	0.399
Mof_C 	C 	0.5551	0.25	0.75	-0.113
Mof_C 	C 	0.1106	0.25	0.25	0.399
Mof_C 	C 	0.0551	0.25	0.25	-0.113
Mof_C 	C 	0.3894	0.75	0.75	0.399
Mof_C 	C 	0.4449	0.75	0.75	-0.113
Mof_C 	C 	0.8894	0.75	0.25	0.399
Mof_C 	C 	0.9449	0.75	0.25	-0.113
Mof_C 	C 	0.6106	0.75	0.25	0.399
Mof_C 	C 	0.5551	0.75	0.25	-0.113
Mof_C 	C 	0.1106	0.75	0.75	0.399
Mof_C 	C 	0.0551	0.75	0.75	-0.113
Mof_C 	C 	0.3894	0.25	0.75	0.399
Mof_C 	C 	0.4449	0.25	0.75	-0.113
Mof_C 	C 	0.8894	0.25	0.25	0.399
Mof_C 	C 	0.9449	0.25	0.25	-0.113
Mof_C 	C 	0.6106	0.75	0.75	0.399
Mof_C 	C 	0.5551	0.75	0.75	-0.113
Mof_C 	C 	0.6106	0.25	0.25	0.399
Mof_C 	C 	0.5551	0.25	0.25	-0.113
Mof_C 	C 	0.1106	0.75	0.25	0.399
Mof_C 	C 	0.0551	0.75	0.25	-0.113
Mof_C 	C 	0.3894	0.75	0.25	0.399
Mof_C 	C 	0.4449	0.75	0.25	-0.113
Mof_C 	C 	0.8894	0.75	0.75	0.399
Mof_C 	C 	0.9449	0.75	0.75	-0.113
Mof_C 	C 	0.1106	0.25	0.75	0.399
Mof_C 	C 	0.0551	0.25	0.75	-0.113
Mof_C 	C 	0.25	0.25	0.6106	0.399
Mof_C 	C 	0.25	0.25	0.5551	-0.113
Mof_C 	C 	0.25	0.75	0.1106	0.399
Mof_C 	C 	0.25	0.75	0.0551	-0.113
Mof_C 	C 	0.75	0.25	0.3894	0.399
Mof_C 	C 	0.75	0.25	0.4449	-0.113
Mof_C 	C 	0.75	0.75	0.8894	0.399
Mof_C 	C 	0.75	0.75	0.9449	-0.113
Mof_C 	C 	0.25	0.25	0.8894	0.399
Mof_C 	C 	0.25	0.25	0.9449	-0.113
Mof_C 	C 	0.75	0.75	0.6106	0.399
Mof_C 	C 	0.75	0.75	0.5551	-0.113
Mof_C 	C 	0.75	0.25	0.1106	0.399
Mof_C 	C 	0.75	0.25	0.0551	-0.113
Mof_C 	C 	0.25	0.75	0.3894	0.399
Mof_C 	C 	0.25	0.75	0.4449	-0.113
Mof_C 	C 	0.25	0.3894	0.75	0.399
Mof_C 	C 	0.25	0.4449	0.75	-0.113
Mof_C 	C 	0.25	0.8894	0.25	0.399
Mof_C 	C 	0.25	0.9449	0.25	-0.113
Mof_C 	C 	0.25	0.6106	0.25	0.399
Mof_C 	C 	0.25	0.5551	0.25	-0.113
Mof_C 	C 	0.25	0.1106	0.75	0.399
Mof_C 	C 	0.25	0.0551	0.75	-0.113
Mof_C 	C 	0.75	0.3894	0.25	0.399
Mof_C 	C 	0.75	0.4449	0.25	-0.113
Mof_C 	C 	0.75	0.8894	0.75	0.399
Mof_C 	C 	0.75	0.9449	0.75	-0.113
Mof_C 	C 	0.75	0.6106	0.75	0.399
Mof_C 	C 	0.75	0.5551	0.75	-0.113
Mof_C 	C 	0.75	0.1106	0.25	0.399
Mof_C 	C 	0.75	0.0551	0.25	-0.113
_end
