data_functionalizedCrystal
_audit_creation_method	'EQeq! by Chris Wilmer'
_symmetry_space_group_name_H-M	'P1'
_symmetry_Int_Tables_number	1
_symmetry_cell_setting	triclinic
loop_
_symmetry_equiv_pos_as_xyz
  x,y,z
_cell_length_a	8.9088
_cell_length_b	8.9088
_cell_length_c	18.7815
_cell_angle_alpha	82.7786
_cell_angle_beta	82.7786
_cell_angle_gamma	70.178
loop_
_atom_site_label
_atom_site_type_symbol
_atom_site_fract_x
_atom_site_fract_y
_atom_site_fract_z
_atom_site_charge
Mof_V 	V 	0.46712	0.2235	0.08849	1.898
Mof_V 	V 	0.33361	0.20689	0.28294	1.878
Mof_V 	V 	0.7765	0.53288	0.41151	1.898
Mof_V 	V 	0.79311	0.66639	0.21706	1.877
Mof_V 	V 	0.53288	0.7765	0.91151	1.898
Mof_V 	V 	0.66639	0.79311	0.71706	1.878
Mof_V 	V 	0.2235	0.46712	0.58849	1.898
Mof_V 	V 	0.20689	0.33361	0.78294	1.877
Mof_P 	P 	0.17929	0.50041	0.17148	0.516
Mof_P 	P 	0.5989	0.83708	0.07392	0.501
Mof_P 	P 	0.49959	0.82071	0.32852	0.516
Mof_P 	P 	0.16292	0.4011	0.42608	0.502
Mof_P 	P 	0.82071	0.49959	0.82852	0.516
Mof_P 	P 	0.4011	0.16292	0.92608	0.501
Mof_P 	P 	0.50041	0.17929	0.67148	0.516
Mof_P 	P 	0.83708	0.5989	0.57392	0.502
Mof_H 	H 	0.1384	0.749	0.1077	0.137
Mof_H 	H 	0.1653	0.7575	0.1895	0.144
Mof_H 	H 	0.3683	0.9037	0.1524	0.117
Mof_H 	H 	0.3235	0.9101	0.072	0.137
Mof_H 	H 	0.4463	0.6221	0.164	0.022
Mof_H 	H 	0.4172	0.6216	0.0816	-0.002
Mof_H 	H 	0.501	0.089	0.196	2.4
Mof_H 	H 	0.251	0.8616	0.3923	0.137
Mof_H 	H 	0.2425	0.8347	0.3105	0.144
Mof_H 	H 	0.0963	0.6317	0.3476	0.117
Mof_H 	H 	0.0899	0.6765	0.428	0.137
Mof_H 	H 	0.3779	0.5537	0.336	0.022
Mof_H 	H 	0.3784	0.5828	0.4184	-0.002
Mof_H 	H 	0.911	0.499	0.304	2.399
Mof_H 	H 	0.8616	0.251	0.8923	0.137
Mof_H 	H 	0.8347	0.2425	0.8105	0.144
Mof_H 	H 	0.6317	0.0963	0.8476	0.117
Mof_H 	H 	0.6765	0.0899	0.928	0.137
Mof_H 	H 	0.5537	0.3779	0.836	0.022
Mof_H 	H 	0.5828	0.3784	0.9184	-0.002
Mof_H 	H 	0.499	0.911	0.804	2.4
Mof_H 	H 	0.749	0.1384	0.6077	0.137
Mof_H 	H 	0.7575	0.1653	0.6895	0.144
Mof_H 	H 	0.9037	0.3683	0.6524	0.117
Mof_H 	H 	0.9101	0.3235	0.572	0.137
Mof_H 	H 	0.6221	0.4463	0.664	0.022
Mof_H 	H 	0.6216	0.4172	0.5816	-0.002
Mof_H 	H 	0.089	0.501	0.696	2.399
Mof_C 	C 	0.20475	0.69275	0.14771	-0.359
Mof_C 	C 	0.39817	0.84697	0.10803	-0.393
Mof_C 	C 	0.37893	0.68193	0.12485	0.149
Mof_C 	C 	0.30725	0.79525	0.35229	-0.359
Mof_C 	C 	0.15303	0.60183	0.39197	-0.393
Mof_C 	C 	0.31807	0.62107	0.37515	0.149
Mof_C 	C 	0.79525	0.30725	0.85229	-0.359
Mof_C 	C 	0.60183	0.15303	0.89197	-0.393
Mof_C 	C 	0.62107	0.31807	0.87515	0.149
Mof_C 	C 	0.69275	0.20475	0.64771	-0.359
Mof_C 	C 	0.84697	0.39817	0.60803	-0.393
Mof_C 	C 	0.68193	0.37893	0.62485	0.149
Mof_O 	O 	0.61612	0.00172	0.07557	-0.515
Mof_O 	O 	0.63135	0.78555	0.99724	-0.488
Mof_O 	O 	0.58926	0.32106	0.06918	-0.533
Mof_O 	O 	0.4622	0.1506	0.1904	-3.285
Mof_O 	O 	0.26353	0.39395	0.11024	-0.414
Mof_O 	O 	0.25339	0.43299	0.24249	-0.456
Mof_O 	O 	0.17747	0.15747	0.27584	-0.542
Mof_O 	O 	0.00141	0.52151	0.1756	-0.505
Mof_O 	O 	0.71963	0.70979	0.11925	-0.485
Mof_O 	O 	0.5697	0.2697	0.30017	-0.187
Mof_O 	O 	0.99828	0.38388	0.42443	-0.516
Mof_O 	O 	0.21445	0.36865	0.50276	-0.489
Mof_O 	O 	0.67894	0.41074	0.43082	-0.533
Mof_O 	O 	0.8494	0.5378	0.3096	-3.285
Mof_O 	O 	0.60605	0.73647	0.38976	-0.414
Mof_O 	O 	0.56701	0.74661	0.25751	-0.456
Mof_O 	O 	0.84253	0.82253	0.22416	-0.543
Mof_O 	O 	0.47849	0.99859	0.3244	-0.506
Mof_O 	O 	0.29021	0.28037	0.38075	-0.485
Mof_O 	O 	0.7303	0.4303	0.19983	-0.188
Mof_O 	O 	0.38388	0.99828	0.92443	-0.515
Mof_O 	O 	0.36865	0.21445	0.00276	-0.488
Mof_O 	O 	0.41074	0.67894	0.93082	-0.533
Mof_O 	O 	0.5378	0.8494	0.8096	-3.285
Mof_O 	O 	0.73647	0.60605	0.88976	-0.414
Mof_O 	O 	0.74661	0.56701	0.75751	-0.456
Mof_O 	O 	0.82253	0.84253	0.72416	-0.542
Mof_O 	O 	0.99859	0.47849	0.8244	-0.505
Mof_O 	O 	0.28037	0.29021	0.88075	-0.485
Mof_O 	O 	0.4303	0.7303	0.69983	-0.187
Mof_O 	O 	0.00172	0.61612	0.57557	-0.516
Mof_O 	O 	0.78555	0.63135	0.49724	-0.489
Mof_O 	O 	0.32106	0.58926	0.56918	-0.533
Mof_O 	O 	0.1506	0.4622	0.6904	-3.285
Mof_O 	O 	0.39395	0.26353	0.61024	-0.414
Mof_O 	O 	0.43299	0.25339	0.74249	-0.456
Mof_O 	O 	0.15747	0.17747	0.77584	-0.543
Mof_O 	O 	0.52151	0.00141	0.6756	-0.506
Mof_O 	O 	0.70979	0.71963	0.61925	-0.485
Mof_O 	O 	0.2697	0.5697	0.80017	-0.188
Mof_H 	H 	0.6565	0.1849	0.4546	0.175
Mof_H 	H 	0.5066	0.2388	0.5029	0.161
Mof_H 	H 	0.5003	0.2017	0.4286	0.182
Mof_H 	H 	0.6327	0.9879	0.5376	0.049
Mof_H 	H 	0.6463	0.9435	0.4565	0.06
Mof_H 	H 	0.3435	0.8151	0.5454	0.175
Mof_H 	H 	0.4934	0.7612	0.4971	0.161
Mof_H 	H 	0.4997	0.7983	0.5714	0.182
Mof_H 	H 	0.3673	0.0121	0.4624	0.049
Mof_H 	H 	0.3537	0.0565	0.5435	0.06
Mof_C 	C 	0.5777	0.0147	0.49273	-0.01
Mof_C 	C 	0.4223	0.9853	0.50727	-0.01
Mof_N 	N 	0.5587	0.1739	0.46749	-0.349
Mof_N 	N 	0.4413	0.8261	0.53251	-0.349
Mof_H 	H 	0.8151	0.3435	0.0454	0.175
Mof_H 	H 	0.7612	0.4934	0.9971	0.162
Mof_H 	H 	0.7983	0.4997	0.0714	0.182
Mof_H 	H 	0.0121	0.3673	0.9624	0.049
Mof_H 	H 	0.0565	0.3537	0.0435	0.061
Mof_H 	H 	0.1849	0.6565	0.9546	0.175
Mof_H 	H 	0.2388	0.5066	0.0029	0.162
Mof_H 	H 	0.2017	0.5003	0.9286	0.182
Mof_H 	H 	0.9879	0.6327	0.0376	0.049
Mof_H 	H 	0.9435	0.6463	0.9565	0.061
Mof_C 	C 	0.9853	0.4223	0.00727	-0.012
Mof_C 	C 	0.0147	0.5777	0.99273	-0.012
Mof_N 	N 	0.8261	0.4413	0.03251	-0.349
Mof_N 	N 	0.1739	0.5587	0.96749	-0.349
_end
