data_functionalizedCrystal
_audit_creation_method	'EQeq! by Chris Wilmer'
_symmetry_space_group_name_H-M	'P1'
_symmetry_Int_Tables_number	1
_symmetry_cell_setting	triclinic
loop_
_symmetry_equiv_pos_as_xyz
  x,y,z
_cell_length_a	17.5608
_cell_length_b	20.8804
_cell_length_c	25.3474
_cell_angle_alpha	90
_cell_angle_beta	90
_cell_angle_gamma	90
loop_
_atom_site_label
_atom_site_type_symbol
_atom_site_fract_x
_atom_site_fract_y
_atom_site_fract_z
_atom_site_charge
Mof_Co	Co	0.49614	0.93507	0.31779	1.164
Mof_Co	Co	0.00386	0.43507	0.68221	1.164
Mof_Co	Co	0.49614	0.93507	0.18221	1.165
Mof_Co	Co	0.00386	0.43507	0.81779	1.165
Mof_Co	Co	0.38685	0.83537	0.25	1.179
Mof_Co	Co	0.11315	0.33537	0.75	1.179
Mof_H 	H 	0.7563	0.9704	0.3085	0.049
Mof_H 	H 	0.8758	0.9991	0.3358	0.054
Mof_H 	H 	0.7858	0.0429	0.4741	0.059
Mof_H 	H 	0.669	0.0055	0.4466	0.054
Mof_H 	H 	0.3071	0.0415	0.3834	0.023
Mof_H 	H 	0.1959	0.083	0.4179	0.074
Mof_H 	H 	0.0843	0.926	0.3776	0.078
Mof_H 	H 	0.1924	0.8876	0.3375	0.025
Mof_H 	H 	0.9315	0.2887	0.5695	0.022
Mof_H 	H 	0.9204	0.216	0.5057	0.078
Mof_H 	H 	0.088	0.1103	0.5701	0.078
Mof_H 	H 	0.0943	0.1849	0.6385	0.021
Mof_H 	H 	0.9829	0.9915	0.3791	0.071
Mof_H 	H 	0.1089	0.0897	0.4811	0.072
Mof_H 	H 	0.8806	0.1066	0.4798	0.074
Mof_H 	H 	0.7437	0.4704	0.6915	0.048
Mof_H 	H 	0.6242	0.4991	0.6642	0.057
Mof_H 	H 	0.7142	0.5429	0.5259	0.06
Mof_H 	H 	0.831	0.5055	0.5534	0.053
Mof_H 	H 	0.1929	0.5415	0.6166	0.022
Mof_H 	H 	0.3041	0.583	0.5821	0.074
Mof_H 	H 	0.4157	0.426	0.6224	0.079
Mof_H 	H 	0.3076	0.3876	0.6625	0.024
Mof_H 	H 	0.5685	0.7887	0.4305	0.022
Mof_H 	H 	0.5796	0.716	0.4943	0.079
Mof_H 	H 	0.412	0.6103	0.4299	0.079
Mof_H 	H 	0.4057	0.6849	0.3615	0.021
Mof_H 	H 	0.5171	0.4915	0.6209	0.072
Mof_H 	H 	0.3911	0.5897	0.5189	0.071
Mof_H 	H 	0.6194	0.6066	0.5202	0.073
Mof_H 	H 	0.7563	0.9704	0.1915	0.049
Mof_H 	H 	0.8758	0.9991	0.1642	0.054
Mof_H 	H 	0.7858	0.0429	0.0259	0.059
Mof_H 	H 	0.669	0.0055	0.0534	0.054
Mof_H 	H 	0.3071	0.0415	0.1166	0.023
Mof_H 	H 	0.1959	0.083	0.0821	0.074
Mof_H 	H 	0.0843	0.926	0.1224	0.078
Mof_H 	H 	0.1924	0.8876	0.1625	0.025
Mof_H 	H 	0.9315	0.2887	0.9305	0.022
Mof_H 	H 	0.9204	0.216	0.9943	0.078
Mof_H 	H 	0.088	0.1103	0.9299	0.078
Mof_H 	H 	0.0943	0.1849	0.8615	0.021
Mof_H 	H 	0.9829	0.9915	0.1209	0.071
Mof_H 	H 	0.1089	0.0897	0.0189	0.071
Mof_H 	H 	0.8806	0.1066	0.0202	0.074
Mof_H 	H 	0.7437	0.4704	0.8085	0.048
Mof_H 	H 	0.6242	0.4991	0.8358	0.057
Mof_H 	H 	0.7142	0.5429	0.9741	0.06
Mof_H 	H 	0.831	0.5055	0.9466	0.053
Mof_H 	H 	0.1929	0.5415	0.8834	0.022
Mof_H 	H 	0.3041	0.583	0.9179	0.074
Mof_H 	H 	0.4157	0.426	0.8776	0.079
Mof_H 	H 	0.3076	0.3876	0.8375	0.024
Mof_H 	H 	0.5685	0.7887	0.0695	0.021
Mof_H 	H 	0.5796	0.716	0.0057	0.079
Mof_H 	H 	0.412	0.6103	0.0701	0.079
Mof_H 	H 	0.4057	0.6849	0.1385	0.021
Mof_H 	H 	0.5171	0.4915	0.8791	0.072
Mof_H 	H 	0.3911	0.5897	0.9811	0.071
Mof_H 	H 	0.6194	0.6066	0.9798	0.073
Mof_C 	C 	0.6144	0.9715	0.3452	0.34
Mof_C 	C 	0.7014	0.9877	0.3733	-0.038
Mof_C 	C 	0.7625	0.9851	0.3429	-0.013
Mof_C 	C 	0.8344	0.0026	0.3585	-0.077
Mof_C 	C 	0.8426	0.0244	0.4064	0.018
Mof_C 	C 	0.78	0.027	0.44	-0.077
Mof_C 	C 	0.71	0.0064	0.4234	-0.009
Mof_C 	C 	0.3328	0.9314	0.3304	0.423
Mof_C 	C 	0.2614	0.9605	0.3581	-0.132
Mof_C 	C 	0.2622	0.018	0.3816	0.06
Mof_C 	C 	0.1957	0.0422	0.4032	-0.125
Mof_C 	C 	0.1285	0.0065	0.4034	0.055
Mof_C 	C 	0.1288	0.9501	0.3789	-0.127
Mof_C 	C 	0.1939	0.9265	0.3553	0.057
Mof_C 	C 	0.026	0.2947	0.652	0.418
Mof_C 	C 	0.0155	0.2459	0.6112	-0.154
Mof_C 	C 	0.9627	0.2526	0.5702	0.079
Mof_C 	C 	0.9557	0.2092	0.5325	-0.132
Mof_C 	C 	0.0012	0.1521	0.5317	0.052
Mof_C 	C 	0.055	0.1451	0.5705	-0.129
Mof_C 	C 	0.06	0.1914	0.6111	0.065
Mof_C 	C 	0.9213	0.0449	0.427	0.063
Mof_C 	C 	0.986	0.0205	0.4069	-0.123
Mof_C 	C 	0.0562	0.0368	0.426	0.05
Mof_C 	C 	0.0614	0.0788	0.4676	-0.116
Mof_C 	C 	0.996	0.105	0.4895	0.048
Mof_C 	C 	0.9251	0.0881	0.467	-0.122
Mof_C 	C 	0.8856	0.4715	0.6548	0.34
Mof_C 	C 	0.7986	0.4877	0.6267	-0.04
Mof_C 	C 	0.7375	0.4851	0.6571	-0.008
Mof_C 	C 	0.6656	0.5026	0.6415	-0.083
Mof_C 	C 	0.6574	0.5244	0.5936	0.021
Mof_C 	C 	0.72	0.527	0.56	-0.079
Mof_C 	C 	0.79	0.5064	0.5766	-0.007
Mof_C 	C 	0.1672	0.4314	0.6696	0.424
Mof_C 	C 	0.2386	0.4605	0.6419	-0.135
Mof_C 	C 	0.2378	0.518	0.6184	0.063
Mof_C 	C 	0.3043	0.5422	0.5968	-0.127
Mof_C 	C 	0.3715	0.5065	0.5966	0.058
Mof_C 	C 	0.3712	0.4501	0.6211	-0.131
Mof_C 	C 	0.3061	0.4265	0.6447	0.06
Mof_C 	C 	0.474	0.7947	0.348	0.418
Mof_C 	C 	0.4845	0.7459	0.3888	-0.154
Mof_C 	C 	0.5373	0.7526	0.4298	0.079
Mof_C 	C 	0.5443	0.7092	0.4675	-0.135
Mof_C 	C 	0.4988	0.6521	0.4683	0.056
Mof_C 	C 	0.445	0.6451	0.4295	-0.132
Mof_C 	C 	0.44	0.6914	0.3889	0.067
Mof_C 	C 	0.5787	0.5449	0.573	0.062
Mof_C 	C 	0.514	0.5205	0.5931	-0.126
Mof_C 	C 	0.4438	0.5368	0.574	0.05
Mof_C 	C 	0.4386	0.5788	0.5324	-0.114
Mof_C 	C 	0.504	0.605	0.5105	0.044
Mof_C 	C 	0.5749	0.5881	0.533	-0.12
Mof_C 	C 	0.6144	0.9715	0.1548	0.34
Mof_C 	C 	0.7014	0.9877	0.1267	-0.038
Mof_C 	C 	0.7625	0.9851	0.1571	-0.013
Mof_C 	C 	0.8344	0.0026	0.1415	-0.077
Mof_C 	C 	0.8426	0.0244	0.0936	0.018
Mof_C 	C 	0.78	0.027	0.06	-0.077
Mof_C 	C 	0.71	0.0064	0.0766	-0.009
Mof_C 	C 	0.3328	0.9314	0.1696	0.423
Mof_C 	C 	0.2614	0.9605	0.1419	-0.132
Mof_C 	C 	0.2622	0.018	0.1184	0.06
Mof_C 	C 	0.1957	0.0422	0.0968	-0.125
Mof_C 	C 	0.1285	0.0065	0.0966	0.055
Mof_C 	C 	0.1288	0.9501	0.1211	-0.127
Mof_C 	C 	0.1939	0.9265	0.1447	0.057
Mof_C 	C 	0.026	0.2947	0.848	0.419
Mof_C 	C 	0.0155	0.2459	0.8888	-0.155
Mof_C 	C 	0.9627	0.2526	0.9298	0.079
Mof_C 	C 	0.9557	0.2092	0.9675	-0.131
Mof_C 	C 	0.0012	0.1521	0.9683	0.051
Mof_C 	C 	0.055	0.1451	0.9295	-0.13
Mof_C 	C 	0.06	0.1914	0.8889	0.066
Mof_C 	C 	0.9213	0.0449	0.073	0.063
Mof_C 	C 	0.986	0.0205	0.0931	-0.124
Mof_C 	C 	0.0562	0.0368	0.074	0.05
Mof_C 	C 	0.0614	0.0788	0.0324	-0.115
Mof_C 	C 	0.996	0.105	0.0105	0.047
Mof_C 	C 	0.9251	0.0881	0.033	-0.122
Mof_C 	C 	0.8856	0.4715	0.8452	0.34
Mof_C 	C 	0.7986	0.4877	0.8733	-0.039
Mof_C 	C 	0.7375	0.4851	0.8429	-0.008
Mof_C 	C 	0.6656	0.5026	0.8585	-0.083
Mof_C 	C 	0.6574	0.5244	0.9064	0.021
Mof_C 	C 	0.72	0.527	0.94	-0.079
Mof_C 	C 	0.79	0.5064	0.9234	-0.007
Mof_C 	C 	0.1672	0.4314	0.8304	0.424
Mof_C 	C 	0.2386	0.4605	0.8581	-0.135
Mof_C 	C 	0.2378	0.518	0.8816	0.063
Mof_C 	C 	0.3043	0.5422	0.9032	-0.128
Mof_C 	C 	0.3715	0.5065	0.9034	0.058
Mof_C 	C 	0.3712	0.4501	0.8789	-0.131
Mof_C 	C 	0.3061	0.4265	0.8553	0.06
Mof_C 	C 	0.474	0.7947	0.152	0.418
Mof_C 	C 	0.4845	0.7459	0.1112	-0.154
Mof_C 	C 	0.5373	0.7526	0.0702	0.079
Mof_C 	C 	0.5443	0.7092	0.0325	-0.135
Mof_C 	C 	0.4988	0.6521	0.0317	0.056
Mof_C 	C 	0.445	0.6451	0.0705	-0.132
Mof_C 	C 	0.44	0.6914	0.1111	0.067
Mof_C 	C 	0.5787	0.5449	0.927	0.062
Mof_C 	C 	0.514	0.5205	0.9069	-0.126
Mof_C 	C 	0.4438	0.5368	0.926	0.05
Mof_C 	C 	0.4386	0.5788	0.9676	-0.114
Mof_C 	C 	0.504	0.605	0.9895	0.044
Mof_C 	C 	0.5749	0.5881	0.967	-0.12
Mof_O 	O 	0.5656	0.9835	0.3761	-0.398
Mof_O 	O 	0.6198	0.9329	0.3136	-0.404
Mof_O 	O 	0.3263	0.8844	0.30626	-0.488
Mof_O 	O 	0.3939	0.9652	0.3393	-0.467
Mof_O 	O 	0.0633	0.281	0.69142	-0.44
Mof_O 	O 	0.0001	0.3502	0.6421	-0.422
Mof_O 	O 	0.9344	0.4835	0.6239	-0.397
Mof_O 	O 	0.8802	0.4329	0.6864	-0.404
Mof_O 	O 	0.1737	0.3844	0.69374	-0.488
Mof_O 	O 	0.1061	0.4652	0.6607	-0.467
Mof_O 	O 	0.4367	0.781	0.30858	-0.44
Mof_O 	O 	0.4999	0.8502	0.3579	-0.422
Mof_O 	O 	0.5656	0.9835	0.1239	-0.398
Mof_O 	O 	0.6198	0.9329	0.1864	-0.404
Mof_O 	O 	0.3263	0.8844	0.19374	-0.488
Mof_O 	O 	0.3939	0.9652	0.1607	-0.467
Mof_O 	O 	0.0633	0.281	0.80858	-0.44
Mof_O 	O 	0.0001	0.3502	0.8579	-0.422
Mof_O 	O 	0.9344	0.4835	0.8761	-0.397
Mof_O 	O 	0.8802	0.4329	0.8136	-0.404
Mof_O 	O 	0.1737	0.3844	0.80626	-0.488
Mof_O 	O 	0.1061	0.4652	0.8393	-0.467
Mof_O 	O 	0.4367	0.781	0.19142	-0.44
Mof_O 	O 	0.4999	0.8502	0.1421	-0.422
Mof_O 	O 	0.4821	0.8943	0.25	-0.641
Mof_O 	O 	0.0179	0.3943	0.75	-0.641
Mof_Co	Co	0.50386	0.06493	0.81779	1.165
Mof_Co	Co	0.99614	0.56493	0.18221	1.165
Mof_Co	Co	0.50386	0.06493	0.68221	1.165
Mof_Co	Co	0.99614	0.56493	0.31779	1.165
Mof_Co	Co	0.61315	0.16463	0.75	1.179
Mof_Co	Co	0.88685	0.66463	0.25	1.179
Mof_H 	H 	0.2437	0.0296	0.8085	0.049
Mof_H 	H 	0.1242	0.0009	0.8358	0.054
Mof_H 	H 	0.2142	0.9571	0.9741	0.059
Mof_H 	H 	0.331	0.9945	0.9466	0.054
Mof_H 	H 	0.6929	0.9585	0.8834	0.023
Mof_H 	H 	0.8041	0.917	0.9179	0.074
Mof_H 	H 	0.9157	0.074	0.8776	0.078
Mof_H 	H 	0.8076	0.1124	0.8375	0.025
Mof_H 	H 	0.0685	0.7113	0.0695	0.022
Mof_H 	H 	0.0796	0.784	0.0057	0.078
Mof_H 	H 	0.912	0.8897	0.0701	0.078
Mof_H 	H 	0.9057	0.8151	0.1385	0.021
Mof_H 	H 	0.0171	0.0085	0.8791	0.071
Mof_H 	H 	0.8911	0.9103	0.9811	0.071
Mof_H 	H 	0.1194	0.8934	0.9798	0.074
Mof_H 	H 	0.2563	0.5296	0.1915	0.048
Mof_H 	H 	0.3758	0.5009	0.1642	0.057
Mof_H 	H 	0.2858	0.4571	0.0259	0.06
Mof_H 	H 	0.169	0.4945	0.0534	0.053
Mof_H 	H 	0.8071	0.4585	0.1166	0.022
Mof_H 	H 	0.6959	0.417	0.0821	0.074
Mof_H 	H 	0.5843	0.574	0.1224	0.079
Mof_H 	H 	0.6924	0.6124	0.1625	0.024
Mof_H 	H 	0.4315	0.2113	0.9305	0.021
Mof_H 	H 	0.4204	0.284	0.9943	0.079
Mof_H 	H 	0.588	0.3897	0.9299	0.079
Mof_H 	H 	0.5943	0.3151	0.8615	0.021
Mof_H 	H 	0.4829	0.5085	0.1209	0.072
Mof_H 	H 	0.6089	0.4103	0.0189	0.071
Mof_H 	H 	0.3806	0.3934	0.0202	0.073
Mof_H 	H 	0.2437	0.0296	0.6915	0.049
Mof_H 	H 	0.1242	0.0009	0.6642	0.054
Mof_H 	H 	0.2142	0.9571	0.5259	0.059
Mof_H 	H 	0.331	0.9945	0.5534	0.054
Mof_H 	H 	0.6929	0.9585	0.6166	0.023
Mof_H 	H 	0.8041	0.917	0.5821	0.074
Mof_H 	H 	0.9157	0.074	0.6224	0.078
Mof_H 	H 	0.8076	0.1124	0.6625	0.025
Mof_H 	H 	0.0685	0.7113	0.4305	0.022
Mof_H 	H 	0.0796	0.784	0.4943	0.078
Mof_H 	H 	0.912	0.8897	0.4299	0.078
Mof_H 	H 	0.9057	0.8151	0.3615	0.021
Mof_H 	H 	0.0171	0.0085	0.6209	0.071
Mof_H 	H 	0.8911	0.9103	0.5189	0.072
Mof_H 	H 	0.1194	0.8934	0.5202	0.074
Mof_H 	H 	0.2563	0.5296	0.3085	0.048
Mof_H 	H 	0.3758	0.5009	0.3358	0.057
Mof_H 	H 	0.2858	0.4571	0.4741	0.06
Mof_H 	H 	0.169	0.4945	0.4466	0.053
Mof_H 	H 	0.8071	0.4585	0.3834	0.022
Mof_H 	H 	0.6959	0.417	0.4179	0.074
Mof_H 	H 	0.5843	0.574	0.3776	0.079
Mof_H 	H 	0.6924	0.6124	0.3375	0.024
Mof_H 	H 	0.4315	0.2113	0.5695	0.022
Mof_H 	H 	0.4204	0.284	0.5057	0.079
Mof_H 	H 	0.588	0.3897	0.5701	0.079
Mof_H 	H 	0.5943	0.3151	0.6385	0.021
Mof_H 	H 	0.4829	0.5085	0.3791	0.072
Mof_H 	H 	0.6089	0.4103	0.4811	0.071
Mof_H 	H 	0.3806	0.3934	0.4798	0.073
Mof_C 	C 	0.3856	0.0285	0.8452	0.34
Mof_C 	C 	0.2986	0.0123	0.8733	-0.038
Mof_C 	C 	0.2375	0.0149	0.8429	-0.013
Mof_C 	C 	0.1656	0.9974	0.8585	-0.077
Mof_C 	C 	0.1574	0.9756	0.9064	0.018
Mof_C 	C 	0.22	0.973	0.94	-0.077
Mof_C 	C 	0.29	0.9936	0.9234	-0.009
Mof_C 	C 	0.6672	0.0686	0.8304	0.423
Mof_C 	C 	0.7386	0.0395	0.8581	-0.132
Mof_C 	C 	0.7378	0.982	0.8816	0.06
Mof_C 	C 	0.8043	0.9578	0.9032	-0.125
Mof_C 	C 	0.8715	0.9935	0.9034	0.055
Mof_C 	C 	0.8712	0.0499	0.8789	-0.127
Mof_C 	C 	0.8061	0.0735	0.8553	0.057
Mof_C 	C 	0.974	0.7053	0.152	0.419
Mof_C 	C 	0.9845	0.7541	0.1112	-0.155
Mof_C 	C 	0.0373	0.7474	0.0702	0.079
Mof_C 	C 	0.0443	0.7908	0.0325	-0.131
Mof_C 	C 	0.9988	0.8479	0.0317	0.051
Mof_C 	C 	0.945	0.8549	0.0705	-0.13
Mof_C 	C 	0.94	0.8086	0.1111	0.066
Mof_C 	C 	0.0787	0.9551	0.927	0.063
Mof_C 	C 	0.014	0.9795	0.9069	-0.124
Mof_C 	C 	0.9438	0.9632	0.926	0.05
Mof_C 	C 	0.9386	0.9212	0.9676	-0.115
Mof_C 	C 	0.004	0.895	0.9895	0.047
Mof_C 	C 	0.0749	0.9119	0.967	-0.122
Mof_C 	C 	0.1144	0.5285	0.1548	0.34
Mof_C 	C 	0.2014	0.5123	0.1267	-0.039
Mof_C 	C 	0.2625	0.5149	0.1571	-0.008
Mof_C 	C 	0.3344	0.4974	0.1415	-0.083
Mof_C 	C 	0.3426	0.4756	0.0936	0.021
Mof_C 	C 	0.28	0.473	0.06	-0.079
Mof_C 	C 	0.21	0.4936	0.0766	-0.007
Mof_C 	C 	0.8328	0.5686	0.1696	0.424
Mof_C 	C 	0.7614	0.5395	0.1419	-0.135
Mof_C 	C 	0.7622	0.482	0.1184	0.063
Mof_C 	C 	0.6957	0.4578	0.0968	-0.128
Mof_C 	C 	0.6285	0.4935	0.0966	0.058
Mof_C 	C 	0.6288	0.5499	0.1211	-0.131
Mof_C 	C 	0.6939	0.5735	0.1447	0.06
Mof_C 	C 	0.526	0.2053	0.848	0.418
Mof_C 	C 	0.5155	0.2541	0.8888	-0.154
Mof_C 	C 	0.4627	0.2474	0.9298	0.079
Mof_C 	C 	0.4557	0.2908	0.9675	-0.135
Mof_C 	C 	0.5012	0.3479	0.9683	0.056
Mof_C 	C 	0.555	0.3549	0.9295	-0.132
Mof_C 	C 	0.56	0.3086	0.8889	0.067
Mof_C 	C 	0.4213	0.4551	0.073	0.062
Mof_C 	C 	0.486	0.4795	0.0931	-0.126
Mof_C 	C 	0.5562	0.4632	0.074	0.05
Mof_C 	C 	0.5614	0.4212	0.0324	-0.114
Mof_C 	C 	0.496	0.395	0.0105	0.044
Mof_C 	C 	0.4251	0.4119	0.033	-0.12
Mof_C 	C 	0.3856	0.0285	0.6548	0.34
Mof_C 	C 	0.2986	0.0123	0.6267	-0.038
Mof_C 	C 	0.2375	0.0149	0.6571	-0.013
Mof_C 	C 	0.1656	0.9974	0.6415	-0.077
Mof_C 	C 	0.1574	0.9756	0.5936	0.018
Mof_C 	C 	0.22	0.973	0.56	-0.077
Mof_C 	C 	0.29	0.9936	0.5766	-0.009
Mof_C 	C 	0.6672	0.0686	0.6696	0.423
Mof_C 	C 	0.7386	0.0395	0.6419	-0.132
Mof_C 	C 	0.7378	0.982	0.6184	0.06
Mof_C 	C 	0.8043	0.9578	0.5968	-0.125
Mof_C 	C 	0.8715	0.9935	0.5966	0.055
Mof_C 	C 	0.8712	0.0499	0.6211	-0.127
Mof_C 	C 	0.8061	0.0735	0.6447	0.057
Mof_C 	C 	0.974	0.7053	0.348	0.418
Mof_C 	C 	0.9845	0.7541	0.3888	-0.154
Mof_C 	C 	0.0373	0.7474	0.4298	0.079
Mof_C 	C 	0.0443	0.7908	0.4675	-0.132
Mof_C 	C 	0.9988	0.8479	0.4683	0.052
Mof_C 	C 	0.945	0.8549	0.4295	-0.129
Mof_C 	C 	0.94	0.8086	0.3889	0.065
Mof_C 	C 	0.0787	0.9551	0.573	0.063
Mof_C 	C 	0.014	0.9795	0.5931	-0.123
Mof_C 	C 	0.9438	0.9632	0.574	0.05
Mof_C 	C 	0.9386	0.9212	0.5324	-0.116
Mof_C 	C 	0.004	0.895	0.5105	0.048
Mof_C 	C 	0.0749	0.9119	0.533	-0.122
Mof_C 	C 	0.1144	0.5285	0.3452	0.34
Mof_C 	C 	0.2014	0.5123	0.3733	-0.04
Mof_C 	C 	0.2625	0.5149	0.3429	-0.008
Mof_C 	C 	0.3344	0.4974	0.3585	-0.083
Mof_C 	C 	0.3426	0.4756	0.4064	0.021
Mof_C 	C 	0.28	0.473	0.44	-0.079
Mof_C 	C 	0.21	0.4936	0.4234	-0.007
Mof_C 	C 	0.8328	0.5686	0.3304	0.424
Mof_C 	C 	0.7614	0.5395	0.3581	-0.135
Mof_C 	C 	0.7622	0.482	0.3816	0.063
Mof_C 	C 	0.6957	0.4578	0.4032	-0.127
Mof_C 	C 	0.6285	0.4935	0.4034	0.058
Mof_C 	C 	0.6288	0.5499	0.3789	-0.131
Mof_C 	C 	0.6939	0.5735	0.3553	0.06
Mof_C 	C 	0.526	0.2053	0.652	0.418
Mof_C 	C 	0.5155	0.2541	0.6112	-0.154
Mof_C 	C 	0.4627	0.2474	0.5702	0.079
Mof_C 	C 	0.4557	0.2908	0.5325	-0.135
Mof_C 	C 	0.5012	0.3479	0.5317	0.056
Mof_C 	C 	0.555	0.3549	0.5705	-0.132
Mof_C 	C 	0.56	0.3086	0.6111	0.067
Mof_C 	C 	0.4213	0.4551	0.427	0.062
Mof_C 	C 	0.486	0.4795	0.4069	-0.126
Mof_C 	C 	0.5562	0.4632	0.426	0.05
Mof_C 	C 	0.5614	0.4212	0.4676	-0.114
Mof_C 	C 	0.496	0.395	0.4895	0.044
Mof_C 	C 	0.4251	0.4119	0.467	-0.12
Mof_O 	O 	0.4344	0.0165	0.8761	-0.398
Mof_O 	O 	0.3802	0.0671	0.8136	-0.404
Mof_O 	O 	0.6737	0.1156	0.80626	-0.488
Mof_O 	O 	0.6061	0.0348	0.8393	-0.467
Mof_O 	O 	0.9367	0.719	0.19142	-0.44
Mof_O 	O 	0.9999	0.6498	0.1421	-0.422
Mof_O 	O 	0.0656	0.5165	0.1239	-0.397
Mof_O 	O 	0.1198	0.5671	0.1864	-0.404
Mof_O 	O 	0.8263	0.6156	0.19374	-0.488
Mof_O 	O 	0.8939	0.5348	0.1607	-0.467
Mof_O 	O 	0.5633	0.219	0.80858	-0.44
Mof_O 	O 	0.5001	0.1498	0.8579	-0.422
Mof_O 	O 	0.4344	0.0165	0.6239	-0.398
Mof_O 	O 	0.3802	0.0671	0.6864	-0.404
Mof_O 	O 	0.6737	0.1156	0.69374	-0.488
Mof_O 	O 	0.6061	0.0348	0.6607	-0.467
Mof_O 	O 	0.9367	0.719	0.30858	-0.44
Mof_O 	O 	0.9999	0.6498	0.3579	-0.422
Mof_O 	O 	0.0656	0.5165	0.3761	-0.397
Mof_O 	O 	0.1198	0.5671	0.3136	-0.404
Mof_O 	O 	0.8263	0.6156	0.30626	-0.488
Mof_O 	O 	0.8939	0.5348	0.3393	-0.467
Mof_O 	O 	0.5633	0.219	0.69142	-0.44
Mof_O 	O 	0.5001	0.1498	0.6421	-0.422
Mof_O 	O 	0.5179	0.1057	0.75	-0.641
Mof_O 	O 	0.9821	0.6057	0.25	-0.641
_end
