data_functionalizedCrystal
_audit_creation_method	'EQeq! by Chris Wilmer'
_symmetry_space_group_name_H-M	'P1'
_symmetry_Int_Tables_number	1
_symmetry_cell_setting	triclinic
loop_
_symmetry_equiv_pos_as_xyz
  x,y,z
_cell_length_a	12.7956
_cell_length_b	12.7956
_cell_length_c	12.7956
_cell_angle_alpha	90
_cell_angle_beta	90
_cell_angle_gamma	90
loop_
_atom_site_label
_atom_site_type_symbol
_atom_site_fract_x
_atom_site_fract_y
_atom_site_fract_z
_atom_site_charge
Mof_N 	N 	0.64284	0.93734	0.95494	-0.01
Mof_N 	N 	0.72578	0.97966	0.96379	0.096
Mof_N 	N 	0.80774	0.01789	0.97022	-0.164
Mof_N 	N 	0.85716	0.06266	0.45494	-0.076
Mof_N 	N 	0.77422	0.02034	0.46379	-0.118
Mof_N 	N 	0.69226	0.98211	0.47022	-0.111
Mof_N 	N 	0.35716	0.43734	0.54506	-0.147
Mof_N 	N 	0.27422	0.47966	0.53621	-0.033
Mof_N 	N 	0.19226	0.51789	0.52978	-0.255
Mof_N 	N 	0.14284	0.56266	0.04506	-0.169
Mof_N 	N 	0.22578	0.52034	0.03621	-0.052
Mof_N 	N 	0.30774	0.48211	0.02978	-0.277
Mof_N 	N 	0.95494	0.64284	0.93734	-0.009
Mof_N 	N 	0.96379	0.72578	0.97966	0.096
Mof_N 	N 	0.97022	0.80774	0.01789	-0.164
Mof_N 	N 	0.45494	0.85716	0.06266	-0.076
Mof_N 	N 	0.46379	0.77422	0.02034	-0.118
Mof_N 	N 	0.47022	0.69226	0.98211	-0.111
Mof_N 	N 	0.54506	0.35716	0.43734	-0.147
Mof_N 	N 	0.53621	0.27422	0.47966	-0.033
Mof_N 	N 	0.52978	0.19226	0.51789	-0.255
Mof_N 	N 	0.04506	0.14284	0.56266	-0.169
Mof_N 	N 	0.03621	0.22578	0.52034	-0.052
Mof_N 	N 	0.02978	0.30774	0.48211	-0.277
Mof_N 	N 	0.93734	0.95494	0.64284	-0.009
Mof_N 	N 	0.97966	0.96379	0.72578	0.096
Mof_N 	N 	0.01789	0.97022	0.80774	-0.164
Mof_N 	N 	0.06266	0.45494	0.85716	-0.076
Mof_N 	N 	0.02034	0.46379	0.77422	-0.118
Mof_N 	N 	0.98211	0.47022	0.69226	-0.111
Mof_N 	N 	0.43734	0.54506	0.35716	-0.147
Mof_N 	N 	0.47966	0.53621	0.27422	-0.033
Mof_N 	N 	0.51789	0.52978	0.19226	-0.255
Mof_N 	N 	0.56266	0.04506	0.14284	-0.169
Mof_N 	N 	0.52034	0.03621	0.22578	-0.052
Mof_N 	N 	0.48211	0.02978	0.30774	-0.277
Mof_N 	N 	0.35716	0.06266	0.04506	-0.159
Mof_N 	N 	0.27422	0.02034	0.03621	-0.151
Mof_N 	N 	0.19226	0.98211	0.02978	-0.09
Mof_N 	N 	0.14284	0.93734	0.54506	-0.1
Mof_N 	N 	0.22578	0.97966	0.53621	0.072
Mof_N 	N 	0.30774	0.01789	0.52978	-0.341
Mof_N 	N 	0.64284	0.56266	0.45494	-0.135
Mof_N 	N 	0.72578	0.52034	0.46379	-0.025
Mof_N 	N 	0.80774	0.48211	0.47022	-0.203
Mof_N 	N 	0.85716	0.43734	0.95494	-0.006
Mof_N 	N 	0.77422	0.47966	0.96379	0.003
Mof_N 	N 	0.69226	0.51789	0.97022	-0.173
Mof_N 	N 	0.04506	0.35716	0.06266	-0.159
Mof_N 	N 	0.03621	0.27422	0.02034	-0.151
Mof_N 	N 	0.02978	0.19226	0.98211	-0.09
Mof_N 	N 	0.54506	0.14284	0.93734	-0.1
Mof_N 	N 	0.53621	0.22578	0.97966	0.072
Mof_N 	N 	0.52978	0.30774	0.01789	-0.341
Mof_N 	N 	0.45494	0.64284	0.56266	-0.135
Mof_N 	N 	0.46379	0.72578	0.52034	-0.025
Mof_N 	N 	0.47022	0.80774	0.48211	-0.203
Mof_N 	N 	0.95494	0.85716	0.43734	-0.006
Mof_N 	N 	0.96379	0.77422	0.47966	0.003
Mof_N 	N 	0.97022	0.69226	0.51789	-0.173
Mof_N 	N 	0.06266	0.04506	0.35716	-0.159
Mof_N 	N 	0.02034	0.03621	0.27422	-0.151
Mof_N 	N 	0.98211	0.02978	0.19226	-0.09
Mof_N 	N 	0.93734	0.54506	0.14284	-0.1
Mof_N 	N 	0.97966	0.53621	0.22578	0.072
Mof_N 	N 	0.01789	0.52978	0.30774	-0.341
Mof_N 	N 	0.56266	0.45494	0.64284	-0.135
Mof_N 	N 	0.52034	0.46379	0.72578	-0.025
Mof_N 	N 	0.48211	0.47022	0.80774	-0.203
Mof_N 	N 	0.43734	0.95494	0.85716	-0.006
Mof_N 	N 	0.47966	0.96379	0.77422	0.003
Mof_N 	N 	0.51789	0.97022	0.69226	-0.173
Mof_Fe	Fe	0.5	0	-0	0.323
Mof_Fe	Fe	1.8747e-33	6.02474e-33	0.5	0.323
Mof_Fe	Fe	0.5	0.5	0.5	0.715
Mof_Fe	Fe	-0	0.5	-0	0.323
Mof_Na	Na	-0	0	-0	0.879
Mof_Na	Na	0.5	6.02474e-33	0.5	1.769
Mof_Na	Na	1.8747e-33	0.5	0.5	1.769
Mof_Na	Na	0.5	0.5	-0	1.769
_end
