data_functionalizedCrystal
_audit_creation_method	'EQeq! by Chris Wilmer'
_symmetry_space_group_name_H-M	'P1'
_symmetry_Int_Tables_number	1
_symmetry_cell_setting	triclinic
loop_
_symmetry_equiv_pos_as_xyz
  x,y,z
_cell_length_a	12.935
_cell_length_b	14.3519
_cell_length_c	14.3519
_cell_angle_alpha	78.2832
_cell_angle_beta	63.2154
_cell_angle_gamma	63.2154
loop_
_atom_site_label
_atom_site_type_symbol
_atom_site_fract_x
_atom_site_fract_y
_atom_site_fract_z
_atom_site_charge
Mof_Cu	Cu	0.46437	0.39979	0.47697	0.902
Mof_Cu	Cu	0.34113	0.60021	0.52303	0.902
Mof_Cu	Cu	0.19134	0.02303	0.89979	0.901
Mof_Cu	Cu	0.11416	0.97697	0.10021	0.902
Mof_H 	H 	0.5885	0.7235	0.2959	0.016
Mof_H 	H 	0.7398	0.7715	0.1625	0.087
Mof_H 	H 	0.9744	0.4671	0.0993	0.087
Mof_H 	H 	0.8187	0.4224	0.2294	0.014
Mof_H 	H 	0.0388	0.5438	0.9308	0.049
Mof_H 	H 	0.1969	0.5843	0.7963	0.064
Mof_H 	H 	0.2167	0.7326	0.8132	0.046
Mof_H 	H 	0.9356	0.7814	0.0992	0.054
Mof_H 	H 	0.6079	0.2765	0.7041	0.016
Mof_H 	H 	0.6738	0.2285	0.8375	0.087
Mof_H 	H 	0.5408	0.5329	0.9007	0.088
Mof_H 	H 	0.4705	0.5776	0.7706	0.014
Mof_H 	H 	0.5134	0.4562	0.0692	0.05
Mof_H 	H 	0.5775	0.4157	0.2037	0.063
Mof_H 	H 	0.7625	0.2674	0.1868	0.045
Mof_H 	H 	0.8162	0.2186	0.9008	0.053
Mof_H 	H 	0.1344	0.2041	0.2235	0.019
Mof_H 	H 	0.1523	0.3375	0.2715	0.086
Mof_H 	H 	0.3237	0.4007	0.9671	0.084
Mof_H 	H 	0.2981	0.2706	0.9224	0.018
Mof_H 	H 	0.2196	0.5692	0.0438	0.051
Mof_H 	H 	0.2432	0.7037	0.0843	0.062
Mof_H 	H 	0.2799	0.6868	0.2326	0.046
Mof_H 	H 	0.2848	0.4008	0.2814	0.054
Mof_H 	H 	0.562	0.7959	0.7765	0.018
Mof_H 	H 	0.7613	0.6625	0.7285	0.085
Mof_H 	H 	0.6915	0.5993	0.0329	0.086
Mof_H 	H 	0.4911	0.7294	0.0776	0.016
Mof_H 	H 	0.8326	0.4308	0.9562	0.056
Mof_H 	H 	0.0312	0.2963	0.9157	0.057
Mof_H 	H 	0.1993	0.3132	0.7674	0.05
Mof_H 	H 	0.967	0.5992	0.7186	0.058
Mof_C 	C 	0.5902	0.5384	0.3628	0.412
Mof_C 	C 	0.6862	0.5675	0.2809	-0.17
Mof_C 	C 	0.666	0.6717	0.2567	0.086
Mof_C 	C 	0.7578	0.7009	0.1759	-0.152
Mof_C 	C 	0.8747	0.6277	0.1155	0.087
Mof_C 	C 	0.8969	0.5191	0.1383	-0.149
Mof_C 	C 	0.8034	0.4927	0.2175	0.083
Mof_C 	C 	0.9779	0.6515	0.0321	-0.025
Mof_C 	C 	0.0519	0.5996	0.9392	-0.028
Mof_C 	C 	0.145	0.6246	0.8566	-0.06
Mof_C 	C 	0.1575	0.7112	0.8676	-0.003
Mof_C 	C 	0.0826	0.7657	0.9587	-0.069
Mof_C 	C 	0.9896	0.7397	0.0399	-0.025
Mof_C 	C 	0.1034	0.8594	0.9746	0.37
Mof_C 	C 	0.4914	0.4616	0.6372	0.412
Mof_C 	C 	0.5346	0.4325	0.7191	-0.17
Mof_C 	C 	0.5944	0.3283	0.7433	0.085
Mof_C 	C 	0.6346	0.2991	0.8241	-0.152
Mof_C 	C 	0.6179	0.3723	0.8845	0.086
Mof_C 	C 	0.5543	0.4809	0.8617	-0.148
Mof_C 	C 	0.5136	0.5073	0.7825	0.083
Mof_C 	C 	0.6615	0.3485	0.9679	-0.022
Mof_C 	C 	0.5907	0.4004	0.0608	-0.033
Mof_C 	C 	0.6262	0.3754	0.1434	-0.059
Mof_C 	C 	0.7363	0.2888	0.1324	-0.003
Mof_C 	C 	0.807	0.2343	0.0413	-0.071
Mof_C 	C 	0.7692	0.2603	0.9601	-0.023
Mof_C 	C 	0.9374	0.1406	0.0254	0.367
Mof_C 	C 	0.203	0.1372	0.0384	0.413
Mof_C 	C 	0.2171	0.2191	0.0675	-0.163
Mof_C 	C 	0.1727	0.2433	0.1717	0.081
Mof_C 	C 	0.1837	0.3241	0.2009	-0.146
Mof_C 	C 	0.2402	0.3845	0.1277	0.081
Mof_C 	C 	0.2852	0.3617	0.0191	-0.138
Mof_C 	C 	0.2709	0.2825	0.9927	0.073
Mof_C 	C 	0.26	0.4679	0.1515	-0.017
Mof_C 	C 	0.2411	0.5608	0.0996	-0.036
Mof_C 	C 	0.2516	0.6434	0.1246	-0.056
Mof_C 	C 	0.2751	0.6324	0.2112	-0.004
Mof_C 	C 	0.2913	0.5413	0.2657	-0.071
Mof_C 	C 	0.2795	0.4601	0.2397	-0.023
Mof_C 	C 	0.328	0.5254	0.3594	0.37
Mof_C 	C 	0.3786	0.8628	0.9616	0.412
Mof_C 	C 	0.5037	0.7809	0.9325	-0.166
Mof_C 	C 	0.5877	0.7567	0.8283	0.081
Mof_C 	C 	0.7087	0.6759	0.7991	-0.146
Mof_C 	C 	0.7524	0.6155	0.8723	0.078
Mof_C 	C 	0.666	0.6383	0.9809	-0.143
Mof_C 	C 	0.5461	0.7175	0.0073	0.078
Mof_C 	C 	0.8794	0.5321	0.8485	-0.008
Mof_C 	C 	0.9015	0.4392	0.9004	-0.053
Mof_C 	C 	0.0196	0.3566	0.8754	-0.039
Mof_C 	C 	0.1187	0.3676	0.7888	-0.017
Mof_C 	C 	0.0983	0.4587	0.7343	-0.059
Mof_C 	C 	0.9793	0.5399	0.7603	-0.037
Mof_C 	C 	0.2128	0.4746	0.6406	0.366
Mof_O 	O 	0.5913	0.4522	0.368	-0.432
Mof_O 	O 	0.4974	0.6117	0.4265	-0.417
Mof_O 	O 	0.058	0.887	0.0646	-0.42
Mof_O 	O 	0.1605	0.8996	0.8944	-0.407
Mof_O 	O 	0.4115	0.5478	0.632	-0.431
Mof_O 	O 	0.5356	0.3883	0.5735	-0.418
Mof_O 	O 	0.0096	0.113	0.9354	-0.419
Mof_O 	O 	0.9545	0.1004	0.1056	-0.409
Mof_O 	O 	0.2093	0.132	0.9522	-0.433
Mof_O 	O 	0.1739	0.0735	0.1117	-0.415
Mof_O 	O 	0.3726	0.4354	0.387	-0.421
Mof_O 	O 	0.3049	0.6056	0.3996	-0.408
Mof_O 	O 	0.2935	0.868	0.0478	-0.432
Mof_O 	O 	0.3591	0.9265	0.8883	-0.417
Mof_O 	O 	0.195	0.5646	0.613	-0.42
Mof_O 	O 	0.3101	0.3944	0.6004	-0.407
_end
