data_functionalizedCrystal
_audit_creation_method	'EQeq! by Chris Wilmer'
_symmetry_space_group_name_H-M	'P1'
_symmetry_Int_Tables_number	1
_symmetry_cell_setting	triclinic
loop_
_symmetry_equiv_pos_as_xyz
  x,y,z
_cell_length_a	34.346
_cell_length_b	34.346
_cell_length_c	34.346
_cell_angle_alpha	90
_cell_angle_beta	90
_cell_angle_gamma	90
loop_
_atom_site_label
_atom_site_type_symbol
_atom_site_fract_x
_atom_site_fract_y
_atom_site_fract_z
_atom_site_charge
Mof_Cu	Cu	0.5	0.83363	-0	0.893
Mof_Cu	Cu	3.12561e-33	0.5	0.83363	0.893
Mof_Cu	Cu	-3.1145e-33	0.5	0.16637	0.892
Mof_Cu	Cu	-6.56612e-33	0.5	0.24283	0.895
Mof_Cu	Cu	0.75717	0	0.5	0.895
Mof_Cu	Cu	0.24283	0	0.5	0.895
Mof_Cu	Cu	2.83893e-33	0.5	0.75717	0.895
Mof_Cu	Cu	0.83363	0	0.5	0.893
Mof_Cu	Cu	0.5	0.24283	-0	0.895
Mof_Cu	Cu	0.5	0.75717	-0	0.895
Mof_Cu	Cu	0.5	0.16637	-0	0.892
Mof_Cu	Cu	0.16637	0	0.5	0.892
Mof_H 	H 	0.2656	0.1176	0.6493	0.066
Mof_H 	H 	0.2263	0.2616	0.8317	0.107
Mof_H 	H 	0.3507	0.2656	0.8824	0.067
Mof_H 	H 	0.5906	0.1473	0.0863	0.04
Mof_H 	H 	0.2616	0.1683	0.7737	0.106
Mof_H 	H 	0.2643	0.9234	0.5952	0.044
Mof_H 	H 	0.1273	0.6447	0.8514	0.067
Mof_H 	H 	0.8317	0.2263	0.7384	0.108
Mof_H 	H 	0.4048	0.7357	0.0766	0.041
Mof_H 	H 	0.9137	0.5906	0.1473	0.042
Mof_H 	H 	0.0766	0.4048	0.7357	0.041
Mof_H 	H 	0.8527	0.0863	0.4094	0.042
Mof_H 	H 	0.2616	0.1683	0.2263	0.105
Mof_H 	H 	0.8527	0.9137	0.5906	0.044
Mof_H 	H 	0.4094	0.1473	0.0863	0.04
Mof_H 	H 	0.5952	0.2643	0.9234	0.044
Mof_H 	H 	0.1176	0.6493	0.2656	0.066
Mof_H 	H 	0.8727	0.6447	0.8514	0.068
Mof_H 	H 	0.7737	0.7384	0.8317	0.108
Mof_H 	H 	0.6447	0.1486	0.8727	0.066
Mof_H 	H 	0.5952	0.2643	0.0766	0.041
Mof_H 	H 	0.0766	0.5952	0.7357	0.041
Mof_H 	H 	0.8317	0.7737	0.7384	0.108
Mof_H 	H 	0.0766	0.4048	0.2643	0.041
Mof_H 	H 	0.7384	0.1683	0.7737	0.107
Mof_H 	H 	0.8727	0.3553	0.8514	0.068
Mof_H 	H 	0.3553	0.8514	0.8727	0.068
Mof_H 	H 	0.1683	0.7737	0.2616	0.106
Mof_H 	H 	0.1473	0.9137	0.5906	0.042
Mof_H 	H 	0.8527	0.0863	0.5906	0.042
Mof_H 	H 	0.6447	0.8514	0.1273	0.067
Mof_H 	H 	0.1473	0.0863	0.4094	0.04
Mof_H 	H 	0.7384	0.8317	0.2263	0.108
Mof_H 	H 	0.2616	0.8317	0.7737	0.108
Mof_H 	H 	0.4094	0.1473	0.9137	0.042
Mof_H 	H 	0.1683	0.2263	0.2616	0.105
Mof_H 	H 	0.9234	0.5952	0.7357	0.044
Mof_H 	H 	0.2656	0.8824	0.6493	0.067
Mof_H 	H 	0.2263	0.7384	0.1683	0.106
Mof_H 	H 	0.4048	0.2643	0.0766	0.041
Mof_H 	H 	0.3553	0.1486	0.8727	0.066
Mof_H 	H 	0.8514	0.1273	0.3553	0.067
Mof_H 	H 	0.3507	0.2656	0.1176	0.066
Mof_H 	H 	0.6447	0.8514	0.8727	0.068
Mof_H 	H 	0.8514	0.8727	0.6447	0.068
Mof_H 	H 	0.0766	0.5952	0.2643	0.041
Mof_H 	H 	0.8824	0.3507	0.2656	0.067
Mof_H 	H 	0.9234	0.4048	0.7357	0.044
Mof_H 	H 	0.6493	0.7344	0.8824	0.068
Mof_H 	H 	0.7357	0.0766	0.5952	0.041
Mof_H 	H 	0.7344	0.8824	0.6493	0.068
Mof_H 	H 	0.7357	0.9234	0.4048	0.044
Mof_H 	H 	0.9234	0.4048	0.2643	0.043
Mof_H 	H 	0.8527	0.9137	0.4094	0.044
Mof_H 	H 	0.5906	0.1473	0.9137	0.042
Mof_H 	H 	0.5906	0.8527	0.9137	0.044
Mof_H 	H 	0.1273	0.3553	0.8514	0.067
Mof_H 	H 	0.1473	0.9137	0.4094	0.042
Mof_H 	H 	0.0863	0.4094	0.8527	0.042
Mof_H 	H 	0.0863	0.4094	0.1473	0.04
Mof_H 	H 	0.2643	0.9234	0.4048	0.043
Mof_H 	H 	0.4048	0.2643	0.9234	0.043
Mof_H 	H 	0.5952	0.7357	0.0766	0.041
Mof_H 	H 	0.1176	0.3507	0.2656	0.066
Mof_H 	H 	0.2643	0.0766	0.4048	0.041
Mof_H 	H 	0.6493	0.2656	0.8824	0.067
Mof_H 	H 	0.7737	0.7384	0.1683	0.107
Mof_H 	H 	0.1486	0.8727	0.6447	0.066
Mof_H 	H 	0.7344	0.1176	0.6493	0.066
Mof_H 	H 	0.2656	0.1176	0.3507	0.066
Mof_H 	H 	0.5952	0.7357	0.9234	0.044
Mof_H 	H 	0.8727	0.3553	0.1486	0.066
Mof_H 	H 	0.6447	0.1486	0.1273	0.065
Mof_H 	H 	0.8824	0.6493	0.2656	0.067
Mof_H 	H 	0.6493	0.2656	0.1176	0.066
Mof_H 	H 	0.8317	0.7737	0.2616	0.108
Mof_H 	H 	0.8824	0.6493	0.7344	0.068
Mof_H 	H 	0.1486	0.1273	0.6447	0.065
Mof_H 	H 	0.3507	0.7344	0.8824	0.067
Mof_H 	H 	0.7737	0.2616	0.8317	0.108
Mof_H 	H 	0.8824	0.3507	0.7344	0.067
Mof_H 	H 	0.4094	0.8527	0.9137	0.044
Mof_H 	H 	0.0863	0.5906	0.8527	0.042
Mof_H 	H 	0.4094	0.8527	0.0863	0.042
Mof_H 	H 	0.9234	0.5952	0.2643	0.044
Mof_H 	H 	0.2643	0.0766	0.5952	0.041
Mof_H 	H 	0.1683	0.2263	0.7384	0.106
Mof_H 	H 	0.9137	0.4094	0.8527	0.044
Mof_H 	H 	0.9137	0.4094	0.1473	0.042
Mof_H 	H 	0.2616	0.8317	0.2263	0.107
Mof_H 	H 	0.3553	0.1486	0.1273	0.065
Mof_H 	H 	0.1176	0.3507	0.7344	0.066
Mof_H 	H 	0.5906	0.8527	0.0863	0.042
Mof_H 	H 	0.1273	0.6447	0.1486	0.065
Mof_H 	H 	0.7357	0.9234	0.5952	0.044
Mof_H 	H 	0.7384	0.1683	0.2263	0.106
Mof_H 	H 	0.7357	0.0766	0.4048	0.041
Mof_H 	H 	0.8727	0.6447	0.1486	0.066
Mof_H 	H 	0.1473	0.0863	0.5906	0.04
Mof_H 	H 	0.8514	0.8727	0.3553	0.068
Mof_H 	H 	0.8514	0.1273	0.6447	0.067
Mof_H 	H 	0.2263	0.7384	0.8317	0.108
Mof_H 	H 	0.0863	0.5906	0.1473	0.04
Mof_H 	H 	0.3553	0.8514	0.1273	0.067
Mof_H 	H 	0.1273	0.3553	0.1486	0.065
Mof_H 	H 	0.2656	0.8824	0.3507	0.067
Mof_H 	H 	0.1486	0.1273	0.3553	0.065
Mof_H 	H 	0.1176	0.6493	0.7344	0.066
Mof_H 	H 	0.7384	0.8317	0.7737	0.108
Mof_H 	H 	0.7344	0.8824	0.3507	0.067
Mof_H 	H 	0.7737	0.2616	0.1683	0.106
Mof_H 	H 	0.4048	0.7357	0.9234	0.044
Mof_H 	H 	0.7344	0.1176	0.3507	0.066
Mof_H 	H 	0.6493	0.7344	0.1176	0.066
Mof_H 	H 	0.2263	0.2616	0.1683	0.105
Mof_H 	H 	0.8317	0.2263	0.2616	0.107
Mof_H 	H 	0.1486	0.8727	0.3553	0.066
Mof_H 	H 	0.3507	0.7344	0.1176	0.066
Mof_H 	H 	0.9137	0.5906	0.8527	0.044
Mof_H 	H 	0.1683	0.7737	0.7384	0.107
Mof_C 	C 	0.776	0.75464	0.1902	-0.206
Mof_C 	C 	0.44801	0.20387	0.05097	0.305
Mof_C 	C 	0.224	0.24536	0.1902	-0.205
Mof_C 	C 	0.74747	0.21466	0.80543	0.159
Mof_C 	C 	0.65218	0.20719	0.12638	0.046
Mof_C 	C 	0.17191	0.11705	0.36531	-0.096
Mof_C 	C 	0.17238	0.71603	0.21218	-0.084
Mof_C 	C 	0.82884	0.09261	0.39757	0.016
Mof_C 	C 	0.84815	0.3105	0.20644	0.011
Mof_C 	C 	0.88873	0.63743	0.24172	-0.094
Mof_C 	C 	0.28397	0.78782	0.82762	-0.084
Mof_C 	C 	0.0775	0.41232	0.79432	-0.073
Mof_C 	C 	0.78534	0.80543	0.25253	0.16
Mof_C 	C 	0.34782	0.79281	0.12638	0.047
Mof_C 	C 	0.17116	0.09261	0.39757	0.016
Mof_C 	C 	0.79613	0.05097	0.55199	0.305
Mof_C 	C 	0.79356	0.84815	0.3105	0.012
Mof_C 	C 	0.11127	0.63743	0.75828	-0.096
Mof_C 	C 	0.19457	0.74747	0.21466	0.158
Mof_C 	C 	0.20387	0.94903	0.44801	0.305
Mof_C 	C 	0.74747	0.78534	0.80543	0.161
Mof_C 	C 	0.80543	0.74747	0.21466	0.159
Mof_C 	C 	0.20387	0.05097	0.44801	0.305
Mof_C 	C 	0.21218	0.82762	0.71603	-0.084
Mof_C 	C 	0.82809	0.11705	0.36531	-0.096
Mof_C 	C 	0.39757	0.17116	0.09261	0.016
Mof_C 	C 	0.3105	0.20644	0.84815	0.011
Mof_C 	C 	0.39483	0.24096	0.08684	0.017
Mof_C 	C 	0.11127	0.63743	0.24172	-0.096
Mof_C 	C 	0.87362	0.65218	0.79281	0.047
Mof_C 	C 	0.20568	0.0775	0.58768	-0.074
Mof_C 	C 	0.6895	0.20644	0.84815	0.012
Mof_C 	C 	0.94903	0.55199	0.20387	0.305
Mof_C 	C 	0.91316	0.60517	0.75904	0.017
Mof_C 	C 	0.20644	0.15185	0.6895	0.01
Mof_C 	C 	0.63743	0.75828	0.88873	-0.094
Mof_C 	C 	0.75464	0.8098	0.776	-0.207
Mof_C 	C 	0.9225	0.41232	0.79432	-0.07
Mof_C 	C 	0.24172	0.11127	0.63743	-0.096
Mof_C 	C 	0.39483	0.75904	0.08684	0.017
Mof_C 	C 	0.88295	0.36531	0.82809	-0.094
Mof_C 	C 	0.25253	0.78534	0.80543	0.16
Mof_C 	C 	0.11705	0.36531	0.82809	-0.096
Mof_C 	C 	0.58768	0.79432	0.0775	-0.073
Mof_C 	C 	0.90739	0.60243	0.82884	0.016
Mof_C 	C 	0.75464	0.8098	0.224	-0.206
Mof_C 	C 	0.28397	0.21218	0.82762	-0.084
Mof_C 	C 	0.88873	0.36257	0.75828	-0.094
Mof_C 	C 	0.19457	0.25253	0.78534	0.158
Mof_C 	C 	0.12638	0.34782	0.79281	0.047
Mof_C 	C 	0.39757	0.17116	0.90739	0.015
Mof_C 	C 	0.63469	0.82809	0.88295	-0.094
Mof_C 	C 	0.41232	0.79432	0.9225	-0.07
Mof_C 	C 	0.0775	0.41232	0.20568	-0.074
Mof_C 	C 	0.60517	0.75904	0.08684	0.017
Mof_C 	C 	0.60517	0.24096	0.08684	0.017
Mof_C 	C 	0.24172	0.88873	0.63743	-0.094
Mof_C 	C 	0.60243	0.17116	0.90739	0.015
Mof_C 	C 	0.36257	0.75828	0.88873	-0.094
Mof_C 	C 	0.776	0.75464	0.8098	-0.207
Mof_C 	C 	0.65218	0.79281	0.12638	0.047
Mof_C 	C 	0.90739	0.39757	0.82884	0.016
Mof_C 	C 	0.11705	0.36531	0.17191	-0.096
Mof_C 	C 	0.84815	0.6895	0.20644	0.012
Mof_C 	C 	0.28397	0.78782	0.17238	-0.084
Mof_C 	C 	0.63469	0.17191	0.88295	-0.094
Mof_C 	C 	0.60517	0.24096	0.91316	0.017
Mof_C 	C 	0.15185	0.3105	0.79356	0.01
Mof_C 	C 	0.71603	0.78782	0.82762	-0.084
Mof_C 	C 	0.20568	0.9225	0.58768	-0.07
Mof_C 	C 	0.44801	0.79613	0.94903	0.305
Mof_C 	C 	0.05097	0.44801	0.20387	0.305
Mof_C 	C 	0.75904	0.08684	0.60517	0.017
Mof_C 	C 	0.63743	0.24172	0.88873	-0.094
Mof_C 	C 	0.1902	0.776	0.24536	-0.205
Mof_C 	C 	0.1902	0.224	0.24536	-0.205
Mof_C 	C 	0.74747	0.78534	0.19457	0.159
Mof_C 	C 	0.60243	0.82884	0.90739	0.016
Mof_C 	C 	0.41232	0.20568	0.9225	-0.071
Mof_C 	C 	0.60517	0.75904	0.91316	0.017
Mof_C 	C 	0.36257	0.24172	0.88873	-0.094
Mof_C 	C 	0.3105	0.79356	0.15185	0.01
Mof_C 	C 	0.58768	0.20568	0.0775	-0.074
Mof_C 	C 	0.21466	0.19457	0.25253	0.157
Mof_C 	C 	0.20719	0.12638	0.34782	0.046
Mof_C 	C 	0.80543	0.25253	0.21466	0.158
Mof_C 	C 	0.776	0.24536	0.8098	-0.206
Mof_C 	C 	0.94903	0.44801	0.79613	0.305
Mof_C 	C 	0.09261	0.39757	0.82884	0.016
Mof_C 	C 	0.79356	0.84815	0.6895	0.013
Mof_C 	C 	0.39483	0.75904	0.91316	0.017
Mof_C 	C 	0.20644	0.15185	0.3105	0.009
Mof_C 	C 	0.78782	0.17238	0.71603	-0.084
Mof_C 	C 	0.05097	0.44801	0.79613	0.305
Mof_C 	C 	0.60243	0.17116	0.09261	0.016
Mof_C 	C 	0.09261	0.60243	0.82884	0.016
Mof_C 	C 	0.75904	0.08684	0.39483	0.017
Mof_C 	C 	0.58768	0.79432	0.9225	-0.07
Mof_C 	C 	0.87362	0.65218	0.20719	0.047
Mof_C 	C 	0.44801	0.20387	0.94903	0.305
Mof_C 	C 	0.55199	0.20387	0.05097	0.305
Mof_C 	C 	0.20568	0.9225	0.41232	-0.071
Mof_C 	C 	0.17238	0.28397	0.21218	-0.084
Mof_C 	C 	0.80543	0.25253	0.78534	0.16
Mof_C 	C 	0.20387	0.94903	0.55199	0.305
Mof_C 	C 	0.79613	0.94903	0.55199	0.305
Mof_C 	C 	0.87362	0.34782	0.20719	0.046
Mof_C 	C 	0.17191	0.11705	0.63469	-0.096
Mof_C 	C 	0.28397	0.21218	0.17238	-0.084
Mof_C 	C 	0.41232	0.79432	0.0775	-0.073
Mof_C 	C 	0.1902	0.224	0.75464	-0.205
Mof_C 	C 	0.75828	0.88873	0.36257	-0.094
Mof_C 	C 	0.82762	0.28397	0.78782	-0.084
Mof_C 	C 	0.82809	0.88295	0.36531	-0.094
Mof_C 	C 	0.88873	0.63743	0.75828	-0.094
Mof_C 	C 	0.20568	0.0775	0.41232	-0.074
Mof_C 	C 	0.75904	0.91316	0.60517	0.017
Mof_C 	C 	0.3105	0.79356	0.84815	0.012
Mof_C 	C 	0.39757	0.82884	0.90739	0.016
Mof_C 	C 	0.24172	0.11127	0.36257	-0.096
Mof_C 	C 	0.24096	0.08684	0.39483	0.017
Mof_C 	C 	0.34782	0.20719	0.87362	0.046
Mof_C 	C 	0.05097	0.55199	0.79613	0.305
Mof_C 	C 	0.36257	0.24172	0.11127	-0.096
Mof_C 	C 	0.75828	0.11127	0.36257	-0.096
Mof_C 	C 	0.11705	0.63469	0.82809	-0.095
Mof_C 	C 	0.05097	0.55199	0.20387	0.305
Mof_C 	C 	0.75828	0.88873	0.63743	-0.094
Mof_C 	C 	0.71603	0.21218	0.17238	-0.084
Mof_C 	C 	0.0775	0.58768	0.20568	-0.074
Mof_C 	C 	0.63743	0.24172	0.11127	-0.096
Mof_C 	C 	0.36531	0.17191	0.11705	-0.096
Mof_C 	C 	0.19457	0.74747	0.78534	0.159
Mof_C 	C 	0.24096	0.91316	0.60517	0.017
Mof_C 	C 	0.15185	0.6895	0.79356	0.011
Mof_C 	C 	0.224	0.75464	0.1902	-0.205
Mof_C 	C 	0.41232	0.20568	0.0775	-0.074
Mof_C 	C 	0.44801	0.79613	0.05097	0.305
Mof_C 	C 	0.25253	0.21466	0.19457	0.157
Mof_C 	C 	0.08684	0.60517	0.24096	0.017
Mof_C 	C 	0.34782	0.79281	0.87362	0.047
Mof_C 	C 	0.55199	0.79613	0.05097	0.305
Mof_C 	C 	0.17116	0.90739	0.39757	0.015
Mof_C 	C 	0.8098	0.776	0.24536	-0.206
Mof_C 	C 	0.20387	0.05097	0.55199	0.305
Mof_C 	C 	0.88295	0.36531	0.17191	-0.094
Mof_C 	C 	0.20719	0.87362	0.34782	0.046
Mof_C 	C 	0.82884	0.90739	0.39757	0.016
Mof_C 	C 	0.58768	0.20568	0.9225	-0.07
Mof_C 	C 	0.21466	0.80543	0.74747	0.159
Mof_C 	C 	0.17191	0.88295	0.36531	-0.094
Mof_C 	C 	0.36257	0.75828	0.11127	-0.096
Mof_C 	C 	0.63469	0.17191	0.11705	-0.096
Mof_C 	C 	0.9225	0.58768	0.20568	-0.07
Mof_C 	C 	0.15185	0.3105	0.20644	0.009
Mof_C 	C 	0.82762	0.71603	0.78782	-0.084
Mof_C 	C 	0.24536	0.8098	0.224	-0.205
Mof_C 	C 	0.75464	0.1902	0.224	-0.205
Mof_C 	C 	0.776	0.24536	0.1902	-0.205
Mof_C 	C 	0.78534	0.80543	0.74747	0.161
Mof_C 	C 	0.9225	0.41232	0.20568	-0.071
Mof_C 	C 	0.88873	0.36257	0.24172	-0.094
Mof_C 	C 	0.24536	0.1902	0.776	-0.205
Mof_C 	C 	0.8098	0.224	0.75464	-0.206
Mof_C 	C 	0.71603	0.78782	0.17238	-0.084
Mof_C 	C 	0.90739	0.60243	0.17116	0.015
Mof_C 	C 	0.08684	0.39483	0.75904	0.017
Mof_C 	C 	0.82762	0.71603	0.21218	-0.084
Mof_C 	C 	0.90739	0.39757	0.17116	0.015
Mof_C 	C 	0.88295	0.63469	0.82809	-0.094
Mof_C 	C 	0.36531	0.82809	0.88295	-0.094
Mof_C 	C 	0.21218	0.17238	0.28397	-0.084
Mof_C 	C 	0.0775	0.58768	0.79432	-0.073
Mof_C 	C 	0.24172	0.88873	0.36257	-0.094
Mof_C 	C 	0.55199	0.20387	0.94903	0.305
Mof_C 	C 	0.78782	0.17238	0.28397	-0.084
Mof_C 	C 	0.8098	0.224	0.24536	-0.205
Mof_C 	C 	0.20719	0.87362	0.65218	0.047
Mof_C 	C 	0.63743	0.75828	0.11127	-0.096
Mof_C 	C 	0.82809	0.88295	0.63469	-0.094
Mof_C 	C 	0.79281	0.12638	0.34782	0.047
Mof_C 	C 	0.24096	0.91316	0.39483	0.017
Mof_C 	C 	0.21218	0.82762	0.28397	-0.084
Mof_C 	C 	0.78782	0.82762	0.28397	-0.084
Mof_C 	C 	0.75464	0.1902	0.776	-0.206
Mof_C 	C 	0.79432	0.9225	0.58768	-0.07
Mof_C 	C 	0.87362	0.34782	0.79281	0.047
Mof_C 	C 	0.79432	0.9225	0.41232	-0.07
Mof_C 	C 	0.20644	0.84815	0.6895	0.012
Mof_C 	C 	0.08684	0.60517	0.75904	0.017
Mof_C 	C 	0.09261	0.39757	0.17116	0.016
Mof_C 	C 	0.21466	0.80543	0.25253	0.158
Mof_C 	C 	0.39483	0.24096	0.91316	0.017
Mof_C 	C 	0.82809	0.11705	0.63469	-0.095
Mof_C 	C 	0.9225	0.58768	0.79432	-0.07
Mof_C 	C 	0.17238	0.71603	0.78782	-0.084
Mof_C 	C 	0.20719	0.12638	0.65218	0.046
Mof_C 	C 	0.09261	0.60243	0.17116	0.016
Mof_C 	C 	0.79613	0.05097	0.44801	0.305
Mof_C 	C 	0.12638	0.65218	0.79281	0.047
Mof_C 	C 	0.79356	0.15185	0.3105	0.01
Mof_C 	C 	0.24536	0.1902	0.224	-0.205
Mof_C 	C 	0.65218	0.79281	0.87362	0.047
Mof_C 	C 	0.78534	0.19457	0.74747	0.159
Mof_C 	C 	0.74747	0.21466	0.19457	0.158
Mof_C 	C 	0.15185	0.6895	0.20644	0.01
Mof_C 	C 	0.94903	0.55199	0.79613	0.305
Mof_C 	C 	0.224	0.24536	0.8098	-0.205
Mof_C 	C 	0.75828	0.11127	0.63743	-0.096
Mof_C 	C 	0.84815	0.6895	0.79356	0.013
Mof_C 	C 	0.36531	0.17191	0.88295	-0.094
Mof_C 	C 	0.79432	0.0775	0.41232	-0.073
Mof_C 	C 	0.78782	0.82762	0.71603	-0.084
Mof_C 	C 	0.224	0.75464	0.8098	-0.206
Mof_C 	C 	0.82884	0.09261	0.60243	0.016
Mof_C 	C 	0.79356	0.15185	0.6895	0.011
Mof_C 	C 	0.91316	0.60517	0.24096	0.017
Mof_C 	C 	0.91316	0.39483	0.75904	0.017
Mof_C 	C 	0.11127	0.36257	0.75828	-0.096
Mof_C 	C 	0.79432	0.0775	0.58768	-0.073
Mof_C 	C 	0.11705	0.63469	0.17191	-0.096
Mof_C 	C 	0.36531	0.82809	0.11705	-0.096
Mof_C 	C 	0.17116	0.90739	0.60243	0.015
Mof_C 	C 	0.11127	0.36257	0.24172	-0.096
Mof_C 	C 	0.17116	0.09261	0.60243	0.016
Mof_C 	C 	0.63469	0.82809	0.11705	-0.095
Mof_C 	C 	0.34782	0.20719	0.12638	0.046
Mof_C 	C 	0.39757	0.82884	0.09261	0.016
Mof_C 	C 	0.8098	0.776	0.75464	-0.207
Mof_C 	C 	0.79281	0.87362	0.34782	0.047
Mof_C 	C 	0.78534	0.19457	0.25253	0.158
Mof_C 	C 	0.82884	0.90739	0.60243	0.016
Mof_C 	C 	0.21218	0.17238	0.71603	-0.084
Mof_C 	C 	0.12638	0.34782	0.20719	0.046
Mof_C 	C 	0.6895	0.20644	0.15185	0.01
Mof_C 	C 	0.1902	0.776	0.75464	-0.206
Mof_C 	C 	0.82762	0.28397	0.21218	-0.084
Mof_C 	C 	0.6895	0.79356	0.84815	0.013
Mof_C 	C 	0.71603	0.21218	0.82762	-0.084
Mof_C 	C 	0.17191	0.88295	0.63469	-0.094
Mof_C 	C 	0.3105	0.20644	0.15185	0.009
Mof_C 	C 	0.94903	0.44801	0.20387	0.305
Mof_C 	C 	0.6895	0.79356	0.15185	0.011
Mof_C 	C 	0.79281	0.12638	0.65218	0.047
Mof_C 	C 	0.55199	0.79613	0.94903	0.305
Mof_C 	C 	0.84815	0.3105	0.79356	0.012
Mof_C 	C 	0.79281	0.87362	0.65218	0.047
Mof_C 	C 	0.25253	0.78534	0.19457	0.158
Mof_C 	C 	0.80543	0.74747	0.78534	0.161
Mof_C 	C 	0.17238	0.28397	0.78782	-0.084
Mof_C 	C 	0.24536	0.8098	0.776	-0.206
Mof_C 	C 	0.65218	0.20719	0.87362	0.047
Mof_C 	C 	0.08684	0.39483	0.24096	0.017
Mof_C 	C 	0.25253	0.21466	0.80543	0.158
Mof_C 	C 	0.12638	0.65218	0.20719	0.046
Mof_C 	C 	0.79613	0.94903	0.44801	0.305
Mof_C 	C 	0.24096	0.08684	0.60517	0.017
Mof_C 	C 	0.75904	0.91316	0.39483	0.017
Mof_C 	C 	0.20644	0.84815	0.3105	0.011
Mof_C 	C 	0.88295	0.63469	0.17191	-0.094
Mof_C 	C 	0.19457	0.25253	0.21466	0.157
Mof_C 	C 	0.21466	0.19457	0.74747	0.158
Mof_C 	C 	0.60243	0.82884	0.09261	0.016
Mof_C 	C 	0.91316	0.39483	0.24096	0.017
Mof_O 	O 	0.17049	0.03998	0.4591	-0.394
Mof_O 	O 	0.5409	0.17049	0.03998	-0.394
Mof_O 	O 	0.5405	0.76139	0.03964	-0.387
Mof_O 	O 	0.4595	0.23861	0.96036	-0.381
Mof_O 	O 	0.4595	0.76139	0.03964	-0.387
Mof_O 	O 	0.23861	0.96036	0.4595	-0.381
Mof_O 	O 	0.17049	0.96002	0.5409	-0.387
Mof_O 	O 	0.03964	0.5405	0.23861	-0.387
Mof_O 	O 	0.5405	0.23861	0.96036	-0.381
Mof_O 	O 	0.17049	0.03998	0.5409	-0.394
Mof_O 	O 	0.4591	0.17049	0.03998	-0.394
Mof_O 	O 	0.23861	0.96036	0.5405	-0.381
Mof_O 	O 	0.82951	0.03998	0.4591	-0.393
Mof_O 	O 	0.4595	0.23861	0.03964	-0.387
Mof_O 	O 	0.5409	0.82951	0.03998	-0.392
Mof_O 	O 	0.03964	0.5405	0.76139	-0.387
Mof_O 	O 	0.96002	0.5409	0.17049	-0.387
Mof_O 	O 	0.4591	0.82951	0.96002	-0.386
Mof_O 	O 	0.96036	0.5405	0.76139	-0.381
Mof_O 	O 	0.03998	0.5409	0.82951	-0.392
Mof_O 	O 	0.5405	0.76139	0.96036	-0.381
Mof_O 	O 	0.96036	0.4595	0.76139	-0.381
Mof_O 	O 	0.82951	0.03998	0.5409	-0.392
Mof_O 	O 	0.76139	0.03964	0.5405	-0.387
Mof_O 	O 	0.5405	0.23861	0.03964	-0.387
Mof_O 	O 	0.5409	0.82951	0.96002	-0.386
Mof_O 	O 	0.82951	0.96002	0.5409	-0.386
Mof_O 	O 	0.17049	0.96002	0.4591	-0.388
Mof_O 	O 	0.4591	0.17049	0.96002	-0.388
Mof_O 	O 	0.76139	0.96036	0.4595	-0.381
Mof_O 	O 	0.03998	0.5409	0.17049	-0.394
Mof_O 	O 	0.76139	0.96036	0.5405	-0.381
Mof_O 	O 	0.5409	0.17049	0.96002	-0.387
Mof_O 	O 	0.96002	0.4591	0.17049	-0.388
Mof_O 	O 	0.96002	0.4591	0.82951	-0.386
Mof_O 	O 	0.03998	0.4591	0.82951	-0.393
Mof_O 	O 	0.03998	0.4591	0.17049	-0.394
Mof_O 	O 	0.96002	0.5409	0.82951	-0.386
Mof_O 	O 	0.23861	0.03964	0.4595	-0.387
Mof_O 	O 	0.23861	0.03964	0.5405	-0.387
Mof_O 	O 	0.96036	0.5405	0.23861	-0.381
Mof_O 	O 	0.03964	0.4595	0.23861	-0.387
Mof_O 	O 	0.4595	0.76139	0.96036	-0.381
Mof_O 	O 	0.4591	0.82951	0.03998	-0.393
Mof_O 	O 	0.82951	0.96002	0.4591	-0.386
Mof_O 	O 	0.03964	0.4595	0.76139	-0.387
Mof_O 	O 	0.96036	0.4595	0.23861	-0.381
Mof_O 	O 	0.76139	0.03964	0.4595	-0.387
_end
