data_functionalizedCrystal
_audit_creation_method	'EQeq! by Chris Wilmer'
_symmetry_space_group_name_H-M	'P1'
_symmetry_Int_Tables_number	1
_symmetry_cell_setting	triclinic
loop_
_symmetry_equiv_pos_as_xyz
  x,y,z
_cell_length_a	10.329
_cell_length_b	16.0121
_cell_length_c	16.0121
_cell_angle_alpha	64.4914
_cell_angle_beta	77.583
_cell_angle_gamma	102.417
loop_
_atom_site_label
_atom_site_type_symbol
_atom_site_fract_x
_atom_site_fract_y
_atom_site_fract_z
_atom_site_charge
Mof_Mg	Mg	-0	0.5	-0	1.447
Mof_Mg	Mg	-3.89803e-17	0	0.5	1.446
Mof_Mg	Mg	0.5	0.5	0.5	1.452
Mof_H 	H 	0.1189	0.7394	0.8612	0.092
Mof_H 	H 	0.0331	0.8655	0.8103	-0.106
Mof_H 	H 	0.7976	0.8363	0.8813	0.214
Mof_H 	H 	0.4893	0.1781	0.229	0.06
Mof_H 	H 	0.2815	0.0532	0.3372	-0.046
Mof_H 	H 	0.1109	0.2378	0.3664	-0.02
Mof_H 	H 	0.3098	0.3672	0.2534	0.082
Mof_H 	H 	0.5382	0.6009	0.0593	0.414
Mof_H 	H 	0.5465	0.6889	0.961	0.434
Mof_H 	H 	0.5744	0.7073	0.0451	0.391
Mof_H 	H 	0.9801	0.8612	0.3994	0.047
Mof_H 	H 	0.8434	0.8103	0.3242	-0.021
Mof_H 	H 	0.6789	0.8813	0.2824	0.154
Mof_H 	H 	0.7183	0.229	0.5929	0.067
Mof_H 	H 	0.6187	0.3372	0.6096	-0.025
Mof_H 	H 	0.4773	0.3664	0.3958	-0.011
Mof_H 	H 	0.5632	0.2534	0.3794	0.084
Mof_H 	H 	0.5975	0.0593	0.3398	0.389
Mof_H 	H 	0.5075	0.961	0.3501	0.407
Mof_H 	H 	0.6195	0.0451	0.2476	0.361
Mof_H 	H 	0.3795	0.3994	0.7394	0.031
Mof_H 	H 	0.1676	0.3242	0.8655	-0.011
Mof_H 	H 	0.9613	0.2824	0.8363	0.163
Mof_H 	H 	0.3112	0.5929	0.1781	0.084
Mof_H 	H 	0.2283	0.6096	0.0532	-0.057
Mof_H 	H 	0.8731	0.3958	0.2378	-0.07
Mof_H 	H 	0.9426	0.3794	0.3672	0.185
Mof_H 	H 	0.9373	0.3398	0.6009	0.292
Mof_H 	H 	0.8576	0.3501	0.6889	0.275
Mof_H 	H 	0.8671	0.2476	0.7073	0.265
Mof_H 	H 	0.8811	0.2606	0.1388	-0.068
Mof_H 	H 	0.9669	0.1345	0.1897	0.14
Mof_H 	H 	0.2024	0.1637	0.1187	-0.004
Mof_H 	H 	0.5107	0.8219	0.771	0.07
Mof_H 	H 	0.7185	0.9468	0.6628	-0.009
Mof_H 	H 	0.8891	0.7622	0.6336	-0.001
Mof_H 	H 	0.6902	0.6328	0.7466	0.088
Mof_H 	H 	0.4618	0.3991	0.9407	0.159
Mof_H 	H 	0.4535	0.3111	0.039	0.115
Mof_H 	H 	0.4256	0.2927	0.9549	0.137
Mof_H 	H 	0.0199	0.1388	0.6006	-0.007
Mof_H 	H 	0.1566	0.1897	0.6758	0.024
Mof_H 	H 	0.3211	0.1187	0.7176	0.072
Mof_H 	H 	0.2817	0.771	0.4071	0.063
Mof_H 	H 	0.3813	0.6628	0.3904	-0.028
Mof_H 	H 	0.5227	0.6336	0.6042	-0.01
Mof_H 	H 	0.4368	0.7466	0.6206	0.087
Mof_H 	H 	0.4025	0.9407	0.6602	0.194
Mof_H 	H 	0.4925	0.039	0.6499	0.152
Mof_H 	H 	0.3805	0.9549	0.7524	0.177
Mof_H 	H 	0.6205	0.6006	0.2606	0.008
Mof_H 	H 	0.8324	0.6758	0.1345	0.017
Mof_H 	H 	0.0387	0.7176	0.1637	0.059
Mof_H 	H 	0.6888	0.4071	0.8219	0.049
Mof_H 	H 	0.7717	0.3904	0.9468	0.002
Mof_H 	H 	0.1269	0.6042	0.7622	0.043
Mof_H 	H 	0.0574	0.6206	0.6328	-0.004
Mof_H 	H 	0.0627	0.6602	0.3991	0.293
Mof_H 	H 	0.1424	0.6499	0.3111	0.286
Mof_H 	H 	0.1329	0.7524	0.2927	0.274
Mof_C 	C 	0.0226	0.726	0.888	-0.243
Mof_C 	C 	0.9723	0.802	0.8584	0.358
Mof_C 	C 	0.832	0.7844	0.8996	-0.502
Mof_C 	C 	0.741	0.6892	0.9688	0.539
Mof_C 	C 	0.797	0.6152	0.9953	-0.18
Mof_C 	C 	0.7142	0.5077	0.0669	0.099
Mof_C 	C 	0.5628	0.369	0.1643	0.072
Mof_C 	C 	0.4271	0.2881	0.2313	0.057
Mof_C 	C 	0.4138	0.1922	0.2563	-0.149
Mof_C 	C 	0.2883	0.1173	0.3221	0.073
Mof_C 	C 	0.1879	0.2254	0.3384	0.079
Mof_C 	C 	0.3078	0.3032	0.2719	-0.141
Mof_C 	C 	0.586	0.6699	0.0125	-1.286
Mof_C 	C 	0.9106	0.888	0.386	-0.08
Mof_C 	C 	0.8307	0.8584	0.3396	0.142
Mof_C 	C 	0.7316	0.8996	0.316	-0.368
Mof_C 	C 	0.7098	0.9688	0.342	0.457
Mof_C 	C 	0.7923	0.9953	0.3895	-0.146
Mof_C 	C 	0.7811	0.0669	0.4254	0.089
Mof_C 	C 	0.7271	0.1643	0.4667	0.073
Mof_C 	C 	0.6584	0.2313	0.4806	0.055
Mof_C 	C 	0.6701	0.2563	0.5515	-0.145
Mof_C 	C 	0.6104	0.3221	0.5606	0.075
Mof_C 	C 	0.5263	0.3384	0.4362	0.08
Mof_C 	C 	0.5797	0.2719	0.4249	-0.137
Mof_C 	C 	0.5985	0.0125	0.3176	-1.2
Mof_C 	C 	0.2966	0.386	0.726	-0.065
Mof_C 	C 	0.1703	0.3396	0.802	0.109
Mof_C 	C 	0.0476	0.316	0.7844	-0.338
Mof_C 	C 	0.0518	0.342	0.6892	0.298
Mof_C 	C 	0.1818	0.3895	0.6152	-0.127
Mof_C 	C 	0.2065	0.4254	0.5077	0.101
Mof_C 	C 	0.1938	0.4667	0.369	0.033
Mof_C 	C 	0.139	0.4806	0.2881	0.151
Mof_C 	C 	0.2216	0.5515	0.1922	-0.224
Mof_C 	C 	0.171	0.5606	0.1173	0.116
Mof_C 	C 	0.9625	0.4362	0.2254	0.264
Mof_C 	C 	0.0046	0.4249	0.3032	-0.363
Mof_C 	C 	0.9161	0.3176	0.6699	-0.809
Mof_C 	C 	0.9774	0.274	0.112	0.208
Mof_C 	C 	0.0277	0.198	0.1416	-0.295
Mof_C 	C 	0.168	0.2156	0.1004	0.021
Mof_C 	C 	0.259	0.3108	0.0312	0.047
Mof_C 	C 	0.203	0.3848	0.0047	-0.058
Mof_C 	C 	0.2858	0.4923	0.9331	0.11
Mof_C 	C 	0.4372	0.631	0.8357	0.068
Mof_C 	C 	0.5729	0.7119	0.7687	0.053
Mof_C 	C 	0.5862	0.8078	0.7437	-0.144
Mof_C 	C 	0.7117	0.8827	0.6779	0.076
Mof_C 	C 	0.8121	0.7746	0.6616	0.08
Mof_C 	C 	0.6922	0.6968	0.7281	-0.136
Mof_C 	C 	0.414	0.3301	0.9875	-0.371
Mof_C 	C 	0.0894	0.112	0.614	-0.007
Mof_C 	C 	0.1693	0.1416	0.6604	-0.011
Mof_C 	C 	0.2684	0.1004	0.684	-0.157
Mof_C 	C 	0.2902	0.0312	0.658	0.156
Mof_C 	C 	0.2077	0.0047	0.6105	-0.105
Mof_C 	C 	0.2189	0.9331	0.5746	0.123
Mof_C 	C 	0.2729	0.8357	0.5333	0.067
Mof_C 	C 	0.3416	0.7687	0.5194	0.055
Mof_C 	C 	0.3299	0.7437	0.4485	-0.148
Mof_C 	C 	0.3896	0.6779	0.4394	0.074
Mof_C 	C 	0.4737	0.6616	0.5638	0.08
Mof_C 	C 	0.4203	0.7281	0.5751	-0.14
Mof_C 	C 	0.4015	0.9875	0.6824	-0.492
Mof_C 	C 	0.7034	0.614	0.274	-0.019
Mof_C 	C 	0.8297	0.6604	0.198	0.018
Mof_C 	C 	0.9524	0.684	0.2156	-0.18
Mof_C 	C 	0.9482	0.658	0.3108	0.315
Mof_C 	C 	0.8182	0.6105	0.3848	-0.12
Mof_C 	C 	0.7935	0.5746	0.4923	0.107
Mof_C 	C 	0.8062	0.5333	0.631	0.103
Mof_C 	C 	0.861	0.5194	0.7119	-0.031
Mof_C 	C 	0.7784	0.4485	0.8078	-0.077
Mof_C 	C 	0.829	0.4394	0.8827	0.038
Mof_C 	C 	0.0375	0.5638	0.7746	-0.082
Mof_C 	C 	0.9954	0.5751	0.6968	0.061
Mof_C 	C 	0.0839	0.6824	0.3301	-0.887
Mof_N 	N 	0.93714	0.63132	0.9555	-0.151
Mof_N 	N 	0.78222	0.44132	0.08026	-0.265
Mof_N 	N 	0.68258	0.34988	0.14284	-0.107
Mof_N 	N 	0.57497	0.46529	0.11938	-0.158
Mof_N 	N 	0.17532	0.13082	0.36586	-0.281
Mof_N 	N 	0.89264	0.9555	0.41318	-0.195
Mof_N 	N 	0.86248	0.08026	0.47842	-0.26
Mof_N 	N 	0.82542	0.14284	0.50728	-0.103
Mof_N 	N 	0.69435	0.11938	0.41533	-0.154
Mof_N 	N 	0.54118	0.36586	0.50332	-0.268
Mof_N 	N 	0.30582	0.41318	0.63132	-0.217
Mof_N 	N 	0.3409	0.47842	0.44132	-0.262
Mof_N 	N 	0.3327	0.50728	0.34988	-0.104
Mof_N 	N 	0.10968	0.41533	0.46529	-0.152
Mof_N 	N 	0.0445	0.50332	0.13082	-0.332
Mof_N 	N 	0.06286	0.36868	0.0445	-0.305
Mof_N 	N 	0.21778	0.55868	0.91974	-0.257
Mof_N 	N 	0.31742	0.65012	0.85716	-0.107
Mof_N 	N 	0.42503	0.53471	0.88062	-0.139
Mof_N 	N 	0.82468	0.86918	0.63414	-0.256
Mof_N 	N 	0.10736	0.0445	0.58682	-0.247
Mof_N 	N 	0.13752	0.91974	0.52158	-0.262
Mof_N 	N 	0.17458	0.85716	0.49272	-0.111
Mof_N 	N 	0.30565	0.88062	0.58467	-0.144
Mof_N 	N 	0.45882	0.63414	0.49668	-0.269
Mof_N 	N 	0.69418	0.58682	0.36868	-0.227
Mof_N 	N 	0.6591	0.52158	0.55868	-0.263
Mof_N 	N 	0.6673	0.49272	0.65012	-0.111
Mof_N 	N 	0.89032	0.58467	0.53471	-0.145
Mof_N 	N 	0.9555	0.49668	0.86918	-0.212
_end
