data_functionalizedCrystal
_audit_creation_method	'EQeq! by Chris Wilmer'
_symmetry_space_group_name_H-M	'P1'
_symmetry_Int_Tables_number	1
_symmetry_cell_setting	triclinic
loop_
_symmetry_equiv_pos_as_xyz
  x,y,z
_cell_length_a	18.2959
_cell_length_b	18.2959
_cell_length_c	17.1099
_cell_angle_alpha	90
_cell_angle_beta	90
_cell_angle_gamma	90
loop_
_atom_site_label
_atom_site_type_symbol
_atom_site_fract_x
_atom_site_fract_y
_atom_site_fract_z
_atom_site_charge
Mof_C 	C 	0.72781	0.99943	0.49086	0.019
Mof_H 	H 	0.7561	0.9986	0.4443	0.059
Mof_C 	C 	0.708	0.0658	0.52423	-0.07
Mof_C 	C 	0.6666	0.06697	0.59236	-0.021
Mof_H 	H 	0.6531	0.1123	0.6152	0.067
Mof_C 	C 	0.64506	0.00177	0.62711	0.016
Mof_C 	C 	0.6649	0.9354	0.59374	-0.025
Mof_H 	H 	0.6501	0.8908	0.6175	0.061
Mof_C 	C 	0.70625	0.93423	0.52561	-0.068
Mof_C 	C 	0.4593	0.9458	0.9931	0.002
Mof_C 	C 	0.4659	0.8939	0.0531	0.027
Mof_C 	C 	0.49759	0.85607	0.18847	0.01
Mof_C 	C 	0.56432	0.83641	0.22111	-0.015
Mof_H 	H 	0.6086	0.8519	0.1973	0.06
Mof_C 	C 	0.56625	0.79412	0.28858	-0.085
Mof_C 	C 	0.50144	0.7715	0.3234	0.029
Mof_H 	H 	0.5028	0.7426	0.3695	0.054
Mof_C 	C 	0.43471	0.79117	0.29075	-0.082
Mof_C 	C 	0.43278	0.83345	0.22329	-0.019
Mof_H 	H 	0.3872	0.8469	0.201	0.062
Mof_C 	C 	0.5359	0.9341	0.94614	-0.009
Mof_C 	C 	0.5316	0.9827	0.00854	0.005
Mof_C 	C 	0.5137	0.95725	0.08277	-0.006
Mof_C 	C 	0.50022	0.88321	0.09461	-0.06
Mof_C 	C 	0.5045	0.8346	0.03221	-0.016
Mof_C 	C 	0.5224	0.86	0.95797	0.109
Mof_C 	C 	0.4929	0.9121	0.1273	0.045
Mof_C 	C 	0.5058	0.0114	0.1446	-0.003
Mof_C 	C 	0.6189	0.9996	0.7181	0.172
Mof_C 	C 	0.5446	0.9899	0.7319	0.027
Mof_C 	C 	0.5205	0.9683	0.8053	-0.023
Mof_C 	C 	0.5705	0.9564	0.8651	-0.018
Mof_C 	C 	0.6448	0.966	0.8513	0.13
Mof_C 	C 	0.669	0.9876	0.7779	-0.065
Mof_C 	C 	0.5784	0.0104	0.6844	-0.133
Mof_C 	C 	0.6074	0.0314	0.7578	-0.091
Mof_C 	C 	0.5526	0.0379	0.8171	0.051
Mof_Cu	Cu	0.71259	0.71276	0.46057	0.906
Mof_Cu	Cu	0.7876	0.78744	0.35466	0.905
Mof_C 	C 	0.366	0.7759	0.3308	0.349
Mof_C 	C 	0.6311	0.7769	0.3281	0.31
Mof_O 	O 	0.7628	0.869	0.4242	-0.415
Mof_C 	C 	0.724	0.8615	0.4839	0.378
Mof_O 	O 	0.6986	0.8064	0.5123	-0.421
Mof_O 	O 	0.8678	0.7633	0.4208	-0.419
Mof_C 	C 	0.7259	0.1369	0.4822	0.365
Mof_O 	O 	0.8071	0.6996	0.5116	-0.409
Mof_O 	O 	0.694	0.7996	0.2975	-0.366
Mof_O 	O 	0.3072	0.7987	0.2987	-0.387
Mof_O 	O 	0.3701	0.7379	0.3916	-0.401
Mof_O 	O 	0.6306	0.7384	0.3922	-0.383
Mof_O 	O 	0.4879	0.8152	0.901	-0.199
Mof_O 	O 	0.6896	0.9458	0.9148	-0.203
Mof_C 	C 	0.7673	0.947	0.9064	0.101
Mof_C 	C 	0.4958	0.7393	0.9044	0.094
Mof_C 	C 	0.426	0.711	0.859	-0.002
Mof_C 	C 	0.8143	0.893	0.874	-0.017
Mof_C 	C 	0.27219	0.00057	0.49086	0.016
Mof_H 	H 	0.2439	0.0014	0.4443	0.058
Mof_C 	C 	0.292	0.9342	0.52423	-0.069
Mof_C 	C 	0.3334	0.93303	0.59236	-0.024
Mof_H 	H 	0.3469	0.8877	0.6152	0.066
Mof_C 	C 	0.35494	0.99823	0.62711	0.018
Mof_C 	C 	0.3351	0.0646	0.59374	-0.028
Mof_H 	H 	0.3499	0.1092	0.6175	0.062
Mof_C 	C 	0.29375	0.06577	0.52561	-0.067
Mof_C 	C 	0.5407	0.0542	0.9931	-0.001
Mof_C 	C 	0.5341	0.1061	0.0531	0.037
Mof_C 	C 	0.50241	0.14393	0.18847	0.008
Mof_C 	C 	0.43568	0.16359	0.22111	-0.014
Mof_H 	H 	0.3914	0.1481	0.1973	0.06
Mof_C 	C 	0.43375	0.20588	0.28858	-0.086
Mof_C 	C 	0.49856	0.2285	0.3234	0.03
Mof_H 	H 	0.4972	0.2574	0.3695	0.054
Mof_C 	C 	0.56529	0.20883	0.29075	-0.082
Mof_C 	C 	0.56722	0.16655	0.22329	-0.018
Mof_H 	H 	0.6128	0.1531	0.201	0.061
Mof_C 	C 	0.4641	0.0659	0.94614	-0.008
Mof_C 	C 	0.4684	0.0173	0.00854	0.007
Mof_C 	C 	0.4863	0.04275	0.08277	-0.013
Mof_C 	C 	0.49978	0.11679	0.09461	-0.079
Mof_C 	C 	0.4955	0.1654	0.03221	-0.012
Mof_C 	C 	0.4776	0.14	0.95797	0.107
Mof_C 	C 	0.5071	0.0879	0.1273	0.061
Mof_C 	C 	0.4942	0.9886	0.1446	-0.016
Mof_C 	C 	0.3811	0.0004	0.7181	0.15
Mof_C 	C 	0.4554	0.0101	0.7319	0.018
Mof_C 	C 	0.4795	0.0317	0.8053	-0.019
Mof_C 	C 	0.4295	0.0436	0.8651	-0.018
Mof_C 	C 	0.3552	0.034	0.8513	0.128
Mof_C 	C 	0.331	0.0124	0.7779	-0.062
Mof_C 	C 	0.4216	0.9896	0.6844	-0.117
Mof_C 	C 	0.3926	0.9686	0.7578	-0.077
Mof_C 	C 	0.4474	0.9621	0.8171	0.048
Mof_Cu	Cu	0.28741	0.28724	0.46057	0.906
Mof_Cu	Cu	0.2124	0.21256	0.35466	0.905
Mof_C 	C 	0.634	0.2241	0.3308	0.349
Mof_C 	C 	0.3689	0.2231	0.3281	0.311
Mof_O 	O 	0.2372	0.131	0.4242	-0.415
Mof_C 	C 	0.276	0.1385	0.4839	0.378
Mof_O 	O 	0.3014	0.1936	0.5123	-0.421
Mof_O 	O 	0.1322	0.2367	0.4208	-0.42
Mof_C 	C 	0.2741	0.8631	0.4822	0.365
Mof_O 	O 	0.1929	0.3004	0.5116	-0.409
Mof_O 	O 	0.306	0.2004	0.2975	-0.366
Mof_O 	O 	0.6928	0.2013	0.2987	-0.387
Mof_O 	O 	0.6299	0.2621	0.3916	-0.401
Mof_O 	O 	0.3694	0.2616	0.3922	-0.383
Mof_O 	O 	0.5121	0.1848	0.901	-0.199
Mof_O 	O 	0.3104	0.0542	0.9148	-0.203
Mof_C 	C 	0.2327	0.053	0.9064	0.1
Mof_C 	C 	0.5042	0.2607	0.9044	0.094
Mof_C 	C 	0.574	0.289	0.859	-0.002
Mof_C 	C 	0.1857	0.107	0.874	-0.017
Mof_C 	C 	0.00057	0.72781	0.49086	0.016
Mof_H 	H 	0.0014	0.7561	0.4443	0.058
Mof_C 	C 	0.9342	0.708	0.52423	-0.069
Mof_C 	C 	0.93303	0.6666	0.59236	-0.024
Mof_H 	H 	0.8877	0.6531	0.6152	0.066
Mof_C 	C 	0.99823	0.64506	0.62711	0.018
Mof_C 	C 	0.0646	0.6649	0.59374	-0.028
Mof_H 	H 	0.1092	0.6501	0.6175	0.062
Mof_C 	C 	0.06577	0.70625	0.52561	-0.067
Mof_C 	C 	0.0542	0.4593	0.9931	-0.001
Mof_C 	C 	0.1061	0.4659	0.0531	0.037
Mof_C 	C 	0.14393	0.49759	0.18847	0.008
Mof_C 	C 	0.16359	0.56432	0.22111	-0.014
Mof_H 	H 	0.1481	0.6086	0.1973	0.06
Mof_C 	C 	0.20588	0.56625	0.28858	-0.086
Mof_C 	C 	0.2285	0.50144	0.3234	0.03
Mof_H 	H 	0.2574	0.5028	0.3695	0.054
Mof_C 	C 	0.20883	0.43471	0.29075	-0.082
Mof_C 	C 	0.16655	0.43278	0.22329	-0.018
Mof_H 	H 	0.1531	0.3872	0.201	0.061
Mof_C 	C 	0.0659	0.5359	0.94614	-0.008
Mof_C 	C 	0.0173	0.5316	0.00854	0.007
Mof_C 	C 	0.04275	0.5137	0.08277	-0.013
Mof_C 	C 	0.11679	0.50022	0.09461	-0.08
Mof_C 	C 	0.1654	0.5045	0.03221	-0.012
Mof_C 	C 	0.14	0.5224	0.95797	0.107
Mof_C 	C 	0.0879	0.4929	0.1273	0.061
Mof_C 	C 	0.9886	0.5058	0.1446	-0.016
Mof_C 	C 	0.0004	0.6189	0.7181	0.149
Mof_C 	C 	0.0101	0.5446	0.7319	0.018
Mof_C 	C 	0.0317	0.5205	0.8053	-0.019
Mof_C 	C 	0.0436	0.5705	0.8651	-0.018
Mof_C 	C 	0.034	0.6448	0.8513	0.128
Mof_C 	C 	0.0124	0.669	0.7779	-0.062
Mof_C 	C 	0.9896	0.5784	0.6844	-0.117
Mof_C 	C 	0.9686	0.6074	0.7578	-0.077
Mof_C 	C 	0.9621	0.5526	0.8171	0.048
Mof_Cu	Cu	0.28724	0.71259	0.46057	0.906
Mof_Cu	Cu	0.21256	0.7876	0.35466	0.905
Mof_C 	C 	0.2241	0.366	0.3308	0.349
Mof_C 	C 	0.2231	0.6311	0.3281	0.311
Mof_O 	O 	0.131	0.7628	0.4242	-0.415
Mof_C 	C 	0.1385	0.724	0.4839	0.378
Mof_O 	O 	0.1936	0.6986	0.5123	-0.421
Mof_O 	O 	0.2367	0.8678	0.4208	-0.419
Mof_C 	C 	0.8631	0.7259	0.4822	0.365
Mof_O 	O 	0.3004	0.8071	0.5116	-0.409
Mof_O 	O 	0.2004	0.694	0.2975	-0.366
Mof_O 	O 	0.2013	0.3072	0.2987	-0.387
Mof_O 	O 	0.2621	0.3701	0.3916	-0.401
Mof_O 	O 	0.2616	0.6306	0.3922	-0.383
Mof_O 	O 	0.1848	0.4879	0.901	-0.199
Mof_O 	O 	0.0542	0.6896	0.9148	-0.203
Mof_C 	C 	0.053	0.7673	0.9064	0.1
Mof_C 	C 	0.2607	0.4958	0.9044	0.094
Mof_C 	C 	0.289	0.426	0.859	-0.002
Mof_C 	C 	0.107	0.8143	0.874	-0.017
Mof_C 	C 	0.99943	0.27219	0.49086	0.018
Mof_H 	H 	0.9986	0.2439	0.4443	0.058
Mof_C 	C 	0.0658	0.292	0.52423	-0.072
Mof_C 	C 	0.06697	0.3334	0.59236	-0.022
Mof_H 	H 	0.1123	0.3469	0.6152	0.066
Mof_C 	C 	0.00177	0.35494	0.62711	0.015
Mof_C 	C 	0.9354	0.3351	0.59374	-0.026
Mof_H 	H 	0.8908	0.3499	0.6175	0.061
Mof_C 	C 	0.93423	0.29375	0.52561	-0.068
Mof_C 	C 	0.9458	0.5407	0.9931	0.002
Mof_C 	C 	0.8939	0.5341	0.0531	0.027
Mof_C 	C 	0.85607	0.50241	0.18847	0.01
Mof_C 	C 	0.83641	0.43568	0.22111	-0.015
Mof_H 	H 	0.8519	0.3914	0.1973	0.06
Mof_C 	C 	0.79412	0.43375	0.28858	-0.085
Mof_C 	C 	0.7715	0.49856	0.3234	0.029
Mof_H 	H 	0.7426	0.4972	0.3695	0.054
Mof_C 	C 	0.79117	0.56529	0.29075	-0.082
Mof_C 	C 	0.83345	0.56722	0.22329	-0.019
Mof_H 	H 	0.8469	0.6128	0.201	0.062
Mof_C 	C 	0.9341	0.4641	0.94614	-0.009
Mof_C 	C 	0.9827	0.4684	0.00854	0.005
Mof_C 	C 	0.95725	0.4863	0.08277	-0.005
Mof_C 	C 	0.88321	0.49978	0.09461	-0.059
Mof_C 	C 	0.8346	0.4955	0.03221	-0.016
Mof_C 	C 	0.86	0.4776	0.95797	0.109
Mof_C 	C 	0.9121	0.5071	0.1273	0.045
Mof_C 	C 	0.0114	0.4942	0.1446	-0.003
Mof_C 	C 	0.9996	0.3811	0.7181	0.172
Mof_C 	C 	0.9899	0.4554	0.7319	0.027
Mof_C 	C 	0.9683	0.4795	0.8053	-0.023
Mof_C 	C 	0.9564	0.4295	0.8651	-0.018
Mof_C 	C 	0.966	0.3552	0.8513	0.13
Mof_C 	C 	0.9876	0.331	0.7779	-0.065
Mof_C 	C 	0.0104	0.4216	0.6844	-0.133
Mof_C 	C 	0.0314	0.3926	0.7578	-0.091
Mof_C 	C 	0.0379	0.4474	0.8171	0.051
Mof_Cu	Cu	0.71276	0.28741	0.46057	0.906
Mof_Cu	Cu	0.78744	0.2124	0.35466	0.905
Mof_C 	C 	0.7759	0.634	0.3308	0.349
Mof_C 	C 	0.7769	0.3689	0.3281	0.31
Mof_O 	O 	0.869	0.2372	0.4242	-0.415
Mof_C 	C 	0.8615	0.276	0.4839	0.378
Mof_O 	O 	0.8064	0.3014	0.5123	-0.421
Mof_O 	O 	0.7633	0.1322	0.4208	-0.42
Mof_C 	C 	0.1369	0.2741	0.4822	0.365
Mof_O 	O 	0.6996	0.1929	0.5116	-0.409
Mof_O 	O 	0.7996	0.306	0.2975	-0.366
Mof_O 	O 	0.7987	0.6928	0.2987	-0.387
Mof_O 	O 	0.7379	0.6299	0.3916	-0.401
Mof_O 	O 	0.7384	0.3694	0.3922	-0.383
Mof_O 	O 	0.8152	0.5121	0.901	-0.199
Mof_O 	O 	0.9458	0.3104	0.9148	-0.203
Mof_C 	C 	0.947	0.2327	0.9064	0.101
Mof_C 	C 	0.7393	0.5042	0.9044	0.094
Mof_C 	C 	0.711	0.574	0.859	-0.002
Mof_C 	C 	0.893	0.1857	0.874	-0.017
Mof_C 	C 	0.5	-4.40753e-33	0.6702	0.058
Mof_C 	C 	-2.05757e-33	0.5	0.6702	0.058
_end
