data_functionalizedCrystal
_audit_creation_method	'EQeq! by Chris Wilmer'
_symmetry_space_group_name_H-M	'P1'
_symmetry_Int_Tables_number	1
_symmetry_cell_setting	triclinic
loop_
_symmetry_equiv_pos_as_xyz
  x,y,z
_cell_length_a	11.008
_cell_length_b	12.002
_cell_length_c	19.473
_cell_angle_alpha	90
_cell_angle_beta	90
_cell_angle_gamma	90
loop_
_atom_site_label
_atom_site_type_symbol
_atom_site_fract_x
_atom_site_fract_y
_atom_site_fract_z
_atom_site_charge
Mof_Pr	Pr	0.8638	0.65899	0.64838	2.285
Mof_Pr	Pr	0.38228	0.47717	0.86248	2.528
Mof_Pr	Pr	0.1362	0.34101	0.14838	2.267
Mof_Pr	Pr	0.61772	0.52283	0.36248	2.521
Mof_Pr	Pr	0.6362	0.15899	0.64838	2.278
Mof_Pr	Pr	0.11772	0.97717	0.86248	2.502
Mof_Pr	Pr	0.3638	0.84101	0.14838	2.264
Mof_Pr	Pr	0.88228	0.02283	0.36248	2.494
Mof_H 	H 	0.6511	0.508	0.7566	-0.077
Mof_H 	H 	0.7687	0.7606	0.9159	0.05
Mof_H 	H 	0.1296	0.6016	0.7597	-0.06
Mof_H 	H 	0.994	0.2448	0.7485	-0.007
Mof_H 	H 	0.3489	0.492	0.2566	-0.077
Mof_H 	H 	0.2313	0.2394	0.4159	0.047
Mof_H 	H 	0.8704	0.3984	0.2597	-0.06
Mof_H 	H 	0.006	0.7552	0.2485	-0.003
Mof_H 	H 	0.8489	0.008	0.7566	-0.078
Mof_H 	H 	0.7313	0.2606	0.9159	0.05
Mof_H 	H 	0.3704	0.1016	0.7597	-0.06
Mof_H 	H 	0.506	0.7448	0.7485	0.002
Mof_H 	H 	0.1511	0.992	0.2566	-0.078
Mof_H 	H 	0.2687	0.7394	0.4159	0.046
Mof_H 	H 	0.6296	0.8984	0.2597	-0.061
Mof_H 	H 	0.494	0.2552	0.2485	0
Mof_C 	C 	0.6726	0.5628	0.7881	0.153
Mof_C 	C 	0.6363	0.6504	0.8898	-0.041
Mof_C 	C 	0.7425	0.7116	0.882	-0.003
Mof_C 	C 	0.8074	0.6973	0.8226	-0.062
Mof_C 	C 	0.9138	0.7715	0.8043	0.448
Mof_C 	C 	0.5532	0.6693	0.9506	0.356
Mof_C 	C 	0.1017	0.5285	0.7582	0.136
Mof_C 	C 	0.1261	0.3463	0.7872	-0.125
Mof_C 	C 	0.0208	0.3181	0.7519	0.058
Mof_C 	C 	0.9588	0.4052	0.7225	-0.097
Mof_C 	C 	0.8394	0.3855	0.6845	0.432
Mof_C 	C 	0.2034	0.2569	0.8222	0.492
Mof_C 	C 	0.3223	0.3835	0.0178	0.18
Mof_C 	C 	0.2001	0.4355	0.9938	0.371
Mof_C 	C 	0.3274	0.4372	0.2881	0.152
Mof_C 	C 	0.3637	0.3496	0.3898	-0.044
Mof_C 	C 	0.2575	0.2884	0.382	-0.002
Mof_C 	C 	0.1926	0.3027	0.3226	-0.063
Mof_C 	C 	0.0862	0.2285	0.3043	0.448
Mof_C 	C 	0.4468	0.3307	0.4506	0.358
Mof_C 	C 	0.8983	0.4715	0.2582	0.132
Mof_C 	C 	0.8739	0.6537	0.2872	-0.124
Mof_C 	C 	0.9792	0.6819	0.2519	0.049
Mof_C 	C 	0.0412	0.5948	0.2225	-0.094
Mof_C 	C 	0.1606	0.6145	0.1845	0.429
Mof_C 	C 	0.7966	0.7431	0.3222	0.49
Mof_C 	C 	0.6777	0.6165	0.5178	0.254
Mof_C 	C 	0.7999	0.5645	0.4938	0.298
Mof_C 	C 	0.8274	0.0628	0.7881	0.153
Mof_C 	C 	0.8637	0.1504	0.8898	-0.039
Mof_C 	C 	0.7575	0.2116	0.882	-0.004
Mof_C 	C 	0.6926	0.1973	0.8226	-0.062
Mof_C 	C 	0.5862	0.2715	0.8043	0.449
Mof_C 	C 	0.9468	0.1693	0.9506	0.346
Mof_C 	C 	0.3983	0.0285	0.7582	0.142
Mof_C 	C 	0.3739	0.8463	0.7872	-0.12
Mof_C 	C 	0.4792	0.8181	0.7519	0.042
Mof_C 	C 	0.5412	0.9052	0.7225	-0.089
Mof_C 	C 	0.6606	0.8855	0.6845	0.43
Mof_C 	C 	0.2966	0.7569	0.8222	0.491
Mof_C 	C 	0.1777	0.8835	0.0178	0.188
Mof_C 	C 	0.2999	0.9355	0.9938	0.363
Mof_C 	C 	0.1726	0.9372	0.2881	0.152
Mof_C 	C 	0.1363	0.8496	0.3898	-0.042
Mof_C 	C 	0.2425	0.7884	0.382	-0.003
Mof_C 	C 	0.3074	0.8027	0.3226	-0.064
Mof_C 	C 	0.4138	0.7285	0.3043	0.449
Mof_C 	C 	0.0532	0.8307	0.4506	0.348
Mof_C 	C 	0.6017	0.9715	0.2582	0.141
Mof_C 	C 	0.6261	0.1537	0.2872	-0.122
Mof_C 	C 	0.5208	0.1819	0.2519	0.042
Mof_C 	C 	0.4588	0.0948	0.2225	-0.092
Mof_C 	C 	0.3394	0.1145	0.1845	0.428
Mof_C 	C 	0.7034	0.2431	0.3222	0.49
Mof_C 	C 	0.8223	0.1165	0.5178	0.253
Mof_C 	C 	0.7001	0.0645	0.4938	0.297
Mof_N 	N 	0.7726	0.6225	0.7749	-0.226
Mof_N 	N 	0.6012	0.5759	0.8429	-0.253
Mof_N 	N 	0.9996	0.5094	0.7231	-0.238
Mof_N 	N 	0.1667	0.4525	0.7912	-0.234
Mof_N 	N 	0.2274	0.3775	0.2749	-0.225
Mof_N 	N 	0.3988	0.4241	0.3429	-0.252
Mof_N 	N 	0.0004	0.4906	0.2231	-0.237
Mof_N 	N 	0.8333	0.5475	0.2912	-0.234
Mof_N 	N 	0.7274	0.1225	0.7749	-0.226
Mof_N 	N 	0.8988	0.0759	0.8429	-0.253
Mof_N 	N 	0.5004	0.0094	0.7231	-0.24
Mof_N 	N 	0.3333	0.9525	0.7912	-0.236
Mof_N 	N 	0.2726	0.8775	0.2749	-0.225
Mof_N 	N 	0.1012	0.9241	0.3429	-0.252
Mof_N 	N 	0.4996	0.9906	0.2231	-0.239
Mof_N 	N 	0.6667	0.0475	0.2912	-0.237
Mof_O 	O 	0.9553	0.7627	0.7444	-0.588
Mof_O 	O 	0.9491	0.8385	0.8498	-0.521
Mof_O 	O 	0.4583	0.6086	0.9529	-0.496
Mof_O 	O 	0.5842	0.7399	0.9918	-0.316
Mof_O 	O 	0.7914	0.4656	0.6532	-0.55
Mof_O 	O 	0.7946	0.2889	0.6909	-0.517
Mof_O 	O 	0.2995	0.2866	0.8503	-0.557
Mof_O 	O 	0.1658	0.1588	0.8179	-0.607
Mof_O 	O 	0.4078	0.3811	0.9747	-0.406
Mof_O 	O 	0.326	0.3478	0.0781	-0.439
Mof_O 	O 	0.204	0.4893	0.9384	-0.495
Mof_O 	O 	0.1106	0.4214	0.0317	-0.528
Mof_O 	O 	0.0447	0.2373	0.2444	-0.588
Mof_O 	O 	0.0509	0.1615	0.3498	-0.521
Mof_O 	O 	0.5417	0.3914	0.4529	-0.502
Mof_O 	O 	0.4158	0.2601	0.4918	-0.328
Mof_O 	O 	0.2086	0.5344	0.1532	-0.552
Mof_O 	O 	0.2054	0.7111	0.1909	-0.517
Mof_O 	O 	0.7005	0.7134	0.3503	-0.558
Mof_O 	O 	0.8342	0.8412	0.3179	-0.607
Mof_O 	O 	0.5922	0.6189	0.4747	-0.442
Mof_O 	O 	0.674	0.6522	0.5781	-0.451
Mof_O 	O 	0.796	0.5107	0.4384	-0.482
Mof_O 	O 	0.8894	0.5786	0.5317	-0.487
Mof_O 	O 	0.5447	0.2627	0.7444	-0.591
Mof_O 	O 	0.5509	0.3385	0.8498	-0.528
Mof_O 	O 	0.0417	0.1086	0.9529	-0.483
Mof_O 	O 	0.9158	0.2399	0.9918	-0.314
Mof_O 	O 	0.7086	0.9656	0.6532	-0.546
Mof_O 	O 	0.7054	0.7889	0.6909	-0.516
Mof_O 	O 	0.2005	0.7866	0.8503	-0.557
Mof_O 	O 	0.3342	0.6588	0.8179	-0.614
Mof_O 	O 	0.0922	0.8811	0.9747	-0.412
Mof_O 	O 	0.174	0.8478	0.0781	-0.441
Mof_O 	O 	0.296	0.9893	0.9384	-0.493
Mof_O 	O 	0.3894	0.9214	0.0317	-0.524
Mof_O 	O 	0.4553	0.7373	0.2444	-0.591
Mof_O 	O 	0.4491	0.6615	0.3498	-0.529
Mof_O 	O 	0.9583	0.8914	0.4529	-0.49
Mof_O 	O 	0.0842	0.7601	0.4918	-0.327
Mof_O 	O 	0.2914	0.0344	0.1532	-0.549
Mof_O 	O 	0.2946	0.2111	0.1909	-0.517
Mof_O 	O 	0.7995	0.2134	0.3503	-0.558
Mof_O 	O 	0.6658	0.3412	0.3179	-0.615
Mof_O 	O 	0.9078	0.1189	0.4747	-0.444
Mof_O 	O 	0.826	0.1522	0.5781	-0.453
Mof_O 	O 	0.704	0.0107	0.4384	-0.48
Mof_O 	O 	0.6106	0.0786	0.5317	-0.487
_end
