data_functionalizedCrystal
_audit_creation_method	'EQeq! by Chris Wilmer'
_symmetry_space_group_name_H-M	'P1'
_symmetry_Int_Tables_number	1
_symmetry_cell_setting	triclinic
loop_
_symmetry_equiv_pos_as_xyz
  x,y,z
_cell_length_a	13.945
_cell_length_b	20.585
_cell_length_c	30.633
_cell_angle_alpha	90
_cell_angle_beta	90
_cell_angle_gamma	98.79
loop_
_atom_site_label
_atom_site_type_symbol
_atom_site_fract_x
_atom_site_fract_y
_atom_site_fract_z
_atom_site_charge
Mof_Eu	Eu	0.9761	0.62514	0.44875	1.367
Mof_Eu	Eu	0.53894	0.89492	0.69023	1.743
Mof_Eu	Eu	0.0239	0.37486	0.55125	1.368
Mof_Eu	Eu	0.96106	0.60508	0.19023	1.744
Mof_Eu	Eu	0.46106	0.10508	0.30977	1.744
Mof_Eu	Eu	0.4761	0.12514	0.05125	1.366
Mof_Eu	Eu	0.5239	0.87486	0.94875	1.366
Mof_Eu	Eu	0.03894	0.39492	0.80977	1.744
Mof_Cu	Cu	0.50428	0.24137	0.84256	0.895
Mof_Cu	Cu	0.99572	0.25863	0.34256	0.895
Mof_Cu	Cu	0.50815	0.78061	0.47785	0.896
Mof_Cu	Cu	0.00428	0.74137	0.65744	0.895
Mof_Cu	Cu	0.47311	0.61097	0.8154	0.895
Mof_Cu	Cu	0.97311	0.11097	0.6846	0.895
Mof_Cu	Cu	0.52689	0.38903	0.1846	0.895
Mof_Cu	Cu	0.02689	0.88903	0.3154	0.895
Mof_Cu	Cu	0.00815	0.28061	0.02215	0.896
Mof_Cu	Cu	0.49185	0.21939	0.52215	0.896
Mof_Cu	Cu	0.99185	0.71939	0.97785	0.896
Mof_Cu	Cu	0.49572	0.75863	0.15744	0.895
Mof_H 	H 	0.694	0.7042	0.9336	0.074
Mof_H 	H 	0.9307	0.2055	0.7532	0.014
Mof_H 	H 	0.3201	0.9113	0.38	0.049
Mof_H 	H 	0.6424	0.5461	0.8267	0.006
Mof_H 	H 	0.3416	0.3049	0.82	-0.004
Mof_H 	H 	0.9069	0.6339	0.7182	0.03
Mof_H 	H 	0.0746	0.295	0.927	0.024
Mof_H 	H 	0.8135	0.2215	0.0398	-0.01
Mof_H 	H 	0.3135	0.7215	0.4602	-0.01
Mof_H 	H 	0.3037	0.7295	0.0189	0.063
Mof_H 	H 	0.1584	0.1951	0.32	-0.004
Mof_H 	H 	0.7386	0.8906	0.2558	0.069
Mof_H 	H 	0.2215	0.9575	0.2935	-0.012
Mof_H 	H 	0.3576	0.4539	0.1733	0.006
Mof_H 	H 	0.8576	0.9539	0.3267	0.006
Mof_H 	H 	0.2997	0.2307	0.3846	0.055
Mof_H 	H 	0.2982	0.7268	0.7064	0.078
Mof_H 	H 	0.7614	0.6094	0.7558	0.069
Mof_H 	H 	0.8174	0.7804	0.9688	0.016
Mof_H 	H 	0.5746	0.795	0.573	0.024
Mof_H 	H 	0.4307	0.7055	0.7468	0.014
Mof_H 	H 	0.947	0.8117	0.3934	0.012
Mof_H 	H 	0.553	0.6883	0.8934	0.012
Mof_H 	H 	0.7215	0.4575	0.2065	-0.012
Mof_H 	H 	0.2785	0.5425	0.7935	-0.012
Mof_H 	H 	0.941	0.2588	0.4391	0.024
Mof_H 	H 	0.7785	0.0425	0.7065	-0.012
Mof_H 	H 	0.441	0.7588	0.0609	0.024
Mof_H 	H 	0.5931	0.8661	0.2182	0.03
Mof_H 	H 	0.1799	0.5887	0.88	0.049
Mof_H 	H 	0.447	0.3117	0.1066	0.012
Mof_H 	H 	0.4577	0.8887	0.4162	0.032
Mof_H 	H 	0.1865	0.7785	0.9602	-0.01
Mof_H 	H 	0.3174	0.2804	0.5312	0.016
Mof_H 	H 	0.0931	0.3661	0.2818	0.03
Mof_H 	H 	0.1963	0.7705	0.5189	0.062
Mof_H 	H 	0.2614	0.1094	0.7442	0.069
Mof_H 	H 	0.059	0.7412	0.5609	0.024
Mof_H 	H 	0.9254	0.705	0.073	0.024
Mof_H 	H 	0.6963	0.2705	0.9811	0.063
Mof_H 	H 	0.794	0.2055	0.3323	0.013
Mof_H 	H 	0.6865	0.2785	0.5398	-0.01
Mof_H 	H 	0.7997	0.7307	0.1154	0.055
Mof_H 	H 	0.0423	0.6113	0.9162	0.032
Mof_H 	H 	0.2018	0.7732	0.2064	0.078
Mof_H 	H 	0.2386	0.3906	0.2442	0.069
Mof_H 	H 	0.1424	0.0461	0.6733	0.006
Mof_H 	H 	0.194	0.2042	0.5664	0.074
Mof_H 	H 	0.6799	0.0887	0.62	0.049
Mof_H 	H 	0.2003	0.2693	0.8846	0.055
Mof_H 	H 	0.1826	0.2196	0.0312	0.016
Mof_H 	H 	0.4069	0.1339	0.7818	0.03
Mof_H 	H 	0.294	0.7055	0.1677	0.014
Mof_H 	H 	0.9577	0.3887	0.0838	0.032
Mof_H 	H 	0.8037	0.2295	0.4811	0.062
Mof_H 	H 	0.5423	0.1113	0.5838	0.032
Mof_H 	H 	0.5693	0.2945	0.2532	0.014
Mof_H 	H 	0.7982	0.2268	0.7936	0.078
Mof_H 	H 	0.559	0.2412	0.9391	0.024
Mof_H 	H 	0.206	0.7945	0.6677	0.013
Mof_H 	H 	0.306	0.2958	0.0664	0.074
Mof_H 	H 	0.8201	0.4113	0.12	0.049
Mof_H 	H 	0.806	0.7958	0.4336	0.074
Mof_H 	H 	0.6584	0.6951	0.18	-0.004
Mof_H 	H 	0.7003	0.7693	0.6154	0.055
Mof_H 	H 	0.4254	0.205	0.427	0.024
Mof_H 	H 	0.6826	0.7196	0.4688	0.016
Mof_H 	H 	0.8416	0.8049	0.68	-0.004
Mof_H 	H 	0.7018	0.2732	0.2936	0.078
Mof_H 	H 	0.706	0.2945	0.8323	0.014
Mof_H 	H 	0.0693	0.7945	0.2468	0.014
Mof_H 	H 	0.053	0.1883	0.6066	0.012
Mof_C 	C 	0.8144	0.26073	0.0562	0.063
Mof_C 	C 	0.6223	0.18308	0.45961	0.306
Mof_C 	C 	0.7667	0.74827	0.21479	-0.078
Mof_C 	C 	0.1167	0.18197	0.73505	0.298
Mof_C 	C 	0.6761	0.73578	0.19465	0.06
Mof_C 	C 	0.6265	0.15778	0.80512	0.305
Mof_C 	C 	0.742	0.58584	0.87092	-0.076
Mof_C 	C 	0.7929	0.18843	0.77595	-0.091
Mof_C 	C 	0.8625	0.66456	0.71759	0.056
Mof_C 	C 	0.6236	0.77427	0.55976	0.045
Mof_C 	C 	0.8349	0.69951	0.20854	0.31
Mof_C 	C 	0.7664	0.71612	0.52237	-0.087
Mof_C 	C 	0.2285	0.27047	0.43355	-0.008
Mof_C 	C 	0.8993	0.35828	0.08198	0.053
Mof_C 	C 	0.3824	0.82945	0.63966	0.324
Mof_C 	C 	0.1651	0.30049	0.79146	0.31
Mof_C 	C 	0.1007	0.64172	0.91802	0.053
Mof_C 	C 	0.2892	0.79886	0.56902	-0.004
Mof_C 	C 	0.8735	0.34222	0.30512	0.305
Mof_C 	C 	0.3457	0.42091	0.15142	0.063
Mof_C 	C 	0.7316	0.32813	0.10163	-0.006
Mof_C 	C 	0.1099	0.54105	0.75702	0.389
Mof_C 	C 	0.8239	0.76422	0.69465	0.06
Mof_C 	C 	0.8457	0.92091	0.34858	0.063
Mof_C 	C 	0.2756	0.14927	0.76022	-0.07
Mof_C 	C 	0.3434	0.18727	0.0019	0.316
Mof_C 	C 	0.6375	0.83544	0.21759	0.056
Mof_C 	C 	0.6651	0.80049	0.70854	0.31
Mof_C 	C 	0.8715	0.17572	0.7516	0.065
Mof_C 	C 	0.2005	0.77499	0.54969	-0.077
Mof_C 	C 	0.7414	0.86702	0.40333	0.002
Mof_C 	C 	0.7333	0.75173	0.71479	-0.078
Mof_C 	C 	0.2079	0.6948	0.11463	-0.081
Mof_C 	C 	0.8764	0.72573	0.05976	0.044
Mof_C 	C 	0.3166	0.04385	0.64278	0.309
Mof_C 	C 	0.3814	0.74225	0.07487	0.047
Mof_C 	C 	0.7586	0.63298	0.90333	0.002
Mof_C 	C 	0.3144	0.76073	0.4438	0.063
Mof_C 	C 	0.6436	0.33534	0.12957	0.299
Mof_C 	C 	0.3492	0.14301	0.56923	0.298
Mof_C 	C 	0.8814	0.24225	0.42513	0.047
Mof_C 	C 	0.77	0.22826	0.57657	-0.083
Mof_C 	C 	0.3016	0.24069	0.41489	-0.071
Mof_C 	C 	0.3597	0.7771	0.93096	0.318
Mof_C 	C 	0.6167	0.68197	0.76495	0.299
Mof_C 	C 	0.258	0.41416	0.12908	-0.076
Mof_C 	C 	0.2067	0.64549	0.7254	0.01
Mof_C 	C 	0.1853	0.17148	0.58851	-0.084
Mof_C 	C 	0.151	0.29126	0.40393	0.31
Mof_C 	C 	0.1827	0.6282	0.89633	-0.061
Mof_C 	C 	0.849	0.70874	0.59607	0.31
Mof_C 	C 	0.1543	0.07909	0.65142	0.063
Mof_C 	C 	0.7906	0.80672	0.23826	-0.004
Mof_C 	C 	0.6176	0.17055	0.36034	0.324
Mof_C 	C 	0.2336	0.28388	0.47763	-0.087
Mof_C 	C 	0.8824	0.32945	0.86034	0.324
Mof_C 	C 	0.2052	0.7882	0.63701	0.061
Mof_C 	C 	0.7071	0.31157	0.27595	-0.091
Mof_C 	C 	0.2017	0.58988	0.75187	-0.119
Mof_C 	C 	0.6007	0.14172	0.58198	0.053
Mof_C 	C 	0.7933	0.35451	0.2746	0.01
Mof_C 	C 	0.6984	0.75931	0.58511	-0.071
Mof_C 	C 	0.2906	0.30672	0.26174	-0.004
Mof_C 	C 	0.8126	0.76906	0.99891	0.048
Mof_C 	C 	0.8777	0.31692	0.95961	0.306
Mof_C 	C 	0.1186	0.75775	0.57487	0.047
Mof_C 	C 	0.27	0.72826	0.92343	-0.083
Mof_C 	C 	0.7684	0.17187	0.60163	-0.006
Mof_C 	C 	0.1236	0.27427	0.94024	0.044
Mof_C 	C 	0.6099	0.04105	0.74298	0.389
Mof_C 	C 	0.6016	0.66177	0.88753	0.068
Mof_C 	C 	0.7892	0.29886	0.93098	-0.003
Mof_C 	C 	0.3984	0.33823	0.11247	0.068
Mof_C 	C 	0.3625	0.16456	0.78241	0.056
Mof_C 	C 	0.242	0.08584	0.62908	-0.076
Mof_C 	C 	0.6186	0.25775	0.92513	0.047
Mof_C 	C 	0.8147	0.82852	0.41149	-0.084
Mof_C 	C 	0.2983	0.91012	0.25187	-0.119
Mof_C 	C 	0.2176	0.91963	0.27548	0.084
Mof_C 	C 	0.1874	0.23094	0.00109	0.048
Mof_C 	C 	0.2921	0.8052	0.61463	-0.081
Mof_C 	C 	0.8434	0.68727	0.4981	0.318
Mof_C 	C 	0.6285	0.32428	0.2516	0.065
Mof_C 	C 	0.1176	0.67055	0.13966	0.324
Mof_C 	C 	0.6853	0.67148	0.91149	-0.084
Mof_C 	C 	0.2933	0.85451	0.2254	0.01
Mof_C 	C 	0.651	0.79126	0.09607	0.31
Mof_C 	C 	0.2244	0.35073	0.26022	-0.07
Mof_C 	C 	0.7176	0.41963	0.22452	0.084
Mof_C 	C 	0.2094	0.19328	0.76174	-0.004
Mof_C 	C 	0.758	0.91416	0.37092	-0.076
Mof_C 	C 	0.3715	0.67572	0.7484	0.065
Mof_C 	C 	0.73	0.27174	0.07657	-0.083
Mof_C 	C 	0.7824	0.08037	0.72452	0.084
Mof_C 	C 	0.3147	0.32852	0.08851	-0.084
Mof_C 	C 	0.1016	0.16177	0.61247	0.068
Mof_C 	C 	0.7715	0.72953	0.56645	-0.008
Mof_C 	C 	0.2715	0.22953	0.93355	-0.009
Mof_C 	C 	0.7017	0.08988	0.74813	-0.119
Mof_C 	C 	0.3901	0.95895	0.25702	0.389
Mof_C 	C 	0.6508	0.85699	0.43077	0.298
Mof_C 	C 	0.2071	0.81157	0.22405	-0.091
Mof_C 	C 	0.349	0.20874	0.90393	0.31
Mof_C 	C 	0.2929	0.68843	0.72405	-0.091
Mof_C 	C 	0.1834	0.45615	0.14278	0.308
Mof_C 	C 	0.7983	0.41012	0.24813	-0.119
Mof_C 	C 	0.8016	0.74069	0.08511	-0.07
Mof_C 	C 	0.3777	0.81692	0.54039	0.306
Mof_C 	C 	0.8492	0.64301	0.93077	0.298
Mof_C 	C 	0.23	0.77174	0.42343	-0.083
Mof_C 	C 	0.7948	0.2118	0.36299	0.061
Mof_C 	C 	0.7079	0.1948	0.38537	-0.081
Mof_C 	C 	0.8984	0.83823	0.38753	0.068
Mof_C 	C 	0.1566	0.31273	0.5019	0.318
Mof_C 	C 	0.7285	0.77047	0.06645	-0.009
Mof_C 	C 	0.1508	0.35699	0.06923	0.298
Mof_C 	C 	0.2948	0.7118	0.13701	0.061
Mof_C 	C 	0.8564	0.16466	0.62957	0.299
Mof_C 	C 	0.6834	0.95615	0.35722	0.309
Mof_C 	C 	0.8833	0.81803	0.26495	0.298
Mof_C 	C 	0.7756	0.64927	0.73978	-0.07
Mof_C 	C 	0.7005	0.27499	0.95031	-0.077
Mof_C 	C 	0.1403	0.7229	0.43096	0.318
Mof_C 	C 	0.2333	0.25173	0.78521	-0.078
Mof_C 	C 	0.7244	0.85073	0.23978	-0.07
Mof_C 	C 	0.1856	0.73927	0.9438	0.063
Mof_C 	C 	0.6543	0.57909	0.84858	0.063
Mof_C 	C 	0.3735	0.84222	0.19488	0.305
Mof_C 	C 	0.6874	0.73094	0.49891	0.05
Mof_C 	C 	0.1265	0.65778	0.69488	0.305
Mof_C 	C 	0.7995	0.22501	0.45031	-0.077
Mof_C 	C 	0.2664	0.21612	0.97763	-0.085
Mof_C 	C 	0.7094	0.69328	0.73826	-0.004
Mof_C 	C 	0.6403	0.2229	0.06904	0.318
Mof_C 	C 	0.3126	0.26906	0.50109	0.05
Mof_C 	C 	0.2414	0.36702	0.09667	0.002
Mof_C 	C 	0.2995	0.72501	0.04969	-0.077
Mof_C 	C 	0.7336	0.78388	0.02237	-0.085
Mof_C 	C 	0.7921	0.3052	0.88537	-0.081
Mof_C 	C 	0.7108	0.20114	0.43098	-0.004
Mof_C 	C 	0.2316	0.82813	0.39837	-0.006
Mof_C 	C 	0.1761	0.23578	0.30535	0.06
Mof_C 	C 	0.8173	0.3718	0.10367	-0.061
Mof_C 	C 	0.3993	0.85828	0.41802	0.053
Mof_C 	C 	0.3564	0.66466	0.87043	0.299
Mof_C 	C 	0.1285	0.82428	0.2484	0.065
Mof_C 	C 	0.2586	0.13298	0.59667	0.002
Mof_C 	C 	0.7052	0.2882	0.86299	0.061
Mof_C 	C 	0.7067	0.14549	0.7746	0.01
Mof_C 	C 	0.6566	0.81273	0.9981	0.316
Mof_C 	C 	0.3349	0.19951	0.29146	0.31
Mof_C 	C 	0.2667	0.24827	0.28521	-0.078
Mof_C 	C 	0.3764	0.22573	0.44024	0.045
Mof_C 	C 	0.2108	0.70114	0.06902	-0.003
Mof_C 	C 	0.6856	0.23927	0.5562	0.063
Mof_C 	C 	0.8166	0.54385	0.85722	0.308
Mof_C 	C 	0.1375	0.33544	0.28241	0.056
Mof_C 	C 	0.2824	0.58037	0.77548	0.084
Mof_C 	C 	0.6827	0.1282	0.60367	-0.061
Mof_C 	C 	0.1436	0.83534	0.37043	0.299
Mof_C 	C 	0.1984	0.25931	0.91489	-0.07
Mof_C 	C 	0.3173	0.8718	0.39633	-0.061
Mof_C 	C 	0.3833	0.31803	0.23505	0.299
Mof_C 	C 	0.1223	0.68308	0.04039	0.306
Mof_C 	C 	0.8901	0.45895	0.24298	0.389
Mof_C 	C 	0.2684	0.67187	0.89837	-0.006
Mof_C 	C 	0.8597	0.2771	0.56904	0.318
Mof_C 	C 	0.3239	0.26422	0.80535	0.06
Mof_N 	N 	0.58584	0.61657	0.85628	-0.217
Mof_N 	N 	0.87947	0.23641	0.3815	-0.214
Mof_N 	N 	0.36663	0.62223	0.77433	-0.221
Mof_N 	N 	0.61719	0.76055	0.51675	-0.21
Mof_N 	N 	0.12053	0.76359	0.6185	-0.214
Mof_N 	N 	0.38281	0.23945	0.48325	-0.21
Mof_N 	N 	0.08584	0.11657	0.64372	-0.217
Mof_N 	N 	0.91416	0.88343	0.35628	-0.217
Mof_N 	N 	0.89757	0.30309	0.05854	-0.209
Mof_N 	N 	0.41416	0.38343	0.14372	-0.217
Mof_N 	N 	0.88281	0.73945	0.01675	-0.209
Mof_N 	N 	0.10243	0.69691	0.94146	-0.209
Mof_N 	N 	0.60243	0.19691	0.55854	-0.209
Mof_N 	N 	0.11719	0.26055	0.98325	-0.209
Mof_N 	N 	0.11282	0.27895	0.3049	-0.212
Mof_N 	N 	0.39757	0.80309	0.44146	-0.209
Mof_N 	N 	0.38718	0.22105	0.8049	-0.212
Mof_N 	N 	0.63337	0.37777	0.22567	-0.221
Mof_N 	N 	0.13337	0.87777	0.27433	-0.221
Mof_N 	N 	0.37947	0.73641	0.1185	-0.214
Mof_N 	N 	0.86663	0.12223	0.72567	-0.221
Mof_N 	N 	0.88718	0.72105	0.6951	-0.212
Mof_N 	N 	0.62053	0.26359	0.8815	-0.214
Mof_N 	N 	0.61282	0.77895	0.1951	-0.212
Mof_O 	O 	0.40071	0.87388	0.52806	-0.257
Mof_O 	O 	0.62456	0.39274	0.1361	-0.379
Mof_O 	O 	0.41648	0.25396	0.89204	-0.379
Mof_O 	O 	0.5311	0.06047	0.7503	-0.298
Mof_O 	O 	0.83858	0.6508	0.60907	-0.281
Mof_O 	O 	0.64185	0.16359	0.07952	-0.432
Mof_O 	O 	0.37651	0.83262	0.68091	-0.442
Mof_O 	O 	0.59134	0.72969	0.78405	-0.29
Mof_O 	O 	0.58352	0.74604	0.10796	-0.379
Mof_O 	O 	0.2137	0.51476	0.15328	-0.262
Mof_O 	O 	0.4689	0.93953	0.2497	-0.298
Mof_O 	O 	0.8886	0.37902	0.33748	-0.29
Mof_O 	O 	0.42754	0.37697	0.23335	-0.371
Mof_O 	O 	0.43195	0.75911	0.94912	-0.375
Mof_O 	O 	0.16142	0.3492	0.39093	-0.281
Mof_O 	O 	0.58069	0.82164	0.01696	-0.399
Mof_O 	O 	0.53825	0.15444	0.37989	-0.407
Mof_O 	O 	0.58135	0.23194	0.47167	-0.38
Mof_O 	O 	0.57246	0.62303	0.76665	-0.371
Mof_O 	O 	0.41684	0.21897	0.3086	-0.401
Mof_O 	O 	0.58316	0.78103	0.6914	-0.401
Mof_O 	O 	0.03825	0.65444	0.12011	-0.406
Mof_O 	O 	0.19236	0.35961	0.78166	-0.413
Mof_O 	O 	0.58405	0.20674	0.79697	-0.377
Mof_O 	O 	0.1114	0.62098	0.66252	-0.29
Mof_O 	O 	0.08069	0.32164	0.48304	-0.4
Mof_O 	O 	0.93195	0.25911	0.55088	-0.375
Mof_O 	O 	0.17151	0.32649	0.5421	-0.431
Mof_O 	O 	0.67151	0.82649	0.9579	-0.43
Mof_O 	O 	0.92754	0.87697	0.26665	-0.371
Mof_O 	O 	0.08405	0.70674	0.70303	-0.377
Mof_O 	O 	0.41595	0.79326	0.20303	-0.377
Mof_O 	O 	0.06805	0.74089	0.44912	-0.375
Mof_O 	O 	0.12456	0.89274	0.3639	-0.379
Mof_O 	O 	0.80764	0.64039	0.21834	-0.413
Mof_O 	O 	0.63196	0.90188	0.45452	-0.264
Mof_O 	O 	0.3886	0.87902	0.16252	-0.29
Mof_O 	O 	0.62349	0.16738	0.31909	-0.442
Mof_O 	O 	0.2863	0.98524	0.65328	-0.263
Mof_O 	O 	0.07246	0.12303	0.73335	-0.371
Mof_O 	O 	0.41865	0.76806	0.52833	-0.38
Mof_O 	O 	0.59964	0.2841	0.14607	-0.294
Mof_O 	O 	0.08352	0.24604	0.39204	-0.378
Mof_O 	O 	0.87651	0.33262	0.81909	-0.442
Mof_O 	O 	0.10157	0.29958	0.07107	-0.374
Mof_O 	O 	0.7863	0.48524	0.84672	-0.262
Mof_O 	O 	0.59711	0.92877	0.35641	-0.254
Mof_O 	O 	0.09134	0.22969	0.71595	-0.29
Mof_O 	O 	0.37544	0.60726	0.8639	-0.379
Mof_O 	O 	0.35815	0.83641	0.92048	-0.432
Mof_O 	O 	0.12349	0.66738	0.18091	-0.442
Mof_O 	O 	0.12044	0.48451	0.76939	-0.508
Mof_O 	O 	0.91648	0.75396	0.60796	-0.378
Mof_O 	O 	0.56805	0.24089	0.05088	-0.375
Mof_O 	O 	0.89843	0.70042	0.92893	-0.374
Mof_O 	O 	0.90036	0.2159	0.64607	-0.294
Mof_O 	O 	0.30764	0.14039	0.28166	-0.413
Mof_O 	O 	0.91865	0.26806	0.97167	-0.38
Mof_O 	O 	0.41931	0.17836	0.98304	-0.399
Mof_O 	O 	0.96175	0.34556	0.87989	-0.406
Mof_O 	O 	0.90289	0.57123	0.85641	-0.253
Mof_O 	O 	0.90866	0.77031	0.28405	-0.29
Mof_O 	O 	0.36804	0.09812	0.54548	-0.264
Mof_O 	O 	0.08316	0.28103	0.8086	-0.401
Mof_O 	O 	0.59929	0.12612	0.47194	-0.257
Mof_O 	O 	0.33858	0.1508	0.89093	-0.281
Mof_O 	O 	0.66142	0.8492	0.10907	-0.281
Mof_O 	O 	0.37956	0.01549	0.26939	-0.508
Mof_O 	O 	0.14185	0.66359	0.42048	-0.432
Mof_O 	O 	0.09929	0.62612	0.02806	-0.257
Mof_O 	O 	0.40289	0.07123	0.64359	-0.254
Mof_O 	O 	0.32849	0.17351	0.0421	-0.43
Mof_O 	O 	0.09711	0.42877	0.14359	-0.253
Mof_O 	O 	0.91684	0.71897	0.1914	-0.401
Mof_O 	O 	0.08135	0.73194	0.02833	-0.38
Mof_O 	O 	0.87956	0.51549	0.23061	-0.508
Mof_O 	O 	0.39843	0.20042	0.57107	-0.374
Mof_O 	O 	0.13196	0.40188	0.04548	-0.264
Mof_O 	O 	0.46175	0.84556	0.62011	-0.407
Mof_O 	O 	0.85815	0.33641	0.57952	-0.432
Mof_O 	O 	0.40866	0.27031	0.21595	-0.29
Mof_O 	O 	0.91931	0.67836	0.51696	-0.4
Mof_O 	O 	0.0311	0.56047	0.7497	-0.298
Mof_O 	O 	0.7137	0.01476	0.34672	-0.263
Mof_O 	O 	0.62044	0.98451	0.73061	-0.508
Mof_O 	O 	0.60157	0.79958	0.42893	-0.374
Mof_O 	O 	0.86804	0.59812	0.95452	-0.264
Mof_O 	O 	0.91595	0.29326	0.29697	-0.377
Mof_O 	O 	0.40036	0.7159	0.85393	-0.294
Mof_O 	O 	0.69236	0.85961	0.71834	-0.413
Mof_O 	O 	0.87544	0.10726	0.6361	-0.379
Mof_O 	O 	0.6114	0.12098	0.83748	-0.29
Mof_O 	O 	0.82849	0.67351	0.4579	-0.431
Mof_O 	O 	0.09964	0.7841	0.35393	-0.294
Mof_O 	O 	0.9689	0.43953	0.2503	-0.298
Mof_O 	O 	0.90071	0.37388	0.97194	-0.257
_end
