data_functionalizedCrystal
_audit_creation_method	'EQeq! by Chris Wilmer'
_symmetry_space_group_name_H-M	'P1'
_symmetry_Int_Tables_number	1
_symmetry_cell_setting	triclinic
loop_
_symmetry_equiv_pos_as_xyz
  x,y,z
_cell_length_a	9.9304
_cell_length_b	11.4446
_cell_length_c	14.6192
_cell_angle_alpha	91.423
_cell_angle_beta	90
_cell_angle_gamma	90
loop_
_atom_site_label
_atom_site_type_symbol
_atom_site_fract_x
_atom_site_fract_y
_atom_site_fract_z
_atom_site_charge
Mof_Fe	Fe	0.9188	0.75553	0.6324	1.059
Mof_Fe	Fe	0.60731	0.76005	0.6877	0.954
Mof_Fe	Fe	0.4188	0.74447	0.8676	0.952
Mof_Fe	Fe	0.10731	0.73995	0.8123	0.915
Mof_Fe	Fe	0.0812	0.24447	0.3676	0.815
Mof_Fe	Fe	0.39269	0.23995	0.3123	0.934
Mof_Fe	Fe	0.5812	0.25553	0.1324	0.918
Mof_Fe	Fe	0.89269	0.26005	0.1877	0.973
Mof_Fe	Fe	-5.69934e-33	0.5	0.5	0.844
Mof_Fe	Fe	0.5	0	-0	0.767
Mof_Fe	Fe	1.89978e-33	0	0.5	0.806
Mof_Fe	Fe	0.5	0.5	-0	0.878
Mof_H 	H 	0.149	0.713	0.426	-0.201
Mof_H 	H 	0.695	0.986	0.502	-0.044
Mof_H 	H 	0.742	0.854	0.868	-0.055
Mof_H 	H 	0.613	0.546	0.537	-0.06
Mof_H 	H 	0.176	0.973	0.726	-0.422
Mof_H 	H 	0.049	0.479	0.765	-0.099
Mof_H 	H 	0.649	0.787	0.074	-0.116
Mof_H 	H 	0.195	0.514	0.998	-0.051
Mof_H 	H 	0.242	0.646	0.632	-0.075
Mof_H 	H 	0.113	0.954	0.963	-0.071
Mof_H 	H 	0.676	0.527	0.774	-0.337
Mof_H 	H 	0.549	0.021	0.735	-0.153
Mof_H 	H 	0.851	0.287	0.574	-0.159
Mof_H 	H 	0.305	0.014	0.498	-0.08
Mof_H 	H 	0.258	0.146	0.132	-0.095
Mof_H 	H 	0.387	0.454	0.463	-0.057
Mof_H 	H 	0.824	0.027	0.274	-0.286
Mof_H 	H 	0.951	0.521	0.235	-0.072
Mof_H 	H 	0.351	0.213	0.926	-0.251
Mof_H 	H 	0.805	0.486	0.002	-0.078
Mof_H 	H 	0.758	0.354	0.368	-0.074
Mof_H 	H 	0.887	0.046	0.037	-0.042
Mof_H 	H 	0.324	0.473	0.226	-0.384
Mof_H 	H 	0.451	0.979	0.265	0.002
Mof_C 	C 	0.1037	0.744	0.4682	0.65
Mof_C 	C 	0.7183	0.9284	0.5496	0.446
Mof_C 	C 	0.8243	0.8291	0.8309	0.451
Mof_C 	C 	0.7105	0.574	0.5482	0.445
Mof_C 	C 	0.1235	0.9551	0.6889	1.077
Mof_C 	C 	0.0149	0.5196	0.7114	0.495
Mof_C 	C 	0.6037	0.756	0.0318	0.461
Mof_C 	C 	0.2183	0.5716	0.9504	0.452
Mof_C 	C 	0.3243	0.6709	0.6691	0.449
Mof_C 	C 	0.2105	0.926	0.9518	0.527
Mof_C 	C 	0.6235	0.5449	0.8111	0.896
Mof_C 	C 	0.5149	0.9804	0.7886	0.623
Mof_C 	C 	0.8963	0.256	0.5318	0.612
Mof_C 	C 	0.2817	0.0716	0.4504	0.448
Mof_C 	C 	0.1757	0.1709	0.1691	0.444
Mof_C 	C 	0.2895	0.426	0.4518	0.431
Mof_C 	C 	0.8765	0.0449	0.3111	0.73
Mof_C 	C 	0.9851	0.4804	0.2886	0.471
Mof_C 	C 	0.3963	0.244	0.9682	0.828
Mof_C 	C 	0.7817	0.4284	0.0496	0.451
Mof_C 	C 	0.6757	0.3291	0.3309	0.447
Mof_C 	C 	0.7895	0.074	0.0482	0.312
Mof_C 	C 	0.3765	0.4551	0.1889	0.943
Mof_C 	C 	0.4851	0.0196	0.2114	0.298
Mof_O 	O 	0.0271	0.6872	0.5217	-0.547
Mof_O 	O 	0.1123	0.8503	0.463	-0.423
Mof_O 	O 	0.8416	0.8976	0.5598	-0.41
Mof_O 	O 	0.6212	0.8884	0.591	-0.371
Mof_O 	O 	0.7978	0.8069	0.7471	-0.447
Mof_O 	O 	0.9348	0.8139	0.8687	-0.314
Mof_O 	O 	0.7406	0.6524	0.6067	-0.451
Mof_O 	O 	0.7912	0.5166	0.4998	-0.343
Mof_O 	O 	0.082	0.8511	0.6968	-0.646
Mof_O 	O 	0.1004	0.0216	0.6269	-0.599
Mof_O 	O 	0.0034	0.6281	0.7185	-0.514
Mof_O 	O 	0.0036	0.4586	0.6405	-0.404
Mof_O 	O 	0.5271	0.8128	0.9783	-0.381
Mof_O 	O 	0.6123	0.6497	0.037	-0.395
Mof_O 	O 	0.3416	0.6024	0.9402	-0.425
Mof_O 	O 	0.1212	0.6116	0.909	-0.388
Mof_O 	O 	0.2978	0.6931	0.7529	-0.453
Mof_O 	O 	0.4348	0.6861	0.6313	-0.381
Mof_O 	O 	0.2406	0.8476	0.8933	-0.465
Mof_O 	O 	0.2912	0.9834	0.0002	-0.408
Mof_O 	O 	0.582	0.6489	0.8032	-0.564
Mof_O 	O 	0.6004	0.4784	0.8731	-0.464
Mof_O 	O 	0.5034	0.8719	0.7815	-0.5
Mof_O 	O 	0.5036	0.0414	0.8595	-0.4
Mof_O 	O 	0.9729	0.3128	0.4783	-0.429
Mof_O 	O 	0.8877	0.1497	0.537	-0.386
Mof_O 	O 	0.1584	0.1024	0.4402	-0.456
Mof_O 	O 	0.3788	0.1116	0.409	-0.396
Mof_O 	O 	0.2022	0.1931	0.2529	-0.467
Mof_O 	O 	0.0652	0.1861	0.1313	-0.451
Mof_O 	O 	0.2594	0.3476	0.3933	-0.449
Mof_O 	O 	0.2088	0.4834	0.5002	-0.369
Mof_O 	O 	0.918	0.1489	0.3032	-0.497
Mof_O 	O 	0.8996	0.9784	0.3731	-0.371
Mof_O 	O 	0.9966	0.3719	0.2815	-0.426
Mof_O 	O 	0.9964	0.5414	0.3595	-0.318
Mof_O 	O 	0.4729	0.1872	0.0217	-0.592
Mof_O 	O 	0.3877	0.3503	0.963	-0.441
Mof_O 	O 	0.6584	0.3976	0.0598	-0.462
Mof_O 	O 	0.8788	0.3884	0.091	-0.381
Mof_O 	O 	0.7022	0.3069	0.2471	-0.461
Mof_O 	O 	0.5652	0.3139	0.3687	-0.383
Mof_O 	O 	0.7594	0.1524	0.1067	-0.424
Mof_O 	O 	0.7088	0.0166	0.9998	-0.255
Mof_O 	O 	0.418	0.3511	0.1968	-0.591
Mof_O 	O 	0.3996	0.5216	0.1269	-0.538
Mof_O 	O 	0.4966	0.1281	0.2185	-0.427
Mof_O 	O 	0.4964	0.9586	0.1405	-0.279
_end
