data_functionalizedCrystal
_audit_creation_method	'EQeq! by Chris Wilmer'
_symmetry_space_group_name_H-M	'P1'
_symmetry_Int_Tables_number	1
_symmetry_cell_setting	triclinic
loop_
_symmetry_equiv_pos_as_xyz
  x,y,z
_cell_length_a	20.7308
_cell_length_b	34.3744
_cell_length_c	19.3772
_cell_angle_alpha	90
_cell_angle_beta	115.432
_cell_angle_gamma	90
loop_
_atom_site_label
_atom_site_type_symbol
_atom_site_fract_x
_atom_site_fract_y
_atom_site_fract_z
_atom_site_charge
Mof_Co	Co	0.33956	0.57047	0.71608	1.107
Mof_Co	Co	0.1914	0.44364	0.85774	1.103
Mof_Co	Co	0.27923	0.48386	0.75011	1.106
Mof_Co	Co	0.28715	0.57638	0.52931	1.094
Mof_Co	Co	0.23564	0.59125	0.35004	1.06
Mof_C 	C 	0.8214	0.1843	0.1823	0
Mof_C 	C 	0.7867	0.206	0.22	-0.029
Mof_C 	C 	0.862	0.2036	0.1512	-0.029
Mof_C 	C 	0.0067	0.378	0.0568	0.032
Mof_C 	C 	0.0742	0.3932	0.111	-0.064
Mof_C 	C 	0.1204	0.4092	0.0772	0.021
Mof_C 	C 	0.0461	0.3834	0.6279	0.011
Mof_C 	C 	0.0893	0.4145	0.6207	-0.098
Mof_C 	C 	0.0888	0.4252	0.5509	0.025
Mof_C 	C 	0.9928	0.3798	0.4866	0.027
Mof_C 	C 	0.0393	0.4088	0.4845	-0.066
Mof_C 	C 	0.9967	0.3677	0.5569	-0.056
Mof_C 	C 	0.1443	0.4327	0.6982	0.424
Mof_C 	C 	0.8926	0.3024	0.334	-0.046
Mof_C 	C 	0.8589	0.327	0.2694	0.02
Mof_C 	C 	0.9406	0.3614	0.4133	-0.006
Mof_C 	C 	0.863	0.3692	0.2788	-0.044
Mof_C 	C 	0.9335	0.3197	0.4068	-0.031
Mof_C 	C 	0.906	0.3849	0.3504	-0.03
Mof_C 	C 	0.8261	0.3096	0.1892	-0.04
Mof_C 	C 	0.7047	0.3413	0.1763	-0.05
Mof_C 	C 	0.7418	0.3227	0.1424	0.025
Mof_C 	C 	0.7104	0.3087	0.0691	-0.05
Mof_C 	C 	0.6335	0.3524	0.1317	-0.03
Mof_C 	C 	0.3948	0.3921	0.9158	-0.077
Mof_C 	C 	0.512	0.3681	0.9335	-0.061
Mof_C 	C 	0.6369	0.3205	0.0214	-0.02
Mof_C 	C 	0.4087	0.3773	0.9872	-0.021
Mof_C 	C 	0.6003	0.3419	0.0572	-0.001
Mof_C 	C 	0.4439	0.3868	0.8841	0.002
Mof_C 	C 	0.4765	0.3602	0.0359	-0.009
Mof_C 	C 	0.5283	0.356	0.0073	0.017
Mof_C 	C 	0.8702	0.3273	0.1512	0.018
Mof_C 	C 	0.9909	0.339	0.1594	-0.028
Mof_C 	C 	0.8435	0.3528	0.0836	-0.044
Mof_C 	C 	0.9617	0.3618	0.0919	-0.004
Mof_C 	C 	0.9456	0.3235	0.1887	-0.044
Mof_C 	C 	0.8894	0.3697	0.0544	-0.031
Mof_C 	C 	0.0326	0.3938	0.9463	0.007
Mof_C 	C 	0.1005	0.4072	0.9967	-0.093
Mof_C 	C 	0.1447	0.4228	0.9505	0.409
Mof_C 	C 	0.4024	0.5405	0.8457	0.349
Mof_C 	C 	0.6536	0.4527	0.2995	0.029
Mof_C 	C 	0.5763	0.4842	0.1529	-0.004
Mof_C 	C 	0.5632	0.498	0.2136	-0.031
Mof_C 	C 	0.6051	0.4836	0.2907	-0.051
Mof_C 	C 	0.6693	0.4409	0.2439	-0.054
Mof_C 	C 	0.6316	0.4547	0.1648	-0.032
Mof_C 	C 	0.7725	0.4544	0.4121	0.019
Mof_C 	C 	0.8676	0.4974	0.4038	-0.032
Mof_C 	C 	0.7983	0.4796	0.3705	-0.046
Mof_C 	C 	0.9148	0.4869	0.4814	-0.01
Mof_C 	C 	0.8929	0.4605	0.5284	-0.029
Mof_C 	C 	0.8223	0.4459	0.4924	-0.045
Mof_C 	C 	0.699	0.3945	0.374	0.023
Mof_C 	C 	0.7525	0.3285	0.4014	-0.033
Mof_C 	C 	0.6899	0.3114	0.3591	-0.001
Mof_C 	C 	0.6348	0.3758	0.3242	-0.048
Mof_C 	C 	0.7588	0.3699	0.4097	-0.046
Mof_C 	C 	0.6286	0.3347	0.3204	-0.033
Mof_C 	C 	0.696	0.4376	0.3784	-0.043
Mof_C 	C 	0.0934	0.5256	0.506	0.03
Mof_C 	C 	0.1238	0.5329	0.5862	-0.132
Mof_C 	C 	0.0927	0.5272	0.6324	0.034
Mof_C 	C 	0.9885	0.505	0.5178	0.043
Mof_C 	C 	0.0242	0.5097	0.4728	-0.078
Mof_C 	C 	0.0221	0.5119	0.5963	-0.079
Mof_C 	C 	0.6631	0.4484	0.4341	0.022
Mof_C 	C 	0.5977	0.4781	0.5229	-0.006
Mof_C 	C 	0.6449	0.501	0.5116	-0.031
Mof_C 	C 	0.6772	0.4885	0.4661	-0.047
Mof_C 	C 	0.6191	0.4258	0.4509	-0.047
Mof_C 	C 	0.5862	0.4379	0.4953	-0.031
Mof_C 	C 	0.4717	0.5263	0.6281	-0.108
Mof_C 	C 	0.4376	0.5018	0.5702	0.022
Mof_C 	C 	0.5518	0.4938	0.5634	0.023
Mof_C 	C 	0.5441	0.535	0.6571	0.022
Mof_C 	C 	0.4775	0.4874	0.5354	-0.066
Mof_C 	C 	0.5902	0.5183	0.6298	-0.064
Mof_C 	C 	0.6769	0.1889	0.3605	-0.047
Mof_C 	C 	0.6506	0.2075	0.2881	-0.004
Mof_C 	C 	0.6819	0.2686	0.3547	0.016
Mof_C 	C 	0.703	0.2059	0.43	-0.004
Mof_C 	C 	0.6514	0.2483	0.287	-0.051
Mof_C 	C 	0.4503	0.5249	0.9237	-0.11
Mof_C 	C 	0.4661	0.4859	0.937	-0
Mof_C 	C 	0.5328	0.4986	0.0716	0.021
Mof_C 	C 	0.5127	0.475	0.013	-0.047
Mof_C 	C 	0.4718	0.552	0.9844	-0.002
Mof_C 	C 	0.513	0.5374	0.0612	-0.049
Mof_C 	C 	0.428	0.5465	0.6628	0.31
Mof_C 	C 	0.6758	0.1427	0.3599	0.277
Mof_C 	C 	0.3274	0.4178	0.8683	0.374
Mof_C 	C 	0.7881	0.2461	0.2189	-0.046
Mof_C 	C 	0.8279	0.265	0.1877	0.026
Mof_C 	C 	0.8643	0.247	0.1507	-0.048
Mof_C 	C 	0.8013	0.0163	0.1565	0.295
Mof_C 	C 	0.8179	0.1408	0.1779	0.024
Mof_C 	C 	0.872	0.0772	0.1786	0.01
Mof_C 	C 	0.8803	0.1192	0.1873	-0.049
Mof_C 	C 	0.7512	0.0809	0.1587	0.015
Mof_C 	C 	0.8091	0.0615	0.1666	-0.061
Mof_C 	C 	0.2004	0.5498	0.6186	0.37
Mof_C 	C 	0.9876	0.3781	0.9805	-0.066
Mof_C 	C 	0.7546	0.1234	0.1666	-0.045
Mof_C 	C 	0.7071	0.2484	0.4251	-0.046
Mof_C 	C 	0.1352	0.6277	0.1285	-0.025
Mof_C 	C 	0.09	0.6593	0.1294	-0.04
Mof_C 	C 	0.1421	0.6149	0.0655	-0.031
Mof_C 	C 	0.3698	0.6057	0.4444	0.403
Mof_C 	C 	0.1389	0.6027	0.409	0.326
Mof_C 	C 	0.9829	0.6781	0.5586	0.003
Mof_C 	C 	0.9104	0.6735	0.5243	-0.035
Mof_C 	C 	0.909	0.7091	0.6389	0.013
Mof_C 	C 	0.0206	0.6987	0.6291	-0.04
Mof_C 	C 	0.9857	0.7127	0.6658	-0.035
Mof_C 	C 	0.8754	0.687	0.5661	-0.039
Mof_C 	C 	0.0259	0.6566	0.5157	0.021
Mof_C 	C 	0.1311	0.646	0.4988	0.035
Mof_C 	C 	0.0267	0.609	0.418	0.015
Mof_C 	C 	0.0944	0.6702	0.5387	-0.072
Mof_C 	C 	0.1004	0.6213	0.4479	-0.123
Mof_C 	C 	0.7918	0.707	0.6506	0.021
Mof_C 	C 	0.6724	0.7066	0.5462	-0.03
Mof_C 	C 	0.742	0.7228	0.5781	-0.045
Mof_C 	C 	0.6535	0.679	0.5841	-0.003
Mof_C 	C 	0.6958	0.6679	0.6548	-0.03
Mof_C 	C 	0.7668	0.6809	0.6863	-0.047
Mof_C 	C 	0.8699	0.7233	0.6826	-0.038
Mof_C 	C 	0.5757	0.6643	0.5499	0.026
Mof_C 	C 	0.5292	0.67443	0.4755	-0.067
Mof_C 	C 	0.4627	0.6567	0.4401	0.026
Mof_C 	C 	0.4427	0.6287	0.479	-0.117
Mof_C 	C 	0.4891	0.6185	0.5533	0.018
Mof_C 	C 	0.5556	0.6363	0.5887	-0.065
Mof_C 	C 	0.8365	0.8483	0.6529	0.002
Mof_C 	C 	0.8936	0.7908	0.6378	-0.046
Mof_C 	C 	0.8648	0.7687	0.6769	0.022
Mof_C 	C 	0.8789	0.833	0.6285	-0.032
Mof_C 	C 	0.8024	0.8242	0.6917	-0.03
Mof_C 	C 	0.8178	0.7849	0.706	-0.045
Mof_C 	C 	0.7929	0.9486	0.557	0.012
Mof_C 	C 	0.7767	0.9707	0.6091	-0.073
Mof_C 	C 	0.7793	0.9548	0.6764	0.013
Mof_C 	C 	0.8136	0.8906	0.6362	0.019
Mof_C 	C 	0.8124	0.9079	0.5696	-0.05
Mof_C 	C 	0.7977	0.9142	0.6888	-0.049
Mof_C 	C 	0.9141	0.7095	0.7638	0.022
Mof_C 	C 	0.9293	0.67	0.7744	-0.047
Mof_C 	C 	0.9709	0.6548	0.8511	-0.039
Mof_C 	C 	0.9961	0.6794	0.9108	0.007
Mof_C 	C 	0.9829	0.7176	0.9018	-0.035
Mof_C 	C 	0.9406	0.7361	0.8273	-0.047
Mof_C 	C 	0.0482	0.6644	0.9918	-0.001
Mof_C 	C 	0.0916	0.6343	0.9891	-0.053
Mof_C 	C 	0.7614	0.0127	0.5921	0.316
Mof_C 	C 	0.9937	0.6298	0.4596	-0.051
Mof_C 	C 	0.0367	0.6802	0.0526	-0.035
Mof_O 	O 	0.6717	0.12711	0.3001	-0.221
Mof_O 	O 	0.2425	0.54128	0.6894	-0.57
Mof_O 	O 	0.2183	0.57035	0.5771	-0.53
Mof_O 	O 	0.6773	0.1276	0.4208	-0.203
Mof_O 	O 	0.3973	0.5748	0.8331	-0.455
Mof_O 	O 	0.3592	0.54206	0.6305	-0.542
Mof_O 	O 	0.4549	0.5683	0.7197	-0.366
Mof_O 	O 	0.2879	0.4185	0.9036	-0.474
Mof_O 	O 	0.3749	0.5145	0.7928	-0.516
Mof_O 	O 	0.3266	0.43404	0.8129	-0.487
Mof_O 	O 	0.7498	0.0018	0.1628	-0.22
Mof_O 	O 	0.1364	0.4239	0.7505	-0.52
Mof_O 	O 	0.1278	0.4134	0.8925	-0.505
Mof_O 	O 	0.1887	0.454	0.6833	-0.489
Mof_O 	O 	0.1959	0.4411	0.0005	-0.355
Mof_O 	O 	0.8463	0.9977	0.142	-0.217
Mof_O 	O 	0.7471	0.02302	0.526	-0.219
Mof_O 	O 	0.76	0.03147	0.6454	-0.23
Mof_O 	O 	0.2064	0.60816	0.4314	-0.585
Mof_O 	O 	0.3596	0.58252	0.4849	-0.555
Mof_O 	O 	0.3293	0.6168	0.3787	-0.507
Mof_O 	O 	0.1061	0.5795	0.3538	-0.361
Mof_H 	H 	0.75823	0.19009	0.25059	0.044
Mof_H 	H 	0.89362	0.18622	0.12601	0.04
Mof_H 	H 	0.08853	0.3923	0.17474	0.037
Mof_H 	H 	0.17336	0.42358	0.11539	0.032
Mof_H 	H 	0.05332	0.3735	0.68693	0.043
Mof_H 	H 	0.12915	0.44731	0.54938	0.028
Mof_H 	H 	0.03583	0.41881	0.42692	0.038
Mof_H 	H 	0.95774	0.34402	0.55572	0.04
Mof_H 	H 	0.88669	0.26948	0.3271	0.044
Mof_H 	H 	0.83134	0.38885	0.22805	0.039
Mof_H 	H 	0.96041	0.30055	0.45955	0.036
Mof_H 	H 	0.91223	0.41785	0.35628	0.035
Mof_H 	H 	0.73151	0.34769	0.24021	0.044
Mof_H 	H 	0.74161	0.28865	0.04756	0.046
Mof_H 	H 	0.60359	0.37027	0.15822	0.038
Mof_H 	H 	0.55419	0.36299	0.91144	0.038
Mof_H 	H 	0.61075	0.31263	0.95812	0.027
Mof_H 	H 	0.36577	0.37842	0.00915	0.058
Mof_H 	H 	0.4298	0.39683	0.82322	0.036
Mof_H 	H 	0.0509	0.33348	0.18921	0.033
Mof_H 	H 	0.78404	0.35965	0.05261	0.041
Mof_H 	H 	0.96885	0.30693	0.24513	0.043
Mof_H 	H 	0.86626	0.38909	0.00161	0.036
Mof_H 	H 	0.01493	0.39548	0.88196	0.039
Mof_H 	H 	0.51962	0.52058	0.20272	0.03
Mof_H 	H 	0.60031	0.49603	0.34285	0.042
Mof_H 	H 	0.71407	0.41892	0.2561	0.041
Mof_H 	H 	0.64615	0.44255	0.11857	0.036
Mof_H 	H 	0.88357	0.51894	0.36914	0.033
Mof_H 	H 	0.76318	0.48634	0.30781	0.041
Mof_H 	H 	0.9322	0.45319	0.58948	0.034
Mof_H 	H 	0.80443	0.42661	0.52882	0.039
Mof_H 	H 	0.80248	0.31004	0.4319	0.037
Mof_H 	H 	0.58655	0.39389	0.28595	0.041
Mof_H 	H 	0.81359	0.38291	0.44608	0.042
Mof_H 	H 	0.57436	0.32056	0.28625	0.037
Mof_H 	H 	0.12505	0.53263	0.47185	0.005
Mof_H 	H 	0.12249	0.53446	0.69575	-0.017
Mof_H 	H 	0.99766	0.50078	0.41008	0.043
Mof_H 	H 	0.9916	0.50497	0.63171	0.038
Mof_H 	H 	0.65855	0.53092	0.53956	0.034
Mof_H 	H 	0.7142	0.50887	0.45347	0.041
Mof_H 	H 	0.60739	0.3948	0.42794	0.042
Mof_H 	H 	0.55081	0.41773	0.51085	0.033
Mof_H 	H 	0.37915	0.49429	0.55307	0.001
Mof_H 	H 	0.56885	0.55681	0.70578	0.033
Mof_H 	H 	0.45102	0.46927	0.48114	0.033
Mof_H 	H 	0.65056	0.5218	0.65293	0.04
Mof_H 	H 	0.62986	0.18932	0.23363	0.045
Mof_H 	H 	0.71878	0.18729	0.4835	0.053
Mof_H 	H 	0.62693	0.26465	0.23036	0.043
Mof_H 	H 	0.44209	0.46411	0.88817	0.034
Mof_H 	H 	0.53276	0.44369	0.02143	0.045
Mof_H 	H 	0.45667	0.58398	0.972	0.032
Mof_H 	H 	0.52908	0.55752	0.1127	0.037
Mof_H 	H 	0.75634	0.26356	0.2438	0.043
Mof_H 	H 	0.89272	0.26533	0.12314	0.045
Mof_H 	H 	0.91862	0.05842	0.18207	0.048
Mof_H 	H 	0.93267	0.13504	0.20083	0.045
Mof_H 	H 	0.69942	0.06459	0.1459	0.056
Mof_H 	H 	0.93391	0.36547	0.93946	0.041
Mof_H 	H 	0.70785	0.14188	0.16375	0.053
Mof_H 	H 	0.73188	0.26517	0.48124	0.042
Mof_H 	H 	0.16873	0.61132	0.1835	-0.032
Mof_H 	H 	0.09183	0.66991	0.18595	0.022
Mof_H 	H 	0.18299	0.59144	0.07131	0.018
Mof_H 	H 	0.88344	0.65938	0.46549	0.033
Mof_H 	H 	0.08089	0.70279	0.6529	0.028
Mof_H 	H 	0.01559	0.72876	0.72214	0.035
Mof_H 	H 	0.81593	0.67995	0.54052	0.04
Mof_H 	H 	0.19049	0.65006	0.51528	-0.002
Mof_H 	H 	0.00521	0.58662	0.37	0.038
Mof_H 	H 	0.11448	0.69546	0.58073	0.035
Mof_H 	H 	0.63129	0.71674	0.48781	0.033
Mof_H 	H 	0.7561	0.74697	0.54667	0.043
Mof_H 	H 	0.67403	0.6485	0.68763	0.03
Mof_H 	H 	0.8042	0.66862	0.74448	0.04
Mof_H 	H 	0.54565	0.6973	0.44352	0.04
Mof_H 	H 	0.42456	0.6651	0.37921	0.029
Mof_H 	H 	0.47262	0.59557	0.58513	0.025
Mof_H 	H 	0.59375	0.62795	0.64962	0.038
Mof_H 	H 	0.92853	0.77651	0.61286	0.043
Mof_H 	H 	0.90534	0.8519	0.5996	0.038
Mof_H 	H 	0.76248	0.83791	0.71054	0.036
Mof_H 	H 	0.79551	0.76571	0.73864	0.041
Mof_H 	H 	0.79084	0.96278	0.50291	0.052
Mof_H 	H 	0.76723	0.97378	0.71766	0.049
Mof_H 	H 	0.82594	0.89127	0.52663	0.045
Mof_H 	H 	0.80031	0.89906	0.74228	0.043
Mof_H 	H 	0.90925	0.64952	0.72316	0.039
Mof_H 	H 	0.98186	0.62226	0.86014	0.03
Mof_H 	H 	0.00484	0.73775	0.95352	0.032
Mof_H 	H 	0.93138	0.76888	0.82372	0.042
Mof_H 	H 	0.09094	0.62373	0.93304	0.027
Mof_H 	H 	0.93531	0.62425	0.44626	0.038
Mof_H 	H 	0.99843	0.70353	0.05451	0.04
_end
