data_functionalizedCrystal
_audit_creation_method	'EQeq! by Chris Wilmer'
_symmetry_space_group_name_H-M	'P1'
_symmetry_Int_Tables_number	1
_symmetry_cell_setting	triclinic
loop_
_symmetry_equiv_pos_as_xyz
  x,y,z
_cell_length_a	8.603
_cell_length_b	19.2774
_cell_length_c	19.2774
_cell_angle_alpha	62.1728
_cell_angle_beta	81.445
_cell_angle_gamma	98.555
loop_
_atom_site_label
_atom_site_type_symbol
_atom_site_fract_x
_atom_site_fract_y
_atom_site_fract_z
_atom_site_charge
Mof_Mn	Mn	0.2211	0.30323	0.27957	0.781
Mof_Mn	Mn	0.50067	0.27957	0.4172	0.781
Mof_Mn	Mn	0.91787	0.4172	0.30323	0.78
Mof_Mn	Mn	0.7789	0.69677	0.72043	0.781
Mof_Mn	Mn	0.49933	0.72043	0.5828	0.781
Mof_Mn	Mn	0.08213	0.5828	0.69677	0.78
Mof_H 	H 	0.3885	0.3637	0.095	0.035
Mof_H 	H 	0.6653	0.5836	0.0293	0.058
Mof_H 	H 	0.4835	0.095	0.5413	0.035
Mof_H 	H 	0.6946	0.0293	0.3871	0.058
Mof_H 	H 	0.0248	0.5413	0.3637	0.035
Mof_H 	H 	0.0817	0.3871	0.5836	0.058
Mof_H 	H 	0.6115	0.6363	0.905	0.035
Mof_H 	H 	0.3347	0.4164	0.9707	0.058
Mof_H 	H 	0.5165	0.905	0.4587	0.035
Mof_H 	H 	0.3054	0.9707	0.6129	0.058
Mof_H 	H 	0.9752	0.4587	0.6363	0.035
Mof_H 	H 	0.9183	0.6129	0.4164	0.058
Mof_C 	C 	0.5799	0.4366	0.1535	0.131
Mof_C 	C 	0.5378	0.4683	0.0778	-0.012
Mof_C 	C 	0.4335	0.418	0.0572	-0.018
Mof_C 	C 	0.5991	0.5496	0.0178	-0.031
Mof_C 	C 	0.7334	0.1535	0.4099	0.131
Mof_C 	C 	0.6156	0.0778	0.4539	-0.012
Mof_C 	C 	0.4907	0.0572	0.5248	-0.018
Mof_C 	C 	0.6169	0.0178	0.4326	-0.031
Mof_C 	C 	0.1433	0.4099	0.4366	0.131
Mof_C 	C 	0.0695	0.4539	0.4683	-0.012
Mof_C 	C 	0.0155	0.5248	0.418	-0.018
Mof_C 	C 	0.0495	0.4326	0.5496	-0.031
Mof_C 	C 	0.4201	0.5634	0.8465	0.131
Mof_C 	C 	0.4622	0.5317	0.9222	-0.012
Mof_C 	C 	0.5665	0.582	0.9428	-0.018
Mof_C 	C 	0.4009	0.4504	0.9822	-0.031
Mof_C 	C 	0.2666	0.8465	0.5901	0.131
Mof_C 	C 	0.3844	0.9222	0.5461	-0.012
Mof_C 	C 	0.5093	0.9428	0.4752	-0.018
Mof_C 	C 	0.3831	0.9822	0.5674	-0.031
Mof_C 	C 	0.8567	0.5901	0.5634	0.131
Mof_C 	C 	0.9305	0.5461	0.5317	-0.012
Mof_C 	C 	0.9845	0.4752	0.582	-0.018
Mof_C 	C 	0.9505	0.5674	0.4504	-0.031
Mof_N 	N 	0.487	0.3746	0.2238	-0.15
Mof_N 	N 	0.5764	0.3658	0.2783	-0.105
Mof_N 	N 	0.7147	0.4197	0.2392	-0.099
Mof_N 	N 	0.7225	0.4653	0.1621	-0.09
Mof_N 	N 	0.7108	0.2238	0.4016	-0.15
Mof_N 	N 	0.8547	0.2783	0.3559	-0.105
Mof_N 	N 	0.9539	0.2392	0.3411	-0.099
Mof_N 	N 	0.8846	0.1621	0.3726	-0.09
Mof_N 	N 	0.1124	0.4016	0.3746	-0.15
Mof_N 	N 	0.2106	0.3559	0.3658	-0.105
Mof_N 	N 	0.295	0.3411	0.4197	-0.099
Mof_N 	N 	0.2572	0.3726	0.4653	-0.09
Mof_N 	N 	0.513	0.6254	0.7762	-0.15
Mof_N 	N 	0.4236	0.6342	0.7217	-0.105
Mof_N 	N 	0.2853	0.5803	0.7608	-0.099
Mof_N 	N 	0.2775	0.5347	0.8379	-0.09
Mof_N 	N 	0.2892	0.7762	0.5984	-0.15
Mof_N 	N 	0.1453	0.7217	0.6441	-0.105
Mof_N 	N 	0.0461	0.7608	0.6589	-0.099
Mof_N 	N 	0.1154	0.8379	0.6274	-0.09
Mof_N 	N 	0.8876	0.5984	0.6254	-0.15
Mof_N 	N 	0.7894	0.6441	0.6342	-0.105
Mof_N 	N 	0.705	0.6589	0.5803	-0.099
Mof_N 	N 	0.7428	0.6274	0.5347	-0.09
Mof_Cl	Cl	0.11994	0.42152	0.1911	-0.499
Mof_Cl	Cl	0.31104	0.1911	0.38738	-0.5
Mof_Cl	Cl	0.69842	0.38738	0.42152	-0.5
Mof_Cl	Cl	0.88006	0.57848	0.8089	-0.499
Mof_Cl	Cl	0.68896	0.8089	0.61262	-0.5
Mof_Cl	Cl	0.30158	0.61262	0.57848	-0.5
_end
