data_functionalizedCrystal
_audit_creation_method	'EQeq! by Chris Wilmer'
_symmetry_space_group_name_H-M	'P1'
_symmetry_Int_Tables_number	1
_symmetry_cell_setting	triclinic
loop_
_symmetry_equiv_pos_as_xyz
  x,y,z
_cell_length_a	9.5574
_cell_length_b	12.6056
_cell_length_c	18.9892
_cell_angle_alpha	106.131
_cell_angle_beta	98.971
_cell_angle_gamma	100.479
loop_
_atom_site_label
_atom_site_type_symbol
_atom_site_fract_x
_atom_site_fract_y
_atom_site_fract_z
_atom_site_charge
Mof_La	La	0.76682	0.98179	0.99615	2.064
Mof_O 	O 	0.6905	0.0227	0.11957	-0.532
Mof_O 	O 	0.4598	0.0311	0.0882	-0.593
Mof_N 	N 	0.0004	0.1475	0.6786	-0.116
Mof_O 	O 	0.9975	0.889	0.9256	-0.566
Mof_O 	O 	0.7606	0.814	0.8833	-0.481
Mof_O 	O 	0.8579	0.0673	0.9013	-0.495
Mof_N 	N 	0.9572	0.6089	0.6747	-0.111
Mof_O 	O 	0.1026	0.1239	0.9354	-0.515
Mof_C 	C 	0.922	0.2322	0.5775	-0.163
Mof_C 	C 	0.9809	0.3483	0.6023	0.208
Mof_C 	C 	0.7125	0.2588	0.5016	-0.159
Mof_C 	C 	0.9086	0.42	0.5747	-0.155
Mof_C 	C 	0.5681	0.0809	0.2171	-0.128
Mof_C 	C 	0.7735	0.3749	0.5228	0.189
Mof_C 	C 	0.4434	0.1403	0.3159	-0.008
Mof_H 	H 	0.3561	0.1513	0.3317	0.029
Mof_C 	C 	0.4421	0.0992	0.2406	-0.003
Mof_H 	H 	0.354	0.0833	0.2044	0.035
Mof_C 	C 	0.784	0.1852	0.5272	0.208
Mof_C 	C 	0.988	0.1227	0.816	-0.105
Mof_C 	C 	0.6951	0.1021	0.2719	-0.016
Mof_H 	H 	0.7823	0.0869	0.2578	0.042
Mof_C 	C 	0.8745	0.1451	0.7016	0.009
Mof_H 	H 	0.7917	0.1534	0.6707	0.024
Mof_C 	C 	0.982	0.1033	0.8914	0.442
Mof_C 	C 	0.6917	0.1454	0.3466	0.001
Mof_H 	H 	0.7779	0.1614	0.384	0.032
Mof_C 	C 	0.572	0.0404	0.1343	0.471
Mof_C 	C 	0.1241	0.3975	0.6595	-0.556
Mof_H 	H 	0.1463	0.3407	0.683	0.189
Mof_H 	H 	0.1167	0.4652	0.6981	0.188
Mof_H 	H 	0.2021	0.4184	0.6344	0.174
Mof_C 	C 	0.8655	0.1305	0.7701	-0.022
Mof_H 	H 	0.7755	0.1259	0.7858	0.037
Mof_C 	C 	0.0074	0.1533	0.6003	-0.007
Mof_H 	H 	0.1106	0.1792	0.5984	0.02
Mof_H 	H 	0.9691	0.0761	0.5637	0.022
Mof_C 	C 	0.1171	0.1281	0.7908	-0.016
Mof_H 	H 	0.2029	0.1238	0.8217	0.035
Mof_C 	C 	0.9165	0.741	0.8079	-0.123
Mof_C 	C 	0.0559	0.7371	0.7975	0.007
Mof_H 	H 	0.1384	0.7798	0.8365	0.001
Mof_C 	C 	0.9797	0.5463	0.5998	-0.01
Mof_H 	H 	0.0857	0.5565	0.602	0.029
Mof_H 	H 	0.9392	0.5795	0.562	0.026
Mof_C 	C 	0.8898	0.8196	0.8777	0.425
Mof_C 	C 	0.8226	0.6086	0.6851	0.007
Mof_H 	H 	0.7417	0.5623	0.6462	0.022
Mof_C 	C 	0.7211	0.0594	0.5017	-0.564
Mof_H 	H 	0.636	0.0394	0.4603	0.187
Mof_H 	H 	0.6914	0.0368	0.5436	0.183
Mof_H 	H 	0.7947	0.0196	0.4847	0.184
Mof_C 	C 	0.7986	0.674	0.7511	-0.017
Mof_H 	H 	0.7019	0.6732	0.7576	0.038
Mof_C 	C 	0.1207	0.1396	0.7213	0
Mof_H 	H 	0.2085	0.1418	0.7035	0.019
Mof_C 	C 	0.5627	0.2091	0.4492	-0.011
Mof_H 	H 	0.5102	0.1461	0.4638	0.019
Mof_H 	H 	0.5063	0.2684	0.4555	0.025
Mof_C 	C 	0.0738	0.6709	0.7303	-0.015
Mof_H 	H 	0.1694	0.6685	0.7228	0.025
Mof_C 	C 	0.6918	0.4504	0.4897	-0.523
Mof_H 	H 	0.6597	0.4153	0.4351	0.172
Mof_H 	H 	0.7569	0.5255	0.5011	0.169
Mof_H 	H 	0.6067	0.4584	0.5117	0.164
Mof_N 	N 	0.5693	0.165	0.3671	-0.113
Mof_La	La	0.23318	0.01821	0.00385	2.065
Mof_O 	O 	0.3095	0.9773	0.88043	-0.531
Mof_O 	O 	0.5402	0.9689	0.9118	-0.592
Mof_N 	N 	0.9996	0.8525	0.3214	-0.115
Mof_O 	O 	0.0025	0.111	0.0744	-0.566
Mof_O 	O 	0.2394	0.186	0.1167	-0.481
Mof_O 	O 	0.1421	0.9327	0.0987	-0.495
Mof_N 	N 	0.0428	0.3911	0.3253	-0.111
Mof_O 	O 	0.8974	0.8761	0.0646	-0.515
Mof_C 	C 	0.078	0.7678	0.4225	-0.163
Mof_C 	C 	0.0191	0.6517	0.3977	0.208
Mof_C 	C 	0.2875	0.7412	0.4984	-0.159
Mof_C 	C 	0.0914	0.58	0.4253	-0.155
Mof_C 	C 	0.4319	0.9191	0.7829	-0.128
Mof_C 	C 	0.2265	0.6251	0.4772	0.189
Mof_C 	C 	0.5566	0.8597	0.6841	-0.008
Mof_H 	H 	0.6439	0.8487	0.6683	0.029
Mof_C 	C 	0.5579	0.9008	0.7594	-0.003
Mof_H 	H 	0.646	0.9167	0.7956	0.035
Mof_C 	C 	0.216	0.8148	0.4728	0.208
Mof_C 	C 	0.012	0.8773	0.184	-0.105
Mof_C 	C 	0.3049	0.8979	0.7281	-0.016
Mof_H 	H 	0.2177	0.9131	0.7422	0.042
Mof_C 	C 	0.1255	0.8549	0.2984	0.009
Mof_H 	H 	0.2083	0.8466	0.3293	0.024
Mof_C 	C 	0.018	0.8967	0.1086	0.442
Mof_C 	C 	0.3083	0.8546	0.6534	0.001
Mof_H 	H 	0.2221	0.8386	0.616	0.032
Mof_C 	C 	0.428	0.9596	0.8657	0.471
Mof_C 	C 	0.8759	0.6025	0.3405	-0.556
Mof_H 	H 	0.8537	0.6593	0.317	0.189
Mof_H 	H 	0.8833	0.5348	0.3019	0.188
Mof_H 	H 	0.7979	0.5816	0.3656	0.174
Mof_C 	C 	0.1345	0.8695	0.2299	-0.022
Mof_H 	H 	0.2245	0.8741	0.2142	0.037
Mof_C 	C 	0.9926	0.8467	0.3997	-0.007
Mof_H 	H 	0.8894	0.8208	0.4016	0.02
Mof_H 	H 	0.0309	0.9239	0.4363	0.022
Mof_C 	C 	0.8829	0.8719	0.2092	-0.016
Mof_H 	H 	0.7971	0.8762	0.1783	0.035
Mof_C 	C 	0.0835	0.259	0.1921	-0.123
Mof_C 	C 	0.9441	0.2629	0.2025	0.007
Mof_H 	H 	0.8616	0.2202	0.1635	0.001
Mof_C 	C 	0.0203	0.4537	0.4002	-0.01
Mof_H 	H 	0.9143	0.4435	0.398	0.029
Mof_H 	H 	0.0608	0.4205	0.438	0.026
Mof_C 	C 	0.1102	0.1804	0.1223	0.425
Mof_C 	C 	0.1774	0.3914	0.3149	0.007
Mof_H 	H 	0.2583	0.4377	0.3538	0.022
Mof_C 	C 	0.2789	0.9406	0.4983	-0.564
Mof_H 	H 	0.364	0.9606	0.5397	0.187
Mof_H 	H 	0.3086	0.9632	0.4564	0.183
Mof_H 	H 	0.2053	0.9804	0.5153	0.184
Mof_C 	C 	0.2014	0.326	0.2489	-0.017
Mof_H 	H 	0.2981	0.3268	0.2424	0.038
Mof_C 	C 	0.8793	0.8604	0.2787	0
Mof_H 	H 	0.7915	0.8582	0.2965	0.019
Mof_C 	C 	0.4373	0.7909	0.5508	-0.011
Mof_H 	H 	0.4898	0.8539	0.5362	0.019
Mof_H 	H 	0.4937	0.7316	0.5445	0.025
Mof_C 	C 	0.9262	0.3291	0.2697	-0.015
Mof_H 	H 	0.8306	0.3315	0.2772	0.025
Mof_C 	C 	0.3082	0.5496	0.5103	-0.523
Mof_H 	H 	0.3403	0.5847	0.5649	0.172
Mof_H 	H 	0.2431	0.4745	0.4989	0.169
Mof_H 	H 	0.3933	0.5416	0.4883	0.164
Mof_N 	N 	0.4307	0.835	0.6329	-0.113
_end
