data_functionalizedCrystal
_audit_creation_method	'EQeq! by Chris Wilmer'
_symmetry_space_group_name_H-M	'P1'
_symmetry_Int_Tables_number	1
_symmetry_cell_setting	triclinic
loop_
_symmetry_equiv_pos_as_xyz
  x,y,z
_cell_length_a	14.416
_cell_length_b	14.7249
_cell_length_c	14.7249
_cell_angle_alpha	76.1358
_cell_angle_beta	60.6915
_cell_angle_gamma	60.6916
loop_
_atom_site_label
_atom_site_type_symbol
_atom_site_fract_x
_atom_site_fract_y
_atom_site_fract_z
_atom_site_charge
Mof_Cd	Cd	0.96748	0.78029	0.18939	0.461
Mof_Cd	Cd	0.56284	0.28029	0.68939	0.463
Mof_Cd	Cd	0.74777	0.68939	0.21971	0.463
Mof_Cd	Cd	0.84313	0.18939	0.71971	0.463
Mof_Cd	Cd	0.15687	0.81061	0.28029	0.463
Mof_Cd	Cd	0.03252	0.21971	0.81061	0.461
Mof_Cd	Cd	0.25223	0.31061	0.78029	0.463
Mof_Cd	Cd	0.43716	0.71971	0.31061	0.463
Mof_H 	H 	0.3454	0.9209	0.4123	0.081
Mof_H 	H 	0.7299	0.1933	0.1515	0.066
Mof_H 	H 	0.5	0.3679	0.2273	0.043
Mof_H 	H 	0.8814	0.8485	0.6933	0.066
Mof_H 	H 	0.4619	0.8585	0.0751	0.063
Mof_H 	H 	0.1045	0.3585	0.5751	0.063
Mof_H 	H 	0.2969	0.4389	0.2815	0.067
Mof_H 	H 	0.5	0.6321	0.7727	0.043
Mof_H 	H 	0.3204	0.5751	0.1415	0.063
Mof_H 	H 	0.4253	0.6933	0.6515	0.067
Mof_H 	H 	0.2701	0.8067	0.8485	0.066
Mof_H 	H 	0.1186	0.1515	0.3067	0.066
Mof_H 	H 	0.4827	0.9389	0.7815	0.066
Mof_H 	H 	0.6546	0.0791	0.5877	0.081
Mof_H 	H 	0.7031	0.5611	0.7185	0.067
Mof_H 	H 	0.5952	0.1321	0.2727	0.045
Mof_H 	H 	0.2727	0.2273	0.1321	0.043
Mof_H 	H 	0.7358	0.7815	0.5611	0.066
Mof_H 	H 	0.7273	0.7727	0.8679	0.043
Mof_H 	H 	0.2642	0.2185	0.4389	0.066
Mof_H 	H 	0.6796	0.4249	0.8585	0.063
Mof_H 	H 	0.5784	0.7185	0.9389	0.067
Mof_H 	H 	0.8955	0.6415	0.4249	0.063
Mof_H 	H 	0.2663	0.9123	0.0791	0.081
Mof_H 	H 	0.4048	0.8679	0.7273	0.045
Mof_H 	H 	0.4216	0.2815	0.0611	0.067
Mof_H 	H 	0.537	0.9249	0.3585	0.063
Mof_H 	H 	0.5747	0.3067	0.3485	0.067
Mof_H 	H 	0.5381	0.1415	0.9249	0.063
Mof_H 	H 	0.2423	0.4123	0.5791	0.083
Mof_H 	H 	0.1786	0.5791	0.0877	0.084
Mof_H 	H 	0.1321	0.2727	0.3679	0.045
Mof_H 	H 	0.5173	0.0611	0.2185	0.066
Mof_H 	H 	0.8214	0.4209	0.9123	0.084
Mof_H 	H 	0.8679	0.7273	0.6321	0.045
Mof_H 	H 	0.9232	0.6515	0.8067	0.068
Mof_H 	H 	0.463	0.0751	0.6415	0.063
Mof_H 	H 	0.0768	0.3485	0.1933	0.068
Mof_H 	H 	0.7577	0.5877	0.4209	0.083
Mof_H 	H 	0.7337	0.0877	0.9209	0.081
Mof_C 	C 	0.3932	0.5443	0.0845	-0.044
Mof_C 	C 	0.6829	0.9344	0.5682	0.04
Mof_C 	C 	0.8227	0.7981	0.6259	-0.011
Mof_C 	C 	0.8636	0.6296	0.8394	-0.048
Mof_C 	C 	0.5358	0.6796	0.445	0.28
Mof_C 	C 	0.6208	0.1259	0.2019	-0.012
Mof_C 	C 	0.1075	0.4762	0.1468	-0.023
Mof_C 	C 	0.4051	0.1383	0.8577	0.307
Mof_C 	C 	0.5949	0.8617	0.1423	0.307
Mof_C 	C 	0.1674	0.1296	0.3394	-0.043
Mof_C 	C 	0.8326	0.8704	0.6606	-0.043
Mof_C 	C 	0.5068	0.6606	0.6296	-0.047
Mof_C 	C 	0.9808	0.555	0.1796	0.279
Mof_C 	C 	0.6571	0.6696	0.9184	-0.08
Mof_C 	C 	0.6173	0.0682	0.0656	0.039
Mof_C 	C 	0.9375	0.5845	0.4557	-0.045
Mof_C 	C 	0.0989	0.6383	0.3577	0.307
Mof_C 	C 	0.4071	0.0296	0.473	0.024
Mof_C 	C 	0.704	0.0989	0.9913	-0.061
Mof_C 	C 	0.4163	0.3532	0.4762	-0.025
Mof_C 	C 	0.7457	0.1468	0.0238	-0.031
Mof_C 	C 	0.2511	0.4318	0.4344	0.044
Mof_C 	C 	0.0551	0.5601	0.4259	-0.064
Mof_C 	C 	0.5434	0.3577	0.8617	0.307
Mof_C 	C 	0.481	0.5741	0.0601	-0.065
Mof_C 	C 	0.4642	0.3204	0.555	0.28
Mof_C 	C 	0.1199	0.473	0.4704	0.024
Mof_C 	C 	0.7489	0.5682	0.5656	0.044
Mof_C 	C 	0.2154	0.945	0.3204	0.283
Mof_C 	C 	0.2628	0.1423	0.6383	0.307
Mof_C 	C 	0.8925	0.5238	0.8532	-0.023
Mof_C 	C 	0.5633	0.027	0.0296	0.023
Mof_C 	C 	0.9011	0.3617	0.6423	0.307
Mof_C 	C 	0.6152	0.9259	0.4399	-0.065
Mof_C 	C 	0.6068	0.4557	0.9155	-0.044
Mof_C 	C 	0.7451	0.8304	0.5816	-0.076
Mof_C 	C 	0.5755	0.0816	0.1696	-0.076
Mof_C 	C 	0.7695	0.9762	0.6468	-0.03
Mof_C 	C 	0.3848	0.0741	0.5601	-0.065
Mof_C 	C 	0.3827	0.9318	0.9344	0.039
Mof_C 	C 	0.5514	0.6259	0.7019	-0.008
Mof_C 	C 	0.1364	0.3704	0.1606	-0.048
Mof_C 	C 	0.2549	0.1696	0.4184	-0.076
Mof_C 	C 	0.522	0.9557	0.4155	-0.044
Mof_C 	C 	0.4932	0.3394	0.3704	-0.047
Mof_C 	C 	0.7058	0.5989	0.4913	-0.068
Mof_C 	C 	0.7846	0.055	0.6796	0.283
Mof_C 	C 	0.3429	0.3304	0.0816	-0.08
Mof_C 	C 	0.0625	0.4155	0.5443	-0.045
Mof_C 	C 	0.5223	0.0845	0.9557	-0.043
Mof_C 	C 	0.297	0.8394	0.8704	-0.042
Mof_C 	C 	0.3792	0.8741	0.7981	-0.012
Mof_C 	C 	0.4097	0.4704	0.027	0.023
Mof_C 	C 	0.6953	0.0087	0.5989	-0.062
Mof_C 	C 	0.5837	0.6468	0.5238	-0.025
Mof_C 	C 	0.1971	0.5087	0.0989	-0.069
Mof_C 	C 	0.3145	0.4344	0.0682	0.044
Mof_C 	C 	0.4245	0.9184	0.8304	-0.076
Mof_C 	C 	0.4589	0.0601	0.9259	-0.065
Mof_C 	C 	0.2305	0.0238	0.3532	-0.03
Mof_C 	C 	0.5903	0.5296	0.973	0.023
Mof_C 	C 	0.6733	0.5816	0.6696	-0.08
Mof_C 	C 	0.0192	0.445	0.8204	0.279
Mof_C 	C 	0.2543	0.8532	0.9762	-0.031
Mof_C 	C 	0.8801	0.527	0.5296	0.024
Mof_C 	C 	0.4486	0.3741	0.2981	-0.008
Mof_C 	C 	0.4566	0.6423	0.1383	0.307
Mof_C 	C 	0.703	0.1606	0.1296	-0.042
Mof_C 	C 	0.1773	0.2019	0.3741	-0.011
Mof_C 	C 	0.3171	0.0656	0.4318	0.04
Mof_C 	C 	0.8396	0.1796	0.945	0.283
Mof_C 	C 	0.8029	0.4913	0.9011	-0.069
Mof_C 	C 	0.9449	0.4399	0.5741	-0.064
Mof_C 	C 	0.1604	0.8204	0.055	0.283
Mof_C 	C 	0.478	0.0443	0.5845	-0.044
Mof_C 	C 	0.4367	0.973	0.9704	0.023
Mof_C 	C 	0.3267	0.4184	0.3304	-0.08
Mof_C 	C 	0.5411	0.9399	0.0741	-0.065
Mof_C 	C 	0.296	0.9011	0.0087	-0.061
Mof_C 	C 	0.2942	0.4011	0.5087	-0.068
Mof_C 	C 	0.7467	0.7019	0.8741	-0.007
Mof_C 	C 	0.2533	0.2981	0.1259	-0.007
Mof_C 	C 	0.5929	0.9704	0.527	0.024
Mof_C 	C 	0.519	0.4259	0.9399	-0.065
Mof_C 	C 	0.6855	0.5656	0.9318	0.044
Mof_C 	C 	0.4777	0.9155	0.0443	-0.043
Mof_C 	C 	0.3047	0.9913	0.4011	-0.062
Mof_C 	C 	0.7372	0.8577	0.3617	0.307
Mof_O 	O 	0.8428	0.33602	0.62158	-0.273
Mof_O 	O 	0.35512	0.71558	0.17918	-0.291
Mof_O 	O 	0.83329	0.02987	0.73815	-0.262
Mof_O 	O 	0.3004	0.16398	0.87842	-0.273
Mof_O 	O 	0.10119	0.85658	0.14784	-0.279
Mof_O 	O 	0.39439	0.35658	0.64784	-0.279
Mof_O 	O 	0.04223	0.35216	0.85658	-0.279
Mof_O 	O 	0.9293	0.32082	0.71558	-0.29
Mof_O 	O 	0.1572	0.66398	0.37842	-0.273
Mof_O 	O 	0.10131	0.47013	0.76185	-0.262
Mof_O 	O 	0.64488	0.28442	0.82082	-0.291
Mof_O 	O 	0.25012	0.21558	0.67918	-0.291
Mof_O 	O 	0.75097	0.14784	0.64342	-0.28
Mof_O 	O 	0.13684	0.76185	0.02987	-0.262
Mof_O 	O 	0.0707	0.67918	0.28442	-0.29
Mof_O 	O 	0.89881	0.14342	0.85216	-0.279
Mof_O 	O 	0.4657	0.17918	0.78442	-0.291
Mof_O 	O 	0.17882	0.12158	0.66398	-0.273
Mof_O 	O 	0.95777	0.64784	0.14342	-0.279
Mof_O 	O 	0.53562	0.62158	0.16398	-0.273
Mof_O 	O 	0.16671	0.97013	0.26185	-0.262
Mof_O 	O 	0.86316	0.23815	0.97013	-0.262
Mof_O 	O 	0.46438	0.37842	0.83602	-0.273
Mof_O 	O 	0.74988	0.78442	0.32082	-0.291
Mof_O 	O 	0.5343	0.82082	0.21558	-0.291
Mof_O 	O 	0.82118	0.87842	0.33602	-0.273
Mof_O 	O 	0.24903	0.85216	0.35658	-0.28
Mof_O 	O 	0.60561	0.64342	0.35216	-0.279
Mof_O 	O 	0.42856	0.73815	0.47013	-0.262
Mof_O 	O 	0.57144	0.26185	0.52987	-0.262
Mof_O 	O 	0.89869	0.52987	0.23815	-0.262
Mof_O 	O 	0.6996	0.83602	0.12158	-0.273
_end
