data_functionalizedCrystal
_audit_creation_method	'EQeq! by Chris Wilmer'
_symmetry_space_group_name_H-M	'P1'
_symmetry_Int_Tables_number	1
_symmetry_cell_setting	triclinic
loop_
_symmetry_equiv_pos_as_xyz
  x,y,z
_cell_length_a	17.4843
_cell_length_b	17.4843
_cell_length_c	22.5856
_cell_angle_alpha	90
_cell_angle_beta	90
_cell_angle_gamma	120
loop_
_atom_site_label
_atom_site_type_symbol
_atom_site_fract_x
_atom_site_fract_y
_atom_site_fract_z
_atom_site_charge
Mof_Sr	Sr	0.58079	0.25492	0.71229	1.684
Mof_Sr	Sr	0.67413	0.41921	0.04562	1.599
Mof_Sr	Sr	0.74508	0.32587	0.37896	1.684
Mof_H 	H 	0.4371	0.1827	0.9926	0.221
Mof_H 	H 	0.004	0.7679	0.9417	0.028
Mof_H 	H 	0.1283	0.1749	0.9366	0.065
Mof_H 	H 	0.9535	0.1988	0.9748	0.242
Mof_H 	H 	0.6598	0.5882	0.9406	0.051
Mof_H 	H 	0.9461	0.0612	0.8252	0.088
Mof_H 	H 	0.0492	0.2347	0.8751	0.014
Mof_H 	H 	0.0555	0.9132	0.8853	0
Mof_H 	H 	0.412	0.5303	0.7345	0.06
Mof_H 	H 	0.5007	0.5457	0.7664	0.047
Mof_H 	H 	0.2103	0.5977	0.9443	0.047
Mof_H 	H 	0.9385	0.0711	0.9366	0.068
Mof_H 	H 	0.7706	0.296	0.8551	0.063
Mof_H 	H 	0.0348	0.5212	0.8983	0.058
Mof_H 	H 	0.0698	0.2868	0.7562	0.215
Mof_H 	H 	0.2957	0.8468	0.9542	0.061
Mof_H 	H 	0.8975	0.6544	0.8834	0.048
Mof_H 	H 	0.2996	0.8733	0.838	0.05
Mof_H 	H 	0.655	0.4334	0.8932	0.045
Mof_H 	H 	0.8892	0.8394	0.9469	0.065
Mof_H 	H 	0.8047	0.1868	0.9349	0.062
Mof_H 	H 	0.2816	0.0406	0.911	0.06
Mof_H 	H 	0.1086	0.1115	0.0168	0.153
Mof_H 	H 	0.5253	0.4004	0.8443	0.016
Mof_H 	H 	0.4062	0.1315	0.886	0.054
Mof_H 	H 	0.6495	0.6343	0.8392	0.045
Mof_H 	H 	0.5258	0.1034	0.9576	0.071
Mof_H 	H 	0.774	0.5728	0.8555	0.059
Mof_H 	H 	0.9163	0.3606	0.8894	0.065
Mof_H 	H 	0.1785	0.917	0.9622	0.026
Mof_H 	H 	0.6821	0.6486	0.7394	0.061
Mof_H 	H 	0.7721	0.7088	0.7746	0.053
Mof_H 	H 	0.986	0.2961	0.8351	0.015
Mof_H 	H 	0.6572	0.2959	0.8636	-0.016
Mof_H 	H 	0.5363	0.2673	0.9233	0.048
Mof_H 	H 	0.2597	0.3221	0.8953	0.063
Mof_H 	H 	0.4037	0.5487	0.8391	0.042
Mof_H 	H 	0.0757	0.6563	0.8528	0.013
Mof_H 	H 	0.1282	0.7808	0.8932	0.043
Mof_H 	H 	0.4057	0.3868	0.8532	0.068
Mof_H 	H 	0.0245	0.1303	0.7358	0.061
Mof_H 	H 	0.9599	0.1656	0.7561	0.053
Mof_H 	H 	0.1197	0.0503	0.8892	0.019
Mof_H 	H 	0.9733	0.9351	0.7682	0.032
Mof_H 	H 	0.0458	0.9061	0.7778	0.002
Mof_H 	H 	0.3825	0.4929	0.9407	0.042
Mof_H 	H 	0.8803	0.8347	0.8351	0.068
Mof_H 	H 	0.1807	0.3805	0.851	0.02
Mof_H 	H 	0.1873	0.7729	0.7724	0.041
Mof_H 	H 	0.1263	0.8143	0.7889	0.035
Mof_H 	H 	0.392	0.0041	0.7883	0.095
Mof_H 	H 	0.4003	0.099	0.7802	0.061
Mof_H 	H 	0.2686	0.6495	0.8373	0.047
Mof_H 	H 	0.7394	0.1423	0.7369	0.043
Mof_H 	H 	0.6568	0.1207	0.7782	0.033
Mof_H 	H 	0.1338	0.4652	0.8531	0.028
Mof_H 	H 	0.2439	0.6132	0.7345	0.048
Mof_H 	H 	0.2927	0.5692	0.7682	0.045
Mof_H 	H 	0.7651	0.1301	0.8376	0.05
Mof_H 	H 	0.8438	0.6861	0.9856	0.241
Mof_H 	H 	0.7635	0.5642	0.7612	0.246
Mof_H 	H 	0.2183	0.7709	0.02	0.199
Mof_H 	H 	0.0075	0.3066	0.9364	0.169
Mof_H 	H 	0.8325	0.3381	0.9747	0.248
Mof_H 	H 	0.1265	0.4617	0.7686	0.228
Mof_H 	H 	0.1104	0.656	0.9723	0.252
Mof_H 	H 	0.4691	0.4221	0.7347	0.234
Mof_H 	H 	0.078	0.4363	0.9577	0.234
Mof_H 	H 	0.2626	0.9998	0.0253	0.2
Mof_H 	H 	0.0271	0.9471	0.988	0.192
Mof_H 	H 	0.3567	0.3728	0.9959	0.232
Mof_H 	H 	0.9281	0.7731	0.74	0.25
Mof_H 	H 	0.2185	0.4107	0.9716	0.242
Mof_H 	H 	0.5188	0.0642	0.8472	0.038
Mof_H 	H 	0.1982	0.876	0.7074	0.211
Mof_H 	H 	0.7456	0.5629	0.32593	0.215
Mof_H 	H 	0.7639	0.996	0.27503	0.028
Mof_H 	H 	0.0466	0.8717	0.26993	0.056
Mof_H 	H 	0.2453	0.0465	0.30813	0.239
Mof_H 	H 	0.9284	0.3402	0.27393	0.046
Mof_H 	H 	0.1151	0.0539	0.15853	0.067
Mof_H 	H 	0.1855	0.9508	0.20843	0.018
Mof_H 	H 	0.8577	0.9445	0.21863	0.009
Mof_H 	H 	0.1183	0.588	0.06783	0.057
Mof_H 	H 	0.045	0.4993	0.09973	0.041
Mof_H 	H 	0.3874	0.7897	0.27763	0.037
Mof_H 	H 	0.1326	0.0615	0.26993	0.048
Mof_H 	H 	0.5254	0.2294	0.18843	0.063
Mof_H 	H 	0.4864	0.9652	0.23163	0.057
Mof_H 	H 	0.217	0.9302	0.08953	0.217
Mof_H 	H 	0.5511	0.7043	0.28753	0.037
Mof_H 	H 	0.7569	0.1025	0.21673	0.046
Mof_H 	H 	0.5737	0.7004	0.17133	0.05
Mof_H 	H 	0.7784	0.345	0.22653	0.042
Mof_H 	H 	0.9502	0.1108	0.28023	0.064
Mof_H 	H 	0.3821	0.1953	0.26823	0.051
Mof_H 	H 	0.759	0.7184	0.24433	0.01
Mof_H 	H 	0.0029	0.8914	0.35013	0.207
Mof_H 	H 	0.8751	0.4747	0.17763	0.02
Mof_H 	H 	0.7253	0.5938	0.21933	0.049
Mof_H 	H 	0.9848	0.3505	0.17253	0.05
Mof_H 	H 	0.5776	0.4742	0.29093	0.059
Mof_H 	H 	0.7988	0.226	0.18883	0.057
Mof_H 	H 	0.4443	0.0837	0.22273	0.064
Mof_H 	H 	0.7385	0.8215	0.29553	0.047
Mof_H 	H 	0.9665	0.3179	0.07273	0.051
Mof_H 	H 	0.9367	0.2279	0.10793	0.047
Mof_H 	H 	0.3101	0.014	0.16843	0.013
Mof_H 	H 	0.6387	0.3428	0.19693	-0.015
Mof_H 	H 	0.731	0.4637	0.25663	0.044
Mof_H 	H 	0.0624	0.7403	0.22863	0.051
Mof_H 	H 	0.145	0.5963	0.17243	0.029
Mof_H 	H 	0.5806	0.9243	0.18613	0.013
Mof_H 	H 	0.6526	0.8718	0.22653	0.049
Mof_H 	H 	0.9811	0.5943	0.18653	0.105
Mof_H 	H 	0.1058	0.9755	0.06913	0.035
Mof_H 	H 	0.2057	0.0401	0.08943	0.04
Mof_H 	H 	0.9306	0.8803	0.22253	0.006
Mof_H 	H 	0.9618	0.0267	0.10153	0.042
Mof_H 	H 	0.8603	0.9542	0.11113	0.008
Mof_H 	H 	0.1104	0.6175	0.27403	0.036
Mof_H 	H 	0.9544	0.1197	0.16843	0.069
Mof_H 	H 	0.1998	0.8193	0.18433	0.018
Mof_H 	H 	0.5856	0.8127	0.10573	0.038
Mof_H 	H 	0.688	0.8737	0.12223	0.036
Mof_H 	H 	0.6121	0.608	0.12163	0.076
Mof_H 	H 	0.6987	0.5997	0.11353	0.05
Mof_H 	H 	0.3809	0.7314	0.17063	0.045
Mof_H 	H 	0.4029	0.2606	0.07023	0.023
Mof_H 	H 	0.4639	0.3432	0.11153	0.022
Mof_H 	H 	0.3314	0.8662	0.18643	0.028
Mof_H 	H 	0.3693	0.7561	0.06783	0.037
Mof_H 	H 	0.2765	0.7073	0.10153	0.039
Mof_H 	H 	0.365	0.2349	0.17093	0.042
Mof_H 	H 	0.8423	0.1562	0.31893	0.238
Mof_H 	H 	0.8007	0.2365	0.09453	0.248
Mof_H 	H 	0.5526	0.7817	0.35333	0.26
Mof_H 	H 	0.2991	0.9925	0.26973	0.172
Mof_H 	H 	0.5056	0.1675	0.30803	0.245
Mof_H 	H 	0.3352	0.8735	0.10193	0.228
Mof_H 	H 	0.5456	0.8896	0.30563	0.248
Mof_H 	H 	0.953	0.5309	0.06803	0.222
Mof_H 	H 	0.3583	0.922	0.29103	0.234
Mof_H 	H 	0.7372	0.7374	0.35863	0.203
Mof_H 	H 	0.92	0.9729	0.32133	0.211
Mof_H 	H 	0.0161	0.6433	0.32923	0.178
Mof_H 	H 	0.845	0.0719	0.07333	0.247
Mof_H 	H 	0.1922	0.7815	0.30493	0.238
Mof_H 	H 	0.5454	0.4812	0.18053	0.034
Mof_H 	H 	0.6778	0.8018	0.04073	0.202
Mof_H 	H 	0.8173	0.2544	0.65927	0.214
Mof_H 	H 	0.2321	0.2361	0.60837	0.066
Mof_H 	H 	0.8251	0.9534	0.60327	0.059
Mof_H 	H 	0.8012	0.7547	0.64147	0.241
Mof_H 	H 	0.4118	0.0716	0.60727	0.046
Mof_H 	H 	0.9388	0.8849	0.49187	0.04
Mof_H 	H 	0.7653	0.8145	0.54177	0.057
Mof_H 	H 	0.0868	0.1423	0.55197	0.038
Mof_H 	H 	0.4697	0.8817	0.40117	0.071
Mof_H 	H 	0.4543	0.955	0.43307	0.049
Mof_H 	H 	0.4023	0.6126	0.61097	0.036
Mof_H 	H 	0.9289	0.8674	0.60327	0.052
Mof_H 	H 	0.704	0.4746	0.52177	0.062
Mof_H 	H 	0.4788	0.5136	0.56497	0.069
Mof_H 	H 	0.7132	0.783	0.42287	0.223
Mof_H 	H 	0.1532	0.4489	0.62087	0.036
Mof_H 	H 	0.3456	0.2431	0.55007	0.035
Mof_H 	H 	0.1267	0.4263	0.50467	0.045
Mof_H 	H 	0.5666	0.2216	0.55987	0.042
Mof_H 	H 	0.1606	0.0498	0.61357	0.05
Mof_H 	H 	0.8132	0.6179	0.60157	0.056
Mof_H 	H 	0.9594	0.241	0.57767	0.052
Mof_H 	H 	0.8885	0.9971	0.68347	0.209
Mof_H 	H 	0.5996	0.1249	0.51097	0.021
Mof_H 	H 	0.8685	0.2747	0.55267	0.055
Mof_H 	H 	0.3657	0.0152	0.50587	0.05
Mof_H 	H 	0.8966	0.4224	0.62427	0.062
Mof_H 	H 	0.4272	0.2012	0.52217	0.058
Mof_H 	H 	0.6394	0.5557	0.55607	0.054
Mof_H 	H 	0.083	0.2615	0.62887	0.039
Mof_H 	H 	0.3514	0.0335	0.40607	0.067
Mof_H 	H 	0.2912	0.0633	0.44127	0.056
Mof_H 	H 	0.7039	0.6899	0.50177	0.005
Mof_H 	H 	0.7041	0.3613	0.53027	-0.016
Mof_H 	H 	0.7327	0.269	0.58997	0.045
Mof_H 	H 	0.6779	0.9376	0.56197	0.053
Mof_H 	H 	0.4513	0.855	0.50577	0.029
Mof_H 	H 	0.3437	0.4194	0.51947	0.02
Mof_H 	H 	0.2192	0.3474	0.55987	0.051
Mof_H 	H 	0.6132	0.0189	0.51987	0.106
Mof_H 	H 	0.8697	0.8942	0.40247	0.059
Mof_H 	H 	0.8344	0.7943	0.42277	0.029
Mof_H 	H 	0.9497	0.0694	0.55587	0.003
Mof_H 	H 	0.0649	0.0382	0.43487	0.057
Mof_H 	H 	0.0939	0.1397	0.44447	0.047
Mof_H 	H 	0.5071	0.8896	0.60737	0.036
Mof_H 	H 	0.1653	0.0456	0.50177	0.058
Mof_H 	H 	0.6195	0.8002	0.51767	0.02
Mof_H 	H 	0.2271	0.4144	0.43907	0.045
Mof_H 	H 	0.1857	0.312	0.45557	0.043
Mof_H 	H 	0.9959	0.3879	0.45497	0.095
Mof_H 	H 	0.901	0.3013	0.44687	0.062
Mof_H 	H 	0.3505	0.6191	0.50397	0.044
Mof_H 	H 	0.8577	0.5971	0.40357	0.041
Mof_H 	H 	0.8793	0.5361	0.44487	0.032
Mof_H 	H 	0.5348	0.6686	0.51977	0.033
Mof_H 	H 	0.3868	0.6307	0.40117	0.049
Mof_H 	H 	0.4308	0.7235	0.43487	0.044
Mof_H 	H 	0.8699	0.635	0.50427	0.047
Mof_H 	H 	0.3139	0.1577	0.65227	0.235
Mof_H 	H 	0.4358	0.1993	0.42787	0.246
Mof_H 	H 	0.2291	0.4474	0.68667	0.258
Mof_H 	H 	0.6934	0.7009	0.60307	0.213
Mof_H 	H 	0.6619	0.4944	0.64137	0.242
Mof_H 	H 	0.5383	0.6648	0.43527	0.232
Mof_H 	H 	0.344	0.4544	0.63897	0.246
Mof_H 	H 	0.5779	0.047	0.40137	0.228
Mof_H 	H 	0.5637	0.6417	0.62437	0.244
Mof_H 	H 	0.0002	0.2628	0.69197	0.197
Mof_H 	H 	0.0529	0.08	0.65467	0.242
Mof_H 	H 	0.6272	0.9839	0.66257	0.18
Mof_H 	H 	0.2269	0.155	0.40667	0.24
Mof_H 	H 	0.5893	0.8078	0.63827	0.239
Mof_H 	H 	0.9358	0.4546	0.51387	0.035
Mof_H 	H 	0.124	0.3222	0.37407	0.213
Mof_C 	C 	0.9429	0.759	0.942	0.11
Mof_C 	C 	0.0727	0.1163	0.9387	-0.008
Mof_C 	C 	0.6905	0.557	0.9252	0.069
Mof_C 	C 	0.0019	0.1197	0.8261	-0.024
Mof_C 	C 	0.9969	0.1737	0.8762	0.093
Mof_C 	C 	0.9927	0.8995	0.8875	0.103
Mof_C 	C 	0.4364	0.5045	0.7626	0.028
Mof_C 	C 	0.157	0.5455	0.9273	0.094
Mof_C 	C 	0.9936	0.1302	0.9353	0.101
Mof_C 	C 	0.7545	0.2359	0.8699	0.034
Mof_C 	C 	0.0897	0.5743	0.9127	0.016
Mof_C 	C 	0.2346	0.8379	0.9532	0.068
Mof_C 	C 	0.8967	0.7112	0.8854	0.125
Mof_C 	C 	0.2381	0.8623	0.8424	0.034
Mof_C 	C 	0.6224	0.463	0.9081	-0.003
Mof_C 	C 	0.9499	0.8478	0.9436	0.028
Mof_C 	C 	0.8148	0.2462	0.923	0.09
Mof_C 	C 	0.2847	0.9852	0.9066	0.064
Mof_C 	C 	0.5641	0.4626	0.8581	0.171
Mof_C 	C 	0.4371	0.0976	0.8945	-0.01
Mof_C 	C 	0.681	0.604	0.8234	0.036
Mof_C 	C 	0.4966	0.1384	0.9475	0.103
Mof_C 	C 	0.7438	0.6045	0.8709	0.027
Mof_C 	C 	0.9088	0.303	0.9033	0.008
Mof_C 	C 	0.2401	0.9274	0.96	0.116
Mof_C 	C 	0.7258	0.647	0.7665	0.032
Mof_C 	C 	0.9246	0.2573	0.8501	0.159
Mof_C 	C 	0.6155	0.2333	0.8751	0.22
Mof_C 	C 	0.5669	0.2329	0.9313	-0.017
Mof_C 	C 	0.271	0.3807	0.9104	0.019
Mof_C 	C 	0.3914	0.4902	0.8232	0.049
Mof_C 	C 	0.1232	0.6427	0.8634	0.171
Mof_C 	C 	0.1917	0.7969	0.8924	0.038
Mof_C 	C 	0.4201	0.4462	0.8685	0.03
Mof_C 	C 	0.0144	0.1646	0.7666	0.017
Mof_C 	C 	0.0689	0.0611	0.8867	0.167
Mof_C 	C 	0.9815	0.8839	0.7758	0.136
Mof_C 	C 	0.3684	0.4338	0.9249	0.089
Mof_C 	C 	0.942	0.8454	0.8337	-0.029
Mof_C 	C 	0.2438	0.4214	0.8619	0.152
Mof_C 	C 	0.1882	0.828	0.7839	0.044
Mof_C 	C 	0.4344	0.0681	0.7847	-0.051
Mof_C 	C 	0.2154	0.595	0.8224	0.039
Mof_C 	C 	0.7177	0.1669	0.7678	0.035
Mof_C 	C 	0.1853	0.52	0.8693	0.028
Mof_C 	C 	0.236	0.5688	0.7647	0.03
Mof_C 	C 	0.7742	0.1871	0.8209	0.043
Mof_C 	C 	0.4898	0.1002	0.8399	0.094
Mof_C 	C 	0.8161	0.0571	0.27533	0.104
Mof_C 	C 	0.0436	0.9273	0.27203	-0.023
Mof_C 	C 	0.8665	0.3095	0.25853	0.07
Mof_C 	C 	0.1178	0.9981	0.15943	-0.016
Mof_C 	C 	0.1768	0.0031	0.20953	0.081
Mof_C 	C 	0.9068	0.0073	0.22083	0.091
Mof_C 	C 	0.0681	0.5636	0.09593	-0.013
Mof_C 	C 	0.3885	0.843	0.26063	0.098
Mof_C 	C 	0.1366	0.0064	0.26863	0.109
Mof_C 	C 	0.4814	0.2455	0.20323	0.032
Mof_C 	C 	0.4846	0.9103	0.24603	0.014
Mof_C 	C 	0.6033	0.7654	0.28653	0.12
Mof_C 	C 	0.8145	0.1033	0.21873	0.128
Mof_C 	C 	0.6242	0.7619	0.17573	0.047
Mof_C 	C 	0.8406	0.3776	0.24143	0.001
Mof_C 	C 	0.8979	0.0501	0.27693	0.04
Mof_C 	C 	0.4314	0.1852	0.25633	0.093
Mof_C 	C 	0.7005	0.7153	0.23993	0.166
Mof_C 	C 	0.8985	0.4359	0.19143	0.16
Mof_C 	C 	0.6605	0.5629	0.22783	0.003
Mof_C 	C 	0.923	0.319	0.15673	0.03
Mof_C 	C 	0.6418	0.5034	0.28083	0.1
Mof_C 	C 	0.8607	0.2562	0.20423	0.029
Mof_C 	C 	0.3942	0.0912	0.23663	0.008
Mof_C 	C 	0.6873	0.7599	0.29333	0.029
Mof_C 	C 	0.9212	0.2742	0.09983	0.043
Mof_C 	C 	0.3327	0.0754	0.18343	0.16
Mof_C 	C 	0.6178	0.3845	0.20843	0.217
Mof_C 	C 	0.666	0.4331	0.26463	-0.013
Mof_C 	C 	0.1097	0.729	0.24373	0.025
Mof_C 	C 	0.0988	0.6086	0.15653	0.077
Mof_C 	C 	0.5195	0.8768	0.19673	0.171
Mof_C 	C 	0.6052	0.8083	0.22573	0.018
Mof_C 	C 	0.0261	0.5799	0.20183	-0.043
Mof_C 	C 	0.1502	0.9856	0.09993	0.028
Mof_C 	C 	0.9922	0.9311	0.22003	0.196
Mof_C 	C 	0.9024	0.0185	0.10913	0.126
Mof_C 	C 	0.0654	0.6316	0.25823	0.071
Mof_C 	C 	0.9034	0.058	0.16703	-0.02
Mof_C 	C 	0.1776	0.7562	0.19523	0.153
Mof_C 	C 	0.6398	0.8118	0.11723	0.039
Mof_C 	C 	0.6337	0.5656	0.11803	-0.035
Mof_C 	C 	0.3796	0.7846	0.15573	0.038
Mof_C 	C 	0.4492	0.2823	0.10113	0.044
Mof_C 	C 	0.3347	0.8147	0.20263	0.027
Mof_C 	C 	0.3328	0.764	0.09803	0.036
Mof_C 	C 	0.4129	0.2258	0.15423	0.041
Mof_C 	C 	0.6104	0.5102	0.17323	0.083
Mof_C 	C 	0.241	0.1839	0.60867	0.041
Mof_C 	C 	0.8837	0.9564	0.60537	-0.019
Mof_C 	C 	0.443	0.1335	0.59187	0.071
Mof_C 	C 	0.8803	0.8822	0.49277	0.068
Mof_C 	C 	0.8263	0.8232	0.54287	-0.003
Mof_C 	C 	0.1005	0.0932	0.55417	0.03
Mof_C 	C 	0.4955	0.9319	0.42927	-0.021
Mof_C 	C 	0.4545	0.6115	0.59397	0.103
Mof_C 	C 	0.8698	0.8634	0.60197	0.111
Mof_C 	C 	0.7641	0.5186	0.53657	0.034
Mof_C 	C 	0.4257	0.5154	0.57937	0.009
Mof_C 	C 	0.1621	0.3967	0.61987	0.11
Mof_C 	C 	0.2888	0.1855	0.55207	0.152
Mof_C 	C 	0.1377	0.3758	0.50907	0.045
Mof_C 	C 	0.537	0.1594	0.57477	0
Mof_C 	C 	0.1522	0.1021	0.61027	0.083
Mof_C 	C 	0.7538	0.5686	0.58967	0.086
Mof_C 	C 	0.0148	0.2995	0.57327	0.084
Mof_C 	C 	0.5374	0.1015	0.52477	0.159
Mof_C 	C 	0.9024	0.3395	0.56117	-0.011
Mof_C 	C 	0.396	0.077	0.49007	0.036
Mof_C 	C 	0.8616	0.3582	0.61417	0.105
Mof_C 	C 	0.3955	0.1393	0.53757	0.028
Mof_C 	C 	0.697	0.6058	0.56997	0.025
Mof_C 	C 	0.0726	0.3127	0.62667	0.053
Mof_C 	C 	0.353	0.0788	0.43317	0.03
Mof_C 	C 	0.7427	0.6673	0.51677	0.146
Mof_C 	C 	0.7667	0.3822	0.54177	0.22
Mof_C 	C 	0.7671	0.334	0.59797	-0.015
Mof_C 	C 	0.6193	0.8903	0.57707	0.024
Mof_C 	C 	0.5098	0.9012	0.48987	0.081
Mof_C 	C 	0.3573	0.4805	0.53007	0.172
Mof_C 	C 	0.2031	0.3948	0.55907	0.021
Mof_C 	C 	0.5538	0.9739	0.53517	-0.045
Mof_C 	C 	0.8354	0.8498	0.43327	0.034
Mof_C 	C 	0.9389	0.0078	0.55337	0.249
Mof_C 	C 	0.1161	0.0976	0.44247	0.049
Mof_C 	C 	0.5662	0.9346	0.59157	0.073
Mof_C 	C 	0.1546	0.0966	0.50037	0.02
Mof_C 	C 	0.5786	0.8224	0.52857	0.153
Mof_C 	C 	0.172	0.3602	0.45057	0.037
Mof_C 	C 	0.9319	0.3663	0.45137	-0.052
Mof_C 	C 	0.405	0.6204	0.48907	0.041
Mof_C 	C 	0.8331	0.5508	0.43447	0.035
Mof_C 	C 	0.48	0.6653	0.53597	0.023
Mof_C 	C 	0.4312	0.6672	0.43137	0.03
Mof_C 	C 	0.8129	0.5871	0.48757	0.043
Mof_C 	C 	0.8998	0.3896	0.50657	0.096
Mof_O 	O 	0.5566	0.1913	0.8283	-0.317
Mof_O 	O 	0.8643	0.2388	0.803	-0.186
Mof_O 	O 	0.917	0.1775	0.8711	-0.217
Mof_O 	O 	0.0749	0.1054	0.833	-0.173
Mof_O 	O 	0.551	0.3722	0.6584	-0.229
Mof_O 	O 	0.4488	0.1419	0.9973	-0.281
Mof_O 	O 	0.6646	0.1919	0.8878	-0.196
Mof_O 	O 	0.9906	0.1831	0.9827	-0.299
Mof_O 	O 	0.6781	0.3972	0.768	-0.249
Mof_O 	O 	0.4631	0.2806	0.764	-0.245
Mof_O 	O 	0.0866	0.2519	0.7677	-0.301
Mof_O 	O 	0.0707	0.0742	0.9936	-0.255
Mof_O 	O 	0.7153	0.2412	0.744	-0.265
Mof_O 	O 	0.8983	0.7064	0.9899	-0.291
Mof_O 	O 	0.7647	0.6026	0.7382	-0.31
Mof_O 	O 	0.6179	0.5148	0.8094	-0.202
Mof_O 	O 	0.8085	0.6916	0.8874	-0.2
Mof_O 	O 	0.7429	0.551	0.9704	-0.253
Mof_O 	O 	0.9396	0.7616	0.8352	-0.184
Mof_O 	O 	0.2403	0.9432	0.8538	-0.19
Mof_O 	O 	0.185	0.7795	0.9976	-0.277
Mof_O 	O 	0.9705	0.3206	0.948	-0.285
Mof_O 	O 	0.6288	0.2759	0.9786	-0.2
Mof_O 	O 	0.7933	0.2848	0.9713	-0.296
Mof_O 	O 	0.9899	0.9797	0.8898	-0.222
Mof_O 	O 	0.3727	0.0083	0.9073	-0.138
Mof_O 	O 	0.1688	0.4827	0.7446	-0.334
Mof_O 	O 	0.1459	0.6124	0.8132	-0.211
Mof_O 	O 	0.1966	0.7197	0.885	-0.213
Mof_O 	O 	0.5693	0.4127	0.9573	-0.224
Mof_O 	O 	0.2538	0.5019	0.8826	-0.202
Mof_O 	O 	0.067	0.6074	0.9622	-0.307
Mof_O 	O 	0.5107	0.4951	0.8804	-0.187
Mof_O 	O 	0.2991	0.4379	0.8106	-0.177
Mof_O 	O 	0.4206	0.4198	0.7407	-0.284
Mof_O 	O 	0.1274	0.478	0.9683	-0.345
Mof_O 	O 	0.2836	0.9692	0.0122	-0.366
Mof_O 	O 	0.9984	0.8926	0.9947	-0.243
Mof_O 	O 	0.4881	0.0837	0.7336	-0.243
Mof_O 	O 	0.3926	0.3897	0.9676	-0.321
Mof_O 	O 	0.9459	0.8248	0.728	-0.337
Mof_O 	O 	0.215	0.3634	0.9601	-0.336
Mof_O 	O 	0.2298	0.8927	0.738	-0.329
Mof_O 	O 	0.6347	0.4434	0.16163	-0.311
Mof_O 	O 	0.3745	0.1357	0.13633	-0.193
Mof_O 	O 	0.2605	0.083	0.20443	-0.22
Mof_O 	O 	0.0305	0.9251	0.16633	-0.21
Mof_O 	O 	0.8212	0.449	0.99173	-0.199
Mof_O 	O 	0.6931	0.5512	0.33063	-0.304
Mof_O 	O 	0.5273	0.3354	0.22113	-0.199
Mof_O 	O 	0.1925	0.0094	0.31603	-0.319
Mof_O 	O 	0.7191	0.3219	0.10133	-0.254
Mof_O 	O 	0.8175	0.5369	0.09733	-0.251
Mof_O 	O 	0.1653	0.9134	0.10103	-0.317
Mof_O 	O 	0.0035	0.9293	0.32693	-0.344
Mof_O 	O 	0.5259	0.2847	0.07733	-0.277
Mof_O 	O 	0.8081	0.1017	0.32323	-0.301
Mof_O 	O 	0.8379	0.2353	0.07153	-0.33
Mof_O 	O 	0.8969	0.3821	0.14273	-0.199
Mof_O 	O 	0.8831	0.1915	0.22073	-0.201
Mof_O 	O 	0.8081	0.2571	0.30373	-0.273
Mof_O 	O 	0.822	0.0604	0.16853	-0.188
Mof_O 	O 	0.7029	0.7597	0.18713	-0.202
Mof_O 	O 	0.5945	0.815	0.33093	-0.357
Mof_O 	O 	0.3501	0.0295	0.28133	-0.297
Mof_O 	O 	0.6471	0.3712	0.31193	-0.224
Mof_O 	O 	0.4915	0.2067	0.30463	-0.311
Mof_O 	O 	0.9898	0.0101	0.22313	-0.194
Mof_O 	O 	0.6356	0.6273	0.24063	-0.188
Mof_O 	O 	0.3139	0.8312	0.07793	-0.342
Mof_O 	O 	0.4665	0.8541	0.14653	-0.214
Mof_O 	O 	0.5231	0.8034	0.21833	-0.211
Mof_O 	O 	0.8434	0.4307	0.29063	-0.245
Mof_O 	O 	0.2481	0.7462	0.21593	-0.204
Mof_O 	O 	0.5404	0.933	0.29553	-0.316
Mof_O 	O 	0.9844	0.4893	0.21373	-0.157
Mof_O 	O 	0.1388	0.7009	0.14393	-0.19
Mof_O 	O 	0.9992	0.5794	0.07403	-0.264
Mof_O 	O 	0.3506	0.8726	0.30163	-0.359
Mof_O 	O 	0.6856	0.7164	0.34553	-0.301
Mof_O 	O 	0.8942	0.0016	0.32803	-0.264
Mof_O 	O 	0.5956	0.5119	0.06693	-0.262
Mof_O 	O 	0.9971	0.6074	0.30093	-0.269
Mof_O 	O 	0.8789	0.0541	0.06133	-0.347
Mof_O 	O 	0.1484	0.785	0.29343	-0.347
Mof_O 	O 	0.6629	0.7702	0.07133	-0.323
Mof_O 	O 	0.8087	0.3653	0.49497	-0.318
Mof_O 	O 	0.7612	0.6255	0.46967	-0.188
Mof_O 	O 	0.8225	0.7395	0.53777	-0.203
Mof_O 	O 	0.8946	0.9695	0.49967	-0.22
Mof_O 	O 	0.6278	0.1788	0.32507	-0.226
Mof_O 	O 	0.8581	0.3069	0.66397	-0.299
Mof_O 	O 	0.8081	0.4727	0.55447	-0.199
Mof_O 	O 	0.8169	0.8075	0.64937	-0.333
Mof_O 	O 	0.6028	0.2809	0.43467	-0.249
Mof_O 	O 	0.7194	0.1825	0.43067	-0.243
Mof_O 	O 	0.7481	0.8347	0.43437	-0.309
Mof_O 	O 	0.9258	0.9965	0.66027	-0.323
Mof_O 	O 	0.7588	0.4741	0.41067	-0.266
Mof_O 	O 	0.2936	0.1919	0.65657	-0.292
Mof_O 	O 	0.3974	0.1621	0.40487	-0.31
Mof_O 	O 	0.4852	0.1031	0.47607	-0.196
Mof_O 	O 	0.3084	0.1169	0.55407	-0.204
Mof_O 	O 	0.449	0.1919	0.63707	-0.274
Mof_O 	O 	0.2384	0.178	0.50187	-0.207
Mof_O 	O 	0.0568	0.2971	0.52047	-0.195
Mof_O 	O 	0.2205	0.4055	0.66427	-0.351
Mof_O 	O 	0.6794	0.6499	0.61467	-0.345
Mof_O 	O 	0.7241	0.3529	0.64527	-0.223
Mof_O 	O 	0.7152	0.5085	0.63797	-0.307
Mof_O 	O 	0.0203	0.0102	0.55647	-0.231
Mof_O 	O 	0.9917	0.3644	0.57397	-0.147
Mof_O 	O 	0.5173	0.6861	0.41127	-0.334
Mof_O 	O 	0.3876	0.5335	0.47987	-0.207
Mof_O 	O 	0.2803	0.4769	0.55167	-0.211
Mof_O 	O 	0.5873	0.1566	0.62397	-0.245
Mof_O 	O 	0.4981	0.7519	0.54927	-0.203
Mof_O 	O 	0.3926	0.4596	0.62887	-0.303
Mof_O 	O 	0.5049	0.0156	0.54707	-0.156
Mof_O 	O 	0.5621	0.8612	0.47727	-0.187
Mof_O 	O 	0.5802	0.0008	0.40737	-0.249
Mof_O 	O 	0.522	0.6494	0.63497	-0.36
Mof_O 	O 	0.0308	0.3144	0.67887	-0.316
Mof_O 	O 	0.1074	0.1058	0.66137	-0.321
Mof_O 	O 	0.9163	0.4044	0.40027	-0.243
Mof_O 	O 	0.6103	0.0029	0.63427	-0.271
Mof_O 	O 	0.1752	0.1211	0.39467	-0.32
Mof_O 	O 	0.6366	0.8516	0.62677	-0.343
Mof_O 	O 	0.1073	0.3371	0.40467	-0.327
Mof_Br	Br	0.87787	0.48994	0.82997	-0.178
Mof_Br	Br	0.61207	0.12213	0.1633	-0.188
Mof_Br	Br	0.51006	0.38793	0.49664	-0.193
_end
