data_functionalizedCrystal
_audit_creation_method	'EQeq! by Chris Wilmer'
_symmetry_space_group_name_H-M	'P1'
_symmetry_Int_Tables_number	1
_symmetry_cell_setting	triclinic
loop_
_symmetry_equiv_pos_as_xyz
  x,y,z
_cell_length_a	14.099
_cell_length_b	10.997
_cell_length_c	21.865
_cell_angle_alpha	90
_cell_angle_beta	93.971
_cell_angle_gamma	90
loop_
_atom_site_label
_atom_site_type_symbol
_atom_site_fract_x
_atom_site_fract_y
_atom_site_fract_z
_atom_site_charge
Mof_Zn	Zn	0.82008	0.29753	0.08706	1.211
Mof_O 	O 	0.6345	0.4789	0.0744	-0.462
Mof_N 	N 	0.9662	0.2966	0.0892	-0.254
Mof_C 	C 	0.7143	0.5329	0.0799	0.386
Mof_Zn	Zn	0.61069	0.29709	0.0772	1.212
Mof_O 	O 	0.7917	0.4808	0.0873	-0.47
Mof_N 	N 	0.4665	0.2967	0.0814	-0.241
Mof_C 	C 	0.7117	0.6697	0.0802	-0.082
Mof_O 	O 	0.6325	0.1138	0.0778	-0.465
Mof_C 	C 	0.7949	0.7373	0.0879	-0.017
Mof_H 	H 	0.8525	0.6962	0.0934	0.048
Mof_O 	O 	0.7898	0.1147	0.0837	-0.467
Mof_C 	C 	0.6274	0.7342	0.0732	-0.015
Mof_H 	H 	0.5702	0.6921	0.068	0.052
Mof_O 	O 	0.6481	0.299	0.1694	-0.456
Mof_C 	C 	0.712	0.9261	0.0793	-0.083
Mof_O 	O 	0.808	0.2888	0.1789	-0.435
Mof_C 	C 	0.6264	0.8592	0.0736	-0.016
Mof_H 	H 	0.5686	0.9002	0.0701	0.051
Mof_O 	O 	0.633	0.2106	0.4845	-0.437
Mof_C 	C 	0.7957	0.8616	0.0876	-0.014
Mof_H 	H 	0.8532	0.9029	0.093	0.05
Mof_O 	O 	0.7942	0.1969	0.4923	-0.448
Mof_C 	C 	0.7116	0.0622	0.0793	0.395
Mof_C 	C 	0.7249	0.2866	0.2018	0.358
Mof_C 	C 	0.7247	0.2676	0.2673	-0.086
Mof_C 	C 	0.8052	0.2351	0.3034	-0.007
Mof_H 	H 	0.8623	0.224	0.2853	0.049
Mof_C 	C 	0.8024	0.2188	0.3651	-0.03
Mof_H 	H 	0.8581	0.1988	0.3881	0.052
Mof_C 	C 	0.7169	0.2316	0.3953	-0.072
Mof_C 	C 	0.6368	0.2628	0.3582	-0.022
Mof_H 	H 	0.5797	0.2737	0.3763	0.051
Mof_C 	C 	0.6381	0.2783	0.2959	-0.015
Mof_H 	H 	0.5821	0.2957	0.2725	0.052
Mof_C 	C 	0.7156	0.2114	0.4625	0.344
Mof_C 	C 	0.4142	0.3979	0.0746	0.058
Mof_H 	H 	0.4457	0.472	0.0735	0.012
Mof_C 	C 	0.3133	0.3987	0.069	-0.057
Mof_H 	H 	0.2793	0.4656	0.0534	0.048
Mof_C 	C 	0.269	0.2972	0.0875	0.029
Mof_C 	C 	0.3274	0.1975	0.1076	-0.046
Mof_H 	H 	0.3004	0.1313	0.1263	0.036
Mof_C 	C 	0.4216	0.198	0.1	0.023
Mof_H 	H 	0.4563	0.1271	0.108	0.009
Mof_C 	C 	0.0085	0.3725	0.0566	0.08
Mof_H 	H 	0.9731	0.4355	0.038	-0.011
Mof_C 	C 	0.1109	0.3656	0.0468	-0.066
Mof_H 	H 	0.1367	0.4044	0.014	0.057
Mof_C 	C 	0.1659	0.2989	0.0886	0.044
Mof_C 	C 	0.1189	0.2287	0.1341	-0.053
Mof_H 	H 	0.1515	0.1912	0.1674	0.044
Mof_C 	C 	0.0193	0.2229	0.1231	0.081
Mof_H 	H 	0.9885	0.1599	0.142	-0.002
Mof_C 	C 	0.3208	0.406	0.0904	-0.049
Mof_H 	H 	0.2943	0.4792	0.1022	0.049
Mof_C 	C 	0.3182	0.1867	0.0863	-0.042
Mof_H 	H 	0.2876	0.1123	0.0895	0.037
Mof_C 	C 	0.4165	0.1945	0.0801	0.016
Mof_H 	H 	0.449	0.1223	0.0746	0.013
Mof_C 	C 	0.1094	0.398	0.0649	-0.061
Mof_H 	H 	0.1352	0.4733	0.0555	0.05
Mof_C 	C 	0.1128	0.207	0.1161	-0.07
Mof_H 	H 	0.1425	0.1349	0.1294	0.05
Mof_Zn	Zn	0.82008	0.20247	0.58706	1.211
Mof_O 	O 	0.6345	0.0211	0.5744	-0.46
Mof_N 	N 	0.9662	0.2034	0.5892	-0.251
Mof_C 	C 	0.7143	0.9671	0.5799	0.382
Mof_Zn	Zn	0.61069	0.20291	0.5772	1.212
Mof_O 	O 	0.7917	0.0192	0.5873	-0.467
Mof_N 	N 	0.4665	0.2033	0.5814	-0.24
Mof_C 	C 	0.7117	0.8303	0.5802	-0.081
Mof_O 	O 	0.6325	0.3862	0.5778	-0.464
Mof_C 	C 	0.7949	0.7627	0.5879	-0.018
Mof_H 	H 	0.8525	0.8038	0.5934	0.048
Mof_O 	O 	0.7898	0.3853	0.5837	-0.467
Mof_C 	C 	0.6274	0.7658	0.5732	-0.016
Mof_H 	H 	0.5702	0.8079	0.568	0.052
Mof_O 	O 	0.6481	0.201	0.6694	-0.456
Mof_C 	C 	0.712	0.5739	0.5793	-0.084
Mof_O 	O 	0.808	0.2112	0.6789	-0.434
Mof_C 	C 	0.6264	0.6408	0.5736	-0.015
Mof_H 	H 	0.5686	0.5998	0.5701	0.051
Mof_O 	O 	0.633	0.2894	0.9845	-0.436
Mof_C 	C 	0.7957	0.6384	0.5876	-0.013
Mof_H 	H 	0.8532	0.5971	0.593	0.05
Mof_O 	O 	0.7942	0.3031	0.9923	-0.448
Mof_C 	C 	0.7116	0.4378	0.5793	0.395
Mof_C 	C 	0.7249	0.2134	0.7018	0.358
Mof_C 	C 	0.7247	0.2324	0.7673	-0.086
Mof_C 	C 	0.8052	0.2649	0.8034	-0.007
Mof_H 	H 	0.8623	0.276	0.7853	0.049
Mof_C 	C 	0.8024	0.2812	0.8651	-0.03
Mof_H 	H 	0.8581	0.3012	0.8881	0.052
Mof_C 	C 	0.7169	0.2684	0.8953	-0.072
Mof_C 	C 	0.6368	0.2372	0.8582	-0.022
Mof_H 	H 	0.5797	0.2263	0.8763	0.051
Mof_C 	C 	0.6381	0.2217	0.7959	-0.015
Mof_H 	H 	0.5821	0.2043	0.7725	0.052
Mof_C 	C 	0.7156	0.2886	0.9625	0.344
Mof_C 	C 	0.4142	0.1021	0.5746	0.059
Mof_H 	H 	0.4457	0.028	0.5735	0.012
Mof_C 	C 	0.3133	0.1013	0.569	-0.057
Mof_H 	H 	0.2793	0.0344	0.5534	0.047
Mof_C 	C 	0.269	0.2028	0.5875	0.03
Mof_C 	C 	0.3274	0.3025	0.6076	-0.046
Mof_H 	H 	0.3004	0.3687	0.6263	0.037
Mof_C 	C 	0.4216	0.302	0.6	0.023
Mof_H 	H 	0.4563	0.3729	0.608	0.009
Mof_C 	C 	0.0085	0.1275	0.5566	0.072
Mof_H 	H 	0.9731	0.0645	0.538	-0.006
Mof_C 	C 	0.1109	0.1344	0.5468	-0.065
Mof_H 	H 	0.1367	0.0956	0.514	0.056
Mof_C 	C 	0.1659	0.2011	0.5886	0.043
Mof_C 	C 	0.1189	0.2713	0.6341	-0.052
Mof_H 	H 	0.1515	0.3088	0.6674	0.043
Mof_C 	C 	0.0193	0.2771	0.6231	0.079
Mof_H 	H 	0.9885	0.3401	0.642	-0.001
Mof_C 	C 	0.3208	0.094	0.5904	-0.049
Mof_H 	H 	0.2943	0.0208	0.6022	0.048
Mof_C 	C 	0.3182	0.3133	0.5863	-0.042
Mof_H 	H 	0.2876	0.3877	0.5895	0.038
Mof_C 	C 	0.4165	0.3055	0.5801	0.016
Mof_H 	H 	0.449	0.3777	0.5746	0.013
Mof_C 	C 	0.1094	0.102	0.5649	-0.059
Mof_H 	H 	0.1352	0.0267	0.5555	0.049
Mof_C 	C 	0.1128	0.293	0.6161	-0.069
Mof_H 	H 	0.1425	0.3651	0.6294	0.051
Mof_Zn	Zn	0.17992	0.79753	0.41294	1.211
Mof_O 	O 	0.3655	0.9789	0.4256	-0.46
Mof_N 	N 	0.0338	0.7966	0.4108	-0.251
Mof_C 	C 	0.2857	0.0329	0.4201	0.382
Mof_Zn	Zn	0.38931	0.79709	0.4228	1.212
Mof_O 	O 	0.2083	0.9808	0.4127	-0.467
Mof_N 	N 	0.5335	0.7967	0.4186	-0.24
Mof_C 	C 	0.2883	0.1697	0.4198	-0.081
Mof_O 	O 	0.3675	0.6138	0.4222	-0.464
Mof_C 	C 	0.2051	0.2373	0.4121	-0.018
Mof_H 	H 	0.1475	0.1962	0.4066	0.048
Mof_O 	O 	0.2102	0.6147	0.4163	-0.467
Mof_C 	C 	0.3726	0.2342	0.4268	-0.016
Mof_H 	H 	0.4298	0.1921	0.432	0.052
Mof_O 	O 	0.3519	0.799	0.3306	-0.456
Mof_C 	C 	0.288	0.4261	0.4207	-0.084
Mof_O 	O 	0.192	0.7888	0.3211	-0.434
Mof_C 	C 	0.3736	0.3592	0.4264	-0.015
Mof_H 	H 	0.4314	0.4002	0.4299	0.051
Mof_O 	O 	0.367	0.7106	0.0155	-0.436
Mof_C 	C 	0.2043	0.3616	0.4124	-0.013
Mof_H 	H 	0.1468	0.4029	0.407	0.05
Mof_O 	O 	0.2058	0.6969	0.0077	-0.448
Mof_C 	C 	0.2884	0.5622	0.4207	0.395
Mof_C 	C 	0.2751	0.7866	0.2982	0.358
Mof_C 	C 	0.2753	0.7676	0.2327	-0.086
Mof_C 	C 	0.1948	0.7351	0.1966	-0.007
Mof_H 	H 	0.1377	0.724	0.2147	0.049
Mof_C 	C 	0.1976	0.7188	0.1349	-0.03
Mof_H 	H 	0.1419	0.6988	0.1119	0.052
Mof_C 	C 	0.2831	0.7316	0.1047	-0.072
Mof_C 	C 	0.3632	0.7628	0.1418	-0.022
Mof_H 	H 	0.4203	0.7737	0.1237	0.051
Mof_C 	C 	0.3619	0.7783	0.2041	-0.015
Mof_H 	H 	0.4179	0.7957	0.2275	0.052
Mof_C 	C 	0.2844	0.7114	0.0375	0.344
Mof_C 	C 	0.5858	0.8979	0.4254	0.059
Mof_H 	H 	0.5543	0.972	0.4265	0.012
Mof_C 	C 	0.6867	0.8987	0.431	-0.057
Mof_H 	H 	0.7207	0.9656	0.4466	0.047
Mof_C 	C 	0.731	0.7972	0.4125	0.03
Mof_C 	C 	0.6726	0.6975	0.3924	-0.046
Mof_H 	H 	0.6996	0.6313	0.3737	0.037
Mof_C 	C 	0.5784	0.698	0.4	0.023
Mof_H 	H 	0.5437	0.6271	0.392	0.009
Mof_C 	C 	0.9915	0.8725	0.4434	0.072
Mof_H 	H 	0.0269	0.9355	0.462	-0.006
Mof_C 	C 	0.8891	0.8656	0.4532	-0.065
Mof_H 	H 	0.8633	0.9044	0.486	0.056
Mof_C 	C 	0.8341	0.7989	0.4114	0.043
Mof_C 	C 	0.8811	0.7287	0.3659	-0.052
Mof_H 	H 	0.8485	0.6912	0.3326	0.043
Mof_C 	C 	0.9807	0.7229	0.3769	0.079
Mof_H 	H 	0.0115	0.6599	0.358	-0.001
Mof_C 	C 	0.6792	0.906	0.4096	-0.049
Mof_H 	H 	0.7057	0.9792	0.3978	0.048
Mof_C 	C 	0.6818	0.6867	0.4137	-0.042
Mof_H 	H 	0.7124	0.6123	0.4105	0.038
Mof_C 	C 	0.5835	0.6945	0.4199	0.016
Mof_H 	H 	0.551	0.6223	0.4254	0.013
Mof_C 	C 	0.8906	0.898	0.4351	-0.059
Mof_H 	H 	0.8648	0.9733	0.4445	0.049
Mof_C 	C 	0.8872	0.707	0.3839	-0.069
Mof_H 	H 	0.8575	0.6349	0.3706	0.051
Mof_Zn	Zn	0.17992	0.70247	0.91294	1.211
Mof_O 	O 	0.3655	0.5211	0.9256	-0.462
Mof_N 	N 	0.0338	0.7034	0.9108	-0.254
Mof_C 	C 	0.2857	0.4671	0.9201	0.386
Mof_Zn	Zn	0.38931	0.70291	0.9228	1.212
Mof_O 	O 	0.2083	0.5192	0.9127	-0.47
Mof_N 	N 	0.5335	0.7033	0.9186	-0.241
Mof_C 	C 	0.2883	0.3303	0.9198	-0.082
Mof_O 	O 	0.3675	0.8862	0.9222	-0.465
Mof_C 	C 	0.2051	0.2627	0.9121	-0.017
Mof_H 	H 	0.1475	0.3038	0.9066	0.048
Mof_O 	O 	0.2102	0.8853	0.9163	-0.467
Mof_C 	C 	0.3726	0.2658	0.9268	-0.015
Mof_H 	H 	0.4298	0.3079	0.932	0.052
Mof_O 	O 	0.3519	0.701	0.8306	-0.456
Mof_C 	C 	0.288	0.0739	0.9207	-0.083
Mof_O 	O 	0.192	0.7112	0.8211	-0.435
Mof_C 	C 	0.3736	0.1408	0.9264	-0.016
Mof_H 	H 	0.4314	0.0998	0.9299	0.051
Mof_O 	O 	0.367	0.7894	0.5155	-0.437
Mof_C 	C 	0.2043	0.1384	0.9124	-0.014
Mof_H 	H 	0.1468	0.0971	0.907	0.05
Mof_O 	O 	0.2058	0.8031	0.5077	-0.448
Mof_C 	C 	0.2884	0.9378	0.9207	0.395
Mof_C 	C 	0.2751	0.7134	0.7982	0.358
Mof_C 	C 	0.2753	0.7324	0.7327	-0.086
Mof_C 	C 	0.1948	0.7649	0.6966	-0.007
Mof_H 	H 	0.1377	0.776	0.7147	0.049
Mof_C 	C 	0.1976	0.7812	0.6349	-0.03
Mof_H 	H 	0.1419	0.8012	0.6119	0.052
Mof_C 	C 	0.2831	0.7684	0.6047	-0.072
Mof_C 	C 	0.3632	0.7372	0.6418	-0.022
Mof_H 	H 	0.4203	0.7263	0.6237	0.051
Mof_C 	C 	0.3619	0.7217	0.7041	-0.015
Mof_H 	H 	0.4179	0.7043	0.7275	0.052
Mof_C 	C 	0.2844	0.7886	0.5375	0.344
Mof_C 	C 	0.5858	0.6021	0.9254	0.058
Mof_H 	H 	0.5543	0.528	0.9265	0.012
Mof_C 	C 	0.6867	0.6013	0.931	-0.057
Mof_H 	H 	0.7207	0.5344	0.9466	0.048
Mof_C 	C 	0.731	0.7028	0.9125	0.029
Mof_C 	C 	0.6726	0.8025	0.8924	-0.046
Mof_H 	H 	0.6996	0.8687	0.8737	0.036
Mof_C 	C 	0.5784	0.802	0.9	0.023
Mof_H 	H 	0.5437	0.8729	0.892	0.009
Mof_C 	C 	0.9915	0.6275	0.9434	0.08
Mof_H 	H 	0.0269	0.5645	0.962	-0.011
Mof_C 	C 	0.8891	0.6344	0.9532	-0.066
Mof_H 	H 	0.8633	0.5956	0.986	0.057
Mof_C 	C 	0.8341	0.7011	0.9114	0.044
Mof_C 	C 	0.8811	0.7713	0.8659	-0.053
Mof_H 	H 	0.8485	0.8088	0.8326	0.044
Mof_C 	C 	0.9807	0.7771	0.8769	0.081
Mof_H 	H 	0.0115	0.8401	0.858	-0.002
Mof_C 	C 	0.6792	0.594	0.9096	-0.049
Mof_H 	H 	0.7057	0.5208	0.8978	0.049
Mof_C 	C 	0.6818	0.8133	0.9137	-0.042
Mof_H 	H 	0.7124	0.8877	0.9105	0.037
Mof_C 	C 	0.5835	0.8055	0.9199	0.016
Mof_H 	H 	0.551	0.8777	0.9254	0.013
Mof_C 	C 	0.8906	0.602	0.9351	-0.061
Mof_H 	H 	0.8648	0.5267	0.9445	0.05
Mof_C 	C 	0.8872	0.793	0.8839	-0.07
Mof_H 	H 	0.8575	0.8651	0.8706	0.05
_end
