data_functionalizedCrystal
_audit_creation_method	'EQeq! by Chris Wilmer'
_symmetry_space_group_name_H-M	'P1'
_symmetry_Int_Tables_number	1
_symmetry_cell_setting	triclinic
loop_
_symmetry_equiv_pos_as_xyz
  x,y,z
_cell_length_a	22.521
_cell_length_b	22.521
_cell_length_c	22.521
_cell_angle_alpha	90
_cell_angle_beta	90
_cell_angle_gamma	90
loop_
_atom_site_label
_atom_site_type_symbol
_atom_site_fract_x
_atom_site_fract_y
_atom_site_fract_z
_atom_site_charge
Mof_Cd	Cd	0.28534	0.28534	0.71466	0.482
Mof_Cd	Cd	0.71466	0.71466	0.71466	0.484
Mof_Cd	Cd	0.71466	0.28534	0.28534	0.483
Mof_Cd	Cd	0.28534	0.71466	0.28534	0.483
Mof_Cd	Cd	0.28534	0.28534	0.28534	0.483
Mof_Cd	Cd	0.71466	0.71466	0.28534	0.484
Mof_Cd	Cd	0.28534	0.71466	0.71466	0.484
Mof_Cd	Cd	0.71466	0.28534	0.71466	0.484
Mof_Cd	Cd	2.01718e-33	0	0.538	0.25
Mof_Cd	Cd	-2.68773e-33	-4.41995e-33	0.462	0.249
Mof_Cd	Cd	0.538	0	-0	0.25
Mof_Cd	Cd	0.462	0	-0	0.249
Mof_Cd	Cd	-0	0.538	-0	0.25
Mof_Cd	Cd	-4.41995e-33	0.462	-0	0.249
Mof_N 	N 	1.8747e-33	0.0957	0.5	-0.171
Mof_N 	N 	1.8747e-33	0.9043	0.5	-0.169
Mof_N 	N 	0.5	-1.10499e-33	0.0957	-0.171
Mof_N 	N 	0.5	-8.8399e-33	0.9043	-0.169
Mof_N 	N 	0.0957	0.5	-0	-0.171
Mof_N 	N 	0.9043	0.5	-0	-0.169
Mof_N 	N 	0.0957	0	0.5	-0.171
Mof_N 	N 	0.9043	0	0.5	-0.169
Mof_N 	N 	-5.44932e-33	0.5	0.9043	-0.169
Mof_N 	N 	3.58818e-34	0.5	0.0957	-0.171
Mof_N 	N 	0.5	0.0957	-0	-0.171
Mof_N 	N 	0.5	0.9043	-0	-0.169
Mof_O 	O 	0.2251	0.2251	0.6554	-0.29
Mof_C 	C 	0.2216	0.2216	0.553	-0.046
Mof_C 	C 	0.1777	0.1777	0.5531	-0.071
Mof_H 	H 	0.1632	0.1632	0.5889	0.078
Mof_O 	O 	0.2829	0.2829	0.6076	-0.26
Mof_C 	C 	0.2445	0.2445	0.6106	0.338
Mof_O 	O 	0.7749	0.7749	0.6554	-0.289
Mof_C 	C 	0.7784	0.7784	0.553	-0.045
Mof_C 	C 	0.8223	0.8223	0.5531	-0.071
Mof_H 	H 	0.8368	0.8368	0.5889	0.08
Mof_O 	O 	0.7171	0.7171	0.6076	-0.26
Mof_C 	C 	0.7555	0.7555	0.6106	0.337
Mof_O 	O 	0.7749	0.2251	0.3446	-0.29
Mof_C 	C 	0.7784	0.2216	0.447	-0.045
Mof_C 	C 	0.8223	0.1777	0.4469	-0.071
Mof_H 	H 	0.8368	0.1632	0.4111	0.079
Mof_O 	O 	0.7171	0.2829	0.3924	-0.26
Mof_C 	C 	0.7555	0.2445	0.3894	0.337
Mof_O 	O 	0.2251	0.7749	0.3446	-0.29
Mof_C 	C 	0.2216	0.7784	0.447	-0.045
Mof_C 	C 	0.1777	0.8223	0.4469	-0.071
Mof_H 	H 	0.1632	0.8368	0.4111	0.079
Mof_O 	O 	0.2829	0.7171	0.3924	-0.26
Mof_C 	C 	0.2445	0.7555	0.3894	0.337
Mof_O 	O 	0.6554	0.2251	0.2251	-0.29
Mof_C 	C 	0.553	0.2216	0.2216	-0.046
Mof_C 	C 	0.5531	0.1777	0.1777	-0.071
Mof_H 	H 	0.5889	0.1632	0.1632	0.078
Mof_O 	O 	0.6076	0.2829	0.2829	-0.26
Mof_C 	C 	0.6106	0.2445	0.2445	0.338
Mof_O 	O 	0.6554	0.7749	0.7749	-0.289
Mof_C 	C 	0.553	0.7784	0.7784	-0.045
Mof_C 	C 	0.5531	0.8223	0.8223	-0.071
Mof_H 	H 	0.5889	0.8368	0.8368	0.08
Mof_O 	O 	0.6076	0.7171	0.7171	-0.26
Mof_C 	C 	0.6106	0.7555	0.7555	0.337
Mof_O 	O 	0.3446	0.7749	0.2251	-0.29
Mof_C 	C 	0.447	0.7784	0.2216	-0.045
Mof_C 	C 	0.4469	0.8223	0.1777	-0.071
Mof_H 	H 	0.4111	0.8368	0.1632	0.079
Mof_O 	O 	0.3924	0.7171	0.2829	-0.26
Mof_C 	C 	0.3894	0.7555	0.2445	0.337
Mof_O 	O 	0.3446	0.2251	0.7749	-0.29
Mof_C 	C 	0.447	0.2216	0.7784	-0.045
Mof_C 	C 	0.4469	0.1777	0.8223	-0.071
Mof_H 	H 	0.4111	0.1632	0.8368	0.079
Mof_O 	O 	0.3924	0.2829	0.7171	-0.26
Mof_C 	C 	0.3894	0.2445	0.7555	0.337
Mof_O 	O 	0.2251	0.6554	0.2251	-0.29
Mof_C 	C 	0.2216	0.553	0.2216	-0.046
Mof_C 	C 	0.1777	0.5531	0.1777	-0.071
Mof_H 	H 	0.1632	0.5889	0.1632	0.078
Mof_O 	O 	0.2829	0.6076	0.2829	-0.26
Mof_C 	C 	0.2445	0.6106	0.2445	0.338
Mof_O 	O 	0.7749	0.6554	0.7749	-0.289
Mof_C 	C 	0.7784	0.553	0.7784	-0.045
Mof_C 	C 	0.8223	0.5531	0.8223	-0.071
Mof_H 	H 	0.8368	0.5889	0.8368	0.08
Mof_O 	O 	0.7171	0.6076	0.7171	-0.26
Mof_C 	C 	0.7555	0.6106	0.7555	0.337
Mof_O 	O 	0.2251	0.3446	0.7749	-0.29
Mof_C 	C 	0.2216	0.447	0.7784	-0.045
Mof_C 	C 	0.1777	0.4469	0.8223	-0.071
Mof_H 	H 	0.1632	0.4111	0.8368	0.079
Mof_O 	O 	0.2829	0.3924	0.7171	-0.26
Mof_C 	C 	0.2445	0.3894	0.7555	0.337
Mof_O 	O 	0.7749	0.3446	0.2251	-0.29
Mof_C 	C 	0.7784	0.447	0.2216	-0.045
Mof_C 	C 	0.8223	0.4469	0.1777	-0.071
Mof_H 	H 	0.8368	0.4111	0.1632	0.079
Mof_O 	O 	0.7171	0.3924	0.2829	-0.26
Mof_C 	C 	0.7555	0.3894	0.2445	0.337
Mof_O 	O 	0.2251	0.2251	0.3446	-0.291
Mof_C 	C 	0.2216	0.2216	0.447	-0.046
Mof_C 	C 	0.1777	0.1777	0.4469	-0.071
Mof_H 	H 	0.1632	0.1632	0.4111	0.078
Mof_O 	O 	0.2829	0.2829	0.3924	-0.26
Mof_C 	C 	0.2445	0.2445	0.3894	0.338
Mof_O 	O 	0.7749	0.7749	0.3446	-0.289
Mof_C 	C 	0.7784	0.7784	0.447	-0.045
Mof_C 	C 	0.8223	0.8223	0.4469	-0.071
Mof_H 	H 	0.8368	0.8368	0.4111	0.079
Mof_O 	O 	0.7171	0.7171	0.3924	-0.26
Mof_C 	C 	0.7555	0.7555	0.3894	0.337
Mof_O 	O 	0.2251	0.7749	0.6554	-0.289
Mof_C 	C 	0.2216	0.7784	0.553	-0.045
Mof_C 	C 	0.1777	0.8223	0.5531	-0.071
Mof_H 	H 	0.1632	0.8368	0.5889	0.079
Mof_O 	O 	0.2829	0.7171	0.6076	-0.26
Mof_C 	C 	0.2445	0.7555	0.6106	0.337
Mof_O 	O 	0.7749	0.2251	0.6554	-0.289
Mof_C 	C 	0.7784	0.2216	0.553	-0.045
Mof_C 	C 	0.8223	0.1777	0.5531	-0.071
Mof_H 	H 	0.8368	0.1632	0.5889	0.079
Mof_O 	O 	0.7171	0.2829	0.6076	-0.26
Mof_C 	C 	0.7555	0.2445	0.6106	0.337
Mof_O 	O 	0.2251	0.6554	0.7749	-0.289
Mof_C 	C 	0.2216	0.553	0.7784	-0.045
Mof_C 	C 	0.1777	0.5531	0.8223	-0.071
Mof_H 	H 	0.1632	0.5889	0.8368	0.079
Mof_O 	O 	0.2829	0.6076	0.7171	-0.26
Mof_C 	C 	0.2445	0.6106	0.7555	0.337
Mof_O 	O 	0.7749	0.6554	0.2251	-0.289
Mof_C 	C 	0.7784	0.553	0.2216	-0.045
Mof_C 	C 	0.8223	0.5531	0.1777	-0.071
Mof_H 	H 	0.8368	0.5889	0.1632	0.079
Mof_O 	O 	0.7171	0.6076	0.2829	-0.26
Mof_C 	C 	0.7555	0.6106	0.2445	0.337
Mof_O 	O 	0.7749	0.3446	0.7749	-0.289
Mof_C 	C 	0.7784	0.447	0.7784	-0.045
Mof_C 	C 	0.8223	0.4469	0.8223	-0.071
Mof_H 	H 	0.8368	0.4111	0.8368	0.079
Mof_O 	O 	0.7171	0.3924	0.7171	-0.26
Mof_C 	C 	0.7555	0.3894	0.7555	0.337
Mof_O 	O 	0.2251	0.3446	0.2251	-0.291
Mof_C 	C 	0.2216	0.447	0.2216	-0.046
Mof_C 	C 	0.1777	0.4469	0.1777	-0.071
Mof_H 	H 	0.1632	0.4111	0.1632	0.078
Mof_O 	O 	0.2829	0.3924	0.2829	-0.26
Mof_C 	C 	0.2445	0.3894	0.2445	0.338
Mof_O 	O 	0.6554	0.2251	0.7749	-0.289
Mof_C 	C 	0.553	0.2216	0.7784	-0.045
Mof_C 	C 	0.5531	0.1777	0.8223	-0.071
Mof_H 	H 	0.5889	0.1632	0.8368	0.079
Mof_O 	O 	0.6076	0.2829	0.7171	-0.26
Mof_C 	C 	0.6106	0.2445	0.7555	0.337
Mof_O 	O 	0.6554	0.7749	0.2251	-0.289
Mof_C 	C 	0.553	0.7784	0.2216	-0.045
Mof_C 	C 	0.5531	0.8223	0.1777	-0.071
Mof_H 	H 	0.5889	0.8368	0.1632	0.079
Mof_O 	O 	0.6076	0.7171	0.2829	-0.26
Mof_C 	C 	0.6106	0.7555	0.2445	0.337
Mof_O 	O 	0.3446	0.2251	0.2251	-0.291
Mof_C 	C 	0.447	0.2216	0.2216	-0.046
Mof_C 	C 	0.4469	0.1777	0.1777	-0.071
Mof_H 	H 	0.4111	0.1632	0.1632	0.078
Mof_O 	O 	0.3924	0.2829	0.2829	-0.26
Mof_C 	C 	0.3894	0.2445	0.2445	0.338
Mof_O 	O 	0.3446	0.7749	0.7749	-0.289
Mof_C 	C 	0.447	0.7784	0.7784	-0.045
Mof_C 	C 	0.4469	0.8223	0.8223	-0.071
Mof_H 	H 	0.4111	0.8368	0.8368	0.079
Mof_O 	O 	0.3924	0.7171	0.7171	-0.26
Mof_C 	C 	0.3894	0.7555	0.7555	0.337
Mof_C 	C 	0.0509	0.1309	0.5	0.095
Mof_C 	C 	0.0301	0.1927	0.5	-0.082
Mof_H 	H 	0.0542	0.2262	0.5	0.072
Mof_C 	C 	0.9491	0.8691	0.5	0.095
Mof_C 	C 	0.9699	0.8073	0.5	-0.062
Mof_H 	H 	0.9458	0.7738	0.5	0.067
Mof_C 	C 	0.9491	0.1309	0.5	0.095
Mof_C 	C 	0.9699	0.1927	0.5	-0.061
Mof_H 	H 	0.9458	0.2262	0.5	0.067
Mof_C 	C 	0.0509	0.8691	0.5	0.096
Mof_C 	C 	0.0301	0.8073	0.5	-0.081
Mof_H 	H 	0.0542	0.7738	0.5	0.072
Mof_C 	C 	0.5	0.0509	0.1309	0.095
Mof_C 	C 	0.5	0.0301	0.1927	-0.082
Mof_H 	H 	0.5	0.0542	0.2262	0.072
Mof_C 	C 	0.5	0.9491	0.8691	0.095
Mof_C 	C 	0.5	0.9699	0.8073	-0.062
Mof_H 	H 	0.5	0.9458	0.7738	0.067
Mof_C 	C 	0.5	0.9491	0.1309	0.095
Mof_C 	C 	0.5	0.9699	0.1927	-0.061
Mof_H 	H 	0.5	0.9458	0.2262	0.067
Mof_C 	C 	0.5	0.0509	0.8691	0.096
Mof_C 	C 	0.5	0.0301	0.8073	-0.081
Mof_H 	H 	0.5	0.0542	0.7738	0.072
Mof_C 	C 	0.1309	0.5	0.0509	0.095
Mof_C 	C 	0.1927	0.5	0.0301	-0.082
Mof_H 	H 	0.2262	0.5	0.0542	0.072
Mof_C 	C 	0.8691	0.5	0.9491	0.095
Mof_C 	C 	0.8073	0.5	0.9699	-0.062
Mof_H 	H 	0.7738	0.5	0.9458	0.067
Mof_C 	C 	0.1309	0.5	0.9491	0.095
Mof_C 	C 	0.1927	0.5	0.9699	-0.061
Mof_H 	H 	0.2262	0.5	0.9458	0.067
Mof_C 	C 	0.8691	0.5	0.0509	0.096
Mof_C 	C 	0.8073	0.5	0.0301	-0.081
Mof_H 	H 	0.7738	0.5	0.0542	0.072
Mof_C 	C 	0.1309	0.0509	0.5	0.095
Mof_C 	C 	0.1927	0.0301	0.5	-0.082
Mof_H 	H 	0.2262	0.0542	0.5	0.072
Mof_C 	C 	0.8691	0.9491	0.5	0.095
Mof_C 	C 	0.8073	0.9699	0.5	-0.062
Mof_H 	H 	0.7738	0.9458	0.5	0.067
Mof_C 	C 	0.1309	0.9491	0.5	0.095
Mof_C 	C 	0.1927	0.9699	0.5	-0.061
Mof_H 	H 	0.2262	0.9458	0.5	0.067
Mof_C 	C 	0.8691	0.0509	0.5	0.096
Mof_C 	C 	0.8073	0.0301	0.5	-0.081
Mof_H 	H 	0.7738	0.0542	0.5	0.072
Mof_C 	C 	0.0509	0.5	0.8691	0.096
Mof_C 	C 	0.0301	0.5	0.8073	-0.081
Mof_H 	H 	0.0542	0.5	0.7738	0.072
Mof_C 	C 	0.9491	0.5	0.1309	0.095
Mof_C 	C 	0.9699	0.5	0.1927	-0.061
Mof_H 	H 	0.9458	0.5	0.2262	0.067
Mof_C 	C 	0.9491	0.5	0.8691	0.095
Mof_C 	C 	0.9699	0.5	0.8073	-0.062
Mof_H 	H 	0.9458	0.5	0.7738	0.067
Mof_C 	C 	0.0509	0.5	0.1309	0.095
Mof_C 	C 	0.0301	0.5	0.1927	-0.082
Mof_H 	H 	0.0542	0.5	0.2262	0.072
Mof_C 	C 	0.5	0.1309	0.9491	0.095
Mof_C 	C 	0.5	0.1927	0.9699	-0.061
Mof_H 	H 	0.5	0.2262	0.9458	0.067
Mof_C 	C 	0.5	0.8691	0.0509	0.096
Mof_C 	C 	0.5	0.8073	0.0301	-0.081
Mof_H 	H 	0.5	0.7738	0.0542	0.072
Mof_C 	C 	0.5	0.1309	0.0509	0.095
Mof_C 	C 	0.5	0.1927	0.0301	-0.082
Mof_H 	H 	0.5	0.2262	0.0542	0.072
Mof_C 	C 	0.5	0.8691	0.9491	0.095
Mof_C 	C 	0.5	0.8073	0.9699	-0.062
Mof_H 	H 	0.5	0.7738	0.9458	0.067
Mof_C 	C 	0.1091	0.1091	0.5	-0.1
Mof_C 	C 	0.156	0.156	0.5	0.064
Mof_C 	C 	0.2427	0.2427	0.5	-0.008
Mof_H 	H 	0.2719	0.2719	0.5	0.078
Mof_C 	C 	0.8909	0.8909	0.5	-0.096
Mof_C 	C 	0.844	0.844	0.5	0.064
Mof_C 	C 	0.7573	0.7573	0.5	-0.008
Mof_H 	H 	0.7281	0.7281	0.5	0.078
Mof_C 	C 	0.8909	0.1091	0.5	-0.098
Mof_C 	C 	0.844	0.156	0.5	0.064
Mof_C 	C 	0.7573	0.2427	0.5	-0.008
Mof_H 	H 	0.7281	0.2719	0.5	0.078
Mof_C 	C 	0.1091	0.8909	0.5	-0.098
Mof_C 	C 	0.156	0.844	0.5	0.064
Mof_C 	C 	0.2427	0.7573	0.5	-0.008
Mof_H 	H 	0.2719	0.7281	0.5	0.078
Mof_C 	C 	0.5	0.1091	0.1091	-0.1
Mof_C 	C 	0.5	0.156	0.156	0.064
Mof_C 	C 	0.5	0.2427	0.2427	-0.008
Mof_H 	H 	0.5	0.2719	0.2719	0.078
Mof_C 	C 	0.5	0.8909	0.8909	-0.096
Mof_C 	C 	0.5	0.844	0.844	0.064
Mof_C 	C 	0.5	0.7573	0.7573	-0.008
Mof_H 	H 	0.5	0.7281	0.7281	0.078
Mof_C 	C 	0.5	0.8909	0.1091	-0.098
Mof_C 	C 	0.5	0.844	0.156	0.064
Mof_C 	C 	0.5	0.7573	0.2427	-0.008
Mof_H 	H 	0.5	0.7281	0.2719	0.078
Mof_C 	C 	0.5	0.1091	0.8909	-0.098
Mof_C 	C 	0.5	0.156	0.844	0.064
Mof_C 	C 	0.5	0.2427	0.7573	-0.008
Mof_H 	H 	0.5	0.2719	0.7281	0.078
Mof_C 	C 	0.1091	0.5	0.1091	-0.1
Mof_C 	C 	0.156	0.5	0.156	0.064
Mof_C 	C 	0.2427	0.5	0.2427	-0.008
Mof_H 	H 	0.2719	0.5	0.2719	0.078
Mof_C 	C 	0.8909	0.5	0.8909	-0.096
Mof_C 	C 	0.844	0.5	0.844	0.064
Mof_C 	C 	0.7573	0.5	0.7573	-0.008
Mof_H 	H 	0.7281	0.5	0.7281	0.078
Mof_C 	C 	0.1091	0.5	0.8909	-0.098
Mof_C 	C 	0.156	0.5	0.844	0.064
Mof_C 	C 	0.2427	0.5	0.7573	-0.008
Mof_H 	H 	0.2719	0.5	0.7281	0.078
Mof_C 	C 	0.8909	0.5	0.1091	-0.098
Mof_C 	C 	0.844	0.5	0.156	0.064
Mof_C 	C 	0.7573	0.5	0.2427	-0.008
Mof_H 	H 	0.7281	0.5	0.2719	0.078
_end
