data_functionalizedCrystal
_audit_creation_method	'EQeq! by Chris Wilmer'
_symmetry_space_group_name_H-M	'P1'
_symmetry_Int_Tables_number	1
_symmetry_cell_setting	triclinic
loop_
_symmetry_equiv_pos_as_xyz
  x,y,z
_cell_length_a	15.873
_cell_length_b	16.3062
_cell_length_c	16.3062
_cell_angle_alpha	76.2967
_cell_angle_beta	60.875
_cell_angle_gamma	60.875
loop_
_atom_site_label
_atom_site_type_symbol
_atom_site_fract_x
_atom_site_fract_y
_atom_site_fract_z
_atom_site_charge
Mof_Er	Er	0.73569	0.46531	0.88016	1.623
Mof_Er	Er	0.01111	0.11265	0.52625	1.713
Mof_Er	Er	0.58115	0.03469	0.61984	1.619
Mof_Er	Er	0.15001	0.38735	0.97375	1.718
Mof_Er	Er	0.61584	0.11984	0.96532	1.607
Mof_Er	Er	0.53736	0.47375	0.61265	1.749
Mof_Er	Er	0.201	0.38016	0.53468	1.62
Mof_Er	Er	0.12376	0.02625	0.88735	1.687
Mof_Er	Er	0.26431	0.53469	0.11984	1.622
Mof_Er	Er	0.98889	0.88735	0.47375	1.712
Mof_Er	Er	0.41885	0.96531	0.38016	1.618
Mof_Er	Er	0.84999	0.61265	0.02625	1.717
Mof_Er	Er	0.38416	0.88016	0.03468	1.607
Mof_Er	Er	0.46264	0.52625	0.38735	1.749
Mof_Er	Er	0.799	0.61984	0.46532	1.62
Mof_Er	Er	0.87624	0.97375	0.11265	1.687
Mof_H 	H 	0.8045	0.2459	0.7561	-0.045
Mof_H 	H 	0.8591	0.2166	0.9036	-0.055
Mof_H 	H 	0.3065	0.2541	0.7439	-0.045
Mof_H 	H 	0.4793	0.2834	0.5964	-0.057
Mof_H 	H 	0.5606	0.2439	0.7459	-0.046
Mof_H 	H 	0.7627	0.0964	0.7166	-0.055
Mof_H 	H 	0.0504	0.2561	0.7541	-0.05
Mof_H 	H 	0.0757	0.4036	0.7834	-0.059
Mof_H 	H 	0.1955	0.7541	0.2439	-0.045
Mof_H 	H 	0.1409	0.7834	0.0964	-0.055
Mof_H 	H 	0.6935	0.7459	0.2561	-0.045
Mof_H 	H 	0.5207	0.7166	0.4036	-0.057
Mof_H 	H 	0.4394	0.7561	0.2541	-0.046
Mof_H 	H 	0.2373	0.9036	0.2834	-0.055
Mof_H 	H 	0.9496	0.7439	0.2459	-0.05
Mof_H 	H 	0.9243	0.5964	0.2166	-0.059
Mof_C 	C 	0.8508	0.2734	0.7196	0.148
Mof_C 	C 	0.9239	0.3669	0.6729	-0.089
Mof_C 	C 	0.9834	0.2956	0.6072	-0.049
Mof_C 	C 	0.0778	0.2746	0.517	0.367
Mof_C 	C 	0.9361	0.4477	0.6807	0.409
Mof_C 	C 	0.8942	0.2401	0.9167	0.16
Mof_C 	C 	0.932	0.3375	0.9445	-0.023
Mof_C 	C 	0.0046	0.2459	0.9513	-0.113
Mof_C 	C 	0.1005	0.2062	0.9682	0.415
Mof_C 	C 	0.9151	0.4312	0.9556	0.351
Mof_C 	C 	0.3438	0.2266	0.7804	0.147
Mof_C 	C 	0.4637	0.1331	0.8271	-0.088
Mof_C 	C 	0.3862	0.2044	0.8928	-0.054
Mof_C 	C 	0.3694	0.2254	0.983	0.35
Mof_C 	C 	0.5645	0.0523	0.8193	0.396
Mof_C 	C 	0.551	0.2599	0.5833	0.158
Mof_C 	C 	0.714	0.1625	0.5555	-0.051
Mof_C 	C 	0.7018	0.2541	0.5487	-0.073
Mof_C 	C 	0.7749	0.2938	0.5318	0.404
Mof_C 	C 	0.8019	0.0688	0.5444	0.359
Mof_C 	C 	0.5704	0.2804	0.7734	0.147
Mof_C 	C 	0.5968	0.3271	0.8669	-0.085
Mof_C 	C 	0.5906	0.3928	0.7956	-0.061
Mof_C 	C 	0.5948	0.483	0.7746	0.377
Mof_C 	C 	0.6168	0.3193	0.9477	0.396
Mof_C 	C 	0.8109	0.0833	0.7401	0.157
Mof_C 	C 	0.8765	0.0555	0.8375	-0.055
Mof_C 	C 	0.9559	0.0487	0.7459	-0.052
Mof_C 	C 	0.0687	0.0318	0.7062	0.381
Mof_C 	C 	0.8707	0.0444	0.9312	0.361
Mof_C 	C 	0.1242	0.2196	0.7266	0.147
Mof_C 	C 	0.2908	0.1729	0.6331	-0.089
Mof_C 	C 	0.279	0.1072	0.7044	-0.053
Mof_C 	C 	0.3524	0.017	0.7254	0.353
Mof_C 	C 	0.3838	0.1807	0.5523	0.401
Mof_C 	C 	0.1343	0.4167	0.7599	0.157
Mof_C 	C 	0.2695	0.4445	0.6625	-0.053
Mof_C 	C 	0.2505	0.4513	0.7541	-0.074
Mof_C 	C 	0.3067	0.4682	0.7938	0.406
Mof_C 	C 	0.3463	0.4556	0.5688	0.361
Mof_C 	C 	0.1492	0.7266	0.2804	0.148
Mof_C 	C 	0.0761	0.6331	0.3271	-0.089
Mof_C 	C 	0.0166	0.7044	0.3928	-0.049
Mof_C 	C 	0.9222	0.7254	0.483	0.367
Mof_C 	C 	0.0639	0.5523	0.3193	0.409
Mof_C 	C 	0.1058	0.7599	0.0833	0.16
Mof_C 	C 	0.068	0.6625	0.0555	-0.023
Mof_C 	C 	0.9954	0.7541	0.0487	-0.113
Mof_C 	C 	0.8995	0.7938	0.0318	0.415
Mof_C 	C 	0.0849	0.5688	0.0444	0.351
Mof_C 	C 	0.6562	0.7734	0.2196	0.147
Mof_C 	C 	0.5363	0.8669	0.1729	-0.088
Mof_C 	C 	0.6138	0.7956	0.1072	-0.054
Mof_C 	C 	0.6306	0.7746	0.017	0.35
Mof_C 	C 	0.4355	0.9477	0.1807	0.396
Mof_C 	C 	0.449	0.7401	0.4167	0.158
Mof_C 	C 	0.286	0.8375	0.4445	-0.051
Mof_C 	C 	0.2982	0.7459	0.4513	-0.073
Mof_C 	C 	0.2251	0.7062	0.4682	0.404
Mof_C 	C 	0.1981	0.9312	0.4556	0.359
Mof_C 	C 	0.4296	0.7196	0.2266	0.147
Mof_C 	C 	0.4032	0.6729	0.1331	-0.085
Mof_C 	C 	0.4094	0.6072	0.2044	-0.061
Mof_C 	C 	0.4052	0.517	0.2254	0.377
Mof_C 	C 	0.3832	0.6807	0.0523	0.396
Mof_C 	C 	0.1891	0.9167	0.2599	0.157
Mof_C 	C 	0.1235	0.9445	0.1625	-0.055
Mof_C 	C 	0.0441	0.9513	0.2541	-0.052
Mof_C 	C 	0.9313	0.9682	0.2938	0.381
Mof_C 	C 	0.1293	0.9556	0.0688	0.361
Mof_C 	C 	0.8758	0.7804	0.2734	0.147
Mof_C 	C 	0.7092	0.8271	0.3669	-0.089
Mof_C 	C 	0.721	0.8928	0.2956	-0.053
Mof_C 	C 	0.6476	0.983	0.2746	0.353
Mof_C 	C 	0.6162	0.8193	0.4477	0.401
Mof_C 	C 	0.8657	0.5833	0.2401	0.157
Mof_C 	C 	0.7305	0.5555	0.3375	-0.053
Mof_C 	C 	0.7495	0.5487	0.2459	-0.074
Mof_C 	C 	0.6933	0.5318	0.2062	0.406
Mof_C 	C 	0.6537	0.5444	0.4312	0.361
Mof_N 	N 	0.9358	0.2364	0.6382	-0.22
Mof_N 	N 	0.8376	0.3534	0.7444	-0.215
Mof_N 	N 	0.8631	0.3319	0.9199	-0.254
Mof_N 	N 	0.979	0.1846	0.9334	-0.224
Mof_N 	N 	0.3104	0.2636	0.8618	-0.223
Mof_N 	N 	0.4354	0.1466	0.7556	-0.216
Mof_N 	N 	0.6149	0.1681	0.5801	-0.251
Mof_N 	N 	0.597	0.3154	0.5666	-0.245
Mof_N 	N 	0.574	0.3618	0.7364	-0.223
Mof_N 	N 	0.582	0.2556	0.8534	-0.216
Mof_N 	N 	0.783	0.0801	0.8319	-0.249
Mof_N 	N 	0.9124	0.0666	0.6846	-0.242
Mof_N 	N 	0.1722	0.1382	0.7636	-0.223
Mof_N 	N 	0.191	0.2444	0.6466	-0.216
Mof_N 	N 	0.195	0.4199	0.6681	-0.251
Mof_N 	N 	0.1636	0.4334	0.8154	-0.244
Mof_N 	N 	0.0642	0.7636	0.3618	-0.22
Mof_N 	N 	0.1624	0.6466	0.2556	-0.215
Mof_N 	N 	0.1369	0.6681	0.0801	-0.254
Mof_N 	N 	0.021	0.8154	0.0666	-0.224
Mof_N 	N 	0.6896	0.7364	0.1382	-0.223
Mof_N 	N 	0.5646	0.8534	0.2444	-0.216
Mof_N 	N 	0.3851	0.8319	0.4199	-0.251
Mof_N 	N 	0.403	0.6846	0.4334	-0.245
Mof_N 	N 	0.426	0.6382	0.2636	-0.223
Mof_N 	N 	0.418	0.7444	0.1466	-0.216
Mof_N 	N 	0.217	0.9199	0.1681	-0.249
Mof_N 	N 	0.0876	0.9334	0.3154	-0.242
Mof_N 	N 	0.8278	0.8618	0.2364	-0.223
Mof_N 	N 	0.809	0.7556	0.3534	-0.216
Mof_N 	N 	0.805	0.5801	0.3319	-0.251
Mof_N 	N 	0.8364	0.5666	0.1846	-0.244
Mof_O 	O 	0.1046	0.2037	0.4717	-0.455
Mof_O 	O 	0.1341	0.319	0.4828	-0.483
Mof_O 	O 	0.0209	0.4558	0.6276	-0.5
Mof_O 	O 	0.8576	0.5056	0.7456	-0.471
Mof_O 	O 	0.1553	0.1184	0.9562	-0.456
Mof_O 	O 	0.121	0.2576	0.9944	-0.505
Mof_O 	O 	0.9647	0.4471	0.9879	-0.548
Mof_O 	O 	0.8458	0.4997	0.9331	-0.475
Mof_O 	O 	0.28	0.2963	0.0283	-0.44
Mof_O 	O 	0.4359	0.181	0.0172	-0.468
Mof_O 	O 	0.6043	0.0442	0.8724	-0.493
Mof_O 	O 	0.6088	0.9944	0.7544	-0.464
Mof_O 	O 	0.7299	0.3816	0.5438	-0.449
Mof_O 	O 	0.873	0.2424	0.5056	-0.491
Mof_O 	O 	0.8997	0.0529	0.5121	-0.553
Mof_O 	O 	0.7786	0.0003	0.5669	-0.475
Mof_O 	O 	0.5763	0.5283	0.7037	-0.459
Mof_O 	O 	0.6169	0.5172	0.819	-0.486
Mof_O 	O 	0.6485	0.3724	0.9558	-0.494
Mof_O 	O 	0.6032	0.2544	0.0056	-0.465
Mof_O 	O 	0.1115	0.0438	0.6184	-0.446
Mof_O 	O 	0.1154	0.0056	0.7576	-0.494
Mof_O 	O 	0.9526	0.0121	0.9471	-0.544
Mof_O 	O 	0.7789	0.0669	0.9997	-0.476
Mof_O 	O 	0.3083	0.9717	0.7963	-0.434
Mof_O 	O 	0.4531	0.9828	0.681	-0.472
Mof_O 	O 	0.4767	0.1276	0.5442	-0.493
Mof_O 	O 	0.3632	0.2456	0.4944	-0.47
Mof_O 	O 	0.2737	0.4562	0.8816	-0.451
Mof_O 	O 	0.3786	0.4944	0.7424	-0.499
Mof_O 	O 	0.4118	0.4879	0.5529	-0.565
Mof_O 	O 	0.3455	0.4331	0.5003	-0.482
Mof_O 	O 	0.8954	0.7963	0.5283	-0.455
Mof_O 	O 	0.8659	0.681	0.5172	-0.483
Mof_O 	O 	0.9791	0.5442	0.3724	-0.5
Mof_O 	O 	0.1424	0.4944	0.2544	-0.471
Mof_O 	O 	0.8447	0.8816	0.0438	-0.456
Mof_O 	O 	0.879	0.7424	0.0056	-0.505
Mof_O 	O 	0.0353	0.5529	0.0121	-0.548
Mof_O 	O 	0.1542	0.5003	0.0669	-0.475
Mof_O 	O 	0.72	0.7037	0.9717	-0.44
Mof_O 	O 	0.5641	0.819	0.9828	-0.468
Mof_O 	O 	0.3957	0.9558	0.1276	-0.493
Mof_O 	O 	0.3912	0.0056	0.2456	-0.464
Mof_O 	O 	0.2701	0.6184	0.4562	-0.449
Mof_O 	O 	0.127	0.7576	0.4944	-0.491
Mof_O 	O 	0.1003	0.9471	0.4879	-0.553
Mof_O 	O 	0.2214	0.9997	0.4331	-0.475
Mof_O 	O 	0.4237	0.4717	0.2963	-0.459
Mof_O 	O 	0.3831	0.4828	0.181	-0.486
Mof_O 	O 	0.3515	0.6276	0.0442	-0.494
Mof_O 	O 	0.3968	0.7456	0.9944	-0.465
Mof_O 	O 	0.8885	0.9562	0.3816	-0.446
Mof_O 	O 	0.8846	0.9944	0.2424	-0.494
Mof_O 	O 	0.0474	0.9879	0.0529	-0.544
Mof_O 	O 	0.2211	0.9331	0.0003	-0.476
Mof_O 	O 	0.6917	0.0283	0.2037	-0.434
Mof_O 	O 	0.5469	0.0172	0.319	-0.472
Mof_O 	O 	0.5233	0.8724	0.4558	-0.493
Mof_O 	O 	0.6368	0.7544	0.5056	-0.47
Mof_O 	O 	0.7263	0.5438	0.1184	-0.451
Mof_O 	O 	0.6214	0.5056	0.2576	-0.499
Mof_O 	O 	0.5882	0.5121	0.4471	-0.565
Mof_O 	O 	0.6545	0.5669	0.4997	-0.482
_end
