data_functionalizedCrystal
_audit_creation_method	'EQeq! by Chris Wilmer'
_symmetry_space_group_name_H-M	'P1'
_symmetry_Int_Tables_number	1
_symmetry_cell_setting	triclinic
loop_
_symmetry_equiv_pos_as_xyz
  x,y,z
_cell_length_a	17.2868
_cell_length_b	17.2868
_cell_length_c	17.2868
_cell_angle_alpha	109.471
_cell_angle_beta	109.471
_cell_angle_gamma	109.471
loop_
_atom_site_label
_atom_site_type_symbol
_atom_site_fract_x
_atom_site_fract_y
_atom_site_fract_z
_atom_site_charge
Mof_Ga	Ga	0.375	0.75	0.125	3.676
Mof_Ga	Ga	0.125	0.25	0.375	3.677
Mof_Ga	Ga	0.75	0.625	0.875	3.677
Mof_Ga	Ga	0.625	0.375	0.25	3.678
Mof_Ga	Ga	0.25	0.875	0.625	3.677
Mof_Ga	Ga	0.875	0.125	0.75	3.676
Mof_H 	H 	0.0409	0.0204	0.6731	0.033
Mof_H 	H 	0.5409	0.6731	0.0204	0.031
Mof_H 	H 	0.9591	0.9795	0.1322	0.03
Mof_H 	H 	0.6731	0.5204	0.0409	0.031
Mof_H 	H 	0.4591	0.1322	0.9795	0.03
Mof_H 	H 	0.1527	0.5205	0.4796	0.03
Mof_H 	H 	0.8473	0.3678	0.8269	0.03
Mof_H 	H 	0.5204	0.5409	0.1731	0.031
Mof_H 	H 	0.4795	0.4591	0.6322	0.031
Mof_H 	H 	0.1322	0.4795	0.9591	0.031
Mof_H 	H 	0.3473	0.8269	0.3678	0.031
Mof_H 	H 	0.9796	0.1527	0.0205	0.03
Mof_H 	H 	0.1731	0.0409	0.5204	0.032
Mof_H 	H 	0.0205	0.6527	0.9796	0.031
Mof_H 	H 	0.6527	0.4796	0.5205	0.031
Mof_H 	H 	0.6322	0.9591	0.4795	0.031
Mof_H 	H 	0.9795	0.6322	0.4591	0.03
Mof_H 	H 	0.5205	0.9796	0.6527	0.031
Mof_H 	H 	0.3678	0.3269	0.3473	0.031
Mof_H 	H 	0.3269	0.8473	0.8678	0.03
Mof_H 	H 	0.8678	0.3473	0.3269	0.03
Mof_H 	H 	0.0204	0.1731	0.5409	0.032
Mof_H 	H 	0.8269	0.8678	0.8473	0.029
Mof_H 	H 	0.4796	0.0205	0.1527	0.03
Mof_C 	C 	0.87301	0.02157	0.83534	0.497
Mof_C 	C 	0.16466	0.68623	0.53767	0.498
Mof_C 	C 	0.63568	0.54484	0.0573	0.124
Mof_C 	C 	0.02404	0.10265	0.61369	-0.173
Mof_C 	C 	0.0573	0.04484	0.63568	0.121
Mof_C 	C 	0.36432	0.90916	0.92162	0.127
Mof_C 	C 	0.86432	0.92162	0.90916	0.13
Mof_C 	C 	0.01104	0.42139	0.39735	-0.178
Mof_C 	C 	0.02157	0.33534	0.37301	0.496
Mof_C 	C 	0.18623	0.66466	0.03767	0.494
Mof_C 	C 	0.33534	0.87301	0.52157	0.497
Mof_C 	C 	0.83534	0.52157	0.87301	0.498
Mof_C 	C 	0.03767	0.16466	0.18623	0.497
Mof_C 	C 	0.64856	0.62699	0.96233	0.496
Mof_C 	C 	0.12699	0.14856	0.46233	0.496
Mof_C 	C 	0.97596	0.07861	0.08965	-0.18
Mof_C 	C 	0.53767	0.18623	0.16466	0.498
Mof_C 	C 	0.85144	0.81377	0.97843	0.496
Mof_C 	C 	0.92139	0.51104	0.89735	-0.179
Mof_C 	C 	0.38631	0.98896	0.91035	-0.178
Mof_C 	C 	0.46233	0.64856	0.12699	0.497
Mof_C 	C 	0.91035	0.48896	0.38631	-0.178
Mof_C 	C 	0.51246	0.95516	0.59084	0.124
Mof_C 	C 	0.14856	0.96233	0.62699	0.494
Mof_C 	C 	0.92162	0.40916	0.36432	0.127
Mof_C 	C 	0.37301	0.83534	0.02157	0.496
Mof_C 	C 	0.07838	0.48754	0.9427	0.127
Mof_C 	C 	0.31377	0.35144	0.47843	0.497
Mof_C 	C 	0.42139	0.89735	0.51104	-0.176
Mof_C 	C 	0.35144	0.97843	0.81377	0.497
Mof_C 	C 	0.88631	0.91035	0.98896	-0.181
Mof_C 	C 	0.04484	0.13568	0.5573	0.122
Mof_C 	C 	0.97843	0.31377	0.85144	0.494
Mof_C 	C 	0.10265	0.11369	0.52404	-0.174
Mof_C 	C 	0.5573	0.63568	0.04484	0.124
Mof_C 	C 	0.47843	0.85144	0.31377	0.497
Mof_C 	C 	0.11369	0.02404	0.60265	-0.173
Mof_C 	C 	0.54484	0.5573	0.13568	0.124
Mof_C 	C 	0.39735	0.92139	0.01104	-0.18
Mof_C 	C 	0.45516	0.01246	0.09084	0.127
Mof_C 	C 	0.68623	0.03767	0.66466	0.496
Mof_C 	C 	0.96233	0.12699	0.64856	0.494
Mof_C 	C 	0.47596	0.08965	0.07861	-0.178
Mof_C 	C 	0.61369	0.60265	0.02404	-0.175
Mof_C 	C 	0.62699	0.46233	0.14856	0.497
Mof_C 	C 	0.09084	0.51246	0.45516	0.126
Mof_C 	C 	0.81377	0.47843	0.35144	0.498
Mof_C 	C 	0.48754	0.4427	0.57838	0.124
Mof_C 	C 	0.59084	0.45516	0.51246	0.124
Mof_C 	C 	0.41035	0.38631	0.48896	-0.176
Mof_C 	C 	0.98896	0.41035	0.88631	-0.178
Mof_C 	C 	0.07861	0.58965	0.47596	-0.179
Mof_C 	C 	0.57838	0.9427	0.48754	0.123
Mof_C 	C 	0.89735	0.01104	0.92139	-0.183
Mof_C 	C 	0.9427	0.98754	0.07838	0.131
Mof_C 	C 	0.60265	0.52404	0.11369	-0.176
Mof_C 	C 	0.42162	0.36432	0.40916	0.124
Mof_C 	C 	0.01246	0.59084	0.95516	0.126
Mof_C 	C 	0.66466	0.53767	0.68623	0.497
Mof_C 	C 	0.08965	0.57861	0.97596	-0.175
Mof_C 	C 	0.90916	0.42162	0.86432	0.125
Mof_C 	C 	0.52404	0.61369	0.10265	-0.176
Mof_C 	C 	0.52157	0.37301	0.33534	0.497
Mof_C 	C 	0.4427	0.07838	0.98754	0.127
Mof_C 	C 	0.95516	0.09084	0.01246	0.131
Mof_C 	C 	0.58965	0.97596	0.57861	-0.175
Mof_C 	C 	0.48896	0.88631	0.41035	-0.176
Mof_C 	C 	0.40916	0.86432	0.42162	0.124
Mof_C 	C 	0.57861	0.47596	0.58965	-0.176
Mof_C 	C 	0.51104	0.39735	0.42139	-0.176
Mof_C 	C 	0.98754	0.57838	0.4427	0.127
Mof_C 	C 	0.13568	0.0573	0.54484	0.122
Mof_O 	O 	0.90412	0.10943	0.85379	-0.981
Mof_O 	O 	0.20531	0.94967	0.59588	-0.981
Mof_O 	O 	0.95538	0.25622	0.32972	-0.414
Mof_O 	O 	0.44967	0.70531	0.09588	-0.981
Mof_O 	O 	0.24436	0.29469	0.39057	-0.981
Mof_O 	O 	0.55033	0.25564	0.14621	-0.981
Mof_O 	O 	0.94967	0.09588	0.70531	-0.981
Mof_O 	O 	0.4265	0.62566	0.17028	-0.415
Mof_O 	O 	0.39057	0.79469	0.24436	-0.98
Mof_O 	O 	0.74378	0.5735	0.69916	-0.414
Mof_O 	O 	0.59588	0.44967	0.20531	-0.981
Mof_O 	O 	0.10943	0.35379	0.40412	-0.98
Mof_O 	O 	0.40412	0.85379	0.10943	-0.98
Mof_O 	O 	0.32972	0.75622	0.95538	-0.413
Mof_O 	O 	0.25564	0.64621	0.05033	-0.981
Mof_O 	O 	0.75622	0.45538	0.82972	-0.415
Mof_O 	O 	0.60943	0.40412	0.35379	-0.981
Mof_O 	O 	0.09588	0.20531	0.44967	-0.98
Mof_O 	O 	0.35379	0.90412	0.60943	-0.981
Mof_O 	O 	0.37434	0.04462	0.80084	-0.414
Mof_O 	O 	0.80084	0.54462	0.37434	-0.414
Mof_O 	O 	0.89057	0.24436	0.79469	-0.98
Mof_O 	O 	0.5735	0.19916	0.24378	-0.415
Mof_O 	O 	0.62566	0.67028	0.9265	-0.414
Mof_O 	O 	0.25622	0.82972	0.45538	-0.415
Mof_O 	O 	0.04462	0.30084	0.87434	-0.412
Mof_O 	O 	0.75564	0.05033	0.64621	-0.98
Mof_O 	O 	0.24378	0.69916	0.5735	-0.415
Mof_O 	O 	0.79469	0.74436	0.89057	-0.98
Mof_O 	O 	0.82972	0.95538	0.75622	-0.413
Mof_O 	O 	0.12566	0.9265	0.67028	-0.414
Mof_O 	O 	0.67028	0.4265	0.12566	-0.414
Mof_O 	O 	0.85379	0.60943	0.90412	-0.981
Mof_O 	O 	0.19916	0.74378	0.0735	-0.415
Mof_O 	O 	0.17028	0.12566	0.4265	-0.414
Mof_O 	O 	0.05033	0.14621	0.25564	-0.981
Mof_O 	O 	0.30084	0.37434	0.54462	-0.414
Mof_O 	O 	0.70531	0.59588	0.94967	-0.981
Mof_O 	O 	0.64621	0.55033	0.75564	-0.98
Mof_O 	O 	0.74436	0.39057	0.29469	-0.981
Mof_O 	O 	0.87434	0.80084	0.04462	-0.413
Mof_O 	O 	0.69916	0.0735	0.74378	-0.414
Mof_O 	O 	0.29469	0.89057	0.74436	-0.98
Mof_O 	O 	0.14621	0.75564	0.55033	-0.981
Mof_O 	O 	0.45538	0.32972	0.25622	-0.415
Mof_O 	O 	0.0735	0.24378	0.19916	-0.415
Mof_O 	O 	0.9265	0.17028	0.62566	-0.414
Mof_O 	O 	0.54462	0.87434	0.30084	-0.414
_end
