data_functionalizedCrystal
_audit_creation_method	'EQeq! by Chris Wilmer'
_symmetry_space_group_name_H-M	'P1'
_symmetry_Int_Tables_number	1
_symmetry_cell_setting	triclinic
loop_
_symmetry_equiv_pos_as_xyz
  x,y,z
_cell_length_a	8.783
_cell_length_b	9.285
_cell_length_c	18.952
_cell_angle_alpha	90
_cell_angle_beta	90
_cell_angle_gamma	109.398
loop_
_atom_site_label
_atom_site_type_symbol
_atom_site_fract_x
_atom_site_fract_y
_atom_site_fract_z
_atom_site_charge
Mof_Gd	Gd	0.21026	0.48489	0.55312	1.661
Mof_Gd	Gd	0.78974	0.01511	0.05312	1.604
Mof_Gd	Gd	0.21026	0.98489	0.94688	1.604
Mof_Gd	Gd	0.78974	0.51511	0.44688	1.661
Mof_H 	H 	0.2014	0.4409	0.0589	0.042
Mof_H 	H 	0.2014	0.9409	0.4411	0.047
Mof_H 	H 	0.5897	0.5741	0.7095	0.02
Mof_H 	H 	0.5897	0.0741	0.7905	0.024
Mof_H 	H 	0.7451	0.169	0.6918	0.067
Mof_H 	H 	0.7986	0.5591	0.9411	0.042
Mof_H 	H 	0.4103	0.4259	0.2905	0.02
Mof_H 	H 	0.2549	0.331	0.1918	0.072
Mof_H 	H 	0.9385	0.0163	0.3129	0.057
Mof_H 	H 	0.0615	0.9837	0.6871	0.057
Mof_H 	H 	0.7451	0.669	0.8082	0.072
Mof_H 	H 	0.9385	0.5163	0.1871	0.067
Mof_H 	H 	0.2549	0.831	0.3082	0.067
Mof_H 	H 	0.4103	0.9259	0.2095	0.024
Mof_H 	H 	0.0615	0.4837	0.8129	0.067
Mof_H 	H 	0.7986	0.0591	0.5589	0.047
Mof_C 	C 	0.2722	0.2752	0.361	-0.154
Mof_C 	C 	0.0178	0.9006	0.8218	0.244
Mof_C 	C 	0.2235	0.2859	0.2357	-0.087
Mof_C 	C 	0.3836	0.84	0.0774	0.447
Mof_C 	C 	0.6835	0.1579	0.7949	0.042
Mof_C 	C 	0.0178	0.4006	0.6782	0.29
Mof_C 	C 	0.7278	0.7248	0.639	-0.154
Mof_C 	C 	0.9439	0.613	0.0259	-0.111
Mof_C 	C 	0.1203	0.4653	0.0354	-0.023
Mof_C 	C 	0.2235	0.7859	0.2643	-0.075
Mof_C 	C 	0.6835	0.6579	0.7051	0.048
Mof_C 	C 	0.2722	0.7752	0.139	-0.15
Mof_C 	C 	0.0673	0.0785	0.4374	0.028
Mof_C 	C 	0.9173	0.3386	0.7424	-0.022
Mof_C 	C 	0.9173	0.8386	0.7576	-0.004
Mof_C 	C 	0.8963	0.7449	0.0486	0.348
Mof_C 	C 	0.9658	0.9022	0.6915	-0.066
Mof_C 	C 	0.3165	0.3421	0.2949	0.048
Mof_C 	C 	0.1278	0.6551	0.1316	0.063
Mof_C 	C 	0.8722	0.8449	0.6316	0.059
Mof_C 	C 	0.8797	0.0347	0.5354	-0.038
Mof_C 	C 	0.0561	0.387	0.9741	-0.111
Mof_C 	C 	0.0827	0.1614	0.2424	-0.004
Mof_C 	C 	0.9658	0.4022	0.8085	-0.074
Mof_C 	C 	0.9439	0.113	0.4741	-0.115
Mof_C 	C 	0.7765	0.7141	0.7643	-0.087
Mof_C 	C 	0.8722	0.3449	0.8684	0.063
Mof_C 	C 	0.0673	0.5785	0.0626	0.013
Mof_C 	C 	0.8797	0.5347	0.9646	-0.023
Mof_C 	C 	0.6164	0.16	0.9226	0.447
Mof_C 	C 	0.9822	0.0994	0.1782	0.244
Mof_C 	C 	0.0827	0.6614	0.2576	-0.022
Mof_C 	C 	0.9822	0.5994	0.3218	0.29
Mof_C 	C 	0.1203	0.9653	0.4646	-0.038
Mof_C 	C 	0.9327	0.4215	0.9374	0.013
Mof_C 	C 	0.7765	0.2141	0.7357	-0.075
Mof_C 	C 	0.1278	0.1551	0.3684	0.059
Mof_C 	C 	0.7278	0.2248	0.861	-0.15
Mof_C 	C 	0.0342	0.0978	0.3085	-0.066
Mof_C 	C 	0.1037	0.2551	0.9514	0.348
Mof_C 	C 	0.0561	0.887	0.5259	-0.115
Mof_C 	C 	0.6164	0.66	0.5774	0.453
Mof_C 	C 	0.8963	0.2449	0.4514	0.35
Mof_C 	C 	0.3165	0.8421	0.2051	0.042
Mof_C 	C 	0.0342	0.5978	0.1915	-0.074
Mof_C 	C 	0.9327	0.9215	0.5626	0.028
Mof_C 	C 	0.3836	0.34	0.4226	0.453
Mof_C 	C 	0.1037	0.7551	0.5486	0.35
Mof_O 	O 	0.2391	0.2712	0.925	-0.353
Mof_O 	O 	0.6745	0.66	0.5167	-0.497
Mof_O 	O 	0.2391	0.7712	0.575	-0.36
Mof_O 	O 	0.468	0.6117	0.592	-0.485
Mof_O 	O 	0.3255	0.84	0.0167	-0.486
Mof_O 	O 	0.0052	0.6216	0.5354	-0.507
Mof_O 	O 	0.1518	0.5027	0.6826	-0.364
Mof_O 	O 	0.0052	0.1216	0.9646	-0.491
Mof_O 	O 	0.7609	0.2288	0.425	-0.36
Mof_O 	O 	0.532	0.8883	0.092	-0.473
Mof_O 	O 	0.8482	0.9973	0.1826	-0.336
Mof_O 	O 	0.8482	0.4973	0.3174	-0.364
Mof_O 	O 	0.532	0.3883	0.408	-0.485
Mof_O 	O 	0.9948	0.8784	0.0354	-0.491
Mof_O 	O 	0.0369	0.1551	0.1182	-0.376
Mof_O 	O 	0.468	0.1117	0.908	-0.473
Mof_O 	O 	0.3255	0.34	0.4833	-0.497
Mof_O 	O 	0.9631	0.8449	0.8818	-0.376
Mof_O 	O 	0.9948	0.3784	0.4646	-0.507
Mof_O 	O 	0.6745	0.16	0.9833	-0.486
Mof_O 	O 	0.1518	0.0027	0.8174	-0.336
Mof_O 	O 	0.7609	0.7288	0.075	-0.353
Mof_O 	O 	0.0369	0.6551	0.3818	-0.399
Mof_O 	O 	0.9631	0.3449	0.6182	-0.399
_end
