data_functionalizedCrystal
_audit_creation_method	'EQeq! by Chris Wilmer'
_symmetry_space_group_name_H-M	'P1'
_symmetry_Int_Tables_number	1
_symmetry_cell_setting	triclinic
loop_
_symmetry_equiv_pos_as_xyz
  x,y,z
_cell_length_a	23.092
_cell_length_b	23.092
_cell_length_c	23.092
_cell_angle_alpha	60
_cell_angle_beta	60
_cell_angle_gamma	60
loop_
_atom_site_label
_atom_site_type_symbol
_atom_site_fract_x
_atom_site_fract_y
_atom_site_fract_z
_atom_site_charge
Mof_H 	H 	0.6265	0.8527	0.5599	0.216
Mof_H 	H 	0.4401	0.1473	0.3735	0.215
Mof_H 	H 	0.4123	0.7647	0.5877	0.008
Mof_H 	H 	0.4122	0.867	0.5878	0.083
Mof_C 	C 	0.44789	0.78531	0.55211	0.095
Mof_C 	C 	0.4478	0.8462	0.5522	-0.191
Mof_O 	O 	0.45047	0.66683	0.54953	-0.665
Mof_H 	H 	0.8527	0.6265	0.9609	0.215
Mof_H 	H 	0.1473	0.4401	0.0391	0.214
Mof_H 	H 	0.7647	0.4123	0.2353	0.008
Mof_H 	H 	0.867	0.4122	0.133	0.083
Mof_C 	C 	0.78531	0.44789	0.21469	0.095
Mof_C 	C 	0.8462	0.4478	0.1538	-0.192
Mof_O 	O 	0.66683	0.45047	0.33317	-0.665
Mof_H 	H 	0.5599	0.9609	0.6265	0.216
Mof_H 	H 	0.3735	0.0391	0.4401	0.215
Mof_H 	H 	0.5877	0.2353	0.4123	0.009
Mof_H 	H 	0.5878	0.133	0.4122	0.084
Mof_C 	C 	0.55211	0.21469	0.44789	0.096
Mof_C 	C 	0.5522	0.1538	0.4478	-0.19
Mof_O 	O 	0.54953	0.33317	0.45047	-0.664
Mof_H 	H 	0.9609	0.5599	0.8527	0.215
Mof_H 	H 	0.0391	0.3735	0.1473	0.215
Mof_H 	H 	0.2353	0.5877	0.7647	0.009
Mof_H 	H 	0.133	0.5878	0.867	0.084
Mof_C 	C 	0.21469	0.55211	0.78531	0.096
Mof_C 	C 	0.1538	0.5522	0.8462	-0.191
Mof_O 	O 	0.33317	0.54953	0.66683	-0.664
Mof_H 	H 	0.5599	0.6265	0.8527	0.217
Mof_H 	H 	0.3735	0.4401	0.1473	0.216
Mof_H 	H 	0.5877	0.4123	0.7647	0.009
Mof_H 	H 	0.5878	0.4122	0.867	0.084
Mof_C 	C 	0.55211	0.44789	0.78531	0.096
Mof_C 	C 	0.5522	0.4478	0.8462	-0.19
Mof_O 	O 	0.54953	0.45047	0.66683	-0.664
Mof_H 	H 	0.9609	0.8527	0.6265	0.216
Mof_H 	H 	0.0391	0.1473	0.4401	0.215
Mof_H 	H 	0.2353	0.7647	0.4123	0.009
Mof_H 	H 	0.133	0.867	0.4122	0.084
Mof_C 	C 	0.21469	0.78531	0.44789	0.096
Mof_C 	C 	0.1538	0.8462	0.4478	-0.191
Mof_O 	O 	0.33317	0.66683	0.45047	-0.664
Mof_H 	H 	0.6265	0.5599	0.9609	0.216
Mof_H 	H 	0.4401	0.3735	0.0391	0.215
Mof_H 	H 	0.4123	0.5877	0.2353	0.009
Mof_H 	H 	0.4122	0.5878	0.133	0.084
Mof_C 	C 	0.44789	0.55211	0.21469	0.096
Mof_C 	C 	0.4478	0.5522	0.1538	-0.19
Mof_O 	O 	0.45047	0.54953	0.33317	-0.664
Mof_H 	H 	0.8527	0.9609	0.5599	0.215
Mof_H 	H 	0.1473	0.0391	0.3735	0.215
Mof_H 	H 	0.7647	0.2353	0.5877	0.009
Mof_H 	H 	0.867	0.133	0.5878	0.084
Mof_C 	C 	0.78531	0.21469	0.55211	0.096
Mof_C 	C 	0.8462	0.1538	0.5522	-0.191
Mof_O 	O 	0.66683	0.33317	0.54953	-0.664
Mof_H 	H 	0.8527	0.5599	0.6265	0.217
Mof_H 	H 	0.1473	0.3735	0.4401	0.216
Mof_H 	H 	0.7647	0.5877	0.4123	0.009
Mof_H 	H 	0.867	0.5878	0.4122	0.084
Mof_C 	C 	0.78531	0.55211	0.44789	0.096
Mof_C 	C 	0.8462	0.5522	0.4478	-0.19
Mof_O 	O 	0.66683	0.54953	0.45047	-0.664
Mof_H 	H 	0.6265	0.9609	0.8527	0.216
Mof_H 	H 	0.4401	0.0391	0.1473	0.215
Mof_H 	H 	0.4123	0.2353	0.7647	0.009
Mof_H 	H 	0.4122	0.133	0.867	0.084
Mof_C 	C 	0.44789	0.21469	0.78531	0.096
Mof_C 	C 	0.4478	0.1538	0.8462	-0.191
Mof_O 	O 	0.45047	0.33317	0.66683	-0.664
Mof_H 	H 	0.9609	0.6265	0.5599	0.216
Mof_H 	H 	0.0391	0.4401	0.3735	0.215
Mof_H 	H 	0.2353	0.4123	0.5877	0.009
Mof_H 	H 	0.133	0.4122	0.5878	0.084
Mof_C 	C 	0.21469	0.44789	0.55211	0.096
Mof_C 	C 	0.1538	0.4478	0.5522	-0.19
Mof_O 	O 	0.33317	0.45047	0.54953	-0.664
Mof_H 	H 	0.5599	0.8527	0.9609	0.215
Mof_H 	H 	0.3735	0.1473	0.0391	0.215
Mof_H 	H 	0.5877	0.7647	0.2353	0.009
Mof_H 	H 	0.5878	0.867	0.133	0.084
Mof_C 	C 	0.55211	0.78531	0.21469	0.096
Mof_C 	C 	0.5522	0.8462	0.1538	-0.191
Mof_O 	O 	0.54953	0.66683	0.33317	-0.664
Mof_H 	H 	0.8527	0.6265	0.5599	0.217
Mof_H 	H 	0.1473	0.4401	0.3735	0.216
Mof_H 	H 	0.7647	0.4123	0.5877	0.009
Mof_H 	H 	0.867	0.4122	0.5878	0.084
Mof_C 	C 	0.78531	0.44789	0.55211	0.096
Mof_C 	C 	0.8462	0.4478	0.5522	-0.19
Mof_O 	O 	0.66683	0.45047	0.54953	-0.664
Mof_H 	H 	0.6265	0.8527	0.9609	0.216
Mof_H 	H 	0.4401	0.1473	0.0391	0.215
Mof_H 	H 	0.4123	0.7647	0.2353	0.009
Mof_H 	H 	0.4122	0.867	0.133	0.084
Mof_C 	C 	0.44789	0.78531	0.21469	0.096
Mof_C 	C 	0.4478	0.8462	0.1538	-0.191
Mof_O 	O 	0.45047	0.66683	0.33317	-0.664
Mof_H 	H 	0.9609	0.5599	0.6265	0.216
Mof_H 	H 	0.0391	0.3735	0.4401	0.215
Mof_H 	H 	0.2353	0.5877	0.4123	0.009
Mof_H 	H 	0.133	0.5878	0.4122	0.084
Mof_C 	C 	0.21469	0.55211	0.44789	0.096
Mof_C 	C 	0.1538	0.5522	0.4478	-0.19
Mof_O 	O 	0.33317	0.54953	0.45047	-0.664
Mof_H 	H 	0.5599	0.9609	0.8527	0.215
Mof_H 	H 	0.3735	0.0391	0.1473	0.215
Mof_H 	H 	0.5877	0.2353	0.7647	0.009
Mof_H 	H 	0.5878	0.133	0.867	0.084
Mof_C 	C 	0.55211	0.21469	0.78531	0.096
Mof_C 	C 	0.5522	0.1538	0.8462	-0.191
Mof_O 	O 	0.54953	0.33317	0.66683	-0.664
Mof_H 	H 	0.6265	0.5599	0.8527	0.217
Mof_H 	H 	0.4401	0.3735	0.1473	0.216
Mof_H 	H 	0.4123	0.5877	0.7647	0.009
Mof_H 	H 	0.4122	0.5878	0.867	0.084
Mof_C 	C 	0.44789	0.55211	0.78531	0.096
Mof_C 	C 	0.4478	0.5522	0.8462	-0.19
Mof_O 	O 	0.45047	0.54953	0.66683	-0.664
Mof_H 	H 	0.8527	0.9609	0.6265	0.216
Mof_H 	H 	0.1473	0.0391	0.4401	0.215
Mof_H 	H 	0.7647	0.2353	0.4123	0.009
Mof_H 	H 	0.867	0.133	0.4122	0.084
Mof_C 	C 	0.78531	0.21469	0.44789	0.096
Mof_C 	C 	0.8462	0.1538	0.4478	-0.191
Mof_O 	O 	0.66683	0.33317	0.45047	-0.664
Mof_H 	H 	0.5599	0.6265	0.9609	0.216
Mof_H 	H 	0.3735	0.4401	0.0391	0.215
Mof_H 	H 	0.5877	0.4123	0.2353	0.009
Mof_H 	H 	0.5878	0.4122	0.133	0.084
Mof_C 	C 	0.55211	0.44789	0.21469	0.096
Mof_C 	C 	0.5522	0.4478	0.1538	-0.19
Mof_O 	O 	0.54953	0.45047	0.33317	-0.664
Mof_H 	H 	0.9609	0.8527	0.5599	0.215
Mof_H 	H 	0.0391	0.1473	0.3735	0.215
Mof_H 	H 	0.2353	0.7647	0.5877	0.009
Mof_H 	H 	0.133	0.867	0.5878	0.084
Mof_C 	C 	0.21469	0.78531	0.55211	0.096
Mof_C 	C 	0.1538	0.8462	0.5522	-0.191
Mof_O 	O 	0.33317	0.66683	0.54953	-0.664
Mof_H 	H 	0.5599	0.8527	0.6265	0.217
Mof_H 	H 	0.3735	0.1473	0.4401	0.216
Mof_H 	H 	0.5877	0.7647	0.4123	0.009
Mof_H 	H 	0.5878	0.867	0.4122	0.084
Mof_C 	C 	0.55211	0.78531	0.44789	0.096
Mof_C 	C 	0.5522	0.8462	0.4478	-0.19
Mof_O 	O 	0.54953	0.66683	0.45047	-0.664
Mof_H 	H 	0.9609	0.6265	0.8527	0.216
Mof_H 	H 	0.0391	0.4401	0.1473	0.215
Mof_H 	H 	0.2353	0.4123	0.7647	0.009
Mof_H 	H 	0.133	0.4122	0.867	0.084
Mof_C 	C 	0.21469	0.44789	0.78531	0.096
Mof_C 	C 	0.1538	0.4478	0.8462	-0.191
Mof_O 	O 	0.33317	0.45047	0.66683	-0.664
Mof_H 	H 	0.6265	0.9609	0.5599	0.216
Mof_H 	H 	0.4401	0.0391	0.3735	0.215
Mof_H 	H 	0.4123	0.2353	0.5877	0.009
Mof_H 	H 	0.4122	0.133	0.5878	0.084
Mof_C 	C 	0.44789	0.21469	0.55211	0.096
Mof_C 	C 	0.4478	0.1538	0.5522	-0.19
Mof_O 	O 	0.45047	0.33317	0.54953	-0.664
Mof_H 	H 	0.8527	0.5599	0.9609	0.215
Mof_H 	H 	0.1473	0.3735	0.0391	0.215
Mof_H 	H 	0.7647	0.5877	0.2353	0.009
Mof_H 	H 	0.867	0.5878	0.133	0.084
Mof_C 	C 	0.78531	0.55211	0.21469	0.096
Mof_C 	C 	0.8462	0.5522	0.1538	-0.191
Mof_O 	O 	0.66683	0.54953	0.33317	-0.664
Mof_Zr	Zr	0.42465	0.57535	0.57535	3.221
Mof_Zr	Zr	0.57535	0.42465	0.42465	3.221
Mof_Zr	Zr	0.57535	0.42465	0.57535	3.221
Mof_Zr	Zr	0.42465	0.57535	0.42465	3.221
Mof_Zr	Zr	0.57535	0.57535	0.42465	3.221
Mof_Zr	Zr	0.42465	0.42465	0.57535	3.221
Mof_H 	H 	0.5719	0.8243	0.5719	0.228
Mof_H 	H 	0.4281	0.1757	0.4281	0.227
Mof_C 	C 	0.5	0.68934	0.5	0.531
Mof_C 	C 	0.5	0.7552	0.5	-0.185
Mof_C 	C 	0.5	0.8752	0.5	0.132
Mof_C 	C 	0.5	0.94066	0.5	-0.157
Mof_C 	C 	0.53718	0.93272	0.53718	0.124
Mof_C 	C 	0.5777	0.8591	0.5777	-0.68
Mof_C 	C 	0.46282	0.06728	0.46282	0.124
Mof_C 	C 	0.4223	0.1409	0.4223	-0.678
Mof_H 	H 	0.8243	0.5719	0.0319	0.226
Mof_H 	H 	0.1757	0.4281	0.9681	0.225
Mof_C 	C 	0.68934	0.5	0.31066	0.531
Mof_C 	C 	0.7552	0.5	0.2448	-0.185
Mof_C 	C 	0.8752	0.5	0.1248	0.132
Mof_C 	C 	0.94066	0.5	0.05934	-0.159
Mof_C 	C 	0.93272	0.53718	0.99292	0.125
Mof_C 	C 	0.8591	0.5777	0.9855	-0.676
Mof_C 	C 	0.06728	0.46282	0.00708	0.124
Mof_C 	C 	0.1409	0.4223	0.0145	-0.674
Mof_H 	H 	0.5719	0.0319	0.5719	0.227
Mof_H 	H 	0.4281	0.9681	0.4281	0.226
Mof_C 	C 	0.5	0.31066	0.5	0.531
Mof_C 	C 	0.5	0.2448	0.5	-0.185
Mof_C 	C 	0.5	0.1248	0.5	0.132
Mof_C 	C 	0.5	0.05934	0.5	-0.157
Mof_C 	C 	0.53718	0.99292	0.53718	0.123
Mof_C 	C 	0.5777	0.9855	0.5777	-0.678
Mof_C 	C 	0.46282	0.00708	0.46282	0.123
Mof_C 	C 	0.4223	0.0145	0.4223	-0.676
Mof_H 	H 	0.0319	0.5719	0.8243	0.226
Mof_H 	H 	0.9681	0.4281	0.1757	0.225
Mof_C 	C 	0.31066	0.5	0.68934	0.531
Mof_C 	C 	0.2448	0.5	0.7552	-0.185
Mof_C 	C 	0.1248	0.5	0.8752	0.132
Mof_C 	C 	0.05934	0.5	0.94066	-0.159
Mof_C 	C 	0.99292	0.53718	0.93272	0.125
Mof_C 	C 	0.9855	0.5777	0.8591	-0.676
Mof_C 	C 	0.00708	0.46282	0.06728	0.124
Mof_C 	C 	0.0145	0.4223	0.1409	-0.674
Mof_H 	H 	0.5719	0.5719	0.8243	0.228
Mof_H 	H 	0.4281	0.4281	0.1757	0.227
Mof_C 	C 	0.5	0.5	0.68934	0.531
Mof_C 	C 	0.5	0.5	0.7552	-0.185
Mof_C 	C 	0.5	0.5	0.8752	0.132
Mof_C 	C 	0.5	0.5	0.94066	-0.157
Mof_C 	C 	0.53718	0.53718	0.93272	0.124
Mof_C 	C 	0.5777	0.5777	0.8591	-0.68
Mof_C 	C 	0.46282	0.46282	0.06728	0.124
Mof_C 	C 	0.4223	0.4223	0.1409	-0.678
Mof_H 	H 	0.0319	0.8243	0.5719	0.226
Mof_H 	H 	0.9681	0.1757	0.4281	0.225
Mof_C 	C 	0.31066	0.68934	0.5	0.531
Mof_C 	C 	0.2448	0.7552	0.5	-0.185
Mof_C 	C 	0.1248	0.8752	0.5	0.132
Mof_C 	C 	0.05934	0.94066	0.5	-0.159
Mof_C 	C 	0.99292	0.93272	0.53718	0.125
Mof_C 	C 	0.9855	0.8591	0.5777	-0.676
Mof_C 	C 	0.00708	0.06728	0.46282	0.124
Mof_C 	C 	0.0145	0.1409	0.4223	-0.674
Mof_H 	H 	0.5719	0.5719	0.0319	0.227
Mof_H 	H 	0.4281	0.4281	0.9681	0.226
Mof_C 	C 	0.5	0.5	0.31066	0.531
Mof_C 	C 	0.5	0.5	0.2448	-0.185
Mof_C 	C 	0.5	0.5	0.1248	0.132
Mof_C 	C 	0.5	0.5	0.05934	-0.157
Mof_C 	C 	0.53718	0.53718	0.99292	0.123
Mof_C 	C 	0.5777	0.5777	0.9855	-0.678
Mof_C 	C 	0.46282	0.46282	0.00708	0.123
Mof_C 	C 	0.4223	0.4223	0.0145	-0.676
Mof_H 	H 	0.8243	0.0319	0.5719	0.226
Mof_H 	H 	0.1757	0.9681	0.4281	0.225
Mof_C 	C 	0.68934	0.31066	0.5	0.531
Mof_C 	C 	0.7552	0.2448	0.5	-0.185
Mof_C 	C 	0.8752	0.1248	0.5	0.132
Mof_C 	C 	0.94066	0.05934	0.5	-0.159
Mof_C 	C 	0.93272	0.99292	0.53718	0.125
Mof_C 	C 	0.8591	0.9855	0.5777	-0.676
Mof_C 	C 	0.06728	0.00708	0.46282	0.124
Mof_C 	C 	0.1409	0.0145	0.4223	-0.674
Mof_H 	H 	0.8243	0.5719	0.5719	0.228
Mof_H 	H 	0.1757	0.4281	0.4281	0.227
Mof_C 	C 	0.68934	0.5	0.5	0.531
Mof_C 	C 	0.7552	0.5	0.5	-0.185
Mof_C 	C 	0.8752	0.5	0.5	0.132
Mof_C 	C 	0.94066	0.5	0.5	-0.157
Mof_C 	C 	0.93272	0.53718	0.53718	0.124
Mof_C 	C 	0.8591	0.5777	0.5777	-0.68
Mof_C 	C 	0.06728	0.46282	0.46282	0.124
Mof_C 	C 	0.1409	0.4223	0.4223	-0.678
Mof_H 	H 	0.5719	0.0319	0.8243	0.226
Mof_H 	H 	0.4281	0.9681	0.1757	0.225
Mof_C 	C 	0.5	0.31066	0.68934	0.531
Mof_C 	C 	0.5	0.2448	0.7552	-0.185
Mof_C 	C 	0.5	0.1248	0.8752	0.132
Mof_C 	C 	0.5	0.05934	0.94066	-0.159
Mof_C 	C 	0.53718	0.99292	0.93272	0.125
Mof_C 	C 	0.5777	0.9855	0.8591	-0.676
Mof_C 	C 	0.46282	0.00708	0.06728	0.124
Mof_C 	C 	0.4223	0.0145	0.1409	-0.674
Mof_H 	H 	0.0319	0.5719	0.5719	0.227
Mof_H 	H 	0.9681	0.4281	0.4281	0.226
Mof_C 	C 	0.31066	0.5	0.5	0.531
Mof_C 	C 	0.2448	0.5	0.5	-0.185
Mof_C 	C 	0.1248	0.5	0.5	0.132
Mof_C 	C 	0.05934	0.5	0.5	-0.157
Mof_C 	C 	0.99292	0.53718	0.53718	0.123
Mof_C 	C 	0.9855	0.5777	0.5777	-0.678
Mof_C 	C 	0.00708	0.46282	0.46282	0.123
Mof_C 	C 	0.0145	0.4223	0.4223	-0.676
Mof_H 	H 	0.5719	0.8243	0.0319	0.226
Mof_H 	H 	0.4281	0.1757	0.9681	0.225
Mof_C 	C 	0.5	0.68934	0.31066	0.531
Mof_C 	C 	0.5	0.7552	0.2448	-0.185
Mof_C 	C 	0.5	0.8752	0.1248	0.132
Mof_C 	C 	0.5	0.94066	0.05934	-0.159
Mof_C 	C 	0.53718	0.93272	0.99292	0.125
Mof_C 	C 	0.5777	0.8591	0.9855	-0.676
Mof_C 	C 	0.46282	0.06728	0.00708	0.124
Mof_C 	C 	0.4223	0.1409	0.0145	-0.674
Mof_O 	O 	0.46293	0.61121	0.46293	-1.3
Mof_O 	O 	0.53707	0.38879	0.53707	-1.245
Mof_O 	O 	0.61121	0.46293	0.46293	-1.3
Mof_O 	O 	0.38879	0.53707	0.53707	-1.245
Mof_O 	O 	0.46293	0.46293	0.46293	-1.3
Mof_O 	O 	0.53707	0.53707	0.53707	-1.245
Mof_O 	O 	0.46293	0.46293	0.61121	-1.3
Mof_O 	O 	0.53707	0.53707	0.38879	-1.245
Mof_H 	H 	0.44119	0.44119	0.44119	0.12
Mof_H 	H 	0.44119	0.44119	0.67644	0.12
Mof_H 	H 	0.44119	0.67644	0.44119	0.12
Mof_H 	H 	0.67644	0.44119	0.44119	0.12
_end
