data_functionalizedCrystal
_audit_creation_method	'EQeq! by Chris Wilmer'
_symmetry_space_group_name_H-M	'P1'
_symmetry_Int_Tables_number	1
_symmetry_cell_setting	triclinic
loop_
_symmetry_equiv_pos_as_xyz
  x,y,z
_cell_length_a	15.3915
_cell_length_b	15.3915
_cell_length_c	9.703
_cell_angle_alpha	95.222
_cell_angle_beta	95.222
_cell_angle_gamma	32.5133
loop_
_atom_site_label
_atom_site_type_symbol
_atom_site_fract_x
_atom_site_fract_y
_atom_site_fract_z
_atom_site_charge
Mof_P 	P 	0.27638	0.42458	0.9389	0.503
Mof_P 	P 	0.80074	0.77274	0.7599	0.469
Mof_C 	C 	0.4425	0.2097	0.9597	-0.061
Mof_C 	C 	0.6752	0.9312	0.8923	-0.105
Mof_C 	C 	0.63486	0.11366	0.8233	-0.042
Mof_C 	C 	0.7577	0.0383	0.9348	-0.01
Mof_C 	C 	0.84319	0.04719	0.9097	-0.134
Mof_C 	C 	0.96659	0.98359	0.0096	0.066
Mof_N 	N 	0.55525	0.09625	0.8437	-0.078
Mof_O 	O 	0.14052	0.49872	0.0169	-0.451
Mof_O 	O 	0.33266	0.46766	0.0049	-0.269
Mof_O 	O 	0.237	0.467	0.7891	-0.224
Mof_O 	O 	0.6972	0.8396	0.6324	-0.411
Mof_O 	O 	0.87236	0.62996	0.8136	-0.369
Mof_O 	O 	0.92273	0.73573	0.7195	-0.214
Mof_H 	H 	0.94499	0.30316	0.78067	0.074
Mof_H 	H 	0.75151	0.46404	0.67951	0.065
Mof_H 	H 	0.09406	0.14978	0.55736	0.039
Mof_H 	H 	0.89689	0.30478	0.46193	0.068
Mof_H 	H 	0.82037	0.2527	0.60631	0.024
Mof_H 	H 	0.02196	0.08771	0.69048	-0.008
Mof_H 	H 	0.15308	0.92697	0.48781	0.118
Mof_H 	H 	0.9649	0.08535	0.38233	0.096
Mof_H 	H 	0.10257	0.2429	0.52432	0.07
Mof_H 	H 	0.05913	0.3973	0.55844	0.068
Mof_H 	H 	0.17253	0.51715	0.55517	0.087
Mof_H 	H 	0.18499	0.39272	0.47943	0.068
Mof_P 	P 	0.57542	0.72362	0.5611	0.423
Mof_P 	P 	0.22726	0.19926	0.7401	0.465
Mof_C 	C 	0.7903	0.5575	0.5403	-0.113
Mof_C 	C 	0.0688	0.3248	0.6077	-0.154
Mof_C 	C 	0.88634	0.36514	0.6767	-0.013
Mof_C 	C 	0.9617	0.2423	0.5652	-0.082
Mof_C 	C 	0.95281	0.15681	0.5903	0.073
Mof_C 	C 	0.01641	0.03341	0.4904	-0.297
Mof_N 	N 	0.90375	0.44475	0.6563	-0.047
Mof_O 	O 	0.50128	0.85948	0.4831	-0.367
Mof_O 	O 	0.53234	0.66734	0.4951	-0.212
Mof_O 	O 	0.533	0.763	0.7109	-0.202
Mof_O 	O 	0.1604	0.3028	0.8676	-0.413
Mof_O 	O 	0.37004	0.12764	0.6864	-0.404
Mof_O 	O 	0.26427	0.07727	0.7805	-0.244
Mof_H 	H 	0.69684	0.05501	0.71933	0.055
Mof_H 	H 	0.53596	0.24849	0.82049	0.079
Mof_H 	H 	0.85022	0.90594	0.94264	0.083
Mof_H 	H 	0.69522	0.10311	0.03807	0.007
Mof_H 	H 	0.7473	0.17963	0.89369	0.076
Mof_H 	H 	0.91229	0.97804	0.80952	0.097
Mof_H 	H 	0.07303	0.84692	0.01219	-0.006
Mof_H 	H 	0.91465	0.0351	0.11767	-0.013
Mof_H 	H 	0.7571	0.89743	0.97568	0.098
Mof_H 	H 	0.6027	0.94087	0.94156	0.1
Mof_H 	H 	0.48285	0.82747	0.94483	0.141
Mof_H 	H 	0.60728	0.81501	0.02057	0.071
Mof_P 	P 	0.72362	0.57542	0.0611	0.349
Mof_P 	P 	0.19926	0.22726	0.2401	0.464
Mof_C 	C 	0.5575	0.7903	0.0403	-0.162
Mof_C 	C 	0.3248	0.0688	0.1077	-0.164
Mof_C 	C 	0.36514	0.88634	0.1767	-0.007
Mof_C 	C 	0.2423	0.9617	0.0652	-0.111
Mof_C 	C 	0.15681	0.95281	0.0903	0.019
Mof_C 	C 	0.03341	0.01641	0.9904	-0.168
Mof_N 	N 	0.44475	0.90375	0.1563	-0.039
Mof_O 	O 	0.85948	0.50128	0.9831	-0.316
Mof_O 	O 	0.66734	0.53234	0.9951	-0.16
Mof_O 	O 	0.763	0.533	0.2109	-0.205
Mof_O 	O 	0.3028	0.1604	0.3676	-0.44
Mof_O 	O 	0.12764	0.37004	0.1864	-0.415
Mof_O 	O 	0.07727	0.26427	0.2805	-0.26
Mof_H 	H 	0.05501	0.69684	0.21933	0.051
Mof_H 	H 	0.24849	0.53596	0.32049	0.067
Mof_H 	H 	0.90594	0.85022	0.44264	0.077
Mof_H 	H 	0.10311	0.69522	0.53807	0.055
Mof_H 	H 	0.17963	0.7473	0.39369	0.074
Mof_H 	H 	0.97804	0.91229	0.30952	0.101
Mof_H 	H 	0.84692	0.07303	0.51219	-0.014
Mof_H 	H 	0.0351	0.91465	0.61767	-0.01
Mof_H 	H 	0.89743	0.7571	0.47568	0.078
Mof_H 	H 	0.94087	0.6027	0.44156	0.08
Mof_H 	H 	0.82747	0.48285	0.44483	0.097
Mof_H 	H 	0.81501	0.60728	0.52057	0.078
Mof_P 	P 	0.42458	0.27638	0.4389	0.423
Mof_P 	P 	0.77274	0.80074	0.2599	0.467
Mof_C 	C 	0.2097	0.4425	0.4597	-0.115
Mof_C 	C 	0.9312	0.6752	0.3923	-0.109
Mof_C 	C 	0.11366	0.63486	0.3233	-0.032
Mof_C 	C 	0.0383	0.7577	0.4348	-0.055
Mof_C 	C 	0.04719	0.84319	0.4097	-0.183
Mof_C 	C 	0.98359	0.96659	0.5096	0.174
Mof_N 	N 	0.09625	0.55525	0.3437	-0.074
Mof_O 	O 	0.49872	0.14052	0.5169	-0.397
Mof_O 	O 	0.46766	0.33266	0.5049	-0.213
Mof_O 	O 	0.467	0.237	0.2891	-0.228
Mof_O 	O 	0.8396	0.6972	0.1324	-0.43
Mof_O 	O 	0.62996	0.87236	0.3136	-0.377
Mof_O 	O 	0.73573	0.92273	0.2195	-0.223
Mof_H 	H 	0.30316	0.94499	0.28067	0.073
Mof_H 	H 	0.46404	0.75151	0.17951	0.055
Mof_H 	H 	0.14978	0.09406	0.05736	0.024
Mof_H 	H 	0.30478	0.89689	0.96193	0.11
Mof_H 	H 	0.2527	0.82037	0.10631	0.023
Mof_H 	H 	0.08771	0.02196	0.19048	-0.013
Mof_H 	H 	0.92697	0.15308	0.98781	0.103
Mof_H 	H 	0.08535	0.9649	0.88233	0.091
Mof_H 	H 	0.2429	0.10257	0.02432	0.047
Mof_H 	H 	0.3973	0.05913	0.05844	0.045
Mof_H 	H 	0.51715	0.17253	0.05517	0.038
Mof_H 	H 	0.39272	0.18499	0.97943	0.078
Mof_Mg	Mg	-0	0.5	-0	1.467
Mof_Mg	Mg	0.5	2.88854e-18	0.5	1.472
_end
