data_functionalizedCrystal
_audit_creation_method	'EQeq! by Chris Wilmer'
_symmetry_space_group_name_H-M	'P1'
_symmetry_Int_Tables_number	1
_symmetry_cell_setting	triclinic
loop_
_symmetry_equiv_pos_as_xyz
  x,y,z
_cell_length_a	15.4272
_cell_length_b	29.416
_cell_length_c	16.356
_cell_angle_alpha	90
_cell_angle_beta	94.595
_cell_angle_gamma	90
loop_
_atom_site_label
_atom_site_type_symbol
_atom_site_fract_x
_atom_site_fract_y
_atom_site_fract_z
_atom_site_charge
Mof_Zn	Zn	0.28095	0.15656	0.32783	1.239
Mof_Zn	Zn	0.27459	0.48553	0.79747	1.156
Mof_O 	O 	0.4548	0.20908	0.3201	-0.459
Mof_O 	O 	0.31824	0.21801	0.35085	-0.479
Mof_O 	O 	0.6603	0.33478	0.3525	-0.434
Mof_O 	O 	0.6082	0.40551	0.3469	-0.3
Mof_O 	O 	0.22792	0.36718	0.28459	-0.492
Mof_O 	O 	0.10714	0.34235	0.33872	-0.429
Mof_O 	O 	0.3676	0.47806	0.6448	-0.45
Mof_O 	O 	0.2564	0.44726	0.7026	-0.521
Mof_O 	O 	0.8678	0.42186	0.6358	-0.261
Mof_O 	O 	0.8322	0.49431	0.653	-0.45
Mof_O 	O 	0.0544	0.60786	0.6853	-0.468
Mof_O 	O 	0.16978	0.6037	0.61148	-0.451
Mof_O 	O 	0.2939	0.54884	0.7566	-0.739
Mof_O 	O 	0.3615	0.4591	0.8736	-0.098
Mof_C 	C 	0.3937	0.23223	0.3424	0.412
Mof_C 	C 	0.4941	0.29915	0.3514	0.041
Mof_H 	H 	0.5377	0.2805	0.3307	0.048
Mof_C 	C 	0.5114	0.34428	0.3694	-0.088
Mof_C 	C 	0.5998	0.36369	0.3555	0.349
Mof_C 	C 	0.4479	0.37196	0.3997	-0.017
Mof_H 	H 	0.46	0.4031	0.411	0.045
Mof_C 	C 	0.367	0.35407	0.4135	-0.014
Mof_C 	C 	0.3488	0.30846	0.3936	-0.001
Mof_H 	H 	0.2929	0.2962	0.4008	0.054
Mof_C 	C 	0.4129	0.28106	0.3634	-0.108
Mof_C 	C 	0.3007	0.38205	0.4509	0.047
Mof_C 	C 	0.2129	0.3827	0.4232	-0.104
Mof_C 	C 	0.1786	0.3617	0.3434	0.391
Mof_C 	C 	0.1537	0.40792	0.4649	-0.02
Mof_H 	H 	0.0939	0.4072	0.4457	0.051
Mof_C 	C 	0.1791	0.43386	0.5333	0.031
Mof_C 	C 	0.2672	0.43243	0.5629	-0.066
Mof_C 	C 	0.3263	0.40701	0.5217	-0.047
Mof_H 	H 	0.3857	0.4066	0.5423	0.061
Mof_C 	C 	0.2999	0.45458	0.642	0.338
Mof_C 	C 	0.1164	0.46434	0.5702	0.01
Mof_C 	C 	0.0343	0.4487	0.5875	-0.049
Mof_H 	H 	0.0178	0.4182	0.5751	0.062
Mof_C 	C 	0.9763	0.47795	0.623	-0.054
Mof_C 	C 	0.8863	0.46328	0.6384	0.334
Mof_C 	C 	0.9997	0.52251	0.6408	0.059
Mof_H 	H 	0.9607	0.542	0.6662	0.044
Mof_C 	C 	0.0804	0.53884	0.6216	-0.128
Mof_C 	C 	0.1028	0.587	0.6402	0.39
Mof_C 	C 	0.1381	0.51021	0.5855	-0.01
Mof_H 	H 	0.1924	0.5217	0.5711	0.059
Mof_H 	H 	0.3514	0.5535	0.7779	0.107
Mof_H 	H 	0.2763	0.5779	0.7604	0.314
Mof_Zn	Zn	0.38035	0.49318	0.77167	1.177
Mof_O 	O 	0.3936	0.485	0.8502	-0.738
Mof_Zn	Zn	0.78095	0.65656	0.82783	1.238
Mof_Zn	Zn	0.77459	0.98553	0.29747	1.156
Mof_O 	O 	0.9548	0.70908	0.8201	-0.452
Mof_O 	O 	0.81824	0.71801	0.85085	-0.483
Mof_O 	O 	0.1603	0.83478	0.8525	-0.445
Mof_O 	O 	0.1082	0.90551	0.8469	-0.315
Mof_O 	O 	0.72792	0.86718	0.78459	-0.492
Mof_O 	O 	0.60714	0.84235	0.83872	-0.423
Mof_O 	O 	0.8676	0.97806	0.1448	-0.444
Mof_O 	O 	0.7564	0.94726	0.2026	-0.517
Mof_O 	O 	0.3678	0.92186	0.1358	-0.27
Mof_O 	O 	0.3322	0.99431	0.153	-0.452
Mof_O 	O 	0.5544	0.10786	0.1853	-0.455
Mof_O 	O 	0.66978	0.1037	0.11148	-0.446
Mof_O 	O 	0.7939	0.04884	0.2566	-0.739
Mof_O 	O 	0.8615	0.9591	0.3736	-0.094
Mof_C 	C 	0.8937	0.73223	0.8424	0.434
Mof_C 	C 	0.9941	0.79915	0.8514	0.174
Mof_H 	H 	0.0377	0.7805	0.8307	-0.011
Mof_C 	C 	0.0114	0.84428	0.8694	-0.201
Mof_C 	C 	0.0998	0.86369	0.8555	0.383
Mof_C 	C 	0.9479	0.87196	0.8997	0.072
Mof_H 	H 	0.96	0.9031	0.911	0.024
Mof_C 	C 	0.867	0.85407	0.9135	-0.061
Mof_C 	C 	0.8488	0.80846	0.8936	0.049
Mof_H 	H 	0.7929	0.7962	0.9008	0.039
Mof_C 	C 	0.9129	0.78106	0.8634	-0.166
Mof_C 	C 	0.8007	0.88205	0.9509	0.068
Mof_C 	C 	0.7129	0.8827	0.9232	-0.11
Mof_C 	C 	0.6786	0.8617	0.8434	0.393
Mof_C 	C 	0.6537	0.90792	0.9649	-0.017
Mof_H 	H 	0.5939	0.9072	0.9457	0.054
Mof_C 	C 	0.6791	0.93386	0.0333	0.032
Mof_C 	C 	0.7672	0.93243	0.0629	-0.06
Mof_C 	C 	0.8263	0.90701	0.0217	-0.057
Mof_H 	H 	0.8857	0.9066	0.0423	0.069
Mof_C 	C 	0.7999	0.95458	0.142	0.336
Mof_C 	C 	0.6164	0.96434	0.0702	0.006
Mof_C 	C 	0.5343	0.9487	0.0875	-0.016
Mof_H 	H 	0.5178	0.9182	0.0751	0.061
Mof_C 	C 	0.4763	0.97795	0.123	-0.078
Mof_C 	C 	0.3863	0.96328	0.1384	0.339
Mof_C 	C 	0.4997	0.02251	0.1408	0.03
Mof_H 	H 	0.4607	0.042	0.1662	0.048
Mof_C 	C 	0.5804	0.03884	0.1216	-0.097
Mof_C 	C 	0.6028	0.087	0.1402	0.382
Mof_C 	C 	0.6381	0.01021	0.0855	-0.014
Mof_H 	H 	0.6924	0.0217	0.0711	0.062
Mof_H 	H 	0.8514	0.0535	0.2779	0.109
Mof_H 	H 	0.7763	0.0779	0.2604	0.314
Mof_Zn	Zn	0.88035	0.99318	0.27167	1.179
Mof_O 	O 	0.8936	0.985	0.3502	-0.732
Mof_Zn	Zn	0.71905	0.15656	0.17217	1.238
Mof_Zn	Zn	0.72541	0.48553	0.70253	1.156
Mof_O 	O 	0.5452	0.20908	0.1799	-0.459
Mof_O 	O 	0.68176	0.21801	0.14915	-0.479
Mof_O 	O 	0.3397	0.33478	0.1475	-0.436
Mof_O 	O 	0.3918	0.40551	0.1531	-0.3
Mof_O 	O 	0.77208	0.36718	0.21541	-0.49
Mof_O 	O 	0.89286	0.34235	0.16128	-0.413
Mof_O 	O 	0.6324	0.47806	0.8552	-0.451
Mof_O 	O 	0.7436	0.44726	0.7974	-0.518
Mof_O 	O 	0.1322	0.42186	0.8642	-0.277
Mof_O 	O 	0.1678	0.49431	0.847	-0.454
Mof_O 	O 	0.9456	0.60786	0.8147	-0.44
Mof_O 	O 	0.83022	0.6037	0.88852	-0.443
Mof_O 	O 	0.7061	0.54884	0.7434	-0.738
Mof_O 	O 	0.6385	0.4591	0.6264	-0.097
Mof_C 	C 	0.6063	0.23223	0.1576	0.413
Mof_C 	C 	0.5059	0.29915	0.1486	0.041
Mof_H 	H 	0.4623	0.2805	0.1693	0.048
Mof_C 	C 	0.4886	0.34428	0.1306	-0.088
Mof_C 	C 	0.4002	0.36369	0.1445	0.349
Mof_C 	C 	0.5521	0.37196	0.1003	-0.017
Mof_H 	H 	0.54	0.4031	0.089	0.046
Mof_C 	C 	0.633	0.35407	0.0865	-0.013
Mof_C 	C 	0.6512	0.30846	0.1064	-0.002
Mof_H 	H 	0.7071	0.2962	0.0992	0.055
Mof_C 	C 	0.5871	0.28106	0.1366	-0.107
Mof_C 	C 	0.6993	0.38205	0.0491	0.047
Mof_C 	C 	0.7871	0.3827	0.0768	-0.098
Mof_C 	C 	0.8214	0.3617	0.1566	0.387
Mof_C 	C 	0.8463	0.40792	0.0351	-0.024
Mof_H 	H 	0.9061	0.4072	0.0543	0.061
Mof_C 	C 	0.8209	0.43386	0.9667	0.037
Mof_C 	C 	0.7328	0.43243	0.9371	-0.067
Mof_C 	C 	0.6737	0.40701	0.9783	-0.046
Mof_H 	H 	0.6143	0.4066	0.9577	0.061
Mof_C 	C 	0.7001	0.45458	0.858	0.338
Mof_C 	C 	0.8836	0.46434	0.9298	0.002
Mof_C 	C 	0.9657	0.4487	0.9125	0.015
Mof_H 	H 	0.9822	0.4182	0.9249	0.058
Mof_C 	C 	0.0237	0.47795	0.877	-0.099
Mof_C 	C 	0.1137	0.46328	0.8616	0.342
Mof_C 	C 	0.0003	0.52251	0.8592	-0.003
Mof_H 	H 	0.0393	0.542	0.8338	0.053
Mof_C 	C 	0.9196	0.53884	0.8784	-0.066
Mof_C 	C 	0.8972	0.587	0.8598	0.373
Mof_C 	C 	0.8619	0.51021	0.9145	-0.022
Mof_H 	H 	0.8076	0.5217	0.9289	0.064
Mof_H 	H 	0.6486	0.5535	0.7221	0.107
Mof_H 	H 	0.7237	0.5779	0.7396	0.314
Mof_Zn	Zn	0.61965	0.49318	0.72833	1.177
Mof_O 	O 	0.6064	0.485	0.6498	-0.738
Mof_Zn	Zn	0.21905	0.65656	0.67217	1.237
Mof_Zn	Zn	0.22541	0.98553	0.20253	1.155
Mof_O 	O 	0.0452	0.70908	0.6799	-0.463
Mof_O 	O 	0.18176	0.71801	0.64915	-0.475
Mof_O 	O 	0.8397	0.83478	0.6475	-0.425
Mof_O 	O 	0.8918	0.90551	0.6531	-0.284
Mof_O 	O 	0.27208	0.86718	0.71541	-0.49
Mof_O 	O 	0.39286	0.84235	0.66128	-0.421
Mof_O 	O 	0.1324	0.97806	0.3552	-0.457
Mof_O 	O 	0.2436	0.94726	0.2974	-0.521
Mof_O 	O 	0.6322	0.92186	0.3642	-0.268
Mof_O 	O 	0.6678	0.99431	0.347	-0.452
Mof_O 	O 	0.4456	0.10786	0.3147	-0.455
Mof_O 	O 	0.33022	0.1037	0.38852	-0.448
Mof_O 	O 	0.2061	0.04884	0.2434	-0.737
Mof_O 	O 	0.1385	0.9591	0.1264	-0.1
Mof_C 	C 	0.1063	0.73223	0.6576	0.39
Mof_C 	C 	0.0059	0.79915	0.6486	-0.094
Mof_H 	H 	0.9623	0.7805	0.6693	0.107
Mof_C 	C 	0.9886	0.84428	0.6306	0.026
Mof_C 	C 	0.9002	0.86369	0.6445	0.315
Mof_C 	C 	0.0521	0.87196	0.6003	-0.107
Mof_H 	H 	0.04	0.9031	0.589	0.068
Mof_C 	C 	0.133	0.85407	0.5865	0.036
Mof_C 	C 	0.1512	0.80846	0.6064	-0.053
Mof_H 	H 	0.2071	0.7962	0.5992	0.071
Mof_C 	C 	0.0871	0.78106	0.6366	-0.047
Mof_C 	C 	0.1993	0.88205	0.5491	0.023
Mof_C 	C 	0.2871	0.8827	0.5768	-0.09
Mof_C 	C 	0.3214	0.8617	0.6566	0.385
Mof_C 	C 	0.3463	0.90792	0.5351	-0.031
Mof_H 	H 	0.4061	0.9072	0.5543	0.059
Mof_C 	C 	0.3209	0.93386	0.4667	0.042
Mof_C 	C 	0.2328	0.93243	0.4371	-0.076
Mof_C 	C 	0.1737	0.90701	0.4783	-0.032
Mof_H 	H 	0.1143	0.9066	0.4577	0.052
Mof_C 	C 	0.2001	0.95458	0.358	0.341
Mof_C 	C 	0.3836	0.96434	0.4298	0.002
Mof_C 	C 	0.4657	0.9487	0.4125	-0.014
Mof_H 	H 	0.4822	0.9182	0.4249	0.06
Mof_C 	C 	0.5237	0.97795	0.377	-0.078
Mof_C 	C 	0.6137	0.96328	0.3616	0.339
Mof_C 	C 	0.5003	0.02251	0.3592	0.03
Mof_H 	H 	0.5393	0.042	0.3338	0.048
Mof_C 	C 	0.4196	0.03884	0.3784	-0.098
Mof_C 	C 	0.3972	0.087	0.3598	0.383
Mof_C 	C 	0.3619	0.01021	0.4145	-0.013
Mof_H 	H 	0.3076	0.0217	0.4289	0.06
Mof_H 	H 	0.1486	0.0535	0.2221	0.105
Mof_H 	H 	0.2237	0.0779	0.2396	0.313
Mof_Zn	Zn	0.11965	0.99318	0.22833	1.175
Mof_O 	O 	0.1064	0.985	0.1498	-0.744
Mof_Zn	Zn	0.71905	0.84344	0.67217	1.237
Mof_Zn	Zn	0.72541	0.51447	0.20253	1.156
Mof_O 	O 	0.5452	0.79092	0.6799	-0.459
Mof_O 	O 	0.68176	0.78199	0.64915	-0.479
Mof_O 	O 	0.3397	0.66522	0.6475	-0.436
Mof_O 	O 	0.3918	0.59449	0.6531	-0.3
Mof_O 	O 	0.77208	0.63282	0.71541	-0.49
Mof_O 	O 	0.89286	0.65765	0.66128	-0.413
Mof_O 	O 	0.6324	0.52194	0.3552	-0.451
Mof_O 	O 	0.7436	0.55274	0.2974	-0.518
Mof_O 	O 	0.1322	0.57814	0.3642	-0.277
Mof_O 	O 	0.1678	0.50569	0.347	-0.454
Mof_O 	O 	0.9456	0.39214	0.3147	-0.44
Mof_O 	O 	0.83022	0.3963	0.38852	-0.443
Mof_O 	O 	0.7061	0.45116	0.2434	-0.738
Mof_O 	O 	0.6385	0.5409	0.1264	-0.096
Mof_C 	C 	0.6063	0.76777	0.6576	0.412
Mof_C 	C 	0.5059	0.70085	0.6486	0.041
Mof_H 	H 	0.4623	0.7195	0.6693	0.048
Mof_C 	C 	0.4886	0.65572	0.6306	-0.088
Mof_C 	C 	0.4002	0.63631	0.6445	0.349
Mof_C 	C 	0.5521	0.62804	0.6003	-0.018
Mof_H 	H 	0.54	0.5969	0.589	0.046
Mof_C 	C 	0.633	0.64593	0.5865	-0.012
Mof_C 	C 	0.6512	0.69154	0.6064	-0.002
Mof_H 	H 	0.7071	0.7038	0.5992	0.056
Mof_C 	C 	0.5871	0.71894	0.6366	-0.107
Mof_C 	C 	0.6993	0.61795	0.5491	0.044
Mof_C 	C 	0.7871	0.6173	0.5768	-0.096
Mof_C 	C 	0.8214	0.6383	0.6566	0.387
Mof_C 	C 	0.8463	0.59208	0.5351	-0.027
Mof_H 	H 	0.9061	0.5928	0.5543	0.062
Mof_C 	C 	0.8209	0.56614	0.4667	0.041
Mof_C 	C 	0.7328	0.56757	0.4371	-0.069
Mof_C 	C 	0.6737	0.59299	0.4783	-0.043
Mof_H 	H 	0.6143	0.5934	0.4577	0.06
Mof_C 	C 	0.7001	0.54542	0.358	0.339
Mof_C 	C 	0.8836	0.53566	0.4298	0.001
Mof_C 	C 	0.9657	0.5513	0.4125	0.016
Mof_H 	H 	0.9822	0.5818	0.4249	0.059
Mof_C 	C 	0.0237	0.52205	0.377	-0.099
Mof_C 	C 	0.1137	0.53672	0.3616	0.342
Mof_C 	C 	0.0003	0.47749	0.3592	-0.003
Mof_H 	H 	0.0393	0.458	0.3338	0.053
Mof_C 	C 	0.9196	0.46116	0.3784	-0.065
Mof_C 	C 	0.8972	0.413	0.3598	0.373
Mof_C 	C 	0.8619	0.48979	0.4145	-0.021
Mof_H 	H 	0.8076	0.4783	0.4289	0.064
Mof_H 	H 	0.6486	0.4465	0.2221	0.107
Mof_H 	H 	0.7237	0.4221	0.2396	0.314
Mof_Zn	Zn	0.61965	0.50682	0.22833	1.177
Mof_O 	O 	0.6064	0.515	0.1498	-0.738
Mof_Zn	Zn	0.21905	0.34344	0.17217	1.237
Mof_Zn	Zn	0.22541	0.01447	0.70253	1.155
Mof_O 	O 	0.0452	0.29092	0.1799	-0.463
Mof_O 	O 	0.18176	0.28199	0.14915	-0.475
Mof_O 	O 	0.8397	0.16522	0.1475	-0.425
Mof_O 	O 	0.8918	0.09449	0.1531	-0.284
Mof_O 	O 	0.27208	0.13282	0.21541	-0.49
Mof_O 	O 	0.39286	0.15765	0.16128	-0.421
Mof_O 	O 	0.1324	0.02194	0.8552	-0.457
Mof_O 	O 	0.2436	0.05274	0.7974	-0.521
Mof_O 	O 	0.6322	0.07814	0.8642	-0.269
Mof_O 	O 	0.6678	0.00569	0.847	-0.452
Mof_O 	O 	0.4456	0.89214	0.8147	-0.456
Mof_O 	O 	0.33022	0.8963	0.88852	-0.448
Mof_O 	O 	0.2061	0.95116	0.7434	-0.737
Mof_O 	O 	0.1385	0.0409	0.6264	-0.1
Mof_C 	C 	0.1063	0.26777	0.1576	0.39
Mof_C 	C 	0.0059	0.20085	0.1486	-0.093
Mof_H 	H 	0.9623	0.2195	0.1693	0.107
Mof_C 	C 	0.9886	0.15572	0.1306	0.025
Mof_C 	C 	0.9002	0.13631	0.1445	0.315
Mof_C 	C 	0.0521	0.12804	0.1003	-0.106
Mof_H 	H 	0.04	0.0969	0.089	0.068
Mof_C 	C 	0.133	0.14593	0.0865	0.035
Mof_C 	C 	0.1512	0.19154	0.1064	-0.052
Mof_H 	H 	0.2071	0.2038	0.0992	0.07
Mof_C 	C 	0.0871	0.21894	0.1366	-0.048
Mof_C 	C 	0.1993	0.11795	0.0491	0.027
Mof_C 	C 	0.2871	0.1173	0.0768	-0.092
Mof_C 	C 	0.3214	0.1383	0.1566	0.386
Mof_C 	C 	0.3463	0.09208	0.0351	-0.026
Mof_H 	H 	0.4061	0.0928	0.0543	0.058
Mof_C 	C 	0.3209	0.06614	0.9667	0.038
Mof_C 	C 	0.2328	0.06757	0.9371	-0.073
Mof_C 	C 	0.1737	0.09299	0.9783	-0.036
Mof_H 	H 	0.1143	0.0934	0.9577	0.053
Mof_C 	C 	0.2001	0.04542	0.858	0.34
Mof_C 	C 	0.3836	0.03566	0.9298	0.002
Mof_C 	C 	0.4657	0.0513	0.9125	-0.014
Mof_H 	H 	0.4822	0.0818	0.9249	0.059
Mof_C 	C 	0.5237	0.02205	0.877	-0.079
Mof_C 	C 	0.6137	0.03672	0.8616	0.339
Mof_C 	C 	0.5003	0.97749	0.8592	0.031
Mof_H 	H 	0.5393	0.958	0.8338	0.048
Mof_C 	C 	0.4196	0.96116	0.8784	-0.099
Mof_C 	C 	0.3972	0.913	0.8598	0.383
Mof_C 	C 	0.3619	0.98979	0.9145	-0.012
Mof_H 	H 	0.3076	0.9783	0.9289	0.06
Mof_H 	H 	0.1486	0.9465	0.7221	0.105
Mof_H 	H 	0.2237	0.9221	0.7396	0.313
Mof_Zn	Zn	0.11965	0.00682	0.72833	1.175
Mof_O 	O 	0.1064	0.015	0.6498	-0.744
Mof_Zn	Zn	0.28095	0.84344	0.82783	1.238
Mof_Zn	Zn	0.27459	0.51447	0.29747	1.155
Mof_O 	O 	0.4548	0.79092	0.8201	-0.459
Mof_O 	O 	0.31824	0.78199	0.85085	-0.479
Mof_O 	O 	0.6603	0.66522	0.8525	-0.435
Mof_O 	O 	0.6082	0.59449	0.8469	-0.3
Mof_O 	O 	0.22792	0.63282	0.78459	-0.492
Mof_O 	O 	0.10714	0.65765	0.83872	-0.429
Mof_O 	O 	0.3676	0.52194	0.1448	-0.45
Mof_O 	O 	0.2564	0.55274	0.2026	-0.521
Mof_O 	O 	0.8678	0.57814	0.1358	-0.261
Mof_O 	O 	0.8322	0.50569	0.153	-0.45
Mof_O 	O 	0.0544	0.39214	0.1853	-0.468
Mof_O 	O 	0.16978	0.3963	0.11148	-0.451
Mof_O 	O 	0.2939	0.45116	0.2566	-0.739
Mof_O 	O 	0.3615	0.5409	0.3736	-0.097
Mof_C 	C 	0.3937	0.76777	0.8424	0.412
Mof_C 	C 	0.4941	0.70085	0.8514	0.041
Mof_H 	H 	0.5377	0.7195	0.8307	0.048
Mof_C 	C 	0.5114	0.65572	0.8694	-0.088
Mof_C 	C 	0.5998	0.63631	0.8555	0.349
Mof_C 	C 	0.4479	0.62804	0.8997	-0.017
Mof_H 	H 	0.46	0.5969	0.911	0.045
Mof_C 	C 	0.367	0.64593	0.9135	-0.013
Mof_C 	C 	0.3488	0.69154	0.8936	-0.001
Mof_H 	H 	0.2929	0.7038	0.9008	0.054
Mof_C 	C 	0.4129	0.71894	0.8634	-0.108
Mof_C 	C 	0.3007	0.61795	0.9509	0.045
Mof_C 	C 	0.2129	0.6173	0.9232	-0.103
Mof_C 	C 	0.1786	0.6383	0.8434	0.391
Mof_C 	C 	0.1537	0.59208	0.9649	-0.022
Mof_H 	H 	0.0939	0.5928	0.9457	0.052
Mof_C 	C 	0.1791	0.56614	0.0333	0.033
Mof_C 	C 	0.2672	0.56757	0.0629	-0.067
Mof_C 	C 	0.3263	0.59299	0.0217	-0.045
Mof_H 	H 	0.3857	0.5934	0.0423	0.061
Mof_C 	C 	0.2999	0.54542	0.142	0.338
Mof_C 	C 	0.1164	0.53566	0.0702	0.009
Mof_C 	C 	0.0343	0.5513	0.0875	-0.048
Mof_H 	H 	0.0178	0.5818	0.0751	0.062
Mof_C 	C 	0.9763	0.52205	0.123	-0.054
Mof_C 	C 	0.8863	0.53672	0.1384	0.334
Mof_C 	C 	0.9997	0.47749	0.1408	0.059
Mof_H 	H 	0.9607	0.458	0.1662	0.044
Mof_C 	C 	0.0804	0.46116	0.1216	-0.128
Mof_C 	C 	0.1028	0.413	0.1402	0.39
Mof_C 	C 	0.1381	0.48979	0.0855	-0.009
Mof_H 	H 	0.1924	0.4783	0.0711	0.059
Mof_H 	H 	0.3514	0.4465	0.2779	0.107
Mof_H 	H 	0.2763	0.4221	0.2604	0.314
Mof_Zn	Zn	0.38035	0.50682	0.27167	1.177
Mof_O 	O 	0.3936	0.515	0.3502	-0.738
Mof_Zn	Zn	0.78095	0.34344	0.32783	1.238
Mof_Zn	Zn	0.77459	0.01447	0.79747	1.155
Mof_O 	O 	0.9548	0.29092	0.3201	-0.452
Mof_O 	O 	0.81824	0.28199	0.35085	-0.483
Mof_O 	O 	0.1603	0.16522	0.3525	-0.445
Mof_O 	O 	0.1082	0.09449	0.3469	-0.315
Mof_O 	O 	0.72792	0.13282	0.28459	-0.492
Mof_O 	O 	0.60714	0.15765	0.33872	-0.423
Mof_O 	O 	0.8676	0.02194	0.6448	-0.444
Mof_O 	O 	0.7564	0.05274	0.7026	-0.517
Mof_O 	O 	0.3678	0.07814	0.6358	-0.27
Mof_O 	O 	0.3322	0.00569	0.653	-0.452
Mof_O 	O 	0.5544	0.89214	0.6853	-0.455
Mof_O 	O 	0.66978	0.8963	0.61148	-0.446
Mof_O 	O 	0.7939	0.95116	0.7566	-0.739
Mof_O 	O 	0.8615	0.0409	0.8736	-0.094
Mof_C 	C 	0.8937	0.26777	0.3424	0.434
Mof_C 	C 	0.9941	0.20085	0.3514	0.176
Mof_H 	H 	0.0377	0.2195	0.3307	-0.012
Mof_C 	C 	0.0114	0.15572	0.3694	-0.202
Mof_C 	C 	0.0998	0.13631	0.3555	0.383
Mof_C 	C 	0.9479	0.12804	0.3997	0.073
Mof_H 	H 	0.96	0.0969	0.411	0.024
Mof_C 	C 	0.867	0.14593	0.4135	-0.062
Mof_C 	C 	0.8488	0.19154	0.3936	0.05
Mof_H 	H 	0.7929	0.2038	0.4008	0.039
Mof_C 	C 	0.9129	0.21894	0.3634	-0.167
Mof_C 	C 	0.8007	0.11795	0.4509	0.069
Mof_C 	C 	0.7129	0.1173	0.4232	-0.11
Mof_C 	C 	0.6786	0.1383	0.3434	0.394
Mof_C 	C 	0.6537	0.09208	0.4649	-0.016
Mof_H 	H 	0.5939	0.0928	0.4457	0.054
Mof_C 	C 	0.6791	0.06614	0.5333	0.031
Mof_C 	C 	0.7672	0.06757	0.5629	-0.059
Mof_C 	C 	0.8263	0.09299	0.5217	-0.058
Mof_H 	H 	0.8857	0.0934	0.5423	0.07
Mof_C 	C 	0.7999	0.04542	0.642	0.335
Mof_C 	C 	0.6164	0.03566	0.5702	0.008
Mof_C 	C 	0.5343	0.0513	0.5875	-0.017
Mof_H 	H 	0.5178	0.0818	0.5751	0.061
Mof_C 	C 	0.4763	0.02205	0.623	-0.076
Mof_C 	C 	0.3863	0.03672	0.6384	0.338
Mof_C 	C 	0.4997	0.97749	0.6408	0.028
Mof_H 	H 	0.4607	0.958	0.6662	0.048
Mof_C 	C 	0.5804	0.96116	0.6216	-0.096
Mof_C 	C 	0.6028	0.913	0.6402	0.382
Mof_C 	C 	0.6381	0.98979	0.5855	-0.016
Mof_H 	H 	0.6924	0.9783	0.5711	0.062
Mof_H 	H 	0.8514	0.9465	0.7779	0.109
Mof_H 	H 	0.7763	0.9221	0.7604	0.314
Mof_Zn	Zn	0.88035	0.00682	0.77167	1.179
Mof_O 	O 	0.8936	0.015	0.8502	-0.732
Mof_Zn	Zn	0.5	0.15902	0.25	1.256
Mof_Zn	Zn	3.22019e-33	0.65902	0.75	1.248
Mof_Zn	Zn	0.5	0.84098	0.75	1.256
Mof_Zn	Zn	3.8415e-18	0.34098	0.25	1.248
_end
