data_functionalizedCrystal
_audit_creation_method	'EQeq! by Chris Wilmer'
_symmetry_space_group_name_H-M	'P1'
_symmetry_Int_Tables_number	1
_symmetry_cell_setting	triclinic
loop_
_symmetry_equiv_pos_as_xyz
  x,y,z
_cell_length_a	13.582
_cell_length_b	10.8173
_cell_length_c	14.7037
_cell_angle_alpha	90
_cell_angle_beta	110.628
_cell_angle_gamma	90
loop_
_atom_site_label
_atom_site_type_symbol
_atom_site_fract_x
_atom_site_fract_y
_atom_site_fract_z
_atom_site_charge
Mof_Co	Co	0.40941	0.90254	0.46114	1.158
Mof_Co	Co	0.5041	0.01046	0.29235	1.173
Mof_O 	O 	0.30172	0.03083	0.3716	-0.412
Mof_O 	O 	0.38877	0.1363	0.29235	-0.422
Mof_O 	O 	0.38447	0.40418	0.23928	-0.391
Mof_O 	O 	0.31142	0.28408	0.10944	-0.26
Mof_O 	O 	0.63364	0.27725	0.15496	-0.409
Mof_O 	O 	0.62982	0.39602	0.27882	-0.394
Mof_O 	O 	0.62142	0.14716	0.34224	-0.428
Mof_O 	O 	0.71553	0.15317	0.50142	-0.412
Mof_O 	O 	0.53886	0.95816	0.43238	-0.585
Mof_C 	C 	0.31113	0.11726	0.31921	0.351
Mof_C 	C 	0.22301	0.2096	0.2851	-0.036
Mof_C 	C 	0.13865	0.1959	0.31731	-0.049
Mof_H 	H 	0.1388	0.1301	0.358	0.068
Mof_C 	C 	0.05419	0.2777	0.29054	0.024
Mof_C 	C 	0.05648	0.3757	0.22964	-0.073
Mof_H 	H 	0.0012	0.4319	0.2106	0.063
Mof_C 	C 	0.14014	0.3906	0.19701	0.001
Mof_H 	H 	0.1399	0.4567	0.1565	0.039
Mof_C 	C 	0.22444	0.3082	0.22402	-0.047
Mof_C 	C 	0.3148	0.3317	0.18789	0.339
Mof_C 	C 	0.96545	0.2588	0.32628	0.04
Mof_C 	C 	0.86282	0.2938	0.26968	-0.068
Mof_H 	H 	0.8503	0.3328	0.2103	0.072
Mof_C 	C 	0.77952	0.27067	0.30137	-0.015
Mof_C 	C 	0.79689	0.20917	0.38915	-0.076
Mof_C 	C 	0.89896	0.1787	0.4472	0.023
Mof_H 	H 	0.9115	0.1416	0.5073	0.036
Mof_C 	C 	0.98228	0.203	0.41637	-0.098
Mof_H 	H 	0.0503	0.182	0.456	0.075
Mof_C 	C 	0.67144	0.31693	0.24067	0.344
Mof_C 	C 	0.70345	0.16676	0.41314	0.37
Mof_Co	Co	0.59059	0.40254	0.03886	1.157
Mof_Co	Co	0.4959	0.51046	0.20765	1.173
Mof_O 	O 	0.69828	0.53083	0.1284	-0.413
Mof_O 	O 	0.61123	0.6363	0.20765	-0.423
Mof_O 	O 	0.61553	0.90418	0.26072	-0.391
Mof_O 	O 	0.68858	0.78408	0.39056	-0.259
Mof_O 	O 	0.36636	0.77725	0.34504	-0.409
Mof_O 	O 	0.37018	0.89602	0.22118	-0.393
Mof_O 	O 	0.37858	0.64716	0.15776	-0.428
Mof_O 	O 	0.28447	0.65317	0.99858	-0.414
Mof_O 	O 	0.46114	0.45816	0.06762	-0.585
Mof_C 	C 	0.68887	0.61726	0.18079	0.351
Mof_C 	C 	0.77699	0.7096	0.2149	-0.037
Mof_C 	C 	0.86135	0.6959	0.18269	-0.048
Mof_H 	H 	0.8612	0.6301	0.142	0.067
Mof_C 	C 	0.94581	0.7777	0.20946	0.023
Mof_C 	C 	0.94352	0.8757	0.27036	-0.072
Mof_H 	H 	0.9988	0.9319	0.2894	0.064
Mof_C 	C 	0.85986	0.8906	0.30299	0.001
Mof_H 	H 	0.8601	0.9567	0.3435	0.04
Mof_C 	C 	0.77556	0.8082	0.27598	-0.047
Mof_C 	C 	0.6852	0.8317	0.31211	0.338
Mof_C 	C 	0.03455	0.7588	0.17372	0.042
Mof_C 	C 	0.13718	0.7938	0.23032	-0.069
Mof_H 	H 	0.1497	0.8328	0.2897	0.073
Mof_C 	C 	0.22048	0.77067	0.19863	-0.014
Mof_C 	C 	0.20311	0.70917	0.11085	-0.078
Mof_C 	C 	0.10104	0.6787	0.0528	0.027
Mof_H 	H 	0.0885	0.6416	0.9927	0.034
Mof_C 	C 	0.01772	0.703	0.08363	-0.099
Mof_H 	H 	0.9497	0.682	0.044	0.075
Mof_C 	C 	0.32856	0.81693	0.25933	0.343
Mof_C 	C 	0.29655	0.66676	0.08686	0.372
Mof_Co	Co	0.59059	0.09746	0.53886	1.157
Mof_Co	Co	0.4959	0.98954	0.70765	1.172
Mof_O 	O 	0.69828	0.96917	0.6284	-0.413
Mof_O 	O 	0.61123	0.8637	0.70765	-0.423
Mof_O 	O 	0.61553	0.59582	0.76072	-0.391
Mof_O 	O 	0.68858	0.71592	0.89056	-0.26
Mof_O 	O 	0.36636	0.72275	0.84504	-0.409
Mof_O 	O 	0.37018	0.60398	0.72118	-0.394
Mof_O 	O 	0.37858	0.85284	0.65776	-0.428
Mof_O 	O 	0.28447	0.84683	0.49858	-0.412
Mof_O 	O 	0.46114	0.04184	0.56762	-0.585
Mof_C 	C 	0.68887	0.88274	0.68079	0.351
Mof_C 	C 	0.77699	0.7904	0.7149	-0.036
Mof_C 	C 	0.86135	0.8041	0.68269	-0.049
Mof_H 	H 	0.8612	0.8699	0.642	0.068
Mof_C 	C 	0.94581	0.7223	0.70946	0.024
Mof_C 	C 	0.94352	0.6243	0.77036	-0.073
Mof_H 	H 	0.9988	0.5681	0.7894	0.063
Mof_C 	C 	0.85986	0.6094	0.80299	0.001
Mof_H 	H 	0.8601	0.5433	0.8435	0.039
Mof_C 	C 	0.77556	0.6918	0.77598	-0.047
Mof_C 	C 	0.6852	0.6683	0.81211	0.339
Mof_C 	C 	0.03455	0.7412	0.67372	0.04
Mof_C 	C 	0.13718	0.7062	0.73032	-0.068
Mof_H 	H 	0.1497	0.6672	0.7897	0.072
Mof_C 	C 	0.22048	0.72933	0.69863	-0.015
Mof_C 	C 	0.20311	0.79083	0.61085	-0.076
Mof_C 	C 	0.10104	0.8213	0.5528	0.023
Mof_H 	H 	0.0885	0.8584	0.4927	0.036
Mof_C 	C 	0.01772	0.797	0.58363	-0.098
Mof_H 	H 	0.9497	0.818	0.544	0.075
Mof_C 	C 	0.32856	0.68307	0.75933	0.344
Mof_C 	C 	0.29655	0.83324	0.58686	0.37
Mof_Co	Co	0.40941	0.59746	0.96114	1.157
Mof_Co	Co	0.5041	0.48954	0.79235	1.173
Mof_O 	O 	0.30172	0.46917	0.8716	-0.413
Mof_O 	O 	0.38877	0.3637	0.79235	-0.423
Mof_O 	O 	0.38447	0.09582	0.73928	-0.391
Mof_O 	O 	0.31142	0.21592	0.60944	-0.259
Mof_O 	O 	0.63364	0.22275	0.65496	-0.409
Mof_O 	O 	0.62982	0.10398	0.77882	-0.393
Mof_O 	O 	0.62142	0.35284	0.84224	-0.428
Mof_O 	O 	0.71553	0.34683	0.00142	-0.414
Mof_O 	O 	0.53886	0.54184	0.93238	-0.585
Mof_C 	C 	0.31113	0.38274	0.81921	0.351
Mof_C 	C 	0.22301	0.2904	0.7851	-0.037
Mof_C 	C 	0.13865	0.3041	0.81731	-0.048
Mof_H 	H 	0.1388	0.3699	0.858	0.067
Mof_C 	C 	0.05419	0.2223	0.79054	0.023
Mof_C 	C 	0.05648	0.1243	0.72964	-0.072
Mof_H 	H 	0.0012	0.0681	0.7106	0.064
Mof_C 	C 	0.14014	0.1094	0.69701	0.001
Mof_H 	H 	0.1399	0.0433	0.6565	0.04
Mof_C 	C 	0.22444	0.1918	0.72402	-0.047
Mof_C 	C 	0.3148	0.1683	0.68789	0.338
Mof_C 	C 	0.96545	0.2412	0.82628	0.042
Mof_C 	C 	0.86282	0.2062	0.76968	-0.069
Mof_H 	H 	0.8503	0.1672	0.7103	0.073
Mof_C 	C 	0.77952	0.22933	0.80137	-0.014
Mof_C 	C 	0.79689	0.29083	0.88915	-0.078
Mof_C 	C 	0.89896	0.3213	0.9472	0.027
Mof_H 	H 	0.9115	0.3584	0.0073	0.034
Mof_C 	C 	0.98228	0.297	0.91637	-0.099
Mof_H 	H 	0.0503	0.318	0.956	0.075
Mof_C 	C 	0.67144	0.18307	0.74067	0.343
Mof_C 	C 	0.70345	0.33324	0.91314	0.372
_end
