data_functionalizedCrystal
_audit_creation_method	'EQeq! by Chris Wilmer'
_symmetry_space_group_name_H-M	'P1'
_symmetry_Int_Tables_number	1
_symmetry_cell_setting	triclinic
loop_
_symmetry_equiv_pos_as_xyz
  x,y,z
_cell_length_a	21.8004
_cell_length_b	21.8004
_cell_length_c	21.8004
_cell_angle_alpha	93.5597
_cell_angle_beta	117.967
_cell_angle_gamma	117.967
loop_
_atom_site_label
_atom_site_type_symbol
_atom_site_fract_x
_atom_site_fract_y
_atom_site_fract_z
_atom_site_charge
Mof_Zn	Zn	0.07964	0.76626	0.30552	1.242
Mof_Zn	Zn	0.92036	0.22588	0.68662	1.243
Mof_Zn	Zn	0.46074	0.69448	0.77412	1.243
Mof_Zn	Zn	0.53926	0.31338	0.23374	1.243
Mof_Zn	Zn	0.96074	0.52412	0.94448	1.246
Mof_Zn	Zn	0.03926	0.98374	0.56338	1.238
Mof_Zn	Zn	0.42036	0.43662	0.47588	1.243
Mof_Zn	Zn	0.57964	0.05552	0.01626	1.242
Mof_H 	H 	0.28	0.9341	0.2207	0.056
Mof_H 	H 	0.3165	0.0278	0.1701	0.056
Mof_H 	H 	0.2747	0.7116	0.5153	0.05
Mof_H 	H 	0.3462	0.8162	0.717	0.07
Mof_H 	H 	0.2257	0.8617	0.5458	0.063
Mof_H 	H 	0.72	0.9407	0.6541	0.057
Mof_H 	H 	0.6835	0.8536	0.7113	0.055
Mof_H 	H 	0.7253	0.2406	0.4369	0.048
Mof_H 	H 	0.6538	0.3708	0.47	0.065
Mof_H 	H 	0.7743	0.3201	0.636	0.059
Mof_H 	H 	0.7134	0.7793	0.0593	0.057
Mof_H 	H 	0.8577	0.8299	0.1464	0.052
Mof_H 	H 	0.1963	0.4847	0.7594	0.049
Mof_H 	H 	0.0992	0.283	0.6292	0.066
Mof_H 	H 	0.3159	0.4542	0.6799	0.059
Mof_H 	H 	0.2866	0.3459	0.0659	0.055
Mof_H 	H 	0.1423	0.2887	0.9722	0.059
Mof_H 	H 	0.8037	0.5631	0.2884	0.05
Mof_H 	H 	0.9008	0.53	0.1838	0.068
Mof_H 	H 	0.6841	0.364	0.1383	0.062
Mof_H 	H 	0.2134	0.8093	0.0293	0.056
Mof_H 	H 	0.3577	0.8964	0.0799	0.064
Mof_H 	H 	0.6963	0.5094	0.7347	0.049
Mof_H 	H 	0.5992	0.3792	0.533	0.065
Mof_H 	H 	0.8159	0.4299	0.7042	0.059
Mof_H 	H 	0.7866	0.8159	0.5959	0.062
Mof_H 	H 	0.6423	0.7222	0.5387	0.055
Mof_H 	H 	0.3037	0.0384	0.8131	0.021
Mof_H 	H 	0.4008	0.9338	0.78	0.043
Mof_H 	H 	0.1841	0.8883	0.614	0.044
Mof_H 	H 	0.22	0.4041	0.1907	0.059
Mof_H 	H 	0.1835	0.4613	0.1036	0.069
Mof_H 	H 	0.2253	0.1869	0.4906	0.051
Mof_H 	H 	0.1538	0.22	0.6208	0.067
Mof_H 	H 	0.2743	0.386	0.5701	0.06
Mof_H 	H 	0.78	0.9707	0.1841	0.06
Mof_H 	H 	0.8165	0.9201	0.2778	0.053
Mof_H 	H 	0.7747	0.2653	0.9616	0.024
Mof_H 	H 	0.8462	0.467	0.0662	0.045
Mof_H 	H 	0.7257	0.2958	0.1117	0.046
Mof_H 	H 	0.0926	0.7176	0.125	0.073
Mof_H 	H 	0.4904	0.1154	0.125	0.064
Mof_H 	H 	0.9074	0.0324	0.625	0.092
Mof_H 	H 	0.5096	0.6346	0.625	0.058
Mof_H 	H 	0.5926	0.875	0.9676	0.094
Mof_H 	H 	0.9904	0.875	0.3654	0.057
Mof_H 	H 	0.4074	0.375	0.2824	0.073
Mof_H 	H 	0.0096	0.375	0.8846	0.068
Mof_C 	C 	0.1702	0.8342	0.2426	0.314
Mof_C 	C 	0.1836	0.8287	0.1805	-0.049
Mof_C 	C 	0.2455	0.8887	0.1816	-0.051
Mof_C 	C 	0.3457	0.0215	0.1528	-0.016
Mof_C 	C 	0.4078	0.0821	0.1549	-0.069
Mof_C 	C 	0.431	0.1592	0.1862	0.34
Mof_C 	C 	0.2462	0.7865	0.5171	-0.06
Mof_C 	C 	0.2795	0.7471	0.5464	-0.001
Mof_C 	C 	0.3197	0.7596	0.6213	-0.064
Mof_C 	C 	0.321	0.8092	0.6666	-0.05
Mof_C 	C 	0.2869	0.8468	0.6395	0.029
Mof_C 	C 	0.2495	0.8358	0.5651	-0.056
Mof_C 	C 	0.1977	0.7716	0.4343	0.31
Mof_C 	C 	0.3567	0.7177	0.6524	0.329
Mof_C 	C 	0.8298	0.0724	0.664	0.324
Mof_C 	C 	0.8164	0.9969	0.6451	-0.053
Mof_C 	C 	0.7545	0.9361	0.6432	-0.051
Mof_C 	C 	0.6543	0.8071	0.6758	-0.028
Mof_C 	C 	0.5922	0.7471	0.6743	-0.075
Mof_C 	C 	0.569	0.7552	0.7282	0.341
Mof_C 	C 	0.7538	0.2709	0.5403	-0.066
Mof_C 	C 	0.7205	0.2669	0.4676	0.005
Mof_C 	C 	0.6803	0.3016	0.4399	-0.071
Mof_C 	C 	0.679	0.3456	0.4882	-0.036
Mof_C 	C 	0.7131	0.3526	0.5599	0.009
Mof_C 	C 	0.7505	0.3156	0.5863	-0.043
Mof_C 	C 	0.8023	0.2366	0.5739	0.311
Mof_C 	C 	0.6433	0.2957	0.361	0.332
Mof_C 	C 	0.5916	0.7574	0.9276	0.323
Mof_C 	C 	0.6482	0.8195	0.0031	-0.052
Mof_C 	C 	0.7071	0.8184	0.0639	-0.053
Mof_C 	C 	0.8687	0.8472	0.1929	-0.026
Mof_C 	C 	0.9272	0.8451	0.2529	-0.078
Mof_C 	C 	0.973	0.8138	0.2448	0.347
Mof_C 	C 	0.2694	0.4829	0.7291	-0.066
Mof_C 	C 	0.2007	0.4536	0.7331	0.005
Mof_C 	C 	0.1383	0.3787	0.6984	-0.07
Mof_C 	C 	0.1426	0.3334	0.6544	-0.036
Mof_C 	C 	0.2073	0.3605	0.6474	0.009
Mof_C 	C 	0.2707	0.4349	0.6844	-0.043
Mof_C 	C 	0.3373	0.5657	0.7634	0.311
Mof_C 	C 	0.0653	0.3476	0.7043	0.331
Mof_C 	C 	0.4084	0.336	0.1658	0.315
Mof_C 	C 	0.3518	0.3549	0.1713	-0.05
Mof_C 	C 	0.2929	0.3568	0.1113	-0.048
Mof_C 	C 	0.1313	0.3242	0.9785	-0.016
Mof_C 	C 	0.0728	0.3257	0.9179	-0.065
Mof_C 	C 	0.027	0.2718	0.8408	0.342
Mof_C 	C 	0.7306	0.4597	0.2135	-0.061
Mof_C 	C 	0.7993	0.5324	0.2529	-0
Mof_C 	C 	0.8617	0.5601	0.2404	-0.065
Mof_C 	C 	0.8574	0.5118	0.1908	-0.048
Mof_C 	C 	0.7927	0.4401	0.1532	0.026
Mof_C 	C 	0.7293	0.4137	0.1642	-0.054
Mof_C 	C 	0.6627	0.4261	0.2284	0.31
Mof_C 	C 	0.9347	0.639	0.2823	0.329
Mof_C 	C 	0.0916	0.6776	0.0074	0.291
Mof_C 	C 	0.1482	0.7531	0.0695	-0.045
Mof_C 	C 	0.2071	0.8139	0.0684	-0.054
Mof_C 	C 	0.3687	0.9429	0.0972	-0.065
Mof_C 	C 	0.4272	0.0029	0.0951	-0.029
Mof_C 	C 	0.473	0.9948	0.0638	0.298
Mof_C 	C 	0.7694	0.4791	0.7329	-0.066
Mof_C 	C 	0.7007	0.4831	0.7036	0.005
Mof_C 	C 	0.6383	0.4484	0.6287	-0.07
Mof_C 	C 	0.6426	0.4044	0.5834	-0.036
Mof_C 	C 	0.7073	0.3974	0.6105	0.009
Mof_C 	C 	0.7707	0.4344	0.6849	-0.043
Mof_C 	C 	0.8373	0.5134	0.8157	0.311
Mof_C 	C 	0.5653	0.4543	0.5976	0.332
Mof_C 	C 	0.9084	0.9158	0.586	0.31
Mof_C 	C 	0.8518	0.9213	0.6049	-0.039
Mof_C 	C 	0.7929	0.8613	0.6068	-0.056
Mof_C 	C 	0.6313	0.7285	0.5742	-0.028
Mof_C 	C 	0.5728	0.6679	0.5757	-0.074
Mof_C 	C 	0.527	0.5908	0.5218	0.341
Mof_C 	C 	0.2306	0.9635	0.7097	-0.125
Mof_C 	C 	0.2993	0.0029	0.7824	0.106
Mof_C 	C 	0.3617	0.9904	0.8101	-0.154
Mof_C 	C 	0.3574	0.9408	0.7618	0.018
Mof_C 	C 	0.2927	0.9032	0.6901	-0.033
Mof_C 	C 	0.2293	0.9142	0.6637	-0.001
Mof_C 	C 	0.1627	0.9784	0.6761	0.305
Mof_C 	C 	0.4347	0.0323	0.889	0.373
Mof_C 	C 	0.3298	0.414	0.3224	0.314
Mof_C 	C 	0.3164	0.3951	0.2469	-0.049
Mof_C 	C 	0.2545	0.3932	0.1861	-0.048
Mof_C 	C 	0.1543	0.4258	0.0571	-0.075
Mof_C 	C 	0.0922	0.4243	0.9971	-0.016
Mof_C 	C 	0.069	0.4782	0.0052	0.287
Mof_C 	C 	0.2538	0.2903	0.5209	-0.064
Mof_C 	C 	0.2205	0.2176	0.5169	0.003
Mof_C 	C 	0.1803	0.1899	0.5516	-0.066
Mof_C 	C 	0.179	0.2382	0.5956	-0.038
Mof_C 	C 	0.2131	0.3099	0.6026	0.011
Mof_C 	C 	0.2505	0.3363	0.5656	-0.044
Mof_C 	C 	0.3023	0.3239	0.4866	0.311
Mof_C 	C 	0.1433	0.111	0.5457	0.33
Mof_C 	C 	0.6702	0.9926	0.0842	0.293
Mof_C 	C 	0.6836	0.9305	0.0787	-0.034
Mof_C 	C 	0.7455	0.9316	0.1387	-0.061
Mof_C 	C 	0.8457	0.9028	0.2715	-0.026
Mof_C 	C 	0.9078	0.9049	0.3321	-0.078
Mof_C 	C 	0.931	0.9362	0.4092	0.341
Mof_C 	C 	0.7462	0.2671	0.0365	-0.116
Mof_C 	C 	0.7795	0.2964	0.9971	0.092
Mof_C 	C 	0.8197	0.3713	0.0096	-0.144
Mof_C 	C 	0.821	0.4166	0.0592	0.011
Mof_C 	C 	0.7869	0.3895	0.0968	-0.027
Mof_C 	C 	0.7495	0.3151	0.0858	-0.007
Mof_C 	C 	0.6977	0.1843	0.0216	0.306
Mof_C 	C 	0.8567	0.4024	0.9677	0.368
Mof_C 	C 	0.2582	0.8832	0.125	0.017
Mof_C 	C 	0.3238	0.9488	0.125	-0.01
Mof_C 	C 	0.134	0.759	0.125	-0.016
Mof_C 	C 	0.449	0.074	0.125	-0.013
Mof_C 	C 	0.7418	0.8668	0.625	0.021
Mof_C 	C 	0.6762	0.8012	0.625	-0.005
Mof_C 	C 	0.866	0.991	0.625	-0.039
Mof_C 	C 	0.551	0.676	0.625	0.006
Mof_C 	C 	0.7582	0.875	0.1332	0.023
Mof_C 	C 	0.8238	0.875	0.1988	-0.008
Mof_C 	C 	0.634	0.875	0.009	-0.045
Mof_C 	C 	0.949	0.875	0.324	0.009
Mof_C 	C 	0.2418	0.375	0.1168	0.015
Mof_C 	C 	0.1762	0.375	0.0512	-0.005
Mof_C 	C 	0.366	0.375	0.241	-0.011
Mof_C 	C 	0.051	0.375	0.926	-0.019
Mof_O 	O 	0.1196	0.7716	0.242	-0.431
Mof_O 	O 	0.2056	0.8967	0.2871	-0.302
Mof_O 	O 	0.4104	0.17	0.228	-0.282
Mof_O 	O 	0.4732	0.209	0.1704	-0.443
Mof_O 	O 	0.1673	0.8092	0.4123	-0.439
Mof_O 	O 	0.1869	0.7214	0.3915	-0.294
Mof_O 	O 	0.394	0.7333	0.7215	-0.428
Mof_O 	O 	0.3548	0.6734	0.6102	-0.287
Mof_O 	O 	0.8804	0.1224	0.652	-0.43
Mof_O 	O 	0.7944	0.0815	0.6911	-0.294
Mof_O 	O 	0.5896	0.8176	0.7596	-0.285
Mof_O 	O 	0.5268	0.6972	0.7358	-0.443
Mof_O 	O 	0.8327	0.245	0.6419	-0.439
Mof_O 	O 	0.8131	0.2046	0.5345	-0.293
Mof_O 	O 	0.606	0.3275	0.3393	-0.428
Mof_O 	O 	0.6452	0.2554	0.3186	-0.287
Mof_O 	O 	0.5296	0.758	0.8776	-0.43
Mof_O 	O 	0.6096	0.7129	0.9185	-0.295
Mof_O 	O 	0.942	0.772	0.1824	-0.287
Mof_O 	O 	0.0386	0.8296	0.3028	-0.448
Mof_O 	O 	0.3969	0.5877	0.755	-0.439
Mof_O 	O 	0.3299	0.6085	0.7954	-0.293
Mof_O 	O 	0.0118	0.2785	0.6725	-0.426
Mof_O 	O 	0.0632	0.3898	0.7446	-0.286
Mof_O 	O 	0.4704	0.348	0.2284	-0.43
Mof_O 	O 	0.3904	0.3089	0.1033	-0.301
Mof_O 	O 	0.058	0.2404	0.83	-0.279
Mof_O 	O 	0.9614	0.2642	0.791	-0.445
Mof_O 	O 	0.6031	0.3581	0.1908	-0.439
Mof_O 	O 	0.6701	0.4655	0.2786	-0.294
Mof_O 	O 	0.9882	0.6607	0.2667	-0.427
Mof_O 	O 	0.9368	0.6814	0.3266	-0.286
Mof_O 	O 	0.0296	0.6276	0.008	-0.433
Mof_O 	O 	0.1096	0.6685	0.9629	-0.279
Mof_O 	O 	0.442	0.9324	0.022	-0.284
Mof_O 	O 	0.5386	0.0528	0.0796	-0.427
Mof_O 	O 	0.8969	0.505	0.8377	-0.438
Mof_O 	O 	0.8299	0.5454	0.8585	-0.29
Mof_O 	O 	0.5118	0.4225	0.5285	-0.428
Mof_O 	O 	0.5632	0.4946	0.6398	-0.287
Mof_O 	O 	0.9704	0.9784	0.598	-0.433
Mof_O 	O 	0.8904	0.8533	0.5589	-0.296
Mof_O 	O 	0.558	0.58	0.4904	-0.284
Mof_O 	O 	0.4614	0.541	0.5142	-0.443
Mof_O 	O 	0.1031	0.9408	0.6081	-0.442
Mof_O 	O 	0.1701	0.0286	0.7155	-0.273
Mof_O 	O 	0.4882	0.0167	0.9107	-0.422
Mof_O 	O 	0.4368	0.0766	0.9314	-0.285
Mof_O 	O 	0.3804	0.402	0.3724	-0.429
Mof_O 	O 	0.2944	0.4411	0.3315	-0.297
Mof_O 	O 	0.0896	0.5096	0.0676	-0.276
Mof_O 	O 	0.0268	0.4858	0.9472	-0.419
Mof_O 	O 	0.3327	0.3919	0.495	-0.438
Mof_O 	O 	0.3131	0.2845	0.4546	-0.292
Mof_O 	O 	0.106	0.0893	0.5775	-0.419
Mof_O 	O 	0.1452	0.0686	0.5054	-0.277
Mof_O 	O 	0.6196	0.992	0.0216	-0.438
Mof_O 	O 	0.7056	0.0371	0.1467	-0.282
Mof_O 	O 	0.9104	0.978	0.42	-0.289
Mof_O 	O 	0.9732	0.9204	0.459	-0.445
Mof_O 	O 	0.6673	0.1623	0.0592	-0.44
Mof_O 	O 	0.6869	0.1415	0.9714	-0.274
Mof_O 	O 	0.894	0.4715	0.9833	-0.429
Mof_O 	O 	0.8548	0.3602	0.9234	-0.293
Mof_H 	H 	0.1841	0.9415	0.4248	0.118
Mof_H 	H 	0.1943	0.9316	0.3643	0.124
Mof_H 	H 	0.1183	0.9835	0.3384	0.115
Mof_H 	H 	0.2049	0.0406	0.3509	0.13
Mof_H 	H 	0.1919	0.0496	0.4149	0.136
Mof_H 	H 	0.3189	0.9766	0.4745	0.085
Mof_H 	H 	0.3192	0.0456	0.5	0.11
Mof_H 	H 	0.3301	0.0348	0.4349	0.11
Mof_C 	C 	0.1783	0.0144	0.3741	-0.274
Mof_C 	C 	0.3028	0.0097	0.4581	-0.233
Mof_N 	N 	0.2094	0.9659	0.4031	-0.185
Mof_H 	H 	0.3896	0.8234	0.484	0.106
Mof_H 	H 	0.4654	0.8686	0.4852	0.093
Mof_H 	H 	0.4875	0.9304	0.5921	0.127
Mof_H 	H 	0.4069	0.9297	0.5416	0.128
Mof_H 	H 	0.4875	0.9787	0.5418	0.111
Mof_H 	H 	0.3496	0.8317	0.3659	0.143
Mof_H 	H 	0.4031	0.9185	0.4038	0.134
Mof_H 	H 	0.3214	0.8684	0.4016	0.147
Mof_C 	C 	0.4539	0.9326	0.5453	-0.334
Mof_C 	C 	0.3689	0.8718	0.4059	-0.364
Mof_N 	N 	0.4215	0.8668	0.4813	-0.155
Mof_H 	H 	0.8159	0.2407	0.7574	0.114
Mof_H 	H 	0.8057	0.17	0.7373	0.119
Mof_H 	H 	0.8817	0.2201	0.8652	0.167
Mof_H 	H 	0.7951	0.146	0.8357	0.166
Mof_H 	H 	0.8081	0.223	0.8577	0.172
Mof_H 	H 	0.6811	0.1556	0.6577	0.133
Mof_H 	H 	0.6808	0.1808	0.7264	0.143
Mof_H 	H 	0.6699	0.1048	0.7047	0.144
Mof_C 	C 	0.8217	0.1958	0.8361	-0.397
Mof_C 	C 	0.6972	0.1553	0.7069	-0.351
Mof_N 	N 	0.7906	0.1937	0.7565	-0.143
Mof_H 	H 	0.6104	0.0944	0.4338	0.107
Mof_H 	H 	0.5346	0.0198	0.4032	0.099
Mof_H 	H 	0.5125	0.1046	0.4429	0.138
Mof_H 	H 	0.5931	0.1347	0.5228	0.135
Mof_H 	H 	0.5125	0.0543	0.4912	0.128
Mof_H 	H 	0.6504	0.0163	0.4821	0.153
Mof_H 	H 	0.5969	0.0007	0.5154	0.148
Mof_H 	H 	0.6786	0.0802	0.547	0.153
Mof_C 	C 	0.5461	0.0914	0.4787	-0.351
Mof_C 	C 	0.6311	0.037	0.5029	-0.378
Mof_N 	N 	0.5785	0.0598	0.4453	-0.152
Mof_H 	H 	0.5167	0.5752	0.7593	0.114
Mof_H 	H 	0.5673	0.6357	0.83	0.119
Mof_H 	H 	0.6451	0.6616	0.7799	0.163
Mof_H 	H 	0.6897	0.6491	0.854	0.162
Mof_H 	H 	0.6347	0.5851	0.777	0.167
Mof_H 	H 	0.5021	0.5255	0.8444	0.132
Mof_H 	H 	0.5456	0.5	0.8192	0.141
Mof_H 	H 	0.5999	0.5651	0.8952	0.143
Mof_C 	C 	0.6403	0.6259	0.8042	-0.39
Mof_C 	C 	0.5516	0.5419	0.8447	-0.349
Mof_N 	N 	0.5628	0.5969	0.8063	-0.144
Mof_H 	H 	0.3394	0.516	0.9056	0.107
Mof_H 	H 	0.3834	0.5148	0.9802	0.099
Mof_H 	H 	0.3383	0.4079	0.8954	0.138
Mof_H 	H 	0.3881	0.4584	0.8653	0.135
Mof_H 	H 	0.4369	0.4582	0.9457	0.128
Mof_H 	H 	0.4658	0.6341	0.9837	0.152
Mof_H 	H 	0.5147	0.5962	0.9993	0.147
Mof_H 	H 	0.4668	0.5984	0.9198	0.153
Mof_C 	C 	0.3873	0.4547	0.9086	-0.351
Mof_C 	C 	0.4659	0.5941	0.963	-0.378
Mof_N 	N 	0.3855	0.5187	0.9402	-0.152
Mof_H 	H 	0.4833	0.2426	0.0585	0.118
Mof_H 	H 	0.4327	0.2627	0.0684	0.123
Mof_H 	H 	0.3549	0.1348	0.0165	0.122
Mof_H 	H 	0.3103	0.1643	0.9594	0.137
Mof_H 	H 	0.3653	0.1423	0.9504	0.143
Mof_H 	H 	0.4979	0.3423	0.0234	0.087
Mof_H 	H 	0.4544	0.2736	0.9544	0.112
Mof_H 	H 	0.4001	0.2953	0.9652	0.112
Mof_C 	C 	0.3597	0.1639	0.9856	-0.287
Mof_C 	C 	0.4484	0.2931	0.9903	-0.239
Mof_N 	N 	0.4372	0.2435	0.0341	-0.182
Mof_H 	H 	0.6606	0.5662	0.1766	0.106
Mof_H 	H 	0.6166	0.5968	0.1314	0.093
Mof_H 	H 	0.6617	0.5571	0.0696	0.127
Mof_H 	H 	0.6119	0.4772	0.0703	0.128
Mof_H 	H 	0.5631	0.5088	0.0213	0.11
Mof_H 	H 	0.5342	0.5179	0.1683	0.143
Mof_H 	H 	0.4853	0.4846	0.0815	0.134
Mof_H 	H 	0.5332	0.453	0.1316	0.147
Mof_C 	C 	0.6127	0.5213	0.0674	-0.333
Mof_C 	C 	0.5341	0.4971	0.1282	-0.364
Mof_N 	N 	0.6145	0.5547	0.1332	-0.156
Mof_H 	H 	0.0167	0.5093	0.8252	0.114
Mof_H 	H 	0.0673	0.58	0.8857	0.119
Mof_H 	H 	0.1451	0.5299	0.9116	0.165
Mof_H 	H 	0.1897	0.604	0.8991	0.162
Mof_H 	H 	0.1347	0.527	0.8351	0.168
Mof_H 	H 	0.0021	0.5944	0.7755	0.129
Mof_H 	H 	0.0456	0.5692	0.75	0.138
Mof_H 	H 	0.0999	0.6452	0.8151	0.139
Mof_C 	C 	0.1403	0.5542	0.8759	-0.391
Mof_C 	C 	0.0516	0.5947	0.7919	-0.343
Mof_N 	N 	0.0628	0.5563	0.8469	-0.145
Mof_H 	H 	0.8394	0.6556	0.766	0.106
Mof_H 	H 	0.8834	0.7302	0.7648	0.096
Mof_H 	H 	0.8383	0.6454	0.6579	0.133
Mof_H 	H 	0.8881	0.6153	0.7084	0.132
Mof_H 	H 	0.9369	0.6957	0.7082	0.12
Mof_H 	H 	0.9658	0.7337	0.8841	0.15
Mof_H 	H 	0.0147	0.7493	0.8462	0.141
Mof_H 	H 	0.9668	0.6698	0.8484	0.152
Mof_C 	C 	0.8873	0.6586	0.7047	-0.343
Mof_C 	C 	0.9659	0.713	0.8441	-0.371
Mof_N 	N 	0.8855	0.6902	0.7687	-0.154
Mof_H 	H 	0.9833	0.8085	0.4926	0.115
Mof_H 	H 	0.9327	0.8184	0.5127	0.119
Mof_H 	H 	0.8549	0.7665	0.3848	0.161
Mof_H 	H 	0.8103	0.7094	0.4143	0.158
Mof_H 	H 	0.8653	0.7004	0.3923	0.165
Mof_H 	H 	0.9979	0.7734	0.5923	0.13
Mof_H 	H 	0.9544	0.7044	0.5236	0.138
Mof_H 	H 	0.9001	0.7152	0.5453	0.138
Mof_C 	C 	0.8597	0.7356	0.4139	-0.385
Mof_C 	C 	0.9484	0.7403	0.5431	-0.343
Mof_N 	N 	0.9372	0.7841	0.4935	-0.146
Mof_H 	H 	0.1606	0.9266	0.8162	0.103
Mof_H 	H 	0.1166	0.8814	0.8468	0.095
Mof_H 	H 	0.1617	0.8196	0.8071	0.133
Mof_H 	H 	0.1119	0.8203	0.7272	0.132
Mof_H 	H 	0.0631	0.7713	0.7588	0.12
Mof_H 	H 	0.0342	0.9183	0.7679	0.146
Mof_H 	H 	0.9853	0.8315	0.7346	0.143
Mof_H 	H 	0.0332	0.8816	0.703	0.15
Mof_C 	C 	0.1127	0.8174	0.7713	-0.344
Mof_C 	C 	0.0341	0.8782	0.7471	-0.376
Mof_N 	N 	0.1145	0.8832	0.8047	-0.152
Mof_H 	H 	0.3159	0.5074	0.4907	0.115
Mof_H 	H 	0.3057	0.4873	0.42	0.119
Mof_H 	H 	0.3817	0.6152	0.4701	0.161
Mof_H 	H 	0.2951	0.5857	0.396	0.158
Mof_H 	H 	0.3081	0.6077	0.473	0.165
Mof_H 	H 	0.1811	0.4077	0.4056	0.129
Mof_H 	H 	0.1808	0.4764	0.4308	0.137
Mof_H 	H 	0.1699	0.4547	0.3548	0.137
Mof_C 	C 	0.3217	0.5861	0.4458	-0.385
Mof_C 	C 	0.1972	0.4569	0.4053	-0.342
Mof_N 	N 	0.2906	0.5065	0.4437	-0.146
Mof_H 	H 	0.1104	0.1838	0.3444	0.108
Mof_H 	H 	0.0346	0.1532	0.2698	0.098
Mof_H 	H 	0.0125	0.1929	0.3546	0.136
Mof_H 	H 	0.0931	0.2728	0.3847	0.133
Mof_H 	H 	0.0125	0.2412	0.3043	0.121
Mof_H 	H 	0.1504	0.2321	0.2663	0.147
Mof_H 	H 	0.0969	0.2654	0.2507	0.14
Mof_H 	H 	0.1786	0.297	0.3302	0.15
Mof_C 	C 	0.0461	0.2287	0.3414	-0.344
Mof_C 	C 	0.1311	0.2529	0.287	-0.37
Mof_N 	N 	0.0785	0.1953	0.3098	-0.154
Mof_H 	H 	0.6841	0.1748	0.1915	0.114
Mof_H 	H 	0.6943	0.1143	0.1816	0.119
Mof_H 	H 	0.6183	0.0884	0.2335	0.165
Mof_H 	H 	0.7049	0.1009	0.2906	0.162
Mof_H 	H 	0.6919	0.1649	0.2996	0.167
Mof_H 	H 	0.8189	0.2245	0.2266	0.129
Mof_H 	H 	0.8192	0.25	0.2956	0.138
Mof_H 	H 	0.8301	0.1849	0.2848	0.138
Mof_C 	C 	0.6783	0.1241	0.2644	-0.391
Mof_C 	C 	0.8028	0.2081	0.2597	-0.343
Mof_N 	N 	0.7094	0.1531	0.2159	-0.145
Mof_H 	H 	0.8896	0.234	0.0734	0.102
Mof_H 	H 	0.9654	0.2352	0.1186	0.093
Mof_H 	H 	0.9875	0.3421	0.1804	0.132
Mof_H 	H 	0.9069	0.2916	0.1797	0.131
Mof_H 	H 	0.9875	0.2918	0.2287	0.119
Mof_H 	H 	0.8496	0.1159	0.0817	0.147
Mof_H 	H 	0.9031	0.1538	0.1685	0.141
Mof_H 	H 	0.8214	0.1516	0.1184	0.151
Mof_C 	C 	0.9539	0.2953	0.1826	-0.343
Mof_C 	C 	0.8689	0.1559	0.1218	-0.373
Mof_N 	N 	0.9215	0.2313	0.1168	-0.152
_end
