data_functionalizedCrystal
_audit_creation_method	'EQeq! by Chris Wilmer'
_symmetry_space_group_name_H-M	'P1'
_symmetry_Int_Tables_number	1
_symmetry_cell_setting	triclinic
loop_
_symmetry_equiv_pos_as_xyz
  x,y,z
_cell_length_a	14.5056
_cell_length_b	14.8981
_cell_length_c	22.9934
_cell_angle_alpha	90.534
_cell_angle_beta	92.844
_cell_angle_gamma	104.153
loop_
_atom_site_label
_atom_site_type_symbol
_atom_site_fract_x
_atom_site_fract_y
_atom_site_fract_z
_atom_site_charge
Mof_Ag	Ag	0.2603	0.8873	0.23502	0.507
Mof_Ag	Ag	0.92956	0.59066	0.92829	0.575
Mof_Ag	Ag	0.51726	0.37814	0.9977	0.453
Mof_C 	C 	0.899	0.496	0.617	0.058
Mof_H 	H 	0.9503	0.4966	0.6432	-0.007
Mof_C 	C 	0.818	0.529	0.5477	0.127
Mof_H 	H 	0.7985	0.5435	0.5105	-0.028
Mof_C 	C 	0.769	0.448	0.6864	-0.079
Mof_H 	H 	0.7004	0.441	0.6861	0.05
Mof_H 	H 	0.7801	0.3864	0.6903	0.04
Mof_C 	C 	0.815	0.506	0.7369	-0.054
Mof_H 	H 	0.8784	0.4969	0.742	0.034
Mof_H 	H 	0.8216	0.5697	0.7254	0.041
Mof_C 	C 	0.7791	0.4996	0.7899	-0.14
Mof_H 	H 	0.711	0.4924	0.7843	0.062
Mof_H 	H 	0.8048	0.5588	0.8098	0.051
Mof_C 	C 	0.7942	0.4251	0.8312	-0.013
Mof_H 	H 	0.7687	0.3646	0.8129	0.013
Mof_H 	H 	0.8619	0.4325	0.8397	0.008
Mof_C 	C 	0.7181	0.4934	0.9641	0.093
Mof_H 	H 	0.7212	0.5323	0.9964	-0.043
Mof_C 	C 	0.6644	0.3867	0.9008	0.113
Mof_H 	H 	0.6246	0.3362	0.8809	-0.036
Mof_C 	C 	0.363	0.22	0.0466	0.099
Mof_H 	H 	0.3443	0.1975	0.009	-0.032
Mof_C 	C 	0.4282	0.3068	0.1131	0.098
Mof_H 	H 	0.4665	0.3571	0.1341	-0.029
Mof_C 	C 	0.3672	0.2083	0.1987	-0.057
Mof_H 	H 	0.3971	0.2625	0.2227	0.039
Mof_H 	H 	0.3997	0.1602	0.208	0.033
Mof_C 	C 	0.2625	0.1752	0.2128	-0.067
Mof_H 	H 	0.2301	0.128	0.1844	0.052
Mof_H 	H 	0.2584	0.1476	0.2509	0.028
Mof_C 	C 	0.2144	0.2529	0.2122	-0.135
Mof_H 	H 	0.2273	0.2851	0.2496	0.058
Mof_H 	H 	0.2417	0.2963	0.1828	0.075
Mof_C 	C 	0.1095	0.2237	0.2001	-0.004
Mof_H 	H 	0.0827	0.1734	0.2255	0.017
Mof_H 	H 	0.082	0.2751	0.2089	0.012
Mof_C 	C 	0.0806	0.201	0.0497	0.095
Mof_H 	H 	0.0852	0.2233	0.012	-0.046
Mof_C 	C 	0.049	0.114	0.1182	0.111
Mof_H 	H 	0.0261	0.062	0.1404	-0.034
Mof_C 	C 	0.1448	0.87	0.1172	0.063
Mof_H 	H 	0.089	0.8389	0.1338	-0.024
Mof_C 	C 	0.293	0.934	0.1067	0.121
Mof_H 	H 	0.359	0.9547	0.1121	-0.027
Mof_C 	C 	0.287	0.982	0.0033	0.021
Mof_H 	H 	0.2503	0.0238	0.9887	0.008
Mof_H 	H 	0.351	0.0185	0.0135	0.011
Mof_C 	C 	0.292	0.922	0.9592	-0.144
Mof_H 	H 	0.3115	0.9577	0.9249	0.056
Mof_H 	H 	0.2292	0.8828	0.9504	0.081
Mof_C 	C 	0.3607	0.859	0.9703	-0.069
Mof_H 	H 	0.3672	0.8486	0.0117	0.048
Mof_H 	H 	0.423	0.889	0.957	0.037
Mof_C 	C 	0.3198	0.7654	0.9365	-0.042
Mof_H 	H 	0.3164	0.7772	0.8952	0.03
Mof_H 	H 	0.3633	0.726	0.9431	0.019
Mof_C 	C 	0.1455	0.689	0.9215	0.087
Mof_H 	H 	0.1393	0.6956	0.8814	-0.03
Mof_C 	C 	0.1211	0.653	0.0084	0.092
Mof_H 	H 	0.0913	0.6245	0.0407	-0.039
Mof_C 	C 	0.3533	0.9292	0.3615	0.073
Mof_H 	H 	0.4155	0.936	0.3506	-0.013
Mof_C 	C 	0.206	0.901	0.3582	0.105
Mof_H 	H 	0.1432	0.8803	0.3441	-0.035
Mof_C 	C 	0.378	0.951	0.4718	-0.109
Mof_H 	H 	0.3491	0.9893	0.4959	0.063
Mof_H 	H 	0.3717	0.8923	0.4912	0.058
Mof_C 	C 	0.4763	0.994	0.4705	0.02
Mof_H 	H 	0.4841	0.0543	0.453	0.013
Mof_H 	H 	0.5065	0.957	0.4465	0.02
Mof_N 	N 	0.8947	0.5041	0.5564	-0.214
Mof_N 	N 	0.806	0.488	0.6275	-0.085
Mof_N 	N 	0.766	0.532	0.5915	-0.11
Mof_N 	N 	0.6452	0.4228	0.9488	-0.216
Mof_N 	N 	0.7894	0.5007	0.9245	-0.172
Mof_N 	N 	0.7477	0.4313	0.8845	-0.114
Mof_N 	N 	0.4172	0.3007	0.0573	-0.221
Mof_N 	N 	0.3347	0.1706	0.0956	-0.101
Mof_N 	N 	0.3774	0.2317	0.1363	-0.099
Mof_N 	N 	0.0846	0.1943	0.1411	-0.117
Mof_N 	N 	0.104	0.2551	0.0951	-0.147
Mof_N 	N 	0.0482	0.109	0.0609	-0.225
Mof_N 	N 	0.1534	0.899	0.0607	-0.104
Mof_N 	N 	0.244	0.9403	0.0582	-0.107
Mof_N 	N 	0.2372	0.8968	0.1457	-0.219
Mof_N 	N 	0.2248	0.716	0.9539	-0.1
Mof_N 	N 	0.211	0.697	0.0094	-0.103
Mof_N 	N 	0.0761	0.6525	0.9555	-0.226
Mof_N 	N 	0.275	0.9138	0.3266	-0.22
Mof_N 	N 	0.2326	0.921	0.4171	-0.107
Mof_N 	N 	0.3234	0.933	0.4178	-0.082
Mof_Ag	Ag	0.0376	0.9668	0.0086	-0.096
Mof_Ag	Ag	0.7397	0.1127	0.76498	0.501
Mof_Ag	Ag	0.07044	0.40934	0.07171	0.508
Mof_Ag	Ag	0.48274	0.62186	0.0023	0.437
Mof_C 	C 	0.101	0.504	0.383	0.053
Mof_H 	H 	0.0497	0.5034	0.3568	-0.016
Mof_C 	C 	0.182	0.471	0.4523	0.124
Mof_H 	H 	0.2015	0.4565	0.4895	-0.037
Mof_C 	C 	0.231	0.552	0.3136	-0.104
Mof_H 	H 	0.2996	0.559	0.3139	0.058
Mof_H 	H 	0.2199	0.6136	0.3097	0.046
Mof_C 	C 	0.185	0.494	0.2631	-0.01
Mof_H 	H 	0.1216	0.5031	0.258	0.016
Mof_H 	H 	0.1784	0.4303	0.2746	0.025
Mof_C 	C 	0.2209	0.5004	0.2101	-0.182
Mof_H 	H 	0.289	0.5076	0.2157	0.075
Mof_H 	H 	0.1952	0.4412	0.1902	0.064
Mof_C 	C 	0.2058	0.5749	0.1688	0.011
Mof_H 	H 	0.2313	0.6354	0.1871	0.005
Mof_H 	H 	0.1381	0.5675	0.1603	-0.003
Mof_C 	C 	0.2819	0.5066	0.0359	0.091
Mof_H 	H 	0.2788	0.4677	0.0036	-0.048
Mof_C 	C 	0.3356	0.6133	0.0992	0.113
Mof_H 	H 	0.3754	0.6638	0.1191	-0.034
Mof_C 	C 	0.637	0.78	0.9534	0.098
Mof_H 	H 	0.6557	0.8025	0.991	-0.025
Mof_C 	C 	0.5718	0.6932	0.8869	0.098
Mof_H 	H 	0.5335	0.6429	0.8659	-0.03
Mof_C 	C 	0.6328	0.7917	0.8013	-0.049
Mof_H 	H 	0.6029	0.7375	0.7773	0.036
Mof_H 	H 	0.6003	0.8398	0.792	0.033
Mof_C 	C 	0.7375	0.8248	0.7872	-0.08
Mof_H 	H 	0.7699	0.872	0.8156	0.059
Mof_H 	H 	0.7416	0.8524	0.7491	0.037
Mof_C 	C 	0.7856	0.7471	0.7878	-0.119
Mof_H 	H 	0.7727	0.7149	0.7504	0.055
Mof_H 	H 	0.7583	0.7037	0.8172	0.071
Mof_C 	C 	0.8905	0.7763	0.7999	-0.018
Mof_H 	H 	0.9173	0.8266	0.7745	0.03
Mof_H 	H 	0.918	0.7249	0.7911	0.023
Mof_C 	C 	0.9194	0.799	0.9503	0.106
Mof_H 	H 	0.9148	0.7767	0.988	-0.03
Mof_C 	C 	0.951	0.886	0.8818	0.113
Mof_H 	H 	0.9739	0.938	0.8596	-0.021
Mof_C 	C 	0.8552	0.13	0.8828	0.062
Mof_H 	H 	0.911	0.1611	0.8662	-0.019
Mof_C 	C 	0.707	0.066	0.8933	0.114
Mof_H 	H 	0.641	0.0453	0.8879	-0.031
Mof_C 	C 	0.713	0.018	0.9967	-0.063
Mof_H 	H 	0.7497	0.9762	0.0113	0.037
Mof_H 	H 	0.649	0.9815	0.9865	0.052
Mof_C 	C 	0.708	0.078	0.0408	-0.077
Mof_H 	H 	0.6885	0.0423	0.0751	0.034
Mof_H 	H 	0.7708	0.1172	0.0496	0.061
Mof_C 	C 	0.6393	0.141	0.0297	-0.13
Mof_H 	H 	0.6328	0.1514	0.9883	0.071
Mof_H 	H 	0.577	0.111	0.043	0.051
Mof_C 	C 	0.6802	0.2346	0.0635	-0.016
Mof_H 	H 	0.6836	0.2228	0.1048	0.025
Mof_H 	H 	0.6367	0.274	0.0569	0.009
Mof_C 	C 	0.8545	0.311	0.0785	0.091
Mof_H 	H 	0.8607	0.3044	0.1186	-0.016
Mof_C 	C 	0.8789	0.347	0.9916	0.106
Mof_H 	H 	0.9087	0.3755	0.9593	-0.033
Mof_C 	C 	0.6467	0.0708	0.6385	0.077
Mof_H 	H 	0.5845	0.064	0.6494	-0.024
Mof_C 	C 	0.794	0.099	0.6418	0.104
Mof_H 	H 	0.8568	0.1197	0.6559	-0.03
Mof_C 	C 	0.622	0.049	0.5282	0.037
Mof_H 	H 	0.6509	0.0107	0.5041	0.02
Mof_H 	H 	0.6283	0.1077	0.5088	0.019
Mof_C 	C 	0.5237	0.006	0.5295	-0.235
Mof_H 	H 	0.5159	0.9457	0.547	0.097
Mof_H 	H 	0.4935	0.043	0.5535	0.087
Mof_N 	N 	0.1053	0.4959	0.4436	-0.224
Mof_N 	N 	0.194	0.512	0.3725	-0.083
Mof_N 	N 	0.234	0.468	0.4085	-0.112
Mof_N 	N 	0.3548	0.5772	0.0512	-0.216
Mof_N 	N 	0.2106	0.4993	0.0755	-0.169
Mof_N 	N 	0.2523	0.5687	0.1155	-0.117
Mof_N 	N 	0.5828	0.6993	0.9427	-0.217
Mof_N 	N 	0.6653	0.8294	0.9044	-0.099
Mof_N 	N 	0.6226	0.7683	0.8637	-0.1
Mof_N 	N 	0.9154	0.8057	0.8589	-0.111
Mof_N 	N 	0.896	0.7449	0.9049	-0.147
Mof_N 	N 	0.9518	0.891	0.9391	-0.202
Mof_N 	N 	0.8466	0.101	0.9393	-0.113
Mof_N 	N 	0.756	0.0597	0.9418	-0.1
Mof_N 	N 	0.7628	0.1032	0.8543	-0.218
Mof_N 	N 	0.7752	0.284	0.0461	-0.106
Mof_N 	N 	0.789	0.303	0.9906	-0.099
Mof_N 	N 	0.9239	0.3475	0.0445	-0.209
Mof_N 	N 	0.725	0.0862	0.6734	-0.222
Mof_N 	N 	0.7674	0.079	0.5829	-0.101
Mof_N 	N 	0.6766	0.067	0.5822	-0.106
Mof_Ag	Ag	0.9624	0.0332	0.9914	0.112
Mof_Ag	Ag	-0	0	-0	0.481
Mof_Ag	Ag	-3.69223e-18	0.5	0.5	0.471
_end
