data_functionalizedCrystal
_audit_creation_method	'EQeq! by Chris Wilmer'
_symmetry_space_group_name_H-M	'P1'
_symmetry_Int_Tables_number	1
_symmetry_cell_setting	triclinic
loop_
_symmetry_equiv_pos_as_xyz
  x,y,z
_cell_length_a	18.4797
_cell_length_b	18.4797
_cell_length_c	18.632
_cell_angle_alpha	86.3772
_cell_angle_beta	86.3772
_cell_angle_gamma	70.3635
loop_
_atom_site_label
_atom_site_type_symbol
_atom_site_fract_x
_atom_site_fract_y
_atom_site_fract_z
_atom_site_charge
Mof_Eu	Eu	0.89878	0.54547	0.56756	2.116
Mof_Eu	Eu	0.35245	0.00879	0.52016	2.059
Mof_Eu	Eu	0.45453	0.10122	0.93244	2.1
Mof_Eu	Eu	0.99121	0.64755	0.97984	2.054
Mof_Eu	Eu	0.10122	0.45453	0.43244	2.117
Mof_Eu	Eu	0.64755	0.99121	0.47984	2.06
Mof_Eu	Eu	0.54547	0.89878	0.06756	2.101
Mof_Eu	Eu	0.00879	0.35245	0.02016	2.055
Mof_H 	H 	0.6735	0.7679	0.5059	0.019
Mof_H 	H 	0.4514	0.7912	0.5505	0.017
Mof_H 	H 	0.6163	0.5931	0.6004	0.045
Mof_H 	H 	0.0358	0.5616	0.7355	-0.004
Mof_H 	H 	0.2178	0.5458	0.5996	0.035
Mof_H 	H 	0.2088	0.6242	0.7956	0.047
Mof_H 	H 	0.134	0.2638	0.5322	0.002
Mof_H 	H 	0.9333	0.2865	0.6395	0.02
Mof_H 	H 	0.1038	0.0826	0.6452	0.034
Mof_H 	H 	0.2321	0.3265	0.9941	0.019
Mof_H 	H 	0.2088	0.5486	0.9495	0.019
Mof_H 	H 	0.4069	0.3837	0.8996	0.045
Mof_H 	H 	0.4384	0.9642	0.7645	-0.003
Mof_H 	H 	0.4542	0.7822	0.9004	0.036
Mof_H 	H 	0.3758	0.7912	0.7044	0.047
Mof_H 	H 	0.7362	0.866	0.9678	0.009
Mof_H 	H 	0.7135	0.0667	0.8605	0.03
Mof_H 	H 	0.9174	0.8962	0.8548	0.04
Mof_H 	H 	0.3265	0.2321	0.4941	0.019
Mof_H 	H 	0.5486	0.2088	0.4495	0.017
Mof_H 	H 	0.3837	0.4069	0.3996	0.045
Mof_H 	H 	0.9642	0.4384	0.2645	-0.004
Mof_H 	H 	0.7822	0.4542	0.4004	0.035
Mof_H 	H 	0.7912	0.3758	0.2044	0.047
Mof_H 	H 	0.866	0.7362	0.4678	0.002
Mof_H 	H 	0.0667	0.7135	0.3605	0.02
Mof_H 	H 	0.8962	0.9174	0.3548	0.034
Mof_H 	H 	0.7679	0.6735	0.0059	0.019
Mof_H 	H 	0.7912	0.4514	0.0505	0.019
Mof_H 	H 	0.5931	0.6163	0.1004	0.045
Mof_H 	H 	0.5616	0.0358	0.2355	-0.003
Mof_H 	H 	0.5458	0.2178	0.0996	0.036
Mof_H 	H 	0.6242	0.2088	0.2956	0.047
Mof_H 	H 	0.2638	0.134	0.0322	0.009
Mof_H 	H 	0.2865	0.9333	0.1395	0.03
Mof_H 	H 	0.0826	0.1038	0.1452	0.04
Mof_C 	C 	0.5372	0.8748	0.4955	0.556
Mof_C 	C 	0.5585	0.7939	0.5222	-0.211
Mof_C 	C 	0.6357	0.7475	0.5233	0.081
Mof_C 	C 	0.657	0.6728	0.5497	-0.115
Mof_C 	C 	0.7398	0.6248	0.551	0.328
Mof_C 	C 	0.5032	0.7614	0.551	0.042
Mof_C 	C 	0.5228	0.689	0.5792	-0.027
Mof_C 	C 	0.6018	0.6428	0.5799	-0.005
Mof_C 	C 	0.4643	0.6611	0.6099	-0.009
Mof_C 	C 	0.4105	0.6425	0.6328	-0.012
Mof_C 	C 	0.0858	0.5168	0.6017	0.531
Mof_C 	C 	0.1205	0.5461	0.656	-0.195
Mof_C 	C 	0.0834	0.5674	0.7246	0.084
Mof_C 	C 	0.1158	0.596	0.7748	-0.122
Mof_C 	C 	0.0751	0.6173	0.8478	0.374
Mof_C 	C 	0.1912	0.559	0.6435	0.031
Mof_C 	C 	0.2226	0.5904	0.6932	-0.021
Mof_C 	C 	0.1863	0.6065	0.7604	-0.001
Mof_C 	C 	0.2915	0.6067	0.6757	-0.009
Mof_C 	C 	0.3488	0.6236	0.6558	-0.009
Mof_C 	C 	0.9959	0.3703	0.5586	0.526
Mof_C 	C 	0.0278	0.2872	0.5818	-0.198
Mof_C 	C 	0.1025	0.2419	0.56	0.098
Mof_C 	C 	0.1287	0.1645	0.5804	-0.158
Mof_C 	C 	0.2067	0.1143	0.5574	0.418
Mof_C 	C 	0.9825	0.2561	0.6246	0.038
Mof_C 	C 	0.0106	0.1776	0.6464	-0.039
Mof_C 	C 	0.084	0.1332	0.6272	0.016
Mof_C 	C 	0.962	0.1436	0.6938	-0.016
Mof_C 	C 	0.9269	0.1111	0.7273	-0.028
Mof_C 	C 	0.1252	0.4628	0.0045	0.552
Mof_C 	C 	0.2061	0.4415	0.9778	-0.208
Mof_C 	C 	0.2525	0.3643	0.9767	0.079
Mof_C 	C 	0.3272	0.343	0.9503	-0.114
Mof_C 	C 	0.3752	0.2602	0.949	0.328
Mof_C 	C 	0.2386	0.4968	0.949	0.04
Mof_C 	C 	0.311	0.4772	0.9208	-0.026
Mof_C 	C 	0.3572	0.3982	0.9201	-0.006
Mof_C 	C 	0.3389	0.5357	0.8901	-0.009
Mof_C 	C 	0.3575	0.5895	0.8672	-0.011
Mof_C 	C 	0.4832	0.9142	0.8983	0.529
Mof_C 	C 	0.4539	0.8795	0.844	-0.193
Mof_C 	C 	0.4326	0.9166	0.7754	0.083
Mof_C 	C 	0.404	0.8842	0.7252	-0.121
Mof_C 	C 	0.3827	0.9249	0.6522	0.375
Mof_C 	C 	0.441	0.8088	0.8565	0.03
Mof_C 	C 	0.4096	0.7774	0.8068	-0.02
Mof_C 	C 	0.3935	0.8137	0.7396	-0.001
Mof_C 	C 	0.3933	0.7085	0.8243	-0.009
Mof_C 	C 	0.3764	0.6512	0.8442	-0.009
Mof_C 	C 	0.6297	0.0041	0.9414	0.505
Mof_C 	C 	0.7128	0.9722	0.9182	-0.172
Mof_C 	C 	0.7581	0.8975	0.94	0.081
Mof_C 	C 	0.8355	0.8713	0.9196	-0.145
Mof_C 	C 	0.8857	0.7933	0.9426	0.413
Mof_C 	C 	0.7439	0.0175	0.8754	0.009
Mof_C 	C 	0.8224	0.9894	0.8536	-0.017
Mof_C 	C 	0.8668	0.916	0.8728	0
Mof_C 	C 	0.8564	0.038	0.8062	-0.031
Mof_C 	C 	0.8889	0.0731	0.7727	-0.016
Mof_C 	C 	0.4628	0.1252	0.5045	0.556
Mof_C 	C 	0.4415	0.2061	0.4778	-0.211
Mof_C 	C 	0.3643	0.2525	0.4767	0.081
Mof_C 	C 	0.343	0.3272	0.4503	-0.115
Mof_C 	C 	0.2602	0.3752	0.449	0.328
Mof_C 	C 	0.4968	0.2386	0.449	0.042
Mof_C 	C 	0.4772	0.311	0.4208	-0.027
Mof_C 	C 	0.3982	0.3572	0.4201	-0.005
Mof_C 	C 	0.5357	0.3389	0.3901	-0.009
Mof_C 	C 	0.5895	0.3575	0.3672	-0.012
Mof_C 	C 	0.9142	0.4832	0.3983	0.531
Mof_C 	C 	0.8795	0.4539	0.344	-0.195
Mof_C 	C 	0.9166	0.4326	0.2754	0.084
Mof_C 	C 	0.8842	0.404	0.2252	-0.122
Mof_C 	C 	0.9249	0.3827	0.1522	0.374
Mof_C 	C 	0.8088	0.441	0.3565	0.031
Mof_C 	C 	0.7774	0.4096	0.3068	-0.021
Mof_C 	C 	0.8137	0.3935	0.2396	-0.001
Mof_C 	C 	0.7085	0.3933	0.3243	-0.009
Mof_C 	C 	0.6512	0.3764	0.3442	-0.009
Mof_C 	C 	0.0041	0.6297	0.4414	0.526
Mof_C 	C 	0.9722	0.7128	0.4182	-0.198
Mof_C 	C 	0.8975	0.7581	0.44	0.098
Mof_C 	C 	0.8713	0.8355	0.4196	-0.158
Mof_C 	C 	0.7933	0.8857	0.4426	0.418
Mof_C 	C 	0.0175	0.7439	0.3754	0.038
Mof_C 	C 	0.9894	0.8224	0.3536	-0.039
Mof_C 	C 	0.916	0.8668	0.3728	0.016
Mof_C 	C 	0.038	0.8564	0.3062	-0.016
Mof_C 	C 	0.0731	0.8889	0.2727	-0.028
Mof_C 	C 	0.8748	0.5372	0.9955	0.552
Mof_C 	C 	0.7939	0.5585	0.0222	-0.208
Mof_C 	C 	0.7475	0.6357	0.0233	0.079
Mof_C 	C 	0.6728	0.657	0.0497	-0.114
Mof_C 	C 	0.6248	0.7398	0.051	0.328
Mof_C 	C 	0.7614	0.5032	0.051	0.04
Mof_C 	C 	0.689	0.5228	0.0792	-0.026
Mof_C 	C 	0.6428	0.6018	0.0799	-0.006
Mof_C 	C 	0.6611	0.4643	0.1099	-0.009
Mof_C 	C 	0.6425	0.4105	0.1328	-0.011
Mof_C 	C 	0.5168	0.0858	0.1017	0.529
Mof_C 	C 	0.5461	0.1205	0.156	-0.193
Mof_C 	C 	0.5674	0.0834	0.2246	0.083
Mof_C 	C 	0.596	0.1158	0.2748	-0.121
Mof_C 	C 	0.6173	0.0751	0.3478	0.375
Mof_C 	C 	0.559	0.1912	0.1435	0.03
Mof_C 	C 	0.5904	0.2226	0.1932	-0.02
Mof_C 	C 	0.6065	0.1863	0.2604	-0.001
Mof_C 	C 	0.6067	0.2915	0.1757	-0.009
Mof_C 	C 	0.6236	0.3488	0.1558	-0.009
Mof_C 	C 	0.3703	0.9959	0.0586	0.505
Mof_C 	C 	0.2872	0.0278	0.0818	-0.172
Mof_C 	C 	0.2419	0.1025	0.06	0.081
Mof_C 	C 	0.1645	0.1287	0.0804	-0.145
Mof_C 	C 	0.1143	0.2067	0.0574	0.413
Mof_C 	C 	0.2561	0.9825	0.1246	0.009
Mof_C 	C 	0.1776	0.0106	0.1464	-0.017
Mof_C 	C 	0.1332	0.084	0.1272	0
Mof_C 	C 	0.1436	0.962	0.1938	-0.031
Mof_C 	C 	0.1111	0.9269	0.2273	-0.016
Mof_O 	O 	0.4654	0.9118	0.4915	-0.611
Mof_O 	O 	0.588	0.9008	0.4743	-0.603
Mof_O 	O 	0.7883	0.6535	0.523	-0.453
Mof_O 	O 	0.7592	0.558	0.578	-0.453
Mof_O 	O 	0.1224	0.4976	0.5454	-0.537
Mof_O 	O 	0.0186	0.5138	0.6182	-0.591
Mof_O 	O 	0.0983	0.6501	0.889	-0.452
Mof_O 	O 	0.016	0.5974	0.8623	-0.467
Mof_O 	O 	0.9332	0.4092	0.5862	-0.553
Mof_O 	O 	0.0333	0.3965	0.5121	-0.612
Mof_O 	O 	0.244	0.1316	0.5085	-0.504
Mof_O 	O 	0.2372	0.055	0.5934	-0.503
Mof_O 	O 	0.0882	0.5346	0.0085	-0.612
Mof_O 	O 	0.0992	0.412	0.0257	-0.602
Mof_O 	O 	0.3465	0.2117	0.977	-0.454
Mof_O 	O 	0.442	0.2408	0.922	-0.452
Mof_O 	O 	0.5024	0.8776	0.9546	-0.533
Mof_O 	O 	0.4862	0.9814	0.8818	-0.586
Mof_O 	O 	0.3499	0.9017	0.611	-0.454
Mof_O 	O 	0.4026	0.984	0.6377	-0.469
Mof_O 	O 	0.5908	0.0668	0.9138	-0.548
Mof_O 	O 	0.6035	0.9667	0.9879	-0.6
Mof_O 	O 	0.8684	0.756	0.9915	-0.502
Mof_O 	O 	0.945	0.7628	0.9066	-0.501
Mof_O 	O 	0.5346	0.0882	0.5085	-0.611
Mof_O 	O 	0.412	0.0992	0.5257	-0.603
Mof_O 	O 	0.2117	0.3465	0.477	-0.453
Mof_O 	O 	0.2408	0.442	0.422	-0.453
Mof_O 	O 	0.8776	0.5024	0.4546	-0.537
Mof_O 	O 	0.9814	0.4862	0.3818	-0.591
Mof_O 	O 	0.9017	0.3499	0.111	-0.452
Mof_O 	O 	0.984	0.4026	0.1377	-0.467
Mof_O 	O 	0.0668	0.5908	0.4138	-0.553
Mof_O 	O 	0.9667	0.6035	0.4879	-0.612
Mof_O 	O 	0.756	0.8684	0.4915	-0.504
Mof_O 	O 	0.7628	0.945	0.4066	-0.503
Mof_O 	O 	0.9118	0.4654	0.9915	-0.612
Mof_O 	O 	0.9008	0.588	0.9743	-0.602
Mof_O 	O 	0.6535	0.7883	0.023	-0.454
Mof_O 	O 	0.558	0.7592	0.078	-0.452
Mof_O 	O 	0.4976	0.1224	0.0454	-0.533
Mof_O 	O 	0.5138	0.0186	0.1182	-0.586
Mof_O 	O 	0.6501	0.0983	0.389	-0.454
Mof_O 	O 	0.5974	0.016	0.3623	-0.469
Mof_O 	O 	0.4092	0.9332	0.0862	-0.548
Mof_O 	O 	0.3965	0.0333	0.0121	-0.6
Mof_O 	O 	0.1316	0.244	0.0085	-0.502
Mof_O 	O 	0.055	0.2372	0.0934	-0.501
_end
