data_functionalizedCrystal
_audit_creation_method	'EQeq! by Chris Wilmer'
_symmetry_space_group_name_H-M	'P1'
_symmetry_Int_Tables_number	1
_symmetry_cell_setting	triclinic
loop_
_symmetry_equiv_pos_as_xyz
  x,y,z
_cell_length_a	8.9711
_cell_length_b	14.1439
_cell_length_c	19.8782
_cell_angle_alpha	82.151
_cell_angle_beta	82.397
_cell_angle_gamma	74.901
loop_
_atom_site_label
_atom_site_type_symbol
_atom_site_fract_x
_atom_site_fract_y
_atom_site_fract_z
_atom_site_charge
Mof_Zn	Zn	0.38289	0.48184	0.63663	1.21
Mof_Zn	Zn	0.49046	0.02607	0.88311	1.21
Mof_V 	V 	0.9913	0.5599	0.58255	1.306
Mof_V 	V 	0.77908	0.41481	0.69276	1.756
Mof_V 	V 	0.97273	0.19668	0.74761	1.631
Mof_V 	V 	0.83282	0.10977	0.9005	1.835
Mof_V 	V 	0.8439	0.07187	0.06392	1.749
Mof_C 	C 	0.9793	0.5321	0.9315	0.008
Mof_C 	C 	0.9997	0.4326	0.9548	0.005
Mof_C 	C 	0.0182	0.4011	0.024	0.012
Mof_C 	C 	0.393	0.0632	0.5424	0.001
Mof_C 	C 	0.4541	0.9653	0.5665	0.005
Mof_C 	C 	0.5599	0.9016	0.5246	0.033
Mof_C 	C 	0.9512	0.5677	0.8588	-0.062
Mof_H 	H 	0.8827	0.5331	0.8444	0.011
Mof_H 	H 	0.8998	0.6374	0.8553	0.051
Mof_C 	C 	0.3204	0.559	0.7751	0.103
Mof_H 	H 	0.4189	0.5704	0.7702	-0.051
Mof_C 	C 	0.13	0.5149	0.7546	0.118
Mof_H 	H 	0.0635	0.4888	0.7347	-0.106
Mof_C 	C 	0.0023	0.3573	0.9057	-0.06
Mof_H 	H 	0.9317	0.317	0.9252	0.03
Mof_H 	H 	0.9663	0.3919	0.863	0.001
Mof_C 	C 	0.3925	0.2513	0.8594	0.083
Mof_H 	H 	0.493	0.2536	0.8419	-0.05
Mof_C 	C 	0.2024	0.1987	0.9023	0.072
Mof_H 	H 	0.1381	0.1578	0.9212	-0.065
Mof_C 	C 	0.0273	0.2942	0.0512	-0.058
Mof_H 	H 	0.9698	0.2918	0.096	0.024
Mof_H 	H 	0.9781	0.2654	0.0214	0.017
Mof_C 	C 	0.4272	0.1888	0.0416	0.093
Mof_H 	H 	0.5307	0.1883	0.0282	-0.061
Mof_C 	C 	0.2327	0.141	0.0812	0.071
Mof_H 	H 	0.166	0.1021	0.1009	-0.057
Mof_C 	C 	0.2815	0.1309	0.5884	-0.051
Mof_H 	H 	0.1905	0.1646	0.5653	0.021
Mof_H 	H 	0.2481	0.0927	0.6292	-0.014
Mof_C 	C 	0.3052	0.3009	0.6014	0.063
Mof_H 	H 	0.2162	0.3369	0.5817	-0.041
Mof_C 	C 	0.5104	0.2584	0.6495	0.077
Mof_H 	H 	0.5957	0.2627	0.6698	-0.034
Mof_C 	C 	0.3987	0.9246	0.6378	-0.07
Mof_H 	H 	0.2869	0.9486	0.6458	0.024
Mof_H 	H 	0.4228	0.8533	0.6407	0.056
Mof_C 	C 	0.4092	0.9897	0.7477	0.097
Mof_H 	H 	0.3032	0.0073	0.7609	-0.11
Mof_C 	C 	0.6467	0.9668	0.7425	0.107
Mof_H 	H 	0.7445	0.9647	0.7543	-0.059
Mof_C 	C 	0.635	0.7986	0.5539	-0.118
Mof_H 	H 	0.7308	0.7737	0.5259	0.091
Mof_H 	H 	0.6611	0.8007	0.5994	0.084
Mof_N 	N 	0.4396	0.6035	0.5808	-0.278
Mof_N 	N 	0.4103	0.7495	0.5202	-0.096
Mof_N 	N 	0.0971	0.5523	0.8125	-0.106
Mof_N 	N 	0.222	0.5805	0.8279	-0.113
Mof_N 	N 	0.2697	0.5191	0.7283	-0.293
Mof_N 	N 	0.1576	0.2939	0.8922	-0.105
Mof_N 	N 	0.2776	0.3313	0.8639	-0.11
Mof_N 	N 	0.3529	0.1671	0.8818	-0.278
Mof_N 	N 	0.1879	0.2348	0.0563	-0.098
Mof_N 	N 	0.3121	0.2672	0.0298	-0.098
Mof_N 	N 	0.3831	0.1114	0.0741	-0.275
Mof_N 	N 	0.3548	0.2039	0.6075	-0.105
Mof_N 	N 	0.4854	0.1749	0.6399	-0.107
Mof_N 	N 	0.401	0.3385	0.6274	-0.28
Mof_N 	N 	0.4717	0.9536	0.6904	-0.102
Mof_N 	N 	0.628	0.9405	0.6865	-0.108
Mof_N 	N 	0.5163	0.9978	0.7839	-0.301
Mof_N 	N 	0.5328	0.73	0.5575	-0.09
Mof_C 	C 	0.547	0.6454	0.5914	0.096
Mof_H 	H 	0.6243	0.617	0.6201	-0.055
Mof_C 	C 	0.3597	0.67	0.5363	0.094
Mof_H 	H 	0.2749	0.6606	0.5182	-0.03
Mof_O 	O 	0.1768	0.5179	0.5873	-0.879
Mof_O 	O 	0.9391	0.5956	0.5091	-0.946
Mof_O 	O 	0.8943	0.4789	0.6326	-0.999
Mof_O 	O 	0.8468	0.2845	0.6944	-0.925
Mof_O 	O 	0.8906	0.1941	0.8361	-0.917
Mof_O 	O 	0.6737	0.08	0.8924	-0.793
Mof_O 	O 	0.9842	0.0034	0.9013	-0.931
Mof_O 	O 	0.8362	0.1474	0.9806	-0.852
Mof_O 	O 	0.704	0.0197	0.0795	-0.845
Mof_O 	O 	0.9429	0.6665	0.6091	-0.511
Mof_O 	O 	0.6012	0.4449	0.6734	-0.773
Mof_V 	V 	0.0131	0.5156	0.56089	1.225
Mof_Zn	Zn	0.61711	0.51816	0.36337	1.209
Mof_Zn	Zn	0.50954	0.97393	0.11689	1.209
Mof_V 	V 	0.0087	0.4401	0.41745	1.305
Mof_V 	V 	0.22092	0.58519	0.30724	1.755
Mof_V 	V 	0.02727	0.80332	0.25239	1.63
Mof_V 	V 	0.16718	0.89023	0.0995	1.834
Mof_V 	V 	0.1561	0.92813	0.93608	1.748
Mof_C 	C 	0.0207	0.4679	0.0685	0.007
Mof_C 	C 	0.0003	0.5674	0.0452	0.005
Mof_C 	C 	0.9818	0.5989	0.976	0.012
Mof_C 	C 	0.607	0.9368	0.4576	0.001
Mof_C 	C 	0.5459	0.0347	0.4335	0.005
Mof_C 	C 	0.4401	0.0984	0.4754	0.033
Mof_C 	C 	0.0488	0.4323	0.1412	-0.062
Mof_H 	H 	0.1173	0.4669	0.1556	0.011
Mof_H 	H 	0.1002	0.3626	0.1447	0.051
Mof_C 	C 	0.6796	0.441	0.2249	0.103
Mof_H 	H 	0.5811	0.4296	0.2298	-0.051
Mof_C 	C 	0.87	0.4851	0.2454	0.118
Mof_H 	H 	0.9365	0.5112	0.2653	-0.106
Mof_C 	C 	0.9977	0.6427	0.0943	-0.06
Mof_H 	H 	0.0683	0.683	0.0748	0.03
Mof_H 	H 	0.0337	0.6081	0.137	0.001
Mof_C 	C 	0.6075	0.7487	0.1406	0.083
Mof_H 	H 	0.507	0.7464	0.1581	-0.05
Mof_C 	C 	0.7976	0.8013	0.0977	0.072
Mof_H 	H 	0.8619	0.8422	0.0788	-0.065
Mof_C 	C 	0.9727	0.7058	0.9488	-0.058
Mof_H 	H 	0.0302	0.7082	0.904	0.024
Mof_H 	H 	0.0219	0.7346	0.9786	0.017
Mof_C 	C 	0.5728	0.8112	0.9584	0.093
Mof_H 	H 	0.4693	0.8117	0.9718	-0.061
Mof_C 	C 	0.7673	0.859	0.9188	0.071
Mof_H 	H 	0.834	0.8979	0.8991	-0.057
Mof_C 	C 	0.7185	0.8691	0.4116	-0.051
Mof_H 	H 	0.8095	0.8354	0.4347	0.021
Mof_H 	H 	0.7519	0.9073	0.3708	-0.014
Mof_C 	C 	0.6948	0.6991	0.3986	0.063
Mof_H 	H 	0.7838	0.6631	0.4183	-0.041
Mof_C 	C 	0.4896	0.7416	0.3505	0.077
Mof_H 	H 	0.4043	0.7373	0.3302	-0.034
Mof_C 	C 	0.6013	0.0754	0.3622	-0.07
Mof_H 	H 	0.7131	0.0514	0.3542	0.024
Mof_H 	H 	0.5772	0.1467	0.3593	0.056
Mof_C 	C 	0.5908	0.0103	0.2523	0.097
Mof_H 	H 	0.6968	0.9927	0.2391	-0.11
Mof_C 	C 	0.3533	0.0332	0.2575	0.107
Mof_H 	H 	0.2555	0.0353	0.2457	-0.059
Mof_C 	C 	0.365	0.2014	0.4461	-0.118
Mof_H 	H 	0.2692	0.2263	0.4741	0.091
Mof_H 	H 	0.3389	0.1993	0.4006	0.084
Mof_N 	N 	0.5604	0.3965	0.4192	-0.278
Mof_N 	N 	0.5897	0.2505	0.4798	-0.096
Mof_N 	N 	0.9029	0.4477	0.1875	-0.106
Mof_N 	N 	0.778	0.4195	0.1721	-0.113
Mof_N 	N 	0.7303	0.4809	0.2717	-0.293
Mof_N 	N 	0.8424	0.7061	0.1078	-0.105
Mof_N 	N 	0.7224	0.6687	0.1361	-0.11
Mof_N 	N 	0.6471	0.8329	0.1182	-0.278
Mof_N 	N 	0.8121	0.7652	0.9437	-0.098
Mof_N 	N 	0.6879	0.7328	0.9702	-0.098
Mof_N 	N 	0.6169	0.8886	0.9259	-0.275
Mof_N 	N 	0.6452	0.7961	0.3925	-0.105
Mof_N 	N 	0.5146	0.8251	0.3601	-0.107
Mof_N 	N 	0.599	0.6615	0.3726	-0.28
Mof_N 	N 	0.5283	0.0464	0.3096	-0.102
Mof_N 	N 	0.372	0.0595	0.3135	-0.108
Mof_N 	N 	0.4837	0.0022	0.2161	-0.301
Mof_N 	N 	0.4672	0.27	0.4425	-0.09
Mof_C 	C 	0.453	0.3546	0.4086	0.096
Mof_H 	H 	0.3757	0.383	0.3799	-0.055
Mof_C 	C 	0.6403	0.33	0.4637	0.094
Mof_H 	H 	0.7251	0.3394	0.4818	-0.03
Mof_O 	O 	0.8232	0.4821	0.4127	-0.879
Mof_O 	O 	0.0609	0.4044	0.4909	-0.946
Mof_O 	O 	0.1057	0.5211	0.3674	-0.999
Mof_O 	O 	0.1532	0.7155	0.3056	-0.925
Mof_O 	O 	0.1094	0.8059	0.1639	-0.917
Mof_O 	O 	0.3263	0.92	0.1076	-0.793
Mof_O 	O 	0.0158	0.9966	0.0987	-0.931
Mof_O 	O 	0.1638	0.8526	0.0194	-0.852
Mof_O 	O 	0.296	0.9803	0.9205	-0.845
Mof_O 	O 	0.0571	0.3335	0.3909	-0.511
Mof_O 	O 	0.3988	0.5551	0.3266	-0.773
Mof_V 	V 	0.9869	0.4844	0.43911	1.225
_end
