data_functionalizedCrystal
_audit_creation_method	'EQeq! by Chris Wilmer'
_symmetry_space_group_name_H-M	'P1'
_symmetry_Int_Tables_number	1
_symmetry_cell_setting	triclinic
loop_
_symmetry_equiv_pos_as_xyz
  x,y,z
_cell_length_a	17.0192
_cell_length_b	27.796
_cell_length_c	9.3238
_cell_angle_alpha	90
_cell_angle_beta	90
_cell_angle_gamma	90
loop_
_atom_site_label
_atom_site_type_symbol
_atom_site_fract_x
_atom_site_fract_y
_atom_site_fract_z
_atom_site_charge
Mof_O 	O 	0.5118	0.23014	0.134	-0.164
Mof_O 	O 	0.9033	0.8245	0.1318	-1.724
Mof_C 	C 	0.7006	0.909	0.1297	0.359
Mof_H 	H 	0.688	0.9307	0.0572	-0.174
Mof_C 	C 	0.77	0.8834	0.1245	-0.451
Mof_H 	H 	0.8012	0.8838	0.0427	-0.021
Mof_C 	C 	0.7402	0.8475	0.1575	1.239
Mof_H 	H 	0.7499	0.8237	0.0897	-0.55
Mof_C 	C 	0.671	0.8708	0.1514	-1.13
Mof_H 	H 	0.6382	0.8648	0.0737	0.383
Mof_O 	O 	0.0118	0.73014	0.134	-11.002
Mof_O 	O 	0.4033	0.3245	0.1318	-0.571
Mof_C 	C 	0.2006	0.409	0.1297	0.196
Mof_H 	H 	0.188	0.4307	0.0572	-0.024
Mof_C 	C 	0.27	0.3834	0.1245	-0.281
Mof_H 	H 	0.3012	0.3838	0.0427	0.152
Mof_C 	C 	0.2402	0.3475	0.1575	0.751
Mof_H 	H 	0.2499	0.3237	0.0897	-0.128
Mof_C 	C 	0.171	0.3708	0.1514	-0.765
Mof_H 	H 	0.1382	0.3648	0.0737	0.407
Mof_O 	O 	0.4882	0.23014	0.366	-0.312
Mof_O 	O 	0.0967	0.8245	0.3682	0.01
Mof_C 	C 	0.2994	0.909	0.3703	-0.05
Mof_H 	H 	0.312	0.9307	0.4428	0.102
Mof_C 	C 	0.23	0.8834	0.3755	0.043
Mof_H 	H 	0.1988	0.8838	0.4573	0.141
Mof_C 	C 	0.2598	0.8475	0.3425	-0.016
Mof_H 	H 	0.2501	0.8237	0.4103	0.118
Mof_C 	C 	0.329	0.8708	0.3486	-0.09
Mof_H 	H 	0.3618	0.8648	0.4263	0.082
Mof_O 	O 	0.9882	0.73014	0.366	9.257
Mof_O 	O 	0.5967	0.3245	0.3682	-0.639
Mof_C 	C 	0.7994	0.409	0.3703	0.351
Mof_H 	H 	0.812	0.4307	0.4428	-0.286
Mof_C 	C 	0.73	0.3834	0.3755	-0.357
Mof_H 	H 	0.6988	0.3838	0.4573	0.089
Mof_C 	C 	0.7598	0.3475	0.3425	0.846
Mof_H 	H 	0.7501	0.3237	0.4103	-0.469
Mof_C 	C 	0.829	0.3708	0.3486	-1.108
Mof_H 	H 	0.8618	0.3648	0.4263	-0.169
Mof_O 	O 	0.5118	0.23014	0.366	-0.164
Mof_O 	O 	0.9033	0.8245	0.3682	-1.731
Mof_C 	C 	0.7006	0.909	0.3703	0.357
Mof_H 	H 	0.688	0.9307	0.4428	-0.177
Mof_C 	C 	0.77	0.8834	0.3755	-0.451
Mof_H 	H 	0.8012	0.8838	0.4573	-0.024
Mof_C 	C 	0.7402	0.8475	0.3425	1.239
Mof_H 	H 	0.7499	0.8237	0.4103	-0.552
Mof_C 	C 	0.671	0.8708	0.3486	-1.13
Mof_H 	H 	0.6382	0.8648	0.4263	0.383
Mof_O 	O 	0.0118	0.73014	0.366	-11.059
Mof_O 	O 	0.4033	0.3245	0.3682	-0.57
Mof_C 	C 	0.2006	0.409	0.3703	0.196
Mof_H 	H 	0.188	0.4307	0.4428	-0.021
Mof_C 	C 	0.27	0.3834	0.3755	-0.281
Mof_H 	H 	0.3012	0.3838	0.4573	0.155
Mof_C 	C 	0.2402	0.3475	0.3425	0.751
Mof_H 	H 	0.2499	0.3237	0.4103	-0.126
Mof_C 	C 	0.171	0.3708	0.3486	-0.766
Mof_H 	H 	0.1382	0.3648	0.4263	0.411
Mof_O 	O 	0.4882	0.23014	0.134	-0.311
Mof_O 	O 	0.0967	0.8245	0.1318	0.005
Mof_C 	C 	0.2994	0.909	0.1297	-0.05
Mof_H 	H 	0.312	0.9307	0.0572	0.1
Mof_C 	C 	0.23	0.8834	0.1245	0.043
Mof_H 	H 	0.1988	0.8838	0.0427	0.137
Mof_C 	C 	0.2598	0.8475	0.1575	-0.015
Mof_H 	H 	0.2501	0.8237	0.0897	0.116
Mof_C 	C 	0.329	0.8708	0.1514	-0.09
Mof_H 	H 	0.3618	0.8648	0.0737	0.081
Mof_O 	O 	0.9882	0.73014	0.134	9.202
Mof_O 	O 	0.5967	0.3245	0.1318	-0.638
Mof_C 	C 	0.7994	0.409	0.1297	0.35
Mof_H 	H 	0.812	0.4307	0.0572	-0.282
Mof_C 	C 	0.73	0.3834	0.1245	-0.355
Mof_H 	H 	0.6988	0.3838	0.0427	0.09
Mof_C 	C 	0.7598	0.3475	0.1575	0.844
Mof_H 	H 	0.7501	0.3237	0.0897	-0.467
Mof_C 	C 	0.829	0.3708	0.1514	-1.108
Mof_H 	H 	0.8618	0.3648	0.0737	-0.163
Mof_Zn	Zn	-1.77384e-32	0.79807	0.07129	1.686
Mof_N 	N 	-2.11033e-32	0.7885	0.8711	0.021
Mof_Zn	Zn	0.5	0.29807	0.07129	1.221
Mof_N 	N 	0.5	0.2885	0.8711	-0.326
Mof_Zn	Zn	-1.91505e-32	0.79807	0.42871	1.691
Mof_N 	N 	-1.87393e-32	0.7885	0.6289	0.026
Mof_Zn	Zn	0.5	0.29807	0.42871	1.221
Mof_N 	N 	0.5	0.2885	0.6289	-0.326
Mof_C 	C 	-2.70753e-32	0.8019	0.75	0.771
Mof_C 	C 	0.5	0.3019	0.75	0.168
Mof_C 	C 	0.5	0.9027	0.25	0.26
Mof_C 	C 	0.5	0.0025	0.25	-0.184
Mof_C 	C 	0.5	0.0557	0.25	0.209
Mof_C 	C 	0.5	0.2098	0.25	0.398
Mof_C 	C 	0.5	0.1561	0.25	-0.214
Mof_N 	N 	0.5	0.8585	0.25	-0.163
Mof_C 	C 	-6.64043e-33	0.4027	0.25	2.277
Mof_C 	C 	-6.64043e-33	0.5025	0.25	1.49
Mof_C 	C 	-1.23636e-32	0.5557	0.25	0.195
Mof_C 	C 	-2.38099e-32	0.7098	0.25	2.88
Mof_C 	C 	-1.23636e-32	0.6561	0.25	-0.766
Mof_N 	N 	-6.64043e-33	0.3585	0.25	-0.109
Mof_C 	C 	0.5	0.0806	0.1231	-0.247
Mof_H 	H 	0.5	0.064	0.0365	0.121
Mof_C 	C 	0.5	0.1303	0.1238	0.131
Mof_H 	H 	0.5	0.1468	0.0369	-0.014
Mof_C 	C 	-1.4055e-32	0.5806	0.1231	-0.14
Mof_H 	H 	-1.5306e-32	0.564	0.0365	0.423
Mof_C 	C 	-1.26228e-32	0.6303	0.1238	0.753
Mof_H 	H 	-5.46852e-33	0.6468	0.0369	0.107
Mof_C 	C 	0.5	0.0806	0.3769	-0.247
Mof_H 	H 	0.5	0.064	0.4635	0.122
Mof_C 	C 	0.5	0.1303	0.3762	0.131
Mof_H 	H 	0.5	0.1468	0.4631	-0.014
Mof_C 	C 	-1.06721e-32	0.5806	0.3769	-0.138
Mof_H 	H 	-1.9079e-32	0.564	0.4635	0.431
Mof_C 	C 	-9.24279e-33	0.6303	0.3762	0.754
Mof_H 	H 	-1.04951e-32	0.6468	0.4631	0.115
Mof_C 	C 	0.5704	0.9273	0.25	-0.383
Mof_C 	C 	0.5716	0.9773	0.25	0.196
Mof_C 	C 	0.647	0.9018	0.25	0.664
Mof_C 	C 	0.793	0.856	0.25	-1.172
Mof_C 	C 	0.8708	0.8321	0.25	0.92
Mof_N 	N 	0.6431	0.0041	0.25	-0.22
Mof_C 	C 	0.0704	0.4273	0.25	-0.726
Mof_C 	C 	0.0716	0.4773	0.25	0.026
Mof_C 	C 	0.147	0.4018	0.25	0.655
Mof_C 	C 	0.293	0.356	0.25	-0.586
Mof_C 	C 	0.3708	0.3321	0.25	0.63
Mof_N 	N 	0.1431	0.5041	0.25	-0.114
Mof_C 	C 	0.4296	0.9273	0.25	-0.19
Mof_C 	C 	0.4284	0.9773	0.25	0.162
Mof_C 	C 	0.353	0.9018	0.25	0.154
Mof_C 	C 	0.207	0.856	0.25	-0.022
Mof_C 	C 	0.1292	0.8321	0.25	0.479
Mof_N 	N 	0.3569	0.0041	0.25	-0.078
Mof_C 	C 	0.9296	0.4273	0.25	-2.196
Mof_C 	C 	0.9284	0.4773	0.25	-1.331
Mof_C 	C 	0.853	0.4018	0.25	0.807
Mof_C 	C 	0.707	0.356	0.25	-0.68
Mof_C 	C 	0.6292	0.3321	0.25	0.628
Mof_N 	N 	0.8569	0.5041	0.25	-0.309
Mof_O 	O 	0.4882	0.76986	0.634	-0.312
Mof_O 	O 	0.0967	0.1755	0.6318	0.01
Mof_C 	C 	0.2994	0.091	0.6297	-0.05
Mof_H 	H 	0.312	0.0693	0.5572	0.102
Mof_C 	C 	0.23	0.1166	0.6245	0.043
Mof_H 	H 	0.1988	0.1162	0.5427	0.141
Mof_C 	C 	0.2598	0.1525	0.6575	-0.016
Mof_H 	H 	0.2501	0.1763	0.5897	0.118
Mof_C 	C 	0.329	0.1292	0.6514	-0.09
Mof_H 	H 	0.3618	0.1352	0.5737	0.082
Mof_O 	O 	0.9882	0.26986	0.634	9.257
Mof_O 	O 	0.5967	0.6755	0.6318	-0.639
Mof_C 	C 	0.7994	0.591	0.6297	0.351
Mof_H 	H 	0.812	0.5693	0.5572	-0.286
Mof_C 	C 	0.73	0.6166	0.6245	-0.357
Mof_H 	H 	0.6988	0.6162	0.5427	0.089
Mof_C 	C 	0.7598	0.6525	0.6575	0.846
Mof_H 	H 	0.7501	0.6763	0.5897	-0.469
Mof_C 	C 	0.829	0.6292	0.6514	-1.108
Mof_H 	H 	0.8618	0.6352	0.5737	-0.169
Mof_O 	O 	0.5118	0.76986	0.866	-0.165
Mof_O 	O 	0.9033	0.1755	0.8682	-1.725
Mof_C 	C 	0.7006	0.091	0.8703	0.358
Mof_H 	H 	0.688	0.0693	0.9428	-0.175
Mof_C 	C 	0.77	0.1166	0.8755	-0.451
Mof_H 	H 	0.8012	0.1162	0.9573	-0.021
Mof_C 	C 	0.7402	0.1525	0.8425	1.239
Mof_H 	H 	0.7499	0.1763	0.9103	-0.55
Mof_C 	C 	0.671	0.1292	0.8486	-1.13
Mof_H 	H 	0.6382	0.1352	0.9263	0.383
Mof_O 	O 	0.0118	0.26986	0.866	-11.002
Mof_O 	O 	0.4033	0.6755	0.8682	-0.571
Mof_C 	C 	0.2006	0.591	0.8703	0.196
Mof_H 	H 	0.188	0.5693	0.9428	-0.024
Mof_C 	C 	0.27	0.6166	0.8755	-0.281
Mof_H 	H 	0.3012	0.6162	0.9573	0.152
Mof_C 	C 	0.2402	0.6525	0.8425	0.751
Mof_H 	H 	0.2499	0.6763	0.9103	-0.128
Mof_C 	C 	0.171	0.6292	0.8486	-0.765
Mof_H 	H 	0.1382	0.6352	0.9263	0.407
Mof_O 	O 	0.4882	0.76986	0.866	-0.311
Mof_O 	O 	0.0967	0.1755	0.8682	0.005
Mof_C 	C 	0.2994	0.091	0.8703	-0.05
Mof_H 	H 	0.312	0.0693	0.9428	0.1
Mof_C 	C 	0.23	0.1166	0.8755	0.043
Mof_H 	H 	0.1988	0.1162	0.9573	0.137
Mof_C 	C 	0.2598	0.1525	0.8425	-0.015
Mof_H 	H 	0.2501	0.1763	0.9103	0.116
Mof_C 	C 	0.329	0.1292	0.8486	-0.09
Mof_H 	H 	0.3618	0.1352	0.9263	0.081
Mof_O 	O 	0.9882	0.26986	0.866	9.202
Mof_O 	O 	0.5967	0.6755	0.8682	-0.638
Mof_C 	C 	0.7994	0.591	0.8703	0.35
Mof_H 	H 	0.812	0.5693	0.9428	-0.282
Mof_C 	C 	0.73	0.6166	0.8755	-0.355
Mof_H 	H 	0.6988	0.6162	0.9573	0.09
Mof_C 	C 	0.7598	0.6525	0.8425	0.844
Mof_H 	H 	0.7501	0.6763	0.9103	-0.467
Mof_C 	C 	0.829	0.6292	0.8486	-1.108
Mof_H 	H 	0.8618	0.6352	0.9263	-0.163
Mof_O 	O 	0.5118	0.76986	0.634	-0.164
Mof_O 	O 	0.9033	0.1755	0.6318	-1.731
Mof_C 	C 	0.7006	0.091	0.6297	0.357
Mof_H 	H 	0.688	0.0693	0.5572	-0.177
Mof_C 	C 	0.77	0.1166	0.6245	-0.451
Mof_H 	H 	0.8012	0.1162	0.5427	-0.024
Mof_C 	C 	0.7402	0.1525	0.6575	1.239
Mof_H 	H 	0.7499	0.1763	0.5897	-0.552
Mof_C 	C 	0.671	0.1292	0.6514	-1.13
Mof_H 	H 	0.6382	0.1352	0.5737	0.383
Mof_O 	O 	0.0118	0.26986	0.634	-11.059
Mof_O 	O 	0.4033	0.6755	0.6318	-0.57
Mof_C 	C 	0.2006	0.591	0.6297	0.196
Mof_H 	H 	0.188	0.5693	0.5572	-0.021
Mof_C 	C 	0.27	0.6166	0.6245	-0.281
Mof_H 	H 	0.3012	0.6162	0.5427	0.155
Mof_C 	C 	0.2402	0.6525	0.6575	0.751
Mof_H 	H 	0.2499	0.6763	0.5897	-0.126
Mof_C 	C 	0.171	0.6292	0.6514	-0.766
Mof_H 	H 	0.1382	0.6352	0.5737	0.411
Mof_Zn	Zn	-7.41127e-33	0.20193	0.57129	1.691
Mof_N 	N 	-3.53011e-33	0.2115	0.3711	0.026
Mof_Zn	Zn	0.5	0.70193	0.57129	1.221
Mof_N 	N 	0.5	0.7115	0.3711	-0.326
Mof_Zn	Zn	-9.53869e-33	0.20193	0.92871	1.686
Mof_N 	N 	-4.743e-33	0.2115	0.1289	0.021
Mof_Zn	Zn	0.5	0.70193	0.92871	1.221
Mof_N 	N 	0.5	0.7115	0.1289	-0.326
Mof_C 	C 	-3.77885e-33	0.1981	0.25	0.771
Mof_C 	C 	0.5	0.6981	0.25	0.168
Mof_C 	C 	0.5	0.0973	0.75	0.26
Mof_C 	C 	0.5	0.9975	0.75	-0.184
Mof_C 	C 	0.5	0.9443	0.75	0.209
Mof_C 	C 	0.5	0.7902	0.75	0.398
Mof_C 	C 	0.5	0.8439	0.75	-0.214
Mof_N 	N 	0.5	0.1415	0.75	-0.163
Mof_C 	C 	7.26372e-33	0.5973	0.75	2.277
Mof_C 	C 	-2.13521e-32	0.4975	0.75	1.49
Mof_C 	C 	-9.90577e-33	0.4443	0.75	0.195
Mof_C 	C 	-9.90577e-33	0.2902	0.75	2.88
Mof_C 	C 	-4.18261e-33	0.3439	0.75	-0.766
Mof_N 	N 	-1.56289e-32	0.6415	0.75	-0.109
Mof_C 	C 	0.5	0.9194	0.6231	-0.247
Mof_H 	H 	0.5	0.936	0.5365	0.122
Mof_C 	C 	0.5	0.8697	0.6238	0.131
Mof_H 	H 	0.5	0.8532	0.5369	-0.014
Mof_C 	C 	-4.44327e-33	0.4194	0.6231	-0.138
Mof_H 	H 	-1.03443e-32	0.436	0.5365	0.431
Mof_C 	C 	-1.30266e-32	0.3697	0.6238	0.754
Mof_H 	H 	-1.89282e-32	0.3532	0.5369	0.115
Mof_C 	C 	0.5	0.9194	0.8769	-0.247
Mof_H 	H 	0.5	0.936	0.9635	0.121
Mof_C 	C 	0.5	0.8697	0.8762	0.131
Mof_H 	H 	0.5	0.8532	0.9631	-0.014
Mof_C 	C 	-1.53683e-32	0.4194	0.8769	-0.14
Mof_H 	H 	-2.09135e-32	0.436	0.9635	0.423
Mof_C 	C 	-1.53697e-32	0.3697	0.8762	0.753
Mof_H 	H 	-3.74489e-33	0.3532	0.9631	0.107
Mof_C 	C 	0.4296	0.0727	0.75	-0.19
Mof_C 	C 	0.4284	0.0227	0.75	0.162
Mof_C 	C 	0.353	0.0982	0.75	0.154
Mof_C 	C 	0.207	0.144	0.75	-0.022
Mof_C 	C 	0.1292	0.1679	0.75	0.479
Mof_N 	N 	0.3569	0.9959	0.75	-0.078
Mof_C 	C 	0.9296	0.5727	0.75	-2.196
Mof_C 	C 	0.9284	0.5227	0.75	-1.331
Mof_C 	C 	0.853	0.5982	0.75	0.807
Mof_C 	C 	0.707	0.644	0.75	-0.68
Mof_C 	C 	0.6292	0.6679	0.75	0.628
Mof_N 	N 	0.8569	0.4959	0.75	-0.309
Mof_C 	C 	0.5704	0.0727	0.75	-0.383
Mof_C 	C 	0.5716	0.0227	0.75	0.196
Mof_C 	C 	0.647	0.0982	0.75	0.664
Mof_C 	C 	0.793	0.144	0.75	-1.172
Mof_C 	C 	0.8708	0.1679	0.75	0.92
Mof_N 	N 	0.6431	0.9959	0.75	-0.22
Mof_C 	C 	0.0704	0.5727	0.75	-0.726
Mof_C 	C 	0.0716	0.5227	0.75	0.026
Mof_C 	C 	0.147	0.5982	0.75	0.655
Mof_C 	C 	0.293	0.644	0.75	-0.586
Mof_C 	C 	0.3708	0.6679	0.75	0.63
Mof_N 	N 	0.1431	0.4959	0.75	-0.114
_end
