data_functionalizedCrystal
_audit_creation_method	'EQeq! by Chris Wilmer'
_symmetry_space_group_name_H-M	'P1'
_symmetry_Int_Tables_number	1
_symmetry_cell_setting	triclinic
loop_
_symmetry_equiv_pos_as_xyz
  x,y,z
_cell_length_a	13.6808
_cell_length_b	12.634
_cell_length_c	12.783
_cell_angle_alpha	90
_cell_angle_beta	116.983
_cell_angle_gamma	90
loop_
_atom_site_label
_atom_site_type_symbol
_atom_site_fract_x
_atom_site_fract_y
_atom_site_fract_z
_atom_site_charge
Mof_F 	F 	0.1883	0.0919	0.1268	-0.546
Mof_F 	F 	0.1671	0.4012	0.1371	-0.533
Mof_Fe	Fe	0.17997	0.24552	0.12799	1.215
Mof_Fe	Fe	0.69209	0.25117	0.30927	1.238
Mof_Fe	Fe	0.26008	0.99938	0.04216	1.01
Mof_Fe	Fe	0.25529	0.49893	0.2887	1.016
Mof_O 	O 	0.2012	0.2304	0.2936	-0.336
Mof_O 	O 	0.1629	0.238	0.4679	-0.358
Mof_O 	O 	0.3416	0.2524	0.1879	-0.341
Mof_O 	O 	0.0199	0.2378	0.0728	-0.322
Mof_O 	O 	0.3118	0.7333	0.848	-0.361
Mof_O 	O 	0.5353	0.2272	0.2403	-0.359
Mof_O 	O 	0.2976	0.7391	0.0339	-0.354
Mof_O 	O 	0.8541	0.2299	0.8787	-0.399
Mof_F 	F 	0.326	0.9027	0.1924	-0.563
Mof_F 	F 	0.2751	0.5993	0.1792	-0.558
Mof_O 	O 	0.3234	0.9095	0.9437	-0.425
Mof_O 	O 	0.8835	0.0897	0.036	-0.326
Mof_O 	O 	0.4054	0.0801	0.1324	-0.301
Mof_O 	O 	0.409	0.4326	0.3265	-0.426
Mof_O 	O 	0.2032	0.4072	0.3873	-0.46
Mof_P 	P 	0.1529	0.2957	0.3584	0.568
Mof_P 	P 	0.3481	0.792	0.9619	0.579
Mof_P 	P 	0.9356	0.1626	0.9811	0.579
Mof_P 	P 	0.4226	0.1983	0.1528	0.497
Mof_H 	H 	0.048	0.308	0.289	-0.457
Mof_H 	H 	0.454	0.7815	0.022	-0.444
Mof_H 	H 	0.99	0.104	0.94	-1.35
Mof_H 	H 	0.404	0.234	0.048	-0.027
Mof_H 	H 	0.435	0.414	0.283	0.308
Mof_O 	O 	0.03	0.306	0.269	0.377
Mof_O 	O 	0.468	0.767	0.023	0.404
Mof_O 	O 	0.972	0.105	0.903	1.458
Mof_F 	F 	0.8117	0.5919	0.3732	-0.551
Mof_F 	F 	0.8329	0.9012	0.3629	-0.533
Mof_Fe	Fe	0.82003	0.74552	0.37201	1.214
Mof_Fe	Fe	0.30791	0.75117	0.19073	1.237
Mof_Fe	Fe	0.73992	0.49938	0.45784	1.029
Mof_Fe	Fe	0.74471	0.99893	0.2113	1.012
Mof_O 	O 	0.7988	0.7304	0.2064	-0.336
Mof_O 	O 	0.8371	0.738	0.0321	-0.358
Mof_O 	O 	0.6584	0.7524	0.3121	-0.341
Mof_O 	O 	0.9801	0.7378	0.4272	-0.326
Mof_O 	O 	0.6882	0.2333	0.652	-0.361
Mof_O 	O 	0.4647	0.7272	0.2597	-0.36
Mof_O 	O 	0.7024	0.2391	0.4661	-0.349
Mof_O 	O 	0.1459	0.7299	0.6213	-0.398
Mof_F 	F 	0.674	0.4027	0.3076	-0.562
Mof_F 	F 	0.7249	0.0993	0.3208	-0.556
Mof_O 	O 	0.6766	0.4095	0.5563	-0.432
Mof_O 	O 	0.1165	0.5897	0.464	-0.34
Mof_O 	O 	0.5946	0.5801	0.3676	-0.307
Mof_O 	O 	0.591	0.9326	0.1735	-0.428
Mof_O 	O 	0.7968	0.9072	0.1127	-0.459
Mof_P 	P 	0.8471	0.7957	0.1416	0.568
Mof_P 	P 	0.6519	0.292	0.5381	0.571
Mof_P 	P 	0.0644	0.6626	0.5189	0.592
Mof_P 	P 	0.5774	0.6983	0.3472	0.497
Mof_H 	H 	0.952	0.808	0.211	-0.455
Mof_H 	H 	0.546	0.2815	0.478	-0.442
Mof_H 	H 	0.01	0.604	0.56	-1.344
Mof_H 	H 	0.596	0.734	0.452	-0.029
Mof_H 	H 	0.565	0.914	0.217	0.308
Mof_O 	O 	0.97	0.806	0.231	0.377
Mof_O 	O 	0.532	0.267	0.477	0.406
Mof_O 	O 	0.028	0.605	0.597	1.454
Mof_F 	F 	0.8117	0.9081	0.8732	-0.547
Mof_F 	F 	0.8329	0.5988	0.8629	-0.534
Mof_Fe	Fe	0.82003	0.75448	0.87201	1.215
Mof_Fe	Fe	0.30791	0.74883	0.69073	1.238
Mof_Fe	Fe	0.73992	0.00062	0.95784	1.01
Mof_Fe	Fe	0.74471	0.50107	0.7113	1.016
Mof_O 	O 	0.7988	0.7696	0.7064	-0.336
Mof_O 	O 	0.8371	0.762	0.5321	-0.358
Mof_O 	O 	0.6584	0.7476	0.8121	-0.341
Mof_O 	O 	0.9801	0.7622	0.9272	-0.322
Mof_O 	O 	0.6882	0.2667	0.152	-0.361
Mof_O 	O 	0.4647	0.7728	0.7597	-0.359
Mof_O 	O 	0.7024	0.2609	0.9661	-0.354
Mof_O 	O 	0.1459	0.7701	0.1213	-0.399
Mof_F 	F 	0.674	0.0973	0.8076	-0.563
Mof_F 	F 	0.7249	0.4007	0.8208	-0.558
Mof_O 	O 	0.6766	0.0905	0.0563	-0.425
Mof_O 	O 	0.1165	0.9103	0.964	-0.326
Mof_O 	O 	0.5946	0.9199	0.8676	-0.301
Mof_O 	O 	0.591	0.5674	0.6735	-0.426
Mof_O 	O 	0.7968	0.5928	0.6127	-0.46
Mof_P 	P 	0.8471	0.7043	0.6416	0.568
Mof_P 	P 	0.6519	0.208	0.0381	0.579
Mof_P 	P 	0.0644	0.8374	0.0189	0.579
Mof_P 	P 	0.5774	0.8017	0.8472	0.497
Mof_H 	H 	0.952	0.692	0.711	-0.457
Mof_H 	H 	0.546	0.2185	0.978	-0.444
Mof_H 	H 	0.01	0.896	0.06	-1.35
Mof_H 	H 	0.596	0.766	0.952	-0.027
Mof_H 	H 	0.565	0.586	0.717	0.308
Mof_O 	O 	0.97	0.694	0.731	0.377
Mof_O 	O 	0.532	0.233	0.977	0.404
Mof_O 	O 	0.028	0.895	0.097	1.458
Mof_F 	F 	0.1883	0.4081	0.6268	-0.551
Mof_F 	F 	0.1671	0.0988	0.6371	-0.533
Mof_Fe	Fe	0.17997	0.25448	0.62799	1.214
Mof_Fe	Fe	0.69209	0.24883	0.80927	1.237
Mof_Fe	Fe	0.26008	0.50062	0.54216	1.029
Mof_Fe	Fe	0.25529	0.00107	0.7887	1.012
Mof_O 	O 	0.2012	0.2696	0.7936	-0.336
Mof_O 	O 	0.1629	0.262	0.9679	-0.358
Mof_O 	O 	0.3416	0.2476	0.6879	-0.341
Mof_O 	O 	0.0199	0.2622	0.5728	-0.326
Mof_O 	O 	0.3118	0.7667	0.348	-0.361
Mof_O 	O 	0.5353	0.2728	0.7403	-0.36
Mof_O 	O 	0.2976	0.7609	0.5339	-0.349
Mof_O 	O 	0.8541	0.2701	0.3787	-0.398
Mof_F 	F 	0.326	0.5973	0.6924	-0.562
Mof_F 	F 	0.2751	0.9007	0.6792	-0.556
Mof_O 	O 	0.3234	0.5905	0.4437	-0.432
Mof_O 	O 	0.8835	0.4103	0.536	-0.34
Mof_O 	O 	0.4054	0.4199	0.6324	-0.307
Mof_O 	O 	0.409	0.0674	0.8265	-0.428
Mof_O 	O 	0.2032	0.0928	0.8873	-0.459
Mof_P 	P 	0.1529	0.2043	0.8584	0.568
Mof_P 	P 	0.3481	0.708	0.4619	0.571
Mof_P 	P 	0.9356	0.3374	0.4811	0.592
Mof_P 	P 	0.4226	0.3017	0.6528	0.497
Mof_H 	H 	0.048	0.192	0.789	-0.455
Mof_H 	H 	0.454	0.7185	0.522	-0.442
Mof_H 	H 	0.99	0.396	0.44	-1.344
Mof_H 	H 	0.404	0.266	0.548	-0.029
Mof_H 	H 	0.435	0.086	0.783	0.308
Mof_O 	O 	0.03	0.194	0.769	0.377
Mof_O 	O 	0.468	0.733	0.523	0.406
Mof_O 	O 	0.972	0.395	0.403	1.454
_end
