data_functionalizedCrystal
_audit_creation_method	'EQeq! by Chris Wilmer'
_symmetry_space_group_name_H-M	'P1'
_symmetry_Int_Tables_number	1
_symmetry_cell_setting	triclinic
loop_
_symmetry_equiv_pos_as_xyz
  x,y,z
_cell_length_a	7.7745
_cell_length_b	11.4635
_cell_length_c	13.5377
_cell_angle_alpha	96.803
_cell_angle_beta	105.71
_cell_angle_gamma	99.225
loop_
_atom_site_label
_atom_site_type_symbol
_atom_site_fract_x
_atom_site_fract_y
_atom_site_fract_z
_atom_site_charge
Mof_V 	V 	0.85757	0.67661	0.97477	1.86
Mof_V 	V 	0.79445	0.41953	0.86044	1.739
Mof_V 	V 	0.14243	0.32339	0.02523	1.792
Mof_V 	V 	0.20555	0.58047	0.13956	1.729
Mof_Co	Co	0.5	0.5	-0	1.106
Mof_Co	Co	-0	0	-0	1.018
Mof_H 	H 	0.0781	0.8639	0.8184	-0.023
Mof_H 	H 	0.082	0.8736	0.6513	0.073
Mof_H 	H 	0.8729	0.1707	0.6676	0.055
Mof_H 	H 	0.8687	0.1488	0.8335	-0.051
Mof_H 	H 	0.9492	0.1077	0.5105	0.067
Mof_H 	H 	0.6633	0.6557	0.2173	-0.035
Mof_H 	H 	0.8195	0.642	0.3866	0.057
Mof_H 	H 	0.9136	0.3275	0.2734	0.068
Mof_H 	H 	0.7308	0.341	0.1136	-0.042
Mof_H 	H 	0.0591	0.4057	0.4573	-0.025
Mof_H 	H 	0.9219	0.1361	0.1816	-0.031
Mof_H 	H 	0.918	0.1264	0.3487	0.084
Mof_H 	H 	0.1271	0.8293	0.3324	0.057
Mof_H 	H 	0.1313	0.8512	0.1665	-0.095
Mof_H 	H 	0.0508	0.8923	0.4895	0.032
Mof_H 	H 	0.3367	0.3443	0.7827	-0.031
Mof_H 	H 	0.1805	0.358	0.6134	0.08
Mof_H 	H 	0.0864	0.6725	0.7266	0.096
Mof_H 	H 	0.2692	0.659	0.8864	0.008
Mof_H 	H 	0.9409	0.5943	0.5427	0.117
Mof_C 	C 	0.0361	0.92622	0.78735	0.118
Mof_C 	C 	0.0393	0.93157	0.6869	-0.141
Mof_C 	C 	0.9781	0.02451	0.63882	0.086
Mof_C 	C 	0.9147	0.10696	0.69623	-0.183
Mof_C 	C 	0.9142	0.09375	0.79664	0.085
Mof_C 	C 	0.9798	0.0382	0.53305	-0.166
Mof_C 	C 	0.7091	0.58707	0.23002	0.024
Mof_C 	C 	0.8074	0.5807	0.3322	-0.137
Mof_C 	C 	0.8868	0.4816	0.3514	0.021
Mof_C 	C 	0.8591	0.3937	0.2655	-0.147
Mof_C 	C 	0.7515	0.4036	0.1685	0.048
Mof_C 	C 	0.9937	0.467	0.45466	0.061
Mof_C 	C 	0.9639	0.07378	0.21265	0.045
Mof_C 	C 	0.9607	0.06843	0.3131	-0.226
Mof_C 	C 	0.0219	0.97549	0.36118	0.137
Mof_C 	C 	0.0853	0.89304	0.30377	-0.195
Mof_C 	C 	0.0858	0.90625	0.20336	0.087
Mof_C 	C 	0.0202	0.9618	0.46695	-0.031
Mof_C 	C 	0.2909	0.41293	0.76998	0.061
Mof_C 	C 	0.1926	0.4193	0.6678	-0.222
Mof_C 	C 	0.1132	0.5184	0.6486	0.16
Mof_C 	C 	0.1409	0.6063	0.7345	-0.225
Mof_C 	C 	0.2485	0.5964	0.8315	0.082
Mof_C 	C 	0.0063	0.533	0.54534	-0.264
Mof_N 	N 	0.9756	0.0061	0.84259	-0.256
Mof_N 	N 	0.6761	0.49765	0.14954	-0.255
Mof_N 	N 	0.0244	0.9939	0.15741	-0.249
Mof_N 	N 	0.3239	0.50235	0.85046	-0.226
Mof_O 	O 	0.65409	0.40366	0.93261	-0.698
Mof_O 	O 	0.65056	0.66348	0.98979	-0.611
Mof_O 	O 	0.00154	0.63258	0.08305	-0.969
Mof_O 	O 	0.93805	0.81564	0.96682	-0.634
Mof_O 	O 	0.84735	0.57848	0.8588	-0.816
Mof_O 	O 	0.34591	0.59634	0.06739	-0.826
Mof_O 	O 	0.34944	0.33652	0.01021	-0.768
Mof_O 	O 	0.99846	0.36742	0.91695	-0.796
Mof_O 	O 	0.06195	0.18436	0.03318	-0.812
Mof_O 	O 	0.15265	0.42152	0.1412	-0.867
_end
