data_functionalizedCrystal
_audit_creation_method	'EQeq! by Chris Wilmer'
_symmetry_space_group_name_H-M	'P1'
_symmetry_Int_Tables_number	1
_symmetry_cell_setting	triclinic
loop_
_symmetry_equiv_pos_as_xyz
  x,y,z
_cell_length_a	21.0818
_cell_length_b	9.4766
_cell_length_c	33.6467
_cell_angle_alpha	90
_cell_angle_beta	126.573
_cell_angle_gamma	90
loop_
_atom_site_label
_atom_site_type_symbol
_atom_site_fract_x
_atom_site_fract_y
_atom_site_fract_z
_atom_site_charge
Mof_Ba	Ba	0.0234	0.31807	0.27788	1.878
Mof_Ba	Ba	0.12985	0.96353	0.36969	1.585
Mof_P 	P 	0.49356	0.2343	0.34615	0.382
Mof_P 	P 	0.4337	0.4427	0.2751	0.37
Mof_P 	P 	0.51167	0.5159	0.37301	0.381
Mof_O 	O 	0.453	0.1103	0.3554	-0.304
Mof_O 	O 	0.3493	0.4786	0.226	-0.291
Mof_O 	O 	0.4795	0.5963	0.3994	-0.314
Mof_O 	O 	0.5934	0.594	0.3981	-0.297
Mof_O 	O 	0.4789	0.467	0.251	-0.276
Mof_O 	O 	0.5642	0.1509	0.3531	-0.308
Mof_O 	O 	0.0944	0.0679	0.2782	-0.611
Mof_O 	O 	0.086	0.96	0.2163	-0.498
Mof_O 	O 	0.0266	0.3973	0.2004	-0.598
Mof_O 	O 	0.0175	0.623	0.1782	-0.638
Mof_O 	O 	0.1115	0.5413	0.2991	-0.57
Mof_O 	O 	0.1272	0.7705	0.3105	-0.617
Mof_O 	O 	0.9061	0.6107	0.6195	-0.565
Mof_O 	O 	0.8322	0.76	0.6265	-0.533
Mof_O 	O 	0.847	0.5929	0.3795	-0.326
Mof_O 	O 	0.8475	0.359	0.3707	-0.441
Mof_O 	O 	0.8732	0.9244	0.5582	-0.565
Mof_O 	O 	0.8812	0.8102	0.5044	-0.456
Mof_N 	N 	0.4387	0.2838	0.2899	-0.185
Mof_N 	N 	0.46	0.5581	0.3166	-0.183
Mof_N 	N 	0.5218	0.354	0.3866	-0.196
Mof_C 	C 	0.3703	0.0957	0.329	0.354
Mof_C 	C 	0.3262	0.0398	0.283	-0.369
Mof_H 	H 	0.3493	0.0163	0.2675	0.178
Mof_C 	C 	0.2452	0.0174	0.2589	0.245
Mof_H 	H 	0.2148	0.9754	0.2278	-0.06
Mof_C 	C 	0.2104	0.0581	0.2817	-0.31
Mof_C 	C 	0.2567	0.1151	0.3286	0.247
Mof_H 	H 	0.2339	0.1418	0.3441	-0.097
Mof_C 	C 	0.3376	0.1327	0.3528	-0.368
Mof_H 	H 	0.3692	0.169	0.3848	0.153
Mof_C 	C 	0.1246	0.028	0.2568	0.446
Mof_C 	C 	0.2807	0.4826	0.2248	0.337
Mof_C 	C 	0.2369	0.3622	0.2126	-0.362
Mof_H 	H 	0.2554	0.2764	0.2098	0.173
Mof_C 	C 	0.1647	0.3709	0.2043	0.238
Mof_H 	H 	0.1349	0.2895	0.1969	-0.069
Mof_C 	C 	0.1355	0.5001	0.207	-0.331
Mof_C 	C 	0.1827	0.6212	0.2209	0.226
Mof_H 	H 	0.1646	0.7077	0.2235	-0.085
Mof_C 	C 	0.2565	0.6109	0.2308	-0.35
Mof_H 	H 	0.2892	0.6895	0.2412	0.165
Mof_C 	C 	0.0552	0.5078	0.1953	0.445
Mof_C 	C 	0.3986	0.6063	0.3774	0.391
Mof_C 	C 	0.3543	0.4842	0.3676	-0.409
Mof_H 	H 	0.377	0.395	0.3748	0.18
Mof_C 	C 	0.2756	0.5018	0.3468	0.312
Mof_H 	H 	0.2446	0.4218	0.3387	-0.086
Mof_C 	C 	0.2403	0.632	0.3374	-0.389
Mof_C 	C 	0.2875	0.7488	0.3489	0.315
Mof_H 	H 	0.2656	0.8382	0.3435	-0.111
Mof_C 	C 	0.366	0.7368	0.3683	-0.43
Mof_H 	H 	0.3963	0.817	0.375	0.193
Mof_C 	C 	0.1538	0.6458	0.3144	0.532
Mof_C 	C 	0.6513	0.6068	0.4499	0.364
Mof_C 	C 	0.6435	0.7069	0.476	-0.373
Mof_H 	H 	0.5979	0.7613	0.4608	0.18
Mof_C 	C 	0.7048	0.7253	0.5256	0.254
Mof_H 	H 	0.7006	0.795	0.5434	-0.086
Mof_C 	C 	0.773	0.6421	0.5497	-0.321
Mof_C 	C 	0.7786	0.544	0.5212	0.249
Mof_H 	H 	0.8243	0.4902	0.536	-0.11
Mof_C 	C 	0.7185	0.524	0.4717	-0.378
Mof_H 	H 	0.723	0.4566	0.4534	0.16
Mof_C 	C 	0.8416	0.672	0.6018	0.424
Mof_C 	C 	0.5623	0.466	0.2831	0.291
Mof_C 	C 	0.6017	0.5926	0.3033	-0.264
Mof_H 	H 	0.5739	0.6756	0.2975	0.151
Mof_C 	C 	0.6839	0.5931	0.3323	0.145
Mof_H 	H 	0.7113	0.6775	0.3454	-0.005
Mof_C 	C 	0.726	0.4656	0.3421	-0.203
Mof_C 	C 	0.6843	0.3423	0.3226	0.162
Mof_H 	H 	0.7116	0.2582	0.3291	-0.012
Mof_C 	C 	0.6022	0.3395	0.2934	-0.283
Mof_H 	H 	0.5748	0.2548	0.281	0.164
Mof_C 	C 	0.8138	0.4733	0.3669	0.37
Mof_C 	C 	0.6311	0.0876	0.3949	0.414
Mof_C 	C 	0.6722	0.1452	0.4412	-0.43
Mof_H 	H 	0.6544	0.2269	0.4469	0.182
Mof_C 	C 	0.7424	0.0784	0.4802	0.31
Mof_H 	H 	0.7698	0.115	0.512	-0.15
Mof_C 	C 	0.7703	0.9635	0.4721	-0.355
Mof_C 	C 	0.7279	0.907	0.425	0.298
Mof_H 	H 	0.7459	0.8258	0.4191	-0.059
Mof_C 	C 	0.6593	0.9705	0.3869	-0.413
Mof_H 	H 	0.6317	0.9327	0.3552	0.209
Mof_C 	C 	0.8461	0.8952	0.5141	0.45
Mof_Ba	Ba	0.00284	0.78476	0.0978	1.53
Mof_Ba	Ba	0.9766	0.81807	0.22212	1.876
Mof_Ba	Ba	0.87015	0.46353	0.13031	1.597
Mof_P 	P 	0.50644	0.7343	0.15385	0.383
Mof_P 	P 	0.5663	0.9427	0.2249	0.37
Mof_P 	P 	0.48833	0.0159	0.12699	0.383
Mof_O 	O 	0.547	0.6103	0.1446	-0.302
Mof_O 	O 	0.6507	0.9786	0.274	-0.29
Mof_O 	O 	0.5205	0.0963	0.1006	-0.314
Mof_O 	O 	0.4066	0.094	0.1019	-0.295
Mof_O 	O 	0.5211	0.967	0.249	-0.275
Mof_O 	O 	0.4358	0.6509	0.1469	-0.308
Mof_O 	O 	0.9056	0.5679	0.2218	-0.612
Mof_O 	O 	0.914	0.46	0.2837	-0.492
Mof_O 	O 	0.9734	0.8973	0.2996	-0.597
Mof_O 	O 	0.9825	0.123	0.3218	-0.637
Mof_O 	O 	0.8885	0.0413	0.2009	-0.57
Mof_O 	O 	0.8728	0.2705	0.1895	-0.618
Mof_O 	O 	0.0939	0.1107	0.8805	-0.565
Mof_O 	O 	0.1678	0.26	0.8735	-0.535
Mof_O 	O 	0.153	0.0929	0.1205	-0.322
Mof_O 	O 	0.1525	0.859	0.1293	-0.44
Mof_O 	O 	0.1268	0.4244	0.9418	-0.568
Mof_O 	O 	0.1188	0.3102	0.9956	-0.457
Mof_N 	N 	0.5613	0.7838	0.2101	-0.185
Mof_N 	N 	0.54	0.0581	0.1834	-0.182
Mof_N 	N 	0.4782	0.854	0.1134	-0.197
Mof_C 	C 	0.6297	0.5957	0.171	0.348
Mof_C 	C 	0.6738	0.5398	0.217	-0.36
Mof_H 	H 	0.6507	0.5163	0.2325	0.174
Mof_C 	C 	0.7548	0.5174	0.2411	0.23
Mof_H 	H 	0.7852	0.4754	0.2722	-0.052
Mof_C 	C 	0.7896	0.5581	0.2183	-0.302
Mof_C 	C 	0.7433	0.6151	0.1714	0.24
Mof_H 	H 	0.7661	0.6418	0.1559	-0.095
Mof_C 	C 	0.6624	0.6327	0.1472	-0.363
Mof_H 	H 	0.6308	0.669	0.1152	0.15
Mof_C 	C 	0.8754	0.528	0.2432	0.437
Mof_C 	C 	0.7193	0.9826	0.2752	0.336
Mof_C 	C 	0.7631	0.8622	0.2874	-0.361
Mof_H 	H 	0.7446	0.7764	0.2902	0.173
Mof_C 	C 	0.8353	0.8709	0.2957	0.238
Mof_H 	H 	0.8651	0.7895	0.3031	-0.07
Mof_C 	C 	0.8645	0.0001	0.293	-0.331
Mof_C 	C 	0.8173	0.1212	0.2791	0.226
Mof_H 	H 	0.8354	0.2077	0.2765	-0.085
Mof_C 	C 	0.7435	0.1109	0.2692	-0.349
Mof_H 	H 	0.7108	0.1895	0.2588	0.165
Mof_C 	C 	0.9448	0.0078	0.3047	0.444
Mof_C 	C 	0.6014	0.1063	0.1226	0.395
Mof_C 	C 	0.6457	0.9842	0.1324	-0.415
Mof_H 	H 	0.623	0.895	0.1252	0.182
Mof_C 	C 	0.7244	0.0018	0.1532	0.317
Mof_H 	H 	0.7554	0.9218	0.1613	-0.088
Mof_C 	C 	0.7597	0.132	0.1626	-0.392
Mof_C 	C 	0.7125	0.2488	0.1511	0.317
Mof_H 	H 	0.7344	0.3382	0.1565	-0.111
Mof_C 	C 	0.634	0.2368	0.1317	-0.433
Mof_H 	H 	0.6037	0.317	0.125	0.195
Mof_C 	C 	0.8462	0.1458	0.1856	0.533
Mof_C 	C 	0.3487	0.1068	0.0501	0.36
Mof_C 	C 	0.3565	0.2069	0.024	-0.37
Mof_H 	H 	0.4021	0.2613	0.0392	0.179
Mof_C 	C 	0.2952	0.2253	0.9744	0.25
Mof_H 	H 	0.2994	0.295	0.9566	-0.086
Mof_C 	C 	0.227	0.1421	0.9503	-0.319
Mof_C 	C 	0.2214	0.044	0.9788	0.245
Mof_H 	H 	0.1757	0.9902	0.964	-0.11
Mof_C 	C 	0.2815	0.024	0.0283	-0.371
Mof_H 	H 	0.277	0.9566	0.0466	0.157
Mof_C 	C 	0.1584	0.172	0.8982	0.424
Mof_C 	C 	0.4377	0.966	0.2169	0.288
Mof_C 	C 	0.3983	0.0926	0.1967	-0.262
Mof_H 	H 	0.4261	0.1756	0.2025	0.151
Mof_C 	C 	0.3161	0.0931	0.1677	0.148
Mof_H 	H 	0.2887	0.1775	0.1546	-0.005
Mof_C 	C 	0.274	0.9656	0.1579	-0.205
Mof_C 	C 	0.3157	0.8423	0.1774	0.161
Mof_H 	H 	0.2884	0.7582	0.1709	-0.012
Mof_C 	C 	0.3978	0.8395	0.2066	-0.282
Mof_H 	H 	0.4252	0.7548	0.219	0.164
Mof_C 	C 	0.1862	0.9733	0.1331	0.365
Mof_C 	C 	0.3689	0.5876	0.1051	0.418
Mof_C 	C 	0.3278	0.6452	0.0588	-0.434
Mof_H 	H 	0.3456	0.7269	0.0531	0.183
Mof_C 	C 	0.2576	0.5784	0.0198	0.318
Mof_H 	H 	0.2302	0.615	0.988	-0.152
Mof_C 	C 	0.2297	0.4635	0.0279	-0.361
Mof_C 	C 	0.2721	0.407	0.075	0.303
Mof_H 	H 	0.2541	0.3258	0.0809	-0.061
Mof_C 	C 	0.3407	0.4705	0.1131	-0.418
Mof_H 	H 	0.3683	0.4327	0.1448	0.211
Mof_C 	C 	0.1539	0.3952	0.9859	0.452
Mof_Ba	Ba	0.99716	0.28476	0.4022	1.532
Mof_Ba	Ba	0.9766	0.68193	0.72212	1.879
Mof_Ba	Ba	0.87015	0.03647	0.63031	1.586
Mof_P 	P 	0.50644	0.7657	0.65385	0.383
Mof_P 	P 	0.5663	0.5573	0.7249	0.371
Mof_P 	P 	0.48833	0.4841	0.62699	0.382
Mof_O 	O 	0.547	0.8897	0.6446	-0.303
Mof_O 	O 	0.6507	0.5214	0.774	-0.29
Mof_O 	O 	0.5205	0.4037	0.6006	-0.313
Mof_O 	O 	0.4066	0.406	0.6019	-0.296
Mof_O 	O 	0.5211	0.533	0.749	-0.275
Mof_O 	O 	0.4358	0.8491	0.6469	-0.308
Mof_O 	O 	0.9056	0.9321	0.7218	-0.611
Mof_O 	O 	0.914	0.04	0.7837	-0.498
Mof_O 	O 	0.9734	0.6027	0.7996	-0.598
Mof_O 	O 	0.9825	0.377	0.8218	-0.638
Mof_O 	O 	0.8885	0.4587	0.7009	-0.57
Mof_O 	O 	0.8728	0.2295	0.6895	-0.617
Mof_O 	O 	0.0939	0.3893	0.3805	-0.565
Mof_O 	O 	0.1678	0.24	0.3735	-0.533
Mof_O 	O 	0.153	0.4071	0.6205	-0.326
Mof_O 	O 	0.1525	0.641	0.6293	-0.441
Mof_O 	O 	0.1268	0.0756	0.4418	-0.565
Mof_O 	O 	0.1188	0.1898	0.4956	-0.456
Mof_N 	N 	0.5613	0.7162	0.7101	-0.185
Mof_N 	N 	0.54	0.4419	0.6834	-0.183
Mof_N 	N 	0.4782	0.646	0.6134	-0.196
Mof_C 	C 	0.6297	0.9043	0.671	0.354
Mof_C 	C 	0.6738	0.9602	0.717	-0.369
Mof_H 	H 	0.6507	0.9837	0.7325	0.178
Mof_C 	C 	0.7548	0.9826	0.7411	0.245
Mof_H 	H 	0.7852	0.0246	0.7722	-0.06
Mof_C 	C 	0.7896	0.9419	0.7183	-0.31
Mof_C 	C 	0.7433	0.8849	0.6714	0.247
Mof_H 	H 	0.7661	0.8582	0.6559	-0.097
Mof_C 	C 	0.6624	0.8673	0.6472	-0.368
Mof_H 	H 	0.6308	0.831	0.6152	0.153
Mof_C 	C 	0.8754	0.972	0.7432	0.446
Mof_C 	C 	0.7193	0.5174	0.7752	0.337
Mof_C 	C 	0.7631	0.6378	0.7874	-0.362
Mof_H 	H 	0.7446	0.7236	0.7902	0.173
Mof_C 	C 	0.8353	0.6291	0.7957	0.238
Mof_H 	H 	0.8651	0.7105	0.8031	-0.069
Mof_C 	C 	0.8645	0.4999	0.793	-0.331
Mof_C 	C 	0.8173	0.3788	0.7791	0.226
Mof_H 	H 	0.8354	0.2923	0.7765	-0.085
Mof_C 	C 	0.7435	0.3891	0.7692	-0.35
Mof_H 	H 	0.7108	0.3105	0.7588	0.165
Mof_C 	C 	0.9448	0.4922	0.8047	0.445
Mof_C 	C 	0.6014	0.3937	0.6226	0.391
Mof_C 	C 	0.6457	0.5158	0.6324	-0.409
Mof_H 	H 	0.623	0.605	0.6252	0.18
Mof_C 	C 	0.7244	0.4982	0.6532	0.312
Mof_H 	H 	0.7554	0.5782	0.6613	-0.086
Mof_C 	C 	0.7597	0.368	0.6626	-0.389
Mof_C 	C 	0.7125	0.2512	0.6511	0.315
Mof_H 	H 	0.7344	0.1618	0.6565	-0.111
Mof_C 	C 	0.634	0.2632	0.6317	-0.43
Mof_H 	H 	0.6037	0.183	0.625	0.193
Mof_C 	C 	0.8462	0.3542	0.6856	0.532
Mof_C 	C 	0.3487	0.3932	0.5501	0.364
Mof_C 	C 	0.3565	0.2931	0.524	-0.373
Mof_H 	H 	0.4021	0.2387	0.5392	0.18
Mof_C 	C 	0.2952	0.2747	0.4744	0.254
Mof_H 	H 	0.2994	0.205	0.4566	-0.086
Mof_C 	C 	0.227	0.3579	0.4503	-0.321
Mof_C 	C 	0.2214	0.456	0.4788	0.249
Mof_H 	H 	0.1757	0.5098	0.464	-0.11
Mof_C 	C 	0.2815	0.476	0.5283	-0.378
Mof_H 	H 	0.277	0.5434	0.5466	0.16
Mof_C 	C 	0.1584	0.328	0.3982	0.424
Mof_C 	C 	0.4377	0.534	0.7169	0.291
Mof_C 	C 	0.3983	0.4074	0.6967	-0.264
Mof_H 	H 	0.4261	0.3244	0.7025	0.151
Mof_C 	C 	0.3161	0.4069	0.6677	0.145
Mof_H 	H 	0.2887	0.3225	0.6546	-0.005
Mof_C 	C 	0.274	0.5344	0.6579	-0.203
Mof_C 	C 	0.3157	0.6577	0.6774	0.162
Mof_H 	H 	0.2884	0.7418	0.6709	-0.012
Mof_C 	C 	0.3978	0.6605	0.7066	-0.283
Mof_H 	H 	0.4252	0.7452	0.719	0.164
Mof_C 	C 	0.1862	0.5267	0.6331	0.37
Mof_C 	C 	0.3689	0.9124	0.6051	0.414
Mof_C 	C 	0.3278	0.8548	0.5588	-0.43
Mof_H 	H 	0.3456	0.7731	0.5531	0.182
Mof_C 	C 	0.2576	0.9216	0.5198	0.31
Mof_H 	H 	0.2302	0.885	0.488	-0.15
Mof_C 	C 	0.2297	0.0365	0.5279	-0.355
Mof_C 	C 	0.2721	0.093	0.575	0.298
Mof_H 	H 	0.2541	0.1742	0.5809	-0.059
Mof_C 	C 	0.3407	0.0295	0.6131	-0.413
Mof_H 	H 	0.3683	0.0673	0.6448	0.209
Mof_C 	C 	0.1539	0.1048	0.4859	0.45
Mof_Ba	Ba	0.99716	0.21524	0.9022	1.53
Mof_Ba	Ba	0.0234	0.18193	0.77788	1.876
Mof_Ba	Ba	0.12985	0.53647	0.86969	1.597
Mof_P 	P 	0.49356	0.2657	0.84615	0.383
Mof_P 	P 	0.4337	0.0573	0.7751	0.37
Mof_P 	P 	0.51167	0.9841	0.87301	0.383
Mof_O 	O 	0.453	0.3897	0.8554	-0.302
Mof_O 	O 	0.3493	0.0214	0.726	-0.29
Mof_O 	O 	0.4795	0.9037	0.8994	-0.314
Mof_O 	O 	0.5934	0.906	0.8981	-0.295
Mof_O 	O 	0.4789	0.033	0.751	-0.275
Mof_O 	O 	0.5642	0.3491	0.8531	-0.308
Mof_O 	O 	0.0944	0.4321	0.7782	-0.612
Mof_O 	O 	0.086	0.54	0.7163	-0.492
Mof_O 	O 	0.0266	0.1027	0.7004	-0.597
Mof_O 	O 	0.0175	0.877	0.6782	-0.637
Mof_O 	O 	0.1115	0.9587	0.7991	-0.57
Mof_O 	O 	0.1272	0.7295	0.8105	-0.618
Mof_O 	O 	0.9061	0.8893	0.1195	-0.565
Mof_O 	O 	0.8322	0.74	0.1265	-0.535
Mof_O 	O 	0.847	0.9071	0.8795	-0.322
Mof_O 	O 	0.8475	0.141	0.8707	-0.44
Mof_O 	O 	0.8732	0.5756	0.0582	-0.568
Mof_O 	O 	0.8812	0.6898	0.0044	-0.457
Mof_N 	N 	0.4387	0.2162	0.7899	-0.185
Mof_N 	N 	0.46	0.9419	0.8166	-0.182
Mof_N 	N 	0.5218	0.146	0.8866	-0.197
Mof_C 	C 	0.3703	0.4043	0.829	0.348
Mof_C 	C 	0.3262	0.4602	0.783	-0.36
Mof_H 	H 	0.3493	0.4837	0.7675	0.174
Mof_C 	C 	0.2452	0.4826	0.7589	0.23
Mof_H 	H 	0.2148	0.5246	0.7278	-0.052
Mof_C 	C 	0.2104	0.4419	0.7817	-0.302
Mof_C 	C 	0.2567	0.3849	0.8286	0.24
Mof_H 	H 	0.2339	0.3582	0.8441	-0.095
Mof_C 	C 	0.3376	0.3673	0.8528	-0.363
Mof_H 	H 	0.3692	0.331	0.8848	0.15
Mof_C 	C 	0.1246	0.472	0.7568	0.437
Mof_C 	C 	0.2807	0.0174	0.7248	0.336
Mof_C 	C 	0.2369	0.1378	0.7126	-0.361
Mof_H 	H 	0.2554	0.2236	0.7098	0.173
Mof_C 	C 	0.1647	0.1291	0.7043	0.238
Mof_H 	H 	0.1349	0.2105	0.6969	-0.07
Mof_C 	C 	0.1355	0.9999	0.707	-0.331
Mof_C 	C 	0.1827	0.8788	0.7209	0.226
Mof_H 	H 	0.1646	0.7923	0.7235	-0.085
Mof_C 	C 	0.2565	0.8891	0.7308	-0.349
Mof_H 	H 	0.2892	0.8105	0.7412	0.165
Mof_C 	C 	0.0552	0.9922	0.6953	0.444
Mof_C 	C 	0.3986	0.8937	0.8774	0.395
Mof_C 	C 	0.3543	0.0158	0.8676	-0.415
Mof_H 	H 	0.377	0.105	0.8748	0.182
Mof_C 	C 	0.2756	0.9982	0.8468	0.317
Mof_H 	H 	0.2446	0.0782	0.8387	-0.088
Mof_C 	C 	0.2403	0.868	0.8374	-0.392
Mof_C 	C 	0.2875	0.7512	0.8489	0.317
Mof_H 	H 	0.2656	0.6618	0.8435	-0.111
Mof_C 	C 	0.366	0.7632	0.8683	-0.433
Mof_H 	H 	0.3963	0.683	0.875	0.195
Mof_C 	C 	0.1538	0.8542	0.8144	0.533
Mof_C 	C 	0.6513	0.8932	0.9499	0.36
Mof_C 	C 	0.6435	0.7931	0.976	-0.37
Mof_H 	H 	0.5979	0.7387	0.9608	0.179
Mof_C 	C 	0.7048	0.7747	0.0256	0.25
Mof_H 	H 	0.7006	0.705	0.0434	-0.086
Mof_C 	C 	0.773	0.8579	0.0497	-0.319
Mof_C 	C 	0.7786	0.956	0.0212	0.245
Mof_H 	H 	0.8243	0.0098	0.036	-0.11
Mof_C 	C 	0.7185	0.976	0.9717	-0.371
Mof_H 	H 	0.723	0.0434	0.9534	0.157
Mof_C 	C 	0.8416	0.828	0.1018	0.424
Mof_C 	C 	0.5623	0.034	0.7831	0.288
Mof_C 	C 	0.6017	0.9074	0.8033	-0.262
Mof_H 	H 	0.5739	0.8244	0.7975	0.151
Mof_C 	C 	0.6839	0.9069	0.8323	0.148
Mof_H 	H 	0.7113	0.8225	0.8454	-0.005
Mof_C 	C 	0.726	0.0344	0.8421	-0.205
Mof_C 	C 	0.6843	0.1577	0.8226	0.161
Mof_H 	H 	0.7116	0.2418	0.8291	-0.012
Mof_C 	C 	0.6022	0.1605	0.7934	-0.282
Mof_H 	H 	0.5748	0.2452	0.781	0.164
Mof_C 	C 	0.8138	0.0267	0.8669	0.365
Mof_C 	C 	0.6311	0.4124	0.8949	0.418
Mof_C 	C 	0.6722	0.3548	0.9412	-0.434
Mof_H 	H 	0.6544	0.2731	0.9469	0.183
Mof_C 	C 	0.7424	0.4216	0.9802	0.318
Mof_H 	H 	0.7698	0.385	0.012	-0.152
Mof_C 	C 	0.7703	0.5365	0.9721	-0.361
Mof_C 	C 	0.7279	0.593	0.925	0.303
Mof_H 	H 	0.7459	0.6742	0.9191	-0.061
Mof_C 	C 	0.6593	0.5295	0.8869	-0.418
Mof_H 	H 	0.6317	0.5673	0.8552	0.211
Mof_C 	C 	0.8461	0.6048	0.0141	0.452
Mof_Ba	Ba	0.00284	0.71524	0.5978	1.532
_end
