data_functionalizedCrystal
_audit_creation_method	'EQeq! by Chris Wilmer'
_symmetry_space_group_name_H-M	'P1'
_symmetry_Int_Tables_number	1
_symmetry_cell_setting	triclinic
loop_
_symmetry_equiv_pos_as_xyz
  x,y,z
_cell_length_a	6.468
_cell_length_b	9.9391
_cell_length_c	9.9391
_cell_angle_alpha	119.448
_cell_angle_beta	105.376
_cell_angle_gamma	74.6243
loop_
_atom_site_label
_atom_site_type_symbol
_atom_site_fract_x
_atom_site_fract_y
_atom_site_fract_z
_atom_site_charge
Mof_Co	Co	0.5	0	-0	1.141
Mof_Co	Co	-0	0.84774	0.84774	1.085
Mof_Co	Co	3.35464e-18	0.15226	0.15226	1.057
Mof_H 	H 	0.6882	0.5778	0.0624	0.029
Mof_H 	H 	0.6155	0.4557	0.8839	0.07
Mof_H 	H 	0.7225	0.6769	0.7953	0.277
Mof_H 	H 	0.9416	0.6735	0.8033	0.242
Mof_H 	H 	0.3118	0.0624	0.5778	-0.034
Mof_H 	H 	0.3845	0.8839	0.4557	0.024
Mof_H 	H 	0.2775	0.7953	0.6769	0.254
Mof_H 	H 	0.0584	0.8033	0.6735	0.071
Mof_H 	H 	0.3118	0.4222	0.9376	0.201
Mof_H 	H 	0.3845	0.5443	0.1161	0.143
Mof_H 	H 	0.2775	0.3231	0.2047	0.248
Mof_H 	H 	0.0584	0.3265	0.1967	0.066
Mof_H 	H 	0.6882	0.9376	0.4222	0.264
Mof_H 	H 	0.6155	0.1161	0.5443	0.19
Mof_H 	H 	0.7225	0.2047	0.3231	0.271
Mof_H 	H 	0.9416	0.1967	0.3265	0.236
Mof_H 	H 	0.1573	0.0821	0.9179	0.299
Mof_H 	H 	0.8427	0.9179	0.0821	0.347
Mof_C 	C 	0.428	0.68191	0.95789	0.35
Mof_C 	C 	0.561	0.54544	0.98696	0.044
Mof_C 	C 	0.572	0.95789	0.68191	0.3
Mof_C 	C 	0.439	0.98696	0.54544	0.073
Mof_C 	C 	0.572	0.31809	0.04211	0.463
Mof_C 	C 	0.439	0.45456	0.01304	-0.498
Mof_C 	C 	0.428	0.04211	0.31809	0.513
Mof_C 	C 	0.561	0.01304	0.45456	-0.527
Mof_O 	O 	0.2255	0.71037	0.95303	-0.46
Mof_O 	O 	0.5329	0.75884	0.93774	-0.403
Mof_O 	O 	0.8215	0.65789	0.73971	-0.519
Mof_O 	O 	0.7745	0.95303	0.71037	-0.28
Mof_O 	O 	0.4671	0.93774	0.75884	-0.404
Mof_O 	O 	0.1785	0.73971	0.65789	-0.555
Mof_O 	O 	0.7745	0.28963	0.04697	-0.37
Mof_O 	O 	0.4671	0.24116	0.06226	-0.505
Mof_O 	O 	0.1785	0.34211	0.26029	-0.553
Mof_O 	O 	0.2255	0.04697	0.28963	-0.549
Mof_O 	O 	0.5329	0.06226	0.24116	-0.504
Mof_O 	O 	0.8215	0.26029	0.34211	-0.518
Mof_O 	O 	0.1683	0.03458	0.96542	-0.834
Mof_O 	O 	0.8317	0.96542	0.03458	-0.745
_end
