data_functionalizedCrystal
_audit_creation_method	'EQeq! by Chris Wilmer'
_symmetry_space_group_name_H-M	'P1'
_symmetry_Int_Tables_number	1
_symmetry_cell_setting	triclinic
loop_
_symmetry_equiv_pos_as_xyz
  x,y,z
_cell_length_a	15.1236
_cell_length_b	15.1236
_cell_length_c	12.042
_cell_angle_alpha	90
_cell_angle_beta	90
_cell_angle_gamma	90
loop_
_atom_site_label
_atom_site_type_symbol
_atom_site_fract_x
_atom_site_fract_y
_atom_site_fract_z
_atom_site_charge
Mof_O 	O 	0.60151	0.28984	0.75676	-0.519
Mof_O 	O 	0.6174	0.37927	0.60963	-0.508
Mof_C 	C 	0.59003	0.36026	0.7024	0.44
Mof_C 	C 	0.54299	0.43307	0.7604	-0.099
Mof_C 	C 	0.54626	0.43256	0.87937	-0.041
Mof_H 	H 	0.57318	0.38162	0.90735	0.071
Mof_O 	O 	0.10151	0.78984	0.25676	-0.528
Mof_O 	O 	0.1174	0.87927	0.10963	-0.522
Mof_C 	C 	0.09003	0.86026	0.2024	0.444
Mof_C 	C 	0.04299	0.93307	0.2604	-0.107
Mof_C 	C 	0.04626	0.93256	0.37937	0.021
Mof_H 	H 	0.07318	0.88162	0.40735	0.035
Mof_O 	O 	0.89849	0.21016	0.25676	-0.528
Mof_O 	O 	0.8826	0.12073	0.10963	-0.526
Mof_C 	C 	0.90997	0.13974	0.2024	0.446
Mof_C 	C 	0.95701	0.06693	0.2604	-0.116
Mof_C 	C 	0.95374	0.06744	0.37937	0.01
Mof_H 	H 	0.92682	0.11838	0.40735	0.037
Mof_O 	O 	0.39849	0.71016	0.75676	-0.515
Mof_O 	O 	0.3826	0.62073	0.60963	-0.508
Mof_C 	C 	0.40997	0.63974	0.7024	0.441
Mof_C 	C 	0.45701	0.56693	0.7604	-0.098
Mof_C 	C 	0.45374	0.56744	0.87937	-0.041
Mof_H 	H 	0.42682	0.61838	0.90735	0.072
Mof_O 	O 	0.71016	0.10151	0.00676	-0.62
Mof_O 	O 	0.62073	0.1174	0.85963	-0.558
Mof_C 	C 	0.63974	0.09003	0.9524	0.657
Mof_C 	C 	0.56693	0.04299	0.0104	-0.407
Mof_C 	C 	0.56744	0.04626	0.12937	0.157
Mof_H 	H 	0.61838	0.07318	0.15735	-0.017
Mof_O 	O 	0.21016	0.60151	0.50676	-0.527
Mof_O 	O 	0.12073	0.6174	0.35963	-0.518
Mof_C 	C 	0.13974	0.59003	0.4524	0.453
Mof_C 	C 	0.06693	0.54299	0.5104	-0.137
Mof_C 	C 	0.06744	0.54626	0.62937	0.025
Mof_H 	H 	0.11838	0.57318	0.65735	0.032
Mof_O 	O 	0.78984	0.39849	0.50676	-0.525
Mof_O 	O 	0.87927	0.3826	0.35963	-0.515
Mof_C 	C 	0.86026	0.40997	0.4524	0.452
Mof_C 	C 	0.93307	0.45701	0.5104	-0.129
Mof_C 	C 	0.93256	0.45374	0.62937	0.035
Mof_H 	H 	0.88162	0.42682	0.65735	0.03
Mof_O 	O 	0.28984	0.89849	0.00676	-0.618
Mof_O 	O 	0.37927	0.8826	0.85963	-0.551
Mof_C 	C 	0.36026	0.90997	0.9524	0.66
Mof_C 	C 	0.43307	0.95701	0.0104	-0.392
Mof_C 	C 	0.43256	0.95374	0.12937	0.179
Mof_H 	H 	0.38162	0.92682	0.15735	-0.021
Mof_O 	O 	0.89849	0.28984	0.99324	-0.42
Mof_O 	O 	0.8826	0.37927	0.14037	-0.461
Mof_C 	C 	0.90997	0.36026	0.0476	0.229
Mof_C 	C 	0.95701	0.43307	0.9896	0.182
Mof_C 	C 	0.95374	0.43256	0.87063	-0.159
Mof_H 	H 	0.92682	0.38162	0.84265	0.099
Mof_O 	O 	0.39849	0.78984	0.49324	-0.521
Mof_O 	O 	0.3826	0.87927	0.64037	-0.498
Mof_C 	C 	0.40997	0.86026	0.5476	0.436
Mof_C 	C 	0.45701	0.93307	0.4896	-0.082
Mof_C 	C 	0.45374	0.93256	0.37063	-0.013
Mof_H 	H 	0.42682	0.88162	0.34265	0.047
Mof_O 	O 	0.60151	0.21016	0.49324	-0.524
Mof_O 	O 	0.6174	0.12073	0.64037	-0.505
Mof_C 	C 	0.59003	0.13974	0.5476	0.438
Mof_C 	C 	0.54299	0.06693	0.4896	-0.101
Mof_C 	C 	0.54626	0.06744	0.37063	-0.034
Mof_H 	H 	0.57318	0.11838	0.34265	0.05
Mof_O 	O 	0.10151	0.71016	0.99324	-0.421
Mof_O 	O 	0.1174	0.62073	0.14037	-0.464
Mof_C 	C 	0.09003	0.63974	0.0476	0.23
Mof_C 	C 	0.04299	0.56693	0.9896	0.173
Mof_C 	C 	0.04626	0.56744	0.87063	-0.169
Mof_H 	H 	0.07318	0.61838	0.84265	0.101
Mof_O 	O 	0.78984	0.10151	0.74324	-0.519
Mof_O 	O 	0.87927	0.1174	0.89037	-0.484
Mof_C 	C 	0.86026	0.09003	0.7976	0.436
Mof_C 	C 	0.93307	0.04299	0.7396	-0.094
Mof_C 	C 	0.93256	0.04626	0.62063	-0.001
Mof_H 	H 	0.88162	0.07318	0.59265	0.041
Mof_O 	O 	0.28984	0.60151	0.24324	-0.534
Mof_O 	O 	0.37927	0.6174	0.39037	-0.514
Mof_C 	C 	0.36026	0.59003	0.2976	0.457
Mof_C 	C 	0.43307	0.54299	0.2396	-0.149
Mof_C 	C 	0.43256	0.54626	0.12063	0.034
Mof_H 	H 	0.38162	0.57318	0.09265	0.012
Mof_O 	O 	0.71016	0.39849	0.24324	-0.533
Mof_O 	O 	0.62073	0.3826	0.39037	-0.515
Mof_C 	C 	0.63974	0.40997	0.2976	0.457
Mof_C 	C 	0.56693	0.45701	0.2396	-0.148
Mof_C 	C 	0.56744	0.45374	0.12063	0.033
Mof_H 	H 	0.61838	0.42682	0.09265	0.013
Mof_O 	O 	0.21016	0.89849	0.74324	-0.515
Mof_O 	O 	0.12073	0.8826	0.89037	-0.48
Mof_C 	C 	0.13974	0.90997	0.7976	0.435
Mof_C 	C 	0.06693	0.95701	0.7396	-0.083
Mof_C 	C 	0.06744	0.95374	0.62063	0.01
Mof_H 	H 	0.11838	0.92682	0.59265	0.04
Mof_V 	V 	0.6908	0.3092	0.5	1.804
Mof_V 	V 	0.1908	0.8092	-0	1.781
Mof_V 	V 	0.8092	0.1908	-0	1.781
Mof_V 	V 	0.3092	0.6908	0.5	1.804
Mof_V 	V 	0.6908	0.1908	0.75	1.807
Mof_V 	V 	0.1908	0.6908	0.25	1.802
Mof_V 	V 	0.8092	0.3092	0.25	1.802
Mof_V 	V 	0.3092	0.8092	0.75	1.807
Mof_O 	O 	0.74625	0.25	0.625	-0.83
Mof_H 	H 	0.806	0.25	0.625	0.257
Mof_O 	O 	0.24625	0.75	0.125	-0.838
Mof_H 	H 	0.306	0.75	0.125	0.253
Mof_O 	O 	0.75375	0.25	0.125	-0.838
Mof_H 	H 	0.694	0.25	0.125	0.252
Mof_O 	O 	0.25375	0.75	0.625	-0.83
Mof_H 	H 	0.194	0.75	0.625	0.257
Mof_O 	O 	0.75	0.24625	0.875	-0.814
Mof_H 	H 	0.75	0.306	0.875	0.262
Mof_O 	O 	0.25	0.74625	0.375	-0.83
Mof_H 	H 	0.25	0.806	0.375	0.259
Mof_O 	O 	0.75	0.25375	0.375	-0.83
Mof_H 	H 	0.75	0.194	0.375	0.257
Mof_O 	O 	0.25	0.75375	0.875	-0.814
Mof_H 	H 	0.25	0.694	0.875	0.261
Mof_C 	C 	0.5	0.5	0.7038	0.054
Mof_C 	C 	0.5	0.5	0.93619	0.092
Mof_H 	H 	0.5	0.5	0.6266	0.052
Mof_C 	C 	6.08428e-34	1.14565e-33	0.2038	0.032
Mof_C 	C 	1.30221e-33	0	0.43619	-0.034
Mof_H 	H 	3.77954e-34	0	0.1266	0.037
Mof_C 	C 	0.5	0	0.9538	0.41
Mof_C 	C 	0.5	0	0.18619	-0.141
Mof_H 	H 	0.5	0	0.8766	-0.068
Mof_C 	C 	-7.81041e-33	0.5	0.4538	0.075
Mof_C 	C 	-7.11662e-33	0.5	0.68619	-0.056
Mof_H 	H 	1.12431e-33	0.5	0.3766	0.035
Mof_C 	C 	-1.58055e-33	0.5	0.0462	-0.314
Mof_C 	C 	2.42956e-33	0.5	0.81381	0.115
Mof_H 	H 	-1.9229e-33	0.5	0.1234	0.164
Mof_C 	C 	0.5	0	0.5462	0.023
Mof_C 	C 	0.5	-2.2913e-33	0.31381	0.027
Mof_H 	H 	0.5	0	0.6234	0.06
Mof_C 	C 	2.37699e-33	4.58259e-33	0.7962	0.013
Mof_C 	C 	1.68321e-33	0	0.56381	-0.023
Mof_H 	H 	2.60746e-33	0	0.8734	0.067
Mof_C 	C 	0.5	0.5	0.2962	0.095
Mof_C 	C 	0.5	0.5	0.06381	-0.092
Mof_H 	H 	0.5	0.5	0.3734	0.037
_end
