data_functionalizedCrystal
_audit_creation_method	'EQeq! by Chris Wilmer'
_symmetry_space_group_name_H-M	'P1'
_symmetry_Int_Tables_number	1
_symmetry_cell_setting	triclinic
loop_
_symmetry_equiv_pos_as_xyz
  x,y,z
_cell_length_a	14.381
_cell_length_b	16.173
_cell_length_c	21.049
_cell_angle_alpha	89.88
_cell_angle_beta	89.88
_cell_angle_gamma	65.1
loop_
_atom_site_label
_atom_site_type_symbol
_atom_site_fract_x
_atom_site_fract_y
_atom_site_fract_z
_atom_site_charge
Mof_Co	Co	0.80012	0.23484	0.43895	1.163
Mof_Co	Co	0.57241	0.44542	0.43668	1.175
Mof_Co	Co	0.06225	0.94164	0.0652	1.177
Mof_Co	Co	0.30188	0.74291	0.06509	1.167
Mof_Co	Co	0.19988	0.76516	0.56105	1.163
Mof_Co	Co	0.42759	0.55458	0.56332	1.175
Mof_Co	Co	0.93775	0.05836	0.9348	1.176
Mof_Co	Co	0.69812	0.25709	0.93491	1.166
Mof_H 	H 	0.6351	0.0981	0.3705	0.076
Mof_H 	H 	0.437	0.3269	0.2878	0.049
Mof_H 	H 	0.3767	0.2426	0.2259	0.097
Mof_H 	H 	0.4687	0.8941	0.1277	0.095
Mof_H 	H 	0.1959	0.0807	0.1835	0.039
Mof_H 	H 	0.2756	0.1527	0.2409	0.085
Mof_H 	H 	0.8204	0.9769	0.4611	0.08
Mof_H 	H 	0.6066	0.0738	0.5964	0.052
Mof_H 	H 	0.6001	0.9331	0.6021	0.074
Mof_H 	H 	0.7969	0.5716	0.5824	0.101
Mof_H 	H 	0.5259	0.7036	0.4966	0.059
Mof_H 	H 	0.5508	0.8357	0.4963	0.069
Mof_H 	H 	0.9209	0.3527	0.2901	0.069
Mof_H 	H 	0.7755	0.5816	0.3895	0.045
Mof_H 	H 	0.8622	0.6492	0.3345	0.093
Mof_H 	H 	0.1947	0.6168	0.1971	0.069
Mof_H 	H 	0.9075	0.7877	0.155	0.05
Mof_H 	H 	0.8482	0.6971	0.2108	0.08
Mof_H 	H 	0.3235	0.0603	0.9748	0.105
Mof_H 	H 	0.0225	0.204	0.0027	0.062
Mof_H 	H 	0.0456	0.336	0.007	0.07
Mof_H 	H 	0.2924	0.4977	0.0702	0.084
Mof_H 	H 	0.1246	0.5579	0.9128	0.057
Mof_H 	H 	0.1195	0.4178	0.9166	0.073
Mof_H 	H 	0.8326	0.0592	0.3693	-0.011
Mof_H 	H 	0.9499	0.9477	0.3081	0.139
Mof_H 	H 	0.1319	0.0773	0.3185	0.129
Mof_H 	H 	0.01	0.1856	0.3802	0.006
Mof_H 	H 	0.1673	0.9563	0.2391	0.154
Mof_H 	H 	0.1004	0.9008	0.238	0.151
Mof_H 	H 	0.1827	0.8173	0.3247	-0.014
Mof_H 	H 	0.2368	0.8817	0.3385	-0.015
Mof_H 	H 	0.2808	0.7745	0.2263	0.154
Mof_H 	H 	0.3442	0.8265	0.2516	0.156
Mof_H 	H 	0.5736	0.6212	0.3888	-0.017
Mof_H 	H 	0.4824	0.7476	0.3286	0.145
Mof_H 	H 	0.2909	0.638	0.2856	0.145
Mof_H 	H 	0.3891	0.5108	0.3436	-0.003
Mof_H 	H 	0.5099	0.7023	0.1353	-0.025
Mof_H 	H 	0.6349	0.5891	0.1906	0.156
Mof_H 	H 	0.4569	0.4567	0.1934	0.163
Mof_H 	H 	0.3394	0.5721	0.1376	-0.026
Mof_H 	H 	0.6881	0.4515	0.2555	0.18
Mof_H 	H 	0.604	0.417	0.2715	0.18
Mof_H 	H 	0.7432	0.3591	0.1718	-0.046
Mof_H 	H 	0.6479	0.3359	0.1741	-0.044
Mof_H 	H 	0.7944	0.2807	0.2725	0.175
Mof_H 	H 	0.7085	0.2463	0.2624	0.177
Mof_H 	H 	0.0317	0.123	0.115	-0.015
Mof_H 	H 	0.9257	0.2416	0.1761	0.157
Mof_H 	H 	0.7597	0.1023	0.2129	0.153
Mof_H 	H 	0.8704	0.9859	0.1513	-0.007
Mof_H 	H 	0.3649	0.9019	0.6295	0.076
Mof_H 	H 	0.563	0.6731	0.7122	0.049
Mof_H 	H 	0.6233	0.7574	0.7741	0.097
Mof_H 	H 	0.5313	0.1059	0.8723	0.095
Mof_H 	H 	0.8041	0.9193	0.8165	0.039
Mof_H 	H 	0.7244	0.8473	0.7591	0.085
Mof_H 	H 	0.1796	0.0231	0.5389	0.08
Mof_H 	H 	0.3934	0.9262	0.4036	0.052
Mof_H 	H 	0.3999	0.0669	0.3979	0.074
Mof_H 	H 	0.2031	0.4284	0.4176	0.101
Mof_H 	H 	0.4741	0.2964	0.5034	0.059
Mof_H 	H 	0.4492	0.1643	0.5037	0.069
Mof_H 	H 	0.0791	0.6473	0.7099	0.069
Mof_H 	H 	0.2245	0.4184	0.6105	0.045
Mof_H 	H 	0.1378	0.3508	0.6655	0.093
Mof_H 	H 	0.8053	0.3832	0.8029	0.069
Mof_H 	H 	0.0925	0.2123	0.845	0.05
Mof_H 	H 	0.1518	0.3029	0.7892	0.08
Mof_H 	H 	0.6765	0.9397	0.0252	0.105
Mof_H 	H 	0.9775	0.796	0.9973	0.062
Mof_H 	H 	0.9544	0.664	0.993	0.07
Mof_H 	H 	0.7076	0.5023	0.9298	0.084
Mof_H 	H 	0.8754	0.4421	0.0872	0.057
Mof_H 	H 	0.8805	0.5822	0.0834	0.073
Mof_H 	H 	0.1674	0.9408	0.6307	-0.011
Mof_H 	H 	0.0501	0.0523	0.6919	0.139
Mof_H 	H 	0.8681	0.9227	0.6815	0.129
Mof_H 	H 	0.99	0.8144	0.6198	0.006
Mof_H 	H 	0.8327	0.0437	0.7609	0.154
Mof_H 	H 	0.8996	0.0992	0.762	0.151
Mof_H 	H 	0.8173	0.1827	0.6753	-0.014
Mof_H 	H 	0.7632	0.1183	0.6615	-0.015
Mof_H 	H 	0.7192	0.2255	0.7737	0.154
Mof_H 	H 	0.6558	0.1735	0.7484	0.156
Mof_H 	H 	0.4264	0.3788	0.6112	-0.017
Mof_H 	H 	0.5176	0.2524	0.6714	0.145
Mof_H 	H 	0.7091	0.362	0.7144	0.145
Mof_H 	H 	0.6109	0.4892	0.6564	-0.003
Mof_H 	H 	0.4901	0.2977	0.8647	-0.025
Mof_H 	H 	0.3651	0.4109	0.8094	0.156
Mof_H 	H 	0.5431	0.5433	0.8066	0.163
Mof_H 	H 	0.6606	0.4279	0.8624	-0.026
Mof_H 	H 	0.3119	0.5485	0.7445	0.18
Mof_H 	H 	0.396	0.583	0.7285	0.18
Mof_H 	H 	0.2568	0.6409	0.8282	-0.046
Mof_H 	H 	0.3521	0.6641	0.8259	-0.044
Mof_H 	H 	0.2056	0.7193	0.7275	0.175
Mof_H 	H 	0.2915	0.7537	0.7376	0.177
Mof_H 	H 	0.9683	0.877	0.885	-0.015
Mof_H 	H 	0.0743	0.7584	0.8239	0.157
Mof_H 	H 	0.2403	0.8977	0.7871	0.153
Mof_H 	H 	0.1296	0.0141	0.8487	-0.007
Mof_C 	C 	0.4665	0.118	0.2611	0.026
Mof_C 	C 	0.5425	0.0781	0.3075	0.061
Mof_C 	C 	0.5825	0.1277	0.3417	-0.041
Mof_C 	C 	0.5454	0.2215	0.3338	-0.087
Mof_C 	C 	0.466	0.2638	0.2918	0.023
Mof_C 	C 	0.4285	0.2127	0.2552	-0.08
Mof_C 	C 	0.5945	0.2723	0.3708	0.382
Mof_C 	C 	0.4219	0.0682	0.2204	0.028
Mof_C 	C 	0.477	0.9912	0.1837	0.074
Mof_C 	C 	0.4292	0.9462	0.1507	-0.039
Mof_C 	C 	0.3244	0.9769	0.1512	-0.085
Mof_C 	C 	0.2671	0.0566	0.1843	0.023
Mof_C 	C 	0.3155	0.1002	0.2185	-0.082
Mof_C 	C 	0.2743	0.9232	0.1183	0.39
Mof_C 	C 	0.7031	0.8705	0.5343	0.021
Mof_C 	C 	0.7668	0.8863	0.4919	0.068
Mof_C 	C 	0.7745	0.9694	0.4892	-0.046
Mof_C 	C 	0.7147	0.04	0.5279	-0.06
Mof_C 	C 	0.6484	0.0265	0.5701	-0.004
Mof_C 	C 	0.6441	0.9415	0.573	-0.068
Mof_C 	C 	0.7195	0.1311	0.5226	0.331
Mof_C 	C 	0.6884	0.7842	0.5381	0.014
Mof_C 	C 	0.7579	0.7051	0.5663	0.077
Mof_C 	C 	0.7467	0.6245	0.5653	-0.053
Mof_C 	C 	0.6592	0.6237	0.5382	-0.05
Mof_C 	C 	0.5859	0.703	0.5134	-0.009
Mof_C 	C 	0.601	0.7826	0.5134	-0.058
Mof_C 	C 	0.6488	0.5354	0.5339	0.331
Mof_C 	C 	0.9378	0.5467	0.274	0.029
Mof_C 	C 	0.9518	0.4573	0.2615	0.063
Mof_C 	C 	0.9064	0.4134	0.2981	-0.028
Mof_C 	C 	0.8393	0.4595	0.3466	-0.091
Mof_C 	C 	0.822	0.5489	0.3581	0.034
Mof_C 	C 	0.8724	0.5902	0.3239	-0.089
Mof_C 	C 	0.7839	0.4136	0.3827	0.387
Mof_C 	C 	0.9843	0.6	0.2373	0.027
Mof_C 	C 	0.0896	0.5788	0.2337	0.066
Mof_C 	C 	0.1245	0.6334	0.2002	-0.036
Mof_C 	C 	0.0567	0.7126	0.1713	-0.09
Mof_C 	C 	0.9538	0.7352	0.1749	0.026
Mof_C 	C 	0.9185	0.6799	0.2081	-0.083
Mof_C 	C 	0.0987	0.771	0.1357	0.383
Mof_C 	C 	0.1986	0.28	0.9937	0.014
Mof_C 	C 	0.28	0.196	0.9847	0.088
Mof_C 	C 	0.2672	0.1158	0.9809	-0.059
Mof_C 	C 	0.1702	0.1196	0.9864	-0.043
Mof_C 	C 	0.0877	0.2018	0.9974	-0.008
Mof_C 	C 	0.102	0.2808	0.0004	-0.056
Mof_C 	C 	0.1565	0.0327	0.9823	0.319
Mof_C 	C 	0.2054	0.3701	0.9952	0.02
Mof_C 	C 	0.2534	0.3986	0.0413	0.082
Mof_C 	C 	0.2574	0.4819	0.0388	-0.056
Mof_C 	C 	0.21	0.5426	0.99	-0.052
Mof_C 	C 	0.1585	0.5175	0.9454	-0.003
Mof_C 	C 	0.1556	0.4329	0.9476	-0.067
Mof_C 	C 	0.2147	0.6337	0.9895	0.329
Mof_C 	C 	0.8934	0.0633	0.3587	0.145
Mof_C 	C 	0.9638	0.9958	0.3221	-0.254
Mof_C 	C 	0.0547	0.9991	0.306	0.247
Mof_C 	C 	0.0714	0.0722	0.3283	-0.237
Mof_C 	C 	0.9974	0.1374	0.365	0.123
Mof_C 	C 	0.1338	0.9279	0.2656	-0.407
Mof_C 	C 	0.2133	0.854	0.305	0.188
Mof_C 	C 	0.3052	0.7927	0.2644	-0.405
Mof_C 	C 	0.5155	0.6243	0.3676	0.168
Mof_C 	C 	0.4606	0.7012	0.3319	-0.278
Mof_C 	C 	0.3743	0.7081	0.3015	0.278
Mof_C 	C 	0.3489	0.6358	0.3064	-0.268
Mof_C 	C 	0.4075	0.5594	0.3418	0.16
Mof_C 	C 	0.5004	0.6502	0.1448	0.201
Mof_C 	C 	0.5754	0.583	0.1799	-0.334
Mof_C 	C 	0.5627	0.5083	0.1989	0.333
Mof_C 	C 	0.4707	0.5057	0.1813	-0.319
Mof_C 	C 	0.4017	0.5741	0.1467	0.183
Mof_C 	C 	0.6394	0.4314	0.2369	-0.512
Mof_C 	C 	0.696	0.3484	0.2001	0.295
Mof_C 	C 	0.7561	0.2649	0.2405	-0.482
Mof_C 	C 	0.9763	0.1184	0.135	0.175
Mof_C 	C 	0.9126	0.1903	0.1716	-0.287
Mof_C 	C 	0.829	0.1865	0.202	0.305
Mof_C 	C 	0.8148	0.108	0.1934	-0.288
Mof_C 	C 	0.8815	0.0381	0.1562	0.169
Mof_C 	C 	0.5335	0.882	0.7389	0.026
Mof_C 	C 	0.4575	0.9219	0.6925	0.061
Mof_C 	C 	0.4175	0.8723	0.6583	-0.041
Mof_C 	C 	0.4546	0.7785	0.6662	-0.087
Mof_C 	C 	0.534	0.7362	0.7082	0.023
Mof_C 	C 	0.5715	0.7873	0.7448	-0.08
Mof_C 	C 	0.4055	0.7277	0.6292	0.382
Mof_C 	C 	0.5781	0.9318	0.7796	0.028
Mof_C 	C 	0.523	0.0088	0.8163	0.074
Mof_C 	C 	0.5708	0.0538	0.8493	-0.039
Mof_C 	C 	0.6756	0.0231	0.8488	-0.085
Mof_C 	C 	0.7329	0.9434	0.8157	0.023
Mof_C 	C 	0.6845	0.8998	0.7815	-0.082
Mof_C 	C 	0.7257	0.0768	0.8817	0.39
Mof_C 	C 	0.2969	0.1295	0.4657	0.021
Mof_C 	C 	0.2332	0.1137	0.5081	0.068
Mof_C 	C 	0.2255	0.0306	0.5108	-0.046
Mof_C 	C 	0.2853	0.96	0.4721	-0.06
Mof_C 	C 	0.3516	0.9735	0.4299	-0.004
Mof_C 	C 	0.3559	0.0585	0.427	-0.068
Mof_C 	C 	0.2805	0.8689	0.4774	0.331
Mof_C 	C 	0.3116	0.2158	0.4619	0.014
Mof_C 	C 	0.2421	0.2949	0.4337	0.077
Mof_C 	C 	0.2533	0.3755	0.4347	-0.053
Mof_C 	C 	0.3408	0.3763	0.4618	-0.05
Mof_C 	C 	0.4141	0.297	0.4866	-0.009
Mof_C 	C 	0.399	0.2174	0.4866	-0.058
Mof_C 	C 	0.3512	0.4646	0.4661	0.331
Mof_C 	C 	0.0622	0.4533	0.726	0.029
Mof_C 	C 	0.0482	0.5427	0.7385	0.063
Mof_C 	C 	0.0936	0.5866	0.7019	-0.028
Mof_C 	C 	0.1607	0.5405	0.6534	-0.091
Mof_C 	C 	0.178	0.4511	0.6419	0.034
Mof_C 	C 	0.1276	0.4098	0.6761	-0.089
Mof_C 	C 	0.2161	0.5864	0.6173	0.387
Mof_C 	C 	0.0157	0.4	0.7627	0.027
Mof_C 	C 	0.9104	0.4212	0.7663	0.066
Mof_C 	C 	0.8755	0.3666	0.7998	-0.036
Mof_C 	C 	0.9433	0.2874	0.8287	-0.09
Mof_C 	C 	0.0462	0.2648	0.8251	0.026
Mof_C 	C 	0.0815	0.3201	0.7919	-0.083
Mof_C 	C 	0.9013	0.229	0.8643	0.383
Mof_C 	C 	0.8014	0.72	0.0063	0.014
Mof_C 	C 	0.72	0.804	0.0153	0.088
Mof_C 	C 	0.7328	0.8842	0.0191	-0.059
Mof_C 	C 	0.8298	0.8804	0.0136	-0.043
Mof_C 	C 	0.9123	0.7982	0.0026	-0.008
Mof_C 	C 	0.898	0.7192	0.9996	-0.056
Mof_C 	C 	0.8435	0.9673	0.0177	0.319
Mof_C 	C 	0.7946	0.6299	0.0048	0.02
Mof_C 	C 	0.7466	0.6014	0.9587	0.082
Mof_C 	C 	0.7426	0.5181	0.9612	-0.056
Mof_C 	C 	0.79	0.4574	0.01	-0.052
Mof_C 	C 	0.8415	0.4825	0.0546	-0.003
Mof_C 	C 	0.8444	0.5671	0.0524	-0.067
Mof_C 	C 	0.7853	0.3663	0.0105	0.329
Mof_C 	C 	0.1066	0.9367	0.6413	0.145
Mof_C 	C 	0.0362	0.0042	0.6779	-0.254
Mof_C 	C 	0.9453	0.0009	0.694	0.247
Mof_C 	C 	0.9286	0.9278	0.6717	-0.237
Mof_C 	C 	0.0026	0.8626	0.635	0.123
Mof_C 	C 	0.8662	0.0721	0.7344	-0.407
Mof_C 	C 	0.7867	0.146	0.695	0.188
Mof_C 	C 	0.6948	0.2073	0.7356	-0.405
Mof_C 	C 	0.4845	0.3757	0.6324	0.168
Mof_C 	C 	0.5394	0.2988	0.6681	-0.278
Mof_C 	C 	0.6257	0.2919	0.6985	0.278
Mof_C 	C 	0.6511	0.3642	0.6936	-0.268
Mof_C 	C 	0.5925	0.4406	0.6582	0.16
Mof_C 	C 	0.4996	0.3498	0.8552	0.201
Mof_C 	C 	0.4246	0.417	0.8201	-0.334
Mof_C 	C 	0.4373	0.4917	0.8011	0.333
Mof_C 	C 	0.5293	0.4943	0.8187	-0.319
Mof_C 	C 	0.5983	0.4259	0.8533	0.183
Mof_C 	C 	0.3606	0.5686	0.7631	-0.512
Mof_C 	C 	0.304	0.6516	0.7999	0.295
Mof_C 	C 	0.2439	0.7351	0.7595	-0.482
Mof_C 	C 	0.0237	0.8816	0.865	0.175
Mof_C 	C 	0.0874	0.8097	0.8284	-0.287
Mof_C 	C 	0.171	0.8135	0.798	0.305
Mof_C 	C 	0.1852	0.892	0.8066	-0.288
Mof_C 	C 	0.1185	0.9619	0.8438	0.169
Mof_N 	N 	0.5838	0.981	0.3226	-0.009
Mof_N 	N 	0.5902	0.9529	0.1774	0.002
Mof_N 	N 	0.8295	0.8181	0.4452	-0.004
Mof_N 	N 	0.8501	0.7024	0.5979	0.009
Mof_N 	N 	0.0158	0.4055	0.2084	-0.001
Mof_N 	N 	0.1664	0.4994	0.2648	-0.009
Mof_N 	N 	0.3871	0.1839	0.9794	-0.001
Mof_N 	N 	0.3018	0.3412	0.0964	-0.018
Mof_N 	N 	0.9081	0.1348	0.3801	-0.252
Mof_N 	N 	0.4905	0.5542	0.3734	-0.256
Mof_N 	N 	0.9627	0.043	0.1267	-0.258
Mof_N 	N 	0.418	0.6462	0.1242	-0.27
Mof_N 	N 	0.4162	0.019	0.6774	-0.009
Mof_N 	N 	0.4098	0.0471	0.8226	0.002
Mof_N 	N 	0.1705	0.1819	0.5548	-0.004
Mof_N 	N 	0.1499	0.2976	0.4021	0.009
Mof_N 	N 	0.9842	0.5945	0.7916	-0.001
Mof_N 	N 	0.8336	0.5006	0.7352	-0.009
Mof_N 	N 	0.6129	0.8161	0.0206	-0.001
Mof_N 	N 	0.6982	0.6588	0.9036	-0.018
Mof_N 	N 	0.0919	0.8652	0.6199	-0.252
Mof_N 	N 	0.5095	0.4458	0.6266	-0.256
Mof_N 	N 	0.0373	0.957	0.8733	-0.258
Mof_N 	N 	0.582	0.3538	0.8758	-0.27
Mof_O 	O 	0.6818	0.2231	0.3913	-0.442
Mof_O 	O 	0.5464	0.3564	0.3761	-0.443
Mof_O 	O 	0.3331	0.8437	0.103	-0.444
Mof_O 	O 	0.1793	0.9613	0.1118	-0.442
Mof_O 	O 	0.6304	0.0059	0.1828	-0.101
Mof_O 	O 	0.637	0.8734	0.1658	-0.105
Mof_O 	O 	0.6843	0.9422	0.3272	-0.097
Mof_O 	O 	0.5417	0.9353	0.3091	-0.114
Mof_O 	O 	0.7988	0.13	0.4959	-0.394
Mof_O 	O 	0.6468	0.1991	0.543	-0.262
Mof_O 	O 	0.5648	0.5383	0.51139	-0.485
Mof_O 	O 	0.7217	0.4642	0.5513	-0.25
Mof_O 	O 	0.8494	0.7386	0.4543	-0.103
Mof_O 	O 	0.8727	0.8382	0.4017	-0.111
Mof_O 	O 	0.9246	0.6375	0.6005	-0.095
Mof_O 	O 	0.8591	0.7615	0.6193	-0.115
Mof_O 	O 	0.6999	0.4636	0.4071	-0.436
Mof_O 	O 	0.8252	0.3284	0.3846	-0.455
Mof_O 	O 	0.1936	0.741	0.1309	-0.445
Mof_O 	O 	0.0349	0.8453	0.1142	-0.442
Mof_O 	O 	0.0507	0.3212	0.2106	-0.113
Mof_O 	O 	0.0303	0.4469	0.1647	-0.113
Mof_O 	O 	0.1535	0.4324	0.2827	-0.084
Mof_O 	O 	0.2537	0.4983	0.2774	-0.122
Mof_O 	O 	0.0669	0.0374	0.99766	-0.477
Mof_O 	O 	0.2301	0.962	0.9659	-0.251
Mof_O 	O 	0.2884	0.6366	0.0208	-0.403
Mof_O 	O 	0.149	0.6977	0.9594	-0.258
Mof_O 	O 	0.4561	0.1142	0.9944	-0.094
Mof_O 	O 	0.3997	0.25	0.9585	-0.113
Mof_O 	O 	0.3943	0.3436	0.1114	-0.109
Mof_O 	O 	0.3314	0.2576	0.0946	-0.085
Mof_O 	O 	0.6772	0.3362	0.49722	-0.364
Mof_O 	O 	0.1759	0.8368	0.00679	-0.369
Mof_O 	O 	0.3182	0.7769	0.6087	-0.442
Mof_O 	O 	0.4536	0.6436	0.6239	-0.443
Mof_O 	O 	0.6669	0.1563	0.897	-0.444
Mof_O 	O 	0.8207	0.0387	0.8882	-0.442
Mof_O 	O 	0.3696	0.9941	0.8172	-0.101
Mof_O 	O 	0.363	0.1266	0.8342	-0.105
Mof_O 	O 	0.3157	0.0578	0.6728	-0.097
Mof_O 	O 	0.4583	0.0647	0.6909	-0.114
Mof_O 	O 	0.2012	0.87	0.5041	-0.394
Mof_O 	O 	0.3532	0.8009	0.457	-0.262
Mof_O 	O 	0.4352	0.4617	0.48861	-0.485
Mof_O 	O 	0.2783	0.5358	0.4487	-0.25
Mof_O 	O 	0.1506	0.2614	0.5457	-0.103
Mof_O 	O 	0.1273	0.1618	0.5983	-0.111
Mof_O 	O 	0.0754	0.3625	0.3995	-0.095
Mof_O 	O 	0.1409	0.2385	0.3807	-0.115
Mof_O 	O 	0.3001	0.5364	0.5929	-0.436
Mof_O 	O 	0.1748	0.6716	0.6154	-0.455
Mof_O 	O 	0.8064	0.259	0.8691	-0.445
Mof_O 	O 	0.9651	0.1547	0.8858	-0.442
Mof_O 	O 	0.9493	0.6788	0.7894	-0.113
Mof_O 	O 	0.9697	0.5531	0.8353	-0.113
Mof_O 	O 	0.8465	0.5676	0.7173	-0.084
Mof_O 	O 	0.7463	0.5017	0.7226	-0.122
Mof_O 	O 	0.9331	0.9626	0.00234	-0.477
Mof_O 	O 	0.7699	0.038	0.0341	-0.251
Mof_O 	O 	0.7116	0.3634	0.9792	-0.403
Mof_O 	O 	0.851	0.3023	0.0406	-0.258
Mof_O 	O 	0.5439	0.8858	0.0056	-0.094
Mof_O 	O 	0.6003	0.75	0.0415	-0.113
Mof_O 	O 	0.6057	0.6564	0.8886	-0.109
Mof_O 	O 	0.6686	0.7424	0.9054	-0.085
Mof_O 	O 	0.3228	0.6638	0.50278	-0.364
Mof_O 	O 	0.8241	0.1632	0.99321	-0.369
_end
