data_functionalizedCrystal
_audit_creation_method	'EQeq! by Chris Wilmer'
_symmetry_space_group_name_H-M	'P1'
_symmetry_Int_Tables_number	1
_symmetry_cell_setting	triclinic
loop_
_symmetry_equiv_pos_as_xyz
  x,y,z
_cell_length_a	13.395
_cell_length_b	13.5119
_cell_length_c	17.62
_cell_angle_alpha	90
_cell_angle_beta	90
_cell_angle_gamma	90
loop_
_atom_site_label
_atom_site_type_symbol
_atom_site_fract_x
_atom_site_fract_y
_atom_site_fract_z
_atom_site_charge
Mof_Co	Co	0.23366	0.48936	0.42449	1.176
Mof_O 	O 	0.1264	0.5593	0.589	-0.46
Mof_C 	C 	0.0684	0.5575	0.5303	0.36
Mof_Co	Co	0.26945	0.50904	0.5833	1.169
Mof_O 	O 	0.0982	0.531	0.4672	-0.462
Mof_C 	C 	0.8045	0.8201	0.518	0.436
Mof_O 	O 	0.7748	0.8646	0.5756	-0.497
Mof_C 	C 	0.9193	0.5231	0.6079	-0.269
Mof_H 	H 	0.9211	0.4539	0.5954	0.08
Mof_H 	H 	0.8516	0.5428	0.6174	0.086
Mof_H 	H 	0.9588	0.5347	0.6525	0.079
Mof_O 	O 	0.8119	0.8533	0.4513	-0.467
Mof_C 	C 	0.9616	0.5835	0.5416	-0.148
Mof_C 	C 	0.9006	0.5627	0.4719	-0.152
Mof_H 	H 	0.8679	0.4989	0.4767	0.064
Mof_H 	H 	0.9435	0.5609	0.4276	0.08
Mof_C 	C 	0.8223	0.6444	0.463	0.092
Mof_H 	H 	0.8327	0.6804	0.416	0.002
Mof_H 	H 	0.7556	0.6166	0.4627	-0.019
Mof_C 	C 	0.8364	0.712	0.5307	-0.41
Mof_H 	H 	0.7953	0.6857	0.572	0.148
Mof_C 	C 	0.9477	0.6996	0.5549	0.576
Mof_C 	C 	0.9681	0.7367	0.6365	-1.002
Mof_H 	H 	0.0388	0.7412	0.6446	0.314
Mof_H 	H 	0.9397	0.6912	0.6723	0.3
Mof_H 	H 	0.9384	0.8008	0.6432	0.306
Mof_C 	C 	0.0185	0.7559	0.5052	-1.099
Mof_H 	H 	0.0851	0.7495	0.5247	0.353
Mof_H 	H 	0.9998	0.8245	0.5044	0.358
Mof_H 	H 	0.0159	0.7298	0.4545	0.366
Mof_O 	O 	0.7038	0.1528	0.5445	-0.456
Mof_O 	O 	0.7174	0.1327	0.4208	-0.478
Mof_O 	O 	0.4045	0.4597	0.5466	-0.467
Mof_O 	O 	0.3793	0.4525	0.4216	-0.523
Mof_C 	C 	0.6981	0.186	0.4781	0.381
Mof_C 	C 	0.4317	0.448	0.478	0.452
Mof_C 	C 	0.7378	0.3338	0.4028	-0.242
Mof_H 	H 	0.8056	0.3368	0.4202	0.088
Mof_H 	H 	0.7155	0.3991	0.3896	0.077
Mof_H 	H 	0.7339	0.2917	0.359	0.084
Mof_C 	C 	0.6715	0.2921	0.4658	-0.201
Mof_C 	C 	0.6843	0.3556	0.5387	-0.126
Mof_H 	H 	0.6683	0.3166	0.5833	0.065
Mof_H 	H 	0.7527	0.3785	0.5431	0.053
Mof_C 	C 	0.6153	0.4409	0.5322	0.071
Mof_H 	H 	0.6525	0.5012	0.5226	-0.008
Mof_H 	H 	0.5778	0.4492	0.5789	0.013
Mof_C 	C 	0.5431	0.4187	0.4648	-0.432
Mof_H 	H 	0.5673	0.455	0.4203	0.146
Mof_C 	C 	0.5576	0.3062	0.4493	0.699
Mof_C 	C 	0.531	0.2831	0.3695	-1.242
Mof_H 	H 	0.4657	0.3087	0.3586	0.39
Mof_H 	H 	0.5312	0.2127	0.3623	0.379
Mof_H 	H 	0.5788	0.313	0.336	0.373
Mof_C 	C 	0.4947	0.2429	0.5026	-1.219
Mof_H 	H 	0.4252	0.2569	0.4944	0.393
Mof_H 	H 	0.5119	0.2577	0.5542	0.403
Mof_H 	H 	0.5073	0.1741	0.4926	0.387
Mof_O 	O 	0.3134	0.5226	0.6927	-0.516
Mof_O 	O 	0.3095	0.525	0.8163	-0.537
Mof_C 	C 	0.269	0.5036	0.755	0.757
Mof_C 	C 	0.1696	0.4551	0.7534	-1.38
Mof_H 	H 	0.1711	0.3966	0.7842	0.421
Mof_H 	H 	0.1532	0.4375	0.7021	0.418
Mof_H 	H 	0.1202	0.4999	0.7727	0.421
Mof_Co	Co	0.26634	0.51064	0.92449	1.174
Mof_O 	O 	0.3736	0.4407	0.089	-0.462
Mof_C 	C 	0.4316	0.4425	0.0303	0.362
Mof_Co	Co	0.23055	0.49096	0.0833	1.169
Mof_O 	O 	0.4018	0.469	0.9672	-0.464
Mof_C 	C 	0.6955	0.1799	0.018	0.437
Mof_O 	O 	0.7252	0.1354	0.0756	-0.495
Mof_C 	C 	0.5807	0.4769	0.1079	-0.265
Mof_H 	H 	0.5789	0.5461	0.0954	0.079
Mof_H 	H 	0.6484	0.4572	0.1174	0.084
Mof_H 	H 	0.5412	0.4653	0.1525	0.078
Mof_O 	O 	0.6881	0.1467	0.9513	-0.467
Mof_C 	C 	0.5384	0.4165	0.0416	-0.15
Mof_C 	C 	0.5994	0.4373	0.9719	-0.151
Mof_H 	H 	0.6321	0.5011	0.9767	0.065
Mof_H 	H 	0.5565	0.4391	0.9276	0.08
Mof_C 	C 	0.6777	0.3556	0.963	0.093
Mof_H 	H 	0.6673	0.3196	0.916	0.003
Mof_H 	H 	0.7444	0.3834	0.9627	-0.018
Mof_C 	C 	0.6636	0.288	0.0307	-0.413
Mof_H 	H 	0.7047	0.3143	0.072	0.149
Mof_C 	C 	0.5523	0.3004	0.0549	0.582
Mof_C 	C 	0.5319	0.2633	0.1365	-1.006
Mof_H 	H 	0.4612	0.2588	0.1446	0.315
Mof_H 	H 	0.5603	0.3088	0.1723	0.301
Mof_H 	H 	0.5616	0.1992	0.1432	0.307
Mof_C 	C 	0.4815	0.2441	0.0052	-1.112
Mof_H 	H 	0.4149	0.2505	0.0247	0.357
Mof_H 	H 	0.5002	0.1755	0.0044	0.365
Mof_H 	H 	0.4841	0.2702	0.9545	0.367
Mof_O 	O 	0.7962	0.8472	0.0445	-0.462
Mof_O 	O 	0.7826	0.8673	0.9208	-0.478
Mof_O 	O 	0.0955	0.5403	0.0466	-0.459
Mof_O 	O 	0.1207	0.5475	0.9216	-0.519
Mof_C 	C 	0.8019	0.814	0.9781	0.385
Mof_C 	C 	0.0683	0.552	0.978	0.437
Mof_C 	C 	0.7622	0.6662	0.9028	-0.26
Mof_H 	H 	0.6944	0.6632	0.9202	0.094
Mof_H 	H 	0.7845	0.6009	0.8896	0.083
Mof_H 	H 	0.7661	0.7083	0.859	0.09
Mof_C 	C 	0.8285	0.7079	0.9658	-0.185
Mof_C 	C 	0.8157	0.6444	0.0387	-0.132
Mof_H 	H 	0.8317	0.6834	0.0833	0.066
Mof_H 	H 	0.7473	0.6215	0.0431	0.054
Mof_C 	C 	0.8847	0.5591	0.0322	0.057
Mof_H 	H 	0.8475	0.4988	0.0226	-0.005
Mof_H 	H 	0.9222	0.5508	0.0789	0.016
Mof_C 	C 	0.9569	0.5813	0.9648	-0.405
Mof_H 	H 	0.9327	0.545	0.9203	0.14
Mof_C 	C 	0.9424	0.6938	0.9493	0.663
Mof_C 	C 	0.969	0.7169	0.8695	-1.19
Mof_H 	H 	0.0343	0.6913	0.8586	0.373
Mof_H 	H 	0.9688	0.7873	0.8623	0.363
Mof_H 	H 	0.9212	0.687	0.836	0.357
Mof_C 	C 	0.0053	0.7571	0.0026	-1.143
Mof_H 	H 	0.0748	0.7431	0.9944	0.368
Mof_H 	H 	0.9881	0.7423	0.0542	0.374
Mof_H 	H 	0.9927	0.8259	0.9926	0.366
Mof_O 	O 	0.1866	0.4774	0.1927	-0.515
Mof_O 	O 	0.1905	0.475	0.3163	-0.537
Mof_C 	C 	0.231	0.4964	0.255	0.758
Mof_C 	C 	0.3304	0.5449	0.2534	-1.382
Mof_H 	H 	0.3289	0.6034	0.2842	0.422
Mof_H 	H 	0.3468	0.5625	0.2021	0.419
Mof_H 	H 	0.3798	0.5001	0.2727	0.421
Mof_Co	Co	0.76634	0.98936	0.07551	1.172
Mof_O 	O 	0.8736	0.0593	0.911	-0.461
Mof_C 	C 	0.9316	0.0575	0.9697	0.369
Mof_Co	Co	0.73055	0.00904	0.9167	1.169
Mof_O 	O 	0.9018	0.031	0.0328	-0.463
Mof_C 	C 	0.1955	0.3201	0.982	0.428
Mof_O 	O 	0.2252	0.3646	0.9244	-0.495
Mof_C 	C 	0.0807	0.0231	0.8921	-0.284
Mof_H 	H 	0.0789	0.9539	0.9046	0.089
Mof_H 	H 	0.1484	0.0428	0.8826	0.089
Mof_H 	H 	0.0412	0.0347	0.8475	0.081
Mof_O 	O 	0.1881	0.3533	0.0487	-0.461
Mof_C 	C 	0.0384	0.0835	0.9584	-0.157
Mof_C 	C 	0.0994	0.0627	0.0281	-0.135
Mof_H 	H 	0.1321	0.9989	0.0233	0.06
Mof_H 	H 	0.0565	0.0609	0.0724	0.078
Mof_C 	C 	0.1777	0.1444	0.037	0.089
Mof_H 	H 	0.1673	0.1804	0.084	0.005
Mof_H 	H 	0.2444	0.1166	0.0373	-0.016
Mof_C 	C 	0.1636	0.212	0.9693	-0.406
Mof_H 	H 	0.2047	0.1857	0.928	0.147
Mof_C 	C 	0.0523	0.1996	0.9451	0.559
Mof_C 	C 	0.0319	0.2367	0.8635	-1.006
Mof_H 	H 	0.9612	0.2412	0.8554	0.319
Mof_H 	H 	0.0603	0.1912	0.8277	0.3
Mof_H 	H 	0.0616	0.3008	0.8568	0.306
Mof_C 	C 	0.9815	0.2559	0.9948	-1.04
Mof_H 	H 	0.9149	0.2495	0.9753	0.336
Mof_H 	H 	0.0002	0.3245	0.9956	0.337
Mof_H 	H 	0.9841	0.2298	0.0455	0.345
Mof_O 	O 	0.2962	0.6528	0.9555	-0.455
Mof_O 	O 	0.2826	0.6327	0.0792	-0.477
Mof_O 	O 	0.5955	0.9597	0.9534	-0.46
Mof_O 	O 	0.6207	0.9525	0.0784	-0.522
Mof_C 	C 	0.3019	0.686	0.0219	0.378
Mof_C 	C 	0.5683	0.948	0.022	0.444
Mof_C 	C 	0.2622	0.8338	0.0972	-0.256
Mof_H 	H 	0.1944	0.8368	0.0798	0.093
Mof_H 	H 	0.2845	0.8991	0.1104	0.081
Mof_H 	H 	0.2661	0.7917	0.141	0.089
Mof_C 	C 	0.3285	0.7921	0.0342	-0.19
Mof_C 	C 	0.3157	0.8556	0.9613	-0.14
Mof_H 	H 	0.3317	0.8166	0.9167	0.07
Mof_H 	H 	0.2473	0.8785	0.9569	0.059
Mof_C 	C 	0.3847	0.9409	0.9678	0.093
Mof_H 	H 	0.3475	0.0012	0.9774	-0.019
Mof_H 	H 	0.4222	0.9492	0.9211	0.009
Mof_C 	C 	0.4569	0.9187	0.0352	-0.432
Mof_H 	H 	0.4327	0.955	0.0797	0.146
Mof_C 	C 	0.4424	0.8062	0.0507	0.678
Mof_C 	C 	0.469	0.7831	0.1305	-1.217
Mof_H 	H 	0.5343	0.8087	0.1414	0.383
Mof_H 	H 	0.4688	0.7127	0.1377	0.371
Mof_H 	H 	0.4212	0.813	0.164	0.365
Mof_C 	C 	0.5053	0.7429	0.9974	-1.168
Mof_H 	H 	0.5748	0.7569	0.0056	0.375
Mof_H 	H 	0.4881	0.7577	0.9458	0.388
Mof_H 	H 	0.4927	0.6741	0.0074	0.37
Mof_O 	O 	0.6866	0.0226	0.8073	-0.517
Mof_O 	O 	0.6905	0.025	0.6837	-0.538
Mof_C 	C 	0.731	0.0036	0.745	0.759
Mof_C 	C 	0.8304	0.9551	0.7466	-1.383
Mof_H 	H 	0.8289	0.8966	0.7158	0.422
Mof_H 	H 	0.8468	0.9375	0.7979	0.42
Mof_H 	H 	0.8798	0.9999	0.7273	0.422
Mof_Co	Co	0.73366	0.01064	0.57551	1.175
Mof_O 	O 	0.6264	0.9407	0.411	-0.462
Mof_C 	C 	0.5684	0.9425	0.4697	0.361
Mof_Co	Co	0.76945	0.99096	0.4167	1.168
Mof_O 	O 	0.5982	0.969	0.5328	-0.463
Mof_C 	C 	0.3045	0.6799	0.482	0.436
Mof_O 	O 	0.2748	0.6354	0.4244	-0.497
Mof_C 	C 	0.4193	0.9769	0.3921	-0.265
Mof_H 	H 	0.4211	0.0461	0.4046	0.079
Mof_H 	H 	0.3516	0.9572	0.3826	0.085
Mof_H 	H 	0.4588	0.9653	0.3475	0.078
Mof_O 	O 	0.3119	0.6467	0.5487	-0.467
Mof_C 	C 	0.4616	0.9165	0.4584	-0.151
Mof_C 	C 	0.4006	0.9373	0.5281	-0.148
Mof_H 	H 	0.3679	0.0011	0.5233	0.063
Mof_H 	H 	0.4435	0.9391	0.5724	0.08
Mof_C 	C 	0.3223	0.8556	0.537	0.091
Mof_H 	H 	0.3327	0.8196	0.584	0.004
Mof_H 	H 	0.2556	0.8834	0.5373	-0.018
Mof_C 	C 	0.3364	0.788	0.4693	-0.412
Mof_H 	H 	0.2953	0.8143	0.428	0.149
Mof_C 	C 	0.4477	0.8004	0.4451	0.583
Mof_C 	C 	0.4681	0.7633	0.3635	-1.006
Mof_H 	H 	0.5388	0.7588	0.3554	0.315
Mof_H 	H 	0.4397	0.8088	0.3277	0.301
Mof_H 	H 	0.4384	0.6992	0.3568	0.307
Mof_C 	C 	0.5185	0.7441	0.4948	-1.118
Mof_H 	H 	0.5851	0.7505	0.4753	0.358
Mof_H 	H 	0.4998	0.6755	0.4956	0.366
Mof_H 	H 	0.5159	0.7702	0.5455	0.371
Mof_O 	O 	0.2038	0.3472	0.4555	-0.456
Mof_O 	O 	0.2174	0.3673	0.5792	-0.479
Mof_O 	O 	0.9045	0.0403	0.4534	-0.466
Mof_O 	O 	0.8793	0.0475	0.5784	-0.522
Mof_C 	C 	0.1981	0.314	0.5219	0.382
Mof_C 	C 	0.9317	0.052	0.522	0.454
Mof_C 	C 	0.2378	0.1662	0.5972	-0.24
Mof_H 	H 	0.3056	0.1632	0.5798	0.087
Mof_H 	H 	0.2155	0.1009	0.6104	0.075
Mof_H 	H 	0.2339	0.2083	0.641	0.083
Mof_C 	C 	0.1715	0.2079	0.5342	-0.203
Mof_C 	C 	0.1843	0.1444	0.4613	-0.122
Mof_H 	H 	0.1683	0.1834	0.4167	0.064
Mof_H 	H 	0.2527	0.1215	0.4569	0.052
Mof_C 	C 	0.1153	0.0591	0.4678	0.064
Mof_H 	H 	0.1525	0.9988	0.4774	-0.004
Mof_H 	H 	0.0778	0.0508	0.4211	0.015
Mof_C 	C 	0.0431	0.0813	0.5352	-0.434
Mof_H 	H 	0.0673	0.045	0.5797	0.145
Mof_C 	C 	0.0576	0.1938	0.5507	0.7
Mof_C 	C 	0.031	0.2169	0.6305	-1.255
Mof_H 	H 	0.9657	0.1913	0.6414	0.396
Mof_H 	H 	0.0312	0.2873	0.6377	0.381
Mof_H 	H 	0.0788	0.187	0.664	0.376
Mof_C 	C 	0.9947	0.2571	0.4974	-1.209
Mof_H 	H 	0.9252	0.2431	0.5056	0.39
Mof_H 	H 	0.0119	0.2423	0.4458	0.399
Mof_H 	H 	0.0073	0.3259	0.5074	0.383
Mof_O 	O 	0.8134	0.9774	0.3073	-0.516
Mof_O 	O 	0.8095	0.975	0.1837	-0.538
Mof_C 	C 	0.769	0.9964	0.245	0.752
Mof_C 	C 	0.6696	0.0449	0.2466	-1.372
Mof_H 	H 	0.6711	0.1034	0.2158	0.42
Mof_H 	H 	0.6532	0.0625	0.2979	0.417
Mof_H 	H 	0.6202	0.0001	0.2273	0.421
_end
