data_functionalizedCrystal
_audit_creation_method	'EQeq! by Chris Wilmer'
_symmetry_space_group_name_H-M	'P1'
_symmetry_Int_Tables_number	1
_symmetry_cell_setting	triclinic
loop_
_symmetry_equiv_pos_as_xyz
  x,y,z
_cell_length_a	10.9548
_cell_length_b	10.9548
_cell_length_c	19.741
_cell_angle_alpha	75.4848
_cell_angle_beta	75.4848
_cell_angle_gamma	64.1216
loop_
_atom_site_label
_atom_site_type_symbol
_atom_site_fract_x
_atom_site_fract_y
_atom_site_fract_z
_atom_site_charge
Mof_Tb	Tb	0.9024	0.24686	0.41708	1.869
Mof_Tb	Tb	0.75314	0.0976	0.08292	1.863
Mof_Tb	Tb	0.0976	0.75314	0.58292	1.868
Mof_Tb	Tb	0.24686	0.9024	0.91708	1.862
Mof_H 	H 	0.2955	0.1887	0.2233	0.029
Mof_H 	H 	0.3307	0.0975	0.0323	0.015
Mof_H 	H 	0.9817	0.1565	0.1722	0.01
Mof_H 	H 	0.8113	0.7045	0.2767	0.028
Mof_H 	H 	0.9025	0.6693	0.4677	0.013
Mof_H 	H 	0.8435	0.0183	0.3278	0.003
Mof_H 	H 	0.7045	0.8113	0.7767	0.029
Mof_H 	H 	0.6693	0.9025	0.9677	0.015
Mof_H 	H 	0.0183	0.8435	0.8278	0.01
Mof_H 	H 	0.1887	0.2955	0.7233	0.028
Mof_H 	H 	0.0975	0.3307	0.5323	0.013
Mof_H 	H 	0.1565	0.9817	0.6722	0.003
Mof_C 	C 	0.0448	0.2016	0.2822	0.346
Mof_C 	C 	0.1264	0.1778	0.2098	-0.143
Mof_C 	C 	0.2573	0.1725	0.1911	0.073
Mof_C 	C 	0.335	0.1436	0.1252	-0.152
Mof_C 	C 	0.2794	0.118	0.0763	0.096
Mof_C 	C 	0.1466	0.1238	0.0948	-0.212
Mof_C 	C 	0.0707	0.1531	0.1605	0.095
Mof_C 	C 	0.4801	0.1339	0.1075	0.361
Mof_C 	C 	0.0849	0.0939	0.0437	0.492
Mof_C 	C 	0.7984	0.9552	0.2178	0.353
Mof_C 	C 	0.8222	0.8736	0.2902	-0.149
Mof_C 	C 	0.8275	0.7427	0.3089	0.078
Mof_C 	C 	0.8564	0.665	0.3748	-0.156
Mof_C 	C 	0.882	0.7206	0.4237	0.102
Mof_C 	C 	0.8762	0.8534	0.4052	-0.22
Mof_C 	C 	0.8469	0.9293	0.3395	0.108
Mof_C 	C 	0.8661	0.5199	0.3925	0.363
Mof_C 	C 	0.9061	0.9151	0.4563	0.506
Mof_C 	C 	0.9552	0.7984	0.7178	0.346
Mof_C 	C 	0.8736	0.8222	0.7902	-0.143
Mof_C 	C 	0.7427	0.8275	0.8089	0.073
Mof_C 	C 	0.665	0.8564	0.8748	-0.152
Mof_C 	C 	0.7206	0.882	0.9237	0.096
Mof_C 	C 	0.8534	0.8762	0.9052	-0.212
Mof_C 	C 	0.9293	0.8469	0.8395	0.095
Mof_C 	C 	0.5199	0.8661	0.8925	0.361
Mof_C 	C 	0.9151	0.9061	0.9563	0.492
Mof_C 	C 	0.2016	0.0448	0.7822	0.353
Mof_C 	C 	0.1778	0.1264	0.7098	-0.149
Mof_C 	C 	0.1725	0.2573	0.6911	0.078
Mof_C 	C 	0.1436	0.335	0.6252	-0.156
Mof_C 	C 	0.118	0.2794	0.5763	0.102
Mof_C 	C 	0.1238	0.1466	0.5948	-0.22
Mof_C 	C 	0.1531	0.0707	0.6605	0.108
Mof_C 	C 	0.1339	0.4801	0.6075	0.363
Mof_C 	C 	0.0939	0.0849	0.5437	0.506
Mof_O 	O 	0.1058	0.2006	0.3292	-0.422
Mof_O 	O 	0.9224	0.2186	0.2956	-0.431
Mof_O 	O 	0.5252	0.1614	0.1518	-0.458
Mof_O 	O 	0.5513	0.1025	0.0511	-0.468
Mof_O 	O 	0.1503	0.0815	0.982	-0.519
Mof_O 	O 	0.973	0.083	0.0657	-0.577
Mof_O 	O 	0.7994	0.8942	0.1708	-0.422
Mof_O 	O 	0.7814	0.0776	0.2044	-0.434
Mof_O 	O 	0.8386	0.4748	0.3482	-0.458
Mof_O 	O 	0.8975	0.4487	0.4489	-0.469
Mof_O 	O 	0.9185	0.8497	0.518	-0.529
Mof_O 	O 	0.917	0.027	0.4343	-0.583
Mof_O 	O 	0.8942	0.7994	0.6708	-0.422
Mof_O 	O 	0.0776	0.7814	0.7044	-0.431
Mof_O 	O 	0.4748	0.8386	0.8482	-0.458
Mof_O 	O 	0.4487	0.8975	0.9489	-0.468
Mof_O 	O 	0.8497	0.9185	0.018	-0.519
Mof_O 	O 	0.027	0.917	0.9343	-0.577
Mof_O 	O 	0.2006	0.1058	0.8292	-0.422
Mof_O 	O 	0.2186	0.9224	0.7956	-0.434
Mof_O 	O 	0.1614	0.5252	0.6518	-0.458
Mof_O 	O 	0.1025	0.5513	0.5511	-0.469
Mof_O 	O 	0.0815	0.1503	0.482	-0.529
Mof_O 	O 	0.083	0.973	0.5657	-0.583
_end
