data_functionalizedCrystal
_audit_creation_method	'EQeq! by Chris Wilmer'
_symmetry_space_group_name_H-M	'P1'
_symmetry_Int_Tables_number	1
_symmetry_cell_setting	triclinic
loop_
_symmetry_equiv_pos_as_xyz
  x,y,z
_cell_length_a	10.126
_cell_length_b	15.9892
_cell_length_c	15.9892
_cell_angle_alpha	64.3321
_cell_angle_beta	77.8131
_cell_angle_gamma	102.187
loop_
_atom_site_label
_atom_site_type_symbol
_atom_site_fract_x
_atom_site_fract_y
_atom_site_fract_z
_atom_site_charge
Mof_Co	Co	0.5	0	0.5	1.11
Mof_Co	Co	1.32687e-17	0.5	0.5	1.11
Mof_Co	Co	0.5	0.5	-0	1.11
Mof_H 	H 	0.3747	0.8628	0.7338	0.039
Mof_H 	H 	0.4598	0.8088	0.8628	-0.001
Mof_H 	H 	0.7	0.8801	0.8351	0.148
Mof_H 	H 	0.0114	0.226	0.1775	0.036
Mof_H 	H 	0.2169	0.3376	0.0515	-0.027
Mof_H 	H 	0.3928	0.3709	0.233	0.001
Mof_H 	H 	0.1911	0.2588	0.3657	0.07
Mof_H 	H 	0.9666	0.0607	0.6023	0.366
Mof_H 	H 	0.9591	0.9625	0.6913	0.376
Mof_H 	H 	0.9269	0.0463	0.7091	0.342
Mof_H 	H 	0.1085	0.7338	0.4034	0.019
Mof_H 	H 	0.3226	0.8628	0.3284	0.016
Mof_H 	H 	0.5351	0.8351	0.2848	0.112
Mof_H 	H 	0.1889	0.1775	0.5965	0.053
Mof_H 	H 	0.2684	0.0515	0.6109	-0.032
Mof_H 	H 	0.6258	0.233	0.3961	-0.004
Mof_H 	H 	0.5568	0.3657	0.3755	0.086
Mof_H 	H 	0.5689	0.6023	0.337	0.28
Mof_H 	H 	0.6504	0.6913	0.3462	0.271
Mof_H 	H 	0.636	0.7091	0.2446	0.26
Mof_H 	H 	0.5119	0.4034	0.8628	0.038
Mof_H 	H 	0.651	0.3284	0.8088	-0.009
Mof_H 	H 	0.8199	0.2848	0.8801	0.145
Mof_H 	H 	0.7854	0.5965	0.226	0.074
Mof_H 	H 	0.8793	0.6109	0.3376	-0.016
Mof_H 	H 	0.0219	0.3961	0.3709	-0.056
Mof_H 	H 	0.9323	0.3755	0.2588	0.111
Mof_H 	H 	0.9059	0.337	0.0607	0.363
Mof_H 	H 	0.9966	0.3462	0.9625	0.379
Mof_H 	H 	0.8806	0.2446	0.0463	0.337
Mof_H 	H 	0.6253	0.1372	0.2662	0.012
Mof_H 	H 	0.5402	0.1912	0.1372	0.023
Mof_H 	H 	0.3	0.1199	0.1649	0.064
Mof_H 	H 	0.9886	0.774	0.8225	0.091
Mof_H 	H 	0.7831	0.6624	0.9485	-0.006
Mof_H 	H 	0.6072	0.6291	0.767	-0.008
Mof_H 	H 	0.8089	0.7412	0.6343	0.102
Mof_H 	H 	0.0334	0.9393	0.3977	0.179
Mof_H 	H 	0.0409	0.0375	0.3087	0.14
Mof_H 	H 	0.0731	0.9537	0.2909	0.159
Mof_H 	H 	0.8915	0.2662	0.5966	0.033
Mof_H 	H 	0.6774	0.1372	0.6716	0.003
Mof_H 	H 	0.4649	0.1649	0.7152	0.105
Mof_H 	H 	0.8111	0.8225	0.4035	0.077
Mof_H 	H 	0.7316	0.9485	0.3891	-0.002
Mof_H 	H 	0.3742	0.767	0.6039	-0.003
Mof_H 	H 	0.4432	0.6343	0.6245	0.088
Mof_H 	H 	0.4311	0.3977	0.663	0.276
Mof_H 	H 	0.3496	0.3087	0.6538	0.262
Mof_H 	H 	0.364	0.2909	0.7554	0.253
Mof_H 	H 	0.4881	0.5966	0.1372	0.011
Mof_H 	H 	0.349	0.6716	0.1912	0.032
Mof_H 	H 	0.1801	0.7152	0.1199	0.065
Mof_H 	H 	0.2146	0.4035	0.774	0.058
Mof_H 	H 	0.1207	0.3891	0.6624	-0.018
Mof_H 	H 	0.9781	0.6039	0.6291	0.043
Mof_H 	H 	0.0677	0.6245	0.7412	0.067
Mof_H 	H 	0.0941	0.663	0.9393	0.179
Mof_H 	H 	0.0034	0.6538	0.0375	0.133
Mof_H 	H 	0.1194	0.7554	0.9537	0.163
Mof_C 	C 	0.4723	0.8887	0.7222	-0.056
Mof_C 	C 	0.5218	0.8573	0.7997	0.106
Mof_C 	C 	0.6661	0.8993	0.7823	-0.326
Mof_C 	C 	0.7597	0.9684	0.6894	0.404
Mof_C 	C 	0.7023	0.9955	0.6133	-0.122
Mof_C 	C 	0.7841	0.0653	0.5082	0.1
Mof_C 	C 	0.9382	0.163	0.3689	0.116
Mof_C 	C 	0.0739	0.2313	0.2869	0.001
Mof_C 	C 	0.0874	0.2556	0.1909	-0.117
Mof_C 	C 	0.2111	0.3225	0.1156	0.053
Mof_C 	C 	0.3139	0.342	0.2215	0.066
Mof_C 	C 	0.1928	0.2747	0.3021	-0.11
Mof_C 	C 	0.9176	0.0137	0.6714	-1.088
Mof_C 	C 	0.1945	0.7222	0.3891	-0.029
Mof_C 	C 	0.3215	0.7997	0.343	0.047
Mof_C 	C 	0.4484	0.7823	0.3184	-0.244
Mof_C 	C 	0.4491	0.6894	0.3422	0.285
Mof_C 	C 	0.3156	0.6133	0.3912	-0.111
Mof_C 	C 	0.2923	0.5082	0.4265	0.113
Mof_C 	C 	0.3071	0.3689	0.4681	0.071
Mof_C 	C 	0.3608	0.2869	0.4818	0.055
Mof_C 	C 	0.2783	0.1909	0.5535	-0.148
Mof_C 	C 	0.3267	0.1156	0.5619	0.072
Mof_C 	C 	0.5354	0.2215	0.4365	0.084
Mof_C 	C 	0.4949	0.3021	0.4232	-0.139
Mof_C 	C 	0.589	0.6714	0.3149	-0.808
Mof_C 	C 	0.5836	0.3891	0.8887	-0.059
Mof_C 	C 	0.6645	0.343	0.8573	0.108
Mof_C 	C 	0.7668	0.3184	0.8993	-0.327
Mof_C 	C 	0.7913	0.3422	0.9684	0.405
Mof_C 	C 	0.7068	0.3912	0.9955	-0.121
Mof_C 	C 	0.7188	0.4265	0.0653	0.1
Mof_C 	C 	0.7752	0.4681	0.163	0.069
Mof_C 	C 	0.8426	0.4818	0.2313	0.084
Mof_C 	C 	0.8318	0.5535	0.2556	-0.159
Mof_C 	C 	0.8886	0.5619	0.3225	0.09
Mof_C 	C 	0.9719	0.4365	0.342	0.168
Mof_C 	C 	0.9181	0.4232	0.2747	-0.185
Mof_C 	C 	0.9039	0.3149	0.0137	-1.085
Mof_C 	C 	0.5277	0.1113	0.2778	-0
Mof_C 	C 	0.4782	0.1427	0.2003	-0.015
Mof_C 	C 	0.3339	0.1007	0.2177	-0.149
Mof_C 	C 	0.2403	0.0316	0.3106	0.143
Mof_C 	C 	0.2977	0.0045	0.3867	-0.091
Mof_C 	C 	0.2159	0.9347	0.4918	0.128
Mof_C 	C 	0.0618	0.837	0.6311	0.034
Mof_C 	C 	0.9261	0.7687	0.7131	0.103
Mof_C 	C 	0.9126	0.7444	0.8091	-0.17
Mof_C 	C 	0.7889	0.6775	0.8844	0.094
Mof_C 	C 	0.6861	0.658	0.7785	0.101
Mof_C 	C 	0.8072	0.7253	0.6979	-0.164
Mof_C 	C 	0.0824	0.9863	0.3286	-0.473
Mof_C 	C 	0.8055	0.2778	0.6109	-0.032
Mof_C 	C 	0.6785	0.2003	0.657	0.052
Mof_C 	C 	0.5516	0.2177	0.6816	-0.244
Mof_C 	C 	0.5509	0.3106	0.6578	0.282
Mof_C 	C 	0.6844	0.3867	0.6088	-0.106
Mof_C 	C 	0.7077	0.4918	0.5735	0.115
Mof_C 	C 	0.6929	0.6311	0.5319	0.071
Mof_C 	C 	0.6392	0.7131	0.5182	0.059
Mof_C 	C 	0.7217	0.8091	0.4465	-0.145
Mof_C 	C 	0.6733	0.8844	0.4381	0.079
Mof_C 	C 	0.4646	0.7785	0.5635	0.087
Mof_C 	C 	0.5051	0.6979	0.5768	-0.14
Mof_C 	C 	0.411	0.3286	0.6851	-0.796
Mof_C 	C 	0.4164	0.6109	0.1113	0.004
Mof_C 	C 	0.3355	0.657	0.1427	-0.02
Mof_C 	C 	0.2332	0.6816	0.1007	-0.144
Mof_C 	C 	0.2087	0.6578	0.0316	0.137
Mof_C 	C 	0.2932	0.6088	0.0045	-0.09
Mof_C 	C 	0.2812	0.5735	0.9347	0.129
Mof_C 	C 	0.2248	0.5319	0.837	0.073
Mof_C 	C 	0.1574	0.5182	0.7687	0.033
Mof_C 	C 	0.1682	0.4465	0.7444	-0.135
Mof_C 	C 	0.1114	0.4381	0.6775	0.063
Mof_C 	C 	0.0281	0.5635	0.658	0.011
Mof_C 	C 	0.0819	0.5768	0.7253	-0.099
Mof_C 	C 	0.0961	0.6851	0.9863	-0.462
Mof_N 	N 	0.5602	0.9555	0.6306	-0.17
Mof_N 	N 	0.71502	0.07754	0.44298	-0.227
Mof_N 	N 	0.81579	0.14078	0.35091	-0.111
Mof_N 	N 	0.9262	0.1192	0.4652	-0.151
Mof_N 	N 	0.3256	0.3684	0.1288	-0.232
Mof_N 	N 	0.1908	0.6306	0.4139	-0.19
Mof_N 	N 	0.158	0.44298	0.47948	-0.228
Mof_N 	N 	0.1667	0.35091	0.50831	-0.113
Mof_N 	N 	0.3914	0.4652	0.4156	-0.148
Mof_N 	N 	0.4544	0.1288	0.5028	-0.237
Mof_N 	N 	0.6047	0.4139	0.9555	-0.169
Mof_N 	N 	0.63748	0.47948	0.07754	-0.227
Mof_N 	N 	0.67501	0.50831	0.14078	-0.106
Mof_N 	N 	0.807	0.4156	0.1192	-0.148
Mof_N 	N 	0.9572	0.5028	0.3684	-0.242
Mof_N 	N 	0.4398	0.0445	0.3694	-0.203
Mof_N 	N 	0.28498	0.92246	0.55702	-0.218
Mof_N 	N 	0.18421	0.85922	0.64909	-0.102
Mof_N 	N 	0.0738	0.8808	0.5348	-0.144
Mof_N 	N 	0.6744	0.6316	0.8712	-0.233
Mof_N 	N 	0.8092	0.3694	0.5861	-0.181
Mof_N 	N 	0.842	0.55702	0.52052	-0.217
Mof_N 	N 	0.8333	0.64909	0.49169	-0.101
Mof_N 	N 	0.6086	0.5348	0.5844	-0.148
Mof_N 	N 	0.5456	0.8712	0.4972	-0.228
Mof_N 	N 	0.3953	0.5861	0.0445	-0.204
Mof_N 	N 	0.36252	0.52052	0.92246	-0.218
Mof_N 	N 	0.32499	0.49169	0.85922	-0.107
Mof_N 	N 	0.193	0.5844	0.8808	-0.146
Mof_N 	N 	0.0428	0.4972	0.6316	-0.225
_end
