data_functionalizedCrystal
_audit_creation_method	'EQeq! by Chris Wilmer'
_symmetry_space_group_name_H-M	'P1'
_symmetry_Int_Tables_number	1
_symmetry_cell_setting	triclinic
loop_
_symmetry_equiv_pos_as_xyz
  x,y,z
_cell_length_a	12.807
_cell_length_b	12.807
_cell_length_c	59.467
_cell_angle_alpha	90
_cell_angle_beta	90
_cell_angle_gamma	90
loop_
_atom_site_label
_atom_site_type_symbol
_atom_site_fract_x
_atom_site_fract_y
_atom_site_fract_z
_atom_site_charge
Mof_Dy	Dy	0.65588	0.0747	0.06146	1.918
Mof_O 	O 	0.3634	0.0522	0.03246	-0.503
Mof_O 	O 	0.5163	0.1278	0.03988	-0.523
Mof_C 	C 	0.4395	0.1097	0.02792	0.498
Mof_C 	C 	0.4398	0.1587	0.00466	-0.148
Mof_C 	C 	0.3472	0.1854	0.99402	0.054
Mof_H 	H 	0.284	0.1745	0.0014	0.031
Mof_C 	C 	0.3474	0.2285	0.97235	-0.089
Mof_C 	C 	0.4409	0.2421	0.9613	0.002
Mof_H 	H 	0.4421	0.2695	0.9468	0.05
Mof_C 	C 	0.5338	0.2143	0.97202	-0.044
Mof_C 	C 	0.6321	0.2268	0.95994	0.087
Mof_N 	N 	0.709	0.2389	0.9504	-0.133
Mof_C 	C 	0.5334	0.1739	0.99409	0.032
Mof_H 	H 	0.5958	0.158	0.0013	0.034
Mof_C 	C 	0.2469	0.2599	0.96107	0.313
Mof_O 	O 	0.1603	0.2496	0.97094	-0.408
Mof_O 	O 	0.2548	0.2972	0.94164	-0.44
Mof_O 	O 	0.6034	0.9367	0.081	-0.587
Mof_O 	O 	0.4576	0.846	0.088	-0.506
Mof_C 	C 	0.5522	0.8658	0.09107	0.518
Mof_C 	C 	0.6099	0.8053	0.10863	-0.201
Mof_C 	C 	0.769	0.785	0.1303	-0.045
Mof_C 	C 	0.879	0.805	0.1323	0.064
Mof_N 	N 	0.965	0.833	0.1352	-0.124
Mof_C 	C 	0.7153	0.8333	0.1123	0.022
Mof_C 	C 	0.7179	0.723	0.145	0.037
Mof_H 	H 	0.7484	0.8818	0.1031	-0.005
Mof_H 	H 	0.7526	0.6977	0.1577	0.011
Mof_Dy	Dy	0.15588	0.5747	0.56146	1.919
Mof_O 	O 	0.8634	0.5522	0.53246	-0.502
Mof_O 	O 	0.0163	0.6278	0.53988	-0.522
Mof_C 	C 	0.9395	0.6097	0.52792	0.499
Mof_C 	C 	0.9398	0.6587	0.50466	-0.147
Mof_C 	C 	0.8472	0.6854	0.49402	0.055
Mof_H 	H 	0.784	0.6745	0.5014	0.032
Mof_C 	C 	0.8474	0.7285	0.47235	-0.088
Mof_C 	C 	0.9409	0.7421	0.4613	0.003
Mof_H 	H 	0.9421	0.7695	0.4468	0.051
Mof_C 	C 	0.0338	0.7143	0.47202	-0.043
Mof_C 	C 	0.1321	0.7268	0.45994	0.088
Mof_N 	N 	0.209	0.7389	0.4504	-0.132
Mof_C 	C 	0.0334	0.6739	0.49409	0.033
Mof_H 	H 	0.0958	0.658	0.5013	0.035
Mof_C 	C 	0.7469	0.7599	0.46107	0.314
Mof_O 	O 	0.6603	0.7496	0.47094	-0.407
Mof_O 	O 	0.7548	0.7972	0.44164	-0.439
Mof_O 	O 	0.1034	0.4367	0.581	-0.586
Mof_O 	O 	0.9576	0.346	0.588	-0.505
Mof_C 	C 	0.0522	0.3658	0.59107	0.517
Mof_C 	C 	0.1099	0.3053	0.60863	-0.201
Mof_C 	C 	0.269	0.285	0.6303	-0.045
Mof_C 	C 	0.379	0.305	0.6323	0.064
Mof_N 	N 	0.465	0.333	0.6352	-0.124
Mof_C 	C 	0.2153	0.3333	0.6123	0.022
Mof_C 	C 	0.2179	0.223	0.645	0.037
Mof_H 	H 	0.2484	0.3818	0.6031	-0.005
Mof_H 	H 	0.2526	0.1977	0.6577	0.011
Mof_Dy	Dy	0.34412	0.9253	0.06146	1.919
Mof_O 	O 	0.6366	0.9478	0.03246	-0.502
Mof_O 	O 	0.4837	0.8722	0.03988	-0.522
Mof_C 	C 	0.5605	0.8903	0.02792	0.499
Mof_C 	C 	0.5602	0.8413	0.00466	-0.147
Mof_C 	C 	0.6528	0.8146	0.99402	0.055
Mof_H 	H 	0.716	0.8255	0.0014	0.032
Mof_C 	C 	0.6526	0.7715	0.97235	-0.088
Mof_C 	C 	0.5591	0.7579	0.9613	0.003
Mof_H 	H 	0.5579	0.7305	0.9468	0.051
Mof_C 	C 	0.4662	0.7857	0.97202	-0.043
Mof_C 	C 	0.3679	0.7732	0.95994	0.088
Mof_N 	N 	0.291	0.7611	0.9504	-0.132
Mof_C 	C 	0.4666	0.8261	0.99409	0.033
Mof_H 	H 	0.4042	0.842	0.0013	0.035
Mof_C 	C 	0.7531	0.7401	0.96107	0.314
Mof_O 	O 	0.8397	0.7504	0.97094	-0.407
Mof_O 	O 	0.7452	0.7028	0.94164	-0.439
Mof_O 	O 	0.3966	0.0633	0.081	-0.586
Mof_O 	O 	0.5424	0.154	0.088	-0.505
Mof_C 	C 	0.4478	0.1342	0.09107	0.518
Mof_C 	C 	0.3901	0.1947	0.10863	-0.201
Mof_C 	C 	0.231	0.215	0.1303	-0.045
Mof_C 	C 	0.121	0.195	0.1323	0.064
Mof_N 	N 	0.035	0.167	0.1352	-0.124
Mof_C 	C 	0.2847	0.1667	0.1123	0.022
Mof_C 	C 	0.2821	0.277	0.145	0.037
Mof_H 	H 	0.2516	0.1182	0.1031	-0.005
Mof_H 	H 	0.2474	0.3023	0.1577	0.011
Mof_Dy	Dy	0.84412	0.4253	0.56146	1.919
Mof_O 	O 	0.1366	0.4478	0.53246	-0.502
Mof_O 	O 	0.9837	0.3722	0.53988	-0.522
Mof_C 	C 	0.0605	0.3903	0.52792	0.499
Mof_C 	C 	0.0602	0.3413	0.50466	-0.147
Mof_C 	C 	0.1528	0.3146	0.49402	0.055
Mof_H 	H 	0.216	0.3255	0.5014	0.032
Mof_C 	C 	0.1526	0.2715	0.47235	-0.088
Mof_C 	C 	0.0591	0.2579	0.4613	0.003
Mof_H 	H 	0.0579	0.2305	0.4468	0.051
Mof_C 	C 	0.9662	0.2857	0.47202	-0.043
Mof_C 	C 	0.8679	0.2732	0.45994	0.088
Mof_N 	N 	0.791	0.2611	0.4504	-0.132
Mof_C 	C 	0.9666	0.3261	0.49409	0.033
Mof_H 	H 	0.9042	0.342	0.5013	0.035
Mof_C 	C 	0.2531	0.2401	0.46107	0.314
Mof_O 	O 	0.3397	0.2504	0.47094	-0.407
Mof_O 	O 	0.2452	0.2028	0.44164	-0.439
Mof_O 	O 	0.8966	0.5633	0.581	-0.586
Mof_O 	O 	0.0424	0.654	0.588	-0.505
Mof_C 	C 	0.9478	0.6342	0.59107	0.517
Mof_C 	C 	0.8901	0.6947	0.60863	-0.201
Mof_C 	C 	0.731	0.715	0.6303	-0.045
Mof_C 	C 	0.621	0.695	0.6323	0.064
Mof_N 	N 	0.535	0.667	0.6352	-0.124
Mof_C 	C 	0.7847	0.6667	0.6123	0.022
Mof_C 	C 	0.7821	0.777	0.645	0.037
Mof_H 	H 	0.7516	0.6182	0.6031	-0.005
Mof_H 	H 	0.7474	0.8023	0.6577	0.011
Mof_Dy	Dy	0.0747	0.34412	0.93854	1.919
Mof_O 	O 	0.0522	0.6366	0.96754	-0.502
Mof_O 	O 	0.1278	0.4837	0.96012	-0.522
Mof_C 	C 	0.1097	0.5605	0.97208	0.499
Mof_C 	C 	0.1587	0.5602	0.99534	-0.147
Mof_C 	C 	0.1854	0.6528	0.00598	0.055
Mof_H 	H 	0.1745	0.716	0.9986	0.032
Mof_C 	C 	0.2285	0.6526	0.02765	-0.088
Mof_C 	C 	0.2421	0.5591	0.0387	0.003
Mof_H 	H 	0.2695	0.5579	0.0532	0.051
Mof_C 	C 	0.2143	0.4662	0.02798	-0.043
Mof_C 	C 	0.2268	0.3679	0.04006	0.088
Mof_N 	N 	0.2389	0.291	0.0496	-0.132
Mof_C 	C 	0.1739	0.4666	0.00591	0.033
Mof_H 	H 	0.158	0.4042	0.9987	0.035
Mof_C 	C 	0.2599	0.7531	0.03893	0.314
Mof_O 	O 	0.2496	0.8397	0.02906	-0.407
Mof_O 	O 	0.2972	0.7452	0.05836	-0.439
Mof_O 	O 	0.9367	0.3966	0.919	-0.586
Mof_O 	O 	0.846	0.5424	0.912	-0.505
Mof_C 	C 	0.8658	0.4478	0.90893	0.518
Mof_C 	C 	0.8053	0.3901	0.89137	-0.201
Mof_C 	C 	0.785	0.231	0.8697	-0.045
Mof_C 	C 	0.805	0.121	0.8677	0.064
Mof_N 	N 	0.833	0.035	0.8648	-0.124
Mof_C 	C 	0.8333	0.2847	0.8877	0.022
Mof_C 	C 	0.723	0.2821	0.855	0.037
Mof_H 	H 	0.8818	0.2516	0.8969	-0.005
Mof_H 	H 	0.6977	0.2474	0.8423	0.011
Mof_Dy	Dy	0.5747	0.84412	0.43854	1.919
Mof_O 	O 	0.5522	0.1366	0.46754	-0.502
Mof_O 	O 	0.6278	0.9837	0.46012	-0.522
Mof_C 	C 	0.6097	0.0605	0.47208	0.499
Mof_C 	C 	0.6587	0.0602	0.49534	-0.147
Mof_C 	C 	0.6854	0.1528	0.50598	0.055
Mof_H 	H 	0.6745	0.216	0.4986	0.032
Mof_C 	C 	0.7285	0.1526	0.52765	-0.088
Mof_C 	C 	0.7421	0.0591	0.5387	0.003
Mof_H 	H 	0.7695	0.0579	0.5532	0.051
Mof_C 	C 	0.7143	0.9662	0.52798	-0.043
Mof_C 	C 	0.7268	0.8679	0.54006	0.088
Mof_N 	N 	0.7389	0.791	0.5496	-0.132
Mof_C 	C 	0.6739	0.9666	0.50591	0.033
Mof_H 	H 	0.658	0.9042	0.4987	0.035
Mof_C 	C 	0.7599	0.2531	0.53893	0.314
Mof_O 	O 	0.7496	0.3397	0.52906	-0.407
Mof_O 	O 	0.7972	0.2452	0.55836	-0.439
Mof_O 	O 	0.4367	0.8966	0.419	-0.586
Mof_O 	O 	0.346	0.0424	0.412	-0.505
Mof_C 	C 	0.3658	0.9478	0.40893	0.517
Mof_C 	C 	0.3053	0.8901	0.39137	-0.201
Mof_C 	C 	0.285	0.731	0.3697	-0.045
Mof_C 	C 	0.305	0.621	0.3677	0.064
Mof_N 	N 	0.333	0.535	0.3648	-0.124
Mof_C 	C 	0.3333	0.7847	0.3877	0.022
Mof_C 	C 	0.223	0.7821	0.355	0.037
Mof_H 	H 	0.3818	0.7516	0.3969	-0.005
Mof_H 	H 	0.1977	0.7474	0.3423	0.011
Mof_Dy	Dy	0.9253	0.65588	0.93854	1.919
Mof_O 	O 	0.9478	0.3634	0.96754	-0.502
Mof_O 	O 	0.8722	0.5163	0.96012	-0.522
Mof_C 	C 	0.8903	0.4395	0.97208	0.499
Mof_C 	C 	0.8413	0.4398	0.99534	-0.147
Mof_C 	C 	0.8146	0.3472	0.00598	0.055
Mof_H 	H 	0.8255	0.284	0.9986	0.032
Mof_C 	C 	0.7715	0.3474	0.02765	-0.088
Mof_C 	C 	0.7579	0.4409	0.0387	0.003
Mof_H 	H 	0.7305	0.4421	0.0532	0.051
Mof_C 	C 	0.7857	0.5338	0.02798	-0.043
Mof_C 	C 	0.7732	0.6321	0.04006	0.088
Mof_N 	N 	0.7611	0.709	0.0496	-0.132
Mof_C 	C 	0.8261	0.5334	0.00591	0.033
Mof_H 	H 	0.842	0.5958	0.9987	0.035
Mof_C 	C 	0.7401	0.2469	0.03893	0.314
Mof_O 	O 	0.7504	0.1603	0.02906	-0.407
Mof_O 	O 	0.7028	0.2548	0.05836	-0.439
Mof_O 	O 	0.0633	0.6034	0.919	-0.586
Mof_O 	O 	0.154	0.4576	0.912	-0.505
Mof_C 	C 	0.1342	0.5522	0.90893	0.518
Mof_C 	C 	0.1947	0.6099	0.89137	-0.201
Mof_C 	C 	0.215	0.769	0.8697	-0.045
Mof_C 	C 	0.195	0.879	0.8677	0.064
Mof_N 	N 	0.167	0.965	0.8648	-0.124
Mof_C 	C 	0.1667	0.7153	0.8877	0.022
Mof_C 	C 	0.277	0.7179	0.855	0.037
Mof_H 	H 	0.1182	0.7484	0.8969	-0.005
Mof_H 	H 	0.3023	0.7526	0.8423	0.011
Mof_Dy	Dy	0.4253	0.15588	0.43854	1.919
Mof_O 	O 	0.4478	0.8634	0.46754	-0.502
Mof_O 	O 	0.3722	0.0163	0.46012	-0.522
Mof_C 	C 	0.3903	0.9395	0.47208	0.499
Mof_C 	C 	0.3413	0.9398	0.49534	-0.147
Mof_C 	C 	0.3146	0.8472	0.50598	0.055
Mof_H 	H 	0.3255	0.784	0.4986	0.032
Mof_C 	C 	0.2715	0.8474	0.52765	-0.088
Mof_C 	C 	0.2579	0.9409	0.5387	0.003
Mof_H 	H 	0.2305	0.9421	0.5532	0.051
Mof_C 	C 	0.2857	0.0338	0.52798	-0.043
Mof_C 	C 	0.2732	0.1321	0.54006	0.088
Mof_N 	N 	0.2611	0.209	0.5496	-0.132
Mof_C 	C 	0.3261	0.0334	0.50591	0.033
Mof_H 	H 	0.342	0.0958	0.4987	0.035
Mof_C 	C 	0.2401	0.7469	0.53893	0.314
Mof_O 	O 	0.2504	0.6603	0.52906	-0.407
Mof_O 	O 	0.2028	0.7548	0.55836	-0.439
Mof_O 	O 	0.5633	0.1034	0.419	-0.586
Mof_O 	O 	0.654	0.9576	0.412	-0.505
Mof_C 	C 	0.6342	0.0522	0.40893	0.517
Mof_C 	C 	0.6947	0.1099	0.39137	-0.201
Mof_C 	C 	0.715	0.269	0.3697	-0.045
Mof_C 	C 	0.695	0.379	0.3677	0.064
Mof_N 	N 	0.667	0.465	0.3648	-0.124
Mof_C 	C 	0.6667	0.2153	0.3877	0.022
Mof_C 	C 	0.777	0.2179	0.355	0.037
Mof_H 	H 	0.6182	0.2484	0.3969	-0.005
Mof_H 	H 	0.8023	0.2526	0.3423	0.011
Mof_Dy	Dy	0.84412	0.0747	0.68854	1.919
Mof_O 	O 	0.1366	0.0522	0.71754	-0.502
Mof_O 	O 	0.9837	0.1278	0.71012	-0.522
Mof_C 	C 	0.0605	0.1097	0.72208	0.499
Mof_C 	C 	0.0602	0.1587	0.74534	-0.147
Mof_C 	C 	0.1528	0.1854	0.75598	0.055
Mof_H 	H 	0.216	0.1745	0.7486	0.032
Mof_C 	C 	0.1526	0.2285	0.77765	-0.088
Mof_C 	C 	0.0591	0.2421	0.7887	0.003
Mof_H 	H 	0.0579	0.2695	0.8032	0.051
Mof_C 	C 	0.9662	0.2143	0.77798	-0.043
Mof_C 	C 	0.8679	0.2268	0.79006	0.088
Mof_N 	N 	0.791	0.2389	0.7996	-0.132
Mof_C 	C 	0.9666	0.1739	0.75591	0.033
Mof_H 	H 	0.9042	0.158	0.7487	0.035
Mof_C 	C 	0.2531	0.2599	0.78893	0.314
Mof_O 	O 	0.3397	0.2496	0.77906	-0.407
Mof_O 	O 	0.2452	0.2972	0.80836	-0.439
Mof_O 	O 	0.8966	0.9367	0.669	-0.586
Mof_O 	O 	0.0424	0.846	0.662	-0.505
Mof_C 	C 	0.9478	0.8658	0.65893	0.517
Mof_C 	C 	0.8901	0.8053	0.64137	-0.201
Mof_C 	C 	0.731	0.785	0.6197	-0.045
Mof_C 	C 	0.621	0.805	0.6177	0.064
Mof_N 	N 	0.535	0.833	0.6148	-0.124
Mof_C 	C 	0.7847	0.8333	0.6377	0.022
Mof_C 	C 	0.7821	0.723	0.605	0.037
Mof_H 	H 	0.7516	0.8818	0.6469	-0.005
Mof_H 	H 	0.7474	0.6977	0.5923	0.011
Mof_Dy	Dy	0.34412	0.5747	0.18854	1.919
Mof_O 	O 	0.6366	0.5522	0.21754	-0.502
Mof_O 	O 	0.4837	0.6278	0.21012	-0.522
Mof_C 	C 	0.5605	0.6097	0.22208	0.499
Mof_C 	C 	0.5602	0.6587	0.24534	-0.147
Mof_C 	C 	0.6528	0.6854	0.25598	0.055
Mof_H 	H 	0.716	0.6745	0.2486	0.032
Mof_C 	C 	0.6526	0.7285	0.27765	-0.088
Mof_C 	C 	0.5591	0.7421	0.2887	0.003
Mof_H 	H 	0.5579	0.7695	0.3032	0.051
Mof_C 	C 	0.4662	0.7143	0.27798	-0.043
Mof_C 	C 	0.3679	0.7268	0.29006	0.088
Mof_N 	N 	0.291	0.7389	0.2996	-0.132
Mof_C 	C 	0.4666	0.6739	0.25591	0.033
Mof_H 	H 	0.4042	0.658	0.2487	0.034
Mof_C 	C 	0.7531	0.7599	0.28893	0.314
Mof_O 	O 	0.8397	0.7496	0.27906	-0.407
Mof_O 	O 	0.7452	0.7972	0.30836	-0.439
Mof_O 	O 	0.3966	0.4367	0.169	-0.586
Mof_O 	O 	0.5424	0.346	0.162	-0.505
Mof_C 	C 	0.4478	0.3658	0.15893	0.518
Mof_C 	C 	0.3901	0.3053	0.14137	-0.201
Mof_C 	C 	0.231	0.285	0.1197	-0.045
Mof_C 	C 	0.121	0.305	0.1177	0.064
Mof_N 	N 	0.035	0.333	0.1148	-0.124
Mof_C 	C 	0.2847	0.3333	0.1377	0.022
Mof_C 	C 	0.2821	0.223	0.105	0.037
Mof_H 	H 	0.2516	0.3818	0.1469	-0.005
Mof_H 	H 	0.2474	0.1977	0.0923	0.011
Mof_Dy	Dy	0.15588	0.9253	0.68854	1.919
Mof_O 	O 	0.8634	0.9478	0.71754	-0.502
Mof_O 	O 	0.0163	0.8722	0.71012	-0.522
Mof_C 	C 	0.9395	0.8903	0.72208	0.499
Mof_C 	C 	0.9398	0.8413	0.74534	-0.147
Mof_C 	C 	0.8472	0.8146	0.75598	0.055
Mof_H 	H 	0.784	0.8255	0.7486	0.032
Mof_C 	C 	0.8474	0.7715	0.77765	-0.088
Mof_C 	C 	0.9409	0.7579	0.7887	0.003
Mof_H 	H 	0.9421	0.7305	0.8032	0.051
Mof_C 	C 	0.0338	0.7857	0.77798	-0.043
Mof_C 	C 	0.1321	0.7732	0.79006	0.088
Mof_N 	N 	0.209	0.7611	0.7996	-0.132
Mof_C 	C 	0.0334	0.8261	0.75591	0.033
Mof_H 	H 	0.0958	0.842	0.7487	0.035
Mof_C 	C 	0.7469	0.7401	0.78893	0.314
Mof_O 	O 	0.6603	0.7504	0.77906	-0.407
Mof_O 	O 	0.7548	0.7028	0.80836	-0.439
Mof_O 	O 	0.1034	0.0633	0.669	-0.586
Mof_O 	O 	0.9576	0.154	0.662	-0.505
Mof_C 	C 	0.0522	0.1342	0.65893	0.517
Mof_C 	C 	0.1099	0.1947	0.64137	-0.201
Mof_C 	C 	0.269	0.215	0.6197	-0.045
Mof_C 	C 	0.379	0.195	0.6177	0.064
Mof_N 	N 	0.465	0.167	0.6148	-0.124
Mof_C 	C 	0.2153	0.1667	0.6377	0.022
Mof_C 	C 	0.2179	0.277	0.605	0.037
Mof_H 	H 	0.2484	0.1182	0.6469	-0.005
Mof_H 	H 	0.2526	0.3023	0.5923	0.011
Mof_Dy	Dy	0.65588	0.4253	0.18854	1.919
Mof_O 	O 	0.3634	0.4478	0.21754	-0.502
Mof_O 	O 	0.5163	0.3722	0.21012	-0.522
Mof_C 	C 	0.4395	0.3903	0.22208	0.499
Mof_C 	C 	0.4398	0.3413	0.24534	-0.147
Mof_C 	C 	0.3472	0.3146	0.25598	0.055
Mof_H 	H 	0.284	0.3255	0.2486	0.032
Mof_C 	C 	0.3474	0.2715	0.27765	-0.088
Mof_C 	C 	0.4409	0.2579	0.2887	0.003
Mof_H 	H 	0.4421	0.2305	0.3032	0.051
Mof_C 	C 	0.5338	0.2857	0.27798	-0.043
Mof_C 	C 	0.6321	0.2732	0.29006	0.088
Mof_N 	N 	0.709	0.2611	0.2996	-0.132
Mof_C 	C 	0.5334	0.3261	0.25591	0.033
Mof_H 	H 	0.5958	0.342	0.2487	0.034
Mof_C 	C 	0.2469	0.2401	0.28893	0.314
Mof_O 	O 	0.1603	0.2504	0.27906	-0.407
Mof_O 	O 	0.2548	0.2028	0.30836	-0.439
Mof_O 	O 	0.6034	0.5633	0.169	-0.586
Mof_O 	O 	0.4576	0.654	0.162	-0.505
Mof_C 	C 	0.5522	0.6342	0.15893	0.518
Mof_C 	C 	0.6099	0.6947	0.14137	-0.201
Mof_C 	C 	0.769	0.715	0.1197	-0.045
Mof_C 	C 	0.879	0.695	0.1177	0.064
Mof_N 	N 	0.965	0.667	0.1148	-0.124
Mof_C 	C 	0.7153	0.6667	0.1377	0.022
Mof_C 	C 	0.7179	0.777	0.105	0.037
Mof_H 	H 	0.7484	0.6182	0.1469	-0.005
Mof_H 	H 	0.7526	0.8023	0.0923	0.011
Mof_Dy	Dy	0.4253	0.34412	0.81146	1.919
Mof_O 	O 	0.4478	0.6366	0.78246	-0.502
Mof_O 	O 	0.3722	0.4837	0.78988	-0.522
Mof_C 	C 	0.3903	0.5605	0.77792	0.499
Mof_C 	C 	0.3413	0.5602	0.75466	-0.147
Mof_C 	C 	0.3146	0.6528	0.74402	0.055
Mof_H 	H 	0.3255	0.716	0.7514	0.032
Mof_C 	C 	0.2715	0.6526	0.72235	-0.088
Mof_C 	C 	0.2579	0.5591	0.7113	0.003
Mof_H 	H 	0.2305	0.5579	0.6968	0.051
Mof_C 	C 	0.2857	0.4662	0.72202	-0.043
Mof_C 	C 	0.2732	0.3679	0.70994	0.088
Mof_N 	N 	0.2611	0.291	0.7004	-0.132
Mof_C 	C 	0.3261	0.4666	0.74409	0.033
Mof_H 	H 	0.342	0.4042	0.7513	0.034
Mof_C 	C 	0.2401	0.7531	0.71107	0.314
Mof_O 	O 	0.2504	0.8397	0.72094	-0.407
Mof_O 	O 	0.2028	0.7452	0.69164	-0.439
Mof_O 	O 	0.5633	0.3966	0.831	-0.586
Mof_O 	O 	0.654	0.5424	0.838	-0.505
Mof_C 	C 	0.6342	0.4478	0.84107	0.518
Mof_C 	C 	0.6947	0.3901	0.85863	-0.201
Mof_C 	C 	0.715	0.231	0.8803	-0.045
Mof_C 	C 	0.695	0.121	0.8823	0.064
Mof_N 	N 	0.667	0.035	0.8852	-0.124
Mof_C 	C 	0.6667	0.2847	0.8623	0.022
Mof_C 	C 	0.777	0.2821	0.895	0.037
Mof_H 	H 	0.6182	0.2516	0.8531	-0.005
Mof_H 	H 	0.8023	0.2474	0.9077	0.011
Mof_Dy	Dy	0.9253	0.84412	0.31146	1.919
Mof_O 	O 	0.9478	0.1366	0.28246	-0.502
Mof_O 	O 	0.8722	0.9837	0.28988	-0.522
Mof_C 	C 	0.8903	0.0605	0.27792	0.499
Mof_C 	C 	0.8413	0.0602	0.25466	-0.147
Mof_C 	C 	0.8146	0.1528	0.24402	0.055
Mof_H 	H 	0.8255	0.216	0.2514	0.032
Mof_C 	C 	0.7715	0.1526	0.22235	-0.088
Mof_C 	C 	0.7579	0.0591	0.2113	0.003
Mof_H 	H 	0.7305	0.0579	0.1968	0.051
Mof_C 	C 	0.7857	0.9662	0.22202	-0.043
Mof_C 	C 	0.7732	0.8679	0.20994	0.088
Mof_N 	N 	0.7611	0.791	0.2004	-0.132
Mof_C 	C 	0.8261	0.9666	0.24409	0.033
Mof_H 	H 	0.842	0.9042	0.2513	0.035
Mof_C 	C 	0.7401	0.2531	0.21107	0.314
Mof_O 	O 	0.7504	0.3397	0.22094	-0.407
Mof_O 	O 	0.7028	0.2452	0.19164	-0.439
Mof_O 	O 	0.0633	0.8966	0.331	-0.586
Mof_O 	O 	0.154	0.0424	0.338	-0.505
Mof_C 	C 	0.1342	0.9478	0.34107	0.517
Mof_C 	C 	0.1947	0.8901	0.35863	-0.201
Mof_C 	C 	0.215	0.731	0.3803	-0.045
Mof_C 	C 	0.195	0.621	0.3823	0.064
Mof_N 	N 	0.167	0.535	0.3852	-0.124
Mof_C 	C 	0.1667	0.7847	0.3623	0.022
Mof_C 	C 	0.277	0.7821	0.395	0.037
Mof_H 	H 	0.1182	0.7516	0.3531	-0.005
Mof_H 	H 	0.3023	0.7474	0.4077	0.011
Mof_Dy	Dy	0.5747	0.65588	0.81146	1.919
Mof_O 	O 	0.5522	0.3634	0.78246	-0.502
Mof_O 	O 	0.6278	0.5163	0.78988	-0.522
Mof_C 	C 	0.6097	0.4395	0.77792	0.499
Mof_C 	C 	0.6587	0.4398	0.75466	-0.147
Mof_C 	C 	0.6854	0.3472	0.74402	0.055
Mof_H 	H 	0.6745	0.284	0.7514	0.032
Mof_C 	C 	0.7285	0.3474	0.72235	-0.088
Mof_C 	C 	0.7421	0.4409	0.7113	0.003
Mof_H 	H 	0.7695	0.4421	0.6968	0.051
Mof_C 	C 	0.7143	0.5338	0.72202	-0.043
Mof_C 	C 	0.7268	0.6321	0.70994	0.088
Mof_N 	N 	0.7389	0.709	0.7004	-0.132
Mof_C 	C 	0.6739	0.5334	0.74409	0.033
Mof_H 	H 	0.658	0.5958	0.7513	0.034
Mof_C 	C 	0.7599	0.2469	0.71107	0.314
Mof_O 	O 	0.7496	0.1603	0.72094	-0.407
Mof_O 	O 	0.7972	0.2548	0.69164	-0.439
Mof_O 	O 	0.4367	0.6034	0.831	-0.586
Mof_O 	O 	0.346	0.4576	0.838	-0.505
Mof_C 	C 	0.3658	0.5522	0.84107	0.518
Mof_C 	C 	0.3053	0.6099	0.85863	-0.201
Mof_C 	C 	0.285	0.769	0.8803	-0.045
Mof_C 	C 	0.305	0.879	0.8823	0.064
Mof_N 	N 	0.333	0.965	0.8852	-0.124
Mof_C 	C 	0.3333	0.7153	0.8623	0.022
Mof_C 	C 	0.223	0.7179	0.895	0.037
Mof_H 	H 	0.3818	0.7484	0.8531	-0.005
Mof_H 	H 	0.1977	0.7526	0.9077	0.011
Mof_Dy	Dy	0.0747	0.15588	0.31146	1.919
Mof_O 	O 	0.0522	0.8634	0.28246	-0.502
Mof_O 	O 	0.1278	0.0163	0.28988	-0.522
Mof_C 	C 	0.1097	0.9395	0.27792	0.499
Mof_C 	C 	0.1587	0.9398	0.25466	-0.147
Mof_C 	C 	0.1854	0.8472	0.24402	0.055
Mof_H 	H 	0.1745	0.784	0.2514	0.032
Mof_C 	C 	0.2285	0.8474	0.22235	-0.088
Mof_C 	C 	0.2421	0.9409	0.2113	0.003
Mof_H 	H 	0.2695	0.9421	0.1968	0.051
Mof_C 	C 	0.2143	0.0338	0.22202	-0.043
Mof_C 	C 	0.2268	0.1321	0.20994	0.088
Mof_N 	N 	0.2389	0.209	0.2004	-0.132
Mof_C 	C 	0.1739	0.0334	0.24409	0.033
Mof_H 	H 	0.158	0.0958	0.2513	0.035
Mof_C 	C 	0.2599	0.7469	0.21107	0.314
Mof_O 	O 	0.2496	0.6603	0.22094	-0.407
Mof_O 	O 	0.2972	0.7548	0.19164	-0.439
Mof_O 	O 	0.9367	0.1034	0.331	-0.586
Mof_O 	O 	0.846	0.9576	0.338	-0.505
Mof_C 	C 	0.8658	0.0522	0.34107	0.517
Mof_C 	C 	0.8053	0.1099	0.35863	-0.201
Mof_C 	C 	0.785	0.269	0.3803	-0.045
Mof_C 	C 	0.805	0.379	0.3823	0.064
Mof_N 	N 	0.833	0.465	0.3852	-0.124
Mof_C 	C 	0.8333	0.2153	0.3623	0.022
Mof_C 	C 	0.723	0.2179	0.395	0.037
Mof_H 	H 	0.8818	0.2484	0.3531	-0.005
Mof_H 	H 	0.6977	0.2526	0.4077	0.011
Mof_C 	C 	0.5572	0.75	0.125	0.136
Mof_H 	H 	0.4846	0.75	0.125	-0.002
Mof_C 	C 	0.0572	0.25	0.625	0.136
Mof_H 	H 	0.9846	0.25	0.625	-0.002
Mof_C 	C 	0.4428	0.25	0.125	0.136
Mof_H 	H 	0.5154	0.25	0.125	-0.002
Mof_C 	C 	0.75	0.4428	0.875	0.136
Mof_H 	H 	0.75	0.5154	0.875	-0.002
Mof_C 	C 	0.25	0.9428	0.375	0.136
Mof_H 	H 	0.25	0.0154	0.375	-0.002
Mof_C 	C 	0.25	0.5572	0.875	0.136
Mof_H 	H 	0.25	0.4846	0.875	-0.002
Mof_C 	C 	0.75	0.0572	0.375	0.136
Mof_H 	H 	0.75	0.9846	0.375	-0.002
Mof_C 	C 	0.9428	0.75	0.625	0.136
Mof_H 	H 	0.0154	0.75	0.625	-0.002
_end
