data_functionalizedCrystal
_audit_creation_method	'EQeq! by Chris Wilmer'
_symmetry_space_group_name_H-M	'P1'
_symmetry_Int_Tables_number	1
_symmetry_cell_setting	triclinic
loop_
_symmetry_equiv_pos_as_xyz
  x,y,z
_cell_length_a	13.87
_cell_length_b	19.023
_cell_length_c	19.238
_cell_angle_alpha	90
_cell_angle_beta	90
_cell_angle_gamma	90
loop_
_atom_site_label
_atom_site_type_symbol
_atom_site_fract_x
_atom_site_fract_y
_atom_site_fract_z
_atom_site_charge
Mof_Zn	Zn	0.40436	0.48379	0.95568	1.208
Mof_Zn	Zn	0.59564	0.98379	0.54432	1.208
Mof_Zn	Zn	0.36452	0.60322	0.06744	1.226
Mof_Zn	Zn	0.63548	0.10322	0.43256	1.226
Mof_Zn	Zn	0.36452	0.89678	0.56744	1.226
Mof_Zn	Zn	0.59564	0.51621	0.04432	1.209
Mof_Zn	Zn	0.63548	0.39678	0.93256	1.226
Mof_Zn	Zn	0.40436	0.01621	0.45568	1.209
Mof_H 	H 	0.6227	0.0236	0.7055	0.017
Mof_H 	H 	0.6237	0.1319	0.1564	0.059
Mof_H 	H 	0.4113	0.7817	0.2005	0.069
Mof_H 	H 	0.3466	0.1797	0.9883	0.048
Mof_H 	H 	0.3835	0.3666	0.0762	-0.004
Mof_H 	H 	0.4251	0.0162	0.5907	0.184
Mof_H 	H 	0.4251	0.4838	0.0907	0.183
Mof_H 	H 	0.6516	0.6498	0.3187	0.04
Mof_H 	H 	0.6534	0.6797	0.5117	0.048
Mof_H 	H 	0.9514	0.0906	0.4292	0.051
Mof_H 	H 	0.8882	0.5678	0.0568	0.05
Mof_H 	H 	0.5887	0.2817	0.2995	0.069
Mof_H 	H 	0.3556	0.4708	0.6879	0.079
Mof_H 	H 	0.3484	0.3502	0.6813	0.04
Mof_H 	H 	0.3773	0.5236	0.7945	0.018
Mof_H 	H 	0.3763	0.6319	0.3436	0.06
Mof_H 	H 	0.3556	0.0292	0.1879	0.08
Mof_H 	H 	0.9514	0.4094	0.9292	0.05
Mof_H 	H 	0.5767	0.1356	0.7116	0.051
Mof_H 	H 	0.1118	0.4322	0.9432	0.05
Mof_H 	H 	0.6534	0.8203	0.0117	0.048
Mof_H 	H 	0.3466	0.3203	0.4883	0.048
Mof_H 	H 	0.4113	0.7183	0.7005	0.069
Mof_H 	H 	0.3549	0.2522	0.5883	0.083
Mof_H 	H 	0.3763	0.8681	0.8436	0.059
Mof_H 	H 	0.5749	0.9838	0.4093	0.184
Mof_H 	H 	0.3773	0.9764	0.2945	0.017
Mof_H 	H 	0.4233	0.6356	0.7884	0.051
Mof_H 	H 	0.6165	0.8666	0.4238	-0.004
Mof_H 	H 	0.5887	0.2183	0.7995	0.069
Mof_H 	H 	0.8882	0.9322	0.5568	0.049
Mof_H 	H 	0.6444	0.9708	0.8121	0.08
Mof_H 	H 	0.6237	0.3681	0.6564	0.06
Mof_H 	H 	0.3807	0.7857	0.9313	0.051
Mof_H 	H 	0.3835	0.1334	0.5762	-0.004
Mof_H 	H 	0.6193	0.2857	0.5687	0.051
Mof_H 	H 	0.6516	0.8502	0.8187	0.04
Mof_H 	H 	0.1118	0.0678	0.4432	0.049
Mof_H 	H 	0.5749	0.5162	0.9093	0.183
Mof_H 	H 	0.0486	0.9094	0.5708	0.051
Mof_H 	H 	0.3549	0.2478	0.0883	0.083
Mof_H 	H 	0.6193	0.2143	0.0687	0.051
Mof_H 	H 	0.3484	0.1498	0.1813	0.04
Mof_H 	H 	0.0486	0.5906	0.0708	0.05
Mof_H 	H 	0.3807	0.7143	0.4313	0.051
Mof_H 	H 	0.4233	0.8644	0.2884	0.051
Mof_H 	H 	0.6165	0.6334	0.9238	-0.004
Mof_H 	H 	0.6444	0.5292	0.3121	0.079
Mof_H 	H 	0.6227	0.4764	0.2055	0.018
Mof_H 	H 	0.6451	0.7478	0.4117	0.083
Mof_H 	H 	0.6451	0.7522	0.9117	0.083
Mof_H 	H 	0.5767	0.3644	0.2116	0.051
Mof_C 	C 	0.9333	0.9598	0.5337	-0.001
Mof_C 	C 	0.9333	0.5402	0.0337	-0.007
Mof_C 	C 	0.3735	0.0252	0.2926	0.074
Mof_C 	C 	0.3922	0.6981	0.2627	-0.043
Mof_C 	C 	0.6017	0.2014	0.6308	-0.079
Mof_C 	C 	0.6227	0.8392	0.4635	0.071
Mof_C 	C 	0.3735	0.4748	0.7926	0.073
Mof_C 	C 	0.6017	0.2986	0.1308	-0.079
Mof_C 	C 	0.0667	0.0402	0.4663	-0.001
Mof_C 	C 	0.4057	0.7678	0.2467	-0.029
Mof_C 	C 	0.6078	0.1981	0.2373	-0.043
Mof_C 	C 	0.3631	0.2588	0.9202	-0.031
Mof_C 	C 	0.3558	0.1275	0.2241	0.016
Mof_C 	C 	0.6437	0.7164	0.6459	0.105
Mof_C 	C 	0.638	0.8328	0.7142	-0.042
Mof_C 	C 	0.3983	0.7986	0.3692	-0.079
Mof_C 	C 	0.0978	0.9856	0.5084	-0.078
Mof_C 	C 	0.6386	0.768	0.4555	-0.103
Mof_C 	C 	0.5889	0.1823	0.7005	0.007
Mof_C 	C 	0.2031	0.9711	0.5151	0.371
Mof_C 	C 	0.6161	0.3209	0.6677	-0.035
Mof_C 	C 	0.6029	0.3534	0.0742	0.376
Mof_C 	C 	0.0667	0.4598	0.9663	-0.007
Mof_C 	C 	0.6078	0.3019	0.7373	-0.043
Mof_C 	C 	0.6393	0.9435	0.7722	-0.1
Mof_C 	C 	0.3537	0.2553	0.7838	0.112
Mof_C 	C 	0.6265	0.9748	0.7074	0.074
Mof_C 	C 	0.3971	0.6466	0.9258	0.376
Mof_C 	C 	0.6133	0.2716	0.6147	-0.005
Mof_C 	C 	0.3537	0.2447	0.2838	0.112
Mof_C 	C 	0.3558	0.3725	0.7241	0.016
Mof_C 	C 	0.0294	0.554	0.042	-0.016
Mof_C 	C 	0.3556	0.272	0.4849	0.004
Mof_C 	C 	0.362	0.3328	0.7858	-0.041
Mof_C 	C 	0.6029	0.1466	0.5742	0.376
Mof_C 	C 	0.7969	0.0289	0.4849	0.371
Mof_C 	C 	0.3839	0.6791	0.3323	-0.035
Mof_C 	C 	0.3867	0.7716	0.8853	-0.005
Mof_C 	C 	0.3556	0.228	0.9849	0.007
Mof_C 	C 	0.3773	0.3392	0.0365	0.071
Mof_C 	C 	0.9022	0.4856	0.9916	-0.076
Mof_C 	C 	0.0294	0.946	0.542	-0.019
Mof_C 	C 	0.386	0.8556	0.7051	0.321
Mof_C 	C 	0.6258	0.8689	0.6511	0.04
Mof_C 	C 	0.6463	0.7447	0.2162	0.112
Mof_C 	C 	0.614	0.1444	0.2949	0.321
Mof_C 	C 	0.362	0.1672	0.2858	-0.042
Mof_C 	C 	0.6265	0.5252	0.2074	0.073
Mof_C 	C 	0.3971	0.8534	0.4258	0.376
Mof_C 	C 	0.6393	0.5565	0.2722	-0.099
Mof_C 	C 	0.6369	0.7588	0.5798	-0.031
Mof_C 	C 	0.3742	0.3689	0.8489	0.04
Mof_C 	C 	0.3607	0.0565	0.2278	-0.1
Mof_C 	C 	0.6444	0.728	0.5151	0.004
Mof_C 	C 	0.3563	0.2836	0.3541	0.105
Mof_C 	C 	0.5943	0.2322	0.7533	-0.029
Mof_C 	C 	0.0978	0.5144	0.0084	-0.076
Mof_C 	C 	0.9706	0.054	0.458	-0.019
Mof_C 	C 	0.9022	0.0144	0.4916	-0.078
Mof_C 	C 	0.3839	0.8209	0.8323	-0.035
Mof_C 	C 	0.6227	0.6608	0.9635	0.071
Mof_C 	C 	0.6386	0.732	0.9555	-0.105
Mof_C 	C 	0.6442	0.8725	0.7759	0.016
Mof_C 	C 	0.638	0.6672	0.2142	-0.041
Mof_C 	C 	0.2031	0.5289	0.0151	0.372
Mof_C 	C 	0.7969	0.4711	0.9849	0.372
Mof_C 	C 	0.3607	0.4435	0.7278	-0.099
Mof_C 	C 	0.6133	0.2284	0.1147	-0.005
Mof_C 	C 	0.3759	0.3314	0.9161	0.026
Mof_C 	C 	0.3614	0.268	0.0445	-0.105
Mof_C 	C 	0.3867	0.7284	0.3853	-0.005
Mof_C 	C 	0.6444	0.772	0.0151	0.007
Mof_C 	C 	0.3742	0.1311	0.3489	0.04
Mof_C 	C 	0.6369	0.7412	0.0798	-0.031
Mof_C 	C 	0.5889	0.3177	0.2005	0.007
Mof_C 	C 	0.6241	0.6686	0.0839	0.026
Mof_C 	C 	0.3773	0.1608	0.5365	0.071
Mof_C 	C 	0.6161	0.1791	0.1677	-0.035
Mof_C 	C 	0.3983	0.7014	0.8692	-0.079
Mof_C 	C 	0.6241	0.8314	0.5839	0.025
Mof_C 	C 	0.3922	0.8019	0.7627	-0.043
Mof_C 	C 	0.9706	0.446	0.958	-0.016
Mof_C 	C 	0.614	0.3556	0.7949	0.321
Mof_C 	C 	0.6463	0.7553	0.7162	0.112
Mof_C 	C 	0.3759	0.1686	0.4161	0.025
Mof_C 	C 	0.3631	0.2412	0.4202	-0.031
Mof_C 	C 	0.386	0.6444	0.2051	0.321
Mof_C 	C 	0.6442	0.6275	0.2759	0.016
Mof_C 	C 	0.6258	0.6311	0.1511	0.04
Mof_C 	C 	0.6437	0.7836	0.1459	0.105
Mof_C 	C 	0.4057	0.7322	0.7467	-0.029
Mof_C 	C 	0.4111	0.8177	0.2995	0.007
Mof_C 	C 	0.3614	0.232	0.5445	-0.103
Mof_C 	C 	0.5943	0.2678	0.2533	-0.029
Mof_C 	C 	0.3563	0.2164	0.8541	0.105
Mof_C 	C 	0.4111	0.6823	0.7995	0.007
Mof_N 	N 	0.3843	0.3709	0.9746	-0.233
Mof_N 	N 	0.3843	0.1291	0.4746	-0.233
Mof_N 	N 	0.6157	0.8709	0.5254	-0.233
Mof_N 	N 	0.6194	0.561	0.1475	-0.221
Mof_N 	N 	0.3806	0.061	0.3525	-0.221
Mof_N 	N 	0.6194	0.939	0.6475	-0.221
Mof_N 	N 	0.6157	0.6291	0.0254	-0.233
Mof_N 	N 	0.3806	0.439	0.8525	-0.221
Mof_O 	O 	0.6551	0.7782	0.271	-0.185
Mof_O 	O 	0.6206	0.4185	0.7795	-0.294
Mof_O 	O 	0.3873	0.6678	0.1431	-0.445
Mof_O 	O 	0.4096	0.58377	0.90803	-0.459
Mof_O 	O 	0.3794	0.5815	0.2205	-0.294
Mof_O 	O 	0.6127	0.3322	0.8569	-0.445
Mof_O 	O 	0.3504	0.1519	0.855	-0.177
Mof_O 	O 	0.3873	0.8322	0.6431	-0.445
Mof_O 	O 	0.6496	0.6519	0.645	-0.177
Mof_O 	O 	0.228	0.92453	0.5598	-0.467
Mof_O 	O 	0.6551	0.7218	0.771	-0.185
Mof_O 	O 	0.5904	0.08377	0.59197	-0.46
Mof_O 	O 	0.4445	0.98098	0.55627	-0.764
Mof_O 	O 	0.5555	0.48098	0.94373	-0.764
Mof_O 	O 	0.3449	0.2782	0.229	-0.185
Mof_O 	O 	0.7413	0.5058	0.0227	-0.464
Mof_O 	O 	0.3794	0.9185	0.7205	-0.294
Mof_O 	O 	0.772	0.42453	0.9402	-0.467
Mof_O 	O 	0.383	0.6673	0.98773	-0.463
Mof_O 	O 	0.228	0.57547	0.0598	-0.467
Mof_O 	O 	0.2587	0.0058	0.4773	-0.462
Mof_O 	O 	0.5904	0.41623	0.09197	-0.459
Mof_O 	O 	0.383	0.8327	0.48773	-0.463
Mof_O 	O 	0.772	0.07547	0.4402	-0.467
Mof_O 	O 	0.617	0.3327	0.01227	-0.463
Mof_O 	O 	0.3504	0.3481	0.355	-0.177
Mof_O 	O 	0.6496	0.8481	0.145	-0.177
Mof_O 	O 	0.2587	0.4942	0.9773	-0.464
Mof_O 	O 	0.7413	0.9942	0.5227	-0.462
Mof_O 	O 	0.6206	0.0815	0.2795	-0.294
Mof_O 	O 	0.6127	0.1678	0.3569	-0.445
Mof_O 	O 	0.5555	0.01902	0.44373	-0.764
Mof_O 	O 	0.617	0.1673	0.51227	-0.463
Mof_O 	O 	0.4445	0.51902	0.05627	-0.764
Mof_O 	O 	0.3449	0.2218	0.729	-0.185
Mof_O 	O 	0.4096	0.91623	0.40803	-0.46
Mof_Zn	Zn	0.86452	0.60322	0.43256	1.226
Mof_Zn	Zn	0.90436	0.01621	0.04432	1.208
Mof_Zn	Zn	0.09564	0.51621	0.45568	1.209
Mof_Zn	Zn	0.13548	0.39678	0.56744	1.226
Mof_Zn	Zn	0.09564	0.98379	0.95568	1.208
Mof_Zn	Zn	0.90436	0.48379	0.54432	1.209
Mof_Zn	Zn	0.86452	0.89678	0.93256	1.226
Mof_Zn	Zn	0.13548	0.10322	0.06744	1.226
Mof_H 	H 	0.8549	0.2478	0.4117	0.082
Mof_H 	H 	0.0749	0.5162	0.5907	0.183
Mof_H 	H 	0.9251	0.0162	0.9093	0.181
Mof_H 	H 	0.1534	0.8203	0.4883	0.048
Mof_H 	H 	0.8549	0.2522	0.9117	0.083
Mof_H 	H 	0.9113	0.7817	0.2995	0.069
Mof_H 	H 	0.6118	0.4322	0.5568	0.051
Mof_H 	H 	0.1451	0.7478	0.0883	0.083
Mof_H 	H 	0.8466	0.3203	0.0117	0.048
Mof_H 	H 	0.1516	0.8502	0.6813	0.041
Mof_H 	H 	0.0887	0.2817	0.2005	0.069
Mof_H 	H 	0.1516	0.6498	0.1813	0.04
Mof_H 	H 	0.1193	0.2143	0.4313	0.052
Mof_H 	H 	0.8773	0.9764	0.2055	0.024
Mof_H 	H 	0.8484	0.1498	0.3187	0.041
Mof_H 	H 	0.8484	0.3502	0.8187	0.04
Mof_H 	H 	0.1237	0.3681	0.8436	0.06
Mof_H 	H 	0.1165	0.6334	0.5762	-0.004
Mof_H 	H 	0.8835	0.3666	0.4238	-0.004
Mof_H 	H 	0.0887	0.2183	0.7005	0.069
Mof_H 	H 	0.3882	0.5678	0.4432	0.051
Mof_H 	H 	0.5486	0.9094	0.9292	0.05
Mof_H 	H 	0.9233	0.8644	0.2116	0.052
Mof_H 	H 	0.1534	0.6797	0.9883	0.048
Mof_H 	H 	0.8807	0.7857	0.5687	0.052
Mof_H 	H 	0.5486	0.5906	0.4292	0.05
Mof_H 	H 	0.0749	0.9838	0.0907	0.181
Mof_H 	H 	0.1237	0.1319	0.3436	0.06
Mof_H 	H 	0.1444	0.9708	0.6879	0.076
Mof_H 	H 	0.0767	0.1356	0.7884	0.052
Mof_H 	H 	0.1165	0.8666	0.0762	-0.005
Mof_H 	H 	0.4514	0.0906	0.0708	0.05
Mof_H 	H 	0.0767	0.3644	0.2884	0.051
Mof_H 	H 	0.1227	0.4764	0.2945	0.018
Mof_H 	H 	0.3882	0.9322	0.9432	0.051
Mof_H 	H 	0.1444	0.5292	0.1879	0.079
Mof_H 	H 	0.1227	0.0236	0.7945	0.024
Mof_H 	H 	0.8807	0.7143	0.0687	0.052
Mof_H 	H 	0.4514	0.4094	0.5708	0.05
Mof_H 	H 	0.8556	0.0292	0.3121	0.076
Mof_H 	H 	0.9233	0.6356	0.7116	0.051
Mof_H 	H 	0.8763	0.6319	0.1564	0.06
Mof_H 	H 	0.6118	0.0678	0.0568	0.051
Mof_H 	H 	0.8763	0.8681	0.6564	0.06
Mof_H 	H 	0.8466	0.1797	0.5117	0.048
Mof_H 	H 	0.9113	0.7183	0.7995	0.069
Mof_H 	H 	0.8556	0.4708	0.8121	0.079
Mof_H 	H 	0.1193	0.2857	0.9313	0.052
Mof_H 	H 	0.8835	0.1334	0.9238	-0.005
Mof_H 	H 	0.1451	0.7522	0.5883	0.082
Mof_H 	H 	0.9251	0.4838	0.4093	0.183
Mof_H 	H 	0.8773	0.5236	0.7055	0.018
Mof_C 	C 	0.8759	0.1686	0.0839	0.025
Mof_C 	C 	0.8735	0.4748	0.7074	0.073
Mof_C 	C 	0.1369	0.7588	0.9202	-0.031
Mof_C 	C 	0.4022	0.4856	0.5084	-0.075
Mof_C 	C 	0.1258	0.8689	0.8489	0.039
Mof_C 	C 	0.5294	0.554	0.458	-0.013
Mof_C 	C 	0.8563	0.2164	0.6459	0.105
Mof_C 	C 	0.0889	0.1823	0.7995	0.007
Mof_C 	C 	0.1265	0.5252	0.2926	0.073
Mof_C 	C 	0.1133	0.2716	0.8853	-0.005
Mof_C 	C 	0.8867	0.7716	0.6147	-0.004
Mof_C 	C 	0.1227	0.6608	0.5365	0.071
Mof_C 	C 	0.8537	0.2447	0.2162	0.111
Mof_C 	C 	0.2969	0.0289	0.0151	0.374
Mof_C 	C 	0.1369	0.7412	0.4202	-0.031
Mof_C 	C 	0.8614	0.268	0.4555	-0.103
Mof_C 	C 	0.8607	0.0565	0.2722	-0.094
Mof_C 	C 	0.4333	0.5402	0.4663	-0.011
Mof_C 	C 	0.8971	0.6466	0.5742	0.376
Mof_C 	C 	0.4333	0.9598	0.9663	-0.011
Mof_C 	C 	0.1241	0.6686	0.4161	0.025
Mof_C 	C 	0.886	0.8556	0.7949	0.321
Mof_C 	C 	0.1078	0.3019	0.7627	-0.043
Mof_C 	C 	0.8558	0.1275	0.2759	0.012
Mof_C 	C 	0.1227	0.8392	0.0365	0.071
Mof_C 	C 	0.1437	0.7836	0.3541	0.105
Mof_C 	C 	0.5667	0.0402	0.0337	-0.011
Mof_C 	C 	0.9057	0.7322	0.7533	-0.029
Mof_C 	C 	0.1386	0.732	0.5445	-0.103
Mof_C 	C 	0.0889	0.3177	0.2995	0.007
Mof_C 	C 	0.9111	0.8177	0.2005	0.007
Mof_C 	C 	0.8537	0.2553	0.7162	0.112
Mof_C 	C 	0.8971	0.8534	0.0742	0.376
Mof_C 	C 	0.1265	0.9748	0.7926	0.064
Mof_C 	C 	0.1241	0.8314	0.9161	0.025
Mof_C 	C 	0.8839	0.8209	0.6677	-0.035
Mof_C 	C 	0.1463	0.7447	0.2838	0.112
Mof_C 	C 	0.1017	0.2986	0.3692	-0.079
Mof_C 	C 	0.138	0.8328	0.7858	-0.04
Mof_C 	C 	0.862	0.3328	0.7142	-0.042
Mof_C 	C 	0.4022	0.0144	0.0084	-0.075
Mof_C 	C 	0.9111	0.6823	0.7005	0.007
Mof_C 	C 	0.1161	0.3209	0.8323	-0.035
Mof_C 	C 	0.1393	0.5565	0.2278	-0.099
Mof_C 	C 	0.886	0.6444	0.2949	0.321
Mof_C 	C 	0.1463	0.7553	0.7838	0.111
Mof_C 	C 	0.1017	0.2014	0.8692	-0.078
Mof_C 	C 	0.8773	0.1608	0.9635	0.071
Mof_C 	C 	0.7031	0.9711	0.9849	0.374
Mof_C 	C 	0.2969	0.4711	0.5151	0.373
Mof_C 	C 	0.1393	0.9435	0.7278	-0.094
Mof_C 	C 	0.8742	0.3689	0.6511	0.04
Mof_C 	C 	0.1258	0.6311	0.3489	0.04
Mof_C 	C 	0.8983	0.7986	0.1308	-0.078
Mof_C 	C 	0.8607	0.4435	0.7722	-0.099
Mof_C 	C 	0.1444	0.728	0.9849	0.005
Mof_C 	C 	0.1161	0.1791	0.3323	-0.035
Mof_C 	C 	0.4706	0.054	0.042	-0.013
Mof_C 	C 	0.8614	0.232	0.9555	-0.104
Mof_C 	C 	0.8556	0.228	0.5151	0.004
Mof_C 	C 	0.8773	0.3392	0.4635	0.071
Mof_C 	C 	0.114	0.3556	0.7051	0.321
Mof_C 	C 	0.1442	0.8725	0.7241	0.012
Mof_C 	C 	0.8558	0.3725	0.7759	0.016
Mof_C 	C 	0.1442	0.6275	0.2241	0.016
Mof_C 	C 	0.1444	0.772	0.4849	0.004
Mof_C 	C 	0.1029	0.1466	0.9258	0.376
Mof_C 	C 	0.5294	0.946	0.958	-0.013
Mof_C 	C 	0.9057	0.7678	0.2533	-0.029
Mof_C 	C 	0.8631	0.2588	0.5798	-0.031
Mof_C 	C 	0.8867	0.7284	0.1147	-0.005
Mof_C 	C 	0.8922	0.8019	0.7373	-0.043
Mof_C 	C 	0.5978	0.9856	0.9916	-0.075
Mof_C 	C 	0.8735	0.0252	0.2074	0.064
Mof_C 	C 	0.0943	0.2678	0.2467	-0.029
Mof_C 	C 	0.8983	0.7014	0.6308	-0.079
Mof_C 	C 	0.8759	0.3314	0.5839	0.025
Mof_C 	C 	0.7031	0.5289	0.4849	0.373
Mof_C 	C 	0.1133	0.2284	0.3853	-0.004
Mof_C 	C 	0.8631	0.2412	0.0798	-0.031
Mof_C 	C 	0.8563	0.2836	0.1459	0.105
Mof_C 	C 	0.8922	0.6981	0.2373	-0.043
Mof_C 	C 	0.8742	0.1311	0.1511	0.039
Mof_C 	C 	0.862	0.1672	0.2142	-0.04
Mof_C 	C 	0.1437	0.7164	0.8541	0.105
Mof_C 	C 	0.1029	0.3534	0.4258	0.376
Mof_C 	C 	0.138	0.6672	0.2858	-0.042
Mof_C 	C 	0.4706	0.446	0.542	-0.013
Mof_C 	C 	0.114	0.1444	0.2051	0.321
Mof_C 	C 	0.8556	0.272	0.0151	0.005
Mof_C 	C 	0.1078	0.1981	0.2627	-0.043
Mof_C 	C 	0.5978	0.5144	0.4916	-0.075
Mof_C 	C 	0.8839	0.6791	0.1677	-0.035
Mof_C 	C 	0.0943	0.2322	0.7467	-0.029
Mof_C 	C 	0.1386	0.768	0.0445	-0.104
Mof_C 	C 	0.5667	0.4598	0.5337	-0.011
Mof_N 	N 	0.1157	0.6291	0.4746	-0.233
Mof_N 	N 	0.8843	0.3709	0.5254	-0.233
Mof_N 	N 	0.8806	0.439	0.6475	-0.221
Mof_N 	N 	0.1194	0.939	0.8525	-0.22
Mof_N 	N 	0.1157	0.8709	0.9746	-0.233
Mof_N 	N 	0.8806	0.061	0.1475	-0.22
Mof_N 	N 	0.8843	0.1291	0.0254	-0.233
Mof_N 	N 	0.1194	0.561	0.3525	-0.221
Mof_O 	O 	0.8449	0.2782	0.271	-0.185
Mof_O 	O 	0.7587	0.0058	0.0227	-0.466
Mof_O 	O 	0.117	0.3327	0.48773	-0.462
Mof_O 	O 	0.117	0.1673	0.98773	-0.461
Mof_O 	O 	0.8873	0.6678	0.3569	-0.445
Mof_O 	O 	0.1496	0.8481	0.355	-0.178
Mof_O 	O 	0.1127	0.1678	0.1431	-0.445
Mof_O 	O 	0.9096	0.91623	0.09197	-0.457
Mof_O 	O 	0.1551	0.7218	0.729	-0.185
Mof_O 	O 	0.8794	0.5815	0.2795	-0.294
Mof_O 	O 	0.9096	0.58377	0.59197	-0.459
Mof_O 	O 	0.0904	0.41623	0.40803	-0.459
Mof_O 	O 	0.8794	0.9185	0.7795	-0.293
Mof_O 	O 	0.8449	0.2218	0.771	-0.186
Mof_O 	O 	0.9445	0.98098	0.94373	-0.761
Mof_O 	O 	0.0904	0.08377	0.90803	-0.457
Mof_O 	O 	0.1551	0.7782	0.229	-0.186
Mof_O 	O 	0.7587	0.4942	0.5227	-0.465
Mof_O 	O 	0.272	0.42453	0.5598	-0.467
Mof_O 	O 	0.2413	0.9942	0.9773	-0.466
Mof_O 	O 	0.728	0.57547	0.4402	-0.467
Mof_O 	O 	0.8504	0.3481	0.145	-0.177
Mof_O 	O 	0.8504	0.1519	0.645	-0.178
Mof_O 	O 	0.1127	0.3322	0.6431	-0.445
Mof_O 	O 	0.9445	0.51902	0.44373	-0.764
Mof_O 	O 	0.2413	0.5058	0.4773	-0.465
Mof_O 	O 	0.272	0.07547	0.0598	-0.468
Mof_O 	O 	0.0555	0.48098	0.55627	-0.764
Mof_O 	O 	0.1206	0.4185	0.7205	-0.294
Mof_O 	O 	0.1206	0.0815	0.2205	-0.293
Mof_O 	O 	0.8873	0.8322	0.8569	-0.445
Mof_O 	O 	0.883	0.6673	0.51227	-0.462
Mof_O 	O 	0.728	0.92453	0.9402	-0.468
Mof_O 	O 	0.0555	0.01902	0.05627	-0.761
Mof_O 	O 	0.883	0.8327	0.01227	-0.461
Mof_O 	O 	0.1496	0.6519	0.855	-0.177
_end
