data_functionalizedCrystal
_audit_creation_method	'EQeq! by Chris Wilmer'
_symmetry_space_group_name_H-M	'P1'
_symmetry_Int_Tables_number	1
_symmetry_cell_setting	triclinic
loop_
_symmetry_equiv_pos_as_xyz
  x,y,z
_cell_length_a	17.1
_cell_length_b	13.303
_cell_length_c	7.297
_cell_angle_alpha	90
_cell_angle_beta	90
_cell_angle_gamma	90
loop_
_atom_site_label
_atom_site_type_symbol
_atom_site_fract_x
_atom_site_fract_y
_atom_site_fract_z
_atom_site_charge
Mof_C 	C 	0.6115	0.4684	0.767	-0.586
Mof_H 	H 	0.5828	0.4897	0.8762	0.177
Mof_H 	H 	0.6678	0.4685	0.7928	0.158
Mof_H 	H 	0.595	0.4005	0.7317	0.177
Mof_C 	C 	0.5955	0.5368	0.619	0.214
Mof_C 	C 	0.5334	0.5358	0.493	-0.143
Mof_C 	C 	0.5457	0.6152	0.374	0.226
Mof_C 	C 	0.5026	0.652	0.215	-0.588
Mof_H 	H 	0.505	0.7252	0.2107	0.182
Mof_H 	H 	0.448	0.6301	0.2231	0.179
Mof_H 	H 	0.526	0.6241	0.1027	0.176
Mof_N 	N 	0.6448	0.6136	0.5783	-0.236
Mof_N 	N 	0.6122	0.6588	0.4299	-0.197
Mof_H 	H 	0.6328	0.7116	0.3757	0.084
Mof_C 	C 	0.1115	0.9684	0.267	-0.585
Mof_H 	H 	0.0828	0.9897	0.3762	0.174
Mof_H 	H 	0.1678	0.9685	0.2928	0.156
Mof_H 	H 	0.095	0.9005	0.2317	0.175
Mof_C 	C 	0.0955	0.0368	0.119	0.212
Mof_C 	C 	0.0334	0.0358	0.993	-0.14
Mof_C 	C 	0.0457	0.1152	0.874	0.226
Mof_C 	C 	0.0026	0.152	0.715	-0.586
Mof_H 	H 	0.005	0.2252	0.7107	0.182
Mof_H 	H 	0.948	0.1301	0.7231	0.178
Mof_H 	H 	0.026	0.1241	0.6027	0.177
Mof_N 	N 	0.1448	0.1136	0.0783	-0.236
Mof_N 	N 	0.1122	0.1588	0.9299	-0.196
Mof_H 	H 	0.1328	0.2116	0.8757	0.084
Mof_C 	C 	0.3885	0.5316	0.767	-0.587
Mof_H 	H 	0.4172	0.5103	0.8762	0.176
Mof_H 	H 	0.3322	0.5315	0.7928	0.157
Mof_H 	H 	0.405	0.5995	0.7317	0.176
Mof_C 	C 	0.4045	0.4632	0.619	0.214
Mof_C 	C 	0.4666	0.4642	0.493	-0.143
Mof_C 	C 	0.4543	0.3848	0.374	0.226
Mof_C 	C 	0.4974	0.348	0.215	-0.588
Mof_H 	H 	0.495	0.2748	0.2107	0.182
Mof_H 	H 	0.552	0.3699	0.2231	0.179
Mof_H 	H 	0.474	0.3759	0.1027	0.176
Mof_N 	N 	0.3552	0.3864	0.5783	-0.236
Mof_N 	N 	0.3878	0.3412	0.4299	-0.197
Mof_H 	H 	0.3672	0.2884	0.3757	0.084
Mof_C 	C 	0.8885	0.0316	0.267	-0.585
Mof_H 	H 	0.9172	0.0103	0.3762	0.174
Mof_H 	H 	0.8322	0.0315	0.2928	0.156
Mof_H 	H 	0.905	0.0995	0.2317	0.175
Mof_C 	C 	0.9045	0.9632	0.119	0.212
Mof_C 	C 	0.9666	0.9642	0.993	-0.14
Mof_C 	C 	0.9543	0.8848	0.874	0.226
Mof_C 	C 	0.9974	0.848	0.715	-0.586
Mof_H 	H 	0.995	0.7748	0.7107	0.182
Mof_H 	H 	0.052	0.8699	0.7231	0.178
Mof_H 	H 	0.974	0.8759	0.6027	0.177
Mof_N 	N 	0.8552	0.8864	0.0783	-0.236
Mof_N 	N 	0.8878	0.8412	0.9299	-0.196
Mof_H 	H 	0.8672	0.7884	0.8757	0.084
Mof_C 	C 	0.1115	0.5316	0.767	-0.586
Mof_H 	H 	0.0828	0.5103	0.8762	0.176
Mof_H 	H 	0.1678	0.5315	0.7928	0.157
Mof_H 	H 	0.095	0.5995	0.7317	0.176
Mof_C 	C 	0.0955	0.4632	0.619	0.214
Mof_C 	C 	0.0334	0.4642	0.493	-0.143
Mof_C 	C 	0.0457	0.3848	0.374	0.226
Mof_C 	C 	0.0026	0.348	0.215	-0.587
Mof_H 	H 	0.005	0.2748	0.2107	0.181
Mof_H 	H 	0.948	0.3699	0.2231	0.178
Mof_H 	H 	0.026	0.3759	0.1027	0.176
Mof_N 	N 	0.1448	0.3864	0.5783	-0.236
Mof_N 	N 	0.1122	0.3412	0.4299	-0.197
Mof_H 	H 	0.1328	0.2884	0.3757	0.084
Mof_C 	C 	0.6115	0.0316	0.267	-0.584
Mof_H 	H 	0.5828	0.0103	0.3762	0.174
Mof_H 	H 	0.6678	0.0315	0.2928	0.156
Mof_H 	H 	0.595	0.0995	0.2317	0.175
Mof_C 	C 	0.5955	0.9632	0.119	0.211
Mof_C 	C 	0.5334	0.9642	0.993	-0.141
Mof_C 	C 	0.5457	0.8848	0.874	0.226
Mof_C 	C 	0.5026	0.848	0.715	-0.589
Mof_H 	H 	0.505	0.7748	0.7107	0.182
Mof_H 	H 	0.448	0.8699	0.7231	0.179
Mof_H 	H 	0.526	0.8759	0.6027	0.177
Mof_N 	N 	0.6448	0.8864	0.0783	-0.236
Mof_N 	N 	0.6122	0.8412	0.9299	-0.197
Mof_H 	H 	0.6328	0.7884	0.8757	0.084
Mof_C 	C 	0.8885	0.4684	0.767	-0.586
Mof_H 	H 	0.9172	0.4897	0.8762	0.176
Mof_H 	H 	0.8322	0.4685	0.7928	0.157
Mof_H 	H 	0.905	0.4005	0.7317	0.176
Mof_C 	C 	0.9045	0.5368	0.619	0.214
Mof_C 	C 	0.9666	0.5358	0.493	-0.143
Mof_C 	C 	0.9543	0.6152	0.374	0.226
Mof_C 	C 	0.9974	0.652	0.215	-0.587
Mof_H 	H 	0.995	0.7252	0.2107	0.181
Mof_H 	H 	0.052	0.6301	0.2231	0.178
Mof_H 	H 	0.974	0.6241	0.1027	0.176
Mof_N 	N 	0.8552	0.6136	0.5783	-0.236
Mof_N 	N 	0.8878	0.6588	0.4299	-0.197
Mof_H 	H 	0.8672	0.7116	0.3757	0.084
Mof_C 	C 	0.3885	0.9684	0.267	-0.584
Mof_H 	H 	0.4172	0.9897	0.3762	0.174
Mof_H 	H 	0.3322	0.9685	0.2928	0.156
Mof_H 	H 	0.405	0.9005	0.2317	0.175
Mof_C 	C 	0.4045	0.0368	0.119	0.211
Mof_C 	C 	0.4666	0.0358	0.993	-0.141
Mof_C 	C 	0.4543	0.1152	0.874	0.226
Mof_C 	C 	0.4974	0.152	0.715	-0.589
Mof_H 	H 	0.495	0.2252	0.7107	0.182
Mof_H 	H 	0.552	0.1301	0.7231	0.179
Mof_H 	H 	0.474	0.1241	0.6027	0.177
Mof_N 	N 	0.3552	0.1136	0.0783	-0.236
Mof_N 	N 	0.3878	0.1588	0.9299	-0.197
Mof_H 	H 	0.3672	0.2116	0.8757	0.084
Mof_Cu	Cu	0.75	0.6516	0.6679	0.842
Mof_I 	I 	0.75	0.84764	0.53478	-0.48
Mof_Cu	Cu	0.25	0.1516	0.1679	0.842
Mof_I 	I 	0.25	0.34764	0.03478	-0.482
Mof_Cu	Cu	0.25	0.3484	0.6679	0.842
Mof_I 	I 	0.25	0.15236	0.53478	-0.48
Mof_Cu	Cu	0.75	0.8484	0.1679	0.842
Mof_I 	I 	0.75	0.65236	0.03478	-0.482
_end
