data_functionalizedCrystal
_audit_creation_method	'EQeq! by Chris Wilmer'
_symmetry_space_group_name_H-M	'P1'
_symmetry_Int_Tables_number	1
_symmetry_cell_setting	triclinic
loop_
_symmetry_equiv_pos_as_xyz
  x,y,z
_cell_length_a	13.73
_cell_length_b	14.03
_cell_length_c	14.1
_cell_angle_alpha	115.655
_cell_angle_beta	111.027
_cell_angle_gamma	100.397
loop_
_atom_site_label
_atom_site_type_symbol
_atom_site_fract_x
_atom_site_fract_y
_atom_site_fract_z
_atom_site_charge
Mof_Mn	Mn	0.7948	0.6181	0.6212	0.947
Mof_Si	Si	0.5208	0.8494	0.1171	0.716
Mof_O 	O 	0.7833	0.7744	0.7693	-0.299
Mof_O 	O 	0.6651	0.5935	0.6748	-0.408
Mof_O 	O 	0.979	0.705	0.6949	-0.308
Mof_O 	O 	0.9328	0.6371	0.797	-0.282
Mof_O 	O 	0.5599	0.629	0.4679	-0.377
Mof_O 	O 	0.7335	0.6598	0.4897	-0.386
Mof_O 	O 	0.592	0.4115	0.429	-0.384
Mof_O 	O 	0.7731	0.4484	0.5195	-0.364
Mof_C 	C 	0.704	0.6997	0.758	0.285
Mof_C 	C 	0.6643	0.7379	0.8499	-0.015
Mof_C 	C 	0.7072	0.8537	0.9401	-0.09
Mof_H 	H 	0.7632	0.9096	0.9453	0.078
Mof_C 	C 	0.6682	0.8877	0.0228	0.075
Mof_H 	H 	0.6975	0.9669	0.0845	-0.005
Mof_C 	C 	0.5863	0.806	0.0152	-0.248
Mof_C 	C 	0.5434	0.6902	0.9249	0.076
Mof_H 	H 	0.4874	0.6343	0.9197	-0.005
Mof_C 	C 	0.5824	0.6561	0.8423	-0.085
Mof_H 	H 	0.5531	0.577	0.7806	0.071
Mof_C 	C 	0.0051	0.685	0.779	0.254
Mof_C 	C 	0.1303	0.7248	0.8613	0.013
Mof_C 	C 	0.165	0.7139	0.9603	-0.105
Mof_H 	H 	0.11	0.683	0.9766	0.083
Mof_C 	C 	0.2801	0.7482	0.0355	0.085
Mof_H 	H 	0.3037	0.7407	0.1031	-0.006
Mof_C 	C 	0.3605	0.7934	0.0116	-0.245
Mof_C 	C 	0.3258	0.8043	0.9126	0.079
Mof_H 	H 	0.3808	0.8352	0.8964	-0.004
Mof_C 	C 	0.2108	0.77	0.8375	-0.102
Mof_H 	H 	0.1871	0.7774	0.7698	0.082
Mof_C 	C 	0.64	0.661	0.448	0.367
Mof_C 	C 	0.6056	0.7005	0.3615	-0.043
Mof_C 	C 	0.6505	0.684	0.2843	-0.07
Mof_H 	H 	0.6999	0.6445	0.2832	0.065
Mof_C 	C 	0.6231	0.7252	0.2089	0.063
Mof_H 	H 	0.6538	0.7139	0.1561	0.002
Mof_C 	C 	0.5508	0.7829	0.2106	-0.239
Mof_C 	C 	0.5059	0.7994	0.2877	0.064
Mof_H 	H 	0.4564	0.8389	0.2889	-0.002
Mof_C 	C 	0.5333	0.7582	0.3632	-0.068
Mof_H 	H 	0.5026	0.7695	0.4159	0.067
Mof_C 	C 	0.6709	0.3749	0.447	0.339
Mof_C 	C 	0.6403	0.247	0.3724	-0.038
Mof_C 	C 	0.5254	0.1769	0.2922	-0.073
Mof_H 	H 	0.4705	0.2098	0.2886	0.068
Mof_C 	C 	0.4908	0.0586	0.2171	0.061
Mof_H 	H 	0.4122	0.0107	0.1623	0.004
Mof_C 	C 	0.5711	0.0105	0.2223	-0.242
Mof_C 	C 	0.6861	0.0806	0.3026	0.067
Mof_H 	H 	0.741	0.0477	0.3061	-0.001
Mof_C 	C 	0.7207	0.1988	0.3776	-0.077
Mof_H 	H 	0.7992	0.2468	0.4324	0.072
Mof_Mn	Mn	0.2052	0.3819	0.3788	0.946
Mof_Si	Si	0.4792	0.1506	0.8829	0.715
Mof_O 	O 	0.2167	0.2256	0.2307	-0.3
Mof_O 	O 	0.3349	0.4065	0.3252	-0.409
Mof_O 	O 	0.021	0.295	0.3051	-0.309
Mof_O 	O 	0.0672	0.3629	0.203	-0.283
Mof_O 	O 	0.4401	0.371	0.5321	-0.378
Mof_O 	O 	0.2665	0.3402	0.5103	-0.386
Mof_O 	O 	0.408	0.5885	0.571	-0.384
Mof_O 	O 	0.2269	0.5516	0.4805	-0.364
Mof_C 	C 	0.296	0.3003	0.242	0.285
Mof_C 	C 	0.3357	0.2621	0.1501	-0.015
Mof_C 	C 	0.2928	0.1463	0.0599	-0.09
Mof_H 	H 	0.2368	0.0904	0.0547	0.078
Mof_C 	C 	0.3318	0.1123	0.9772	0.075
Mof_H 	H 	0.3025	0.0331	0.9155	-0.005
Mof_C 	C 	0.4137	0.194	0.9848	-0.248
Mof_C 	C 	0.4566	0.3098	0.0751	0.076
Mof_H 	H 	0.5126	0.3657	0.0803	-0.005
Mof_C 	C 	0.4176	0.3439	0.1577	-0.085
Mof_H 	H 	0.4469	0.423	0.2194	0.071
Mof_C 	C 	0.9949	0.315	0.221	0.254
Mof_C 	C 	0.8697	0.2752	0.1387	0.013
Mof_C 	C 	0.835	0.2861	0.0397	-0.105
Mof_H 	H 	0.89	0.317	0.0234	0.083
Mof_C 	C 	0.7199	0.2518	0.9645	0.085
Mof_H 	H 	0.6963	0.2593	0.8969	-0.006
Mof_C 	C 	0.6395	0.2066	0.9884	-0.245
Mof_C 	C 	0.6742	0.1957	0.0874	0.079
Mof_H 	H 	0.6192	0.1648	0.1036	-0.004
Mof_C 	C 	0.7892	0.23	0.1625	-0.102
Mof_H 	H 	0.8129	0.2226	0.2302	0.082
Mof_C 	C 	0.36	0.339	0.552	0.367
Mof_C 	C 	0.3944	0.2995	0.6385	-0.043
Mof_C 	C 	0.3495	0.316	0.7157	-0.07
Mof_H 	H 	0.3001	0.3555	0.7168	0.065
Mof_C 	C 	0.3769	0.2748	0.7911	0.063
Mof_H 	H 	0.3462	0.2861	0.8439	0.002
Mof_C 	C 	0.4492	0.2171	0.7894	-0.239
Mof_C 	C 	0.4941	0.2006	0.7123	0.064
Mof_H 	H 	0.5436	0.1611	0.7111	-0.002
Mof_C 	C 	0.4667	0.2418	0.6368	-0.068
Mof_H 	H 	0.4974	0.2305	0.5841	0.067
Mof_C 	C 	0.3291	0.6251	0.553	0.339
Mof_C 	C 	0.3597	0.753	0.6276	-0.038
Mof_C 	C 	0.4746	0.8231	0.7078	-0.073
Mof_H 	H 	0.5295	0.7902	0.7114	0.068
Mof_C 	C 	0.5092	0.9414	0.7829	0.061
Mof_H 	H 	0.5878	0.9893	0.8377	0.004
Mof_C 	C 	0.4289	0.9895	0.7777	-0.242
Mof_C 	C 	0.3139	0.9194	0.6974	0.067
Mof_H 	H 	0.259	0.9523	0.6939	-0.001
Mof_C 	C 	0.2793	0.8012	0.6224	-0.077
Mof_H 	H 	0.2008	0.7532	0.5676	0.072
Mof_Mn	Mn	0.5	0.5	0.5	0.983
_end
