data_functionalizedCrystal
_audit_creation_method	'EQeq! by Chris Wilmer'
_symmetry_space_group_name_H-M	'P1'
_symmetry_Int_Tables_number	1
_symmetry_cell_setting	triclinic
loop_
_symmetry_equiv_pos_as_xyz
  x,y,z
_cell_length_a	11.2856
_cell_length_b	11.2856
_cell_length_c	27.059
_cell_angle_alpha	94.054
_cell_angle_beta	94.054
_cell_angle_gamma	119.704
loop_
_atom_site_label
_atom_site_type_symbol
_atom_site_fract_x
_atom_site_fract_y
_atom_site_fract_z
_atom_site_charge
Mof_Ni	Ni	0.75526	0.51254	0.57532	1.085
Mof_Ni	Ni	0.74039	0.37047	0.39196	1.129
Mof_Ni	Ni	0.51254	0.75526	0.07532	1.084
Mof_Ni	Ni	0.37047	0.74039	0.89196	1.129
Mof_H 	H 	0.7783	0.4593	0.7453	0.108
Mof_H 	H 	0.7896	0.5228	0.8257	-0.007
Mof_H 	H 	0.7742	0.7134	0.8529	0.128
Mof_H 	H 	0.9802	0.0786	0.7939	0.164
Mof_H 	H 	0.1297	0.2469	0.8572	-0.031
Mof_H 	H 	0.076	0.2414	0.9364	0.122
Mof_H 	H 	0.8687	0.0551	0.9548	-0.017
Mof_H 	H 	0.0095	0.0933	0.5074	0.085
Mof_H 	H 	0.8655	0.9409	0.4446	-0.001
Mof_H 	H 	0.6985	0.9669	0.4012	0.141
Mof_H 	H 	0.4822	0.9636	0.4518	0.157
Mof_H 	H 	0.2805	0.7707	0.4142	-0.043
Mof_H 	H 	0.2172	0.7504	0.3295	0.147
Mof_H 	H 	0.344	0.9244	0.285	-0.016
Mof_H 	H 	0.8712	0.8212	0.5921	0.016
Mof_H 	H 	0.0637	0.0233	0.5913	0.088
Mof_H 	H 	0.2573	0.8231	0.5566	0.083
Mof_H 	H 	0.0555	0.6173	0.558	0.03
Mof_H 	H 	0.6472	0.212	0.5784	0.021
Mof_H 	H 	0.4434	0.0024	0.5762	0.081
Mof_H 	H 	0.2392	0.21	0.5707	0.091
Mof_H 	H 	0.444	0.4018	0.5695	-0.004
Mof_H 	H 	0.8879	0.2579	0.3275	0.009
Mof_H 	H 	0.091	0.2628	0.3246	0.095
Mof_H 	H 	0.2354	0.5324	0.448	0.094
Mof_H 	H 	0.0325	0.5253	0.4452	0.004
Mof_H 	H 	0.5508	0.4122	0.322	0.021
Mof_H 	H 	0.3616	0.438	0.3187	0.085
Mof_H 	H 	0.3287	0.3635	0.4604	0.081
Mof_H 	H 	0.523	0.3428	0.4605	-0.009
Mof_H 	H 	0.4593	0.7783	0.2453	0.107
Mof_H 	H 	0.5228	0.7896	0.3257	-0.008
Mof_H 	H 	0.7134	0.7742	0.3529	0.128
Mof_H 	H 	0.0786	0.9802	0.2939	0.164
Mof_H 	H 	0.2469	0.1297	0.3572	-0.031
Mof_H 	H 	0.2414	0.076	0.4364	0.121
Mof_H 	H 	0.0551	0.8687	0.4548	-0.017
Mof_H 	H 	0.0933	0.0095	0.0074	0.078
Mof_H 	H 	0.9409	0.8655	0.9446	0.003
Mof_H 	H 	0.9669	0.6985	0.9012	0.138
Mof_H 	H 	0.9636	0.4822	0.9518	0.157
Mof_H 	H 	0.7707	0.2805	0.9142	-0.043
Mof_H 	H 	0.7504	0.2172	0.8295	0.147
Mof_H 	H 	0.9244	0.344	0.785	-0.016
Mof_H 	H 	0.8212	0.8712	0.0921	0.016
Mof_H 	H 	0.0233	0.0637	0.0913	0.087
Mof_H 	H 	0.8231	0.2573	0.0566	0.083
Mof_H 	H 	0.6173	0.0555	0.058	0.029
Mof_H 	H 	0.212	0.6472	0.0784	0.021
Mof_H 	H 	0.0024	0.4434	0.0762	0.081
Mof_H 	H 	0.21	0.2392	0.0707	0.091
Mof_H 	H 	0.4018	0.444	0.0695	-0.004
Mof_H 	H 	0.2579	0.8879	0.8275	0.009
Mof_H 	H 	0.2628	0.091	0.8246	0.094
Mof_H 	H 	0.5324	0.2354	0.948	0.094
Mof_H 	H 	0.5253	0.0325	0.9452	0.005
Mof_H 	H 	0.4122	0.5508	0.822	0.021
Mof_H 	H 	0.438	0.3616	0.8187	0.085
Mof_H 	H 	0.3635	0.3287	0.9604	0.082
Mof_H 	H 	0.3428	0.523	0.9605	-0.009
Mof_C 	C 	0.7524	0.5702	0.6643	0.268
Mof_C 	C 	0.7281	0.8159	0.6969	0.335
Mof_C 	C 	0.7547	0.6111	0.7178	0.044
Mof_C 	C 	0.7718	0.5364	0.7549	-0.146
Mof_C 	C 	0.7786	0.5744	0.8024	0.127
Mof_C 	C 	0.7699	0.6883	0.819	-0.242
Mof_C 	C 	0.7548	0.7634	0.7835	0.248
Mof_C 	C 	0.7448	0.7264	0.7328	-0.135
Mof_C 	C 	0.8339	0.9735	0.8374	0.312
Mof_C 	C 	0.9572	0.0762	0.8263	-0.312
Mof_C 	C 	0.0464	0.1758	0.8644	0.199
Mof_C 	C 	0.0157	0.1725	0.9112	-0.255
Mof_C 	C 	0.8891	0.0617	0.9221	0.163
Mof_C 	C 	0.7977	0.9649	0.8845	-0.247
Mof_C 	C 	0.6645	0.8503	0.8981	0.413
Mof_C 	C 	0.8303	0.2401	0.482	-0.229
Mof_C 	C 	0.9326	0.2232	0.5074	0.084
Mof_C 	C 	0.9422	0.1068	0.4912	-0.159
Mof_C 	C 	0.8574	0.0174	0.4538	0.141
Mof_C 	C 	0.7579	0.0315	0.4276	-0.278
Mof_C 	C 	0.7505	0.1485	0.4426	0.279
Mof_C 	C 	0.8128	0.3644	0.4987	0.436
Mof_C 	C 	0.0327	0.3219	0.5513	0.252
Mof_C 	C 	0.5315	0.0561	0.3891	0.32
Mof_C 	C 	0.4542	0.9546	0.4179	-0.328
Mof_C 	C 	0.3346	0.8398	0.3955	0.221
Mof_C 	C 	0.2961	0.8285	0.3451	-0.289
Mof_C 	C 	0.3735	0.9317	0.3186	0.219
Mof_C 	C 	0.4946	0.0476	0.3395	-0.3
Mof_C 	C 	0.572	0.152	0.3064	0.376
Mof_C 	C 	0.9502	0.8204	0.585	0.091
Mof_C 	C 	0.0654	0.9422	0.5843	-0.128
Mof_C 	C 	0.187	0.9486	0.5734	0.067
Mof_C 	C 	0.1789	0.8251	0.564	-0.121
Mof_C 	C 	0.0565	0.6997	0.565	0.071
Mof_C 	C 	0.5638	0.2104	0.576	0.076
Mof_C 	C 	0.4401	0.0829	0.575	-0.124
Mof_C 	C 	0.316	0.0782	0.5723	0.051
Mof_C 	C 	0.3192	0.2054	0.5713	-0.142
Mof_C 	C 	0.4433	0.3195	0.5713	0.096
Mof_C 	C 	0.9597	0.3143	0.3524	0.119
Mof_C 	C 	0.0819	0.3169	0.3499	-0.166
Mof_C 	C 	0.1902	0.4012	0.3856	0.074
Mof_C 	C 	0.166	0.4766	0.4224	-0.148
Mof_C 	C 	0.0438	0.4696	0.4213	0.089
Mof_C 	C 	0.5044	0.3998	0.35	0.079
Mof_C 	C 	0.3905	0.4155	0.3478	-0.129
Mof_C 	C 	0.3192	0.3978	0.3885	0.055
Mof_C 	C 	0.371	0.372	0.4315	-0.139
Mof_C 	C 	0.4878	0.3586	0.4312	0.088
Mof_C 	C 	0.5702	0.7524	0.1643	0.268
Mof_C 	C 	0.8159	0.7281	0.1969	0.335
Mof_C 	C 	0.6111	0.7547	0.2178	0.044
Mof_C 	C 	0.5364	0.7718	0.2549	-0.146
Mof_C 	C 	0.5744	0.7786	0.3024	0.127
Mof_C 	C 	0.6883	0.7699	0.319	-0.242
Mof_C 	C 	0.7634	0.7548	0.2835	0.248
Mof_C 	C 	0.7264	0.7448	0.2328	-0.135
Mof_C 	C 	0.9735	0.8339	0.3374	0.313
Mof_C 	C 	0.0762	0.9572	0.3263	-0.312
Mof_C 	C 	0.1758	0.0464	0.3644	0.199
Mof_C 	C 	0.1725	0.0157	0.4112	-0.256
Mof_C 	C 	0.0617	0.8891	0.4221	0.163
Mof_C 	C 	0.9649	0.7977	0.3845	-0.247
Mof_C 	C 	0.8503	0.6645	0.3981	0.414
Mof_C 	C 	0.2401	0.8303	0.982	-0.223
Mof_C 	C 	0.2232	0.9326	0.0074	0.073
Mof_C 	C 	0.1068	0.9422	0.9912	-0.144
Mof_C 	C 	0.0174	0.8574	0.9538	0.129
Mof_C 	C 	0.0315	0.7579	0.9276	-0.269
Mof_C 	C 	0.1485	0.7505	0.9426	0.274
Mof_C 	C 	0.3644	0.8128	0.9987	0.437
Mof_C 	C 	0.3219	0.0327	0.0513	0.256
Mof_C 	C 	0.0561	0.5315	0.8891	0.32
Mof_C 	C 	0.9546	0.4542	0.9179	-0.327
Mof_C 	C 	0.8398	0.3346	0.8955	0.221
Mof_C 	C 	0.8285	0.2961	0.8451	-0.289
Mof_C 	C 	0.9317	0.3735	0.8186	0.219
Mof_C 	C 	0.0476	0.4946	0.8395	-0.3
Mof_C 	C 	0.152	0.572	0.8064	0.376
Mof_C 	C 	0.8204	0.9502	0.085	0.089
Mof_C 	C 	0.9422	0.0654	0.0843	-0.126
Mof_C 	C 	0.9486	0.187	0.0734	0.067
Mof_C 	C 	0.8251	0.1789	0.064	-0.121
Mof_C 	C 	0.6997	0.0565	0.065	0.071
Mof_C 	C 	0.2104	0.5638	0.076	0.075
Mof_C 	C 	0.0829	0.4401	0.075	-0.124
Mof_C 	C 	0.0782	0.316	0.0723	0.05
Mof_C 	C 	0.2054	0.3192	0.0713	-0.142
Mof_C 	C 	0.3195	0.4433	0.0713	0.096
Mof_C 	C 	0.3143	0.9597	0.8524	0.119
Mof_C 	C 	0.3169	0.0819	0.8499	-0.165
Mof_C 	C 	0.4012	0.1902	0.8856	0.074
Mof_C 	C 	0.4766	0.166	0.9224	-0.148
Mof_C 	C 	0.4696	0.0438	0.9213	0.089
Mof_C 	C 	0.3998	0.5044	0.85	0.079
Mof_C 	C 	0.4155	0.3905	0.8478	-0.129
Mof_C 	C 	0.3978	0.3192	0.8885	0.056
Mof_C 	C 	0.372	0.371	0.9315	-0.139
Mof_C 	C 	0.3586	0.4878	0.9312	0.088
Mof_N 	N 	0.9422	0.6974	0.5759	-0.222
Mof_N 	N 	0.5631	0.3257	0.5736	-0.229
Mof_N 	N 	0.9357	0.3843	0.3866	-0.214
Mof_N 	N 	0.5506	0.3676	0.3908	-0.215
Mof_N 	N 	0.6974	0.9422	0.0759	-0.222
Mof_N 	N 	0.3257	0.5631	0.0736	-0.229
Mof_N 	N 	0.3843	0.9357	0.8866	-0.214
Mof_N 	N 	0.3676	0.5506	0.8908	-0.215
Mof_O 	O 	0.8068	0.499	0.6517	-0.327
Mof_O 	O 	0.6971	0.6039	0.6312	-0.362
Mof_O 	O 	0.8342	0.9026	0.6807	-0.221
Mof_O 	O 	0.6083	0.7979	0.6866	-0.199
Mof_O 	O 	0.7422	0.8782	0.7969	-0.265
Mof_O 	O 	0.5589	0.8311	0.8715	-0.4
Mof_O 	O 	0.6691	0.7935	0.9339	-0.309
Mof_O 	O 	0.0236	0.2788	0.5923	-0.206
Mof_O 	O 	0.1191	0.4387	0.5424	-0.221
Mof_O 	O 	0.8264	0.397	0.5445	-0.429
Mof_O 	O 	0.7813	0.4181	0.4665	-0.463
Mof_O 	O 	0.6543	0.1709	0.414	-0.42
Mof_O 	O 	0.6783	0.2701	0.3228	-0.383
Mof_O 	O 	0.5284	0.1202	0.26	-0.225
Mof_O 	O 	0.499	0.8068	0.1517	-0.327
Mof_O 	O 	0.6039	0.6971	0.1312	-0.362
Mof_O 	O 	0.9026	0.8342	0.1807	-0.221
Mof_O 	O 	0.7979	0.6083	0.1866	-0.199
Mof_O 	O 	0.8782	0.7422	0.2969	-0.265
Mof_O 	O 	0.8311	0.5589	0.3715	-0.4
Mof_O 	O 	0.7935	0.6691	0.4339	-0.31
Mof_O 	O 	0.2788	0.0236	0.0923	-0.207
Mof_O 	O 	0.4387	0.1191	0.0424	-0.223
Mof_O 	O 	0.397	0.8264	0.0445	-0.43
Mof_O 	O 	0.4181	0.7813	0.9665	-0.463
Mof_O 	O 	0.1709	0.6543	0.914	-0.419
Mof_O 	O 	0.2701	0.6783	0.8228	-0.383
Mof_O 	O 	0.1202	0.5284	0.76	-0.225
_end
