data_functionalizedCrystal
_audit_creation_method	'EQeq! by Chris Wilmer'
_symmetry_space_group_name_H-M	'P1'
_symmetry_Int_Tables_number	1
_symmetry_cell_setting	triclinic
loop_
_symmetry_equiv_pos_as_xyz
  x,y,z
_cell_length_a	6.6118
_cell_length_b	12.4325
_cell_length_c	8.8075
_cell_angle_alpha	90
_cell_angle_beta	107.723
_cell_angle_gamma	90
loop_
_atom_site_label
_atom_site_type_symbol
_atom_site_fract_x
_atom_site_fract_y
_atom_site_fract_z
_atom_site_charge
Mof_F 	F 	0.2183	0.38055	0.5425	-0.582
Mof_N 	N 	0.7972	0.125	0.8589	-0.099
Mof_N 	N 	0.589	0.1212	0.8501	-0.051
Mof_N 	N 	0.4812	0.1927	0.7506	-0.03
Mof_N 	N 	0.6162	0.2471	0.6892	-0.163
Mof_C 	C 	0.8082	0.205	0.7593	0.281
Mof_N 	N 	0.9897	0.236	0.7306	-0.306
Mof_H 	H 	0.9865	0.2863	0.6629	0.247
Mof_H 	H 	0.108	0.2054	0.7802	0.171
Mof_F 	F 	0.7817	0.38055	0.4575	-0.554
Mof_N 	N 	0.2028	0.125	0.1411	-0.181
Mof_N 	N 	0.411	0.1212	0.1499	-0.102
Mof_N 	N 	0.5188	0.1927	0.2494	-0.043
Mof_N 	N 	0.3838	0.2471	0.3108	-0.169
Mof_C 	C 	0.1918	0.205	0.2407	0.235
Mof_N 	N 	0.0103	0.236	0.2694	-0.436
Mof_H 	H 	0.0135	0.2863	0.3371	0.214
Mof_H 	H 	0.892	0.2054	0.2198	0.265
Mof_F 	F 	0.7817	0.61945	0.4575	-0.553
Mof_N 	N 	0.2028	0.875	0.1411	-0.169
Mof_N 	N 	0.411	0.8788	0.1499	-0.088
Mof_N 	N 	0.5188	0.8073	0.2494	-0.039
Mof_N 	N 	0.3838	0.7529	0.3108	-0.168
Mof_C 	C 	0.1918	0.795	0.2407	0.241
Mof_N 	N 	0.0103	0.764	0.2694	-0.436
Mof_H 	H 	0.0135	0.7137	0.3371	0.216
Mof_H 	H 	0.892	0.7946	0.2198	0.271
Mof_F 	F 	0.2183	0.61945	0.5425	-0.582
Mof_N 	N 	0.7972	0.875	0.8589	-0.091
Mof_N 	N 	0.589	0.8788	0.8501	-0.042
Mof_N 	N 	0.4812	0.8073	0.7506	-0.026
Mof_N 	N 	0.6162	0.7529	0.6892	-0.162
Mof_C 	C 	0.8082	0.795	0.7593	0.286
Mof_N 	N 	0.9897	0.764	0.7306	-0.307
Mof_H 	H 	0.9865	0.7137	0.6629	0.249
Mof_H 	H 	0.108	0.7946	0.7802	0.176
Mof_Fe	Fe	0.5	0	-0	0.699
Mof_Fe	Fe	-0	0	-0	0.588
Mof_Fe	Fe	0.5	0.36653	0.5	0.968
Mof_Fe	Fe	0.5	0.63347	0.5	0.97
Mof_Fe	Fe	4.12132e-17	0.5	0.5	1.079
Mof_F 	F 	0.8042	0	0.1388	-0.535
Mof_F 	F 	0.1958	0	0.8612	-0.496
Mof_O 	O 	0.6061	0.5	0.666	-0.339
Mof_O 	O 	0.9965	0.5	0.2577	-0.211
Mof_C 	C 	0.176	0.5	0.229	0.124
Mof_O 	O 	0.3939	0.5	0.334	-0.325
Mof_O 	O 	0.0035	0.5	0.7423	-0.356
Mof_C 	C 	0.824	0.5	0.771	0.361
_end
