data_functionalizedCrystal
_audit_creation_method	'EQeq! by Chris Wilmer'
_symmetry_space_group_name_H-M	'P1'
_symmetry_Int_Tables_number	1
_symmetry_cell_setting	triclinic
loop_
_symmetry_equiv_pos_as_xyz
  x,y,z
_cell_length_a	12.1119
_cell_length_b	12.5555
_cell_length_c	12.6565
_cell_angle_alpha	62.874
_cell_angle_beta	70.151
_cell_angle_gamma	84.075
loop_
_atom_site_label
_atom_site_type_symbol
_atom_site_fract_x
_atom_site_fract_y
_atom_site_fract_z
_atom_site_charge
Mof_Ag	Ag	0.91922	0.61864	0.35518	0.344
Mof_Ag	Ag	0.11156	0.45718	0.34291	0.337
Mof_Ag	Ag	0.10582	0.67072	0.43339	0.342
Mof_Na	Na	0.55857	0.66825	0.90787	1.944
Mof_Na	Na	0.45928	0.87323	0.65559	2.412
Mof_S 	S 	0.21804	0.66072	0.2306	-0.283
Mof_S 	S 	0.82649	0.43781	0.38214	-0.284
Mof_S 	S 	0.812	0.70506	0.50016	-0.285
Mof_N 	N 	0.0312	0.7531	0.1578	-0.215
Mof_N 	N 	0.0315	0.4126	0.226	-0.228
Mof_N 	N 	0.01	0.8444	0.4014	-0.206
Mof_O 	O 	0.4044	0.8099	0.8716	-0.874
Mof_O 	O 	0.4008	0.89	0.9976	-0.409
Mof_O 	O 	0.6826	0.2471	0.3418	-0.613
Mof_O 	O 	0.6689	0.4196	0.1836	-0.383
Mof_O 	O 	0.646	0.9488	0.4054	-0.716
Mof_O 	O 	0.652	0.9574	0.5749	-0.712
Mof_O 	O 	0.5554	0.6853	0.7169	-0.708
Mof_O 	O 	0.3724	0.5351	0.0394	-0.61
Mof_C 	C 	0.1499	0.7581	0.1204	0.153
Mof_C 	C 	0.2186	0.8357	0.9969	-0.253
Mof_C 	C 	0.3516	0.8453	0.9519	0.495
Mof_C 	C 	0.1612	0.9046	0.9116	0.147
Mof_H 	H 	0.2045	0.9537	0.8283	-0.059
Mof_C 	C 	0.0392	0.9	0.9508	-0.219
Mof_H 	H 	0.9996	0.9463	0.8951	0.098
Mof_C 	C 	0.9783	0.8247	0.0748	0.115
Mof_H 	H 	0.8966	0.8236	0.1022	-0.036
Mof_C 	C 	0.9135	0.4018	0.261	0.144
Mof_C 	C 	0.8587	0.3658	0.2006	-0.211
Mof_C 	C 	0.7264	0.342	0.247	0.43
Mof_C 	C 	0.9282	0.3461	0.0994	0.126
Mof_H 	H 	0.8936	0.3259	0.0552	-0.025
Mof_C 	C 	0.0489	0.3565	0.0648	-0.219
Mof_H 	H 	0.0968	0.342	0.9982	0.077
Mof_C 	C 	0.097	0.3889	0.1309	0.145
Mof_H 	H 	0.1784	0.3946	0.1086	-0.11
Mof_C 	C 	0.8917	0.8425	0.4397	0.118
Mof_C 	C 	0.8327	0.9466	0.4307	-0.185
Mof_C 	C 	0.6998	0.9491	0.4743	0.396
Mof_C 	C 	0.8989	0.0525	0.3822	0.086
Mof_H 	H 	0.8616	0.1222	0.3778	-0.01
Mof_C 	C 	0.0198	0.0542	0.3407	-0.166
Mof_H 	H 	0.0651	0.1251	0.3057	0.053
Mof_C 	C 	0.0722	0.9486	0.3521	0.087
Mof_H 	H 	0.1538	0.9494	0.3247	-0.035
Mof_Ag	Ag	0.08078	0.38136	0.64482	0.345
Mof_Ag	Ag	0.88844	0.54282	0.65709	0.338
Mof_Ag	Ag	0.89418	0.32928	0.56661	0.343
Mof_Na	Na	0.44143	0.33175	0.09213	1.945
Mof_Na	Na	0.54072	0.12677	0.34441	2.413
Mof_S 	S 	0.78196	0.33928	0.7694	-0.282
Mof_S 	S 	0.17351	0.56219	0.61786	-0.283
Mof_S 	S 	0.188	0.29494	0.49984	-0.284
Mof_N 	N 	0.9688	0.2469	0.8422	-0.214
Mof_N 	N 	0.9685	0.5874	0.774	-0.227
Mof_N 	N 	0.99	0.1556	0.5986	-0.206
Mof_O 	O 	0.5956	0.1901	0.1284	-0.874
Mof_O 	O 	0.5992	0.11	0.0024	-0.409
Mof_O 	O 	0.3174	0.7529	0.6582	-0.613
Mof_O 	O 	0.3311	0.5804	0.8164	-0.383
Mof_O 	O 	0.354	0.0512	0.5946	-0.716
Mof_O 	O 	0.348	0.0426	0.4251	-0.712
Mof_O 	O 	0.4446	0.3147	0.2831	-0.708
Mof_O 	O 	0.6276	0.4649	0.9606	-0.61
Mof_C 	C 	0.8501	0.2419	0.8796	0.153
Mof_C 	C 	0.7814	0.1643	0.0031	-0.253
Mof_C 	C 	0.6484	0.1547	0.0481	0.495
Mof_C 	C 	0.8388	0.0954	0.0884	0.147
Mof_H 	H 	0.7955	0.0463	0.1717	-0.059
Mof_C 	C 	0.9608	0.1	0.0492	-0.219
Mof_H 	H 	0.0004	0.0537	0.1049	0.098
Mof_C 	C 	0.0217	0.1753	0.9252	0.115
Mof_H 	H 	0.1034	0.1764	0.8978	-0.036
Mof_C 	C 	0.0865	0.5982	0.739	0.144
Mof_C 	C 	0.1413	0.6342	0.7994	-0.211
Mof_C 	C 	0.2736	0.658	0.753	0.43
Mof_C 	C 	0.0718	0.6539	0.9006	0.126
Mof_H 	H 	0.1064	0.6741	0.9448	-0.025
Mof_C 	C 	0.9511	0.6435	0.9352	-0.219
Mof_H 	H 	0.9032	0.658	0.0018	0.077
Mof_C 	C 	0.903	0.6111	0.8691	0.145
Mof_H 	H 	0.8216	0.6054	0.8914	-0.11
Mof_C 	C 	0.1083	0.1575	0.5603	0.118
Mof_C 	C 	0.1673	0.0534	0.5693	-0.185
Mof_C 	C 	0.3002	0.0509	0.5257	0.396
Mof_C 	C 	0.1011	0.9475	0.6178	0.086
Mof_H 	H 	0.1384	0.8778	0.6222	-0.01
Mof_C 	C 	0.9802	0.9458	0.6593	-0.166
Mof_H 	H 	0.9349	0.8749	0.6943	0.053
Mof_C 	C 	0.9278	0.0514	0.6479	0.087
Mof_H 	H 	0.8462	0.0506	0.6753	-0.035
_end
