data_functionalizedCrystal
_audit_creation_method	'EQeq! by Chris Wilmer'
_symmetry_space_group_name_H-M	'P1'
_symmetry_Int_Tables_number	1
_symmetry_cell_setting	triclinic
loop_
_symmetry_equiv_pos_as_xyz
  x,y,z
_cell_length_a	10.035
_cell_length_b	21.204
_cell_length_c	11.115
_cell_angle_alpha	90
_cell_angle_beta	92.453
_cell_angle_gamma	90
loop_
_atom_site_label
_atom_site_type_symbol
_atom_site_fract_x
_atom_site_fract_y
_atom_site_fract_z
_atom_site_charge
Mof_Nd	Nd	0.56769	0.09546	0.94023	2.205
Mof_Nd	Nd	0.07836	0.10515	0.3064	2.414
Mof_O 	O 	0.4039	0.15374	0.0505	-0.46
Mof_O 	O 	0.2543	0.1591	0.1926	-0.466
Mof_O 	O 	0.3983	0.02598	0.0639	-0.613
Mof_O 	O 	0.2279	0.03429	0.1881	-0.505
Mof_O 	O 	0.8148	0.08851	0.9668	-0.457
Mof_O 	O 	0.9926	0.09633	0.0931	-0.437
Mof_O 	O 	0.6544	0.08652	0.1518	-0.461
Mof_O 	O 	0.8323	0.09244	0.2804	-0.457
Mof_O 	O 	0.6636	0.20315	0.9827	-0.419
Mof_O 	O 	0.6491	0.3074	0.9489	-0.457
Mof_O 	O 	0.4943	0.18258	0.7946	-0.467
Mof_O 	O 	0.4816	0.28672	0.7599	-0.436
Mof_O 	O 	0.0357	0.99111	0.3484	-0.465
Mof_O 	O 	0.0041	0.91751	0.4886	-0.457
Mof_C 	C 	0.3261	0.1295	0.1227	0.274
Mof_C 	C 	0.3151	0.05661	0.125	0.291
Mof_C 	C 	0.8691	0.09162	0.0692	0.292
Mof_C 	C 	0.7772	0.09027	0.1768	0.271
Mof_C 	C 	0.6199	0.25057	0.926	0.268
Mof_C 	C 	0.5235	0.23937	0.8164	0.281
Mof_C 	C 	0.0113	0.97338	0.4524	0.254
Mof_Nd	Nd	0.93231	0.59546	0.55977	2.206
Mof_Nd	Nd	0.42164	0.60515	0.1936	2.445
Mof_O 	O 	0.0961	0.65374	0.4495	-0.46
Mof_O 	O 	0.2457	0.6591	0.3074	-0.467
Mof_O 	O 	0.1017	0.52598	0.4361	-0.614
Mof_O 	O 	0.2721	0.53429	0.3119	-0.506
Mof_O 	O 	0.6852	0.58851	0.5332	-0.449
Mof_O 	O 	0.5074	0.59633	0.4069	-0.445
Mof_O 	O 	0.8456	0.58652	0.3482	-0.465
Mof_O 	O 	0.6677	0.59244	0.2196	-0.463
Mof_O 	O 	0.8364	0.70315	0.5173	-0.419
Mof_O 	O 	0.8509	0.8074	0.5511	-0.456
Mof_O 	O 	0.0057	0.68258	0.7054	-0.454
Mof_O 	O 	0.0184	0.78672	0.7401	-0.419
Mof_O 	O 	0.4643	0.49111	0.1516	-0.468
Mof_O 	O 	0.4959	0.41751	0.0114	-0.463
Mof_C 	C 	0.1739	0.6295	0.3773	0.274
Mof_C 	C 	0.1849	0.55661	0.375	0.291
Mof_C 	C 	0.6309	0.59162	0.4308	0.282
Mof_C 	C 	0.7228	0.59027	0.3232	0.273
Mof_C 	C 	0.8801	0.75057	0.574	0.273
Mof_C 	C 	0.9765	0.73937	0.6836	0.259
Mof_C 	C 	0.4887	0.47338	0.0476	0.253
Mof_Nd	Nd	0.43231	0.90454	0.05977	2.204
Mof_Nd	Nd	0.92164	0.89484	0.6936	2.413
Mof_O 	O 	0.5961	0.84626	0.9495	-0.46
Mof_O 	O 	0.7457	0.8409	0.8074	-0.466
Mof_O 	O 	0.6017	0.97402	0.9361	-0.613
Mof_O 	O 	0.7721	0.96571	0.8119	-0.505
Mof_O 	O 	0.1852	0.91149	0.0332	-0.457
Mof_O 	O 	0.0074	0.90367	0.9069	-0.437
Mof_O 	O 	0.3456	0.91348	0.8482	-0.461
Mof_O 	O 	0.1677	0.90756	0.7196	-0.457
Mof_O 	O 	0.3364	0.79685	0.0173	-0.419
Mof_O 	O 	0.3509	0.6926	0.0511	-0.457
Mof_O 	O 	0.5057	0.81742	0.2054	-0.467
Mof_O 	O 	0.5184	0.71328	0.2401	-0.436
Mof_O 	O 	0.9643	0.00889	0.6516	-0.465
Mof_O 	O 	0.9959	0.08249	0.5114	-0.457
Mof_C 	C 	0.6739	0.8705	0.8773	0.274
Mof_C 	C 	0.6849	0.94339	0.875	0.291
Mof_C 	C 	0.1309	0.90838	0.9308	0.292
Mof_C 	C 	0.2228	0.90973	0.8232	0.271
Mof_C 	C 	0.3801	0.74943	0.074	0.268
Mof_C 	C 	0.4765	0.76063	0.1836	0.281
Mof_C 	C 	0.9887	0.02662	0.5476	0.254
Mof_Nd	Nd	0.06769	0.40454	0.44023	2.206
Mof_Nd	Nd	0.57836	0.39485	0.8064	2.445
Mof_O 	O 	0.9039	0.34626	0.5505	-0.46
Mof_O 	O 	0.7543	0.3409	0.6926	-0.467
Mof_O 	O 	0.8983	0.47402	0.5639	-0.614
Mof_O 	O 	0.7279	0.46571	0.6881	-0.506
Mof_O 	O 	0.3148	0.41149	0.4668	-0.449
Mof_O 	O 	0.4926	0.40367	0.5931	-0.445
Mof_O 	O 	0.1544	0.41348	0.6518	-0.465
Mof_O 	O 	0.3323	0.40756	0.7804	-0.463
Mof_O 	O 	0.1636	0.29685	0.4827	-0.419
Mof_O 	O 	0.1491	0.1926	0.4489	-0.456
Mof_O 	O 	0.9943	0.31742	0.2946	-0.454
Mof_O 	O 	0.9816	0.21328	0.2599	-0.419
Mof_O 	O 	0.5357	0.50889	0.8484	-0.468
Mof_O 	O 	0.5041	0.58249	0.9886	-0.463
Mof_C 	C 	0.8261	0.3705	0.6227	0.274
Mof_C 	C 	0.8151	0.44339	0.625	0.291
Mof_C 	C 	0.3691	0.40838	0.5692	0.282
Mof_C 	C 	0.2772	0.40973	0.6768	0.273
Mof_C 	C 	0.1199	0.24943	0.426	0.273
Mof_C 	C 	0.0235	0.26063	0.3164	0.259
Mof_C 	C 	0.5113	0.52662	0.9524	0.253
_end
