data_functionalizedCrystal
_audit_creation_method	'EQeq! by Chris Wilmer'
_symmetry_space_group_name_H-M	'P1'
_symmetry_Int_Tables_number	1
_symmetry_cell_setting	triclinic
loop_
_symmetry_equiv_pos_as_xyz
  x,y,z
_cell_length_a	8.7433
_cell_length_b	11.256
_cell_length_c	17.7306
_cell_angle_alpha	84.505
_cell_angle_beta	75.726
_cell_angle_gamma	67.1462
loop_
_atom_site_label
_atom_site_type_symbol
_atom_site_fract_x
_atom_site_fract_y
_atom_site_fract_z
_atom_site_charge
Mof_Sc	Sc	0.63568	0.75	0.72864	1.981
Mof_Sc	Sc	0.11432	0.75	0.77136	1.975
Mof_Sc	Sc	0.36432	0.25	0.27136	1.981
Mof_Sc	Sc	0.88568	0.25	0.22864	1.975
Mof_H 	H 	0.2205	0.5508	0.9822	0.043
Mof_H 	H 	0.6838	0.5718	0.9086	0.032
Mof_H 	H 	0.8451	0.3622	0.7496	0.046
Mof_H 	H 	0.7973	0.9492	0.9822	0.044
Mof_H 	H 	0.4076	0.9282	0.9086	0.032
Mof_H 	H 	0.4053	0.1378	0.7496	0.036
Mof_H 	H 	0.7287	0.5508	0.5178	0.042
Mof_H 	H 	0.2444	0.5718	0.5914	0.031
Mof_H 	H 	0.2927	0.3622	0.7504	0.042
Mof_H 	H 	0.7535	0.9492	0.5178	0.04
Mof_H 	H 	0.1642	0.9282	0.5914	0.035
Mof_H 	H 	0.9569	0.1378	0.7504	0.029
Mof_H 	H 	0.7795	0.4492	0.0178	0.042
Mof_H 	H 	0.3162	0.4282	0.0914	0.031
Mof_H 	H 	0.1549	0.6378	0.2504	0.045
Mof_H 	H 	0.2027	0.0508	0.0178	0.043
Mof_H 	H 	0.5924	0.0718	0.0914	0.031
Mof_H 	H 	0.5947	0.8622	0.2504	0.035
Mof_H 	H 	0.2713	0.4492	0.4822	0.042
Mof_H 	H 	0.7556	0.4282	0.4086	0.031
Mof_H 	H 	0.7073	0.6378	0.2496	0.042
Mof_H 	H 	0.2465	0.0508	0.4822	0.04
Mof_H 	H 	0.8358	0.0718	0.4086	0.035
Mof_H 	H 	0.0431	0.8622	0.2496	0.029
Mof_C 	C 	0.95629	0.3166	0.74902	-0.013
Mof_C 	C 	0.4493	0.56714	0.93504	-0.152
Mof_C 	C 	0.39579	0.63944	0.8646	0.551
Mof_C 	C 	0.61196	0.53892	0.94456	0.01
Mof_C 	C 	0.33738	0.5283	0.99054	0.008
Mof_C 	C 	0.29469	0.1834	0.74902	0.015
Mof_C 	C 	0.61566	0.93286	0.93504	-0.15
Mof_C 	C 	0.73961	0.86056	0.8646	0.551
Mof_C 	C 	0.44348	0.96108	0.94456	0.007
Mof_C 	C 	0.67208	0.9717	0.99054	0.01
Mof_C 	C 	0.22711	0.3166	0.75098	-0.004
Mof_C 	C 	0.48356	0.56714	0.56496	-0.152
Mof_C 	C 	0.46477	0.63944	0.6354	0.551
Mof_C 	C 	0.34912	0.53892	0.55544	0.01
Mof_C 	C 	0.63432	0.5283	0.50946	0.008
Mof_C 	C 	0.02191	0.1834	0.75098	0.027
Mof_C 	C 	0.95148	0.93286	0.56496	-0.144
Mof_C 	C 	0.89983	0.86056	0.6354	0.549
Mof_C 	C 	0.09544	0.96108	0.55544	-0.004
Mof_C 	C 	0.85622	0.9717	0.50946	0.016
Mof_C 	C 	0.04371	0.6834	0.25098	-0.013
Mof_C 	C 	0.5507	0.43286	0.06496	-0.152
Mof_C 	C 	0.60421	0.36056	0.1354	0.551
Mof_C 	C 	0.38804	0.46108	0.05544	0.01
Mof_C 	C 	0.66262	0.4717	0.00946	0.008
Mof_C 	C 	0.70531	0.8166	0.25098	0.015
Mof_C 	C 	0.38434	0.06714	0.06496	-0.15
Mof_C 	C 	0.26039	0.13944	0.1354	0.551
Mof_C 	C 	0.55652	0.03892	0.05544	0.007
Mof_C 	C 	0.32792	0.0283	0.00946	0.01
Mof_C 	C 	0.77289	0.6834	0.24902	-0.004
Mof_C 	C 	0.51644	0.43286	0.43504	-0.152
Mof_C 	C 	0.53523	0.36056	0.3646	0.551
Mof_C 	C 	0.65088	0.46108	0.44456	0.01
Mof_C 	C 	0.36568	0.4717	0.49054	0.008
Mof_C 	C 	0.97809	0.8166	0.24902	0.027
Mof_C 	C 	0.04852	0.06714	0.43504	-0.144
Mof_C 	C 	0.10017	0.13944	0.3646	0.549
Mof_C 	C 	0.90456	0.03892	0.44456	-0.004
Mof_C 	C 	0.14378	0.0283	0.49054	0.016
Mof_C 	C 	0.98643	0.52714	0.75	0.551
Mof_C 	C 	0.0581	0.3838	0.75	-0.14
Mof_C 	C 	0.26357	0.97286	0.75	0.553
Mof_C 	C 	0.1919	0.1162	0.75	-0.158
Mof_C 	C 	0.01357	0.47286	0.25	0.551
Mof_C 	C 	0.9419	0.6162	0.25	-0.14
Mof_C 	C 	0.73643	0.02714	0.25	0.553
Mof_C 	C 	0.8081	0.8838	0.25	-0.158
Mof_O 	O 	0.84877	0.58362	0.72938	-0.576
Mof_O 	O 	0.50362	0.6685	0.81486	-0.595
Mof_O 	O 	0.24597	0.66664	0.85892	-0.556
Mof_O 	O 	0.42185	0.91638	0.72938	-0.577
Mof_O 	O 	0.68152	0.8315	0.81486	-0.595
Mof_O 	O 	0.89511	0.83336	0.85892	-0.553
Mof_O 	O 	0.06761	0.58362	0.77062	-0.576
Mof_O 	O 	0.32788	0.6685	0.68514	-0.595
Mof_O 	O 	0.58739	0.66664	0.64108	-0.557
Mof_O 	O 	0.16177	0.91638	0.77062	-0.578
Mof_O 	O 	0.98698	0.8315	0.68514	-0.591
Mof_O 	O 	0.77153	0.83336	0.64108	-0.556
Mof_O 	O 	0.15123	0.41638	0.27062	-0.576
Mof_O 	O 	0.49638	0.3315	0.18514	-0.595
Mof_O 	O 	0.75403	0.33336	0.14108	-0.556
Mof_O 	O 	0.57815	0.08362	0.27062	-0.577
Mof_O 	O 	0.31848	0.1685	0.18514	-0.595
Mof_O 	O 	0.10489	0.16664	0.14108	-0.553
Mof_O 	O 	0.93239	0.41638	0.22938	-0.576
Mof_O 	O 	0.67212	0.3315	0.31486	-0.595
Mof_O 	O 	0.41261	0.33336	0.35892	-0.557
Mof_O 	O 	0.83823	0.08362	0.22938	-0.578
Mof_O 	O 	0.01302	0.1685	0.31486	-0.591
Mof_O 	O 	0.22847	0.16664	0.35892	-0.556
_end
