data_functionalizedCrystal
_audit_creation_method	'EQeq! by Chris Wilmer'
_symmetry_space_group_name_H-M	'P1'
_symmetry_Int_Tables_number	1
_symmetry_cell_setting	triclinic
loop_
_symmetry_equiv_pos_as_xyz
  x,y,z
_cell_length_a	7.7245
_cell_length_b	13.609
_cell_length_c	14.061
_cell_angle_alpha	90
_cell_angle_beta	90
_cell_angle_gamma	90
loop_
_atom_site_label
_atom_site_type_symbol
_atom_site_fract_x
_atom_site_fract_y
_atom_site_fract_z
_atom_site_charge
Mof_C 	C 	0.0576	0.187	0.2675	-0.229
Mof_N 	N 	0.9518	0.2326	0.3017	-0.113
Mof_C 	C 	0.0606	0.003	0.1583	-0.24
Mof_N 	N 	0.9532	0.9495	0.1382	-0.112
Mof_C 	C 	0.9424	0.313	0.7675	-0.229
Mof_N 	N 	0.0482	0.2674	0.8017	-0.113
Mof_C 	C 	0.9394	0.497	0.6583	-0.241
Mof_N 	N 	0.0468	0.5505	0.6382	-0.11
Mof_C 	C 	0.5576	0.813	0.7325	-0.23
Mof_N 	N 	0.4518	0.7674	0.6983	-0.112
Mof_C 	C 	0.5606	0.997	0.8417	-0.241
Mof_N 	N 	0.4532	0.0505	0.8618	-0.111
Mof_C 	C 	0.4424	0.687	0.2325	-0.23
Mof_N 	N 	0.5482	0.7326	0.1983	-0.112
Mof_C 	C 	0.4394	0.503	0.3417	-0.242
Mof_N 	N 	0.5468	0.4495	0.3618	-0.11
Mof_C 	C 	0.9424	0.813	0.7325	-0.229
Mof_N 	N 	0.0482	0.7674	0.6983	-0.113
Mof_C 	C 	0.9394	0.997	0.8417	-0.24
Mof_N 	N 	0.0468	0.0505	0.8618	-0.112
Mof_C 	C 	0.0576	0.687	0.2325	-0.229
Mof_N 	N 	0.9518	0.7326	0.1983	-0.113
Mof_C 	C 	0.0606	0.503	0.3417	-0.241
Mof_N 	N 	0.9532	0.4495	0.3618	-0.11
Mof_C 	C 	0.4424	0.187	0.2675	-0.23
Mof_N 	N 	0.5482	0.2326	0.3017	-0.112
Mof_C 	C 	0.4394	0.003	0.1583	-0.241
Mof_N 	N 	0.5468	0.9495	0.1382	-0.111
Mof_C 	C 	0.5576	0.313	0.7675	-0.23
Mof_N 	N 	0.4518	0.2674	0.8017	-0.112
Mof_C 	C 	0.5606	0.497	0.6583	-0.242
Mof_N 	N 	0.4532	0.5505	0.6382	-0.11
Mof_Cr	Cr	0.25	0.09647	0.20897	1.37
Mof_C 	C 	0.25	0.1681	0.0769	-0.238
Mof_N 	N 	0.25	0.1959	0.0006	-0.103
Mof_C 	C 	0.25	0.0168	0.3303	-0.272
Mof_N 	N 	0.25	0.9707	0.3994	-0.035
Mof_Cr	Cr	0.75	0.40353	0.70897	1.371
Mof_C 	C 	0.75	0.3319	0.5769	-0.238
Mof_N 	N 	0.75	0.3041	0.5006	-0.104
Mof_C 	C 	0.75	0.4832	0.8303	-0.273
Mof_N 	N 	0.75	0.5293	0.8994	-0.034
Mof_Cr	Cr	0.75	0.90353	0.79103	1.37
Mof_C 	C 	0.75	0.8319	0.9231	-0.238
Mof_N 	N 	0.75	0.8041	0.9994	-0.103
Mof_C 	C 	0.75	0.9832	0.6697	-0.272
Mof_N 	N 	0.75	0.0293	0.6006	-0.035
Mof_Cr	Cr	0.25	0.59647	0.29103	1.371
Mof_C 	C 	0.25	0.6681	0.4231	-0.238
Mof_N 	N 	0.25	0.6959	0.4994	-0.104
Mof_C 	C 	0.25	0.5168	0.1697	-0.273
Mof_N 	N 	0.25	0.4707	0.1006	-0.034
Mof_Mn	Mn	0.75	0.33892	0.34467	0.666
Mof_Mn	Mn	0.25	0.16108	0.84467	0.665
Mof_Mn	Mn	0.25	0.66108	0.65533	0.666
Mof_Mn	Mn	0.75	0.83892	0.15533	0.665
_end
