data_functionalizedCrystal
_audit_creation_method	'EQeq! by Chris Wilmer'
_symmetry_space_group_name_H-M	'P1'
_symmetry_Int_Tables_number	1
_symmetry_cell_setting	triclinic
loop_
_symmetry_equiv_pos_as_xyz
  x,y,z
_cell_length_a	8.517
_cell_length_b	10.3341
_cell_length_c	18.2392
_cell_angle_alpha	104.782
_cell_angle_beta	91.187
_cell_angle_gamma	110.479
loop_
_atom_site_label
_atom_site_type_symbol
_atom_site_fract_x
_atom_site_fract_y
_atom_site_fract_z
_atom_site_charge
Mof_Zn	Zn	0.67065	0.81002	0.21816	1.232
Mof_Zn	Zn	0.96237	0.13835	0.30935	1.23
Mof_O 	O 	0.5246	0.60787	0.17217	-0.406
Mof_O 	O 	0.0959	0.3477	0.35855	-0.41
Mof_O 	O 	0.8591	0.4292	0.42017	-0.462
Mof_H 	H 	0.9487	0.4195	0.4064	0.294
Mof_O 	O 	0.645	0.8601	0.32596	-0.482
Mof_O 	O 	0.7435	0.1427	0.26767	-0.467
Mof_O 	O 	0.7406	0.6059	0.24138	-0.307
Mof_O 	O 	0.8657	0.8542	0.16052	-0.479
Mof_O 	O 	0.2394	0.20713	0.35696	-0.34
Mof_O 	O 	0.5666	0.9372	0.18729	-0.453
Mof_O 	O 	0.8653	0.0543	0.39052	-0.471
Mof_O 	O 	0.0314	0.0856	0.20708	-0.464
Mof_O 	O 	0.9905	0.6533	0.41258	-0.255
Mof_C 	C 	0.603	0.5418	0.20051	0.294
Mof_C 	C 	0.5207	0.3808	0.18078	-0.052
Mof_C 	C 	0.236	0.33	0.37129	0.295
Mof_C 	C 	0.528	0.7202	0.4479	0.019
Mof_C 	C 	0.7181	0.9632	0.38374	0.403
Mof_C 	C 	0.5284	0.154	0.18954	-0.084
Mof_C 	C 	0.5995	0.3035	0.20978	0.016
Mof_H 	H 	0.7019	0.353	0.2434	0.06
Mof_C 	C 	0.8627	0.5573	0.41848	0.365
Mof_C 	C 	0.5134	0.8635	0.47338	0.05
Mof_C 	C 	0.3768	0.0816	0.14129	-0.007
Mof_H 	H 	0.328	0.9795	0.1279	0.058
Mof_C 	C 	0.1401	0.0793	0.05699	0.047
Mof_C 	C 	0.1455	0.0934	0.98293	-0.034
Mof_H 	H 	0.2453	0.158	0.9709	0.054
Mof_C 	C 	0.3824	0.597	0.42513	-0.033
Mof_H 	H 	0.2749	0.6056	0.4264	0.081
Mof_C 	C 	0.6197	0.0715	0.21734	0.39
Mof_C 	C 	0.5484	0.4469	0.40019	0.012
Mof_H 	H 	0.5554	0.3542	0.385	0.065
Mof_C 	C 	0.9622	0.9733	0.15374	0.391
Mof_C 	C 	0.3693	0.3078	0.13237	-0.027
Mof_H 	H 	0.3156	0.3606	0.1127	0.067
Mof_C 	C 	0.6141	0.981	0.44853	-0.082
Mof_C 	C 	0.685	0.7059	0.44576	-0.019
Mof_H 	H 	0.7856	0.7891	0.4603	0.068
Mof_C 	C 	0.3921	0.461	0.40043	-0.049
Mof_C 	C 	0.9912	0.9844	0.07395	-0.091
Mof_C 	C 	0.2961	0.158	0.11255	0.008
Mof_C 	C 	0.6947	0.5699	0.42237	-0.067
Mof_C 	C 	0.3991	0.8847	0.52445	-0.03
Mof_H 	H 	0.329	0.8062	0.5411	0.072
Mof_Zn	Zn	0.32935	0.18998	0.78184	1.232
Mof_Zn	Zn	0.03763	0.86165	0.69065	1.23
Mof_O 	O 	0.4754	0.39213	0.82783	-0.406
Mof_O 	O 	0.9041	0.6523	0.64145	-0.41
Mof_O 	O 	0.1409	0.5708	0.57983	-0.462
Mof_H 	H 	0.0513	0.5805	0.5936	0.294
Mof_O 	O 	0.355	0.1399	0.67404	-0.482
Mof_O 	O 	0.2565	0.8573	0.73233	-0.467
Mof_O 	O 	0.2594	0.3941	0.75862	-0.307
Mof_O 	O 	0.1343	0.1458	0.83948	-0.479
Mof_O 	O 	0.7606	0.79287	0.64304	-0.34
Mof_O 	O 	0.4334	0.0628	0.81271	-0.453
Mof_O 	O 	0.1347	0.9457	0.60948	-0.471
Mof_O 	O 	0.9686	0.9144	0.79292	-0.464
Mof_O 	O 	0.0095	0.3467	0.58742	-0.255
Mof_C 	C 	0.397	0.4582	0.79949	0.294
Mof_C 	C 	0.4793	0.6192	0.81922	-0.052
Mof_C 	C 	0.764	0.67	0.62871	0.295
Mof_C 	C 	0.472	0.2798	0.5521	0.019
Mof_C 	C 	0.2819	0.0368	0.61626	0.403
Mof_C 	C 	0.4716	0.846	0.81046	-0.084
Mof_C 	C 	0.4005	0.6965	0.79022	0.016
Mof_H 	H 	0.2981	0.647	0.7566	0.06
Mof_C 	C 	0.1373	0.4427	0.58152	0.365
Mof_C 	C 	0.4866	0.1365	0.52662	0.05
Mof_C 	C 	0.6232	0.9184	0.85871	-0.007
Mof_H 	H 	0.672	0.0205	0.8721	0.058
Mof_C 	C 	0.8599	0.9207	0.94301	0.047
Mof_C 	C 	0.8545	0.9066	0.01707	-0.034
Mof_H 	H 	0.7547	0.842	0.0291	0.054
Mof_C 	C 	0.6176	0.403	0.57487	-0.033
Mof_H 	H 	0.7251	0.3944	0.5736	0.081
Mof_C 	C 	0.3803	0.9285	0.78266	0.39
Mof_C 	C 	0.4516	0.5531	0.59981	0.012
Mof_H 	H 	0.4446	0.6458	0.615	0.065
Mof_C 	C 	0.0378	0.0267	0.84626	0.391
Mof_C 	C 	0.6307	0.6922	0.86763	-0.027
Mof_H 	H 	0.6844	0.6394	0.8873	0.067
Mof_C 	C 	0.3859	0.019	0.55147	-0.082
Mof_C 	C 	0.315	0.2941	0.55424	-0.019
Mof_H 	H 	0.2144	0.2109	0.5397	0.068
Mof_C 	C 	0.6079	0.539	0.59957	-0.049
Mof_C 	C 	0.0088	0.0156	0.92605	-0.091
Mof_C 	C 	0.7039	0.842	0.88745	0.008
Mof_C 	C 	0.3053	0.4301	0.57763	-0.067
Mof_C 	C 	0.6009	0.1153	0.47555	-0.03
Mof_H 	H 	0.671	0.1938	0.4589	0.072
_end
