data_functionalizedCrystal
_audit_creation_method	'EQeq! by Chris Wilmer'
_symmetry_space_group_name_H-M	'P1'
_symmetry_Int_Tables_number	1
_symmetry_cell_setting	triclinic
loop_
_symmetry_equiv_pos_as_xyz
  x,y,z
_cell_length_a	13.6206
_cell_length_b	13.6206
_cell_length_c	8.1751
_cell_angle_alpha	90
_cell_angle_beta	90
_cell_angle_gamma	120
loop_
_atom_site_label
_atom_site_type_symbol
_atom_site_fract_x
_atom_site_fract_y
_atom_site_fract_z
_atom_site_charge
Mof_Mn	Mn	0.29561	0.33426	0.54383	0.784
Mof_O 	O 	0.2282	0.1804	0.4051	-0.34
Mof_C 	C 	0.5303	0.3217	0.5537	-0.271
Mof_C 	C 	0.3543	0.5561	0.7755	-0.253
Mof_O 	O 	0.2443	0.0587	0.2465	-0.34
Mof_C 	C 	0.267	0.1588	0.2802	0.344
Mof_N 	N 	0.3448	0.2101	0.0042	-0.244
Mof_H 	H 	0.4089	0.2578	0.9505	0.078
Mof_H 	H 	0.2852	0.2013	0.9451	0.119
Mof_C 	C 	0.344	0.255	0.1672	-0.112
Mof_H 	H 	0.421	0.2868	0.2108	0.049
Mof_N 	N 	0.3631	0.4251	0.307	-0.294
Mof_H 	H 	0.3465	0.4811	0.2995	0.098
Mof_H 	H 	0.4391	0.4574	0.3076	0.105
Mof_C 	C 	0.3185	0.3523	0.161	-0.014
Mof_H 	H 	0.3525	0.3975	0.0637	0.031
Mof_H 	H 	0.2372	0.3216	0.1546	0.042
Mof_N 	N 	0.4499	0.3193	0.6035	-0.113
Mof_N 	N 	0.366	0.4954	0.6916	-0.122
Mof_Mn	Mn	0.66574	0.96135	0.54383	0.783
Mof_O 	O 	0.8196	0.0478	0.4051	-0.34
Mof_C 	C 	0.6783	0.2086	0.5537	-0.271
Mof_C 	C 	0.4439	0.7982	0.7755	-0.254
Mof_O 	O 	0.9413	0.1856	0.2465	-0.341
Mof_C 	C 	0.8412	0.1082	0.2802	0.344
Mof_N 	N 	0.7899	0.1347	0.0042	-0.246
Mof_H 	H 	0.7422	0.1511	0.9505	0.08
Mof_H 	H 	0.7987	0.0839	0.9451	0.121
Mof_C 	C 	0.745	0.089	0.1672	-0.113
Mof_H 	H 	0.7132	0.1342	0.2108	0.05
Mof_N 	N 	0.5749	0.938	0.307	-0.294
Mof_H 	H 	0.5189	0.8654	0.2995	0.099
Mof_H 	H 	0.5426	0.9817	0.3076	0.105
Mof_C 	C 	0.6477	0.9662	0.161	-0.012
Mof_H 	H 	0.6025	0.955	0.0637	0.03
Mof_H 	H 	0.6784	0.9156	0.1546	0.041
Mof_N 	N 	0.6807	0.1306	0.6035	-0.113
Mof_N 	N 	0.5046	0.8706	0.6916	-0.122
Mof_Mn	Mn	0.03865	0.70439	0.54383	0.783
Mof_O 	O 	0.9522	0.7718	0.4051	-0.34
Mof_C 	C 	0.7914	0.4697	0.5537	-0.271
Mof_C 	C 	0.2018	0.6457	0.7755	-0.254
Mof_O 	O 	0.8144	0.7557	0.2465	-0.34
Mof_C 	C 	0.8918	0.733	0.2802	0.344
Mof_N 	N 	0.8653	0.6552	0.0042	-0.244
Mof_H 	H 	0.8489	0.5911	0.9505	0.079
Mof_H 	H 	0.9161	0.7148	0.9451	0.119
Mof_C 	C 	0.911	0.656	0.1672	-0.113
Mof_H 	H 	0.8658	0.579	0.2108	0.049
Mof_N 	N 	0.062	0.6369	0.307	-0.294
Mof_H 	H 	0.1346	0.6535	0.2995	0.099
Mof_H 	H 	0.0183	0.5609	0.3076	0.105
Mof_C 	C 	0.0338	0.6815	0.161	-0.013
Mof_H 	H 	0.045	0.6475	0.0637	0.031
Mof_H 	H 	0.0844	0.7628	0.1546	0.042
Mof_N 	N 	0.8694	0.5501	0.6035	-0.113
Mof_N 	N 	0.1294	0.634	0.6916	-0.122
Mof_Mn	Mn	0.70439	0.66574	0.04383	0.808
Mof_O 	O 	0.7718	0.8196	0.9051	-0.353
Mof_C 	C 	0.4697	0.6783	0.0537	-0.24
Mof_C 	C 	0.6457	0.4439	0.2755	-0.258
Mof_O 	O 	0.7557	0.9413	0.7465	-0.343
Mof_C 	C 	0.733	0.8412	0.7802	0.342
Mof_N 	N 	0.6552	0.7899	0.5042	-0.275
Mof_H 	H 	0.5911	0.7422	0.4505	0.1
Mof_H 	H 	0.7148	0.7987	0.4451	0.14
Mof_C 	C 	0.656	0.745	0.6672	-0.113
Mof_H 	H 	0.579	0.7132	0.7108	0.046
Mof_N 	N 	0.6369	0.5749	0.807	-0.298
Mof_H 	H 	0.6535	0.5189	0.7995	0.095
Mof_H 	H 	0.5609	0.5426	0.8076	0.101
Mof_C 	C 	0.6815	0.6477	0.661	-0.013
Mof_H 	H 	0.6475	0.6025	0.5637	0.023
Mof_H 	H 	0.7628	0.6784	0.6546	0.037
Mof_N 	N 	0.5501	0.6807	0.1035	-0.118
Mof_N 	N 	0.634	0.5046	0.1916	-0.117
Mof_Mn	Mn	0.33426	0.03865	0.04383	0.807
Mof_O 	O 	0.1804	0.9522	0.9051	-0.354
Mof_C 	C 	0.3217	0.7914	0.0537	-0.24
Mof_C 	C 	0.5561	0.2018	0.2755	-0.259
Mof_O 	O 	0.0587	0.8144	0.7465	-0.343
Mof_C 	C 	0.1588	0.8918	0.7802	0.343
Mof_N 	N 	0.2101	0.8653	0.5042	-0.275
Mof_H 	H 	0.2578	0.8489	0.4505	0.1
Mof_H 	H 	0.2013	0.9161	0.4451	0.14
Mof_C 	C 	0.255	0.911	0.6672	-0.113
Mof_H 	H 	0.2868	0.8658	0.7108	0.046
Mof_N 	N 	0.4251	0.062	0.807	-0.297
Mof_H 	H 	0.4811	0.1346	0.7995	0.095
Mof_H 	H 	0.4574	0.0183	0.8076	0.101
Mof_C 	C 	0.3523	0.0338	0.661	-0.013
Mof_H 	H 	0.3975	0.045	0.5637	0.023
Mof_H 	H 	0.3216	0.0844	0.6546	0.037
Mof_N 	N 	0.3193	0.8694	0.1035	-0.117
Mof_N 	N 	0.4954	0.1294	0.1916	-0.117
Mof_Mn	Mn	0.96135	0.29561	0.04383	0.805
Mof_O 	O 	0.0478	0.2282	0.9051	-0.352
Mof_C 	C 	0.2086	0.5303	0.0537	-0.24
Mof_C 	C 	0.7982	0.3543	0.2755	-0.259
Mof_O 	O 	0.1856	0.2443	0.7465	-0.342
Mof_C 	C 	0.1082	0.267	0.7802	0.342
Mof_N 	N 	0.1347	0.3448	0.5042	-0.275
Mof_H 	H 	0.1511	0.4089	0.4505	0.1
Mof_H 	H 	0.0839	0.2852	0.4451	0.141
Mof_C 	C 	0.089	0.344	0.6672	-0.113
Mof_H 	H 	0.1342	0.421	0.7108	0.046
Mof_N 	N 	0.938	0.3631	0.807	-0.297
Mof_H 	H 	0.8654	0.3465	0.7995	0.096
Mof_H 	H 	0.9817	0.4391	0.8076	0.101
Mof_C 	C 	0.9662	0.3185	0.661	-0.013
Mof_H 	H 	0.955	0.3525	0.5637	0.023
Mof_H 	H 	0.9156	0.2372	0.6546	0.037
Mof_N 	N 	0.1306	0.4499	0.1035	-0.117
Mof_N 	N 	0.8706	0.366	0.1916	-0.117
Mof_Cr	Cr	0.33333	0.66667	0.92457	1.291
Mof_Cr	Cr	0.66667	0.33333	0.42457	1.374
_end
