data_functionalizedCrystal
_audit_creation_method	'EQeq! by Chris Wilmer'
_symmetry_space_group_name_H-M	'P1'
_symmetry_Int_Tables_number	1
_symmetry_cell_setting	triclinic
loop_
_symmetry_equiv_pos_as_xyz
  x,y,z
_cell_length_a	9.1948
_cell_length_b	10.727
_cell_length_c	10.727
_cell_angle_alpha	114.583
_cell_angle_beta	102.927
_cell_angle_gamma	102.927
loop_
_atom_site_label
_atom_site_type_symbol
_atom_site_fract_x
_atom_site_fract_y
_atom_site_fract_z
_atom_site_charge
Mof_Th	Th	0.25	0.48131	0.51869	0.057
Mof_Th	Th	0.75	0.51869	0.48131	0.057
Mof_H 	H 	0.5218	0.2033	0.0489	0.074
Mof_H 	H 	0.2527	0.0235	0.4821	0.067
Mof_H 	H 	0.7866	0.4632	0.8104	0.077
Mof_H 	H 	0.0706	0.1663	0.0197	0.061
Mof_H 	H 	0.0218	0.0489	0.2033	0.075
Mof_H 	H 	0.7527	0.4821	0.0235	0.068
Mof_H 	H 	0.9782	0.9511	0.7967	0.075
Mof_H 	H 	0.9294	0.8337	0.9803	0.061
Mof_H 	H 	0.7134	0.1896	0.5368	0.078
Mof_H 	H 	0.5706	0.0197	0.1663	0.061
Mof_H 	H 	0.4782	0.7967	0.9511	0.074
Mof_H 	H 	0.2473	0.5179	0.9765	0.068
Mof_H 	H 	0.7473	0.9765	0.5179	0.067
Mof_H 	H 	0.2134	0.5368	0.1896	0.077
Mof_H 	H 	0.2866	0.8104	0.4632	0.078
Mof_H 	H 	0.4294	0.9803	0.8337	0.061
Mof_C 	C 	0.8648	0.2159	0.3237	0.261
Mof_C 	C 	0.3573	0.0164	0.8722	-0.024
Mof_C 	C 	0.1427	0.1278	0.9836	-0.024
Mof_C 	C 	0.1352	0.7841	0.6763	0.261
Mof_C 	C 	0.1481	0.511	0.986	-0.028
Mof_C 	C 	0.8573	0.8722	0.0164	-0.024
Mof_C 	C 	0.8725	0.4783	0.8869	-0.033
Mof_C 	C 	0.6948	0.8002	0.938	-0.03
Mof_C 	C 	0.3725	0.8869	0.4783	-0.034
Mof_C 	C 	0.0209	0.4899	0.8725	-0.03
Mof_C 	C 	0.0871	0.9976	0.851	-0.037
Mof_C 	C 	0.3052	0.1998	0.062	-0.03
Mof_C 	C 	0.3519	0.014	0.489	-0.027
Mof_C 	C 	0.9129	0.0024	0.149	-0.037
Mof_C 	C 	0.9791	0.5101	0.1275	-0.03
Mof_C 	C 	0.5871	0.851	0.9976	-0.034
Mof_C 	C 	0.0442	0.4806	0.7356	0.264
Mof_C 	C 	0.3648	0.3237	0.2159	0.262
Mof_C 	C 	0.1275	0.5217	0.1131	-0.033
Mof_C 	C 	0.8519	0.489	0.014	-0.028
Mof_C 	C 	0.9558	0.5194	0.2644	0.264
Mof_C 	C 	0.6275	0.1131	0.5217	-0.034
Mof_C 	C 	0.4558	0.2644	0.5194	0.264
Mof_C 	C 	0.6427	0.9836	0.1278	-0.024
Mof_C 	C 	0.6481	0.986	0.511	-0.027
Mof_C 	C 	0.5209	0.8725	0.4899	-0.029
Mof_C 	C 	0.1948	0.938	0.8002	-0.029
Mof_C 	C 	0.6352	0.6763	0.7841	0.262
Mof_C 	C 	0.4129	0.149	0.0024	-0.034
Mof_C 	C 	0.5442	0.7356	0.4806	0.264
Mof_C 	C 	0.4791	0.1275	0.5101	-0.029
Mof_C 	C 	0.8052	0.062	0.1998	-0.029
Mof_O 	O 	0.3272	0.28057	0.52603	-0.168
Mof_O 	O 	0.511	0.40288	0.27232	-0.158
Mof_O 	O 	0.011	0.27232	0.40288	-0.158
Mof_O 	O 	0.0663	0.51763	0.35697	-0.157
Mof_O 	O 	0.489	0.59712	0.72768	-0.158
Mof_O 	O 	0.8272	0.52603	0.28057	-0.168
Mof_O 	O 	0.2669	0.33833	0.28067	-0.172
Mof_O 	O 	0.7331	0.66167	0.71933	-0.172
Mof_O 	O 	0.1728	0.47397	0.71943	-0.168
Mof_O 	O 	0.989	0.72768	0.59712	-0.158
Mof_O 	O 	0.2331	0.71933	0.66167	-0.172
Mof_O 	O 	0.9337	0.48237	0.64303	-0.157
Mof_O 	O 	0.4337	0.64303	0.48237	-0.157
Mof_O 	O 	0.5663	0.35697	0.51763	-0.157
Mof_O 	O 	0.6728	0.71943	0.47397	-0.168
Mof_O 	O 	0.7669	0.28067	0.33833	-0.172
_end
