data_functionalizedCrystal
_audit_creation_method	'EQeq! by Chris Wilmer'
_symmetry_space_group_name_H-M	'P1'
_symmetry_Int_Tables_number	1
_symmetry_cell_setting	triclinic
loop_
_symmetry_equiv_pos_as_xyz
  x,y,z
_cell_length_a	17.479
_cell_length_b	25.117
_cell_length_c	26.607
_cell_angle_alpha	90
_cell_angle_beta	90
_cell_angle_gamma	90
loop_
_atom_site_label
_atom_site_type_symbol
_atom_site_fract_x
_atom_site_fract_y
_atom_site_fract_z
_atom_site_charge
Mof_Zn	Zn	0.73911	0.92099	0.82898	1.171
Mof_Zn	Zn	0.28033	0.27965	0.80042	1.212
Mof_Zn	Zn	0.43485	0.21029	0.83719	1.212
Mof_Zn	Zn	0.93414	0.27862	0.96167	1.208
Mof_Zn	Zn	0.90131	0.95437	0.90562	1.197
Mof_Zn	Zn	0.7792	0.34888	0.92537	1.215
Mof_Zn	Zn	0.3182	0.60356	0.85337	1.162
Mof_Zn	Zn	0.23911	0.07901	0.17102	1.173
Mof_Zn	Zn	0.78033	0.72035	0.19958	1.211
Mof_Zn	Zn	0.93485	0.78971	0.16281	1.207
Mof_Zn	Zn	0.43414	0.72138	0.03833	1.214
Mof_Zn	Zn	0.40131	0.04563	0.09438	1.2
Mof_Zn	Zn	0.2792	0.65112	0.07463	1.216
Mof_Zn	Zn	0.8182	0.39644	0.14663	1.162
Mof_Zn	Zn	0.73911	0.42099	0.67102	1.172
Mof_Zn	Zn	0.28033	0.77965	0.69958	1.213
Mof_Zn	Zn	0.43485	0.71029	0.66281	1.213
Mof_Zn	Zn	0.93414	0.77862	0.53833	1.209
Mof_Zn	Zn	0.90131	0.45437	0.59438	1.198
Mof_Zn	Zn	0.7792	0.84888	0.57463	1.216
Mof_Zn	Zn	0.3182	0.10356	0.64663	1.163
Mof_Zn	Zn	0.23911	0.57901	0.32898	1.174
Mof_Zn	Zn	0.78033	0.22035	0.30042	1.212
Mof_Zn	Zn	0.93485	0.28971	0.33719	1.208
Mof_Zn	Zn	0.43414	0.22138	0.46167	1.214
Mof_Zn	Zn	0.40131	0.54563	0.40562	1.2
Mof_Zn	Zn	0.2792	0.15112	0.42537	1.216
Mof_Zn	Zn	0.8182	0.89644	0.35337	1.162
Mof_H 	H 	0.3782	0.4372	0.8361	0.014
Mof_H 	H 	0.5686	0.4976	0.892	0.018
Mof_H 	H 	0.5557	0.3409	0.8712	0.028
Mof_H 	H 	0.1614	0.2394	0.9246	0.035
Mof_H 	H 	0.145	0.1639	0.0582	0.009
Mof_H 	H 	0.3381	0.1547	0.9758	0.018
Mof_H 	H 	0.0553	0.3247	0.8397	-0.019
Mof_H 	H 	0.8714	0.398	0.7821	-0.046
Mof_H 	H 	0.0619	0.3806	0.7007	-0.035
Mof_H 	H 	0.8431	0.1212	0.9134	0.009
Mof_H 	H 	0.6466	0.0623	0.8625	-0.002
Mof_H 	H 	0.6649	0.2181	0.8896	0.025
Mof_H 	H 	0.2489	0.2566	0.6694	0.243
Mof_H 	H 	0.2274	0.1986	0.653	0.197
Mof_H 	H 	0.1884	0.2241	0.7003	0.238
Mof_H 	H 	0.476	0.1137	0.7744	0.312
Mof_H 	H 	0.4238	0.0765	0.7417	0.305
Mof_H 	H 	0.4843	0.1134	0.7157	0.313
Mof_H 	H 	0.6803	0.4016	0.0275	0.252
Mof_H 	H 	0.7236	0.4379	0.066	0.221
Mof_H 	H 	0.737	0.4453	0.0082	0.267
Mof_H 	H 	0.98	0.2906	0.0732	0.269
Mof_H 	H 	0.9581	0.3293	0.1172	0.266
Mof_H 	H 	0.9153	0.2748	0.1111	0.265
Mof_H 	H 	0.8782	0.5628	0.1639	-0.007
Mof_H 	H 	0.0686	0.5024	0.108	-0.003
Mof_H 	H 	0.0557	0.6591	0.1288	0.008
Mof_H 	H 	0.6614	0.7606	0.0754	0.03
Mof_H 	H 	0.645	0.8361	0.9418	0.003
Mof_H 	H 	0.8381	0.8453	0.0242	0.013
Mof_H 	H 	0.5553	0.6753	0.1603	0.007
Mof_H 	H 	0.3714	0.602	0.2179	-0.022
Mof_H 	H 	0.5619	0.6194	0.2993	-0.01
Mof_H 	H 	0.3431	0.8788	0.0866	0.014
Mof_H 	H 	0.1466	0.9377	0.1375	0.004
Mof_H 	H 	0.1649	0.7819	0.1104	0.03
Mof_H 	H 	0.7489	0.7434	0.3306	0.237
Mof_H 	H 	0.7274	0.8014	0.347	0.191
Mof_H 	H 	0.6884	0.7759	0.2997	0.231
Mof_H 	H 	0.976	0.8863	0.2256	0.292
Mof_H 	H 	0.9238	0.9235	0.2583	0.291
Mof_H 	H 	0.9843	0.8866	0.2843	0.298
Mof_H 	H 	0.1803	0.5984	0.9725	0.26
Mof_H 	H 	0.2236	0.5621	0.934	0.229
Mof_H 	H 	0.237	0.5547	0.9918	0.275
Mof_H 	H 	0.48	0.7094	0.9268	0.286
Mof_H 	H 	0.4581	0.6707	0.8828	0.277
Mof_H 	H 	0.4153	0.7252	0.8889	0.277
Mof_H 	H 	0.3782	0.9372	0.6639	0.014
Mof_H 	H 	0.5686	0.9976	0.608	0.019
Mof_H 	H 	0.5557	0.8409	0.6288	0.028
Mof_H 	H 	0.1614	0.7394	0.5754	0.035
Mof_H 	H 	0.145	0.6639	0.4418	0.009
Mof_H 	H 	0.3381	0.6547	0.5242	0.019
Mof_H 	H 	0.0553	0.8247	0.6603	-0.019
Mof_H 	H 	0.8714	0.898	0.7179	-0.046
Mof_H 	H 	0.0619	0.8806	0.7993	-0.035
Mof_H 	H 	0.8431	0.6212	0.5866	0.009
Mof_H 	H 	0.6466	0.5623	0.6375	-0.002
Mof_H 	H 	0.6649	0.7181	0.6104	0.025
Mof_H 	H 	0.2489	0.7566	0.8306	0.243
Mof_H 	H 	0.2274	0.6986	0.847	0.198
Mof_H 	H 	0.1884	0.7241	0.7997	0.238
Mof_H 	H 	0.476	0.6137	0.7256	0.312
Mof_H 	H 	0.4238	0.5765	0.7583	0.305
Mof_H 	H 	0.4843	0.6134	0.7843	0.313
Mof_H 	H 	0.6803	0.9016	0.4725	0.252
Mof_H 	H 	0.7236	0.9379	0.434	0.222
Mof_H 	H 	0.737	0.9453	0.4918	0.268
Mof_H 	H 	0.98	0.7906	0.4268	0.269
Mof_H 	H 	0.9581	0.8293	0.3828	0.265
Mof_H 	H 	0.9153	0.7748	0.3889	0.265
Mof_H 	H 	0.8782	0.0628	0.3361	-0.007
Mof_H 	H 	0.0686	0.0024	0.392	-0.002
Mof_H 	H 	0.0557	0.1591	0.3712	0.008
Mof_H 	H 	0.6614	0.2606	0.4246	0.03
Mof_H 	H 	0.645	0.3361	0.5582	0.003
Mof_H 	H 	0.8381	0.3453	0.4758	0.013
Mof_H 	H 	0.5553	0.1753	0.3397	0.007
Mof_H 	H 	0.3714	0.102	0.2821	-0.022
Mof_H 	H 	0.5619	0.1194	0.2007	-0.01
Mof_H 	H 	0.3431	0.3788	0.4134	0.015
Mof_H 	H 	0.1466	0.4377	0.3625	0.004
Mof_H 	H 	0.1649	0.2819	0.3896	0.03
Mof_H 	H 	0.7489	0.2434	0.1694	0.237
Mof_H 	H 	0.7274	0.3014	0.153	0.191
Mof_H 	H 	0.6884	0.2759	0.2003	0.231
Mof_H 	H 	0.976	0.3863	0.2744	0.292
Mof_H 	H 	0.9238	0.4235	0.2417	0.292
Mof_H 	H 	0.9843	0.3866	0.2157	0.298
Mof_H 	H 	0.1803	0.0984	0.5275	0.26
Mof_H 	H 	0.2236	0.0621	0.566	0.229
Mof_H 	H 	0.237	0.0547	0.5082	0.275
Mof_H 	H 	0.48	0.2094	0.5732	0.285
Mof_H 	H 	0.4581	0.1707	0.6172	0.276
Mof_H 	H 	0.4153	0.2252	0.6111	0.277
Mof_C 	C 	0.4156	0.3344	0.8338	0.41
Mof_C 	C 	0.4572	0.3806	0.8482	-0.186
Mof_C 	C 	0.4277	0.4323	0.8481	0.105
Mof_C 	C 	0.4668	0.4762	0.8644	-0.178
Mof_C 	C 	0.4324	0.5295	0.8639	0.376
Mof_C 	C 	0.5402	0.4683	0.8816	0.08
Mof_C 	C 	0.5736	0.4177	0.8839	-0.148
Mof_C 	C 	0.6563	0.4113	0.9028	0.358
Mof_C 	C 	0.5339	0.3746	0.8686	0.079
Mof_C 	C 	0.3016	0.2139	0.898	0.423
Mof_C 	C 	0.2575	0.199	0.9445	-0.166
Mof_C 	C 	0.183	0.218	0.9494	0.082
Mof_C 	C 	0.1413	0.2044	0.9923	-0.143
Mof_C 	C 	0.0584	0.223	0.9962	0.383
Mof_C 	C 	0.1734	0.173	0.03	0.089
Mof_C 	C 	0.2481	0.1556	0.0248	-0.172
Mof_C 	C 	0.2824	0.1192	0.065	0.447
Mof_C 	C 	0.289	0.1681	0.9803	0.1
Mof_C 	C 	0.1511	0.331	0.7657	0.448
Mof_C 	C 	0.0699	0.3502	0.7685	-0.286
Mof_C 	C 	0.0308	0.3418	0.8131	0.246
Mof_C 	C 	0.957	0.3583	0.8185	-0.306
Mof_C 	C 	0.9139	0.35	0.8667	0.482
Mof_C 	C 	0.9208	0.385	0.7783	0.222
Mof_C 	C 	0.9588	0.3917	0.7332	-0.344
Mof_C 	C 	0.9196	0.4156	0.6899	0.536
Mof_C 	C 	0.0348	0.3747	0.7302	0.268
Mof_C 	C 	0.8058	0.2257	0.9233	0.424
Mof_C 	C 	0.7619	0.178	0.905	-0.176
Mof_C 	C 	0.7929	0.1266	0.903	0.114
Mof_C 	C 	0.7508	0.0836	0.8858	-0.205
Mof_C 	C 	0.7846	0.029	0.883	0.462
Mof_C 	C 	0.6758	0.0912	0.8728	0.106
Mof_C 	C 	0.6426	0.1416	0.8749	-0.156
Mof_C 	C 	0.558	0.1503	0.8621	0.359
Mof_C 	C 	0.6863	0.1843	0.8897	0.09
Mof_C 	C 	0.2349	0.2218	0.6812	-0.78
Mof_C 	C 	0.2983	0.2	0.7142	0.255
Mof_C 	C 	0.3929	0.1521	0.7396	0.358
Mof_C 	C 	0.4489	0.1105	0.7431	-1.015
Mof_C 	C 	0.7274	0.4199	0.0343	-0.842
Mof_C 	C 	0.7914	0.3806	0.0362	0.284
Mof_C 	C 	0.8814	0.3297	0.0609	0.321
Mof_C 	C 	0.9387	0.3038	0.0934	-0.893
Mof_C 	C 	0.9156	0.6656	0.1662	0.435
Mof_C 	C 	0.9572	0.6194	0.1518	-0.26
Mof_C 	C 	0.9277	0.5677	0.1519	0.163
Mof_C 	C 	0.9668	0.5238	0.1356	-0.259
Mof_C 	C 	0.9324	0.4705	0.1361	0.403
Mof_C 	C 	0.0402	0.5317	0.1184	0.171
Mof_C 	C 	0.0736	0.5823	0.1161	-0.2
Mof_C 	C 	0.1563	0.5887	0.0972	0.377
Mof_C 	C 	0.0339	0.6254	0.1314	0.163
Mof_C 	C 	0.8016	0.7861	0.102	0.425
Mof_C 	C 	0.7575	0.801	0.0555	-0.173
Mof_C 	C 	0.683	0.782	0.0506	0.086
Mof_C 	C 	0.6413	0.7956	0.0077	-0.152
Mof_C 	C 	0.5584	0.777	0.0038	0.387
Mof_C 	C 	0.6734	0.827	0.97	0.094
Mof_C 	C 	0.7481	0.8444	0.9752	-0.179
Mof_C 	C 	0.7824	0.8808	0.935	0.448
Mof_C 	C 	0.789	0.8319	0.0197	0.104
Mof_C 	C 	0.6511	0.669	0.2343	0.422
Mof_C 	C 	0.5699	0.6498	0.2315	-0.222
Mof_C 	C 	0.5308	0.6582	0.1869	0.146
Mof_C 	C 	0.457	0.6417	0.1815	-0.222
Mof_C 	C 	0.4139	0.65	0.1333	0.456
Mof_C 	C 	0.4208	0.615	0.2217	0.157
Mof_C 	C 	0.4588	0.6083	0.2668	-0.26
Mof_C 	C 	0.4196	0.5844	0.3101	0.507
Mof_C 	C 	0.5348	0.6253	0.2698	0.169
Mof_C 	C 	0.3058	0.7743	0.0767	0.422
Mof_C 	C 	0.2619	0.822	0.095	-0.169
Mof_C 	C 	0.2929	0.8734	0.097	0.11
Mof_C 	C 	0.2508	0.9164	0.1142	-0.197
Mof_C 	C 	0.2846	0.971	0.117	0.462
Mof_C 	C 	0.1758	0.9088	0.1272	0.102
Mof_C 	C 	0.1426	0.8584	0.1251	-0.146
Mof_C 	C 	0.058	0.8497	0.1379	0.356
Mof_C 	C 	0.1863	0.8157	0.1103	0.085
Mof_C 	C 	0.7349	0.7782	0.3188	-0.767
Mof_C 	C 	0.7983	0.8	0.2858	0.25
Mof_C 	C 	0.8929	0.8479	0.2604	0.345
Mof_C 	C 	0.9489	0.8895	0.2569	-0.981
Mof_C 	C 	0.2274	0.5801	0.9657	-0.858
Mof_C 	C 	0.2914	0.6194	0.9638	0.291
Mof_C 	C 	0.3814	0.6703	0.9391	0.331
Mof_C 	C 	0.4387	0.6962	0.9066	-0.918
Mof_C 	C 	0.4156	0.8344	0.6662	0.41
Mof_C 	C 	0.4572	0.8806	0.6518	-0.186
Mof_C 	C 	0.4277	0.9323	0.6519	0.104
Mof_C 	C 	0.4668	0.9762	0.6356	-0.177
Mof_C 	C 	0.4324	0.0295	0.6361	0.375
Mof_C 	C 	0.5402	0.9683	0.6184	0.08
Mof_C 	C 	0.5736	0.9177	0.6161	-0.148
Mof_C 	C 	0.6563	0.9113	0.5972	0.358
Mof_C 	C 	0.5339	0.8746	0.6314	0.079
Mof_C 	C 	0.3016	0.7139	0.602	0.423
Mof_C 	C 	0.2575	0.699	0.5555	-0.166
Mof_C 	C 	0.183	0.718	0.5506	0.082
Mof_C 	C 	0.1413	0.7044	0.5077	-0.142
Mof_C 	C 	0.0584	0.723	0.5038	0.383
Mof_C 	C 	0.1734	0.673	0.47	0.089
Mof_C 	C 	0.2481	0.6556	0.4752	-0.172
Mof_C 	C 	0.2824	0.6192	0.435	0.447
Mof_C 	C 	0.289	0.6681	0.5197	0.1
Mof_C 	C 	0.1511	0.831	0.7343	0.448
Mof_C 	C 	0.0699	0.8502	0.7315	-0.287
Mof_C 	C 	0.0308	0.8418	0.6869	0.248
Mof_C 	C 	0.957	0.8583	0.6815	-0.308
Mof_C 	C 	0.9139	0.85	0.6333	0.483
Mof_C 	C 	0.9208	0.885	0.7217	0.223
Mof_C 	C 	0.9588	0.8917	0.7668	-0.346
Mof_C 	C 	0.9196	0.9156	0.8101	0.537
Mof_C 	C 	0.0348	0.8747	0.7698	0.27
Mof_C 	C 	0.8058	0.7257	0.5767	0.424
Mof_C 	C 	0.7619	0.678	0.595	-0.176
Mof_C 	C 	0.7929	0.6266	0.597	0.114
Mof_C 	C 	0.7508	0.5836	0.6142	-0.205
Mof_C 	C 	0.7846	0.529	0.617	0.462
Mof_C 	C 	0.6758	0.5912	0.6272	0.106
Mof_C 	C 	0.6426	0.6416	0.6251	-0.156
Mof_C 	C 	0.558	0.6503	0.6379	0.359
Mof_C 	C 	0.6863	0.6843	0.6103	0.09
Mof_C 	C 	0.2349	0.7218	0.8188	-0.78
Mof_C 	C 	0.2983	0.7	0.7858	0.255
Mof_C 	C 	0.3929	0.6521	0.7604	0.359
Mof_C 	C 	0.4489	0.6105	0.7569	-1.015
Mof_C 	C 	0.7274	0.9199	0.4657	-0.843
Mof_C 	C 	0.7914	0.8806	0.4638	0.285
Mof_C 	C 	0.8814	0.8297	0.4391	0.321
Mof_C 	C 	0.9387	0.8038	0.4066	-0.892
Mof_C 	C 	0.9156	0.1656	0.3338	0.434
Mof_C 	C 	0.9572	0.1194	0.3482	-0.258
Mof_C 	C 	0.9277	0.0677	0.3481	0.161
Mof_C 	C 	0.9668	0.0238	0.3644	-0.256
Mof_C 	C 	0.9324	0.9705	0.3639	0.402
Mof_C 	C 	0.0402	0.0317	0.3816	0.168
Mof_C 	C 	0.0736	0.0823	0.3839	-0.198
Mof_C 	C 	0.1563	0.0887	0.4028	0.377
Mof_C 	C 	0.0339	0.1254	0.3686	0.16
Mof_C 	C 	0.8016	0.2861	0.398	0.425
Mof_C 	C 	0.7575	0.301	0.4445	-0.174
Mof_C 	C 	0.683	0.282	0.4494	0.087
Mof_C 	C 	0.6413	0.2956	0.4923	-0.152
Mof_C 	C 	0.5584	0.277	0.4962	0.387
Mof_C 	C 	0.6734	0.327	0.53	0.094
Mof_C 	C 	0.7481	0.3444	0.5248	-0.18
Mof_C 	C 	0.7824	0.3808	0.565	0.448
Mof_C 	C 	0.789	0.3319	0.4803	0.105
Mof_C 	C 	0.6511	0.169	0.2657	0.422
Mof_C 	C 	0.5699	0.1498	0.2685	-0.222
Mof_C 	C 	0.5308	0.1582	0.3131	0.146
Mof_C 	C 	0.457	0.1417	0.3185	-0.222
Mof_C 	C 	0.4139	0.15	0.3667	0.456
Mof_C 	C 	0.4208	0.115	0.2783	0.157
Mof_C 	C 	0.4588	0.1083	0.2332	-0.26
Mof_C 	C 	0.4196	0.0844	0.1899	0.507
Mof_C 	C 	0.5348	0.1253	0.2302	0.169
Mof_C 	C 	0.3058	0.2743	0.4233	0.422
Mof_C 	C 	0.2619	0.322	0.405	-0.169
Mof_C 	C 	0.2929	0.3734	0.403	0.11
Mof_C 	C 	0.2508	0.4164	0.3858	-0.197
Mof_C 	C 	0.2846	0.471	0.383	0.461
Mof_C 	C 	0.1758	0.4088	0.3728	0.102
Mof_C 	C 	0.1426	0.3584	0.3749	-0.146
Mof_C 	C 	0.058	0.3497	0.3621	0.356
Mof_C 	C 	0.1863	0.3157	0.3897	0.085
Mof_C 	C 	0.7349	0.2782	0.1812	-0.767
Mof_C 	C 	0.7983	0.3	0.2142	0.25
Mof_C 	C 	0.8929	0.3479	0.2396	0.345
Mof_C 	C 	0.9489	0.3895	0.2431	-0.981
Mof_C 	C 	0.2274	0.0801	0.5343	-0.857
Mof_C 	C 	0.2914	0.1194	0.5362	0.291
Mof_C 	C 	0.3814	0.1703	0.5609	0.331
Mof_C 	C 	0.4387	0.1962	0.5934	-0.918
Mof_N 	N 	0.3209	0.2212	0.7563	-0.297
Mof_N 	N 	0.3823	0.1904	0.7732	-0.318
Mof_N 	N 	0.3406	0.1568	0.7021	-0.384
Mof_N 	N 	0.8176	0.3558	0.9956	-0.299
Mof_N 	N 	0.8769	0.3232	0.0121	-0.309
Mof_N 	N 	0.828	0.3644	0.0774	-0.38
Mof_N 	N 	0.8209	0.7788	0.2437	-0.298
Mof_N 	N 	0.8823	0.8096	0.2268	-0.318
Mof_N 	N 	0.8406	0.8432	0.2979	-0.381
Mof_N 	N 	0.3176	0.6442	0.0044	-0.3
Mof_N 	N 	0.3769	0.6768	0.9879	-0.307
Mof_N 	N 	0.328	0.6356	0.9226	-0.382
Mof_N 	N 	0.3209	0.7212	0.7437	-0.297
Mof_N 	N 	0.3823	0.6904	0.7268	-0.318
Mof_N 	N 	0.3406	0.6568	0.7979	-0.384
Mof_N 	N 	0.8176	0.8558	0.5044	-0.3
Mof_N 	N 	0.8769	0.8232	0.4879	-0.308
Mof_N 	N 	0.828	0.8644	0.4226	-0.38
Mof_N 	N 	0.8209	0.2788	0.2563	-0.298
Mof_N 	N 	0.8823	0.3096	0.2732	-0.318
Mof_N 	N 	0.8406	0.3432	0.2021	-0.381
Mof_N 	N 	0.3176	0.1442	0.4956	-0.299
Mof_N 	N 	0.3769	0.1768	0.5121	-0.307
Mof_N 	N 	0.328	0.1356	0.5774	-0.382
Mof_O 	O 	0.3472	0.34	0.8156	-0.485
Mof_O 	O 	0.4475	0.2893	0.8345	-0.504
Mof_O 	O 	0.3627	0.5329	0.8501	-0.516
Mof_O 	O 	0.4689	0.5694	0.8756	-0.368
Mof_O 	O 	0.6746	0.3627	0.9102	-0.475
Mof_O 	O 	0.6976	0.4488	0.9095	-0.347
Mof_O 	O 	0.2684	0.2403	0.8664	-0.506
Mof_O 	O 	0.3701	0.196	0.8959	-0.491
Mof_O 	O 	0.0392	0.2588	0.9666	-0.469
Mof_O 	O 	0.0194	0.2034	0.0289	-0.334
Mof_O 	O 	0.3458	0.0966	0.0533	-0.518
Mof_O 	O 	0.2508	0.1179	0.1058	-0.544
Mof_O 	O 	0.175	0.3006	0.7977	-0.504
Mof_O 	O 	0.1907	0.3449	0.7296	-0.354
Mof_O 	O 	0.947	0.3252	0.9016	-0.53
Mof_O 	O 	0.8482	0.3676	0.871	-0.528
Mof_O 	O 	0.956	0.4233	0.6511	-0.562
Mof_O 	O 	0.8512	0.4267	0.693	-0.579
Mof_O 	O 	0.8731	0.2178	0.938	-0.501
Mof_O 	O 	0.7736	0.2695	0.918	-0.511
Mof_O 	O 	0.8521	0.0235	0.8993	-0.529
Mof_O 	O 	0.7453	0.9932	0.8654	-0.535
Mof_O 	O 	0.5154	0.1105	0.8595	-0.342
Mof_O 	O 	0.5393	0.1966	0.8507	-0.485
Mof_O 	O 	0.8472	0.66	0.1844	-0.493
Mof_O 	O 	0.9475	0.7107	0.1655	-0.522
Mof_O 	O 	0.8627	0.4671	0.1499	-0.524
Mof_O 	O 	0.9689	0.4306	0.1244	-0.383
Mof_O 	O 	0.1746	0.6373	0.0898	-0.477
Mof_O 	O 	0.1976	0.5512	0.0905	-0.348
Mof_O 	O 	0.7684	0.7597	0.1336	-0.51
Mof_O 	O 	0.8701	0.804	0.1041	-0.499
Mof_O 	O 	0.5392	0.7412	0.0334	-0.487
Mof_O 	O 	0.5194	0.7966	0.9711	-0.351
Mof_O 	O 	0.8458	0.9034	0.9467	-0.523
Mof_O 	O 	0.7508	0.8821	0.8942	-0.548
Mof_O 	O 	0.675	0.6994	0.2023	-0.5
Mof_O 	O 	0.6907	0.6551	0.2704	-0.351
Mof_O 	O 	0.447	0.6748	0.0984	-0.513
Mof_O 	O 	0.3482	0.6324	0.129	-0.518
Mof_O 	O 	0.456	0.5767	0.3489	-0.544
Mof_O 	O 	0.3512	0.5733	0.307	-0.567
Mof_O 	O 	0.3731	0.7822	0.062	-0.492
Mof_O 	O 	0.2736	0.7305	0.082	-0.508
Mof_O 	O 	0.3521	0.9765	0.1007	-0.523
Mof_O 	O 	0.2453	0.0068	0.1346	-0.532
Mof_O 	O 	0.0154	0.8895	0.1405	-0.324
Mof_O 	O 	0.0393	0.8034	0.1493	-0.467
Mof_O 	O 	0.3472	0.84	0.6844	-0.484
Mof_O 	O 	0.4475	0.7893	0.6655	-0.504
Mof_O 	O 	0.3627	0.0329	0.6499	-0.516
Mof_O 	O 	0.4689	0.0694	0.6244	-0.368
Mof_O 	O 	0.6746	0.8627	0.5898	-0.476
Mof_O 	O 	0.6976	0.9488	0.5905	-0.347
Mof_O 	O 	0.2684	0.7403	0.6336	-0.506
Mof_O 	O 	0.3701	0.696	0.6041	-0.491
Mof_O 	O 	0.0392	0.7588	0.5334	-0.469
Mof_O 	O 	0.0194	0.7034	0.4711	-0.334
Mof_O 	O 	0.3458	0.5966	0.4467	-0.517
Mof_O 	O 	0.2508	0.6179	0.3942	-0.544
Mof_O 	O 	0.175	0.8006	0.7023	-0.504
Mof_O 	O 	0.1907	0.8449	0.7704	-0.354
Mof_O 	O 	0.947	0.8252	0.5984	-0.531
Mof_O 	O 	0.8482	0.8676	0.629	-0.528
Mof_O 	O 	0.956	0.9233	0.8489	-0.563
Mof_O 	O 	0.8512	0.9267	0.807	-0.579
Mof_O 	O 	0.8731	0.7178	0.562	-0.501
Mof_O 	O 	0.7736	0.7695	0.582	-0.512
Mof_O 	O 	0.8521	0.5235	0.6007	-0.529
Mof_O 	O 	0.7453	0.4932	0.6346	-0.535
Mof_O 	O 	0.5154	0.6105	0.6405	-0.342
Mof_O 	O 	0.5393	0.6966	0.6493	-0.485
Mof_O 	O 	0.8472	0.16	0.3156	-0.493
Mof_O 	O 	0.9475	0.2107	0.3345	-0.522
Mof_O 	O 	0.8627	0.9671	0.3501	-0.524
Mof_O 	O 	0.9689	0.9306	0.3756	-0.383
Mof_O 	O 	0.1746	0.1373	0.4102	-0.477
Mof_O 	O 	0.1976	0.0512	0.4095	-0.348
Mof_O 	O 	0.7684	0.2597	0.3664	-0.51
Mof_O 	O 	0.8701	0.304	0.3959	-0.499
Mof_O 	O 	0.5392	0.2412	0.4666	-0.487
Mof_O 	O 	0.5194	0.2966	0.5289	-0.351
Mof_O 	O 	0.8458	0.4034	0.5533	-0.523
Mof_O 	O 	0.7508	0.3821	0.6058	-0.549
Mof_O 	O 	0.675	0.1994	0.2977	-0.5
Mof_O 	O 	0.6907	0.1551	0.2296	-0.351
Mof_O 	O 	0.447	0.1748	0.4016	-0.513
Mof_O 	O 	0.3482	0.1324	0.371	-0.518
Mof_O 	O 	0.456	0.0767	0.1511	-0.544
Mof_O 	O 	0.3512	0.0733	0.193	-0.568
Mof_O 	O 	0.3731	0.2822	0.438	-0.492
Mof_O 	O 	0.2736	0.2305	0.418	-0.508
Mof_O 	O 	0.3521	0.4765	0.3993	-0.523
Mof_O 	O 	0.2453	0.5068	0.3654	-0.531
Mof_O 	O 	0.0154	0.3895	0.3595	-0.325
Mof_O 	O 	0.0393	0.3034	0.3507	-0.468
_end
