data_functionalizedCrystal
_audit_creation_method	'EQeq! by Chris Wilmer'
_symmetry_space_group_name_H-M	'P1'
_symmetry_Int_Tables_number	1
_symmetry_cell_setting	triclinic
loop_
_symmetry_equiv_pos_as_xyz
  x,y,z
_cell_length_a	9.5064
_cell_length_b	12.0459
_cell_length_c	16.788
_cell_angle_alpha	96.3864
_cell_angle_beta	90
_cell_angle_gamma	113.24
loop_
_atom_site_label
_atom_site_type_symbol
_atom_site_fract_x
_atom_site_fract_y
_atom_site_fract_z
_atom_site_charge
Mof_Tb	Tb	0.29509	0.99084	0.06567	2.372
Mof_Tb	Tb	0.69575	0.99084	0.56567	2.362
Mof_Tb	Tb	0.70491	0.00916	0.93433	2.373
Mof_Tb	Tb	0.30425	0.00916	0.43433	2.363
Mof_Ag	Ag	0.71984	0.68226	0.41761	0.685
Mof_Ag	Ag	0.96242	0.68226	0.91761	0.681
Mof_Ag	Ag	0.28016	0.31774	0.58239	0.685
Mof_Ag	Ag	0.03758	0.31774	0.08239	0.681
Mof_H 	H 	0.8289	0.4164	0.9589	-0.043
Mof_H 	H 	0.1077	0.1996	0.7281	0.016
Mof_H 	H 	0.1345	0.098	0.8319	0.039
Mof_H 	H 	0.2501	0.3042	0.9459	-0.015
Mof_H 	H 	0.4972	0.6304	0.8819	-0.024
Mof_H 	H 	0.7499	0.6958	0.0541	-0.015
Mof_H 	H 	0.8668	0.3696	0.6181	-0.025
Mof_H 	H 	0.5875	0.4164	0.4589	-0.044
Mof_H 	H 	0.3834	0.8092	0.7205	0.05
Mof_H 	H 	0.7599	0.2954	0.181	-0.004
Mof_H 	H 	0.4125	0.5836	0.5411	-0.044
Mof_H 	H 	0.0365	0.902	0.6681	0.046
Mof_H 	H 	0.9459	0.6958	0.5541	-0.017
Mof_H 	H 	0.5355	0.2954	0.681	-0.004
Mof_H 	H 	0.9635	0.098	0.3319	0.046
Mof_H 	H 	0.4258	0.8092	0.2205	0.048
Mof_H 	H 	0.6166	0.1908	0.2795	0.05
Mof_H 	H 	0.1332	0.6304	0.3819	-0.025
Mof_H 	H 	0.8655	0.902	0.1681	0.039
Mof_H 	H 	0.0919	0.1996	0.2281	0.009
Mof_H 	H 	0.2401	0.7046	0.819	-0.004
Mof_H 	H 	0.9081	0.8004	0.7719	0.009
Mof_H 	H 	0.1711	0.5836	0.0411	-0.043
Mof_H 	H 	0.5675	0.578	0.1302	0.101
Mof_H 	H 	0.5742	0.1908	0.7795	0.048
Mof_H 	H 	0.5028	0.3696	0.1181	-0.024
Mof_H 	H 	0.8923	0.8004	0.2719	0.016
Mof_H 	H 	0.0541	0.3042	0.4459	-0.017
Mof_H 	H 	0.4645	0.7046	0.319	-0.004
Mof_H 	H 	0.4325	0.422	0.8698	0.101
Mof_H 	H 	0.0105	0.578	0.6302	0.103
Mof_H 	H 	0.9895	0.422	0.3698	0.103
Mof_C 	C 	0.7829	0.865	0.1993	-0.023
Mof_C 	C 	0.7736	0.4484	0.993	0.138
Mof_C 	C 	0.0359	0.0702	0.5113	0.267
Mof_C 	C 	0.4201	0.5808	0.9117	0.151
Mof_C 	C 	0.6748	0.4484	0.493	0.141
Mof_C 	C 	0.7996	0.2526	0.2105	0.036
Mof_C 	C 	0.6177	0.5428	0.0948	-0.221
Mof_C 	C 	0.3578	0.129	0.8154	-0.113
Mof_C 	C 	0.8393	0.4192	0.5883	0.155
Mof_C 	C 	0.7129	0.1906	0.2702	-0.034
Mof_C 	C 	0.3784	0.0552	0.8787	0.496
Mof_C 	C 	0.5223	0.8094	0.2298	-0.03
Mof_C 	C 	0.7097	0.3704	0.5359	-0.264
Mof_C 	C 	0.0343	0.0702	0.0113	0.271
Mof_C 	C 	0.6768	0.0552	0.3787	0.494
Mof_C 	C 	0.6257	0.2368	0.0244	0.568
Mof_C 	C 	0.453	0.2526	0.7105	0.032
Mof_C 	C 	0.2903	0.6296	0.4641	-0.264
Mof_C 	C 	0.6607	0.3704	0.0359	-0.262
Mof_C 	C 	0.0053	0.8028	0.7614	0.039
Mof_C 	C 	0.2004	0.7474	0.7895	0.036
Mof_C 	C 	0.2871	0.8094	0.7298	-0.034
Mof_C 	C 	0.4777	0.1906	0.7702	-0.03
Mof_C 	C 	0.2215	0.9298	0.245	0.27
Mof_C 	C 	0.7712	0.129	0.3154	-0.106
Mof_C 	C 	0.9251	0.5428	0.5948	-0.227
Mof_C 	C 	0.3393	0.6296	0.9641	-0.262
Mof_C 	C 	0.2264	0.5516	0.007	0.138
Mof_C 	C 	0.8849	0.6128	0.5495	0.133
Mof_C 	C 	0.9947	0.1972	0.2386	0.039
Mof_C 	C 	0.6111	0.2368	0.5244	0.563
Mof_C 	C 	0.3889	0.7632	0.4756	0.563
Mof_C 	C 	0.3743	0.7632	0.9756	0.568
Mof_C 	C 	0.9179	0.135	0.3007	-0.031
Mof_C 	C 	0.2721	0.3872	0.9505	0.13
Mof_C 	C 	0.9657	0.9298	0.9887	0.271
Mof_C 	C 	0.6422	0.871	0.1846	-0.113
Mof_C 	C 	0.7785	0.0702	0.755	0.27
Mof_C 	C 	0.1151	0.3872	0.4505	0.133
Mof_C 	C 	0.1607	0.5808	0.4117	0.155
Mof_C 	C 	0.9641	0.9298	0.4887	0.267
Mof_C 	C 	0.7083	0.9298	0.745	0.267
Mof_C 	C 	0.0821	0.865	0.6993	-0.031
Mof_C 	C 	0.3252	0.5516	0.507	0.141
Mof_C 	C 	0.2171	0.135	0.8007	-0.023
Mof_C 	C 	0.7279	0.6128	0.0495	0.13
Mof_C 	C 	0.0749	0.4572	0.4052	-0.227
Mof_C 	C 	0.547	0.7474	0.2895	0.032
Mof_C 	C 	0.7975	0.8028	0.2614	0.024
Mof_C 	C 	0.3232	0.9448	0.6213	0.494
Mof_C 	C 	0.6216	0.9448	0.1213	0.496
Mof_C 	C 	0.2917	0.0702	0.255	0.267
Mof_C 	C 	0.5799	0.4192	0.0883	0.151
Mof_C 	C 	0.2025	0.1972	0.7386	0.024
Mof_C 	C 	0.2288	0.871	0.6846	-0.106
Mof_C 	C 	0.3823	0.4572	0.9052	-0.221
Mof_N 	N 	0.3179	0.2536	0.6934	-0.198
Mof_N 	N 	0.6821	0.7464	0.3066	-0.198
Mof_N 	N 	0.7611	0.5684	0.4983	-0.236
Mof_N 	N 	0.2389	0.4316	0.5017	-0.236
Mof_N 	N 	0.1927	0.4316	0.0017	-0.235
Mof_N 	N 	0.9357	0.2536	0.1934	-0.199
Mof_N 	N 	0.0643	0.7464	0.8066	-0.199
Mof_N 	N 	0.8073	0.5684	0.9983	-0.235
Mof_O 	O 	0.2104	0.8806	0.3076	-0.44
Mof_O 	O 	0.5012	0.0392	0.8773	-0.577
Mof_O 	O 	0.2582	0.9836	0.5733	-0.536
Mof_O 	O 	0.16068	0.12676	0.4811	-0.497
Mof_O 	O 	0.8504	0.885	0.9415	-0.47
Mof_O 	O 	0.6694	0.1682	0.546	-0.609
Mof_O 	O 	0.6702	0.8806	0.8076	-0.44
Mof_O 	O 	0.1813	0.8772	0.1751	-0.451
Mof_O 	O 	0.7249	0.2044	0.9932	-0.591
Mof_O 	O 	0.5012	0.8318	0.954	-0.609
Mof_O 	O 	0.0346	0.885	0.4415	-0.464
Mof_O 	O 	0.3306	0.8318	0.454	-0.609
Mof_O 	O 	0.7896	0.1194	0.6924	-0.44
Mof_O 	O 	0.6959	0.8772	0.6751	-0.451
Mof_O 	O 	0.7418	0.0164	0.4267	-0.536
Mof_O 	O 	0.4795	0.2044	0.4932	-0.587
Mof_O 	O 	0.4988	0.9608	0.1227	-0.577
Mof_O 	O 	0.4988	0.1682	0.046	-0.609
Mof_O 	O 	0.83932	0.87324	0.5189	-0.497
Mof_O 	O 	0.1496	0.115	0.0585	-0.47
Mof_O 	O 	0.3298	0.1194	0.1924	-0.44
Mof_O 	O 	0.3041	0.1228	0.3249	-0.451
Mof_O 	O 	0.9654	0.115	0.5585	-0.464
Mof_O 	O 	0.462	0.9608	0.6227	-0.573
Mof_O 	O 	0.03392	0.87324	0.0189	-0.495
Mof_O 	O 	0.538	0.0392	0.3773	-0.573
Mof_O 	O 	0.7254	0.9836	0.0733	-0.543
Mof_O 	O 	0.2746	0.0164	0.9267	-0.543
Mof_O 	O 	0.2751	0.7956	0.0068	-0.591
Mof_O 	O 	0.5205	0.7956	0.5068	-0.587
Mof_O 	O 	0.8187	0.1228	0.8249	-0.451
Mof_O 	O 	0.96608	0.12676	0.9811	-0.495
_end
