data_functionalizedCrystal
_audit_creation_method	'EQeq! by Chris Wilmer'
_symmetry_space_group_name_H-M	'P1'
_symmetry_Int_Tables_number	1
_symmetry_cell_setting	triclinic
loop_
_symmetry_equiv_pos_as_xyz
  x,y,z
_cell_length_a	8.8802
_cell_length_b	12.08
_cell_length_c	16.615
_cell_angle_alpha	90
_cell_angle_beta	90
_cell_angle_gamma	109.32
loop_
_atom_site_label
_atom_site_type_symbol
_atom_site_fract_x
_atom_site_fract_y
_atom_site_fract_z
_atom_site_charge
Mof_Dy	Dy	0.93315	0.95259	0.88221	2.004
Mof_Dy	Dy	0.56685	0.04741	0.38221	2.037
Mof_Dy	Dy	0.06685	0.04741	0.11779	2.004
Mof_Dy	Dy	0.43315	0.95259	0.61779	2.037
Mof_H 	H 	0.4701	0.2803	0.9336	0.127
Mof_H 	H 	0.3778	0.3611	0.9669	0.127
Mof_H 	H 	0.6286	0.465	0.934	0.056
Mof_H 	H 	0.4033	0.4742	0.7261	0.062
Mof_H 	H 	0.8222	0.6418	0.9009	0.088
Mof_H 	H 	0.5967	0.653	0.6942	0.1
Mof_H 	H 	0.9092	0.7255	0.6771	0.122
Mof_H 	H 	0.8272	0.8222	0.6683	0.117
Mof_H 	H 	0.251	0.7946	0.0702	0.086
Mof_H 	H 	0.3812	0.8611	0.0075	0.1
Mof_H 	H 	0.2014	0.504	0.9113	0.078
Mof_H 	H 	0.0135	0.6658	0.0731	0.056
Mof_H 	H 	0.0299	0.7197	0.4336	0.127
Mof_H 	H 	0.1222	0.6389	0.4669	0.126
Mof_H 	H 	0.8714	0.535	0.434	0.056
Mof_H 	H 	0.0967	0.5258	0.2261	0.063
Mof_H 	H 	0.6778	0.3582	0.4009	0.088
Mof_H 	H 	0.9033	0.347	0.1942	0.1
Mof_H 	H 	0.5908	0.2745	0.1771	0.12
Mof_H 	H 	0.6728	0.1778	0.1683	0.114
Mof_H 	H 	0.249	0.2054	0.5702	0.089
Mof_H 	H 	0.1188	0.1389	0.5075	0.101
Mof_H 	H 	0.2986	0.496	0.4113	0.078
Mof_H 	H 	0.4865	0.3342	0.5731	0.054
Mof_H 	H 	0.5299	0.7197	0.0664	0.127
Mof_H 	H 	0.6222	0.6389	0.0331	0.127
Mof_H 	H 	0.3714	0.535	0.066	0.056
Mof_H 	H 	0.5967	0.5258	0.2739	0.062
Mof_H 	H 	0.1778	0.3582	0.0991	0.088
Mof_H 	H 	0.4033	0.347	0.3058	0.1
Mof_H 	H 	0.0908	0.2745	0.3229	0.122
Mof_H 	H 	0.1728	0.1778	0.3317	0.117
Mof_H 	H 	0.749	0.2054	0.9298	0.086
Mof_H 	H 	0.6188	0.1389	0.9925	0.1
Mof_H 	H 	0.7986	0.496	0.0887	0.078
Mof_H 	H 	0.9865	0.3342	0.9269	0.056
Mof_H 	H 	0.9701	0.2803	0.5664	0.127
Mof_H 	H 	0.8778	0.3611	0.5331	0.126
Mof_H 	H 	0.1286	0.465	0.566	0.056
Mof_H 	H 	0.9033	0.4742	0.7739	0.063
Mof_H 	H 	0.3222	0.6418	0.5991	0.088
Mof_H 	H 	0.0967	0.653	0.8058	0.1
Mof_H 	H 	0.4092	0.7255	0.8229	0.12
Mof_H 	H 	0.3272	0.8222	0.8317	0.114
Mof_H 	H 	0.751	0.7946	0.4298	0.089
Mof_H 	H 	0.8812	0.8611	0.4925	0.101
Mof_H 	H 	0.7014	0.504	0.5887	0.078
Mof_H 	H 	0.5135	0.6658	0.4269	0.054
Mof_C 	C 	0.2298	0.194	0.9435	0.519
Mof_C 	C 	0.3743	0.3012	0.9273	-0.277
Mof_C 	C 	0.495	0.4522	0.8334	0.101
Mof_C 	C 	0.6214	0.5023	0.886	-0.06
Mof_C 	C 	0.4866	0.5082	0.7617	-0.053
Mof_C 	C 	0.7369	0.6087	0.8662	-0.138
Mof_C 	C 	0.6023	0.6154	0.7424	-0.144
Mof_C 	C 	0.7256	0.6648	0.7963	0.192
Mof_C 	C 	0.9002	0.7965	0.7008	-0.247
Mof_C 	C 	0.062	0.8909	0.7038	0.482
Mof_C 	C 	0.1581	0.8599	0.9761	0.451
Mof_C 	C 	0.2737	0.8063	0.0131	-0.218
Mof_C 	C 	0.13	0.602	0.9908	0.131
Mof_C 	C 	0.1204	0.5025	0.9471	-0.101
Mof_C 	C 	0.0085	0.5992	0.0437	-0.078
Mof_C 	C 	0.2702	0.806	0.4435	0.515
Mof_C 	C 	0.1257	0.6988	0.4273	-0.275
Mof_C 	C 	0.005	0.5478	0.3334	0.103
Mof_C 	C 	0.8786	0.4977	0.386	-0.061
Mof_C 	C 	0.0134	0.4918	0.2617	-0.057
Mof_C 	C 	0.7631	0.3913	0.3662	-0.138
Mof_C 	C 	0.8977	0.3846	0.2424	-0.141
Mof_C 	C 	0.7744	0.3352	0.2963	0.191
Mof_C 	C 	0.5998	0.2035	0.2008	-0.237
Mof_C 	C 	0.438	0.1091	0.2038	0.475
Mof_C 	C 	0.3419	0.1401	0.4761	0.469
Mof_C 	C 	0.2263	0.1937	0.5131	-0.234
Mof_C 	C 	0.37	0.398	0.4908	0.13
Mof_C 	C 	0.3796	0.4975	0.4471	-0.1
Mof_C 	C 	0.4915	0.4008	0.5437	-0.08
Mof_C 	C 	0.7702	0.806	0.0565	0.519
Mof_C 	C 	0.6257	0.6988	0.0727	-0.277
Mof_C 	C 	0.505	0.5478	0.1666	0.101
Mof_C 	C 	0.3786	0.4977	0.114	-0.06
Mof_C 	C 	0.5134	0.4918	0.2383	-0.053
Mof_C 	C 	0.2631	0.3913	0.1338	-0.138
Mof_C 	C 	0.3977	0.3846	0.2576	-0.144
Mof_C 	C 	0.2744	0.3352	0.2037	0.192
Mof_C 	C 	0.0998	0.2035	0.2992	-0.247
Mof_C 	C 	0.938	0.1091	0.2962	0.482
Mof_C 	C 	0.8419	0.1401	0.0239	0.451
Mof_C 	C 	0.7263	0.1937	0.9869	-0.218
Mof_C 	C 	0.87	0.398	0.0092	0.131
Mof_C 	C 	0.8796	0.4975	0.0529	-0.101
Mof_C 	C 	0.9915	0.4008	0.9563	-0.078
Mof_C 	C 	0.7298	0.194	0.5565	0.515
Mof_C 	C 	0.8743	0.3012	0.5727	-0.275
Mof_C 	C 	0.995	0.4522	0.6666	0.103
Mof_C 	C 	0.1214	0.5023	0.614	-0.061
Mof_C 	C 	0.9866	0.5082	0.7383	-0.057
Mof_C 	C 	0.2369	0.6087	0.6338	-0.138
Mof_C 	C 	0.1023	0.6154	0.7576	-0.141
Mof_C 	C 	0.2256	0.6648	0.7037	0.191
Mof_C 	C 	0.4002	0.7965	0.7992	-0.237
Mof_C 	C 	0.562	0.8909	0.7962	0.475
Mof_C 	C 	0.6581	0.8599	0.5239	0.469
Mof_C 	C 	0.7737	0.8063	0.4869	-0.234
Mof_C 	C 	0.63	0.602	0.5092	0.13
Mof_C 	C 	0.6204	0.5025	0.5529	-0.1
Mof_C 	C 	0.5085	0.5992	0.4563	-0.08
Mof_O 	O 	0.1593	0.1292	0.88653	-0.508
Mof_O 	O 	0.1976	0.1802	0.01721	-0.527
Mof_O 	O 	0.3735	0.3483	0.84898	-0.151
Mof_O 	O 	0.8419	0.7742	0.78259	-0.299
Mof_O 	O 	0.15	0.8998	0.64406	-0.498
Mof_O 	O 	0.0955	0.9551	0.765	-0.499
Mof_O 	O 	0.0991	0.8279	0.90891	-0.451
Mof_O 	O 	0.1313	0.942	0.0133	-0.574
Mof_O 	O 	0.2669	0.6981	0.9783	-0.177
Mof_O 	O 	0.3407	0.8708	0.38653	-0.508
Mof_O 	O 	0.3024	0.8198	0.51721	-0.522
Mof_O 	O 	0.1265	0.6517	0.34898	-0.151
Mof_O 	O 	0.6581	0.2258	0.28259	-0.301
Mof_O 	O 	0.35	0.1002	0.14406	-0.498
Mof_O 	O 	0.4045	0.0449	0.265	-0.505
Mof_O 	O 	0.4009	0.1721	0.40891	-0.461
Mof_O 	O 	0.3687	0.058	0.5133	-0.594
Mof_O 	O 	0.2331	0.3019	0.4783	-0.172
Mof_O 	O 	0.8407	0.8708	0.11347	-0.508
Mof_O 	O 	0.8024	0.8198	0.98279	-0.527
Mof_O 	O 	0.6265	0.6517	0.15102	-0.151
Mof_O 	O 	0.1581	0.2258	0.21741	-0.299
Mof_O 	O 	0.85	0.1002	0.35594	-0.498
Mof_O 	O 	0.9045	0.0449	0.235	-0.499
Mof_O 	O 	0.9009	0.1721	0.09109	-0.451
Mof_O 	O 	0.8687	0.058	0.9867	-0.574
Mof_O 	O 	0.7331	0.3019	0.0217	-0.177
Mof_O 	O 	0.6593	0.1292	0.61347	-0.508
Mof_O 	O 	0.6976	0.1802	0.48279	-0.522
Mof_O 	O 	0.8735	0.3483	0.65102	-0.151
Mof_O 	O 	0.3419	0.7742	0.71741	-0.301
Mof_O 	O 	0.65	0.8998	0.85594	-0.498
Mof_O 	O 	0.5955	0.9551	0.735	-0.505
Mof_O 	O 	0.5991	0.8279	0.59109	-0.461
Mof_O 	O 	0.6313	0.942	0.4867	-0.594
Mof_O 	O 	0.7669	0.6981	0.5217	-0.172
_end
