data_functionalizedCrystal
_audit_creation_method	'EQeq! by Chris Wilmer'
_symmetry_space_group_name_H-M	'P1'
_symmetry_Int_Tables_number	1
_symmetry_cell_setting	triclinic
loop_
_symmetry_equiv_pos_as_xyz
  x,y,z
_cell_length_a	9.9914
_cell_length_b	11.5536
_cell_length_c	18.1034
_cell_angle_alpha	101.148
_cell_angle_beta	103.937
_cell_angle_gamma	91.631
loop_
_atom_site_label
_atom_site_type_symbol
_atom_site_fract_x
_atom_site_fract_y
_atom_site_fract_z
_atom_site_charge
Mof_N 	N 	0.3914	0.0351	0.239	-0.111
Mof_C 	C 	0.3148	0.0619	0.2912	-0.05
Mof_H 	H 	0.2252	0.0816	0.2721	0.004
Mof_C 	C 	0.3549	0.0633	0.3693	-0.049
Mof_H 	H 	0.2938	0.0825	0.4004	0.022
Mof_C 	C 	0.4858	0.0359	0.401	0.077
Mof_C 	C 	0.5701	0.0068	0.3511	-0.061
Mof_H 	H 	0.6595	0.9863	0.3696	0.038
Mof_C 	C 	0.52	0.0087	0.274	-0.017
Mof_H 	H 	0.5803	0.99	0.2423	-0.015
Mof_C 	C 	0.5354	0.0337	0.4851	-0.05
Mof_H 	H 	0.615	0.079	0.5157	0.036
Mof_N 	N 	0.4036	0.0065	0.236	-0.116
Mof_C 	C 	0.313	0.97	0.2702	0.093
Mof_H 	H 	0.2206	0.9532	0.2433	-0.041
Mof_C 	C 	0.3565	0.9569	0.3463	-0.095
Mof_H 	H 	0.293	0.9316	0.371	0.05
Mof_C 	C 	0.4949	0.9816	0.386	-0.025
Mof_C 	C 	0.5858	0.0202	0.3466	-0.034
Mof_H 	H 	0.6791	0.0376	0.3715	-0.002
Mof_C 	C 	0.537	0.0327	0.2705	0.058
Mof_H 	H 	0.5967	0.059	0.2439	-0.033
Mof_C 	C 	0.5455	0.9698	0.4686	-0.038
Mof_H 	H 	0.624	0.9308	0.4847	0.024
Mof_Ni	Ni	0.32496	0.04946	0.12464	0.997
Mof_Ni	Ni	0.93992	0.30789	0.28306	1.028
Mof_O 	O 	0.0817	0.45041	0.31648	-0.427
Mof_O 	O 	0.1185	0.30105	0.23222	-0.419
Mof_O 	O 	0.3888	0.22442	0.18097	-0.415
Mof_O 	O 	0.2731	0.3247	0.09543	-0.299
Mof_N 	N 	0.249	0.8732	0.08122	-0.292
Mof_N 	N 	0.8161	0.3741	0.35287	-0.273
Mof_N 	N 	0.8196	0.3497	0.18437	-0.264
Mof_C 	C 	0.2861	0.4689	0.27322	-0.188
Mof_C 	C 	0.3691	0.4293	0.22294	0.104
Mof_C 	C 	0.4898	0.4998	0.2288	-0.332
Mof_H 	H 	0.5464	0.4741	0.196	0.15
Mof_C 	C 	0.4443	0.644	0.3314	-0.382
Mof_H 	H 	0.4686	0.7148	0.3678	0.158
Mof_C 	C 	0.3254	0.5764	0.3265	0.196
Mof_H 	H 	0.2696	0.6031	0.3597	-0.027
Mof_C 	C 	0.1562	0.4027	0.27344	0.345
Mof_C 	C 	0.3388	0.3167	0.16156	0.277
Mof_C 	C 	0.6544	0.6827	0.2855	-0.936
Mof_H 	H 	0.6704	0.7466	0.3301	0.293
Mof_H 	H 	0.6409	0.7142	0.2392	0.293
Mof_H 	H 	0.7329	0.6361	0.2898	0.298
Mof_C 	C 	0.3072	0.7858	0.1135	0.113
Mof_H 	H 	0.3928	0.803	0.1493	-0.046
Mof_C 	C 	0.2473	0.6725	0.0965	-0.21
Mof_H 	H 	0.2912	0.6157	0.1216	0.11
Mof_C 	C 	0.1214	0.6423	0.0421	0.149
Mof_C 	C 	0.0634	0.7311	0.0058	-0.21
Mof_H 	H 	0.9808	0.7148	0.9673	0.105
Mof_C 	C 	0.1291	0.8435	0.02717	0.105
Mof_H 	H 	0.0878	0.9019	0.0027	-0.069
Mof_C 	C 	0.0596	0.52	0.0251	-0.1
Mof_H 	H 	0.1083	0.4668	0.0517	0.08
Mof_C 	C 	0.8597	0.4677	0.4111	0.08
Mof_H 	H 	0.9482	0.5029	0.4189	-0.016
Mof_C 	C 	0.7805	0.5147	0.4603	-0.174
Mof_H 	H 	0.8154	0.5804	0.4999	0.072
Mof_C 	C 	0.6487	0.4641	0.4508	0.118
Mof_C 	C 	0.6039	0.3666	0.3911	-0.174
Mof_H 	H 	0.5164	0.3291	0.3829	0.095
Mof_C 	C 	0.6884	0.3246	0.3434	0.09
Mof_H 	H 	0.6556	0.2594	0.3032	-0.031
Mof_C 	C 	0.5633	0.5166	0.5026	-0.087
Mof_H 	H 	0.6047	0.5797	0.5428	0.055
Mof_C 	C 	0.8294	0.456	0.1665	0.097
Mof_H 	H 	0.9033	0.5095	0.1956	-0.019
Mof_C 	C 	0.7353	0.4902	0.107	-0.188
Mof_H 	H 	0.7457	0.5655	0.097	0.087
Mof_C 	C 	0.625	0.4121	0.06233	0.121
Mof_C 	C 	0.6194	0.2998	0.0776	-0.179
Mof_H 	H 	0.5498	0.2432	0.0471	0.057
Mof_C 	C 	0.7166	0.272	0.1379	0.091
Mof_H 	H 	0.7111	0.1957	0.1471	-0.065
Mof_C 	C 	0.5115	0.4455	0.0039	-0.087
Mof_H 	H 	0.4512	0.3848	0.9698	0.052
Mof_C 	C 	0.5271	0.6061	0.2818	0.427
Mof_N 	N 	0.6086	0.9649	0.761	-0.11
Mof_C 	C 	0.6852	0.9381	0.7088	-0.049
Mof_H 	H 	0.7748	0.9184	0.7279	0.004
Mof_C 	C 	0.6451	0.9367	0.6307	-0.049
Mof_H 	H 	0.7062	0.9175	0.5996	0.022
Mof_C 	C 	0.5142	0.9641	0.599	0.077
Mof_C 	C 	0.4299	0.9932	0.6489	-0.061
Mof_H 	H 	0.3405	0.0137	0.6304	0.038
Mof_C 	C 	0.48	0.9913	0.726	-0.017
Mof_H 	H 	0.4197	0.01	0.7577	-0.015
Mof_C 	C 	0.4646	0.9663	0.5149	-0.05
Mof_H 	H 	0.385	0.921	0.4843	0.036
Mof_N 	N 	0.5964	0.9935	0.764	-0.116
Mof_C 	C 	0.687	0.03	0.7298	0.093
Mof_H 	H 	0.7794	0.0468	0.7567	-0.041
Mof_C 	C 	0.6435	0.0431	0.6537	-0.095
Mof_H 	H 	0.707	0.0684	0.629	0.05
Mof_C 	C 	0.5051	0.0184	0.614	-0.025
Mof_C 	C 	0.4142	0.9798	0.6534	-0.034
Mof_H 	H 	0.3209	0.9624	0.6285	-0.002
Mof_C 	C 	0.463	0.9673	0.7295	0.058
Mof_H 	H 	0.4033	0.941	0.7561	-0.033
Mof_C 	C 	0.4545	0.0302	0.5314	-0.038
Mof_H 	H 	0.376	0.0692	0.5153	0.024
Mof_Ni	Ni	0.67504	0.95054	0.87536	0.997
Mof_Ni	Ni	0.06008	0.69211	0.71694	1.028
Mof_O 	O 	0.9183	0.54959	0.68352	-0.427
Mof_O 	O 	0.8815	0.69895	0.76778	-0.419
Mof_O 	O 	0.6112	0.77558	0.81903	-0.415
Mof_O 	O 	0.7269	0.6753	0.90457	-0.299
Mof_N 	N 	0.751	0.1268	0.91878	-0.292
Mof_N 	N 	0.1839	0.6259	0.64713	-0.273
Mof_N 	N 	0.1804	0.6503	0.81563	-0.264
Mof_C 	C 	0.7139	0.5311	0.72678	-0.188
Mof_C 	C 	0.6309	0.5707	0.77706	0.104
Mof_C 	C 	0.5102	0.5002	0.7712	-0.332
Mof_H 	H 	0.4536	0.5259	0.804	0.15
Mof_C 	C 	0.5557	0.356	0.6686	-0.382
Mof_H 	H 	0.5314	0.2852	0.6322	0.158
Mof_C 	C 	0.6746	0.4236	0.6735	0.196
Mof_H 	H 	0.7304	0.3969	0.6403	-0.027
Mof_C 	C 	0.8438	0.5973	0.72656	0.345
Mof_C 	C 	0.6612	0.6833	0.83844	0.277
Mof_C 	C 	0.3456	0.3173	0.7145	-0.936
Mof_H 	H 	0.3296	0.2534	0.6699	0.293
Mof_H 	H 	0.3591	0.2858	0.7608	0.293
Mof_H 	H 	0.2671	0.3639	0.7102	0.298
Mof_C 	C 	0.6928	0.2142	0.8865	0.113
Mof_H 	H 	0.6072	0.197	0.8507	-0.046
Mof_C 	C 	0.7527	0.3275	0.9035	-0.21
Mof_H 	H 	0.7088	0.3843	0.8784	0.11
Mof_C 	C 	0.8786	0.3577	0.9579	0.149
Mof_C 	C 	0.9366	0.2689	0.9942	-0.21
Mof_H 	H 	0.0192	0.2852	0.0327	0.105
Mof_C 	C 	0.8709	0.1565	0.97283	0.105
Mof_H 	H 	0.9122	0.0981	0.9973	-0.069
Mof_C 	C 	0.9404	0.48	0.9749	-0.1
Mof_H 	H 	0.8917	0.5332	0.9483	0.08
Mof_C 	C 	0.1403	0.5323	0.5889	0.08
Mof_H 	H 	0.0518	0.4971	0.5811	-0.016
Mof_C 	C 	0.2195	0.4853	0.5397	-0.174
Mof_H 	H 	0.1846	0.4196	0.5001	0.072
Mof_C 	C 	0.3513	0.5359	0.5492	0.118
Mof_C 	C 	0.3961	0.6334	0.6089	-0.174
Mof_H 	H 	0.4836	0.6709	0.6171	0.095
Mof_C 	C 	0.3116	0.6754	0.6566	0.09
Mof_H 	H 	0.3444	0.7406	0.6968	-0.031
Mof_C 	C 	0.4367	0.4834	0.4974	-0.087
Mof_H 	H 	0.3953	0.4203	0.4572	0.055
Mof_C 	C 	0.1706	0.544	0.8335	0.097
Mof_H 	H 	0.0967	0.4905	0.8044	-0.019
Mof_C 	C 	0.2647	0.5098	0.893	-0.188
Mof_H 	H 	0.2543	0.4345	0.903	0.087
Mof_C 	C 	0.375	0.5879	0.93767	0.121
Mof_C 	C 	0.3806	0.7002	0.9224	-0.179
Mof_H 	H 	0.4502	0.7568	0.9529	0.057
Mof_C 	C 	0.2834	0.728	0.8621	0.091
Mof_H 	H 	0.2889	0.8043	0.8529	-0.065
Mof_C 	C 	0.4885	0.5545	0.9961	-0.087
Mof_H 	H 	0.5488	0.6152	0.0302	0.052
Mof_C 	C 	0.4729	0.3939	0.7182	0.427
_end
