data_functionalizedCrystal
_audit_creation_method	'EQeq! by Chris Wilmer'
_symmetry_space_group_name_H-M	'P1'
_symmetry_Int_Tables_number	1
_symmetry_cell_setting	triclinic
loop_
_symmetry_equiv_pos_as_xyz
  x,y,z
_cell_length_a	7.17
_cell_length_b	7.17
_cell_length_c	13.662
_cell_angle_alpha	90
_cell_angle_beta	90
_cell_angle_gamma	90
loop_
_atom_site_label
_atom_site_type_symbol
_atom_site_fract_x
_atom_site_fract_y
_atom_site_fract_z
_atom_site_charge
Mof_Pt	Pt	0.5	0.5	0.5	0.123
Mof_Fe	Fe	-5.41328e-33	-8.98541e-33	0.5	0.713
Mof_N 	N 	-2.23403e-32	0	0.6461	-0.221
Mof_C 	C 	6.08547e-33	0	0.8518	-0.013
Mof_C 	C 	-1.11295e-32	-1.79708e-32	0.9576	-0.012
Mof_N 	N 	-6.45706e-33	-8.98541e-33	0.3539	-0.221
Mof_C 	C 	-1.18757e-33	-2.24635e-33	0.1482	-0.013
Mof_C 	C 	-2.58672e-34	0	0.0424	-0.012
Mof_N 	N 	0.8092	0.1908	0.5	-0.184
Mof_C 	C 	0.6956	0.3044	0.5	0.046
Mof_N 	N 	0.1908	0.8092	0.5	-0.184
Mof_C 	C 	0.3044	0.6956	0.5	0.046
Mof_N 	N 	0.8092	0.8092	0.5	-0.171
Mof_C 	C 	0.6956	0.6956	0.5	0.054
Mof_N 	N 	0.1908	0.1908	0.5	-0.197
Mof_C 	C 	0.3044	0.3044	0.5	0.038
Mof_C 	C 	0.8387	0	0.695	0.05
Mof_C 	C 	0.8342	0	0.7989	0.002
Mof_C 	C 	0.1613	0	0.695	0.025
Mof_C 	C 	0.1658	0	0.7989	-0.025
Mof_C 	C 	-1.30056e-32	0.8387	0.695	0.05
Mof_C 	C 	-1.22633e-32	0.8342	0.7989	0.002
Mof_C 	C 	4.96526e-33	0.1613	0.695	0.025
Mof_C 	C 	5.70754e-33	0.1658	0.7989	-0.025
Mof_C 	C 	0.1613	-4.4927e-33	0.305	0.025
Mof_C 	C 	0.1658	0	0.2011	-0.025
Mof_C 	C 	0.8387	-4.4927e-33	0.305	0.05
Mof_C 	C 	0.8342	0	0.2011	0.002
Mof_C 	C 	6.6717e-33	0.8387	0.305	0.05
Mof_C 	C 	-1.20414e-32	0.8342	0.2011	0.002
Mof_C 	C 	-2.31371e-33	0.1613	0.305	0.025
Mof_C 	C 	-3.05599e-33	0.1658	0.2011	-0.025
_end
