data_functionalizedCrystal
_audit_creation_method	'EQeq! by Chris Wilmer'
_symmetry_space_group_name_H-M	'P1'
_symmetry_Int_Tables_number	1
_symmetry_cell_setting	triclinic
loop_
_symmetry_equiv_pos_as_xyz
  x,y,z
_cell_length_a	7.2421
_cell_length_b	7.2666
_cell_length_c	7.2696
_cell_angle_alpha	90
_cell_angle_beta	90
_cell_angle_gamma	90
loop_
_atom_site_label
_atom_site_type_symbol
_atom_site_fract_x
_atom_site_fract_y
_atom_site_fract_z
_atom_site_charge
Mof_Fe	Fe	-0	0	-0	0.515
Mof_Ni	Ni	-1.04903e-32	0.5	0.5	1.055
Mof_H 	H 	0.6594	0	0.7339	0.019
Mof_H 	H 	0.6594	2.06203e-33	0.2661	0.024
Mof_H 	H 	0.3406	0	0.7339	0.004
Mof_H 	H 	0.3406	2.06203e-33	0.2661	0.01
Mof_C 	C 	-5.65872e-33	0.6757	0.688	-0.225
Mof_C 	C 	-2.9498e-33	0.3243	0.312	-0.246
Mof_C 	C 	-1.39068e-32	0.3243	0.688	-0.238
Mof_C 	C 	-7.07385e-33	0.6757	0.312	-0.233
Mof_C 	C 	0.5969	0	0.8456	0.021
Mof_C 	C 	0.5969	0	0.1544	-0.004
Mof_C 	C 	0.4031	0	0.8456	0.027
Mof_C 	C 	0.4031	0	0.1544	-0.001
Mof_N 	N 	-5.27031e-33	0.7949	0.7912	-0.082
Mof_N 	N 	2.84787e-33	0.2051	0.2088	-0.117
Mof_N 	N 	-5.27031e-33	0.2051	0.7912	-0.105
Mof_N 	N 	4.9099e-33	0.7949	0.2088	-0.093
Mof_N 	N 	0.6927	0	-0	-0.156
Mof_N 	N 	0.3073	0	-0	-0.175
_end
