data_functionalizedCrystal
_audit_creation_method	'EQeq! by Chris Wilmer'
_symmetry_space_group_name_H-M	'P1'
_symmetry_Int_Tables_number	1
_symmetry_cell_setting	triclinic
loop_
_symmetry_equiv_pos_as_xyz
  x,y,z
_cell_length_a	13.144
_cell_length_b	16.1395
_cell_length_c	17.3653
_cell_angle_alpha	112.258
_cell_angle_beta	104.013
_cell_angle_gamma	96.65
loop_
_atom_site_label
_atom_site_type_symbol
_atom_site_fract_x
_atom_site_fract_y
_atom_site_fract_z
_atom_site_charge
Mof_Ni	Ni	0.32717	0.72733	0.32222	1.075
Mof_Ni	Ni	0.67283	0.27267	0.67778	1.075
Mof_Ni	Ni	0.9193	0.27195	0.30179	1.111
Mof_Ni	Ni	0.87703	0.72715	0.77035	1.124
Mof_Ni	Ni	0.12297	0.27285	0.22965	1.123
Mof_Ni	Ni	0.0807	0.72805	0.69821	1.11
Mof_H 	H 	0.3379	0.3772	0.5897	0.091
Mof_H 	H 	0.5724	0.0366	0.91	0.074
Mof_H 	H 	0.5286	0.2634	0.7919	-0.002
Mof_H 	H 	0.6032	0.8361	0.2022	0.081
Mof_H 	H 	0.1128	0.4132	0.8945	0.076
Mof_H 	H 	0.5718	0.5818	0.7891	0.093
Mof_H 	H 	0.7625	0.0926	0.4466	0.089
Mof_H 	H 	0.3055	0.0393	0.2976	0.089
Mof_H 	H 	0.2	0.8079	0.2776	0.325
Mof_H 	H 	0.9387	0.0561	0.9748	0.038
Mof_H 	H 	0.1557	0.3733	0.1548	0.322
Mof_H 	H 	0.3799	0.7714	0.6688	0.031
Mof_H 	H 	0.5474	0.7168	0.413	0.001
Mof_H 	H 	0.4259	0.1236	0.4334	0.029
Mof_H 	H 	0.347	0.2628	0.3176	0.012
Mof_H 	H 	0.5024	0.3538	0.4247	0.087
Mof_H 	H 	0.8264	0.6955	0.3772	0.029
Mof_H 	H 	0.1324	0.7913	0.5625	0.006
Mof_H 	H 	0.4282	0.4182	0.2109	0.093
Mof_H 	H 	0.6201	0.2286	0.3312	0.031
Mof_H 	H 	0.9787	0.4674	0.5786	0.028
Mof_H 	H 	0.6858	0.1368	0.0459	0.02
Mof_H 	H 	0.4526	0.2832	0.587	0.001
Mof_H 	H 	0.0613	0.9439	0.0252	0.038
Mof_H 	H 	0.5021	0.1383	0.1918	0.07
Mof_H 	H 	0.3968	0.1639	0.7978	0.081
Mof_H 	H 	0.1996	0.3779	0.7689	0.075
Mof_H 	H 	0.3994	0.9795	0.567	0.09
Mof_H 	H 	0.0938	0.2314	0.3533	0.401
Mof_H 	H 	0.6999	0.2686	0.1826	0.007
Mof_H 	H 	0.1813	0.7284	0.0095	0.032
Mof_H 	H 	0.8187	0.2716	0.9905	0.032
Mof_H 	H 	0.6621	0.6228	0.4103	0.091
Mof_H 	H 	0.2073	0.4675	0.3722	0.006
Mof_H 	H 	0.8004	0.6221	0.2311	0.075
Mof_H 	H 	0.4655	0.9136	0.4295	0.005
Mof_H 	H 	0.1263	0.2884	0.1433	0.167
Mof_H 	H 	0.4262	0.6464	0.8189	0.079
Mof_H 	H 	0.4714	0.7366	0.2081	-0.002
Mof_H 	H 	0.4979	0.8617	0.8082	0.07
Mof_H 	H 	0.8676	0.2087	0.4375	0.006
Mof_H 	H 	0.6382	0.4364	0.5249	0.098
Mof_H 	H 	0.3264	0.0397	0.8148	0.079
Mof_H 	H 	0.3209	0.5216	0.2186	0.011
Mof_H 	H 	0.7161	0.1808	0.6328	0.183
Mof_H 	H 	0.6791	0.4784	0.7814	0.011
Mof_H 	H 	0.7927	0.5325	0.6278	0.006
Mof_H 	H 	0.3001	0.7314	0.8174	0.007
Mof_H 	H 	0.9744	0.8405	0.7317	0.388
Mof_H 	H 	0.3618	0.5636	0.4751	0.098
Mof_H 	H 	0.1473	0.6477	0.8626	0.074
Mof_H 	H 	0.1547	0.5807	0.5714	0.011
Mof_H 	H 	0.4276	0.9634	0.09	0.074
Mof_H 	H 	0.653	0.7372	0.6824	0.012
Mof_H 	H 	0.8872	0.5868	0.1055	0.076
Mof_H 	H 	0.1559	0.4977	0.0435	0.031
Mof_H 	H 	0.8	0.1921	0.7224	0.325
Mof_H 	H 	0.0213	0.5326	0.4214	0.028
Mof_H 	H 	0.5738	0.3536	0.1811	0.079
Mof_H 	H 	0.0256	0.1595	0.2683	0.388
Mof_H 	H 	0.2166	0.9214	0.8141	0.005
Mof_H 	H 	0.5345	0.0864	0.5705	0.005
Mof_H 	H 	0.8737	0.7116	0.8567	0.167
Mof_H 	H 	0.8453	0.4193	0.4286	0.011
Mof_H 	H 	0.2375	0.9074	0.5534	0.089
Mof_H 	H 	0.9062	0.7686	0.6467	0.401
Mof_H 	H 	0.2839	0.8192	0.3672	0.183
Mof_H 	H 	0.8441	0.5023	0.9565	0.031
Mof_H 	H 	0.8443	0.6267	0.8452	0.322
Mof_H 	H 	0.1736	0.3045	0.6228	0.029
Mof_H 	H 	0.6945	0.9607	0.7024	0.089
Mof_H 	H 	0.5741	0.8764	0.5666	0.029
Mof_H 	H 	0.4976	0.6462	0.5753	0.087
Mof_H 	H 	0.3142	0.8632	0.9541	0.02
Mof_H 	H 	0.6736	0.9603	0.1852	0.079
Mof_H 	H 	0.7287	0.5125	0.435	0.086
Mof_H 	H 	0.7834	0.0786	0.1859	0.005
Mof_H 	H 	0.8527	0.3523	0.1374	0.074
Mof_H 	H 	0.6006	0.0205	0.433	0.09
Mof_H 	H 	0.2713	0.4875	0.565	0.086
Mof_C 	C 	0.8281	0.3767	0.9579	-0.117
Mof_C 	C 	0.4933	0.898	0.3828	0.089
Mof_C 	C 	0.223	0.9176	0.7607	0.08
Mof_C 	C 	0.101	0.8243	0.888	0.389
Mof_C 	C 	0.3895	0.0775	0.2288	0.05
Mof_C 	C 	0.3798	0.058	0.6819	0.063
Mof_C 	C 	0.8711	0.5229	0.0826	-0.106
Mof_C 	C 	0.8648	0.0514	0.9625	0.061
Mof_C 	C 	0.2051	0.0135	0.1185	-0.102
Mof_C 	C 	0.7993	0.3182	0.8615	0.368
Mof_C 	C 	0.407	0.4001	0.6296	-0.141
Mof_C 	C 	0.5773	0.8543	0.25	-0.141
Mof_C 	C 	0.1289	0.4771	0.9174	-0.106
Mof_C 	C 	0.8268	0.1585	0.3858	0.09
Mof_C 	C 	0.8604	0.648	0.3566	0.045
Mof_C 	C 	0.4968	0.7952	0.2537	0.093
Mof_C 	C 	0.3158	0.0172	0.1412	0.062
Mof_C 	C 	0.792	0.4079	0.3772	0.086
Mof_C 	C 	0.1483	0.6164	0.898	-0.109
Mof_C 	C 	0.6356	0.4463	0.3072	0.058
Mof_C 	C 	0.4227	0.1457	0.75	-0.141
Mof_C 	C 	0.894	0.5321	0.2344	0.061
Mof_C 	C 	0.354	0.9603	0.0773	-0.122
Mof_C 	C 	0.4415	0.1266	0.3849	0.046
Mof_C 	C 	0.4862	0.1355	0.2403	-0.103
Mof_C 	C 	0.8311	0.3354	0.0136	0.05
Mof_C 	C 	0.7065	0.3195	0.2338	0.075
Mof_C 	C 	0.5236	0.656	0.3713	0.081
Mof_C 	C 	0.3695	0.0758	0.3034	-0.111
Mof_C 	C 	0.7141	0.1007	0.0042	0.057
Mof_C 	C 	0.6514	0.676	0.6495	0.09
Mof_C 	C 	0.8412	0.9136	0.8248	0.335
Mof_C 	C 	0.6299	0.3703	0.2324	-0.132
Mof_C 	C 	0.4421	0.8114	0.676	0.036
Mof_C 	C 	0.8256	0.1086	0.0245	-0.13
Mof_C 	C 	0.5572	0.6213	0.5852	-0.141
Mof_C 	C 	0.5504	0.5298	0.5351	0.069
Mof_C 	C 	0.1719	0.6233	0.0421	-0.117
Mof_C 	C 	0.8517	0.3836	0.102	-0.109
Mof_C 	C 	0.4428	0.3787	0.4148	-0.141
Mof_C 	C 	0.4243	0.037	0.6143	-0.137
Mof_C 	C 	0.6397	0.4983	0.5547	-0.151
Mof_C 	C 	0.1527	0.5277	0.0069	0.045
Mof_C 	C 	0.593	0.5999	0.3704	-0.141
Mof_C 	C 	0.2887	0.9894	0.7623	-0.137
Mof_C 	C 	0.7321	0.5562	0.6179	0.088
Mof_C 	C 	0.4388	0.4916	0.69	0.061
Mof_C 	C 	0.8714	0.4804	0.1392	0.045
Mof_C 	C 	0.5067	0.102	0.6172	0.089
Mof_C 	C 	0.9676	0.5575	0.7373	0.357
Mof_C 	C 	0.1588	0.0864	0.1752	0.335
Mof_C 	C 	0.7635	0.089	0.392	-0.139
Mof_C 	C 	0.8473	0.4723	0.9931	0.045
Mof_C 	C 	0.3904	0.5419	0.2577	0.087
Mof_C 	C 	0.646	0.0397	0.9227	-0.122
Mof_C 	C 	0.5138	0.8645	0.7597	-0.103
Mof_C 	C 	0.7014	0.0138	0.317	0.063
Mof_C 	C 	0.3486	0.324	0.3505	0.09
Mof_C 	C 	0.6305	0.9242	0.6966	-0.111
Mof_C 	C 	0.1396	0.352	0.6434	0.045
Mof_C 	C 	0.6842	0.9828	0.8588	0.062
Mof_C 	C 	0.1732	0.8415	0.6142	0.09
Mof_C 	C 	0.7208	0.4635	0.3821	-0.134
Mof_C 	C 	0.777	0.0824	0.2393	0.08
Mof_C 	C 	0.9265	0.6227	0.4154	-0.112
Mof_C 	C 	0.2935	0.6805	0.7662	0.075
Mof_C 	C 	0.1352	0.9486	0.0375	0.061
Mof_C 	C 	0.899	0.1757	0.112	0.389
Mof_C 	C 	0.1689	0.6646	0.9864	0.05
Mof_C 	C 	0.3644	0.5537	0.6928	0.058
Mof_C 	C 	0.0223	0.4489	0.6169	0.054
Mof_C 	C 	0.4547	0.479	0.2521	-0.134
Mof_C 	C 	0.1744	0.8914	0.9755	-0.13
Mof_C 	C 	0.106	0.4679	0.7656	0.061
Mof_C 	C 	0.2365	0.911	0.608	-0.139
Mof_C 	C 	0.1286	0.5196	0.8608	0.045
Mof_C 	C 	0.0324	0.4425	0.2627	0.357
Mof_C 	C 	0.4764	0.344	0.6287	0.081
Mof_C 	C 	0.0616	0.3311	0.4878	0.344
Mof_C 	C 	0.5757	0.963	0.3857	-0.137
Mof_C 	C 	0.9633	0.5083	0.2945	-0.133
Mof_C 	C 	0.208	0.5921	0.6228	0.086
Mof_C 	C 	0.2986	0.9862	0.683	0.063
Mof_C 	C 	0.2792	0.5365	0.6179	-0.134
Mof_C 	C 	0.3603	0.5017	0.4453	-0.151
Mof_C 	C 	0.7113	0.0106	0.2377	-0.137
Mof_C 	C 	0.2007	0.6818	0.1385	0.368
Mof_C 	C 	0.2859	0.8993	0.9958	0.057
Mof_C 	C 	0.9777	0.5511	0.3831	0.054
Mof_C 	C 	0.7949	0.9865	0.8815	-0.102
Mof_C 	C 	0.3813	0.7652	0.5148	0.336
Mof_C 	C 	0.5374	0.1825	0.3966	-0.115
Mof_C 	C 	0.0735	0.3773	0.5846	-0.112
Mof_C 	C 	0.6187	0.2348	0.4852	0.336
Mof_C 	C 	0.4626	0.8175	0.6034	-0.115
Mof_C 	C 	0.2679	0.4438	0.3821	0.088
Mof_C 	C 	0.6105	0.9225	0.7712	0.05
Mof_C 	C 	0.5453	0.521	0.7479	-0.134
Mof_C 	C 	0.3701	0.6297	0.7676	-0.132
Mof_C 	C 	0.5612	0.5084	0.31	0.061
Mof_C 	C 	0.0367	0.4917	0.7055	-0.133
Mof_C 	C 	0.5579	0.1886	0.324	0.036
Mof_C 	C 	0.5585	0.8734	0.6151	0.046
Mof_C 	C 	0.6202	0.942	0.3181	0.063
Mof_C 	C 	0.8451	0.6038	0.269	-0.117
Mof_C 	C 	0.9384	0.6689	0.5122	0.344
Mof_C 	C 	0.4496	0.4702	0.4649	0.069
Mof_C 	C 	0.6096	0.4581	0.7423	0.087
Mof_C 	C 	0.1549	0.3962	0.731	-0.117
Mof_C 	C 	0.5032	0.2048	0.7463	0.093
Mof_N 	N 	0.4218	0.6294	0.3154	-0.231
Mof_N 	N 	0.7399	0.646	0.6668	-0.224
Mof_N 	N 	0.5782	0.3706	0.6846	-0.231
Mof_N 	N 	0.7907	0.3392	0.3048	-0.225
Mof_N 	N 	0.4528	0.8159	0.3176	-0.231
Mof_N 	N 	0.2601	0.354	0.3332	-0.224
Mof_N 	N 	0.5472	0.1841	0.6824	-0.231
Mof_N 	N 	0.1663	0.8415	0.6891	-0.231
Mof_N 	N 	0.8337	0.1585	0.3109	-0.231
Mof_N 	N 	0.2093	0.6608	0.6952	-0.225
Mof_O 	O 	0.0143	0.6561	0.5643	-0.403
Mof_O 	O 	0.1813	0.329	0.1536	-0.629
Mof_O 	O 	0.8187	0.671	0.8464	-0.629
Mof_O 	O 	0.8324	0.2475	0.8387	-0.313
Mof_O 	O 	0.9454	0.7834	0.7001	-0.964
Mof_O 	O 	0.0026	0.8071	0.8797	-0.423
Mof_O 	O 	0.0287	0.3699	0.2754	-0.479
Mof_O 	O 	0.1979	0.1677	0.1911	-0.379
Mof_O 	O 	0.6926	0.2993	0.497	-0.29
Mof_O 	O 	0.9974	0.1929	0.1203	-0.423
Mof_O 	O 	0.8561	0.2081	0.1711	-0.443
Mof_O 	O 	0.9713	0.6301	0.7246	-0.479
Mof_O 	O 	0.7603	0.1687	0.6694	-0.644
Mof_O 	O 	0.6071	0.2095	0.5439	-0.42
Mof_O 	O 	0.1439	0.7919	0.8289	-0.443
Mof_O 	O 	0.1676	0.7525	0.1613	-0.313
Mof_O 	O 	0.0977	0.4684	0.2303	-0.312
Mof_O 	O 	0.0841	0.0597	0.2017	-0.285
Mof_O 	O 	0.8021	0.8323	0.8089	-0.379
Mof_O 	O 	0.9023	0.5316	0.7697	-0.312
Mof_O 	O 	0.2617	0.6581	0.1898	-0.426
Mof_O 	O 	0.3074	0.7007	0.503	-0.29
Mof_O 	O 	0.8734	0.7169	0.5339	-0.324
Mof_O 	O 	0.7383	0.3419	0.8102	-0.426
Mof_O 	O 	0.0546	0.2166	0.2999	-0.964
Mof_O 	O 	0.9159	0.9403	0.7983	-0.285
Mof_O 	O 	0.1266	0.2831	0.4661	-0.324
Mof_O 	O 	0.3929	0.7905	0.4561	-0.42
Mof_O 	O 	0.9857	0.3439	0.4357	-0.403
Mof_O 	O 	0.2397	0.8313	0.3306	-0.644
_end
