data_functionalizedCrystal
_audit_creation_method	'EQeq! by Chris Wilmer'
_symmetry_space_group_name_H-M	'P1'
_symmetry_Int_Tables_number	1
_symmetry_cell_setting	triclinic
loop_
_symmetry_equiv_pos_as_xyz
  x,y,z
_cell_length_a	24.188
_cell_length_b	24.188
_cell_length_c	13.1489
_cell_angle_alpha	90
_cell_angle_beta	90
_cell_angle_gamma	120
loop_
_atom_site_label
_atom_site_type_symbol
_atom_site_fract_x
_atom_site_fract_y
_atom_site_fract_z
_atom_site_charge
Mof_O 	O 	0.569	0.9384	0.0592	-0.505
Mof_O 	O 	0.6175	0.0203	0.1672	-0.652
Mof_O 	O 	0.3421	0.2432	0.0827	-0.633
Mof_C 	C 	0.3918	0.9783	0.1541	0.236
Mof_C 	C 	0.5042	0.028	0.1804	0.147
Mof_H 	H 	0.5416	0.0621	0.2057	-0.061
Mof_C 	C 	0.448	0.0292	0.1926	-0.319
Mof_H 	H 	0.4477	0.063	0.2255	0.126
Mof_C 	C 	0.508	0.9807	0.1345	-0.225
Mof_C 	C 	0.4518	0.9301	0.0941	0.13
Mof_H 	H 	0.4533	0.8973	0.0595	-0.036
Mof_C 	C 	0.3923	0.9283	0.1056	-0.267
Mof_H 	H 	0.3548	0.8941	0.0808	0.087
Mof_C 	C 	0.5669	0.9782	0.1191	0.45
Mof_C 	C 	0.3601	0.0806	0.084	-0.236
Mof_H 	H 	0.3798	0.0717	0.0308	0.057
Mof_C 	C 	0.3568	0.1352	0.0833	0.135
Mof_H 	H 	0.3704	0.1613	0.0262	-0.061
Mof_O 	O 	0.23567	0.27173	0.39253	-0.514
Mof_O 	O 	0.28417	0.35363	0.50053	-0.645
Mof_O 	O 	0.00877	0.57653	0.41603	-0.666
Mof_C 	C 	0.05847	0.31163	0.48743	0.205
Mof_C 	C 	0.17087	0.36133	0.51373	0.198
Mof_H 	H 	0.20827	0.39543	0.53903	-0.059
Mof_C 	C 	0.11467	0.36253	0.52593	-0.273
Mof_H 	H 	0.11437	0.39633	0.55883	0.124
Mof_C 	C 	0.17467	0.31403	0.46783	-0.246
Mof_C 	C 	0.11847	0.26343	0.42743	0.144
Mof_H 	H 	0.11997	0.23063	0.39283	-0.019
Mof_C 	C 	0.05897	0.26163	0.43893	-0.25
Mof_H 	H 	0.02147	0.22743	0.41413	0.1
Mof_C 	C 	0.23357	0.31153	0.45243	0.431
Mof_C 	C 	0.02677	0.41393	0.41733	-0.249
Mof_H 	H 	0.04647	0.40503	0.36413	0.117
Mof_C 	C 	0.02347	0.46853	0.41663	0.171
Mof_H 	H 	0.03707	0.49463	0.35953	-0.033
Mof_O 	O 	0.90233	0.60507	0.72587	-0.485
Mof_O 	O 	0.95083	0.68697	0.83387	-0.529
Mof_O 	O 	0.67543	0.90987	0.74937	-0.631
Mof_C 	C 	0.72513	0.64497	0.82077	0.215
Mof_C 	C 	0.83753	0.69467	0.84707	0.186
Mof_H 	H 	0.87493	0.72877	0.87237	-0.015
Mof_C 	C 	0.78133	0.69587	0.85927	-0.24
Mof_H 	H 	0.78103	0.72967	0.89217	0.148
Mof_C 	C 	0.84133	0.64737	0.80117	-0.202
Mof_C 	C 	0.78513	0.59677	0.76077	0.135
Mof_H 	H 	0.78663	0.56397	0.72617	-0.003
Mof_C 	C 	0.72563	0.59497	0.77227	-0.23
Mof_H 	H 	0.68813	0.56077	0.74747	0.11
Mof_C 	C 	0.90023	0.64487	0.78577	0.404
Mof_C 	C 	0.69343	0.74727	0.75067	-0.239
Mof_H 	H 	0.71313	0.73837	0.69747	0.118
Mof_C 	C 	0.69013	0.80187	0.74997	0.163
Mof_H 	H 	0.70373	0.82797	0.69287	-0.018
Mof_O 	O 	0.0616	0.6306	0.0592	-0.511
Mof_O 	O 	0.9797	0.5972	0.1672	-0.613
Mof_O 	O 	0.7568	0.0989	0.0827	-0.621
Mof_C 	C 	0.0217	0.4135	0.1541	0.16
Mof_C 	C 	0.972	0.4762	0.1804	0.23
Mof_H 	H 	0.9379	0.4795	0.2057	-0.08
Mof_C 	C 	0.9708	0.4188	0.1926	-0.253
Mof_H 	H 	0.937	0.3847	0.2255	0.114
Mof_C 	C 	0.0193	0.5273	0.1345	-0.301
Mof_C 	C 	0.0699	0.5217	0.0941	0.135
Mof_H 	H 	0.1027	0.556	0.0595	-0.04
Mof_C 	C 	0.0717	0.464	0.1056	-0.255
Mof_H 	H 	0.1059	0.4607	0.0808	0.081
Mof_C 	C 	0.0218	0.5887	0.1191	0.399
Mof_C 	C 	0.9194	0.2795	0.084	-0.271
Mof_H 	H 	0.9283	0.3081	0.0308	0.08
Mof_C 	C 	0.8648	0.2216	0.0833	0.166
Mof_H 	H 	0.8387	0.2091	0.0262	-0.07
Mof_O 	O 	0.72827	0.96393	0.39253	-0.483
Mof_O 	O 	0.64637	0.93053	0.50053	-0.64
Mof_O 	O 	0.42347	0.43223	0.41603	-0.65
Mof_C 	C 	0.68837	0.74683	0.48743	0.211
Mof_C 	C 	0.63867	0.80953	0.51373	0.2
Mof_H 	H 	0.60457	0.81283	0.53903	-0.06
Mof_C 	C 	0.63747	0.75213	0.52593	-0.275
Mof_H 	H 	0.60367	0.71803	0.55883	0.126
Mof_C 	C 	0.68597	0.86063	0.46783	-0.243
Mof_C 	C 	0.73657	0.85503	0.42743	0.147
Mof_H 	H 	0.76937	0.88933	0.39283	-0.007
Mof_C 	C 	0.73837	0.79733	0.43893	-0.246
Mof_H 	H 	0.77257	0.79403	0.41413	0.116
Mof_C 	C 	0.68847	0.92203	0.45243	0.432
Mof_C 	C 	0.58607	0.61283	0.41733	-0.253
Mof_H 	H 	0.59497	0.64143	0.36413	0.122
Mof_C 	C 	0.53147	0.55493	0.41663	0.173
Mof_H 	H 	0.50537	0.54243	0.35953	-0.028
Mof_O 	O 	0.39493	0.29727	0.72587	-0.501
Mof_O 	O 	0.31303	0.26387	0.83387	-0.56
Mof_O 	O 	0.09013	0.76557	0.74937	-0.62
Mof_C 	C 	0.35503	0.08017	0.82077	0.213
Mof_C 	C 	0.30533	0.14287	0.84707	0.19
Mof_H 	H 	0.27123	0.14617	0.87237	-0.026
Mof_C 	C 	0.30413	0.08547	0.85927	-0.245
Mof_H 	H 	0.27033	0.05137	0.89217	0.137
Mof_C 	C 	0.35263	0.19397	0.80117	-0.209
Mof_C 	C 	0.40323	0.18837	0.76077	0.138
Mof_H 	H 	0.43603	0.22267	0.72617	-0.004
Mof_C 	C 	0.40503	0.13067	0.77227	-0.231
Mof_H 	H 	0.43923	0.12737	0.74747	0.111
Mof_C 	C 	0.35513	0.25537	0.78577	0.411
Mof_C 	C 	0.25273	0.94617	0.75067	-0.26
Mof_H 	H 	0.26163	0.97477	0.69747	0.137
Mof_C 	C 	0.19813	0.88827	0.74997	0.179
Mof_H 	H 	0.17203	0.87577	0.69287	-0.025
Mof_O 	O 	0.3694	0.431	0.0592	-0.519
Mof_O 	O 	0.4028	0.3825	0.1672	-0.637
Mof_O 	O 	0.9011	0.6579	0.0827	-0.615
Mof_C 	C 	0.5865	0.6082	0.1541	0.194
Mof_C 	C 	0.5238	0.4958	0.1804	0.192
Mof_H 	H 	0.5205	0.4584	0.2057	-0.072
Mof_C 	C 	0.5812	0.552	0.1926	-0.284
Mof_H 	H 	0.6153	0.5523	0.2255	0.119
Mof_C 	C 	0.4727	0.492	0.1345	-0.267
Mof_C 	C 	0.4783	0.5482	0.0941	0.133
Mof_H 	H 	0.444	0.5467	0.0595	-0.039
Mof_C 	C 	0.536	0.6077	0.1056	-0.261
Mof_H 	H 	0.5393	0.6452	0.0808	0.083
Mof_C 	C 	0.4113	0.4331	0.1191	0.423
Mof_C 	C 	0.7205	0.6399	0.084	-0.253
Mof_H 	H 	0.6919	0.6202	0.0308	0.07
Mof_C 	C 	0.7784	0.6432	0.0833	0.152
Mof_H 	H 	0.7909	0.6296	0.0262	-0.064
Mof_O 	O 	0.03607	0.76433	0.39253	-0.533
Mof_O 	O 	0.06947	0.71583	0.50053	-0.649
Mof_O 	O 	0.56777	0.99123	0.41603	-0.596
Mof_C 	C 	0.25317	0.94153	0.48743	0.254
Mof_C 	C 	0.19047	0.82913	0.51373	0.221
Mof_H 	H 	0.18717	0.79173	0.53903	-0.065
Mof_C 	C 	0.24787	0.88533	0.52593	-0.302
Mof_H 	H 	0.28197	0.88563	0.55883	0.14
Mof_C 	C 	0.13937	0.82533	0.46783	-0.261
Mof_C 	C 	0.14497	0.88153	0.42743	0.167
Mof_H 	H 	0.11067	0.88003	0.39283	-0.021
Mof_C 	C 	0.20267	0.94103	0.43893	-0.271
Mof_H 	H 	0.20597	0.97853	0.41413	0.134
Mof_C 	C 	0.07797	0.76643	0.45243	0.435
Mof_C 	C 	0.38717	0.97323	0.41733	-0.213
Mof_H 	H 	0.35857	0.95353	0.36413	0.115
Mof_C 	C 	0.44507	0.97653	0.41663	0.202
Mof_H 	H 	0.45757	0.96293	0.35953	-0.029
Mof_O 	O 	0.70273	0.09767	0.72587	-0.516
Mof_O 	O 	0.73613	0.04917	0.83387	-0.564
Mof_O 	O 	0.23443	0.32457	0.74937	-0.629
Mof_C 	C 	0.91983	0.27487	0.82077	0.224
Mof_C 	C 	0.85713	0.16247	0.84707	0.196
Mof_H 	H 	0.85383	0.12507	0.87237	-0.023
Mof_C 	C 	0.91453	0.21867	0.85927	-0.247
Mof_H 	H 	0.94863	0.21897	0.89217	0.155
Mof_C 	C 	0.80603	0.15867	0.80117	-0.21
Mof_C 	C 	0.81163	0.21487	0.76077	0.142
Mof_H 	H 	0.77733	0.21337	0.72617	-0.005
Mof_C 	C 	0.86933	0.27437	0.77227	-0.236
Mof_H 	H 	0.87263	0.31187	0.74747	0.113
Mof_C 	C 	0.74463	0.09977	0.78577	0.412
Mof_C 	C 	0.05383	0.30657	0.75067	-0.224
Mof_H 	H 	0.02523	0.28687	0.69747	0.101
Mof_C 	C 	0.11173	0.30987	0.74997	0.146
Mof_H 	H 	0.12423	0.29627	0.69287	-0.018
Mof_O 	O 	0.9384	0.569	0.9408	-0.395
Mof_O 	O 	0.0203	0.6175	0.8328	-0.611
Mof_O 	O 	0.2432	0.3421	0.9173	-0.525
Mof_C 	C 	0.9783	0.3918	0.8459	0.259
Mof_C 	C 	0.028	0.5042	0.8196	0.166
Mof_H 	H 	0.0621	0.5416	0.7943	-0.039
Mof_C 	C 	0.0292	0.448	0.8074	-0.294
Mof_H 	H 	0.063	0.4477	0.7745	0.134
Mof_C 	C 	0.9807	0.508	0.8655	-0.185
Mof_C 	C 	0.9301	0.4518	0.9059	0.152
Mof_H 	H 	0.8973	0.4533	0.9405	0.018
Mof_C 	C 	0.9283	0.3923	0.8944	-0.238
Mof_H 	H 	0.8941	0.3548	0.9192	0.147
Mof_C 	C 	0.9782	0.5669	0.8809	0.452
Mof_C 	C 	0.0806	0.3601	0.916	-0.214
Mof_H 	H 	0.0717	0.3798	0.9692	0.156
Mof_C 	C 	0.1352	0.3568	0.9167	0.154
Mof_H 	H 	0.1613	0.3704	0.9738	0.027
Mof_O 	O 	0.60507	0.90233	0.27413	-0.485
Mof_O 	O 	0.68697	0.95083	0.16613	-0.571
Mof_O 	O 	0.90987	0.67543	0.25063	-0.646
Mof_C 	C 	0.64497	0.72513	0.17923	0.186
Mof_C 	C 	0.69467	0.83753	0.15293	0.164
Mof_H 	H 	0.72877	0.87493	0.12763	-0.06
Mof_C 	C 	0.69587	0.78133	0.14073	-0.273
Mof_H 	H 	0.72967	0.78103	0.10783	0.098
Mof_C 	C 	0.64737	0.84133	0.19883	-0.232
Mof_C 	C 	0.59677	0.78513	0.23923	0.123
Mof_H 	H 	0.56397	0.78663	0.27383	-0.009
Mof_C 	C 	0.59497	0.72563	0.22773	-0.24
Mof_H 	H 	0.56077	0.68813	0.25253	0.108
Mof_C 	C 	0.64487	0.90023	0.21423	0.4
Mof_C 	C 	0.74727	0.69343	0.24933	-0.245
Mof_H 	H 	0.73837	0.71313	0.30253	0.119
Mof_C 	C 	0.80187	0.69013	0.25003	0.163
Mof_H 	H 	0.82797	0.70373	0.30713	-0.025
Mof_O 	O 	0.27173	0.23567	0.60747	-0.511
Mof_O 	O 	0.35363	0.28417	0.49947	-0.645
Mof_O 	O 	0.57653	0.00877	0.58397	-0.668
Mof_C 	C 	0.31163	0.05847	0.51257	0.203
Mof_C 	C 	0.36133	0.17087	0.48627	0.195
Mof_H 	H 	0.39543	0.20827	0.46097	-0.062
Mof_C 	C 	0.36253	0.11467	0.47407	-0.272
Mof_H 	H 	0.39633	0.11437	0.44117	0.12
Mof_C 	C 	0.31403	0.17467	0.53217	-0.245
Mof_C 	C 	0.26343	0.11847	0.57257	0.14
Mof_H 	H 	0.23063	0.11997	0.60717	-0.012
Mof_C 	C 	0.26163	0.05897	0.56107	-0.249
Mof_H 	H 	0.22743	0.02147	0.58587	0.102
Mof_C 	C 	0.31153	0.23357	0.54757	0.428
Mof_C 	C 	0.41393	0.02677	0.58267	-0.248
Mof_H 	H 	0.40503	0.04647	0.63587	0.114
Mof_C 	C 	0.46853	0.02347	0.58337	0.171
Mof_H 	H 	0.49463	0.03707	0.64047	-0.034
Mof_O 	O 	0.6306	0.0616	0.9408	-0.395
Mof_O 	O 	0.5972	0.9797	0.8328	-0.573
Mof_O 	O 	0.0989	0.7568	0.9173	-0.518
Mof_C 	C 	0.4135	0.0217	0.8459	0.189
Mof_C 	C 	0.4762	0.972	0.8196	0.242
Mof_H 	H 	0.4795	0.9379	0.7943	-0.056
Mof_C 	C 	0.4188	0.9708	0.8074	-0.233
Mof_H 	H 	0.3847	0.937	0.7745	0.123
Mof_C 	C 	0.5273	0.0193	0.8655	-0.255
Mof_C 	C 	0.5217	0.0699	0.9059	0.157
Mof_H 	H 	0.556	0.1027	0.9405	0.015
Mof_C 	C 	0.464	0.0717	0.8944	-0.226
Mof_H 	H 	0.4607	0.1059	0.9192	0.142
Mof_C 	C 	0.5887	0.0218	0.8809	0.404
Mof_C 	C 	0.2795	0.9194	0.916	-0.248
Mof_H 	H 	0.3081	0.9283	0.9692	0.175
Mof_C 	C 	0.2216	0.8648	0.9167	0.182
Mof_H 	H 	0.2091	0.8387	0.9738	0.017
Mof_O 	O 	0.29727	0.39493	0.27413	-0.505
Mof_O 	O 	0.26387	0.31303	0.16613	-0.61
Mof_O 	O 	0.76557	0.09013	0.25063	-0.634
Mof_C 	C 	0.08017	0.35503	0.17923	0.184
Mof_C 	C 	0.14287	0.30533	0.15293	0.17
Mof_H 	H 	0.14617	0.27123	0.12763	-0.074
Mof_C 	C 	0.08547	0.30413	0.14073	-0.28
Mof_H 	H 	0.05137	0.27033	0.10783	0.087
Mof_C 	C 	0.19397	0.35263	0.19883	-0.242
Mof_C 	C 	0.18837	0.40323	0.23923	0.127
Mof_H 	H 	0.22267	0.43603	0.27383	-0.011
Mof_C 	C 	0.13067	0.40503	0.22773	-0.243
Mof_H 	H 	0.12737	0.43923	0.25253	0.109
Mof_C 	C 	0.25537	0.35513	0.21423	0.41
Mof_C 	C 	0.94617	0.25273	0.24933	-0.264
Mof_H 	H 	0.97477	0.26163	0.30253	0.137
Mof_C 	C 	0.88827	0.19813	0.25003	0.177
Mof_H 	H 	0.87577	0.17203	0.30713	-0.031
Mof_O 	O 	0.96393	0.72827	0.60747	-0.484
Mof_O 	O 	0.93053	0.64637	0.49947	-0.641
Mof_O 	O 	0.43223	0.42347	0.58397	-0.651
Mof_C 	C 	0.74683	0.68837	0.51257	0.209
Mof_C 	C 	0.80953	0.63867	0.48627	0.198
Mof_H 	H 	0.81283	0.60457	0.46097	-0.064
Mof_C 	C 	0.75213	0.63747	0.47407	-0.275
Mof_H 	H 	0.71803	0.60367	0.44117	0.122
Mof_C 	C 	0.86063	0.68597	0.53217	-0.243
Mof_C 	C 	0.85503	0.73657	0.57257	0.143
Mof_H 	H 	0.88933	0.76937	0.60717	-0.001
Mof_C 	C 	0.79733	0.73837	0.56107	-0.245
Mof_H 	H 	0.79403	0.77257	0.58587	0.119
Mof_C 	C 	0.92203	0.68847	0.54757	0.429
Mof_C 	C 	0.61283	0.58607	0.58267	-0.253
Mof_H 	H 	0.64143	0.59497	0.63587	0.12
Mof_C 	C 	0.55493	0.53147	0.58337	0.173
Mof_H 	H 	0.54243	0.50537	0.64047	-0.03
Mof_O 	O 	0.431	0.3694	0.9408	-0.404
Mof_O 	O 	0.3825	0.4028	0.8328	-0.597
Mof_O 	O 	0.6579	0.9011	0.9173	-0.506
Mof_C 	C 	0.6082	0.5865	0.8459	0.224
Mof_C 	C 	0.4958	0.5238	0.8196	0.203
Mof_H 	H 	0.4584	0.5205	0.7943	-0.048
Mof_C 	C 	0.552	0.5812	0.8074	-0.264
Mof_H 	H 	0.5523	0.6153	0.7745	0.128
Mof_C 	C 	0.492	0.4727	0.8655	-0.219
Mof_C 	C 	0.5482	0.4783	0.9059	0.154
Mof_H 	H 	0.5467	0.444	0.9405	0.016
Mof_C 	C 	0.6077	0.536	0.8944	-0.232
Mof_H 	H 	0.6452	0.5393	0.9192	0.144
Mof_C 	C 	0.4331	0.4113	0.8809	0.429
Mof_C 	C 	0.6399	0.7205	0.916	-0.23
Mof_H 	H 	0.6202	0.6919	0.9692	0.165
Mof_C 	C 	0.6432	0.7784	0.9167	0.168
Mof_H 	H 	0.6296	0.7909	0.9738	0.023
Mof_O 	O 	0.09767	0.70273	0.27413	-0.519
Mof_O 	O 	0.04917	0.73613	0.16613	-0.616
Mof_O 	O 	0.32457	0.23443	0.25063	-0.644
Mof_C 	C 	0.27487	0.91983	0.17923	0.197
Mof_C 	C 	0.16247	0.85713	0.15293	0.177
Mof_H 	H 	0.12507	0.85383	0.12763	-0.071
Mof_C 	C 	0.21867	0.91453	0.14073	-0.282
Mof_H 	H 	0.21897	0.94863	0.10783	0.107
Mof_C 	C 	0.15867	0.80603	0.19883	-0.244
Mof_C 	C 	0.21487	0.81163	0.23923	0.132
Mof_H 	H 	0.21337	0.77733	0.27383	-0.012
Mof_C 	C 	0.27437	0.86933	0.22773	-0.248
Mof_H 	H 	0.31187	0.87263	0.25253	0.112
Mof_C 	C 	0.09977	0.74463	0.21423	0.411
Mof_C 	C 	0.30657	0.05383	0.24933	-0.227
Mof_H 	H 	0.28687	0.02523	0.30253	0.098
Mof_C 	C 	0.30987	0.11173	0.25003	0.143
Mof_H 	H 	0.29627	0.12423	0.30713	-0.024
Mof_O 	O 	0.76433	0.03607	0.60747	-0.533
Mof_O 	O 	0.71583	0.06947	0.49947	-0.648
Mof_O 	O 	0.99123	0.56777	0.58397	-0.604
Mof_C 	C 	0.94153	0.25317	0.51257	0.248
Mof_C 	C 	0.82913	0.19047	0.48627	0.216
Mof_H 	H 	0.79173	0.18717	0.46097	-0.068
Mof_C 	C 	0.88533	0.24787	0.47407	-0.298
Mof_H 	H 	0.88563	0.28197	0.44117	0.135
Mof_C 	C 	0.82533	0.13937	0.53217	-0.258
Mof_C 	C 	0.88153	0.14497	0.57257	0.161
Mof_H 	H 	0.88003	0.11067	0.60717	-0.014
Mof_C 	C 	0.94103	0.20267	0.56107	-0.269
Mof_H 	H 	0.97853	0.20597	0.58587	0.135
Mof_C 	C 	0.76643	0.07797	0.54757	0.431
Mof_C 	C 	0.97323	0.38717	0.58267	-0.217
Mof_H 	H 	0.95353	0.35857	0.63587	0.114
Mof_C 	C 	0.97653	0.44507	0.58337	0.2
Mof_H 	H 	0.96293	0.45757	0.64047	-0.031
Mof_Ce	Ce	0.68414	0	-0	2.002
Mof_Ce	Ce	0.35081	0.33333	0.33333	2.566
Mof_Ce	Ce	0.01747	0.66667	0.66667	2.49
Mof_Ce	Ce	-0	0.68414	-0	2.031
Mof_Ce	Ce	0.66667	0.01747	0.33333	2.451
Mof_Ce	Ce	0.33333	0.35081	0.66667	2.591
Mof_Ce	Ce	0.31586	0.31586	-0	2.11
Mof_Ce	Ce	0.98253	0.64919	0.33333	2.671
Mof_Ce	Ce	0.64919	0.98253	0.66667	2.703
Mof_N 	N 	0.33333	0.97692	0.16667	-0.197
Mof_C 	C 	0.33333	0.03742	0.16667	0.126
Mof_C 	C 	0.33333	0.15252	0.16667	-0.268
Mof_C 	C 	0.33333	0.21482	0.16667	0.526
Mof_N 	N 	8.42069e-19	0.31025	0.5	-0.222
Mof_C 	C 	8.42069e-19	0.37075	0.5	0.15
Mof_C 	C 	-6.74154e-17	0.48585	0.5	-0.3
Mof_C 	C 	-3.32867e-17	0.54815	0.5	0.518
Mof_N 	N 	0.02308	0.35642	0.16667	-0.221
Mof_C 	C 	0.96258	0.29592	0.16667	0.202
Mof_C 	C 	0.84748	0.18082	0.16667	-0.285
Mof_C 	C 	0.78518	0.11852	0.16667	0.525
Mof_N 	N 	0.68975	0.68975	0.5	-0.208
Mof_C 	C 	0.62925	0.62925	0.5	0.185
Mof_C 	C 	0.51415	0.51415	0.5	-0.275
Mof_C 	C 	0.45185	0.45185	0.5	0.55
Mof_N 	N 	0.64358	0.66667	0.16667	-0.21
Mof_C 	C 	0.70408	0.66667	0.16667	0.167
Mof_C 	C 	0.81918	0.66667	0.16667	-0.275
Mof_C 	C 	0.88148	0.66667	0.16667	0.531
Mof_N 	N 	0.31025	0	0.5	-0.223
Mof_C 	C 	0.37075	0	0.5	0.145
Mof_C 	C 	0.48585	0	0.5	-0.303
Mof_C 	C 	0.54815	0	0.5	0.513
Mof_N 	N 	0.97692	0.33333	0.83333	-0.19
Mof_C 	C 	0.03742	0.33333	0.83333	0.159
Mof_C 	C 	0.15252	0.33333	0.83333	-0.23
Mof_C 	C 	0.21482	0.33333	0.83333	0.518
Mof_N 	N 	0.35642	0.02308	0.83333	-0.212
Mof_C 	C 	0.29592	0.96258	0.83333	0.229
Mof_C 	C 	0.18082	0.84748	0.83333	-0.246
Mof_C 	C 	0.11852	0.78518	0.83333	0.519
Mof_N 	N 	0.66667	0.64358	0.83333	-0.201
Mof_C 	C 	0.66667	0.70408	0.83333	0.193
Mof_C 	C 	0.66667	0.81918	0.83333	-0.235
Mof_C 	C 	0.66667	0.88148	0.83333	0.522
_end
