data_functionalizedCrystal
_audit_creation_method	'EQeq! by Chris Wilmer'
_symmetry_space_group_name_H-M	'P1'
_symmetry_Int_Tables_number	1
_symmetry_cell_setting	triclinic
loop_
_symmetry_equiv_pos_as_xyz
  x,y,z
_cell_length_a	23.9836
_cell_length_b	7.3271
_cell_length_c	22.6809
_cell_angle_alpha	90
_cell_angle_beta	94.4257
_cell_angle_gamma	90
loop_
_atom_site_label
_atom_site_type_symbol
_atom_site_fract_x
_atom_site_fract_y
_atom_site_fract_z
_atom_site_charge
Mof_Co	Co	0.45296	0.02347	0.23954	1.082
Mof_Co	Co	0.70898	0.98381	0.49718	1.078
Mof_N 	N 	0.27918	0.9826	0.44658	-0.193
Mof_N 	N 	0.3369	0.1453	0.3777	0.711
Mof_N 	N 	0.38584	0.0199	0.29474	-0.298
Mof_N 	N 	0.50206	0.1338	0.31233	-0.291
Mof_N 	N 	0.55339	0.244	0.40377	-0.186
Mof_N 	N 	0.6387	0.1001	0.45012	-0.298
Mof_N 	N 	0.77978	0.8675	0.54269	-0.299
Mof_N 	N 	0.87084	0.7274	0.57243	-0.187
Mof_N 	N 	0.906	0.5935	0.66723	-0.309
Mof_N 	N 	0.66067	0.9433	0.5698	-0.301
Mof_N 	N 	0.61244	0.8416	0.65572	-0.191
Mof_N 	N 	0.5242	0.9548	0.69062	-0.297
Mof_N 	N 	0.75691	0.0268	0.42431	-0.297
Mof_N 	N 	0.79811	0.1485	0.33595	-0.179
Mof_N 	N 	0.88281	0.0353	0.2932	-0.186
Mof_C 	C 	0.30902	0.0444	0.41469	0.194
Mof_C 	C 	0.36385	0.0633	0.33577	0.183
Mof_C 	C 	0.5281	0.1808	0.35482	0.152
Mof_C 	C 	0.59893	0.1634	0.42615	0.144
Mof_C 	C 	0.82135	0.7985	0.55973	0.15
Mof_C 	C 	0.88662	0.6596	0.62471	0.14
Mof_C 	C 	0.63568	0.9025	0.60908	0.144
Mof_C 	C 	0.56523	0.9077	0.67179	0.142
Mof_C 	C 	0.77826	0.0776	0.3838	0.142
Mof_C 	C 	0.84342	0.0826	0.31572	0.117
Mof_N 	N 	0.3496	0.11	0.3882	-0.912
Mof_Co	Co	0.95296	0.52347	0.23954	1.063
Mof_Co	Co	0.20898	0.48381	0.49718	1.08
Mof_N 	N 	0.77918	0.4826	0.44658	-0.201
Mof_N 	N 	0.8369	0.6453	0.3777	0.926
Mof_N 	N 	0.88584	0.5199	0.29474	-0.305
Mof_N 	N 	0.00206	0.6338	0.31233	-0.275
Mof_N 	N 	0.05339	0.744	0.40377	-0.18
Mof_N 	N 	0.1387	0.6001	0.45012	-0.297
Mof_N 	N 	0.27978	0.3675	0.54269	-0.298
Mof_N 	N 	0.37084	0.2274	0.57243	-0.184
Mof_N 	N 	0.406	0.0935	0.66723	-0.302
Mof_N 	N 	0.16067	0.4433	0.5698	-0.299
Mof_N 	N 	0.11244	0.3416	0.65572	-0.19
Mof_N 	N 	0.0242	0.4548	0.69062	-0.282
Mof_N 	N 	0.25691	0.5268	0.42431	-0.295
Mof_N 	N 	0.29811	0.6485	0.33595	-0.178
Mof_N 	N 	0.38281	0.5353	0.2932	-0.178
Mof_C 	C 	0.80902	0.5444	0.41469	0.205
Mof_C 	C 	0.86385	0.5633	0.33577	0.181
Mof_C 	C 	0.0281	0.6808	0.35482	0.167
Mof_C 	C 	0.09893	0.6634	0.42615	0.152
Mof_C 	C 	0.32135	0.2985	0.55973	0.154
Mof_C 	C 	0.38662	0.1596	0.62471	0.15
Mof_C 	C 	0.13568	0.4025	0.60908	0.152
Mof_C 	C 	0.06523	0.4077	0.67179	0.152
Mof_C 	C 	0.27826	0.5776	0.3838	0.15
Mof_C 	C 	0.34342	0.5826	0.31572	0.125
Mof_N 	N 	0.8496	0.61	0.3882	-1.137
Mof_Co	Co	0.45296	0.97653	0.73954	1.079
Mof_Co	Co	0.70898	0.01619	0.99718	1.055
Mof_N 	N 	0.27918	0.0174	0.94658	-0.211
Mof_N 	N 	0.3369	0.8547	0.8777	0.867
Mof_N 	N 	0.38584	0.9801	0.79474	-0.3
Mof_N 	N 	0.50206	0.8662	0.81233	-0.293
Mof_N 	N 	0.55339	0.756	0.90377	-0.19
Mof_N 	N 	0.6387	0.8999	0.95012	-0.306
Mof_N 	N 	0.77978	0.1325	0.04269	-0.283
Mof_N 	N 	0.87084	0.2726	0.07243	-0.179
Mof_N 	N 	0.906	0.4065	0.16723	-0.307
Mof_N 	N 	0.66067	0.0567	0.0698	-0.285
Mof_N 	N 	0.61244	0.1584	0.15572	-0.189
Mof_N 	N 	0.5242	0.0452	0.19062	-0.295
Mof_N 	N 	0.75691	0.9732	0.92431	-0.303
Mof_N 	N 	0.79811	0.8515	0.83595	-0.18
Mof_N 	N 	0.88281	0.9647	0.7932	-0.188
Mof_C 	C 	0.30902	0.9556	0.91469	0.198
Mof_C 	C 	0.36385	0.9367	0.83577	0.184
Mof_C 	C 	0.5281	0.8192	0.85482	0.147
Mof_C 	C 	0.59893	0.8366	0.92615	0.133
Mof_C 	C 	0.82135	0.2015	0.05973	0.166
Mof_C 	C 	0.88662	0.3404	0.12471	0.15
Mof_C 	C 	0.63568	0.0975	0.10908	0.155
Mof_C 	C 	0.56523	0.0923	0.17179	0.15
Mof_C 	C 	0.77826	0.9224	0.8838	0.135
Mof_C 	C 	0.84342	0.9174	0.81572	0.112
Mof_N 	N 	0.3496	0.89	0.8882	-1.077
Mof_Co	Co	0.95296	0.47653	0.73954	1.06
Mof_Co	Co	0.20898	0.51619	0.99718	1.059
Mof_N 	N 	0.77918	0.5174	0.94658	-0.213
Mof_N 	N 	0.8369	0.3547	0.8777	1.035
Mof_N 	N 	0.88584	0.4801	0.79474	-0.307
Mof_N 	N 	0.00206	0.3662	0.81233	-0.277
Mof_N 	N 	0.05339	0.256	0.90377	-0.185
Mof_N 	N 	0.1387	0.3999	0.95012	-0.305
Mof_N 	N 	0.27978	0.6325	0.04269	-0.281
Mof_N 	N 	0.37084	0.7726	0.07243	-0.176
Mof_N 	N 	0.406	0.9065	0.16723	-0.299
Mof_N 	N 	0.16067	0.5567	0.0698	-0.283
Mof_N 	N 	0.11244	0.6584	0.15572	-0.187
Mof_N 	N 	0.0242	0.5452	0.19062	-0.28
Mof_N 	N 	0.25691	0.4732	0.92431	-0.303
Mof_N 	N 	0.29811	0.3515	0.83595	-0.179
Mof_N 	N 	0.38281	0.4647	0.7932	-0.181
Mof_C 	C 	0.80902	0.4556	0.91469	0.202
Mof_C 	C 	0.86385	0.4367	0.83577	0.18
Mof_C 	C 	0.0281	0.3192	0.85482	0.161
Mof_C 	C 	0.09893	0.3366	0.92615	0.14
Mof_C 	C 	0.32135	0.7015	0.05973	0.172
Mof_C 	C 	0.38662	0.8404	0.12471	0.161
Mof_C 	C 	0.13568	0.5975	0.10908	0.163
Mof_C 	C 	0.06523	0.5923	0.17179	0.16
Mof_C 	C 	0.27826	0.4224	0.8838	0.141
Mof_C 	C 	0.34342	0.4174	0.81572	0.118
Mof_N 	N 	0.8496	0.39	0.8882	-1.252
_end
