data_functionalizedCrystal
_audit_creation_method	'EQeq! by Chris Wilmer'
_symmetry_space_group_name_H-M	'P1'
_symmetry_Int_Tables_number	1
_symmetry_cell_setting	triclinic
loop_
_symmetry_equiv_pos_as_xyz
  x,y,z
_cell_length_a	13.136
_cell_length_b	14.0807
_cell_length_c	14.0807
_cell_angle_alpha	77.433
_cell_angle_beta	62.1955
_cell_angle_gamma	62.1956
loop_
_atom_site_label
_atom_site_type_symbol
_atom_site_fract_x
_atom_site_fract_y
_atom_site_fract_z
_atom_site_charge
Mof_Cu	Cu	0.3843	0.25	0.7314	0.812
Mof_Cu	Cu	0.8657	0.25	0.7686	0.801
Mof_Cu	Cu	0.6157	0.2686	0.75	0.813
Mof_Cu	Cu	0.1343	0.2314	0.75	0.816
Mof_Cu	Cu	0.6157	0.75	0.2686	0.813
Mof_Cu	Cu	0.1343	0.75	0.2314	0.816
Mof_Cu	Cu	0.3843	0.7314	0.25	0.813
Mof_Cu	Cu	0.8657	0.7686	0.25	0.802
Mof_H 	H 	0.3555	0.342	0.4948	0.104
Mof_H 	H 	0.2577	0.3828	0.6108	0.07
Mof_H 	H 	0.6923	0.158	0.0052	0.116
Mof_H 	H 	0.7513	0.1172	0.8892	0.081
Mof_H 	H 	0.3503	0.5052	0.842	0.105
Mof_H 	H 	0.3685	0.3892	0.8828	0.069
Mof_H 	H 	0.1975	0.9948	0.658	0.107
Mof_H 	H 	0.1405	0.1108	0.6172	0.076
Mof_H 	H 	0.3077	0.9948	0.842	0.08
Mof_H 	H 	0.2487	0.1108	0.8828	0.048
Mof_H 	H 	0.6445	0.5052	0.658	0.109
Mof_H 	H 	0.7423	0.3892	0.6172	0.071
Mof_H 	H 	0.8025	0.342	0.0052	0.099
Mof_H 	H 	0.8595	0.3828	0.8892	0.058
Mof_H 	H 	0.6497	0.158	0.4948	0.106
Mof_H 	H 	0.6315	0.1172	0.6108	0.073
Mof_H 	H 	0.6445	0.658	0.5052	0.109
Mof_H 	H 	0.7423	0.6172	0.3892	0.071
Mof_H 	H 	0.3077	0.842	0.9948	0.08
Mof_H 	H 	0.2487	0.8828	0.1108	0.048
Mof_H 	H 	0.6497	0.4948	0.158	0.106
Mof_H 	H 	0.6315	0.6108	0.1172	0.073
Mof_H 	H 	0.8025	0.0052	0.342	0.099
Mof_H 	H 	0.8595	0.8892	0.3828	0.058
Mof_H 	H 	0.6923	0.0052	0.158	0.116
Mof_H 	H 	0.7513	0.8892	0.1172	0.081
Mof_H 	H 	0.3555	0.4948	0.342	0.104
Mof_H 	H 	0.2577	0.6108	0.3828	0.07
Mof_H 	H 	0.1975	0.658	0.9948	0.107
Mof_H 	H 	0.1405	0.6172	0.1108	0.076
Mof_H 	H 	0.3503	0.842	0.5052	0.105
Mof_H 	H 	0.3685	0.8828	0.3892	0.069
Mof_H 	H 	0.1843	0.4813	0.4813	0.021
Mof_H 	H 	0.1843	0.5518	0.5518	0.019
Mof_H 	H 	0.6469	0.0187	0.0187	0.003
Mof_H 	H 	0.7879	0.9482	0.9482	-0.006
Mof_H 	H 	0.1656	0.5187	0.9813	0.029
Mof_H 	H 	0.2361	0.4482	0.0518	0.022
Mof_H 	H 	0.1656	0.9813	0.5187	0.029
Mof_H 	H 	0.2361	0.0518	0.4482	0.022
Mof_H 	H 	0.3531	0.9813	0.9813	0.045
Mof_H 	H 	0.2121	0.0518	0.0518	0.047
Mof_H 	H 	0.8157	0.5187	0.5187	-0.004
Mof_H 	H 	0.8157	0.4482	0.4482	-0.004
Mof_H 	H 	0.8344	0.4813	0.0187	0.005
Mof_H 	H 	0.7639	0.5518	0.9482	0.004
Mof_H 	H 	0.8344	0.0187	0.4813	0.005
Mof_H 	H 	0.7639	0.9482	0.5518	0.004
Mof_C 	C 	0.4112	0.4156	0.558	0.118
Mof_C 	C 	0.3131	0.4008	0.5432	-0.279
Mof_C 	C 	0.8848	0.0844	0.942	0.145
Mof_C 	C 	0.7571	0.0992	0.9568	-0.319
Mof_C 	C 	0.4692	0.442	0.9156	0.118
Mof_C 	C 	0.3563	0.4568	0.9008	-0.276
Mof_C 	C 	0.3268	0.058	0.5844	0.121
Mof_C 	C 	0.2139	0.0432	0.5992	-0.274
Mof_C 	C 	0.1152	0.058	0.9156	0.089
Mof_C 	C 	0.2429	0.0432	0.9008	-0.204
Mof_C 	C 	0.5888	0.442	0.5844	0.125
Mof_C 	C 	0.6869	0.4568	0.5992	-0.301
Mof_C 	C 	0.6732	0.4156	0.942	0.115
Mof_C 	C 	0.7861	0.4008	0.9568	-0.281
Mof_C 	C 	0.5308	0.0844	0.558	0.12
Mof_C 	C 	0.6437	0.0992	0.5432	-0.29
Mof_C 	C 	0.5888	0.5844	0.442	0.125
Mof_C 	C 	0.6869	0.5992	0.4568	-0.301
Mof_C 	C 	0.1152	0.9156	0.058	0.089
Mof_C 	C 	0.2429	0.9008	0.0432	-0.204
Mof_C 	C 	0.5308	0.558	0.0844	0.12
Mof_C 	C 	0.6437	0.5432	0.0992	-0.29
Mof_C 	C 	0.6732	0.942	0.4156	0.115
Mof_C 	C 	0.7861	0.9568	0.4008	-0.281
Mof_C 	C 	0.8848	0.942	0.0844	0.145
Mof_C 	C 	0.7571	0.9568	0.0992	-0.319
Mof_C 	C 	0.4112	0.558	0.4156	0.118
Mof_C 	C 	0.3131	0.5432	0.4008	-0.279
Mof_C 	C 	0.3268	0.5844	0.058	0.121
Mof_C 	C 	0.2139	0.5992	0.0432	-0.274
Mof_C 	C 	0.4692	0.9156	0.442	0.118
Mof_C 	C 	0.3563	0.9008	0.4568	-0.276
Mof_C 	C 	0.4559	0.4927	0.4927	-0.055
Mof_C 	C 	0.2382	0.4973	0.4973	0.088
Mof_C 	C 	0.9413	0.0073	0.0073	-0.131
Mof_C 	C 	0.7328	0.0027	0.0027	0.135
Mof_C 	C 	0.4486	0.5073	0.9927	-0.06
Mof_C 	C 	0.2355	0.5027	0.9973	0.078
Mof_C 	C 	0.4486	0.9927	0.5073	-0.06
Mof_C 	C 	0.2355	0.9973	0.5027	0.078
Mof_C 	C 	0.0587	0.9927	0.9927	0.013
Mof_C 	C 	0.2672	0.9973	0.9973	-0.003
Mof_C 	C 	0.5441	0.5073	0.5073	-0.062
Mof_C 	C 	0.7618	0.5027	0.5027	0.12
Mof_C 	C 	0.5514	0.4927	0.0073	-0.055
Mof_C 	C 	0.7645	0.4973	0.0027	0.103
Mof_C 	C 	0.5514	0.0073	0.4927	-0.055
Mof_C 	C 	0.7645	0.0027	0.4973	0.103
Mof_I 	I 	0.5	0.14406	0.85594	-0.46
Mof_I 	I 	2.36119e-17	0.35594	0.64406	-0.416
Mof_I 	I 	0.85594	0.14406	0.64406	-0.491
Mof_I 	I 	0.14406	0.35594	0.85594	-0.437
Mof_I 	I 	0.5	0.85594	0.14406	-0.46
Mof_I 	I 	8.5075e-18	0.64406	0.35594	-0.416
Mof_I 	I 	0.14406	0.85594	0.35594	-0.437
Mof_I 	I 	0.85594	0.64406	0.14406	-0.491
Mof_N 	N 	0.4542	0.3575	0.6291	-0.222
Mof_N 	N 	0.9408	0.1425	0.8709	-0.247
Mof_N 	N 	0.5833	0.3709	0.8575	-0.222
Mof_N 	N 	0.3117	0.1291	0.6425	-0.222
Mof_N 	N 	0.0592	0.1291	0.8575	-0.196
Mof_N 	N 	0.5458	0.3709	0.6425	-0.223
Mof_N 	N 	0.6883	0.3575	0.8709	-0.223
Mof_N 	N 	0.4167	0.1425	0.6291	-0.222
Mof_N 	N 	0.5458	0.6425	0.3709	-0.223
Mof_N 	N 	0.0592	0.8575	0.1291	-0.196
Mof_N 	N 	0.4167	0.6291	0.1425	-0.222
Mof_N 	N 	0.6883	0.8709	0.3575	-0.223
Mof_N 	N 	0.9408	0.8709	0.1425	-0.247
Mof_N 	N 	0.4542	0.6291	0.3575	-0.222
Mof_N 	N 	0.3117	0.6425	0.1291	-0.222
Mof_N 	N 	0.5833	0.8575	0.3709	-0.222
_end
