data_functionalizedCrystal
_audit_creation_method	'EQeq! by Chris Wilmer'
_symmetry_space_group_name_H-M	'P1'
_symmetry_Int_Tables_number	1
_symmetry_cell_setting	triclinic
loop_
_symmetry_equiv_pos_as_xyz
  x,y,z
_cell_length_a	13.699
_cell_length_b	21.594
_cell_length_c	22.22
_cell_angle_alpha	90
_cell_angle_beta	90
_cell_angle_gamma	90
loop_
_atom_site_label
_atom_site_type_symbol
_atom_site_fract_x
_atom_site_fract_y
_atom_site_fract_z
_atom_site_charge
Mof_Co	Co	0.22567	0.15281	0.86502	1.131
Mof_Co	Co	0.26815	0.34595	0.63188	1.133
Mof_Co	Co	0.27433	0.84719	0.36502	1.131
Mof_Co	Co	0.23185	0.65405	0.13188	1.133
Mof_Co	Co	0.77433	0.65281	0.63498	1.131
Mof_Co	Co	0.73185	0.84595	0.86812	1.133
Mof_Co	Co	0.72567	0.34719	0.13498	1.131
Mof_Co	Co	0.76815	0.15405	0.36812	1.133
Mof_H 	H 	0.4257	0.211	0.8355	0.14
Mof_H 	H 	0.7115	0.2076	0.1048	0.119
Mof_H 	H 	0.0354	0.1818	0.7907	0.113
Mof_H 	H 	0.7775	0.899	0.7428	0.125
Mof_H 	H 	0.0703	0.2882	0.6698	0.12
Mof_H 	H 	0.8014	0.2954	0.3934	0.136
Mof_H 	H 	0.546	0.8211	0.7927	0.133
Mof_H 	H 	0.2942	0.1049	0.7386	0.142
Mof_H 	H 	0.5963	0.2409	0.8352	0.221
Mof_H 	H 	0.6195	0.2844	0.8898	0.22
Mof_H 	H 	0.6523	0.2148	0.8913	0.209
Mof_H 	H 	0.2512	0.1852	0.0056	0.229
Mof_H 	H 	0.3411	0.1635	0.0439	0.232
Mof_H 	H 	0.3124	0.2337	0.0422	0.229
Mof_H 	H 	0.5057	0.3689	0.0858	0.229
Mof_H 	H 	0.4868	0.3594	0.0169	0.235
Mof_H 	H 	0.4189	0.3272	0.0642	0.225
Mof_H 	H 	0.7033	0.1161	0.0415	0.226
Mof_H 	H 	0.5962	0.102	0.0208	0.222
Mof_H 	H 	0.6697	0.1334	0.9762	0.215
Mof_H 	H 	0.2101	0.0116	0.8372	0.218
Mof_H 	H 	0.1204	0.9735	0.8606	0.211
Mof_H 	H 	0.1507	0.9697	0.7927	0.223
Mof_H 	H 	0.8681	0.1794	0.7631	0.211
Mof_H 	H 	0.8397	0.1183	0.7292	0.211
Mof_H 	H 	0.8117	0.1268	0.7971	0.21
Mof_H 	H 	0.9105	0.9177	0.9266	0.221
Mof_H 	H 	0.0074	0.9471	0.9023	0.22
Mof_H 	H 	0.9211	0.9899	0.9228	0.227
Mof_H 	H 	0.808	0.9674	0.6616	0.245
Mof_H 	H 	0.8258	0.0352	0.6842	0.236
Mof_H 	H 	0.9142	0.9945	0.6632	0.243
Mof_H 	H 	0.9007	0.2661	0.6719	0.219
Mof_H 	H 	0.8478	0.2941	0.6155	0.213
Mof_H 	H 	0.8675	0.2226	0.6192	0.221
Mof_H 	H 	0.2467	0.2947	0.5001	0.239
Mof_H 	H 	0.1802	0.2462	0.4674	0.239
Mof_H 	H 	0.1593	0.3172	0.4602	0.243
Mof_H 	H 	0.9755	0.1211	0.427	0.223
Mof_H 	H 	0.065	0.1579	0.4526	0.223
Mof_H 	H 	0.9845	0.1327	0.4965	0.228
Mof_H 	H 	0.8206	0.3879	0.4539	0.236
Mof_H 	H 	0.8453	0.3718	0.5209	0.225
Mof_H 	H 	0.928	0.3944	0.4774	0.236
Mof_H 	H 	0.7061	0.9892	0.8602	0.219
Mof_H 	H 	0.6524	0.0346	0.8163	0.228
Mof_H 	H 	0.6113	0.0236	0.8812	0.215
Mof_H 	H 	0.3815	0.8252	0.7529	0.226
Mof_H 	H 	0.3192	0.8768	0.7844	0.219
Mof_H 	H 	0.3626	0.8883	0.7201	0.22
Mof_H 	H 	0.3793	0.0747	0.9317	0.224
Mof_H 	H 	0.3908	0.0029	0.9241	0.225
Mof_H 	H 	0.4815	0.0464	0.9158	0.223
Mof_H 	H 	0.3548	0.0443	0.6569	0.258
Mof_H 	H 	0.4612	0.0212	0.6697	0.256
Mof_H 	H 	0.3731	0.9753	0.6755	0.247
Mof_H 	H 	0.0743	0.789	0.3355	0.14
Mof_H 	H 	0.7885	0.7924	0.6048	0.119
Mof_H 	H 	0.4646	0.8182	0.2907	0.113
Mof_H 	H 	0.7225	0.101	0.2428	0.125
Mof_H 	H 	0.4297	0.7118	0.1698	0.12
Mof_H 	H 	0.6986	0.7046	0.8934	0.136
Mof_H 	H 	0.954	0.1789	0.2927	0.133
Mof_H 	H 	0.2058	0.8951	0.2386	0.142
Mof_H 	H 	0.9037	0.7591	0.3352	0.22
Mof_H 	H 	0.8805	0.7156	0.3898	0.22
Mof_H 	H 	0.8477	0.7852	0.3913	0.208
Mof_H 	H 	0.2488	0.8148	0.5056	0.229
Mof_H 	H 	0.1589	0.8365	0.5439	0.232
Mof_H 	H 	0.1876	0.7663	0.5422	0.228
Mof_H 	H 	0.9943	0.6311	0.5858	0.228
Mof_H 	H 	0.0132	0.6406	0.5169	0.234
Mof_H 	H 	0.0811	0.6728	0.5642	0.224
Mof_H 	H 	0.7967	0.8839	0.5415	0.225
Mof_H 	H 	0.9038	0.898	0.5208	0.221
Mof_H 	H 	0.8303	0.8666	0.4762	0.214
Mof_H 	H 	0.2899	0.9884	0.3372	0.22
Mof_H 	H 	0.3796	0.0265	0.3606	0.213
Mof_H 	H 	0.3493	0.0303	0.2927	0.225
Mof_H 	H 	0.6319	0.8206	0.2631	0.211
Mof_H 	H 	0.6603	0.8817	0.2292	0.211
Mof_H 	H 	0.6883	0.8732	0.2971	0.21
Mof_H 	H 	0.5895	0.0823	0.4266	0.22
Mof_H 	H 	0.4926	0.0529	0.4023	0.218
Mof_H 	H 	0.5789	0.0101	0.4228	0.226
Mof_H 	H 	0.692	0.0326	0.1616	0.244
Mof_H 	H 	0.6742	0.9648	0.1842	0.234
Mof_H 	H 	0.5858	0.0055	0.1632	0.241
Mof_H 	H 	0.5993	0.7339	0.1719	0.219
Mof_H 	H 	0.6522	0.7059	0.1155	0.213
Mof_H 	H 	0.6325	0.7774	0.1192	0.221
Mof_H 	H 	0.2533	0.7053	0.0001	0.239
Mof_H 	H 	0.3198	0.7538	0.9674	0.239
Mof_H 	H 	0.3407	0.6828	0.9602	0.244
Mof_H 	H 	0.5245	0.8789	0.927	0.223
Mof_H 	H 	0.435	0.8421	0.9526	0.223
Mof_H 	H 	0.5155	0.8673	0.9965	0.228
Mof_H 	H 	0.6794	0.6121	0.9539	0.236
Mof_H 	H 	0.6547	0.6282	0.0209	0.224
Mof_H 	H 	0.572	0.6056	0.9774	0.236
Mof_H 	H 	0.7939	0.0108	0.3602	0.222
Mof_H 	H 	0.8476	0.9654	0.3163	0.23
Mof_H 	H 	0.8887	0.9764	0.3812	0.217
Mof_H 	H 	0.1185	0.1748	0.2529	0.226
Mof_H 	H 	0.1808	0.1232	0.2844	0.219
Mof_H 	H 	0.1374	0.1117	0.2201	0.221
Mof_H 	H 	0.1207	0.9253	0.4317	0.224
Mof_H 	H 	0.1092	0.9971	0.4241	0.225
Mof_H 	H 	0.0185	0.9536	0.4158	0.223
Mof_H 	H 	0.1452	0.9557	0.1569	0.257
Mof_H 	H 	0.0388	0.9788	0.1697	0.256
Mof_H 	H 	0.1269	0.0247	0.1755	0.246
Mof_H 	H 	0.5743	0.711	0.6645	0.14
Mof_H 	H 	0.2885	0.7076	0.3952	0.119
Mof_H 	H 	0.9646	0.6818	0.7093	0.113
Mof_H 	H 	0.2225	0.399	0.7572	0.125
Mof_H 	H 	0.9297	0.7882	0.8302	0.12
Mof_H 	H 	0.1986	0.7954	0.1066	0.136
Mof_H 	H 	0.454	0.3211	0.7073	0.133
Mof_H 	H 	0.7058	0.6049	0.7614	0.142
Mof_H 	H 	0.4037	0.7409	0.6648	0.221
Mof_H 	H 	0.3805	0.7844	0.6102	0.22
Mof_H 	H 	0.3477	0.7148	0.6087	0.209
Mof_H 	H 	0.7488	0.6852	0.4944	0.229
Mof_H 	H 	0.6589	0.6635	0.4561	0.232
Mof_H 	H 	0.6876	0.7337	0.4578	0.228
Mof_H 	H 	0.4943	0.8689	0.4142	0.229
Mof_H 	H 	0.5132	0.8594	0.4831	0.235
Mof_H 	H 	0.5811	0.8272	0.4358	0.225
Mof_H 	H 	0.2967	0.6161	0.4585	0.225
Mof_H 	H 	0.4038	0.602	0.4792	0.222
Mof_H 	H 	0.3303	0.6334	0.5238	0.214
Mof_H 	H 	0.7899	0.5116	0.6628	0.219
Mof_H 	H 	0.8796	0.4735	0.6394	0.212
Mof_H 	H 	0.8493	0.4697	0.7073	0.224
Mof_H 	H 	0.1319	0.6794	0.7369	0.212
Mof_H 	H 	0.1603	0.6183	0.7708	0.212
Mof_H 	H 	0.1883	0.6268	0.7029	0.211
Mof_H 	H 	0.0895	0.4177	0.5734	0.22
Mof_H 	H 	0.9926	0.4471	0.5977	0.218
Mof_H 	H 	0.0789	0.4899	0.5772	0.226
Mof_H 	H 	0.192	0.4674	0.8384	0.244
Mof_H 	H 	0.1742	0.5352	0.8158	0.234
Mof_H 	H 	0.0858	0.4945	0.8368	0.242
Mof_H 	H 	0.0993	0.7661	0.8281	0.219
Mof_H 	H 	0.1522	0.7941	0.8845	0.214
Mof_H 	H 	0.1325	0.7226	0.8808	0.221
Mof_H 	H 	0.7533	0.7947	0.9999	0.24
Mof_H 	H 	0.8198	0.7462	0.0326	0.24
Mof_H 	H 	0.8407	0.8172	0.0398	0.244
Mof_H 	H 	0.0245	0.6211	0.073	0.222
Mof_H 	H 	0.935	0.6579	0.0474	0.221
Mof_H 	H 	0.0155	0.6327	0.0035	0.227
Mof_H 	H 	0.1794	0.8879	0.0461	0.236
Mof_H 	H 	0.1547	0.8718	0.9791	0.224
Mof_H 	H 	0.072	0.8944	0.0226	0.236
Mof_H 	H 	0.2939	0.4892	0.6398	0.22
Mof_H 	H 	0.3476	0.5346	0.6837	0.229
Mof_H 	H 	0.3887	0.5236	0.6188	0.216
Mof_H 	H 	0.6185	0.3252	0.7471	0.226
Mof_H 	H 	0.6808	0.3768	0.7156	0.219
Mof_H 	H 	0.6374	0.3883	0.7799	0.22
Mof_H 	H 	0.6207	0.5747	0.5683	0.224
Mof_H 	H 	0.6092	0.5029	0.5759	0.225
Mof_H 	H 	0.5185	0.5464	0.5842	0.223
Mof_H 	H 	0.6452	0.5443	0.8431	0.258
Mof_H 	H 	0.5388	0.5212	0.8303	0.256
Mof_H 	H 	0.6269	0.4753	0.8245	0.247
Mof_H 	H 	0.9257	0.289	0.1645	0.14
Mof_H 	H 	0.2115	0.2924	0.8952	0.119
Mof_H 	H 	0.5354	0.3182	0.2093	0.113
Mof_H 	H 	0.2775	0.601	0.2572	0.125
Mof_H 	H 	0.5703	0.2118	0.3302	0.12
Mof_H 	H 	0.3014	0.2046	0.6066	0.136
Mof_H 	H 	0.046	0.6789	0.2073	0.134
Mof_H 	H 	0.7942	0.3951	0.2614	0.142
Mof_H 	H 	0.0963	0.2591	0.1648	0.222
Mof_H 	H 	0.1195	0.2156	0.1102	0.221
Mof_H 	H 	0.1523	0.2852	0.1087	0.21
Mof_H 	H 	0.7512	0.3148	0.9944	0.229
Mof_H 	H 	0.8411	0.3365	0.9561	0.232
Mof_H 	H 	0.8124	0.2663	0.9578	0.228
Mof_H 	H 	0.0057	0.1311	0.9142	0.227
Mof_H 	H 	0.9868	0.1406	0.9831	0.234
Mof_H 	H 	0.9189	0.1728	0.9358	0.223
Mof_H 	H 	0.2033	0.3839	0.9585	0.225
Mof_H 	H 	0.0962	0.398	0.9792	0.221
Mof_H 	H 	0.1697	0.3666	0.0238	0.214
Mof_H 	H 	0.7101	0.4884	0.1628	0.219
Mof_H 	H 	0.6204	0.5265	0.1394	0.212
Mof_H 	H 	0.6507	0.5303	0.2073	0.224
Mof_H 	H 	0.3681	0.3206	0.2369	0.211
Mof_H 	H 	0.3397	0.3817	0.2708	0.211
Mof_H 	H 	0.3117	0.3732	0.2029	0.21
Mof_H 	H 	0.4105	0.5823	0.0734	0.22
Mof_H 	H 	0.5074	0.5529	0.0977	0.219
Mof_H 	H 	0.4211	0.5101	0.0772	0.226
Mof_H 	H 	0.308	0.5326	0.3384	0.244
Mof_H 	H 	0.3258	0.4648	0.3158	0.234
Mof_H 	H 	0.4142	0.5055	0.3368	0.242
Mof_H 	H 	0.4007	0.2339	0.3281	0.219
Mof_H 	H 	0.3478	0.2059	0.3845	0.213
Mof_H 	H 	0.3675	0.2774	0.3808	0.221
Mof_H 	H 	0.7467	0.2053	0.4999	0.239
Mof_H 	H 	0.6802	0.2538	0.5326	0.239
Mof_H 	H 	0.6593	0.1828	0.5398	0.243
Mof_H 	H 	0.4755	0.3789	0.573	0.223
Mof_H 	H 	0.565	0.3421	0.5474	0.224
Mof_H 	H 	0.4845	0.3673	0.5035	0.228
Mof_H 	H 	0.3206	0.1121	0.5461	0.236
Mof_H 	H 	0.3453	0.1282	0.4791	0.225
Mof_H 	H 	0.428	0.1056	0.5226	0.236
Mof_H 	H 	0.2061	0.5108	0.1398	0.221
Mof_H 	H 	0.1524	0.4654	0.1837	0.229
Mof_H 	H 	0.1113	0.4764	0.1188	0.217
Mof_H 	H 	0.8815	0.6748	0.2471	0.225
Mof_H 	H 	0.8192	0.6232	0.2156	0.219
Mof_H 	H 	0.8626	0.6117	0.2799	0.22
Mof_H 	H 	0.8793	0.4253	0.0683	0.223
Mof_H 	H 	0.8908	0.4971	0.0759	0.225
Mof_H 	H 	0.9815	0.4536	0.0842	0.223
Mof_H 	H 	0.8548	0.4557	0.3431	0.257
Mof_H 	H 	0.9612	0.4788	0.3303	0.256
Mof_H 	H 	0.8731	0.5247	0.3245	0.247
Mof_C 	C 	0.38	0.2054	0.9666	0.252
Mof_C 	C 	0.48	0.2218	0.9668	-0.156
Mof_C 	C 	0.5068	0.2255	0.9068	0.254
Mof_C 	C 	0.6024	0.243	0.8782	-0.712
Mof_C 	C 	0.3155	0.1961	0.0192	-0.751
Mof_C 	C 	0.6181	0.1933	0.0394	0.247
Mof_C 	C 	0.5446	0.2323	0.0192	-0.157
Mof_C 	C 	0.5506	0.2845	0.0561	0.246
Mof_C 	C 	0.4846	0.34	0.0557	-0.737
Mof_C 	C 	0.6497	0.1305	0.0175	-0.72
Mof_C 	C 	0.9546	0.1071	0.7852	0.249
Mof_C 	C 	0.9811	0.0473	0.7964	-0.151
Mof_C 	C 	0.0803	0.0497	0.8131	0.235
Mof_C 	C 	0.1463	0.9963	0.8272	-0.711
Mof_C 	C 	0.8601	0.1354	0.767	-0.708
Mof_C 	C 	0.8644	0.9705	0.7457	0.271
Mof_C 	C 	0.9192	0.9919	0.7944	-0.162
Mof_C 	C 	0.8975	0.9503	0.8416	0.246
Mof_C 	C 	0.9377	0.9514	0.9038	-0.73
Mof_C 	C 	0.852	0.994	0.6831	-0.767
Mof_C 	C 	0.1164	0.2836	0.5402	0.27
Mof_C 	C 	0.0154	0.2715	0.5397	-0.171
Mof_C 	C 	0.9883	0.2718	0.5991	0.262
Mof_C 	C 	0.8926	0.2629	0.6291	-0.726
Mof_C 	C 	0.1813	0.2856	0.4874	-0.781
Mof_C 	C 	0.8886	0.3058	0.4628	0.265
Mof_C 	C 	0.9521	0.2618	0.487	-0.155
Mof_C 	C 	0.9414	0.2088	0.4507	0.243
Mof_C 	C 	0.9965	0.1499	0.4573	-0.73
Mof_C 	C 	0.8689	0.3706	0.4803	-0.756
Mof_C 	C 	0.4631	0.8949	0.7857	0.26
Mof_C 	C 	0.487	0.9556	0.8021	-0.149
Mof_C 	C 	0.5831	0.9523	0.8247	0.239
Mof_C 	C 	0.6436	0.0046	0.8476	-0.723
Mof_C 	C 	0.3738	0.869	0.7584	-0.734
Mof_C 	C 	0.3829	0.0346	0.7458	0.287
Mof_C 	C 	0.4236	0.0102	0.7976	-0.171
Mof_C 	C 	0.3896	0.0484	0.845	0.25
Mof_C 	C 	0.4123	0.0426	0.9099	-0.742
Mof_C 	C 	0.394	0.0173	0.6812	-0.797
Mof_C 	C 	0.2719	0.4294	0.5151	0.081
Mof_C 	C 	0.1709	0.0739	0.9814	0.071
Mof_C 	C 	0.12	0.7946	0.4666	0.251
Mof_C 	C 	0.02	0.7782	0.4668	-0.155
Mof_C 	C 	0.9932	0.7745	0.4068	0.252
Mof_C 	C 	0.8976	0.757	0.3782	-0.71
Mof_C 	C 	0.1845	0.8039	0.5192	-0.75
Mof_C 	C 	0.8819	0.8067	0.5394	0.246
Mof_C 	C 	0.9554	0.7677	0.5192	-0.157
Mof_C 	C 	0.9494	0.7155	0.5561	0.245
Mof_C 	C 	0.0154	0.66	0.5557	-0.734
Mof_C 	C 	0.8503	0.8695	0.5175	-0.716
Mof_C 	C 	0.5454	0.8929	0.2852	0.249
Mof_C 	C 	0.5189	0.9527	0.2964	-0.154
Mof_C 	C 	0.4197	0.9503	0.3131	0.238
Mof_C 	C 	0.3537	0.0037	0.3272	-0.717
Mof_C 	C 	0.6399	0.8646	0.267	-0.708
Mof_C 	C 	0.6356	0.0295	0.2457	0.269
Mof_C 	C 	0.5808	0.0081	0.2944	-0.16
Mof_C 	C 	0.6025	0.0497	0.3416	0.244
Mof_C 	C 	0.5623	0.0486	0.4038	-0.726
Mof_C 	C 	0.648	0.006	0.1831	-0.762
Mof_C 	C 	0.3836	0.7164	0.0402	0.27
Mof_C 	C 	0.4846	0.7285	0.0397	-0.171
Mof_C 	C 	0.5117	0.7282	0.0991	0.262
Mof_C 	C 	0.6074	0.7371	0.1291	-0.726
Mof_C 	C 	0.3187	0.7144	0.9874	-0.781
Mof_C 	C 	0.6114	0.6942	0.9628	0.264
Mof_C 	C 	0.5479	0.7382	0.987	-0.155
Mof_C 	C 	0.5586	0.7912	0.9507	0.243
Mof_C 	C 	0.5035	0.8501	0.9573	-0.731
Mof_C 	C 	0.6311	0.6294	0.9803	-0.754
Mof_C 	C 	0.0369	0.1051	0.2857	0.26
Mof_C 	C 	0.013	0.0444	0.3021	-0.151
Mof_C 	C 	0.9169	0.0477	0.3247	0.242
Mof_C 	C 	0.8564	0.9954	0.3476	-0.731
Mof_C 	C 	0.1262	0.131	0.2584	-0.735
Mof_C 	C 	0.1171	0.9654	0.2458	0.286
Mof_C 	C 	0.0764	0.9898	0.2976	-0.169
Mof_C 	C 	0.1104	0.9516	0.345	0.249
Mof_C 	C 	0.0877	0.9574	0.4099	-0.742
Mof_C 	C 	0.106	0.9827	0.1812	-0.794
Mof_C 	C 	0.2281	0.5706	0.0151	0.081
Mof_C 	C 	0.3291	0.9261	0.4814	0.071
Mof_C 	C 	0.62	0.7054	0.5334	0.252
Mof_C 	C 	0.52	0.7218	0.5332	-0.157
Mof_C 	C 	0.4932	0.7255	0.5932	0.254
Mof_C 	C 	0.3976	0.743	0.6218	-0.712
Mof_C 	C 	0.6845	0.6961	0.4808	-0.751
Mof_C 	C 	0.3819	0.6933	0.4606	0.246
Mof_C 	C 	0.4554	0.7323	0.4808	-0.156
Mof_C 	C 	0.4494	0.7845	0.4439	0.245
Mof_C 	C 	0.5154	0.84	0.4443	-0.737
Mof_C 	C 	0.3503	0.6305	0.4825	-0.717
Mof_C 	C 	0.0454	0.6071	0.7148	0.249
Mof_C 	C 	0.0189	0.5473	0.7036	-0.153
Mof_C 	C 	0.9197	0.5497	0.6869	0.237
Mof_C 	C 	0.8537	0.4963	0.6728	-0.715
Mof_C 	C 	0.1399	0.6354	0.733	-0.709
Mof_C 	C 	0.1356	0.4705	0.7543	0.269
Mof_C 	C 	0.0808	0.4919	0.7056	-0.16
Mof_C 	C 	0.1025	0.4503	0.6584	0.245
Mof_C 	C 	0.0623	0.4514	0.5962	-0.726
Mof_C 	C 	0.148	0.494	0.8169	-0.763
Mof_C 	C 	0.8836	0.7836	0.9598	0.272
Mof_C 	C 	0.9846	0.7715	0.9603	-0.172
Mof_C 	C 	0.0117	0.7718	0.9009	0.263
Mof_C 	C 	0.1074	0.7629	0.8709	-0.727
Mof_C 	C 	0.8187	0.7856	0.0126	-0.785
Mof_C 	C 	0.1114	0.8058	0.0372	0.264
Mof_C 	C 	0.0479	0.7618	0.013	-0.154
Mof_C 	C 	0.0586	0.7088	0.0493	0.242
Mof_C 	C 	0.0035	0.6499	0.0427	-0.726
Mof_C 	C 	0.1311	0.8706	0.0197	-0.754
Mof_C 	C 	0.5369	0.3949	0.7143	0.26
Mof_C 	C 	0.513	0.4556	0.6979	-0.149
Mof_C 	C 	0.4169	0.4523	0.6753	0.24
Mof_C 	C 	0.3564	0.5046	0.6524	-0.726
Mof_C 	C 	0.6262	0.369	0.7416	-0.734
Mof_C 	C 	0.6171	0.5346	0.7542	0.287
Mof_C 	C 	0.5764	0.5102	0.7024	-0.171
Mof_C 	C 	0.6104	0.5484	0.655	0.25
Mof_C 	C 	0.5877	0.5426	0.5901	-0.742
Mof_C 	C 	0.606	0.5173	0.8188	-0.797
Mof_C 	C 	0.7281	0.9294	0.9849	0.081
Mof_C 	C 	0.8291	0.5739	0.5186	0.071
Mof_C 	C 	0.88	0.2946	0.0334	0.252
Mof_C 	C 	0.98	0.2782	0.0332	-0.158
Mof_C 	C 	0.0068	0.2745	0.0932	0.255
Mof_C 	C 	0.1024	0.257	0.1218	-0.713
Mof_C 	C 	0.8155	0.3039	0.9808	-0.75
Mof_C 	C 	0.1181	0.3067	0.9606	0.246
Mof_C 	C 	0.0446	0.2677	0.9808	-0.155
Mof_C 	C 	0.0506	0.2155	0.9439	0.243
Mof_C 	C 	0.9846	0.16	0.9443	-0.731
Mof_C 	C 	0.1497	0.3695	0.9825	-0.717
Mof_C 	C 	0.4546	0.3929	0.2148	0.249
Mof_C 	C 	0.4811	0.4527	0.2036	-0.153
Mof_C 	C 	0.5803	0.4503	0.1869	0.238
Mof_C 	C 	0.6463	0.5037	0.1728	-0.715
Mof_C 	C 	0.3601	0.3646	0.233	-0.708
Mof_C 	C 	0.3644	0.5295	0.2543	0.269
Mof_C 	C 	0.4192	0.5081	0.2056	-0.16
Mof_C 	C 	0.3975	0.5497	0.1584	0.245
Mof_C 	C 	0.4377	0.5486	0.0962	-0.727
Mof_C 	C 	0.352	0.506	0.3169	-0.763
Mof_C 	C 	0.6164	0.2164	0.4598	0.27
Mof_C 	C 	0.5154	0.2285	0.4603	-0.17
Mof_C 	C 	0.4883	0.2282	0.4009	0.262
Mof_C 	C 	0.3926	0.2371	0.3709	-0.726
Mof_C 	C 	0.6813	0.2144	0.5126	-0.78
Mof_C 	C 	0.3886	0.1942	0.5372	0.265
Mof_C 	C 	0.4521	0.2382	0.513	-0.156
Mof_C 	C 	0.4414	0.2912	0.5493	0.243
Mof_C 	C 	0.4965	0.3501	0.5427	-0.731
Mof_C 	C 	0.3689	0.1294	0.5197	-0.756
Mof_C 	C 	0.9631	0.6051	0.2143	0.259
Mof_C 	C 	0.987	0.5444	0.1979	-0.15
Mof_C 	C 	0.0831	0.5477	0.1753	0.241
Mof_C 	C 	0.1436	0.4954	0.1524	-0.727
Mof_C 	C 	0.8738	0.631	0.2416	-0.734
Mof_C 	C 	0.8829	0.4654	0.2542	0.287
Mof_C 	C 	0.9236	0.4898	0.2024	-0.17
Mof_C 	C 	0.8896	0.4516	0.155	0.249
Mof_C 	C 	0.9123	0.4574	0.0901	-0.741
Mof_C 	C 	0.894	0.4827	0.3188	-0.796
Mof_C 	C 	0.7719	0.0706	0.4849	0.081
Mof_C 	C 	0.6709	0.4261	0.0186	0.071
Mof_S 	S 	0.28745	0.23539	0.73823	0.707
Mof_S 	S 	0.1331	0.04386	0.04411	-0.162
Mof_S 	S 	0.2616	0.4703	0.45331	-0.163
Mof_S 	S 	0.21255	0.76461	0.23823	0.706
Mof_S 	S 	0.3669	0.95614	0.54411	-0.162
Mof_S 	S 	0.2384	0.5297	0.95331	-0.163
Mof_S 	S 	0.71255	0.73539	0.76177	0.707
Mof_S 	S 	0.8669	0.54386	0.45589	-0.162
Mof_S 	S 	0.7384	0.9703	0.04669	-0.164
Mof_S 	S 	0.78745	0.26461	0.26177	0.707
Mof_S 	S 	0.6331	0.45614	0.95589	-0.161
Mof_S 	S 	0.7616	0.0297	0.54669	-0.163
Mof_N 	N 	0.3482	0.1988	0.9097	-0.226
Mof_N 	N 	0.427	0.2117	0.8741	-0.221
Mof_N 	N 	0.6224	0.2791	0.096	-0.219
Mof_N 	N 	0.663	0.2226	0.085	-0.216
Mof_N 	N 	0.1119	0.1083	0.813	-0.225
Mof_N 	N 	0.0342	0.1423	0.7952	-0.214
Mof_N 	N 	0.8363	0.9071	0.8232	-0.224
Mof_N 	N 	0.8164	0.9204	0.7649	-0.22
Mof_N 	N 	0.1485	0.2919	0.5959	-0.232
Mof_N 	N 	0.0693	0.2848	0.6313	-0.215
Mof_N 	N 	0.8441	0.2776	0.4159	-0.223
Mof_N 	N 	0.874	0.2182	0.4082	-0.225
Mof_N 	N 	0.5423	0.8604	0.7989	-0.218
Mof_N 	N 	0.6143	0.8939	0.8226	-0.225
Mof_N 	N 	0.3306	0.0923	0.8235	-0.234
Mof_N 	N 	0.3278	0.0826	0.7631	-0.228
Mof_N 	N 	0.1985	0.0951	0.9367	-0.284
Mof_N 	N 	0.2757	0.4019	0.5582	-0.292
Mof_N 	N 	0.1518	0.8012	0.4097	-0.226
Mof_N 	N 	0.073	0.7883	0.3741	-0.22
Mof_N 	N 	0.8776	0.7209	0.596	-0.219
Mof_N 	N 	0.837	0.7774	0.585	-0.215
Mof_N 	N 	0.3881	0.8917	0.313	-0.225
Mof_N 	N 	0.4658	0.8577	0.2952	-0.214
Mof_N 	N 	0.6637	0.0929	0.3232	-0.223
Mof_N 	N 	0.6836	0.0796	0.2649	-0.219
Mof_N 	N 	0.3515	0.7081	0.0959	-0.232
Mof_N 	N 	0.4307	0.7152	0.1313	-0.215
Mof_N 	N 	0.6559	0.7224	0.9159	-0.223
Mof_N 	N 	0.626	0.7818	0.9082	-0.225
Mof_N 	N 	0.9577	0.1396	0.2989	-0.218
Mof_N 	N 	0.8857	0.1061	0.3226	-0.226
Mof_N 	N 	0.1694	0.9077	0.3235	-0.234
Mof_N 	N 	0.1722	0.9174	0.2631	-0.227
Mof_N 	N 	0.3015	0.9049	0.4367	-0.284
Mof_N 	N 	0.2243	0.5981	0.0582	-0.292
Mof_N 	N 	0.6518	0.6988	0.5903	-0.226
Mof_N 	N 	0.573	0.7117	0.6259	-0.221
Mof_N 	N 	0.3776	0.7791	0.404	-0.219
Mof_N 	N 	0.337	0.7226	0.415	-0.215
Mof_N 	N 	0.8881	0.6083	0.687	-0.225
Mof_N 	N 	0.9658	0.6423	0.7048	-0.214
Mof_N 	N 	0.1637	0.4071	0.6768	-0.223
Mof_N 	N 	0.1836	0.4204	0.7351	-0.219
Mof_N 	N 	0.8515	0.7919	0.9041	-0.232
Mof_N 	N 	0.9307	0.7848	0.8687	-0.215
Mof_N 	N 	0.1559	0.7776	0.0841	-0.223
Mof_N 	N 	0.126	0.7182	0.0918	-0.225
Mof_N 	N 	0.4577	0.3604	0.7011	-0.218
Mof_N 	N 	0.3857	0.3939	0.6774	-0.226
Mof_N 	N 	0.6694	0.5923	0.6765	-0.234
Mof_N 	N 	0.6722	0.5826	0.7369	-0.228
Mof_N 	N 	0.8015	0.5951	0.5633	-0.284
Mof_N 	N 	0.7243	0.9019	0.9418	-0.292
Mof_N 	N 	0.8482	0.3012	0.0903	-0.226
Mof_N 	N 	0.927	0.2883	0.1259	-0.221
Mof_N 	N 	0.1224	0.2209	0.904	-0.219
Mof_N 	N 	0.163	0.2774	0.915	-0.215
Mof_N 	N 	0.6119	0.3917	0.187	-0.225
Mof_N 	N 	0.5342	0.3577	0.2048	-0.214
Mof_N 	N 	0.3363	0.5929	0.1768	-0.223
Mof_N 	N 	0.3164	0.5796	0.2351	-0.219
Mof_N 	N 	0.6485	0.2081	0.4041	-0.232
Mof_N 	N 	0.5693	0.2152	0.3687	-0.215
Mof_N 	N 	0.3441	0.2224	0.5841	-0.223
Mof_N 	N 	0.374	0.2818	0.5918	-0.225
Mof_N 	N 	0.0423	0.6396	0.2011	-0.218
Mof_N 	N 	0.1143	0.6061	0.1774	-0.226
Mof_N 	N 	0.8306	0.4077	0.1765	-0.234
Mof_N 	N 	0.8278	0.4174	0.2369	-0.228
Mof_N 	N 	0.6985	0.4049	0.0633	-0.284
Mof_N 	N 	0.7757	0.0981	0.4418	-0.292
Mof_O 	O 	0.2501	0.29428	0.71405	-0.432
Mof_O 	O 	0.2356	0.22362	0.79592	-0.426
Mof_O 	O 	0.2678	0.18481	0.69612	-0.342
Mof_O 	O 	0.3925	0.2419	0.75007	-0.338
Mof_O 	O 	0.2499	0.70572	0.21405	-0.432
Mof_O 	O 	0.2644	0.77638	0.29592	-0.426
Mof_O 	O 	0.2322	0.81519	0.19612	-0.342
Mof_O 	O 	0.1075	0.7581	0.25007	-0.338
Mof_O 	O 	0.7499	0.79428	0.78595	-0.432
Mof_O 	O 	0.7644	0.72362	0.70408	-0.426
Mof_O 	O 	0.7322	0.68481	0.80388	-0.342
Mof_O 	O 	0.6075	0.7419	0.74993	-0.338
Mof_O 	O 	0.7501	0.20572	0.28595	-0.432
Mof_O 	O 	0.7356	0.27638	0.20408	-0.426
Mof_O 	O 	0.7678	0.31519	0.30388	-0.342
Mof_O 	O 	0.8925	0.2581	0.24993	-0.338
_end
