data_functionalizedCrystal
_audit_creation_method	'EQeq! by Chris Wilmer'
_symmetry_space_group_name_H-M	'P1'
_symmetry_Int_Tables_number	1
_symmetry_cell_setting	triclinic
loop_
_symmetry_equiv_pos_as_xyz
  x,y,z
_cell_length_a	14.868
_cell_length_b	14.943
_cell_length_c	22.117
_cell_angle_alpha	88.543
_cell_angle_beta	86.822
_cell_angle_gamma	75.615
loop_
_atom_site_label
_atom_site_type_symbol
_atom_site_fract_x
_atom_site_fract_y
_atom_site_fract_z
_atom_site_charge
Mof_Co	Co	0.2223	0.7488	0.5203	1.081
Mof_Co	Co	0.7777	0.2512	0.4797	1.082
Mof_Co	Co	0.5	0	-0	1.13
Mof_Co	Co	-0	0.5	-0	1.128
Mof_P 	P 	0.2817	0.3802	0.7258	0.558
Mof_P 	P 	0.2482	0.1238	0.7255	0.568
Mof_P 	P 	0.7183	0.6198	0.2742	0.558
Mof_P 	P 	0.7518	0.8762	0.2745	0.569
Mof_H 	H 	0.2179	0.4914	0.213	0.05
Mof_H 	H 	0.319	0.4904	0.1888	0.052
Mof_H 	H 	0.4349	0.8714	0.1111	-0.018
Mof_H 	H 	0.9182	0.5887	0.5676	0.018
Mof_H 	H 	0.8949	0.6141	0.6358	0.035
Mof_H 	H 	0.2729	0.0266	0.9984	0.054
Mof_H 	H 	0.6328	0.7801	0.0101	-0.073
Mof_H 	H 	0.1724	0.0458	0.3263	-0.001
Mof_H 	H 	0.0868	0.0115	0.3069	-0.001
Mof_H 	H 	0.7617	0.6602	0.5846	0.081
Mof_H 	H 	0.809	0.7159	0.5373	0.07
Mof_H 	H 	0.8062	0.7978	0.6463	0.026
Mof_H 	H 	0.6684	0.8956	0.6292	0.054
Mof_H 	H 	0.6817	0.8627	0.5619	0.053
Mof_H 	H 	0.2216	0.8461	0.1684	0.03
Mof_H 	H 	0.3168	0.8464	0.1957	0.025
Mof_H 	H 	0.2514	0.0113	0.2123	0.018
Mof_H 	H 	0.1546	0.992	0.2002	0.031
Mof_H 	H 	0.2713	0.9112	0.2945	0.056
Mof_H 	H 	0.1874	0.8722	0.2784	0.053
Mof_H 	H 	0.632	0.7432	0.6964	-0.01
Mof_H 	H 	0.4263	0.7431	0.5943	-0.042
Mof_H 	H 	0.2267	0.4814	0.9917	0.087
Mof_H 	H 	0.2866	0.6167	0.269	0.033
Mof_H 	H 	0.3471	0.5158	0.2778	0.048
Mof_H 	H 	0.1772	0.6516	0.1907	0.011
Mof_H 	H 	0.2753	0.6381	0.1574	0.028
Mof_H 	H 	0.1589	0.5718	0.3085	0.015
Mof_H 	H 	0.2211	0.472	0.3187	0.032
Mof_H 	H 	0.3541	0.5396	0.4893	-0.04
Mof_H 	H 	0.9299	0.8047	0.802	0.036
Mof_H 	H 	0.9253	0.7077	0.7782	0.038
Mof_H 	H 	0.7795	0.8231	0.7643	0.046
Mof_H 	H 	0.7663	0.834	0.835	0.075
Mof_H 	H 	0.7607	0.675	0.7698	0.05
Mof_H 	H 	0.7699	0.6699	0.8402	0.08
Mof_H 	H 	0.6099	0.6933	0.8119	0.03
Mof_H 	H 	0.6143	0.7913	0.7861	0.027
Mof_H 	H 	0.1574	0.683	0.3913	-0.027
Mof_H 	H 	0.0698	0.9427	0.5081	-0.011
Mof_H 	H 	0.2316	0.8238	0.3778	-0.034
Mof_H 	H 	0.8977	0.7243	0.0042	-0.062
Mof_H 	H 	0.0533	0.6401	0.5187	-0.031
Mof_H 	H 	0.084	0.8119	0.6393	0.016
Mof_H 	H 	0.9785	0.5795	0.8595	-0.014
Mof_H 	H 	0.5355	0.9118	0.8678	-0.004
Mof_H 	H 	0.0504	0.6024	0.1247	-0.015
Mof_H 	H 	0.7821	0.5086	0.787	0.056
Mof_H 	H 	0.681	0.5096	0.8112	0.058
Mof_H 	H 	0.5651	0.1286	0.8889	-0.016
Mof_H 	H 	0.0818	0.4113	0.4324	-0.003
Mof_H 	H 	0.1051	0.3859	0.3642	0.019
Mof_H 	H 	0.7271	0.9734	0.0016	-0.016
Mof_H 	H 	0.3672	0.2199	0.9899	0.049
Mof_H 	H 	0.8276	0.9542	0.6737	0.108
Mof_H 	H 	0.9132	0.9885	0.6931	0.121
Mof_H 	H 	0.2383	0.3398	0.4154	0.083
Mof_H 	H 	0.191	0.2841	0.4627	0.069
Mof_H 	H 	0.1938	0.2022	0.3537	0.026
Mof_H 	H 	0.3316	0.1044	0.3708	0.043
Mof_H 	H 	0.3183	0.1373	0.4381	0.045
Mof_H 	H 	0.7784	0.1539	0.8316	0.009
Mof_H 	H 	0.6832	0.1536	0.8043	-0.005
Mof_H 	H 	0.7486	0.9887	0.7877	0.114
Mof_H 	H 	0.8454	0.008	0.7998	0.097
Mof_H 	H 	0.7287	0.0888	0.7055	-0.014
Mof_H 	H 	0.8126	0.1278	0.7216	-0.005
Mof_H 	H 	0.368	0.2568	0.3036	-0.011
Mof_H 	H 	0.5737	0.2569	0.4057	-0.042
Mof_H 	H 	0.7733	0.5186	0.0083	-0.035
Mof_H 	H 	0.7134	0.3833	0.731	0.033
Mof_H 	H 	0.6529	0.4842	0.7222	0.044
Mof_H 	H 	0.8228	0.3484	0.8093	0.023
Mof_H 	H 	0.7247	0.3619	0.8426	0.036
Mof_H 	H 	0.8411	0.4282	0.6915	0.034
Mof_H 	H 	0.7789	0.528	0.6813	0.04
Mof_H 	H 	0.6459	0.4604	0.5107	-0.04
Mof_H 	H 	0.0701	0.1953	0.198	0.019
Mof_H 	H 	0.0747	0.2923	0.2218	0.024
Mof_H 	H 	0.2205	0.1769	0.2357	0.047
Mof_H 	H 	0.2337	0.166	0.165	0.072
Mof_H 	H 	0.2393	0.325	0.2302	0.047
Mof_H 	H 	0.2301	0.3301	0.1598	0.075
Mof_H 	H 	0.3901	0.3067	0.1881	0.028
Mof_H 	H 	0.3857	0.2087	0.2139	0.026
Mof_H 	H 	0.8426	0.317	0.6087	-0.014
Mof_H 	H 	0.9302	0.0573	0.4919	-0.008
Mof_H 	H 	0.7684	0.1762	0.6222	-0.024
Mof_H 	H 	0.1023	0.2757	0.9958	0.049
Mof_H 	H 	0.9467	0.3599	0.4813	-0.035
Mof_H 	H 	0.916	0.1881	0.3607	0.006
Mof_H 	H 	0.0215	0.4205	0.1405	-0.033
Mof_H 	H 	0.4645	0.0882	0.1322	-0.016
Mof_H 	H 	0.9496	0.3976	0.8753	0.009
Mof_W 	W 	0.40549	0.34027	0.58681	1.042
Mof_W 	W 	0.3386	0.88945	0.77041	1.034
Mof_W 	W 	0.12694	0.16183	0.86851	1.077
Mof_W 	W 	0.39981	0.32713	0.86121	1.061
Mof_W 	W 	0.35841	0.08817	0.86281	1.332
Mof_W 	W 	0.03958	0.46337	0.73072	1.034
Mof_W 	W 	0.42404	0.52438	0.76398	1.04
Mof_W 	W 	0.19035	0.60831	0.77949	1.022
Mof_W 	W 	0.10433	0.97361	0.77081	1.025
Mof_W 	W 	0.23105	0.93483	0.63845	1.317
Mof_W 	W 	0.29592	0.57558	0.64062	0.98
Mof_W 	W 	0.15003	0.41932	0.59471	1.018
Mof_W 	W 	0.00582	0.2209	0.72748	1.034
Mof_W 	W 	0.52336	0.28175	0.71262	1.053
Mof_W 	W 	0.16815	0.40022	0.86958	1.353
Mof_W 	W 	0.37681	0.09589	0.58832	1.032
Mof_W 	W 	0.49141	0.03884	0.71674	1.053
Mof_W 	W 	0.12146	0.17541	0.59333	1.049
Mof_W 	W 	0.59451	0.65973	0.41319	1.044
Mof_W 	W 	0.6614	0.11055	0.22959	1.019
Mof_W 	W 	0.87306	0.83817	0.13149	1.082
Mof_W 	W 	0.60019	0.67287	0.13879	1.047
Mof_W 	W 	0.64159	0.91183	0.13719	1.359
Mof_W 	W 	0.96042	0.53663	0.26928	1.071
Mof_W 	W 	0.57596	0.47562	0.23602	1.035
Mof_W 	W 	0.80965	0.39169	0.22051	1.033
Mof_W 	W 	0.89567	0.02639	0.22919	0.985
Mof_W 	W 	0.76895	0.06517	0.36155	1.281
Mof_W 	W 	0.70408	0.42442	0.35938	0.98
Mof_W 	W 	0.84997	0.58068	0.40529	1.029
Mof_W 	W 	0.99418	0.7791	0.27252	1.063
Mof_W 	W 	0.47664	0.71825	0.28738	1.049
Mof_W 	W 	0.83185	0.59978	0.13042	1.36
Mof_W 	W 	0.62319	0.90411	0.41168	1.064
Mof_W 	W 	0.50859	0.96116	0.28326	1.095
Mof_W 	W 	0.87854	0.82459	0.40667	1.069
Mof_C 	C 	0.263	0.528	0.2084	-0.116
Mof_C 	C 	0.382	0.907	0.0936	0.097
Mof_C 	C 	0.901	0.64	0.595	0.011
Mof_C 	C 	0.294	0.992	0.033	0.03
Mof_C 	C 	0.617	0.792	0.97	0.221
Mof_C 	C 	0.149	0.992	0.3223	0.051
Mof_C 	C 	0.806	0.698	0.5797	-0.174
Mof_C 	C 	0.771	0.783	0.6163	0.013
Mof_C 	C 	0.681	0.842	0.604	-0.105
Mof_C 	C 	0.264	0.884	0.175	-0.058
Mof_C 	C 	0.216	0.965	0.2142	-0.04
Mof_C 	C 	0.209	0.928	0.2793	-0.163
Mof_C 	C 	0.593	0.75	0.6644	0.098
Mof_C 	C 	0.481	0.752	0.6076	0.11
Mof_C 	C 	0.202	0.513	0.0268	-0.032
Mof_C 	C 	0.285	0.552	0.2693	-0.094
Mof_C 	C 	0.226	0.608	0.1686	-0.034
Mof_C 	C 	0.221	0.537	0.3175	-0.031
Mof_C 	C 	0.312	0.558	0.4589	0.06
Mof_C 	C 	0.9	0.754	0.8085	-0.04
Mof_C 	C 	0.792	0.791	0.803	-0.099
Mof_C 	C 	0.746	0.71	0.807	-0.108
Mof_C 	C 	0.638	0.744	0.8162	-0.033
Mof_C 	C 	0.205	0.637	0.4059	0.096
Mof_C 	C 	0.101	0.931	0.47	0.101
Mof_C 	C 	0.189	0.866	0.4017	0.094
Mof_C 	C 	0.917	0.708	0.964	0.176
Mof_C 	C 	0.044	0.678	0.5525	0.053
Mof_C 	C 	0.061	0.769	0.6184	0.059
Mof_C 	C 	0.956	0.628	0.8859	0.106
Mof_C 	C 	0.565	0.866	0.8942	0.086
Mof_C 	C 	0.103	0.583	0.0989	0.081
Mof_C 	C 	0.737	0.472	0.7916	-0.124
Mof_C 	C 	0.618	0.093	0.9064	0.102
Mof_C 	C 	0.099	0.36	0.405	0.029
Mof_C 	C 	0.706	0.008	0.967	0.129
Mof_C 	C 	0.383	0.208	0.03	0.032
Mof_C 	C 	0.851	0.008	0.6777	-0.222
Mof_C 	C 	0.194	0.302	0.4203	-0.183
Mof_C 	C 	0.229	0.217	0.3837	0.01
Mof_C 	C 	0.319	0.158	0.396	-0.098
Mof_C 	C 	0.736	0.116	0.825	0.049
Mof_C 	C 	0.784	0.035	0.7858	-0.27
Mof_C 	C 	0.791	0.072	0.7207	0.064
Mof_C 	C 	0.407	0.25	0.3356	0.097
Mof_C 	C 	0.519	0.248	0.3924	0.109
Mof_C 	C 	0.798	0.487	0.9732	0.146
Mof_C 	C 	0.715	0.448	0.7307	-0.08
Mof_C 	C 	0.774	0.392	0.8314	-0.032
Mof_C 	C 	0.779	0.463	0.6825	-0.045
Mof_C 	C 	0.688	0.442	0.5411	0.061
Mof_C 	C 	0.1	0.246	0.1915	-0.033
Mof_C 	C 	0.208	0.209	0.197	-0.104
Mof_C 	C 	0.254	0.29	0.193	-0.104
Mof_C 	C 	0.362	0.256	0.1838	-0.037
Mof_C 	C 	0.795	0.363	0.5941	0.096
Mof_C 	C 	0.899	0.069	0.53	0.104
Mof_C 	C 	0.811	0.134	0.5983	0.084
Mof_C 	C 	0.083	0.292	0.036	-0.004
Mof_C 	C 	0.956	0.322	0.4475	0.113
Mof_C 	C 	0.939	0.231	0.3816	0.115
Mof_C 	C 	0.044	0.372	0.1141	0.1
Mof_C 	C 	0.435	0.134	0.1058	0.084
Mof_C 	C 	0.897	0.417	0.9011	0.086
Mof_N 	N 	0.143	0.946	0.3833	-0.11
Mof_N 	N 	0.1	0.732	0.5661	-0.257
Mof_N 	N 	0.959	0.622	0.945	-0.233
Mof_N 	N 	0.242	0.64	0.4591	-0.281
Mof_N 	N 	0.385	0.956	0.0428	-0.229
Mof_N 	N 	0.562	0.872	0.9545	-0.242
Mof_N 	N 	0.297	0.916	0.116	-0.101
Mof_N 	N 	0.984	0.738	0.6384	-0.076
Mof_N 	N 	0.081	0.988	0.4259	-0.104
Mof_N 	N 	0.236	0.973	0.0778	-0.093
Mof_N 	N 	0.601	0.794	0.6144	-0.092
Mof_N 	N 	0.648	0.735	0.9304	-0.122
Mof_N 	N 	0.534	0.799	0.5777	-0.117
Mof_N 	N 	0.909	0.767	0.9162	-0.1
Mof_N 	N 	0.187	0.58	0.1101	-0.102
Mof_N 	N 	0.243	0.564	0.3772	-0.109
Mof_N 	N 	0.311	0.509	0.4092	-0.1
Mof_N 	N 	0.917	0.714	0.8693	-0.099
Mof_N 	N 	0.25	0.532	0.0731	-0.08
Mof_N 	N 	0.52	0.719	0.6618	-0.145
Mof_N 	N 	0.616	0.783	0.8778	-0.098
Mof_N 	N 	0.972	0.685	0.5942	-0.085
Mof_N 	N 	0.105	0.551	0.0418	-0.223
Mof_N 	N 	0.167	0.853	0.4605	-0.272
Mof_N 	N 	0.857	0.054	0.6167	-0.076
Mof_N 	N 	0.9	0.268	0.4339	-0.271
Mof_N 	N 	0.041	0.378	0.055	-0.236
Mof_N 	N 	0.758	0.36	0.5409	-0.279
Mof_N 	N 	0.615	0.044	0.9572	-0.233
Mof_N 	N 	0.438	0.128	0.0455	-0.238
Mof_N 	N 	0.703	0.084	0.884	-0.115
Mof_N 	N 	0.016	0.262	0.3616	-0.111
Mof_N 	N 	0.919	0.012	0.5741	-0.106
Mof_N 	N 	0.764	0.027	0.9222	-0.101
Mof_N 	N 	0.399	0.206	0.3856	-0.094
Mof_N 	N 	0.352	0.265	0.0696	-0.098
Mof_N 	N 	0.466	0.201	0.4223	-0.119
Mof_N 	N 	0.091	0.233	0.0838	-0.094
Mof_N 	N 	0.813	0.42	0.8899	-0.097
Mof_N 	N 	0.757	0.436	0.6228	-0.104
Mof_N 	N 	0.689	0.491	0.5908	-0.1
Mof_N 	N 	0.083	0.286	0.1307	-0.105
Mof_N 	N 	0.75	0.468	0.9269	-0.095
Mof_N 	N 	0.48	0.281	0.3382	-0.145
Mof_N 	N 	0.384	0.217	0.1222	-0.1
Mof_N 	N 	0.028	0.315	0.4058	-0.122
Mof_N 	N 	0.895	0.449	0.9582	-0.214
Mof_N 	N 	0.833	0.147	0.5395	-0.269
Mof_O 	O 	0.2766	0.3556	0.5774	-0.448
Mof_O 	O 	0.2936	0.4821	0.7269	-0.38
Mof_O 	O 	0.2365	0.02	0.726	-0.407
Mof_O 	O 	0.1623	0.2777	0.8788	-0.467
Mof_O 	O 	0.1157	0.3076	0.5946	-0.446
Mof_O 	O 	0.3412	0.1223	0.6913	-0.343
Mof_O 	O 	0.2176	0.6491	0.6973	-0.45
Mof_O 	O 	0.1277	0.922	0.6927	-0.462
Mof_O 	O 	0.4907	0.4159	0.7281	-0.451
Mof_O 	O 	0.0151	0.3425	0.7189	-0.447
Mof_O 	O 	0.0959	0.5605	0.7432	-0.451
Mof_O 	O 	0.2837	0.3792	0.9062	-0.457
Mof_O 	O 	0.3146	0.6087	0.7988	-0.443
Mof_O 	O 	0.3417	0.9715	0.8329	-0.451
Mof_O 	O 	0.4504	0.0737	0.7957	-0.478
Mof_O 	O 	0.2486	0.1488	0.7907	-0.364
Mof_O 	O 	0.5148	0.1595	0.7025	-0.444
Mof_O 	O 	0.1867	0.5205	0.8399	-0.464
Mof_O 	O 	0.4095	0.2092	0.586	-0.44
Mof_O 	O 	0.3659	0.2092	0.8712	-0.466
Mof_O 	O 	0.5196	0.3064	0.6282	-0.46
Mof_O 	O 	0.2494	0.16	0.5767	-0.453
Mof_O 	O 	0.4853	0.0335	0.631	-0.449
Mof_O 	O 	0.1465	0.0488	0.6116	-0.478
Mof_O 	O 	0.2031	0.5274	0.6169	-0.449
Mof_O 	O 	0.2128	0.8829	0.7932	-0.446
Mof_O 	O 	0.3838	0.4633	0.6069	-0.457
Mof_O 	O 	0.4079	0.4437	0.8314	-0.453
Mof_O 	O 	0.4321	0.942	0.7295	-0.442
Mof_O 	O 	0.3242	0.9903	0.6084	-0.465
Mof_O 	O 	0.1233	0.0486	0.839	-0.469
Mof_O 	O 	0.2423	0.1052	0.9057	-0.464
Mof_O 	O 	0.1646	0.1851	0.696	-0.336
Mof_O 	O 	0.2776	0.3497	0.7922	-0.362
Mof_O 	O 	0.1902	0.3825	0.6958	-0.331
Mof_O 	O 	0.0456	0.4797	0.6442	-0.451
Mof_O 	O 	0.08	0.4154	0.8076	-0.472
Mof_O 	O 	0.4787	0.2767	0.7935	-0.46
Mof_O 	O 	0.0353	0.087	0.7398	-0.462
Mof_O 	O 	0.4009	0.5819	0.6882	-0.44
Mof_O 	O 	0.0511	0.221	0.8086	-0.461
Mof_O 	O 	0.009	0.2016	0.6432	-0.459
Mof_O 	O 	0.3651	0.3177	0.6911	-0.33
Mof_O 	O 	0.4256	0.0424	0.9225	-0.536
Mof_O 	O 	0.0956	0.4431	0.93	-0.55
Mof_O 	O 	0.2231	0.8577	0.5836	-0.558
Mof_O 	O 	0.3123	0.854	0.6909	-0.461
Mof_O 	O 	0.7234	0.6444	0.4226	-0.45
Mof_O 	O 	0.7064	0.5179	0.2731	-0.381
Mof_O 	O 	0.7635	0.98	0.274	-0.379
Mof_O 	O 	0.8377	0.7223	0.1212	-0.467
Mof_O 	O 	0.8843	0.6924	0.4054	-0.441
Mof_O 	O 	0.6588	0.8777	0.3087	-0.342
Mof_O 	O 	0.7824	0.3509	0.3027	-0.448
Mof_O 	O 	0.8723	0.078	0.3073	-0.452
Mof_O 	O 	0.5093	0.5841	0.2719	-0.451
Mof_O 	O 	0.9849	0.6575	0.2811	-0.439
Mof_O 	O 	0.9041	0.4395	0.2568	-0.443
Mof_O 	O 	0.7163	0.6208	0.0938	-0.466
Mof_O 	O 	0.6854	0.3913	0.2012	-0.449
Mof_O 	O 	0.6583	0.0285	0.1671	-0.481
Mof_O 	O 	0.5496	0.9263	0.2043	-0.475
Mof_O 	O 	0.7514	0.8512	0.2093	-0.363
Mof_O 	O 	0.4852	0.8405	0.2975	-0.45
Mof_O 	O 	0.8133	0.4795	0.1601	-0.464
Mof_O 	O 	0.5905	0.7908	0.414	-0.444
Mof_O 	O 	0.6341	0.7908	0.1288	-0.471
Mof_O 	O 	0.4804	0.6936	0.3718	-0.46
Mof_O 	O 	0.7506	0.84	0.4233	-0.453
Mof_O 	O 	0.5147	0.9665	0.369	-0.441
Mof_O 	O 	0.8535	0.9512	0.3884	-0.449
Mof_O 	O 	0.7969	0.4726	0.3831	-0.448
Mof_O 	O 	0.7872	0.1171	0.2068	-0.447
Mof_O 	O 	0.6162	0.5367	0.3931	-0.457
Mof_O 	O 	0.5921	0.5563	0.1686	-0.458
Mof_O 	O 	0.5679	0.058	0.2705	-0.465
Mof_O 	O 	0.6758	0.0097	0.3916	-0.49
Mof_O 	O 	0.8767	0.9514	0.161	-0.446
Mof_O 	O 	0.7577	0.8948	0.0943	-0.469
Mof_O 	O 	0.8354	0.8149	0.304	-0.339
Mof_O 	O 	0.7224	0.6503	0.2078	-0.363
Mof_O 	O 	0.8098	0.6175	0.3042	-0.336
Mof_O 	O 	0.9544	0.5203	0.3558	-0.437
Mof_O 	O 	0.92	0.5846	0.1924	-0.464
Mof_O 	O 	0.5213	0.7233	0.2065	-0.461
Mof_O 	O 	0.9647	0.913	0.2602	-0.429
Mof_O 	O 	0.5991	0.4181	0.3118	-0.439
Mof_O 	O 	0.9489	0.779	0.1914	-0.454
Mof_O 	O 	0.991	0.7984	0.3568	-0.443
Mof_O 	O 	0.6349	0.6823	0.3089	-0.331
Mof_O 	O 	0.5744	0.9576	0.0775	-0.545
Mof_O 	O 	0.9044	0.5569	0.07	-0.554
Mof_O 	O 	0.7769	0.1423	0.4164	-0.555
Mof_O 	O 	0.6877	0.146	0.3091	-0.458
_end
