data_functionalizedCrystal
_audit_creation_method	'EQeq! by Chris Wilmer'
_symmetry_space_group_name_H-M	'P1'
_symmetry_Int_Tables_number	1
_symmetry_cell_setting	triclinic
loop_
_symmetry_equiv_pos_as_xyz
  x,y,z
_cell_length_a	12.866
_cell_length_b	12.776
_cell_length_c	16.802
_cell_angle_alpha	90
_cell_angle_beta	105.303
_cell_angle_gamma	90
loop_
_atom_site_label
_atom_site_type_symbol
_atom_site_fract_x
_atom_site_fract_y
_atom_site_fract_z
_atom_site_charge
Mof_Ag	Ag	0.0852	0.65692	0.90537	0.564
Mof_Ag	Ag	0.14402	0.38866	0.02428	0.512
Mof_N 	N 	0.2819	0.2467	0.6367	-0.155
Mof_N 	N 	0.1736	0.2433	0.5953	-0.108
Mof_N 	N 	0.1918	0.3275	0.7098	-0.111
Mof_N 	N 	0.1676	0.3769	0.776	-0.114
Mof_N 	N 	0.1305	0.3994	0.8924	-0.174
Mof_N 	N 	0.131	0.4969	0.8553	-0.162
Mof_N 	N 	0.4234	0.7802	0.3301	-0.171
Mof_N 	N 	0.334	0.7982	0.3596	-0.175
Mof_N 	N 	0.2808	0.7197	0.2431	-0.117
Mof_N 	N 	0.215	0.6749	0.1725	-0.116
Mof_N 	N 	0.1248	0.6528	0.0457	-0.183
Mof_N 	N 	0.1329	0.5564	0.0874	-0.173
Mof_C 	C 	0.1543	0.4808	0.7854	0.095
Mof_H 	H 	0.1608	0.5324	0.748	-0.006
Mof_C 	C 	0.1531	0.3287	0.8435	0.095
Mof_H 	H 	0.1582	0.2571	0.8535	-0.013
Mof_C 	C 	0.2897	0.298	0.7058	0.092
Mof_H 	H 	0.3536	0.3115	0.7457	-0.009
Mof_C 	C 	0.1206	0.2923	0.6395	0.085
Mof_H 	H 	0.0463	0.3019	0.6257	0.004
Mof_C 	C 	0.3875	0.7341	0.2587	0.098
Mof_H 	H 	0.4295	0.7143	0.2239	-0.01
Mof_C 	C 	0.2499	0.7621	0.3069	0.098
Mof_H 	H 	0.1797	0.7648	0.3119	-0.013
Mof_C 	C 	0.1746	0.7211	0.0983	0.098
Mof_H 	H 	0.1818	0.7916	0.087	-0.014
Mof_C 	C 	0.1866	0.5728	0.1619	0.095
Mof_H 	H 	0.2036	0.522	0.2029	-0.01
Mof_Ag	Ag	0.4148	0.15692	0.59463	0.565
Mof_Ag	Ag	0.35598	0.88866	0.47572	0.509
Mof_N 	N 	0.2181	0.7467	0.8633	-0.155
Mof_N 	N 	0.3264	0.7433	0.9047	-0.108
Mof_N 	N 	0.3082	0.8275	0.7902	-0.111
Mof_N 	N 	0.3324	0.8769	0.724	-0.114
Mof_N 	N 	0.3695	0.8994	0.6076	-0.173
Mof_N 	N 	0.369	0.9969	0.6447	-0.162
Mof_N 	N 	0.0766	0.2802	0.1699	-0.171
Mof_N 	N 	0.166	0.2982	0.1404	-0.175
Mof_N 	N 	0.2192	0.2197	0.2569	-0.117
Mof_N 	N 	0.285	0.1749	0.3275	-0.116
Mof_N 	N 	0.3752	0.1528	0.4543	-0.183
Mof_N 	N 	0.3671	0.0564	0.4126	-0.173
Mof_C 	C 	0.3457	0.9808	0.7146	0.094
Mof_H 	H 	0.3392	0.0324	0.752	-0.006
Mof_C 	C 	0.3469	0.8287	0.6565	0.095
Mof_H 	H 	0.3418	0.7571	0.6465	-0.013
Mof_C 	C 	0.2103	0.798	0.7942	0.092
Mof_H 	H 	0.1464	0.8115	0.7543	-0.009
Mof_C 	C 	0.3794	0.7923	0.8605	0.085
Mof_H 	H 	0.4537	0.8019	0.8743	0.004
Mof_C 	C 	0.1125	0.2341	0.2413	0.098
Mof_H 	H 	0.0705	0.2143	0.2761	-0.01
Mof_C 	C 	0.2501	0.2621	0.1931	0.098
Mof_H 	H 	0.3203	0.2648	0.1881	-0.013
Mof_C 	C 	0.3254	0.2211	0.4017	0.097
Mof_H 	H 	0.3182	0.2916	0.413	-0.014
Mof_C 	C 	0.3134	0.0728	0.3381	0.095
Mof_H 	H 	0.2964	0.022	0.2971	-0.01
Mof_Ag	Ag	0.9148	0.34308	0.09463	0.563
Mof_Ag	Ag	0.85598	0.61134	0.97572	0.511
Mof_N 	N 	0.7181	0.7533	0.3633	-0.155
Mof_N 	N 	0.8264	0.7567	0.4047	-0.108
Mof_N 	N 	0.8082	0.6725	0.2902	-0.111
Mof_N 	N 	0.8324	0.6231	0.224	-0.114
Mof_N 	N 	0.8695	0.6006	0.1076	-0.174
Mof_N 	N 	0.869	0.5031	0.1447	-0.162
Mof_N 	N 	0.5766	0.2198	0.6699	-0.171
Mof_N 	N 	0.666	0.2018	0.6404	-0.175
Mof_N 	N 	0.7192	0.2803	0.7569	-0.117
Mof_N 	N 	0.785	0.3251	0.8275	-0.116
Mof_N 	N 	0.8752	0.3472	0.9543	-0.183
Mof_N 	N 	0.8671	0.4436	0.9126	-0.173
Mof_C 	C 	0.8457	0.5192	0.2146	0.095
Mof_H 	H 	0.8392	0.4676	0.252	-0.006
Mof_C 	C 	0.8469	0.6713	0.1565	0.095
Mof_H 	H 	0.8418	0.7429	0.1465	-0.013
Mof_C 	C 	0.7103	0.702	0.2942	0.092
Mof_H 	H 	0.6464	0.6885	0.2543	-0.009
Mof_C 	C 	0.8794	0.7077	0.3605	0.085
Mof_H 	H 	0.9537	0.6981	0.3743	0.004
Mof_C 	C 	0.6125	0.2659	0.7413	0.098
Mof_H 	H 	0.5705	0.2857	0.7761	-0.01
Mof_C 	C 	0.7501	0.2379	0.6931	0.098
Mof_H 	H 	0.8203	0.2352	0.6881	-0.013
Mof_C 	C 	0.8254	0.2789	0.9017	0.098
Mof_H 	H 	0.8182	0.2084	0.913	-0.014
Mof_C 	C 	0.8134	0.4272	0.8381	0.095
Mof_H 	H 	0.7964	0.478	0.7971	-0.01
Mof_Ag	Ag	0.5852	0.84308	0.40537	0.565
Mof_Ag	Ag	0.64402	0.11134	0.52428	0.509
Mof_N 	N 	0.7819	0.2533	0.1367	-0.155
Mof_N 	N 	0.6736	0.2567	0.0953	-0.108
Mof_N 	N 	0.6918	0.1725	0.2098	-0.111
Mof_N 	N 	0.6676	0.1231	0.276	-0.114
Mof_N 	N 	0.6305	0.1006	0.3924	-0.173
Mof_N 	N 	0.631	0.0031	0.3553	-0.162
Mof_N 	N 	0.9234	0.7198	0.8301	-0.171
Mof_N 	N 	0.834	0.7018	0.8596	-0.175
Mof_N 	N 	0.7808	0.7803	0.7431	-0.117
Mof_N 	N 	0.715	0.8251	0.6725	-0.116
Mof_N 	N 	0.6248	0.8472	0.5457	-0.183
Mof_N 	N 	0.6329	0.9436	0.5874	-0.173
Mof_C 	C 	0.6543	0.0192	0.2854	0.094
Mof_H 	H 	0.6608	0.9676	0.248	-0.006
Mof_C 	C 	0.6531	0.1713	0.3435	0.095
Mof_H 	H 	0.6582	0.2429	0.3535	-0.013
Mof_C 	C 	0.7897	0.202	0.2058	0.092
Mof_H 	H 	0.8536	0.1885	0.2457	-0.009
Mof_C 	C 	0.6206	0.2077	0.1395	0.085
Mof_H 	H 	0.5463	0.1981	0.1257	0.004
Mof_C 	C 	0.8875	0.7659	0.7587	0.098
Mof_H 	H 	0.9295	0.7857	0.7239	-0.01
Mof_C 	C 	0.7499	0.7379	0.8069	0.098
Mof_H 	H 	0.6797	0.7352	0.8119	-0.013
Mof_C 	C 	0.6746	0.7789	0.5983	0.097
Mof_H 	H 	0.6818	0.7084	0.587	-0.014
Mof_C 	C 	0.6866	0.9272	0.6619	0.095
Mof_H 	H 	0.7036	0.978	0.7029	-0.01
_end
