data_functionalizedCrystal
_audit_creation_method	'EQeq! by Chris Wilmer'
_symmetry_space_group_name_H-M	'P1'
_symmetry_Int_Tables_number	1
_symmetry_cell_setting	triclinic
loop_
_symmetry_equiv_pos_as_xyz
  x,y,z
_cell_length_a	4.713
_cell_length_b	11.101
_cell_length_c	26.797
_cell_angle_alpha	90
_cell_angle_beta	90
_cell_angle_gamma	96.52
loop_
_atom_site_label
_atom_site_type_symbol
_atom_site_fract_x
_atom_site_fract_y
_atom_site_fract_z
_atom_site_charge
Mof_Cu	Cu	0.388	0.12	0.8194	0.954
Mof_Cu	Cu	0.612	0.38	0.3194	0.955
Mof_Cu	Cu	0.612	0.88	0.1806	0.954
Mof_Cu	Cu	0.388	0.62	0.6806	0.955
Mof_H 	H 	0.214	0.0363	0.7087	0.067
Mof_H 	H 	0.3759	0.1353	0.6374	0.043
Mof_H 	H 	0.0799	0.2093	0.8952	0.035
Mof_H 	H 	0.4086	0.8981	0.8917	0.038
Mof_H 	H 	0.3928	0.7616	0.9621	0.054
Mof_H 	H 	0.8647	0.2769	0.9645	0.058
Mof_H 	H 	0.786	0.4637	0.2087	0.068
Mof_H 	H 	0.6241	0.3647	0.1374	0.044
Mof_H 	H 	0.9201	0.2907	0.3952	0.036
Mof_H 	H 	0.5914	0.6019	0.3917	0.038
Mof_H 	H 	0.6072	0.7384	0.4621	0.054
Mof_H 	H 	0.1353	0.2231	0.4645	0.058
Mof_H 	H 	0.786	0.9637	0.2913	0.067
Mof_H 	H 	0.6241	0.8647	0.3626	0.043
Mof_H 	H 	0.9201	0.7907	0.1048	0.035
Mof_H 	H 	0.5914	0.1019	0.1083	0.038
Mof_H 	H 	0.6072	0.2384	0.0379	0.054
Mof_H 	H 	0.1353	0.7231	0.0355	0.058
Mof_H 	H 	0.214	0.5363	0.7913	0.068
Mof_H 	H 	0.3759	0.6353	0.8626	0.044
Mof_H 	H 	0.0799	0.7093	0.6048	0.036
Mof_H 	H 	0.4086	0.3981	0.6083	0.038
Mof_H 	H 	0.3928	0.2616	0.5379	0.054
Mof_H 	H 	0.8647	0.7769	0.5355	0.058
Mof_C 	C 	0.6509	0.3208	0.8025	0.367
Mof_C 	C 	0.5863	0.2687	0.7524	-0.048
Mof_C 	C 	0.3346	0.1109	0.71	0.033
Mof_C 	C 	0.4334	0.1697	0.6688	0.021
Mof_C 	C 	0.6852	0.3235	0.7104	-0.008
Mof_C 	C 	0.8684	0.4423	0.705	0.354
Mof_C 	C 	0.113	0.1361	0.9114	-0.004
Mof_C 	C 	0.3059	0.9533	0.9094	0.007
Mof_C 	C 	0.2145	0.9249	0.9558	0.018
Mof_C 	C 	0.0139	0.1149	0.9579	0.018
Mof_C 	C 	0.0631	0.0078	0.9812	-0.005
Mof_C 	C 	0.2729	0.8156	0.9764	-0.051
Mof_C 	C 	0.8663	0.2009	0.9807	-0.05
Mof_C 	C 	0.3491	0.1792	0.3025	0.368
Mof_C 	C 	0.4137	0.2313	0.2524	-0.048
Mof_C 	C 	0.6654	0.3891	0.21	0.033
Mof_C 	C 	0.5666	0.3303	0.1688	0.021
Mof_C 	C 	0.3148	0.1765	0.2104	-0.007
Mof_C 	C 	0.1316	0.0577	0.205	0.351
Mof_C 	C 	0.887	0.3639	0.4114	-0.005
Mof_C 	C 	0.6941	0.5467	0.4094	0.006
Mof_C 	C 	0.7855	0.5751	0.4558	0.016
Mof_C 	C 	0.9861	0.3851	0.4579	0.02
Mof_C 	C 	0.9369	0.4922	0.4812	-0.005
Mof_C 	C 	0.7271	0.6844	0.4764	-0.049
Mof_C 	C 	0.1337	0.2991	0.4807	-0.053
Mof_C 	C 	0.3491	0.6792	0.1975	0.367
Mof_C 	C 	0.4137	0.7313	0.2476	-0.048
Mof_C 	C 	0.6654	0.8891	0.29	0.033
Mof_C 	C 	0.5666	0.8303	0.3312	0.021
Mof_C 	C 	0.3148	0.6765	0.2896	-0.008
Mof_C 	C 	0.1316	0.5577	0.295	0.354
Mof_C 	C 	0.887	0.8639	0.0886	-0.004
Mof_C 	C 	0.6941	0.0467	0.0906	0.007
Mof_C 	C 	0.7855	0.0751	0.0442	0.018
Mof_C 	C 	0.9861	0.8851	0.0421	0.018
Mof_C 	C 	0.9369	0.9922	0.0188	-0.005
Mof_C 	C 	0.7271	0.1844	0.0236	-0.051
Mof_C 	C 	0.1337	0.7991	0.0193	-0.05
Mof_C 	C 	0.6509	0.8208	0.6975	0.368
Mof_C 	C 	0.5863	0.7687	0.7476	-0.048
Mof_C 	C 	0.3346	0.6109	0.79	0.033
Mof_C 	C 	0.4334	0.6697	0.8312	0.021
Mof_C 	C 	0.6852	0.8235	0.7896	-0.007
Mof_C 	C 	0.8684	0.9423	0.795	0.351
Mof_C 	C 	0.113	0.6361	0.5886	-0.005
Mof_C 	C 	0.3059	0.4533	0.5906	0.006
Mof_C 	C 	0.2145	0.4249	0.5442	0.016
Mof_C 	C 	0.0139	0.6149	0.5421	0.02
Mof_C 	C 	0.0631	0.5078	0.5188	-0.005
Mof_C 	C 	0.2729	0.3156	0.5236	-0.049
Mof_C 	C 	0.8663	0.7009	0.5193	-0.053
Mof_N 	N 	0.416	0.1635	0.7522	-0.178
Mof_N 	N 	0.6058	0.2725	0.6688	-0.101
Mof_N 	N 	0.2567	0.057	0.8874	-0.183
Mof_N 	N 	0.584	0.3365	0.2522	-0.178
Mof_N 	N 	0.3942	0.2275	0.1688	-0.101
Mof_N 	N 	0.7433	0.443	0.3874	-0.182
Mof_N 	N 	0.584	0.8365	0.2478	-0.178
Mof_N 	N 	0.3942	0.7275	0.3312	-0.101
Mof_N 	N 	0.7433	0.943	0.1126	-0.183
Mof_N 	N 	0.416	0.6635	0.7478	-0.178
Mof_N 	N 	0.6058	0.7725	0.8312	-0.101
Mof_N 	N 	0.2567	0.557	0.6126	-0.182
Mof_O 	O 	0.533	0.2583	0.8352	-0.465
Mof_O 	O 	0.789	0.4204	0.8066	-0.261
Mof_O 	O 	0.119	0.488	0.712	-0.352
Mof_O 	O 	0.755	0.5341	0.6943	-0.363
Mof_O 	O 	0.467	0.2417	0.3352	-0.465
Mof_O 	O 	0.211	0.0796	0.3066	-0.261
Mof_O 	O 	0.881	0.012	0.212	-0.35
Mof_O 	O 	0.245	0.9659	0.1943	-0.362
Mof_O 	O 	0.467	0.7417	0.1648	-0.465
Mof_O 	O 	0.211	0.5796	0.1934	-0.261
Mof_O 	O 	0.881	0.512	0.288	-0.352
Mof_O 	O 	0.245	0.4659	0.3057	-0.363
Mof_O 	O 	0.533	0.7583	0.6648	-0.465
Mof_O 	O 	0.789	0.9204	0.6934	-0.261
Mof_O 	O 	0.119	0.988	0.788	-0.35
Mof_O 	O 	0.755	0.0341	0.8057	-0.362
_end
