data_functionalizedCrystal
_audit_creation_method	'EQeq! by Chris Wilmer'
_symmetry_space_group_name_H-M	'P1'
_symmetry_Int_Tables_number	1
_symmetry_cell_setting	triclinic
loop_
_symmetry_equiv_pos_as_xyz
  x,y,z
_cell_length_a	11.5213
_cell_length_b	27.0154
_cell_length_c	16.995
_cell_angle_alpha	98.137
_cell_angle_beta	90
_cell_angle_gamma	90
loop_
_atom_site_label
_atom_site_type_symbol
_atom_site_fract_x
_atom_site_fract_y
_atom_site_fract_z
_atom_site_charge
Mof_Gd	Gd	0.61987	0.7519	0.69105	1.826
Mof_Gd	Gd	0.1912	0.24916	0.53076	1.809
Mof_Gd	Gd	0.11987	0.2481	0.80895	1.825
Mof_Gd	Gd	0.6912	0.75084	0.96924	1.806
Mof_Gd	Gd	0.38013	0.2481	0.30895	1.825
Mof_Gd	Gd	0.8088	0.75084	0.46924	1.808
Mof_Gd	Gd	0.88013	0.7519	0.19105	1.825
Mof_Gd	Gd	0.3088	0.24916	0.03076	1.806
Mof_H 	H 	0.4322	0.8949	0.6213	0.013
Mof_H 	H 	0.6691	0.8783	0.4459	0.012
Mof_H 	H 	0.6308	0.9589	0.4205	0.088
Mof_H 	H 	0.6328	0.6007	0.3902	0.009
Mof_H 	H 	0.5018	0.632	0.6108	-0.002
Mof_H 	H 	0.4546	0.5483	0.6089	0.099
Mof_H 	H 	0.9657	0.8574	0.5565	-0.012
Mof_H 	H 	0.8312	0.8989	0.774	0.001
Mof_H 	H 	0.9166	0.977	0.7784	0.099
Mof_H 	H 	0.0251	0.1229	0.7637	0.006
Mof_H 	H 	0.1319	0.0823	0.5387	0.009
Mof_H 	H 	0.0909	0.9995	0.5493	0.095
Mof_H 	H 	0.981	0.4041	0.7832	-0.005
Mof_H 	H 	0.1361	0.3878	0.5693	-0.004
Mof_H 	H 	0.0925	0.4702	0.5572	0.105
Mof_H 	H 	0.8625	0.5459	0.7548	0.094
Mof_H 	H 	0.796	0.624	0.7334	0.006
Mof_H 	H 	0.0022	0.6182	0.5416	0.013
Mof_H 	H 	0.9322	0.1051	0.8787	0.013
Mof_H 	H 	0.1691	0.1217	0.0541	0.013
Mof_H 	H 	0.1308	0.0411	0.0795	0.089
Mof_H 	H 	0.1328	0.3993	0.1098	0.009
Mof_H 	H 	0.0018	0.368	0.8892	-0.003
Mof_H 	H 	0.9546	0.4517	0.8911	0.099
Mof_H 	H 	0.4657	0.1426	0.9435	-0.012
Mof_H 	H 	0.3312	0.1011	0.726	0.001
Mof_H 	H 	0.4166	0.023	0.7216	0.1
Mof_H 	H 	0.5251	0.8771	0.7363	0.006
Mof_H 	H 	0.6319	0.9177	0.9613	0.008
Mof_H 	H 	0.5909	0.0005	0.9507	0.096
Mof_H 	H 	0.481	0.5959	0.7168	-0.004
Mof_H 	H 	0.6361	0.6122	0.9307	-0.004
Mof_H 	H 	0.5925	0.5298	0.9428	0.104
Mof_H 	H 	0.3625	0.4541	0.7452	0.094
Mof_H 	H 	0.296	0.376	0.7666	0.006
Mof_H 	H 	0.5022	0.3818	0.9584	0.012
Mof_H 	H 	0.5678	0.1051	0.3787	0.013
Mof_H 	H 	0.3309	0.1217	0.5541	0.012
Mof_H 	H 	0.3692	0.0411	0.5795	0.088
Mof_H 	H 	0.3672	0.3993	0.6098	0.009
Mof_H 	H 	0.4982	0.368	0.3892	-0.002
Mof_H 	H 	0.5454	0.4517	0.3911	0.099
Mof_H 	H 	0.0343	0.1426	0.4435	-0.012
Mof_H 	H 	0.1688	0.1011	0.226	0.001
Mof_H 	H 	0.0834	0.023	0.2216	0.099
Mof_H 	H 	0.9749	0.8771	0.2363	0.006
Mof_H 	H 	0.8681	0.9177	0.4613	0.009
Mof_H 	H 	0.9091	0.0005	0.4507	0.095
Mof_H 	H 	0.019	0.5959	0.2168	-0.005
Mof_H 	H 	0.8639	0.6122	0.4307	-0.004
Mof_H 	H 	0.9075	0.5298	0.4428	0.105
Mof_H 	H 	0.1375	0.4541	0.2452	0.094
Mof_H 	H 	0.204	0.376	0.2666	0.006
Mof_H 	H 	0.9978	0.3818	0.4584	0.013
Mof_H 	H 	0.0678	0.8949	0.1213	0.013
Mof_H 	H 	0.8309	0.8783	0.9459	0.013
Mof_H 	H 	0.8692	0.9589	0.9205	0.089
Mof_H 	H 	0.8672	0.6007	0.8902	0.009
Mof_H 	H 	0.9982	0.632	0.1108	-0.003
Mof_H 	H 	0.0454	0.5483	0.1089	0.099
Mof_H 	H 	0.5343	0.8574	0.0565	-0.012
Mof_H 	H 	0.6688	0.8989	0.274	0.001
Mof_H 	H 	0.5834	0.977	0.2784	0.1
Mof_H 	H 	0.4749	0.1229	0.2637	0.006
Mof_H 	H 	0.3681	0.0823	0.0387	0.008
Mof_H 	H 	0.4091	0.9995	0.0493	0.096
Mof_H 	H 	0.519	0.4041	0.2832	-0.004
Mof_H 	H 	0.3639	0.3878	0.0693	-0.004
Mof_H 	H 	0.4075	0.4702	0.0572	0.104
Mof_H 	H 	0.6375	0.5459	0.2548	0.094
Mof_H 	H 	0.704	0.624	0.2334	0.006
Mof_H 	H 	0.4978	0.6182	0.0416	0.012
Mof_C 	C 	0.5086	0.9752	0.5057	0.075
Mof_C 	C 	0.472	0.9077	0.581	0.101
Mof_C 	C 	0.5544	0.8786	0.5361	-0.185
Mof_C 	C 	0.6139	0.8978	0.476	0.091
Mof_C 	C 	0.591	0.9461	0.4608	-0.139
Mof_C 	C 	0.5837	0.827	0.5533	0.487
Mof_C 	C 	0.5155	0.5244	0.4985	0.079
Mof_C 	C 	0.5971	0.5902	0.434	0.111
Mof_C 	C 	0.572	0.6246	0.5007	-0.203
Mof_C 	C 	0.5186	0.6089	0.5662	0.109
Mof_C 	C 	0.4904	0.5588	0.5651	-0.152
Mof_C 	C 	0.609	0.6776	0.5078	0.513
Mof_C 	C 	0.9923	0.964	0.6701	0.081
Mof_C 	C 	0.9559	0.8814	0.601	0.13
Mof_C 	C 	0.89	0.8704	0.6648	-0.232
Mof_C 	C 	0.8753	0.9062	0.7313	0.119
Mof_C 	C 	0.9264	0.953	0.7339	-0.156
Mof_C 	C 	0.8266	0.823	0.6602	0.547
Mof_C 	C 	0.0334	0.0115	0.6628	0.077
Mof_C 	C 	0.0383	0.0981	0.7207	0.113
Mof_C 	C 	0.0826	0.11082	0.6501	-0.205
Mof_C 	C 	0.1023	0.0738	0.5859	0.101
Mof_C 	C 	0.0777	0.0242	0.5922	-0.149
Mof_C 	C 	0.0981	0.164	0.6399	0.508
Mof_C 	C 	0.0106	0.4865	0.663	0.089
Mof_C 	C 	0.0033	0.4173	0.7379	0.128
Mof_C 	C 	0.0628	0.3877	0.6774	-0.244
Mof_C 	C 	0.0962	0.4076	0.6097	0.135
Mof_C 	C 	0.0701	0.4569	0.6025	-0.167
Mof_C 	C 	0.0842	0.3345	0.6861	0.594
Mof_C 	C 	0.9721	0.5353	0.661	0.072
Mof_C 	C 	0.8905	0.5604	0.7121	-0.139
Mof_C 	C 	0.8506	0.6072	0.6993	0.096
Mof_C 	C 	0.8925	0.6289	0.6354	-0.187
Mof_C 	C 	0.9742	0.6037	0.5843	0.098
Mof_C 	C 	0.8459	0.6773	0.6203	0.469
Mof_C 	C 	0.0086	0.0248	0.9943	0.077
Mof_C 	C 	0.972	0.0923	0.919	0.099
Mof_C 	C 	0.0544	0.1214	0.9639	-0.181
Mof_C 	C 	0.1139	0.1022	0.024	0.088
Mof_C 	C 	0.091	0.0539	0.0392	-0.141
Mof_C 	C 	0.0837	0.173	0.9467	0.486
Mof_C 	C 	0.0155	0.4756	0.0015	0.079
Mof_C 	C 	0.0971	0.4098	0.066	0.109
Mof_C 	C 	0.072	0.3754	0.9993	-0.202
Mof_C 	C 	0.0186	0.3911	0.9338	0.111
Mof_C 	C 	0.9904	0.4412	0.9349	-0.153
Mof_C 	C 	0.109	0.3224	0.9922	0.515
Mof_C 	C 	0.4923	0.036	0.8299	0.083
Mof_C 	C 	0.4559	0.1186	0.899	0.131
Mof_C 	C 	0.39	0.1296	0.8352	-0.232
Mof_C 	C 	0.3753	0.0938	0.7687	0.12
Mof_C 	C 	0.4264	0.047	0.7661	-0.157
Mof_C 	C 	0.3266	0.177	0.8398	0.547
Mof_C 	C 	0.5334	0.9885	0.8372	0.076
Mof_C 	C 	0.5383	0.9019	0.7793	0.113
Mof_C 	C 	0.5826	0.88918	0.8499	-0.205
Mof_C 	C 	0.6023	0.9262	0.9141	0.102
Mof_C 	C 	0.5777	0.9758	0.9078	-0.151
Mof_C 	C 	0.5981	0.836	0.8601	0.508
Mof_C 	C 	0.5106	0.5135	0.837	0.088
Mof_C 	C 	0.5033	0.5827	0.7621	0.127
Mof_C 	C 	0.5628	0.6123	0.8226	-0.244
Mof_C 	C 	0.5962	0.5924	0.8903	0.135
Mof_C 	C 	0.5701	0.5431	0.8975	-0.166
Mof_C 	C 	0.5842	0.6655	0.8139	0.594
Mof_C 	C 	0.4721	0.4647	0.839	0.073
Mof_C 	C 	0.3905	0.4396	0.7879	-0.14
Mof_C 	C 	0.3506	0.3928	0.8007	0.097
Mof_C 	C 	0.3925	0.3711	0.8646	-0.187
Mof_C 	C 	0.4742	0.3963	0.9157	0.099
Mof_C 	C 	0.3459	0.3227	0.8797	0.469
Mof_C 	C 	0.4914	0.0248	0.4943	0.075
Mof_C 	C 	0.528	0.0923	0.419	0.101
Mof_C 	C 	0.4456	0.1214	0.4639	-0.185
Mof_C 	C 	0.3861	0.1022	0.524	0.091
Mof_C 	C 	0.409	0.0539	0.5392	-0.139
Mof_C 	C 	0.4163	0.173	0.4467	0.487
Mof_C 	C 	0.4845	0.4756	0.5015	0.079
Mof_C 	C 	0.4029	0.4098	0.566	0.111
Mof_C 	C 	0.428	0.3754	0.4993	-0.203
Mof_C 	C 	0.4814	0.3911	0.4338	0.109
Mof_C 	C 	0.5096	0.4412	0.4349	-0.152
Mof_C 	C 	0.391	0.3224	0.4922	0.513
Mof_C 	C 	0.0077	0.036	0.3299	0.081
Mof_C 	C 	0.0441	0.1186	0.399	0.13
Mof_C 	C 	0.11	0.1296	0.3352	-0.232
Mof_C 	C 	0.1247	0.0938	0.2687	0.119
Mof_C 	C 	0.0736	0.047	0.2661	-0.156
Mof_C 	C 	0.1734	0.177	0.3398	0.547
Mof_C 	C 	0.9666	0.9885	0.3372	0.077
Mof_C 	C 	0.9617	0.9019	0.2793	0.113
Mof_C 	C 	0.9174	0.88918	0.3499	-0.205
Mof_C 	C 	0.8977	0.9262	0.4141	0.101
Mof_C 	C 	0.9223	0.9758	0.4078	-0.149
Mof_C 	C 	0.9019	0.836	0.3601	0.508
Mof_C 	C 	0.9894	0.5135	0.337	0.089
Mof_C 	C 	0.9967	0.5827	0.2621	0.128
Mof_C 	C 	0.9372	0.6123	0.3226	-0.244
Mof_C 	C 	0.9038	0.5924	0.3903	0.135
Mof_C 	C 	0.9299	0.5431	0.3975	-0.167
Mof_C 	C 	0.9158	0.6655	0.3139	0.594
Mof_C 	C 	0.0279	0.4647	0.339	0.072
Mof_C 	C 	0.1095	0.4396	0.2879	-0.139
Mof_C 	C 	0.1494	0.3928	0.3007	0.096
Mof_C 	C 	0.1075	0.3711	0.3646	-0.187
Mof_C 	C 	0.0258	0.3963	0.4157	0.098
Mof_C 	C 	0.1541	0.3227	0.3797	0.469
Mof_C 	C 	0.9914	0.9752	0.0057	0.077
Mof_C 	C 	0.028	0.9077	0.081	0.099
Mof_C 	C 	0.9456	0.8786	0.0361	-0.181
Mof_C 	C 	0.8861	0.8978	0.976	0.088
Mof_C 	C 	0.909	0.9461	0.9608	-0.141
Mof_C 	C 	0.9163	0.827	0.0533	0.486
Mof_C 	C 	0.9845	0.5244	0.9985	0.079
Mof_C 	C 	0.9029	0.5902	0.934	0.109
Mof_C 	C 	0.928	0.6246	0.0007	-0.202
Mof_C 	C 	0.9814	0.6089	0.0662	0.111
Mof_C 	C 	0.0096	0.5588	0.0651	-0.153
Mof_C 	C 	0.891	0.6776	0.0078	0.515
Mof_C 	C 	0.5077	0.964	0.1701	0.083
Mof_C 	C 	0.5441	0.8814	0.101	0.131
Mof_C 	C 	0.61	0.8704	0.1648	-0.232
Mof_C 	C 	0.6247	0.9062	0.2313	0.12
Mof_C 	C 	0.5736	0.953	0.2339	-0.157
Mof_C 	C 	0.6734	0.823	0.1602	0.547
Mof_C 	C 	0.4666	0.0115	0.1628	0.076
Mof_C 	C 	0.4617	0.0981	0.2207	0.113
Mof_C 	C 	0.4174	0.11082	0.1501	-0.205
Mof_C 	C 	0.3977	0.0738	0.0859	0.102
Mof_C 	C 	0.4223	0.0242	0.0922	-0.151
Mof_C 	C 	0.4019	0.164	0.1399	0.508
Mof_C 	C 	0.4894	0.4865	0.163	0.088
Mof_C 	C 	0.4967	0.4173	0.2379	0.127
Mof_C 	C 	0.4372	0.3877	0.1774	-0.244
Mof_C 	C 	0.4038	0.4076	0.1097	0.135
Mof_C 	C 	0.4299	0.4569	0.1025	-0.166
Mof_C 	C 	0.4158	0.3345	0.1861	0.594
Mof_C 	C 	0.5279	0.5353	0.161	0.073
Mof_C 	C 	0.6095	0.5604	0.2121	-0.14
Mof_C 	C 	0.6494	0.6072	0.1993	0.097
Mof_C 	C 	0.6075	0.6289	0.1354	-0.187
Mof_C 	C 	0.5258	0.6037	0.0843	0.099
Mof_C 	C 	0.6541	0.6773	0.1203	0.469
Mof_N 	N 	0.4492	0.956	0.5658	-0.13
Mof_N 	N 	0.5689	0.5401	0.4329	-0.131
Mof_N 	N 	0.007	0.9282	0.6036	-0.137
Mof_N 	N 	0.0137	0.0485	0.727	-0.131
Mof_N 	N 	0.9772	0.4667	0.7307	-0.136
Mof_N 	N 	0.014	0.557	0.5971	-0.129
Mof_N 	N 	0.9492	0.044	0.9342	-0.13
Mof_N 	N 	0.0689	0.4599	0.0671	-0.131
Mof_N 	N 	0.507	0.0718	0.8964	-0.138
Mof_N 	N 	0.5137	0.9515	0.773	-0.131
Mof_N 	N 	0.4772	0.5333	0.7693	-0.136
Mof_N 	N 	0.514	0.443	0.9029	-0.129
Mof_N 	N 	0.5508	0.044	0.4342	-0.13
Mof_N 	N 	0.4311	0.4599	0.5671	-0.131
Mof_N 	N 	0.993	0.0718	0.3964	-0.137
Mof_N 	N 	0.9863	0.9515	0.273	-0.131
Mof_N 	N 	0.0228	0.5333	0.2693	-0.136
Mof_N 	N 	0.986	0.443	0.4029	-0.129
Mof_N 	N 	0.0508	0.956	0.0658	-0.13
Mof_N 	N 	0.9311	0.5401	0.9329	-0.131
Mof_N 	N 	0.493	0.9282	0.1036	-0.138
Mof_N 	N 	0.4863	0.0485	0.227	-0.131
Mof_N 	N 	0.5228	0.4667	0.2307	-0.136
Mof_N 	N 	0.486	0.557	0.0971	-0.129
Mof_O 	O 	0.5869	0.7038	0.5723	-0.551
Mof_O 	O 	0.771	0.8143	0.7179	-0.499
Mof_O 	O 	0.7897	0.7023	0.6743	-0.491
Mof_O 	O 	0.5521	0.8152	0.6173	-0.496
Mof_O 	O 	0.0636	0.1966	0.6973	-0.54
Mof_O 	O 	0.076	0.32	0.7496	-0.55
Mof_O 	O 	0.1411	0.1743	0.5789	-0.522
Mof_O 	O 	0.8327	0.7956	0.5976	-0.553
Mof_O 	O 	0.6444	0.8006	0.5014	-0.495
Mof_O 	O 	0.6617	0.6891	0.4499	-0.497
Mof_O 	O 	0.8682	0.6884	0.5515	-0.461
Mof_O 	O 	0.106	0.3071	0.6244	-0.577
Mof_O 	O 	0.0869	0.2962	0.9277	-0.551
Mof_O 	O 	0.271	0.1857	0.7821	-0.499
Mof_O 	O 	0.2897	0.2977	0.8257	-0.491
Mof_O 	O 	0.0521	0.1848	0.8827	-0.496
Mof_O 	O 	0.5636	0.8034	0.8027	-0.54
Mof_O 	O 	0.576	0.68	0.7504	-0.55
Mof_O 	O 	0.6411	0.8257	0.9211	-0.522
Mof_O 	O 	0.3327	0.2044	0.9024	-0.552
Mof_O 	O 	0.1444	0.1994	0.9986	-0.494
Mof_O 	O 	0.1617	0.3109	0.0501	-0.498
Mof_O 	O 	0.3682	0.3116	0.9485	-0.46
Mof_O 	O 	0.606	0.6929	0.8756	-0.576
Mof_O 	O 	0.4131	0.2962	0.4277	-0.551
Mof_O 	O 	0.229	0.1857	0.2821	-0.499
Mof_O 	O 	0.2103	0.2977	0.3257	-0.491
Mof_O 	O 	0.4479	0.1848	0.3827	-0.496
Mof_O 	O 	0.9364	0.8034	0.3027	-0.54
Mof_O 	O 	0.924	0.68	0.2504	-0.55
Mof_O 	O 	0.8589	0.8257	0.4211	-0.522
Mof_O 	O 	0.1673	0.2044	0.4024	-0.553
Mof_O 	O 	0.3556	0.1994	0.4986	-0.495
Mof_O 	O 	0.3383	0.3109	0.5501	-0.497
Mof_O 	O 	0.1318	0.3116	0.4485	-0.461
Mof_O 	O 	0.894	0.6929	0.3756	-0.577
Mof_O 	O 	0.9131	0.7038	0.0723	-0.551
Mof_O 	O 	0.729	0.8143	0.2179	-0.499
Mof_O 	O 	0.7103	0.7023	0.1743	-0.491
Mof_O 	O 	0.9479	0.8152	0.1173	-0.496
Mof_O 	O 	0.4364	0.1966	0.1973	-0.54
Mof_O 	O 	0.424	0.32	0.2496	-0.55
Mof_O 	O 	0.3589	0.1743	0.0789	-0.522
Mof_O 	O 	0.6673	0.7956	0.0976	-0.552
Mof_O 	O 	0.8556	0.8006	0.0014	-0.494
Mof_O 	O 	0.8383	0.6891	0.9499	-0.498
Mof_O 	O 	0.6318	0.6884	0.0515	-0.46
Mof_O 	O 	0.394	0.3071	0.1244	-0.576
_end
