data_functionalizedCrystal
_audit_creation_method	'EQeq! by Chris Wilmer'
_symmetry_space_group_name_H-M	'P1'
_symmetry_Int_Tables_number	1
_symmetry_cell_setting	triclinic
loop_
_symmetry_equiv_pos_as_xyz
  x,y,z
_cell_length_a	4.9392
_cell_length_b	12.1867
_cell_length_c	10.783
_cell_angle_alpha	90
_cell_angle_beta	94.7665
_cell_angle_gamma	90
loop_
_atom_site_label
_atom_site_type_symbol
_atom_site_fract_x
_atom_site_fract_y
_atom_site_fract_z
_atom_site_charge
Mof_P 	P 	0.5359	0.514	0.1813	0.683
Mof_F 	F 	0.0663	0.3533	0.9837	-1.296
Mof_O 	O 	0.7019	0.4588	0.0837	-0.715
Mof_O 	O 	0.6073	0.6368	0.1889	-1.053
Mof_O 	O 	0.226	0.5071	0.1438	-0.894
Mof_C 	C 	0.4704	0.5221	0.4322	-0.07
Mof_C 	C 	0.6168	0.4634	0.3334	-0.061
Mof_P 	P 	0.4641	0.014	0.8187	0.488
Mof_F 	F 	0.9337	0.8533	0.0163	-1.166
Mof_O 	O 	0.2981	0.9588	0.9163	-0.306
Mof_O 	O 	0.3927	0.1368	0.8111	-1.033
Mof_O 	O 	0.774	0.0071	0.8562	-0.265
Mof_C 	C 	0.5296	0.0221	0.5678	-0.157
Mof_C 	C 	0.3832	0.9634	0.6666	0.006
Mof_P 	P 	0.4641	0.486	0.8187	0.702
Mof_F 	F 	0.9337	0.6467	0.0163	-1.3
Mof_O 	O 	0.2981	0.5412	0.9163	-0.553
Mof_O 	O 	0.3927	0.3632	0.8111	-1.06
Mof_O 	O 	0.774	0.4929	0.8562	-0.381
Mof_C 	C 	0.5296	0.4779	0.5678	0.06
Mof_C 	C 	0.3832	0.5366	0.6666	-0.198
Mof_P 	P 	0.5359	0.986	0.1813	0.783
Mof_F 	F 	0.0663	0.1467	0.9837	-1.2
Mof_O 	O 	0.7019	0.0412	0.0837	-0.664
Mof_O 	O 	0.6073	0.8632	0.1889	-1.048
Mof_O 	O 	0.226	0.9929	0.1438	-0.698
Mof_C 	C 	0.4704	0.9779	0.4322	0.146
Mof_C 	C 	0.6168	0.0366	0.3334	-0.25
Mof_Al	Al	-0	0.5	-0	2.246
Mof_Al	Al	-0	0	-0	1.461
Mof_Al	Al	0.2435	0.25	0.8986	3.96
Mof_Al	Al	0.7565	0.75	0.1014	3.833
_end
