data_functionalizedCrystal
_audit_creation_method	'EQeq! by Chris Wilmer'
_symmetry_space_group_name_H-M	'P1'
_symmetry_Int_Tables_number	1
_symmetry_cell_setting	triclinic
loop_
_symmetry_equiv_pos_as_xyz
  x,y,z
_cell_length_a	24.576
_cell_length_b	12.416
_cell_length_c	18.094
_cell_angle_alpha	90
_cell_angle_beta	102.534
_cell_angle_gamma	90
loop_
_atom_site_label
_atom_site_type_symbol
_atom_site_fract_x
_atom_site_fract_y
_atom_site_fract_z
_atom_site_charge
Mof_Fe	Fe	0.13949	0.26931	0.07877	0.869
Mof_Cd	Cd	0.63076	0.3271	0.71056	0.468
Mof_C 	C 	0.8337	0.654	0.5213	0.306
Mof_C 	C 	0.8258	0.583	0.5868	-0.106
Mof_C 	C 	0.7756	0.5376	0.5878	0.031
Mof_H 	H 	0.7446	0.5524	0.5494	0.037
Mof_C 	C 	0.7709	0.4677	0.6476	-0.131
Mof_C 	C 	0.8168	0.4512	0.7064	-0.007
Mof_H 	H 	0.814	0.4049	0.7458	0.036
Mof_C 	C 	0.8672	0.5033	0.707	-0.049
Mof_C 	C 	0.8712	0.568	0.6458	-0.028
Mof_H 	H 	0.9048	0.6016	0.6446	0.015
Mof_C 	C 	0.7182	0.4184	0.6545	0.379
Mof_C 	C 	0.9165	0.4904	0.7715	0.046
Mof_H 	H 	0.948	0.4634	0.7527	-0.031
Mof_H 	H 	0.9266	0.5598	0.795	0.005
Mof_C 	C 	0.9462	0.3951	0.8867	0.046
Mof_C 	C 	0.9317	0.3263	0.9406	0.08
Mof_H 	H 	0.8953	0.3008	0.9328	-0.036
Mof_C 	C 	0.9699	0.2947	0.0053	-0.418
Mof_C 	C 	0.0257	0.3294	0.0145	0.309
Mof_C 	C 	0.0398	0.3997	0.9594	-0.139
Mof_C 	C 	0.0001	0.4327	0.8962	-0.031
Mof_H 	H 	0.0098	0.4793	0.8609	0.006
Mof_C 	C 	0.9521	0.2176	0.0627	1.071
Mof_C 	C 	0.8889	0.199	0.0453	-1.512
Mof_H 	H 	0.8796	0.1509	0.0822	0.466
Mof_H 	H 	0.8773	0.168	0.9957	0.447
Mof_H 	H 	0.8702	0.2665	0.047	0.458
Mof_C 	C 	0.98	0.1083	0.058	-1.521
Mof_H 	H 	0.9692	0.0592	0.0932	0.455
Mof_H 	H 	0.0198	0.1171	0.0702	0.457
Mof_H 	H 	0.9686	0.0802	0.0076	0.453
Mof_C 	C 	0.9688	0.2619	0.1441	-1.522
Mof_H 	H 	0.957	0.2125	0.1784	0.448
Mof_H 	H 	0.9512	0.3304	0.1467	0.452
Mof_H 	H 	0.0085	0.2703	0.158	0.479
Mof_C 	C 	0.0951	0.4431	0.9673	0.094
Mof_H 	H 	0.0991	0.5039	0.9389	-0.046
Mof_C 	C 	0.1913	0.4616	0.022	-0.033
Mof_H 	H 	0.1866	0.5312	0.9971	0.011
Mof_H 	H 	0.2184	0.4203	0.0022	0.046
Mof_C 	C 	0.2104	0.4754	0.1075	-0.078
Mof_H 	H 	0.2495	0.4952	0.1206	0.065
Mof_H 	H 	0.1889	0.5316	0.1252	0.06
Mof_C 	C 	0.234	0.3457	0.207	0.091
Mof_H 	H 	0.2616	0.3951	0.2274	0.014
Mof_C 	C 	0.2315	0.2496	0.2497	-0.153
Mof_C 	C 	0.1928	0.1659	0.2258	0.378
Mof_C 	C 	0.1957	0.0705	0.2687	-0.553
Mof_C 	C 	0.2362	0.0656	0.3344	0.189
Mof_H 	H 	0.2386	0.0034	0.3636	-0.052
Mof_C 	C 	0.2734	0.1481	0.3595	0.014
Mof_C 	C 	0.2718	0.2414	0.3178	-0.002
Mof_H 	H 	0.2967	0.2974	0.3342	0.047
Mof_C 	C 	0.1542	0.9766	0.243	1.417
Mof_C 	C 	0.1595	0.9399	0.1627	-1.874
Mof_H 	H 	0.1342	0.8816	0.1461	0.553
Mof_H 	H 	0.197	0.9164	0.1644	0.576
Mof_H 	H 	0.1507	0.9991	0.128	0.579
Mof_C 	C 	0.0967	0.0147	0.2436	-2.017
Mof_H 	H 	0.0706	0.9573	0.2277	0.586
Mof_H 	H 	0.0874	0.0746	0.2097	0.619
Mof_H 	H 	0.095	0.0367	0.2939	0.613
Mof_C 	C 	0.1672	0.8811	0.2968	-1.952
Mof_H 	H 	0.1411	0.8241	0.2795	0.58
Mof_H 	H 	0.1642	0.9029	0.3467	0.586
Mof_H 	H 	0.2043	0.8562	0.2981	0.61
Mof_C 	C 	0.342	0.2206	0.4597	-0.049
Mof_H 	H 	0.3176	0.2772	0.4703	0.067
Mof_H 	H 	0.3635	0.2483	0.4248	0.064
Mof_C 	C 	0.3805	0.1831	0.5324	0.052
Mof_C 	C 	0.3658	0.1088	0.5801	-0.039
Mof_H 	H 	0.3308	0.077	0.5669	0.066
Mof_C 	C 	0.4012	0.0792	0.6472	-0.076
Mof_C 	C 	0.4517	0.1311	0.6692	0.011
Mof_H 	H 	0.4752	0.1142	0.7153	0.062
Mof_C 	C 	0.4674	0.2073	0.6235	-0.056
Mof_C 	C 	0.4324	0.2333	0.5547	-0.053
Mof_H 	H 	0.4435	0.2843	0.5234	0.078
Mof_C 	C 	0.3854	0.9919	0.6947	0.362
Mof_C 	C 	0.5235	0.2568	0.6479	0.334
Mof_N 	N 	0.1389	0.4053	0.0098	-0.188
Mof_N 	N 	0.2015	0.3708	0.1428	-0.17
Mof_O 	O 	0.7169	0.3501	0.7051	-0.336
Mof_O 	O 	0.7937	0.6948	0.4775	-0.323
Mof_O 	O 	0.8825	0.6673	0.5103	-0.393
Mof_O 	O 	0.90403	0.4185	0.8253	-0.235
Mof_O 	O 	0.06369	0.3001	0.0758	-0.417
Mof_O 	O 	0.15381	0.1776	0.163	-0.458
Mof_O 	O 	0.3106	0.1304	0.4283	-0.171
Mof_O 	O 	0.3518	0.9203	0.668	-0.284
Mof_O 	O 	0.5513	0.2391	0.7117	-0.286
Mof_O 	O 	0.5385	0.3161	0.6037	-0.257
Mof_O 	O 	0.6778	0.4426	0.613	-0.295
Mof_O 	O 	0.4078	0.9817	0.7575	-0.29
Mof_Fe	Fe	0.86051	0.76931	0.42123	0.871
Mof_Cd	Cd	0.36924	0.8271	0.78944	0.47
Mof_C 	C 	0.1663	0.154	0.9787	0.305
Mof_C 	C 	0.1742	0.083	0.9132	-0.105
Mof_C 	C 	0.2244	0.0376	0.9122	0.027
Mof_H 	H 	0.2554	0.0524	0.9506	0.037
Mof_C 	C 	0.2291	0.9677	0.8524	-0.127
Mof_C 	C 	0.1832	0.9512	0.7936	-0.003
Mof_H 	H 	0.186	0.9049	0.7542	0.034
Mof_C 	C 	0.1328	0.0033	0.793	-0.055
Mof_C 	C 	0.1288	0.068	0.8542	-0.026
Mof_H 	H 	0.0952	0.1016	0.8554	0.015
Mof_C 	C 	0.2818	0.9184	0.8455	0.378
Mof_C 	C 	0.0835	0.9904	0.7285	0.054
Mof_H 	H 	0.052	0.9634	0.7473	-0.03
Mof_H 	H 	0.0734	0.0598	0.705	0.003
Mof_C 	C 	0.0538	0.8951	0.6133	0.039
Mof_C 	C 	0.0683	0.8263	0.5594	0.107
Mof_H 	H 	0.1047	0.8008	0.5672	-0.046
Mof_C 	C 	0.0301	0.7947	0.4947	-0.455
Mof_C 	C 	0.9743	0.8294	0.4855	0.33
Mof_C 	C 	0.9602	0.8997	0.5406	-0.151
Mof_C 	C 	0.9999	0.9327	0.6038	-0.026
Mof_H 	H 	0.9902	0.9793	0.6391	0.004
Mof_C 	C 	0.0479	0.7176	0.4373	1.129
Mof_C 	C 	0.1111	0.699	0.4547	-1.598
Mof_H 	H 	0.1204	0.6509	0.4178	0.49
Mof_H 	H 	0.1227	0.668	0.5043	0.477
Mof_H 	H 	0.1298	0.7665	0.453	0.483
Mof_C 	C 	0.02	0.6083	0.442	-1.593
Mof_H 	H 	0.0308	0.5592	0.4068	0.473
Mof_H 	H 	0.9802	0.6171	0.4298	0.479
Mof_H 	H 	0.0314	0.5802	0.4924	0.47
Mof_C 	C 	0.0312	0.7619	0.3559	-1.6
Mof_H 	H 	0.043	0.7125	0.3216	0.47
Mof_H 	H 	0.0488	0.8304	0.3533	0.475
Mof_H 	H 	0.9915	0.7703	0.342	0.505
Mof_C 	C 	0.9049	0.9431	0.5327	0.099
Mof_H 	H 	0.9009	0.0039	0.5611	-0.049
Mof_C 	C 	0.8087	0.9616	0.478	-0.022
Mof_H 	H 	0.8134	0.0312	0.5029	0.005
Mof_H 	H 	0.7816	0.9203	0.4978	0.043
Mof_C 	C 	0.7896	0.9754	0.3925	-0.084
Mof_H 	H 	0.7505	0.9952	0.3794	0.067
Mof_H 	H 	0.8111	0.0316	0.3748	0.062
Mof_C 	C 	0.766	0.8457	0.293	0.093
Mof_H 	H 	0.7384	0.8951	0.2726	0.013
Mof_C 	C 	0.7685	0.7496	0.2503	-0.159
Mof_C 	C 	0.8072	0.6659	0.2742	0.387
Mof_C 	C 	0.8043	0.5705	0.2313	-0.574
Mof_C 	C 	0.7638	0.5656	0.1656	0.202
Mof_H 	H 	0.7614	0.5034	0.1364	-0.058
Mof_C 	C 	0.7266	0.6481	0.1405	0.007
Mof_C 	C 	0.7282	0.7414	0.1822	0.004
Mof_H 	H 	0.7033	0.7974	0.1658	0.045
Mof_C 	C 	0.8458	0.4766	0.257	1.464
Mof_C 	C 	0.8405	0.4399	0.3373	-1.921
Mof_H 	H 	0.8658	0.3816	0.3539	0.567
Mof_H 	H 	0.803	0.4164	0.3356	0.591
Mof_H 	H 	0.8493	0.4991	0.372	0.595
Mof_C 	C 	0.9033	0.5147	0.2564	-2.088
Mof_H 	H 	0.9294	0.4573	0.2723	0.61
Mof_H 	H 	0.9126	0.5746	0.2903	0.639
Mof_H 	H 	0.905	0.5367	0.2061	0.634
Mof_C 	C 	0.8328	0.3811	0.2032	-2.002
Mof_H 	H 	0.8589	0.3241	0.2205	0.596
Mof_H 	H 	0.8358	0.4029	0.1533	0.602
Mof_H 	H 	0.7957	0.3562	0.2019	0.626
Mof_C 	C 	0.658	0.7206	0.0403	-0.052
Mof_H 	H 	0.6824	0.7772	0.0297	0.067
Mof_H 	H 	0.6365	0.7483	0.0752	0.064
Mof_C 	C 	0.6195	0.6831	0.9676	0.055
Mof_C 	C 	0.6342	0.6088	0.9199	-0.042
Mof_H 	H 	0.6692	0.577	0.9331	0.067
Mof_C 	C 	0.5988	0.5792	0.8528	-0.072
Mof_C 	C 	0.5483	0.6311	0.8308	0.009
Mof_H 	H 	0.5248	0.6142	0.7847	0.064
Mof_C 	C 	0.5326	0.7073	0.8765	-0.054
Mof_C 	C 	0.5676	0.7333	0.9453	-0.055
Mof_H 	H 	0.5565	0.7843	0.9766	0.079
Mof_C 	C 	0.6146	0.4919	0.8053	0.359
Mof_C 	C 	0.4765	0.7568	0.8521	0.333
Mof_N 	N 	0.8611	0.9053	0.4902	-0.189
Mof_N 	N 	0.7985	0.8708	0.3572	-0.17
Mof_O 	O 	0.2831	0.8501	0.7949	-0.335
Mof_O 	O 	0.2063	0.1948	0.0225	-0.321
Mof_O 	O 	0.1175	0.1673	0.9897	-0.391
Mof_O 	O 	0.09597	0.9185	0.6747	-0.234
Mof_O 	O 	0.93631	0.8001	0.4242	-0.423
Mof_O 	O 	0.84619	0.6776	0.337	-0.463
Mof_O 	O 	0.6894	0.6304	0.0717	-0.169
Mof_O 	O 	0.6482	0.4203	0.832	-0.284
Mof_O 	O 	0.4487	0.7391	0.7883	-0.285
Mof_O 	O 	0.4615	0.8161	0.8963	-0.256
Mof_O 	O 	0.3222	0.9426	0.887	-0.293
Mof_O 	O 	0.5922	0.4817	0.7425	-0.29
Mof_Fe	Fe	0.86051	0.73069	0.92123	0.87
Mof_Cd	Cd	0.36924	0.6729	0.28944	0.469
Mof_C 	C 	0.1663	0.346	0.4787	0.306
Mof_C 	C 	0.1742	0.417	0.4132	-0.106
Mof_C 	C 	0.2244	0.4624	0.4122	0.031
Mof_H 	H 	0.2554	0.4476	0.4506	0.037
Mof_C 	C 	0.2291	0.5323	0.3524	-0.131
Mof_C 	C 	0.1832	0.5488	0.2936	-0.007
Mof_H 	H 	0.186	0.5951	0.2542	0.036
Mof_C 	C 	0.1328	0.4967	0.293	-0.049
Mof_C 	C 	0.1288	0.432	0.3542	-0.028
Mof_H 	H 	0.0952	0.3984	0.3554	0.015
Mof_C 	C 	0.2818	0.5816	0.3455	0.379
Mof_C 	C 	0.0835	0.5096	0.2285	0.046
Mof_H 	H 	0.052	0.5366	0.2473	-0.031
Mof_H 	H 	0.0734	0.4402	0.205	0.005
Mof_C 	C 	0.0538	0.6049	0.1133	0.046
Mof_C 	C 	0.0683	0.6737	0.0594	0.08
Mof_H 	H 	0.1047	0.6992	0.0672	-0.036
Mof_C 	C 	0.0301	0.7053	0.9947	-0.418
Mof_C 	C 	0.9743	0.6706	0.9855	0.309
Mof_C 	C 	0.9602	0.6003	0.0406	-0.139
Mof_C 	C 	0.9999	0.5673	0.1038	-0.031
Mof_H 	H 	0.9902	0.5207	0.1391	0.006
Mof_C 	C 	0.0479	0.7824	0.9373	1.071
Mof_C 	C 	0.1111	0.801	0.9547	-1.512
Mof_H 	H 	0.1204	0.8491	0.9178	0.466
Mof_H 	H 	0.1227	0.832	0.0043	0.447
Mof_H 	H 	0.1298	0.7335	0.953	0.458
Mof_C 	C 	0.02	0.8917	0.942	-1.521
Mof_H 	H 	0.0308	0.9408	0.9068	0.455
Mof_H 	H 	0.9802	0.8829	0.9298	0.457
Mof_H 	H 	0.0314	0.9198	0.9924	0.453
Mof_C 	C 	0.0312	0.7381	0.8559	-1.522
Mof_H 	H 	0.043	0.7875	0.8216	0.448
Mof_H 	H 	0.0488	0.6696	0.8533	0.452
Mof_H 	H 	0.9915	0.7297	0.842	0.479
Mof_C 	C 	0.9049	0.5569	0.0327	0.094
Mof_H 	H 	0.9009	0.4961	0.0611	-0.046
Mof_C 	C 	0.8087	0.5384	0.978	-0.033
Mof_H 	H 	0.8134	0.4688	0.0029	0.011
Mof_H 	H 	0.7816	0.5797	0.9978	0.046
Mof_C 	C 	0.7896	0.5246	0.8925	-0.078
Mof_H 	H 	0.7505	0.5048	0.8794	0.065
Mof_H 	H 	0.8111	0.4684	0.8748	0.06
Mof_C 	C 	0.766	0.6543	0.793	0.091
Mof_H 	H 	0.7384	0.6049	0.7726	0.014
Mof_C 	C 	0.7685	0.7504	0.7503	-0.153
Mof_C 	C 	0.8072	0.8341	0.7742	0.378
Mof_C 	C 	0.8043	0.9295	0.7313	-0.553
Mof_C 	C 	0.7638	0.9344	0.6656	0.189
Mof_H 	H 	0.7614	0.9966	0.6364	-0.052
Mof_C 	C 	0.7266	0.8519	0.6405	0.014
Mof_C 	C 	0.7282	0.7586	0.6822	-0.002
Mof_H 	H 	0.7033	0.7026	0.6658	0.047
Mof_C 	C 	0.8458	0.0234	0.757	1.417
Mof_C 	C 	0.8405	0.0601	0.8373	-1.874
Mof_H 	H 	0.8658	0.1184	0.8539	0.553
Mof_H 	H 	0.803	0.0836	0.8356	0.576
Mof_H 	H 	0.8493	0.0009	0.872	0.579
Mof_C 	C 	0.9033	0.9853	0.7564	-2.017
Mof_H 	H 	0.9294	0.0427	0.7723	0.586
Mof_H 	H 	0.9126	0.9254	0.7903	0.619
Mof_H 	H 	0.905	0.9633	0.7061	0.613
Mof_C 	C 	0.8328	0.1189	0.7032	-1.952
Mof_H 	H 	0.8589	0.1759	0.7205	0.58
Mof_H 	H 	0.8358	0.0971	0.6533	0.586
Mof_H 	H 	0.7957	0.1438	0.7019	0.61
Mof_C 	C 	0.658	0.7794	0.5403	-0.049
Mof_H 	H 	0.6824	0.7228	0.5297	0.067
Mof_H 	H 	0.6365	0.7517	0.5752	0.064
Mof_C 	C 	0.6195	0.8169	0.4676	0.052
Mof_C 	C 	0.6342	0.8912	0.4199	-0.039
Mof_H 	H 	0.6692	0.923	0.4331	0.066
Mof_C 	C 	0.5988	0.9208	0.3528	-0.076
Mof_C 	C 	0.5483	0.8689	0.3308	0.011
Mof_H 	H 	0.5248	0.8858	0.2847	0.062
Mof_C 	C 	0.5326	0.7927	0.3765	-0.056
Mof_C 	C 	0.5676	0.7667	0.4453	-0.053
Mof_H 	H 	0.5565	0.7157	0.4766	0.078
Mof_C 	C 	0.6146	0.0081	0.3053	0.362
Mof_C 	C 	0.4765	0.7432	0.3521	0.334
Mof_N 	N 	0.8611	0.5947	0.9902	-0.188
Mof_N 	N 	0.7985	0.6292	0.8572	-0.17
Mof_O 	O 	0.2831	0.6499	0.2949	-0.336
Mof_O 	O 	0.2063	0.3052	0.5225	-0.323
Mof_O 	O 	0.1175	0.3327	0.4897	-0.393
Mof_O 	O 	0.09597	0.5815	0.1747	-0.235
Mof_O 	O 	0.93631	0.6999	0.9242	-0.417
Mof_O 	O 	0.84619	0.8224	0.837	-0.458
Mof_O 	O 	0.6894	0.8696	0.5717	-0.171
Mof_O 	O 	0.6482	0.0797	0.332	-0.284
Mof_O 	O 	0.4487	0.7609	0.2883	-0.286
Mof_O 	O 	0.4615	0.6839	0.3963	-0.257
Mof_O 	O 	0.3222	0.5574	0.387	-0.295
Mof_O 	O 	0.5922	0.0183	0.2425	-0.29
Mof_Fe	Fe	0.13949	0.23069	0.57877	0.871
Mof_Cd	Cd	0.63076	0.1729	0.21056	0.47
Mof_C 	C 	0.8337	0.846	0.0213	0.305
Mof_C 	C 	0.8258	0.917	0.0868	-0.105
Mof_C 	C 	0.7756	0.9624	0.0878	0.027
Mof_H 	H 	0.7446	0.9476	0.0494	0.037
Mof_C 	C 	0.7709	0.0323	0.1476	-0.127
Mof_C 	C 	0.8168	0.0488	0.2064	-0.003
Mof_H 	H 	0.814	0.0951	0.2458	0.034
Mof_C 	C 	0.8672	0.9967	0.207	-0.055
Mof_C 	C 	0.8712	0.932	0.1458	-0.026
Mof_H 	H 	0.9048	0.8984	0.1446	0.015
Mof_C 	C 	0.7182	0.0816	0.1545	0.378
Mof_C 	C 	0.9165	0.0096	0.2715	0.054
Mof_H 	H 	0.948	0.0366	0.2527	-0.03
Mof_H 	H 	0.9266	0.9402	0.295	0.003
Mof_C 	C 	0.9462	0.1049	0.3867	0.039
Mof_C 	C 	0.9317	0.1737	0.4406	0.107
Mof_H 	H 	0.8953	0.1992	0.4328	-0.046
Mof_C 	C 	0.9699	0.2053	0.5053	-0.455
Mof_C 	C 	0.0257	0.1706	0.5145	0.33
Mof_C 	C 	0.0398	0.1003	0.4594	-0.151
Mof_C 	C 	0.0001	0.0673	0.3962	-0.026
Mof_H 	H 	0.0098	0.0207	0.3609	0.004
Mof_C 	C 	0.9521	0.2824	0.5627	1.129
Mof_C 	C 	0.8889	0.301	0.5453	-1.598
Mof_H 	H 	0.8796	0.3491	0.5822	0.49
Mof_H 	H 	0.8773	0.332	0.4957	0.477
Mof_H 	H 	0.8702	0.2335	0.547	0.483
Mof_C 	C 	0.98	0.3917	0.558	-1.593
Mof_H 	H 	0.9692	0.4408	0.5932	0.473
Mof_H 	H 	0.0198	0.3829	0.5702	0.479
Mof_H 	H 	0.9686	0.4198	0.5076	0.47
Mof_C 	C 	0.9688	0.2381	0.6441	-1.6
Mof_H 	H 	0.957	0.2875	0.6784	0.47
Mof_H 	H 	0.9512	0.1696	0.6467	0.475
Mof_H 	H 	0.0085	0.2297	0.658	0.505
Mof_C 	C 	0.0951	0.0569	0.4673	0.099
Mof_H 	H 	0.0991	0.9961	0.4389	-0.049
Mof_C 	C 	0.1913	0.0384	0.522	-0.022
Mof_H 	H 	0.1866	0.9688	0.4971	0.005
Mof_H 	H 	0.2184	0.0797	0.5022	0.043
Mof_C 	C 	0.2104	0.0246	0.6075	-0.084
Mof_H 	H 	0.2495	0.0048	0.6206	0.067
Mof_H 	H 	0.1889	0.9684	0.6252	0.062
Mof_C 	C 	0.234	0.1543	0.707	0.093
Mof_H 	H 	0.2616	0.1049	0.7274	0.013
Mof_C 	C 	0.2315	0.2504	0.7497	-0.159
Mof_C 	C 	0.1928	0.3341	0.7258	0.387
Mof_C 	C 	0.1957	0.4295	0.7687	-0.574
Mof_C 	C 	0.2362	0.4344	0.8344	0.202
Mof_H 	H 	0.2386	0.4966	0.8636	-0.058
Mof_C 	C 	0.2734	0.3519	0.8595	0.007
Mof_C 	C 	0.2718	0.2586	0.8178	0.004
Mof_H 	H 	0.2967	0.2026	0.8342	0.045
Mof_C 	C 	0.1542	0.5234	0.743	1.464
Mof_C 	C 	0.1595	0.5601	0.6627	-1.921
Mof_H 	H 	0.1342	0.6184	0.6461	0.567
Mof_H 	H 	0.197	0.5836	0.6644	0.591
Mof_H 	H 	0.1507	0.5009	0.628	0.595
Mof_C 	C 	0.0967	0.4853	0.7436	-2.088
Mof_H 	H 	0.0706	0.5427	0.7277	0.61
Mof_H 	H 	0.0874	0.4254	0.7097	0.639
Mof_H 	H 	0.095	0.4633	0.7939	0.634
Mof_C 	C 	0.1672	0.6189	0.7968	-2.002
Mof_H 	H 	0.1411	0.6759	0.7795	0.596
Mof_H 	H 	0.1642	0.5971	0.8467	0.602
Mof_H 	H 	0.2043	0.6438	0.7981	0.626
Mof_C 	C 	0.342	0.2794	0.9597	-0.052
Mof_H 	H 	0.3176	0.2228	0.9703	0.067
Mof_H 	H 	0.3635	0.2517	0.9248	0.064
Mof_C 	C 	0.3805	0.3169	0.0324	0.055
Mof_C 	C 	0.3658	0.3912	0.0801	-0.042
Mof_H 	H 	0.3308	0.423	0.0669	0.067
Mof_C 	C 	0.4012	0.4208	0.1472	-0.072
Mof_C 	C 	0.4517	0.3689	0.1692	0.009
Mof_H 	H 	0.4752	0.3858	0.2153	0.064
Mof_C 	C 	0.4674	0.2927	0.1235	-0.054
Mof_C 	C 	0.4324	0.2667	0.0547	-0.055
Mof_H 	H 	0.4435	0.2157	0.0234	0.079
Mof_C 	C 	0.3854	0.5081	0.1947	0.359
Mof_C 	C 	0.5235	0.2432	0.1479	0.333
Mof_N 	N 	0.1389	0.0947	0.5098	-0.189
Mof_N 	N 	0.2015	0.1292	0.6428	-0.17
Mof_O 	O 	0.7169	0.1499	0.2051	-0.335
Mof_O 	O 	0.7937	0.8052	0.9775	-0.321
Mof_O 	O 	0.8825	0.8327	0.0103	-0.391
Mof_O 	O 	0.90403	0.0815	0.3253	-0.234
Mof_O 	O 	0.06369	0.1999	0.5758	-0.423
Mof_O 	O 	0.15381	0.3224	0.663	-0.463
Mof_O 	O 	0.3106	0.3696	0.9283	-0.169
Mof_O 	O 	0.3518	0.5797	0.168	-0.284
Mof_O 	O 	0.5513	0.2609	0.2117	-0.285
Mof_O 	O 	0.5385	0.1839	0.1037	-0.256
Mof_O 	O 	0.6778	0.0574	0.113	-0.293
Mof_O 	O 	0.4078	0.5183	0.2575	-0.29
_end
