data_functionalizedCrystal
_audit_creation_method	'EQeq! by Chris Wilmer'
_symmetry_space_group_name_H-M	'P1'
_symmetry_Int_Tables_number	1
_symmetry_cell_setting	triclinic
loop_
_symmetry_equiv_pos_as_xyz
  x,y,z
_cell_length_a	43.028
_cell_length_b	13
_cell_length_c	22.077
_cell_angle_alpha	90
_cell_angle_beta	114.964
_cell_angle_gamma	90
loop_
_atom_site_label
_atom_site_type_symbol
_atom_site_fract_x
_atom_site_fract_y
_atom_site_fract_z
_atom_site_charge
Mof_Zn	Zn	0.12344	0.79984	0.12723	1.237
Mof_Zn	Zn	0.1092	0.57952	0.19075	1.209
Mof_Zn	Zn	0.15731	0.77456	0.2928	1.219
Mof_Br	Br	0.098	0.2618	0.9291	-0.185
Mof_Br	Br	0.16412	0.6167	0.8712	-0.192
Mof_Br	Br	0.98625	0.9734	0.8328	-0.125
Mof_Br	Br	0.0364	0.85	0.9319	-0.17
Mof_C 	C 	0.3126	0.0932	0.2454	0.475
Mof_Br	Br	0.1888	0.4591	0.1275	-0.167
Mof_Br	Br	0.3183	0.6037	0.391	-0.167
Mof_C 	C 	0.2809	0.0386	0.235	-0.065
Mof_C 	C 	0.2519	0.0582	0.1764	0.092
Mof_C 	C 	0.2213	0.008	0.1643	0.079
Mof_C 	C 	0.2196	0.939	0.2107	-0.083
Mof_C 	C 	0.2487	0.919	0.2693	0.042
Mof_C 	C 	0.2793	0.969	0.2814	0.089
Mof_Br	Br	0.20958	0.6353	0.1346	-0.171
Mof_C 	C 	0.2221	0.554	0.2621	-0.066
Mof_C 	C 	0.2422	0.508	0.3229	-0.028
Mof_C 	C 	0.2737	0.465	0.3335	0.023
Mof_C 	C 	0.2851	0.469	0.2833	-0.028
Mof_C 	C 	0.265	0.515	0.2225	0.024
Mof_C 	C 	0.2335	0.557	0.2118	0.095
Mof_C 	C 	0.1237	0.449	0.8966	-0.168
Mof_C 	C 	0.1353	0.5514	0.9106	0.123
Mof_C 	C 	0.1261	0.3944	0.8383	0.5
Mof_C 	C 	0.1166	0.6115	0.0568	0.445
Mof_C 	C 	0.1197	0.5504	0.0029	-0.125
Mof_C 	C 	0.1118	0.4591	0.9916	0.066
Mof_C 	C 	0.1157	0.4081	0.9411	0.139
Mof_C 	C 	0.1342	0.5938	0.9663	0.076
Mof_C 	C 	0.0627	0.9052	0.0963	0.406
Mof_C 	C 	0.0229	0.9507	0.9769	0.121
Mof_C 	C 	0.03	0.9569	0.0454	-0.115
Mof_C 	C 	0.9924	0.9953	0.9311	0.092
Mof_C 	C 	0.1832	0.9065	0.2048	0.487
Mof_O 	O 	0.11711	0.7376	0.202	-0.65
Mof_O 	O 	0.1037	0.5689	0.0909	-0.468
Mof_O 	O 	0.1281	0.7015	0.0653	-0.448
Mof_O 	O 	0.1093	0.4328	0.7817	-0.484
Mof_O 	O 	0.1438	0.3179	0.8498	-0.486
Mof_O 	O 	0.3098	0.1763	0.2167	-0.481
Mof_O 	O 	0.3393	0.0485	0.2786	-0.462
Mof_O 	O 	0.1798	0.881	0.2539	-0.504
Mof_O 	O 	0.1644	0.8815	0.148	-0.471
Mof_O 	O 	0.0831	0.8798	0.0747	-0.445
Mof_O 	O 	0.0663	0.886	0.1532	-0.287
Mof_Zn	Zn	0.62344	0.29984	0.12723	1.237
Mof_Zn	Zn	0.6092	0.07952	0.19075	1.209
Mof_Zn	Zn	0.65731	0.27456	0.2928	1.219
Mof_Br	Br	0.598	0.7618	0.9291	-0.186
Mof_Br	Br	0.66412	0.1167	0.8712	-0.191
Mof_Br	Br	0.48625	0.4734	0.8328	-0.125
Mof_Br	Br	0.5364	0.35	0.9319	-0.17
Mof_C 	C 	0.8126	0.5932	0.2454	0.475
Mof_Br	Br	0.6888	0.9591	0.1275	-0.167
Mof_Br	Br	0.8183	0.1037	0.391	-0.167
Mof_C 	C 	0.7809	0.5386	0.235	-0.065
Mof_C 	C 	0.7519	0.5582	0.1764	0.093
Mof_C 	C 	0.7213	0.508	0.1643	0.078
Mof_C 	C 	0.7196	0.439	0.2107	-0.083
Mof_C 	C 	0.7487	0.419	0.2693	0.042
Mof_C 	C 	0.7793	0.469	0.2814	0.089
Mof_Br	Br	0.70958	0.1353	0.1346	-0.171
Mof_C 	C 	0.7221	0.054	0.2621	-0.066
Mof_C 	C 	0.7422	0.008	0.3229	-0.027
Mof_C 	C 	0.7737	0.965	0.3335	0.023
Mof_C 	C 	0.7851	0.969	0.2833	-0.028
Mof_C 	C 	0.765	0.015	0.2225	0.024
Mof_C 	C 	0.7335	0.057	0.2118	0.095
Mof_C 	C 	0.6237	0.949	0.8966	-0.168
Mof_C 	C 	0.6353	0.0514	0.9106	0.124
Mof_C 	C 	0.6261	0.8944	0.8383	0.5
Mof_C 	C 	0.6166	0.1115	0.0568	0.445
Mof_C 	C 	0.6197	0.0504	0.0029	-0.125
Mof_C 	C 	0.6118	0.9591	0.9916	0.066
Mof_C 	C 	0.6157	0.9081	0.9411	0.139
Mof_C 	C 	0.6342	0.0938	0.9663	0.076
Mof_C 	C 	0.5627	0.4052	0.0963	0.406
Mof_C 	C 	0.5229	0.4507	0.9769	0.121
Mof_C 	C 	0.53	0.4569	0.0454	-0.115
Mof_C 	C 	0.4924	0.4953	0.9311	0.093
Mof_C 	C 	0.6832	0.4065	0.2048	0.487
Mof_O 	O 	0.61711	0.2376	0.202	-0.65
Mof_O 	O 	0.6037	0.0689	0.0909	-0.468
Mof_O 	O 	0.6281	0.2015	0.0653	-0.448
Mof_O 	O 	0.6093	0.9328	0.7817	-0.484
Mof_O 	O 	0.6438	0.8179	0.8498	-0.487
Mof_O 	O 	0.8098	0.6763	0.2167	-0.481
Mof_O 	O 	0.8393	0.5485	0.2786	-0.462
Mof_O 	O 	0.6798	0.381	0.2539	-0.504
Mof_O 	O 	0.6644	0.3815	0.148	-0.471
Mof_O 	O 	0.5831	0.3798	0.0747	-0.445
Mof_O 	O 	0.5663	0.386	0.1532	-0.287
Mof_Zn	Zn	0.87656	0.79984	0.37277	1.237
Mof_Zn	Zn	0.8908	0.57952	0.30925	1.209
Mof_Zn	Zn	0.84269	0.77456	0.2072	1.219
Mof_Br	Br	0.902	0.2618	0.5709	-0.185
Mof_Br	Br	0.83588	0.6167	0.6288	-0.192
Mof_Br	Br	0.01375	0.9734	0.6672	-0.125
Mof_Br	Br	0.9636	0.85	0.5681	-0.17
Mof_C 	C 	0.6874	0.0932	0.2546	0.475
Mof_Br	Br	0.8112	0.4591	0.3725	-0.167
Mof_Br	Br	0.6817	0.6037	0.109	-0.167
Mof_C 	C 	0.7191	0.0386	0.265	-0.065
Mof_C 	C 	0.7481	0.0582	0.3236	0.093
Mof_C 	C 	0.7787	0.008	0.3357	0.079
Mof_C 	C 	0.7804	0.939	0.2893	-0.083
Mof_C 	C 	0.7513	0.919	0.2307	0.042
Mof_C 	C 	0.7207	0.969	0.2186	0.089
Mof_Br	Br	0.79042	0.6353	0.3654	-0.171
Mof_C 	C 	0.7779	0.554	0.2379	-0.066
Mof_C 	C 	0.7578	0.508	0.1771	-0.028
Mof_C 	C 	0.7263	0.465	0.1665	0.023
Mof_C 	C 	0.7149	0.469	0.2167	-0.028
Mof_C 	C 	0.735	0.515	0.2775	0.024
Mof_C 	C 	0.7665	0.557	0.2882	0.095
Mof_C 	C 	0.8763	0.449	0.6034	-0.168
Mof_C 	C 	0.8647	0.5514	0.5894	0.123
Mof_C 	C 	0.8739	0.3944	0.6617	0.5
Mof_C 	C 	0.8834	0.6115	0.4432	0.445
Mof_C 	C 	0.8803	0.5504	0.4971	-0.125
Mof_C 	C 	0.8882	0.4591	0.5084	0.066
Mof_C 	C 	0.8843	0.4081	0.5589	0.139
Mof_C 	C 	0.8658	0.5938	0.5337	0.076
Mof_C 	C 	0.9373	0.9052	0.4037	0.406
Mof_C 	C 	0.9771	0.9507	0.5231	0.121
Mof_C 	C 	0.97	0.9569	0.4546	-0.115
Mof_C 	C 	0.0076	0.9953	0.5689	0.093
Mof_C 	C 	0.8168	0.9065	0.2952	0.487
Mof_O 	O 	0.88289	0.7376	0.298	-0.65
Mof_O 	O 	0.8963	0.5689	0.4091	-0.468
Mof_O 	O 	0.8719	0.7015	0.4347	-0.448
Mof_O 	O 	0.8907	0.4328	0.7183	-0.484
Mof_O 	O 	0.8562	0.3179	0.6502	-0.486
Mof_O 	O 	0.6902	0.1763	0.2833	-0.481
Mof_O 	O 	0.6607	0.0485	0.2214	-0.462
Mof_O 	O 	0.8202	0.881	0.2461	-0.504
Mof_O 	O 	0.8356	0.8815	0.352	-0.471
Mof_O 	O 	0.9169	0.8798	0.4253	-0.445
Mof_O 	O 	0.9337	0.886	0.3468	-0.287
Mof_Zn	Zn	0.37656	0.29984	0.37277	1.237
Mof_Zn	Zn	0.3908	0.07952	0.30925	1.209
Mof_Zn	Zn	0.34269	0.27456	0.2072	1.219
Mof_Br	Br	0.402	0.7618	0.5709	-0.185
Mof_Br	Br	0.33588	0.1167	0.6288	-0.191
Mof_Br	Br	0.51375	0.4734	0.6672	-0.125
Mof_Br	Br	0.4636	0.35	0.5681	-0.17
Mof_C 	C 	0.1874	0.5932	0.2546	0.475
Mof_Br	Br	0.3112	0.9591	0.3725	-0.167
Mof_Br	Br	0.1817	0.1037	0.109	-0.167
Mof_C 	C 	0.2191	0.5386	0.265	-0.065
Mof_C 	C 	0.2481	0.5582	0.3236	0.093
Mof_C 	C 	0.2787	0.508	0.3357	0.078
Mof_C 	C 	0.2804	0.439	0.2893	-0.083
Mof_C 	C 	0.2513	0.419	0.2307	0.042
Mof_C 	C 	0.2207	0.469	0.2186	0.089
Mof_Br	Br	0.29042	0.1353	0.3654	-0.171
Mof_C 	C 	0.2779	0.054	0.2379	-0.066
Mof_C 	C 	0.2578	0.008	0.1771	-0.027
Mof_C 	C 	0.2263	0.965	0.1665	0.023
Mof_C 	C 	0.2149	0.969	0.2167	-0.028
Mof_C 	C 	0.235	0.015	0.2775	0.024
Mof_C 	C 	0.2665	0.057	0.2882	0.095
Mof_C 	C 	0.3763	0.949	0.6034	-0.168
Mof_C 	C 	0.3647	0.0514	0.5894	0.123
Mof_C 	C 	0.3739	0.8944	0.6617	0.5
Mof_C 	C 	0.3834	0.1115	0.4432	0.445
Mof_C 	C 	0.3803	0.0504	0.4971	-0.125
Mof_C 	C 	0.3882	0.9591	0.5084	0.066
Mof_C 	C 	0.3843	0.9081	0.5589	0.139
Mof_C 	C 	0.3658	0.0938	0.5337	0.076
Mof_C 	C 	0.4373	0.4052	0.4037	0.406
Mof_C 	C 	0.4771	0.4507	0.5231	0.121
Mof_C 	C 	0.47	0.4569	0.4546	-0.115
Mof_C 	C 	0.5076	0.4953	0.5689	0.093
Mof_C 	C 	0.3168	0.4065	0.2952	0.487
Mof_O 	O 	0.38289	0.2376	0.298	-0.65
Mof_O 	O 	0.3963	0.0689	0.4091	-0.467
Mof_O 	O 	0.3719	0.2015	0.4347	-0.448
Mof_O 	O 	0.3907	0.9328	0.7183	-0.484
Mof_O 	O 	0.3562	0.8179	0.6502	-0.486
Mof_O 	O 	0.1902	0.6763	0.2833	-0.481
Mof_O 	O 	0.1607	0.5485	0.2214	-0.462
Mof_O 	O 	0.3202	0.381	0.2461	-0.504
Mof_O 	O 	0.3356	0.3815	0.352	-0.471
Mof_O 	O 	0.4169	0.3798	0.4253	-0.445
Mof_O 	O 	0.4337	0.386	0.3468	-0.287
Mof_Zn	Zn	0.87656	0.20016	0.87277	1.237
Mof_Zn	Zn	0.8908	0.42048	0.80925	1.209
Mof_Zn	Zn	0.84269	0.22544	0.7072	1.219
Mof_Br	Br	0.902	0.7382	0.0709	-0.185
Mof_Br	Br	0.83588	0.3833	0.1288	-0.192
Mof_Br	Br	0.01375	0.0266	0.1672	-0.125
Mof_Br	Br	0.9636	0.15	0.0681	-0.17
Mof_C 	C 	0.6874	0.9068	0.7546	0.475
Mof_Br	Br	0.8112	0.5409	0.8725	-0.167
Mof_Br	Br	0.6817	0.3963	0.609	-0.167
Mof_C 	C 	0.7191	0.9614	0.765	-0.065
Mof_C 	C 	0.7481	0.9418	0.8236	0.092
Mof_C 	C 	0.7787	0.992	0.8357	0.079
Mof_C 	C 	0.7804	0.061	0.7893	-0.083
Mof_C 	C 	0.7513	0.081	0.7307	0.042
Mof_C 	C 	0.7207	0.031	0.7186	0.089
Mof_Br	Br	0.79042	0.3647	0.8654	-0.171
Mof_C 	C 	0.7779	0.446	0.7379	-0.066
Mof_C 	C 	0.7578	0.492	0.6771	-0.028
Mof_C 	C 	0.7263	0.535	0.6665	0.023
Mof_C 	C 	0.7149	0.531	0.7167	-0.028
Mof_C 	C 	0.735	0.485	0.7775	0.024
Mof_C 	C 	0.7665	0.443	0.7882	0.095
Mof_C 	C 	0.8763	0.551	0.1034	-0.168
Mof_C 	C 	0.8647	0.4486	0.0894	0.123
Mof_C 	C 	0.8739	0.6056	0.1617	0.5
Mof_C 	C 	0.8834	0.3885	0.9432	0.445
Mof_C 	C 	0.8803	0.4496	0.9971	-0.125
Mof_C 	C 	0.8882	0.5409	0.0084	0.066
Mof_C 	C 	0.8843	0.5919	0.0589	0.139
Mof_C 	C 	0.8658	0.4062	0.0337	0.076
Mof_C 	C 	0.9373	0.0948	0.9037	0.406
Mof_C 	C 	0.9771	0.0493	0.0231	0.121
Mof_C 	C 	0.97	0.0431	0.9546	-0.115
Mof_C 	C 	0.0076	0.0047	0.0689	0.092
Mof_C 	C 	0.8168	0.0935	0.7952	0.487
Mof_O 	O 	0.88289	0.2624	0.798	-0.65
Mof_O 	O 	0.8963	0.4311	0.9091	-0.468
Mof_O 	O 	0.8719	0.2985	0.9347	-0.448
Mof_O 	O 	0.8907	0.5672	0.2183	-0.484
Mof_O 	O 	0.8562	0.6821	0.1502	-0.486
Mof_O 	O 	0.6902	0.8237	0.7833	-0.481
Mof_O 	O 	0.6607	0.9515	0.7214	-0.462
Mof_O 	O 	0.8202	0.119	0.7461	-0.504
Mof_O 	O 	0.8356	0.1185	0.852	-0.471
Mof_O 	O 	0.9169	0.1202	0.9253	-0.445
Mof_O 	O 	0.9337	0.114	0.8468	-0.287
Mof_Zn	Zn	0.37656	0.70016	0.87277	1.237
Mof_Zn	Zn	0.3908	0.92048	0.80925	1.209
Mof_Zn	Zn	0.34269	0.72544	0.7072	1.219
Mof_Br	Br	0.402	0.2382	0.0709	-0.186
Mof_Br	Br	0.33588	0.8833	0.1288	-0.191
Mof_Br	Br	0.51375	0.5266	0.1672	-0.125
Mof_Br	Br	0.4636	0.65	0.0681	-0.17
Mof_C 	C 	0.1874	0.4068	0.7546	0.475
Mof_Br	Br	0.3112	0.0409	0.8725	-0.167
Mof_Br	Br	0.1817	0.8963	0.609	-0.167
Mof_C 	C 	0.2191	0.4614	0.765	-0.065
Mof_C 	C 	0.2481	0.4418	0.8236	0.093
Mof_C 	C 	0.2787	0.492	0.8357	0.078
Mof_C 	C 	0.2804	0.561	0.7893	-0.083
Mof_C 	C 	0.2513	0.581	0.7307	0.042
Mof_C 	C 	0.2207	0.531	0.7186	0.089
Mof_Br	Br	0.29042	0.8647	0.8654	-0.171
Mof_C 	C 	0.2779	0.946	0.7379	-0.066
Mof_C 	C 	0.2578	0.992	0.6771	-0.027
Mof_C 	C 	0.2263	0.035	0.6665	0.023
Mof_C 	C 	0.2149	0.031	0.7167	-0.028
Mof_C 	C 	0.235	0.985	0.7775	0.024
Mof_C 	C 	0.2665	0.943	0.7882	0.095
Mof_C 	C 	0.3763	0.051	0.1034	-0.168
Mof_C 	C 	0.3647	0.9486	0.0894	0.124
Mof_C 	C 	0.3739	0.1056	0.1617	0.5
Mof_C 	C 	0.3834	0.8885	0.9432	0.445
Mof_C 	C 	0.3803	0.9496	0.9971	-0.125
Mof_C 	C 	0.3882	0.0409	0.0084	0.066
Mof_C 	C 	0.3843	0.0919	0.0589	0.139
Mof_C 	C 	0.3658	0.9062	0.0337	0.076
Mof_C 	C 	0.4373	0.5948	0.9037	0.406
Mof_C 	C 	0.4771	0.5493	0.0231	0.121
Mof_C 	C 	0.47	0.5431	0.9546	-0.115
Mof_C 	C 	0.5076	0.5047	0.0689	0.093
Mof_C 	C 	0.3168	0.5935	0.7952	0.487
Mof_O 	O 	0.38289	0.7624	0.798	-0.65
Mof_O 	O 	0.3963	0.9311	0.9091	-0.468
Mof_O 	O 	0.3719	0.7985	0.9347	-0.448
Mof_O 	O 	0.3907	0.0672	0.2183	-0.484
Mof_O 	O 	0.3562	0.1821	0.1502	-0.487
Mof_O 	O 	0.1902	0.3237	0.7833	-0.481
Mof_O 	O 	0.1607	0.4515	0.7214	-0.462
Mof_O 	O 	0.3202	0.619	0.7461	-0.504
Mof_O 	O 	0.3356	0.6185	0.852	-0.471
Mof_O 	O 	0.4169	0.6202	0.9253	-0.445
Mof_O 	O 	0.4337	0.614	0.8468	-0.287
Mof_Zn	Zn	0.12344	0.20016	0.62723	1.237
Mof_Zn	Zn	0.1092	0.42048	0.69075	1.209
Mof_Zn	Zn	0.15731	0.22544	0.7928	1.219
Mof_Br	Br	0.098	0.7382	0.4291	-0.185
Mof_Br	Br	0.16412	0.3833	0.3712	-0.192
Mof_Br	Br	0.98625	0.0266	0.3328	-0.125
Mof_Br	Br	0.0364	0.15	0.4319	-0.17
Mof_C 	C 	0.3126	0.9068	0.7454	0.475
Mof_Br	Br	0.1888	0.5409	0.6275	-0.167
Mof_Br	Br	0.3183	0.3963	0.891	-0.167
Mof_C 	C 	0.2809	0.9614	0.735	-0.065
Mof_C 	C 	0.2519	0.9418	0.6764	0.093
Mof_C 	C 	0.2213	0.992	0.6643	0.079
Mof_C 	C 	0.2196	0.061	0.7107	-0.083
Mof_C 	C 	0.2487	0.081	0.7693	0.042
Mof_C 	C 	0.2793	0.031	0.7814	0.089
Mof_Br	Br	0.20958	0.3647	0.6346	-0.171
Mof_C 	C 	0.2221	0.446	0.7621	-0.066
Mof_C 	C 	0.2422	0.492	0.8229	-0.028
Mof_C 	C 	0.2737	0.535	0.8335	0.023
Mof_C 	C 	0.2851	0.531	0.7833	-0.028
Mof_C 	C 	0.265	0.485	0.7225	0.024
Mof_C 	C 	0.2335	0.443	0.7118	0.095
Mof_C 	C 	0.1237	0.551	0.3966	-0.168
Mof_C 	C 	0.1353	0.4486	0.4106	0.123
Mof_C 	C 	0.1261	0.6056	0.3383	0.5
Mof_C 	C 	0.1166	0.3885	0.5568	0.445
Mof_C 	C 	0.1197	0.4496	0.5029	-0.125
Mof_C 	C 	0.1118	0.5409	0.4916	0.066
Mof_C 	C 	0.1157	0.5919	0.4411	0.139
Mof_C 	C 	0.1342	0.4062	0.4663	0.076
Mof_C 	C 	0.0627	0.0948	0.5963	0.406
Mof_C 	C 	0.0229	0.0493	0.4769	0.121
Mof_C 	C 	0.03	0.0431	0.5454	-0.115
Mof_C 	C 	0.9924	0.0047	0.4311	0.093
Mof_C 	C 	0.1832	0.0935	0.7048	0.487
Mof_O 	O 	0.11711	0.2624	0.702	-0.65
Mof_O 	O 	0.1037	0.4311	0.5909	-0.468
Mof_O 	O 	0.1281	0.2985	0.5653	-0.448
Mof_O 	O 	0.1093	0.5672	0.2817	-0.484
Mof_O 	O 	0.1438	0.6821	0.3498	-0.486
Mof_O 	O 	0.3098	0.8237	0.7167	-0.481
Mof_O 	O 	0.3393	0.9515	0.7786	-0.462
Mof_O 	O 	0.1798	0.119	0.7539	-0.504
Mof_O 	O 	0.1644	0.1185	0.648	-0.471
Mof_O 	O 	0.0831	0.1202	0.5747	-0.445
Mof_O 	O 	0.0663	0.114	0.6532	-0.287
Mof_Zn	Zn	0.62344	0.70016	0.62723	1.237
Mof_Zn	Zn	0.6092	0.92048	0.69075	1.209
Mof_Zn	Zn	0.65731	0.72544	0.7928	1.219
Mof_Br	Br	0.598	0.2382	0.4291	-0.185
Mof_Br	Br	0.66412	0.8833	0.3712	-0.191
Mof_Br	Br	0.48625	0.5266	0.3328	-0.125
Mof_Br	Br	0.5364	0.65	0.4319	-0.17
Mof_C 	C 	0.8126	0.4068	0.7454	0.475
Mof_Br	Br	0.6888	0.0409	0.6275	-0.167
Mof_Br	Br	0.8183	0.8963	0.891	-0.167
Mof_C 	C 	0.7809	0.4614	0.735	-0.065
Mof_C 	C 	0.7519	0.4418	0.6764	0.093
Mof_C 	C 	0.7213	0.492	0.6643	0.078
Mof_C 	C 	0.7196	0.561	0.7107	-0.083
Mof_C 	C 	0.7487	0.581	0.7693	0.042
Mof_C 	C 	0.7793	0.531	0.7814	0.089
Mof_Br	Br	0.70958	0.8647	0.6346	-0.171
Mof_C 	C 	0.7221	0.946	0.7621	-0.066
Mof_C 	C 	0.7422	0.992	0.8229	-0.027
Mof_C 	C 	0.7737	0.035	0.8335	0.023
Mof_C 	C 	0.7851	0.031	0.7833	-0.028
Mof_C 	C 	0.765	0.985	0.7225	0.024
Mof_C 	C 	0.7335	0.943	0.7118	0.095
Mof_C 	C 	0.6237	0.051	0.3966	-0.168
Mof_C 	C 	0.6353	0.9486	0.4106	0.123
Mof_C 	C 	0.6261	0.1056	0.3383	0.5
Mof_C 	C 	0.6166	0.8885	0.5568	0.445
Mof_C 	C 	0.6197	0.9496	0.5029	-0.125
Mof_C 	C 	0.6118	0.0409	0.4916	0.066
Mof_C 	C 	0.6157	0.0919	0.4411	0.139
Mof_C 	C 	0.6342	0.9062	0.4663	0.076
Mof_C 	C 	0.5627	0.5948	0.5963	0.406
Mof_C 	C 	0.5229	0.5493	0.4769	0.121
Mof_C 	C 	0.53	0.5431	0.5454	-0.115
Mof_C 	C 	0.4924	0.5047	0.4311	0.093
Mof_C 	C 	0.6832	0.5935	0.7048	0.487
Mof_O 	O 	0.61711	0.7624	0.702	-0.65
Mof_O 	O 	0.6037	0.9311	0.5909	-0.467
Mof_O 	O 	0.6281	0.7985	0.5653	-0.448
Mof_O 	O 	0.6093	0.0672	0.2817	-0.484
Mof_O 	O 	0.6438	0.1821	0.3498	-0.486
Mof_O 	O 	0.8098	0.3237	0.7167	-0.481
Mof_O 	O 	0.8393	0.4515	0.7786	-0.462
Mof_O 	O 	0.6798	0.619	0.7539	-0.504
Mof_O 	O 	0.6644	0.6185	0.648	-0.471
Mof_O 	O 	0.5831	0.6202	0.5747	-0.445
Mof_O 	O 	0.5663	0.614	0.6532	-0.287
_end
