data_functionalizedCrystal
_audit_creation_method	'EQeq! by Chris Wilmer'
_symmetry_space_group_name_H-M	'P1'
_symmetry_Int_Tables_number	1
_symmetry_cell_setting	triclinic
loop_
_symmetry_equiv_pos_as_xyz
  x,y,z
_cell_length_a	14.9
_cell_length_b	24.324
_cell_length_c	16.253
_cell_angle_alpha	90
_cell_angle_beta	113.233
_cell_angle_gamma	90
loop_
_atom_site_label
_atom_site_type_symbol
_atom_site_fract_x
_atom_site_fract_y
_atom_site_fract_z
_atom_site_charge
Mof_Zn	Zn	0.41865	0.01345	0.63776	1.218
Mof_O 	O 	0.4048	0.67991	0.6314	-0.301
Mof_O 	O 	0.4768	0.93832	0.6429	-0.437
Mof_O 	O 	0.3299	0.93768	0.6447	-0.375
Mof_O 	O 	0.0343	0.55834	0.6461	-0.491
Mof_O 	O 	0.1375	0.55509	0.7904	-0.506
Mof_N 	N 	0.332	0.02875	0.5067	-0.259
Mof_N 	N 	0.0887	0.00793	0.1884	-0.111
Mof_C 	C 	0.4036	0.8507	0.6431	-0.16
Mof_C 	C 	0.477	0.82236	0.6286	0.116
Mof_H 	H 	0.5285	0.8423	0.6218	0.006
Mof_C 	C 	0.4762	0.76564	0.6241	-0.228
Mof_H 	H 	0.5259	0.7465	0.6129	0.118
Mof_C 	C 	0.4012	0.73683	0.6363	0.262
Mof_C 	C 	0.327	0.76447	0.6511	-0.237
Mof_H 	H 	0.276	0.7446	0.6588	0.117
Mof_C 	C 	0.3288	0.82176	0.6544	0.112
Mof_H 	H 	0.2787	0.8411	0.6645	0.005
Mof_C 	C 	0.4022	0.91173	0.6442	0.319
Mof_C 	C 	0.334	0.65159	0.651	0.286
Mof_C 	C 	0.3527	0.63714	0.7391	-0.275
Mof_H 	H 	0.4131	0.6464	0.7861	0.142
Mof_C 	C 	0.282	0.60922	0.7568	0.165
Mof_H 	H 	0.2946	0.5981	0.8164	-0.008
Mof_C 	C 	0.1918	0.59701	0.6884	-0.215
Mof_C 	C 	0.1752	0.61039	0.6005	0.16
Mof_H 	H 	0.1151	0.6008	0.5533	-0.01
Mof_C 	C 	0.2466	0.6378	0.5818	-0.27
Mof_H 	H 	0.2357	0.6471	0.5218	0.136
Mof_C 	C 	0.1153	0.56779	0.7102	0.448
Mof_C 	C 	0.369	0.04884	0.4498	0.095
Mof_H 	H 	0.4347	0.0614	0.4741	-0.001
Mof_C 	C 	0.3185	0.0524	0.3595	-0.166
Mof_H 	H 	0.3485	0.0669	0.3223	0.105
Mof_C 	C 	0.2221	0.03434	0.323	0.114
Mof_C 	C 	0.1812	0.01413	0.3798	-0.15
Mof_H 	H 	0.1154	0.0017	0.3566	0.099
Mof_C 	C 	0.2371	0.01222	0.4707	0.082
Mof_H 	H 	0.2082	0.9989	0.5095	0.003
Mof_C 	C 	0.1698	0.03223	0.2239	-0.036
Mof_H 	H 	0.1977	0.0494	0.187	0.064
Mof_C 	C 	0.0449	0.00599	0.0932	0.081
Mof_C 	C 	0.0002	0.95569	0.0541	-0.072
Mof_H 	H 	0.0002	0.9256	0.0914	0.067
Mof_C 	C 	0.0434	0.04976	0.0382	-0.069
Mof_H 	H 	0.0725	0.0837	0.0639	0.063
Mof_Zn	Zn	0.91865	0.51345	0.63776	1.217
Mof_O 	O 	0.9048	0.17991	0.6314	-0.302
Mof_O 	O 	0.9768	0.43832	0.6429	-0.438
Mof_O 	O 	0.8299	0.43768	0.6447	-0.376
Mof_O 	O 	0.5343	0.05834	0.6461	-0.492
Mof_O 	O 	0.6375	0.05509	0.7904	-0.507
Mof_N 	N 	0.832	0.52875	0.5067	-0.259
Mof_N 	N 	0.5887	0.50793	0.1884	-0.111
Mof_C 	C 	0.9036	0.3507	0.6431	-0.16
Mof_C 	C 	0.977	0.32236	0.6286	0.116
Mof_H 	H 	0.0285	0.3423	0.6218	0.006
Mof_C 	C 	0.9762	0.26564	0.6241	-0.228
Mof_H 	H 	0.0259	0.2465	0.6129	0.118
Mof_C 	C 	0.9012	0.23683	0.6363	0.262
Mof_C 	C 	0.827	0.26447	0.6511	-0.237
Mof_H 	H 	0.776	0.2446	0.6588	0.117
Mof_C 	C 	0.8288	0.32176	0.6544	0.112
Mof_H 	H 	0.7787	0.3411	0.6645	0.005
Mof_C 	C 	0.9022	0.41173	0.6442	0.319
Mof_C 	C 	0.834	0.15159	0.651	0.286
Mof_C 	C 	0.8527	0.13714	0.7391	-0.275
Mof_H 	H 	0.9131	0.1464	0.7861	0.142
Mof_C 	C 	0.782	0.10922	0.7568	0.165
Mof_H 	H 	0.7946	0.0981	0.8164	-0.009
Mof_C 	C 	0.6918	0.09701	0.6884	-0.215
Mof_C 	C 	0.6752	0.11039	0.6005	0.161
Mof_H 	H 	0.6151	0.1008	0.5533	-0.01
Mof_C 	C 	0.7466	0.1378	0.5818	-0.27
Mof_H 	H 	0.7357	0.1471	0.5218	0.136
Mof_C 	C 	0.6153	0.06779	0.7102	0.448
Mof_C 	C 	0.869	0.54884	0.4498	0.095
Mof_H 	H 	0.9347	0.5614	0.4741	-0.001
Mof_C 	C 	0.8185	0.5524	0.3595	-0.167
Mof_H 	H 	0.8485	0.5669	0.3223	0.105
Mof_C 	C 	0.7221	0.53434	0.323	0.114
Mof_C 	C 	0.6812	0.51413	0.3798	-0.15
Mof_H 	H 	0.6154	0.5017	0.3566	0.098
Mof_C 	C 	0.7371	0.51222	0.4707	0.083
Mof_H 	H 	0.7082	0.4989	0.5095	0.002
Mof_C 	C 	0.6698	0.53223	0.2239	-0.036
Mof_H 	H 	0.6977	0.5494	0.187	0.064
Mof_C 	C 	0.5449	0.50599	0.0932	0.079
Mof_C 	C 	0.5002	0.45569	0.0541	-0.069
Mof_H 	H 	0.5002	0.4256	0.0914	0.066
Mof_C 	C 	0.5434	0.54976	0.0382	-0.071
Mof_H 	H 	0.5725	0.5837	0.0639	0.064
Mof_Zn	Zn	0.58135	0.01345	0.86224	1.217
Mof_O 	O 	0.5952	0.67991	0.8686	-0.302
Mof_O 	O 	0.5232	0.93832	0.8571	-0.438
Mof_O 	O 	0.6701	0.93768	0.8553	-0.376
Mof_O 	O 	0.9657	0.55834	0.8539	-0.492
Mof_O 	O 	0.8625	0.55509	0.7096	-0.507
Mof_N 	N 	0.668	0.02875	0.9933	-0.261
Mof_N 	N 	0.9113	0.00793	0.3116	-0.11
Mof_C 	C 	0.5964	0.8507	0.8569	-0.16
Mof_C 	C 	0.523	0.82236	0.8714	0.116
Mof_H 	H 	0.4715	0.8423	0.8782	0.007
Mof_C 	C 	0.5238	0.76564	0.8759	-0.228
Mof_H 	H 	0.4741	0.7465	0.8871	0.118
Mof_C 	C 	0.5988	0.73683	0.8637	0.262
Mof_C 	C 	0.673	0.76447	0.8489	-0.237
Mof_H 	H 	0.724	0.7446	0.8412	0.117
Mof_C 	C 	0.6712	0.82176	0.8456	0.113
Mof_H 	H 	0.7213	0.8411	0.8355	0.005
Mof_C 	C 	0.5978	0.91173	0.8558	0.319
Mof_C 	C 	0.666	0.65159	0.849	0.286
Mof_C 	C 	0.6473	0.63714	0.7609	-0.275
Mof_H 	H 	0.5869	0.6464	0.7139	0.142
Mof_C 	C 	0.718	0.60922	0.7432	0.165
Mof_H 	H 	0.7054	0.5981	0.6836	-0.008
Mof_C 	C 	0.8082	0.59701	0.8116	-0.215
Mof_C 	C 	0.8248	0.61039	0.8995	0.161
Mof_H 	H 	0.8849	0.6008	0.9467	-0.01
Mof_C 	C 	0.7534	0.6378	0.9182	-0.27
Mof_H 	H 	0.7643	0.6471	0.9782	0.136
Mof_C 	C 	0.8847	0.56779	0.7898	0.448
Mof_C 	C 	0.631	0.04884	0.0502	0.097
Mof_H 	H 	0.5653	0.0614	0.0259	-0.001
Mof_C 	C 	0.6815	0.0524	0.1405	-0.168
Mof_H 	H 	0.6515	0.0669	0.1777	0.105
Mof_C 	C 	0.7779	0.03434	0.177	0.115
Mof_C 	C 	0.8188	0.01413	0.1202	-0.152
Mof_H 	H 	0.8846	0.0017	0.1434	0.099
Mof_C 	C 	0.7629	0.01222	0.0293	0.085
Mof_H 	H 	0.7918	0.9989	0.9905	0.002
Mof_C 	C 	0.8302	0.03223	0.2761	-0.036
Mof_H 	H 	0.8023	0.0494	0.313	0.064
Mof_C 	C 	0.9551	0.00599	0.4068	0.08
Mof_C 	C 	0.9998	0.95569	0.4459	-0.07
Mof_H 	H 	0.9998	0.9256	0.4086	0.066
Mof_C 	C 	0.9566	0.04976	0.4618	-0.071
Mof_H 	H 	0.9275	0.0837	0.4361	0.064
Mof_Zn	Zn	0.08135	0.51345	0.86224	1.217
Mof_O 	O 	0.0952	0.17991	0.8686	-0.302
Mof_O 	O 	0.0232	0.43832	0.8571	-0.438
Mof_O 	O 	0.1701	0.43768	0.8553	-0.376
Mof_O 	O 	0.4657	0.05834	0.8539	-0.492
Mof_O 	O 	0.3625	0.05509	0.7096	-0.507
Mof_N 	N 	0.168	0.52875	0.9933	-0.259
Mof_N 	N 	0.4113	0.50793	0.3116	-0.111
Mof_C 	C 	0.0964	0.3507	0.8569	-0.16
Mof_C 	C 	0.023	0.32236	0.8714	0.116
Mof_H 	H 	0.9715	0.3423	0.8782	0.007
Mof_C 	C 	0.0238	0.26564	0.8759	-0.229
Mof_H 	H 	0.9741	0.2465	0.8871	0.119
Mof_C 	C 	0.0988	0.23683	0.8637	0.262
Mof_C 	C 	0.173	0.26447	0.8489	-0.237
Mof_H 	H 	0.224	0.2446	0.8412	0.117
Mof_C 	C 	0.1712	0.32176	0.8456	0.112
Mof_H 	H 	0.2213	0.3411	0.8355	0.005
Mof_C 	C 	0.0978	0.41173	0.8558	0.319
Mof_C 	C 	0.166	0.15159	0.849	0.286
Mof_C 	C 	0.1473	0.13714	0.7609	-0.275
Mof_H 	H 	0.0869	0.1464	0.7139	0.142
Mof_C 	C 	0.218	0.10922	0.7432	0.165
Mof_H 	H 	0.2054	0.0981	0.6836	-0.008
Mof_C 	C 	0.3082	0.09701	0.8116	-0.215
Mof_C 	C 	0.3248	0.11039	0.8995	0.16
Mof_H 	H 	0.3849	0.1008	0.9467	-0.01
Mof_C 	C 	0.2534	0.1378	0.9182	-0.27
Mof_H 	H 	0.2643	0.1471	0.9782	0.136
Mof_C 	C 	0.3847	0.06779	0.7898	0.448
Mof_C 	C 	0.131	0.54884	0.0502	0.095
Mof_H 	H 	0.0653	0.5614	0.0259	-0.001
Mof_C 	C 	0.1815	0.5524	0.1405	-0.167
Mof_H 	H 	0.1515	0.5669	0.1777	0.105
Mof_C 	C 	0.2779	0.53434	0.177	0.114
Mof_C 	C 	0.3188	0.51413	0.1202	-0.151
Mof_H 	H 	0.3846	0.5017	0.1434	0.099
Mof_C 	C 	0.2629	0.51222	0.0293	0.083
Mof_H 	H 	0.2918	0.4989	0.9905	0.002
Mof_C 	C 	0.3302	0.53223	0.2761	-0.036
Mof_H 	H 	0.3023	0.5494	0.313	0.064
Mof_C 	C 	0.4551	0.50599	0.4068	0.079
Mof_C 	C 	0.4998	0.45569	0.4459	-0.069
Mof_H 	H 	0.4998	0.4256	0.4086	0.066
Mof_C 	C 	0.4566	0.54976	0.4618	-0.071
Mof_H 	H 	0.4275	0.5837	0.4361	0.064
Mof_Zn	Zn	0.58135	0.98655	0.36224	1.217
Mof_O 	O 	0.5952	0.32009	0.3686	-0.302
Mof_O 	O 	0.5232	0.06168	0.3571	-0.438
Mof_O 	O 	0.6701	0.06232	0.3553	-0.376
Mof_O 	O 	0.9657	0.44166	0.3539	-0.492
Mof_O 	O 	0.8625	0.44491	0.2096	-0.507
Mof_N 	N 	0.668	0.97125	0.4933	-0.259
Mof_N 	N 	0.9113	0.99207	0.8116	-0.111
Mof_C 	C 	0.5964	0.1493	0.3569	-0.16
Mof_C 	C 	0.523	0.17764	0.3714	0.116
Mof_H 	H 	0.4715	0.1577	0.3782	0.006
Mof_C 	C 	0.5238	0.23436	0.3759	-0.228
Mof_H 	H 	0.4741	0.2535	0.3871	0.118
Mof_C 	C 	0.5988	0.26317	0.3637	0.262
Mof_C 	C 	0.673	0.23553	0.3489	-0.237
Mof_H 	H 	0.724	0.2554	0.3412	0.117
Mof_C 	C 	0.6712	0.17824	0.3456	0.112
Mof_H 	H 	0.7213	0.1589	0.3355	0.005
Mof_C 	C 	0.5978	0.08827	0.3558	0.319
Mof_C 	C 	0.666	0.34841	0.349	0.286
Mof_C 	C 	0.6473	0.36286	0.2609	-0.275
Mof_H 	H 	0.5869	0.3536	0.2139	0.142
Mof_C 	C 	0.718	0.39078	0.2432	0.165
Mof_H 	H 	0.7054	0.4019	0.1836	-0.008
Mof_C 	C 	0.8082	0.40299	0.3116	-0.215
Mof_C 	C 	0.8248	0.38961	0.3995	0.16
Mof_H 	H 	0.8849	0.3992	0.4467	-0.01
Mof_C 	C 	0.7534	0.3622	0.4182	-0.27
Mof_H 	H 	0.7643	0.3529	0.4782	0.136
Mof_C 	C 	0.8847	0.43221	0.2898	0.448
Mof_C 	C 	0.631	0.95116	0.5502	0.095
Mof_H 	H 	0.5653	0.9386	0.5259	-0.001
Mof_C 	C 	0.6815	0.9476	0.6405	-0.166
Mof_H 	H 	0.6515	0.9331	0.6777	0.105
Mof_C 	C 	0.7779	0.96566	0.677	0.114
Mof_C 	C 	0.8188	0.98587	0.6202	-0.15
Mof_H 	H 	0.8846	0.9983	0.6434	0.099
Mof_C 	C 	0.7629	0.98778	0.5293	0.082
Mof_H 	H 	0.7918	0.0011	0.4905	0.003
Mof_C 	C 	0.8302	0.96777	0.7761	-0.036
Mof_H 	H 	0.8023	0.9506	0.813	0.064
Mof_C 	C 	0.9551	0.99401	0.9068	0.081
Mof_C 	C 	0.9998	0.04431	0.9459	-0.072
Mof_H 	H 	0.9998	0.0744	0.9086	0.067
Mof_C 	C 	0.9566	0.95024	0.9618	-0.069
Mof_H 	H 	0.9275	0.9163	0.9361	0.063
Mof_Zn	Zn	0.08135	0.48655	0.36224	1.217
Mof_O 	O 	0.0952	0.82009	0.3686	-0.302
Mof_O 	O 	0.0232	0.56168	0.3571	-0.438
Mof_O 	O 	0.1701	0.56232	0.3553	-0.376
Mof_O 	O 	0.4657	0.94166	0.3539	-0.492
Mof_O 	O 	0.3625	0.94491	0.2096	-0.507
Mof_N 	N 	0.168	0.47125	0.4933	-0.259
Mof_N 	N 	0.4113	0.49207	0.8116	-0.111
Mof_C 	C 	0.0964	0.6493	0.3569	-0.16
Mof_C 	C 	0.023	0.67764	0.3714	0.116
Mof_H 	H 	0.9715	0.6577	0.3782	0.006
Mof_C 	C 	0.0238	0.73436	0.3759	-0.228
Mof_H 	H 	0.9741	0.7535	0.3871	0.118
Mof_C 	C 	0.0988	0.76317	0.3637	0.262
Mof_C 	C 	0.173	0.73553	0.3489	-0.237
Mof_H 	H 	0.224	0.7554	0.3412	0.117
Mof_C 	C 	0.1712	0.67824	0.3456	0.112
Mof_H 	H 	0.2213	0.6589	0.3355	0.005
Mof_C 	C 	0.0978	0.58827	0.3558	0.319
Mof_C 	C 	0.166	0.84841	0.349	0.286
Mof_C 	C 	0.1473	0.86286	0.2609	-0.275
Mof_H 	H 	0.0869	0.8536	0.2139	0.142
Mof_C 	C 	0.218	0.89078	0.2432	0.165
Mof_H 	H 	0.2054	0.9019	0.1836	-0.009
Mof_C 	C 	0.3082	0.90299	0.3116	-0.215
Mof_C 	C 	0.3248	0.88961	0.3995	0.161
Mof_H 	H 	0.3849	0.8992	0.4467	-0.01
Mof_C 	C 	0.2534	0.8622	0.4182	-0.27
Mof_H 	H 	0.2643	0.8529	0.4782	0.136
Mof_C 	C 	0.3847	0.93221	0.2898	0.448
Mof_C 	C 	0.131	0.45116	0.5502	0.095
Mof_H 	H 	0.0653	0.4386	0.5259	-0.001
Mof_C 	C 	0.1815	0.4476	0.6405	-0.167
Mof_H 	H 	0.1515	0.4331	0.6777	0.105
Mof_C 	C 	0.2779	0.46566	0.677	0.114
Mof_C 	C 	0.3188	0.48587	0.6202	-0.15
Mof_H 	H 	0.3846	0.4983	0.6434	0.098
Mof_C 	C 	0.2629	0.48778	0.5293	0.083
Mof_H 	H 	0.2918	0.5011	0.4905	0.002
Mof_C 	C 	0.3302	0.46777	0.7761	-0.036
Mof_H 	H 	0.3023	0.4506	0.813	0.064
Mof_C 	C 	0.4551	0.49401	0.9068	0.079
Mof_C 	C 	0.4998	0.54431	0.9459	-0.069
Mof_H 	H 	0.4998	0.5744	0.9086	0.066
Mof_C 	C 	0.4566	0.45024	0.9618	-0.071
Mof_H 	H 	0.4275	0.4163	0.9361	0.064
Mof_Zn	Zn	0.41865	0.98655	0.13776	1.217
Mof_O 	O 	0.4048	0.32009	0.1314	-0.302
Mof_O 	O 	0.4768	0.06168	0.1429	-0.438
Mof_O 	O 	0.3299	0.06232	0.1447	-0.376
Mof_O 	O 	0.0343	0.44166	0.1461	-0.492
Mof_O 	O 	0.1375	0.44491	0.2904	-0.507
Mof_N 	N 	0.332	0.97125	0.0067	-0.261
Mof_N 	N 	0.0887	0.99207	0.6884	-0.11
Mof_C 	C 	0.4036	0.1493	0.1431	-0.16
Mof_C 	C 	0.477	0.17764	0.1286	0.116
Mof_H 	H 	0.5285	0.1577	0.1218	0.007
Mof_C 	C 	0.4762	0.23436	0.1241	-0.228
Mof_H 	H 	0.5259	0.2535	0.1129	0.118
Mof_C 	C 	0.4012	0.26317	0.1363	0.262
Mof_C 	C 	0.327	0.23553	0.1511	-0.237
Mof_H 	H 	0.276	0.2554	0.1588	0.117
Mof_C 	C 	0.3288	0.17824	0.1544	0.113
Mof_H 	H 	0.2787	0.1589	0.1645	0.005
Mof_C 	C 	0.4022	0.08827	0.1442	0.319
Mof_C 	C 	0.334	0.34841	0.151	0.286
Mof_C 	C 	0.3527	0.36286	0.2391	-0.275
Mof_H 	H 	0.4131	0.3536	0.2861	0.142
Mof_C 	C 	0.282	0.39078	0.2568	0.165
Mof_H 	H 	0.2946	0.4019	0.3164	-0.008
Mof_C 	C 	0.1918	0.40299	0.1884	-0.215
Mof_C 	C 	0.1752	0.38961	0.1005	0.161
Mof_H 	H 	0.1151	0.3992	0.0533	-0.01
Mof_C 	C 	0.2466	0.3622	0.0818	-0.27
Mof_H 	H 	0.2357	0.3529	0.0218	0.136
Mof_C 	C 	0.1153	0.43221	0.2102	0.448
Mof_C 	C 	0.369	0.95116	0.9498	0.097
Mof_H 	H 	0.4347	0.9386	0.9741	-0.001
Mof_C 	C 	0.3185	0.9476	0.8595	-0.168
Mof_H 	H 	0.3485	0.9331	0.8223	0.105
Mof_C 	C 	0.2221	0.96566	0.823	0.115
Mof_C 	C 	0.1812	0.98587	0.8798	-0.152
Mof_H 	H 	0.1154	0.9983	0.8566	0.099
Mof_C 	C 	0.2371	0.98778	0.9707	0.085
Mof_H 	H 	0.2082	0.0011	0.0095	0.002
Mof_C 	C 	0.1698	0.96777	0.7239	-0.036
Mof_H 	H 	0.1977	0.9506	0.687	0.064
Mof_C 	C 	0.0449	0.99401	0.5932	0.08
Mof_C 	C 	0.0002	0.04431	0.5541	-0.07
Mof_H 	H 	0.0002	0.0744	0.5914	0.066
Mof_C 	C 	0.0434	0.95024	0.5382	-0.071
Mof_H 	H 	0.0725	0.9163	0.5639	0.064
Mof_Zn	Zn	0.91865	0.48655	0.13776	1.217
Mof_O 	O 	0.9048	0.82009	0.1314	-0.302
Mof_O 	O 	0.9768	0.56168	0.1429	-0.438
Mof_O 	O 	0.8299	0.56232	0.1447	-0.376
Mof_O 	O 	0.5343	0.94166	0.1461	-0.492
Mof_O 	O 	0.6375	0.94491	0.2904	-0.507
Mof_N 	N 	0.832	0.47125	0.0067	-0.259
Mof_N 	N 	0.5887	0.49207	0.6884	-0.111
Mof_C 	C 	0.9036	0.6493	0.1431	-0.16
Mof_C 	C 	0.977	0.67764	0.1286	0.116
Mof_H 	H 	0.0285	0.6577	0.1218	0.007
Mof_C 	C 	0.9762	0.73436	0.1241	-0.229
Mof_H 	H 	0.0259	0.7535	0.1129	0.119
Mof_C 	C 	0.9012	0.76317	0.1363	0.262
Mof_C 	C 	0.827	0.73553	0.1511	-0.237
Mof_H 	H 	0.776	0.7554	0.1588	0.117
Mof_C 	C 	0.8288	0.67824	0.1544	0.112
Mof_H 	H 	0.7787	0.6589	0.1645	0.005
Mof_C 	C 	0.9022	0.58827	0.1442	0.319
Mof_C 	C 	0.834	0.84841	0.151	0.286
Mof_C 	C 	0.8527	0.86286	0.2391	-0.275
Mof_H 	H 	0.9131	0.8536	0.2861	0.142
Mof_C 	C 	0.782	0.89078	0.2568	0.165
Mof_H 	H 	0.7946	0.9019	0.3164	-0.008
Mof_C 	C 	0.6918	0.90299	0.1884	-0.215
Mof_C 	C 	0.6752	0.88961	0.1005	0.16
Mof_H 	H 	0.6151	0.8992	0.0533	-0.01
Mof_C 	C 	0.7466	0.8622	0.0818	-0.27
Mof_H 	H 	0.7357	0.8529	0.0218	0.136
Mof_C 	C 	0.6153	0.93221	0.2102	0.448
Mof_C 	C 	0.869	0.45116	0.9498	0.095
Mof_H 	H 	0.9347	0.4386	0.9741	-0.001
Mof_C 	C 	0.8185	0.4476	0.8595	-0.167
Mof_H 	H 	0.8485	0.4331	0.8223	0.105
Mof_C 	C 	0.7221	0.46566	0.823	0.114
Mof_C 	C 	0.6812	0.48587	0.8798	-0.151
Mof_H 	H 	0.6154	0.4983	0.8566	0.099
Mof_C 	C 	0.7371	0.48778	0.9707	0.083
Mof_H 	H 	0.7082	0.5011	0.0095	0.002
Mof_C 	C 	0.6698	0.46777	0.7239	-0.036
Mof_H 	H 	0.6977	0.4506	0.687	0.064
Mof_C 	C 	0.5449	0.49401	0.5932	0.079
Mof_C 	C 	0.5002	0.54431	0.5541	-0.069
Mof_H 	H 	0.5002	0.5744	0.5914	0.066
Mof_C 	C 	0.5434	0.45024	0.5382	-0.071
Mof_H 	H 	0.5725	0.4163	0.5639	0.064
_end
