data_functionalizedCrystal
_audit_creation_method	'EQeq! by Chris Wilmer'
_symmetry_space_group_name_H-M	'P1'
_symmetry_Int_Tables_number	1
_symmetry_cell_setting	triclinic
loop_
_symmetry_equiv_pos_as_xyz
  x,y,z
_cell_length_a	11.115
_cell_length_b	13.287
_cell_length_c	8.664
_cell_angle_alpha	90
_cell_angle_beta	90
_cell_angle_gamma	90
loop_
_atom_site_label
_atom_site_type_symbol
_atom_site_fract_x
_atom_site_fract_y
_atom_site_fract_z
_atom_site_charge
Mof_N 	N 	0.096	0.9519	0.191	-0.127
Mof_N 	N 	0.361	0.058	0.19	-0.137
Mof_C 	C 	0.035	0.9372	0.293	0.007
Mof_C 	C 	0.413	0.089	0.289	-0.011
Mof_N 	N 	0.904	0.4519	0.309	-0.133
Mof_N 	N 	0.639	0.558	0.31	-0.133
Mof_C 	C 	0.965	0.4372	0.207	-0.011
Mof_C 	C 	0.587	0.589	0.211	-0.005
Mof_N 	N 	0.904	0.4519	0.691	-0.135
Mof_N 	N 	0.639	0.558	0.69	-0.135
Mof_C 	C 	0.965	0.4372	0.793	0.024
Mof_C 	C 	0.587	0.589	0.789	0.031
Mof_N 	N 	0.096	0.9519	0.809	-0.111
Mof_N 	N 	0.361	0.058	0.81	-0.12
Mof_C 	C 	0.035	0.9372	0.707	0.019
Mof_C 	C 	0.413	0.089	0.711	0.002
Mof_Cd	Cd	0.22899	0	-0	0.339
Mof_N 	N 	0.139	0.161	-0	-0.142
Mof_N 	N 	0.333	0.849	-0	-0.127
Mof_C 	C 	0.117	0.24	-0	-0.007
Mof_C 	C 	0.39	0.776	-0	-0.014
Mof_Cd	Cd	0.77101	0.5	0.5	0.39
Mof_N 	N 	0.861	0.661	0.5	-0.134
Mof_N 	N 	0.667	0.349	0.5	-0.13
Mof_C 	C 	0.883	0.74	0.5	0.01
Mof_C 	C 	0.61	0.276	0.5	-0.007
Mof_Cd	Cd	0.926	0.9032	0.5	0.273
Mof_Cd	Cd	0.5067	0.135	0.5	0.277
Mof_C 	C 	0.757	0.986	0.5	-0.028
Mof_C 	C 	0.672	0.035	0.5	-0.094
Mof_Cd	Cd	0.074	0.4032	-0	0.256
Mof_Cd	Cd	0.4933	0.635	-0	0.252
Mof_C 	C 	0.243	0.486	-0	-0.077
Mof_C 	C 	0.328	0.535	-0	-0.062
_end
