data_functionalizedCrystal
_audit_creation_method	'EQeq! by Chris Wilmer'
_symmetry_space_group_name_H-M	'P1'
_symmetry_Int_Tables_number	1
_symmetry_cell_setting	triclinic
loop_
_symmetry_equiv_pos_as_xyz
  x,y,z
_cell_length_a	10.3848
_cell_length_b	8.342
_cell_length_c	10.5774
_cell_angle_alpha	90
_cell_angle_beta	90
_cell_angle_gamma	90
loop_
_atom_site_label
_atom_site_type_symbol
_atom_site_fract_x
_atom_site_fract_y
_atom_site_fract_z
_atom_site_charge
Mof_P 	P 	0.1678	0.0673	0.3731	0.519
Mof_O 	O 	0.2708	0.0727	0.271	-0.556
Mof_O 	O 	0.1884	0.9306	0.463	-0.58
Mof_O 	O 	0.0317	0.0688	0.3172	-0.537
Mof_H 	H 	0.5563	0.3328	0.9107	0.331
Mof_H 	H 	0.3006	0.1524	0.5996	0.132
Mof_P 	P 	0.3322	0.9327	0.8731	0.507
Mof_O 	O 	0.2292	0.9273	0.771	-0.558
Mof_O 	O 	0.3116	0.0694	0.963	-0.566
Mof_O 	O 	0.4683	0.9312	0.8172	-0.539
Mof_H 	H 	0.9437	0.6672	0.4107	0.334
Mof_H 	H 	0.1994	0.8476	0.0996	0.125
Mof_P 	P 	0.8322	0.5673	0.6269	0.516
Mof_O 	O 	0.7292	0.5727	0.729	-0.555
Mof_O 	O 	0.8116	0.4306	0.537	-0.577
Mof_O 	O 	0.9683	0.5688	0.6828	-0.537
Mof_H 	H 	0.4437	0.8328	0.0893	0.333
Mof_H 	H 	0.6994	0.6524	0.4004	0.13
Mof_P 	P 	0.6678	0.4327	0.1269	0.517
Mof_O 	O 	0.7708	0.4273	0.229	-0.556
Mof_O 	O 	0.6884	0.5694	0.037	-0.575
Mof_O 	O 	0.5317	0.4312	0.1828	-0.537
Mof_H 	H 	0.0563	0.1672	0.5893	0.336
Mof_H 	H 	0.8006	0.3476	0.9004	0.124
Mof_P 	P 	0.8322	0.9327	0.6269	0.518
Mof_O 	O 	0.7292	0.9273	0.729	-0.557
Mof_O 	O 	0.8116	0.0694	0.537	-0.58
Mof_O 	O 	0.9683	0.9312	0.6828	-0.537
Mof_H 	H 	0.4437	0.6672	0.0893	0.331
Mof_H 	H 	0.6994	0.8476	0.4004	0.132
Mof_P 	P 	0.6678	0.0673	0.1269	0.507
Mof_O 	O 	0.7708	0.0727	0.229	-0.558
Mof_O 	O 	0.6884	0.9306	0.037	-0.566
Mof_O 	O 	0.5317	0.0688	0.1828	-0.539
Mof_H 	H 	0.0563	0.3328	0.5893	0.334
Mof_H 	H 	0.8006	0.1524	0.9004	0.125
Mof_P 	P 	0.1678	0.4327	0.3731	0.516
Mof_O 	O 	0.2708	0.4273	0.271	-0.555
Mof_O 	O 	0.1884	0.5694	0.463	-0.577
Mof_O 	O 	0.0317	0.4312	0.3172	-0.537
Mof_H 	H 	0.5563	0.1672	0.9107	0.333
Mof_H 	H 	0.3006	0.3476	0.5996	0.13
Mof_P 	P 	0.3322	0.5673	0.8731	0.517
Mof_O 	O 	0.2292	0.5727	0.771	-0.556
Mof_O 	O 	0.3116	0.4306	0.963	-0.575
Mof_O 	O 	0.4683	0.5688	0.8172	-0.537
Mof_H 	H 	0.9437	0.8328	0.4107	0.336
Mof_H 	H 	0.1994	0.6524	0.0996	0.124
Mof_Sm	Sm	0.36075	0.25	0.12059	2.489
Mof_O 	O 	0.0577	0.25	0.5424	-0.859
Mof_C 	C 	0.1794	0.25	0.467	0.038
Mof_C 	C 	0.298	0.25	0.552	-0.396
Mof_H 	H 	0.3741	0.25	0.5002	0.103
Mof_Sm	Sm	0.13925	0.75	0.62059	2.496
Mof_O 	O 	0.4423	0.75	0.0424	-0.85
Mof_C 	C 	0.3206	0.75	0.967	0.027
Mof_C 	C 	0.202	0.75	0.052	-0.377
Mof_H 	H 	0.1259	0.75	0.0002	0.099
Mof_Sm	Sm	0.63925	0.75	0.87941	2.489
Mof_O 	O 	0.9423	0.75	0.4576	-0.859
Mof_C 	C 	0.8206	0.75	0.533	0.038
Mof_C 	C 	0.702	0.75	0.448	-0.396
Mof_H 	H 	0.6259	0.75	0.4998	0.103
Mof_Sm	Sm	0.86075	0.25	0.37941	2.496
Mof_O 	O 	0.5577	0.25	0.9576	-0.85
Mof_C 	C 	0.6794	0.25	0.033	0.027
Mof_C 	C 	0.798	0.25	0.948	-0.377
Mof_H 	H 	0.8741	0.25	0.9998	0.099
_end
