data_functionalizedCrystal
_audit_creation_method	'EQeq! by Chris Wilmer'
_symmetry_space_group_name_H-M	'P1'
_symmetry_Int_Tables_number	1
_symmetry_cell_setting	triclinic
loop_
_symmetry_equiv_pos_as_xyz
  x,y,z
_cell_length_a	21.5327
_cell_length_b	16.4443
_cell_length_c	14.8195
_cell_angle_alpha	90
_cell_angle_beta	92.519
_cell_angle_gamma	90
loop_
_atom_site_label
_atom_site_type_symbol
_atom_site_fract_x
_atom_site_fract_y
_atom_site_fract_z
_atom_site_charge
Mof_Cu	Cu	0.23728	0.1874	0.8946	0.816
Mof_Cu	Cu	0.18402	0.18052	0.49445	0.787
Mof_Cu	Cu	0.16364	0.38983	0.56412	0.799
Mof_Cu	Cu	0.11841	0.38922	0.17168	0.795
Mof_N 	N 	0.21831	0.2247	0.7647	-0.252
Mof_N 	N 	0.21381	0.1758	0.6926	-0.103
Mof_N 	N 	0.19644	0.2192	0.6216	-0.212
Mof_N 	N 	0.18833	0.2973	0.6468	-0.28
Mof_N 	N 	0.20152	0.0665	0.4669	-0.308
Mof_N 	N 	0.24125	0.4604	0.5495	-0.204
Mof_N 	N 	0.15127	0.2658	0.4121	-0.281
Mof_N 	N 	0.14595	0.3441	0.4381	-0.208
Mof_N 	N 	0.12942	0.3882	0.3675	-0.214
Mof_N 	N 	0.12389	0.3401	0.294	-0.275
Mof_C 	C 	0.966	0.4351	0.387	0.189
Mof_N 	N 	0.09153	0.459	0.5984	-0.267
Mof_N 	N 	0.195	0.4602	0.1483	-0.199
Mof_N 	N 	0.25349	0.0667	0.8896	-0.26
Mof_N 	N 	0.04447	0.4603	0.1399	-0.226
Mof_N 	N 	0.98875	0.4331	0.1077	-0.228
Mof_N 	N 	0.08157	0.2865	0.0088	-0.276
Mof_N 	N 	0.12683	0.3057	0.0705	-0.2
Mof_N 	N 	0.32106	0.2277	0.9531	-0.19
Mof_N 	N 	0.1687	0.231	0.97	-0.261
Mof_C 	C 	0.2022	0.2987	0.7347	0.242
Mof_C 	C 	0.2003	0.3726	0.7915	-0.716
Mof_H 	H 	0.2164	0.4179	0.7591	0.18
Mof_H 	H 	0.2252	0.3642	0.8461	0.178
Mof_H 	H 	0.1582	0.3835	0.8062	0.197
Mof_H 	H 	0.0852	0.945	0.4954	0.18
Mof_H 	H 	0.0779	0.0273	0.4427	0.203
Mof_H 	H 	0.0924	0.0277	0.5473	0.203
Mof_C 	C 	0.137	0.265	0.3233	0.246
Mof_C 	C 	0.1342	0.191	0.2665	-0.722
Mof_H 	H 	0.0916	0.1759	0.2546	0.184
Mof_H 	H 	0.1557	0.1475	0.2977	0.186
Mof_H 	H 	0.1535	0.2016	0.2105	0.196
Mof_C 	C 	0.9809	0.345	0.3677	-0.503
Mof_H 	H 	0.9445	0.3125	0.3763	0.112
Mof_H 	H 	0.014	0.327	0.4084	0.109
Mof_H 	H 	0.9932	0.3395	0.3066	0.141
Mof_H 	H 	0.3705	0.5125	0.0856	0.112
Mof_H 	H 	0.3361	0.5402	0.9954	0.49
Mof_H 	H 	0.3442	0.4473	0.0168	-0.355
Mof_H 	H 	0.877	0.4459	0.0388	0.148
Mof_H 	H 	0.884	0.5359	0.0057	0.115
Mof_H 	H 	0.8631	0.5182	0.1038	0.137
Mof_C 	C 	0.1084	0.2405	0.9481	0.219
Mof_C 	C 	0.0756	0.2065	0.8666	-0.668
Mof_H 	H 	0.0327	0.198	0.8786	0.154
Mof_H 	H 	0.0943	0.1556	0.8512	0.151
Mof_H 	H 	0.0787	0.2439	0.8173	0.177
Mof_Cu	Cu	0.73728	0.6874	0.8946	0.822
Mof_Cu	Cu	0.68402	0.68052	0.49445	0.787
Mof_Cu	Cu	0.66364	0.88983	0.56412	0.798
Mof_Cu	Cu	0.61841	0.88922	0.17168	0.797
Mof_N 	N 	0.71831	0.7247	0.7647	-0.25
Mof_N 	N 	0.71381	0.6758	0.6926	-0.103
Mof_N 	N 	0.69644	0.7192	0.6216	-0.212
Mof_N 	N 	0.68833	0.7973	0.6468	-0.279
Mof_N 	N 	0.70152	0.5665	0.4669	-0.324
Mof_N 	N 	0.74125	0.9604	0.5495	-0.209
Mof_N 	N 	0.65127	0.7658	0.4121	-0.281
Mof_N 	N 	0.64595	0.8441	0.4381	-0.208
Mof_N 	N 	0.62942	0.8882	0.3675	-0.216
Mof_N 	N 	0.62389	0.8401	0.294	-0.273
Mof_C 	C 	0.466	0.9351	0.387	0.175
Mof_N 	N 	0.59153	0.959	0.5984	-0.269
Mof_N 	N 	0.695	0.9602	0.1483	-0.204
Mof_N 	N 	0.75349	0.5667	0.8896	-0.255
Mof_N 	N 	0.54447	0.9603	0.1399	-0.218
Mof_N 	N 	0.48875	0.9331	0.1077	-0.245
Mof_N 	N 	0.58157	0.7865	0.0088	-0.276
Mof_N 	N 	0.62683	0.8057	0.0705	-0.198
Mof_N 	N 	0.82106	0.7277	0.9531	-0.191
Mof_N 	N 	0.6687	0.731	0.97	-0.259
Mof_C 	C 	0.7022	0.7987	0.7347	0.241
Mof_C 	C 	0.7003	0.8726	0.7915	-0.716
Mof_H 	H 	0.7164	0.9179	0.7591	0.179
Mof_H 	H 	0.7252	0.8642	0.8461	0.179
Mof_H 	H 	0.6582	0.8835	0.8062	0.198
Mof_H 	H 	0.5852	0.445	0.4954	0.231
Mof_H 	H 	0.5779	0.5273	0.4427	0.248
Mof_H 	H 	0.5924	0.5277	0.5473	0.247
Mof_C 	C 	0.637	0.765	0.3233	0.249
Mof_C 	C 	0.6342	0.691	0.2665	-0.726
Mof_H 	H 	0.5916	0.6759	0.2546	0.189
Mof_H 	H 	0.6557	0.6475	0.2977	0.186
Mof_H 	H 	0.6535	0.7016	0.2105	0.198
Mof_C 	C 	0.4809	0.845	0.3677	-0.601
Mof_H 	H 	0.4445	0.8125	0.3763	0.137
Mof_H 	H 	0.514	0.827	0.4084	0.158
Mof_H 	H 	0.4932	0.8395	0.3066	0.159
Mof_H 	H 	0.8705	0.0125	0.0856	0.77
Mof_H 	H 	0.8361	0.0402	0.9954	-0.12
Mof_H 	H 	0.8442	0.9473	0.0168	-0.515
Mof_H 	H 	0.377	0.9459	0.0388	0.142
Mof_H 	H 	0.384	0.0359	0.0057	0.11
Mof_H 	H 	0.3631	0.0182	0.1038	0.148
Mof_C 	C 	0.6084	0.7405	0.9481	0.249
Mof_C 	C 	0.5756	0.7065	0.8666	-0.732
Mof_H 	H 	0.5327	0.698	0.8786	0.185
Mof_H 	H 	0.5943	0.6556	0.8512	0.194
Mof_H 	H 	0.5787	0.7439	0.8173	0.2
Mof_Cu	Cu	0.76272	0.1874	0.1054	0.818
Mof_Cu	Cu	0.81598	0.18052	0.50555	0.788
Mof_Cu	Cu	0.83636	0.38983	0.43588	0.799
Mof_Cu	Cu	0.88159	0.38922	0.82832	0.8
Mof_N 	N 	0.78169	0.2247	0.2353	-0.252
Mof_N 	N 	0.78619	0.1758	0.3074	-0.102
Mof_N 	N 	0.80356	0.2192	0.3784	-0.21
Mof_N 	N 	0.81167	0.2973	0.3532	-0.279
Mof_N 	N 	0.79848	0.0665	0.5331	-0.321
Mof_N 	N 	0.75875	0.4604	0.4505	-0.203
Mof_N 	N 	0.84873	0.2658	0.5879	-0.281
Mof_N 	N 	0.85405	0.3441	0.5619	-0.207
Mof_N 	N 	0.87058	0.3882	0.6325	-0.212
Mof_N 	N 	0.87611	0.3401	0.706	-0.272
Mof_C 	C 	0.034	0.4351	0.613	0.185
Mof_N 	N 	0.90847	0.459	0.4016	-0.264
Mof_N 	N 	0.805	0.4602	0.8517	-0.198
Mof_N 	N 	0.74651	0.0667	0.1104	-0.26
Mof_N 	N 	0.95553	0.4603	0.8601	-0.2
Mof_N 	N 	0.01125	0.4331	0.8923	-0.257
Mof_N 	N 	0.91843	0.2865	0.9912	-0.266
Mof_N 	N 	0.87317	0.3057	0.9295	-0.196
Mof_N 	N 	0.67894	0.2277	0.0469	-0.192
Mof_N 	N 	0.8313	0.231	0.03	-0.263
Mof_C 	C 	0.7978	0.2987	0.2653	0.247
Mof_C 	C 	0.7997	0.3726	0.2085	-0.73
Mof_H 	H 	0.7836	0.4179	0.2409	0.187
Mof_H 	H 	0.7748	0.3642	0.1539	0.187
Mof_H 	H 	0.8418	0.3835	0.1938	0.203
Mof_H 	H 	0.9148	0.945	0.5046	0.224
Mof_H 	H 	0.9221	0.0273	0.5573	0.248
Mof_H 	H 	0.9076	0.0277	0.4527	0.246
Mof_C 	C 	0.863	0.265	0.6767	0.255
Mof_C 	C 	0.8658	0.191	0.7335	-0.74
Mof_H 	H 	0.9084	0.1759	0.7454	0.2
Mof_H 	H 	0.8443	0.1475	0.7023	0.192
Mof_H 	H 	0.8465	0.2016	0.7895	0.203
Mof_C 	C 	0.0191	0.345	0.6323	-0.723
Mof_H 	H 	0.0555	0.3125	0.6237	0.171
Mof_H 	H 	0.986	0.327	0.5916	0.217
Mof_H 	H 	0.0068	0.3395	0.6934	0.187
Mof_H 	H 	0.6295	0.5125	0.9144	0.079
Mof_H 	H 	0.6639	0.5402	0.0046	0.061
Mof_H 	H 	0.6558	0.4473	0.9832	0.105
Mof_H 	H 	0.123	0.4459	0.9612	0.146
Mof_H 	H 	0.116	0.5359	0.9943	0.112
Mof_H 	H 	0.1369	0.5182	0.8962	0.134
Mof_C 	C 	0.8916	0.2405	0.0519	0.24
Mof_C 	C 	0.9244	0.2065	0.1334	-0.72
Mof_H 	H 	0.9673	0.198	0.1214	0.188
Mof_H 	H 	0.9057	0.1556	0.1488	0.179
Mof_H 	H 	0.9213	0.2439	0.1827	0.2
Mof_Cu	Cu	0.26272	0.6874	0.1054	0.824
Mof_Cu	Cu	0.31598	0.68052	0.50555	0.787
Mof_Cu	Cu	0.33636	0.88983	0.43588	0.798
Mof_Cu	Cu	0.38159	0.88922	0.82832	0.797
Mof_N 	N 	0.28169	0.7247	0.2353	-0.25
Mof_N 	N 	0.28619	0.6758	0.3074	-0.102
Mof_N 	N 	0.30356	0.7192	0.3784	-0.212
Mof_N 	N 	0.31167	0.7973	0.3532	-0.28
Mof_N 	N 	0.29848	0.5665	0.5331	-0.324
Mof_N 	N 	0.25875	0.9604	0.4505	-0.209
Mof_N 	N 	0.34873	0.7658	0.5879	-0.281
Mof_N 	N 	0.35405	0.8441	0.5619	-0.208
Mof_N 	N 	0.37058	0.8882	0.6325	-0.216
Mof_N 	N 	0.37611	0.8401	0.706	-0.273
Mof_C 	C 	0.534	0.9351	0.613	0.175
Mof_N 	N 	0.40847	0.959	0.4016	-0.269
Mof_N 	N 	0.305	0.9602	0.8517	-0.203
Mof_N 	N 	0.24651	0.5667	0.1104	-0.253
Mof_N 	N 	0.45553	0.9603	0.8601	-0.217
Mof_N 	N 	0.51125	0.9331	0.8923	-0.245
Mof_N 	N 	0.41843	0.7865	0.9912	-0.274
Mof_N 	N 	0.37317	0.8057	0.9295	-0.197
Mof_N 	N 	0.17894	0.7277	0.0469	-0.193
Mof_N 	N 	0.3313	0.731	0.03	-0.258
Mof_C 	C 	0.2978	0.7987	0.2653	0.245
Mof_C 	C 	0.2997	0.8726	0.2085	-0.727
Mof_H 	H 	0.2836	0.9179	0.2409	0.185
Mof_H 	H 	0.2748	0.8642	0.1539	0.186
Mof_H 	H 	0.3418	0.8835	0.1938	0.202
Mof_H 	H 	0.4148	0.445	0.5046	0.23
Mof_H 	H 	0.4221	0.5273	0.5573	0.247
Mof_H 	H 	0.4076	0.5277	0.4527	0.247
Mof_C 	C 	0.363	0.765	0.6767	0.247
Mof_C 	C 	0.3658	0.691	0.7335	-0.72
Mof_H 	H 	0.4084	0.6759	0.7454	0.185
Mof_H 	H 	0.3443	0.6475	0.7023	0.182
Mof_H 	H 	0.3465	0.7016	0.7895	0.194
Mof_C 	C 	0.5191	0.845	0.6323	-0.601
Mof_H 	H 	0.5555	0.8125	0.6237	0.137
Mof_H 	H 	0.486	0.827	0.5916	0.158
Mof_H 	H 	0.5068	0.8395	0.6934	0.159
Mof_H 	H 	0.1295	0.0125	0.9144	0.725
Mof_H 	H 	0.1639	0.0402	0.0046	-0.516
Mof_H 	H 	0.1558	0.9473	0.9832	-0.085
Mof_H 	H 	0.623	0.9459	0.9612	0.141
Mof_H 	H 	0.616	0.0359	0.9943	0.111
Mof_H 	H 	0.6369	0.0182	0.8962	0.147
Mof_C 	C 	0.3916	0.7405	0.0519	0.253
Mof_C 	C 	0.4244	0.7065	0.1334	-0.74
Mof_H 	H 	0.4673	0.698	0.1214	0.188
Mof_H 	H 	0.4057	0.6556	0.1488	0.204
Mof_H 	H 	0.4213	0.7439	0.1827	0.202
Mof_Cu	Cu	0.76272	0.8126	0.1054	0.828
Mof_Cu	Cu	0.81598	0.81948	0.50555	0.788
Mof_Cu	Cu	0.83636	0.61017	0.43588	0.799
Mof_Cu	Cu	0.88159	0.61078	0.82832	0.8
Mof_N 	N 	0.78169	0.7753	0.2353	-0.249
Mof_N 	N 	0.78619	0.8242	0.3074	-0.101
Mof_N 	N 	0.80356	0.7808	0.3784	-0.211
Mof_N 	N 	0.81167	0.7027	0.3532	-0.279
Mof_N 	N 	0.79848	0.9335	0.5331	-0.326
Mof_N 	N 	0.75875	0.5396	0.4505	-0.203
Mof_N 	N 	0.84873	0.7342	0.5879	-0.281
Mof_N 	N 	0.85405	0.6559	0.5619	-0.207
Mof_N 	N 	0.87058	0.6118	0.6325	-0.212
Mof_N 	N 	0.87611	0.6599	0.706	-0.272
Mof_C 	C 	0.034	0.5649	0.613	0.184
Mof_N 	N 	0.90847	0.541	0.4016	-0.264
Mof_N 	N 	0.805	0.5398	0.8517	-0.198
Mof_N 	N 	0.74651	0.9333	0.1104	-0.249
Mof_N 	N 	0.95553	0.5397	0.8601	-0.2
Mof_N 	N 	0.01125	0.5669	0.8923	-0.257
Mof_N 	N 	0.91843	0.7135	0.9912	-0.273
Mof_N 	N 	0.87317	0.6943	0.9295	-0.196
Mof_N 	N 	0.67894	0.7723	0.0469	-0.192
Mof_N 	N 	0.8313	0.769	0.03	-0.258
Mof_C 	C 	0.7978	0.7013	0.2653	0.245
Mof_C 	C 	0.7997	0.6274	0.2085	-0.728
Mof_H 	H 	0.7836	0.5821	0.2409	0.186
Mof_H 	H 	0.7748	0.6358	0.1539	0.186
Mof_H 	H 	0.8418	0.6165	0.1938	0.202
Mof_H 	H 	0.9148	0.055	0.5046	0.216
Mof_H 	H 	0.9221	0.9727	0.5573	0.227
Mof_H 	H 	0.9076	0.9723	0.4527	0.226
Mof_C 	C 	0.863	0.735	0.6767	0.253
Mof_C 	C 	0.8658	0.809	0.7335	-0.734
Mof_H 	H 	0.9084	0.8241	0.7454	0.196
Mof_H 	H 	0.8443	0.8525	0.7023	0.187
Mof_H 	H 	0.8465	0.7984	0.7895	0.2
Mof_C 	C 	0.0191	0.655	0.6323	-0.72
Mof_H 	H 	0.0555	0.6875	0.6237	0.17
Mof_H 	H 	0.986	0.673	0.5916	0.216
Mof_H 	H 	0.0068	0.6605	0.6934	0.186
Mof_H 	H 	0.6295	0.4875	0.9144	0.08
Mof_H 	H 	0.6639	0.4598	0.0046	0.06
Mof_H 	H 	0.6558	0.5527	0.9832	0.104
Mof_H 	H 	0.123	0.5541	0.9612	0.145
Mof_H 	H 	0.116	0.4641	0.9943	0.112
Mof_H 	H 	0.1369	0.4818	0.8962	0.134
Mof_C 	C 	0.8916	0.7595	0.0519	0.283
Mof_C 	C 	0.9244	0.7935	0.1334	-0.806
Mof_H 	H 	0.9673	0.802	0.1214	0.221
Mof_H 	H 	0.9057	0.8444	0.1488	0.245
Mof_H 	H 	0.9213	0.7561	0.1827	0.226
Mof_Cu	Cu	0.26272	0.3126	0.1054	0.824
Mof_Cu	Cu	0.31598	0.31948	0.50555	0.787
Mof_Cu	Cu	0.33636	0.11017	0.43588	0.8
Mof_Cu	Cu	0.38159	0.11078	0.82832	0.799
Mof_N 	N 	0.28169	0.2753	0.2353	-0.251
Mof_N 	N 	0.28619	0.3242	0.3074	-0.102
Mof_N 	N 	0.30356	0.2808	0.3784	-0.212
Mof_N 	N 	0.31167	0.2027	0.3532	-0.28
Mof_N 	N 	0.29848	0.4335	0.5331	-0.324
Mof_N 	N 	0.25875	0.0396	0.4505	-0.198
Mof_N 	N 	0.34873	0.2342	0.5879	-0.281
Mof_N 	N 	0.35405	0.1559	0.5619	-0.207
Mof_N 	N 	0.37058	0.1118	0.6325	-0.212
Mof_N 	N 	0.37611	0.1599	0.706	-0.272
Mof_C 	C 	0.534	0.0649	0.613	0.187
Mof_N 	N 	0.40847	0.041	0.4016	-0.261
Mof_N 	N 	0.305	0.0398	0.8517	-0.192
Mof_N 	N 	0.24651	0.4333	0.1104	-0.253
Mof_N 	N 	0.45553	0.0397	0.8601	-0.207
Mof_N 	N 	0.51125	0.0669	0.8923	-0.24
Mof_N 	N 	0.41843	0.2135	0.9912	-0.274
Mof_N 	N 	0.37317	0.1943	0.9295	-0.197
Mof_N 	N 	0.17894	0.2723	0.0469	-0.193
Mof_N 	N 	0.3313	0.269	0.03	-0.258
Mof_C 	C 	0.2978	0.2013	0.2653	0.25
Mof_C 	C 	0.2997	0.1274	0.2085	-0.742
Mof_H 	H 	0.2836	0.0821	0.2409	0.195
Mof_H 	H 	0.2748	0.1358	0.1539	0.194
Mof_H 	H 	0.3418	0.1165	0.1938	0.207
Mof_H 	H 	0.4148	0.555	0.5046	0.23
Mof_H 	H 	0.4221	0.4727	0.5573	0.247
Mof_H 	H 	0.4076	0.4723	0.4527	0.247
Mof_C 	C 	0.363	0.235	0.6767	0.247
Mof_C 	C 	0.3658	0.309	0.7335	-0.719
Mof_H 	H 	0.4084	0.3241	0.7454	0.185
Mof_H 	H 	0.3443	0.3525	0.7023	0.182
Mof_H 	H 	0.3465	0.2984	0.7895	0.194
Mof_C 	C 	0.5191	0.155	0.6323	-0.61
Mof_H 	H 	0.5555	0.1875	0.6237	0.14
Mof_H 	H 	0.486	0.173	0.5916	0.162
Mof_H 	H 	0.5068	0.1605	0.6934	0.163
Mof_H 	H 	0.1295	0.9875	0.9144	-0.612
Mof_H 	H 	0.1639	0.9598	0.0046	0.307
Mof_H 	H 	0.1558	0.0527	0.9832	0.6
Mof_H 	H 	0.623	0.0541	0.9612	0.117
Mof_H 	H 	0.616	0.9641	0.9943	0.081
Mof_H 	H 	0.6369	0.9818	0.8962	0.088
Mof_C 	C 	0.3916	0.2595	0.0519	0.253
Mof_C 	C 	0.4244	0.2935	0.1334	-0.74
Mof_H 	H 	0.4673	0.302	0.1214	0.188
Mof_H 	H 	0.4057	0.3444	0.1488	0.204
Mof_H 	H 	0.4213	0.2561	0.1827	0.202
Mof_Cu	Cu	0.23728	0.8126	0.8946	0.825
Mof_Cu	Cu	0.18402	0.81948	0.49445	0.786
Mof_Cu	Cu	0.16364	0.61017	0.56412	0.798
Mof_Cu	Cu	0.11841	0.61078	0.17168	0.795
Mof_N 	N 	0.21831	0.7753	0.7647	-0.249
Mof_N 	N 	0.21381	0.8242	0.6926	-0.102
Mof_N 	N 	0.19644	0.7808	0.6216	-0.212
Mof_N 	N 	0.18833	0.7027	0.6468	-0.28
Mof_N 	N 	0.20152	0.9335	0.4669	-0.313
Mof_N 	N 	0.24125	0.5396	0.5495	-0.204
Mof_N 	N 	0.15127	0.7342	0.4121	-0.281
Mof_N 	N 	0.14595	0.6559	0.4381	-0.208
Mof_N 	N 	0.12942	0.6118	0.3675	-0.214
Mof_N 	N 	0.12389	0.6599	0.294	-0.274
Mof_C 	C 	0.966	0.5649	0.387	0.189
Mof_N 	N 	0.09153	0.541	0.5984	-0.267
Mof_N 	N 	0.195	0.5398	0.1483	-0.199
Mof_N 	N 	0.25349	0.9333	0.8896	-0.249
Mof_N 	N 	0.04447	0.5397	0.1399	-0.226
Mof_N 	N 	0.98875	0.5669	0.1077	-0.228
Mof_N 	N 	0.08157	0.7135	0.0088	-0.282
Mof_N 	N 	0.12683	0.6943	0.0705	-0.2
Mof_N 	N 	0.32106	0.7723	0.9531	-0.19
Mof_N 	N 	0.1687	0.769	0.97	-0.256
Mof_C 	C 	0.2022	0.7013	0.7347	0.241
Mof_C 	C 	0.2003	0.6274	0.7915	-0.714
Mof_H 	H 	0.2164	0.5821	0.7591	0.179
Mof_H 	H 	0.2252	0.6358	0.8461	0.177
Mof_H 	H 	0.1582	0.6165	0.8062	0.196
Mof_H 	H 	0.0852	0.055	0.4954	0.172
Mof_H 	H 	0.0779	0.9727	0.4427	0.183
Mof_H 	H 	0.0924	0.9723	0.5473	0.183
Mof_C 	C 	0.137	0.735	0.3233	0.244
Mof_C 	C 	0.1342	0.809	0.2665	-0.716
Mof_H 	H 	0.0916	0.8241	0.2546	0.181
Mof_H 	H 	0.1557	0.8525	0.2977	0.182
Mof_H 	H 	0.1535	0.7984	0.2105	0.194
Mof_C 	C 	0.9809	0.655	0.3677	-0.501
Mof_H 	H 	0.9445	0.6875	0.3763	0.111
Mof_H 	H 	0.014	0.673	0.4084	0.109
Mof_H 	H 	0.9932	0.6605	0.3066	0.14
Mof_H 	H 	0.3705	0.4875	0.0856	0.112
Mof_H 	H 	0.3361	0.4598	0.9954	0.49
Mof_H 	H 	0.3442	0.5527	0.0168	-0.355
Mof_H 	H 	0.877	0.5541	0.0388	0.148
Mof_H 	H 	0.884	0.4641	0.0057	0.115
Mof_H 	H 	0.8631	0.4818	0.1038	0.137
Mof_C 	C 	0.1084	0.7595	0.9481	0.261
Mof_C 	C 	0.0756	0.7935	0.8666	-0.753
Mof_H 	H 	0.0327	0.802	0.8786	0.187
Mof_H 	H 	0.0943	0.8444	0.8512	0.216
Mof_H 	H 	0.0787	0.7561	0.8173	0.203
Mof_Cu	Cu	0.73728	0.3126	0.8946	0.822
Mof_Cu	Cu	0.68402	0.31948	0.49445	0.787
Mof_Cu	Cu	0.66364	0.11017	0.56412	0.8
Mof_Cu	Cu	0.61841	0.11078	0.17168	0.798
Mof_N 	N 	0.71831	0.2753	0.7647	-0.251
Mof_N 	N 	0.71381	0.3242	0.6926	-0.103
Mof_N 	N 	0.69644	0.2808	0.6216	-0.212
Mof_N 	N 	0.68833	0.2027	0.6468	-0.28
Mof_N 	N 	0.70152	0.4335	0.4669	-0.324
Mof_N 	N 	0.74125	0.0396	0.5495	-0.198
Mof_N 	N 	0.65127	0.2342	0.4121	-0.281
Mof_N 	N 	0.64595	0.1559	0.4381	-0.207
Mof_N 	N 	0.62942	0.1118	0.3675	-0.212
Mof_N 	N 	0.62389	0.1599	0.294	-0.273
Mof_C 	C 	0.466	0.0649	0.387	0.187
Mof_N 	N 	0.59153	0.041	0.5984	-0.261
Mof_N 	N 	0.695	0.0398	0.1483	-0.193
Mof_N 	N 	0.75349	0.4333	0.8896	-0.255
Mof_N 	N 	0.54447	0.0397	0.1399	-0.208
Mof_N 	N 	0.48875	0.0669	0.1077	-0.241
Mof_N 	N 	0.58157	0.2135	0.0088	-0.276
Mof_N 	N 	0.62683	0.1943	0.0705	-0.197
Mof_N 	N 	0.82106	0.2723	0.9531	-0.191
Mof_N 	N 	0.6687	0.269	0.97	-0.259
Mof_C 	C 	0.7022	0.2013	0.7347	0.246
Mof_C 	C 	0.7003	0.1274	0.7915	-0.732
Mof_H 	H 	0.7164	0.0821	0.7591	0.189
Mof_H 	H 	0.7252	0.1358	0.8461	0.187
Mof_H 	H 	0.6582	0.1165	0.8062	0.204
Mof_H 	H 	0.5852	0.555	0.4954	0.231
Mof_H 	H 	0.5779	0.4727	0.4427	0.248
Mof_H 	H 	0.5924	0.4723	0.5473	0.247
Mof_C 	C 	0.637	0.235	0.3233	0.248
Mof_C 	C 	0.6342	0.309	0.2665	-0.726
Mof_H 	H 	0.5916	0.3241	0.2546	0.188
Mof_H 	H 	0.6557	0.3525	0.2977	0.186
Mof_H 	H 	0.6535	0.2984	0.2105	0.198
Mof_C 	C 	0.4809	0.155	0.3677	-0.61
Mof_H 	H 	0.4445	0.1875	0.3763	0.14
Mof_H 	H 	0.514	0.173	0.4084	0.162
Mof_H 	H 	0.4932	0.1605	0.3066	0.163
Mof_H 	H 	0.8705	0.9875	0.0856	-0.588
Mof_H 	H 	0.8361	0.9598	0.9954	0.718
Mof_H 	H 	0.8442	0.0527	0.0168	0.182
Mof_H 	H 	0.377	0.0541	0.0388	0.119
Mof_H 	H 	0.384	0.9641	0.0057	0.081
Mof_H 	H 	0.3631	0.9818	0.1038	0.09
Mof_C 	C 	0.6084	0.2595	0.9481	0.249
Mof_C 	C 	0.5756	0.2935	0.8666	-0.732
Mof_H 	H 	0.5327	0.302	0.8786	0.185
Mof_H 	H 	0.5943	0.3444	0.8512	0.194
Mof_H 	H 	0.5787	0.2561	0.8173	0.2
Mof_Cu	Cu	0.0965	0.5	0.36915	0.778
Mof_N 	N 	0.0026	0.5	0.3768	-0.328
Mof_C 	C 	0.9554	0.5	0.0905	0.294
Mof_C 	C 	0.8889	0.5	0.0566	-0.911
Mof_Cu	Cu	0.5965	2.40765e-33	0.36915	0.785
Mof_N 	N 	0.5026	-4.81529e-33	0.3768	-0.298
Mof_C 	C 	0.4554	6.01912e-34	0.0905	0.272
Mof_C 	C 	0.3889	0	0.0566	-0.804
Mof_Cu	Cu	0.9035	0.5	0.63085	0.784
Mof_N 	N 	0.9974	0.5	0.6232	-0.284
Mof_C 	C 	0.0446	0.5	0.9095	0.282
Mof_C 	C 	0.1111	0.5	0.9434	-0.899
Mof_Cu	Cu	0.4035	-4.81529e-33	0.63085	0.785
Mof_N 	N 	0.4974	4.81529e-33	0.6232	-0.298
Mof_C 	C 	0.5446	0	0.9095	0.272
Mof_C 	C 	0.6111	0	0.9434	-0.801
Mof_Cu	Cu	2.40765e-33	0.33885	-0	0.8
Mof_Cu	Cu	0.5	0.83885	-0	0.813
Mof_Cu	Cu	4.81529e-33	0.66115	-0	0.8
Mof_Cu	Cu	0.5	0.16115	-0	0.813
Mof_C 	C 	0.167	0	0.4763	0.395
Mof_C 	C 	0.0998	0	0.4918	-1.302
Mof_C 	C 	0.2231	0	0.9115	0.223
Mof_C 	C 	0.1626	-9.63059e-33	0.9575	-0.564
Mof_C 	C 	0.667	0.5	0.4763	0.463
Mof_C 	C 	0.5998	0.5	0.4918	-1.61
Mof_C 	C 	0.7231	0.5	0.9115	0.228
Mof_C 	C 	0.6626	0.5	0.9575	-0.633
Mof_C 	C 	0.833	-4.81529e-33	0.5237	0.455
Mof_C 	C 	0.9002	4.81529e-33	0.5082	-1.529
Mof_C 	C 	0.7769	0	0.0885	0.225
Mof_C 	C 	0.8374	3.00956e-34	0.0425	-0.586
Mof_C 	C 	0.333	0.5	0.5237	0.463
Mof_C 	C 	0.4002	0.5	0.5082	-1.609
Mof_C 	C 	0.2769	0.5	0.0885	0.226
Mof_C 	C 	0.3374	0.5	0.0425	-0.642
_end
