data_functionalizedCrystal
_audit_creation_method	'EQeq! by Chris Wilmer'
_symmetry_space_group_name_H-M	'P1'
_symmetry_Int_Tables_number	1
_symmetry_cell_setting	triclinic
loop_
_symmetry_equiv_pos_as_xyz
  x,y,z
_cell_length_a	10.3953
_cell_length_b	17.4542
_cell_length_c	17.4542
_cell_angle_alpha	120
_cell_angle_beta	90
_cell_angle_gamma	90
loop_
_atom_site_label
_atom_site_type_symbol
_atom_site_fract_x
_atom_site_fract_y
_atom_site_fract_z
_atom_site_charge
Mof_Zn	Zn	0.88459	0.46662	0.92866	1.165
Mof_Zn	Zn	0.55126	0.46204	0.53338	1.17
Mof_Zn	Zn	0.21792	0.07134	0.53796	1.171
Mof_Zn	Zn	0.38459	0.53338	0.07134	1.17
Mof_Zn	Zn	0.05126	0.53796	0.46662	1.175
Mof_Zn	Zn	0.71792	0.92866	0.46204	1.169
Mof_H 	H 	0.789	0.5534	0.081	0.072
Mof_H 	H 	0.9707	0.7988	0.1793	0.053
Mof_H 	H 	0.9925	0.6286	0.1577	0.153
Mof_H 	H 	0.9232	0.8964	0.3262	-0.046
Mof_H 	H 	0.7789	0.6445	0.0214	0.046
Mof_H 	H 	0.9256	0.665	0.0435	0.044
Mof_H 	H 	0.6355	0.6778	0.1595	0.056
Mof_H 	H 	0.5973	0.7768	0.3063	-0.023
Mof_H 	H 	0.8363	0.4234	0.0707	0.323
Mof_H 	H 	0.8665	0.4043	0.1476	0.344
Mof_H 	H 	0.974	0.3919	0.0794	0.335
Mof_H 	H 	0.0223	0.5207	0.1984	-0.195
Mof_H 	H 	0.8774	0.6333	0.2815	0.364
Mof_H 	H 	0.8352	0.5458	0.2789	0.36
Mof_H 	H 	0.7645	0.5765	0.2196	0.379
Mof_H 	H 	0.45567	0.5276	0.4466	0.068
Mof_H 	H 	0.63737	0.3805	0.2012	0.062
Mof_H 	H 	0.65917	0.5291	0.3714	0.169
Mof_H 	H 	0.58987	0.4298	0.1036	-0.038
Mof_H 	H 	0.44557	0.3769	0.3555	0.049
Mof_H 	H 	0.59227	0.3785	0.335	0.051
Mof_H 	H 	0.30217	0.4817	0.3222	0.058
Mof_H 	H 	0.26397	0.5295	0.2232	-0.024
Mof_H 	H 	0.50297	0.6473	0.5766	0.362
Mof_H 	H 	0.53317	0.7433	0.5957	0.385
Mof_H 	H 	0.64067	0.6875	0.6081	0.381
Mof_H 	H 	0.68897	0.6777	0.4793	-0.25
Mof_H 	H 	0.54407	0.6482	0.3667	0.406
Mof_H 	H 	0.50187	0.7331	0.4542	0.399
Mof_H 	H 	0.43117	0.6431	0.4235	0.415
Mof_H 	H 	0.12233	0.919	0.4724	0.073
Mof_H 	H 	0.30403	0.8207	0.6195	0.059
Mof_H 	H 	0.32583	0.8423	0.4709	0.171
Mof_H 	H 	0.25653	0.6738	0.5702	-0.038
Mof_H 	H 	0.11223	0.9786	0.6231	0.052
Mof_H 	H 	0.25893	0.9565	0.6215	0.05
Mof_H 	H 	0.96883	0.8405	0.5183	0.023
Mof_H 	H 	0.93063	0.6937	0.4705	-0.05
Mof_H 	H 	0.16963	0.9293	0.3527	0.379
Mof_H 	H 	0.19983	0.8524	0.2567	0.403
Mof_H 	H 	0.30733	0.9206	0.3125	0.396
Mof_H 	H 	0.35563	0.8016	0.3223	-0.259
Mof_H 	H 	0.21073	0.7185	0.3518	0.42
Mof_H 	H 	0.16853	0.7211	0.2669	0.418
Mof_H 	H 	0.09783	0.7804	0.3569	0.436
Mof_H 	H 	0.289	0.4466	0.919	0.068
Mof_H 	H 	0.4707	0.2012	0.8207	0.062
Mof_H 	H 	0.4925	0.3714	0.8423	0.168
Mof_H 	H 	0.4232	0.1036	0.6738	-0.04
Mof_H 	H 	0.2789	0.3555	0.9786	0.052
Mof_H 	H 	0.4256	0.335	0.9565	0.053
Mof_H 	H 	0.1355	0.3222	0.8405	0.062
Mof_H 	H 	0.0973	0.2232	0.6937	-0.018
Mof_H 	H 	0.3363	0.5766	0.9293	0.364
Mof_H 	H 	0.3665	0.5957	0.8524	0.388
Mof_H 	H 	0.474	0.6081	0.9206	0.383
Mof_H 	H 	0.5223	0.4793	0.8016	-0.251
Mof_H 	H 	0.3774	0.3667	0.7185	0.407
Mof_H 	H 	0.3352	0.4542	0.7211	0.402
Mof_H 	H 	0.2645	0.4235	0.7804	0.419
Mof_H 	H 	0.95567	0.4724	0.5534	0.05
Mof_H 	H 	0.13737	0.6195	0.7988	0.034
Mof_H 	H 	0.15917	0.4709	0.6286	0.16
Mof_H 	H 	0.08987	0.5702	0.8964	-0.032
Mof_H 	H 	0.94557	0.6231	0.6445	-0.011
Mof_H 	H 	0.09227	0.6215	0.665	0.015
Mof_H 	H 	0.80217	0.5183	0.6778	0.032
Mof_H 	H 	0.76397	0.4705	0.7768	-0.011
Mof_H 	H 	0.00297	0.3527	0.4234	0.354
Mof_H 	H 	0.03317	0.2567	0.4043	0.376
Mof_H 	H 	0.14067	0.3125	0.3919	0.367
Mof_H 	H 	0.18897	0.3223	0.5207	-0.227
Mof_H 	H 	0.04407	0.3518	0.6333	0.36
Mof_H 	H 	0.00187	0.2669	0.5458	0.357
Mof_H 	H 	0.93117	0.3569	0.5765	0.345
Mof_H 	H 	0.62233	0.081	0.5276	0.068
Mof_H 	H 	0.80403	0.1793	0.3805	0.056
Mof_H 	H 	0.82583	0.1577	0.5291	0.16
Mof_H 	H 	0.75653	0.3262	0.4298	-0.043
Mof_H 	H 	0.61223	0.0214	0.3769	0.048
Mof_H 	H 	0.75893	0.0435	0.3785	0.049
Mof_H 	H 	0.46883	0.1595	0.4817	0.056
Mof_H 	H 	0.43063	0.3063	0.5295	-0.024
Mof_H 	H 	0.66963	0.0707	0.6473	0.354
Mof_H 	H 	0.69983	0.1476	0.7433	0.377
Mof_H 	H 	0.80733	0.0794	0.6875	0.37
Mof_H 	H 	0.85563	0.1984	0.6777	-0.252
Mof_H 	H 	0.71073	0.2815	0.6482	0.398
Mof_H 	H 	0.66853	0.2789	0.7331	0.393
Mof_H 	H 	0.59783	0.2196	0.6431	0.409
Mof_C 	C 	0.0907	0.5249	0.0576	0.466
Mof_C 	C 	0.8956	0.792	0.2042	-0.204
Mof_C 	C 	0.9723	0.5665	0.1161	-0.479
Mof_C 	C 	0.8658	0.8511	0.2924	0.072
Mof_C 	C 	0.812	0.7232	0.1543	0.124
Mof_C 	C 	0.8463	0.65	0.0623	-0.173
Mof_C 	C 	0.6969	0.7203	0.1928	-0.191
Mof_C 	C 	0.6736	0.7807	0.2806	0.06
Mof_C 	C 	0.9009	0.4267	0.1116	-1.172
Mof_C 	C 	0.9417	0.5221	0.17	0.739
Mof_C 	C 	0.8458	0.5742	0.2443	-1.218
Mof_C 	C 	0.75737	0.5327	0.4751	0.459
Mof_C 	C 	0.56227	0.4122	0.208	-0.204
Mof_C 	C 	0.63897	0.5496	0.4335	-0.502
Mof_C 	C 	0.53247	0.4413	0.1489	0.076
Mof_C 	C 	0.47867	0.4311	0.2768	0.129
Mof_C 	C 	0.51297	0.4123	0.35	-0.178
Mof_C 	C 	0.36357	0.4725	0.2797	-0.194
Mof_C 	C 	0.34027	0.4999	0.2193	0.064
Mof_C 	C 	0.56757	0.6849	0.5733	-1.298
Mof_C 	C 	0.60837	0.6479	0.4779	0.857
Mof_C 	C 	0.51247	0.6701	0.4258	-1.34
Mof_C 	C 	0.42403	0.9424	0.4673	0.458
Mof_C 	C 	0.22893	0.7958	0.5878	-0.197
Mof_C 	C 	0.30563	0.8839	0.4504	-0.511
Mof_C 	C 	0.19913	0.7076	0.5587	0.073
Mof_C 	C 	0.14533	0.8457	0.5689	0.114
Mof_C 	C 	0.17963	0.9377	0.5877	-0.169
Mof_C 	C 	0.03023	0.8072	0.5275	-0.154
Mof_C 	C 	0.00693	0.7194	0.5001	0.094
Mof_C 	C 	0.23423	0.8884	0.3151	-1.34
Mof_C 	C 	0.27503	0.83	0.3521	0.888
Mof_C 	C 	0.17913	0.7557	0.3299	-1.385
Mof_C 	C 	0.5907	0.4751	0.9424	0.454
Mof_C 	C 	0.3956	0.208	0.7958	-0.205
Mof_C 	C 	0.4723	0.4335	0.8839	-0.502
Mof_C 	C 	0.3658	0.1489	0.7076	0.077
Mof_C 	C 	0.312	0.2768	0.8457	0.131
Mof_C 	C 	0.3463	0.35	0.9377	-0.18
Mof_C 	C 	0.1969	0.2797	0.8072	-0.194
Mof_C 	C 	0.1736	0.2193	0.7194	0.064
Mof_C 	C 	0.4009	0.5733	0.8884	-1.304
Mof_C 	C 	0.4417	0.4779	0.83	0.862
Mof_C 	C 	0.3458	0.4258	0.7557	-1.347
Mof_C 	C 	0.25737	0.4673	0.5249	0.448
Mof_C 	C 	0.06227	0.5878	0.792	-0.113
Mof_C 	C 	0.13897	0.4504	0.5665	-0.469
Mof_C 	C 	0.03247	0.5587	0.8511	0.068
Mof_C 	C 	0.97867	0.5689	0.7232	0.007
Mof_C 	C 	0.01297	0.5877	0.65	-0.035
Mof_C 	C 	0.86357	0.5275	0.7203	-0.127
Mof_C 	C 	0.84027	0.5001	0.7807	0.022
Mof_C 	C 	0.06757	0.3151	0.4267	-1.237
Mof_C 	C 	0.10837	0.3521	0.5221	0.785
Mof_C 	C 	0.01247	0.3299	0.5742	-1.166
Mof_C 	C 	0.92403	0.0576	0.5327	0.417
Mof_C 	C 	0.72893	0.2042	0.4122	-0.204
Mof_C 	C 	0.80563	0.1161	0.5496	-0.485
Mof_C 	C 	0.69913	0.2924	0.4413	0.075
Mof_C 	C 	0.64533	0.1543	0.4311	0.126
Mof_C 	C 	0.67963	0.0623	0.4123	-0.176
Mof_C 	C 	0.53023	0.1928	0.4725	-0.193
Mof_C 	C 	0.50693	0.2806	0.4999	0.062
Mof_C 	C 	0.73423	0.1116	0.6849	-1.274
Mof_C 	C 	0.77503	0.17	0.6479	0.839
Mof_C 	C 	0.67913	0.2443	0.6701	-1.321
Mof_N 	N 	0.7578	0.8444	0.3297	-0.278
Mof_N 	N 	0.8623	0.5647	0.06	-0.203
Mof_N 	N 	0.42447	0.4853	0.1556	-0.277
Mof_N 	N 	0.52897	0.4953	0.4353	-0.196
Mof_N 	N 	0.09113	0.6703	0.5147	-0.278
Mof_N 	N 	0.19563	0.94	0.5047	-0.197
Mof_N 	N 	0.2578	0.1556	0.6703	-0.277
Mof_N 	N 	0.3623	0.4353	0.94	-0.196
Mof_N 	N 	0.92447	0.5147	0.8444	-0.283
Mof_N 	N 	0.02897	0.5047	0.5647	-0.197
Mof_N 	N 	0.59113	0.3297	0.4853	-0.278
Mof_N 	N 	0.69563	0.06	0.4953	-0.199
Mof_O 	O 	0.1927	0.5339	0.0993	-0.526
Mof_O 	O 	0.081	0.486	0.9745	-0.507
Mof_O 	O 	0.85937	0.5654	0.4661	-0.536
Mof_O 	O 	0.74767	0.4885	0.514	-0.519
Mof_O 	O 	0.52603	0.9007	0.4346	-0.529
Mof_O 	O 	0.41433	0.0255	0.5115	-0.516
Mof_O 	O 	0.6927	0.4661	0.9007	-0.53
Mof_O 	O 	0.581	0.514	0.0255	-0.515
Mof_O 	O 	0.35937	0.4346	0.5339	-0.525
Mof_O 	O 	0.24767	0.5115	0.486	-0.514
Mof_O 	O 	0.02603	0.0993	0.5654	-0.494
Mof_O 	O 	0.91433	0.9745	0.4885	-0.517
_end
