data_functionalizedCrystal
_audit_creation_method	'EQeq! by Chris Wilmer'
_symmetry_space_group_name_H-M	'P1'
_symmetry_Int_Tables_number	1
_symmetry_cell_setting	triclinic
loop_
_symmetry_equiv_pos_as_xyz
  x,y,z
_cell_length_a	11.0837
_cell_length_b	11.1496
_cell_length_c	16.937
_cell_angle_alpha	90
_cell_angle_beta	97.534
_cell_angle_gamma	90
loop_
_atom_site_label
_atom_site_type_symbol
_atom_site_fract_x
_atom_site_fract_y
_atom_site_fract_z
_atom_site_charge
Mof_Cu	Cu	0.5	0.54209	0.25	0.889
Mof_Cu	Cu	0.5	0.45791	0.75	0.89
Mof_H 	H 	0.2771	0.451	0.1551	0.006
Mof_H 	H 	0.0666	0.4342	0.1551	0.093
Mof_H 	H 	0.1149	0.6223	0.3615	0.087
Mof_H 	H 	0.3269	0.6384	0.354	0.019
Mof_H 	H 	0.3608	0.7415	0.1682	-0.003
Mof_H 	H 	0.355	0.9493	0.164	0.098
Mof_H 	H 	0.5764	0.137	0.1493	0.085
Mof_H 	H 	0.5812	0.3397	0.153	0.019
Mof_H 	H 	0.7229	0.451	0.3449	0.005
Mof_H 	H 	0.9334	0.4342	0.3449	0.092
Mof_H 	H 	0.8851	0.6223	0.1385	0.086
Mof_H 	H 	0.6731	0.6384	0.146	0.018
Mof_H 	H 	0.6392	0.7415	0.3318	-0.004
Mof_H 	H 	0.645	0.9493	0.336	0.097
Mof_H 	H 	0.4236	0.137	0.3507	0.084
Mof_H 	H 	0.4188	0.3397	0.347	0.019
Mof_H 	H 	0.7229	0.549	0.8449	0.005
Mof_H 	H 	0.9334	0.5658	0.8449	0.092
Mof_H 	H 	0.8851	0.3777	0.6385	0.086
Mof_H 	H 	0.6731	0.3616	0.646	0.012
Mof_H 	H 	0.3965	0.2563	0.8368	0.005
Mof_H 	H 	0.3913	0.0442	0.8384	0.084
Mof_H 	H 	0.4236	0.863	0.8507	0.079
Mof_H 	H 	0.4188	0.6603	0.847	0.018
Mof_H 	H 	0.2771	0.549	0.6551	0.005
Mof_H 	H 	0.0666	0.5658	0.6551	0.093
Mof_H 	H 	0.1149	0.3777	0.8615	0.086
Mof_H 	H 	0.3269	0.3616	0.854	0.012
Mof_H 	H 	0.6035	0.2563	0.6632	0.005
Mof_H 	H 	0.6087	0.0442	0.6616	0.084
Mof_H 	H 	0.5764	0.863	0.6493	0.079
Mof_H 	H 	0.5812	0.6603	0.653	0.018
Mof_C 	C 	0.2405	0.4892	0.1962	0.098
Mof_C 	C 	0.1175	0.4789	0.1939	-0.151
Mof_C 	C 	0.078	0.5395	0.253	0.074
Mof_C 	C 	0.1496	0.5922	0.3171	-0.128
Mof_C 	C 	0.2731	0.5993	0.3138	0.078
Mof_C 	C 	0.4184	0.7877	0.2019	0.127
Mof_C 	C 	0.4145	0.9081	0.1994	-0.167
Mof_C 	C 	0.5451	0.1763	0.192	-0.11
Mof_C 	C 	0.547	0.2956	0.1926	0.08
Mof_C 	C 	0.7595	0.4892	0.3038	0.098
Mof_C 	C 	0.8825	0.4789	0.3061	-0.152
Mof_C 	C 	0.922	0.5395	0.247	0.075
Mof_C 	C 	0.8504	0.5922	0.1829	-0.129
Mof_C 	C 	0.7269	0.5993	0.1862	0.078
Mof_C 	C 	0.5816	0.7877	0.2981	0.127
Mof_C 	C 	0.5855	0.9081	0.3006	-0.167
Mof_C 	C 	0.4549	0.1763	0.308	-0.11
Mof_C 	C 	0.453	0.2956	0.3074	0.08
Mof_C 	C 	0.7595	0.5108	0.8038	0.1
Mof_C 	C 	0.8825	0.5211	0.8061	-0.152
Mof_C 	C 	0.922	0.4605	0.747	0.075
Mof_C 	C 	0.8504	0.4078	0.6829	-0.13
Mof_C 	C 	0.7269	0.4007	0.6862	0.081
Mof_C 	C 	0.4381	0.2105	0.8016	0.094
Mof_C 	C 	0.4351	0.0874	0.8031	-0.135
Mof_C 	C 	0.4549	0.8237	0.808	-0.111
Mof_C 	C 	0.453	0.7044	0.8074	0.081
Mof_C 	C 	0.2405	0.5108	0.6962	0.1
Mof_C 	C 	0.1175	0.5211	0.6939	-0.152
Mof_C 	C 	0.078	0.4605	0.753	0.076
Mof_C 	C 	0.1496	0.4078	0.8171	-0.13
Mof_C 	C 	0.2731	0.4007	0.8138	0.081
Mof_C 	C 	0.5619	0.2105	0.6984	0.094
Mof_C 	C 	0.5649	0.0874	0.6969	-0.135
Mof_C 	C 	0.5451	0.8237	0.692	-0.111
Mof_C 	C 	0.547	0.7044	0.6926	0.081
Mof_C 	C 	0.5	0.9691	0.25	0.094
Mof_C 	C 	0.5	0.1033	0.25	0.035
Mof_C 	C 	0.5	0.0309	0.75	0.076
Mof_C 	C 	0.5	0.8967	0.75	0.043
Mof_S 	S 	0.4551	0.5523	0.0302	0.401
Mof_S 	S 	0.5449	0.5523	0.4698	0.402
Mof_S 	S 	0.5449	0.4477	0.9698	0.403
Mof_S 	S 	0.4551	0.4477	0.5302	0.402
Mof_N 	N 	0.3125	0.548	0.2509	-0.218
Mof_N 	N 	0.6875	0.548	0.2491	-0.218
Mof_N 	N 	0.6875	0.452	0.7491	-0.218
Mof_N 	N 	0.3125	0.452	0.7509	-0.218
Mof_N 	N 	0.5	0.7363	0.25	-0.227
Mof_N 	N 	0.5	0.35	0.25	-0.21
Mof_N 	N 	0.5	0.2637	0.75	-0.207
Mof_N 	N 	0.5	0.65	0.75	-0.21
Mof_O 	O 	0.4679	0.5466	0.1084	-0.343
Mof_O 	O 	0.335	0.5822	0.9847	-0.216
Mof_O 	O 	0.5101	0.6699	0.0103	-0.212
Mof_O 	O 	0.5321	0.5466	0.3916	-0.343
Mof_O 	O 	0.665	0.5822	0.5153	-0.216
Mof_O 	O 	0.4899	0.6699	0.4897	-0.212
Mof_O 	O 	0.5321	0.4534	0.8916	-0.342
Mof_O 	O 	0.665	0.4178	0.0153	-0.215
Mof_O 	O 	0.4899	0.3301	0.9897	-0.213
Mof_O 	O 	0.4679	0.4534	0.6084	-0.342
Mof_O 	O 	0.335	0.4178	0.4847	-0.214
Mof_O 	O 	0.5101	0.3301	0.5103	-0.213
_end
