data_functionalizedCrystal
_audit_creation_method	'EQeq! by Chris Wilmer'
_symmetry_space_group_name_H-M	'P1'
_symmetry_Int_Tables_number	1
_symmetry_cell_setting	triclinic
loop_
_symmetry_equiv_pos_as_xyz
  x,y,z
_cell_length_a	8.7682
_cell_length_b	20.4694
_cell_length_c	33.851
_cell_angle_alpha	90
_cell_angle_beta	90
_cell_angle_gamma	90
loop_
_atom_site_label
_atom_site_type_symbol
_atom_site_fract_x
_atom_site_fract_y
_atom_site_fract_z
_atom_site_charge
Mof_O 	O 	0.2456	0.3317	0.679	-0.589
Mof_C 	C 	0.1063	0.3197	0.6817	0.593
Mof_O 	O 	0.0094	0.3369	0.657	-0.641
Mof_C 	C 	0.0514	0.2846	0.7176	-0.169
Mof_C 	C 	0.152	0.2649	0.7462	0.012
Mof_C 	C 	0.1014	0.2288	0.7781	0.013
Mof_O 	O 	0.2473	0.4569	0.6334	-0.623
Mof_C 	C 	0.2597	0.5915	0.6247	0.015
Mof_H 	H 	0.2557	0.2757	0.7436	0.041
Mof_H 	H 	0.1725	0.2144	0.797	0.028
Mof_H 	H 	0.3526	0.5687	0.626	0.034
Mof_O 	O 	0.2456	0.8317	0.179	-0.589
Mof_C 	C 	0.1063	0.8197	0.1817	0.587
Mof_O 	O 	0.0094	0.8369	0.157	-0.638
Mof_C 	C 	0.0514	0.7846	0.2176	-0.159
Mof_C 	C 	0.152	0.7649	0.2462	0.001
Mof_C 	C 	0.1014	0.7288	0.2781	0.026
Mof_O 	O 	0.2473	0.9569	0.1334	-0.623
Mof_C 	C 	0.2597	0.0915	0.1247	0.017
Mof_H 	H 	0.2557	0.7757	0.2436	0.045
Mof_H 	H 	0.1725	0.7144	0.297	0.024
Mof_H 	H 	0.3526	0.0687	0.126	0.033
Mof_O 	O 	0.7456	0.3317	0.179	-0.589
Mof_C 	C 	0.6063	0.3197	0.1817	0.59
Mof_O 	O 	0.5094	0.3369	0.157	-0.641
Mof_C 	C 	0.5514	0.2846	0.2176	-0.165
Mof_C 	C 	0.652	0.2649	0.2462	0.006
Mof_C 	C 	0.6014	0.2288	0.2781	0.02
Mof_O 	O 	0.7473	0.4569	0.1334	-0.623
Mof_C 	C 	0.7597	0.5915	0.1247	0.014
Mof_H 	H 	0.7557	0.2757	0.2436	0.043
Mof_H 	H 	0.6725	0.2144	0.297	0.026
Mof_H 	H 	0.8526	0.5687	0.126	0.034
Mof_O 	O 	0.7456	0.8317	0.679	-0.589
Mof_C 	C 	0.6063	0.8197	0.6817	0.59
Mof_O 	O 	0.5094	0.8369	0.657	-0.641
Mof_C 	C 	0.5514	0.7846	0.7176	-0.165
Mof_C 	C 	0.652	0.7649	0.7462	0.006
Mof_C 	C 	0.6014	0.7288	0.7781	0.02
Mof_O 	O 	0.7473	0.9569	0.6334	-0.623
Mof_C 	C 	0.7597	0.0915	0.6247	0.014
Mof_H 	H 	0.7557	0.7757	0.7436	0.043
Mof_H 	H 	0.6725	0.7144	0.797	0.026
Mof_H 	H 	0.8526	0.0687	0.626	0.035
Mof_O 	O 	0.5044	0.4183	0.679	-0.59
Mof_C 	C 	0.6437	0.4303	0.6817	0.59
Mof_O 	O 	0.7406	0.4131	0.657	-0.641
Mof_C 	C 	0.6986	0.4654	0.7176	-0.165
Mof_C 	C 	0.598	0.4851	0.7462	0.006
Mof_C 	C 	0.6486	0.5212	0.7781	0.02
Mof_O 	O 	0.5027	0.2931	0.6334	-0.623
Mof_C 	C 	0.4903	0.1585	0.6247	0.015
Mof_H 	H 	0.4943	0.4743	0.7436	0.043
Mof_H 	H 	0.5775	0.5356	0.797	0.026
Mof_H 	H 	0.3974	0.1813	0.626	0.034
Mof_O 	O 	0.5044	0.9183	0.179	-0.589
Mof_C 	C 	0.6437	0.9303	0.1817	0.587
Mof_O 	O 	0.7406	0.9131	0.157	-0.64
Mof_C 	C 	0.6986	0.9654	0.2176	-0.159
Mof_C 	C 	0.598	0.9851	0.2462	-0.002
Mof_C 	C 	0.6486	0.0212	0.2781	0.028
Mof_O 	O 	0.5027	0.7931	0.1334	-0.623
Mof_C 	C 	0.4903	0.6585	0.1247	0.015
Mof_H 	H 	0.4943	0.9743	0.2436	0.046
Mof_H 	H 	0.5775	0.0356	0.297	0.024
Mof_H 	H 	0.3974	0.6813	0.126	0.034
Mof_O 	O 	0.0044	0.4183	0.179	-0.589
Mof_C 	C 	0.1437	0.4303	0.1817	0.59
Mof_O 	O 	0.2406	0.4131	0.157	-0.641
Mof_C 	C 	0.1986	0.4654	0.2176	-0.165
Mof_C 	C 	0.098	0.4851	0.2462	0.007
Mof_C 	C 	0.1486	0.5212	0.2781	0.019
Mof_O 	O 	0.0027	0.2931	0.1334	-0.622
Mof_C 	C 	0.9903	0.1585	0.1247	0.012
Mof_H 	H 	0.9943	0.4743	0.2436	0.042
Mof_H 	H 	0.0775	0.5356	0.297	0.026
Mof_H 	H 	0.8974	0.1813	0.126	0.035
Mof_O 	O 	0.0044	0.9183	0.679	-0.588
Mof_C 	C 	0.1437	0.9303	0.6817	0.592
Mof_O 	O 	0.2406	0.9131	0.657	-0.642
Mof_C 	C 	0.1986	0.9654	0.7176	-0.172
Mof_C 	C 	0.098	0.9851	0.7462	0.02
Mof_C 	C 	0.1486	0.0212	0.7781	0.008
Mof_O 	O 	0.0027	0.7931	0.6334	-0.621
Mof_C 	C 	0.9903	0.6585	0.6247	0.011
Mof_H 	H 	0.9943	0.9743	0.7436	0.036
Mof_H 	H 	0.0775	0.0356	0.797	0.029
Mof_H 	H 	0.8974	0.6813	0.626	0.035
Mof_O 	O 	0.5044	0.3317	0.071	-0.589
Mof_C 	C 	0.6437	0.3197	0.0683	0.589
Mof_O 	O 	0.7406	0.3369	0.093	-0.641
Mof_C 	C 	0.6986	0.2846	0.0324	-0.162
Mof_C 	C 	0.598	0.2649	0.0038	0.002
Mof_C 	C 	0.6486	0.2288	0.9719	0.024
Mof_O 	O 	0.5027	0.4569	0.1166	-0.623
Mof_C 	C 	0.4903	0.5915	0.1253	0.015
Mof_H 	H 	0.4943	0.2757	0.0064	0.044
Mof_H 	H 	0.5775	0.2144	0.953	0.025
Mof_H 	H 	0.3974	0.5687	0.124	0.034
Mof_O 	O 	0.5044	0.8317	0.571	-0.59
Mof_C 	C 	0.6437	0.8197	0.5683	0.59
Mof_O 	O 	0.7406	0.8369	0.593	-0.641
Mof_C 	C 	0.6986	0.7846	0.5324	-0.166
Mof_C 	C 	0.598	0.7649	0.5038	0.007
Mof_C 	C 	0.6486	0.7288	0.4719	0.019
Mof_O 	O 	0.5027	0.9569	0.6166	-0.623
Mof_C 	C 	0.4903	0.0915	0.6253	0.014
Mof_H 	H 	0.4943	0.7757	0.5064	0.043
Mof_H 	H 	0.5775	0.7144	0.453	0.027
Mof_H 	H 	0.3974	0.0687	0.624	0.034
Mof_O 	O 	0.0044	0.3317	0.571	-0.59
Mof_C 	C 	0.1437	0.3197	0.5683	0.589
Mof_O 	O 	0.2406	0.3369	0.593	-0.641
Mof_C 	C 	0.1986	0.2846	0.5324	-0.164
Mof_C 	C 	0.098	0.2649	0.5038	0.002
Mof_C 	C 	0.1486	0.2288	0.4719	0.022
Mof_O 	O 	0.0027	0.4569	0.6166	-0.623
Mof_C 	C 	0.9903	0.5915	0.6253	0.014
Mof_H 	H 	0.9943	0.2757	0.5064	0.045
Mof_H 	H 	0.0775	0.2144	0.453	0.025
Mof_H 	H 	0.8974	0.5687	0.624	0.034
Mof_O 	O 	0.0044	0.8317	0.071	-0.587
Mof_C 	C 	0.1437	0.8197	0.0683	0.591
Mof_O 	O 	0.2406	0.8369	0.093	-0.641
Mof_C 	C 	0.1986	0.7846	0.0324	-0.169
Mof_C 	C 	0.098	0.7649	0.0038	0.015
Mof_C 	C 	0.1486	0.7288	0.9719	0.014
Mof_O 	O 	0.0027	0.9569	0.1166	-0.621
Mof_C 	C 	0.9903	0.0915	0.1253	0.018
Mof_H 	H 	0.9943	0.7757	0.0064	0.038
Mof_H 	H 	0.0775	0.7144	0.953	0.028
Mof_H 	H 	0.8974	0.0687	0.124	0.033
Mof_O 	O 	0.2456	0.4183	0.071	-0.589
Mof_C 	C 	0.1063	0.4303	0.0683	0.59
Mof_O 	O 	0.0094	0.4131	0.093	-0.64
Mof_C 	C 	0.0514	0.4654	0.0324	-0.164
Mof_C 	C 	0.152	0.4851	0.0038	0.007
Mof_C 	C 	0.1014	0.5212	0.9719	0.018
Mof_O 	O 	0.2473	0.2931	0.1166	-0.623
Mof_C 	C 	0.2597	0.1585	0.1253	0.012
Mof_H 	H 	0.2557	0.4743	0.0064	0.043
Mof_H 	H 	0.1725	0.5356	0.953	0.027
Mof_H 	H 	0.3526	0.1813	0.124	0.035
Mof_O 	O 	0.2456	0.9183	0.571	-0.589
Mof_C 	C 	0.1063	0.9303	0.5683	0.589
Mof_O 	O 	0.0094	0.9131	0.593	-0.639
Mof_C 	C 	0.0514	0.9654	0.5324	-0.162
Mof_C 	C 	0.152	0.9851	0.5038	0.01
Mof_C 	C 	0.1014	0.0212	0.4719	0.013
Mof_O 	O 	0.2473	0.7931	0.6166	-0.622
Mof_C 	C 	0.2597	0.6585	0.6253	0.013
Mof_H 	H 	0.2557	0.9743	0.5064	0.042
Mof_H 	H 	0.1725	0.0356	0.453	0.028
Mof_H 	H 	0.3526	0.6813	0.624	0.035
Mof_O 	O 	0.7456	0.4183	0.571	-0.59
Mof_C 	C 	0.6063	0.4303	0.5683	0.59
Mof_O 	O 	0.5094	0.4131	0.593	-0.641
Mof_C 	C 	0.5514	0.4654	0.5324	-0.165
Mof_C 	C 	0.652	0.4851	0.5038	0.006
Mof_C 	C 	0.6014	0.5212	0.4719	0.02
Mof_O 	O 	0.7473	0.2931	0.6166	-0.623
Mof_C 	C 	0.7597	0.1585	0.6253	0.015
Mof_H 	H 	0.7557	0.4743	0.5064	0.043
Mof_H 	H 	0.6725	0.5356	0.453	0.026
Mof_H 	H 	0.8526	0.1813	0.624	0.034
Mof_O 	O 	0.7456	0.9183	0.071	-0.589
Mof_C 	C 	0.6063	0.9303	0.0683	0.59
Mof_O 	O 	0.5094	0.9131	0.093	-0.641
Mof_C 	C 	0.5514	0.9654	0.0324	-0.165
Mof_C 	C 	0.652	0.9851	0.0038	0.005
Mof_C 	C 	0.6014	0.0212	0.9719	0.021
Mof_O 	O 	0.7473	0.7931	0.1166	-0.622
Mof_C 	C 	0.7597	0.6585	0.1253	0.014
Mof_H 	H 	0.7557	0.9743	0.0064	0.043
Mof_H 	H 	0.6725	0.0356	0.953	0.026
Mof_H 	H 	0.8526	0.6813	0.124	0.034
Mof_O 	O 	0.7544	0.6683	0.321	-0.59
Mof_C 	C 	0.8937	0.6803	0.3183	0.592
Mof_O 	O 	0.9906	0.6631	0.343	-0.642
Mof_C 	C 	0.9486	0.7154	0.2824	-0.17
Mof_C 	C 	0.848	0.7351	0.2538	0.011
Mof_C 	C 	0.8986	0.7712	0.2219	0.012
Mof_O 	O 	0.7527	0.5431	0.3666	-0.623
Mof_C 	C 	0.7403	0.4085	0.3753	0.015
Mof_H 	H 	0.7443	0.7243	0.2564	0.041
Mof_H 	H 	0.8275	0.7856	0.203	0.028
Mof_H 	H 	0.6474	0.4313	0.374	0.034
Mof_O 	O 	0.7544	0.1683	0.821	-0.589
Mof_C 	C 	0.8937	0.1803	0.8183	0.587
Mof_O 	O 	0.9906	0.1631	0.843	-0.638
Mof_C 	C 	0.9486	0.2154	0.7824	-0.159
Mof_C 	C 	0.848	0.2351	0.7538	0.001
Mof_C 	C 	0.8986	0.2712	0.7219	0.026
Mof_O 	O 	0.7527	0.0431	0.8666	-0.623
Mof_C 	C 	0.7403	0.9085	0.8753	0.017
Mof_H 	H 	0.7443	0.2243	0.7564	0.045
Mof_H 	H 	0.8275	0.2856	0.703	0.024
Mof_H 	H 	0.6474	0.9313	0.874	0.033
Mof_O 	O 	0.2544	0.6683	0.821	-0.589
Mof_C 	C 	0.3937	0.6803	0.8183	0.59
Mof_O 	O 	0.4906	0.6631	0.843	-0.641
Mof_C 	C 	0.4486	0.7154	0.7824	-0.165
Mof_C 	C 	0.348	0.7351	0.7538	0.006
Mof_C 	C 	0.3986	0.7712	0.7219	0.02
Mof_O 	O 	0.2527	0.5431	0.8666	-0.623
Mof_C 	C 	0.2403	0.4085	0.8753	0.014
Mof_H 	H 	0.2443	0.7243	0.7564	0.043
Mof_H 	H 	0.3275	0.7856	0.703	0.026
Mof_H 	H 	0.1474	0.4313	0.874	0.034
Mof_O 	O 	0.2544	0.1683	0.321	-0.589
Mof_C 	C 	0.3937	0.1803	0.3183	0.59
Mof_O 	O 	0.4906	0.1631	0.343	-0.641
Mof_C 	C 	0.4486	0.2154	0.2824	-0.165
Mof_C 	C 	0.348	0.2351	0.2538	0.006
Mof_C 	C 	0.3986	0.2712	0.2219	0.02
Mof_O 	O 	0.2527	0.0431	0.3666	-0.623
Mof_C 	C 	0.2403	0.9085	0.3753	0.014
Mof_H 	H 	0.2443	0.2243	0.2564	0.043
Mof_H 	H 	0.3275	0.2856	0.203	0.026
Mof_H 	H 	0.1474	0.9313	0.374	0.035
Mof_O 	O 	0.4956	0.5817	0.321	-0.59
Mof_C 	C 	0.3563	0.5697	0.3183	0.59
Mof_O 	O 	0.2594	0.5869	0.343	-0.641
Mof_C 	C 	0.3014	0.5346	0.2824	-0.165
Mof_C 	C 	0.402	0.5149	0.2538	0.006
Mof_C 	C 	0.3514	0.4788	0.2219	0.02
Mof_O 	O 	0.4973	0.7069	0.3666	-0.623
Mof_C 	C 	0.5097	0.8415	0.3753	0.015
Mof_H 	H 	0.5057	0.5257	0.2564	0.043
Mof_H 	H 	0.4225	0.4644	0.203	0.026
Mof_H 	H 	0.6026	0.8187	0.374	0.034
Mof_O 	O 	0.4956	0.0817	0.821	-0.589
Mof_C 	C 	0.3563	0.0697	0.8183	0.587
Mof_O 	O 	0.2594	0.0869	0.843	-0.64
Mof_C 	C 	0.3014	0.0346	0.7824	-0.159
Mof_C 	C 	0.402	0.0149	0.7538	-0.002
Mof_C 	C 	0.3514	0.9788	0.7219	0.028
Mof_O 	O 	0.4973	0.2069	0.8666	-0.623
Mof_C 	C 	0.5097	0.3415	0.8753	0.015
Mof_H 	H 	0.5057	0.0257	0.7564	0.046
Mof_H 	H 	0.4225	0.9644	0.703	0.024
Mof_H 	H 	0.6026	0.3187	0.874	0.034
Mof_O 	O 	0.9956	0.5817	0.821	-0.589
Mof_C 	C 	0.8563	0.5697	0.8183	0.59
Mof_O 	O 	0.7594	0.5869	0.843	-0.641
Mof_C 	C 	0.8014	0.5346	0.7824	-0.165
Mof_C 	C 	0.902	0.5149	0.7538	0.007
Mof_C 	C 	0.8514	0.4788	0.7219	0.019
Mof_O 	O 	0.9973	0.7069	0.8666	-0.622
Mof_C 	C 	0.0097	0.8415	0.8753	0.012
Mof_H 	H 	0.0057	0.5257	0.7564	0.042
Mof_H 	H 	0.9225	0.4644	0.703	0.026
Mof_H 	H 	0.1026	0.8187	0.874	0.035
Mof_O 	O 	0.9956	0.0817	0.321	-0.588
Mof_C 	C 	0.8563	0.0697	0.3183	0.592
Mof_O 	O 	0.7594	0.0869	0.343	-0.642
Mof_C 	C 	0.8014	0.0346	0.2824	-0.172
Mof_C 	C 	0.902	0.0149	0.2538	0.02
Mof_C 	C 	0.8514	0.9788	0.2219	0.008
Mof_O 	O 	0.9973	0.2069	0.3666	-0.621
Mof_C 	C 	0.0097	0.3415	0.3753	0.011
Mof_H 	H 	0.0057	0.0257	0.2564	0.036
Mof_H 	H 	0.9225	0.9644	0.203	0.029
Mof_H 	H 	0.1026	0.3187	0.374	0.035
Mof_O 	O 	0.4956	0.6683	0.929	-0.589
Mof_C 	C 	0.3563	0.6803	0.9317	0.589
Mof_O 	O 	0.2594	0.6631	0.907	-0.641
Mof_C 	C 	0.3014	0.7154	0.9676	-0.162
Mof_C 	C 	0.402	0.7351	0.9962	0.002
Mof_C 	C 	0.3514	0.7712	0.0281	0.024
Mof_O 	O 	0.4973	0.5431	0.8834	-0.623
Mof_C 	C 	0.5097	0.4085	0.8747	0.015
Mof_H 	H 	0.5057	0.7243	0.9936	0.044
Mof_H 	H 	0.4225	0.7856	0.047	0.025
Mof_H 	H 	0.6026	0.4313	0.876	0.034
Mof_O 	O 	0.4956	0.1683	0.429	-0.59
Mof_C 	C 	0.3563	0.1803	0.4317	0.59
Mof_O 	O 	0.2594	0.1631	0.407	-0.641
Mof_C 	C 	0.3014	0.2154	0.4676	-0.166
Mof_C 	C 	0.402	0.2351	0.4962	0.007
Mof_C 	C 	0.3514	0.2712	0.5281	0.019
Mof_O 	O 	0.4973	0.0431	0.3834	-0.623
Mof_C 	C 	0.5097	0.9085	0.3747	0.014
Mof_H 	H 	0.5057	0.2243	0.4936	0.043
Mof_H 	H 	0.4225	0.2856	0.547	0.027
Mof_H 	H 	0.6026	0.9313	0.376	0.034
Mof_O 	O 	0.9956	0.6683	0.429	-0.59
Mof_C 	C 	0.8563	0.6803	0.4317	0.589
Mof_O 	O 	0.7594	0.6631	0.407	-0.641
Mof_C 	C 	0.8014	0.7154	0.4676	-0.164
Mof_C 	C 	0.902	0.7351	0.4962	0.002
Mof_C 	C 	0.8514	0.7712	0.5281	0.022
Mof_O 	O 	0.9973	0.5431	0.3834	-0.623
Mof_C 	C 	0.0097	0.4085	0.3747	0.014
Mof_H 	H 	0.0057	0.7243	0.4936	0.045
Mof_H 	H 	0.9225	0.7856	0.547	0.025
Mof_H 	H 	0.1026	0.4313	0.376	0.034
Mof_O 	O 	0.9956	0.1683	0.929	-0.587
Mof_C 	C 	0.8563	0.1803	0.9317	0.591
Mof_O 	O 	0.7594	0.1631	0.907	-0.641
Mof_C 	C 	0.8014	0.2154	0.9676	-0.169
Mof_C 	C 	0.902	0.2351	0.9962	0.015
Mof_C 	C 	0.8514	0.2712	0.0281	0.014
Mof_O 	O 	0.9973	0.0431	0.8834	-0.621
Mof_C 	C 	0.0097	0.9085	0.8747	0.018
Mof_H 	H 	0.0057	0.2243	0.9936	0.038
Mof_H 	H 	0.9225	0.2856	0.047	0.028
Mof_H 	H 	0.1026	0.9313	0.876	0.033
Mof_O 	O 	0.7544	0.5817	0.929	-0.589
Mof_C 	C 	0.8937	0.5697	0.9317	0.59
Mof_O 	O 	0.9906	0.5869	0.907	-0.64
Mof_C 	C 	0.9486	0.5346	0.9676	-0.164
Mof_C 	C 	0.848	0.5149	0.9962	0.007
Mof_C 	C 	0.8986	0.4788	0.0281	0.018
Mof_O 	O 	0.7527	0.7069	0.8834	-0.623
Mof_C 	C 	0.7403	0.8415	0.8747	0.012
Mof_H 	H 	0.7443	0.5257	0.9936	0.043
Mof_H 	H 	0.8275	0.4644	0.047	0.027
Mof_H 	H 	0.6474	0.8187	0.876	0.035
Mof_O 	O 	0.7544	0.0817	0.429	-0.589
Mof_C 	C 	0.8937	0.0697	0.4317	0.589
Mof_O 	O 	0.9906	0.0869	0.407	-0.639
Mof_C 	C 	0.9486	0.0346	0.4676	-0.162
Mof_C 	C 	0.848	0.0149	0.4962	0.01
Mof_C 	C 	0.8986	0.9788	0.5281	0.013
Mof_O 	O 	0.7527	0.2069	0.3834	-0.622
Mof_C 	C 	0.7403	0.3415	0.3747	0.013
Mof_H 	H 	0.7443	0.0257	0.4936	0.042
Mof_H 	H 	0.8275	0.9644	0.547	0.028
Mof_H 	H 	0.6474	0.3187	0.376	0.035
Mof_O 	O 	0.2544	0.5817	0.429	-0.59
Mof_C 	C 	0.3937	0.5697	0.4317	0.59
Mof_O 	O 	0.4906	0.5869	0.407	-0.641
Mof_C 	C 	0.4486	0.5346	0.4676	-0.165
Mof_C 	C 	0.348	0.5149	0.4962	0.006
Mof_C 	C 	0.3986	0.4788	0.5281	0.02
Mof_O 	O 	0.2527	0.7069	0.3834	-0.623
Mof_C 	C 	0.2403	0.8415	0.3747	0.015
Mof_H 	H 	0.2443	0.5257	0.4936	0.043
Mof_H 	H 	0.3275	0.4644	0.547	0.026
Mof_H 	H 	0.1474	0.8187	0.376	0.034
Mof_O 	O 	0.2544	0.0817	0.929	-0.589
Mof_C 	C 	0.3937	0.0697	0.9317	0.59
Mof_O 	O 	0.4906	0.0869	0.907	-0.641
Mof_C 	C 	0.4486	0.0346	0.9676	-0.165
Mof_C 	C 	0.348	0.0149	0.9962	0.005
Mof_C 	C 	0.3986	0.9788	0.0281	0.021
Mof_O 	O 	0.2527	0.2069	0.8834	-0.622
Mof_C 	C 	0.2403	0.3415	0.8747	0.014
Mof_H 	H 	0.2443	0.0257	0.9936	0.043
Mof_H 	H 	0.3275	0.9644	0.047	0.026
Mof_H 	H 	0.1474	0.3187	0.876	0.034
Mof_Sc	Sc	0.375	0.375	0.63495	2.144
Mof_Sc	Sc	0.375	0.875	0.13495	2.144
Mof_Sc	Sc	0.875	0.375	0.13495	2.142
Mof_Sc	Sc	0.875	0.875	0.63495	2.138
Mof_Sc	Sc	0.375	0.375	0.11505	2.144
Mof_Sc	Sc	0.375	0.875	0.61505	2.144
Mof_Sc	Sc	0.875	0.375	0.61505	2.144
Mof_Sc	Sc	0.875	0.875	0.11505	2.136
Mof_Sc	Sc	0.625	0.625	0.36505	2.144
Mof_Sc	Sc	0.625	0.125	0.86505	2.144
Mof_Sc	Sc	0.125	0.625	0.86505	2.142
Mof_Sc	Sc	0.125	0.125	0.36505	2.138
Mof_Sc	Sc	0.625	0.625	0.88495	2.144
Mof_Sc	Sc	0.625	0.125	0.38495	2.144
Mof_Sc	Sc	0.125	0.625	0.38495	2.144
Mof_Sc	Sc	0.125	0.125	0.88495	2.136
Mof_C 	C 	0.125	0.4855	0.625	0.594
Mof_C 	C 	0.125	0.5582	0.625	-0.167
Mof_C 	C 	0.125	0.9855	0.125	0.596
Mof_C 	C 	0.125	0.0582	0.125	-0.172
Mof_C 	C 	0.625	0.9855	0.625	0.593
Mof_C 	C 	0.625	0.0582	0.625	-0.166
Mof_C 	C 	0.625	0.2645	0.625	0.594
Mof_C 	C 	0.625	0.1918	0.625	-0.168
Mof_C 	C 	0.625	0.7645	0.125	0.594
Mof_C 	C 	0.625	0.6918	0.125	-0.168
Mof_C 	C 	0.625	0.4855	0.125	0.594
Mof_C 	C 	0.625	0.5582	0.125	-0.168
Mof_C 	C 	0.125	0.2645	0.125	0.593
Mof_C 	C 	0.125	0.1918	0.125	-0.166
Mof_C 	C 	0.125	0.7645	0.625	0.593
Mof_C 	C 	0.125	0.6918	0.625	-0.165
Mof_C 	C 	0.875	0.5145	0.375	0.594
Mof_C 	C 	0.875	0.4418	0.375	-0.167
Mof_C 	C 	0.875	0.0145	0.875	0.596
Mof_C 	C 	0.875	0.9418	0.875	-0.172
Mof_C 	C 	0.375	0.7355	0.375	0.594
Mof_C 	C 	0.375	0.8082	0.375	-0.168
Mof_C 	C 	0.375	0.2355	0.875	0.594
Mof_C 	C 	0.375	0.3082	0.875	-0.168
Mof_C 	C 	0.375	0.5145	0.875	0.594
Mof_C 	C 	0.375	0.4418	0.875	-0.168
Mof_C 	C 	0.375	0.0145	0.375	0.593
Mof_C 	C 	0.375	0.9418	0.375	-0.166
Mof_C 	C 	0.875	0.7355	0.875	0.593
Mof_C 	C 	0.875	0.8082	0.875	-0.166
Mof_C 	C 	0.875	0.2355	0.375	0.593
Mof_C 	C 	0.875	0.3082	0.375	-0.165
_end
