data_functionalizedCrystal
_audit_creation_method	'EQeq! by Chris Wilmer'
_symmetry_space_group_name_H-M	'P1'
_symmetry_Int_Tables_number	1
_symmetry_cell_setting	triclinic
loop_
_symmetry_equiv_pos_as_xyz
  x,y,z
_cell_length_a	14.694
_cell_length_b	14.694
_cell_length_c	8.936
_cell_angle_alpha	90
_cell_angle_beta	90
_cell_angle_gamma	90
loop_
_atom_site_label
_atom_site_type_symbol
_atom_site_fract_x
_atom_site_fract_y
_atom_site_fract_z
_atom_site_charge
Mof_Zn	Zn	0.50143	0.13221	0.23267	1.26
Mof_Zn	Zn	0.13043	0.00891	0.04894	1.203
Mof_P 	P 	0.3515	0.9999	0.0926	0.514
Mof_P 	P 	0.4886	0.3549	0.1915	0.574
Mof_O 	O 	0.3954	0.0863	0.104	-0.287
Mof_O 	O 	0.3565	0.9489	0.932	-0.217
Mof_O 	O 	0.39	0.923	0.2	-0.203
Mof_O 	O 	0.2482	0.0095	0.1382	-0.423
Mof_O 	O 	0.5034	0.2565	0.1499	-0.435
Mof_O 	O 	0.5799	0.4039	0.1884	-0.48
Mof_O 	O 	0.4461	0.3624	0.3445	-0.459
Mof_O 	O 	0.4224	0.3894	0.0721	-0.507
Mof_O 	O 	0.3955	0.0758	0.21	-0.265
Mof_O 	O 	0.3657	0.0499	0.935	-0.181
Mof_O 	O 	0.3866	0.9124	0.126	-0.277
Mof_Zn	Zn	0.49857	0.86779	0.23267	1.261
Mof_Zn	Zn	0.86957	0.99109	0.04894	1.204
Mof_P 	P 	0.6485	0.0001	0.0926	0.514
Mof_P 	P 	0.5114	0.6451	0.1915	0.574
Mof_O 	O 	0.6046	0.9137	0.104	-0.287
Mof_O 	O 	0.6435	0.0511	0.932	-0.217
Mof_O 	O 	0.61	0.077	0.2	-0.203
Mof_O 	O 	0.7518	0.9905	0.1382	-0.423
Mof_O 	O 	0.4966	0.7435	0.1499	-0.435
Mof_O 	O 	0.4201	0.5961	0.1884	-0.48
Mof_O 	O 	0.5539	0.6376	0.3445	-0.459
Mof_O 	O 	0.5776	0.6106	0.0721	-0.507
Mof_O 	O 	0.6045	0.9242	0.21	-0.265
Mof_O 	O 	0.6343	0.9501	0.935	-0.181
Mof_O 	O 	0.6134	0.0876	0.126	-0.277
Mof_Zn	Zn	0.86779	0.50143	0.73267	1.269
Mof_Zn	Zn	0.99109	0.13043	0.54894	1.242
Mof_P 	P 	0.0001	0.3515	0.5926	0.652
Mof_P 	P 	0.6451	0.4886	0.6915	0.57
Mof_O 	O 	0.9137	0.3954	0.604	-0.216
Mof_O 	O 	0.0511	0.3565	0.432	-0.338
Mof_O 	O 	0.077	0.39	0.7	-0.253
Mof_O 	O 	0.9905	0.2482	0.6382	-0.372
Mof_O 	O 	0.7435	0.5034	0.6499	-0.381
Mof_O 	O 	0.5961	0.5799	0.6884	-0.422
Mof_O 	O 	0.6376	0.4461	0.8445	-0.369
Mof_O 	O 	0.6106	0.4224	0.5721	-0.436
Mof_O 	O 	0.9242	0.3955	0.71	-0.275
Mof_O 	O 	0.9501	0.3657	0.435	-0.306
Mof_O 	O 	0.0876	0.3866	0.626	-0.184
Mof_Zn	Zn	0.13221	0.49857	0.73267	1.269
Mof_Zn	Zn	0.00891	0.86957	0.54894	1.242
Mof_P 	P 	0.9999	0.6485	0.5926	0.652
Mof_P 	P 	0.3549	0.5114	0.6915	0.57
Mof_O 	O 	0.0863	0.6046	0.604	-0.216
Mof_O 	O 	0.9489	0.6435	0.432	-0.338
Mof_O 	O 	0.923	0.61	0.7	-0.253
Mof_O 	O 	0.0095	0.7518	0.6382	-0.372
Mof_O 	O 	0.2565	0.4966	0.6499	-0.381
Mof_O 	O 	0.4039	0.4201	0.6884	-0.422
Mof_O 	O 	0.3624	0.5539	0.8445	-0.369
Mof_O 	O 	0.3894	0.5776	0.5721	-0.436
Mof_O 	O 	0.0758	0.6045	0.71	-0.275
Mof_O 	O 	0.0499	0.6343	0.435	-0.306
Mof_O 	O 	0.9124	0.6134	0.626	-0.184
Mof_Zn	Zn	0.00143	0.36779	0.23267	1.262
Mof_Zn	Zn	0.63043	0.49109	0.04894	1.203
Mof_P 	P 	0.8515	0.5001	0.0926	0.511
Mof_P 	P 	0.9886	0.1451	0.1915	0.575
Mof_O 	O 	0.8954	0.4137	0.104	-0.287
Mof_O 	O 	0.8565	0.5511	0.932	-0.216
Mof_O 	O 	0.89	0.577	0.2	-0.204
Mof_O 	O 	0.7482	0.4905	0.1382	-0.424
Mof_O 	O 	0.0034	0.2435	0.1499	-0.434
Mof_O 	O 	0.0799	0.0961	0.1884	-0.479
Mof_O 	O 	0.9461	0.1376	0.3445	-0.458
Mof_O 	O 	0.9224	0.1106	0.0721	-0.506
Mof_O 	O 	0.8955	0.4242	0.21	-0.265
Mof_O 	O 	0.8657	0.4501	0.935	-0.18
Mof_O 	O 	0.8866	0.5876	0.126	-0.276
Mof_Zn	Zn	0.99857	0.63221	0.23267	1.262
Mof_Zn	Zn	0.36957	0.50891	0.04894	1.203
Mof_P 	P 	0.1485	0.4999	0.0926	0.511
Mof_P 	P 	0.0114	0.8549	0.1915	0.575
Mof_O 	O 	0.1046	0.5863	0.104	-0.287
Mof_O 	O 	0.1435	0.4489	0.932	-0.216
Mof_O 	O 	0.11	0.423	0.2	-0.204
Mof_O 	O 	0.2518	0.5095	0.1382	-0.424
Mof_O 	O 	0.9966	0.7565	0.1499	-0.434
Mof_O 	O 	0.9201	0.9039	0.1884	-0.479
Mof_O 	O 	0.0539	0.8624	0.3445	-0.458
Mof_O 	O 	0.0776	0.8894	0.0721	-0.506
Mof_O 	O 	0.1045	0.5758	0.21	-0.265
Mof_O 	O 	0.1343	0.5499	0.935	-0.18
Mof_O 	O 	0.1134	0.4124	0.126	-0.276
Mof_Zn	Zn	0.36779	0.99857	0.73267	1.269
Mof_Zn	Zn	0.49109	0.36957	0.54894	1.242
Mof_P 	P 	0.5001	0.1485	0.5926	0.651
Mof_P 	P 	0.1451	0.0114	0.6915	0.57
Mof_O 	O 	0.4137	0.1046	0.604	-0.216
Mof_O 	O 	0.5511	0.1435	0.432	-0.338
Mof_O 	O 	0.577	0.11	0.7	-0.253
Mof_O 	O 	0.4905	0.2518	0.6382	-0.372
Mof_O 	O 	0.2435	0.9966	0.6499	-0.381
Mof_O 	O 	0.0961	0.9201	0.6884	-0.422
Mof_O 	O 	0.1376	0.0539	0.8445	-0.37
Mof_O 	O 	0.1106	0.0776	0.5721	-0.436
Mof_O 	O 	0.4242	0.1045	0.71	-0.275
Mof_O 	O 	0.4501	0.1343	0.435	-0.306
Mof_O 	O 	0.5876	0.1134	0.626	-0.184
Mof_Zn	Zn	0.63221	0.00143	0.73267	1.269
Mof_Zn	Zn	0.50891	0.63043	0.54894	1.242
Mof_P 	P 	0.4999	0.8515	0.5926	0.651
Mof_P 	P 	0.8549	0.9886	0.6915	0.57
Mof_O 	O 	0.5863	0.8954	0.604	-0.216
Mof_O 	O 	0.4489	0.8565	0.432	-0.338
Mof_O 	O 	0.423	0.89	0.7	-0.253
Mof_O 	O 	0.5095	0.7482	0.6382	-0.372
Mof_O 	O 	0.7565	0.0034	0.6499	-0.381
Mof_O 	O 	0.9039	0.0799	0.6884	-0.422
Mof_O 	O 	0.8624	0.9461	0.8445	-0.37
Mof_O 	O 	0.8894	0.9224	0.5721	-0.436
Mof_O 	O 	0.5758	0.8955	0.71	-0.275
Mof_O 	O 	0.5499	0.8657	0.435	-0.306
Mof_O 	O 	0.4124	0.8866	0.626	-0.184
_end
