data_functionalizedCrystal
_audit_creation_method	'EQeq! by Chris Wilmer'
_symmetry_space_group_name_H-M	'P1'
_symmetry_Int_Tables_number	1
_symmetry_cell_setting	triclinic
loop_
_symmetry_equiv_pos_as_xyz
  x,y,z
_cell_length_a	18.65
_cell_length_b	18.65
_cell_length_c	6.8329
_cell_angle_alpha	90
_cell_angle_beta	90
_cell_angle_gamma	120
loop_
_atom_site_label
_atom_site_type_symbol
_atom_site_fract_x
_atom_site_fract_y
_atom_site_fract_z
_atom_site_charge
Mof_O 	O 	0.2842	0.0824	0.2533	-0.22
Mof_O 	O 	0.4806	0.3712	0.4823	-0.405
Mof_O 	O 	0.442	0.411	0.75	-0.405
Mof_C 	C 	0.3781	0.2535	0.9148	0.027
Mof_H 	H 	0.364	0.2895	0.975	0.054
Mof_C 	C 	0.4227	0.2762	0.7393	-0.109
Mof_C 	C 	0.4503	0.359	0.6507	0.37
Mof_C 	C 	0.2371	0.0498	0.428	-0.161
Mof_H 	H 	0.9958	0.2294	0.5467	0.077
Mof_H 	H 	0.0459	0.1841	0.587	0.077
Mof_H 	H 	0.0858	0.266	0.4641	0.086
Mof_O 	O 	0.9176	0.2018	0.2533	-0.219
Mof_O 	O 	0.6288	0.1094	0.4823	-0.404
Mof_O 	O 	0.589	0.031	0.75	-0.404
Mof_C 	C 	0.7465	0.1246	0.9148	0.027
Mof_H 	H 	0.7105	0.0745	0.975	0.056
Mof_C 	C 	0.7238	0.1465	0.7393	-0.108
Mof_C 	C 	0.641	0.0913	0.6507	0.37
Mof_C 	C 	0.9502	0.1873	0.428	-0.16
Mof_H 	H 	0.7706	0.7664	0.5467	0.076
Mof_H 	H 	0.8159	0.8618	0.587	0.077
Mof_H 	H 	0.734	0.8198	0.4641	0.086
Mof_O 	O 	0.7982	0.7158	0.2533	-0.219
Mof_O 	O 	0.8906	0.5194	0.4823	-0.404
Mof_O 	O 	0.969	0.558	0.75	-0.404
Mof_C 	C 	0.8754	0.6219	0.9148	0.028
Mof_H 	H 	0.9255	0.636	0.975	0.056
Mof_C 	C 	0.8535	0.5773	0.7393	-0.108
Mof_C 	C 	0.9087	0.5497	0.6507	0.371
Mof_C 	C 	0.8127	0.7629	0.428	-0.159
Mof_H 	H 	0.2336	0.0042	0.5467	0.076
Mof_H 	H 	0.1382	0.9541	0.587	0.077
Mof_H 	H 	0.1802	0.9142	0.4641	0.086
Mof_O 	O 	0.0824	0.2842	0.7467	-0.219
Mof_O 	O 	0.3712	0.4806	0.5177	-0.404
Mof_O 	O 	0.411	0.442	0.25	-0.404
Mof_C 	C 	0.2535	0.3781	0.0852	0.028
Mof_H 	H 	0.2895	0.364	0.025	0.055
Mof_C 	C 	0.2762	0.4227	0.2607	-0.108
Mof_C 	C 	0.359	0.4503	0.3493	0.371
Mof_C 	C 	0.0498	0.2371	0.572	-0.16
Mof_H 	H 	0.2294	0.9958	0.4533	0.077
Mof_H 	H 	0.1841	0.0459	0.413	0.077
Mof_H 	H 	0.266	0.0858	0.5359	0.086
Mof_O 	O 	0.2018	0.9176	0.7467	-0.219
Mof_O 	O 	0.1094	0.6288	0.5177	-0.404
Mof_O 	O 	0.031	0.589	0.25	-0.404
Mof_C 	C 	0.1246	0.7465	0.0852	0.027
Mof_H 	H 	0.0745	0.7105	0.025	0.056
Mof_C 	C 	0.1465	0.7238	0.2607	-0.108
Mof_C 	C 	0.0913	0.641	0.3493	0.37
Mof_C 	C 	0.1873	0.9502	0.572	-0.16
Mof_H 	H 	0.7664	0.7706	0.4533	0.076
Mof_H 	H 	0.8618	0.8159	0.413	0.077
Mof_H 	H 	0.8198	0.734	0.5359	0.086
Mof_O 	O 	0.7158	0.7982	0.7467	-0.219
Mof_O 	O 	0.5194	0.8906	0.5177	-0.404
Mof_O 	O 	0.558	0.969	0.25	-0.404
Mof_C 	C 	0.6219	0.8754	0.0852	0.028
Mof_H 	H 	0.636	0.9255	0.025	0.056
Mof_C 	C 	0.5773	0.8535	0.2607	-0.108
Mof_C 	C 	0.5497	0.9087	0.3493	0.371
Mof_C 	C 	0.7629	0.8127	0.572	-0.159
Mof_H 	H 	0.0042	0.2336	0.4533	0.076
Mof_H 	H 	0.9541	0.1382	0.413	0.077
Mof_H 	H 	0.9142	0.1802	0.5359	0.086
Mof_O 	O 	0.7158	0.9176	0.7467	-0.219
Mof_O 	O 	0.5194	0.6288	0.5177	-0.404
Mof_O 	O 	0.558	0.589	0.25	-0.404
Mof_C 	C 	0.6219	0.7465	0.0852	0.028
Mof_H 	H 	0.636	0.7105	0.025	0.055
Mof_C 	C 	0.5773	0.7238	0.2607	-0.108
Mof_C 	C 	0.5497	0.641	0.3493	0.371
Mof_C 	C 	0.7629	0.9502	0.572	-0.16
Mof_H 	H 	0.0042	0.7706	0.4533	0.077
Mof_H 	H 	0.9541	0.8159	0.413	0.077
Mof_H 	H 	0.9142	0.734	0.5359	0.086
Mof_O 	O 	0.0824	0.7982	0.7467	-0.219
Mof_O 	O 	0.3712	0.8906	0.5177	-0.404
Mof_O 	O 	0.411	0.969	0.25	-0.404
Mof_C 	C 	0.2535	0.8754	0.0852	0.027
Mof_H 	H 	0.2895	0.9255	0.025	0.056
Mof_C 	C 	0.2762	0.8535	0.2607	-0.108
Mof_C 	C 	0.359	0.9087	0.3493	0.37
Mof_C 	C 	0.0498	0.8127	0.572	-0.16
Mof_H 	H 	0.2294	0.2336	0.4533	0.076
Mof_H 	H 	0.1841	0.1382	0.413	0.077
Mof_H 	H 	0.266	0.1802	0.5359	0.086
Mof_O 	O 	0.2018	0.2842	0.7467	-0.219
Mof_O 	O 	0.1094	0.4806	0.5177	-0.404
Mof_O 	O 	0.031	0.442	0.25	-0.404
Mof_C 	C 	0.1246	0.3781	0.0852	0.028
Mof_H 	H 	0.0745	0.364	0.025	0.056
Mof_C 	C 	0.1465	0.4227	0.2607	-0.108
Mof_C 	C 	0.0913	0.4503	0.3493	0.371
Mof_C 	C 	0.1873	0.2371	0.572	-0.159
Mof_H 	H 	0.7664	0.9958	0.4533	0.076
Mof_H 	H 	0.8618	0.0459	0.413	0.077
Mof_H 	H 	0.8198	0.0858	0.5359	0.086
Mof_O 	O 	0.9176	0.7158	0.2533	-0.219
Mof_O 	O 	0.6288	0.5194	0.4823	-0.404
Mof_O 	O 	0.589	0.558	0.75	-0.404
Mof_C 	C 	0.7465	0.6219	0.9148	0.028
Mof_H 	H 	0.7105	0.636	0.975	0.055
Mof_C 	C 	0.7238	0.5773	0.7393	-0.108
Mof_C 	C 	0.641	0.5497	0.6507	0.371
Mof_C 	C 	0.9502	0.7629	0.428	-0.16
Mof_H 	H 	0.7706	0.0042	0.5467	0.077
Mof_H 	H 	0.8159	0.9541	0.587	0.077
Mof_H 	H 	0.734	0.9142	0.4641	0.086
Mof_O 	O 	0.7982	0.0824	0.2533	-0.219
Mof_O 	O 	0.8906	0.3712	0.4823	-0.404
Mof_O 	O 	0.969	0.411	0.75	-0.404
Mof_C 	C 	0.8754	0.2535	0.9148	0.027
Mof_H 	H 	0.9255	0.2895	0.975	0.056
Mof_C 	C 	0.8535	0.2762	0.7393	-0.108
Mof_C 	C 	0.9087	0.359	0.6507	0.37
Mof_C 	C 	0.8127	0.0498	0.428	-0.16
Mof_H 	H 	0.2336	0.2294	0.5467	0.076
Mof_H 	H 	0.1382	0.1841	0.587	0.077
Mof_H 	H 	0.1802	0.266	0.4641	0.086
Mof_O 	O 	0.2842	0.2018	0.2533	-0.219
Mof_O 	O 	0.4806	0.1094	0.4823	-0.404
Mof_O 	O 	0.442	0.031	0.75	-0.404
Mof_C 	C 	0.3781	0.1246	0.9148	0.028
Mof_H 	H 	0.364	0.0745	0.975	0.056
Mof_C 	C 	0.4227	0.1465	0.7393	-0.108
Mof_C 	C 	0.4503	0.0913	0.6507	0.371
Mof_C 	C 	0.2371	0.1873	0.428	-0.159
Mof_H 	H 	0.9958	0.7664	0.5467	0.076
Mof_H 	H 	0.0459	0.8618	0.587	0.077
Mof_H 	H 	0.0858	0.8198	0.4641	0.086
Mof_C 	C 	0.3038	0.1519	0.1839	0.276
Mof_C 	C 	0.355	0.1775	0.9989	-0.075
Mof_C 	C 	0.4439	0.22195	0.6517	0.047
Mof_H 	H 	0.4725	0.23625	0.5336	0.049
Mof_C 	C 	0.8481	0.1519	0.1839	0.274
Mof_C 	C 	0.8225	0.1775	0.9989	-0.073
Mof_C 	C 	0.77805	0.22195	0.6517	0.046
Mof_H 	H 	0.76375	0.23625	0.5336	0.05
Mof_C 	C 	0.8481	0.6962	0.1839	0.276
Mof_C 	C 	0.8225	0.645	0.9989	-0.075
Mof_C 	C 	0.77805	0.5561	0.6517	0.047
Mof_H 	H 	0.76375	0.5275	0.5336	0.049
Mof_C 	C 	0.1519	0.3038	0.8161	0.276
Mof_C 	C 	0.1775	0.355	0.0011	-0.075
Mof_C 	C 	0.22195	0.4439	0.3483	0.047
Mof_H 	H 	0.23625	0.4725	0.4664	0.049
Mof_C 	C 	0.1519	0.8481	0.8161	0.274
Mof_C 	C 	0.1775	0.8225	0.0011	-0.073
Mof_C 	C 	0.22195	0.77805	0.3483	0.046
Mof_H 	H 	0.23625	0.76375	0.4664	0.05
Mof_C 	C 	0.6962	0.8481	0.8161	0.276
Mof_C 	C 	0.645	0.8225	0.0011	-0.075
Mof_C 	C 	0.5561	0.77805	0.3483	0.047
Mof_H 	H 	0.5275	0.76375	0.4664	0.049
Mof_Cu	Cu	0.5233	0.4767	0.34331	0.907
Mof_Cu	Cu	0.5233	0.0466	0.34331	0.907
Mof_Cu	Cu	0.9534	0.4767	0.34331	0.907
Mof_Cu	Cu	0.4767	0.5233	0.65669	0.907
Mof_Cu	Cu	0.0466	0.5233	0.65669	0.907
Mof_Cu	Cu	0.4767	0.9534	0.65669	0.907
_end
