data_functionalizedCrystal
_audit_creation_method	'EQeq! by Chris Wilmer'
_symmetry_space_group_name_H-M	'P1'
_symmetry_Int_Tables_number	1
_symmetry_cell_setting	triclinic
loop_
_symmetry_equiv_pos_as_xyz
  x,y,z
_cell_length_a	15.438
_cell_length_b	14.691
_cell_length_c	33.046
_cell_angle_alpha	90
_cell_angle_beta	94.832
_cell_angle_gamma	90
loop_
_atom_site_label
_atom_site_type_symbol
_atom_site_fract_x
_atom_site_fract_y
_atom_site_fract_z
_atom_site_charge
Mof_W 	W 	0.53205	0.24471	0.37165	0.514
Mof_C 	C 	0.4465	0.1621	0.4055	-0.034
Mof_C 	C 	0.4864	0.339	0.4147	-0.043
Mof_C 	C 	0.6421	0.212	0.3378	-0.027
Mof_C 	C 	0.4954	0.1381	0.3281	-0.024
Mof_C 	C 	0.5366	0.3515	0.3263	-0.027
Mof_C 	C 	0.3992	0.2704	0.349	-0.025
Mof_C 	C 	0.6378	0.3319	0.3952	-0.024
Mof_C 	C 	0.6061	0.1526	0.411	-0.038
Mof_N 	N 	0.4012	0.12	0.4236	-0.109
Mof_N 	N 	0.4626	0.39	0.4371	-0.094
Mof_N 	N 	0.7008	0.1935	0.3211	-0.165
Mof_N 	N 	0.4749	0.0875	0.3042	-0.169
Mof_N 	N 	0.5417	0.4064	0.3028	-0.17
Mof_N 	N 	0.328	0.2792	0.3362	-0.173
Mof_N 	N 	0.6941	0.3785	0.4065	-0.165
Mof_N 	N 	0.6442	0.1003	0.4321	-0.167
Mof_Mn	Mn	0.81934	0.12308	0.3021	0.691
Mof_Mn	Mn	0.45466	0.00389	0.24836	0.679
Mof_Mn	Mn	0.19157	0.29085	0.31456	0.687
Mof_Mn	Mn	0.80493	0.47448	0.41207	0.642
Mof_Mn	Mn	0.71551	0.0029	0.47427	0.633
Mof_N 	N 	0.9345	0.0461	0.2849	-0.172
Mof_N 	N 	0.8961	0.1714	0.3567	-0.164
Mof_N 	N 	0.7647	0.0032	0.3289	-0.174
Mof_N 	N 	0.8405	0.2459	0.2661	-0.172
Mof_N 	N 	0.5371	0.9013	0.2849	-0.163
Mof_N 	N 	0.3205	0.9572	0.2605	-0.156
Mof_N 	N 	0.3869	0.1204	0.2155	-0.167
Mof_N 	N 	0.8884	0.3618	0.437	-0.17
Mof_N 	N 	0.832	0.4438	0.3482	-0.165
Mof_N 	N 	0.7468	0.604	0.3895	-0.172
Mof_N 	N 	0.8356	0.0755	0.4606	-0.164
Mof_N 	N 	0.7088	0.8956	0.4274	-0.167
Mof_N 	N 	0.8037	0.9134	0.5145	-0.165
Mof_C 	C 	0.9931	0.0168	0.2719	-0.019
Mof_C 	C 	0.9381	0.1779	0.3866	-0.023
Mof_C 	C 	0.7395	0.9319	0.3328	-0.025
Mof_C 	C 	0.592	0.8628	0.3038	-0.036
Mof_C 	C 	0.9339	0.2988	0.4415	-0.041
Mof_C 	C 	0.8987	0.1132	0.4553	-0.037
Mof_C 	C 	0.7022	0.857	0.3982	-0.02
Mof_W 	W 	0.1064	0.96116	0.24474	0.504
Mof_W 	W 	0.01706	0.18195	0.44396	0.512
Mof_W 	W 	0.69636	0.79275	0.3388	0.504
Mof_C 	C 	0.0511	0.0671	0.2056	-0.049
Mof_C 	C 	0.1436	0.8202	0.2382	-0.022
Mof_C 	C 	0.2453	0.9564	0.2553	-0.037
Mof_C 	C 	0.9953	0.8878	0.218	-0.03
Mof_C 	C 	0.1497	0.083	0.2772	-0.023
Mof_C 	C 	0.1012	0.8989	0.3038	-0.031
Mof_C 	C 	0.1504	0.9477	0.1836	-0.019
Mof_C 	C 	0.0957	0.2939	0.4681	-0.041
Mof_C 	C 	0.1009	0.2204	0.3975	-0.026
Mof_C 	C 	0.0301	0.047	0.419	-0.026
Mof_C 	C 	0.9982	0.1882	0.5083	-0.032
Mof_C 	C 	0.1342	0.1194	0.4717	-0.028
Mof_C 	C 	0.5772	0.7568	0.3659	-0.038
Mof_C 	C 	0.6432	0.6804	0.302	-0.025
Mof_C 	C 	0.7488	0.8031	0.2802	-0.031
Mof_C 	C 	0.8354	0.7981	0.3554	-0.028
Mof_C 	C 	0.7307	0.6689	0.3722	-0.025
Mof_N 	N 	0.0158	0.1197	0.1844	-0.111
Mof_N 	N 	0.9373	0.8468	0.205	-0.171
Mof_N 	N 	0.1709	0.1463	0.2943	-0.159
Mof_N 	N 	0.0902	0.8634	0.3337	-0.167
Mof_N 	N 	0.136	0.3526	0.4817	-0.11
Mof_N 	N 	0.1438	0.2446	0.3735	-0.163
Mof_N 	N 	0.0324	0.976	0.4065	-0.168
Mof_N 	N 	0.9885	0.1907	0.5418	-0.173
Mof_N 	N 	0.5154	0.7383	0.3806	-0.101
Mof_N 	N 	0.7719	0.8119	0.2487	-0.167
Mof_N 	N 	0.9073	0.8045	0.3671	-0.163
Mof_Mn	Mn	0.04219	0.8296	0.39408	0.628
Mof_W 	W 	0.46795	0.74471	0.12835	0.513
Mof_C 	C 	0.5535	0.6621	0.0945	-0.035
Mof_C 	C 	0.5136	0.839	0.0853	-0.044
Mof_C 	C 	0.3579	0.712	0.1622	-0.028
Mof_C 	C 	0.5046	0.6381	0.1719	-0.024
Mof_C 	C 	0.4634	0.8515	0.1737	-0.027
Mof_C 	C 	0.6008	0.7704	0.151	-0.025
Mof_C 	C 	0.3622	0.8319	0.1048	-0.024
Mof_C 	C 	0.3939	0.6526	0.089	-0.038
Mof_N 	N 	0.5988	0.62	0.0764	-0.109
Mof_N 	N 	0.5374	0.89	0.0629	-0.094
Mof_N 	N 	0.2992	0.6935	0.1789	-0.165
Mof_N 	N 	0.5251	0.5875	0.1958	-0.169
Mof_N 	N 	0.4583	0.9064	0.1972	-0.17
Mof_N 	N 	0.672	0.7792	0.1638	-0.173
Mof_N 	N 	0.3059	0.8785	0.0935	-0.165
Mof_N 	N 	0.3558	0.6003	0.0679	-0.167
Mof_Mn	Mn	0.18066	0.62308	0.1979	0.691
Mof_Mn	Mn	0.54534	0.50389	0.25164	0.678
Mof_Mn	Mn	0.80843	0.79085	0.18544	0.687
Mof_Mn	Mn	0.19507	0.97448	0.08793	0.641
Mof_Mn	Mn	0.28449	0.5029	0.02573	0.633
Mof_N 	N 	0.0655	0.5461	0.2151	-0.172
Mof_N 	N 	0.1039	0.6714	0.1433	-0.164
Mof_N 	N 	0.2353	0.5032	0.1711	-0.173
Mof_N 	N 	0.1595	0.7459	0.2339	-0.172
Mof_N 	N 	0.4629	0.4013	0.2151	-0.163
Mof_N 	N 	0.6795	0.4572	0.2395	-0.156
Mof_N 	N 	0.6131	0.6204	0.2845	-0.167
Mof_N 	N 	0.1116	0.8618	0.063	-0.17
Mof_N 	N 	0.168	0.9438	0.1518	-0.165
Mof_N 	N 	0.2532	0.104	0.1105	-0.172
Mof_N 	N 	0.1644	0.5755	0.0394	-0.164
Mof_N 	N 	0.2912	0.3956	0.0726	-0.167
Mof_N 	N 	0.1963	0.4134	0.9855	-0.165
Mof_C 	C 	0.0069	0.5168	0.2281	-0.017
Mof_C 	C 	0.0619	0.6779	0.1134	-0.023
Mof_C 	C 	0.2605	0.4319	0.1672	-0.027
Mof_C 	C 	0.408	0.3628	0.1962	-0.036
Mof_C 	C 	0.0661	0.7988	0.0585	-0.041
Mof_C 	C 	0.1013	0.6132	0.0447	-0.036
Mof_C 	C 	0.2978	0.357	0.1018	-0.02
Mof_W 	W 	0.8936	0.46116	0.25526	0.506
Mof_W 	W 	0.98294	0.68195	0.05604	0.511
Mof_W 	W 	0.30364	0.29275	0.1612	0.504
Mof_C 	C 	0.9489	0.5671	0.2944	-0.05
Mof_C 	C 	0.8564	0.3202	0.2618	-0.022
Mof_C 	C 	0.7547	0.4564	0.2447	-0.037
Mof_C 	C 	0.0047	0.3878	0.282	-0.031
Mof_C 	C 	0.8503	0.583	0.2228	-0.024
Mof_C 	C 	0.8988	0.3989	0.1962	-0.031
Mof_C 	C 	0.8496	0.4477	0.3164	-0.019
Mof_C 	C 	0.9043	0.7939	0.0319	-0.041
Mof_C 	C 	0.8991	0.7204	0.1025	-0.026
Mof_C 	C 	0.9699	0.547	0.081	-0.028
Mof_C 	C 	0.0018	0.6882	0.9917	-0.031
Mof_C 	C 	0.8658	0.6194	0.0283	-0.028
Mof_C 	C 	0.4228	0.2568	0.1341	-0.038
Mof_C 	C 	0.3568	0.1804	0.198	-0.025
Mof_C 	C 	0.2512	0.3031	0.2198	-0.031
Mof_C 	C 	0.1646	0.2981	0.1446	-0.029
Mof_C 	C 	0.2693	0.1689	0.1278	-0.025
Mof_N 	N 	0.9842	0.6197	0.3156	-0.111
Mof_N 	N 	0.0627	0.3468	0.295	-0.171
Mof_N 	N 	0.8291	0.6463	0.2057	-0.159
Mof_N 	N 	0.9098	0.3634	0.1663	-0.167
Mof_N 	N 	0.864	0.8526	0.0183	-0.109
Mof_N 	N 	0.8562	0.7446	0.1265	-0.163
Mof_N 	N 	0.9676	0.476	0.0935	-0.167
Mof_N 	N 	0.0115	0.6907	0.9582	-0.173
Mof_N 	N 	0.4846	0.2383	0.1194	-0.101
Mof_N 	N 	0.2281	0.3119	0.2513	-0.167
Mof_N 	N 	0.0927	0.3045	0.1329	-0.163
Mof_Mn	Mn	0.95781	0.3296	0.10592	0.628
Mof_W 	W 	0.46795	0.75529	0.62835	0.513
Mof_C 	C 	0.5535	0.8379	0.5945	-0.035
Mof_C 	C 	0.5136	0.661	0.5853	-0.044
Mof_C 	C 	0.3579	0.788	0.6622	-0.028
Mof_C 	C 	0.5046	0.8619	0.6719	-0.024
Mof_C 	C 	0.4634	0.6485	0.6737	-0.027
Mof_C 	C 	0.6008	0.7296	0.651	-0.025
Mof_C 	C 	0.3622	0.6681	0.6048	-0.024
Mof_C 	C 	0.3939	0.8474	0.589	-0.038
Mof_N 	N 	0.5988	0.88	0.5764	-0.109
Mof_N 	N 	0.5374	0.61	0.5629	-0.094
Mof_N 	N 	0.2992	0.8065	0.6789	-0.165
Mof_N 	N 	0.5251	0.9125	0.6958	-0.169
Mof_N 	N 	0.4583	0.5936	0.6972	-0.17
Mof_N 	N 	0.672	0.7208	0.6638	-0.173
Mof_N 	N 	0.3059	0.6215	0.5935	-0.165
Mof_N 	N 	0.3558	0.8997	0.5679	-0.167
Mof_Mn	Mn	0.18066	0.87692	0.6979	0.691
Mof_Mn	Mn	0.54534	0.99611	0.75164	0.679
Mof_Mn	Mn	0.80843	0.70915	0.68544	0.687
Mof_Mn	Mn	0.19507	0.52552	0.58793	0.642
Mof_Mn	Mn	0.28449	0.9971	0.52573	0.633
Mof_N 	N 	0.0655	0.9539	0.7151	-0.172
Mof_N 	N 	0.1039	0.8286	0.6433	-0.164
Mof_N 	N 	0.2353	0.9968	0.6711	-0.174
Mof_N 	N 	0.1595	0.7541	0.7339	-0.172
Mof_N 	N 	0.4629	0.0987	0.7151	-0.163
Mof_N 	N 	0.6795	0.0428	0.7395	-0.156
Mof_N 	N 	0.6131	0.8796	0.7845	-0.167
Mof_N 	N 	0.1116	0.6382	0.563	-0.17
Mof_N 	N 	0.168	0.5562	0.6518	-0.165
Mof_N 	N 	0.2532	0.396	0.6105	-0.172
Mof_N 	N 	0.1644	0.9245	0.5394	-0.164
Mof_N 	N 	0.2912	0.1044	0.5726	-0.167
Mof_N 	N 	0.1963	0.0866	0.4855	-0.165
Mof_C 	C 	0.0069	0.9832	0.7281	-0.019
Mof_C 	C 	0.0619	0.8221	0.6134	-0.023
Mof_C 	C 	0.2605	0.0681	0.6672	-0.025
Mof_C 	C 	0.408	0.1372	0.6962	-0.036
Mof_C 	C 	0.0661	0.7012	0.5585	-0.041
Mof_C 	C 	0.1013	0.8868	0.5447	-0.037
Mof_C 	C 	0.2978	0.143	0.6018	-0.02
Mof_W 	W 	0.8936	0.03884	0.75526	0.504
Mof_W 	W 	0.98294	0.81805	0.55604	0.512
Mof_W 	W 	0.30364	0.20725	0.6612	0.504
Mof_C 	C 	0.9489	0.9329	0.7944	-0.049
Mof_C 	C 	0.8564	0.1798	0.7618	-0.022
Mof_C 	C 	0.7547	0.0436	0.7447	-0.037
Mof_C 	C 	0.0047	0.1122	0.782	-0.03
Mof_C 	C 	0.8503	0.917	0.7228	-0.023
Mof_C 	C 	0.8988	0.1011	0.6962	-0.031
Mof_C 	C 	0.8496	0.0523	0.8164	-0.019
Mof_C 	C 	0.9043	0.7061	0.5319	-0.041
Mof_C 	C 	0.8991	0.7796	0.6025	-0.026
Mof_C 	C 	0.9699	0.953	0.581	-0.026
Mof_C 	C 	0.0018	0.8118	0.4917	-0.032
Mof_C 	C 	0.8658	0.8806	0.5283	-0.028
Mof_C 	C 	0.4228	0.2432	0.6341	-0.038
Mof_C 	C 	0.3568	0.3196	0.698	-0.025
Mof_C 	C 	0.2512	0.1969	0.7198	-0.031
Mof_C 	C 	0.1646	0.2019	0.6446	-0.028
Mof_C 	C 	0.2693	0.3311	0.6278	-0.025
Mof_N 	N 	0.9842	0.8803	0.8156	-0.111
Mof_N 	N 	0.0627	0.1532	0.795	-0.171
Mof_N 	N 	0.8291	0.8537	0.7057	-0.159
Mof_N 	N 	0.9098	0.1366	0.6663	-0.167
Mof_N 	N 	0.864	0.6474	0.5183	-0.11
Mof_N 	N 	0.8562	0.7554	0.6265	-0.163
Mof_N 	N 	0.9676	0.024	0.5935	-0.168
Mof_N 	N 	0.0115	0.8093	0.4582	-0.173
Mof_N 	N 	0.4846	0.2617	0.6194	-0.101
Mof_N 	N 	0.2281	0.1881	0.7513	-0.167
Mof_N 	N 	0.0927	0.1955	0.6329	-0.163
Mof_Mn	Mn	0.95781	0.1704	0.60592	0.628
Mof_W 	W 	0.53205	0.25529	0.87165	0.513
Mof_C 	C 	0.4465	0.3379	0.9055	-0.035
Mof_C 	C 	0.4864	0.161	0.9147	-0.044
Mof_C 	C 	0.6421	0.288	0.8378	-0.028
Mof_C 	C 	0.4954	0.3619	0.8281	-0.024
Mof_C 	C 	0.5366	0.1485	0.8263	-0.027
Mof_C 	C 	0.3992	0.2296	0.849	-0.025
Mof_C 	C 	0.6378	0.1681	0.8952	-0.024
Mof_C 	C 	0.6061	0.3474	0.911	-0.038
Mof_N 	N 	0.4012	0.38	0.9236	-0.109
Mof_N 	N 	0.4626	0.11	0.9371	-0.094
Mof_N 	N 	0.7008	0.3065	0.8211	-0.165
Mof_N 	N 	0.4749	0.4125	0.8042	-0.169
Mof_N 	N 	0.5417	0.0936	0.8028	-0.17
Mof_N 	N 	0.328	0.2208	0.8362	-0.173
Mof_N 	N 	0.6941	0.1215	0.9065	-0.165
Mof_N 	N 	0.6442	0.3997	0.9321	-0.167
Mof_Mn	Mn	0.81934	0.37692	0.8021	0.691
Mof_Mn	Mn	0.45466	0.49611	0.74836	0.678
Mof_Mn	Mn	0.19157	0.20915	0.81456	0.687
Mof_Mn	Mn	0.80493	0.02552	0.91207	0.641
Mof_Mn	Mn	0.71551	0.4971	0.97427	0.633
Mof_N 	N 	0.9345	0.4539	0.7849	-0.172
Mof_N 	N 	0.8961	0.3286	0.8567	-0.164
Mof_N 	N 	0.7647	0.4968	0.8289	-0.173
Mof_N 	N 	0.8405	0.2541	0.7661	-0.172
Mof_N 	N 	0.5371	0.5987	0.7849	-0.163
Mof_N 	N 	0.3205	0.5428	0.7605	-0.156
Mof_N 	N 	0.3869	0.3796	0.7155	-0.167
Mof_N 	N 	0.8884	0.1382	0.937	-0.17
Mof_N 	N 	0.832	0.0562	0.8482	-0.165
Mof_N 	N 	0.7468	0.896	0.8895	-0.172
Mof_N 	N 	0.8356	0.4245	0.9606	-0.164
Mof_N 	N 	0.7088	0.6044	0.9274	-0.167
Mof_N 	N 	0.8037	0.5866	0.0145	-0.165
Mof_C 	C 	0.9931	0.4832	0.7719	-0.017
Mof_C 	C 	0.9381	0.3221	0.8866	-0.023
Mof_C 	C 	0.7395	0.5681	0.8328	-0.027
Mof_C 	C 	0.592	0.6372	0.8038	-0.036
Mof_C 	C 	0.9339	0.2012	0.9415	-0.041
Mof_C 	C 	0.8987	0.3868	0.9553	-0.036
Mof_C 	C 	0.7022	0.643	0.8982	-0.02
Mof_W 	W 	0.1064	0.53884	0.74474	0.506
Mof_W 	W 	0.01706	0.31805	0.94396	0.511
Mof_W 	W 	0.69636	0.70725	0.8388	0.504
Mof_C 	C 	0.0511	0.4329	0.7056	-0.05
Mof_C 	C 	0.1436	0.6798	0.7382	-0.022
Mof_C 	C 	0.2453	0.5436	0.7553	-0.037
Mof_C 	C 	0.9953	0.6122	0.718	-0.031
Mof_C 	C 	0.1497	0.417	0.7772	-0.024
Mof_C 	C 	0.1012	0.6011	0.8038	-0.031
Mof_C 	C 	0.1504	0.5523	0.6836	-0.019
Mof_C 	C 	0.0957	0.2061	0.9681	-0.041
Mof_C 	C 	0.1009	0.2796	0.8975	-0.026
Mof_C 	C 	0.0301	0.453	0.919	-0.028
Mof_C 	C 	0.9982	0.3118	0.0083	-0.031
Mof_C 	C 	0.1342	0.3806	0.9717	-0.028
Mof_C 	C 	0.5772	0.7432	0.8659	-0.038
Mof_C 	C 	0.6432	0.8196	0.802	-0.025
Mof_C 	C 	0.7488	0.6969	0.7802	-0.031
Mof_C 	C 	0.8354	0.7019	0.8554	-0.029
Mof_C 	C 	0.7307	0.8311	0.8722	-0.025
Mof_N 	N 	0.0158	0.3803	0.6844	-0.111
Mof_N 	N 	0.9373	0.6532	0.705	-0.171
Mof_N 	N 	0.1709	0.3537	0.7943	-0.159
Mof_N 	N 	0.0902	0.6366	0.8337	-0.167
Mof_N 	N 	0.136	0.1474	0.9817	-0.109
Mof_N 	N 	0.1438	0.2554	0.8735	-0.163
Mof_N 	N 	0.0324	0.524	0.9065	-0.167
Mof_N 	N 	0.9885	0.3093	0.0418	-0.173
Mof_N 	N 	0.5154	0.7617	0.8806	-0.101
Mof_N 	N 	0.7719	0.6881	0.7487	-0.167
Mof_N 	N 	0.9073	0.6955	0.8671	-0.163
Mof_Mn	Mn	0.04219	0.6704	0.89408	0.628
_end
