data_functionalizedCrystal
_audit_creation_method	'EQeq! by Chris Wilmer'
_symmetry_space_group_name_H-M	'P1'
_symmetry_Int_Tables_number	1
_symmetry_cell_setting	triclinic
loop_
_symmetry_equiv_pos_as_xyz
  x,y,z
_cell_length_a	9.455
_cell_length_b	11.0347
_cell_length_c	16.0074
_cell_angle_alpha	90
_cell_angle_beta	90
_cell_angle_gamma	98.466
loop_
_atom_site_label
_atom_site_type_symbol
_atom_site_fract_x
_atom_site_fract_y
_atom_site_fract_z
_atom_site_charge
Mof_Zn	Zn	0.86887	0.06871	0.92005	1.231
Mof_Zn	Zn	0.63113	0.43129	0.42005	1.236
Mof_Zn	Zn	0.13113	0.93129	0.07995	1.231
Mof_Zn	Zn	0.36887	0.56871	0.57995	1.236
Mof_H 	H 	0.554	0.861	0.047	0.021
Mof_H 	H 	0.415	0.604	0.223	0.03
Mof_H 	H 	0.838	0.677	0.158	0.027
Mof_H 	H 	0.946	0.639	0.547	0.021
Mof_H 	H 	0.085	0.896	0.723	0.032
Mof_H 	H 	0.662	0.823	0.658	0.027
Mof_H 	H 	0.446	0.139	0.953	0.022
Mof_H 	H 	0.585	0.396	0.777	0.031
Mof_H 	H 	0.162	0.323	0.842	0.028
Mof_H 	H 	0.054	0.361	0.453	0.022
Mof_H 	H 	0.915	0.104	0.277	0.032
Mof_H 	H 	0.338	0.177	0.342	0.027
Mof_C 	C 	0.8304	0.8554	0.0443	0.416
Mof_C 	C 	0.3133	0.7663	0.12329	0.351
Mof_C 	C 	0.6718	0.5411	0.2652	0.351
Mof_C 	C 	0.7139	0.7798	0.0933	-0.154
Mof_C 	C 	0.5731	0.8018	0.08377	0.073
Mof_C 	C 	0.4639	0.7386	0.13127	-0.13
Mof_C 	C 	0.4963	0.6525	0.18917	0.066
Mof_C 	C 	0.636	0.6293	0.1991	-0.129
Mof_C 	C 	0.7452	0.6928	0.15034	0.072
Mof_C 	C 	0.6696	0.6446	0.5443	0.417
Mof_C 	C 	0.1867	0.7337	0.62329	0.351
Mof_C 	C 	0.8282	0.9589	0.7652	0.349
Mof_C 	C 	0.7861	0.7202	0.5933	-0.155
Mof_C 	C 	0.9269	0.6982	0.58377	0.078
Mof_C 	C 	0.0361	0.7614	0.63127	-0.132
Mof_C 	C 	0.0037	0.8475	0.68917	0.059
Mof_C 	C 	0.864	0.8707	0.6991	-0.122
Mof_C 	C 	0.7548	0.8072	0.65034	0.071
Mof_C 	C 	0.1696	0.1446	0.9557	0.416
Mof_C 	C 	0.6867	0.2337	0.87671	0.351
Mof_C 	C 	0.3282	0.4589	0.7348	0.351
Mof_C 	C 	0.2861	0.2202	0.9067	-0.154
Mof_C 	C 	0.4269	0.1982	0.91623	0.073
Mof_C 	C 	0.5361	0.2614	0.86873	-0.13
Mof_C 	C 	0.5037	0.3475	0.81083	0.066
Mof_C 	C 	0.364	0.3707	0.8009	-0.129
Mof_C 	C 	0.2548	0.3072	0.84966	0.072
Mof_C 	C 	0.3304	0.3554	0.4557	0.417
Mof_C 	C 	0.8133	0.2663	0.37671	0.351
Mof_C 	C 	0.1718	0.0411	0.2348	0.349
Mof_C 	C 	0.2139	0.2798	0.4067	-0.155
Mof_C 	C 	0.0731	0.3018	0.41623	0.078
Mof_C 	C 	0.9639	0.2386	0.36873	-0.132
Mof_C 	C 	0.9963	0.1525	0.31083	0.059
Mof_C 	C 	0.136	0.1293	0.3009	-0.122
Mof_C 	C 	0.2452	0.1928	0.34966	0.071
Mof_O 	O 	0.797	0.9446	0.00498	-0.491
Mof_O 	O 	0.9543	0.8253	0.04746	-0.48
Mof_O 	O 	0.2944	0.8452	0.06788	-0.458
Mof_O 	O 	0.2177	0.7147	0.16975	-0.314
Mof_O 	O 	0.5767	0.5137	0.32157	-0.465
Mof_O 	O 	0.7868	0.5022	0.2625	-0.319
Mof_O 	O 	0.703	0.5554	0.50498	-0.494
Mof_O 	O 	0.5457	0.6747	0.54746	-0.484
Mof_O 	O 	0.2056	0.6548	0.56788	-0.455
Mof_O 	O 	0.2823	0.7853	0.66975	-0.312
Mof_O 	O 	0.9233	0.9863	0.82157	-0.461
Mof_O 	O 	0.7132	0.9978	0.7625	-0.317
Mof_O 	O 	0.203	0.0554	0.99502	-0.491
Mof_O 	O 	0.0457	0.1747	0.95254	-0.48
Mof_O 	O 	0.7056	0.1548	0.93212	-0.458
Mof_O 	O 	0.7823	0.2853	0.83025	-0.314
Mof_O 	O 	0.4233	0.4863	0.67843	-0.465
Mof_O 	O 	0.2132	0.4978	0.7375	-0.319
Mof_O 	O 	0.297	0.4446	0.49502	-0.494
Mof_O 	O 	0.4543	0.3253	0.45254	-0.484
Mof_O 	O 	0.7944	0.3452	0.43212	-0.455
Mof_O 	O 	0.7177	0.2147	0.33025	-0.312
Mof_O 	O 	0.0767	0.0137	0.17843	-0.461
Mof_O 	O 	0.2868	0.0022	0.2375	-0.317
Mof_H 	H 	0.9154	0.4047	0.5838	0.175
Mof_H 	H 	0.9854	0.4244	0.6724	0.177
Mof_H 	H 	0.8293	0.452	0.6576	0.174
Mof_H 	H 	0.6333	0.2812	0.6448	0.159
Mof_H 	H 	0.6676	0.1464	0.6429	0.169
Mof_H 	H 	0.7099	0.2339	0.567	0.16
Mof_H 	H 	0.911	0.225	0.655	0.091
Mof_H 	H 	0.82	0.264	0.73	0.111
Mof_C 	C 	0.8977	0.3994	0.6428	-0.426
Mof_C 	C 	0.7007	0.2295	0.6267	-0.399
Mof_N 	N 	0.8403	0.2707	0.6654	-0.098
Mof_H 	H 	0.5846	0.0953	0.0838	0.176
Mof_H 	H 	0.5146	0.0756	0.1724	0.179
Mof_H 	H 	0.6707	0.048	0.1576	0.173
Mof_H 	H 	0.8667	0.2188	0.1448	0.158
Mof_H 	H 	0.8324	0.3536	0.1429	0.17
Mof_H 	H 	0.7901	0.2661	0.067	0.161
Mof_H 	H 	0.589	0.275	0.155	0.093
Mof_H 	H 	0.68	0.236	0.23	0.112
Mof_C 	C 	0.6023	0.1006	0.1428	-0.427
Mof_C 	C 	0.7993	0.2705	0.1267	-0.399
Mof_N 	N 	0.6597	0.2293	0.1654	-0.098
Mof_H 	H 	0.0846	0.5953	0.4162	0.175
Mof_H 	H 	0.0146	0.5756	0.3276	0.177
Mof_H 	H 	0.1707	0.548	0.3424	0.174
Mof_H 	H 	0.3667	0.7188	0.3552	0.159
Mof_H 	H 	0.3324	0.8536	0.3571	0.169
Mof_H 	H 	0.2901	0.7661	0.433	0.16
Mof_H 	H 	0.089	0.775	0.345	0.091
Mof_H 	H 	0.18	0.736	0.27	0.111
Mof_C 	C 	0.1023	0.6006	0.3572	-0.426
Mof_C 	C 	0.2993	0.7705	0.3733	-0.399
Mof_N 	N 	0.1597	0.7293	0.3346	-0.098
Mof_H 	H 	0.4154	0.9047	0.9162	0.176
Mof_H 	H 	0.4854	0.9244	0.8276	0.179
Mof_H 	H 	0.3293	0.952	0.8424	0.173
Mof_H 	H 	0.1333	0.7812	0.8552	0.158
Mof_H 	H 	0.1676	0.6464	0.8571	0.17
Mof_H 	H 	0.2099	0.7339	0.933	0.161
Mof_H 	H 	0.411	0.725	0.845	0.093
Mof_H 	H 	0.32	0.764	0.77	0.112
Mof_C 	C 	0.3977	0.8994	0.8572	-0.427
Mof_C 	C 	0.2007	0.7295	0.8733	-0.399
Mof_N 	N 	0.3403	0.7707	0.8346	-0.098
_end
