data_functionalizedCrystal
_audit_creation_method	'EQeq! by Chris Wilmer'
_symmetry_space_group_name_H-M	'P1'
_symmetry_Int_Tables_number	1
_symmetry_cell_setting	triclinic
loop_
_symmetry_equiv_pos_as_xyz
  x,y,z
_cell_length_a	9.8058
_cell_length_b	11.3416
_cell_length_c	14.5534
_cell_angle_alpha	91.1962
_cell_angle_beta	90
_cell_angle_gamma	90
loop_
_atom_site_label
_atom_site_type_symbol
_atom_site_fract_x
_atom_site_fract_y
_atom_site_fract_z
_atom_site_charge
Mof_Fe	Fe	0.91673	0.75594	0.13164	0.964
Mof_Fe	Fe	0.8982	0.26085	0.68576	0.978
Mof_Fe	Fe	0.41673	0.74406	0.36836	0.931
Mof_Fe	Fe	0.3982	0.23915	0.81424	0.928
Mof_Fe	Fe	0.08327	0.24406	0.86836	0.888
Mof_Fe	Fe	0.1018	0.73915	0.31424	0.883
Mof_Fe	Fe	0.58327	0.25594	0.63164	0.912
Mof_Fe	Fe	0.6018	0.76085	0.18576	0.934
Mof_Fe	Fe	-0	0.5	-0	0.779
Mof_Fe	Fe	0.5	-2.1955e-18	0.5	0.873
Mof_Fe	Fe	-0	0	-0	0.715
Mof_Fe	Fe	0.5	0.5	0.5	0.95
Mof_H 	H 	0.7455	0.8643	0.366	-0.089
Mof_H 	H 	0.0185	0.4728	0.2692	-0.061
Mof_H 	H 	0.6132	0.559	0.0344	-0.077
Mof_H 	H 	0.1846	0.9834	0.237	-0.128
Mof_H 	H 	0.1748	0.698	0.9356	-0.103
Mof_H 	H 	0.6972	0.9924	0.0055	-0.085
Mof_H 	H 	0.2455	0.6357	0.134	-0.112
Mof_H 	H 	0.5185	0.0272	0.2308	-0.198
Mof_H 	H 	0.1132	0.941	0.4656	-0.093
Mof_H 	H 	0.6846	0.5166	0.263	-0.11
Mof_H 	H 	0.6748	0.802	0.5644	-0.081
Mof_H 	H 	0.1972	0.5076	0.4945	-0.1
Mof_H 	H 	0.2545	0.1357	0.634	-0.117
Mof_H 	H 	0.9815	0.5272	0.7308	-0.124
Mof_H 	H 	0.3868	0.441	0.9656	-0.11
Mof_H 	H 	0.8154	0.0166	0.763	-0.082
Mof_H 	H 	0.8252	0.302	0.0644	-0.066
Mof_H 	H 	0.3028	0.0076	0.9945	-0.076
Mof_H 	H 	0.7545	0.3643	0.866	-0.091
Mof_H 	H 	0.4815	0.9728	0.7692	0.009
Mof_H 	H 	0.8868	0.059	0.5344	-0.097
Mof_H 	H 	0.3154	0.4834	0.737	-0.112
Mof_H 	H 	0.3252	0.198	0.4356	-0.109
Mof_H 	H 	0.8028	0.4924	0.5055	-0.082
Mof_C 	C 	0.8181	0.83289	0.32979	0.485
Mof_C 	C 	0.003	0.51418	0.21408	0.314
Mof_C 	C 	0.7071	0.57679	0.04309	0.37
Mof_C 	C 	0.1269	0.95479	0.18909	0.575
Mof_C 	C 	0.1119	0.74327	0.97127	0.587
Mof_C 	C 	0.7136	0.93138	0.04788	0.469
Mof_C 	C 	0.3181	0.66711	0.17021	0.49
Mof_C 	C 	0.503	0.98582	0.28592	0.676
Mof_C 	C 	0.2071	0.92321	0.45691	0.485
Mof_C 	C 	0.6269	0.54521	0.31091	0.497
Mof_C 	C 	0.6119	0.75673	0.52873	0.49
Mof_C 	C 	0.2136	0.56862	0.45212	0.488
Mof_C 	C 	0.1819	0.16711	0.67021	0.496
Mof_C 	C 	0.997	0.48582	0.78592	0.628
Mof_C 	C 	0.2929	0.42321	0.95691	0.601
Mof_C 	C 	0.8731	0.04521	0.81091	0.382
Mof_C 	C 	0.8881	0.25673	0.02873	0.363
Mof_C 	C 	0.2864	0.06862	0.95212	0.468
Mof_C 	C 	0.6819	0.33289	0.82979	0.489
Mof_C 	C 	0.497	0.01418	0.71408	0.284
Mof_C 	C 	0.7929	0.07679	0.54309	0.495
Mof_C 	C 	0.3731	0.45479	0.68909	0.499
Mof_C 	C 	0.3881	0.24327	0.47127	0.503
Mof_C 	C 	0.7864	0.43138	0.54788	0.48
Mof_O 	O 	0.79344	0.81098	0.24494	-0.46
Mof_O 	O 	0.92836	0.81671	0.36891	-0.354
Mof_O 	O 	0.99631	0.626	0.22021	-0.376
Mof_O 	O 	0.9911	0.45461	0.14221	-0.284
Mof_O 	O 	0.73633	0.65238	0.10509	-0.442
Mof_O 	O 	0.78935	0.52356	0.99256	-0.263
Mof_O 	O 	0.08019	0.85066	0.19718	-0.508
Mof_O 	O 	0.10503	0.02184	0.12558	-0.459
Mof_O 	O 	0.03126	0.68625	0.02376	-0.543
Mof_O 	O 	0.11538	0.85062	0.96282	-0.355
Mof_O 	O 	0.83733	0.89806	0.05787	-0.427
Mof_O 	O 	0.6132	0.89137	0.08847	-0.383
Mof_O 	O 	0.29344	0.68902	0.25506	-0.468
Mof_O 	O 	0.42836	0.68329	0.13109	-0.404
Mof_O 	O 	0.49631	0.874	0.27979	-0.51
Mof_O 	O 	0.4911	0.04539	0.35779	-0.46
Mof_O 	O 	0.23633	0.84762	0.39491	-0.461
Mof_O 	O 	0.28935	0.97644	0.50744	-0.353
Mof_O 	O 	0.58019	0.64934	0.30282	-0.471
Mof_O 	O 	0.60503	0.47816	0.37442	-0.392
Mof_O 	O 	0.53126	0.81375	0.47624	-0.452
Mof_O 	O 	0.61538	0.64938	0.53718	-0.39
Mof_O 	O 	0.33733	0.60194	0.44213	-0.468
Mof_O 	O 	0.1132	0.60863	0.41153	-0.402
Mof_O 	O 	0.20656	0.18902	0.75506	-0.477
Mof_O 	O 	0.07164	0.18329	0.63109	-0.431
Mof_O 	O 	0.00369	0.374	0.77979	-0.543
Mof_O 	O 	0.0089	0.54539	0.85779	-0.415
Mof_O 	O 	0.26367	0.34762	0.89491	-0.486
Mof_O 	O 	0.21065	0.47644	0.00744	-0.463
Mof_O 	O 	0.91981	0.14934	0.80282	-0.416
Mof_O 	O 	0.89497	0.97816	0.87442	-0.245
Mof_O 	O 	0.96874	0.31375	0.97624	-0.339
Mof_O 	O 	0.88462	0.14938	0.03718	-0.351
Mof_O 	O 	0.16267	0.10194	0.94213	-0.431
Mof_O 	O 	0.3868	0.10863	0.91153	-0.384
Mof_O 	O 	0.70656	0.31098	0.74494	-0.469
Mof_O 	O 	0.57164	0.31671	0.86891	-0.381
Mof_O 	O 	0.50369	0.126	0.72021	-0.42
Mof_O 	O 	0.5089	0.95461	0.64221	-0.273
Mof_O 	O 	0.76367	0.15238	0.60509	-0.472
Mof_O 	O 	0.71065	0.02356	0.49256	-0.401
Mof_O 	O 	0.41981	0.35066	0.69718	-0.471
Mof_O 	O 	0.39497	0.52184	0.62558	-0.393
Mof_O 	O 	0.46874	0.18625	0.52376	-0.469
Mof_O 	O 	0.38462	0.35062	0.46282	-0.403
Mof_O 	O 	0.66267	0.39806	0.55787	-0.462
Mof_O 	O 	0.8868	0.39137	0.58847	-0.375
_end
