data_functionalizedCrystal
_audit_creation_method	'EQeq! by Chris Wilmer'
_symmetry_space_group_name_H-M	'P1'
_symmetry_Int_Tables_number	1
_symmetry_cell_setting	triclinic
loop_
_symmetry_equiv_pos_as_xyz
  x,y,z
_cell_length_a	12.8434
_cell_length_b	12.8434
_cell_length_c	12.8434
_cell_angle_alpha	90
_cell_angle_beta	90
_cell_angle_gamma	90
loop_
_atom_site_label
_atom_site_type_symbol
_atom_site_fract_x
_atom_site_fract_y
_atom_site_fract_z
_atom_site_charge
Mof_N 	N 	0.05915	0.0425	0.35886	-0.211
Mof_N 	N 	0.0185	0.0329	0.27594	-0.166
Mof_N 	N 	0.9838	0.0272	0.19383	-0.073
Mof_N 	N 	0.44085	0.9575	0.85886	-0.04
Mof_N 	N 	0.4815	0.9671	0.77594	0.006
Mof_N 	N 	0.5162	0.9728	0.69383	-0.164
Mof_N 	N 	0.94085	0.5425	0.14114	-0.145
Mof_N 	N 	0.9815	0.5329	0.22406	0.085
Mof_N 	N 	0.0162	0.5272	0.30617	-0.351
Mof_N 	N 	0.55915	0.4575	0.64114	-0.227
Mof_N 	N 	0.5185	0.4671	0.72406	-0.022
Mof_N 	N 	0.4838	0.4728	0.80617	-0.2
Mof_N 	N 	0.35886	0.05915	0.0425	-0.21
Mof_N 	N 	0.27594	0.0185	0.0329	-0.165
Mof_N 	N 	0.19383	0.9838	0.0272	-0.073
Mof_N 	N 	0.85886	0.44085	0.9575	-0.04
Mof_N 	N 	0.77594	0.4815	0.9671	0.006
Mof_N 	N 	0.69383	0.5162	0.9728	-0.164
Mof_N 	N 	0.14114	0.94085	0.5425	-0.145
Mof_N 	N 	0.22406	0.9815	0.5329	0.085
Mof_N 	N 	0.30617	0.0162	0.5272	-0.351
Mof_N 	N 	0.64114	0.55915	0.4575	-0.227
Mof_N 	N 	0.72406	0.5185	0.4671	-0.022
Mof_N 	N 	0.80617	0.4838	0.4728	-0.2
Mof_N 	N 	0.0425	0.35886	0.05915	-0.21
Mof_N 	N 	0.0329	0.27594	0.0185	-0.165
Mof_N 	N 	0.0272	0.19383	0.9838	-0.073
Mof_N 	N 	0.9575	0.85886	0.44085	-0.04
Mof_N 	N 	0.9671	0.77594	0.4815	0.006
Mof_N 	N 	0.9728	0.69383	0.5162	-0.164
Mof_N 	N 	0.5425	0.14114	0.94085	-0.145
Mof_N 	N 	0.5329	0.22406	0.9815	0.085
Mof_N 	N 	0.5272	0.30617	0.0162	-0.351
Mof_N 	N 	0.4575	0.64114	0.55915	-0.227
Mof_N 	N 	0.4671	0.72406	0.5185	-0.022
Mof_N 	N 	0.4728	0.80617	0.4838	-0.2
Mof_N 	N 	0.94085	0.9575	0.64114	-0.043
Mof_N 	N 	0.9815	0.9671	0.72406	0.111
Mof_N 	N 	0.0162	0.9728	0.80617	-0.158
Mof_N 	N 	0.55915	0.0425	0.14114	-0.222
Mof_N 	N 	0.5185	0.0329	0.22406	-0.053
Mof_N 	N 	0.4838	0.0272	0.30617	-0.279
Mof_N 	N 	0.05915	0.4575	0.85886	-0.117
Mof_N 	N 	0.0185	0.4671	0.77594	-0.129
Mof_N 	N 	0.9838	0.4728	0.69383	-0.093
Mof_N 	N 	0.44085	0.5425	0.35886	-0.24
Mof_N 	N 	0.4815	0.5329	0.27594	-0.031
Mof_N 	N 	0.5162	0.5272	0.19383	-0.258
Mof_N 	N 	0.64114	0.94085	0.9575	-0.043
Mof_N 	N 	0.72406	0.9815	0.9671	0.111
Mof_N 	N 	0.80617	0.0162	0.9728	-0.158
Mof_N 	N 	0.14114	0.55915	0.0425	-0.222
Mof_N 	N 	0.22406	0.5185	0.0329	-0.053
Mof_N 	N 	0.30617	0.4838	0.0272	-0.279
Mof_N 	N 	0.85886	0.05915	0.4575	-0.117
Mof_N 	N 	0.77594	0.0185	0.4671	-0.129
Mof_N 	N 	0.69383	0.9838	0.4728	-0.093
Mof_N 	N 	0.35886	0.44085	0.5425	-0.24
Mof_N 	N 	0.27594	0.4815	0.5329	-0.031
Mof_N 	N 	0.19383	0.5162	0.5272	-0.258
Mof_N 	N 	0.9575	0.64114	0.94085	-0.043
Mof_N 	N 	0.9671	0.72406	0.9815	0.111
Mof_N 	N 	0.9728	0.80617	0.0162	-0.158
Mof_N 	N 	0.0425	0.14114	0.55915	-0.222
Mof_N 	N 	0.0329	0.22406	0.5185	-0.053
Mof_N 	N 	0.0272	0.30617	0.4838	-0.279
Mof_N 	N 	0.4575	0.85886	0.05915	-0.117
Mof_N 	N 	0.4671	0.77594	0.0185	-0.129
Mof_N 	N 	0.4728	0.69383	0.9838	-0.093
Mof_N 	N 	0.5425	0.35886	0.44085	-0.24
Mof_N 	N 	0.5329	0.27594	0.4815	-0.031
Mof_N 	N 	0.5272	0.19383	0.5162	-0.258
Mof_Cr	Cr	1.8747e-33	0	0.5	0.633
Mof_Cr	Cr	0.5	0	-0	0.633
Mof_Cr	Cr	-0	0.5	-0	0.633
Mof_Cr	Cr	0.5	0.5	0.5	1.381
Mof_Na	Na	-0	0	-0	0.724
Mof_Na	Na	0.5	0	0.5	1.684
Mof_Na	Na	1.8747e-33	0.5	0.5	1.684
Mof_Na	Na	0.5	0.5	-0	1.684
_end
