data_functionalizedCrystal
_audit_creation_method	'EQeq! by Chris Wilmer'
_symmetry_space_group_name_H-M	'P1'
_symmetry_Int_Tables_number	1
_symmetry_cell_setting	triclinic
loop_
_symmetry_equiv_pos_as_xyz
  x,y,z
_cell_length_a	13.663
_cell_length_b	18.329
_cell_length_c	22.173
_cell_angle_alpha	67.204
_cell_angle_beta	88.26
_cell_angle_gamma	86.712
loop_
_atom_site_label
_atom_site_type_symbol
_atom_site_fract_x
_atom_site_fract_y
_atom_site_fract_z
_atom_site_charge
Mof_Mn	Mn	0.42318	0.21357	0.1396	0.952
Mof_Mn	Mn	0.21701	0.29277	0.19467	0.997
Mof_Mn	Mn	0.00892	0.3701	0.25223	0.815
Mof_Mn	Mn	0.58231	0.74021	0.07275	1.055
Mof_Mn	Mn	0.58174	0.99828	0.59211	0.959
Mof_Mn	Mn	0.87151	0.24629	0.85024	1.071
Mof_Mn	Mn	0.85257	0.84222	0.31961	1.038
Mof_Mn	Mn	0.85442	0.58392	0.80034	1.025
Mof_Mn	Mn	0.56047	0.33783	0.53573	1.011
Mof_H 	H 	0.3036	0.4831	0.0889	-0.107
Mof_H 	H 	0.5872	0.4395	0.1184	-0.028
Mof_H 	H 	0.3176	0.6966	0.1122	0.529
Mof_H 	H 	0.2083	0.7135	0.0894	0.492
Mof_H 	H 	0.2415	0.631	0.1426	0.509
Mof_H 	H 	0.3629	0.737	0.9897	0.537
Mof_H 	H 	0.3142	0.693	0.9511	0.505
Mof_H 	H 	0.2501	0.7498	0.9757	0.485
Mof_H 	H 	0.174	0.5636	0.0768	0.521
Mof_H 	H 	0.1387	0.6475	0.0266	0.486
Mof_H 	H 	0.2026	0.59	0.0026	0.495
Mof_H 	H 	0.6909	0.5319	0.1237	-0.009
Mof_H 	H 	0.7686	0.6443	0.1649	0.014
Mof_H 	H 	0.8388	0.547	0.1364	0.116
Mof_H 	H 	0.8518	0.606	0.0637	0.108
Mof_H 	H 	0.0028	0.5918	0.1098	-0.072
Mof_H 	H 	0.9585	0.6025	0.1721	0.024
Mof_H 	H 	0.0295	0.7173	0.113	-0.113
Mof_H 	H 	0.9825	0.7225	0.0479	-0.009
Mof_H 	H 	0.8987	0.8158	0.0784	0.083
Mof_H 	H 	0.8814	0.7533	0.1496	0.091
Mof_H 	H 	0.799	0.7495	0.0363	0.028
Mof_H 	H 	0.7652	0.8717	0.0969	-0.024
Mof_H 	H 	0.4202	0.0559	0.081	-0.073
Mof_H 	H 	0.7069	0.9899	0.0975	-0.014
Mof_H 	H 	0.3523	0.813	0.1379	0.397
Mof_H 	H 	0.3091	0.8681	0.1724	0.374
Mof_H 	H 	0.2428	0.8453	0.1266	0.363
Mof_H 	H 	0.3667	0.87	0.013	0.372
Mof_H 	H 	0.257	0.9012	0.0105	0.323
Mof_H 	H 	0.3387	0.9602	0.9749	0.33
Mof_H 	H 	0.2012	0.9869	0.0691	0.298
Mof_H 	H 	0.2748	0.013	0.1089	0.339
Mof_H 	H 	0.2824	0.0456	0.0324	0.34
Mof_H 	H 	0.2695	0.1513	0.3801	-0.119
Mof_H 	H 	0.5514	0.1183	0.3394	-0.04
Mof_H 	H 	0.2959	0.1839	0.5323	0.65
Mof_H 	H 	0.2346	0.1211	0.5868	0.602
Mof_H 	H 	0.3465	0.1032	0.578	0.672
Mof_H 	H 	0.1764	0.1838	0.4483	0.6
Mof_H 	H 	0.1565	0.1024	0.4443	0.59
Mof_H 	H 	0.1167	0.1212	0.5041	0.563
Mof_H 	H 	0.2002	0.9949	0.5801	0.389
Mof_H 	H 	0.2388	0.9775	0.5195	0.397
Mof_H 	H 	0.3128	0.9795	0.5714	0.428
Mof_H 	H 	0.6607	0.0535	0.4188	-0.014
Mof_H 	H 	0.7384	0.9066	0.5329	0.042
Mof_H 	H 	0.835	0.0452	0.453	0.063
Mof_H 	H 	0.7999	0.9808	0.4292	0.042
Mof_H 	H 	0.9131	0.8883	0.4928	0.115
Mof_H 	H 	0.9693	0.9644	0.452	0.101
Mof_H 	H 	0.9739	0.9988	0.5427	-0.092
Mof_H 	H 	0.0205	0.9125	0.5616	-0.176
Mof_H 	H 	0.8707	0.8599	0.6098	0.13
Mof_H 	H 	0.9096	0.9135	0.6438	0.099
Mof_H 	H 	0.8072	0.021	0.5747	0.025
Mof_H 	H 	0.7853	0.8878	0.7063	-0.037
Mof_H 	H 	0.4799	0.8561	0.8843	-0.078
Mof_H 	H 	0.7423	0.8217	0.8164	-0.03
Mof_H 	H 	0.3491	0.9495	0.8674	0.351
Mof_H 	H 	0.2543	0.9516	0.8285	0.321
Mof_H 	H 	0.3185	0.8726	0.8595	0.354
Mof_H 	H 	0.2625	0.9372	0.7207	0.278
Mof_H 	H 	0.3648	0.9287	0.6893	0.326
Mof_H 	H 	0.3278	0.8587	0.7514	0.313
Mof_H 	H 	0.4164	0.0594	0.7736	0.373
Mof_H 	H 	0.4202	0.0557	0.7041	0.395
Mof_H 	H 	0.3189	0.0645	0.7364	0.333
Mof_H 	H 	0.033	0.2673	0.0538	-0.047
Mof_H 	H 	0.2751	0.2064	0.9747	-0.083
Mof_H 	H 	0.3474	0.2418	0.8744	0.422
Mof_H 	H 	0.3418	0.1506	0.9153	0.428
Mof_H 	H 	0.3563	0.1823	0.8392	0.412
Mof_H 	H 	0.1966	0.078	0.9097	0.366
Mof_H 	H 	0.1116	0.1223	0.8612	0.366
Mof_H 	H 	0.2145	0.1064	0.8341	0.346
Mof_H 	H 	0.2083	0.316	0.7954	0.356
Mof_H 	H 	0.2239	0.2532	0.7637	0.344
Mof_H 	H 	0.12	0.2681	0.79	0.374
Mof_H 	H 	0.8808	0.2833	0.0054	-0.033
Mof_H 	H 	0.7139	0.2226	0.9702	0.031
Mof_H 	H 	0.7325	0.3102	0.0198	0.09
Mof_H 	H 	0.7227	0.3822	0.9521	0.076
Mof_H 	H 	0.5728	0.3699	0.0032	0.059
Mof_H 	H 	0.5739	0.2795	0.0169	0.072
Mof_H 	H 	0.4679	0.3415	0.9357	0.006
Mof_H 	H 	0.5439	0.4038	0.8966	0.016
Mof_H 	H 	0.5512	0.2443	0.9114	0.058
Mof_H 	H 	0.5362	0.3183	0.8452	0.032
Mof_H 	H 	0.6948	0.3583	0.8532	0.026
Mof_H 	H 	0.6124	0.2521	0.7955	-0.041
Mof_H 	H 	0.7994	0.1005	0.6512	-0.131
Mof_H 	H 	0.5871	0.2096	0.7143	-0.073
Mof_H 	H 	0.0064	0.2226	0.6479	0.609
Mof_H 	H 	0.0175	0.2086	0.7218	0.636
Mof_H 	H 	0.0918	0.1662	0.6891	0.597
Mof_H 	H 	0.9796	0.0827	0.8061	0.605
Mof_H 	H 	0.9537	0.0124	0.7868	0.586
Mof_H 	H 	0.0594	0.0445	0.7735	0.494
Mof_H 	H 	0.9618	0.1125	0.617	0.519
Mof_H 	H 	0.0482	0.0604	0.6603	0.414
Mof_H 	H 	0.9416	0.0299	0.6722	0.524
Mof_H 	H 	0.8462	0.1456	0.2711	0.019
Mof_H 	H 	0.1349	0.096	0.3066	-0.088
Mof_H 	H 	0.2976	0.9439	0.3603	0.686
Mof_H 	H 	0.2571	0.0224	0.3051	0.734
Mof_H 	H 	0.2286	0.0039	0.3784	0.71
Mof_H 	H 	0.1885	0.8372	0.4187	0.571
Mof_H 	H 	0.1207	0.8972	0.4375	0.575
Mof_H 	H 	0.0765	0.8473	0.4022	0.592
Mof_H 	H 	0.2362	0.8642	0.3056	0.559
Mof_H 	H 	0.1262	0.874	0.2845	0.573
Mof_H 	H 	0.1977	0.9417	0.2485	0.568
Mof_H 	H 	0.7431	0.0477	0.2799	-0.023
Mof_H 	H 	0.6456	0.8871	0.3525	0.003
Mof_H 	H 	0.5986	0.0167	0.2347	0.188
Mof_H 	H 	0.5922	0.021	0.3043	0.188
Mof_H 	H 	0.4393	0.9971	0.2745	-0.078
Mof_H 	H 	0.4761	0.9268	0.3378	-0.067
Mof_H 	H 	0.4086	0.8753	0.2716	0.038
Mof_H 	H 	0.4749	0.9248	0.2124	0.087
Mof_H 	H 	0.5476	0.7964	0.2559	0.016
Mof_H 	H 	0.5439	0.7958	0.3269	0.018
Mof_H 	H 	0.6622	0.8935	0.2238	0.038
Mof_H 	H 	0.6738	0.7226	0.2792	-0.034
Mof_H 	H 	0.0084	0.5257	0.3137	-0.213
Mof_H 	H 	0.7275	0.5929	0.2917	-0.042
Mof_H 	H 	0.1555	0.5705	0.2805	0.482
Mof_H 	H 	0.23	0.5927	0.3224	0.466
Mof_H 	H 	0.1471	0.5346	0.357	0.478
Mof_H 	H 	0.0691	0.7089	0.3797	0.459
Mof_H 	H 	0.0967	0.6184	0.4169	0.437
Mof_H 	H 	0.1784	0.6772	0.3812	0.438
Mof_H 	H 	0.1101	0.708	0.2178	0.478
Mof_H 	H 	0.0795	0.7662	0.2522	0.477
Mof_H 	H 	0.1879	0.7318	0.2565	0.468
Mof_H 	H 	0.1636	0.4379	0.0142	-0.103
Mof_H 	H 	0.8816	0.4676	0.0539	-0.056
Mof_H 	H 	0.2006	0.6072	0.8684	0.38
Mof_H 	H 	0.2469	0.58	0.8145	0.381
Mof_H 	H 	0.1346	0.6037	0.8131	0.385
Mof_H 	H 	0.09	0.463	0.8163	0.387
Mof_H 	H 	0.2035	0.4499	0.8094	0.353
Mof_H 	H 	0.1458	0.3889	0.8676	0.394
Mof_H 	H 	0.2849	0.4838	0.9463	0.394
Mof_H 	H 	0.2635	0.4018	0.944	0.409
Mof_H 	H 	0.3198	0.4642	0.886	0.381
Mof_H 	H 	0.7656	0.5198	0.9736	-0.037
Mof_H 	H 	0.6457	0.5307	0.8518	0.012
Mof_H 	H 	0.6112	0.5119	0.9603	0.085
Mof_H 	H 	0.6254	0.6021	0.944	0.094
Mof_H 	H 	0.4552	0.5826	0.9402	0.007
Mof_H 	H 	0.476	0.5451	0.888	0.003
Mof_H 	H 	0.4189	0.6737	0.8366	0.008
Mof_H 	H 	0.5017	0.703	0.868	0.048
Mof_H 	H 	0.5504	0.7284	0.7591	0.042
Mof_H 	H 	0.5344	0.6402	0.7685	0.027
Mof_H 	H 	0.68	0.6891	0.8312	0.033
Mof_H 	H 	0.6604	0.7171	0.6892	-0.029
Mof_H 	H 	0.9555	0.7136	0.5099	-0.045
Mof_H 	H 	0.6916	0.7511	0.5779	-0.026
Mof_H 	H 	0.0266	0.533	0.6948	0.36
Mof_H 	H 	0.0295	0.5252	0.6269	0.337
Mof_H 	H 	0.1275	0.5266	0.6613	0.325
Mof_H 	H 	0.1137	0.7298	0.6328	0.414
Mof_H 	H 	0.0824	0.661	0.6976	0.426
Mof_H 	H 	0.1791	0.6511	0.661	0.411
Mof_H 	H 	0.1117	0.7196	0.5285	0.328
Mof_H 	H 	0.1775	0.641	0.5561	0.325
Mof_H 	H 	0.0768	0.6421	0.5235	0.327
Mof_H 	H 	0.1565	0.3801	0.4117	-0.127
Mof_H 	H 	0.398	0.3155	0.3366	-0.018
Mof_H 	H 	0.0783	0.4098	0.5493	0.435
Mof_H 	H 	0.0933	0.4405	0.4733	0.447
Mof_H 	H 	0.0823	0.3499	0.5144	0.441
Mof_H 	H 	0.3257	0.4564	0.5316	0.567
Mof_H 	H 	0.2401	0.5039	0.4847	0.537
Mof_H 	H 	0.2238	0.4707	0.5607	0.534
Mof_H 	H 	0.3068	0.3095	0.5974	0.558
Mof_H 	H 	0.2055	0.3324	0.6221	0.514
Mof_H 	H 	0.2112	0.2721	0.5875	0.511
Mof_H 	H 	0.5477	0.2894	0.3883	-0.02
Mof_H 	H 	0.6911	0.218	0.5032	0.029
Mof_H 	H 	0.6864	0.2171	0.3988	0.089
Mof_H 	H 	0.7292	0.3016	0.3692	0.104
Mof_H 	H 	0.8321	0.1638	0.4569	0.035
Mof_H 	H 	0.8578	0.206	0.3822	0.051
Mof_H 	H 	0.9655	0.2436	0.446	0.047
Mof_H 	H 	0.9054	0.3182	0.3983	0.08
Mof_H 	H 	0.8996	0.324	0.5037	0.041
Mof_H 	H 	0.8605	0.2382	0.5351	0.038
Mof_H 	H 	0.7552	0.3723	0.4459	0.027
Mof_H 	H 	0.8219	0.3454	0.5772	-0.029
Mof_H 	H 	0.6351	0.4742	0.7441	-0.074
Mof_H 	H 	0.8484	0.3734	0.6691	-0.034
Mof_H 	H 	0.3427	0.4129	0.7021	0.377
Mof_H 	H 	0.4175	0.3673	0.6725	0.421
Mof_H 	H 	0.4291	0.3599	0.7448	0.407
Mof_H 	H 	0.3811	0.5474	0.6103	0.399
Mof_H 	H 	0.4895	0.5738	0.5991	0.432
Mof_H 	H 	0.4576	0.5068	0.5776	0.435
Mof_H 	H 	0.3953	0.5262	0.7261	0.397
Mof_H 	H 	0.4811	0.4719	0.7685	0.429
Mof_H 	H 	0.5033	0.5533	0.7122	0.433
Mof_C 	C 	0.4318	0.3661	0.1206	0.443
Mof_C 	C 	0.4433	0.4469	0.106	-0.351
Mof_C 	C 	0.3654	0.5017	0.0894	0.362
Mof_C 	C 	0.3713	0.5827	0.0734	-0.603
Mof_C 	C 	0.4662	0.6088	0.0813	0.42
Mof_C 	C 	0.5484	0.5518	0.0992	-0.277
Mof_C 	C 	0.5331	0.4751	0.109	0.225
Mof_C 	C 	0.2853	0.6426	0.05	1.253
Mof_C 	C 	0.2609	0.6738	0.1035	-1.718
Mof_C 	C 	0.305	0.7121	0.9856	-1.714
Mof_C 	C 	0.1913	0.6076	0.0379	-1.665
Mof_C 	C 	0.6431	0.5729	0.1088	0.145
Mof_C 	C 	0.7714	0.6546	0.1181	0.053
Mof_C 	C 	0.8516	0.6014	0.1087	-0.222
Mof_C 	C 	0.9527	0.6206	0.125	0.044
Mof_C 	C 	0.9707	0.7077	0.0944	0.079
Mof_C 	C 	0.8861	0.7606	0.1039	-0.218
Mof_C 	C 	0.7906	0.7408	0.0827	0.033
Mof_C 	C 	0.7039	0.8553	0.0917	0.125
Mof_C 	C 	0.5885	0.1094	0.098	0.426
Mof_C 	C 	0.6215	0.9076	0.0895	-0.233
Mof_C 	C 	0.5251	0.8916	0.0828	0.36
Mof_C 	C 	0.4497	0.9472	0.0796	-0.451
Mof_C 	C 	0.4706	0.0187	0.0831	0.256
Mof_C 	C 	0.567	0.0348	0.0898	-0.23
Mof_C 	C 	0.6424	0.9792	0.093	0.111
Mof_C 	C 	0.339	0.9289	0.0759	0.833
Mof_C 	C 	0.308	0.8574	0.1334	-1.31
Mof_C 	C 	0.3239	0.9136	0.0125	-1.187
Mof_C 	C 	0.2674	0.0005	0.0711	-1.1
Mof_C 	C 	0.3865	0.167	0.2768	0.443
Mof_C 	C 	0.4084	0.1378	0.3469	-0.325
Mof_C 	C 	0.3325	0.1318	0.3946	0.336
Mof_C 	C 	0.3493	0.0982	0.4613	-0.628
Mof_C 	C 	0.4496	0.0707	0.4822	0.451
Mof_C 	C 	0.5209	0.08	0.4351	-0.303
Mof_C 	C 	0.5005	0.1129	0.3694	0.233
Mof_C 	C 	0.2634	0.0928	0.5094	1.437
Mof_C 	C 	0.2871	0.1283	0.5556	-2.148
Mof_C 	C 	0.1698	0.1282	0.4732	-1.985
Mof_C 	C 	0.2528	0.0025	0.5489	-1.467
Mof_C 	C 	0.6175	0.0468	0.4535	0.149
Mof_C 	C 	0.7514	0.962	0.5234	-0.039
Mof_C 	C 	0.8253	0.989	0.4663	-0.061
Mof_C 	C 	0.9214	0.9429	0.4868	-0.291
Mof_C 	C 	0.9601	0.9449	0.5494	0.291
Mof_C 	C 	0.8844	0.9139	0.6032	-0.336
Mof_C 	C 	0.7905	0.9663	0.5847	0.06
Mof_C 	C 	0.722	0.9082	0.6935	0.131
Mof_C 	C 	0.6492	0.8926	0.7442	-0.242
Mof_C 	C 	0.5512	0.928	0.7329	0.368
Mof_C 	C 	0.4853	0.9139	0.7868	-0.429
Mof_C 	C 	0.522	0.8662	0.8485	0.244
Mof_C 	C 	0.6156	0.8334	0.8598	-0.272
Mof_C 	C 	0.6792	0.845	0.8088	0.156
Mof_C 	C 	0.6474	0.783	0.929	0.445
Mof_C 	C 	0.3799	0.9512	0.776	0.811
Mof_C 	C 	0.32	0.9292	0.8386	-1.233
Mof_C 	C 	0.3286	0.9153	0.7297	-1.085
Mof_C 	C 	0.3843	0.041	0.7446	-1.23
Mof_C 	C 	0.2214	0.2291	0.0826	0.459
Mof_C 	C 	0.1611	0.2341	0.0247	-0.299
Mof_C 	C 	0.0638	0.2529	0.0218	0.208
Mof_C 	C 	0.0083	0.2503	0.9683	-0.37
Mof_C 	C 	0.0544	0.2313	0.9195	0.427
Mof_C 	C 	0.1562	0.2158	0.9211	-0.495
Mof_C 	C 	0.2077	0.2171	0.9732	0.256
Mof_C 	C 	0.2147	0.2	0.8658	0.912
Mof_C 	C 	0.3253	0.193	0.8745	-1.408
Mof_C 	C 	0.1811	0.1188	0.8679	-1.254
Mof_C 	C 	0.1893	0.2657	0.7971	-1.264
Mof_C 	C 	0.9041	0.2701	0.9709	0.253
Mof_C 	C 	0.7338	0.2761	0.9431	0.03
Mof_C 	C 	0.702	0.329	0.9772	-0.143
Mof_C 	C 	0.5922	0.3306	0.9853	-0.096
Mof_C 	C 	0.5369	0.3486	0.9247	-0.041
Mof_C 	C 	0.5686	0.2987	0.8873	-0.146
Mof_C 	C 	0.6814	0.3024	0.8773	0.02
Mof_C 	C 	0.6795	0.2396	0.7978	0.16
Mof_C 	C 	0.7183	0.2029	0.756	-0.316
Mof_C 	C 	0.8205	0.184	0.7546	0.483
Mof_C 	C 	0.8545	0.1432	0.7109	-0.712
Mof_C 	C 	0.7819	0.1316	0.6749	0.423
Mof_C 	C 	0.6827	0.1614	0.6695	-0.355
Mof_C 	C 	0.6527	0.1935	0.7131	0.253
Mof_C 	C 	0.6132	0.1569	0.6197	0.457
Mof_C 	C 	0.9604	0.116	0.7093	1.566
Mof_C 	C 	0.0247	0.1844	0.6903	-2.173
Mof_C 	C 	0.9909	0.0589	0.7746	-1.896
Mof_C 	C 	0.9798	0.0759	0.66	-1.67
Mof_C 	C 	0.007	0.2225	0.2692	0.211
Mof_C 	C 	0.9938	0.1331	0.2849	-0.078
Mof_C 	C 	0.8999	0.1095	0.2819	0.1
Mof_C 	C 	0.8896	0.0278	0.2961	-0.236
Mof_C 	C 	0.9712	0.9744	0.3115	0.505
Mof_C 	C 	0.0646	0.9987	0.3176	-0.749
Mof_C 	C 	0.0736	0.0783	0.3035	0.247
Mof_C 	C 	0.1543	0.9393	0.3396	1.541
Mof_C 	C 	0.2424	0.9812	0.3465	-2.312
Mof_C 	C 	0.1331	0.8743	0.4056	-2.009
Mof_C 	C 	0.1811	0.9012	0.2898	-1.952
Mof_C 	C 	0.7916	0.0071	0.2919	0.181
Mof_C 	C 	0.6617	0.9172	0.3064	0.135
Mof_C 	C 	0.5871	0.9864	0.2809	-0.444
Mof_C 	C 	0.4877	0.9535	0.2911	0.192
Mof_C 	C 	0.4726	0.8972	0.2595	-0.253
Mof_C 	C 	0.5531	0.829	0.2811	-0.024
Mof_C 	C 	0.6534	0.8625	0.2707	-0.049
Mof_C 	C 	0.7338	0.7355	0.2899	0.154
Mof_C 	C 	0.813	0.6771	0.3013	-0.278
Mof_C 	C 	0.9121	0.6931	0.3083	0.431
Mof_C 	C 	0.9911	0.6337	0.3107	-0.571
Mof_C 	C 	0.9601	0.5653	0.3092	0.503
Mof_C 	C 	0.8641	0.5473	0.3017	-0.364
Mof_C 	C 	0.7919	0.6028	0.2973	0.215
Mof_C 	C 	0.8394	0.473	0.292	0.492
Mof_C 	C 	0.0948	0.6511	0.3168	1.162
Mof_C 	C 	0.1633	0.5806	0.3194	-1.603
Mof_C 	C 	0.1113	0.6652	0.3795	-1.578
Mof_C 	C 	0.1204	0.7206	0.2552	-1.652
Mof_C 	C 	0.0488	0.4184	0.117	0.354
Mof_C 	C 	0.0261	0.4483	0.0442	-0.391
Mof_C 	C 	0.1003	0.4545	0.9988	0.354
Mof_C 	C 	0.0862	0.4839	0.9321	-0.617
Mof_C 	C 	0.9903	0.5086	0.9094	0.505
Mof_C 	C 	0.9101	0.5024	0.9556	-0.315
Mof_C 	C 	0.9316	0.4718	0.0235	0.32
Mof_C 	C 	0.1684	0.4934	0.8833	0.929
Mof_C 	C 	0.1896	0.579	0.8409	-1.341
Mof_C 	C 	0.1501	0.4439	0.8398	-1.272
Mof_C 	C 	0.269	0.4572	0.9183	-1.287
Mof_C 	C 	0.8097	0.5252	0.9395	0.192
Mof_C 	C 	0.6681	0.5692	0.8685	0.05
Mof_C 	C 	0.6049	0.5646	0.9263	-0.192
Mof_C 	C 	0.4969	0.5844	0.9036	-0.021
Mof_C 	C 	0.4866	0.6637	0.8508	-0.11
Mof_C 	C 	0.5547	0.6738	0.7901	-0.103
Mof_C 	C 	0.6591	0.6505	0.8142	-0.005
Mof_C 	C 	0.7197	0.6879	0.7014	0.124
Mof_C 	C 	0.7878	0.692	0.6499	-0.223
Mof_C 	C 	0.8851	0.6626	0.6606	0.323
Mof_C 	C 	0.95	0.6705	0.606	-0.361
Mof_C 	C 	0.9145	0.7089	0.5453	0.213
Mof_C 	C 	0.816	0.7433	0.5323	-0.234
Mof_C 	C 	0.7565	0.7317	0.5851	0.135
Mof_C 	C 	0.7795	0.7877	0.4647	0.398
Mof_C 	C 	0.0589	0.6404	0.618	0.885
Mof_C 	C 	0.0608	0.5471	0.6537	-1.219
Mof_C 	C 	0.113	0.6733	0.6554	-1.466
Mof_C 	C 	0.1113	0.6629	0.55	-1.206
Mof_C 	C 	0.2138	0.3598	0.3046	0.431
Mof_C 	C 	0.2684	0.3543	0.3625	-0.329
Mof_C 	C 	0.2237	0.3681	0.4141	0.335
Mof_C 	C 	0.2716	0.3653	0.4694	-0.638
Mof_C 	C 	0.3773	0.3484	0.4711	0.4
Mof_C 	C 	0.4237	0.3273	0.4216	-0.277
Mof_C 	C 	0.368	0.3302	0.3687	0.183
Mof_C 	C 	0.2226	0.3858	0.5238	1.326
Mof_C 	C 	0.1079	0.3977	0.5143	-1.565
Mof_C 	C 	0.256	0.4609	0.5254	-1.88
Mof_C 	C 	0.2379	0.319	0.5884	-1.838
Mof_C 	C 	0.5251	0.3048	0.4218	0.161
Mof_C 	C 	0.6895	0.269	0.4659	0.039
Mof_C 	C 	0.7289	0.2524	0.4075	-0.179
Mof_C 	C 	0.833	0.2147	0.4204	-0.039
Mof_C 	C 	0.9003	0.2689	0.4361	-0.118
Mof_C 	C 	0.8589	0.2868	0.4961	-0.104
Mof_C 	C 	0.7541	0.3212	0.4832	0.006
Mof_C 	C 	0.754	0.3513	0.5795	0.14
Mof_C 	C 	0.8201	0.4297	0.7635	0.394
Mof_C 	C 	0.7154	0.3787	0.6297	-0.243
Mof_C 	C 	0.6176	0.4033	0.6317	0.368
Mof_C 	C 	0.5876	0.4391	0.6746	-0.456
Mof_C 	C 	0.6553	0.4503	0.7154	0.257
Mof_C 	C 	0.753	0.4257	0.7133	-0.257
Mof_C 	C 	0.7831	0.3899	0.6705	0.163
Mof_C 	C 	0.476	0.4675	0.6771	0.987
Mof_C 	C 	0.41	0.395	0.7014	-1.38
Mof_C 	C 	0.4485	0.5296	0.6098	-1.44
Mof_C 	C 	0.4627	0.5086	0.7255	-1.418
Mof_N 	N 	0.6708	0.6442	0.0989	-0.248
Mof_N 	N 	0.7015	0.787	0.0872	-0.245
Mof_N 	N 	0.6553	0.0082	0.5116	-0.215
Mof_N 	N 	0.7085	0.9473	0.6328	-0.247
Mof_N 	N 	0.8417	0.2705	0.9277	-0.259
Mof_N 	N 	0.7305	0.2579	0.8403	-0.256
Mof_N 	N 	0.7652	0.9367	0.3033	-0.278
Mof_N 	N 	0.7371	0.8031	0.293	-0.243
Mof_N 	N 	0.7775	0.5518	0.8828	-0.258
Mof_N 	N 	0.7325	0.6481	0.7622	-0.237
Mof_N 	N 	0.5871	0.3037	0.4628	-0.251
Mof_N 	N 	0.7069	0.3349	0.5393	-0.242
Mof_O 	O 	0.3477	0.3375	0.1296	-0.441
Mof_O 	O 	0.5053	0.3191	0.123	-0.372
Mof_O 	O 	0.4726	0.6824	0.0746	-0.502
Mof_O 	O 	0.5031	0.822	0.0796	-0.473
Mof_O 	O 	0.2996	0.188	0.2568	-0.436
Mof_O 	O 	0.455	0.1693	0.2371	-0.42
Mof_O 	O 	0.4653	0.0366	0.5452	-0.495
Mof_O 	O 	0.521	0.9697	0.6751	-0.487
Mof_O 	O 	0.5922	0.7858	0.9739	-0.443
Mof_O 	O 	0.7231	0.7439	0.9366	-0.332
Mof_O 	O 	0.1768	0.2438	0.1267	-0.426
Mof_O 	O 	0.3085	0.2074	0.0828	-0.452
Mof_O 	O 	0.005	0.2245	0.8722	-0.546
Mof_O 	O 	0.8842	0.2012	0.7865	-0.519
Mof_O 	O 	0.5496	0.2112	0.6007	-0.42
Mof_O 	O 	0.6304	0.1062	0.5941	-0.393
Mof_O 	O 	0.0896	0.2479	0.2575	-0.406
Mof_O 	O 	0.9323	0.2641	0.2698	-0.265
Mof_O 	O 	0.9605	0.8987	0.3225	-0.499
Mof_O 	O 	0.9333	0.7584	0.3104	-0.478
Mof_O 	O 	0.911	0.4315	0.2879	-0.392
Mof_O 	O 	0.7565	0.4604	0.2854	-0.323
Mof_O 	O 	0.9757	0.4173	0.1534	-0.31
Mof_O 	O 	0.135	0.3989	0.1343	-0.414
Mof_O 	O 	0.9715	0.5383	0.8463	-0.467
Mof_O 	O 	0.9215	0.6244	0.7218	-0.437
Mof_O 	O 	0.8355	0.784	0.4196	-0.407
Mof_O 	O 	0.7002	0.8268	0.4557	-0.312
Mof_O 	O 	0.1216	0.3801	0.3045	-0.444
Mof_O 	O 	0.2588	0.3442	0.2606	-0.41
Mof_O 	O 	0.4292	0.3518	0.5193	-0.515
Mof_O 	O 	0.5496	0.3873	0.5957	-0.474
Mof_O 	O 	0.887	0.3721	0.789	-0.367
Mof_O 	O 	0.8028	0.4855	0.7825	-0.385
Mof_O 	O 	0.5185	0.1527	0.1035	-0.424
Mof_O 	O 	0.6737	0.1266	0.0967	-0.288
_end
