data_functionalizedCrystal
_audit_creation_method	'EQeq! by Chris Wilmer'
_symmetry_space_group_name_H-M	'P1'
_symmetry_Int_Tables_number	1
_symmetry_cell_setting	triclinic
loop_
_symmetry_equiv_pos_as_xyz
  x,y,z
_cell_length_a	7.3165
_cell_length_b	9.7247
_cell_length_c	14.7458
_cell_angle_alpha	90
_cell_angle_beta	100.062
_cell_angle_gamma	90
loop_
_atom_site_label
_atom_site_type_symbol
_atom_site_fract_x
_atom_site_fract_y
_atom_site_fract_z
_atom_site_charge
Mof_Eu	Eu	0.63219	0.55425	0.35641	2.275
Mof_Eu	Eu	0.36781	0.44575	0.64359	2.275
Mof_Eu	Eu	0.86781	0.05425	0.14359	2.205
Mof_Eu	Eu	0.13219	0.94575	0.85641	2.205
Mof_H 	H 	0.3237	0.669	0.0472	0.03
Mof_H 	H 	0.724	0.046	0.627	0.001
Mof_H 	H 	0.776	0.546	0.873	-0.001
Mof_H 	H 	0.224	0.454	0.127	-0.001
Mof_H 	H 	0.1763	0.169	0.4528	0.031
Mof_H 	H 	0.276	0.954	0.373	0.001
Mof_H 	H 	0.8237	0.831	0.5472	0.031
Mof_H 	H 	0.6763	0.331	0.9528	0.03
Mof_C 	C 	0.4569	0.96499	0.03865	0.275
Mof_C 	C 	0.6882	0.1329	0.49667	-0.055
Mof_C 	C 	0.8118	0.6329	0.00333	-0.058
Mof_C 	C 	0.7757	0.95087	0.42915	-0.05
Mof_C 	C 	0.2864	0.5831	0.01929	-0.02
Mof_C 	C 	0.6063	0.2723	0.49614	0.509
Mof_C 	C 	0.2243	0.04913	0.57085	-0.05
Mof_C 	C 	0.8162	0.8742	0.34873	0.468
Mof_C 	C 	0.7243	0.45087	0.07085	-0.066
Mof_C 	C 	0.0431	0.46499	0.46135	0.276
Mof_C 	C 	0.7864	0.9169	0.51929	-0.022
Mof_C 	C 	0.7696	0.5362	0.93647	-0.003
Mof_C 	C 	0.1063	0.2277	0.99614	0.504
Mof_C 	C 	0.1882	0.3671	0.99667	-0.058
Mof_C 	C 	0.3162	0.6258	0.84873	0.474
Mof_C 	C 	0.9569	0.53501	0.53865	0.276
Mof_C 	C 	0.2696	0.9638	0.43647	-0.012
Mof_C 	C 	0.2757	0.54913	0.92915	-0.066
Mof_C 	C 	0.7136	0.4169	0.98071	-0.02
Mof_C 	C 	0.3937	0.7277	0.50386	0.509
Mof_C 	C 	0.2136	0.0831	0.48071	-0.022
Mof_C 	C 	0.3118	0.8671	0.50333	-0.055
Mof_C 	C 	0.1838	0.1258	0.65127	0.468
Mof_C 	C 	0.2304	0.4638	0.06353	-0.003
Mof_C 	C 	0.5431	0.03501	0.96135	0.275
Mof_C 	C 	0.7304	0.0362	0.56353	-0.012
Mof_C 	C 	0.8937	0.7723	0.00386	0.504
Mof_C 	C 	0.6838	0.3742	0.15127	0.474
Mof_O 	O 	0.9182	0.83764	0.07881	-0.554
Mof_O 	O 	0.3391	0.75528	0.85832	-0.549
Mof_O 	O 	0.6739	0.43858	0.2234	-0.596
Mof_O 	O 	0.2178	0.41643	0.91381	-0.164
Mof_O 	O 	0.2822	0.91643	0.58619	-0.173
Mof_O 	O 	0.5595	0.95086	0.11553	-0.447
Mof_O 	O 	0.1609	0.25528	0.64168	-0.549
Mof_O 	O 	0.6609	0.24472	0.14168	-0.549
Mof_O 	O 	0.4182	0.66236	0.57881	-0.568
Mof_O 	O 	0.9405	0.45086	0.38447	-0.46
Mof_O 	O 	0.2094	0.42742	0.48226	-0.459
Mof_O 	O 	0.9352	0.81277	0.92938	-0.6
Mof_O 	O 	0.1739	0.06142	0.7234	-0.579
Mof_O 	O 	0.2906	0.92742	0.01774	-0.449
Mof_O 	O 	0.5648	0.31277	0.57062	-0.614
Mof_O 	O 	0.8391	0.74472	0.35832	-0.549
Mof_O 	O 	0.7822	0.58357	0.08619	-0.164
Mof_O 	O 	0.0818	0.16236	0.92119	-0.554
Mof_O 	O 	0.8261	0.93858	0.2766	-0.579
Mof_O 	O 	0.4405	0.04914	0.88447	-0.447
Mof_O 	O 	0.7094	0.07258	0.98226	-0.449
Mof_O 	O 	0.3261	0.56142	0.7766	-0.596
Mof_O 	O 	0.7178	0.08357	0.41381	-0.173
Mof_O 	O 	0.7906	0.57258	0.51774	-0.459
Mof_O 	O 	0.5818	0.33764	0.42119	-0.568
Mof_O 	O 	0.0648	0.18723	0.07062	-0.6
Mof_O 	O 	0.0595	0.54914	0.61553	-0.46
Mof_O 	O 	0.4352	0.68723	0.42938	-0.614
_end
