data_functionalizedCrystal
_audit_creation_method	'EQeq! by Chris Wilmer'
_symmetry_space_group_name_H-M	'P1'
_symmetry_Int_Tables_number	1
_symmetry_cell_setting	triclinic
loop_
_symmetry_equiv_pos_as_xyz
  x,y,z
_cell_length_a	13.326
_cell_length_b	15.4554
_cell_length_c	15.4554
_cell_angle_alpha	67.908
_cell_angle_beta	73.2972
_cell_angle_gamma	106.703
loop_
_atom_site_label
_atom_site_type_symbol
_atom_site_fract_x
_atom_site_fract_y
_atom_site_fract_z
_atom_site_charge
Mof_Cu	Cu	0.2605	0.4905	0.9032	0.913
Mof_Cu	Cu	0.1637	0.9032	0.6063	0.912
Mof_Cu	Cu	0.77	0.6063	0.4905	0.914
Mof_H 	H 	0.37901	0.79502	0.61399	0.113
Mof_H 	H 	0.27301	0.70102	0.61899	0.13
Mof_H 	H 	0.29901	0.82402	0.55599	0.066
Mof_H 	H 	0.03601	0.81802	0.83499	0.026
Mof_H 	H 	0.06	0.715	0.056	0.036
Mof_H 	H 	0.967	0.744	0.013	0.026
Mof_H 	H 	0.07	0.52	0.11	0.045
Mof_H 	H 	0.11	0.423	0.178	0.076
Mof_H 	H 	0.287	0.462	0.199	-0.014
Mof_H 	H 	0.193	0.604	0.146	0.154
Mof_H 	H 	0.256	0.587	0.225	0.127
Mof_H 	H 	0.346	0.639	0.091	0.137
Mof_H 	H 	0.408	0.622	0.975	0.09
Mof_H 	H 	0.471	0.604	0.056	0.112
Mof_H 	H 	0.421	0.512	0.027	0.113
Mof_H 	H 	0.993	0.61399	0.59099	0.113
Mof_H 	H 	0.892	0.61899	0.67999	0.131
Mof_H 	H 	0.855	0.55599	0.61999	0.067
Mof_H 	H 	0.871	0.83499	0.34699	0.029
Mof_H 	H 	0.116	0.056	0.229	0.036
Mof_H 	H 	0.98	0.013	0.243	0.02
Mof_H 	H 	0.18	0.11	0.37	0.044
Mof_H 	H 	0.288	0.178	0.399	0.076
Mof_H 	H 	0.486	0.199	0.339	-0.014
Mof_H 	H 	0.339	0.146	0.25	0.154
Mof_H 	H 	0.481	0.225	0.188	0.127
Mof_H 	H 	0.437	0.091	0.27	0.137
Mof_H 	H 	0.383	0.975	0.403	0.09
Mof_H 	H 	0.527	0.056	0.34	0.111
Mof_H 	H 	0.448	0.027	0.461	0.113
Mof_H 	H 	0.58399	0.59099	0.79502	0.112
Mof_H 	H 	0.57199	0.67999	0.70102	0.13
Mof_H 	H 	0.47499	0.61999	0.82402	0.066
Mof_H 	H 	0.21799	0.34699	0.81802	0.028
Mof_H 	H 	0.345	0.229	0.715	0.037
Mof_H 	H 	0.223	0.243	0.744	0.027
Mof_H 	H 	0.55	0.37	0.52	0.045
Mof_H 	H 	0.687	0.399	0.423	0.076
Mof_H 	H 	0.825	0.339	0.462	-0.014
Mof_H 	H 	0.589	0.25	0.604	0.154
Mof_H 	H 	0.669	0.188	0.587	0.127
Mof_H 	H 	0.707	0.27	0.639	0.137
Mof_H 	H 	0.786	0.403	0.622	0.091
Mof_H 	H 	0.867	0.34	0.604	0.112
Mof_H 	H 	0.909	0.461	0.512	0.113
Mof_C 	C 	0.2159	0.6668	0.8143	0.105
Mof_C 	C 	0.21831	0.74112	0.72749	0.094
Mof_C 	C 	0.29331	0.76662	0.62309	-0.315
Mof_C 	C 	0.08791	0.77582	0.83029	0.017
Mof_C 	C 	0.077	0.70561	0.91911	-0.012
Mof_C 	C 	0.0016	0.6899	0.0285	0.028
Mof_C 	C 	0.1418	0.6441	0.9179	-0.057
Mof_C 	C 	0.1376	0.5764	0.0116	0.035
Mof_C 	C 	0.1927	0.4526	0.1125	-0.162
Mof_C 	C 	0.2084	0.3578	0.1122	0.313
Mof_C 	C 	0.2824	0.513	0.1348	0.157
Mof_C 	C 	0.2633	0.5996	0.153	-0.402
Mof_C 	C 	0.406	0.5657	0.0414	-0.36
Mof_C 	C 	0.0302	0.8143	0.5189	0.103
Mof_C 	C 	0.9458	0.72749	0.53139	0.097
Mof_C 	C 	0.9164	0.62309	0.61029	-0.318
Mof_C 	C 	0.9182	0.83029	0.39389	0.017
Mof_C 	C 	0.99611	0.91911	0.37528	-0.007
Mof_C 	C 	0.0301	0.0285	0.2816	0.033
Mof_C 	C 	0.0597	0.9179	0.438	-0.062
Mof_C 	C 	0.1492	0.0116	0.412	0.039
Mof_C 	C 	0.3052	0.1125	0.4349	-0.162
Mof_C 	C 	0.3206	0.1122	0.53	0.313
Mof_C 	C 	0.4172	0.1348	0.3522	0.157
Mof_C 	C 	0.4163	0.153	0.2474	-0.402
Mof_C 	C 	0.4474	0.0414	0.3929	-0.358
Mof_C 	C 	0.5491	0.5189	0.6668	0.105
Mof_C 	C 	0.47719	0.53139	0.74112	0.094
Mof_C 	C 	0.52669	0.61029	0.76662	-0.316
Mof_C 	C 	0.31209	0.39389	0.77582	0.017
Mof_C 	C 	0.37139	0.37528	0.70561	-0.009
Mof_C 	C 	0.3117	0.2816	0.6899	0.024
Mof_C 	C 	0.4977	0.438	0.6441	-0.055
Mof_C 	C 	0.5612	0.412	0.5764	0.033
Mof_C 	C 	0.7401	0.4349	0.4526	-0.163
Mof_C 	C 	0.8506	0.53	0.3578	0.313
Mof_C 	C 	0.7694	0.3522	0.513	0.158
Mof_C 	C 	0.6637	0.2474	0.5996	-0.403
Mof_C 	C 	0.8403	0.3929	0.5657	-0.361
Mof_N 	N 	0.15631	0.79492	0.73539	-0.21
Mof_N 	N 	0.1932	0.5161	0.0152	-0.188
Mof_N 	N 	0.8917	0.73539	0.46969	-0.21
Mof_N 	N 	0.2084	0.0152	0.4687	-0.188
Mof_N 	N 	0.36139	0.46969	0.79492	-0.209
Mof_N 	N 	0.6771	0.4687	0.5161	-0.188
Mof_O 	O 	0.9153	0.5877	0.1	-0.231
Mof_O 	O 	0.2798	0.6179	0.8008	-0.338
Mof_O 	O 	0.2428	0.3658	0.0194	-0.371
Mof_O 	O 	0.1942	0.2864	0.1905	-0.255
Mof_O 	O 	0.0153	0.1	0.3123	-0.229
Mof_O 	O 	0.0806	0.8008	0.5813	-0.339
Mof_O 	O 	0.2622	0.0194	0.6148	-0.37
Mof_O 	O 	0.3847	0.1905	0.5231	-0.255
Mof_O 	O 	0.3276	0.3123	0.5877	-0.23
Mof_O 	O 	0.6619	0.5813	0.6179	-0.338
Mof_O 	O 	0.877	0.6148	0.3658	-0.372
Mof_O 	O 	0.9078	0.5231	0.2864	-0.256
Mof_Cu	Cu	0.7395	0.5095	0.0968	0.912
Mof_Cu	Cu	0.8363	0.0968	0.3937	0.911
Mof_Cu	Cu	0.23	0.3937	0.5095	0.913
Mof_H 	H 	0.62099	0.20498	0.38601	0.112
Mof_H 	H 	0.72699	0.29898	0.38101	0.13
Mof_H 	H 	0.70099	0.17598	0.44401	0.066
Mof_H 	H 	0.96399	0.18198	0.16501	0.026
Mof_H 	H 	0.94	0.285	0.944	0.036
Mof_H 	H 	0.033	0.256	0.987	0.026
Mof_H 	H 	0.93	0.48	0.89	0.045
Mof_H 	H 	0.89	0.577	0.822	0.076
Mof_H 	H 	0.713	0.538	0.801	-0.014
Mof_H 	H 	0.807	0.396	0.854	0.154
Mof_H 	H 	0.744	0.413	0.775	0.127
Mof_H 	H 	0.654	0.361	0.909	0.137
Mof_H 	H 	0.592	0.378	0.025	0.09
Mof_H 	H 	0.529	0.396	0.944	0.112
Mof_H 	H 	0.579	0.488	0.973	0.113
Mof_H 	H 	0.007	0.38601	0.40901	0.113
Mof_H 	H 	0.108	0.38101	0.32001	0.131
Mof_H 	H 	0.145	0.44401	0.38001	0.067
Mof_H 	H 	0.129	0.16501	0.65301	0.029
Mof_H 	H 	0.884	0.944	0.771	0.036
Mof_H 	H 	0.02	0.987	0.757	0.02
Mof_H 	H 	0.82	0.89	0.63	0.044
Mof_H 	H 	0.712	0.822	0.601	0.076
Mof_H 	H 	0.514	0.801	0.661	-0.014
Mof_H 	H 	0.661	0.854	0.75	0.154
Mof_H 	H 	0.519	0.775	0.812	0.127
Mof_H 	H 	0.563	0.909	0.73	0.137
Mof_H 	H 	0.617	0.025	0.597	0.09
Mof_H 	H 	0.473	0.944	0.66	0.111
Mof_H 	H 	0.552	0.973	0.539	0.113
Mof_H 	H 	0.41601	0.40901	0.20498	0.112
Mof_H 	H 	0.42801	0.32001	0.29898	0.13
Mof_H 	H 	0.52501	0.38001	0.17598	0.066
Mof_H 	H 	0.78201	0.65301	0.18198	0.028
Mof_H 	H 	0.655	0.771	0.285	0.037
Mof_H 	H 	0.777	0.757	0.256	0.027
Mof_H 	H 	0.45	0.63	0.48	0.045
Mof_H 	H 	0.313	0.601	0.577	0.076
Mof_H 	H 	0.175	0.661	0.538	-0.014
Mof_H 	H 	0.411	0.75	0.396	0.154
Mof_H 	H 	0.331	0.812	0.413	0.127
Mof_H 	H 	0.293	0.73	0.361	0.137
Mof_H 	H 	0.214	0.597	0.378	0.091
Mof_H 	H 	0.133	0.66	0.396	0.112
Mof_H 	H 	0.091	0.539	0.488	0.113
Mof_C 	C 	0.7841	0.3332	0.1857	0.105
Mof_C 	C 	0.78169	0.25888	0.27251	0.094
Mof_C 	C 	0.70669	0.23338	0.37691	-0.315
Mof_C 	C 	0.91209	0.22418	0.16971	0.017
Mof_C 	C 	0.923	0.29439	0.08089	-0.012
Mof_C 	C 	0.9984	0.3101	0.9715	0.028
Mof_C 	C 	0.8582	0.3559	0.0821	-0.057
Mof_C 	C 	0.8624	0.4236	0.9884	0.035
Mof_C 	C 	0.8073	0.5474	0.8875	-0.162
Mof_C 	C 	0.7916	0.6422	0.8878	0.313
Mof_C 	C 	0.7176	0.487	0.8652	0.157
Mof_C 	C 	0.7367	0.4004	0.847	-0.402
Mof_C 	C 	0.594	0.4343	0.9586	-0.36
Mof_C 	C 	0.9698	0.1857	0.4811	0.103
Mof_C 	C 	0.0542	0.27251	0.46861	0.097
Mof_C 	C 	0.0836	0.37691	0.38971	-0.318
Mof_C 	C 	0.0818	0.16971	0.60611	0.017
Mof_C 	C 	0.00389	0.08089	0.62472	-0.007
Mof_C 	C 	0.9699	0.9715	0.7184	0.033
Mof_C 	C 	0.9403	0.0821	0.562	-0.062
Mof_C 	C 	0.8508	0.9884	0.588	0.039
Mof_C 	C 	0.6948	0.8875	0.5651	-0.162
Mof_C 	C 	0.6794	0.8878	0.47	0.313
Mof_C 	C 	0.5828	0.8652	0.6478	0.157
Mof_C 	C 	0.5837	0.847	0.7526	-0.402
Mof_C 	C 	0.5526	0.9586	0.6071	-0.358
Mof_C 	C 	0.4509	0.4811	0.3332	0.105
Mof_C 	C 	0.52281	0.46861	0.25888	0.094
Mof_C 	C 	0.47331	0.38971	0.23338	-0.316
Mof_C 	C 	0.68791	0.60611	0.22418	0.017
Mof_C 	C 	0.62861	0.62472	0.29439	-0.009
Mof_C 	C 	0.6883	0.7184	0.3101	0.024
Mof_C 	C 	0.5023	0.562	0.3559	-0.055
Mof_C 	C 	0.4388	0.588	0.4236	0.033
Mof_C 	C 	0.2599	0.5651	0.5474	-0.163
Mof_C 	C 	0.1494	0.47	0.6422	0.313
Mof_C 	C 	0.2306	0.6478	0.487	0.158
Mof_C 	C 	0.3363	0.7526	0.4004	-0.403
Mof_C 	C 	0.1597	0.6071	0.4343	-0.361
Mof_N 	N 	0.84369	0.20508	0.26461	-0.21
Mof_N 	N 	0.8068	0.4839	0.9848	-0.188
Mof_N 	N 	0.1083	0.26461	0.53031	-0.21
Mof_N 	N 	0.7916	0.9848	0.5313	-0.188
Mof_N 	N 	0.63861	0.53031	0.20508	-0.209
Mof_N 	N 	0.3229	0.5313	0.4839	-0.188
Mof_O 	O 	0.0847	0.4123	0.9	-0.231
Mof_O 	O 	0.7202	0.3821	0.1992	-0.338
Mof_O 	O 	0.7572	0.6342	0.9806	-0.371
Mof_O 	O 	0.8058	0.7136	0.8095	-0.255
Mof_O 	O 	0.9847	0.9	0.6877	-0.229
Mof_O 	O 	0.9194	0.1992	0.4187	-0.339
Mof_O 	O 	0.7378	0.9806	0.3852	-0.37
Mof_O 	O 	0.6153	0.8095	0.4769	-0.255
Mof_O 	O 	0.6724	0.6877	0.4123	-0.23
Mof_O 	O 	0.3381	0.4187	0.3821	-0.338
Mof_O 	O 	0.123	0.3852	0.6342	-0.372
Mof_O 	O 	0.0922	0.4769	0.7136	-0.256
_end
