data_functionalizedCrystal
_audit_creation_method	'EQeq! by Chris Wilmer'
_symmetry_space_group_name_H-M	'P1'
_symmetry_Int_Tables_number	1
_symmetry_cell_setting	triclinic
loop_
_symmetry_equiv_pos_as_xyz
  x,y,z
_cell_length_a	14.9351
_cell_length_b	19.0332
_cell_length_c	30.3411
_cell_angle_alpha	96.8239
_cell_angle_beta	90
_cell_angle_gamma	113.1
loop_
_atom_site_label
_atom_site_type_symbol
_atom_site_fract_x
_atom_site_fract_y
_atom_site_fract_z
_atom_site_charge
Mof_Pr	Pr	0.37576	0.82961	0.15835	2.307
Mof_Pr	Pr	0.37848	0.58642	0.6445	2.333
Mof_Pr	Pr	0.45385	0.82961	0.65835	2.307
Mof_Pr	Pr	0.20794	0.58642	0.1445	2.333
Mof_H 	H 	0.3682	0.0682	0.2364	0.047
Mof_H 	H 	0.2371	0.3358	0.1039	0.055
Mof_H 	H 	0.9625	0.6264	0.1457	-0.026
Mof_H 	H 	0.3292	0.0584	0.1033	0.064
Mof_H 	H 	0.3026	0.2986	0.2484	0.057
Mof_H 	H 	0.3392	0.1796	0.2483	0.061
Mof_H 	H 	0.2367	0.5998	0.5146	0.011
Mof_H 	H 	0.3966	0.8106	0.3114	0.002
Mof_H 	H 	0.4551	0.8056	0.5054	0.02
Mof_H 	H 	0.2647	0.4024	0.2368	0.053
Mof_H 	H 	0.1799	0.5926	0.4424	0.094
Mof_H 	H 	0.5415	0.575	0.1385	0.018
Mof_H 	H 	0.1623	0.6102	0.2868	0.004
Mof_H 	H 	0.1537	0.5962	0.3618	0.097
Mof_H 	H 	0.5785	0.7996	0.1551	-0.091
Mof_H 	H 	0.746	0.8382	0.1561	0.082
Mof_H 	H 	0.0758	0.8594	0.1625	0.019
Mof_H 	H 	0.9214	0.8594	0.1618	0.078
Mof_H 	H 	0.7	0.0682	0.7364	0.046
Mof_H 	H 	0.0987	0.3358	0.6039	0.054
Mof_H 	H 	0.6639	0.6264	0.6457	-0.027
Mof_H 	H 	0.7292	0.0584	0.6033	0.063
Mof_H 	H 	0.996	0.2986	0.7484	0.056
Mof_H 	H 	0.8404	0.1796	0.7483	0.06
Mof_H 	H 	0.3631	0.5998	0.0146	0.01
Mof_H 	H 	0.414	0.8106	0.8114	0.002
Mof_H 	H 	0.3505	0.8056	0.0054	0.019
Mof_H 	H 	0.1377	0.4024	0.7368	0.053
Mof_H 	H 	0.4127	0.5926	0.9424	0.094
Mof_H 	H 	0.0335	0.575	0.6385	0.018
Mof_H 	H 	0.4479	0.6102	0.7868	0.004
Mof_H 	H 	0.4425	0.5962	0.8618	0.097
Mof_H 	H 	0.2211	0.7996	0.6551	-0.091
Mof_H 	H 	0.0922	0.8382	0.6561	0.082
Mof_H 	H 	0.7836	0.8594	0.6625	0.019
Mof_H 	H 	0.938	0.8594	0.6618	0.078
Mof_C 	C 	0.35426	0.08872	0.21221	0.012
Mof_C 	C 	0.36897	0.97894	0.16237	0.312
Mof_C 	C 	0.25062	0.32904	0.13266	0.008
Mof_C 	C 	0.27514	0.69248	0.38105	0.07
Mof_C 	C 	0.2896	0.6908	0.42914	0.06
Mof_C 	C 	0.31583	0.18606	0.18316	0.027
Mof_C 	C 	0.95522	0.67304	0.14882	0.101
Mof_C 	C 	0.35122	0.05144	0.16905	-0.07
Mof_C 	C 	0.54239	0.68298	0.14795	-0.213
Mof_C 	C 	0.331	0.082	0.13213	0.01
Mof_C 	C 	0.35256	0.70192	0.5172	-0.188
Mof_C 	C 	0.27988	0.71136	0.29139	-0.201
Mof_C 	C 	0.28108	0.71696	0.2424	0.529
Mof_C 	C 	0.21971	0.44602	0.16273	0.315
Mof_C 	C 	0.38812	0.70184	0.56315	0.498
Mof_C 	C 	0.29011	0.30622	0.21972	-0.082
Mof_C 	C 	0.31401	0.14862	0.1404	-0.055
Mof_C 	C 	0.13834	0.74768	0.15264	0.513
Mof_C 	C 	0.03536	0.74212	0.15354	-0.199
Mof_C 	C 	0.33684	0.15548	0.21953	-0.077
Mof_C 	C 	0.26988	0.63896	0.49775	0.086
Mof_C 	C 	0.34927	0.76714	0.32097	0.098
Mof_C 	C 	0.2465	0.3796	0.1695	-0.066
Mof_C 	C 	0.37111	0.75362	0.44848	-0.092
Mof_C 	C 	0.86253	0.67506	0.14882	-0.109
Mof_C 	C 	0.68268	0.65356	0.14475	-0.109
Mof_C 	C 	0.43467	0.66026	0.14909	0.482
Mof_C 	C 	0.34576	0.75592	0.36532	-0.106
Mof_C 	C 	0.40272	0.76184	0.49273	0.077
Mof_C 	C 	0.26688	0.36816	0.21266	0
Mof_C 	C 	0.23631	0.63342	0.45431	-0.13
Mof_C 	C 	0.2946	0.2558	0.18344	0.029
Mof_C 	C 	0.27527	0.26874	0.14061	-0.06
Mof_C 	C 	0.5811	0.6272	0.1429	0.094
Mof_C 	C 	0.20824	0.64748	0.30709	0.107
Mof_C 	C 	0.74469	0.73118	0.15081	0.07
Mof_C 	C 	0.20331	0.63782	0.3518	-0.141
Mof_C 	C 	0.84957	0.74414	0.15331	0.051
Mof_C 	C 	0.60525	0.7627	0.1526	0.133
Mof_C 	C 	0.70556	0.78612	0.1536	-0.178
Mof_C 	C 	0.02174	0.81288	0.1588	0.082
Mof_C 	C 	0.92957	0.81314	0.1585	-0.132
Mof_C 	C 	0.73446	0.08872	0.71221	0.012
Mof_C 	C 	0.60997	0.97894	0.66237	0.313
Mof_C 	C 	0.07842	0.32904	0.63266	0.008
Mof_C 	C 	0.41734	0.69248	0.88105	0.07
Mof_C 	C 	0.4012	0.6908	0.92914	0.061
Mof_C 	C 	0.87023	0.18606	0.68316	0.027
Mof_C 	C 	0.71782	0.67304	0.64882	0.1
Mof_C 	C 	0.70022	0.05144	0.66905	-0.07
Mof_C 	C 	0.14059	0.68298	0.64795	-0.213
Mof_C 	C 	0.751	0.082	0.63213	0.011
Mof_C 	C 	0.34936	0.70192	0.0172	-0.189
Mof_C 	C 	0.43148	0.71136	0.79139	-0.201
Mof_C 	C 	0.43588	0.71696	0.7424	0.529
Mof_C 	C 	0.22631	0.44602	0.66273	0.315
Mof_C 	C 	0.31372	0.70184	0.06315	0.498
Mof_C 	C 	0.01611	0.30622	0.71972	-0.081
Mof_C 	C 	0.83461	0.14862	0.6404	-0.055
Mof_C 	C 	0.60934	0.74768	0.65264	0.513
Mof_C 	C 	0.70676	0.74212	0.65354	-0.199
Mof_C 	C 	0.81864	0.15548	0.71953	-0.078
Mof_C 	C 	0.36908	0.63896	0.99775	0.087
Mof_C 	C 	0.41787	0.76714	0.82097	0.098
Mof_C 	C 	0.1331	0.3796	0.6695	-0.065
Mof_C 	C 	0.38251	0.75362	0.94848	-0.092
Mof_C 	C 	0.81253	0.67506	0.64882	-0.11
Mof_C 	C 	0.97088	0.65356	0.64475	-0.109
Mof_C 	C 	0.22559	0.66026	0.64909	0.482
Mof_C 	C 	0.41016	0.75592	0.86532	-0.106
Mof_C 	C 	0.35912	0.76184	0.99273	0.077
Mof_C 	C 	0.10128	0.36816	0.71266	-0
Mof_C 	C 	0.39711	0.63342	0.95431	-0.13
Mof_C 	C 	0.9612	0.2558	0.68344	0.029
Mof_C 	C 	0.99347	0.26874	0.64061	-0.06
Mof_C 	C 	0.0461	0.6272	0.6429	0.094
Mof_C 	C 	0.43924	0.64748	0.80709	0.107
Mof_C 	C 	0.98649	0.73118	0.65081	0.069
Mof_C 	C 	0.43451	0.63782	0.8518	-0.141
Mof_C 	C 	0.89457	0.74414	0.65331	0.051
Mof_C 	C 	0.15745	0.7627	0.6526	0.133
Mof_C 	C 	0.08056	0.78612	0.6536	-0.178
Mof_C 	C 	0.79114	0.81288	0.6588	0.083
Mof_C 	C 	0.88357	0.81314	0.6585	-0.133
Mof_S 	S 	0.28365	0.19678	0.09991	0.317
Mof_S 	S 	0.74928	0.59476	0.14411	0.342
Mof_S 	S 	0.43122	0.81478	0.40873	0.343
Mof_S 	S 	0.91313	0.19678	0.59991	0.317
Mof_S 	S 	0.84548	0.59476	0.64411	0.342
Mof_S 	S 	0.38356	0.81478	0.90873	0.343
Mof_O 	O 	0.3936	0.95688	0.19663	-0.487
Mof_O 	O 	0.32912	0.78124	0.22997	-0.574
Mof_O 	O 	0.44628	0.76516	0.58372	-0.572
Mof_O 	O 	0.35739	0.63738	0.57717	-0.575
Mof_O 	O 	0.35817	0.9419	0.12424	-0.428
Mof_O 	O 	0.19869	0.45276	0.12314	-0.478
Mof_O 	O 	0.23376	0.65512	0.21763	-0.599
Mof_O 	O 	0.40153	0.71238	0.1546	-0.668
Mof_O 	O 	0.22033	0.49226	0.19543	-0.439
Mof_O 	O 	0.36288	0.22756	0.07152	-0.213
Mof_O 	O 	0.20555	0.81222	0.16304	-0.543
Mof_O 	O 	0.37948	0.59042	0.14585	-0.488
Mof_O 	O 	0.14882	0.68564	0.14052	-0.632
Mof_O 	O 	0.19033	0.15006	0.07854	-0.211
Mof_O 	O 	0.73736	0.54732	0.10227	-0.237
Mof_O 	O 	0.52479	0.81318	0.4014	-0.233
Mof_O 	O 	0.42759	0.88938	0.41807	-0.226
Mof_O 	O 	0.73337	0.55674	0.18312	-0.234
Mof_O 	O 	0.56328	0.95688	0.69663	-0.487
Mof_O 	O 	0.45212	0.78124	0.72997	-0.574
Mof_O 	O 	0.31888	0.76516	0.08372	-0.573
Mof_O 	O 	0.27999	0.63738	0.07717	-0.575
Mof_O 	O 	0.58373	0.9419	0.62424	-0.428
Mof_O 	O 	0.25407	0.45276	0.62314	-0.477
Mof_O 	O 	0.42136	0.65512	0.71763	-0.599
Mof_O 	O 	0.31085	0.71238	0.6546	-0.668
Mof_O 	O 	0.27193	0.49226	0.69543	-0.439
Mof_O 	O 	0.86468	0.22756	0.57152	-0.213
Mof_O 	O 	0.60667	0.81222	0.66304	-0.543
Mof_O 	O 	0.21094	0.59042	0.64585	-0.488
Mof_O 	O 	0.53682	0.68564	0.64052	-0.632
Mof_O 	O 	0.95973	0.15006	0.57854	-0.211
Mof_O 	O 	0.80996	0.54732	0.60227	-0.237
Mof_O 	O 	0.28839	0.81318	0.9014	-0.233
Mof_O 	O 	0.46179	0.88938	0.91807	-0.226
Mof_O 	O 	0.82337	0.55674	0.68312	-0.234
Mof_Pr	Pr	0.54615	0.17039	0.34165	2.306
Mof_Pr	Pr	0.79206	0.41358	0.8555	2.332
Mof_Pr	Pr	0.62424	0.17039	0.84165	2.306
Mof_Pr	Pr	0.62152	0.41358	0.3555	2.332
Mof_H 	H 	0.3	0.9318	0.2636	0.046
Mof_H 	H 	0.9013	0.6642	0.3961	0.054
Mof_H 	H 	0.3361	0.3736	0.3543	-0.027
Mof_H 	H 	0.2708	0.9416	0.3967	0.063
Mof_H 	H 	0.004	0.7014	0.2516	0.056
Mof_H 	H 	0.1596	0.8204	0.2517	0.06
Mof_H 	H 	0.6369	0.4002	0.9854	0.01
Mof_H 	H 	0.586	0.1894	0.1886	0.002
Mof_H 	H 	0.6495	0.1944	0.9946	0.019
Mof_H 	H 	0.8623	0.5976	0.2632	0.053
Mof_H 	H 	0.5873	0.4074	0.0576	0.094
Mof_H 	H 	0.9665	0.425	0.3615	0.018
Mof_H 	H 	0.5521	0.3898	0.2132	0.004
Mof_H 	H 	0.5575	0.4038	0.1382	0.097
Mof_H 	H 	0.7789	0.2004	0.3449	-0.091
Mof_H 	H 	0.9078	0.1618	0.3439	0.082
Mof_H 	H 	0.2164	0.1406	0.3375	0.019
Mof_H 	H 	0.062	0.1406	0.3382	0.078
Mof_H 	H 	0.6318	0.9318	0.7636	0.046
Mof_H 	H 	0.7629	0.6642	0.8961	0.054
Mof_H 	H 	0.0375	0.3736	0.8543	-0.027
Mof_H 	H 	0.6708	0.9416	0.8967	0.063
Mof_H 	H 	0.6974	0.7014	0.7516	0.056
Mof_H 	H 	0.6608	0.8204	0.7517	0.06
Mof_H 	H 	0.7633	0.4002	0.4854	0.011
Mof_H 	H 	0.6034	0.1894	0.6886	0.002
Mof_H 	H 	0.5449	0.1944	0.4946	0.02
Mof_H 	H 	0.7353	0.5976	0.7632	0.053
Mof_H 	H 	0.8201	0.4074	0.5576	0.094
Mof_H 	H 	0.4585	0.425	0.8615	0.018
Mof_H 	H 	0.8377	0.3898	0.7132	0.004
Mof_H 	H 	0.8463	0.4038	0.6382	0.097
Mof_H 	H 	0.4215	0.2004	0.8449	-0.091
Mof_H 	H 	0.254	0.1618	0.8439	0.082
Mof_H 	H 	0.9242	0.1406	0.8375	0.019
Mof_H 	H 	0.0786	0.1406	0.8382	0.078
Mof_C 	C 	0.26554	0.91128	0.28779	0.012
Mof_C 	C 	0.39003	0.02106	0.33763	0.313
Mof_C 	C 	0.92158	0.67096	0.36734	0.008
Mof_C 	C 	0.58266	0.30752	0.11895	0.07
Mof_C 	C 	0.5988	0.3092	0.07086	0.061
Mof_C 	C 	0.12977	0.81394	0.31684	0.027
Mof_C 	C 	0.28218	0.32696	0.35118	0.1
Mof_C 	C 	0.29978	0.94856	0.33095	-0.07
Mof_C 	C 	0.85941	0.31702	0.35205	-0.213
Mof_C 	C 	0.249	0.918	0.36787	0.011
Mof_C 	C 	0.65064	0.29808	0.9828	-0.189
Mof_C 	C 	0.56852	0.28864	0.20861	-0.201
Mof_C 	C 	0.56412	0.28304	0.2576	0.529
Mof_C 	C 	0.77369	0.55398	0.33727	0.315
Mof_C 	C 	0.68628	0.29816	0.93685	0.498
Mof_C 	C 	0.98389	0.69378	0.28028	-0.081
Mof_C 	C 	0.16539	0.85138	0.3596	-0.055
Mof_C 	C 	0.39066	0.25232	0.34736	0.513
Mof_C 	C 	0.29324	0.25788	0.34646	-0.199
Mof_C 	C 	0.18136	0.84452	0.28047	-0.078
Mof_C 	C 	0.63092	0.36104	0.00225	0.087
Mof_C 	C 	0.58213	0.23286	0.17903	0.098
Mof_C 	C 	0.8669	0.6204	0.3305	-0.065
Mof_C 	C 	0.61749	0.24638	0.05152	-0.092
Mof_C 	C 	0.18747	0.32494	0.35118	-0.11
Mof_C 	C 	0.02912	0.34644	0.35525	-0.109
Mof_C 	C 	0.77441	0.33974	0.35091	0.482
Mof_C 	C 	0.58984	0.24408	0.13468	-0.106
Mof_C 	C 	0.64088	0.23816	0.00727	0.077
Mof_C 	C 	0.89872	0.63184	0.28734	-0
Mof_C 	C 	0.60289	0.36658	0.04569	-0.13
Mof_C 	C 	0.0388	0.7442	0.31656	0.029
Mof_C 	C 	0.00653	0.73126	0.35939	-0.06
Mof_C 	C 	0.9539	0.3728	0.3571	0.094
Mof_C 	C 	0.56076	0.35252	0.19291	0.107
Mof_C 	C 	0.01351	0.26882	0.34919	0.069
Mof_C 	C 	0.56549	0.36218	0.1482	-0.141
Mof_C 	C 	0.10543	0.25586	0.34669	0.051
Mof_C 	C 	0.84255	0.2373	0.3474	0.133
Mof_C 	C 	0.91944	0.21388	0.3464	-0.178
Mof_C 	C 	0.20886	0.18712	0.3412	0.083
Mof_C 	C 	0.11643	0.18686	0.3415	-0.133
Mof_C 	C 	0.64574	0.91128	0.78779	0.012
Mof_C 	C 	0.63103	0.02106	0.83763	0.312
Mof_C 	C 	0.74938	0.67096	0.86734	0.008
Mof_C 	C 	0.72486	0.30752	0.61895	0.07
Mof_C 	C 	0.7104	0.3092	0.57086	0.06
Mof_C 	C 	0.68417	0.81394	0.81684	0.027
Mof_C 	C 	0.04478	0.32696	0.85118	0.101
Mof_C 	C 	0.64878	0.94856	0.83095	-0.07
Mof_C 	C 	0.45761	0.31702	0.85205	-0.213
Mof_C 	C 	0.669	0.918	0.86787	0.01
Mof_C 	C 	0.64744	0.29808	0.4828	-0.188
Mof_C 	C 	0.72012	0.28864	0.70861	-0.201
Mof_C 	C 	0.71892	0.28304	0.7576	0.529
Mof_C 	C 	0.78029	0.55398	0.83727	0.315
Mof_C 	C 	0.61188	0.29816	0.43685	0.498
Mof_C 	C 	0.70989	0.69378	0.78028	-0.082
Mof_C 	C 	0.68599	0.85138	0.8596	-0.055
Mof_C 	C 	0.86166	0.25232	0.84736	0.513
Mof_C 	C 	0.96464	0.25788	0.84646	-0.199
Mof_C 	C 	0.66316	0.84452	0.78047	-0.077
Mof_C 	C 	0.73012	0.36104	0.50225	0.086
Mof_C 	C 	0.65073	0.23286	0.67903	0.098
Mof_C 	C 	0.7535	0.6204	0.8305	-0.066
Mof_C 	C 	0.62889	0.24638	0.55152	-0.092
Mof_C 	C 	0.13747	0.32494	0.85118	-0.109
Mof_C 	C 	0.31732	0.34644	0.85525	-0.109
Mof_C 	C 	0.56533	0.33974	0.85091	0.482
Mof_C 	C 	0.65424	0.24408	0.63468	-0.106
Mof_C 	C 	0.59728	0.23816	0.50727	0.077
Mof_C 	C 	0.73312	0.63184	0.78734	0
Mof_C 	C 	0.76369	0.36658	0.54569	-0.13
Mof_C 	C 	0.7054	0.7442	0.81656	0.029
Mof_C 	C 	0.72473	0.73126	0.85939	-0.06
Mof_C 	C 	0.4189	0.3728	0.8571	0.094
Mof_C 	C 	0.79176	0.35252	0.69291	0.107
Mof_C 	C 	0.25531	0.26882	0.84919	0.07
Mof_C 	C 	0.79669	0.36218	0.6482	-0.141
Mof_C 	C 	0.15043	0.25586	0.84669	0.051
Mof_C 	C 	0.39475	0.2373	0.8474	0.133
Mof_C 	C 	0.29444	0.21388	0.8464	-0.178
Mof_C 	C 	0.97826	0.18712	0.8412	0.082
Mof_C 	C 	0.07043	0.18686	0.8415	-0.132
Mof_S 	S 	0.08687	0.80322	0.40009	0.317
Mof_S 	S 	0.15452	0.40524	0.35589	0.342
Mof_S 	S 	0.61644	0.18522	0.09127	0.343
Mof_S 	S 	0.71635	0.80322	0.90009	0.317
Mof_S 	S 	0.25072	0.40524	0.85589	0.342
Mof_S 	S 	0.56878	0.18522	0.59127	0.343
Mof_O 	O 	0.43672	0.04312	0.30337	-0.487
Mof_O 	O 	0.54788	0.21876	0.27003	-0.574
Mof_O 	O 	0.68112	0.23484	0.91628	-0.573
Mof_O 	O 	0.72001	0.36262	0.92283	-0.575
Mof_O 	O 	0.41627	0.0581	0.37576	-0.428
Mof_O 	O 	0.74593	0.54724	0.37686	-0.477
Mof_O 	O 	0.57864	0.34488	0.28237	-0.599
Mof_O 	O 	0.68915	0.28762	0.3454	-0.668
Mof_O 	O 	0.72807	0.50774	0.30457	-0.439
Mof_O 	O 	0.13532	0.77244	0.42848	-0.213
Mof_O 	O 	0.39333	0.18778	0.33696	-0.543
Mof_O 	O 	0.78906	0.40958	0.35415	-0.488
Mof_O 	O 	0.46318	0.31436	0.35948	-0.632
Mof_O 	O 	0.04027	0.84994	0.42146	-0.211
Mof_O 	O 	0.19004	0.45268	0.39773	-0.237
Mof_O 	O 	0.71161	0.18682	0.0986	-0.233
Mof_O 	O 	0.53821	0.11062	0.08193	-0.226
Mof_O 	O 	0.17663	0.44326	0.31688	-0.234
Mof_O 	O 	0.6064	0.04312	0.80337	-0.487
Mof_O 	O 	0.67088	0.21876	0.77003	-0.574
Mof_O 	O 	0.55372	0.23484	0.41628	-0.572
Mof_O 	O 	0.64261	0.36262	0.42283	-0.575
Mof_O 	O 	0.64183	0.0581	0.87576	-0.428
Mof_O 	O 	0.80131	0.54724	0.87686	-0.478
Mof_O 	O 	0.76624	0.34488	0.78237	-0.599
Mof_O 	O 	0.59847	0.28762	0.8454	-0.668
Mof_O 	O 	0.77967	0.50774	0.80457	-0.439
Mof_O 	O 	0.63712	0.77244	0.92848	-0.213
Mof_O 	O 	0.79445	0.18778	0.83696	-0.543
Mof_O 	O 	0.62052	0.40958	0.85415	-0.488
Mof_O 	O 	0.85118	0.31436	0.85948	-0.632
Mof_O 	O 	0.80967	0.84994	0.92146	-0.211
Mof_O 	O 	0.26264	0.45268	0.89773	-0.237
Mof_O 	O 	0.47521	0.18682	0.5986	-0.233
Mof_O 	O 	0.57241	0.11062	0.58193	-0.226
Mof_O 	O 	0.26663	0.44326	0.81688	-0.234
_end
