data_functionalizedCrystal
_audit_creation_method	'EQeq! by Chris Wilmer'
_symmetry_space_group_name_H-M	'P1'
_symmetry_Int_Tables_number	1
_symmetry_cell_setting	triclinic
loop_
_symmetry_equiv_pos_as_xyz
  x,y,z
_cell_length_a	12.245
_cell_length_b	12.245
_cell_length_c	12.407
_cell_angle_alpha	90
_cell_angle_beta	90
_cell_angle_gamma	90
loop_
_atom_site_label
_atom_site_type_symbol
_atom_site_fract_x
_atom_site_fract_y
_atom_site_fract_z
_atom_site_charge
Mof_Tb	Tb	1.8995e-33	0	0.5	1.298
Mof_Na	Na	0.5284	0.2731	0.9938	2.213
Mof_Na	Na	0.4716	0.7269	0.9938	2.231
Mof_Na	Na	0.2731	0.4716	0.0062	2.46
Mof_Na	Na	0.7269	0.5284	0.0062	2.489
Mof_Na	Na	-9.82147e-33	0.5	0.9866	1.818
Mof_Na	Na	0.5	0	0.0134	2.06
Mof_H 	H 	0.8434	0.7255	0.3818	0.058
Mof_H 	H 	0.6666	0.6739	0.3399	0.032
Mof_H 	H 	0.608	0.9806	0.2334	0.105
Mof_H 	H 	0.7767	0.0551	0.0967	-0.048
Mof_H 	H 	0.888	0.3496	0.2021	-0.025
Mof_H 	H 	0.8968	0.2806	0.3767	0.084
Mof_H 	H 	0.1566	0.2745	0.3818	0.042
Mof_H 	H 	0.3334	0.3261	0.3399	-0.005
Mof_H 	H 	0.392	0.0194	0.2334	-0.097
Mof_H 	H 	0.2233	0.9449	0.0967	0.124
Mof_H 	H 	0.112	0.6504	0.2021	-0.045
Mof_H 	H 	0.1032	0.7194	0.3767	0.016
Mof_H 	H 	0.7255	0.1566	0.6182	0.016
Mof_H 	H 	0.6739	0.3334	0.6601	0.029
Mof_H 	H 	0.9806	0.392	0.7666	0.108
Mof_H 	H 	0.0551	0.2233	0.9033	-0.075
Mof_H 	H 	0.3496	0.112	0.7979	-0.092
Mof_H 	H 	0.2806	0.1032	0.6233	0.041
Mof_H 	H 	0.2745	0.8434	0.6182	0.083
Mof_H 	H 	0.3261	0.6666	0.6601	0.005
Mof_H 	H 	0.0194	0.608	0.7666	-0.081
Mof_H 	H 	0.9449	0.7767	0.9033	0.106
Mof_H 	H 	0.6504	0.888	0.7979	-0.016
Mof_H 	H 	0.7194	0.8968	0.6233	0.071
Mof_C 	C 	0.7955	0.7772	0.3498	0.051
Mof_C 	C 	0.6907	0.7461	0.3253	-0.045
Mof_C 	C 	0.6202	0.8217	0.279	-0.063
Mof_C 	C 	0.6563	0.9275	0.2625	-0.1
Mof_C 	C 	0.7641	0.9565	0.2886	0.279
Mof_C 	C 	0.8059	0.0644	0.2607	-0.152
Mof_C 	C 	0.8005	0.1019	0.153	0.106
Mof_C 	C 	0.831	0.209	0.1319	-0.182
Mof_C 	C 	0.867	0.2763	0.2162	0.085
Mof_C 	C 	0.8716	0.2356	0.3195	-0.016
Mof_C 	C 	0.2045	0.2228	0.3498	-0.035
Mof_C 	C 	0.3093	0.2539	0.3253	0.043
Mof_C 	C 	0.3798	0.1783	0.279	-0.201
Mof_C 	C 	0.3437	0.0725	0.2625	0.114
Mof_C 	C 	0.2359	0.0435	0.2886	-0.188
Mof_C 	C 	0.1941	0.9356	0.2607	0.273
Mof_C 	C 	0.1995	0.8981	0.153	-0.1
Mof_C 	C 	0.169	0.791	0.1319	-0.102
Mof_C 	C 	0.133	0.7237	0.2162	-0.008
Mof_C 	C 	0.1284	0.7644	0.3195	-0.003
Mof_C 	C 	0.7772	0.2045	0.6502	0.042
Mof_C 	C 	0.7461	0.3093	0.6747	-0.05
Mof_C 	C 	0.8217	0.3798	0.721	-0.061
Mof_C 	C 	0.9275	0.3437	0.7375	-0.101
Mof_C 	C 	0.9565	0.2359	0.7114	0.27
Mof_C 	C 	0.0644	0.1941	0.7393	-0.187
Mof_C 	C 	0.1019	0.1995	0.847	0.124
Mof_C 	C 	0.209	0.169	0.8681	-0.291
Mof_C 	C 	0.2763	0.133	0.7838	0.108
Mof_C 	C 	0.2356	0.1284	0.6805	-0.089
Mof_C 	C 	0.2228	0.7955	0.6502	-0.019
Mof_C 	C 	0.2539	0.6907	0.6747	0.036
Mof_C 	C 	0.1783	0.6202	0.721	-0.186
Mof_C 	C 	0.0725	0.6563	0.7375	0.094
Mof_C 	C 	0.0435	0.7641	0.7114	-0.151
Mof_C 	C 	0.9356	0.8059	0.7393	0.265
Mof_C 	C 	0.8981	0.8005	0.847	-0.052
Mof_C 	C 	0.791	0.831	0.8681	-0.135
Mof_C 	C 	0.7237	0.867	0.7838	0.044
Mof_C 	C 	0.7644	0.8716	0.6805	0.027
Mof_S 	S 	0.48512	0.78686	0.23882	0.592
Mof_S 	S 	0.81882	0.26364	0.9996	0.702
Mof_S 	S 	0.51488	0.21314	0.23882	0.642
Mof_S 	S 	0.18118	0.73636	0.9996	0.656
Mof_S 	S 	0.78686	0.51488	0.76118	0.578
Mof_S 	S 	0.26364	0.18118	0.0004	0.832
Mof_S 	S 	0.21314	0.48512	0.76118	0.624
Mof_S 	S 	0.73636	0.81882	0.0004	0.775
Mof_N 	N 	0.832	0.8779	0.3302	-0.087
Mof_N 	N 	0.8401	0.131	0.3399	-0.01
Mof_N 	N 	0.168	0.1221	0.3302	-0.013
Mof_N 	N 	0.1599	0.869	0.3399	-0.089
Mof_N 	N 	0.8779	0.168	0.6698	-0.083
Mof_N 	N 	0.131	0.1599	0.6601	-0.013
Mof_N 	N 	0.1221	0.832	0.6698	-0.022
Mof_N 	N 	0.869	0.8401	0.6601	-0.072
Mof_Cl	Cl	0.5	0.5	-0	-1.391
Mof_O 	O 	0.9342	0.904	0.3468	-0.088
Mof_O 	O 	0.8448	0.0953	0.4406	-0.261
Mof_O 	O 	0.7194	0.3299	0.0038	-0.874
Mof_O 	O 	0.9163	0.3293	0.986	-0.565
Mof_O 	O 	0.8119	0.1714	0.9286	-0.347
Mof_O 	O 	0.4167	0.8023	0.3315	-0.261
Mof_O 	O 	0.4911	0.6742	0.202	-0.522
Mof_O 	O 	0.4593	0.8597	0.151	-0.678
Mof_O 	O 	0.885	0.5849	0.1158	-0.599
Mof_O 	O 	0.0658	0.096	0.3468	-0.338
Mof_O 	O 	0.1552	0.9047	0.4406	-0.19
Mof_O 	O 	0.2806	0.6701	0.0038	-0.853
Mof_O 	O 	0.0837	0.6707	0.986	-0.671
Mof_O 	O 	0.1881	0.8286	0.9286	-0.324
Mof_O 	O 	0.5833	0.1977	0.3315	-0.324
Mof_O 	O 	0.5089	0.3258	0.202	-0.529
Mof_O 	O 	0.5407	0.1403	0.151	-0.773
Mof_O 	O 	0.115	0.4151	0.1158	-0.694
Mof_O 	O 	0.904	0.0658	0.6532	-0.228
Mof_O 	O 	0.0953	0.1552	0.5594	-0.31
Mof_O 	O 	0.3299	0.2806	0.9962	-0.931
Mof_O 	O 	0.3293	0.0837	0.014	-0.718
Mof_O 	O 	0.1714	0.1881	0.0714	-0.404
Mof_O 	O 	0.8023	0.5833	0.6685	-0.26
Mof_O 	O 	0.6742	0.5089	0.798	-0.54
Mof_O 	O 	0.8597	0.5407	0.849	-0.689
Mof_O 	O 	0.5849	0.115	0.8842	-0.713
Mof_O 	O 	0.096	0.9342	0.6532	-0.193
Mof_O 	O 	0.9047	0.8448	0.5594	-0.148
Mof_O 	O 	0.6701	0.7194	0.9962	-0.926
Mof_O 	O 	0.6707	0.9163	0.014	-0.577
Mof_O 	O 	0.8286	0.8119	0.0714	-0.298
Mof_O 	O 	0.1977	0.4167	0.6685	-0.316
Mof_O 	O 	0.3258	0.4911	0.798	-0.545
Mof_O 	O 	0.1403	0.4593	0.849	-0.772
Mof_O 	O 	0.4151	0.885	0.8842	-0.611
_end
