data_functionalizedCrystal
_audit_creation_method	'EQeq! by Chris Wilmer'
_symmetry_space_group_name_H-M	'P1'
_symmetry_Int_Tables_number	1
_symmetry_cell_setting	triclinic
loop_
_symmetry_equiv_pos_as_xyz
  x,y,z
_cell_length_a	9.1789
_cell_length_b	10.9267
_cell_length_c	11.371
_cell_angle_alpha	117.844
_cell_angle_beta	100.861
_cell_angle_gamma	99.344
loop_
_atom_site_label
_atom_site_type_symbol
_atom_site_fract_x
_atom_site_fract_y
_atom_site_fract_z
_atom_site_charge
Mof_Zn	Zn	0.19095	0.62355	0.12211	1.185
Mof_Zn	Zn	0.80905	0.37645	0.87789	1.203
Mof_Zn	Zn	0.5	0.5	-0	1.201
Mof_H 	H 	0.6253	0.8278	0.9767	-0.019
Mof_H 	H 	0.2942	0.0097	0.0885	-0.028
Mof_H 	H 	0.6942	0.3908	0.5071	0.046
Mof_H 	H 	0.3864	0.5733	0.6765	0.057
Mof_H 	H 	0.2496	0.231	0.7038	0.027
Mof_H 	H 	0.9677	0.1776	0.654	-0.004
Mof_H 	H 	0.3747	0.1722	0.0233	0.108
Mof_H 	H 	0.7058	0.9903	0.9115	0.121
Mof_H 	H 	0.3058	0.6092	0.4929	0.045
Mof_H 	H 	0.6136	0.4267	0.3235	0.039
Mof_H 	H 	0.7504	0.769	0.2962	0.021
Mof_H 	H 	0.0323	0.8224	0.346	0.021
Mof_C 	C 	0.4484	0.9005	0.0374	-0.299
Mof_C 	C 	0.574	0.897	0.9857	0.24
Mof_C 	C 	0.3772	0.005	0.0521	0.167
Mof_C 	C 	0.3919	0.7901	0.0731	0.471
Mof_C 	C 	0.5467	0.4742	0.6072	-0.078
Mof_C 	C 	0.6153	0.434	0.5042	-0.02
Mof_C 	C 	0.4315	0.543	0.6048	-0.028
Mof_C 	C 	0.5981	0.4551	0.7301	0.387
Mof_C 	C 	0.1976	0.2838	0.7633	0.014
Mof_C 	C 	0.0416	0.2539	0.7347	0.035
Mof_C 	C 	0.5516	0.0995	0.9626	0.107
Mof_C 	C 	0.426	0.103	0.0143	-0.27
Mof_C 	C 	0.6228	0.995	0.9479	-0.191
Mof_C 	C 	0.6081	0.2099	0.9269	0.34
Mof_C 	C 	0.4533	0.5258	0.3928	-0.096
Mof_C 	C 	0.3847	0.566	0.4958	-0.005
Mof_C 	C 	0.5685	0.457	0.3952	-0.012
Mof_C 	C 	0.4019	0.5449	0.2699	0.395
Mof_C 	C 	0.8024	0.7162	0.2367	0.026
Mof_C 	C 	0.9584	0.7461	0.2653	-0.003
Mof_N 	N 	0.2643	0.3993	0.8885	-0.178
Mof_N 	N 	0.1514	0.4432	0.9382	-0.193
Mof_N 	N 	0.0151	0.3561	0.8457	-0.224
Mof_N 	N 	0.7357	0.6007	0.1115	-0.208
Mof_N 	N 	0.8486	0.5568	0.0618	-0.241
Mof_N 	N 	0.9849	0.6439	0.1543	-0.237
Mof_O 	O 	0.2701	0.7908	0.1056	-0.524
Mof_O 	O 	0.4669	0.7051	0.072	-0.535
Mof_O 	O 	0.5362	0.5018	0.8238	-0.444
Mof_O 	O 	0.7025	0.391	0.7249	-0.499
Mof_O 	O 	0.7299	0.2092	0.8944	-0.473
Mof_O 	O 	0.5331	0.2949	0.928	-0.446
Mof_O 	O 	0.4638	0.4982	0.1762	-0.489
Mof_O 	O 	0.2975	0.609	0.2751	-0.512
_end
