data_functionalizedCrystal
_audit_creation_method	'EQeq! by Chris Wilmer'
_symmetry_space_group_name_H-M	'P1'
_symmetry_Int_Tables_number	1
_symmetry_cell_setting	triclinic
loop_
_symmetry_equiv_pos_as_xyz
  x,y,z
_cell_length_a	14.3683
_cell_length_b	14.3683
_cell_length_c	15.393
_cell_angle_alpha	90
_cell_angle_beta	90
_cell_angle_gamma	120
loop_
_atom_site_label
_atom_site_type_symbol
_atom_site_fract_x
_atom_site_fract_y
_atom_site_fract_z
_atom_site_charge
Mof_Ho	Ho	0.66667	0.33334	0.75	2.116
Mof_Ho	Ho	0.33333	0.66666	0.75	2.116
Mof_Ho	Ho	0.33333	0.66666	0.25	2.103
Mof_Ho	Ho	0.66667	0.33334	0.25	2.103
Mof_Cu	Cu	-0	0.5	-0	0.859
Mof_Cu	Cu	0.5	0	-0	0.859
Mof_Cu	Cu	0.5	0.5	-0	0.892
Mof_Cu	Cu	0.5	0.5	0.5	0.951
Mof_Cu	Cu	0.5	0	0.5	0.917
Mof_Cu	Cu	1.70189e-17	0.5	0.5	0.917
Mof_H 	H 	0.915	0.2783	0.7722	0.118
Mof_H 	H 	0.8348	0.1984	0.8419	0.114
Mof_H 	H 	0.3633	0.085	0.7722	0.068
Mof_H 	H 	0.3636	0.1652	0.8419	0.099
Mof_H 	H 	0.7217	0.6367	0.7722	0.11
Mof_H 	H 	0.8016	0.6364	0.8419	0.139
Mof_H 	H 	0.085	0.7217	0.7722	0.079
Mof_H 	H 	0.1652	0.8016	0.8419	0.12
Mof_H 	H 	0.6367	0.915	0.7722	0.129
Mof_H 	H 	0.6364	0.8348	0.8419	0.135
Mof_H 	H 	0.2783	0.3633	0.7722	0.087
Mof_H 	H 	0.1984	0.3636	0.8419	0.097
Mof_H 	H 	0.6367	0.7217	0.7278	0.111
Mof_H 	H 	0.6364	0.8016	0.6581	0.123
Mof_H 	H 	0.2783	0.915	0.7278	0.118
Mof_H 	H 	0.1984	0.8348	0.6581	0.098
Mof_H 	H 	0.085	0.3633	0.7278	0.068
Mof_H 	H 	0.1652	0.3636	0.6581	0.083
Mof_H 	H 	0.3633	0.2783	0.7278	0.087
Mof_H 	H 	0.3636	0.1984	0.6581	0.08
Mof_H 	H 	0.7217	0.085	0.7278	0.079
Mof_H 	H 	0.8016	0.1652	0.6581	0.105
Mof_H 	H 	0.915	0.6367	0.7278	0.13
Mof_H 	H 	0.8348	0.6364	0.6581	0.12
Mof_H 	H 	0.085	0.7217	0.2278	0.069
Mof_H 	H 	0.1652	0.8016	0.1581	0.085
Mof_H 	H 	0.6367	0.915	0.2278	0.121
Mof_H 	H 	0.6364	0.8348	0.1581	0.1
Mof_H 	H 	0.2783	0.3633	0.2278	0.077
Mof_H 	H 	0.1984	0.3636	0.1581	0.06
Mof_H 	H 	0.915	0.2783	0.2278	0.109
Mof_H 	H 	0.8348	0.1984	0.1581	0.079
Mof_H 	H 	0.3633	0.085	0.2278	0.057
Mof_H 	H 	0.3636	0.1652	0.1581	0.062
Mof_H 	H 	0.7217	0.6367	0.2278	0.101
Mof_H 	H 	0.8016	0.6364	0.1581	0.103
Mof_H 	H 	0.3633	0.2783	0.2722	0.078
Mof_H 	H 	0.3636	0.1984	0.3419	0.076
Mof_H 	H 	0.7217	0.085	0.2722	0.07
Mof_H 	H 	0.8016	0.1652	0.3419	0.1
Mof_H 	H 	0.915	0.6367	0.2722	0.122
Mof_H 	H 	0.8348	0.6364	0.3419	0.115
Mof_H 	H 	0.6367	0.7217	0.2722	0.102
Mof_H 	H 	0.6364	0.8016	0.3419	0.119
Mof_H 	H 	0.2783	0.915	0.2722	0.11
Mof_H 	H 	0.1984	0.8348	0.3419	0.094
Mof_H 	H 	0.085	0.3633	0.2722	0.058
Mof_H 	H 	0.1652	0.3636	0.3419	0.078
Mof_C 	C 	0.8693	0.3533	0.8614	0.434
Mof_C 	C 	0.8509	0.2599	0.8057	-0.207
Mof_C 	C 	0.484	0.1307	0.8614	0.421
Mof_C 	C 	0.409	0.1491	0.8057	-0.182
Mof_C 	C 	0.6467	0.516	0.8614	0.441
Mof_C 	C 	0.7401	0.591	0.8057	-0.222
Mof_C 	C 	0.1307	0.6467	0.8614	0.429
Mof_C 	C 	0.1491	0.7401	0.8057	-0.2
Mof_C 	C 	0.516	0.8693	0.8614	0.442
Mof_C 	C 	0.591	0.8509	0.8057	-0.225
Mof_C 	C 	0.3533	0.484	0.8614	0.425
Mof_C 	C 	0.2599	0.409	0.8057	-0.187
Mof_C 	C 	0.516	0.6467	0.6386	0.445
Mof_C 	C 	0.591	0.7401	0.6943	-0.225
Mof_C 	C 	0.3533	0.8693	0.6386	0.436
Mof_C 	C 	0.2599	0.8509	0.6943	-0.209
Mof_C 	C 	0.1307	0.484	0.6386	0.424
Mof_C 	C 	0.1491	0.409	0.6943	-0.184
Mof_C 	C 	0.484	0.3533	0.6386	0.428
Mof_C 	C 	0.409	0.2599	0.6943	-0.189
Mof_C 	C 	0.6467	0.1307	0.6386	0.432
Mof_C 	C 	0.7401	0.1491	0.6943	-0.202
Mof_C 	C 	0.8693	0.516	0.6386	0.444
Mof_C 	C 	0.8509	0.591	0.6943	-0.227
Mof_C 	C 	0.1307	0.6467	0.1386	0.426
Mof_C 	C 	0.1491	0.7401	0.1943	-0.192
Mof_C 	C 	0.516	0.8693	0.1386	0.438
Mof_C 	C 	0.591	0.8509	0.1943	-0.217
Mof_C 	C 	0.3533	0.484	0.1386	0.421
Mof_C 	C 	0.2599	0.409	0.1943	-0.179
Mof_C 	C 	0.8693	0.3533	0.1386	0.43
Mof_C 	C 	0.8509	0.2599	0.1943	-0.199
Mof_C 	C 	0.484	0.1307	0.1386	0.417
Mof_C 	C 	0.409	0.1491	0.1943	-0.174
Mof_C 	C 	0.6467	0.516	0.1386	0.438
Mof_C 	C 	0.7401	0.591	0.1943	-0.215
Mof_C 	C 	0.484	0.3533	0.3614	0.424
Mof_C 	C 	0.409	0.2599	0.3057	-0.18
Mof_C 	C 	0.6467	0.1307	0.3614	0.429
Mof_C 	C 	0.7401	0.1491	0.3057	-0.194
Mof_C 	C 	0.8693	0.516	0.3614	0.441
Mof_C 	C 	0.8509	0.591	0.3057	-0.219
Mof_C 	C 	0.516	0.6467	0.3614	0.441
Mof_C 	C 	0.591	0.7401	0.3057	-0.217
Mof_C 	C 	0.3533	0.8693	0.3614	0.433
Mof_C 	C 	0.2599	0.8509	0.3057	-0.201
Mof_C 	C 	0.1307	0.484	0.3614	0.42
Mof_C 	C 	0.1491	0.409	0.3057	-0.176
Mof_O 	O 	0.8052	0.3875	0.8549	-0.443
Mof_O 	O 	0.9479	0.388	0.912	-0.32
Mof_O 	O 	0.5823	0.1948	0.8549	-0.457
Mof_O 	O 	0.4401	0.0521	0.912	-0.381
Mof_O 	O 	0.6125	0.4177	0.8549	-0.454
Mof_O 	O 	0.612	0.5599	0.912	-0.353
Mof_O 	O 	0.1948	0.6125	0.8549	-0.459
Mof_O 	O 	0.0521	0.612	0.912	-0.379
Mof_O 	O 	0.4177	0.8052	0.8549	-0.445
Mof_O 	O 	0.5599	0.9479	0.912	-0.318
Mof_O 	O 	0.3875	0.5823	0.8549	-0.45
Mof_O 	O 	0.388	0.4401	0.912	-0.358
Mof_O 	O 	0.4177	0.6125	0.6451	-0.479
Mof_O 	O 	0.5599	0.612	0.588	-0.412
Mof_O 	O 	0.3875	0.8052	0.6451	-0.467
Mof_O 	O 	0.388	0.9479	0.588	-0.377
Mof_O 	O 	0.1948	0.5823	0.6451	-0.482
Mof_O 	O 	0.0521	0.4401	0.588	-0.44
Mof_O 	O 	0.5823	0.3875	0.6451	-0.475
Mof_O 	O 	0.4401	0.388	0.588	-0.417
Mof_O 	O 	0.6125	0.1948	0.6451	-0.484
Mof_O 	O 	0.612	0.0521	0.588	-0.438
Mof_O 	O 	0.8052	0.4177	0.6451	-0.469
Mof_O 	O 	0.9479	0.5599	0.588	-0.375
Mof_O 	O 	0.1948	0.6125	0.1451	-0.499
Mof_O 	O 	0.0521	0.612	0.088	-0.47
Mof_O 	O 	0.4177	0.8052	0.1451	-0.484
Mof_O 	O 	0.5599	0.9479	0.088	-0.406
Mof_O 	O 	0.3875	0.5823	0.1451	-0.49
Mof_O 	O 	0.388	0.4401	0.088	-0.45
Mof_O 	O 	0.8052	0.3875	0.1451	-0.482
Mof_O 	O 	0.9479	0.388	0.088	-0.409
Mof_O 	O 	0.5823	0.1948	0.1451	-0.497
Mof_O 	O 	0.4401	0.0521	0.088	-0.473
Mof_O 	O 	0.6125	0.4177	0.1451	-0.494
Mof_O 	O 	0.612	0.5599	0.088	-0.444
Mof_O 	O 	0.5823	0.3875	0.3549	-0.473
Mof_O 	O 	0.4401	0.388	0.412	-0.417
Mof_O 	O 	0.6125	0.1948	0.3549	-0.481
Mof_O 	O 	0.612	0.0521	0.412	-0.437
Mof_O 	O 	0.8052	0.4177	0.3549	-0.466
Mof_O 	O 	0.9479	0.5599	0.412	-0.374
Mof_O 	O 	0.4177	0.6125	0.3549	-0.476
Mof_O 	O 	0.5599	0.612	0.412	-0.411
Mof_O 	O 	0.3875	0.8052	0.3549	-0.464
Mof_O 	O 	0.388	0.9479	0.412	-0.376
Mof_O 	O 	0.1948	0.5823	0.3549	-0.479
Mof_O 	O 	0.0521	0.4401	0.412	-0.44
Mof_O 	O 	0.76515	0.23485	0.75	-0.246
Mof_O 	O 	0.4697	0.23485	0.75	-0.258
Mof_O 	O 	0.76515	0.5303	0.75	-0.233
Mof_O 	O 	0.23485	0.76515	0.75	-0.246
Mof_O 	O 	0.5303	0.76515	0.75	-0.233
Mof_O 	O 	0.23485	0.4697	0.75	-0.258
Mof_O 	O 	0.23485	0.76515	0.25	-0.252
Mof_O 	O 	0.5303	0.76515	0.25	-0.24
Mof_O 	O 	0.23485	0.4697	0.25	-0.265
Mof_O 	O 	0.76515	0.23485	0.25	-0.252
Mof_O 	O 	0.4697	0.23485	0.25	-0.265
Mof_O 	O 	0.76515	0.5303	0.25	-0.24
_end
