data_functionalizedCrystal
_audit_creation_method	'EQeq! by Chris Wilmer'
_symmetry_space_group_name_H-M	'P1'
_symmetry_Int_Tables_number	1
_symmetry_cell_setting	triclinic
loop_
_symmetry_equiv_pos_as_xyz
  x,y,z
_cell_length_a	12.8326
_cell_length_b	12.8326
_cell_length_c	17.756
_cell_angle_alpha	90
_cell_angle_beta	90
_cell_angle_gamma	120
loop_
_atom_site_label
_atom_site_type_symbol
_atom_site_fract_x
_atom_site_fract_y
_atom_site_fract_z
_atom_site_charge
Mof_O 	O 	0.8199	0.3869	0.1542	-0.49
Mof_C 	C 	0.8732	0.3286	0.1398	0.383
Mof_C 	C 	0.823	0.2	0.1793	-0.166
Mof_O 	O 	0.9412	0.349	0.0845	-0.296
Mof_H 	H 	0.7582	0.1364	0.1504	0.082
Mof_H 	H 	0.8863	0.1804	0.1867	0.127
Mof_C 	C 	0.899	0.279	0.2074	-0.004
Mof_H 	H 	0.962	0.3429	0.2373	0.035
Mof_H 	H 	0.9231	0.2213	0.1941	-0.048
Mof_O 	O 	0.6131	0.433	0.1542	-0.497
Mof_C 	C 	0.6714	0.5446	0.1398	0.39
Mof_C 	C 	0.8	0.623	0.1793	-0.125
Mof_O 	O 	0.651	0.5922	0.0845	-0.31
Mof_H 	H 	0.8636	0.6218	0.1504	0.086
Mof_H 	H 	0.8196	0.7059	0.1867	0.099
Mof_C 	C 	0.721	0.62	0.2074	-0.048
Mof_H 	H 	0.6571	0.6191	0.2373	0.03
Mof_H 	H 	0.7787	0.7018	0.1941	-0.014
Mof_O 	O 	0.567	0.1801	0.1542	-0.497
Mof_C 	C 	0.4554	0.1268	0.1398	0.383
Mof_C 	C 	0.377	0.177	0.1793	-0.115
Mof_O 	O 	0.4078	0.0588	0.0845	-0.321
Mof_H 	H 	0.3782	0.2418	0.1504	0.072
Mof_H 	H 	0.2941	0.1137	0.1867	0.084
Mof_C 	C 	0.38	0.101	0.2074	-0.044
Mof_H 	H 	0.3809	0.038	0.2373	0.012
Mof_H 	H 	0.2982	0.0769	0.1941	-0.018
Mof_O 	O 	0.1801	0.6131	0.1542	-0.498
Mof_C 	C 	0.1268	0.6714	0.1398	0.386
Mof_C 	C 	0.177	0.8	0.1793	-0.104
Mof_O 	O 	0.0588	0.651	0.0845	-0.319
Mof_H 	H 	0.2418	0.8636	0.1504	0.078
Mof_H 	H 	0.1137	0.8196	0.1867	0.079
Mof_C 	C 	0.101	0.721	0.2074	-0.06
Mof_H 	H 	0.038	0.6571	0.2373	0.016
Mof_H 	H 	0.0769	0.7787	0.1941	-0.006
Mof_O 	O 	0.3869	0.567	0.1542	-0.494
Mof_C 	C 	0.3286	0.4554	0.1398	0.383
Mof_C 	C 	0.2	0.377	0.1793	-0.145
Mof_O 	O 	0.349	0.4078	0.0845	-0.314
Mof_H 	H 	0.1364	0.3782	0.1504	0.075
Mof_H 	H 	0.1804	0.2941	0.1867	0.108
Mof_C 	C 	0.279	0.38	0.2074	-0.016
Mof_H 	H 	0.3429	0.3809	0.2373	0.021
Mof_H 	H 	0.2213	0.2982	0.1941	-0.039
Mof_O 	O 	0.433	0.8199	0.1542	-0.49
Mof_C 	C 	0.5446	0.8732	0.1398	0.387
Mof_C 	C 	0.623	0.823	0.1793	-0.155
Mof_O 	O 	0.5922	0.9412	0.0845	-0.293
Mof_H 	H 	0.6218	0.7582	0.1504	0.088
Mof_H 	H 	0.7059	0.8863	0.1867	0.123
Mof_C 	C 	0.62	0.899	0.2074	-0.019
Mof_H 	H 	0.6191	0.962	0.2373	0.04
Mof_H 	H 	0.7018	0.9231	0.1941	-0.034
Mof_O 	O 	0.3869	0.8199	0.3458	-0.486
Mof_C 	C 	0.3286	0.8732	0.3602	0.384
Mof_C 	C 	0.2	0.823	0.3207	-0.163
Mof_O 	O 	0.349	0.9412	0.4155	-0.285
Mof_H 	H 	0.1364	0.7582	0.3496	0.087
Mof_H 	H 	0.1804	0.8863	0.3133	0.129
Mof_C 	C 	0.279	0.899	0.2926	-0.005
Mof_H 	H 	0.3429	0.962	0.2627	0.037
Mof_H 	H 	0.2213	0.9231	0.3059	-0.046
Mof_O 	O 	0.433	0.6131	0.3458	-0.492
Mof_C 	C 	0.5446	0.6714	0.3602	0.39
Mof_C 	C 	0.623	0.8	0.3207	-0.123
Mof_O 	O 	0.5922	0.651	0.4155	-0.299
Mof_H 	H 	0.6218	0.8636	0.3496	0.089
Mof_H 	H 	0.7059	0.8196	0.3133	0.1
Mof_C 	C 	0.62	0.721	0.2926	-0.05
Mof_H 	H 	0.6191	0.6571	0.2627	0.031
Mof_H 	H 	0.7018	0.7787	0.3059	-0.013
Mof_O 	O 	0.1801	0.567	0.3458	-0.494
Mof_C 	C 	0.1268	0.4554	0.3602	0.383
Mof_C 	C 	0.177	0.377	0.3207	-0.112
Mof_O 	O 	0.0588	0.4078	0.4155	-0.311
Mof_H 	H 	0.2418	0.3782	0.3496	0.075
Mof_H 	H 	0.1137	0.2941	0.3133	0.085
Mof_C 	C 	0.101	0.38	0.2926	-0.046
Mof_H 	H 	0.038	0.3809	0.2627	0.013
Mof_H 	H 	0.0769	0.2982	0.3059	-0.017
Mof_O 	O 	0.6131	0.1801	0.3458	-0.495
Mof_C 	C 	0.6714	0.1268	0.3602	0.387
Mof_C 	C 	0.8	0.177	0.3207	-0.102
Mof_O 	O 	0.651	0.0588	0.4155	-0.308
Mof_H 	H 	0.8636	0.2418	0.3496	0.081
Mof_H 	H 	0.8196	0.1137	0.3133	0.08
Mof_C 	C 	0.721	0.101	0.2926	-0.062
Mof_H 	H 	0.6571	0.038	0.2627	0.017
Mof_H 	H 	0.7787	0.0769	0.3059	-0.005
Mof_O 	O 	0.567	0.3869	0.3458	-0.491
Mof_C 	C 	0.4554	0.3286	0.3602	0.383
Mof_C 	C 	0.377	0.2	0.3207	-0.143
Mof_O 	O 	0.4078	0.349	0.4155	-0.304
Mof_H 	H 	0.3782	0.1364	0.3496	0.078
Mof_H 	H 	0.2941	0.1804	0.3133	0.11
Mof_C 	C 	0.38	0.279	0.2926	-0.018
Mof_H 	H 	0.3809	0.3429	0.2627	0.022
Mof_H 	H 	0.2982	0.2213	0.3059	-0.038
Mof_O 	O 	0.8199	0.433	0.3458	-0.486
Mof_C 	C 	0.8732	0.5446	0.3602	0.387
Mof_C 	C 	0.823	0.623	0.3207	-0.153
Mof_O 	O 	0.9412	0.5922	0.4155	-0.283
Mof_H 	H 	0.7582	0.6218	0.3496	0.092
Mof_H 	H 	0.8863	0.7059	0.3133	0.124
Mof_C 	C 	0.899	0.62	0.2926	-0.021
Mof_H 	H 	0.962	0.6191	0.2627	0.041
Mof_H 	H 	0.9231	0.7018	0.3059	-0.033
Mof_O 	O 	0.1801	0.6131	0.8458	-0.484
Mof_C 	C 	0.1268	0.6714	0.8602	0.383
Mof_C 	C 	0.177	0.8	0.8207	-0.097
Mof_O 	O 	0.0588	0.651	0.9155	-0.277
Mof_H 	H 	0.2418	0.8636	0.8496	0.085
Mof_H 	H 	0.1137	0.8196	0.8133	0.08
Mof_C 	C 	0.101	0.721	0.7926	-0.065
Mof_H 	H 	0.038	0.6571	0.7627	0.018
Mof_H 	H 	0.0769	0.7787	0.8059	-0.001
Mof_O 	O 	0.3869	0.567	0.8458	-0.481
Mof_C 	C 	0.3286	0.4554	0.8602	0.38
Mof_C 	C 	0.2	0.377	0.8207	-0.137
Mof_O 	O 	0.349	0.4078	0.9155	-0.272
Mof_H 	H 	0.1364	0.3782	0.8496	0.083
Mof_H 	H 	0.1804	0.2941	0.8133	0.109
Mof_C 	C 	0.279	0.38	0.7926	-0.022
Mof_H 	H 	0.3429	0.3809	0.7627	0.024
Mof_H 	H 	0.2213	0.2982	0.8059	-0.034
Mof_O 	O 	0.433	0.8199	0.8458	-0.477
Mof_C 	C 	0.5446	0.8732	0.8602	0.384
Mof_C 	C 	0.623	0.823	0.8207	-0.147
Mof_O 	O 	0.5922	0.9412	0.9155	-0.252
Mof_H 	H 	0.6218	0.7582	0.8496	0.096
Mof_H 	H 	0.7059	0.8863	0.8133	0.123
Mof_C 	C 	0.62	0.899	0.7926	-0.024
Mof_H 	H 	0.6191	0.962	0.7627	0.041
Mof_H 	H 	0.7018	0.9231	0.8059	-0.029
Mof_O 	O 	0.8199	0.3869	0.8458	-0.476
Mof_C 	C 	0.8732	0.3286	0.8602	0.381
Mof_C 	C 	0.823	0.2	0.8207	-0.157
Mof_O 	O 	0.9412	0.349	0.9155	-0.254
Mof_H 	H 	0.7582	0.1364	0.8496	0.091
Mof_H 	H 	0.8863	0.1804	0.8133	0.128
Mof_C 	C 	0.899	0.279	0.7926	-0.009
Mof_H 	H 	0.962	0.3429	0.7627	0.037
Mof_H 	H 	0.9231	0.2213	0.8059	-0.042
Mof_O 	O 	0.6131	0.433	0.8458	-0.482
Mof_C 	C 	0.6714	0.5446	0.8602	0.387
Mof_C 	C 	0.8	0.623	0.8207	-0.118
Mof_O 	O 	0.651	0.5922	0.9155	-0.268
Mof_H 	H 	0.8636	0.6218	0.8496	0.094
Mof_H 	H 	0.8196	0.7059	0.8133	0.099
Mof_C 	C 	0.721	0.62	0.7926	-0.052
Mof_H 	H 	0.6571	0.6191	0.7627	0.032
Mof_H 	H 	0.7787	0.7018	0.8059	-0.009
Mof_O 	O 	0.567	0.1801	0.8458	-0.484
Mof_C 	C 	0.4554	0.1268	0.8602	0.38
Mof_C 	C 	0.377	0.177	0.8207	-0.107
Mof_O 	O 	0.4078	0.0588	0.9155	-0.279
Mof_H 	H 	0.3782	0.2418	0.8496	0.08
Mof_H 	H 	0.2941	0.1137	0.8133	0.085
Mof_C 	C 	0.38	0.101	0.7926	-0.049
Mof_H 	H 	0.3809	0.038	0.7627	0.014
Mof_H 	H 	0.2982	0.0769	0.8059	-0.014
Mof_O 	O 	0.6131	0.1801	0.6542	-0.495
Mof_C 	C 	0.6714	0.1268	0.6398	0.387
Mof_C 	C 	0.8	0.177	0.6793	-0.102
Mof_O 	O 	0.651	0.0588	0.5845	-0.308
Mof_H 	H 	0.8636	0.2418	0.6504	0.081
Mof_H 	H 	0.8196	0.1137	0.6867	0.08
Mof_C 	C 	0.721	0.101	0.7074	-0.063
Mof_H 	H 	0.6571	0.038	0.7373	0.017
Mof_H 	H 	0.7787	0.0769	0.6941	-0.004
Mof_O 	O 	0.567	0.3869	0.6542	-0.491
Mof_C 	C 	0.4554	0.3286	0.6398	0.383
Mof_C 	C 	0.377	0.2	0.6793	-0.142
Mof_O 	O 	0.4078	0.349	0.5845	-0.304
Mof_H 	H 	0.3782	0.1364	0.6504	0.078
Mof_H 	H 	0.2941	0.1804	0.6867	0.109
Mof_C 	C 	0.38	0.279	0.7074	-0.019
Mof_H 	H 	0.3809	0.3429	0.7373	0.022
Mof_H 	H 	0.2982	0.2213	0.6941	-0.036
Mof_O 	O 	0.8199	0.433	0.6542	-0.487
Mof_C 	C 	0.8732	0.5446	0.6398	0.387
Mof_C 	C 	0.823	0.623	0.6793	-0.152
Mof_O 	O 	0.9412	0.5922	0.5845	-0.283
Mof_H 	H 	0.7582	0.6218	0.6504	0.091
Mof_H 	H 	0.8863	0.7059	0.6867	0.124
Mof_C 	C 	0.899	0.62	0.7074	-0.022
Mof_H 	H 	0.962	0.6191	0.7373	0.04
Mof_H 	H 	0.9231	0.7018	0.6941	-0.032
Mof_O 	O 	0.3869	0.8199	0.6542	-0.486
Mof_C 	C 	0.3286	0.8732	0.6398	0.384
Mof_C 	C 	0.2	0.823	0.6793	-0.161
Mof_O 	O 	0.349	0.9412	0.5845	-0.285
Mof_H 	H 	0.1364	0.7582	0.6504	0.086
Mof_H 	H 	0.1804	0.8863	0.6867	0.128
Mof_C 	C 	0.279	0.899	0.7074	-0.006
Mof_H 	H 	0.3429	0.962	0.7373	0.036
Mof_H 	H 	0.2213	0.9231	0.6941	-0.044
Mof_O 	O 	0.433	0.6131	0.6542	-0.493
Mof_C 	C 	0.5446	0.6714	0.6398	0.39
Mof_C 	C 	0.623	0.8	0.6793	-0.122
Mof_O 	O 	0.5922	0.651	0.5845	-0.299
Mof_H 	H 	0.6218	0.8636	0.6504	0.089
Mof_H 	H 	0.7059	0.8196	0.6867	0.1
Mof_C 	C 	0.62	0.721	0.7074	-0.05
Mof_H 	H 	0.6191	0.6571	0.7373	0.031
Mof_H 	H 	0.7018	0.7787	0.6941	-0.012
Mof_O 	O 	0.1801	0.567	0.6542	-0.494
Mof_C 	C 	0.1268	0.4554	0.6398	0.383
Mof_C 	C 	0.177	0.377	0.6793	-0.112
Mof_O 	O 	0.0588	0.4078	0.5845	-0.311
Mof_H 	H 	0.2418	0.3782	0.6504	0.075
Mof_H 	H 	0.1137	0.2941	0.6867	0.085
Mof_C 	C 	0.101	0.38	0.7074	-0.047
Mof_H 	H 	0.038	0.3809	0.7373	0.013
Mof_H 	H 	0.0769	0.2982	0.6941	-0.016
Mof_Sm	Sm	0.66667	0.33333	0.25	2.51
Mof_Sm	Sm	0.33333	0.66667	0.25	2.51
Mof_Sm	Sm	0.33333	0.66667	0.75	2.514
Mof_Sm	Sm	0.66667	0.33333	0.75	2.514
Mof_O 	O 	0.7804	0.2196	0.25	-0.31
Mof_O 	O 	0.7804	0.5608	0.25	-0.306
Mof_O 	O 	0.4392	0.2196	0.25	-0.313
Mof_O 	O 	0.2196	0.7804	0.25	-0.31
Mof_O 	O 	0.2196	0.4392	0.25	-0.313
Mof_O 	O 	0.5608	0.7804	0.25	-0.306
Mof_O 	O 	0.2196	0.7804	0.75	-0.311
Mof_O 	O 	0.2196	0.4392	0.75	-0.314
Mof_O 	O 	0.5608	0.7804	0.75	-0.307
Mof_O 	O 	0.7804	0.2196	0.75	-0.311
Mof_O 	O 	0.7804	0.5608	0.75	-0.307
Mof_O 	O 	0.4392	0.2196	0.75	-0.314
Mof_Cd	Cd	-0	0.5	-0	0.399
Mof_Cd	Cd	0.5	0.5	-0	0.429
Mof_Cd	Cd	0.5	0	-0	0.399
Mof_Cd	Cd	0.5	9.96886e-33	0.5	0.457
Mof_Cd	Cd	0.5	0.5	0.5	0.488
Mof_Cd	Cd	-3.98292e-17	0.5	0.5	0.457
_end
