data_functionalizedCrystal
_audit_creation_method	'EQeq! by Chris Wilmer'
_symmetry_space_group_name_H-M	'P1'
_symmetry_Int_Tables_number	1
_symmetry_cell_setting	triclinic
loop_
_symmetry_equiv_pos_as_xyz
  x,y,z
_cell_length_a	11.881
_cell_length_b	15.07
_cell_length_c	18.338
_cell_angle_alpha	66.014
_cell_angle_beta	76.901
_cell_angle_gamma	75.646
loop_
_atom_site_label
_atom_site_type_symbol
_atom_site_fract_x
_atom_site_fract_y
_atom_site_fract_z
_atom_site_charge
Mof_W 	W 	0.1853	0.70821	0.10479	0.875
Mof_W 	W 	0.3589	0.27437	0.14709	0.855
Mof_W 	W 	0.5079	0.48399	0.00422	1.145
Mof_W 	W 	0.668	0.44744	0.14693	1.172
Mof_W 	W 	0.5084	0.24581	0.29402	0.85
Mof_W 	W 	0.4332	0.50811	0.65354	1.359
Mof_W 	W 	0.2564	0.75655	0.55322	1.001
Mof_W 	W 	0.1824	0.5235	0.04653	1.047
Mof_W 	W 	0.5101	0.67099	0.06159	0.797
Mof_W 	W 	0.042	0.52345	0.22965	1.017
Mof_W 	W 	0.4024	0.75256	0.37142	0.837
Mof_W 	W 	0.5744	0.50807	0.46982	0.679
Mof_W 	W 	0.2133	0.27853	0.32832	0.74
Mof_W 	W 	0.1067	0.7854	0.4058	1.406
Mof_W 	W 	0.1052	0.36075	0.63766	1.109
Mof_W 	W 	0.1074	0.54806	0.69519	1.487
Mof_W 	W 	0.9472	0.58466	0.55203	0.964
Mof_W 	W 	0.431	0.32347	0.59497	0.953
Mof_Ge	Ge	0.2596	0.55	0.4982	1.498
Mof_Ge	Ge	0.3561	0.483	0.2017	1.605
Mof_Cu	Cu	0.2389	0.6163	0.308	0.942
Mof_Cu	Cu	0.0974	0.4414	0.4268	0.891
Mof_Cu	Cu	0.5188	0.5879	0.2719	0.893
Mof_Cu	Cu	0.3793	0.4145	0.3917	0.924
Mof_O 	O 	0.268	0.334	0.642	-0.509
Mof_O 	O 	0.663	0.589	0.0893	-0.585
Mof_O 	O 	0.385	0.492	0.536	-0.638
Mof_O 	O 	0.243	0.831	0.3488	-0.507
Mof_O 	O 	0.002	0.706	0.4879	-0.4
Mof_O 	O 	0.355	0.358	0.2395	-0.61
Mof_O 	O 	0.247	0.226	0.235	-0.663
Mof_O 	O 	0.358	0.515	0.2789	-0.787
Mof_O 	O 	0.456	0.368	0.677	-0.559
Mof_O 	O 	0.012	0.895	0.3566	-0.745
Mof_O 	O 	0.254	0.677	0.4704	-0.622
Mof_O 	O 	0.246	0.517	0.412	-0.701
Mof_O 	O 	0.13	0.71	0.3481	-0.556
Mof_O 	O 	0.277	0.507	0.693	-0.562
Mof_O 	O 	0.486	0.212	0.2039	-0.546
Mof_O 	O 	0.2255	0.5393	0.1541	-0.613
Mof_O 	O 	0.568	0.372	0.537	-0.525
Mof_O 	O 	-2.96404e-17	0.554	0.46	-0.37
Mof_O 	O 	0.224	0.702	0.1987	-0.495
Mof_O 	O 	0.476	0.353	0.072	-0.545
Mof_O 	O 	0.662	0.435	0.049	-0.657
Mof_O 	O 	0.626	0.479	0.244	-0.548
Mof_O 	O 	0.035	0.665	0.1671	-0.446
Mof_O 	O 	0.484	0.514	0.732	-0.73
Mof_O 	O 	0.406	0.6756	0.3189	-0.555
Mof_O 	O 	0.822	0.415	0.144	-0.986
Mof_O 	O 	0.141	0.833	0.4861	-0.427
Mof_O 	O 	0.951	0.451	0.615	-0.755
Mof_O 	O 	0.469	0.516	0.1205	-0.648
Mof_O 	O 	0.088	0.411	0.725	-0.503
Mof_O 	O 	0.358	0.1928	0.3571	-0.451
Mof_O 	O 	0.54	0.607	0.98	-0.435
Mof_O 	O 	0.524	0.506	0.38	-0.537
Mof_O 	O 	0.1303	0.524	0.5696	-0.559
Mof_O 	O 	0.161	0.656	0.026	-0.485
Mof_O 	O 	0.132	0.348	0.5442	-0.498
Mof_O 	O 	0.108	0.3975	0.261	-0.681
Mof_O 	O 	0.35	0.71	0.0549	-0.488
Mof_O 	O 	0.089	0.538	0.309	-0.54
Mof_O 	O 	0.045	0.515	0.124	-0.57
Mof_O 	O 	0.06	0.557	0.79	-0.653
Mof_O 	O 	0.389	0.328	0.507	-0.501
Mof_O 	O 	0.5	0.322	0.349	-0.511
Mof_O 	O 	0.153	0.674	0.6263	-0.48
Mof_O 	O 	0.354	0.5334	0.9987	-0.392
Mof_O 	O 	0.128	0.531	0.96	-0.558
Mof_O 	O 	0.559	0.468	0.916	-0.737
Mof_O 	O 	0.228	0.344	0.3957	-0.486
Mof_O 	O 	0.493	0.6701	0.1673	-0.521
Mof_O 	O 	0.803	0.628	0.5502	-0.975
Mof_O 	O 	0.245	0.377	0.1012	-0.642
Mof_O 	O 	0.967	0.601	0.65	-0.758
Mof_O 	O 	0.372	0.795	0.464	-0.727
Mof_O 	O 	0.568	0.523	0.578	-0.748
Mof_O 	O 	0.5105	0.6566	0.4317	-0.822
Mof_O 	O 	0.375	0.638	0.6036	-0.67
Mof_O 	O 	0.609	0.327	0.208	-0.596
Mof_Cu	Cu	0.2755	0.9009	0.704	0.885
Mof_O 	O 	0.292	0.948	0.8144	-0.871
Mof_O 	O 	0.586	0.765	0.641	-0.773
Mof_O 	O 	0.123	0.891	0.753	-0.376
Mof_O 	O 	0.445	0.883	0.655	-0.416
Mof_O 	O 	0.016	0.76	0.827	-0.438
Mof_N 	N 	0.307	0.767	0.787	-0.095
Mof_C 	C 	0.119	0.794	0.788	0.308
Mof_C 	C 	0.379	0.845	0.858	0.233
Mof_H 	H 	0.4546	0.8384	0.8257	-0.081
Mof_H 	H 	0.3893	0.8385	0.9115	-0.084
Mof_C 	C 	0.224	0.713	0.7973	-0.273
Mof_H 	H 	0.2177	0.6608	0.8505	0.115
Mof_H 	H 	0.2381	0.6843	0.7564	0.074
Mof_C 	C 	0.304	0.776	0.862	-0.226
Mof_H 	H 	0.3288	0.7114	0.9011	0.124
Mof_H 	H 	0.223	0.7991	0.8811	0.125
Mof_C 	C 	0.243	0.984	0.841	1.228
Mof_H 	H 	0.1765	0.9513	0.856	-0.298
Mof_H 	H 	0.2233	0.0433	0.7947	-0.435
Mof_C 	C 	0.423	0.721	0.755	-0.348
Mof_H 	H 	0.4682	0.6856	0.7994	0.083
Mof_H 	H 	0.4094	0.6725	0.7374	0.077
Mof_C 	C 	0.493	0.781	0.692	0.331
Mof_K 	K 	0.677	0.427	0.8	1.801
Mof_O 	O 	0.023	0.085	0.281	-1.38
Mof_K 	K 	0.9427	0.6062	0.9001	1.762
Mof_K 	K 	0.6022	0.7382	0.5082	3.859
Mof_O 	O 	0.529	0.948	0.472	-0.387
Mof_H 	H 	0.5362	0.8805	0.5083	-0.379
Mof_H 	H 	0.462	0.9864	0.4931	0.142
Mof_K 	K 	0.011	0.2885	0.1983	2.487
Mof_K 	K 	0.9249	0.0328	0.2567	3.424
Mof_O 	O 	0.79	0.976	0.343	-0.471
Mof_H 	H 	0.8162	0.9098	0.3426	-0.217
Mof_H 	H 	0.7807	0.0307	0.2922	-0.742
_end
