# CIF file generated by openbabel 2.4.1, see http://openbabel.sf.net
data_I
_chemical_name_common 'image0'
_cell_length_a 18.567
_cell_length_b 9.934
_cell_length_c 30.764
_cell_angle_alpha 90
_cell_angle_beta 90
_cell_angle_gamma 90
_space_group_name_H-M_alt 'P 1'
_space_group_name_Hall 'P 1'
loop_
    _symmetry_equiv_pos_as_xyz
    x,y,z
loop_
    _atom_site_label
    _atom_site_type_symbol
    _atom_site_fract_x
    _atom_site_fract_y
    _atom_site_fract_z
    _atom_site_occupancy
    N1      N    0.92100   0.67490   0.20413   1.000
    O1      O    0.72780   0.54230   0.09917   1.000
    N2      N    0.76300   0.85360   0.91640   1.000
    N3      N    0.73560   0.76530   0.08641   1.000
    H1      H    0.75300   0.84140   0.09460   1.000
    O2      O    0.77370   0.66490   0.89890   1.000
    C1      C    0.68930   0.79660   0.85760   1.000
    C2      C    0.68820   0.70760   0.82230   1.000
    H2      H    0.72050   0.63760   0.81750   1.000
    C3      C    0.63700   0.88900   0.86150   1.000
    H3      H    0.63670   0.93870   0.88700   1.000
    C4      C    0.74430   0.77320   0.89320   1.000
    O3      O    0.74180   0.03850   0.90790   1.000
    C5      C    0.68070   0.89450   0.86250   1.000
    C6      C    0.68700   0.78240   0.83340   1.000
    H4      H    0.72750   0.72840   0.83670   1.000
    C7      C    0.62020   0.97140   0.85760   1.000
    H5      H    0.61110   0.04930   0.87340   1.000
    C8      C    0.73240   0.92300   0.89760   1.000
    N4      N    0.57860   0.82910   0.79684   1.000
    C9      C    0.63280   0.74080   0.79660   1.000
    H6      H    0.63170   0.68750   0.77180   1.000
    C10     C    0.57600   0.92240   0.82760   1.000
    H7      H    0.54400   0.99440   0.82890   1.000
    C11     C    0.81200   0.66620   0.14186   1.000
    C12     C    0.86060   0.76920   0.14353   1.000
    H8      H    0.85720   0.83980   0.12380   1.000
    C13     C    0.91450   0.76940   0.17392   1.000
    H9      H    0.94800   0.83900   0.17340   1.000
    C14     C    0.87120   0.57380   0.20320   1.000
    H10     H    0.87370   0.50710   0.22440   1.000
    C15     C    0.81820   0.56610   0.17296   1.000
    H11     H    0.78620   0.49410   0.17310   1.000
    C16     C    0.75420   0.65390   0.10748   1.000
    C17     C    0.81260   0.85850   0.95300   1.000
    H12     H    0.82180   0.95160   0.96070   1.000
    H13     H    0.85810   0.81780   0.94460   1.000
    C18     C    0.78180   0.78340   0.99290   1.000
    H14     H    0.76960   0.69220   0.98440   1.000
    H15     H    0.81890   0.77800   0.01510   1.000
    C19     C    0.71550   0.85000   0.01230   1.000
    H16     H    0.67900   0.86120   0.99010   1.000
    H17     H    0.72790   0.93820   0.02350   1.000
    C20     C    0.68600   0.76040   0.04950   1.000
    H18     H    0.63890   0.79230   0.05830   1.000
    H19     H    0.68110   0.66840   0.03940   1.000
    N5      N    0.57900   0.82510   0.70413   1.000
    O4      O    0.77220   0.95770   0.59917   1.000
    N6      N    0.73700   0.64640   0.41640   1.000
    N7      N    0.76440   0.73470   0.58641   1.000
    H20     H    0.74700   0.65860   0.59460   1.000
    O5      O    0.72630   0.83510   0.39890   1.000
    C21     C    0.81070   0.70340   0.35760   1.000
    C22     C    0.81180   0.79240   0.32230   1.000
    H21     H    0.77950   0.86240   0.31750   1.000
    C23     C    0.86300   0.61100   0.36150   1.000
    H22     H    0.86330   0.56130   0.38700   1.000
    C24     C    0.75570   0.72680   0.39320   1.000
    O6      O    0.75820   0.46150   0.40790   1.000
    C25     C    0.81930   0.60550   0.36250   1.000
    C26     C    0.81300   0.71760   0.33340   1.000
    H23     H    0.77250   0.77160   0.33670   1.000
    C27     C    0.87980   0.52860   0.35760   1.000
    H24     H    0.88890   0.45070   0.37340   1.000
    C28     C    0.76760   0.57700   0.39760   1.000
    N8      N    0.92140   0.67090   0.29684   1.000
    C29     C    0.86720   0.75920   0.29660   1.000
    H25     H    0.86830   0.81250   0.27180   1.000
    C30     C    0.92400   0.57760   0.32760   1.000
    H26     H    0.95600   0.50560   0.32890   1.000
    C31     C    0.68800   0.83380   0.64186   1.000
    C32     C    0.63940   0.73080   0.64353   1.000
    H27     H    0.64280   0.66020   0.62380   1.000
    C33     C    0.58550   0.73060   0.67392   1.000
    H28     H    0.55200   0.66100   0.67340   1.000
    C34     C    0.62880   0.92620   0.70320   1.000
    H29     H    0.62630   0.99290   0.72440   1.000
    C35     C    0.68180   0.93390   0.67296   1.000
    H30     H    0.71380   0.00590   0.67310   1.000
    C36     C    0.74580   0.84610   0.60748   1.000
    C37     C    0.68740   0.64150   0.45300   1.000
    H31     H    0.67820   0.54840   0.46070   1.000
    H32     H    0.64190   0.68220   0.44460   1.000
    C38     C    0.71820   0.71660   0.49290   1.000
    H33     H    0.73040   0.80780   0.48440   1.000
    H34     H    0.68110   0.72200   0.51510   1.000
    C39     C    0.78450   0.65000   0.51230   1.000
    H35     H    0.82100   0.63880   0.49010   1.000
    H36     H    0.77210   0.56180   0.52350   1.000
    C40     C    0.81400   0.73960   0.54950   1.000
    H37     H    0.86110   0.70770   0.55830   1.000
    H38     H    0.81890   0.83160   0.53940   1.000
    N9      N    0.07900   0.67490   0.29587   1.000
    O7      O    0.27220   0.54230   0.40083   1.000
    N10     N    0.23700   0.85360   0.58360   1.000
    N11     N    0.26440   0.76530   0.41359   1.000
    H39     H    0.24700   0.84140   0.40540   1.000
    O8      O    0.22630   0.66490   0.60110   1.000
    C41     C    0.31070   0.79660   0.64240   1.000
    C42     C    0.31180   0.70760   0.67770   1.000
    H40     H    0.27950   0.63760   0.68250   1.000
    C43     C    0.36300   0.88900   0.63850   1.000
    H41     H    0.36330   0.93870   0.61300   1.000
    C44     C    0.25570   0.77320   0.60680   1.000
    O9      O    0.25820   0.03850   0.59210   1.000
    C45     C    0.31930   0.89450   0.63750   1.000
    C46     C    0.31300   0.78240   0.66660   1.000
    H42     H    0.27250   0.72840   0.66330   1.000
    C47     C    0.37980   0.97140   0.64240   1.000
    H43     H    0.38890   0.04930   0.62660   1.000
    C48     C    0.26760   0.92300   0.60240   1.000
    N12     N    0.42140   0.82910   0.70316   1.000
    C49     C    0.36720   0.74080   0.70340   1.000
    H44     H    0.36830   0.68750   0.72820   1.000
    C50     C    0.42400   0.92240   0.67240   1.000
    H45     H    0.45600   0.99440   0.67110   1.000
    C51     C    0.18800   0.66620   0.35814   1.000
    C52     C    0.13940   0.76920   0.35647   1.000
    H46     H    0.14280   0.83980   0.37620   1.000
    C53     C    0.08550   0.76940   0.32608   1.000
    H47     H    0.05200   0.83900   0.32660   1.000
    C54     C    0.12880   0.57380   0.29680   1.000
    H48     H    0.12630   0.50710   0.27560   1.000
    C55     C    0.18180   0.56610   0.32704   1.000
    H49     H    0.21380   0.49410   0.32690   1.000
    C56     C    0.24580   0.65390   0.39252   1.000
    C57     C    0.18740   0.85850   0.54700   1.000
    H50     H    0.17820   0.95160   0.53930   1.000
    H51     H    0.14190   0.81780   0.55540   1.000
    C58     C    0.21820   0.78340   0.50710   1.000
    H52     H    0.23040   0.69220   0.51560   1.000
    H53     H    0.18110   0.77800   0.48490   1.000
    C59     C    0.28450   0.85000   0.48770   1.000
    H54     H    0.32100   0.86120   0.50990   1.000
    H55     H    0.27210   0.93820   0.47650   1.000
    C60     C    0.31400   0.76040   0.45050   1.000
    H56     H    0.36110   0.79230   0.44170   1.000
    H57     H    0.31890   0.66840   0.46060   1.000
    N13     N    0.42100   0.82510   0.79587   1.000
    O10     O    0.22780   0.95770   0.90083   1.000
    N14     N    0.26300   0.64640   0.08360   1.000
    N15     N    0.23560   0.73470   0.91359   1.000
    H58     H    0.25300   0.65860   0.90540   1.000
    O11     O    0.27370   0.83510   0.10110   1.000
    C61     C    0.18930   0.70340   0.14240   1.000
    C62     C    0.18820   0.79240   0.17770   1.000
    H59     H    0.22050   0.86240   0.18250   1.000
    C63     C    0.13700   0.61100   0.13850   1.000
    H60     H    0.13670   0.56130   0.11300   1.000
    C64     C    0.24430   0.72680   0.10680   1.000
    O12     O    0.24180   0.46150   0.09210   1.000
    C65     C    0.18070   0.60550   0.13750   1.000
    C66     C    0.18700   0.71760   0.16660   1.000
    H61     H    0.22750   0.77160   0.16330   1.000
    C67     C    0.12020   0.52860   0.14240   1.000
    H62     H    0.11110   0.45070   0.12660   1.000
    C68     C    0.23240   0.57700   0.10240   1.000
    N16     N    0.07860   0.67090   0.20316   1.000
    C69     C    0.13280   0.75920   0.20340   1.000
    H63     H    0.13170   0.81250   0.22820   1.000
    C70     C    0.07600   0.57760   0.17240   1.000
    H64     H    0.04400   0.50560   0.17110   1.000
    C71     C    0.31200   0.83380   0.85814   1.000
    C72     C    0.36060   0.73080   0.85647   1.000
    H65     H    0.35720   0.66020   0.87620   1.000
    C73     C    0.41450   0.73060   0.82608   1.000
    H66     H    0.44800   0.66100   0.82660   1.000
    C74     C    0.37120   0.92620   0.79680   1.000
    H67     H    0.37370   0.99290   0.77560   1.000
    C75     C    0.31820   0.93390   0.82704   1.000
    H68     H    0.28620   0.00590   0.82690   1.000
    C76     C    0.25420   0.84610   0.89252   1.000
    C77     C    0.31260   0.64150   0.04700   1.000
    H69     H    0.32180   0.54840   0.03930   1.000
    H70     H    0.35810   0.68220   0.05540   1.000
    C78     C    0.28180   0.71660   0.00710   1.000
    H71     H    0.26960   0.80780   0.01560   1.000
    H72     H    0.31890   0.72200   0.98490   1.000
    C79     C    0.21550   0.65000   0.98770   1.000
    H73     H    0.17900   0.63880   0.00990   1.000
    H74     H    0.22790   0.56180   0.97650   1.000
    C80     C    0.18600   0.73960   0.95050   1.000
    H75     H    0.13890   0.70770   0.94170   1.000
    H76     H    0.18110   0.83160   0.96060   1.000
    N17     N    0.07900   0.32510   0.79587   1.000
    O13     O    0.27220   0.45770   0.90083   1.000
    N18     N    0.23700   0.14640   0.08360   1.000
    N19     N    0.26440   0.23470   0.91359   1.000
    H77     H    0.24700   0.15860   0.90540   1.000
    O14     O    0.22630   0.33510   0.10110   1.000
    C81     C    0.31070   0.20340   0.14240   1.000
    C82     C    0.31180   0.29240   0.17770   1.000
    H78     H    0.27950   0.36240   0.18250   1.000
    C83     C    0.36300   0.11100   0.13850   1.000
    H79     H    0.36330   0.06130   0.11300   1.000
    C84     C    0.25570   0.22680   0.10680   1.000
    O15     O    0.25820   0.96150   0.09210   1.000
    C85     C    0.31930   0.10550   0.13750   1.000
    C86     C    0.31300   0.21760   0.16660   1.000
    H80     H    0.27250   0.27160   0.16330   1.000
    C87     C    0.37980   0.02860   0.14240   1.000
    H81     H    0.38890   0.95070   0.12660   1.000
    C88     C    0.26760   0.07700   0.10240   1.000
    N20     N    0.42140   0.17090   0.20316   1.000
    C89     C    0.36720   0.25920   0.20340   1.000
    H82     H    0.36830   0.31250   0.22820   1.000
    C90     C    0.42400   0.07760   0.17240   1.000
    H83     H    0.45600   0.00560   0.17110   1.000
    C91     C    0.18800   0.33380   0.85814   1.000
    C92     C    0.13940   0.23080   0.85647   1.000
    H84     H    0.14280   0.16020   0.87620   1.000
    C93     C    0.08550   0.23060   0.82608   1.000
    H85     H    0.05200   0.16100   0.82660   1.000
    C94     C    0.12880   0.42620   0.79680   1.000
    H86     H    0.12630   0.49290   0.77560   1.000
    C95     C    0.18180   0.43390   0.82704   1.000
    H87     H    0.21380   0.50590   0.82690   1.000
    C96     C    0.24580   0.34610   0.89252   1.000
    C97     C    0.18740   0.14150   0.04700   1.000
    H88     H    0.17820   0.04840   0.03930   1.000
    H89     H    0.14190   0.18220   0.05540   1.000
    C98     C    0.21820   0.21660   0.00710   1.000
    H90     H    0.23040   0.30780   0.01560   1.000
    H91     H    0.18110   0.22200   0.98490   1.000
    C99     C    0.28450   0.15000   0.98770   1.000
    H92     H    0.32100   0.13880   0.00990   1.000
    H93     H    0.27210   0.06180   0.97650   1.000
    C100    C    0.31400   0.23960   0.95050   1.000
    H94     H    0.36110   0.20770   0.94170   1.000
    H95     H    0.31890   0.33160   0.96060   1.000
    N21     N    0.42100   0.17490   0.29587   1.000
    O16     O    0.22780   0.04230   0.40083   1.000
    N22     N    0.26300   0.35360   0.58360   1.000
    N23     N    0.23560   0.26530   0.41359   1.000
    H96     H    0.25300   0.34140   0.40540   1.000
    O17     O    0.27370   0.16490   0.60110   1.000
    C101    C    0.18930   0.29660   0.64240   1.000
    C102    C    0.18820   0.20760   0.67770   1.000
    H97     H    0.22050   0.13760   0.68250   1.000
    C103    C    0.13700   0.38900   0.63850   1.000
    H98     H    0.13670   0.43870   0.61300   1.000
    C104    C    0.24430   0.27320   0.60680   1.000
    O18     O    0.24180   0.53850   0.59210   1.000
    C105    C    0.18070   0.39450   0.63750   1.000
    C106    C    0.18700   0.28240   0.66660   1.000
    H99     H    0.22750   0.22840   0.66330   1.000
    C107    C    0.12020   0.47140   0.64240   1.000
    H100    H    0.11110   0.54930   0.62660   1.000
    C108    C    0.23240   0.42300   0.60240   1.000
    N24     N    0.07860   0.32910   0.70316   1.000
    C109    C    0.13280   0.24080   0.70340   1.000
    H101    H    0.13170   0.18750   0.72820   1.000
    C110    C    0.07600   0.42240   0.67240   1.000
    H102    H    0.04400   0.49440   0.67110   1.000
    C111    C    0.31200   0.16620   0.35814   1.000
    C112    C    0.36060   0.26920   0.35647   1.000
    H103    H    0.35720   0.33980   0.37620   1.000
    C113    C    0.41450   0.26940   0.32608   1.000
    H104    H    0.44800   0.33900   0.32660   1.000
    C114    C    0.37120   0.07380   0.29680   1.000
    H105    H    0.37370   0.00710   0.27560   1.000
    C115    C    0.31820   0.06610   0.32704   1.000
    H106    H    0.28620   0.99410   0.32690   1.000
    C116    C    0.25420   0.15390   0.39252   1.000
    C117    C    0.31260   0.35850   0.54700   1.000
    H107    H    0.32180   0.45160   0.53930   1.000
    H108    H    0.35810   0.31780   0.55540   1.000
    C118    C    0.28180   0.28340   0.50710   1.000
    H109    H    0.26960   0.19220   0.51560   1.000
    H110    H    0.31890   0.27800   0.48490   1.000
    C119    C    0.21550   0.35000   0.48770   1.000
    H111    H    0.17900   0.36120   0.50990   1.000
    H112    H    0.22790   0.43820   0.47650   1.000
    C120    C    0.18600   0.26040   0.45050   1.000
    H113    H    0.13890   0.29230   0.44170   1.000
    H114    H    0.18110   0.16840   0.46060   1.000
    N25     N    0.92100   0.32510   0.70413   1.000
    O19     O    0.72780   0.45770   0.59917   1.000
    N26     N    0.76300   0.14640   0.41640   1.000
    N27     N    0.73560   0.23470   0.58641   1.000
    H115    H    0.75300   0.15860   0.59460   1.000
    O20     O    0.77370   0.33510   0.39890   1.000
    C121    C    0.68930   0.20340   0.35760   1.000
    C122    C    0.68820   0.29240   0.32230   1.000
    H116    H    0.72050   0.36240   0.31750   1.000
    C123    C    0.63700   0.11100   0.36150   1.000
    H117    H    0.63670   0.06130   0.38700   1.000
    C124    C    0.74430   0.22680   0.39320   1.000
    O21     O    0.74180   0.96150   0.40790   1.000
    C125    C    0.68070   0.10550   0.36250   1.000
    C126    C    0.68700   0.21760   0.33340   1.000
    H118    H    0.72750   0.27160   0.33670   1.000
    C127    C    0.62020   0.02860   0.35760   1.000
    H119    H    0.61110   0.95070   0.37340   1.000
    C128    C    0.73240   0.07700   0.39760   1.000
    N28     N    0.57860   0.17090   0.29684   1.000
    C129    C    0.63280   0.25920   0.29660   1.000
    H120    H    0.63170   0.31250   0.27180   1.000
    C130    C    0.57600   0.07760   0.32760   1.000
    H121    H    0.54400   0.00560   0.32890   1.000
    C131    C    0.81200   0.33380   0.64186   1.000
    C132    C    0.86060   0.23080   0.64353   1.000
    H122    H    0.85720   0.16020   0.62380   1.000
    C133    C    0.91450   0.23060   0.67392   1.000
    H123    H    0.94800   0.16100   0.67340   1.000
    C134    C    0.87120   0.42620   0.70320   1.000
    H124    H    0.87370   0.49290   0.72440   1.000
    C135    C    0.81820   0.43390   0.67296   1.000
    H125    H    0.78620   0.50590   0.67310   1.000
    C136    C    0.75420   0.34610   0.60748   1.000
    C137    C    0.81260   0.14150   0.45300   1.000
    H126    H    0.82180   0.04840   0.46070   1.000
    H127    H    0.85810   0.18220   0.44460   1.000
    C138    C    0.78180   0.21660   0.49290   1.000
    H128    H    0.76960   0.30780   0.48440   1.000
    H129    H    0.81890   0.22200   0.51510   1.000
    C139    C    0.71550   0.15000   0.51230   1.000
    H130    H    0.67900   0.13880   0.49010   1.000
    H131    H    0.72790   0.06180   0.52350   1.000
    C140    C    0.68600   0.23960   0.54950   1.000
    H132    H    0.63890   0.20770   0.55830   1.000
    H133    H    0.68110   0.33160   0.53940   1.000
    N29     N    0.57900   0.17490   0.20413   1.000
    O22     O    0.77220   0.04230   0.09917   1.000
    N30     N    0.73700   0.35360   0.91640   1.000
    N31     N    0.76440   0.26530   0.08641   1.000
    H134    H    0.74700   0.34140   0.09460   1.000
    O23     O    0.72630   0.16490   0.89890   1.000
    C141    C    0.81070   0.29660   0.85760   1.000
    C142    C    0.81180   0.20760   0.82230   1.000
    H135    H    0.77950   0.13760   0.81750   1.000
    C143    C    0.86300   0.38900   0.86150   1.000
    H136    H    0.86330   0.43870   0.88700   1.000
    C144    C    0.75570   0.27320   0.89320   1.000
    O24     O    0.75820   0.53850   0.90790   1.000
    C145    C    0.81930   0.39450   0.86250   1.000
    C146    C    0.81300   0.28240   0.83340   1.000
    H137    H    0.77250   0.22840   0.83670   1.000
    C147    C    0.87980   0.47140   0.85760   1.000
    H138    H    0.88890   0.54930   0.87340   1.000
    C148    C    0.76760   0.42300   0.89760   1.000
    N32     N    0.92140   0.32910   0.79684   1.000
    C149    C    0.86720   0.24080   0.79660   1.000
    H139    H    0.86830   0.18750   0.77180   1.000
    C150    C    0.92400   0.42240   0.82760   1.000
    H140    H    0.95600   0.49440   0.82890   1.000
    C151    C    0.68800   0.16620   0.14186   1.000
    C152    C    0.63940   0.26920   0.14353   1.000
    H141    H    0.64280   0.33980   0.12380   1.000
    C153    C    0.58550   0.26940   0.17392   1.000
    H142    H    0.55200   0.33900   0.17340   1.000
    C154    C    0.62880   0.07380   0.20320   1.000
    H143    H    0.62630   0.00710   0.22440   1.000
    C155    C    0.68180   0.06610   0.17296   1.000
    H144    H    0.71380   0.99410   0.17310   1.000
    C156    C    0.74580   0.15390   0.10748   1.000
    C157    C    0.68740   0.35850   0.95300   1.000
    H145    H    0.67820   0.45160   0.96070   1.000
    H146    H    0.64190   0.31780   0.94460   1.000
    C158    C    0.71820   0.28340   0.99290   1.000
    H147    H    0.73040   0.19220   0.98440   1.000
    H148    H    0.68110   0.27800   0.01510   1.000
    C159    C    0.78450   0.35000   0.01230   1.000
    H149    H    0.82100   0.36120   0.99010   1.000
    H150    H    0.77210   0.43820   0.02350   1.000
    C160    C    0.81400   0.26040   0.04950   1.000
    H151    H    0.86110   0.29230   0.05830   1.000
    H152    H    0.81890   0.16840   0.03940   1.000
    Cu1     Cu   0.00000   0.67876   0.25000   1.000
    Cu2     Cu   0.50000   0.82124   0.75000   1.000
    Cu3     Cu   0.00000   0.32124   0.75000   1.000
    Cu4     Cu   0.50000   0.17876   0.25000   1.000
