# CIF file generated by openbabel 2.4.1, see http://openbabel.sf.net
data_I
_chemical_name_common 'image0'
_cell_length_a 13.715
_cell_length_b 13.715
_cell_length_c 7.9523
_cell_angle_alpha 90
_cell_angle_beta 90
_cell_angle_gamma 90
_space_group_name_H-M_alt 'P 1'
_space_group_name_Hall 'P 1'
loop_
    _symmetry_equiv_pos_as_xyz
    x,y,z
loop_
    _atom_site_label
    _atom_site_type_symbol
    _atom_site_fract_x
    _atom_site_fract_y
    _atom_site_fract_z
    _atom_site_occupancy
    C1      C    0.02270   0.19917   0.14040   1.000
    C2      C    0.02506   0.30028   0.14690   1.000
    H1      H    0.03530   0.15750   0.25510   1.000
    H2      H    0.03660   0.33630   0.26740   1.000
    C3      C    0.97730   0.80083   0.14040   1.000
    C4      C    0.97494   0.69972   0.14690   1.000
    H3      H    0.96470   0.84250   0.25510   1.000
    H4      H    0.96340   0.66370   0.26740   1.000
    C5      C    0.80083   0.02270   0.14040   1.000
    C6      C    0.69972   0.02506   0.14690   1.000
    H5      H    0.84250   0.03530   0.25510   1.000
    H6      H    0.66370   0.03660   0.26740   1.000
    C7      C    0.19917   0.97730   0.14040   1.000
    C8      C    0.30028   0.97494   0.14690   1.000
    H7      H    0.15750   0.96470   0.25510   1.000
    H8      H    0.33630   0.96340   0.26740   1.000
    C9      C    0.97730   0.19917   0.85960   1.000
    C10     C    0.97494   0.30028   0.85310   1.000
    H9      H    0.96470   0.15750   0.74490   1.000
    H10     H    0.96340   0.33630   0.73260   1.000
    C11     C    0.02270   0.80083   0.85960   1.000
    C12     C    0.02506   0.69972   0.85310   1.000
    H11     H    0.03530   0.84250   0.74490   1.000
    H12     H    0.03660   0.66370   0.73260   1.000
    C13     C    0.19917   0.02270   0.85960   1.000
    C14     C    0.30028   0.02506   0.85310   1.000
    H13     H    0.15750   0.03530   0.74490   1.000
    H14     H    0.33630   0.03660   0.73260   1.000
    C15     C    0.80083   0.97730   0.85960   1.000
    C16     C    0.69972   0.97494   0.85310   1.000
    H15     H    0.84250   0.96470   0.74490   1.000
    H16     H    0.66370   0.96340   0.73260   1.000
    C17     C    0.97730   0.80083   0.85960   1.000
    C18     C    0.97494   0.69972   0.85310   1.000
    H17     H    0.96470   0.84250   0.74490   1.000
    H18     H    0.96340   0.66370   0.73260   1.000
    C19     C    0.02270   0.19917   0.85960   1.000
    C20     C    0.02506   0.30028   0.85310   1.000
    H19     H    0.03530   0.15750   0.74490   1.000
    H20     H    0.03660   0.33630   0.73260   1.000
    C21     C    0.19917   0.97730   0.85960   1.000
    C22     C    0.30028   0.97494   0.85310   1.000
    H21     H    0.15750   0.96470   0.74490   1.000
    H22     H    0.33630   0.96340   0.73260   1.000
    C23     C    0.80083   0.02270   0.85960   1.000
    C24     C    0.69972   0.02506   0.85310   1.000
    H23     H    0.84250   0.03530   0.74490   1.000
    H24     H    0.66370   0.03660   0.73260   1.000
    C25     C    0.02270   0.80083   0.14040   1.000
    C26     C    0.02506   0.69972   0.14690   1.000
    H25     H    0.03530   0.84250   0.25510   1.000
    H26     H    0.03660   0.66370   0.26740   1.000
    C27     C    0.97730   0.19917   0.14040   1.000
    C28     C    0.97494   0.30028   0.14690   1.000
    H27     H    0.96470   0.15750   0.25510   1.000
    H28     H    0.96340   0.33630   0.26740   1.000
    C29     C    0.80083   0.97730   0.14040   1.000
    C30     C    0.69972   0.97494   0.14690   1.000
    H29     H    0.84250   0.96470   0.25510   1.000
    H30     H    0.66370   0.96340   0.26740   1.000
    C31     C    0.19917   0.02270   0.14040   1.000
    C32     C    0.30028   0.02506   0.14690   1.000
    H31     H    0.15750   0.03530   0.25510   1.000
    H32     H    0.33630   0.03660   0.26740   1.000
    C33     C    0.00000   0.35210   0.00000   1.000
    C34     C    0.00000   0.45530   0.00000   1.000
    N1      N    0.00000   0.14897   0.00000   1.000
    C35     C    0.00000   0.64790   0.00000   1.000
    C36     C    0.00000   0.54470   0.00000   1.000
    N2      N    0.00000   0.85103   0.00000   1.000
    C37     C    0.64790   0.00000   0.00000   1.000
    C38     C    0.54470   0.00000   0.00000   1.000
    N3      N    0.85103   0.00000   0.00000   1.000
    C39     C    0.35210   0.00000   0.00000   1.000
    C40     C    0.45530   0.00000   0.00000   1.000
    N4      N    0.14897   0.00000   0.00000   1.000
    Cu1     Cu   0.00000   0.00000   0.00000   1.000
    C41     C    0.52270   0.69917   0.64040   1.000
    C42     C    0.52506   0.80028   0.64690   1.000
    H33     H    0.53530   0.65750   0.75510   1.000
    H34     H    0.53660   0.83630   0.76740   1.000
    C43     C    0.47730   0.30083   0.64040   1.000
    C44     C    0.47494   0.19972   0.64690   1.000
    H35     H    0.46470   0.34250   0.75510   1.000
    H36     H    0.46340   0.16370   0.76740   1.000
    C45     C    0.30083   0.52270   0.64040   1.000
    C46     C    0.19972   0.52506   0.64690   1.000
    H37     H    0.34250   0.53530   0.75510   1.000
    H38     H    0.16370   0.53660   0.76740   1.000
    C47     C    0.69917   0.47730   0.64040   1.000
    C48     C    0.80028   0.47494   0.64690   1.000
    H39     H    0.65750   0.46470   0.75510   1.000
    H40     H    0.83630   0.46340   0.76740   1.000
    C49     C    0.47730   0.69917   0.35960   1.000
    C50     C    0.47494   0.80028   0.35310   1.000
    H41     H    0.46470   0.65750   0.24490   1.000
    H42     H    0.46340   0.83630   0.23260   1.000
    C51     C    0.52270   0.30083   0.35960   1.000
    C52     C    0.52506   0.19972   0.35310   1.000
    H43     H    0.53530   0.34250   0.24490   1.000
    H44     H    0.53660   0.16370   0.23260   1.000
    C53     C    0.69917   0.52270   0.35960   1.000
    C54     C    0.80028   0.52506   0.35310   1.000
    H45     H    0.65750   0.53530   0.24490   1.000
    H46     H    0.83630   0.53660   0.23260   1.000
    C55     C    0.30083   0.47730   0.35960   1.000
    C56     C    0.19972   0.47494   0.35310   1.000
    H47     H    0.34250   0.46470   0.24490   1.000
    H48     H    0.16370   0.46340   0.23260   1.000
    C57     C    0.47730   0.30083   0.35960   1.000
    C58     C    0.47494   0.19972   0.35310   1.000
    H49     H    0.46470   0.34250   0.24490   1.000
    H50     H    0.46340   0.16370   0.23260   1.000
    C59     C    0.52270   0.69917   0.35960   1.000
    C60     C    0.52506   0.80028   0.35310   1.000
    H51     H    0.53530   0.65750   0.24490   1.000
    H52     H    0.53660   0.83630   0.23260   1.000
    C61     C    0.69917   0.47730   0.35960   1.000
    C62     C    0.80028   0.47494   0.35310   1.000
    H53     H    0.65750   0.46470   0.24490   1.000
    H54     H    0.83630   0.46340   0.23260   1.000
    C63     C    0.30083   0.52270   0.35960   1.000
    C64     C    0.19972   0.52506   0.35310   1.000
    H55     H    0.34250   0.53530   0.24490   1.000
    H56     H    0.16370   0.53660   0.23260   1.000
    C65     C    0.52270   0.30083   0.64040   1.000
    C66     C    0.52506   0.19972   0.64690   1.000
    H57     H    0.53530   0.34250   0.75510   1.000
    H58     H    0.53660   0.16370   0.76740   1.000
    C67     C    0.47730   0.69917   0.64040   1.000
    C68     C    0.47494   0.80028   0.64690   1.000
    H59     H    0.46470   0.65750   0.75510   1.000
    H60     H    0.46340   0.83630   0.76740   1.000
    C69     C    0.30083   0.47730   0.64040   1.000
    C70     C    0.19972   0.47494   0.64690   1.000
    H61     H    0.34250   0.46470   0.75510   1.000
    H62     H    0.16370   0.46340   0.76740   1.000
    C71     C    0.69917   0.52270   0.64040   1.000
    C72     C    0.80028   0.52506   0.64690   1.000
    H63     H    0.65750   0.53530   0.75510   1.000
    H64     H    0.83630   0.53660   0.76740   1.000
    C73     C    0.50000   0.85210   0.50000   1.000
    C74     C    0.50000   0.95530   0.50000   1.000
    N5      N    0.50000   0.64897   0.50000   1.000
    C75     C    0.50000   0.14790   0.50000   1.000
    C76     C    0.50000   0.04470   0.50000   1.000
    N6      N    0.50000   0.35103   0.50000   1.000
    C77     C    0.14790   0.50000   0.50000   1.000
    C78     C    0.04470   0.50000   0.50000   1.000
    N7      N    0.35103   0.50000   0.50000   1.000
    C79     C    0.85210   0.50000   0.50000   1.000
    C80     C    0.95530   0.50000   0.50000   1.000
    N8      N    0.64897   0.50000   0.50000   1.000
    Cu2     Cu   0.50000   0.50000   0.50000   1.000
