# CIF file generated by openbabel 2.4.1, see http://openbabel.sf.net
data_I
_chemical_name_common 'image0'
_cell_length_a 40.633
_cell_length_b 40.633
_cell_length_c 18.232
_cell_angle_alpha 90
_cell_angle_beta 90
_cell_angle_gamma 120
_space_group_name_H-M_alt 'P 1'
_space_group_name_Hall 'P 1'
loop_
    _symmetry_equiv_pos_as_xyz
    x,y,z
loop_
    _atom_site_label
    _atom_site_type_symbol
    _atom_site_fract_x
    _atom_site_fract_y
    _atom_site_fract_z
    _atom_site_occupancy
    Zn1     Zn   0.39718   0.02268   0.33504   1.000
    O1      O    0.38413   0.04678   0.41119   1.000
    O2      O    0.41480   0.10431   0.35910   1.000
    C1      C    0.39797   0.08209   0.41090   1.000
    C2      C    0.39317   0.09832   0.48340   1.000
    C3      C    0.37406   0.07523   0.54270   1.000
    H1      H    0.36330   0.04870   0.53900   1.000
    C4      C    0.37098   0.09138   0.60720   1.000
    H2      H    0.35770   0.07540   0.64680   1.000
    C5      C    0.38720   0.13098   0.61550   1.000
    C6      C    0.40730   0.15469   0.55500   1.000
    H3      H    0.41970   0.18130   0.55870   1.000
    C7      C    0.40810   0.13664   0.48900   1.000
    H4      H    0.41940   0.15170   0.44730   1.000
    C8      C    0.38504   0.14822   0.68430   1.000
    C9      C    0.38281   0.18130   0.68460   1.000
    H5      H    0.38150   0.19190   0.63960   1.000
    C10     C    0.37990   0.25130   0.69010   1.000
    H6      H    0.37910   0.23960   0.64510   1.000
    C11     C    0.37950   0.28528   0.68790   1.000
    H7      H    0.38020   0.29680   0.64280   1.000
    O3      O    0.37691   0.35221   0.68836   1.000
    O4      O    0.43066   0.00983   0.38754   1.000
    O5      O    0.48693   0.04279   0.33408   1.000
    C12     C    0.46590   0.02256   0.38410   1.000
    C13     C    0.48340   0.00920   0.44280   1.000
    C14     C    0.46100   0.98440   0.49240   1.000
    C15     C    0.52160   0.02450   0.44680   1.000
    C16     C    0.57457   0.19002   0.28137   1.000
    H8      H    0.57720   0.16960   0.29840   1.000
    C17     C    0.60474   0.22702   0.28750   1.000
    H9      H    0.62770   0.23160   0.30870   1.000
    C18     C    0.60089   0.25720   0.26230   1.000
    C19     C    0.56687   0.25040   0.23090   1.000
    H10     H    0.56430   0.27080   0.21390   1.000
    C20     C    0.53670   0.21340   0.22479   1.000
    H11     H    0.51370   0.20880   0.20360   1.000
    C21     C    0.63703   0.29883   0.24860   1.000
    C22     C    0.62975   0.32811   0.22940   1.000
    Zn2     Zn   0.97732   0.37450   0.33504   1.000
    O6      O    0.95322   0.33735   0.41119   1.000
    O7      O    0.89569   0.31049   0.35910   1.000
    C23     C    0.91791   0.31588   0.41090   1.000
    C24     C    0.90168   0.29485   0.48340   1.000
    C25     C    0.92477   0.29883   0.54270   1.000
    H12     H    0.95130   0.31460   0.53900   1.000
    C26     C    0.90862   0.27960   0.60720   1.000
    H13     H    0.92460   0.28230   0.64680   1.000
    C27     C    0.86902   0.25622   0.61550   1.000
    C28     C    0.84531   0.25261   0.55500   1.000
    H14     H    0.81870   0.23840   0.55870   1.000
    C29     C    0.86336   0.27146   0.48900   1.000
    H15     H    0.84830   0.26770   0.44730   1.000
    C30     C    0.85178   0.23682   0.68430   1.000
    C31     C    0.81870   0.20151   0.68460   1.000
    H16     H    0.80810   0.18960   0.63960   1.000
    C32     C    0.74870   0.12860   0.69010   1.000
    H17     H    0.76040   0.13950   0.64510   1.000
    C33     C    0.71472   0.09422   0.68790   1.000
    H18     H    0.70320   0.08340   0.64280   1.000
    O8      O    0.64779   0.02470   0.68836   1.000
    O9      O    0.99017   0.42083   0.38754   1.000
    O10     O    0.95721   0.44414   0.33408   1.000
    C34     C    0.97744   0.44334   0.38410   1.000
    C35     C    0.99080   0.47420   0.44280   1.000
    C36     C    0.01560   0.47660   0.49240   1.000
    C37     C    0.97550   0.49710   0.44680   1.000
    C38     C    0.80998   0.38455   0.28137   1.000
    H19     H    0.83040   0.40760   0.29840   1.000
    C39     C    0.77298   0.37772   0.28750   1.000
    H20     H    0.76840   0.39610   0.30870   1.000
    C40     C    0.74280   0.34369   0.26230   1.000
    C41     C    0.74960   0.31647   0.23090   1.000
    H21     H    0.72920   0.29350   0.21390   1.000
    C42     C    0.78660   0.32330   0.22479   1.000
    H22     H    0.79120   0.30490   0.20360   1.000
    C43     C    0.70117   0.33820   0.24860   1.000
    C44     C    0.67189   0.30164   0.22940   1.000
    Zn3     Zn   0.62550   0.60282   0.33504   1.000
    O11     O    0.66265   0.61587   0.41119   1.000
    O12     O    0.68951   0.58520   0.35910   1.000
    C45     C    0.68412   0.60203   0.41090   1.000
    C46     C    0.70515   0.60683   0.48340   1.000
    C47     C    0.70117   0.62594   0.54270   1.000
    H23     H    0.68540   0.63670   0.53900   1.000
    C48     C    0.72040   0.62902   0.60720   1.000
    H24     H    0.71770   0.64230   0.64680   1.000
    C49     C    0.74378   0.61280   0.61550   1.000
    C50     C    0.74739   0.59270   0.55500   1.000
    H25     H    0.76160   0.58030   0.55870   1.000
    C51     C    0.72854   0.59190   0.48900   1.000
    H26     H    0.73230   0.58060   0.44730   1.000
    C52     C    0.76318   0.61496   0.68430   1.000
    C53     C    0.79849   0.61719   0.68460   1.000
    H27     H    0.81040   0.61850   0.63960   1.000
    C54     C    0.87140   0.62010   0.69010   1.000
    H28     H    0.86050   0.62090   0.64510   1.000
    C55     C    0.90578   0.62050   0.68790   1.000
    H29     H    0.91660   0.61980   0.64280   1.000
    O13     O    0.97530   0.62309   0.68836   1.000
    O14     O    0.57917   0.56934   0.38754   1.000
    O15     O    0.55586   0.51307   0.33408   1.000
    C56     C    0.55666   0.53410   0.38410   1.000
    C57     C    0.52580   0.51660   0.44280   1.000
    C58     C    0.52340   0.53900   0.49240   1.000
    C59     C    0.50290   0.47840   0.44680   1.000
    C60     C    0.61545   0.42543   0.28137   1.000
    H30     H    0.59240   0.42280   0.29840   1.000
    C61     C    0.62228   0.39526   0.28750   1.000
    H31     H    0.60390   0.37230   0.30870   1.000
    C62     C    0.65631   0.39911   0.26230   1.000
    C63     C    0.68353   0.43313   0.23090   1.000
    H32     H    0.70650   0.43570   0.21390   1.000
    C64     C    0.67670   0.46330   0.22479   1.000
    H33     H    0.69510   0.48630   0.20360   1.000
    C65     C    0.66180   0.36297   0.24860   1.000
    C66     C    0.69836   0.37025   0.22940   1.000
    Zn4     Zn   0.60282   0.97732   0.83504   1.000
    O16     O    0.61587   0.95322   0.91119   1.000
    O17     O    0.58520   0.89569   0.85910   1.000
    C67     C    0.60203   0.91791   0.91090   1.000
    C68     C    0.60683   0.90168   0.98340   1.000
    C69     C    0.62594   0.92477   0.04270   1.000
    H34     H    0.63670   0.95130   0.03900   1.000
    C70     C    0.62902   0.90862   0.10720   1.000
    H35     H    0.64230   0.92460   0.14680   1.000
    C71     C    0.61280   0.86902   0.11550   1.000
    C72     C    0.59270   0.84531   0.05500   1.000
    H36     H    0.58030   0.81870   0.05870   1.000
    C73     C    0.59190   0.86336   0.98900   1.000
    H37     H    0.58060   0.84830   0.94730   1.000
    C74     C    0.61496   0.85178   0.18430   1.000
    C75     C    0.61719   0.81870   0.18460   1.000
    H38     H    0.61850   0.80810   0.13960   1.000
    C76     C    0.62010   0.74870   0.19010   1.000
    H39     H    0.62090   0.76040   0.14510   1.000
    C77     C    0.62050   0.71472   0.18790   1.000
    H40     H    0.61980   0.70320   0.14280   1.000
    O18     O    0.62309   0.64779   0.18836   1.000
    O19     O    0.56934   0.99017   0.88754   1.000
    O20     O    0.51307   0.95721   0.83408   1.000
    C78     C    0.53410   0.97744   0.88410   1.000
    C79     C    0.51660   0.99080   0.94280   1.000
    C80     C    0.53900   0.01560   0.99240   1.000
    C81     C    0.47840   0.97550   0.94680   1.000
    C82     C    0.42543   0.80998   0.78137   1.000
    H41     H    0.42280   0.83040   0.79840   1.000
    C83     C    0.39526   0.77298   0.78750   1.000
    H42     H    0.37230   0.76840   0.80870   1.000
    C84     C    0.39911   0.74280   0.76230   1.000
    C85     C    0.43313   0.74960   0.73090   1.000
    H43     H    0.43570   0.72920   0.71390   1.000
    C86     C    0.46330   0.78660   0.72479   1.000
    H44     H    0.48630   0.79120   0.70360   1.000
    C87     C    0.36297   0.70117   0.74860   1.000
    C88     C    0.37025   0.67189   0.72940   1.000
    Zn5     Zn   0.02268   0.62550   0.83504   1.000
    O21     O    0.04678   0.66265   0.91119   1.000
    O22     O    0.10431   0.68951   0.85910   1.000
    C89     C    0.08209   0.68412   0.91090   1.000
    C90     C    0.09832   0.70515   0.98340   1.000
    C91     C    0.07523   0.70117   0.04270   1.000
    H45     H    0.04870   0.68540   0.03900   1.000
    C92     C    0.09138   0.72040   0.10720   1.000
    H46     H    0.07540   0.71770   0.14680   1.000
    C93     C    0.13098   0.74378   0.11550   1.000
    C94     C    0.15469   0.74739   0.05500   1.000
    H47     H    0.18130   0.76160   0.05870   1.000
    C95     C    0.13664   0.72854   0.98900   1.000
    H48     H    0.15170   0.73230   0.94730   1.000
    C96     C    0.14822   0.76318   0.18430   1.000
    C97     C    0.18130   0.79849   0.18460   1.000
    H49     H    0.19190   0.81040   0.13960   1.000
    C98     C    0.25130   0.87140   0.19010   1.000
    H50     H    0.23960   0.86050   0.14510   1.000
    C99     C    0.28528   0.90578   0.18790   1.000
    H51     H    0.29680   0.91660   0.14280   1.000
    O23     O    0.35221   0.97530   0.18836   1.000
    O24     O    0.00983   0.57917   0.88754   1.000
    O25     O    0.04279   0.55586   0.83408   1.000
    C100    C    0.02256   0.55666   0.88410   1.000
    C101    C    0.00920   0.52580   0.94280   1.000
    C102    C    0.98440   0.52340   0.99240   1.000
    C103    C    0.02450   0.50290   0.94680   1.000
    C104    C    0.19002   0.61545   0.78137   1.000
    H52     H    0.16960   0.59240   0.79840   1.000
    C105    C    0.22702   0.62228   0.78750   1.000
    H53     H    0.23160   0.60390   0.80870   1.000
    C106    C    0.25720   0.65631   0.76230   1.000
    C107    C    0.25040   0.68353   0.73090   1.000
    H54     H    0.27080   0.70650   0.71390   1.000
    C108    C    0.21340   0.67670   0.72479   1.000
    H55     H    0.20880   0.69510   0.70360   1.000
    C109    C    0.29883   0.66180   0.74860   1.000
    C110    C    0.32811   0.69836   0.72940   1.000
    Zn6     Zn   0.37450   0.39718   0.83504   1.000
    O26     O    0.33735   0.38413   0.91119   1.000
    O27     O    0.31049   0.41480   0.85910   1.000
    C111    C    0.31588   0.39797   0.91090   1.000
    C112    C    0.29485   0.39317   0.98340   1.000
    C113    C    0.29883   0.37406   0.04270   1.000
    H56     H    0.31460   0.36330   0.03900   1.000
    C114    C    0.27960   0.37098   0.10720   1.000
    H57     H    0.28230   0.35770   0.14680   1.000
    C115    C    0.25622   0.38720   0.11550   1.000
    C116    C    0.25261   0.40730   0.05500   1.000
    H58     H    0.23840   0.41970   0.05870   1.000
    C117    C    0.27146   0.40810   0.98900   1.000
    H59     H    0.26770   0.41940   0.94730   1.000
    C118    C    0.23682   0.38504   0.18430   1.000
    C119    C    0.20151   0.38281   0.18460   1.000
    H60     H    0.18960   0.38150   0.13960   1.000
    C120    C    0.12860   0.37990   0.19010   1.000
    H61     H    0.13950   0.37910   0.14510   1.000
    C121    C    0.09422   0.37950   0.18790   1.000
    H62     H    0.08340   0.38020   0.14280   1.000
    O28     O    0.02470   0.37691   0.18836   1.000
    O29     O    0.42083   0.43066   0.88754   1.000
    O30     O    0.44414   0.48693   0.83408   1.000
    C122    C    0.44334   0.46590   0.88410   1.000
    C123    C    0.47420   0.48340   0.94280   1.000
    C124    C    0.47660   0.46100   0.99240   1.000
    C125    C    0.49710   0.52160   0.94680   1.000
    C126    C    0.38455   0.57457   0.78137   1.000
    H63     H    0.40760   0.57720   0.79840   1.000
    C127    C    0.37772   0.60474   0.78750   1.000
    H64     H    0.39610   0.62770   0.80870   1.000
    C128    C    0.34369   0.60089   0.76230   1.000
    C129    C    0.31647   0.56687   0.73090   1.000
    H65     H    0.29350   0.56430   0.71390   1.000
    C130    C    0.32330   0.53670   0.72479   1.000
    H66     H    0.30490   0.51370   0.70360   1.000
    C131    C    0.33820   0.63703   0.74860   1.000
    C132    C    0.30164   0.62975   0.72940   1.000
    Zn7     Zn   0.60282   0.97732   0.66496   1.000
    O31     O    0.61587   0.95322   0.58881   1.000
    O32     O    0.58520   0.89569   0.64090   1.000
    C133    C    0.60203   0.91791   0.58910   1.000
    C134    C    0.60683   0.90168   0.51660   1.000
    C135    C    0.62594   0.92477   0.45730   1.000
    H67     H    0.63670   0.95130   0.46100   1.000
    C136    C    0.62902   0.90862   0.39280   1.000
    H68     H    0.64230   0.92460   0.35320   1.000
    C137    C    0.61280   0.86902   0.38450   1.000
    C138    C    0.59270   0.84531   0.44500   1.000
    H69     H    0.58030   0.81870   0.44130   1.000
    C139    C    0.59190   0.86336   0.51100   1.000
    H70     H    0.58060   0.84830   0.55270   1.000
    C140    C    0.61496   0.85178   0.31570   1.000
    C141    C    0.61719   0.81870   0.31540   1.000
    H71     H    0.61850   0.80810   0.36040   1.000
    C142    C    0.62010   0.74870   0.30990   1.000
    H72     H    0.62090   0.76040   0.35490   1.000
    C143    C    0.62050   0.71472   0.31210   1.000
    H73     H    0.61980   0.70320   0.35720   1.000
    O33     O    0.62309   0.64779   0.31164   1.000
    O34     O    0.56934   0.99017   0.61246   1.000
    O35     O    0.51307   0.95721   0.66592   1.000
    C144    C    0.53410   0.97744   0.61590   1.000
    C145    C    0.51660   0.99080   0.55720   1.000
    C146    C    0.53900   0.01560   0.50760   1.000
    C147    C    0.47840   0.97550   0.55320   1.000
    C148    C    0.42543   0.80998   0.71863   1.000
    H74     H    0.42280   0.83040   0.70160   1.000
    C149    C    0.39526   0.77298   0.71250   1.000
    H75     H    0.37230   0.76840   0.69130   1.000
    C150    C    0.39911   0.74280   0.73770   1.000
    C151    C    0.43313   0.74960   0.76910   1.000
    H76     H    0.43570   0.72920   0.78610   1.000
    C152    C    0.46330   0.78660   0.77521   1.000
    H77     H    0.48630   0.79120   0.79640   1.000
    C153    C    0.36297   0.70117   0.75140   1.000
    C154    C    0.37025   0.67189   0.77060   1.000
    Zn8     Zn   0.02268   0.62550   0.66496   1.000
    O36     O    0.04678   0.66265   0.58881   1.000
    O37     O    0.10431   0.68951   0.64090   1.000
    C155    C    0.08209   0.68412   0.58910   1.000
    C156    C    0.09832   0.70515   0.51660   1.000
    C157    C    0.07523   0.70117   0.45730   1.000
    H78     H    0.04870   0.68540   0.46100   1.000
    C158    C    0.09138   0.72040   0.39280   1.000
    H79     H    0.07540   0.71770   0.35320   1.000
    C159    C    0.13098   0.74378   0.38450   1.000
    C160    C    0.15469   0.74739   0.44500   1.000
    H80     H    0.18130   0.76160   0.44130   1.000
    C161    C    0.13664   0.72854   0.51100   1.000
    H81     H    0.15170   0.73230   0.55270   1.000
    C162    C    0.14822   0.76318   0.31570   1.000
    C163    C    0.18130   0.79849   0.31540   1.000
    H82     H    0.19190   0.81040   0.36040   1.000
    C164    C    0.25130   0.87140   0.30990   1.000
    H83     H    0.23960   0.86050   0.35490   1.000
    C165    C    0.28528   0.90578   0.31210   1.000
    H84     H    0.29680   0.91660   0.35720   1.000
    O38     O    0.35221   0.97530   0.31164   1.000
    O39     O    0.00983   0.57917   0.61246   1.000
    O40     O    0.04279   0.55586   0.66592   1.000
    C166    C    0.02256   0.55666   0.61590   1.000
    C167    C    0.00920   0.52580   0.55720   1.000
    C168    C    0.98440   0.52340   0.50760   1.000
    C169    C    0.02450   0.50290   0.55320   1.000
    C170    C    0.19002   0.61545   0.71863   1.000
    H85     H    0.16960   0.59240   0.70160   1.000
    C171    C    0.22702   0.62228   0.71250   1.000
    H86     H    0.23160   0.60390   0.69130   1.000
    C172    C    0.25720   0.65631   0.73770   1.000
    C173    C    0.25040   0.68353   0.76910   1.000
    H87     H    0.27080   0.70650   0.78610   1.000
    C174    C    0.21340   0.67670   0.77521   1.000
    H88     H    0.20880   0.69510   0.79640   1.000
    C175    C    0.29883   0.66180   0.75140   1.000
    C176    C    0.32811   0.69836   0.77060   1.000
    Zn9     Zn   0.37450   0.39718   0.66496   1.000
    O41     O    0.33735   0.38413   0.58881   1.000
    O42     O    0.31049   0.41480   0.64090   1.000
    C177    C    0.31588   0.39797   0.58910   1.000
    C178    C    0.29485   0.39317   0.51660   1.000
    C179    C    0.29883   0.37406   0.45730   1.000
    H89     H    0.31460   0.36330   0.46100   1.000
    C180    C    0.27960   0.37098   0.39280   1.000
    H90     H    0.28230   0.35770   0.35320   1.000
    C181    C    0.25622   0.38720   0.38450   1.000
    C182    C    0.25261   0.40730   0.44500   1.000
    H91     H    0.23840   0.41970   0.44130   1.000
    C183    C    0.27146   0.40810   0.51100   1.000
    H92     H    0.26770   0.41940   0.55270   1.000
    C184    C    0.23682   0.38504   0.31570   1.000
    C185    C    0.20151   0.38281   0.31540   1.000
    H93     H    0.18960   0.38150   0.36040   1.000
    C186    C    0.12860   0.37990   0.30990   1.000
    H94     H    0.13950   0.37910   0.35490   1.000
    C187    C    0.09422   0.37950   0.31210   1.000
    H95     H    0.08340   0.38020   0.35720   1.000
    O43     O    0.02470   0.37691   0.31164   1.000
    O44     O    0.42083   0.43066   0.61246   1.000
    O45     O    0.44414   0.48693   0.66592   1.000
    C188    C    0.44334   0.46590   0.61590   1.000
    C189    C    0.47420   0.48340   0.55720   1.000
    C190    C    0.47660   0.46100   0.50760   1.000
    C191    C    0.49710   0.52160   0.55320   1.000
    C192    C    0.38455   0.57457   0.71863   1.000
    H96     H    0.40760   0.57720   0.70160   1.000
    C193    C    0.37772   0.60474   0.71250   1.000
    H97     H    0.39610   0.62770   0.69130   1.000
    C194    C    0.34369   0.60089   0.73770   1.000
    C195    C    0.31647   0.56687   0.76910   1.000
    H98     H    0.29350   0.56430   0.78610   1.000
    C196    C    0.32330   0.53670   0.77521   1.000
    H99     H    0.30490   0.51370   0.79640   1.000
    C197    C    0.33820   0.63703   0.75140   1.000
    C198    C    0.30164   0.62975   0.77060   1.000
    Zn10    Zn   0.39718   0.02268   0.16496   1.000
    O46     O    0.38413   0.04678   0.08881   1.000
    O47     O    0.41480   0.10431   0.14090   1.000
    C199    C    0.39797   0.08209   0.08910   1.000
    C200    C    0.39317   0.09832   0.01660   1.000
    C201    C    0.37406   0.07523   0.95730   1.000
    H100    H    0.36330   0.04870   0.96100   1.000
    C202    C    0.37098   0.09138   0.89280   1.000
    H101    H    0.35770   0.07540   0.85320   1.000
    C203    C    0.38720   0.13098   0.88450   1.000
    C204    C    0.40730   0.15469   0.94500   1.000
    H102    H    0.41970   0.18130   0.94130   1.000
    C205    C    0.40810   0.13664   0.01100   1.000
    H103    H    0.41940   0.15170   0.05270   1.000
    C206    C    0.38504   0.14822   0.81570   1.000
    C207    C    0.38281   0.18130   0.81540   1.000
    H104    H    0.38150   0.19190   0.86040   1.000
    C208    C    0.37990   0.25130   0.80990   1.000
    H105    H    0.37910   0.23960   0.85490   1.000
    C209    C    0.37950   0.28528   0.81210   1.000
    H106    H    0.38020   0.29680   0.85720   1.000
    O48     O    0.37691   0.35221   0.81164   1.000
    O49     O    0.43066   0.00983   0.11246   1.000
    O50     O    0.48693   0.04279   0.16592   1.000
    C210    C    0.46590   0.02256   0.11590   1.000
    C211    C    0.48340   0.00920   0.05720   1.000
    C212    C    0.46100   0.98440   0.00760   1.000
    C213    C    0.52160   0.02450   0.05320   1.000
    C214    C    0.57457   0.19002   0.21863   1.000
    H107    H    0.57720   0.16960   0.20160   1.000
    C215    C    0.60474   0.22702   0.21250   1.000
    H108    H    0.62770   0.23160   0.19130   1.000
    C216    C    0.60089   0.25720   0.23770   1.000
    C217    C    0.56687   0.25040   0.26910   1.000
    H109    H    0.56430   0.27080   0.28610   1.000
    C218    C    0.53670   0.21340   0.27521   1.000
    H110    H    0.51370   0.20880   0.29640   1.000
    C219    C    0.63703   0.29883   0.25140   1.000
    C220    C    0.62975   0.32811   0.27060   1.000
    Zn11    Zn   0.97732   0.37450   0.16496   1.000
    O51     O    0.95322   0.33735   0.08881   1.000
    O52     O    0.89569   0.31049   0.14090   1.000
    C221    C    0.91791   0.31588   0.08910   1.000
    C222    C    0.90168   0.29485   0.01660   1.000
    C223    C    0.92477   0.29883   0.95730   1.000
    H111    H    0.95130   0.31460   0.96100   1.000
    C224    C    0.90862   0.27960   0.89280   1.000
    H112    H    0.92460   0.28230   0.85320   1.000
    C225    C    0.86902   0.25622   0.88450   1.000
    C226    C    0.84531   0.25261   0.94500   1.000
    H113    H    0.81870   0.23840   0.94130   1.000
    C227    C    0.86336   0.27146   0.01100   1.000
    H114    H    0.84830   0.26770   0.05270   1.000
    C228    C    0.85178   0.23682   0.81570   1.000
    C229    C    0.81870   0.20151   0.81540   1.000
    H115    H    0.80810   0.18960   0.86040   1.000
    C230    C    0.74870   0.12860   0.80990   1.000
    H116    H    0.76040   0.13950   0.85490   1.000
    C231    C    0.71472   0.09422   0.81210   1.000
    H117    H    0.70320   0.08340   0.85720   1.000
    O53     O    0.64779   0.02470   0.81164   1.000
    O54     O    0.99017   0.42083   0.11246   1.000
    O55     O    0.95721   0.44414   0.16592   1.000
    C232    C    0.97744   0.44334   0.11590   1.000
    C233    C    0.99080   0.47420   0.05720   1.000
    C234    C    0.01560   0.47660   0.00760   1.000
    C235    C    0.97550   0.49710   0.05320   1.000
    C236    C    0.80998   0.38455   0.21863   1.000
    H118    H    0.83040   0.40760   0.20160   1.000
    C237    C    0.77298   0.37772   0.21250   1.000
    H119    H    0.76840   0.39610   0.19130   1.000
    C238    C    0.74280   0.34369   0.23770   1.000
    C239    C    0.74960   0.31647   0.26910   1.000
    H120    H    0.72920   0.29350   0.28610   1.000
    C240    C    0.78660   0.32330   0.27521   1.000
    H121    H    0.79120   0.30490   0.29640   1.000
    C241    C    0.70117   0.33820   0.25140   1.000
    C242    C    0.67189   0.30164   0.27060   1.000
    Zn12    Zn   0.62550   0.60282   0.16496   1.000
    O56     O    0.66265   0.61587   0.08881   1.000
    O57     O    0.68951   0.58520   0.14090   1.000
    C243    C    0.68412   0.60203   0.08910   1.000
    C244    C    0.70515   0.60683   0.01660   1.000
    C245    C    0.70117   0.62594   0.95730   1.000
    H122    H    0.68540   0.63670   0.96100   1.000
    C246    C    0.72040   0.62902   0.89280   1.000
    H123    H    0.71770   0.64230   0.85320   1.000
    C247    C    0.74378   0.61280   0.88450   1.000
    C248    C    0.74739   0.59270   0.94500   1.000
    H124    H    0.76160   0.58030   0.94130   1.000
    C249    C    0.72854   0.59190   0.01100   1.000
    H125    H    0.73230   0.58060   0.05270   1.000
    C250    C    0.76318   0.61496   0.81570   1.000
    C251    C    0.79849   0.61719   0.81540   1.000
    H126    H    0.81040   0.61850   0.86040   1.000
    C252    C    0.87140   0.62010   0.80990   1.000
    H127    H    0.86050   0.62090   0.85490   1.000
    C253    C    0.90578   0.62050   0.81210   1.000
    H128    H    0.91660   0.61980   0.85720   1.000
    O58     O    0.97530   0.62309   0.81164   1.000
    O59     O    0.57917   0.56934   0.11246   1.000
    O60     O    0.55586   0.51307   0.16592   1.000
    C254    C    0.55666   0.53410   0.11590   1.000
    C255    C    0.52580   0.51660   0.05720   1.000
    C256    C    0.52340   0.53900   0.00760   1.000
    C257    C    0.50290   0.47840   0.05320   1.000
    C258    C    0.61545   0.42543   0.21863   1.000
    H129    H    0.59240   0.42280   0.20160   1.000
    C259    C    0.62228   0.39526   0.21250   1.000
    H130    H    0.60390   0.37230   0.19130   1.000
    C260    C    0.65631   0.39911   0.23770   1.000
    C261    C    0.68353   0.43313   0.26910   1.000
    H131    H    0.70650   0.43570   0.28610   1.000
    C262    C    0.67670   0.46330   0.27521   1.000
    H132    H    0.69510   0.48630   0.29640   1.000
    C263    C    0.66180   0.36297   0.25140   1.000
    C264    C    0.69836   0.37025   0.27060   1.000
    Zn13    Zn   0.47461   0.06364   0.25000   1.000
    Zn14    Zn   0.41861   0.09928   0.25000   1.000
    O61     O    0.42315   0.05261   0.25000   1.000
    O62     O    0.51280   0.11677   0.25000   1.000
    O63     O    0.47349   0.14009   0.25000   1.000
    C265    C    0.50510   0.14281   0.25000   1.000
    C266    C    0.54055   0.18322   0.25000   1.000
    Zn15    Zn   0.93636   0.41097   0.25000   1.000
    Zn16    Zn   0.90072   0.31933   0.25000   1.000
    O64     O    0.94739   0.37054   0.25000   1.000
    O65     O    0.88323   0.39603   0.25000   1.000
    O66     O    0.85991   0.33340   0.25000   1.000
    C267    C    0.85719   0.36229   0.25000   1.000
    C268    C    0.81678   0.35733   0.25000   1.000
    Zn17    Zn   0.58903   0.52539   0.25000   1.000
    Zn18    Zn   0.68067   0.58139   0.25000   1.000
    O67     O    0.62946   0.57685   0.25000   1.000
    O68     O    0.60397   0.48720   0.25000   1.000
    O69     O    0.66660   0.52651   0.25000   1.000
    C269    C    0.63771   0.49490   0.25000   1.000
    C270    C    0.64267   0.45945   0.25000   1.000
    Zn19    Zn   0.52539   0.93636   0.75000   1.000
    Zn20    Zn   0.58139   0.90072   0.75000   1.000
    O70     O    0.57685   0.94739   0.75000   1.000
    O71     O    0.48720   0.88323   0.75000   1.000
    O72     O    0.52651   0.85991   0.75000   1.000
    C271    C    0.49490   0.85719   0.75000   1.000
    C272    C    0.45945   0.81678   0.75000   1.000
    Zn21    Zn   0.06364   0.58903   0.75000   1.000
    Zn22    Zn   0.09928   0.68067   0.75000   1.000
    O73     O    0.05261   0.62946   0.75000   1.000
    O74     O    0.11677   0.60397   0.75000   1.000
    O75     O    0.14009   0.66660   0.75000   1.000
    C273    C    0.14281   0.63771   0.75000   1.000
    C274    C    0.18322   0.64267   0.75000   1.000
    Zn23    Zn   0.41097   0.47461   0.75000   1.000
    Zn24    Zn   0.31933   0.41861   0.75000   1.000
    O76     O    0.37054   0.42315   0.75000   1.000
    O77     O    0.39603   0.51280   0.75000   1.000
    O78     O    0.33340   0.47349   0.75000   1.000
    C275    C    0.36229   0.50510   0.75000   1.000
    C276    C    0.35733   0.54055   0.75000   1.000
    C277    C    0.38580   0.13120   0.75000   1.000
    H133    H    0.38690   0.10860   0.75000   1.000
    C278    C    0.38250   0.19930   0.75000   1.000
    C279    C    0.38150   0.23460   0.75000   1.000
    C280    C    0.37800   0.30100   0.75000   1.000
    C281    C    0.37800   0.33770   0.75000   1.000
    C282    C    0.86880   0.25460   0.75000   1.000
    H134    H    0.89140   0.27830   0.75000   1.000
    C283    C    0.80070   0.18320   0.75000   1.000
    C284    C    0.76540   0.14690   0.75000   1.000
    C285    C    0.69900   0.07700   0.75000   1.000
    C286    C    0.66230   0.04030   0.75000   1.000
    C287    C    0.74540   0.61420   0.75000   1.000
    H135    H    0.72170   0.61310   0.75000   1.000
    C288    C    0.81680   0.61750   0.75000   1.000
    C289    C    0.85310   0.61850   0.75000   1.000
    C290    C    0.92300   0.62200   0.75000   1.000
    C291    C    0.95970   0.62200   0.75000   1.000
    C292    C    0.61420   0.86880   0.25000   1.000
    H136    H    0.61310   0.89140   0.25000   1.000
    C293    C    0.61750   0.80070   0.25000   1.000
    C294    C    0.61850   0.76540   0.25000   1.000
    C295    C    0.62200   0.69900   0.25000   1.000
    C296    C    0.62200   0.66230   0.25000   1.000
    C297    C    0.13120   0.74540   0.25000   1.000
    H137    H    0.10860   0.72170   0.25000   1.000
    C298    C    0.19930   0.81680   0.25000   1.000
    C299    C    0.23460   0.85310   0.25000   1.000
    C300    C    0.30100   0.92300   0.25000   1.000
    C301    C    0.33770   0.95970   0.25000   1.000
    C302    C    0.25460   0.38580   0.25000   1.000
    H138    H    0.27830   0.38690   0.25000   1.000
    C303    C    0.18320   0.38250   0.25000   1.000
    C304    C    0.14690   0.38150   0.25000   1.000
    C305    C    0.07700   0.37800   0.25000   1.000
    C306    C    0.04030   0.37800   0.25000   1.000
