# CIF file generated by openbabel 2.4.1, see http://openbabel.sf.net
data_I
_chemical_name_common 'image0'
_cell_length_a 19.895
_cell_length_b 16.077
_cell_length_c 21.851
_cell_angle_alpha 90
_cell_angle_beta 90
_cell_angle_gamma 90
_space_group_name_H-M_alt 'P 1'
_space_group_name_Hall 'P 1'
loop_
    _symmetry_equiv_pos_as_xyz
    x,y,z
loop_
    _atom_site_label
    _atom_site_type_symbol
    _atom_site_fract_x
    _atom_site_fract_y
    _atom_site_fract_z
    _atom_site_occupancy
    Zn1     Zn   0.10920   0.66156   0.73249   1.000
    O1      O    0.03980   0.67027   0.80041   1.000
    O2      O    0.03778   0.80306   0.82775   1.000
    O3      O    0.68105   0.67184   0.20160   1.000
    O4      O    0.67974   0.80255   0.17075   1.000
    C1      C    0.02030   0.72830   0.83320   1.000
    C2      C    0.97140   0.70830   0.88350   1.000
    C3      C    0.93960   0.76960   0.91510   1.000
    C4      C    0.96240   0.62420   0.89880   1.000
    H1      H    0.94710   0.82530   0.90600   1.000
    C5      C    0.89590   0.74700   0.96100   1.000
    C6      C    0.91950   0.60290   0.94480   1.000
    H2      H    0.98560   0.58310   0.87750   1.000
    C7      C    0.88470   0.66520   0.97670   1.000
    N1      N    0.85683   0.79660   0.99816   1.000
    H3      H    0.91330   0.54730   0.95500   1.000
    C8      C    0.83890   0.66370   0.02730   1.000
    C9      C    0.82180   0.74710   0.03850   1.000
    H4      H    0.85470   0.85000   0.99640   1.000
    C10     C    0.80900   0.60250   0.06310   1.000
    C11     C    0.77600   0.76930   0.08325   1.000
    C12     C    0.76450   0.62520   0.10700   1.000
    H5      H    0.81940   0.54670   0.05700   1.000
    H6      H    0.76470   0.82470   0.08970   1.000
    C13     C    0.74790   0.70780   0.11774   1.000
    H7      H    0.74450   0.58400   0.13080   1.000
    C14     C    0.69894   0.72900   0.16699   1.000
    N2      N    0.11020   0.53800   0.72820   1.000
    C15     C    0.14700   0.49620   0.70120   1.000
    C16     C    0.07320   0.49340   0.75550   1.000
    H8      H    0.17910   0.52440   0.67830   1.000
    C17     C    0.15040   0.40880   0.69800   1.000
    C18     C    0.07230   0.40580   0.75820   1.000
    H9      H    0.04010   0.52010   0.77820   1.000
    H10     H    0.18180   0.38460   0.67200   1.000
    C19     C    0.11420   0.36400   0.72780   1.000
    H11     H    0.04080   0.37890   0.78260   1.000
    C20     C    0.09570   0.26940   0.71780   1.000
    N3      N    0.10940   0.96340   0.77550   1.000
    C21     C    0.05050   0.00480   0.79110   1.000
    H12     H    0.01200   0.97470   0.80080   1.000
    C22     C    0.04910   0.09120   0.79230   1.000
    H13     H    0.00960   0.11890   0.80270   1.000
    C23     C    0.10650   0.13630   0.77780   1.000
    C24     C    0.16540   0.09490   0.76220   1.000
    H14     H    0.20390   0.12510   0.75250   1.000
    C25     C    0.16690   0.00850   0.76100   1.000
    H15     H    0.20630   0.98080   0.75060   1.000
    H16     H    0.04800   0.24290   0.77990   1.000
    H17     H    0.11240   0.25070   0.82120   1.000
    H18     H    0.17920   0.26680   0.73800   1.000
    H19     H    0.11960   0.24590   0.69370   1.000
    C26     C    0.13120   0.27280   0.73200   1.000
    Zn2     Zn   0.10920   0.83844   0.76751   1.000
    O5      O    0.03980   0.82973   0.69959   1.000
    O6      O    0.03778   0.69694   0.67225   1.000
    O7      O    0.68105   0.82816   0.29840   1.000
    O8      O    0.67974   0.69745   0.32925   1.000
    C27     C    0.02030   0.77170   0.66680   1.000
    C28     C    0.97140   0.79170   0.61650   1.000
    C29     C    0.93960   0.73040   0.58490   1.000
    C30     C    0.96240   0.87580   0.60120   1.000
    H20     H    0.94710   0.67470   0.59400   1.000
    C31     C    0.89590   0.75300   0.53900   1.000
    C32     C    0.91950   0.89710   0.55520   1.000
    H21     H    0.98560   0.91690   0.62250   1.000
    C33     C    0.88470   0.83480   0.52330   1.000
    N4      N    0.85683   0.70340   0.50184   1.000
    H22     H    0.91330   0.95270   0.54500   1.000
    C34     C    0.83890   0.83630   0.47270   1.000
    C35     C    0.82180   0.75290   0.46150   1.000
    H23     H    0.85470   0.65000   0.50360   1.000
    C36     C    0.80900   0.89750   0.43690   1.000
    C37     C    0.77600   0.73070   0.41675   1.000
    C38     C    0.76450   0.87480   0.39300   1.000
    H24     H    0.81940   0.95330   0.44300   1.000
    H25     H    0.76470   0.67530   0.41030   1.000
    C39     C    0.74790   0.79220   0.38226   1.000
    H26     H    0.74450   0.91600   0.36920   1.000
    C40     C    0.69894   0.77100   0.33301   1.000
    N5      N    0.11020   0.96200   0.77180   1.000
    C41     C    0.14700   0.00380   0.79880   1.000
    C42     C    0.07320   0.00660   0.74450   1.000
    H27     H    0.17910   0.97560   0.82170   1.000
    C43     C    0.15040   0.09120   0.80200   1.000
    C44     C    0.07230   0.09420   0.74180   1.000
    H28     H    0.04010   0.97990   0.72180   1.000
    H29     H    0.18180   0.11540   0.82800   1.000
    C45     C    0.11420   0.13600   0.77220   1.000
    H30     H    0.04080   0.12110   0.71740   1.000
    C46     C    0.09570   0.23060   0.78220   1.000
    N6      N    0.10940   0.53660   0.72450   1.000
    C47     C    0.05050   0.49520   0.70890   1.000
    H31     H    0.01200   0.52530   0.69920   1.000
    C48     C    0.04910   0.40880   0.70770   1.000
    H32     H    0.00960   0.38110   0.69730   1.000
    C49     C    0.10650   0.36370   0.72220   1.000
    C50     C    0.16540   0.40510   0.73780   1.000
    H33     H    0.20390   0.37490   0.74750   1.000
    C51     C    0.16690   0.49150   0.73900   1.000
    H34     H    0.20630   0.51920   0.74940   1.000
    H35     H    0.04800   0.25710   0.72010   1.000
    H36     H    0.11240   0.24930   0.67880   1.000
    H37     H    0.17920   0.23320   0.76200   1.000
    H38     H    0.11960   0.25410   0.80630   1.000
    C52     C    0.13120   0.22720   0.76800   1.000
    Zn3     Zn   0.60920   0.66156   0.26751   1.000
    O9      O    0.53980   0.67027   0.19959   1.000
    O10     O    0.53778   0.80306   0.17225   1.000
    O11     O    0.18105   0.67184   0.79840   1.000
    O12     O    0.17974   0.80255   0.82925   1.000
    C53     C    0.52030   0.72830   0.16680   1.000
    C54     C    0.47140   0.70830   0.11650   1.000
    C55     C    0.43960   0.76960   0.08490   1.000
    C56     C    0.46240   0.62420   0.10120   1.000
    H39     H    0.44710   0.82530   0.09400   1.000
    C57     C    0.39590   0.74700   0.03900   1.000
    C58     C    0.41950   0.60290   0.05520   1.000
    H40     H    0.48560   0.58310   0.12250   1.000
    C59     C    0.38470   0.66520   0.02330   1.000
    N7      N    0.35683   0.79660   0.00184   1.000
    H41     H    0.41330   0.54730   0.04500   1.000
    C60     C    0.33890   0.66370   0.97270   1.000
    C61     C    0.32180   0.74710   0.96150   1.000
    H42     H    0.35470   0.85000   0.00360   1.000
    C62     C    0.30900   0.60250   0.93690   1.000
    C63     C    0.27600   0.76930   0.91675   1.000
    C64     C    0.26450   0.62520   0.89300   1.000
    H43     H    0.31940   0.54670   0.94300   1.000
    H44     H    0.26470   0.82470   0.91030   1.000
    C65     C    0.24790   0.70780   0.88226   1.000
    H45     H    0.24450   0.58400   0.86920   1.000
    C66     C    0.19894   0.72900   0.83301   1.000
    N8      N    0.61020   0.53800   0.27180   1.000
    C67     C    0.64700   0.49620   0.29880   1.000
    C68     C    0.57320   0.49340   0.24450   1.000
    H46     H    0.67910   0.52440   0.32170   1.000
    C69     C    0.65040   0.40880   0.30200   1.000
    C70     C    0.57230   0.40580   0.24180   1.000
    H47     H    0.54010   0.52010   0.22180   1.000
    H48     H    0.68180   0.38460   0.32800   1.000
    C71     C    0.61420   0.36400   0.27220   1.000
    H49     H    0.54080   0.37890   0.21740   1.000
    C72     C    0.59570   0.26940   0.28220   1.000
    N9      N    0.60940   0.96340   0.22450   1.000
    C73     C    0.55050   0.00480   0.20890   1.000
    H50     H    0.51200   0.97470   0.19920   1.000
    C74     C    0.54910   0.09120   0.20770   1.000
    H51     H    0.50960   0.11890   0.19730   1.000
    C75     C    0.60650   0.13630   0.22220   1.000
    C76     C    0.66540   0.09490   0.23780   1.000
    H52     H    0.70390   0.12510   0.24750   1.000
    C77     C    0.66690   0.00850   0.23900   1.000
    H53     H    0.70630   0.98080   0.24940   1.000
    H54     H    0.54800   0.24290   0.22010   1.000
    H55     H    0.61240   0.25070   0.17880   1.000
    H56     H    0.67920   0.26680   0.26200   1.000
    H57     H    0.61960   0.24590   0.30630   1.000
    C78     C    0.63120   0.27280   0.26800   1.000
    Zn4     Zn   0.60920   0.83844   0.23249   1.000
    O13     O    0.53980   0.82973   0.30041   1.000
    O14     O    0.53778   0.69694   0.32775   1.000
    O15     O    0.18105   0.82816   0.70160   1.000
    O16     O    0.17974   0.69745   0.67075   1.000
    C79     C    0.52030   0.77170   0.33320   1.000
    C80     C    0.47140   0.79170   0.38350   1.000
    C81     C    0.43960   0.73040   0.41510   1.000
    C82     C    0.46240   0.87580   0.39880   1.000
    H58     H    0.44710   0.67470   0.40600   1.000
    C83     C    0.39590   0.75300   0.46100   1.000
    C84     C    0.41950   0.89710   0.44480   1.000
    H59     H    0.48560   0.91690   0.37750   1.000
    C85     C    0.38470   0.83480   0.47670   1.000
    N10     N    0.35683   0.70340   0.49816   1.000
    H60     H    0.41330   0.95270   0.45500   1.000
    C86     C    0.33890   0.83630   0.52730   1.000
    C87     C    0.32180   0.75290   0.53850   1.000
    H61     H    0.35470   0.65000   0.49640   1.000
    C88     C    0.30900   0.89750   0.56310   1.000
    C89     C    0.27600   0.73070   0.58325   1.000
    C90     C    0.26450   0.87480   0.60700   1.000
    H62     H    0.31940   0.95330   0.55700   1.000
    H63     H    0.26470   0.67530   0.58970   1.000
    C91     C    0.24790   0.79220   0.61774   1.000
    H64     H    0.24450   0.91600   0.63080   1.000
    C92     C    0.19894   0.77100   0.66699   1.000
    N11     N    0.61020   0.96200   0.22820   1.000
    C93     C    0.64700   0.00380   0.20120   1.000
    C94     C    0.57320   0.00660   0.25550   1.000
    H65     H    0.67910   0.97560   0.17830   1.000
    C95     C    0.65040   0.09120   0.19800   1.000
    C96     C    0.57230   0.09420   0.25820   1.000
    H66     H    0.54010   0.97990   0.27820   1.000
    H67     H    0.68180   0.11540   0.17200   1.000
    C97     C    0.61420   0.13600   0.22780   1.000
    H68     H    0.54080   0.12110   0.28260   1.000
    C98     C    0.59570   0.23060   0.21780   1.000
    N12     N    0.60940   0.53660   0.27550   1.000
    C99     C    0.55050   0.49520   0.29110   1.000
    H69     H    0.51200   0.52530   0.30080   1.000
    C100    C    0.54910   0.40880   0.29230   1.000
    H70     H    0.50960   0.38110   0.30270   1.000
    C101    C    0.60650   0.36370   0.27780   1.000
    C102    C    0.66540   0.40510   0.26220   1.000
    H71     H    0.70390   0.37490   0.25250   1.000
    C103    C    0.66690   0.49150   0.26100   1.000
    H72     H    0.70630   0.51920   0.25060   1.000
    H73     H    0.54800   0.25710   0.27990   1.000
    H74     H    0.61240   0.24930   0.32120   1.000
    H75     H    0.67920   0.23320   0.23800   1.000
    H76     H    0.61960   0.25410   0.19370   1.000
    C104    C    0.63120   0.22720   0.23200   1.000
    Zn5     Zn   0.39080   0.33844   0.73249   1.000
    O17     O    0.46020   0.32973   0.80041   1.000
    O18     O    0.46222   0.19694   0.82775   1.000
    O19     O    0.81895   0.32816   0.20160   1.000
    O20     O    0.82026   0.19745   0.17075   1.000
    C105    C    0.47970   0.27170   0.83320   1.000
    C106    C    0.52860   0.29170   0.88350   1.000
    C107    C    0.56040   0.23040   0.91510   1.000
    C108    C    0.53760   0.37580   0.89880   1.000
    H77     H    0.55290   0.17470   0.90600   1.000
    C109    C    0.60410   0.25300   0.96100   1.000
    C110    C    0.58050   0.39710   0.94480   1.000
    H78     H    0.51440   0.41690   0.87750   1.000
    C111    C    0.61530   0.33480   0.97670   1.000
    N13     N    0.64317   0.20340   0.99816   1.000
    H79     H    0.58670   0.45270   0.95500   1.000
    C112    C    0.66110   0.33630   0.02730   1.000
    C113    C    0.67820   0.25290   0.03850   1.000
    H80     H    0.64530   0.15000   0.99640   1.000
    C114    C    0.69100   0.39750   0.06310   1.000
    C115    C    0.72400   0.23070   0.08325   1.000
    C116    C    0.73550   0.37480   0.10700   1.000
    H81     H    0.68060   0.45330   0.05700   1.000
    H82     H    0.73530   0.17530   0.08970   1.000
    C117    C    0.75210   0.29220   0.11774   1.000
    H83     H    0.75550   0.41600   0.13080   1.000
    C118    C    0.80106   0.27100   0.16699   1.000
    N14     N    0.38980   0.46200   0.72820   1.000
    C119    C    0.35300   0.50380   0.70120   1.000
    C120    C    0.42680   0.50660   0.75550   1.000
    H84     H    0.32090   0.47560   0.67830   1.000
    C121    C    0.34960   0.59120   0.69800   1.000
    C122    C    0.42770   0.59420   0.75820   1.000
    H85     H    0.45990   0.47990   0.77820   1.000
    H86     H    0.31820   0.61540   0.67200   1.000
    C123    C    0.38580   0.63600   0.72780   1.000
    H87     H    0.45920   0.62110   0.78260   1.000
    C124    C    0.40430   0.73060   0.71780   1.000
    N15     N    0.39060   0.03660   0.77550   1.000
    C125    C    0.44950   0.99520   0.79110   1.000
    H88     H    0.48800   0.02530   0.80080   1.000
    C126    C    0.45090   0.90880   0.79230   1.000
    H89     H    0.49040   0.88110   0.80270   1.000
    C127    C    0.39350   0.86370   0.77780   1.000
    C128    C    0.33460   0.90510   0.76220   1.000
    H90     H    0.29610   0.87490   0.75250   1.000
    C129    C    0.33310   0.99150   0.76100   1.000
    H91     H    0.29370   0.01920   0.75060   1.000
    H92     H    0.45200   0.75710   0.77990   1.000
    H93     H    0.38760   0.74930   0.82120   1.000
    H94     H    0.32080   0.73320   0.73800   1.000
    H95     H    0.38040   0.75410   0.69370   1.000
    C130    C    0.36880   0.72720   0.73200   1.000
    Zn6     Zn   0.39080   0.16156   0.76751   1.000
    O21     O    0.46020   0.17027   0.69959   1.000
    O22     O    0.46222   0.30306   0.67225   1.000
    O23     O    0.81895   0.17184   0.29840   1.000
    O24     O    0.82026   0.30255   0.32925   1.000
    C131    C    0.47970   0.22830   0.66680   1.000
    C132    C    0.52860   0.20830   0.61650   1.000
    C133    C    0.56040   0.26960   0.58490   1.000
    C134    C    0.53760   0.12420   0.60120   1.000
    H96     H    0.55290   0.32530   0.59400   1.000
    C135    C    0.60410   0.24700   0.53900   1.000
    C136    C    0.58050   0.10290   0.55520   1.000
    H97     H    0.51440   0.08310   0.62250   1.000
    C137    C    0.61530   0.16520   0.52330   1.000
    N16     N    0.64317   0.29660   0.50184   1.000
    H98     H    0.58670   0.04730   0.54500   1.000
    C138    C    0.66110   0.16370   0.47270   1.000
    C139    C    0.67820   0.24710   0.46150   1.000
    H99     H    0.64530   0.35000   0.50360   1.000
    C140    C    0.69100   0.10250   0.43690   1.000
    C141    C    0.72400   0.26930   0.41675   1.000
    C142    C    0.73550   0.12520   0.39300   1.000
    H100    H    0.68060   0.04670   0.44300   1.000
    H101    H    0.73530   0.32470   0.41030   1.000
    C143    C    0.75210   0.20780   0.38226   1.000
    H102    H    0.75550   0.08400   0.36920   1.000
    C144    C    0.80106   0.22900   0.33301   1.000
    N17     N    0.38980   0.03800   0.77180   1.000
    C145    C    0.35300   0.99620   0.79880   1.000
    C146    C    0.42680   0.99340   0.74450   1.000
    H103    H    0.32090   0.02440   0.82170   1.000
    C147    C    0.34960   0.90880   0.80200   1.000
    C148    C    0.42770   0.90580   0.74180   1.000
    H104    H    0.45990   0.02010   0.72180   1.000
    H105    H    0.31820   0.88460   0.82800   1.000
    C149    C    0.38580   0.86400   0.77220   1.000
    H106    H    0.45920   0.87890   0.71740   1.000
    C150    C    0.40430   0.76940   0.78220   1.000
    N18     N    0.39060   0.46340   0.72450   1.000
    C151    C    0.44950   0.50480   0.70890   1.000
    H107    H    0.48800   0.47470   0.69920   1.000
    C152    C    0.45090   0.59120   0.70770   1.000
    H108    H    0.49040   0.61890   0.69730   1.000
    C153    C    0.39350   0.63630   0.72220   1.000
    C154    C    0.33460   0.59490   0.73780   1.000
    H109    H    0.29610   0.62510   0.74750   1.000
    C155    C    0.33310   0.50850   0.73900   1.000
    H110    H    0.29370   0.48080   0.74940   1.000
    H111    H    0.45200   0.74290   0.72010   1.000
    H112    H    0.38760   0.75070   0.67880   1.000
    H113    H    0.32080   0.76680   0.76200   1.000
    H114    H    0.38040   0.74590   0.80630   1.000
    C156    C    0.36880   0.77280   0.76800   1.000
    Zn7     Zn   0.89080   0.33844   0.26751   1.000
    O25     O    0.96020   0.32973   0.19959   1.000
    O26     O    0.96222   0.19694   0.17225   1.000
    O27     O    0.31895   0.32816   0.79840   1.000
    O28     O    0.32026   0.19745   0.82925   1.000
    C157    C    0.97970   0.27170   0.16680   1.000
    C158    C    0.02860   0.29170   0.11650   1.000
    C159    C    0.06040   0.23040   0.08490   1.000
    C160    C    0.03760   0.37580   0.10120   1.000
    H115    H    0.05290   0.17470   0.09400   1.000
    C161    C    0.10410   0.25300   0.03900   1.000
    C162    C    0.08050   0.39710   0.05520   1.000
    H116    H    0.01440   0.41690   0.12250   1.000
    C163    C    0.11530   0.33480   0.02330   1.000
    N19     N    0.14317   0.20340   0.00184   1.000
    H117    H    0.08670   0.45270   0.04500   1.000
    C164    C    0.16110   0.33630   0.97270   1.000
    C165    C    0.17820   0.25290   0.96150   1.000
    H118    H    0.14530   0.15000   0.00360   1.000
    C166    C    0.19100   0.39750   0.93690   1.000
    C167    C    0.22400   0.23070   0.91675   1.000
    C168    C    0.23550   0.37480   0.89300   1.000
    H119    H    0.18060   0.45330   0.94300   1.000
    H120    H    0.23530   0.17530   0.91030   1.000
    C169    C    0.25210   0.29220   0.88226   1.000
    H121    H    0.25550   0.41600   0.86920   1.000
    C170    C    0.30106   0.27100   0.83301   1.000
    N20     N    0.88980   0.46200   0.27180   1.000
    C171    C    0.85300   0.50380   0.29880   1.000
    C172    C    0.92680   0.50660   0.24450   1.000
    H122    H    0.82090   0.47560   0.32170   1.000
    C173    C    0.84960   0.59120   0.30200   1.000
    C174    C    0.92770   0.59420   0.24180   1.000
    H123    H    0.95990   0.47990   0.22180   1.000
    H124    H    0.81820   0.61540   0.32800   1.000
    C175    C    0.88580   0.63600   0.27220   1.000
    H125    H    0.95920   0.62110   0.21740   1.000
    C176    C    0.90430   0.73060   0.28220   1.000
    N21     N    0.89060   0.03660   0.22450   1.000
    C177    C    0.94950   0.99520   0.20890   1.000
    H126    H    0.98800   0.02530   0.19920   1.000
    C178    C    0.95090   0.90880   0.20770   1.000
    H127    H    0.99040   0.88110   0.19730   1.000
    C179    C    0.89350   0.86370   0.22220   1.000
    C180    C    0.83460   0.90510   0.23780   1.000
    H128    H    0.79610   0.87490   0.24750   1.000
    C181    C    0.83310   0.99150   0.23900   1.000
    H129    H    0.79370   0.01920   0.24940   1.000
    H130    H    0.95200   0.75710   0.22010   1.000
    H131    H    0.88760   0.74930   0.17880   1.000
    H132    H    0.82080   0.73320   0.26200   1.000
    H133    H    0.88040   0.75410   0.30630   1.000
    C182    C    0.86880   0.72720   0.26800   1.000
    Zn8     Zn   0.89080   0.16156   0.23249   1.000
    O29     O    0.96020   0.17027   0.30041   1.000
    O30     O    0.96222   0.30306   0.32775   1.000
    O31     O    0.31895   0.17184   0.70160   1.000
    O32     O    0.32026   0.30255   0.67075   1.000
    C183    C    0.97970   0.22830   0.33320   1.000
    C184    C    0.02860   0.20830   0.38350   1.000
    C185    C    0.06040   0.26960   0.41510   1.000
    C186    C    0.03760   0.12420   0.39880   1.000
    H134    H    0.05290   0.32530   0.40600   1.000
    C187    C    0.10410   0.24700   0.46100   1.000
    C188    C    0.08050   0.10290   0.44480   1.000
    H135    H    0.01440   0.08310   0.37750   1.000
    C189    C    0.11530   0.16520   0.47670   1.000
    N22     N    0.14317   0.29660   0.49816   1.000
    H136    H    0.08670   0.04730   0.45500   1.000
    C190    C    0.16110   0.16370   0.52730   1.000
    C191    C    0.17820   0.24710   0.53850   1.000
    H137    H    0.14530   0.35000   0.49640   1.000
    C192    C    0.19100   0.10250   0.56310   1.000
    C193    C    0.22400   0.26930   0.58325   1.000
    C194    C    0.23550   0.12520   0.60700   1.000
    H138    H    0.18060   0.04670   0.55700   1.000
    H139    H    0.23530   0.32470   0.58970   1.000
    C195    C    0.25210   0.20780   0.61774   1.000
    H140    H    0.25550   0.08400   0.63080   1.000
    C196    C    0.30106   0.22900   0.66699   1.000
    N23     N    0.88980   0.03800   0.22820   1.000
    C197    C    0.85300   0.99620   0.20120   1.000
    C198    C    0.92680   0.99340   0.25550   1.000
    H141    H    0.82090   0.02440   0.17830   1.000
    C199    C    0.84960   0.90880   0.19800   1.000
    C200    C    0.92770   0.90580   0.25820   1.000
    H142    H    0.95990   0.02010   0.27820   1.000
    H143    H    0.81820   0.88460   0.17200   1.000
    C201    C    0.88580   0.86400   0.22780   1.000
    H144    H    0.95920   0.87890   0.28260   1.000
    C202    C    0.90430   0.76940   0.21780   1.000
    N24     N    0.89060   0.46340   0.27550   1.000
    C203    C    0.94950   0.50480   0.29110   1.000
    H145    H    0.98800   0.47470   0.30080   1.000
    C204    C    0.95090   0.59120   0.29230   1.000
    H146    H    0.99040   0.61890   0.30270   1.000
    C205    C    0.89350   0.63630   0.27780   1.000
    C206    C    0.83460   0.59490   0.26220   1.000
    H147    H    0.79610   0.62510   0.25250   1.000
    C207    C    0.83310   0.50850   0.26100   1.000
    H148    H    0.79370   0.48080   0.25060   1.000
    H149    H    0.95200   0.74290   0.27990   1.000
    H150    H    0.88760   0.75070   0.32120   1.000
    H151    H    0.82080   0.76680   0.23800   1.000
    H152    H    0.88040   0.74590   0.19370   1.000
    C208    C    0.86880   0.77280   0.23200   1.000
