# CIF file generated by openbabel 2.4.1, see http://openbabel.sf.net
data_I
_chemical_name_common 'DEYDOA_clean'
_cell_length_a 7.199
_cell_length_b 7.569
_cell_length_c 9.541
_cell_angle_alpha 90
_cell_angle_beta 100.3
_cell_angle_gamma 90
_space_group_name_H-M_alt 'P 1'
_space_group_name_Hall 'P 1'
loop_
    _symmetry_equiv_pos_as_xyz
    x,y,z
loop_
    _atom_site_label
    _atom_site_type_symbol
    _atom_site_fract_x
    _atom_site_fract_y
    _atom_site_fract_z
    _atom_site_occupancy
    Cd1     Cd   0.00000   0.00000   0.00000   1.000
    Ni1     Ni   0.50000   0.50000   0.00000   1.000
    H1      H    0.00814   0.11610   0.28422   1.000
    H2      H    0.66997   0.11610   0.20155   1.000
    H3      H    0.79100   0.11610   0.45835   1.000
    H4      H    0.44535   0.11610   0.37177   1.000
    H5      H    0.99186   0.11610   0.71578   1.000
    H6      H    0.33003   0.11610   0.79845   1.000
    H7      H    0.20900   0.11610   0.54165   1.000
    H8      H    0.55465   0.11610   0.62823   1.000
    H9      H    0.99186   0.88390   0.71578   1.000
    H10     H    0.33003   0.88390   0.79845   1.000
    H11     H    0.20900   0.88390   0.54165   1.000
    H12     H    0.55465   0.88390   0.62823   1.000
    H13     H    0.00814   0.88390   0.28422   1.000
    H14     H    0.66997   0.88390   0.20155   1.000
    H15     H    0.79100   0.88390   0.45835   1.000
    H16     H    0.44535   0.88390   0.37177   1.000
    C1      C    0.66500   0.67320   0.95820   1.000
    C2      C    0.33500   0.67320   0.04180   1.000
    C3      C    0.33500   0.32680   0.04180   1.000
    C4      C    0.66500   0.32680   0.95820   1.000
    C5      C    0.74050   0.00000   0.25230   1.000
    C6      C    0.72140   0.00000   0.40680   1.000
    C7      C    0.51400   0.00000   0.42420   1.000
    C8      C    0.25950   0.00000   0.74770   1.000
    C9      C    0.27860   0.00000   0.59320   1.000
    C10     C    0.48600   0.00000   0.57580   1.000
    N1      N    0.76870   0.77890   0.93640   1.000
    N2      N    0.23130   0.77890   0.06360   1.000
    N3      N    0.23130   0.22110   0.06360   1.000
    N4      N    0.76870   0.22110   0.93640   1.000
    N5      N    0.94060   0.00000   0.23080   1.000
    N6      N    0.05940   0.00000   0.76920   1.000
