# CIF file generated by openbabel 2.4.1, see http://openbabel.sf.net
data_I
_chemical_name_common 'WAZRAS_clean'
_cell_length_a 13.251
_cell_length_b 14.068
_cell_length_c 16.138
_cell_angle_alpha 90
_cell_angle_beta 108.287
_cell_angle_gamma 90
_space_group_name_H-M_alt 'P 1'
_space_group_name_Hall 'P 1'
loop_
    _symmetry_equiv_pos_as_xyz
    x,y,z
loop_
    _atom_site_label
    _atom_site_type_symbol
    _atom_site_fract_x
    _atom_site_fract_y
    _atom_site_fract_z
    _atom_site_occupancy
    La1     La   0.38631   0.02276   0.08542   1.000
    La2     La   0.11369   0.52276   0.41458   1.000
    La3     La   0.61369   0.97724   0.91458   1.000
    La4     La   0.88631   0.47724   0.58542   1.000
    B1      B    0.13770   0.88090   0.76250   1.000
    B2      B    0.23300   0.89580   0.70770   1.000
    B3      B    0.32610   0.80760   0.74200   1.000
    B4      B    0.29310   0.73620   0.81740   1.000
    B5      B    0.17480   0.78070   0.82970   1.000
    B6      B    0.07400   0.77030   0.72940   1.000
    B7      B    0.11000   0.84180   0.65320   1.000
    B8      B    0.22660   0.79560   0.64200   1.000
    B9      B    0.26400   0.69770   0.70940   1.000
    B10     B    0.17040   0.68140   0.76410   1.000
    B11     B    0.37940   0.04680   0.44610   1.000
    B12     B    0.39590   0.92290   0.47270   1.000
    B13     B    0.52470   0.88940   0.47110   1.000
    B14     B    0.58810   0.99200   0.44370   1.000
    B15     B    0.49810   0.08910   0.42850   1.000
    B16     B    0.36230   0.38090   0.73750   1.000
    B17     B    0.26700   0.39580   0.79230   1.000
    B18     B    0.17390   0.30760   0.75800   1.000
    B19     B    0.20690   0.23620   0.68260   1.000
    B20     B    0.32520   0.28070   0.67030   1.000
    B21     B    0.42600   0.27030   0.77060   1.000
    B22     B    0.39000   0.34180   0.84680   1.000
    B23     B    0.27340   0.29560   0.85800   1.000
    B24     B    0.23600   0.19770   0.79060   1.000
    B25     B    0.32960   0.18140   0.73590   1.000
    B26     B    0.12060   0.54680   0.05390   1.000
    B27     B    0.10410   0.42290   0.02730   1.000
    B28     B    0.97530   0.38940   0.02890   1.000
    B29     B    0.91190   0.49200   0.05630   1.000
    B30     B    0.00190   0.58910   0.07150   1.000
    B31     B    0.86230   0.11910   0.23750   1.000
    B32     B    0.76700   0.10420   0.29230   1.000
    B33     B    0.67390   0.19240   0.25800   1.000
    B34     B    0.70690   0.26380   0.18260   1.000
    B35     B    0.82520   0.21930   0.17030   1.000
    B36     B    0.92600   0.22970   0.27060   1.000
    B37     B    0.89000   0.15820   0.34680   1.000
    B38     B    0.77340   0.20440   0.35800   1.000
    B39     B    0.73600   0.30230   0.29060   1.000
    B40     B    0.82960   0.31860   0.23590   1.000
    B41     B    0.62060   0.95320   0.55390   1.000
    B42     B    0.60410   0.07710   0.52730   1.000
    B43     B    0.47530   0.11060   0.52890   1.000
    B44     B    0.41190   0.00800   0.55630   1.000
    B45     B    0.50190   0.91090   0.57150   1.000
    B46     B    0.63770   0.61910   0.26250   1.000
    B47     B    0.73300   0.60420   0.20770   1.000
    B48     B    0.82610   0.69240   0.24200   1.000
    B49     B    0.79310   0.76380   0.31740   1.000
    B50     B    0.67480   0.71930   0.32970   1.000
    B51     B    0.57400   0.72970   0.22940   1.000
    B52     B    0.61000   0.65820   0.15320   1.000
    B53     B    0.72660   0.70440   0.14200   1.000
    B54     B    0.76400   0.80230   0.20940   1.000
    B55     B    0.67040   0.81860   0.26410   1.000
    B56     B    0.87940   0.45320   0.94610   1.000
    B57     B    0.89590   0.57710   0.97270   1.000
    B58     B    0.02470   0.61060   0.97110   1.000
    B59     B    0.08810   0.50800   0.94370   1.000
    B60     B    0.99810   0.41090   0.92850   1.000
    H1      H    0.09650   0.94240   0.78060   1.000
    H2      H    0.25510   0.96710   0.68950   1.000
    H3      H    0.41030   0.82080   0.74690   1.000
    H4      H    0.35530   0.70190   0.87200   1.000
    H5      H    0.15800   0.77550   0.89280   1.000
    H6      H    0.98960   0.75770   0.72460   1.000
    H7      H    0.04950   0.87670   0.59780   1.000
    H8      H    0.24310   0.79890   0.57880   1.000
    H9      H    0.30540   0.63650   0.69100   1.000
    H10     H    0.15020   0.60950   0.78240   1.000
    H11     H    0.30050   0.07700   0.40980   1.000
    H12     H    0.32780   0.87270   0.45370   1.000
    H13     H    0.54030   0.81690   0.45090   1.000
    H14     H    0.64480   0.98620   0.40580   1.000
    H15     H    0.49610   0.14660   0.38090   1.000
    H16     H    0.40350   0.44240   0.71940   1.000
    H17     H    0.24490   0.46710   0.81050   1.000
    H18     H    0.08970   0.32080   0.75310   1.000
    H19     H    0.14470   0.20190   0.62800   1.000
    H20     H    0.34200   0.27550   0.60720   1.000
    H21     H    0.51040   0.25770   0.77540   1.000
    H22     H    0.45050   0.37670   0.90220   1.000
    H23     H    0.25690   0.29890   0.92120   1.000
    H24     H    0.19460   0.13650   0.80900   1.000
    H25     H    0.34980   0.10950   0.71760   1.000
    H26     H    0.19950   0.57700   0.09020   1.000
    H27     H    0.17220   0.37270   0.04630   1.000
    H28     H    0.95970   0.31690   0.04910   1.000
    H29     H    0.85520   0.48620   0.09420   1.000
    H30     H    0.00390   0.64660   0.11910   1.000
    H31     H    0.90350   0.05760   0.21940   1.000
    H32     H    0.74490   0.03290   0.31050   1.000
    H33     H    0.58970   0.17920   0.25310   1.000
    H34     H    0.64470   0.29810   0.12800   1.000
    H35     H    0.84200   0.22450   0.10720   1.000
    H36     H    0.01040   0.24230   0.27540   1.000
    H37     H    0.95050   0.12330   0.40220   1.000
    H38     H    0.75690   0.20110   0.42120   1.000
    H39     H    0.69460   0.36350   0.30900   1.000
    H40     H    0.84980   0.39050   0.21760   1.000
    H41     H    0.69950   0.92300   0.59020   1.000
    H42     H    0.67220   0.12730   0.54630   1.000
    H43     H    0.45970   0.18310   0.54910   1.000
    H44     H    0.35520   0.01380   0.59420   1.000
    H45     H    0.50390   0.85340   0.61910   1.000
    H46     H    0.59650   0.55760   0.28060   1.000
    H47     H    0.75510   0.53290   0.18950   1.000
    H48     H    0.91030   0.67920   0.24690   1.000
    H49     H    0.85530   0.79810   0.37200   1.000
    H50     H    0.65800   0.72450   0.39280   1.000
    H51     H    0.48960   0.74230   0.22460   1.000
    H52     H    0.54950   0.62330   0.09780   1.000
    H53     H    0.74310   0.70110   0.07880   1.000
    H54     H    0.80540   0.86350   0.19100   1.000
    H55     H    0.65020   0.89050   0.28240   1.000
    H56     H    0.80050   0.42300   0.90980   1.000
    H57     H    0.82780   0.62730   0.95370   1.000
    H58     H    0.04030   0.68310   0.95090   1.000
    H59     H    0.14480   0.51380   0.90580   1.000
    H60     H    0.99610   0.35340   0.88090   1.000
    C1      C    0.26610   0.85420   0.81140   1.000
    C2      C    0.13350   0.72430   0.66120   1.000
    C3      C    0.33360   0.91760   0.88650   1.000
    C4      C    0.06780   0.65750   0.58830   1.000
    C5      C    0.45340   0.97500   0.40190   1.000
    C6      C    0.40530   0.94920   0.30410   1.000
    C7      C    0.23390   0.35420   0.68860   1.000
    C8      C    0.36650   0.22430   0.83880   1.000
    C9      C    0.16640   0.41760   0.61350   1.000
    C10     C    0.43220   0.15750   0.91170   1.000
    C11     C    0.04660   0.47500   0.09810   1.000
    C12     C    0.09470   0.44920   0.19590   1.000
    C13     C    0.73390   0.14580   0.18860   1.000
    C14     C    0.86650   0.27570   0.33880   1.000
    C15     C    0.66640   0.08240   0.11350   1.000
    C16     C    0.93220   0.34250   0.41170   1.000
    C17     C    0.54660   0.02500   0.59810   1.000
    C18     C    0.59470   0.05080   0.69590   1.000
    C19     C    0.76610   0.64580   0.31140   1.000
    C20     C    0.63350   0.77570   0.16120   1.000
    C21     C    0.83360   0.58240   0.38650   1.000
    C22     C    0.56780   0.84250   0.08830   1.000
    C23     C    0.95340   0.52500   0.90190   1.000
    C24     C    0.90530   0.55080   0.80410   1.000
    O1      O    0.29130   0.94190   0.94281   1.000
    O2      O    0.42390   0.93960   0.88491   1.000
    O3      O    0.98160   0.62870   0.59398   1.000
    O4      O    0.10900   0.63800   0.53016   1.000
    O5      O    0.42570   0.00310   0.25028   1.000
    O6      O    0.35010   0.87530   0.28737   1.000
    O7      O    0.20870   0.44190   0.55719   1.000
    O8      O    0.07610   0.43960   0.61509   1.000
    O9      O    0.51840   0.12870   0.90602   1.000
    O10     O    0.39100   0.13800   0.96984   1.000
    O11     O    0.07430   0.50310   0.24972   1.000
    O12     O    0.14990   0.37530   0.21263   1.000
    O13     O    0.70870   0.05810   0.05719   1.000
    O14     O    0.57610   0.06040   0.11509   1.000
    O15     O    0.01840   0.37130   0.40602   1.000
    O16     O    0.89100   0.36200   0.46984   1.000
    O17     O    0.57430   0.99690   0.74972   1.000
    O18     O    0.64990   0.12470   0.71263   1.000
    O19     O    0.79130   0.55810   0.44281   1.000
    O20     O    0.92390   0.56040   0.38491   1.000
    O21     O    0.48160   0.87130   0.09398   1.000
    O22     O    0.60900   0.86200   0.03016   1.000
    O23     O    0.92570   0.49690   0.75028   1.000
    O24     O    0.85010   0.62470   0.78737   1.000
