# CIF file generated by openbabel 2.4.1, see http://openbabel.sf.net
data_I
_chemical_name_common 'image0'
_cell_length_a 5.0484
_cell_length_b 12.3699
_cell_length_c 8.2547
_cell_angle_alpha 90
_cell_angle_beta 92.064
_cell_angle_gamma 90
_space_group_name_H-M_alt 'P 1'
_space_group_name_Hall 'P 1'
loop_
    _symmetry_equiv_pos_as_xyz
    x,y,z
loop_
    _atom_site_label
    _atom_site_type_symbol
    _atom_site_fract_x
    _atom_site_fract_y
    _atom_site_fract_z
    _atom_site_occupancy
    P1      P    0.00810   0.48600   0.23330   1.000
    O1      O    0.72100   0.51850   0.20550   1.000
    O2      O    0.20200   0.53960   0.12700   1.000
    O3      O    0.01400   0.36310   0.23070   1.000
    F1      F    0.45800   0.34890   0.04350   1.000
    C1      C    0.08600   0.52640   0.44200   1.000
    P2      P    0.99190   0.98600   0.76670   1.000
    O4      O    0.27900   0.01850   0.79450   1.000
    O5      O    0.79800   0.03960   0.87300   1.000
    O6      O    0.98600   0.86310   0.76930   1.000
    F2      F    0.54200   0.84890   0.95650   1.000
    C2      C    0.91400   0.02640   0.55800   1.000
    P3      P    0.99190   0.51400   0.76670   1.000
    O7      O    0.27900   0.48150   0.79450   1.000
    O8      O    0.79800   0.46040   0.87300   1.000
    O9      O    0.98600   0.63690   0.76930   1.000
    F3      F    0.54200   0.65110   0.95650   1.000
    C3      C    0.91400   0.47360   0.55800   1.000
    P4      P    0.00810   0.01400   0.23330   1.000
    O10     O    0.72100   0.98150   0.20550   1.000
    O11     O    0.20200   0.96040   0.12700   1.000
    O12     O    0.01400   0.13690   0.23070   1.000
    F4      F    0.45800   0.15110   0.04350   1.000
    C4      C    0.08600   0.97360   0.44200   1.000
    Ga1     Ga   0.50000   0.50000   0.00000   1.000
    Ga2     Ga   0.50000   0.00000   0.00000   1.000
    Ga3     Ga   0.22930   0.25000   0.14530   1.000
    Ga4     Ga   0.77070   0.75000   0.85470   1.000
