# CIF file generated by openbabel 2.4.1, see http://openbabel.sf.net
data_I
_chemical_name_common 'image0'
_cell_length_a 15.085
_cell_length_b 15.085
_cell_length_c 18.906
_cell_angle_alpha 90
_cell_angle_beta 90
_cell_angle_gamma 90
_space_group_name_H-M_alt 'P 1'
_space_group_name_Hall 'P 1'
loop_
    _symmetry_equiv_pos_as_xyz
    x,y,z
loop_
    _atom_site_label
    _atom_site_type_symbol
    _atom_site_fract_x
    _atom_site_fract_y
    _atom_site_fract_z
    _atom_site_occupancy
    O1      O    0.62141   0.55569   0.94102   1.000
    C1      C    0.76470   0.67090   0.93632   1.000
    H1      H    0.74390   0.64750   0.89270   1.000
    C2      C    0.55800   0.57200   0.79210   1.000
    H2      H    0.57900   0.60100   0.81300   1.000
    H3      H    0.51000   0.63100   0.81600   1.000
    C3      C    0.08500   0.97800   0.29260   1.000
    C4      C    0.08300   0.04900   0.28950   1.000
    C5      C    0.09360   0.01500   0.28820   1.000
    O2      O    0.12141   0.05569   0.44102   1.000
    C6      C    0.26470   0.17090   0.43632   1.000
    H4      H    0.24390   0.14750   0.39270   1.000
    C7      C    0.05800   0.07200   0.29210   1.000
    H5      H    0.07900   0.10100   0.31300   1.000
    H6      H    0.01000   0.13100   0.31600   1.000
    C8      C    0.58500   0.47800   0.79260   1.000
    C9      C    0.58300   0.54900   0.78950   1.000
    C10     C    0.59360   0.51500   0.78820   1.000
    O3      O    0.37859   0.44431   0.94102   1.000
    C11     C    0.23530   0.32910   0.93632   1.000
    H7      H    0.25610   0.35250   0.89270   1.000
    C12     C    0.44200   0.42800   0.79210   1.000
    H8      H    0.42100   0.39900   0.81300   1.000
    H9      H    0.49000   0.36900   0.81600   1.000
    C13     C    0.91500   0.02200   0.29260   1.000
    C14     C    0.91700   0.95100   0.28950   1.000
    C15     C    0.90640   0.98500   0.28820   1.000
    O4      O    0.87859   0.94431   0.44102   1.000
    C16     C    0.73530   0.82910   0.43632   1.000
    H10     H    0.75610   0.85250   0.39270   1.000
    C17     C    0.94200   0.92800   0.29210   1.000
    H11     H    0.92100   0.89900   0.31300   1.000
    H12     H    0.99000   0.86900   0.31600   1.000
    C18     C    0.41500   0.52200   0.79260   1.000
    C19     C    0.41700   0.45100   0.78950   1.000
    C20     C    0.40640   0.48500   0.78820   1.000
    O5      O    0.44431   0.62141   0.94102   1.000
    C21     C    0.32910   0.76470   0.93632   1.000
    H13     H    0.35250   0.74390   0.89270   1.000
    C22     C    0.42800   0.55800   0.79210   1.000
    H14     H    0.39900   0.57900   0.81300   1.000
    H15     H    0.36900   0.51000   0.81600   1.000
    C23     C    0.02200   0.08500   0.29260   1.000
    C24     C    0.95100   0.08300   0.28950   1.000
    C25     C    0.98500   0.09360   0.28820   1.000
    O6      O    0.94431   0.12141   0.44102   1.000
    C26     C    0.82910   0.26470   0.43632   1.000
    H16     H    0.85250   0.24390   0.39270   1.000
    C27     C    0.92800   0.05800   0.29210   1.000
    H17     H    0.89900   0.07900   0.31300   1.000
    H18     H    0.86900   0.01000   0.31600   1.000
    C28     C    0.52200   0.58500   0.79260   1.000
    C29     C    0.45100   0.58300   0.78950   1.000
    C30     C    0.48500   0.59360   0.78820   1.000
    O7      O    0.55569   0.37859   0.94102   1.000
    C31     C    0.67090   0.23530   0.93632   1.000
    H19     H    0.64750   0.25610   0.89270   1.000
    C32     C    0.57200   0.44200   0.79210   1.000
    H20     H    0.60100   0.42100   0.81300   1.000
    H21     H    0.63100   0.49000   0.81600   1.000
    C33     C    0.97800   0.91500   0.29260   1.000
    C34     C    0.04900   0.91700   0.28950   1.000
    C35     C    0.01500   0.90640   0.28820   1.000
    O8      O    0.05569   0.87859   0.44102   1.000
    C36     C    0.17090   0.73530   0.43632   1.000
    H22     H    0.14750   0.75610   0.39270   1.000
    C37     C    0.07200   0.94200   0.29210   1.000
    H23     H    0.10100   0.92100   0.31300   1.000
    H24     H    0.13100   0.99000   0.31600   1.000
    C38     C    0.47800   0.41500   0.79260   1.000
    C39     C    0.54900   0.41700   0.78950   1.000
    C40     C    0.51500   0.40640   0.78820   1.000
    O9      O    0.37859   0.55569   0.55898   1.000
    C41     C    0.23530   0.67090   0.56368   1.000
    H25     H    0.25610   0.64750   0.60730   1.000
    C42     C    0.44200   0.57200   0.70790   1.000
    H26     H    0.42100   0.60100   0.68700   1.000
    H27     H    0.49000   0.63100   0.68400   1.000
    C43     C    0.91500   0.97800   0.20740   1.000
    C44     C    0.91700   0.04900   0.21050   1.000
    C45     C    0.90640   0.01500   0.21180   1.000
    O10     O    0.87859   0.05569   0.05898   1.000
    C46     C    0.73530   0.17090   0.06368   1.000
    H28     H    0.75610   0.14750   0.10730   1.000
    C47     C    0.94200   0.07200   0.20790   1.000
    H29     H    0.92100   0.10100   0.18700   1.000
    H30     H    0.99000   0.13100   0.18400   1.000
    C48     C    0.41500   0.47800   0.70740   1.000
    C49     C    0.41700   0.54900   0.71050   1.000
    C50     C    0.40640   0.51500   0.71180   1.000
    O11     O    0.62141   0.44431   0.55898   1.000
    C51     C    0.76470   0.32910   0.56368   1.000
    H31     H    0.74390   0.35250   0.60730   1.000
    C52     C    0.55800   0.42800   0.70790   1.000
    H32     H    0.57900   0.39900   0.68700   1.000
    H33     H    0.51000   0.36900   0.68400   1.000
    C53     C    0.08500   0.02200   0.20740   1.000
    C54     C    0.08300   0.95100   0.21050   1.000
    C55     C    0.09360   0.98500   0.21180   1.000
    O12     O    0.12141   0.94431   0.05898   1.000
    C56     C    0.26470   0.82910   0.06368   1.000
    H34     H    0.24390   0.85250   0.10730   1.000
    C57     C    0.05800   0.92800   0.20790   1.000
    H35     H    0.07900   0.89900   0.18700   1.000
    H36     H    0.01000   0.86900   0.18400   1.000
    C58     C    0.58500   0.52200   0.70740   1.000
    C59     C    0.58300   0.45100   0.71050   1.000
    C60     C    0.59360   0.48500   0.71180   1.000
    O13     O    0.55569   0.62141   0.55898   1.000
    C61     C    0.67090   0.76470   0.56368   1.000
    H37     H    0.64750   0.74390   0.60730   1.000
    C62     C    0.57200   0.55800   0.70790   1.000
    H38     H    0.60100   0.57900   0.68700   1.000
    H39     H    0.63100   0.51000   0.68400   1.000
    C63     C    0.97800   0.08500   0.20740   1.000
    C64     C    0.04900   0.08300   0.21050   1.000
    C65     C    0.01500   0.09360   0.21180   1.000
    O14     O    0.05569   0.12141   0.05898   1.000
    C66     C    0.17090   0.26470   0.06368   1.000
    H40     H    0.14750   0.24390   0.10730   1.000
    C67     C    0.07200   0.05800   0.20790   1.000
    H41     H    0.10100   0.07900   0.18700   1.000
    H42     H    0.13100   0.01000   0.18400   1.000
    C68     C    0.47800   0.58500   0.70740   1.000
    C69     C    0.54900   0.58300   0.71050   1.000
    C70     C    0.51500   0.59360   0.71180   1.000
    O15     O    0.44431   0.37859   0.55898   1.000
    C71     C    0.32910   0.23530   0.56368   1.000
    H43     H    0.35250   0.25610   0.60730   1.000
    C72     C    0.42800   0.44200   0.70790   1.000
    H44     H    0.39900   0.42100   0.68700   1.000
    H45     H    0.36900   0.49000   0.68400   1.000
    C73     C    0.02200   0.91500   0.20740   1.000
    C74     C    0.95100   0.91700   0.21050   1.000
    C75     C    0.98500   0.90640   0.21180   1.000
    O16     O    0.94431   0.87859   0.05898   1.000
    C76     C    0.82910   0.73530   0.06368   1.000
    H46     H    0.85250   0.75610   0.10730   1.000
    C77     C    0.92800   0.94200   0.20790   1.000
    H47     H    0.89900   0.92100   0.18700   1.000
    H48     H    0.86900   0.99000   0.18400   1.000
    C78     C    0.52200   0.41500   0.70740   1.000
    C79     C    0.45100   0.41700   0.71050   1.000
    C80     C    0.48500   0.40640   0.71180   1.000
    O17     O    0.37859   0.44431   0.05898   1.000
    C81     C    0.23530   0.32910   0.06368   1.000
    H49     H    0.25610   0.35250   0.10730   1.000
    C82     C    0.44200   0.42800   0.20790   1.000
    H50     H    0.42100   0.39900   0.18700   1.000
    H51     H    0.49000   0.36900   0.18400   1.000
    C83     C    0.91500   0.02200   0.70740   1.000
    C84     C    0.91700   0.95100   0.71050   1.000
    C85     C    0.90640   0.98500   0.71180   1.000
    O18     O    0.87859   0.94431   0.55898   1.000
    C86     C    0.73530   0.82910   0.56368   1.000
    H52     H    0.75610   0.85250   0.60730   1.000
    C87     C    0.94200   0.92800   0.70790   1.000
    H53     H    0.92100   0.89900   0.68700   1.000
    H54     H    0.99000   0.86900   0.68400   1.000
    C88     C    0.41500   0.52200   0.20740   1.000
    C89     C    0.41700   0.45100   0.21050   1.000
    C90     C    0.40640   0.48500   0.21180   1.000
    O19     O    0.62141   0.55569   0.05898   1.000
    C91     C    0.76470   0.67090   0.06368   1.000
    H55     H    0.74390   0.64750   0.10730   1.000
    C92     C    0.55800   0.57200   0.20790   1.000
    H56     H    0.57900   0.60100   0.18700   1.000
    H57     H    0.51000   0.63100   0.18400   1.000
    C93     C    0.08500   0.97800   0.70740   1.000
    C94     C    0.08300   0.04900   0.71050   1.000
    C95     C    0.09360   0.01500   0.71180   1.000
    O20     O    0.12141   0.05569   0.55898   1.000
    C96     C    0.26470   0.17090   0.56368   1.000
    H58     H    0.24390   0.14750   0.60730   1.000
    C97     C    0.05800   0.07200   0.70790   1.000
    H59     H    0.07900   0.10100   0.68700   1.000
    H60     H    0.01000   0.13100   0.68400   1.000
    C98     C    0.58500   0.47800   0.20740   1.000
    C99     C    0.58300   0.54900   0.21050   1.000
    C100    C    0.59360   0.51500   0.21180   1.000
    O21     O    0.55569   0.37859   0.05898   1.000
    C101    C    0.67090   0.23530   0.06368   1.000
    H61     H    0.64750   0.25610   0.10730   1.000
    C102    C    0.57200   0.44200   0.20790   1.000
    H62     H    0.60100   0.42100   0.18700   1.000
    H63     H    0.63100   0.49000   0.18400   1.000
    C103    C    0.97800   0.91500   0.70740   1.000
    C104    C    0.04900   0.91700   0.71050   1.000
    C105    C    0.01500   0.90640   0.71180   1.000
    O22     O    0.05569   0.87859   0.55898   1.000
    C106    C    0.17090   0.73530   0.56368   1.000
    H64     H    0.14750   0.75610   0.60730   1.000
    C107    C    0.07200   0.94200   0.70790   1.000
    H65     H    0.10100   0.92100   0.68700   1.000
    H66     H    0.13100   0.99000   0.68400   1.000
    C108    C    0.47800   0.41500   0.20740   1.000
    C109    C    0.54900   0.41700   0.21050   1.000
    C110    C    0.51500   0.40640   0.21180   1.000
    O23     O    0.44431   0.62141   0.05898   1.000
    C111    C    0.32910   0.76470   0.06368   1.000
    H67     H    0.35250   0.74390   0.10730   1.000
    C112    C    0.42800   0.55800   0.20790   1.000
    H68     H    0.39900   0.57900   0.18700   1.000
    H69     H    0.36900   0.51000   0.18400   1.000
    C113    C    0.02200   0.08500   0.70740   1.000
    C114    C    0.95100   0.08300   0.71050   1.000
    C115    C    0.98500   0.09360   0.71180   1.000
    O24     O    0.94431   0.12141   0.55898   1.000
    C116    C    0.82910   0.26470   0.56368   1.000
    H70     H    0.85250   0.24390   0.60730   1.000
    C117    C    0.92800   0.05800   0.70790   1.000
    H71     H    0.89900   0.07900   0.68700   1.000
    H72     H    0.86900   0.01000   0.68400   1.000
    C118    C    0.52200   0.58500   0.20740   1.000
    C119    C    0.45100   0.58300   0.21050   1.000
    C120    C    0.48500   0.59360   0.21180   1.000
    O25     O    0.62141   0.44431   0.44102   1.000
    C121    C    0.76470   0.32910   0.43632   1.000
    H73     H    0.74390   0.35250   0.39270   1.000
    C122    C    0.55800   0.42800   0.29210   1.000
    H74     H    0.57900   0.39900   0.31300   1.000
    H75     H    0.51000   0.36900   0.31600   1.000
    C123    C    0.08500   0.02200   0.79260   1.000
    C124    C    0.08300   0.95100   0.78950   1.000
    C125    C    0.09360   0.98500   0.78820   1.000
    O26     O    0.12141   0.94431   0.94102   1.000
    C126    C    0.26470   0.82910   0.93632   1.000
    H76     H    0.24390   0.85250   0.89270   1.000
    C127    C    0.05800   0.92800   0.79210   1.000
    H77     H    0.07900   0.89900   0.81300   1.000
    H78     H    0.01000   0.86900   0.81600   1.000
    C128    C    0.58500   0.52200   0.29260   1.000
    C129    C    0.58300   0.45100   0.28950   1.000
    C130    C    0.59360   0.48500   0.28820   1.000
    O27     O    0.37859   0.55569   0.44102   1.000
    C131    C    0.23530   0.67090   0.43632   1.000
    H79     H    0.25610   0.64750   0.39270   1.000
    C132    C    0.44200   0.57200   0.29210   1.000
    H80     H    0.42100   0.60100   0.31300   1.000
    H81     H    0.49000   0.63100   0.31600   1.000
    C133    C    0.91500   0.97800   0.79260   1.000
    C134    C    0.91700   0.04900   0.78950   1.000
    C135    C    0.90640   0.01500   0.78820   1.000
    O28     O    0.87859   0.05569   0.94102   1.000
    C136    C    0.73530   0.17090   0.93632   1.000
    H82     H    0.75610   0.14750   0.89270   1.000
    C137    C    0.94200   0.07200   0.79210   1.000
    H83     H    0.92100   0.10100   0.81300   1.000
    H84     H    0.99000   0.13100   0.81600   1.000
    C138    C    0.41500   0.47800   0.29260   1.000
    C139    C    0.41700   0.54900   0.28950   1.000
    C140    C    0.40640   0.51500   0.28820   1.000
    O29     O    0.44431   0.37859   0.44102   1.000
    C141    C    0.32910   0.23530   0.43632   1.000
    H85     H    0.35250   0.25610   0.39270   1.000
    C142    C    0.42800   0.44200   0.29210   1.000
    H86     H    0.39900   0.42100   0.31300   1.000
    H87     H    0.36900   0.49000   0.31600   1.000
    C143    C    0.02200   0.91500   0.79260   1.000
    C144    C    0.95100   0.91700   0.78950   1.000
    C145    C    0.98500   0.90640   0.78820   1.000
    O30     O    0.94431   0.87859   0.94102   1.000
    C146    C    0.82910   0.73530   0.93632   1.000
    H88     H    0.85250   0.75610   0.89270   1.000
    C147    C    0.92800   0.94200   0.79210   1.000
    H89     H    0.89900   0.92100   0.81300   1.000
    H90     H    0.86900   0.99000   0.81600   1.000
    C148    C    0.52200   0.41500   0.29260   1.000
    C149    C    0.45100   0.41700   0.28950   1.000
    C150    C    0.48500   0.40640   0.28820   1.000
    O31     O    0.55569   0.62141   0.44102   1.000
    C151    C    0.67090   0.76470   0.43632   1.000
    H91     H    0.64750   0.74390   0.39270   1.000
    C152    C    0.57200   0.55800   0.29210   1.000
    H92     H    0.60100   0.57900   0.31300   1.000
    H93     H    0.63100   0.51000   0.31600   1.000
    C153    C    0.97800   0.08500   0.79260   1.000
    C154    C    0.04900   0.08300   0.78950   1.000
    C155    C    0.01500   0.09360   0.78820   1.000
    O32     O    0.05569   0.12141   0.94102   1.000
    C156    C    0.17090   0.26470   0.93632   1.000
    H94     H    0.14750   0.24390   0.89270   1.000
    C157    C    0.07200   0.05800   0.79210   1.000
    H95     H    0.10100   0.07900   0.81300   1.000
    H96     H    0.13100   0.01000   0.81600   1.000
    C158    C    0.47800   0.58500   0.29260   1.000
    C159    C    0.54900   0.58300   0.28950   1.000
    C160    C    0.51500   0.59360   0.28820   1.000
    Co1     Co   0.50000   0.50000   0.92903   1.000
    N1      N    0.50000   0.50000   0.81840   1.000
    Co2     Co   0.00000   0.00000   0.42903   1.000
    N2      N    0.00000   0.00000   0.31840   1.000
    Co3     Co   0.50000   0.50000   0.57097   1.000
    N3      N    0.50000   0.50000   0.68160   1.000
    Co4     Co   0.00000   0.00000   0.07097   1.000
    N4      N    0.00000   0.00000   0.18160   1.000
    Co5     Co   0.50000   0.50000   0.07097   1.000
    N5      N    0.50000   0.50000   0.18160   1.000
    Co6     Co   0.00000   0.00000   0.57097   1.000
    N6      N    0.00000   0.00000   0.68160   1.000
    Co7     Co   0.50000   0.50000   0.42903   1.000
    N7      N    0.50000   0.50000   0.31840   1.000
    Co8     Co   0.00000   0.00000   0.92903   1.000
    N8      N    0.00000   0.00000   0.81840   1.000
    C161    C    0.65270   0.57840   0.00000   1.000
    C162    C    0.72980   0.63950   0.00000   1.000
    C163    C    0.15270   0.07840   0.50000   1.000
    C164    C    0.22980   0.13950   0.50000   1.000
    C165    C    0.34730   0.42160   0.00000   1.000
    C166    C    0.27020   0.36050   0.00000   1.000
    C167    C    0.84730   0.92160   0.50000   1.000
    C168    C    0.77020   0.86050   0.50000   1.000
    C169    C    0.42160   0.65270   0.00000   1.000
    C170    C    0.36050   0.72980   0.00000   1.000
    C171    C    0.92160   0.15270   0.50000   1.000
    C172    C    0.86050   0.22980   0.50000   1.000
    C173    C    0.57840   0.34730   0.00000   1.000
    C174    C    0.63950   0.27020   0.00000   1.000
    C175    C    0.07840   0.84730   0.50000   1.000
    C176    C    0.13950   0.77020   0.50000   1.000
    C177    C    0.34730   0.57840   0.50000   1.000
    C178    C    0.27020   0.63950   0.50000   1.000
    C179    C    0.84730   0.07840   0.00000   1.000
    C180    C    0.77020   0.13950   0.00000   1.000
    C181    C    0.65270   0.42160   0.50000   1.000
    C182    C    0.72980   0.36050   0.50000   1.000
    C183    C    0.15270   0.92160   0.00000   1.000
    C184    C    0.22980   0.86050   0.00000   1.000
    C185    C    0.57840   0.65270   0.50000   1.000
    C186    C    0.63950   0.72980   0.50000   1.000
    C187    C    0.07840   0.15270   0.00000   1.000
    C188    C    0.13950   0.22980   0.00000   1.000
    C189    C    0.42160   0.34730   0.50000   1.000
    C190    C    0.36050   0.27020   0.50000   1.000
    C191    C    0.92160   0.84730   0.00000   1.000
    C192    C    0.86050   0.77020   0.00000   1.000
