# CIF file generated by openbabel 2.4.1, see http://openbabel.sf.net
data_I
_chemical_name_common 'ja204757x_si_003_clean'
_cell_length_a 14.6647
_cell_length_b 14.6645
_cell_length_c 14.6645
_cell_angle_alpha 109.471
_cell_angle_beta 109.471
_cell_angle_gamma 109.471
_space_group_name_H-M_alt 'P 1'
_space_group_name_Hall 'P 1'
loop_
    _symmetry_equiv_pos_as_xyz
    x,y,z
loop_
    _atom_site_label
    _atom_site_type_symbol
    _atom_site_fract_x
    _atom_site_fract_y
    _atom_site_fract_z
    _atom_site_occupancy
    Zn1     Zn   0.75000   0.50000   0.25000   1.000
    Zn2     Zn   0.25000   0.50000   0.75000   1.000
    Zn3     Zn   0.50000   0.75000   0.25000   1.000
    Zn4     Zn   0.75000   0.25000   0.50000   1.000
    Zn5     Zn   0.50000   0.25000   0.75000   1.000
    Zn6     Zn   0.25000   0.75000   0.50000   1.000
    C7      C    0.61505   0.24590   0.61505   1.000
    C8      C    0.00000   0.67940   0.49160   1.000
    C9      C    0.78836   0.31899   0.73235   1.000
    C10     C    0.53063   0.21164   0.94399   1.000
    C11     C    0.63085   0.38495   0.00000   1.000
    C12     C    0.18780   0.50840   0.50840   1.000
    C13     C    0.50840   0.18780   0.50840   1.000
    C14     C    0.75410   0.36915   0.36915   1.000
    C15     C    0.24590   0.61505   0.61505   1.000
    C16     C    0.05601   0.58664   0.26765   1.000
    C17     C    0.73235   0.31899   0.78836   1.000
    C18     C    0.78836   0.73235   0.31899   1.000
    C19     C    0.67940   0.49160   0.00000   1.000
    C20     C    0.26765   0.58664   0.05601   1.000
    C21     C    0.31899   0.78836   0.73235   1.000
    C22     C    0.41336   0.46937   0.68101   1.000
    C23     C    0.36915   0.36915   0.75410   1.000
    C24     C    0.67940   0.00000   0.49160   1.000
    C25     C    0.31899   0.73235   0.78836   1.000
    C26     C    0.38495   0.00000   0.63085   1.000
    C27     C    0.50840   0.50840   0.18780   1.000
    C28     C    0.68101   0.46937   0.41336   1.000
    C29     C    0.36915   0.75410   0.36915   1.000
    C30     C    0.49160   0.00000   0.67940   1.000
    C31     C    0.32060   0.81220   0.32060   1.000
    C32     C    0.38495   0.63085   0.00000   1.000
    C33     C    0.58664   0.05601   0.26765   1.000
    C34     C    0.00000   0.63085   0.38495   1.000
    C35     C    0.49160   0.67940   0.00000   1.000
    C36     C    0.61505   0.61505   0.24590   1.000
    C37     C    0.58664   0.26765   0.05601   1.000
    C38     C    0.32060   0.32060   0.81220   1.000
    C39     C    0.00000   0.38495   0.63085   1.000
    C40     C    0.73235   0.78836   0.31899   1.000
    C41     C    0.21164   0.53063   0.94399   1.000
    C42     C    0.63085   0.00000   0.38495   1.000
    C43     C    0.00000   0.49160   0.67940   1.000
    C44     C    0.68101   0.41336   0.46937   1.000
    C45     C    0.94399   0.21164   0.53063   1.000
    C46     C    0.46937   0.68101   0.41336   1.000
    C47     C    0.21164   0.94399   0.53063   1.000
    C48     C    0.26765   0.05601   0.58664   1.000
    C49     C    0.46937   0.41336   0.68101   1.000
    C50     C    0.53063   0.94399   0.21164   1.000
    C51     C    0.94399   0.53063   0.21164   1.000
    C52     C    0.81220   0.32060   0.32060   1.000
    C53     C    0.05601   0.26765   0.58664   1.000
    C54     C    0.41336   0.68101   0.46937   1.000
    N55     N    0.37805   0.65110   0.09251   1.000
    N56     N    0.62195   0.71446   0.27305   1.000
    N57     N    0.62195   0.27305   0.71446   1.000
    N58     N    0.71446   0.27305   0.62195   1.000
    N59     N    0.55859   0.90749   0.28554   1.000
    N60     N    0.44141   0.72695   0.34890   1.000
    N61     N    0.71446   0.62195   0.27305   1.000
    N62     N    0.55859   0.28554   0.90749   1.000
    N63     N    0.27305   0.71446   0.62195   1.000
    N64     N    0.37805   0.09251   0.65110   1.000
    N65     N    0.28554   0.55859   0.90749   1.000
    N66     N    0.65110   0.37805   0.09251   1.000
    N67     N    0.90749   0.55859   0.28554   1.000
    N68     N    0.27305   0.62195   0.71446   1.000
    N69     N    0.72695   0.44141   0.34890   1.000
    N70     N    0.09251   0.65110   0.37805   1.000
    N71     N    0.09251   0.37805   0.65110   1.000
    N72     N    0.72695   0.34890   0.44141   1.000
    N73     N    0.44141   0.34890   0.72695   1.000
    N74     N    0.34890   0.72695   0.44141   1.000
    N75     N    0.65110   0.09251   0.37805   1.000
    N76     N    0.28554   0.90749   0.55859   1.000
    N77     N    0.90749   0.28554   0.55859   1.000
    N78     N    0.34890   0.44141   0.72695   1.000
    H79     H    0.91068   0.65404   0.47321   1.000
    H80     H    0.05238   0.77433   0.53695   1.000
    H81     H    0.03694   0.64706   0.54641   1.000
    H82     H    0.88246   0.35404   0.77885   1.000
    H83     H    0.47158   0.11754   0.89639   1.000
    H84     H    0.21799   0.44985   0.52375   1.000
    H85     H    0.20699   0.52596   0.44488   1.000
    H86     H    0.09387   0.46762   0.47480   1.000
    H87     H    0.47649   0.09416   0.46599   1.000
    H88     H    0.52308   0.22038   0.45112   1.000
    H89     H    0.44386   0.20431   0.52631   1.000
    H90     H    0.10361   0.57519   0.22115   1.000
    H91     H    0.77884   0.35404   0.88246   1.000
    H92     H    0.88246   0.77885   0.35404   1.000
    H93     H    0.64698   0.47397   0.91024   1.000
    H94     H    0.77432   0.53270   0.04494   1.000
    H95     H    0.65413   0.54991   0.04483   1.000
    H96     H    0.22116   0.57519   0.10362   1.000
    H97     H    0.35404   0.88246   0.77885   1.000
    H98     H    0.76559   0.07746   0.55255   1.000
    H99     H    0.68711   0.92199   0.47492   1.000
    H100    H    0.62272   0.00055   0.52910   1.000
    H101    H    0.35404   0.77885   0.88246   1.000
    H102    H    0.52698   0.44112   0.19610   1.000
    H103    H    0.46131   0.48155   0.09566   1.000
    H104    H    0.45514   0.52075   0.22709   1.000
    H105    H    0.64596   0.52842   0.42481   1.000
    H106    H    0.53869   0.02024   0.63435   1.000
    H107    H    0.47302   0.91414   0.66912   1.000
    H108    H    0.54486   0.06561   0.77195   1.000
    H109    H    0.22568   0.75837   0.27062   1.000
    H110    H    0.35302   0.82699   0.26326   1.000
    H111    H    0.34587   0.89578   0.39070   1.000
    H112    H    0.47692   0.69730   0.92804   1.000
    H113    H    0.52351   0.61767   0.98950   1.000
    H114    H    0.55614   0.76045   0.08245   1.000
    H115    H    0.57519   0.22115   0.10362   1.000
    H116    H    0.31289   0.23487   0.78781   1.000
    H117    H    0.23441   0.31187   0.78696   1.000
    H118    H    0.37728   0.37783   0.90638   1.000
    H119    H    0.77884   0.88246   0.35404   1.000
    H120    H    0.11754   0.47158   0.89639   1.000
    H121    H    0.91320   0.47292   0.66608   1.000
    H122    H    0.02359   0.54027   0.63668   1.000
    H123    H    0.06321   0.54338   0.77266   1.000
    H124    H    0.64596   0.42481   0.52842   1.000
    H125    H    0.52842   0.64596   0.42481   1.000
    H126    H    0.11754   0.89639   0.47158   1.000
    H127    H    0.22116   0.10362   0.57519   1.000
    H128    H    0.52842   0.42481   0.64596   1.000
    H129    H    0.89639   0.47158   0.11754   1.000
    H130    H    0.79301   0.31897   0.23789   1.000
    H131    H    0.78201   0.23186   0.30576   1.000
    H132    H    0.90613   0.37374   0.38093   1.000
    H133    H    0.10361   0.22115   0.57519   1.000
    H134    H    0.42481   0.64596   0.52842   1.000
    H135    H    0.42481   0.52842   0.64596   1.000
    H136    H    0.57519   0.10362   0.22115   1.000
    H137    H    0.47158   0.89639   0.11754   1.000
    H138    H    0.89639   0.11754   0.47158   1.000
