# CIF file generated by openbabel 2.4.1, see http://openbabel.sf.net
data_I
_chemical_name_common 'FIPWUY_clean'
_cell_length_a 9.198
_cell_length_b 9.33
_cell_length_c 9.636
_cell_angle_alpha 90
_cell_angle_beta 118.48
_cell_angle_gamma 90
_space_group_name_H-M_alt 'P 1'
_space_group_name_Hall 'P 1'
loop_
    _symmetry_equiv_pos_as_xyz
    x,y,z
loop_
    _atom_site_label
    _atom_site_type_symbol
    _atom_site_fract_x
    _atom_site_fract_y
    _atom_site_fract_z
    _atom_site_occupancy
    Zn1     Zn   0.91601   0.44079   0.13712   1.000
    Zn2     Zn   0.08399   0.94079   0.86288   1.000
    H1      H    0.63510   0.50880   0.07000   1.000
    H2      H    0.66310   0.36690   0.13780   1.000
    H3      H    0.03520   0.74360   0.09290   1.000
    H4      H    0.82730   0.57150   0.52940   1.000
    H5      H    0.85120   0.73800   0.54310   1.000
    H6      H    0.10580   0.43210   0.65620   1.000
    H7      H    0.83800   0.44800   0.77240   1.000
    H8      H    0.12860   0.71910   0.62420   1.000
    H9      H    0.33070   0.28860   0.78540   1.000
    H10     H    0.36340   0.34940   0.94970   1.000
    H11     H    0.58250   0.41410   0.83810   1.000
    H12     H    0.59530   0.26440   0.91500   1.000
    H13     H    0.36490   0.00880   0.93000   1.000
    H14     H    0.33690   0.86690   0.86220   1.000
    H15     H    0.96480   0.24360   0.90710   1.000
    H16     H    0.17270   0.07150   0.47060   1.000
    H17     H    0.14880   0.23800   0.45690   1.000
    H18     H    0.89420   0.93210   0.34380   1.000
    H19     H    0.16200   0.94800   0.22760   1.000
    H20     H    0.87140   0.21910   0.37580   1.000
    H21     H    0.66930   0.78860   0.21460   1.000
    H22     H    0.63660   0.84940   0.05030   1.000
    H23     H    0.41750   0.91410   0.16190   1.000
    H24     H    0.40470   0.76440   0.08500   1.000
    C1      C    0.99400   0.69490   0.99730   1.000
    C2      C    0.90230   0.64750   0.59110   1.000
    C3      C    0.88610   0.53360   0.82260   1.000
    C4      C    0.06310   0.63160   0.58250   1.000
    C5      C    0.01490   0.61830   0.40830   1.000
    C6      C    0.30840   0.50910   0.78350   1.000
    C7      C    0.92330   0.64240   0.75540   1.000
    C8      C    0.38300   0.36540   0.86100   1.000
    C9      C    0.56360   0.36340   0.91590   1.000
    C10     C    0.00600   0.19490   0.00270   1.000
    C11     C    0.09770   0.14750   0.40890   1.000
    C12     C    0.11390   0.03360   0.17740   1.000
    C13     C    0.93690   0.13160   0.41750   1.000
    C14     C    0.98510   0.11830   0.59170   1.000
    C15     C    0.69160   0.00910   0.21650   1.000
    C16     C    0.07670   0.14240   0.24460   1.000
    C17     C    0.61700   0.86540   0.13900   1.000
    C18     C    0.43640   0.86340   0.08410   1.000
    N1      N    0.67300   0.42090   0.06540   1.000
    N2      N    0.99500   0.74990   0.87180   1.000
    N3      N    0.15770   0.51240   0.67570   1.000
    N4      N    0.92880   0.56590   0.97640   1.000
    N5      N    0.32700   0.92090   0.93460   1.000
    N6      N    0.00500   0.24990   0.12820   1.000
    N7      N    0.84230   0.01240   0.32430   1.000
    N8      N    0.07120   0.06590   0.02360   1.000
    O1      O    0.00670   0.49360   0.35660   1.000
    O2      O    0.98820   0.72660   0.32910   1.000
    O3      O    0.38670   0.62730   0.83040   1.000
    O4      O    0.99330   0.99360   0.64340   1.000
    O5      O    0.01180   0.22660   0.67090   1.000
    O6      O    0.61330   0.12730   0.16960   1.000
