# CIF file generated by openbabel 2.4.1, see http://openbabel.sf.net
data_I
_chemical_name_common 'image0'
_cell_length_a 17.1728
_cell_length_b 17.1728
_cell_length_c 17.1728
_cell_angle_alpha 90
_cell_angle_beta 90
_cell_angle_gamma 90
_space_group_name_H-M_alt 'P 1'
_space_group_name_Hall 'P 1'
loop_
    _symmetry_equiv_pos_as_xyz
    x,y,z
loop_
    _atom_site_label
    _atom_site_type_symbol
    _atom_site_fract_x
    _atom_site_fract_y
    _atom_site_fract_z
    _atom_site_occupancy
    H1      H    0.01080   0.83730   0.22660   1.000
    C1      C    0.13880   0.79480   0.30640   1.000
    H2      H    0.10720   0.82940   0.33680   1.000
    H3      H    0.16660   0.76020   0.34040   1.000
    H4      H    0.98950   0.77340   0.16300   1.000
    H5      H    0.91950   0.83180   0.16640   1.000
    C2      C    0.86100   0.69440   0.20540   1.000
    H6      H    0.89230   0.66360   0.17080   1.000
    H7      H    0.83280   0.66070   0.23990   1.000
    H8      H    0.98920   0.16270   0.22660   1.000
    C3      C    0.86120   0.20520   0.30640   1.000
    H9      H    0.89280   0.17060   0.33680   1.000
    H10     H    0.83340   0.23980   0.34040   1.000
    H11     H    0.01050   0.22660   0.16300   1.000
    H12     H    0.08050   0.16820   0.16640   1.000
    C4      C    0.13900   0.30560   0.20540   1.000
    H13     H    0.10770   0.33640   0.17080   1.000
    H14     H    0.16720   0.33930   0.23990   1.000
    H15     H    0.98920   0.83730   0.77340   1.000
    C5      C    0.86120   0.79480   0.69360   1.000
    H16     H    0.89280   0.82940   0.66320   1.000
    H17     H    0.83340   0.76020   0.65960   1.000
    H18     H    0.01050   0.77340   0.83700   1.000
    H19     H    0.08050   0.83180   0.83360   1.000
    C6      C    0.13900   0.69440   0.79460   1.000
    H20     H    0.10770   0.66360   0.82920   1.000
    H21     H    0.16720   0.66070   0.76010   1.000
    H22     H    0.01080   0.16270   0.77340   1.000
    C7      C    0.13880   0.20520   0.69360   1.000
    H23     H    0.10720   0.17060   0.66320   1.000
    H24     H    0.16660   0.23980   0.65960   1.000
    H25     H    0.98950   0.22660   0.83700   1.000
    H26     H    0.91950   0.16820   0.83360   1.000
    C8      C    0.86100   0.30560   0.79460   1.000
    H27     H    0.89230   0.33640   0.82920   1.000
    H28     H    0.83280   0.33930   0.76010   1.000
    H29     H    0.22660   0.01080   0.83730   1.000
    C9      C    0.30640   0.13880   0.79480   1.000
    H30     H    0.33680   0.10720   0.82940   1.000
    H31     H    0.34040   0.16660   0.76020   1.000
    H32     H    0.16300   0.98950   0.77340   1.000
    H33     H    0.16640   0.91950   0.83180   1.000
    C10     C    0.20540   0.86100   0.69440   1.000
    H34     H    0.17080   0.89230   0.66360   1.000
    H35     H    0.23990   0.83280   0.66070   1.000
    H36     H    0.22660   0.98920   0.16270   1.000
    C11     C    0.30640   0.86120   0.20520   1.000
    H37     H    0.33680   0.89280   0.17060   1.000
    H38     H    0.34040   0.83340   0.23980   1.000
    H39     H    0.16300   0.01050   0.22660   1.000
    H40     H    0.16640   0.08050   0.16820   1.000
    C12     C    0.20540   0.13900   0.30560   1.000
    H41     H    0.17080   0.10770   0.33640   1.000
    H42     H    0.23990   0.16720   0.33930   1.000
    H43     H    0.77340   0.98920   0.83730   1.000
    C13     C    0.69360   0.86120   0.79480   1.000
    H44     H    0.66320   0.89280   0.82940   1.000
    H45     H    0.65960   0.83340   0.76020   1.000
    H46     H    0.83700   0.01050   0.77340   1.000
    H47     H    0.83360   0.08050   0.83180   1.000
    C14     C    0.79460   0.13900   0.69440   1.000
    H48     H    0.82920   0.10770   0.66360   1.000
    H49     H    0.76010   0.16720   0.66070   1.000
    H50     H    0.77340   0.01080   0.16270   1.000
    C15     C    0.69360   0.13880   0.20520   1.000
    H51     H    0.66320   0.10720   0.17060   1.000
    H52     H    0.65960   0.16660   0.23980   1.000
    H53     H    0.83700   0.98950   0.22660   1.000
    H54     H    0.83360   0.91950   0.16820   1.000
    C16     C    0.79460   0.86100   0.30560   1.000
    H55     H    0.82920   0.89230   0.33640   1.000
    H56     H    0.76010   0.83280   0.33930   1.000
    H57     H    0.83730   0.22660   0.01080   1.000
    C17     C    0.79480   0.30640   0.13880   1.000
    H58     H    0.82940   0.33680   0.10720   1.000
    H59     H    0.76020   0.34040   0.16660   1.000
    H60     H    0.77340   0.16300   0.98950   1.000
    H61     H    0.83180   0.16640   0.91950   1.000
    C18     C    0.69440   0.20540   0.86100   1.000
    H62     H    0.66360   0.17080   0.89230   1.000
    H63     H    0.66070   0.23990   0.83280   1.000
    H64     H    0.16270   0.22660   0.98920   1.000
    C19     C    0.20520   0.30640   0.86120   1.000
    H65     H    0.17060   0.33680   0.89280   1.000
    H66     H    0.23980   0.34040   0.83340   1.000
    H67     H    0.22660   0.16300   0.01050   1.000
    H68     H    0.16820   0.16640   0.08050   1.000
    C20     C    0.30560   0.20540   0.13900   1.000
    H69     H    0.33640   0.17080   0.10770   1.000
    H70     H    0.33930   0.23990   0.16720   1.000
    H71     H    0.83730   0.77340   0.98920   1.000
    C21     C    0.79480   0.69360   0.86120   1.000
    H72     H    0.82940   0.66320   0.89280   1.000
    H73     H    0.76020   0.65960   0.83340   1.000
    H74     H    0.77340   0.83700   0.01050   1.000
    H75     H    0.83180   0.83360   0.08050   1.000
    C22     C    0.69440   0.79460   0.13900   1.000
    H76     H    0.66360   0.82920   0.10770   1.000
    H77     H    0.66070   0.76010   0.16720   1.000
    H78     H    0.16270   0.77340   0.01080   1.000
    C23     C    0.20520   0.69360   0.13880   1.000
    H79     H    0.17060   0.66320   0.10720   1.000
    H80     H    0.23980   0.65960   0.16660   1.000
    H81     H    0.22660   0.83700   0.98950   1.000
    H82     H    0.16820   0.83360   0.91950   1.000
    C24     C    0.30560   0.79460   0.86100   1.000
    H83     H    0.33640   0.82920   0.89230   1.000
    H84     H    0.33930   0.76010   0.83280   1.000
    H85     H    0.83730   0.01080   0.22660   1.000
    C25     C    0.79480   0.13880   0.30640   1.000
    H86     H    0.82940   0.10720   0.33680   1.000
    H87     H    0.76020   0.16660   0.34040   1.000
    H88     H    0.77340   0.98950   0.16300   1.000
    H89     H    0.83180   0.91950   0.16640   1.000
    C26     C    0.69440   0.86100   0.20540   1.000
    H90     H    0.66360   0.89230   0.17080   1.000
    H91     H    0.66070   0.83280   0.23990   1.000
    H92     H    0.16270   0.98920   0.22660   1.000
    C27     C    0.20520   0.86120   0.30640   1.000
    H93     H    0.17060   0.89280   0.33680   1.000
    H94     H    0.23980   0.83340   0.34040   1.000
    H95     H    0.22660   0.01050   0.16300   1.000
    H96     H    0.16820   0.08050   0.16640   1.000
    C28     C    0.30560   0.13900   0.20540   1.000
    H97     H    0.33640   0.10770   0.17080   1.000
    H98     H    0.33930   0.16720   0.23990   1.000
    H99     H    0.83730   0.98920   0.77340   1.000
    C29     C    0.79480   0.86120   0.69360   1.000
    H100    H    0.82940   0.89280   0.66320   1.000
    H101    H    0.76020   0.83340   0.65960   1.000
    H102    H    0.77340   0.01050   0.83700   1.000
    H103    H    0.83180   0.08050   0.83360   1.000
    C30     C    0.69440   0.13900   0.79460   1.000
    H104    H    0.66360   0.10770   0.82920   1.000
    H105    H    0.66070   0.16720   0.76010   1.000
    H106    H    0.16270   0.01080   0.77340   1.000
    C31     C    0.20520   0.13880   0.69360   1.000
    H107    H    0.17060   0.10720   0.66320   1.000
    H108    H    0.23980   0.16660   0.65960   1.000
    H109    H    0.22660   0.98950   0.83700   1.000
    H110    H    0.16820   0.91950   0.83360   1.000
    C32     C    0.30560   0.86100   0.79460   1.000
    H111    H    0.33640   0.89230   0.82920   1.000
    H112    H    0.33930   0.83280   0.76010   1.000
    H113    H    0.01080   0.22660   0.83730   1.000
    C33     C    0.13880   0.30640   0.79480   1.000
    H114    H    0.10720   0.33680   0.82940   1.000
    H115    H    0.16660   0.34040   0.76020   1.000
    H116    H    0.98950   0.16300   0.77340   1.000
    H117    H    0.91950   0.16640   0.83180   1.000
    C34     C    0.86100   0.20540   0.69440   1.000
    H118    H    0.89230   0.17080   0.66360   1.000
    H119    H    0.83280   0.23990   0.66070   1.000
    H120    H    0.98920   0.22660   0.16270   1.000
    C35     C    0.86120   0.30640   0.20520   1.000
    H121    H    0.89280   0.33680   0.17060   1.000
    H122    H    0.83340   0.34040   0.23980   1.000
    H123    H    0.01050   0.16300   0.22660   1.000
    H124    H    0.08050   0.16640   0.16820   1.000
    C36     C    0.13900   0.20540   0.30560   1.000
    H125    H    0.10770   0.17080   0.33640   1.000
    H126    H    0.16720   0.23990   0.33930   1.000
    H127    H    0.98920   0.77340   0.83730   1.000
    C37     C    0.86120   0.69360   0.79480   1.000
    H128    H    0.89280   0.66320   0.82940   1.000
    H129    H    0.83340   0.65960   0.76020   1.000
    H130    H    0.01050   0.83700   0.77340   1.000
    H131    H    0.08050   0.83360   0.83180   1.000
    C38     C    0.13900   0.79460   0.69440   1.000
    H132    H    0.10770   0.82920   0.66360   1.000
    H133    H    0.16720   0.76010   0.66070   1.000
    H134    H    0.01080   0.77340   0.16270   1.000
    C39     C    0.13880   0.69360   0.20520   1.000
    H135    H    0.10720   0.66320   0.17060   1.000
    H136    H    0.16660   0.65960   0.23980   1.000
    H137    H    0.98950   0.83700   0.22660   1.000
    H138    H    0.91950   0.83360   0.16820   1.000
    C40     C    0.86100   0.79460   0.30560   1.000
    H139    H    0.89230   0.82920   0.33640   1.000
    H140    H    0.83280   0.76010   0.33930   1.000
    H141    H    0.22660   0.83730   0.01080   1.000
    C41     C    0.30640   0.79480   0.13880   1.000
    H142    H    0.33680   0.82940   0.10720   1.000
    H143    H    0.34040   0.76020   0.16660   1.000
    H144    H    0.16300   0.77340   0.98950   1.000
    H145    H    0.16640   0.83180   0.91950   1.000
    C42     C    0.20540   0.69440   0.86100   1.000
    H146    H    0.17080   0.66360   0.89230   1.000
    H147    H    0.23990   0.66070   0.83280   1.000
    H148    H    0.22660   0.16270   0.98920   1.000
    C43     C    0.30640   0.20520   0.86120   1.000
    H149    H    0.33680   0.17060   0.89280   1.000
    H150    H    0.34040   0.23980   0.83340   1.000
    H151    H    0.16300   0.22660   0.01050   1.000
    H152    H    0.16640   0.16820   0.08050   1.000
    C44     C    0.20540   0.30560   0.13900   1.000
    H153    H    0.17080   0.33640   0.10770   1.000
    H154    H    0.23990   0.33930   0.16720   1.000
    H155    H    0.77340   0.83730   0.98920   1.000
    C45     C    0.69360   0.79480   0.86120   1.000
    H156    H    0.66320   0.82940   0.89280   1.000
    H157    H    0.65960   0.76020   0.83340   1.000
    H158    H    0.83700   0.77340   0.01050   1.000
    H159    H    0.83360   0.83180   0.08050   1.000
    C46     C    0.79460   0.69440   0.13900   1.000
    H160    H    0.82920   0.66360   0.10770   1.000
    H161    H    0.76010   0.66070   0.16720   1.000
    H162    H    0.77340   0.16270   0.01080   1.000
    C47     C    0.69360   0.20520   0.13880   1.000
    H163    H    0.66320   0.17060   0.10720   1.000
    H164    H    0.65960   0.23980   0.16660   1.000
    H165    H    0.83700   0.22660   0.98950   1.000
    H166    H    0.83360   0.16820   0.91950   1.000
    C48     C    0.79460   0.30560   0.86100   1.000
    H167    H    0.82920   0.33640   0.89230   1.000
    H168    H    0.76010   0.33930   0.83280   1.000
    O1      O    0.50000   0.50000   0.50000   1.000
    C49     C    0.29260   0.50000   0.50000   1.000
    C50     C    0.20400   0.50000   0.50000   1.000
    C51     C    0.04260   0.50000   0.50000   1.000
    C52     C    0.70740   0.50000   0.50000   1.000
    C53     C    0.79600   0.50000   0.50000   1.000
    C54     C    0.95740   0.50000   0.50000   1.000
    C55     C    0.50000   0.29260   0.50000   1.000
    C56     C    0.50000   0.20400   0.50000   1.000
    C57     C    0.50000   0.04260   0.50000   1.000
    C58     C    0.50000   0.70740   0.50000   1.000
    C59     C    0.50000   0.79600   0.50000   1.000
    C60     C    0.50000   0.95740   0.50000   1.000
    C61     C    0.50000   0.50000   0.29260   1.000
    C62     C    0.50000   0.50000   0.20400   1.000
    C63     C    0.50000   0.50000   0.04260   1.000
    C64     C    0.50000   0.50000   0.70740   1.000
    C65     C    0.50000   0.50000   0.79600   1.000
    C66     C    0.50000   0.50000   0.95740   1.000
    Zn1     Zn   0.43504   0.43504   0.56496   1.000
    Zn2     Zn   0.56496   0.56496   0.56496   1.000
    Zn3     Zn   0.56496   0.43504   0.43504   1.000
    Zn4     Zn   0.43504   0.56496   0.43504   1.000
    O2      O    0.32570   0.45240   0.54760   1.000
    C67     C    0.16400   0.54940   0.45060   1.000
    H169    H    0.19120   0.58250   0.41750   1.000
    C68     C    0.08320   0.54960   0.45040   1.000
    N1      N    0.04610   0.60050   0.39950   1.000
    H170    H    0.99600   0.59960   0.40040   1.000
    C69     C    0.07990   0.65390   0.34610   1.000
    C70     C    0.08710   0.74765   0.25235   1.000
    C71     C    0.04350   0.80310   0.19690   1.000
    H171    H    0.08050   0.83270   0.16730   1.000
    O3      O    0.03290   0.70410   0.29590   1.000
    O4      O    0.15110   0.65680   0.34320   1.000
    N2      N    0.95390   0.60000   0.40000   1.000
    H172    H    0.00400   0.59900   0.40100   1.000
    C72     C    0.92010   0.65390   0.34610   1.000
    C73     C    0.91290   0.74760   0.25240   1.000
    C74     C    0.95650   0.80310   0.19690   1.000
    O5      O    0.96710   0.70410   0.29590   1.000
    O6      O    0.84890   0.65680   0.34320   1.000
    H173    H    0.05350   0.58850   0.41150   1.000
    C75     C    0.83620   0.45030   0.54970   1.000
    C76     C    0.91730   0.45030   0.54970   1.000
    H174    H    0.80910   0.41720   0.58280   1.000
    O7      O    0.66900   0.45600   0.54400   1.000
    O8      O    0.67430   0.54760   0.54760   1.000
    C77     C    0.83600   0.45060   0.45060   1.000
    H175    H    0.80880   0.41750   0.41750   1.000
    C78     C    0.91680   0.45040   0.45040   1.000
    N3      N    0.95390   0.39950   0.39950   1.000
    H176    H    0.00400   0.40040   0.40040   1.000
    C79     C    0.92010   0.34610   0.34610   1.000
    C80     C    0.91290   0.25235   0.25235   1.000
    C81     C    0.95650   0.19690   0.19690   1.000
    H177    H    0.91950   0.16730   0.16730   1.000
    O9      O    0.96710   0.29590   0.29590   1.000
    O10     O    0.84890   0.34320   0.34320   1.000
    N4      N    0.04610   0.40000   0.40000   1.000
    H178    H    0.99600   0.40100   0.40100   1.000
    C82     C    0.07990   0.34610   0.34610   1.000
    C83     C    0.08710   0.25240   0.25240   1.000
    C84     C    0.04350   0.19690   0.19690   1.000
    O11     O    0.03290   0.29590   0.29590   1.000
    O12     O    0.15110   0.34320   0.34320   1.000
    H179    H    0.94650   0.41150   0.41150   1.000
    C85     C    0.16380   0.54970   0.54970   1.000
    C86     C    0.08270   0.54970   0.54970   1.000
    H180    H    0.19090   0.58280   0.58280   1.000
    O13     O    0.33100   0.54400   0.54400   1.000
    O14     O    0.67430   0.45240   0.45240   1.000
    C87     C    0.83600   0.54940   0.54940   1.000
    H181    H    0.80880   0.58250   0.58250   1.000
    C88     C    0.91680   0.54960   0.54960   1.000
    N5      N    0.95390   0.60050   0.60050   1.000
    H182    H    0.00400   0.59960   0.59960   1.000
    C89     C    0.92010   0.65390   0.65390   1.000
    C90     C    0.91290   0.74765   0.74765   1.000
    C91     C    0.95650   0.80310   0.80310   1.000
    H183    H    0.91950   0.83270   0.83270   1.000
    O15     O    0.96710   0.70410   0.70410   1.000
    O16     O    0.84890   0.65680   0.65680   1.000
    N6      N    0.04610   0.60000   0.60000   1.000
    H184    H    0.99600   0.59900   0.59900   1.000
    C92     C    0.07990   0.65390   0.65390   1.000
    C93     C    0.08710   0.74760   0.74760   1.000
    C94     C    0.04350   0.80310   0.80310   1.000
    O17     O    0.03290   0.70410   0.70410   1.000
    O18     O    0.15110   0.65680   0.65680   1.000
    H185    H    0.94650   0.58850   0.58850   1.000
    C95     C    0.16380   0.45030   0.45030   1.000
    C96     C    0.08270   0.45030   0.45030   1.000
    H186    H    0.19090   0.41720   0.41720   1.000
    O19     O    0.33100   0.45600   0.45600   1.000
    O20     O    0.32570   0.54760   0.45240   1.000
    C97     C    0.16400   0.45060   0.54940   1.000
    H187    H    0.19120   0.41750   0.58250   1.000
    C98     C    0.08320   0.45040   0.54960   1.000
    N7      N    0.04610   0.39950   0.60050   1.000
    H188    H    0.99600   0.40040   0.59960   1.000
    C99     C    0.07990   0.34610   0.65390   1.000
    C100    C    0.08710   0.25235   0.74765   1.000
    C101    C    0.04350   0.19690   0.80310   1.000
    H189    H    0.08050   0.16730   0.83270   1.000
    O21     O    0.03290   0.29590   0.70410   1.000
    O22     O    0.15110   0.34320   0.65680   1.000
    N8      N    0.95390   0.40000   0.60000   1.000
    H190    H    0.00400   0.40100   0.59900   1.000
    C102    C    0.92010   0.34610   0.65390   1.000
    C103    C    0.91290   0.25240   0.74760   1.000
    C104    C    0.95650   0.19690   0.80310   1.000
    O23     O    0.96710   0.29590   0.70410   1.000
    O24     O    0.84890   0.34320   0.65680   1.000
    H191    H    0.05350   0.41150   0.58850   1.000
    C105    C    0.83620   0.54970   0.45030   1.000
    C106    C    0.91730   0.54970   0.45030   1.000
    H192    H    0.80910   0.58280   0.41720   1.000
    O25     O    0.66900   0.54400   0.45600   1.000
    O26     O    0.54760   0.32570   0.45240   1.000
    C107    C    0.45060   0.16400   0.54940   1.000
    H193    H    0.41750   0.19120   0.58250   1.000
    C108    C    0.45040   0.08320   0.54960   1.000
    N9      N    0.39950   0.04610   0.60050   1.000
    H194    H    0.40040   0.99600   0.59960   1.000
    C109    C    0.34610   0.07990   0.65390   1.000
    C110    C    0.25235   0.08710   0.74765   1.000
    C111    C    0.19690   0.04350   0.80310   1.000
    H195    H    0.16730   0.08050   0.83270   1.000
    O27     O    0.29590   0.03290   0.70410   1.000
    O28     O    0.34320   0.15110   0.65680   1.000
    N10     N    0.40000   0.95390   0.60000   1.000
    H196    H    0.40100   0.00400   0.59900   1.000
    C112    C    0.34610   0.92010   0.65390   1.000
    C113    C    0.25240   0.91290   0.74760   1.000
    C114    C    0.19690   0.95650   0.80310   1.000
    O29     O    0.29590   0.96710   0.70410   1.000
    O30     O    0.34320   0.84890   0.65680   1.000
    H197    H    0.41150   0.05350   0.58850   1.000
    C115    C    0.54970   0.83620   0.45030   1.000
    C116    C    0.54970   0.91730   0.45030   1.000
    H198    H    0.58280   0.80910   0.41720   1.000
    O31     O    0.54400   0.66900   0.45600   1.000
    O32     O    0.54760   0.67430   0.54760   1.000
    C117    C    0.45060   0.83600   0.45060   1.000
    H199    H    0.41750   0.80880   0.41750   1.000
    C118    C    0.45040   0.91680   0.45040   1.000
    N11     N    0.39950   0.95390   0.39950   1.000
    H200    H    0.40040   0.00400   0.40040   1.000
    C119    C    0.34610   0.92010   0.34610   1.000
    C120    C    0.25235   0.91290   0.25235   1.000
    C121    C    0.19690   0.95650   0.19690   1.000
    H201    H    0.16730   0.91950   0.16730   1.000
    O33     O    0.29590   0.96710   0.29590   1.000
    O34     O    0.34320   0.84890   0.34320   1.000
    N12     N    0.40000   0.04610   0.40000   1.000
    H202    H    0.40100   0.99600   0.40100   1.000
    C122    C    0.34610   0.07990   0.34610   1.000
    C123    C    0.25240   0.08710   0.25240   1.000
    C124    C    0.19690   0.04350   0.19690   1.000
    O35     O    0.29590   0.03290   0.29590   1.000
    O36     O    0.34320   0.15110   0.34320   1.000
    H203    H    0.41150   0.94650   0.41150   1.000
    C125    C    0.54970   0.16380   0.54970   1.000
    C126    C    0.54970   0.08270   0.54970   1.000
    H204    H    0.58280   0.19090   0.58280   1.000
    O37     O    0.54400   0.33100   0.54400   1.000
    O38     O    0.45240   0.67430   0.45240   1.000
    C127    C    0.54940   0.83600   0.54940   1.000
    H205    H    0.58250   0.80880   0.58250   1.000
    C128    C    0.54960   0.91680   0.54960   1.000
    N13     N    0.60050   0.95390   0.60050   1.000
    H206    H    0.59960   0.00400   0.59960   1.000
    C129    C    0.65390   0.92010   0.65390   1.000
    C130    C    0.74765   0.91290   0.74765   1.000
    C131    C    0.80310   0.95650   0.80310   1.000
    H207    H    0.83270   0.91950   0.83270   1.000
    O39     O    0.70410   0.96710   0.70410   1.000
    O40     O    0.65680   0.84890   0.65680   1.000
    N14     N    0.60000   0.04610   0.60000   1.000
    H208    H    0.59900   0.99600   0.59900   1.000
    C132    C    0.65390   0.07990   0.65390   1.000
    C133    C    0.74760   0.08710   0.74760   1.000
    C134    C    0.80310   0.04350   0.80310   1.000
    O41     O    0.70410   0.03290   0.70410   1.000
    O42     O    0.65680   0.15110   0.65680   1.000
    H209    H    0.58850   0.94650   0.58850   1.000
    C135    C    0.45030   0.16380   0.45030   1.000
    C136    C    0.45030   0.08270   0.45030   1.000
    H210    H    0.41720   0.19090   0.41720   1.000
    O43     O    0.45600   0.33100   0.45600   1.000
    O44     O    0.45240   0.32570   0.54760   1.000
    C137    C    0.54940   0.16400   0.45060   1.000
    H211    H    0.58250   0.19120   0.41750   1.000
    C138    C    0.54960   0.08320   0.45040   1.000
    N15     N    0.60050   0.04610   0.39950   1.000
    H212    H    0.59960   0.99600   0.40040   1.000
    C139    C    0.65390   0.07990   0.34610   1.000
    C140    C    0.74765   0.08710   0.25235   1.000
    C141    C    0.80310   0.04350   0.19690   1.000
    H213    H    0.83270   0.08050   0.16730   1.000
    O45     O    0.70410   0.03290   0.29590   1.000
    O46     O    0.65680   0.15110   0.34320   1.000
    N16     N    0.60000   0.95390   0.40000   1.000
    H214    H    0.59900   0.00400   0.40100   1.000
    C142    C    0.65390   0.92010   0.34610   1.000
    C143    C    0.74760   0.91290   0.25240   1.000
    C144    C    0.80310   0.95650   0.19690   1.000
    O47     O    0.70410   0.96710   0.29590   1.000
    O48     O    0.65680   0.84890   0.34320   1.000
    H215    H    0.58850   0.05350   0.41150   1.000
    C145    C    0.45030   0.83620   0.54970   1.000
    C146    C    0.45030   0.91730   0.54970   1.000
    H216    H    0.41720   0.80910   0.58280   1.000
    O49     O    0.45600   0.66900   0.54400   1.000
    O50     O    0.45240   0.54760   0.32570   1.000
    C147    C    0.54940   0.45060   0.16400   1.000
    H217    H    0.58250   0.41750   0.19120   1.000
    C148    C    0.54960   0.45040   0.08320   1.000
    N17     N    0.60050   0.39950   0.04610   1.000
    H218    H    0.59960   0.40040   0.99600   1.000
    C149    C    0.65390   0.34610   0.07990   1.000
    C150    C    0.74765   0.25235   0.08710   1.000
    C151    C    0.80310   0.19690   0.04350   1.000
    H219    H    0.83270   0.16730   0.08050   1.000
    O51     O    0.70410   0.29590   0.03290   1.000
    O52     O    0.65680   0.34320   0.15110   1.000
    N18     N    0.60000   0.40000   0.95390   1.000
    H220    H    0.59900   0.40100   0.00400   1.000
    C152    C    0.65390   0.34610   0.92010   1.000
    C153    C    0.74760   0.25240   0.91290   1.000
    C154    C    0.80310   0.19690   0.95650   1.000
    O53     O    0.70410   0.29590   0.96710   1.000
    O54     O    0.65680   0.34320   0.84890   1.000
    H221    H    0.58850   0.41150   0.05350   1.000
    C155    C    0.45030   0.54970   0.83620   1.000
    C156    C    0.45030   0.54970   0.91730   1.000
    H222    H    0.41720   0.58280   0.80910   1.000
    O55     O    0.45600   0.54400   0.66900   1.000
    O56     O    0.54760   0.54760   0.67430   1.000
    C157    C    0.45060   0.45060   0.83600   1.000
    H223    H    0.41750   0.41750   0.80880   1.000
    C158    C    0.45040   0.45040   0.91680   1.000
    N19     N    0.39950   0.39950   0.95390   1.000
    H224    H    0.40040   0.40040   0.00400   1.000
    C159    C    0.34610   0.34610   0.92010   1.000
    C160    C    0.25235   0.25235   0.91290   1.000
    C161    C    0.19690   0.19690   0.95650   1.000
    H225    H    0.16730   0.16730   0.91950   1.000
    O57     O    0.29590   0.29590   0.96710   1.000
    O58     O    0.34320   0.34320   0.84890   1.000
    N20     N    0.40000   0.40000   0.04610   1.000
    H226    H    0.40100   0.40100   0.99600   1.000
    C162    C    0.34610   0.34610   0.07990   1.000
    C163    C    0.25240   0.25240   0.08710   1.000
    C164    C    0.19690   0.19690   0.04350   1.000
    O59     O    0.29590   0.29590   0.03290   1.000
    O60     O    0.34320   0.34320   0.15110   1.000
    H227    H    0.41150   0.41150   0.94650   1.000
    C165    C    0.54970   0.54970   0.16380   1.000
    C166    C    0.54970   0.54970   0.08270   1.000
    H228    H    0.58280   0.58280   0.19090   1.000
    O61     O    0.54400   0.54400   0.33100   1.000
    O62     O    0.45240   0.45240   0.67430   1.000
    C167    C    0.54940   0.54940   0.83600   1.000
    H229    H    0.58250   0.58250   0.80880   1.000
    C168    C    0.54960   0.54960   0.91680   1.000
    N21     N    0.60050   0.60050   0.95390   1.000
    H230    H    0.59960   0.59960   0.00400   1.000
    C169    C    0.65390   0.65390   0.92010   1.000
    C170    C    0.74765   0.74765   0.91290   1.000
    C171    C    0.80310   0.80310   0.95650   1.000
    H231    H    0.83270   0.83270   0.91950   1.000
    O63     O    0.70410   0.70410   0.96710   1.000
    O64     O    0.65680   0.65680   0.84890   1.000
    N22     N    0.60000   0.60000   0.04610   1.000
    H232    H    0.59900   0.59900   0.99600   1.000
    C172    C    0.65390   0.65390   0.07990   1.000
    C173    C    0.74760   0.74760   0.08710   1.000
    C174    C    0.80310   0.80310   0.04350   1.000
    O65     O    0.70410   0.70410   0.03290   1.000
    O66     O    0.65680   0.65680   0.15110   1.000
    H233    H    0.58850   0.58850   0.94650   1.000
    C175    C    0.45030   0.45030   0.16380   1.000
    C176    C    0.45030   0.45030   0.08270   1.000
    H234    H    0.41720   0.41720   0.19090   1.000
    O67     O    0.45600   0.45600   0.33100   1.000
    O68     O    0.54760   0.45240   0.32570   1.000
    C177    C    0.45060   0.54940   0.16400   1.000
    H235    H    0.41750   0.58250   0.19120   1.000
    C178    C    0.45040   0.54960   0.08320   1.000
    N23     N    0.39950   0.60050   0.04610   1.000
    H236    H    0.40040   0.59960   0.99600   1.000
    C179    C    0.34610   0.65390   0.07990   1.000
    C180    C    0.25235   0.74765   0.08710   1.000
    C181    C    0.19690   0.80310   0.04350   1.000
    H237    H    0.16730   0.83270   0.08050   1.000
    O69     O    0.29590   0.70410   0.03290   1.000
    O70     O    0.34320   0.65680   0.15110   1.000
    N24     N    0.40000   0.60000   0.95390   1.000
    H238    H    0.40100   0.59900   0.00400   1.000
    C182    C    0.34610   0.65390   0.92010   1.000
    C183    C    0.25240   0.74760   0.91290   1.000
    C184    C    0.19690   0.80310   0.95650   1.000
    O71     O    0.29590   0.70410   0.96710   1.000
    O72     O    0.34320   0.65680   0.84890   1.000
    H239    H    0.41150   0.58850   0.05350   1.000
    C185    C    0.54970   0.45030   0.83620   1.000
    C186    C    0.54970   0.45030   0.91730   1.000
    H240    H    0.58280   0.41720   0.80910   1.000
    O73     O    0.54400   0.45600   0.66900   1.000
    H241    H    0.17535   0.82465   0.27610   1.000
    H242    H    0.82465   0.17535   0.27610   1.000
    H243    H    0.82465   0.82465   0.72390   1.000
    H244    H    0.17535   0.17535   0.72390   1.000
    H245    H    0.27610   0.17535   0.82465   1.000
    H246    H    0.27610   0.82465   0.17535   1.000
    H247    H    0.72390   0.82465   0.82465   1.000
    H248    H    0.72390   0.17535   0.17535   1.000
    H249    H    0.82465   0.27610   0.17535   1.000
    H250    H    0.17535   0.27610   0.82465   1.000
    H251    H    0.82465   0.72390   0.82465   1.000
    H252    H    0.17535   0.72390   0.17535   1.000
    H253    H    0.05350   0.41150   0.41150   1.000
    H254    H    0.94650   0.58850   0.41150   1.000
    H255    H    0.94650   0.41150   0.58850   1.000
    H256    H    0.05350   0.58850   0.58850   1.000
    H257    H    0.41150   0.05350   0.41150   1.000
    H258    H    0.41150   0.94650   0.58850   1.000
    H259    H    0.58850   0.94650   0.41150   1.000
    H260    H    0.58850   0.05350   0.58850   1.000
    H261    H    0.41150   0.41150   0.05350   1.000
    H262    H    0.58850   0.41150   0.94650   1.000
    H263    H    0.41150   0.58850   0.94650   1.000
    H264    H    0.58850   0.58850   0.05350   1.000
    H265    H    0.82470   0.72500   0.17530   1.000
    H266    H    0.17530   0.27500   0.17530   1.000
    H267    H    0.17530   0.72500   0.82470   1.000
    H268    H    0.82470   0.27500   0.82470   1.000
    H269    H    0.17530   0.82470   0.72500   1.000
    H270    H    0.17530   0.17530   0.27500   1.000
    H271    H    0.82470   0.17530   0.72500   1.000
    H272    H    0.82470   0.82470   0.27500   1.000
    H273    H    0.72500   0.17530   0.82470   1.000
    H274    H    0.27500   0.17530   0.17530   1.000
    H275    H    0.72500   0.82470   0.17530   1.000
    H276    H    0.27500   0.82470   0.82470   1.000
    Zn5     Zn   0.43660   0.43660   0.43660   1.000
    Zn6     Zn   0.56340   0.56340   0.43660   1.000
    Zn7     Zn   0.56340   0.43660   0.56340   1.000
    Zn8     Zn   0.43660   0.56340   0.56340   1.000
