# CIF file generated by openbabel 2.4.1, see http://openbabel.sf.net
data_I
_chemical_name_common 'image0'
_cell_length_a 16.986
_cell_length_b 16.986
_cell_length_c 16.986
_cell_angle_alpha 90
_cell_angle_beta 90
_cell_angle_gamma 90
_space_group_name_H-M_alt 'P 1'
_space_group_name_Hall 'P 1'
loop_
    _symmetry_equiv_pos_as_xyz
    x,y,z
loop_
    _atom_site_label
    _atom_site_type_symbol
    _atom_site_fract_x
    _atom_site_fract_y
    _atom_site_fract_z
    _atom_site_occupancy
    N1      N    0.59022   0.96843   0.31760   1.000
    C1      C    0.63070   0.89863   0.31391   1.000
    H1      H    0.62100   0.85800   0.27850   1.000
    H2      H    0.55010   0.10200   0.37460   1.000
    H3      H    0.57950   0.08160   0.45970   1.000
    H4      H    0.63600   0.12390   0.40020   1.000
    H5      H    0.57720   0.08110   0.45900   1.000
    H6      H    0.55160   0.10310   0.37310   1.000
    H7      H    0.63670   0.12340   0.40250   1.000
    N2      N    0.09022   0.46843   0.81760   1.000
    C2      C    0.13070   0.39863   0.81391   1.000
    H8      H    0.12100   0.35800   0.77850   1.000
    H9      H    0.05010   0.60200   0.87460   1.000
    H10     H    0.07950   0.58160   0.95970   1.000
    H11     H    0.13600   0.62390   0.90020   1.000
    H12     H    0.07720   0.58110   0.95900   1.000
    H13     H    0.05160   0.60310   0.87310   1.000
    H14     H    0.13670   0.62340   0.90250   1.000
    N3      N    0.40978   0.03157   0.31760   1.000
    C3      C    0.36930   0.10137   0.31391   1.000
    H15     H    0.37900   0.14200   0.27850   1.000
    H16     H    0.44990   0.89800   0.37460   1.000
    H17     H    0.42050   0.91840   0.45970   1.000
    H18     H    0.36400   0.87610   0.40020   1.000
    H19     H    0.42280   0.91890   0.45900   1.000
    H20     H    0.44840   0.89690   0.37310   1.000
    H21     H    0.36330   0.87660   0.40250   1.000
    N4      N    0.90978   0.53157   0.81760   1.000
    C4      C    0.86930   0.60137   0.81391   1.000
    H22     H    0.87900   0.64200   0.77850   1.000
    H23     H    0.94990   0.39800   0.87460   1.000
    H24     H    0.92050   0.41840   0.95970   1.000
    H25     H    0.86400   0.37610   0.90020   1.000
    H26     H    0.92280   0.41890   0.95900   1.000
    H27     H    0.94840   0.39690   0.87310   1.000
    H28     H    0.86330   0.37660   0.90250   1.000
    N5      N    0.40978   0.96843   0.68240   1.000
    C5      C    0.36930   0.89863   0.68609   1.000
    H29     H    0.37900   0.85800   0.72150   1.000
    H30     H    0.44990   0.10200   0.62540   1.000
    H31     H    0.42050   0.08160   0.54030   1.000
    H32     H    0.36400   0.12390   0.59980   1.000
    H33     H    0.42280   0.08110   0.54100   1.000
    H34     H    0.44840   0.10310   0.62690   1.000
    H35     H    0.36330   0.12340   0.59750   1.000
    N6      N    0.90978   0.46843   0.18240   1.000
    C6      C    0.86930   0.39863   0.18609   1.000
    H36     H    0.87900   0.35800   0.22150   1.000
    H37     H    0.94990   0.60200   0.12540   1.000
    H38     H    0.92050   0.58160   0.04030   1.000
    H39     H    0.86400   0.62390   0.09980   1.000
    H40     H    0.92280   0.58110   0.04100   1.000
    H41     H    0.94840   0.60310   0.12690   1.000
    H42     H    0.86330   0.62340   0.09750   1.000
    N7      N    0.59022   0.03157   0.68240   1.000
    C7      C    0.63070   0.10137   0.68609   1.000
    H43     H    0.62100   0.14200   0.72150   1.000
    H44     H    0.55010   0.89800   0.62540   1.000
    H45     H    0.57950   0.91840   0.54030   1.000
    H46     H    0.63600   0.87610   0.59980   1.000
    H47     H    0.57720   0.91890   0.54100   1.000
    H48     H    0.55160   0.89690   0.62690   1.000
    H49     H    0.63670   0.87660   0.59750   1.000
    N8      N    0.09022   0.53157   0.18240   1.000
    C8      C    0.13070   0.60137   0.18609   1.000
    H50     H    0.12100   0.64200   0.22150   1.000
    H51     H    0.05010   0.39800   0.12540   1.000
    H52     H    0.07950   0.41840   0.04030   1.000
    H53     H    0.13600   0.37610   0.09980   1.000
    H54     H    0.07720   0.41890   0.04100   1.000
    H55     H    0.05160   0.39690   0.12690   1.000
    H56     H    0.13670   0.37660   0.09750   1.000
    N9      N    0.31760   0.59022   0.96843   1.000
    C9      C    0.31391   0.63070   0.89863   1.000
    H57     H    0.27850   0.62100   0.85800   1.000
    H58     H    0.37460   0.55010   0.10200   1.000
    H59     H    0.45970   0.57950   0.08160   1.000
    H60     H    0.40020   0.63600   0.12390   1.000
    H61     H    0.45900   0.57720   0.08110   1.000
    H62     H    0.37310   0.55160   0.10310   1.000
    H63     H    0.40250   0.63670   0.12340   1.000
    N10     N    0.81760   0.09022   0.46843   1.000
    C10     C    0.81391   0.13070   0.39863   1.000
    H64     H    0.77850   0.12100   0.35800   1.000
    H65     H    0.87460   0.05010   0.60200   1.000
    H66     H    0.95970   0.07950   0.58160   1.000
    H67     H    0.90020   0.13600   0.62390   1.000
    H68     H    0.95900   0.07720   0.58110   1.000
    H69     H    0.87310   0.05160   0.60310   1.000
    H70     H    0.90250   0.13670   0.62340   1.000
    N11     N    0.31760   0.40978   0.03157   1.000
    C11     C    0.31391   0.36930   0.10137   1.000
    H71     H    0.27850   0.37900   0.14200   1.000
    H72     H    0.37460   0.44990   0.89800   1.000
    H73     H    0.45970   0.42050   0.91840   1.000
    H74     H    0.40020   0.36400   0.87610   1.000
    H75     H    0.45900   0.42280   0.91890   1.000
    H76     H    0.37310   0.44840   0.89690   1.000
    H77     H    0.40250   0.36330   0.87660   1.000
    N12     N    0.81760   0.90978   0.53157   1.000
    C12     C    0.81391   0.86930   0.60137   1.000
    H78     H    0.77850   0.87900   0.64200   1.000
    H79     H    0.87460   0.94990   0.39800   1.000
    H80     H    0.95970   0.92050   0.41840   1.000
    H81     H    0.90020   0.86400   0.37610   1.000
    H82     H    0.95900   0.92280   0.41890   1.000
    H83     H    0.87310   0.94840   0.39690   1.000
    H84     H    0.90250   0.86330   0.37660   1.000
    N13     N    0.68240   0.40978   0.96843   1.000
    C13     C    0.68609   0.36930   0.89863   1.000
    H85     H    0.72150   0.37900   0.85800   1.000
    H86     H    0.62540   0.44990   0.10200   1.000
    H87     H    0.54030   0.42050   0.08160   1.000
    H88     H    0.59980   0.36400   0.12390   1.000
    H89     H    0.54100   0.42280   0.08110   1.000
    H90     H    0.62690   0.44840   0.10310   1.000
    H91     H    0.59750   0.36330   0.12340   1.000
    N14     N    0.18240   0.90978   0.46843   1.000
    C14     C    0.18609   0.86930   0.39863   1.000
    H92     H    0.22150   0.87900   0.35800   1.000
    H93     H    0.12540   0.94990   0.60200   1.000
    H94     H    0.04030   0.92050   0.58160   1.000
    H95     H    0.09980   0.86400   0.62390   1.000
    H96     H    0.04100   0.92280   0.58110   1.000
    H97     H    0.12690   0.94840   0.60310   1.000
    H98     H    0.09750   0.86330   0.62340   1.000
    N15     N    0.68240   0.59022   0.03157   1.000
    C15     C    0.68609   0.63070   0.10137   1.000
    H99     H    0.72150   0.62100   0.14200   1.000
    H100    H    0.62540   0.55010   0.89800   1.000
    H101    H    0.54030   0.57950   0.91840   1.000
    H102    H    0.59980   0.63600   0.87610   1.000
    H103    H    0.54100   0.57720   0.91890   1.000
    H104    H    0.62690   0.55160   0.89690   1.000
    H105    H    0.59750   0.63670   0.87660   1.000
    N16     N    0.18240   0.09022   0.53157   1.000
    C16     C    0.18609   0.13070   0.60137   1.000
    H106    H    0.22150   0.12100   0.64200   1.000
    H107    H    0.12540   0.05010   0.39800   1.000
    H108    H    0.04030   0.07950   0.41840   1.000
    H109    H    0.09980   0.13600   0.37610   1.000
    H110    H    0.04100   0.07720   0.41890   1.000
    H111    H    0.12690   0.05160   0.39690   1.000
    H112    H    0.09750   0.13670   0.37660   1.000
    N17     N    0.96843   0.31760   0.59022   1.000
    C17     C    0.89863   0.31391   0.63070   1.000
    H113    H    0.85800   0.27850   0.62100   1.000
    H114    H    0.10200   0.37460   0.55010   1.000
    H115    H    0.08160   0.45970   0.57950   1.000
    H116    H    0.12390   0.40020   0.63600   1.000
    H117    H    0.08110   0.45900   0.57720   1.000
    H118    H    0.10310   0.37310   0.55160   1.000
    H119    H    0.12340   0.40250   0.63670   1.000
    N18     N    0.46843   0.81760   0.09022   1.000
    C18     C    0.39863   0.81391   0.13070   1.000
    H120    H    0.35800   0.77850   0.12100   1.000
    H121    H    0.60200   0.87460   0.05010   1.000
    H122    H    0.58160   0.95970   0.07950   1.000
    H123    H    0.62390   0.90020   0.13600   1.000
    H124    H    0.58110   0.95900   0.07720   1.000
    H125    H    0.60310   0.87310   0.05160   1.000
    H126    H    0.62340   0.90250   0.13670   1.000
    N19     N    0.03157   0.31760   0.40978   1.000
    C19     C    0.10137   0.31391   0.36930   1.000
    H127    H    0.14200   0.27850   0.37900   1.000
    H128    H    0.89800   0.37460   0.44990   1.000
    H129    H    0.91840   0.45970   0.42050   1.000
    H130    H    0.87610   0.40020   0.36400   1.000
    H131    H    0.91890   0.45900   0.42280   1.000
    H132    H    0.89690   0.37310   0.44840   1.000
    H133    H    0.87660   0.40250   0.36330   1.000
    N20     N    0.53157   0.81760   0.90978   1.000
    C20     C    0.60137   0.81391   0.86930   1.000
    H134    H    0.64200   0.77850   0.87900   1.000
    H135    H    0.39800   0.87460   0.94990   1.000
    H136    H    0.41840   0.95970   0.92050   1.000
    H137    H    0.37610   0.90020   0.86400   1.000
    H138    H    0.41890   0.95900   0.92280   1.000
    H139    H    0.39690   0.87310   0.94840   1.000
    H140    H    0.37660   0.90250   0.86330   1.000
    N21     N    0.96843   0.68240   0.40978   1.000
    C21     C    0.89863   0.68609   0.36930   1.000
    H141    H    0.85800   0.72150   0.37900   1.000
    H142    H    0.10200   0.62540   0.44990   1.000
    H143    H    0.08160   0.54030   0.42050   1.000
    H144    H    0.12390   0.59980   0.36400   1.000
    H145    H    0.08110   0.54100   0.42280   1.000
    H146    H    0.10310   0.62690   0.44840   1.000
    H147    H    0.12340   0.59750   0.36330   1.000
    N22     N    0.46843   0.18240   0.90978   1.000
    C22     C    0.39863   0.18609   0.86930   1.000
    H148    H    0.35800   0.22150   0.87900   1.000
    H149    H    0.60200   0.12540   0.94990   1.000
    H150    H    0.58160   0.04030   0.92050   1.000
    H151    H    0.62390   0.09980   0.86400   1.000
    H152    H    0.58110   0.04100   0.92280   1.000
    H153    H    0.60310   0.12690   0.94840   1.000
    H154    H    0.62340   0.09750   0.86330   1.000
    N23     N    0.03157   0.68240   0.59022   1.000
    C23     C    0.10137   0.68609   0.63070   1.000
    H155    H    0.14200   0.72150   0.62100   1.000
    H156    H    0.89800   0.62540   0.55010   1.000
    H157    H    0.91840   0.54030   0.57950   1.000
    H158    H    0.87610   0.59980   0.63600   1.000
    H159    H    0.91890   0.54100   0.57720   1.000
    H160    H    0.89690   0.62690   0.55160   1.000
    H161    H    0.87660   0.59750   0.63670   1.000
    N24     N    0.53157   0.18240   0.09022   1.000
    C24     C    0.60137   0.18609   0.13070   1.000
    H162    H    0.64200   0.22150   0.12100   1.000
    H163    H    0.39800   0.12540   0.05010   1.000
    H164    H    0.41840   0.04030   0.07950   1.000
    H165    H    0.37610   0.09980   0.13600   1.000
    H166    H    0.41890   0.04100   0.07720   1.000
    H167    H    0.39690   0.12690   0.05160   1.000
    H168    H    0.37660   0.09750   0.13670   1.000
    N25     N    0.96843   0.59022   0.31760   1.000
    C25     C    0.89863   0.63070   0.31391   1.000
    H169    H    0.85800   0.62100   0.27850   1.000
    H170    H    0.10200   0.55010   0.37460   1.000
    H171    H    0.08160   0.57950   0.45970   1.000
    H172    H    0.12390   0.63600   0.40020   1.000
    H173    H    0.08110   0.57720   0.45900   1.000
    H174    H    0.10310   0.55160   0.37310   1.000
    H175    H    0.12340   0.63670   0.40250   1.000
    N26     N    0.46843   0.09022   0.81760   1.000
    C26     C    0.39863   0.13070   0.81391   1.000
    H176    H    0.35800   0.12100   0.77850   1.000
    H177    H    0.60200   0.05010   0.87460   1.000
    H178    H    0.58160   0.07950   0.95970   1.000
    H179    H    0.62390   0.13600   0.90020   1.000
    H180    H    0.58110   0.07720   0.95900   1.000
    H181    H    0.60310   0.05160   0.87310   1.000
    H182    H    0.62340   0.13670   0.90250   1.000
    N27     N    0.03157   0.40978   0.31760   1.000
    C27     C    0.10137   0.36930   0.31391   1.000
    H183    H    0.14200   0.37900   0.27850   1.000
    H184    H    0.89800   0.44990   0.37460   1.000
    H185    H    0.91840   0.42050   0.45970   1.000
    H186    H    0.87610   0.36400   0.40020   1.000
    H187    H    0.91890   0.42280   0.45900   1.000
    H188    H    0.89690   0.44840   0.37310   1.000
    H189    H    0.87660   0.36330   0.40250   1.000
    N28     N    0.53157   0.90978   0.81760   1.000
    C28     C    0.60137   0.86930   0.81391   1.000
    H190    H    0.64200   0.87900   0.77850   1.000
    H191    H    0.39800   0.94990   0.87460   1.000
    H192    H    0.41840   0.92050   0.95970   1.000
    H193    H    0.37610   0.86400   0.90020   1.000
    H194    H    0.41890   0.92280   0.95900   1.000
    H195    H    0.39690   0.94840   0.87310   1.000
    H196    H    0.37660   0.86330   0.90250   1.000
    N29     N    0.96843   0.40978   0.68240   1.000
    C29     C    0.89863   0.36930   0.68609   1.000
    H197    H    0.85800   0.37900   0.72150   1.000
    H198    H    0.10200   0.44990   0.62540   1.000
    H199    H    0.08160   0.42050   0.54030   1.000
    H200    H    0.12390   0.36400   0.59980   1.000
    H201    H    0.08110   0.42280   0.54100   1.000
    H202    H    0.10310   0.44840   0.62690   1.000
    H203    H    0.12340   0.36330   0.59750   1.000
    N30     N    0.46843   0.90978   0.18240   1.000
    C30     C    0.39863   0.86930   0.18609   1.000
    H204    H    0.35800   0.87900   0.22150   1.000
    H205    H    0.60200   0.94990   0.12540   1.000
    H206    H    0.58160   0.92050   0.04030   1.000
    H207    H    0.62390   0.86400   0.09980   1.000
    H208    H    0.58110   0.92280   0.04100   1.000
    H209    H    0.60310   0.94840   0.12690   1.000
    H210    H    0.62340   0.86330   0.09750   1.000
    N31     N    0.03157   0.59022   0.68240   1.000
    C31     C    0.10137   0.63070   0.68609   1.000
    H211    H    0.14200   0.62100   0.72150   1.000
    H212    H    0.89800   0.55010   0.62540   1.000
    H213    H    0.91840   0.57950   0.54030   1.000
    H214    H    0.87610   0.63600   0.59980   1.000
    H215    H    0.91890   0.57720   0.54100   1.000
    H216    H    0.89690   0.55160   0.62690   1.000
    H217    H    0.87660   0.63670   0.59750   1.000
    N32     N    0.53157   0.09022   0.18240   1.000
    C32     C    0.60137   0.13070   0.18609   1.000
    H218    H    0.64200   0.12100   0.22150   1.000
    H219    H    0.39800   0.05010   0.12540   1.000
    H220    H    0.41840   0.07950   0.04030   1.000
    H221    H    0.37610   0.13600   0.09980   1.000
    H222    H    0.41890   0.07720   0.04100   1.000
    H223    H    0.39690   0.05160   0.12690   1.000
    H224    H    0.37660   0.13670   0.09750   1.000
    N33     N    0.59022   0.31760   0.96843   1.000
    C33     C    0.63070   0.31391   0.89863   1.000
    H225    H    0.62100   0.27850   0.85800   1.000
    H226    H    0.55010   0.37460   0.10200   1.000
    H227    H    0.57950   0.45970   0.08160   1.000
    H228    H    0.63600   0.40020   0.12390   1.000
    H229    H    0.57720   0.45900   0.08110   1.000
    H230    H    0.55160   0.37310   0.10310   1.000
    H231    H    0.63670   0.40250   0.12340   1.000
    N34     N    0.09022   0.81760   0.46843   1.000
    C34     C    0.13070   0.81391   0.39863   1.000
    H232    H    0.12100   0.77850   0.35800   1.000
    H233    H    0.05010   0.87460   0.60200   1.000
    H234    H    0.07950   0.95970   0.58160   1.000
    H235    H    0.13600   0.90020   0.62390   1.000
    H236    H    0.07720   0.95900   0.58110   1.000
    H237    H    0.05160   0.87310   0.60310   1.000
    H238    H    0.13670   0.90250   0.62340   1.000
    N35     N    0.40978   0.31760   0.03157   1.000
    C35     C    0.36930   0.31391   0.10137   1.000
    H239    H    0.37900   0.27850   0.14200   1.000
    H240    H    0.44990   0.37460   0.89800   1.000
    H241    H    0.42050   0.45970   0.91840   1.000
    H242    H    0.36400   0.40020   0.87610   1.000
    H243    H    0.42280   0.45900   0.91890   1.000
    H244    H    0.44840   0.37310   0.89690   1.000
    H245    H    0.36330   0.40250   0.87660   1.000
    N36     N    0.90978   0.81760   0.53157   1.000
    C36     C    0.86930   0.81391   0.60137   1.000
    H246    H    0.87900   0.77850   0.64200   1.000
    H247    H    0.94990   0.87460   0.39800   1.000
    H248    H    0.92050   0.95970   0.41840   1.000
    H249    H    0.86400   0.90020   0.37610   1.000
    H250    H    0.92280   0.95900   0.41890   1.000
    H251    H    0.94840   0.87310   0.39690   1.000
    H252    H    0.86330   0.90250   0.37660   1.000
    N37     N    0.40978   0.68240   0.96843   1.000
    C37     C    0.36930   0.68609   0.89863   1.000
    H253    H    0.37900   0.72150   0.85800   1.000
    H254    H    0.44990   0.62540   0.10200   1.000
    H255    H    0.42050   0.54030   0.08160   1.000
    H256    H    0.36400   0.59980   0.12390   1.000
    H257    H    0.42280   0.54100   0.08110   1.000
    H258    H    0.44840   0.62690   0.10310   1.000
    H259    H    0.36330   0.59750   0.12340   1.000
    N38     N    0.90978   0.18240   0.46843   1.000
    C38     C    0.86930   0.18609   0.39863   1.000
    H260    H    0.87900   0.22150   0.35800   1.000
    H261    H    0.94990   0.12540   0.60200   1.000
    H262    H    0.92050   0.04030   0.58160   1.000
    H263    H    0.86400   0.09980   0.62390   1.000
    H264    H    0.92280   0.04100   0.58110   1.000
    H265    H    0.94840   0.12690   0.60310   1.000
    H266    H    0.86330   0.09750   0.62340   1.000
    N39     N    0.59022   0.68240   0.03157   1.000
    C39     C    0.63070   0.68609   0.10137   1.000
    H267    H    0.62100   0.72150   0.14200   1.000
    H268    H    0.55010   0.62540   0.89800   1.000
    H269    H    0.57950   0.54030   0.91840   1.000
    H270    H    0.63600   0.59980   0.87610   1.000
    H271    H    0.57720   0.54100   0.91890   1.000
    H272    H    0.55160   0.62690   0.89690   1.000
    H273    H    0.63670   0.59750   0.87660   1.000
    N40     N    0.09022   0.18240   0.53157   1.000
    C40     C    0.13070   0.18609   0.60137   1.000
    H274    H    0.12100   0.22150   0.64200   1.000
    H275    H    0.05010   0.12540   0.39800   1.000
    H276    H    0.07950   0.04030   0.41840   1.000
    H277    H    0.13600   0.09980   0.37610   1.000
    H278    H    0.07720   0.04100   0.41890   1.000
    H279    H    0.05160   0.12690   0.39690   1.000
    H280    H    0.13670   0.09750   0.37660   1.000
    N41     N    0.31760   0.96843   0.59022   1.000
    C41     C    0.31391   0.89863   0.63070   1.000
    H281    H    0.27850   0.85800   0.62100   1.000
    H282    H    0.37460   0.10200   0.55010   1.000
    H283    H    0.45970   0.08160   0.57950   1.000
    H284    H    0.40020   0.12390   0.63600   1.000
    H285    H    0.45900   0.08110   0.57720   1.000
    H286    H    0.37310   0.10310   0.55160   1.000
    H287    H    0.40250   0.12340   0.63670   1.000
    N42     N    0.81760   0.46843   0.09022   1.000
    C42     C    0.81391   0.39863   0.13070   1.000
    H288    H    0.77850   0.35800   0.12100   1.000
    H289    H    0.87460   0.60200   0.05010   1.000
    H290    H    0.95970   0.58160   0.07950   1.000
    H291    H    0.90020   0.62390   0.13600   1.000
    H292    H    0.95900   0.58110   0.07720   1.000
    H293    H    0.87310   0.60310   0.05160   1.000
    H294    H    0.90250   0.62340   0.13670   1.000
    N43     N    0.31760   0.03157   0.40978   1.000
    C43     C    0.31391   0.10137   0.36930   1.000
    H295    H    0.27850   0.14200   0.37900   1.000
    H296    H    0.37460   0.89800   0.44990   1.000
    H297    H    0.45970   0.91840   0.42050   1.000
    H298    H    0.40020   0.87610   0.36400   1.000
    H299    H    0.45900   0.91890   0.42280   1.000
    H300    H    0.37310   0.89690   0.44840   1.000
    H301    H    0.40250   0.87660   0.36330   1.000
    N44     N    0.81760   0.53157   0.90978   1.000
    C44     C    0.81391   0.60137   0.86930   1.000
    H302    H    0.77850   0.64200   0.87900   1.000
    H303    H    0.87460   0.39800   0.94990   1.000
    H304    H    0.95970   0.41840   0.92050   1.000
    H305    H    0.90020   0.37610   0.86400   1.000
    H306    H    0.95900   0.41890   0.92280   1.000
    H307    H    0.87310   0.39690   0.94840   1.000
    H308    H    0.90250   0.37660   0.86330   1.000
    N45     N    0.68240   0.96843   0.40978   1.000
    C45     C    0.68609   0.89863   0.36930   1.000
    H309    H    0.72150   0.85800   0.37900   1.000
    H310    H    0.62540   0.10200   0.44990   1.000
    H311    H    0.54030   0.08160   0.42050   1.000
    H312    H    0.59980   0.12390   0.36400   1.000
    H313    H    0.54100   0.08110   0.42280   1.000
    H314    H    0.62690   0.10310   0.44840   1.000
    H315    H    0.59750   0.12340   0.36330   1.000
    N46     N    0.18240   0.46843   0.90978   1.000
    C46     C    0.18609   0.39863   0.86930   1.000
    H316    H    0.22150   0.35800   0.87900   1.000
    H317    H    0.12540   0.60200   0.94990   1.000
    H318    H    0.04030   0.58160   0.92050   1.000
    H319    H    0.09980   0.62390   0.86400   1.000
    H320    H    0.04100   0.58110   0.92280   1.000
    H321    H    0.12690   0.60310   0.94840   1.000
    H322    H    0.09750   0.62340   0.86330   1.000
    N47     N    0.68240   0.03157   0.59022   1.000
    C47     C    0.68609   0.10137   0.63070   1.000
    H323    H    0.72150   0.14200   0.62100   1.000
    H324    H    0.62540   0.89800   0.55010   1.000
    H325    H    0.54030   0.91840   0.57950   1.000
    H326    H    0.59980   0.87610   0.63600   1.000
    H327    H    0.54100   0.91890   0.57720   1.000
    H328    H    0.62690   0.89690   0.55160   1.000
    H329    H    0.59750   0.87660   0.63670   1.000
    N48     N    0.18240   0.53157   0.09022   1.000
    C48     C    0.18609   0.60137   0.13070   1.000
    H330    H    0.22150   0.64200   0.12100   1.000
    H331    H    0.12540   0.39800   0.05010   1.000
    H332    H    0.04030   0.41840   0.07950   1.000
    H333    H    0.09980   0.37610   0.13600   1.000
    H334    H    0.04100   0.41890   0.07720   1.000
    H335    H    0.12690   0.39690   0.05160   1.000
    H336    H    0.09750   0.37660   0.13670   1.000
    Zn1     Zn   0.50000   0.00000   0.25000   1.000
    Zn2     Zn   0.50000   0.00000   0.75000   1.000
    Zn3     Zn   0.00000   0.50000   0.25000   1.000
    Zn4     Zn   0.25000   0.50000   0.00000   1.000
    Zn5     Zn   0.75000   0.50000   0.00000   1.000
    Zn6     Zn   0.25000   0.00000   0.50000   1.000
    Zn7     Zn   0.00000   0.25000   0.50000   1.000
    Zn8     Zn   0.00000   0.75000   0.50000   1.000
    Zn9     Zn   0.50000   0.25000   0.00000   1.000
    Zn10    Zn   0.00000   0.50000   0.75000   1.000
    Zn11    Zn   0.50000   0.75000   0.00000   1.000
    Zn12    Zn   0.75000   0.00000   0.50000   1.000
    C49     C    0.62300   0.00790   0.37700   1.000
    C50     C    0.59460   0.08580   0.40540   1.000
    C51     C    0.12300   0.50790   0.87700   1.000
    C52     C    0.09460   0.58580   0.90540   1.000
    C53     C    0.37700   0.99210   0.37700   1.000
    C54     C    0.40540   0.91420   0.40540   1.000
    C55     C    0.87700   0.49210   0.87700   1.000
    C56     C    0.90540   0.41420   0.90540   1.000
    C57     C    0.37700   0.00790   0.62300   1.000
    C58     C    0.40540   0.08580   0.59460   1.000
    C59     C    0.87700   0.50790   0.12300   1.000
    C60     C    0.90540   0.58580   0.09460   1.000
    C61     C    0.62300   0.99210   0.62300   1.000
    C62     C    0.59460   0.91420   0.59460   1.000
    C63     C    0.12300   0.49210   0.12300   1.000
    C64     C    0.09460   0.41420   0.09460   1.000
    C65     C    0.37700   0.62300   0.00790   1.000
    C66     C    0.40540   0.59460   0.08580   1.000
    C67     C    0.87700   0.12300   0.50790   1.000
    C68     C    0.90540   0.09460   0.58580   1.000
    C69     C    0.37700   0.37700   0.99210   1.000
    C70     C    0.40540   0.40540   0.91420   1.000
    C71     C    0.87700   0.87700   0.49210   1.000
    C72     C    0.90540   0.90540   0.41420   1.000
    C73     C    0.62300   0.37700   0.00790   1.000
    C74     C    0.59460   0.40540   0.08580   1.000
    C75     C    0.12300   0.87700   0.50790   1.000
    C76     C    0.09460   0.90540   0.58580   1.000
    C77     C    0.62300   0.62300   0.99210   1.000
    C78     C    0.59460   0.59460   0.91420   1.000
    C79     C    0.12300   0.12300   0.49210   1.000
    C80     C    0.09460   0.09460   0.41420   1.000
    C81     C    0.00790   0.37700   0.62300   1.000
    C82     C    0.08580   0.40540   0.59460   1.000
    C83     C    0.50790   0.87700   0.12300   1.000
    C84     C    0.58580   0.90540   0.09460   1.000
    C85     C    0.99210   0.37700   0.37700   1.000
    C86     C    0.91420   0.40540   0.40540   1.000
    C87     C    0.49210   0.87700   0.87700   1.000
    C88     C    0.41420   0.90540   0.90540   1.000
    C89     C    0.00790   0.62300   0.37700   1.000
    C90     C    0.08580   0.59460   0.40540   1.000
    C91     C    0.50790   0.12300   0.87700   1.000
    C92     C    0.58580   0.09460   0.90540   1.000
    C93     C    0.99210   0.62300   0.62300   1.000
    C94     C    0.91420   0.59460   0.59460   1.000
    C95     C    0.49210   0.12300   0.12300   1.000
    C96     C    0.41420   0.09460   0.09460   1.000
