# CIF file generated by openbabel 2.4.1, see http://openbabel.sf.net
data_I
_chemical_name_common 'image0'
_cell_length_a 11.1001
_cell_length_b 11.1001
_cell_length_c 8.4055
_cell_angle_alpha 90
_cell_angle_beta 90
_cell_angle_gamma 90
_space_group_name_H-M_alt 'P 1'
_space_group_name_Hall 'P 1'
loop_
    _symmetry_equiv_pos_as_xyz
    x,y,z
loop_
    _atom_site_label
    _atom_site_type_symbol
    _atom_site_fract_x
    _atom_site_fract_y
    _atom_site_fract_z
    _atom_site_occupancy
    C1      C    0.04220   0.36760   0.12640   1.000
    H1      H    0.07220   0.40770   0.21650   1.000
    C2      C    0.04100   0.24510   0.12260   1.000
    H2      H    0.07070   0.20290   0.21130   1.000
    C3      C    0.95780   0.63240   0.12640   1.000
    H3      H    0.92780   0.59230   0.21650   1.000
    C4      C    0.95900   0.75490   0.12260   1.000
    H4      H    0.92930   0.79710   0.21130   1.000
    C5      C    0.63240   0.04220   0.12640   1.000
    H5      H    0.59230   0.07220   0.21650   1.000
    C6      C    0.75490   0.04100   0.12260   1.000
    H6      H    0.79710   0.07070   0.21130   1.000
    C7      C    0.36760   0.95780   0.12640   1.000
    H7      H    0.40770   0.92780   0.21650   1.000
    C8      C    0.24510   0.95900   0.12260   1.000
    H8      H    0.20290   0.92930   0.21130   1.000
    C9      C    0.95780   0.36760   0.87360   1.000
    H9      H    0.92780   0.40770   0.78350   1.000
    C10     C    0.95900   0.24510   0.87740   1.000
    H10     H    0.92930   0.20290   0.78870   1.000
    C11     C    0.04220   0.63240   0.87360   1.000
    H11     H    0.07220   0.59230   0.78350   1.000
    C12     C    0.04100   0.75490   0.87740   1.000
    H12     H    0.07070   0.79710   0.78870   1.000
    C13     C    0.36760   0.04220   0.87360   1.000
    H13     H    0.40770   0.07220   0.78350   1.000
    C14     C    0.24510   0.04100   0.87740   1.000
    H14     H    0.20290   0.07070   0.78870   1.000
    C15     C    0.63240   0.95780   0.87360   1.000
    H15     H    0.59230   0.92780   0.78350   1.000
    C16     C    0.75490   0.95900   0.87740   1.000
    H16     H    0.79710   0.92930   0.78870   1.000
    C17     C    0.95780   0.63240   0.87360   1.000
    H17     H    0.92780   0.59230   0.78350   1.000
    C18     C    0.95900   0.75490   0.87740   1.000
    H18     H    0.92930   0.79710   0.78870   1.000
    C19     C    0.04220   0.36760   0.87360   1.000
    H19     H    0.07220   0.40770   0.78350   1.000
    C20     C    0.04100   0.24510   0.87740   1.000
    H20     H    0.07070   0.20290   0.78870   1.000
    C21     C    0.36760   0.95780   0.87360   1.000
    H21     H    0.40770   0.92780   0.78350   1.000
    C22     C    0.24510   0.95900   0.87740   1.000
    H22     H    0.20290   0.92930   0.78870   1.000
    C23     C    0.63240   0.04220   0.87360   1.000
    H23     H    0.59230   0.07220   0.78350   1.000
    C24     C    0.75490   0.04100   0.87740   1.000
    H24     H    0.79710   0.07070   0.78870   1.000
    C25     C    0.04220   0.63240   0.12640   1.000
    H25     H    0.07220   0.59230   0.21650   1.000
    C26     C    0.04100   0.75490   0.12260   1.000
    H26     H    0.07070   0.79710   0.21130   1.000
    C27     C    0.95780   0.36760   0.12640   1.000
    H27     H    0.92780   0.40770   0.21650   1.000
    C28     C    0.95900   0.24510   0.12260   1.000
    H28     H    0.92930   0.20290   0.21130   1.000
    C29     C    0.63240   0.95780   0.12640   1.000
    H29     H    0.59230   0.92780   0.21650   1.000
    C30     C    0.75490   0.95900   0.12260   1.000
    H30     H    0.79710   0.92930   0.21130   1.000
    C31     C    0.36760   0.04220   0.12640   1.000
    H31     H    0.40770   0.07220   0.21650   1.000
    C32     C    0.24510   0.04100   0.12260   1.000
    H32     H    0.20290   0.07070   0.21130   1.000
    Cu1     Cu   0.00000   0.00000   0.00000   1.000
    C33     C    0.00000   0.43280   0.00000   1.000
    N1      N    0.00000   0.18240   0.00000   1.000
    C34     C    0.00000   0.56720   0.00000   1.000
    N2      N    0.00000   0.81760   0.00000   1.000
    C35     C    0.56720   0.00000   0.00000   1.000
    N3      N    0.81760   0.00000   0.00000   1.000
    C36     C    0.43280   0.00000   0.00000   1.000
    N4      N    0.18240   0.00000   0.00000   1.000
