# CIF file generated by openbabel 2.4.1, see http://openbabel.sf.net
data_I
_chemical_name_common 'image0'
_cell_length_a 18.2657
_cell_length_b 18.2657
_cell_length_c 22.3708
_cell_angle_alpha 90
_cell_angle_beta 90
_cell_angle_gamma 120
_space_group_name_H-M_alt 'P 1'
_space_group_name_Hall 'P 1'
loop_
    _symmetry_equiv_pos_as_xyz
    x,y,z
loop_
    _atom_site_label
    _atom_site_type_symbol
    _atom_site_fract_x
    _atom_site_fract_y
    _atom_site_fract_z
    _atom_site_occupancy
    O1      O    0.47130   0.82200   0.08890   1.000
    C1      C    0.53730   0.99250   0.04690   1.000
    C2      C    0.50500   0.93370   0.99900   1.000
    O2      O    0.58910   0.99720   0.09300   1.000
    O3      O    0.52110   0.88800   0.97300   1.000
    O4      O    0.13797   0.15533   0.42223   1.000
    C3      C    0.20397   0.32583   0.38023   1.000
    C4      C    0.17167   0.26703   0.33233   1.000
    O5      O    0.25577   0.33053   0.42633   1.000
    O6      O    0.18777   0.22133   0.30633   1.000
    O7      O    0.80463   0.48867   0.75557   1.000
    C5      C    0.87063   0.65917   0.71357   1.000
    C6      C    0.83833   0.60037   0.66567   1.000
    O8      O    0.92243   0.66387   0.75967   1.000
    O9      O    0.85443   0.55467   0.63967   1.000
    O10     O    0.17800   0.64930   0.08890   1.000
    C7      C    0.00750   0.54480   0.04690   1.000
    C8      C    0.06630   0.57130   0.99900   1.000
    O11     O    0.00280   0.59190   0.09300   1.000
    O12     O    0.11200   0.63310   0.97300   1.000
    O13     O    0.84467   0.98263   0.42223   1.000
    C9      C    0.67417   0.87813   0.38023   1.000
    C10     C    0.73297   0.90463   0.33233   1.000
    O14     O    0.66947   0.92523   0.42633   1.000
    O15     O    0.77867   0.96643   0.30633   1.000
    O16     O    0.51133   0.31597   0.75557   1.000
    C11     C    0.34083   0.21147   0.71357   1.000
    C12     C    0.39963   0.23797   0.66567   1.000
    O17     O    0.33613   0.25857   0.75967   1.000
    O18     O    0.44533   0.29977   0.63967   1.000
    O19     O    0.35070   0.52870   0.08890   1.000
    C13     C    0.45520   0.46270   0.04690   1.000
    C14     C    0.42870   0.49500   0.99900   1.000
    O20     O    0.40810   0.41090   0.09300   1.000
    O21     O    0.36690   0.47890   0.97300   1.000
    O22     O    0.01737   0.86203   0.42223   1.000
    C15     C    0.12187   0.79603   0.38023   1.000
    C16     C    0.09537   0.82833   0.33233   1.000
    O23     O    0.07477   0.74423   0.42633   1.000
    O24     O    0.03357   0.81223   0.30633   1.000
    O25     O    0.68403   0.19537   0.75557   1.000
    C17     C    0.78853   0.12937   0.71357   1.000
    C18     C    0.76203   0.16167   0.66567   1.000
    O26     O    0.74143   0.07757   0.75967   1.000
    O27     O    0.70023   0.14557   0.63967   1.000
    O28     O    0.82200   0.47130   0.91110   1.000
    C19     C    0.99250   0.53730   0.95310   1.000
    C20     C    0.93370   0.50500   0.00100   1.000
    O29     O    0.99720   0.58910   0.90700   1.000
    O30     O    0.88800   0.52110   0.02700   1.000
    O31     O    0.48867   0.80463   0.24443   1.000
    C21     C    0.65917   0.87063   0.28643   1.000
    C22     C    0.60037   0.83833   0.33433   1.000
    O32     O    0.66387   0.92243   0.24033   1.000
    O33     O    0.55467   0.85443   0.36033   1.000
    O34     O    0.15533   0.13797   0.57777   1.000
    C23     C    0.32583   0.20397   0.61977   1.000
    C24     C    0.26703   0.17167   0.66767   1.000
    O35     O    0.33053   0.25577   0.57367   1.000
    O36     O    0.22133   0.18777   0.69367   1.000
    O37     O    0.64930   0.17800   0.91110   1.000
    C25     C    0.54480   0.00750   0.95310   1.000
    C26     C    0.57130   0.06630   0.00100   1.000
    O38     O    0.59190   0.00280   0.90700   1.000
    O39     O    0.63310   0.11200   0.02700   1.000
    O40     O    0.31597   0.51133   0.24443   1.000
    C27     C    0.21147   0.34083   0.28643   1.000
    C28     C    0.23797   0.39963   0.33433   1.000
    O41     O    0.25857   0.33613   0.24033   1.000
    O42     O    0.29977   0.44533   0.36033   1.000
    O43     O    0.98263   0.84467   0.57777   1.000
    C29     C    0.87813   0.67417   0.61977   1.000
    C30     C    0.90463   0.73297   0.66767   1.000
    O44     O    0.92523   0.66947   0.57367   1.000
    O45     O    0.96643   0.77867   0.69367   1.000
    O46     O    0.52870   0.35070   0.91110   1.000
    C31     C    0.46270   0.45520   0.95310   1.000
    C32     C    0.49500   0.42870   0.00100   1.000
    O47     O    0.41090   0.40810   0.90700   1.000
    O48     O    0.47890   0.36690   0.02700   1.000
    O49     O    0.19537   0.68403   0.24443   1.000
    C33     C    0.12937   0.78853   0.28643   1.000
    C34     C    0.16167   0.76203   0.33433   1.000
    O50     O    0.07757   0.74143   0.24033   1.000
    O51     O    0.14557   0.70023   0.36033   1.000
    O52     O    0.86203   0.01737   0.57777   1.000
    C35     C    0.79603   0.12187   0.61977   1.000
    C36     C    0.82833   0.09537   0.66767   1.000
    O53     O    0.74423   0.07477   0.57367   1.000
    O54     O    0.81223   0.03357   0.69367   1.000
    O55     O    0.52870   0.17800   0.91110   1.000
    C37     C    0.46270   0.00750   0.95310   1.000
    C38     C    0.49500   0.06630   0.00100   1.000
    O56     O    0.41090   0.00280   0.90700   1.000
    O57     O    0.47890   0.11200   0.02700   1.000
    O58     O    0.19537   0.51133   0.24443   1.000
    C39     C    0.12937   0.34083   0.28643   1.000
    C40     C    0.16167   0.39963   0.33433   1.000
    O59     O    0.07757   0.33613   0.24033   1.000
    O60     O    0.14557   0.44533   0.36033   1.000
    O61     O    0.86203   0.84467   0.57777   1.000
    C41     C    0.79603   0.67417   0.61977   1.000
    C42     C    0.82833   0.73297   0.66767   1.000
    O62     O    0.74423   0.66947   0.57367   1.000
    O63     O    0.81223   0.77867   0.69367   1.000
    O64     O    0.82200   0.35070   0.91110   1.000
    C43     C    0.99250   0.45520   0.95310   1.000
    C44     C    0.93370   0.42870   0.00100   1.000
    O65     O    0.99720   0.40810   0.90700   1.000
    O66     O    0.88800   0.36690   0.02700   1.000
    O67     O    0.48867   0.68403   0.24443   1.000
    C45     C    0.65917   0.78853   0.28643   1.000
    C46     C    0.60037   0.76203   0.33433   1.000
    O68     O    0.66387   0.74143   0.24033   1.000
    O69     O    0.55467   0.70023   0.36033   1.000
    O70     O    0.15533   0.01737   0.57777   1.000
    C47     C    0.32583   0.12187   0.61977   1.000
    C48     C    0.26703   0.09537   0.66767   1.000
    O71     O    0.33053   0.07477   0.57367   1.000
    O72     O    0.22133   0.03357   0.69367   1.000
    O73     O    0.64930   0.47130   0.91110   1.000
    C49     C    0.54480   0.53730   0.95310   1.000
    C50     C    0.57130   0.50500   0.00100   1.000
    O74     O    0.59190   0.58910   0.90700   1.000
    O75     O    0.63310   0.52110   0.02700   1.000
    O76     O    0.31597   0.80463   0.24443   1.000
    C51     C    0.21147   0.87063   0.28643   1.000
    C52     C    0.23797   0.83833   0.33433   1.000
    O77     O    0.25857   0.92243   0.24033   1.000
    O78     O    0.29977   0.85443   0.36033   1.000
    O79     O    0.98263   0.13797   0.57777   1.000
    C53     C    0.87813   0.20397   0.61977   1.000
    C54     C    0.90463   0.17167   0.66767   1.000
    O80     O    0.92523   0.25577   0.57367   1.000
    O81     O    0.96643   0.18777   0.69367   1.000
    O82     O    0.17800   0.52870   0.08890   1.000
    C55     C    0.00750   0.46270   0.04690   1.000
    C56     C    0.06630   0.49500   0.99900   1.000
    O83     O    0.00280   0.41090   0.09300   1.000
    O84     O    0.11200   0.47890   0.97300   1.000
    O85     O    0.84467   0.86203   0.42223   1.000
    C57     C    0.67417   0.79603   0.38023   1.000
    C58     C    0.73297   0.82833   0.33233   1.000
    O86     O    0.66947   0.74423   0.42633   1.000
    O87     O    0.77867   0.81223   0.30633   1.000
    O88     O    0.51133   0.19537   0.75557   1.000
    C59     C    0.34083   0.12937   0.71357   1.000
    C60     C    0.39963   0.16167   0.66567   1.000
    O89     O    0.33613   0.07757   0.75967   1.000
    O90     O    0.44533   0.14557   0.63967   1.000
    O91     O    0.35070   0.82200   0.08890   1.000
    C61     C    0.45520   0.99250   0.04690   1.000
    C62     C    0.42870   0.93370   0.99900   1.000
    O92     O    0.40810   0.99720   0.09300   1.000
    O93     O    0.36690   0.88800   0.97300   1.000
    O94     O    0.01737   0.15533   0.42223   1.000
    C63     C    0.12187   0.32583   0.38023   1.000
    C64     C    0.09537   0.26703   0.33233   1.000
    O95     O    0.07477   0.33053   0.42633   1.000
    O96     O    0.03357   0.22133   0.30633   1.000
    O97     O    0.68403   0.48867   0.75557   1.000
    C65     C    0.78853   0.65917   0.71357   1.000
    C66     C    0.76203   0.60037   0.66567   1.000
    O98     O    0.74143   0.66387   0.75967   1.000
    O99     O    0.70023   0.55467   0.63967   1.000
    O100    O    0.47130   0.64930   0.08890   1.000
    C67     C    0.53730   0.54480   0.04690   1.000
    C68     C    0.50500   0.57130   0.99900   1.000
    O101    O    0.58910   0.59190   0.09300   1.000
    O102    O    0.52110   0.63310   0.97300   1.000
    O103    O    0.13797   0.98263   0.42223   1.000
    C69     C    0.20397   0.87813   0.38023   1.000
    C70     C    0.17167   0.90463   0.33233   1.000
    O104    O    0.25577   0.92523   0.42633   1.000
    O105    O    0.18777   0.96643   0.30633   1.000
    O106    O    0.80463   0.31597   0.75557   1.000
    C71     C    0.87063   0.21147   0.71357   1.000
    C72     C    0.83833   0.23797   0.66567   1.000
    O107    O    0.92243   0.25857   0.75967   1.000
    O108    O    0.85443   0.29977   0.63967   1.000
    Zn1     Zn   0.33333   0.66667   0.07962   1.000
    Zn2     Zn   0.00000   0.00000   0.41295   1.000
    Zn3     Zn   0.66667   0.33333   0.74629   1.000
    Zn4     Zn   0.66667   0.33333   0.92038   1.000
    Zn5     Zn   0.33333   0.66667   0.25371   1.000
    Zn6     Zn   0.00000   0.00000   0.58705   1.000
    Zn7     Zn   0.44924   0.72462   0.13770   1.000
    Zn8     Zn   0.11591   0.05795   0.47103   1.000
    Zn9     Zn   0.78257   0.39129   0.80437   1.000
    Zn10    Zn   0.27538   0.72462   0.13770   1.000
    Zn11    Zn   0.94205   0.05795   0.47103   1.000
    Zn12    Zn   0.60871   0.39129   0.80437   1.000
    Zn13    Zn   0.27538   0.55076   0.13770   1.000
    Zn14    Zn   0.94205   0.88409   0.47103   1.000
    Zn15    Zn   0.60871   0.21743   0.80437   1.000
    Zn16    Zn   0.72462   0.44924   0.86230   1.000
    Zn17    Zn   0.39129   0.78257   0.19563   1.000
    Zn18    Zn   0.05795   0.11591   0.52897   1.000
    Zn19    Zn   0.72462   0.27538   0.86230   1.000
    Zn20    Zn   0.39129   0.60871   0.19563   1.000
    Zn21    Zn   0.05795   0.94205   0.52897   1.000
    Zn22    Zn   0.55076   0.27538   0.86230   1.000
    Zn23    Zn   0.21743   0.60871   0.19563   1.000
    Zn24    Zn   0.88409   0.94205   0.52897   1.000
    O109    O    0.33333   0.66667   0.16667   1.000
    O110    O    0.00000   0.00000   0.50000   1.000
    O111    O    0.66667   0.33333   0.83333   1.000
    O112    O    0.43125   0.86250   0.12950   1.000
    O113    O    0.39100   0.78200   0.04920   1.000
    C73     C    0.46400   0.92800   0.03850   1.000
    C74     C    0.42590   0.85180   0.07360   1.000
    O114    O    0.09792   0.19583   0.46283   1.000
    O115    O    0.05767   0.11533   0.38253   1.000
    C75     C    0.13067   0.26133   0.37183   1.000
    C76     C    0.09257   0.18513   0.40693   1.000
    O116    O    0.76458   0.52917   0.79617   1.000
    O117    O    0.72433   0.44867   0.71587   1.000
    C77     C    0.79733   0.59467   0.70517   1.000
    C78     C    0.75923   0.51847   0.74027   1.000
    O118    O    0.13750   0.56875   0.12950   1.000
    O119    O    0.21800   0.60900   0.04920   1.000
    C79     C    0.07200   0.53600   0.03850   1.000
    C80     C    0.14820   0.57410   0.07360   1.000
    O120    O    0.80417   0.90208   0.46283   1.000
    O121    O    0.88467   0.94233   0.38253   1.000
    C81     C    0.73867   0.86933   0.37183   1.000
    C82     C    0.81487   0.90743   0.40693   1.000
    O122    O    0.47083   0.23542   0.79617   1.000
    O123    O    0.55133   0.27567   0.71587   1.000
    C83     C    0.40533   0.20267   0.70517   1.000
    C84     C    0.48153   0.24077   0.74027   1.000
    O124    O    0.43125   0.56875   0.12950   1.000
    O125    O    0.39100   0.60900   0.04920   1.000
    C85     C    0.46400   0.53600   0.03850   1.000
    C86     C    0.42590   0.57410   0.07360   1.000
    O126    O    0.09792   0.90208   0.46283   1.000
    O127    O    0.05767   0.94233   0.38253   1.000
    C87     C    0.13067   0.86933   0.37183   1.000
    C88     C    0.09257   0.90743   0.40693   1.000
    O128    O    0.76458   0.23542   0.79617   1.000
    O129    O    0.72433   0.27567   0.71587   1.000
    C89     C    0.79733   0.20267   0.70517   1.000
    C90     C    0.75923   0.24077   0.74027   1.000
    O130    O    0.86250   0.43125   0.87050   1.000
    O131    O    0.78200   0.39100   0.95080   1.000
    C91     C    0.92800   0.46400   0.96150   1.000
    C92     C    0.85180   0.42590   0.92640   1.000
    O132    O    0.52917   0.76458   0.20383   1.000
    O133    O    0.44867   0.72433   0.28413   1.000
    C93     C    0.59467   0.79733   0.29483   1.000
    C94     C    0.51847   0.75923   0.25973   1.000
    O134    O    0.19583   0.09792   0.53717   1.000
    O135    O    0.11533   0.05767   0.61747   1.000
    C95     C    0.26133   0.13067   0.62817   1.000
    C96     C    0.18513   0.09257   0.59307   1.000
    O136    O    0.56875   0.13750   0.87050   1.000
    O137    O    0.60900   0.21800   0.95080   1.000
    C97     C    0.53600   0.07200   0.96150   1.000
    C98     C    0.57410   0.14820   0.92640   1.000
    O138    O    0.23542   0.47083   0.20383   1.000
    O139    O    0.27567   0.55133   0.28413   1.000
    C99     C    0.20267   0.40533   0.29483   1.000
    C100    C    0.24077   0.48153   0.25973   1.000
    O140    O    0.90208   0.80417   0.53717   1.000
    O141    O    0.94233   0.88467   0.61747   1.000
    C101    C    0.86933   0.73867   0.62817   1.000
    C102    C    0.90743   0.81487   0.59307   1.000
    O142    O    0.56875   0.43125   0.87050   1.000
    O143    O    0.60900   0.39100   0.95080   1.000
    C103    C    0.53600   0.46400   0.96150   1.000
    C104    C    0.57410   0.42590   0.92640   1.000
    O144    O    0.23542   0.76458   0.20383   1.000
    O145    O    0.27567   0.72433   0.28413   1.000
    C105    C    0.20267   0.79733   0.29483   1.000
    C106    C    0.24077   0.75923   0.25973   1.000
    O146    O    0.90208   0.09792   0.53717   1.000
    O147    O    0.94233   0.05767   0.61747   1.000
    C107    C    0.86933   0.13067   0.62817   1.000
    C108    C    0.90743   0.09257   0.59307   1.000
