# CIF file generated by openbabel 2.4.1, see http://openbabel.sf.net
data_I
_chemical_name_common 'image0'
_cell_length_a 27.3195
_cell_length_b 27.3195
_cell_length_c 27.3195
_cell_angle_alpha 90
_cell_angle_beta 90
_cell_angle_gamma 90
_space_group_name_H-M_alt 'P 1'
_space_group_name_Hall 'P 1'
loop_
    _symmetry_equiv_pos_as_xyz
    x,y,z
loop_
    _atom_site_label
    _atom_site_type_symbol
    _atom_site_fract_x
    _atom_site_fract_y
    _atom_site_fract_z
    _atom_site_occupancy
    Ce1     Ce   0.40251   0.00000   0.50000   1.000
    Ce2     Ce   0.90251   0.00000   0.00000   1.000
    Ce3     Ce   0.90251   0.50000   0.50000   1.000
    Ce4     Ce   0.59749   0.00000   0.50000   1.000
    Ce5     Ce   0.09749   0.00000   0.00000   1.000
    Ce6     Ce   0.09749   0.50000   0.50000   1.000
    Ce7     Ce   0.59749   0.50000   0.00000   1.000
    Ce8     Ce   0.40251   0.50000   0.00000   1.000
    Ce9     Ce   0.50000   0.40251   0.00000   1.000
    Ce10    Ce   0.50000   0.90251   0.50000   1.000
    Ce11    Ce   0.50000   0.59749   0.00000   1.000
    Ce12    Ce   0.50000   0.09749   0.50000   1.000
    Ce13    Ce   0.00000   0.09749   0.00000   1.000
    Ce14    Ce   0.00000   0.90251   0.00000   1.000
    Ce15    Ce   0.00000   0.50000   0.40251   1.000
    Ce16    Ce   0.00000   0.00000   0.90251   1.000
    Ce17    Ce   0.50000   0.50000   0.90251   1.000
    Ce18    Ce   0.00000   0.50000   0.59749   1.000
    Ce19    Ce   0.00000   0.00000   0.09749   1.000
    Ce20    Ce   0.50000   0.50000   0.09749   1.000
    Ce21    Ce   0.50000   0.00000   0.59749   1.000
    Ce22    Ce   0.50000   0.00000   0.40251   1.000
    Ce23    Ce   0.00000   0.40251   0.50000   1.000
    Ce24    Ce   0.00000   0.59749   0.50000   1.000
    O1      O    0.36342   0.00000   0.42183   1.000
    C1      C    0.29150   0.00000   0.35484   1.000
    C2      C    0.25548   0.00000   0.31806   1.000
    N1      N    0.31806   0.00000   0.25548   1.000
    O2      O    0.36342   0.50000   0.92183   1.000
    C3      C    0.29150   0.50000   0.85484   1.000
    C4      C    0.25548   0.50000   0.81806   1.000
    N2      N    0.31806   0.50000   0.75548   1.000
    O3      O    0.86342   0.00000   0.92183   1.000
    C5      C    0.79150   0.00000   0.85484   1.000
    C6      C    0.75548   0.00000   0.81806   1.000
    N3      N    0.81806   0.00000   0.75548   1.000
    O4      O    0.86342   0.50000   0.42183   1.000
    C7      C    0.79150   0.50000   0.35484   1.000
    C8      C    0.75548   0.50000   0.31806   1.000
    N4      N    0.81806   0.50000   0.25548   1.000
    O5      O    0.63658   0.00000   0.42183   1.000
    C9      C    0.70850   0.00000   0.35484   1.000
    C10     C    0.74452   0.00000   0.31806   1.000
    N5      N    0.68194   0.00000   0.25548   1.000
    O6      O    0.63658   0.50000   0.92183   1.000
    C11     C    0.70850   0.50000   0.85484   1.000
    C12     C    0.74452   0.50000   0.81806   1.000
    N6      N    0.68194   0.50000   0.75548   1.000
    O7      O    0.13658   0.00000   0.92183   1.000
    C13     C    0.20850   0.00000   0.85484   1.000
    C14     C    0.24452   0.00000   0.81806   1.000
    N7      N    0.18194   0.00000   0.75548   1.000
    O8      O    0.13658   0.50000   0.42183   1.000
    C15     C    0.20850   0.50000   0.35484   1.000
    C16     C    0.24452   0.50000   0.31806   1.000
    N8      N    0.18194   0.50000   0.25548   1.000
    O9      O    0.63658   0.00000   0.57817   1.000
    C17     C    0.70850   0.00000   0.64516   1.000
    C18     C    0.74452   0.00000   0.68194   1.000
    N9      N    0.68194   0.00000   0.74452   1.000
    O10     O    0.63658   0.50000   0.07817   1.000
    C19     C    0.70850   0.50000   0.14516   1.000
    C20     C    0.74452   0.50000   0.18194   1.000
    N10     N    0.68194   0.50000   0.24452   1.000
    O11     O    0.13658   0.00000   0.07817   1.000
    C21     C    0.20850   0.00000   0.14516   1.000
    C22     C    0.24452   0.00000   0.18194   1.000
    N11     N    0.18194   0.00000   0.24452   1.000
    O12     O    0.13658   0.50000   0.57817   1.000
    C23     C    0.20850   0.50000   0.64516   1.000
    C24     C    0.24452   0.50000   0.68194   1.000
    N12     N    0.18194   0.50000   0.74452   1.000
    O13     O    0.36342   0.00000   0.57817   1.000
    C25     C    0.29150   0.00000   0.64516   1.000
    C26     C    0.25548   0.00000   0.68194   1.000
    N13     N    0.31806   0.00000   0.74452   1.000
    O14     O    0.36342   0.50000   0.07817   1.000
    C27     C    0.29150   0.50000   0.14516   1.000
    C28     C    0.25548   0.50000   0.18194   1.000
    N14     N    0.31806   0.50000   0.24452   1.000
    O15     O    0.86342   0.00000   0.07817   1.000
    C29     C    0.79150   0.00000   0.14516   1.000
    C30     C    0.75548   0.00000   0.18194   1.000
    N15     N    0.81806   0.00000   0.24452   1.000
    O16     O    0.86342   0.50000   0.57817   1.000
    C31     C    0.79150   0.50000   0.64516   1.000
    C32     C    0.75548   0.50000   0.68194   1.000
    N16     N    0.81806   0.50000   0.74452   1.000
    O17     O    0.42183   0.36342   0.00000   1.000
    C33     C    0.35484   0.29150   0.00000   1.000
    C34     C    0.31806   0.25548   0.00000   1.000
    N17     N    0.25548   0.31806   0.00000   1.000
    O18     O    0.42183   0.86342   0.50000   1.000
    C35     C    0.35484   0.79150   0.50000   1.000
    C36     C    0.31806   0.75548   0.50000   1.000
    N18     N    0.25548   0.81806   0.50000   1.000
    O19     O    0.92183   0.36342   0.50000   1.000
    C37     C    0.85484   0.29150   0.50000   1.000
    C38     C    0.81806   0.25548   0.50000   1.000
    N19     N    0.75548   0.31806   0.50000   1.000
    O20     O    0.92183   0.86342   0.00000   1.000
    C39     C    0.85484   0.79150   0.00000   1.000
    C40     C    0.81806   0.75548   0.00000   1.000
    N20     N    0.75548   0.81806   0.00000   1.000
    O21     O    0.42183   0.63658   0.00000   1.000
    C41     C    0.35484   0.70850   0.00000   1.000
    C42     C    0.31806   0.74452   0.00000   1.000
    N21     N    0.25548   0.68194   0.00000   1.000
    O22     O    0.42183   0.13658   0.50000   1.000
    C43     C    0.35484   0.20850   0.50000   1.000
    C44     C    0.31806   0.24452   0.50000   1.000
    N22     N    0.25548   0.18194   0.50000   1.000
    O23     O    0.92183   0.63658   0.50000   1.000
    C45     C    0.85484   0.70850   0.50000   1.000
    C46     C    0.81806   0.74452   0.50000   1.000
    N23     N    0.75548   0.68194   0.50000   1.000
    O24     O    0.92183   0.13658   0.00000   1.000
    C47     C    0.85484   0.20850   0.00000   1.000
    C48     C    0.81806   0.24452   0.00000   1.000
    N24     N    0.75548   0.18194   0.00000   1.000
    O25     O    0.57817   0.63658   0.00000   1.000
    C49     C    0.64516   0.70850   0.00000   1.000
    C50     C    0.68194   0.74452   0.00000   1.000
    N25     N    0.74452   0.68194   0.00000   1.000
    O26     O    0.57817   0.13658   0.50000   1.000
    C51     C    0.64516   0.20850   0.50000   1.000
    C52     C    0.68194   0.24452   0.50000   1.000
    N26     N    0.74452   0.18194   0.50000   1.000
    O27     O    0.07817   0.63658   0.50000   1.000
    C53     C    0.14516   0.70850   0.50000   1.000
    C54     C    0.18194   0.74452   0.50000   1.000
    N27     N    0.24452   0.68194   0.50000   1.000
    O28     O    0.07817   0.13658   0.00000   1.000
    C55     C    0.14516   0.20850   0.00000   1.000
    C56     C    0.18194   0.24452   0.00000   1.000
    N28     N    0.24452   0.18194   0.00000   1.000
    O29     O    0.57817   0.36342   0.00000   1.000
    C57     C    0.64516   0.29150   0.00000   1.000
    C58     C    0.68194   0.25548   0.00000   1.000
    N29     N    0.74452   0.31806   0.00000   1.000
    O30     O    0.57817   0.86342   0.50000   1.000
    C59     C    0.64516   0.79150   0.50000   1.000
    C60     C    0.68194   0.75548   0.50000   1.000
    N30     N    0.74452   0.81806   0.50000   1.000
    O31     O    0.07817   0.36342   0.50000   1.000
    C61     C    0.14516   0.29150   0.50000   1.000
    C62     C    0.18194   0.25548   0.50000   1.000
    N31     N    0.24452   0.31806   0.50000   1.000
    O32     O    0.07817   0.86342   0.00000   1.000
    C63     C    0.14516   0.79150   0.00000   1.000
    C64     C    0.18194   0.75548   0.00000   1.000
    N32     N    0.24452   0.81806   0.00000   1.000
    O33     O    0.00000   0.42183   0.36342   1.000
    C65     C    0.00000   0.35484   0.29150   1.000
    C66     C    0.00000   0.31806   0.25548   1.000
    N33     N    0.00000   0.25548   0.31806   1.000
    O34     O    0.00000   0.92183   0.86342   1.000
    C67     C    0.00000   0.85484   0.79150   1.000
    C68     C    0.00000   0.81806   0.75548   1.000
    N34     N    0.00000   0.75548   0.81806   1.000
    O35     O    0.50000   0.42183   0.86342   1.000
    C69     C    0.50000   0.35484   0.79150   1.000
    C70     C    0.50000   0.31806   0.75548   1.000
    N35     N    0.50000   0.25548   0.81806   1.000
    O36     O    0.50000   0.92183   0.36342   1.000
    C71     C    0.50000   0.85484   0.29150   1.000
    C72     C    0.50000   0.81806   0.25548   1.000
    N36     N    0.50000   0.75548   0.31806   1.000
    O37     O    0.00000   0.42183   0.63658   1.000
    C73     C    0.00000   0.35484   0.70850   1.000
    C74     C    0.00000   0.31806   0.74452   1.000
    N37     N    0.00000   0.25548   0.68194   1.000
    O38     O    0.00000   0.92183   0.13658   1.000
    C75     C    0.00000   0.85484   0.20850   1.000
    C76     C    0.00000   0.81806   0.24452   1.000
    N38     N    0.00000   0.75548   0.18194   1.000
    O39     O    0.50000   0.42183   0.13658   1.000
    C77     C    0.50000   0.35484   0.20850   1.000
    C78     C    0.50000   0.31806   0.24452   1.000
    N39     N    0.50000   0.25548   0.18194   1.000
    O40     O    0.50000   0.92183   0.63658   1.000
    C79     C    0.50000   0.85484   0.70850   1.000
    C80     C    0.50000   0.81806   0.74452   1.000
    N40     N    0.50000   0.75548   0.68194   1.000
    O41     O    0.00000   0.57817   0.63658   1.000
    C81     C    0.00000   0.64516   0.70850   1.000
    C82     C    0.00000   0.68194   0.74452   1.000
    N41     N    0.00000   0.74452   0.68194   1.000
    O42     O    0.00000   0.07817   0.13658   1.000
    C83     C    0.00000   0.14516   0.20850   1.000
    C84     C    0.00000   0.18194   0.24452   1.000
    N42     N    0.00000   0.24452   0.18194   1.000
    O43     O    0.50000   0.57817   0.13658   1.000
    C85     C    0.50000   0.64516   0.20850   1.000
    C86     C    0.50000   0.68194   0.24452   1.000
    N43     N    0.50000   0.74452   0.18194   1.000
    O44     O    0.50000   0.07817   0.63658   1.000
    C87     C    0.50000   0.14516   0.70850   1.000
    C88     C    0.50000   0.18194   0.74452   1.000
    N44     N    0.50000   0.24452   0.68194   1.000
    O45     O    0.00000   0.57817   0.36342   1.000
    C89     C    0.00000   0.64516   0.29150   1.000
    C90     C    0.00000   0.68194   0.25548   1.000
    N45     N    0.00000   0.74452   0.31806   1.000
    O46     O    0.00000   0.07817   0.86342   1.000
    C91     C    0.00000   0.14516   0.79150   1.000
    C92     C    0.00000   0.18194   0.75548   1.000
    N46     N    0.00000   0.24452   0.81806   1.000
    O47     O    0.50000   0.57817   0.86342   1.000
    C93     C    0.50000   0.64516   0.79150   1.000
    C94     C    0.50000   0.68194   0.75548   1.000
    N47     N    0.50000   0.74452   0.81806   1.000
    O48     O    0.50000   0.07817   0.36342   1.000
    C95     C    0.50000   0.14516   0.29150   1.000
    C96     C    0.50000   0.18194   0.25548   1.000
    N48     N    0.50000   0.24452   0.31806   1.000
    O49     O    0.00000   0.36342   0.57817   1.000
    C97     C    0.00000   0.29150   0.64516   1.000
    O50     O    0.00000   0.86342   0.07817   1.000
    C98     C    0.00000   0.79150   0.14516   1.000
    O51     O    0.50000   0.36342   0.07817   1.000
    C99     C    0.50000   0.29150   0.14516   1.000
    O52     O    0.50000   0.86342   0.57817   1.000
    C100    C    0.50000   0.79150   0.64516   1.000
    O53     O    0.00000   0.63658   0.57817   1.000
    C101    C    0.00000   0.70850   0.64516   1.000
    O54     O    0.00000   0.13658   0.07817   1.000
    C102    C    0.00000   0.20850   0.14516   1.000
    O55     O    0.50000   0.63658   0.07817   1.000
    C103    C    0.50000   0.70850   0.14516   1.000
    O56     O    0.50000   0.13658   0.57817   1.000
    C104    C    0.50000   0.20850   0.64516   1.000
    O57     O    0.00000   0.63658   0.42183   1.000
    C105    C    0.00000   0.70850   0.35484   1.000
    O58     O    0.00000   0.13658   0.92183   1.000
    C106    C    0.00000   0.20850   0.85484   1.000
    O59     O    0.50000   0.63658   0.92183   1.000
    C107    C    0.50000   0.70850   0.85484   1.000
    O60     O    0.50000   0.13658   0.42183   1.000
    C108    C    0.50000   0.20850   0.35484   1.000
    O61     O    0.00000   0.36342   0.42183   1.000
    C109    C    0.00000   0.29150   0.35484   1.000
    O62     O    0.00000   0.86342   0.92183   1.000
    C110    C    0.00000   0.79150   0.85484   1.000
    O63     O    0.50000   0.36342   0.92183   1.000
    C111    C    0.50000   0.29150   0.85484   1.000
    O64     O    0.50000   0.86342   0.42183   1.000
    C112    C    0.50000   0.79150   0.35484   1.000
    O65     O    0.36342   0.42183   0.00000   1.000
    C113    C    0.29150   0.35484   0.00000   1.000
    O66     O    0.36342   0.92183   0.50000   1.000
    C114    C    0.29150   0.85484   0.50000   1.000
    O67     O    0.86342   0.42183   0.50000   1.000
    C115    C    0.79150   0.35484   0.50000   1.000
    O68     O    0.86342   0.92183   0.00000   1.000
    C116    C    0.79150   0.85484   0.00000   1.000
    O69     O    0.63658   0.42183   0.00000   1.000
    C117    C    0.70850   0.35484   0.00000   1.000
    O70     O    0.63658   0.92183   0.50000   1.000
    C118    C    0.70850   0.85484   0.50000   1.000
    O71     O    0.13658   0.42183   0.50000   1.000
    C119    C    0.20850   0.35484   0.50000   1.000
    O72     O    0.13658   0.92183   0.00000   1.000
    C120    C    0.20850   0.85484   0.00000   1.000
    O73     O    0.63658   0.57817   0.00000   1.000
    C121    C    0.70850   0.64516   0.00000   1.000
    O74     O    0.63658   0.07817   0.50000   1.000
    C122    C    0.70850   0.14516   0.50000   1.000
    O75     O    0.13658   0.57817   0.50000   1.000
    C123    C    0.20850   0.64516   0.50000   1.000
    O76     O    0.13658   0.07817   0.00000   1.000
    C124    C    0.20850   0.14516   0.00000   1.000
    O77     O    0.36342   0.57817   0.00000   1.000
    C125    C    0.29150   0.64516   0.00000   1.000
    O78     O    0.36342   0.07817   0.50000   1.000
    C126    C    0.29150   0.14516   0.50000   1.000
    O79     O    0.86342   0.57817   0.50000   1.000
    C127    C    0.79150   0.64516   0.50000   1.000
    O80     O    0.86342   0.07817   0.00000   1.000
    C128    C    0.79150   0.14516   0.00000   1.000
    O81     O    0.42183   0.00000   0.63658   1.000
    C129    C    0.35484   0.00000   0.70850   1.000
    O82     O    0.42183   0.50000   0.13658   1.000
    C130    C    0.35484   0.50000   0.20850   1.000
    O83     O    0.92183   0.00000   0.13658   1.000
    C131    C    0.85484   0.00000   0.20850   1.000
    O84     O    0.92183   0.50000   0.63658   1.000
    C132    C    0.85484   0.50000   0.70850   1.000
    O85     O    0.42183   0.00000   0.36342   1.000
    C133    C    0.35484   0.00000   0.29150   1.000
    O86     O    0.42183   0.50000   0.86342   1.000
    C134    C    0.35484   0.50000   0.79150   1.000
    O87     O    0.92183   0.00000   0.86342   1.000
    C135    C    0.85484   0.00000   0.79150   1.000
    O88     O    0.92183   0.50000   0.36342   1.000
    C136    C    0.85484   0.50000   0.29150   1.000
    O89     O    0.57817   0.00000   0.36342   1.000
    C137    C    0.64516   0.00000   0.29150   1.000
    O90     O    0.57817   0.50000   0.86342   1.000
    C138    C    0.64516   0.50000   0.79150   1.000
    O91     O    0.07817   0.00000   0.86342   1.000
    C139    C    0.14516   0.00000   0.79150   1.000
    O92     O    0.07817   0.50000   0.36342   1.000
    C140    C    0.14516   0.50000   0.29150   1.000
    O93     O    0.57817   0.00000   0.63658   1.000
    C141    C    0.64516   0.00000   0.70850   1.000
    O94     O    0.57817   0.50000   0.13658   1.000
    C142    C    0.64516   0.50000   0.20850   1.000
    O95     O    0.07817   0.00000   0.13658   1.000
    C143    C    0.14516   0.00000   0.20850   1.000
    O96     O    0.07817   0.50000   0.63658   1.000
    C144    C    0.14516   0.50000   0.70850   1.000
    O97     O    0.45088   0.04912   0.54912   1.000
    O98     O    0.54912   0.95088   0.54912   1.000
    O99     O    0.54912   0.04912   0.45088   1.000
    O100    O    0.45088   0.95088   0.45088   1.000
    O101    O    0.54912   0.45088   0.04912   1.000
    O102    O    0.54912   0.54912   0.95088   1.000
    O103    O    0.45088   0.54912   0.04912   1.000
    O104    O    0.45088   0.45088   0.95088   1.000
    O105    O    0.04912   0.54912   0.45088   1.000
    O106    O    0.04912   0.04912   0.95088   1.000
    O107    O    0.95088   0.54912   0.54912   1.000
    O108    O    0.95088   0.04912   0.04912   1.000
    O109    O    0.04912   0.45088   0.54912   1.000
    O110    O    0.04912   0.95088   0.04912   1.000
    O111    O    0.95088   0.45088   0.45088   1.000
    O112    O    0.95088   0.95088   0.95088   1.000
    O113    O    0.04912   0.45088   0.45088   1.000
    O114    O    0.04912   0.95088   0.95088   1.000
    O115    O    0.95088   0.54912   0.45088   1.000
    O116    O    0.95088   0.04912   0.95088   1.000
    O117    O    0.04912   0.54912   0.54912   1.000
    O118    O    0.04912   0.04912   0.04912   1.000
    O119    O    0.95088   0.45088   0.54912   1.000
    O120    O    0.95088   0.95088   0.04912   1.000
    O121    O    0.45088   0.54912   0.95088   1.000
    O122    O    0.54912   0.54912   0.04912   1.000
    O123    O    0.54912   0.45088   0.95088   1.000
    O124    O    0.45088   0.45088   0.04912   1.000
    O125    O    0.54912   0.04912   0.54912   1.000
    O126    O    0.54912   0.95088   0.45088   1.000
    O127    O    0.45088   0.04912   0.45088   1.000
    O128    O    0.45088   0.95088   0.54912   1.000
    C145    C    0.37854   0.00000   0.37854   1.000
    C146    C    0.33963   0.00000   0.33963   1.000
    C147    C    0.26993   0.00000   0.26993   1.000
    C148    C    0.37854   0.50000   0.87854   1.000
    C149    C    0.33963   0.50000   0.83963   1.000
    C150    C    0.26993   0.50000   0.76993   1.000
    C151    C    0.87854   0.00000   0.87854   1.000
    C152    C    0.83963   0.00000   0.83963   1.000
    C153    C    0.76993   0.00000   0.76993   1.000
    C154    C    0.87854   0.50000   0.37854   1.000
    C155    C    0.83963   0.50000   0.33963   1.000
    C156    C    0.76993   0.50000   0.26993   1.000
    C157    C    0.62146   0.00000   0.37854   1.000
    C158    C    0.66037   0.00000   0.33963   1.000
    C159    C    0.73007   0.00000   0.26993   1.000
    C160    C    0.62146   0.50000   0.87854   1.000
    C161    C    0.66037   0.50000   0.83963   1.000
    C162    C    0.73007   0.50000   0.76993   1.000
    C163    C    0.12146   0.00000   0.87854   1.000
    C164    C    0.16037   0.00000   0.83963   1.000
    C165    C    0.23007   0.00000   0.76993   1.000
    C166    C    0.12146   0.50000   0.37854   1.000
    C167    C    0.16037   0.50000   0.33963   1.000
    C168    C    0.23007   0.50000   0.26993   1.000
    C169    C    0.62146   0.00000   0.62146   1.000
    C170    C    0.66037   0.00000   0.66037   1.000
    C171    C    0.73007   0.00000   0.73007   1.000
    C172    C    0.62146   0.50000   0.12146   1.000
    C173    C    0.66037   0.50000   0.16037   1.000
    C174    C    0.73007   0.50000   0.23007   1.000
    C175    C    0.12146   0.00000   0.12146   1.000
    C176    C    0.16037   0.00000   0.16037   1.000
    C177    C    0.23007   0.00000   0.23007   1.000
    C178    C    0.12146   0.50000   0.62146   1.000
    C179    C    0.16037   0.50000   0.66037   1.000
    C180    C    0.23007   0.50000   0.73007   1.000
    C181    C    0.37854   0.00000   0.62146   1.000
    C182    C    0.33963   0.00000   0.66037   1.000
    C183    C    0.26993   0.00000   0.73007   1.000
    C184    C    0.37854   0.50000   0.12146   1.000
    C185    C    0.33963   0.50000   0.16037   1.000
    C186    C    0.26993   0.50000   0.23007   1.000
    C187    C    0.87854   0.00000   0.12146   1.000
    C188    C    0.83963   0.00000   0.16037   1.000
    C189    C    0.76993   0.00000   0.23007   1.000
    C190    C    0.87854   0.50000   0.62146   1.000
    C191    C    0.83963   0.50000   0.66037   1.000
    C192    C    0.76993   0.50000   0.73007   1.000
    C193    C    0.37854   0.37854   0.00000   1.000
    C194    C    0.33963   0.33963   0.00000   1.000
    C195    C    0.26993   0.26993   0.00000   1.000
    C196    C    0.37854   0.87854   0.50000   1.000
    C197    C    0.33963   0.83963   0.50000   1.000
    C198    C    0.26993   0.76993   0.50000   1.000
    C199    C    0.87854   0.37854   0.50000   1.000
    C200    C    0.83963   0.33963   0.50000   1.000
    C201    C    0.76993   0.26993   0.50000   1.000
    C202    C    0.87854   0.87854   0.00000   1.000
    C203    C    0.83963   0.83963   0.00000   1.000
    C204    C    0.76993   0.76993   0.00000   1.000
    C205    C    0.37854   0.62146   0.00000   1.000
    C206    C    0.33963   0.66037   0.00000   1.000
    C207    C    0.26993   0.73007   0.00000   1.000
    C208    C    0.37854   0.12146   0.50000   1.000
    C209    C    0.33963   0.16037   0.50000   1.000
    C210    C    0.26993   0.23007   0.50000   1.000
    C211    C    0.87854   0.62146   0.50000   1.000
    C212    C    0.83963   0.66037   0.50000   1.000
    C213    C    0.76993   0.73007   0.50000   1.000
    C214    C    0.87854   0.12146   0.00000   1.000
    C215    C    0.83963   0.16037   0.00000   1.000
    C216    C    0.76993   0.23007   0.00000   1.000
    C217    C    0.62146   0.62146   0.00000   1.000
    C218    C    0.66037   0.66037   0.00000   1.000
    C219    C    0.73007   0.73007   0.00000   1.000
    C220    C    0.62146   0.12146   0.50000   1.000
    C221    C    0.66037   0.16037   0.50000   1.000
    C222    C    0.73007   0.23007   0.50000   1.000
    C223    C    0.12146   0.62146   0.50000   1.000
    C224    C    0.16037   0.66037   0.50000   1.000
    C225    C    0.23007   0.73007   0.50000   1.000
    C226    C    0.12146   0.12146   0.00000   1.000
    C227    C    0.16037   0.16037   0.00000   1.000
    C228    C    0.23007   0.23007   0.00000   1.000
    C229    C    0.62146   0.37854   0.00000   1.000
    C230    C    0.66037   0.33963   0.00000   1.000
    C231    C    0.73007   0.26993   0.00000   1.000
    C232    C    0.62146   0.87854   0.50000   1.000
    C233    C    0.66037   0.83963   0.50000   1.000
    C234    C    0.73007   0.76993   0.50000   1.000
    C235    C    0.12146   0.37854   0.50000   1.000
    C236    C    0.16037   0.33963   0.50000   1.000
    C237    C    0.23007   0.26993   0.50000   1.000
    C238    C    0.12146   0.87854   0.00000   1.000
    C239    C    0.16037   0.83963   0.00000   1.000
    C240    C    0.23007   0.76993   0.00000   1.000
    C241    C    0.00000   0.37854   0.37854   1.000
    C242    C    0.00000   0.33963   0.33963   1.000
    C243    C    0.00000   0.26993   0.26993   1.000
    C244    C    0.00000   0.87854   0.87854   1.000
    C245    C    0.00000   0.83963   0.83963   1.000
    C246    C    0.00000   0.76993   0.76993   1.000
    C247    C    0.50000   0.37854   0.87854   1.000
    C248    C    0.50000   0.33963   0.83963   1.000
    C249    C    0.50000   0.26993   0.76993   1.000
    C250    C    0.50000   0.87854   0.37854   1.000
    C251    C    0.50000   0.83963   0.33963   1.000
    C252    C    0.50000   0.76993   0.26993   1.000
    C253    C    0.00000   0.37854   0.62146   1.000
    C254    C    0.00000   0.33963   0.66037   1.000
    C255    C    0.00000   0.26993   0.73007   1.000
    C256    C    0.00000   0.87854   0.12146   1.000
    C257    C    0.00000   0.83963   0.16037   1.000
    C258    C    0.00000   0.76993   0.23007   1.000
    C259    C    0.50000   0.37854   0.12146   1.000
    C260    C    0.50000   0.33963   0.16037   1.000
    C261    C    0.50000   0.26993   0.23007   1.000
    C262    C    0.50000   0.87854   0.62146   1.000
    C263    C    0.50000   0.83963   0.66037   1.000
    C264    C    0.50000   0.76993   0.73007   1.000
    C265    C    0.00000   0.62146   0.62146   1.000
    C266    C    0.00000   0.66037   0.66037   1.000
    C267    C    0.00000   0.73007   0.73007   1.000
    C268    C    0.00000   0.12146   0.12146   1.000
    C269    C    0.00000   0.16037   0.16037   1.000
    C270    C    0.00000   0.23007   0.23007   1.000
    C271    C    0.50000   0.62146   0.12146   1.000
    C272    C    0.50000   0.66037   0.16037   1.000
    C273    C    0.50000   0.73007   0.23007   1.000
    C274    C    0.50000   0.12146   0.62146   1.000
    C275    C    0.50000   0.16037   0.66037   1.000
    C276    C    0.50000   0.23007   0.73007   1.000
    C277    C    0.00000   0.62146   0.37854   1.000
    C278    C    0.00000   0.66037   0.33963   1.000
    C279    C    0.00000   0.73007   0.26993   1.000
    C280    C    0.00000   0.12146   0.87854   1.000
    C281    C    0.00000   0.16037   0.83963   1.000
    C282    C    0.00000   0.23007   0.76993   1.000
    C283    C    0.50000   0.62146   0.87854   1.000
    C284    C    0.50000   0.66037   0.83963   1.000
    C285    C    0.50000   0.73007   0.76993   1.000
    C286    C    0.50000   0.12146   0.37854   1.000
    C287    C    0.50000   0.16037   0.33963   1.000
    C288    C    0.50000   0.23007   0.26993   1.000
