# CIF file generated by openbabel 2.4.1, see http://openbabel.sf.net
data_I
_chemical_name_common 'OHOLIH_clean'
_cell_length_a 10.673
_cell_length_b 12.1006
_cell_length_c 12.1006
_cell_angle_alpha 96.1065
_cell_angle_beta 104.571
_cell_angle_gamma 75.4292
_space_group_name_H-M_alt 'P 1'
_space_group_name_Hall 'P 1'
loop_
    _symmetry_equiv_pos_as_xyz
    x,y,z
loop_
    _atom_site_label
    _atom_site_type_symbol
    _atom_site_fract_x
    _atom_site_fract_y
    _atom_site_fract_z
    _atom_site_occupancy
    Zn1     Zn   0.25000   0.11388   0.11388   1.000
    Zn2     Zn   0.75000   0.88612   0.88612   1.000
    Zn3     Zn   0.00000   0.00000   0.00000   1.000
    Zn4     Zn   0.50000   0.00000   0.00000   1.000
    H1      H    0.91080   0.18460   0.81520   1.000
    H2      H    0.77360   0.21200   0.63980   1.000
    H3      H    0.23220   0.09270   0.67810   1.000
    H4      H    0.19820   0.09910   0.46530   1.000
    H5      H    0.82710   0.15710   0.26850   1.000
    H6      H    0.73790   0.19870   0.42690   1.000
    H7      H    0.58920   0.81520   0.18460   1.000
    H8      H    0.72640   0.63980   0.21200   1.000
    H9      H    0.26780   0.67810   0.09270   1.000
    H10     H    0.30180   0.46530   0.09910   1.000
    H11     H    0.67290   0.26850   0.15710   1.000
    H12     H    0.76210   0.42690   0.19870   1.000
    H13     H    0.08920   0.81540   0.18480   1.000
    H14     H    0.22640   0.78800   0.36020   1.000
    H15     H    0.76780   0.90730   0.32190   1.000
    H16     H    0.80180   0.90090   0.53470   1.000
    H17     H    0.17290   0.84290   0.73150   1.000
    H18     H    0.26210   0.80130   0.57310   1.000
    H19     H    0.41080   0.18480   0.81540   1.000
    H20     H    0.27360   0.36020   0.78800   1.000
    H21     H    0.73220   0.32190   0.90730   1.000
    H22     H    0.69820   0.53470   0.90090   1.000
    H23     H    0.32710   0.73150   0.84290   1.000
    H24     H    0.23790   0.57310   0.80130   1.000
    C1      C    0.17940   0.10390   0.87950   1.000
    C2      C    0.08870   0.13150   0.76370   1.000
    C3      C    0.94670   0.17070   0.75030   1.000
    C4      C    0.86600   0.18760   0.64680   1.000
    C5      C    0.91710   0.16960   0.54700   1.000
    C6      C    0.05510   0.13640   0.55800   1.000
    C7      C    0.13950   0.11650   0.66970   1.000
    C8      C    0.10570   0.11950   0.45830   1.000
    C9      C    0.07290   0.11200   0.24540   1.000
    C10     C    0.02300   0.13200   0.35320   1.000
    C11     C    0.88400   0.15610   0.34190   1.000
    C12     C    0.83070   0.17810   0.43570   1.000
    C13     C    0.32060   0.87950   0.10390   1.000
    C14     C    0.41130   0.76370   0.13150   1.000
    C15     C    0.55330   0.75030   0.17070   1.000
    C16     C    0.63400   0.64680   0.18760   1.000
    C17     C    0.58290   0.54700   0.16960   1.000
    C18     C    0.44490   0.55800   0.13640   1.000
    C19     C    0.36050   0.66970   0.11650   1.000
    C20     C    0.39430   0.45830   0.11950   1.000
    C21     C    0.42710   0.24540   0.11200   1.000
    C22     C    0.47700   0.35320   0.13200   1.000
    C23     C    0.61600   0.34190   0.15610   1.000
    C24     C    0.66930   0.43570   0.17810   1.000
    C25     C    0.82060   0.89610   0.12050   1.000
    C26     C    0.91130   0.86850   0.23630   1.000
    C27     C    0.05330   0.82930   0.24970   1.000
    C28     C    0.13400   0.81240   0.35320   1.000
    C29     C    0.08290   0.83040   0.45300   1.000
    C30     C    0.94490   0.86360   0.44200   1.000
    C31     C    0.86050   0.88350   0.33030   1.000
    C32     C    0.89430   0.88050   0.54170   1.000
    C33     C    0.92710   0.88800   0.75460   1.000
    C34     C    0.97700   0.86800   0.64680   1.000
    C35     C    0.11600   0.84390   0.65810   1.000
    C36     C    0.16930   0.82190   0.56430   1.000
    C37     C    0.67940   0.12050   0.89610   1.000
    C38     C    0.58870   0.23630   0.86850   1.000
    C39     C    0.44670   0.24970   0.82930   1.000
    C40     C    0.36600   0.35320   0.81240   1.000
    C41     C    0.41710   0.45300   0.83040   1.000
    C42     C    0.55510   0.44200   0.86360   1.000
    C43     C    0.63950   0.33030   0.88350   1.000
    C44     C    0.60570   0.54170   0.88050   1.000
    C45     C    0.57290   0.75460   0.88800   1.000
    C46     C    0.52300   0.64680   0.86800   1.000
    C47     C    0.38400   0.65810   0.84390   1.000
    C48     C    0.33070   0.56430   0.82190   1.000
    O1      O    0.12030   0.11610   0.96350   1.000
    O2      O    0.18780   0.12100   0.25420   1.000
    O3      O    0.99240   0.09040   0.15300   1.000
    O4      O    0.30070   0.07490   0.89010   1.000
    O5      O    0.37970   0.96350   0.11610   1.000
    O6      O    0.31220   0.25420   0.12100   1.000
    O7      O    0.50760   0.15300   0.09040   1.000
    O8      O    0.19930   0.89010   0.07490   1.000
    O9      O    0.87970   0.88390   0.03650   1.000
    O10     O    0.81220   0.87900   0.74580   1.000
    O11     O    0.00760   0.90960   0.84700   1.000
    O12     O    0.69930   0.92510   0.10990   1.000
    O13     O    0.62030   0.03650   0.88390   1.000
    O14     O    0.68780   0.74580   0.87900   1.000
    O15     O    0.49240   0.84700   0.90960   1.000
    O16     O    0.80070   0.10990   0.92510   1.000
