# CIF file generated by openbabel 2.4.1, see http://openbabel.sf.net
data_I
_chemical_name_common 'image0'
_cell_length_a 8.669
_cell_length_b 17.932
_cell_length_c 9.097
_cell_angle_alpha 90
_cell_angle_beta 108.32
_cell_angle_gamma 90
_space_group_name_H-M_alt 'P 1'
_space_group_name_Hall 'P 1'
loop_
    _symmetry_equiv_pos_as_xyz
    x,y,z
loop_
    _atom_site_label
    _atom_site_type_symbol
    _atom_site_fract_x
    _atom_site_fract_y
    _atom_site_fract_z
    _atom_site_occupancy
    Ga1     Ga   0.13270   0.60820   0.66600   1.000
    Ga2     Ga   0.06920   0.79380   0.79930   1.000
    Ga3     Ga   0.51300   0.82570   0.69900   1.000
    P1      P    0.33950   0.92980   0.87180   1.000
    P2      P    0.29830   0.71260   0.48230   1.000
    P3      P    0.25390   0.66400   0.00700   1.000
    O1      O    0.10580   0.64360   0.05660   1.000
    O2      O    0.24910   0.60960   0.87480   1.000
    O3      O    0.28040   0.00850   0.83240   1.000
    O4      O    0.26570   0.64110   0.55460   1.000
    O5      O    0.19130   0.88030   0.82160   1.000
    O6      O    0.42410   0.92230   0.04660   1.000
    O7      O    0.24770   0.74530   0.95390   1.000
    O8      O    0.45010   0.70040   0.43790   1.000
    O9      O    0.41090   0.65120   0.13760   1.000
    O10     O    0.32490   0.77790   0.59810   1.000
    O11     O    0.15080   0.73440   0.34320   1.000
    O12     O    0.46080   0.90950   0.78560   1.000
    O13     O    0.02980   0.70560   0.67940   1.000
    Ga4     Ga   0.36730   0.10820   0.83400   1.000
    Ga5     Ga   0.43080   0.29380   0.70070   1.000
    Ga6     Ga   0.98700   0.32570   0.80100   1.000
    P4      P    0.16050   0.42980   0.62820   1.000
    P5      P    0.20170   0.21260   0.01770   1.000
    P6      P    0.24610   0.16400   0.49300   1.000
    O14     O    0.39420   0.14360   0.44340   1.000
    O15     O    0.25090   0.10960   0.62520   1.000
    O16     O    0.21960   0.50850   0.66760   1.000
    O17     O    0.23430   0.14110   0.94540   1.000
    O18     O    0.30870   0.38030   0.67840   1.000
    O19     O    0.07590   0.42230   0.45340   1.000
    O20     O    0.25230   0.24530   0.54610   1.000
    O21     O    0.04990   0.20040   0.06210   1.000
    O22     O    0.08910   0.15120   0.36240   1.000
    O23     O    0.17510   0.27790   0.90190   1.000
    O24     O    0.34920   0.23440   0.15680   1.000
    O25     O    0.03920   0.40950   0.71440   1.000
    O26     O    0.47020   0.20560   0.82060   1.000
    Ga7     Ga   0.86730   0.39180   0.33400   1.000
    Ga8     Ga   0.93080   0.20620   0.20070   1.000
    Ga9     Ga   0.48700   0.17430   0.30100   1.000
    P7      P    0.66050   0.07020   0.12820   1.000
    P8      P    0.70170   0.28740   0.51770   1.000
    P9      P    0.74610   0.33600   0.99300   1.000
    O27     O    0.89420   0.35640   0.94340   1.000
    O28     O    0.75090   0.39040   0.12520   1.000
    O29     O    0.71960   0.99150   0.16760   1.000
    O30     O    0.73430   0.35890   0.44540   1.000
    O31     O    0.80870   0.11970   0.17840   1.000
    O32     O    0.57590   0.07770   0.95340   1.000
    O33     O    0.75230   0.25470   0.04610   1.000
    O34     O    0.54990   0.29960   0.56210   1.000
    O35     O    0.58910   0.34880   0.86240   1.000
    O36     O    0.67510   0.22210   0.40190   1.000
    O37     O    0.84920   0.26560   0.65680   1.000
    O38     O    0.53920   0.09050   0.21440   1.000
    O39     O    0.97020   0.29440   0.32060   1.000
    Ga10    Ga   0.63270   0.89180   0.16600   1.000
    Ga11    Ga   0.56920   0.70620   0.29930   1.000
    Ga12    Ga   0.01300   0.67430   0.19900   1.000
    P10     P    0.83950   0.57020   0.37180   1.000
    P11     P    0.79830   0.78740   0.98230   1.000
    P12     P    0.75390   0.83600   0.50700   1.000
    O40     O    0.60580   0.85640   0.55660   1.000
    O41     O    0.74910   0.89040   0.37480   1.000
    O42     O    0.78040   0.49150   0.33240   1.000
    O43     O    0.76570   0.85890   0.05460   1.000
    O44     O    0.69130   0.61970   0.32160   1.000
    O45     O    0.92410   0.57770   0.54660   1.000
    O46     O    0.74770   0.75470   0.45390   1.000
    O47     O    0.95010   0.79960   0.93790   1.000
    O48     O    0.91090   0.84880   0.63760   1.000
    O49     O    0.82490   0.72210   0.09810   1.000
    O50     O    0.65080   0.76560   0.84320   1.000
    O51     O    0.96080   0.59050   0.28560   1.000
    O52     O    0.52980   0.79440   0.17940   1.000
