# CIF file generated by openbabel 2.4.1, see http://openbabel.sf.net
data_I
_chemical_name_common 'image0'
_cell_length_a 18.8285
_cell_length_b 18.8285
_cell_length_c 18.8285
_cell_angle_alpha 90
_cell_angle_beta 90
_cell_angle_gamma 90
_space_group_name_H-M_alt 'P 1'
_space_group_name_Hall 'P 1'
loop_
    _symmetry_equiv_pos_as_xyz
    x,y,z
loop_
    _atom_site_label
    _atom_site_type_symbol
    _atom_site_fract_x
    _atom_site_fract_y
    _atom_site_fract_z
    _atom_site_occupancy
    N1      N    0.07880   0.37020   0.41880   1.000
    N2      N    0.13390   0.32630   0.40890   1.000
    N3      N    0.92120   0.62980   0.41880   1.000
    N4      N    0.86610   0.67370   0.40890   1.000
    N5      N    0.92120   0.37020   0.58120   1.000
    N6      N    0.86610   0.32630   0.59110   1.000
    N7      N    0.07880   0.62980   0.58120   1.000
    N8      N    0.13390   0.67370   0.59110   1.000
    N9      N    0.41880   0.07880   0.37020   1.000
    N10     N    0.40890   0.13390   0.32630   1.000
    N11     N    0.41880   0.92120   0.62980   1.000
    N12     N    0.40890   0.86610   0.67370   1.000
    N13     N    0.58120   0.92120   0.37020   1.000
    N14     N    0.59110   0.86610   0.32630   1.000
    N15     N    0.58120   0.07880   0.62980   1.000
    N16     N    0.59110   0.13390   0.67370   1.000
    N17     N    0.37020   0.41880   0.07880   1.000
    N18     N    0.32630   0.40890   0.13390   1.000
    N19     N    0.62980   0.41880   0.92120   1.000
    N20     N    0.67370   0.40890   0.86610   1.000
    N21     N    0.37020   0.58120   0.92120   1.000
    N22     N    0.32630   0.59110   0.86610   1.000
    N23     N    0.62980   0.58120   0.07880   1.000
    N24     N    0.67370   0.59110   0.13390   1.000
    N25     N    0.37020   0.07880   0.58120   1.000
    N26     N    0.32630   0.13390   0.59110   1.000
    N27     N    0.62980   0.92120   0.58120   1.000
    N28     N    0.67370   0.86610   0.59110   1.000
    N29     N    0.37020   0.92120   0.41880   1.000
    N30     N    0.32630   0.86610   0.40890   1.000
    N31     N    0.62980   0.07880   0.41880   1.000
    N32     N    0.67370   0.13390   0.40890   1.000
    N33     N    0.07880   0.41880   0.62980   1.000
    N34     N    0.13390   0.40890   0.67370   1.000
    N35     N    0.92120   0.41880   0.37020   1.000
    N36     N    0.86610   0.40890   0.32630   1.000
    N37     N    0.92120   0.58120   0.62980   1.000
    N38     N    0.86610   0.59110   0.67370   1.000
    N39     N    0.07880   0.58120   0.37020   1.000
    N40     N    0.13390   0.59110   0.32630   1.000
    N41     N    0.41880   0.37020   0.92120   1.000
    N42     N    0.40890   0.32630   0.86610   1.000
    N43     N    0.41880   0.62980   0.07880   1.000
    N44     N    0.40890   0.67370   0.13390   1.000
    N45     N    0.58120   0.37020   0.07880   1.000
    N46     N    0.59110   0.32630   0.13390   1.000
    N47     N    0.58120   0.62980   0.92120   1.000
    N48     N    0.59110   0.67370   0.86610   1.000
    N49     N    0.92120   0.62980   0.58120   1.000
    N50     N    0.86610   0.67370   0.59110   1.000
    N51     N    0.07880   0.37020   0.58120   1.000
    N52     N    0.13390   0.32630   0.59110   1.000
    N53     N    0.07880   0.62980   0.41880   1.000
    N54     N    0.13390   0.67370   0.40890   1.000
    N55     N    0.92120   0.37020   0.41880   1.000
    N56     N    0.86610   0.32630   0.40890   1.000
    N57     N    0.58120   0.92120   0.62980   1.000
    N58     N    0.59110   0.86610   0.67370   1.000
    N59     N    0.58120   0.07880   0.37020   1.000
    N60     N    0.59110   0.13390   0.32630   1.000
    N61     N    0.41880   0.07880   0.62980   1.000
    N62     N    0.40890   0.13390   0.67370   1.000
    N63     N    0.41880   0.92120   0.37020   1.000
    N64     N    0.40890   0.86610   0.32630   1.000
    N65     N    0.62980   0.58120   0.92120   1.000
    N66     N    0.67370   0.59110   0.86610   1.000
    N67     N    0.37020   0.58120   0.07880   1.000
    N68     N    0.32630   0.59110   0.13390   1.000
    N69     N    0.62980   0.41880   0.07880   1.000
    N70     N    0.67370   0.40890   0.13390   1.000
    N71     N    0.37020   0.41880   0.92120   1.000
    N72     N    0.32630   0.40890   0.86610   1.000
    N73     N    0.62980   0.92120   0.41880   1.000
    N74     N    0.67370   0.86610   0.40890   1.000
    N75     N    0.37020   0.07880   0.41880   1.000
    N76     N    0.32630   0.13390   0.40890   1.000
    N77     N    0.62980   0.07880   0.58120   1.000
    N78     N    0.67370   0.13390   0.59110   1.000
    N79     N    0.37020   0.92120   0.58120   1.000
    N80     N    0.32630   0.86610   0.59110   1.000
    N81     N    0.92120   0.58120   0.37020   1.000
    N82     N    0.86610   0.59110   0.32630   1.000
    N83     N    0.07880   0.58120   0.62980   1.000
    N84     N    0.13390   0.59110   0.67370   1.000
    N85     N    0.07880   0.41880   0.37020   1.000
    N86     N    0.13390   0.40890   0.32630   1.000
    N87     N    0.92120   0.41880   0.62980   1.000
    N88     N    0.86610   0.40890   0.67370   1.000
    N89     N    0.58120   0.62980   0.07880   1.000
    N90     N    0.59110   0.67370   0.13390   1.000
    N91     N    0.58120   0.37020   0.92120   1.000
    N92     N    0.59110   0.32630   0.86610   1.000
    N93     N    0.41880   0.62980   0.92120   1.000
    N94     N    0.40890   0.67370   0.86610   1.000
    N95     N    0.41880   0.37020   0.07880   1.000
    N96     N    0.40890   0.32630   0.13390   1.000
    Zn1     Zn   0.00000   0.35900   0.50000   1.000
    O1      O    0.00000   0.24840   0.50000   1.000
    Mn1     Mn   0.00000   0.35800   0.50000   1.000
    Zn2     Zn   0.00000   0.64100   0.50000   1.000
    O2      O    0.00000   0.75160   0.50000   1.000
    Mn2     Mn   0.00000   0.64200   0.50000   1.000
    Zn3     Zn   0.50000   0.00000   0.35900   1.000
    O3      O    0.50000   0.00000   0.24840   1.000
    Mn3     Mn   0.50000   0.00000   0.35800   1.000
    Zn4     Zn   0.50000   0.00000   0.64100   1.000
    O4      O    0.50000   0.00000   0.75160   1.000
    Mn4     Mn   0.50000   0.00000   0.64200   1.000
    Zn5     Zn   0.35900   0.50000   0.00000   1.000
    O5      O    0.24840   0.50000   0.00000   1.000
    Mn5     Mn   0.35800   0.50000   0.00000   1.000
    Zn6     Zn   0.64100   0.50000   0.00000   1.000
    O6      O    0.75160   0.50000   0.00000   1.000
    Mn6     Mn   0.64200   0.50000   0.00000   1.000
    Zn7     Zn   0.35900   0.00000   0.50000   1.000
    O7      O    0.24840   0.00000   0.50000   1.000
    Mn7     Mn   0.35800   0.00000   0.50000   1.000
    Zn8     Zn   0.64100   0.00000   0.50000   1.000
    O8      O    0.75160   0.00000   0.50000   1.000
    Mn8     Mn   0.64200   0.00000   0.50000   1.000
    Zn9     Zn   0.00000   0.50000   0.64100   1.000
    O9      O    0.00000   0.50000   0.75160   1.000
    Mn9     Mn   0.00000   0.50000   0.64200   1.000
    Zn10    Zn   0.00000   0.50000   0.35900   1.000
    O10     O    0.00000   0.50000   0.24840   1.000
    Mn10    Mn   0.00000   0.50000   0.35800   1.000
    Zn11    Zn   0.50000   0.35900   0.00000   1.000
    O11     O    0.50000   0.24840   0.00000   1.000
    Mn11    Mn   0.50000   0.35800   0.00000   1.000
    Zn12    Zn   0.50000   0.64100   0.00000   1.000
    O12     O    0.50000   0.75160   0.00000   1.000
    Mn12    Mn   0.50000   0.64200   0.00000   1.000
    Cl1     Cl   0.00000   0.50000   0.50000   1.000
    Cl2     Cl   0.50000   0.00000   0.50000   1.000
    Cl3     Cl   0.50000   0.50000   0.00000   1.000
    C1      C    0.16660   0.35110   0.35110   1.000
    C2      C    0.23020   0.32060   0.32060   1.000
    C3      C    0.83340   0.64890   0.35110   1.000
    C4      C    0.76980   0.67940   0.32060   1.000
    C5      C    0.83340   0.35110   0.64890   1.000
    C6      C    0.76980   0.32060   0.67940   1.000
    C7      C    0.16660   0.64890   0.64890   1.000
    C8      C    0.23020   0.67940   0.67940   1.000
    C9      C    0.35110   0.16660   0.35110   1.000
    C10     C    0.32060   0.23020   0.32060   1.000
    C11     C    0.35110   0.83340   0.64890   1.000
    C12     C    0.32060   0.76980   0.67940   1.000
    C13     C    0.64890   0.83340   0.35110   1.000
    C14     C    0.67940   0.76980   0.32060   1.000
    C15     C    0.64890   0.16660   0.64890   1.000
    C16     C    0.67940   0.23020   0.67940   1.000
    C17     C    0.35110   0.35110   0.16660   1.000
    C18     C    0.32060   0.32060   0.23020   1.000
    C19     C    0.64890   0.35110   0.83340   1.000
    C20     C    0.67940   0.32060   0.76980   1.000
    C21     C    0.35110   0.64890   0.83340   1.000
    C22     C    0.32060   0.67940   0.76980   1.000
    C23     C    0.64890   0.64890   0.16660   1.000
    C24     C    0.67940   0.67940   0.23020   1.000
    C25     C    0.35110   0.16660   0.64890   1.000
    C26     C    0.32060   0.23020   0.67940   1.000
    C27     C    0.64890   0.83340   0.64890   1.000
    C28     C    0.67940   0.76980   0.67940   1.000
    C29     C    0.35110   0.83340   0.35110   1.000
    C30     C    0.32060   0.76980   0.32060   1.000
    C31     C    0.64890   0.16660   0.35110   1.000
    C32     C    0.67940   0.23020   0.32060   1.000
    C33     C    0.16660   0.35110   0.64890   1.000
    C34     C    0.23020   0.32060   0.67940   1.000
    C35     C    0.83340   0.35110   0.35110   1.000
    C36     C    0.76980   0.32060   0.32060   1.000
    C37     C    0.83340   0.64890   0.64890   1.000
    C38     C    0.76980   0.67940   0.67940   1.000
    C39     C    0.16660   0.64890   0.35110   1.000
    C40     C    0.23020   0.67940   0.32060   1.000
    C41     C    0.35110   0.35110   0.83340   1.000
    C42     C    0.32060   0.32060   0.76980   1.000
    C43     C    0.35110   0.64890   0.16660   1.000
    C44     C    0.32060   0.67940   0.23020   1.000
    C45     C    0.64890   0.35110   0.16660   1.000
    C46     C    0.67940   0.32060   0.23020   1.000
    C47     C    0.64890   0.64890   0.83340   1.000
    C48     C    0.67940   0.67940   0.76980   1.000
    C49     C    0.26050   0.35000   0.26050   1.000
    H1      H    0.24010   0.39010   0.24010   1.000
    C50     C    0.73950   0.65000   0.26050   1.000
    H2      H    0.75990   0.60990   0.24010   1.000
    C51     C    0.73950   0.35000   0.73950   1.000
    H3      H    0.75990   0.39010   0.75990   1.000
    C52     C    0.26050   0.65000   0.73950   1.000
    H4      H    0.24010   0.60990   0.75990   1.000
    C53     C    0.26050   0.26050   0.35000   1.000
    H5      H    0.24010   0.24010   0.39010   1.000
    C54     C    0.26050   0.73950   0.65000   1.000
    H6      H    0.24010   0.75990   0.60990   1.000
    C55     C    0.73950   0.73950   0.35000   1.000
    H7      H    0.75990   0.75990   0.39010   1.000
    C56     C    0.73950   0.26050   0.65000   1.000
    H8      H    0.75990   0.24010   0.60990   1.000
    C57     C    0.35000   0.26050   0.26050   1.000
    H9      H    0.39010   0.24010   0.24010   1.000
    C58     C    0.65000   0.26050   0.73950   1.000
    H10     H    0.60990   0.24010   0.75990   1.000
    C59     C    0.35000   0.73950   0.73950   1.000
    H11     H    0.39010   0.75990   0.75990   1.000
    C60     C    0.65000   0.73950   0.26050   1.000
    H12     H    0.60990   0.75990   0.24010   1.000
    C61     C    0.35000   0.26050   0.73950   1.000
    H13     H    0.39010   0.24010   0.75990   1.000
    C62     C    0.65000   0.73950   0.73950   1.000
    H14     H    0.60990   0.75990   0.75990   1.000
    C63     C    0.35000   0.73950   0.26050   1.000
    H15     H    0.39010   0.75990   0.24010   1.000
    C64     C    0.65000   0.26050   0.26050   1.000
    H16     H    0.60990   0.24010   0.24010   1.000
    C65     C    0.26050   0.26050   0.65000   1.000
    H17     H    0.24010   0.24010   0.60990   1.000
    C66     C    0.73950   0.26050   0.35000   1.000
    H18     H    0.75990   0.24010   0.39010   1.000
    C67     C    0.73950   0.73950   0.65000   1.000
    H19     H    0.75990   0.75990   0.60990   1.000
    C68     C    0.26050   0.73950   0.35000   1.000
    H20     H    0.24010   0.75990   0.39010   1.000
    C69     C    0.26050   0.35000   0.73950   1.000
    H21     H    0.24010   0.39010   0.75990   1.000
    C70     C    0.26050   0.65000   0.26050   1.000
    H22     H    0.24010   0.60990   0.24010   1.000
    C71     C    0.73950   0.35000   0.26050   1.000
    H23     H    0.75990   0.39010   0.24010   1.000
    C72     C    0.73950   0.65000   0.73950   1.000
    H24     H    0.75990   0.60990   0.75990   1.000
    Zn13    Zn   0.12720   0.26240   0.50000   1.000
    Zn14    Zn   0.87280   0.73760   0.50000   1.000
    Zn15    Zn   0.87280   0.26240   0.50000   1.000
    Zn16    Zn   0.12720   0.73760   0.50000   1.000
    Zn17    Zn   0.50000   0.12720   0.26240   1.000
    Zn18    Zn   0.50000   0.87280   0.73760   1.000
    Zn19    Zn   0.50000   0.87280   0.26240   1.000
    Zn20    Zn   0.50000   0.12720   0.73760   1.000
    Zn21    Zn   0.26240   0.50000   0.12720   1.000
    Zn22    Zn   0.73760   0.50000   0.87280   1.000
    Zn23    Zn   0.26240   0.50000   0.87280   1.000
    Zn24    Zn   0.73760   0.50000   0.12720   1.000
    Zn25    Zn   0.26240   0.12720   0.50000   1.000
    Zn26    Zn   0.73760   0.87280   0.50000   1.000
    Zn27    Zn   0.26240   0.87280   0.50000   1.000
    Zn28    Zn   0.73760   0.12720   0.50000   1.000
    Zn29    Zn   0.12720   0.50000   0.73760   1.000
    Zn30    Zn   0.87280   0.50000   0.26240   1.000
    Zn31    Zn   0.87280   0.50000   0.73760   1.000
    Zn32    Zn   0.12720   0.50000   0.26240   1.000
    Zn33    Zn   0.50000   0.26240   0.87280   1.000
    Zn34    Zn   0.50000   0.73760   0.12720   1.000
    Zn35    Zn   0.50000   0.26240   0.12720   1.000
    Zn36    Zn   0.50000   0.73760   0.87280   1.000
