# CIF file generated by openbabel 2.4.1, see http://openbabel.sf.net
data_I
_chemical_name_common 'image0'
_cell_length_a 15.1644
_cell_length_b 15.1644
_cell_length_c 19.043
_cell_angle_alpha 90
_cell_angle_beta 90
_cell_angle_gamma 90
_space_group_name_H-M_alt 'P 1'
_space_group_name_Hall 'P 1'
loop_
    _symmetry_equiv_pos_as_xyz
    x,y,z
loop_
    _atom_site_label
    _atom_site_type_symbol
    _atom_site_fract_x
    _atom_site_fract_y
    _atom_site_fract_z
    _atom_site_occupancy
    C1      C    0.25980   0.17590   0.43734   1.000
    H1      H    0.23960   0.15320   0.39490   1.000
    O1      O    0.11800   0.06060   0.44161   1.000
    C2      C    0.92570   0.05800   0.29150   1.000
    C3      C    0.96300   0.08720   0.28990   1.000
    C4      C    0.01200   0.09220   0.29140   1.000
    C5      C    0.75980   0.67590   0.93734   1.000
    H2      H    0.73960   0.65320   0.89490   1.000
    O2      O    0.61800   0.56060   0.94161   1.000
    C6      C    0.42570   0.55800   0.79150   1.000
    C7      C    0.46300   0.58720   0.78990   1.000
    C8      C    0.51200   0.59220   0.79140   1.000
    C9      C    0.74020   0.82410   0.43734   1.000
    H3      H    0.76040   0.84680   0.39490   1.000
    O3      O    0.88200   0.93940   0.44161   1.000
    C10     C    0.07430   0.94200   0.29150   1.000
    C11     C    0.03700   0.91280   0.28990   1.000
    C12     C    0.98800   0.90780   0.29140   1.000
    C13     C    0.24020   0.32410   0.93734   1.000
    H4      H    0.26040   0.34680   0.89490   1.000
    O4      O    0.38200   0.43940   0.94161   1.000
    C14     C    0.57430   0.44200   0.79150   1.000
    C15     C    0.53700   0.41280   0.78990   1.000
    C16     C    0.48800   0.40780   0.79140   1.000
    C17     C    0.82410   0.25980   0.43734   1.000
    H5      H    0.84680   0.23960   0.39490   1.000
    O5      O    0.93940   0.11800   0.44161   1.000
    C18     C    0.94200   0.92570   0.29150   1.000
    C19     C    0.91280   0.96300   0.28990   1.000
    C20     C    0.90780   0.01200   0.29140   1.000
    C21     C    0.32410   0.75980   0.93734   1.000
    H6      H    0.34680   0.73960   0.89490   1.000
    O6      O    0.43940   0.61800   0.94161   1.000
    C22     C    0.44200   0.42570   0.79150   1.000
    C23     C    0.41280   0.46300   0.78990   1.000
    C24     C    0.40780   0.51200   0.79140   1.000
    C25     C    0.17590   0.74020   0.43734   1.000
    H7      H    0.15320   0.76040   0.39490   1.000
    O7      O    0.06060   0.88200   0.44161   1.000
    C26     C    0.05800   0.07430   0.29150   1.000
    C27     C    0.08720   0.03700   0.28990   1.000
    C28     C    0.09220   0.98800   0.29140   1.000
    C29     C    0.67590   0.24020   0.93734   1.000
    H8      H    0.65320   0.26040   0.89490   1.000
    O8      O    0.56060   0.38200   0.94161   1.000
    C30     C    0.55800   0.57430   0.79150   1.000
    C31     C    0.58720   0.53700   0.78990   1.000
    C32     C    0.59220   0.48800   0.79140   1.000
    C33     C    0.74020   0.17590   0.06266   1.000
    H9      H    0.76040   0.15320   0.10510   1.000
    O9      O    0.88200   0.06060   0.05839   1.000
    C34     C    0.07430   0.05800   0.20850   1.000
    C35     C    0.03700   0.08720   0.21010   1.000
    C36     C    0.98800   0.09220   0.20860   1.000
    C37     C    0.24020   0.67590   0.56266   1.000
    H10     H    0.26040   0.65320   0.60510   1.000
    O10     O    0.38200   0.56060   0.55839   1.000
    C38     C    0.57430   0.55800   0.70850   1.000
    C39     C    0.53700   0.58720   0.71010   1.000
    C40     C    0.48800   0.59220   0.70860   1.000
    C41     C    0.25980   0.82410   0.06266   1.000
    H11     H    0.23960   0.84680   0.10510   1.000
    O11     O    0.11800   0.93940   0.05839   1.000
    C42     C    0.92570   0.94200   0.20850   1.000
    C43     C    0.96300   0.91280   0.21010   1.000
    C44     C    0.01200   0.90780   0.20860   1.000
    C45     C    0.75980   0.32410   0.56266   1.000
    H12     H    0.73960   0.34680   0.60510   1.000
    O12     O    0.61800   0.43940   0.55839   1.000
    C46     C    0.42570   0.44200   0.70850   1.000
    C47     C    0.46300   0.41280   0.71010   1.000
    C48     C    0.51200   0.40780   0.70860   1.000
    C49     C    0.17590   0.25980   0.06266   1.000
    H13     H    0.15320   0.23960   0.10510   1.000
    O13     O    0.06060   0.11800   0.05839   1.000
    C50     C    0.05800   0.92570   0.20850   1.000
    C51     C    0.08720   0.96300   0.21010   1.000
    C52     C    0.09220   0.01200   0.20860   1.000
    C53     C    0.67590   0.75980   0.56266   1.000
    H14     H    0.65320   0.73960   0.60510   1.000
    O14     O    0.56060   0.61800   0.55839   1.000
    C54     C    0.55800   0.42570   0.70850   1.000
    C55     C    0.58720   0.46300   0.71010   1.000
    C56     C    0.59220   0.51200   0.70860   1.000
    C57     C    0.82410   0.74020   0.06266   1.000
    H15     H    0.84680   0.76040   0.10510   1.000
    O15     O    0.93940   0.88200   0.05839   1.000
    C58     C    0.94200   0.07430   0.20850   1.000
    C59     C    0.91280   0.03700   0.21010   1.000
    C60     C    0.90780   0.98800   0.20860   1.000
    C61     C    0.32410   0.24020   0.56266   1.000
    H16     H    0.34680   0.26040   0.60510   1.000
    O16     O    0.43940   0.38200   0.55839   1.000
    C62     C    0.44200   0.57430   0.70850   1.000
    C63     C    0.41280   0.53700   0.71010   1.000
    C64     C    0.40780   0.48800   0.70860   1.000
    C65     C    0.74020   0.82410   0.56266   1.000
    H17     H    0.76040   0.84680   0.60510   1.000
    O17     O    0.88200   0.93940   0.55839   1.000
    C66     C    0.07430   0.94200   0.70850   1.000
    C67     C    0.03700   0.91280   0.71010   1.000
    C68     C    0.98800   0.90780   0.70860   1.000
    C69     C    0.24020   0.32410   0.06266   1.000
    H18     H    0.26040   0.34680   0.10510   1.000
    O18     O    0.38200   0.43940   0.05839   1.000
    C70     C    0.57430   0.44200   0.20850   1.000
    C71     C    0.53700   0.41280   0.21010   1.000
    C72     C    0.48800   0.40780   0.20860   1.000
    C73     C    0.25980   0.17590   0.56266   1.000
    H19     H    0.23960   0.15320   0.60510   1.000
    O19     O    0.11800   0.06060   0.55839   1.000
    C74     C    0.92570   0.05800   0.70850   1.000
    C75     C    0.96300   0.08720   0.71010   1.000
    C76     C    0.01200   0.09220   0.70860   1.000
    C77     C    0.75980   0.67590   0.06266   1.000
    H20     H    0.73960   0.65320   0.10510   1.000
    O20     O    0.61800   0.56060   0.05839   1.000
    C78     C    0.42570   0.55800   0.20850   1.000
    C79     C    0.46300   0.58720   0.21010   1.000
    C80     C    0.51200   0.59220   0.20860   1.000
    C81     C    0.17590   0.74020   0.56266   1.000
    H21     H    0.15320   0.76040   0.60510   1.000
    O21     O    0.06060   0.88200   0.55839   1.000
    C82     C    0.05800   0.07430   0.70850   1.000
    C83     C    0.08720   0.03700   0.71010   1.000
    C84     C    0.09220   0.98800   0.70860   1.000
    C85     C    0.67590   0.24020   0.06266   1.000
    H22     H    0.65320   0.26040   0.10510   1.000
    O22     O    0.56060   0.38200   0.05839   1.000
    C86     C    0.55800   0.57430   0.20850   1.000
    C87     C    0.58720   0.53700   0.21010   1.000
    C88     C    0.59220   0.48800   0.20860   1.000
    C89     C    0.82410   0.25980   0.56266   1.000
    H23     H    0.84680   0.23960   0.60510   1.000
    O23     O    0.93940   0.11800   0.55839   1.000
    C90     C    0.94200   0.92570   0.70850   1.000
    C91     C    0.91280   0.96300   0.71010   1.000
    C92     C    0.90780   0.01200   0.70860   1.000
    C93     C    0.32410   0.75980   0.06266   1.000
    H24     H    0.34680   0.73960   0.10510   1.000
    O24     O    0.43940   0.61800   0.05839   1.000
    C94     C    0.44200   0.42570   0.20850   1.000
    C95     C    0.41280   0.46300   0.21010   1.000
    C96     C    0.40780   0.51200   0.20860   1.000
    C97     C    0.25980   0.82410   0.93734   1.000
    H25     H    0.23960   0.84680   0.89490   1.000
    O25     O    0.11800   0.93940   0.94161   1.000
    C98     C    0.92570   0.94200   0.79150   1.000
    C99     C    0.96300   0.91280   0.78990   1.000
    C100    C    0.01200   0.90780   0.79140   1.000
    C101    C    0.75980   0.32410   0.43734   1.000
    H26     H    0.73960   0.34680   0.39490   1.000
    O26     O    0.61800   0.43940   0.44161   1.000
    C102    C    0.42570   0.44200   0.29150   1.000
    C103    C    0.46300   0.41280   0.28990   1.000
    C104    C    0.51200   0.40780   0.29140   1.000
    C105    C    0.74020   0.17590   0.93734   1.000
    H27     H    0.76040   0.15320   0.89490   1.000
    O27     O    0.88200   0.06060   0.94161   1.000
    C106    C    0.07430   0.05800   0.79150   1.000
    C107    C    0.03700   0.08720   0.78990   1.000
    C108    C    0.98800   0.09220   0.79140   1.000
    C109    C    0.24020   0.67590   0.43734   1.000
    H28     H    0.26040   0.65320   0.39490   1.000
    O28     O    0.38200   0.56060   0.44161   1.000
    C110    C    0.57430   0.55800   0.29150   1.000
    C111    C    0.53700   0.58720   0.28990   1.000
    C112    C    0.48800   0.59220   0.29140   1.000
    C113    C    0.82410   0.74020   0.93734   1.000
    H29     H    0.84680   0.76040   0.89490   1.000
    O29     O    0.93940   0.88200   0.94161   1.000
    C114    C    0.94200   0.07430   0.79150   1.000
    C115    C    0.91280   0.03700   0.78990   1.000
    C116    C    0.90780   0.98800   0.79140   1.000
    C117    C    0.32410   0.24020   0.43734   1.000
    H30     H    0.34680   0.26040   0.39490   1.000
    O30     O    0.43940   0.38200   0.44161   1.000
    C118    C    0.44200   0.57430   0.29150   1.000
    C119    C    0.41280   0.53700   0.28990   1.000
    C120    C    0.40780   0.48800   0.29140   1.000
    C121    C    0.17590   0.25980   0.93734   1.000
    H31     H    0.15320   0.23960   0.89490   1.000
    O31     O    0.06060   0.11800   0.94161   1.000
    C122    C    0.05800   0.92570   0.79150   1.000
    C123    C    0.08720   0.96300   0.78990   1.000
    C124    C    0.09220   0.01200   0.79140   1.000
    C125    C    0.67590   0.75980   0.43734   1.000
    H32     H    0.65320   0.73960   0.39490   1.000
    O32     O    0.56060   0.61800   0.44161   1.000
    C126    C    0.55800   0.42570   0.29150   1.000
    C127    C    0.58720   0.46300   0.28990   1.000
    C128    C    0.59220   0.51200   0.29140   1.000
    Co1     Co   0.00000   0.00000   0.42791   1.000
    N1      N    0.00000   0.00000   0.31760   1.000
    Co2     Co   0.50000   0.50000   0.92791   1.000
    N2      N    0.50000   0.50000   0.81760   1.000
    Co3     Co   0.00000   0.00000   0.07209   1.000
    N3      N    0.00000   0.00000   0.18240   1.000
    Co4     Co   0.50000   0.50000   0.57209   1.000
    N4      N    0.50000   0.50000   0.68240   1.000
    Co5     Co   0.00000   0.00000   0.57209   1.000
    N5      N    0.00000   0.00000   0.68240   1.000
    Co6     Co   0.50000   0.50000   0.07209   1.000
    N6      N    0.50000   0.50000   0.18240   1.000
    Co7     Co   0.00000   0.00000   0.92791   1.000
    N7      N    0.00000   0.00000   0.81760   1.000
    Co8     Co   0.50000   0.50000   0.42791   1.000
    N8      N    0.50000   0.50000   0.31760   1.000
    C129    C    0.14860   0.08320   0.50000   1.000
    C130    C    0.22500   0.14470   0.50000   1.000
    C131    C    0.64860   0.58320   0.00000   1.000
    C132    C    0.72500   0.64470   0.00000   1.000
    C133    C    0.85140   0.91680   0.50000   1.000
    C134    C    0.77500   0.85530   0.50000   1.000
    C135    C    0.35140   0.41680   0.00000   1.000
    C136    C    0.27500   0.35530   0.00000   1.000
    C137    C    0.91680   0.14860   0.50000   1.000
    C138    C    0.85530   0.22500   0.50000   1.000
    C139    C    0.41680   0.64860   0.00000   1.000
    C140    C    0.35530   0.72500   0.00000   1.000
    C141    C    0.08320   0.85140   0.50000   1.000
    C142    C    0.14470   0.77500   0.50000   1.000
    C143    C    0.58320   0.35140   0.00000   1.000
    C144    C    0.64470   0.27500   0.00000   1.000
    C145    C    0.85140   0.08320   0.00000   1.000
    C146    C    0.77500   0.14470   0.00000   1.000
    C147    C    0.35140   0.58320   0.50000   1.000
    C148    C    0.27500   0.64470   0.50000   1.000
    C149    C    0.14860   0.91680   0.00000   1.000
    C150    C    0.22500   0.85530   0.00000   1.000
    C151    C    0.64860   0.41680   0.50000   1.000
    C152    C    0.72500   0.35530   0.50000   1.000
    C153    C    0.08320   0.14860   0.00000   1.000
    C154    C    0.14470   0.22500   0.00000   1.000
    C155    C    0.58320   0.64860   0.50000   1.000
    C156    C    0.64470   0.72500   0.50000   1.000
    C157    C    0.91680   0.85140   0.00000   1.000
    C158    C    0.85530   0.77500   0.00000   1.000
    C159    C    0.41680   0.35140   0.50000   1.000
    C160    C    0.35530   0.27500   0.50000   1.000
