# CIF file generated by openbabel 2.4.1, see http://openbabel.sf.net
data_I
_chemical_name_common 'BICDAU_clean'
_cell_length_a 17.75
_cell_length_b 17.75
_cell_length_c 19.192
_cell_angle_alpha 90
_cell_angle_beta 90
_cell_angle_gamma 120
_space_group_name_H-M_alt 'P 1'
_space_group_name_Hall 'P 1'
loop_
    _symmetry_equiv_pos_as_xyz
    x,y,z
loop_
    _atom_site_label
    _atom_site_type_symbol
    _atom_site_fract_x
    _atom_site_fract_y
    _atom_site_fract_z
    _atom_site_occupancy
    Zn1     Zn   0.87288   0.50416   0.32784   1.000
    Zn2     Zn   0.63128   0.12712   0.32784   1.000
    Zn3     Zn   0.49584   0.36872   0.32784   1.000
    Zn4     Zn   0.36872   0.49584   0.67216   1.000
    Zn5     Zn   0.50416   0.87288   0.67216   1.000
    Zn6     Zn   0.12712   0.63128   0.67216   1.000
    Zn7     Zn   0.66667   0.33334   0.26447   1.000
    Zn8     Zn   0.66667   0.33334   0.07796   1.000
    Zn9     Zn   0.33333   0.66666   0.73553   1.000
    Zn10    Zn   0.33333   0.66666   0.92204   1.000
    H1      H    0.79460   0.13590   0.43300   1.000
    H2      H    0.92060   0.19980   0.49940   1.000
    H3      H    0.97960   0.44320   0.43980   1.000
    H4      H    0.85950   0.47020   0.00050   1.000
    H5      H    0.08540   0.65310   0.08970   1.000
    H6      H    0.02610   0.61910   0.20080   1.000
    H7      H    0.34130   0.20540   0.43300   1.000
    H8      H    0.27920   0.07940   0.49940   1.000
    H9      H    0.46360   0.02040   0.43980   1.000
    H10     H    0.61070   0.14050   0.00050   1.000
    H11     H    0.56770   0.91460   0.08970   1.000
    H12     H    0.59300   0.97390   0.20080   1.000
    H13     H    0.86410   0.65870   0.43300   1.000
    H14     H    0.80020   0.72080   0.49940   1.000
    H15     H    0.55680   0.53640   0.43980   1.000
    H16     H    0.52980   0.38930   0.00050   1.000
    H17     H    0.34690   0.43230   0.08970   1.000
    H18     H    0.38090   0.40700   0.20080   1.000
    H19     H    0.65870   0.86410   0.56700   1.000
    H20     H    0.72080   0.80020   0.50060   1.000
    H21     H    0.53640   0.55680   0.56020   1.000
    H22     H    0.38930   0.52980   0.99950   1.000
    H23     H    0.43230   0.34690   0.91030   1.000
    H24     H    0.40700   0.38090   0.79920   1.000
    H25     H    0.13590   0.79460   0.56700   1.000
    H26     H    0.19980   0.92060   0.50060   1.000
    H27     H    0.44320   0.97960   0.56020   1.000
    H28     H    0.47020   0.85950   0.99950   1.000
    H29     H    0.65310   0.08540   0.91030   1.000
    H30     H    0.61910   0.02610   0.79920   1.000
    H31     H    0.20540   0.34130   0.56700   1.000
    H32     H    0.07940   0.27920   0.50060   1.000
    H33     H    0.02040   0.46360   0.56020   1.000
    H34     H    0.14050   0.61070   0.99950   1.000
    H35     H    0.91460   0.56770   0.91030   1.000
    H36     H    0.97390   0.59300   0.79920   1.000
    C1      C    0.86730   0.34375   0.39747   1.000
    C2      C    0.81170   0.25310   0.39544   1.000
    C3      C    0.83130   0.19730   0.43420   1.000
    C4      C    0.90550   0.23580   0.47330   1.000
    C5      C    0.96150   0.32840   0.47673   1.000
    C6      C    0.94260   0.38180   0.43856   1.000
    C7      C    0.90530   0.52140   0.16716   1.000
    C8      C    0.85729   0.47929   0.10786   1.000
    C9      C    0.89290   0.49970   0.04036   1.000
    C10     C    0.97810   0.56410   0.03483   1.000
    C11     C    0.02668   0.60819   0.09528   1.000
    C12     C    0.99265   0.58876   0.16112   1.000
    C13     C    0.47645   0.13270   0.39747   1.000
    C14     C    0.44140   0.18830   0.39544   1.000
    C15     C    0.36600   0.16870   0.43420   1.000
    C16     C    0.33030   0.09450   0.47330   1.000
    C17     C    0.36690   0.03850   0.47673   1.000
    C18     C    0.43920   0.05740   0.43856   1.000
    C19     C    0.61610   0.09470   0.16716   1.000
    C20     C    0.62200   0.14271   0.10786   1.000
    C21     C    0.60680   0.10710   0.04036   1.000
    C22     C    0.58600   0.02190   0.03483   1.000
    C23     C    0.58151   0.97332   0.09528   1.000
    C24     C    0.59611   0.00735   0.16112   1.000
    C25     C    0.65625   0.52355   0.39747   1.000
    C26     C    0.74690   0.55860   0.39544   1.000
    C27     C    0.80270   0.63400   0.43420   1.000
    C28     C    0.76420   0.66970   0.47330   1.000
    C29     C    0.67160   0.63310   0.47673   1.000
    C30     C    0.61820   0.56080   0.43856   1.000
    C31     C    0.47860   0.38390   0.16716   1.000
    C32     C    0.52071   0.37800   0.10786   1.000
    C33     C    0.50030   0.39320   0.04036   1.000
    C34     C    0.43590   0.41400   0.03483   1.000
    C35     C    0.39181   0.41849   0.09528   1.000
    C36     C    0.41124   0.40389   0.16112   1.000
    C37     C    0.52355   0.65625   0.60253   1.000
    C38     C    0.55860   0.74690   0.60456   1.000
    C39     C    0.63400   0.80270   0.56580   1.000
    C40     C    0.66970   0.76420   0.52670   1.000
    C41     C    0.63310   0.67160   0.52327   1.000
    C42     C    0.56080   0.61820   0.56144   1.000
    C43     C    0.38390   0.47860   0.83284   1.000
    C44     C    0.37800   0.52071   0.89214   1.000
    C45     C    0.39320   0.50030   0.95964   1.000
    C46     C    0.41400   0.43590   0.96517   1.000
    C47     C    0.41849   0.39181   0.90472   1.000
    C48     C    0.40389   0.41124   0.83888   1.000
    C49     C    0.34375   0.86730   0.60253   1.000
    C50     C    0.25310   0.81170   0.60456   1.000
    C51     C    0.19730   0.83130   0.56580   1.000
    C52     C    0.23580   0.90550   0.52670   1.000
    C53     C    0.32840   0.96150   0.52327   1.000
    C54     C    0.38180   0.94260   0.56144   1.000
    C55     C    0.52140   0.90530   0.83284   1.000
    C56     C    0.47929   0.85729   0.89214   1.000
    C57     C    0.49970   0.89290   0.95964   1.000
    C58     C    0.56410   0.97810   0.96517   1.000
    C59     C    0.60819   0.02668   0.90472   1.000
    C60     C    0.58876   0.99265   0.83888   1.000
    C61     C    0.13270   0.47645   0.60253   1.000
    C62     C    0.18830   0.44140   0.60456   1.000
    C63     C    0.16870   0.36600   0.56580   1.000
    C64     C    0.09450   0.33030   0.52670   1.000
    C65     C    0.03850   0.36690   0.52327   1.000
    C66     C    0.05740   0.43920   0.56144   1.000
    C67     C    0.09470   0.61610   0.83284   1.000
    C68     C    0.14271   0.62200   0.89214   1.000
    C69     C    0.10710   0.60680   0.95964   1.000
    C70     C    0.02190   0.58600   0.96517   1.000
    C71     C    0.97332   0.58151   0.90472   1.000
    C72     C    0.00735   0.59611   0.83888   1.000
    N1      N    0.74431   0.23780   0.35294   1.000
    N2      N    0.75739   0.31416   0.33034   1.000
    N3      N    0.83101   0.37886   0.35666   1.000
    N4      N    0.85265   0.48536   0.22328   1.000
    N5      N    0.77604   0.42367   0.19914   1.000
    N6      N    0.77666   0.41830   0.13042   1.000
    N7      N    0.49349   0.25569   0.35294   1.000
    N8      N    0.55677   0.24261   0.33034   1.000
    N9      N    0.54785   0.16899   0.35666   1.000
    N10     N    0.63271   0.14735   0.22328   1.000
    N11     N    0.64763   0.22396   0.19914   1.000
    N12     N    0.64164   0.22334   0.13042   1.000
    N13     N    0.76220   0.50651   0.35294   1.000
    N14     N    0.68584   0.44323   0.33034   1.000
    N15     N    0.62114   0.45215   0.35666   1.000
    N16     N    0.51464   0.36729   0.22328   1.000
    N17     N    0.57633   0.35237   0.19914   1.000
    N18     N    0.58170   0.35836   0.13042   1.000
    N19     N    0.50651   0.76220   0.64706   1.000
    N20     N    0.44323   0.68584   0.66966   1.000
    N21     N    0.45215   0.62114   0.64334   1.000
    N22     N    0.36729   0.51464   0.77672   1.000
    N23     N    0.35237   0.57633   0.80086   1.000
    N24     N    0.35836   0.58170   0.86958   1.000
    N25     N    0.23780   0.74431   0.64706   1.000
    N26     N    0.31416   0.75739   0.66966   1.000
    N27     N    0.37886   0.83101   0.64334   1.000
    N28     N    0.48536   0.85265   0.77672   1.000
    N29     N    0.42367   0.77604   0.80086   1.000
    N30     N    0.41830   0.77666   0.86958   1.000
    N31     N    0.25569   0.49349   0.64706   1.000
    N32     N    0.24261   0.55677   0.66966   1.000
    N33     N    0.16899   0.54785   0.64334   1.000
    N34     N    0.14735   0.63271   0.77672   1.000
    N35     N    0.22396   0.64763   0.80086   1.000
    N36     N    0.22334   0.64164   0.86958   1.000
