# CIF file generated by openbabel 2.4.1, see http://openbabel.sf.net
data_I
_chemical_name_common 'image0'
_cell_length_a 21.209
_cell_length_b 22.825
_cell_length_c 18.1999
_cell_angle_alpha 90
_cell_angle_beta 90
_cell_angle_gamma 90
_space_group_name_H-M_alt 'P 1'
_space_group_name_Hall 'P 1'
loop_
    _symmetry_equiv_pos_as_xyz
    x,y,z
loop_
    _atom_site_label
    _atom_site_type_symbol
    _atom_site_fract_x
    _atom_site_fract_y
    _atom_site_fract_z
    _atom_site_occupancy
    C1      C    0.89190   0.54550   0.65230   1.000
    C2      C    0.90160   0.51610   0.72490   1.000
    C3      C    0.88350   0.54510   0.79100   1.000
    H1      H    0.86390   0.58150   0.78950   1.000
    C4      C    0.89580   0.51786   0.85760   1.000
    H2      H    0.88400   0.53720   0.90040   1.000
    C5      C    0.92465   0.46326   0.86430   1.000
    C6      C    0.93960   0.43330   0.79440   1.000
    H3      H    0.95700   0.39590   0.79510   1.000
    C7      C    0.92760   0.46038   0.72890   1.000
    H4      H    0.93730   0.44080   0.68550   1.000
    C8      C    0.94680   0.43800   0.93210   1.000
    C9      C    0.99540   0.39820   0.93310   1.000
    H5      H    0.01180   0.38370   0.88930   1.000
    C10     C    0.48820   0.79850   0.16310   1.000
    C11     C    0.52380   0.78360   0.22910   1.000
    C12     C    0.58660   0.79190   0.23460   1.000
    H6      H    0.60910   0.80550   0.19420   1.000
    C13     C    0.61860   0.77998   0.30130   1.000
    H7      H    0.66190   0.78540   0.30440   1.000
    C14     C    0.58560   0.76040   0.36160   1.000
    C15     C    0.51860   0.75230   0.35680   1.000
    H8      H    0.49480   0.74060   0.39720   1.000
    C16     C    0.49060   0.76290   0.28760   1.000
    H9      H    0.44780   0.75540   0.28180   1.000
    C17     C    0.61680   0.75060   0.43280   1.000
    C18     C    0.68160   0.73660   0.43220   1.000
    H10     H    0.70310   0.73160   0.38810   1.000
    C19     C    0.28090   0.69830   0.34290   1.000
    C20     C    0.27690   0.66660   0.27110   1.000
    C21     C    0.30680   0.68790   0.20910   1.000
    H11     H    0.33210   0.72110   0.21250   1.000
    C22     C    0.29950   0.65990   0.14170   1.000
    H12     H    0.31930   0.67470   0.10010   1.000
    C23     C    0.26240   0.60980   0.13680   1.000
    C24     C    0.23190   0.58810   0.19950   1.000
    H13     H    0.20690   0.55470   0.19650   1.000
    C25     C    0.23930   0.61700   0.26630   1.000
    H14     H    0.21900   0.60290   0.30800   1.000
    C26     C    0.26040   0.57640   0.06730   1.000
    C27     C    0.25240   0.51420   0.06320   1.000
    H15     H    0.24930   0.49320   0.10680   1.000
    N1      N    0.12480   0.59400   0.53980   1.000
    O1      O    0.86726   0.59601   0.65440   1.000
    O2      O    0.91558   0.52121   0.59923   1.000
    O3      O    0.10247   0.32639   0.94051   1.000
    O4      O    0.43091   0.78861   0.15634   1.000
    O5      O    0.52091   0.81396   0.10949   1.000
    O6      O    0.80646   0.70206   0.56185   1.000
    O7      O    0.24722   0.68660   0.39252   1.000
    O8      O    0.32281   0.73773   0.34783   1.000
    O9      O    0.23237   0.39472   0.94057   1.000
    O10     O    0.07240   0.59940   0.49100   1.000
    Zn1     Zn   0.88305   0.66359   0.58911   1.000
    Zn2     Zn   0.19509   0.31198   0.91957   1.000
    C28     C    0.10810   0.45450   0.65230   1.000
    C29     C    0.09840   0.48390   0.72490   1.000
    C30     C    0.11650   0.45490   0.79100   1.000
    H16     H    0.13610   0.41850   0.78950   1.000
    C31     C    0.10420   0.48214   0.85760   1.000
    H17     H    0.11600   0.46280   0.90040   1.000
    C32     C    0.07535   0.53674   0.86430   1.000
    C33     C    0.06040   0.56670   0.79440   1.000
    H18     H    0.04300   0.60410   0.79510   1.000
    C34     C    0.07240   0.53962   0.72890   1.000
    H19     H    0.06270   0.55920   0.68550   1.000
    C35     C    0.05320   0.56200   0.93210   1.000
    C36     C    0.00460   0.60180   0.93310   1.000
    H20     H    0.98820   0.61630   0.88930   1.000
    C37     C    0.51180   0.20150   0.16310   1.000
    C38     C    0.47620   0.21640   0.22910   1.000
    C39     C    0.41340   0.20810   0.23460   1.000
    H21     H    0.39090   0.19450   0.19420   1.000
    C40     C    0.38140   0.22002   0.30130   1.000
    H22     H    0.33810   0.21460   0.30440   1.000
    C41     C    0.41440   0.23960   0.36160   1.000
    C42     C    0.48140   0.24770   0.35680   1.000
    H23     H    0.50520   0.25940   0.39720   1.000
    C43     C    0.50940   0.23710   0.28760   1.000
    H24     H    0.55220   0.24460   0.28180   1.000
    C44     C    0.38320   0.24940   0.43280   1.000
    C45     C    0.31840   0.26340   0.43220   1.000
    H25     H    0.29690   0.26840   0.38810   1.000
    C46     C    0.71910   0.30170   0.34290   1.000
    C47     C    0.72310   0.33340   0.27110   1.000
    C48     C    0.69320   0.31210   0.20910   1.000
    H26     H    0.66790   0.27890   0.21250   1.000
    C49     C    0.70050   0.34010   0.14170   1.000
    H27     H    0.68070   0.32530   0.10010   1.000
    C50     C    0.73760   0.39020   0.13680   1.000
    C51     C    0.76810   0.41190   0.19950   1.000
    H28     H    0.79310   0.44530   0.19650   1.000
    C52     C    0.76070   0.38300   0.26630   1.000
    H29     H    0.78100   0.39710   0.30800   1.000
    C53     C    0.73960   0.42360   0.06730   1.000
    C54     C    0.74760   0.48580   0.06320   1.000
    H30     H    0.75070   0.50680   0.10680   1.000
    N2      N    0.87520   0.40600   0.53980   1.000
    O11     O    0.13274   0.40399   0.65440   1.000
    O12     O    0.08442   0.47879   0.59923   1.000
    O13     O    0.89753   0.67361   0.94051   1.000
    O14     O    0.56909   0.21139   0.15634   1.000
    O15     O    0.47909   0.18604   0.10949   1.000
    O16     O    0.19354   0.29794   0.56185   1.000
    O17     O    0.75278   0.31340   0.39252   1.000
    O18     O    0.67719   0.26227   0.34783   1.000
    O19     O    0.76763   0.60528   0.94057   1.000
    O20     O    0.92760   0.40060   0.49100   1.000
    Zn3     Zn   0.11695   0.33641   0.58911   1.000
    Zn4     Zn   0.80491   0.68802   0.91957   1.000
    C55     C    0.60810   0.04550   0.84770   1.000
    C56     C    0.59840   0.01610   0.77510   1.000
    C57     C    0.61650   0.04510   0.70900   1.000
    H31     H    0.63610   0.08150   0.71050   1.000
    C58     C    0.60420   0.01786   0.64240   1.000
    H32     H    0.61600   0.03720   0.59960   1.000
    C59     C    0.57535   0.96326   0.63570   1.000
    C60     C    0.56040   0.93330   0.70560   1.000
    H33     H    0.54300   0.89590   0.70490   1.000
    C61     C    0.57240   0.96038   0.77110   1.000
    H34     H    0.56270   0.94080   0.81450   1.000
    C62     C    0.55320   0.93800   0.56790   1.000
    C63     C    0.50460   0.89820   0.56690   1.000
    H35     H    0.48820   0.88370   0.61070   1.000
    C64     C    0.01180   0.29850   0.33690   1.000
    C65     C    0.97620   0.28360   0.27090   1.000
    C66     C    0.91340   0.29190   0.26540   1.000
    H36     H    0.89090   0.30550   0.30580   1.000
    C67     C    0.88140   0.27998   0.19870   1.000
    H37     H    0.83810   0.28540   0.19560   1.000
    C68     C    0.91440   0.26040   0.13840   1.000
    C69     C    0.98140   0.25230   0.14320   1.000
    H38     H    0.00520   0.24060   0.10280   1.000
    C70     C    0.00940   0.26290   0.21240   1.000
    H39     H    0.05220   0.25540   0.21820   1.000
    C71     C    0.88320   0.25060   0.06720   1.000
    C72     C    0.81840   0.23660   0.06780   1.000
    H40     H    0.79690   0.23160   0.11190   1.000
    C73     C    0.21910   0.19830   0.15710   1.000
    C74     C    0.22310   0.16660   0.22890   1.000
    C75     C    0.19320   0.18790   0.29090   1.000
    H41     H    0.16790   0.22110   0.28750   1.000
    C76     C    0.20050   0.15990   0.35830   1.000
    H42     H    0.18070   0.17470   0.39990   1.000
    C77     C    0.23760   0.10980   0.36320   1.000
    C78     C    0.26810   0.08810   0.30050   1.000
    H43     H    0.29310   0.05470   0.30350   1.000
    C79     C    0.26070   0.11700   0.23370   1.000
    H44     H    0.28100   0.10290   0.19200   1.000
    C80     C    0.23960   0.07640   0.43270   1.000
    C81     C    0.24760   0.01420   0.43680   1.000
    H45     H    0.25070   0.99320   0.39320   1.000
    N3      N    0.37520   0.09400   0.96020   1.000
    O21     O    0.63274   0.09601   0.84560   1.000
    O22     O    0.58442   0.02121   0.90077   1.000
    O23     O    0.39753   0.82639   0.55949   1.000
    O24     O    0.06909   0.28861   0.34366   1.000
    O25     O    0.97909   0.31396   0.39051   1.000
    O26     O    0.69354   0.20206   0.93815   1.000
    O27     O    0.25278   0.18660   0.10748   1.000
    O28     O    0.17719   0.23773   0.15217   1.000
    O29     O    0.26763   0.89472   0.55943   1.000
    O30     O    0.42760   0.09940   0.00900   1.000
    Zn5     Zn   0.61695   0.16359   0.91089   1.000
    Zn6     Zn   0.30491   0.81198   0.58043   1.000
    C82     C    0.39190   0.95450   0.84770   1.000
    C83     C    0.40160   0.98390   0.77510   1.000
    C84     C    0.38350   0.95490   0.70900   1.000
    H46     H    0.36390   0.91850   0.71050   1.000
    C85     C    0.39580   0.98214   0.64240   1.000
    H47     H    0.38400   0.96280   0.59960   1.000
    C86     C    0.42465   0.03674   0.63570   1.000
    C87     C    0.43960   0.06670   0.70560   1.000
    H48     H    0.45700   0.10410   0.70490   1.000
    C88     C    0.42760   0.03962   0.77110   1.000
    H49     H    0.43730   0.05920   0.81450   1.000
    C89     C    0.44680   0.06200   0.56790   1.000
    C90     C    0.49540   0.10180   0.56690   1.000
    H50     H    0.51180   0.11630   0.61070   1.000
    C91     C    0.98820   0.70150   0.33690   1.000
    C92     C    0.02380   0.71640   0.27090   1.000
    C93     C    0.08660   0.70810   0.26540   1.000
    H51     H    0.10910   0.69450   0.30580   1.000
    C94     C    0.11860   0.72002   0.19870   1.000
    H52     H    0.16190   0.71460   0.19560   1.000
    C95     C    0.08560   0.73960   0.13840   1.000
    C96     C    0.01860   0.74770   0.14320   1.000
    H53     H    0.99480   0.75940   0.10280   1.000
    C97     C    0.99060   0.73710   0.21240   1.000
    H54     H    0.94780   0.74460   0.21820   1.000
    C98     C    0.11680   0.74940   0.06720   1.000
    C99     C    0.18160   0.76340   0.06780   1.000
    H55     H    0.20310   0.76840   0.11190   1.000
    C100    C    0.78090   0.80170   0.15710   1.000
    C101    C    0.77690   0.83340   0.22890   1.000
    C102    C    0.80680   0.81210   0.29090   1.000
    H56     H    0.83210   0.77890   0.28750   1.000
    C103    C    0.79950   0.84010   0.35830   1.000
    H57     H    0.81930   0.82530   0.39990   1.000
    C104    C    0.76240   0.89020   0.36320   1.000
    C105    C    0.73190   0.91190   0.30050   1.000
    H58     H    0.70690   0.94530   0.30350   1.000
    C106    C    0.73930   0.88300   0.23370   1.000
    H59     H    0.71900   0.89710   0.19200   1.000
    C107    C    0.76040   0.92360   0.43270   1.000
    C108    C    0.75240   0.98580   0.43680   1.000
    H60     H    0.74930   0.00680   0.39320   1.000
    N4      N    0.62480   0.90600   0.96020   1.000
    O31     O    0.36726   0.90399   0.84560   1.000
    O32     O    0.41558   0.97879   0.90077   1.000
    O33     O    0.60247   0.17361   0.55949   1.000
    O34     O    0.93091   0.71139   0.34366   1.000
    O35     O    0.02091   0.68604   0.39051   1.000
    O36     O    0.30646   0.79794   0.93815   1.000
    O37     O    0.74722   0.81340   0.10748   1.000
    O38     O    0.82281   0.76227   0.15217   1.000
    O39     O    0.73237   0.10528   0.55943   1.000
    O40     O    0.57240   0.90060   0.00900   1.000
    Zn7     Zn   0.38305   0.83641   0.91089   1.000
    Zn8     Zn   0.69509   0.18802   0.58043   1.000
    C109    C    0.10810   0.45450   0.34770   1.000
    C110    C    0.09840   0.48390   0.27510   1.000
    C111    C    0.11650   0.45490   0.20900   1.000
    H61     H    0.13610   0.41850   0.21050   1.000
    C112    C    0.10420   0.48214   0.14240   1.000
    H62     H    0.11600   0.46280   0.09960   1.000
    C113    C    0.07535   0.53674   0.13570   1.000
    C114    C    0.06040   0.56670   0.20560   1.000
    H63     H    0.04300   0.60410   0.20490   1.000
    C115    C    0.07240   0.53962   0.27110   1.000
    H64     H    0.06270   0.55920   0.31450   1.000
    C116    C    0.05320   0.56200   0.06790   1.000
    C117    C    0.00460   0.60180   0.06690   1.000
    H65     H    0.98820   0.61630   0.11070   1.000
    C118    C    0.51180   0.20150   0.83690   1.000
    C119    C    0.47620   0.21640   0.77090   1.000
    C120    C    0.41340   0.20810   0.76540   1.000
    H66     H    0.39090   0.19450   0.80580   1.000
    C121    C    0.38140   0.22002   0.69870   1.000
    H67     H    0.33810   0.21460   0.69560   1.000
    C122    C    0.41440   0.23960   0.63840   1.000
    C123    C    0.48140   0.24770   0.64320   1.000
    H68     H    0.50520   0.25940   0.60280   1.000
    C124    C    0.50940   0.23710   0.71240   1.000
    H69     H    0.55220   0.24460   0.71820   1.000
    C125    C    0.38320   0.24940   0.56720   1.000
    C126    C    0.31840   0.26340   0.56780   1.000
    H70     H    0.29690   0.26840   0.61190   1.000
    C127    C    0.71910   0.30170   0.65710   1.000
    C128    C    0.72310   0.33340   0.72890   1.000
    C129    C    0.69320   0.31210   0.79090   1.000
    H71     H    0.66790   0.27890   0.78750   1.000
    C130    C    0.70050   0.34010   0.85830   1.000
    H72     H    0.68070   0.32530   0.89990   1.000
    C131    C    0.73760   0.39020   0.86320   1.000
    C132    C    0.76810   0.41190   0.80050   1.000
    H73     H    0.79310   0.44530   0.80350   1.000
    C133    C    0.76070   0.38300   0.73370   1.000
    H74     H    0.78100   0.39710   0.69200   1.000
    C134    C    0.73960   0.42360   0.93270   1.000
    C135    C    0.74760   0.48580   0.93680   1.000
    H75     H    0.75070   0.50680   0.89320   1.000
    N5      N    0.87520   0.40600   0.46020   1.000
    O41     O    0.13274   0.40399   0.34560   1.000
    O42     O    0.08442   0.47879   0.40077   1.000
    O43     O    0.89753   0.67361   0.05949   1.000
    O44     O    0.56909   0.21139   0.84366   1.000
    O45     O    0.47909   0.18604   0.89051   1.000
    O46     O    0.19354   0.29794   0.43815   1.000
    O47     O    0.75278   0.31340   0.60748   1.000
    O48     O    0.67719   0.26227   0.65217   1.000
    O49     O    0.76763   0.60528   0.05943   1.000
    O50     O    0.92760   0.40060   0.50900   1.000
    Zn9     Zn   0.11695   0.33641   0.41089   1.000
    Zn10    Zn   0.80491   0.68802   0.08043   1.000
    C136    C    0.89190   0.54550   0.34770   1.000
    C137    C    0.90160   0.51610   0.27510   1.000
    C138    C    0.88350   0.54510   0.20900   1.000
    H76     H    0.86390   0.58150   0.21050   1.000
    C139    C    0.89580   0.51786   0.14240   1.000
    H77     H    0.88400   0.53720   0.09960   1.000
    C140    C    0.92465   0.46326   0.13570   1.000
    C141    C    0.93960   0.43330   0.20560   1.000
    H78     H    0.95700   0.39590   0.20490   1.000
    C142    C    0.92760   0.46038   0.27110   1.000
    H79     H    0.93730   0.44080   0.31450   1.000
    C143    C    0.94680   0.43800   0.06790   1.000
    C144    C    0.99540   0.39820   0.06690   1.000
    H80     H    0.01180   0.38370   0.11070   1.000
    C145    C    0.48820   0.79850   0.83690   1.000
    C146    C    0.52380   0.78360   0.77090   1.000
    C147    C    0.58660   0.79190   0.76540   1.000
    H81     H    0.60910   0.80550   0.80580   1.000
    C148    C    0.61860   0.77998   0.69870   1.000
    H82     H    0.66190   0.78540   0.69560   1.000
    C149    C    0.58560   0.76040   0.63840   1.000
    C150    C    0.51860   0.75230   0.64320   1.000
    H83     H    0.49480   0.74060   0.60280   1.000
    C151    C    0.49060   0.76290   0.71240   1.000
    H84     H    0.44780   0.75540   0.71820   1.000
    C152    C    0.61680   0.75060   0.56720   1.000
    C153    C    0.68160   0.73660   0.56780   1.000
    H85     H    0.70310   0.73160   0.61190   1.000
    C154    C    0.28090   0.69830   0.65710   1.000
    C155    C    0.27690   0.66660   0.72890   1.000
    C156    C    0.30680   0.68790   0.79090   1.000
    H86     H    0.33210   0.72110   0.78750   1.000
    C157    C    0.29950   0.65990   0.85830   1.000
    H87     H    0.31930   0.67470   0.89990   1.000
    C158    C    0.26240   0.60980   0.86320   1.000
    C159    C    0.23190   0.58810   0.80050   1.000
    H88     H    0.20690   0.55470   0.80350   1.000
    C160    C    0.23930   0.61700   0.73370   1.000
    H89     H    0.21900   0.60290   0.69200   1.000
    C161    C    0.26040   0.57640   0.93270   1.000
    C162    C    0.25240   0.51420   0.93680   1.000
    H90     H    0.24930   0.49320   0.89320   1.000
    N6      N    0.12480   0.59400   0.46020   1.000
    O51     O    0.86726   0.59601   0.34560   1.000
    O52     O    0.91558   0.52121   0.40077   1.000
    O53     O    0.10247   0.32639   0.05949   1.000
    O54     O    0.43091   0.78861   0.84366   1.000
    O55     O    0.52091   0.81396   0.89051   1.000
    O56     O    0.80646   0.70206   0.43815   1.000
    O57     O    0.24722   0.68660   0.60748   1.000
    O58     O    0.32281   0.73773   0.65217   1.000
    O59     O    0.23237   0.39472   0.05943   1.000
    O60     O    0.07240   0.59940   0.50900   1.000
    Zn11    Zn   0.88305   0.66359   0.41089   1.000
    Zn12    Zn   0.19509   0.31198   0.08043   1.000
    C163    C    0.39190   0.95450   0.15230   1.000
    C164    C    0.40160   0.98390   0.22490   1.000
    C165    C    0.38350   0.95490   0.29100   1.000
    H91     H    0.36390   0.91850   0.28950   1.000
    C166    C    0.39580   0.98214   0.35760   1.000
    H92     H    0.38400   0.96280   0.40040   1.000
    C167    C    0.42465   0.03674   0.36430   1.000
    C168    C    0.43960   0.06670   0.29440   1.000
    H93     H    0.45700   0.10410   0.29510   1.000
    C169    C    0.42760   0.03962   0.22890   1.000
    H94     H    0.43730   0.05920   0.18550   1.000
    C170    C    0.44680   0.06200   0.43210   1.000
    C171    C    0.49540   0.10180   0.43310   1.000
    H95     H    0.51180   0.11630   0.38930   1.000
    C172    C    0.98820   0.70150   0.66310   1.000
    C173    C    0.02380   0.71640   0.72910   1.000
    C174    C    0.08660   0.70810   0.73460   1.000
    H96     H    0.10910   0.69450   0.69420   1.000
    C175    C    0.11860   0.72002   0.80130   1.000
    H97     H    0.16190   0.71460   0.80440   1.000
    C176    C    0.08560   0.73960   0.86160   1.000
    C177    C    0.01860   0.74770   0.85680   1.000
    H98     H    0.99480   0.75940   0.89720   1.000
    C178    C    0.99060   0.73710   0.78760   1.000
    H99     H    0.94780   0.74460   0.78180   1.000
    C179    C    0.11680   0.74940   0.93280   1.000
    C180    C    0.18160   0.76340   0.93220   1.000
    H100    H    0.20310   0.76840   0.88810   1.000
    C181    C    0.78090   0.80170   0.84290   1.000
    C182    C    0.77690   0.83340   0.77110   1.000
    C183    C    0.80680   0.81210   0.70910   1.000
    H101    H    0.83210   0.77890   0.71250   1.000
    C184    C    0.79950   0.84010   0.64170   1.000
    H102    H    0.81930   0.82530   0.60010   1.000
    C185    C    0.76240   0.89020   0.63680   1.000
    C186    C    0.73190   0.91190   0.69950   1.000
    H103    H    0.70690   0.94530   0.69650   1.000
    C187    C    0.73930   0.88300   0.76630   1.000
    H104    H    0.71900   0.89710   0.80800   1.000
    C188    C    0.76040   0.92360   0.56730   1.000
    C189    C    0.75240   0.98580   0.56320   1.000
    H105    H    0.74930   0.00680   0.60680   1.000
    N7      N    0.62480   0.90600   0.03980   1.000
    O61     O    0.36726   0.90399   0.15440   1.000
    O62     O    0.41558   0.97879   0.09923   1.000
    O63     O    0.60247   0.17361   0.44051   1.000
    O64     O    0.93091   0.71139   0.65634   1.000
    O65     O    0.02091   0.68604   0.60949   1.000
    O66     O    0.30646   0.79794   0.06185   1.000
    O67     O    0.74722   0.81340   0.89252   1.000
    O68     O    0.82281   0.76227   0.84783   1.000
    O69     O    0.73237   0.10528   0.44057   1.000
    O70     O    0.57240   0.90060   0.99100   1.000
    Zn13    Zn   0.38305   0.83641   0.08911   1.000
    Zn14    Zn   0.69509   0.18802   0.41957   1.000
    C190    C    0.60810   0.04550   0.15230   1.000
    C191    C    0.59840   0.01610   0.22490   1.000
    C192    C    0.61650   0.04510   0.29100   1.000
    H106    H    0.63610   0.08150   0.28950   1.000
    C193    C    0.60420   0.01786   0.35760   1.000
    H107    H    0.61600   0.03720   0.40040   1.000
    C194    C    0.57535   0.96326   0.36430   1.000
    C195    C    0.56040   0.93330   0.29440   1.000
    H108    H    0.54300   0.89590   0.29510   1.000
    C196    C    0.57240   0.96038   0.22890   1.000
    H109    H    0.56270   0.94080   0.18550   1.000
    C197    C    0.55320   0.93800   0.43210   1.000
    C198    C    0.50460   0.89820   0.43310   1.000
    H110    H    0.48820   0.88370   0.38930   1.000
    C199    C    0.01180   0.29850   0.66310   1.000
    C200    C    0.97620   0.28360   0.72910   1.000
    C201    C    0.91340   0.29190   0.73460   1.000
    H111    H    0.89090   0.30550   0.69420   1.000
    C202    C    0.88140   0.27998   0.80130   1.000
    H112    H    0.83810   0.28540   0.80440   1.000
    C203    C    0.91440   0.26040   0.86160   1.000
    C204    C    0.98140   0.25230   0.85680   1.000
    H113    H    0.00520   0.24060   0.89720   1.000
    C205    C    0.00940   0.26290   0.78760   1.000
    H114    H    0.05220   0.25540   0.78180   1.000
    C206    C    0.88320   0.25060   0.93280   1.000
    C207    C    0.81840   0.23660   0.93220   1.000
    H115    H    0.79690   0.23160   0.88810   1.000
    C208    C    0.21910   0.19830   0.84290   1.000
    C209    C    0.22310   0.16660   0.77110   1.000
    C210    C    0.19320   0.18790   0.70910   1.000
    H116    H    0.16790   0.22110   0.71250   1.000
    C211    C    0.20050   0.15990   0.64170   1.000
    H117    H    0.18070   0.17470   0.60010   1.000
    C212    C    0.23760   0.10980   0.63680   1.000
    C213    C    0.26810   0.08810   0.69950   1.000
    H118    H    0.29310   0.05470   0.69650   1.000
    C214    C    0.26070   0.11700   0.76630   1.000
    H119    H    0.28100   0.10290   0.80800   1.000
    C215    C    0.23960   0.07640   0.56730   1.000
    C216    C    0.24760   0.01420   0.56320   1.000
    H120    H    0.25070   0.99320   0.60680   1.000
    N8      N    0.37520   0.09400   0.03980   1.000
    O71     O    0.63274   0.09601   0.15440   1.000
    O72     O    0.58442   0.02121   0.09923   1.000
    O73     O    0.39753   0.82639   0.44051   1.000
    O74     O    0.06909   0.28861   0.65634   1.000
    O75     O    0.97909   0.31396   0.60949   1.000
    O76     O    0.69354   0.20206   0.06185   1.000
    O77     O    0.25278   0.18660   0.89252   1.000
    O78     O    0.17719   0.23773   0.84783   1.000
    O79     O    0.26763   0.89472   0.44057   1.000
    O80     O    0.42760   0.09940   0.99100   1.000
    Zn15    Zn   0.61695   0.16359   0.08911   1.000
    Zn16    Zn   0.30491   0.81198   0.41957   1.000
    C217    C    0.92090   0.45780   0.00000   1.000
    H121    H    0.88690   0.48370   0.00000   1.000
    C218    C    0.01980   0.37960   0.00000   1.000
    C219    C    0.07760   0.34070   0.00000   1.000
    C220    C    0.25750   0.60850   0.00000   1.000
    H122    H    0.25390   0.64910   0.00000   1.000
    C221    C    0.24930   0.48490   0.00000   1.000
    C222    C    0.23990   0.42320   0.00000   1.000
    O81     O    0.22790   0.27460   0.00000   1.000
    H123    H    0.26430   0.29000   0.00000   1.000
    C223    C    0.07910   0.54220   0.00000   1.000
    H124    H    0.11310   0.51630   0.00000   1.000
    C224    C    0.98020   0.62040   0.00000   1.000
    C225    C    0.92240   0.65930   0.00000   1.000
    C226    C    0.74250   0.39150   0.00000   1.000
    H125    H    0.74610   0.35090   0.00000   1.000
    C227    C    0.75070   0.51510   0.00000   1.000
    C228    C    0.76010   0.57680   0.00000   1.000
    O82     O    0.77210   0.72540   0.00000   1.000
    H126    H    0.73570   0.71000   0.00000   1.000
    C229    C    0.57910   0.95780   0.50000   1.000
    H127    H    0.61310   0.98370   0.50000   1.000
    C230    C    0.48020   0.87960   0.50000   1.000
    C231    C    0.42240   0.84070   0.50000   1.000
    C232    C    0.24250   0.10850   0.50000   1.000
    H128    H    0.24610   0.14910   0.50000   1.000
    C233    C    0.25070   0.98490   0.50000   1.000
    C234    C    0.26010   0.92320   0.50000   1.000
    O83     O    0.27210   0.77460   0.50000   1.000
    H129    H    0.23570   0.79000   0.50000   1.000
    C235    C    0.42090   0.04220   0.50000   1.000
    H130    H    0.38690   0.01630   0.50000   1.000
    C236    C    0.51980   0.12040   0.50000   1.000
    C237    C    0.57760   0.15930   0.50000   1.000
    C238    C    0.75750   0.89150   0.50000   1.000
    H131    H    0.75390   0.85090   0.50000   1.000
    C239    C    0.74930   0.01510   0.50000   1.000
    C240    C    0.73990   0.07680   0.50000   1.000
    O84     O    0.72790   0.22540   0.50000   1.000
    H132    H    0.76430   0.21000   0.50000   1.000
    C241    C    0.58620   0.75920   0.50000   1.000
    H133    H    0.54420   0.77110   0.50000   1.000
    C242    C    0.71300   0.73030   0.50000   1.000
    C243    C    0.78140   0.71160   0.50000   1.000
    O85     O    0.92204   0.63437   0.50000   1.000
    Zn17    Zn   0.89925   0.54996   0.50000   1.000
    Zn18    Zn   0.00723   0.66713   0.50000   1.000
    C244    C    0.41380   0.24080   0.50000   1.000
    H134    H    0.45580   0.22890   0.50000   1.000
    C245    C    0.28700   0.26970   0.50000   1.000
    C246    C    0.21860   0.28840   0.50000   1.000
    O86     O    0.07796   0.36563   0.50000   1.000
    Zn19    Zn   0.10075   0.45004   0.50000   1.000
    Zn20    Zn   0.99277   0.33287   0.50000   1.000
    C247    C    0.91380   0.25920   0.00000   1.000
    H135    H    0.95580   0.27110   0.00000   1.000
    C248    C    0.78700   0.23030   0.00000   1.000
    C249    C    0.71860   0.21160   0.00000   1.000
    O87     O    0.57796   0.13437   0.00000   1.000
    Zn21    Zn   0.60075   0.04996   0.00000   1.000
    Zn22    Zn   0.49277   0.16713   0.00000   1.000
    C250    C    0.08620   0.74080   0.00000   1.000
    H136    H    0.04420   0.72890   0.00000   1.000
    C251    C    0.21300   0.76970   0.00000   1.000
    C252    C    0.28140   0.78840   0.00000   1.000
    O88     O    0.42204   0.86563   0.00000   1.000
    Zn23    Zn   0.39925   0.95004   0.00000   1.000
    Zn24    Zn   0.50723   0.83287   0.00000   1.000
    O89     O    0.17520   0.61070   0.50000   1.000
    Zn25    Zn   0.23560   0.69048   0.50000   1.000
    H137    H    0.76230   0.20640   0.50000   1.000
    O90     O    0.82480   0.38930   0.50000   1.000
    Zn26    Zn   0.76440   0.30952   0.50000   1.000
    H138    H    0.23770   0.79360   0.50000   1.000
    O91     O    0.32480   0.11070   0.00000   1.000
    Zn27    Zn   0.26440   0.19048   0.00000   1.000
    H139    H    0.73770   0.70640   0.00000   1.000
    O92     O    0.67520   0.88930   0.00000   1.000
    Zn28    Zn   0.73560   0.80952   0.00000   1.000
    H140    H    0.26230   0.29360   0.00000   1.000
