# CIF file generated by openbabel 2.4.1, see http://openbabel.sf.net
data_I
_chemical_name_common 'image0'
_cell_length_a 21.584
_cell_length_b 16.652
_cell_length_c 18.176
_cell_angle_alpha 90
_cell_angle_beta 102.55
_cell_angle_gamma 90
_space_group_name_H-M_alt 'P 1'
_space_group_name_Hall 'P 1'
loop_
    _symmetry_equiv_pos_as_xyz
    x,y,z
loop_
    _atom_site_label
    _atom_site_type_symbol
    _atom_site_fract_x
    _atom_site_fract_y
    _atom_site_fract_z
    _atom_site_occupancy
    C1      C    0.38450   0.07100   0.70000   1.000
    H1      H    0.36530   0.12220   0.69610   1.000
    N1      N    0.25100   0.88700   0.71430   1.000
    C2      C    0.23330   0.96400   0.69900   1.000
    H2      H    0.18940   0.97650   0.69020   1.000
    C3      C    0.27460   0.02530   0.69500   1.000
    H3      H    0.26010   0.07890   0.68510   1.000
    C4      C    0.33880   0.00600   0.70500   1.000
    C5      C    0.35850   0.92700   0.72100   1.000
    H4      H    0.40210   0.91300   0.72810   1.000
    C6      C    0.31420   0.86950   0.72600   1.000
    H5      H    0.32790   0.81600   0.73880   1.000
    C7      C    0.43720   0.07400   0.70000   1.000
    H6      H    0.45250   0.02000   0.70070   1.000
    N2      N    0.59800   0.22360   0.70200   1.000
    C8      C    0.60380   0.14440   0.72060   1.000
    H7      H    0.64510   0.12170   0.73520   1.000
    C9      C    0.55230   0.09670   0.71900   1.000
    H8      H    0.55830   0.04150   0.73150   1.000
    C10     C    0.49100   0.12750   0.69920   1.000
    C11     C    0.48360   0.20860   0.67960   1.000
    H9      H    0.44280   0.23240   0.66440   1.000
    C12     C    0.53790   0.25220   0.68330   1.000
    H10     H    0.53310   0.30770   0.67170   1.000
    C13     C    0.40520   0.04250   0.71000   1.000
    H11     H    0.39290   0.09670   0.71480   1.000
    N3      N    0.24880   0.88560   0.71340   1.000
    C14     C    0.24650   0.96550   0.72390   1.000
    H12     H    0.20780   0.98630   0.73300   1.000
    C15     C    0.29340   0.01980   0.72300   1.000
    H13     H    0.28750   0.07560   0.73040   1.000
    C16     C    0.35070   0.98930   0.71060   1.000
    C17     C    0.35480   0.90580   0.69990   1.000
    H14     H    0.39320   0.88380   0.69110   1.000
    C18     C    0.30500   0.85570   0.70190   1.000
    H15     H    0.30950   0.79960   0.69530   1.000
    C19     C    0.45650   0.04050   0.70580   1.000
    H16     H    0.47230   0.98740   0.70360   1.000
    N4      N    0.59460   0.22420   0.69850   1.000
    C20     C    0.60890   0.14460   0.69520   1.000
    H17     H    0.65040   0.12990   0.69070   1.000
    C21     C    0.56590   0.08550   0.69830   1.000
    H18     H    0.57840   0.03090   0.69720   1.000
    C22     C    0.50490   0.10390   0.70300   1.000
    C23     C    0.48920   0.18490   0.70700   1.000
    H19     H    0.44790   0.20050   0.71180   1.000
    C24     C    0.53440   0.24130   0.70370   1.000
    H20     H    0.52290   0.29620   0.70520   1.000
    S1      S    0.99708   0.95040   0.86390   1.000
    C25     C    0.04320   0.94410   0.80010   1.000
    C26     C    0.02350   0.99680   0.74080   1.000
    H21     H    0.04380   0.00250   0.69960   1.000
    C27     C    0.96990   0.04060   0.74850   1.000
    H22     H    0.95010   0.08050   0.71390   1.000
    C28     C    0.94920   0.01920   0.81200   1.000
    C29     C    0.09870   0.88970   0.81240   1.000
    O1      O    0.13160   0.88850   0.76260   1.000
    O2      O    0.10320   0.84600   0.87210   1.000
    S2      S    0.84991   0.12840   0.78400   1.000
    C30     C    0.79410   0.12790   0.83840   1.000
    C31     C    0.81060   0.07130   0.89320   1.000
    H23     H    0.78420   0.05750   0.92680   1.000
    C32     C    0.86990   0.03510   0.89620   1.000
    H24     H    0.89080   0.00130   0.93600   1.000
    C33     C    0.89400   0.05440   0.83410   1.000
    C34     C    0.74290   0.18650   0.82450   1.000
    O3      O    0.70730   0.18840   0.87100   1.000
    O4      O    0.73650   0.22740   0.77000   1.000
    S3      S    0.19320   0.76350   0.43770   1.000
    C35     C    0.15050   0.82250   0.48460   1.000
    C36     C    0.11490   0.87620   0.43300   1.000
    H25     H    0.08780   0.91550   0.44720   1.000
    C37     C    0.12250   0.86700   0.35800   1.000
    H26     H    0.10030   0.89730   0.31620   1.000
    C38     C    0.16630   0.80860   0.35420   1.000
    C39     C    0.15710   0.81330   0.56700   1.000
    O5      O    0.19040   0.76210   0.60230   1.000
    O6      O    0.12350   0.86260   0.59940   1.000
    S4      S    0.14527   0.81410   0.19800   1.000
    C40     C    0.19360   0.76040   0.15390   1.000
    C41     C    0.23940   0.72180   0.20680   1.000
    H27     H    0.27030   0.68740   0.19340   1.000
    C42     C    0.23680   0.73760   0.28260   1.000
    H28     H    0.26630   0.71800   0.32540   1.000
    C43     C    0.18490   0.78590   0.28510   1.000
    C44     C    0.18490   0.76110   0.07320   1.000
    O7      O    0.14570   0.80940   0.03560   1.000
    O8      O    0.21310   0.71360   0.04150   1.000
    C45     C    0.38140   0.02950   0.91230   1.000
    H29     H    0.36880   0.08410   0.91350   1.000
    C46     C    0.43350   0.01860   0.90200   1.000
    H30     H    0.44280   0.96420   0.89270   1.000
    C47     C    0.22980   0.93340   0.93640   1.000
    H31     H    0.18880   0.94950   0.94170   1.000
    C48     C    0.27230   0.99090   0.93050   1.000
    H32     H    0.26080   0.04590   0.93120   1.000
    C49     C    0.33390   0.96940   0.92350   1.000
    C50     C    0.34350   0.88450   0.92350   1.000
    H33     H    0.38330   0.86470   0.91700   1.000
    C51     C    0.29970   0.83260   0.93190   1.000
    H34     H    0.31050   0.77720   0.93590   1.000
    C52     C    0.59320   0.10390   0.90940   1.000
    H35     H    0.63480   0.08400   0.91150   1.000
    C53     C    0.54710   0.05100   0.90140   1.000
    H36     H    0.55590   0.99570   0.89570   1.000
    C54     C    0.48570   0.07520   0.90110   1.000
    C55     C    0.47690   0.15770   0.90300   1.000
    H37     H    0.43530   0.17860   0.89860   1.000
    C56     C    0.52540   0.20770   0.91080   1.000
    H38     H    0.51720   0.26350   0.91380   1.000
    Co1     Co   0.17295   0.80461   0.70670   1.000
    Co2     Co   0.16563   0.76550   0.92982   1.000
    N5      N    0.24260   0.85330   0.93500   1.000
    N6      N    0.58650   0.18380   0.91490   1.000
    C57     C    0.88450   0.57100   0.70000   1.000
    H39     H    0.86530   0.62220   0.69610   1.000
    N7      N    0.75100   0.38700   0.71430   1.000
    C58     C    0.73330   0.46400   0.69900   1.000
    H40     H    0.68940   0.47650   0.69020   1.000
    C59     C    0.77460   0.52530   0.69500   1.000
    H41     H    0.76010   0.57890   0.68510   1.000
    C60     C    0.83880   0.50600   0.70500   1.000
    C61     C    0.85850   0.42700   0.72100   1.000
    H42     H    0.90210   0.41300   0.72810   1.000
    C62     C    0.81420   0.36950   0.72600   1.000
    H43     H    0.82790   0.31600   0.73880   1.000
    C63     C    0.93720   0.57400   0.70000   1.000
    H44     H    0.95250   0.52000   0.70070   1.000
    N8      N    0.09800   0.72360   0.70200   1.000
    C64     C    0.10380   0.64440   0.72060   1.000
    H45     H    0.14510   0.62170   0.73520   1.000
    C65     C    0.05230   0.59670   0.71900   1.000
    H46     H    0.05830   0.54150   0.73150   1.000
    C66     C    0.99100   0.62750   0.69920   1.000
    C67     C    0.98360   0.70860   0.67960   1.000
    H47     H    0.94280   0.73240   0.66440   1.000
    C68     C    0.03790   0.75220   0.68330   1.000
    H48     H    0.03310   0.80770   0.67170   1.000
    C69     C    0.90520   0.54250   0.71000   1.000
    H49     H    0.89290   0.59670   0.71480   1.000
    N9      N    0.74880   0.38560   0.71340   1.000
    C70     C    0.74650   0.46550   0.72390   1.000
    H50     H    0.70780   0.48630   0.73300   1.000
    C71     C    0.79340   0.51980   0.72300   1.000
    H51     H    0.78750   0.57560   0.73040   1.000
    C72     C    0.85070   0.48930   0.71060   1.000
    C73     C    0.85480   0.40580   0.69990   1.000
    H52     H    0.89320   0.38380   0.69110   1.000
    C74     C    0.80500   0.35570   0.70190   1.000
    H53     H    0.80950   0.29960   0.69530   1.000
    C75     C    0.95650   0.54050   0.70580   1.000
    H54     H    0.97230   0.48740   0.70360   1.000
    N10     N    0.09460   0.72420   0.69850   1.000
    C76     C    0.10890   0.64460   0.69520   1.000
    H55     H    0.15040   0.62990   0.69070   1.000
    C77     C    0.06590   0.58550   0.69830   1.000
    H56     H    0.07840   0.53090   0.69720   1.000
    C78     C    0.00490   0.60390   0.70300   1.000
    C79     C    0.98920   0.68490   0.70700   1.000
    H57     H    0.94790   0.70050   0.71180   1.000
    C80     C    0.03440   0.74130   0.70370   1.000
    H58     H    0.02290   0.79620   0.70520   1.000
    S5      S    0.49708   0.45040   0.86390   1.000
    C81     C    0.54320   0.44410   0.80010   1.000
    C82     C    0.52350   0.49680   0.74080   1.000
    H59     H    0.54380   0.50250   0.69960   1.000
    C83     C    0.46990   0.54060   0.74850   1.000
    H60     H    0.45010   0.58050   0.71390   1.000
    C84     C    0.44920   0.51920   0.81200   1.000
    C85     C    0.59870   0.38970   0.81240   1.000
    O9      O    0.63160   0.38850   0.76260   1.000
    O10     O    0.60320   0.34600   0.87210   1.000
    S6      S    0.34991   0.62840   0.78400   1.000
    C86     C    0.29410   0.62790   0.83840   1.000
    C87     C    0.31060   0.57130   0.89320   1.000
    H61     H    0.28420   0.55750   0.92680   1.000
    C88     C    0.36990   0.53510   0.89620   1.000
    H62     H    0.39080   0.50130   0.93600   1.000
    C89     C    0.39400   0.55440   0.83410   1.000
    C90     C    0.24290   0.68650   0.82450   1.000
    O11     O    0.20730   0.68840   0.87100   1.000
    O12     O    0.23650   0.72740   0.77000   1.000
    S7      S    0.69320   0.26350   0.43770   1.000
    C91     C    0.65050   0.32250   0.48460   1.000
    C92     C    0.61490   0.37620   0.43300   1.000
    H63     H    0.58780   0.41550   0.44720   1.000
    C93     C    0.62250   0.36700   0.35800   1.000
    H64     H    0.60030   0.39730   0.31620   1.000
    C94     C    0.66630   0.30860   0.35420   1.000
    C95     C    0.65710   0.31330   0.56700   1.000
    O13     O    0.69040   0.26210   0.60230   1.000
    O14     O    0.62350   0.36260   0.59940   1.000
    S8      S    0.64527   0.31410   0.19800   1.000
    C96     C    0.69360   0.26040   0.15390   1.000
    C97     C    0.73940   0.22180   0.20680   1.000
    H65     H    0.77030   0.18740   0.19340   1.000
    C98     C    0.73680   0.23760   0.28260   1.000
    H66     H    0.76630   0.21800   0.32540   1.000
    C99     C    0.68490   0.28590   0.28510   1.000
    C100    C    0.68490   0.26110   0.07320   1.000
    O15     O    0.64570   0.30940   0.03560   1.000
    O16     O    0.71310   0.21360   0.04150   1.000
    C101    C    0.88140   0.52950   0.91230   1.000
    H67     H    0.86880   0.58410   0.91350   1.000
    C102    C    0.93350   0.51860   0.90200   1.000
    H68     H    0.94280   0.46420   0.89270   1.000
    C103    C    0.72980   0.43340   0.93640   1.000
    H69     H    0.68880   0.44950   0.94170   1.000
    C104    C    0.77230   0.49090   0.93050   1.000
    H70     H    0.76080   0.54590   0.93120   1.000
    C105    C    0.83390   0.46940   0.92350   1.000
    C106    C    0.84350   0.38450   0.92350   1.000
    H71     H    0.88330   0.36470   0.91700   1.000
    C107    C    0.79970   0.33260   0.93190   1.000
    H72     H    0.81050   0.27720   0.93590   1.000
    C108    C    0.09320   0.60390   0.90940   1.000
    H73     H    0.13480   0.58400   0.91150   1.000
    C109    C    0.04710   0.55100   0.90140   1.000
    H74     H    0.05590   0.49570   0.89570   1.000
    C110    C    0.98570   0.57520   0.90110   1.000
    C111    C    0.97690   0.65770   0.90300   1.000
    H75     H    0.93530   0.67860   0.89860   1.000
    C112    C    0.02540   0.70770   0.91080   1.000
    H76     H    0.01720   0.76350   0.91380   1.000
    Co3     Co   0.67295   0.30461   0.70670   1.000
    Co4     Co   0.66563   0.26550   0.92982   1.000
    N11     N    0.74260   0.35330   0.93500   1.000
    N12     N    0.08650   0.68380   0.91490   1.000
    C113    C    0.61550   0.07100   0.30000   1.000
    H77     H    0.63470   0.12220   0.30390   1.000
    N13     N    0.74900   0.88700   0.28570   1.000
    C114    C    0.76670   0.96400   0.30100   1.000
    H78     H    0.81060   0.97650   0.30980   1.000
    C115    C    0.72540   0.02530   0.30500   1.000
    H79     H    0.73990   0.07890   0.31490   1.000
    C116    C    0.66120   0.00600   0.29500   1.000
    C117    C    0.64150   0.92700   0.27900   1.000
    H80     H    0.59790   0.91300   0.27190   1.000
    C118    C    0.68580   0.86950   0.27400   1.000
    H81     H    0.67210   0.81600   0.26120   1.000
    C119    C    0.56280   0.07400   0.30000   1.000
    H82     H    0.54750   0.02000   0.29930   1.000
    N14     N    0.40200   0.22360   0.29800   1.000
    C120    C    0.39620   0.14440   0.27940   1.000
    H83     H    0.35490   0.12170   0.26480   1.000
    C121    C    0.44770   0.09670   0.28100   1.000
    H84     H    0.44170   0.04150   0.26850   1.000
    C122    C    0.50900   0.12750   0.30080   1.000
    C123    C    0.51640   0.20860   0.32040   1.000
    H85     H    0.55720   0.23240   0.33560   1.000
    C124    C    0.46210   0.25220   0.31670   1.000
    H86     H    0.46690   0.30770   0.32830   1.000
    C125    C    0.59480   0.04250   0.29000   1.000
    H87     H    0.60710   0.09670   0.28520   1.000
    N15     N    0.75120   0.88560   0.28660   1.000
    C126    C    0.75350   0.96550   0.27610   1.000
    H88     H    0.79220   0.98630   0.26700   1.000
    C127    C    0.70660   0.01980   0.27700   1.000
    H89     H    0.71250   0.07560   0.26960   1.000
    C128    C    0.64930   0.98930   0.28940   1.000
    C129    C    0.64520   0.90580   0.30010   1.000
    H90     H    0.60680   0.88380   0.30890   1.000
    C130    C    0.69500   0.85570   0.29810   1.000
    H91     H    0.69050   0.79960   0.30470   1.000
    C131    C    0.54350   0.04050   0.29420   1.000
    H92     H    0.52770   0.98740   0.29640   1.000
    N16     N    0.40540   0.22420   0.30150   1.000
    C132    C    0.39110   0.14460   0.30480   1.000
    H93     H    0.34960   0.12990   0.30930   1.000
    C133    C    0.43410   0.08550   0.30170   1.000
    H94     H    0.42160   0.03090   0.30280   1.000
    C134    C    0.49510   0.10390   0.29700   1.000
    C135    C    0.51080   0.18490   0.29300   1.000
    H95     H    0.55210   0.20050   0.28820   1.000
    C136    C    0.46560   0.24130   0.29630   1.000
    H96     H    0.47710   0.29620   0.29480   1.000
    S9      S    0.00292   0.95040   0.13610   1.000
    C137    C    0.95680   0.94410   0.19990   1.000
    C138    C    0.97650   0.99680   0.25920   1.000
    H97     H    0.95620   0.00250   0.30040   1.000
    C139    C    0.03010   0.04060   0.25150   1.000
    H98     H    0.04990   0.08050   0.28610   1.000
    C140    C    0.05080   0.01920   0.18800   1.000
    C141    C    0.90130   0.88970   0.18760   1.000
    O17     O    0.86840   0.88850   0.23740   1.000
    O18     O    0.89680   0.84600   0.12790   1.000
    S10     S    0.15009   0.12840   0.21600   1.000
    C142    C    0.20590   0.12790   0.16160   1.000
    C143    C    0.18940   0.07130   0.10680   1.000
    H99     H    0.21580   0.05750   0.07320   1.000
    C144    C    0.13010   0.03510   0.10380   1.000
    H100    H    0.10920   0.00130   0.06400   1.000
    C145    C    0.10600   0.05440   0.16590   1.000
    C146    C    0.25710   0.18650   0.17550   1.000
    O19     O    0.29270   0.18840   0.12900   1.000
    O20     O    0.26350   0.22740   0.23000   1.000
    S11     S    0.80680   0.76350   0.56230   1.000
    C147    C    0.84950   0.82250   0.51540   1.000
    C148    C    0.88510   0.87620   0.56700   1.000
    H101    H    0.91220   0.91550   0.55280   1.000
    C149    C    0.87750   0.86700   0.64200   1.000
    H102    H    0.89970   0.89730   0.68380   1.000
    C150    C    0.83370   0.80860   0.64580   1.000
    C151    C    0.84290   0.81330   0.43300   1.000
    O21     O    0.80960   0.76210   0.39770   1.000
    O22     O    0.87650   0.86260   0.40060   1.000
    S12     S    0.85473   0.81410   0.80200   1.000
    C152    C    0.80640   0.76040   0.84610   1.000
    C153    C    0.76060   0.72180   0.79320   1.000
    H103    H    0.72970   0.68740   0.80660   1.000
    C154    C    0.76320   0.73760   0.71740   1.000
    H104    H    0.73370   0.71800   0.67460   1.000
    C155    C    0.81510   0.78590   0.71490   1.000
    C156    C    0.81510   0.76110   0.92680   1.000
    O23     O    0.85430   0.80940   0.96440   1.000
    O24     O    0.78690   0.71360   0.95850   1.000
    C157    C    0.61860   0.02950   0.08770   1.000
    H105    H    0.63120   0.08410   0.08650   1.000
    C158    C    0.56650   0.01860   0.09800   1.000
    H106    H    0.55720   0.96420   0.10730   1.000
    C159    C    0.77020   0.93340   0.06360   1.000
    H107    H    0.81120   0.94950   0.05830   1.000
    C160    C    0.72770   0.99090   0.06950   1.000
    H108    H    0.73920   0.04590   0.06880   1.000
    C161    C    0.66610   0.96940   0.07650   1.000
    C162    C    0.65650   0.88450   0.07650   1.000
    H109    H    0.61670   0.86470   0.08300   1.000
    C163    C    0.70030   0.83260   0.06810   1.000
    H110    H    0.68950   0.77720   0.06410   1.000
    C164    C    0.40680   0.10390   0.09060   1.000
    H111    H    0.36520   0.08400   0.08850   1.000
    C165    C    0.45290   0.05100   0.09860   1.000
    H112    H    0.44410   0.99570   0.10430   1.000
    C166    C    0.51430   0.07520   0.09890   1.000
    C167    C    0.52310   0.15770   0.09700   1.000
    H113    H    0.56470   0.17860   0.10140   1.000
    C168    C    0.47460   0.20770   0.08920   1.000
    H114    H    0.48280   0.26350   0.08620   1.000
    Co5     Co   0.82705   0.80461   0.29330   1.000
    Co6     Co   0.83437   0.76550   0.07018   1.000
    N17     N    0.75740   0.85330   0.06500   1.000
    N18     N    0.41350   0.18380   0.08510   1.000
    C169    C    0.11550   0.57100   0.30000   1.000
    H115    H    0.13470   0.62220   0.30390   1.000
    N19     N    0.24900   0.38700   0.28570   1.000
    C170    C    0.26670   0.46400   0.30100   1.000
    H116    H    0.31060   0.47650   0.30980   1.000
    C171    C    0.22540   0.52530   0.30500   1.000
    H117    H    0.23990   0.57890   0.31490   1.000
    C172    C    0.16120   0.50600   0.29500   1.000
    C173    C    0.14150   0.42700   0.27900   1.000
    H118    H    0.09790   0.41300   0.27190   1.000
    C174    C    0.18580   0.36950   0.27400   1.000
    H119    H    0.17210   0.31600   0.26120   1.000
    C175    C    0.06280   0.57400   0.30000   1.000
    H120    H    0.04750   0.52000   0.29930   1.000
    N20     N    0.90200   0.72360   0.29800   1.000
    C176    C    0.89620   0.64440   0.27940   1.000
    H121    H    0.85490   0.62170   0.26480   1.000
    C177    C    0.94770   0.59670   0.28100   1.000
    H122    H    0.94170   0.54150   0.26850   1.000
    C178    C    0.00900   0.62750   0.30080   1.000
    C179    C    0.01640   0.70860   0.32040   1.000
    H123    H    0.05720   0.73240   0.33560   1.000
    C180    C    0.96210   0.75220   0.31670   1.000
    H124    H    0.96690   0.80770   0.32830   1.000
    C181    C    0.09480   0.54250   0.29000   1.000
    H125    H    0.10710   0.59670   0.28520   1.000
    N21     N    0.25120   0.38560   0.28660   1.000
    C182    C    0.25350   0.46550   0.27610   1.000
    H126    H    0.29220   0.48630   0.26700   1.000
    C183    C    0.20660   0.51980   0.27700   1.000
    H127    H    0.21250   0.57560   0.26960   1.000
    C184    C    0.14930   0.48930   0.28940   1.000
    C185    C    0.14520   0.40580   0.30010   1.000
    H128    H    0.10680   0.38380   0.30890   1.000
    C186    C    0.19500   0.35570   0.29810   1.000
    H129    H    0.19050   0.29960   0.30470   1.000
    C187    C    0.04350   0.54050   0.29420   1.000
    H130    H    0.02770   0.48740   0.29640   1.000
    N22     N    0.90540   0.72420   0.30150   1.000
    C188    C    0.89110   0.64460   0.30480   1.000
    H131    H    0.84960   0.62990   0.30930   1.000
    C189    C    0.93410   0.58550   0.30170   1.000
    H132    H    0.92160   0.53090   0.30280   1.000
    C190    C    0.99510   0.60390   0.29700   1.000
    C191    C    0.01080   0.68490   0.29300   1.000
    H133    H    0.05210   0.70050   0.28820   1.000
    C192    C    0.96560   0.74130   0.29630   1.000
    H134    H    0.97710   0.79620   0.29480   1.000
    S13     S    0.50292   0.45040   0.13610   1.000
    C193    C    0.45680   0.44410   0.19990   1.000
    C194    C    0.47650   0.49680   0.25920   1.000
    H135    H    0.45620   0.50250   0.30040   1.000
    C195    C    0.53010   0.54060   0.25150   1.000
    H136    H    0.54990   0.58050   0.28610   1.000
    C196    C    0.55080   0.51920   0.18800   1.000
    C197    C    0.40130   0.38970   0.18760   1.000
    O25     O    0.36840   0.38850   0.23740   1.000
    O26     O    0.39680   0.34600   0.12790   1.000
    S14     S    0.65009   0.62840   0.21600   1.000
    C198    C    0.70590   0.62790   0.16160   1.000
    C199    C    0.68940   0.57130   0.10680   1.000
    H137    H    0.71580   0.55750   0.07320   1.000
    C200    C    0.63010   0.53510   0.10380   1.000
    H138    H    0.60920   0.50130   0.06400   1.000
    C201    C    0.60600   0.55440   0.16590   1.000
    C202    C    0.75710   0.68650   0.17550   1.000
    O27     O    0.79270   0.68840   0.12900   1.000
    O28     O    0.76350   0.72740   0.23000   1.000
    S15     S    0.30680   0.26350   0.56230   1.000
    C203    C    0.34950   0.32250   0.51540   1.000
    C204    C    0.38510   0.37620   0.56700   1.000
    H139    H    0.41220   0.41550   0.55280   1.000
    C205    C    0.37750   0.36700   0.64200   1.000
    H140    H    0.39970   0.39730   0.68380   1.000
    C206    C    0.33370   0.30860   0.64580   1.000
    C207    C    0.34290   0.31330   0.43300   1.000
    O29     O    0.30960   0.26210   0.39770   1.000
    O30     O    0.37650   0.36260   0.40060   1.000
    S16     S    0.35473   0.31410   0.80200   1.000
    C208    C    0.30640   0.26040   0.84610   1.000
    C209    C    0.26060   0.22180   0.79320   1.000
    H141    H    0.22970   0.18740   0.80660   1.000
    C210    C    0.26320   0.23760   0.71740   1.000
    H142    H    0.23370   0.21800   0.67460   1.000
    C211    C    0.31510   0.28590   0.71490   1.000
    C212    C    0.31510   0.26110   0.92680   1.000
    O31     O    0.35430   0.30940   0.96440   1.000
    O32     O    0.28690   0.21360   0.95850   1.000
    C213    C    0.11860   0.52950   0.08770   1.000
    H143    H    0.13120   0.58410   0.08650   1.000
    C214    C    0.06650   0.51860   0.09800   1.000
    H144    H    0.05720   0.46420   0.10730   1.000
    C215    C    0.27020   0.43340   0.06360   1.000
    H145    H    0.31120   0.44950   0.05830   1.000
    C216    C    0.22770   0.49090   0.06950   1.000
    H146    H    0.23920   0.54590   0.06880   1.000
    C217    C    0.16610   0.46940   0.07650   1.000
    C218    C    0.15650   0.38450   0.07650   1.000
    H147    H    0.11670   0.36470   0.08300   1.000
    C219    C    0.20030   0.33260   0.06810   1.000
    H148    H    0.18950   0.27720   0.06410   1.000
    C220    C    0.90680   0.60390   0.09060   1.000
    H149    H    0.86520   0.58400   0.08850   1.000
    C221    C    0.95290   0.55100   0.09860   1.000
    H150    H    0.94410   0.49570   0.10430   1.000
    C222    C    0.01430   0.57520   0.09890   1.000
    C223    C    0.02310   0.65770   0.09700   1.000
    H151    H    0.06470   0.67860   0.10140   1.000
    C224    C    0.97460   0.70770   0.08920   1.000
    H152    H    0.98280   0.76350   0.08620   1.000
    Co7     Co   0.32705   0.30461   0.29330   1.000
    Co8     Co   0.33437   0.26550   0.07018   1.000
    N23     N    0.25740   0.35330   0.06500   1.000
    N24     N    0.91350   0.68380   0.08510   1.000
