# CIF file generated by openbabel 2.4.1, see http://openbabel.sf.net
data_I
_chemical_name_common 'image0'
_cell_length_a 22.5959
_cell_length_b 19.8166
_cell_length_c 19.817
_cell_angle_alpha 90
_cell_angle_beta 90
_cell_angle_gamma 90
_space_group_name_H-M_alt 'P 1'
_space_group_name_Hall 'P 1'
loop_
    _symmetry_equiv_pos_as_xyz
    x,y,z
loop_
    _atom_site_label
    _atom_site_type_symbol
    _atom_site_fract_x
    _atom_site_fract_y
    _atom_site_fract_z
    _atom_site_occupancy
    Cu1     Cu   0.80451   0.23051   0.76506   1.000
    O1      O    0.77500   0.13880   0.73760   1.000
    O2      O    0.68860   0.17220   0.72040   1.000
    O3      O    0.56050   0.05810   0.56640   1.000
    O4      O    0.81420   0.24400   0.67240   1.000
    O5      O    0.72790   0.28310   0.64370   1.000
    C1      C    0.70280   0.06150   0.70400   1.000
    C2      C    0.65530   0.05970   0.65620   1.000
    H1      H    0.64160   0.10160   0.63890   1.000
    H2      H    0.77300   0.95890   0.80300   1.000
    H3      H    0.77150   0.03960   0.80500   1.000
    H4      H    0.81290   0.99850   0.75170   1.000
    C3      C    0.72360   0.13080   0.72010   1.000
    H5      H    0.77570   0.31390   0.02810   1.000
    H6      H    0.79140   0.28790   0.95370   1.000
    H7      H    0.81570   0.24790   0.01820   1.000
    C4      C    0.79580   0.29340   0.56030   1.000
    C5      C    0.84850   0.33950   0.56220   1.000
    C6      C    0.85900   0.35810   0.49100   1.000
    C7      C    0.77940   0.27340   0.62890   1.000
    Cu2     Cu   0.30451   0.73051   0.26506   1.000
    O6      O    0.27500   0.63880   0.23760   1.000
    O7      O    0.18860   0.67220   0.22040   1.000
    O8      O    0.06050   0.55810   0.06640   1.000
    O9      O    0.31420   0.74400   0.17240   1.000
    O10     O    0.22790   0.78310   0.14370   1.000
    C8      C    0.20280   0.56150   0.20400   1.000
    C9      C    0.15530   0.55970   0.15620   1.000
    H8      H    0.14160   0.60160   0.13890   1.000
    H9      H    0.27300   0.45890   0.30300   1.000
    H10     H    0.27150   0.53960   0.30500   1.000
    H11     H    0.31290   0.49850   0.25170   1.000
    C10     C    0.22360   0.63080   0.22010   1.000
    H12     H    0.27570   0.81390   0.52810   1.000
    H13     H    0.29140   0.78790   0.45370   1.000
    H14     H    0.31570   0.74790   0.51820   1.000
    C11     C    0.29580   0.79340   0.06030   1.000
    C12     C    0.34850   0.83950   0.06220   1.000
    C13     C    0.35900   0.85810   0.99100   1.000
    C14     C    0.27940   0.77340   0.12890   1.000
    Cu3     Cu   0.19549   0.76949   0.76506   1.000
    O11     O    0.22500   0.86120   0.73760   1.000
    O12     O    0.31140   0.82780   0.72040   1.000
    O13     O    0.43950   0.94190   0.56640   1.000
    O14     O    0.18580   0.75600   0.67240   1.000
    O15     O    0.27210   0.71690   0.64370   1.000
    C15     C    0.29720   0.93850   0.70400   1.000
    C16     C    0.34470   0.94030   0.65620   1.000
    H15     H    0.35840   0.89840   0.63890   1.000
    H16     H    0.22700   0.04110   0.80300   1.000
    H17     H    0.22850   0.96040   0.80500   1.000
    H18     H    0.18710   0.00150   0.75170   1.000
    C17     C    0.27640   0.86920   0.72010   1.000
    H19     H    0.22430   0.68610   0.02810   1.000
    H20     H    0.20860   0.71210   0.95370   1.000
    H21     H    0.18430   0.75210   0.01820   1.000
    C18     C    0.20420   0.70660   0.56030   1.000
    C19     C    0.15150   0.66050   0.56220   1.000
    C20     C    0.14100   0.64190   0.49100   1.000
    C21     C    0.22060   0.72660   0.62890   1.000
    Cu4     Cu   0.69549   0.26949   0.26506   1.000
    O16     O    0.72500   0.36120   0.23760   1.000
    O17     O    0.81140   0.32780   0.22040   1.000
    O18     O    0.93950   0.44190   0.06640   1.000
    O19     O    0.68580   0.25600   0.17240   1.000
    O20     O    0.77210   0.21690   0.14370   1.000
    C22     C    0.79720   0.43850   0.20400   1.000
    C23     C    0.84470   0.44030   0.15620   1.000
    H22     H    0.85840   0.39840   0.13890   1.000
    H23     H    0.72700   0.54110   0.30300   1.000
    H24     H    0.72850   0.46040   0.30500   1.000
    H25     H    0.68710   0.50150   0.25170   1.000
    C24     C    0.77640   0.36920   0.22010   1.000
    H26     H    0.72430   0.18610   0.52810   1.000
    H27     H    0.70860   0.21210   0.45370   1.000
    H28     H    0.68430   0.25210   0.51820   1.000
    C25     C    0.70420   0.20660   0.06030   1.000
    C26     C    0.65150   0.16050   0.06220   1.000
    C27     C    0.64100   0.14190   0.99100   1.000
    C28     C    0.72060   0.22660   0.12890   1.000
    Cu5     Cu   0.19549   0.23051   0.23494   1.000
    O21     O    0.22500   0.13880   0.26240   1.000
    O22     O    0.31140   0.17220   0.27960   1.000
    O23     O    0.43950   0.05810   0.43360   1.000
    O24     O    0.18580   0.24400   0.32760   1.000
    O25     O    0.27210   0.28310   0.35630   1.000
    C29     C    0.29720   0.06150   0.29600   1.000
    C30     C    0.34470   0.05970   0.34380   1.000
    H29     H    0.35840   0.10160   0.36110   1.000
    H30     H    0.22700   0.95890   0.19700   1.000
    H31     H    0.22850   0.03960   0.19500   1.000
    H32     H    0.18710   0.99850   0.24830   1.000
    C31     C    0.27640   0.13080   0.27990   1.000
    H33     H    0.22430   0.31390   0.97190   1.000
    H34     H    0.20860   0.28790   0.04630   1.000
    H35     H    0.18430   0.24790   0.98180   1.000
    C32     C    0.20420   0.29340   0.43970   1.000
    C33     C    0.15150   0.33950   0.43780   1.000
    C34     C    0.14100   0.35810   0.50900   1.000
    C35     C    0.22060   0.27340   0.37110   1.000
    Cu6     Cu   0.69549   0.73051   0.73494   1.000
    O26     O    0.72500   0.63880   0.76240   1.000
    O27     O    0.81140   0.67220   0.77960   1.000
    O28     O    0.93950   0.55810   0.93360   1.000
    O29     O    0.68580   0.74400   0.82760   1.000
    O30     O    0.77210   0.78310   0.85630   1.000
    C36     C    0.79720   0.56150   0.79600   1.000
    C37     C    0.84470   0.55970   0.84380   1.000
    H36     H    0.85840   0.60160   0.86110   1.000
    H37     H    0.72700   0.45890   0.69700   1.000
    H38     H    0.72850   0.53960   0.69500   1.000
    H39     H    0.68710   0.49850   0.74830   1.000
    C38     C    0.77640   0.63080   0.77990   1.000
    H40     H    0.72430   0.81390   0.47190   1.000
    H41     H    0.70860   0.78790   0.54630   1.000
    H42     H    0.68430   0.74790   0.48180   1.000
    C39     C    0.70420   0.79340   0.93970   1.000
    C40     C    0.65150   0.83950   0.93780   1.000
    C41     C    0.64100   0.85810   0.00900   1.000
    C42     C    0.72060   0.77340   0.87110   1.000
    Cu7     Cu   0.80451   0.76949   0.23494   1.000
    O31     O    0.77500   0.86120   0.26240   1.000
    O32     O    0.68860   0.82780   0.27960   1.000
    O33     O    0.56050   0.94190   0.43360   1.000
    O34     O    0.81420   0.75600   0.32760   1.000
    O35     O    0.72790   0.71690   0.35630   1.000
    C43     C    0.70280   0.93850   0.29600   1.000
    C44     C    0.65530   0.94030   0.34380   1.000
    H43     H    0.64160   0.89840   0.36110   1.000
    H44     H    0.77300   0.04110   0.19700   1.000
    H45     H    0.77150   0.96040   0.19500   1.000
    H46     H    0.81290   0.00150   0.24830   1.000
    C45     C    0.72360   0.86920   0.27990   1.000
    H47     H    0.77570   0.68610   0.97190   1.000
    H48     H    0.79140   0.71210   0.04630   1.000
    H49     H    0.81570   0.75210   0.98180   1.000
    C46     C    0.79580   0.70660   0.43970   1.000
    C47     C    0.84850   0.66050   0.43780   1.000
    C48     C    0.85900   0.64190   0.50900   1.000
    C49     C    0.77940   0.72660   0.37110   1.000
    Cu8     Cu   0.30451   0.26949   0.73494   1.000
    O36     O    0.27500   0.36120   0.76240   1.000
    O37     O    0.18860   0.32780   0.77960   1.000
    O38     O    0.06050   0.44190   0.93360   1.000
    O39     O    0.31420   0.25600   0.82760   1.000
    O40     O    0.22790   0.21690   0.85630   1.000
    C50     C    0.20280   0.43850   0.79600   1.000
    C51     C    0.15530   0.44030   0.84380   1.000
    H50     H    0.14160   0.39840   0.86110   1.000
    H51     H    0.27300   0.54110   0.69700   1.000
    H52     H    0.27150   0.46040   0.69500   1.000
    H53     H    0.31290   0.50150   0.74830   1.000
    C52     C    0.22360   0.36920   0.77990   1.000
    H54     H    0.27570   0.18610   0.47190   1.000
    H55     H    0.29140   0.21210   0.54630   1.000
    H56     H    0.31570   0.25210   0.48180   1.000
    C53     C    0.29580   0.20660   0.93970   1.000
    C54     C    0.34850   0.16050   0.93780   1.000
    C55     C    0.35900   0.14190   0.00900   1.000
    C56     C    0.27940   0.22660   0.87110   1.000
    Cu9     Cu   0.19549   0.76949   0.23494   1.000
    O41     O    0.22500   0.86120   0.26240   1.000
    O42     O    0.31140   0.82780   0.27960   1.000
    O43     O    0.43950   0.94190   0.43360   1.000
    O44     O    0.18580   0.75600   0.32760   1.000
    O45     O    0.27210   0.71690   0.35630   1.000
    C57     C    0.29720   0.93850   0.29600   1.000
    C58     C    0.34470   0.94030   0.34380   1.000
    H57     H    0.35840   0.89840   0.36110   1.000
    H58     H    0.22700   0.04110   0.19700   1.000
    H59     H    0.22850   0.96040   0.19500   1.000
    H60     H    0.18710   0.00150   0.24830   1.000
    C59     C    0.27640   0.86920   0.27990   1.000
    H61     H    0.22430   0.68610   0.97190   1.000
    H62     H    0.20860   0.71210   0.04630   1.000
    H63     H    0.18430   0.75210   0.98180   1.000
    C60     C    0.20420   0.70660   0.43970   1.000
    C61     C    0.15150   0.66050   0.43780   1.000
    C62     C    0.14100   0.64190   0.50900   1.000
    C63     C    0.22060   0.72660   0.37110   1.000
    Cu10    Cu   0.69549   0.26949   0.73494   1.000
    O46     O    0.72500   0.36120   0.76240   1.000
    O47     O    0.81140   0.32780   0.77960   1.000
    O48     O    0.93950   0.44190   0.93360   1.000
    O49     O    0.68580   0.25600   0.82760   1.000
    O50     O    0.77210   0.21690   0.85630   1.000
    C64     C    0.79720   0.43850   0.79600   1.000
    C65     C    0.84470   0.44030   0.84380   1.000
    H64     H    0.85840   0.39840   0.86110   1.000
    H65     H    0.72700   0.54110   0.69700   1.000
    H66     H    0.72850   0.46040   0.69500   1.000
    H67     H    0.68710   0.50150   0.74830   1.000
    C66     C    0.77640   0.36920   0.77990   1.000
    H68     H    0.72430   0.18610   0.47190   1.000
    H69     H    0.70860   0.21210   0.54630   1.000
    H70     H    0.68430   0.25210   0.48180   1.000
    C67     C    0.70420   0.20660   0.93970   1.000
    C68     C    0.65150   0.16050   0.93780   1.000
    C69     C    0.64100   0.14190   0.00900   1.000
    C70     C    0.72060   0.22660   0.87110   1.000
    Cu11    Cu   0.80451   0.23051   0.23494   1.000
    O51     O    0.77500   0.13880   0.26240   1.000
    O52     O    0.68860   0.17220   0.27960   1.000
    O53     O    0.56050   0.05810   0.43360   1.000
    O54     O    0.81420   0.24400   0.32760   1.000
    O55     O    0.72790   0.28310   0.35630   1.000
    C71     C    0.70280   0.06150   0.29600   1.000
    C72     C    0.65530   0.05970   0.34380   1.000
    H71     H    0.64160   0.10160   0.36110   1.000
    H72     H    0.77300   0.95890   0.19700   1.000
    H73     H    0.77150   0.03960   0.19500   1.000
    H74     H    0.81290   0.99850   0.24830   1.000
    C73     C    0.72360   0.13080   0.27990   1.000
    H75     H    0.77570   0.31390   0.97190   1.000
    H76     H    0.79140   0.28790   0.04630   1.000
    H77     H    0.81570   0.24790   0.98180   1.000
    C74     C    0.79580   0.29340   0.43970   1.000
    C75     C    0.84850   0.33950   0.43780   1.000
    C76     C    0.85900   0.35810   0.50900   1.000
    C77     C    0.77940   0.27340   0.37110   1.000
    Cu12    Cu   0.30451   0.73051   0.73494   1.000
    O56     O    0.27500   0.63880   0.76240   1.000
    O57     O    0.18860   0.67220   0.77960   1.000
    O58     O    0.06050   0.55810   0.93360   1.000
    O59     O    0.31420   0.74400   0.82760   1.000
    O60     O    0.22790   0.78310   0.85630   1.000
    C78     C    0.20280   0.56150   0.79600   1.000
    C79     C    0.15530   0.55970   0.84380   1.000
    H78     H    0.14160   0.60160   0.86110   1.000
    H79     H    0.27300   0.45890   0.69700   1.000
    H80     H    0.27150   0.53960   0.69500   1.000
    H81     H    0.31290   0.49850   0.74830   1.000
    C80     C    0.22360   0.63080   0.77990   1.000
    H82     H    0.27570   0.81390   0.47190   1.000
    H83     H    0.29140   0.78790   0.54630   1.000
    H84     H    0.31570   0.74790   0.48180   1.000
    C81     C    0.29580   0.79340   0.93970   1.000
    C82     C    0.34850   0.83950   0.93780   1.000
    C83     C    0.35900   0.85810   0.00900   1.000
    C84     C    0.27940   0.77340   0.87110   1.000
    Cu13    Cu   0.80451   0.76949   0.76506   1.000
    O61     O    0.77500   0.86120   0.73760   1.000
    O62     O    0.68860   0.82780   0.72040   1.000
    O63     O    0.56050   0.94190   0.56640   1.000
    O64     O    0.81420   0.75600   0.67240   1.000
    O65     O    0.72790   0.71690   0.64370   1.000
    C85     C    0.70280   0.93850   0.70400   1.000
    C86     C    0.65530   0.94030   0.65620   1.000
    H85     H    0.64160   0.89840   0.63890   1.000
    H86     H    0.77300   0.04110   0.80300   1.000
    H87     H    0.77150   0.96040   0.80500   1.000
    H88     H    0.81290   0.00150   0.75170   1.000
    C87     C    0.72360   0.86920   0.72010   1.000
    H89     H    0.77570   0.68610   0.02810   1.000
    H90     H    0.79140   0.71210   0.95370   1.000
    H91     H    0.81570   0.75210   0.01820   1.000
    C88     C    0.79580   0.70660   0.56030   1.000
    C89     C    0.84850   0.66050   0.56220   1.000
    C90     C    0.85900   0.64190   0.49100   1.000
    C91     C    0.77940   0.72660   0.62890   1.000
    Cu14    Cu   0.30451   0.26949   0.26506   1.000
    O66     O    0.27500   0.36120   0.23760   1.000
    O67     O    0.18860   0.32780   0.22040   1.000
    O68     O    0.06050   0.44190   0.06640   1.000
    O69     O    0.31420   0.25600   0.17240   1.000
    O70     O    0.22790   0.21690   0.14370   1.000
    C92     C    0.20280   0.43850   0.20400   1.000
    C93     C    0.15530   0.44030   0.15620   1.000
    H92     H    0.14160   0.39840   0.13890   1.000
    H93     H    0.27300   0.54110   0.30300   1.000
    H94     H    0.27150   0.46040   0.30500   1.000
    H95     H    0.31290   0.50150   0.25170   1.000
    C94     C    0.22360   0.36920   0.22010   1.000
    H96     H    0.27570   0.18610   0.52810   1.000
    H97     H    0.29140   0.21210   0.45370   1.000
    H98     H    0.31570   0.25210   0.51820   1.000
    C95     C    0.29580   0.20660   0.06030   1.000
    C96     C    0.34850   0.16050   0.06220   1.000
    C97     C    0.35900   0.14190   0.99100   1.000
    C98     C    0.27940   0.22660   0.12890   1.000
    Cu15    Cu   0.19549   0.23051   0.76506   1.000
    O71     O    0.22500   0.13880   0.73760   1.000
    O72     O    0.31140   0.17220   0.72040   1.000
    O73     O    0.43950   0.05810   0.56640   1.000
    O74     O    0.18580   0.24400   0.67240   1.000
    O75     O    0.27210   0.28310   0.64370   1.000
    C99     C    0.29720   0.06150   0.70400   1.000
    C100    C    0.34470   0.05970   0.65620   1.000
    H99     H    0.35840   0.10160   0.63890   1.000
    H100    H    0.22700   0.95890   0.80300   1.000
    H101    H    0.22850   0.03960   0.80500   1.000
    H102    H    0.18710   0.99850   0.75170   1.000
    C101    C    0.27640   0.13080   0.72010   1.000
    H103    H    0.22430   0.31390   0.02810   1.000
    H104    H    0.20860   0.28790   0.95370   1.000
    H105    H    0.18430   0.24790   0.01820   1.000
    C102    C    0.20420   0.29340   0.56030   1.000
    C103    C    0.15150   0.33950   0.56220   1.000
    C104    C    0.14100   0.35810   0.49100   1.000
    C105    C    0.22060   0.27340   0.62890   1.000
    Cu16    Cu   0.69549   0.73051   0.26506   1.000
    O76     O    0.72500   0.63880   0.23760   1.000
    O77     O    0.81140   0.67220   0.22040   1.000
    O78     O    0.93950   0.55810   0.06640   1.000
    O79     O    0.68580   0.74400   0.17240   1.000
    O80     O    0.77210   0.78310   0.14370   1.000
    C106    C    0.79720   0.56150   0.20400   1.000
    C107    C    0.84470   0.55970   0.15620   1.000
    H106    H    0.85840   0.60160   0.13890   1.000
    H107    H    0.72700   0.45890   0.30300   1.000
    H108    H    0.72850   0.53960   0.30500   1.000
    H109    H    0.68710   0.49850   0.25170   1.000
    C108    C    0.77640   0.63080   0.22010   1.000
    H110    H    0.72430   0.81390   0.52810   1.000
    H111    H    0.70860   0.78790   0.45370   1.000
    H112    H    0.68430   0.74790   0.51820   1.000
    C109    C    0.70420   0.79340   0.06030   1.000
    C110    C    0.65150   0.83950   0.06220   1.000
    C111    C    0.64100   0.85810   0.99100   1.000
    C112    C    0.72060   0.77340   0.12890   1.000
    Cu17    Cu   0.50000   0.06685   0.50000   1.000
    Cu18    Cu   0.00000   0.56685   0.00000   1.000
    Cu19    Cu   0.50000   0.93315   0.50000   1.000
    Cu20    Cu   0.00000   0.43315   0.00000   1.000
    C113    C    0.62700   0.00000   0.63270   1.000
    C114    C    0.58310   0.00000   0.58610   1.000
    C115    C    0.72690   0.00000   0.72710   1.000
    C116    C    0.77500   0.00000   0.77570   1.000
    C117    C    0.12700   0.50000   0.13270   1.000
    C118    C    0.08310   0.50000   0.08610   1.000
    C119    C    0.22690   0.50000   0.22710   1.000
    C120    C    0.27500   0.50000   0.27570   1.000
    C121    C    0.37300   0.00000   0.63270   1.000
    C122    C    0.41690   0.00000   0.58610   1.000
    C123    C    0.27310   0.00000   0.72710   1.000
    C124    C    0.22500   0.00000   0.77570   1.000
    C125    C    0.87300   0.50000   0.13270   1.000
    C126    C    0.91690   0.50000   0.08610   1.000
    C127    C    0.77310   0.50000   0.22710   1.000
    C128    C    0.72500   0.50000   0.27570   1.000
    C129    C    0.37300   0.00000   0.36730   1.000
    C130    C    0.41690   0.00000   0.41390   1.000
    C131    C    0.27310   0.00000   0.27290   1.000
    C132    C    0.22500   0.00000   0.22430   1.000
    C133    C    0.87300   0.50000   0.86730   1.000
    C134    C    0.91690   0.50000   0.91390   1.000
    C135    C    0.77310   0.50000   0.77290   1.000
    C136    C    0.72500   0.50000   0.72430   1.000
    C137    C    0.62700   0.00000   0.36730   1.000
    C138    C    0.58310   0.00000   0.41390   1.000
    C139    C    0.72690   0.00000   0.27290   1.000
    C140    C    0.77500   0.00000   0.22430   1.000
    C141    C    0.12700   0.50000   0.86730   1.000
    C142    C    0.08310   0.50000   0.91390   1.000
    C143    C    0.22690   0.50000   0.77290   1.000
    C144    C    0.27500   0.50000   0.72430   1.000
    C145    C    0.71760   0.22610   0.50000   1.000
    C146    C    0.77670   0.27260   0.50000   1.000
    C147    C    0.21760   0.72610   0.00000   1.000
    C148    C    0.27670   0.77260   0.00000   1.000
    C149    C    0.28240   0.77390   0.50000   1.000
    C150    C    0.22330   0.72740   0.50000   1.000
    C151    C    0.78240   0.27390   0.00000   1.000
    C152    C    0.72330   0.22740   0.00000   1.000
    C153    C    0.28240   0.22610   0.50000   1.000
    C154    C    0.22330   0.27260   0.50000   1.000
    C155    C    0.78240   0.72610   0.00000   1.000
    C156    C    0.72330   0.77260   0.00000   1.000
    C157    C    0.71760   0.77390   0.50000   1.000
    C158    C    0.77670   0.72740   0.50000   1.000
    C159    C    0.21760   0.27390   0.00000   1.000
    C160    C    0.27670   0.22740   0.00000   1.000
