# CIF file generated by openbabel 2.4.1, see http://openbabel.sf.net
data_I
_chemical_name_common 'image0'
_cell_length_a 11.116
_cell_length_b 11.116
_cell_length_c 8.627
_cell_angle_alpha 90
_cell_angle_beta 90
_cell_angle_gamma 90
_space_group_name_H-M_alt 'P 1'
_space_group_name_Hall 'P 1'
loop_
    _symmetry_equiv_pos_as_xyz
    x,y,z
loop_
    _atom_site_label
    _atom_site_type_symbol
    _atom_site_fract_x
    _atom_site_fract_y
    _atom_site_fract_z
    _atom_site_occupancy
    C1      C    0.03850   0.36770   0.37330   1.000
    H1      H    0.06520   0.40760   0.28360   1.000
    C2      C    0.03790   0.24480   0.37850   1.000
    H2      H    0.06570   0.20230   0.29140   1.000
    C3      C    0.96150   0.63230   0.37330   1.000
    H3      H    0.93480   0.59240   0.28360   1.000
    C4      C    0.96210   0.75520   0.37850   1.000
    H4      H    0.93430   0.79770   0.29140   1.000
    C5      C    0.63230   0.03850   0.37330   1.000
    H5      H    0.59240   0.06520   0.28360   1.000
    C6      C    0.75520   0.03790   0.37850   1.000
    H6      H    0.79770   0.06570   0.29140   1.000
    C7      C    0.36770   0.96150   0.37330   1.000
    H7      H    0.40760   0.93480   0.28360   1.000
    C8      C    0.24480   0.96210   0.37850   1.000
    H8      H    0.20230   0.93430   0.29140   1.000
    C9      C    0.96150   0.36770   0.62670   1.000
    H9      H    0.93480   0.40760   0.71640   1.000
    C10     C    0.96210   0.24480   0.62150   1.000
    H10     H    0.93430   0.20230   0.70860   1.000
    C11     C    0.03850   0.63230   0.62670   1.000
    H11     H    0.06520   0.59240   0.71640   1.000
    C12     C    0.03790   0.75520   0.62150   1.000
    H12     H    0.06570   0.79770   0.70860   1.000
    C13     C    0.36770   0.03850   0.62670   1.000
    H13     H    0.40760   0.06520   0.71640   1.000
    C14     C    0.24480   0.03790   0.62150   1.000
    H14     H    0.20230   0.06570   0.70860   1.000
    C15     C    0.63230   0.96150   0.62670   1.000
    H15     H    0.59240   0.93480   0.71640   1.000
    C16     C    0.75520   0.96210   0.62150   1.000
    H16     H    0.79770   0.93430   0.70860   1.000
    C17     C    0.96150   0.63230   0.62670   1.000
    H17     H    0.93480   0.59240   0.71640   1.000
    C18     C    0.96210   0.75520   0.62150   1.000
    H18     H    0.93430   0.79770   0.70860   1.000
    C19     C    0.03850   0.36770   0.62670   1.000
    H19     H    0.06520   0.40760   0.71640   1.000
    C20     C    0.03790   0.24480   0.62150   1.000
    H20     H    0.06570   0.20230   0.70860   1.000
    C21     C    0.36770   0.96150   0.62670   1.000
    H21     H    0.40760   0.93480   0.71640   1.000
    C22     C    0.24480   0.96210   0.62150   1.000
    H22     H    0.20230   0.93430   0.70860   1.000
    C23     C    0.63230   0.03850   0.62670   1.000
    H23     H    0.59240   0.06520   0.71640   1.000
    C24     C    0.75520   0.03790   0.62150   1.000
    H24     H    0.79770   0.06570   0.70860   1.000
    C25     C    0.03850   0.63230   0.37330   1.000
    H25     H    0.06520   0.59240   0.28360   1.000
    C26     C    0.03790   0.75520   0.37850   1.000
    H26     H    0.06570   0.79770   0.29140   1.000
    C27     C    0.96150   0.36770   0.37330   1.000
    H27     H    0.93480   0.40760   0.28360   1.000
    C28     C    0.96210   0.24480   0.37850   1.000
    H28     H    0.93430   0.20230   0.29140   1.000
    C29     C    0.63230   0.96150   0.37330   1.000
    H29     H    0.59240   0.93480   0.28360   1.000
    C30     C    0.75520   0.96210   0.37850   1.000
    H30     H    0.79770   0.93430   0.29140   1.000
    C31     C    0.36770   0.03850   0.37330   1.000
    H31     H    0.40760   0.06520   0.28360   1.000
    C32     C    0.24480   0.03790   0.37850   1.000
    H32     H    0.20230   0.06570   0.29140   1.000
    Cu1     Cu   0.00000   0.00000   0.50000   1.000
    N1      N    0.00000   0.18260   0.50000   1.000
    C33     C    0.00000   0.43360   0.50000   1.000
    N2      N    0.00000   0.81740   0.50000   1.000
    C34     C    0.00000   0.56640   0.50000   1.000
    N3      N    0.81740   0.00000   0.50000   1.000
    C35     C    0.56640   0.00000   0.50000   1.000
    N4      N    0.18260   0.00000   0.50000   1.000
    C36     C    0.43360   0.00000   0.50000   1.000
