# CIF file generated by openbabel 2.4.1, see http://openbabel.sf.net
data_I
_chemical_name_common 'MIZPUI_clean'
_cell_length_a 16.9323
_cell_length_b 16.9323
_cell_length_c 16.9323
_cell_angle_alpha 67.017
_cell_angle_beta 67.017
_cell_angle_gamma 67.017
_space_group_name_H-M_alt 'P 1'
_space_group_name_Hall 'P 1'
loop_
    _symmetry_equiv_pos_as_xyz
    x,y,z
loop_
    _atom_site_label
    _atom_site_type_symbol
    _atom_site_fract_x
    _atom_site_fract_y
    _atom_site_fract_z
    _atom_site_occupancy
    Cu1     Cu   0.57464   0.00529   0.00529   1.000
    Cu2     Cu   0.00529   0.57464   0.00529   1.000
    Cu3     Cu   0.99471   0.99471   0.42536   1.000
    Cu4     Cu   0.99471   0.42536   0.99471   1.000
    Cu5     Cu   0.00529   0.00529   0.57464   1.000
    Cu6     Cu   0.42536   0.99471   0.99471   1.000
    B1      B    0.43980   0.03250   0.59050   1.000
    B2      B    0.40330   0.07100   0.49470   1.000
    B3      B    0.43980   0.59050   0.03250   1.000
    B4      B    0.40950   0.56020   0.96750   1.000
    B5      B    0.92900   0.59670   0.50530   1.000
    B6      B    0.49470   0.40330   0.07100   1.000
    B7      B    0.10110   0.49345   0.49345   1.000
    B8      B    0.56020   0.40950   0.96750   1.000
    B9      B    0.96750   0.56020   0.40950   1.000
    B10     B    0.40330   0.49470   0.07100   1.000
    B11     B    0.96750   0.40950   0.56020   1.000
    B12     B    0.50530   0.59670   0.92900   1.000
    B13     B    0.92900   0.50530   0.59670   1.000
    B14     B    0.03250   0.43980   0.59050   1.000
    B15     B    0.59670   0.50530   0.92900   1.000
    B16     B    0.07100   0.49470   0.40330   1.000
    B17     B    0.49345   0.10110   0.49345   1.000
    B18     B    0.59050   0.43980   0.03250   1.000
    B19     B    0.50530   0.92900   0.59670   1.000
    B20     B    0.07100   0.40330   0.49470   1.000
    B21     B    0.59670   0.92900   0.50530   1.000
    B22     B    0.59050   0.03250   0.43980   1.000
    B23     B    0.49345   0.49345   0.10110   1.000
    B24     B    0.50655   0.50655   0.89890   1.000
    B25     B    0.40950   0.96750   0.56020   1.000
    B26     B    0.56020   0.96750   0.40950   1.000
    B27     B    0.89890   0.50655   0.50655   1.000
    B28     B    0.49470   0.07100   0.40330   1.000
    B29     B    0.50655   0.89890   0.50655   1.000
    B30     B    0.03250   0.59050   0.43980   1.000
    H1      H    0.50990   0.87920   0.66290   1.000
    H2      H    0.02980   0.73235   0.73235   1.000
    H3      H    0.50550   0.71850   0.01820   1.000
    H4      H    0.94490   0.60120   0.34790   1.000
    H5      H    0.39880   0.05510   0.65210   1.000
    H6      H    0.48915   0.48915   0.17030   1.000
    H7      H    0.49010   0.12080   0.33710   1.000
    H8      H    0.05510   0.65210   0.39880   1.000
    H9      H    0.48915   0.17030   0.48915   1.000
    H10     H    0.26765   0.97020   0.26765   1.000
    H11     H    0.82970   0.51085   0.51085   1.000
    H12     H    0.50990   0.66290   0.87920   1.000
    H13     H    0.66290   0.87920   0.50990   1.000
    H14     H    0.73235   0.02980   0.73235   1.000
    H15     H    0.05510   0.39880   0.65210   1.000
    H16     H    0.34790   0.94490   0.60120   1.000
    H17     H    0.50550   0.01820   0.71850   1.000
    H18     H    0.34790   0.60120   0.94490   1.000
    H19     H    0.65210   0.39880   0.05510   1.000
    H20     H    0.65210   0.05510   0.39880   1.000
    H21     H    0.60120   0.34790   0.94490   1.000
    H22     H    0.17030   0.48915   0.48915   1.000
    H23     H    0.12080   0.49010   0.33710   1.000
    H24     H    0.28150   0.49450   0.98180   1.000
    H25     H    0.97020   0.26765   0.26765   1.000
    H26     H    0.33710   0.12080   0.49010   1.000
    H27     H    0.71850   0.50550   0.01820   1.000
    H28     H    0.71850   0.01820   0.50550   1.000
    H29     H    0.66290   0.50990   0.87920   1.000
    H30     H    0.60120   0.94490   0.34790   1.000
    H31     H    0.49450   0.98180   0.28150   1.000
    H32     H    0.39880   0.65210   0.05510   1.000
    H33     H    0.01820   0.71850   0.50550   1.000
    H34     H    0.87920   0.50990   0.66290   1.000
    H35     H    0.98180   0.49450   0.28150   1.000
    H36     H    0.49450   0.28150   0.98180   1.000
    H37     H    0.28150   0.98180   0.49450   1.000
    H38     H    0.33710   0.49010   0.12080   1.000
    H39     H    0.98180   0.28150   0.49450   1.000
    H40     H    0.26765   0.26765   0.97020   1.000
    H41     H    0.01820   0.50550   0.71850   1.000
    H42     H    0.12080   0.33710   0.49010   1.000
    H43     H    0.51085   0.51085   0.82970   1.000
    H44     H    0.49010   0.33710   0.12080   1.000
    H45     H    0.94490   0.34790   0.60120   1.000
    H46     H    0.73235   0.73235   0.02980   1.000
    H47     H    0.87920   0.66290   0.50990   1.000
    H48     H    0.51085   0.82970   0.51085   1.000
    C1      C    0.02604   0.73894   0.61144   1.000
    C2      C    0.69939   0.02759   0.69939   1.000
    C3      C    0.99120   0.44765   0.44765   1.000
    C4      C    0.02042   0.56562   0.69042   1.000
    C5      C    0.30061   0.30061   0.97241   1.000
    C6      C    0.69939   0.69939   0.02759   1.000
    C7      C    0.57021   0.83551   0.02131   1.000
    C8      C    0.39655   0.39655   0.98210   1.000
    C9      C    0.97869   0.16449   0.42979   1.000
    C10     C    0.97958   0.43438   0.30958   1.000
    C11     C    0.97396   0.38856   0.26106   1.000
    C12     C    0.60345   0.01790   0.60345   1.000
    C13     C    0.98210   0.39655   0.39655   1.000
    C14     C    0.30958   0.43438   0.97958   1.000
    C15     C    0.61144   0.02604   0.73894   1.000
    C16     C    0.43438   0.30958   0.97958   1.000
    C17     C    0.97869   0.42979   0.16449   1.000
    C18     C    0.60345   0.60345   0.01790   1.000
    C19     C    0.39655   0.98210   0.39655   1.000
    C20     C    0.26106   0.97396   0.38856   1.000
    C21     C    0.38856   0.97396   0.26106   1.000
    C22     C    0.55235   0.00880   0.55235   1.000
    C23     C    0.69042   0.02042   0.56562   1.000
    C24     C    0.55235   0.55235   0.00880   1.000
    C25     C    0.01790   0.60345   0.60345   1.000
    C26     C    0.56562   0.69042   0.02042   1.000
    C27     C    0.57021   0.02131   0.83551   1.000
    C28     C    0.44765   0.99120   0.44765   1.000
    C29     C    0.16449   0.97869   0.42979   1.000
    C30     C    0.97241   0.30061   0.30061   1.000
    C31     C    0.73894   0.61144   0.02604   1.000
    C32     C    0.83551   0.57021   0.02131   1.000
    C33     C    0.30061   0.97241   0.30061   1.000
    C34     C    0.69042   0.56562   0.02042   1.000
    C35     C    0.42979   0.97869   0.16449   1.000
    C36     C    0.16449   0.42979   0.97869   1.000
    C37     C    0.02131   0.83551   0.57021   1.000
    C38     C    0.44765   0.44765   0.99120   1.000
    C39     C    0.42979   0.16449   0.97869   1.000
    C40     C    0.02759   0.69939   0.69939   1.000
    C41     C    0.61144   0.73894   0.02604   1.000
    C42     C    0.02042   0.69042   0.56562   1.000
    C43     C    0.26106   0.38856   0.97396   1.000
    C44     C    0.97396   0.26106   0.38856   1.000
    C45     C    0.83551   0.02131   0.57021   1.000
    C46     C    0.00880   0.55235   0.55235   1.000
    C47     C    0.97958   0.30958   0.43438   1.000
    C48     C    0.02604   0.61144   0.73894   1.000
    C49     C    0.73894   0.02604   0.61144   1.000
    C50     C    0.30958   0.97958   0.43438   1.000
    C51     C    0.56562   0.02042   0.69042   1.000
    C52     C    0.43438   0.97958   0.30958   1.000
    C53     C    0.38856   0.26106   0.97396   1.000
    C54     C    0.02131   0.57021   0.83551   1.000
    O1      O    0.87682   0.61752   0.02272   1.000
    O2      O    0.87682   0.02272   0.61752   1.000
    O3      O    0.38248   0.12318   0.97728   1.000
    O4      O    0.97728   0.12318   0.38248   1.000
    O5      O    0.13267   0.98557   0.50867   1.000
    O6      O    0.12318   0.38248   0.97728   1.000
    O7      O    0.61752   0.02272   0.87682   1.000
    O8      O    0.49133   0.86733   0.01443   1.000
    O9      O    0.50867   0.98557   0.13267   1.000
    O10     O    0.98557   0.13267   0.50867   1.000
    O11     O    0.98557   0.50867   0.13267   1.000
    O12     O    0.01443   0.86733   0.49133   1.000
    O13     O    0.49133   0.01443   0.86733   1.000
    O14     O    0.61752   0.87682   0.02272   1.000
    O15     O    0.02272   0.87682   0.61752   1.000
    O16     O    0.38248   0.97728   0.12318   1.000
    O17     O    0.02272   0.61752   0.87682   1.000
    O18     O    0.13267   0.50867   0.98557   1.000
    O19     O    0.50867   0.13267   0.98557   1.000
    O20     O    0.97728   0.38248   0.12318   1.000
    O21     O    0.86733   0.01443   0.49133   1.000
    O22     O    0.01443   0.49133   0.86733   1.000
    O23     O    0.86733   0.49133   0.01443   1.000
    O24     O    0.12318   0.97728   0.38248   1.000
