# CIF file generated by openbabel 2.4.1, see http://openbabel.sf.net
data_I
_chemical_name_common 'image0'
_cell_length_a 11.621
_cell_length_b 11.941
_cell_length_c 22.698
_cell_angle_alpha 90
_cell_angle_beta 94.33
_cell_angle_gamma 90
_space_group_name_H-M_alt 'P 1'
_space_group_name_Hall 'P 1'
loop_
    _symmetry_equiv_pos_as_xyz
    x,y,z
loop_
    _atom_site_label
    _atom_site_type_symbol
    _atom_site_fract_x
    _atom_site_fract_y
    _atom_site_fract_z
    _atom_site_occupancy
    Co1     Co   0.61570   0.97960   0.53470   1.000
    Co2     Co   0.47240   0.72990   0.52170   1.000
    Co3     Co   0.38460   0.50780   0.45710   1.000
    O1      O    0.71710   0.83930   0.55190   1.000
    O2      O    0.65080   0.67160   0.52310   1.000
    O3      O    0.28830   0.73980   0.52660   1.000
    O4      O    0.23650   0.58080   0.47890   1.000
    O5      O    0.69980   0.01610   0.45130   1.000
    H1      H    0.71800   0.08220   0.45300   1.000
    O6      O    0.48960   0.88610   0.48810   1.000
    H2      H    0.52400   0.86300   0.46080   1.000
    O7      O    0.45740   0.56300   0.54180   1.000
    H3      H    0.42600   0.55600   0.57230   1.000
    O8      O    0.45840   0.66700   0.42940   1.000
    O9      O    0.59250   0.78390   0.40100   1.000
    O10     O    0.53540   0.54060   0.11470   1.000
    O11     O    0.48470   0.72180   0.11120   1.000
    N1      N    0.30990   0.48030   0.37110   1.000
    N2      N    0.28110   0.44340   0.27760   1.000
    N3      N    0.19400   0.51350   0.28970   1.000
    N4      N    0.93580   0.38850   0.10430   1.000
    N5      N    0.87270   0.29880   0.11840   1.000
    N6      N    0.75890   0.43160   0.07510   1.000
    C1      C    0.73200   0.73890   0.53930   1.000
    C2      C    0.85540   0.70260   0.53990   1.000
    C3      C    0.89150   0.64960   0.49150   1.000
    H4      H    0.83720   0.62210   0.46290   1.000
    C4      C    0.00940   0.63600   0.48420   1.000
    H5      H    0.03170   0.59800   0.45110   1.000
    C5      C    0.09240   0.67690   0.52440   1.000
    C6      C    0.05890   0.72670   0.57780   1.000
    C7      C    0.13930   0.76250   0.62450   1.000
    H6      H    0.21790   0.75740   0.61980   1.000
    C8      C    0.10330   0.80420   0.67580   1.000
    H7      H    0.15760   0.82630   0.70580   1.000
    C9      C    0.98500   0.81410   0.68400   1.000
    H8      H    0.96140   0.84320   0.71920   1.000
    C10     C    0.90500   0.78100   0.64040   1.000
    H9      H    0.82690   0.78720   0.64640   1.000
    C11     C    0.93820   0.73760   0.58640   1.000
    C12     C    0.21600   0.66560   0.50960   1.000
    C13     C    0.52240   0.70740   0.39150   1.000
    C14     C    0.51040   0.66800   0.32760   1.000
    C15     C    0.42680   0.71480   0.28950   1.000
    H10     H    0.36780   0.75630   0.30430   1.000
    C16     C    0.42970   0.70040   0.22860   1.000
    H11     H    0.37360   0.73500   0.20350   1.000
    C17     C    0.51270   0.63680   0.20470   1.000
    C18     C    0.59920   0.58290   0.24320   1.000
    C19     C    0.69080   0.51920   0.22250   1.000
    H12     H    0.69290   0.50620   0.18220   1.000
    C20     C    0.77590   0.47670   0.26070   1.000
    H13     H    0.83450   0.43410   0.24620   1.000
    C21     C    0.77590   0.49630   0.32160   1.000
    H14     H    0.83520   0.46820   0.34720   1.000
    C22     C    0.68930   0.55640   0.34310   1.000
    H15     H    0.68980   0.56860   0.38360   1.000
    C23     C    0.59830   0.60080   0.30530   1.000
    C24     C    0.51200   0.63270   0.13810   1.000
    C25     C    0.21510   0.53340   0.34580   1.000
    H16     H    0.16910   0.58020   0.36700   1.000
    C26     C    0.34800   0.42420   0.32630   1.000
    H17     H    0.41260   0.37800   0.32870   1.000
    C27     C    0.29190   0.40330   0.21690   1.000
    H18     H    0.28090   0.46600   0.18990   1.000
    H19     H    0.36940   0.37480   0.21390   1.000
    C28     C    0.21180   0.31870   0.19980   1.000
    H20     H    0.21140   0.26510   0.23190   1.000
    H21     H    0.23990   0.27970   0.16620   1.000
    C29     C    0.09210   0.35210   0.18380   1.000
    H22     H    0.07340   0.41390   0.20920   1.000
    H23     H    0.04230   0.29000   0.19250   1.000
    C30     C    0.06190   0.38850   0.11780   1.000
    H24     H    0.09230   0.46290   0.11140   1.000
    H25     H    0.09760   0.33710   0.09150   1.000
    C31     C    0.86850   0.46590   0.07860   1.000
    H26     H    0.89370   0.53440   0.06490   1.000
    C32     C    0.76750   0.32880   0.09960   1.000
    H27     H    0.70380   0.28260   0.10280   1.000
    Co4     Co   0.38430   0.97960   0.46530   1.000
    Co5     Co   0.52760   0.72990   0.47830   1.000
    Co6     Co   0.61540   0.50780   0.54290   1.000
    O12     O    0.28290   0.83930   0.44810   1.000
    O13     O    0.34920   0.67160   0.47690   1.000
    O14     O    0.71170   0.73980   0.47340   1.000
    O15     O    0.76350   0.58080   0.52110   1.000
    O16     O    0.30020   0.01610   0.54870   1.000
    H28     H    0.28200   0.08220   0.54700   1.000
    O17     O    0.51040   0.88610   0.51190   1.000
    H29     H    0.47600   0.86300   0.53920   1.000
    O18     O    0.54260   0.56300   0.45820   1.000
    H30     H    0.57400   0.55600   0.42770   1.000
    O19     O    0.54160   0.66700   0.57060   1.000
    O20     O    0.40750   0.78390   0.59900   1.000
    O21     O    0.46460   0.54060   0.88530   1.000
    O22     O    0.51530   0.72180   0.88880   1.000
    N7      N    0.69010   0.48030   0.62890   1.000
    N8      N    0.71890   0.44340   0.72240   1.000
    N9      N    0.80600   0.51350   0.71030   1.000
    N10     N    0.06420   0.38850   0.89570   1.000
    N11     N    0.12730   0.29880   0.88160   1.000
    N12     N    0.24110   0.43160   0.92490   1.000
    C33     C    0.26800   0.73890   0.46070   1.000
    C34     C    0.14460   0.70260   0.46010   1.000
    C35     C    0.10850   0.64960   0.50850   1.000
    H31     H    0.16280   0.62210   0.53710   1.000
    C36     C    0.99060   0.63600   0.51580   1.000
    H32     H    0.96830   0.59800   0.54890   1.000
    C37     C    0.90760   0.67690   0.47560   1.000
    C38     C    0.94110   0.72670   0.42220   1.000
    C39     C    0.86070   0.76250   0.37550   1.000
    H33     H    0.78210   0.75740   0.38020   1.000
    C40     C    0.89670   0.80420   0.32420   1.000
    H34     H    0.84240   0.82630   0.29420   1.000
    C41     C    0.01500   0.81410   0.31600   1.000
    H35     H    0.03860   0.84320   0.28080   1.000
    C42     C    0.09500   0.78100   0.35960   1.000
    H36     H    0.17310   0.78720   0.35360   1.000
    C43     C    0.06180   0.73760   0.41360   1.000
    C44     C    0.78400   0.66560   0.49040   1.000
    C45     C    0.47760   0.70740   0.60850   1.000
    C46     C    0.48960   0.66800   0.67240   1.000
    C47     C    0.57320   0.71480   0.71050   1.000
    H37     H    0.63220   0.75630   0.69570   1.000
    C48     C    0.57030   0.70040   0.77140   1.000
    H38     H    0.62640   0.73500   0.79650   1.000
    C49     C    0.48730   0.63680   0.79530   1.000
    C50     C    0.40080   0.58290   0.75680   1.000
    C51     C    0.30920   0.51920   0.77750   1.000
    H39     H    0.30710   0.50620   0.81780   1.000
    C52     C    0.22410   0.47670   0.73930   1.000
    H40     H    0.16550   0.43410   0.75380   1.000
    C53     C    0.22410   0.49630   0.67840   1.000
    H41     H    0.16480   0.46820   0.65280   1.000
    C54     C    0.31070   0.55640   0.65690   1.000
    H42     H    0.31020   0.56860   0.61640   1.000
    C55     C    0.40170   0.60080   0.69470   1.000
    C56     C    0.48800   0.63270   0.86190   1.000
    C57     C    0.78490   0.53340   0.65420   1.000
    H43     H    0.83090   0.58020   0.63300   1.000
    C58     C    0.65200   0.42420   0.67370   1.000
    H44     H    0.58740   0.37800   0.67130   1.000
    C59     C    0.70810   0.40330   0.78310   1.000
    H45     H    0.71910   0.46600   0.81010   1.000
    H46     H    0.63060   0.37480   0.78610   1.000
    C60     C    0.78820   0.31870   0.80020   1.000
    H47     H    0.78860   0.26510   0.76810   1.000
    H48     H    0.76010   0.27970   0.83380   1.000
    C61     C    0.90790   0.35210   0.81620   1.000
    H49     H    0.92660   0.41390   0.79080   1.000
    H50     H    0.95770   0.29000   0.80750   1.000
    C62     C    0.93810   0.38850   0.88220   1.000
    H51     H    0.90770   0.46290   0.88860   1.000
    H52     H    0.90240   0.33710   0.90850   1.000
    C63     C    0.13150   0.46590   0.92140   1.000
    H53     H    0.10630   0.53440   0.93510   1.000
    C64     C    0.23250   0.32880   0.90040   1.000
    H54     H    0.29620   0.28260   0.89720   1.000
    Co7     Co   0.38430   0.02040   0.46530   1.000
    Co8     Co   0.52760   0.27010   0.47830   1.000
    Co9     Co   0.61540   0.49220   0.54290   1.000
    O23     O    0.28290   0.16070   0.44810   1.000
    O24     O    0.34920   0.32840   0.47690   1.000
    O25     O    0.71170   0.26020   0.47340   1.000
    O26     O    0.76350   0.41920   0.52110   1.000
    O27     O    0.30020   0.98390   0.54870   1.000
    H55     H    0.28200   0.91780   0.54700   1.000
    O28     O    0.51040   0.11390   0.51190   1.000
    H56     H    0.47600   0.13700   0.53920   1.000
    O29     O    0.54260   0.43700   0.45820   1.000
    H57     H    0.57400   0.44400   0.42770   1.000
    O30     O    0.54160   0.33300   0.57060   1.000
    O31     O    0.40750   0.21610   0.59900   1.000
    O32     O    0.46460   0.45940   0.88530   1.000
    O33     O    0.51530   0.27820   0.88880   1.000
    N13     N    0.69010   0.51970   0.62890   1.000
    N14     N    0.71890   0.55660   0.72240   1.000
    N15     N    0.80600   0.48650   0.71030   1.000
    N16     N    0.06420   0.61150   0.89570   1.000
    N17     N    0.12730   0.70120   0.88160   1.000
    N18     N    0.24110   0.56840   0.92490   1.000
    C65     C    0.26800   0.26110   0.46070   1.000
    C66     C    0.14460   0.29740   0.46010   1.000
    C67     C    0.10850   0.35040   0.50850   1.000
    H58     H    0.16280   0.37790   0.53710   1.000
    C68     C    0.99060   0.36400   0.51580   1.000
    H59     H    0.96830   0.40200   0.54890   1.000
    C69     C    0.90760   0.32310   0.47560   1.000
    C70     C    0.94110   0.27330   0.42220   1.000
    C71     C    0.86070   0.23750   0.37550   1.000
    H60     H    0.78210   0.24260   0.38020   1.000
    C72     C    0.89670   0.19580   0.32420   1.000
    H61     H    0.84240   0.17370   0.29420   1.000
    C73     C    0.01500   0.18590   0.31600   1.000
    H62     H    0.03860   0.15680   0.28080   1.000
    C74     C    0.09500   0.21900   0.35960   1.000
    H63     H    0.17310   0.21280   0.35360   1.000
    C75     C    0.06180   0.26240   0.41360   1.000
    C76     C    0.78400   0.33440   0.49040   1.000
    C77     C    0.47760   0.29260   0.60850   1.000
    C78     C    0.48960   0.33200   0.67240   1.000
    C79     C    0.57320   0.28520   0.71050   1.000
    H64     H    0.63220   0.24370   0.69570   1.000
    C80     C    0.57030   0.29960   0.77140   1.000
    H65     H    0.62640   0.26500   0.79650   1.000
    C81     C    0.48730   0.36320   0.79530   1.000
    C82     C    0.40080   0.41710   0.75680   1.000
    C83     C    0.30920   0.48080   0.77750   1.000
    H66     H    0.30710   0.49380   0.81780   1.000
    C84     C    0.22410   0.52330   0.73930   1.000
    H67     H    0.16550   0.56590   0.75380   1.000
    C85     C    0.22410   0.50370   0.67840   1.000
    H68     H    0.16480   0.53180   0.65280   1.000
    C86     C    0.31070   0.44360   0.65690   1.000
    H69     H    0.31020   0.43140   0.61640   1.000
    C87     C    0.40170   0.39920   0.69470   1.000
    C88     C    0.48800   0.36730   0.86190   1.000
    C89     C    0.78490   0.46660   0.65420   1.000
    H70     H    0.83090   0.41980   0.63300   1.000
    C90     C    0.65200   0.57580   0.67370   1.000
    H71     H    0.58740   0.62200   0.67130   1.000
    C91     C    0.70810   0.59670   0.78310   1.000
    H72     H    0.71910   0.53400   0.81010   1.000
    H73     H    0.63060   0.62520   0.78610   1.000
    C92     C    0.78820   0.68130   0.80020   1.000
    H74     H    0.78860   0.73490   0.76810   1.000
    H75     H    0.76010   0.72030   0.83380   1.000
    C93     C    0.90790   0.64790   0.81620   1.000
    H76     H    0.92660   0.58610   0.79080   1.000
    H77     H    0.95770   0.71000   0.80750   1.000
    C94     C    0.93810   0.61150   0.88220   1.000
    H78     H    0.90770   0.53710   0.88860   1.000
    H79     H    0.90240   0.66290   0.90850   1.000
    C95     C    0.13150   0.53410   0.92140   1.000
    H80     H    0.10630   0.46560   0.93510   1.000
    C96     C    0.23250   0.67120   0.90040   1.000
    H81     H    0.29620   0.71740   0.89720   1.000
    Co10    Co   0.61570   0.02040   0.53470   1.000
    Co11    Co   0.47240   0.27010   0.52170   1.000
    Co12    Co   0.38460   0.49220   0.45710   1.000
    O34     O    0.71710   0.16070   0.55190   1.000
    O35     O    0.65080   0.32840   0.52310   1.000
    O36     O    0.28830   0.26020   0.52660   1.000
    O37     O    0.23650   0.41920   0.47890   1.000
    O38     O    0.69980   0.98390   0.45130   1.000
    H82     H    0.71800   0.91780   0.45300   1.000
    O39     O    0.48960   0.11390   0.48810   1.000
    H83     H    0.52400   0.13700   0.46080   1.000
    O40     O    0.45740   0.43700   0.54180   1.000
    H84     H    0.42600   0.44400   0.57230   1.000
    O41     O    0.45840   0.33300   0.42940   1.000
    O42     O    0.59250   0.21610   0.40100   1.000
    O43     O    0.53540   0.45940   0.11470   1.000
    O44     O    0.48470   0.27820   0.11120   1.000
    N19     N    0.30990   0.51970   0.37110   1.000
    N20     N    0.28110   0.55660   0.27760   1.000
    N21     N    0.19400   0.48650   0.28970   1.000
    N22     N    0.93580   0.61150   0.10430   1.000
    N23     N    0.87270   0.70120   0.11840   1.000
    N24     N    0.75890   0.56840   0.07510   1.000
    C97     C    0.73200   0.26110   0.53930   1.000
    C98     C    0.85540   0.29740   0.53990   1.000
    C99     C    0.89150   0.35040   0.49150   1.000
    H85     H    0.83720   0.37790   0.46290   1.000
    C100    C    0.00940   0.36400   0.48420   1.000
    H86     H    0.03170   0.40200   0.45110   1.000
    C101    C    0.09240   0.32310   0.52440   1.000
    C102    C    0.05890   0.27330   0.57780   1.000
    C103    C    0.13930   0.23750   0.62450   1.000
    H87     H    0.21790   0.24260   0.61980   1.000
    C104    C    0.10330   0.19580   0.67580   1.000
    H88     H    0.15760   0.17370   0.70580   1.000
    C105    C    0.98500   0.18590   0.68400   1.000
    H89     H    0.96140   0.15680   0.71920   1.000
    C106    C    0.90500   0.21900   0.64040   1.000
    H90     H    0.82690   0.21280   0.64640   1.000
    C107    C    0.93820   0.26240   0.58640   1.000
    C108    C    0.21600   0.33440   0.50960   1.000
    C109    C    0.52240   0.29260   0.39150   1.000
    C110    C    0.51040   0.33200   0.32760   1.000
    C111    C    0.42680   0.28520   0.28950   1.000
    H91     H    0.36780   0.24370   0.30430   1.000
    C112    C    0.42970   0.29960   0.22860   1.000
    H92     H    0.37360   0.26500   0.20350   1.000
    C113    C    0.51270   0.36320   0.20470   1.000
    C114    C    0.59920   0.41710   0.24320   1.000
    C115    C    0.69080   0.48080   0.22250   1.000
    H93     H    0.69290   0.49380   0.18220   1.000
    C116    C    0.77590   0.52330   0.26070   1.000
    H94     H    0.83450   0.56590   0.24620   1.000
    C117    C    0.77590   0.50370   0.32160   1.000
    H95     H    0.83520   0.53180   0.34720   1.000
    C118    C    0.68930   0.44360   0.34310   1.000
    H96     H    0.68980   0.43140   0.38360   1.000
    C119    C    0.59830   0.39920   0.30530   1.000
    C120    C    0.51200   0.36730   0.13810   1.000
    C121    C    0.21510   0.46660   0.34580   1.000
    H97     H    0.16910   0.41980   0.36700   1.000
    C122    C    0.34800   0.57580   0.32630   1.000
    H98     H    0.41260   0.62200   0.32870   1.000
    C123    C    0.29190   0.59670   0.21690   1.000
    H99     H    0.28090   0.53400   0.18990   1.000
    H100    H    0.36940   0.62520   0.21390   1.000
    C124    C    0.21180   0.68130   0.19980   1.000
    H101    H    0.21140   0.73490   0.23190   1.000
    H102    H    0.23990   0.72030   0.16620   1.000
    C125    C    0.09210   0.64790   0.18380   1.000
    H103    H    0.07340   0.58610   0.20920   1.000
    H104    H    0.04230   0.71000   0.19250   1.000
    C126    C    0.06190   0.61150   0.11780   1.000
    H105    H    0.09230   0.53710   0.11140   1.000
    H106    H    0.09760   0.66290   0.09150   1.000
    C127    C    0.86850   0.53410   0.07860   1.000
    H107    H    0.89370   0.46560   0.06490   1.000
    C128    C    0.76750   0.67120   0.09960   1.000
    H108    H    0.70380   0.71740   0.10280   1.000
    H109    H    0.65100   0.00000   0.42530   1.000
    H110    H    0.34900   0.00000   0.57470   1.000
