# CIF file generated by openbabel 2.4.1, see http://openbabel.sf.net
data_I
_chemical_name_common 'image0'
_cell_length_a 8.668
_cell_length_b 17.558
_cell_length_c 9.186
_cell_angle_alpha 90
_cell_angle_beta 107.75
_cell_angle_gamma 90
_space_group_name_H-M_alt 'P 1'
_space_group_name_Hall 'P 1'
loop_
    _symmetry_equiv_pos_as_xyz
    x,y,z
loop_
    _atom_site_label
    _atom_site_type_symbol
    _atom_site_fract_x
    _atom_site_fract_y
    _atom_site_fract_z
    _atom_site_occupancy
    Al1     Al   0.08330   0.29730   0.28500   1.000
    Al2     Al   0.14270   0.11130   0.15510   1.000
    Al3     Al   0.53580   0.32360   0.18040   1.000
    P1      P    0.35970   0.42580   0.34750   1.000
    P2      P    0.81640   0.29440   0.46540   1.000
    P3      P    0.27530   0.16950   0.48960   1.000
    O1      O    0.04830   0.20660   0.18080   1.000
    O2      O    0.20350   0.38070   0.29340   1.000
    O3      O    0.25170   0.25260   0.43830   1.000
    O4      O    0.95260   0.31310   0.40060   1.000
    O5      O    0.43930   0.15770   0.60920   1.000
    O6      O    0.46520   0.40530   0.24590   1.000
    O7      O    0.86460   0.22740   0.57610   1.000
    O8      O    0.14140   0.14570   0.55870   1.000
    O9      O    0.66310   0.27260   0.33430   1.000
    O10     O    0.26580   0.11630   0.35550   1.000
    O11     O    0.45170   0.40610   0.51140   1.000
    O12     O    0.31600   0.50900   0.32720   1.000
    O13     O    0.77950   0.36290   0.55040   1.000
    Al4     Al   0.41670   0.79730   0.21500   1.000
    Al5     Al   0.35730   0.61130   0.34490   1.000
    Al6     Al   0.96420   0.82360   0.31960   1.000
    P4      P    0.14030   0.92580   0.15250   1.000
    P5      P    0.68360   0.79440   0.03460   1.000
    P6      P    0.22470   0.66950   0.01040   1.000
    O14     O    0.45170   0.70660   0.31920   1.000
    O15     O    0.29650   0.88070   0.20660   1.000
    O16     O    0.24830   0.75260   0.06170   1.000
    O17     O    0.54740   0.81310   0.09940   1.000
    O18     O    0.06070   0.65770   0.89080   1.000
    O19     O    0.03480   0.90530   0.25410   1.000
    O20     O    0.63540   0.72740   0.92390   1.000
    O21     O    0.35860   0.64570   0.94130   1.000
    O22     O    0.83690   0.77260   0.16570   1.000
    O23     O    0.23420   0.61630   0.14450   1.000
    O24     O    0.04830   0.90610   0.98860   1.000
    O25     O    0.18400   0.00900   0.17280   1.000
    O26     O    0.72050   0.86290   0.94960   1.000
    Al7     Al   0.91670   0.70270   0.71500   1.000
    Al8     Al   0.85730   0.88870   0.84490   1.000
    Al9     Al   0.46420   0.67640   0.81960   1.000
    P7      P    0.64030   0.57420   0.65250   1.000
    P8      P    0.18360   0.70560   0.53460   1.000
    P9      P    0.72470   0.83050   0.51040   1.000
    O27     O    0.95170   0.79340   0.81920   1.000
    O28     O    0.79650   0.61930   0.70660   1.000
    O29     O    0.74830   0.74740   0.56170   1.000
    O30     O    0.04740   0.68690   0.59940   1.000
    O31     O    0.56070   0.84230   0.39080   1.000
    O32     O    0.53480   0.59470   0.75410   1.000
    O33     O    0.13540   0.77260   0.42390   1.000
    O34     O    0.85860   0.85430   0.44130   1.000
    O35     O    0.33690   0.72740   0.66570   1.000
    O36     O    0.73420   0.88370   0.64450   1.000
    O37     O    0.54830   0.59390   0.48860   1.000
    O38     O    0.68400   0.49100   0.67280   1.000
    O39     O    0.22050   0.63710   0.44960   1.000
    Al10    Al   0.58330   0.20270   0.78500   1.000
    Al11    Al   0.64270   0.38870   0.65510   1.000
    Al12    Al   0.03580   0.17640   0.68040   1.000
    P10     P    0.85970   0.07420   0.84750   1.000
    P11     P    0.31640   0.20560   0.96540   1.000
    P12     P    0.77530   0.33050   0.98960   1.000
    O40     O    0.54830   0.29340   0.68080   1.000
    O41     O    0.70350   0.11930   0.79340   1.000
    O42     O    0.75170   0.24740   0.93830   1.000
    O43     O    0.45260   0.18690   0.90060   1.000
    O44     O    0.93930   0.34230   0.10920   1.000
    O45     O    0.96520   0.09470   0.74590   1.000
    O46     O    0.36460   0.27260   0.07610   1.000
    O47     O    0.64140   0.35430   0.05870   1.000
    O48     O    0.16310   0.22740   0.83430   1.000
    O49     O    0.76580   0.38370   0.85550   1.000
    O50     O    0.95170   0.09390   0.01140   1.000
    O51     O    0.81600   0.99100   0.82720   1.000
    O52     O    0.27950   0.13710   0.05040   1.000
