data_functionalizedCrystal
_audit_creation_method	'EQeq! by Chris Wilmer'
_symmetry_space_group_name_H-M	'P1'
_symmetry_Int_Tables_number	1
_symmetry_cell_setting	triclinic
loop_
_symmetry_equiv_pos_as_xyz
  x,y,z
_cell_length_a	6.803
_cell_length_b	15.1144
_cell_length_c	15.1144
_cell_angle_alpha	62.2098
_cell_angle_beta	81.3712
_cell_angle_gamma	98.6288
loop_
_atom_site_label
_atom_site_type_symbol
_atom_site_fract_x
_atom_site_fract_y
_atom_site_fract_z
_atom_site_charge
Mof_Co	Co	0.1011	0.7169	0.7006	1.144
Mof_Co	Co	0.8017	0.7006	0.5825	1.179
Mof_Co	Co	0.1011	0.2994	0.2831	1.146
Mof_Co	Co	0.3842	0.5825	0.7169	1.165
Mof_Co	Co	0.8017	0.4175	0.2994	1.179
Mof_Co	Co	0.3842	0.2831	0.4175	1.166
Mof_H 	H 	0.5385	0	0.5685	-0.04
Mof_H 	H 	0.107	0.5685	0.4315	-0.053
Mof_H 	H 	0.23975	0	0.48375	0.151
Mof_H 	H 	0.5385	0.4315	-0	-0.035
Mof_H 	H 	0.7235	0.48375	0.51625	0.158
Mof_H 	H 	0.23975	0.51625	-0	0.15
Mof_C 	C 	0.7281	0.4148	0.0946	-0.346
Mof_C 	C 	0.9457	0.9057	0.5621	0.39
Mof_C 	C 	0.04	0.0943	0.4678	0.296
Mof_C 	C 	0.8227	0.5094	0.9054	-0.283
Mof_C 	C 	0.2032	0.4558	0.3581	0.444
Mof_C 	C 	0.04	0.5322	0.9057	0.292
Mof_C 	C 	0.5613	0.8139	0.6419	0.45
Mof_C 	C 	0.7474	0.5442	0.8139	0.426
Mof_C 	C 	0.9457	0.4379	0.0943	0.398
Mof_C 	C 	0.7281	0.9054	0.5852	-0.361
Mof_C 	C 	0.67155	0.44305	-0	0.221
Mof_C 	C 	0.0878	4.32071e-17	0.4992	-0.405
Mof_C 	C 	0.5613	0.3581	0.1861	0.446
Mof_C 	C 	0.3133	0.4906	0.4148	-0.354
Mof_C 	C 	0.7474	0.1861	0.4558	0.429
Mof_C 	C 	0.5078	0.4678	0.4379	0.348
Mof_C 	C 	0.3133	0.5852	0.5094	-0.354
Mof_C 	C 	0.2285	0.55695	0.44305	0.24
Mof_C 	C 	0.587	0.4992	0.5008	-0.364
Mof_C 	C 	0.5078	0.5621	0.5322	0.348
Mof_C 	C 	0.0878	0.5008	-0	-0.414
Mof_C 	C 	0.67155	0	0.55695	0.242
Mof_C 	C 	0.8227	0.0946	0.4906	-0.289
Mof_C 	C 	0.2032	0.6419	0.5442	0.444
Mof_O 	O 	0.5597	0.1795	0.4924	-0.439
Mof_O 	O 	0.0521	0.6719	0.5076	-0.474
Mof_O 	O 	0.2557	0.3845	0.3405	-0.617
Mof_O 	O 	0.9979	0.8174	0.5815	-0.526
Mof_O 	O 	0.5597	0.5076	0.8205	-0.439
Mof_O 	O 	0.1805	0.6011	0.8174	-0.547
Mof_O 	O 	0.0521	0.4924	0.3281	-0.473
Mof_O 	O 	0.5962	0.3405	0.275	-0.605
Mof_O 	O 	0.3802	0.3281	0.1795	-0.451
Mof_O 	O 	0.5794	0.5815	0.6011	-0.541
Mof_O 	O 	0.8712	0.6155	0.725	-0.574
Mof_O 	O 	0.8712	0.275	0.3845	-0.574
Mof_O 	O 	0.5794	0.3989	0.4185	-0.541
Mof_O 	O 	0.9979	0.4185	0.1826	-0.526
Mof_O 	O 	0.2557	0.6595	0.6155	-0.617
Mof_O 	O 	0.5962	0.725	0.6595	-0.607
Mof_O 	O 	0.3802	0.8205	0.6719	-0.457
Mof_O 	O 	0.1805	0.1826	0.3989	-0.546
_end
